
###############################################################################
#
# This file contains modified crystal structure data generated from the
# MOF subset of the Cambridge Structural Database (CSD) v543 
# hosted by the Cambridge Crystallographic Data Centre (CCDC).
#
# This work is licensed under the Creative Commons
# Attribution-NonCommercial-ShareAlike 4.0 International License.
# To view a copy of this license, visit
# http://creativecommons.org/licenses/by-nc-sa/4.0/
# or send a letter to
# Creative Commons, PO Box 1866, Mountain View, CA 94042, USA.
#
# CIF created using the CSD Python API on 29 September 2022
# The structure has been converted into the P1 space group
# The structure has a 3D framework
# The original CSD entry GEJQEU is in the cubic crystal system
# The framework has been calculated to contain at least 10.0% void space
# The void calculation uses a probe of radius 1.32A, grid spacing 0.4
#
###############################################################################

data_GEJQEU
_chemical_formula_moiety         '(C96 H96 Mg22 O144)n'
_symmetry_cell_setting           triclinic
_symmetry_space_group_name_H-M   'P 1'
_symmetry_Int_Tables_number      1
_space_group_name_Hall           'P 1'
loop_
_symmetry_equiv_pos_site_id
_symmetry_equiv_pos_as_xyz
1 x,y,z
_cell_length_a                   16.2912(19)
_cell_length_b                   16.2912(19)
_cell_length_c                   16.2912(19)
_cell_angle_alpha                90
_cell_angle_beta                 90
_cell_angle_gamma                90
_cell_volume                     4323.74
loop_
_atom_site_label
_atom_site_type_symbol
_atom_site_fract_x
_atom_site_fract_y
_atom_site_fract_z
Mg6 Mg 0.2500 0.00182(6) 0.00182(6)
O1 O 0.11753(15) 0.70293(14) 0.00407(18)
C1 C 0.1902(2) 0.7297(2) 0.0011(2)
O6 O 0.38247(15) 0.79707(14) 0.00407(18)
C5 C 0.3098(2) 0.7703(2) 0.0011(2)
O12 O 0.54040(16) 0.86262(17) 0.03822(16)
H7 H 0.5888 0.8727 0.0196
H8 H 0.5075 0.9002 0.0212
Mg7 Mg 0.2500 0.49818(6) 0.00182(6)
O13 O 0.49593(18) 0.70293(14) 0.11753(15)
O14 O 0.00407(18) 0.79707(14) 0.11753(15)
O3 O 0.03822(16) 0.86262(17) 0.95960(16)
H1 H 0.0196 0.8727 0.9112
H2 H 0.0212 0.9002 0.9925
O4 O 0.20293(14) 0.88247(15) 0.99593(18)
C3 C 0.2297(2) 0.8098(2) 0.9989(2)
O5 O 0.29707(14) 0.61753(15) 0.99593(18)
C4 C 0.2703(2) 0.6902(2) 0.9989(2)
Mg2 Mg 0.50182(6) 0.7500 0.99818(6)
O10 O 0.46178(16) 0.63738(17) 0.95960(16)
H3 H 0.4804 0.6273 0.9112
H4 H 0.4788 0.5998 0.9925
O15 O 0.51298(17) 0.79948(14) 0.88143(15)
O16 O 0.61857(15) 0.70052(14) 0.98702(17)
O11 O 0.95960(16) 0.63738(17) 0.03822(16)
H5 H 0.9112 0.6273 0.0196
H6 H 0.9925 0.5998 0.0212
Mg1 Mg 0.99818(6) 0.7500 0.99818(6)
O2 O 0.98702(17) 0.70052(14) 0.88143(15)
C2 C 0.9827(2) 0.7282(2) 0.8091(2)
O7 O 0.98702(17) 0.61857(15) 0.70052(14)
C6 C 0.9827(2) 0.6909(2) 0.7282(2)
O8 O 0.98702(17) 0.88143(15) 0.79948(14)
C7 C 0.9827(2) 0.8091(2) 0.7718(2)
O9 O 0.98702(17) 0.79948(14) 0.61857(15)
C8 C 0.9827(2) 0.7718(2) 0.6909(2)
Mg3 Mg 0.99818(6) 0.7500 0.50182(6)
Mg4 Mg 0.99818(6) 0.99818(6) 0.7500
Mg5 Mg 0.99818(6) 0.50182(6) 0.7500
O17 O 0.88143(15) 0.79948(14) 0.98702(17)
Mg7_2 Mg 0.00182(6) 0.2500 0.00182(6)
O1_2 O 0.79707(14) 0.11753(15) 0.00407(18)
C1_2 C 0.7703(2) 0.1902(2) 0.0011(2)
O6_2 O 0.70293(14) 0.38247(15) 0.00407(18)
C5_2 C 0.7297(2) 0.3098(2) 0.0011(2)
O12_2 O 0.63738(17) 0.54040(16) 0.03822(16)
H7_2 H 0.6273 0.5888 0.0196
H8_2 H 0.5998 0.5075 0.0212
Mg6_2 Mg 0.49818(6) 0.2500 0.00182(6)
O13_2 O 0.79707(14) 0.49593(18) 0.11753(15)
O14_2 O 0.70293(14) 0.00407(18) 0.11753(15)
O3_2 O 0.63738(17) 0.03822(16) 0.95960(16)
H1_2 H 0.6273 0.0196 0.9112
H2_2 H 0.5998 0.0212 0.9925
O4_2 O 0.61753(15) 0.20293(14) 0.99593(18)
C3_2 C 0.6902(2) 0.2297(2) 0.9989(2)
O5_2 O 0.88247(15) 0.29707(14) 0.99593(18)
C4_2 C 0.8098(2) 0.2703(2) 0.9989(2)
Mg2_2 Mg 0.7500 0.50182(6) 0.99818(6)
O10_2 O 0.86262(17) 0.46178(16) 0.95960(16)
H3_2 H 0.8727 0.4804 0.9112
H4_2 H 0.9002 0.4788 0.9925
O15_2 O 0.70052(14) 0.51298(17) 0.88143(15)
O16_2 O 0.79948(14) 0.61857(15) 0.98702(17)
O11_2 O 0.86262(17) 0.95960(16) 0.03822(16)
H5_2 H 0.8727 0.9112 0.0196
H6_2 H 0.9002 0.9925 0.0212
Mg1_2 Mg 0.7500 0.99818(6) 0.99818(6)
O2_2 O 0.79948(14) 0.98702(17) 0.88143(15)
C2_2 C 0.7718(2) 0.9827(2) 0.8091(2)
O7_2 O 0.88143(15) 0.98702(17) 0.70052(14)
C6_2 C 0.8091(2) 0.9827(2) 0.7282(2)
O8_2 O 0.61857(15) 0.98702(17) 0.79948(14)
C7_2 C 0.6909(2) 0.9827(2) 0.7718(2)
O9_2 O 0.70052(14) 0.98702(17) 0.61857(15)
C8_2 C 0.7282(2) 0.9827(2) 0.6909(2)
Mg3_2 Mg 0.7500 0.99818(6) 0.50182(6)
Mg4_2 Mg 0.50182(6) 0.99818(6) 0.7500
O17_2 O 0.70052(14) 0.88143(15) 0.98702(17)
C2_3 C 0.5173(2) 0.7718(2) 0.8091(2)
O7_3 O 0.51298(17) 0.88143(15) 0.70052(14)
C6_3 C 0.5173(2) 0.8091(2) 0.7282(2)
O8_3 O 0.51298(17) 0.61857(15) 0.79948(14)
C7_3 C 0.5173(2) 0.6909(2) 0.7718(2)
O9_3 O 0.51298(17) 0.70052(14) 0.61857(15)
C8_3 C 0.5173(2) 0.7282(2) 0.6909(2)
Mg3_3 Mg 0.50182(6) 0.7500 0.50182(6)
Mg4_3 Mg 0.50182(6) 0.50182(6) 0.7500
C2_4 C 0.7282(2) 0.5173(2) 0.8091(2)
O7_4 O 0.61857(15) 0.51298(17) 0.70052(14)
C6_4 C 0.6909(2) 0.5173(2) 0.7282(2)
O8_4 O 0.88143(15) 0.51298(17) 0.79948(14)
C7_4 C 0.8091(2) 0.5173(2) 0.7718(2)
O9_4 O 0.79948(14) 0.51298(17) 0.61857(15)
C8_4 C 0.7718(2) 0.5173(2) 0.6909(2)
Mg3_4 Mg 0.7500 0.50182(6) 0.50182(6)
Mg7_3 Mg 0.2500 0.00182(6) 0.49818(6)
O1_3 O 0.11753(15) 0.79707(14) 0.49593(18)
O3_3 O 0.03822(16) 0.63738(17) 0.54040(16)
H1_3 H 0.0196 0.6273 0.5888
H2_3 H 0.0212 0.5998 0.5075
C1_3 C 0.1902(2) 0.7703(2) 0.4989(2)
O4_3 O 0.20293(14) 0.61753(15) 0.50407(18)
C3_3 C 0.2297(2) 0.6902(2) 0.5011(2)
O5_3 O 0.29707(14) 0.88247(15) 0.50407(18)
C4_3 C 0.2703(2) 0.8098(2) 0.5011(2)
O6_3 O 0.38247(15) 0.70293(14) 0.49593(18)
C5_3 C 0.3098(2) 0.7297(2) 0.4989(2)
O10_3 O 0.46178(16) 0.86262(17) 0.54040(16)
H3_3 H 0.4804 0.8727 0.5888
H4_3 H 0.4788 0.9002 0.5075
O12_3 O 0.54040(16) 0.63738(17) 0.46178(16)
H7_3 H 0.5888 0.6273 0.4804
H8_3 H 0.5075 0.5998 0.4788
Mg6_3 Mg 0.2500 0.49818(6) 0.49818(6)
O13_3 O 0.49593(18) 0.79707(14) 0.38247(15)
O14_3 O 0.00407(18) 0.70293(14) 0.38247(15)
O16_3 O 0.61857(15) 0.79948(14) 0.51298(17)
O11_3 O 0.95960(16) 0.86262(17) 0.46178(16)
H5_3 H 0.9112 0.8727 0.4804
H6_3 H 0.9925 0.9002 0.4788
O17_3 O 0.88143(15) 0.70052(14) 0.51298(17)
Mg6_4 Mg 0.00182(6) 0.2500 0.49818(6)
O1_4 O 0.70293(14) 0.11753(15) 0.49593(18)
O3_4 O 0.86262(17) 0.03822(16) 0.54040(16)
H1_4 H 0.8727 0.0196 0.5888
H2_4 H 0.9002 0.0212 0.5075
C1_4 C 0.7297(2) 0.1902(2) 0.4989(2)
O4_4 O 0.88247(15) 0.20293(14) 0.50407(18)
C3_4 C 0.8098(2) 0.2297(2) 0.5011(2)
O5_4 O 0.61753(15) 0.29707(14) 0.50407(18)
C4_4 C 0.6902(2) 0.2703(2) 0.5011(2)
O6_4 O 0.79707(14) 0.38247(15) 0.49593(18)
C5_4 C 0.7703(2) 0.3098(2) 0.4989(2)
O10_4 O 0.63738(17) 0.46178(16) 0.54040(16)
H3_4 H 0.6273 0.4804 0.5888
H4_4 H 0.5998 0.4788 0.5075
O12_4 O 0.86262(17) 0.54040(16) 0.46178(16)
H7_4 H 0.8727 0.5888 0.4804
H8_4 H 0.9002 0.5075 0.4788
Mg7_4 Mg 0.49818(6) 0.2500 0.49818(6)
O13_4 O 0.70293(14) 0.49593(18) 0.38247(15)
O14_4 O 0.79707(14) 0.00407(18) 0.38247(15)
O16_4 O 0.70052(14) 0.61857(15) 0.51298(17)
O11_4 O 0.63738(17) 0.95960(16) 0.46178(16)
H5_4 H 0.6273 0.9112 0.4804
H6_4 H 0.5998 0.9925 0.4788
O17_4 O 0.79948(14) 0.88143(15) 0.51298(17)
O1_5 O 0.00407(18) 0.11753(15) 0.70293(14)
C1_5 C 0.0011(2) 0.1902(2) 0.7297(2)
O6_5 O 0.00407(18) 0.38247(15) 0.79707(14)
C5_5 C 0.0011(2) 0.3098(2) 0.7703(2)
O12_5 O 0.03822(16) 0.54040(16) 0.86262(17)
H7_5 H 0.0196 0.5888 0.8727
H8_5 H 0.0212 0.5075 0.9002
O13_5 O 0.11753(15) 0.49593(18) 0.70293(14)
O14_5 O 0.11753(15) 0.00407(18) 0.79707(14)
O11_5 O 0.03822(16) 0.95960(16) 0.63738(17)
H5_5 H 0.0196 0.9112 0.6273
H6_5 H 0.0212 0.9925 0.5998
O3_5 O 0.95960(16) 0.03822(16) 0.86262(17)
H1_5 H 0.9112 0.0196 0.8727
H2_5 H 0.9925 0.0212 0.9002
O4_5 O 0.99593(18) 0.20293(14) 0.88247(15)
C3_5 C 0.9989(2) 0.2297(2) 0.8098(2)
O5_5 O 0.99593(18) 0.29707(14) 0.61753(15)
C4_5 C 0.9989(2) 0.2703(2) 0.6902(2)
O10_5 O 0.95960(16) 0.46178(16) 0.63738(17)
H3_5 H 0.9112 0.4804 0.6273
H4_5 H 0.9925 0.4788 0.5998
O1_6 O 0.38247(15) 0.00407(18) 0.70293(14)
C1_6 C 0.3098(2) 0.0011(2) 0.7297(2)
C5_6 C 0.1902(2) 0.0011(2) 0.7703(2)
O11_6 O 0.54040(16) 0.03822(16) 0.63738(17)
H5_6 H 0.5888 0.0196 0.6273
H6_6 H 0.5075 0.0212 0.5998
O14_6 O 0.49593(18) 0.11753(15) 0.79707(14)
O3_6 O 0.46178(16) 0.95960(16) 0.86262(17)
H1_6 H 0.4804 0.9112 0.8727
H2_6 H 0.4788 0.9925 0.9002
O4_6 O 0.29707(14) 0.99593(18) 0.88247(15)
C3_6 C 0.2703(2) 0.9989(2) 0.8098(2)
O5_6 O 0.20293(14) 0.99593(18) 0.61753(15)
C4_6 C 0.2297(2) 0.9989(2) 0.6902(2)
O1_7 O 0.49593(18) 0.38247(15) 0.70293(14)
O3_7 O 0.54040(16) 0.46178(16) 0.86262(17)
H1_7 H 0.5888 0.4804 0.8727
H2_7 H 0.5075 0.4788 0.9002
C1_7 C 0.4989(2) 0.3098(2) 0.7297(2)
O4_7 O 0.50407(18) 0.29707(14) 0.88247(15)
C3_7 C 0.5011(2) 0.2703(2) 0.8098(2)
O5_7 O 0.50407(18) 0.20293(14) 0.61753(15)
C4_7 C 0.5011(2) 0.2297(2) 0.6902(2)
C5_7 C 0.4989(2) 0.1902(2) 0.7703(2)
O11_7 O 0.46178(16) 0.54040(16) 0.63738(17)
H5_7 H 0.4804 0.5888 0.6273
H6_7 H 0.4788 0.5075 0.5998
O14_7 O 0.38247(15) 0.49593(18) 0.79707(14)
C1_8 C 0.1902(2) 0.4989(2) 0.7297(2)
O4_8 O 0.20293(14) 0.50407(18) 0.88247(15)
C3_8 C 0.2297(2) 0.5011(2) 0.8098(2)
O5_8 O 0.29707(14) 0.50407(18) 0.61753(15)
C4_8 C 0.2703(2) 0.5011(2) 0.6902(2)
C5_8 C 0.3098(2) 0.4989(2) 0.7703(2)
Mg6_5 Mg 0.00182(6) 0.00182(6) 0.2500
C1_9 C 0.7297(2) 0.0011(2) 0.1902(2)
C5_9 C 0.7703(2) 0.0011(2) 0.3098(2)
Mg7_5 Mg 0.49818(6) 0.00182(6) 0.2500
O4_9 O 0.88247(15) 0.99593(18) 0.20293(14)
C3_9 C 0.8098(2) 0.9989(2) 0.2297(2)
O5_9 O 0.61753(15) 0.99593(18) 0.29707(14)
C4_9 C 0.6902(2) 0.9989(2) 0.2703(2)
C2_5 C 0.7282(2) 0.8091(2) 0.9827(2)
C6_5 C 0.6909(2) 0.7282(2) 0.9827(2)
C7_5 C 0.8091(2) 0.7718(2) 0.9827(2)
C8_5 C 0.7718(2) 0.6909(2) 0.9827(2)
C1_10 C 0.4989(2) 0.7703(2) 0.3098(2)
C2_6 C 0.6909(2) 0.7718(2) 0.5173(2)
O4_10 O 0.50407(18) 0.61753(15) 0.29707(14)
C3_10 C 0.5011(2) 0.6902(2) 0.2703(2)
O5_10 O 0.50407(18) 0.88247(15) 0.20293(14)
C4_10 C 0.5011(2) 0.8098(2) 0.2297(2)
C5_10 C 0.4989(2) 0.7297(2) 0.1902(2)
C6_6 C 0.7718(2) 0.8091(2) 0.5173(2)
C7_6 C 0.7282(2) 0.6909(2) 0.5173(2)
C8_6 C 0.8091(2) 0.7282(2) 0.5173(2)
Mg6_6 Mg 0.49818(6) 0.49818(6) 0.2500
C1_11 C 0.0011(2) 0.7297(2) 0.3098(2)
C5_11 C 0.0011(2) 0.7703(2) 0.1902(2)
Mg7_6 Mg 0.00182(6) 0.49818(6) 0.2500
O4_11 O 0.99593(18) 0.88247(15) 0.29707(14)
C3_11 C 0.9989(2) 0.8098(2) 0.2703(2)
O5_11 O 0.99593(18) 0.61753(15) 0.20293(14)
C4_11 C 0.9989(2) 0.6902(2) 0.2297(2)
C1_12 C 0.7297(2) 0.4989(2) 0.3098(2)
O4_12 O 0.88247(15) 0.50407(18) 0.29707(14)
C3_12 C 0.8098(2) 0.5011(2) 0.2703(2)
O5_12 O 0.61753(15) 0.50407(18) 0.20293(14)
C4_12 C 0.6902(2) 0.5011(2) 0.2297(2)
C5_12 C 0.7703(2) 0.4989(2) 0.1902(2)
O2_3 O 0.01298(17) 0.29948(14) 0.11857(15)
C2_7 C 0.0173(2) 0.2718(2) 0.1909(2)
O7_5 O 0.01298(17) 0.38143(15) 0.29948(14)
C6_7 C 0.0173(2) 0.3091(2) 0.2718(2)
O8_5 O 0.01298(17) 0.11857(15) 0.20052(14)
C7_7 C 0.0173(2) 0.1909(2) 0.2282(2)
O9_5 O 0.01298(17) 0.20052(14) 0.38143(15)
C8_7 C 0.0173(2) 0.2282(2) 0.3091(2)
O17_5 O 0.11857(15) 0.20052(14) 0.01298(17)
O11_8 O 0.04040(16) 0.36262(17) 0.96178(16)
H5_8 H 0.0888 0.3727 0.9804
H6_8 H 0.0075 0.4002 0.9788
O3_8 O 0.96178(16) 0.13738(17) 0.04040(16)
H1_8 H 0.9804 0.1273 0.0888
H2_8 H 0.9788 0.0998 0.0075
O10_6 O 0.53822(16) 0.36262(17) 0.04040(16)
H3_6 H 0.5196 0.3727 0.0888
H4_6 H 0.5212 0.4002 0.0075
O15_3 O 0.48702(17) 0.20052(14) 0.11857(15)
O16_5 O 0.38143(15) 0.29948(14) 0.01298(17)
O12_6 O 0.45960(16) 0.13738(17) 0.96178(16)
H7_6 H 0.4112 0.1273 0.9804
H8_6 H 0.4925 0.0998 0.9788
O2_4 O 0.20052(14) 0.01298(17) 0.11857(15)
C2_8 C 0.2282(2) 0.0173(2) 0.1909(2)
O7_6 O 0.11857(15) 0.01298(17) 0.29948(14)
C6_8 C 0.1909(2) 0.0173(2) 0.2718(2)
O8_6 O 0.38143(15) 0.01298(17) 0.20052(14)
C7_8 C 0.3091(2) 0.0173(2) 0.2282(2)
O9_6 O 0.29948(14) 0.01298(17) 0.38143(15)
C8_8 C 0.2718(2) 0.0173(2) 0.3091(2)
O17_6 O 0.29948(14) 0.11857(15) 0.01298(17)
O11_9 O 0.13738(17) 0.04040(16) 0.96178(16)
H5_9 H 0.1273 0.0888 0.9804
H6_9 H 0.0998 0.0075 0.9788
O3_9 O 0.36262(17) 0.96178(16) 0.04040(16)
H1_9 H 0.3727 0.9804 0.0888
H2_9 H 0.4002 0.9788 0.0075
O10_7 O 0.13738(17) 0.53822(16) 0.04040(16)
H3_7 H 0.1273 0.5196 0.0888
H4_7 H 0.0998 0.5212 0.0075
O15_4 O 0.29948(14) 0.48702(17) 0.11857(15)
O16_6 O 0.20052(14) 0.38143(15) 0.01298(17)
O12_7 O 0.36262(17) 0.45960(16) 0.96178(16)
H7_7 H 0.3727 0.4112 0.9804
H8_7 H 0.4002 0.4925 0.9788
C2_9 C 0.4827(2) 0.2282(2) 0.1909(2)
O7_7 O 0.48702(17) 0.11857(15) 0.29948(14)
C6_9 C 0.4827(2) 0.1909(2) 0.2718(2)
O8_7 O 0.48702(17) 0.38143(15) 0.20052(14)
C7_9 C 0.4827(2) 0.3091(2) 0.2282(2)
O9_7 O 0.48702(17) 0.29948(14) 0.38143(15)
C8_9 C 0.4827(2) 0.2718(2) 0.3091(2)
C2_10 C 0.2718(2) 0.4827(2) 0.1909(2)
O7_8 O 0.38143(15) 0.48702(17) 0.29948(14)
C6_10 C 0.3091(2) 0.4827(2) 0.2718(2)
O8_8 O 0.11857(15) 0.48702(17) 0.20052(14)
C7_10 C 0.1909(2) 0.4827(2) 0.2282(2)
O9_8 O 0.20052(14) 0.48702(17) 0.38143(15)
C8_10 C 0.2282(2) 0.4827(2) 0.3091(2)
O11_10 O 0.04040(16) 0.13738(17) 0.53822(16)
H5_10 H 0.0888 0.1273 0.5196
H6_10 H 0.0075 0.0998 0.5212
O17_7 O 0.11857(15) 0.29948(14) 0.48702(17)
O3_10 O 0.96178(16) 0.36262(17) 0.45960(16)
H1_10 H 0.9804 0.3727 0.4112
H2_10 H 0.9788 0.4002 0.4925
O10_8 O 0.53822(16) 0.13738(17) 0.45960(16)
H3_8 H 0.5196 0.1273 0.4112
H4_8 H 0.5212 0.0998 0.4925
O12_8 O 0.45960(16) 0.36262(17) 0.53822(16)
H7_8 H 0.4112 0.3727 0.5196
H8_8 H 0.4925 0.4002 0.5212
O16_7 O 0.38143(15) 0.20052(14) 0.48702(17)
O11_11 O 0.36262(17) 0.04040(16) 0.53822(16)
H5_11 H 0.3727 0.0888 0.5196
H6_11 H 0.4002 0.0075 0.5212
O17_8 O 0.20052(14) 0.11857(15) 0.48702(17)
O3_11 O 0.13738(17) 0.96178(16) 0.45960(16)
H1_11 H 0.1273 0.9804 0.4112
H2_11 H 0.0998 0.9788 0.4925
O10_9 O 0.36262(17) 0.53822(16) 0.45960(16)
H3_9 H 0.3727 0.5196 0.4112
H4_9 H 0.4002 0.5212 0.4925
O12_9 O 0.13738(17) 0.45960(16) 0.53822(16)
H7_9 H 0.1273 0.4112 0.5196
H8_9 H 0.0998 0.4925 0.5212
O16_8 O 0.29948(14) 0.38143(15) 0.48702(17)
O3_12 O 0.04040(16) 0.96178(16) 0.13738(17)
H1_12 H 0.0888 0.9804 0.1273
H2_12 H 0.0075 0.9788 0.0998
O10_10 O 0.04040(16) 0.53822(16) 0.36262(17)
H3_10 H 0.0888 0.5196 0.3727
H4_10 H 0.0075 0.5212 0.4002
O11_12 O 0.96178(16) 0.04040(16) 0.36262(17)
H5_12 H 0.9804 0.0888 0.3727
H6_12 H 0.9788 0.0075 0.4002
O12_10 O 0.96178(16) 0.45960(16) 0.13738(17)
H7_10 H 0.9804 0.4112 0.1273
H8_10 H 0.9788 0.4925 0.0998
O3_13 O 0.53822(16) 0.04040(16) 0.13738(17)
H1_13 H 0.5196 0.0888 0.1273
H2_13 H 0.5212 0.0075 0.0998
O11_13 O 0.45960(16) 0.96178(16) 0.36262(17)
H5_13 H 0.4112 0.9804 0.3727
H6_13 H 0.4925 0.9788 0.4002
O3_14 O 0.45960(16) 0.53822(16) 0.13738(17)
H1_14 H 0.4112 0.5196 0.1273
H2_14 H 0.4925 0.5212 0.0998
O11_14 O 0.53822(16) 0.45960(16) 0.36262(17)
H5_14 H 0.5196 0.4112 0.3727
H6_14 H 0.5212 0.4925 0.4002
C2_11 C 0.2718(2) 0.1909(2) 0.0173(2)
C6_11 C 0.3091(2) 0.2718(2) 0.0173(2)
C7_11 C 0.1909(2) 0.2282(2) 0.0173(2)
C8_11 C 0.2282(2) 0.3091(2) 0.0173(2)
C2_12 C 0.3091(2) 0.2282(2) 0.4827(2)
C6_12 C 0.2282(2) 0.1909(2) 0.4827(2)
C7_12 C 0.2718(2) 0.3091(2) 0.4827(2)
C8_12 C 0.1909(2) 0.2718(2) 0.4827(2)
loop_
_geom_bond_atom_site_label_1
_geom_bond_atom_site_label_2
_geom_bond_site_symmetry_1
_geom_bond_site_symmetry_2
O1 C1 1_555 1_555
O6 C5 1_555 1_555
H7 O12 1_555 1_555
H8 O12 1_555 1_555
H1 O3 1_555 1_555
H2 O3 1_555 1_555
O4 C3 1_555 1_555
O5 C4 1_555 1_555
O10 Mg2 1_555 1_555
H3 O10 1_555 1_555
H4 O10 1_555 1_555
O15 Mg2 1_555 1_555
O16 Mg2 1_555 1_555
H5 O11 1_555 1_555
H6 O11 1_555 1_555
O2 Mg1 1_555 1_555
C2 O2 1_555 1_555
O7 C6 1_555 1_555
C6 C2 1_555 1_555
O8 C7 1_555 1_555
C7 C2 1_555 1_555
O9 C8 1_555 1_555
C8 C6 1_555 1_555
Mg3 O9 1_555 1_555
Mg4 O8 1_555 1_555
Mg5 O7 1_555 1_555
O17 Mg1 1_555 1_555
C7 C8 1_555 1_555
O1_2 C1_2 1_555 1_555
O6_2 C5_2 1_555 1_555
H7_2 O12_2 1_555 1_555
H8_2 O12_2 1_555 1_555
H1_2 O3_2 1_555 1_555
H2_2 O3_2 1_555 1_555
O4_2 C3_2 1_555 1_555
O5_2 C4_2 1_555 1_555
O10_2 Mg2_2 1_555 1_555
H3_2 O10_2 1_555 1_555
H4_2 O10_2 1_555 1_555
O15_2 Mg2_2 1_555 1_555
O16_2 Mg2_2 1_555 1_555
H5_2 O11_2 1_555 1_555
H6_2 O11_2 1_555 1_555
O2_2 Mg1_2 1_555 1_555
C2_2 O2_2 1_555 1_555
O7_2 C6_2 1_555 1_555
C6_2 C2_2 1_555 1_555
O8_2 C7_2 1_555 1_555
C7_2 C2_2 1_555 1_555
O9_2 C8_2 1_555 1_555
C8_2 C6_2 1_555 1_555
Mg3_2 O9_2 1_555 1_555
Mg4_2 O8_2 1_555 1_555
Mg4 O7_2 1_555 1_555
O17_2 Mg1_2 1_555 1_555
C7_2 C8_2 1_555 1_555
C2_3 O15 1_555 1_555
O7_3 C6_3 1_555 1_555
C6_3 C2_3 1_555 1_555
O8_3 C7_3 1_555 1_555
C7_3 C2_3 1_555 1_555
O9_3 C8_3 1_555 1_555
C8_3 C6_3 1_555 1_555
Mg3_3 O9_3 1_555 1_555
Mg4_3 O8_3 1_555 1_555
Mg4_2 O7_3 1_555 1_555
C7_3 C8_3 1_555 1_555
C2_4 O15_2 1_555 1_555
O7_4 C6_4 1_555 1_555
C6_4 C2_4 1_555 1_555
O8_4 C7_4 1_555 1_555
C7_4 C2_4 1_555 1_555
O9_4 C8_4 1_555 1_555
C8_4 C6_4 1_555 1_555
Mg3_4 O9_4 1_555 1_555
Mg5 O8_4 1_555 1_555
Mg4_3 O7_4 1_555 1_555
C7_4 C8_4 1_555 1_555
O1_3 C1_3 1_555 1_555
H1_3 O3_3 1_555 1_555
H2_3 O3_3 1_555 1_555
C1_3 C3_3 1_555 1_555
O4_3 C3_3 1_555 1_555
C3_3 C5_3 1_555 1_555
O5_3 C4_3 1_555 1_555
C4_3 C1_3 1_555 1_555
O6_3 C5_3 1_555 1_555
C5_3 C4_3 1_555 1_555
Mg3_3 O6_3 1_555 1_555
O10_3 Mg3_3 1_555 1_555
H3_3 O10_3 1_555 1_555
H4_3 O10_3 1_555 1_555
O12_3 Mg3_3 1_555 1_555
H7_3 O12_3 1_555 1_555
H8_3 O12_3 1_555 1_555
Mg6_3 O4_3 1_555 1_555
O13_3 Mg3_3 1_555 1_555
O16_3 Mg3_3 1_555 1_555
O11_3 Mg3 1_555 1_555
H5_3 O11_3 1_555 1_555
H6_3 O11_3 1_555 1_555
O17_3 Mg3 1_555 1_555
O1_4 C1_4 1_555 1_555
H1_4 O3_4 1_555 1_555
H2_4 O3_4 1_555 1_555
C1_4 C3_4 1_555 1_555
O4_4 C3_4 1_555 1_555
C3_4 C5_4 1_555 1_555
O5_4 C4_4 1_555 1_555
C4_4 C1_4 1_555 1_555
O6_4 C5_4 1_555 1_555
C5_4 C4_4 1_555 1_555
Mg3_4 O6_4 1_555 1_555
O10_4 Mg3_4 1_555 1_555
H3_4 O10_4 1_555 1_555
H4_4 O10_4 1_555 1_555
O12_4 Mg3_4 1_555 1_555
H7_4 O12_4 1_555 1_555
H8_4 O12_4 1_555 1_555
Mg7_4 O5_4 1_555 1_555
O13_4 Mg3_4 1_555 1_555
O16_4 Mg3_4 1_555 1_555
O11_4 Mg3_2 1_555 1_555
H5_4 O11_4 1_555 1_555
H6_4 O11_4 1_555 1_555
O17_4 Mg3_2 1_555 1_555
O1_5 C1_5 1_555 1_555
O6_5 C5_5 1_555 1_555
H7_5 O12_5 1_555 1_555
H8_5 O12_5 1_555 1_555
H5_5 O11_5 1_555 1_555
H6_5 O11_5 1_555 1_555
H1_5 O3_5 1_555 1_555
H2_5 O3_5 1_555 1_555
O4_5 C3_5 1_555 1_555
O5_5 C4_5 1_555 1_555
O10_5 Mg5 1_555 1_555
H3_5 O10_5 1_555 1_555
H4_5 O10_5 1_555 1_555
O1_6 C1_6 1_555 1_555
O14_5 C5_6 1_555 1_555
H5_6 O11_6 1_555 1_555
H6_6 O11_6 1_555 1_555
O3_6 Mg4_2 1_555 1_555
H1_6 O3_6 1_555 1_555
H2_6 O3_6 1_555 1_555
O4_6 C3_6 1_555 1_555
O5_6 C4_6 1_555 1_555
Mg4_3 O1_7 1_555 1_555
O1_7 C1_7 1_555 1_555
O3_7 Mg4_3 1_555 1_555
H1_7 O3_7 1_555 1_555
H2_7 O3_7 1_555 1_555
C1_7 C3_7 1_555 1_555
O4_7 C3_7 1_555 1_555
C3_7 C5_7 1_555 1_555
O5_7 C4_7 1_555 1_555
C4_7 C1_7 1_555 1_555
O14_6 C5_7 1_555 1_555
C5_7 C4_7 1_555 1_555
O11_7 Mg4_3 1_555 1_555
H5_7 O11_7 1_555 1_555
H6_7 O11_7 1_555 1_555
Mg7_4 O5_7 1_555 1_555
O14_7 Mg4_3 1_555 1_555
O13_5 C1_8 1_555 1_555
C1_8 C3_8 1_555 1_555
O4_8 C3_8 1_555 1_555
C3_8 C5_8 1_555 1_555
O5_8 C4_8 1_555 1_555
C4_8 C1_8 1_555 1_555
O14_7 C5_8 1_555 1_555
C5_8 C4_8 1_555 1_555
Mg6_3 O5_8 1_555 1_555
O14_2 C1_9 1_555 1_555
O14_4 C5_9 1_555 1_555
O4_9 C3_9 1_555 1_555
O5_9 C4_9 1_555 1_555
C2_5 O17_2 1_555 1_555
O16 C6_5 1_555 1_555
C6_5 C2_5 1_555 1_555
O17 C7_5 1_555 1_555
C7_5 C2_5 1_555 1_555
O16_2 C8_5 1_555 1_555
C8_5 C6_5 1_555 1_555
C7_5 C8_5 1_555 1_555
O13_3 C1_10 1_555 1_555
C1_10 C3_10 1_555 1_555
C2_6 O16_3 1_555 1_555
O4_10 C3_10 1_555 1_555
C3_10 C5_10 1_555 1_555
O5_10 C4_10 1_555 1_555
C4_10 C1_10 1_555 1_555
O13 C5_10 1_555 1_555
C5_10 C4_10 1_555 1_555
O17_4 C6_6 1_555 1_555
C6_6 C2_6 1_555 1_555
O16_4 C7_6 1_555 1_555
C7_6 C2_6 1_555 1_555
O17_3 C8_6 1_555 1_555
C8_6 C6_6 1_555 1_555
Mg6_6 O4_10 1_555 1_555
C7_6 C8_6 1_555 1_555
O14_3 C1_11 1_555 1_555
O14 C5_11 1_555 1_555
O4_11 C3_11 1_555 1_555
O5_11 C4_11 1_555 1_555
O13_4 C1_12 1_555 1_555
C1_12 C3_12 1_555 1_555
O4_12 C3_12 1_555 1_555
C3_12 C5_12 1_555 1_555
O5_12 C4_12 1_555 1_555
C4_12 C1_12 1_555 1_555
O13_2 C5_12 1_555 1_555
C5_12 C4_12 1_555 1_555
Mg6_6 O5_12 1_555 1_555
O2_3 Mg7_2 1_555 1_555
C2_7 O2_3 1_555 1_555
O7_5 C6_7 1_555 1_555
C6_7 C2_7 1_555 1_555
O8_5 C7_7 1_555 1_555
C7_7 C2_7 1_555 1_555
O9_5 C8_7 1_555 1_555
C8_7 C6_7 1_555 1_555
Mg6_4 O9_5 1_555 1_555
Mg6_5 O8_5 1_555 1_555
Mg7_6 O7_5 1_555 1_555
O17_5 Mg7_2 1_555 1_555
C7_7 C8_7 1_555 1_555
H5_8 O11_8 1_555 1_555
H6_8 O11_8 1_555 1_555
H1_8 O3_8 1_555 1_555
H2_8 O3_8 1_555 1_555
O10_6 Mg6_2 1_555 1_555
H3_6 O10_6 1_555 1_555
H4_6 O10_6 1_555 1_555
O15_3 Mg6_2 1_555 1_555
O16_5 Mg6_2 1_555 1_555
H7_6 O12_6 1_555 1_555
H8_6 O12_6 1_555 1_555
O2_4 Mg6 1_555 1_555
C2_8 O2_4 1_555 1_555
O7_6 C6_8 1_555 1_555
C6_8 C2_8 1_555 1_555
O8_6 C7_8 1_555 1_555
C7_8 C2_8 1_555 1_555
O9_6 C8_8 1_555 1_555
C8_8 C6_8 1_555 1_555
Mg7_3 O9_6 1_555 1_555
Mg7_5 O8_6 1_555 1_555
Mg6_5 O7_6 1_555 1_555
O17_6 Mg6 1_555 1_555
C7_8 C8_8 1_555 1_555
H5_9 O11_9 1_555 1_555
H6_9 O11_9 1_555 1_555
H1_9 O3_9 1_555 1_555
H2_9 O3_9 1_555 1_555
O10_7 Mg7 1_555 1_555
H3_7 O10_7 1_555 1_555
H4_7 O10_7 1_555 1_555
O15_4 Mg7 1_555 1_555
O16_6 Mg7 1_555 1_555
H7_7 O12_7 1_555 1_555
H8_7 O12_7 1_555 1_555
C2_9 O15_3 1_555 1_555
O7_7 C6_9 1_555 1_555
C6_9 C2_9 1_555 1_555
O8_7 C7_9 1_555 1_555
C7_9 C2_9 1_555 1_555
O9_7 C8_9 1_555 1_555
C8_9 C6_9 1_555 1_555
Mg7_4 O9_7 1_555 1_555
Mg6_6 O8_7 1_555 1_555
Mg7_5 O7_7 1_555 1_555
C7_9 C8_9 1_555 1_555
C2_10 O15_4 1_555 1_555
O7_8 C6_10 1_555 1_555
C6_10 C2_10 1_555 1_555
O8_8 C7_10 1_555 1_555
C7_10 C2_10 1_555 1_555
O9_8 C8_10 1_555 1_555
C8_10 C6_10 1_555 1_555
Mg6_3 O9_8 1_555 1_555
Mg7_6 O8_8 1_555 1_555
Mg6_6 O7_8 1_555 1_555
C7_10 C8_10 1_555 1_555
O11_10 Mg6_4 1_555 1_555
H5_10 O11_10 1_555 1_555
H6_10 O11_10 1_555 1_555
O17_7 Mg6_4 1_555 1_555
H1_10 O3_10 1_555 1_555
H2_10 O3_10 1_555 1_555
O10_8 Mg7_4 1_555 1_555
H3_8 O10_8 1_555 1_555
H4_8 O10_8 1_555 1_555
O12_8 Mg7_4 1_555 1_555
H7_8 O12_8 1_555 1_555
H8_8 O12_8 1_555 1_555
O16_7 Mg7_4 1_555 1_555
O11_11 Mg7_3 1_555 1_555
H5_11 O11_11 1_555 1_555
H6_11 O11_11 1_555 1_555
O17_8 Mg7_3 1_555 1_555
H1_11 O3_11 1_555 1_555
H2_11 O3_11 1_555 1_555
O10_9 Mg6_3 1_555 1_555
H3_9 O10_9 1_555 1_555
H4_9 O10_9 1_555 1_555
O12_9 Mg6_3 1_555 1_555
H7_9 O12_9 1_555 1_555
H8_9 O12_9 1_555 1_555
O16_8 Mg6_3 1_555 1_555
H1_12 O3_12 1_555 1_555
H2_12 O3_12 1_555 1_555
O10_10 Mg7_6 1_555 1_555
H3_10 O10_10 1_555 1_555
H4_10 O10_10 1_555 1_555
H5_12 O11_12 1_555 1_555
H6_12 O11_12 1_555 1_555
H7_10 O12_10 1_555 1_555
H8_10 O12_10 1_555 1_555
O3_13 Mg7_5 1_555 1_555
H1_13 O3_13 1_555 1_555
H2_13 O3_13 1_555 1_555
H5_13 O11_13 1_555 1_555
H6_13 O11_13 1_555 1_555
O3_14 Mg6_6 1_555 1_555
H1_14 O3_14 1_555 1_555
H2_14 O3_14 1_555 1_555
O11_14 Mg6_6 1_555 1_555
H5_14 O11_14 1_555 1_555
H6_14 O11_14 1_555 1_555
C2_11 O17_6 1_555 1_555
O16_5 C6_11 1_555 1_555
C6_11 C2_11 1_555 1_555
O17_5 C7_11 1_555 1_555
C7_11 C2_11 1_555 1_555
O16_6 C8_11 1_555 1_555
C8_11 C6_11 1_555 1_555
C7_11 C8_11 1_555 1_555
C2_12 O16_7 1_555 1_555
O17_8 C6_12 1_555 1_555
C6_12 C2_12 1_555 1_555
O16_8 C7_12 1_555 1_555
C7_12 C2_12 1_555 1_555
O17_7 C8_12 1_555 1_555
C8_12 C6_12 1_555 1_555
C7_12 C8_12 1_555 1_555

#END
