
###############################################################################
#
# This file contains modified crystal structure data generated from the
# MOF subset of the Cambridge Structural Database (CSD) v543 
# hosted by the Cambridge Crystallographic Data Centre (CCDC).
#
# This work is licensed under the Creative Commons
# Attribution-NonCommercial-ShareAlike 4.0 International License.
# To view a copy of this license, visit
# http://creativecommons.org/licenses/by-nc-sa/4.0/
# or send a letter to
# Creative Commons, PO Box 1866, Mountain View, CA 94042, USA.
#
# CIF created using the CSD Python API on 29 September 2022
# The structure has been converted into the P1 space group
# The structure has a 3D framework
# The original CSD entry GELJAJ is in the orthorhombic crystal system
# The framework has been calculated to contain at least 10.0% void space
# The void calculation uses a probe of radius 1.32A, grid spacing 0.4
#
###############################################################################

data_GELJAJ
_chemical_formula_moiety         '(C104 H112 N16 O32 S8 Zn4)n'
_symmetry_cell_setting           triclinic
_symmetry_space_group_name_H-M   'P 1'
_symmetry_Int_Tables_number      1
_space_group_name_Hall           'P 1'
loop_
_symmetry_equiv_pos_site_id
_symmetry_equiv_pos_as_xyz
1 x,y,z
_cell_length_a                   9.5232(16)
_cell_length_b                   15.846(3)
_cell_length_c                   22.369(4)
_cell_angle_alpha                90
_cell_angle_beta                 90
_cell_angle_gamma                90
_cell_volume                     3375.59
loop_
_atom_site_label
_atom_site_type_symbol
_atom_site_fract_x
_atom_site_fract_y
_atom_site_fract_z
Zn1 Zn 0.19047(4) 0.68826(2) 0.486336(17)
O1 O 0.0498(2) 0.73746(15) 0.54027(12)
N1 N 0.3098(3) 0.60054(18) 0.52610(12)
N2 N 0.3941(3) 0.33835(18) 0.90591(12)
C1 C 0.2762(4) 0.5191(3) 0.5288(2)
C2 C 0.3541(5) 0.4612(3) 0.56092(19)
C3 C 0.4719(4) 0.4860(2) 0.59126(14)
C4 C 0.5070(5) 0.5699(3) 0.5869(2)
C5 C 0.4261(4) 0.6242(3) 0.55425(19)
C6 C 0.5549(4) 0.4263(3) 0.62912(17)
C7 C 0.4956(5) 0.4218(3) 0.69261(17)
C8 C 0.5919(5) 0.3719(3) 0.73432(19)
C9 C 0.5241(4) 0.3602(2) 0.79510(15)
C10 C 0.5308(5) 0.4216(3) 0.83888(19)
C11 C 0.4663(5) 0.4085(2) 0.89331(18)
C12 C 0.3856(4) 0.2800(2) 0.86261(17)
C13 C 0.4497(4) 0.2880(3) 0.80797(17)
H1 H 0.200(4) 0.508(3) 0.5092(18)
H2 H 0.333(5) 0.410(3) 0.560(2)
H3 H 0.588(4) 0.586(3) 0.6046(19)
H4 H 0.443(5) 0.679(3) 0.555(2)
H5 H 0.556(4) 0.367(3) 0.6102(18)
H6 H 0.642(5) 0.448(2) 0.6333(18)
H7 H 0.411(5) 0.396(3) 0.687(2)
H8 H 0.485(5) 0.486(3) 0.710(2)
H9 H 0.614(6) 0.326(3) 0.714(2)
H10 H 0.691(4) 0.397(3) 0.7345(19)
H11 H 0.590(4) 0.470(3) 0.8333(17)
H12 H 0.477(4) 0.449(2) 0.9248(17)
H13 H 0.328(4) 0.232(3) 0.8734(17)
H14 H 0.448(4) 0.238(3) 0.7768(19)
Zn3 Zn 0.30953(4) 0.31174(2) 0.986336(17)
O5 O 0.3039(2) 0.79018(17) 0.47614(13)
N3 N 0.1059(3) 0.66165(18) 0.40591(12)
S1 S 0.93149(8) 0.67953(5) 0.55608(4)
O2 O 0.8039(2) 0.70982(17) 0.52386(13)
O3 O 0.9072(3) 0.6839(2) 0.61955(13)
O4 O 0.9671(3) 0.59614(16) 0.53492(13)
Zn2 Zn 0.69047(4) 0.81174(2) 0.513664(17)
S1_2 S 0.56851(8) 0.32047(5) 0.05608(4)
O1_2 O 0.4502(2) 0.26254(15) 0.04027(12)
O2_2 O 0.6961(2) 0.29018(17) 0.02386(13)
O3_2 O 0.5928(3) 0.3161(2) 0.11955(13)
O4_2 O 0.5329(3) 0.40386(16) 0.03492(13)
N1_2 N 0.1902(3) 0.39946(18) 0.02610(12)
C1_2 C 0.2238(4) 0.4809(3) 0.0288(2)
C2_2 C 0.1459(5) 0.5388(3) 0.06092(19)
C3_2 C 0.0281(4) 0.5140(2) 0.09126(14)
C5_2 C 0.0739(4) 0.3758(3) 0.05425(19)
C7_2 C 0.0044(5) 0.5782(3) 0.19261(17)
C11_2 C 0.0337(5) 0.5915(2) 0.39331(18)
C12_2 C 0.1144(4) 0.7200(2) 0.36261(17)
C13_2 C 0.0503(4) 0.7120(3) 0.30797(17)
H1_2 H 0.300(4) 0.492(3) 0.0092(18)
H2_2 H 0.167(5) 0.590(3) 0.060(2)
H4_2 H 0.057(5) 0.321(3) 0.055(2)
H7_2 H 0.089(5) 0.604(3) 0.187(2)
H8_2 H 0.015(5) 0.514(3) 0.210(2)
H12_2 H 0.023(4) 0.551(2) 0.4248(17)
H13_2 H 0.172(4) 0.768(3) 0.3734(17)
H14_2 H 0.052(4) 0.762(3) 0.2768(19)
Zn2_2 Zn 0.80953(4) 0.18826(2) 0.013664(17)
O5_2 O 0.1961(2) 0.20982(17) 0.97614(13)
S1_3 S 0.06851(8) 0.17953(5) 0.94392(4)
O3_3 O 0.0928(3) 0.1839(2) 0.88045(13)
O4_3 O 0.0329(3) 0.09614(16) 0.96508(13)
N3_2 N 0.8941(3) 0.16165(18) 0.09409(12)
N2_2 N 0.6059(3) 0.83835(18) 0.59409(12)
C2_3 C 0.6459(5) 0.9612(3) 0.93908(19)
C3_3 C 0.5281(4) 0.9860(2) 0.90874(14)
C6_2 C 0.4451(4) 0.9263(3) 0.87088(17)
C7_3 C 0.5044(5) 0.9218(3) 0.80739(17)
C8_2 C 0.4081(5) 0.8719(3) 0.76568(19)
C9_2 C 0.4759(4) 0.8602(2) 0.70490(15)
C10_2 C 0.4692(5) 0.9216(3) 0.66112(19)
C11_3 C 0.5337(5) 0.9085(2) 0.60669(18)
C12_3 C 0.6144(4) 0.7800(2) 0.63739(17)
C13_3 C 0.5503(4) 0.7880(3) 0.69203(17)
H2_3 H 0.667(5) 0.910(3) 0.940(2)
H5_2 H 0.444(4) 0.867(3) 0.8898(18)
H6_2 H 0.358(5) 0.948(2) 0.8667(18)
H7_3 H 0.589(5) 0.896(3) 0.813(2)
H8_3 H 0.515(5) 0.986(3) 0.790(2)
H9_2 H 0.386(6) 0.826(3) 0.786(2)
H10_2 H 0.309(4) 0.897(3) 0.7655(19)
H11_2 H 0.410(4) 0.970(3) 0.6667(17)
H12_3 H 0.523(4) 0.949(2) 0.5752(17)
H13_3 H 0.672(4) 0.732(3) 0.6266(17)
H14_3 H 0.552(4) 0.738(3) 0.7232(19)
C2_4 C 0.8541(5) 0.0388(3) 0.43908(19)
C3_4 C 0.9719(4) 0.0140(2) 0.40874(14)
C7_4 C 0.9956(5) 0.0782(3) 0.30739(17)
C11_4 C 0.9663(5) 0.0915(2) 0.10669(18)
C12_4 C 0.8856(4) 0.2200(2) 0.13739(17)
C13_4 C 0.9497(4) 0.2120(3) 0.19203(17)
H2_4 H 0.833(5) 0.090(3) 0.440(2)
H7_4 H 0.911(5) 0.104(3) 0.313(2)
H8_4 H 0.985(5) 0.014(3) 0.290(2)
H12_4 H 0.977(4) 0.051(2) 0.0752(17)
H13_4 H 0.828(4) 0.268(3) 0.1266(17)
H14_4 H 0.948(4) 0.262(3) 0.2232(19)
S1_4 S 0.43149(8) 0.82047(5) 0.44392(4)
O1_3 O 0.5498(2) 0.76254(15) 0.45973(12)
O3_4 O 0.4072(3) 0.8161(2) 0.38045(13)
O4_4 O 0.4671(3) 0.90386(16) 0.46508(13)
N1_3 N 0.8098(3) 0.89946(18) 0.47390(12)
C1_3 C 0.7762(4) 0.9809(3) 0.4712(2)
C5_3 C 0.9261(4) 0.8758(3) 0.44575(19)
H1_3 H 0.700(4) 0.992(3) 0.4908(18)
H4_3 H 0.943(5) 0.821(3) 0.445(2)
C4_2 C 0.9930(5) 0.4301(3) 0.0869(2)
C6_3 C 0.9451(4) 0.5737(3) 0.12912(17)
C8_3 C 0.9081(5) 0.6281(3) 0.23432(19)
C9_3 C 0.9759(4) 0.6398(2) 0.29510(15)
C10_3 C 0.9692(5) 0.5784(3) 0.33888(19)
H3_2 H 0.912(4) 0.414(3) 0.1046(19)
H5_3 H 0.944(4) 0.633(3) 0.1102(18)
H6_3 H 0.858(5) 0.552(2) 0.1333(18)
H9_3 H 0.886(6) 0.674(3) 0.214(2)
H10_3 H 0.809(4) 0.603(3) 0.2345(19)
H11_3 H 0.910(4) 0.530(3) 0.3333(17)
O1_4 O 0.9502(2) 0.23746(15) 0.95973(12)
N1_4 N 0.6902(3) 0.10054(18) 0.97390(12)
C1_4 C 0.7238(4) 0.0191(3) 0.9712(2)
C4_3 C 0.4930(5) 0.0699(3) 0.9131(2)
C5_4 C 0.5739(4) 0.1242(3) 0.94575(19)
H1_4 H 0.800(4) 0.008(3) 0.9908(18)
H3_3 H 0.412(4) 0.086(3) 0.8954(19)
H4_4 H 0.557(5) 0.179(3) 0.945(2)
C6_4 C 0.0549(4) 0.0737(3) 0.37088(17)
C8_4 C 0.0919(5) 0.1281(3) 0.26568(19)
C9_4 C 0.0241(4) 0.1398(2) 0.20490(15)
C10_4 C 0.0308(5) 0.0784(3) 0.16112(19)
H5_4 H 0.056(4) 0.133(3) 0.3898(18)
H6_4 H 0.142(5) 0.052(2) 0.3667(18)
H9_4 H 0.114(6) 0.174(3) 0.286(2)
H10_4 H 0.191(4) 0.103(3) 0.2655(19)
H11_4 H 0.090(4) 0.030(3) 0.1667(17)
C4_4 C 0.0070(5) 0.9301(3) 0.4131(2)
H3_4 H 0.088(4) 0.914(3) 0.3954(19)
S1_5 S 0.06851(8) 0.32047(5) 0.44392(4)
O2_3 O 0.1961(2) 0.29018(17) 0.47614(13)
O3_5 O 0.0928(3) 0.3161(2) 0.38045(13)
O4_5 O 0.0329(3) 0.40386(16) 0.46508(13)
Zn2_3 Zn 0.30953(4) 0.18826(2) 0.486336(17)
Zn1_2 Zn 0.80953(4) 0.31174(2) 0.513664(17)
O1_5 O 0.9502(2) 0.26254(15) 0.45973(12)
N1_5 N 0.6902(3) 0.39946(18) 0.47390(12)
N2_3 N 0.6059(3) 0.66165(18) 0.09409(12)
C1_5 C 0.7238(4) 0.4809(3) 0.4712(2)
C2_5 C 0.6459(5) 0.5388(3) 0.43908(19)
C3_5 C 0.5281(4) 0.5140(2) 0.40874(14)
C4_5 C 0.4930(5) 0.4301(3) 0.4131(2)
C5_5 C 0.5739(4) 0.3758(3) 0.44575(19)
C6_5 C 0.4451(4) 0.5737(3) 0.37088(17)
C7_5 C 0.5044(5) 0.5782(3) 0.30739(17)
C8_5 C 0.4081(5) 0.6281(3) 0.26568(19)
C9_5 C 0.4759(4) 0.6398(2) 0.20490(15)
C10_5 C 0.4692(5) 0.5784(3) 0.16112(19)
C11_5 C 0.5337(5) 0.5915(2) 0.10669(18)
C12_5 C 0.6144(4) 0.7200(2) 0.13739(17)
C13_5 C 0.5503(4) 0.7120(3) 0.19203(17)
H1_5 H 0.800(4) 0.492(3) 0.4908(18)
H2_5 H 0.667(5) 0.590(3) 0.440(2)
H3_5 H 0.412(4) 0.414(3) 0.3954(19)
H4_5 H 0.557(5) 0.321(3) 0.445(2)
H5_5 H 0.444(4) 0.633(3) 0.3898(18)
H6_5 H 0.358(5) 0.552(2) 0.3667(18)
H7_5 H 0.589(5) 0.604(3) 0.313(2)
H8_5 H 0.515(5) 0.514(3) 0.290(2)
H9_5 H 0.386(6) 0.674(3) 0.286(2)
H10_5 H 0.309(4) 0.603(3) 0.2655(19)
H11_5 H 0.410(4) 0.530(3) 0.1667(17)
H12_5 H 0.523(4) 0.551(2) 0.0752(17)
H13_5 H 0.672(4) 0.768(3) 0.1266(17)
H14_5 H 0.552(4) 0.762(3) 0.2232(19)
Zn3_2 Zn 0.69047(4) 0.68826(2) 0.013664(17)
O5_3 O 0.6961(2) 0.20982(17) 0.52386(13)
N3_3 N 0.8941(3) 0.33835(18) 0.59409(12)
O5_4 O 0.8039(2) 0.79018(17) 0.02386(13)
S1_6 S 0.43149(8) 0.67953(5) 0.94392(4)
O1_6 O 0.5498(2) 0.73746(15) 0.95973(12)
O2_4 O 0.3039(2) 0.70982(17) 0.97614(13)
O3_6 O 0.4072(3) 0.6839(2) 0.88045(13)
O4_6 O 0.4671(3) 0.59614(16) 0.96508(13)
N1_6 N 0.8098(3) 0.60054(18) 0.97390(12)
C1_6 C 0.7762(4) 0.5191(3) 0.9712(2)
C2_6 C 0.8541(5) 0.4612(3) 0.93908(19)
C3_6 C 0.9719(4) 0.4860(2) 0.90874(14)
C5_6 C 0.9261(4) 0.6242(3) 0.94575(19)
C7_6 C 0.9956(5) 0.4218(3) 0.80739(17)
C11_6 C 0.9663(5) 0.4085(2) 0.60669(18)
C12_6 C 0.8856(4) 0.2800(2) 0.63739(17)
C13_6 C 0.9497(4) 0.2880(3) 0.69203(17)
H1_6 H 0.700(4) 0.508(3) 0.9908(18)
H2_6 H 0.833(5) 0.410(3) 0.940(2)
H4_6 H 0.943(5) 0.679(3) 0.945(2)
H7_6 H 0.911(5) 0.396(3) 0.813(2)
H8_6 H 0.985(5) 0.486(3) 0.790(2)
H12_6 H 0.977(4) 0.449(2) 0.5752(17)
H13_6 H 0.828(4) 0.232(3) 0.6266(17)
H14_6 H 0.948(4) 0.238(3) 0.7232(19)
Zn2_4 Zn 0.19047(4) 0.81174(2) 0.986336(17)
N2_4 N 0.3941(3) 0.16165(18) 0.40591(12)
C2_7 C 0.3541(5) 0.0388(3) 0.06092(19)
C3_7 C 0.4719(4) 0.0140(2) 0.09126(14)
C6_6 C 0.5549(4) 0.0737(3) 0.12912(17)
C7_7 C 0.4956(5) 0.0782(3) 0.19261(17)
C8_6 C 0.5919(5) 0.1281(3) 0.23432(19)
C9_6 C 0.5241(4) 0.1398(2) 0.29510(15)
C10_6 C 0.5308(5) 0.0784(3) 0.33888(19)
C11_7 C 0.4663(5) 0.0915(2) 0.39331(18)
C12_7 C 0.3856(4) 0.2200(2) 0.36261(17)
C13_7 C 0.4497(4) 0.2120(3) 0.30797(17)
H2_7 H 0.333(5) 0.090(3) 0.060(2)
H5_6 H 0.556(4) 0.133(3) 0.1102(18)
H6_6 H 0.642(5) 0.052(2) 0.1333(18)
H7_7 H 0.411(5) 0.104(3) 0.187(2)
H8_7 H 0.485(5) 0.014(3) 0.210(2)
H9_6 H 0.614(6) 0.174(3) 0.214(2)
H10_6 H 0.691(4) 0.103(3) 0.2345(19)
H11_6 H 0.590(4) 0.030(3) 0.3333(17)
H12_7 H 0.477(4) 0.051(2) 0.4248(17)
H13_7 H 0.328(4) 0.268(3) 0.3734(17)
H14_7 H 0.448(4) 0.262(3) 0.2768(19)
N3_4 N 0.1059(3) 0.83835(18) 0.90591(12)
S1_7 S 0.93149(8) 0.82047(5) 0.05608(4)
O3_7 O 0.9072(3) 0.8161(2) 0.11955(13)
O4_7 O 0.9671(3) 0.90386(16) 0.03492(13)
S1_8 S 0.56851(8) 0.17953(5) 0.55608(4)
O1_7 O 0.4502(2) 0.23746(15) 0.54027(12)
O3_8 O 0.5928(3) 0.1839(2) 0.61955(13)
O4_8 O 0.5329(3) 0.09614(16) 0.53492(13)
N1_7 N 0.1902(3) 0.10054(18) 0.52610(12)
C1_7 C 0.2238(4) 0.0191(3) 0.5288(2)
C5_7 C 0.0739(4) 0.1242(3) 0.55425(19)
H1_7 H 0.300(4) 0.008(3) 0.5092(18)
H4_7 H 0.057(5) 0.179(3) 0.555(2)
C2_8 C 0.1459(5) 0.9612(3) 0.56092(19)
C3_8 C 0.0281(4) 0.9860(2) 0.59126(14)
C7_8 C 0.0044(5) 0.9218(3) 0.69261(17)
C11_8 C 0.0337(5) 0.9085(2) 0.89331(18)
C12_8 C 0.1144(4) 0.7800(2) 0.86261(17)
C13_8 C 0.0503(4) 0.7880(3) 0.80797(17)
H2_8 H 0.167(5) 0.910(3) 0.560(2)
H7_8 H 0.089(5) 0.896(3) 0.687(2)
H8_8 H 0.015(5) 0.986(3) 0.710(2)
H12_8 H 0.023(4) 0.949(2) 0.9248(17)
H13_8 H 0.172(4) 0.732(3) 0.8734(17)
H14_8 H 0.052(4) 0.738(3) 0.7768(19)
C4_6 C 0.0070(5) 0.5699(3) 0.9131(2)
C6_7 C 0.0549(4) 0.4263(3) 0.87088(17)
C8_7 C 0.0919(5) 0.3719(3) 0.76568(19)
C9_7 C 0.0241(4) 0.3602(2) 0.70490(15)
C10_7 C 0.0308(5) 0.4216(3) 0.66112(19)
H3_6 H 0.088(4) 0.586(3) 0.8954(19)
H5_7 H 0.056(4) 0.367(3) 0.8898(18)
H6_7 H 0.142(5) 0.448(2) 0.8667(18)
H9_7 H 0.114(6) 0.326(3) 0.786(2)
H10_7 H 0.191(4) 0.397(3) 0.7655(19)
H11_7 H 0.090(4) 0.470(3) 0.6667(17)
O1_8 O 0.0498(2) 0.76254(15) 0.04027(12)
N1_8 N 0.3098(3) 0.89946(18) 0.02610(12)
C1_8 C 0.2762(4) 0.9809(3) 0.0288(2)
C4_7 C 0.5070(5) 0.9301(3) 0.0869(2)
C5_8 C 0.4261(4) 0.8758(3) 0.05425(19)
H1_8 H 0.200(4) 0.992(3) 0.0092(18)
H3_7 H 0.588(4) 0.914(3) 0.1046(19)
H4_8 H 0.443(5) 0.821(3) 0.055(2)
C4_8 C 0.9930(5) 0.0699(3) 0.5869(2)
H3_8 H 0.912(4) 0.086(3) 0.6046(19)
C6_8 C 0.9451(4) 0.9263(3) 0.62912(17)
C8_8 C 0.9081(5) 0.8719(3) 0.73432(19)
C9_8 C 0.9759(4) 0.8602(2) 0.79510(15)
C10_8 C 0.9692(5) 0.9216(3) 0.83888(19)
H5_8 H 0.944(4) 0.867(3) 0.6102(18)
H6_8 H 0.858(5) 0.948(2) 0.6333(18)
H9_8 H 0.886(6) 0.826(3) 0.714(2)
H10_8 H 0.809(4) 0.897(3) 0.7345(19)
H11_8 H 0.910(4) 0.970(3) 0.8333(17)
loop_
_geom_bond_atom_site_label_1
_geom_bond_atom_site_label_2
_geom_bond_site_symmetry_1
_geom_bond_site_symmetry_2
Zn1 O1 1_555 1_555
N1 Zn1 1_555 1_555
N2 C11 1_555 1_555
C1 N1 1_555 1_555
C2 C1 1_555 1_555
C3 C2 1_555 1_555
C4 C3 1_555 1_555
C5 N1 1_555 1_555
C6 C3 1_555 1_555
C7 C6 1_555 1_555
C8 C7 1_555 1_555
C9 C8 1_555 1_555
C10 C9 1_555 1_555
C11 C10 1_555 1_555
C12 N2 1_555 1_555
C13 C9 1_555 1_555
H1 C1 1_555 1_555
H2 C2 1_555 1_555
H3 C4 1_555 1_555
H4 C5 1_555 1_555
H5 C6 1_555 1_555
H6 C6 1_555 1_555
H7 C7 1_555 1_555
H8 C7 1_555 1_555
H9 C8 1_555 1_555
H10 C8 1_555 1_555
H11 C10 1_555 1_555
H12 C11 1_555 1_555
H13 C12 1_555 1_555
H14 C13 1_555 1_555
Zn3 N2 1_555 1_555
O5 Zn1 1_555 1_555
N3 Zn1 1_555 1_555
C4 C5 1_555 1_555
C12 C13 1_555 1_555
O2 S1 1_555 1_555
O3 S1 1_555 1_555
O4 S1 1_555 1_555
Zn2 O2 1_555 1_555
S1_2 O1_2 1_555 1_555
O2_2 S1_2 1_555 1_555
O3_2 S1_2 1_555 1_555
O4_2 S1_2 1_555 1_555
N3 C11_2 1_555 1_555
C1_2 N1_2 1_555 1_555
C2_2 C1_2 1_555 1_555
C3_2 C2_2 1_555 1_555
C5_2 N1_2 1_555 1_555
C12_2 N3 1_555 1_555
H1_2 C1_2 1_555 1_555
H2_2 C2_2 1_555 1_555
H4_2 C5_2 1_555 1_555
H7_2 C7_2 1_555 1_555
H8_2 C7_2 1_555 1_555
H12_2 C11_2 1_555 1_555
H13_2 C12_2 1_555 1_555
H14_2 C13_2 1_555 1_555
Zn2_2 O2_2 1_555 1_555
C12_2 C13_2 1_555 1_555
O5_2 Zn3 1_555 1_555
O5_2 S1_3 1_555 1_555
O3_3 S1_3 1_555 1_555
O4_3 S1_3 1_555 1_555
N3_2 Zn2_2 1_555 1_555
N2_2 C11_3 1_555 1_555
C3_3 C2_3 1_555 1_555
C6_2 C3_3 1_555 1_555
C7_3 C6_2 1_555 1_555
C8_2 C7_3 1_555 1_555
C9_2 C8_2 1_555 1_555
C10_2 C9_2 1_555 1_555
C11_3 C10_2 1_555 1_555
C12_3 N2_2 1_555 1_555
C13_3 C9_2 1_555 1_555
H2_3 C2_3 1_555 1_555
H5_2 C6_2 1_555 1_555
H6_2 C6_2 1_555 1_555
H7_3 C7_3 1_555 1_555
H8_3 C7_3 1_555 1_555
H9_2 C8_2 1_555 1_555
H10_2 C8_2 1_555 1_555
H11_2 C10_2 1_555 1_555
H12_3 C11_3 1_555 1_555
H13_3 C12_3 1_555 1_555
H14_3 C13_3 1_555 1_555
Zn2 N2_2 1_555 1_555
C12_3 C13_3 1_555 1_555
N3_2 C11_4 1_555 1_555
C3_4 C2_4 1_555 1_555
C12_4 N3_2 1_555 1_555
H2_4 C2_4 1_555 1_555
H7_4 C7_4 1_555 1_555
H8_4 C7_4 1_555 1_555
H12_4 C11_4 1_555 1_555
H13_4 C12_4 1_555 1_555
H14_4 C13_4 1_555 1_555
C12_4 C13_4 1_555 1_555
Zn2 O1_3 1_555 1_555
S1_4 O1_3 1_555 1_555
O5 S1_4 1_555 1_555
O3_4 S1_4 1_555 1_555
O4_4 S1_4 1_555 1_555
N1_3 Zn2 1_555 1_555
C1_3 N1_3 1_555 1_555
C5_3 N1_3 1_555 1_555
H1_3 C1_3 1_555 1_555
H4_3 C5_3 1_555 1_555
C9_3 C8_3 1_555 1_555
C10_3 C9_3 1_555 1_555
H3_2 C4_2 1_555 1_555
H5_3 C6_3 1_555 1_555
H6_3 C6_3 1_555 1_555
H9_3 C8_3 1_555 1_555
H10_3 C8_3 1_555 1_555
H11_3 C10_3 1_555 1_555
C1_4 N1_4 1_555 1_555
C5_4 N1_4 1_555 1_555
H1_4 C1_4 1_555 1_555
H3_3 C4_3 1_555 1_555
H4_4 C5_4 1_555 1_555
C4_3 C5_4 1_555 1_555
C9_4 C8_4 1_555 1_555
C10_4 C9_4 1_555 1_555
H5_4 C6_4 1_555 1_555
H6_4 C6_4 1_555 1_555
H9_4 C8_4 1_555 1_555
H10_4 C8_4 1_555 1_555
H11_4 C10_4 1_555 1_555
H3_4 C4_4 1_555 1_555
O2_3 S1_5 1_555 1_555
O3_5 S1_5 1_555 1_555
O4_5 S1_5 1_555 1_555
Zn2_3 O2_3 1_555 1_555
Zn1_2 O1_5 1_555 1_555
N1_5 Zn1_2 1_555 1_555
N2_3 C11_5 1_555 1_555
C1_5 N1_5 1_555 1_555
C2_5 C1_5 1_555 1_555
C3_5 C2_5 1_555 1_555
C4_5 C3_5 1_555 1_555
C5_5 N1_5 1_555 1_555
C6_5 C3_5 1_555 1_555
C7_5 C6_5 1_555 1_555
C8_5 C7_5 1_555 1_555
C9_5 C8_5 1_555 1_555
C10_5 C9_5 1_555 1_555
C11_5 C10_5 1_555 1_555
C12_5 N2_3 1_555 1_555
C13_5 C9_5 1_555 1_555
H1_5 C1_5 1_555 1_555
H2_5 C2_5 1_555 1_555
H3_5 C4_5 1_555 1_555
H4_5 C5_5 1_555 1_555
H5_5 C6_5 1_555 1_555
H6_5 C6_5 1_555 1_555
H7_5 C7_5 1_555 1_555
H8_5 C7_5 1_555 1_555
H9_5 C8_5 1_555 1_555
H10_5 C8_5 1_555 1_555
H11_5 C10_5 1_555 1_555
H12_5 C11_5 1_555 1_555
H13_5 C12_5 1_555 1_555
H14_5 C13_5 1_555 1_555
Zn3_2 N2_3 1_555 1_555
O5_3 Zn1_2 1_555 1_555
N3_3 Zn1_2 1_555 1_555
C4_5 C5_5 1_555 1_555
C12_5 C13_5 1_555 1_555
O5_4 Zn3_2 1_555 1_555
S1_6 O1_6 1_555 1_555
O2_4 S1_6 1_555 1_555
O3_6 S1_6 1_555 1_555
O4_6 S1_6 1_555 1_555
N3_3 C11_6 1_555 1_555
C1_6 N1_6 1_555 1_555
C2_6 C1_6 1_555 1_555
C3_6 C2_6 1_555 1_555
C5_6 N1_6 1_555 1_555
C12_6 N3_3 1_555 1_555
H1_6 C1_6 1_555 1_555
H2_6 C2_6 1_555 1_555
H4_6 C5_6 1_555 1_555
H7_6 C7_6 1_555 1_555
H8_6 C7_6 1_555 1_555
H12_6 C11_6 1_555 1_555
H13_6 C12_6 1_555 1_555
H14_6 C13_6 1_555 1_555
Zn2_4 O2_4 1_555 1_555
C12_6 C13_6 1_555 1_555
N2_4 C11_7 1_555 1_555
C3_7 C2_7 1_555 1_555
C6_6 C3_7 1_555 1_555
C7_7 C6_6 1_555 1_555
C8_6 C7_7 1_555 1_555
C9_6 C8_6 1_555 1_555
C10_6 C9_6 1_555 1_555
C11_7 C10_6 1_555 1_555
C12_7 N2_4 1_555 1_555
C13_7 C9_6 1_555 1_555
H2_7 C2_7 1_555 1_555
H5_6 C6_6 1_555 1_555
H6_6 C6_6 1_555 1_555
H7_7 C7_7 1_555 1_555
H8_7 C7_7 1_555 1_555
H9_6 C8_6 1_555 1_555
H10_6 C8_6 1_555 1_555
H11_6 C10_6 1_555 1_555
H12_7 C11_7 1_555 1_555
H13_7 C12_7 1_555 1_555
H14_7 C13_7 1_555 1_555
Zn2_3 N2_4 1_555 1_555
C12_7 C13_7 1_555 1_555
N3_4 Zn2_4 1_555 1_555
O5_4 S1_7 1_555 1_555
O3_7 S1_7 1_555 1_555
O4_7 S1_7 1_555 1_555
Zn2_3 O1_7 1_555 1_555
S1_8 O1_7 1_555 1_555
O5_3 S1_8 1_555 1_555
O3_8 S1_8 1_555 1_555
O4_8 S1_8 1_555 1_555
N1_7 Zn2_3 1_555 1_555
C1_7 N1_7 1_555 1_555
C5_7 N1_7 1_555 1_555
H1_7 C1_7 1_555 1_555
H4_7 C5_7 1_555 1_555
N3_4 C11_8 1_555 1_555
C3_8 C2_8 1_555 1_555
C12_8 N3_4 1_555 1_555
H2_8 C2_8 1_555 1_555
H7_8 C7_8 1_555 1_555
H8_8 C7_8 1_555 1_555
H12_8 C11_8 1_555 1_555
H13_8 C12_8 1_555 1_555
H14_8 C13_8 1_555 1_555
C12_8 C13_8 1_555 1_555
C9_7 C8_7 1_555 1_555
C10_7 C9_7 1_555 1_555
H3_6 C4_6 1_555 1_555
H5_7 C6_7 1_555 1_555
H6_7 C6_7 1_555 1_555
H9_7 C8_7 1_555 1_555
H10_7 C8_7 1_555 1_555
H11_7 C10_7 1_555 1_555
C1_8 N1_8 1_555 1_555
C5_8 N1_8 1_555 1_555
H1_8 C1_8 1_555 1_555
H3_7 C4_7 1_555 1_555
H4_8 C5_8 1_555 1_555
C4_7 C5_8 1_555 1_555
H3_8 C4_8 1_555 1_555
C9_8 C8_8 1_555 1_555
C10_8 C9_8 1_555 1_555
H5_8 C6_8 1_555 1_555
H6_8 C6_8 1_555 1_555
H9_8 C8_8 1_555 1_555
H10_8 C8_8 1_555 1_555
H11_8 C10_8 1_555 1_555

#END
