
###############################################################################
#
# This file contains modified crystal structure data generated from the
# MOF subset of the Cambridge Structural Database (CSD) v543 
# hosted by the Cambridge Crystallographic Data Centre (CCDC).
#
# This work is licensed under the Creative Commons
# Attribution-NonCommercial-ShareAlike 4.0 International License.
# To view a copy of this license, visit
# http://creativecommons.org/licenses/by-nc-sa/4.0/
# or send a letter to
# Creative Commons, PO Box 1866, Mountain View, CA 94042, USA.
#
# CIF created using the CSD Python API on 29 September 2022
# The structure has been converted into the P1 space group
# The structure has a 3D framework
# The original CSD entry GELPEV is in the monoclinic crystal system
# The original CSD entry GELPEV is in a Sohncke space group
# The framework has been calculated to contain at least 10.0% void space
# The void calculation uses a probe of radius 1.32A, grid spacing 0.4
# H atom positions have been added when not included in the experimental data
# Generated hydrogen atom positions removed from atoms on special positions
#
###############################################################################

data_GELPEV
_chemical_formula_moiety         '(C260 H244 Ba10 N8 O64)n'
_symmetry_cell_setting           triclinic
_symmetry_space_group_name_H-M   'P 1'
_symmetry_Int_Tables_number      1
_space_group_name_Hall           'P 1'
loop_
_symmetry_equiv_pos_site_id
_symmetry_equiv_pos_as_xyz
1 x,y,z
_cell_length_a                   43.5105(12)
_cell_length_b                   9.4781(3)
_cell_length_c                   15.5620(4)
_cell_angle_alpha                90
_cell_angle_beta                 99.7770(10)
_cell_angle_gamma                90
_cell_volume                     6324.51
loop_
_atom_site_label
_atom_site_type_symbol
_atom_site_fract_x
_atom_site_fract_y
_atom_site_fract_z
Ba9 Ba 0.01829(2) 0.17614(6) 0.26972(3)
O3 O 0.21602(14) 0.0454(7) 0.2709(4)
H4 H 0.2217 0.0270 0.2231
H7 H 0.1242 0.0026 0.3863
C14 C 0.4381(2) 0.0210(14) 0.6969(6)
C16 C 0.40614(19) 0.0106(13) 0.6436(6)
C18 C 0.2703(2) 0.0651(11) 0.3951(7)
H11 H 0.2601 0.1475 0.3698
C19 C 0.3607(3) 0.1108(12) 0.5553(8)
H12 H 0.3500 0.1927 0.5310
C21 C 0.2988(2) 0.0779(11) 0.4455(7)
H14 H 0.3077 0.1693 0.4550
C23 C 0.3898(2) 0.1253(12) 0.6050(7)
H16 H 0.3989 0.2165 0.6129
O4 O 0.45219(15) 0.1400(8) 0.6868(5)
H17 H 0.4714 0.1311 0.7047
C25 C 0.1314(2) 0.0153(11) 0.5609(6)
C27 C 0.0879(2) 0.0570(10) 0.6728(6)
O5 O 0.07359(15) 0.1278(8) 0.8068(4)
C30 C 0.1180(2) 0.1089(12) 0.6949(6)
H21 H 0.1241 0.1581 0.7482
C31 C 0.1393(2) 0.0886(11) 0.6387(6)
H22 H 0.1598 0.1258 0.6539
O6 O 0.03582(14) 0.0573(8) 0.6997(5)
C33 C 0.0640(2) 0.0819(10) 0.7319(7)
C130 C 0.5479(3) 0.1156(13) 0.5349(8)
H112 H 0.5686 0.1558 0.5344
H113 H 0.5418 0.1328 0.5918
H114 H 0.5328 0.1600 0.4891
C65 C 0.4521(3) 0.1156(13) 0.4651(8)
H55 H 0.4314 0.1558 0.4656
H56 H 0.4582 0.1328 0.4082
H57 H 0.4672 0.1600 0.5109
O20 O 0.78398(14) 0.0454(7) 0.7291(4)
H61 H 0.7783 0.0270 0.7769
H64 H 0.8758 0.0026 0.6137
C79 C 0.5619(2) 0.0210(14) 0.3031(6)
C81 C 0.59386(19) 0.0106(13) 0.3564(6)
C83 C 0.7297(2) 0.0651(11) 0.6049(7)
H68 H 0.7399 0.1475 0.6302
C84 C 0.6393(3) 0.1108(12) 0.4447(8)
H69 H 0.6500 0.1927 0.4690
C86 C 0.7012(2) 0.0779(11) 0.5545(7)
H71 H 0.6923 0.1693 0.5450
C88 C 0.6102(2) 0.1253(12) 0.3950(7)
H73 H 0.6011 0.2165 0.3871
O21 O 0.54781(15) 0.1400(8) 0.3132(5)
H74 H 0.5286 0.1311 0.2953
C90 C 0.8686(2) 0.0153(11) 0.4391(6)
C92 C 0.9121(2) 0.0570(10) 0.3272(6)
O22 O 0.92641(15) 0.1278(8) 0.1932(4)
C95 C 0.8820(2) 0.1089(12) 0.3051(6)
H78 H 0.8759 0.1581 0.2518
C96 C 0.8607(2) 0.0886(11) 0.3613(6)
H79 H 0.8402 0.1258 0.3461
O23 O 0.96418(14) 0.0573(8) 0.3003(5)
C98 C 0.9360(2) 0.0819(10) 0.2681(7)
Ba1 Ba 0.5000 0.52351(8) 0.0000
O1 O 0.21170(13) 0.6742(8) 0.3258(3)
C1 C 0.2224(2) 0.9280(10) 0.3276(6)
C2 C 0.2114(2) 0.5544(10) 0.2711(6)
O2 O 0.23850(15) 0.9486(7) 0.1309(4)
H1 H 0.2562 0.9707 0.1578
C3 C 0.2384(2) 0.7389(10) 0.2161(6)
H2 H 0.2599 0.7568 0.2490
C4 C 0.2363(2) 0.7971(10) 0.1229(6)
C5 C 0.2143(2) 0.7940(11) 0.2706(6)
H3 H 0.1939 0.8088 0.2312
C6 C 0.1984(2) 0.9433(10) 0.3908(6)
C7 C 0.2056(2) 0.7638(11) 0.0657(6)
C8 C 0.1520(2) 0.8176(11) 0.0099(6)
H5 H 0.1350 0.8816 0.0070
C9 C 0.1801(2) 0.8508(10) 0.0608(5)
H6 H 0.1819 0.9361 0.0933
C10 C 0.2555(2) 0.9357(10) 0.3792(6)
C11 C 0.1454(2) 0.9878(10) 0.4111(6)
C12 C 0.2075(2) 0.9405(10) 0.4811(6)
H8 H 0.2286 0.9224 0.5058
C13 C 0.1673(2) 0.9640(11) 0.3563(6)
H9 H 0.1607 0.9621 0.2949
C15 C 0.2719(2) 0.8189(11) 0.4177(6)
H10 H 0.2628 0.7277 0.4093
C17 C 0.3465(2) 0.9803(10) 0.5395(6)
C20 C 0.3920(2) 0.8789(12) 0.6329(8)
H13 H 0.4022 0.7982 0.6603
C22 C 0.3010(2) 0.8334(11) 0.4674(6)
H15 H 0.3117 0.7513 0.4916
C24 C 0.3155(2) 0.9637(10) 0.4835(6)
C26 C 0.0797(2) 0.9829(12) 0.5955(7)
H18 H 0.0593 0.9449 0.5806
C28 C 0.1854(2) 0.9645(11) 0.5349(6)
H19 H 0.1919 0.9631 0.5963
C29 C 0.3624(2) 0.8661(12) 0.5814(8)
H20 H 0.3529 0.7756 0.5749
C32 C 0.1011(2) 0.9642(11) 0.5399(7)
H23 H 0.0950 0.9155 0.4864
O7 O 0.44949(15) 0.9239(8) 0.7443(4)
C34 C 0.2640(2) 0.7482(10) 0.0804(6)
C36 C 0.2015(2) 0.6355(10) 0.0191(6)
H24 H 0.2185 0.5716 0.0227
C44 C 0.28882(19) 0.6683(12) 0.1210(5)
H30 H 0.2881 0.6280 0.1766
C45 C 0.3148(2) 0.6462(11) 0.0817(6)
H31 H 0.3317 0.5913 0.1111
C48 C 0.3168(2) 0.7027(10) 0.0002(6)
C51 C 0.37516(19) 0.6729(12) 0.0126(5)
H34 H 0.3769 0.6712 0.0743
H36 H 0.4215 0.6571 0.0121
C56 C 0.1788(2) 0.5290(12) 0.2192(6)
H38 H 0.1648 0.4994 0.2589
H39 H 0.1798 0.4549 0.1758
H40 H 0.1710 0.6163 0.1896
C57 C 0.2236(3) 0.4295(12) 0.3244(7)
H41 H 0.2454 0.4462 0.3509
H42 H 0.2224 0.3459 0.2869
H43 H 0.2111 0.4142 0.3703
O11 O 0.23283(14) 0.5900(6) 0.2130(4)
C58 C 0.1544(2) 0.9902(10) 0.5015(6)
O14 O 0.5071(2) 0.4092(9) 0.1727(5)
O15 O 0.54503(19) 0.3267(10) 0.0385(5)
N1 N 0.5813(2) 0.1679(12) 0.0964(5)
C61 C 0.5571(3) 0.2070(14) 0.0402(7)
C62 C 0.5970(3) 0.2639(14) 0.1623(8)
H46 H 0.6082 0.3357 0.1345
H47 H 0.6118 0.2110 0.2048
H48 H 0.5815 0.3097 0.1920
C64 C 0.5939(3) 0.0240(15) 0.0965(8)
H54 H 0.6151 0.0276 0.0833
Ba3 Ba 0.51829(2) 0.67614(6) 0.26972(3)
C100 C 0.85230(19) 0.6887(12) 0.0386(5)
C102 C 0.8265(2) 0.6014(11) 0.0313(6)
H82 H 0.8282 0.5147 0.0623
C103 C 0.8910(2) 0.5178(12) 0.1137(6)
H83 H 0.8772 0.4436 0.0917
C104 C 0.88228(19) 0.6569(11) 0.0949(6)
C105 C 0.9032(2) 0.7640(12) 0.1311(7)
H84 H 0.8976 0.8603 0.1219
C106 C 0.9402(2) 0.5913(12) 0.1948(7)
C107 C 0.9317(2) 0.7298(12) 0.1792(7)
H85 H 0.9457 0.8029 0.2022
C108 C 0.9195(2) 0.4860(12) 0.1642(7)
H86 H 0.9248 0.3904 0.1778
O25 O 0.97890(16) 0.4306(9) 0.2675(5)
C111 C 0.7349(2) 0.7998(10) 0.0038(6)
H89 H 0.7523 0.8499 0.0345
C112 C 0.65423(19) 0.6870(10) 0.0393(6)
C114 C 0.7090(2) 0.7789(11) 0.0427(7)
H90 H 0.7086 0.8165 0.0991
C115 C 0.60016(19) 0.6559(10) 0.1141(6)
C117 C 0.6296(2) 0.6707(12) 0.1666(6)
H92 H 0.6312 0.6710 0.2282
C118 C 0.59835(19) 0.6613(12) 0.0244(6)
C119 C 0.65625(19) 0.6847(11) 0.1302(5)
H94 H 0.6760 0.6929 0.1668
O26 O 0.54522(13) 0.6614(8) 0.1104(4)
O27 O 0.57551(14) 0.6012(7) 0.2349(4)
C120 C 0.5714(2) 0.6395(10) 0.1566(7)
O29 O 0.99186(16) 0.6574(9) 0.2525(5)
C124 C 0.9720(2) 0.5532(13) 0.2417(6)
O30 O 0.52847(19) 0.7815(10) 0.4341(5)
O33 O 0.5383(2) 0.4410(9) 0.3759(5)
O34 O 0.47360(14) 0.6946(8) 0.1152(4)
N4 N 0.5487(2) 0.9667(10) 0.5194(6)
C125 C 0.5292(3) 0.9075(14) 0.4535(8)
H101 H 0.5146 0.9678 0.4188
H102 H 0.4520 0.1401 0.0021
C128 C 0.5721(4) 0.8813(17) 0.5741(9)
H106 H 0.5681 0.7812 0.5609
H107 H 0.5711 0.8989 0.6356
H108 H 0.5929 0.9062 0.5624
Ba4 Ba 0.48171(2) 0.67614(6) 0.73028(3)
O36 O 0.46418(14) 0.5573(8) 0.3003(5)
O38 O 0.55051(15) 0.9239(8) 0.2557(4)
O40 O 0.47890(16) 0.9306(9) 0.2675(5)
Ba1_2 Ba 0.5000 0.52351(8) 1.0000
C35 C 0.14770(19) 0.6887(12) 0.9614(5)
C37 C 0.1735(2) 0.6014(11) 0.9687(6)
H25 H 0.1718 0.5147 0.9377
C38 C 0.1090(2) 0.5178(12) 0.8863(6)
H26 H 0.1228 0.4436 0.9083
C39 C 0.11772(19) 0.6569(11) 0.9051(6)
C40 C 0.0968(2) 0.7640(12) 0.8689(7)
H27 H 0.1024 0.8603 0.8781
C41 C 0.0598(2) 0.5913(12) 0.8052(7)
C42 C 0.0683(2) 0.7298(12) 0.8208(7)
H28 H 0.0543 0.8029 0.7978
C43 C 0.0805(2) 0.4860(12) 0.8358(7)
H29 H 0.0752 0.3904 0.8222
O8 O 0.02110(16) 0.4306(9) 0.7325(5)
C46 C 0.2651(2) 0.7998(10) 0.9962(6)
H32 H 0.2477 0.8499 0.9655
C47 C 0.34577(19) 0.6870(10) 0.9607(6)
C49 C 0.2910(2) 0.7789(11) 0.9573(7)
H33 H 0.2914 0.8165 0.9009
C50 C 0.39984(19) 0.6559(10) 0.8859(6)
C52 C 0.3704(2) 0.6707(12) 0.8334(6)
H35 H 0.3688 0.6710 0.7718
C53 C 0.40165(19) 0.6613(12) 0.9756(6)
C54 C 0.34375(19) 0.6847(11) 0.8698(5)
H37 H 0.3240 0.6929 0.8332
O9 O 0.45478(13) 0.6614(8) 0.8896(4)
O10 O 0.42449(14) 0.6012(7) 0.7651(4)
C55 C 0.4286(2) 0.6395(10) 0.8434(7)
O12 O 0.00814(16) 0.6574(9) 0.7475(5)
C59 C 0.0280(2) 0.5532(13) 0.7583(6)
O13 O 0.47153(19) 0.7815(10) 0.5659(5)
O16 O 0.4617(2) 0.4410(9) 0.6241(5)
O17 O 0.52640(14) 0.6946(8) 0.8848(4)
N2 N 0.4513(2) 0.9667(10) 0.4806(6)
C60 C 0.4708(3) 0.9075(14) 0.5465(8)
H44 H 0.4854 0.9678 0.5812
H45 H 0.5480 0.1401 0.9979
C63 C 0.4279(4) 0.8813(17) 0.4259(9)
H49 H 0.4319 0.7812 0.4391
H50 H 0.4289 0.8989 0.3644
H51 H 0.4071 0.9062 0.4376
O18 O 0.78830(13) 0.6742(8) 0.6742(3)
C66 C 0.7776(2) 0.9280(10) 0.6724(6)
C67 C 0.7886(2) 0.5544(10) 0.7289(6)
O19 O 0.76150(15) 0.9486(7) 0.8691(4)
H58 H 0.7438 0.9707 0.8422
C68 C 0.7616(2) 0.7389(10) 0.7839(6)
H59 H 0.7401 0.7568 0.7510
C69 C 0.7637(2) 0.7971(10) 0.8771(6)
C70 C 0.7857(2) 0.7940(11) 0.7294(6)
H60 H 0.8061 0.8088 0.7688
C71 C 0.8016(2) 0.9433(10) 0.6092(6)
C72 C 0.7944(2) 0.7638(11) 0.9343(6)
C73 C 0.8480(2) 0.8176(11) 0.9901(6)
H62 H 0.8650 0.8816 0.9930
C74 C 0.8199(2) 0.8508(10) 0.9392(5)
H63 H 0.8181 0.9361 0.9067
C75 C 0.7445(2) 0.9357(10) 0.6208(6)
C76 C 0.8546(2) 0.9878(10) 0.5889(6)
C77 C 0.7925(2) 0.9405(10) 0.5189(6)
H65 H 0.7714 0.9224 0.4942
C78 C 0.8327(2) 0.9640(11) 0.6437(6)
H66 H 0.8393 0.9621 0.7051
C80 C 0.7281(2) 0.8189(11) 0.5823(6)
H67 H 0.7372 0.7277 0.5907
C82 C 0.6535(2) 0.9803(10) 0.4605(6)
C85 C 0.6080(2) 0.8789(12) 0.3671(8)
H70 H 0.5978 0.7982 0.3397
C87 C 0.6990(2) 0.8334(11) 0.5326(6)
H72 H 0.6883 0.7513 0.5084
C89 C 0.6845(2) 0.9637(10) 0.5165(6)
C91 C 0.9203(2) 0.9829(12) 0.4045(7)
H75 H 0.9407 0.9449 0.4194
C93 C 0.8146(2) 0.9645(11) 0.4651(6)
H76 H 0.8081 0.9631 0.4037
C94 C 0.6376(2) 0.8661(12) 0.4186(8)
H77 H 0.6471 0.7756 0.4251
C97 C 0.8989(2) 0.9642(11) 0.4601(7)
H80 H 0.9050 0.9155 0.5136
C99 C 0.7360(2) 0.7482(10) 0.9196(6)
C101 C 0.7985(2) 0.6355(10) 0.9809(6)
H81 H 0.7815 0.5716 0.9773
C109 C 0.71118(19) 0.6683(12) 0.8790(5)
H87 H 0.7119 0.6280 0.8234
C110 C 0.6852(2) 0.6462(11) 0.9183(6)
H88 H 0.6683 0.5913 0.8889
C113 C 0.6832(2) 0.7027(10) 0.9998(6)
C116 C 0.62484(19) 0.6729(12) 0.9874(5)
H91 H 0.6231 0.6712 0.9257
H93 H 0.5785 0.6571 0.9879
C121 C 0.8212(2) 0.5290(12) 0.7808(6)
H95 H 0.8352 0.4994 0.7411
H96 H 0.8202 0.4549 0.8242
H97 H 0.8290 0.6163 0.8104
C122 C 0.7764(3) 0.4295(12) 0.6756(7)
H98 H 0.7546 0.4462 0.6491
H99 H 0.7776 0.3459 0.7131
H100 H 0.7889 0.4142 0.6297
O28 O 0.76717(14) 0.5900(6) 0.7870(4)
C123 C 0.8456(2) 0.9902(10) 0.4985(6)
O31 O 0.4929(2) 0.4092(9) 0.8273(5)
O32 O 0.45497(19) 0.3267(10) 0.9615(5)
N3 N 0.4187(2) 0.1679(12) 0.9036(5)
C126 C 0.4429(3) 0.2070(14) 0.9598(7)
C127 C 0.4030(3) 0.2639(14) 0.8377(8)
H103 H 0.3918 0.3357 0.8655
H104 H 0.3882 0.2110 0.7952
H105 H 0.4185 0.3097 0.8080
C129 C 0.4061(3) 0.0240(15) 0.9035(8)
H111 H 0.3849 0.0276 0.9167
O35 O 0.53582(14) 0.5573(8) 0.6997(5)
O39 O 0.52110(16) 0.9306(9) 0.7325(5)
Ba7 Ba 0.98171(2) 0.17614(6) 0.73028(3)
Ba1_3 Ba 0.0000 0.02351(8) 0.0000
C100_2 C 0.35230(19) 0.1887(12) 0.0386(5)
C102_2 C 0.3265(2) 0.1014(11) 0.0313(6)
H82_2 H 0.3282 0.0147 0.0623
C103_2 C 0.3910(2) 0.0178(12) 0.1137(6)
C104_2 C 0.38228(19) 0.1569(11) 0.0949(6)
C105_2 C 0.4032(2) 0.2640(12) 0.1311(7)
H84_2 H 0.3976 0.3603 0.1219
C106_2 C 0.4402(2) 0.0913(12) 0.1948(7)
C107_2 C 0.4317(2) 0.2298(12) 0.1792(7)
H85_2 H 0.4457 0.3029 0.2022
C111_2 C 0.2349(2) 0.2998(10) 0.0038(6)
H89_2 H 0.2523 0.3499 0.0345
C112_2 C 0.15423(19) 0.1870(10) 0.0393(6)
C114_2 C 0.2090(2) 0.2789(11) 0.0427(7)
H90_2 H 0.2086 0.3165 0.0991
C115_2 C 0.10016(19) 0.1559(10) 0.1141(6)
C117_2 C 0.1296(2) 0.1707(12) 0.1666(6)
H92_2 H 0.1312 0.1710 0.2282
C118_2 C 0.09835(19) 0.1613(12) 0.0244(6)
C119_2 C 0.15625(19) 0.1847(11) 0.1302(5)
H94_2 H 0.1760 0.1929 0.1668
O26_2 O 0.04522(13) 0.1614(8) 0.1104(4)
O27_2 O 0.07551(14) 0.1012(7) 0.2349(4)
C120_2 C 0.0714(2) 0.1395(10) 0.1566(7)
O29_2 O 0.49186(16) 0.1574(9) 0.2525(5)
C124_2 C 0.4720(2) 0.0532(13) 0.2417(6)
O30_2 O 0.02847(19) 0.2815(10) 0.4341(5)
N4_2 N 0.0487(2) 0.4667(10) 0.5194(6)
C125_2 C 0.0292(3) 0.4075(14) 0.4535(8)
H101_2 H 0.0146 0.4678 0.4188
C128_2 C 0.0721(4) 0.3813(17) 0.5741(9)
H106_2 H 0.0681 0.2812 0.5609
H107_2 H 0.0711 0.3989 0.6356
H108_2 H 0.0929 0.4062 0.5624
C130_2 C 0.0479(3) 0.6156(13) 0.5349(8)
H112_2 H 0.0686 0.6558 0.5344
H113_2 H 0.0418 0.6328 0.5918
H114_2 H 0.0328 0.6600 0.4891
O38_2 O 0.05051(15) 0.4239(8) 0.2557(4)
Ba1_4 Ba 0.0000 0.02351(8) 1.0000
O17_2 O 0.02640(14) 0.1946(8) 0.8848(4)
O18_2 O 0.28830(13) 0.1742(8) 0.6742(3)
C66_2 C 0.2776(2) 0.4280(10) 0.6724(6)
C67_2 C 0.2886(2) 0.0544(10) 0.7289(6)
O19_2 O 0.26150(15) 0.4486(7) 0.8691(4)
H58_2 H 0.2438 0.4707 0.8422
C68_2 C 0.2616(2) 0.2389(10) 0.7839(6)
H59_2 H 0.2401 0.2568 0.7510
C69_2 C 0.2637(2) 0.2971(10) 0.8771(6)
C70_2 C 0.2857(2) 0.2940(11) 0.7294(6)
H60_2 H 0.3061 0.3088 0.7688
O20_2 O 0.28398(14) 0.5454(7) 0.7291(4)
H61_2 H 0.2783 0.5270 0.7769
C71_2 C 0.3016(2) 0.4433(10) 0.6092(6)
C72_2 C 0.2944(2) 0.2638(11) 0.9343(6)
C73_2 C 0.3480(2) 0.3176(11) 0.9901(6)
H62_2 H 0.3650 0.3816 0.9930
C74_2 C 0.3199(2) 0.3508(10) 0.9392(5)
H63_2 H 0.3181 0.4361 0.9067
C75_2 C 0.2445(2) 0.4357(10) 0.6208(6)
C76_2 C 0.3546(2) 0.4878(10) 0.5889(6)
H64_2 H 0.3758 0.5026 0.6137
C77_2 C 0.2925(2) 0.4405(10) 0.5189(6)
H65_2 H 0.2714 0.4224 0.4942
C78_2 C 0.3327(2) 0.4640(11) 0.6437(6)
H66_2 H 0.3393 0.4621 0.7051
C79_2 C 0.0619(2) 0.5210(14) 0.3031(6)
C80_2 C 0.2281(2) 0.3189(11) 0.5823(6)
H67_2 H 0.2372 0.2277 0.5907
C81_2 C 0.09386(19) 0.5106(13) 0.3564(6)
C82_2 C 0.1535(2) 0.4803(10) 0.4605(6)
C83_2 C 0.2297(2) 0.5651(11) 0.6049(7)
H68_2 H 0.2399 0.6475 0.6302
C84_2 C 0.1393(3) 0.6108(12) 0.4447(8)
H69_2 H 0.1500 0.6927 0.4690
C85_2 C 0.1080(2) 0.3789(12) 0.3671(8)
H70_2 H 0.0978 0.2982 0.3397
C86_2 C 0.2012(2) 0.5779(11) 0.5545(7)
H71_2 H 0.1923 0.6693 0.5450
C87_2 C 0.1990(2) 0.3334(11) 0.5326(6)
H72_2 H 0.1883 0.2513 0.5084
C88_2 C 0.1102(2) 0.6253(12) 0.3950(7)
H73_2 H 0.1011 0.7165 0.3871
C89_2 C 0.1845(2) 0.4637(10) 0.5165(6)
O21_2 O 0.04781(15) 0.6400(8) 0.3132(5)
H74_2 H 0.0286 0.6311 0.2953
C90_2 C 0.3686(2) 0.5153(11) 0.4391(6)
C91_2 C 0.4203(2) 0.4829(12) 0.4045(7)
H75_2 H 0.4407 0.4449 0.4194
C92_2 C 0.4121(2) 0.5570(10) 0.3272(6)
C93_2 C 0.3146(2) 0.4645(11) 0.4651(6)
H76_2 H 0.3081 0.4631 0.4037
C94_2 C 0.1376(2) 0.3661(12) 0.4186(8)
H77_2 H 0.1471 0.2756 0.4251
O22_2 O 0.42641(15) 0.6278(8) 0.1932(4)
C95_2 C 0.3820(2) 0.6089(12) 0.3051(6)
H78_2 H 0.3759 0.6581 0.2518
C96_2 C 0.3607(2) 0.5886(11) 0.3613(6)
H79_2 H 0.3402 0.6258 0.3461
C97_2 C 0.3989(2) 0.4642(11) 0.4601(7)
H80_2 H 0.4050 0.4155 0.5136
C98_2 C 0.4360(2) 0.5819(10) 0.2681(7)
C99_2 C 0.2360(2) 0.2482(10) 0.9196(6)
C101_2 C 0.2985(2) 0.1355(10) 0.9809(6)
H81_2 H 0.2815 0.0716 0.9773
C109_2 C 0.21118(19) 0.1683(12) 0.8790(5)
H87_2 H 0.2119 0.1280 0.8234
C110_2 C 0.1852(2) 0.1462(11) 0.9183(6)
H88_2 H 0.1683 0.0913 0.8889
C113_2 C 0.1832(2) 0.2027(10) 0.9998(6)
C116_2 C 0.12484(19) 0.1729(12) 0.9874(5)
H91_2 H 0.1231 0.1712 0.9257
H93_2 H 0.0785 0.1571 0.9879
C121_2 C 0.3212(2) 0.0290(12) 0.7808(6)
H97_2 H 0.3290 0.1163 0.8104
O28_2 O 0.26717(14) 0.0900(6) 0.7870(4)
C123_2 C 0.3456(2) 0.4902(10) 0.4985(6)
O14_2 O 0.0071(2) 0.9092(9) 0.1727(5)
O15_2 O 0.04503(19) 0.8267(10) 0.0385(5)
N1_2 N 0.0813(2) 0.6679(12) 0.0964(5)
C61_2 C 0.0571(3) 0.7070(14) 0.0402(7)
C62_2 C 0.0970(3) 0.7639(14) 0.1623(8)
H46_2 H 0.1082 0.8357 0.1345
H47_2 H 0.1118 0.7110 0.2048
H48_2 H 0.0815 0.8097 0.1920
C64_2 C 0.0939(3) 0.5240(15) 0.0965(8)
H52 H 0.0807 0.4673 0.0522
H53 H 0.0943 0.4813 0.1540
H54_2 H 0.1151 0.5276 0.0833
H83_2 H 0.3772 0.9436 0.0917
C108_2 C 0.4195(2) 0.9860(12) 0.1642(7)
H86_2 H 0.4248 0.8904 0.1778
O33_2 O 0.0383(2) 0.9410(9) 0.3759(5)
Ba1_5 Ba 1.0000 0.02351(8) 0.0000
O1_2 O 0.71170(13) 0.1742(8) 0.3258(3)
C1_2 C 0.7224(2) 0.4280(10) 0.3276(6)
C2_2 C 0.7114(2) 0.0544(10) 0.2711(6)
O2_2 O 0.73850(15) 0.4486(7) 0.1309(4)
H1_2 H 0.7562 0.4707 0.1578
C3_2 C 0.7384(2) 0.2389(10) 0.2161(6)
H2_2 H 0.7599 0.2568 0.2490
C4_2 C 0.7363(2) 0.2971(10) 0.1229(6)
C5_2 C 0.7143(2) 0.2940(11) 0.2706(6)
H3_2 H 0.6939 0.3088 0.2312
O3_2 O 0.71602(14) 0.5454(7) 0.2709(4)
H4_2 H 0.7217 0.5270 0.2231
C6_2 C 0.6984(2) 0.4433(10) 0.3908(6)
C7_2 C 0.7056(2) 0.2638(11) 0.0657(6)
C8_2 C 0.6520(2) 0.3176(11) 0.0099(6)
H5_2 H 0.6350 0.3816 0.0070
C9_2 C 0.6801(2) 0.3508(10) 0.0608(5)
H6_2 H 0.6819 0.4361 0.0933
C10_2 C 0.7555(2) 0.4357(10) 0.3792(6)
C11_2 C 0.6454(2) 0.4878(10) 0.4111(6)
H7_2 H 0.6242 0.5026 0.3863
C12_2 C 0.7075(2) 0.4405(10) 0.4811(6)
H8_2 H 0.7286 0.4224 0.5058
C13_2 C 0.6673(2) 0.4640(11) 0.3563(6)
H9_2 H 0.6607 0.4621 0.2949
C14_2 C 0.9381(2) 0.5210(14) 0.6969(6)
C15_2 C 0.7719(2) 0.3189(11) 0.4177(6)
H10_2 H 0.7628 0.2277 0.4093
C16_2 C 0.90614(19) 0.5106(13) 0.6436(6)
C17_2 C 0.8465(2) 0.4803(10) 0.5395(6)
C18_2 C 0.7703(2) 0.5651(11) 0.3951(7)
H11_2 H 0.7601 0.6475 0.3698
C19_2 C 0.8607(3) 0.6108(12) 0.5553(8)
H12_2 H 0.8500 0.6927 0.5310
C20_2 C 0.8920(2) 0.3789(12) 0.6329(8)
H13_2 H 0.9022 0.2982 0.6603
C21_2 C 0.7988(2) 0.5779(11) 0.4455(7)
H14_2 H 0.8077 0.6693 0.4550
C22_2 C 0.8010(2) 0.3334(11) 0.4674(6)
H15_2 H 0.8117 0.2513 0.4916
C23_2 C 0.8898(2) 0.6253(12) 0.6050(7)
H16_2 H 0.8989 0.7165 0.6129
C24_2 C 0.8155(2) 0.4637(10) 0.4835(6)
O4_2 O 0.95219(15) 0.6400(8) 0.6868(5)
H17_2 H 0.9714 0.6311 0.7047
C25_2 C 0.6314(2) 0.5153(11) 0.5609(6)
C26_2 C 0.5797(2) 0.4829(12) 0.5955(7)
H18_2 H 0.5593 0.4449 0.5806
C27_2 C 0.5879(2) 0.5570(10) 0.6728(6)
C28_2 C 0.6854(2) 0.4645(11) 0.5349(6)
H19_2 H 0.6919 0.4631 0.5963
C29_2 C 0.8624(2) 0.3661(12) 0.5814(8)
H20_2 H 0.8529 0.2756 0.5749
O5_2 O 0.57359(15) 0.6278(8) 0.8068(4)
C30_2 C 0.6180(2) 0.6089(12) 0.6949(6)
H21_2 H 0.6241 0.6581 0.7482
C31_2 C 0.6393(2) 0.5886(11) 0.6387(6)
H22_2 H 0.6598 0.6258 0.6539
C32_2 C 0.6011(2) 0.4642(11) 0.5399(7)
H23_2 H 0.5950 0.4155 0.4864
C33_2 C 0.5640(2) 0.5819(10) 0.7319(7)
O7_2 O 0.94949(15) 0.4239(8) 0.7443(4)
C34_2 C 0.7640(2) 0.2482(10) 0.0804(6)
C36_2 C 0.7015(2) 0.1355(10) 0.0191(6)
H24_2 H 0.7185 0.0716 0.0227
C44_2 C 0.78882(19) 0.1683(12) 0.1210(5)
H30_2 H 0.7881 0.1280 0.1766
C45_2 C 0.8148(2) 0.1462(11) 0.0817(6)
H31_2 H 0.8317 0.0913 0.1111
C48_2 C 0.8168(2) 0.2027(10) 0.0002(6)
C51_2 C 0.87516(19) 0.1729(12) 0.0126(5)
H34_2 H 0.8769 0.1712 0.0743
H36_2 H 0.9215 0.1571 0.0121
C56_2 C 0.6788(2) 0.0290(12) 0.2192(6)
H40_2 H 0.6710 0.1163 0.1896
O11_2 O 0.73283(14) 0.0900(6) 0.2130(4)
C58_2 C 0.6544(2) 0.4902(10) 0.5015(6)
O34_2 O 0.97360(14) 0.1946(8) 0.1152(4)
Ba1_6 Ba 1.0000 0.02351(8) 1.0000
C35_2 C 0.64770(19) 0.1887(12) 0.9614(5)
C37_2 C 0.6735(2) 0.1014(11) 0.9687(6)
H25_2 H 0.6718 0.0147 0.9377
C38_2 C 0.6090(2) 0.0178(12) 0.8863(6)
C39_2 C 0.61772(19) 0.1569(11) 0.9051(6)
C40_2 C 0.5968(2) 0.2640(12) 0.8689(7)
H27_2 H 0.6024 0.3603 0.8781
C41_2 C 0.5598(2) 0.0913(12) 0.8052(7)
C42_2 C 0.5683(2) 0.2298(12) 0.8208(7)
H28_2 H 0.5543 0.3029 0.7978
C46_2 C 0.7651(2) 0.2998(10) 0.9962(6)
H32_2 H 0.7477 0.3499 0.9655
C47_2 C 0.84577(19) 0.1870(10) 0.9607(6)
C49_2 C 0.7910(2) 0.2789(11) 0.9573(7)
H33_2 H 0.7914 0.3165 0.9009
C50_2 C 0.89984(19) 0.1559(10) 0.8859(6)
C52_2 C 0.8704(2) 0.1707(12) 0.8334(6)
H35_2 H 0.8688 0.1710 0.7718
C53_2 C 0.90165(19) 0.1613(12) 0.9756(6)
C54_2 C 0.84375(19) 0.1847(11) 0.8698(5)
H37_2 H 0.8240 0.1929 0.8332
O9_2 O 0.95478(13) 0.1614(8) 0.8896(4)
O10_2 O 0.92449(14) 0.1012(7) 0.7651(4)
C55_2 C 0.9286(2) 0.1395(10) 0.8434(7)
O12_2 O 0.50814(16) 0.1574(9) 0.7475(5)
C59_2 C 0.5280(2) 0.0532(13) 0.7583(6)
O13_2 O 0.97153(19) 0.2815(10) 0.5659(5)
N2_2 N 0.9513(2) 0.4667(10) 0.4806(6)
C60_2 C 0.9708(3) 0.4075(14) 0.5465(8)
H44_2 H 0.9854 0.4678 0.5812
C63_2 C 0.9279(4) 0.3813(17) 0.4259(9)
H49_2 H 0.9319 0.2812 0.4391
H50_2 H 0.9289 0.3989 0.3644
H51_2 H 0.9071 0.4062 0.4376
C65_2 C 0.9521(3) 0.6156(13) 0.4651(8)
H55_2 H 0.9314 0.6558 0.4656
H56_2 H 0.9582 0.6328 0.4082
H57_2 H 0.9672 0.6600 0.5109
H26_2 H 0.6228 0.9436 0.9083
C43_2 C 0.5805(2) 0.9860(12) 0.8358(7)
H29_2 H 0.5752 0.8904 0.8222
O16_2 O 0.9617(2) 0.9410(9) 0.6241(5)
O31_2 O 0.9929(2) 0.9092(9) 0.8273(5)
O32_2 O 0.95497(19) 0.8267(10) 0.9615(5)
N3_2 N 0.9187(2) 0.6679(12) 0.9036(5)
C126_2 C 0.9429(3) 0.7070(14) 0.9598(7)
C127_2 C 0.9030(3) 0.7639(14) 0.8377(8)
H103_2 H 0.8918 0.8357 0.8655
H104_2 H 0.8882 0.7110 0.7952
H105_2 H 0.9185 0.8097 0.8080
C129_2 C 0.9061(3) 0.5240(15) 0.9035(8)
H109 H 0.9193 0.4673 0.9478
H110 H 0.9057 0.4813 0.8460
H111_2 H 0.8849 0.5276 0.9167
H52_2 H 0.5807 0.9673 0.0522
H53_2 H 0.5943 0.9813 0.1540
H109_2 H 0.4193 0.9673 0.9478
H110_2 H 0.4057 0.9813 0.8460
H45_2 H 0.0480 0.6401 0.9979
H95_2 H 0.3352 0.9994 0.7411
H96_2 H 0.3202 0.9549 0.8242
C122_2 C 0.2764(3) 0.9295(12) 0.6756(7)
H98_2 H 0.2546 0.9462 0.6491
H99_2 H 0.2776 0.8459 0.7131
H100_2 H 0.2889 0.9142 0.6297
H38_2 H 0.6648 0.9994 0.2589
H39_2 H 0.6798 0.9549 0.1758
C57_2 C 0.7236(3) 0.9295(12) 0.3244(7)
H41_2 H 0.7454 0.9462 0.3509
H42_2 H 0.7224 0.8459 0.2869
H43_2 H 0.7111 0.9142 0.3703
H102_2 H 0.9520 0.6401 0.0021
loop_
_geom_bond_atom_site_label_1
_geom_bond_atom_site_label_2
_geom_bond_site_symmetry_1
_geom_bond_site_symmetry_2
H4 O3 1_555 1_555
C14 C16 1_555 1_555
H11 C18 1_555 1_555
C19 H12 1_555 1_555
C21 C18 1_555 1_555
H14 C21 1_555 1_555
C23 C16 1_555 1_555
H16 C23 1_555 1_555
O4 C14 1_555 1_555
H17 O4 1_555 1_555
C25 C31 1_555 1_555
O5 C33 1_555 1_555
C30 C27 1_555 1_555
H21 C30 1_555 1_555
C31 C30 1_555 1_555
H22 C31 1_555 1_555
O6 C33 1_555 1_555
C33 C27 1_555 1_555
H112 C130 1_555 1_555
H113 C130 1_555 1_555
H114 C130 1_555 1_555
C19 C23 1_555 1_555
H55 C65 1_555 1_555
H56 C65 1_555 1_555
H57 C65 1_555 1_555
H61 O20 1_555 1_555
C79 C81 1_555 1_555
H68 C83 1_555 1_555
C84 H69 1_555 1_555
C86 C83 1_555 1_555
H71 C86 1_555 1_555
C88 C81 1_555 1_555
H73 C88 1_555 1_555
O21 C79 1_555 1_555
H74 O21 1_555 1_555
C90 C96 1_555 1_555
O22 C98 1_555 1_555
C95 C92 1_555 1_555
H78 C95 1_555 1_555
C96 C95 1_555 1_555
H79 C96 1_555 1_555
O23 C98 1_555 1_555
C98 C92 1_555 1_555
C84 C88 1_555 1_555
O1 C2 1_555 1_555
C1 C5 1_555 1_555
C2 C56 1_555 1_555
O2 H1 1_555 1_555
C3 H2 1_555 1_555
C4 O2 1_555 1_555
C5 O1 1_555 1_555
H3 C5 1_555 1_555
C6 C1 1_555 1_555
C7 C4 1_555 1_555
C8 H5 1_555 1_555
C9 C7 1_555 1_555
H6 C9 1_555 1_555
C10 C1 1_555 1_555
C12 C6 1_555 1_555
H8 C12 1_555 1_555
C13 C6 1_555 1_555
H9 C13 1_555 1_555
C15 C10 1_555 1_555
H10 C15 1_555 1_555
C20 H13 1_555 1_555
C22 C15 1_555 1_555
H15 C22 1_555 1_555
C24 C17 1_555 1_555
C26 H18 1_555 1_555
C28 C12 1_555 1_555
H19 C28 1_555 1_555
C29 C17 1_555 1_555
H20 C29 1_555 1_555
H23 C32 1_555 1_555
C34 C4 1_555 1_555
C36 C7 1_555 1_555
H24 C36 1_555 1_555
C44 C34 1_555 1_555
H30 C44 1_555 1_555
C45 C44 1_555 1_555
H31 C45 1_555 1_555
C48 C45 1_555 1_555
H34 C51 1_555 1_555
C56 H38 1_555 1_555
H39 C56 1_555 1_555
H40 C56 1_555 1_555
C57 C2 1_555 1_555
H41 C57 1_555 1_555
H42 C57 1_555 1_555
H43 C57 1_555 1_555
O11 C2 1_555 1_555
C58 C11 1_555 1_555
O14 Ba1 1_555 1_555
O15 Ba1 1_555 1_555
N1 C61 1_555 1_555
C61 O15 1_555 1_555
C62 N1 1_555 1_555
H46 C62 1_555 1_555
H47 C62 1_555 1_555
H48 C62 1_555 1_555
C64 N1 1_555 1_555
H54 C64 1_555 1_555
Ba3 O14 1_555 1_555
C102 C100 1_555 1_555
H82 C102 1_555 1_555
C103 H83 1_555 1_555
C104 C100 1_555 1_555
C105 C104 1_555 1_555
H84 C105 1_555 1_555
C106 C107 1_555 1_555
C107 C105 1_555 1_555
H85 C107 1_555 1_555
C108 C103 1_555 1_555
H86 C108 1_555 1_555
O25 C124 1_555 1_555
H89 C111 1_555 1_555
C114 C111 1_555 1_555
H90 C114 1_555 1_555
C115 C117 1_555 1_555
C117 H92 1_555 1_555
C118 C115 1_555 1_555
C119 C112 1_555 1_555
H94 C119 1_555 1_555
O26 Ba1 1_555 1_555
O27 Ba3 1_555 1_555
C120 C115 1_555 1_555
O29 C124 1_555 1_555
C124 C106 1_555 1_555
O30 Ba3 1_555 1_555
O33 Ba3 1_555 1_555
O34 Ba1 1_555 1_555
N4 C125 1_555 1_555
C125 O30 1_555 1_555
H101 C125 1_555 1_555
C128 N4 1_555 1_555
H106 C128 1_555 1_555
H107 C128 1_555 1_555
H108 C128 1_555 1_555
Ba4 O7 1_555 1_555
O36 Ba3 1_555 1_555
O38 Ba3 1_555 1_555
O40 Ba3 1_555 1_555
C3 C4 1_555 1_555
C3 C5 1_555 1_555
C3 O11 1_555 1_555
C8 C9 1_555 1_555
C11 C13 1_555 1_555
C20 C29 1_555 1_555
C22 C24 1_555 1_555
C26 C32 1_555 1_555
C28 C58 1_555 1_555
Ba3 O26 1_555 1_555
Ba3 O34 1_555 1_555
C103 C104 1_555 1_555
C106 C108 1_555 1_555
C117 C119 1_555 1_555
O26 C120 1_555 1_555
O27 C120 1_555 1_555
Ba1_2 O9 1_555 1_555
Ba4 O9 1_555 1_555
C37 C35 1_555 1_555
H25 C37 1_555 1_555
C38 H26 1_555 1_555
C39 C35 1_555 1_555
C40 C39 1_555 1_555
H27 C40 1_555 1_555
C41 C42 1_555 1_555
C42 C40 1_555 1_555
H28 C42 1_555 1_555
C43 C38 1_555 1_555
H29 C43 1_555 1_555
O8 C59 1_555 1_555
H32 C46 1_555 1_555
C49 C46 1_555 1_555
H33 C49 1_555 1_555
C50 C52 1_555 1_555
C52 H35 1_555 1_555
C53 C50 1_555 1_555
C54 C47 1_555 1_555
H37 C54 1_555 1_555
O9 C55 1_555 1_555
O10 Ba4 1_555 1_555
C55 C50 1_555 1_555
O12 C59 1_555 1_555
C59 C41 1_555 1_555
O13 Ba4 1_555 1_555
O16 Ba4 1_555 1_555
O17 Ba1_2 1_555 1_555
N2 C60 1_555 1_555
C60 O13 1_555 1_555
H44 C60 1_555 1_555
C63 N2 1_555 1_555
H49 C63 1_555 1_555
H50 C63 1_555 1_555
H51 C63 1_555 1_555
O18 C67 1_555 1_555
C66 C70 1_555 1_555
C67 C121 1_555 1_555
O19 H58 1_555 1_555
C68 H59 1_555 1_555
C69 O19 1_555 1_555
C70 O18 1_555 1_555
H60 C70 1_555 1_555
C71 C66 1_555 1_555
C72 C69 1_555 1_555
C73 H62 1_555 1_555
C74 C72 1_555 1_555
H63 C74 1_555 1_555
C75 C66 1_555 1_555
C77 C71 1_555 1_555
H65 C77 1_555 1_555
C78 C71 1_555 1_555
H66 C78 1_555 1_555
C80 C75 1_555 1_555
H67 C80 1_555 1_555
C85 H70 1_555 1_555
C87 C80 1_555 1_555
H72 C87 1_555 1_555
C89 C82 1_555 1_555
C91 H75 1_555 1_555
C93 C77 1_555 1_555
H76 C93 1_555 1_555
C94 C82 1_555 1_555
H77 C94 1_555 1_555
H80 C97 1_555 1_555
C99 C69 1_555 1_555
C101 C72 1_555 1_555
H81 C101 1_555 1_555
C109 C99 1_555 1_555
H87 C109 1_555 1_555
C110 C109 1_555 1_555
H88 C110 1_555 1_555
C113 C110 1_555 1_555
H91 C116 1_555 1_555
C121 H95 1_555 1_555
H96 C121 1_555 1_555
H97 C121 1_555 1_555
C122 C67 1_555 1_555
H98 C122 1_555 1_555
H99 C122 1_555 1_555
H100 C122 1_555 1_555
O28 C67 1_555 1_555
C123 C76 1_555 1_555
O31 Ba1_2 1_555 1_555
O32 Ba1_2 1_555 1_555
N3 C126 1_555 1_555
C126 O32 1_555 1_555
C127 N3 1_555 1_555
H103 C127 1_555 1_555
H104 C127 1_555 1_555
H105 C127 1_555 1_555
C129 N3 1_555 1_555
H111 C129 1_555 1_555
O35 Ba4 1_555 1_555
O39 Ba4 1_555 1_555
Ba4 O17 1_555 1_555
Ba4 O31 1_555 1_555
C38 C39 1_555 1_555
C41 C43 1_555 1_555
C52 C54 1_555 1_555
O10 C55 1_555 1_555
C68 C69 1_555 1_555
C68 C70 1_555 1_555
C68 O28 1_555 1_555
C73 C74 1_555 1_555
C76 C78 1_555 1_555
C85 C94 1_555 1_555
C87 C89 1_555 1_555
C91 C97 1_555 1_555
C93 C123 1_555 1_555
C102_2 C100_2 1_555 1_555
H82_2 C102_2 1_555 1_555
C104_2 C100_2 1_555 1_555
C105_2 C104_2 1_555 1_555
H84_2 C105_2 1_555 1_555
C106_2 C107_2 1_555 1_555
C107_2 C105_2 1_555 1_555
H85_2 C107_2 1_555 1_555
H89_2 C111_2 1_555 1_555
C114_2 C111_2 1_555 1_555
H90_2 C114_2 1_555 1_555
C115_2 C117_2 1_555 1_555
C117_2 H92_2 1_555 1_555
C118_2 C115_2 1_555 1_555
C119_2 C112_2 1_555 1_555
H94_2 C119_2 1_555 1_555
O26_2 Ba1_3 1_555 1_555
O27_2 Ba9 1_555 1_555
C120_2 C115_2 1_555 1_555
O29_2 C124_2 1_555 1_555
C124_2 C106_2 1_555 1_555
O30_2 Ba9 1_555 1_555
N4_2 C125_2 1_555 1_555
C125_2 O30_2 1_555 1_555
H101_2 C125_2 1_555 1_555
C128_2 N4_2 1_555 1_555
H106_2 C128_2 1_555 1_555
H107_2 C128_2 1_555 1_555
H108_2 C128_2 1_555 1_555
C130_2 N4_2 1_555 1_555
H112_2 C130_2 1_555 1_555
H113_2 C130_2 1_555 1_555
H114_2 C130_2 1_555 1_555
O38_2 Ba9 1_555 1_555
Ba9 O26_2 1_555 1_555
C103_2 C104_2 1_555 1_555
C117_2 C119_2 1_555 1_555
O26_2 C120_2 1_555 1_555
O27_2 C120_2 1_555 1_555
O17_2 Ba1_4 1_555 1_555
O18_2 C67_2 1_555 1_555
C66_2 C70_2 1_555 1_555
C67_2 C121_2 1_555 1_555
O19_2 H58_2 1_555 1_555
C68_2 H59_2 1_555 1_555
C69_2 O19_2 1_555 1_555
C70_2 O18_2 1_555 1_555
H60_2 C70_2 1_555 1_555
O20_2 C66_2 1_555 1_555
H61_2 O20_2 1_555 1_555
C71_2 C66_2 1_555 1_555
C72_2 C69_2 1_555 1_555
C73_2 H62_2 1_555 1_555
C74_2 C72_2 1_555 1_555
H63_2 C74_2 1_555 1_555
C75_2 C66_2 1_555 1_555
C76_2 H64_2 1_555 1_555
C77_2 C71_2 1_555 1_555
H65_2 C77_2 1_555 1_555
C78_2 C71_2 1_555 1_555
H66_2 C78_2 1_555 1_555
C79_2 C81_2 1_555 1_555
C80_2 C75_2 1_555 1_555
H67_2 C80_2 1_555 1_555
C81_2 C85_2 1_555 1_555
C82_2 C84_2 1_555 1_555
C83_2 C75_2 1_555 1_555
H68_2 C83_2 1_555 1_555
C84_2 H69_2 1_555 1_555
C85_2 H70_2 1_555 1_555
C86_2 C83_2 1_555 1_555
H71_2 C86_2 1_555 1_555
C87_2 C80_2 1_555 1_555
H72_2 C87_2 1_555 1_555
C88_2 C81_2 1_555 1_555
H73_2 C88_2 1_555 1_555
C89_2 C82_2 1_555 1_555
O21_2 C79_2 1_555 1_555
H74_2 O21_2 1_555 1_555
C90_2 C96_2 1_555 1_555
C91_2 H75_2 1_555 1_555
C92_2 C91_2 1_555 1_555
C93_2 C77_2 1_555 1_555
H76_2 C93_2 1_555 1_555
C94_2 C82_2 1_555 1_555
H77_2 C94_2 1_555 1_555
O22_2 C98_2 1_555 1_555
C95_2 C92_2 1_555 1_555
H78_2 C95_2 1_555 1_555
C96_2 C95_2 1_555 1_555
H79_2 C96_2 1_555 1_555
C97_2 C90_2 1_555 1_555
H80_2 C97_2 1_555 1_555
O36 C98_2 1_555 1_555
C98_2 C92_2 1_555 1_555
O38_2 C79_2 1_555 1_555
C99_2 C69_2 1_555 1_555
C101_2 C72_2 1_555 1_555
H81_2 C101_2 1_555 1_555
C109_2 C99_2 1_555 1_555
H87_2 C109_2 1_555 1_555
C110_2 C109_2 1_555 1_555
H88_2 C110_2 1_555 1_555
C113_2 C110_2 1_555 1_555
H91_2 C116_2 1_555 1_555
H97_2 C121_2 1_555 1_555
O28_2 C67_2 1_555 1_555
C123_2 C76_2 1_555 1_555
C68_2 C69_2 1_555 1_555
C68_2 C70_2 1_555 1_555
C68_2 O28_2 1_555 1_555
C73_2 C74_2 1_555 1_555
C76_2 C78_2 1_555 1_555
C84_2 C88_2 1_555 1_555
C85_2 C94_2 1_555 1_555
C86_2 C89_2 1_555 1_555
C87_2 C89_2 1_555 1_555
C90_2 C123_2 1_555 1_555
C91_2 C97_2 1_555 1_555
C93_2 C123_2 1_555 1_555
N1_2 C61_2 1_555 1_555
C61_2 O15_2 1_555 1_555
C62_2 N1_2 1_555 1_555
H46_2 C62_2 1_555 1_555
H47_2 C62_2 1_555 1_555
H48_2 C62_2 1_555 1_555
C64_2 N1_2 1_555 1_555
H52 C64_2 1_555 1_555
H53 C64_2 1_555 1_555
H54_2 C64_2 1_555 1_555
H86_2 C108_2 1_555 1_555
O1_2 C2_2 1_555 1_555
C1_2 C5_2 1_555 1_555
C2_2 C56_2 1_555 1_555
O2_2 H1_2 1_555 1_555
C3_2 H2_2 1_555 1_555
C4_2 O2_2 1_555 1_555
C5_2 O1_2 1_555 1_555
H3_2 C5_2 1_555 1_555
O3_2 C1_2 1_555 1_555
H4_2 O3_2 1_555 1_555
C6_2 C1_2 1_555 1_555
C7_2 C4_2 1_555 1_555
C8_2 H5_2 1_555 1_555
C9_2 C7_2 1_555 1_555
H6_2 C9_2 1_555 1_555
C10_2 C1_2 1_555 1_555
C11_2 H7_2 1_555 1_555
C12_2 C6_2 1_555 1_555
H8_2 C12_2 1_555 1_555
C13_2 C6_2 1_555 1_555
H9_2 C13_2 1_555 1_555
C14_2 C16_2 1_555 1_555
C15_2 C10_2 1_555 1_555
H10_2 C15_2 1_555 1_555
C16_2 C20_2 1_555 1_555
C17_2 C19_2 1_555 1_555
C18_2 C10_2 1_555 1_555
H11_2 C18_2 1_555 1_555
C19_2 H12_2 1_555 1_555
C20_2 H13_2 1_555 1_555
C21_2 C18_2 1_555 1_555
H14_2 C21_2 1_555 1_555
C22_2 C15_2 1_555 1_555
H15_2 C22_2 1_555 1_555
C23_2 C16_2 1_555 1_555
H16_2 C23_2 1_555 1_555
C24_2 C17_2 1_555 1_555
O4_2 C14_2 1_555 1_555
H17_2 O4_2 1_555 1_555
C25_2 C31_2 1_555 1_555
C26_2 H18_2 1_555 1_555
C27_2 C26_2 1_555 1_555
C28_2 C12_2 1_555 1_555
H19_2 C28_2 1_555 1_555
C29_2 C17_2 1_555 1_555
H20_2 C29_2 1_555 1_555
O5_2 C33_2 1_555 1_555
C30_2 C27_2 1_555 1_555
H21_2 C30_2 1_555 1_555
C31_2 C30_2 1_555 1_555
H22_2 C31_2 1_555 1_555
C32_2 C25_2 1_555 1_555
H23_2 C32_2 1_555 1_555
O35 C33_2 1_555 1_555
C33_2 C27_2 1_555 1_555
O7_2 C14_2 1_555 1_555
C34_2 C4_2 1_555 1_555
C36_2 C7_2 1_555 1_555
H24_2 C36_2 1_555 1_555
C44_2 C34_2 1_555 1_555
H30_2 C44_2 1_555 1_555
C45_2 C44_2 1_555 1_555
H31_2 C45_2 1_555 1_555
C48_2 C45_2 1_555 1_555
H34_2 C51_2 1_555 1_555
H40_2 C56_2 1_555 1_555
O11_2 C2_2 1_555 1_555
C58_2 C11_2 1_555 1_555
O34_2 Ba1_5 1_555 1_555
Ba7 O7_2 1_555 1_555
C3_2 C4_2 1_555 1_555
C3_2 C5_2 1_555 1_555
C3_2 O11_2 1_555 1_555
C8_2 C9_2 1_555 1_555
C11_2 C13_2 1_555 1_555
C19_2 C23_2 1_555 1_555
C20_2 C29_2 1_555 1_555
C21_2 C24_2 1_555 1_555
C22_2 C24_2 1_555 1_555
C25_2 C58_2 1_555 1_555
C26_2 C32_2 1_555 1_555
C28_2 C58_2 1_555 1_555
Ba1_6 O9_2 1_555 1_555
Ba7 O9_2 1_555 1_555
C37_2 C35_2 1_555 1_555
H25_2 C37_2 1_555 1_555
C39_2 C35_2 1_555 1_555
C40_2 C39_2 1_555 1_555
H27_2 C40_2 1_555 1_555
C41_2 C42_2 1_555 1_555
C42_2 C40_2 1_555 1_555
H28_2 C42_2 1_555 1_555
H32_2 C46_2 1_555 1_555
C49_2 C46_2 1_555 1_555
H33_2 C49_2 1_555 1_555
C50_2 C52_2 1_555 1_555
C52_2 H35_2 1_555 1_555
C53_2 C50_2 1_555 1_555
C54_2 C47_2 1_555 1_555
H37_2 C54_2 1_555 1_555
O9_2 C55_2 1_555 1_555
O10_2 Ba7 1_555 1_555
C55_2 C50_2 1_555 1_555
O12_2 C59_2 1_555 1_555
C59_2 C41_2 1_555 1_555
O13_2 Ba7 1_555 1_555
N2_2 C60_2 1_555 1_555
C60_2 O13_2 1_555 1_555
H44_2 C60_2 1_555 1_555
C63_2 N2_2 1_555 1_555
H49_2 C63_2 1_555 1_555
H50_2 C63_2 1_555 1_555
H51_2 C63_2 1_555 1_555
C65_2 N2_2 1_555 1_555
H55_2 C65_2 1_555 1_555
H56_2 C65_2 1_555 1_555
H57_2 C65_2 1_555 1_555
C38_2 C39_2 1_555 1_555
C52_2 C54_2 1_555 1_555
O10_2 C55_2 1_555 1_555
H29_2 C43_2 1_555 1_555
N3_2 C126_2 1_555 1_555
C126_2 O32_2 1_555 1_555
C127_2 N3_2 1_555 1_555
H103_2 C127_2 1_555 1_555
H104_2 C127_2 1_555 1_555
H105_2 C127_2 1_555 1_555
C129_2 N3_2 1_555 1_555
H109 C129_2 1_555 1_555
H110 C129_2 1_555 1_555
H111_2 C129_2 1_555 1_555
H98_2 C122_2 1_555 1_555
H99_2 C122_2 1_555 1_555
H100_2 C122_2 1_555 1_555
H41_2 C57_2 1_555 1_555
H42_2 C57_2 1_555 1_555
H43_2 C57_2 1_555 1_555

#END
