
###############################################################################
#
# This file contains modified crystal structure data generated from the
# MOF subset of the Cambridge Structural Database (CSD) v543 
# hosted by the Cambridge Crystallographic Data Centre (CCDC).
#
# This work is licensed under the Creative Commons
# Attribution-NonCommercial-ShareAlike 4.0 International License.
# To view a copy of this license, visit
# http://creativecommons.org/licenses/by-nc-sa/4.0/
# or send a letter to
# Creative Commons, PO Box 1866, Mountain View, CA 94042, USA.
#
# CIF created using the CSD Python API on 29 September 2022
# The structure has been converted into the P1 space group
# The structure has a 3D framework
# The original CSD entry GELQOG01 is in the rhombohedral crystal system
# The framework has been calculated to contain at least 10.0% void space
# The void calculation uses a probe of radius 1.32A, grid spacing 0.4
#
###############################################################################

data_GELQOG01
_chemical_formula_moiety         '(C216 H180 Co18 N72 O66)n'
_symmetry_cell_setting           triclinic
_symmetry_space_group_name_H-M   'P 1'
_symmetry_Int_Tables_number      1
_space_group_name_Hall           'P 1'
loop_
_symmetry_equiv_pos_site_id
_symmetry_equiv_pos_as_xyz
1 x,y,z
_cell_length_a                   28.449(8)
_cell_length_b                   28.449(8)
_cell_length_c                   10.960(4)
_cell_angle_alpha                90
_cell_angle_beta                 90
_cell_angle_gamma                120
_cell_volume                     7682.02
loop_
_atom_site_label
_atom_site_type_symbol
_atom_site_fract_x
_atom_site_fract_y
_atom_site_fract_z
O3 O 0.07028(10) 0.41409(14) 0.2280(3)
O4 O 0.00380(9) 0.38928(13) 0.0915(2)
C7 C 0.02123(13) 0.39287(18) 0.1976(3)
Co3 Co 0.08173(2) 0.41503(2) 0.4167
Co1 Co 0.91827(2) 0.3333 0.0833
O1 O 0.92972(10) 0.34381(10) 0.2720(3)
O2 O 0.99620(9) 0.38548(10) 0.4085(2)
N1 N 0.90089(12) 0.39621(12) 0.0628(3)
C1 C 0.89096(13) 0.48949(14) 0.0478(3)
N2 N 0.88577(14) 0.53465(13) 0.0342(4)
C4 C 0.86721(19) 0.45228(19) 0.1420(4)
H3 H 0.8471 0.4580 0.2036
C5 C 0.8730(2) 0.40735(19) 0.1455(4)
H4 H 0.8561 0.3824 0.2106
C6 C 0.97877(13) 0.37164(12) 0.3024(3)
N3 N 0.72954(12) 0.56756(12) 0.1039(3)
C8 C 0.82282(14) 0.55763(13) 0.1189(3)
C9 C 0.76523(16) 0.59021(16) 0.1944(4)
H6 H 0.7584 0.6102 0.2546
N4 N 0.86798(13) 0.55244(14) 0.1325(4)
C10 C 0.81122(16) 0.58635(17) 0.2056(4)
H7 H 0.8351 0.6033 0.2724
C11 C 0.78561(19) 0.53388(19) 0.0247(4)
C12 C 0.74068(19) 0.5397(2) 0.0212(4)
H10 H 0.8973 0.5832 0.1772
Co2 Co 0.6667 0.58497(2) 0.0833
O6 O 0.94785(10) 0.27739(13) 0.0752(2)
N5 N 0.83801(17) 0.27046(12) 0.1039(3)
C2 C 0.92354(16) 0.43190(16) 0.9723(4)
H1 H 0.9435 0.4251 0.9121
C3 C 0.91968(17) 0.47789(16) 0.9611(4)
H2 H 0.9366 0.5018 0.8943
H5 H 0.9165 0.5640 0.9895
H8 H 0.7913 0.5138 0.9631
H9 H 0.7157 0.5228 0.9561
O5 O 0.91924(14) 0.32286(10) 0.8947(3)
O1_2 O 0.65619(10) 0.58591(14) 0.2720(3)
O2_2 O 0.61452(10) 0.61072(13) 0.4085(2)
N1_2 N 0.60379(12) 0.50468(17) 0.0628(3)
C1_2 C 0.51051(14) 0.40147(19) 0.0478(3)
N2_2 N 0.46535(13) 0.35112(19) 0.0342(4)
C4_2 C 0.54772(19) 0.41493(27) 0.1420(4)
H3_2 H 0.5420 0.3891 0.2036
C5_2 C 0.59265(19) 0.46565(28) 0.1455(4)
H4_2 H 0.6176 0.4737 0.2106
C6_2 C 0.62836(12) 0.60713(18) 0.3024(3)
O3_2 O 0.58591(14) 0.65619(17) 0.2280(3)
O4_2 O 0.61072(13) 0.61452(16) 0.0915(2)
C7_2 C 0.60713(18) 0.62836(22) 0.1976(3)
N3_2 N 0.43244(12) 0.16199(17) 0.1039(3)
C8_2 C 0.44237(13) 0.26520(19) 0.1189(3)
C9_2 C 0.40979(16) 0.17503(23) 0.1944(4)
H6_2 H 0.3898 0.1483 0.2546
N4_2 N 0.44756(14) 0.31555(19) 0.1325(4)
C10_2 C 0.41365(17) 0.22488(23) 0.2056(4)
H7_2 H 0.3967 0.2319 0.2724
C11_2 C 0.46612(19) 0.25174(27) 0.0247(4)
C12_2 C 0.4603(2) 0.20102(28) 0.0212(4)
H10_2 H 0.4168 0.3142 0.1772
Co2_2 Co 0.41503(2) 0.08173(2) 0.0833
Co3_2 Co 0.58497(2) 0.66670(3) 0.4167
O6_2 O 0.72261(13) 0.67047(16) 0.0752(2)
C2_2 C 0.56810(16) 0.49164(23) 0.9723(4)
H1_2 H 0.5749 0.5184 0.9121
C3_2 C 0.52211(16) 0.44179(23) 0.9611(4)
H2_2 H 0.4982 0.4348 0.8943
H5_2 H 0.4360 0.3525 0.9895
H8_2 H 0.4862 0.2776 0.9631
H9_2 H 0.4772 0.1930 0.9561
O5_2 O 0.67714(10) 0.59639(17) 0.8947(3)
O1_3 O 0.41409(14) 0.07028(10) 0.2720(3)
O2_3 O 0.38928(13) 0.00380(9) 0.4085(2)
N1_3 N 0.49532(17) 0.09911(12) 0.0628(3)
C1_3 C 0.59853(19) 0.10904(13) 0.0478(3)
N2_3 N 0.64888(19) 0.11423(14) 0.0342(4)
C4_3 C 0.58507(27) 0.13279(19) 0.1420(4)
H3_3 H 0.6109 0.1529 0.2036
C5_3 C 0.53435(28) 0.1270(2) 0.1455(4)
H4_3 H 0.5263 0.1439 0.2106
C6_3 C 0.39287(18) 0.02123(13) 0.3024(3)
C8_3 C 0.73480(19) 0.17718(14) 0.1189(3)
C9_3 C 0.82497(23) 0.23477(16) 0.1944(4)
H6_3 H 0.8517 0.2416 0.2546
N4_3 N 0.68445(19) 0.13202(13) 0.1325(4)
C10_3 C 0.77512(23) 0.18878(16) 0.2056(4)
H7_3 H 0.7681 0.1649 0.2724
C11_3 C 0.74826(27) 0.21439(19) 0.0247(4)
C12_3 C 0.79898(28) 0.25932(19) 0.0212(4)
H10_3 H 0.6858 0.1027 0.1772
O6_3 O 0.32953(16) 0.05215(10) 0.0752(2)
C2_3 C 0.50836(23) 0.07646(16) 0.9723(4)
H1_3 H 0.4816 0.0565 0.9121
C3_3 C 0.55821(23) 0.08032(17) 0.9611(4)
H2_3 H 0.5652 0.0634 0.8943
H5_3 H 0.6475 0.0835 0.9895
H8_3 H 0.7224 0.2087 0.9631
H9_3 H 0.8070 0.2843 0.9561
O5_3 O 0.40361(17) 0.08076(14) 0.8947(3)
O3_3 O 0.34381(17) 0.92972(10) 0.2280(3)
O4_3 O 0.38548(16) 0.99620(9) 0.0915(2)
C7_3 C 0.37164(22) 0.97877(13) 0.1976(3)
Co3_3 Co 0.33330(3) 0.91827(2) 0.4167
N1_4 N 0.50468(17) 0.60379(12) 0.4372(3)
C1_4 C 0.40147(19) 0.51051(14) 0.4522(3)
C2_4 C 0.49164(23) 0.56810(16) 0.5277(4)
H1_4 H 0.5184 0.5749 0.5879
N2_4 N 0.35112(19) 0.46535(13) 0.4658(4)
C3_4 C 0.44179(23) 0.52211(16) 0.5389(4)
H2_4 H 0.4348 0.4982 0.6057
C4_4 C 0.41493(27) 0.54772(19) 0.3580(4)
H3_4 H 0.3891 0.5420 0.2964
C5_4 C 0.46565(28) 0.59265(19) 0.3545(4)
H4_4 H 0.4737 0.6176 0.2894
H5_4 H 0.3525 0.4360 0.5105
N3_3 N 0.16199(17) 0.43244(12) 0.3961(3)
C8_4 C 0.26520(19) 0.44237(13) 0.3811(3)
C9_4 C 0.17503(23) 0.40979(16) 0.3056(4)
H6_4 H 0.1483 0.3898 0.2454
N4_4 N 0.31555(19) 0.44756(14) 0.3675(4)
C10_4 C 0.22488(23) 0.41365(17) 0.2944(4)
H7_4 H 0.2319 0.3967 0.2276
C11_4 C 0.25174(27) 0.46612(19) 0.4753(4)
H8_4 H 0.2776 0.4862 0.5369
C12_4 C 0.20102(28) 0.4603(2) 0.4788(4)
H9_4 H 0.1930 0.4772 0.5439
H10_4 H 0.3142 0.4168 0.3228
O5_4 O 0.59639(17) 0.67714(10) 0.6053(3)
O6_4 O 0.67047(16) 0.72261(13) 0.4248(2)
N5_2 N 0.56756(21) 0.72954(12) 0.3961(3)
N1_5 N 0.09911(12) 0.49532(17) 0.4372(3)
C1_5 C 0.10904(13) 0.59853(19) 0.4522(3)
C2_5 C 0.07646(16) 0.50836(23) 0.5277(4)
H1_5 H 0.0565 0.4816 0.5879
N2_5 N 0.11423(14) 0.64888(19) 0.4658(4)
C3_5 C 0.08032(17) 0.55821(23) 0.5389(4)
H2_5 H 0.0634 0.5652 0.6057
C4_5 C 0.13279(19) 0.58507(27) 0.3580(4)
H3_5 H 0.1529 0.6109 0.2964
C5_5 C 0.1270(2) 0.53435(28) 0.3545(4)
H4_5 H 0.1439 0.5263 0.2894
H5_5 H 0.0835 0.6475 0.5105
N3_4 N 0.27046(12) 0.83801(17) 0.3961(3)
C8_5 C 0.17718(14) 0.73480(19) 0.3811(3)
C9_5 C 0.23477(16) 0.82497(23) 0.3056(4)
H6_5 H 0.2416 0.8517 0.2454
N4_5 N 0.13202(13) 0.68445(19) 0.3675(4)
C10_5 C 0.18878(16) 0.77512(23) 0.2944(4)
H7_5 H 0.1649 0.7681 0.2276
C11_5 C 0.21439(19) 0.74826(27) 0.4753(4)
H8_5 H 0.2087 0.7224 0.5369
C12_5 C 0.25932(19) 0.79898(28) 0.4788(4)
H9_5 H 0.2843 0.8070 0.5439
H10_5 H 0.1027 0.6858 0.3228
O5_5 O 0.08076(14) 0.40361(17) 0.6053(3)
O6_5 O 0.05215(10) 0.32953(16) 0.4248(2)
N1_6 N 0.39621(12) 0.90089(12) 0.4372(3)
C1_6 C 0.48949(14) 0.89096(13) 0.4522(3)
C2_6 C 0.43190(16) 0.92354(16) 0.5277(4)
H1_6 H 0.4251 0.9435 0.5879
N2_6 N 0.53465(13) 0.88577(14) 0.4658(4)
C3_6 C 0.47789(16) 0.91968(17) 0.5389(4)
H2_6 H 0.5018 0.9366 0.6057
C4_6 C 0.45228(19) 0.86721(19) 0.3580(4)
H3_6 H 0.4580 0.8471 0.2964
C5_6 C 0.40735(19) 0.8730(2) 0.3545(4)
H4_6 H 0.3824 0.8561 0.2894
H5_6 H 0.5640 0.9165 0.5105
C8_6 C 0.55763(13) 0.82282(14) 0.3811(3)
C9_6 C 0.59021(16) 0.76523(16) 0.3056(4)
H6_6 H 0.6102 0.7584 0.2454
N4_6 N 0.55244(14) 0.86798(13) 0.3675(4)
C10_6 C 0.58635(17) 0.81122(16) 0.2944(4)
H7_6 H 0.6033 0.8351 0.2276
C11_6 C 0.53388(19) 0.78561(19) 0.4753(4)
H8_6 H 0.5138 0.7913 0.5369
C12_6 C 0.5397(2) 0.74068(19) 0.4788(4)
H9_6 H 0.5228 0.7157 0.5439
H10_6 H 0.5832 0.8973 0.3228
O5_6 O 0.32286(10) 0.91924(14) 0.6053(3)
O6_6 O 0.27739(13) 0.94785(10) 0.4248(2)
O2_4 O 0.66287(9) 0.71881(10) 0.7418(2)
C6_4 C 0.64544(13) 0.70497(12) 0.6357(3)
O3_4 O 0.73695(10) 0.74742(14) 0.5613(3)
C7_4 C 0.68790(13) 0.72620(18) 0.5309(3)
Co3_4 Co 0.74840(2) 0.74836(2) 0.7500
Co3_5 Co 0.25164(2) 0.00003(3) 0.7500
O2_5 O 0.28119(10) 0.94405(13) 0.7418(2)
C6_5 C 0.29503(12) 0.94046(18) 0.6357(3)
O3_5 O 0.25258(14) 0.98952(17) 0.5613(3)
C7_5 C 0.27380(18) 0.96169(22) 0.5309(3)
Co3_6 Co 0.25164(2) 1.00003(3) 0.7500
O2_6 O 0.05595(13) 0.33713(9) 0.7418(2)
C6_6 C 0.05954(18) 0.35456(13) 0.6357(3)
O3_6 O 0.01048(17) 0.26305(10) 0.5613(3)
C7_6 C 0.03831(22) 0.31210(13) 0.5309(3)
Co3_7 Co -0.00003(3) 0.25160(2) 0.7500
Co3_8 Co 0.99997(3) 0.25160(2) 0.7500
O5_7 O 0.26305(17) 0.01048(10) 0.9387(3)
O6_7 O 0.33713(16) 0.05595(13) 0.7582(2)
N5_3 N 0.23422(21) 0.06288(12) 0.7295(3)
N1_7 N 0.17135(17) 0.93712(12) 0.7705(3)
C1_7 C 0.06814(19) 0.84384(14) 0.7855(3)
C2_7 C 0.15831(23) 0.90143(16) 0.8610(4)
H1_7 H 0.1851 0.9082 0.9212
N2_7 N 0.01779(19) 0.79868(13) 0.7991(4)
C3_7 C 0.10846(23) 0.85544(16) 0.8722(4)
H2_7 H 0.1015 0.8315 0.9390
C4_7 C 0.08160(27) 0.88105(19) 0.6913(4)
H3_7 H 0.0558 0.8753 0.6297
C5_7 C 0.13232(28) 0.92598(19) 0.6878(4)
H4_7 H 0.1404 0.9509 0.6227
H5_7 H 0.0192 0.7693 0.8438
N3_5 N 0.82865(17) 0.76578(12) 0.7295(3)
C8_7 C 0.93186(19) 0.77571(13) 0.7145(3)
C9_7 C 0.84169(23) 0.74313(16) 0.6390(4)
H6_7 H 0.8149 0.7232 0.5788
N4_7 N 0.98221(19) 0.78090(14) 0.7009(4)
C10_7 C 0.89154(23) 0.74699(17) 0.6278(4)
H7_7 H 0.8985 0.7301 0.5610
C11_7 C 0.91840(27) 0.79946(19) 0.8087(4)
H8_7 H 0.9442 0.8196 0.8703
C12_7 C 0.86768(28) 0.7937(2) 0.8122(4)
H9_7 H 0.8596 0.8106 0.8773
H10_7 H 0.9808 0.7502 0.6562
N3_6 N 0.93712(12) 0.17135(17) 0.7295(3)
C8_8 C 0.84384(14) 0.06814(19) 0.7145(3)
C9_8 C 0.90143(16) 0.15831(23) 0.6390(4)
H6_8 H 0.9082 0.1851 0.5788
N4_8 N 0.79868(13) 0.01779(19) 0.7009(4)
C10_8 C 0.85544(16) 0.10846(23) 0.6278(4)
H7_8 H 0.8315 0.1015 0.5610
C11_8 C 0.88105(19) 0.08160(27) 0.8087(4)
H8_8 H 0.8753 0.0558 0.8703
C12_8 C 0.92598(19) 0.13232(28) 0.8122(4)
H9_8 H 0.9509 0.1404 0.8773
H10_8 H 0.7693 0.0192 0.6562
N1_8 N 0.76578(12) 0.82865(17) 0.7705(3)
C1_8 C 0.77571(13) 0.93186(19) 0.7855(3)
C2_8 C 0.74313(16) 0.84169(23) 0.8610(4)
H1_8 H 0.7232 0.8149 0.9212
N2_8 N 0.78090(14) 0.98221(19) 0.7991(4)
C3_8 C 0.74699(17) 0.89154(23) 0.8722(4)
H2_8 H 0.7301 0.8985 0.9390
C4_8 C 0.79946(19) 0.91840(27) 0.6913(4)
H3_8 H 0.8196 0.9442 0.6297
C5_8 C 0.7937(2) 0.86768(28) 0.6878(4)
H4_8 H 0.8106 0.8596 0.6227
H5_8 H 0.7502 0.9808 0.8438
O5_8 O 0.74742(14) 0.73695(17) 0.9387(3)
O6_8 O 0.71881(10) 0.66287(16) 0.7582(2)
N1_9 N 0.06288(12) 0.23422(12) 0.7705(3)
C1_9 C 0.15616(14) 0.22429(13) 0.7855(3)
C2_9 C 0.09857(16) 0.25687(16) 0.8610(4)
H1_9 H 0.0918 0.2768 0.9212
N2_9 N 0.20132(13) 0.21910(14) 0.7991(4)
C3_9 C 0.14456(16) 0.25301(17) 0.8722(4)
H2_9 H 0.1685 0.2699 0.9390
C4_9 C 0.11895(19) 0.20054(19) 0.6913(4)
H3_9 H 0.1247 0.1804 0.6297
C5_9 C 0.07402(19) 0.2063(2) 0.6878(4)
H4_9 H 0.0491 0.1894 0.6227
H5_9 H 0.2307 0.2498 0.8438
C8_9 C 0.22429(13) 0.15616(14) 0.7145(3)
C9_9 C 0.25687(16) 0.09857(16) 0.6390(4)
H6_9 H 0.2768 0.0918 0.5788
N4_9 N 0.21910(14) 0.20132(13) 0.7009(4)
C10_9 C 0.25301(17) 0.14456(16) 0.6278(4)
H7_9 H 0.2699 0.1685 0.5610
C11_9 C 0.20054(19) 0.11895(19) 0.8087(4)
H8_9 H 0.1804 0.1247 0.8703
C12_9 C 0.2063(2) 0.07402(19) 0.8122(4)
H9_9 H 0.1894 0.0491 0.8773
H10_9 H 0.2498 0.2307 0.6562
O5_9 O 0.98952(10) 0.25258(14) 0.9387(3)
O6_9 O 0.94405(13) 0.28119(10) 0.7582(2)
C6_7 C 0.31210(13) 0.03831(12) 0.9691(3)
C7_7 C 0.35456(13) 0.05954(18) 0.8643(3)
C6_8 C 0.96169(12) 0.27380(18) 0.9691(3)
C7_8 C 0.94046(18) 0.29503(22) 0.8643(3)
C6_9 C 0.72620(18) 0.68790(13) 0.9691(3)
C7_9 C 0.70497(22) 0.64544(13) 0.8643(3)
C2_10 C 0.07646(16) 0.56810(16) 0.0277(4)
H1_10 H 0.0565 0.5749 0.0879
C3_10 C 0.08032(17) 0.52211(16) 0.0389(4)
H2_10 H 0.0634 0.4982 0.1057
H5_10 H 0.0835 0.4360 0.0105
H8_10 H 0.2087 0.4862 0.0369
H9_10 H 0.2843 0.4772 0.0439
O5_10 O 0.08076(14) 0.67714(10) 0.1053(3)
Co1_2 Co 0.08173(2) 0.6667 0.9167
O1_4 O 0.07028(10) 0.65619(10) 0.7280(3)
O2_7 O 0.00380(9) 0.61452(10) 0.5915(2)
N1_10 N 0.09911(12) 0.60379(12) 0.9372(3)
C1_10 C 0.10904(13) 0.51051(14) 0.9522(3)
N2_10 N 0.11423(14) 0.46535(13) 0.9658(4)
C4_10 C 0.13279(19) 0.54772(19) 0.8580(4)
H3_10 H 0.1529 0.5420 0.7964
C5_10 C 0.1270(2) 0.59265(19) 0.8545(4)
H4_10 H 0.1439 0.6176 0.7894
C6_10 C 0.02123(13) 0.62836(12) 0.6976(3)
N3_7 N 0.27046(12) 0.43244(12) 0.8961(3)
C8_10 C 0.17718(14) 0.44237(13) 0.8811(3)
C9_10 C 0.23477(16) 0.40979(16) 0.8056(4)
H6_10 H 0.2416 0.3898 0.7454
N4_10 N 0.13202(13) 0.44756(14) 0.8675(4)
C10_10 C 0.18878(16) 0.41365(17) 0.7944(4)
H7_10 H 0.1649 0.3967 0.7276
C11_10 C 0.21439(19) 0.46612(19) 0.9753(4)
C12_10 C 0.25932(19) 0.4603(2) 0.9788(4)
H10_10 H 0.1027 0.4168 0.8228
Co2_3 Co 0.3333 0.41503(2) 0.9167
O6_10 O 0.05215(10) 0.72261(13) 0.9248(2)
N5_4 N 0.16199(17) 0.72954(12) 0.8961(3)
O3_7 O 0.92972(10) 0.58591(14) 0.7720(3)
O4_4 O 0.99620(9) 0.61072(13) 0.9085(2)
C7_10 C 0.97877(13) 0.60713(18) 0.8024(3)
Co3_9 Co 0.91827(2) 0.58497(2) 0.5833
C2_11 C 0.43190(16) 0.50836(23) 0.0277(4)
H1_11 H 0.4251 0.4816 0.0879
C3_11 C 0.47789(16) 0.55821(23) 0.0389(4)
H2_11 H 0.5018 0.5652 0.1057
H5_11 H 0.5640 0.6475 0.0105
H8_11 H 0.5138 0.7224 0.0369
H9_11 H 0.5228 0.8070 0.0439
O5_11 O 0.32286(10) 0.40361(17) 0.1053(3)
O1_5 O 0.34381(10) 0.41409(14) 0.7280(3)
O2_8 O 0.38548(10) 0.38928(13) 0.5915(2)
N1_11 N 0.39621(12) 0.49532(17) 0.9372(3)
C1_11 C 0.48949(14) 0.59853(19) 0.9522(3)
N2_11 N 0.53465(13) 0.64888(19) 0.9658(4)
C4_11 C 0.45228(19) 0.58507(27) 0.8580(4)
H3_11 H 0.4580 0.6109 0.7964
C5_11 C 0.40735(19) 0.53435(28) 0.8545(4)
H4_11 H 0.3824 0.5263 0.7894
C6_11 C 0.37164(12) 0.39287(18) 0.6976(3)
O3_8 O 0.41409(14) 0.34381(17) 0.7720(3)
O4_5 O 0.38928(13) 0.38548(16) 0.9085(2)
C7_11 C 0.39287(18) 0.37164(22) 0.8024(3)
N3_8 N 0.56756(12) 0.83801(17) 0.8961(3)
C8_11 C 0.55763(13) 0.73480(19) 0.8811(3)
C9_11 C 0.59021(16) 0.82497(23) 0.8056(4)
H6_11 H 0.6102 0.8517 0.7454
N4_11 N 0.55244(14) 0.68445(19) 0.8675(4)
C10_11 C 0.58635(17) 0.77512(23) 0.7944(4)
H7_11 H 0.6033 0.7681 0.7276
C11_11 C 0.53388(19) 0.74826(27) 0.9753(4)
C12_11 C 0.5397(2) 0.79898(28) 0.9788(4)
H10_11 H 0.5832 0.6858 0.8228
Co2_4 Co 0.58497(2) 0.91827(2) 0.9167
Co3_10 Co 0.41503(2) 0.33330(3) 0.5833
O6_11 O 0.27739(13) 0.32953(16) 0.9248(2)
O3_9 O 0.65619(17) 0.07028(10) 0.7720(3)
O4_6 O 0.61452(16) 0.00380(9) 0.9085(2)
C7_12 C 0.62836(22) 0.02123(13) 0.8024(3)
Co3_11 Co 0.66670(3) 0.08173(2) 0.5833
C2_12 C 0.49164(23) 0.92354(16) 0.0277(4)
H1_12 H 0.5184 0.9435 0.0879
C3_12 C 0.44179(23) 0.91968(17) 0.0389(4)
H2_12 H 0.4348 0.9366 0.1057
H5_12 H 0.3525 0.9165 0.0105
H8_12 H 0.2776 0.7913 0.0369
H9_12 H 0.1930 0.7157 0.0439
O5_12 O 0.59639(17) 0.91924(14) 0.1053(3)
O1_6 O 0.58591(14) 0.92972(10) 0.7280(3)
O2_9 O 0.61072(13) 0.99620(9) 0.5915(2)
N1_12 N 0.50468(17) 0.90089(12) 0.9372(3)
C1_12 C 0.40147(19) 0.89096(13) 0.9522(3)
N2_12 N 0.35112(19) 0.88577(14) 0.9658(4)
C4_12 C 0.41493(27) 0.86721(19) 0.8580(4)
H3_12 H 0.3891 0.8471 0.7964
C5_12 C 0.46565(28) 0.8730(2) 0.8545(4)
H4_12 H 0.4737 0.8561 0.7894
C6_12 C 0.60713(18) 0.97877(13) 0.6976(3)
C8_12 C 0.26520(19) 0.82282(14) 0.8811(3)
C9_12 C 0.17503(23) 0.76523(16) 0.8056(4)
H6_12 H 0.1483 0.7584 0.7454
N4_12 N 0.31555(19) 0.86798(13) 0.8675(4)
C10_12 C 0.22488(23) 0.81122(16) 0.7944(4)
H7_12 H 0.2319 0.8351 0.7276
C11_12 C 0.25174(27) 0.78561(19) 0.9753(4)
C12_12 C 0.20102(28) 0.74068(19) 0.9788(4)
H10_12 H 0.3142 0.8973 0.8228
O6_12 O 0.67047(16) 0.94785(10) 0.9248(2)
N1_13 N 0.49532(17) 0.39621(12) 0.5628(3)
C1_13 C 0.59853(19) 0.48949(14) 0.5478(3)
C2_13 C 0.50836(23) 0.43190(16) 0.4723(4)
H1_13 H 0.4816 0.4251 0.4121
N2_13 N 0.64888(19) 0.53465(13) 0.5342(4)
C3_13 C 0.55821(23) 0.47789(16) 0.4611(4)
H2_13 H 0.5652 0.5018 0.3943
C4_13 C 0.58507(27) 0.45228(19) 0.6420(4)
H3_13 H 0.6109 0.4580 0.7036
C5_13 C 0.53435(28) 0.40735(19) 0.6455(4)
H4_13 H 0.5263 0.3824 0.7106
H5_13 H 0.6475 0.5640 0.4895
N3_9 N 0.83801(17) 0.56756(12) 0.6039(3)
C8_13 C 0.73480(19) 0.55763(13) 0.6189(3)
C9_13 C 0.82497(23) 0.59021(16) 0.6944(4)
H6_13 H 0.8517 0.6102 0.7546
N4_13 N 0.68445(19) 0.55244(14) 0.6325(4)
C10_13 C 0.77512(23) 0.58635(17) 0.7056(4)
H7_13 H 0.7681 0.6033 0.7724
C11_13 C 0.74826(27) 0.53388(19) 0.5247(4)
H8_13 H 0.7224 0.5138 0.4631
C12_13 C 0.79898(28) 0.5397(2) 0.5212(4)
H9_13 H 0.8070 0.5228 0.4561
H10_13 H 0.6858 0.5832 0.6772
O5_13 O 0.40361(17) 0.32286(10) 0.3947(3)
O6_13 O 0.32953(16) 0.27739(13) 0.5752(2)
N5_5 N 0.43244(21) 0.27046(12) 0.6039(3)
N1_14 N 0.90089(12) 0.50468(17) 0.5628(3)
C1_14 C 0.89096(13) 0.40147(19) 0.5478(3)
C2_14 C 0.92354(16) 0.49164(23) 0.4723(4)
H1_14 H 0.9435 0.5184 0.4121
N2_14 N 0.88577(14) 0.35112(19) 0.5342(4)
C3_14 C 0.91968(17) 0.44179(23) 0.4611(4)
H2_14 H 0.9366 0.4348 0.3943
C4_14 C 0.86721(19) 0.41493(27) 0.6420(4)
H3_14 H 0.8471 0.3891 0.7036
C5_14 C 0.8730(2) 0.46565(28) 0.6455(4)
H4_14 H 0.8561 0.4737 0.7106
H5_14 H 0.9165 0.3525 0.4895
N3_10 N 0.72954(12) 0.16199(17) 0.6039(3)
C8_14 C 0.82282(14) 0.26520(19) 0.6189(3)
C9_14 C 0.76523(16) 0.17503(23) 0.6944(4)
H6_14 H 0.7584 0.1483 0.7546
N4_14 N 0.86798(13) 0.31555(19) 0.6325(4)
C10_14 C 0.81122(16) 0.22488(23) 0.7056(4)
H7_14 H 0.8351 0.2319 0.7724
C11_14 C 0.78561(19) 0.25174(27) 0.5247(4)
H8_14 H 0.7913 0.2776 0.4631
C12_14 C 0.74068(19) 0.20102(28) 0.5212(4)
H9_14 H 0.7157 0.1930 0.4561
H10_14 H 0.8973 0.3142 0.6772
O5_14 O 0.91924(14) 0.59639(17) 0.3947(3)
O6_14 O 0.94785(10) 0.67047(16) 0.5752(2)
N1_15 N 0.60379(12) 0.09911(12) 0.5628(3)
C1_15 C 0.51051(14) 0.10904(13) 0.5478(3)
C2_15 C 0.56810(16) 0.07646(16) 0.4723(4)
H1_15 H 0.5749 0.0565 0.4121
N2_15 N 0.46535(13) 0.11423(14) 0.5342(4)
C3_15 C 0.52211(16) 0.08032(17) 0.4611(4)
H2_15 H 0.4982 0.0634 0.3943
C4_15 C 0.54772(19) 0.13279(19) 0.6420(4)
H3_15 H 0.5420 0.1529 0.7036
C5_15 C 0.59265(19) 0.1270(2) 0.6455(4)
H4_15 H 0.6176 0.1439 0.7106
H5_15 H 0.4360 0.0835 0.4895
C8_15 C 0.44237(13) 0.17718(14) 0.6189(3)
C9_15 C 0.40979(16) 0.23477(16) 0.6944(4)
H6_15 H 0.3898 0.2416 0.7546
N4_15 N 0.44756(14) 0.13202(13) 0.6325(4)
C10_15 C 0.41365(17) 0.18878(16) 0.7056(4)
H7_15 H 0.3967 0.1649 0.7724
C11_15 C 0.46612(19) 0.21439(19) 0.5247(4)
H8_15 H 0.4862 0.2087 0.4631
C12_15 C 0.4603(2) 0.25932(19) 0.5212(4)
H9_15 H 0.4772 0.2843 0.4561
H10_15 H 0.4168 0.1027 0.6772
O5_15 O 0.67714(10) 0.08076(14) 0.3947(3)
O6_15 O 0.72261(13) 0.05215(10) 0.5752(2)
O2_10 O 0.33713(9) 0.28119(10) 0.2582(2)
C6_13 C 0.35456(13) 0.29503(12) 0.3643(3)
O3_10 O 0.26305(10) 0.25258(14) 0.4387(3)
C7_13 C 0.31210(13) 0.27380(18) 0.4691(3)
Co3_12 Co 0.25160(2) 0.25164(2) 0.2500
O2_11 O 0.71881(10) 0.05595(13) 0.2582(2)
C6_14 C 0.70497(12) 0.05954(18) 0.3643(3)
O3_11 O 0.74742(14) 0.01048(17) 0.4387(3)
C7_14 C 0.72620(18) 0.03831(22) 0.4691(3)
Co3_13 Co 0.74836(2) -0.00003(3) 0.2500
Co3_14 Co 0.74836(2) 0.99997(3) 0.2500
Co3_15 Co 0.00003(3) 0.74840(2) 0.2500
O2_12 O 0.94405(13) 0.66287(9) 0.2582(2)
C6_15 C 0.94046(18) 0.64544(13) 0.3643(3)
O3_12 O 0.98952(17) 0.73695(10) 0.4387(3)
C7_15 C 0.96169(22) 0.68790(13) 0.4691(3)
Co3_16 Co 1.00003(3) 0.74840(2) 0.2500
N3_11 N 0.17135(17) 0.23422(12) 0.2705(3)
C8_16 C 0.06814(19) 0.22429(13) 0.2855(3)
C9_16 C 0.15831(23) 0.25687(16) 0.3610(4)
H6_16 H 0.1851 0.2768 0.4212
N4_16 N 0.01779(19) 0.21910(14) 0.2991(4)
C10_16 C 0.10846(23) 0.25301(17) 0.3722(4)
H7_16 H 0.1015 0.2699 0.4390
C11_16 C 0.08160(27) 0.20054(19) 0.1913(4)
H8_16 H 0.0558 0.1804 0.1297
C12_16 C 0.13232(28) 0.2063(2) 0.1878(4)
H9_16 H 0.1404 0.1894 0.1227
H10_16 H 0.0192 0.2498 0.3438
N1_16 N 0.82865(17) 0.06288(12) 0.2295(3)
C1_16 C 0.93186(19) 0.15616(14) 0.2145(3)
C2_16 C 0.84169(23) 0.09857(16) 0.1390(4)
H1_16 H 0.8149 0.0918 0.0788
N2_16 N 0.98221(19) 0.20132(13) 0.2009(4)
C3_16 C 0.89154(23) 0.14456(16) 0.1278(4)
H2_16 H 0.8985 0.1685 0.0610
C4_16 C 0.91840(27) 0.11895(19) 0.3087(4)
H3_16 H 0.9442 0.1247 0.3703
C5_16 C 0.86768(28) 0.07402(19) 0.3122(4)
H4_16 H 0.8596 0.0491 0.3773
H5_16 H 0.9808 0.2307 0.1562
O5_16 O 0.73695(17) 0.98952(10) 0.0613(3)
O6_16 O 0.66287(16) 0.94405(13) 0.2418(2)
N5_6 N 0.76578(21) 0.93712(12) 0.2705(3)
N1_17 N 0.23422(12) 0.17135(17) 0.2295(3)
C1_17 C 0.22429(13) 0.06814(19) 0.2145(3)
C2_17 C 0.25687(16) 0.15831(23) 0.1390(4)
H1_17 H 0.2768 0.1851 0.0788
N2_17 N 0.21910(14) 0.01779(19) 0.2009(4)
C3_17 C 0.25301(17) 0.10846(23) 0.1278(4)
H2_17 H 0.2699 0.1015 0.0610
C4_17 C 0.20054(19) 0.08160(27) 0.3087(4)
H3_17 H 0.1804 0.0558 0.3703
C5_17 C 0.2063(2) 0.13232(28) 0.3122(4)
H4_17 H 0.1894 0.1404 0.3773
H5_17 H 0.2498 0.0192 0.1562
O5_17 O 0.25258(14) 0.26305(17) 0.0613(3)
O6_17 O 0.28119(10) 0.33713(16) 0.2418(2)
N3_12 N 0.06288(12) 0.82865(17) 0.2705(3)
C8_17 C 0.15616(14) 0.93186(19) 0.2855(3)
C9_17 C 0.09857(16) 0.84169(23) 0.3610(4)
H6_17 H 0.0918 0.8149 0.4212
N4_17 N 0.20132(13) 0.98221(19) 0.2991(4)
C10_17 C 0.14456(16) 0.89154(23) 0.3722(4)
H7_17 H 0.1685 0.8985 0.4390
C11_17 C 0.11895(19) 0.91840(27) 0.1913(4)
H8_17 H 0.1247 0.9442 0.1297
C12_17 C 0.07402(19) 0.86768(28) 0.1878(4)
H9_17 H 0.0491 0.8596 0.1227
H10_17 H 0.2307 0.9808 0.3438
O5_18 O 0.01048(10) 0.74742(14) 0.0613(3)
O6_18 O 0.05595(13) 0.71881(10) 0.2418(2)
N1_18 N 0.93712(12) 0.76578(12) 0.2295(3)
C1_18 C 0.84384(14) 0.77571(13) 0.2145(3)
C2_18 C 0.90143(16) 0.74313(16) 0.1390(4)
H1_18 H 0.9082 0.7232 0.0788
N2_18 N 0.79868(13) 0.78090(14) 0.2009(4)
C3_18 C 0.85544(16) 0.74699(17) 0.1278(4)
H2_18 H 0.8315 0.7301 0.0610
C4_18 C 0.88105(19) 0.79946(19) 0.3087(4)
H3_18 H 0.8753 0.8196 0.3703
C5_18 C 0.92598(19) 0.7937(2) 0.3122(4)
H4_18 H 0.9509 0.8106 0.3773
H5_18 H 0.7693 0.7502 0.1562
C8_18 C 0.77571(13) 0.84384(14) 0.2855(3)
C9_18 C 0.74313(16) 0.90143(16) 0.3610(4)
H6_18 H 0.7232 0.9082 0.4212
N4_18 N 0.78090(14) 0.79868(13) 0.2991(4)
C10_18 C 0.74699(17) 0.85544(16) 0.3722(4)
H7_18 H 0.7301 0.8315 0.4390
C11_18 C 0.79946(19) 0.88105(19) 0.1913(4)
H8_18 H 0.8196 0.8753 0.1297
C12_18 C 0.7937(2) 0.92598(19) 0.1878(4)
H9_18 H 0.8106 0.9509 0.1227
H10_18 H 0.7502 0.7693 0.3438
C6_16 C 0.68790(13) 0.96169(12) 0.0309(3)
C7_16 C 0.64544(13) 0.94046(18) 0.1357(3)
C6_17 C 0.03831(12) 0.72620(18) 0.0309(3)
C7_17 C 0.05954(18) 0.70497(22) 0.1357(3)
C6_18 C 0.27380(18) 0.31210(13) 0.0309(3)
C7_18 C 0.29503(22) 0.35456(13) 0.1357(3)
loop_
_geom_bond_atom_site_label_1
_geom_bond_atom_site_label_2
_geom_bond_site_symmetry_1
_geom_bond_site_symmetry_2
O3 C7 1_555 1_555
C7 O4 1_555 1_555
O3 Co3 1_555 1_555
Co1 O1 1_555 1_555
O1 C6 1_555 1_555
O2 C6 1_555 1_555
N1 Co1 1_555 1_555
C1 N2 1_555 1_555
C4 C1 1_555 1_555
H3 C4 1_555 1_555
C5 N1 1_555 1_555
H4 C5 1_555 1_555
N3 C9 1_555 1_555
C8 N4 1_555 1_555
C9 H6 1_555 1_555
N4 N2 1_555 1_555
C10 C8 1_555 1_555
H7 C10 1_555 1_555
C11 C8 1_555 1_555
C12 N3 1_555 1_555
H10 N4 1_555 1_555
Co2 N3 1_555 1_555
O6 Co1 1_555 1_555
N5 Co1 1_555 1_555
C4 C5 1_555 1_555
C9 C10 1_555 1_555
C11 C12 1_555 1_555
H1 C2 1_555 1_555
H2 C3 1_555 1_555
C2 C3 1_555 1_555
Co2 O1_2 1_555 1_555
O1_2 C6_2 1_555 1_555
O2_2 C6_2 1_555 1_555
N1_2 Co2 1_555 1_555
C1_2 N2_2 1_555 1_555
C4_2 C1_2 1_555 1_555
H3_2 C4_2 1_555 1_555
C5_2 N1_2 1_555 1_555
H4_2 C5_2 1_555 1_555
C6_2 C7_2 1_555 1_555
O3_2 C7_2 1_555 1_555
O4_2 Co2 1_555 1_555
C7_2 O4_2 1_555 1_555
N3_2 C9_2 1_555 1_555
C8_2 N4_2 1_555 1_555
C9_2 H6_2 1_555 1_555
N4_2 N2_2 1_555 1_555
C10_2 C8_2 1_555 1_555
H7_2 C10_2 1_555 1_555
C11_2 C8_2 1_555 1_555
C12_2 N3_2 1_555 1_555
H10_2 N4_2 1_555 1_555
Co2_2 N3_2 1_555 1_555
Co3_2 O2_2 1_555 1_555
O6_2 Co2 1_555 1_555
C4_2 C5_2 1_555 1_555
O3_2 Co3_2 1_555 1_555
C9_2 C10_2 1_555 1_555
C11_2 C12_2 1_555 1_555
H1_2 C2_2 1_555 1_555
H2_2 C3_2 1_555 1_555
C2_2 C3_2 1_555 1_555
Co2_2 O1_3 1_555 1_555
O1_3 C6_3 1_555 1_555
O2_3 C6_3 1_555 1_555
N1_3 Co2_2 1_555 1_555
C1_3 N2_3 1_555 1_555
C4_3 C1_3 1_555 1_555
H3_3 C4_3 1_555 1_555
C5_3 N1_3 1_555 1_555
H4_3 C5_3 1_555 1_555
N5 C9_3 1_555 1_555
C8_3 N4_3 1_555 1_555
C9_3 H6_3 1_555 1_555
N4_3 N2_3 1_555 1_555
C10_3 C8_3 1_555 1_555
H7_3 C10_3 1_555 1_555
C11_3 C8_3 1_555 1_555
C12_3 N5 1_555 1_555
H10_3 N4_3 1_555 1_555
O6_3 Co2_2 1_555 1_555
C4_3 C5_3 1_555 1_555
C9_3 C10_3 1_555 1_555
C11_3 C12_3 1_555 1_555
H1_3 C2_3 1_555 1_555
H2_3 C3_3 1_555 1_555
C2_3 C3_3 1_555 1_555
O3_3 C7_3 1_555 1_555
C7_3 O4_3 1_555 1_555
O3_3 Co3_3 1_555 1_555
N1_4 Co3_2 1_555 1_555
C1_4 N2_4 1_555 1_555
C2_4 N1_4 1_555 1_555
H1_4 C2_4 1_555 1_555
N2_4 H5_4 1_555 1_555
C3_4 C1_4 1_555 1_555
H2_4 C3_4 1_555 1_555
C4_4 C1_4 1_555 1_555
H3_4 C4_4 1_555 1_555
C5_4 N1_4 1_555 1_555
H4_4 C5_4 1_555 1_555
N3_3 C9_4 1_555 1_555
C8_4 N4_4 1_555 1_555
C9_4 H6_4 1_555 1_555
N4_4 N2_4 1_555 1_555
C10_4 C8_4 1_555 1_555
H7_4 C10_4 1_555 1_555
C11_4 C8_4 1_555 1_555
H8_4 C11_4 1_555 1_555
C12_4 N3_3 1_555 1_555
H9_4 C12_4 1_555 1_555
H10_4 N4_4 1_555 1_555
Co3 N3_3 1_555 1_555
O5_4 Co3_2 1_555 1_555
O6_4 Co3_2 1_555 1_555
N5_2 Co3_2 1_555 1_555
C2_4 C3_4 1_555 1_555
C4_4 C5_4 1_555 1_555
C9_4 C10_4 1_555 1_555
C11_4 C12_4 1_555 1_555
N1_5 Co3 1_555 1_555
C1_5 N2_5 1_555 1_555
C2_5 N1_5 1_555 1_555
H1_5 C2_5 1_555 1_555
N2_5 H5_5 1_555 1_555
C3_5 C1_5 1_555 1_555
H2_5 C3_5 1_555 1_555
C4_5 C1_5 1_555 1_555
H3_5 C4_5 1_555 1_555
C5_5 N1_5 1_555 1_555
H4_5 C5_5 1_555 1_555
N3_4 C9_5 1_555 1_555
C8_5 N4_5 1_555 1_555
C9_5 H6_5 1_555 1_555
N4_5 N2_5 1_555 1_555
C10_5 C8_5 1_555 1_555
H7_5 C10_5 1_555 1_555
C11_5 C8_5 1_555 1_555
H8_5 C11_5 1_555 1_555
C12_5 N3_4 1_555 1_555
H9_5 C12_5 1_555 1_555
H10_5 N4_5 1_555 1_555
Co3_3 N3_4 1_555 1_555
O5_5 Co3 1_555 1_555
O6_5 Co3 1_555 1_555
C2_5 C3_5 1_555 1_555
C4_5 C5_5 1_555 1_555
C9_5 C10_5 1_555 1_555
C11_5 C12_5 1_555 1_555
N1_6 Co3_3 1_555 1_555
C1_6 N2_6 1_555 1_555
C2_6 N1_6 1_555 1_555
H1_6 C2_6 1_555 1_555
N2_6 H5_6 1_555 1_555
C3_6 C1_6 1_555 1_555
H2_6 C3_6 1_555 1_555
C4_6 C1_6 1_555 1_555
H3_6 C4_6 1_555 1_555
C5_6 N1_6 1_555 1_555
H4_6 C5_6 1_555 1_555
N5_2 C9_6 1_555 1_555
C8_6 N4_6 1_555 1_555
C9_6 H6_6 1_555 1_555
N4_6 N2_6 1_555 1_555
C10_6 C8_6 1_555 1_555
H7_6 C10_6 1_555 1_555
C11_6 C8_6 1_555 1_555
H8_6 C11_6 1_555 1_555
C12_6 N5_2 1_555 1_555
H9_6 C12_6 1_555 1_555
H10_6 N4_6 1_555 1_555
O5_6 Co3_3 1_555 1_555
O6_6 Co3_3 1_555 1_555
C2_6 C3_6 1_555 1_555
C4_6 C5_6 1_555 1_555
C9_6 C10_6 1_555 1_555
C11_6 C12_6 1_555 1_555
O5_4 C6_4 1_555 1_555
O2_4 C6_4 1_555 1_555
C6_4 C7_4 1_555 1_555
O3_4 C7_4 1_555 1_555
C7_4 O6_4 1_555 1_555
Co3_4 O2_4 1_555 1_555
O3_4 Co3_4 1_555 1_555
O5_6 C6_5 1_555 1_555
O2_5 C6_5 1_555 1_555
C6_5 C7_5 1_555 1_555
O3_5 C7_5 1_555 1_555
C7_5 O6_6 1_555 1_555
Co3_6 O2_5 1_555 1_555
O3_5 Co3_6 1_555 1_555
O5_5 C6_6 1_555 1_555
O2_6 C6_6 1_555 1_555
C6_6 C7_6 1_555 1_555
O3_6 C7_6 1_555 1_555
C7_6 O6_5 1_555 1_555
Co3_7 O2_6 1_555 1_555
O3_6 Co3_7 1_555 1_555
O5_7 Co3_5 1_555 1_555
O6_7 Co3_5 1_555 1_555
N5_3 Co3_5 1_555 1_555
N1_7 Co3_6 1_555 1_555
C1_7 N2_7 1_555 1_555
C2_7 N1_7 1_555 1_555
H1_7 C2_7 1_555 1_555
N2_7 H5_7 1_555 1_555
C3_7 C1_7 1_555 1_555
H2_7 C3_7 1_555 1_555
C4_7 C1_7 1_555 1_555
H3_7 C4_7 1_555 1_555
C5_7 N1_7 1_555 1_555
H4_7 C5_7 1_555 1_555
C2_7 C3_7 1_555 1_555
C4_7 C5_7 1_555 1_555
N3_5 C9_7 1_555 1_555
C8_7 N4_7 1_555 1_555
C9_7 H6_7 1_555 1_555
C10_7 C8_7 1_555 1_555
H7_7 C10_7 1_555 1_555
C11_7 C8_7 1_555 1_555
H8_7 C11_7 1_555 1_555
C12_7 N3_5 1_555 1_555
H9_7 C12_7 1_555 1_555
H10_7 N4_7 1_555 1_555
Co3_4 N3_5 1_555 1_555
C9_7 C10_7 1_555 1_555
C11_7 C12_7 1_555 1_555
N3_6 C9_8 1_555 1_555
C8_8 N4_8 1_555 1_555
C9_8 H6_8 1_555 1_555
C10_8 C8_8 1_555 1_555
H7_8 C10_8 1_555 1_555
C11_8 C8_8 1_555 1_555
H8_8 C11_8 1_555 1_555
C12_8 N3_6 1_555 1_555
H9_8 C12_8 1_555 1_555
H10_8 N4_8 1_555 1_555
Co3_8 N3_6 1_555 1_555
C9_8 C10_8 1_555 1_555
C11_8 C12_8 1_555 1_555
N1_8 Co3_4 1_555 1_555
C1_8 N2_8 1_555 1_555
C2_8 N1_8 1_555 1_555
H1_8 C2_8 1_555 1_555
N2_8 H5_8 1_555 1_555
C3_8 C1_8 1_555 1_555
H2_8 C3_8 1_555 1_555
C4_8 C1_8 1_555 1_555
H3_8 C4_8 1_555 1_555
C5_8 N1_8 1_555 1_555
H4_8 C5_8 1_555 1_555
O5_8 Co3_4 1_555 1_555
O6_8 Co3_4 1_555 1_555
C2_8 C3_8 1_555 1_555
C4_8 C5_8 1_555 1_555
N1_9 Co3_7 1_555 1_555
C1_9 N2_9 1_555 1_555
C2_9 N1_9 1_555 1_555
H1_9 C2_9 1_555 1_555
N2_9 H5_9 1_555 1_555
C3_9 C1_9 1_555 1_555
H2_9 C3_9 1_555 1_555
C4_9 C1_9 1_555 1_555
H3_9 C4_9 1_555 1_555
C5_9 N1_9 1_555 1_555
H4_9 C5_9 1_555 1_555
N5_3 C9_9 1_555 1_555
C8_9 N4_9 1_555 1_555
C9_9 H6_9 1_555 1_555
N4_9 N2_9 1_555 1_555
C10_9 C8_9 1_555 1_555
H7_9 C10_9 1_555 1_555
C11_9 C8_9 1_555 1_555
H8_9 C11_9 1_555 1_555
C12_9 N5_3 1_555 1_555
H9_9 C12_9 1_555 1_555
H10_9 N4_9 1_555 1_555
C2_9 C3_9 1_555 1_555
C4_9 C5_9 1_555 1_555
C9_9 C10_9 1_555 1_555
C11_9 C12_9 1_555 1_555
O5_9 Co3_8 1_555 1_555
O6_9 Co3_8 1_555 1_555
O5_7 C6_7 1_555 1_555
C6_7 C7_7 1_555 1_555
O5_3 C7_7 1_555 1_555
C7_7 O6_7 1_555 1_555
O5_9 C6_8 1_555 1_555
C6_8 C7_8 1_555 1_555
O5 C7_8 1_555 1_555
C7_8 O6_9 1_555 1_555
O5_8 C6_9 1_555 1_555
C6_9 C7_9 1_555 1_555
O5_2 C7_9 1_555 1_555
C7_9 O6_8 1_555 1_555
H1_10 C2_10 1_555 1_555
H2_10 C3_10 1_555 1_555
C2_10 C3_10 1_555 1_555
Co1_2 O1_4 1_555 1_555
O1_4 C6_10 1_555 1_555
O2_7 C6_10 1_555 1_555
N1_10 Co1_2 1_555 1_555
C1_10 N2_10 1_555 1_555
C4_10 C1_10 1_555 1_555
H3_10 C4_10 1_555 1_555
C5_10 N1_10 1_555 1_555
H4_10 C5_10 1_555 1_555
N3_7 C9_10 1_555 1_555
C8_10 N4_10 1_555 1_555
C9_10 H6_10 1_555 1_555
N4_10 N2_10 1_555 1_555
C10_10 C8_10 1_555 1_555
H7_10 C10_10 1_555 1_555
C11_10 C8_10 1_555 1_555
C12_10 N3_7 1_555 1_555
H10_10 N4_10 1_555 1_555
Co2_3 N3_7 1_555 1_555
O6_10 Co1_2 1_555 1_555
N5_4 Co1_2 1_555 1_555
C4_10 C5_10 1_555 1_555
C9_10 C10_10 1_555 1_555
C11_10 C12_10 1_555 1_555
O3_7 C7_10 1_555 1_555
C7_10 O4_4 1_555 1_555
O3_7 Co3_9 1_555 1_555
H1_11 C2_11 1_555 1_555
H2_11 C3_11 1_555 1_555
C2_11 C3_11 1_555 1_555
Co2_3 O1_5 1_555 1_555
O1_5 C6_11 1_555 1_555
O2_8 C6_11 1_555 1_555
N1_11 Co2_3 1_555 1_555
C1_11 N2_11 1_555 1_555
C4_11 C1_11 1_555 1_555
H3_11 C4_11 1_555 1_555
C5_11 N1_11 1_555 1_555
H4_11 C5_11 1_555 1_555
C6_11 C7_11 1_555 1_555
O3_8 C7_11 1_555 1_555
O4_5 Co2_3 1_555 1_555
C7_11 O4_5 1_555 1_555
N3_8 C9_11 1_555 1_555
C8_11 N4_11 1_555 1_555
C9_11 H6_11 1_555 1_555
N4_11 N2_11 1_555 1_555
C10_11 C8_11 1_555 1_555
H7_11 C10_11 1_555 1_555
C11_11 C8_11 1_555 1_555
C12_11 N3_8 1_555 1_555
H10_11 N4_11 1_555 1_555
Co2_4 N3_8 1_555 1_555
Co3_10 O2_8 1_555 1_555
O6_11 Co2_3 1_555 1_555
C4_11 C5_11 1_555 1_555
O3_8 Co3_10 1_555 1_555
C9_11 C10_11 1_555 1_555
C11_11 C12_11 1_555 1_555
O3_9 C7_12 1_555 1_555
C7_12 O4_6 1_555 1_555
O3_9 Co3_11 1_555 1_555
H1_12 C2_12 1_555 1_555
H2_12 C3_12 1_555 1_555
C2_12 C3_12 1_555 1_555
Co2_4 O1_6 1_555 1_555
O1_6 C6_12 1_555 1_555
O2_9 C6_12 1_555 1_555
N1_12 Co2_4 1_555 1_555
C1_12 N2_12 1_555 1_555
C4_12 C1_12 1_555 1_555
H3_12 C4_12 1_555 1_555
C5_12 N1_12 1_555 1_555
H4_12 C5_12 1_555 1_555
N5_4 C9_12 1_555 1_555
C8_12 N4_12 1_555 1_555
C9_12 H6_12 1_555 1_555
N4_12 N2_12 1_555 1_555
C10_12 C8_12 1_555 1_555
H7_12 C10_12 1_555 1_555
C11_12 C8_12 1_555 1_555
C12_12 N5_4 1_555 1_555
H10_12 N4_12 1_555 1_555
O6_12 Co2_4 1_555 1_555
C4_12 C5_12 1_555 1_555
C9_12 C10_12 1_555 1_555
C11_12 C12_12 1_555 1_555
N1_13 Co3_10 1_555 1_555
C1_13 N2_13 1_555 1_555
C2_13 N1_13 1_555 1_555
H1_13 C2_13 1_555 1_555
N2_13 H5_13 1_555 1_555
C3_13 C1_13 1_555 1_555
H2_13 C3_13 1_555 1_555
C4_13 C1_13 1_555 1_555
H3_13 C4_13 1_555 1_555
C5_13 N1_13 1_555 1_555
H4_13 C5_13 1_555 1_555
N3_9 C9_13 1_555 1_555
C8_13 N4_13 1_555 1_555
C9_13 H6_13 1_555 1_555
N4_13 N2_13 1_555 1_555
C10_13 C8_13 1_555 1_555
H7_13 C10_13 1_555 1_555
C11_13 C8_13 1_555 1_555
H8_13 C11_13 1_555 1_555
C12_13 N3_9 1_555 1_555
H9_13 C12_13 1_555 1_555
H10_13 N4_13 1_555 1_555
Co3_9 N3_9 1_555 1_555
O5_13 Co3_10 1_555 1_555
O6_13 Co3_10 1_555 1_555
N5_5 Co3_10 1_555 1_555
C2_13 C3_13 1_555 1_555
C4_13 C5_13 1_555 1_555
C9_13 C10_13 1_555 1_555
C11_13 C12_13 1_555 1_555
N1_14 Co3_9 1_555 1_555
C1_14 N2_14 1_555 1_555
C2_14 N1_14 1_555 1_555
H1_14 C2_14 1_555 1_555
N2_14 H5_14 1_555 1_555
C3_14 C1_14 1_555 1_555
H2_14 C3_14 1_555 1_555
C4_14 C1_14 1_555 1_555
H3_14 C4_14 1_555 1_555
C5_14 N1_14 1_555 1_555
H4_14 C5_14 1_555 1_555
N3_10 C9_14 1_555 1_555
C8_14 N4_14 1_555 1_555
C9_14 H6_14 1_555 1_555
N4_14 N2_14 1_555 1_555
C10_14 C8_14 1_555 1_555
H7_14 C10_14 1_555 1_555
C11_14 C8_14 1_555 1_555
H8_14 C11_14 1_555 1_555
C12_14 N3_10 1_555 1_555
H9_14 C12_14 1_555 1_555
H10_14 N4_14 1_555 1_555
Co3_11 N3_10 1_555 1_555
O5_14 Co3_9 1_555 1_555
O6_14 Co3_9 1_555 1_555
C2_14 C3_14 1_555 1_555
C4_14 C5_14 1_555 1_555
C9_14 C10_14 1_555 1_555
C11_14 C12_14 1_555 1_555
N1_15 Co3_11 1_555 1_555
C1_15 N2_15 1_555 1_555
C2_15 N1_15 1_555 1_555
H1_15 C2_15 1_555 1_555
N2_15 H5_15 1_555 1_555
C3_15 C1_15 1_555 1_555
H2_15 C3_15 1_555 1_555
C4_15 C1_15 1_555 1_555
H3_15 C4_15 1_555 1_555
C5_15 N1_15 1_555 1_555
H4_15 C5_15 1_555 1_555
N5_5 C9_15 1_555 1_555
C8_15 N4_15 1_555 1_555
C9_15 H6_15 1_555 1_555
N4_15 N2_15 1_555 1_555
C10_15 C8_15 1_555 1_555
H7_15 C10_15 1_555 1_555
C11_15 C8_15 1_555 1_555
H8_15 C11_15 1_555 1_555
C12_15 N5_5 1_555 1_555
H9_15 C12_15 1_555 1_555
H10_15 N4_15 1_555 1_555
O5_15 Co3_11 1_555 1_555
O6_15 Co3_11 1_555 1_555
C2_15 C3_15 1_555 1_555
C4_15 C5_15 1_555 1_555
C9_15 C10_15 1_555 1_555
C11_15 C12_15 1_555 1_555
O5_13 C6_13 1_555 1_555
O2_10 C6_13 1_555 1_555
C6_13 C7_13 1_555 1_555
O3_10 C7_13 1_555 1_555
C7_13 O6_13 1_555 1_555
Co3_12 O2_10 1_555 1_555
O3_10 Co3_12 1_555 1_555
O5_15 C6_14 1_555 1_555
O2_11 C6_14 1_555 1_555
C6_14 C7_14 1_555 1_555
O3_11 C7_14 1_555 1_555
C7_14 O6_15 1_555 1_555
Co3_13 O2_11 1_555 1_555
O3_11 Co3_13 1_555 1_555
O5_14 C6_15 1_555 1_555
O2_12 C6_15 1_555 1_555
C6_15 C7_15 1_555 1_555
O3_12 C7_15 1_555 1_555
C7_15 O6_14 1_555 1_555
Co3_16 O2_12 1_555 1_555
O3_12 Co3_16 1_555 1_555
N3_11 C9_16 1_555 1_555
C8_16 N4_16 1_555 1_555
C9_16 H6_16 1_555 1_555
C10_16 C8_16 1_555 1_555
H7_16 C10_16 1_555 1_555
C11_16 C8_16 1_555 1_555
H8_16 C11_16 1_555 1_555
C12_16 N3_11 1_555 1_555
H9_16 C12_16 1_555 1_555
H10_16 N4_16 1_555 1_555
Co3_12 N3_11 1_555 1_555
C9_16 C10_16 1_555 1_555
C11_16 C12_16 1_555 1_555
N1_16 Co3_13 1_555 1_555
C1_16 N2_16 1_555 1_555
C2_16 N1_16 1_555 1_555
H1_16 C2_16 1_555 1_555
N2_16 H5_16 1_555 1_555
C3_16 C1_16 1_555 1_555
H2_16 C3_16 1_555 1_555
C4_16 C1_16 1_555 1_555
H3_16 C4_16 1_555 1_555
C5_16 N1_16 1_555 1_555
H4_16 C5_16 1_555 1_555
C2_16 C3_16 1_555 1_555
C4_16 C5_16 1_555 1_555
O5_16 Co3_14 1_555 1_555
O6_16 Co3_14 1_555 1_555
N5_6 Co3_14 1_555 1_555
N1_17 Co3_12 1_555 1_555
C1_17 N2_17 1_555 1_555
C2_17 N1_17 1_555 1_555
H1_17 C2_17 1_555 1_555
N2_17 H5_17 1_555 1_555
C3_17 C1_17 1_555 1_555
H2_17 C3_17 1_555 1_555
C4_17 C1_17 1_555 1_555
H3_17 C4_17 1_555 1_555
C5_17 N1_17 1_555 1_555
H4_17 C5_17 1_555 1_555
O5_17 Co3_12 1_555 1_555
O6_17 Co3_12 1_555 1_555
C2_17 C3_17 1_555 1_555
C4_17 C5_17 1_555 1_555
N3_12 C9_17 1_555 1_555
C8_17 N4_17 1_555 1_555
C9_17 H6_17 1_555 1_555
C10_17 C8_17 1_555 1_555
H7_17 C10_17 1_555 1_555
C11_17 C8_17 1_555 1_555
H8_17 C11_17 1_555 1_555
C12_17 N3_12 1_555 1_555
H9_17 C12_17 1_555 1_555
H10_17 N4_17 1_555 1_555
Co3_15 N3_12 1_555 1_555
C9_17 C10_17 1_555 1_555
C11_17 C12_17 1_555 1_555
O5_18 Co3_15 1_555 1_555
O6_18 Co3_15 1_555 1_555
N1_18 Co3_16 1_555 1_555
C1_18 N2_18 1_555 1_555
C2_18 N1_18 1_555 1_555
H1_18 C2_18 1_555 1_555
N2_18 H5_18 1_555 1_555
C3_18 C1_18 1_555 1_555
H2_18 C3_18 1_555 1_555
C4_18 C1_18 1_555 1_555
H3_18 C4_18 1_555 1_555
C5_18 N1_18 1_555 1_555
H4_18 C5_18 1_555 1_555
N5_6 C9_18 1_555 1_555
C8_18 N4_18 1_555 1_555
C9_18 H6_18 1_555 1_555
N4_18 N2_18 1_555 1_555
C10_18 C8_18 1_555 1_555
H7_18 C10_18 1_555 1_555
C11_18 C8_18 1_555 1_555
H8_18 C11_18 1_555 1_555
C12_18 N5_6 1_555 1_555
H9_18 C12_18 1_555 1_555
H10_18 N4_18 1_555 1_555
C2_18 C3_18 1_555 1_555
C4_18 C5_18 1_555 1_555
C9_18 C10_18 1_555 1_555
C11_18 C12_18 1_555 1_555
O5_16 C6_16 1_555 1_555
C6_16 C7_16 1_555 1_555
O5_12 C7_16 1_555 1_555
C7_16 O6_16 1_555 1_555
O5_18 C6_17 1_555 1_555
C6_17 C7_17 1_555 1_555
O5_10 C7_17 1_555 1_555
C7_17 O6_18 1_555 1_555
O5_17 C6_18 1_555 1_555
C6_18 C7_18 1_555 1_555
O5_11 C7_18 1_555 1_555
C7_18 O6_17 1_555 1_555

#END
