
###############################################################################
#
# This file contains modified crystal structure data generated from the
# MOF subset of the Cambridge Structural Database (CSD) v543 
# hosted by the Cambridge Crystallographic Data Centre (CCDC).
#
# This work is licensed under the Creative Commons
# Attribution-NonCommercial-ShareAlike 4.0 International License.
# To view a copy of this license, visit
# http://creativecommons.org/licenses/by-nc-sa/4.0/
# or send a letter to
# Creative Commons, PO Box 1866, Mountain View, CA 94042, USA.
#
# CIF created using the CSD Python API on 29 September 2022
# The structure has been converted into the P1 space group
# The structure has a 3D framework
# The original CSD entry GELQUM is in the rhombohedral crystal system
# The framework has been calculated to contain at least 10.0% void space
# The void calculation uses a probe of radius 1.32A, grid spacing 0.4
#
###############################################################################

data_GELQUM
_chemical_formula_moiety         '(C216 H180 Co18 N72 O72)n'
_symmetry_cell_setting           triclinic
_symmetry_space_group_name_H-M   'P 1'
_symmetry_Int_Tables_number      1
_space_group_name_Hall           'P 1'
loop_
_symmetry_equiv_pos_site_id
_symmetry_equiv_pos_as_xyz
1 x,y,z
_cell_length_a                   28.4177(9)
_cell_length_b                   28.4177(9)
_cell_length_c                   11.0446(4)
_cell_angle_alpha                90
_cell_angle_beta                 90
_cell_angle_gamma                120
_cell_volume                     7724.29
loop_
_atom_site_label
_atom_site_type_symbol
_atom_site_fract_x
_atom_site_fract_y
_atom_site_fract_z
Co1 Co 0.58526(3) 0.6667 0.4167
O1 O 0.67114(9) 0.72265(10) 0.4268(2)
O2 O 0.73676(9) 0.74694(10) 0.5623(2)
N1 N 0.50448(11) 0.60382(12) 0.4369(3)
N2 N 0.35105(12) 0.46577(14) 0.4657(3)
C1 C 0.68818(13) 0.72624(12) 0.5325(3)
C2 C 0.40139(13) 0.51106(14) 0.4520(3)
C3 C 0.41439(15) 0.54825(18) 0.3602(4)
H1 H 0.3883 0.5429 0.2999
C4 C 0.44134(16) 0.52215(16) 0.5370(4)
H2 H 0.4341 0.4981 0.6031
C5 C 0.49136(15) 0.56779(16) 0.5259(4)
H3 H 0.5182 0.5741 0.5851
C6 C 0.46543(16) 0.59321(18) 0.3567(4)
H4 H 0.4734 0.6184 0.2927
H5 H 0.3466(18) 0.437(2) 0.515(4)
O3 O 0.66219(9) 0.71818(13) 0.7399(2)
O4 O 0.59657(9) 0.67685(13) 0.6044(2)
C7 C 0.64515(13) 0.70473(18) 0.6342(3)
N3 N 0.16219(11) 0.43267(16) 0.3964(3)
N4 N 0.31562(12) 0.44805(18) 0.3676(3)
C8 C 0.26528(13) 0.44300(19) 0.3813(3)
C9 C 0.25228(15) 0.46719(23) 0.4731(4)
H6 H 0.2784 0.4879 0.5334
C10 C 0.22533(16) 0.41414(23) 0.2963(4)
H7 H 0.2326 0.3973 0.2302
C11 C 0.17531(15) 0.40976(22) 0.3074(4)
H8 H 0.1485 0.3892 0.2482
C12 C 0.20124(16) 0.46111(24) 0.4766(4)
H9 H 0.1933 0.4783 0.5406
H10 H 0.3201(18) 0.4237(27) 0.318(4)
Co2 Co 0.08144(3) 0.41474(3) 0.4167
Co3 Co 0.74811(3) 0.74807(3) 0.7500
O5 O 0.61516(13) 0.61068(10) 0.4065(2)
O6 O 0.58639(10) 0.65649(13) 0.2290(2)
N5 N 0.56733(16) 0.72951(12) 0.3964(3)
Co3_2 Co 0.25193(3) 0.00003(4) 0.7500
O5_2 O 0.38932(10) 0.00447(16) 0.4065(2)
Co1_2 Co 0.3333 0.91856(3) 0.4167
O1_2 O 0.27735(10) 0.94849(13) 0.4268(2)
O2_2 O 0.25306(10) 0.98982(13) 0.5623(2)
N1_2 N 0.39618(12) 0.90066(16) 0.4369(3)
N2_2 N 0.53423(14) 0.88528(18) 0.4657(3)
C1_2 C 0.27376(12) 0.96194(18) 0.5325(3)
C2_2 C 0.48894(14) 0.89033(19) 0.4520(3)
C3_2 C 0.45175(18) 0.86614(23) 0.3602(4)
H1_2 H 0.4571 0.8454 0.2999
C4_2 C 0.47785(16) 0.91919(23) 0.5370(4)
H2_2 H 0.5019 0.9360 0.6031
C5_2 C 0.43221(16) 0.92357(22) 0.5259(4)
H3_2 H 0.4259 0.9441 0.5851
C6_2 C 0.40679(18) 0.87222(24) 0.3567(4)
H4_2 H 0.3816 0.8550 0.2927
H5_2 H 0.563(2) 0.9096(27) 0.515(4)
O3_2 O 0.28182(13) 0.94402(16) 0.7399(2)
O4_2 O 0.32315(13) 0.91973(16) 0.6044(2)
C7_2 C 0.29527(18) 0.94043(22) 0.6342(3)
N4_2 N 0.55195(18) 0.86756(22) 0.3676(3)
C8_2 C 0.55700(19) 0.82227(23) 0.3813(3)
C9_2 C 0.53281(23) 0.78508(27) 0.4731(4)
H6_2 H 0.5121 0.7904 0.5334
C10_2 C 0.58586(23) 0.81118(28) 0.2963(4)
H7_2 H 0.6027 0.8352 0.2302
C11_2 C 0.59024(22) 0.76554(27) 0.3074(4)
H8_2 H 0.6108 0.7592 0.2482
C12_2 C 0.53889(24) 0.74012(29) 0.4766(4)
H9_2 H 0.5217 0.7149 0.5406
H10_2 H 0.5763(27) 0.8963(32) 0.318(4)
Co3_3 Co 0.25193(3) 1.00003(4) 0.7500
O6_2 O 0.34351(13) 0.92991(16) 0.2290(2)
N5_2 N 0.27049(12) 0.83781(20) 0.3964(3)
O1_3 O 0.05151(13) 0.32886(9) 0.4268(2)
O2_3 O 0.01018(13) 0.26324(9) 0.5623(2)
N1_3 N 0.09934(16) 0.49552(11) 0.4369(3)
N2_3 N 0.11472(18) 0.64895(12) 0.4657(3)
C1_3 C 0.03806(18) 0.31182(13) 0.5325(3)
C2_3 C 0.10967(19) 0.59861(13) 0.4520(3)
C3_3 C 0.13386(23) 0.58561(15) 0.3602(4)
H1_3 H 0.1546 0.6117 0.2999
C4_3 C 0.08081(23) 0.55866(16) 0.5370(4)
H2_3 H 0.0640 0.5659 0.6031
C5_3 C 0.07643(22) 0.50864(15) 0.5259(4)
H3_3 H 0.0559 0.4818 0.5851
C6_3 C 0.12778(24) 0.53457(16) 0.3567(4)
H4_3 H 0.1450 0.5266 0.2927
H5_3 H 0.0904(27) 0.6534(18) 0.515(4)
O3_3 O 0.05598(16) 0.33781(9) 0.7399(2)
O4_3 O 0.08027(16) 0.40343(9) 0.6044(2)
C7_3 C 0.05957(22) 0.35485(13) 0.6342(3)
N4_3 N 0.13244(22) 0.68438(12) 0.3676(3)
C8_3 C 0.17773(23) 0.73472(13) 0.3813(3)
C9_3 C 0.21492(27) 0.74772(15) 0.4731(4)
H6_3 H 0.2096 0.7216 0.5334
C10_3 C 0.18882(28) 0.77467(16) 0.2963(4)
H7_3 H 0.1648 0.7674 0.2302
C11_3 C 0.23446(27) 0.82469(15) 0.3074(4)
H8_3 H 0.2408 0.8515 0.2482
C12_3 C 0.25988(29) 0.79876(16) 0.4766(4)
H9_3 H 0.2851 0.8067 0.5406
H10_3 H 0.1037(32) 0.6799(18) 0.318(4)
Co3_4 Co -0.00003(4) 0.25189(3) 0.7500
O6_3 O 0.07009(16) 0.41361(10) 0.2290(2)
Co3_5 Co 0.99997(4) 0.25189(3) 0.7500
O5_3 O 0.99553(16) 0.38484(13) 0.4065(2)
O5_4 O 0.00447(16) 0.38932(10) 0.0935(2)
Co1_3 Co 0.91856(3) 0.3333 0.0833
O1_4 O 0.94849(13) 0.27735(10) 0.0732(2)
N1_4 N 0.90066(16) 0.39618(12) 0.0631(3)
N2_4 N 0.88528(18) 0.53423(14) 0.0343(3)
C2_4 C 0.89033(19) 0.48894(14) 0.0480(3)
C3_4 C 0.86614(23) 0.45175(18) 0.1398(4)
H1_4 H 0.8454 0.4571 0.2001
C6_4 C 0.87222(24) 0.40679(18) 0.1433(4)
H4_4 H 0.8550 0.3816 0.2073
N3_2 N 0.72951(19) 0.56733(16) 0.1036(3)
N4_4 N 0.86756(22) 0.55195(18) 0.1324(3)
C8_4 C 0.82227(23) 0.55700(19) 0.1187(3)
C9_4 C 0.78508(27) 0.53281(23) 0.0269(4)
C10_4 C 0.81118(28) 0.58586(23) 0.2037(4)
H7_4 H 0.8352 0.6027 0.2698
C11_4 C 0.76554(27) 0.59024(22) 0.1926(4)
H8_4 H 0.7592 0.6108 0.2518
C12_4 C 0.74012(29) 0.53889(24) 0.0234(4)
H10_4 H 0.8963(32) 0.5763(27) 0.182(4)
Co2_2 Co 0.66670(4) 0.58526(3) 0.0833
O6_4 O 0.92991(16) 0.34351(13) 0.2710(2)
N5_3 N 0.83781(20) 0.27049(12) 0.1036(3)
O2_4 O 0.98982(13) 0.25306(10) 0.9377(2)
C1_4 C 0.96194(18) 0.27376(12) 0.9675(3)
C4_4 C 0.91919(23) 0.47785(16) 0.9630(4)
H2_4 H 0.9360 0.5019 0.8969
C5_4 C 0.92357(22) 0.43221(16) 0.9741(4)
H3_4 H 0.9441 0.4259 0.9149
H5_4 H 0.9096(27) 0.563(2) 0.985(4)
O3_4 O 0.94402(16) 0.28182(13) 0.7601(2)
O4_4 O 0.91973(16) 0.32315(13) 0.8956(2)
C7_4 C 0.94043(22) 0.29527(18) 0.8658(3)
H6_4 H 0.7904 0.5121 0.9666
H9_4 H 0.7149 0.5217 0.9594
Co1_4 Co 0.41474(3) 0.08144(3) 0.0833
O1_5 O 0.32886(9) 0.05151(13) 0.0732(2)
N1_5 N 0.49552(11) 0.09934(16) 0.0631(3)
N2_5 N 0.64895(12) 0.11472(18) 0.0343(3)
C2_5 C 0.59861(13) 0.10967(19) 0.0480(3)
C3_5 C 0.58561(15) 0.13386(23) 0.1398(4)
H1_5 H 0.6117 0.1546 0.2001
C6_5 C 0.53457(16) 0.12778(24) 0.1433(4)
H4_5 H 0.5266 0.1450 0.2073
N4_5 N 0.68438(12) 0.13244(22) 0.1324(3)
C8_5 C 0.73472(13) 0.17773(23) 0.1187(3)
C9_5 C 0.74772(15) 0.21492(27) 0.0269(4)
C10_5 C 0.77467(16) 0.18882(28) 0.2037(4)
H7_5 H 0.7674 0.1648 0.2698
C11_5 C 0.82469(15) 0.23446(27) 0.1926(4)
H8_5 H 0.8515 0.2408 0.2518
C12_5 C 0.79876(16) 0.25988(29) 0.0234(4)
H10_5 H 0.6799(18) 0.1037(32) 0.182(4)
O6_5 O 0.41361(10) 0.07009(16) 0.2710(2)
N5_4 N 0.43267(16) 0.16219(20) 0.1036(3)
O2_5 O 0.26324(9) 0.01018(13) 0.9377(2)
C1_5 C 0.31182(13) 0.03806(18) 0.9675(3)
C4_5 C 0.55866(16) 0.08081(23) 0.9630(4)
H2_5 H 0.5659 0.0640 0.8969
C5_5 C 0.50864(15) 0.07643(22) 0.9741(4)
H3_5 H 0.4818 0.0559 0.9149
H5_5 H 0.6534(18) 0.0904(27) 0.985(4)
O3_5 O 0.33781(9) 0.05598(16) 0.7601(2)
O4_5 O 0.40343(9) 0.08027(16) 0.8956(2)
C7_5 C 0.35485(13) 0.05957(22) 0.8658(3)
H6_5 H 0.7216 0.2096 0.9666
H9_5 H 0.8067 0.2851 0.9594
O5_5 O 0.38484(13) 0.99553(16) 0.0935(2)
O1_6 O 0.72265(10) 0.67114(9) 0.0732(2)
N1_6 N 0.60382(12) 0.50448(11) 0.0631(3)
N2_6 N 0.46577(14) 0.35105(12) 0.0343(3)
C2_6 C 0.51106(14) 0.40139(13) 0.0480(3)
C3_6 C 0.54825(18) 0.41439(15) 0.1398(4)
H1_6 H 0.5429 0.3883 0.2001
C6_6 C 0.59321(18) 0.46543(16) 0.1433(4)
H4_6 H 0.6184 0.4734 0.2073
N4_6 N 0.44805(18) 0.31562(12) 0.1324(3)
C8_6 C 0.44300(19) 0.26528(13) 0.1187(3)
C9_6 C 0.46719(23) 0.25228(15) 0.0269(4)
C10_6 C 0.41414(23) 0.22533(16) 0.2037(4)
H7_6 H 0.3973 0.2326 0.2698
C11_6 C 0.40976(22) 0.17531(15) 0.1926(4)
H8_6 H 0.3892 0.1485 0.2518
C12_6 C 0.46111(24) 0.20124(16) 0.0234(4)
H10_6 H 0.4237(27) 0.3201(18) 0.182(4)
O5_6 O 0.61068(10) 0.61516(13) 0.0935(2)
O6_6 O 0.65649(13) 0.58639(10) 0.2710(2)
O2_6 O 0.74694(10) 0.73676(9) 0.9377(2)
C1_6 C 0.72624(12) 0.68818(13) 0.9675(3)
C4_6 C 0.52215(16) 0.44134(16) 0.9630(4)
H2_6 H 0.4981 0.4341 0.8969
C5_6 C 0.56779(16) 0.49136(15) 0.9741(4)
H3_6 H 0.5741 0.5182 0.9149
H5_6 H 0.437(2) 0.3466(18) 0.985(4)
O3_6 O 0.71818(13) 0.66219(9) 0.7601(2)
O4_6 O 0.67685(13) 0.59657(9) 0.8956(2)
C7_6 C 0.70473(18) 0.64515(13) 0.8658(3)
H6_6 H 0.4879 0.2784 0.9666
H9_6 H 0.4783 0.1933 0.9594
N5_5 N 0.23399(16) 0.06285(12) 0.7298(3)
N1_7 N 0.17115(11) 0.93715(12) 0.7702(3)
N2_7 N 0.01772(12) 0.79910(14) 0.7990(3)
C2_7 C 0.06806(13) 0.84439(14) 0.7853(3)
C3_7 C 0.08106(15) 0.88158(18) 0.6935(4)
H1_7 H 0.0550 0.8762 0.6332
C4_7 C 0.10801(16) 0.85548(16) 0.8703(4)
H2_7 H 0.1008 0.8314 0.9364
C5_7 C 0.15803(15) 0.90112(16) 0.8592(4)
H3_7 H 0.1849 0.9074 0.9184
C6_7 C 0.13210(16) 0.92654(18) 0.6900(4)
H4_7 H 0.1401 0.9517 0.6260
H5_7 H 0.0133(18) 0.770(2) 0.848(4)
N3_3 N 0.82885(11) 0.76601(16) 0.7298(3)
N4_7 N 0.98228(12) 0.78139(18) 0.7010(3)
C8_7 C 0.93194(13) 0.77634(19) 0.7147(3)
C9_7 C 0.91894(15) 0.80053(23) 0.8065(4)
H6_7 H 0.9450 0.8213 0.8668
C10_7 C 0.89199(16) 0.74748(23) 0.6297(4)
H7_7 H 0.8992 0.7307 0.5636
C11_7 C 0.84197(15) 0.74310(22) 0.6408(4)
H8_7 H 0.8151 0.7226 0.5816
C12_7 C 0.86790(16) 0.79445(24) 0.8100(4)
H9_7 H 0.8599 0.8117 0.8740
H10_7 H 0.9867(18) 0.7571(27) 0.652(4)
N1_8 N 0.06285(12) 0.23399(16) 0.7702(3)
N2_8 N 0.20090(14) 0.21861(18) 0.7990(3)
C2_8 C 0.15561(14) 0.22366(19) 0.7853(3)
C3_8 C 0.11842(18) 0.19947(23) 0.6935(4)
H1_8 H 0.1238 0.1787 0.6332
C4_8 C 0.14452(16) 0.25252(23) 0.8703(4)
H2_8 H 0.1686 0.2693 0.9364
C5_8 C 0.09888(16) 0.25690(22) 0.8592(4)
H3_8 H 0.0926 0.2774 0.9184
C6_8 C 0.07346(18) 0.20555(24) 0.6900(4)
H4_8 H 0.0483 0.1883 0.6260
H5_8 H 0.230(2) 0.2429(27) 0.848(4)
N4_8 N 0.21861(18) 0.20090(22) 0.7010(3)
C8_8 C 0.22366(19) 0.15561(23) 0.7147(3)
C9_8 C 0.19947(23) 0.11842(27) 0.8065(4)
H6_8 H 0.1787 0.1238 0.8668
C10_8 C 0.25252(23) 0.14452(28) 0.6297(4)
H7_8 H 0.2693 0.1686 0.5636
C11_8 C 0.25690(22) 0.09888(27) 0.6408(4)
H8_8 H 0.2774 0.0926 0.5816
C12_8 C 0.20555(24) 0.07346(29) 0.8100(4)
H9_8 H 0.1883 0.0483 0.8740
H10_8 H 0.2429(27) 0.2297(32) 0.652(4)
N5_6 N 0.93715(12) 0.17115(20) 0.7298(3)
N4_9 N 0.79910(22) 0.01772(12) 0.7010(3)
C8_9 C 0.84439(23) 0.06806(13) 0.7147(3)
C9_9 C 0.88158(27) 0.08106(15) 0.8065(4)
H6_9 H 0.8762 0.0550 0.8668
C10_9 C 0.85548(28) 0.10801(16) 0.6297(4)
H7_9 H 0.8314 0.1008 0.5636
C11_9 C 0.90112(27) 0.15803(15) 0.6408(4)
H8_9 H 0.9074 0.1849 0.5816
C12_9 C 0.92654(29) 0.13210(16) 0.8100(4)
H9_9 H 0.9517 0.1401 0.8740
H10_9 H 0.7703(32) 0.0133(18) 0.652(4)
N1_9 N 0.76601(16) 0.82885(11) 0.7702(3)
N2_9 N 0.78139(18) 0.98228(12) 0.7990(3)
C2_9 C 0.77634(19) 0.93194(13) 0.7853(3)
C3_9 C 0.80053(23) 0.91894(15) 0.6935(4)
H1_9 H 0.8213 0.9450 0.6332
C4_9 C 0.74748(23) 0.89199(16) 0.8703(4)
H2_9 H 0.7307 0.8992 0.9364
C5_9 C 0.74310(22) 0.84197(15) 0.8592(4)
H3_9 H 0.7226 0.8151 0.9184
C6_9 C 0.79445(24) 0.86790(16) 0.6900(4)
H4_9 H 0.8117 0.8599 0.6260
H5_9 H 0.7571(27) 0.9867(18) 0.848(4)
C1_7 C 0.62861(18) 0.60709(12) 0.3008(3)
C7_7 C 0.60709(22) 0.62861(18) 0.1992(3)
C7_8 C 0.02151(13) 0.39291(22) 0.1992(3)
C1_8 C 0.97849(13) 0.37139(18) 0.3008(3)
C1_9 C 0.39291(12) 0.02151(13) 0.3008(3)
C7_9 C 0.37139(18) 0.97849(13) 0.1992(3)
Co1_5 Co 0.41474(3) 0.3333 0.5833
O1_7 O 0.32886(9) 0.27735(10) 0.5732(2)
O2_7 O 0.26324(9) 0.25306(10) 0.4377(2)
N1_10 N 0.49552(11) 0.39618(12) 0.5631(3)
N2_10 N 0.64895(12) 0.53423(14) 0.5343(3)
C1_10 C 0.31182(13) 0.27376(12) 0.4675(3)
C2_10 C 0.59861(13) 0.48894(14) 0.5480(3)
C3_10 C 0.58561(15) 0.45175(18) 0.6398(4)
H1_10 H 0.6117 0.4571 0.7001
C4_10 C 0.55866(16) 0.47785(16) 0.4630(4)
H2_10 H 0.5659 0.5019 0.3969
C5_10 C 0.50864(15) 0.43221(16) 0.4741(4)
H3_10 H 0.4818 0.4259 0.4149
C6_10 C 0.53457(16) 0.40679(18) 0.6433(4)
H4_10 H 0.5266 0.3816 0.7073
H5_10 H 0.6534(18) 0.563(2) 0.485(4)
O3_7 O 0.33781(9) 0.28182(13) 0.2601(2)
O4_7 O 0.40343(9) 0.32315(13) 0.3956(2)
C7_10 C 0.35485(13) 0.29527(18) 0.3658(3)
N3_4 N 0.83781(11) 0.56733(16) 0.6036(3)
N4_10 N 0.68438(12) 0.55195(18) 0.6324(3)
C8_10 C 0.73472(13) 0.55700(19) 0.6187(3)
C9_10 C 0.74772(15) 0.53281(23) 0.5269(4)
H6_10 H 0.7216 0.5121 0.4666
C10_10 C 0.77467(16) 0.58586(23) 0.7037(4)
H7_10 H 0.7674 0.6027 0.7698
C11_10 C 0.82469(15) 0.59024(22) 0.6926(4)
H8_10 H 0.8515 0.6108 0.7518
C12_10 C 0.79876(16) 0.53889(24) 0.5234(4)
H9_10 H 0.8067 0.5217 0.4594
H10_10 H 0.6799(18) 0.5763(27) 0.682(4)
Co2_3 Co 0.91856(3) 0.58526(3) 0.5833
Co3_6 Co 0.25189(3) 0.25193(3) 0.2500
O5_7 O 0.38484(13) 0.38932(10) 0.5935(2)
O6_7 O 0.41361(10) 0.34351(13) 0.7710(2)
N5_7 N 0.43267(16) 0.27049(12) 0.6036(3)
Co1_6 Co 0.6667 0.08144(3) 0.5833
O1_8 O 0.72265(10) 0.05151(13) 0.5732(2)
O2_8 O 0.74694(10) 0.01018(13) 0.4377(2)
N1_11 N 0.60382(12) 0.09934(16) 0.5631(3)
N2_11 N 0.46577(14) 0.11472(18) 0.5343(3)
C1_11 C 0.72624(12) 0.03806(18) 0.4675(3)
C2_11 C 0.51106(14) 0.10967(19) 0.5480(3)
C3_11 C 0.54825(18) 0.13386(23) 0.6398(4)
H1_11 H 0.5429 0.1546 0.7001
C4_11 C 0.52215(16) 0.08081(23) 0.4630(4)
H2_11 H 0.4981 0.0640 0.3969
C5_11 C 0.56779(16) 0.07643(22) 0.4741(4)
H3_11 H 0.5741 0.0559 0.4149
C6_11 C 0.59321(18) 0.12778(24) 0.6433(4)
H4_11 H 0.6184 0.1450 0.7073
H5_11 H 0.437(2) 0.0904(27) 0.485(4)
O3_8 O 0.71818(13) 0.05598(16) 0.2601(2)
O4_8 O 0.67685(13) 0.08027(16) 0.3956(2)
C7_11 C 0.70473(18) 0.05957(22) 0.3658(3)
N4_11 N 0.44805(18) 0.13244(22) 0.6324(3)
C8_11 C 0.44300(19) 0.17773(23) 0.6187(3)
C9_11 C 0.46719(23) 0.21492(27) 0.5269(4)
H6_11 H 0.4879 0.2096 0.4666
C10_11 C 0.41414(23) 0.18882(28) 0.7037(4)
H7_11 H 0.3973 0.1648 0.7698
C11_11 C 0.40976(22) 0.23446(27) 0.6926(4)
H8_11 H 0.3892 0.2408 0.7518
C12_11 C 0.46111(24) 0.25988(29) 0.5234(4)
H9_11 H 0.4783 0.2851 0.4594
H10_11 H 0.4237(27) 0.1037(32) 0.682(4)
Co3_7 Co 0.74807(3) -0.00003(4) 0.2500
O6_8 O 0.65649(13) 0.07009(16) 0.7710(2)
N5_8 N 0.72951(12) 0.16219(20) 0.6036(3)
Co3_8 Co 0.74807(3) 0.99997(4) 0.2500
O5_8 O 0.61068(10) 0.99553(16) 0.5935(2)
Co3_9 Co 0.00003(4) 0.74811(3) 0.2500
O5_9 O 0.00447(16) 0.61516(13) 0.5935(2)
O1_9 O 0.94849(13) 0.67114(9) 0.5732(2)
O2_9 O 0.98982(13) 0.73676(9) 0.4377(2)
N1_12 N 0.90066(16) 0.50448(11) 0.5631(3)
N2_12 N 0.88528(18) 0.35105(12) 0.5343(3)
C1_12 C 0.96194(18) 0.68818(13) 0.4675(3)
C2_12 C 0.89033(19) 0.40139(13) 0.5480(3)
C3_12 C 0.86614(23) 0.41439(15) 0.6398(4)
H1_12 H 0.8454 0.3883 0.7001
C4_12 C 0.91919(23) 0.44134(16) 0.4630(4)
H2_12 H 0.9360 0.4341 0.3969
C5_12 C 0.92357(22) 0.49136(15) 0.4741(4)
H3_12 H 0.9441 0.5182 0.4149
C6_12 C 0.87222(24) 0.46543(16) 0.6433(4)
H4_12 H 0.8550 0.4734 0.7073
H5_12 H 0.9096(27) 0.3466(18) 0.485(4)
O3_9 O 0.94402(16) 0.66219(9) 0.2601(2)
O4_9 O 0.91973(16) 0.59657(9) 0.3956(2)
C7_12 C 0.94043(22) 0.64515(13) 0.3658(3)
N4_12 N 0.86756(22) 0.31562(12) 0.6324(3)
C8_12 C 0.82227(23) 0.26528(13) 0.6187(3)
C9_12 C 0.78508(27) 0.25228(15) 0.5269(4)
H6_12 H 0.7904 0.2784 0.4666
C10_12 C 0.81118(28) 0.22533(16) 0.7037(4)
H7_12 H 0.8352 0.2326 0.7698
C11_12 C 0.76554(27) 0.17531(15) 0.6926(4)
H8_12 H 0.7592 0.1485 0.7518
C12_12 C 0.74012(29) 0.20124(16) 0.5234(4)
H9_12 H 0.7149 0.1933 0.4594
H10_12 H 0.8963(32) 0.3201(18) 0.682(4)
Co3_10 Co 1.00003(4) 0.74811(3) 0.2500
O6_9 O 0.92991(16) 0.58639(10) 0.7710(2)
O2_10 O 0.01018(13) 0.74694(10) 0.0623(2)
C1_13 C 0.03806(18) 0.72624(12) 0.0325(3)
C4_13 C 0.08081(23) 0.52215(16) 0.0370(4)
H2_13 H 0.0640 0.4981 0.1031
C5_13 C 0.07643(22) 0.56779(16) 0.0259(4)
H3_13 H 0.0559 0.5741 0.0851
H5_13 H 0.0904(27) 0.437(2) 0.015(4)
O3_10 O 0.05598(16) 0.71818(13) 0.2399(2)
O4_10 O 0.08027(16) 0.67685(13) 0.1044(2)
C7_13 C 0.05957(22) 0.70473(18) 0.1342(3)
H6_13 H 0.2096 0.4879 0.0334
H9_13 H 0.2851 0.4783 0.0406
Co1_7 Co 0.08144(3) 0.6667 0.9167
O1_10 O 0.05151(13) 0.72265(10) 0.9268(2)
N1_13 N 0.09934(16) 0.60382(12) 0.9369(3)
N2_13 N 0.11472(18) 0.46577(14) 0.9657(3)
C2_13 C 0.10967(19) 0.51106(14) 0.9520(3)
C3_13 C 0.13386(23) 0.54825(18) 0.8602(4)
H1_13 H 0.1546 0.5429 0.7999
C6_13 C 0.12778(24) 0.59321(18) 0.8567(4)
H4_13 H 0.1450 0.6184 0.7927
N3_5 N 0.27049(19) 0.43267(16) 0.8964(3)
N4_13 N 0.13244(22) 0.44805(18) 0.8676(3)
C8_13 C 0.17773(23) 0.44300(19) 0.8813(3)
C9_13 C 0.21492(27) 0.46719(23) 0.9731(4)
C10_13 C 0.18882(28) 0.41414(23) 0.7963(4)
H7_13 H 0.1648 0.3973 0.7302
C11_13 C 0.23446(27) 0.40976(22) 0.8074(4)
H8_13 H 0.2408 0.3892 0.7482
C12_13 C 0.25988(29) 0.46111(24) 0.9766(4)
H10_13 H 0.1037(32) 0.4237(27) 0.818(4)
Co2_4 Co 0.33330(4) 0.41474(3) 0.9167
O6_10 O 0.07009(16) 0.65649(13) 0.7290(2)
N5_9 N 0.16219(20) 0.72951(12) 0.8964(3)
O5_10 O 0.99553(16) 0.61068(10) 0.9065(2)
O5_11 O 0.61516(13) 0.00447(16) 0.9065(2)
O2_11 O 0.73676(9) 0.98982(13) 0.0623(2)
C1_14 C 0.68818(13) 0.96194(18) 0.0325(3)
C4_14 C 0.44134(16) 0.91919(23) 0.0370(4)
H2_14 H 0.4341 0.9360 0.1031
C5_14 C 0.49136(15) 0.92357(22) 0.0259(4)
H3_14 H 0.5182 0.9441 0.0851
H5_14 H 0.3466(18) 0.9096(27) 0.015(4)
O3_11 O 0.66219(9) 0.94402(16) 0.2399(2)
O4_11 O 0.59657(9) 0.91973(16) 0.1044(2)
C7_14 C 0.64515(13) 0.94043(22) 0.1342(3)
H6_14 H 0.2784 0.7904 0.0334
H9_14 H 0.1933 0.7149 0.0406
Co1_8 Co 0.58526(3) 0.91856(3) 0.9167
O1_11 O 0.67114(9) 0.94849(13) 0.9268(2)
N1_14 N 0.50448(11) 0.90066(16) 0.9369(3)
N2_14 N 0.35105(12) 0.88528(18) 0.9657(3)
C2_14 C 0.40139(13) 0.89033(19) 0.9520(3)
C3_14 C 0.41439(15) 0.86614(23) 0.8602(4)
H1_14 H 0.3883 0.8454 0.7999
C6_14 C 0.46543(16) 0.87222(24) 0.8567(4)
H4_14 H 0.4734 0.8550 0.7927
N4_14 N 0.31562(12) 0.86756(22) 0.8676(3)
C8_14 C 0.26528(13) 0.82227(23) 0.8813(3)
C9_14 C 0.25228(15) 0.78508(27) 0.9731(4)
C10_14 C 0.22533(16) 0.81118(28) 0.7963(4)
H7_14 H 0.2326 0.8352 0.7302
C11_14 C 0.17531(15) 0.76554(27) 0.8074(4)
H8_14 H 0.1485 0.7592 0.7482
C12_14 C 0.20124(16) 0.74012(29) 0.9766(4)
H10_14 H 0.3201(18) 0.8963(32) 0.818(4)
O6_11 O 0.58639(10) 0.92991(16) 0.7290(2)
N5_10 N 0.56733(16) 0.83781(20) 0.8964(3)
O2_12 O 0.25306(10) 0.26324(9) 0.0623(2)
C1_15 C 0.27376(12) 0.31182(13) 0.0325(3)
C4_15 C 0.47785(16) 0.55866(16) 0.0370(4)
H2_15 H 0.5019 0.5659 0.1031
C5_15 C 0.43221(16) 0.50864(15) 0.0259(4)
H3_15 H 0.4259 0.4818 0.0851
H5_15 H 0.563(2) 0.6534(18) 0.015(4)
O3_12 O 0.28182(13) 0.33781(9) 0.2399(2)
O4_12 O 0.32315(13) 0.40343(9) 0.1044(2)
C7_15 C 0.29527(18) 0.35485(13) 0.1342(3)
H6_15 H 0.5121 0.7216 0.0334
H9_15 H 0.5217 0.8067 0.0406
O1_12 O 0.27735(10) 0.32886(9) 0.9268(2)
N1_15 N 0.39618(12) 0.49552(11) 0.9369(3)
N2_15 N 0.53423(14) 0.64895(12) 0.9657(3)
C2_15 C 0.48894(14) 0.59861(13) 0.9520(3)
C3_15 C 0.45175(18) 0.58561(15) 0.8602(4)
H1_15 H 0.4571 0.6117 0.7999
C6_15 C 0.40679(18) 0.53457(16) 0.8567(4)
H4_15 H 0.3816 0.5266 0.7927
N4_15 N 0.55195(18) 0.68438(12) 0.8676(3)
C8_15 C 0.55700(19) 0.73472(13) 0.8813(3)
C9_15 C 0.53281(23) 0.74772(15) 0.9731(4)
C10_15 C 0.58586(23) 0.77467(16) 0.7963(4)
H7_15 H 0.6027 0.7674 0.7302
C11_15 C 0.59024(22) 0.82469(15) 0.8074(4)
H8_15 H 0.6108 0.8515 0.7482
C12_15 C 0.53889(24) 0.79876(16) 0.9766(4)
H10_15 H 0.5763(27) 0.6799(18) 0.818(4)
O5_12 O 0.38932(10) 0.38484(13) 0.9065(2)
O6_12 O 0.34351(13) 0.41361(10) 0.7290(2)
N3_6 N 0.17115(11) 0.23399(16) 0.2702(3)
N4_16 N 0.01772(12) 0.21861(18) 0.2990(3)
C8_16 C 0.06806(13) 0.22366(19) 0.2853(3)
C9_16 C 0.08106(15) 0.19947(23) 0.1935(4)
H6_16 H 0.0550 0.1787 0.1332
C10_16 C 0.10801(16) 0.25252(23) 0.3703(4)
H7_16 H 0.1008 0.2693 0.4364
C11_16 C 0.15803(15) 0.25690(22) 0.3592(4)
H8_16 H 0.1849 0.2774 0.4184
C12_16 C 0.13210(16) 0.20555(24) 0.1900(4)
H9_16 H 0.1401 0.1883 0.1260
H10_16 H 0.0133(18) 0.2429(27) 0.348(4)
N1_16 N 0.82885(11) 0.06285(12) 0.2298(3)
N2_16 N 0.98228(12) 0.20090(14) 0.2010(3)
C2_16 C 0.93194(13) 0.15561(14) 0.2147(3)
C3_16 C 0.91894(15) 0.11842(18) 0.3065(4)
H1_16 H 0.9450 0.1238 0.3668
C4_16 C 0.89199(16) 0.14452(16) 0.1297(4)
H2_16 H 0.8992 0.1686 0.0636
C5_16 C 0.84197(15) 0.09888(16) 0.1408(4)
H3_16 H 0.8151 0.0926 0.0816
C6_16 C 0.86790(16) 0.07346(18) 0.3100(4)
H4_16 H 0.8599 0.0483 0.3740
H5_16 H 0.9867(18) 0.230(2) 0.152(4)
N5_11 N 0.76601(16) 0.93715(12) 0.2702(3)
N5_12 N 0.06285(12) 0.82885(20) 0.2702(3)
N1_17 N 0.93715(12) 0.76601(16) 0.2298(3)
N2_17 N 0.79910(14) 0.78139(18) 0.2010(3)
C2_17 C 0.84439(14) 0.77634(19) 0.2147(3)
C3_17 C 0.88158(18) 0.80053(23) 0.3065(4)
H1_17 H 0.8762 0.8213 0.3668
C4_17 C 0.85548(16) 0.74748(23) 0.1297(4)
H2_17 H 0.8314 0.7307 0.0636
C5_17 C 0.90112(16) 0.74310(22) 0.1408(4)
H3_17 H 0.9074 0.7226 0.0816
C6_17 C 0.92654(18) 0.79445(24) 0.3100(4)
H4_17 H 0.9517 0.8117 0.3740
H5_17 H 0.770(2) 0.7571(27) 0.152(4)
N4_17 N 0.78139(18) 0.79910(22) 0.2990(3)
C8_17 C 0.77634(19) 0.84439(23) 0.2853(3)
C9_17 C 0.80053(23) 0.88158(27) 0.1935(4)
H6_17 H 0.8213 0.8762 0.1332
C10_17 C 0.74748(23) 0.85548(28) 0.3703(4)
H7_17 H 0.7307 0.8314 0.4364
C11_17 C 0.74310(22) 0.90112(27) 0.3592(4)
H8_17 H 0.7226 0.9074 0.4184
C12_17 C 0.79445(24) 0.92654(29) 0.1900(4)
H9_17 H 0.8117 0.9517 0.1260
H10_17 H 0.7571(27) 0.7703(32) 0.348(4)
N1_18 N 0.23399(16) 0.17115(11) 0.2298(3)
N2_18 N 0.21861(18) 0.01772(12) 0.2010(3)
C2_18 C 0.22366(19) 0.06806(13) 0.2147(3)
C3_18 C 0.19947(23) 0.08106(15) 0.3065(4)
H1_18 H 0.1787 0.0550 0.3668
C4_18 C 0.25252(23) 0.10801(16) 0.1297(4)
H2_18 H 0.2693 0.1008 0.0636
C5_18 C 0.25690(22) 0.15803(15) 0.1408(4)
H3_18 H 0.2774 0.1849 0.0816
C6_18 C 0.20555(24) 0.13210(16) 0.3100(4)
H4_18 H 0.1883 0.1401 0.3740
H5_18 H 0.2429(27) 0.0133(18) 0.152(4)
N4_18 N 0.20090(22) 0.98228(12) 0.2990(3)
C8_18 C 0.15561(23) 0.93194(13) 0.2853(3)
C9_18 C 0.11842(27) 0.91894(15) 0.1935(4)
H6_18 H 0.1238 0.9450 0.1332
C10_18 C 0.14452(28) 0.89199(16) 0.3703(4)
H7_18 H 0.1686 0.8992 0.4364
C11_18 C 0.09888(27) 0.84197(15) 0.3592(4)
H8_18 H 0.0926 0.8151 0.4184
C12_18 C 0.07346(29) 0.86790(16) 0.1900(4)
H9_18 H 0.0483 0.8599 0.1260
H10_18 H 0.2297(32) 0.9867(18) 0.348(4)
C1_16 C 0.37139(18) 0.39291(12) 0.6992(3)
C7_16 C 0.39291(22) 0.37139(18) 0.8008(3)
C1_17 C 0.02151(13) 0.62861(18) 0.6992(3)
C7_17 C 0.97849(13) 0.60709(22) 0.8008(3)
C7_18 C 0.62861(18) 0.02151(13) 0.8008(3)
C1_18 C 0.60709(12) 0.97849(13) 0.6992(3)
loop_
_geom_bond_atom_site_label_1
_geom_bond_atom_site_label_2
_geom_bond_site_symmetry_1
_geom_bond_site_symmetry_2
Co1 O1 1_555 1_555
O1 C1 1_555 1_555
O2 C1 1_555 1_555
N1 Co1 1_555 1_555
N2 C2 1_555 1_555
C1 C7 1_555 1_555
C2 C3 1_555 1_555
C3 H1 1_555 1_555
C4 C2 1_555 1_555
H2 C4 1_555 1_555
C5 N1 1_555 1_555
H3 C5 1_555 1_555
C6 N1 1_555 1_555
H4 C6 1_555 1_555
H5 N2 1_555 1_555
O3 C7 1_555 1_555
O4 Co1 1_555 1_555
C7 O4 1_555 1_555
N3 C11 1_555 1_555
N4 N2 1_555 1_555
C8 N4 1_555 1_555
C9 C8 1_555 1_555
H6 C9 1_555 1_555
C10 C8 1_555 1_555
H7 C10 1_555 1_555
C11 C10 1_555 1_555
H8 C11 1_555 1_555
C12 N3 1_555 1_555
H9 C12 1_555 1_555
H10 N4 1_555 1_555
Co2 N3 1_555 1_555
Co3 O2 1_555 1_555
O5 Co1 1_555 1_555
O6 Co1 1_555 1_555
N5 Co1 1_555 1_555
C3 C6 1_555 1_555
C4 C5 1_555 1_555
O3 Co3 1_555 1_555
C9 C12 1_555 1_555
Co1_2 O1_2 1_555 1_555
O1_2 C1_2 1_555 1_555
O2_2 C1_2 1_555 1_555
N1_2 Co1_2 1_555 1_555
N2_2 C2_2 1_555 1_555
C1_2 C7_2 1_555 1_555
C2_2 C3_2 1_555 1_555
C3_2 H1_2 1_555 1_555
C4_2 C2_2 1_555 1_555
H2_2 C4_2 1_555 1_555
C5_2 N1_2 1_555 1_555
H3_2 C5_2 1_555 1_555
C6_2 N1_2 1_555 1_555
H4_2 C6_2 1_555 1_555
H5_2 N2_2 1_555 1_555
O3_2 C7_2 1_555 1_555
O4_2 Co1_2 1_555 1_555
C7_2 O4_2 1_555 1_555
N5 C11_2 1_555 1_555
N4_2 N2_2 1_555 1_555
C8_2 N4_2 1_555 1_555
C9_2 C8_2 1_555 1_555
H6_2 C9_2 1_555 1_555
C10_2 C8_2 1_555 1_555
H7_2 C10_2 1_555 1_555
C11_2 C10_2 1_555 1_555
H8_2 C11_2 1_555 1_555
C12_2 N5 1_555 1_555
H9_2 C12_2 1_555 1_555
H10_2 N4_2 1_555 1_555
Co3_3 O2_2 1_555 1_555
O6_2 Co1_2 1_555 1_555
N5_2 Co1_2 1_555 1_555
C3_2 C6_2 1_555 1_555
C4_2 C5_2 1_555 1_555
O3_2 Co3_3 1_555 1_555
C9_2 C12_2 1_555 1_555
Co2 O1_3 1_555 1_555
O1_3 C1_3 1_555 1_555
O2_3 C1_3 1_555 1_555
N1_3 Co2 1_555 1_555
N2_3 C2_3 1_555 1_555
C1_3 C7_3 1_555 1_555
C2_3 C3_3 1_555 1_555
C3_3 H1_3 1_555 1_555
C4_3 C2_3 1_555 1_555
H2_3 C4_3 1_555 1_555
C5_3 N1_3 1_555 1_555
H3_3 C5_3 1_555 1_555
C6_3 N1_3 1_555 1_555
H4_3 C6_3 1_555 1_555
H5_3 N2_3 1_555 1_555
O3_3 C7_3 1_555 1_555
O4_3 Co2 1_555 1_555
C7_3 O4_3 1_555 1_555
N5_2 C11_3 1_555 1_555
N4_3 N2_3 1_555 1_555
C8_3 N4_3 1_555 1_555
C9_3 C8_3 1_555 1_555
H6_3 C9_3 1_555 1_555
C10_3 C8_3 1_555 1_555
H7_3 C10_3 1_555 1_555
C11_3 C10_3 1_555 1_555
H8_3 C11_3 1_555 1_555
C12_3 N5_2 1_555 1_555
H9_3 C12_3 1_555 1_555
H10_3 N4_3 1_555 1_555
Co3_4 O2_3 1_555 1_555
O6_3 Co2 1_555 1_555
C3_3 C6_3 1_555 1_555
C4_3 C5_3 1_555 1_555
O3_3 Co3_4 1_555 1_555
C9_3 C12_3 1_555 1_555
Co1_3 O1_4 1_555 1_555
N1_4 Co1_3 1_555 1_555
N2_4 C2_4 1_555 1_555
C2_4 C3_4 1_555 1_555
C3_4 H1_4 1_555 1_555
C6_4 N1_4 1_555 1_555
H4_4 C6_4 1_555 1_555
N3_2 C11_4 1_555 1_555
N4_4 N2_4 1_555 1_555
C8_4 N4_4 1_555 1_555
C9_4 C8_4 1_555 1_555
C10_4 C8_4 1_555 1_555
H7_4 C10_4 1_555 1_555
C11_4 C10_4 1_555 1_555
H8_4 C11_4 1_555 1_555
C12_4 N3_2 1_555 1_555
H10_4 N4_4 1_555 1_555
Co2_2 N3_2 1_555 1_555
O6_4 Co1_3 1_555 1_555
N5_3 Co1_3 1_555 1_555
C3_4 C6_4 1_555 1_555
C9_4 C12_4 1_555 1_555
O2_4 C1_4 1_555 1_555
C1_4 C7_4 1_555 1_555
H2_4 C4_4 1_555 1_555
H3_4 C5_4 1_555 1_555
O3_4 C7_4 1_555 1_555
C7_4 O4_4 1_555 1_555
Co3_5 O2_4 1_555 1_555
C4_4 C5_4 1_555 1_555
O3_4 Co3_5 1_555 1_555
Co1_4 O1_5 1_555 1_555
N1_5 Co1_4 1_555 1_555
N2_5 C2_5 1_555 1_555
C2_5 C3_5 1_555 1_555
C3_5 H1_5 1_555 1_555
C6_5 N1_5 1_555 1_555
H4_5 C6_5 1_555 1_555
N5_3 C11_5 1_555 1_555
N4_5 N2_5 1_555 1_555
C8_5 N4_5 1_555 1_555
C9_5 C8_5 1_555 1_555
C10_5 C8_5 1_555 1_555
H7_5 C10_5 1_555 1_555
C11_5 C10_5 1_555 1_555
H8_5 C11_5 1_555 1_555
C12_5 N5_3 1_555 1_555
H10_5 N4_5 1_555 1_555
O6_5 Co1_4 1_555 1_555
N5_4 Co1_4 1_555 1_555
C3_5 C6_5 1_555 1_555
C9_5 C12_5 1_555 1_555
O2_5 C1_5 1_555 1_555
C1_5 C7_5 1_555 1_555
H2_5 C4_5 1_555 1_555
H3_5 C5_5 1_555 1_555
O3_5 C7_5 1_555 1_555
C7_5 O4_5 1_555 1_555
Co3_2 O2_5 1_555 1_555
C4_5 C5_5 1_555 1_555
O3_5 Co3_2 1_555 1_555
Co2_2 O1_6 1_555 1_555
N1_6 Co2_2 1_555 1_555
N2_6 C2_6 1_555 1_555
C2_6 C3_6 1_555 1_555
C3_6 H1_6 1_555 1_555
C6_6 N1_6 1_555 1_555
H4_6 C6_6 1_555 1_555
N5_4 C11_6 1_555 1_555
N4_6 N2_6 1_555 1_555
C8_6 N4_6 1_555 1_555
C9_6 C8_6 1_555 1_555
C10_6 C8_6 1_555 1_555
H7_6 C10_6 1_555 1_555
C11_6 C10_6 1_555 1_555
H8_6 C11_6 1_555 1_555
C12_6 N5_4 1_555 1_555
H10_6 N4_6 1_555 1_555
O5_6 Co2_2 1_555 1_555
O6_6 Co2_2 1_555 1_555
C3_6 C6_6 1_555 1_555
C9_6 C12_6 1_555 1_555
O2_6 C1_6 1_555 1_555
C1_6 C7_6 1_555 1_555
H2_6 C4_6 1_555 1_555
H3_6 C5_6 1_555 1_555
O3_6 C7_6 1_555 1_555
C7_6 O4_6 1_555 1_555
Co3 O2_6 1_555 1_555
C4_6 C5_6 1_555 1_555
O3_6 Co3 1_555 1_555
N5_5 Co3_2 1_555 1_555
N1_7 Co3_3 1_555 1_555
N2_7 C2_7 1_555 1_555
C2_7 C3_7 1_555 1_555
C3_7 H1_7 1_555 1_555
C4_7 C2_7 1_555 1_555
H2_7 C4_7 1_555 1_555
C5_7 N1_7 1_555 1_555
H3_7 C5_7 1_555 1_555
C6_7 N1_7 1_555 1_555
H4_7 C6_7 1_555 1_555
H5_7 N2_7 1_555 1_555
C3_7 C6_7 1_555 1_555
C4_7 C5_7 1_555 1_555
N3_3 C11_7 1_555 1_555
C8_7 N4_7 1_555 1_555
C9_7 C8_7 1_555 1_555
H6_7 C9_7 1_555 1_555
C10_7 C8_7 1_555 1_555
H7_7 C10_7 1_555 1_555
C11_7 C10_7 1_555 1_555
H8_7 C11_7 1_555 1_555
C12_7 N3_3 1_555 1_555
H9_7 C12_7 1_555 1_555
H10_7 N4_7 1_555 1_555
Co3 N3_3 1_555 1_555
C9_7 C12_7 1_555 1_555
N1_8 Co3_4 1_555 1_555
N2_8 C2_8 1_555 1_555
C2_8 C3_8 1_555 1_555
C3_8 H1_8 1_555 1_555
C4_8 C2_8 1_555 1_555
H2_8 C4_8 1_555 1_555
C5_8 N1_8 1_555 1_555
H3_8 C5_8 1_555 1_555
C6_8 N1_8 1_555 1_555
H4_8 C6_8 1_555 1_555
H5_8 N2_8 1_555 1_555
N5_5 C11_8 1_555 1_555
N4_8 N2_8 1_555 1_555
C8_8 N4_8 1_555 1_555
C9_8 C8_8 1_555 1_555
H6_8 C9_8 1_555 1_555
C10_8 C8_8 1_555 1_555
H7_8 C10_8 1_555 1_555
C11_8 C10_8 1_555 1_555
H8_8 C11_8 1_555 1_555
C12_8 N5_5 1_555 1_555
H9_8 C12_8 1_555 1_555
H10_8 N4_8 1_555 1_555
C3_8 C6_8 1_555 1_555
C4_8 C5_8 1_555 1_555
C9_8 C12_8 1_555 1_555
N5_6 Co3_5 1_555 1_555
N5_6 C11_9 1_555 1_555
C8_9 N4_9 1_555 1_555
C9_9 C8_9 1_555 1_555
H6_9 C9_9 1_555 1_555
C10_9 C8_9 1_555 1_555
H7_9 C10_9 1_555 1_555
C11_9 C10_9 1_555 1_555
H8_9 C11_9 1_555 1_555
C12_9 N5_6 1_555 1_555
H9_9 C12_9 1_555 1_555
H10_9 N4_9 1_555 1_555
C9_9 C12_9 1_555 1_555
N1_9 Co3 1_555 1_555
N2_9 C2_9 1_555 1_555
C2_9 C3_9 1_555 1_555
C3_9 H1_9 1_555 1_555
C4_9 C2_9 1_555 1_555
H2_9 C4_9 1_555 1_555
C5_9 N1_9 1_555 1_555
H3_9 C5_9 1_555 1_555
C6_9 N1_9 1_555 1_555
H4_9 C6_9 1_555 1_555
H5_9 N2_9 1_555 1_555
C3_9 C6_9 1_555 1_555
C4_9 C5_9 1_555 1_555
O5 C1_7 1_555 1_555
O6_6 C1_7 1_555 1_555
C1_7 C7_7 1_555 1_555
O5_6 C7_7 1_555 1_555
C7_7 O6 1_555 1_555
O5_4 C7_8 1_555 1_555
C7_8 O6_3 1_555 1_555
O5_3 C1_8 1_555 1_555
O6_4 C1_8 1_555 1_555
O5_2 C1_9 1_555 1_555
O6_5 C1_9 1_555 1_555
O5_5 C7_9 1_555 1_555
C7_9 O6_2 1_555 1_555
Co1_5 O1_7 1_555 1_555
O1_7 C1_10 1_555 1_555
O2_7 C1_10 1_555 1_555
N1_10 Co1_5 1_555 1_555
N2_10 C2_10 1_555 1_555
C1_10 C7_10 1_555 1_555
C2_10 C3_10 1_555 1_555
C3_10 H1_10 1_555 1_555
C4_10 C2_10 1_555 1_555
H2_10 C4_10 1_555 1_555
C5_10 N1_10 1_555 1_555
H3_10 C5_10 1_555 1_555
C6_10 N1_10 1_555 1_555
H4_10 C6_10 1_555 1_555
H5_10 N2_10 1_555 1_555
O3_7 C7_10 1_555 1_555
O4_7 Co1_5 1_555 1_555
C7_10 O4_7 1_555 1_555
N3_4 C11_10 1_555 1_555
N4_10 N2_10 1_555 1_555
C8_10 N4_10 1_555 1_555
C9_10 C8_10 1_555 1_555
H6_10 C9_10 1_555 1_555
C10_10 C8_10 1_555 1_555
H7_10 C10_10 1_555 1_555
C11_10 C10_10 1_555 1_555
H8_10 C11_10 1_555 1_555
C12_10 N3_4 1_555 1_555
H9_10 C12_10 1_555 1_555
H10_10 N4_10 1_555 1_555
Co2_3 N3_4 1_555 1_555
Co3_6 O2_7 1_555 1_555
O5_7 Co1_5 1_555 1_555
O6_7 Co1_5 1_555 1_555
N5_7 Co1_5 1_555 1_555
C3_10 C6_10 1_555 1_555
C4_10 C5_10 1_555 1_555
O3_7 Co3_6 1_555 1_555
C9_10 C12_10 1_555 1_555
Co1_6 O1_8 1_555 1_555
O1_8 C1_11 1_555 1_555
O2_8 C1_11 1_555 1_555
N1_11 Co1_6 1_555 1_555
N2_11 C2_11 1_555 1_555
C1_11 C7_11 1_555 1_555
C2_11 C3_11 1_555 1_555
C3_11 H1_11 1_555 1_555
C4_11 C2_11 1_555 1_555
H2_11 C4_11 1_555 1_555
C5_11 N1_11 1_555 1_555
H3_11 C5_11 1_555 1_555
C6_11 N1_11 1_555 1_555
H4_11 C6_11 1_555 1_555
H5_11 N2_11 1_555 1_555
O3_8 C7_11 1_555 1_555
O4_8 Co1_6 1_555 1_555
C7_11 O4_8 1_555 1_555
N5_7 C11_11 1_555 1_555
N4_11 N2_11 1_555 1_555
C8_11 N4_11 1_555 1_555
C9_11 C8_11 1_555 1_555
H6_11 C9_11 1_555 1_555
C10_11 C8_11 1_555 1_555
H7_11 C10_11 1_555 1_555
C11_11 C10_11 1_555 1_555
H8_11 C11_11 1_555 1_555
C12_11 N5_7 1_555 1_555
H9_11 C12_11 1_555 1_555
H10_11 N4_11 1_555 1_555
Co3_7 O2_8 1_555 1_555
O6_8 Co1_6 1_555 1_555
N5_8 Co1_6 1_555 1_555
C3_11 C6_11 1_555 1_555
C4_11 C5_11 1_555 1_555
O3_8 Co3_7 1_555 1_555
C9_11 C12_11 1_555 1_555
Co2_3 O1_9 1_555 1_555
O1_9 C1_12 1_555 1_555
O2_9 C1_12 1_555 1_555
N1_12 Co2_3 1_555 1_555
N2_12 C2_12 1_555 1_555
C1_12 C7_12 1_555 1_555
C2_12 C3_12 1_555 1_555
C3_12 H1_12 1_555 1_555
C4_12 C2_12 1_555 1_555
H2_12 C4_12 1_555 1_555
C5_12 N1_12 1_555 1_555
H3_12 C5_12 1_555 1_555
C6_12 N1_12 1_555 1_555
H4_12 C6_12 1_555 1_555
H5_12 N2_12 1_555 1_555
O3_9 C7_12 1_555 1_555
O4_9 Co2_3 1_555 1_555
C7_12 O4_9 1_555 1_555
N5_8 C11_12 1_555 1_555
N4_12 N2_12 1_555 1_555
C8_12 N4_12 1_555 1_555
C9_12 C8_12 1_555 1_555
H6_12 C9_12 1_555 1_555
C10_12 C8_12 1_555 1_555
H7_12 C10_12 1_555 1_555
C11_12 C10_12 1_555 1_555
H8_12 C11_12 1_555 1_555
C12_12 N5_8 1_555 1_555
H9_12 C12_12 1_555 1_555
H10_12 N4_12 1_555 1_555
Co3_10 O2_9 1_555 1_555
O6_9 Co2_3 1_555 1_555
C3_12 C6_12 1_555 1_555
C4_12 C5_12 1_555 1_555
O3_9 Co3_10 1_555 1_555
C9_12 C12_12 1_555 1_555
O2_10 C1_13 1_555 1_555
C1_13 C7_13 1_555 1_555
H2_13 C4_13 1_555 1_555
H3_13 C5_13 1_555 1_555
O3_10 C7_13 1_555 1_555
C7_13 O4_10 1_555 1_555
Co3_9 O2_10 1_555 1_555
C4_13 C5_13 1_555 1_555
O3_10 Co3_9 1_555 1_555
Co1_7 O1_10 1_555 1_555
N1_13 Co1_7 1_555 1_555
N2_13 C2_13 1_555 1_555
C2_13 C3_13 1_555 1_555
C3_13 H1_13 1_555 1_555
C6_13 N1_13 1_555 1_555
H4_13 C6_13 1_555 1_555
N3_5 C11_13 1_555 1_555
N4_13 N2_13 1_555 1_555
C8_13 N4_13 1_555 1_555
C9_13 C8_13 1_555 1_555
C10_13 C8_13 1_555 1_555
H7_13 C10_13 1_555 1_555
C11_13 C10_13 1_555 1_555
H8_13 C11_13 1_555 1_555
C12_13 N3_5 1_555 1_555
H10_13 N4_13 1_555 1_555
Co2_4 N3_5 1_555 1_555
O6_10 Co1_7 1_555 1_555
N5_9 Co1_7 1_555 1_555
C3_13 C6_13 1_555 1_555
C9_13 C12_13 1_555 1_555
O2_11 C1_14 1_555 1_555
C1_14 C7_14 1_555 1_555
H2_14 C4_14 1_555 1_555
H3_14 C5_14 1_555 1_555
O3_11 C7_14 1_555 1_555
C7_14 O4_11 1_555 1_555
Co3_8 O2_11 1_555 1_555
C4_14 C5_14 1_555 1_555
O3_11 Co3_8 1_555 1_555
Co1_8 O1_11 1_555 1_555
N1_14 Co1_8 1_555 1_555
N2_14 C2_14 1_555 1_555
C2_14 C3_14 1_555 1_555
C3_14 H1_14 1_555 1_555
C6_14 N1_14 1_555 1_555
H4_14 C6_14 1_555 1_555
N5_9 C11_14 1_555 1_555
N4_14 N2_14 1_555 1_555
C8_14 N4_14 1_555 1_555
C9_14 C8_14 1_555 1_555
C10_14 C8_14 1_555 1_555
H7_14 C10_14 1_555 1_555
C11_14 C10_14 1_555 1_555
H8_14 C11_14 1_555 1_555
C12_14 N5_9 1_555 1_555
H10_14 N4_14 1_555 1_555
O6_11 Co1_8 1_555 1_555
N5_10 Co1_8 1_555 1_555
C3_14 C6_14 1_555 1_555
C9_14 C12_14 1_555 1_555
O2_12 C1_15 1_555 1_555
C1_15 C7_15 1_555 1_555
H2_15 C4_15 1_555 1_555
H3_15 C5_15 1_555 1_555
O3_12 C7_15 1_555 1_555
C7_15 O4_12 1_555 1_555
Co3_6 O2_12 1_555 1_555
C4_15 C5_15 1_555 1_555
O3_12 Co3_6 1_555 1_555
Co2_4 O1_12 1_555 1_555
N1_15 Co2_4 1_555 1_555
N2_15 C2_15 1_555 1_555
C2_15 C3_15 1_555 1_555
C3_15 H1_15 1_555 1_555
C6_15 N1_15 1_555 1_555
H4_15 C6_15 1_555 1_555
N5_10 C11_15 1_555 1_555
N4_15 N2_15 1_555 1_555
C8_15 N4_15 1_555 1_555
C9_15 C8_15 1_555 1_555
C10_15 C8_15 1_555 1_555
H7_15 C10_15 1_555 1_555
C11_15 C10_15 1_555 1_555
H8_15 C11_15 1_555 1_555
C12_15 N5_10 1_555 1_555
H10_15 N4_15 1_555 1_555
O5_12 Co2_4 1_555 1_555
O6_12 Co2_4 1_555 1_555
C3_15 C6_15 1_555 1_555
C9_15 C12_15 1_555 1_555
N3_6 C11_16 1_555 1_555
C8_16 N4_16 1_555 1_555
C9_16 C8_16 1_555 1_555
H6_16 C9_16 1_555 1_555
C10_16 C8_16 1_555 1_555
H7_16 C10_16 1_555 1_555
C11_16 C10_16 1_555 1_555
H8_16 C11_16 1_555 1_555
C12_16 N3_6 1_555 1_555
H9_16 C12_16 1_555 1_555
H10_16 N4_16 1_555 1_555
Co3_6 N3_6 1_555 1_555
C9_16 C12_16 1_555 1_555
N1_16 Co3_7 1_555 1_555
N2_16 C2_16 1_555 1_555
C2_16 C3_16 1_555 1_555
C3_16 H1_16 1_555 1_555
C4_16 C2_16 1_555 1_555
H2_16 C4_16 1_555 1_555
C5_16 N1_16 1_555 1_555
H3_16 C5_16 1_555 1_555
C6_16 N1_16 1_555 1_555
H4_16 C6_16 1_555 1_555
H5_16 N2_16 1_555 1_555
C3_16 C6_16 1_555 1_555
C4_16 C5_16 1_555 1_555
N5_11 Co3_8 1_555 1_555
N5_12 Co3_9 1_555 1_555
N1_17 Co3_10 1_555 1_555
N2_17 C2_17 1_555 1_555
C2_17 C3_17 1_555 1_555
C3_17 H1_17 1_555 1_555
C4_17 C2_17 1_555 1_555
H2_17 C4_17 1_555 1_555
C5_17 N1_17 1_555 1_555
H3_17 C5_17 1_555 1_555
C6_17 N1_17 1_555 1_555
H4_17 C6_17 1_555 1_555
H5_17 N2_17 1_555 1_555
N5_11 C11_17 1_555 1_555
N4_17 N2_17 1_555 1_555
C8_17 N4_17 1_555 1_555
C9_17 C8_17 1_555 1_555
H6_17 C9_17 1_555 1_555
C10_17 C8_17 1_555 1_555
H7_17 C10_17 1_555 1_555
C11_17 C10_17 1_555 1_555
H8_17 C11_17 1_555 1_555
C12_17 N5_11 1_555 1_555
H9_17 C12_17 1_555 1_555
H10_17 N4_17 1_555 1_555
C3_17 C6_17 1_555 1_555
C4_17 C5_17 1_555 1_555
C9_17 C12_17 1_555 1_555
N1_18 Co3_6 1_555 1_555
N2_18 C2_18 1_555 1_555
C2_18 C3_18 1_555 1_555
C3_18 H1_18 1_555 1_555
C4_18 C2_18 1_555 1_555
H2_18 C4_18 1_555 1_555
C5_18 N1_18 1_555 1_555
H3_18 C5_18 1_555 1_555
C6_18 N1_18 1_555 1_555
H4_18 C6_18 1_555 1_555
H5_18 N2_18 1_555 1_555
C3_18 C6_18 1_555 1_555
C4_18 C5_18 1_555 1_555
N5_12 C11_18 1_555 1_555
C8_18 N4_18 1_555 1_555
C9_18 C8_18 1_555 1_555
H6_18 C9_18 1_555 1_555
C10_18 C8_18 1_555 1_555
H7_18 C10_18 1_555 1_555
C11_18 C10_18 1_555 1_555
H8_18 C11_18 1_555 1_555
C12_18 N5_12 1_555 1_555
H9_18 C12_18 1_555 1_555
H10_18 N4_18 1_555 1_555
C9_18 C12_18 1_555 1_555
O5_7 C1_16 1_555 1_555
O6_12 C1_16 1_555 1_555
C1_16 C7_16 1_555 1_555
O5_12 C7_16 1_555 1_555
C7_16 O6_7 1_555 1_555
O5_9 C1_17 1_555 1_555
O6_10 C1_17 1_555 1_555
O5_10 C7_17 1_555 1_555
C7_17 O6_9 1_555 1_555
O5_11 C7_18 1_555 1_555
C7_18 O6_8 1_555 1_555
O5_8 C1_18 1_555 1_555
O6_11 C1_18 1_555 1_555

#END
