
###############################################################################
#
# This file contains modified crystal structure data generated from the
# MOF subset of the Cambridge Structural Database (CSD) v543 
# hosted by the Cambridge Crystallographic Data Centre (CCDC).
#
# This work is licensed under the Creative Commons
# Attribution-NonCommercial-ShareAlike 4.0 International License.
# To view a copy of this license, visit
# http://creativecommons.org/licenses/by-nc-sa/4.0/
# or send a letter to
# Creative Commons, PO Box 1866, Mountain View, CA 94042, USA.
#
# CIF created using the CSD Python API on 29 September 2022
# The structure has been converted into the P1 space group
# The structure has a 3D framework
# The original CSD entry GELVID01 is in the trigonal crystal system
# The original CSD entry GELVID01 is in a Sohncke space group
# The framework has been calculated to contain at least 10.0% void space
# The void calculation uses a probe of radius 1.32A, grid spacing 0.4
# H atom positions have been added when not included in the experimental data
#
###############################################################################

data_GELVID01
_chemical_formula_moiety         '(C57 H36 Ni2 O35)n'
_symmetry_cell_setting           triclinic
_symmetry_space_group_name_H-M   'P 1'
_symmetry_Int_Tables_number      1
_space_group_name_Hall           'P 1'
loop_
_symmetry_equiv_pos_site_id
_symmetry_equiv_pos_as_xyz
1 x,y,z
_cell_length_a                   8.8079(3)
_cell_length_b                   8.8079(3)
_cell_length_c                   21.1663(6)
_cell_angle_alpha                90
_cell_angle_beta                 90
_cell_angle_gamma                120
_cell_volume                     1422.07
loop_
_atom_site_label
_atom_site_type_symbol
_atom_site_fract_x
_atom_site_fract_y
_atom_site_fract_z
O7 O 0.0986(2) 0.0986(2) 0.00000
O12 O 0.3035(2) 0.1736(2) 0.09919(7)
H8 H 0.364(3) 0.214(3) 0.1331(7)
H12 H 0.316195 0.279952 0.0780185
O7_2 O 0.0986(2) 0.0986(2) 1.00000
Ni2 Ni 0.03473(3) 0.98102(3) 0.082815(12)
O10 O 0.00000 0.8714(2) 0.1667
O17 O 0.1021(2) 0.7829(2) 0.06322(7)
H10 H 0.116(4) 0.746(3) 0.0276(6)
H11 H 0.00905138 0.676325 0.0844817
O15 O 0.9607(2) 0.1520(2) 0.11524(7)
Ni6 Ni 0.98102(3) 0.03473(3) 0.917185(12)
O2 O 0.7858(2) 0.8113(2) 0.05265(7)
C3 C 0.7330(4) 0.7330(4) 0.00000
C4 C 0.2492(4) 0.2492(4) 0.00000
C5 C 0.5646(4) 0.5646(4) 0.00000
C6 C 0.3624(3) 0.2977(3) 0.05180(10)
C8 C 0.5183(3) 0.4553(3) 0.05286(11)
H2 H 0.5926 0.4888 0.0888
O10_2 O 1.00000 0.8714(2) 0.1667
C3_2 C 0.7330(4) 0.7330(4) 1.00000
C4_2 C 0.2492(4) 0.2492(4) 1.00000
C5_2 C 0.5646(4) 0.5646(4) 1.00000
O8 O 0.8113(2) 0.7858(2) 0.94735(7)
O11 O 0.1736(2) 0.3035(2) 0.90081(7)
C11 C 0.2977(3) 0.3624(3) 0.94820(10)
C13 C 0.4553(3) 0.5183(3) 0.94714(11)
H6 H 0.4888 0.5926 0.9112
H7 H 0.214(3) 0.364(3) 0.8669(7)
C1 C -0.00000 0.7205(4) 0.1667
C2 C -0.00000 0.2366(4) 0.1667
C7 C 0.0477(3) 0.5071(3) 0.11181(11)
H1 H 0.0779 0.4679 0.0746
C9 C 0.0504(3) 0.6661(3) 0.11235(10)
C10 C 0.00000 0.4056(4) 0.1667
O13 O 0.0393(2) 0.1913(3) 0.21809(7)
C1_2 C 1.00000 0.7205(4) 0.1667
C2_2 C 1.00000 0.2366(4) 0.1667
C10_2 C 1.00000 0.4056(4) 0.1667
Ni4 Ni 0.96527(3) 0.94629(4) 0.250518(12)
O16 O 0.8979(2) 0.6808(3) 0.27011(7)
C12 C 0.9523(3) 0.4594(4) 0.22152(11)
H5 H 0.9221 0.3900 0.2587
C14 C 0.9496(3) 0.6157(4) 0.22098(10)
H9 H 0.884(4) 0.630(5) 0.3057(6)
Ni5 Ni 0.01898(3) 0.05371(4) 0.416148(12)
Ni7 Ni 0.05371(4) 0.01898(5) 0.583852(12)
O3 O 0.1286(2) 0.12860(20) 0.5000
O5 O 0.8480(2) 0.8087(3) 0.44857(7)
O6 O 0.2171(2) 0.3192(3) 0.39655(7)
C1_3 C 0.2795(4) 0.27950(40) 0.5000
C2_3 C 0.7634(4) 0.76340(40) 0.5000
C7_2 C 0.4929(3) 0.5406(4) 0.44514(11)
H1_2 H 0.5321 0.6100 0.4079
C9_2 C 0.3339(3) 0.3843(4) 0.44568(10)
C10_3 C 0.5944(4) 0.59440(40) 0.5000
H4 H 0.254(3) 0.370(5) 0.3609(6)
O13_2 O 0.8087(3) 0.8480(4) 0.55143(7)
O16_2 O 0.3192(3) 0.2171(4) 0.60345(7)
C12_2 C 0.5406(4) 0.4929(5) 0.55486(11)
H5_2 H 0.6100 0.5321 0.5921
C14_2 C 0.3843(4) 0.3339(5) 0.55432(10)
H9_2 H 0.370(5) 0.254(6) 0.6391(6)
O9 O 0.1887(2) 0.9745(3) 0.38598(7)
O1 O 0.9014(2) -0.0000(3) 0.33333
O4 O 0.8264(2) 0.1299(3) 0.43252(7)
C3_3 C 0.2670(4) -0.0000(6) 0.33333
C4_3 C 0.7508(4) 0.0000(6) 0.33333
C5_3 C 0.4354(4) 0.0000(6) 0.33333
C6_2 C 0.7023(3) 0.0647(4) 0.38513(10)
C8_2 C 0.5447(3) 0.0630(4) 0.38619(11)
H2_2 H 0.5112 0.1038 0.4221
H3 H 0.786(3) 0.150(4) 0.4664(7)
O8_2 O 0.2142(2) 0.0255(3) 0.28068(7)
H11_2 H 0.323675 0.332727 0.417815
O1_2 O 0.9014(2) 1.0000(3) 0.33333
C3_4 C 0.2670(4) 1.0000(6) 0.33333
C4_4 C 0.7508(4) 1.0000(6) 0.33333
C5_4 C 0.4354(4) 1.0000(6) 0.33333
O11_2 O 0.6965(2) 0.8701(3) 0.23414(7)
C11_2 C 0.6376(3) 0.9353(4) 0.28153(10)
C13_2 C 0.4817(3) 0.9370(4) 0.28047(11)
H6_2 H 0.4074 0.8962 0.2445
H7_2 H 0.636(3) 0.850(4) 0.2002(7)
H12_2 H 0.720048 0.0362434 0.411352
O9_2 O 0.0255(3) 0.2142(2) 0.71932(7)
O14 O 0.1913(3) 0.0393(2) 0.78191(7)
O1_3 O 0.0000(3) 0.9014(2) 0.66667
C3_5 C 0.0000(6) 0.2670(4) 0.66667
C4_5 C 0.0000(6) 0.7508(4) 0.66667
C5_5 C -0.0000(6) 0.4354(4) 0.66667
O11_3 O 0.1299(3) 0.8264(2) 0.56748(7)
C11_3 C 0.0647(4) 0.7023(3) 0.61487(10)
C13_3 C 0.0630(4) 0.5447(3) 0.61381(11)
H6_3 H 0.1038 0.5112 0.5779
H7_3 H 0.150(4) 0.786(3) 0.5336(7)
O3_2 O 0.87140(20) 0.00000 0.8334
C1_4 C 0.72050(40) 0.00000 0.8334
C2_4 C 0.23660(40) -0.00000 0.8334
C10_4 C 0.40560(40) -0.00000 0.8334
O16_3 O 0.7829(4) 0.1021(2) 0.93678(7)
C12_3 C 0.5071(5) 0.0477(3) 0.88819(11)
H5_3 H 0.4679 0.0779 0.9254
C14_3 C 0.6661(5) 0.0504(3) 0.88765(10)
H9_3 H 0.746(6) 0.116(4) 0.9724(6)
Ni1 Ni 0.94629(4) 0.96527(3) 0.749482(12)
O1_4 O 1.0000(3) 0.9014(2) 0.66667
O3_3 O 0.87140(20) 1.00000 0.8334
O4_2 O 0.8701(3) 0.6965(2) 0.76586(7)
O6_2 O 0.6808(3) 0.8979(2) 0.72989(7)
C1_5 C 0.72050(40) 1.00000 0.8334
C2_5 C 0.23660(40) 1.00000 0.8334
C3_6 C 1.0000(6) 0.2670(4) 0.66667
C4_6 C 1.0000(6) 0.7508(4) 0.66667
C5_6 C 1.0000(6) 0.4354(4) 0.66667
C6_3 C 0.9353(4) 0.6376(3) 0.71847(10)
C7_3 C 0.4594(4) 0.9523(3) 0.77848(11)
H1_3 H 0.3900 0.9221 0.7413
C8_3 C 0.9370(4) 0.4817(3) 0.71953(11)
H2_3 H 0.8962 0.4074 0.7555
C9_3 C 0.6157(4) 0.9496(3) 0.77902(10)
C10_5 C 0.40560(40) 1.00000 0.8334
H3_2 H 0.850(4) 0.636(3) 0.7998(7)
H4_2 H 0.630(5) 0.884(4) 0.6943(6)
O8_3 O 0.9745(3) 0.1887(2) 0.61402(7)
O13_3 O 0.1520(4) 0.9607(2) 0.88476(7)
H11_3 H 0.667273 0.990949 0.751148
H12_3 H 0.963757 0.683805 0.744685
H11_4 H 0.332727 0.323675 0.582185
H12_4 H 0.0362434 0.720048 0.588648
H11_5 H 0.990949 0.667273 0.248852
H12_5 H 0.683805 0.963757 0.255315
H12_6 H 0.279952 0.316195 0.921981
H11_6 H 0.676325 0.00905138 0.915518
loop_
_geom_bond_atom_site_label_1
_geom_bond_atom_site_label_2
_geom_bond_site_symmetry_1
_geom_bond_site_symmetry_2
H8 O12 1_555 1_555
O12 H12 1_555 1_555
O10 Ni2 1_555 1_555
O17 Ni2 1_555 1_555
H10 O17 1_555 1_555
O17 H11 1_555 1_555
O7 C4 1_555 1_555
O2 C3 1_555 1_555
C3 C5 1_555 1_555
C4 C6 1_555 1_555
C5 C8 1_555 1_555
C6 O12 1_555 1_555
C8 C6 1_555 1_555
H2 C8 1_555 1_555
O7_2 C4_2 1_555 1_555
C3_2 C5_2 1_555 1_555
O8 C3_2 1_555 1_555
C11 C4_2 1_555 1_555
C13 C5_2 1_555 1_555
H6 C13 1_555 1_555
H7 O11 1_555 1_555
O11 C11 1_555 1_555
C11 C13 1_555 1_555
C1 O10 1_555 1_555
C2 C10 1_555 1_555
C7 H1 1_555 1_555
C9 O17 1_555 1_555
C10 C7 1_555 1_555
O13 C2 1_555 1_555
C1 C9 1_555 1_555
C7 C9 1_555 1_555
O15 C2_2 1_555 1_555
C1_2 O10_2 1_555 1_555
C2_2 C10_2 1_555 1_555
Ni4 O10_2 1_555 1_555
O16 Ni4 1_555 1_555
C12 C10_2 1_555 1_555
H5 C12 1_555 1_555
C14 C1_2 1_555 1_555
H9 O16 1_555 1_555
O16 C14 1_555 1_555
C12 C14 1_555 1_555
O3 Ni5 1_555 1_555
O5 C2_3 1_555 1_555
O6 Ni5 1_555 1_555
C1_3 O3 1_555 1_555
C2_3 C10_3 1_555 1_555
C7_2 H1_2 1_555 1_555
C9_2 O6 1_555 1_555
C10_3 C7_2 1_555 1_555
H4 O6 1_555 1_555
Ni7 O3 1_555 1_555
O13_2 C2_3 1_555 1_555
O16_2 Ni7 1_555 1_555
C12_2 C10_3 1_555 1_555
H5_2 C12_2 1_555 1_555
C14_2 C1_3 1_555 1_555
H9_2 O16_2 1_555 1_555
C1_3 C9_2 1_555 1_555
C7_2 C9_2 1_555 1_555
O16_2 C14_2 1_555 1_555
C12_2 C14_2 1_555 1_555
O1 C4_3 1_555 1_555
C3_3 C5_3 1_555 1_555
C4_3 C6_2 1_555 1_555
C5_3 C8_2 1_555 1_555
C6_2 O4 1_555 1_555
C8_2 C6_2 1_555 1_555
H2_2 C8_2 1_555 1_555
H3 O4 1_555 1_555
O8_2 C3_3 1_555 1_555
O6 H11_2 1_555 1_555
O1_2 C4_4 1_555 1_555
O9 C3_4 1_555 1_555
C3_4 C5_4 1_555 1_555
Ni4 O1_2 1_555 1_555
O11_2 Ni4 1_555 1_555
C11_2 C4_4 1_555 1_555
C13_2 C5_4 1_555 1_555
H6_2 C13_2 1_555 1_555
H7_2 O11_2 1_555 1_555
O11_2 C11_2 1_555 1_555
C11_2 C13_2 1_555 1_555
O4 H12_2 1_555 1_555
O1_3 C4_5 1_555 1_555
O9_2 C3_5 1_555 1_555
C3_5 C5_5 1_555 1_555
C11_3 C4_5 1_555 1_555
C13_3 C5_5 1_555 1_555
H6_3 C13_3 1_555 1_555
H7_3 O11_3 1_555 1_555
O11_3 C11_3 1_555 1_555
C11_3 C13_3 1_555 1_555
O14 C2_4 1_555 1_555
C1_4 O3_2 1_555 1_555
C2_4 C10_4 1_555 1_555
Ni6 O3_2 1_555 1_555
O16_3 Ni6 1_555 1_555
C12_3 C10_4 1_555 1_555
H5_3 C12_3 1_555 1_555
C14_3 C1_4 1_555 1_555
H9_3 O16_3 1_555 1_555
O16_3 C14_3 1_555 1_555
C12_3 C14_3 1_555 1_555
Ni1 O1_4 1_555 1_555
O1_4 C4_6 1_555 1_555
O3_3 Ni1 1_555 1_555
O4_2 Ni1 1_555 1_555
O6_2 Ni1 1_555 1_555
C1_5 O3_3 1_555 1_555
C2_5 C10_5 1_555 1_555
C3_6 C5_6 1_555 1_555
C4_6 C6_3 1_555 1_555
C5_6 C8_3 1_555 1_555
C6_3 O4_2 1_555 1_555
C7_3 H1_3 1_555 1_555
C8_3 C6_3 1_555 1_555
H2_3 C8_3 1_555 1_555
C9_3 O6_2 1_555 1_555
C10_5 C7_3 1_555 1_555
H3_2 O4_2 1_555 1_555
H4_2 O6_2 1_555 1_555
O8_3 C3_6 1_555 1_555
O13_3 C2_5 1_555 1_555
C1_5 C9_3 1_555 1_555
C7_3 C9_3 1_555 1_555
O6_2 H11_3 1_555 1_555
O4_2 H12_3 1_555 1_555
O16_2 H11_4 1_555 1_555
O11_3 H12_4 1_555 1_555
O16 H11_5 1_555 1_555
O11_2 H12_5 1_555 1_555
O11 H12_6 1_555 1_555
O16_3 H11_6 1_555 1_555

#END
