
###############################################################################
#
# This file contains modified crystal structure data generated from the
# MOF subset of the Cambridge Structural Database (CSD) v543 
# hosted by the Cambridge Crystallographic Data Centre (CCDC).
#
# This work is licensed under the Creative Commons
# Attribution-NonCommercial-ShareAlike 4.0 International License.
# To view a copy of this license, visit
# http://creativecommons.org/licenses/by-nc-sa/4.0/
# or send a letter to
# Creative Commons, PO Box 1866, Mountain View, CA 94042, USA.
#
# CIF created using the CSD Python API on 29 September 2022
# The structure has been converted into the P1 space group
# The structure has a 3D framework
# The original CSD entry GELVEZ is in the trigonal crystal system
# The original CSD entry GELVEZ is in a Sohncke space group
# The framework has been calculated to contain at least 10.0% void space
# The void calculation uses a probe of radius 1.32A, grid spacing 0.4
# H atom positions have been added when not included in the experimental data
#
###############################################################################

data_GELVEZ
_chemical_formula_moiety         '(C27 H17 Mn4 O16)n'
_symmetry_cell_setting           triclinic
_symmetry_space_group_name_H-M   'P 1'
_symmetry_Int_Tables_number      1
_space_group_name_Hall           'P 1'
loop_
_symmetry_equiv_pos_site_id
_symmetry_equiv_pos_as_xyz
1 x,y,z
_cell_length_a                   9.063(2)
_cell_length_b                   9.063(2)
_cell_length_c                   10.947(2)
_cell_angle_alpha                90
_cell_angle_beta                 90
_cell_angle_gamma                120
_cell_volume                     778.699
loop_
_atom_site_label
_atom_site_type_symbol
_atom_site_fract_x
_atom_site_fract_y
_atom_site_fract_z
O4 O 0.0000(4) 0.1206(3) 0.8333
O8 O 0.2188(2) 0.1733(3) 0.59677(18)
H6 H 0.0160041 0.316719 0.634535
Mn2 Mn 0.0000 0.97221(6) 0.3334
O9 O 0.0455(4) 0.8267(3) 0.73656(18)
Mn1 Mn 0.97221(6) -0.0000 0.6667
O4_2 O 1.0000(4) 0.1206(3) 0.8333
O6 O 0.9034(4) 0.2105(3) 0.63302(19)
H4 H 0.857(8) 0.227(6) 0.583(4)
Mn1_2 Mn 0.97221(6) 1.0000 0.6667
O1 O 0.8794(3) 0.8794(3) 0.5000
C1 C 0.2613(4) 0.2613(4) 0.5000
O2 O 0.6929(3) 0.7895(3) 0.70031(19)
H1 H 0.630(6) 0.773(6) 0.750(4)
C2 C 0.7329(4) 0.7329(4) 0.5000
C3 C 0.4788(4) 0.5242(4) 0.6051(2)
H2 H 0.403(6) 0.494(6) 0.668(4)
C4 C 0.6283(4) 0.6775(4) 0.6041(2)
C5 C 0.4254(4) 0.4254(4) 0.5000
Mn2_2 Mn 1.0000 0.97221(6) 0.3334
O5 O 0.7895(3) 0.6929(3) 0.29969(19)
H3 H 0.773(6) 0.630(6) 0.250(4)
O7 O 0.1733(3) 0.2188(2) 0.40323(18)
C6 C 0.5242(4) 0.4788(4) 0.3949(2)
H5 H 0.494(6) 0.403(6) 0.332(4)
C7 C 0.6775(4) 0.6283(4) 0.3959(2)
Mn4 Mn 0.02779(6) 0.02779(6) 0.0000
Mn4_2 Mn 0.02779(6) 0.02779(6) 1.0000
O1_2 O 0.1206(3) 0.0000(4) 0.1667
C1_2 C 0.7387(4) 0.0000(6) 0.1667
C2_2 C 0.2671(4) 0.0000(6) 0.1667
O3 O 0.8267(3) 0.0455(4) 0.26344(18)
C5_2 C 0.5746(4) 0.0000(6) 0.1667
C6_2 C 0.5212(4) 0.0454(6) 0.0616(2)
C7_2 C 0.3717(4) 0.0492(6) 0.0626(2)
O5_2 O 0.3071(3) 0.0966(4) 0.96636(19)
H3_2 H 0.370(6) 0.143(8) 0.917(4)
H5_2 H 0.597(6) 0.091(8) 0.999(4)
O1_3 O 0.1206(3) 1.0000(4) 0.1667
C1_3 C 0.7387(4) 1.0000(6) 0.1667
O2_2 O 0.2105(3) 0.9034(4) 0.36698(19)
H1_2 H 0.227(6) 0.857(8) 0.417(4)
C2_3 C 0.2671(4) 1.0000(6) 0.1667
C3_2 C 0.4758(4) 0.9546(6) 0.2718(2)
H2_2 H 0.506(6) 0.909(8) 0.335(4)
C4_2 C 0.3225(4) 0.9508(6) 0.2708(2)
C5_3 C 0.5746(4) 1.0000(6) 0.1667
O7_2 O 0.7812(2) 0.9545(4) 0.06990(18)
H6_2 H 0.683281 0.699285 0.301201
O2_3 O 0.0966(4) 0.3071(3) 0.03364(19)
H1_3 H 0.143(8) 0.370(6) 0.083(4)
H2_3 H 0.091(8) 0.597(6) 0.001(4)
C1_4 C -0.0000(6) 0.7387(4) 0.8333
C2_4 C -0.0000(6) 0.2671(4) 0.8333
C3_3 C 0.0454(6) 0.5212(4) 0.9384(2)
C4_3 C 0.0492(6) 0.3717(4) 0.9374(2)
C5_4 C 0.0000(6) 0.5746(4) 0.8333
C1_5 C 1.0000(6) 0.7387(4) 0.8333
C2_5 C 1.0000(6) 0.2671(4) 0.8333
O3_2 O 0.9545(4) 0.7812(2) 0.93010(18)
C5_5 C 1.0000(6) 0.5746(4) 0.8333
C6_3 C 0.9546(6) 0.4758(4) 0.7282(2)
H5_3 H 0.909(8) 0.506(6) 0.665(4)
C7_3 C 0.9508(6) 0.3225(4) 0.7292(2)
H6_3 H 0.699285 0.683281 0.698799
H6_4 H 0.316719 0.0160041 0.365465
H6_5 H 0.300715 0.983996 0.967868
H6_6 H 0.983996 0.300715 0.0321319
loop_
_geom_bond_atom_site_label_1
_geom_bond_atom_site_label_2
_geom_bond_site_symmetry_1
_geom_bond_site_symmetry_2
O4_2 Mn1 1_555 1_555
O6 Mn1 1_555 1_555
H4 O6 1_555 1_555
Mn1_2 O1 1_555 1_555
O1 C2 1_555 1_555
C1 O8 1_555 1_555
O2 Mn1_2 1_555 1_555
H1 O2 1_555 1_555
C2 C4 1_555 1_555
C3 H2 1_555 1_555
C4 O2 1_555 1_555
C5 C1 1_555 1_555
Mn2_2 O1 1_555 1_555
O5 Mn2_2 1_555 1_555
H3 O5 1_555 1_555
O7 C1 1_555 1_555
C6 C5 1_555 1_555
H5 C6 1_555 1_555
C7 C2 1_555 1_555
C3 C4 1_555 1_555
C3 C5 1_555 1_555
O5 C7 1_555 1_555
C6 C7 1_555 1_555
O1_2 C2_2 1_555 1_555
C1_2 O3 1_555 1_555
C5_2 C1_2 1_555 1_555
Mn4 O1_2 1_555 1_555
C6_2 C5_2 1_555 1_555
C7_2 C2_2 1_555 1_555
C6_2 C7_2 1_555 1_555
O5_2 Mn4_2 1_555 1_555
H3_2 O5_2 1_555 1_555
Mn2 O1_3 1_555 1_555
O1_3 C2_3 1_555 1_555
O2_2 Mn2 1_555 1_555
H1_2 O2_2 1_555 1_555
C2_3 C4_2 1_555 1_555
C3_2 H2_2 1_555 1_555
C4_2 O2_2 1_555 1_555
C5_3 C1_3 1_555 1_555
O7_2 C1_3 1_555 1_555
C3_2 C4_2 1_555 1_555
C3_2 C5_3 1_555 1_555
O5 H6_2 1_555 1_555
O2_3 Mn4 1_555 1_555
H1_3 O2_3 1_555 1_555
Mn4_2 O4 1_555 1_555
O4 C2_4 1_555 1_555
C2_4 C4_3 1_555 1_555
C5_4 C1_4 1_555 1_555
O9 C1_4 1_555 1_555
C3_3 C4_3 1_555 1_555
C3_3 C5_4 1_555 1_555
O4_2 C2_5 1_555 1_555
C1_5 O3_2 1_555 1_555
C5_5 C1_5 1_555 1_555
C6_3 C5_5 1_555 1_555
H5_3 C6_3 1_555 1_555
C7_3 C2_5 1_555 1_555
O6 C7_3 1_555 1_555
C6_3 C7_3 1_555 1_555
O2 H6_3 1_555 1_555

#END
