
###############################################################################
#
# This file contains modified crystal structure data generated from the
# MOF subset of the Cambridge Structural Database (CSD) v543 
# hosted by the Cambridge Crystallographic Data Centre (CCDC).
#
# This work is licensed under the Creative Commons
# Attribution-NonCommercial-ShareAlike 4.0 International License.
# To view a copy of this license, visit
# http://creativecommons.org/licenses/by-nc-sa/4.0/
# or send a letter to
# Creative Commons, PO Box 1866, Mountain View, CA 94042, USA.
#
# CIF created using the CSD Python API on 29 September 2022
# The structure has been converted into the P1 space group
# The structure has a 3D framework
# The original CSD entry GELVEZ02 is in the trigonal crystal system
# The original CSD entry GELVEZ02 is in a Sohncke space group
# The framework has been calculated to contain at least 10.0% void space
# The void calculation uses a probe of radius 1.32A, grid spacing 0.4
# H atom positions have been added when not included in the experimental data
#
###############################################################################

data_GELVEZ02
_chemical_formula_moiety         '(C30 H18 Mn3 O18)n'
_symmetry_cell_setting           triclinic
_symmetry_space_group_name_H-M   'P 1'
_symmetry_Int_Tables_number      1
_space_group_name_Hall           'P 1'
loop_
_symmetry_equiv_pos_site_id
_symmetry_equiv_pos_as_xyz
1 x,y,z
_cell_length_a                   9.0553(2)
_cell_length_b                   9.0553(2)
_cell_length_c                   10.8872(3)
_cell_angle_alpha                90
_cell_angle_beta                 90
_cell_angle_gamma                120
_cell_volume                     773.13
loop_
_atom_site_label
_atom_site_type_symbol
_atom_site_fract_x
_atom_site_fract_y
_atom_site_fract_z
Mn2 Mn 0.00001(4) 0.03001(4) 0.8333
O6 O 0.21730(18) 0.0450(2) 0.56949(13)
O7 O 0.0450(2) 0.21730(18) 0.43051(13)
O4 O -0.0000(2) 0.8773(3) 0.3333
H6 H 0.00433571 0.688748 0.50475
O1 O 0.8773(2) 0.0000(2) 0.6666
C1 C 0.2598(3) 0.0000(3) 0.6667
C2 C 0.7307(3) 0.0000(3) 0.6666
C5 C 0.4245(3) 0.0000(3) 0.6667
Mn2_2 Mn 1.00001(4) 0.03001(4) 0.8333
O8 O 0.7887(4) 0.0984(2) 0.86817(12)
H3 H 0.753(5) 0.127(3) 0.9303(14)
C6 C 0.6765(4) 0.0493(3) 0.77087(17)
C7 C 0.5228(4) 0.0461(3) 0.77268(18)
H5 H 0.4855 0.0743 0.8438
Mn1 Mn 0.96999(4) 0.9700 0.5000
O1_2 O 0.8773(2) 1.0000(2) 0.6666
O3 O 0.6903(3) 0.9016(2) 0.46516(12)
H1 H 0.626(4) 0.873(3) 0.4030(14)
C1_2 C 0.2598(3) 1.0000(3) 0.6667
C2_2 C 0.7307(3) 1.0000(3) 0.6666
C3 C 0.6272(3) 0.9507(3) 0.56246(17)
C4 C 0.4767(3) 0.9539(3) 0.56065(18)
H2 H 0.4112 0.9257 0.4895
C5_2 C 0.4245(3) 1.0000(3) 0.6667
O4_2 O 1.0000(2) 0.8773(3) 0.3333
O5 O 0.17230(27) 0.9550(2) 0.76384(13)
O9 O 0.9016(2) 0.6903(3) 0.53484(12)
H4 H 0.873(3) 0.626(4) 0.5970(14)
Mn1_2 Mn 0.0300 -0.00001(4) 0.1667
O4_3 O 0.1227(3) 0.1227(4) -0.0001
O9_2 O 0.3097(3) 0.2113(4) 0.20151(12)
H4_2 H 0.374(4) 0.247(5) 0.2637(14)
H6_2 H 0.311252 0.315587 0.171417
O4_4 O 0.1227(3) 0.1227(4) 0.9999
Mn1_3 Mn 0.0300 0.99999(4) 0.1667
O3_2 O 0.0984(2) 0.7887(4) 0.13183(12)
H1_2 H 0.127(3) 0.753(5) 0.0697(14)
C1_3 C 0.0000(3) 0.2598(4) 0.3334
C2_3 C -0.0000(3) 0.7307(4) 0.3333
C3_2 C 0.0493(3) 0.6765(4) 0.22913(17)
C4_2 C 0.0461(3) 0.5228(4) 0.22732(18)
H2_2 H 0.0743 0.4855 0.1562
C5_3 C -0.0000(3) 0.4245(4) 0.3334
O6_2 O 0.9550(2) 0.17230(27) 0.23616(13)
C1_4 C 1.0000(3) 0.2598(4) 0.3334
C2_4 C 1.0000(3) 0.7307(4) 0.3333
C5_4 C 1.0000(3) 0.4245(4) 0.3334
O7_2 O 0.78270(18) 0.82770(27) 0.09718(13)
C6_2 C 0.9507(3) 0.6272(5) 0.43754(17)
C7_2 C 0.9539(3) 0.4767(5) 0.43935(18)
H5_2 H 0.9257 0.4112 0.5105
C1_5 C 0.7402(4) 0.7402(3) 0.0000
C2_5 C 0.2693(4) 0.2693(3) -0.0001
C5_5 C 0.5755(4) 0.5755(3) 0.0000
C6_3 C 0.3728(5) 0.3235(4) 0.10421(17)
C7_3 C 0.5233(5) 0.4772(4) 0.10602(18)
H5_3 H 0.5888 0.5145 0.1772
O2 O 0.82770(27) 0.78270(18) 0.90282(13)
O3_3 O 0.2113(4) 0.3097(3) 0.79849(12)
H1_3 H 0.247(5) 0.374(4) 0.7363(14)
C1_6 C 0.7402(4) 0.7402(3) 1.0000
C2_6 C 0.2693(4) 0.2693(3) 0.9999
C3_3 C 0.3235(4) 0.3728(3) 0.89579(17)
C4_3 C 0.4772(4) 0.5233(3) 0.89398(18)
H2_3 H 0.5145 0.5888 0.8228
C5_6 C 0.5755(4) 0.5755(3) 1.0000
H6_3 H 0.684413 0.995664 0.838084
H6_4 H 0.688748 0.00433571 0.49525
H6_5 H 0.315587 0.311252 0.828583
H6_6 H 0.995664 0.684413 0.161916
loop_
_geom_bond_atom_site_label_1
_geom_bond_atom_site_label_2
_geom_bond_site_symmetry_1
_geom_bond_site_symmetry_2
O1 C2 1_555 1_555
O6 C1 1_555 1_555
C1 C5 1_555 1_555
Mn2_2 O1 1_555 1_555
O8 Mn2_2 1_555 1_555
H3 O8 1_555 1_555
C6 C2 1_555 1_555
C7 C5 1_555 1_555
H5 C7 1_555 1_555
O8 C6 1_555 1_555
C6 C7 1_555 1_555
Mn1 O1_2 1_555 1_555
O1_2 C2_2 1_555 1_555
O3 Mn1 1_555 1_555
H1 O3 1_555 1_555
C1_2 C5_2 1_555 1_555
C2_2 C3 1_555 1_555
C3 O3 1_555 1_555
C4 C3 1_555 1_555
H2 C4 1_555 1_555
C5_2 C4 1_555 1_555
O4_2 Mn1 1_555 1_555
O5 C1_2 1_555 1_555
O9 Mn1 1_555 1_555
H4 O9 1_555 1_555
O4_3 Mn1_2 1_555 1_555
O9_2 Mn1_2 1_555 1_555
H4_2 O9_2 1_555 1_555
O9_2 H6_2 1_555 1_555
Mn1_3 O4 1_555 1_555
O4 C2_3 1_555 1_555
O3_2 Mn1_3 1_555 1_555
H1_2 O3_2 1_555 1_555
C1_3 C5_3 1_555 1_555
C2_3 C3_2 1_555 1_555
C3_2 O3_2 1_555 1_555
C4_2 C3_2 1_555 1_555
H2_2 C4_2 1_555 1_555
C5_3 C4_2 1_555 1_555
O7 C1_3 1_555 1_555
O4_2 C2_4 1_555 1_555
O6_2 C1_4 1_555 1_555
C1_4 C5_4 1_555 1_555
C6_2 C2_4 1_555 1_555
C7_2 C5_4 1_555 1_555
H5_2 C7_2 1_555 1_555
O9 C6_2 1_555 1_555
C6_2 C7_2 1_555 1_555
O4_3 C2_5 1_555 1_555
C1_5 C5_5 1_555 1_555
O7_2 C1_5 1_555 1_555
C6_3 C2_5 1_555 1_555
C7_3 C5_5 1_555 1_555
H5_3 C7_3 1_555 1_555
O9_2 C6_3 1_555 1_555
C6_3 C7_3 1_555 1_555
Mn2 O4_4 1_555 1_555
O4_4 C2_6 1_555 1_555
O2 C1_6 1_555 1_555
O3_3 Mn2 1_555 1_555
H1_3 O3_3 1_555 1_555
C1_6 C5_6 1_555 1_555
C2_6 C3_3 1_555 1_555
C3_3 O3_3 1_555 1_555
C4_3 C3_3 1_555 1_555
H2_3 C4_3 1_555 1_555
C5_6 C4_3 1_555 1_555
O3_3 H6_5 1_555 1_555

#END
