
###############################################################################
#
# This file contains modified crystal structure data generated from the
# MOF subset of the Cambridge Structural Database (CSD) v543 
# hosted by the Cambridge Crystallographic Data Centre (CCDC).
#
# This work is licensed under the Creative Commons
# Attribution-NonCommercial-ShareAlike 4.0 International License.
# To view a copy of this license, visit
# http://creativecommons.org/licenses/by-nc-sa/4.0/
# or send a letter to
# Creative Commons, PO Box 1866, Mountain View, CA 94042, USA.
#
# CIF created using the CSD Python API on 29 September 2022
# The structure has been converted into the P1 space group
# The structure has a 3D framework
# The original CSD entry GELVEZ01 is in the trigonal crystal system
# The original CSD entry GELVEZ01 is in a Sohncke space group
# The framework has been calculated to contain at least 10.0% void space
# The void calculation uses a probe of radius 1.32A, grid spacing 0.4
# H atom positions have been added when not included in the experimental data
#
###############################################################################

data_GELVEZ01
_chemical_formula_moiety         '(C57 H36 Mn1 O35)n'
_symmetry_cell_setting           triclinic
_symmetry_space_group_name_H-M   'P 1'
_symmetry_Int_Tables_number      1
_space_group_name_Hall           'P 1'
loop_
_symmetry_equiv_pos_site_id
_symmetry_equiv_pos_as_xyz
1 x,y,z
_cell_length_a                   9.0659(2)
_cell_length_b                   9.0659(2)
_cell_length_c                   21.7273(5)
_cell_angle_alpha                90
_cell_angle_beta                 90
_cell_angle_gamma                120
_cell_volume                     1546.53
loop_
_atom_site_label
_atom_site_type_symbol
_atom_site_fract_x
_atom_site_fract_y
_atom_site_fract_z
Mn7 Mn 0.02195(5) 0.03919(6) 0.250393(18)
O4 O -0.0000 0.1351(3) 0.1667
O6 O 0.0519(3) 0.8438(3) 0.11859(9)
C6 C -0.0000 0.2827(5) 0.1667
C8 C -0.0000 0.7527(5) 0.1667
C9 C 0.0000 0.5891(5) 0.1667
O10 O 0.2290(3) 0.1882(3) 0.04952(9)
O13 O 0.0832(3) 0.3146(4) 0.26965(10)
H7 H 0.101(5) 0.374(6) 0.3028(8)
C13 C 0.0416(4) 0.3813(6) 0.22001(13)
C14 C 0.0380(4) 0.5319(6) 0.22073(15)
H10 H 0.0612 0.5958 0.2576
Mn2 Mn 0.01724(4) 0.97805(5) 0.917060(18)
Mn6 Mn 0.97805(5) 0.01724(4) 0.082940(18)
O4_2 O 1.0000 0.1351(3) 0.1667
O5 O 0.9168(3) 0.2314(3) 0.06368(10)
H2 H 0.899(5) 0.273(4) 0.0305(8)
C6_2 C 1.0000 0.2827(5) 0.1667
C7 C 0.9584(4) 0.3397(4) 0.11332(13)
C8_2 C 1.0000 0.7527(5) 0.1667
C9_2 C 1.0000 0.5891(5) 0.1667
C10 C 0.9620(4) 0.4939(4) 0.11260(15)
H4 H 0.9388 0.5346 0.0757
O16 O 0.9481(3) 0.7919(4) 0.21474(9)
O1 O 0.8910(3) 0.8910(3) 0.0000
O2 O 0.6984(3) 0.8080(3) 0.09976(9)
H1 H 0.636(4) 0.768(4) 0.1324(8)
C1 C 0.7443(4) 0.7443(4) 0.0000
C2 C 0.6378(4) 0.6928(4) 0.05151(13)
C3 C 0.2743(5) 0.2743(5) 0.0000
C4 C 0.4370(5) 0.4370(5) 0.0000
C5 C 0.4874(4) 0.5395(4) 0.05266(13)
H3 H 0.4188 0.5039 0.0887
H12 H 0.0134127 0.332478 0.0833032
O1_2 O 0.8910(3) 0.8910(3) 1.0000
C1_2 C 0.7443(4) 0.7443(4) 1.0000
C3_2 C 0.2743(5) 0.2743(5) 1.0000
C4_2 C 0.4370(5) 0.4370(5) 1.0000
O8 O 0.8080(3) 0.6984(3) 0.90024(9)
H5 H 0.768(4) 0.636(4) 0.8676(8)
O11 O 0.1882(3) 0.2290(3) 0.95048(9)
C11 C 0.6928(4) 0.6378(4) 0.94849(13)
C12 C 0.5395(4) 0.4874(4) 0.94734(13)
H9 H 0.5039 0.4188 0.9113
H11 H 0.69255 0.705353 0.0809741
O7 O 0.1090(3) -0.0000(4) 0.3333
O17 O 0.1562(3) 0.2081(4) 0.45192(9)
O7_2 O 0.1090(3) 1.0000(4) 0.3333
O9 O 0.1920(3) 0.8904(4) 0.43309(9)
H6 H 0.232(4) 0.868(6) 0.4657(8)
H11_2 H 0.294647 0.987197 0.414307
O3 O 0.8118(3) 0.0408(4) 0.38285(9)
C1_3 C 0.2557(4) -0.0000(6) 0.3333
C3_3 C 0.7257(5) -0.0000(7) 0.3333
C4_3 C 0.5630(5) -0.0000(7) 0.3333
O8_2 O 0.3016(3) 0.1096(4) 0.23357(9)
H5_2 H 0.364(4) 0.132(6) 0.2009(8)
C11_2 C 0.3622(4) 0.0550(6) 0.28182(13)
C12_2 C 0.5126(4) 0.0521(6) 0.28067(13)
H9_2 H 0.5812 0.0851 0.2446
C1_4 C 0.2557(4) 1.0000(6) 0.3333
C2_2 C 0.3072(4) 0.9450(6) 0.38484(13)
C3_4 C 0.7257(5) 1.0000(7) 0.3333
C4_4 C 0.5630(5) 1.0000(7) 0.3333
C5_2 C 0.4605(4) 0.9479(6) 0.38599(13)
H3_2 H 0.4961 0.9149 0.4220
Mn4 Mn 0.98276(4) 0.96081(6) 0.416273(18)
O11_2 O 0.7710(3) 0.9592(4) 0.28381(9)
O12 O 0.8649(3) 0.8649(3) 0.5000
O14 O 0.7686(3) 0.6854(4) 0.39701(10)
H8 H 0.727(4) 0.626(6) 0.3638(8)
H12_2 H 0.667522 0.680934 0.416637
C6_3 C 0.7173(5) 0.7173(5) 0.5000
C7_2 C 0.6603(4) 0.6187(6) 0.44665(13)
C8_3 C 0.2473(5) 0.2473(5) 0.5000
C9_3 C 0.4109(5) 0.4109(5) 0.5000
C10_2 C 0.5061(4) 0.4681(6) 0.44593(15)
H4_2 H 0.4654 0.4042 0.4090
Mn3 Mn 0.96081(6) 0.98276(8) 0.583727(18)
O13_2 O 0.6854(4) 0.7686(5) 0.60299(10)
H7_2 H 0.626(6) 0.727(8) 0.6362(8)
O16_2 O 0.2081(4) 0.1562(5) 0.54808(9)
C13_2 C 0.6187(6) 0.6603(7) 0.55335(13)
C14_2 C 0.4681(6) 0.5061(7) 0.55407(15)
H10_2 H 0.4042 0.4654 0.5910
Mn6_2 Mn 0.03919(6) 0.02195(5) 0.749607(18)
O7_3 O 0.0000(4) 0.1090(3) 0.6667
O9_2 O 0.1096(4) 0.3016(3) 0.76643(9)
H6_2 H 0.132(6) 0.364(4) 0.7991(8)
O12_2 O 0.1351(3) -0.0000 0.8334
O14_2 O 0.3146(4) 0.0832(3) 0.73035(10)
H8_2 H 0.374(6) 0.101(5) 0.6972(8)
H11_3 H 0.0128033 0.30745 0.747641
C1_5 C -0.0000(6) 0.2557(4) 0.6667
C2_3 C 0.0550(6) 0.3622(4) 0.71818(13)
C3_5 C 0.0000(7) 0.7257(5) 0.6667
C4_5 C -0.0000(7) 0.5630(5) 0.6667
C5_3 C 0.0521(6) 0.5126(4) 0.71933(13)
H3_3 H 0.0851 0.5812 0.7554
C6_4 C 0.2827(5) 0.0000 0.8334
C7_3 C 0.3813(6) 0.0416(4) 0.77999(13)
C8_4 C 0.7527(5) 0.0000 0.8334
C9_4 C 0.5891(5) -0.0000 0.8334
C10_3 C 0.5319(6) 0.0380(4) 0.77927(15)
H4_3 H 0.5958 0.0612 0.7424
O11_3 O 0.0408(4) 0.8118(3) 0.61715(9)
O12_3 O 0.1351(3) 1.0000 0.8334
O16_3 O 0.8438(5) 0.0519(3) 0.88141(9)
H12_3 H 0.319066 0.986587 0.74997
O6_2 O 0.7919(4) 0.9481(3) 0.78526(9)
C6_5 C 0.2827(5) 1.0000 0.8334
C8_5 C 0.7527(5) 1.0000 0.8334
C9_5 C 0.5891(5) 1.0000 0.8334
O13_3 O 0.2314(5) 0.9168(3) 0.93632(10)
H7_3 H 0.273(8) 0.899(5) 0.9695(8)
C13_3 C 0.3397(7) 0.9584(4) 0.88668(13)
C14_3 C 0.4939(7) 0.9620(4) 0.88740(15)
H10_3 H 0.5346 0.9388 0.9243
O7_4 O 1.0000(4) 0.1090(3) 0.6667
O3_2 O 0.9592(4) 0.7710(3) 0.71619(9)
C1_6 C 1.0000(6) 0.2557(4) 0.6667
C3_6 C 1.0000(7) 0.7257(5) 0.6667
C4_6 C 1.0000(7) 0.5630(5) 0.6667
O8_3 O 0.8904(4) 0.1920(3) 0.56691(9)
H5_3 H 0.868(6) 0.232(4) 0.5343(8)
C11_3 C 0.9450(6) 0.3072(4) 0.61516(13)
C12_3 C 0.9479(6) 0.4605(4) 0.61401(13)
H9_3 H 0.9149 0.4961 0.5780
H12_4 H 0.332478 0.0134127 0.916697
H11_4 H 0.705353 0.69255 0.919026
H11_5 H 0.987197 0.294647 0.585693
H12_5 H 0.680934 0.667522 0.583363
H11_6 H 0.30745 0.0128033 0.252359
H12_6 H 0.986587 0.319066 0.25003
loop_
_geom_bond_atom_site_label_1
_geom_bond_atom_site_label_2
_geom_bond_site_symmetry_1
_geom_bond_site_symmetry_2
O6 C8 1_555 1_555
C6 O4 1_555 1_555
C8 C9 1_555 1_555
Mn7 O4 1_555 1_555
O13 Mn7 1_555 1_555
H7 O13 1_555 1_555
C13 C6 1_555 1_555
C14 C9 1_555 1_555
H10 C14 1_555 1_555
O13 C13 1_555 1_555
C13 C14 1_555 1_555
O4_2 Mn6 1_555 1_555
O5 Mn6 1_555 1_555
H2 O5 1_555 1_555
C6_2 O4_2 1_555 1_555
C7 O5 1_555 1_555
C8_2 C9_2 1_555 1_555
C9_2 C10 1_555 1_555
C10 C7 1_555 1_555
H4 C10 1_555 1_555
O16 C8_2 1_555 1_555
C6_2 C7 1_555 1_555
O1 C1 1_555 1_555
H1 O2 1_555 1_555
O10 C3 1_555 1_555
C1 C2 1_555 1_555
C2 O2 1_555 1_555
C3 C4 1_555 1_555
C4 C5 1_555 1_555
C5 C2 1_555 1_555
H3 C5 1_555 1_555
O1_2 C1_2 1_555 1_555
C3_2 C4_2 1_555 1_555
H5 O8 1_555 1_555
O11 C3_2 1_555 1_555
C11 C1_2 1_555 1_555
C12 C4_2 1_555 1_555
H9 C12 1_555 1_555
O8 C11 1_555 1_555
C11 C12 1_555 1_555
O2 H11 1_555 1_555
Mn7 O7 1_555 1_555
H6 O9 1_555 1_555
O9 H11_2 1_555 1_555
O7 C1_3 1_555 1_555
O3 C3_3 1_555 1_555
C3_3 C4_3 1_555 1_555
O8_2 Mn7 1_555 1_555
H5_2 O8_2 1_555 1_555
C11_2 C1_3 1_555 1_555
C12_2 C4_3 1_555 1_555
H9_2 C12_2 1_555 1_555
O8_2 C11_2 1_555 1_555
C11_2 C12_2 1_555 1_555
O7_2 C1_4 1_555 1_555
C1_4 C2_2 1_555 1_555
C2_2 O9 1_555 1_555
C3_4 C4_4 1_555 1_555
C4_4 C5_2 1_555 1_555
C5_2 C2_2 1_555 1_555
H3_2 C5_2 1_555 1_555
O11_2 C3_4 1_555 1_555
O12 Mn4 1_555 1_555
O14 Mn4 1_555 1_555
H8 O14 1_555 1_555
O14 H12_2 1_555 1_555
O17 C8_3 1_555 1_555
C6_3 O12 1_555 1_555
C7_2 O14 1_555 1_555
C8_3 C9_3 1_555 1_555
C9_3 C10_2 1_555 1_555
C10_2 C7_2 1_555 1_555
H4_2 C10_2 1_555 1_555
Mn3 O12 1_555 1_555
O13_2 Mn3 1_555 1_555
H7_2 O13_2 1_555 1_555
O16_2 C8_3 1_555 1_555
C13_2 C6_3 1_555 1_555
C14_2 C9_3 1_555 1_555
H10_2 C14_2 1_555 1_555
C6_3 C7_2 1_555 1_555
O13_2 C13_2 1_555 1_555
C13_2 C14_2 1_555 1_555
O7_3 Mn6_2 1_555 1_555
O9_2 Mn6_2 1_555 1_555
H6_2 O9_2 1_555 1_555
O12_2 Mn6_2 1_555 1_555
O14_2 Mn6_2 1_555 1_555
H8_2 O14_2 1_555 1_555
O9_2 H11_3 1_555 1_555
O7_3 C1_5 1_555 1_555
C1_5 C2_3 1_555 1_555
C2_3 O9_2 1_555 1_555
C3_5 C4_5 1_555 1_555
C4_5 C5_3 1_555 1_555
C5_3 C2_3 1_555 1_555
H3_3 C5_3 1_555 1_555
C6_4 O12_2 1_555 1_555
C7_3 O14_2 1_555 1_555
C8_4 C9_4 1_555 1_555
C9_4 C10_3 1_555 1_555
C10_3 C7_3 1_555 1_555
H4_3 C10_3 1_555 1_555
O11_3 C3_5 1_555 1_555
O16_3 C8_4 1_555 1_555
C6_4 C7_3 1_555 1_555
O6_2 C8_5 1_555 1_555
C6_5 O12_3 1_555 1_555
C8_5 C9_5 1_555 1_555
Mn2 O12_3 1_555 1_555
O13_3 Mn2 1_555 1_555
H7_3 O13_3 1_555 1_555
C13_3 C6_5 1_555 1_555
C14_3 C9_5 1_555 1_555
H10_3 C14_3 1_555 1_555
O13_3 C13_3 1_555 1_555
C13_3 C14_3 1_555 1_555
O7_4 C1_6 1_555 1_555
O3_2 C3_6 1_555 1_555
C3_6 C4_6 1_555 1_555
H5_3 O8_3 1_555 1_555
C11_3 C1_6 1_555 1_555
C12_3 C4_6 1_555 1_555
H9_3 C12_3 1_555 1_555
O8_3 C11_3 1_555 1_555
C11_3 C12_3 1_555 1_555
O8 H11_4 1_555 1_555
O8_3 H11_5 1_555 1_555
O13_2 H12_5 1_555 1_555
O8_2 H11_6 1_555 1_555

#END
