
###############################################################################
#
# This file contains modified crystal structure data generated from the
# MOF subset of the Cambridge Structural Database (CSD) v543 
# hosted by the Cambridge Crystallographic Data Centre (CCDC).
#
# This work is licensed under the Creative Commons
# Attribution-NonCommercial-ShareAlike 4.0 International License.
# To view a copy of this license, visit
# http://creativecommons.org/licenses/by-nc-sa/4.0/
# or send a letter to
# Creative Commons, PO Box 1866, Mountain View, CA 94042, USA.
#
# CIF created using the CSD Python API on 29 September 2022
# The structure has been converted into the P1 space group
# The structure has a 3D framework
# The original CSD entry GELVID is in the trigonal crystal system
# The original CSD entry GELVID is in a Sohncke space group
# The framework has been calculated to contain at least 10.0% void space
# The void calculation uses a probe of radius 1.32A, grid spacing 0.4
# H atom positions have been added when not included in the experimental data
#
###############################################################################

data_GELVID
_chemical_formula_moiety         '(C30 H18 Ni3 O18)n'
_symmetry_cell_setting           triclinic
_symmetry_space_group_name_H-M   'P 1'
_symmetry_Int_Tables_number      1
_space_group_name_Hall           'P 1'
loop_
_symmetry_equiv_pos_site_id
_symmetry_equiv_pos_as_xyz
1 x,y,z
_cell_length_a                   8.824(2)
_cell_length_b                   8.824(2)
_cell_length_c                   10.644(2)
_cell_angle_alpha                90
_cell_angle_beta                 90
_cell_angle_gamma                120
_cell_volume                     717.739
loop_
_atom_site_label
_atom_site_type_symbol
_atom_site_fract_x
_atom_site_fract_y
_atom_site_fract_z
O7 O 0.1710(4) 0.2031(4) 0.1031(2)
O9 O 0.1133(5) 0.0000(7) 0.3333
Ni1 Ni 0.0000 0.95806(9) 0.1667
O5 O 0.1959(5) 0.8855(6) 0.1315(3)
H4 H 0.211(8) 0.864(11) 0.062(3)
O9_2 O 0.1133(5) 1.0000(7) 0.3333
H6 H 0.16411 0.779828 0.182946
O8 O 0.8290(4) 0.0321(6) 0.2302(2)
Ni3 Ni 0.95806(9) 0.0000 0.8334
Ni1_2 Ni 1.0000 0.95806(9) 0.1667
O1 O 0.8041(5) 0.6896(4) 0.2018(3)
H1 H 0.789(8) 0.653(7) 0.271(3)
O3 O 0.8867(5) 0.8867(5) 0.0000
C1 C 0.7367(7) 0.7367(7) 0.0000
C2 C 0.5272(6) 0.4717(6) 0.1067(4)
H2 H 0.488(9) 0.392(8) 0.169(5)
C3 C 0.2526(8) 0.2526(8) 0.0000
C4 C 0.6852(6) 0.6278(6) 0.1056(4)
C5 C 0.4209(7) 0.4209(7) 0.0000
O3_2 O 0.8867(5) 0.8867(5) 1.0000
C1_2 C 0.7367(7) 0.7367(7) 1.0000
C3_2 C 0.2526(8) 0.2526(8) 1.0000
C5_2 C 0.4209(7) 0.4209(7) 1.0000
Ni3_2 Ni 0.95806(9) 1.0000 0.8334
O4 O 0.6896(4) 0.8041(5) 0.7982(3)
H3 H 0.653(7) 0.789(8) 0.729(3)
O6 O 0.2031(4) 0.1710(4) 0.8969(2)
C6 C 0.4717(6) 0.5272(6) 0.8933(4)
H5 H 0.392(8) 0.488(9) 0.831(5)
C7 C 0.6278(6) 0.6852(6) 0.8944(4)
Ni2 Ni 0.04194(9) 0.04194(9) 0.5000
O1_2 O 0.3104(4) 0.1145(6) 0.5351(3)
H1_2 H 0.347(7) 0.136(11) 0.604(3)
C1_3 C 0.2633(7) 0.0000(10) 0.3333
C2_2 C 0.5283(6) 0.0555(8) 0.4400(4)
H2_2 H 0.608(8) 0.096(12) 0.502(5)
C3_3 C 0.7474(8) -0.0000(11) 0.3333
C4_2 C 0.3722(6) 0.0574(8) 0.4389(4)
C5_3 C 0.5791(7) -0.0000(10) 0.3333
O5_2 O 0.1145(6) 0.3104(8) 0.4649(3)
H4_2 H 0.136(11) 0.347(14) 0.396(3)
O9_3 O 0.0000(7) 0.1133(9) 0.6667
H6_2 H 0.220172 0.384282 0.516279
O2 O 0.7969(4) 0.9679(6) 0.4364(2)
C1_4 C 0.2633(7) 1.0000(10) 0.3333
C3_4 C 0.7474(8) 1.0000(11) 0.3333
C5_4 C 0.5791(7) 1.0000(10) 0.3333
C6_2 C 0.4728(6) 0.9445(8) 0.2266(4)
H5_2 H 0.512(9) 0.904(12) 0.164(5)
C7_2 C 0.3148(6) 0.9426(8) 0.2277(4)
O9_4 O 1.0000(7) 0.1133(9) 0.6667
O8_2 O 0.9679(6) 0.7969(7) 0.5636(2)
O2_2 O 0.0321(6) 0.8290(4) 0.7698(2)
C1_5 C 0.0000(10) 0.2633(7) 0.6667
C3_5 C 0.0000(11) 0.7474(8) 0.6667
C5_5 C 0.0000(10) 0.5791(7) 0.6667
C6_3 C 0.0555(8) 0.5283(6) 0.5600(4)
H5_3 H 0.096(12) 0.608(8) 0.498(5)
C7_3 C 0.0574(8) 0.3722(6) 0.5611(4)
O1_3 O 0.8855(6) 0.1959(5) 0.8685(3)
H1_3 H 0.864(11) 0.211(8) 0.938(3)
C1_6 C 1.0000(10) 0.2633(7) 0.6667
C2_3 C 0.9445(8) 0.4728(6) 0.7734(4)
H2_3 H 0.904(12) 0.512(9) 0.836(5)
C3_6 C 1.0000(11) 0.7474(8) 0.6667
C4_3 C 0.9426(8) 0.3148(6) 0.7723(4)
C5_6 C 1.0000(10) 0.5791(7) 0.6667
H6_3 H 0.615718 0.83589 0.849612
H6_4 H 0.779828 0.16411 0.817054
H6_5 H 0.384282 0.220172 0.483721
H6_6 H 0.83589 0.615718 0.150388
loop_
_geom_bond_atom_site_label_1
_geom_bond_atom_site_label_2
_geom_bond_site_symmetry_1
_geom_bond_site_symmetry_2
O5 Ni1 1_555 1_555
H4 O5 1_555 1_555
O9_2 Ni1 1_555 1_555
O5 H6 1_555 1_555
Ni1_2 O1 1_555 1_555
O1 H1 1_555 1_555
O7 C3 1_555 1_555
O3 Ni1_2 1_555 1_555
C1 O3 1_555 1_555
C2 H2 1_555 1_555
C3 C5 1_555 1_555
C4 O1 1_555 1_555
C5 C2 1_555 1_555
C1 C4 1_555 1_555
C2 C4 1_555 1_555
C1_2 O3_2 1_555 1_555
C3_2 C5_2 1_555 1_555
Ni3_2 O3_2 1_555 1_555
O4 Ni3_2 1_555 1_555
H3 O4 1_555 1_555
O6 C3_2 1_555 1_555
C6 C5_2 1_555 1_555
H5 C6 1_555 1_555
C7 C1_2 1_555 1_555
O4 C7 1_555 1_555
C6 C7 1_555 1_555
Ni2 O1_2 1_555 1_555
O1_2 H1_2 1_555 1_555
O9 Ni2 1_555 1_555
C1_3 O9 1_555 1_555
C2_2 H2_2 1_555 1_555
C3_3 C5_3 1_555 1_555
C4_2 O1_2 1_555 1_555
C5_3 C2_2 1_555 1_555
O5_2 Ni2 1_555 1_555
H4_2 O5_2 1_555 1_555
O8 C3_3 1_555 1_555
O9_3 Ni2 1_555 1_555
C1_3 C4_2 1_555 1_555
C2_2 C4_2 1_555 1_555
O5_2 H6_2 1_555 1_555
O2 C3_4 1_555 1_555
C1_4 O9_2 1_555 1_555
C3_4 C5_4 1_555 1_555
C6_2 C5_4 1_555 1_555
H5_2 C6_2 1_555 1_555
C7_2 C1_4 1_555 1_555
O5 C7_2 1_555 1_555
C6_2 C7_2 1_555 1_555
O2_2 C3_5 1_555 1_555
C1_5 O9_3 1_555 1_555
C3_5 C5_5 1_555 1_555
C6_3 C5_5 1_555 1_555
H5_3 C6_3 1_555 1_555
C7_3 C1_5 1_555 1_555
O5_2 C7_3 1_555 1_555
C6_3 C7_3 1_555 1_555
Ni3 O1_3 1_555 1_555
O1_3 H1_3 1_555 1_555
O9_4 Ni3 1_555 1_555
C1_6 O9_4 1_555 1_555
C2_3 H2_3 1_555 1_555
C3_6 C5_6 1_555 1_555
C4_3 O1_3 1_555 1_555
C5_6 C2_3 1_555 1_555
O8_2 C3_6 1_555 1_555
C1_6 C4_3 1_555 1_555
C2_3 C4_3 1_555 1_555
O4 H6_3 1_555 1_555
O1_3 H6_4 1_555 1_555
O1_2 H6_5 1_555 1_555
O1 H6_6 1_555 1_555

#END
