
###############################################################################
#
# This file contains modified crystal structure data generated from the
# MOF subset of the Cambridge Structural Database (CSD) v543 
# hosted by the Cambridge Crystallographic Data Centre (CCDC).
#
# This work is licensed under the Creative Commons
# Attribution-NonCommercial-ShareAlike 4.0 International License.
# To view a copy of this license, visit
# http://creativecommons.org/licenses/by-nc-sa/4.0/
# or send a letter to
# Creative Commons, PO Box 1866, Mountain View, CA 94042, USA.
#
# CIF created using the CSD Python API on 29 September 2022
# The structure has been converted into the P1 space group
# The structure has a 3D framework
# The original CSD entry GENCEK is in the rhombohedral crystal system
# The framework has been calculated to contain at least 10.0% void space
# The void calculation uses a probe of radius 1.32A, grid spacing 0.4
#
###############################################################################

data_GENCEK
_chemical_formula_moiety         '(C612 H324 Cu36 N36 O144)n'
_symmetry_cell_setting           triclinic
_symmetry_space_group_name_H-M   'P 1'
_symmetry_Int_Tables_number      1
_space_group_name_Hall           'P 1'
loop_
_symmetry_equiv_pos_site_id
_symmetry_equiv_pos_as_xyz
1 x,y,z
_cell_length_a                   18.6789(8)
_cell_length_b                   18.6789(8)
_cell_length_c                   69.259(11)
_cell_angle_alpha                90
_cell_angle_beta                 90
_cell_angle_gamma                120
_cell_volume                     20927.1
loop_
_atom_site_label
_atom_site_type_symbol
_atom_site_fract_x
_atom_site_fract_y
_atom_site_fract_z
O3 O 0.20024(16) 0.30044(14) 0.05731(3)
O4 O 0.17411(16) 0.23091(15) 0.08502(3)
H3 H 0.5563 0.1892 0.0013
H5 H 0.2622 0.2096 0.0003
C8 C 0.3452(2) 0.1863(2) 0.01475(5)
C9 C 0.4163(3) 0.1843(3) 0.01221(5)
H6 H 0.4406 0.1728 0.0230
C10 C 0.3011(2) 0.1652(2) 0.03369(5)
C11 C 0.2899(2) 0.0964(2) 0.04373(5)
H7 H 0.3109 0.0635 0.0385
C12 C 0.2487(2) 0.0744(2) 0.06124(5)
C13 C 0.2199(2) 0.1235(2) 0.06918(5)
H8 H 0.1927 0.1096 0.0813
C14 C 0.2309(2) 0.1928(2) 0.05938(5)
C15 C 0.2705(2) 0.2128(2) 0.04147(5)
H9 H 0.2765 0.2595 0.0346
C17 C 0.1989(2) 0.2453(2) 0.06792(5)
Cu2 Cu 0.12418(2) 0.28697(3) 0.09963(2)
Cu4 Cu 0.17054(2) 0.37970(3) 0.06704(2)
N1 N 0.45138(17) 0.22712(17) 0.95971(4)
C1 C 0.5197(2) 0.2232(3) 0.95748(5)
H1 H 0.5423 0.2303 0.9449
C2 C 0.5605(3) 0.2092(3) 0.97282(6)
H2 H 0.6099 0.2076 0.9705
C3 C 0.5289(3) 0.1979(3) 0.99076(6)
C4 C 0.4553(2) 0.1991(2) 0.99385(5)
C5 C 0.4187(2) 0.2158(2) 0.97797(5)
C6 C 0.3458(2) 0.2192(3) 0.98080(5)
H4 H 0.3210 0.2308 0.9702
C7 C 0.3106(3) 0.2058(3) 0.99863(5)
Cu5 Cu 0.37970(3) 0.20915(2) 0.93296(2)
Cu1 Cu 0.16279(2) 0.87582(2) 0.09963(2)
O1 O 0.19411(15) 0.98045(14) 0.08716(3)
O2 O 0.24828(15) 0.94829(14) 0.06191(3)
C16 C 0.2292(2) 0.9949(2) 0.07099(5)
N2 N 0.10907(24) 0.89379(17) 0.12638(4)
Cu3 Cu 0.20915(2) 0.82946(2) 0.06704(2)
O5 O 0.28162(14) 0.91495(15) 0.10476(3)
O6 O 0.13309(16) 0.76687(21) 0.10936(3)
O7 O 0.05680(22) 0.82589(16) 0.08502(3)
O1_2 O 0.01955(14) 0.21366(21) 0.08716(3)
O2_2 O 0.05171(14) 0.29999(21) 0.06191(3)
C16_2 C 0.0051(2) 0.2343(3) 0.07099(5)
N2_2 N 0.10621(17) 0.21529(29) 0.12638(4)
O5_2 O 0.08505(15) 0.36668(21) 0.10476(3)
O6_2 O 0.23313(21) 0.36623(26) 0.10936(3)
N1_2 N 0.77288(17) 0.22426(24) 0.95971(4)
C1_2 C 0.7768(3) 0.2965(4) 0.95748(5)
H1_2 H 0.7697 0.3120 0.9449
C2_2 C 0.7908(3) 0.3513(4) 0.97282(6)
H2_2 H 0.7924 0.4023 0.9705
C3_2 C 0.8021(3) 0.3310(4) 0.99076(6)
C4_2 C 0.8009(2) 0.2562(3) 0.99385(5)
C5_2 C 0.7842(2) 0.2029(3) 0.97797(5)
C6_2 C 0.7808(3) 0.1266(4) 0.98080(5)
H4_2 H 0.7692 0.0902 0.9702
C7_2 C 0.7942(3) 0.1048(4) 0.99863(5)
Cu5_2 Cu 0.79085(2) 0.17054(4) 0.93296(2)
O3_2 O 0.69956(14) 0.89980(21) 0.05731(3)
O4_2 O 0.76909(15) 0.94320(22) 0.08502(3)
C17_2 C 0.7547(2) 0.9536(3) 0.06792(5)
Cu2_2 Cu 0.71303(3) 0.83721(4) 0.09963(2)
Cu4_2 Cu 0.62030(3) 0.79085(4) 0.06704(2)
O3_3 O 0.10020(21) 0.79976(16) 0.05731(3)
C17_3 C 0.0464(3) 0.8011(2) 0.06792(5)
O1_3 O 0.78634(21) 0.80589(15) 0.08716(3)
O2_3 O 0.70001(21) 0.75172(15) 0.06191(3)
H3_2 H 0.6329 0.4437 0.0013
H5_2 H 0.9474 0.7378 0.0003
C8_2 C 0.8411(3) 0.6548(2) 0.01475(5)
C9_2 C 0.7680(4) 0.5837(3) 0.01221(5)
H6_2 H 0.7322 0.5594 0.0230
C10_2 C 0.8641(3) 0.6989(2) 0.03369(5)
C11_2 C 0.8065(3) 0.7101(2) 0.04373(5)
H7_2 H 0.7526 0.6891 0.0385
C12_2 C 0.8257(3) 0.7513(2) 0.06124(5)
C13_2 C 0.9036(3) 0.7801(2) 0.06918(5)
H8_2 H 0.9169 0.8073 0.0813
C14_2 C 0.9619(3) 0.7691(2) 0.05938(5)
C15_2 C 0.9423(3) 0.7295(2) 0.04147(5)
H9_2 H 0.9830 0.7235 0.0346
C16_3 C 0.7657(3) 0.7708(2) 0.07099(5)
N2_3 N 0.78471(29) 0.89093(24) 0.12638(4)
O5_3 O 0.63332(21) 0.71838(14) 0.10476(3)
O6_3 O 0.63377(26) 0.86691(16) 0.10936(3)
N1_3 N 0.77574(24) 0.54862(17) 0.95971(4)
C1_3 C 0.7035(4) 0.4803(2) 0.95748(5)
H1_3 H 0.6880 0.4577 0.9449
C2_3 C 0.6487(4) 0.4395(3) 0.97282(6)
H2_3 H 0.5977 0.3901 0.9705
C3_3 C 0.6690(4) 0.4711(3) 0.99076(6)
C4_3 C 0.7438(3) 0.5447(2) 0.99385(5)
C5_3 C 0.7971(3) 0.5813(2) 0.97797(5)
C6_3 C 0.8734(4) 0.6542(2) 0.98080(5)
H4_3 H 0.9098 0.6790 0.9702
C7_3 C 0.8952(4) 0.6894(3) 0.99863(5)
Cu5_3 Cu 0.82946(4) 0.62030(3) 0.93296(2)
N1_4 N 0.22712(17) 0.45138(17) 0.54029(4)
O3_4 O 0.30044(14) 0.20024(16) 0.44269(3)
O4_3 O 0.23091(15) 0.17411(16) 0.41498(3)
C1_4 C 0.2232(3) 0.5197(2) 0.54252(5)
H1_4 H 0.2303 0.5423 0.5551
C2_4 C 0.2092(3) 0.5605(3) 0.52718(6)
H2_4 H 0.2076 0.6099 0.5295
C3_4 C 0.1979(3) 0.5289(3) 0.50924(6)
H3_3 H 0.1892 0.5563 0.4987
C4_4 C 0.1991(2) 0.4553(2) 0.50615(5)
C5_4 C 0.2158(2) 0.4187(2) 0.52203(5)
C6_4 C 0.2192(3) 0.3458(2) 0.51920(5)
H4_4 H 0.2308 0.3210 0.5298
C7_4 C 0.2058(3) 0.3106(3) 0.50137(5)
H5_3 H 0.2096 0.2622 0.4997
C8_3 C 0.1863(2) 0.3452(2) 0.48525(5)
C9_3 C 0.1843(3) 0.4163(3) 0.48779(5)
H6_3 H 0.1728 0.4406 0.4770
C10_3 C 0.1652(2) 0.3011(2) 0.46631(5)
C11_3 C 0.0964(2) 0.2899(2) 0.45627(5)
H7_3 H 0.0635 0.3109 0.4615
C12_3 C 0.0744(2) 0.2487(2) 0.43876(5)
C13_3 C 0.1235(2) 0.2199(2) 0.43082(5)
H8_3 H 0.1096 0.1927 0.4187
C14_3 C 0.1928(2) 0.2309(2) 0.44062(5)
C15_3 C 0.2128(2) 0.2705(2) 0.45853(5)
H9_3 H 0.2595 0.2765 0.4654
C17_4 C 0.2453(2) 0.1989(2) 0.43208(5)
Cu2_3 Cu 0.28697(3) 0.12418(2) 0.40037(2)
Cu4_3 Cu 0.37970(3) 0.17054(2) 0.43296(2)
Cu5_4 Cu 0.20915(2) 0.37970(3) 0.56704(2)
Cu1_2 Cu 0.87582(2) 0.16279(2) 0.40037(2)
O1_4 O 0.98045(14) 0.19411(15) 0.41284(3)
O2_4 O 0.94829(14) 0.24828(15) 0.43809(3)
C16_4 C 0.9949(2) 0.2292(2) 0.42901(5)
N2_4 N 0.89379(17) 0.10907(24) 0.37362(4)
Cu3_2 Cu 0.82946(2) 0.20915(2) 0.43296(2)
O5_4 O 0.91495(15) 0.28162(14) 0.39524(3)
O6_4 O 0.76687(21) 0.13309(16) 0.39064(3)
O7_2 O 0.82589(16) 0.05680(22) 0.41498(3)
O3_5 O 0.79976(16) 0.10020(21) 0.44269(3)
C17_5 C 0.8011(2) 0.0464(3) 0.43208(5)
N1_5 N 0.54862(17) 0.77574(24) 0.54029(4)
Cu1_3 Cu 0.83721(2) 0.71303(3) 0.40037(2)
O1_5 O 0.80589(15) 0.78634(21) 0.41284(3)
O2_5 O 0.75172(15) 0.70001(21) 0.43809(3)
C1_5 C 0.4803(2) 0.7035(4) 0.54252(5)
H1_5 H 0.4577 0.6880 0.5551
C2_5 C 0.4395(3) 0.6487(4) 0.52718(6)
H2_5 H 0.3901 0.5977 0.5295
C3_5 C 0.4711(3) 0.6690(4) 0.50924(6)
H3_4 H 0.4437 0.6329 0.4987
C4_5 C 0.5447(2) 0.7438(3) 0.50615(5)
C5_5 C 0.5813(2) 0.7971(3) 0.52203(5)
C6_5 C 0.6542(2) 0.8734(4) 0.51920(5)
H4_5 H 0.6790 0.9098 0.5298
C7_5 C 0.6894(3) 0.8952(4) 0.50137(5)
H5_4 H 0.7378 0.9474 0.4997
C8_4 C 0.6548(2) 0.8411(3) 0.48525(5)
C9_4 C 0.5837(3) 0.7680(4) 0.48779(5)
H6_4 H 0.5594 0.7322 0.4770
C10_4 C 0.6989(2) 0.8641(3) 0.46631(5)
C11_4 C 0.7101(2) 0.8065(3) 0.45627(5)
H7_4 H 0.6891 0.7526 0.4615
C12_4 C 0.7513(2) 0.8257(3) 0.43876(5)
C13_4 C 0.7801(2) 0.9036(3) 0.43082(5)
H8_4 H 0.8073 0.9169 0.4187
C14_4 C 0.7691(2) 0.9619(3) 0.44062(5)
C15_4 C 0.7295(2) 0.9423(3) 0.45853(5)
H9_4 H 0.7235 0.9830 0.4654
C16_5 C 0.7708(2) 0.7657(3) 0.42901(5)
N2_5 N 0.89093(24) 0.78471(29) 0.37362(4)
Cu3_3 Cu 0.79085(2) 0.62030(3) 0.43296(2)
Cu5_5 Cu 0.62030(3) 0.82946(4) 0.56704(2)
O5_5 O 0.71838(14) 0.63332(21) 0.39524(3)
O6_5 O 0.86691(16) 0.63377(26) 0.39064(3)
O7_3 O 0.94320(22) 0.76909(27) 0.41498(3)
O1_6 O 0.21366(21) 0.01955(14) 0.41284(3)
O2_6 O 0.29999(21) 0.05171(14) 0.43809(3)
C16_6 C 0.2343(3) 0.0051(2) 0.42901(5)
N2_6 N 0.21529(29) 0.10621(17) 0.37362(4)
O5_6 O 0.36668(21) 0.08505(15) 0.39524(3)
O6_6 O 0.36623(26) 0.23313(21) 0.39064(3)
N1_6 N 0.22426(24) 0.77288(17) 0.54029(4)
C1_6 C 0.2965(4) 0.7768(3) 0.54252(5)
H1_6 H 0.3120 0.7697 0.5551
C2_6 C 0.3513(4) 0.7908(3) 0.52718(6)
H2_6 H 0.4023 0.7924 0.5295
C3_6 C 0.3310(4) 0.8021(3) 0.50924(6)
H3_5 H 0.3671 0.8108 0.4987
C4_6 C 0.2562(3) 0.8009(2) 0.50615(5)
C5_6 C 0.2029(3) 0.7842(2) 0.52203(5)
C6_6 C 0.1266(4) 0.7808(3) 0.51920(5)
H4_6 H 0.0902 0.7692 0.5298
C7_6 C 0.1048(4) 0.7942(3) 0.50137(5)
H5_5 H 0.0526 0.7904 0.4997
C8_5 C 0.1589(3) 0.8137(2) 0.48525(5)
C9_5 C 0.2320(4) 0.8157(3) 0.48779(5)
H6_5 H 0.2678 0.8272 0.4770
C10_5 C 0.1359(3) 0.8348(2) 0.46631(5)
C11_5 C 0.1935(3) 0.9036(2) 0.45627(5)
H7_5 H 0.2474 0.9365 0.4615
C12_5 C 0.1743(3) 0.9256(2) 0.43876(5)
C13_5 C 0.0964(3) 0.8765(2) 0.43082(5)
H8_5 H 0.0831 0.8904 0.4187
C14_5 C 0.0381(3) 0.8072(2) 0.44062(5)
C15_5 C 0.0577(3) 0.7872(2) 0.45853(5)
H9_5 H 0.0170 0.7405 0.4654
Cu5_6 Cu 0.17054(4) 0.79085(2) 0.56704(2)
O3_6 O 0.89980(21) 0.69956(14) 0.44269(3)
C17_6 C 0.9536(3) 0.7547(2) 0.43208(5)
N1_7 N 0.11805(17) 0.56045(17) 0.29304(4)
C1_7 C 0.1864(2) 0.5565(3) 0.29081(5)
H1_7 H 0.2090 0.5636 0.2782
C2_7 C 0.2272(3) 0.5425(3) 0.30615(6)
H2_7 H 0.2766 0.5409 0.3038
C3_7 C 0.1956(3) 0.5312(3) 0.32409(6)
H3_6 H 0.2230 0.5225 0.3346
C4_7 C 0.1220(2) 0.5324(2) 0.32718(5)
C5_7 C 0.0854(2) 0.5491(2) 0.31130(5)
C6_7 C 0.0125(2) 0.5525(3) 0.31413(5)
C8_6 C 0.0119(2) 0.5196(2) 0.34808(5)
C9_6 C 0.0830(3) 0.5176(3) 0.34554(5)
H6_6 H 0.1073 0.5061 0.3563
Cu5_7 Cu 0.04636(3) 0.54249(2) 0.26630(2)
O1_7 O 0.86078(15) 0.31378(14) 0.42049(3)
O4_4 O 0.84078(16) 0.56424(15) 0.41835(3)
H4_7 H 0.9877 0.5641 0.3035
C7_7 C 0.9773(3) 0.5391(3) 0.33196(5)
H5_6 H 0.9289 0.5429 0.3336
C10_6 C 0.9678(2) 0.4985(2) 0.36702(5)
C11_6 C 0.9566(2) 0.4297(2) 0.37706(5)
H7_6 H 0.9776 0.3968 0.3718
C12_6 C 0.9154(2) 0.4077(2) 0.39457(5)
C13_6 C 0.8866(2) 0.4568(2) 0.40251(5)
H8_6 H 0.8594 0.4429 0.4146
C14_6 C 0.8976(2) 0.5261(2) 0.39271(5)
C15_6 C 0.9372(2) 0.5461(2) 0.37480(5)
H9_6 H 0.9432 0.5928 0.3679
C16_7 C 0.8959(2) 0.3282(2) 0.40432(5)
C17_7 C 0.8656(2) 0.5786(2) 0.40125(5)
N2_7 N 0.77574(24) 0.22712(17) 0.45971(4)
O7_4 O 0.72347(22) 0.15922(16) 0.41835(3)
N1_8 N 0.43955(17) 0.55759(24) 0.29304(4)
O1_8 O 0.68622(14) 0.54699(21) 0.42049(3)
O4_5 O 0.43576(15) 0.27653(22) 0.41835(3)
C1_8 C 0.4435(3) 0.6298(4) 0.29081(5)
H1_8 H 0.4364 0.6453 0.2782
C2_8 C 0.4575(3) 0.6846(4) 0.30615(6)
H2_8 H 0.4591 0.7356 0.3038
C3_8 C 0.4688(3) 0.6643(4) 0.32409(6)
H3_7 H 0.4775 0.7004 0.3346
C4_8 C 0.4676(2) 0.5895(3) 0.32718(5)
C5_8 C 0.4509(2) 0.5362(3) 0.31130(5)
C6_8 C 0.4475(3) 0.4599(4) 0.31413(5)
H4_8 H 0.4359 0.4235 0.3035
C7_8 C 0.4609(3) 0.4381(4) 0.33196(5)
H5_7 H 0.4571 0.3859 0.3336
C8_7 C 0.4804(2) 0.4922(3) 0.34808(5)
C9_7 C 0.4824(3) 0.5653(4) 0.34554(5)
H6_7 H 0.4939 0.6011 0.3563
C10_7 C 0.5015(2) 0.4692(3) 0.36702(5)
C11_7 C 0.5703(2) 0.5268(3) 0.37706(5)
H7_7 H 0.6032 0.5807 0.3718
C12_7 C 0.5923(2) 0.5076(3) 0.39457(5)
C13_7 C 0.5432(2) 0.4297(3) 0.40251(5)
H8_7 H 0.5571 0.4164 0.4146
C14_7 C 0.4739(2) 0.3714(3) 0.39271(5)
C15_7 C 0.4539(2) 0.3910(3) 0.37480(5)
H9_7 H 0.4072 0.3503 0.3679
C16_8 C 0.6718(2) 0.5676(3) 0.40432(5)
C17_8 C 0.4214(2) 0.2869(3) 0.40125(5)
N2_8 N 0.77288(17) 0.54862(29) 0.45971(4)
Cu5_8 Cu 0.45751(2) 0.50388(4) 0.26630(2)
O1_9 O 0.45301(21) 0.13922(15) 0.42049(3)
H4_9 H 0.5765 0.0123 0.3035
C7_9 C 0.5619(4) 0.0227(3) 0.33196(5)
H5_8 H 0.6141 0.0711 0.3336
C10_8 C 0.5308(3) 0.0322(2) 0.36702(5)
C11_8 C 0.4732(3) 0.0434(2) 0.37706(5)
H7_8 H 0.4193 0.0224 0.3718
C12_8 C 0.4924(3) 0.0846(2) 0.39457(5)
C13_8 C 0.5703(3) 0.1134(2) 0.40251(5)
H8_8 H 0.5836 0.1406 0.4146
C14_8 C 0.6286(3) 0.1024(2) 0.39271(5)
C15_8 C 0.6090(3) 0.0628(2) 0.37480(5)
H9_8 H 0.6497 0.0568 0.3679
C16_9 C 0.4324(3) 0.1041(2) 0.40432(5)
C17_9 C 0.7131(3) 0.1344(2) 0.40125(5)
N2_9 N 0.45138(29) 0.22426(24) 0.45971(4)
N1_9 N 0.44241(24) 0.88195(17) 0.29304(4)
C1_9 C 0.3702(4) 0.8136(2) 0.29081(5)
H1_9 H 0.3547 0.7910 0.2782
C2_9 C 0.3154(4) 0.7728(3) 0.30615(6)
H2_9 H 0.2644 0.7234 0.3038
C3_9 C 0.3357(4) 0.8044(3) 0.32409(6)
H3_8 H 0.2996 0.7770 0.3346
C4_9 C 0.4105(3) 0.8780(2) 0.32718(5)
C5_9 C 0.4638(3) 0.9146(2) 0.31130(5)
C6_9 C 0.5401(4) 0.9875(2) 0.31413(5)
C8_8 C 0.5078(3) 0.9881(2) 0.34808(5)
C9_8 C 0.4347(4) 0.9170(3) 0.34554(5)
H6_8 H 0.3989 0.8927 0.3563
Cu5_9 Cu 0.49612(4) 0.95364(3) 0.26630(2)
Cu4_4 Cu 0.04636(3) 0.50388(2) 0.76630(2)
N1_10 N 0.89379(17) 0.78471(17) 0.87362(4)
Cu1_4 Cu 0.54249(2) 0.49612(2) 0.73370(2)
O1_10 O 0.64712(14) 0.52744(15) 0.74617(3)
O2_7 O 0.61496(14) 0.58161(15) 0.77142(3)
O3_7 O 0.96711(14) 0.53357(16) 0.77602(3)
O4_6 O 0.89758(15) 0.50744(16) 0.74831(3)
C1_10 C 0.8899(3) 0.8530(2) 0.87585(5)
H1_10 H 0.8970 0.8756 0.8884
C2_10 C 0.8759(3) 0.8938(3) 0.86051(6)
H2_10 H 0.8743 0.9432 0.8628
C3_10 C 0.8646(3) 0.8622(3) 0.84257(6)
H3_9 H 0.8559 0.8896 0.8320
C4_10 C 0.8658(2) 0.7886(2) 0.83948(5)
C5_10 C 0.8825(2) 0.7520(2) 0.85536(5)
C6_10 C 0.8859(3) 0.6791(2) 0.85253(5)
H4_10 H 0.8975 0.6543 0.8631
C7_10 C 0.8725(3) 0.6439(3) 0.83470(5)
H5_9 H 0.8763 0.5955 0.8330
C8_9 C 0.8530(2) 0.6785(2) 0.81858(5)
C9_9 C 0.8510(3) 0.7496(3) 0.82112(5)
H6_9 H 0.8395 0.7739 0.8103
C10_9 C 0.8319(2) 0.6344(2) 0.79964(5)
C11_9 C 0.7631(2) 0.6232(2) 0.78960(5)
H7_9 H 0.7302 0.6442 0.7948
C12_9 C 0.7411(2) 0.5820(2) 0.77209(5)
C13_9 C 0.7902(2) 0.5532(2) 0.76415(5)
H8_9 H 0.7763 0.5260 0.7520
C14_9 C 0.8595(2) 0.5642(2) 0.77395(5)
C15_9 C 0.8795(2) 0.6038(2) 0.79186(5)
H9_9 H 0.9262 0.6098 0.7987
C16_10 C 0.6616(2) 0.5625(2) 0.76234(5)
C17_10 C 0.9120(2) 0.5322(2) 0.76541(5)
N2_10 N 0.56045(17) 0.44241(24) 0.70696(4)
Cu2_4 Cu 0.95364(3) 0.45751(2) 0.73370(2)
Cu3_4 Cu 0.49612(2) 0.54249(2) 0.76630(2)
Cu5_10 Cu 0.87582(2) 0.71303(3) 0.90037(2)
O5_7 O 0.58161(15) 0.61496(14) 0.72858(3)
O6_7 O 0.43353(21) 0.46643(16) 0.72398(3)
O7_5 O 0.49256(16) 0.39013(22) 0.74831(3)
N1_11 N 0.21529(17) 0.10907(24) 0.87362(4)
Cu1_5 Cu 0.50388(2) 0.04636(3) 0.73370(2)
O1_11 O 0.47256(15) 0.11967(21) 0.74617(3)
O2_8 O 0.41839(15) 0.03334(21) 0.77142(3)
O3_8 O 0.46643(16) 0.43353(21) 0.77602(3)
C1_11 C 0.1470(2) 0.0368(4) 0.87585(5)
H1_11 H 0.1244 0.0213 0.8884
C3_11 C 0.1378(3) 0.0023(4) 0.84257(6)
C4_11 C 0.2114(2) 0.0771(3) 0.83948(5)
C5_11 C 0.2480(2) 0.1304(3) 0.85536(5)
C6_11 C 0.3209(2) 0.2067(4) 0.85253(5)
H4_11 H 0.3457 0.2431 0.8631
C7_11 C 0.3561(3) 0.2285(4) 0.83470(5)
H5_10 H 0.4045 0.2807 0.8330
C8_10 C 0.3215(2) 0.1744(3) 0.81858(5)
C9_10 C 0.2504(3) 0.1013(4) 0.82112(5)
H6_10 H 0.2261 0.0655 0.8103
C10_10 C 0.3656(2) 0.1974(3) 0.79964(5)
C11_10 C 0.3768(2) 0.1398(3) 0.78960(5)
H7_10 H 0.3558 0.0859 0.7948
C12_10 C 0.4180(2) 0.1590(3) 0.77209(5)
C13_10 C 0.4468(2) 0.2369(3) 0.76415(5)
H8_10 H 0.4740 0.2502 0.7520
C14_10 C 0.4358(2) 0.2952(3) 0.77395(5)
C15_10 C 0.3962(2) 0.2756(3) 0.79186(5)
H9_10 H 0.3902 0.3163 0.7987
C16_11 C 0.4375(2) 0.0990(3) 0.76234(5)
C17_11 C 0.4678(2) 0.3797(3) 0.76541(5)
N2_11 N 0.55759(24) 0.11805(29) 0.70696(4)
Cu5_11 Cu 0.28697(3) 0.16279(4) 0.90037(2)
O7_6 O 0.60987(22) 0.10242(27) 0.74831(3)
C2_11 C 0.1062(3) 0.9820(4) 0.86051(6)
H2_11 H 0.0568 0.9310 0.8628
H3_10 H 0.1104 0.9662 0.8320
Cu3_5 Cu 0.45751(2) 0.95364(3) 0.76630(2)
O5_8 O 0.38504(14) 0.96666(21) 0.72858(3)
O6_8 O 0.53357(16) 0.96711(26) 0.72398(3)
C2_12 C 0.0180(4) 0.1241(3) 0.86051(6)
H2_12 H 0.0690 0.1257 0.8628
H3_11 H 0.0338 0.1441 0.8320
O5_9 O 0.03334(21) 0.41839(15) 0.72858(3)
O6_9 O 0.03289(26) 0.56647(21) 0.72398(3)
N1_12 N 0.89093(24) 0.10621(17) 0.87362(4)
O1_12 O 0.88033(21) 0.35288(14) 0.74617(3)
O2_9 O 0.96666(21) 0.38504(14) 0.77142(3)
O3_9 O 0.56647(21) 0.03289(14) 0.77602(3)
C1_12 C 0.9632(4) 0.1101(3) 0.87585(5)
H1_12 H 0.9787 0.1030 0.8884
C3_12 C 0.9977(4) 0.1354(3) 0.84257(6)
C4_12 C 0.9229(3) 0.1342(2) 0.83948(5)
C5_12 C 0.8696(3) 0.1175(2) 0.85536(5)
C6_12 C 0.7933(4) 0.1141(3) 0.85253(5)
H4_12 H 0.7569 0.1025 0.8631
C7_12 C 0.7715(4) 0.1275(3) 0.83470(5)
H5_11 H 0.7193 0.1237 0.8330
C8_11 C 0.8256(3) 0.1470(2) 0.81858(5)
C9_11 C 0.8987(4) 0.1490(3) 0.82112(5)
H6_11 H 0.9345 0.1605 0.8103
C10_11 C 0.8026(3) 0.1681(2) 0.79964(5)
C11_11 C 0.8602(3) 0.2369(2) 0.78960(5)
H7_11 H 0.9141 0.2698 0.7948
C12_11 C 0.8410(3) 0.2589(2) 0.77209(5)
C13_11 C 0.7631(3) 0.2098(2) 0.76415(5)
H8_11 H 0.7498 0.2237 0.7520
C14_11 C 0.7048(3) 0.1405(2) 0.77395(5)
C15_11 C 0.7244(3) 0.1205(2) 0.79186(5)
H9_11 H 0.6837 0.0738 0.7987
C16_12 C 0.9010(3) 0.3384(2) 0.76234(5)
C17_12 C 0.6203(3) 0.0880(2) 0.76541(5)
N2_12 N 0.88195(29) 0.43955(17) 0.70696(4)
Cu5_12 Cu 0.83721(4) 0.12418(2) 0.90037(2)
N1_13 N 0.78471(17) 0.89379(17) 0.62638(4)
O1_13 O 0.52744(15) 0.64712(14) 0.75383(3)
O4_7 O 0.50744(16) 0.89758(15) 0.75169(3)
C1_13 C 0.8530(2) 0.8899(3) 0.62415(5)
H1_13 H 0.8756 0.8970 0.6116
C2_13 C 0.8938(3) 0.8759(3) 0.63949(6)
H2_13 H 0.9432 0.8743 0.6372
C3_13 C 0.8622(3) 0.8646(3) 0.65743(6)
H3_12 H 0.8896 0.8559 0.6680
C4_13 C 0.7886(2) 0.8658(2) 0.66052(5)
C5_13 C 0.7520(2) 0.8825(2) 0.64464(5)
C6_13 C 0.6791(2) 0.8859(3) 0.64747(5)
H4_13 H 0.6543 0.8975 0.6369
C7_13 C 0.6439(3) 0.8725(3) 0.66530(5)
H5_12 H 0.5955 0.8763 0.6670
C8_12 C 0.6785(2) 0.8530(2) 0.68142(5)
C9_12 C 0.7496(3) 0.8510(3) 0.67888(5)
H6_12 H 0.7739 0.8395 0.6897
C10_12 C 0.6344(2) 0.8319(2) 0.70036(5)
C11_12 C 0.6232(2) 0.7631(2) 0.71040(5)
H7_12 H 0.6442 0.7302 0.7052
C12_12 C 0.5820(2) 0.7411(2) 0.72791(5)
C13_12 C 0.5532(2) 0.7902(2) 0.73585(5)
H8_12 H 0.5260 0.7763 0.7480
C14_12 C 0.5642(2) 0.8595(2) 0.72605(5)
C15_12 C 0.6038(2) 0.8795(2) 0.70814(5)
H9_12 H 0.6098 0.9262 0.7013
C16_13 C 0.5625(2) 0.6616(2) 0.73766(5)
C17_13 C 0.5322(2) 0.9120(2) 0.73459(5)
N2_13 N 0.44241(24) 0.56045(17) 0.79304(4)
Cu5_13 Cu 0.71303(3) 0.87582(2) 0.59963(2)
O7_7 O 0.39013(22) 0.49256(16) 0.75169(3)
C2_14 C 0.1241(3) 0.0180(4) 0.63949(6)
H2_14 H 0.1257 0.0690 0.6372
H3_13 H 0.1441 0.0338 0.6680
N1_14 N 0.10621(17) 0.89093(24) 0.62638(4)
O1_14 O 0.35288(14) 0.88033(21) 0.75383(3)
O4_8 O 0.10242(15) 0.60987(22) 0.75169(3)
C1_14 C 0.1101(3) 0.9632(4) 0.62415(5)
H1_14 H 0.1030 0.9787 0.6116
C3_14 C 0.1354(3) 0.9977(4) 0.65743(6)
C4_14 C 0.1342(2) 0.9229(3) 0.66052(5)
C5_14 C 0.1175(2) 0.8696(3) 0.64464(5)
C6_14 C 0.1141(3) 0.7933(4) 0.64747(5)
H4_14 H 0.1025 0.7569 0.6369
C7_14 C 0.1275(3) 0.7715(4) 0.66530(5)
H5_13 H 0.1237 0.7193 0.6670
C8_13 C 0.1470(2) 0.8256(3) 0.68142(5)
C9_13 C 0.1490(3) 0.8987(4) 0.67888(5)
H6_13 H 0.1605 0.9345 0.6897
C10_13 C 0.1681(2) 0.8026(3) 0.70036(5)
C11_13 C 0.2369(2) 0.8602(3) 0.71040(5)
H7_13 H 0.2698 0.9141 0.7052
C12_13 C 0.2589(2) 0.8410(3) 0.72791(5)
C13_13 C 0.2098(2) 0.7631(3) 0.73585(5)
H8_13 H 0.2237 0.7498 0.7480
C14_13 C 0.1405(2) 0.7048(3) 0.72605(5)
C15_13 C 0.1205(2) 0.7244(3) 0.70814(5)
H9_13 H 0.0738 0.6837 0.7013
C16_14 C 0.3384(2) 0.9010(3) 0.73766(5)
C17_14 C 0.0880(2) 0.6203(3) 0.73459(5)
N2_14 N 0.43955(17) 0.88195(29) 0.79304(4)
Cu5_14 Cu 0.12418(2) 0.83721(4) 0.59963(2)
N1_15 N 0.10907(24) 0.21529(17) 0.62638(4)
O1_15 O 0.11967(21) 0.47256(15) 0.75383(3)
C1_15 C 0.0368(4) 0.1470(2) 0.62415(5)
H1_15 H 0.0213 0.1244 0.6116
C3_15 C 0.0023(4) 0.1378(3) 0.65743(6)
C4_15 C 0.0771(3) 0.2114(2) 0.66052(5)
C5_15 C 0.1304(3) 0.2480(2) 0.64464(5)
C6_15 C 0.2067(4) 0.3209(2) 0.64747(5)
H4_15 H 0.2431 0.3457 0.6369
C7_15 C 0.2285(4) 0.3561(3) 0.66530(5)
H5_14 H 0.2807 0.4045 0.6670
C8_14 C 0.1744(3) 0.3215(2) 0.68142(5)
C9_14 C 0.1013(4) 0.2504(3) 0.67888(5)
H6_14 H 0.0655 0.2261 0.6897
C10_14 C 0.1974(3) 0.3656(2) 0.70036(5)
C11_14 C 0.1398(3) 0.3768(2) 0.71040(5)
H7_14 H 0.0859 0.3558 0.7052
C12_14 C 0.1590(3) 0.4180(2) 0.72791(5)
C13_14 C 0.2369(3) 0.4468(2) 0.73585(5)
H8_14 H 0.2502 0.4740 0.7480
C14_14 C 0.2952(3) 0.4358(2) 0.72605(5)
C15_14 C 0.2756(3) 0.3962(2) 0.70814(5)
H9_14 H 0.3163 0.3902 0.7013
C16_15 C 0.0990(3) 0.4375(2) 0.73766(5)
C17_15 C 0.3797(3) 0.4678(2) 0.73459(5)
N2_15 N 0.11805(29) 0.55759(24) 0.79304(4)
Cu5_15 Cu 0.16279(4) 0.28697(3) 0.59963(2)
C2_15 C 0.9820(4) 0.1062(3) 0.63949(6)
H2_15 H 0.9310 0.0568 0.6372
H3_14 H 0.9662 0.1104 0.6680
N1_16 N 0.56045(17) 0.11805(17) 0.20696(4)
C1_16 C 0.5565(3) 0.1864(2) 0.20919(5)
H1_16 H 0.5636 0.2090 0.2218
C2_16 C 0.5425(3) 0.2272(3) 0.19385(6)
H2_16 H 0.5409 0.2766 0.1962
C3_16 C 0.5312(3) 0.1956(3) 0.17591(6)
H3_15 H 0.5225 0.2230 0.1654
C4_16 C 0.5324(2) 0.1220(2) 0.17282(5)
C5_16 C 0.5491(2) 0.0854(2) 0.18870(5)
C6_16 C 0.5525(3) 0.0125(2) 0.18587(5)
C8_15 C 0.5196(2) 0.0119(2) 0.15192(5)
C9_15 C 0.5176(3) 0.0830(3) 0.15446(5)
H6_15 H 0.5061 0.1073 0.1437
Cu5_16 Cu 0.54249(2) 0.04636(3) 0.23370(2)
O1_16 O 0.31378(14) 0.86078(15) 0.07951(3)
O4_9 O 0.56424(15) 0.84078(16) 0.08165(3)
H4_16 H 0.5641 0.9877 0.1965
C7_16 C 0.5391(3) 0.9773(3) 0.16804(5)
H5_15 H 0.5429 0.9289 0.1664
C10_15 C 0.4985(2) 0.9678(2) 0.13298(5)
C11_15 C 0.4297(2) 0.9566(2) 0.12294(5)
H7_15 H 0.3968 0.9776 0.1282
C12_15 C 0.4077(2) 0.9154(2) 0.10543(5)
C13_15 C 0.4568(2) 0.8866(2) 0.09749(5)
H8_15 H 0.4429 0.8594 0.0854
C14_15 C 0.5261(2) 0.8976(2) 0.10729(5)
C15_15 C 0.5461(2) 0.9372(2) 0.12520(5)
H9_15 H 0.5928 0.9432 0.1321
C16_16 C 0.3282(2) 0.8959(2) 0.09568(5)
C17_16 C 0.5786(2) 0.8656(2) 0.09875(5)
N2_16 N 0.22712(17) 0.77574(24) 0.04029(4)
O7_8 O 0.15922(16) 0.72347(22) 0.08165(3)
O1_17 O 0.13922(15) 0.45301(21) 0.07951(3)
H4_17 H 0.0123 0.5765 0.1965
C7_17 C 0.0227(3) 0.5619(4) 0.16804(5)
H5_16 H 0.0711 0.6141 0.1664
C10_16 C 0.0322(2) 0.5308(3) 0.13298(5)
C11_16 C 0.0434(2) 0.4732(3) 0.12294(5)
H7_16 H 0.0224 0.4193 0.1282
C12_16 C 0.0846(2) 0.4924(3) 0.10543(5)
C13_16 C 0.1134(2) 0.5703(3) 0.09749(5)
H8_16 H 0.1406 0.5836 0.0854
C14_16 C 0.1024(2) 0.6286(3) 0.10729(5)
C15_16 C 0.0628(2) 0.6090(3) 0.12520(5)
H9_16 H 0.0568 0.6497 0.1321
C16_17 C 0.1041(2) 0.4324(3) 0.09568(5)
C17_17 C 0.1344(2) 0.7131(3) 0.09875(5)
N2_17 N 0.22426(24) 0.45138(29) 0.04029(4)
O7_9 O 0.27653(22) 0.43576(27) 0.08165(3)
N1_17 N 0.88195(17) 0.44241(24) 0.20696(4)
C1_17 C 0.8136(2) 0.3702(4) 0.20919(5)
H1_17 H 0.7910 0.3547 0.2218
C2_17 C 0.7728(3) 0.3154(4) 0.19385(6)
H2_17 H 0.7234 0.2644 0.1962
C3_17 C 0.8044(3) 0.3357(4) 0.17591(6)
H3_16 H 0.7770 0.2996 0.1654
C4_17 C 0.8780(2) 0.4105(3) 0.17282(5)
C5_17 C 0.9146(2) 0.4638(3) 0.18870(5)
C6_17 C 0.9875(2) 0.5401(4) 0.18587(5)
C8_16 C 0.9881(2) 0.5078(3) 0.15192(5)
C9_16 C 0.9170(3) 0.4347(4) 0.15446(5)
H6_16 H 0.8927 0.3989 0.1437
Cu5_17 Cu 0.95364(3) 0.49612(4) 0.23370(2)
N1_18 N 0.55759(24) 0.43955(17) 0.20696(4)
O1_18 O 0.54699(21) 0.68622(14) 0.07951(3)
C1_18 C 0.6298(4) 0.4435(3) 0.20919(5)
H1_18 H 0.6453 0.4364 0.2218
C2_18 C 0.6846(4) 0.4575(3) 0.19385(6)
H2_18 H 0.7356 0.4591 0.1962
C3_18 C 0.6643(4) 0.4688(3) 0.17591(6)
H3_17 H 0.7004 0.4775 0.1654
C4_18 C 0.5895(3) 0.4676(2) 0.17282(5)
C5_18 C 0.5362(3) 0.4509(2) 0.18870(5)
C6_18 C 0.4599(4) 0.4475(3) 0.18587(5)
H4_18 H 0.4235 0.4359 0.1965
C7_18 C 0.4381(4) 0.4609(3) 0.16804(5)
H5_17 H 0.3859 0.4571 0.1664
C8_17 C 0.4922(3) 0.4804(2) 0.15192(5)
C9_17 C 0.5653(4) 0.4824(3) 0.15446(5)
H6_17 H 0.6011 0.4939 0.1437
C10_17 C 0.4692(3) 0.5015(2) 0.13298(5)
C11_17 C 0.5268(3) 0.5703(2) 0.12294(5)
H7_17 H 0.5807 0.6032 0.1282
C12_17 C 0.5076(3) 0.5923(2) 0.10543(5)
C13_17 C 0.4297(3) 0.5432(2) 0.09749(5)
H8_17 H 0.4164 0.5571 0.0854
C14_17 C 0.3714(3) 0.4739(2) 0.10729(5)
C15_17 C 0.3910(3) 0.4539(2) 0.12520(5)
H9_17 H 0.3503 0.4072 0.1321
C16_18 C 0.5676(3) 0.6718(2) 0.09568(5)
C17_18 C 0.2869(3) 0.4214(2) 0.09875(5)
N2_18 N 0.54862(29) 0.77288(17) 0.04029(4)
Cu5_18 Cu 0.50388(4) 0.45751(2) 0.23370(2)
O1_19 O 0.80589(15) 0.01955(14) 0.91284(3)
O2_10 O 0.75172(15) 0.05171(14) 0.93809(3)
C16_19 C 0.7708(2) 0.0051(2) 0.92901(5)
O5_10 O 0.71838(14) 0.08505(15) 0.89524(3)
O6_10 O 0.86691(16) 0.23313(21) 0.89064(3)
O7_10 O 0.94320(22) 0.17411(16) 0.91498(3)
C1_19 C 0.4803(2) 0.7768(3) 0.04252(5)
H1_19 H 0.4577 0.7697 0.0551
C2_19 C 0.4395(3) 0.7908(3) 0.02718(6)
H2_19 H 0.3901 0.7924 0.0295
C3_19 C 0.4711(3) 0.8021(3) 0.00924(6)
C4_19 C 0.5447(2) 0.8009(2) 0.00615(5)
C5_19 C 0.5813(2) 0.7842(2) 0.02203(5)
C6_19 C 0.6542(2) 0.7808(3) 0.01920(5)
H4_19 H 0.6790 0.7692 0.0298
C7_19 C 0.6894(3) 0.7942(3) 0.00137(5)
O3_10 O 0.79976(16) 0.69956(14) 0.94269(3)
O4_10 O 0.82589(16) 0.76909(15) 0.91498(3)
H3_18 H 0.4437 0.8108 0.9987
H5_18 H 0.7378 0.7904 0.9997
C8_18 C 0.6548(2) 0.8137(2) 0.98525(5)
C9_18 C 0.5837(3) 0.8157(3) 0.98779(5)
H6_18 H 0.5594 0.8272 0.9770
C10_18 C 0.6989(2) 0.8348(2) 0.96631(5)
C11_18 C 0.7101(2) 0.9036(2) 0.95627(5)
H7_18 H 0.6891 0.9365 0.9615
C12_18 C 0.7513(2) 0.9256(2) 0.93876(5)
C13_18 C 0.7801(2) 0.8765(2) 0.93082(5)
H8_18 H 0.8073 0.8904 0.9187
C14_18 C 0.7691(2) 0.8072(2) 0.94062(5)
C15_18 C 0.7295(2) 0.7872(2) 0.95853(5)
H9_18 H 0.7235 0.7405 0.9654
C17_19 C 0.8011(2) 0.7547(2) 0.93208(5)
O3_11 O 0.30044(14) 0.10020(21) 0.94269(3)
O4_11 O 0.23091(15) 0.05680(22) 0.91498(3)
C17_20 C 0.2453(2) 0.0464(3) 0.93208(5)
C1_20 C 0.2232(3) 0.7035(4) 0.04252(5)
H1_20 H 0.2303 0.6880 0.0551
C2_20 C 0.2092(3) 0.6487(4) 0.02718(6)
H2_20 H 0.2076 0.5977 0.0295
C3_20 C 0.1979(3) 0.6690(4) 0.00924(6)
C4_20 C 0.1991(2) 0.7438(3) 0.00615(5)
C5_20 C 0.2158(2) 0.7971(3) 0.02203(5)
C6_20 C 0.2192(3) 0.8734(4) 0.01920(5)
H4_20 H 0.2308 0.9098 0.0298
C7_20 C 0.2058(3) 0.8952(4) 0.00137(5)
O1_20 O 0.98045(14) 0.78634(21) 0.91284(3)
O2_11 O 0.94829(14) 0.70001(21) 0.93809(3)
C16_20 C 0.9949(2) 0.7657(3) 0.92901(5)
O5_11 O 0.91495(15) 0.63332(21) 0.89524(3)
O6_11 O 0.76687(21) 0.63377(26) 0.89064(3)
C1_21 C 0.2965(4) 0.5197(2) 0.04252(5)
H1_21 H 0.3120 0.5423 0.0551
C2_21 C 0.3513(4) 0.5605(3) 0.02718(6)
H2_21 H 0.4023 0.6099 0.0295
C3_21 C 0.3310(4) 0.5289(3) 0.00924(6)
C4_21 C 0.2562(3) 0.4553(2) 0.00615(5)
C5_21 C 0.2029(3) 0.4187(2) 0.02203(5)
C6_21 C 0.1266(4) 0.3458(2) 0.01920(5)
H4_21 H 0.0902 0.3210 0.0298
C7_21 C 0.1048(4) 0.3106(3) 0.00137(5)
O1_21 O 0.21366(21) 0.19411(15) 0.91284(3)
O2_12 O 0.29999(21) 0.24828(15) 0.93809(3)
H3_19 H 0.3671 0.5563 0.9987
H5_19 H 0.0526 0.2622 0.9997
C8_19 C 0.1589(3) 0.3452(2) 0.98525(5)
C9_19 C 0.2320(4) 0.4163(3) 0.98779(5)
H6_19 H 0.2678 0.4406 0.9770
C10_19 C 0.1359(3) 0.3011(2) 0.96631(5)
C11_19 C 0.1935(3) 0.2899(2) 0.95627(5)
H7_19 H 0.2474 0.3109 0.9615
C12_19 C 0.1743(3) 0.2487(2) 0.93876(5)
C13_19 C 0.0964(3) 0.2199(2) 0.93082(5)
H8_19 H 0.0831 0.1927 0.9187
C14_19 C 0.0381(3) 0.2309(2) 0.94062(5)
C15_19 C 0.0577(3) 0.2705(2) 0.95853(5)
H9_19 H 0.0170 0.2765 0.9654
C16_21 C 0.2343(3) 0.2292(2) 0.92901(5)
O5_12 O 0.36668(21) 0.28162(14) 0.89524(3)
O6_12 O 0.36623(26) 0.13309(16) 0.89064(3)
O3_12 O 0.89980(21) 0.20024(16) 0.94269(3)
C17_21 C 0.9536(3) 0.1989(2) 0.93208(5)
O1_22 O 0.01955(14) 0.80589(15) 0.58716(3)
O2_13 O 0.05171(14) 0.75172(15) 0.56191(3)
C16_22 C 0.0051(2) 0.7708(2) 0.57099(5)
O5_13 O 0.08505(15) 0.71838(14) 0.60476(3)
O6_13 O 0.23313(21) 0.86691(16) 0.60936(3)
O7_11 O 0.17411(16) 0.94320(22) 0.58502(3)
O3_13 O 0.69956(14) 0.79976(16) 0.55731(3)
O4_12 O 0.76909(15) 0.82589(16) 0.58502(3)
C1_22 C 0.7768(3) 0.4803(2) 0.45748(5)
H1_22 H 0.7697 0.4577 0.4449
C2_22 C 0.7908(3) 0.4395(3) 0.47282(6)
H2_22 H 0.7924 0.3901 0.4705
C3_22 C 0.8021(3) 0.4711(3) 0.49076(6)
H3_20 H 0.8108 0.4437 0.5013
C4_22 C 0.8009(2) 0.5447(2) 0.49385(5)
C5_22 C 0.7842(2) 0.5813(2) 0.47797(5)
C6_22 C 0.7808(3) 0.6542(2) 0.48080(5)
H4_22 H 0.7692 0.6790 0.4702
C7_22 C 0.7942(3) 0.6894(3) 0.49863(5)
H5_20 H 0.7904 0.7378 0.5003
C8_20 C 0.8137(2) 0.6548(2) 0.51475(5)
C9_20 C 0.8157(3) 0.5837(3) 0.51221(5)
H6_20 H 0.8272 0.5594 0.5230
C10_20 C 0.8348(2) 0.6989(2) 0.53369(5)
C11_20 C 0.9036(2) 0.7101(2) 0.54373(5)
H7_20 H 0.9365 0.6891 0.5385
C12_20 C 0.9256(2) 0.7513(2) 0.56124(5)
C13_20 C 0.8765(2) 0.7801(2) 0.56918(5)
H8_20 H 0.8904 0.8073 0.5813
C14_20 C 0.8072(2) 0.7691(2) 0.55938(5)
C15_20 C 0.7872(2) 0.7295(2) 0.54147(5)
H9_20 H 0.7405 0.7235 0.5346
C17_22 C 0.7547(2) 0.8011(2) 0.56792(5)
O1_23 O 0.19411(15) 0.21366(21) 0.58716(3)
O2_14 O 0.24828(15) 0.29999(21) 0.56191(3)
C1_23 C 0.5197(2) 0.2965(4) 0.45748(5)
H1_23 H 0.5423 0.3120 0.4449
C2_23 C 0.5605(3) 0.3513(4) 0.47282(6)
H2_23 H 0.6099 0.4023 0.4705
C3_23 C 0.5289(3) 0.3310(4) 0.49076(6)
H3_21 H 0.5563 0.3671 0.5013
C4_23 C 0.4553(2) 0.2562(3) 0.49385(5)
C5_23 C 0.4187(2) 0.2029(3) 0.47797(5)
C6_23 C 0.3458(2) 0.1266(4) 0.48080(5)
H4_23 H 0.3210 0.0902 0.4702
C7_23 C 0.3106(3) 0.1048(4) 0.49863(5)
H5_21 H 0.2622 0.0526 0.5003
C8_21 C 0.3452(2) 0.1589(3) 0.51475(5)
C9_21 C 0.4163(3) 0.2320(4) 0.51221(5)
H6_21 H 0.4406 0.2678 0.5230
C10_21 C 0.3011(2) 0.1359(3) 0.53369(5)
C11_21 C 0.2899(2) 0.1935(3) 0.54373(5)
H7_21 H 0.3109 0.2474 0.5385
C12_21 C 0.2487(2) 0.1743(3) 0.56124(5)
C13_21 C 0.2199(2) 0.0964(3) 0.56918(5)
H8_21 H 0.1927 0.0831 0.5813
C14_21 C 0.2309(2) 0.0381(3) 0.55938(5)
C15_21 C 0.2705(2) 0.0577(3) 0.54147(5)
H9_21 H 0.2765 0.0170 0.5346
C16_23 C 0.2292(2) 0.2343(3) 0.57099(5)
O5_14 O 0.28162(14) 0.36668(21) 0.60476(3)
O6_14 O 0.13309(16) 0.36623(26) 0.60936(3)
O7_12 O 0.05680(22) 0.23091(27) 0.58502(3)
O3_14 O 0.20024(16) 0.89980(21) 0.55731(3)
C17_23 C 0.1989(2) 0.9536(3) 0.56792(5)
O3_15 O 0.10020(21) 0.30044(14) 0.55731(3)
C17_24 C 0.0464(3) 0.2453(2) 0.56792(5)
C1_24 C 0.7035(4) 0.2232(3) 0.45748(5)
H1_24 H 0.6880 0.2303 0.4449
C2_24 C 0.6487(4) 0.2092(3) 0.47282(6)
H2_24 H 0.5977 0.2076 0.4705
C3_24 C 0.6690(4) 0.1979(3) 0.49076(6)
H3_22 H 0.6329 0.1892 0.5013
C4_24 C 0.7438(3) 0.1991(2) 0.49385(5)
C5_24 C 0.7971(3) 0.2158(2) 0.47797(5)
C6_24 C 0.8734(4) 0.2192(3) 0.48080(5)
H4_24 H 0.9098 0.2308 0.4702
C7_24 C 0.8952(4) 0.2058(3) 0.49863(5)
H5_22 H 0.9474 0.2096 0.5003
C8_22 C 0.8411(3) 0.1863(2) 0.51475(5)
C9_22 C 0.7680(4) 0.1843(3) 0.51221(5)
H6_22 H 0.7322 0.1728 0.5230
C10_22 C 0.8641(3) 0.1652(2) 0.53369(5)
C11_22 C 0.8065(3) 0.0964(2) 0.54373(5)
H7_22 H 0.7526 0.0635 0.5385
C12_22 C 0.8257(3) 0.0744(2) 0.56124(5)
C13_22 C 0.9036(3) 0.1235(2) 0.56918(5)
H8_22 H 0.9169 0.1096 0.5813
C14_22 C 0.9619(3) 0.1928(2) 0.55938(5)
C15_22 C 0.9423(3) 0.2128(2) 0.54147(5)
H9_22 H 0.9830 0.2595 0.5346
O1_24 O 0.78634(21) 0.98045(14) 0.58716(3)
O2_15 O 0.70001(21) 0.94829(14) 0.56191(3)
C16_24 C 0.7657(3) 0.9949(2) 0.57099(5)
O5_15 O 0.63332(21) 0.91495(15) 0.60476(3)
O6_15 O 0.63377(26) 0.76687(21) 0.60936(3)
O1_25 O 0.13922(15) 0.68622(14) 0.57951(3)
O4_13 O 0.15922(16) 0.43576(15) 0.58165(3)
H4_25 H 0.0123 0.4359 0.6965
C7_25 C 0.0227(3) 0.4609(3) 0.66804(5)
H5_23 H 0.0711 0.4571 0.6664
C10_23 C 0.0322(2) 0.5015(2) 0.63298(5)
C11_23 C 0.0434(2) 0.5703(2) 0.62294(5)
H7_23 H 0.0224 0.6032 0.6282
C12_23 C 0.0846(2) 0.5923(2) 0.60543(5)
C13_23 C 0.1134(2) 0.5432(2) 0.59749(5)
H8_23 H 0.1406 0.5571 0.5854
C14_23 C 0.1024(2) 0.4739(2) 0.60729(5)
C15_23 C 0.0628(2) 0.4539(2) 0.62520(5)
H9_23 H 0.0568 0.4072 0.6321
C16_25 C 0.1041(2) 0.6718(2) 0.59568(5)
C17_25 C 0.1344(2) 0.4214(2) 0.59875(5)
O7_13 O 0.27653(22) 0.84078(16) 0.58165(3)
C1_25 C 0.8136(2) 0.4435(3) 0.70919(5)
H1_25 H 0.7910 0.4364 0.7218
C2_25 C 0.7728(3) 0.4575(3) 0.69385(6)
H2_25 H 0.7234 0.4591 0.6962
C3_25 C 0.8044(3) 0.4688(3) 0.67591(6)
H3_23 H 0.7770 0.4775 0.6654
C4_25 C 0.8780(2) 0.4676(2) 0.67282(5)
C5_25 C 0.9146(2) 0.4509(2) 0.68870(5)
C6_25 C 0.9875(2) 0.4475(3) 0.68587(5)
C8_23 C 0.9881(2) 0.4804(2) 0.65192(5)
C9_23 C 0.9170(3) 0.4824(3) 0.65446(5)
H6_23 H 0.8927 0.4939 0.6437
O1_26 O 0.31378(14) 0.45301(21) 0.57951(3)
O4_14 O 0.56424(15) 0.72347(22) 0.58165(3)
C1_26 C 0.5565(3) 0.3702(4) 0.70919(5)
H1_26 H 0.5636 0.3547 0.7218
C2_26 C 0.5425(3) 0.3154(4) 0.69385(6)
H2_26 H 0.5409 0.2644 0.6962
C3_26 C 0.5312(3) 0.3357(4) 0.67591(6)
H3_24 H 0.5225 0.2996 0.6654
C4_26 C 0.5324(2) 0.4105(3) 0.67282(5)
C5_26 C 0.5491(2) 0.4638(3) 0.68870(5)
C6_26 C 0.5525(3) 0.5401(4) 0.68587(5)
H4_26 H 0.5641 0.5765 0.6965
C7_26 C 0.5391(3) 0.5619(4) 0.66804(5)
H5_24 H 0.5429 0.6141 0.6664
C8_24 C 0.5196(2) 0.5078(3) 0.65192(5)
C9_24 C 0.5176(3) 0.4347(4) 0.65446(5)
H6_24 H 0.5061 0.3989 0.6437
C10_24 C 0.4985(2) 0.5308(3) 0.63298(5)
C11_24 C 0.4297(2) 0.4732(3) 0.62294(5)
H7_24 H 0.3968 0.4193 0.6282
C12_24 C 0.4077(2) 0.4924(3) 0.60543(5)
C13_24 C 0.4568(2) 0.5703(3) 0.59749(5)
H8_24 H 0.4429 0.5836 0.5854
C14_24 C 0.5261(2) 0.6286(3) 0.60729(5)
C15_24 C 0.5461(2) 0.6090(3) 0.62520(5)
H9_24 H 0.5928 0.6497 0.6321
C16_26 C 0.3282(2) 0.4324(3) 0.59568(5)
C17_26 C 0.5786(2) 0.7131(3) 0.59875(5)
C1_27 C 0.6298(4) 0.1864(2) 0.70919(5)
H1_27 H 0.6453 0.2090 0.7218
C2_27 C 0.6846(4) 0.2272(3) 0.69385(6)
H2_27 H 0.7356 0.2766 0.6962
C3_27 C 0.6643(4) 0.1956(3) 0.67591(6)
H3_25 H 0.7004 0.2230 0.6654
C4_27 C 0.5895(3) 0.1220(2) 0.67282(5)
C5_27 C 0.5362(3) 0.0854(2) 0.68870(5)
C6_27 C 0.4599(4) 0.0125(2) 0.68587(5)
C8_25 C 0.4922(3) 0.0119(2) 0.65192(5)
C9_25 C 0.5653(4) 0.0830(3) 0.65446(5)
H6_25 H 0.6011 0.1073 0.6437
O1_27 O 0.54699(21) 0.86078(15) 0.57951(3)
H4_27 H 0.4235 0.9877 0.6965
C7_27 C 0.4381(4) 0.9773(3) 0.66804(5)
H5_25 H 0.3859 0.9289 0.6664
C10_25 C 0.4692(3) 0.9678(2) 0.63298(5)
C11_25 C 0.5268(3) 0.9566(2) 0.62294(5)
H7_25 H 0.5807 0.9776 0.6282
C12_25 C 0.5076(3) 0.9154(2) 0.60543(5)
C13_25 C 0.4297(3) 0.8866(2) 0.59749(5)
H8_25 H 0.4164 0.8594 0.5854
C14_25 C 0.3714(3) 0.8976(2) 0.60729(5)
C15_25 C 0.3910(3) 0.9372(2) 0.62520(5)
H9_25 H 0.3503 0.9432 0.6321
C16_27 C 0.5676(3) 0.8959(2) 0.59568(5)
C17_27 C 0.2869(3) 0.8656(2) 0.59875(5)
O1_28 O 0.35288(14) 0.47256(15) 0.25383(3)
O2_16 O 0.38504(14) 0.41839(15) 0.22858(3)
O3_16 O 0.03289(14) 0.46643(16) 0.22398(3)
O4_15 O 0.10242(15) 0.49256(16) 0.25169(3)
C1_28 C 0.1101(3) 0.1470(2) 0.12415(5)
H1_28 H 0.1030 0.1244 0.1116
C2_28 C 0.1241(3) 0.1062(3) 0.13949(6)
H2_28 H 0.1257 0.0568 0.1372
C3_28 C 0.1354(3) 0.1378(3) 0.15743(6)
H3_26 H 0.1441 0.1104 0.1680
C4_28 C 0.1342(2) 0.2114(2) 0.16052(5)
C5_28 C 0.1175(2) 0.2480(2) 0.14464(5)
C6_28 C 0.1141(3) 0.3209(2) 0.14747(5)
H4_28 H 0.1025 0.3457 0.1369
C7_28 C 0.1275(3) 0.3561(3) 0.16530(5)
H5_26 H 0.1237 0.4045 0.1670
C8_26 C 0.1470(2) 0.3215(2) 0.18142(5)
C9_26 C 0.1490(3) 0.2504(3) 0.17888(5)
H6_26 H 0.1605 0.2261 0.1897
C10_26 C 0.1681(2) 0.3656(2) 0.20036(5)
C11_26 C 0.2369(2) 0.3768(2) 0.21040(5)
H7_26 H 0.2698 0.3558 0.2052
C12_26 C 0.2589(2) 0.4180(2) 0.22791(5)
C13_26 C 0.2098(2) 0.4468(2) 0.23585(5)
H8_26 H 0.2237 0.4740 0.2480
C14_26 C 0.1405(2) 0.4358(2) 0.22605(5)
C15_26 C 0.1205(2) 0.3962(2) 0.20814(5)
H9_26 H 0.0738 0.3902 0.2013
C16_28 C 0.3384(2) 0.4375(2) 0.23766(5)
C17_28 C 0.0880(2) 0.4678(2) 0.23459(5)
O5_16 O 0.41839(15) 0.38504(14) 0.27142(3)
O6_16 O 0.56647(21) 0.53357(16) 0.27602(3)
O7_14 O 0.50744(16) 0.60987(22) 0.25169(3)
C2_29 C 0.8938(3) 0.0180(4) 0.13949(6)
H2_29 H 0.9432 0.0690 0.1372
H3_27 H 0.8896 0.0338 0.1680
O5_17 O 0.61496(14) 0.03334(21) 0.27142(3)
O6_17 O 0.46643(16) 0.03289(26) 0.27602(3)
O1_29 O 0.52744(15) 0.88033(21) 0.25383(3)
O2_17 O 0.58161(15) 0.96666(21) 0.22858(3)
O3_17 O 0.53357(16) 0.56647(21) 0.22398(3)
C1_29 C 0.8530(2) 0.9632(4) 0.12415(5)
H1_29 H 0.8756 0.9787 0.1116
C3_29 C 0.8622(3) 0.9977(4) 0.15743(6)
C4_29 C 0.7886(2) 0.9229(3) 0.16052(5)
C5_29 C 0.7520(2) 0.8696(3) 0.14464(5)
C6_29 C 0.6791(2) 0.7933(4) 0.14747(5)
H4_29 H 0.6543 0.7569 0.1369
C7_29 C 0.6439(3) 0.7715(4) 0.16530(5)
H5_27 H 0.5955 0.7193 0.1670
C8_27 C 0.6785(2) 0.8256(3) 0.18142(5)
C9_27 C 0.7496(3) 0.8987(4) 0.17888(5)
H6_27 H 0.7739 0.9345 0.1897
C10_27 C 0.6344(2) 0.8026(3) 0.20036(5)
C11_27 C 0.6232(2) 0.8602(3) 0.21040(5)
H7_27 H 0.6442 0.9141 0.2052
C12_27 C 0.5820(2) 0.8410(3) 0.22791(5)
C13_27 C 0.5532(2) 0.7631(3) 0.23585(5)
H8_27 H 0.5260 0.7498 0.2480
C14_27 C 0.5642(2) 0.7048(3) 0.22605(5)
C15_27 C 0.6038(2) 0.7244(3) 0.20814(5)
H9_27 H 0.6098 0.6837 0.2013
C16_29 C 0.5625(2) 0.9010(3) 0.23766(5)
C17_29 C 0.5322(2) 0.6203(3) 0.23459(5)
O7_15 O 0.39013(22) 0.89758(27) 0.25169(3)
O1_30 O 0.11967(21) 0.64712(14) 0.25383(3)
O2_18 O 0.03334(21) 0.61496(14) 0.22858(3)
O3_18 O 0.43353(21) 0.96711(14) 0.22398(3)
C1_30 C 0.0368(4) 0.8899(3) 0.12415(5)
H1_30 H 0.0213 0.8970 0.1116
C3_30 C 0.0023(4) 0.8646(3) 0.15743(6)
C4_30 C 0.0771(3) 0.8658(2) 0.16052(5)
C5_30 C 0.1304(3) 0.8825(2) 0.14464(5)
C6_30 C 0.2067(4) 0.8859(3) 0.14747(5)
H4_30 H 0.2431 0.8975 0.1369
C7_30 C 0.2285(4) 0.8725(3) 0.16530(5)
H5_28 H 0.2807 0.8763 0.1670
C8_28 C 0.1744(3) 0.8530(2) 0.18142(5)
C9_28 C 0.1013(4) 0.8510(3) 0.17888(5)
H6_28 H 0.0655 0.8395 0.1897
C10_28 C 0.1974(3) 0.8319(2) 0.20036(5)
C11_28 C 0.1398(3) 0.7631(2) 0.21040(5)
H7_28 H 0.0859 0.7302 0.2052
C12_28 C 0.1590(3) 0.7411(2) 0.22791(5)
C13_28 C 0.2369(3) 0.7902(2) 0.23585(5)
H8_28 H 0.2502 0.7763 0.2480
C14_28 C 0.2952(3) 0.8595(2) 0.22605(5)
C15_28 C 0.2756(3) 0.8795(2) 0.20814(5)
H9_28 H 0.3163 0.9262 0.2013
C16_30 C 0.0990(3) 0.6616(2) 0.23766(5)
C17_30 C 0.3797(3) 0.9120(2) 0.23459(5)
C2_30 C 0.9820(4) 0.8759(3) 0.13949(6)
H2_30 H 0.9310 0.8743 0.1372
H3_28 H 0.9662 0.8559 0.1680
O5_18 O 0.96666(21) 0.58161(15) 0.27142(3)
O6_18 O 0.96711(26) 0.43353(21) 0.27602(3)
O1_31 O 0.47256(15) 0.35288(14) 0.24617(3)
O4_16 O 0.49256(16) 0.10242(15) 0.24831(3)
C1_31 C 0.1470(2) 0.1101(3) 0.37585(5)
H1_31 H 0.1244 0.1030 0.3884
C2_31 C 0.1062(3) 0.1241(3) 0.36051(6)
H2_31 H 0.0568 0.1257 0.3628
C3_31 C 0.1378(3) 0.1354(3) 0.34257(6)
H3_29 H 0.1104 0.1441 0.3320
C4_31 C 0.2114(2) 0.1342(2) 0.33948(5)
C5_31 C 0.2480(2) 0.1175(2) 0.35536(5)
C6_31 C 0.3209(2) 0.1141(3) 0.35253(5)
H4_31 H 0.3457 0.1025 0.3631
C7_31 C 0.3561(3) 0.1275(3) 0.33470(5)
H5_29 H 0.4045 0.1237 0.3330
C8_29 C 0.3215(2) 0.1470(2) 0.31858(5)
C9_29 C 0.2504(3) 0.1490(3) 0.32112(5)
H6_29 H 0.2261 0.1605 0.3103
C10_29 C 0.3656(2) 0.1681(2) 0.29964(5)
C11_29 C 0.3768(2) 0.2369(2) 0.28960(5)
H7_29 H 0.3558 0.2698 0.2948
C12_29 C 0.4180(2) 0.2589(2) 0.27209(5)
C13_29 C 0.4468(2) 0.2098(2) 0.26415(5)
H8_29 H 0.4740 0.2237 0.2520
C14_29 C 0.4358(2) 0.1405(2) 0.27395(5)
C15_29 C 0.3962(2) 0.1205(2) 0.29186(5)
H9_29 H 0.3902 0.0738 0.2987
C16_31 C 0.4375(2) 0.3384(2) 0.26234(5)
C17_31 C 0.4678(2) 0.0880(2) 0.26541(5)
O7_16 O 0.60987(22) 0.50744(16) 0.24831(3)
O1_32 O 0.64712(14) 0.11967(21) 0.24617(3)
O4_17 O 0.89758(15) 0.39013(22) 0.24831(3)
C1_32 C 0.8899(3) 0.0368(4) 0.37585(5)
H1_32 H 0.8970 0.0213 0.3884
C3_32 C 0.8646(3) 0.0023(4) 0.34257(6)
C4_32 C 0.8658(2) 0.0771(3) 0.33948(5)
C5_32 C 0.8825(2) 0.1304(3) 0.35536(5)
C6_32 C 0.8859(3) 0.2067(4) 0.35253(5)
H4_32 H 0.8975 0.2431 0.3631
C7_32 C 0.8725(3) 0.2285(4) 0.33470(5)
H5_30 H 0.8763 0.2807 0.3330
C8_30 C 0.8530(2) 0.1744(3) 0.31858(5)
C9_30 C 0.8510(3) 0.1013(4) 0.32112(5)
H6_30 H 0.8395 0.0655 0.3103
C10_30 C 0.8319(2) 0.1974(3) 0.29964(5)
C11_30 C 0.7631(2) 0.1398(3) 0.28960(5)
H7_30 H 0.7302 0.0859 0.2948
C12_30 C 0.7411(2) 0.1590(3) 0.27209(5)
C13_30 C 0.7902(2) 0.2369(3) 0.26415(5)
H8_30 H 0.7763 0.2502 0.2520
C14_30 C 0.8595(2) 0.2952(3) 0.27395(5)
C15_30 C 0.8795(2) 0.2756(3) 0.29186(5)
H9_30 H 0.9262 0.3163 0.2987
C16_32 C 0.6616(2) 0.0990(3) 0.26234(5)
C17_32 C 0.9120(2) 0.3797(3) 0.26541(5)
C2_32 C 0.8759(3) 0.9820(4) 0.36051(6)
H2_32 H 0.8743 0.9310 0.3628
H3_30 H 0.8559 0.9662 0.3320
C2_33 C 0.0180(4) 0.8938(3) 0.36051(6)
H2_33 H 0.0690 0.9432 0.3628
H3_31 H 0.0338 0.8896 0.3320
O1_33 O 0.88033(21) 0.52744(15) 0.24617(3)
C1_33 C 0.9632(4) 0.8530(2) 0.37585(5)
H1_33 H 0.9787 0.8756 0.3884
C3_33 C 0.9977(4) 0.8622(3) 0.34257(6)
C4_33 C 0.9229(3) 0.7886(2) 0.33948(5)
C5_33 C 0.8696(3) 0.7520(2) 0.35536(5)
C6_33 C 0.7933(4) 0.6791(2) 0.35253(5)
H4_33 H 0.7569 0.6543 0.3631
C7_33 C 0.7715(4) 0.6439(3) 0.33470(5)
H5_31 H 0.7193 0.5955 0.3330
C8_31 C 0.8256(3) 0.6785(2) 0.31858(5)
C9_31 C 0.8987(4) 0.7496(3) 0.32112(5)
H6_31 H 0.9345 0.7739 0.3103
C10_31 C 0.8026(3) 0.6344(2) 0.29964(5)
C11_31 C 0.8602(3) 0.6232(2) 0.28960(5)
H7_31 H 0.9141 0.6442 0.2948
C12_31 C 0.8410(3) 0.5820(2) 0.27209(5)
C13_31 C 0.7631(3) 0.5532(2) 0.26415(5)
H8_31 H 0.7498 0.5260 0.2520
C14_31 C 0.7048(3) 0.5642(2) 0.27395(5)
C15_31 C 0.7244(3) 0.6038(2) 0.29186(5)
H9_31 H 0.6837 0.6098 0.2987
C16_33 C 0.9010(3) 0.5625(2) 0.26234(5)
C17_33 C 0.6203(3) 0.5322(2) 0.26541(5)
O1_34 O 0.68622(14) 0.13922(15) 0.92049(3)
O4_18 O 0.43576(15) 0.15922(16) 0.91835(3)
H4_34 H 0.4359 0.0123 0.8035
C7_34 C 0.4609(3) 0.0227(3) 0.83196(5)
H5_32 H 0.4571 0.0711 0.8336
C10_32 C 0.5015(2) 0.0322(2) 0.86702(5)
C11_32 C 0.5703(2) 0.0434(2) 0.87706(5)
H7_32 H 0.6032 0.0224 0.8718
C12_32 C 0.5923(2) 0.0846(2) 0.89457(5)
C13_32 C 0.5432(2) 0.1134(2) 0.90251(5)
H8_32 H 0.5571 0.1406 0.9146
C14_32 C 0.4739(2) 0.1024(2) 0.89271(5)
C15_32 C 0.4539(2) 0.0628(2) 0.87480(5)
H9_32 H 0.4072 0.0568 0.8679
C16_34 C 0.6718(2) 0.1041(2) 0.90432(5)
C17_34 C 0.4214(2) 0.1344(2) 0.90125(5)
O7_17 O 0.84078(16) 0.27653(22) 0.91835(3)
C1_34 C 0.4435(3) 0.8136(2) 0.79081(5)
H1_34 H 0.4364 0.7910 0.7782
C2_34 C 0.4575(3) 0.7728(3) 0.80615(6)
H2_34 H 0.4591 0.7234 0.8038
C3_34 C 0.4688(3) 0.8044(3) 0.82409(6)
H3_32 H 0.4775 0.7770 0.8346
C4_34 C 0.4676(2) 0.8780(2) 0.82718(5)
C5_34 C 0.4509(2) 0.9146(2) 0.81130(5)
C6_34 C 0.4475(3) 0.9875(2) 0.81413(5)
C8_32 C 0.4804(2) 0.9881(2) 0.84808(5)
C9_32 C 0.4824(3) 0.9170(3) 0.84554(5)
H6_32 H 0.4939 0.8927 0.8563
C1_35 C 0.1864(2) 0.6298(4) 0.79081(5)
H1_35 H 0.2090 0.6453 0.7782
C2_35 C 0.2272(3) 0.6846(4) 0.80615(6)
H2_35 H 0.2766 0.7356 0.8038
C3_35 C 0.1956(3) 0.6643(4) 0.82409(6)
H3_33 H 0.2230 0.7004 0.8346
C4_35 C 0.1220(2) 0.5895(3) 0.82718(5)
C5_35 C 0.0854(2) 0.5362(3) 0.81130(5)
C6_35 C 0.0125(2) 0.4599(4) 0.81413(5)
C8_33 C 0.0119(2) 0.4922(3) 0.84808(5)
C9_33 C 0.0830(3) 0.5653(4) 0.84554(5)
H6_33 H 0.1073 0.6011 0.8563
O1_35 O 0.86078(15) 0.54699(21) 0.92049(3)
H4_35 H 0.9877 0.4235 0.8035
C7_35 C 0.9773(3) 0.4381(4) 0.83196(5)
H5_33 H 0.9289 0.3859 0.8336
C10_33 C 0.9678(2) 0.4692(3) 0.86702(5)
C11_33 C 0.9566(2) 0.5268(3) 0.87706(5)
H7_33 H 0.9776 0.5807 0.8718
C12_33 C 0.9154(2) 0.5076(3) 0.89457(5)
C13_33 C 0.8866(2) 0.4297(3) 0.90251(5)
H8_33 H 0.8594 0.4164 0.9146
C14_33 C 0.8976(2) 0.3714(3) 0.89271(5)
C15_33 C 0.9372(2) 0.3910(3) 0.87480(5)
H9_33 H 0.9432 0.3503 0.8679
C16_35 C 0.8959(2) 0.5676(3) 0.90432(5)
C17_35 C 0.8656(2) 0.2869(3) 0.90125(5)
O7_18 O 0.72347(22) 0.56424(27) 0.91835(3)
O1_36 O 0.45301(21) 0.31378(14) 0.92049(3)
C1_36 C 0.3702(4) 0.5565(3) 0.79081(5)
H1_36 H 0.3547 0.5636 0.7782
C2_36 C 0.3154(4) 0.5425(3) 0.80615(6)
H2_36 H 0.2644 0.5409 0.8038
C3_36 C 0.3357(4) 0.5312(3) 0.82409(6)
H3_34 H 0.2996 0.5225 0.8346
C4_36 C 0.4105(3) 0.5324(2) 0.82718(5)
C5_36 C 0.4638(3) 0.5491(2) 0.81130(5)
C6_36 C 0.5401(4) 0.5525(3) 0.81413(5)
H4_36 H 0.5765 0.5641 0.8035
C7_36 C 0.5619(4) 0.5391(3) 0.83196(5)
H5_34 H 0.6141 0.5429 0.8336
C8_34 C 0.5078(3) 0.5196(2) 0.84808(5)
C9_34 C 0.4347(4) 0.5176(3) 0.84554(5)
H6_34 H 0.3989 0.5061 0.8563
C10_34 C 0.5308(3) 0.4985(2) 0.86702(5)
C11_34 C 0.4732(3) 0.4297(2) 0.87706(5)
H7_34 H 0.4193 0.3968 0.8718
C12_34 C 0.4924(3) 0.4077(2) 0.89457(5)
C13_34 C 0.5703(3) 0.4568(2) 0.90251(5)
H8_34 H 0.5836 0.4429 0.9146
C14_34 C 0.6286(3) 0.5261(2) 0.89271(5)
C15_34 C 0.6090(3) 0.5461(2) 0.87480(5)
H9_34 H 0.6497 0.5928 0.8679
C16_36 C 0.4324(3) 0.3282(2) 0.90432(5)
C17_36 C 0.7131(3) 0.5786(2) 0.90125(5)
H3_35 H 0.8108 0.3671 0.0013
H5_35 H 0.7904 0.0526 0.0003
C8_35 C 0.8137(2) 0.1589(3) 0.01475(5)
C9_35 C 0.8157(3) 0.2320(4) 0.01221(5)
H6_35 H 0.8272 0.2678 0.0230
C10_35 C 0.8348(2) 0.1359(3) 0.03369(5)
C11_35 C 0.9036(2) 0.1935(3) 0.04373(5)
H7_35 H 0.9365 0.2474 0.0385
C12_35 C 0.9256(2) 0.1743(3) 0.06124(5)
C13_35 C 0.8765(2) 0.0964(3) 0.06918(5)
H8_35 H 0.8904 0.0831 0.0813
C14_35 C 0.8072(2) 0.0381(3) 0.05938(5)
C15_35 C 0.7872(2) 0.0577(3) 0.04147(5)
H9_35 H 0.7405 0.0170 0.0346
H3_36 H 0.1892 0.6329 0.9987
H5_36 H 0.2096 0.9474 0.9997
C8_36 C 0.1863(2) 0.8411(3) 0.98525(5)
C9_36 C 0.1843(3) 0.7680(4) 0.98779(5)
H6_36 H 0.1728 0.7322 0.9770
C10_36 C 0.1652(2) 0.8641(3) 0.96631(5)
C11_36 C 0.0964(2) 0.8065(3) 0.95627(5)
H7_36 H 0.0635 0.7526 0.9615
C12_36 C 0.0744(2) 0.8257(3) 0.93876(5)
C13_36 C 0.1235(2) 0.9036(3) 0.93082(5)
H8_36 H 0.1096 0.9169 0.9187
C14_36 C 0.1928(2) 0.9619(3) 0.94062(5)
C15_36 C 0.2128(2) 0.9423(3) 0.95853(5)
H9_36 H 0.2595 0.9830 0.9654
loop_
_geom_bond_atom_site_label_1
_geom_bond_atom_site_label_2
_geom_bond_site_symmetry_1
_geom_bond_site_symmetry_2
O3 C17 1_555 1_555
O4 C17 1_555 1_555
H6 C9 1_555 1_555
C10 C8 1_555 1_555
C11 C10 1_555 1_555
H7 C11 1_555 1_555
C12 C11 1_555 1_555
C13 C12 1_555 1_555
H8 C13 1_555 1_555
C14 C13 1_555 1_555
C15 C10 1_555 1_555
H9 C15 1_555 1_555
C17 C14 1_555 1_555
Cu2 O4 1_555 1_555
Cu4 O3 1_555 1_555
C8 C9 1_555 1_555
C14 C15 1_555 1_555
Cu2 Cu4 1_555 1_555
N1 C1 1_555 1_555
C1 H1 1_555 1_555
C2 C1 1_555 1_555
H2 C2 1_555 1_555
C3 C2 1_555 1_555
C4 C3 1_555 1_555
C5 N1 1_555 1_555
C6 C5 1_555 1_555
H4 C6 1_555 1_555
C7 C6 1_555 1_555
Cu5 N1 1_555 1_555
C4 C5 1_555 1_555
Cu1 O1 1_555 1_555
O1 C16 1_555 1_555
O2 C16 1_555 1_555
N2 Cu1 1_555 1_555
Cu3 Cu1 1_555 1_555
O5 Cu1 1_555 1_555
O6 Cu1 1_555 1_555
O7 Cu1 1_555 1_555
O2 Cu3 1_555 1_555
Cu2 O1_2 1_555 1_555
O1_2 C16_2 1_555 1_555
O2_2 C16_2 1_555 1_555
N2_2 Cu2 1_555 1_555
O5_2 Cu2 1_555 1_555
O6_2 Cu2 1_555 1_555
O2_2 Cu4 1_555 1_555
N1_2 C1_2 1_555 1_555
C1_2 H1_2 1_555 1_555
C2_2 C1_2 1_555 1_555
H2_2 C2_2 1_555 1_555
C3_2 C2_2 1_555 1_555
C4_2 C3_2 1_555 1_555
C5_2 N1_2 1_555 1_555
C6_2 C5_2 1_555 1_555
H4_2 C6_2 1_555 1_555
C7_2 C6_2 1_555 1_555
Cu5_2 N1_2 1_555 1_555
C4_2 C5_2 1_555 1_555
O3_2 C17_2 1_555 1_555
O4_2 C17_2 1_555 1_555
Cu2_2 O4_2 1_555 1_555
Cu4_2 O3_2 1_555 1_555
Cu2_2 Cu4_2 1_555 1_555
O3_3 C17_3 1_555 1_555
O7 C17_3 1_555 1_555
Cu3 O3_3 1_555 1_555
Cu2_2 O1_3 1_555 1_555
O1_3 C16_3 1_555 1_555
O2_3 C16_3 1_555 1_555
H6_2 C9_2 1_555 1_555
C10_2 C8_2 1_555 1_555
C11_2 C10_2 1_555 1_555
H7_2 C11_2 1_555 1_555
C12_2 C11_2 1_555 1_555
C13_2 C12_2 1_555 1_555
H8_2 C13_2 1_555 1_555
C14_2 C13_2 1_555 1_555
C15_2 C10_2 1_555 1_555
H9_2 C15_2 1_555 1_555
C16_3 C12_2 1_555 1_555
N2_3 Cu2_2 1_555 1_555
O5_3 Cu2_2 1_555 1_555
O6_3 Cu2_2 1_555 1_555
O2_3 Cu4_2 1_555 1_555
C8_2 C9_2 1_555 1_555
C14_2 C15_2 1_555 1_555
N1_3 C1_3 1_555 1_555
C1_3 H1_3 1_555 1_555
C2_3 C1_3 1_555 1_555
H2_3 C2_3 1_555 1_555
C3_3 C2_3 1_555 1_555
C4_3 C3_3 1_555 1_555
C5_3 N1_3 1_555 1_555
C6_3 C5_3 1_555 1_555
H4_3 C6_3 1_555 1_555
C7_3 C6_3 1_555 1_555
Cu5_3 N1_3 1_555 1_555
C4_3 C5_3 1_555 1_555
N1_4 C1_4 1_555 1_555
O3_4 C17_4 1_555 1_555
O4_3 C17_4 1_555 1_555
C1_4 H1_4 1_555 1_555
C2_4 C1_4 1_555 1_555
H2_4 C2_4 1_555 1_555
C3_4 C2_4 1_555 1_555
H3_3 C3_4 1_555 1_555
C4_4 C3_4 1_555 1_555
C5_4 N1_4 1_555 1_555
C6_4 C5_4 1_555 1_555
H4_4 C6_4 1_555 1_555
C7_4 C6_4 1_555 1_555
H5_3 C7_4 1_555 1_555
C8_3 C7_4 1_555 1_555
C9_3 C4_4 1_555 1_555
H6_3 C9_3 1_555 1_555
C10_3 C8_3 1_555 1_555
C11_3 C10_3 1_555 1_555
H7_3 C11_3 1_555 1_555
C12_3 C11_3 1_555 1_555
C13_3 C12_3 1_555 1_555
H8_3 C13_3 1_555 1_555
C14_3 C13_3 1_555 1_555
C15_3 C10_3 1_555 1_555
H9_3 C15_3 1_555 1_555
C17_4 C14_3 1_555 1_555
Cu2_3 O4_3 1_555 1_555
Cu4_3 O3_4 1_555 1_555
Cu5_4 N1_4 1_555 1_555
C4_4 C5_4 1_555 1_555
C8_3 C9_3 1_555 1_555
C14_3 C15_3 1_555 1_555
Cu2_3 Cu4_3 1_555 1_555
Cu1_2 O1_4 1_555 1_555
O1_4 C16_4 1_555 1_555
O2_4 C16_4 1_555 1_555
N2_4 Cu1_2 1_555 1_555
Cu3_2 Cu1_2 1_555 1_555
O5_4 Cu1_2 1_555 1_555
O6_4 Cu1_2 1_555 1_555
O7_2 Cu1_2 1_555 1_555
O2_4 Cu3_2 1_555 1_555
O3_5 C17_5 1_555 1_555
O7_2 C17_5 1_555 1_555
Cu3_2 O3_5 1_555 1_555
N1_5 C1_5 1_555 1_555
Cu1_3 O1_5 1_555 1_555
O1_5 C16_5 1_555 1_555
O2_5 C16_5 1_555 1_555
C1_5 H1_5 1_555 1_555
C2_5 C1_5 1_555 1_555
H2_5 C2_5 1_555 1_555
C3_5 C2_5 1_555 1_555
H3_4 C3_5 1_555 1_555
C4_5 C3_5 1_555 1_555
C5_5 N1_5 1_555 1_555
C6_5 C5_5 1_555 1_555
H4_5 C6_5 1_555 1_555
C7_5 C6_5 1_555 1_555
H5_4 C7_5 1_555 1_555
C8_4 C7_5 1_555 1_555
C9_4 C4_5 1_555 1_555
H6_4 C9_4 1_555 1_555
C10_4 C8_4 1_555 1_555
C11_4 C10_4 1_555 1_555
H7_4 C11_4 1_555 1_555
C12_4 C11_4 1_555 1_555
C13_4 C12_4 1_555 1_555
H8_4 C13_4 1_555 1_555
C14_4 C13_4 1_555 1_555
C15_4 C10_4 1_555 1_555
H9_4 C15_4 1_555 1_555
C16_5 C12_4 1_555 1_555
N2_5 Cu1_3 1_555 1_555
Cu3_3 Cu1_3 1_555 1_555
Cu5_5 N1_5 1_555 1_555
O5_5 Cu1_3 1_555 1_555
O6_5 Cu1_3 1_555 1_555
O7_3 Cu1_3 1_555 1_555
O2_5 Cu3_3 1_555 1_555
C4_5 C5_5 1_555 1_555
C8_4 C9_4 1_555 1_555
C14_4 C15_4 1_555 1_555
Cu2_3 O1_6 1_555 1_555
O1_6 C16_6 1_555 1_555
O2_6 C16_6 1_555 1_555
N2_6 Cu2_3 1_555 1_555
O5_6 Cu2_3 1_555 1_555
O6_6 Cu2_3 1_555 1_555
O2_6 Cu4_3 1_555 1_555
N1_6 C1_6 1_555 1_555
C1_6 H1_6 1_555 1_555
C2_6 C1_6 1_555 1_555
H2_6 C2_6 1_555 1_555
C3_6 C2_6 1_555 1_555
H3_5 C3_6 1_555 1_555
C4_6 C3_6 1_555 1_555
C5_6 N1_6 1_555 1_555
C6_6 C5_6 1_555 1_555
H4_6 C6_6 1_555 1_555
C7_6 C6_6 1_555 1_555
H5_5 C7_6 1_555 1_555
C8_5 C7_6 1_555 1_555
C9_5 C4_6 1_555 1_555
H6_5 C9_5 1_555 1_555
C10_5 C8_5 1_555 1_555
C11_5 C10_5 1_555 1_555
H7_5 C11_5 1_555 1_555
C12_5 C11_5 1_555 1_555
C13_5 C12_5 1_555 1_555
H8_5 C13_5 1_555 1_555
C14_5 C13_5 1_555 1_555
C15_5 C10_5 1_555 1_555
H9_5 C15_5 1_555 1_555
Cu5_6 N1_6 1_555 1_555
C4_6 C5_6 1_555 1_555
C8_5 C9_5 1_555 1_555
C14_5 C15_5 1_555 1_555
O3_6 C17_6 1_555 1_555
O7_3 C17_6 1_555 1_555
Cu3_3 O3_6 1_555 1_555
N1_7 C1_7 1_555 1_555
C1_7 H1_7 1_555 1_555
C2_7 C1_7 1_555 1_555
H2_7 C2_7 1_555 1_555
C3_7 C2_7 1_555 1_555
H3_6 C3_7 1_555 1_555
C4_7 C3_7 1_555 1_555
C5_7 N1_7 1_555 1_555
C6_7 C5_7 1_555 1_555
C9_6 C4_7 1_555 1_555
H6_6 C9_6 1_555 1_555
Cu5_7 N1_7 1_555 1_555
C4_7 C5_7 1_555 1_555
C8_6 C9_6 1_555 1_555
Cu3_2 O1_7 1_555 1_555
O1_7 C16_7 1_555 1_555
O5_4 C16_7 1_555 1_555
O6_5 C17_7 1_555 1_555
O4_4 C17_7 1_555 1_555
H5_6 C7_7 1_555 1_555
C11_6 C10_6 1_555 1_555
H7_6 C11_6 1_555 1_555
C12_6 C11_6 1_555 1_555
C13_6 C12_6 1_555 1_555
H8_6 C13_6 1_555 1_555
C14_6 C13_6 1_555 1_555
C15_6 C10_6 1_555 1_555
H9_6 C15_6 1_555 1_555
C16_7 C12_6 1_555 1_555
C17_7 C14_6 1_555 1_555
N2_7 Cu3_2 1_555 1_555
Cu3_3 O4_4 1_555 1_555
O7_4 Cu3_2 1_555 1_555
C14_6 C15_6 1_555 1_555
N1_8 C1_8 1_555 1_555
Cu3_3 O1_8 1_555 1_555
O1_8 C16_8 1_555 1_555
O5_5 C16_8 1_555 1_555
O6_6 C17_8 1_555 1_555
O4_5 C17_8 1_555 1_555
C1_8 H1_8 1_555 1_555
C2_8 C1_8 1_555 1_555
H2_8 C2_8 1_555 1_555
C3_8 C2_8 1_555 1_555
H3_7 C3_8 1_555 1_555
C4_8 C3_8 1_555 1_555
C5_8 N1_8 1_555 1_555
C6_8 C5_8 1_555 1_555
H4_8 C6_8 1_555 1_555
C7_8 C6_8 1_555 1_555
H5_7 C7_8 1_555 1_555
C8_7 C7_8 1_555 1_555
C9_7 C4_8 1_555 1_555
H6_7 C9_7 1_555 1_555
C10_7 C8_7 1_555 1_555
C11_7 C10_7 1_555 1_555
H7_7 C11_7 1_555 1_555
C12_7 C11_7 1_555 1_555
C13_7 C12_7 1_555 1_555
H8_7 C13_7 1_555 1_555
C14_7 C13_7 1_555 1_555
C15_7 C10_7 1_555 1_555
H9_7 C15_7 1_555 1_555
C16_8 C12_7 1_555 1_555
C17_8 C14_7 1_555 1_555
N2_8 Cu3_3 1_555 1_555
Cu4_3 O4_5 1_555 1_555
Cu5_8 N1_8 1_555 1_555
C4_8 C5_8 1_555 1_555
C8_7 C9_7 1_555 1_555
C14_7 C15_7 1_555 1_555
Cu4_3 O1_9 1_555 1_555
O1_9 C16_9 1_555 1_555
O5_6 C16_9 1_555 1_555
O6_4 C17_9 1_555 1_555
O7_4 C17_9 1_555 1_555
H5_8 C7_9 1_555 1_555
C11_8 C10_8 1_555 1_555
H7_8 C11_8 1_555 1_555
C12_8 C11_8 1_555 1_555
C13_8 C12_8 1_555 1_555
H8_8 C13_8 1_555 1_555
C14_8 C13_8 1_555 1_555
C15_8 C10_8 1_555 1_555
H9_8 C15_8 1_555 1_555
C16_9 C12_8 1_555 1_555
C17_9 C14_8 1_555 1_555
N2_9 Cu4_3 1_555 1_555
C14_8 C15_8 1_555 1_555
N1_9 C1_9 1_555 1_555
C1_9 H1_9 1_555 1_555
C2_9 C1_9 1_555 1_555
H2_9 C2_9 1_555 1_555
C3_9 C2_9 1_555 1_555
H3_8 C3_9 1_555 1_555
C4_9 C3_9 1_555 1_555
C5_9 N1_9 1_555 1_555
C6_9 C5_9 1_555 1_555
C9_8 C4_9 1_555 1_555
H6_8 C9_8 1_555 1_555
Cu5_9 N1_9 1_555 1_555
C4_9 C5_9 1_555 1_555
C8_8 C9_8 1_555 1_555
N1_10 C1_10 1_555 1_555
Cu1_4 O1_10 1_555 1_555
O1_10 C16_10 1_555 1_555
O2_7 C16_10 1_555 1_555
O3_7 C17_10 1_555 1_555
O4_6 C17_10 1_555 1_555
C1_10 H1_10 1_555 1_555
C2_10 C1_10 1_555 1_555
H2_10 C2_10 1_555 1_555
C3_10 C2_10 1_555 1_555
H3_9 C3_10 1_555 1_555
C4_10 C3_10 1_555 1_555
C5_10 N1_10 1_555 1_555
C6_10 C5_10 1_555 1_555
H4_10 C6_10 1_555 1_555
C7_10 C6_10 1_555 1_555
H5_9 C7_10 1_555 1_555
C8_9 C7_10 1_555 1_555
C9_9 C4_10 1_555 1_555
H6_9 C9_9 1_555 1_555
C10_9 C8_9 1_555 1_555
C11_9 C10_9 1_555 1_555
H7_9 C11_9 1_555 1_555
C12_9 C11_9 1_555 1_555
C13_9 C12_9 1_555 1_555
H8_9 C13_9 1_555 1_555
C14_9 C13_9 1_555 1_555
C15_9 C10_9 1_555 1_555
H9_9 C15_9 1_555 1_555
C16_10 C12_9 1_555 1_555
C17_10 C14_9 1_555 1_555
N2_10 Cu1_4 1_555 1_555
Cu2_4 O4_6 1_555 1_555
Cu3_4 Cu1_4 1_555 1_555
Cu5_10 N1_10 1_555 1_555
O5_7 Cu1_4 1_555 1_555
O6_7 Cu1_4 1_555 1_555
O7_5 Cu1_4 1_555 1_555
O2_7 Cu3_4 1_555 1_555
C4_10 C5_10 1_555 1_555
C8_9 C9_9 1_555 1_555
C14_9 C15_9 1_555 1_555
N1_11 C1_11 1_555 1_555
Cu1_5 O1_11 1_555 1_555
O1_11 C16_11 1_555 1_555
O2_8 C16_11 1_555 1_555
O3_8 C17_11 1_555 1_555
O7_5 C17_11 1_555 1_555
C1_11 H1_11 1_555 1_555
C4_11 C3_11 1_555 1_555
C5_11 N1_11 1_555 1_555
C6_11 C5_11 1_555 1_555
H4_11 C6_11 1_555 1_555
C7_11 C6_11 1_555 1_555
H5_10 C7_11 1_555 1_555
C8_10 C7_11 1_555 1_555
C9_10 C4_11 1_555 1_555
H6_10 C9_10 1_555 1_555
C10_10 C8_10 1_555 1_555
C11_10 C10_10 1_555 1_555
H7_10 C11_10 1_555 1_555
C12_10 C11_10 1_555 1_555
C13_10 C12_10 1_555 1_555
H8_10 C13_10 1_555 1_555
C14_10 C13_10 1_555 1_555
C15_10 C10_10 1_555 1_555
H9_10 C15_10 1_555 1_555
C16_11 C12_10 1_555 1_555
C17_11 C14_10 1_555 1_555
N2_11 Cu1_5 1_555 1_555
Cu3_4 O3_8 1_555 1_555
Cu5_11 N1_11 1_555 1_555
O7_6 Cu1_5 1_555 1_555
C4_11 C5_11 1_555 1_555
C8_10 C9_10 1_555 1_555
C14_10 C15_10 1_555 1_555
H2_11 C2_11 1_555 1_555
H2_12 C2_12 1_555 1_555
N1_12 C1_12 1_555 1_555
Cu2_4 O1_12 1_555 1_555
O1_12 C16_12 1_555 1_555
O2_9 C16_12 1_555 1_555
O3_9 C17_12 1_555 1_555
O7_6 C17_12 1_555 1_555
C1_12 H1_12 1_555 1_555
C4_12 C3_12 1_555 1_555
C5_12 N1_12 1_555 1_555
C6_12 C5_12 1_555 1_555
H4_12 C6_12 1_555 1_555
C7_12 C6_12 1_555 1_555
H5_11 C7_12 1_555 1_555
C8_11 C7_12 1_555 1_555
C9_11 C4_12 1_555 1_555
H6_11 C9_11 1_555 1_555
C10_11 C8_11 1_555 1_555
C11_11 C10_11 1_555 1_555
H7_11 C11_11 1_555 1_555
C12_11 C11_11 1_555 1_555
C13_11 C12_11 1_555 1_555
H8_11 C13_11 1_555 1_555
C14_11 C13_11 1_555 1_555
C15_11 C10_11 1_555 1_555
H9_11 C15_11 1_555 1_555
C16_12 C12_11 1_555 1_555
C17_12 C14_11 1_555 1_555
N2_12 Cu2_4 1_555 1_555
Cu5_12 N1_12 1_555 1_555
C4_12 C5_12 1_555 1_555
C8_11 C9_11 1_555 1_555
C14_11 C15_11 1_555 1_555
N1_13 C1_13 1_555 1_555
Cu3_4 O1_13 1_555 1_555
O1_13 C16_13 1_555 1_555
O5_7 C16_13 1_555 1_555
O6_8 C17_13 1_555 1_555
O4_7 C17_13 1_555 1_555
C1_13 H1_13 1_555 1_555
C2_13 C1_13 1_555 1_555
H2_13 C2_13 1_555 1_555
C3_13 C2_13 1_555 1_555
H3_12 C3_13 1_555 1_555
C4_13 C3_13 1_555 1_555
C5_13 N1_13 1_555 1_555
C6_13 C5_13 1_555 1_555
H4_13 C6_13 1_555 1_555
C7_13 C6_13 1_555 1_555
H5_12 C7_13 1_555 1_555
C8_12 C7_13 1_555 1_555
C9_12 C4_13 1_555 1_555
H6_12 C9_12 1_555 1_555
C10_12 C8_12 1_555 1_555
C11_12 C10_12 1_555 1_555
H7_12 C11_12 1_555 1_555
C12_12 C11_12 1_555 1_555
C13_12 C12_12 1_555 1_555
H8_12 C13_12 1_555 1_555
C14_12 C13_12 1_555 1_555
C15_12 C10_12 1_555 1_555
H9_12 C15_12 1_555 1_555
C16_13 C12_12 1_555 1_555
C17_13 C14_12 1_555 1_555
N2_13 Cu3_4 1_555 1_555
Cu3_5 O4_7 1_555 1_555
Cu5_13 N1_13 1_555 1_555
O7_7 Cu3_4 1_555 1_555
C4_13 C5_13 1_555 1_555
C8_12 C9_12 1_555 1_555
C14_12 C15_12 1_555 1_555
H2_14 C2_14 1_555 1_555
N1_14 C1_14 1_555 1_555
Cu3_5 O1_14 1_555 1_555
O1_14 C16_14 1_555 1_555
O5_8 C16_14 1_555 1_555
O6_9 C17_14 1_555 1_555
O4_8 C17_14 1_555 1_555
C1_14 H1_14 1_555 1_555
C4_14 C3_14 1_555 1_555
C5_14 N1_14 1_555 1_555
C6_14 C5_14 1_555 1_555
H4_14 C6_14 1_555 1_555
C7_14 C6_14 1_555 1_555
H5_13 C7_14 1_555 1_555
C8_13 C7_14 1_555 1_555
C9_13 C4_14 1_555 1_555
H6_13 C9_13 1_555 1_555
C10_13 C8_13 1_555 1_555
C11_13 C10_13 1_555 1_555
H7_13 C11_13 1_555 1_555
C12_13 C11_13 1_555 1_555
C13_13 C12_13 1_555 1_555
H8_13 C13_13 1_555 1_555
C14_13 C13_13 1_555 1_555
C15_13 C10_13 1_555 1_555
H9_13 C15_13 1_555 1_555
C16_14 C12_13 1_555 1_555
C17_14 C14_13 1_555 1_555
N2_14 Cu3_5 1_555 1_555
Cu4_4 O4_8 1_555 1_555
Cu5_14 N1_14 1_555 1_555
C4_14 C5_14 1_555 1_555
C8_13 C9_13 1_555 1_555
C14_13 C15_13 1_555 1_555
N1_15 C1_15 1_555 1_555
Cu4_4 O1_15 1_555 1_555
O1_15 C16_15 1_555 1_555
O5_9 C16_15 1_555 1_555
O6_7 C17_15 1_555 1_555
O7_7 C17_15 1_555 1_555
C1_15 H1_15 1_555 1_555
C4_15 C3_15 1_555 1_555
C5_15 N1_15 1_555 1_555
C6_15 C5_15 1_555 1_555
H4_15 C6_15 1_555 1_555
C7_15 C6_15 1_555 1_555
H5_14 C7_15 1_555 1_555
C8_14 C7_15 1_555 1_555
C9_14 C4_15 1_555 1_555
H6_14 C9_14 1_555 1_555
C10_14 C8_14 1_555 1_555
C11_14 C10_14 1_555 1_555
H7_14 C11_14 1_555 1_555
C12_14 C11_14 1_555 1_555
C13_14 C12_14 1_555 1_555
H8_14 C13_14 1_555 1_555
C14_14 C13_14 1_555 1_555
C15_14 C10_14 1_555 1_555
H9_14 C15_14 1_555 1_555
C16_15 C12_14 1_555 1_555
C17_15 C14_14 1_555 1_555
N2_15 Cu4_4 1_555 1_555
Cu5_15 N1_15 1_555 1_555
C4_15 C5_15 1_555 1_555
C8_14 C9_14 1_555 1_555
C14_14 C15_14 1_555 1_555
H2_15 C2_15 1_555 1_555
N1_16 C1_16 1_555 1_555
C1_16 H1_16 1_555 1_555
C2_16 C1_16 1_555 1_555
H2_16 C2_16 1_555 1_555
C3_16 C2_16 1_555 1_555
H3_15 C3_16 1_555 1_555
C4_16 C3_16 1_555 1_555
C5_16 N1_16 1_555 1_555
C6_16 C5_16 1_555 1_555
C9_15 C4_16 1_555 1_555
H6_15 C9_15 1_555 1_555
Cu5_16 N1_16 1_555 1_555
C4_16 C5_16 1_555 1_555
C8_15 C9_15 1_555 1_555
Cu3 O1_16 1_555 1_555
O1_16 C16_16 1_555 1_555
O5 C16_16 1_555 1_555
O6_3 C17_16 1_555 1_555
O4_9 C17_16 1_555 1_555
H5_15 C7_16 1_555 1_555
C11_15 C10_15 1_555 1_555
H7_15 C11_15 1_555 1_555
C12_15 C11_15 1_555 1_555
C13_15 C12_15 1_555 1_555
H8_15 C13_15 1_555 1_555
C14_15 C13_15 1_555 1_555
C15_15 C10_15 1_555 1_555
H9_15 C15_15 1_555 1_555
C16_16 C12_15 1_555 1_555
C17_16 C14_15 1_555 1_555
N2_16 Cu3 1_555 1_555
Cu4_2 O4_9 1_555 1_555
O7_8 Cu3 1_555 1_555
C14_15 C15_15 1_555 1_555
Cu4 O1_17 1_555 1_555
O1_17 C16_17 1_555 1_555
O5_2 C16_17 1_555 1_555
O6 C17_17 1_555 1_555
O7_8 C17_17 1_555 1_555
H5_16 C7_17 1_555 1_555
C11_16 C10_16 1_555 1_555
H7_16 C11_16 1_555 1_555
C12_16 C11_16 1_555 1_555
C13_16 C12_16 1_555 1_555
H8_16 C13_16 1_555 1_555
C14_16 C13_16 1_555 1_555
C15_16 C10_16 1_555 1_555
H9_16 C15_16 1_555 1_555
C16_17 C12_16 1_555 1_555
C17_17 C14_16 1_555 1_555
N2_17 Cu4 1_555 1_555
O7_9 Cu4 1_555 1_555
C14_16 C15_16 1_555 1_555
N1_17 C1_17 1_555 1_555
C1_17 H1_17 1_555 1_555
C2_17 C1_17 1_555 1_555
H2_17 C2_17 1_555 1_555
C3_17 C2_17 1_555 1_555
H3_16 C3_17 1_555 1_555
C4_17 C3_17 1_555 1_555
C5_17 N1_17 1_555 1_555
C6_17 C5_17 1_555 1_555
C9_16 C4_17 1_555 1_555
H6_16 C9_16 1_555 1_555
Cu5_17 N1_17 1_555 1_555
C4_17 C5_17 1_555 1_555
C8_16 C9_16 1_555 1_555
N1_18 C1_18 1_555 1_555
Cu4_2 O1_18 1_555 1_555
O1_18 C16_18 1_555 1_555
O5_3 C16_18 1_555 1_555
O6_2 C17_18 1_555 1_555
O7_9 C17_18 1_555 1_555
C1_18 H1_18 1_555 1_555
C2_18 C1_18 1_555 1_555
H2_18 C2_18 1_555 1_555
C3_18 C2_18 1_555 1_555
H3_17 C3_18 1_555 1_555
C4_18 C3_18 1_555 1_555
C5_18 N1_18 1_555 1_555
C6_18 C5_18 1_555 1_555
H4_18 C6_18 1_555 1_555
C7_18 C6_18 1_555 1_555
H5_17 C7_18 1_555 1_555
C8_17 C7_18 1_555 1_555
C9_17 C4_18 1_555 1_555
H6_17 C9_17 1_555 1_555
C10_17 C8_17 1_555 1_555
C11_17 C10_17 1_555 1_555
H7_17 C11_17 1_555 1_555
C12_17 C11_17 1_555 1_555
C13_17 C12_17 1_555 1_555
H8_17 C13_17 1_555 1_555
C14_17 C13_17 1_555 1_555
C15_17 C10_17 1_555 1_555
H9_17 C15_17 1_555 1_555
C16_18 C12_17 1_555 1_555
C17_18 C14_17 1_555 1_555
N2_18 Cu4_2 1_555 1_555
Cu5_18 N1_18 1_555 1_555
C4_18 C5_18 1_555 1_555
C8_17 C9_17 1_555 1_555
C14_17 C15_17 1_555 1_555
Cu5_12 O1_19 1_555 1_555
O1_19 C16_19 1_555 1_555
O2_10 C16_19 1_555 1_555
Cu5_2 Cu5_12 1_555 1_555
O5_10 Cu5_12 1_555 1_555
O6_10 Cu5_12 1_555 1_555
O7_10 Cu5_12 1_555 1_555
O2_10 Cu5_2 1_555 1_555
N2_18 C1_19 1_555 1_555
C1_19 H1_19 1_555 1_555
C2_19 C1_19 1_555 1_555
H2_19 C2_19 1_555 1_555
C3_19 C2_19 1_555 1_555
C4_19 C3_19 1_555 1_555
C5_19 N2_18 1_555 1_555
C6_19 C5_19 1_555 1_555
H4_19 C6_19 1_555 1_555
C7_19 C6_19 1_555 1_555
C4_19 C5_19 1_555 1_555
O3_10 C17_19 1_555 1_555
O4_10 C17_19 1_555 1_555
H6_18 C9_18 1_555 1_555
C10_18 C8_18 1_555 1_555
C11_18 C10_18 1_555 1_555
H7_18 C11_18 1_555 1_555
C12_18 C11_18 1_555 1_555
C13_18 C12_18 1_555 1_555
H8_18 C13_18 1_555 1_555
C14_18 C13_18 1_555 1_555
C15_18 C10_18 1_555 1_555
H9_18 C15_18 1_555 1_555
C17_19 C14_18 1_555 1_555
Cu5_10 O4_10 1_555 1_555
Cu5_3 O3_10 1_555 1_555
C8_18 C9_18 1_555 1_555
C14_18 C15_18 1_555 1_555
Cu5_10 Cu5_3 1_555 1_555
O3_11 C17_20 1_555 1_555
O4_11 C17_20 1_555 1_555
Cu5_11 O4_11 1_555 1_555
Cu5 O3_11 1_555 1_555
Cu5_11 Cu5 1_555 1_555
N2_16 C1_20 1_555 1_555
C1_20 H1_20 1_555 1_555
C2_20 C1_20 1_555 1_555
H2_20 C2_20 1_555 1_555
C3_20 C2_20 1_555 1_555
C4_20 C3_20 1_555 1_555
C5_20 N2_16 1_555 1_555
C6_20 C5_20 1_555 1_555
H4_20 C6_20 1_555 1_555
C7_20 C6_20 1_555 1_555
C4_20 C5_20 1_555 1_555
Cu5_10 O1_20 1_555 1_555
O1_20 C16_20 1_555 1_555
O2_11 C16_20 1_555 1_555
O5_11 Cu5_10 1_555 1_555
O6_11 Cu5_10 1_555 1_555
O2_11 Cu5_3 1_555 1_555
N2_17 C1_21 1_555 1_555
C1_21 H1_21 1_555 1_555
C2_21 C1_21 1_555 1_555
H2_21 C2_21 1_555 1_555
C3_21 C2_21 1_555 1_555
C4_21 C3_21 1_555 1_555
C5_21 N2_17 1_555 1_555
C6_21 C5_21 1_555 1_555
H4_21 C6_21 1_555 1_555
C7_21 C6_21 1_555 1_555
C4_21 C5_21 1_555 1_555
Cu5_11 O1_21 1_555 1_555
O1_21 C16_21 1_555 1_555
O2_12 C16_21 1_555 1_555
H6_19 C9_19 1_555 1_555
C10_19 C8_19 1_555 1_555
C11_19 C10_19 1_555 1_555
H7_19 C11_19 1_555 1_555
C12_19 C11_19 1_555 1_555
C13_19 C12_19 1_555 1_555
H8_19 C13_19 1_555 1_555
C14_19 C13_19 1_555 1_555
C15_19 C10_19 1_555 1_555
H9_19 C15_19 1_555 1_555
C16_21 C12_19 1_555 1_555
O5_12 Cu5_11 1_555 1_555
O6_12 Cu5_11 1_555 1_555
O2_12 Cu5 1_555 1_555
C8_19 C9_19 1_555 1_555
C14_19 C15_19 1_555 1_555
O3_12 C17_21 1_555 1_555
O7_10 C17_21 1_555 1_555
Cu5_2 O3_12 1_555 1_555
Cu5_14 O1_22 1_555 1_555
O1_22 C16_22 1_555 1_555
O2_13 C16_22 1_555 1_555
Cu5_6 Cu5_14 1_555 1_555
O5_13 Cu5_14 1_555 1_555
O6_13 Cu5_14 1_555 1_555
O7_11 Cu5_14 1_555 1_555
O2_13 Cu5_6 1_555 1_555
N2_8 C1_22 1_555 1_555
O3_13 C17_22 1_555 1_555
O4_12 C17_22 1_555 1_555
C1_22 H1_22 1_555 1_555
C2_22 C1_22 1_555 1_555
H2_22 C2_22 1_555 1_555
C3_22 C2_22 1_555 1_555
H3_20 C3_22 1_555 1_555
C4_22 C3_22 1_555 1_555
C5_22 N2_8 1_555 1_555
C6_22 C5_22 1_555 1_555
H4_22 C6_22 1_555 1_555
C7_22 C6_22 1_555 1_555
H5_20 C7_22 1_555 1_555
C8_20 C7_22 1_555 1_555
C9_20 C4_22 1_555 1_555
H6_20 C9_20 1_555 1_555
C10_20 C8_20 1_555 1_555
C11_20 C10_20 1_555 1_555
H7_20 C11_20 1_555 1_555
C12_20 C11_20 1_555 1_555
C13_20 C12_20 1_555 1_555
H8_20 C13_20 1_555 1_555
C14_20 C13_20 1_555 1_555
C15_20 C10_20 1_555 1_555
H9_20 C15_20 1_555 1_555
C17_22 C14_20 1_555 1_555
Cu5_13 O4_12 1_555 1_555
Cu5_5 O3_13 1_555 1_555
C4_22 C5_22 1_555 1_555
C8_20 C9_20 1_555 1_555
C14_20 C15_20 1_555 1_555
Cu5_13 Cu5_5 1_555 1_555
N2_9 C1_23 1_555 1_555
Cu5_15 O1_23 1_555 1_555
O1_23 C16_23 1_555 1_555
O2_14 C16_23 1_555 1_555
C1_23 H1_23 1_555 1_555
C2_23 C1_23 1_555 1_555
H2_23 C2_23 1_555 1_555
C3_23 C2_23 1_555 1_555
H3_21 C3_23 1_555 1_555
C4_23 C3_23 1_555 1_555
C5_23 N2_9 1_555 1_555
C6_23 C5_23 1_555 1_555
H4_23 C6_23 1_555 1_555
C7_23 C6_23 1_555 1_555
H5_21 C7_23 1_555 1_555
C8_21 C7_23 1_555 1_555
C9_21 C4_23 1_555 1_555
H6_21 C9_21 1_555 1_555
C10_21 C8_21 1_555 1_555
C11_21 C10_21 1_555 1_555
H7_21 C11_21 1_555 1_555
C12_21 C11_21 1_555 1_555
C13_21 C12_21 1_555 1_555
H8_21 C13_21 1_555 1_555
C14_21 C13_21 1_555 1_555
C15_21 C10_21 1_555 1_555
H9_21 C15_21 1_555 1_555
C16_23 C12_21 1_555 1_555
Cu5_4 Cu5_15 1_555 1_555
O5_14 Cu5_15 1_555 1_555
O6_14 Cu5_15 1_555 1_555
O7_12 Cu5_15 1_555 1_555
O2_14 Cu5_4 1_555 1_555
C4_23 C5_23 1_555 1_555
C8_21 C9_21 1_555 1_555
C14_21 C15_21 1_555 1_555
O3_14 C17_23 1_555 1_555
O7_11 C17_23 1_555 1_555
Cu5_6 O3_14 1_555 1_555
O3_15 C17_24 1_555 1_555
O7_12 C17_24 1_555 1_555
Cu5_4 O3_15 1_555 1_555
N2_7 C1_24 1_555 1_555
C1_24 H1_24 1_555 1_555
C2_24 C1_24 1_555 1_555
H2_24 C2_24 1_555 1_555
C3_24 C2_24 1_555 1_555
H3_22 C3_24 1_555 1_555
C4_24 C3_24 1_555 1_555
C5_24 N2_7 1_555 1_555
C6_24 C5_24 1_555 1_555
H4_24 C6_24 1_555 1_555
C7_24 C6_24 1_555 1_555
H5_22 C7_24 1_555 1_555
C8_22 C7_24 1_555 1_555
C9_22 C4_24 1_555 1_555
H6_22 C9_22 1_555 1_555
C10_22 C8_22 1_555 1_555
C11_22 C10_22 1_555 1_555
H7_22 C11_22 1_555 1_555
C12_22 C11_22 1_555 1_555
C13_22 C12_22 1_555 1_555
H8_22 C13_22 1_555 1_555
C14_22 C13_22 1_555 1_555
C15_22 C10_22 1_555 1_555
H9_22 C15_22 1_555 1_555
C4_24 C5_24 1_555 1_555
C8_22 C9_22 1_555 1_555
C14_22 C15_22 1_555 1_555
Cu5_13 O1_24 1_555 1_555
O1_24 C16_24 1_555 1_555
O2_15 C16_24 1_555 1_555
O5_15 Cu5_13 1_555 1_555
O6_15 Cu5_13 1_555 1_555
O2_15 Cu5_5 1_555 1_555
Cu5_6 O1_25 1_555 1_555
O1_25 C16_25 1_555 1_555
O5_13 C16_25 1_555 1_555
O6_14 C17_25 1_555 1_555
O4_13 C17_25 1_555 1_555
H5_23 C7_25 1_555 1_555
C11_23 C10_23 1_555 1_555
H7_23 C11_23 1_555 1_555
C12_23 C11_23 1_555 1_555
C13_23 C12_23 1_555 1_555
H8_23 C13_23 1_555 1_555
C14_23 C13_23 1_555 1_555
C15_23 C10_23 1_555 1_555
H9_23 C15_23 1_555 1_555
C16_25 C12_23 1_555 1_555
C17_25 C14_23 1_555 1_555
Cu5_4 O4_13 1_555 1_555
O7_13 Cu5_6 1_555 1_555
C14_23 C15_23 1_555 1_555
N2_12 C1_25 1_555 1_555
C1_25 H1_25 1_555 1_555
C2_25 C1_25 1_555 1_555
H2_25 C2_25 1_555 1_555
C3_25 C2_25 1_555 1_555
H3_23 C3_25 1_555 1_555
C4_25 C3_25 1_555 1_555
C5_25 N2_12 1_555 1_555
C6_25 C5_25 1_555 1_555
C9_23 C4_25 1_555 1_555
H6_23 C9_23 1_555 1_555
C4_25 C5_25 1_555 1_555
C8_23 C9_23 1_555 1_555
N2_10 C1_26 1_555 1_555
Cu5_4 O1_26 1_555 1_555
O1_26 C16_26 1_555 1_555
O5_14 C16_26 1_555 1_555
O6_15 C17_26 1_555 1_555
O4_14 C17_26 1_555 1_555
C1_26 H1_26 1_555 1_555
C2_26 C1_26 1_555 1_555
H2_26 C2_26 1_555 1_555
C3_26 C2_26 1_555 1_555
H3_24 C3_26 1_555 1_555
C4_26 C3_26 1_555 1_555
C5_26 N2_10 1_555 1_555
C6_26 C5_26 1_555 1_555
H4_26 C6_26 1_555 1_555
C7_26 C6_26 1_555 1_555
H5_24 C7_26 1_555 1_555
C8_24 C7_26 1_555 1_555
C9_24 C4_26 1_555 1_555
H6_24 C9_24 1_555 1_555
C10_24 C8_24 1_555 1_555
C11_24 C10_24 1_555 1_555
H7_24 C11_24 1_555 1_555
C12_24 C11_24 1_555 1_555
C13_24 C12_24 1_555 1_555
H8_24 C13_24 1_555 1_555
C14_24 C13_24 1_555 1_555
C15_24 C10_24 1_555 1_555
H9_24 C15_24 1_555 1_555
C16_26 C12_24 1_555 1_555
C17_26 C14_24 1_555 1_555
Cu5_5 O4_14 1_555 1_555
C4_26 C5_26 1_555 1_555
C8_24 C9_24 1_555 1_555
C14_24 C15_24 1_555 1_555
N2_11 C1_27 1_555 1_555
C1_27 H1_27 1_555 1_555
C2_27 C1_27 1_555 1_555
H2_27 C2_27 1_555 1_555
C3_27 C2_27 1_555 1_555
H3_25 C3_27 1_555 1_555
C4_27 C3_27 1_555 1_555
C5_27 N2_11 1_555 1_555
C6_27 C5_27 1_555 1_555
C9_25 C4_27 1_555 1_555
H6_25 C9_25 1_555 1_555
C4_27 C5_27 1_555 1_555
C8_25 C9_25 1_555 1_555
Cu5_5 O1_27 1_555 1_555
O1_27 C16_27 1_555 1_555
O5_15 C16_27 1_555 1_555
O6_13 C17_27 1_555 1_555
O7_13 C17_27 1_555 1_555
H5_25 C7_27 1_555 1_555
C11_25 C10_25 1_555 1_555
H7_25 C11_25 1_555 1_555
C12_25 C11_25 1_555 1_555
C13_25 C12_25 1_555 1_555
H8_25 C13_25 1_555 1_555
C14_25 C13_25 1_555 1_555
C15_25 C10_25 1_555 1_555
H9_25 C15_25 1_555 1_555
C16_27 C12_25 1_555 1_555
C17_27 C14_25 1_555 1_555
C14_25 C15_25 1_555 1_555
N2_2 C1_28 1_555 1_555
Cu5_8 O1_28 1_555 1_555
O1_28 C16_28 1_555 1_555
O2_16 C16_28 1_555 1_555
O3_16 C17_28 1_555 1_555
O4_15 C17_28 1_555 1_555
C1_28 H1_28 1_555 1_555
C2_28 C1_28 1_555 1_555
H2_28 C2_28 1_555 1_555
C3_28 C2_28 1_555 1_555
H3_26 C3_28 1_555 1_555
C4_28 C3_28 1_555 1_555
C5_28 N2_2 1_555 1_555
C6_28 C5_28 1_555 1_555
H4_28 C6_28 1_555 1_555
C7_28 C6_28 1_555 1_555
H5_26 C7_28 1_555 1_555
C8_26 C7_28 1_555 1_555
C9_26 C4_28 1_555 1_555
H6_26 C9_26 1_555 1_555
C10_26 C8_26 1_555 1_555
C11_26 C10_26 1_555 1_555
H7_26 C11_26 1_555 1_555
C12_26 C11_26 1_555 1_555
C13_26 C12_26 1_555 1_555
H8_26 C13_26 1_555 1_555
C14_26 C13_26 1_555 1_555
C15_26 C10_26 1_555 1_555
H9_26 C15_26 1_555 1_555
C16_28 C12_26 1_555 1_555
C17_28 C14_26 1_555 1_555
Cu5_7 O4_15 1_555 1_555
Cu5_18 Cu5_8 1_555 1_555
O5_16 Cu5_8 1_555 1_555
O6_16 Cu5_8 1_555 1_555
O7_14 Cu5_8 1_555 1_555
O2_16 Cu5_18 1_555 1_555
C4_28 C5_28 1_555 1_555
C8_26 C9_26 1_555 1_555
C14_26 C15_26 1_555 1_555
H2_29 C2_29 1_555 1_555
N2_3 C1_29 1_555 1_555
Cu5_9 O1_29 1_555 1_555
O1_29 C16_29 1_555 1_555
O2_17 C16_29 1_555 1_555
O3_17 C17_29 1_555 1_555
O7_14 C17_29 1_555 1_555
C1_29 H1_29 1_555 1_555
C4_29 C3_29 1_555 1_555
C5_29 N2_3 1_555 1_555
C6_29 C5_29 1_555 1_555
H4_29 C6_29 1_555 1_555
C7_29 C6_29 1_555 1_555
H5_27 C7_29 1_555 1_555
C8_27 C7_29 1_555 1_555
C9_27 C4_29 1_555 1_555
H6_27 C9_27 1_555 1_555
C10_27 C8_27 1_555 1_555
C11_27 C10_27 1_555 1_555
H7_27 C11_27 1_555 1_555
C12_27 C11_27 1_555 1_555
C13_27 C12_27 1_555 1_555
H8_27 C13_27 1_555 1_555
C14_27 C13_27 1_555 1_555
C15_27 C10_27 1_555 1_555
H9_27 C15_27 1_555 1_555
C16_29 C12_27 1_555 1_555
C17_29 C14_27 1_555 1_555
Cu5_18 O3_17 1_555 1_555
O7_15 Cu5_9 1_555 1_555
C4_29 C5_29 1_555 1_555
C8_27 C9_27 1_555 1_555
C14_27 C15_27 1_555 1_555
N2 C1_30 1_555 1_555
Cu5_7 O1_30 1_555 1_555
O1_30 C16_30 1_555 1_555
O2_18 C16_30 1_555 1_555
O3_18 C17_30 1_555 1_555
O7_15 C17_30 1_555 1_555
C1_30 H1_30 1_555 1_555
C4_30 C3_30 1_555 1_555
C5_30 N2 1_555 1_555
C6_30 C5_30 1_555 1_555
H4_30 C6_30 1_555 1_555
C7_30 C6_30 1_555 1_555
H5_28 C7_30 1_555 1_555
C8_28 C7_30 1_555 1_555
C9_28 C4_30 1_555 1_555
H6_28 C9_28 1_555 1_555
C10_28 C8_28 1_555 1_555
C11_28 C10_28 1_555 1_555
H7_28 C11_28 1_555 1_555
C12_28 C11_28 1_555 1_555
C13_28 C12_28 1_555 1_555
H8_28 C13_28 1_555 1_555
C14_28 C13_28 1_555 1_555
C15_28 C10_28 1_555 1_555
H9_28 C15_28 1_555 1_555
C16_30 C12_28 1_555 1_555
C17_30 C14_28 1_555 1_555
C4_30 C5_30 1_555 1_555
C8_28 C9_28 1_555 1_555
C14_28 C15_28 1_555 1_555
H2_30 C2_30 1_555 1_555
N2_6 C1_31 1_555 1_555
Cu5_18 O1_31 1_555 1_555
O1_31 C16_31 1_555 1_555
O5_16 C16_31 1_555 1_555
O6_17 C17_31 1_555 1_555
O4_16 C17_31 1_555 1_555
C1_31 H1_31 1_555 1_555
C2_31 C1_31 1_555 1_555
H2_31 C2_31 1_555 1_555
C3_31 C2_31 1_555 1_555
H3_29 C3_31 1_555 1_555
C4_31 C3_31 1_555 1_555
C5_31 N2_6 1_555 1_555
C6_31 C5_31 1_555 1_555
H4_31 C6_31 1_555 1_555
C7_31 C6_31 1_555 1_555
H5_29 C7_31 1_555 1_555
C8_29 C7_31 1_555 1_555
C9_29 C4_31 1_555 1_555
H6_29 C9_29 1_555 1_555
C10_29 C8_29 1_555 1_555
C11_29 C10_29 1_555 1_555
H7_29 C11_29 1_555 1_555
C12_29 C11_29 1_555 1_555
C13_29 C12_29 1_555 1_555
H8_29 C13_29 1_555 1_555
C14_29 C13_29 1_555 1_555
C15_29 C10_29 1_555 1_555
H9_29 C15_29 1_555 1_555
C16_31 C12_29 1_555 1_555
C17_31 C14_29 1_555 1_555
Cu5_16 O4_16 1_555 1_555
O7_16 Cu5_18 1_555 1_555
C4_31 C5_31 1_555 1_555
C8_29 C9_29 1_555 1_555
C14_29 C15_29 1_555 1_555
N2_4 C1_32 1_555 1_555
Cu5_16 O1_32 1_555 1_555
O1_32 C16_32 1_555 1_555
O5_17 C16_32 1_555 1_555
O6_18 C17_32 1_555 1_555
O4_17 C17_32 1_555 1_555
C1_32 H1_32 1_555 1_555
C4_32 C3_32 1_555 1_555
C5_32 N2_4 1_555 1_555
C6_32 C5_32 1_555 1_555
H4_32 C6_32 1_555 1_555
C7_32 C6_32 1_555 1_555
H5_30 C7_32 1_555 1_555
C8_30 C7_32 1_555 1_555
C9_30 C4_32 1_555 1_555
H6_30 C9_30 1_555 1_555
C10_30 C8_30 1_555 1_555
C11_30 C10_30 1_555 1_555
H7_30 C11_30 1_555 1_555
C12_30 C11_30 1_555 1_555
C13_30 C12_30 1_555 1_555
H8_30 C13_30 1_555 1_555
C14_30 C13_30 1_555 1_555
C15_30 C10_30 1_555 1_555
H9_30 C15_30 1_555 1_555
C16_32 C12_30 1_555 1_555
C17_32 C14_30 1_555 1_555
Cu5_17 O4_17 1_555 1_555
C4_32 C5_32 1_555 1_555
C8_30 C9_30 1_555 1_555
C14_30 C15_30 1_555 1_555
H2_32 C2_32 1_555 1_555
H2_33 C2_33 1_555 1_555
N2_5 C1_33 1_555 1_555
Cu5_17 O1_33 1_555 1_555
O1_33 C16_33 1_555 1_555
O5_18 C16_33 1_555 1_555
O6_16 C17_33 1_555 1_555
O7_16 C17_33 1_555 1_555
C1_33 H1_33 1_555 1_555
C4_33 C3_33 1_555 1_555
C5_33 N2_5 1_555 1_555
C6_33 C5_33 1_555 1_555
H4_33 C6_33 1_555 1_555
C7_33 C6_33 1_555 1_555
H5_31 C7_33 1_555 1_555
C8_31 C7_33 1_555 1_555
C9_31 C4_33 1_555 1_555
H6_31 C9_31 1_555 1_555
C10_31 C8_31 1_555 1_555
C11_31 C10_31 1_555 1_555
H7_31 C11_31 1_555 1_555
C12_31 C11_31 1_555 1_555
C13_31 C12_31 1_555 1_555
H8_31 C13_31 1_555 1_555
C14_31 C13_31 1_555 1_555
C15_31 C10_31 1_555 1_555
H9_31 C15_31 1_555 1_555
C16_33 C12_31 1_555 1_555
C17_33 C14_31 1_555 1_555
C4_33 C5_33 1_555 1_555
C8_31 C9_31 1_555 1_555
C14_31 C15_31 1_555 1_555
Cu5_2 O1_34 1_555 1_555
O1_34 C16_34 1_555 1_555
O5_10 C16_34 1_555 1_555
O6_12 C17_34 1_555 1_555
O4_18 C17_34 1_555 1_555
H5_32 C7_34 1_555 1_555
C11_32 C10_32 1_555 1_555
H7_32 C11_32 1_555 1_555
C12_32 C11_32 1_555 1_555
C13_32 C12_32 1_555 1_555
H8_32 C13_32 1_555 1_555
C14_32 C13_32 1_555 1_555
C15_32 C10_32 1_555 1_555
H9_32 C15_32 1_555 1_555
C16_34 C12_32 1_555 1_555
C17_34 C14_32 1_555 1_555
Cu5 O4_18 1_555 1_555
O7_17 Cu5_2 1_555 1_555
C14_32 C15_32 1_555 1_555
N2_14 C1_34 1_555 1_555
C1_34 H1_34 1_555 1_555
C2_34 C1_34 1_555 1_555
H2_34 C2_34 1_555 1_555
C3_34 C2_34 1_555 1_555
H3_32 C3_34 1_555 1_555
C4_34 C3_34 1_555 1_555
C5_34 N2_14 1_555 1_555
C6_34 C5_34 1_555 1_555
C9_32 C4_34 1_555 1_555
H6_32 C9_32 1_555 1_555
C4_34 C5_34 1_555 1_555
C8_32 C9_32 1_555 1_555
N2_15 C1_35 1_555 1_555
C1_35 H1_35 1_555 1_555
C2_35 C1_35 1_555 1_555
H2_35 C2_35 1_555 1_555
C3_35 C2_35 1_555 1_555
H3_33 C3_35 1_555 1_555
C4_35 C3_35 1_555 1_555
C5_35 N2_15 1_555 1_555
C6_35 C5_35 1_555 1_555
C9_33 C4_35 1_555 1_555
H6_33 C9_33 1_555 1_555
C4_35 C5_35 1_555 1_555
C8_33 C9_33 1_555 1_555
Cu5_3 O1_35 1_555 1_555
O1_35 C16_35 1_555 1_555
O5_11 C16_35 1_555 1_555
O6_10 C17_35 1_555 1_555
O7_17 C17_35 1_555 1_555
H5_33 C7_35 1_555 1_555
C11_33 C10_33 1_555 1_555
H7_33 C11_33 1_555 1_555
C12_33 C11_33 1_555 1_555
C13_33 C12_33 1_555 1_555
H8_33 C13_33 1_555 1_555
C14_33 C13_33 1_555 1_555
C15_33 C10_33 1_555 1_555
H9_33 C15_33 1_555 1_555
C16_35 C12_33 1_555 1_555
C17_35 C14_33 1_555 1_555
O7_18 Cu5_3 1_555 1_555
C14_33 C15_33 1_555 1_555
N2_13 C1_36 1_555 1_555
Cu5 O1_36 1_555 1_555
O1_36 C16_36 1_555 1_555
O5_12 C16_36 1_555 1_555
O6_11 C17_36 1_555 1_555
O7_18 C17_36 1_555 1_555
C1_36 H1_36 1_555 1_555
C2_36 C1_36 1_555 1_555
H2_36 C2_36 1_555 1_555
C3_36 C2_36 1_555 1_555
H3_34 C3_36 1_555 1_555
C4_36 C3_36 1_555 1_555
C5_36 N2_13 1_555 1_555
C6_36 C5_36 1_555 1_555
H4_36 C6_36 1_555 1_555
C7_36 C6_36 1_555 1_555
H5_34 C7_36 1_555 1_555
C8_34 C7_36 1_555 1_555
C9_34 C4_36 1_555 1_555
H6_34 C9_34 1_555 1_555
C10_34 C8_34 1_555 1_555
C11_34 C10_34 1_555 1_555
H7_34 C11_34 1_555 1_555
C12_34 C11_34 1_555 1_555
C13_34 C12_34 1_555 1_555
H8_34 C13_34 1_555 1_555
C14_34 C13_34 1_555 1_555
C15_34 C10_34 1_555 1_555
H9_34 C15_34 1_555 1_555
C16_36 C12_34 1_555 1_555
C17_36 C14_34 1_555 1_555
C4_36 C5_36 1_555 1_555
C8_34 C9_34 1_555 1_555
C14_34 C15_34 1_555 1_555
H6_35 C9_35 1_555 1_555
C10_35 C8_35 1_555 1_555
C11_35 C10_35 1_555 1_555
H7_35 C11_35 1_555 1_555
C12_35 C11_35 1_555 1_555
C13_35 C12_35 1_555 1_555
H8_35 C13_35 1_555 1_555
C14_35 C13_35 1_555 1_555
C15_35 C10_35 1_555 1_555
H9_35 C15_35 1_555 1_555
C8_35 C9_35 1_555 1_555
C14_35 C15_35 1_555 1_555
H6_36 C9_36 1_555 1_555
C10_36 C8_36 1_555 1_555
C11_36 C10_36 1_555 1_555
H7_36 C11_36 1_555 1_555
C12_36 C11_36 1_555 1_555
C13_36 C12_36 1_555 1_555
H8_36 C13_36 1_555 1_555
C14_36 C13_36 1_555 1_555
C15_36 C10_36 1_555 1_555
H9_36 C15_36 1_555 1_555
C8_36 C9_36 1_555 1_555
C14_36 C15_36 1_555 1_555

#END
