
###############################################################################
#
# This file contains modified crystal structure data generated from the
# MOF subset of the Cambridge Structural Database (CSD) v543 
# hosted by the Cambridge Crystallographic Data Centre (CCDC).
#
# This work is licensed under the Creative Commons
# Attribution-NonCommercial-ShareAlike 4.0 International License.
# To view a copy of this license, visit
# http://creativecommons.org/licenses/by-nc-sa/4.0/
# or send a letter to
# Creative Commons, PO Box 1866, Mountain View, CA 94042, USA.
#
# CIF created using the CSD Python API on 29 September 2022
# The structure has been converted into the P1 space group
# The structure has a 3D framework
# The original CSD entry GENGIR is in the monoclinic crystal system
# The framework has been calculated to contain at least 10.0% void space
# The void calculation uses a probe of radius 1.32A, grid spacing 0.4
# The framework is charged, counterions have been retained in the structure
#
###############################################################################

data_GENGIR
_chemical_formula_moiety         '(C88 H52 O28 P4)n'
_symmetry_cell_setting           triclinic
_symmetry_space_group_name_H-M   'P 1'
_symmetry_Int_Tables_number      1
_space_group_name_Hall           'P 1'
loop_
_symmetry_equiv_pos_site_id
_symmetry_equiv_pos_as_xyz
1 x,y,z
_cell_length_a                   14.537(3)
_cell_length_b                   10.492(2)
_cell_length_c                   23.403(5)
_cell_angle_alpha                90
_cell_angle_beta                 107.32(3)
_cell_angle_gamma                90
_cell_volume                     3407.63
loop_
_atom_site_label
_atom_site_type_symbol
_atom_site_fract_x
_atom_site_fract_y
_atom_site_fract_z
P1 P 0.23095(14) 0.14155(19) 0.12079(8)
O1 O 0.1737(4) 0.0548(4) 0.1479(2)
O2 O 0.1546(3) 0.7065(5) 0.2360(2)
O3 O 0.0737(4) 0.1225(6) 0.2361(3)
O4 O 0.1890(4) 0.7815(5) 0.1568(2)
O7 O 0.7191(4) 0.0832(5) 0.2214(2)
C1 C 0.2191(5) 0.3031(7) 0.1398(3)
C2 C -0.0000 0.1669(18) 0.2500
H1 H 0.0000 0.2555 0.2500
C3 C 0.2055(7) 0.3325(9) 0.1948(4)
H2 H 0.2040 0.2669 0.2213
C4 C 0.1942(8) 0.4582(8) 0.2112(4)
H3 H 0.1865 0.4759 0.2484
C5 C 0.1944(5) 0.5538(7) 0.1726(3)
C6 C 0.2077(7) 0.5308(7) 0.1169(4)
H4 H 0.2077 0.5972 0.0906
C7 C 0.2209(6) 0.4055(8) 0.1020(4)
H5 H 0.2313 0.3891 0.0654
C8 C 0.1785(6) 0.6914(8) 0.1885(3)
C9 C 0.1897(5) 0.1318(7) 0.0403(3)
C10 C 0.0929(5) 0.1296(9) 0.0109(3)
H6 H 0.0490 0.1335 0.0328
C14 C 0.2547(6) 0.1267(10) 0.0069(4)
H9 H 0.3206 0.1279 0.0260
C16 C 0.3581(5) 0.1018(7) 0.1454(3)
C19 C 0.5501(5) 0.0315(7) 0.1860(3)
C20 C 0.5252(6) 0.1586(8) 0.1778(3)
H12 H 0.5733 0.2202 0.1854
C21 C 0.4287(6) 0.1958(9) 0.1582(3)
H13 H 0.4120 0.2816 0.1537
Dy3 Dy 0.15497(2) 0.93606(3) 0.226515(14)
O23 O 0.2809(4) 0.0832(5) 0.2786(2)
O6 O 0.1488(4) 0.0931(5) 0.8226(2)
C11 C 0.0597(6) 0.1220(9) 0.9500(3)
C12 C 0.1230(5) 0.1155(6) 0.9165(3)
C13 C 0.2202(6) 0.1197(9) 0.9446(3)
H8 H 0.2632 0.1179 0.9221
C15 C 0.0860(5) 0.1055(6) 0.8492(3)
Dy5 Dy 0.15497(2) 0.06394(3) 0.726515(14)
O8 O 0.6768(3) 0.8835(6) 0.2285(2)
C17 C 0.3842(6) 0.9751(8) 0.1519(3)
H10 H 0.3368 0.9125 0.1425
C18 C 0.4791(6) 0.9406(9) 0.1721(4)
H11 H 0.4956 0.8548 0.1765
C22 C 0.6544(6) 0.9970(9) 0.2128(3)
Dy6 Dy 0.84503(2) 0.93606(3) 0.273485(14)
O17 O 0.0018(4) 0.8863(6) 0.1753(2)
O20 O 0.1488(4) 0.9069(5) 0.3226(2)
O26 O 0.3232(3) 0.8835(6) 0.2715(2)
C2_2 C 1.0000 0.1669(18) 0.2500
H1_2 H 1.0000 0.2555 0.2500
O12 O 0.9263(4) 0.1225(6) 0.2639(3)
O5 O 0.9982(4) 0.1137(6) 0.8247(2)
H7 H 0.9937 0.1211 0.9309
Dy4 Dy 0.84503(2) 0.06394(3) 0.773485(14)
O5_2 O 0.0018(4) 0.1137(6) 0.6753(2)
H7_2 H 0.0063 0.1211 0.5691
P1_2 P 0.76905(14) 0.14155(19) 0.37921(8)
O1_2 O 0.8263(4) 0.0548(4) 0.3521(2)
O2_2 O 0.8454(3) 0.7065(5) 0.2640(2)
O4_2 O 0.8110(4) 0.7815(5) 0.3432(2)
O6_2 O 0.8512(4) 0.0931(5) 0.6774(2)
C1_2 C 0.7809(5) 0.3031(7) 0.3602(3)
C3_2 C 0.7945(7) 0.3325(9) 0.3052(4)
H2_2 H 0.7960 0.2669 0.2787
C4_2 C 0.8058(8) 0.4582(8) 0.2888(4)
H3_2 H 0.8135 0.4759 0.2516
C5_2 C 0.8056(5) 0.5538(7) 0.3274(3)
C6_2 C 0.7923(7) 0.5308(7) 0.3831(4)
H4_2 H 0.7923 0.5972 0.4094
C7_2 C 0.7791(6) 0.4055(8) 0.3980(4)
H5_2 H 0.7687 0.3891 0.4346
C8_2 C 0.8215(6) 0.6914(8) 0.3115(3)
C9_2 C 0.8103(5) 0.1318(7) 0.4597(3)
C10_2 C 0.9071(5) 0.1296(9) 0.4891(3)
H6_2 H 0.9510 0.1335 0.4672
C11_2 C 0.9403(6) 0.1220(9) 0.5500(3)
C12_2 C 0.8770(5) 0.1155(6) 0.5835(3)
C13_2 C 0.7798(6) 0.1197(9) 0.5554(3)
H8_2 H 0.7368 0.1179 0.5779
C14_2 C 0.7453(6) 0.1267(10) 0.4931(4)
H9_2 H 0.6794 0.1279 0.4740
C15_2 C 0.9140(5) 0.1055(6) 0.6508(3)
C16_2 C 0.6419(5) 0.1018(7) 0.3546(3)
C19_2 C 0.4499(5) 0.0315(7) 0.3140(3)
C20_2 C 0.4748(6) 0.1586(8) 0.3222(3)
H12_2 H 0.4267 0.2202 0.3146
C21_2 C 0.5713(6) 0.1958(9) 0.3418(3)
H13_2 H 0.5880 0.2816 0.3463
C17_2 C 0.6158(6) 0.9751(8) 0.3481(3)
H10_2 H 0.6632 0.9125 0.3575
C18_2 C 0.5209(6) 0.9406(9) 0.3279(4)
H11_2 H 0.5044 0.8548 0.3235
C22_2 C 0.3456(6) 0.9970(9) 0.2872(3)
O17_2 O 0.9982(4) 0.8863(6) 0.3247(2)
O20_2 O 0.8512(4) 0.9069(5) 0.1774(2)
H19 H 0.0063 0.8789 0.0691
C2_3 C 0.0000 0.8331(18) 0.7500
H1_3 H 0.0000 0.7445 0.7500
O12_2 O 0.0737(4) 0.8775(6) 0.7361(3)
O11 O 0.8454(3) 0.2935(5) 0.7640(2)
O15 O 0.8110(4) 0.2185(5) 0.8432(2)
O25 O 0.3232(3) 0.1165(6) 0.7715(2)
O27 O 0.6768(3) 0.1165(6) 0.7285(2)
C38 C 0.6158(6) 0.0249(8) 0.8481(3)
H22 H 0.6632 0.0875 0.8575
C39 C 0.5209(6) 0.0594(9) 0.8279(4)
H23 H 0.5044 0.1452 0.8235
C43 C 0.3456(6) 0.0030(9) 0.7872(3)
C32 C 0.9403(6) 0.8780(9) 0.0500(3)
C33 C 0.8770(5) 0.8845(6) 0.0835(3)
C34 C 0.7798(6) 0.8803(9) 0.0554(3)
H20 H 0.7368 0.8821 0.0779
C36 C 0.9140(5) 0.8945(6) 0.1508(3)
P2 P 0.76905(14) 0.85845(19) 0.87921(8)
O9 O 0.8263(4) 0.9452(4) 0.8521(2)
O13 O 0.9263(4) 0.8775(6) 0.7639(3)
O22 O 0.2809(4) 0.9168(5) 0.7786(2)
O24 O 0.7191(4) 0.9168(5) 0.7214(2)
C23 C 0.7809(5) 0.6969(7) 0.8602(3)
C24 C 0.7945(7) 0.6675(9) 0.8052(4)
H14 H 0.7960 0.7331 0.7787
C25 C 0.8058(8) 0.5418(8) 0.7888(4)
H15 H 0.8135 0.5241 0.7516
C26 C 0.8056(5) 0.4462(7) 0.8274(3)
C27 C 0.7923(7) 0.4692(7) 0.8831(4)
H16 H 0.7923 0.4028 0.9094
C28 C 0.7791(6) 0.5945(8) 0.8980(4)
H17 H 0.7687 0.6109 0.9346
C29 C 0.8215(6) 0.3086(8) 0.8115(3)
C30 C 0.8103(5) 0.8682(7) 0.9597(3)
C31 C 0.9071(5) 0.8704(9) 0.9891(3)
H18 H 0.9510 0.8665 0.9672
C35 C 0.7453(6) 0.8733(10) 0.9931(4)
H21 H 0.6794 0.8721 0.9740
C37 C 0.6419(5) 0.8982(7) 0.8546(3)
C40 C 0.4499(5) 0.9685(7) 0.8140(3)
C41 C 0.4748(6) 0.8414(8) 0.8222(3)
H24 H 0.4267 0.7798 0.8146
C42 C 0.5713(6) 0.8042(9) 0.8418(3)
H25 H 0.5880 0.7184 0.8463
C2_4 C 1.0000 0.8331(18) 0.7500
H1_4 H 1.0000 0.7445 0.7500
O11_2 O 0.1546(3) 0.2935(5) 0.7360(2)
O15_2 O 0.1890(4) 0.2185(5) 0.6568(2)
C38_2 C 0.3842(6) 0.0249(8) 0.6519(3)
H22_2 H 0.3368 0.0875 0.6425
C39_2 C 0.4791(6) 0.0594(9) 0.6721(4)
H23_2 H 0.4956 0.1452 0.6765
C43_2 C 0.6544(6) 0.0030(9) 0.7128(3)
P2_2 P 0.23095(14) 0.85845(19) 0.62079(8)
O9_2 O 0.1737(4) 0.9452(4) 0.6479(2)
C23_2 C 0.2191(5) 0.6969(7) 0.6398(3)
C24_2 C 0.2055(7) 0.6675(9) 0.6948(4)
H14_2 H 0.2040 0.7331 0.7213
C25_2 C 0.1942(8) 0.5418(8) 0.7112(4)
H15_2 H 0.1865 0.5241 0.7484
C26_2 C 0.1944(5) 0.4462(7) 0.6726(3)
C27_2 C 0.2077(7) 0.4692(7) 0.6169(4)
H16_2 H 0.2077 0.4028 0.5906
C28_2 C 0.2209(6) 0.5945(8) 0.6020(4)
H17_2 H 0.2313 0.6109 0.5654
C29_2 C 0.1785(6) 0.3086(8) 0.6885(3)
C30_2 C 0.1897(5) 0.8682(7) 0.5403(3)
C31_2 C 0.0929(5) 0.8704(9) 0.5109(3)
H18_2 H 0.0490 0.8665 0.5328
C32_2 C 0.0597(6) 0.8780(9) 0.4500(3)
C33_2 C 0.1230(5) 0.8845(6) 0.4165(3)
C34_2 C 0.2202(6) 0.8803(9) 0.4446(3)
H20_2 H 0.2632 0.8821 0.4221
C35_2 C 0.2547(6) 0.8733(10) 0.5069(4)
H21_2 H 0.3206 0.8721 0.5260
C36_2 C 0.0860(5) 0.8945(6) 0.3492(3)
C37_2 C 0.3581(5) 0.8982(7) 0.6454(3)
C40_2 C 0.5501(5) 0.9685(7) 0.6860(3)
C41_2 C 0.5252(6) 0.8414(8) 0.6778(3)
H24_2 H 0.5733 0.7798 0.6854
C42_2 C 0.4287(6) 0.8042(9) 0.6582(3)
H25_2 H 0.4120 0.7184 0.6537
H19_2 H 0.9937 0.8789 0.4309
loop_
_geom_bond_atom_site_label_1
_geom_bond_atom_site_label_2
_geom_bond_site_symmetry_1
_geom_bond_site_symmetry_2
P1 O1 1_555 1_555
O2 C8 1_555 1_555
O4 C8 1_555 1_555
C1 P1 1_555 1_555
C2 O3 1_555 1_555
H1 C2 1_555 1_555
C3 C1 1_555 1_555
H2 C3 1_555 1_555
C4 C3 1_555 1_555
H3 C4 1_555 1_555
C5 C4 1_555 1_555
C6 C5 1_555 1_555
H4 C6 1_555 1_555
C7 C1 1_555 1_555
H5 C7 1_555 1_555
C8 C5 1_555 1_555
C9 P1 1_555 1_555
C10 C9 1_555 1_555
H6 C10 1_555 1_555
C14 C9 1_555 1_555
H9 C14 1_555 1_555
C16 P1 1_555 1_555
C20 C19 1_555 1_555
H12 C20 1_555 1_555
C21 C16 1_555 1_555
H13 C21 1_555 1_555
Dy3 O2 1_555 1_555
O4 Dy3 1_555 1_555
C6 C7 1_555 1_555
C20 C21 1_555 1_555
O6 C15 1_555 1_555
C12 C11 1_555 1_555
C13 C12 1_555 1_555
H8 C13 1_555 1_555
C15 C12 1_555 1_555
Dy5 O6 1_555 1_555
O8 C22 1_555 1_555
H10 C17 1_555 1_555
C18 C17 1_555 1_555
H11 C18 1_555 1_555
O17 Dy3 1_555 1_555
O20 Dy3 1_555 1_555
O26 Dy3 1_555 1_555
O8 Dy6 1_555 1_555
H1_2 C2_2 1_555 1_555
O12 C2_2 1_555 1_555
Dy4 O5 1_555 1_555
Dy5 O5_2 1_555 1_555
P1_2 O1_2 1_555 1_555
O2_2 C8_2 1_555 1_555
O4_2 C8_2 1_555 1_555
O6_2 C15_2 1_555 1_555
C1_2 P1_2 1_555 1_555
C3_2 C1_2 1_555 1_555
H2_2 C3_2 1_555 1_555
C4_2 C3_2 1_555 1_555
H3_2 C4_2 1_555 1_555
C5_2 C4_2 1_555 1_555
C6_2 C5_2 1_555 1_555
H4_2 C6_2 1_555 1_555
C7_2 C1_2 1_555 1_555
H5_2 C7_2 1_555 1_555
C8_2 C5_2 1_555 1_555
C9_2 P1_2 1_555 1_555
C10_2 C9_2 1_555 1_555
H6_2 C10_2 1_555 1_555
C11_2 C10_2 1_555 1_555
C12_2 C11_2 1_555 1_555
C13_2 C12_2 1_555 1_555
H8_2 C13_2 1_555 1_555
C14_2 C9_2 1_555 1_555
H9_2 C14_2 1_555 1_555
C15_2 C12_2 1_555 1_555
C16_2 P1_2 1_555 1_555
C20_2 C19_2 1_555 1_555
H12_2 C20_2 1_555 1_555
C21_2 C16_2 1_555 1_555
H13_2 C21_2 1_555 1_555
Dy6 O2_2 1_555 1_555
Dy4 O6_2 1_555 1_555
O4_2 Dy6 1_555 1_555
C6_2 C7_2 1_555 1_555
C13_2 C14_2 1_555 1_555
C20_2 C21_2 1_555 1_555
O26 C22_2 1_555 1_555
H10_2 C17_2 1_555 1_555
C18_2 C17_2 1_555 1_555
H11_2 C18_2 1_555 1_555
O17_2 Dy6 1_555 1_555
O20_2 Dy6 1_555 1_555
H1_3 C2_3 1_555 1_555
O12_2 C2_3 1_555 1_555
O11 Dy4 1_555 1_555
O15 Dy4 1_555 1_555
O25 Dy5 1_555 1_555
O27 Dy4 1_555 1_555
H22 C38 1_555 1_555
C39 C38 1_555 1_555
H23 C39 1_555 1_555
C43 O25 1_555 1_555
O20_2 C36 1_555 1_555
C33 C32 1_555 1_555
C34 C33 1_555 1_555
H20 C34 1_555 1_555
C36 C33 1_555 1_555
P2 O9 1_555 1_555
C23 P2 1_555 1_555
C24 C23 1_555 1_555
H14 C24 1_555 1_555
C25 C24 1_555 1_555
H15 C25 1_555 1_555
C26 C25 1_555 1_555
C27 C26 1_555 1_555
H16 C27 1_555 1_555
C28 C23 1_555 1_555
H17 C28 1_555 1_555
C29 O11 1_555 1_555
C30 P2 1_555 1_555
C31 C30 1_555 1_555
H18 C31 1_555 1_555
C35 C30 1_555 1_555
H21 C35 1_555 1_555
C37 P2 1_555 1_555
C41 C40 1_555 1_555
H24 C41 1_555 1_555
C42 C37 1_555 1_555
H25 C42 1_555 1_555
O15 C29 1_555 1_555
C26 C29 1_555 1_555
C27 C28 1_555 1_555
C41 C42 1_555 1_555
C2_4 O13 1_555 1_555
H1_4 C2_4 1_555 1_555
O11_2 Dy5 1_555 1_555
O15_2 Dy5 1_555 1_555
H22_2 C38_2 1_555 1_555
C39_2 C38_2 1_555 1_555
H23_2 C39_2 1_555 1_555
C43_2 O27 1_555 1_555
P2_2 O9_2 1_555 1_555
O20 C36_2 1_555 1_555
C23_2 P2_2 1_555 1_555
C24_2 C23_2 1_555 1_555
H14_2 C24_2 1_555 1_555
C25_2 C24_2 1_555 1_555
H15_2 C25_2 1_555 1_555
C26_2 C25_2 1_555 1_555
C27_2 C26_2 1_555 1_555
H16_2 C27_2 1_555 1_555
C28_2 C23_2 1_555 1_555
H17_2 C28_2 1_555 1_555
C29_2 O11_2 1_555 1_555
C30_2 P2_2 1_555 1_555
C31_2 C30_2 1_555 1_555
H18_2 C31_2 1_555 1_555
C32_2 C31_2 1_555 1_555
C33_2 C32_2 1_555 1_555
C34_2 C33_2 1_555 1_555
H20_2 C34_2 1_555 1_555
C35_2 C30_2 1_555 1_555
H21_2 C35_2 1_555 1_555
C36_2 C33_2 1_555 1_555
C37_2 P2_2 1_555 1_555
C41_2 C40_2 1_555 1_555
H24_2 C41_2 1_555 1_555
C42_2 C37_2 1_555 1_555
H25_2 C42_2 1_555 1_555
O15_2 C29_2 1_555 1_555
C26_2 C29_2 1_555 1_555
C27_2 C28_2 1_555 1_555
C34_2 C35_2 1_555 1_555
C41_2 C42_2 1_555 1_555

#END
