
###############################################################################
#
# This file contains modified crystal structure data generated from the
# MOF subset of the Cambridge Structural Database (CSD) v543 
# hosted by the Cambridge Crystallographic Data Centre (CCDC).
#
# This work is licensed under the Creative Commons
# Attribution-NonCommercial-ShareAlike 4.0 International License.
# To view a copy of this license, visit
# http://creativecommons.org/licenses/by-nc-sa/4.0/
# or send a letter to
# Creative Commons, PO Box 1866, Mountain View, CA 94042, USA.
#
# CIF created using the CSD Python API on 29 September 2022
# The structure has been converted into the P1 space group
# The structure has a 3D framework
# The original CSD entry GENGOY is in the monoclinic crystal system
# The framework has been calculated to contain at least 10.0% void space
# The void calculation uses a probe of radius 1.32A, grid spacing 0.4
#
###############################################################################

data_GENGOY
_chemical_formula_moiety         '(C224 H128 N48 O68 Zn16)n'
_symmetry_cell_setting           triclinic
_symmetry_space_group_name_H-M   'P 1'
_symmetry_Int_Tables_number      1
_space_group_name_Hall           'P 1'
loop_
_symmetry_equiv_pos_site_id
_symmetry_equiv_pos_as_xyz
1 x,y,z
_cell_length_a                   34.087(7)
_cell_length_b                   13.943(3)
_cell_length_c                   18.849(4)
_cell_angle_alpha                90
_cell_angle_beta                 115.64(3)
_cell_angle_gamma                90
_cell_volume                     8076.33
loop_
_atom_site_label
_atom_site_type_symbol
_atom_site_fract_x
_atom_site_fract_y
_atom_site_fract_z
C10 C 0.77390(16) 0.0255(3) 0.7247(3)
C21 C 0.6372(2) 0.0421(4) 0.7780(4)
H10 H 0.6077 0.0521 0.7632
C22 C 0.6652(2) 0.1194(4) 0.7898(4)
H11 H 0.6539 0.1813 0.7804
C23 C 0.70943(19) 0.1060(4) 0.8154(3)
C24 C 0.72699(17) 0.0136(4) 0.8254(3)
C25 C 0.7368(2) 0.1928(4) 0.8312(3)
O1 O 0.71866(14) 0.2755(3) 0.8132(3)
O3 O 0.79290(11) 0.0907(2) 0.70483(19)
O5 O 0.75290(18) 0.0124(3) 0.9934(3)
O6 O 0.77745(15) 0.1874(3) 0.8612(2)
Zn1 Zn 0.76389(2) 0.15725(4) 0.60419(4)
N7 N 0.69823(16) 0.1653(3) 0.5626(3)
O11 O 0.79040(12) 0.2857(2) 0.6289(2)
O13 O 0.78832(13) 0.1258(3) 0.5326(2)
Zn6 Zn 0.77691(2) 0.34641(4) 0.83698(4)
H8 H 0.8563 0.9116 0.0122
O8 O 0.78832(13) 0.8742(3) 0.0326(2)
Zn5 Zn 0.76389(2) 0.84275(4) 0.10419(4)
C1 C 0.6307(2) 0.9161(5) 0.6026(5)
H1 H 0.6427 0.9737 0.5968
C2 C 0.5876(2) 0.9127(6) 0.5820(5)
H2 H 0.5706 0.9676 0.5638
C3 C 0.5690(2) 0.8280(6) 0.5880(5)
C4 C 0.5941(2) 0.7510(5) 0.6183(5)
H3 H 0.5821 0.6933 0.6239
C5 C 0.6381(2) 0.7595(4) 0.6411(4)
H4 H 0.6559 0.7070 0.6645
C6 C 0.52442(18) 0.8307(6) 0.5694(6)
N1 N 0.50396(19) 0.9101(5) 0.5829(5)
N2 N 0.4592(2) 0.9095(5) 0.5583(6)
C7 C 0.43487(18) 0.8295(6) 0.5201(5)
N3 N 0.4553(3) 0.7501(6) 0.5066(8)
N4 N 0.5001(3) 0.7507(6) 0.5312(9)
C8 C 0.3903(2) 0.8287(5) 0.4909(5)
C9 C 0.3711(3) 0.8630(10) 0.5360(5)
H5 H 0.3883 0.8862 0.5863
C11 C 0.79659(16) 0.9961(3) 0.8097(3)
C12 C 0.84056(18) 0.9763(4) 0.8388(3)
H6 H 0.8549 0.9834 0.8068
C13 C 0.86313(19) 0.9459(5) 0.9161(3)
H7 H 0.8927 0.9327 0.9367
C14 C 0.84139(19) 0.9357(4) 0.9614(3)
C15 C 0.79798(18) 0.9597(3) 0.9350(3)
C16 C 0.77450(17) 0.9915(3) 0.8568(3)
C17 C 0.77747(18) 0.9498(4) 0.9901(3)
C18 C 0.71569(17) 0.8352(3) 0.8199(3)
C19 C 0.69820(16) 0.9353(3) 0.8115(3)
C20 C 0.65423(19) 0.9491(4) 0.7889(4)
H9 H 0.6360 0.8966 0.7809
C26 C 0.3189(2) 0.8041(5) 0.3916(5)
H12 H 0.3006 0.7833 0.3412
C27 C 0.3279(2) 0.8635(8) 0.5085(4)
H13 H 0.3157 0.8853 0.5412
C28 C 0.3638(2) 0.8016(5) 0.4158(6)
H14 H 0.3753 0.7820 0.3816
N5 N 0.65681(16) 0.8407(3) 0.6310(3)
N6 N 0.30177(16) 0.8347(3) 0.4374(3)
O2 O 0.73844(11) 0.9868(2) 0.67939(19)
O4 O 0.70960(12) 0.7857(2) 0.8711(2)
O7 O 0.73398(11) 0.8066(2) 0.7794(2)
O9 O 0.70648(18) 0.8726(3) 0.5425(3)
H15 H 0.6919 0.8250 0.5141
H16 H 0.7298 0.8795 0.5360
Zn2 Zn 0.72309(2) 0.84641(4) 0.66302(4)
O10 O 0.78134(14) 0.7755(3) 0.6868(3)
O12 O 0.72255(15) 0.6874(3) 0.6388(2)
Zn3 Zn 0.73611(2) 0.65725(4) 0.89581(4)
Zn4 Zn 0.23611(2) 0.84275(4) 0.39581(4)
C10_2 C 0.22610(16) 0.0255(3) 0.7753(3)
C21_2 C 0.3628(2) 0.0421(4) 0.7220(4)
H10_2 H 0.3923 0.0521 0.7368
C22_2 C 0.3348(2) 0.1194(4) 0.7102(4)
H11_2 H 0.3461 0.1813 0.7196
C23_2 C 0.29057(19) 0.1060(4) 0.6846(3)
C24_2 C 0.27301(17) 0.0136(4) 0.6746(3)
C25_2 C 0.2632(2) 0.1928(4) 0.6688(3)
O1_2 O 0.28134(14) 0.2755(3) 0.6868(3)
O3_2 O 0.20710(11) 0.0907(2) 0.79517(19)
O5_2 O 0.24710(18) 0.0124(3) 0.5066(3)
O6_2 O 0.22255(15) 0.1874(3) 0.6388(2)
Zn1_2 Zn 0.23611(2) 0.15725(4) 0.89581(4)
N7_2 N 0.30177(16) 0.1653(3) 0.9374(3)
O11_2 O 0.20960(12) 0.2857(2) 0.8711(2)
O13_2 O 0.21168(13) 0.1258(3) 0.9674(2)
Zn6_2 Zn 0.22309(2) 0.34641(4) 0.66302(4)
C8_2 C 0.6097(2) 0.8287(5) 0.0091(5)
C26_2 C 0.6811(2) 0.8041(5) 0.1084(5)
H12_2 H 0.6994 0.7833 0.1588
C28_2 C 0.6362(2) 0.8016(5) 0.0842(6)
H14_2 H 0.6247 0.7820 0.1184
N6_2 N 0.69823(16) 0.8347(3) 0.0626(3)
C1_2 C 0.3693(2) 0.9161(5) 0.8974(5)
H1_2 H 0.3573 0.9737 0.9032
C2_2 C 0.4124(2) 0.9127(6) 0.9180(5)
H2_2 H 0.4294 0.9676 0.9362
C3_2 C 0.4310(2) 0.8280(6) 0.9120(5)
C4_2 C 0.4059(2) 0.7510(5) 0.8817(5)
H3_2 H 0.4179 0.6933 0.8761
C5_2 C 0.3619(2) 0.7595(4) 0.8589(4)
H4_2 H 0.3441 0.7070 0.8355
C6_2 C 0.47558(18) 0.8307(6) 0.9306(6)
N1_2 N 0.49604(19) 0.9101(5) 0.9171(5)
N2_2 N 0.5408(2) 0.9095(5) 0.9417(6)
C7_2 C 0.56513(18) 0.8295(6) 0.9799(5)
N3_2 N 0.5447(3) 0.7501(6) 0.9934(8)
N4_2 N 0.4999(3) 0.7507(6) 0.9688(9)
C9_2 C 0.6289(3) 0.8630(10) 0.9640(5)
H5_2 H 0.6117 0.8862 0.9137
C11_2 C 0.20341(16) 0.9961(3) 0.6903(3)
C12_2 C 0.15944(18) 0.9763(4) 0.6612(3)
H6_2 H 0.1451 0.9834 0.6932
C13_2 C 0.13687(19) 0.9459(5) 0.5839(3)
H7_2 H 0.1073 0.9327 0.5633
C14_2 C 0.15861(19) 0.9357(4) 0.5386(3)
H8_2 H 0.1437 0.9116 0.4878
C15_2 C 0.20202(18) 0.9597(3) 0.5650(3)
C16_2 C 0.22550(17) 0.9915(3) 0.6432(3)
C17_2 C 0.22253(18) 0.9498(4) 0.5099(3)
C18_2 C 0.28431(17) 0.8352(3) 0.6801(3)
C19_2 C 0.30180(16) 0.9353(3) 0.6885(3)
C20_2 C 0.34577(19) 0.9491(4) 0.7111(4)
H9_2 H 0.3640 0.8966 0.7191
C27_2 C 0.6721(2) 0.8635(8) 0.9915(4)
H13_2 H 0.6843 0.8853 0.9588
N5_2 N 0.34319(16) 0.8407(3) 0.8690(3)
O2_2 O 0.26156(11) 0.9868(2) 0.82061(19)
O4_2 O 0.29040(12) 0.7857(2) 0.6289(2)
O7_2 O 0.26602(11) 0.8066(2) 0.7206(2)
O8_2 O 0.21168(13) 0.8742(3) 0.4674(2)
O9_2 O 0.29352(18) 0.8726(3) 0.9575(3)
H15_2 H 0.3081 0.8250 0.9859
H16_2 H 0.2702 0.8795 0.9640
Zn2_2 Zn 0.27691(2) 0.84641(4) 0.83698(4)
O10_2 O 0.21866(14) 0.7755(3) 0.8132(3)
O12_2 O 0.27745(15) 0.6874(3) 0.8612(2)
Zn3_2 Zn 0.26389(2) 0.65725(4) 0.60419(4)
H8_3 H 0.3563 0.4116 0.0122
O8_3 O 0.28832(13) 0.3742(3) 0.0326(2)
Zn5_2 Zn 0.26389(2) 0.34275(4) 0.10419(4)
C1_3 C 0.1307(2) 0.4161(5) 0.6026(5)
H1_3 H 0.1427 0.4737 0.5968
C2_3 C 0.0876(2) 0.4127(6) 0.5820(5)
H2_3 H 0.0706 0.4676 0.5638
C3_3 C 0.0690(2) 0.3280(6) 0.5880(5)
C4_3 C 0.0941(2) 0.2510(5) 0.6183(5)
H3_3 H 0.0821 0.1933 0.6239
C5_3 C 0.1381(2) 0.2595(4) 0.6411(4)
H4_3 H 0.1559 0.2070 0.6645
C6_3 C 0.02442(18) 0.3307(6) 0.5694(6)
N1_3 N 0.00396(19) 0.4101(5) 0.5829(5)
N4_3 N 0.0001(3) 0.2507(6) 0.5312(9)
C10_3 C 0.27390(16) 0.5255(3) 0.7247(3)
C11_3 C 0.29659(16) 0.4961(3) 0.8097(3)
C12_3 C 0.34056(18) 0.4763(4) 0.8388(3)
H6_3 H 0.3549 0.4834 0.8068
C13_3 C 0.36313(19) 0.4459(5) 0.9161(3)
H7_3 H 0.3927 0.4327 0.9367
C14_3 C 0.34139(19) 0.4357(4) 0.9614(3)
C15_3 C 0.29798(18) 0.4597(3) 0.9350(3)
C16_3 C 0.27450(17) 0.4915(3) 0.8568(3)
C17_3 C 0.27747(18) 0.4498(4) 0.9901(3)
C18_3 C 0.21569(17) 0.3352(3) 0.8199(3)
C19_3 C 0.19820(16) 0.4353(3) 0.8115(3)
C20_3 C 0.15423(19) 0.4491(4) 0.7889(4)
H9_3 H 0.1360 0.3966 0.7809
C21_3 C 0.1372(2) 0.5421(4) 0.7780(4)
H10_3 H 0.1077 0.5521 0.7632
C22_3 C 0.1652(2) 0.6194(4) 0.7898(4)
H11_3 H 0.1539 0.6813 0.7804
C23_3 C 0.20943(19) 0.6060(4) 0.8154(3)
C24_3 C 0.22699(17) 0.5136(4) 0.8254(3)
C25_3 C 0.2368(2) 0.6928(4) 0.8312(3)
N5_3 N 0.15681(16) 0.3407(3) 0.6310(3)
O2_3 O 0.23844(11) 0.4868(2) 0.67939(19)
O3_3 O 0.29290(11) 0.5907(2) 0.70483(19)
O5_3 O 0.25290(18) 0.5124(3) 0.9934(3)
O7_3 O 0.23398(11) 0.3066(2) 0.7794(2)
O9_3 O 0.20648(18) 0.3726(3) 0.5425(3)
H15_3 H 0.1919 0.3250 0.5141
H16_3 H 0.2298 0.3795 0.5360
N7_3 N 0.19823(16) 0.6653(3) 0.5626(3)
O13_3 O 0.28832(13) 0.6258(3) 0.5326(2)
N2_3 N 0.9592(2) 0.4095(5) 0.5583(6)
C7_3 C 0.93487(18) 0.3295(6) 0.5201(5)
N3_3 N 0.9553(3) 0.2501(6) 0.5066(8)
C8_3 C 0.8903(2) 0.3287(5) 0.4909(5)
C9_3 C 0.8711(3) 0.3630(10) 0.5360(5)
H5_3 H 0.8883 0.3862 0.5863
C26_3 C 0.8189(2) 0.3041(5) 0.3916(5)
H12_3 H 0.8006 0.2833 0.3412
C27_3 C 0.8279(2) 0.3635(8) 0.5085(4)
H13_3 H 0.8157 0.3853 0.5412
C28_3 C 0.8638(2) 0.3016(5) 0.4158(6)
H14_3 H 0.8753 0.2820 0.3816
N6_3 N 0.80177(16) 0.3347(3) 0.4374(3)
Zn4_2 Zn 0.73611(2) 0.34275(4) 0.39581(4)
C8_4 C 0.1097(2) 0.3287(5) 0.0091(5)
C26_4 C 0.1811(2) 0.3041(5) 0.1084(5)
H12_4 H 0.1994 0.2833 0.1588
C28_4 C 0.1362(2) 0.3016(5) 0.0842(6)
H14_4 H 0.1247 0.2820 0.1184
N6_4 N 0.19823(16) 0.3347(3) 0.0626(3)
C1_4 C 0.8693(2) 0.4161(5) 0.8974(5)
H1_4 H 0.8573 0.4737 0.9032
C2_4 C 0.9124(2) 0.4127(6) 0.9180(5)
H2_4 H 0.9294 0.4676 0.9362
C3_4 C 0.9310(2) 0.3280(6) 0.9120(5)
C4_4 C 0.9059(2) 0.2510(5) 0.8817(5)
H3_4 H 0.9179 0.1933 0.8761
C5_4 C 0.8619(2) 0.2595(4) 0.8589(4)
H4_4 H 0.8441 0.2070 0.8355
C6_4 C 0.97558(18) 0.3307(6) 0.9306(6)
N1_4 N 0.99604(19) 0.4101(5) 0.9171(5)
N4_4 N 0.9999(3) 0.2507(6) 0.9688(9)
C10_4 C 0.72610(16) 0.5255(3) 0.7753(3)
C11_4 C 0.70341(16) 0.4961(3) 0.6903(3)
C12_4 C 0.65944(18) 0.4763(4) 0.6612(3)
H6_4 H 0.6451 0.4834 0.6932
C13_4 C 0.63687(19) 0.4459(5) 0.5839(3)
H7_4 H 0.6073 0.4327 0.5633
C14_4 C 0.65861(19) 0.4357(4) 0.5386(3)
H8_4 H 0.6437 0.4116 0.4878
C15_4 C 0.70202(18) 0.4597(3) 0.5650(3)
C16_4 C 0.72550(17) 0.4915(3) 0.6432(3)
C17_4 C 0.72253(18) 0.4498(4) 0.5099(3)
C18_4 C 0.78431(17) 0.3352(3) 0.6801(3)
C19_4 C 0.80180(16) 0.4353(3) 0.6885(3)
C20_4 C 0.84577(19) 0.4491(4) 0.7111(4)
H9_4 H 0.8640 0.3966 0.7191
C21_4 C 0.8628(2) 0.5421(4) 0.7220(4)
H10_4 H 0.8923 0.5521 0.7368
C22_4 C 0.8348(2) 0.6194(4) 0.7102(4)
H11_4 H 0.8461 0.6813 0.7196
C23_4 C 0.79057(19) 0.6060(4) 0.6846(3)
C24_4 C 0.77301(17) 0.5136(4) 0.6746(3)
C25_4 C 0.7632(2) 0.6928(4) 0.6688(3)
N5_4 N 0.84319(16) 0.3407(3) 0.8690(3)
O2_4 O 0.76156(11) 0.4868(2) 0.82061(19)
O3_4 O 0.70710(11) 0.5907(2) 0.79517(19)
O5_4 O 0.74710(18) 0.5124(3) 0.5066(3)
O7_4 O 0.76602(11) 0.3066(2) 0.7206(2)
O8_4 O 0.71168(13) 0.3742(3) 0.4674(2)
O9_4 O 0.79352(18) 0.3726(3) 0.9575(3)
H15_4 H 0.8081 0.3250 0.9859
H16_4 H 0.7702 0.3795 0.9640
N7_4 N 0.80177(16) 0.6653(3) 0.9374(3)
O13_4 O 0.71168(13) 0.6258(3) 0.9674(2)
C1_5 C 0.3693(2) 0.0839(5) 0.3974(5)
H1_5 H 0.3573 0.0263 0.4032
C2_5 C 0.4124(2) 0.0873(6) 0.4180(5)
H2_5 H 0.4294 0.0324 0.4362
C3_5 C 0.4310(2) 0.1720(6) 0.4120(5)
C4_5 C 0.4059(2) 0.2490(5) 0.3817(5)
H3_5 H 0.4179 0.3067 0.3761
C5_5 C 0.3619(2) 0.2405(4) 0.3589(4)
H4_5 H 0.3441 0.2930 0.3355
C6_5 C 0.47558(18) 0.1693(6) 0.4306(6)
N1_5 N 0.49604(19) 0.0899(5) 0.4171(5)
N2_4 N 0.5408(2) 0.0905(5) 0.4417(6)
C7_4 C 0.56513(18) 0.1705(6) 0.4799(5)
N3_4 N 0.5447(3) 0.2499(6) 0.4934(8)
N4_5 N 0.4999(3) 0.2493(6) 0.4688(9)
C8_5 C 0.6097(2) 0.1713(5) 0.5091(5)
C9_4 C 0.6289(3) 0.1370(10) 0.4640(5)
H5_4 H 0.6117 0.1138 0.4137
C11_5 C 0.20341(16) 0.0039(3) 0.1903(3)
C12_5 C 0.15944(18) 0.0237(4) 0.1612(3)
H6_5 H 0.1451 0.0166 0.1932
C13_5 C 0.13687(19) 0.0541(5) 0.0839(3)
H7_5 H 0.1073 0.0673 0.0633
C14_5 C 0.15861(19) 0.0643(4) 0.0386(3)
C15_5 C 0.20202(18) 0.0403(3) 0.0650(3)
C16_5 C 0.22550(17) 0.0085(3) 0.1432(3)
C17_5 C 0.22253(18) 0.0502(4) 0.0099(3)
C18_5 C 0.28431(17) 0.1648(3) 0.1801(3)
C19_5 C 0.30180(16) 0.0647(3) 0.1885(3)
C20_5 C 0.34577(19) 0.0509(4) 0.2111(4)
H9_5 H 0.3640 0.1034 0.2191
C26_5 C 0.6811(2) 0.1959(5) 0.6084(5)
H12_5 H 0.6994 0.2167 0.6588
C27_4 C 0.6721(2) 0.1365(8) 0.4915(4)
H13_4 H 0.6843 0.1147 0.4588
C28_5 C 0.6362(2) 0.1984(5) 0.5842(6)
H14_5 H 0.6247 0.2180 0.6184
N5_5 N 0.34319(16) 0.1593(3) 0.3690(3)
O2_5 O 0.26156(11) 0.0132(2) 0.32061(19)
O4_3 O 0.29040(12) 0.2143(2) 0.1289(2)
O7_5 O 0.26602(11) 0.1934(2) 0.2206(2)
O9_5 O 0.29352(18) 0.1274(3) 0.4575(3)
H15_5 H 0.3081 0.1750 0.4859
H16_5 H 0.2702 0.1205 0.4640
Zn2_3 Zn 0.27691(2) 0.15359(4) 0.33698(4)
O10_3 O 0.21866(14) 0.2245(3) 0.3132(3)
O12_3 O 0.27745(15) 0.3126(3) 0.3612(2)
H8_5 H 0.1437 0.0884 0.9878
C10_5 C 0.22610(16) 0.9745(3) 0.2753(3)
C21_5 C 0.3628(2) 0.9579(4) 0.2220(4)
H10_5 H 0.3923 0.9479 0.2368
C22_5 C 0.3348(2) 0.8806(4) 0.2102(4)
H11_5 H 0.3461 0.8187 0.2196
C23_5 C 0.29057(19) 0.8940(4) 0.1846(3)
C24_5 C 0.27301(17) 0.9864(4) 0.1746(3)
C25_5 C 0.2632(2) 0.8072(4) 0.1688(3)
O1_3 O 0.28134(14) 0.7245(3) 0.1868(3)
O3_5 O 0.20710(11) 0.9093(2) 0.29517(19)
O5_5 O 0.24710(18) 0.9876(3) 0.0066(3)
O6_3 O 0.22255(15) 0.8126(3) 0.1388(2)
O11_3 O 0.20960(12) 0.7143(2) 0.3711(2)
Zn6_3 Zn 0.22309(2) 0.65359(4) 0.16302(4)
C1_6 C 0.6307(2) 0.0839(5) 0.1026(5)
H1_6 H 0.6427 0.0263 0.0968
C2_6 C 0.5876(2) 0.0873(6) 0.0820(5)
H2_6 H 0.5706 0.0324 0.0638
C3_6 C 0.5690(2) 0.1720(6) 0.0880(5)
C4_6 C 0.5941(2) 0.2490(5) 0.1183(5)
H3_6 H 0.5821 0.3067 0.1239
C5_6 C 0.6381(2) 0.2405(4) 0.1411(4)
H4_6 H 0.6559 0.2930 0.1645
C6_6 C 0.52442(18) 0.1693(6) 0.0694(6)
N1_6 N 0.50396(19) 0.0899(5) 0.0829(5)
N2_5 N 0.4592(2) 0.0905(5) 0.0583(6)
C7_5 C 0.43487(18) 0.1705(6) 0.0201(5)
N3_5 N 0.4553(3) 0.2499(6) 0.0066(8)
N4_6 N 0.5001(3) 0.2493(6) 0.0312(9)
C9_5 C 0.3711(3) 0.1370(10) 0.0360(5)
H5_5 H 0.3883 0.1138 0.0863
C11_6 C 0.79659(16) 0.0039(3) 0.3097(3)
C12_6 C 0.84056(18) 0.0237(4) 0.3388(3)
H6_6 H 0.8549 0.0166 0.3068
C13_6 C 0.86313(19) 0.0541(5) 0.4161(3)
H7_6 H 0.8927 0.0673 0.4367
C14_6 C 0.84139(19) 0.0643(4) 0.4614(3)
H8_6 H 0.8563 0.0884 0.5122
C15_6 C 0.79798(18) 0.0403(3) 0.4350(3)
C16_6 C 0.77450(17) 0.0085(3) 0.3568(3)
C17_6 C 0.77747(18) 0.0502(4) 0.4901(3)
C18_6 C 0.71569(17) 0.1648(3) 0.3199(3)
C19_6 C 0.69820(16) 0.0647(3) 0.3115(3)
C20_6 C 0.65423(19) 0.0509(4) 0.2889(4)
H9_6 H 0.6360 0.1034 0.2809
C27_5 C 0.3279(2) 0.1365(8) 0.0085(4)
H13_5 H 0.3157 0.1147 0.0412
N5_6 N 0.65681(16) 0.1593(3) 0.1310(3)
O2_6 O 0.73844(11) 0.0132(2) 0.17939(19)
O4_4 O 0.70960(12) 0.2143(2) 0.3711(2)
O7_6 O 0.73398(11) 0.1934(2) 0.2794(2)
O9_6 O 0.70648(18) 0.1274(3) 0.0425(3)
H15_6 H 0.6919 0.1750 0.0141
H16_6 H 0.7298 0.1205 0.0360
Zn2_4 Zn 0.72309(2) 0.15359(4) 0.16302(4)
O10_4 O 0.78134(14) 0.2245(3) 0.1868(3)
O12_4 O 0.72255(15) 0.3126(3) 0.1388(2)
C8_6 C 0.3903(2) 0.1713(5) 0.9909(5)
C26_6 C 0.3189(2) 0.1959(5) 0.8916(5)
H12_6 H 0.3006 0.2167 0.8412
C28_6 C 0.3638(2) 0.1984(5) 0.9158(6)
H14_6 H 0.3753 0.2180 0.8816
C10_6 C 0.77390(16) 0.9745(3) 0.2247(3)
C21_6 C 0.6372(2) 0.9579(4) 0.2780(4)
H10_6 H 0.6077 0.9479 0.2632
C22_6 C 0.6652(2) 0.8806(4) 0.2898(4)
H11_6 H 0.6539 0.8187 0.2804
C23_6 C 0.70943(19) 0.8940(4) 0.3154(3)
C24_6 C 0.72699(17) 0.9864(4) 0.3254(3)
C25_6 C 0.7368(2) 0.8072(4) 0.3312(3)
O1_4 O 0.71866(14) 0.7245(3) 0.3132(3)
O3_6 O 0.79290(11) 0.9093(2) 0.20483(19)
O5_6 O 0.75290(18) 0.9876(3) 0.4934(3)
O6_4 O 0.77745(15) 0.8126(3) 0.3612(2)
O11_4 O 0.79040(12) 0.7143(2) 0.1289(2)
Zn6_4 Zn 0.77691(2) 0.65359(4) 0.33698(4)
N2_6 N 0.0408(2) 0.5905(5) 0.4417(6)
C7_6 C 0.06513(18) 0.6705(6) 0.4799(5)
N3_6 N 0.0447(3) 0.7499(6) 0.4934(8)
C8_7 C 0.1097(2) 0.6713(5) 0.5091(5)
C9_6 C 0.1289(3) 0.6370(10) 0.4640(5)
H5_6 H 0.1117 0.6138 0.4137
C26_7 C 0.1811(2) 0.6959(5) 0.6084(5)
H12_7 H 0.1994 0.7167 0.6588
C27_6 C 0.1721(2) 0.6365(8) 0.4915(4)
H13_6 H 0.1843 0.6147 0.4588
C28_7 C 0.1362(2) 0.6984(5) 0.5842(6)
H14_7 H 0.1247 0.7180 0.6184
C1_7 C 0.8693(2) 0.5839(5) 0.3974(5)
H1_7 H 0.8573 0.5263 0.4032
C2_7 C 0.9124(2) 0.5873(6) 0.4180(5)
H2_7 H 0.9294 0.5324 0.4362
C3_7 C 0.9310(2) 0.6720(6) 0.4120(5)
C4_7 C 0.9059(2) 0.7490(5) 0.3817(5)
H3_7 H 0.9179 0.8067 0.3761
C5_7 C 0.8619(2) 0.7405(4) 0.3589(4)
H4_7 H 0.8441 0.7930 0.3355
C6_7 C 0.97558(18) 0.6693(6) 0.4306(6)
N1_7 N 0.99604(19) 0.5899(5) 0.4171(5)
N4_7 N 0.9999(3) 0.7493(6) 0.4688(9)
C10_7 C 0.72610(16) 0.4745(3) 0.2753(3)
C11_7 C 0.70341(16) 0.5039(3) 0.1903(3)
C12_7 C 0.65944(18) 0.5237(4) 0.1612(3)
H6_7 H 0.6451 0.5166 0.1932
C13_7 C 0.63687(19) 0.5541(5) 0.0839(3)
H7_7 H 0.6073 0.5673 0.0633
C14_7 C 0.65861(19) 0.5643(4) 0.0386(3)
C15_7 C 0.70202(18) 0.5403(3) 0.0650(3)
C16_7 C 0.72550(17) 0.5085(3) 0.1432(3)
C17_7 C 0.72253(18) 0.5502(4) 0.0099(3)
C18_7 C 0.78431(17) 0.6648(3) 0.1801(3)
C19_7 C 0.80180(16) 0.5647(3) 0.1885(3)
C20_7 C 0.84577(19) 0.5509(4) 0.2111(4)
H9_7 H 0.8640 0.6034 0.2191
C21_7 C 0.8628(2) 0.4579(4) 0.2220(4)
H10_7 H 0.8923 0.4479 0.2368
C22_7 C 0.8348(2) 0.3806(4) 0.2102(4)
H11_7 H 0.8461 0.3187 0.2196
C23_7 C 0.79057(19) 0.3940(4) 0.1846(3)
C24_7 C 0.77301(17) 0.4864(4) 0.1746(3)
C25_7 C 0.7632(2) 0.3072(4) 0.1688(3)
N5_7 N 0.84319(16) 0.6593(3) 0.3690(3)
O2_7 O 0.76156(11) 0.5132(2) 0.32061(19)
O3_7 O 0.70710(11) 0.4093(2) 0.29517(19)
O5_7 O 0.74710(18) 0.4876(3) 0.0066(3)
O7_7 O 0.76602(11) 0.6934(2) 0.2206(2)
O9_7 O 0.79352(18) 0.6274(3) 0.4575(3)
H15_7 H 0.8081 0.6750 0.4859
H16_7 H 0.7702 0.6205 0.4640
H8_7 H 0.6437 0.5884 0.9878
C1_8 C 0.1307(2) 0.5839(5) 0.1026(5)
H1_8 H 0.1427 0.5263 0.0968
C2_8 C 0.0876(2) 0.5873(6) 0.0820(5)
H2_8 H 0.0706 0.5324 0.0638
C3_8 C 0.0690(2) 0.6720(6) 0.0880(5)
C4_8 C 0.0941(2) 0.7490(5) 0.1183(5)
H3_8 H 0.0821 0.8067 0.1239
C5_8 C 0.1381(2) 0.7405(4) 0.1411(4)
H4_8 H 0.1559 0.7930 0.1645
C6_8 C 0.02442(18) 0.6693(6) 0.0694(6)
N1_8 N 0.00396(19) 0.5899(5) 0.0829(5)
N4_8 N 0.0001(3) 0.7493(6) 0.0312(9)
C10_8 C 0.27390(16) 0.4745(3) 0.2247(3)
C11_8 C 0.29659(16) 0.5039(3) 0.3097(3)
C12_8 C 0.34056(18) 0.5237(4) 0.3388(3)
H6_8 H 0.3549 0.5166 0.3068
C13_8 C 0.36313(19) 0.5541(5) 0.4161(3)
H7_8 H 0.3927 0.5673 0.4367
C14_8 C 0.34139(19) 0.5643(4) 0.4614(3)
H8_8 H 0.3563 0.5884 0.5122
C15_8 C 0.29798(18) 0.5403(3) 0.4350(3)
C16_8 C 0.27450(17) 0.5085(3) 0.3568(3)
C17_8 C 0.27747(18) 0.5502(4) 0.4901(3)
C18_8 C 0.21569(17) 0.6648(3) 0.3199(3)
C19_8 C 0.19820(16) 0.5647(3) 0.3115(3)
C20_8 C 0.15423(19) 0.5509(4) 0.2889(4)
H9_8 H 0.1360 0.6034 0.2809
C21_8 C 0.1372(2) 0.4579(4) 0.2780(4)
H10_8 H 0.1077 0.4479 0.2632
C22_8 C 0.1652(2) 0.3806(4) 0.2898(4)
H11_8 H 0.1539 0.3187 0.2804
C23_8 C 0.20943(19) 0.3940(4) 0.3154(3)
C24_8 C 0.22699(17) 0.4864(4) 0.3254(3)
C25_8 C 0.2368(2) 0.3072(4) 0.3312(3)
N5_8 N 0.15681(16) 0.6593(3) 0.1310(3)
O2_8 O 0.23844(11) 0.5132(2) 0.17939(19)
O3_8 O 0.29290(11) 0.4093(2) 0.20483(19)
O5_8 O 0.25290(18) 0.4876(3) 0.4934(3)
O7_8 O 0.23398(11) 0.6934(2) 0.2794(2)
O9_8 O 0.20648(18) 0.6274(3) 0.0425(3)
H15_8 H 0.1919 0.6750 0.0141
H16_8 H 0.2298 0.6205 0.0360
C8_8 C 0.8903(2) 0.6713(5) 0.9909(5)
C26_8 C 0.8189(2) 0.6959(5) 0.8916(5)
H12_8 H 0.8006 0.7167 0.8412
C28_8 C 0.8638(2) 0.6984(5) 0.9158(6)
H14_8 H 0.8753 0.7180 0.8816
N2_7 N 0.0408(2) 0.4095(5) 0.9417(6)
C7_7 C 0.06513(18) 0.3295(6) 0.9799(5)
N3_7 N 0.0447(3) 0.2501(6) 0.9934(8)
C9_7 C 0.1289(3) 0.3630(10) 0.9640(5)
H5_7 H 0.1117 0.3862 0.9137
C27_7 C 0.1721(2) 0.3635(8) 0.9915(4)
H13_7 H 0.1843 0.3853 0.9588
N2_8 N 0.9592(2) 0.5905(5) 0.0583(6)
C7_8 C 0.93487(18) 0.6705(6) 0.0201(5)
N3_8 N 0.9553(3) 0.7499(6) 0.0066(8)
C9_8 C 0.8711(3) 0.6370(10) 0.0360(5)
H5_8 H 0.8883 0.6138 0.0863
C27_8 C 0.8279(2) 0.6365(8) 0.0085(4)
H13_8 H 0.8157 0.6147 0.0412
loop_
_geom_bond_atom_site_label_1
_geom_bond_atom_site_label_2
_geom_bond_site_symmetry_1
_geom_bond_site_symmetry_2
H10 C21 1_555 1_555
C22 C21 1_555 1_555
H11 C22 1_555 1_555
C23 C22 1_555 1_555
C25 C23 1_555 1_555
O1 C25 1_555 1_555
O3 C10 1_555 1_555
O6 C25 1_555 1_555
Zn1 O3 1_555 1_555
N7 Zn1 1_555 1_555
O11 Zn1 1_555 1_555
O13 Zn1 1_555 1_555
Zn6 O1 1_555 1_555
C23 C24 1_555 1_555
O6 Zn6 1_555 1_555
Zn5 O8 1_555 1_555
C1 H1 1_555 1_555
C2 C1 1_555 1_555
H2 C2 1_555 1_555
C3 C2 1_555 1_555
C4 C3 1_555 1_555
H3 C4 1_555 1_555
C5 C4 1_555 1_555
H4 C5 1_555 1_555
C6 C3 1_555 1_555
N1 C6 1_555 1_555
N2 N1 1_555 1_555
C7 N2 1_555 1_555
N3 C7 1_555 1_555
N4 C6 1_555 1_555
C8 C7 1_555 1_555
C9 C8 1_555 1_555
H5 C9 1_555 1_555
C11 C12 1_555 1_555
C12 H6 1_555 1_555
C13 C12 1_555 1_555
H7 C13 1_555 1_555
C14 C13 1_555 1_555
C15 C14 1_555 1_555
C16 C11 1_555 1_555
C17 C15 1_555 1_555
C18 C19 1_555 1_555
C19 C20 1_555 1_555
C20 H9 1_555 1_555
C26 H12 1_555 1_555
C27 C9 1_555 1_555
H13 C27 1_555 1_555
C28 C8 1_555 1_555
H14 C28 1_555 1_555
N5 C1 1_555 1_555
N6 C26 1_555 1_555
O4 C18 1_555 1_555
O7 C18 1_555 1_555
O9 H15 1_555 1_555
H16 O9 1_555 1_555
Zn2 N5 1_555 1_555
O10 Zn2 1_555 1_555
O12 Zn2 1_555 1_555
Zn3 O4 1_555 1_555
Zn4 N6 1_555 1_555
C5 N5 1_555 1_555
N3 N4 1_555 1_555
C15 C16 1_555 1_555
C26 C28 1_555 1_555
C27 N6 1_555 1_555
O2 Zn2 1_555 1_555
O7 Zn2 1_555 1_555
O9 Zn2 1_555 1_555
H10_2 C21_2 1_555 1_555
C22_2 C21_2 1_555 1_555
H11_2 C22_2 1_555 1_555
C23_2 C22_2 1_555 1_555
C25_2 C23_2 1_555 1_555
O1_2 C25_2 1_555 1_555
O3_2 C10_2 1_555 1_555
O6_2 C25_2 1_555 1_555
Zn1_2 O3_2 1_555 1_555
N7_2 Zn1_2 1_555 1_555
O11_2 Zn1_2 1_555 1_555
O13_2 Zn1_2 1_555 1_555
Zn6_2 O1_2 1_555 1_555
C23_2 C24_2 1_555 1_555
O6_2 Zn6_2 1_555 1_555
C26_2 H12_2 1_555 1_555
C28_2 C8_2 1_555 1_555
H14_2 C28_2 1_555 1_555
N6_2 C26_2 1_555 1_555
Zn5 N6_2 1_555 1_555
C26_2 C28_2 1_555 1_555
C1_2 H1_2 1_555 1_555
C2_2 C1_2 1_555 1_555
H2_2 C2_2 1_555 1_555
C3_2 C2_2 1_555 1_555
C4_2 C3_2 1_555 1_555
H3_2 C4_2 1_555 1_555
C5_2 C4_2 1_555 1_555
H4_2 C5_2 1_555 1_555
C6_2 C3_2 1_555 1_555
N1_2 C6_2 1_555 1_555
N2_2 N1_2 1_555 1_555
C7_2 N2_2 1_555 1_555
N3_2 C7_2 1_555 1_555
N4_2 C6_2 1_555 1_555
H5_2 C9_2 1_555 1_555
C11_2 C12_2 1_555 1_555
C12_2 H6_2 1_555 1_555
C13_2 C12_2 1_555 1_555
H7_2 C13_2 1_555 1_555
C14_2 C13_2 1_555 1_555
H8_2 C14_2 1_555 1_555
C15_2 C14_2 1_555 1_555
C16_2 C11_2 1_555 1_555
C17_2 C15_2 1_555 1_555
C18_2 C19_2 1_555 1_555
C19_2 C20_2 1_555 1_555
C20_2 H9_2 1_555 1_555
C27_2 C9_2 1_555 1_555
H13_2 C27_2 1_555 1_555
N5_2 C1_2 1_555 1_555
O4_2 C18_2 1_555 1_555
O7_2 C18_2 1_555 1_555
O8_2 C17_2 1_555 1_555
O9_2 H15_2 1_555 1_555
H16_2 O9_2 1_555 1_555
Zn2_2 N5_2 1_555 1_555
O10_2 Zn2_2 1_555 1_555
O12_2 Zn2_2 1_555 1_555
Zn3_2 O4_2 1_555 1_555
Zn4 O8_2 1_555 1_555
C5_2 N5_2 1_555 1_555
N3_2 N4_2 1_555 1_555
C15_2 C16_2 1_555 1_555
O2_2 Zn2_2 1_555 1_555
O7_2 Zn2_2 1_555 1_555
O9_2 Zn2_2 1_555 1_555
Zn5_2 O8_3 1_555 1_555
C1_3 H1_3 1_555 1_555
C2_3 C1_3 1_555 1_555
H2_3 C2_3 1_555 1_555
C3_3 C2_3 1_555 1_555
C4_3 C3_3 1_555 1_555
H3_3 C4_3 1_555 1_555
C5_3 C4_3 1_555 1_555
H4_3 C5_3 1_555 1_555
C6_3 C3_3 1_555 1_555
N1_3 C6_3 1_555 1_555
N4_3 C6_3 1_555 1_555
C10_3 C11_3 1_555 1_555
C11_3 C12_3 1_555 1_555
C12_3 H6_3 1_555 1_555
C13_3 C12_3 1_555 1_555
H7_3 C13_3 1_555 1_555
C14_3 C13_3 1_555 1_555
C15_3 C14_3 1_555 1_555
C16_3 C11_3 1_555 1_555
C17_3 C15_3 1_555 1_555
C18_3 C19_3 1_555 1_555
C19_3 C20_3 1_555 1_555
C20_3 H9_3 1_555 1_555
C21_3 C20_3 1_555 1_555
H10_3 C21_3 1_555 1_555
C22_3 C21_3 1_555 1_555
H11_3 C22_3 1_555 1_555
C23_3 C22_3 1_555 1_555
C24_3 C16_3 1_555 1_555
C25_3 C23_3 1_555 1_555
N5_3 C1_3 1_555 1_555
O10_2 C25_3 1_555 1_555
O2_3 C10_3 1_555 1_555
O3_3 C10_3 1_555 1_555
O11_2 C18_3 1_555 1_555
O5_3 C17_3 1_555 1_555
O12_2 C25_3 1_555 1_555
O7_3 C18_3 1_555 1_555
O9_3 H15_3 1_555 1_555
H16_3 O9_3 1_555 1_555
Zn3_2 O3_3 1_555 1_555
Zn6_2 N5_3 1_555 1_555
N7_3 Zn3_2 1_555 1_555
O13_3 Zn3_2 1_555 1_555
C5_3 N5_3 1_555 1_555
C15_3 C16_3 1_555 1_555
C19_3 C24_3 1_555 1_555
C23_3 C24_3 1_555 1_555
O2_3 Zn6_2 1_555 1_555
O7_3 Zn6_2 1_555 1_555
O9_3 Zn6_2 1_555 1_555
C7_3 N2_3 1_555 1_555
N3_3 C7_3 1_555 1_555
C8_3 C7_3 1_555 1_555
C9_3 C8_3 1_555 1_555
H5_3 C9_3 1_555 1_555
C26_3 H12_3 1_555 1_555
C27_3 C9_3 1_555 1_555
H13_3 C27_3 1_555 1_555
C28_3 C8_3 1_555 1_555
H14_3 C28_3 1_555 1_555
N6_3 C26_3 1_555 1_555
Zn4_2 N6_3 1_555 1_555
C26_3 C28_3 1_555 1_555
C27_3 N6_3 1_555 1_555
C26_4 H12_4 1_555 1_555
C28_4 C8_4 1_555 1_555
H14_4 C28_4 1_555 1_555
N6_4 C26_4 1_555 1_555
Zn5_2 N6_4 1_555 1_555
C26_4 C28_4 1_555 1_555
C1_4 H1_4 1_555 1_555
C2_4 C1_4 1_555 1_555
H2_4 C2_4 1_555 1_555
C3_4 C2_4 1_555 1_555
C4_4 C3_4 1_555 1_555
H3_4 C4_4 1_555 1_555
C5_4 C4_4 1_555 1_555
H4_4 C5_4 1_555 1_555
C6_4 C3_4 1_555 1_555
N1_4 C6_4 1_555 1_555
N4_4 C6_4 1_555 1_555
C10_4 C11_4 1_555 1_555
C11_4 C12_4 1_555 1_555
C12_4 H6_4 1_555 1_555
C13_4 C12_4 1_555 1_555
H7_4 C13_4 1_555 1_555
C14_4 C13_4 1_555 1_555
H8_4 C14_4 1_555 1_555
C15_4 C14_4 1_555 1_555
C16_4 C11_4 1_555 1_555
C17_4 C15_4 1_555 1_555
C18_4 C19_4 1_555 1_555
C19_4 C20_4 1_555 1_555
C20_4 H9_4 1_555 1_555
C21_4 C20_4 1_555 1_555
H10_4 C21_4 1_555 1_555
C22_4 C21_4 1_555 1_555
H11_4 C22_4 1_555 1_555
C23_4 C22_4 1_555 1_555
C24_4 C16_4 1_555 1_555
C25_4 C23_4 1_555 1_555
N5_4 C1_4 1_555 1_555
O10 C25_4 1_555 1_555
O2_4 C10_4 1_555 1_555
O3_4 C10_4 1_555 1_555
O11 C18_4 1_555 1_555
O5_4 C17_4 1_555 1_555
O12 C25_4 1_555 1_555
O7_4 C18_4 1_555 1_555
O8_4 C17_4 1_555 1_555
O9_4 H15_4 1_555 1_555
H16_4 O9_4 1_555 1_555
Zn3 O3_4 1_555 1_555
Zn6 N5_4 1_555 1_555
N7_4 Zn3 1_555 1_555
O13_4 Zn3 1_555 1_555
Zn4_2 O8_4 1_555 1_555
C5_4 N5_4 1_555 1_555
C15_4 C16_4 1_555 1_555
C19_4 C24_4 1_555 1_555
C23_4 C24_4 1_555 1_555
O2_4 Zn6 1_555 1_555
O7_4 Zn6 1_555 1_555
O9_4 Zn6 1_555 1_555
C1_5 H1_5 1_555 1_555
C2_5 C1_5 1_555 1_555
H2_5 C2_5 1_555 1_555
C3_5 C2_5 1_555 1_555
C4_5 C3_5 1_555 1_555
H3_5 C4_5 1_555 1_555
C5_5 C4_5 1_555 1_555
H4_5 C5_5 1_555 1_555
C6_5 C3_5 1_555 1_555
N1_5 C6_5 1_555 1_555
N2_4 N1_5 1_555 1_555
C7_4 N2_4 1_555 1_555
N3_4 C7_4 1_555 1_555
N4_5 C6_5 1_555 1_555
C8_5 C7_4 1_555 1_555
C9_4 C8_5 1_555 1_555
H5_4 C9_4 1_555 1_555
C11_5 C12_5 1_555 1_555
C12_5 H6_5 1_555 1_555
C13_5 C12_5 1_555 1_555
H7_5 C13_5 1_555 1_555
C14_5 C13_5 1_555 1_555
C15_5 C14_5 1_555 1_555
C16_5 C11_5 1_555 1_555
C17_5 C15_5 1_555 1_555
C18_5 C19_5 1_555 1_555
C19_5 C20_5 1_555 1_555
C20_5 H9_5 1_555 1_555
C26_5 H12_5 1_555 1_555
C27_4 C9_4 1_555 1_555
H13_4 C27_4 1_555 1_555
C28_5 C8_5 1_555 1_555
H14_5 C28_5 1_555 1_555
N5_5 C1_5 1_555 1_555
N7 C26_5 1_555 1_555
O4_3 C18_5 1_555 1_555
O7_5 C18_5 1_555 1_555
O9_5 H15_5 1_555 1_555
H16_5 O9_5 1_555 1_555
Zn2_3 N5_5 1_555 1_555
O10_3 Zn2_3 1_555 1_555
O12_3 Zn2_3 1_555 1_555
Zn5_2 O4_3 1_555 1_555
C5_5 N5_5 1_555 1_555
N3_4 N4_5 1_555 1_555
C15_5 C16_5 1_555 1_555
C26_5 C28_5 1_555 1_555
C27_4 N7 1_555 1_555
O2_5 Zn2_3 1_555 1_555
O7_5 Zn2_3 1_555 1_555
O9_5 Zn2_3 1_555 1_555
H10_5 C21_5 1_555 1_555
C22_5 C21_5 1_555 1_555
H11_5 C22_5 1_555 1_555
C23_5 C22_5 1_555 1_555
C25_5 C23_5 1_555 1_555
O1_3 C25_5 1_555 1_555
O3_5 C10_5 1_555 1_555
O6_3 C25_5 1_555 1_555
Zn4 O3_5 1_555 1_555
O11_3 Zn4 1_555 1_555
Zn6_3 O1_3 1_555 1_555
C23_5 C24_5 1_555 1_555
O6_3 Zn6_3 1_555 1_555
C1_6 H1_6 1_555 1_555
C2_6 C1_6 1_555 1_555
H2_6 C2_6 1_555 1_555
C3_6 C2_6 1_555 1_555
C4_6 C3_6 1_555 1_555
H3_6 C4_6 1_555 1_555
C5_6 C4_6 1_555 1_555
H4_6 C5_6 1_555 1_555
C6_6 C3_6 1_555 1_555
N1_6 C6_6 1_555 1_555
N2_5 N1_6 1_555 1_555
C7_5 N2_5 1_555 1_555
N3_5 C7_5 1_555 1_555
N4_6 C6_6 1_555 1_555
H5_5 C9_5 1_555 1_555
C11_6 C12_6 1_555 1_555
C12_6 H6_6 1_555 1_555
C13_6 C12_6 1_555 1_555
H7_6 C13_6 1_555 1_555
C14_6 C13_6 1_555 1_555
H8_6 C14_6 1_555 1_555
C15_6 C14_6 1_555 1_555
C16_6 C11_6 1_555 1_555
C17_6 C15_6 1_555 1_555
C18_6 C19_6 1_555 1_555
C19_6 C20_6 1_555 1_555
C20_6 H9_6 1_555 1_555
C27_5 C9_5 1_555 1_555
H13_5 C27_5 1_555 1_555
N5_6 C1_6 1_555 1_555
O4_4 C18_6 1_555 1_555
O7_6 C18_6 1_555 1_555
O13 C17_6 1_555 1_555
O9_6 H15_6 1_555 1_555
H16_6 O9_6 1_555 1_555
Zn2_4 N5_6 1_555 1_555
O10_4 Zn2_4 1_555 1_555
O12_4 Zn2_4 1_555 1_555
Zn4_2 O4_4 1_555 1_555
C5_6 N5_6 1_555 1_555
N3_5 N4_6 1_555 1_555
C15_6 C16_6 1_555 1_555
O2_6 Zn2_4 1_555 1_555
O7_6 Zn2_4 1_555 1_555
O9_6 Zn2_4 1_555 1_555
C26_6 H12_6 1_555 1_555
C28_6 C8_6 1_555 1_555
H14_6 C28_6 1_555 1_555
N7_2 C26_6 1_555 1_555
C26_6 C28_6 1_555 1_555
H10_6 C21_6 1_555 1_555
C22_6 C21_6 1_555 1_555
H11_6 C22_6 1_555 1_555
C23_6 C22_6 1_555 1_555
C25_6 C23_6 1_555 1_555
O1_4 C25_6 1_555 1_555
O3_6 C10_6 1_555 1_555
O6_4 C25_6 1_555 1_555
Zn5 O3_6 1_555 1_555
O11_4 Zn5 1_555 1_555
Zn6_4 O1_4 1_555 1_555
C23_6 C24_6 1_555 1_555
O6_4 Zn6_4 1_555 1_555
C7_6 N2_6 1_555 1_555
N3_6 C7_6 1_555 1_555
C8_7 C7_6 1_555 1_555
C9_6 C8_7 1_555 1_555
H5_6 C9_6 1_555 1_555
C26_7 H12_7 1_555 1_555
C27_6 C9_6 1_555 1_555
H13_6 C27_6 1_555 1_555
C28_7 C8_7 1_555 1_555
H14_7 C28_7 1_555 1_555
N7_3 C26_7 1_555 1_555
C26_7 C28_7 1_555 1_555
C27_6 N7_3 1_555 1_555
C1_7 H1_7 1_555 1_555
C2_7 C1_7 1_555 1_555
H2_7 C2_7 1_555 1_555
C3_7 C2_7 1_555 1_555
C4_7 C3_7 1_555 1_555
H3_7 C4_7 1_555 1_555
C5_7 C4_7 1_555 1_555
H4_7 C5_7 1_555 1_555
C6_7 C3_7 1_555 1_555
N1_7 C6_7 1_555 1_555
N4_7 C6_7 1_555 1_555
C10_7 C11_7 1_555 1_555
C11_7 C12_7 1_555 1_555
C12_7 H6_7 1_555 1_555
C13_7 C12_7 1_555 1_555
H7_7 C13_7 1_555 1_555
C14_7 C13_7 1_555 1_555
C15_7 C14_7 1_555 1_555
C16_7 C11_7 1_555 1_555
C17_7 C15_7 1_555 1_555
C18_7 C19_7 1_555 1_555
C19_7 C20_7 1_555 1_555
C20_7 H9_7 1_555 1_555
C21_7 C20_7 1_555 1_555
H10_7 C21_7 1_555 1_555
C22_7 C21_7 1_555 1_555
H11_7 C22_7 1_555 1_555
C23_7 C22_7 1_555 1_555
C24_7 C16_7 1_555 1_555
C25_7 C23_7 1_555 1_555
N5_7 C1_7 1_555 1_555
O10_4 C25_7 1_555 1_555
O2_7 C10_7 1_555 1_555
O3_7 C10_7 1_555 1_555
O11_4 C18_7 1_555 1_555
O5_7 C17_7 1_555 1_555
O12_4 C25_7 1_555 1_555
O7_7 C18_7 1_555 1_555
O9_7 H15_7 1_555 1_555
H16_7 O9_7 1_555 1_555
Zn4_2 O3_7 1_555 1_555
Zn6_4 N5_7 1_555 1_555
C5_7 N5_7 1_555 1_555
C15_7 C16_7 1_555 1_555
C19_7 C24_7 1_555 1_555
C23_7 C24_7 1_555 1_555
O2_7 Zn6_4 1_555 1_555
O7_7 Zn6_4 1_555 1_555
O9_7 Zn6_4 1_555 1_555
C1_8 H1_8 1_555 1_555
C2_8 C1_8 1_555 1_555
H2_8 C2_8 1_555 1_555
C3_8 C2_8 1_555 1_555
C4_8 C3_8 1_555 1_555
H3_8 C4_8 1_555 1_555
C5_8 C4_8 1_555 1_555
H4_8 C5_8 1_555 1_555
C6_8 C3_8 1_555 1_555
N1_8 C6_8 1_555 1_555
N4_8 C6_8 1_555 1_555
C10_8 C11_8 1_555 1_555
C11_8 C12_8 1_555 1_555
C12_8 H6_8 1_555 1_555
C13_8 C12_8 1_555 1_555
H7_8 C13_8 1_555 1_555
C14_8 C13_8 1_555 1_555
H8_8 C14_8 1_555 1_555
C15_8 C14_8 1_555 1_555
C16_8 C11_8 1_555 1_555
C17_8 C15_8 1_555 1_555
C18_8 C19_8 1_555 1_555
C19_8 C20_8 1_555 1_555
C20_8 H9_8 1_555 1_555
C21_8 C20_8 1_555 1_555
H10_8 C21_8 1_555 1_555
C22_8 C21_8 1_555 1_555
H11_8 C22_8 1_555 1_555
C23_8 C22_8 1_555 1_555
C24_8 C16_8 1_555 1_555
C25_8 C23_8 1_555 1_555
N5_8 C1_8 1_555 1_555
O10_3 C25_8 1_555 1_555
O2_8 C10_8 1_555 1_555
O3_8 C10_8 1_555 1_555
O11_3 C18_8 1_555 1_555
O5_8 C17_8 1_555 1_555
O12_3 C25_8 1_555 1_555
O7_8 C18_8 1_555 1_555
O13_3 C17_8 1_555 1_555
O9_8 H15_8 1_555 1_555
H16_8 O9_8 1_555 1_555
Zn5_2 O3_8 1_555 1_555
Zn6_3 N5_8 1_555 1_555
C5_8 N5_8 1_555 1_555
C15_8 C16_8 1_555 1_555
C19_8 C24_8 1_555 1_555
C23_8 C24_8 1_555 1_555
O2_8 Zn6_3 1_555 1_555
O7_8 Zn6_3 1_555 1_555
O9_8 Zn6_3 1_555 1_555
C26_8 H12_8 1_555 1_555
C28_8 C8_8 1_555 1_555
H14_8 C28_8 1_555 1_555
N7_4 C26_8 1_555 1_555
C26_8 C28_8 1_555 1_555
C7_7 N2_7 1_555 1_555
N3_7 C7_7 1_555 1_555
H5_7 C9_7 1_555 1_555
C27_7 C9_7 1_555 1_555
H13_7 C27_7 1_555 1_555
C7_8 N2_8 1_555 1_555
N3_8 C7_8 1_555 1_555
H5_8 C9_8 1_555 1_555
C27_8 C9_8 1_555 1_555
H13_8 C27_8 1_555 1_555

#END
