
###############################################################################
#
# This file contains modified crystal structure data generated from the
# MOF subset of the Cambridge Structural Database (CSD) v543 
# hosted by the Cambridge Crystallographic Data Centre (CCDC).
#
# This work is licensed under the Creative Commons
# Attribution-NonCommercial-ShareAlike 4.0 International License.
# To view a copy of this license, visit
# http://creativecommons.org/licenses/by-nc-sa/4.0/
# or send a letter to
# Creative Commons, PO Box 1866, Mountain View, CA 94042, USA.
#
# CIF created using the CSD Python API on 29 September 2022
# The structure has been converted into the P1 space group
# The structure has a 3D framework
# The original CSD entry GENLAP is in the rhombohedral crystal system
# The framework has been calculated to contain at least 10.0% void space
# The void calculation uses a probe of radius 1.32A, grid spacing 0.4
#
###############################################################################

data_GENLAP
_chemical_formula_moiety         '(C306 H198 Br18 Cu18 N36 O54)n'
_symmetry_cell_setting           triclinic
_symmetry_space_group_name_H-M   'P 1'
_symmetry_Int_Tables_number      1
_space_group_name_Hall           'P 1'
loop_
_symmetry_equiv_pos_site_id
_symmetry_equiv_pos_as_xyz
1 x,y,z
_cell_length_a                   32.4787(16)
_cell_length_b                   32.4787(16)
_cell_length_c                   10.5745(5)
_cell_angle_alpha                90
_cell_angle_beta                 90
_cell_angle_gamma                120
_cell_volume                     9660.24
loop_
_atom_site_label
_atom_site_type_symbol
_atom_site_fract_x
_atom_site_fract_y
_atom_site_fract_z
C9 C 0.64102(28) 0.0836(2) 0.0271(5)
H7 H 0.6612 0.1113 0.0709
N2 N 0.65094(18) 0.04883(13) 0.0275(3)
Cu3 Cu 0.71188(3) 0.05698(2) 0.10667(5)
Br1 Br 0.74460(3) 0.25025(2) 0.51344(7)
H2 H 0.4401 0.0260 0.1307
H5 H 0.4710 0.0098 0.3049
H6 H 0.5338 0.0154 0.4151
H8 H 0.3737 0.0167 0.0284
C11 C 0.68029(16) 0.07783(16) 0.3240(4)
C12 C 0.67423(17) 0.10556(16) 0.4251(4)
C13 C 0.70410(19) 0.15509(17) 0.4226(5)
H9 H 0.7251 0.1691 0.3556
C14 C 0.7027(2) 0.18301(18) 0.5178(5)
C15 C 0.6716(2) 0.1630(2) 0.6174(5)
H10 H 0.6709 0.1821 0.6818
C16 C 0.6417(2) 0.1147(2) 0.6211(5)
H11 H 0.6208 0.1016 0.6887
C17 C 0.64158(19) 0.08396(19) 0.5252(4)
O1 O 0.61210(12) 0.03866(12) 0.5387(3)
O2 O 0.65766(11) 0.03270(11) 0.3242(3)
O3 O 0.70923(11) 0.10012(11) 0.2359(3)
C8 C 0.8059(3) 0.1427(2) 0.0095(5)
H6_2 H 0.8149 0.1329 0.0818
C16_2 C 0.8063(3) 0.0250(2) 0.2878(5)
H11_2 H 0.8141 0.0459 0.3554
C17_2 C 0.77571(27) 0.02509(19) 0.1919(4)
O1_2 O 0.75989(17) 0.05457(12) 0.2054(3)
Cu1 Cu 0.39031(2) 0.01176(2) 0.56000(5)
C1 C 0.6025(2) 0.0812(2) 0.9657(6)
H1 H 0.5975 0.1070 0.9670
C2 C 0.57116(16) 0.03991(17) 0.9020(4)
C3 C 0.5805(2) 0.0029(2) 0.9076(6)
C4 C 0.4680(2) 0.0523(2) 0.7929(5)
H3 H 0.4523 0.0683 0.8181
C5 C 0.5057(2) 0.0581(2) 0.8645(5)
H4 H 0.5150 0.0775 0.9356
C6 C 0.52985(17) 0.03480(17) 0.8301(4)
C7 C 0.5140(2) 0.0067(2) 0.7226(5)
C8_2 C 0.4760(2) 0.0034(2) 0.6572(5)
C10 C 0.62057(28) 0.0086(2) 0.9700(6)
N1 N 0.45226(14) 0.02526(15) 0.6901(4)
N3 N 0.38216(13) 0.06456(22) 0.6392(3)
O4 O 0.36603(11) 0.04171(16) 0.3425(3)
O5 O 0.43345(11) 0.05756(16) 0.4308(3)
C9_2 C 0.44258(34) 0.35898(28) 0.0271(5)
H7_2 H 0.4501 0.3388 0.0709
N2_2 N 0.39789(22) 0.34906(18) 0.0275(3)
Cu3_2 Cu 0.34509(4) 0.28812(3) 0.10667(5)
C1_2 C 0.2692(2) 0.4145(2) 0.2990(6)
H1_2 H 0.2642 0.4403 0.3003
C2_2 C 0.23783(16) 0.37324(17) 0.2353(4)
C3_2 C 0.2472(2) 0.3362(2) 0.2409(6)
H2_2 H 0.2266 0.3073 0.2026
C4_2 C 0.1347(2) 0.3856(2) 0.1262(5)
H3_2 H 0.1190 0.4016 0.1514
C5_2 C 0.1724(2) 0.3914(2) 0.1978(5)
H4_2 H 0.1817 0.4108 0.2689
C6_2 C 0.19652(17) 0.36813(17) 0.1634(4)
C7_2 C 0.1807(2) 0.3400(2) 0.0559(5)
H5_2 H 0.1957 0.3235 0.0284
C9_3 C 0.30769(28) 0.4169(2) 0.3604(5)
H7_3 H 0.3279 0.4446 0.4042
C10_2 C 0.28724(28) 0.3419(2) 0.3033(6)
H8_2 H 0.2930 0.3166 0.3049
N1_2 N 0.11893(14) 0.35859(15) 0.0234(4)
N2_3 N 0.31761(18) 0.38216(13) 0.3608(3)
O2_2 O 0.00901(11) 0.30063(11) 0.0091(3)
Cu3_3 Cu 0.37855(3) 0.39031(2) 0.44000(5)
C11_2 C 0.26913(23) 0.01362(16) 0.0093(4)
O3_2 O 0.27578(16) 0.04256(11) 0.0974(3)
Cu2 Cu 0.32157(4) 0.04522(3) 0.22667(5)
Br1_2 Br 0.58358(2) 0.17232(4) 0.15323(7)
C1_3 C 0.2521(2) 0.1880(3) 0.6324(6)
H1_3 H 0.2263 0.1572 0.6337
C2_3 C 0.29342(17) 0.19792(23) 0.5687(4)
C3_3 C 0.3304(2) 0.2443(3) 0.5743(6)
H2_3 H 0.3593 0.2526 0.5360
C4_3 C 0.2810(2) 0.0824(3) 0.4596(5)
H3_3 H 0.2650 0.0507 0.4848
C5_3 C 0.2752(2) 0.1143(3) 0.5312(5)
H4_3 H 0.2558 0.1042 0.6023
C6_3 C 0.29853(17) 0.16172(24) 0.4968(4)
C7_3 C 0.3266(2) 0.1740(3) 0.3893(5)
H5_3 H 0.3431 0.2055 0.3618
C8_3 C 0.3299(2) 0.1393(3) 0.3239(5)
H6_3 H 0.3487 0.1483 0.2516
C9_4 C 0.2497(2) 0.22409(34) 0.6938(5)
H7_4 H 0.2220 0.2166 0.7376
C10_3 C 0.3247(2) 0.27864(34) 0.6367(6)
H8_3 H 0.3500 0.3097 0.6383
C11_3 C 0.41116(16) 0.06421(23) 0.3427(4)
C12_2 C 0.43889(16) 0.09800(23) 0.2416(4)
C13_2 C 0.48842(17) 0.11766(25) 0.2441(5)
H9_2 H 0.5024 0.1107 0.3111
C14_2 C 0.51634(18) 0.14698(27) 0.1489(5)
C15_2 C 0.4963(2) 0.1581(3) 0.0493(5)
C16_3 C 0.4480(2) 0.1397(3) 0.0456(5)
C17_3 C 0.41729(19) 0.10905(27) 0.1415(4)
N1_3 N 0.30807(15) 0.09367(21) 0.3568(4)
N2_4 N 0.28450(13) 0.26878(22) 0.6942(3)
O1_3 O 0.37199(12) 0.09323(17) 0.1280(3)
Cu3_4 Cu 0.27636(2) 0.32157(4) 0.77333(5)
N3_2 N 0.01573(26) 0.28450(13) 0.3058(3)
Br1_3 Br 0.50565(4) 0.25540(3) 0.51344(7)
C1_4 C 0.5213(3) 0.6025(2) 0.0343(6)
H1_4 H 0.4905 0.5975 0.0330
C2_4 C 0.53125(23) 0.57116(16) 0.0980(4)
C3_4 C 0.5776(3) 0.5805(2) 0.0924(6)
H2_4 H 0.5859 0.5599 0.1307
C4_4 C 0.4157(3) 0.4680(2) 0.2071(5)
H3_4 H 0.3840 0.4523 0.1819
C5_4 C 0.4476(3) 0.5057(2) 0.1355(5)
H4_4 H 0.4375 0.5150 0.0644
C6_4 C 0.49505(24) 0.52985(17) 0.1699(4)
C7_4 C 0.5073(3) 0.5140(2) 0.2774(5)
H5_4 H 0.5388 0.5290 0.3049
C8_4 C 0.4726(3) 0.4760(2) 0.3428(5)
H6_4 H 0.4816 0.4662 0.4151
C10_4 C 0.61197(34) 0.62057(28) 0.0300(6)
H8_4 H 0.6430 0.6263 0.0284
C11_4 C 0.39754(23) 0.31971(16) 0.3240(4)
C12_3 C 0.43133(23) 0.32577(17) 0.4251(4)
C13_3 C 0.45099(25) 0.29590(19) 0.4226(5)
H9_3 H 0.4440 0.2749 0.3556
C14_3 C 0.48031(27) 0.2973(2) 0.5178(5)
C15_3 C 0.4914(3) 0.3284(2) 0.6174(5)
H10_2 H 0.5112 0.3291 0.6818
C16_4 C 0.4730(3) 0.3583(2) 0.6211(5)
H11_3 H 0.4808 0.3792 0.6887
C17_4 C 0.44238(27) 0.35842(19) 0.5252(4)
N1_4 N 0.42700(21) 0.45226(14) 0.3099(4)
O1_4 O 0.42656(17) 0.38790(12) 0.5387(3)
O2_3 O 0.37504(16) 0.34234(11) 0.3242(3)
O3_3 O 0.39089(16) 0.29077(11) 0.2359(3)
O4_2 O 0.32433(19) 0.36603(11) 0.6575(3)
O5_2 O 0.37590(19) 0.43345(11) 0.5692(3)
Br1_4 Br 0.08308(2) 0.16102(4) 0.18011(7)
C8_5 C 0.3367(2) 0.1941(3) 0.0095(5)
H6_5 H 0.3179 0.1851 0.0818
C12_4 C 0.22777(16) 0.23534(23) 0.0918(4)
C13_4 C 0.17824(17) 0.21568(25) 0.0893(5)
H9_4 H 0.1642 0.2227 0.0223
C14_4 C 0.15032(18) 0.18636(27) 0.1845(5)
C15_4 C 0.1703(2) 0.1753(3) 0.2841(5)
H10_3 H 0.1512 0.1555 0.3485
C16_5 C 0.2186(2) 0.1937(3) 0.2878(5)
H11_4 H 0.2317 0.1859 0.3554
C17_5 C 0.24937(19) 0.22429(27) 0.1919(4)
O1_5 O 0.29467(12) 0.24011(17) 0.2054(3)
C1_5 C 0.4145(2) 0.1454(3) 0.7010(6)
H1_5 H 0.4403 0.1762 0.6997
C2_5 C 0.37324(17) 0.13542(23) 0.7647(4)
C3_5 C 0.3362(2) 0.0891(3) 0.7591(6)
H2_5 H 0.3073 0.0808 0.7974
C4_5 C 0.3856(2) 0.2510(3) 0.8738(5)
H3_5 H 0.4016 0.2827 0.8486
C5_5 C 0.3914(2) 0.2191(3) 0.8022(5)
H4_5 H 0.4108 0.2292 0.7311
C6_5 C 0.36813(17) 0.17162(24) 0.8366(4)
C7_5 C 0.3400(2) 0.1594(3) 0.9441(5)
H5_5 H 0.3235 0.1279 0.9716
C9_5 C 0.4169(2) 0.10925(34) 0.6396(5)
H7_5 H 0.4446 0.1168 0.5958
C10_5 C 0.3419(2) 0.05470(34) 0.6967(6)
H8_5 H 0.3166 0.0237 0.6951
C11_5 C 0.25550(16) 0.26913(23) 0.9907(4)
N1_5 N 0.35859(15) 0.23967(21) 0.9766(4)
O2_4 O 0.30063(11) 0.29163(16) 0.9909(3)
O3_4 O 0.23321(11) 0.27578(16) 0.9026(3)
Br1_5 Br 0.41127(3) 0.58358(2) 0.84677(7)
C1_6 C 0.0642(2) 0.2521(2) 0.3676(6)
H1_6 H 0.0692 0.2263 0.3663
C2_6 C 0.09551(16) 0.29342(17) 0.4313(4)
C3_6 C 0.0862(2) 0.3304(2) 0.4257(6)
H2_6 H 0.1068 0.3593 0.4640
C4_6 C 0.1987(2) 0.2810(2) 0.5404(5)
H3_6 H 0.2144 0.2650 0.5152
C5_6 C 0.1610(2) 0.2752(2) 0.4688(5)
H4_6 H 0.1517 0.2558 0.3977
C6_6 C 0.13682(17) 0.29853(17) 0.5032(4)
C7_6 C 0.1527(2) 0.3266(2) 0.6107(5)
H5_6 H 0.1377 0.3431 0.6382
C8_6 C 0.1907(2) 0.3299(2) 0.6761(5)
H6_6 H 0.2005 0.3487 0.7484
C9_6 C 0.02565(28) 0.2497(2) 0.3062(5)
H7_6 H 0.0055 0.2220 0.2624
C10_6 C 0.04610(28) 0.3247(2) 0.3633(6)
H8_6 H 0.0404 0.3500 0.3617
C11_6 C 0.34696(16) 0.41116(16) 0.6573(4)
C12_5 C 0.34090(17) 0.43889(16) 0.7584(4)
C13_5 C 0.37077(19) 0.48842(17) 0.7559(5)
H9_5 H 0.3918 0.5024 0.6889
C14_5 C 0.3694(2) 0.51634(18) 0.8511(5)
C15_5 C 0.3383(2) 0.4963(2) 0.9507(5)
C16_6 C 0.3084(2) 0.4480(2) 0.9544(5)
C17_6 C 0.30825(19) 0.41729(19) 0.8585(4)
N1_6 N 0.21441(14) 0.30807(15) 0.6432(4)
O1_6 O 0.27877(12) 0.37199(12) 0.8720(3)
Br1_6 Br 0.25540(3) 0.74975(2) 0.48656(7)
H2_7 H 0.5599 0.9740 0.8693
H5_7 H 0.5290 0.9902 0.6951
H6_7 H 0.4662 0.9846 0.5849
H8_7 H 0.6263 0.9833 0.9716
C11_7 C 0.31971(16) 0.92217(16) 0.6760(4)
C12_6 C 0.32577(17) 0.89444(16) 0.5749(4)
C13_6 C 0.29590(19) 0.84491(17) 0.5774(5)
H9_6 H 0.2749 0.8309 0.6444
C14_6 C 0.2973(2) 0.81699(18) 0.4822(5)
C15_6 C 0.3284(2) 0.8370(2) 0.3826(5)
H10_4 H 0.3291 0.8179 0.3182
C16_7 C 0.3583(2) 0.8853(2) 0.3789(5)
H11_5 H 0.3792 0.8984 0.3113
C17_7 C 0.35842(19) 0.91604(19) 0.4748(4)
O1_7 O 0.38790(12) 0.96134(12) 0.4613(3)
O2_5 O 0.34234(11) 0.96730(11) 0.6758(3)
O3_5 O 0.29077(11) 0.89988(11) 0.7641(3)
Cu2_2 Cu 0.28812(3) 0.94302(2) 0.89333(5)
C8_7 C 0.1941(3) 0.8573(2) 0.9905(5)
H6_8 H 0.1851 0.8671 0.9182
C16_8 C 0.1937(3) 0.9750(2) 0.7122(5)
H11_6 H 0.1859 0.9541 0.6446
C17_8 C 0.22429(27) 0.97491(19) 0.8081(4)
O1_8 O 0.24011(17) 0.94543(12) 0.7946(3)
N3_3 N 0.34906(26) 0.95117(13) 0.9725(3)
C9_7 C 0.35898(28) 0.9164(2) 0.9729(5)
H7_7 H 0.3388 0.8887 0.9291
Br1_7 Br 0.25025(2) 0.50565(4) 0.48656(7)
H2_8 H 0.0260 0.5859 0.8693
H5_8 H 0.0098 0.5388 0.6951
H6_9 H 0.0154 0.4816 0.5849
H8_8 H 0.0167 0.6430 0.9716
C11_8 C 0.07783(16) 0.39754(23) 0.6760(4)
C12_7 C 0.10556(16) 0.43133(23) 0.5749(4)
C13_7 C 0.15509(17) 0.45099(25) 0.5774(5)
H9_7 H 0.1691 0.4440 0.6444
C14_7 C 0.18301(18) 0.48031(27) 0.4822(5)
C15_7 C 0.1630(2) 0.4914(3) 0.3826(5)
H10_5 H 0.1821 0.5112 0.3182
C16_9 C 0.1147(2) 0.4730(3) 0.3789(5)
H11_7 H 0.1016 0.4808 0.3113
C17_9 C 0.08396(19) 0.44238(27) 0.4748(4)
O1_9 O 0.03866(12) 0.42656(17) 0.4613(3)
O2_6 O 0.03270(11) 0.37504(16) 0.6758(3)
O3_6 O 0.10012(11) 0.39089(16) 0.7641(3)
Cu2_3 Cu 0.05698(2) 0.34509(4) 0.89333(5)
C8_8 C 0.1427(2) 0.3367(2) 0.9905(5)
H6_10 H 0.1329 0.3179 0.9182
C16_10 C 0.0250(2) 0.2186(2) 0.7122(5)
H11_8 H 0.0459 0.2317 0.6446
C17_10 C 0.02509(19) 0.24937(19) 0.8081(4)
O1_10 O 0.05457(12) 0.29467(12) 0.7946(3)
N3_4 N 0.04883(13) 0.39789(22) 0.9725(3)
C9_8 C 0.0836(2) 0.44258(34) 0.9729(5)
H7_8 H 0.1113 0.4501 0.9291
C9_9 C 0.9164(2) 0.55742(34) 0.0271(5)
H7_9 H 0.8887 0.5499 0.0709
N2_5 N 0.95117(13) 0.60211(22) 0.0275(3)
Cu3_5 Cu 0.94302(2) 0.65491(4) 0.10667(5)
Br1_8 Br 0.74975(2) 0.49435(4) 0.51344(7)
H2_9 H 0.9740 0.4141 0.1307
H5_9 H 0.9902 0.4612 0.3049
H6_11 H 0.9846 0.5184 0.4151
H8_9 H 0.9833 0.3570 0.0284
C11_9 C 0.92217(16) 0.60246(23) 0.3240(4)
C12_8 C 0.89444(16) 0.56867(23) 0.4251(4)
C13_8 C 0.84491(17) 0.54901(25) 0.4226(5)
H9_8 H 0.8309 0.5560 0.3556
C14_8 C 0.81699(18) 0.51969(27) 0.5178(5)
C15_8 C 0.8370(2) 0.5086(3) 0.6174(5)
H10_6 H 0.8179 0.4888 0.6818
C16_11 C 0.8853(2) 0.5270(3) 0.6211(5)
H11_9 H 0.8984 0.5192 0.6887
C17_11 C 0.91604(19) 0.55762(27) 0.5252(4)
O1_11 O 0.96134(12) 0.57344(17) 0.5387(3)
O2_7 O 0.96730(11) 0.62496(16) 0.3242(3)
O3_7 O 0.89988(11) 0.60911(16) 0.2359(3)
C8_9 C 0.8573(2) 0.6633(2) 0.0095(5)
H6_12 H 0.8671 0.6821 0.0818
C16_12 C 0.9750(2) 0.7814(2) 0.2878(5)
H11_10 H 0.9541 0.7683 0.3554
C17_12 C 0.97491(19) 0.75063(19) 0.1919(4)
O1_12 O 0.94543(12) 0.70533(12) 0.2054(3)
Cu1_2 Cu 0.98824(2) 0.37855(3) 0.56000(5)
C1_7 C 0.9188(2) 0.5213(3) 0.9657(6)
H1_7 H 0.8930 0.4905 0.9670
C2_7 C 0.96009(17) 0.53125(23) 0.9020(4)
C3_7 C 0.9971(2) 0.5776(3) 0.9076(6)
C4_7 C 0.9477(2) 0.4157(3) 0.7929(5)
H3_7 H 0.9317 0.3840 0.8181
C5_7 C 0.9419(2) 0.4476(3) 0.8645(5)
H4_7 H 0.9225 0.4375 0.9356
C6_7 C 0.96520(17) 0.49505(24) 0.8301(4)
C7_7 C 0.9933(2) 0.5073(3) 0.7226(5)
C8_10 C 0.9966(2) 0.4726(3) 0.6572(5)
C10_7 C 0.9914(2) 0.61197(34) 0.9700(6)
N1_7 N 0.97474(15) 0.42700(21) 0.6901(4)
N3_5 N 0.93544(22) 0.31761(26) 0.6392(3)
O4_3 O 0.95829(16) 0.32433(19) 0.3425(3)
O5_3 O 0.94244(16) 0.37590(19) 0.4308(3)
C11_10 C 0.98638(16) 0.25550(16) 0.0093(4)
O3_8 O 0.95744(11) 0.23321(11) 0.0974(3)
Cu2_4 Cu 0.95478(3) 0.27636(2) 0.22667(5)
Br1_9 Br 0.82768(4) 0.41127(3) 0.15323(7)
C1_8 C 0.8120(3) 0.0642(2) 0.6324(6)
H1_8 H 0.8428 0.0692 0.6337
C2_8 C 0.80208(23) 0.09551(16) 0.5687(4)
C3_8 C 0.7557(3) 0.0862(2) 0.5743(6)
H2_10 H 0.7474 0.1068 0.5360
C4_8 C 0.9176(3) 0.1987(2) 0.4596(5)
H3_8 H 0.9493 0.2144 0.4848
C5_8 C 0.8857(3) 0.1610(2) 0.5312(5)
H4_8 H 0.8958 0.1517 0.6023
C6_8 C 0.83828(24) 0.13682(17) 0.4968(4)
C7_8 C 0.8260(3) 0.1527(2) 0.3893(5)
H5_10 H 0.7945 0.1377 0.3618
C8_11 C 0.8607(3) 0.1907(2) 0.3239(5)
H6_13 H 0.8517 0.2005 0.2516
C9_10 C 0.77591(34) 0.02565(28) 0.6938(5)
H7_10 H 0.7834 0.0055 0.7376
C10_8 C 0.72136(34) 0.04610(28) 0.6367(6)
H8_10 H 0.6903 0.0404 0.6383
C11_11 C 0.93579(23) 0.34696(16) 0.3427(4)
C12_9 C 0.90200(23) 0.34090(17) 0.2416(4)
C13_9 C 0.88234(25) 0.37077(19) 0.2441(5)
H9_9 H 0.8893 0.3918 0.3111
C14_9 C 0.85302(27) 0.3694(2) 0.1489(5)
C15_9 C 0.8419(3) 0.3383(2) 0.0493(5)
C16_13 C 0.8603(3) 0.3084(2) 0.0456(5)
C17_13 C 0.89095(27) 0.30825(19) 0.1415(4)
N1_8 N 0.90633(21) 0.21441(14) 0.3568(4)
N2_6 N 0.73122(22) 0.01573(18) 0.6942(3)
O1_13 O 0.90677(17) 0.27877(12) 0.1280(3)
C1_9 C 0.8546(3) 0.2692(2) 0.7010(6)
H1_9 H 0.8238 0.2642 0.6997
C2_9 C 0.86458(23) 0.23783(16) 0.7647(4)
C3_9 C 0.9109(3) 0.2472(2) 0.7591(6)
H2_11 H 0.9192 0.2266 0.7974
C4_9 C 0.7490(3) 0.1347(2) 0.8738(5)
H3_9 H 0.7173 0.1190 0.8486
C5_9 C 0.7809(3) 0.1724(2) 0.8022(5)
H4_9 H 0.7708 0.1817 0.7311
C6_9 C 0.82838(24) 0.19652(17) 0.8366(4)
C7_9 C 0.8406(3) 0.1807(2) 0.9441(5)
H5_11 H 0.8721 0.1957 0.9716
C9_11 C 0.89075(34) 0.30769(28) 0.6396(5)
H7_11 H 0.8832 0.3279 0.5958
C10_9 C 0.94530(34) 0.28724(28) 0.6967(6)
H8_11 H 0.9763 0.2930 0.6951
N1_9 N 0.76033(21) 0.11893(14) 0.9766(4)
O2_8 O 0.70837(16) 0.00901(11) 0.9909(3)
Cu1_3 Cu 0.62145(3) 0.60969(2) 0.56000(5)
Br1_10 Br 0.49435(4) 0.74460(3) 0.48656(7)
C1_10 C 0.4787(3) 0.3975(2) 0.9657(6)
H1_10 H 0.5095 0.4025 0.9670
C2_10 C 0.46875(23) 0.42884(16) 0.9020(4)
C3_10 C 0.4224(3) 0.4195(2) 0.9076(6)
H2_12 H 0.4141 0.4401 0.8693
C4_10 C 0.5843(3) 0.5320(2) 0.7929(5)
H3_10 H 0.6160 0.5477 0.8181
C5_10 C 0.5524(3) 0.4943(2) 0.8645(5)
H4_10 H 0.5625 0.4850 0.9356
C6_10 C 0.50495(24) 0.47015(17) 0.8301(4)
C7_10 C 0.4927(3) 0.4860(2) 0.7226(5)
H5_12 H 0.4612 0.4710 0.6951
C8_12 C 0.5274(3) 0.5240(2) 0.6572(5)
H6_14 H 0.5184 0.5338 0.5849
C10_10 C 0.38803(34) 0.37943(28) 0.9700(6)
H8_12 H 0.3570 0.3737 0.9716
C11_12 C 0.60246(23) 0.68029(16) 0.6760(4)
C12_10 C 0.56867(23) 0.67423(17) 0.5749(4)
C13_10 C 0.54901(25) 0.70410(19) 0.5774(5)
H9_10 H 0.5560 0.7251 0.6444
C14_10 C 0.51969(27) 0.7027(2) 0.4822(5)
C15_10 C 0.5086(3) 0.6716(2) 0.3826(5)
H10_7 H 0.4888 0.6709 0.3182
C16_14 C 0.5270(3) 0.6417(2) 0.3789(5)
H11_11 H 0.5192 0.6208 0.3113
C17_14 C 0.55762(27) 0.64158(19) 0.4748(4)
N1_10 N 0.57300(21) 0.54774(14) 0.6901(4)
O1_14 O 0.57344(17) 0.61210(12) 0.4613(3)
O2_9 O 0.62496(16) 0.65766(11) 0.6758(3)
O3_9 O 0.60911(16) 0.70923(11) 0.7641(3)
Cu2_5 Cu 0.65491(4) 0.71188(3) 0.89333(5)
N3_6 N 0.68239(26) 0.61784(13) 0.6392(3)
O4_4 O 0.67567(19) 0.63397(11) 0.3425(3)
O5_4 O 0.62410(19) 0.56655(11) 0.4308(3)
C1_11 C 0.5855(2) 0.8546(3) 0.2990(6)
H1_11 H 0.5597 0.8238 0.3003
C2_11 C 0.62676(17) 0.86458(23) 0.2353(4)
C3_11 C 0.6638(2) 0.9109(3) 0.2409(6)
H2_13 H 0.6927 0.9192 0.2026
C4_11 C 0.6144(2) 0.7490(3) 0.1262(5)
H3_11 H 0.5984 0.7173 0.1514
C5_11 C 0.6086(2) 0.7809(3) 0.1978(5)
H4_11 H 0.5892 0.7708 0.2689
C6_11 C 0.63187(17) 0.82838(24) 0.1634(4)
C7_11 C 0.6600(2) 0.8406(3) 0.0559(5)
H5_13 H 0.6765 0.8721 0.0284
C9_12 C 0.5831(2) 0.89075(34) 0.3604(5)
H7_12 H 0.5554 0.8832 0.4042
C10_11 C 0.6581(2) 0.94530(34) 0.3033(6)
H8_13 H 0.6834 0.9763 0.3049
C11_13 C 0.74450(16) 0.73087(23) 0.0093(4)
N1_11 N 0.64141(15) 0.76033(21) 0.0234(4)
N2_7 N 0.61784(13) 0.93544(22) 0.3608(3)
O2_10 O 0.69937(11) 0.70837(16) 0.0091(3)
O3_10 O 0.76679(11) 0.72422(16) 0.0974(3)
Cu2_6 Cu 0.72364(2) 0.67843(4) 0.22667(5)
Cu3_6 Cu 0.60969(2) 0.98824(4) 0.44000(5)
Br1_11 Br 0.91692(2) 0.83898(4) 0.81989(7)
C8_13 C 0.6633(2) 0.8059(3) 0.9905(5)
H6_15 H 0.6821 0.8149 0.9182
C12_11 C 0.77223(16) 0.76466(23) 0.9082(4)
C13_11 C 0.82176(17) 0.78432(25) 0.9107(5)
H9_11 H 0.8358 0.7773 0.9777
C14_11 C 0.84968(18) 0.81364(27) 0.8155(5)
C15_11 C 0.8297(2) 0.8247(3) 0.7159(5)
H10_8 H 0.8488 0.8445 0.6515
C16_15 C 0.7814(2) 0.8063(3) 0.7122(5)
H11_12 H 0.7683 0.8141 0.6446
C17_15 C 0.75063(19) 0.77571(27) 0.8081(4)
O1_15 O 0.70533(12) 0.75989(17) 0.7946(3)
N3_7 N 0.60211(22) 0.65094(26) 0.9725(3)
Br1_12 Br 0.58873(3) 0.41642(2) 0.15323(7)
C1_12 C 0.9358(2) 0.7479(2) 0.6324(6)
H1_12 H 0.9308 0.7737 0.6337
C2_12 C 0.90449(16) 0.70658(17) 0.5687(4)
C3_12 C 0.9138(2) 0.6696(2) 0.5743(6)
H2_14 H 0.8932 0.6407 0.5360
C4_12 C 0.8013(2) 0.7190(2) 0.4596(5)
H3_12 H 0.7856 0.7350 0.4848
C5_12 C 0.8390(2) 0.7248(2) 0.5312(5)
H4_12 H 0.8483 0.7442 0.6023
C6_12 C 0.86318(17) 0.70147(17) 0.4968(4)
C7_12 C 0.8473(2) 0.6734(2) 0.3893(5)
H5_14 H 0.8623 0.6569 0.3618
C8_14 C 0.8093(2) 0.6701(2) 0.3239(5)
H6_16 H 0.7995 0.6513 0.2516
C9_13 C 0.97435(28) 0.7503(2) 0.6938(5)
H7_13 H 0.9945 0.7780 0.7376
C10_12 C 0.95390(28) 0.6753(2) 0.6367(6)
H8_14 H 0.9596 0.6500 0.6383
C11_14 C 0.65304(16) 0.58884(16) 0.3427(4)
C12_12 C 0.65910(17) 0.56111(16) 0.2416(4)
C13_12 C 0.62923(19) 0.51158(17) 0.2441(5)
H9_12 H 0.6082 0.4976 0.3111
C14_12 C 0.6306(2) 0.48366(18) 0.1489(5)
C15_12 C 0.6617(2) 0.5037(2) 0.0493(5)
C16_16 C 0.6916(2) 0.5520(2) 0.0456(5)
C17_16 C 0.69175(19) 0.58271(19) 0.1415(4)
N1_12 N 0.78559(14) 0.69193(15) 0.3568(4)
N2_8 N 0.98427(18) 0.71550(13) 0.6942(3)
O1_16 O 0.72123(12) 0.62801(12) 0.1280(3)
N3_8 N 0.71550(13) 0.73122(22) 0.3058(3)
Cu3_7 Cu 0.67843(4) 0.95478(3) 0.77333(5)
C1_13 C 0.3975(2) 0.9188(2) 0.0343(6)
H1_13 H 0.4025 0.8930 0.0330
C2_13 C 0.42884(16) 0.96009(17) 0.0980(4)
C3_13 C 0.4195(2) 0.9971(2) 0.0924(6)
C4_13 C 0.5320(2) 0.9477(2) 0.2071(5)
H3_13 H 0.5477 0.9317 0.1819
C5_13 C 0.4943(2) 0.9419(2) 0.1355(5)
H4_13 H 0.4850 0.9225 0.0644
C6_13 C 0.47015(17) 0.96520(17) 0.1699(4)
C7_13 C 0.4860(2) 0.9933(2) 0.2774(5)
C8_15 C 0.5240(2) 0.9966(2) 0.3428(5)
C10_13 C 0.37943(28) 0.9914(2) 0.0300(6)
N1_13 N 0.54774(14) 0.97474(15) 0.3099(4)
O4_5 O 0.63397(11) 0.95829(16) 0.6575(3)
O5_5 O 0.56655(11) 0.94244(16) 0.5692(3)
C9_14 C 0.55742(34) 0.64102(28) 0.9729(5)
H7_14 H 0.5499 0.6612 0.9291
C1_14 C 0.7308(2) 0.5855(2) 0.7010(6)
H1_14 H 0.7358 0.5597 0.6997
C2_14 C 0.76217(16) 0.62676(17) 0.7647(4)
C3_14 C 0.7528(2) 0.6638(2) 0.7591(6)
H2_15 H 0.7734 0.6927 0.7974
C4_14 C 0.8653(2) 0.6144(2) 0.8738(5)
H3_14 H 0.8810 0.5984 0.8486
C5_14 C 0.8276(2) 0.6086(2) 0.8022(5)
H4_14 H 0.8183 0.5892 0.7311
C6_14 C 0.80348(17) 0.63187(17) 0.8366(4)
C7_14 C 0.8193(2) 0.6600(2) 0.9441(5)
H5_15 H 0.8043 0.6765 0.9716
C9_15 C 0.69231(28) 0.5831(2) 0.6396(5)
H7_15 H 0.6721 0.5554 0.5958
C10_14 C 0.71276(28) 0.6581(2) 0.6967(6)
H8_15 H 0.7070 0.6834 0.6951
N1_14 N 0.88107(14) 0.64141(15) 0.9766(4)
O2_11 O 0.99099(11) 0.69937(11) 0.9909(3)
C11_15 C 0.73087(23) 0.98638(16) 0.9907(4)
O3_11 O 0.72422(16) 0.95744(11) 0.9026(3)
Br1_13 Br 0.41642(2) 0.82768(4) 0.84677(7)
C1_15 C 0.7479(2) 0.8120(3) 0.3676(6)
H1_15 H 0.7737 0.8428 0.3663
C2_15 C 0.70658(17) 0.80208(23) 0.4313(4)
C3_15 C 0.6696(2) 0.7557(3) 0.4257(6)
H2_16 H 0.6407 0.7474 0.4640
C4_15 C 0.7190(2) 0.9176(3) 0.5404(5)
H3_15 H 0.7350 0.9493 0.5152
C5_15 C 0.7248(2) 0.8857(3) 0.4688(5)
H4_15 H 0.7442 0.8958 0.3977
C6_15 C 0.70147(17) 0.83828(24) 0.5032(4)
C7_15 C 0.6734(2) 0.8260(3) 0.6107(5)
H5_16 H 0.6569 0.7945 0.6382
C8_16 C 0.6701(2) 0.8607(3) 0.6761(5)
H6_17 H 0.6513 0.8517 0.7484
C9_16 C 0.7503(2) 0.77591(34) 0.3062(5)
H7_16 H 0.7780 0.7834 0.2624
C10_15 C 0.6753(2) 0.72136(34) 0.3633(6)
H8_16 H 0.6500 0.6903 0.3617
C11_16 C 0.58884(16) 0.93579(23) 0.6573(4)
C12_13 C 0.56111(16) 0.90200(23) 0.7584(4)
C13_13 C 0.51158(17) 0.88234(25) 0.7559(5)
H9_13 H 0.4976 0.8893 0.6889
C14_13 C 0.48366(18) 0.85302(27) 0.8511(5)
C15_13 C 0.5037(2) 0.8419(3) 0.9507(5)
C16_17 C 0.5520(2) 0.8603(3) 0.9544(5)
C17_17 C 0.58271(19) 0.89095(27) 0.8585(4)
N1_15 N 0.69193(15) 0.90633(21) 0.6432(4)
O1_17 O 0.62801(12) 0.90677(17) 0.8720(3)
Br1_14 Br 0.92207(3) 0.08308(2) 0.81989(7)
C12_14 C 0.99244(17) 0.22777(16) 0.9082(4)
C13_14 C 0.96257(19) 0.17824(17) 0.9107(5)
H9_14 H 0.9416 0.1642 0.9777
C14_14 C 0.9640(2) 0.15032(18) 0.8155(5)
C15_14 C 0.9951(2) 0.1703(2) 0.7159(5)
H10_9 H 0.9958 0.1512 0.6515
Br1_15 Br 0.16102(4) 0.07793(3) 0.81989(7)
C12_15 C 0.23534(23) 0.00756(17) 0.9082(4)
C13_15 C 0.21568(25) 0.03743(19) 0.9107(5)
H9_15 H 0.2227 0.0584 0.9777
C14_15 C 0.18636(27) 0.0360(2) 0.8155(5)
C15_15 C 0.1753(3) 0.0049(2) 0.7159(5)
H10_10 H 0.1555 0.0042 0.6515
C1_16 C 0.1454(3) 0.7308(2) 0.2990(6)
H1_16 H 0.1762 0.7358 0.3003
C2_16 C 0.13542(23) 0.76217(16) 0.2353(4)
C3_16 C 0.0891(3) 0.7528(2) 0.2409(6)
H2_17 H 0.0808 0.7734 0.2026
C4_16 C 0.2510(3) 0.8653(2) 0.1262(5)
H3_16 H 0.2827 0.8810 0.1514
C5_16 C 0.2191(3) 0.8276(2) 0.1978(5)
H4_16 H 0.2292 0.8183 0.2689
C6_16 C 0.17162(24) 0.80348(17) 0.1634(4)
C7_16 C 0.1594(3) 0.8193(2) 0.0559(5)
H5_17 H 0.1279 0.8043 0.0284
C9_17 C 0.10925(34) 0.69231(28) 0.3604(5)
H7_17 H 0.1168 0.6721 0.4042
C10_16 C 0.05470(34) 0.71276(28) 0.3033(6)
H8_17 H 0.0237 0.7070 0.3049
N1_16 N 0.23967(21) 0.88107(14) 0.0234(4)
N2_9 N 0.06456(22) 0.68239(18) 0.3608(3)
O2_12 O 0.29163(16) 0.99099(11) 0.0091(3)
Cu3_8 Cu 0.01176(4) 0.62145(3) 0.44000(5)
Cu3_9 Cu 0.04522(3) 0.72364(2) 0.77333(5)
N3_9 N 0.26878(22) 0.98427(26) 0.3058(3)
C1_17 C 0.0812(2) 0.4787(3) 0.0343(6)
H1_17 H 0.1070 0.5095 0.0330
C2_17 C 0.03991(17) 0.46875(23) 0.0980(4)
C3_17 C 0.0029(2) 0.4224(3) 0.0924(6)
C4_17 C 0.0523(2) 0.5843(3) 0.2071(5)
H3_17 H 0.0683 0.6160 0.1819
C5_17 C 0.0581(2) 0.5524(3) 0.1355(5)
H4_17 H 0.0775 0.5625 0.0644
C6_17 C 0.03480(17) 0.50495(24) 0.1699(4)
C7_17 C 0.0067(2) 0.4927(3) 0.2774(5)
C8_17 C 0.0034(2) 0.5274(3) 0.3428(5)
C10_17 C 0.0086(2) 0.38803(34) 0.0300(6)
N1_17 N 0.02526(15) 0.57300(21) 0.3099(4)
O4_6 O 0.04171(16) 0.67567(19) 0.6575(3)
O5_6 O 0.05756(16) 0.62410(19) 0.5692(3)
C11_17 C 0.01362(16) 0.74450(16) 0.9907(4)
O3_12 O 0.04256(11) 0.76679(11) 0.9026(3)
Br1_16 Br 0.17232(4) 0.58873(3) 0.84677(7)
C1_18 C 0.1880(3) 0.9358(2) 0.3676(6)
H1_18 H 0.1572 0.9308 0.3663
C2_18 C 0.19792(23) 0.90449(16) 0.4313(4)
C3_18 C 0.2443(3) 0.9138(2) 0.4257(6)
H2_18 H 0.2526 0.8932 0.4640
C4_18 C 0.0824(3) 0.8013(2) 0.5404(5)
H3_18 H 0.0507 0.7856 0.5152
C5_18 C 0.1143(3) 0.8390(2) 0.4688(5)
H4_18 H 0.1042 0.8483 0.3977
C6_18 C 0.16172(24) 0.86318(17) 0.5032(4)
C7_18 C 0.1740(3) 0.8473(2) 0.6107(5)
H5_18 H 0.2055 0.8623 0.6382
C8_18 C 0.1393(3) 0.8093(2) 0.6761(5)
H6_18 H 0.1483 0.7995 0.7484
C9_18 C 0.22409(34) 0.97435(28) 0.3062(5)
H7_18 H 0.2166 0.9945 0.2624
C10_18 C 0.27864(34) 0.95390(28) 0.3633(6)
H8_18 H 0.3097 0.9596 0.3617
C11_18 C 0.06421(23) 0.65304(16) 0.6573(4)
C12_16 C 0.09800(23) 0.65910(17) 0.7584(4)
C13_16 C 0.11766(25) 0.62923(19) 0.7559(5)
H9_16 H 0.1107 0.6082 0.6889
C14_16 C 0.14698(27) 0.6306(2) 0.8511(5)
C15_16 C 0.1581(3) 0.6617(2) 0.9507(5)
C16_18 C 0.1397(3) 0.6916(2) 0.9544(5)
C17_18 C 0.10905(27) 0.69175(19) 0.8585(4)
N1_18 N 0.09367(21) 0.78559(14) 0.6432(4)
O1_18 O 0.09323(17) 0.72123(12) 0.8720(3)
H10_11 H 0.6624 0.4846 0.9849
H11_13 H 0.7125 0.5651 0.9780
H10_12 H 0.5154 0.1779 0.9849
H11_14 H 0.4349 0.1475 0.9780
H10_13 H 0.8221 0.3376 0.9849
H11_15 H 0.8525 0.2875 0.9780
Br1_17 Br 0.07793(3) 0.91692(2) 0.18011(7)
C12_17 C 0.00756(17) 0.77223(16) 0.0918(4)
C13_17 C 0.03743(19) 0.82176(17) 0.0893(5)
H9_17 H 0.0584 0.8358 0.0223
C14_17 C 0.0360(2) 0.84968(18) 0.1845(5)
C15_17 C 0.0049(2) 0.8297(2) 0.2841(5)
H10_14 H 0.0042 0.8488 0.3485
Br1_18 Br 0.83898(4) 0.92207(3) 0.18011(7)
C12_18 C 0.76466(23) 0.99244(17) 0.0918(4)
C13_18 C 0.78432(25) 0.96257(19) 0.0893(5)
H9_18 H 0.7773 0.9416 0.0223
C14_18 C 0.81364(27) 0.9640(2) 0.1845(5)
C15_18 C 0.8247(3) 0.9951(2) 0.2841(5)
H10_15 H 0.8445 0.9958 0.3485
H10_16 H 0.3376 0.5154 0.0151
H11_16 H 0.2875 0.4349 0.0220
H10_17 H 0.4846 0.8221 0.0151
H11_17 H 0.5651 0.8525 0.0220
H10_18 H 0.1779 0.6624 0.0151
H11_18 H 0.1475 0.7125 0.0220
loop_
_geom_bond_atom_site_label_1
_geom_bond_atom_site_label_2
_geom_bond_site_symmetry_1
_geom_bond_site_symmetry_2
H7 C9 1_555 1_555
N2 C9 1_555 1_555
Cu3 N2 1_555 1_555
Br1 C14 1_555 1_555
C11 C12 1_555 1_555
C12 C13 1_555 1_555
C13 H9 1_555 1_555
C14 C13 1_555 1_555
C15 C14 1_555 1_555
H10 C15 1_555 1_555
C16 C15 1_555 1_555
H11 C16 1_555 1_555
C17 C12 1_555 1_555
O3 C11 1_555 1_555
Cu3 O2 1_555 1_555
C11 O2 1_555 1_555
C16 C17 1_555 1_555
C17 O1 1_555 1_555
O3 Cu3 1_555 1_555
H6_2 C8 1_555 1_555
H11_2 C16_2 1_555 1_555
O1_2 Cu3 1_555 1_555
C16_2 C17_2 1_555 1_555
C17_2 O1_2 1_555 1_555
Cu1 N1 1_555 1_555
C1 H1 1_555 1_555
C2 C1 1_555 1_555
C3 C2 1_555 1_555
C4 H3 1_555 1_555
C5 C4 1_555 1_555
H4 C5 1_555 1_555
C6 C2 1_555 1_555
C7 C6 1_555 1_555
C8_2 C7 1_555 1_555
C10 C3 1_555 1_555
N1 C4 1_555 1_555
N3 Cu1 1_555 1_555
O4 Cu1 1_555 1_555
O5 Cu1 1_555 1_555
C5 C6 1_555 1_555
C8_2 N1 1_555 1_555
H7_2 C9_2 1_555 1_555
N2_2 C9_2 1_555 1_555
Cu3_2 N2_2 1_555 1_555
C1_2 H1_2 1_555 1_555
C2_2 C1_2 1_555 1_555
C3_2 C2_2 1_555 1_555
H2_2 C3_2 1_555 1_555
C4_2 H3_2 1_555 1_555
C5_2 C4_2 1_555 1_555
H4_2 C5_2 1_555 1_555
C6_2 C2_2 1_555 1_555
C7_2 C6_2 1_555 1_555
H5_2 C7_2 1_555 1_555
C9_3 C1_2 1_555 1_555
H7_3 C9_3 1_555 1_555
C10_2 C3_2 1_555 1_555
H8_2 C10_2 1_555 1_555
N1_2 C4_2 1_555 1_555
N2_3 C9_3 1_555 1_555
Cu3_3 N2_3 1_555 1_555
C5_2 C6_2 1_555 1_555
C10_2 N2_3 1_555 1_555
O3_2 C11_2 1_555 1_555
O3_2 Cu2 1_555 1_555
Cu2 N1_3 1_555 1_555
Br1_2 C14_2 1_555 1_555
C1_3 H1_3 1_555 1_555
C2_3 C1_3 1_555 1_555
C3_3 C2_3 1_555 1_555
H2_3 C3_3 1_555 1_555
C4_3 H3_3 1_555 1_555
C5_3 C4_3 1_555 1_555
H4_3 C5_3 1_555 1_555
C6_3 C2_3 1_555 1_555
C7_3 C6_3 1_555 1_555
H5_3 C7_3 1_555 1_555
C8_3 C7_3 1_555 1_555
H6_3 C8_3 1_555 1_555
C9_4 C1_3 1_555 1_555
H7_4 C9_4 1_555 1_555
C10_3 C3_3 1_555 1_555
H8_3 C10_3 1_555 1_555
C11_3 C12_2 1_555 1_555
C12_2 C13_2 1_555 1_555
C13_2 H9_2 1_555 1_555
C14_2 C13_2 1_555 1_555
C15_2 C14_2 1_555 1_555
C16_3 C15_2 1_555 1_555
C17_3 C12_2 1_555 1_555
N1_3 C4_3 1_555 1_555
N2_4 C9_4 1_555 1_555
O1_3 Cu2 1_555 1_555
O4 Cu2 1_555 1_555
O5 C11_3 1_555 1_555
Cu3_4 N2_4 1_555 1_555
C5_3 C6_3 1_555 1_555
C8_3 N1_3 1_555 1_555
C10_3 N2_4 1_555 1_555
C11_3 O4 1_555 1_555
C16_3 C17_3 1_555 1_555
C17_3 O1_3 1_555 1_555
Cu3_3 N1_4 1_555 1_555
Br1_3 C14_3 1_555 1_555
C1_4 H1_4 1_555 1_555
C2_4 C1_4 1_555 1_555
C3_4 C2_4 1_555 1_555
H2_4 C3_4 1_555 1_555
C4_4 H3_4 1_555 1_555
C5_4 C4_4 1_555 1_555
H4_4 C5_4 1_555 1_555
C6_4 C2_4 1_555 1_555
C7_4 C6_4 1_555 1_555
H5_4 C7_4 1_555 1_555
C8_4 C7_4 1_555 1_555
H6_4 C8_4 1_555 1_555
C10_4 C3_4 1_555 1_555
H8_4 C10_4 1_555 1_555
C11_4 C12_3 1_555 1_555
C12_3 C13_3 1_555 1_555
C13_3 H9_3 1_555 1_555
C14_3 C13_3 1_555 1_555
C15_3 C14_3 1_555 1_555
H10_2 C15_3 1_555 1_555
C16_4 C15_3 1_555 1_555
H11_3 C16_4 1_555 1_555
C17_4 C12_3 1_555 1_555
N1_4 C4_4 1_555 1_555
O1_4 Cu3_3 1_555 1_555
O2_3 Cu3_3 1_555 1_555
O3_3 C11_4 1_555 1_555
Cu3_2 O2_3 1_555 1_555
O4_2 Cu3_3 1_555 1_555
O5_2 Cu3_3 1_555 1_555
C5_4 C6_4 1_555 1_555
C8_4 N1_4 1_555 1_555
C11_4 O2_3 1_555 1_555
C16_4 C17_4 1_555 1_555
C17_4 O1_4 1_555 1_555
O3_3 Cu3_2 1_555 1_555
Br1_4 C14_4 1_555 1_555
H6_5 C8_5 1_555 1_555
C12_4 C13_4 1_555 1_555
C13_4 H9_4 1_555 1_555
C14_4 C13_4 1_555 1_555
C15_4 C14_4 1_555 1_555
H10_3 C15_4 1_555 1_555
C16_5 C15_4 1_555 1_555
H11_4 C16_5 1_555 1_555
C17_5 C12_4 1_555 1_555
O1_5 Cu3_2 1_555 1_555
C16_5 C17_5 1_555 1_555
C17_5 O1_5 1_555 1_555
C1_5 H1_5 1_555 1_555
C2_5 C1_5 1_555 1_555
C3_5 C2_5 1_555 1_555
H2_5 C3_5 1_555 1_555
C4_5 H3_5 1_555 1_555
C5_5 C4_5 1_555 1_555
H4_5 C5_5 1_555 1_555
C6_5 C2_5 1_555 1_555
C7_5 C6_5 1_555 1_555
H5_5 C7_5 1_555 1_555
C9_5 C1_5 1_555 1_555
H7_5 C9_5 1_555 1_555
C10_5 C3_5 1_555 1_555
H8_5 C10_5 1_555 1_555
N1_5 C4_5 1_555 1_555
N3 C9_5 1_555 1_555
O3_4 C11_5 1_555 1_555
Cu3_4 O2_4 1_555 1_555
C5_5 C6_5 1_555 1_555
C10_5 N3 1_555 1_555
C11_5 O2_4 1_555 1_555
O3_4 Cu3_4 1_555 1_555
Cu3_4 N1_6 1_555 1_555
Br1_5 C14_5 1_555 1_555
C1_6 H1_6 1_555 1_555
C2_6 C1_6 1_555 1_555
C3_6 C2_6 1_555 1_555
H2_6 C3_6 1_555 1_555
C4_6 H3_6 1_555 1_555
C5_6 C4_6 1_555 1_555
H4_6 C5_6 1_555 1_555
C6_6 C2_6 1_555 1_555
C7_6 C6_6 1_555 1_555
H5_6 C7_6 1_555 1_555
C8_6 C7_6 1_555 1_555
H6_6 C8_6 1_555 1_555
C9_6 C1_6 1_555 1_555
H7_6 C9_6 1_555 1_555
C10_6 C3_6 1_555 1_555
H8_6 C10_6 1_555 1_555
C11_6 C12_5 1_555 1_555
C12_5 C13_5 1_555 1_555
C13_5 H9_5 1_555 1_555
C14_5 C13_5 1_555 1_555
C15_5 C14_5 1_555 1_555
C16_6 C15_5 1_555 1_555
C17_6 C12_5 1_555 1_555
N1_6 C4_6 1_555 1_555
N3_2 C9_6 1_555 1_555
O1_6 Cu3_4 1_555 1_555
O4_2 Cu3_4 1_555 1_555
O5_2 C11_6 1_555 1_555
C5_6 C6_6 1_555 1_555
C8_6 N1_6 1_555 1_555
C10_6 N3_2 1_555 1_555
C11_6 O4_2 1_555 1_555
C16_6 C17_6 1_555 1_555
C17_6 O1_6 1_555 1_555
Br1_6 C14_6 1_555 1_555
C11_7 C12_6 1_555 1_555
C12_6 C13_6 1_555 1_555
C13_6 H9_6 1_555 1_555
C14_6 C13_6 1_555 1_555
C15_6 C14_6 1_555 1_555
H10_4 C15_6 1_555 1_555
C16_7 C15_6 1_555 1_555
H11_5 C16_7 1_555 1_555
C17_7 C12_6 1_555 1_555
O3_5 C11_7 1_555 1_555
Cu2_2 O2_5 1_555 1_555
C11_7 O2_5 1_555 1_555
C16_7 C17_7 1_555 1_555
C17_7 O1_7 1_555 1_555
O3_5 Cu2_2 1_555 1_555
H6_8 C8_7 1_555 1_555
H11_6 C16_8 1_555 1_555
O1_8 Cu2_2 1_555 1_555
N3_3 Cu2_2 1_555 1_555
C16_8 C17_8 1_555 1_555
C17_8 O1_8 1_555 1_555
H7_7 C9_7 1_555 1_555
N3_3 C9_7 1_555 1_555
Br1_7 C14_7 1_555 1_555
C11_8 C12_7 1_555 1_555
C12_7 C13_7 1_555 1_555
C13_7 H9_7 1_555 1_555
C14_7 C13_7 1_555 1_555
C15_7 C14_7 1_555 1_555
H10_5 C15_7 1_555 1_555
C16_9 C15_7 1_555 1_555
H11_7 C16_9 1_555 1_555
C17_9 C12_7 1_555 1_555
O3_6 C11_8 1_555 1_555
Cu2_3 O2_6 1_555 1_555
C11_8 O2_6 1_555 1_555
C16_9 C17_9 1_555 1_555
C17_9 O1_9 1_555 1_555
O3_6 Cu2_3 1_555 1_555
H6_10 C8_8 1_555 1_555
H11_8 C16_10 1_555 1_555
O1_10 Cu2_3 1_555 1_555
N3_4 Cu2_3 1_555 1_555
C16_10 C17_10 1_555 1_555
C17_10 O1_10 1_555 1_555
H7_8 C9_8 1_555 1_555
N3_4 C9_8 1_555 1_555
H7_9 C9_9 1_555 1_555
N2_5 C9_9 1_555 1_555
Cu3_5 N2_5 1_555 1_555
Br1_8 C14_8 1_555 1_555
C11_9 C12_8 1_555 1_555
C12_8 C13_8 1_555 1_555
C13_8 H9_8 1_555 1_555
C14_8 C13_8 1_555 1_555
C15_8 C14_8 1_555 1_555
H10_6 C15_8 1_555 1_555
C16_11 C15_8 1_555 1_555
H11_9 C16_11 1_555 1_555
C17_11 C12_8 1_555 1_555
O3_7 C11_9 1_555 1_555
Cu3_5 O2_7 1_555 1_555
C11_9 O2_7 1_555 1_555
C16_11 C17_11 1_555 1_555
C17_11 O1_11 1_555 1_555
O3_7 Cu3_5 1_555 1_555
H6_12 C8_9 1_555 1_555
H11_10 C16_12 1_555 1_555
O1_12 Cu3_5 1_555 1_555
C16_12 C17_12 1_555 1_555
C17_12 O1_12 1_555 1_555
Cu1_2 N1_7 1_555 1_555
C1_7 H1_7 1_555 1_555
C2_7 C1_7 1_555 1_555
C3_7 C2_7 1_555 1_555
C4_7 H3_7 1_555 1_555
C5_7 C4_7 1_555 1_555
H4_7 C5_7 1_555 1_555
C6_7 C2_7 1_555 1_555
C7_7 C6_7 1_555 1_555
C8_10 C7_7 1_555 1_555
C10_7 C3_7 1_555 1_555
N1_7 C4_7 1_555 1_555
N3_5 Cu1_2 1_555 1_555
O4_3 Cu1_2 1_555 1_555
O5_3 Cu1_2 1_555 1_555
C5_7 C6_7 1_555 1_555
C8_10 N1_7 1_555 1_555
O3_8 C11_10 1_555 1_555
O3_8 Cu2_4 1_555 1_555
Cu2_4 N1_8 1_555 1_555
Br1_9 C14_9 1_555 1_555
C1_8 H1_8 1_555 1_555
C2_8 C1_8 1_555 1_555
C3_8 C2_8 1_555 1_555
H2_10 C3_8 1_555 1_555
C4_8 H3_8 1_555 1_555
C5_8 C4_8 1_555 1_555
H4_8 C5_8 1_555 1_555
C6_8 C2_8 1_555 1_555
C7_8 C6_8 1_555 1_555
H5_10 C7_8 1_555 1_555
C8_11 C7_8 1_555 1_555
H6_13 C8_11 1_555 1_555
C9_10 C1_8 1_555 1_555
H7_10 C9_10 1_555 1_555
C10_8 C3_8 1_555 1_555
H8_10 C10_8 1_555 1_555
C11_11 C12_9 1_555 1_555
C12_9 C13_9 1_555 1_555
C13_9 H9_9 1_555 1_555
C14_9 C13_9 1_555 1_555
C15_9 C14_9 1_555 1_555
C16_13 C15_9 1_555 1_555
C17_13 C12_9 1_555 1_555
N1_8 C4_8 1_555 1_555
N2_6 C9_10 1_555 1_555
O1_13 Cu2_4 1_555 1_555
O4_3 Cu2_4 1_555 1_555
O5_3 C11_11 1_555 1_555
C5_8 C6_8 1_555 1_555
C8_11 N1_8 1_555 1_555
C10_8 N2_6 1_555 1_555
C11_11 O4_3 1_555 1_555
C16_13 C17_13 1_555 1_555
C17_13 O1_13 1_555 1_555
C1_9 H1_9 1_555 1_555
C2_9 C1_9 1_555 1_555
C3_9 C2_9 1_555 1_555
H2_11 C3_9 1_555 1_555
C4_9 H3_9 1_555 1_555
C5_9 C4_9 1_555 1_555
H4_9 C5_9 1_555 1_555
C6_9 C2_9 1_555 1_555
C7_9 C6_9 1_555 1_555
H5_11 C7_9 1_555 1_555
C9_11 C1_9 1_555 1_555
H7_11 C9_11 1_555 1_555
C10_9 C3_9 1_555 1_555
H8_11 C10_9 1_555 1_555
N1_9 C4_9 1_555 1_555
N3_5 C9_11 1_555 1_555
C5_9 C6_9 1_555 1_555
C10_9 N3_5 1_555 1_555
Cu1_3 N1_10 1_555 1_555
Br1_10 C14_10 1_555 1_555
C1_10 H1_10 1_555 1_555
C2_10 C1_10 1_555 1_555
C3_10 C2_10 1_555 1_555
H2_12 C3_10 1_555 1_555
C4_10 H3_10 1_555 1_555
C5_10 C4_10 1_555 1_555
H4_10 C5_10 1_555 1_555
C6_10 C2_10 1_555 1_555
C7_10 C6_10 1_555 1_555
H5_12 C7_10 1_555 1_555
C8_12 C7_10 1_555 1_555
H6_14 C8_12 1_555 1_555
C10_10 C3_10 1_555 1_555
H8_12 C10_10 1_555 1_555
C11_12 C12_10 1_555 1_555
C12_10 C13_10 1_555 1_555
C13_10 H9_10 1_555 1_555
C14_10 C13_10 1_555 1_555
C15_10 C14_10 1_555 1_555
H10_7 C15_10 1_555 1_555
C16_14 C15_10 1_555 1_555
H11_11 C16_14 1_555 1_555
C17_14 C12_10 1_555 1_555
N1_10 C4_10 1_555 1_555
O1_14 Cu1_3 1_555 1_555
O2_9 Cu1_3 1_555 1_555
O3_9 C11_12 1_555 1_555
Cu2_5 O2_9 1_555 1_555
N3_6 Cu1_3 1_555 1_555
O4_4 Cu1_3 1_555 1_555
O5_4 Cu1_3 1_555 1_555
C5_10 C6_10 1_555 1_555
C8_12 N1_10 1_555 1_555
C11_12 O2_9 1_555 1_555
C16_14 C17_14 1_555 1_555
C17_14 O1_14 1_555 1_555
O3_9 Cu2_5 1_555 1_555
C1_11 H1_11 1_555 1_555
C2_11 C1_11 1_555 1_555
C3_11 C2_11 1_555 1_555
H2_13 C3_11 1_555 1_555
C4_11 H3_11 1_555 1_555
C5_11 C4_11 1_555 1_555
H4_11 C5_11 1_555 1_555
C6_11 C2_11 1_555 1_555
C7_11 C6_11 1_555 1_555
H5_13 C7_11 1_555 1_555
C9_12 C1_11 1_555 1_555
H7_12 C9_12 1_555 1_555
C10_11 C3_11 1_555 1_555
H8_13 C10_11 1_555 1_555
N1_11 C4_11 1_555 1_555
N2_7 C9_12 1_555 1_555
O3_10 C11_13 1_555 1_555
Cu2_6 O2_10 1_555 1_555
Cu3_6 N2_7 1_555 1_555
C5_11 C6_11 1_555 1_555
C10_11 N2_7 1_555 1_555
C11_13 O2_10 1_555 1_555
O3_10 Cu2_6 1_555 1_555
Br1_11 C14_11 1_555 1_555
H6_15 C8_13 1_555 1_555
C12_11 C13_11 1_555 1_555
C13_11 H9_11 1_555 1_555
C14_11 C13_11 1_555 1_555
C15_11 C14_11 1_555 1_555
H10_8 C15_11 1_555 1_555
C16_15 C15_11 1_555 1_555
H11_12 C16_15 1_555 1_555
C17_15 C12_11 1_555 1_555
O1_15 Cu2_5 1_555 1_555
N3_7 Cu2_5 1_555 1_555
C16_15 C17_15 1_555 1_555
C17_15 O1_15 1_555 1_555
Cu2_6 N1_12 1_555 1_555
Br1_12 C14_12 1_555 1_555
C1_12 H1_12 1_555 1_555
C2_12 C1_12 1_555 1_555
C3_12 C2_12 1_555 1_555
H2_14 C3_12 1_555 1_555
C4_12 H3_12 1_555 1_555
C5_12 C4_12 1_555 1_555
H4_12 C5_12 1_555 1_555
C6_12 C2_12 1_555 1_555
C7_12 C6_12 1_555 1_555
H5_14 C7_12 1_555 1_555
C8_14 C7_12 1_555 1_555
H6_16 C8_14 1_555 1_555
C9_13 C1_12 1_555 1_555
H7_13 C9_13 1_555 1_555
C10_12 C3_12 1_555 1_555
H8_14 C10_12 1_555 1_555
C11_14 C12_12 1_555 1_555
C12_12 C13_12 1_555 1_555
C13_12 H9_12 1_555 1_555
C14_12 C13_12 1_555 1_555
C15_12 C14_12 1_555 1_555
C16_16 C15_12 1_555 1_555
C17_16 C12_12 1_555 1_555
N1_12 C4_12 1_555 1_555
N2_8 C9_13 1_555 1_555
O1_16 Cu2_6 1_555 1_555
O4_4 Cu2_6 1_555 1_555
O5_4 C11_14 1_555 1_555
N3_8 Cu2_6 1_555 1_555
C5_12 C6_12 1_555 1_555
C8_14 N1_12 1_555 1_555
C10_12 N2_8 1_555 1_555
C11_14 O4_4 1_555 1_555
C16_16 C17_16 1_555 1_555
C17_16 O1_16 1_555 1_555
Cu3_6 N1_13 1_555 1_555
C1_13 H1_13 1_555 1_555
C2_13 C1_13 1_555 1_555
C3_13 C2_13 1_555 1_555
C4_13 H3_13 1_555 1_555
C5_13 C4_13 1_555 1_555
H4_13 C5_13 1_555 1_555
C6_13 C2_13 1_555 1_555
C7_13 C6_13 1_555 1_555
C8_15 C7_13 1_555 1_555
C10_13 C3_13 1_555 1_555
N1_13 C4_13 1_555 1_555
O4_5 Cu3_6 1_555 1_555
O5_5 Cu3_6 1_555 1_555
C5_13 C6_13 1_555 1_555
C8_15 N1_13 1_555 1_555
H7_14 C9_14 1_555 1_555
N3_7 C9_14 1_555 1_555
C1_14 H1_14 1_555 1_555
C2_14 C1_14 1_555 1_555
C3_14 C2_14 1_555 1_555
H2_15 C3_14 1_555 1_555
C4_14 H3_14 1_555 1_555
C5_14 C4_14 1_555 1_555
H4_14 C5_14 1_555 1_555
C6_14 C2_14 1_555 1_555
C7_14 C6_14 1_555 1_555
H5_15 C7_14 1_555 1_555
C9_15 C1_14 1_555 1_555
H7_15 C9_15 1_555 1_555
C10_14 C3_14 1_555 1_555
H8_15 C10_14 1_555 1_555
N1_14 C4_14 1_555 1_555
N3_6 C9_15 1_555 1_555
C5_14 C6_14 1_555 1_555
C10_14 N3_6 1_555 1_555
O3_11 C11_15 1_555 1_555
O3_11 Cu3_7 1_555 1_555
Cu3_7 N1_15 1_555 1_555
Br1_13 C14_13 1_555 1_555
C1_15 H1_15 1_555 1_555
C2_15 C1_15 1_555 1_555
C3_15 C2_15 1_555 1_555
H2_16 C3_15 1_555 1_555
C4_15 H3_15 1_555 1_555
C5_15 C4_15 1_555 1_555
H4_15 C5_15 1_555 1_555
C6_15 C2_15 1_555 1_555
C7_15 C6_15 1_555 1_555
H5_16 C7_15 1_555 1_555
C8_16 C7_15 1_555 1_555
H6_17 C8_16 1_555 1_555
C9_16 C1_15 1_555 1_555
H7_16 C9_16 1_555 1_555
C10_15 C3_15 1_555 1_555
H8_16 C10_15 1_555 1_555
C11_16 C12_13 1_555 1_555
C12_13 C13_13 1_555 1_555
C13_13 H9_13 1_555 1_555
C14_13 C13_13 1_555 1_555
C15_13 C14_13 1_555 1_555
C16_17 C15_13 1_555 1_555
C17_17 C12_13 1_555 1_555
N1_15 C4_15 1_555 1_555
N3_8 C9_16 1_555 1_555
O1_17 Cu3_7 1_555 1_555
O4_5 Cu3_7 1_555 1_555
O5_5 C11_16 1_555 1_555
C5_15 C6_15 1_555 1_555
C8_16 N1_15 1_555 1_555
C10_15 N3_8 1_555 1_555
C11_16 O4_5 1_555 1_555
C16_17 C17_17 1_555 1_555
C17_17 O1_17 1_555 1_555
Br1_14 C14_14 1_555 1_555
C12_14 C13_14 1_555 1_555
C13_14 H9_14 1_555 1_555
C14_14 C13_14 1_555 1_555
C15_14 C14_14 1_555 1_555
H10_9 C15_14 1_555 1_555
Br1_15 C14_15 1_555 1_555
C12_15 C13_15 1_555 1_555
C13_15 H9_15 1_555 1_555
C14_15 C13_15 1_555 1_555
C15_15 C14_15 1_555 1_555
H10_10 C15_15 1_555 1_555
C1_16 H1_16 1_555 1_555
C2_16 C1_16 1_555 1_555
C3_16 C2_16 1_555 1_555
H2_17 C3_16 1_555 1_555
C4_16 H3_16 1_555 1_555
C5_16 C4_16 1_555 1_555
H4_16 C5_16 1_555 1_555
C6_16 C2_16 1_555 1_555
C7_16 C6_16 1_555 1_555
H5_17 C7_16 1_555 1_555
C9_17 C1_16 1_555 1_555
H7_17 C9_17 1_555 1_555
C10_16 C3_16 1_555 1_555
H8_17 C10_16 1_555 1_555
N1_16 C4_16 1_555 1_555
N2_9 C9_17 1_555 1_555
Cu3_8 N2_9 1_555 1_555
C5_16 C6_16 1_555 1_555
C10_16 N2_9 1_555 1_555
Cu3_8 N1_17 1_555 1_555
C1_17 H1_17 1_555 1_555
C2_17 C1_17 1_555 1_555
C3_17 C2_17 1_555 1_555
C4_17 H3_17 1_555 1_555
C5_17 C4_17 1_555 1_555
H4_17 C5_17 1_555 1_555
C6_17 C2_17 1_555 1_555
C7_17 C6_17 1_555 1_555
C8_17 C7_17 1_555 1_555
C10_17 C3_17 1_555 1_555
N1_17 C4_17 1_555 1_555
O4_6 Cu3_8 1_555 1_555
O5_6 Cu3_8 1_555 1_555
C5_17 C6_17 1_555 1_555
C8_17 N1_17 1_555 1_555
O3_12 C11_17 1_555 1_555
O3_12 Cu3_9 1_555 1_555
Cu3_9 N1_18 1_555 1_555
Br1_16 C14_16 1_555 1_555
C1_18 H1_18 1_555 1_555
C2_18 C1_18 1_555 1_555
C3_18 C2_18 1_555 1_555
H2_18 C3_18 1_555 1_555
C4_18 H3_18 1_555 1_555
C5_18 C4_18 1_555 1_555
H4_18 C5_18 1_555 1_555
C6_18 C2_18 1_555 1_555
C7_18 C6_18 1_555 1_555
H5_18 C7_18 1_555 1_555
C8_18 C7_18 1_555 1_555
H6_18 C8_18 1_555 1_555
C9_18 C1_18 1_555 1_555
H7_18 C9_18 1_555 1_555
C10_18 C3_18 1_555 1_555
H8_18 C10_18 1_555 1_555
C11_18 C12_16 1_555 1_555
C12_16 C13_16 1_555 1_555
C13_16 H9_16 1_555 1_555
C14_16 C13_16 1_555 1_555
C15_16 C14_16 1_555 1_555
C16_18 C15_16 1_555 1_555
C17_18 C12_16 1_555 1_555
N1_18 C4_18 1_555 1_555
N3_9 C9_18 1_555 1_555
O1_18 Cu3_9 1_555 1_555
O4_6 Cu3_9 1_555 1_555
O5_6 C11_18 1_555 1_555
C5_18 C6_18 1_555 1_555
C8_18 N1_18 1_555 1_555
C10_18 N3_9 1_555 1_555
C11_18 O4_6 1_555 1_555
C16_18 C17_18 1_555 1_555
C17_18 O1_18 1_555 1_555
Br1_17 C14_17 1_555 1_555
C12_17 C13_17 1_555 1_555
C13_17 H9_17 1_555 1_555
C14_17 C13_17 1_555 1_555
C15_17 C14_17 1_555 1_555
H10_14 C15_17 1_555 1_555
Br1_18 C14_18 1_555 1_555
C12_18 C13_18 1_555 1_555
C13_18 H9_18 1_555 1_555
C14_18 C13_18 1_555 1_555
C15_18 C14_18 1_555 1_555
H10_15 C15_18 1_555 1_555

#END
