
###############################################################################
#
# This file contains modified crystal structure data generated from the
# MOF subset of the Cambridge Structural Database (CSD) v543 
# hosted by the Cambridge Crystallographic Data Centre (CCDC).
#
# This work is licensed under the Creative Commons
# Attribution-NonCommercial-ShareAlike 4.0 International License.
# To view a copy of this license, visit
# http://creativecommons.org/licenses/by-nc-sa/4.0/
# or send a letter to
# Creative Commons, PO Box 1866, Mountain View, CA 94042, USA.
#
# CIF created using the CSD Python API on 29 September 2022
# The structure has been converted into the P1 space group
# The structure has a 3D framework
# The original CSD entry GENMEU is in the rhombohedral crystal system
# The framework has been calculated to contain at least 10.0% void space
# The void calculation uses a probe of radius 1.32A, grid spacing 0.4
#
###############################################################################

data_GENMEU
_chemical_formula_moiety         '(C72 H18 Co14 O50)n'
_symmetry_cell_setting           triclinic
_symmetry_space_group_name_H-M   'P 1'
_symmetry_Int_Tables_number      1
_space_group_name_Hall           'P 1'
loop_
_symmetry_equiv_pos_site_id
_symmetry_equiv_pos_as_xyz
1 x,y,z
_cell_length_a                   25.751(4)
_cell_length_b                   25.751(4)
_cell_length_c                   6.8192(11)
_cell_angle_alpha                90
_cell_angle_beta                 90
_cell_angle_gamma                120
_cell_volume                     3916.09
loop_
_atom_site_label
_atom_site_type_symbol
_atom_site_fract_x
_atom_site_fract_y
_atom_site_fract_z
O2 O 0.6143(3) 0.5617(3) 0.2531(8)
O3 O 0.6453(3) 0.6293(2) 0.0154(7)
C2 C 0.6098(4) 0.5774(4) 0.0842(11)
C5 C 0.5178(3) 0.4822(3) 0.0494(18)
H2 H 0.524352 0.475647 0.182019
O5 O 0.4383(3) 0.3857(3) 0.2531(8)
O6 O 0.3707(2) 0.3547(3) 0.0154(7)
C7 C 0.4226(4) 0.3902(4) 0.0842(11)
Co3 Co 0.65812(5) 0.61731(5) 0.4739(2)
Co4 Co 0.38269(5) 0.34188(5) 0.4739(2)
Co7 Co 0.71602(5) 0.70748(7) 0.1406(2)
Co8 Co 0.29252(7) 0.28398(5) 0.1406(2)
O1 O 0.5882(2) 0.5947(3) 0.6621(9)
C1 C 0.5513(4) 0.5441(4) 0.7562(12)
C3 C 0.5004(3) 0.4996(3) 0.660(2)
H1 H 0.495961 0.504038 0.523307
C4 C 0.5605(4) 0.5340(4) 0.9559(12)
O4 O 0.4053(3) 0.4118(2) 0.6621(9)
C6 C 0.4559(4) 0.4487(4) 0.7562(12)
C8 C 0.4660(4) 0.4395(4) 0.9559(12)
Co5 Co 0.62586(7) 0.67521(5) 0.8072(2)
Co6 Co 0.32479(5) 0.37414(7) 0.8072(2)
O7 O 0.7386(3) 0.6602(4) 0.3288(9)
O8 O 0.3398(4) 0.2614(3) 0.3288(9)
O11 O 0.6507(4) 0.6880(3) 0.3487(7)
O12 O 0.3120(3) 0.3493(4) 0.3487(7)
O13 O 0.7040(2) 0.6827(4) 0.6821(7)
O14 O 0.3173(4) 0.2960(2) 0.6821(7)
O2_2 O 0.4383(3) 0.0526(4) 0.2531(8)
O3_2 O 0.3707(2) 0.0160(4) 0.0154(7)
C2_2 C 0.4226(4) 0.0324(6) 0.0842(11)
C5_2 C 0.5178(3) 0.0356(4) 0.0494(18)
H2_2 H 0.524353 0.048705 0.182019
O5_2 O 0.6143(3) 0.0526(4) 0.2531(8)
O6_2 O 0.6453(3) 0.0160(4) 0.0154(7)
C7_2 C 0.6098(4) 0.0324(6) 0.0842(11)
Co3_2 Co 0.38269(5) 0.04081(7) 0.4739(2)
Co4_2 Co 0.65812(5) 0.04081(7) 0.4739(2)
Co7_2 Co 0.29252(7) 0.00855(9) 0.1406(2)
Co8_2 Co 0.71602(5) 0.00855(9) 0.1406(2)
C1_2 C 0.4559(4) 0.0072(6) 0.7562(12)
C3_2 C 0.5004(3) 0.0008(4) 0.660(2)
C4_2 C 0.4660(4) 0.0265(6) 0.9559(12)
C6_2 C 0.5513(4) 0.0072(6) 0.7562(12)
C8_2 C 0.5605(4) 0.0265(6) 0.9559(12)
O7_2 O 0.3398(4) 0.0785(5) 0.3288(9)
O8_2 O 0.7386(3) 0.0785(5) 0.3288(9)
O13_2 O 0.3173(4) 0.0214(4) 0.6821(7)
O14_2 O 0.7040(2) 0.0214(4) 0.6821(7)
O1_2 O 0.4053(3) 0.9935(4) 0.6621(9)
H1_2 H 0.495962 0.991923 0.523307
O4_2 O 0.5882(2) 0.9935(4) 0.6621(9)
Co5_2 Co 0.32479(5) 0.95064(9) 0.8072(2)
Co6_2 Co 0.62586(7) 0.95064(9) 0.8072(2)
O11_2 O 0.3120(3) 0.9626(5) 0.3487(7)
O12_2 O 0.6507(4) 0.9626(5) 0.3487(7)
O1_3 O 0.0065(4) 0.4118(2) 0.6621(9)
H1_3 H 0.008077 0.504039 0.523307
O4_3 O 0.0065(4) 0.5947(3) 0.6621(9)
Co5_3 Co 0.04936(9) 0.37414(7) 0.8072(2)
Co6_3 Co 0.04936(9) 0.67521(5) 0.8072(2)
O11_3 O 0.0374(5) 0.3493(4) 0.3487(7)
O12_3 O 0.0374(5) 0.6880(3) 0.3487(7)
O2_3 O 0.9474(4) 0.3857(3) 0.2531(8)
O3_3 O 0.9840(4) 0.3547(3) 0.0154(7)
C2_3 C 0.9676(6) 0.3902(4) 0.0842(11)
C5_3 C 0.9644(4) 0.4822(3) 0.0494(18)
H2_3 H 0.951295 0.475648 0.182019
O5_3 O 0.9474(4) 0.5617(3) 0.2531(8)
O6_3 O 0.9840(4) 0.6293(2) 0.0154(7)
C7_3 C 0.9676(6) 0.5774(4) 0.0842(11)
Co3_3 Co 0.95919(7) 0.34188(5) 0.4739(2)
Co4_3 Co 0.95919(7) 0.61731(5) 0.4739(2)
Co7_3 Co 0.99145(9) 0.28398(5) 0.1406(2)
Co8_3 Co 0.99145(9) 0.70748(7) 0.1406(2)
C1_3 C 0.9928(6) 0.4487(4) 0.7562(12)
C3_3 C 0.9992(4) 0.4996(3) 0.660(2)
C4_3 C 0.9735(6) 0.4395(4) 0.9559(12)
C6_3 C 0.9928(6) 0.5441(4) 0.7562(12)
C8_3 C 0.9735(6) 0.5340(4) 0.9559(12)
O7_3 O 0.9215(5) 0.2614(3) 0.3288(9)
O8_3 O 0.9215(5) 0.6602(4) 0.3288(9)
O13_3 O 0.9786(4) 0.2960(2) 0.6821(7)
O14_3 O 0.9786(4) 0.6827(4) 0.6821(7)
O2_4 O 0.2810(3) 0.8950(3) 0.5864(8)
C1_4 C 0.2180(4) 0.8774(4) 0.0895(12)
C2_4 C 0.2765(4) 0.9107(4) 0.4175(11)
C4_4 C 0.2272(4) 0.8673(4) 0.2892(12)
C5_4 C 0.1845(3) 0.8155(3) 0.3827(18)
H2_4 H 0.191019 0.808980 0.515352
O5_4 O 0.1050(3) 0.7190(3) 0.5864(8)
C6_4 C 0.1226(4) 0.7820(4) 0.0895(12)
C7_4 C 0.0893(4) 0.7235(4) 0.4175(11)
C8_4 C 0.1327(4) 0.7728(4) 0.2892(12)
O1_4 O 0.2549(2) 0.9280(3) 0.9954(9)
C3_4 C 0.1671(3) 0.8329(3) 0.993(2)
H1_4 H 0.162628 0.837371 0.856640
O4_4 O 0.0720(3) 0.7451(2) 0.9954(9)
O2_5 O 0.1050(3) 0.3859(4) 0.5864(8)
C1_5 C 0.1226(4) 0.3405(6) 0.0895(12)
C2_5 C 0.0893(4) 0.3657(6) 0.4175(11)
C4_5 C 0.1327(4) 0.3598(6) 0.2892(12)
C5_5 C 0.1845(3) 0.3689(4) 0.3827(18)
H2_5 H 0.191020 0.382038 0.515352
O5_5 O 0.2810(3) 0.3859(4) 0.5864(8)
C6_5 C 0.2180(4) 0.3405(6) 0.0895(12)
C7_5 C 0.2765(4) 0.3657(6) 0.4175(11)
C8_5 C 0.2272(4) 0.3598(6) 0.2892(12)
O1_5 O 0.0720(3) 0.3268(4) 0.9954(9)
C3_5 C 0.1671(3) 0.3341(4) 0.993(2)
H1_5 H 0.162629 0.325256 0.856640
O4_5 O 0.2549(2) 0.3268(4) 0.9954(9)
O2_6 O 0.6141(4) 0.7190(3) 0.5864(8)
C1_6 C 0.6595(6) 0.7820(4) 0.0895(12)
C2_6 C 0.6343(6) 0.7235(4) 0.4175(11)
C4_6 C 0.6402(6) 0.7728(4) 0.2892(12)
C5_6 C 0.6311(4) 0.8155(3) 0.3827(18)
H2_6 H 0.617962 0.808981 0.515352
O5_6 O 0.6141(4) 0.8950(3) 0.5864(8)
C6_6 C 0.6595(6) 0.8774(4) 0.0895(12)
C7_6 C 0.6343(6) 0.9107(4) 0.4175(11)
C8_6 C 0.6402(6) 0.8673(4) 0.2892(12)
O1_6 O 0.6732(4) 0.7451(2) 0.9954(9)
C3_6 C 0.6659(4) 0.8329(3) 0.993(2)
H1_6 H 0.674744 0.837372 0.856640
O4_6 O 0.6732(4) 0.9280(3) 0.9954(9)
O2_7 O 0.9476(3) 0.2284(3) 0.9198(8)
C1_7 C 0.8846(4) 0.2108(4) 0.4229(12)
C2_7 C 0.9431(4) 0.2441(4) 0.7509(11)
C3_7 C 0.8337(3) 0.1663(3) 0.327(2)
H1_7 H 0.829294 0.170705 0.189974
C4_7 C 0.8938(4) 0.2007(4) 0.6226(12)
C5_7 C 0.8511(3) 0.1489(3) 0.7161(18)
H2_7 H 0.857685 0.142314 0.848686
O5_7 O 0.7716(3) 0.0524(3) 0.9198(8)
C6_7 C 0.7892(4) 0.1154(4) 0.4229(12)
C7_7 C 0.7559(4) 0.0569(4) 0.7509(11)
C8_7 C 0.7993(4) 0.1062(4) 0.6226(12)
O2_8 O 0.7716(3) 0.7193(4) 0.9198(8)
C1_8 C 0.7892(4) 0.6739(6) 0.4229(12)
C2_8 C 0.7559(4) 0.6991(6) 0.7509(11)
C3_8 C 0.8337(3) 0.6675(4) 0.327(2)
H1_8 H 0.829295 0.658590 0.189974
C4_8 C 0.7993(4) 0.6932(6) 0.6226(12)
C5_8 C 0.8511(3) 0.7023(4) 0.7161(18)
H2_8 H 0.857686 0.715372 0.848686
O5_8 O 0.9476(3) 0.7193(4) 0.9198(8)
C6_8 C 0.8846(4) 0.6739(6) 0.4229(12)
C7_8 C 0.9431(4) 0.6991(6) 0.7509(11)
C8_8 C 0.8938(4) 0.6932(6) 0.6226(12)
O2_9 O 0.2807(4) 0.0524(3) 0.9198(8)
C1_9 C 0.3261(6) 0.1154(4) 0.4229(12)
C2_9 C 0.3009(6) 0.0569(4) 0.7509(11)
C3_9 C 0.3325(4) 0.1663(3) 0.327(2)
H1_9 H 0.341410 0.170706 0.189974
C4_9 C 0.3068(6) 0.1062(4) 0.6226(12)
C5_9 C 0.2977(4) 0.1489(3) 0.7161(18)
H2_9 H 0.284628 0.142315 0.848686
O5_9 O 0.2807(4) 0.2284(3) 0.9198(8)
C6_9 C 0.3261(6) 0.2108(4) 0.4229(12)
C7_9 C 0.3009(6) 0.2441(4) 0.7509(11)
C8_9 C 0.3068(6) 0.2007(4) 0.6226(12)
loop_
_geom_bond_atom_site_label_1
_geom_bond_atom_site_label_2
_geom_bond_site_symmetry_1
_geom_bond_site_symmetry_2
O2 C2 1_555 1_555
O3 C2 1_555 1_555
H2 C5 1_555 1_555
O5 C7 1_555 1_555
O6 C7 1_555 1_555
Co3 O2 1_555 1_555
Co4 O5 1_555 1_555
Co7 O3 1_555 1_555
Co8 O6 1_555 1_555
Co3 O1 1_555 1_555
O1 C1 1_555 1_555
C1 C3 1_555 1_555
C3 H1 1_555 1_555
C4 C1 1_555 1_555
O4 C6 1_555 1_555
C6 C3 1_555 1_555
Co4 O4 1_555 1_555
Co5 O1 1_555 1_555
Co6 O4 1_555 1_555
O7 Co3 1_555 1_555
O8 Co4 1_555 1_555
O11 Co3 1_555 1_555
O12 Co4 1_555 1_555
O13 Co3 1_555 1_555
O14 Co4 1_555 1_555
C6 C8 1_555 1_555
Co5 O13 1_555 1_555
Co6 O14 1_555 1_555
O2_2 C2_2 1_555 1_555
O3_2 C2_2 1_555 1_555
H2_2 C5_2 1_555 1_555
O5_2 C7_2 1_555 1_555
O6_2 C7_2 1_555 1_555
Co3_2 O2_2 1_555 1_555
Co4_2 O5_2 1_555 1_555
Co7_2 O3_2 1_555 1_555
Co8_2 O6_2 1_555 1_555
C1_2 C3_2 1_555 1_555
C4_2 C1_2 1_555 1_555
C6_2 C3_2 1_555 1_555
O7_2 Co3_2 1_555 1_555
O8_2 Co4_2 1_555 1_555
O13_2 Co3_2 1_555 1_555
O14_2 Co4_2 1_555 1_555
C6_2 C8_2 1_555 1_555
Co5_2 O1_2 1_555 1_555
Co6_2 O4_2 1_555 1_555
Co5_3 O1_3 1_555 1_555
Co6_3 O4_3 1_555 1_555
O2_3 C2_3 1_555 1_555
O3_3 C2_3 1_555 1_555
H2_3 C5_3 1_555 1_555
O5_3 C7_3 1_555 1_555
O6_3 C7_3 1_555 1_555
Co3_3 O2_3 1_555 1_555
Co4_3 O5_3 1_555 1_555
Co7_3 O3_3 1_555 1_555
Co8_3 O6_3 1_555 1_555
C1_3 C3_3 1_555 1_555
C4_3 C1_3 1_555 1_555
C6_3 C3_3 1_555 1_555
O7_3 Co3_3 1_555 1_555
O8_3 Co4_3 1_555 1_555
O13_3 Co3_3 1_555 1_555
O14_3 Co4_3 1_555 1_555
C6_3 C8_3 1_555 1_555
O2_4 C2_4 1_555 1_555
O11_2 C2_4 1_555 1_555
C2_4 C4_4 1_555 1_555
C4_4 C1_4 1_555 1_555
C5_4 C4_4 1_555 1_555
H2_4 C5_4 1_555 1_555
O5_4 C7_4 1_555 1_555
O12_3 C7_4 1_555 1_555
C7_4 C8_4 1_555 1_555
C8_4 C5_4 1_555 1_555
Co5_2 O2_4 1_555 1_555
Co6_3 O5_4 1_555 1_555
C6_4 C8_4 1_555 1_555
Co5_2 O1_4 1_555 1_555
C3_4 H1_4 1_555 1_555
Co6_3 O4_4 1_555 1_555
O2_5 C2_5 1_555 1_555
O11_3 C2_5 1_555 1_555
C2_5 C4_5 1_555 1_555
C4_5 C1_5 1_555 1_555
C5_5 C4_5 1_555 1_555
H2_5 C5_5 1_555 1_555
O5_5 C7_5 1_555 1_555
O12 C7_5 1_555 1_555
C7_5 C8_5 1_555 1_555
C8_5 C5_5 1_555 1_555
Co5_3 O2_5 1_555 1_555
Co6 O5_5 1_555 1_555
O12 Co8 1_555 1_555
C6_5 C8_5 1_555 1_555
Co5_3 O1_5 1_555 1_555
C3_5 H1_5 1_555 1_555
Co6 O4_5 1_555 1_555
O2_6 C2_6 1_555 1_555
O11 C2_6 1_555 1_555
C2_6 C4_6 1_555 1_555
C4_6 C1_6 1_555 1_555
C5_6 C4_6 1_555 1_555
H2_6 C5_6 1_555 1_555
O5_6 C7_6 1_555 1_555
O12_2 C7_6 1_555 1_555
C7_6 C8_6 1_555 1_555
C8_6 C5_6 1_555 1_555
Co5 O2_6 1_555 1_555
Co6_2 O5_6 1_555 1_555
O11 Co7 1_555 1_555
C6_6 C8_6 1_555 1_555
Co5 O1_6 1_555 1_555
C3_6 H1_6 1_555 1_555
Co6_2 O4_6 1_555 1_555
Co7_3 O7_3 1_555 1_555
O7_3 C1_7 1_555 1_555
O2_7 C2_7 1_555 1_555
O13_3 C2_7 1_555 1_555
C1_7 C3_7 1_555 1_555
C2_7 C4_7 1_555 1_555
C3_7 H1_7 1_555 1_555
C4_7 C1_7 1_555 1_555
C5_7 C4_7 1_555 1_555
H2_7 C5_7 1_555 1_555
O8_2 C6_7 1_555 1_555
O5_7 C7_7 1_555 1_555
O14_2 C7_7 1_555 1_555
C6_7 C3_7 1_555 1_555
C7_7 C8_7 1_555 1_555
C8_7 C5_7 1_555 1_555
Co8_2 O8_2 1_555 1_555
C6_7 C8_7 1_555 1_555
Co7 O7 1_555 1_555
O7 C1_8 1_555 1_555
O2_8 C2_8 1_555 1_555
O13 C2_8 1_555 1_555
C1_8 C3_8 1_555 1_555
C2_8 C4_8 1_555 1_555
C3_8 H1_8 1_555 1_555
C4_8 C1_8 1_555 1_555
C5_8 C4_8 1_555 1_555
H2_8 C5_8 1_555 1_555
O8_3 C6_8 1_555 1_555
O5_8 C7_8 1_555 1_555
O14_3 C7_8 1_555 1_555
C6_8 C3_8 1_555 1_555
C7_8 C8_8 1_555 1_555
C8_8 C5_8 1_555 1_555
Co8_3 O8_3 1_555 1_555
C6_8 C8_8 1_555 1_555
Co7_2 O7_2 1_555 1_555
O7_2 C1_9 1_555 1_555
O2_9 C2_9 1_555 1_555
O13_2 C2_9 1_555 1_555
C1_9 C3_9 1_555 1_555
C2_9 C4_9 1_555 1_555
C3_9 H1_9 1_555 1_555
C4_9 C1_9 1_555 1_555
C5_9 C4_9 1_555 1_555
H2_9 C5_9 1_555 1_555
O8 C6_9 1_555 1_555
O5_9 C7_9 1_555 1_555
O14 C7_9 1_555 1_555
C6_9 C3_9 1_555 1_555
C7_9 C8_9 1_555 1_555
C8_9 C5_9 1_555 1_555
Co8 O8 1_555 1_555
C6_9 C8_9 1_555 1_555

#END
