
###############################################################################
#
# This file contains modified crystal structure data generated from the
# MOF subset of the Cambridge Structural Database (CSD) v543 
# hosted by the Cambridge Crystallographic Data Centre (CCDC).
#
# This work is licensed under the Creative Commons
# Attribution-NonCommercial-ShareAlike 4.0 International License.
# To view a copy of this license, visit
# http://creativecommons.org/licenses/by-nc-sa/4.0/
# or send a letter to
# Creative Commons, PO Box 1866, Mountain View, CA 94042, USA.
#
# CIF created using the CSD Python API on 29 September 2022
# The structure has been converted into the P1 space group
# The structure has a 3D framework
# The original CSD entry GERBEN is in the orthorhombic crystal system
# The framework has been calculated to contain at least 10.0% void space
# The void calculation uses a probe of radius 1.32A, grid spacing 0.4
# H atom positions have been added when not included in the experimental data
# Generated hydrogen atom positions removed from atoms on special positions
#
###############################################################################

data_GERBEN
_chemical_formula_moiety         '(C320 H432 O160 Zr42)n'
_symmetry_cell_setting           triclinic
_symmetry_space_group_name_H-M   'P 1'
_symmetry_Int_Tables_number      1
_space_group_name_Hall           'P 1'
loop_
_symmetry_equiv_pos_site_id
_symmetry_equiv_pos_as_xyz
1 x,y,z
_cell_length_a                   19.097(3)
_cell_length_b                   32.141(4)
_cell_length_c                   35.122(5)
_cell_angle_alpha                90
_cell_angle_beta                 90
_cell_angle_gamma                90
_cell_volume                     21557.8
loop_
_atom_site_label
_atom_site_type_symbol
_atom_site_fract_x
_atom_site_fract_y
_atom_site_fract_z
Zr1 Zr -0.0000 -0.0000 0.06968(2)
Zr2 Zr 0.09209(6) 0.05512(2) 0.0000
O1 O 0.0691(3) 0.04081(13) 0.10146(10)
O2 O 0.1269(3) 0.07819(15) 0.05832(11)
O3 O 0.0943(4) -0.0000 0.03420(18)
O4 O -0.0000 0.0561(2) 0.0345(2)
O5 O 0.2015(7) 0.0521(2) 0.0000
O6 O 0.0792(4) 0.12324(19) 0.0000
C1 C 0.1072(5) 0.0684(2) 0.09256(17)
C2 C 0.1429(5) 0.0938(2) 0.12340(15)
C3 C 0.1839(5) 0.12662(19) 0.11761(15)
H1 H 0.1924 0.1351 0.0921
C4 C 0.2164(4) 0.1501(2) 0.14780(14)
H2 H 0.2472 0.1727 0.1428
C5 C 0.1996(5) 0.1377(2) 0.18530(14)
C6 C 0.1597(4) 0.1037(2) 0.19046(15)
H3 H 0.1510 0.0948 0.2158
C7 C 0.1307(4) 0.0810(2) 0.16079(16)
H4 H 0.1030 0.0571 0.1659
C8 C 0.2268(5) 0.16199(19) 0.21804(15)
C9 C 0.2500 0.1403(3) 0.2500
H5 H 0.2500 0.1107 0.2500
C10 C 0.2257(5) 0.20462(19) 0.21817(15)
H6 H 0.2083 0.2191 0.1966
C11 C 0.2500 0.2273(3) 0.2500
O7 O 0.0691(3) 0.45919(13) 0.39854(10)
O8 O 0.1269(3) 0.42181(15) 0.44168(11)
C12 C 0.1072(5) 0.4316(2) 0.40744(17)
C13 C 0.1429(5) 0.4062(2) 0.37660(15)
C14 C 0.1839(5) 0.37338(19) 0.38239(15)
H7 H 0.1924 0.3649 0.4079
C15 C 0.2164(4) 0.3499(2) 0.35220(14)
H8 H 0.2472 0.3273 0.3572
C16 C 0.1996(5) 0.3623(2) 0.31470(14)
C17 C 0.1597(4) 0.3963(2) 0.30954(15)
H9 H 0.1510 0.4052 0.2842
C18 C 0.1307(4) 0.4190(2) 0.33921(16)
H10 H 0.1030 0.4429 0.3341
C19 C 0.2268(5) 0.33801(19) 0.28196(15)
C20 C 0.2500 0.3597(3) 0.2500
H11 H 0.2500 0.3893 0.2500
C21 C 0.2257(5) 0.29538(19) 0.28183(15)
H12 H 0.2083 0.2809 0.3034
C22 C 0.2500 0.2727(3) 0.2500
O9 O 0.4309(3) 0.04081(13) 0.39854(10)
O10 O 0.3731(3) 0.07819(15) 0.44168(11)
C23 C 0.3928(5) 0.0684(2) 0.40744(17)
C24 C 0.3571(5) 0.0938(2) 0.37660(15)
C25 C 0.3161(5) 0.12662(19) 0.38239(15)
H13 H 0.3076 0.1351 0.4079
C26 C 0.2836(4) 0.1501(2) 0.35220(14)
H14 H 0.2528 0.1727 0.3572
C27 C 0.3004(5) 0.1377(2) 0.31470(14)
C28 C 0.3403(4) 0.1037(2) 0.30954(15)
H15 H 0.3490 0.0948 0.2842
C29 C 0.3693(4) 0.0810(2) 0.33921(16)
H16 H 0.3970 0.0571 0.3341
C30 C 0.2732(5) 0.16199(19) 0.28196(15)
C31 C 0.2743(5) 0.20462(19) 0.28183(15)
H17 H 0.2917 0.2191 0.3034
O11 O 0.4309(3) 0.45919(13) 0.10146(10)
O12 O 0.3731(3) 0.42181(15) 0.05832(11)
C32 C 0.3928(5) 0.4316(2) 0.09256(17)
C33 C 0.3571(5) 0.4062(2) 0.12340(15)
C34 C 0.3161(5) 0.37338(19) 0.11761(15)
H18 H 0.3076 0.3649 0.0921
C35 C 0.2836(4) 0.3499(2) 0.14780(14)
H19 H 0.2528 0.3273 0.1428
C36 C 0.3004(5) 0.3623(2) 0.18530(14)
C37 C 0.3403(4) 0.3963(2) 0.19046(15)
H20 H 0.3490 0.4052 0.2158
C38 C 0.3693(4) 0.4190(2) 0.16079(16)
H21 H 0.3970 0.4429 0.1659
C39 C 0.2732(5) 0.33801(19) 0.21804(15)
C40 C 0.2743(5) 0.29538(19) 0.21817(15)
H22 H 0.2917 0.2809 0.1966
Zr4 Zr -0.0000 0.5000 0.43032(2)
Zr5 Zr 0.5000 -0.0000 0.43032(2)
Zr6 Zr 0.5000 0.5000 0.06968(2)
Zr9 Zr 0.09209(6) 0.44488(2) 0.5000
Zr10 Zr 0.40791(6) 0.05512(2) 0.5000
Zr11 Zr 0.40791(6) 0.44488(2) 0.0000
Zr2_2 Zr 0.09209(6) 0.05512(2) 1.0000
O5_2 O 0.2015(7) 0.0521(2) 1.0000
O6_2 O 0.0792(4) 0.12324(19) 1.0000
Zr11_2 Zr 0.40791(6) 0.44488(2) 1.0000
O22 O 0.1269(3) 0.07819(15) 0.94168(11)
O23 O 0.0943(4) -0.0000 0.96580(18)
O26 O 0.0000 0.0561(2) 0.9655(2)
Zr1_2 Zr -0.0000 1.0000 0.06968(2)
O3_2 O 0.0943(4) 1.0000 0.03420(18)
O14 O 0.0000 0.9439(2) 0.0345(2)
Zr5_2 Zr 0.5000 1.0000 0.43032(2)
Zr7 Zr 0.09209(6) 0.94488(2) 0.0000
O19 O 0.0691(3) 0.95919(13) 0.10146(10)
Zr7_2 Zr 0.09209(6) 0.94488(2) 1.0000
O23_2 O 0.0943(4) 1.0000 0.96580(18)
O25 O -0.0000 0.9439(2) 0.9655(2)
Zr1_3 Zr 1.0000 -0.0000 0.06968(2)
O4_2 O 1.0000 0.0561(2) 0.0345(2)
O13 O 0.9057(4) -0.0000 0.03420(18)
Zr4_2 Zr 1.0000 0.5000 0.43032(2)
Zr8 Zr 0.90791(6) 0.05512(2) 0.0000
O18 O 0.9309(3) 0.04081(13) 0.10146(10)
Zr8_2 Zr 0.90791(6) 0.05512(2) 1.0000
O24 O 0.9057(4) -0.0000 0.96580(18)
O26_2 O 1.0000 0.0561(2) 0.9655(2)
Zr1_4 Zr 1.0000 1.0000 0.06968(2)
Zr3 Zr 0.90791(6) 0.94488(2) 0.0000
O13_2 O 0.9057(4) 1.0000 0.03420(18)
O14_2 O 1.0000 0.9439(2) 0.0345(2)
O15 O 0.7985(7) 0.9479(2) 0.0000
O16 O 0.9208(4) 0.87676(19) 0.0000
O17 O 0.9309(3) 0.95919(13) 0.10146(10)
O20 O 0.8731(3) 0.92181(15) 0.05832(11)
Zr3_2 Zr 0.90791(6) 0.94488(2) 1.0000
O15_2 O 0.7985(7) 0.9479(2) 1.0000
O16_2 O 0.9208(4) 0.87676(19) 1.0000
O21 O 0.8731(3) 0.92181(15) 0.94168(11)
O24_2 O 0.9057(4) 1.0000 0.96580(18)
O25_2 O 1.0000 0.9439(2) 0.9655(2)
C1_2 C 0.8928(5) 0.9316(2) 0.09256(17)
C2_2 C 0.8571(5) 0.9062(2) 0.12340(15)
C3_2 C 0.8161(5) 0.87338(19) 0.11761(15)
H1_2 H 0.8076 0.8649 0.0921
C4_2 C 0.7836(4) 0.8499(2) 0.14780(14)
H2_2 H 0.7528 0.8273 0.1428
C5_2 C 0.8004(5) 0.8623(2) 0.18530(14)
C6_2 C 0.8403(4) 0.8963(2) 0.19046(15)
H3_2 H 0.8490 0.9052 0.2158
C7_2 C 0.8693(4) 0.9190(2) 0.16079(16)
H4_2 H 0.8970 0.9429 0.1659
C8_2 C 0.7732(5) 0.83801(19) 0.21804(15)
C9_2 C 0.7500 0.8597(3) 0.2500
H5_2 H 0.7500 0.8893 0.2500
C10_2 C 0.7743(5) 0.79538(19) 0.21817(15)
H6_2 H 0.7917 0.7809 0.1966
C11_2 C 0.7500 0.7727(3) 0.2500
O7_2 O 0.9309(3) 0.54081(13) 0.39854(10)
O8_2 O 0.8731(3) 0.57819(15) 0.44168(11)
C12_2 C 0.8928(5) 0.5684(2) 0.40744(17)
C13_2 C 0.8571(5) 0.5938(2) 0.37660(15)
C14_2 C 0.8161(5) 0.62662(19) 0.38239(15)
H7_2 H 0.8076 0.6351 0.4079
C15_2 C 0.7836(4) 0.6501(2) 0.35220(14)
H8_2 H 0.7528 0.6727 0.3572
C16_2 C 0.8004(5) 0.6377(2) 0.31470(14)
C17_2 C 0.8403(4) 0.6037(2) 0.30954(15)
H9_2 H 0.8490 0.5948 0.2842
C18_2 C 0.8693(4) 0.5810(2) 0.33921(16)
H10_2 H 0.8970 0.5571 0.3341
C19_2 C 0.7732(5) 0.66199(19) 0.28196(15)
C20_2 C 0.7500 0.6403(3) 0.2500
H11_2 H 0.7500 0.6107 0.2500
C21_2 C 0.7743(5) 0.70462(19) 0.28183(15)
H12_2 H 0.7917 0.7191 0.3034
C22_2 C 0.7500 0.7273(3) 0.2500
O9_2 O 0.5691(3) 0.95919(13) 0.39854(10)
O10_2 O 0.6269(3) 0.92181(15) 0.44168(11)
C23_2 C 0.6072(5) 0.9316(2) 0.40744(17)
C24_2 C 0.6429(5) 0.9062(2) 0.37660(15)
C25_2 C 0.6839(5) 0.87338(19) 0.38239(15)
H13_2 H 0.6924 0.8649 0.4079
C26_2 C 0.7164(4) 0.8499(2) 0.35220(14)
H14_2 H 0.7472 0.8273 0.3572
C27_2 C 0.6996(5) 0.8623(2) 0.31470(14)
C28_2 C 0.6597(4) 0.8963(2) 0.30954(15)
H15_2 H 0.6510 0.9052 0.2842
C29_2 C 0.6307(4) 0.9190(2) 0.33921(16)
H16_2 H 0.6030 0.9429 0.3341
C30_2 C 0.7268(5) 0.83801(19) 0.28196(15)
C31_2 C 0.7257(5) 0.79538(19) 0.28183(15)
H17_2 H 0.7083 0.7809 0.3034
O11_2 O 0.5691(3) 0.54081(13) 0.10146(10)
O12_2 O 0.6269(3) 0.57819(15) 0.05832(11)
C32_2 C 0.6072(5) 0.5684(2) 0.09256(17)
C33_2 C 0.6429(5) 0.5938(2) 0.12340(15)
C34_2 C 0.6839(5) 0.62662(19) 0.11761(15)
H18_2 H 0.6924 0.6351 0.0921
C35_2 C 0.7164(4) 0.6501(2) 0.14780(14)
H19_2 H 0.7472 0.6727 0.1428
C36_2 C 0.6996(5) 0.6377(2) 0.18530(14)
C37_2 C 0.6597(4) 0.6037(2) 0.19046(15)
H20_2 H 0.6510 0.5948 0.2158
C38_2 C 0.6307(4) 0.5810(2) 0.16079(16)
H21_2 H 0.6030 0.5571 0.1659
C39_2 C 0.7268(5) 0.66199(19) 0.21804(15)
C40_2 C 0.7257(5) 0.70462(19) 0.21817(15)
H22_2 H 0.7083 0.7191 0.1966
Zr9_2 Zr 0.90791(6) 0.55512(2) 0.5000
Zr10_2 Zr 0.59209(6) 0.94488(2) 0.5000
Zr11_3 Zr 0.59209(6) 0.55512(2) 0.0000
Zr11_4 Zr 0.59209(6) 0.55512(2) 1.0000
Zr1_5 Zr -0.0000 -0.0000 0.93032(2)
Zr5_3 Zr 0.5000 0.0000 0.56968(2)
O19_2 O 0.0691(3) 0.04081(13) 0.89854(10)
O5_3 O 0.2015(7) 0.9479(2) 0.0000
O6_3 O 0.0792(4) 0.87676(19) 0.0000
Zr11_5 Zr 0.40791(6) 0.55512(2) 0.0000
O22_2 O 0.1269(3) 0.92181(15) 0.05832(11)
Zr1_6 Zr 0.0000 1.0000 0.93032(2)
O1_2 O 0.0691(3) 0.95919(13) 0.89854(10)
O2_2 O 0.1269(3) 0.92181(15) 0.94168(11)
O5_4 O 0.2015(7) 0.9479(2) 1.0000
O6_4 O 0.0792(4) 0.87676(19) 1.0000
C1_3 C 0.1072(5) 0.9316(2) 0.90744(17)
C2_3 C 0.1429(5) 0.9062(2) 0.87660(15)
C3_3 C 0.1839(5) 0.87338(19) 0.88239(15)
H1_3 H 0.1924 0.8649 0.9079
C4_3 C 0.2164(4) 0.8499(2) 0.85220(14)
H2_3 H 0.2472 0.8273 0.8572
C5_3 C 0.1996(5) 0.8623(2) 0.81470(14)
C6_3 C 0.1597(4) 0.8963(2) 0.80954(15)
H3_3 H 0.1510 0.9052 0.7842
C7_3 C 0.1307(4) 0.9190(2) 0.83921(16)
H4_3 H 0.1030 0.9429 0.8341
C8_3 C 0.2268(5) 0.83801(19) 0.78196(15)
C9_3 C 0.2500 0.8597(3) 0.7500
H5_3 H 0.2500 0.8893 0.7500
C10_3 C 0.2257(5) 0.79538(19) 0.78183(15)
H6_3 H 0.2083 0.7809 0.8034
C11_3 C 0.2500 0.7727(3) 0.7500
O7_3 O 0.0691(3) 0.54081(13) 0.60146(10)
O8_3 O 0.1269(3) 0.57819(15) 0.55832(11)
C12_3 C 0.1072(5) 0.5684(2) 0.59256(17)
C13_3 C 0.1429(5) 0.5938(2) 0.62340(15)
C14_3 C 0.1839(5) 0.62662(19) 0.61761(15)
H7_3 H 0.1924 0.6351 0.5921
C15_3 C 0.2164(4) 0.6501(2) 0.64780(14)
H8_3 H 0.2472 0.6727 0.6428
C16_3 C 0.1996(5) 0.6377(2) 0.68530(14)
C17_3 C 0.1597(4) 0.6037(2) 0.69046(15)
H9_3 H 0.1510 0.5948 0.7158
C18_3 C 0.1307(4) 0.5810(2) 0.66079(16)
H10_3 H 0.1030 0.5571 0.6659
C19_3 C 0.2268(5) 0.66199(19) 0.71804(15)
C20_3 C 0.2500 0.6403(3) 0.7500
H11_3 H 0.2500 0.6107 0.7500
C21_3 C 0.2257(5) 0.70462(19) 0.71817(15)
H12_3 H 0.2083 0.7191 0.6966
C22_3 C 0.2500 0.7273(3) 0.7500
O9_3 O 0.4309(3) 0.95919(13) 0.60146(10)
O10_3 O 0.3731(3) 0.92181(15) 0.55832(11)
C23_3 C 0.3928(5) 0.9316(2) 0.59256(17)
C24_3 C 0.3571(5) 0.9062(2) 0.62340(15)
C25_3 C 0.3161(5) 0.87338(19) 0.61761(15)
H13_3 H 0.3076 0.8649 0.5921
C26_3 C 0.2836(4) 0.8499(2) 0.64780(14)
H14_3 H 0.2528 0.8273 0.6428
C27_3 C 0.3004(5) 0.8623(2) 0.68530(14)
C28_3 C 0.3403(4) 0.8963(2) 0.69046(15)
H15_3 H 0.3490 0.9052 0.7158
C29_3 C 0.3693(4) 0.9190(2) 0.66079(16)
H16_3 H 0.3970 0.9429 0.6659
C30_3 C 0.2732(5) 0.83801(19) 0.71804(15)
C31_3 C 0.2743(5) 0.79538(19) 0.71817(15)
H17_3 H 0.2917 0.7809 0.6966
O11_3 O 0.4309(3) 0.54081(13) 0.89854(10)
O12_3 O 0.3731(3) 0.57819(15) 0.94168(11)
C32_3 C 0.3928(5) 0.5684(2) 0.90744(17)
C33_3 C 0.3571(5) 0.5938(2) 0.87660(15)
C34_3 C 0.3161(5) 0.62662(19) 0.88239(15)
H18_3 H 0.3076 0.6351 0.9079
C35_3 C 0.2836(4) 0.6501(2) 0.85220(14)
H19_3 H 0.2528 0.6727 0.8572
C36_3 C 0.3004(5) 0.6377(2) 0.81470(14)
C37_3 C 0.3403(4) 0.6037(2) 0.80954(15)
H20_3 H 0.3490 0.5948 0.7842
C38_3 C 0.3693(4) 0.5810(2) 0.83921(16)
H21_3 H 0.3970 0.5571 0.8341
C39_3 C 0.2732(5) 0.66199(19) 0.78196(15)
C40_3 C 0.2743(5) 0.70462(19) 0.78183(15)
H22_3 H 0.2917 0.7191 0.8034
Zr4_3 Zr -0.0000 0.5000 0.56968(2)
Zr5_4 Zr 0.5000 1.0000 0.56968(2)
Zr6_2 Zr 0.5000 0.5000 0.93032(2)
Zr9_3 Zr 0.09209(6) 0.55512(2) 0.5000
Zr10_3 Zr 0.40791(6) 0.94488(2) 0.5000
Zr11_6 Zr 0.40791(6) 0.55512(2) 1.0000
O15_3 O 0.7985(7) 0.0521(2) 0.0000
O16_3 O 0.9208(4) 0.12324(19) 0.0000
O21_2 O 0.8731(3) 0.07819(15) 0.05832(11)
Zr1_7 Zr 1.0000 -0.0000 0.93032(2)
O15_4 O 0.7985(7) 0.0521(2) 1.0000
O16_4 O 0.9208(4) 0.12324(19) 1.0000
O17_2 O 0.9309(3) 0.04081(13) 0.89854(10)
O20_2 O 0.8731(3) 0.07819(15) 0.94168(11)
Zr1_8 Zr 1.0000 1.0000 0.93032(2)
Zr4_4 Zr 1.0000 0.5000 0.56968(2)
O18_2 O 0.9309(3) 0.95919(13) 0.89854(10)
Zr11_7 Zr 0.59209(6) 0.44488(2) 0.0000
C1_4 C 0.8928(5) 0.0684(2) 0.90744(17)
C2_4 C 0.8571(5) 0.0938(2) 0.87660(15)
C3_4 C 0.8161(5) 0.12662(19) 0.88239(15)
H1_4 H 0.8076 0.1351 0.9079
C4_4 C 0.7836(4) 0.1501(2) 0.85220(14)
H2_4 H 0.7528 0.1727 0.8572
C5_4 C 0.8004(5) 0.1377(2) 0.81470(14)
C6_4 C 0.8403(4) 0.1037(2) 0.80954(15)
H3_4 H 0.8490 0.0948 0.7842
C7_4 C 0.8693(4) 0.0810(2) 0.83921(16)
H4_4 H 0.8970 0.0571 0.8341
C8_4 C 0.7732(5) 0.16199(19) 0.78196(15)
C9_4 C 0.7500 0.1403(3) 0.7500
H5_4 H 0.7500 0.1107 0.7500
C10_4 C 0.7743(5) 0.20462(19) 0.78183(15)
H6_4 H 0.7917 0.2191 0.8034
C11_4 C 0.7500 0.2273(3) 0.7500
O7_4 O 0.9309(3) 0.45919(13) 0.60146(10)
O8_4 O 0.8731(3) 0.42181(15) 0.55832(11)
C12_4 C 0.8928(5) 0.4316(2) 0.59256(17)
C13_4 C 0.8571(5) 0.4062(2) 0.62340(15)
C14_4 C 0.8161(5) 0.37338(19) 0.61761(15)
H7_4 H 0.8076 0.3649 0.5921
C15_4 C 0.7836(4) 0.3499(2) 0.64780(14)
H8_4 H 0.7528 0.3273 0.6428
C16_4 C 0.8004(5) 0.3623(2) 0.68530(14)
C17_4 C 0.8403(4) 0.3963(2) 0.69046(15)
H9_4 H 0.8490 0.4052 0.7158
C18_4 C 0.8693(4) 0.4190(2) 0.66079(16)
H10_4 H 0.8970 0.4429 0.6659
C19_4 C 0.7732(5) 0.33801(19) 0.71804(15)
C20_4 C 0.7500 0.3597(3) 0.7500
H11_4 H 0.7500 0.3893 0.7500
C21_4 C 0.7743(5) 0.29538(19) 0.71817(15)
H12_4 H 0.7917 0.2809 0.6966
C22_4 C 0.7500 0.2727(3) 0.7500
O9_4 O 0.5691(3) 0.04081(13) 0.60146(10)
O10_4 O 0.6269(3) 0.07819(15) 0.55832(11)
C23_4 C 0.6072(5) 0.0684(2) 0.59256(17)
C24_4 C 0.6429(5) 0.0938(2) 0.62340(15)
C25_4 C 0.6839(5) 0.12662(19) 0.61761(15)
H13_4 H 0.6924 0.1351 0.5921
C26_4 C 0.7164(4) 0.1501(2) 0.64780(14)
H14_4 H 0.7472 0.1727 0.6428
C27_4 C 0.6996(5) 0.1377(2) 0.68530(14)
C28_4 C 0.6597(4) 0.1037(2) 0.69046(15)
H15_4 H 0.6510 0.0948 0.7158
C29_4 C 0.6307(4) 0.0810(2) 0.66079(16)
H16_4 H 0.6030 0.0571 0.6659
C30_4 C 0.7268(5) 0.16199(19) 0.71804(15)
C31_4 C 0.7257(5) 0.20462(19) 0.71817(15)
H17_4 H 0.7083 0.2191 0.6966
O11_4 O 0.5691(3) 0.45919(13) 0.89854(10)
O12_4 O 0.6269(3) 0.42181(15) 0.94168(11)
C32_4 C 0.6072(5) 0.4316(2) 0.90744(17)
C33_4 C 0.6429(5) 0.4062(2) 0.87660(15)
C34_4 C 0.6839(5) 0.37338(19) 0.88239(15)
H18_4 H 0.6924 0.3649 0.9079
C35_4 C 0.7164(4) 0.3499(2) 0.85220(14)
H19_4 H 0.7472 0.3273 0.8572
C36_4 C 0.6996(5) 0.3623(2) 0.81470(14)
C37_4 C 0.6597(4) 0.3963(2) 0.80954(15)
H20_4 H 0.6510 0.4052 0.7842
C38_4 C 0.6307(4) 0.4190(2) 0.83921(16)
H21_4 H 0.6030 0.4429 0.8341
C39_4 C 0.7268(5) 0.33801(19) 0.78196(15)
C40_4 C 0.7257(5) 0.29538(19) 0.78183(15)
H22_4 H 0.7083 0.2809 0.8034
Zr9_4 Zr 0.90791(6) 0.44488(2) 0.5000
Zr10_4 Zr 0.59209(6) 0.05512(2) 0.5000
Zr11_8 Zr 0.59209(6) 0.44488(2) 1.0000
O3_3 O 0.0943(4) 0.5000 0.53420(18)
O4_3 O -0.0000 0.5561(2) 0.5345(2)
O5_5 O 0.2015(7) 0.5521(2) 0.5000
O6_5 O 0.0792(4) 0.62324(19) 0.5000
O14_3 O 0.0000 0.4439(2) 0.5345(2)
O19_3 O 0.0691(3) 0.45919(13) 0.60146(10)
O22_3 O 0.1269(3) 0.57819(15) 0.44168(11)
O23_3 O 0.0943(4) 0.5000 0.46580(18)
O25_3 O -0.0000 0.4439(2) 0.4655(2)
O26_3 O -0.0000 0.5561(2) 0.4655(2)
O4_4 O 1.0000 0.5561(2) 0.5345(2)
O13_3 O 0.9057(4) 0.5000 0.53420(18)
O14_4 O 1.0000 0.4439(2) 0.5345(2)
O15_5 O 0.7985(7) 0.4479(2) 0.5000
O16_5 O 0.9208(4) 0.37676(19) 0.5000
O18_3 O 0.9309(3) 0.54081(13) 0.60146(10)
O21_3 O 0.8731(3) 0.42181(15) 0.44168(11)
O24_3 O 0.9057(4) 0.5000 0.46580(18)
O25_4 O 1.0000 0.4439(2) 0.4655(2)
O26_4 O 1.0000 0.5561(2) 0.4655(2)
O5_6 O 0.2015(7) 0.4479(2) 0.5000
O6_6 O 0.0792(4) 0.37676(19) 0.5000
O19_4 O 0.0691(3) 0.54081(13) 0.39854(10)
O22_4 O 0.1269(3) 0.42181(15) 0.55832(11)
O15_6 O 0.7985(7) 0.5521(2) 0.5000
O16_6 O 0.9208(4) 0.62324(19) 0.5000
O18_4 O 0.9309(3) 0.45919(13) 0.39854(10)
O21_4 O 0.8731(3) 0.57819(15) 0.55832(11)
O3_4 O 0.5943(4) -0.0000 0.53420(18)
O4_5 O 0.5000 0.0561(2) 0.5345(2)
O5_7 O 0.7015(7) 0.0521(2) 0.5000
O6_7 O 0.5792(4) 0.12324(19) 0.5000
O13_4 O 0.4057(4) -0.0000 0.53420(18)
O18_5 O 0.4309(3) 0.04081(13) 0.60146(10)
O22_5 O 0.6269(3) 0.07819(15) 0.44168(11)
O23_4 O 0.5943(4) -0.0000 0.46580(18)
O24_4 O 0.4057(4) -0.0000 0.46580(18)
O26_5 O 0.5000 0.0561(2) 0.4655(2)
O3_5 O 0.5943(4) 1.0000 0.53420(18)
O13_5 O 0.4057(4) 1.0000 0.53420(18)
O14_5 O 0.5000 0.9439(2) 0.5345(2)
O15_7 O 0.2985(7) 0.9479(2) 0.5000
O16_7 O 0.4208(4) 0.87676(19) 0.5000
O19_5 O 0.5691(3) 0.95919(13) 0.60146(10)
O21_5 O 0.3731(3) 0.92181(15) 0.44168(11)
O23_5 O 0.5943(4) 1.0000 0.46580(18)
O24_5 O 0.4057(4) 1.0000 0.46580(18)
O25_5 O 0.5000 0.9439(2) 0.4655(2)
O15_8 O 0.2985(7) 0.0521(2) 0.5000
O16_8 O 0.4208(4) 0.12324(19) 0.5000
O19_6 O 0.5691(3) 0.04081(13) 0.39854(10)
O21_6 O 0.3731(3) 0.07819(15) 0.55832(11)
O5_8 O 0.7015(7) 0.9479(2) 0.5000
O6_8 O 0.5792(4) 0.87676(19) 0.5000
O18_6 O 0.4309(3) 0.95919(13) 0.39854(10)
O22_6 O 0.6269(3) 0.92181(15) 0.55832(11)
O3_6 O 0.5943(4) 0.5000 0.03420(18)
O4_6 O 0.5000 0.5561(2) 0.0345(2)
O5_9 O 0.7015(7) 0.5521(2) 0.0000
O6_9 O 0.5792(4) 0.62324(19) 0.0000
O13_6 O 0.4057(4) 0.5000 0.03420(18)
O14_6 O 0.5000 0.4439(2) 0.0345(2)
O15_9 O 0.2985(7) 0.4479(2) 0.0000
O16_9 O 0.4208(4) 0.37676(19) 0.0000
O18_7 O 0.4309(3) 0.54081(13) 0.10146(10)
O19_7 O 0.5691(3) 0.45919(13) 0.10146(10)
O5_10 O 0.7015(7) 0.5521(2) 1.0000
O6_10 O 0.5792(4) 0.62324(19) 1.0000
O15_10 O 0.2985(7) 0.4479(2) 1.0000
O16_10 O 0.4208(4) 0.37676(19) 1.0000
O21_7 O 0.3731(3) 0.42181(15) 0.94168(11)
O22_7 O 0.6269(3) 0.57819(15) 0.94168(11)
O23_6 O 0.5943(4) 0.5000 0.96580(18)
O24_6 O 0.4057(4) 0.5000 0.96580(18)
O25_6 O 0.5000 0.4439(2) 0.9655(2)
O26_6 O 0.5000 0.5561(2) 0.9655(2)
O5_11 O 0.7015(7) 0.4479(2) 0.0000
O6_11 O 0.5792(4) 0.37676(19) 0.0000
O15_11 O 0.2985(7) 0.5521(2) 0.0000
O16_11 O 0.4208(4) 0.62324(19) 0.0000
O21_8 O 0.3731(3) 0.57819(15) 0.05832(11)
O22_8 O 0.6269(3) 0.42181(15) 0.05832(11)
O5_12 O 0.7015(7) 0.4479(2) 1.0000
O6_12 O 0.5792(4) 0.37676(19) 1.0000
O15_12 O 0.2985(7) 0.5521(2) 1.0000
O16_12 O 0.4208(4) 0.62324(19) 1.0000
O18_8 O 0.4309(3) 0.45919(13) 0.89854(10)
O19_8 O 0.5691(3) 0.54081(13) 0.89854(10)
C1_5 C 0.8928(5) 0.9316(2) 0.90744(17)
C2_5 C 0.8571(5) 0.9062(2) 0.87660(15)
C3_5 C 0.8161(5) 0.87338(19) 0.88239(15)
H1_5 H 0.8076 0.8649 0.9079
C4_5 C 0.7836(4) 0.8499(2) 0.85220(14)
H2_5 H 0.7528 0.8273 0.8572
C5_5 C 0.8004(5) 0.8623(2) 0.81470(14)
C6_5 C 0.8403(4) 0.8963(2) 0.80954(15)
H3_5 H 0.8490 0.9052 0.7842
C7_5 C 0.8693(4) 0.9190(2) 0.83921(16)
H4_5 H 0.8970 0.9429 0.8341
C8_5 C 0.7732(5) 0.83801(19) 0.78196(15)
C9_5 C 0.7500 0.8597(3) 0.7500
H5_5 H 0.7500 0.8893 0.7500
C10_5 C 0.7743(5) 0.79538(19) 0.78183(15)
H6_5 H 0.7917 0.7809 0.8034
C11_5 C 0.7500 0.7727(3) 0.7500
C12_5 C 0.8928(5) 0.5684(2) 0.59256(17)
C13_5 C 0.8571(5) 0.5938(2) 0.62340(15)
C14_5 C 0.8161(5) 0.62662(19) 0.61761(15)
H7_5 H 0.8076 0.6351 0.5921
C15_5 C 0.7836(4) 0.6501(2) 0.64780(14)
H8_5 H 0.7528 0.6727 0.6428
C16_5 C 0.8004(5) 0.6377(2) 0.68530(14)
C17_5 C 0.8403(4) 0.6037(2) 0.69046(15)
H9_5 H 0.8490 0.5948 0.7158
C18_5 C 0.8693(4) 0.5810(2) 0.66079(16)
H10_5 H 0.8970 0.5571 0.6659
C19_5 C 0.7732(5) 0.66199(19) 0.71804(15)
C20_5 C 0.7500 0.6403(3) 0.7500
H11_5 H 0.7500 0.6107 0.7500
C21_5 C 0.7743(5) 0.70462(19) 0.71817(15)
H12_5 H 0.7917 0.7191 0.6966
C22_5 C 0.7500 0.7273(3) 0.7500
C23_5 C 0.6072(5) 0.9316(2) 0.59256(17)
C24_5 C 0.6429(5) 0.9062(2) 0.62340(15)
C25_5 C 0.6839(5) 0.87338(19) 0.61761(15)
H13_5 H 0.6924 0.8649 0.5921
C26_5 C 0.7164(4) 0.8499(2) 0.64780(14)
H14_5 H 0.7472 0.8273 0.6428
C27_5 C 0.6996(5) 0.8623(2) 0.68530(14)
C28_5 C 0.6597(4) 0.8963(2) 0.69046(15)
H15_5 H 0.6510 0.9052 0.7158
C29_5 C 0.6307(4) 0.9190(2) 0.66079(16)
H16_5 H 0.6030 0.9429 0.6659
C30_5 C 0.7268(5) 0.83801(19) 0.71804(15)
C31_5 C 0.7257(5) 0.79538(19) 0.71817(15)
H17_5 H 0.7083 0.7809 0.6966
C32_5 C 0.6072(5) 0.5684(2) 0.90744(17)
C33_5 C 0.6429(5) 0.5938(2) 0.87660(15)
C34_5 C 0.6839(5) 0.62662(19) 0.88239(15)
H18_5 H 0.6924 0.6351 0.9079
C35_5 C 0.7164(4) 0.6501(2) 0.85220(14)
H19_5 H 0.7472 0.6727 0.8572
C36_5 C 0.6996(5) 0.6377(2) 0.81470(14)
C37_5 C 0.6597(4) 0.6037(2) 0.80954(15)
H20_5 H 0.6510 0.5948 0.7842
C38_5 C 0.6307(4) 0.5810(2) 0.83921(16)
H21_5 H 0.6030 0.5571 0.8341
C39_5 C 0.7268(5) 0.66199(19) 0.78196(15)
C40_5 C 0.7257(5) 0.70462(19) 0.78183(15)
H22_5 H 0.7083 0.7191 0.8034
C1_6 C 0.1072(5) 0.0684(2) 0.90744(17)
C2_6 C 0.1429(5) 0.0938(2) 0.87660(15)
C3_6 C 0.1839(5) 0.12662(19) 0.88239(15)
H1_6 H 0.1924 0.1351 0.9079
C4_6 C 0.2164(4) 0.1501(2) 0.85220(14)
H2_6 H 0.2472 0.1727 0.8572
C5_6 C 0.1996(5) 0.1377(2) 0.81470(14)
C6_6 C 0.1597(4) 0.1037(2) 0.80954(15)
H3_6 H 0.1510 0.0948 0.7842
C7_6 C 0.1307(4) 0.0810(2) 0.83921(16)
H4_6 H 0.1030 0.0571 0.8341
C8_6 C 0.2268(5) 0.16199(19) 0.78196(15)
C9_6 C 0.2500 0.1403(3) 0.7500
H5_6 H 0.2500 0.1107 0.7500
C10_6 C 0.2257(5) 0.20462(19) 0.78183(15)
H6_6 H 0.2083 0.2191 0.8034
C11_6 C 0.2500 0.2273(3) 0.7500
C12_6 C 0.1072(5) 0.4316(2) 0.59256(17)
C13_6 C 0.1429(5) 0.4062(2) 0.62340(15)
C14_6 C 0.1839(5) 0.37338(19) 0.61761(15)
H7_6 H 0.1924 0.3649 0.5921
C15_6 C 0.2164(4) 0.3499(2) 0.64780(14)
H8_6 H 0.2472 0.3273 0.6428
C16_6 C 0.1996(5) 0.3623(2) 0.68530(14)
C17_6 C 0.1597(4) 0.3963(2) 0.69046(15)
H9_6 H 0.1510 0.4052 0.7158
C18_6 C 0.1307(4) 0.4190(2) 0.66079(16)
H10_6 H 0.1030 0.4429 0.6659
C19_6 C 0.2268(5) 0.33801(19) 0.71804(15)
C20_6 C 0.2500 0.3597(3) 0.7500
H11_6 H 0.2500 0.3893 0.7500
C21_6 C 0.2257(5) 0.29538(19) 0.71817(15)
H12_6 H 0.2083 0.2809 0.6966
C22_6 C 0.2500 0.2727(3) 0.7500
C23_6 C 0.3928(5) 0.0684(2) 0.59256(17)
C24_6 C 0.3571(5) 0.0938(2) 0.62340(15)
C25_6 C 0.3161(5) 0.12662(19) 0.61761(15)
H13_6 H 0.3076 0.1351 0.5921
C26_6 C 0.2836(4) 0.1501(2) 0.64780(14)
H14_6 H 0.2528 0.1727 0.6428
C27_6 C 0.3004(5) 0.1377(2) 0.68530(14)
C28_6 C 0.3403(4) 0.1037(2) 0.69046(15)
H15_6 H 0.3490 0.0948 0.7158
C29_6 C 0.3693(4) 0.0810(2) 0.66079(16)
H16_6 H 0.3970 0.0571 0.6659
C30_6 C 0.2732(5) 0.16199(19) 0.71804(15)
C31_6 C 0.2743(5) 0.20462(19) 0.71817(15)
H17_6 H 0.2917 0.2191 0.6966
C32_6 C 0.3928(5) 0.4316(2) 0.90744(17)
C33_6 C 0.3571(5) 0.4062(2) 0.87660(15)
C34_6 C 0.3161(5) 0.37338(19) 0.88239(15)
H18_6 H 0.3076 0.3649 0.9079
C35_6 C 0.2836(4) 0.3499(2) 0.85220(14)
H19_6 H 0.2528 0.3273 0.8572
C36_6 C 0.3004(5) 0.3623(2) 0.81470(14)
C37_6 C 0.3403(4) 0.3963(2) 0.80954(15)
H20_6 H 0.3490 0.4052 0.7842
C38_6 C 0.3693(4) 0.4190(2) 0.83921(16)
H21_6 H 0.3970 0.4429 0.8341
C39_6 C 0.2732(5) 0.33801(19) 0.78196(15)
C40_6 C 0.2743(5) 0.29538(19) 0.78183(15)
H22_6 H 0.2917 0.2809 0.8034
C1_7 C 0.8928(5) 0.0684(2) 0.09256(17)
C2_7 C 0.8571(5) 0.0938(2) 0.12340(15)
C3_7 C 0.8161(5) 0.12662(19) 0.11761(15)
H1_7 H 0.8076 0.1351 0.0921
C4_7 C 0.7836(4) 0.1501(2) 0.14780(14)
H2_7 H 0.7528 0.1727 0.1428
C5_7 C 0.8004(5) 0.1377(2) 0.18530(14)
C6_7 C 0.8403(4) 0.1037(2) 0.19046(15)
H3_7 H 0.8490 0.0948 0.2158
C7_7 C 0.8693(4) 0.0810(2) 0.16079(16)
H4_7 H 0.8970 0.0571 0.1659
C8_7 C 0.7732(5) 0.16199(19) 0.21804(15)
C9_7 C 0.7500 0.1403(3) 0.2500
H5_7 H 0.7500 0.1107 0.2500
C10_7 C 0.7743(5) 0.20462(19) 0.21817(15)
H6_7 H 0.7917 0.2191 0.1966
C11_7 C 0.7500 0.2273(3) 0.2500
C12_7 C 0.8928(5) 0.4316(2) 0.40744(17)
C13_7 C 0.8571(5) 0.4062(2) 0.37660(15)
C14_7 C 0.8161(5) 0.37338(19) 0.38239(15)
H7_7 H 0.8076 0.3649 0.4079
C15_7 C 0.7836(4) 0.3499(2) 0.35220(14)
H8_7 H 0.7528 0.3273 0.3572
C16_7 C 0.8004(5) 0.3623(2) 0.31470(14)
C17_7 C 0.8403(4) 0.3963(2) 0.30954(15)
H9_7 H 0.8490 0.4052 0.2842
C18_7 C 0.8693(4) 0.4190(2) 0.33921(16)
H10_7 H 0.8970 0.4429 0.3341
C19_7 C 0.7732(5) 0.33801(19) 0.28196(15)
C20_7 C 0.7500 0.3597(3) 0.2500
H11_7 H 0.7500 0.3893 0.2500
C21_7 C 0.7743(5) 0.29538(19) 0.28183(15)
H12_7 H 0.7917 0.2809 0.3034
C22_7 C 0.7500 0.2727(3) 0.2500
C23_7 C 0.6072(5) 0.0684(2) 0.40744(17)
C24_7 C 0.6429(5) 0.0938(2) 0.37660(15)
C25_7 C 0.6839(5) 0.12662(19) 0.38239(15)
H13_7 H 0.6924 0.1351 0.4079
C26_7 C 0.7164(4) 0.1501(2) 0.35220(14)
H14_7 H 0.7472 0.1727 0.3572
C27_7 C 0.6996(5) 0.1377(2) 0.31470(14)
C28_7 C 0.6597(4) 0.1037(2) 0.30954(15)
H15_7 H 0.6510 0.0948 0.2842
C29_7 C 0.6307(4) 0.0810(2) 0.33921(16)
H16_7 H 0.6030 0.0571 0.3341
C30_7 C 0.7268(5) 0.16199(19) 0.28196(15)
C31_7 C 0.7257(5) 0.20462(19) 0.28183(15)
H17_7 H 0.7083 0.2191 0.3034
C32_7 C 0.6072(5) 0.4316(2) 0.09256(17)
C33_7 C 0.6429(5) 0.4062(2) 0.12340(15)
C34_7 C 0.6839(5) 0.37338(19) 0.11761(15)
H18_7 H 0.6924 0.3649 0.0921
C35_7 C 0.7164(4) 0.3499(2) 0.14780(14)
H19_7 H 0.7472 0.3273 0.1428
C36_7 C 0.6996(5) 0.3623(2) 0.18530(14)
C37_7 C 0.6597(4) 0.3963(2) 0.19046(15)
H20_7 H 0.6510 0.4052 0.2158
C38_7 C 0.6307(4) 0.4190(2) 0.16079(16)
H21_7 H 0.6030 0.4429 0.1659
C39_7 C 0.7268(5) 0.33801(19) 0.21804(15)
C40_7 C 0.7257(5) 0.29538(19) 0.21817(15)
H22_7 H 0.7083 0.2809 0.1966
C1_8 C 0.1072(5) 0.9316(2) 0.09256(17)
C2_8 C 0.1429(5) 0.9062(2) 0.12340(15)
C3_8 C 0.1839(5) 0.87338(19) 0.11761(15)
H1_8 H 0.1924 0.8649 0.0921
C4_8 C 0.2164(4) 0.8499(2) 0.14780(14)
H2_8 H 0.2472 0.8273 0.1428
C5_8 C 0.1996(5) 0.8623(2) 0.18530(14)
C6_8 C 0.1597(4) 0.8963(2) 0.19046(15)
H3_8 H 0.1510 0.9052 0.2158
C7_8 C 0.1307(4) 0.9190(2) 0.16079(16)
H4_8 H 0.1030 0.9429 0.1659
C8_8 C 0.2268(5) 0.83801(19) 0.21804(15)
C9_8 C 0.2500 0.8597(3) 0.2500
H5_8 H 0.2500 0.8893 0.2500
C10_8 C 0.2257(5) 0.79538(19) 0.21817(15)
H6_8 H 0.2083 0.7809 0.1966
C11_8 C 0.2500 0.7727(3) 0.2500
C12_8 C 0.1072(5) 0.5684(2) 0.40744(17)
C13_8 C 0.1429(5) 0.5938(2) 0.37660(15)
C14_8 C 0.1839(5) 0.62662(19) 0.38239(15)
H7_8 H 0.1924 0.6351 0.4079
C15_8 C 0.2164(4) 0.6501(2) 0.35220(14)
H8_8 H 0.2472 0.6727 0.3572
C16_8 C 0.1996(5) 0.6377(2) 0.31470(14)
C17_8 C 0.1597(4) 0.6037(2) 0.30954(15)
H9_8 H 0.1510 0.5948 0.2842
C18_8 C 0.1307(4) 0.5810(2) 0.33921(16)
H10_8 H 0.1030 0.5571 0.3341
C19_8 C 0.2268(5) 0.66199(19) 0.28196(15)
C20_8 C 0.2500 0.6403(3) 0.2500
H11_8 H 0.2500 0.6107 0.2500
C21_8 C 0.2257(5) 0.70462(19) 0.28183(15)
H12_8 H 0.2083 0.7191 0.3034
C22_8 C 0.2500 0.7273(3) 0.2500
C23_8 C 0.3928(5) 0.9316(2) 0.40744(17)
C24_8 C 0.3571(5) 0.9062(2) 0.37660(15)
C25_8 C 0.3161(5) 0.87338(19) 0.38239(15)
H13_8 H 0.3076 0.8649 0.4079
C26_8 C 0.2836(4) 0.8499(2) 0.35220(14)
H14_8 H 0.2528 0.8273 0.3572
C27_8 C 0.3004(5) 0.8623(2) 0.31470(14)
C28_8 C 0.3403(4) 0.8963(2) 0.30954(15)
H15_8 H 0.3490 0.9052 0.2842
C29_8 C 0.3693(4) 0.9190(2) 0.33921(16)
H16_8 H 0.3970 0.9429 0.3341
C30_8 C 0.2732(5) 0.83801(19) 0.28196(15)
C31_8 C 0.2743(5) 0.79538(19) 0.28183(15)
H17_8 H 0.2917 0.7809 0.3034
C32_8 C 0.3928(5) 0.5684(2) 0.09256(17)
C33_8 C 0.3571(5) 0.5938(2) 0.12340(15)
C34_8 C 0.3161(5) 0.62662(19) 0.11761(15)
H18_8 H 0.3076 0.6351 0.0921
C35_8 C 0.2836(4) 0.6501(2) 0.14780(14)
H19_8 H 0.2528 0.6727 0.1428
C36_8 C 0.3004(5) 0.6377(2) 0.18530(14)
C37_8 C 0.3403(4) 0.6037(2) 0.19046(15)
H20_8 H 0.3490 0.5948 0.2158
C38_8 C 0.3693(4) 0.5810(2) 0.16079(16)
H21_8 H 0.3970 0.5571 0.1659
C39_8 C 0.2732(5) 0.66199(19) 0.21804(15)
C40_8 C 0.2743(5) 0.70462(19) 0.21817(15)
H22_8 H 0.2917 0.7191 0.1966
loop_
_geom_bond_atom_site_label_1
_geom_bond_atom_site_label_2
_geom_bond_site_symmetry_1
_geom_bond_site_symmetry_2
Zr1 O1 1_555 1_555
Zr2 O2 1_555 1_555
O1 C1 1_555 1_555
O2 C1 1_555 1_555
O3 Zr1 1_555 1_555
O4 Zr1 1_555 1_555
O5 Zr2 1_555 1_555
O6 Zr2 1_555 1_555
C1 C2 1_555 1_555
C2 C3 1_555 1_555
C3 H1 1_555 1_555
C4 C3 1_555 1_555
H2 C4 1_555 1_555
C5 C4 1_555 1_555
C6 C5 1_555 1_555
H3 C6 1_555 1_555
C7 C2 1_555 1_555
H4 C7 1_555 1_555
C8 C5 1_555 1_555
C9 C8 1_555 1_555
H5 C9 1_555 1_555
C10 C8 1_555 1_555
H6 C10 1_555 1_555
C11 C10 1_555 1_555
O7 C12 1_555 1_555
O8 C12 1_555 1_555
C12 C13 1_555 1_555
C13 C14 1_555 1_555
C14 H7 1_555 1_555
C15 C14 1_555 1_555
H8 C15 1_555 1_555
C16 C15 1_555 1_555
C17 C16 1_555 1_555
H9 C17 1_555 1_555
C18 C13 1_555 1_555
H10 C18 1_555 1_555
C19 C16 1_555 1_555
C20 C19 1_555 1_555
H11 C20 1_555 1_555
C21 C19 1_555 1_555
H12 C21 1_555 1_555
C22 C11 1_555 1_555
O9 C23 1_555 1_555
O10 C23 1_555 1_555
C23 C24 1_555 1_555
C24 C25 1_555 1_555
C25 H13 1_555 1_555
C26 C25 1_555 1_555
H14 C26 1_555 1_555
C27 C26 1_555 1_555
C28 C27 1_555 1_555
H15 C28 1_555 1_555
C29 C24 1_555 1_555
H16 C29 1_555 1_555
C30 C9 1_555 1_555
C31 C11 1_555 1_555
H17 C31 1_555 1_555
O11 C32 1_555 1_555
O12 C32 1_555 1_555
C32 C33 1_555 1_555
C33 C34 1_555 1_555
C34 H18 1_555 1_555
C35 C34 1_555 1_555
H19 C35 1_555 1_555
C36 C35 1_555 1_555
C37 C36 1_555 1_555
H20 C37 1_555 1_555
C38 C33 1_555 1_555
H21 C38 1_555 1_555
C39 C20 1_555 1_555
C40 C22 1_555 1_555
H22 C40 1_555 1_555
Zr4 O7 1_555 1_555
Zr5 O9 1_555 1_555
Zr6 O11 1_555 1_555
Zr9 O8 1_555 1_555
Zr10 O10 1_555 1_555
Zr11 O12 1_555 1_555
Zr2 O3 1_555 1_555
Zr2 O4 1_555 1_555
C6 C7 1_555 1_555
C17 C18 1_555 1_555
C21 C22 1_555 1_555
C27 C30 1_555 1_555
C28 C29 1_555 1_555
C30 C31 1_555 1_555
C36 C39 1_555 1_555
C37 C38 1_555 1_555
C39 C40 1_555 1_555
O5_2 Zr2_2 1_555 1_555
O6_2 Zr2_2 1_555 1_555
O22 Zr2_2 1_555 1_555
O23 Zr2_2 1_555 1_555
O26 Zr2_2 1_555 1_555
O3_2 Zr1_2 1_555 1_555
O14 Zr1_2 1_555 1_555
Zr7 O3_2 1_555 1_555
O19 Zr1_2 1_555 1_555
O14 Zr7 1_555 1_555
Zr7_2 O23_2 1_555 1_555
Zr7_2 O25 1_555 1_555
O4_2 Zr1_3 1_555 1_555
O13 Zr1_3 1_555 1_555
Zr8 O4_2 1_555 1_555
O18 Zr1_3 1_555 1_555
O13 Zr8 1_555 1_555
Zr8_2 O24 1_555 1_555
Zr8_2 O26_2 1_555 1_555
Zr3 O13_2 1_555 1_555
O13_2 Zr1_4 1_555 1_555
O14_2 Zr1_4 1_555 1_555
O15 Zr3 1_555 1_555
O16 Zr3 1_555 1_555
O17 Zr1_4 1_555 1_555
O20 Zr3 1_555 1_555
Zr3 O14_2 1_555 1_555
O15_2 Zr3_2 1_555 1_555
O16_2 Zr3_2 1_555 1_555
O21 Zr3_2 1_555 1_555
O24_2 Zr3_2 1_555 1_555
O25_2 Zr3_2 1_555 1_555
O17 C1_2 1_555 1_555
O20 C1_2 1_555 1_555
C1_2 C2_2 1_555 1_555
C2_2 C3_2 1_555 1_555
C3_2 H1_2 1_555 1_555
C4_2 C3_2 1_555 1_555
H2_2 C4_2 1_555 1_555
C5_2 C4_2 1_555 1_555
C6_2 C5_2 1_555 1_555
H3_2 C6_2 1_555 1_555
C7_2 C2_2 1_555 1_555
H4_2 C7_2 1_555 1_555
C8_2 C5_2 1_555 1_555
C9_2 C8_2 1_555 1_555
H5_2 C9_2 1_555 1_555
C10_2 C8_2 1_555 1_555
H6_2 C10_2 1_555 1_555
C11_2 C10_2 1_555 1_555
O7_2 C12_2 1_555 1_555
O8_2 C12_2 1_555 1_555
C12_2 C13_2 1_555 1_555
C13_2 C14_2 1_555 1_555
C14_2 H7_2 1_555 1_555
C15_2 C14_2 1_555 1_555
H8_2 C15_2 1_555 1_555
C16_2 C15_2 1_555 1_555
C17_2 C16_2 1_555 1_555
H9_2 C17_2 1_555 1_555
C18_2 C13_2 1_555 1_555
H10_2 C18_2 1_555 1_555
C19_2 C16_2 1_555 1_555
C20_2 C19_2 1_555 1_555
H11_2 C20_2 1_555 1_555
C21_2 C19_2 1_555 1_555
H12_2 C21_2 1_555 1_555
C22_2 C11_2 1_555 1_555
O9_2 C23_2 1_555 1_555
O10_2 C23_2 1_555 1_555
C23_2 C24_2 1_555 1_555
C24_2 C25_2 1_555 1_555
C25_2 H13_2 1_555 1_555
C26_2 C25_2 1_555 1_555
H14_2 C26_2 1_555 1_555
C27_2 C26_2 1_555 1_555
C28_2 C27_2 1_555 1_555
H15_2 C28_2 1_555 1_555
C29_2 C24_2 1_555 1_555
H16_2 C29_2 1_555 1_555
C30_2 C9_2 1_555 1_555
C31_2 C11_2 1_555 1_555
H17_2 C31_2 1_555 1_555
O11_2 C32_2 1_555 1_555
O12_2 C32_2 1_555 1_555
C32_2 C33_2 1_555 1_555
C33_2 C34_2 1_555 1_555
C34_2 H18_2 1_555 1_555
C35_2 C34_2 1_555 1_555
H19_2 C35_2 1_555 1_555
C36_2 C35_2 1_555 1_555
C37_2 C36_2 1_555 1_555
H20_2 C37_2 1_555 1_555
C38_2 C33_2 1_555 1_555
H21_2 C38_2 1_555 1_555
C39_2 C20_2 1_555 1_555
C40_2 C22_2 1_555 1_555
H22_2 C40_2 1_555 1_555
Zr4_2 O7_2 1_555 1_555
Zr5_2 O9_2 1_555 1_555
Zr6 O11_2 1_555 1_555
Zr9_2 O8_2 1_555 1_555
Zr10_2 O10_2 1_555 1_555
Zr11_3 O12_2 1_555 1_555
C6_2 C7_2 1_555 1_555
C17_2 C18_2 1_555 1_555
C21_2 C22_2 1_555 1_555
C27_2 C30_2 1_555 1_555
C28_2 C29_2 1_555 1_555
C30_2 C31_2 1_555 1_555
C36_2 C39_2 1_555 1_555
C37_2 C38_2 1_555 1_555
C39_2 C40_2 1_555 1_555
O23 Zr1_5 1_555 1_555
O26 Zr1_5 1_555 1_555
O19_2 Zr1_5 1_555 1_555
O5_3 Zr7 1_555 1_555
O6_3 Zr7 1_555 1_555
O22_2 Zr7 1_555 1_555
Zr1_6 O1_2 1_555 1_555
Zr7_2 O2_2 1_555 1_555
O1_2 C1_3 1_555 1_555
O2_2 C1_3 1_555 1_555
O23_2 Zr1_6 1_555 1_555
O25 Zr1_6 1_555 1_555
O5_4 Zr7_2 1_555 1_555
O6_4 Zr7_2 1_555 1_555
C1_3 C2_3 1_555 1_555
C2_3 C3_3 1_555 1_555
C3_3 H1_3 1_555 1_555
C4_3 C3_3 1_555 1_555
H2_3 C4_3 1_555 1_555
C5_3 C4_3 1_555 1_555
C6_3 C5_3 1_555 1_555
H3_3 C6_3 1_555 1_555
C7_3 C2_3 1_555 1_555
H4_3 C7_3 1_555 1_555
C8_3 C5_3 1_555 1_555
C9_3 C8_3 1_555 1_555
H5_3 C9_3 1_555 1_555
C10_3 C8_3 1_555 1_555
H6_3 C10_3 1_555 1_555
C11_3 C10_3 1_555 1_555
O7_3 C12_3 1_555 1_555
O8_3 C12_3 1_555 1_555
C12_3 C13_3 1_555 1_555
C13_3 C14_3 1_555 1_555
C14_3 H7_3 1_555 1_555
C15_3 C14_3 1_555 1_555
H8_3 C15_3 1_555 1_555
C16_3 C15_3 1_555 1_555
C17_3 C16_3 1_555 1_555
H9_3 C17_3 1_555 1_555
C18_3 C13_3 1_555 1_555
H10_3 C18_3 1_555 1_555
C19_3 C16_3 1_555 1_555
C20_3 C19_3 1_555 1_555
H11_3 C20_3 1_555 1_555
C21_3 C19_3 1_555 1_555
H12_3 C21_3 1_555 1_555
C22_3 C11_3 1_555 1_555
O9_3 C23_3 1_555 1_555
O10_3 C23_3 1_555 1_555
C23_3 C24_3 1_555 1_555
C24_3 C25_3 1_555 1_555
C25_3 H13_3 1_555 1_555
C26_3 C25_3 1_555 1_555
H14_3 C26_3 1_555 1_555
C27_3 C26_3 1_555 1_555
C28_3 C27_3 1_555 1_555
H15_3 C28_3 1_555 1_555
C29_3 C24_3 1_555 1_555
H16_3 C29_3 1_555 1_555
C30_3 C9_3 1_555 1_555
C31_3 C11_3 1_555 1_555
H17_3 C31_3 1_555 1_555
O11_3 C32_3 1_555 1_555
O12_3 C32_3 1_555 1_555
C32_3 C33_3 1_555 1_555
C33_3 C34_3 1_555 1_555
C34_3 H18_3 1_555 1_555
C35_3 C34_3 1_555 1_555
H19_3 C35_3 1_555 1_555
C36_3 C35_3 1_555 1_555
C37_3 C36_3 1_555 1_555
H20_3 C37_3 1_555 1_555
C38_3 C33_3 1_555 1_555
H21_3 C38_3 1_555 1_555
C39_3 C20_3 1_555 1_555
C40_3 C22_3 1_555 1_555
H22_3 C40_3 1_555 1_555
Zr4_3 O7_3 1_555 1_555
Zr5_4 O9_3 1_555 1_555
Zr6_2 O11_3 1_555 1_555
Zr9_3 O8_3 1_555 1_555
Zr10_3 O10_3 1_555 1_555
Zr11_6 O12_3 1_555 1_555
C6_3 C7_3 1_555 1_555
C17_3 C18_3 1_555 1_555
C21_3 C22_3 1_555 1_555
C27_3 C30_3 1_555 1_555
C28_3 C29_3 1_555 1_555
C30_3 C31_3 1_555 1_555
C36_3 C39_3 1_555 1_555
C37_3 C38_3 1_555 1_555
C39_3 C40_3 1_555 1_555
O15_3 Zr8 1_555 1_555
O16_3 Zr8 1_555 1_555
O21_2 Zr8 1_555 1_555
O24 Zr1_7 1_555 1_555
O26_2 Zr1_7 1_555 1_555
O15_4 Zr8_2 1_555 1_555
O16_4 Zr8_2 1_555 1_555
O17_2 Zr1_7 1_555 1_555
O20_2 Zr8_2 1_555 1_555
O25_2 Zr1_8 1_555 1_555
O24_2 Zr1_8 1_555 1_555
O18_2 Zr1_8 1_555 1_555
O17_2 C1_4 1_555 1_555
O20_2 C1_4 1_555 1_555
C1_4 C2_4 1_555 1_555
C2_4 C3_4 1_555 1_555
C3_4 H1_4 1_555 1_555
C4_4 C3_4 1_555 1_555
H2_4 C4_4 1_555 1_555
C5_4 C4_4 1_555 1_555
C6_4 C5_4 1_555 1_555
H3_4 C6_4 1_555 1_555
C7_4 C2_4 1_555 1_555
H4_4 C7_4 1_555 1_555
C8_4 C5_4 1_555 1_555
C9_4 C8_4 1_555 1_555
H5_4 C9_4 1_555 1_555
C10_4 C8_4 1_555 1_555
H6_4 C10_4 1_555 1_555
C11_4 C10_4 1_555 1_555
O7_4 C12_4 1_555 1_555
O8_4 C12_4 1_555 1_555
C12_4 C13_4 1_555 1_555
C13_4 C14_4 1_555 1_555
C14_4 H7_4 1_555 1_555
C15_4 C14_4 1_555 1_555
H8_4 C15_4 1_555 1_555
C16_4 C15_4 1_555 1_555
C17_4 C16_4 1_555 1_555
H9_4 C17_4 1_555 1_555
C18_4 C13_4 1_555 1_555
H10_4 C18_4 1_555 1_555
C19_4 C16_4 1_555 1_555
C20_4 C19_4 1_555 1_555
H11_4 C20_4 1_555 1_555
C21_4 C19_4 1_555 1_555
H12_4 C21_4 1_555 1_555
C22_4 C11_4 1_555 1_555
O9_4 C23_4 1_555 1_555
O10_4 C23_4 1_555 1_555
C23_4 C24_4 1_555 1_555
C24_4 C25_4 1_555 1_555
C25_4 H13_4 1_555 1_555
C26_4 C25_4 1_555 1_555
H14_4 C26_4 1_555 1_555
C27_4 C26_4 1_555 1_555
C28_4 C27_4 1_555 1_555
H15_4 C28_4 1_555 1_555
C29_4 C24_4 1_555 1_555
H16_4 C29_4 1_555 1_555
C30_4 C9_4 1_555 1_555
C31_4 C11_4 1_555 1_555
H17_4 C31_4 1_555 1_555
O11_4 C32_4 1_555 1_555
O12_4 C32_4 1_555 1_555
C32_4 C33_4 1_555 1_555
C33_4 C34_4 1_555 1_555
C34_4 H18_4 1_555 1_555
C35_4 C34_4 1_555 1_555
H19_4 C35_4 1_555 1_555
C36_4 C35_4 1_555 1_555
C37_4 C36_4 1_555 1_555
H20_4 C37_4 1_555 1_555
C38_4 C33_4 1_555 1_555
H21_4 C38_4 1_555 1_555
C39_4 C20_4 1_555 1_555
C40_4 C22_4 1_555 1_555
H22_4 C40_4 1_555 1_555
Zr4_4 O7_4 1_555 1_555
Zr5_3 O9_4 1_555 1_555
Zr6_2 O11_4 1_555 1_555
Zr9_4 O8_4 1_555 1_555
Zr10_4 O10_4 1_555 1_555
Zr11_8 O12_4 1_555 1_555
C6_4 C7_4 1_555 1_555
C17_4 C18_4 1_555 1_555
C21_4 C22_4 1_555 1_555
C27_4 C30_4 1_555 1_555
C28_4 C29_4 1_555 1_555
C30_4 C31_4 1_555 1_555
C36_4 C39_4 1_555 1_555
C37_4 C38_4 1_555 1_555
C39_4 C40_4 1_555 1_555
O3_3 Zr4_3 1_555 1_555
O4_3 Zr4_3 1_555 1_555
O5_5 Zr9_3 1_555 1_555
O6_5 Zr9_3 1_555 1_555
O14_3 Zr4_3 1_555 1_555
Zr9 O3_3 1_555 1_555
O19_3 Zr4_3 1_555 1_555
O22_3 Zr9_3 1_555 1_555
O23_3 Zr9_3 1_555 1_555
O26_3 Zr9_3 1_555 1_555
Zr9_3 O3_3 1_555 1_555
Zr9_3 O4_3 1_555 1_555
O14_3 Zr9 1_555 1_555
Zr9 O23_3 1_555 1_555
Zr9 O25_3 1_555 1_555
O4_4 Zr4_4 1_555 1_555
Zr9_4 O13_3 1_555 1_555
O13_3 Zr4_4 1_555 1_555
O14_4 Zr4_4 1_555 1_555
O15_5 Zr9_4 1_555 1_555
O16_5 Zr9_4 1_555 1_555
Zr9_2 O4_4 1_555 1_555
O18_3 Zr4_4 1_555 1_555
O21_3 Zr9_4 1_555 1_555
O24_3 Zr9_4 1_555 1_555
O25_4 Zr9_4 1_555 1_555
Zr9_4 O14_4 1_555 1_555
O13_3 Zr9_2 1_555 1_555
Zr9_2 O24_3 1_555 1_555
Zr9_2 O26_4 1_555 1_555
O23_3 Zr4 1_555 1_555
O25_3 Zr4 1_555 1_555
O5_6 Zr9 1_555 1_555
O6_6 Zr9 1_555 1_555
O26_3 Zr4 1_555 1_555
O19_4 Zr4 1_555 1_555
O22_4 Zr9 1_555 1_555
O25_4 Zr4_2 1_555 1_555
O24_3 Zr4_2 1_555 1_555
O26_4 Zr4_2 1_555 1_555
O15_6 Zr9_2 1_555 1_555
O16_6 Zr9_2 1_555 1_555
O18_4 Zr4_2 1_555 1_555
O21_4 Zr9_2 1_555 1_555
O3_4 Zr5_3 1_555 1_555
O4_5 Zr5_3 1_555 1_555
O5_7 Zr10_4 1_555 1_555
O6_7 Zr10_4 1_555 1_555
O13_4 Zr5_3 1_555 1_555
Zr10 O4_5 1_555 1_555
O18_5 Zr5_3 1_555 1_555
O22_5 Zr10_4 1_555 1_555
O23_4 Zr10_4 1_555 1_555
O26_5 Zr10_4 1_555 1_555
Zr10_4 O3_4 1_555 1_555
Zr10_4 O4_5 1_555 1_555
O13_4 Zr10 1_555 1_555
Zr10 O24_4 1_555 1_555
Zr10 O26_5 1_555 1_555
O3_5 Zr5_4 1_555 1_555
Zr10_3 O13_5 1_555 1_555
O13_5 Zr5_4 1_555 1_555
O14_5 Zr5_4 1_555 1_555
O15_7 Zr10_3 1_555 1_555
O16_7 Zr10_3 1_555 1_555
Zr10_2 O3_5 1_555 1_555
O19_5 Zr5_4 1_555 1_555
O21_5 Zr10_3 1_555 1_555
O24_5 Zr10_3 1_555 1_555
O25_5 Zr10_3 1_555 1_555
Zr10_3 O14_5 1_555 1_555
O14_5 Zr10_2 1_555 1_555
Zr10_2 O23_5 1_555 1_555
Zr10_2 O25_5 1_555 1_555
O23_4 Zr5 1_555 1_555
O24_4 Zr5 1_555 1_555
O26_5 Zr5 1_555 1_555
O15_8 Zr10 1_555 1_555
O16_8 Zr10 1_555 1_555
O19_6 Zr5 1_555 1_555
O21_6 Zr10 1_555 1_555
O23_5 Zr5_2 1_555 1_555
O25_5 Zr5_2 1_555 1_555
O5_8 Zr10_2 1_555 1_555
O6_8 Zr10_2 1_555 1_555
O24_5 Zr5_2 1_555 1_555
O18_6 Zr5_2 1_555 1_555
O22_6 Zr10_2 1_555 1_555
O3_6 Zr6 1_555 1_555
O4_6 Zr6 1_555 1_555
O5_9 Zr11_3 1_555 1_555
O6_9 Zr11_3 1_555 1_555
Zr11 O13_6 1_555 1_555
O13_6 Zr6 1_555 1_555
O14_6 Zr6 1_555 1_555
O15_9 Zr11 1_555 1_555
O16_9 Zr11 1_555 1_555
Zr11_7 O3_6 1_555 1_555
Zr11_5 O4_6 1_555 1_555
O18_7 Zr6 1_555 1_555
O19_7 Zr6 1_555 1_555
Zr11_3 O3_6 1_555 1_555
Zr11_3 O4_6 1_555 1_555
Zr11 O14_6 1_555 1_555
O13_6 Zr11_5 1_555 1_555
O14_6 Zr11_7 1_555 1_555
O5_10 Zr11_4 1_555 1_555
O6_10 Zr11_4 1_555 1_555
O15_10 Zr11_2 1_555 1_555
O16_10 Zr11_2 1_555 1_555
O21_7 Zr11_2 1_555 1_555
O22_7 Zr11_4 1_555 1_555
O23_6 Zr11_4 1_555 1_555
O24_6 Zr11_2 1_555 1_555
O25_6 Zr11_2 1_555 1_555
O26_6 Zr11_4 1_555 1_555
Zr11_8 O23_6 1_555 1_555
Zr11_8 O25_6 1_555 1_555
Zr11_6 O24_6 1_555 1_555
Zr11_6 O26_6 1_555 1_555
O5_11 Zr11_7 1_555 1_555
O6_11 Zr11_7 1_555 1_555
O15_11 Zr11_5 1_555 1_555
O16_11 Zr11_5 1_555 1_555
O21_8 Zr11_5 1_555 1_555
O22_8 Zr11_7 1_555 1_555
O23_6 Zr6_2 1_555 1_555
O25_6 Zr6_2 1_555 1_555
O5_12 Zr11_8 1_555 1_555
O6_12 Zr11_8 1_555 1_555
O24_6 Zr6_2 1_555 1_555
O26_6 Zr6_2 1_555 1_555
O15_12 Zr11_6 1_555 1_555
O16_12 Zr11_6 1_555 1_555
O18_8 Zr6_2 1_555 1_555
O19_8 Zr6_2 1_555 1_555
O18_2 C1_5 1_555 1_555
O21 C1_5 1_555 1_555
C1_5 C2_5 1_555 1_555
C2_5 C3_5 1_555 1_555
C3_5 H1_5 1_555 1_555
C4_5 C3_5 1_555 1_555
H2_5 C4_5 1_555 1_555
C5_5 C4_5 1_555 1_555
C6_5 C5_5 1_555 1_555
H3_5 C6_5 1_555 1_555
C7_5 C2_5 1_555 1_555
H4_5 C7_5 1_555 1_555
C8_5 C5_5 1_555 1_555
C9_5 C8_5 1_555 1_555
H5_5 C9_5 1_555 1_555
C10_5 C8_5 1_555 1_555
H6_5 C10_5 1_555 1_555
C11_5 C10_5 1_555 1_555
O18_3 C12_5 1_555 1_555
O21_4 C12_5 1_555 1_555
C12_5 C13_5 1_555 1_555
C13_5 C14_5 1_555 1_555
C14_5 H7_5 1_555 1_555
C15_5 C14_5 1_555 1_555
H8_5 C15_5 1_555 1_555
C16_5 C15_5 1_555 1_555
C17_5 C16_5 1_555 1_555
H9_5 C17_5 1_555 1_555
C18_5 C13_5 1_555 1_555
H10_5 C18_5 1_555 1_555
C19_5 C16_5 1_555 1_555
C20_5 C19_5 1_555 1_555
H11_5 C20_5 1_555 1_555
C21_5 C19_5 1_555 1_555
H12_5 C21_5 1_555 1_555
C22_5 C11_5 1_555 1_555
O19_5 C23_5 1_555 1_555
O22_6 C23_5 1_555 1_555
C23_5 C24_5 1_555 1_555
C24_5 C25_5 1_555 1_555
C25_5 H13_5 1_555 1_555
C26_5 C25_5 1_555 1_555
H14_5 C26_5 1_555 1_555
C27_5 C26_5 1_555 1_555
C28_5 C27_5 1_555 1_555
H15_5 C28_5 1_555 1_555
C29_5 C24_5 1_555 1_555
H16_5 C29_5 1_555 1_555
C30_5 C9_5 1_555 1_555
C31_5 C11_5 1_555 1_555
H17_5 C31_5 1_555 1_555
O19_8 C32_5 1_555 1_555
O22_7 C32_5 1_555 1_555
C32_5 C33_5 1_555 1_555
C33_5 C34_5 1_555 1_555
C34_5 H18_5 1_555 1_555
C35_5 C34_5 1_555 1_555
H19_5 C35_5 1_555 1_555
C36_5 C35_5 1_555 1_555
C37_5 C36_5 1_555 1_555
H20_5 C37_5 1_555 1_555
C38_5 C33_5 1_555 1_555
H21_5 C38_5 1_555 1_555
C39_5 C20_5 1_555 1_555
C40_5 C22_5 1_555 1_555
H22_5 C40_5 1_555 1_555
C6_5 C7_5 1_555 1_555
C17_5 C18_5 1_555 1_555
C21_5 C22_5 1_555 1_555
C27_5 C30_5 1_555 1_555
C28_5 C29_5 1_555 1_555
C30_5 C31_5 1_555 1_555
C36_5 C39_5 1_555 1_555
C37_5 C38_5 1_555 1_555
C39_5 C40_5 1_555 1_555
O19_2 C1_6 1_555 1_555
O22 C1_6 1_555 1_555
C1_6 C2_6 1_555 1_555
C2_6 C3_6 1_555 1_555
C3_6 H1_6 1_555 1_555
C4_6 C3_6 1_555 1_555
H2_6 C4_6 1_555 1_555
C5_6 C4_6 1_555 1_555
C6_6 C5_6 1_555 1_555
H3_6 C6_6 1_555 1_555
C7_6 C2_6 1_555 1_555
H4_6 C7_6 1_555 1_555
C8_6 C5_6 1_555 1_555
C9_6 C8_6 1_555 1_555
H5_6 C9_6 1_555 1_555
C10_6 C8_6 1_555 1_555
H6_6 C10_6 1_555 1_555
C11_6 C10_6 1_555 1_555
O19_3 C12_6 1_555 1_555
O22_4 C12_6 1_555 1_555
C12_6 C13_6 1_555 1_555
C13_6 C14_6 1_555 1_555
C14_6 H7_6 1_555 1_555
C15_6 C14_6 1_555 1_555
H8_6 C15_6 1_555 1_555
C16_6 C15_6 1_555 1_555
C17_6 C16_6 1_555 1_555
H9_6 C17_6 1_555 1_555
C18_6 C13_6 1_555 1_555
H10_6 C18_6 1_555 1_555
C19_6 C16_6 1_555 1_555
C20_6 C19_6 1_555 1_555
H11_6 C20_6 1_555 1_555
C21_6 C19_6 1_555 1_555
H12_6 C21_6 1_555 1_555
C22_6 C11_6 1_555 1_555
O18_5 C23_6 1_555 1_555
O21_6 C23_6 1_555 1_555
C23_6 C24_6 1_555 1_555
C24_6 C25_6 1_555 1_555
C25_6 H13_6 1_555 1_555
C26_6 C25_6 1_555 1_555
H14_6 C26_6 1_555 1_555
C27_6 C26_6 1_555 1_555
C28_6 C27_6 1_555 1_555
H15_6 C28_6 1_555 1_555
C29_6 C24_6 1_555 1_555
H16_6 C29_6 1_555 1_555
C30_6 C9_6 1_555 1_555
C31_6 C11_6 1_555 1_555
H17_6 C31_6 1_555 1_555
O18_8 C32_6 1_555 1_555
O21_7 C32_6 1_555 1_555
C32_6 C33_6 1_555 1_555
C33_6 C34_6 1_555 1_555
C34_6 H18_6 1_555 1_555
C35_6 C34_6 1_555 1_555
H19_6 C35_6 1_555 1_555
C36_6 C35_6 1_555 1_555
C37_6 C36_6 1_555 1_555
H20_6 C37_6 1_555 1_555
C38_6 C33_6 1_555 1_555
H21_6 C38_6 1_555 1_555
C39_6 C20_6 1_555 1_555
C40_6 C22_6 1_555 1_555
H22_6 C40_6 1_555 1_555
C6_6 C7_6 1_555 1_555
C17_6 C18_6 1_555 1_555
C21_6 C22_6 1_555 1_555
C27_6 C30_6 1_555 1_555
C28_6 C29_6 1_555 1_555
C30_6 C31_6 1_555 1_555
C36_6 C39_6 1_555 1_555
C37_6 C38_6 1_555 1_555
C39_6 C40_6 1_555 1_555
O18 C1_7 1_555 1_555
O21_2 C1_7 1_555 1_555
C1_7 C2_7 1_555 1_555
C2_7 C3_7 1_555 1_555
C3_7 H1_7 1_555 1_555
C4_7 C3_7 1_555 1_555
H2_7 C4_7 1_555 1_555
C5_7 C4_7 1_555 1_555
C6_7 C5_7 1_555 1_555
H3_7 C6_7 1_555 1_555
C7_7 C2_7 1_555 1_555
H4_7 C7_7 1_555 1_555
C8_7 C5_7 1_555 1_555
C9_7 C8_7 1_555 1_555
H5_7 C9_7 1_555 1_555
C10_7 C8_7 1_555 1_555
H6_7 C10_7 1_555 1_555
C11_7 C10_7 1_555 1_555
O18_4 C12_7 1_555 1_555
O21_3 C12_7 1_555 1_555
C12_7 C13_7 1_555 1_555
C13_7 C14_7 1_555 1_555
C14_7 H7_7 1_555 1_555
C15_7 C14_7 1_555 1_555
H8_7 C15_7 1_555 1_555
C16_7 C15_7 1_555 1_555
C17_7 C16_7 1_555 1_555
H9_7 C17_7 1_555 1_555
C18_7 C13_7 1_555 1_555
H10_7 C18_7 1_555 1_555
C19_7 C16_7 1_555 1_555
C20_7 C19_7 1_555 1_555
H11_7 C20_7 1_555 1_555
C21_7 C19_7 1_555 1_555
H12_7 C21_7 1_555 1_555
C22_7 C11_7 1_555 1_555
O19_6 C23_7 1_555 1_555
O22_5 C23_7 1_555 1_555
C23_7 C24_7 1_555 1_555
C24_7 C25_7 1_555 1_555
C25_7 H13_7 1_555 1_555
C26_7 C25_7 1_555 1_555
H14_7 C26_7 1_555 1_555
C27_7 C26_7 1_555 1_555
C28_7 C27_7 1_555 1_555
H15_7 C28_7 1_555 1_555
C29_7 C24_7 1_555 1_555
H16_7 C29_7 1_555 1_555
C30_7 C9_7 1_555 1_555
C31_7 C11_7 1_555 1_555
H17_7 C31_7 1_555 1_555
O19_7 C32_7 1_555 1_555
O22_8 C32_7 1_555 1_555
C32_7 C33_7 1_555 1_555
C33_7 C34_7 1_555 1_555
C34_7 H18_7 1_555 1_555
C35_7 C34_7 1_555 1_555
H19_7 C35_7 1_555 1_555
C36_7 C35_7 1_555 1_555
C37_7 C36_7 1_555 1_555
H20_7 C37_7 1_555 1_555
C38_7 C33_7 1_555 1_555
H21_7 C38_7 1_555 1_555
C39_7 C20_7 1_555 1_555
C40_7 C22_7 1_555 1_555
H22_7 C40_7 1_555 1_555
C6_7 C7_7 1_555 1_555
C17_7 C18_7 1_555 1_555
C21_7 C22_7 1_555 1_555
C27_7 C30_7 1_555 1_555
C28_7 C29_7 1_555 1_555
C30_7 C31_7 1_555 1_555
C36_7 C39_7 1_555 1_555
C37_7 C38_7 1_555 1_555
C39_7 C40_7 1_555 1_555
O19 C1_8 1_555 1_555
O22_2 C1_8 1_555 1_555
C1_8 C2_8 1_555 1_555
C2_8 C3_8 1_555 1_555
C3_8 H1_8 1_555 1_555
C4_8 C3_8 1_555 1_555
H2_8 C4_8 1_555 1_555
C5_8 C4_8 1_555 1_555
C6_8 C5_8 1_555 1_555
H3_8 C6_8 1_555 1_555
C7_8 C2_8 1_555 1_555
H4_8 C7_8 1_555 1_555
C8_8 C5_8 1_555 1_555
C9_8 C8_8 1_555 1_555
H5_8 C9_8 1_555 1_555
C10_8 C8_8 1_555 1_555
H6_8 C10_8 1_555 1_555
C11_8 C10_8 1_555 1_555
O19_4 C12_8 1_555 1_555
O22_3 C12_8 1_555 1_555
C12_8 C13_8 1_555 1_555
C13_8 C14_8 1_555 1_555
C14_8 H7_8 1_555 1_555
C15_8 C14_8 1_555 1_555
H8_8 C15_8 1_555 1_555
C16_8 C15_8 1_555 1_555
C17_8 C16_8 1_555 1_555
H9_8 C17_8 1_555 1_555
C18_8 C13_8 1_555 1_555
H10_8 C18_8 1_555 1_555
C19_8 C16_8 1_555 1_555
C20_8 C19_8 1_555 1_555
H11_8 C20_8 1_555 1_555
C21_8 C19_8 1_555 1_555
H12_8 C21_8 1_555 1_555
C22_8 C11_8 1_555 1_555
O18_6 C23_8 1_555 1_555
O21_5 C23_8 1_555 1_555
C23_8 C24_8 1_555 1_555
C24_8 C25_8 1_555 1_555
C25_8 H13_8 1_555 1_555
C26_8 C25_8 1_555 1_555
H14_8 C26_8 1_555 1_555
C27_8 C26_8 1_555 1_555
C28_8 C27_8 1_555 1_555
H15_8 C28_8 1_555 1_555
C29_8 C24_8 1_555 1_555
H16_8 C29_8 1_555 1_555
C30_8 C9_8 1_555 1_555
C31_8 C11_8 1_555 1_555
H17_8 C31_8 1_555 1_555
O18_7 C32_8 1_555 1_555
O21_8 C32_8 1_555 1_555
C32_8 C33_8 1_555 1_555
C33_8 C34_8 1_555 1_555
C34_8 H18_8 1_555 1_555
C35_8 C34_8 1_555 1_555
H19_8 C35_8 1_555 1_555
C36_8 C35_8 1_555 1_555
C37_8 C36_8 1_555 1_555
H20_8 C37_8 1_555 1_555
C38_8 C33_8 1_555 1_555
H21_8 C38_8 1_555 1_555
C39_8 C20_8 1_555 1_555
C40_8 C22_8 1_555 1_555
H22_8 C40_8 1_555 1_555
C6_8 C7_8 1_555 1_555
C17_8 C18_8 1_555 1_555
C21_8 C22_8 1_555 1_555
C27_8 C30_8 1_555 1_555
C28_8 C29_8 1_555 1_555
C30_8 C31_8 1_555 1_555
C36_8 C39_8 1_555 1_555
C37_8 C38_8 1_555 1_555
C39_8 C40_8 1_555 1_555

#END
