
###############################################################################
#
# This file contains modified crystal structure data generated from the
# MOF subset of the Cambridge Structural Database (CSD) v543 
# hosted by the Cambridge Crystallographic Data Centre (CCDC).
#
# This work is licensed under the Creative Commons
# Attribution-NonCommercial-ShareAlike 4.0 International License.
# To view a copy of this license, visit
# http://creativecommons.org/licenses/by-nc-sa/4.0/
# or send a letter to
# Creative Commons, PO Box 1866, Mountain View, CA 94042, USA.
#
# CIF created using the CSD Python API on 29 September 2022
# The structure has been converted into the P1 space group
# The structure has a 3D framework
# The original CSD entry GERNOI is in the orthorhombic crystal system
# The original CSD entry GERNOI is in a Sohncke space group
# The framework has been calculated to contain at least 10.0% void space
# The void calculation uses a probe of radius 1.32A, grid spacing 0.4
#
###############################################################################

data_GERNOI
_chemical_formula_moiety         '(C158 H136 N32 O36 Zn9 4-)n'
_symmetry_cell_setting           triclinic
_symmetry_space_group_name_H-M   'P 1'
_symmetry_Int_Tables_number      1
_space_group_name_Hall           'P 1'
loop_
_symmetry_equiv_pos_site_id
_symmetry_equiv_pos_as_xyz
1 x,y,z
_cell_length_a                   18.743(4)
_cell_length_b                   24.386(5)
_cell_length_c                   11.392(2)
_cell_angle_alpha                90
_cell_angle_beta                 90
_cell_angle_gamma                90
_cell_volume                     5206.9
loop_
_atom_site_label
_atom_site_type_symbol
_atom_site_fract_x
_atom_site_fract_y
_atom_site_fract_z
Zn5 Zn -0.0000 0.0000 0.53791(9)
Zn9 Zn 0.29907(4) 0.51798(3) 0.46677(7)
C68 C 0.1461(4) 0.5535(4) 0.4849(11)
H58 H 0.1670 0.5871 0.5062
C69 C 0.0727(4) 0.5502(3) 0.4801(13)
H59 H 0.0454 0.5815 0.4970
C70 C 0.0389(4) 0.5027(3) 0.4514(7)
C71 C 0.0831(5) 0.4589(4) 0.4263(11)
H60 H 0.0636 0.4247 0.4061
C72 C 0.1566(4) 0.4657(4) 0.4312(9)
H61 H 0.1857 0.4357 0.4119
N16 N 0.1878(3) 0.5122(2) 0.4615(5)
Zn5_2 Zn -0.0000 1.0000 0.53791(9)
Zn11 Zn 0.20093(4) 0.01798(3) 0.53323(7)
C24 C 0.7056(4) 0.4778(3) 0.0321(6)
C25 C 0.7199(5) 0.4328(3) 0.0943(7)
H20 H 0.7318 0.4001 0.0552
C26 C 0.7174(5) 0.4336(3) 0.2182(6)
H21 H 0.7283 0.4015 0.2603
C27 C 0.6851(4) 0.5244(3) 0.2121(6)
H22 H 0.6709 0.5562 0.2525
C28 C 0.6891(5) 0.5273(3) 0.0939(6)
H23 H 0.6814 0.5604 0.0538
N5 N 0.6999(3) 0.4794(2) 0.2771(5)
Zn7 Zn 0.70093(4) 0.48202(3) 0.46677(7)
C63 C 0.2944(4) 0.5222(3) 0.0321(6)
C64 C 0.2801(5) 0.5672(3) 0.0943(7)
H54 H 0.2682 0.5999 0.0552
C65 C 0.2826(5) 0.5664(3) 0.2182(6)
H55 H 0.2717 0.5985 0.2603
C66 C 0.3149(4) 0.4756(3) 0.2121(6)
H56 H 0.3291 0.4438 0.2525
C67 C 0.3109(5) 0.4727(3) 0.0939(6)
H57 H 0.3186 0.4396 0.0538
N13 N 0.3001(3) 0.5206(2) 0.2771(5)
Zn1 Zn 0.5000 0.5000 0.46209(9)
C1 C 0.6187(3) 0.3970(2) 0.4650(6)
C2 C 0.5702(3) 0.3467(2) 0.4679(7)
H1 H 0.5255 0.3551 0.4253
C3 C 0.5526(4) 0.3322(3) 0.5937(6)
H2 H 0.5948 0.3178 0.6321
H3 H 0.5151 0.3048 0.5949
H4 H 0.5365 0.3648 0.6347
C4 C 0.6137(4) 0.2976(3) 0.2940(7)
C5 C 0.6604(4) 0.2531(3) 0.2493(6)
C6 C 0.6489(5) 0.2315(3) 0.1381(6)
H5 H 0.6098 0.2436 0.0933
C7 C 0.6942(5) 0.1927(3) 0.0933(6)
C8 C 0.7523(5) 0.1726(3) 0.1602(6)
H6 H 0.7837 0.1463 0.1290
C9 C 0.7616(4) 0.1927(3) 0.2729(6)
C10 C 0.7161(4) 0.2330(3) 0.3178(6)
H7 H 0.7230 0.2466 0.3942
C15 C 0.8199(4) 0.1698(3) 0.3467(6)
C16 C 0.8538(5) 0.1709(3) 0.6660(7)
H12 H 0.8083 0.1566 0.6924
H13 H 0.8531 0.2107 0.6699
H14 H 0.8916 0.1570 0.7159
C17 C 0.8671(4) 0.1530(3) 0.5397(7)
H15 H 0.9128 0.1692 0.5131
C18 C 0.8742(4) 0.0904(2) 0.5363(6)
C19 C 0.7364(4) 0.5205(3) 0.8377(6)
H16 H 0.7599 0.5496 0.8757
C20 C 0.7314(4) 0.5199(3) 0.7176(6)
H17 H 0.7481 0.5506 0.6763
C21 C 0.6778(4) 0.4370(3) 0.7177(6)
H18 H 0.6575 0.4074 0.6765
C22 C 0.6780(5) 0.4343(3) 0.8414(6)
H19 H 0.6592 0.4039 0.8814
C23 C 0.7074(4) 0.4789(3) 0.9023(6)
C29 C 0.8539(4) 0.4465(4) 0.4849(11)
H24 H 0.8330 0.4129 0.5062
C30 C 0.9273(4) 0.4498(3) 0.4801(13)
H25 H 0.9546 0.4185 0.4970
C31 C 0.9611(4) 0.4973(3) 0.4514(7)
C32 C 0.9169(5) 0.5411(4) 0.4263(11)
H26 H 0.9364 0.5753 0.4061
C33 C 0.8434(4) 0.5343(4) 0.4312(9)
H27 H 0.8143 0.5643 0.4119
C34 C 0.5106(4) 0.4542(3) 0.2127(6)
H28 H 0.5191 0.4215 0.2542
C35 C 0.5096(4) 0.4523(3) 0.0940(6)
H29 H 0.5154 0.4185 0.0557
C36 C 0.5000 0.5000 0.0277(9)
N1 N 0.6055(3) 0.3010(2) 0.4110(5)
H32 H 0.6222 0.2746 0.4545
N3 N 0.8110(3) 0.1724(2) 0.4641(5)
H34 H 0.7719 0.1857 0.4937
N4 N 0.7042(3) 0.4782(2) 0.6555(5)
N6 N 0.8122(3) 0.4878(2) 0.4615(5)
N7 N 0.5000 0.5000 0.2730(7)
O1 O 0.5917(2) 0.44544(16) 0.4670(4)
O2 O 0.6854(2) 0.39223(17) 0.4637(4)
O3 O 0.5858(3) 0.3314(2) 0.2270(4)
O7 O 0.8180(2) 0.06337(17) 0.5251(4)
O8 O 0.9359(2) 0.07042(17) 0.5460(4)
O9 O 0.8734(3) 0.1484(2) 0.3031(5)
Zn5_3 Zn 1.0000 0.0000 0.53791(9)
C40 C 0.3813(3) 0.6030(2) 0.4650(6)
C41 C 0.4298(3) 0.6533(2) 0.4679(7)
H35 H 0.4745 0.6449 0.4253
C42 C 0.4474(4) 0.6678(3) 0.5937(6)
H36 H 0.4052 0.6822 0.6321
H37 H 0.4849 0.6952 0.5949
H38 H 0.4635 0.6352 0.6347
C43 C 0.3863(4) 0.7024(3) 0.2940(7)
C44 C 0.3396(4) 0.7469(3) 0.2493(6)
C45 C 0.3511(5) 0.7685(3) 0.1381(6)
H39 H 0.3902 0.7564 0.0933
C46 C 0.3058(5) 0.8073(3) 0.0933(6)
C47 C 0.2477(5) 0.8274(3) 0.1602(6)
H40 H 0.2163 0.8537 0.1290
C48 C 0.2384(4) 0.8073(3) 0.2729(6)
C49 C 0.2839(4) 0.7670(3) 0.3178(6)
H41 H 0.2770 0.7534 0.3942
C54 C 0.1801(4) 0.8302(3) 0.3467(6)
C55 C 0.1462(5) 0.8291(3) 0.6660(7)
H46 H 0.1917 0.8434 0.6924
H47 H 0.1469 0.7893 0.6699
H48 H 0.1084 0.8430 0.7159
C56 C 0.1329(4) 0.8470(3) 0.5397(7)
H49 H 0.0872 0.8308 0.5131
C57 C 0.1258(4) 0.9096(2) 0.5363(6)
C58 C 0.2636(4) 0.4795(3) 0.8377(6)
H50 H 0.2401 0.4504 0.8757
C59 C 0.2686(4) 0.4801(3) 0.7176(6)
H51 H 0.2519 0.4494 0.6763
C60 C 0.3222(4) 0.5630(3) 0.7177(6)
H52 H 0.3425 0.5926 0.6765
C61 C 0.3220(5) 0.5657(3) 0.8414(6)
H53 H 0.3408 0.5961 0.8814
C62 C 0.2926(4) 0.5211(3) 0.9023(6)
C73 C 0.4894(4) 0.5458(3) 0.2127(6)
H62 H 0.4809 0.5785 0.2542
C74 C 0.4904(4) 0.5477(3) 0.0940(6)
H63 H 0.4846 0.5815 0.0557
N9 N 0.3945(3) 0.6990(2) 0.4110(5)
H66 H 0.3778 0.7254 0.4545
N11 N 0.1890(3) 0.8276(2) 0.4641(5)
H68 H 0.2281 0.8143 0.4937
N12 N 0.2958(3) 0.5218(2) 0.6555(5)
N18 N 0.5000 0.5000 0.6496(7)
O10 O 0.4083(2) 0.55456(16) 0.4670(4)
O11 O 0.3146(2) 0.60777(17) 0.4637(4)
O12 O 0.4142(3) 0.6686(2) 0.2270(4)
O16 O 0.1820(2) 0.93663(17) 0.5251(4)
O17 O 0.6820(2) 0.56337(17) 0.4749(4)
O18 O 0.3180(2) 0.43663(17) 0.4749(4)
O19 O 0.0641(2) 0.92958(17) 0.5460(4)
O20 O 0.5641(2) 0.57042(17) 0.4540(4)
O21 O 0.4359(2) 0.42958(17) 0.4540(4)
O22 O 0.1266(3) 0.8516(2) 0.3031(5)
C11 C 0.6826(5) 0.1684(3) 0.9712(8)
C12 C 0.5515(6) 0.1870(6) 0.7588(10)
H8 H 0.5368 0.2251 0.7616
H9 H 0.5278 0.1668 0.8211
H10 H 0.5385 0.1714 0.6835
C13 C 0.6330(5) 0.1833(4) 0.7753(7)
H11 H 0.6478 0.1446 0.7643
C14 C 0.6701(5) 0.2185(4) 0.6822(7)
C37 C 0.5000 0.5000 0.8976(9)
C38 C 0.4658(4) 0.4600(3) 0.8326(6)
H30 H 0.4415 0.4316 0.8718
C39 C 0.4665(4) 0.4609(3) 0.7122(6)
H31 H 0.4424 0.4329 0.6715
N2 N 0.6501(4) 0.1998(3) 0.8957(5)
H33 H 0.6377 0.2326 0.9181
O4 O 0.7055(4) 0.2595(3) 0.7161(5)
O5 O 0.6650(3) 0.2043(3) 0.5783(5)
O6 O 0.7033(5) 0.1225(3) 0.9479(6)
C50 C 0.3174(5) 0.8316(3) 0.9712(8)
C51 C 0.4485(6) 0.8130(6) 0.7588(10)
H42 H 0.4632 0.7749 0.7616
H43 H 0.4722 0.8332 0.8211
H44 H 0.4615 0.8286 0.6835
C52 C 0.3670(5) 0.8167(4) 0.7753(7)
H45 H 0.3522 0.8554 0.7643
C53 C 0.3299(5) 0.7815(4) 0.6822(7)
C75 C 0.5342(4) 0.5400(3) 0.8326(6)
H64 H 0.5585 0.5684 0.8718
C76 C 0.5335(4) 0.5391(3) 0.7122(6)
H65 H 0.5576 0.5671 0.6715
N10 N 0.3499(4) 0.8002(3) 0.8957(5)
H67 H 0.3623 0.7674 0.9181
O13 O 0.2945(4) 0.7405(3) 0.7161(5)
O14 O 0.3350(3) 0.7957(3) 0.5783(5)
O15 O 0.2967(5) 0.8775(3) 0.9479(6)
Zn5_4 Zn 1.0000 1.0000 0.53791(9)
Zn10 Zn 0.79907(4) 0.98202(3) 0.53323(7)
C37_2 C 0.0000 0.0000 0.1024(9)
N8 N 0.0000 0.0000 0.3504(7)
C50_2 C 0.1826(5) 0.3316(3) 0.0288(8)
C51_2 C 0.0515(6) 0.3130(6) 0.2412(10)
H42_2 H 0.0368 0.2749 0.2384
H43_2 H 0.0278 0.3332 0.1789
H44_2 H 0.0385 0.3286 0.3165
C52_2 C 0.1330(5) 0.3167(4) 0.2247(7)
H45_2 H 0.1478 0.3554 0.2357
C53_2 C 0.1701(5) 0.2815(4) 0.3178(7)
N10_2 N 0.1501(4) 0.3002(3) 0.1043(5)
H67_2 H 0.1377 0.2674 0.0819
O13_2 O 0.2055(4) 0.2405(3) 0.2839(5)
O14_2 O 0.1650(3) 0.2957(3) 0.4217(5)
O15_2 O 0.2033(5) 0.3775(3) 0.0521(6)
C36_2 C 0.0000 0.0000 0.9723(9)
N7_2 N 0.0000 0.0000 0.7270(7)
C40_2 C 0.1187(3) 0.1030(2) 0.5350(6)
C41_2 C 0.0702(3) 0.1533(2) 0.5321(7)
H35_2 H 0.0255 0.1449 0.5747
C42_2 C 0.0526(4) 0.1678(3) 0.4063(6)
H36_2 H 0.0948 0.1822 0.3679
H37_2 H 0.0151 0.1952 0.4051
H38_2 H 0.0365 0.1352 0.3653
C43_2 C 0.1137(4) 0.2024(3) 0.7060(7)
C44_2 C 0.1604(4) 0.2469(3) 0.7507(6)
C45_2 C 0.1489(5) 0.2685(3) 0.8619(6)
H39_2 H 0.1098 0.2564 0.9067
C46_2 C 0.1942(5) 0.3073(3) 0.9067(6)
C47_2 C 0.2523(5) 0.3274(3) 0.8398(6)
H40_2 H 0.2837 0.3537 0.8710
C48_2 C 0.2616(4) 0.3073(3) 0.7271(6)
C49_2 C 0.2161(4) 0.2670(3) 0.6822(6)
H41_2 H 0.2230 0.2534 0.6058
C54_2 C 0.3199(4) 0.3302(3) 0.6533(6)
C55_2 C 0.3538(5) 0.3291(3) 0.3340(7)
H46_2 H 0.3083 0.3434 0.3076
H47_2 H 0.3531 0.2893 0.3301
H48_2 H 0.3916 0.3430 0.2841
C56_2 C 0.3671(4) 0.3470(3) 0.4603(7)
H49_2 H 0.4128 0.3308 0.4869
C57_2 C 0.3742(4) 0.4096(2) 0.4637(6)
C60_2 C 0.1778(4) 0.0630(3) 0.2823(6)
H52_2 H 0.1575 0.0926 0.3235
C61_2 C 0.1780(5) 0.0657(3) 0.1586(6)
H53_2 H 0.1592 0.0961 0.1186
C62_2 C 0.2074(4) 0.0211(3) 0.0977(6)
C73_2 C 0.0106(4) 0.0458(3) 0.7873(6)
H62_2 H 0.0191 0.0785 0.7458
C74_2 C 0.0096(4) 0.0477(3) 0.9060(6)
H63_2 H 0.0154 0.0815 0.9443
N9_2 N 0.1055(3) 0.1990(2) 0.5890(5)
H66_2 H 0.1222 0.2254 0.5455
N11_2 N 0.3110(3) 0.3276(2) 0.5359(5)
H68_2 H 0.2719 0.3143 0.5063
N12_2 N 0.2042(3) 0.0218(2) 0.3445(5)
N15 N 0.1999(3) 0.0206(2) 0.7229(5)
N17 N 0.3122(3) 0.0122(2) 0.5385(5)
O10_2 O 0.0917(2) 0.05456(16) 0.5330(4)
O11_2 O 0.1854(2) 0.10777(17) 0.5363(4)
O12_2 O 0.0858(3) 0.1686(2) 0.7730(4)
O22_2 O 0.3734(3) 0.3516(2) 0.6969(5)
C63_2 C 0.2056(4) 0.0222(3) 0.9679(6)
C64_2 C 0.2199(5) 0.0672(3) 0.9057(7)
H54_2 H 0.2318 0.0999 0.9448
C65_2 C 0.2174(5) 0.0664(3) 0.7818(6)
H55_2 H 0.2283 0.0985 0.7397
C37_3 C 0.0000 1.0000 0.1024(9)
C38_2 C 0.0342(4) 0.9600(3) 0.1674(6)
H30_2 H 0.0585 0.9316 0.1282
C39_2 C 0.0335(4) 0.9609(3) 0.2878(6)
H31_2 H 0.0576 0.9329 0.3285
N8_2 N 0.0000 1.0000 0.3504(7)
C36_3 C 0.0000 1.0000 0.9723(9)
N7_3 N 0.0000 1.0000 0.7270(7)
C58_2 C 0.2364(4) 0.9795(3) 0.1623(6)
H50_2 H 0.2599 0.9504 0.1243
C59_2 C 0.2314(4) 0.9801(3) 0.2824(6)
H51_2 H 0.2481 0.9494 0.3237
C37_4 C 1.0000 0.0000 0.1024(9)
N8_3 N 1.0000 0.0000 0.3504(7)
C75_2 C 0.9658(4) 0.0400(3) 0.1674(6)
H64_2 H 0.9415 0.0684 0.1282
C76_2 C 0.9665(4) 0.0391(3) 0.2878(6)
H65_2 H 0.9424 0.0671 0.3285
C19_2 C 0.7636(4) 0.0205(3) 0.1623(6)
H16_2 H 0.7401 0.0496 0.1243
C20_2 C 0.7686(4) 0.0199(3) 0.2824(6)
H17_2 H 0.7519 0.0506 0.3237
C32_2 C 0.5831(5) 0.0411(4) 0.5737(11)
H26_2 H 0.5636 0.0753 0.5939
C33_2 C 0.6566(4) 0.0343(4) 0.5688(9)
H27_2 H 0.6857 0.0643 0.5881
C36_4 C 1.0000 0.0000 0.9723(9)
N7_4 N 1.0000 0.0000 0.7270(7)
C68_2 C 0.3539(4) 0.0535(4) 0.5151(11)
H58_2 H 0.3330 0.0871 0.4938
C69_2 C 0.4273(4) 0.0502(3) 0.5199(13)
H59_2 H 0.4546 0.0815 0.5030
C70_2 C 0.4611(4) 0.0027(3) 0.5486(7)
C11_2 C 0.8174(5) 0.6684(3) 0.0288(8)
C12_2 C 0.9485(6) 0.6870(6) 0.2412(10)
H8_2 H 0.9632 0.7251 0.2384
H9_2 H 0.9722 0.6668 0.1789
H10_2 H 0.9615 0.6714 0.3165
C13_2 C 0.8670(5) 0.6833(4) 0.2247(7)
H11_2 H 0.8522 0.6446 0.2357
C14_2 C 0.8299(5) 0.7185(4) 0.3178(7)
C37_5 C 1.0000 1.0000 0.1024(9)
N2_2 N 0.8499(4) 0.6998(3) 0.1043(5)
H33_2 H 0.8623 0.7326 0.0819
N8_4 N 1.0000 1.0000 0.3504(7)
O4_2 O 0.7945(4) 0.7595(3) 0.2839(5)
O5_2 O 0.8350(3) 0.7043(3) 0.4217(5)
O6_2 O 0.7967(5) 0.6225(3) 0.0521(6)
C1_2 C 0.8813(3) 0.8970(2) 0.5350(6)
C2_2 C 0.9298(3) 0.8467(2) 0.5321(7)
H1_2 H 0.9745 0.8551 0.5747
C3_2 C 0.9474(4) 0.8322(3) 0.4063(6)
H2_2 H 0.9052 0.8178 0.3679
H3_2 H 0.9849 0.8048 0.4051
H4_2 H 0.9635 0.8648 0.3653
C4_2 C 0.8863(4) 0.7976(3) 0.7060(7)
C5_2 C 0.8396(4) 0.7531(3) 0.7507(6)
C6_2 C 0.8511(5) 0.7315(3) 0.8619(6)
H5_2 H 0.8902 0.7436 0.9067
C7_2 C 0.8058(5) 0.6927(3) 0.9067(6)
C8_2 C 0.7477(5) 0.6726(3) 0.8398(6)
H6_2 H 0.7163 0.6463 0.8710
C9_2 C 0.7384(4) 0.6927(3) 0.7271(6)
C10_2 C 0.7839(4) 0.7330(3) 0.6822(6)
H7_2 H 0.7770 0.7466 0.6058
C15_2 C 0.6801(4) 0.6698(3) 0.6533(6)
C16_2 C 0.6462(5) 0.6709(3) 0.3340(7)
H12_2 H 0.6917 0.6566 0.3076
H13_2 H 0.6469 0.7107 0.3301
H14_2 H 0.6084 0.6570 0.2841
C17_2 C 0.6329(4) 0.6530(3) 0.4603(7)
H15_2 H 0.5872 0.6692 0.4869
C18_2 C 0.6258(4) 0.5904(2) 0.4637(6)
C21_2 C 0.8222(4) 0.9370(3) 0.2823(6)
H18_2 H 0.8425 0.9074 0.3235
C22_2 C 0.8220(5) 0.9343(3) 0.1586(6)
H19_2 H 0.8408 0.9039 0.1186
C23_2 C 0.7926(4) 0.9789(3) 0.0977(6)
C29_2 C 0.6461(4) 0.9465(4) 0.5151(11)
H24_2 H 0.6670 0.9129 0.4938
C30_2 C 0.5727(4) 0.9498(3) 0.5199(13)
H25_2 H 0.5454 0.9185 0.5030
C31_2 C 0.5389(4) 0.9973(3) 0.5486(7)
C34_2 C 0.9894(4) 0.9542(3) 0.7873(6)
H28_2 H 0.9809 0.9215 0.7458
C35_2 C 0.9904(4) 0.9523(3) 0.9060(6)
H29_2 H 0.9846 0.9185 0.9443
C36_5 C 1.0000 1.0000 0.9723(9)
N1_2 N 0.8945(3) 0.8010(2) 0.5890(5)
H32_2 H 0.8778 0.7746 0.5455
N3_2 N 0.6890(3) 0.6724(2) 0.5359(5)
H34_2 H 0.7281 0.6857 0.5063
N4_2 N 0.7958(3) 0.9782(2) 0.3445(5)
N6_2 N 0.6878(3) 0.9878(2) 0.5385(5)
N7_5 N 1.0000 1.0000 0.7270(7)
O1_2 O 0.9083(2) 0.94544(16) 0.5330(4)
O2_2 O 0.8146(2) 0.89223(17) 0.5363(4)
O3_2 O 0.9142(3) 0.8314(2) 0.7730(4)
O9_2 O 0.6266(3) 0.6484(2) 0.6969(5)
C71_2 C 0.4169(5) 0.9589(4) 0.5737(11)
H60_2 H 0.4364 0.9247 0.5939
C72_2 C 0.3434(4) 0.9657(4) 0.5688(9)
H61_2 H 0.3143 0.9357 0.5881
N14 N 0.8001(3) 0.9794(2) 0.7229(5)
C24_2 C 0.7944(4) 0.9778(3) 0.9679(6)
C25_2 C 0.7801(5) 0.9328(3) 0.9057(7)
H20_2 H 0.7682 0.9001 0.9448
C26_2 C 0.7826(5) 0.9336(3) 0.7818(6)
H21_2 H 0.7717 0.9015 0.7397
C66_2 C 0.1851(4) 0.9756(3) 0.7879(6)
H56_2 H 0.1709 0.9438 0.7475
C67_2 C 0.1891(5) 0.9727(3) 0.9061(6)
H57_2 H 0.1814 0.9396 0.9462
C27_2 C 0.8149(4) 0.0244(3) 0.7879(6)
H22_2 H 0.8291 0.0562 0.7475
C28_2 C 0.8109(5) 0.0273(3) 0.9061(6)
H23_2 H 0.8186 0.0604 0.9462
loop_
_geom_bond_atom_site_label_1
_geom_bond_atom_site_label_2
_geom_bond_site_symmetry_1
_geom_bond_site_symmetry_2
Zn9 N16 1_555 1_555
C68 H58 1_555 1_555
C69 C68 1_555 1_555
H59 C69 1_555 1_555
C71 C70 1_555 1_555
H60 C71 1_555 1_555
C72 C71 1_555 1_555
H61 C72 1_555 1_555
N16 C68 1_555 1_555
C69 C70 1_555 1_555
C72 N16 1_555 1_555
C25 C24 1_555 1_555
H20 C25 1_555 1_555
C26 C25 1_555 1_555
H21 C26 1_555 1_555
C27 H22 1_555 1_555
C28 C24 1_555 1_555
H23 C28 1_555 1_555
N5 C26 1_555 1_555
Zn7 N5 1_555 1_555
Zn9 N13 1_555 1_555
C64 C63 1_555 1_555
H54 C64 1_555 1_555
C65 C64 1_555 1_555
H55 C65 1_555 1_555
C66 H56 1_555 1_555
C67 C63 1_555 1_555
H57 C67 1_555 1_555
N13 C65 1_555 1_555
C27 C28 1_555 1_555
C27 N5 1_555 1_555
C66 C67 1_555 1_555
C66 N13 1_555 1_555
Zn1 N7 1_555 1_555
Zn7 N4 1_555 1_555
C1 C2 1_555 1_555
C2 H1 1_555 1_555
C3 C2 1_555 1_555
H2 C3 1_555 1_555
H3 C3 1_555 1_555
H4 C3 1_555 1_555
C4 C5 1_555 1_555
C5 C6 1_555 1_555
C6 H5 1_555 1_555
C7 C6 1_555 1_555
C8 C7 1_555 1_555
H6 C8 1_555 1_555
C9 C8 1_555 1_555
C10 C5 1_555 1_555
H7 C10 1_555 1_555
C15 C9 1_555 1_555
C16 H12 1_555 1_555
H13 C16 1_555 1_555
H14 C16 1_555 1_555
C17 C16 1_555 1_555
H15 C17 1_555 1_555
C18 C17 1_555 1_555
C19 H16 1_555 1_555
C20 C19 1_555 1_555
H17 C20 1_555 1_555
C21 H18 1_555 1_555
C22 C21 1_555 1_555
H19 C22 1_555 1_555
C23 C19 1_555 1_555
C29 H24 1_555 1_555
C30 C29 1_555 1_555
H25 C30 1_555 1_555
C31 C30 1_555 1_555
C32 C31 1_555 1_555
H26 C32 1_555 1_555
C33 C32 1_555 1_555
H27 C33 1_555 1_555
C34 H28 1_555 1_555
C35 C34 1_555 1_555
H29 C35 1_555 1_555
C36 C35 1_555 1_555
N1 C2 1_555 1_555
H32 N1 1_555 1_555
N3 C15 1_555 1_555
H34 N3 1_555 1_555
N4 C20 1_555 1_555
N6 Zn7 1_555 1_555
N7 C34 1_555 1_555
O1 Zn1 1_555 1_555
O2 Zn7 1_555 1_555
O3 C4 1_555 1_555
O7 C18 1_555 1_555
O8 C18 1_555 1_555
O9 C15 1_555 1_555
Zn5_2 O19 1_555 1_555
Zn5_3 O8 1_555 1_555
Zn9 N12 1_555 1_555
C40 C41 1_555 1_555
C41 H35 1_555 1_555
C42 C41 1_555 1_555
H36 C42 1_555 1_555
H37 C42 1_555 1_555
H38 C42 1_555 1_555
C43 C44 1_555 1_555
C44 C45 1_555 1_555
C45 H39 1_555 1_555
C46 C45 1_555 1_555
C47 C46 1_555 1_555
H40 C47 1_555 1_555
C48 C47 1_555 1_555
C49 C44 1_555 1_555
H41 C49 1_555 1_555
C54 C48 1_555 1_555
C55 H46 1_555 1_555
H47 C55 1_555 1_555
H48 C55 1_555 1_555
C56 C55 1_555 1_555
H49 C56 1_555 1_555
C57 C56 1_555 1_555
C58 H50 1_555 1_555
C59 C58 1_555 1_555
H51 C59 1_555 1_555
C60 H52 1_555 1_555
C61 C60 1_555 1_555
H53 C61 1_555 1_555
C62 C58 1_555 1_555
C73 N7 1_555 1_555
H62 C73 1_555 1_555
C74 C36 1_555 1_555
H63 C74 1_555 1_555
N9 C41 1_555 1_555
H66 N9 1_555 1_555
N11 C54 1_555 1_555
H68 N11 1_555 1_555
N12 C59 1_555 1_555
N18 Zn1 1_555 1_555
O10 Zn1 1_555 1_555
O11 Zn9 1_555 1_555
O12 C43 1_555 1_555
O16 C57 1_555 1_555
O17 Zn7 1_555 1_555
O18 Zn9 1_555 1_555
O19 C57 1_555 1_555
O20 Zn1 1_555 1_555
O21 Zn1 1_555 1_555
O22 C54 1_555 1_555
Zn7 O1 1_555 1_555
C1 O1 1_555 1_555
C1 O2 1_555 1_555
C4 N1 1_555 1_555
C9 C10 1_555 1_555
C17 N3 1_555 1_555
C21 N4 1_555 1_555
C22 C23 1_555 1_555
C29 N6 1_555 1_555
C33 N6 1_555 1_555
Zn9 O10 1_555 1_555
C40 O10 1_555 1_555
C40 O11 1_555 1_555
C43 N9 1_555 1_555
C48 C49 1_555 1_555
C56 N11 1_555 1_555
C60 N12 1_555 1_555
C61 C62 1_555 1_555
C73 C74 1_555 1_555
C12 H8 1_555 1_555
H9 C12 1_555 1_555
H10 C12 1_555 1_555
C13 C12 1_555 1_555
H11 C13 1_555 1_555
C14 C13 1_555 1_555
C38 C37 1_555 1_555
H30 C38 1_555 1_555
C39 C38 1_555 1_555
H31 C39 1_555 1_555
N2 C11 1_555 1_555
H33 N2 1_555 1_555
N18 C39 1_555 1_555
O4 C14 1_555 1_555
O5 C14 1_555 1_555
O6 C11 1_555 1_555
C51 H42 1_555 1_555
H43 C51 1_555 1_555
H44 C51 1_555 1_555
C52 C51 1_555 1_555
H45 C52 1_555 1_555
C53 C52 1_555 1_555
C75 C37 1_555 1_555
H64 C75 1_555 1_555
C76 N18 1_555 1_555
H65 C76 1_555 1_555
N10 C50 1_555 1_555
H67 N10 1_555 1_555
O13 C53 1_555 1_555
O14 C53 1_555 1_555
O15 C50 1_555 1_555
C13 N2 1_555 1_555
C52 N10 1_555 1_555
C75 C76 1_555 1_555
Zn5 N8 1_555 1_555
C51_2 H42_2 1_555 1_555
H43_2 C51_2 1_555 1_555
H44_2 C51_2 1_555 1_555
C52_2 C51_2 1_555 1_555
H45_2 C52_2 1_555 1_555
C53_2 C52_2 1_555 1_555
N10_2 C50_2 1_555 1_555
H67_2 N10_2 1_555 1_555
O13_2 C53_2 1_555 1_555
O14_2 C53_2 1_555 1_555
O15_2 C50_2 1_555 1_555
C52_2 N10_2 1_555 1_555
Zn5 N7_2 1_555 1_555
Zn11 N12_2 1_555 1_555
C40_2 C41_2 1_555 1_555
C41_2 H35_2 1_555 1_555
C42_2 C41_2 1_555 1_555
H36_2 C42_2 1_555 1_555
H37_2 C42_2 1_555 1_555
H38_2 C42_2 1_555 1_555
C43_2 C44_2 1_555 1_555
C44_2 C45_2 1_555 1_555
C45_2 H39_2 1_555 1_555
C46_2 C45_2 1_555 1_555
C47_2 C46_2 1_555 1_555
H40_2 C47_2 1_555 1_555
C48_2 C47_2 1_555 1_555
C49_2 C44_2 1_555 1_555
H41_2 C49_2 1_555 1_555
C54_2 C48_2 1_555 1_555
C55_2 H46_2 1_555 1_555
H47_2 C55_2 1_555 1_555
H48_2 C55_2 1_555 1_555
C56_2 C55_2 1_555 1_555
H49_2 C56_2 1_555 1_555
C57_2 C56_2 1_555 1_555
C60_2 H52_2 1_555 1_555
C61_2 C60_2 1_555 1_555
H53_2 C61_2 1_555 1_555
C73_2 N7_2 1_555 1_555
H62_2 C73_2 1_555 1_555
C74_2 C36_2 1_555 1_555
H63_2 C74_2 1_555 1_555
N9_2 C41_2 1_555 1_555
H66_2 N9_2 1_555 1_555
N11_2 C54_2 1_555 1_555
H68_2 N11_2 1_555 1_555
N15 Zn11 1_555 1_555
N17 Zn11 1_555 1_555
O10_2 Zn5 1_555 1_555
O11_2 Zn11 1_555 1_555
O12_2 C43_2 1_555 1_555
O18 C57_2 1_555 1_555
O21 C57_2 1_555 1_555
O22_2 C54_2 1_555 1_555
Zn11 O10_2 1_555 1_555
C40_2 O10_2 1_555 1_555
C40_2 O11_2 1_555 1_555
C43_2 N9_2 1_555 1_555
C48_2 C49_2 1_555 1_555
C56_2 N11_2 1_555 1_555
C60_2 N12_2 1_555 1_555
C61_2 C62_2 1_555 1_555
C73_2 C74_2 1_555 1_555
C64_2 C63_2 1_555 1_555
H54_2 C64_2 1_555 1_555
C65_2 C64_2 1_555 1_555
H55_2 C65_2 1_555 1_555
N15 C65_2 1_555 1_555
C38_2 C37_3 1_555 1_555
H30_2 C38_2 1_555 1_555
C39_2 C38_2 1_555 1_555
H31_2 C39_2 1_555 1_555
N8_2 C39_2 1_555 1_555
Zn5_2 N8_2 1_555 1_555
Zn5_2 N7_3 1_555 1_555
C58_2 H50_2 1_555 1_555
C59_2 C58_2 1_555 1_555
H51_2 C59_2 1_555 1_555
Zn5_3 N8_3 1_555 1_555
C75_2 C37_4 1_555 1_555
H64_2 C75_2 1_555 1_555
C76_2 N8_3 1_555 1_555
H65_2 C76_2 1_555 1_555
C75_2 C76_2 1_555 1_555
Zn5_3 N7_4 1_555 1_555
C19_2 H16_2 1_555 1_555
C20_2 C19_2 1_555 1_555
H17_2 C20_2 1_555 1_555
H26_2 C32_2 1_555 1_555
C33_2 C32_2 1_555 1_555
H27_2 C33_2 1_555 1_555
C68_2 H58_2 1_555 1_555
C69_2 C68_2 1_555 1_555
H59_2 C69_2 1_555 1_555
N17 C68_2 1_555 1_555
C69_2 C70_2 1_555 1_555
C12_2 H8_2 1_555 1_555
H9_2 C12_2 1_555 1_555
H10_2 C12_2 1_555 1_555
C13_2 C12_2 1_555 1_555
H11_2 C13_2 1_555 1_555
C14_2 C13_2 1_555 1_555
N2_2 C11_2 1_555 1_555
H33_2 N2_2 1_555 1_555
O4_2 C14_2 1_555 1_555
O5_2 C14_2 1_555 1_555
O6_2 C11_2 1_555 1_555
Zn5_4 N8_4 1_555 1_555
C13_2 N2_2 1_555 1_555
Zn5_4 N7_5 1_555 1_555
Zn10 N4_2 1_555 1_555
C1_2 C2_2 1_555 1_555
C2_2 H1_2 1_555 1_555
C3_2 C2_2 1_555 1_555
H2_2 C3_2 1_555 1_555
H3_2 C3_2 1_555 1_555
H4_2 C3_2 1_555 1_555
C4_2 C5_2 1_555 1_555
C5_2 C6_2 1_555 1_555
C6_2 H5_2 1_555 1_555
C7_2 C6_2 1_555 1_555
C8_2 C7_2 1_555 1_555
H6_2 C8_2 1_555 1_555
C9_2 C8_2 1_555 1_555
C10_2 C5_2 1_555 1_555
H7_2 C10_2 1_555 1_555
C15_2 C9_2 1_555 1_555
C16_2 H12_2 1_555 1_555
H13_2 C16_2 1_555 1_555
H14_2 C16_2 1_555 1_555
C17_2 C16_2 1_555 1_555
H15_2 C17_2 1_555 1_555
C18_2 C17_2 1_555 1_555
C21_2 H18_2 1_555 1_555
C22_2 C21_2 1_555 1_555
H19_2 C22_2 1_555 1_555
C29_2 H24_2 1_555 1_555
C30_2 C29_2 1_555 1_555
H25_2 C30_2 1_555 1_555
C31_2 C30_2 1_555 1_555
C34_2 H28_2 1_555 1_555
C35_2 C34_2 1_555 1_555
H29_2 C35_2 1_555 1_555
C36_5 C35_2 1_555 1_555
N1_2 C2_2 1_555 1_555
H32_2 N1_2 1_555 1_555
N3_2 C15_2 1_555 1_555
H34_2 N3_2 1_555 1_555
N6_2 Zn10 1_555 1_555
N7_5 C34_2 1_555 1_555
O1_2 Zn5_4 1_555 1_555
O2_2 Zn10 1_555 1_555
O3_2 C4_2 1_555 1_555
O17 C18_2 1_555 1_555
O20 C18_2 1_555 1_555
O9_2 C15_2 1_555 1_555
H60_2 C71_2 1_555 1_555
C72_2 C71_2 1_555 1_555
H61_2 C72_2 1_555 1_555
N14 Zn10 1_555 1_555
Zn10 O1_2 1_555 1_555
C1_2 O1_2 1_555 1_555
C1_2 O2_2 1_555 1_555
C4_2 N1_2 1_555 1_555
C9_2 C10_2 1_555 1_555
C17_2 N3_2 1_555 1_555
C21_2 N4_2 1_555 1_555
C22_2 C23_2 1_555 1_555
C29_2 N6_2 1_555 1_555
C25_2 C24_2 1_555 1_555
H20_2 C25_2 1_555 1_555
C26_2 C25_2 1_555 1_555
H21_2 C26_2 1_555 1_555
N14 C26_2 1_555 1_555
C66_2 H56_2 1_555 1_555
H57_2 C67_2 1_555 1_555
C66_2 C67_2 1_555 1_555
C27_2 H22_2 1_555 1_555
H23_2 C28_2 1_555 1_555
C27_2 C28_2 1_555 1_555

#END
