
###############################################################################
#
# This file contains modified crystal structure data generated from the
# MOF subset of the Cambridge Structural Database (CSD) v543 
# hosted by the Cambridge Crystallographic Data Centre (CCDC).
#
# This work is licensed under the Creative Commons
# Attribution-NonCommercial-ShareAlike 4.0 International License.
# To view a copy of this license, visit
# http://creativecommons.org/licenses/by-nc-sa/4.0/
# or send a letter to
# Creative Commons, PO Box 1866, Mountain View, CA 94042, USA.
#
# CIF created using the CSD Python API on 29 September 2022
# The structure has been converted into the P1 space group
# The structure has a 3D framework
# The original CSD entry GERPUP is in the hexagonal crystal system
# The framework has been calculated to contain at least 10.0% void space
# The void calculation uses a probe of radius 1.32A, grid spacing 0.4
# H atom positions have been added when not included in the experimental data
# Generated hydrogen atom positions removed from atoms on special positions
#
###############################################################################

data_GERPUP
_chemical_formula_moiety         '(C48 H144 Cu15 O78 Sm2)n'
_symmetry_cell_setting           triclinic
_symmetry_space_group_name_H-M   'P 1'
_symmetry_Int_Tables_number      1
_space_group_name_Hall           'P 1'
loop_
_symmetry_equiv_pos_site_id
_symmetry_equiv_pos_as_xyz
1 x,y,z
_cell_length_a                   14.9830(10)
_cell_length_b                   14.9830(10)
_cell_length_c                   14.8650(10)
_cell_angle_alpha                90
_cell_angle_beta                 90
_cell_angle_gamma                120
_cell_volume                     2889.97
loop_
_atom_site_label
_atom_site_type_symbol
_atom_site_fract_x
_atom_site_fract_y
_atom_site_fract_z
Cu15 Cu 0.5000 -0.0000 0.5000
Sm9 Sm 0.3333 0.6666 0.2500
C24 C 0.1295(3) 0.6435(4) 0.1400(3)
C25 C 0.3565(4) 0.8705(3) 0.3600(3)
O26 O 0.0506(2) 0.6074(3) 0.0924(2)
O27 O 0.3926(3) 0.9494(2) 0.4076(2)
O34 O 0.0506(2) 0.4432(2) 0.4076(2)
O35 O 0.0506(2) 0.4432(2) 0.5924(2)
O58 O 0.1936(2) 0.6132(3) 0.1427(2)
O59 O 0.3868(3) 0.8064(2) 0.3573(2)
C47 C 0.1488(3) 0.7335(4) 0.1983(4)
C48 C 0.2665(4) 0.8512(3) 0.3017(4)
H24 H 0.1579 0.7905 0.1609
H25 H 0.2095 0.8421 0.3391
H47 H 0.0899 0.7141 0.2373
H48 H 0.2859 0.9101 0.2627
O80 O 0.23646(14) 0.76356(33) 0.2500
Cu3 Cu 0.0000 0.5000 0.0000
Cu6 Cu -0.0000 0.5000 0.5000
Cu15_2 Cu 0.5000 1.0000 0.5000
O89 O 0.1563(4) 0.4796(6) 0.0000
O95 O 0.1563(4) 0.6767(4) 0.5000
Sm8 Sm 0.3333 0.6667 0.7500
C22 C 0.1295(3) 0.6435(4) 0.8600(3)
C23 C 0.3565(4) 0.8705(3) 0.6400(3)
O24 O 0.0506(2) 0.6074(3) 0.9076(2)
O25 O 0.3926(3) 0.9494(2) 0.5924(2)
O56 O 0.1936(2) 0.6132(3) 0.8573(2)
O57 O 0.3868(3) 0.8064(2) 0.6427(2)
C45 C 0.1488(3) 0.7335(4) 0.8017(4)
C46 C 0.2665(4) 0.8512(3) 0.6983(4)
H22 H 0.1579 0.7905 0.8391
H23 H 0.2095 0.8421 0.6609
H45 H 0.0899 0.7141 0.7627
H46 H 0.2859 0.9101 0.7373
O79 O 0.23646(14) 0.76356(33) 0.7500
Cu3_2 Cu 0.0000 0.5000 1.0000
O89_2 O 0.1563(4) 0.4796(6) 1.0000
Cu11 Cu 0.5000 -0.0000 0.0000
Cu11_2 Cu 0.5000 -0.0000 1.0000
Cu11_3 Cu 0.5000 1.0000 0.0000
Sm1 Sm 0.6667 0.3333 0.2500
C1 C 0.4860(3) 0.1295(3) 0.1400(3)
O1 O 0.4432(2) 0.0506(2) 0.0924(2)
O2 O 0.5804(2) 0.1936(2) 0.1427(2)
C2 C 0.4153(3) 0.1488(3) 0.1983(4)
H1 H 0.3674 0.1579 0.1609
H2 H 0.3758 0.0899 0.2373
O3 O 0.4729(3) 0.23646(14) 0.2500
Sm5 Sm 0.6667 0.3333 0.7500
C3 C 0.4860(3) 0.3565(4) 0.3600(3)
C4 C 0.8705(3) 0.3565(4) 0.1400(3)
C5 C 0.6435(4) 0.1295(3) 0.3600(3)
C6 C 0.6435(4) 0.5140(3) 0.1400(3)
C7 C 0.8705(3) 0.5140(3) 0.3600(3)
C14 C 0.4860(3) 0.3565(4) 0.6400(3)
C15 C 0.4860(3) 0.1295(3) 0.8600(3)
C16 C 0.5140(3) 0.6435(4) 0.6400(3)
C17 C 0.5140(3) 0.8705(3) 0.8600(3)
C18 C 0.5140(3) 0.6435(4) 0.3600(3)
C19 C 0.5140(3) 0.8705(3) 0.1400(3)
O5 O 0.4432(2) 0.3926(3) 0.4076(2)
O6 O 0.9494(2) 0.3926(3) 0.0924(2)
O7 O 0.6074(3) 0.0506(2) 0.4076(2)
O8 O 0.6074(3) 0.5568(2) 0.0924(2)
O9 O 0.9494(2) 0.5568(2) 0.4076(2)
O16 O 0.4432(2) 0.3926(3) 0.5924(2)
O17 O 0.4432(2) 0.0506(2) 0.9076(2)
O18 O 0.5568(2) 0.6074(3) 0.5924(2)
O19 O 0.5568(2) 0.9494(2) 0.9076(2)
O20 O 0.5568(2) 0.6074(3) 0.4076(2)
O21 O 0.5568(2) 0.9494(2) 0.0924(2)
O28 O 0.6074(3) 0.0506(2) 0.5924(2)
O31 O 0.3926(3) 0.4432(2) 0.0924(2)
O36 O 0.9494(2) 0.5568(2) 0.5924(2)
O37 O 0.5804(2) 0.3868(3) 0.3573(2)
O38 O 0.8064(2) 0.3868(3) 0.1427(2)
O39 O 0.6132(3) 0.1936(2) 0.3573(2)
O40 O 0.6132(3) 0.4196(2) 0.1427(2)
O41 O 0.8064(2) 0.4196(2) 0.3573(2)
O48 O 0.5804(2) 0.3868(3) 0.6427(2)
O49 O 0.5804(2) 0.1936(2) 0.8573(2)
O50 O 0.4196(2) 0.6132(3) 0.6427(2)
O51 O 0.4196(2) 0.8064(2) 0.8573(2)
O52 O 0.4196(2) 0.6132(3) 0.3573(2)
O53 O 0.4196(2) 0.8064(2) 0.1427(2)
C26 C 0.4153(3) 0.2665(4) 0.3017(4)
C27 C 0.8512(3) 0.2665(4) 0.1983(4)
C28 C 0.7335(4) 0.1488(3) 0.3017(4)
C29 C 0.7335(4) 0.5847(3) 0.1983(4)
C30 C 0.8512(3) 0.5847(3) 0.3017(4)
C37 C 0.4153(3) 0.2665(4) 0.6983(4)
C38 C 0.4153(3) 0.1488(3) 0.8017(4)
C39 C 0.5847(3) 0.7335(4) 0.6983(4)
C40 C 0.5847(3) 0.8512(3) 0.8017(4)
C41 C 0.5847(3) 0.7335(4) 0.3017(4)
C42 C 0.5847(3) 0.8512(3) 0.1983(4)
H3 H 0.3674 0.2095 0.3391
H4 H 0.8421 0.2095 0.1609
H5 H 0.7905 0.1579 0.3391
H6 H 0.7905 0.6326 0.1609
H7 H 0.8421 0.6326 0.3391
H14 H 0.3674 0.2095 0.6609
H15 H 0.3674 0.1579 0.8391
H16 H 0.6326 0.7905 0.6609
H17 H 0.6326 0.8421 0.8391
H18 H 0.6326 0.7905 0.3391
H19 H 0.6326 0.8421 0.1609
H26 H 0.3758 0.2859 0.2627
H27 H 0.9101 0.2859 0.2373
H28 H 0.7141 0.0899 0.2627
H29 H 0.7141 0.6242 0.2373
H30 H 0.9101 0.6242 0.2627
H37 H 0.3758 0.2859 0.7373
H38 H 0.3758 0.0899 0.7627
H39 H 0.6242 0.7141 0.7373
H40 H 0.6242 0.9101 0.7627
H41 H 0.6242 0.7141 0.2627
H42 H 0.6242 0.9101 0.2373
O70 O 0.76354(14) 0.23644(33) 0.2500
O71 O 0.76356(33) 0.5271(3) 0.2500
O75 O 0.4729(3) 0.23644(33) 0.7500
O76 O 0.5271(3) 0.76356(33) 0.7500
O77 O 0.5271(3) 0.76356(33) 0.2500
Cu2 Cu 0.5000 0.5000 0.5000
Cu3_3 Cu 1.0000 0.5000 0.0000
Cu5 Cu 0.5000 0.5000 0.0000
Cu6_2 Cu 1.0000 0.5000 0.5000
Cu11_4 Cu 0.5000 1.0000 1.0000
O86 O 0.6767(4) 0.1563(4) 0.0000
O87 O 0.3233(4) 0.4796(6) 0.5000
O88 O 0.6767(4) 0.5204(6) 0.5000
O90 O 0.8437(4) 0.5204(6) 0.0000
O92 O 0.4796(6) 0.1563(4) 0.5000
O93 O 0.5204(6) 0.6767(4) 0.0000
O94 O 0.4796(6) 0.3233(4) 0.0000
O96 O 0.8437(4) 0.3233(4) 0.5000
C20 C 0.8705(3) 0.3565(4) 0.8600(3)
C21 C 0.6435(4) 0.1295(3) 0.6400(3)
O22 O 0.9494(2) 0.3926(3) 0.9076(2)
O32 O 0.3926(3) 0.4432(2) 0.9076(2)
O33 O 0.6074(3) 0.5568(2) 0.9076(2)
O54 O 0.8064(2) 0.3868(3) 0.8573(2)
O55 O 0.6132(3) 0.1936(2) 0.6427(2)
O60 O 0.6132(3) 0.4196(2) 0.8573(2)
O61 O 0.8064(2) 0.4196(2) 0.6427(2)
C43 C 0.8512(3) 0.2665(4) 0.8017(4)
C44 C 0.7335(4) 0.1488(3) 0.6983(4)
H20 H 0.8421 0.2095 0.8391
H21 H 0.7905 0.1579 0.6609
H43 H 0.9101 0.2859 0.7627
H44 H 0.7141 0.0899 0.7373
O78 O 0.76354(14) 0.23644(33) 0.7500
O81 O 0.76356(33) 0.5271(3) 0.7500
Cu3_4 Cu 1.0000 0.5000 1.0000
Cu5_2 Cu 0.5000 0.5000 1.0000
O86_2 O 0.6767(4) 0.1563(4) 1.0000
O90_2 O 0.8437(4) 0.5204(6) 1.0000
O93_2 O 0.5204(6) 0.6767(4) 1.0000
O94_2 O 0.4796(6) 0.3233(4) 1.0000
O4 O 0.3233(4) 0.8437(4) 0.0000
O67 O 0.3868(3) 0.5804(2) 0.1427(2)
O68 O 0.1936(2) 0.5804(2) 0.3573(2)
O85 O 0.23644(33) 0.4729(3) 0.2500
O91 O 0.5204(6) 0.8437(4) 0.5000
O4_2 O 0.3233(4) 0.8437(4) 1.0000
O62 O 0.1936(2) 0.5804(2) 0.6427(2)
O64 O 0.3868(3) 0.5804(2) 0.8573(2)
O82 O 0.23646(14) 0.4729(3) 0.7500
C24_2 C 0.3565(4) 0.4860(5) 0.1400(3)
C25_2 C 0.1295(3) 0.4860(5) 0.3600(3)
C47_2 C 0.2665(4) 0.4153(5) 0.1983(4)
C48_2 C 0.1488(3) 0.4153(5) 0.3017(4)
H24_2 H 0.2095 0.3674 0.1609
H25_2 H 0.1579 0.3674 0.3391
H47_2 H 0.2859 0.3758 0.2373
H48_2 H 0.0899 0.3758 0.2627
C20_2 C 0.6435(4) 0.5140(5) 0.8600(3)
C21_2 C 0.8705(3) 0.5140(5) 0.6400(3)
C22_2 C 0.3565(4) 0.4860(5) 0.8600(3)
C23_2 C 0.1295(3) 0.4860(5) 0.6400(3)
C43_2 C 0.7335(4) 0.5847(5) 0.8017(4)
C44_2 C 0.8512(3) 0.5847(5) 0.6983(4)
C45_2 C 0.2665(4) 0.4153(5) 0.8017(4)
C46_2 C 0.1488(3) 0.4153(5) 0.6983(4)
H20_2 H 0.7905 0.6326 0.8391
H21_2 H 0.8421 0.6326 0.6609
H22_2 H 0.2095 0.3674 0.8391
H23_2 H 0.1579 0.3674 0.6609
H43_2 H 0.7141 0.6242 0.7627
H44_2 H 0.9101 0.6242 0.7373
H45_2 H 0.2859 0.3758 0.7627
H46_2 H 0.0899 0.3758 0.7373
loop_
_geom_bond_atom_site_label_1
_geom_bond_atom_site_label_2
_geom_bond_site_symmetry_1
_geom_bond_site_symmetry_2
Sm9 O58 1_555 1_555
C24 O26 1_555 1_555
C25 O27 1_555 1_555
O26 Cu3 1_555 1_555
O27 Cu15_2 1_555 1_555
O34 Cu6 1_555 1_555
O35 Cu6 1_555 1_555
O58 C24 1_555 1_555
O59 Sm9 1_555 1_555
C47 C24 1_555 1_555
C48 C25 1_555 1_555
H24 C47 1_555 1_555
H25 C48 1_555 1_555
H47 C47 1_555 1_555
H48 C48 1_555 1_555
O80 Sm9 1_555 1_555
Cu3 O89 1_555 1_555
Cu6 O95 1_555 1_555
C25 O59 1_555 1_555
C47 O80 1_555 1_555
C48 O80 1_555 1_555
Sm8 O56 1_555 1_555
C22 O24 1_555 1_555
C23 O25 1_555 1_555
O24 Cu3_2 1_555 1_555
O25 Cu15_2 1_555 1_555
O56 C22 1_555 1_555
O57 Sm8 1_555 1_555
C45 C22 1_555 1_555
C46 C23 1_555 1_555
H22 C45 1_555 1_555
H23 C46 1_555 1_555
H45 C45 1_555 1_555
H46 C46 1_555 1_555
O79 Sm8 1_555 1_555
Cu3_2 O89_2 1_555 1_555
C23 O57 1_555 1_555
C45 O79 1_555 1_555
C46 O79 1_555 1_555
Sm1 O2 1_555 1_555
C1 O1 1_555 1_555
O1 Cu11 1_555 1_555
O2 C1 1_555 1_555
C2 C1 1_555 1_555
H1 C2 1_555 1_555
H2 C2 1_555 1_555
O3 Sm1 1_555 1_555
Sm5 O48 1_555 1_555
Sm8 O50 1_555 1_555
Sm9 O52 1_555 1_555
C3 O5 1_555 1_555
C4 O6 1_555 1_555
C5 O7 1_555 1_555
C6 O8 1_555 1_555
C7 O9 1_555 1_555
C14 O16 1_555 1_555
C15 O17 1_555 1_555
C16 O18 1_555 1_555
C17 O19 1_555 1_555
C18 O20 1_555 1_555
C19 O21 1_555 1_555
O5 Cu2 1_555 1_555
O6 Cu3_3 1_555 1_555
O7 Cu15 1_555 1_555
O8 Cu5 1_555 1_555
O9 Cu6_2 1_555 1_555
O16 Cu2 1_555 1_555
O17 Cu11_2 1_555 1_555
O18 Cu2 1_555 1_555
O19 Cu11_4 1_555 1_555
O20 Cu2 1_555 1_555
O21 Cu11_3 1_555 1_555
O28 Cu15 1_555 1_555
O31 Cu5 1_555 1_555
O36 Cu6_2 1_555 1_555
O37 Sm1 1_555 1_555
O38 Sm1 1_555 1_555
O39 Sm1 1_555 1_555
O40 Sm1 1_555 1_555
O41 Sm1 1_555 1_555
O48 C14 1_555 1_555
O49 Sm5 1_555 1_555
O50 C16 1_555 1_555
O51 Sm8 1_555 1_555
O52 C18 1_555 1_555
O53 Sm9 1_555 1_555
C26 O3 1_555 1_555
C27 C4 1_555 1_555
C28 C5 1_555 1_555
C29 C6 1_555 1_555
C30 C7 1_555 1_555
C37 C14 1_555 1_555
C38 C15 1_555 1_555
C39 C16 1_555 1_555
C40 C17 1_555 1_555
C41 C18 1_555 1_555
C42 C19 1_555 1_555
H3 C26 1_555 1_555
H4 C27 1_555 1_555
H5 C28 1_555 1_555
H6 C29 1_555 1_555
H7 C30 1_555 1_555
H14 C37 1_555 1_555
H15 C38 1_555 1_555
H16 C39 1_555 1_555
H17 C40 1_555 1_555
H18 C41 1_555 1_555
H19 C42 1_555 1_555
H26 C26 1_555 1_555
H27 C27 1_555 1_555
H28 C28 1_555 1_555
H29 C29 1_555 1_555
H30 C30 1_555 1_555
H37 C37 1_555 1_555
H38 C38 1_555 1_555
H39 C39 1_555 1_555
H40 C40 1_555 1_555
H41 C41 1_555 1_555
H42 C42 1_555 1_555
O70 Sm1 1_555 1_555
O71 Sm1 1_555 1_555
O75 Sm5 1_555 1_555
O76 Sm8 1_555 1_555
O77 Sm9 1_555 1_555
Cu2 O87 1_555 1_555
Cu5 O93 1_555 1_555
O86 Cu11 1_555 1_555
O88 Cu2 1_555 1_555
O90 Cu3_3 1_555 1_555
O92 Cu15 1_555 1_555
O94 Cu5 1_555 1_555
O96 Cu6_2 1_555 1_555
C2 O3 1_555 1_555
C3 O37 1_555 1_555
C3 C26 1_555 1_555
C4 O38 1_555 1_555
C5 O39 1_555 1_555
C6 O40 1_555 1_555
C7 O41 1_555 1_555
C15 O49 1_555 1_555
C17 O51 1_555 1_555
C19 O53 1_555 1_555
C27 O70 1_555 1_555
C28 O70 1_555 1_555
C29 O71 1_555 1_555
C30 O71 1_555 1_555
C37 O75 1_555 1_555
C38 O75 1_555 1_555
C39 O76 1_555 1_555
C40 O76 1_555 1_555
C41 O77 1_555 1_555
C42 O77 1_555 1_555
C20 O22 1_555 1_555
C21 O28 1_555 1_555
O22 Cu3_4 1_555 1_555
O32 Cu5_2 1_555 1_555
O33 Cu5_2 1_555 1_555
O54 Sm5 1_555 1_555
O55 Sm5 1_555 1_555
O60 Sm5 1_555 1_555
O61 Sm5 1_555 1_555
C43 C20 1_555 1_555
C44 C21 1_555 1_555
H20 C43 1_555 1_555
H21 C44 1_555 1_555
H43 C43 1_555 1_555
H44 C44 1_555 1_555
O78 Sm5 1_555 1_555
O81 Sm5 1_555 1_555
Cu5_2 O93_2 1_555 1_555
O86_2 Cu11_2 1_555 1_555
O90_2 Cu3_4 1_555 1_555
O94_2 Cu5_2 1_555 1_555
C20 O54 1_555 1_555
C21 O55 1_555 1_555
C43 O78 1_555 1_555
C44 O78 1_555 1_555
Cu11_3 O4 1_555 1_555
O67 Sm9 1_555 1_555
O68 Sm9 1_555 1_555
O85 Sm9 1_555 1_555
Cu15_2 O91 1_555 1_555
Cu11_4 O4_2 1_555 1_555
O62 Sm8 1_555 1_555
O64 Sm8 1_555 1_555
O82 Sm8 1_555 1_555
C24_2 O31 1_555 1_555
C25_2 O34 1_555 1_555
O67 C24_2 1_555 1_555
C47_2 C24_2 1_555 1_555
C48_2 C25_2 1_555 1_555
H24_2 C47_2 1_555 1_555
H25_2 C48_2 1_555 1_555
H47_2 C47_2 1_555 1_555
H48_2 C48_2 1_555 1_555
C25_2 O68 1_555 1_555
C47_2 O85 1_555 1_555
C48_2 O85 1_555 1_555
C20_2 O33 1_555 1_555
C21_2 O36 1_555 1_555
C22_2 O32 1_555 1_555
C23_2 O35 1_555 1_555
O64 C22_2 1_555 1_555
C43_2 C20_2 1_555 1_555
C44_2 C21_2 1_555 1_555
C45_2 C22_2 1_555 1_555
C46_2 C23_2 1_555 1_555
H20_2 C43_2 1_555 1_555
H21_2 C44_2 1_555 1_555
H22_2 C45_2 1_555 1_555
H23_2 C46_2 1_555 1_555
H43_2 C43_2 1_555 1_555
H44_2 C44_2 1_555 1_555
H45_2 C45_2 1_555 1_555
H46_2 C46_2 1_555 1_555
C20_2 O60 1_555 1_555
C21_2 O61 1_555 1_555
C23_2 O62 1_555 1_555
C43_2 O81 1_555 1_555
C44_2 O81 1_555 1_555
C45_2 O82 1_555 1_555
C46_2 O82 1_555 1_555

#END
