
###############################################################################
#
# This file contains modified crystal structure data generated from the
# MOF subset of the Cambridge Structural Database (CSD) v543 
# hosted by the Cambridge Crystallographic Data Centre (CCDC).
#
# This work is licensed under the Creative Commons
# Attribution-NonCommercial-ShareAlike 4.0 International License.
# To view a copy of this license, visit
# http://creativecommons.org/licenses/by-nc-sa/4.0/
# or send a letter to
# Creative Commons, PO Box 1866, Mountain View, CA 94042, USA.
#
# CIF created using the CSD Python API on 29 September 2022
# The structure has been converted into the P1 space group
# The structure has a 3D framework
# The original CSD entry GERWOR is in the monoclinic crystal system
# The framework has been calculated to contain at least 10.0% void space
# The void calculation uses a probe of radius 1.32A, grid spacing 0.4
# The framework is charged, counterions have been retained in the structure
# H atom positions have been added when not included in the experimental data
#
###############################################################################

data_GERWOR
_chemical_formula_moiety         '(C304 H304 Cd14 N24 O124 Si8 8+)n'
_symmetry_cell_setting           triclinic
_symmetry_space_group_name_H-M   'P 1'
_symmetry_Int_Tables_number      1
_space_group_name_Hall           'P 1'
loop_
_symmetry_equiv_pos_site_id
_symmetry_equiv_pos_as_xyz
1 x,y,z
_cell_length_a                   23.179(2)
_cell_length_b                   19.0074(19)
_cell_length_c                   26.112(3)
_cell_angle_alpha                90
_cell_angle_beta                 99.417(2)
_cell_angle_gamma                90
_cell_volume                     11349.2
loop_
_atom_site_label
_atom_site_type_symbol
_atom_site_fract_x
_atom_site_fract_y
_atom_site_fract_z
C1 C 0.6004(2) 0.0268(2) 0.1641(2)
H1 H 0.6177 0.0313 0.2000
H2 H 0.5638 0.0516 0.1581
H3 H 0.6262 0.0464 0.1426
C2 C 0.5501(3) 0.9315(3) 0.1014(2)
H4 H 0.5404 0.8824 0.0998
H5 H 0.5691 0.9436 0.0726
H6 H 0.5150 0.9588 0.0998
N1 N 0.58956(17) 0.9466(2) 0.15033(17)
H7 H 0.6243 0.9263 0.1489
H8 H 0.5748 0.9260 0.1764
C1_2 C 0.3996(2) 0.0268(2) 0.3359(2)
H1_2 H 0.3823 0.0313 0.3000
H2_2 H 0.4362 0.0516 0.3419
H3_2 H 0.3738 0.0464 0.3574
C2_2 C 0.4499(3) 0.9315(3) 0.3986(2)
H4_2 H 0.4596 0.8824 0.4002
H5_2 H 0.4309 0.9436 0.4274
H6_2 H 0.4850 0.9588 0.4002
N1_2 N 0.41044(17) 0.9466(2) 0.34967(17)
H7_2 H 0.3757 0.9263 0.3511
H8_2 H 0.4252 0.9260 0.3236
C1_3 C 0.1004(2) 0.5268(2) 0.1641(2)
H1_3 H 0.1177 0.5313 0.2000
H2_3 H 0.0638 0.5516 0.1581
H3_3 H 0.1262 0.5464 0.1426
C2_3 C 0.0501(3) 0.4315(3) 0.1014(2)
H4_3 H 0.0404 0.3824 0.0998
H5_3 H 0.0691 0.4436 0.0726
H6_3 H 0.0150 0.4588 0.0998
N1_3 N 0.08956(17) 0.4466(2) 0.15033(17)
H7_3 H 0.1243 0.4263 0.1489
H8_3 H 0.0748 0.4260 0.1764
C1_4 C 0.8996(2) 0.5268(2) 0.3359(2)
H1_4 H 0.8823 0.5313 0.3000
H2_4 H 0.9362 0.5516 0.3419
H3_4 H 0.8738 0.5464 0.3574
C2_4 C 0.9499(3) 0.4315(3) 0.3986(2)
H4_4 H 0.9596 0.3824 0.4002
H5_4 H 0.9309 0.4436 0.4274
H6_4 H 0.9850 0.4588 0.4002
N1_4 N 0.91044(17) 0.4466(2) 0.34967(17)
H7_4 H 0.8757 0.4263 0.3511
H8_4 H 0.9252 0.4260 0.3236
C2_5 C 0.4499(3) 0.0685(3) 0.8986(2)
H4_5 H 0.4596 0.1176 0.9002
H5_5 H 0.4309 0.0564 0.9274
H6_5 H 0.4850 0.0412 0.9002
N1_5 N 0.41044(17) 0.0534(2) 0.84967(17)
H7_5 H 0.3757 0.0737 0.8511
H8_5 H 0.4252 0.0740 0.8236
C1_5 C 0.3996(2) 0.9732(2) 0.8359(2)
H1_5 H 0.3823 0.9687 0.8000
H2_5 H 0.4362 0.9484 0.8419
H3_5 H 0.3738 0.9536 0.8574
C2_6 C 0.5501(3) 0.0685(3) 0.6014(2)
H4_6 H 0.5404 0.1176 0.5998
H5_6 H 0.5691 0.0564 0.5726
H6_6 H 0.5150 0.0412 0.5998
N1_6 N 0.58956(17) 0.0534(2) 0.65033(17)
H7_6 H 0.6243 0.0737 0.6489
H8_6 H 0.5748 0.0740 0.6764
C1_6 C 0.6004(2) 0.9732(2) 0.6641(2)
H1_6 H 0.6177 0.9687 0.7000
H2_6 H 0.5638 0.9484 0.6581
H3_6 H 0.6262 0.9536 0.6426
C1_7 C 0.8996(2) 0.4732(2) 0.8359(2)
H1_7 H 0.8823 0.4687 0.8000
H2_7 H 0.9362 0.4484 0.8419
H3_7 H 0.8738 0.4536 0.8574
C2_7 C 0.9499(3) 0.5685(3) 0.8986(2)
H4_7 H 0.9596 0.6176 0.9002
H5_7 H 0.9309 0.5564 0.9274
H6_7 H 0.9850 0.5412 0.9002
N1_7 N 0.91044(17) 0.5534(2) 0.84967(17)
H7_7 H 0.8757 0.5737 0.8511
H8_7 H 0.9252 0.5740 0.8236
C1_8 C 0.1004(2) 0.4732(2) 0.6641(2)
H1_8 H 0.1177 0.4687 0.7000
H2_8 H 0.0638 0.4484 0.6581
H3_8 H 0.1262 0.4536 0.6426
C2_8 C 0.0501(3) 0.5685(3) 0.6014(2)
H4_8 H 0.0404 0.6176 0.5998
H5_8 H 0.0691 0.5564 0.5726
H6_8 H 0.0150 0.5412 0.5998
N1_8 N 0.08956(17) 0.5534(2) 0.65033(17)
H7_8 H 0.1243 0.5737 0.6489
H8_8 H 0.0748 0.5740 0.6764
C3 C 0.28215(17) 0.8063(2) 0.23169(19)
H9 H 0.3220 0.8217 0.2350
H10 H 0.2578 0.8361 0.2075
H11 H 0.2792 0.7586 0.2193
C4 C 0.20164(18) 0.7819(2) 0.25464(18)
H12 H 0.1721 0.7764 0.2761
H13 H 0.2103 0.7369 0.2410
H14 H 0.1878 0.8132 0.2265
N2 N 0.26538(14) 0.81953(15) 0.29555(18)
H15 H 0.2622 0.8645 0.3056
H16 H 0.2841 0.7916 0.3208
C3_2 C 0.71785(17) 0.8063(2) 0.26831(19)
H9_2 H 0.6780 0.8217 0.2650
H10_2 H 0.7422 0.8361 0.2925
H11_2 H 0.7208 0.7586 0.2807
C4_2 C 0.79836(18) 0.7819(2) 0.24536(18)
H12_2 H 0.8279 0.7764 0.2239
H13_2 H 0.7897 0.7369 0.2590
H14_2 H 0.8122 0.8132 0.2735
N2_2 N 0.73462(14) 0.81953(15) 0.20445(18)
H15_2 H 0.7378 0.8645 0.1944
H16_2 H 0.7159 0.7916 0.1792
C3_3 C 0.78215(17) 0.3063(2) 0.23169(19)
H9_3 H 0.8220 0.3217 0.2350
H10_3 H 0.7578 0.3361 0.2075
H11_3 H 0.7792 0.2586 0.2193
C4_3 C 0.70164(18) 0.2819(2) 0.25464(18)
H12_3 H 0.6721 0.2764 0.2761
H13_3 H 0.7103 0.2369 0.2410
H14_3 H 0.6878 0.3132 0.2265
N2_3 N 0.76538(14) 0.31953(15) 0.29555(18)
H15_3 H 0.7622 0.3645 0.3056
H16_3 H 0.7841 0.2916 0.3208
C3_4 C 0.21785(17) 0.3063(2) 0.26831(19)
H9_4 H 0.1780 0.3217 0.2650
H10_4 H 0.2422 0.3361 0.2925
H11_4 H 0.2208 0.2586 0.2807
C4_4 C 0.29836(18) 0.2819(2) 0.24536(18)
H12_4 H 0.3279 0.2764 0.2239
H13_4 H 0.2897 0.2369 0.2590
H14_4 H 0.3122 0.3132 0.2735
N2_4 N 0.23462(14) 0.31953(15) 0.20445(18)
H15_4 H 0.2378 0.3645 0.1944
H16_4 H 0.2159 0.2916 0.1792
C3_5 C 0.71785(17) 0.1937(2) 0.76831(19)
H9_5 H 0.6780 0.1783 0.7650
H10_5 H 0.7422 0.1639 0.7925
H11_5 H 0.7208 0.2414 0.7807
C4_5 C 0.79836(18) 0.2181(2) 0.74536(18)
H12_5 H 0.8279 0.2236 0.7239
H13_5 H 0.7897 0.2631 0.7590
H14_5 H 0.8122 0.1868 0.7735
N2_5 N 0.73462(14) 0.18047(15) 0.70445(18)
H15_5 H 0.7378 0.1355 0.6944
H16_5 H 0.7159 0.2084 0.6792
C3_6 C 0.28215(17) 0.1937(2) 0.73169(19)
H9_6 H 0.3220 0.1783 0.7350
H10_6 H 0.2578 0.1639 0.7075
H11_6 H 0.2792 0.2414 0.7193
C4_6 C 0.20164(18) 0.2181(2) 0.75464(18)
H12_6 H 0.1721 0.2236 0.7761
H13_6 H 0.2103 0.2631 0.7410
H14_6 H 0.1878 0.1868 0.7265
N2_6 N 0.26538(14) 0.18047(15) 0.79555(18)
H15_6 H 0.2622 0.1355 0.8056
H16_6 H 0.2841 0.2084 0.8208
C3_7 C 0.21785(17) 0.6937(2) 0.76831(19)
H9_7 H 0.1780 0.6783 0.7650
H10_7 H 0.2422 0.6639 0.7925
H11_7 H 0.2208 0.7414 0.7807
C4_7 C 0.29836(18) 0.7181(2) 0.74536(18)
H12_7 H 0.3279 0.7236 0.7239
H13_7 H 0.2897 0.7631 0.7590
H14_7 H 0.3122 0.6868 0.7735
N2_7 N 0.23462(14) 0.68047(15) 0.70445(18)
H15_7 H 0.2378 0.6355 0.6944
H16_7 H 0.2159 0.7084 0.6792
C3_8 C 0.78215(17) 0.6937(2) 0.73169(19)
H9_8 H 0.8220 0.6783 0.7350
H10_8 H 0.7578 0.6639 0.7075
H11_8 H 0.7792 0.7414 0.7193
C4_8 C 0.70164(18) 0.7181(2) 0.75464(18)
H12_8 H 0.6721 0.7236 0.7761
H13_8 H 0.7103 0.7631 0.7410
H14_8 H 0.6878 0.6868 0.7265
N2_8 N 0.76538(14) 0.68047(15) 0.79555(18)
H15_8 H 0.7622 0.6355 0.8056
H16_8 H 0.7841 0.7084 0.8208
C5 C 0.1105(3) 0.0235(3) 0.4771(2)
H19 H 0.1262 0.0681 0.4896
C6 C 0.0157(4) 0.0414(5) 0.4646(3)
H21 H 0.0218 0.0842 0.4843
H22 H 0.0184 0.0020 0.4879
N3 N 0.0572(3) 0.0354(4) 0.4335(3)
H23 H 0.0607 0.0749 0.4153
H17 H 0.1399 0.9972 0.4635
H18 H 0.0983 0.9978 0.5051
H24 H 0.0507 0.9984 0.4118
H20 H 0.9776 0.0422 0.4436
H20_2 H 0.0224 0.0422 0.0564
C5_2 C 0.8895(3) 0.0235(3) 0.0229(2)
H19_2 H 0.8738 0.0681 0.0104
C6_2 C 0.9843(4) 0.0414(5) 0.0354(3)
H21_2 H 0.9782 0.0842 0.0157
H22_2 H 0.9816 0.0020 0.0121
N3_2 N 0.9428(3) 0.0354(4) 0.0665(3)
H23_2 H 0.9393 0.0749 0.0847
H17_2 H 0.8601 0.9972 0.0365
H24_2 H 0.9493 0.9984 0.0882
H18_2 H 0.9017 0.9978 0.9949
C5_3 C 0.6105(3) 0.5235(3) 0.4771(2)
H17_3 H 0.6399 0.4972 0.4635
H18_3 H 0.5983 0.4978 0.5051
H19_3 H 0.6262 0.5681 0.4896
C6_3 C 0.5157(4) 0.5414(5) 0.4646(3)
H20_3 H 0.4776 0.5422 0.4436
H21_3 H 0.5218 0.5842 0.4843
H22_3 H 0.5184 0.5020 0.4879
N3_3 N 0.5572(3) 0.5354(4) 0.4335(3)
H23_3 H 0.5607 0.5749 0.4153
H24_3 H 0.5507 0.4984 0.4118
C5_4 C 0.3895(3) 0.5235(3) 0.0229(2)
H17_4 H 0.3601 0.4972 0.0365
H19_4 H 0.3738 0.5681 0.0104
C6_4 C 0.4843(4) 0.5414(5) 0.0354(3)
H20_4 H 0.5224 0.5422 0.0564
H21_4 H 0.4782 0.5842 0.0157
H22_4 H 0.4816 0.5020 0.0121
N3_4 N 0.4428(3) 0.5354(4) 0.0665(3)
H23_4 H 0.4393 0.5749 0.0847
H24_4 H 0.4493 0.4984 0.0882
H18_4 H 0.4017 0.4978 0.9949
H20_5 H 0.0224 0.9578 0.5564
H17_5 H 0.8601 0.0028 0.5365
H18_5 H 0.9017 0.0022 0.4949
H24_5 H 0.9493 0.0016 0.5882
C5_5 C 0.8895(3) 0.9765(3) 0.5229(2)
H19_5 H 0.8738 0.9319 0.5104
C6_5 C 0.9843(4) 0.9586(5) 0.5354(3)
H21_5 H 0.9782 0.9158 0.5157
H22_5 H 0.9816 0.9980 0.5121
N3_5 N 0.9428(3) 0.9646(4) 0.5665(3)
H23_5 H 0.9393 0.9251 0.5847
H18_6 H 0.0983 0.0022 0.0051
H17_6 H 0.1399 0.0028 0.9635
H24_6 H 0.0507 0.0016 0.9118
C5_6 C 0.1105(3) 0.9765(3) 0.9771(2)
H19_6 H 0.1262 0.9319 0.9896
C6_6 C 0.0157(4) 0.9586(5) 0.9646(3)
H21_6 H 0.0218 0.9158 0.9843
H22_6 H 0.0184 0.9980 0.9879
N3_6 N 0.0572(3) 0.9646(4) 0.9335(3)
H23_6 H 0.0607 0.9251 0.9153
H20_6 H 0.9776 0.9578 0.9436
C5_7 C 0.3895(3) 0.4765(3) 0.5229(2)
H17_7 H 0.3601 0.5028 0.5365
H18_7 H 0.4017 0.5022 0.4949
H19_7 H 0.3738 0.4319 0.5104
C6_7 C 0.4843(4) 0.4586(5) 0.5354(3)
H20_7 H 0.5224 0.4578 0.5564
H21_7 H 0.4782 0.4158 0.5157
H22_7 H 0.4816 0.4980 0.5121
N3_7 N 0.4428(3) 0.4646(4) 0.5665(3)
H23_7 H 0.4393 0.4251 0.5847
H24_7 H 0.4493 0.5016 0.5882
H18_8 H 0.5983 0.5022 0.0051
C5_8 C 0.6105(3) 0.4765(3) 0.9771(2)
H17_8 H 0.6399 0.5028 0.9635
H19_8 H 0.6262 0.4319 0.9896
C6_8 C 0.5157(4) 0.4586(5) 0.9646(3)
H20_8 H 0.4776 0.4578 0.9436
H21_8 H 0.5218 0.4158 0.9843
H22_8 H 0.5184 0.4980 0.9879
N3_8 N 0.5572(3) 0.4646(4) 0.9335(3)
H23_8 H 0.5607 0.4251 0.9153
H24_8 H 0.5507 0.5016 0.9118
Cd1 Cd -0.0000 0.355376(7) 0.2500
C39 C 0.06231(6) 0.25978(7) 0.19994(6)
C40 C 0.09262(6) 0.21375(7) 0.16538(5)
C41 C 0.08392(6) 0.22486(7) 0.11217(5)
H37 H 0.0603 0.2618 0.0980
C42 C 0.10995(6) 0.18169(8) 0.08003(5)
C43 C 0.14420(5) 0.12640(7) 0.10168(5)
H38 H 0.1604 0.0961 0.0799
C44 C 0.15535(5) 0.11456(7) 0.15502(5)
C45 C 0.12870(5) 0.15907(6) 0.18624(5)
H39 H 0.1352 0.1521 0.2220
C46 C 0.09907(7) 0.19278(9) 0.02153(6)
C55 C 0.37322(6) 0.20027(8) 0.12112(6)
C56 C 0.35568(6) 0.13164(7) 0.14286(5)
C57 C 0.29768(5) 0.11972(7) 0.14834(5)
H43 H 0.2695 0.1533 0.1364
C58 C 0.28122(5) 0.05855(7) 0.17137(5)
C59 C 0.32530(5) 0.00882(7) 0.18800(5)
C60 C 0.38258(6) 0.01909(7) 0.18135(6)
C61 C 0.39700(6) 0.08110(7) 0.15866(6)
H45 H 0.4355 0.0886 0.1540
C63 C 0.28671(13) 0.10819(18) 0.37410(8)
C64 C 0.24372(9) 0.06169(11) 0.33954(7)
C65 C 0.24116(7) 0.06778(9) 0.28586(6)
H46 H 0.2649 0.1007 0.2732
C66 C 0.20438(6) 0.02646(7) 0.25092(5)
C69 C 0.20811(7) 0.01285(10) 0.35824(7)
H48 H 0.2086 0.0090 0.3938
Cd9 Cd 0.418068(4) 0.323006(6) 0.088811(4)
O17 O 0.07065(5) 0.24957(6) 0.24724(4)
O18 O 0.03030(5) 0.30823(5) 0.17890(4)
O19 O 0.07797(8) 0.24744(9) 0.00386(5)
O25 O 0.01978(6) 0.19748(8) 0.58762(9)
O30 O 0.08473(5) 0.41378(5) 0.27525(5)
O33 O 0.42540(4) 0.21756(6) 0.12914(5)
O36 O 0.33541(5) 0.23862(6) 0.09639(5)
O39 O 0.31502(9) 0.15404(11) 0.35717(8)
O40 O 0.28952(11) 0.09266(13) 0.42279(8)
Si2 Si 0.204317(14) 0.039327(18) 0.180095(14)
H51 H 0.302265 0.0430221 0.428647
Cd5 Cd 0.081932(4) 0.176994(6) 0.911189(4)
O20 O 0.11350(7) 0.14683(8) 0.99411(5)
O23 O 0.00024(5) 0.10041(9) 0.88768(7)
O35 O 0.07460(4) 0.28244(6) 0.87086(5)
O38 O 0.16459(5) 0.26138(6) 0.90361(5)
O43 O 0.13999(5) 0.08655(7) 0.89576(5)
O5 O 0.00024(5) 0.89959(9) 0.38768(7)
C47 C 0.03503(6) 0.85892(9) 0.10204(7)
C48 C 0.09881(6) 0.87969(7) 0.10774(6)
C49 C 0.13657(7) 0.84176(8) 0.08247(7)
H40 H 0.1229 0.8023 0.0632
C50 C 0.19444(6) 0.86162(8) 0.08546(7)
C51 C 0.21402(6) 0.92012(7) 0.11514(6)
H41 H 0.2530 0.9333 0.1175
C52 C 0.17782(5) 0.95998(7) 0.14149(5)
C53 C 0.11992(6) 0.93858(7) 0.13683(5)
H42 H 0.0944 0.9643 0.1536
C54 C 0.23454(8) 0.82271(11) 0.05721(9)
H44 H 0.3155 0.9678 0.2040
C62 C 0.42898(7) 0.96420(8) 0.19850(7)
C67 C 0.17135(6) 0.97765(7) 0.27231(5)
H47 H 0.1471 0.9479 0.2501
C68 C 0.17259(6) 0.97070(8) 0.32541(6)
C70 C 0.13595(7) 0.91590(9) 0.34738(6)
Cd4 Cd 0.5000 0.855376(7) 0.2500
Cd6 Cd 0.081932(4) 0.823006(6) 0.411189(4)
O24 O 0.01978(6) 0.80252(8) 0.08762(9)
O27 O 0.28612(7) 0.83961(10) 0.06251(7)
O28 O 0.21373(6) 0.77452(7) 0.02694(6)
O29 O 0.41527(5) 0.91378(5) 0.22475(5)
O32 O 0.47856(5) 0.97148(7) 0.18633(6)
O41 O 0.13999(5) 0.91345(7) 0.39576(5)
O44 O 0.10377(6) 0.87614(7) 0.31726(5)
C7 C 0.93769(6) 0.25978(7) 0.30006(6)
C8 C 0.90738(6) 0.21375(7) 0.33462(5)
C9 C 0.91608(6) 0.22486(7) 0.38783(5)
H25 H 0.9397 0.2618 0.4020
C10 C 0.89005(6) 0.18169(8) 0.41997(5)
C11 C 0.85580(5) 0.12640(7) 0.39832(5)
H26 H 0.8396 0.0961 0.4201
C12 C 0.84465(5) 0.11456(7) 0.34498(5)
C13 C 0.87130(5) 0.15907(6) 0.31376(5)
H27 H 0.8648 0.1521 0.2780
C14 C 0.90093(7) 0.19278(9) 0.47847(6)
C23 C 0.62678(6) 0.20027(8) 0.37888(6)
C24 C 0.64432(6) 0.13164(7) 0.35714(5)
C25 C 0.70232(5) 0.11972(7) 0.35166(5)
H31 H 0.7305 0.1533 0.3636
C26 C 0.71878(5) 0.05855(7) 0.32863(5)
C27 C 0.67470(5) 0.00882(7) 0.31200(5)
C28 C 0.61742(6) 0.01909(7) 0.31865(6)
C29 C 0.60300(6) 0.08110(7) 0.34134(6)
H33 H 0.5645 0.0886 0.3460
C31 C 0.71329(13) 0.10819(18) 0.12590(8)
C32 C 0.75628(9) 0.06169(11) 0.16046(7)
C33 C 0.75884(7) 0.06778(9) 0.21414(6)
H34 H 0.7351 0.1007 0.2268
C34 C 0.79562(6) 0.02646(7) 0.24908(5)
C37 C 0.79189(7) 0.01285(10) 0.14176(7)
H36 H 0.7914 0.0090 0.1062
Cd1_2 Cd 1.0000 0.355376(7) 0.2500
Cd2 Cd 0.918068(4) 0.176994(6) 0.588811(4)
O1 O 0.92935(5) 0.24957(6) 0.25276(4)
O2 O 0.96970(5) 0.30823(5) 0.32110(4)
O3 O 0.92203(8) 0.24744(9) 0.49614(5)
O4 O 0.88650(7) 0.14683(8) 0.50589(5)
O11 O 0.57460(4) 0.21756(6) 0.37086(5)
O12 O 0.66459(5) 0.23862(6) 0.40361(5)
O13 O 0.68498(9) 0.15404(11) 0.14283(8)
O14 O 0.71048(11) 0.09266(13) 0.07721(8)
Si1 Si 0.795683(14) 0.039327(18) 0.319905(14)
Cd7 Cd 0.581932(4) 0.323006(6) 0.411189(4)
O22 O 0.99976(5) 0.10041(9) 0.61232(7)
O31 O 0.91527(5) 0.41378(5) 0.22475(5)
O34 O 0.92540(4) 0.28244(6) 0.62914(5)
O37 O 0.83541(5) 0.26138(6) 0.59639(5)
O42 O 0.86001(5) 0.08655(7) 0.60424(5)
H49 H 0.697735 0.0430221 0.0713526
O26 O 0.98022(6) 0.19748(8) 0.91238(9)
C15 C 0.96497(6) 0.85892(9) 0.39796(7)
C16 C 0.90119(6) 0.87969(7) 0.39226(6)
C17 C 0.86343(7) 0.84176(8) 0.41753(7)
H28 H 0.8771 0.8023 0.4368
C18 C 0.80556(6) 0.86162(8) 0.41454(7)
C19 C 0.78598(6) 0.92012(7) 0.38486(6)
H29 H 0.7470 0.9333 0.3825
C20 C 0.82218(5) 0.95998(7) 0.35851(5)
C21 C 0.88008(6) 0.93858(7) 0.36317(5)
H30 H 0.9056 0.9643 0.3464
C22 C 0.76546(8) 0.82271(11) 0.44279(9)
H32 H 0.6845 0.9678 0.2960
C30 C 0.57102(7) 0.96420(8) 0.30150(7)
C35 C 0.82865(6) 0.97765(7) 0.22769(5)
H35 H 0.8529 0.9479 0.2499
C36 C 0.82741(6) 0.97070(8) 0.17459(6)
C38 C 0.86405(7) 0.91590(9) 0.15262(6)
O6 O 0.98022(6) 0.80252(8) 0.41238(9)
O7 O 0.71388(7) 0.83961(10) 0.43749(7)
O8 O 0.78627(6) 0.77452(7) 0.47306(6)
O9 O 0.58473(5) 0.91378(5) 0.27525(5)
O10 O 0.52144(5) 0.97148(7) 0.31367(6)
O15 O 0.86001(5) 0.91345(7) 0.10424(5)
O16 O 0.89623(6) 0.87614(7) 0.18274(5)
Cd8 Cd 0.918068(4) 0.823006(6) 0.088811(4)
O21 O 0.99976(5) 0.89959(9) 0.11232(7)
H50 H 0.81663 0.794282 0.500543
C7_2 C 0.43769(6) 0.75978(7) 0.30006(6)
C8_2 C 0.40738(6) 0.71375(7) 0.33462(5)
C9_2 C 0.41608(6) 0.72486(7) 0.38783(5)
H25_2 H 0.4397 0.7618 0.4020
C10_2 C 0.39005(6) 0.68169(8) 0.41997(5)
C11_2 C 0.35580(5) 0.62640(7) 0.39832(5)
H26_2 H 0.3396 0.5961 0.4201
C12_2 C 0.34465(5) 0.61456(7) 0.34498(5)
C13_2 C 0.37130(5) 0.65907(6) 0.31376(5)
H27_2 H 0.3648 0.6521 0.2780
C14_2 C 0.40093(7) 0.69278(9) 0.47847(6)
C15_2 C 0.46497(6) 0.35892(9) 0.39796(7)
C16_2 C 0.40119(6) 0.37969(7) 0.39226(6)
C17_2 C 0.36343(7) 0.34176(8) 0.41753(7)
H28_2 H 0.3771 0.3023 0.4368
C18_2 C 0.30556(6) 0.36162(8) 0.41454(7)
C19_2 C 0.28598(6) 0.42012(7) 0.38486(6)
H29_2 H 0.2470 0.4333 0.3825
C20_2 C 0.32218(5) 0.45998(7) 0.35851(5)
C21_2 C 0.38008(6) 0.43858(7) 0.36317(5)
H30_2 H 0.4056 0.4643 0.3464
C22_2 C 0.26546(8) 0.32271(11) 0.44279(9)
C23_2 C 0.12678(6) 0.70027(8) 0.37888(6)
C24_2 C 0.14432(6) 0.63164(7) 0.35714(5)
C25_2 C 0.20232(5) 0.61972(7) 0.35166(5)
H31_2 H 0.2305 0.6533 0.3636
C26_2 C 0.21878(5) 0.55855(7) 0.32863(5)
C27_2 C 0.17470(5) 0.50882(7) 0.31200(5)
H32_2 H 0.1845 0.4678 0.2960
C28_2 C 0.11742(6) 0.51909(7) 0.31865(6)
C29_2 C 0.10300(6) 0.58110(7) 0.34134(6)
H33_2 H 0.0645 0.5886 0.3460
C30_2 C 0.07102(7) 0.46420(8) 0.30150(7)
C31_2 C 0.21329(13) 0.60819(18) 0.12590(8)
C32_2 C 0.25628(9) 0.56169(11) 0.16046(7)
C33_2 C 0.25884(7) 0.56778(9) 0.21414(6)
H34_2 H 0.2351 0.6007 0.2268
C34_2 C 0.29562(6) 0.52646(7) 0.24908(5)
C35_2 C 0.32865(6) 0.47765(7) 0.22769(5)
H35_2 H 0.3529 0.4479 0.2499
C36_2 C 0.32741(6) 0.47070(8) 0.17459(6)
C37_2 C 0.29189(7) 0.51285(10) 0.14176(7)
H36_2 H 0.2914 0.5090 0.1062
C38_2 C 0.36405(7) 0.41590(9) 0.15262(6)
Cd2_2 Cd 0.418068(4) 0.676994(6) 0.588811(4)
O1_2 O 0.42935(5) 0.74957(6) 0.25276(4)
O2_2 O 0.46970(5) 0.80823(5) 0.32110(4)
O3_2 O 0.42203(8) 0.74744(9) 0.49614(5)
O4_2 O 0.38650(7) 0.64683(8) 0.50589(5)
O5_2 O 0.50024(5) 0.39959(9) 0.38768(7)
O6_2 O 0.48022(6) 0.30252(8) 0.41238(9)
O7_2 O 0.21388(7) 0.33961(10) 0.43749(7)
O8_2 O 0.28627(6) 0.27452(7) 0.47306(6)
O10_2 O 0.02144(5) 0.47148(7) 0.31367(6)
O11_2 O 0.07460(4) 0.71756(6) 0.37086(5)
O12_2 O 0.16459(5) 0.73862(6) 0.40361(5)
O13_2 O 0.18498(9) 0.65404(11) 0.14283(8)
O14_2 O 0.21048(11) 0.59266(13) 0.07721(8)
O15_2 O 0.36001(5) 0.41345(7) 0.10424(5)
O16_2 O 0.39623(6) 0.37614(7) 0.18274(5)
Si1_2 Si 0.295683(14) 0.539327(18) 0.319905(14)
C39_2 C 0.56231(6) 0.75978(7) 0.19994(6)
C40_2 C 0.59262(6) 0.71375(7) 0.16538(5)
C41_2 C 0.58392(6) 0.72486(7) 0.11217(5)
H37_2 H 0.5603 0.7618 0.0980
C42_2 C 0.60995(6) 0.68169(8) 0.08003(5)
C43_2 C 0.64420(5) 0.62640(7) 0.10168(5)
H38_2 H 0.6604 0.5961 0.0799
C44_2 C 0.65535(5) 0.61456(7) 0.15502(5)
C45_2 C 0.62870(5) 0.65907(6) 0.18624(5)
H39_2 H 0.6352 0.6521 0.2220
C46_2 C 0.59907(7) 0.69278(9) 0.02153(6)
C47_2 C 0.53503(6) 0.35892(9) 0.10204(7)
C48_2 C 0.59881(6) 0.37969(7) 0.10774(6)
C49_2 C 0.63657(7) 0.34176(8) 0.08247(7)
H40_2 H 0.6229 0.3023 0.0632
C50_2 C 0.69444(6) 0.36162(8) 0.08546(7)
C51_2 C 0.71402(6) 0.42012(7) 0.11514(6)
H41_2 H 0.7530 0.4333 0.1175
C52_2 C 0.67782(5) 0.45998(7) 0.14149(5)
C53_2 C 0.61992(6) 0.43858(7) 0.13683(5)
H42_2 H 0.5944 0.4643 0.1536
C54_2 C 0.73454(8) 0.32271(11) 0.05721(9)
C55_2 C 0.87322(6) 0.70027(8) 0.12112(6)
C56_2 C 0.85568(6) 0.63164(7) 0.14286(5)
C57_2 C 0.79768(5) 0.61972(7) 0.14834(5)
H43_2 H 0.7695 0.6533 0.1364
C58_2 C 0.78122(5) 0.55855(7) 0.17137(5)
C59_2 C 0.82530(5) 0.50882(7) 0.18800(5)
H44_2 H 0.8155 0.4678 0.2040
C60_2 C 0.88258(6) 0.51909(7) 0.18135(6)
C61_2 C 0.89700(6) 0.58110(7) 0.15866(6)
H45_2 H 0.9355 0.5886 0.1540
C62_2 C 0.92898(7) 0.46420(8) 0.19850(7)
C63_2 C 0.78671(13) 0.60819(18) 0.37410(8)
C64_2 C 0.74372(9) 0.56169(11) 0.33954(7)
C65_2 C 0.74116(7) 0.56778(9) 0.28586(6)
H46_2 H 0.7649 0.6007 0.2732
C66_2 C 0.70438(6) 0.52646(7) 0.25092(5)
C67_2 C 0.67135(6) 0.47765(7) 0.27231(5)
H47_2 H 0.6471 0.4479 0.2501
C68_2 C 0.67259(6) 0.47070(8) 0.32541(6)
C69_2 C 0.70811(7) 0.51285(10) 0.35824(7)
H48_2 H 0.7086 0.5090 0.3938
C70_2 C 0.63595(7) 0.41590(9) 0.34738(6)
O17_2 O 0.57065(5) 0.74957(6) 0.24724(4)
O18_2 O 0.53030(5) 0.80823(5) 0.17890(4)
O19_2 O 0.57797(8) 0.74744(9) 0.00386(5)
O21_2 O 0.49976(5) 0.39959(9) 0.11232(7)
O22_2 O 0.49976(5) 0.60041(9) 0.61232(7)
O24_2 O 0.51978(6) 0.30252(8) 0.08762(9)
O25_2 O 0.51978(6) 0.69748(8) 0.58762(9)
O27_2 O 0.78612(7) 0.33961(10) 0.06251(7)
O28_2 O 0.71373(6) 0.27452(7) 0.02694(6)
O32_2 O 0.97856(5) 0.47148(7) 0.18633(6)
O33_2 O 0.92540(4) 0.71756(6) 0.12914(5)
O34_2 O 0.42540(4) 0.78244(6) 0.62914(5)
O36_2 O 0.83541(5) 0.73862(6) 0.09639(5)
O37_2 O 0.33541(5) 0.76138(6) 0.59639(5)
O39_2 O 0.81502(9) 0.65404(11) 0.35717(8)
O40_2 O 0.78952(11) 0.59266(13) 0.42279(8)
O41_2 O 0.63999(5) 0.41345(7) 0.39576(5)
O42_2 O 0.36001(5) 0.58655(7) 0.60424(5)
O44_2 O 0.60377(6) 0.37614(7) 0.31726(5)
Si2_2 Si 0.704317(14) 0.539327(18) 0.180095(14)
H49_2 H 0.197735 0.543022 0.0713526
H50_2 H 0.31663 0.294282 0.500543
H51_2 H 0.802265 0.543022 0.428647
Cd5_2 Cd 0.581932(4) 0.676994(6) 0.911189(4)
O20_2 O 0.61350(7) 0.64683(8) 0.99411(5)
O23_2 O 0.50024(5) 0.60041(9) 0.88768(7)
O26_2 O 0.48022(6) 0.69748(8) 0.91238(9)
O35_2 O 0.57460(4) 0.78244(6) 0.87086(5)
O38_2 O 0.66459(5) 0.76138(6) 0.90361(5)
O43_2 O 0.63999(5) 0.58655(7) 0.89576(5)
H52 H 0.68337 0.294282 0.999457
C15_3 C 0.03503(6) 0.14108(9) 0.60204(7)
C16_3 C 0.09881(6) 0.12031(7) 0.60774(6)
C17_3 C 0.13657(7) 0.15824(8) 0.58247(7)
H28_3 H 0.1229 0.1977 0.5632
C18_3 C 0.19444(6) 0.13838(8) 0.58546(7)
C19_3 C 0.21402(6) 0.07988(7) 0.61514(6)
H29_3 H 0.2530 0.0667 0.6175
C20_3 C 0.17782(5) 0.04002(7) 0.64149(5)
C21_3 C 0.11992(6) 0.06142(7) 0.63683(5)
H30_3 H 0.0944 0.0357 0.6536
C22_3 C 0.23454(8) 0.17729(11) 0.55721(9)
H32_3 H 0.3155 0.0322 0.7040
C30_3 C 0.42898(7) 0.03580(8) 0.69850(7)
C35_3 C 0.17135(6) 0.02235(7) 0.77231(5)
H35_3 H 0.1471 0.0521 0.7501
C36_3 C 0.17259(6) 0.02930(8) 0.82541(6)
C38_3 C 0.13595(7) 0.08410(9) 0.84738(6)
O7_3 O 0.28612(7) 0.16039(10) 0.56251(7)
O8_3 O 0.21373(6) 0.22548(7) 0.52694(6)
O9_2 O 0.41527(5) 0.08622(5) 0.72475(5)
O10_3 O 0.47856(5) 0.02852(7) 0.68633(6)
O16_3 O 0.10377(6) 0.12386(7) 0.81726(5)
Cd3 Cd 0.5000 0.144624(7) 0.7500
H50_3 H 0.18337 0.205718 0.499457
C7_3 C 0.06231(6) 0.74022(7) 0.69994(6)
C8_3 C 0.09262(6) 0.78625(7) 0.66538(5)
C9_3 C 0.08392(6) 0.77514(7) 0.61217(5)
H25_3 H 0.0603 0.7382 0.5980
C10_3 C 0.10995(6) 0.81831(8) 0.58003(5)
C11_3 C 0.14420(5) 0.87360(7) 0.60168(5)
H26_3 H 0.1604 0.9039 0.5799
C12_3 C 0.15535(5) 0.88544(7) 0.65502(5)
C13_3 C 0.12870(5) 0.84093(6) 0.68624(5)
H27_3 H 0.1352 0.8479 0.7220
C14_3 C 0.09907(7) 0.80722(9) 0.52153(6)
C23_3 C 0.37322(6) 0.79973(8) 0.62112(6)
C24_3 C 0.35568(6) 0.86836(7) 0.64286(5)
C25_3 C 0.29768(5) 0.88028(7) 0.64834(5)
H31_3 H 0.2695 0.8467 0.6364
C26_3 C 0.28122(5) 0.94145(7) 0.67137(5)
C27_3 C 0.32530(5) 0.99118(7) 0.68800(5)
C28_3 C 0.38258(6) 0.98091(7) 0.68135(6)
C29_3 C 0.39700(6) 0.91890(7) 0.65866(6)
H33_3 H 0.4355 0.9114 0.6540
C31_3 C 0.28671(13) 0.89181(18) 0.87410(8)
C32_3 C 0.24372(9) 0.93831(11) 0.83954(7)
C33_3 C 0.24116(7) 0.93222(9) 0.78586(6)
H34_3 H 0.2649 0.8993 0.7732
C34_3 C 0.20438(6) 0.97354(7) 0.75092(5)
C37_3 C 0.20811(7) 0.98715(10) 0.85824(7)
H36_3 H 0.2086 0.9910 0.8938
Cd1_3 Cd 0.0000 0.644624(7) 0.7500
O1_3 O 0.07065(5) 0.75043(6) 0.74724(4)
O2_3 O 0.03030(5) 0.69177(5) 0.67890(4)
O3_3 O 0.07797(8) 0.75256(9) 0.50386(5)
O4_3 O 0.11350(7) 0.85317(8) 0.49411(5)
O13_3 O 0.31502(9) 0.84596(11) 0.85717(8)
O14_3 O 0.28952(11) 0.90734(13) 0.92279(8)
Si1_3 Si 0.204317(14) 0.960673(18) 0.680095(14)
O31_2 O 0.08473(5) 0.58622(5) 0.77525(5)
H49_3 H 0.302265 0.956978 0.928647
C47_3 C 0.96497(6) 0.14108(9) 0.89796(7)
C48_3 C 0.90119(6) 0.12031(7) 0.89226(6)
C49_3 C 0.86343(7) 0.15824(8) 0.91753(7)
H40_3 H 0.8771 0.1977 0.9368
C50_3 C 0.80556(6) 0.13838(8) 0.91454(7)
C51_3 C 0.78598(6) 0.07988(7) 0.88486(6)
H41_3 H 0.7470 0.0667 0.8825
C52_3 C 0.82218(5) 0.04002(7) 0.85851(5)
C53_3 C 0.88008(6) 0.06142(7) 0.86317(5)
H42_3 H 0.9056 0.0357 0.8464
C54_3 C 0.76546(8) 0.17729(11) 0.94279(9)
H44_3 H 0.6845 0.0322 0.7960
C62_3 C 0.57102(7) 0.03580(8) 0.80150(7)
C67_3 C 0.82865(6) 0.02235(7) 0.72769(5)
H47_3 H 0.8529 0.0521 0.7499
C68_3 C 0.82741(6) 0.02930(8) 0.67459(6)
C70_3 C 0.86405(7) 0.08410(9) 0.65262(6)
O27_3 O 0.71388(7) 0.16039(10) 0.93749(7)
O28_3 O 0.78627(6) 0.22548(7) 0.97306(6)
O29_2 O 0.58473(5) 0.08622(5) 0.77525(5)
O32_3 O 0.52144(5) 0.02852(7) 0.81367(6)
O44_3 O 0.89623(6) 0.12386(7) 0.68274(5)
O20_3 O 0.88650(7) 0.85317(8) 0.00589(5)
Cd1_4 Cd 1.0000 0.644624(7) 0.7500
C39_3 C 0.93769(6) 0.74022(7) 0.80006(6)
C40_3 C 0.90738(6) 0.78625(7) 0.83462(5)
C41_3 C 0.91608(6) 0.77514(7) 0.88783(5)
H37_3 H 0.9397 0.7382 0.9020
C42_3 C 0.89005(6) 0.81831(8) 0.91997(5)
C43_3 C 0.85580(5) 0.87360(7) 0.89832(5)
H38_3 H 0.8396 0.9039 0.9201
C44_3 C 0.84465(5) 0.88544(7) 0.84498(5)
C45_3 C 0.87130(5) 0.84093(6) 0.81376(5)
H39_3 H 0.8648 0.8479 0.7780
C46_3 C 0.90093(7) 0.80722(9) 0.97847(6)
C55_3 C 0.62678(6) 0.79973(8) 0.87888(6)
C56_3 C 0.64432(6) 0.86836(7) 0.85714(5)
C57_3 C 0.70232(5) 0.88028(7) 0.85166(5)
H43_3 H 0.7305 0.8467 0.8636
C58_3 C 0.71878(5) 0.94145(7) 0.82863(5)
C59_3 C 0.67470(5) 0.99118(7) 0.81200(5)
C60_3 C 0.61742(6) 0.98091(7) 0.81865(6)
C61_3 C 0.60300(6) 0.91890(7) 0.84134(6)
H45_3 H 0.5645 0.9114 0.8460
C63_3 C 0.71329(13) 0.89181(18) 0.62590(8)
C64_3 C 0.75628(9) 0.93831(11) 0.66046(7)
C65_3 C 0.75884(7) 0.93222(9) 0.71414(6)
H46_3 H 0.7351 0.8993 0.7268
C66_3 C 0.79562(6) 0.97354(7) 0.74908(5)
C69_3 C 0.79189(7) 0.98715(10) 0.64176(7)
H48_3 H 0.7914 0.9910 0.6062
O17_3 O 0.92935(5) 0.75043(6) 0.75276(4)
O18_3 O 0.96970(5) 0.69177(5) 0.82110(4)
O19_3 O 0.92203(8) 0.75256(9) 0.99614(5)
O30_2 O 0.91527(5) 0.58622(5) 0.72475(5)
O39_3 O 0.68498(9) 0.84596(11) 0.64283(8)
O40_3 O 0.71048(11) 0.90734(13) 0.57721(8)
Si2_3 Si 0.795683(14) 0.960673(18) 0.819905(14)
H51_3 H 0.697735 0.956978 0.571353
O20_4 O 0.38650(7) 0.35317(8) 0.00589(5)
H52_2 H 0.31663 0.705718 0.000542801
C7_4 C 0.56231(6) 0.24022(7) 0.69994(6)
C8_4 C 0.59262(6) 0.28625(7) 0.66538(5)
C9_4 C 0.58392(6) 0.27514(7) 0.61217(5)
H25_4 H 0.5603 0.2382 0.5980
C10_4 C 0.60995(6) 0.31831(8) 0.58003(5)
C11_4 C 0.64420(5) 0.37360(7) 0.60168(5)
H26_4 H 0.6604 0.4039 0.5799
C12_4 C 0.65535(5) 0.38544(7) 0.65502(5)
C13_4 C 0.62870(5) 0.34093(6) 0.68624(5)
H27_4 H 0.6352 0.3479 0.7220
C14_4 C 0.59907(7) 0.30722(9) 0.52153(6)
C15_4 C 0.53503(6) 0.64108(9) 0.60204(7)
C16_4 C 0.59881(6) 0.62031(7) 0.60774(6)
C17_4 C 0.63657(7) 0.65824(8) 0.58247(7)
H28_4 H 0.6229 0.6977 0.5632
C18_4 C 0.69444(6) 0.63838(8) 0.58546(7)
C19_4 C 0.71402(6) 0.57988(7) 0.61514(6)
H29_4 H 0.7530 0.5667 0.6175
C20_4 C 0.67782(5) 0.54002(7) 0.64149(5)
C21_4 C 0.61992(6) 0.56142(7) 0.63683(5)
H30_4 H 0.5944 0.5357 0.6536
C22_4 C 0.73454(8) 0.67729(11) 0.55721(9)
C23_4 C 0.87322(6) 0.29973(8) 0.62112(6)
C24_4 C 0.85568(6) 0.36836(7) 0.64286(5)
C25_4 C 0.79768(5) 0.38028(7) 0.64834(5)
H31_4 H 0.7695 0.3467 0.6364
C26_4 C 0.78122(5) 0.44145(7) 0.67137(5)
C27_4 C 0.82530(5) 0.49118(7) 0.68800(5)
H32_4 H 0.8155 0.5322 0.7040
C28_4 C 0.88258(6) 0.48091(7) 0.68135(6)
C29_4 C 0.89700(6) 0.41890(7) 0.65866(6)
H33_4 H 0.9355 0.4114 0.6540
C30_4 C 0.92898(7) 0.53580(8) 0.69850(7)
C31_4 C 0.78671(13) 0.39181(18) 0.87410(8)
C32_4 C 0.74372(9) 0.43831(11) 0.83954(7)
C33_4 C 0.74116(7) 0.43222(9) 0.78586(6)
H34_4 H 0.7649 0.3993 0.7732
C34_4 C 0.70438(6) 0.47354(7) 0.75092(5)
C35_4 C 0.67135(6) 0.52235(7) 0.77231(5)
H35_4 H 0.6471 0.5521 0.7501
C36_4 C 0.67259(6) 0.52930(8) 0.82541(6)
C37_4 C 0.70811(7) 0.48715(10) 0.85824(7)
H36_4 H 0.7086 0.4910 0.8938
C38_4 C 0.63595(7) 0.58410(9) 0.84738(6)
O1_4 O 0.57065(5) 0.25043(6) 0.74724(4)
O2_4 O 0.53030(5) 0.19177(5) 0.67890(4)
O3_4 O 0.57797(8) 0.25256(9) 0.50386(5)
O4_4 O 0.61350(7) 0.35317(8) 0.49411(5)
O7_4 O 0.78612(7) 0.66039(10) 0.56251(7)
O8_4 O 0.71373(6) 0.72548(7) 0.52694(6)
O10_4 O 0.97856(5) 0.52852(7) 0.68633(6)
O13_4 O 0.81502(9) 0.34596(11) 0.85717(8)
O14_4 O 0.78952(11) 0.40734(13) 0.92279(8)
O16_4 O 0.60377(6) 0.62386(7) 0.81726(5)
Si1_4 Si 0.704317(14) 0.460673(18) 0.680095(14)
C39_4 C 0.43769(6) 0.24022(7) 0.80006(6)
C40_4 C 0.40738(6) 0.28625(7) 0.83462(5)
C41_4 C 0.41608(6) 0.27514(7) 0.88783(5)
H37_4 H 0.4397 0.2382 0.9020
C42_4 C 0.39005(6) 0.31831(8) 0.91997(5)
C43_4 C 0.35580(5) 0.37360(7) 0.89832(5)
H38_4 H 0.3396 0.4039 0.9201
C44_4 C 0.34465(5) 0.38544(7) 0.84498(5)
C45_4 C 0.37130(5) 0.34093(6) 0.81376(5)
H39_4 H 0.3648 0.3479 0.7780
C46_4 C 0.40093(7) 0.30722(9) 0.97847(6)
C47_4 C 0.46497(6) 0.64108(9) 0.89796(7)
C48_4 C 0.40119(6) 0.62031(7) 0.89226(6)
C49_4 C 0.36343(7) 0.65824(8) 0.91753(7)
H40_4 H 0.3771 0.6977 0.9368
C50_4 C 0.30556(6) 0.63838(8) 0.91454(7)
C51_4 C 0.28598(6) 0.57988(7) 0.88486(6)
H41_4 H 0.2470 0.5667 0.8825
C52_4 C 0.32218(5) 0.54002(7) 0.85851(5)
C53_4 C 0.38008(6) 0.56142(7) 0.86317(5)
H42_4 H 0.4056 0.5357 0.8464
C54_4 C 0.26546(8) 0.67729(11) 0.94279(9)
C55_4 C 0.12678(6) 0.29973(8) 0.87888(6)
C56_4 C 0.14432(6) 0.36836(7) 0.85714(5)
C57_4 C 0.20232(5) 0.38028(7) 0.85166(5)
H43_4 H 0.2305 0.3467 0.8636
C58_4 C 0.21878(5) 0.44145(7) 0.82863(5)
C59_4 C 0.17470(5) 0.49118(7) 0.81200(5)
H44_4 H 0.1845 0.5322 0.7960
C60_4 C 0.11742(6) 0.48091(7) 0.81865(6)
C61_4 C 0.10300(6) 0.41890(7) 0.84134(6)
H45_4 H 0.0645 0.4114 0.8460
C62_4 C 0.07102(7) 0.53580(8) 0.80150(7)
C63_4 C 0.21329(13) 0.39181(18) 0.62590(8)
C64_4 C 0.25628(9) 0.43831(11) 0.66046(7)
C65_4 C 0.25884(7) 0.43222(9) 0.71414(6)
H46_4 H 0.2351 0.3993 0.7268
C66_4 C 0.29562(6) 0.47354(7) 0.74908(5)
C67_4 C 0.32865(6) 0.52235(7) 0.72769(5)
H47_4 H 0.3529 0.5521 0.7499
C68_4 C 0.32741(6) 0.52930(8) 0.67459(6)
C69_4 C 0.29189(7) 0.48715(10) 0.64176(7)
H48_4 H 0.2914 0.4910 0.6062
C70_4 C 0.36405(7) 0.58410(9) 0.65262(6)
O17_4 O 0.42935(5) 0.25043(6) 0.75276(4)
O18_4 O 0.46970(5) 0.19177(5) 0.82110(4)
O19_4 O 0.42203(8) 0.25256(9) 0.99614(5)
O27_4 O 0.21388(7) 0.66039(10) 0.93749(7)
O28_4 O 0.28627(6) 0.72548(7) 0.97306(6)
O32_4 O 0.02144(5) 0.52852(7) 0.81367(6)
O39_4 O 0.18498(9) 0.34596(11) 0.64283(8)
O40_4 O 0.21048(11) 0.40734(13) 0.57721(8)
O44_4 O 0.39623(6) 0.62386(7) 0.68274(5)
Si2_4 Si 0.295683(14) 0.460673(18) 0.819905(14)
H49_4 H 0.802265 0.456978 0.928647
H50_4 H 0.68337 0.705718 0.499457
H51_4 H 0.197735 0.456978 0.571353
H52_3 H 0.18337 0.794282 0.999457
H52_4 H 0.81663 0.205718 0.000542801
loop_
_geom_bond_atom_site_label_1
_geom_bond_atom_site_label_2
_geom_bond_site_symmetry_1
_geom_bond_site_symmetry_2
C1 H1 1_555 1_555
H2 C1 1_555 1_555
H3 C1 1_555 1_555
C2 H4 1_555 1_555
H5 C2 1_555 1_555
H6 C2 1_555 1_555
H7 N1 1_555 1_555
H8 N1 1_555 1_555
C2 N1 1_555 1_555
C1_2 H1_2 1_555 1_555
H2_2 C1_2 1_555 1_555
H3_2 C1_2 1_555 1_555
C2_2 H4_2 1_555 1_555
H5_2 C2_2 1_555 1_555
H6_2 C2_2 1_555 1_555
H7_2 N1_2 1_555 1_555
H8_2 N1_2 1_555 1_555
C2_2 N1_2 1_555 1_555
C1_3 H1_3 1_555 1_555
H2_3 C1_3 1_555 1_555
H3_3 C1_3 1_555 1_555
C2_3 H4_3 1_555 1_555
H5_3 C2_3 1_555 1_555
H6_3 C2_3 1_555 1_555
N1_3 C1_3 1_555 1_555
H7_3 N1_3 1_555 1_555
H8_3 N1_3 1_555 1_555
C2_3 N1_3 1_555 1_555
C1_4 H1_4 1_555 1_555
H2_4 C1_4 1_555 1_555
H3_4 C1_4 1_555 1_555
C2_4 H4_4 1_555 1_555
H5_4 C2_4 1_555 1_555
H6_4 C2_4 1_555 1_555
N1_4 C1_4 1_555 1_555
H7_4 N1_4 1_555 1_555
H8_4 N1_4 1_555 1_555
C2_4 N1_4 1_555 1_555
C2_5 H4_5 1_555 1_555
H5_5 C2_5 1_555 1_555
H6_5 C2_5 1_555 1_555
H7_5 N1_5 1_555 1_555
H8_5 N1_5 1_555 1_555
C2_5 N1_5 1_555 1_555
C1_5 H1_5 1_555 1_555
H2_5 C1_5 1_555 1_555
H3_5 C1_5 1_555 1_555
C2_6 H4_6 1_555 1_555
H5_6 C2_6 1_555 1_555
H6_6 C2_6 1_555 1_555
H7_6 N1_6 1_555 1_555
H8_6 N1_6 1_555 1_555
C2_6 N1_6 1_555 1_555
C1_6 H1_6 1_555 1_555
H2_6 C1_6 1_555 1_555
H3_6 C1_6 1_555 1_555
C1_7 H1_7 1_555 1_555
H2_7 C1_7 1_555 1_555
H3_7 C1_7 1_555 1_555
C2_7 H4_7 1_555 1_555
H5_7 C2_7 1_555 1_555
H6_7 C2_7 1_555 1_555
N1_7 C1_7 1_555 1_555
H7_7 N1_7 1_555 1_555
H8_7 N1_7 1_555 1_555
C2_7 N1_7 1_555 1_555
C1_8 H1_8 1_555 1_555
H2_8 C1_8 1_555 1_555
H3_8 C1_8 1_555 1_555
C2_8 H4_8 1_555 1_555
H5_8 C2_8 1_555 1_555
H6_8 C2_8 1_555 1_555
N1_8 C1_8 1_555 1_555
H7_8 N1_8 1_555 1_555
H8_8 N1_8 1_555 1_555
C2_8 N1_8 1_555 1_555
C3 H9 1_555 1_555
H10 C3 1_555 1_555
H11 C3 1_555 1_555
C4 H12 1_555 1_555
H13 C4 1_555 1_555
H14 C4 1_555 1_555
N2 C3 1_555 1_555
H15 N2 1_555 1_555
H16 N2 1_555 1_555
C4 N2 1_555 1_555
C3_2 H9_2 1_555 1_555
H10_2 C3_2 1_555 1_555
H11_2 C3_2 1_555 1_555
C4_2 H12_2 1_555 1_555
H13_2 C4_2 1_555 1_555
H14_2 C4_2 1_555 1_555
N2_2 C3_2 1_555 1_555
H15_2 N2_2 1_555 1_555
H16_2 N2_2 1_555 1_555
C4_2 N2_2 1_555 1_555
C3_3 H9_3 1_555 1_555
H10_3 C3_3 1_555 1_555
H11_3 C3_3 1_555 1_555
C4_3 H12_3 1_555 1_555
H13_3 C4_3 1_555 1_555
H14_3 C4_3 1_555 1_555
N2_3 C3_3 1_555 1_555
H15_3 N2_3 1_555 1_555
H16_3 N2_3 1_555 1_555
C4_3 N2_3 1_555 1_555
C3_4 H9_4 1_555 1_555
H10_4 C3_4 1_555 1_555
H11_4 C3_4 1_555 1_555
C4_4 H12_4 1_555 1_555
H13_4 C4_4 1_555 1_555
H14_4 C4_4 1_555 1_555
N2_4 C3_4 1_555 1_555
H15_4 N2_4 1_555 1_555
H16_4 N2_4 1_555 1_555
C4_4 N2_4 1_555 1_555
C3_5 H9_5 1_555 1_555
H10_5 C3_5 1_555 1_555
H11_5 C3_5 1_555 1_555
C4_5 H12_5 1_555 1_555
H13_5 C4_5 1_555 1_555
H14_5 C4_5 1_555 1_555
N2_5 C3_5 1_555 1_555
H15_5 N2_5 1_555 1_555
H16_5 N2_5 1_555 1_555
C4_5 N2_5 1_555 1_555
C3_6 H9_6 1_555 1_555
H10_6 C3_6 1_555 1_555
H11_6 C3_6 1_555 1_555
C4_6 H12_6 1_555 1_555
H13_6 C4_6 1_555 1_555
H14_6 C4_6 1_555 1_555
N2_6 C3_6 1_555 1_555
H15_6 N2_6 1_555 1_555
H16_6 N2_6 1_555 1_555
C4_6 N2_6 1_555 1_555
C3_7 H9_7 1_555 1_555
H10_7 C3_7 1_555 1_555
H11_7 C3_7 1_555 1_555
C4_7 H12_7 1_555 1_555
H13_7 C4_7 1_555 1_555
H14_7 C4_7 1_555 1_555
N2_7 C3_7 1_555 1_555
H15_7 N2_7 1_555 1_555
H16_7 N2_7 1_555 1_555
C4_7 N2_7 1_555 1_555
C3_8 H9_8 1_555 1_555
H10_8 C3_8 1_555 1_555
H11_8 C3_8 1_555 1_555
C4_8 H12_8 1_555 1_555
H13_8 C4_8 1_555 1_555
H14_8 C4_8 1_555 1_555
N2_8 C3_8 1_555 1_555
H15_8 N2_8 1_555 1_555
H16_8 N2_8 1_555 1_555
C4_8 N2_8 1_555 1_555
H19 C5 1_555 1_555
H21 C6 1_555 1_555
H22 C6 1_555 1_555
N3 C5 1_555 1_555
H23 N3 1_555 1_555
C6 N3 1_555 1_555
H19_2 C5_2 1_555 1_555
H21_2 C6_2 1_555 1_555
H22_2 C6_2 1_555 1_555
N3_2 C5_2 1_555 1_555
H23_2 N3_2 1_555 1_555
C6_2 N3_2 1_555 1_555
C5_3 H17_3 1_555 1_555
H18_3 C5_3 1_555 1_555
H19_3 C5_3 1_555 1_555
C6_3 H20_3 1_555 1_555
H21_3 C6_3 1_555 1_555
H22_3 C6_3 1_555 1_555
N3_3 C5_3 1_555 1_555
H23_3 N3_3 1_555 1_555
H24_3 N3_3 1_555 1_555
C6_3 N3_3 1_555 1_555
C5_4 H17_4 1_555 1_555
H19_4 C5_4 1_555 1_555
C6_4 H20_4 1_555 1_555
H21_4 C6_4 1_555 1_555
H22_4 C6_4 1_555 1_555
N3_4 C5_4 1_555 1_555
H23_4 N3_4 1_555 1_555
H24_4 N3_4 1_555 1_555
C6_4 N3_4 1_555 1_555
H19_5 C5_5 1_555 1_555
H21_5 C6_5 1_555 1_555
H22_5 C6_5 1_555 1_555
N3_5 C5_5 1_555 1_555
H23_5 N3_5 1_555 1_555
C6_5 N3_5 1_555 1_555
H19_6 C5_6 1_555 1_555
H21_6 C6_6 1_555 1_555
H22_6 C6_6 1_555 1_555
N3_6 C5_6 1_555 1_555
H23_6 N3_6 1_555 1_555
C6_6 N3_6 1_555 1_555
C5_7 H17_7 1_555 1_555
H18_7 C5_7 1_555 1_555
H19_7 C5_7 1_555 1_555
C6_7 H20_7 1_555 1_555
H21_7 C6_7 1_555 1_555
H22_7 C6_7 1_555 1_555
N3_7 C5_7 1_555 1_555
H23_7 N3_7 1_555 1_555
H24_7 N3_7 1_555 1_555
C6_7 N3_7 1_555 1_555
C5_8 H17_8 1_555 1_555
H19_8 C5_8 1_555 1_555
C6_8 H20_8 1_555 1_555
H21_8 C6_8 1_555 1_555
H22_8 C6_8 1_555 1_555
N3_8 C5_8 1_555 1_555
H23_8 N3_8 1_555 1_555
H24_8 N3_8 1_555 1_555
C6_8 N3_8 1_555 1_555
C39 C40 1_555 1_555
C40 C41 1_555 1_555
C41 H37 1_555 1_555
C42 C41 1_555 1_555
C43 C42 1_555 1_555
H38 C43 1_555 1_555
C44 C43 1_555 1_555
C45 C40 1_555 1_555
H39 C45 1_555 1_555
C46 C42 1_555 1_555
C55 C56 1_555 1_555
C56 C57 1_555 1_555
C57 H43 1_555 1_555
C58 C57 1_555 1_555
C59 C58 1_555 1_555
C60 C59 1_555 1_555
C61 C56 1_555 1_555
H45 C61 1_555 1_555
C63 C64 1_555 1_555
C64 C65 1_555 1_555
C65 H46 1_555 1_555
C66 C65 1_555 1_555
C69 C64 1_555 1_555
H48 C69 1_555 1_555
Cd9 O33 1_555 1_555
O17 Cd1 1_555 1_555
O18 Cd1 1_555 1_555
O19 C46 1_555 1_555
O30 Cd1 1_555 1_555
O33 C55 1_555 1_555
O36 C55 1_555 1_555
O39 C63 1_555 1_555
O40 C63 1_555 1_555
Si2 C44 1_555 1_555
C39 O17 1_555 1_555
C39 O18 1_555 1_555
C44 C45 1_555 1_555
C58 Si2 1_555 1_555
C60 C61 1_555 1_555
C66 Si2 1_555 1_555
Cd9 O36 1_555 1_555
O40 H51 1_555 1_555
Cd5 O20 1_555 1_555
O23 Cd5 1_555 1_555
O35 Cd5 1_555 1_555
O38 Cd5 1_555 1_555
O43 Cd5 1_555 1_555
C47 C48 1_555 1_555
C48 C49 1_555 1_555
C49 H40 1_555 1_555
C50 C49 1_555 1_555
C51 C50 1_555 1_555
H41 C51 1_555 1_555
C52 C51 1_555 1_555
C53 C48 1_555 1_555
H42 C53 1_555 1_555
C54 C50 1_555 1_555
H47 C67 1_555 1_555
C68 C67 1_555 1_555
C70 C68 1_555 1_555
Cd4 O29 1_555 1_555
Cd6 O5 1_555 1_555
O24 C47 1_555 1_555
O27 C54 1_555 1_555
O28 C54 1_555 1_555
O29 C62 1_555 1_555
O32 C62 1_555 1_555
O41 C70 1_555 1_555
O44 C70 1_555 1_555
C52 C53 1_555 1_555
Cd6 O41 1_555 1_555
C7 C8 1_555 1_555
C8 C9 1_555 1_555
C9 H25 1_555 1_555
C10 C9 1_555 1_555
C11 C10 1_555 1_555
H26 C11 1_555 1_555
C12 C11 1_555 1_555
C13 C8 1_555 1_555
H27 C13 1_555 1_555
C14 C10 1_555 1_555
C23 C24 1_555 1_555
C24 C25 1_555 1_555
C25 H31 1_555 1_555
C26 C25 1_555 1_555
C27 C26 1_555 1_555
C28 C27 1_555 1_555
C29 C24 1_555 1_555
H33 C29 1_555 1_555
C31 C32 1_555 1_555
C32 C33 1_555 1_555
C33 H34 1_555 1_555
C34 C33 1_555 1_555
C37 C32 1_555 1_555
H36 C37 1_555 1_555
Cd1_2 O1 1_555 1_555
Cd2 O4 1_555 1_555
O1 C7 1_555 1_555
O2 C7 1_555 1_555
O3 C14 1_555 1_555
O4 C14 1_555 1_555
O11 C23 1_555 1_555
O12 C23 1_555 1_555
O13 C31 1_555 1_555
O14 C31 1_555 1_555
Si1 C12 1_555 1_555
Cd7 O11 1_555 1_555
O22 Cd2 1_555 1_555
O31 Cd1_2 1_555 1_555
O34 Cd2 1_555 1_555
O37 Cd2 1_555 1_555
O42 Cd2 1_555 1_555
C12 C13 1_555 1_555
C26 Si1 1_555 1_555
C28 C29 1_555 1_555
C34 Si1 1_555 1_555
Cd1_2 O2 1_555 1_555
O12 Cd7 1_555 1_555
O14 H49 1_555 1_555
C15 C16 1_555 1_555
C16 C17 1_555 1_555
C17 H28 1_555 1_555
C18 C17 1_555 1_555
C19 C18 1_555 1_555
H29 C19 1_555 1_555
C20 C19 1_555 1_555
C21 C16 1_555 1_555
H30 C21 1_555 1_555
C22 C18 1_555 1_555
H35 C35 1_555 1_555
C36 C35 1_555 1_555
C38 C36 1_555 1_555
O6 C15 1_555 1_555
O7 C22 1_555 1_555
O8 C22 1_555 1_555
O9 C30 1_555 1_555
O10 C30 1_555 1_555
O15 C38 1_555 1_555
O16 C38 1_555 1_555
Cd4 O9 1_555 1_555
Cd8 O15 1_555 1_555
C20 C21 1_555 1_555
Cd8 O21 1_555 1_555
O8 H50 1_555 1_555
C7_2 C8_2 1_555 1_555
C8_2 C9_2 1_555 1_555
C9_2 H25_2 1_555 1_555
C10_2 C9_2 1_555 1_555
C11_2 C10_2 1_555 1_555
H26_2 C11_2 1_555 1_555
C12_2 C11_2 1_555 1_555
C13_2 C8_2 1_555 1_555
H27_2 C13_2 1_555 1_555
C14_2 C10_2 1_555 1_555
C15_2 C16_2 1_555 1_555
C16_2 C17_2 1_555 1_555
C17_2 H28_2 1_555 1_555
C18_2 C17_2 1_555 1_555
C19_2 C18_2 1_555 1_555
H29_2 C19_2 1_555 1_555
C20_2 C19_2 1_555 1_555
C21_2 C16_2 1_555 1_555
H30_2 C21_2 1_555 1_555
C22_2 C18_2 1_555 1_555
C23_2 C24_2 1_555 1_555
C24_2 C25_2 1_555 1_555
C25_2 H31_2 1_555 1_555
C26_2 C25_2 1_555 1_555
C27_2 C26_2 1_555 1_555
H32_2 C27_2 1_555 1_555
C28_2 C27_2 1_555 1_555
C29_2 C24_2 1_555 1_555
H33_2 C29_2 1_555 1_555
C30_2 C28_2 1_555 1_555
C31_2 C32_2 1_555 1_555
C32_2 C33_2 1_555 1_555
C33_2 H34_2 1_555 1_555
C34_2 C33_2 1_555 1_555
C35_2 C34_2 1_555 1_555
H35_2 C35_2 1_555 1_555
C36_2 C35_2 1_555 1_555
C37_2 C32_2 1_555 1_555
H36_2 C37_2 1_555 1_555
C38_2 C36_2 1_555 1_555
Cd4 O1_2 1_555 1_555
Cd2_2 O4_2 1_555 1_555
O1_2 C7_2 1_555 1_555
O2_2 C7_2 1_555 1_555
O3_2 C14_2 1_555 1_555
O4_2 C14_2 1_555 1_555
O5_2 C15_2 1_555 1_555
O6_2 C15_2 1_555 1_555
O7_2 C22_2 1_555 1_555
O8_2 C22_2 1_555 1_555
O30 C30_2 1_555 1_555
O10_2 C30_2 1_555 1_555
O11_2 C23_2 1_555 1_555
O12_2 C23_2 1_555 1_555
O13_2 C31_2 1_555 1_555
O14_2 C31_2 1_555 1_555
O15_2 C38_2 1_555 1_555
O16_2 C38_2 1_555 1_555
Si1_2 C12_2 1_555 1_555
C39_2 C40_2 1_555 1_555
C40_2 C41_2 1_555 1_555
C41_2 H37_2 1_555 1_555
C42_2 C41_2 1_555 1_555
C43_2 C42_2 1_555 1_555
H38_2 C43_2 1_555 1_555
C44_2 C43_2 1_555 1_555
C45_2 C40_2 1_555 1_555
H39_2 C45_2 1_555 1_555
C46_2 C42_2 1_555 1_555
C47_2 C48_2 1_555 1_555
C48_2 C49_2 1_555 1_555
C49_2 H40_2 1_555 1_555
C50_2 C49_2 1_555 1_555
C51_2 C50_2 1_555 1_555
H41_2 C51_2 1_555 1_555
C52_2 C51_2 1_555 1_555
C53_2 C48_2 1_555 1_555
H42_2 C53_2 1_555 1_555
C54_2 C50_2 1_555 1_555
C55_2 C56_2 1_555 1_555
C56_2 C57_2 1_555 1_555
C57_2 H43_2 1_555 1_555
C58_2 C57_2 1_555 1_555
C59_2 C58_2 1_555 1_555
H44_2 C59_2 1_555 1_555
C60_2 C59_2 1_555 1_555
C61_2 C56_2 1_555 1_555
H45_2 C61_2 1_555 1_555
C62_2 C60_2 1_555 1_555
C63_2 C64_2 1_555 1_555
C64_2 C65_2 1_555 1_555
C65_2 H46_2 1_555 1_555
C66_2 C65_2 1_555 1_555
C67_2 C66_2 1_555 1_555
H47_2 C67_2 1_555 1_555
C68_2 C67_2 1_555 1_555
C69_2 C64_2 1_555 1_555
H48_2 C69_2 1_555 1_555
C70_2 C68_2 1_555 1_555
Cd7 O5_2 1_555 1_555
Cd6 O11_2 1_555 1_555
Cd9 O15_2 1_555 1_555
Cd8 O33_2 1_555 1_555
O17_2 Cd4 1_555 1_555
O18_2 Cd4 1_555 1_555
O19_2 C46_2 1_555 1_555
O21_2 C47_2 1_555 1_555
O22_2 Cd2_2 1_555 1_555
O24_2 C47_2 1_555 1_555
O25_2 Cd2_2 1_555 1_555
O27_2 C54_2 1_555 1_555
O28_2 C54_2 1_555 1_555
O31 C62_2 1_555 1_555
O32_2 C62_2 1_555 1_555
O33_2 C55_2 1_555 1_555
O34_2 Cd2_2 1_555 1_555
O36_2 C55_2 1_555 1_555
O37_2 Cd2_2 1_555 1_555
O39_2 C63_2 1_555 1_555
O40_2 C63_2 1_555 1_555
O41_2 C70_2 1_555 1_555
O42_2 Cd2_2 1_555 1_555
O44_2 C70_2 1_555 1_555
Si2_2 C44_2 1_555 1_555
C12_2 C13_2 1_555 1_555
C20_2 C21_2 1_555 1_555
C20_2 Si1_2 1_555 1_555
C26_2 Si1_2 1_555 1_555
C28_2 C29_2 1_555 1_555
C34_2 Si1_2 1_555 1_555
C36_2 C37_2 1_555 1_555
Cd4 O2_2 1_555 1_555
O6_2 Cd7 1_555 1_555
O12_2 Cd6 1_555 1_555
C39_2 O17_2 1_555 1_555
C39_2 O18_2 1_555 1_555
C44_2 C45_2 1_555 1_555
C52_2 C53_2 1_555 1_555
C52_2 Si2_2 1_555 1_555
C58_2 Si2_2 1_555 1_555
C60_2 C61_2 1_555 1_555
C66_2 Si2_2 1_555 1_555
C68_2 C69_2 1_555 1_555
Cd7 O41_2 1_555 1_555
Cd9 O21_2 1_555 1_555
Cd9 O24_2 1_555 1_555
Cd8 O36_2 1_555 1_555
O14_2 H49_2 1_555 1_555
O8_2 H50_2 1_555 1_555
O40_2 H51_2 1_555 1_555
Cd5_2 O20_2 1_555 1_555
O23_2 Cd5_2 1_555 1_555
O26_2 Cd5_2 1_555 1_555
O35_2 Cd5_2 1_555 1_555
O38_2 Cd5_2 1_555 1_555
O43_2 Cd5_2 1_555 1_555
C15_3 C16_3 1_555 1_555
C16_3 C17_3 1_555 1_555
C17_3 H28_3 1_555 1_555
C18_3 C17_3 1_555 1_555
C19_3 C18_3 1_555 1_555
H29_3 C19_3 1_555 1_555
C20_3 C19_3 1_555 1_555
C21_3 C16_3 1_555 1_555
H30_3 C21_3 1_555 1_555
C22_3 C18_3 1_555 1_555
H35_3 C35_3 1_555 1_555
C36_3 C35_3 1_555 1_555
C38_3 C36_3 1_555 1_555
O25 C15_3 1_555 1_555
O7_3 C22_3 1_555 1_555
O8_3 C22_3 1_555 1_555
O9_2 C30_3 1_555 1_555
O10_3 C30_3 1_555 1_555
O43 C38_3 1_555 1_555
O16_3 C38_3 1_555 1_555
Cd3 O9_2 1_555 1_555
C20_3 C21_3 1_555 1_555
O8_3 H50_3 1_555 1_555
C7_3 C8_3 1_555 1_555
C8_3 C9_3 1_555 1_555
C9_3 H25_3 1_555 1_555
C10_3 C9_3 1_555 1_555
C11_3 C10_3 1_555 1_555
H26_3 C11_3 1_555 1_555
C12_3 C11_3 1_555 1_555
C13_3 C8_3 1_555 1_555
H27_3 C13_3 1_555 1_555
C14_3 C10_3 1_555 1_555
C23_3 C24_3 1_555 1_555
C24_3 C25_3 1_555 1_555
C25_3 H31_3 1_555 1_555
C26_3 C25_3 1_555 1_555
C27_3 C26_3 1_555 1_555
C28_3 C27_3 1_555 1_555
C29_3 C24_3 1_555 1_555
H33_3 C29_3 1_555 1_555
C31_3 C32_3 1_555 1_555
C32_3 C33_3 1_555 1_555
C33_3 H34_3 1_555 1_555
C34_3 C33_3 1_555 1_555
C37_3 C32_3 1_555 1_555
H36_3 C37_3 1_555 1_555
Cd1_3 O1_3 1_555 1_555
Cd6 O4_3 1_555 1_555
O1_3 C7_3 1_555 1_555
O2_3 C7_3 1_555 1_555
O3_3 C14_3 1_555 1_555
O4_3 C14_3 1_555 1_555
O34_2 C23_3 1_555 1_555
O37_2 C23_3 1_555 1_555
O13_3 C31_3 1_555 1_555
O14_3 C31_3 1_555 1_555
Si1_3 C12_3 1_555 1_555
O31_2 Cd1_3 1_555 1_555
C12_3 C13_3 1_555 1_555
C26_3 Si1_3 1_555 1_555
C28_3 C29_3 1_555 1_555
C34_3 Si1_3 1_555 1_555
Cd1_3 O2_3 1_555 1_555
O14_3 H49_3 1_555 1_555
C47_3 C48_3 1_555 1_555
C48_3 C49_3 1_555 1_555
C49_3 H40_3 1_555 1_555
C50_3 C49_3 1_555 1_555
C51_3 C50_3 1_555 1_555
H41_3 C51_3 1_555 1_555
C52_3 C51_3 1_555 1_555
C53_3 C48_3 1_555 1_555
H42_3 C53_3 1_555 1_555
C54_3 C50_3 1_555 1_555
H47_3 C67_3 1_555 1_555
C68_3 C67_3 1_555 1_555
C70_3 C68_3 1_555 1_555
Cd3 O29_2 1_555 1_555
O26 C47_3 1_555 1_555
O27_3 C54_3 1_555 1_555
O28_3 C54_3 1_555 1_555
O29_2 C62_3 1_555 1_555
O32_3 C62_3 1_555 1_555
O42 C70_3 1_555 1_555
O44_3 C70_3 1_555 1_555
C52_3 C53_3 1_555 1_555
Cd8 O20_3 1_555 1_555
C39_3 C40_3 1_555 1_555
C40_3 C41_3 1_555 1_555
C41_3 H37_3 1_555 1_555
C42_3 C41_3 1_555 1_555
C43_3 C42_3 1_555 1_555
H38_3 C43_3 1_555 1_555
C44_3 C43_3 1_555 1_555
C45_3 C40_3 1_555 1_555
H39_3 C45_3 1_555 1_555
C46_3 C42_3 1_555 1_555
C55_3 C56_3 1_555 1_555
C56_3 C57_3 1_555 1_555
C57_3 H43_3 1_555 1_555
C58_3 C57_3 1_555 1_555
C59_3 C58_3 1_555 1_555
C60_3 C59_3 1_555 1_555
C61_3 C56_3 1_555 1_555
H45_3 C61_3 1_555 1_555
C63_3 C64_3 1_555 1_555
C64_3 C65_3 1_555 1_555
C65_3 H46_3 1_555 1_555
C66_3 C65_3 1_555 1_555
C69_3 C64_3 1_555 1_555
H48_3 C69_3 1_555 1_555
O17_3 Cd1_4 1_555 1_555
O18_3 Cd1_4 1_555 1_555
O19_3 C46_3 1_555 1_555
O30_2 Cd1_4 1_555 1_555
O35_2 C55_3 1_555 1_555
O38_2 C55_3 1_555 1_555
O39_3 C63_3 1_555 1_555
O40_3 C63_3 1_555 1_555
Si2_3 C44_3 1_555 1_555
C39_3 O17_3 1_555 1_555
C39_3 O18_3 1_555 1_555
C44_3 C45_3 1_555 1_555
C58_3 Si2_3 1_555 1_555
C60_3 C61_3 1_555 1_555
C66_3 Si2_3 1_555 1_555
O40_3 H51_3 1_555 1_555
Cd9 O20_4 1_555 1_555
C7_4 C8_4 1_555 1_555
C8_4 C9_4 1_555 1_555
C9_4 H25_4 1_555 1_555
C10_4 C9_4 1_555 1_555
C11_4 C10_4 1_555 1_555
H26_4 C11_4 1_555 1_555
C12_4 C11_4 1_555 1_555
C13_4 C8_4 1_555 1_555
H27_4 C13_4 1_555 1_555
C14_4 C10_4 1_555 1_555
C15_4 C16_4 1_555 1_555
C16_4 C17_4 1_555 1_555
C17_4 H28_4 1_555 1_555
C18_4 C17_4 1_555 1_555
C19_4 C18_4 1_555 1_555
H29_4 C19_4 1_555 1_555
C20_4 C19_4 1_555 1_555
C21_4 C16_4 1_555 1_555
H30_4 C21_4 1_555 1_555
C22_4 C18_4 1_555 1_555
C23_4 C24_4 1_555 1_555
C24_4 C25_4 1_555 1_555
C25_4 H31_4 1_555 1_555
C26_4 C25_4 1_555 1_555
C27_4 C26_4 1_555 1_555
H32_4 C27_4 1_555 1_555
C28_4 C27_4 1_555 1_555
C29_4 C24_4 1_555 1_555
H33_4 C29_4 1_555 1_555
C30_4 C28_4 1_555 1_555
C31_4 C32_4 1_555 1_555
C32_4 C33_4 1_555 1_555
C33_4 H34_4 1_555 1_555
C34_4 C33_4 1_555 1_555
C35_4 C34_4 1_555 1_555
H35_4 C35_4 1_555 1_555
C36_4 C35_4 1_555 1_555
C37_4 C32_4 1_555 1_555
H36_4 C37_4 1_555 1_555
C38_4 C36_4 1_555 1_555
Cd3 O1_4 1_555 1_555
Cd7 O4_4 1_555 1_555
O1_4 C7_4 1_555 1_555
O2_4 C7_4 1_555 1_555
O3_4 C14_4 1_555 1_555
O4_4 C14_4 1_555 1_555
O22_2 C15_4 1_555 1_555
O25_2 C15_4 1_555 1_555
O7_4 C22_4 1_555 1_555
O8_4 C22_4 1_555 1_555
O30_2 C30_4 1_555 1_555
O10_4 C30_4 1_555 1_555
O34 C23_4 1_555 1_555
O37 C23_4 1_555 1_555
O13_4 C31_4 1_555 1_555
O14_4 C31_4 1_555 1_555
O43_2 C38_4 1_555 1_555
O16_4 C38_4 1_555 1_555
Si1_4 C12_4 1_555 1_555
C39_4 C40_4 1_555 1_555
C40_4 C41_4 1_555 1_555
C41_4 H37_4 1_555 1_555
C42_4 C41_4 1_555 1_555
C43_4 C42_4 1_555 1_555
H38_4 C43_4 1_555 1_555
C44_4 C43_4 1_555 1_555
C45_4 C40_4 1_555 1_555
H39_4 C45_4 1_555 1_555
C46_4 C42_4 1_555 1_555
C47_4 C48_4 1_555 1_555
C48_4 C49_4 1_555 1_555
C49_4 H40_4 1_555 1_555
C50_4 C49_4 1_555 1_555
C51_4 C50_4 1_555 1_555
H41_4 C51_4 1_555 1_555
C52_4 C51_4 1_555 1_555
C53_4 C48_4 1_555 1_555
H42_4 C53_4 1_555 1_555
C54_4 C50_4 1_555 1_555
C55_4 C56_4 1_555 1_555
C56_4 C57_4 1_555 1_555
C57_4 H43_4 1_555 1_555
C58_4 C57_4 1_555 1_555
C59_4 C58_4 1_555 1_555
H44_4 C59_4 1_555 1_555
C60_4 C59_4 1_555 1_555
C61_4 C56_4 1_555 1_555
H45_4 C61_4 1_555 1_555
C62_4 C60_4 1_555 1_555
C63_4 C64_4 1_555 1_555
C64_4 C65_4 1_555 1_555
C65_4 H46_4 1_555 1_555
C66_4 C65_4 1_555 1_555
C67_4 C66_4 1_555 1_555
H47_4 C67_4 1_555 1_555
C68_4 C67_4 1_555 1_555
C69_4 C64_4 1_555 1_555
H48_4 C69_4 1_555 1_555
C70_4 C68_4 1_555 1_555
O17_4 Cd3 1_555 1_555
O18_4 Cd3 1_555 1_555
O19_4 C46_4 1_555 1_555
O23_2 C47_4 1_555 1_555
O26_2 C47_4 1_555 1_555
O27_4 C54_4 1_555 1_555
O28_4 C54_4 1_555 1_555
O31_2 C62_4 1_555 1_555
O32_4 C62_4 1_555 1_555
O35 C55_4 1_555 1_555
O38 C55_4 1_555 1_555
O39_4 C63_4 1_555 1_555
O40_4 C63_4 1_555 1_555
O42_2 C70_4 1_555 1_555
O44_4 C70_4 1_555 1_555
Si2_4 C44_4 1_555 1_555
C12_4 C13_4 1_555 1_555
C20_4 C21_4 1_555 1_555
C20_4 Si1_4 1_555 1_555
C26_4 Si1_4 1_555 1_555
C28_4 C29_4 1_555 1_555
C34_4 Si1_4 1_555 1_555
C36_4 C37_4 1_555 1_555
Cd3 O2_4 1_555 1_555
C39_4 O17_4 1_555 1_555
C39_4 O18_4 1_555 1_555
C44_4 C45_4 1_555 1_555
C52_4 C53_4 1_555 1_555
C52_4 Si2_4 1_555 1_555
C58_4 Si2_4 1_555 1_555
C60_4 C61_4 1_555 1_555
C66_4 Si2_4 1_555 1_555
C68_4 C69_4 1_555 1_555
O14_4 H49_4 1_555 1_555
O8_4 H50_4 1_555 1_555
O40_4 H51_4 1_555 1_555

#END
