
###############################################################################
#
# This file contains modified crystal structure data generated from the
# MOF subset of the Cambridge Structural Database (CSD) v543 
# hosted by the Cambridge Crystallographic Data Centre (CCDC).
#
# This work is licensed under the Creative Commons
# Attribution-NonCommercial-ShareAlike 4.0 International License.
# To view a copy of this license, visit
# http://creativecommons.org/licenses/by-nc-sa/4.0/
# or send a letter to
# Creative Commons, PO Box 1866, Mountain View, CA 94042, USA.
#
# CIF created using the CSD Python API on 29 September 2022
# The structure has been converted into the P1 space group
# The structure has a 3D framework
# The original CSD entry GERWIL is in the monoclinic crystal system
# The framework has been calculated to contain at least 10.0% void space
# The void calculation uses a probe of radius 1.32A, grid spacing 0.4
# The framework is charged, counterions have been retained in the structure
# H atom positions have been added when not included in the experimental data
#
###############################################################################

data_GERWIL
_chemical_formula_moiety         '(C304 H304 N24 O132 Si8 Zn14 6+)n'
_symmetry_cell_setting           triclinic
_symmetry_space_group_name_H-M   'P 1'
_symmetry_Int_Tables_number      1
_space_group_name_Hall           'P 1'
loop_
_symmetry_equiv_pos_site_id
_symmetry_equiv_pos_as_xyz
1 x,y,z
_cell_length_a                   23.168(8)
_cell_length_b                   18.615(6)
_cell_length_c                   25.483(8)
_cell_angle_alpha                90
_cell_angle_beta                 101.768(4)
_cell_angle_gamma                90
_cell_volume                     10759.1
loop_
_atom_site_label
_atom_site_type_symbol
_atom_site_fract_x
_atom_site_fract_y
_atom_site_fract_z
Zn12 Zn 0.0000 0.36275(4) 0.7500
O27 O 0.00282(17) 0.8321(2) 0.91374(17)
O30 O 0.0061(2) 0.9266(4) 0.8672(4)
Zn8 Zn 0.08830(2) 0.82237(3) 0.92087(2)
O18 O 0.87953(14) 0.16786(17) 0.00053(12)
O29 O 0.99718(17) 0.1679(2) 0.08626(17)
O34 O 0.86054(15) 0.10404(19) 0.10050(14)
O44 O 0.90701(13) 0.27042(17) 0.11375(13)
Zn4 Zn 0.91170(2) 0.17763(3) 0.07913(2)
C33 C 0.8997(2) 0.2115(3) 0.97030(19)
C34 C 0.88870(18) 0.1944(2) 0.91199(17)
C35 C 0.85415(18) 0.1355(3) 0.89170(18)
H13 H 0.8384 0.1066 0.9150
C36 C 0.84248(17) 0.1187(2) 0.83621(17)
C37 C 0.86928(17) 0.1611(2) 0.80292(17)
H14 H 0.8631 0.1507 0.7665
C38 C 0.90525(18) 0.2188(2) 0.82346(17)
C39 C 0.91411(19) 0.2356(2) 0.87730(18)
H15 H 0.9373 0.2750 0.8905
C40 C 0.93455(19) 0.2614(2) 0.7854(2)
C49 C 0.6447(2) 0.2038(3) 0.8939(2)
C50 C 0.65277(19) 0.1373(3) 0.8632(2)
C51 C 0.6074(2) 0.0885(3) 0.8484(2)
H19 H 0.5707 0.0979 0.8563
C52 C 0.61628(19) 0.0261(2) 0.82202(18)
C53 C 0.67064(18) 0.0126(2) 0.81003(17)
C54 C 0.71752(18) 0.0604(2) 0.82424(16)
C55 C 0.70717(19) 0.1222(2) 0.85124(18)
H21 H 0.7379 0.1547 0.8616
C57 C 0.7330(2) 0.1196(3) 0.6071(2)
C58 C 0.7666(2) 0.0674(3) 0.64713(19)
C59 C 0.8005(2) 0.0138(3) 0.63130(19)
H22 H 0.8039 0.0106 0.5956
C62 C 0.79216(18) 0.0256(2) 0.73980(17)
C63 C 0.7629(2) 0.0719(3) 0.70082(19)
H24 H 0.7396 0.1079 0.7110
O19 O 0.92844(18) 0.2655(2) 0.98717(14)
O20 O 0.96995(12) 0.31173(15) 0.80755(12)
O22 O 0.92472(15) 0.24736(19) 0.73732(13)
O35 O 0.74777(18) 0.1189(2) 0.56072(15)
O38 O 0.6948(2) 0.1594(2) 0.61873(16)
O42 O 0.59299(13) 0.22958(17) 0.88625(13)
O45 O 0.68894(16) 0.2287(2) 0.92595(18)
Si2 Si 0.79310(5) 0.04082(6) 0.81216(5)
Zn10 Zn 0.58830(2) 0.32237(3) 0.92087(2)
Zn12_2 Zn 1.0000 0.36275(4) 0.7500
Zn17 Zn 0.69734(3) 0.17575(3) 0.50712(3)
O1 O 0.37953(14) 0.66786(17) 0.00053(12)
Zn1 Zn 0.41170(2) 0.67763(3) 0.07913(2)
Zn3 Zn 0.19734(3) 0.32425(3) 0.00712(3)
O25 O 0.17948(17) 0.22405(19) 0.01870(14)
O26 O 0.67948(17) 0.72405(19) 0.01870(14)
O28 O 0.49718(17) 0.6679(2) 0.08626(17)
O33 O 0.36054(15) 0.60404(19) 0.10050(14)
O36 O 0.24777(18) 0.3811(2) 0.06072(15)
O37 O 0.74777(18) 0.8811(2) 0.06072(15)
O43 O 0.40701(13) 0.77042(17) 0.11375(13)
Zn13 Zn 0.69734(3) 0.82425(3) 0.00712(3)
H50 H 0.0937333 0.35925 0.0121042
H52 H 0.593733 0.85925 0.0121042
C1 C 0.3997(2) 0.7115(3) 0.97030(19)
C2 C 0.38870(18) 0.6944(2) 0.91199(17)
C3 C 0.35415(18) 0.6355(3) 0.89170(18)
H1 H 0.3384 0.6066 0.9150
C4 C 0.34248(17) 0.6187(2) 0.83621(17)
C5 C 0.36928(17) 0.6611(2) 0.80292(17)
H2 H 0.3631 0.6507 0.7665
C6 C 0.40525(18) 0.7188(2) 0.82346(17)
C7 C 0.41411(19) 0.7356(2) 0.87730(18)
H3 H 0.4373 0.7750 0.8905
C8 C 0.43455(19) 0.7614(2) 0.7854(2)
C9 C 0.2912(3) 0.3227(3) 0.9501(2)
C10 C 0.3236(2) 0.3654(3) 0.91659(18)
C11 C 0.29583(19) 0.4208(2) 0.88454(17)
H4 H 0.2561 0.4298 0.8833
C12 C 0.32602(18) 0.4628(2) 0.85449(17)
C13 C 0.3860(2) 0.4485(3) 0.85682(19)
H5 H 0.4069 0.4766 0.8369
C14 C 0.4145(2) 0.3936(3) 0.8881(2)
C15 C 0.3839(2) 0.3519(3) 0.9179(2)
H6 H 0.4030 0.3148 0.9389
C16 C 0.4810(3) 0.3823(4) 0.8898(3)
C17 C 0.1447(2) 0.7038(3) 0.8939(2)
C18 C 0.15277(19) 0.6373(3) 0.8632(2)
C19 C 0.1074(2) 0.5885(3) 0.8484(2)
H7 H 0.0707 0.5979 0.8563
C20 C 0.11628(19) 0.5261(2) 0.82202(18)
C21 C 0.17064(18) 0.5126(2) 0.81003(17)
H8 H 0.1762 0.4705 0.7920
C22 C 0.21752(18) 0.5604(2) 0.82424(16)
C23 C 0.20717(19) 0.6222(2) 0.85124(18)
H9 H 0.2379 0.6547 0.8616
C24 C 0.0657(2) 0.4735(3) 0.8076(2)
C25 C 0.2330(2) 0.6196(3) 0.6071(2)
C26 C 0.2666(2) 0.5674(3) 0.64713(19)
C27 C 0.3005(2) 0.5138(3) 0.63130(19)
H10 H 0.3039 0.5106 0.5956
C28 C 0.3299(2) 0.4641(3) 0.66871(19)
C29 C 0.32632(18) 0.4711(2) 0.72234(18)
H11 H 0.3470 0.4391 0.7473
C30 C 0.29216(18) 0.5256(2) 0.73980(17)
C31 C 0.2629(2) 0.5719(3) 0.70082(19)
H12 H 0.2396 0.6079 0.7110
C32 C 0.3650(2) 0.4039(3) 0.6515(2)
O2 O 0.42844(18) 0.7655(2) 0.98717(14)
O3 O 0.46995(12) 0.81173(15) 0.80755(12)
O4 O 0.42472(15) 0.74736(19) 0.73732(13)
O5 O 0.23678(17) 0.3350(2) 0.94552(14)
O6 O 0.32052(17) 0.27595(19) 0.98130(14)
O7 O 0.50282(17) 0.3321(2) 0.91374(17)
O8 O 0.5061(2) 0.4266(4) 0.8672(4)
O9 O 0.39537(19) 0.3664(3) 0.68579(16)
O10 O 0.36054(15) 0.39596(19) 0.60050(14)
O11 O 0.24777(18) 0.6189(2) 0.56072(15)
O12 O 0.1948(2) 0.6594(2) 0.61873(16)
O13 O 0.07084(13) 0.42368(17) 0.77522(14)
O14 O 0.02251(18) 0.4813(3) 0.8278(2)
O15 O 0.09299(13) 0.72958(17) 0.88625(13)
O16 O 0.18894(16) 0.7287(2) 0.92595(18)
O17 O 0.1157(2) 0.3633(3) 0.9826(3)
Si1 Si 0.29310(5) 0.54082(6) 0.81216(5)
Zn2 Zn 0.5000 0.86275(4) 0.7500
C41 C 0.7912(3) 0.8227(3) 0.9501(2)
C42 C 0.8236(2) 0.8654(3) 0.91659(18)
C43 C 0.79583(19) 0.9208(2) 0.88454(17)
H16 H 0.7561 0.9298 0.8833
C44 C 0.82602(18) 0.9628(2) 0.85449(17)
C45 C 0.8860(2) 0.9485(3) 0.85682(19)
H17 H 0.9069 0.9766 0.8369
C46 C 0.9145(2) 0.8936(3) 0.8881(2)
C47 C 0.8839(2) 0.8519(3) 0.9179(2)
H18 H 0.9030 0.8148 0.9389
C48 C 0.9810(3) 0.8823(4) 0.8898(3)
H20 H 0.6762 0.9705 0.7920
C56 C 0.5657(2) 0.9735(3) 0.8076(2)
C60 C 0.8299(2) 0.9641(3) 0.66871(19)
C61 C 0.82632(18) 0.9711(2) 0.72234(18)
H23 H 0.8470 0.9391 0.7473
C64 C 0.8650(2) 0.9039(3) 0.6515(2)
O21 O 0.53005(12) 0.81173(15) 0.69245(12)
O23 O 0.73678(17) 0.8350(2) 0.94552(14)
O24 O 0.82052(17) 0.77595(19) 0.98130(14)
O31 O 0.89537(19) 0.8664(3) 0.68579(16)
O32 O 0.86054(15) 0.89596(19) 0.60050(14)
O39 O 0.57084(13) 0.92368(17) 0.77522(14)
O40 O 0.42916(13) 0.92368(17) 0.72478(14)
O41 O 0.52251(18) 0.9813(3) 0.8278(2)
O46 O 0.6157(2) 0.8633(3) 0.9826(3)
Zn6 Zn 0.41170(2) 0.32237(3) 0.57913(2)
Zn9 Zn 0.91170(2) 0.82237(3) 0.57913(2)
Zn14 Zn 0.30266(3) 0.17575(3) 0.99288(3)
Zn15 Zn 0.19734(3) 0.67575(3) 0.50712(3)
Zn16 Zn 0.80266(3) 0.67575(3) 0.99288(3)
H49 H 0.0949424 0.335446 0.951127
H51 H 0.594942 0.835446 0.951127
C33_2 C 0.1003(2) 0.2115(3) 0.52970(19)
C34_2 C 0.11130(18) 0.1944(2) 0.58801(17)
C35_2 C 0.14585(18) 0.1355(3) 0.60830(18)
H13_2 H 0.1616 0.1066 0.5850
C36_2 C 0.15752(17) 0.1187(2) 0.66379(17)
C37_2 C 0.13072(17) 0.1611(2) 0.69708(17)
H14_2 H 0.1369 0.1507 0.7335
C38_2 C 0.09475(18) 0.2188(2) 0.67654(17)
C39_2 C 0.08589(19) 0.2356(2) 0.62270(18)
H15_2 H 0.0627 0.2750 0.6095
C40_2 C 0.06545(19) 0.2614(2) 0.7146(2)
C49_2 C 0.3553(2) 0.2038(3) 0.6061(2)
C50_2 C 0.34723(19) 0.1373(3) 0.6368(2)
C51_2 C 0.3926(2) 0.0885(3) 0.6516(2)
H19_2 H 0.4293 0.0979 0.6437
C52_2 C 0.38372(19) 0.0261(2) 0.67798(18)
C53_2 C 0.32936(18) 0.0126(2) 0.68997(17)
C54_2 C 0.28248(18) 0.0604(2) 0.67576(16)
C55_2 C 0.29283(19) 0.1222(2) 0.64876(18)
H21_2 H 0.2621 0.1547 0.6384
C57_2 C 0.2670(2) 0.1196(3) 0.8929(2)
C58_2 C 0.2334(2) 0.0674(3) 0.85287(19)
C59_2 C 0.1995(2) 0.0138(3) 0.86870(19)
H22_2 H 0.1961 0.0106 0.9044
C62_2 C 0.20784(18) 0.0256(2) 0.76020(17)
C63_2 C 0.2371(2) 0.0719(3) 0.79918(19)
H24_2 H 0.2604 0.1079 0.7890
O18_2 O 0.12047(14) 0.16786(17) 0.49947(12)
O19_2 O 0.07156(18) 0.2655(2) 0.51283(14)
O20_2 O 0.03005(12) 0.31173(15) 0.69245(12)
O22_2 O 0.07528(15) 0.24736(19) 0.76268(13)
O29_2 O 0.00282(17) 0.1679(2) 0.41374(17)
O34_2 O 0.13946(15) 0.10404(19) 0.39950(14)
O35_2 O 0.25223(18) 0.1189(2) 0.93928(15)
O38_2 O 0.3052(2) 0.1594(2) 0.88127(16)
O42_2 O 0.40701(13) 0.22958(17) 0.61375(13)
O44_2 O 0.09299(13) 0.27042(17) 0.38625(13)
O45_2 O 0.31106(16) 0.2287(2) 0.57405(18)
Si2_2 Si 0.20690(5) 0.04082(6) 0.68784(5)
Zn4_2 Zn 0.08830(2) 0.17763(3) 0.42087(2)
C1_2 C 0.6003(2) 0.7115(3) 0.52970(19)
C2_2 C 0.61130(18) 0.6944(2) 0.58801(17)
C3_2 C 0.64585(18) 0.6355(3) 0.60830(18)
H1_2 H 0.6616 0.6066 0.5850
C4_2 C 0.65752(17) 0.6187(2) 0.66379(17)
C5_2 C 0.63072(17) 0.6611(2) 0.69708(17)
H2_2 H 0.6369 0.6507 0.7335
C6_2 C 0.59475(18) 0.7188(2) 0.67654(17)
C7_2 C 0.58589(19) 0.7356(2) 0.62270(18)
H3_2 H 0.5627 0.7750 0.6095
C8_2 C 0.56545(19) 0.7614(2) 0.7146(2)
C9_2 C 0.7088(3) 0.3227(3) 0.5499(2)
C10_2 C 0.6764(2) 0.3654(3) 0.58341(18)
C11_2 C 0.70417(19) 0.4208(2) 0.61546(17)
H4_2 H 0.7439 0.4298 0.6167
C12_2 C 0.67398(18) 0.4628(2) 0.64551(17)
C13_2 C 0.6140(2) 0.4485(3) 0.64318(19)
H5_2 H 0.5931 0.4766 0.6631
C14_2 C 0.5855(2) 0.3936(3) 0.6119(2)
C15_2 C 0.6161(2) 0.3519(3) 0.5821(2)
H6_2 H 0.5970 0.3148 0.5611
C16_2 C 0.5190(3) 0.3823(4) 0.6102(3)
C17_2 C 0.8553(2) 0.7038(3) 0.6061(2)
C18_2 C 0.84723(19) 0.6373(3) 0.6368(2)
C19_2 C 0.8926(2) 0.5885(3) 0.6516(2)
H7_2 H 0.9293 0.5979 0.6437
C20_2 C 0.88372(19) 0.5261(2) 0.67798(18)
C21_2 C 0.82936(18) 0.5126(2) 0.68997(17)
H8_2 H 0.8238 0.4705 0.7080
C22_2 C 0.78248(18) 0.5604(2) 0.67576(16)
C23_2 C 0.79283(19) 0.6222(2) 0.64876(18)
H9_2 H 0.7621 0.6547 0.6384
C24_2 C 0.9343(2) 0.4735(3) 0.6924(2)
C25_2 C 0.7670(2) 0.6196(3) 0.8929(2)
C26_2 C 0.7334(2) 0.5674(3) 0.85287(19)
C27_2 C 0.6995(2) 0.5138(3) 0.86870(19)
H10_2 H 0.6961 0.5106 0.9044
C28_2 C 0.6701(2) 0.4641(3) 0.83129(19)
C29_2 C 0.67368(18) 0.4711(2) 0.77766(18)
H11_2 H 0.6530 0.4391 0.7527
C30_2 C 0.70784(18) 0.5256(2) 0.76020(17)
C31_2 C 0.7371(2) 0.5719(3) 0.79918(19)
H12_2 H 0.7604 0.6079 0.7890
C32_2 C 0.6350(2) 0.4039(3) 0.8485(2)
O1_2 O 0.62047(14) 0.66786(17) 0.49947(12)
O2_2 O 0.57156(18) 0.7655(2) 0.51283(14)
O4_2 O 0.57528(15) 0.74736(19) 0.76268(13)
O5_2 O 0.76322(17) 0.3350(2) 0.55448(14)
O6_2 O 0.67948(17) 0.27595(19) 0.51870(14)
O7_2 O 0.49718(17) 0.3321(2) 0.58626(17)
O8_2 O 0.4939(2) 0.4266(4) 0.6328(4)
O9_2 O 0.60463(19) 0.3664(3) 0.81421(16)
O10_2 O 0.63946(15) 0.39596(19) 0.89950(14)
O11_2 O 0.75223(18) 0.6189(2) 0.93928(15)
O12_2 O 0.8052(2) 0.6594(2) 0.88127(16)
O13_2 O 0.92916(13) 0.42368(17) 0.72478(14)
O14_2 O 0.97749(18) 0.4813(3) 0.6722(2)
O15_2 O 0.90701(13) 0.72958(17) 0.61375(13)
O16_2 O 0.81106(16) 0.7287(2) 0.57405(18)
O17_2 O 0.8843(2) 0.3633(3) 0.5174(3)
Si1_2 Si 0.70690(5) 0.54082(6) 0.68784(5)
Zn1_2 Zn 0.58830(2) 0.67763(3) 0.42087(2)
Zn3_2 Zn 0.80266(3) 0.32425(3) 0.49288(3)
C41_2 C 0.2088(3) 0.8227(3) 0.5499(2)
C42_2 C 0.1764(2) 0.8654(3) 0.58341(18)
C43_2 C 0.20417(19) 0.9208(2) 0.61546(17)
H16_2 H 0.2439 0.9298 0.6167
C44_2 C 0.17398(18) 0.9628(2) 0.64551(17)
C45_2 C 0.1140(2) 0.9485(3) 0.64318(19)
H17_2 H 0.0931 0.9766 0.6631
C46_2 C 0.0855(2) 0.8936(3) 0.6119(2)
C47_2 C 0.1161(2) 0.8519(3) 0.5821(2)
H18_2 H 0.0970 0.8148 0.5611
C48_2 C 0.0190(3) 0.8823(4) 0.6102(3)
H20_2 H 0.3238 0.9705 0.7080
C56_2 C 0.4343(2) 0.9735(3) 0.6924(2)
C60_2 C 0.1701(2) 0.9641(3) 0.83129(19)
C61_2 C 0.17368(18) 0.9711(2) 0.77766(18)
H23_2 H 0.1530 0.9391 0.7527
C64_2 C 0.1350(2) 0.9039(3) 0.8485(2)
O23_2 O 0.26322(17) 0.8350(2) 0.55448(14)
O24_2 O 0.17948(17) 0.77595(19) 0.51870(14)
O25_2 O 0.82052(17) 0.22405(19) 0.48130(14)
O26_2 O 0.32052(17) 0.72405(19) 0.48130(14)
O28_2 O 0.50282(17) 0.6679(2) 0.41374(17)
O31_2 O 0.10463(19) 0.8664(3) 0.81421(16)
O32_2 O 0.13946(15) 0.89596(19) 0.89950(14)
O33_2 O 0.63946(15) 0.60404(19) 0.39950(14)
O36_2 O 0.75223(18) 0.3811(2) 0.43928(15)
O37_2 O 0.25223(18) 0.8811(2) 0.43928(15)
O41_2 O 0.47749(18) 0.9813(3) 0.6722(2)
O43_2 O 0.59299(13) 0.77042(17) 0.38625(13)
O46_2 O 0.3843(2) 0.8633(3) 0.5174(3)
Zn13_2 Zn 0.30266(3) 0.82425(3) 0.49288(3)
H49_2 H 0.905058 0.335446 0.548873
H50_2 H 0.906267 0.35925 0.487896
H51_2 H 0.405058 0.835446 0.548873
H52_2 H 0.406267 0.85925 0.487896
O27_2 O 0.99718(17) 0.8321(2) 0.58626(17)
O30_2 O 0.9939(2) 0.9266(4) 0.6328(4)
Zn11 Zn -0.0000 0.63725(4) 0.2500
C1_3 C 0.6003(2) 0.2885(3) 0.02970(19)
C2_3 C 0.61130(18) 0.3056(2) 0.08801(17)
C3_3 C 0.64585(18) 0.3645(3) 0.10830(18)
H1_3 H 0.6616 0.3934 0.0850
C4_3 C 0.65752(17) 0.3813(2) 0.16379(17)
C5_3 C 0.63072(17) 0.3389(2) 0.19708(17)
H2_3 H 0.6369 0.3493 0.2335
C6_3 C 0.59475(18) 0.2812(2) 0.17654(17)
C7_3 C 0.58589(19) 0.2644(2) 0.12270(18)
H3_3 H 0.5627 0.2250 0.1095
C8_3 C 0.56545(19) 0.2386(2) 0.2146(2)
C9_3 C 0.7088(3) 0.6773(3) 0.0499(2)
C10_3 C 0.6764(2) 0.6346(3) 0.08341(18)
C11_3 C 0.70417(19) 0.5792(2) 0.11546(17)
H4_3 H 0.7439 0.5702 0.1167
C12_3 C 0.67398(18) 0.5372(2) 0.14551(17)
C13_3 C 0.6140(2) 0.5515(3) 0.14318(19)
H5_3 H 0.5931 0.5234 0.1631
C14_3 C 0.5855(2) 0.6064(3) 0.1119(2)
C15_3 C 0.6161(2) 0.6481(3) 0.0821(2)
H6_3 H 0.5970 0.6852 0.0611
C16_3 C 0.5190(3) 0.6177(4) 0.1102(3)
C17_3 C 0.8553(2) 0.2962(3) 0.1061(2)
C18_3 C 0.84723(19) 0.3627(3) 0.1368(2)
C19_3 C 0.8926(2) 0.4115(3) 0.1516(2)
H7_3 H 0.9293 0.4021 0.1437
C20_3 C 0.88372(19) 0.4739(2) 0.17798(18)
C21_3 C 0.82936(18) 0.4874(2) 0.18997(17)
H8_3 H 0.8238 0.5295 0.2080
C22_3 C 0.78248(18) 0.4396(2) 0.17576(16)
C23_3 C 0.79283(19) 0.3778(2) 0.14876(18)
H9_3 H 0.7621 0.3453 0.1384
C24_3 C 0.9343(2) 0.5265(3) 0.1924(2)
C25_3 C 0.7670(2) 0.3804(3) 0.3929(2)
C26_3 C 0.7334(2) 0.4326(3) 0.35287(19)
C27_3 C 0.6995(2) 0.4862(3) 0.36870(19)
H10_3 H 0.6961 0.4894 0.4044
C28_3 C 0.6701(2) 0.5359(3) 0.33129(19)
C29_3 C 0.67368(18) 0.5289(2) 0.27766(18)
H11_3 H 0.6530 0.5609 0.2527
C30_3 C 0.70784(18) 0.4744(2) 0.26020(17)
C31_3 C 0.7371(2) 0.4281(3) 0.29918(19)
H12_3 H 0.7604 0.3921 0.2890
C32_3 C 0.6350(2) 0.5961(3) 0.3485(2)
O2_3 O 0.57156(18) 0.2345(2) 0.01283(14)
O3_2 O 0.53005(12) 0.18827(15) 0.19245(12)
O4_3 O 0.57528(15) 0.25264(19) 0.26268(13)
O5_3 O 0.76322(17) 0.6650(2) 0.05448(14)
O8_3 O 0.4939(2) 0.5734(4) 0.1328(4)
O9_3 O 0.60463(19) 0.6336(3) 0.31421(16)
O12_3 O 0.8052(2) 0.3406(2) 0.38127(16)
O13_3 O 0.92916(13) 0.57632(17) 0.22478(14)
O14_3 O 0.97749(18) 0.5187(3) 0.1722(2)
O16_3 O 0.81106(16) 0.2713(2) 0.07405(18)
O17_3 O 0.8843(2) 0.6367(3) 0.0174(3)
Si1_3 Si 0.70690(5) 0.45918(6) 0.18784(5)
Zn2_2 Zn 0.5000 0.13725(4) 0.2500
C41_3 C 0.2088(3) 0.1773(3) 0.0499(2)
C42_3 C 0.1764(2) 0.1346(3) 0.08341(18)
C43_3 C 0.20417(19) 0.0792(2) 0.11546(17)
H16_3 H 0.2439 0.0702 0.1167
C44_3 C 0.17398(18) 0.0372(2) 0.14551(17)
C45_3 C 0.1140(2) 0.0515(3) 0.14318(19)
H17_3 H 0.0931 0.0234 0.1631
C46_3 C 0.0855(2) 0.1064(3) 0.1119(2)
C47_3 C 0.1161(2) 0.1481(3) 0.0821(2)
H18_3 H 0.0970 0.1852 0.0611
C48_3 C 0.0190(3) 0.1177(4) 0.1102(3)
H20_3 H 0.3238 0.0295 0.2080
C56_3 C 0.4343(2) 0.0265(3) 0.1924(2)
C60_3 C 0.1701(2) 0.0359(3) 0.33129(19)
C61_3 C 0.17368(18) 0.0289(2) 0.27766(18)
H23_3 H 0.1530 0.0609 0.2527
C64_3 C 0.1350(2) 0.0961(3) 0.3485(2)
O21_2 O 0.46995(12) 0.18827(15) 0.30755(12)
O23_3 O 0.26322(17) 0.1650(2) 0.05448(14)
O31_3 O 0.10463(19) 0.1336(3) 0.31421(16)
O39_2 O 0.42916(13) 0.07632(17) 0.22478(14)
O40_2 O 0.57084(13) 0.07632(17) 0.27522(14)
O41_3 O 0.47749(18) 0.0187(3) 0.1722(2)
O46_3 O 0.3843(2) 0.1367(3) 0.0174(3)
Zn11_2 Zn 1.0000 0.63725(4) 0.2500
H49_3 H 0.905058 0.664554 0.0488734
H51_3 H 0.405058 0.164554 0.0488734
O1_3 O 0.62047(14) 0.33214(17) 0.99947(12)
H50_3 H 0.906267 0.64075 0.987896
H52_3 H 0.406267 0.14075 0.987896
C33_3 C 0.1003(2) 0.7885(3) 0.02970(19)
C34_3 C 0.11130(18) 0.8056(2) 0.08801(17)
C35_3 C 0.14585(18) 0.8645(3) 0.10830(18)
H13_3 H 0.1616 0.8934 0.0850
C36_3 C 0.15752(17) 0.8813(2) 0.16379(17)
C37_3 C 0.13072(17) 0.8389(2) 0.19708(17)
H14_3 H 0.1369 0.8493 0.2335
C38_3 C 0.09475(18) 0.7812(2) 0.17654(17)
C39_3 C 0.08589(19) 0.7644(2) 0.12270(18)
H15_3 H 0.0627 0.7250 0.1095
C40_3 C 0.06545(19) 0.7386(2) 0.2146(2)
C49_3 C 0.3553(2) 0.7962(3) 0.1061(2)
C50_3 C 0.34723(19) 0.8627(3) 0.1368(2)
C51_3 C 0.3926(2) 0.9115(3) 0.1516(2)
H19_3 H 0.4293 0.9021 0.1437
C52_3 C 0.38372(19) 0.9739(2) 0.17798(18)
C53_3 C 0.32936(18) 0.9874(2) 0.18997(17)
C54_3 C 0.28248(18) 0.9396(2) 0.17576(16)
C55_3 C 0.29283(19) 0.8778(2) 0.14876(18)
H21_3 H 0.2621 0.8453 0.1384
C57_3 C 0.2670(2) 0.8804(3) 0.3929(2)
C58_3 C 0.2334(2) 0.9326(3) 0.35287(19)
C59_3 C 0.1995(2) 0.9862(3) 0.36870(19)
H22_3 H 0.1961 0.9894 0.4044
C62_3 C 0.20784(18) 0.9744(2) 0.26020(17)
C63_3 C 0.2371(2) 0.9281(3) 0.29918(19)
H24_3 H 0.2604 0.8921 0.2890
O19_3 O 0.07156(18) 0.7345(2) 0.01283(14)
O20_3 O 0.03005(12) 0.68827(15) 0.19245(12)
O22_3 O 0.07528(15) 0.75264(19) 0.26268(13)
O38_3 O 0.3052(2) 0.8406(2) 0.38127(16)
O45_3 O 0.31106(16) 0.7713(2) 0.07405(18)
Si2_3 Si 0.20690(5) 0.95918(6) 0.18784(5)
O18_3 O 0.12047(14) 0.83214(17) 0.99947(12)
O30_3 O 0.9939(2) 0.0734(4) 0.1328(4)
O30_4 O 0.0061(2) 0.0734(4) 0.3672(4)
C1_4 C 0.3997(2) 0.2885(3) 0.47030(19)
C2_4 C 0.38870(18) 0.3056(2) 0.41199(17)
C3_4 C 0.35415(18) 0.3645(3) 0.39170(18)
H1_4 H 0.3384 0.3934 0.4150
C4_4 C 0.34248(17) 0.3813(2) 0.33621(17)
C5_4 C 0.36928(17) 0.3389(2) 0.30292(17)
H2_4 H 0.3631 0.3493 0.2665
C6_4 C 0.40525(18) 0.2812(2) 0.32346(17)
C7_4 C 0.41411(19) 0.2644(2) 0.37730(18)
H3_4 H 0.4373 0.2250 0.3905
C8_4 C 0.43455(19) 0.2386(2) 0.2854(2)
C9_4 C 0.2912(3) 0.6773(3) 0.4501(2)
C10_4 C 0.3236(2) 0.6346(3) 0.41659(18)
C11_4 C 0.29583(19) 0.5792(2) 0.38454(17)
H4_4 H 0.2561 0.5702 0.3833
C12_4 C 0.32602(18) 0.5372(2) 0.35449(17)
C13_4 C 0.3860(2) 0.5515(3) 0.35682(19)
H5_4 H 0.4069 0.5234 0.3369
C14_4 C 0.4145(2) 0.6064(3) 0.3881(2)
C15_4 C 0.3839(2) 0.6481(3) 0.4179(2)
H6_4 H 0.4030 0.6852 0.4389
C16_4 C 0.4810(3) 0.6177(4) 0.3898(3)
C17_4 C 0.1447(2) 0.2962(3) 0.3939(2)
C18_4 C 0.15277(19) 0.3627(3) 0.3632(2)
C19_4 C 0.1074(2) 0.4115(3) 0.3484(2)
H7_4 H 0.0707 0.4021 0.3563
C20_4 C 0.11628(19) 0.4739(2) 0.32202(18)
C21_4 C 0.17064(18) 0.4874(2) 0.31003(17)
H8_4 H 0.1762 0.5295 0.2920
C22_4 C 0.21752(18) 0.4396(2) 0.32424(16)
C23_4 C 0.20717(19) 0.3778(2) 0.35124(18)
H9_4 H 0.2379 0.3453 0.3616
C24_4 C 0.0657(2) 0.5265(3) 0.3076(2)
C25_4 C 0.2330(2) 0.3804(3) 0.1071(2)
C26_4 C 0.2666(2) 0.4326(3) 0.14713(19)
C27_4 C 0.3005(2) 0.4862(3) 0.13130(19)
H10_4 H 0.3039 0.4894 0.0956
C28_4 C 0.3299(2) 0.5359(3) 0.16871(19)
C29_4 C 0.32632(18) 0.5289(2) 0.22234(18)
H11_4 H 0.3470 0.5609 0.2473
C30_4 C 0.29216(18) 0.4744(2) 0.23980(17)
C31_4 C 0.2629(2) 0.4281(3) 0.20082(19)
H12_4 H 0.2396 0.3921 0.2110
C32_4 C 0.3650(2) 0.5961(3) 0.1515(2)
O1_4 O 0.37953(14) 0.33214(17) 0.50053(12)
O2_4 O 0.42844(18) 0.2345(2) 0.48717(14)
O4_4 O 0.42472(15) 0.25264(19) 0.23732(13)
O5_4 O 0.23678(17) 0.6650(2) 0.44552(14)
O8_4 O 0.5061(2) 0.5734(4) 0.3672(4)
O9_4 O 0.39537(19) 0.6336(3) 0.18579(16)
O12_4 O 0.1948(2) 0.3406(2) 0.11873(16)
O13_4 O 0.07084(13) 0.57632(17) 0.27522(14)
O14_4 O 0.02251(18) 0.5187(3) 0.3278(2)
O16_4 O 0.18894(16) 0.2713(2) 0.42595(18)
O17_4 O 0.1157(2) 0.6367(3) 0.4826(3)
Si1_4 Si 0.29310(5) 0.45918(6) 0.31216(5)
C41_4 C 0.7912(3) 0.1773(3) 0.4501(2)
C42_4 C 0.8236(2) 0.1346(3) 0.41659(18)
C43_4 C 0.79583(19) 0.0792(2) 0.38454(17)
H16_4 H 0.7561 0.0702 0.3833
C44_4 C 0.82602(18) 0.0372(2) 0.35449(17)
C45_4 C 0.8860(2) 0.0515(3) 0.35682(19)
H17_4 H 0.9069 0.0234 0.3369
C46_4 C 0.9145(2) 0.1064(3) 0.3881(2)
C47_4 C 0.8839(2) 0.1481(3) 0.4179(2)
H18_4 H 0.9030 0.1852 0.4389
C48_4 C 0.9810(3) 0.1177(4) 0.3898(3)
H20_4 H 0.6762 0.0295 0.2920
C56_4 C 0.5657(2) 0.0265(3) 0.3076(2)
C60_4 C 0.8299(2) 0.0359(3) 0.16871(19)
C61_4 C 0.82632(18) 0.0289(2) 0.22234(18)
H23_4 H 0.8470 0.0609 0.2473
C64_4 C 0.8650(2) 0.0961(3) 0.1515(2)
O23_4 O 0.73678(17) 0.1650(2) 0.44552(14)
O31_4 O 0.89537(19) 0.1336(3) 0.18579(16)
O41_4 O 0.52251(18) 0.0187(3) 0.3278(2)
O46_4 O 0.6157(2) 0.1367(3) 0.4826(3)
H49_4 H 0.0949424 0.664554 0.451127
H50_4 H 0.0937333 0.64075 0.512104
H51_4 H 0.594942 0.164554 0.451127
H52_4 H 0.593733 0.14075 0.512104
C33_4 C 0.8997(2) 0.7885(3) 0.47030(19)
C34_4 C 0.88870(18) 0.8056(2) 0.41199(17)
C35_4 C 0.85415(18) 0.8645(3) 0.39170(18)
H13_4 H 0.8384 0.8934 0.4150
C36_4 C 0.84248(17) 0.8813(2) 0.33621(17)
C37_4 C 0.86928(17) 0.8389(2) 0.30292(17)
H14_4 H 0.8631 0.8493 0.2665
C38_4 C 0.90525(18) 0.7812(2) 0.32346(17)
C39_4 C 0.91411(19) 0.7644(2) 0.37730(18)
H15_4 H 0.9373 0.7250 0.3905
C40_4 C 0.93455(19) 0.7386(2) 0.2854(2)
C49_4 C 0.6447(2) 0.7962(3) 0.3939(2)
C50_4 C 0.65277(19) 0.8627(3) 0.3632(2)
C51_4 C 0.6074(2) 0.9115(3) 0.3484(2)
H19_4 H 0.5707 0.9021 0.3563
C52_4 C 0.61628(19) 0.9739(2) 0.32202(18)
C53_4 C 0.67064(18) 0.9874(2) 0.31003(17)
C54_4 C 0.71752(18) 0.9396(2) 0.32424(16)
C55_4 C 0.70717(19) 0.8778(2) 0.35124(18)
H21_4 H 0.7379 0.8453 0.3616
C57_4 C 0.7330(2) 0.8804(3) 0.1071(2)
C58_4 C 0.7666(2) 0.9326(3) 0.14713(19)
C59_4 C 0.8005(2) 0.9862(3) 0.13130(19)
H22_4 H 0.8039 0.9894 0.0956
C62_4 C 0.79216(18) 0.9744(2) 0.23980(17)
C63_4 C 0.7629(2) 0.9281(3) 0.20082(19)
H24_4 H 0.7396 0.8921 0.2110
O18_4 O 0.87953(14) 0.83214(17) 0.50053(12)
O19_4 O 0.92844(18) 0.7345(2) 0.48717(14)
O20_4 O 0.96995(12) 0.68827(15) 0.30755(12)
O22_4 O 0.92472(15) 0.75264(19) 0.23732(13)
O38_4 O 0.6948(2) 0.8406(2) 0.11873(16)
O45_4 O 0.68894(16) 0.7713(2) 0.42595(18)
Si2_4 Si 0.79310(5) 0.95918(6) 0.31216(5)
C65 C 0.3715(4) 0.7045(6) 0.6187(3)
H25 H 0.3615 0.7526 0.6065
H26 H 0.3521 0.6931 0.6475
H27 H 0.3591 0.6714 0.5897
C66 C 0.4556(6) 0.6127(7) 0.6676(7)
H28 H 0.4977 0.6103 0.6791
H29 H 0.4427 0.5756 0.6417
H30 H 0.4374 0.6061 0.6978
N1 N 0.4353(3) 0.6990(6) 0.6376(3)
H31 H 0.4475 0.7337 0.6619
H32 H 0.4533 0.7056 0.6099
C65_2 C 0.6285(4) 0.7045(6) 0.8813(3)
H25_2 H 0.6385 0.7526 0.8935
H26_2 H 0.6479 0.6931 0.8525
H27_2 H 0.6409 0.6714 0.9103
C66_2 C 0.5444(6) 0.6127(7) 0.8324(7)
H28_2 H 0.5023 0.6103 0.8209
H29_2 H 0.5573 0.5756 0.8583
H30_2 H 0.5626 0.6061 0.8022
N1_2 N 0.5647(3) 0.6990(6) 0.8624(3)
H31_2 H 0.5525 0.7337 0.8381
H32_2 H 0.5467 0.7056 0.8901
C65_3 C 0.8715(4) 0.2045(6) 0.6187(3)
H25_3 H 0.8615 0.2526 0.6065
H26_3 H 0.8521 0.1931 0.6475
H27_3 H 0.8591 0.1714 0.5897
C66_3 C 0.9556(6) 0.1127(7) 0.6676(7)
H28_3 H 0.9977 0.1103 0.6791
H29_3 H 0.9427 0.0756 0.6417
H30_3 H 0.9374 0.1061 0.6978
N1_3 N 0.9353(3) 0.1990(6) 0.6376(3)
H31_3 H 0.9475 0.2337 0.6619
H32_3 H 0.9533 0.2056 0.6099
C65_4 C 0.1285(4) 0.2045(6) 0.8813(3)
H25_4 H 0.1385 0.2526 0.8935
H26_4 H 0.1479 0.1931 0.8525
H27_4 H 0.1409 0.1714 0.9103
C66_4 C 0.0444(6) 0.1127(7) 0.8324(7)
H28_4 H 0.0023 0.1103 0.8209
H29_4 H 0.0573 0.0756 0.8583
H30_4 H 0.0626 0.1061 0.8022
N1_4 N 0.0647(3) 0.1990(6) 0.8624(3)
H31_4 H 0.0525 0.2337 0.8381
H32_4 H 0.0467 0.2056 0.8901
C65_5 C 0.6285(4) 0.2955(6) 0.3813(3)
H25_5 H 0.6385 0.2474 0.3935
H26_5 H 0.6479 0.3069 0.3525
H27_5 H 0.6409 0.3286 0.4103
C66_5 C 0.5444(6) 0.3873(7) 0.3324(7)
H28_5 H 0.5023 0.3897 0.3209
H29_5 H 0.5573 0.4244 0.3583
H30_5 H 0.5626 0.3939 0.3022
N1_5 N 0.5647(3) 0.3010(6) 0.3624(3)
H31_5 H 0.5525 0.2663 0.3381
H32_5 H 0.5467 0.2944 0.3901
C65_6 C 0.3715(4) 0.2955(6) 0.1187(3)
H25_6 H 0.3615 0.2474 0.1065
H26_6 H 0.3521 0.3069 0.1475
H27_6 H 0.3591 0.3286 0.0897
C66_6 C 0.4556(6) 0.3873(7) 0.1676(7)
H28_6 H 0.4977 0.3897 0.1791
H29_6 H 0.4427 0.4244 0.1417
H30_6 H 0.4374 0.3939 0.1978
N1_6 N 0.4353(3) 0.3010(6) 0.1376(3)
H31_6 H 0.4475 0.2663 0.1619
H32_6 H 0.4533 0.2944 0.1099
C65_7 C 0.1285(4) 0.7955(6) 0.3813(3)
H25_7 H 0.1385 0.7474 0.3935
H26_7 H 0.1479 0.8069 0.3525
H27_7 H 0.1409 0.8286 0.4103
C66_7 C 0.0444(6) 0.8873(7) 0.3324(7)
H28_7 H 0.0023 0.8897 0.3209
H29_7 H 0.0573 0.9244 0.3583
H30_7 H 0.0626 0.8939 0.3022
N1_7 N 0.0647(3) 0.8010(6) 0.3624(3)
H31_7 H 0.0525 0.7663 0.3381
H32_7 H 0.0467 0.7944 0.3901
C65_8 C 0.8715(4) 0.7955(6) 0.1187(3)
H25_8 H 0.8615 0.7474 0.1065
H26_8 H 0.8521 0.8069 0.1475
H27_8 H 0.8591 0.8286 0.0897
C66_8 C 0.9556(6) 0.8873(7) 0.1676(7)
H28_8 H 0.9977 0.8897 0.1791
H29_8 H 0.9427 0.9244 0.1417
H30_8 H 0.9374 0.8939 0.1978
N1_8 N 0.9353(3) 0.8010(6) 0.1376(3)
H31_8 H 0.9475 0.7663 0.1619
H32_8 H 0.9533 0.7944 0.1099
C67 C 0.2084(4) 0.6468(5) 0.0512(3)
H33 H 0.2115 0.6947 0.0654
H34 H 0.2188 0.6130 0.0800
H35 H 0.1686 0.6381 0.0326
H38 H 0.2577 0.5290 0.0174
N2 N 0.2489(3) 0.6384(4) 0.0134(3)
H39 H 0.2861 0.6472 0.0309
C68 C 0.2457(4) 0.5636(5) 0.9894(3)
H36 H 0.2713 0.5608 0.9643
H37 H 0.2059 0.5537 0.9714
H40 H 0.2396 0.6709 0.9869
C67_2 C 0.7916(4) 0.6468(5) 0.4488(3)
H33_2 H 0.7885 0.6947 0.4346
H34_2 H 0.7812 0.6130 0.4200
H35_2 H 0.8314 0.6381 0.4674
C68_2 C 0.7543(4) 0.5636(5) 0.5106(3)
H36_2 H 0.7287 0.5608 0.5357
H37_2 H 0.7941 0.5537 0.5286
H38_2 H 0.7423 0.5290 0.4826
N2_2 N 0.7511(3) 0.6384(4) 0.4866(3)
H39_2 H 0.7139 0.6472 0.4691
H40_2 H 0.7604 0.6709 0.5131
C67_3 C 0.7084(4) 0.1468(5) 0.0512(3)
H33_3 H 0.7115 0.1947 0.0654
H34_3 H 0.7188 0.1130 0.0800
H35_3 H 0.6686 0.1381 0.0326
H38_3 H 0.7577 0.0290 0.0174
N2_3 N 0.7489(3) 0.1384(4) 0.0134(3)
H39_3 H 0.7861 0.1472 0.0309
C68_3 C 0.7457(4) 0.0636(5) 0.9894(3)
H36_3 H 0.7713 0.0608 0.9643
H37_3 H 0.7059 0.0537 0.9714
H40_3 H 0.7396 0.1709 0.9869
C67_4 C 0.2916(4) 0.1468(5) 0.4488(3)
H33_4 H 0.2885 0.1947 0.4346
H34_4 H 0.2812 0.1130 0.4200
H35_4 H 0.3314 0.1381 0.4674
C68_4 C 0.2543(4) 0.0636(5) 0.5106(3)
H36_4 H 0.2287 0.0608 0.5357
H37_4 H 0.2941 0.0537 0.5286
H38_4 H 0.2423 0.0290 0.4826
N2_4 N 0.2511(3) 0.1384(4) 0.4866(3)
H39_4 H 0.2139 0.1472 0.4691
H40_4 H 0.2604 0.1709 0.5131
C68_5 C 0.7543(4) 0.4364(5) 0.0106(3)
H36_5 H 0.7287 0.4392 0.0357
H37_5 H 0.7941 0.4463 0.0286
H40_5 H 0.7604 0.3291 0.0131
C67_5 C 0.7916(4) 0.3532(5) 0.9488(3)
H33_5 H 0.7885 0.3053 0.9346
H34_5 H 0.7812 0.3870 0.9200
H35_5 H 0.8314 0.3619 0.9674
H38_5 H 0.7423 0.4710 0.9826
N2_5 N 0.7511(3) 0.3616(4) 0.9866(3)
H39_5 H 0.7139 0.3528 0.9691
C67_6 C 0.2084(4) 0.3532(5) 0.5512(3)
H33_6 H 0.2115 0.3053 0.5654
H34_6 H 0.2188 0.3870 0.5800
H35_6 H 0.1686 0.3619 0.5326
C68_6 C 0.2457(4) 0.4364(5) 0.4894(3)
H36_6 H 0.2713 0.4392 0.4643
H37_6 H 0.2059 0.4463 0.4714
H38_6 H 0.2577 0.4710 0.5174
N2_6 N 0.2489(3) 0.3616(4) 0.5134(3)
H39_6 H 0.2861 0.3528 0.5309
H40_6 H 0.2396 0.3291 0.4869
C68_7 C 0.2543(4) 0.9364(5) 0.0106(3)
H36_7 H 0.2287 0.9392 0.0357
H37_7 H 0.2941 0.9463 0.0286
H40_7 H 0.2604 0.8291 0.0131
C67_7 C 0.2916(4) 0.8532(5) 0.9488(3)
H33_7 H 0.2885 0.8053 0.9346
H34_7 H 0.2812 0.8870 0.9200
H35_7 H 0.3314 0.8619 0.9674
H38_7 H 0.2423 0.9710 0.9826
N2_7 N 0.2511(3) 0.8616(4) 0.9866(3)
H39_7 H 0.2139 0.8528 0.9691
C67_8 C 0.7084(4) 0.8532(5) 0.5512(3)
H33_8 H 0.7115 0.8053 0.5654
H34_8 H 0.7188 0.8870 0.5800
H35_8 H 0.6686 0.8619 0.5326
C68_8 C 0.7457(4) 0.9364(5) 0.4894(3)
H36_8 H 0.7713 0.9392 0.4643
H37_8 H 0.7059 0.9463 0.4714
H38_8 H 0.7577 0.9710 0.5174
N2_8 N 0.7489(3) 0.8616(4) 0.5134(3)
H39_8 H 0.7861 0.8528 0.5309
H40_8 H 0.7396 0.8291 0.4869
C69 C 0.8942(5) 0.5246(7) 0.8364(4)
H41 H 0.8827 0.5295 0.7982
H42 H 0.9245 0.5589 0.8500
H43 H 0.8607 0.5331 0.8524
C70 C 0.9369(4) 0.4391(6) 0.9078(4)
H44 H 0.9515 0.3909 0.9133
H45 H 0.9047 0.4457 0.9257
H46 H 0.9679 0.4723 0.9220
N3 N 0.9164(2) 0.4524(3) 0.8496(2)
H47 H 0.9466 0.4442 0.8330
H48 H 0.8877 0.4207 0.8366
C69_2 C 0.1058(5) 0.5246(7) 0.6636(4)
H41_2 H 0.1173 0.5295 0.7018
H42_2 H 0.0755 0.5589 0.6500
H43_2 H 0.1393 0.5331 0.6476
C70_2 C 0.0631(4) 0.4391(6) 0.5922(4)
H44_2 H 0.0485 0.3909 0.5867
H45_2 H 0.0953 0.4457 0.5743
H46_2 H 0.0321 0.4723 0.5780
N3_2 N 0.0836(2) 0.4524(3) 0.6504(2)
H47_2 H 0.0534 0.4442 0.6670
H48_2 H 0.1123 0.4207 0.6634
C69_3 C 0.3942(5) 0.0246(7) 0.8364(4)
H41_3 H 0.3827 0.0295 0.7982
H42_3 H 0.4245 0.0589 0.8500
H43_3 H 0.3607 0.0331 0.8524
C70_3 C 0.4369(4) 0.9391(6) 0.9078(4)
H44_3 H 0.4515 0.8909 0.9133
H45_3 H 0.4047 0.9457 0.9257
H46_3 H 0.4679 0.9723 0.9220
N3_3 N 0.4164(2) 0.9524(3) 0.8496(2)
H47_3 H 0.4466 0.9442 0.8330
H48_3 H 0.3877 0.9207 0.8366
C69_4 C 0.6058(5) 0.0246(7) 0.6636(4)
H41_4 H 0.6173 0.0295 0.7018
H42_4 H 0.5755 0.0589 0.6500
H43_4 H 0.6393 0.0331 0.6476
C70_4 C 0.5631(4) 0.9391(6) 0.5922(4)
H44_4 H 0.5485 0.8909 0.5867
H45_4 H 0.5953 0.9457 0.5743
H46_4 H 0.5321 0.9723 0.5780
N3_4 N 0.5836(2) 0.9524(3) 0.6504(2)
H47_4 H 0.5534 0.9442 0.6670
H48_4 H 0.6123 0.9207 0.6634
C69_5 C 0.1058(5) 0.4754(7) 0.1636(4)
H41_5 H 0.1173 0.4705 0.2018
H42_5 H 0.0755 0.4411 0.1500
H43_5 H 0.1393 0.4669 0.1476
C70_5 C 0.0631(4) 0.5609(6) 0.0922(4)
H44_5 H 0.0485 0.6091 0.0867
H45_5 H 0.0953 0.5543 0.0743
H46_5 H 0.0321 0.5277 0.0780
N3_5 N 0.0836(2) 0.5476(3) 0.1504(2)
H47_5 H 0.0534 0.5558 0.1670
H48_5 H 0.1123 0.5793 0.1634
C69_6 C 0.8942(5) 0.4754(7) 0.3364(4)
H41_6 H 0.8827 0.4705 0.2982
H42_6 H 0.9245 0.4411 0.3500
H43_6 H 0.8607 0.4669 0.3524
C70_6 C 0.9369(4) 0.5609(6) 0.4078(4)
H44_6 H 0.9515 0.6091 0.4133
H45_6 H 0.9047 0.5543 0.4257
H46_6 H 0.9679 0.5277 0.4220
N3_6 N 0.9164(2) 0.5476(3) 0.3496(2)
H47_6 H 0.9466 0.5558 0.3330
H48_6 H 0.8877 0.5793 0.3366
C70_7 C 0.5631(4) 0.0609(6) 0.0922(4)
H44_7 H 0.5485 0.1091 0.0867
H45_7 H 0.5953 0.0543 0.0743
H46_7 H 0.5321 0.0277 0.0780
N3_7 N 0.5836(2) 0.0476(3) 0.1504(2)
H47_7 H 0.5534 0.0558 0.1670
H48_7 H 0.6123 0.0793 0.1634
C69_7 C 0.6058(5) 0.9754(7) 0.1636(4)
H41_7 H 0.6173 0.9705 0.2018
H42_7 H 0.5755 0.9411 0.1500
H43_7 H 0.6393 0.9669 0.1476
C70_8 C 0.4369(4) 0.0609(6) 0.4078(4)
H44_8 H 0.4515 0.1091 0.4133
H45_8 H 0.4047 0.0543 0.4257
H46_8 H 0.4679 0.0277 0.4220
N3_8 N 0.4164(2) 0.0476(3) 0.3496(2)
H47_8 H 0.4466 0.0558 0.3330
H48_8 H 0.3877 0.0793 0.3366
C69_8 C 0.3942(5) 0.9754(7) 0.3364(4)
H41_8 H 0.3827 0.9705 0.2982
H42_8 H 0.4245 0.9411 0.3500
H43_8 H 0.3607 0.9669 0.3524
loop_
_geom_bond_atom_site_label_1
_geom_bond_atom_site_label_2
_geom_bond_site_symmetry_1
_geom_bond_site_symmetry_2
Zn8 O27 1_555 1_555
O29 Zn4 1_555 1_555
O34 Zn4 1_555 1_555
O44 Zn4 1_555 1_555
Zn4 O18 1_555 1_555
C33 C34 1_555 1_555
C34 C35 1_555 1_555
C35 H13 1_555 1_555
C36 C35 1_555 1_555
C37 C36 1_555 1_555
H14 C37 1_555 1_555
C38 C37 1_555 1_555
C39 C34 1_555 1_555
H15 C39 1_555 1_555
C40 C38 1_555 1_555
C49 C50 1_555 1_555
C50 C51 1_555 1_555
C51 H19 1_555 1_555
C52 C51 1_555 1_555
C53 C52 1_555 1_555
C54 C53 1_555 1_555
C55 C50 1_555 1_555
H21 C55 1_555 1_555
C57 C58 1_555 1_555
C58 C59 1_555 1_555
C59 H22 1_555 1_555
C63 C58 1_555 1_555
H24 C63 1_555 1_555
O19 C33 1_555 1_555
O20 C40 1_555 1_555
O22 C40 1_555 1_555
O35 C57 1_555 1_555
O38 C57 1_555 1_555
O42 C49 1_555 1_555
O45 C49 1_555 1_555
Si2 C36 1_555 1_555
Zn10 O42 1_555 1_555
Zn12_2 O20 1_555 1_555
Zn17 O35 1_555 1_555
C38 C39 1_555 1_555
C54 C55 1_555 1_555
C54 Si2 1_555 1_555
C62 C63 1_555 1_555
C62 Si2 1_555 1_555
Zn1 O1 1_555 1_555
O25 Zn3 1_555 1_555
O26 Zn13 1_555 1_555
O28 Zn1 1_555 1_555
O33 Zn1 1_555 1_555
O36 Zn3 1_555 1_555
O37 Zn13 1_555 1_555
O43 Zn1 1_555 1_555
C1 C2 1_555 1_555
C2 C3 1_555 1_555
C3 H1 1_555 1_555
C4 C3 1_555 1_555
C5 C4 1_555 1_555
H2 C5 1_555 1_555
C6 C5 1_555 1_555
C7 C2 1_555 1_555
H3 C7 1_555 1_555
C8 C6 1_555 1_555
C9 C10 1_555 1_555
C10 C11 1_555 1_555
C11 H4 1_555 1_555
C12 C11 1_555 1_555
C13 C12 1_555 1_555
H5 C13 1_555 1_555
C14 C13 1_555 1_555
C15 C10 1_555 1_555
H6 C15 1_555 1_555
C16 C14 1_555 1_555
C17 C18 1_555 1_555
C18 C19 1_555 1_555
C19 H7 1_555 1_555
C20 C19 1_555 1_555
C21 C20 1_555 1_555
H8 C21 1_555 1_555
C22 C21 1_555 1_555
C23 C18 1_555 1_555
H9 C23 1_555 1_555
C24 C20 1_555 1_555
C25 C26 1_555 1_555
C26 C27 1_555 1_555
C27 H10 1_555 1_555
C28 C27 1_555 1_555
C29 C28 1_555 1_555
H11 C29 1_555 1_555
C30 C29 1_555 1_555
C31 C26 1_555 1_555
H12 C31 1_555 1_555
C32 C28 1_555 1_555
O2 C1 1_555 1_555
O3 C8 1_555 1_555
O4 C8 1_555 1_555
O5 C9 1_555 1_555
O6 C9 1_555 1_555
O7 C16 1_555 1_555
O8 C16 1_555 1_555
O9 C32 1_555 1_555
O10 C32 1_555 1_555
O11 C25 1_555 1_555
O12 C25 1_555 1_555
O13 C24 1_555 1_555
O14 C24 1_555 1_555
O15 C17 1_555 1_555
O16 C17 1_555 1_555
Si1 C4 1_555 1_555
Zn2 O3 1_555 1_555
C41 C42 1_555 1_555
C42 C43 1_555 1_555
C43 H16 1_555 1_555
C44 C43 1_555 1_555
C45 C44 1_555 1_555
H17 C45 1_555 1_555
C46 C45 1_555 1_555
C47 C42 1_555 1_555
H18 C47 1_555 1_555
C48 C46 1_555 1_555
C61 C60 1_555 1_555
H23 C61 1_555 1_555
C64 C60 1_555 1_555
O21 Zn2 1_555 1_555
O23 C41 1_555 1_555
O24 C41 1_555 1_555
O31 C64 1_555 1_555
O32 C64 1_555 1_555
O39 Zn2 1_555 1_555
O40 Zn2 1_555 1_555
O41 C56 1_555 1_555
Zn10 O7 1_555 1_555
Zn6 O10 1_555 1_555
Zn8 O15 1_555 1_555
Zn9 O32 1_555 1_555
Zn12 O13 1_555 1_555
Zn14 O6 1_555 1_555
Zn15 O11 1_555 1_555
Zn16 O24 1_555 1_555
C6 C7 1_555 1_555
C12 Si1 1_555 1_555
C14 C15 1_555 1_555
C22 C23 1_555 1_555
C22 Si1 1_555 1_555
C30 C31 1_555 1_555
C30 Si1 1_555 1_555
C46 C47 1_555 1_555
C56 O39 1_555 1_555
O17 H49 1_555 1_555
O46 H51 1_555 1_555
C33_2 C34_2 1_555 1_555
C34_2 C35_2 1_555 1_555
C35_2 H13_2 1_555 1_555
C36_2 C35_2 1_555 1_555
C37_2 C36_2 1_555 1_555
H14_2 C37_2 1_555 1_555
C38_2 C37_2 1_555 1_555
C39_2 C34_2 1_555 1_555
H15_2 C39_2 1_555 1_555
C40_2 C38_2 1_555 1_555
C49_2 C50_2 1_555 1_555
C50_2 C51_2 1_555 1_555
C51_2 H19_2 1_555 1_555
C52_2 C51_2 1_555 1_555
C53_2 C52_2 1_555 1_555
C54_2 C53_2 1_555 1_555
C55_2 C50_2 1_555 1_555
H21_2 C55_2 1_555 1_555
C57_2 C58_2 1_555 1_555
C58_2 C59_2 1_555 1_555
C59_2 H22_2 1_555 1_555
C63_2 C58_2 1_555 1_555
H24_2 C63_2 1_555 1_555
O18_2 C33_2 1_555 1_555
O19_2 C33_2 1_555 1_555
O20_2 C40_2 1_555 1_555
O22_2 C40_2 1_555 1_555
O29_2 Zn4_2 1_555 1_555
O34_2 Zn4_2 1_555 1_555
O35_2 C57_2 1_555 1_555
O38_2 C57_2 1_555 1_555
O42_2 C49_2 1_555 1_555
O44_2 Zn4_2 1_555 1_555
O45_2 C49_2 1_555 1_555
Si2_2 C36_2 1_555 1_555
Zn4_2 O18_2 1_555 1_555
Zn6 O42_2 1_555 1_555
Zn12 O20_2 1_555 1_555
Zn14 O35_2 1_555 1_555
C38_2 C39_2 1_555 1_555
C54_2 C55_2 1_555 1_555
C54_2 Si2_2 1_555 1_555
C62_2 C63_2 1_555 1_555
C62_2 Si2_2 1_555 1_555
C1_2 C2_2 1_555 1_555
C2_2 C3_2 1_555 1_555
C3_2 H1_2 1_555 1_555
C4_2 C3_2 1_555 1_555
C5_2 C4_2 1_555 1_555
H2_2 C5_2 1_555 1_555
C6_2 C5_2 1_555 1_555
C7_2 C2_2 1_555 1_555
H3_2 C7_2 1_555 1_555
C8_2 C6_2 1_555 1_555
C9_2 C10_2 1_555 1_555
C10_2 C11_2 1_555 1_555
C11_2 H4_2 1_555 1_555
C12_2 C11_2 1_555 1_555
C13_2 C12_2 1_555 1_555
H5_2 C13_2 1_555 1_555
C14_2 C13_2 1_555 1_555
C15_2 C10_2 1_555 1_555
H6_2 C15_2 1_555 1_555
C16_2 C14_2 1_555 1_555
C17_2 C18_2 1_555 1_555
C18_2 C19_2 1_555 1_555
C19_2 H7_2 1_555 1_555
C20_2 C19_2 1_555 1_555
C21_2 C20_2 1_555 1_555
H8_2 C21_2 1_555 1_555
C22_2 C21_2 1_555 1_555
C23_2 C18_2 1_555 1_555
H9_2 C23_2 1_555 1_555
C24_2 C20_2 1_555 1_555
C25_2 C26_2 1_555 1_555
C26_2 C27_2 1_555 1_555
C27_2 H10_2 1_555 1_555
C28_2 C27_2 1_555 1_555
C29_2 C28_2 1_555 1_555
H11_2 C29_2 1_555 1_555
C30_2 C29_2 1_555 1_555
C31_2 C26_2 1_555 1_555
H12_2 C31_2 1_555 1_555
C32_2 C28_2 1_555 1_555
O1_2 C1_2 1_555 1_555
O2_2 C1_2 1_555 1_555
O21 C8_2 1_555 1_555
O4_2 C8_2 1_555 1_555
O5_2 C9_2 1_555 1_555
O6_2 C9_2 1_555 1_555
O7_2 C16_2 1_555 1_555
O8_2 C16_2 1_555 1_555
O9_2 C32_2 1_555 1_555
O10_2 C32_2 1_555 1_555
O11_2 C25_2 1_555 1_555
O12_2 C25_2 1_555 1_555
O13_2 C24_2 1_555 1_555
O14_2 C24_2 1_555 1_555
O15_2 C17_2 1_555 1_555
O16_2 C17_2 1_555 1_555
O17_2 Zn3_2 1_555 1_555
Si1_2 C4_2 1_555 1_555
Zn1_2 O1_2 1_555 1_555
Zn3_2 O5_2 1_555 1_555
C41_2 C42_2 1_555 1_555
C42_2 C43_2 1_555 1_555
C43_2 H16_2 1_555 1_555
C44_2 C43_2 1_555 1_555
C45_2 C44_2 1_555 1_555
H17_2 C45_2 1_555 1_555
C46_2 C45_2 1_555 1_555
C47_2 C42_2 1_555 1_555
H18_2 C47_2 1_555 1_555
C48_2 C46_2 1_555 1_555
C61_2 C60_2 1_555 1_555
H23_2 C61_2 1_555 1_555
C64_2 C60_2 1_555 1_555
O23_2 C41_2 1_555 1_555
O24_2 C41_2 1_555 1_555
O25_2 Zn3_2 1_555 1_555
O26_2 Zn13_2 1_555 1_555
O28_2 Zn1_2 1_555 1_555
O31_2 C64_2 1_555 1_555
O32_2 C64_2 1_555 1_555
O33_2 Zn1_2 1_555 1_555
O36_2 Zn3_2 1_555 1_555
O37_2 Zn13_2 1_555 1_555
O41_2 C56_2 1_555 1_555
O43_2 Zn1_2 1_555 1_555
O46_2 Zn13_2 1_555 1_555
Zn6 O7_2 1_555 1_555
Zn10 O10_2 1_555 1_555
Zn9 O15_2 1_555 1_555
Zn8 O32_2 1_555 1_555
Zn12_2 O13_2 1_555 1_555
Zn13_2 O23_2 1_555 1_555
Zn17 O6_2 1_555 1_555
Zn16 O11_2 1_555 1_555
Zn15 O24_2 1_555 1_555
C6_2 C7_2 1_555 1_555
C12_2 Si1_2 1_555 1_555
C14_2 C15_2 1_555 1_555
C22_2 C23_2 1_555 1_555
C22_2 Si1_2 1_555 1_555
C30_2 C31_2 1_555 1_555
C30_2 Si1_2 1_555 1_555
C46_2 C47_2 1_555 1_555
C56_2 O40 1_555 1_555
O17_2 H49_2 1_555 1_555
O17_2 H50_2 1_555 1_555
O46_2 H51_2 1_555 1_555
O46_2 H52_2 1_555 1_555
Zn9 O27_2 1_555 1_555
C1_3 C2_3 1_555 1_555
C2_3 C3_3 1_555 1_555
C3_3 H1_3 1_555 1_555
C4_3 C3_3 1_555 1_555
C5_3 C4_3 1_555 1_555
H2_3 C5_3 1_555 1_555
C6_3 C5_3 1_555 1_555
C7_3 C2_3 1_555 1_555
H3_3 C7_3 1_555 1_555
C8_3 C6_3 1_555 1_555
C9_3 C10_3 1_555 1_555
C10_3 C11_3 1_555 1_555
C11_3 H4_3 1_555 1_555
C12_3 C11_3 1_555 1_555
C13_3 C12_3 1_555 1_555
H5_3 C13_3 1_555 1_555
C14_3 C13_3 1_555 1_555
C15_3 C10_3 1_555 1_555
H6_3 C15_3 1_555 1_555
C16_3 C14_3 1_555 1_555
C17_3 C18_3 1_555 1_555
C18_3 C19_3 1_555 1_555
C19_3 H7_3 1_555 1_555
C20_3 C19_3 1_555 1_555
C21_3 C20_3 1_555 1_555
H8_3 C21_3 1_555 1_555
C22_3 C21_3 1_555 1_555
C23_3 C18_3 1_555 1_555
H9_3 C23_3 1_555 1_555
C24_3 C20_3 1_555 1_555
C25_3 C26_3 1_555 1_555
C26_3 C27_3 1_555 1_555
C27_3 H10_3 1_555 1_555
C28_3 C27_3 1_555 1_555
C29_3 C28_3 1_555 1_555
H11_3 C29_3 1_555 1_555
C30_3 C29_3 1_555 1_555
C31_3 C26_3 1_555 1_555
H12_3 C31_3 1_555 1_555
C32_3 C28_3 1_555 1_555
O2_3 C1_3 1_555 1_555
O3_2 C8_3 1_555 1_555
O4_3 C8_3 1_555 1_555
O5_3 C9_3 1_555 1_555
O26 C9_3 1_555 1_555
O28 C16_3 1_555 1_555
O8_3 C16_3 1_555 1_555
O9_3 C32_3 1_555 1_555
O33_2 C32_3 1_555 1_555
O36_2 C25_3 1_555 1_555
O12_3 C25_3 1_555 1_555
O13_3 C24_3 1_555 1_555
O14_3 C24_3 1_555 1_555
O44 C17_3 1_555 1_555
O16_3 C17_3 1_555 1_555
Si1_3 C4_3 1_555 1_555
Zn2_2 O3_2 1_555 1_555
C41_3 C42_3 1_555 1_555
C42_3 C43_3 1_555 1_555
C43_3 H16_3 1_555 1_555
C44_3 C43_3 1_555 1_555
C45_3 C44_3 1_555 1_555
H17_3 C45_3 1_555 1_555
C46_3 C45_3 1_555 1_555
C47_3 C42_3 1_555 1_555
H18_3 C47_3 1_555 1_555
C48_3 C46_3 1_555 1_555
C61_3 C60_3 1_555 1_555
H23_3 C61_3 1_555 1_555
C64_3 C60_3 1_555 1_555
O21_2 Zn2_2 1_555 1_555
O23_3 C41_3 1_555 1_555
O25 C41_3 1_555 1_555
O31_3 C64_3 1_555 1_555
O34_2 C64_3 1_555 1_555
O39_2 Zn2_2 1_555 1_555
O40_2 Zn2_2 1_555 1_555
O41_3 C56_3 1_555 1_555
Zn11_2 O13_3 1_555 1_555
C6_3 C7_3 1_555 1_555
C12_3 Si1_3 1_555 1_555
C14_3 C15_3 1_555 1_555
C22_3 C23_3 1_555 1_555
C22_3 Si1_3 1_555 1_555
C30_3 C31_3 1_555 1_555
C30_3 Si1_3 1_555 1_555
C46_3 C47_3 1_555 1_555
C56_3 O39_2 1_555 1_555
O17_3 H49_3 1_555 1_555
O46_3 H51_3 1_555 1_555
Zn10 O1_3 1_555 1_555
C33_3 C34_3 1_555 1_555
C34_3 C35_3 1_555 1_555
C35_3 H13_3 1_555 1_555
C36_3 C35_3 1_555 1_555
C37_3 C36_3 1_555 1_555
H14_3 C37_3 1_555 1_555
C38_3 C37_3 1_555 1_555
C39_3 C34_3 1_555 1_555
H15_3 C39_3 1_555 1_555
C40_3 C38_3 1_555 1_555
C49_3 C50_3 1_555 1_555
C50_3 C51_3 1_555 1_555
C51_3 H19_3 1_555 1_555
C52_3 C51_3 1_555 1_555
C53_3 C52_3 1_555 1_555
C54_3 C53_3 1_555 1_555
C55_3 C50_3 1_555 1_555
H21_3 C55_3 1_555 1_555
C57_3 C58_3 1_555 1_555
C58_3 C59_3 1_555 1_555
C59_3 H22_3 1_555 1_555
C63_3 C58_3 1_555 1_555
H24_3 C63_3 1_555 1_555
O19_3 C33_3 1_555 1_555
O20_3 C40_3 1_555 1_555
O22_3 C40_3 1_555 1_555
O37_2 C57_3 1_555 1_555
O38_3 C57_3 1_555 1_555
O43 C49_3 1_555 1_555
O45_3 C49_3 1_555 1_555
Si2_3 C36_3 1_555 1_555
Zn11 O20_3 1_555 1_555
C38_3 C39_3 1_555 1_555
C54_3 C55_3 1_555 1_555
C54_3 Si2_3 1_555 1_555
C62_3 C63_3 1_555 1_555
C62_3 Si2_3 1_555 1_555
Zn8 O18_3 1_555 1_555
C1_4 C2_4 1_555 1_555
C2_4 C3_4 1_555 1_555
C3_4 H1_4 1_555 1_555
C4_4 C3_4 1_555 1_555
C5_4 C4_4 1_555 1_555
H2_4 C5_4 1_555 1_555
C6_4 C5_4 1_555 1_555
C7_4 C2_4 1_555 1_555
H3_4 C7_4 1_555 1_555
C8_4 C6_4 1_555 1_555
C9_4 C10_4 1_555 1_555
C10_4 C11_4 1_555 1_555
C11_4 H4_4 1_555 1_555
C12_4 C11_4 1_555 1_555
C13_4 C12_4 1_555 1_555
H5_4 C13_4 1_555 1_555
C14_4 C13_4 1_555 1_555
C15_4 C10_4 1_555 1_555
H6_4 C15_4 1_555 1_555
C16_4 C14_4 1_555 1_555
C17_4 C18_4 1_555 1_555
C18_4 C19_4 1_555 1_555
C19_4 H7_4 1_555 1_555
C20_4 C19_4 1_555 1_555
C21_4 C20_4 1_555 1_555
H8_4 C21_4 1_555 1_555
C22_4 C21_4 1_555 1_555
C23_4 C18_4 1_555 1_555
H9_4 C23_4 1_555 1_555
C24_4 C20_4 1_555 1_555
C25_4 C26_4 1_555 1_555
C26_4 C27_4 1_555 1_555
C27_4 H10_4 1_555 1_555
C28_4 C27_4 1_555 1_555
C29_4 C28_4 1_555 1_555
H11_4 C29_4 1_555 1_555
C30_4 C29_4 1_555 1_555
C31_4 C26_4 1_555 1_555
H12_4 C31_4 1_555 1_555
C32_4 C28_4 1_555 1_555
O1_4 C1_4 1_555 1_555
O2_4 C1_4 1_555 1_555
O21_2 C8_4 1_555 1_555
O4_4 C8_4 1_555 1_555
O5_4 C9_4 1_555 1_555
O26_2 C9_4 1_555 1_555
O28_2 C16_4 1_555 1_555
O8_4 C16_4 1_555 1_555
O9_4 C32_4 1_555 1_555
O33 C32_4 1_555 1_555
O36 C25_4 1_555 1_555
O12_4 C25_4 1_555 1_555
O13_4 C24_4 1_555 1_555
O14_4 C24_4 1_555 1_555
O44_2 C17_4 1_555 1_555
O16_4 C17_4 1_555 1_555
O17_4 Zn15 1_555 1_555
Si1_4 C4_4 1_555 1_555
Zn6 O1_4 1_555 1_555
Zn15 O5_4 1_555 1_555
C41_4 C42_4 1_555 1_555
C42_4 C43_4 1_555 1_555
C43_4 H16_4 1_555 1_555
C44_4 C43_4 1_555 1_555
C45_4 C44_4 1_555 1_555
H17_4 C45_4 1_555 1_555
C46_4 C45_4 1_555 1_555
C47_4 C42_4 1_555 1_555
H18_4 C47_4 1_555 1_555
C48_4 C46_4 1_555 1_555
C61_4 C60_4 1_555 1_555
H23_4 C61_4 1_555 1_555
C64_4 C60_4 1_555 1_555
O23_4 C41_4 1_555 1_555
O25_2 C41_4 1_555 1_555
O31_4 C64_4 1_555 1_555
O34 C64_4 1_555 1_555
O41_4 C56_4 1_555 1_555
O46_4 Zn17 1_555 1_555
Zn11 O13_4 1_555 1_555
Zn17 O23_4 1_555 1_555
C6_4 C7_4 1_555 1_555
C12_4 Si1_4 1_555 1_555
C14_4 C15_4 1_555 1_555
C22_4 C23_4 1_555 1_555
C22_4 Si1_4 1_555 1_555
C30_4 C31_4 1_555 1_555
C30_4 Si1_4 1_555 1_555
C46_4 C47_4 1_555 1_555
C56_4 O40_2 1_555 1_555
O17_4 H49_4 1_555 1_555
O17_4 H50_4 1_555 1_555
O46_4 H51_4 1_555 1_555
O46_4 H52_4 1_555 1_555
C33_4 C34_4 1_555 1_555
C34_4 C35_4 1_555 1_555
C35_4 H13_4 1_555 1_555
C36_4 C35_4 1_555 1_555
C37_4 C36_4 1_555 1_555
H14_4 C37_4 1_555 1_555
C38_4 C37_4 1_555 1_555
C39_4 C34_4 1_555 1_555
H15_4 C39_4 1_555 1_555
C40_4 C38_4 1_555 1_555
C49_4 C50_4 1_555 1_555
C50_4 C51_4 1_555 1_555
C51_4 H19_4 1_555 1_555
C52_4 C51_4 1_555 1_555
C53_4 C52_4 1_555 1_555
C54_4 C53_4 1_555 1_555
C55_4 C50_4 1_555 1_555
H21_4 C55_4 1_555 1_555
C57_4 C58_4 1_555 1_555
C58_4 C59_4 1_555 1_555
C59_4 H22_4 1_555 1_555
C63_4 C58_4 1_555 1_555
H24_4 C63_4 1_555 1_555
O18_4 C33_4 1_555 1_555
O19_4 C33_4 1_555 1_555
O20_4 C40_4 1_555 1_555
O22_4 C40_4 1_555 1_555
O37 C57_4 1_555 1_555
O38_4 C57_4 1_555 1_555
O43_2 C49_4 1_555 1_555
O45_4 C49_4 1_555 1_555
Si2_4 C36_4 1_555 1_555
Zn9 O18_4 1_555 1_555
Zn11_2 O20_4 1_555 1_555
C38_4 C39_4 1_555 1_555
C54_4 C55_4 1_555 1_555
C54_4 Si2_4 1_555 1_555
C62_4 C63_4 1_555 1_555
C62_4 Si2_4 1_555 1_555
C65 H25 1_555 1_555
H26 C65 1_555 1_555
H27 C65 1_555 1_555
C66 H28 1_555 1_555
H29 C66 1_555 1_555
H30 C66 1_555 1_555
N1 C65 1_555 1_555
H31 N1 1_555 1_555
H32 N1 1_555 1_555
C66 N1 1_555 1_555
C65_2 H25_2 1_555 1_555
H26_2 C65_2 1_555 1_555
H27_2 C65_2 1_555 1_555
C66_2 H28_2 1_555 1_555
H29_2 C66_2 1_555 1_555
H30_2 C66_2 1_555 1_555
N1_2 C65_2 1_555 1_555
H31_2 N1_2 1_555 1_555
H32_2 N1_2 1_555 1_555
C66_2 N1_2 1_555 1_555
C65_3 H25_3 1_555 1_555
H26_3 C65_3 1_555 1_555
H27_3 C65_3 1_555 1_555
C66_3 H28_3 1_555 1_555
H29_3 C66_3 1_555 1_555
H30_3 C66_3 1_555 1_555
N1_3 C65_3 1_555 1_555
H31_3 N1_3 1_555 1_555
H32_3 N1_3 1_555 1_555
C66_3 N1_3 1_555 1_555
C65_4 H25_4 1_555 1_555
H26_4 C65_4 1_555 1_555
H27_4 C65_4 1_555 1_555
C66_4 H28_4 1_555 1_555
H29_4 C66_4 1_555 1_555
H30_4 C66_4 1_555 1_555
N1_4 C65_4 1_555 1_555
H31_4 N1_4 1_555 1_555
H32_4 N1_4 1_555 1_555
C66_4 N1_4 1_555 1_555
C65_5 H25_5 1_555 1_555
H26_5 C65_5 1_555 1_555
H27_5 C65_5 1_555 1_555
C66_5 H28_5 1_555 1_555
H29_5 C66_5 1_555 1_555
H30_5 C66_5 1_555 1_555
N1_5 C65_5 1_555 1_555
H31_5 N1_5 1_555 1_555
H32_5 N1_5 1_555 1_555
C66_5 N1_5 1_555 1_555
C65_6 H25_6 1_555 1_555
H26_6 C65_6 1_555 1_555
H27_6 C65_6 1_555 1_555
C66_6 H28_6 1_555 1_555
H29_6 C66_6 1_555 1_555
H30_6 C66_6 1_555 1_555
N1_6 C65_6 1_555 1_555
H31_6 N1_6 1_555 1_555
H32_6 N1_6 1_555 1_555
C66_6 N1_6 1_555 1_555
C65_7 H25_7 1_555 1_555
H26_7 C65_7 1_555 1_555
H27_7 C65_7 1_555 1_555
C66_7 H28_7 1_555 1_555
H29_7 C66_7 1_555 1_555
H30_7 C66_7 1_555 1_555
N1_7 C65_7 1_555 1_555
H31_7 N1_7 1_555 1_555
H32_7 N1_7 1_555 1_555
C66_7 N1_7 1_555 1_555
C65_8 H25_8 1_555 1_555
H26_8 C65_8 1_555 1_555
H27_8 C65_8 1_555 1_555
C66_8 H28_8 1_555 1_555
H29_8 C66_8 1_555 1_555
H30_8 C66_8 1_555 1_555
N1_8 C65_8 1_555 1_555
H31_8 N1_8 1_555 1_555
H32_8 N1_8 1_555 1_555
C66_8 N1_8 1_555 1_555
C67 H33 1_555 1_555
H34 C67 1_555 1_555
H35 C67 1_555 1_555
N2 C67 1_555 1_555
H39 N2 1_555 1_555
C68 H36 1_555 1_555
H37 C68 1_555 1_555
C67_2 H33_2 1_555 1_555
H34_2 C67_2 1_555 1_555
H35_2 C67_2 1_555 1_555
C68_2 H36_2 1_555 1_555
H37_2 C68_2 1_555 1_555
H38_2 C68_2 1_555 1_555
N2_2 C67_2 1_555 1_555
H39_2 N2_2 1_555 1_555
H40_2 N2_2 1_555 1_555
C68_2 N2_2 1_555 1_555
C67_3 H33_3 1_555 1_555
H34_3 C67_3 1_555 1_555
H35_3 C67_3 1_555 1_555
N2_3 C67_3 1_555 1_555
H39_3 N2_3 1_555 1_555
C68_3 H36_3 1_555 1_555
H37_3 C68_3 1_555 1_555
C67_4 H33_4 1_555 1_555
H34_4 C67_4 1_555 1_555
H35_4 C67_4 1_555 1_555
C68_4 H36_4 1_555 1_555
H37_4 C68_4 1_555 1_555
H38_4 C68_4 1_555 1_555
N2_4 C67_4 1_555 1_555
H39_4 N2_4 1_555 1_555
H40_4 N2_4 1_555 1_555
C68_4 N2_4 1_555 1_555
C68_5 H36_5 1_555 1_555
H37_5 C68_5 1_555 1_555
C67_5 H33_5 1_555 1_555
H34_5 C67_5 1_555 1_555
H35_5 C67_5 1_555 1_555
N2_5 C67_5 1_555 1_555
H39_5 N2_5 1_555 1_555
C67_6 H33_6 1_555 1_555
H34_6 C67_6 1_555 1_555
H35_6 C67_6 1_555 1_555
C68_6 H36_6 1_555 1_555
H37_6 C68_6 1_555 1_555
H38_6 C68_6 1_555 1_555
N2_6 C67_6 1_555 1_555
H39_6 N2_6 1_555 1_555
H40_6 N2_6 1_555 1_555
C68_6 N2_6 1_555 1_555
C68_7 H36_7 1_555 1_555
H37_7 C68_7 1_555 1_555
C67_7 H33_7 1_555 1_555
H34_7 C67_7 1_555 1_555
H35_7 C67_7 1_555 1_555
N2_7 C67_7 1_555 1_555
H39_7 N2_7 1_555 1_555
C67_8 H33_8 1_555 1_555
H34_8 C67_8 1_555 1_555
H35_8 C67_8 1_555 1_555
C68_8 H36_8 1_555 1_555
H37_8 C68_8 1_555 1_555
H38_8 C68_8 1_555 1_555
N2_8 C67_8 1_555 1_555
H39_8 N2_8 1_555 1_555
H40_8 N2_8 1_555 1_555
C68_8 N2_8 1_555 1_555
C69 H41 1_555 1_555
H42 C69 1_555 1_555
H43 C69 1_555 1_555
C70 H44 1_555 1_555
H45 C70 1_555 1_555
H46 C70 1_555 1_555
N3 C69 1_555 1_555
H47 N3 1_555 1_555
H48 N3 1_555 1_555
C70 N3 1_555 1_555
C69_2 H41_2 1_555 1_555
H42_2 C69_2 1_555 1_555
H43_2 C69_2 1_555 1_555
C70_2 H44_2 1_555 1_555
H45_2 C70_2 1_555 1_555
H46_2 C70_2 1_555 1_555
N3_2 C69_2 1_555 1_555
H47_2 N3_2 1_555 1_555
H48_2 N3_2 1_555 1_555
C70_2 N3_2 1_555 1_555
C69_3 H41_3 1_555 1_555
H42_3 C69_3 1_555 1_555
H43_3 C69_3 1_555 1_555
C70_3 H44_3 1_555 1_555
H45_3 C70_3 1_555 1_555
H46_3 C70_3 1_555 1_555
H47_3 N3_3 1_555 1_555
H48_3 N3_3 1_555 1_555
C70_3 N3_3 1_555 1_555
C69_4 H41_4 1_555 1_555
H42_4 C69_4 1_555 1_555
H43_4 C69_4 1_555 1_555
C70_4 H44_4 1_555 1_555
H45_4 C70_4 1_555 1_555
H46_4 C70_4 1_555 1_555
H47_4 N3_4 1_555 1_555
H48_4 N3_4 1_555 1_555
C70_4 N3_4 1_555 1_555
C69_5 H41_5 1_555 1_555
H42_5 C69_5 1_555 1_555
H43_5 C69_5 1_555 1_555
C70_5 H44_5 1_555 1_555
H45_5 C70_5 1_555 1_555
H46_5 C70_5 1_555 1_555
N3_5 C69_5 1_555 1_555
H47_5 N3_5 1_555 1_555
H48_5 N3_5 1_555 1_555
C70_5 N3_5 1_555 1_555
C69_6 H41_6 1_555 1_555
H42_6 C69_6 1_555 1_555
H43_6 C69_6 1_555 1_555
C70_6 H44_6 1_555 1_555
H45_6 C70_6 1_555 1_555
H46_6 C70_6 1_555 1_555
N3_6 C69_6 1_555 1_555
H47_6 N3_6 1_555 1_555
H48_6 N3_6 1_555 1_555
C70_6 N3_6 1_555 1_555
C70_7 H44_7 1_555 1_555
H45_7 C70_7 1_555 1_555
H46_7 C70_7 1_555 1_555
H47_7 N3_7 1_555 1_555
H48_7 N3_7 1_555 1_555
C70_7 N3_7 1_555 1_555
C69_7 H41_7 1_555 1_555
H42_7 C69_7 1_555 1_555
H43_7 C69_7 1_555 1_555
C70_8 H44_8 1_555 1_555
H45_8 C70_8 1_555 1_555
H46_8 C70_8 1_555 1_555
H47_8 N3_8 1_555 1_555
H48_8 N3_8 1_555 1_555
C70_8 N3_8 1_555 1_555
C69_8 H41_8 1_555 1_555
H42_8 C69_8 1_555 1_555
H43_8 C69_8 1_555 1_555

#END
