
###############################################################################
#
# This file contains modified crystal structure data generated from the
# MOF subset of the Cambridge Structural Database (CSD) v543 
# hosted by the Cambridge Crystallographic Data Centre (CCDC).
#
# This work is licensed under the Creative Commons
# Attribution-NonCommercial-ShareAlike 4.0 International License.
# To view a copy of this license, visit
# http://creativecommons.org/licenses/by-nc-sa/4.0/
# or send a letter to
# Creative Commons, PO Box 1866, Mountain View, CA 94042, USA.
#
# CIF created using the CSD Python API on 29 September 2022
# The structure has been converted into the P1 space group
# The structure has a 3D framework
# The original CSD entry GERWEH is in the tetragonal crystal system
# The framework has been calculated to contain at least 10.0% void space
# The void calculation uses a probe of radius 1.32A, grid spacing 0.4
# H atom positions have been added when not included in the experimental data
# Generated hydrogen atom positions removed from atoms on special positions
#
###############################################################################

data_GERWEH
_chemical_formula_moiety         '(C64 H72 Cu8 O34 Si4)n'
_symmetry_cell_setting           triclinic
_symmetry_space_group_name_H-M   'P 1'
_symmetry_Int_Tables_number      1
_space_group_name_Hall           'P 1'
loop_
_symmetry_equiv_pos_site_id
_symmetry_equiv_pos_as_xyz
1 x,y,z
_cell_length_a                   17.492(9)
_cell_length_b                   17.492(9)
_cell_length_c                   9.105(9)
_cell_angle_alpha                90
_cell_angle_beta                 90
_cell_angle_gamma                90
_cell_volume                     2785.86
loop_
_atom_site_label
_atom_site_type_symbol
_atom_site_fract_x
_atom_site_fract_y
_atom_site_fract_z
Cu3 Cu 0.04372(3) 0.04372(3) 0.58487(7)
Cu4 Cu 0.45628(3) 0.04372(3) 0.58487(7)
O5 O 0.11780(16) 0.00621(18) 0.4411(3)
O6 O 0.38220(16) 0.00621(18) 0.4411(3)
O13 O 0.00621(18) 0.11780(16) 0.4411(3)
O14 O 0.49379(18) 0.11780(16) 0.4411(3)
O29 O 0.54700(14) 0.0675(2) 0.7045(4)
O31 O 0.12154(19) 0.12154(19) 0.6909(6)
O32 O 0.37846(19) 0.12154(19) 0.6909(6)
Cu1 Cu 0.04372(3) 0.45628(3) 0.58487(7)
Si1 Si 0.2500 0.7500 0.0000
O1 O 0.11780(16) 0.49379(18) 0.4411(3)
O2 O 0.04700(14) 0.5675(2) 0.2955(4)
C1 C 0.2500 0.6625(3) 0.1205(6)
C2 C 0.18145(19) 0.6319(2) 0.1731(4)
H1 H 0.1352 0.6517 0.1399
C3 C 0.1813(2) 0.5723(2) 0.2748(4)
C4 C 0.2500 0.5427(3) 0.3233(6)
H2 H 0.2500 0.5022 0.3896
C5 C 0.1095(2) 0.5416(2) 0.3412(4)
O3 O 0.12154(19) 0.37846(19) 0.6909(6)
Cu2 Cu 0.45628(3) 0.45628(3) 0.58487(7)
Cu6 Cu 0.54372(3) 0.54372(3) 0.41513(7)
Cu8 Cu 0.54372(3) 0.95628(3) 0.41513(7)
O4 O 0.38220(16) 0.49379(18) 0.4411(3)
O11 O 0.00621(18) 0.38220(16) 0.4411(3)
O12 O 0.49379(18) 0.38220(16) 0.4411(3)
O15 O 0.45300(14) 0.5675(2) 0.2955(4)
O16 O 0.04700(14) 0.9325(2) 0.2955(4)
O17 O 0.45300(14) 0.9325(2) 0.2955(4)
O22 O 0.0675(2) 0.54700(14) 0.7045(4)
O24 O 0.4325(2) 0.54700(14) 0.7045(4)
O25 O 0.54700(14) 0.4325(2) 0.7045(4)
O26 O 0.0675(2) 0.95300(14) 0.7045(4)
O28 O 0.4325(2) 0.95300(14) 0.7045(4)
C6 C 0.2500 0.8375(3) 0.1205(6)
C9 C 0.31855(19) 0.6319(2) 0.1731(4)
C10 C 0.31855(19) 0.8681(2) 0.1731(4)
C11 C 0.18145(19) 0.8681(2) 0.1731(4)
H3 H 0.3648 0.6517 0.1399
H4 H 0.3648 0.8483 0.1399
H5 H 0.1352 0.8483 0.1399
C16 C 0.3187(2) 0.5723(2) 0.2748(4)
C17 C 0.3187(2) 0.9277(2) 0.2748(4)
C18 C 0.1813(2) 0.9277(2) 0.2748(4)
C23 C 0.2500 0.9573(3) 0.3233(6)
H10 H 0.2500 0.9978 0.3896
C26 C 0.3905(2) 0.5416(2) 0.3412(4)
C27 C 0.1095(2) 0.9584(2) 0.3412(4)
C28 C 0.3905(2) 0.9584(2) 0.3412(4)
O30 O 0.37846(19) 0.37846(19) 0.6909(6)
Si1_2 Si 0.2500 0.7500 1.0000
O9 O 0.50621(18) 0.61780(16) 0.5589(3)
O10 O 0.50621(18) 0.88220(16) 0.5589(3)
C7 C 0.1625(3) 0.7500 0.8795(6)
C8 C 0.3375(3) 0.7500 0.8795(6)
C12 C 0.1319(2) 0.68145(19) 0.8269(4)
C13 C 0.1319(2) 0.81855(19) 0.8269(4)
C14 C 0.3681(2) 0.81855(19) 0.8269(4)
C15 C 0.3681(2) 0.68145(19) 0.8269(4)
H6 H 0.1517 0.6352 0.8601
H7 H 0.1517 0.8648 0.8601
H8 H 0.3483 0.8648 0.8601
H9 H 0.3483 0.6352 0.8601
C19 C 0.0723(2) 0.6813(2) 0.7252(4)
C20 C 0.0723(2) 0.8187(2) 0.7252(4)
C21 C 0.4277(2) 0.8187(2) 0.7252(4)
C22 C 0.4277(2) 0.6813(2) 0.7252(4)
C24 C 0.0427(3) 0.7500 0.6767(6)
C25 C 0.4573(3) 0.7500 0.6767(6)
H11 H 0.0022 0.7500 0.6104
H12 H 0.4978 0.7500 0.6104
C29 C 0.0416(2) 0.8905(2) 0.6588(4)
C30 C 0.0416(2) 0.6095(2) 0.6588(4)
C31 C 0.4584(2) 0.6095(2) 0.6588(4)
C32 C 0.4584(2) 0.8905(2) 0.6588(4)
O27 O 0.95300(14) 0.0675(2) 0.7045(4)
Cu5 Cu 0.95628(3) 0.54372(3) 0.41513(7)
Cu7 Cu 0.95628(3) 0.95628(3) 0.41513(7)
O23 O 0.95300(14) 0.4325(2) 0.7045(4)
O7 O 0.99379(18) 0.88220(16) 0.5589(3)
O8 O 0.99379(18) 0.61780(16) 0.5589(3)
Si1_3 Si 0.7500 0.2500 0.0000
O2_2 O 0.9325(2) 0.04700(14) 0.2955(4)
C1_2 C 0.8375(3) 0.2500 0.1205(6)
C2_2 C 0.8681(2) 0.18145(19) 0.1731(4)
H1_2 H 0.8483 0.1352 0.1399
C3_2 C 0.9277(2) 0.1813(2) 0.2748(4)
C4_2 C 0.9573(3) 0.2500 0.3233(6)
H2_2 H 0.9978 0.2500 0.3896
C5_2 C 0.9584(2) 0.1095(2) 0.3412(4)
O15_2 O 0.9325(2) 0.45300(14) 0.2955(4)
O16_2 O 0.5675(2) 0.04700(14) 0.2955(4)
O17_2 O 0.5675(2) 0.45300(14) 0.2955(4)
C6_2 C 0.6625(3) 0.2500 0.1205(6)
C9_2 C 0.8681(2) 0.31855(19) 0.1731(4)
C10_2 C 0.6319(2) 0.31855(19) 0.1731(4)
C11_2 C 0.6319(2) 0.18145(19) 0.1731(4)
H3_2 H 0.8483 0.3648 0.1399
H4_2 H 0.6517 0.3648 0.1399
H5_2 H 0.6517 0.1352 0.1399
C16_2 C 0.9277(2) 0.3187(2) 0.2748(4)
C17_2 C 0.5723(2) 0.3187(2) 0.2748(4)
C18_2 C 0.5723(2) 0.1813(2) 0.2748(4)
C23_2 C 0.5427(3) 0.2500 0.3233(6)
H10_2 H 0.5022 0.2500 0.3896
C26_2 C 0.9584(2) 0.3905(2) 0.3412(4)
C27_2 C 0.5416(2) 0.1095(2) 0.3412(4)
C28_2 C 0.5416(2) 0.3905(2) 0.3412(4)
Si1_4 Si 0.7500 0.2500 1.0000
O9_2 O 0.88220(16) 0.50621(18) 0.5589(3)
O10_2 O 0.61780(16) 0.50621(18) 0.5589(3)
C7_2 C 0.7500 0.1625(3) 0.8795(6)
C8_2 C 0.7500 0.3375(3) 0.8795(6)
C12_2 C 0.81855(19) 0.1319(2) 0.8269(4)
C13_2 C 0.68145(19) 0.1319(2) 0.8269(4)
C14_2 C 0.68145(19) 0.3681(2) 0.8269(4)
C15_2 C 0.81855(19) 0.3681(2) 0.8269(4)
H6_2 H 0.8648 0.1517 0.8601
H7_2 H 0.6352 0.1517 0.8601
H8_2 H 0.6352 0.3483 0.8601
H9_2 H 0.8648 0.3483 0.8601
C19_2 C 0.8187(2) 0.0723(2) 0.7252(4)
C20_2 C 0.6813(2) 0.0723(2) 0.7252(4)
C21_2 C 0.6813(2) 0.4277(2) 0.7252(4)
C22_2 C 0.8187(2) 0.4277(2) 0.7252(4)
C24_2 C 0.7500 0.0427(3) 0.6767(6)
C25_2 C 0.7500 0.4573(3) 0.6767(6)
H11_2 H 0.7500 0.0022 0.6104
H12_2 H 0.7500 0.4978 0.6104
C29_2 C 0.6095(2) 0.0416(2) 0.6588(4)
C30_2 C 0.8905(2) 0.0416(2) 0.6588(4)
C31_2 C 0.8905(2) 0.4584(2) 0.6588(4)
C32_2 C 0.6095(2) 0.4584(2) 0.6588(4)
O7_2 O 0.61780(16) 0.99379(18) 0.5589(3)
O8_2 O 0.88220(16) 0.99379(18) 0.5589(3)
O31_2 O 0.87846(19) 0.62154(19) 0.3091(6)
O32_2 O 0.62154(19) 0.62154(19) 0.3091(6)
O3_2 O 0.87846(19) 0.87846(19) 0.3091(6)
O30_2 O 0.62154(19) 0.87846(19) 0.3091(6)
loop_
_geom_bond_atom_site_label_1
_geom_bond_atom_site_label_2
_geom_bond_site_symmetry_1
_geom_bond_site_symmetry_2
Cu3 O5 1_555 1_555
Cu4 O6 1_555 1_555
O13 Cu3 1_555 1_555
O14 Cu4 1_555 1_555
O29 Cu4 1_555 1_555
O31 Cu3 1_555 1_555
O32 Cu4 1_555 1_555
Cu1 O1 1_555 1_555
Si1 C1 1_555 1_555
O1 C5 1_555 1_555
O2 C5 1_555 1_555
C1 C2 1_555 1_555
C2 H1 1_555 1_555
C3 C2 1_555 1_555
C4 C3 1_555 1_555
H2 C4 1_555 1_555
C5 C3 1_555 1_555
O3 Cu1 1_555 1_555
Cu2 O4 1_555 1_555
Cu6 O15 1_555 1_555
Cu8 O17 1_555 1_555
O4 C26 1_555 1_555
O11 Cu1 1_555 1_555
O12 Cu2 1_555 1_555
O15 C26 1_555 1_555
O16 C27 1_555 1_555
O17 C28 1_555 1_555
O22 Cu1 1_555 1_555
O24 Cu2 1_555 1_555
O25 Cu2 1_555 1_555
C6 Si1 1_555 1_555
C9 C1 1_555 1_555
C10 C6 1_555 1_555
C11 C6 1_555 1_555
H3 C9 1_555 1_555
H4 C10 1_555 1_555
H5 C11 1_555 1_555
C16 C4 1_555 1_555
C17 C10 1_555 1_555
C18 C11 1_555 1_555
C23 C17 1_555 1_555
H10 C23 1_555 1_555
C26 C16 1_555 1_555
C27 C18 1_555 1_555
C28 C17 1_555 1_555
O30 Cu2 1_555 1_555
C9 C16 1_555 1_555
C18 C23 1_555 1_555
Cu6 O9 1_555 1_555
Cu8 O10 1_555 1_555
O9 C31 1_555 1_555
O10 C32 1_555 1_555
O26 C29 1_555 1_555
O22 C30 1_555 1_555
O24 C31 1_555 1_555
O28 C32 1_555 1_555
C7 Si1_2 1_555 1_555
C8 Si1_2 1_555 1_555
C12 C7 1_555 1_555
C13 C7 1_555 1_555
C14 C8 1_555 1_555
C15 C8 1_555 1_555
H6 C12 1_555 1_555
H7 C13 1_555 1_555
H8 C14 1_555 1_555
H9 C15 1_555 1_555
C19 C12 1_555 1_555
C20 C13 1_555 1_555
C21 C14 1_555 1_555
C22 C15 1_555 1_555
C24 C19 1_555 1_555
C25 C21 1_555 1_555
H11 C24 1_555 1_555
H12 C25 1_555 1_555
C29 C20 1_555 1_555
C30 C19 1_555 1_555
C31 C22 1_555 1_555
C32 C21 1_555 1_555
C20 C24 1_555 1_555
C22 C25 1_555 1_555
Cu7 O7 1_555 1_555
Cu5 O8 1_555 1_555
Si1_3 C1_2 1_555 1_555
O2_2 C5_2 1_555 1_555
C1_2 C2_2 1_555 1_555
C2_2 H1_2 1_555 1_555
C3_2 C2_2 1_555 1_555
C4_2 C3_2 1_555 1_555
H2_2 C4_2 1_555 1_555
C5_2 C3_2 1_555 1_555
Cu5 O15_2 1_555 1_555
Cu6 O17_2 1_555 1_555
O14 C27_2 1_555 1_555
O12 C28_2 1_555 1_555
O15_2 C26_2 1_555 1_555
O16_2 C27_2 1_555 1_555
O17_2 C28_2 1_555 1_555
C6_2 Si1_3 1_555 1_555
C9_2 C1_2 1_555 1_555
C10_2 C6_2 1_555 1_555
C11_2 C6_2 1_555 1_555
H3_2 C9_2 1_555 1_555
H4_2 C10_2 1_555 1_555
H5_2 C11_2 1_555 1_555
C16_2 C4_2 1_555 1_555
C17_2 C10_2 1_555 1_555
C18_2 C11_2 1_555 1_555
C23_2 C17_2 1_555 1_555
H10_2 C23_2 1_555 1_555
C26_2 C16_2 1_555 1_555
C27_2 C18_2 1_555 1_555
C28_2 C17_2 1_555 1_555
C9_2 C16_2 1_555 1_555
C18_2 C23_2 1_555 1_555
Cu5 O9_2 1_555 1_555
Cu6 O10_2 1_555 1_555
O9_2 C31_2 1_555 1_555
O10_2 C32_2 1_555 1_555
O29 C29_2 1_555 1_555
O27 C30_2 1_555 1_555
O23 C31_2 1_555 1_555
O25 C32_2 1_555 1_555
C7_2 Si1_4 1_555 1_555
C8_2 Si1_4 1_555 1_555
C12_2 C7_2 1_555 1_555
C13_2 C7_2 1_555 1_555
C14_2 C8_2 1_555 1_555
C15_2 C8_2 1_555 1_555
H6_2 C12_2 1_555 1_555
H7_2 C13_2 1_555 1_555
H8_2 C14_2 1_555 1_555
H9_2 C15_2 1_555 1_555
C19_2 C12_2 1_555 1_555
C20_2 C13_2 1_555 1_555
C21_2 C14_2 1_555 1_555
C22_2 C15_2 1_555 1_555
C24_2 C19_2 1_555 1_555
C25_2 C21_2 1_555 1_555
H11_2 C24_2 1_555 1_555
H12_2 C25_2 1_555 1_555
C29_2 C20_2 1_555 1_555
C30_2 C19_2 1_555 1_555
C31_2 C22_2 1_555 1_555
C32_2 C21_2 1_555 1_555
C20_2 C24_2 1_555 1_555
C22_2 C25_2 1_555 1_555
Cu8 O7_2 1_555 1_555
Cu7 O8_2 1_555 1_555
O31_2 Cu5 1_555 1_555
O32_2 Cu6 1_555 1_555
O3_2 Cu7 1_555 1_555
O30_2 Cu8 1_555 1_555

#END
