
###############################################################################
#
# This file contains modified crystal structure data generated from the
# MOF subset of the Cambridge Structural Database (CSD) v543 
# hosted by the Cambridge Crystallographic Data Centre (CCDC).
#
# This work is licensed under the Creative Commons
# Attribution-NonCommercial-ShareAlike 4.0 International License.
# To view a copy of this license, visit
# http://creativecommons.org/licenses/by-nc-sa/4.0/
# or send a letter to
# Creative Commons, PO Box 1866, Mountain View, CA 94042, USA.
#
# CIF created using the CSD Python API on 29 September 2022
# The structure has been converted into the P1 space group
# The structure has a 3D framework
# The original CSD entry GERXEJ is in the tetragonal crystal system
# The framework has been calculated to contain at least 10.0% void space
# The void calculation uses a probe of radius 1.32A, grid spacing 0.4
# H atom positions have been added when not included in the experimental data
# Generated hydrogen atom positions removed from atoms on special positions
#
###############################################################################

data_GERXEJ
_chemical_formula_moiety         '(C128 H224 O73 Th20)n'
_symmetry_cell_setting           triclinic
_symmetry_space_group_name_H-M   'P 1'
_symmetry_Int_Tables_number      1
_space_group_name_Hall           'P 1'
loop_
_symmetry_equiv_pos_site_id
_symmetry_equiv_pos_as_xyz
1 x,y,z
_cell_length_a                   24.8785(8)
_cell_length_b                   24.8785(8)
_cell_length_c                   17.5034(6)
_cell_angle_alpha                90
_cell_angle_beta                 90
_cell_angle_gamma                90
_cell_volume                     10833.6
loop_
_atom_site_label
_atom_site_type_symbol
_atom_site_fract_x
_atom_site_fract_y
_atom_site_fract_z
Th10 Th 0.38690(2) -0.000000 0.000000
Th10_2 Th 0.38690(2) -0.000000 1.000000
Th1 Th 0.07807(2) 0.500000 0.38882(2)
Th2 Th 0.000000 0.38690(2) 0.500000
O1 O -0.000000 0.4474(3) 0.3930(5)
O2 O 0.0756(3) 0.4473(3) 0.500000
O3 O 0.06578(15) 0.34696(14) 0.4085(3)
O4 O 0.10869(18) 0.41131(15) 0.3438(3)
O5 O 0.1766(3) 0.500000 0.4094(6)
O6 O 0.0644(6) 0.500000 0.2491(5)
C1 C 0.1006(2) 0.3631(2) 0.3636(4)
C2 C 0.1370(2) 0.3219(2) 0.3295(3)
C3 C 0.1344(3) 0.2696(3) 0.3522(5)
H1 H 0.108677 0.259448 0.388781
C4 C 0.1690(4) 0.2307(3) 0.3222(6)
C5 C 0.2065(3) 0.2464(3) 0.2659(5)
C6 C 0.2095(3) 0.2999(3) 0.2426(5)
H2 H 0.235072 0.310878 0.206276
C7 C 0.1736(3) 0.3370(3) 0.2745(5)
H3 H 0.174543 0.372918 0.258113
C8 C 0.1637(6) 0.1724(5) 0.3531(9)
H4 H 0.168168 0.172498 0.408139
H5 H 0.191234 0.149931 0.330126
H6 H 0.128519 0.158279 0.340276
O7 O -0.000000 0.2797(3) 0.500000
O8 O 0.34696(14) 0.06578(15) 0.0915(3)
O9 O 0.41131(15) 0.10869(18) 0.1562(3)
C9 C 0.3631(2) 0.1006(2) 0.1364(4)
C10 C 0.3219(2) 0.1370(2) 0.1705(3)
C11 C 0.2696(3) 0.1344(3) 0.1478(5)
H7 H 0.259448 0.108677 0.111219
C12 C 0.2307(3) 0.1690(4) 0.1778(6)
C13 C 0.2464(3) 0.2065(3) 0.2341(5)
C14 C 0.2999(3) 0.2095(3) 0.2574(5)
H8 H 0.310878 0.235072 0.293724
C15 C 0.3370(3) 0.1736(3) 0.2255(5)
H9 H 0.372918 0.174543 0.241887
C16 C 0.1724(5) 0.1637(6) 0.1469(9)
H10 H 0.172498 0.168168 0.091861
H11 H 0.149931 0.191234 0.169874
H12 H 0.158279 0.128519 0.159724
O10 O -0.000000 0.5526(3) 0.3930(5)
O14 O 0.06578(15) 0.65304(14) 0.4085(3)
O15 O 0.10869(18) 0.58869(15) 0.3438(3)
C17 C 0.1006(2) 0.6369(2) 0.3636(4)
C18 C 0.1370(2) 0.6781(2) 0.3295(3)
C19 C 0.1344(3) 0.7304(3) 0.3522(5)
H13 H 0.108677 0.740552 0.388781
C20 C 0.1690(4) 0.7693(3) 0.3222(6)
C21 C 0.2065(3) 0.7536(3) 0.2659(5)
C22 C 0.2095(3) 0.7001(3) 0.2426(5)
H14 H 0.235072 0.689122 0.206276
C23 C 0.1736(3) 0.6630(3) 0.2745(5)
H15 H 0.174543 0.627082 0.258113
C24 C 0.1637(6) 0.8276(5) 0.3531(9)
H16 H 0.168168 0.827502 0.408139
H17 H 0.191234 0.850069 0.330126
H18 H 0.128519 0.841721 0.340276
O16 O 0.34696(14) 0.93422(15) 0.0915(3)
O17 O 0.41131(15) 0.89131(18) 0.1562(3)
C25 C 0.3631(2) 0.8994(2) 0.1364(4)
C26 C 0.3219(2) 0.8630(2) 0.1705(3)
C27 C 0.2696(3) 0.8656(3) 0.1478(5)
H19 H 0.259448 0.891323 0.111219
C28 C 0.2307(3) 0.8310(4) 0.1778(6)
C29 C 0.2464(3) 0.7935(3) 0.2341(5)
C30 C 0.2999(3) 0.7905(3) 0.2574(5)
H20 H 0.310878 0.764928 0.293724
C31 C 0.3370(3) 0.8264(3) 0.2255(5)
H21 H 0.372918 0.825457 0.241887
C32 C 0.1724(5) 0.8363(6) 0.1469(9)
H22 H 0.172498 0.831832 0.091861
H23 H 0.149931 0.808766 0.169874
H24 H 0.158279 0.871481 0.159724
Th5 Th 0.07807(2) 0.500000 0.61118(2)
Th6 Th 0.500000 0.07807(2) 0.11118(2)
Th7 Th 0.500000 0.92193(2) 0.11118(2)
Th8 Th -0.000000 0.61310(2) 0.500000
Th10_3 Th 0.38690(2) 1.000000 0.000000
O18 O 0.000000 0.4474(3) 0.6070(5)
O20 O 0.0756(3) 0.5527(3) 0.500000
O22 O 0.06578(15) 0.34696(14) 0.5915(3)
Th10_4 Th 0.38690(2) 1.000000 1.000000
Th2_2 Th 1.000000 0.38690(2) 0.500000
O1_2 O 1.000000 0.4474(3) 0.3930(5)
O7_2 O 1.000000 0.2797(3) 0.500000
Th3 Th 0.92193(2) 0.500000 0.38882(2)
O10_2 O 1.000000 0.5526(3) 0.3930(5)
O11 O 0.9244(3) 0.5527(3) 0.500000
O12 O 0.8234(3) 0.500000 0.4094(6)
O13 O 0.9356(6) 0.500000 0.2491(5)
Th4 Th 0.92193(2) 0.500000 0.61118(2)
Th8_2 Th 1.000000 0.61310(2) 0.500000
O18_2 O 1.000000 0.4474(3) 0.6070(5)
O19 O 0.9244(3) 0.4473(3) 0.500000
O21 O 0.93422(15) 0.34696(14) 0.5915(3)
O23 O 0.93422(15) 0.34696(14) 0.4085(3)
O24 O 0.89131(18) 0.58869(15) 0.3438(3)
O25 O 0.89131(18) 0.41131(15) 0.3438(3)
O7_3 O 0.000000 0.7203(3) 0.500000
O18_3 O -0.000000 0.5526(3) 0.6070(5)
O21_2 O 0.06578(15) 0.65304(14) 0.5915(3)
Th9 Th 0.61310(2) 0.000000 0.000000
Th9_2 Th 0.61310(2) -0.000000 1.000000
O3_2 O 0.93422(15) 0.65304(14) 0.4085(3)
C1_2 C 0.8994(2) 0.6369(2) 0.3636(4)
C2_2 C 0.8630(2) 0.6781(2) 0.3295(3)
C3_2 C 0.8656(3) 0.7304(3) 0.3522(5)
H1_2 H 0.891323 0.740552 0.388781
C4_2 C 0.8310(4) 0.7693(3) 0.3222(6)
C5_2 C 0.7935(3) 0.7536(3) 0.2659(5)
C6_2 C 0.7905(3) 0.7001(3) 0.2426(5)
H2_2 H 0.764928 0.689122 0.206276
C7_2 C 0.8264(3) 0.6630(3) 0.2745(5)
H3_2 H 0.825457 0.627082 0.258113
C8_2 C 0.8363(6) 0.8276(5) 0.3531(9)
H4_2 H 0.831832 0.827502 0.408139
H5_2 H 0.808766 0.850069 0.330126
H6_2 H 0.871481 0.841721 0.340276
O7_4 O 1.000000 0.7203(3) 0.500000
O8_2 O 0.65304(14) 0.93422(15) 0.0915(3)
O9_2 O 0.58869(15) 0.89131(18) 0.1562(3)
C9_2 C 0.6369(2) 0.8994(2) 0.1364(4)
C10_2 C 0.6781(2) 0.8630(2) 0.1705(3)
C11_2 C 0.7304(3) 0.8656(3) 0.1478(5)
H7_2 H 0.740552 0.891323 0.111219
C12_2 C 0.7693(3) 0.8310(4) 0.1778(6)
C13_2 C 0.7536(3) 0.7935(3) 0.2341(5)
C14_2 C 0.7001(3) 0.7905(3) 0.2574(5)
H8_2 H 0.689122 0.764928 0.293724
C15_2 C 0.6630(3) 0.8264(3) 0.2255(5)
H9_2 H 0.627082 0.825457 0.241887
C16_2 C 0.8276(5) 0.8363(6) 0.1469(9)
H10_2 H 0.827502 0.831832 0.091861
H11_2 H 0.850069 0.808766 0.169874
H12_2 H 0.841721 0.871481 0.159724
C17_2 C 0.8994(2) 0.3631(2) 0.3636(4)
C18_2 C 0.8630(2) 0.3219(2) 0.3295(3)
C19_2 C 0.8656(3) 0.2696(3) 0.3522(5)
H13_2 H 0.891323 0.259448 0.388781
C20_2 C 0.8310(4) 0.2307(3) 0.3222(6)
C21_2 C 0.7935(3) 0.2464(3) 0.2659(5)
C22_2 C 0.7905(3) 0.2999(3) 0.2426(5)
H14_2 H 0.764928 0.310878 0.206276
C23_2 C 0.8264(3) 0.3370(3) 0.2745(5)
H15_2 H 0.825457 0.372918 0.258113
C24_2 C 0.8363(6) 0.1724(5) 0.3531(9)
H16_2 H 0.831832 0.172498 0.408139
H17_2 H 0.808766 0.149931 0.330126
H18_2 H 0.871481 0.158279 0.340276
O16_2 O 0.65304(14) 0.06578(15) 0.0915(3)
O17_2 O 0.58869(15) 0.10869(18) 0.1562(3)
C25_2 C 0.6369(2) 0.1006(2) 0.1364(4)
C26_2 C 0.6781(2) 0.1370(2) 0.1705(3)
C27_2 C 0.7304(3) 0.1344(3) 0.1478(5)
H19_2 H 0.740552 0.108677 0.111219
C28_2 C 0.7693(3) 0.1690(4) 0.1778(6)
C29_2 C 0.7536(3) 0.2065(3) 0.2341(5)
C30_2 C 0.7001(3) 0.2095(3) 0.2574(5)
H20_2 H 0.689122 0.235072 0.293724
C31_2 C 0.6630(3) 0.1736(3) 0.2255(5)
H21_2 H 0.627082 0.174543 0.241887
C32_2 C 0.8276(5) 0.1637(6) 0.1469(9)
H22_2 H 0.827502 0.168168 0.091861
H23_2 H 0.850069 0.191234 0.169874
H24_2 H 0.841721 0.128519 0.159724
Th9_3 Th 0.61310(2) 1.000000 0.000000
O18_4 O 1.000000 0.5526(3) 0.6070(5)
O22_2 O 0.93422(15) 0.65304(14) 0.5915(3)
Th9_4 Th 0.61310(2) 1.000000 1.000000
O2_2 O 0.5527(3) 0.0756(3) 0.000000
O7_5 O 0.7203(3) -0.000000 0.000000
O18_5 O 0.5526(3) 0.000000 0.1070(5)
O20_2 O 0.4473(3) 0.0756(3) 0.000000
H30 H 0.733605 4.6085e-18 0.0534873
Th1_2 Th 0.500000 0.07807(2) 0.88882(2)
O1_3 O 0.5526(3) -0.000000 0.8930(5)
O2_3 O 0.5527(3) 0.0756(3) 1.000000
O3_3 O 0.65304(14) 0.06578(15) 0.9085(3)
O4_2 O 0.58869(15) 0.10869(18) 0.8438(3)
O5_2 O 0.500000 0.1766(3) 0.9094(6)
O6_2 O 0.500000 0.0644(6) 0.7491(5)
C1_3 C 0.6369(2) 0.1006(2) 0.8636(4)
C2_3 C 0.6781(2) 0.1370(2) 0.8295(3)
C3_3 C 0.7304(3) 0.1344(3) 0.8522(5)
H1_3 H 0.740552 0.108677 0.888781
C4_3 C 0.7693(3) 0.1690(4) 0.8222(6)
C5_3 C 0.7536(3) 0.2065(3) 0.7659(5)
C6_3 C 0.7001(3) 0.2095(3) 0.7426(5)
H2_3 H 0.689122 0.235072 0.706276
C7_3 C 0.6630(3) 0.1736(3) 0.7745(5)
H3_3 H 0.627082 0.174543 0.758113
C8_3 C 0.8276(5) 0.1637(6) 0.8531(9)
H4_3 H 0.827502 0.168168 0.908139
H5_3 H 0.850069 0.191234 0.830126
H6_3 H 0.841721 0.128519 0.840276
O7_6 O 0.7203(3) -0.000000 1.000000
O9_3 O 0.89131(18) 0.41131(15) 0.6562(3)
C9_3 C 0.8994(2) 0.3631(2) 0.6364(4)
C10_3 C 0.8630(2) 0.3219(2) 0.6705(3)
C11_3 C 0.8656(3) 0.2696(3) 0.6478(5)
H7_3 H 0.891323 0.259448 0.611219
C12_3 C 0.8310(4) 0.2307(3) 0.6778(6)
C13_3 C 0.7935(3) 0.2464(3) 0.7341(5)
C14_3 C 0.7905(3) 0.2999(3) 0.7574(5)
H8_3 H 0.764928 0.310878 0.793724
C15_3 C 0.8264(3) 0.3370(3) 0.7255(5)
H9_3 H 0.825457 0.372918 0.741887
C16_3 C 0.8363(6) 0.1724(5) 0.6469(9)
H10_3 H 0.831832 0.172498 0.591861
H11_3 H 0.808766 0.149931 0.669874
H12_3 H 0.871481 0.158279 0.659724
O10_3 O 0.4474(3) -0.000000 0.8930(5)
O14_2 O 0.34696(14) 0.06578(15) 0.9085(3)
O15_2 O 0.41131(15) 0.10869(18) 0.8438(3)
C17_3 C 0.3631(2) 0.1006(2) 0.8636(4)
C18_3 C 0.3219(2) 0.1370(2) 0.8295(3)
C19_3 C 0.2696(3) 0.1344(3) 0.8522(5)
H13_3 H 0.259448 0.108677 0.888781
C20_3 C 0.2307(3) 0.1690(4) 0.8222(6)
C21_3 C 0.2464(3) 0.2065(3) 0.7659(5)
C22_3 C 0.2999(3) 0.2095(3) 0.7426(5)
H14_3 H 0.310878 0.235072 0.706276
C23_3 C 0.3370(3) 0.1736(3) 0.7745(5)
H15_3 H 0.372918 0.174543 0.758113
C24_3 C 0.1724(5) 0.1637(6) 0.8531(9)
H16_3 H 0.172498 0.168168 0.908139
H17_3 H 0.149931 0.191234 0.830126
H18_3 H 0.158279 0.128519 0.840276
O17_3 O 0.10869(18) 0.41131(15) 0.6562(3)
C25_3 C 0.1006(2) 0.3631(2) 0.6364(4)
C26_3 C 0.1370(2) 0.3219(2) 0.6705(3)
C27_3 C 0.1344(3) 0.2696(3) 0.6478(5)
H19_3 H 0.108677 0.259448 0.611219
C28_3 C 0.1690(4) 0.2307(3) 0.6778(6)
C29_3 C 0.2065(3) 0.2464(3) 0.7341(5)
C30_3 C 0.2095(3) 0.2999(3) 0.7574(5)
H20_3 H 0.235072 0.310878 0.793724
C31_3 C 0.1736(3) 0.3370(3) 0.7255(5)
H21_3 H 0.174543 0.372918 0.741887
C32_3 C 0.1637(6) 0.1724(5) 0.6469(9)
H22_3 H 0.168168 0.172498 0.591861
H23_3 H 0.191234 0.149931 0.669874
H24_3 H 0.128519 0.158279 0.659724
O20_3 O 0.4473(3) 0.0756(3) 1.000000
H29 H 0.733605 0.0325896 0.973256
O7_7 O 0.7203(3) 1.000000 0.000000
O11_2 O 0.4473(3) 0.9244(3) 0.000000
O18_6 O 0.5526(3) 1.000000 0.1070(5)
O19_2 O 0.5527(3) 0.9244(3) 0.000000
H30_2 H 0.733605 1 0.0534873
O1_4 O 0.5526(3) 1.000000 0.8930(5)
O7_8 O 0.7203(3) 1.000000 1.000000
Th3_2 Th 0.500000 0.92193(2) 0.88882(2)
O10_4 O 0.4474(3) 1.000000 0.8930(5)
O11_3 O 0.4473(3) 0.9244(3) 1.000000
O12_2 O 0.500000 0.8234(3) 0.9094(6)
O13_2 O 0.500000 0.9356(6) 0.7491(5)
O19_3 O 0.5527(3) 0.9244(3) 1.000000
O23_2 O 0.65304(14) 0.93422(15) 0.9085(3)
O24_2 O 0.41131(15) 0.89131(18) 0.8438(3)
O25_2 O 0.58869(15) 0.89131(18) 0.8438(3)
O7_9 O 0.2797(3) 0.000000 0.000000
O18_7 O 0.4474(3) 0.000000 0.1070(5)
H30_3 H 0.266395 -4.6085e-18 0.0534873
O7_10 O 0.2797(3) -0.000000 1.000000
O7_11 O 0.2797(3) 1.000000 0.000000
O18_8 O 0.4474(3) 1.000000 0.1070(5)
H30_4 H 0.266395 1 0.0534873
O3_4 O 0.34696(14) 0.93422(15) 0.9085(3)
C1_4 C 0.3631(2) 0.8994(2) 0.8636(4)
C2_4 C 0.3219(2) 0.8630(2) 0.8295(3)
C3_4 C 0.2696(3) 0.8656(3) 0.8522(5)
H1_4 H 0.259448 0.891323 0.888781
C4_4 C 0.2307(3) 0.8310(4) 0.8222(6)
C5_4 C 0.2464(3) 0.7935(3) 0.7659(5)
C6_4 C 0.2999(3) 0.7905(3) 0.7426(5)
H2_4 H 0.310878 0.764928 0.706276
C7_4 C 0.3370(3) 0.8264(3) 0.7745(5)
H3_4 H 0.372918 0.825457 0.758113
C8_4 C 0.1724(5) 0.8363(6) 0.8531(9)
H4_4 H 0.172498 0.831832 0.908139
H5_4 H 0.149931 0.808766 0.830126
H6_4 H 0.158279 0.871481 0.840276
O7_12 O 0.2797(3) 1.000000 1.000000
O9_4 O 0.10869(18) 0.58869(15) 0.6562(3)
C9_4 C 0.1006(2) 0.6369(2) 0.6364(4)
C10_4 C 0.1370(2) 0.6781(2) 0.6705(3)
C11_4 C 0.1344(3) 0.7304(3) 0.6478(5)
H7_4 H 0.108677 0.740552 0.611219
C12_4 C 0.1690(4) 0.7693(3) 0.6778(6)
C13_4 C 0.2065(3) 0.7536(3) 0.7341(5)
C14_4 C 0.2095(3) 0.7001(3) 0.7574(5)
H8_4 H 0.235072 0.689122 0.793724
C15_4 C 0.1736(3) 0.6630(3) 0.7255(5)
H9_4 H 0.174543 0.627082 0.741887
C16_4 C 0.1637(6) 0.8276(5) 0.6469(9)
H10_4 H 0.168168 0.827502 0.591861
H11_4 H 0.191234 0.850069 0.669874
H12_4 H 0.128519 0.841721 0.659724
C17_4 C 0.6369(2) 0.8994(2) 0.8636(4)
C18_4 C 0.6781(2) 0.8630(2) 0.8295(3)
C19_4 C 0.7304(3) 0.8656(3) 0.8522(5)
H13_4 H 0.740552 0.891323 0.888781
C20_4 C 0.7693(3) 0.8310(4) 0.8222(6)
C21_4 C 0.7536(3) 0.7935(3) 0.7659(5)
C22_4 C 0.7001(3) 0.7905(3) 0.7426(5)
H14_4 H 0.689122 0.764928 0.706276
C23_4 C 0.6630(3) 0.8264(3) 0.7745(5)
H15_4 H 0.627082 0.825457 0.758113
C24_4 C 0.8276(5) 0.8363(6) 0.8531(9)
H16_4 H 0.827502 0.831832 0.908139
H17_4 H 0.850069 0.808766 0.830126
H18_4 H 0.841721 0.871481 0.840276
O17_4 O 0.89131(18) 0.58869(15) 0.6562(3)
C25_4 C 0.8994(2) 0.6369(2) 0.6364(4)
C26_4 C 0.8630(2) 0.6781(2) 0.6705(3)
C27_4 C 0.8656(3) 0.7304(3) 0.6478(5)
H19_4 H 0.891323 0.740552 0.611219
C28_4 C 0.8310(4) 0.7693(3) 0.6778(6)
C29_4 C 0.7935(3) 0.7536(3) 0.7341(5)
C30_4 C 0.7905(3) 0.7001(3) 0.7574(5)
H20_4 H 0.764928 0.689122 0.793724
C31_4 C 0.8264(3) 0.6630(3) 0.7255(5)
H21_4 H 0.825457 0.627082 0.741887
C32_4 C 0.8363(6) 0.8276(5) 0.6469(9)
H22_4 H 0.831832 0.827502 0.591861
H23_4 H 0.808766 0.850069 0.669874
H24_4 H 0.871481 0.841721 0.659724
H29_2 H 0.266395 0.96741 0.973256
O12_3 O 0.1766(3) 0.500000 0.5906(6)
O13_3 O 0.0644(6) 0.500000 0.7509(5)
O5_3 O 0.8234(3) 0.500000 0.5906(6)
O6_3 O 0.9356(6) 0.500000 0.7509(5)
O5_4 O 0.500000 0.1766(3) 0.0906(6)
O6_4 O 0.500000 0.0644(6) 0.2509(5)
H29_3 H 0.266395 0.0325896 0.0267436
H30_5 H 0.266395 4.6085e-18 0.946513
O12_4 O 0.500000 0.8234(3) 0.0906(6)
O13_4 O 0.500000 0.9356(6) 0.2509(5)
H30_6 H 0.266395 1 0.946513
H30_7 H 0.733605 -4.6085e-18 0.946513
H29_4 H 0.733605 0.96741 0.0267436
H30_8 H 0.733605 1 0.946513
H29_5 H 0.266395 0.96741 0.0267436
H29_6 H 0.733605 0.0325896 0.0267436
H29_7 H 0.733605 0.96741 0.973256
H29_8 H 0.266395 0.0325896 0.973256
loop_
_geom_bond_atom_site_label_1
_geom_bond_atom_site_label_2
_geom_bond_site_symmetry_1
_geom_bond_site_symmetry_2
Th1 O1 1_555 1_555
Th2 O1 1_555 1_555
O2 Th1 1_555 1_555
O3 Th2 1_555 1_555
O4 Th1 1_555 1_555
O5 Th1 1_555 1_555
O6 Th1 1_555 1_555
C1 O3 1_555 1_555
C2 C1 1_555 1_555
C3 C2 1_555 1_555
H1 C3 1_555 1_555
C4 C3 1_555 1_555
C5 C4 1_555 1_555
C6 C5 1_555 1_555
H2 C6 1_555 1_555
C7 C2 1_555 1_555
H3 C7 1_555 1_555
C8 C4 1_555 1_555
H4 C8 1_555 1_555
H5 C8 1_555 1_555
H6 C8 1_555 1_555
O7 Th2 1_555 1_555
O8 C9 1_555 1_555
O9 C9 1_555 1_555
C9 C10 1_555 1_555
C10 C11 1_555 1_555
C11 H7 1_555 1_555
C12 C11 1_555 1_555
C13 C5 1_555 1_555
C14 C13 1_555 1_555
H8 C14 1_555 1_555
C15 C10 1_555 1_555
H9 C15 1_555 1_555
C16 C12 1_555 1_555
H10 C16 1_555 1_555
H11 C16 1_555 1_555
H12 C16 1_555 1_555
O10 Th1 1_555 1_555
O14 C17 1_555 1_555
O15 Th1 1_555 1_555
C17 O15 1_555 1_555
C18 C17 1_555 1_555
C19 C18 1_555 1_555
H13 C19 1_555 1_555
C20 C19 1_555 1_555
C21 C20 1_555 1_555
C22 C21 1_555 1_555
H14 C22 1_555 1_555
C23 C18 1_555 1_555
H15 C23 1_555 1_555
C24 C20 1_555 1_555
H16 C24 1_555 1_555
H17 C24 1_555 1_555
H18 C24 1_555 1_555
O16 C25 1_555 1_555
O17 C25 1_555 1_555
C25 C26 1_555 1_555
C26 C27 1_555 1_555
C27 H19 1_555 1_555
C28 C27 1_555 1_555
C29 C21 1_555 1_555
C30 C29 1_555 1_555
H20 C30 1_555 1_555
C31 C26 1_555 1_555
H21 C31 1_555 1_555
C32 C28 1_555 1_555
H22 C32 1_555 1_555
H23 C32 1_555 1_555
H24 C32 1_555 1_555
Th5 O2 1_555 1_555
Th6 O9 1_555 1_555
Th7 O17 1_555 1_555
Th8 O10 1_555 1_555
Th10 O8 1_555 1_555
Th10_3 O16 1_555 1_555
O18 Th2 1_555 1_555
O20 Th1 1_555 1_555
O22 Th2 1_555 1_555
Th2 O2 1_555 1_555
O4 C1 1_555 1_555
C6 C7 1_555 1_555
C12 C13 1_555 1_555
C14 C15 1_555 1_555
O14 Th8 1_555 1_555
C22 C23 1_555 1_555
C28 C29 1_555 1_555
C30 C31 1_555 1_555
Th5 O18 1_555 1_555
Th5 O20 1_555 1_555
Th8 O20 1_555 1_555
Th2_2 O1_2 1_555 1_555
O1_2 Th3 1_555 1_555
O7_2 Th2_2 1_555 1_555
Th3 O10_2 1_555 1_555
O11 Th3 1_555 1_555
O12 Th3 1_555 1_555
O13 Th3 1_555 1_555
Th4 O11 1_555 1_555
Th8_2 O10_2 1_555 1_555
O18_2 Th2_2 1_555 1_555
O19 Th2_2 1_555 1_555
O21 Th2_2 1_555 1_555
O23 Th2_2 1_555 1_555
O24 Th3 1_555 1_555
O25 Th3 1_555 1_555
Th3 O19 1_555 1_555
O11 Th8_2 1_555 1_555
Th4 O18_2 1_555 1_555
Th4 O19 1_555 1_555
O7_3 Th8 1_555 1_555
O18_3 Th8 1_555 1_555
O21_2 Th8 1_555 1_555
Th5 O18_3 1_555 1_555
O3_2 Th8_2 1_555 1_555
C1_2 O3_2 1_555 1_555
C2_2 C1_2 1_555 1_555
C3_2 C2_2 1_555 1_555
H1_2 C3_2 1_555 1_555
C4_2 C3_2 1_555 1_555
C5_2 C4_2 1_555 1_555
C6_2 C5_2 1_555 1_555
H2_2 C6_2 1_555 1_555
C7_2 C2_2 1_555 1_555
H3_2 C7_2 1_555 1_555
C8_2 C4_2 1_555 1_555
H4_2 C8_2 1_555 1_555
H5_2 C8_2 1_555 1_555
H6_2 C8_2 1_555 1_555
O7_4 Th8_2 1_555 1_555
O8_2 C9_2 1_555 1_555
O9_2 C9_2 1_555 1_555
C9_2 C10_2 1_555 1_555
C10_2 C11_2 1_555 1_555
C11_2 H7_2 1_555 1_555
C12_2 C11_2 1_555 1_555
C13_2 C5_2 1_555 1_555
C14_2 C13_2 1_555 1_555
H8_2 C14_2 1_555 1_555
C15_2 C10_2 1_555 1_555
H9_2 C15_2 1_555 1_555
C16_2 C12_2 1_555 1_555
H10_2 C16_2 1_555 1_555
H11_2 C16_2 1_555 1_555
H12_2 C16_2 1_555 1_555
O23 C17_2 1_555 1_555
C17_2 O25 1_555 1_555
C18_2 C17_2 1_555 1_555
C19_2 C18_2 1_555 1_555
H13_2 C19_2 1_555 1_555
C20_2 C19_2 1_555 1_555
C21_2 C20_2 1_555 1_555
C22_2 C21_2 1_555 1_555
H14_2 C22_2 1_555 1_555
C23_2 C18_2 1_555 1_555
H15_2 C23_2 1_555 1_555
C24_2 C20_2 1_555 1_555
H16_2 C24_2 1_555 1_555
H17_2 C24_2 1_555 1_555
H18_2 C24_2 1_555 1_555
O16_2 C25_2 1_555 1_555
O17_2 C25_2 1_555 1_555
C25_2 C26_2 1_555 1_555
C26_2 C27_2 1_555 1_555
C27_2 H19_2 1_555 1_555
C28_2 C27_2 1_555 1_555
C29_2 C21_2 1_555 1_555
C30_2 C29_2 1_555 1_555
H20_2 C30_2 1_555 1_555
C31_2 C26_2 1_555 1_555
H21_2 C31_2 1_555 1_555
C32_2 C28_2 1_555 1_555
H22_2 C32_2 1_555 1_555
H23_2 C32_2 1_555 1_555
H24_2 C32_2 1_555 1_555
Th7 O9_2 1_555 1_555
Th6 O17_2 1_555 1_555
Th9_3 O8_2 1_555 1_555
Th9 O16_2 1_555 1_555
O18_4 Th8_2 1_555 1_555
O22_2 Th8_2 1_555 1_555
O24 C1_2 1_555 1_555
C6_2 C7_2 1_555 1_555
C12_2 C13_2 1_555 1_555
C14_2 C15_2 1_555 1_555
C22_2 C23_2 1_555 1_555
C28_2 C29_2 1_555 1_555
C30_2 C31_2 1_555 1_555
Th4 O18_4 1_555 1_555
O7_5 Th9 1_555 1_555
Th6 O2_2 1_555 1_555
O18_5 Th9 1_555 1_555
Th9 O2_2 1_555 1_555
Th6 O18_5 1_555 1_555
Th6 O20_2 1_555 1_555
Th10 O20_2 1_555 1_555
O7_5 H30 1_555 1_555
Th1_2 O1_3 1_555 1_555
Th9_2 O1_3 1_555 1_555
O2_3 Th1_2 1_555 1_555
O3_3 Th9_2 1_555 1_555
O4_2 Th1_2 1_555 1_555
O5_2 Th1_2 1_555 1_555
O6_2 Th1_2 1_555 1_555
C1_3 O3_3 1_555 1_555
C2_3 C1_3 1_555 1_555
C3_3 C2_3 1_555 1_555
H1_3 C3_3 1_555 1_555
C4_3 C3_3 1_555 1_555
C5_3 C4_3 1_555 1_555
C6_3 C5_3 1_555 1_555
H2_3 C6_3 1_555 1_555
C7_3 C2_3 1_555 1_555
H3_3 C7_3 1_555 1_555
C8_3 C4_3 1_555 1_555
H4_3 C8_3 1_555 1_555
H5_3 C8_3 1_555 1_555
H6_3 C8_3 1_555 1_555
O7_6 Th9_2 1_555 1_555
O21 C9_3 1_555 1_555
O9_3 C9_3 1_555 1_555
C9_3 C10_3 1_555 1_555
C10_3 C11_3 1_555 1_555
C11_3 H7_3 1_555 1_555
C12_3 C11_3 1_555 1_555
C13_3 C5_3 1_555 1_555
C14_3 C13_3 1_555 1_555
H8_3 C14_3 1_555 1_555
C15_3 C10_3 1_555 1_555
H9_3 C15_3 1_555 1_555
C16_3 C12_3 1_555 1_555
H10_3 C16_3 1_555 1_555
H11_3 C16_3 1_555 1_555
H12_3 C16_3 1_555 1_555
O10_3 Th1_2 1_555 1_555
O14_2 C17_3 1_555 1_555
O15_2 Th1_2 1_555 1_555
C17_3 O15_2 1_555 1_555
C18_3 C17_3 1_555 1_555
C19_3 C18_3 1_555 1_555
H13_3 C19_3 1_555 1_555
C20_3 C19_3 1_555 1_555
C21_3 C20_3 1_555 1_555
C22_3 C21_3 1_555 1_555
H14_3 C22_3 1_555 1_555
C23_3 C18_3 1_555 1_555
H15_3 C23_3 1_555 1_555
C24_3 C20_3 1_555 1_555
H16_3 C24_3 1_555 1_555
H17_3 C24_3 1_555 1_555
H18_3 C24_3 1_555 1_555
O22 C25_3 1_555 1_555
O17_3 C25_3 1_555 1_555
C25_3 C26_3 1_555 1_555
C26_3 C27_3 1_555 1_555
C27_3 H19_3 1_555 1_555
C28_3 C27_3 1_555 1_555
C29_3 C21_3 1_555 1_555
C30_3 C29_3 1_555 1_555
H20_3 C30_3 1_555 1_555
C31_3 C26_3 1_555 1_555
H21_3 C31_3 1_555 1_555
C32_3 C28_3 1_555 1_555
H22_3 C32_3 1_555 1_555
H23_3 C32_3 1_555 1_555
H24_3 C32_3 1_555 1_555
Th4 O9_3 1_555 1_555
Th5 O17_3 1_555 1_555
Th10_2 O10_3 1_555 1_555
O20_3 Th1_2 1_555 1_555
Th9_2 O2_3 1_555 1_555
O4_2 C1_3 1_555 1_555
C6_3 C7_3 1_555 1_555
C12_3 C13_3 1_555 1_555
C14_3 C15_3 1_555 1_555
O14_2 Th10_2 1_555 1_555
C22_3 C23_3 1_555 1_555
C28_3 C29_3 1_555 1_555
C30_3 C31_3 1_555 1_555
Th10_2 O20_3 1_555 1_555
O7_6 H29 1_555 1_555
O7_7 Th9_3 1_555 1_555
Th7 O11_2 1_555 1_555
O18_6 Th9_3 1_555 1_555
O19_2 Th9_3 1_555 1_555
O11_2 Th10_3 1_555 1_555
Th7 O18_6 1_555 1_555
Th7 O19_2 1_555 1_555
O7_7 H30_2 1_555 1_555
Th9_4 O1_4 1_555 1_555
O1_4 Th3_2 1_555 1_555
O7_8 Th9_4 1_555 1_555
Th3_2 O10_4 1_555 1_555
O11_3 Th3_2 1_555 1_555
O12_2 Th3_2 1_555 1_555
O13_2 Th3_2 1_555 1_555
Th10_4 O10_4 1_555 1_555
O19_3 Th9_4 1_555 1_555
O23_2 Th9_4 1_555 1_555
O24_2 Th3_2 1_555 1_555
O25_2 Th3_2 1_555 1_555
Th3_2 O19_3 1_555 1_555
O11_3 Th10_4 1_555 1_555
O7_9 Th10 1_555 1_555
O18_7 Th10 1_555 1_555
Th6 O18_7 1_555 1_555
O7_9 H30_3 1_555 1_555
O7_10 Th10_2 1_555 1_555
O7_11 Th10_3 1_555 1_555
O18_8 Th10_3 1_555 1_555
Th7 O18_8 1_555 1_555
O7_11 H30_4 1_555 1_555
O3_4 Th10_4 1_555 1_555
C1_4 O3_4 1_555 1_555
C2_4 C1_4 1_555 1_555
C3_4 C2_4 1_555 1_555
H1_4 C3_4 1_555 1_555
C4_4 C3_4 1_555 1_555
C5_4 C4_4 1_555 1_555
C6_4 C5_4 1_555 1_555
H2_4 C6_4 1_555 1_555
C7_4 C2_4 1_555 1_555
H3_4 C7_4 1_555 1_555
C8_4 C4_4 1_555 1_555
H4_4 C8_4 1_555 1_555
H5_4 C8_4 1_555 1_555
H6_4 C8_4 1_555 1_555
O7_12 Th10_4 1_555 1_555
O21_2 C9_4 1_555 1_555
O9_4 C9_4 1_555 1_555
C9_4 C10_4 1_555 1_555
C10_4 C11_4 1_555 1_555
C11_4 H7_4 1_555 1_555
C12_4 C11_4 1_555 1_555
C13_4 C5_4 1_555 1_555
C14_4 C13_4 1_555 1_555
H8_4 C14_4 1_555 1_555
C15_4 C10_4 1_555 1_555
H9_4 C15_4 1_555 1_555
C16_4 C12_4 1_555 1_555
H10_4 C16_4 1_555 1_555
H11_4 C16_4 1_555 1_555
H12_4 C16_4 1_555 1_555
O23_2 C17_4 1_555 1_555
C17_4 O25_2 1_555 1_555
C18_4 C17_4 1_555 1_555
C19_4 C18_4 1_555 1_555
H13_4 C19_4 1_555 1_555
C20_4 C19_4 1_555 1_555
C21_4 C20_4 1_555 1_555
C22_4 C21_4 1_555 1_555
H14_4 C22_4 1_555 1_555
C23_4 C18_4 1_555 1_555
H15_4 C23_4 1_555 1_555
C24_4 C20_4 1_555 1_555
H16_4 C24_4 1_555 1_555
H17_4 C24_4 1_555 1_555
H18_4 C24_4 1_555 1_555
O22_2 C25_4 1_555 1_555
O17_4 C25_4 1_555 1_555
C25_4 C26_4 1_555 1_555
C26_4 C27_4 1_555 1_555
C27_4 H19_4 1_555 1_555
C28_4 C27_4 1_555 1_555
C29_4 C21_4 1_555 1_555
C30_4 C29_4 1_555 1_555
H20_4 C30_4 1_555 1_555
C31_4 C26_4 1_555 1_555
H21_4 C31_4 1_555 1_555
C32_4 C28_4 1_555 1_555
H22_4 C32_4 1_555 1_555
H23_4 C32_4 1_555 1_555
H24_4 C32_4 1_555 1_555
Th5 O9_4 1_555 1_555
Th4 O17_4 1_555 1_555
O24_2 C1_4 1_555 1_555
C6_4 C7_4 1_555 1_555
C12_4 C13_4 1_555 1_555
C14_4 C15_4 1_555 1_555
C22_4 C23_4 1_555 1_555
C28_4 C29_4 1_555 1_555
C30_4 C31_4 1_555 1_555
O7_12 H29_2 1_555 1_555
O12_3 Th5 1_555 1_555
O13_3 Th5 1_555 1_555
O5_3 Th4 1_555 1_555
O6_3 Th4 1_555 1_555
O5_4 Th6 1_555 1_555
O6_4 Th6 1_555 1_555
O7_9 H29_3 1_555 1_555
O7_10 H30_5 1_555 1_555
O12_4 Th7 1_555 1_555
O13_4 Th7 1_555 1_555
O7_12 H30_6 1_555 1_555
O7_6 H30_7 1_555 1_555
O7_7 H29_4 1_555 1_555
O7_8 H30_8 1_555 1_555
O7_11 H29_5 1_555 1_555
O7_5 H29_6 1_555 1_555
O7_8 H29_7 1_555 1_555
O7_10 H29_8 1_555 1_555

#END
