
###############################################################################
#
# This file contains modified crystal structure data generated from the
# MOF subset of the Cambridge Structural Database (CSD) v543 
# hosted by the Cambridge Crystallographic Data Centre (CCDC).
#
# This work is licensed under the Creative Commons
# Attribution-NonCommercial-ShareAlike 4.0 International License.
# To view a copy of this license, visit
# http://creativecommons.org/licenses/by-nc-sa/4.0/
# or send a letter to
# Creative Commons, PO Box 1866, Mountain View, CA 94042, USA.
#
# CIF created using the CSD Python API on 29 September 2022
# The structure has been converted into the P1 space group
# The structure has a 3D framework
# The original CSD entry GESDUF is in the monoclinic crystal system
# The framework has been calculated to contain at least 10.0% void space
# The void calculation uses a probe of radius 1.32A, grid spacing 0.4
#
###############################################################################

data_GESDUF
_chemical_formula_moiety         '(C128 H112 Co11 O43)n'
_symmetry_cell_setting           triclinic
_symmetry_space_group_name_H-M   'P 1'
_symmetry_Int_Tables_number      1
_space_group_name_Hall           'P 1'
loop_
_symmetry_equiv_pos_site_id
_symmetry_equiv_pos_as_xyz
1 x,y,z
_cell_length_a                   36.419(7)
_cell_length_b                   13.1869(19)
_cell_length_c                   8.1455(19)
_cell_angle_alpha                90
_cell_angle_beta                 100.045(4)
_cell_angle_gamma                90
_cell_volume                     3851.94
loop_
_atom_site_label
_atom_site_type_symbol
_atom_site_fract_x
_atom_site_fract_y
_atom_site_fract_z
Co1 Co -0.0000 0.0000 0.0000
O1 O 0.0000 0.0666(2) 0.2500
Co3 Co 0.0000 0.0000 0.5000
O12 O 0.31833(7) 0.08205(18) 0.6090(3)
O13 O 0.25554(6) 0.12908(16) 0.4352(3)
C27 C 0.29545(9) 0.0018(2) 0.5610(4)
C28 C 0.35186(12) 0.0620(3) 0.7185(6)
H22 H 0.3469 0.0206 0.8089
H23 H 0.3687 0.0271 0.6595
H24 H 0.3629 0.1248 0.7617
C29 C 0.26025(9) 0.0289(2) 0.4646(4)
C30 C 0.22026(9) 0.1600(2) 0.3460(4)
H25 H 0.2012 0.1424 0.4086
H26 H 0.2203 0.2321 0.3294
H27 H 0.2155 0.1265 0.2398
Co1_2 Co 0.0000 0.0000 1.0000
O8 O 0.03099(6) 0.11465(18) 0.9202(2)
H15 H 0.0498 0.1379 0.9956
H16 H 0.0372 0.1117 0.8298
Co2 Co 0.5000 0.5000 0.0000
O11 O 0.43788(6) 0.6499(2) 0.1127(3)
H17 H 0.3753 0.7316 0.0450
Co1_3 Co -0.0000 1.0000 0.0000
O3 O 0.04758(5) 0.92713(17) 0.1076(2)
O5 O 0.18167(7) 0.41795(18) 0.3910(3)
O6 O 0.24446(6) 0.37092(16) 0.5648(3)
C1 C 0.06994(7) 0.8784(2) 0.0339(3)
C2 C 0.10753(7) 0.8541(2) 0.1308(3)
C3 C 0.13177(7) 0.7932(2) 0.0627(3)
C4 C 0.16616(7) 0.7689(2) 0.1515(3)
H4 H 0.1820 0.7276 0.1032
C5 C 0.17758(7) 0.8047(2) 0.3108(3)
C6 C 0.15344(8) 0.8673(3) 0.3790(4)
H5 H 0.1607 0.8927 0.4863
C7 C 0.11900(8) 0.8920(3) 0.2899(4)
H6 H 0.1033 0.9346 0.3369
C8 C 0.21477(7) 0.7767(2) 0.4070(3)
C9 C 0.22256(7) 0.6755(2) 0.4516(3)
C10 C 0.19633(7) 0.5960(2) 0.4028(4)
H7 H 0.1728 0.6123 0.3441
C11 C 0.20455(9) 0.4982(2) 0.4390(4)
C12 C 0.14814(12) 0.4380(3) 0.2815(6)
H8 H 0.1531 0.4794 0.1911
H9 H 0.1313 0.4729 0.3405
H10 H 0.1371 0.3752 0.2383
C13 C 0.23975(9) 0.4711(2) 0.5354(4)
C14 C 0.27974(9) 0.3400(2) 0.6540(4)
H11 H 0.2988 0.3576 0.5914
H12 H 0.2797 0.2679 0.6706
H13 H 0.2845 0.3735 0.7602
C15 C 0.26474(7) 0.5440(2) 0.5889(3)
H14 H 0.2871 0.5260 0.6560
C16 C 0.25809(7) 0.6485(2) 0.5460(3)
Co2_2 Co 0.5000 0.5000 1.0000
Co3_2 Co 0.0000 1.0000 0.5000
O9 O 0.45242(5) 0.57287(17) 0.8924(2)
C17 C 0.43006(7) 0.6216(2) 0.9661(3)
C18 C 0.39247(7) 0.6459(2) 0.8692(3)
C19 C 0.36823(7) 0.7068(2) 0.9373(3)
C20 C 0.33384(7) 0.7311(2) 0.8485(3)
H18 H 0.3180 0.7724 0.8968
C21 C 0.32242(7) 0.6953(2) 0.6892(3)
C22 C 0.34656(8) 0.6327(3) 0.6210(4)
H19 H 0.3393 0.6073 0.5137
C23 C 0.38100(8) 0.6080(3) 0.7101(4)
H20 H 0.3967 0.5654 0.6631
C24 C 0.28523(7) 0.7233(2) 0.5930(3)
C25 C 0.27744(7) 0.8245(2) 0.5484(3)
C26 C 0.30367(7) 0.9040(2) 0.5972(4)
H21 H 0.3272 0.8877 0.6559
C31 C 0.23526(7) 0.9560(2) 0.4111(3)
H28 H 0.2129 0.9740 0.3440
C32 C 0.24191(7) 0.8515(2) 0.4540(3)
Co1_4 Co 0.0000 1.0000 1.0000
O4 O 0.06212(6) 0.8501(2) 0.8873(3)
H3 H 0.1247 0.7684 0.9550
O7 O 0.0000 0.9334(2) 0.7500
Co1_5 Co 1.0000 0.0000 0.0000
O1_2 O 1.0000 0.0666(2) 0.2500
Co3_3 Co 1.0000 0.0000 0.5000
Co1_6 Co 1.0000 0.0000 1.0000
O10 O 0.95242(5) 0.07287(17) 0.8924(2)
Co1_7 Co 1.0000 1.0000 0.0000
O2 O 0.96901(6) 0.88535(18) 0.0798(2)
H1 H 0.9502 0.8621 0.0044
H2 H 0.9628 0.8883 0.1702
Co3_4 Co 1.0000 1.0000 0.5000
Co1_8 Co 1.0000 1.0000 1.0000
O7_2 O 1.0000 0.9334(2) 0.7500
O10_2 O 0.04758(5) 0.07287(17) 0.6076(2)
O2_2 O 0.03099(6) 0.88535(18) 0.4202(2)
H1_2 H 0.0498 0.8621 0.4956
H2_2 H 0.0372 0.8883 0.3298
O8_2 O 0.96901(6) 0.11465(18) 0.5798(2)
H15_2 H 0.9502 0.1379 0.5044
H16_2 H 0.9628 0.1117 0.6702
O13_2 O 0.74446(6) 0.12908(16) 0.0648(3)
C29_2 C 0.73975(9) 0.0289(2) 0.0354(4)
C30_2 C 0.77974(9) 0.1600(2) 0.1540(4)
H25_2 H 0.7988 0.1424 0.0914
H26_2 H 0.7797 0.2321 0.1706
H27_2 H 0.7845 0.1265 0.2602
O12_2 O 0.68167(7) 0.08205(18) 0.8910(3)
C27_2 C 0.70455(9) 0.0018(2) 0.9390(4)
C28_2 C 0.64814(12) 0.0620(3) 0.7815(6)
H22_2 H 0.6531 0.0206 0.6911
H23_2 H 0.6313 0.0271 0.8405
H24_2 H 0.6371 0.1248 0.7383
O3_2 O 0.95242(5) 0.92713(17) 0.3924(2)
O4_2 O 0.93788(6) 0.8501(2) 0.6127(3)
O5_2 O 0.81833(7) 0.41795(18) 0.1090(3)
C1_2 C 0.93006(7) 0.8784(2) 0.4661(3)
C2_2 C 0.89247(7) 0.8541(2) 0.3692(3)
C3_2 C 0.86823(7) 0.7932(2) 0.4373(3)
H3_2 H 0.8753 0.7684 0.5450
C4_2 C 0.83384(7) 0.7689(2) 0.3485(3)
H4_2 H 0.8180 0.7276 0.3968
C5_2 C 0.82242(7) 0.8047(2) 0.1892(3)
C6_2 C 0.84656(8) 0.8673(3) 0.1210(4)
H5_2 H 0.8393 0.8927 0.0137
C7_2 C 0.88100(8) 0.8920(3) 0.2101(4)
H6_2 H 0.8967 0.9346 0.1631
C8_2 C 0.78523(7) 0.7767(2) 0.0930(3)
C9_2 C 0.77744(7) 0.6755(2) 0.0484(3)
C10_2 C 0.80367(7) 0.5960(2) 0.0972(4)
H7_2 H 0.8272 0.6123 0.1559
C11_2 C 0.79545(9) 0.4982(2) 0.0610(4)
C12_2 C 0.85186(12) 0.4380(3) 0.2185(6)
H8_2 H 0.8469 0.4794 0.3089
H9_2 H 0.8687 0.4729 0.1595
H10_2 H 0.8629 0.3752 0.2617
C31_2 C 0.76474(7) 0.9560(2) 0.0889(3)
H28_2 H 0.7871 0.9740 0.1560
C32_2 C 0.75809(7) 0.8515(2) 0.0460(3)
O6_2 O 0.75554(6) 0.37092(16) 0.9352(3)
C13_2 C 0.76025(9) 0.4711(2) 0.9646(4)
C14_2 C 0.72026(9) 0.3400(2) 0.8460(4)
H11_2 H 0.7012 0.3576 0.9086
H12_2 H 0.7203 0.2679 0.8294
H13_2 H 0.7155 0.3735 0.7398
C15_2 C 0.73526(7) 0.5440(2) 0.9111(3)
H14_2 H 0.7129 0.5260 0.8440
C16_2 C 0.74191(7) 0.6485(2) 0.9540(3)
Co2_3 Co 0.5000 0.5000 0.5000
O9_2 O 0.54758(5) 0.57287(17) 0.6076(2)
O11_2 O 0.56212(6) 0.6499(2) 0.3873(3)
C17_2 C 0.56994(7) 0.6216(2) 0.5339(3)
C18_2 C 0.60753(7) 0.6459(2) 0.6308(3)
C19_2 C 0.63177(7) 0.7068(2) 0.5627(3)
H17_2 H 0.6247 0.7316 0.4550
C20_2 C 0.66616(7) 0.7311(2) 0.6515(3)
H18_2 H 0.6820 0.7724 0.6032
C21_2 C 0.67758(7) 0.6953(2) 0.8108(3)
C22_2 C 0.65344(8) 0.6327(3) 0.8790(4)
H19_2 H 0.6607 0.6073 0.9863
C23_2 C 0.61900(8) 0.6080(3) 0.7899(4)
H20_2 H 0.6033 0.5654 0.8369
C24_2 C 0.71477(7) 0.7233(2) 0.9070(3)
C25_2 C 0.72256(7) 0.8245(2) 0.9516(3)
C26_2 C 0.69633(7) 0.9040(2) 0.9028(4)
H21_2 H 0.6728 0.8877 0.8441
O11_3 O 0.93788(6) 0.1499(2) 0.1127(3)
H17_3 H 0.8753 0.2316 0.0450
O1_3 O 0.5000 0.5666(2) 0.2500
O2_3 O 0.46901(6) 0.38535(18) 0.0798(2)
H1_3 H 0.4502 0.3621 0.0044
H2_3 H 0.4628 0.3883 0.1702
O3_3 O 0.54758(5) 0.42713(17) 0.1076(2)
C1_3 C 0.56994(7) 0.3784(2) 0.0339(3)
C2_3 C 0.60753(7) 0.3541(2) 0.1308(3)
C3_3 C 0.63177(7) 0.2932(2) 0.0627(3)
C4_3 C 0.66616(7) 0.2689(2) 0.1515(3)
H4_3 H 0.6820 0.2276 0.1032
C5_3 C 0.67758(7) 0.3047(2) 0.3108(3)
C6_3 C 0.65344(8) 0.3673(3) 0.3790(4)
H5_3 H 0.6607 0.3927 0.4863
C7_3 C 0.61900(8) 0.3920(3) 0.2899(4)
H6_3 H 0.6033 0.4346 0.3369
C8_3 C 0.71477(7) 0.2767(2) 0.4070(3)
C9_3 C 0.72256(7) 0.1755(2) 0.4516(3)
C10_3 C 0.69633(7) 0.0960(2) 0.4028(4)
H7_3 H 0.6728 0.1123 0.3441
C15_3 C 0.76474(7) 0.0440(2) 0.5889(3)
H14_3 H 0.7871 0.0260 0.6560
C16_3 C 0.75809(7) 0.1485(2) 0.5460(3)
O12_3 O 0.81833(7) 0.58205(18) 0.6090(3)
O13_3 O 0.75554(6) 0.62908(16) 0.4352(3)
C17_3 C 0.93006(7) 0.1216(2) 0.9661(3)
C18_3 C 0.89247(7) 0.1459(2) 0.8692(3)
C19_3 C 0.86823(7) 0.2068(2) 0.9373(3)
C20_3 C 0.83384(7) 0.2311(2) 0.8485(3)
H18_3 H 0.8180 0.2724 0.8968
C21_3 C 0.82242(7) 0.1953(2) 0.6892(3)
C22_3 C 0.84656(8) 0.1327(3) 0.6210(4)
H19_3 H 0.8393 0.1073 0.5137
C23_3 C 0.88100(8) 0.1080(3) 0.7101(4)
H20_3 H 0.8967 0.0654 0.6631
C24_3 C 0.78523(7) 0.2233(2) 0.5930(3)
C25_3 C 0.77744(7) 0.3245(2) 0.5484(3)
C26_3 C 0.80367(7) 0.4040(2) 0.5972(4)
H21_3 H 0.8272 0.3877 0.6559
C27_3 C 0.79545(9) 0.5018(2) 0.5610(4)
C28_3 C 0.85186(12) 0.5620(3) 0.7185(6)
H22_3 H 0.8469 0.5206 0.8089
H23_3 H 0.8687 0.5271 0.6595
H24_3 H 0.8629 0.6248 0.7617
C29_3 C 0.76025(9) 0.5289(2) 0.4646(4)
C30_3 C 0.72026(9) 0.6600(2) 0.3460(4)
H25_3 H 0.7012 0.6424 0.4086
H26_3 H 0.7203 0.7321 0.3294
H27_3 H 0.7155 0.6265 0.2398
C31_3 C 0.73526(7) 0.4560(2) 0.4111(3)
H28_3 H 0.7129 0.4740 0.3440
C32_3 C 0.74191(7) 0.3515(2) 0.4540(3)
O4_3 O 0.56212(6) 0.3501(2) 0.8873(3)
H3_3 H 0.6247 0.2684 0.9550
O7_3 O 0.5000 0.4334(2) 0.7500
O8_3 O 0.53099(6) 0.61465(18) 0.9202(2)
H15_3 H 0.5498 0.6379 0.9956
H16_3 H 0.5372 0.6117 0.8298
O5_3 O 0.68167(7) 0.91795(18) 0.3910(3)
O6_3 O 0.74446(6) 0.87092(16) 0.5648(3)
C11_3 C 0.70455(9) 0.9982(2) 0.4390(4)
C12_3 C 0.64814(12) 0.9380(3) 0.2815(6)
H8_3 H 0.6531 0.9794 0.1911
H9_3 H 0.6313 0.9729 0.3405
H10_3 H 0.6371 0.8752 0.2383
C13_3 C 0.73975(9) 0.9711(2) 0.5354(4)
C14_3 C 0.77974(9) 0.8400(2) 0.6540(4)
H11_3 H 0.7988 0.8576 0.5914
H12_3 H 0.7797 0.7679 0.6706
H13_3 H 0.7845 0.8735 0.7602
O2_4 O 0.53099(6) 0.38535(18) 0.4202(2)
H1_4 H 0.5498 0.3621 0.4956
H2_4 H 0.5372 0.3883 0.3298
O3_4 O 0.45242(5) 0.42713(17) 0.3924(2)
O4_4 O 0.43788(6) 0.3501(2) 0.6127(3)
C1_4 C 0.43006(7) 0.3784(2) 0.4661(3)
C2_4 C 0.39247(7) 0.3541(2) 0.3692(3)
C3_4 C 0.36823(7) 0.2932(2) 0.4373(3)
H3_4 H 0.3753 0.2684 0.5450
C4_4 C 0.33384(7) 0.2689(2) 0.3485(3)
H4_4 H 0.3180 0.2276 0.3968
C5_4 C 0.32242(7) 0.3047(2) 0.1892(3)
C6_4 C 0.34656(8) 0.3673(3) 0.1210(4)
H5_4 H 0.3393 0.3927 0.0137
C7_4 C 0.38100(8) 0.3920(3) 0.2101(4)
H6_4 H 0.3967 0.4346 0.1631
C8_4 C 0.28523(7) 0.2767(2) 0.0930(3)
C9_4 C 0.27744(7) 0.1755(2) 0.0484(3)
C10_4 C 0.30367(7) 0.0960(2) 0.0972(4)
H7_4 H 0.3272 0.1123 0.1559
O8_4 O 0.46901(6) 0.61465(18) 0.5798(2)
H15_4 H 0.4502 0.6379 0.5044
H16_4 H 0.4628 0.6117 0.6702
O13_4 O 0.24446(6) 0.62908(16) 0.0648(3)
C29_4 C 0.23975(9) 0.5289(2) 0.0354(4)
C30_4 C 0.27974(9) 0.6600(2) 0.1540(4)
H25_4 H 0.2988 0.6424 0.0914
H26_4 H 0.2797 0.7321 0.1706
H27_4 H 0.2845 0.6265 0.2602
C31_4 C 0.26474(7) 0.4560(2) 0.0889(3)
H28_4 H 0.2871 0.4740 0.1560
C32_4 C 0.25809(7) 0.3515(2) 0.0460(3)
C15_4 C 0.23526(7) 0.0440(2) 0.9111(3)
H14_4 H 0.2129 0.0260 0.8440
C16_4 C 0.24191(7) 0.1485(2) 0.9540(3)
O11_4 O 0.06212(6) 0.1499(2) 0.3873(3)
O12_4 O 0.18167(7) 0.58205(18) 0.8910(3)
C17_4 C 0.06994(7) 0.1216(2) 0.5339(3)
C18_4 C 0.10753(7) 0.1459(2) 0.6308(3)
C19_4 C 0.13177(7) 0.2068(2) 0.5627(3)
H17_4 H 0.1247 0.2316 0.4550
C20_4 C 0.16616(7) 0.2311(2) 0.6515(3)
H18_4 H 0.1820 0.2724 0.6032
C21_4 C 0.17758(7) 0.1953(2) 0.8108(3)
C22_4 C 0.15344(8) 0.1327(3) 0.8790(4)
H19_4 H 0.1607 0.1073 0.9863
C23_4 C 0.11900(8) 0.1080(3) 0.7899(4)
H20_4 H 0.1033 0.0654 0.8369
C24_4 C 0.21477(7) 0.2233(2) 0.9070(3)
C25_4 C 0.22256(7) 0.3245(2) 0.9516(3)
C26_4 C 0.19633(7) 0.4040(2) 0.9028(4)
H21_4 H 0.1728 0.3877 0.8441
C27_4 C 0.20455(9) 0.5018(2) 0.9390(4)
C28_4 C 0.14814(12) 0.5620(3) 0.7815(6)
H22_4 H 0.1531 0.5206 0.6911
H23_4 H 0.1313 0.5271 0.8405
H24_4 H 0.1371 0.6248 0.7383
O5_4 O 0.31833(7) 0.91795(18) 0.1090(3)
C11_4 C 0.29545(9) 0.9982(2) 0.0610(4)
C12_4 C 0.35186(12) 0.9380(3) 0.2185(6)
H8_4 H 0.3469 0.9794 0.3089
H9_4 H 0.3687 0.9729 0.1595
H10_4 H 0.3629 0.8752 0.2617
O6_4 O 0.25554(6) 0.87092(16) 0.9352(3)
C13_4 C 0.26025(9) 0.9711(2) 0.9646(4)
C14_4 C 0.22026(9) 0.8400(2) 0.8460(4)
H11_4 H 0.2012 0.8576 0.9086
H12_4 H 0.2203 0.7679 0.8294
H13_4 H 0.2155 0.8735 0.7398
loop_
_geom_bond_atom_site_label_1
_geom_bond_atom_site_label_2
_geom_bond_site_symmetry_1
_geom_bond_site_symmetry_2
Co1 O1 1_555 1_555
O1 Co3 1_555 1_555
O12 C27 1_555 1_555
O13 C29 1_555 1_555
C28 O12 1_555 1_555
H22 C28 1_555 1_555
H23 C28 1_555 1_555
H24 C28 1_555 1_555
C29 C27 1_555 1_555
C30 O13 1_555 1_555
H25 C30 1_555 1_555
H26 C30 1_555 1_555
H27 C30 1_555 1_555
O8 Co1_2 1_555 1_555
H15 O8 1_555 1_555
H16 O8 1_555 1_555
O3 Co1_3 1_555 1_555
O5 C11 1_555 1_555
O6 C13 1_555 1_555
C1 O3 1_555 1_555
C2 C1 1_555 1_555
C3 C2 1_555 1_555
C4 C3 1_555 1_555
H4 C4 1_555 1_555
C5 C4 1_555 1_555
C6 C5 1_555 1_555
H5 C6 1_555 1_555
C7 C2 1_555 1_555
H6 C7 1_555 1_555
C8 C5 1_555 1_555
C9 C8 1_555 1_555
C10 C9 1_555 1_555
H7 C10 1_555 1_555
C11 C10 1_555 1_555
C12 O5 1_555 1_555
H8 C12 1_555 1_555
H9 C12 1_555 1_555
H10 C12 1_555 1_555
C13 C11 1_555 1_555
C14 O6 1_555 1_555
H11 C14 1_555 1_555
H12 C14 1_555 1_555
H13 C14 1_555 1_555
C15 C13 1_555 1_555
H14 C15 1_555 1_555
C16 C9 1_555 1_555
Co2_2 O9 1_555 1_555
O9 C17 1_555 1_555
C17 C18 1_555 1_555
C18 C19 1_555 1_555
C20 C19 1_555 1_555
H18 C20 1_555 1_555
C21 C20 1_555 1_555
C22 C21 1_555 1_555
H19 C22 1_555 1_555
C23 C18 1_555 1_555
H20 C23 1_555 1_555
C24 C16 1_555 1_555
C25 C24 1_555 1_555
C26 C25 1_555 1_555
H21 C26 1_555 1_555
H28 C31 1_555 1_555
C32 C8 1_555 1_555
C6 C7 1_555 1_555
C15 C16 1_555 1_555
C21 C24 1_555 1_555
C22 C23 1_555 1_555
C25 C32 1_555 1_555
C31 C32 1_555 1_555
O7 Co1_4 1_555 1_555
Co1_5 O1_2 1_555 1_555
O1_2 Co3_3 1_555 1_555
O10 Co1_6 1_555 1_555
O2 Co1_7 1_555 1_555
H1 O2 1_555 1_555
H2 O2 1_555 1_555
O7_2 Co1_8 1_555 1_555
O10_2 Co3 1_555 1_555
O2_2 Co3_2 1_555 1_555
H1_2 O2_2 1_555 1_555
H2_2 O2_2 1_555 1_555
O7 Co3_2 1_555 1_555
O8_2 Co3_3 1_555 1_555
H15_2 O8_2 1_555 1_555
H16_2 O8_2 1_555 1_555
O13_2 C29_2 1_555 1_555
C30_2 O13_2 1_555 1_555
H25_2 C30_2 1_555 1_555
H26_2 C30_2 1_555 1_555
H27_2 C30_2 1_555 1_555
O12_2 C27_2 1_555 1_555
C28_2 O12_2 1_555 1_555
H22_2 C28_2 1_555 1_555
H23_2 C28_2 1_555 1_555
H24_2 C28_2 1_555 1_555
O3_2 Co3_4 1_555 1_555
O4_2 C1_2 1_555 1_555
O5_2 C11_2 1_555 1_555
C1_2 O3_2 1_555 1_555
C2_2 C1_2 1_555 1_555
C3_2 C2_2 1_555 1_555
H3_2 C3_2 1_555 1_555
C4_2 C3_2 1_555 1_555
H4_2 C4_2 1_555 1_555
C5_2 C4_2 1_555 1_555
C6_2 C5_2 1_555 1_555
H5_2 C6_2 1_555 1_555
C7_2 C2_2 1_555 1_555
H6_2 C7_2 1_555 1_555
C8_2 C5_2 1_555 1_555
C9_2 C8_2 1_555 1_555
C10_2 C9_2 1_555 1_555
H7_2 C10_2 1_555 1_555
C11_2 C10_2 1_555 1_555
C12_2 O5_2 1_555 1_555
H8_2 C12_2 1_555 1_555
H9_2 C12_2 1_555 1_555
H10_2 C12_2 1_555 1_555
O7_2 Co3_4 1_555 1_555
H28_2 C31_2 1_555 1_555
C32_2 C8_2 1_555 1_555
C6_2 C7_2 1_555 1_555
C31_2 C32_2 1_555 1_555
O6_2 C13_2 1_555 1_555
C14_2 O6_2 1_555 1_555
H11_2 C14_2 1_555 1_555
H12_2 C14_2 1_555 1_555
H13_2 C14_2 1_555 1_555
C15_2 C13_2 1_555 1_555
H14_2 C15_2 1_555 1_555
Co2_3 O9_2 1_555 1_555
O9_2 C17_2 1_555 1_555
O11_2 C17_2 1_555 1_555
C17_2 C18_2 1_555 1_555
C18_2 C19_2 1_555 1_555
C19_2 H17_2 1_555 1_555
C20_2 C19_2 1_555 1_555
H18_2 C20_2 1_555 1_555
C21_2 C20_2 1_555 1_555
C22_2 C21_2 1_555 1_555
H19_2 C22_2 1_555 1_555
C23_2 C18_2 1_555 1_555
H20_2 C23_2 1_555 1_555
C24_2 C16_2 1_555 1_555
C25_2 C24_2 1_555 1_555
C26_2 C25_2 1_555 1_555
H21_2 C26_2 1_555 1_555
C15_2 C16_2 1_555 1_555
C21_2 C24_2 1_555 1_555
C22_2 C23_2 1_555 1_555
Co2 O1_3 1_555 1_555
O1_3 Co2_3 1_555 1_555
O2_3 Co2 1_555 1_555
H1_3 O2_3 1_555 1_555
H2_3 O2_3 1_555 1_555
O3_3 Co2 1_555 1_555
C1_3 O3_3 1_555 1_555
C2_3 C1_3 1_555 1_555
C3_3 C2_3 1_555 1_555
C4_3 C3_3 1_555 1_555
H4_3 C4_3 1_555 1_555
C5_3 C4_3 1_555 1_555
C6_3 C5_3 1_555 1_555
H5_3 C6_3 1_555 1_555
C7_3 C2_3 1_555 1_555
H6_3 C7_3 1_555 1_555
C8_3 C5_3 1_555 1_555
C9_3 C8_3 1_555 1_555
C10_3 C9_3 1_555 1_555
H7_3 C10_3 1_555 1_555
H14_3 C15_3 1_555 1_555
C16_3 C9_3 1_555 1_555
O10 C17_3 1_555 1_555
O12_3 C27_3 1_555 1_555
O13_3 C29_3 1_555 1_555
C17_3 C18_3 1_555 1_555
C18_3 C19_3 1_555 1_555
C20_3 C19_3 1_555 1_555
H18_3 C20_3 1_555 1_555
C21_3 C20_3 1_555 1_555
C22_3 C21_3 1_555 1_555
H19_3 C22_3 1_555 1_555
C23_3 C18_3 1_555 1_555
H20_3 C23_3 1_555 1_555
C24_3 C16_3 1_555 1_555
C25_3 C24_3 1_555 1_555
C26_3 C25_3 1_555 1_555
H21_3 C26_3 1_555 1_555
C27_3 C26_3 1_555 1_555
C28_3 O12_3 1_555 1_555
H22_3 C28_3 1_555 1_555
H23_3 C28_3 1_555 1_555
H24_3 C28_3 1_555 1_555
C29_3 C27_3 1_555 1_555
C30_3 O13_3 1_555 1_555
H25_3 C30_3 1_555 1_555
H26_3 C30_3 1_555 1_555
H27_3 C30_3 1_555 1_555
C31_3 C29_3 1_555 1_555
H28_3 C31_3 1_555 1_555
C32_3 C8_3 1_555 1_555
C6_3 C7_3 1_555 1_555
C15_3 C16_3 1_555 1_555
C21_3 C24_3 1_555 1_555
C22_3 C23_3 1_555 1_555
C25_3 C32_3 1_555 1_555
C31_3 C32_3 1_555 1_555
O7_3 Co2_2 1_555 1_555
O8_3 Co2_2 1_555 1_555
H15_3 O8_3 1_555 1_555
H16_3 O8_3 1_555 1_555
O5_3 C11_3 1_555 1_555
O6_3 C13_3 1_555 1_555
C12_3 O5_3 1_555 1_555
H8_3 C12_3 1_555 1_555
H9_3 C12_3 1_555 1_555
H10_3 C12_3 1_555 1_555
C13_3 C11_3 1_555 1_555
C14_3 O6_3 1_555 1_555
H11_3 C14_3 1_555 1_555
H12_3 C14_3 1_555 1_555
H13_3 C14_3 1_555 1_555
O2_4 Co2_3 1_555 1_555
H1_4 O2_4 1_555 1_555
H2_4 O2_4 1_555 1_555
O3_4 Co2_3 1_555 1_555
O4_4 C1_4 1_555 1_555
C1_4 O3_4 1_555 1_555
C2_4 C1_4 1_555 1_555
C3_4 C2_4 1_555 1_555
H3_4 C3_4 1_555 1_555
C4_4 C3_4 1_555 1_555
H4_4 C4_4 1_555 1_555
C5_4 C4_4 1_555 1_555
C6_4 C5_4 1_555 1_555
H5_4 C6_4 1_555 1_555
C7_4 C2_4 1_555 1_555
H6_4 C7_4 1_555 1_555
C8_4 C5_4 1_555 1_555
C9_4 C8_4 1_555 1_555
C10_4 C9_4 1_555 1_555
H7_4 C10_4 1_555 1_555
O7_3 Co2_3 1_555 1_555
O8_4 Co2_3 1_555 1_555
H15_4 O8_4 1_555 1_555
H16_4 O8_4 1_555 1_555
O13_4 C29_4 1_555 1_555
C30_4 O13_4 1_555 1_555
H25_4 C30_4 1_555 1_555
H26_4 C30_4 1_555 1_555
H27_4 C30_4 1_555 1_555
C31_4 C29_4 1_555 1_555
H28_4 C31_4 1_555 1_555
C32_4 C8_4 1_555 1_555
C6_4 C7_4 1_555 1_555
C31_4 C32_4 1_555 1_555
H14_4 C15_4 1_555 1_555
O10_2 C17_4 1_555 1_555
O11_4 C17_4 1_555 1_555
O12_4 C27_4 1_555 1_555
C17_4 C18_4 1_555 1_555
C18_4 C19_4 1_555 1_555
C19_4 H17_4 1_555 1_555
C20_4 C19_4 1_555 1_555
H18_4 C20_4 1_555 1_555
C21_4 C20_4 1_555 1_555
C22_4 C21_4 1_555 1_555
H19_4 C22_4 1_555 1_555
C23_4 C18_4 1_555 1_555
H20_4 C23_4 1_555 1_555
C24_4 C16_4 1_555 1_555
C25_4 C24_4 1_555 1_555
C26_4 C25_4 1_555 1_555
H21_4 C26_4 1_555 1_555
C27_4 C26_4 1_555 1_555
C28_4 O12_4 1_555 1_555
H22_4 C28_4 1_555 1_555
H23_4 C28_4 1_555 1_555
H24_4 C28_4 1_555 1_555
C15_4 C16_4 1_555 1_555
C21_4 C24_4 1_555 1_555
C22_4 C23_4 1_555 1_555
O5_4 C11_4 1_555 1_555
C12_4 O5_4 1_555 1_555
H8_4 C12_4 1_555 1_555
H9_4 C12_4 1_555 1_555
H10_4 C12_4 1_555 1_555
O6_4 C13_4 1_555 1_555
C14_4 O6_4 1_555 1_555
H11_4 C14_4 1_555 1_555
H12_4 C14_4 1_555 1_555
H13_4 C14_4 1_555 1_555

#END
