
###############################################################################
#
# This file contains modified crystal structure data generated from the
# MOF subset of the Cambridge Structural Database (CSD) v543 
# hosted by the Cambridge Crystallographic Data Centre (CCDC).
#
# This work is licensed under the Creative Commons
# Attribution-NonCommercial-ShareAlike 4.0 International License.
# To view a copy of this license, visit
# http://creativecommons.org/licenses/by-nc-sa/4.0/
# or send a letter to
# Creative Commons, PO Box 1866, Mountain View, CA 94042, USA.
#
# CIF created using the CSD Python API on 29 September 2022
# The structure has been converted into the P1 space group
# The structure has a 3D framework
# The original CSD entry GESFAN is in the monoclinic crystal system
# The framework has been calculated to contain at least 10.0% void space
# The void calculation uses a probe of radius 1.32A, grid spacing 0.4
#
###############################################################################

data_GESFAN
_chemical_formula_moiety         '(C128 H112 Ni11 O43)n'
_symmetry_cell_setting           triclinic
_symmetry_space_group_name_H-M   'P 1'
_symmetry_Int_Tables_number      1
_space_group_name_Hall           'P 1'
loop_
_symmetry_equiv_pos_site_id
_symmetry_equiv_pos_as_xyz
1 x,y,z
_cell_length_a                   36.622(10)
_cell_length_b                   13.410(4)
_cell_length_c                   7.948(2)
_cell_angle_alpha                90
_cell_angle_beta                 99.958(5)
_cell_angle_gamma                90
_cell_volume                     3844.47
loop_
_atom_site_label
_atom_site_type_symbol
_atom_site_fract_x
_atom_site_fract_y
_atom_site_fract_z
Ni2 Ni 0.5000 0.5000 0.0000
O11 O 0.43862(6) 0.35314(19) 0.1193(3)
H17 H 0.3772 0.2674 0.0485
Ni1 Ni 0.0000 0.0000 0.0000
O3 O 0.04768(5) 0.06893(16) 0.1071(2)
C1 C 0.06951(7) 0.1189(2) 0.0308(3)
C2 C 0.10701(7) 0.1439(2) 0.1299(3)
C3 C 0.13043(7) 0.2066(2) 0.0604(3)
C4 C 0.16512(7) 0.2313(2) 0.1506(3)
H4 H 0.1804 0.2736 0.1014
C5 C 0.17725(6) 0.1936(2) 0.3133(3)
C6 C 0.15380(7) 0.1299(2) 0.3815(4)
H5 H 0.1615 0.1033 0.4900
C7 C 0.11901(7) 0.1048(2) 0.2914(4)
H6 H 0.1038 0.0618 0.3396
C8 C 0.19502(7) 0.3995(2) 0.4109(4)
H7 H 0.1714 0.3819 0.3556
C9 C 0.22202(7) 0.3230(2) 0.4558(3)
C10 C 0.21465(6) 0.2225(2) 0.4094(3)
C11 C 0.24230(7) 0.1496(2) 0.4530(3)
C12 C 0.23605(7) 0.0460(2) 0.4102(3)
H8 H 0.2136 0.0272 0.3444
C15 C 0.29750(8) 0.0039(2) 0.5541(4)
Ni2_2 Ni 0.5000 0.5000 1.0000
O7 O 0.24283(6) 0.62429(15) 0.5660(3)
O8 O 0.17889(6) 0.57441(17) 0.4018(3)
O9 O 0.45232(5) 0.43107(16) 0.8929(2)
C17 C 0.43049(7) 0.3811(2) 0.9692(3)
C18 C 0.39299(7) 0.3561(2) 0.8701(3)
C19 C 0.36957(7) 0.2934(2) 0.9396(3)
C20 C 0.33488(7) 0.2687(2) 0.8494(3)
H18 H 0.3196 0.2264 0.8986
C21 C 0.32275(6) 0.3064(2) 0.6867(3)
C22 C 0.34620(7) 0.3701(2) 0.6185(4)
H19 H 0.3385 0.3967 0.5100
C23 C 0.38099(7) 0.3952(2) 0.7086(4)
H20 H 0.3962 0.4382 0.6604
C24 C 0.30498(7) 0.1005(2) 0.5891(4)
H21 H 0.3286 0.1181 0.6444
C25 C 0.27798(7) 0.1770(2) 0.5442(3)
C26 C 0.28535(6) 0.2775(2) 0.5906(3)
C27 C 0.25770(7) 0.3504(2) 0.5470(3)
C28 C 0.26395(7) 0.4540(2) 0.5898(3)
H22 H 0.2864 0.4728 0.6556
C29 C 0.27873(9) 0.6571(2) 0.6455(4)
H23 H 0.2848 0.6280 0.7572
H24 H 0.2967 0.6370 0.5775
H25 H 0.2788 0.7285 0.6553
C30 C 0.23834(8) 0.5248(2) 0.5378(4)
C31 C 0.20250(8) 0.4961(2) 0.4459(4)
C32 C 0.14459(11) 0.5532(3) 0.2938(6)
H26 H 0.1291 0.5153 0.3561
H27 H 0.1324 0.6146 0.2557
H28 H 0.1491 0.5155 0.1968
Ni1_2 Ni 0.0000 0.0000 1.0000
O4 O 0.06138(6) 0.14686(19) 0.8807(3)
O6 O 0.0000 0.06255(19) 0.7500
H3 H 0.1228 0.2326 0.9515
Ni3 Ni 0.0000 0.0000 0.5000
Ni1_3 Ni 1.0000 1.0000 0.0000
O13 O 1.0000 0.93745(19) 0.2500
Ni1_4 Ni 1.0000 1.0000 1.0000
Ni3_2 Ni 1.0000 1.0000 0.5000
O10 O 0.95232(5) 0.93107(16) 0.8929(2)
O5 O 0.03037(5) 0.11549(16) 0.4263(2)
H1 H 0.0160 0.1645 0.3970
H2 H 0.0413 0.0981 0.3389
C15_2 C 0.70250(8) 0.0039(2) 0.9459(4)
Ni2_3 Ni 0.5000 0.5000 0.5000
O7_2 O 0.75717(6) 0.62429(15) 0.9340(3)
O9_2 O 0.54768(5) 0.43107(16) 0.6071(2)
O11_2 O 0.56138(6) 0.35314(19) 0.3807(3)
C17_2 C 0.56951(7) 0.3811(2) 0.5308(3)
C18_2 C 0.60701(7) 0.3561(2) 0.6299(3)
C19_2 C 0.63043(7) 0.2934(2) 0.5604(3)
H17_2 H 0.6228 0.2674 0.4515
C20_2 C 0.66512(7) 0.2687(2) 0.6506(3)
H18_2 H 0.6804 0.2264 0.6014
C21_2 C 0.67725(6) 0.3064(2) 0.8133(3)
C22_2 C 0.65380(7) 0.3701(2) 0.8815(4)
H19_2 H 0.6615 0.3967 0.9900
C23_2 C 0.61901(7) 0.3952(2) 0.7914(4)
H20_2 H 0.6038 0.4382 0.8396
C24_2 C 0.69502(7) 0.1005(2) 0.9109(4)
H21_2 H 0.6714 0.1181 0.8556
C25_2 C 0.72202(7) 0.1770(2) 0.9558(3)
C26_2 C 0.71465(6) 0.2775(2) 0.9094(3)
C27_2 C 0.74230(7) 0.3504(2) 0.9530(3)
C28_2 C 0.73605(7) 0.4540(2) 0.9102(3)
H22_2 H 0.7136 0.4728 0.8444
C29_2 C 0.72127(9) 0.6571(2) 0.8545(4)
H23_2 H 0.7152 0.6280 0.7428
H24_2 H 0.7033 0.6370 0.9225
H25_2 H 0.7212 0.7285 0.8447
C30_2 C 0.76166(8) 0.5248(2) 0.9622(4)
O1 O 0.74283(6) 0.87571(15) 0.0660(3)
C13 C 0.77873(9) 0.8429(2) 0.1455(4)
H9 H 0.7848 0.8720 0.2572
H10 H 0.7967 0.8630 0.0775
H11 H 0.7788 0.7715 0.1553
C14 C 0.73834(8) 0.9752(2) 0.0378(4)
O12 O 0.96963(5) 0.88451(16) 0.5737(2)
H15 H 0.9840 0.8355 0.6030
H16 H 0.9587 0.9019 0.6611
O11_3 O 0.93862(6) 0.85314(19) 0.1193(3)
H17_3 H 0.8772 0.7674 0.0485
O1_2 O 0.75717(6) 0.37571(15) 0.4340(3)
O2 O 0.82111(6) 0.42559(17) 0.5982(3)
O3_2 O 0.54768(5) 0.56893(16) 0.1071(2)
O5_2 O 0.46963(5) 0.61549(16) 0.0737(2)
H1_2 H 0.4840 0.6645 0.1030
H2_2 H 0.4587 0.5981 0.1611
C1_2 C 0.56951(7) 0.6189(2) 0.0308(3)
C2_2 C 0.60701(7) 0.6439(2) 0.1299(3)
C3_2 C 0.63043(7) 0.7066(2) 0.0604(3)
C4_2 C 0.66512(7) 0.7313(2) 0.1506(3)
H4_2 H 0.6804 0.7736 0.1014
C5_2 C 0.67725(6) 0.6936(2) 0.3133(3)
C6_2 C 0.65380(7) 0.6299(2) 0.3815(4)
H5_2 H 0.6615 0.6033 0.4900
C7_2 C 0.61901(7) 0.6048(2) 0.2914(4)
H6_2 H 0.6038 0.5618 0.3396
C8_2 C 0.69502(7) 0.8995(2) 0.4109(4)
H7_2 H 0.6714 0.8819 0.3556
C9_2 C 0.72202(7) 0.8230(2) 0.4558(3)
C10_2 C 0.71465(6) 0.7225(2) 0.4094(3)
C11_2 C 0.74230(7) 0.6496(2) 0.4530(3)
C12_2 C 0.73605(7) 0.5460(2) 0.4102(3)
H8_2 H 0.7136 0.5272 0.3444
C13_2 C 0.72127(9) 0.3429(2) 0.3545(4)
H9_2 H 0.7152 0.3720 0.2428
H10_2 H 0.7033 0.3630 0.4225
H11_2 H 0.7212 0.2715 0.3447
C14_2 C 0.76166(8) 0.4752(2) 0.4622(4)
C15_3 C 0.79750(8) 0.5039(2) 0.5541(4)
C16 C 0.85541(11) 0.4468(3) 0.7062(6)
H12 H 0.8709 0.4847 0.6439
H13 H 0.8676 0.3854 0.7443
H14 H 0.8509 0.4845 0.8032
O13_2 O 0.5000 0.43745(19) 0.2500
C17_3 C 0.93049(7) 0.8811(2) 0.9692(3)
C18_3 C 0.89299(7) 0.8561(2) 0.8701(3)
C19_3 C 0.86957(7) 0.7934(2) 0.9396(3)
C20_3 C 0.83488(7) 0.7687(2) 0.8494(3)
H18_3 H 0.8196 0.7264 0.8986
C21_3 C 0.82275(6) 0.8064(2) 0.6867(3)
C22_3 C 0.84620(7) 0.8701(2) 0.6185(4)
H19_3 H 0.8385 0.8967 0.5100
C23_3 C 0.88099(7) 0.8952(2) 0.7086(4)
H20_3 H 0.8962 0.9382 0.6604
C24_3 C 0.80498(7) 0.6005(2) 0.5891(4)
H21_3 H 0.8286 0.6181 0.6444
C25_3 C 0.77798(7) 0.6770(2) 0.5442(3)
C26_3 C 0.78535(6) 0.7775(2) 0.5906(3)
C27_3 C 0.75770(7) 0.8504(2) 0.5470(3)
C28_3 C 0.76395(7) 0.9540(2) 0.5898(3)
H22_3 H 0.7864 0.9728 0.6556
C31_2 C 0.70250(8) 0.9961(2) 0.4459(4)
O4_2 O 0.56138(6) 0.64686(19) 0.8807(3)
O6_2 O 0.5000 0.56255(19) 0.7500
H3_2 H 0.6228 0.7326 0.9515
O12_2 O 0.53037(5) 0.38451(16) 0.9263(2)
H15_2 H 0.5160 0.3355 0.8970
H16_2 H 0.5413 0.4019 0.8389
O7_3 O 0.25717(6) 0.12429(15) 0.9340(3)
C29_3 C 0.22127(9) 0.1571(2) 0.8545(4)
H23_3 H 0.2152 0.1280 0.7428
H24_3 H 0.2033 0.1370 0.9225
H25_3 H 0.2212 0.2285 0.8447
C30_3 C 0.26166(8) 0.0248(2) 0.9622(4)
O1_3 O 0.24283(6) 0.37571(15) 0.0660(3)
O3_3 O 0.45232(5) 0.56893(16) 0.3929(2)
O4_3 O 0.43862(6) 0.64686(19) 0.6193(3)
O5_3 O 0.53037(5) 0.61549(16) 0.4263(2)
H1_3 H 0.5160 0.6645 0.3970
H2_3 H 0.5413 0.5981 0.3389
C1_3 C 0.43049(7) 0.6189(2) 0.4692(3)
C2_3 C 0.39299(7) 0.6439(2) 0.3701(3)
C3_3 C 0.36957(7) 0.7066(2) 0.4396(3)
H3_3 H 0.3772 0.7326 0.5485
C4_3 C 0.33488(7) 0.7313(2) 0.3494(3)
H4_3 H 0.3196 0.7736 0.3986
C5_3 C 0.32275(6) 0.6936(2) 0.1867(3)
C6_3 C 0.34620(7) 0.6299(2) 0.1185(4)
H5_3 H 0.3385 0.6033 0.0100
C7_3 C 0.38099(7) 0.6048(2) 0.2086(4)
H6_3 H 0.3962 0.5618 0.1604
C8_3 C 0.30498(7) 0.8995(2) 0.0891(4)
H7_3 H 0.3286 0.8819 0.1444
C9_3 C 0.27798(7) 0.8230(2) 0.0442(3)
C10_3 C 0.28535(6) 0.7225(2) 0.0906(3)
C11_3 C 0.25770(7) 0.6496(2) 0.0470(3)
C12_3 C 0.26395(7) 0.5460(2) 0.0898(3)
H8_3 H 0.2864 0.5272 0.1556
C13_3 C 0.27873(9) 0.3429(2) 0.1455(4)
H9_3 H 0.2848 0.3720 0.2572
H10_3 H 0.2967 0.3630 0.0775
H11_3 H 0.2788 0.2715 0.1553
C14_3 C 0.23834(8) 0.4752(2) 0.0378(4)
O12_3 O 0.46963(5) 0.38451(16) 0.5737(2)
H15_3 H 0.4840 0.3355 0.6030
H16_3 H 0.4587 0.4019 0.6611
C31_3 C 0.29750(8) 0.9961(2) 0.0541(4)
Ni1_5 Ni 0.0000 1.0000 0.0000
O1_4 O 0.25717(6) 0.87571(15) 0.4340(3)
O2_2 O 0.32111(6) 0.92559(17) 0.5982(3)
C13_4 C 0.22127(9) 0.8429(2) 0.3545(4)
H9_4 H 0.2152 0.8720 0.2428
H10_4 H 0.2033 0.8630 0.4225
H11_4 H 0.2212 0.7715 0.3447
C14_4 C 0.26166(8) 0.9752(2) 0.4622(4)
C16_2 C 0.35541(11) 0.9468(3) 0.7062(6)
H12_2 H 0.3709 0.9847 0.6439
H13_2 H 0.3676 0.8854 0.7443
H14_2 H 0.3509 0.9845 0.8032
O13_3 O 0.0000 0.93745(19) 0.2500
Ni1_6 Ni 0.0000 1.0000 1.0000
Ni3_3 Ni 0.0000 1.0000 0.5000
O12_4 O 0.03037(5) 0.88451(16) 0.9263(2)
H15_4 H 0.0160 0.8355 0.8970
H16_4 H 0.0413 0.9019 0.8389
O10_2 O 0.04768(5) 0.93107(16) 0.6071(2)
O2_3 O 0.17889(6) 0.42559(17) 0.9018(3)
C15_4 C 0.20250(8) 0.5039(2) 0.9459(4)
C16_3 C 0.14459(11) 0.4468(3) 0.7938(6)
H12_3 H 0.1291 0.4847 0.8561
H13_3 H 0.1324 0.3854 0.7557
H14_3 H 0.1491 0.4845 0.6968
O11_4 O 0.06138(6) 0.85314(19) 0.3807(3)
C17_4 C 0.06951(7) 0.8811(2) 0.5308(3)
C18_4 C 0.10701(7) 0.8561(2) 0.6299(3)
C19_4 C 0.13043(7) 0.7934(2) 0.5604(3)
H17_4 H 0.1228 0.7674 0.4515
C20_4 C 0.16512(7) 0.7687(2) 0.6506(3)
H18_4 H 0.1804 0.7264 0.6014
C21_4 C 0.17725(6) 0.8064(2) 0.8133(3)
C22_4 C 0.15380(7) 0.8701(2) 0.8815(4)
H19_4 H 0.1615 0.8967 0.9900
C23_4 C 0.11901(7) 0.8952(2) 0.7914(4)
H20_4 H 0.1038 0.9382 0.8396
C24_4 C 0.19502(7) 0.6005(2) 0.9109(4)
H21_4 H 0.1714 0.6181 0.8556
C25_4 C 0.22202(7) 0.6770(2) 0.9558(3)
C26_4 C 0.21465(6) 0.7775(2) 0.9094(3)
C27_4 C 0.24230(7) 0.8504(2) 0.9530(3)
C28_4 C 0.23605(7) 0.9540(2) 0.9102(3)
H22_4 H 0.2136 0.9728 0.8444
Ni1_7 Ni 1.0000 0.0000 0.0000
O5_4 O 0.96963(5) 0.11549(16) 0.0737(2)
H1_4 H 0.9840 0.1645 0.1030
H2_4 H 0.9587 0.0981 0.1611
Ni1_8 Ni 1.0000 0.0000 1.0000
O6_3 O 1.0000 0.06255(19) 0.7500
Ni3_4 Ni 1.0000 0.0000 0.5000
O3_4 O 0.95232(5) 0.06893(16) 0.3929(2)
O4_4 O 0.93862(6) 0.14686(19) 0.6193(3)
C1_4 C 0.93049(7) 0.1189(2) 0.4692(3)
C2_4 C 0.89299(7) 0.1439(2) 0.3701(3)
C3_4 C 0.86957(7) 0.2066(2) 0.4396(3)
H3_4 H 0.8772 0.2326 0.5485
C4_4 C 0.83488(7) 0.2313(2) 0.3494(3)
H4_4 H 0.8196 0.2736 0.3986
C5_4 C 0.82275(6) 0.1936(2) 0.1867(3)
C6_4 C 0.84620(7) 0.1299(2) 0.1185(4)
H5_4 H 0.8385 0.1033 0.0100
C7_4 C 0.88099(7) 0.1048(2) 0.2086(4)
H6_4 H 0.8962 0.0618 0.1604
C8_4 C 0.80498(7) 0.3995(2) 0.0891(4)
H7_4 H 0.8286 0.3819 0.1444
C9_4 C 0.77798(7) 0.3230(2) 0.0442(3)
C10_4 C 0.78535(6) 0.2225(2) 0.0906(3)
C11_4 C 0.75770(7) 0.1496(2) 0.0470(3)
C12_4 C 0.76395(7) 0.0460(2) 0.0898(3)
H8_4 H 0.7864 0.0272 0.1556
O8_2 O 0.82111(6) 0.57441(17) 0.0982(3)
C31_4 C 0.79750(8) 0.4961(2) 0.0541(4)
C32_2 C 0.85541(11) 0.5532(3) 0.2062(6)
H26_2 H 0.8709 0.5153 0.1439
H27_2 H 0.8676 0.6146 0.2443
H28_2 H 0.8509 0.5155 0.3032
O7_4 O 0.74283(6) 0.12429(15) 0.5660(3)
O8_3 O 0.67889(6) 0.07441(17) 0.4018(3)
C29_4 C 0.77873(9) 0.1571(2) 0.6455(4)
H23_4 H 0.7848 0.1280 0.7572
H24_4 H 0.7967 0.1370 0.5775
H25_4 H 0.7788 0.2285 0.6553
C30_4 C 0.73834(8) 0.0248(2) 0.5378(4)
C32_3 C 0.64459(11) 0.0532(3) 0.2938(6)
H26_3 H 0.6291 0.0153 0.3561
H27_3 H 0.6324 0.1146 0.2557
H28_3 H 0.6491 0.0155 0.1968
O2_4 O 0.67889(6) 0.92559(17) 0.9018(3)
C16_4 C 0.64459(11) 0.9468(3) 0.7938(6)
H12_4 H 0.6291 0.9847 0.8561
H13_4 H 0.6324 0.8854 0.7557
H14_4 H 0.6491 0.9845 0.6968
O8_4 O 0.32111(6) 0.07441(17) 0.0982(3)
C32_4 C 0.35541(11) 0.0532(3) 0.2062(6)
H26_4 H 0.3709 0.0153 0.1439
H27_4 H 0.3676 0.1146 0.2443
H28_4 H 0.3509 0.0155 0.3032
loop_
_geom_bond_atom_site_label_1
_geom_bond_atom_site_label_2
_geom_bond_site_symmetry_1
_geom_bond_site_symmetry_2
Ni1 O3 1_555 1_555
O3 C1 1_555 1_555
C1 C2 1_555 1_555
C2 C3 1_555 1_555
C4 C3 1_555 1_555
H4 C4 1_555 1_555
C5 C4 1_555 1_555
C6 C5 1_555 1_555
H5 C6 1_555 1_555
C7 C2 1_555 1_555
H6 C7 1_555 1_555
C8 H7 1_555 1_555
C9 C8 1_555 1_555
C10 C5 1_555 1_555
C11 C10 1_555 1_555
C12 C11 1_555 1_555
H8 C12 1_555 1_555
Ni2_2 O9 1_555 1_555
O7 C29 1_555 1_555
O8 C31 1_555 1_555
O9 C17 1_555 1_555
C17 C18 1_555 1_555
C18 C19 1_555 1_555
C20 C19 1_555 1_555
H18 C20 1_555 1_555
C21 C20 1_555 1_555
C22 C21 1_555 1_555
H19 C22 1_555 1_555
C23 C18 1_555 1_555
H20 C23 1_555 1_555
C24 C15 1_555 1_555
H21 C24 1_555 1_555
C25 C11 1_555 1_555
C26 C21 1_555 1_555
C27 C9 1_555 1_555
C28 C27 1_555 1_555
H22 C28 1_555 1_555
C29 H23 1_555 1_555
H24 C29 1_555 1_555
H25 C29 1_555 1_555
C30 O7 1_555 1_555
C31 C8 1_555 1_555
C32 O8 1_555 1_555
H26 C32 1_555 1_555
H27 C32 1_555 1_555
H28 C32 1_555 1_555
C6 C7 1_555 1_555
C9 C10 1_555 1_555
C22 C23 1_555 1_555
C24 C25 1_555 1_555
C25 C26 1_555 1_555
C26 C27 1_555 1_555
C28 C30 1_555 1_555
C30 C31 1_555 1_555
O6 Ni1_2 1_555 1_555
Ni3 O6 1_555 1_555
O13 Ni1_3 1_555 1_555
O10 Ni1_4 1_555 1_555
O5 Ni3 1_555 1_555
H1 O5 1_555 1_555
H2 O5 1_555 1_555
Ni2_3 O9_2 1_555 1_555
O7_2 C29_2 1_555 1_555
O9_2 C17_2 1_555 1_555
O11_2 C17_2 1_555 1_555
C17_2 C18_2 1_555 1_555
C18_2 C19_2 1_555 1_555
C19_2 H17_2 1_555 1_555
C20_2 C19_2 1_555 1_555
H18_2 C20_2 1_555 1_555
C21_2 C20_2 1_555 1_555
C22_2 C21_2 1_555 1_555
H19_2 C22_2 1_555 1_555
C23_2 C18_2 1_555 1_555
H20_2 C23_2 1_555 1_555
C24_2 C15_2 1_555 1_555
H21_2 C24_2 1_555 1_555
C26_2 C21_2 1_555 1_555
C28_2 C27_2 1_555 1_555
H22_2 C28_2 1_555 1_555
C29_2 H23_2 1_555 1_555
H24_2 C29_2 1_555 1_555
H25_2 C29_2 1_555 1_555
C30_2 O7_2 1_555 1_555
C22_2 C23_2 1_555 1_555
C24_2 C25_2 1_555 1_555
C25_2 C26_2 1_555 1_555
C26_2 C27_2 1_555 1_555
C28_2 C30_2 1_555 1_555
O1 C13 1_555 1_555
C13 H9 1_555 1_555
H10 C13 1_555 1_555
H11 C13 1_555 1_555
C14 O1 1_555 1_555
O12 Ni3_2 1_555 1_555
H15 O12 1_555 1_555
H16 O12 1_555 1_555
O13 Ni3_2 1_555 1_555
Ni2 O3_2 1_555 1_555
O1_2 C13_2 1_555 1_555
O2 C15_3 1_555 1_555
O3_2 C1_2 1_555 1_555
O5_2 Ni2 1_555 1_555
H1_2 O5_2 1_555 1_555
H2_2 O5_2 1_555 1_555
C1_2 C2_2 1_555 1_555
C2_2 C3_2 1_555 1_555
C4_2 C3_2 1_555 1_555
H4_2 C4_2 1_555 1_555
C5_2 C4_2 1_555 1_555
C6_2 C5_2 1_555 1_555
H5_2 C6_2 1_555 1_555
C7_2 C2_2 1_555 1_555
H6_2 C7_2 1_555 1_555
C8_2 H7_2 1_555 1_555
C9_2 C8_2 1_555 1_555
C10_2 C5_2 1_555 1_555
C11_2 C10_2 1_555 1_555
C12_2 C11_2 1_555 1_555
H8_2 C12_2 1_555 1_555
C13_2 H9_2 1_555 1_555
H10_2 C13_2 1_555 1_555
H11_2 C13_2 1_555 1_555
C14_2 O1_2 1_555 1_555
C15_3 C14_2 1_555 1_555
C16 O2 1_555 1_555
H12 C16 1_555 1_555
H13 C16 1_555 1_555
H14 C16 1_555 1_555
O10 C17_3 1_555 1_555
O13_2 Ni2 1_555 1_555
C17_3 C18_3 1_555 1_555
C18_3 C19_3 1_555 1_555
C20_3 C19_3 1_555 1_555
H18_3 C20_3 1_555 1_555
C21_3 C20_3 1_555 1_555
C22_3 C21_3 1_555 1_555
H19_3 C22_3 1_555 1_555
C23_3 C18_3 1_555 1_555
H20_3 C23_3 1_555 1_555
C24_3 C15_3 1_555 1_555
H21_3 C24_3 1_555 1_555
C25_3 C11_2 1_555 1_555
C26_3 C21_3 1_555 1_555
C27_3 C9_2 1_555 1_555
C28_3 C27_3 1_555 1_555
H22_3 C28_3 1_555 1_555
C31_2 C8_2 1_555 1_555
C6_2 C7_2 1_555 1_555
C9_2 C10_2 1_555 1_555
C12_2 C14_2 1_555 1_555
C22_3 C23_3 1_555 1_555
C24_3 C25_3 1_555 1_555
C25_3 C26_3 1_555 1_555
C26_3 C27_3 1_555 1_555
O6_2 Ni2_2 1_555 1_555
Ni2_3 O6_2 1_555 1_555
O12_2 Ni2_2 1_555 1_555
H15_2 O12_2 1_555 1_555
H16_2 O12_2 1_555 1_555
O7_3 C29_3 1_555 1_555
C29_3 H23_3 1_555 1_555
H24_3 C29_3 1_555 1_555
H25_3 C29_3 1_555 1_555
C30_3 O7_3 1_555 1_555
Ni2_3 O3_3 1_555 1_555
O1_3 C13_3 1_555 1_555
O3_3 C1_3 1_555 1_555
O4_3 C1_3 1_555 1_555
O5_3 Ni2_3 1_555 1_555
H1_3 O5_3 1_555 1_555
H2_3 O5_3 1_555 1_555
C1_3 C2_3 1_555 1_555
C2_3 C3_3 1_555 1_555
C3_3 H3_3 1_555 1_555
C4_3 C3_3 1_555 1_555
H4_3 C4_3 1_555 1_555
C5_3 C4_3 1_555 1_555
C6_3 C5_3 1_555 1_555
H5_3 C6_3 1_555 1_555
C7_3 C2_3 1_555 1_555
H6_3 C7_3 1_555 1_555
C8_3 H7_3 1_555 1_555
C9_3 C8_3 1_555 1_555
C10_3 C5_3 1_555 1_555
C11_3 C10_3 1_555 1_555
C12_3 C11_3 1_555 1_555
H8_3 C12_3 1_555 1_555
C13_3 H9_3 1_555 1_555
H10_3 C13_3 1_555 1_555
H11_3 C13_3 1_555 1_555
C14_3 O1_3 1_555 1_555
O12_3 Ni2_3 1_555 1_555
H15_3 O12_3 1_555 1_555
H16_3 O12_3 1_555 1_555
O13_2 Ni2_3 1_555 1_555
C31_3 C8_3 1_555 1_555
C6_3 C7_3 1_555 1_555
C9_3 C10_3 1_555 1_555
C12_3 C14_3 1_555 1_555
O1_4 C13_4 1_555 1_555
C13_4 H9_4 1_555 1_555
H10_4 C13_4 1_555 1_555
H11_4 C13_4 1_555 1_555
C14_4 O1_4 1_555 1_555
C16_2 O2_2 1_555 1_555
H12_2 C16_2 1_555 1_555
H13_2 C16_2 1_555 1_555
H14_2 C16_2 1_555 1_555
O13_3 Ni1_5 1_555 1_555
O12_4 Ni1_6 1_555 1_555
H15_4 O12_4 1_555 1_555
H16_4 O12_4 1_555 1_555
O10_2 Ni3_3 1_555 1_555
O13_3 Ni3_3 1_555 1_555
O2_3 C15_4 1_555 1_555
C16_3 O2_3 1_555 1_555
H12_3 C16_3 1_555 1_555
H13_3 C16_3 1_555 1_555
H14_3 C16_3 1_555 1_555
O10_2 C17_4 1_555 1_555
O11_4 C17_4 1_555 1_555
C17_4 C18_4 1_555 1_555
C18_4 C19_4 1_555 1_555
C19_4 H17_4 1_555 1_555
C20_4 C19_4 1_555 1_555
H18_4 C20_4 1_555 1_555
C21_4 C20_4 1_555 1_555
C22_4 C21_4 1_555 1_555
H19_4 C22_4 1_555 1_555
C23_4 C18_4 1_555 1_555
H20_4 C23_4 1_555 1_555
C24_4 C15_4 1_555 1_555
H21_4 C24_4 1_555 1_555
C26_4 C21_4 1_555 1_555
C28_4 C27_4 1_555 1_555
H22_4 C28_4 1_555 1_555
C22_4 C23_4 1_555 1_555
C24_4 C25_4 1_555 1_555
C25_4 C26_4 1_555 1_555
C26_4 C27_4 1_555 1_555
O5_4 Ni1_7 1_555 1_555
H1_4 O5_4 1_555 1_555
H2_4 O5_4 1_555 1_555
O6_3 Ni1_8 1_555 1_555
Ni3_4 O6_3 1_555 1_555
Ni3_4 O3_4 1_555 1_555
O3_4 C1_4 1_555 1_555
O4_4 C1_4 1_555 1_555
C1_4 C2_4 1_555 1_555
C2_4 C3_4 1_555 1_555
C3_4 H3_4 1_555 1_555
C4_4 C3_4 1_555 1_555
H4_4 C4_4 1_555 1_555
C5_4 C4_4 1_555 1_555
C6_4 C5_4 1_555 1_555
H5_4 C6_4 1_555 1_555
C7_4 C2_4 1_555 1_555
H6_4 C7_4 1_555 1_555
C8_4 H7_4 1_555 1_555
C9_4 C8_4 1_555 1_555
C10_4 C5_4 1_555 1_555
C11_4 C10_4 1_555 1_555
C12_4 C11_4 1_555 1_555
H8_4 C12_4 1_555 1_555
O8_2 C31_4 1_555 1_555
C31_4 C8_4 1_555 1_555
C32_2 O8_2 1_555 1_555
H26_2 C32_2 1_555 1_555
H27_2 C32_2 1_555 1_555
H28_2 C32_2 1_555 1_555
C6_4 C7_4 1_555 1_555
C9_4 C10_4 1_555 1_555
O7_4 C29_4 1_555 1_555
C29_4 H23_4 1_555 1_555
H24_4 C29_4 1_555 1_555
H25_4 C29_4 1_555 1_555
C30_4 O7_4 1_555 1_555
C32_3 O8_3 1_555 1_555
H26_3 C32_3 1_555 1_555
H27_3 C32_3 1_555 1_555
H28_3 C32_3 1_555 1_555
C16_4 O2_4 1_555 1_555
H12_4 C16_4 1_555 1_555
H13_4 C16_4 1_555 1_555
H14_4 C16_4 1_555 1_555
C32_4 O8_4 1_555 1_555
H26_4 C32_4 1_555 1_555
H27_4 C32_4 1_555 1_555
H28_4 C32_4 1_555 1_555

#END
