
###############################################################################
#
# This file contains modified crystal structure data generated from the
# MOF subset of the Cambridge Structural Database (CSD) v543 
# hosted by the Cambridge Crystallographic Data Centre (CCDC).
#
# This work is licensed under the Creative Commons
# Attribution-NonCommercial-ShareAlike 4.0 International License.
# To view a copy of this license, visit
# http://creativecommons.org/licenses/by-nc-sa/4.0/
# or send a letter to
# Creative Commons, PO Box 1866, Mountain View, CA 94042, USA.
#
# CIF created using the CSD Python API on 29 September 2022
# The structure has been converted into the P1 space group
# The structure has a 3D framework
# The original CSD entry GESSAB is in the hexagonal crystal system
# The original CSD entry GESSAB is in a Sohncke space group
# The framework has been calculated to contain at least 10.0% void space
# The void calculation uses a probe of radius 1.32A, grid spacing 0.4
#
###############################################################################

data_GESSAB
_chemical_formula_moiety         '(C252 H204 Cu12 N36 O60)n'
_symmetry_cell_setting           triclinic
_symmetry_space_group_name_H-M   'P 1'
_symmetry_Int_Tables_number      1
_space_group_name_Hall           'P 1'
loop_
_symmetry_equiv_pos_site_id
_symmetry_equiv_pos_as_xyz
1 x,y,z
_cell_length_a                   11.0773(6)
_cell_length_b                   11.0773(6)
_cell_length_c                   77.251(6)
_cell_angle_alpha                90
_cell_angle_beta                 90
_cell_angle_gamma                120
_cell_volume                     8209.23
loop_
_atom_site_label
_atom_site_type_symbol
_atom_site_fract_x
_atom_site_fract_y
_atom_site_fract_z
C29 C 0.0443(8) 0.0003(9) 0.99238(13)
H23 H 0.0431 0.0739 0.9980
H25 H 0.2421 0.0681 0.9969
N4 N 0.1731(6) 0.8918(6) 0.98425(7)
C31 C 0.1628(8) 0.9957(10) 0.99182(11)
C32 C 0.0594(8) 0.7967(9) 0.97588(13)
H26 H 0.0634 0.7255 0.9700
Cu3 Cu 0.35056(8) 0.88585(10) 0.98517(2)
Cu2 Cu 0.42754(9) 0.05354(10) 0.93509(2)
O6 O 0.4625(5) 0.1144(6) 0.97466(7)
O7 O 0.5182(5) 0.2221(6) 0.94928(6)
O8 O 0.3885(7) 0.3878(8) 0.98274(7)
N2 N 0.5660(8) 0.3688(8) 0.99112(7)
H2 H 0.6130 0.3653 0.9998
N5 N 0.2430(6) 0.0502(7) 0.93653(8)
C12 C 0.5204(7) 0.2193(8) 0.96616(9)
C13 C 0.6086(8) 0.3597(9) 0.97392(9)
H11 H 0.6019 0.4287 0.9667
C14 C 0.7680(9) 0.3976(12) 0.97462(13)
H12 H 0.7989 0.3921 0.9632
H13 H 0.8243 0.4904 0.9790
H14 H 0.7767 0.3329 0.9821
C15 C 0.4550(9) 0.3825(9) 0.99398(10)
C23 C 0.6512(8) 0.0054(10) 0.98748(12)
H19 H 0.6463 0.0852 0.9898
C25 C 0.7813(8) 0.0176(10) 0.98713(16)
H21 H 0.8618 0.1034 0.9887
C33 C 0.2225(8) 0.1389(10) 0.94602(11)
H27 H 0.2952 0.2028 0.9529
C35 C 0.1023(9) 0.1407(9) 0.94609(10)
H29 H 0.0955 0.2084 0.9524
N8 N 0.6084(6) 0.0495(7) 0.93540(9)
O1 O 0.2748(5) 0.7231(6) 0.96981(6)
O2 O 0.3056(6) 0.8215(6) 0.94357(7)
N1 N 0.1588(8) 0.5672(8) 0.92858(9)
H1 H 0.2104 0.5696 0.9201
N3 N 0.5351(6) 0.8904(7) 0.98476(9)
C1 C 0.2651(7) 0.7184(8) 0.95359(9)
C2 C 0.2082(8) 0.5742(8) 0.94579(10)
H3 H 0.1307 0.5069 0.9530
C3 C 0.3194(12) 0.5368(11) 0.94580(12)
H4 H 0.3526 0.5416 0.9574
H5 H 0.2827 0.4438 0.9414
H6 H 0.3950 0.6008 0.9386
C4 C 0.0371(8) 0.5572(9) 0.92503(8)
C6 C 0.0805(10) 0.5488(12) 0.89271(10)
H7 H 0.1678 0.5604 0.8952
C8 C 0.0363(10) 0.5393(11) 0.87509(10)
H9 H 0.0939 0.5426 0.8661
C24 C 0.5363(7) 0.7691(8) 0.98320(9)
H20 H 0.4527 0.6851 0.9824
C26 C 0.6665(7) 0.7698(8) 0.98283(11)
H22 H 0.6695 0.6878 0.9816
C27 C 0.7875(8) 0.8981(8) 0.98440(9)
C28 C 0.9233(7) 0.8967(7) 0.98468(11)
C30 C 0.9353(9) 0.7998(11) 0.97564(14)
H24 H 0.8602 0.7342 0.9692
C34 C 0.1310(7) 0.9462(8) 0.92811(10)
H28 H 0.1401 0.8778 0.9223
C36 C 0.0044(7) 0.9417(9) 0.92819(12)
O13 O 0.3907(6) 0.9822(8) 0.91040(6)
C37 C 0.9878(7) 0.0422(8) 0.93678(9)
C38 C 0.8553(8) 0.0448(9) 0.93615(11)
C39 C 0.8529(9) 0.1688(9) 0.93584(16)
H31 H 0.9352 0.2539 0.9367
C41 C 0.7289(9) 0.1638(10) 0.93423(14)
H33 H 0.7295 0.2468 0.9322
O10 O 0.4928(10) 0.2039(13) 0.90388(9)
N6 N 0.0495(7) 0.4411(9) 0.76873(9)
C18 C 0.4832(10) 0.1005(14) 0.85186(12)
H16 H 0.5414 0.1660 0.8438
C20 C 0.4921(12) 0.1359(16) 0.86843(12)
H18 H 0.5519 0.2277 0.8717
C21 C 0.4140(8) 0.0384(13) 0.88073(11)
C22 C 0.4341(9) 0.0805(13) 0.89990(11)
C35_2 C 0.1407(9) 0.0384(13) 0.77942(10)
H29_2 H 0.2084 0.1129 0.7857
C37_2 C 0.0422(8) 0.0544(11) 0.77011(9)
C38_2 C 0.0448(9) 0.1895(12) 0.76948(11)
C39_2 C 0.1688(9) 0.3159(13) 0.76917(16)
H31_2 H 0.2539 0.3187 0.7700
C41_2 C 0.1638(10) 0.4349(13) 0.76756(14)
H33_2 H 0.2468 0.5173 0.7655
Cu5 Cu 0.05354(10) 0.62600(13) 0.76842(2)
O6_2 O 0.1144(6) 0.6519(8) 0.80799(7)
O7_2 O 0.2221(6) 0.7039(8) 0.78261(6)
O8_2 O 0.3878(8) 0.9993(11) 0.81607(7)
N2_2 N 0.3688(8) 0.8028(11) 0.82445(7)
H2_2 H 0.3653 0.7523 0.8331
N5_2 N 0.0502(7) 0.8072(9) 0.76986(8)
C12_2 C 0.2193(8) 0.6989(11) 0.79949(9)
C13_2 C 0.3597(9) 0.7511(12) 0.80725(9)
H11_2 H 0.4287 0.8268 0.8000
C14_2 C 0.3976(12) 0.6296(15) 0.80795(13)
H12_2 H 0.3921 0.5932 0.7965
H13_2 H 0.4904 0.6661 0.8123
H14_2 H 0.3329 0.5562 0.8154
C15_2 C 0.3825(9) 0.9275(13) 0.82731(10)
C16 C 0.3892(9) 0.9686(13) 0.84658(10)
C17 C 0.2999(11) 0.8700(16) 0.85878(9)
H15 H 0.2340 0.7805 0.8553
C19 C 0.3113(10) 0.9076(15) 0.87579(10)
H17 H 0.2502 0.8453 0.8839
C23_2 C 0.0054(10) 0.3542(13) 0.82081(12)
H19_2 H 0.0852 0.4389 0.8231
C25_2 C 0.0176(10) 0.2363(13) 0.82046(16)
H21_2 H 0.1034 0.2416 0.8220
H23_2 H 0.0739 0.0308 0.8313
C33_2 C 0.1389(10) 0.9164(13) 0.77935(11)
H27_2 H 0.2028 0.9076 0.7862
O10_2 O 0.2039(13) 0.7111(9) 0.73722(9)
C18_2 C 0.1005(14) 0.6173(10) 0.68520(12)
H16_2 H 0.1660 0.6246 0.6772
C20_2 C 0.1359(16) 0.6438(11) 0.70177(12)
H18_2 H 0.2277 0.6758 0.7051
C21_2 C 0.0384(13) 0.6244(10) 0.71407(11)
C22_2 C 0.0805(13) 0.6464(9) 0.73324(11)
C35_3 C 0.0384(13) 0.8977(9) 0.61276(10)
H29_3 H 0.1129 0.9045 0.6191
O9 O 0.4085(6) 0.3907(6) 0.07707(6)
O10_3 O 0.2889(9) 0.4928(10) 0.07055(9)
C16_2 C 0.4206(9) 0.3892(9) 0.01325(10)
C17_2 C 0.4299(11) 0.2999(11) 0.02545(9)
H15_2 H 0.4535 0.2340 0.0220
C18_3 C 0.3827(10) 0.4832(10) 0.01853(12)
H16_3 H 0.3754 0.5414 0.0105
C19_2 C 0.4037(11) 0.3113(10) 0.04246(10)
H17_2 H 0.4049 0.2502 0.0506
C20_3 C 0.3562(11) 0.4921(12) 0.03510(12)
H18_3 H 0.3242 0.5519 0.0384
C21_3 C 0.3756(10) 0.4140(8) 0.04740(11)
C22_3 C 0.3536(9) 0.4341(9) 0.06657(11)
Cu6 Cu 0.37400(13) 0.42754(9) 0.10176(2)
O3 O 0.0470(7) 0.4538(8) 0.43660(8)
O4 O 0.0347(6) 0.4295(5) 0.34204(6)
O5 O 0.2558(7) 0.5384(9) 0.34888(8)
C5 C 0.0074(9) 0.4594(9) 0.40596(9)
C7 C 0.1386(11) 0.4759(15) 0.40206(10)
H8 H 0.1957 0.4770 0.4110
C9 C 0.1835(13) 0.4904(18) 0.38520(12)
H10 H 0.2739 0.5103 0.3828
C10 C 0.0914(9) 0.4747(9) 0.37152(9)
C11 C 0.1334(9) 0.4764(9) 0.35300(10)
H30 H 0.0710 0.1299 0.4224
C40 C 0.2718(9) 0.0796(10) 0.43718(13)
H32 H 0.2761 0.1653 0.4383
C42 C 0.3915(9) 0.0693(9) 0.43650(13)
H34 H 0.4771 0.1514 0.4368
Cu4 Cu 0.11415(10) 0.46471(13) 0.31850(2)
N4_2 N 0.1082(6) 0.2813(8) 0.31758(7)
C28_2 C 0.1033(7) 0.0266(10) 0.31801(11)
C30_2 C 0.2002(11) 0.1355(14) 0.30897(14)
H24_2 H 0.2658 0.1260 0.3025
C31_2 C 0.0043(10) 0.1671(13) 0.32515(11)
C32_2 C 0.2033(9) 0.2627(12) 0.30921(13)
H26_2 H 0.2745 0.3379 0.3033
O1_2 O 0.2769(6) 0.5517(8) 0.30314(6)
O2_2 O 0.1785(6) 0.4841(8) 0.27690(7)
O3_2 O 0.4538(8) 0.4068(11) 0.26993(8)
O4_2 O 0.4295(5) 0.3948(8) 0.17537(6)
O5_2 O 0.5384(9) 0.2826(11) 0.18221(8)
N1_2 N 0.4328(8) 0.5916(11) 0.26191(9)
H1_2 H 0.4304 0.6408 0.2534
N3_2 N 0.1096(7) 0.6447(9) 0.31809(9)
C1_2 C 0.2816(8) 0.5467(11) 0.28692(9)
C2_2 C 0.4258(8) 0.6340(11) 0.27912(10)
H3_2 H 0.4931 0.6238 0.2863
C3_2 C 0.4632(11) 0.7826(16) 0.27913(12)
H4_2 H 0.4584 0.8110 0.2907
H5_2 H 0.5562 0.8389 0.2747
H6_2 H 0.3992 0.7942 0.2719
C4_2 C 0.4428(9) 0.4799(12) 0.25836(8)
C5_2 C 0.4594(9) 0.4520(13) 0.23929(9)
C6_2 C 0.4512(12) 0.5317(16) 0.22604(10)
H7_2 H 0.4396 0.6074 0.2285
C7_2 C 0.4759(15) 0.3373(19) 0.23539(10)
H8_2 H 0.4770 0.2813 0.2443
C8_2 C 0.4607(11) 0.4970(15) 0.20842(10)
H9_2 H 0.4574 0.5513 0.1994
C9_2 C 0.4904(18) 0.3069(22) 0.21853(12)
H10_2 H 0.5103 0.2364 0.2161
C10_2 C 0.4747(9) 0.3833(13) 0.20485(9)
C11_2 C 0.4764(9) 0.3430(13) 0.18633(10)
C24_2 C 0.2309(8) 0.7672(11) 0.31653(9)
H20_2 H 0.3149 0.7676 0.3157
C26_2 C 0.2302(8) 0.8967(11) 0.31616(11)
H22_2 H 0.3122 0.9817 0.3149
C27_2 C 0.1019(8) 0.8894(11) 0.31773(9)
C34_2 C 0.0538(8) 0.1848(11) 0.26144(10)
H28_2 H 0.1222 0.2623 0.2556
C36_2 C 0.0583(9) 0.0627(11) 0.26152(12)
H30_2 H 0.1299 0.0589 0.2557
Cu4_2 Cu 0.46471(13) 0.35056(16) 0.15184(2)
O13_2 O 0.0178(8) 0.4085(10) 0.24374(6)
N4_3 N 0.2813(8) 0.1731(6) 0.15092(7)
C29_2 C 0.0440(12) 0.0443(8) 0.15905(13)
C31_3 C 0.1671(13) 0.1628(8) 0.15849(11)
H25_2 H 0.1740 0.2421 0.1636
C32_3 C 0.2627(12) 0.0594(8) 0.14255(13)
H26_3 H 0.3379 0.0634 0.1367
O1_3 O 0.5517(8) 0.2748(5) 0.13648(6)
O2_3 O 0.4841(8) 0.3056(6) 0.11024(7)
O6_3 O 0.3481(8) 0.4625(5) 0.14133(7)
O7_3 O 0.2961(8) 0.5182(5) 0.11595(6)
O8_3 O 0.0007(11) 0.3885(7) 0.14941(7)
N1_3 N 0.5916(11) 0.1588(8) 0.09525(9)
H1_3 H 0.6408 0.2104 0.0868
N2_3 N 0.1972(11) 0.5660(8) 0.15779(7)
H2_3 H 0.2477 0.6130 0.1665
N3_3 N 0.6447(9) 0.5351(6) 0.15143(9)
N5_3 N 0.1928(9) 0.2430(6) 0.10320(8)
C1_3 C 0.5467(11) 0.2651(7) 0.12026(9)
C2_3 C 0.6340(11) 0.2082(8) 0.11246(10)
H3_3 H 0.6238 0.1307 0.1197
C3_3 C 0.7826(16) 0.3194(12) 0.11247(12)
H4_3 H 0.8110 0.3526 0.1241
H5_3 H 0.8389 0.2827 0.1081
H6_3 H 0.7942 0.3950 0.1053
C4_3 C 0.4799(12) 0.0371(8) 0.09170(8)
C6_3 C 0.5317(16) 0.0805(10) 0.05938(10)
H7_3 H 0.6074 0.1678 0.0619
C8_3 C 0.4970(15) 0.0363(10) 0.04176(10)
H9_3 H 0.5513 0.0939 0.0328
C12_3 C 0.3011(11) 0.5204(7) 0.13283(9)
C13_3 C 0.2489(12) 0.6086(8) 0.14059(9)
H11_3 H 0.1732 0.6019 0.1334
C14_3 C 0.3704(15) 0.7680(9) 0.14129(13)
H12_3 H 0.4068 0.7989 0.1299
H13_3 H 0.3339 0.8243 0.1457
H14_3 H 0.4438 0.7767 0.1488
C15_3 C 0.0725(13) 0.4550(9) 0.16065(10)
C16_3 C 0.0314(13) 0.4206(9) 0.17992(10)
C17_3 C 0.1300(16) 0.4299(11) 0.19212(9)
H15_3 H 0.2195 0.4535 0.1887
C19_3 C 0.0924(15) 0.4037(11) 0.20913(10)
H17_3 H 0.1547 0.4049 0.2173
C23_3 C 0.6458(13) 0.6512(8) 0.15415(12)
H19_3 H 0.5611 0.6463 0.1565
C24_3 C 0.7672(11) 0.5363(7) 0.14987(9)
H20_3 H 0.7676 0.4527 0.1491
C25_3 C 0.7637(13) 0.7813(8) 0.15380(16)
H21_3 H 0.7584 0.8618 0.1554
C26_3 C 0.8967(11) 0.6665(7) 0.14950(11)
H22_3 H 0.9817 0.6695 0.1483
C27_3 C 0.8894(11) 0.7875(8) 0.15107(9)
C33_3 C 0.0836(13) 0.2225(8) 0.11269(11)
H27_3 H 0.0924 0.2952 0.1196
C34_3 C 0.1848(11) 0.1310(7) 0.09478(10)
H28_3 H 0.2623 0.1401 0.0890
C36_3 C 0.0627(11) 0.0044(7) 0.09486(12)
N8_2 N 0.5589(9) 0.6084(6) 0.10207(9)
C37_3 C 0.9456(11) 0.9878(7) 0.10345(9)
C38_3 C 0.8105(12) 0.8553(8) 0.10282(11)
C39_3 C 0.6841(13) 0.8529(9) 0.10251(16)
H31_3 H 0.6813 0.9352 0.1034
C40_2 C 0.8078(13) 0.7282(9) 0.10385(13)
H32_2 H 0.8892 0.7239 0.1050
C41_3 C 0.5651(13) 0.7289(9) 0.10090(14)
H33_3 H 0.4827 0.7295 0.0989
C42_2 C 0.6778(13) 0.6085(9) 0.10317(13)
H34_2 H 0.6743 0.5229 0.1035
O11 O 0.3948(8) 0.9653(6) 0.00871(6)
O12 O 0.2826(11) 0.7442(7) 0.01555(8)
O3_3 O 0.4068(11) 0.9530(7) 0.10327(8)
C5_3 C 0.4520(13) 0.9926(9) 0.07263(9)
C7_3 C 0.3373(19) 0.8614(11) 0.06873(10)
H8_3 H 0.2813 0.8043 0.0777
C9_3 C 0.3069(22) 0.8165(13) 0.05187(12)
H10_3 H 0.2364 0.7261 0.0495
C10_3 C 0.3833(13) 0.9086(9) 0.03819(9)
C11_3 C 0.3430(13) 0.8666(9) 0.01967(10)
H30_3 H 0.0589 0.9290 0.0891
O3_4 O 0.9530(7) 0.5462(8) 0.93660(8)
O4_3 O 0.9653(6) 0.5705(5) 0.84204(6)
O5_3 O 0.7442(7) 0.4616(9) 0.84888(8)
C5_4 C 0.9926(9) 0.5406(9) 0.90596(9)
C7_4 C 0.8614(11) 0.5241(15) 0.90206(10)
H8_4 H 0.8043 0.5230 0.9110
C9_4 C 0.8165(13) 0.5096(18) 0.88520(12)
H10_4 H 0.7261 0.4897 0.8828
C10_4 C 0.9086(9) 0.5253(9) 0.87152(9)
C11_4 C 0.8666(9) 0.5236(9) 0.85300(10)
H30_4 H 0.9290 0.8701 0.9224
C40_3 C 0.7282(9) 0.9204(10) 0.93718(13)
H32_3 H 0.7239 0.8347 0.9383
C42_3 C 0.6085(9) 0.9307(9) 0.93650(13)
H34_3 H 0.5229 0.8486 0.9368
Cu4_3 Cu 0.88585(10) 0.53529(13) 0.81850(2)
N6_2 N 0.3916(6) 0.9505(7) 0.43540(9)
C37_4 C 0.0122(7) 0.9578(8) 0.43678(9)
C38_4 C 0.1447(8) 0.9552(9) 0.43615(11)
C39_4 C 0.1471(9) 0.8312(9) 0.43584(16)
H31_4 H 0.0648 0.7461 0.4367
C41_4 C 0.2711(9) 0.8362(10) 0.43423(14)
H33_4 H 0.2705 0.7532 0.4322
Cu5_2 Cu 0.57246(9) 0.94646(10) 0.43509(2)
Cu1 Cu 0.64944(8) 0.11415(10) 0.48517(2)
O1_4 O 0.7252(5) 0.2769(6) 0.46981(6)
O2_4 O 0.6944(6) 0.1785(6) 0.44357(7)
N1_4 N 0.8412(8) 0.4328(8) 0.42858(9)
H1_4 H 0.7896 0.4304 0.4201
N3_4 N 0.4649(6) 0.1096(7) 0.48476(9)
C1_4 C 0.7349(7) 0.2816(8) 0.45359(9)
C2_4 C 0.7918(8) 0.4258(8) 0.44579(10)
H3_4 H 0.8693 0.4931 0.4530
C3_4 C 0.6806(12) 0.4632(11) 0.44580(12)
H4_4 H 0.6474 0.4584 0.4574
H5_4 H 0.7173 0.5562 0.4414
H6_4 H 0.6050 0.3992 0.4386
C4_4 C 0.9629(8) 0.4428(9) 0.42503(8)
C6_4 C 0.9195(10) 0.4512(12) 0.39271(10)
H7_4 H 0.8322 0.4396 0.3952
C8_4 C 0.9637(10) 0.4607(11) 0.37509(10)
H9_4 H 0.9061 0.4574 0.3661
C24_4 C 0.4637(7) 0.2309(8) 0.48320(9)
H20_4 H 0.5473 0.3149 0.4824
C26_4 C 0.3335(7) 0.2302(8) 0.48283(11)
H22_4 H 0.3305 0.3122 0.4816
C27_4 C 0.2125(8) 0.1019(8) 0.48440(9)
C28_3 C 0.0767(7) 0.1033(7) 0.48468(11)
C30_3 C 0.0647(9) 0.2002(11) 0.47564(14)
H24_3 H 0.1398 0.2658 0.4692
C34_4 C 0.8690(7) 0.0538(8) 0.42811(10)
H28_4 H 0.8599 0.1222 0.4223
C36_4 C 0.9956(7) 0.0583(9) 0.42819(12)
O11_2 O 0.6052(8) 0.0347(6) 0.50871(6)
O12_2 O 0.7174(11) 0.2558(7) 0.51555(8)
O13_3 O 0.6093(6) 0.0178(8) 0.41040(6)
N7 N 0.8269(6) 0.1082(6) 0.48425(7)
O6_4 O 0.5375(5) 0.8856(6) 0.47466(7)
O7_4 O 0.4818(5) 0.7779(6) 0.44928(6)
O8_4 O 0.6115(7) 0.6122(8) 0.48274(7)
O9_2 O 0.5915(6) 0.6093(6) 0.57707(6)
O10_4 O 0.7111(9) 0.5072(10) 0.57055(9)
N2_4 N 0.4340(8) 0.6312(8) 0.49112(7)
H2_4 H 0.3870 0.6347 0.4998
N5_4 N 0.7570(6) 0.9498(7) 0.43653(8)
C12_4 C 0.4796(7) 0.7807(8) 0.46616(9)
C13_4 C 0.3914(8) 0.6403(9) 0.47392(9)
H11_4 H 0.3981 0.5713 0.4667
C14_4 C 0.2320(9) 0.6024(12) 0.47462(13)
H12_4 H 0.2011 0.6079 0.4632
H13_4 H 0.1757 0.5096 0.4790
H14_4 H 0.2233 0.6671 0.4821
C15_4 C 0.5450(9) 0.6175(9) 0.49398(10)
C16_4 C 0.5794(9) 0.6108(9) 0.51325(10)
C17_4 C 0.5701(11) 0.7001(11) 0.52545(9)
H15_4 H 0.5465 0.7660 0.5220
C18_4 C 0.6173(10) 0.5168(10) 0.51853(12)
H16_4 H 0.6246 0.4586 0.5105
C19_4 C 0.5963(11) 0.6887(10) 0.54246(10)
H17_4 H 0.5951 0.7498 0.5506
C20_4 C 0.6438(11) 0.5079(12) 0.53510(12)
H18_4 H 0.6758 0.4481 0.5384
C21_4 C 0.6244(10) 0.5860(8) 0.54740(11)
C22_4 C 0.6464(9) 0.5659(9) 0.56657(11)
C23_4 C 0.3488(8) 0.9946(10) 0.48748(12)
H19_4 H 0.3537 0.9148 0.4898
C25_4 C 0.2187(8) 0.9824(10) 0.48713(16)
H21_4 H 0.1382 0.8966 0.4887
C33_4 C 0.7775(8) 0.8611(10) 0.44602(11)
H27_4 H 0.7048 0.7972 0.4529
C35_4 C 0.8977(9) 0.8593(9) 0.44609(10)
H29_4 H 0.9045 0.7916 0.4524
Cu6_2 Cu 0.62600(13) 0.57246(9) 0.60176(2)
C31_4 C 0.8372(8) 0.0043(10) 0.49182(11)
C32_4 C 0.9406(8) 0.2033(9) 0.47588(13)
H26_4 H 0.9366 0.2745 0.4700
Cu2_2 Cu 0.94646(10) 0.37400(13) 0.26842(2)
O6_5 O 0.8856(6) 0.3481(8) 0.30799(7)
O7_5 O 0.7779(6) 0.2961(8) 0.28261(6)
O8_5 O 0.6122(8) 0.0007(11) 0.31607(7)
N2_5 N 0.6312(8) 0.1972(11) 0.32445(7)
H2_5 H 0.6347 0.2477 0.3331
N5_5 N 0.9498(7) 0.1928(9) 0.26986(8)
C12_5 C 0.7807(8) 0.3011(11) 0.29949(9)
C13_5 C 0.6403(9) 0.2489(12) 0.30725(9)
H11_5 H 0.5713 0.1732 0.3000
C14_5 C 0.6024(12) 0.3704(15) 0.30795(13)
H12_5 H 0.6079 0.4068 0.2965
H13_5 H 0.5096 0.3339 0.3123
H14_5 H 0.6671 0.4438 0.3154
C15_5 C 0.6175(9) 0.0725(13) 0.32731(10)
C16_5 C 0.6108(9) 0.0314(13) 0.34658(10)
C17_5 C 0.7001(11) 0.1300(16) 0.35878(9)
H15_5 H 0.7660 0.2195 0.3553
C19_5 C 0.6887(10) 0.0924(15) 0.37579(10)
H17_5 H 0.7498 0.1547 0.3839
C23_5 C 0.9946(10) 0.6458(13) 0.32081(12)
H19_5 H 0.9148 0.5611 0.3231
C25_5 C 0.9824(10) 0.7637(13) 0.32046(16)
H21_5 H 0.8966 0.7584 0.3220
H23_3 H 0.9261 0.9692 0.3313
C33_5 C 0.8611(10) 0.0836(13) 0.27935(11)
H27_5 H 0.7972 0.0924 0.2862
N8_3 N 0.9505(7) 0.5589(9) 0.26873(9)
O10_5 O 0.5072(10) 0.7961(13) 0.40388(9)
C18_5 C 0.5168(10) 0.8995(14) 0.35186(12)
H16_5 H 0.4586 0.8340 0.3438
C20_5 C 0.5079(12) 0.8641(16) 0.36843(12)
H18_5 H 0.4481 0.7723 0.3717
C21_5 C 0.5860(8) 0.9616(13) 0.38073(11)
C22_5 C 0.5659(9) 0.9195(13) 0.39990(11)
C35_5 C 0.8593(9) 0.9616(13) 0.27942(10)
H29_5 H 0.7916 0.8871 0.2857
C37_5 C 0.9578(8) 0.9456(11) 0.27011(9)
C38_5 C 0.9552(9) 0.8105(12) 0.26948(11)
C39_5 C 0.8312(9) 0.6841(13) 0.26917(16)
H31_5 H 0.7461 0.6813 0.2700
C41_5 C 0.8362(10) 0.5651(13) 0.26756(14)
H33_5 H 0.7532 0.4827 0.2655
O1_5 O 0.7231(6) 0.4483(8) 0.80314(6)
O2_5 O 0.8215(6) 0.5159(8) 0.77690(7)
O3_5 O 0.5462(8) 0.5932(11) 0.76993(8)
O4_4 O 0.5705(5) 0.6052(8) 0.67537(6)
O5_4 O 0.4616(9) 0.7174(11) 0.68221(8)
N1_5 N 0.5672(8) 0.4084(11) 0.76191(9)
H1_5 H 0.5696 0.3592 0.7534
N3_5 N 0.8904(7) 0.3553(9) 0.81809(9)
C1_5 C 0.7184(8) 0.4533(11) 0.78692(9)
C2_5 C 0.5742(8) 0.3660(11) 0.77912(10)
H3_5 H 0.5069 0.3762 0.7863
C3_5 C 0.5368(11) 0.2174(16) 0.77913(12)
H4_5 H 0.5416 0.1890 0.7907
H5_5 H 0.4438 0.1611 0.7747
H6_5 H 0.6008 0.2058 0.7719
C4_5 C 0.5572(9) 0.5201(12) 0.75836(8)
C5_5 C 0.5406(9) 0.5480(13) 0.73929(9)
C6_5 C 0.5488(12) 0.4683(16) 0.72604(10)
H7_5 H 0.5604 0.3926 0.7285
C7_5 C 0.5241(15) 0.6627(19) 0.73539(10)
H8_5 H 0.5230 0.7187 0.7443
C8_5 C 0.5393(11) 0.5030(15) 0.70842(10)
H9_5 H 0.5426 0.4487 0.6994
C9_5 C 0.5096(18) 0.6931(22) 0.71853(12)
H10_5 H 0.4897 0.7636 0.7161
C10_5 C 0.5253(9) 0.6167(13) 0.70485(9)
C11_5 C 0.5236(9) 0.6570(13) 0.68633(10)
C24_5 C 0.7691(8) 0.2328(11) 0.81653(9)
H20_5 H 0.6851 0.2324 0.8157
C26_5 C 0.7698(8) 0.1033(11) 0.81616(11)
H22_5 H 0.6878 0.0183 0.8149
C27_5 C 0.8981(8) 0.1106(11) 0.81773(9)
C34_5 C 0.9462(8) 0.8152(11) 0.76144(10)
H28_5 H 0.8778 0.7377 0.7556
C36_5 C 0.9417(9) 0.9373(11) 0.76152(12)
H30_5 H 0.8701 0.9411 0.7557
Cu4_4 Cu 0.53529(13) 0.64944(16) 0.65184(2)
O13_4 O 0.9822(8) 0.5915(10) 0.74374(6)
N7_2 N 0.8918(6) 0.7187(8) 0.81758(7)
C28_4 C 0.8967(7) 0.9734(10) 0.81801(11)
C30_4 C 0.7998(11) 0.8645(14) 0.80897(14)
H24_4 H 0.7342 0.8740 0.8025
C31_5 C 0.9957(10) 0.8329(13) 0.82515(11)
C32_5 C 0.7967(9) 0.7373(12) 0.80921(13)
H26_5 H 0.7255 0.6621 0.8033
N6_3 N 0.4411(9) 0.3916(6) 0.60207(9)
C37_6 C 0.0544(11) 0.0122(7) 0.60345(9)
C38_6 C 0.1895(12) 0.1447(8) 0.60282(11)
C39_6 C 0.3159(13) 0.1471(9) 0.60251(16)
H31_6 H 0.3187 0.0648 0.6034
C40_4 C 0.1922(13) 0.2718(9) 0.60385(13)
H32_4 H 0.1108 0.2761 0.6050
C41_6 C 0.4349(13) 0.2711(9) 0.60090(14)
H33_6 H 0.5173 0.2705 0.5989
C42_4 C 0.3222(13) 0.3915(9) 0.60317(13)
H34_4 H 0.3257 0.4771 0.6035
O3_6 O 0.5932(11) 0.0470(7) 0.60327(8)
C5_6 C 0.5480(13) 0.0074(9) 0.57263(9)
C7_6 C 0.6627(19) 0.1386(11) 0.56873(10)
H8_6 H 0.7187 0.1957 0.5777
C9_6 C 0.6931(22) 0.1835(13) 0.55187(12)
H10_6 H 0.7636 0.2739 0.5495
C10_6 C 0.6167(13) 0.0914(9) 0.53819(9)
C11_6 C 0.6570(13) 0.1334(9) 0.51967(10)
H30_6 H 0.9411 0.0710 0.5891
O1_6 O 0.4483(8) 0.7252(5) 0.63648(6)
O2_6 O 0.5159(8) 0.6944(6) 0.61024(7)
O6_6 O 0.6519(8) 0.5375(5) 0.64133(7)
O7_6 O 0.7039(8) 0.4818(5) 0.61595(6)
O8_6 O 0.9993(11) 0.6115(7) 0.64941(7)
N1_6 N 0.4084(11) 0.8412(8) 0.59525(9)
H1_6 H 0.3592 0.7896 0.5868
N2_6 N 0.8028(11) 0.4340(8) 0.65779(7)
H2_6 H 0.7523 0.3870 0.6665
N3_6 N 0.3553(9) 0.4649(6) 0.65143(9)
N5_6 N 0.8072(9) 0.7570(6) 0.60320(8)
C1_6 C 0.4533(11) 0.7349(7) 0.62026(9)
C2_6 C 0.3660(11) 0.7918(8) 0.61246(10)
H3_6 H 0.3762 0.8693 0.6197
C3_6 C 0.2174(16) 0.6806(12) 0.61247(12)
H4_6 H 0.1890 0.6474 0.6241
H5_6 H 0.1611 0.7173 0.6081
H6_6 H 0.2058 0.6050 0.6053
C4_6 C 0.5201(12) 0.9629(8) 0.59170(8)
C6_6 C 0.4683(16) 0.9195(10) 0.55938(10)
H7_6 H 0.3926 0.8322 0.5619
C8_6 C 0.5030(15) 0.9637(10) 0.54176(10)
H9_6 H 0.4487 0.9061 0.5328
C12_6 C 0.6989(11) 0.4796(7) 0.63283(9)
C13_6 C 0.7511(12) 0.3914(8) 0.64059(9)
H11_6 H 0.8268 0.3981 0.6334
C14_6 C 0.6296(15) 0.2320(9) 0.64129(13)
H12_6 H 0.5932 0.2011 0.6299
H13_6 H 0.6661 0.1757 0.6457
H14_6 H 0.5562 0.2233 0.6488
C15_6 C 0.9275(13) 0.5450(9) 0.66065(10)
C16_6 C 0.9686(13) 0.5794(9) 0.67992(10)
C17_6 C 0.8700(16) 0.5701(11) 0.69212(9)
H15_6 H 0.7805 0.5465 0.6887
C19_6 C 0.9076(15) 0.5963(11) 0.70913(10)
H17_6 H 0.8453 0.5951 0.7173
C23_6 C 0.3542(13) 0.3488(8) 0.65415(12)
H19_6 H 0.4389 0.3537 0.6565
C24_6 C 0.2328(11) 0.4637(7) 0.64987(9)
H20_6 H 0.2324 0.5473 0.6491
C25_6 C 0.2363(13) 0.2187(8) 0.65380(16)
H21_6 H 0.2416 0.1382 0.6554
C26_6 C 0.1033(11) 0.3335(7) 0.64950(11)
H22_6 H 0.0183 0.3305 0.6483
C27_6 C 0.1106(11) 0.2125(8) 0.65107(9)
C33_6 C 0.9164(13) 0.7775(8) 0.61269(11)
H27_6 H 0.9076 0.7048 0.6196
C34_6 C 0.8152(11) 0.8690(7) 0.59478(10)
H28_6 H 0.7377 0.8599 0.5890
C36_6 C 0.9373(11) 0.9956(7) 0.59486(12)
N7_3 N 0.7187(8) 0.8269(6) 0.65092(7)
C29_3 C 0.9560(12) 0.9557(8) 0.65905(13)
C31_6 C 0.8329(13) 0.8372(8) 0.65849(11)
H25_3 H 0.8260 0.7579 0.6636
C32_6 C 0.7373(12) 0.9406(8) 0.64255(13)
H26_6 H 0.6621 0.9366 0.6367
O10_6 O 0.7961(13) 0.2889(9) 0.23722(9)
C18_6 C 0.8995(14) 0.3827(10) 0.18520(12)
H16_6 H 0.8340 0.3754 0.1772
C20_6 C 0.8641(16) 0.3562(11) 0.20177(12)
H18_6 H 0.7723 0.3242 0.2051
C21_6 C 0.9616(13) 0.3756(10) 0.21407(11)
C22_6 C 0.9195(13) 0.3536(9) 0.23324(11)
C35_6 C 0.9616(13) 0.1023(9) 0.11276(10)
H29_6 H 0.8871 0.0955 0.1191
C29_4 C 0.9557(8) 0.9997(9) 0.49238(13)
H23_4 H 0.9569 0.9261 0.4980
H25_4 H 0.7579 0.9319 0.4969
C40_5 C 0.0796(10) 0.8078(13) 0.27051(13)
H32_5 H 0.1653 0.8892 0.2716
C42_5 C 0.0693(9) 0.6778(13) 0.26983(13)
H34_5 H 0.1514 0.6743 0.2701
C29_5 C 0.9997(9) 0.0440(12) 0.32571(13)
H25_5 H 0.9319 0.1740 0.3302
C29_6 C 0.0003(9) 0.9560(12) 0.82571(13)
H25_6 H 0.0681 0.8260 0.8302
C40_6 C 0.9204(10) 0.1922(13) 0.77051(13)
H32_6 H 0.8347 0.1108 0.7716
C42_6 C 0.9307(9) 0.3222(13) 0.76983(13)
H34_6 H 0.8486 0.3257 0.7701
H23_5 H 0.0308 0.9569 0.6647
C28_5 C 0.9734(10) 0.0767(7) 0.65135(11)
C30_5 C 0.8645(14) 0.0647(9) 0.64231(14)
H24_5 H 0.8740 0.1398 0.6359
C28_6 C 0.0266(10) 0.9233(7) 0.15135(11)
C30_6 C 0.1355(14) 0.9353(9) 0.14231(14)
H24_6 H 0.1260 0.8602 0.1359
H23_6 H 0.9692 0.0431 0.1647
loop_
_geom_bond_atom_site_label_1
_geom_bond_atom_site_label_2
_geom_bond_site_symmetry_1
_geom_bond_site_symmetry_2
H23 C29 1_555 1_555
N4 C31 1_555 1_555
C32 N4 1_555 1_555
H26 C32 1_555 1_555
Cu3 N4 1_555 1_555
O7 Cu2 1_555 1_555
O8 C15 1_555 1_555
N2 H2 1_555 1_555
N5 Cu2 1_555 1_555
C12 O6 1_555 1_555
C13 N2 1_555 1_555
H11 C13 1_555 1_555
C14 C13 1_555 1_555
H12 C14 1_555 1_555
H13 C14 1_555 1_555
H14 C14 1_555 1_555
C15 N2 1_555 1_555
H19 C23 1_555 1_555
C25 C23 1_555 1_555
H21 C25 1_555 1_555
C33 N5 1_555 1_555
H27 C33 1_555 1_555
C35 C33 1_555 1_555
H29 C35 1_555 1_555
N8 Cu2 1_555 1_555
O7 C12 1_555 1_555
C12 C13 1_555 1_555
Cu3 O1 1_555 1_555
O1 C1 1_555 1_555
O2 C1 1_555 1_555
N1 H1 1_555 1_555
N3 Cu3 1_555 1_555
C1 C2 1_555 1_555
C2 N1 1_555 1_555
H3 C2 1_555 1_555
C3 C2 1_555 1_555
H4 C3 1_555 1_555
H5 C3 1_555 1_555
H6 C3 1_555 1_555
C4 N1 1_555 1_555
H7 C6 1_555 1_555
C8 C6 1_555 1_555
H9 C8 1_555 1_555
C24 N3 1_555 1_555
H20 C24 1_555 1_555
C26 C24 1_555 1_555
H22 C26 1_555 1_555
C28 C27 1_555 1_555
C30 C28 1_555 1_555
H24 C30 1_555 1_555
H28 C34 1_555 1_555
C36 C34 1_555 1_555
C26 C27 1_555 1_555
N8 C41 1_555 1_555
C38 C37 1_555 1_555
C39 C38 1_555 1_555
H31 C39 1_555 1_555
C41 C39 1_555 1_555
H33 C41 1_555 1_555
O10 C22 1_555 1_555
N6 C41_2 1_555 1_555
H16 C18 1_555 1_555
C20 C18 1_555 1_555
H18 C20 1_555 1_555
C22 C21 1_555 1_555
H29_2 C35_2 1_555 1_555
C37_2 C35_2 1_555 1_555
C38_2 C37_2 1_555 1_555
C39_2 C38_2 1_555 1_555
H31_2 C39_2 1_555 1_555
C41_2 C39_2 1_555 1_555
H33_2 C41_2 1_555 1_555
Cu5 N6 1_555 1_555
C20 C21 1_555 1_555
O7_2 Cu5 1_555 1_555
O8_2 C15_2 1_555 1_555
N2_2 H2_2 1_555 1_555
N5_2 Cu5 1_555 1_555
C12_2 O6_2 1_555 1_555
C13_2 N2_2 1_555 1_555
H11_2 C13_2 1_555 1_555
C14_2 C13_2 1_555 1_555
H12_2 C14_2 1_555 1_555
H13_2 C14_2 1_555 1_555
H14_2 C14_2 1_555 1_555
C15_2 N2_2 1_555 1_555
C16 C15_2 1_555 1_555
C17 C16 1_555 1_555
H15 C17 1_555 1_555
C19 C17 1_555 1_555
H17 C19 1_555 1_555
H19_2 C23_2 1_555 1_555
C25_2 C23_2 1_555 1_555
H21_2 C25_2 1_555 1_555
C33_2 N5_2 1_555 1_555
H27_2 C33_2 1_555 1_555
O7_2 C12_2 1_555 1_555
C12_2 C13_2 1_555 1_555
O10_2 C22_2 1_555 1_555
H16_2 C18_2 1_555 1_555
C20_2 C18_2 1_555 1_555
H18_2 C20_2 1_555 1_555
C22_2 C21_2 1_555 1_555
H29_3 C35_3 1_555 1_555
C20_2 C21_2 1_555 1_555
O9 C22_3 1_555 1_555
O10_3 C22_3 1_555 1_555
C17_2 C16_2 1_555 1_555
H15_2 C17_2 1_555 1_555
C18_3 C16_2 1_555 1_555
H16_3 C18_3 1_555 1_555
C19_2 C17_2 1_555 1_555
H17_2 C19_2 1_555 1_555
C20_3 C18_3 1_555 1_555
H18_3 C20_3 1_555 1_555
C21_3 C19_2 1_555 1_555
C22_3 C21_3 1_555 1_555
Cu6 O9 1_555 1_555
C20_3 C21_3 1_555 1_555
O4 C11 1_555 1_555
O5 C11 1_555 1_555
C7 C5 1_555 1_555
H8 C7 1_555 1_555
C9 C7 1_555 1_555
H10 C9 1_555 1_555
C11 C10 1_555 1_555
H32 C40 1_555 1_555
H34 C42 1_555 1_555
Cu4 O4 1_555 1_555
O5 Cu4 1_555 1_555
C9 C10 1_555 1_555
C40 C42 1_555 1_555
N4_2 C31_2 1_555 1_555
C30_2 C28_2 1_555 1_555
H24_2 C30_2 1_555 1_555
C32_2 N4_2 1_555 1_555
H26_2 C32_2 1_555 1_555
Cu4 N4_2 1_555 1_555
C30_2 C32_2 1_555 1_555
Cu4 O1_2 1_555 1_555
O1_2 C1_2 1_555 1_555
O2_2 C1_2 1_555 1_555
O3_2 C4_2 1_555 1_555
O4_2 C11_2 1_555 1_555
O5_2 C11_2 1_555 1_555
N1_2 H1_2 1_555 1_555
N3_2 Cu4 1_555 1_555
C1_2 C2_2 1_555 1_555
C2_2 N1_2 1_555 1_555
H3_2 C2_2 1_555 1_555
C3_2 C2_2 1_555 1_555
H4_2 C3_2 1_555 1_555
H5_2 C3_2 1_555 1_555
H6_2 C3_2 1_555 1_555
C4_2 N1_2 1_555 1_555
C5_2 C4_2 1_555 1_555
C6_2 C5_2 1_555 1_555
H7_2 C6_2 1_555 1_555
C7_2 C5_2 1_555 1_555
H8_2 C7_2 1_555 1_555
C8_2 C6_2 1_555 1_555
H9_2 C8_2 1_555 1_555
C9_2 C7_2 1_555 1_555
H10_2 C9_2 1_555 1_555
C10_2 C8_2 1_555 1_555
C11_2 C10_2 1_555 1_555
C24_2 N3_2 1_555 1_555
H20_2 C24_2 1_555 1_555
C26_2 C24_2 1_555 1_555
H22_2 C26_2 1_555 1_555
H28_2 C34_2 1_555 1_555
C36_2 C34_2 1_555 1_555
H30_2 C36_2 1_555 1_555
Cu4_2 O4_2 1_555 1_555
O5_2 Cu4_2 1_555 1_555
C9_2 C10_2 1_555 1_555
C26_2 C27_2 1_555 1_555
N4_3 C31_3 1_555 1_555
C31_3 C29_2 1_555 1_555
H25_2 C31_3 1_555 1_555
C32_3 N4_3 1_555 1_555
H26_3 C32_3 1_555 1_555
Cu4_2 N4_3 1_555 1_555
Cu4_2 O1_3 1_555 1_555
Cu6 O2_3 1_555 1_555
O1_3 C1_3 1_555 1_555
O2_3 C1_3 1_555 1_555
O6_3 Cu4_2 1_555 1_555
O7_3 Cu6 1_555 1_555
O8_3 C15_3 1_555 1_555
N1_3 H1_3 1_555 1_555
N2_3 H2_3 1_555 1_555
N3_3 Cu4_2 1_555 1_555
N5_3 Cu6 1_555 1_555
C1_3 C2_3 1_555 1_555
C2_3 N1_3 1_555 1_555
H3_3 C2_3 1_555 1_555
C3_3 C2_3 1_555 1_555
H4_3 C3_3 1_555 1_555
H5_3 C3_3 1_555 1_555
H6_3 C3_3 1_555 1_555
C4_3 N1_3 1_555 1_555
H7_3 C6_3 1_555 1_555
C8_3 C6_3 1_555 1_555
H9_3 C8_3 1_555 1_555
C12_3 O6_3 1_555 1_555
C13_3 N2_3 1_555 1_555
H11_3 C13_3 1_555 1_555
C14_3 C13_3 1_555 1_555
H12_3 C14_3 1_555 1_555
H13_3 C14_3 1_555 1_555
H14_3 C14_3 1_555 1_555
C15_3 N2_3 1_555 1_555
C16_3 C15_3 1_555 1_555
C17_3 C16_3 1_555 1_555
H15_3 C17_3 1_555 1_555
C19_3 C17_3 1_555 1_555
H17_3 C19_3 1_555 1_555
C23_3 N3_3 1_555 1_555
H19_3 C23_3 1_555 1_555
C24_3 N3_3 1_555 1_555
H20_3 C24_3 1_555 1_555
C25_3 C23_3 1_555 1_555
H21_3 C25_3 1_555 1_555
C26_3 C24_3 1_555 1_555
H22_3 C26_3 1_555 1_555
C27_3 C25_3 1_555 1_555
C33_3 N5_3 1_555 1_555
H27_3 C33_3 1_555 1_555
C34_3 N5_3 1_555 1_555
H28_3 C34_3 1_555 1_555
C36_3 C34_3 1_555 1_555
N8_2 Cu6 1_555 1_555
O7_3 C12_3 1_555 1_555
C12_3 C13_3 1_555 1_555
C26_3 C27_3 1_555 1_555
N8_2 C41_3 1_555 1_555
C38_3 C37_3 1_555 1_555
C39_3 C38_3 1_555 1_555
H31_3 C39_3 1_555 1_555
C40_2 C38_3 1_555 1_555
H32_2 C40_2 1_555 1_555
C41_3 C39_3 1_555 1_555
H33_3 C41_3 1_555 1_555
C42_2 N8_2 1_555 1_555
H34_2 C42_2 1_555 1_555
C40_2 C42_2 1_555 1_555
O11 C11_3 1_555 1_555
O12 C11_3 1_555 1_555
C7_3 C5_3 1_555 1_555
H8_3 C7_3 1_555 1_555
C9_3 C7_3 1_555 1_555
H10_3 C9_3 1_555 1_555
C11_3 C10_3 1_555 1_555
C9_3 C10_3 1_555 1_555
O4_3 C11_4 1_555 1_555
O5_3 C11_4 1_555 1_555
C7_4 C5_4 1_555 1_555
H8_4 C7_4 1_555 1_555
C9_4 C7_4 1_555 1_555
H10_4 C9_4 1_555 1_555
C11_4 C10_4 1_555 1_555
H32_3 C40_3 1_555 1_555
H34_3 C42_3 1_555 1_555
Cu4_3 O4_3 1_555 1_555
O5_3 Cu4_3 1_555 1_555
C9_4 C10_4 1_555 1_555
C40_3 C42_3 1_555 1_555
N6_2 C41_4 1_555 1_555
C38_4 C37_4 1_555 1_555
C39_4 C38_4 1_555 1_555
H31_4 C39_4 1_555 1_555
C41_4 C39_4 1_555 1_555
H33_4 C41_4 1_555 1_555
Cu5_2 N6_2 1_555 1_555
Cu1 O1_4 1_555 1_555
O1_4 C1_4 1_555 1_555
O2_4 C1_4 1_555 1_555
N1_4 H1_4 1_555 1_555
N3_4 Cu1 1_555 1_555
C1_4 C2_4 1_555 1_555
C2_4 N1_4 1_555 1_555
H3_4 C2_4 1_555 1_555
C3_4 C2_4 1_555 1_555
H4_4 C3_4 1_555 1_555
H5_4 C3_4 1_555 1_555
H6_4 C3_4 1_555 1_555
C4_4 N1_4 1_555 1_555
H7_4 C6_4 1_555 1_555
C8_4 C6_4 1_555 1_555
H9_4 C8_4 1_555 1_555
C24_4 N3_4 1_555 1_555
H20_4 C24_4 1_555 1_555
C26_4 C24_4 1_555 1_555
H22_4 C26_4 1_555 1_555
C28_3 C27_4 1_555 1_555
C30_3 C28_3 1_555 1_555
H24_3 C30_3 1_555 1_555
H28_4 C34_4 1_555 1_555
C36_4 C34_4 1_555 1_555
O11_2 Cu1 1_555 1_555
O12_2 Cu1 1_555 1_555
N7 Cu1 1_555 1_555
C26_4 C27_4 1_555 1_555
O7_4 Cu5_2 1_555 1_555
O8_4 C15_4 1_555 1_555
O9_2 C22_4 1_555 1_555
O10_4 C22_4 1_555 1_555
N2_4 H2_4 1_555 1_555
N5_4 Cu5_2 1_555 1_555
C12_4 O6_4 1_555 1_555
C13_4 N2_4 1_555 1_555
H11_4 C13_4 1_555 1_555
C14_4 C13_4 1_555 1_555
H12_4 C14_4 1_555 1_555
H13_4 C14_4 1_555 1_555
H14_4 C14_4 1_555 1_555
C15_4 N2_4 1_555 1_555
C16_4 C15_4 1_555 1_555
C17_4 C16_4 1_555 1_555
H15_4 C17_4 1_555 1_555
C18_4 C16_4 1_555 1_555
H16_4 C18_4 1_555 1_555
C19_4 C17_4 1_555 1_555
H17_4 C19_4 1_555 1_555
C20_4 C18_4 1_555 1_555
H18_4 C20_4 1_555 1_555
C21_4 C19_4 1_555 1_555
C22_4 C21_4 1_555 1_555
H19_4 C23_4 1_555 1_555
C25_4 C23_4 1_555 1_555
H21_4 C25_4 1_555 1_555
C33_4 N5_4 1_555 1_555
H27_4 C33_4 1_555 1_555
C35_4 C33_4 1_555 1_555
H29_4 C35_4 1_555 1_555
Cu6_2 O9_2 1_555 1_555
O7_4 C12_4 1_555 1_555
C12_4 C13_4 1_555 1_555
C20_4 C21_4 1_555 1_555
N7 C31_4 1_555 1_555
C32_4 N7 1_555 1_555
H26_4 C32_4 1_555 1_555
O7_5 Cu2_2 1_555 1_555
O8_5 C15_5 1_555 1_555
N2_5 H2_5 1_555 1_555
N5_5 Cu2_2 1_555 1_555
C12_5 O6_5 1_555 1_555
C13_5 N2_5 1_555 1_555
H11_5 C13_5 1_555 1_555
C14_5 C13_5 1_555 1_555
H12_5 C14_5 1_555 1_555
H13_5 C14_5 1_555 1_555
H14_5 C14_5 1_555 1_555
C15_5 N2_5 1_555 1_555
C16_5 C15_5 1_555 1_555
C17_5 C16_5 1_555 1_555
H15_5 C17_5 1_555 1_555
C19_5 C17_5 1_555 1_555
H17_5 C19_5 1_555 1_555
H19_5 C23_5 1_555 1_555
C25_5 C23_5 1_555 1_555
H21_5 C25_5 1_555 1_555
C33_5 N5_5 1_555 1_555
H27_5 C33_5 1_555 1_555
N8_3 Cu2_2 1_555 1_555
O7_5 C12_5 1_555 1_555
C12_5 C13_5 1_555 1_555
O10_5 C22_5 1_555 1_555
N8_3 C41_5 1_555 1_555
H16_5 C18_5 1_555 1_555
C20_5 C18_5 1_555 1_555
H18_5 C20_5 1_555 1_555
C22_5 C21_5 1_555 1_555
H29_5 C35_5 1_555 1_555
C37_5 C35_5 1_555 1_555
C38_5 C37_5 1_555 1_555
C39_5 C38_5 1_555 1_555
H31_5 C39_5 1_555 1_555
C41_5 C39_5 1_555 1_555
H33_5 C41_5 1_555 1_555
C20_5 C21_5 1_555 1_555
Cu4_3 O1_5 1_555 1_555
O1_5 C1_5 1_555 1_555
O2_5 C1_5 1_555 1_555
O3_5 C4_5 1_555 1_555
O4_4 C11_5 1_555 1_555
O5_4 C11_5 1_555 1_555
N1_5 H1_5 1_555 1_555
N3_5 Cu4_3 1_555 1_555
C1_5 C2_5 1_555 1_555
C2_5 N1_5 1_555 1_555
H3_5 C2_5 1_555 1_555
C3_5 C2_5 1_555 1_555
H4_5 C3_5 1_555 1_555
H5_5 C3_5 1_555 1_555
H6_5 C3_5 1_555 1_555
C4_5 N1_5 1_555 1_555
C5_5 C4_5 1_555 1_555
C6_5 C5_5 1_555 1_555
H7_5 C6_5 1_555 1_555
C7_5 C5_5 1_555 1_555
H8_5 C7_5 1_555 1_555
C8_5 C6_5 1_555 1_555
H9_5 C8_5 1_555 1_555
C9_5 C7_5 1_555 1_555
H10_5 C9_5 1_555 1_555
C10_5 C8_5 1_555 1_555
C11_5 C10_5 1_555 1_555
C24_5 N3_5 1_555 1_555
H20_5 C24_5 1_555 1_555
C26_5 C24_5 1_555 1_555
H22_5 C26_5 1_555 1_555
H28_5 C34_5 1_555 1_555
C36_5 C34_5 1_555 1_555
H30_5 C36_5 1_555 1_555
Cu4_4 O4_4 1_555 1_555
N7_2 Cu4_3 1_555 1_555
O5_4 Cu4_4 1_555 1_555
C9_5 C10_5 1_555 1_555
C26_5 C27_5 1_555 1_555
N7_2 C31_5 1_555 1_555
C30_4 C28_4 1_555 1_555
H24_4 C30_4 1_555 1_555
C32_5 N7_2 1_555 1_555
H26_5 C32_5 1_555 1_555
C30_4 C32_5 1_555 1_555
N6_3 C41_6 1_555 1_555
C38_6 C37_6 1_555 1_555
C39_6 C38_6 1_555 1_555
H31_6 C39_6 1_555 1_555
C40_4 C38_6 1_555 1_555
H32_4 C40_4 1_555 1_555
C41_6 C39_6 1_555 1_555
H33_6 C41_6 1_555 1_555
C42_4 N6_3 1_555 1_555
H34_4 C42_4 1_555 1_555
Cu6_2 N6_3 1_555 1_555
C40_4 C42_4 1_555 1_555
O11_2 C11_6 1_555 1_555
O12_2 C11_6 1_555 1_555
C7_6 C5_6 1_555 1_555
H8_6 C7_6 1_555 1_555
C9_6 C7_6 1_555 1_555
H10_6 C9_6 1_555 1_555
C11_6 C10_6 1_555 1_555
C9_6 C10_6 1_555 1_555
Cu4_4 O1_6 1_555 1_555
Cu6_2 O2_6 1_555 1_555
O1_6 C1_6 1_555 1_555
O2_6 C1_6 1_555 1_555
O6_6 Cu4_4 1_555 1_555
O7_6 Cu6_2 1_555 1_555
O8_6 C15_6 1_555 1_555
N1_6 H1_6 1_555 1_555
N2_6 H2_6 1_555 1_555
N3_6 Cu4_4 1_555 1_555
N5_6 Cu6_2 1_555 1_555
C1_6 C2_6 1_555 1_555
C2_6 N1_6 1_555 1_555
H3_6 C2_6 1_555 1_555
C3_6 C2_6 1_555 1_555
H4_6 C3_6 1_555 1_555
H5_6 C3_6 1_555 1_555
H6_6 C3_6 1_555 1_555
C4_6 N1_6 1_555 1_555
H7_6 C6_6 1_555 1_555
C8_6 C6_6 1_555 1_555
H9_6 C8_6 1_555 1_555
C12_6 O6_6 1_555 1_555
C13_6 N2_6 1_555 1_555
H11_6 C13_6 1_555 1_555
C14_6 C13_6 1_555 1_555
H12_6 C14_6 1_555 1_555
H13_6 C14_6 1_555 1_555
H14_6 C14_6 1_555 1_555
C15_6 N2_6 1_555 1_555
C16_6 C15_6 1_555 1_555
C17_6 C16_6 1_555 1_555
H15_6 C17_6 1_555 1_555
C19_6 C17_6 1_555 1_555
H17_6 C19_6 1_555 1_555
C23_6 N3_6 1_555 1_555
H19_6 C23_6 1_555 1_555
C24_6 N3_6 1_555 1_555
H20_6 C24_6 1_555 1_555
C25_6 C23_6 1_555 1_555
H21_6 C25_6 1_555 1_555
C26_6 C24_6 1_555 1_555
H22_6 C26_6 1_555 1_555
C27_6 C25_6 1_555 1_555
C33_6 N5_6 1_555 1_555
H27_6 C33_6 1_555 1_555
C34_6 N5_6 1_555 1_555
H28_6 C34_6 1_555 1_555
C36_6 C34_6 1_555 1_555
N7_3 Cu4_4 1_555 1_555
O7_6 C12_6 1_555 1_555
C12_6 C13_6 1_555 1_555
C26_6 C27_6 1_555 1_555
N7_3 C31_6 1_555 1_555
C31_6 C29_3 1_555 1_555
H25_3 C31_6 1_555 1_555
C32_6 N7_3 1_555 1_555
H26_6 C32_6 1_555 1_555
O10_6 C22_6 1_555 1_555
H16_6 C18_6 1_555 1_555
C20_6 C18_6 1_555 1_555
H18_6 C20_6 1_555 1_555
C22_6 C21_6 1_555 1_555
H29_6 C35_6 1_555 1_555
C20_6 C21_6 1_555 1_555
H23_4 C29_4 1_555 1_555
H32_5 C40_5 1_555 1_555
H34_5 C42_5 1_555 1_555
C40_5 C42_5 1_555 1_555
H32_6 C40_6 1_555 1_555
H34_6 C42_6 1_555 1_555
C40_6 C42_6 1_555 1_555
C30_5 C28_5 1_555 1_555
H24_5 C30_5 1_555 1_555
C30_6 C28_6 1_555 1_555
H24_6 C30_6 1_555 1_555

#END
