
###############################################################################
#
# This file contains modified crystal structure data generated from the
# MOF subset of the Cambridge Structural Database (CSD) v543 
# hosted by the Cambridge Crystallographic Data Centre (CCDC).
#
# This work is licensed under the Creative Commons
# Attribution-NonCommercial-ShareAlike 4.0 International License.
# To view a copy of this license, visit
# http://creativecommons.org/licenses/by-nc-sa/4.0/
# or send a letter to
# Creative Commons, PO Box 1866, Mountain View, CA 94042, USA.
#
# CIF created using the CSD Python API on 29 September 2022
# The structure has been converted into the P1 space group
# The structure has a 3D framework
# The original CSD entry GETXEK is in the triclinic crystal system
# The framework has been calculated to contain at least 10.0% void space
# The void calculation uses a probe of radius 1.32A, grid spacing 0.4
#
###############################################################################

data_GETXEK
_chemical_formula_moiety         '(C104 H80 Cd4 N8 O16)n'
_symmetry_cell_setting           triclinic
_symmetry_space_group_name_H-M   'P 1'
_symmetry_Int_Tables_number      1
_space_group_name_Hall           'P 1'
loop_
_symmetry_equiv_pos_site_id
_symmetry_equiv_pos_as_xyz
1 x,y,z
_cell_length_a                   12.872(2)
_cell_length_b                   13.680(2)
_cell_length_c                   16.117(2)
_cell_angle_alpha                81.363(2)
_cell_angle_beta                 88.065(2)
_cell_angle_gamma                63.779(1)
_cell_volume                     2515.41
loop_
_atom_site_label
_atom_site_type_symbol
_atom_site_fract_x
_atom_site_fract_y
_atom_site_fract_z
Cd3 Cd 0.38488(3) 0.01438(2) 0.085809(19)
C15 C 0.0617(4) 0.0830(3) 0.2002(3)
C20 C 0.0597(4) 0.0749(4) 0.2861(3)
H12 H 0.1289 0.0433 0.3177
C28 C 0.2667(6) 0.2758(5) 0.0671(6)
H17 H 0.2117 0.2652 0.0386
C29 C 0.2431(6) 0.3831(5) 0.0747(6)
H18 H 0.1756 0.4418 0.0503
C30 C 0.3192(6) 0.4013(5) 0.1179(4)
C31 C 0.4190(7) 0.3108(5) 0.1462(4)
H19 H 0.4764 0.3190 0.1737
C32 C 0.4356(6) 0.2074(5) 0.1344(4)
H20 H 0.5049 0.1475 0.1545
C33 C 0.3074(7) 0.5157(5) 0.1249(5)
H21 H 0.2265 0.5690 0.1194
H22 H 0.3378 0.5154 0.1793
C34 C 0.3711(7) 0.5444(5) 0.0595(5)
H23 H 0.3355 0.5495 0.0060
H24 H 0.4491 0.4852 0.0621
C47 C 0.1736(4) 0.0563(4) 0.1569(3)
C48 C 0.4786(5) 0.7549(4) 0.0891(3)
H37 H 0.5459 0.7550 0.1082
C49 C 0.2964(5) 0.8467(4) 0.0337(3)
H38 H 0.2334 0.9133 0.0140
C50 C 0.2860(6) 0.7525(5) 0.0319(4)
H39 H 0.2184 0.7550 0.0108
C51 C 0.3787(7) 0.6521(5) 0.0622(4)
C52 C 0.4762(6) 0.6549(4) 0.0907(4)
H40 H 0.5403 0.5897 0.1111
N1 N 0.3594(3) 0.1889(3) 0.0966(2)
N4 N 0.3905(4) 0.8503(3) 0.0619(2)
O4 O 0.2670(3) 0.0021(3) 0.19950(19)
O6 O 0.1707(3) 0.0919(3) 0.07986(19)
O9 O 0.5994(3) 0.9446(3) 0.06038(19)
O10 O 0.5361(3) 0.9437(3) 0.1873(2)
C16 C 0.9584(4) 0.1215(4) 0.1545(3)
H9 H 0.9592 0.1229 0.0966
C17 C 0.8540(4) 0.1581(4) 0.1946(3)
H10 H 0.7851 0.1827 0.1636
C18 C 0.8517(4) 0.1582(4) 0.2817(3)
C19 C 0.9547(4) 0.1136(4) 0.3261(3)
H11 H 0.9548 0.1090 0.3843
C21 C 0.7394(4) 0.2101(4) 0.3232(3)
C22 C 0.6541(5) 0.1739(5) 0.3173(3)
H13 H 0.6687 0.1154 0.2885
C23 C 0.5499(5) 0.2237(5) 0.3534(4)
H14 H 0.4936 0.1994 0.3484
C24 C 0.5276(5) 0.3088(5) 0.3968(4)
H15 H 0.4560 0.3430 0.4206
C25 C 0.6107(5) 0.3440(4) 0.4053(4)
H16 H 0.5958 0.4004 0.4364
C26 C 0.7167(4) 0.2965(4) 0.3680(3)
C27 C 0.8000(4) 0.3455(3) 0.3760(3)
O5 O 0.8329(3) 0.3857(3) 0.3122(2)
O7 O 0.8281(3) 0.3477(3) 0.4494(2)
Cd6 Cd 0.93014(3) 0.45021(2) 0.41161(2)
H2 H 0.9959 0.1939 0.8787
C8 C 0.9145(4) 0.2706(3) 0.7229(3)
C9 C 0.8386(4) 0.2247(4) 0.7478(3)
H5 H 0.8650 0.1605 0.7867
C10 C 0.7264(4) 0.2709(4) 0.7168(3)
H6 H 0.6777 0.2389 0.7352
C11 C 0.6866(4) 0.3648(5) 0.6586(3)
H7 H 0.6105 0.3966 0.6376
C12 C 0.7589(4) 0.4121(4) 0.6310(3)
H8 H 0.7320 0.4743 0.5902
C13 C 0.8729(4) 0.3671(3) 0.6643(3)
C14 C 0.9427(4) 0.4291(3) 0.6366(3)
C35 C 0.6756(4) 0.6362(4) 0.3353(3)
H25 H 0.6933 0.5903 0.2945
C36 C 0.7271(4) 0.6786(4) 0.4539(3)
H26 H 0.7806 0.6641 0.4969
C37 C 0.6218(4) 0.7700(4) 0.4509(3)
H27 H 0.6054 0.8154 0.4919
C38 C 0.5392(4) 0.7955(4) 0.3871(3)
C39 C 0.5694(4) 0.7271(4) 0.3292(3)
H28 H 0.5180 0.7415 0.2847
C40 C 0.4194(5) 0.8916(5) 0.3843(4)
H29 H 0.3806 0.8998 0.3313
H30 H 0.3752 0.8737 0.4288
C41 C 0.4172(6) 0.9910(6) 0.3925(7)
H32 H 0.4612 0.9807 0.4434
N3 N 0.7553(3) 0.6104(3) 0.3973(2)
O3 O 0.9518(3) 0.4565(3) 0.55996(19)
O8 O 0.9881(3) 0.4568(3) 0.69072(19)
H31 H 0.5426 0.9896 0.6542
C42 C 0.8322(4) 0.7283(4) 0.6581(4)
H33 H 0.8486 0.6681 0.6998
C43 C 0.8838(5) 0.8044(4) 0.5394(3)
H34 H 0.9359 0.8007 0.4973
C44 C 0.7330(5) 0.8222(6) 0.6640(5)
H35 H 0.6863 0.8253 0.7098
C45 C 0.7820(7) 0.9029(4) 0.5407(5)
H36 H 0.7672 0.9634 0.4995
C46 C 0.7032(6) 0.9095(6) 0.6041(6)
N2 N 0.9069(3) 0.7168(3) 0.5967(2)
C1 C 0.6180(4) 0.9263(3) 0.1389(3)
C2 C 0.7387(4) 0.8822(3) 0.1741(3)
C3 C 0.8313(4) 0.8637(4) 0.1233(3)
H1 H 0.8186 0.8834 0.0654
C4 C 0.9429(4) 0.8164(4) 0.1569(3)
C5 C 0.9651(4) 0.7843(3) 0.2419(3)
C6 C 0.8711(4) 0.8061(4) 0.2939(3)
H3 H 0.8839 0.7875 0.3518
C7 C 0.7597(4) 0.8546(4) 0.2605(3)
H4 H 0.6979 0.8690 0.2961
C1_2 C 0.3820(4) 0.0737(3) 0.8611(3)
C2_2 C 0.2613(4) 0.1178(3) 0.8259(3)
C3_2 C 0.1687(4) 0.1363(4) 0.8767(3)
H1_2 H 0.1814 0.1166 0.9346
C4_2 C 0.0571(4) 0.1836(4) 0.8431(3)
C5_2 C 0.0349(4) 0.2157(3) 0.7581(3)
C6_2 C 0.1289(4) 0.1939(4) 0.7061(3)
H3_2 H 0.1161 0.2125 0.6482
C7_2 C 0.2403(4) 0.1454(4) 0.7395(3)
H4_2 H 0.3021 0.1310 0.7039
O1 O 0.4006(3) 0.0554(3) 0.93962(19)
O2 O 0.4639(3) 0.0563(3) 0.8127(2)
N5 N 0.0931(3) 0.2832(3) 0.4033(2)
O11 O 0.0482(3) 0.5435(3) 0.44004(19)
O14 O 0.0119(3) 0.5432(3) 0.30928(19)
Cd7 Cd 0.06986(3) 0.54979(2) 0.58839(2)
Cd4 Cd 0.61512(3) 0.98562(2) 0.914191(19)
H31_2 H 0.4574 0.0104 0.3458
C42_2 C 0.1678(4) 0.2717(4) 0.3419(4)
H33_2 H 0.1514 0.3319 0.3002
C43_2 C 0.1162(5) 0.1956(4) 0.4606(3)
H34_2 H 0.0641 0.1993 0.5027
C44_2 C 0.2670(5) 0.1778(6) 0.3360(5)
H35_2 H 0.3137 0.1747 0.2902
C45_2 C 0.2180(7) 0.0971(4) 0.4593(5)
H36_2 H 0.2328 0.0366 0.5005
C46_2 C 0.2968(6) 0.0905(6) 0.3959(6)
H2_2 H 0.0041 0.8061 0.1213
C8_2 C 0.0855(4) 0.7294(3) 0.2771(3)
C9_2 C 0.1614(4) 0.7753(4) 0.2522(3)
H5_2 H 0.1350 0.8395 0.2133
C10_2 C 0.2736(4) 0.7291(4) 0.2832(3)
H6_2 H 0.3223 0.7611 0.2648
C11_2 C 0.3134(4) 0.6352(5) 0.3414(3)
H7_2 H 0.3895 0.6034 0.3624
C12_2 C 0.2411(4) 0.5879(4) 0.3690(3)
H8_2 H 0.2680 0.5257 0.4098
C13_2 C 0.1271(4) 0.6329(3) 0.3357(3)
C14_2 C 0.0573(4) 0.5709(3) 0.3634(3)
C35_2 C 0.3244(4) 0.3638(4) 0.6647(3)
H25_2 H 0.3067 0.4097 0.7055
C36_2 C 0.2729(4) 0.3214(4) 0.5461(3)
H26_2 H 0.2194 0.3359 0.5031
C37_2 C 0.3782(4) 0.2300(4) 0.5491(3)
H27_2 H 0.3946 0.1846 0.5081
C38_2 C 0.4608(4) 0.2045(4) 0.6129(3)
C39_2 C 0.4306(4) 0.2729(4) 0.6708(3)
H28_2 H 0.4820 0.2585 0.7153
C40_2 C 0.5806(5) 0.1084(5) 0.6157(4)
H29_2 H 0.6194 0.1002 0.6687
H30_2 H 0.6248 0.1263 0.5712
C41_2 C 0.5828(6) 0.0090(6) 0.6075(7)
H32_2 H 0.5388 0.0193 0.5566
N3_2 N 0.2447(3) 0.3896(3) 0.6027(2)
O12 O 0.1671(3) 0.6143(3) 0.6878(2)
O13 O 0.1719(3) 0.6523(3) 0.5506(2)
C16_2 C 0.0416(4) 0.8785(4) 0.8455(3)
H9_2 H 0.0408 0.8771 0.9034
C17_2 C 0.1460(4) 0.8419(4) 0.8054(3)
H10_2 H 0.2149 0.8173 0.8364
C18_2 C 0.1483(4) 0.8418(4) 0.7183(3)
C19_2 C 0.0453(4) 0.8864(4) 0.6739(3)
H11_2 H 0.0452 0.8910 0.6157
C21_2 C 0.2606(4) 0.7899(4) 0.6768(3)
C22_2 C 0.3459(5) 0.8261(5) 0.6827(3)
H13_2 H 0.3313 0.8846 0.7115
C23_2 C 0.4501(5) 0.7763(5) 0.6466(4)
H14_2 H 0.5064 0.8006 0.6516
C24_2 C 0.4724(5) 0.6912(5) 0.6032(4)
H15_2 H 0.5440 0.6570 0.5794
C25_2 C 0.3893(5) 0.6560(4) 0.5947(4)
H16_2 H 0.4042 0.5996 0.5636
C26_2 C 0.2833(4) 0.7035(4) 0.6320(3)
C27_2 C 0.2000(4) 0.6545(3) 0.6240(3)
N6 N 0.6095(4) 0.1497(3) 0.9381(2)
C15_2 C 0.9383(4) 0.9170(3) 0.7998(3)
C20_2 C 0.9403(4) 0.9251(4) 0.7139(3)
H12_2 H 0.8711 0.9567 0.6823
C28_2 C 0.7333(6) 0.7242(5) 0.9329(6)
H17_2 H 0.7883 0.7348 0.9614
C29_2 C 0.7569(6) 0.6169(5) 0.9253(6)
H18_2 H 0.8244 0.5582 0.9497
C30_2 C 0.6808(6) 0.5987(5) 0.8821(4)
C31_2 C 0.5810(7) 0.6892(5) 0.8538(4)
H19_2 H 0.5236 0.6810 0.8263
C32_2 C 0.5644(6) 0.7926(5) 0.8656(4)
H20_2 H 0.4951 0.8525 0.8455
C33_2 C 0.6926(7) 0.4843(5) 0.8751(5)
H21_2 H 0.7735 0.4310 0.8806
H22_2 H 0.6622 0.4846 0.8207
C34_2 C 0.6289(7) 0.4556(5) 0.9405(5)
H23_2 H 0.6645 0.4505 0.9940
H24_2 H 0.5509 0.5148 0.9379
C47_2 C 0.8264(4) 0.9437(4) 0.8431(3)
C48_2 C 0.5214(5) 0.2451(4) 0.9109(3)
H37_2 H 0.4541 0.2450 0.8918
C49_2 C 0.7036(5) 0.1533(4) 0.9663(3)
H38_2 H 0.7666 0.0867 0.9860
C50_2 C 0.7140(6) 0.2475(5) 0.9681(4)
H39_2 H 0.7816 0.2450 0.9892
C51_2 C 0.6213(7) 0.3479(5) 0.9378(4)
C52_2 C 0.5238(6) 0.3451(4) 0.9093(4)
H40_2 H 0.4597 0.4103 0.8889
N1_2 N 0.6406(3) 0.8111(3) 0.9034(2)
O4_2 O 0.7330(3) 0.9979(3) 0.80050(19)
O6_2 O 0.8293(3) 0.9081(3) 0.92014(19)
loop_
_geom_bond_atom_site_label_1
_geom_bond_atom_site_label_2
_geom_bond_site_symmetry_1
_geom_bond_site_symmetry_2
C20 C15 1_555 1_555
H12 C20 1_555 1_555
C28 H17 1_555 1_555
C29 C28 1_555 1_555
H18 C29 1_555 1_555
C30 C29 1_555 1_555
C31 C30 1_555 1_555
H19 C31 1_555 1_555
C32 C31 1_555 1_555
H20 C32 1_555 1_555
C33 C30 1_555 1_555
H21 C33 1_555 1_555
H22 C33 1_555 1_555
C34 C33 1_555 1_555
H23 C34 1_555 1_555
H24 C34 1_555 1_555
C47 C15 1_555 1_555
C48 H37 1_555 1_555
C49 H38 1_555 1_555
C50 C49 1_555 1_555
H39 C50 1_555 1_555
C51 C34 1_555 1_555
C52 C48 1_555 1_555
H40 C52 1_555 1_555
N1 C28 1_555 1_555
N4 C48 1_555 1_555
O4 C47 1_555 1_555
O6 C47 1_555 1_555
Cd3 N1 1_555 1_555
C32 N1 1_555 1_555
C49 N4 1_555 1_555
C50 C51 1_555 1_555
C51 C52 1_555 1_555
O4 Cd3 1_555 1_555
O6 Cd3 1_555 1_555
C16 H9 1_555 1_555
C17 C16 1_555 1_555
H10 C17 1_555 1_555
C18 C17 1_555 1_555
C19 C18 1_555 1_555
H11 C19 1_555 1_555
C21 C18 1_555 1_555
C22 C21 1_555 1_555
H13 C22 1_555 1_555
C23 C22 1_555 1_555
H14 C23 1_555 1_555
C24 C23 1_555 1_555
H15 C24 1_555 1_555
C25 C24 1_555 1_555
H16 C25 1_555 1_555
C26 C21 1_555 1_555
C27 C26 1_555 1_555
O5 C27 1_555 1_555
O7 C27 1_555 1_555
Cd6 O5 1_555 1_555
C25 C26 1_555 1_555
O7 Cd6 1_555 1_555
C9 C8 1_555 1_555
H5 C9 1_555 1_555
C10 C9 1_555 1_555
H6 C10 1_555 1_555
C11 C10 1_555 1_555
H7 C11 1_555 1_555
C12 C11 1_555 1_555
H8 C12 1_555 1_555
C13 C8 1_555 1_555
C14 C13 1_555 1_555
C35 H25 1_555 1_555
C36 H26 1_555 1_555
C37 C36 1_555 1_555
H27 C37 1_555 1_555
C38 C37 1_555 1_555
C39 C35 1_555 1_555
H28 C39 1_555 1_555
C40 C38 1_555 1_555
H29 C40 1_555 1_555
H30 C40 1_555 1_555
C41 C40 1_555 1_555
H32 C41 1_555 1_555
N3 C35 1_555 1_555
O3 C14 1_555 1_555
O8 C14 1_555 1_555
Cd6 N3 1_555 1_555
C12 C13 1_555 1_555
C36 N3 1_555 1_555
C38 C39 1_555 1_555
O3 Cd6 1_555 1_555
C42 H33 1_555 1_555
C43 H34 1_555 1_555
C44 C42 1_555 1_555
H35 C44 1_555 1_555
C45 C43 1_555 1_555
H36 C45 1_555 1_555
N2 C42 1_555 1_555
C43 N2 1_555 1_555
C44 C46 1_555 1_555
C45 C46 1_555 1_555
C1 C2 1_555 1_555
C2 C3 1_555 1_555
C3 H1 1_555 1_555
C4 C3 1_555 1_555
C5 C4 1_555 1_555
C6 C5 1_555 1_555
H3 C6 1_555 1_555
C7 C2 1_555 1_555
H4 C7 1_555 1_555
O9 C1 1_555 1_555
O10 C1 1_555 1_555
C6 C7 1_555 1_555
C1_2 C2_2 1_555 1_555
C2_2 C3_2 1_555 1_555
C3_2 H1_2 1_555 1_555
C4_2 C3_2 1_555 1_555
C5_2 C4_2 1_555 1_555
C6_2 C5_2 1_555 1_555
H3_2 C6_2 1_555 1_555
C7_2 C2_2 1_555 1_555
H4_2 C7_2 1_555 1_555
O1 C1_2 1_555 1_555
O2 C1_2 1_555 1_555
C6_2 C7_2 1_555 1_555
O11 Cd7 1_555 1_555
C42_2 H33_2 1_555 1_555
C43_2 H34_2 1_555 1_555
C44_2 C42_2 1_555 1_555
H35_2 C44_2 1_555 1_555
C45_2 C43_2 1_555 1_555
H36_2 C45_2 1_555 1_555
N5 C42_2 1_555 1_555
C43_2 N5 1_555 1_555
C44_2 C46_2 1_555 1_555
C45_2 C46_2 1_555 1_555
C9_2 C8_2 1_555 1_555
H5_2 C9_2 1_555 1_555
C10_2 C9_2 1_555 1_555
H6_2 C10_2 1_555 1_555
C11_2 C10_2 1_555 1_555
H7_2 C11_2 1_555 1_555
C12_2 C11_2 1_555 1_555
H8_2 C12_2 1_555 1_555
C13_2 C8_2 1_555 1_555
C14_2 C13_2 1_555 1_555
C35_2 H25_2 1_555 1_555
C36_2 H26_2 1_555 1_555
C37_2 C36_2 1_555 1_555
H27_2 C37_2 1_555 1_555
C38_2 C37_2 1_555 1_555
C39_2 C35_2 1_555 1_555
H28_2 C39_2 1_555 1_555
C40_2 C38_2 1_555 1_555
H29_2 C40_2 1_555 1_555
H30_2 C40_2 1_555 1_555
C41_2 C40_2 1_555 1_555
H32_2 C41_2 1_555 1_555
N3_2 C35_2 1_555 1_555
O11 C14_2 1_555 1_555
O14 C14_2 1_555 1_555
Cd7 N3_2 1_555 1_555
O12 Cd7 1_555 1_555
O13 Cd7 1_555 1_555
C12_2 C13_2 1_555 1_555
C36_2 N3_2 1_555 1_555
C38_2 C39_2 1_555 1_555
C16_2 H9_2 1_555 1_555
C17_2 C16_2 1_555 1_555
H10_2 C17_2 1_555 1_555
C18_2 C17_2 1_555 1_555
C19_2 C18_2 1_555 1_555
H11_2 C19_2 1_555 1_555
C21_2 C18_2 1_555 1_555
C22_2 C21_2 1_555 1_555
H13_2 C22_2 1_555 1_555
C23_2 C22_2 1_555 1_555
H14_2 C23_2 1_555 1_555
C24_2 C23_2 1_555 1_555
H15_2 C24_2 1_555 1_555
C25_2 C24_2 1_555 1_555
H16_2 C25_2 1_555 1_555
C26_2 C21_2 1_555 1_555
C27_2 C26_2 1_555 1_555
O12 C27_2 1_555 1_555
O13 C27_2 1_555 1_555
C25_2 C26_2 1_555 1_555
C20_2 C15_2 1_555 1_555
H12_2 C20_2 1_555 1_555
C28_2 H17_2 1_555 1_555
C29_2 C28_2 1_555 1_555
H18_2 C29_2 1_555 1_555
C30_2 C29_2 1_555 1_555
C31_2 C30_2 1_555 1_555
H19_2 C31_2 1_555 1_555
C32_2 C31_2 1_555 1_555
H20_2 C32_2 1_555 1_555
C33_2 C30_2 1_555 1_555
H21_2 C33_2 1_555 1_555
H22_2 C33_2 1_555 1_555
C34_2 C33_2 1_555 1_555
H23_2 C34_2 1_555 1_555
H24_2 C34_2 1_555 1_555
C47_2 C15_2 1_555 1_555
C48_2 H37_2 1_555 1_555
C49_2 H38_2 1_555 1_555
C50_2 C49_2 1_555 1_555
H39_2 C50_2 1_555 1_555
C51_2 C34_2 1_555 1_555
C52_2 C48_2 1_555 1_555
H40_2 C52_2 1_555 1_555
N1_2 C28_2 1_555 1_555
N6 C48_2 1_555 1_555
O4_2 C47_2 1_555 1_555
O6_2 C47_2 1_555 1_555
Cd4 N1_2 1_555 1_555
C32_2 N1_2 1_555 1_555
C49_2 N6 1_555 1_555
C50_2 C51_2 1_555 1_555
C51_2 C52_2 1_555 1_555
O4_2 Cd4 1_555 1_555
O6_2 Cd4 1_555 1_555

#END
