
###############################################################################
#
# This file contains modified crystal structure data generated from the
# MOF subset of the Cambridge Structural Database (CSD) v543 
# hosted by the Cambridge Crystallographic Data Centre (CCDC).
#
# This work is licensed under the Creative Commons
# Attribution-NonCommercial-ShareAlike 4.0 International License.
# To view a copy of this license, visit
# http://creativecommons.org/licenses/by-nc-sa/4.0/
# or send a letter to
# Creative Commons, PO Box 1866, Mountain View, CA 94042, USA.
#
# CIF created using the CSD Python API on 29 September 2022
# The structure has been converted into the P1 space group
# The structure has a 3D framework
# The original CSD entry GEVVUB is in the cubic crystal system
# The framework has been calculated to contain at least 10.0% void space
# The void calculation uses a probe of radius 1.32A, grid spacing 0.4
# H atom positions have been added when not included in the experimental data
# Generated hydrogen atom positions removed from atoms on special positions
#
###############################################################################

data_GEVVUB
_chemical_formula_moiety         '(C288 H672 Cr72 O264)n'
_symmetry_cell_setting           triclinic
_symmetry_space_group_name_H-M   'P 1'
_symmetry_Int_Tables_number      1
_space_group_name_Hall           'P 1'
loop_
_symmetry_equiv_pos_site_id
_symmetry_equiv_pos_as_xyz
1 x,y,z
_cell_length_a                   26.7134(6)
_cell_length_b                   26.7134(6)
_cell_length_c                   26.7134(6)
_cell_angle_alpha                90
_cell_angle_beta                 90
_cell_angle_gamma                90
_cell_volume                     19062.8
loop_
_atom_site_label
_atom_site_type_symbol
_atom_site_fract_x
_atom_site_fract_y
_atom_site_fract_z
C1 C 0.19918(19) 0.13513(14) 0.13513(14)
H1 H 0.228014 0.120405 0.120404
C2 C 0.17782(15) 0.17782(15) 0.1142(2)
C3 C 0.20265(14) 0.20265(14) 0.07024(19)
O1 O 0.24243(10) 0.18314(9) 0.05352(10)
O2 O 0.34153(17) 0.15847(17) 0.000000
Cr1 Cr 0.28102(3) 0.21898(3) 0.000000
C4 C 0.13513(14) 0.13513(14) 0.19918(19)
H2 H 0.120405 0.120404 0.228014
C5 C 0.17782(15) 0.1142(2) 0.17782(15)
C6 C 0.20265(14) 0.07024(19) 0.20265(14)
O3 O 0.18314(9) 0.05352(10) 0.24243(10)
C7 C 0.13513(14) 0.19918(19) 0.13513(14)
H3 H 0.120404 0.228014 0.120405
C8 C 0.1142(2) 0.17782(15) 0.17782(15)
C9 C 0.07024(19) 0.20265(14) 0.20265(14)
O4 O 0.05352(10) 0.24243(10) 0.18314(9)
O5 O 0.18314(9) 0.24243(10) 0.05352(10)
O6 O 0.05352(10) 0.18314(9) 0.24243(10)
O7 O 0.24243(10) 0.05352(10) 0.18314(9)
O9 O 0.15847(17) 0.34153(17) 0.000000
Cr2 Cr 0.21898(3) 0.28102(3) 0.000000
O15 O -0.000000 0.15847(17) 0.34153(17)
Cr3 Cr -0.000000 0.21898(3) 0.28102(3)
O17 O 0.05352(10) 0.25757(10) 0.31686(9)
O18 O 0.25757(10) 0.31686(9) 0.05352(10)
O22 O 0.31686(9) 0.25757(10) 0.05352(10)
Cr4 Cr 0.21898(3) 0.000000 0.28102(3)
Cr7 Cr -0.000000 0.28102(3) 0.21898(3)
Cr9 Cr 0.28102(3) 0.000000 0.21898(3)
O2_2 O 0.34153(17) 0.15847(17) 1.000000
Cr1_2 Cr 0.28102(3) 0.21898(3) 1.000000
C10 C 0.13513(14) 0.19918(19) 0.86487(14)
H4 H 0.120405 0.228014 0.879596
C11 C 0.17782(15) 0.17782(15) 0.8858(2)
C12 C 0.20265(14) 0.20265(14) 0.92976(19)
O8 O 0.18314(9) 0.24243(10) 0.94648(10)
O9_2 O 0.15847(17) 0.34153(17) 1.000000
Cr2_2 Cr 0.21898(3) 0.28102(3) 1.000000
C13 C 0.13513(14) 0.13513(14) 0.80082(19)
H5 H 0.120404 0.120405 0.771986
C14 C 0.1142(2) 0.17782(15) 0.82218(15)
C15 C 0.07024(19) 0.20265(14) 0.79735(14)
O10 O 0.05352(10) 0.18314(9) 0.75757(10)
C16 C 0.19918(19) 0.13513(14) 0.86487(14)
H6 H 0.228014 0.120404 0.879595
C17 C 0.17782(15) 0.1142(2) 0.82218(15)
C18 C 0.20265(14) 0.07024(19) 0.79735(14)
O11 O 0.24243(10) 0.05352(10) 0.81686(9)
O12 O 0.24243(10) 0.18314(9) 0.94648(10)
O13 O 0.18314(9) 0.05352(10) 0.75757(10)
O14 O 0.05352(10) 0.24243(10) 0.81686(9)
O19 O 0.31686(9) 0.25757(10) 0.94648(10)
O21 O 0.25757(10) 0.31686(9) 0.94648(10)
Cr5 Cr 0.21898(3) 0.000000 0.71898(3)
Cr6 Cr -0.000000 0.21898(3) 0.71898(3)
Cr8 Cr 0.000000 0.28102(3) 0.78102(3)
Cr10 Cr 0.28102(3) 0.000000 0.78102(3)
Cr4_2 Cr 0.21898(3) 1.000000 0.28102(3)
Cr9_2 Cr 0.28102(3) 1.000000 0.21898(3)
Cr5_2 Cr 0.21898(3) 1.000000 0.71898(3)
Cr10_2 Cr 0.28102(3) 1.000000 0.78102(3)
O15_2 O 1.000000 0.15847(17) 0.34153(17)
Cr3_2 Cr 1.000000 0.21898(3) 0.28102(3)
O16 O 0.94648(10) 0.18314(9) 0.24243(10)
O20 O 0.94648(10) 0.25757(10) 0.31686(9)
Cr7_2 Cr 1.000000 0.28102(3) 0.21898(3)
Cr6_2 Cr 1.000000 0.21898(3) 0.71898(3)
Cr8_2 Cr 1.000000 0.28102(3) 0.78102(3)
O2_3 O 0.34153(17) 0.84153(17) 0.000000
Cr1_3 Cr 0.28102(3) 0.78102(3) 0.000000
C10_2 C 0.13513(14) 0.80082(19) 0.13513(14)
H4_2 H 0.120405 0.771986 0.120404
C11_2 C 0.17782(15) 0.82218(15) 0.1142(2)
C12_2 C 0.20265(14) 0.79735(14) 0.07024(19)
O8_2 O 0.18314(9) 0.75757(10) 0.05352(10)
O9_3 O 0.15847(17) 0.65847(17) 0.000000
Cr2_3 Cr 0.21898(3) 0.71898(3) 0.000000
C13_2 C 0.13513(14) 0.86487(14) 0.19918(19)
H5_2 H 0.120404 0.879595 0.228014
C14_2 C 0.1142(2) 0.82218(15) 0.17782(15)
C15_2 C 0.07024(19) 0.79735(14) 0.20265(14)
O10_2 O 0.05352(10) 0.81686(9) 0.24243(10)
C16_2 C 0.19918(19) 0.86487(14) 0.13513(14)
H6_2 H 0.228014 0.879596 0.120405
C17_2 C 0.17782(15) 0.8858(2) 0.17782(15)
C18_2 C 0.20265(14) 0.92976(19) 0.20265(14)
O11_2 O 0.24243(10) 0.94648(10) 0.18314(9)
O12_2 O 0.24243(10) 0.81686(9) 0.05352(10)
O13_2 O 0.18314(9) 0.94648(10) 0.24243(10)
O14_2 O 0.05352(10) 0.75757(10) 0.18314(9)
O19_2 O 0.31686(9) 0.74243(10) 0.05352(10)
O21_2 O 0.25757(10) 0.68314(9) 0.05352(10)
Cr6_3 Cr 0.000000 0.78102(3) 0.28102(3)
Cr8_3 Cr -0.000000 0.71898(3) 0.21898(3)
C1_2 C 0.19918(19) 0.86487(14) 0.86487(14)
H1_2 H 0.228014 0.879595 0.879596
C2_2 C 0.17782(15) 0.82218(15) 0.8858(2)
C3_2 C 0.20265(14) 0.79735(14) 0.92976(19)
O1_2 O 0.24243(10) 0.81686(9) 0.94648(10)
O2_4 O 0.34153(17) 0.84153(17) 1.000000
Cr1_4 Cr 0.28102(3) 0.78102(3) 1.000000
C4_2 C 0.13513(14) 0.86487(14) 0.80082(19)
H2_2 H 0.120405 0.879596 0.771986
C5_2 C 0.17782(15) 0.8858(2) 0.82218(15)
C6_2 C 0.20265(14) 0.92976(19) 0.79735(14)
O3_2 O 0.18314(9) 0.94648(10) 0.75757(10)
C7_2 C 0.13513(14) 0.80082(19) 0.86487(14)
H3_2 H 0.120404 0.771986 0.879595
C8_2 C 0.1142(2) 0.82218(15) 0.82218(15)
C9_2 C 0.07024(19) 0.79735(14) 0.79735(14)
O4_2 O 0.05352(10) 0.75757(10) 0.81686(9)
O5_2 O 0.18314(9) 0.75757(10) 0.94648(10)
O6_2 O 0.05352(10) 0.81686(9) 0.75757(10)
O7_2 O 0.24243(10) 0.94648(10) 0.81686(9)
O9_4 O 0.15847(17) 0.65847(17) 1.000000
Cr2_4 Cr 0.21898(3) 0.71898(3) 1.000000
O15_3 O 0.000000 0.84153(17) 0.65847(17)
Cr3_3 Cr -0.000000 0.78102(3) 0.71898(3)
O17_2 O 0.05352(10) 0.74243(10) 0.68314(9)
O18_2 O 0.25757(10) 0.68314(9) 0.94648(10)
O22_2 O 0.31686(9) 0.74243(10) 0.94648(10)
Cr7_3 Cr -0.000000 0.71898(3) 0.78102(3)
Cr6_4 Cr 1.000000 0.78102(3) 0.28102(3)
Cr8_4 Cr 1.000000 0.71898(3) 0.21898(3)
O15_4 O 1.000000 0.84153(17) 0.65847(17)
Cr3_4 Cr 1.000000 0.78102(3) 0.71898(3)
O16_2 O 0.94648(10) 0.81686(9) 0.75757(10)
O20_2 O 0.94648(10) 0.74243(10) 0.68314(9)
Cr7_4 Cr 1.000000 0.71898(3) 0.78102(3)
O15_5 O 0.000000 0.84153(17) 0.34153(17)
O20_3 O 0.05352(10) 0.74243(10) 0.31686(9)
Cr4_3 Cr 0.78102(3) 0.000000 0.28102(3)
Cr9_3 Cr 0.71898(3) 0.000000 0.21898(3)
Cr5_3 Cr 0.78102(3) 0.000000 0.71898(3)
Cr10_3 Cr 0.71898(3) 0.000000 0.78102(3)
C1_3 C 0.80082(19) 0.86487(14) 0.13513(14)
H1_3 H 0.771986 0.879595 0.120404
C2_3 C 0.82218(15) 0.82218(15) 0.1142(2)
C3_3 C 0.79735(14) 0.79735(14) 0.07024(19)
O1_3 O 0.75757(10) 0.81686(9) 0.05352(10)
O2_5 O 0.65847(17) 0.84153(17) 0.000000
Cr1_5 Cr 0.71898(3) 0.78102(3) 0.000000
C4_3 C 0.86487(14) 0.86487(14) 0.19918(19)
H2_3 H 0.879595 0.879596 0.228014
C5_3 C 0.82218(15) 0.8858(2) 0.17782(15)
C6_3 C 0.79735(14) 0.92976(19) 0.20265(14)
O3_3 O 0.81686(9) 0.94648(10) 0.24243(10)
C7_3 C 0.86487(14) 0.80082(19) 0.13513(14)
H3_3 H 0.879596 0.771986 0.120405
C8_3 C 0.8858(2) 0.82218(15) 0.17782(15)
C9_3 C 0.92976(19) 0.79735(14) 0.20265(14)
O4_3 O 0.94648(10) 0.75757(10) 0.18314(9)
O5_3 O 0.81686(9) 0.75757(10) 0.05352(10)
O6_3 O 0.94648(10) 0.81686(9) 0.24243(10)
O7_3 O 0.75757(10) 0.94648(10) 0.18314(9)
O9_5 O 0.84153(17) 0.65847(17) 0.000000
Cr2_5 Cr 0.78102(3) 0.71898(3) 0.000000
O15_6 O 1.000000 0.84153(17) 0.34153(17)
O17_3 O 0.94648(10) 0.74243(10) 0.31686(9)
O18_3 O 0.74243(10) 0.68314(9) 0.05352(10)
O22_3 O 0.68314(9) 0.74243(10) 0.05352(10)
Cr4_4 Cr 0.78102(3) 1.000000 0.28102(3)
Cr9_4 Cr 0.71898(3) 1.000000 0.21898(3)
O2_6 O 0.65847(17) 0.84153(17) 1.000000
Cr1_6 Cr 0.71898(3) 0.78102(3) 1.000000
C10_3 C 0.86487(14) 0.80082(19) 0.86487(14)
H4_3 H 0.879595 0.771986 0.879596
C11_3 C 0.82218(15) 0.82218(15) 0.8858(2)
C12_3 C 0.79735(14) 0.79735(14) 0.92976(19)
O8_3 O 0.81686(9) 0.75757(10) 0.94648(10)
O9_6 O 0.84153(17) 0.65847(17) 1.000000
Cr2_6 Cr 0.78102(3) 0.71898(3) 1.000000
C13_3 C 0.86487(14) 0.86487(14) 0.80082(19)
H5_3 H 0.879596 0.879595 0.771986
C14_3 C 0.8858(2) 0.82218(15) 0.82218(15)
C15_3 C 0.92976(19) 0.79735(14) 0.79735(14)
C16_3 C 0.80082(19) 0.86487(14) 0.86487(14)
H6_3 H 0.771986 0.879596 0.879595
C17_3 C 0.82218(15) 0.8858(2) 0.82218(15)
C18_3 C 0.79735(14) 0.92976(19) 0.79735(14)
O11_3 O 0.75757(10) 0.94648(10) 0.81686(9)
O12_3 O 0.75757(10) 0.81686(9) 0.94648(10)
O13_3 O 0.81686(9) 0.94648(10) 0.75757(10)
O14_3 O 0.94648(10) 0.75757(10) 0.81686(9)
O19_3 O 0.68314(9) 0.74243(10) 0.94648(10)
O21_3 O 0.74243(10) 0.68314(9) 0.94648(10)
Cr5_4 Cr 0.78102(3) 1.000000 0.71898(3)
Cr10_4 Cr 0.71898(3) 1.000000 0.78102(3)
O15_7 O -0.000000 0.15847(17) 0.65847(17)
O20_4 O 0.05352(10) 0.25757(10) 0.68314(9)
O2_7 O 0.65847(17) 0.15847(17) 0.000000
Cr1_7 Cr 0.71898(3) 0.21898(3) 0.000000
C10_4 C 0.86487(14) 0.19918(19) 0.13513(14)
H4_4 H 0.879595 0.228014 0.120404
C11_4 C 0.82218(15) 0.17782(15) 0.1142(2)
C12_4 C 0.79735(14) 0.20265(14) 0.07024(19)
O8_4 O 0.81686(9) 0.24243(10) 0.05352(10)
O9_7 O 0.84153(17) 0.34153(17) 0.000000
Cr2_7 Cr 0.78102(3) 0.28102(3) 0.000000
C13_4 C 0.86487(14) 0.13513(14) 0.19918(19)
H5_4 H 0.879596 0.120405 0.228014
C14_4 C 0.8858(2) 0.17782(15) 0.17782(15)
C15_4 C 0.92976(19) 0.20265(14) 0.20265(14)
C16_4 C 0.80082(19) 0.13513(14) 0.13513(14)
H6_4 H 0.771986 0.120404 0.120405
C17_4 C 0.82218(15) 0.1142(2) 0.17782(15)
C18_4 C 0.79735(14) 0.07024(19) 0.20265(14)
O11_4 O 0.75757(10) 0.05352(10) 0.18314(9)
O12_4 O 0.75757(10) 0.18314(9) 0.05352(10)
O13_4 O 0.81686(9) 0.05352(10) 0.24243(10)
O14_4 O 0.94648(10) 0.24243(10) 0.18314(9)
O19_4 O 0.68314(9) 0.25757(10) 0.05352(10)
O21_4 O 0.74243(10) 0.31686(9) 0.05352(10)
C1_4 C 0.80082(19) 0.13513(14) 0.86487(14)
H1_4 H 0.771986 0.120405 0.879596
C2_4 C 0.82218(15) 0.17782(15) 0.8858(2)
C3_4 C 0.79735(14) 0.20265(14) 0.92976(19)
O1_4 O 0.75757(10) 0.18314(9) 0.94648(10)
O2_8 O 0.65847(17) 0.15847(17) 1.000000
Cr1_8 Cr 0.71898(3) 0.21898(3) 1.000000
C4_4 C 0.86487(14) 0.13513(14) 0.80082(19)
H2_4 H 0.879595 0.120404 0.771986
C5_4 C 0.82218(15) 0.1142(2) 0.82218(15)
C6_4 C 0.79735(14) 0.07024(19) 0.79735(14)
O3_4 O 0.81686(9) 0.05352(10) 0.75757(10)
C7_4 C 0.86487(14) 0.19918(19) 0.86487(14)
H3_4 H 0.879596 0.228014 0.879595
C8_4 C 0.8858(2) 0.17782(15) 0.82218(15)
C9_4 C 0.92976(19) 0.20265(14) 0.79735(14)
O4_4 O 0.94648(10) 0.24243(10) 0.81686(9)
O5_4 O 0.81686(9) 0.24243(10) 0.94648(10)
O6_4 O 0.94648(10) 0.18314(9) 0.75757(10)
O7_4 O 0.75757(10) 0.05352(10) 0.81686(9)
O9_8 O 0.84153(17) 0.34153(17) 1.000000
Cr2_8 Cr 0.78102(3) 0.28102(3) 1.000000
O15_8 O 1.000000 0.15847(17) 0.65847(17)
O17_4 O 0.94648(10) 0.25757(10) 0.68314(9)
O18_4 O 0.74243(10) 0.31686(9) 0.94648(10)
O22_4 O 0.68314(9) 0.25757(10) 0.94648(10)
O15_9 O 0.84153(17) -0.000000 0.34153(17)
O17_5 O 0.74243(10) 0.05352(10) 0.31686(9)
O15_10 O 0.84153(17) 1.000000 0.34153(17)
O20_5 O 0.74243(10) 0.94648(10) 0.31686(9)
O15_11 O 0.15847(17) -0.000000 0.65847(17)
O17_6 O 0.25757(10) 0.05352(10) 0.68314(9)
O15_12 O 0.15847(17) 1.000000 0.65847(17)
O20_6 O 0.25757(10) 0.94648(10) 0.68314(9)
O15_13 O 0.15847(17) -0.000000 0.34153(17)
O20_7 O 0.25757(10) 0.05352(10) 0.31686(9)
O15_14 O 0.15847(17) 1.000000 0.34153(17)
O17_7 O 0.25757(10) 0.94648(10) 0.31686(9)
O15_15 O 0.84153(17) -0.000000 0.65847(17)
O20_8 O 0.74243(10) 0.05352(10) 0.68314(9)
O15_16 O 0.84153(17) 1.000000 0.65847(17)
O17_8 O 0.74243(10) 0.94648(10) 0.68314(9)
O9_9 O 0.34153(17) 0.000000 0.15847(17)
O18_5 O 0.31686(9) 0.05352(10) 0.25757(10)
O9_10 O 0.34153(17) 1.000000 0.15847(17)
O21_5 O 0.31686(9) 0.94648(10) 0.25757(10)
O9_11 O 0.65847(17) 0.000000 0.15847(17)
O21_6 O 0.68314(9) 0.05352(10) 0.25757(10)
O9_12 O 0.65847(17) 1.000000 0.15847(17)
O18_6 O 0.68314(9) 0.94648(10) 0.25757(10)
O9_13 O 0.34153(17) 0.000000 0.84153(17)
O21_7 O 0.31686(9) 0.05352(10) 0.74243(10)
O9_14 O 0.34153(17) 1.000000 0.84153(17)
O18_7 O 0.31686(9) 0.94648(10) 0.74243(10)
O9_15 O 0.65847(17) 0.000000 0.84153(17)
O18_8 O 0.68314(9) 0.05352(10) 0.74243(10)
O9_16 O 0.65847(17) 1.000000 0.84153(17)
O21_8 O 0.68314(9) 0.94648(10) 0.74243(10)
O9_17 O -0.000000 0.34153(17) 0.15847(17)
O21_9 O 0.05352(10) 0.31686(9) 0.25757(10)
O9_18 O 1.000000 0.34153(17) 0.15847(17)
O18_9 O 0.94648(10) 0.31686(9) 0.25757(10)
O9_19 O 0.000000 0.65847(17) 0.84153(17)
O21_10 O 0.05352(10) 0.68314(9) 0.74243(10)
O9_20 O 1.000000 0.65847(17) 0.84153(17)
O18_10 O 0.94648(10) 0.68314(9) 0.74243(10)
O9_21 O -0.000000 0.65847(17) 0.15847(17)
O18_11 O 0.05352(10) 0.68314(9) 0.25757(10)
O9_22 O 1.000000 0.65847(17) 0.15847(17)
O21_11 O 0.94648(10) 0.68314(9) 0.25757(10)
O9_23 O -0.000000 0.34153(17) 0.84153(17)
O18_12 O 0.05352(10) 0.31686(9) 0.74243(10)
O9_24 O 1.000000 0.34153(17) 0.84153(17)
O21_12 O 0.94648(10) 0.31686(9) 0.74243(10)
C1_5 C 0.19918(19) 0.63513(14) 0.63513(14)
H1_5 H 0.228014 0.620405 0.620404
C2_5 C 0.17782(15) 0.67782(15) 0.6142(2)
C3_5 C 0.20265(14) 0.70265(14) 0.57024(19)
O1_5 O 0.24243(10) 0.68314(9) 0.55352(10)
O2_9 O 0.34153(17) 0.65847(17) 0.500000
Cr1_9 Cr 0.28102(3) 0.71898(3) 0.500000
C4_5 C 0.13513(14) 0.63513(14) 0.69918(19)
H2_5 H 0.120405 0.620404 0.728014
C5_5 C 0.17782(15) 0.6142(2) 0.67782(15)
C6_5 C 0.20265(14) 0.57024(19) 0.70265(14)
O3_5 O 0.18314(9) 0.55352(10) 0.74243(10)
C7_5 C 0.13513(14) 0.69918(19) 0.63513(14)
H3_5 H 0.120404 0.728014 0.620405
C8_5 C 0.1142(2) 0.67782(15) 0.67782(15)
C9_5 C 0.07024(19) 0.70265(14) 0.70265(14)
O5_5 O 0.18314(9) 0.74243(10) 0.55352(10)
O7_5 O 0.24243(10) 0.55352(10) 0.68314(9)
C10_5 C 0.13513(14) 0.69918(19) 0.36487(14)
H4_5 H 0.120405 0.728014 0.379596
C11_5 C 0.17782(15) 0.67782(15) 0.3858(2)
C12_5 C 0.20265(14) 0.70265(14) 0.42976(19)
O8_5 O 0.18314(9) 0.74243(10) 0.44648(10)
O9_25 O 0.15847(17) 0.84153(17) 0.500000
Cr2_9 Cr 0.21898(3) 0.78102(3) 0.500000
C13_5 C 0.13513(14) 0.63513(14) 0.30082(19)
H5_5 H 0.120404 0.620405 0.271986
C14_5 C 0.1142(2) 0.67782(15) 0.32218(15)
C15_5 C 0.07024(19) 0.70265(14) 0.29735(14)
C16_5 C 0.19918(19) 0.63513(14) 0.36487(14)
H6_5 H 0.228014 0.620404 0.379595
C17_5 C 0.17782(15) 0.6142(2) 0.32218(15)
C18_5 C 0.20265(14) 0.57024(19) 0.29735(14)
O11_5 O 0.24243(10) 0.55352(10) 0.31686(9)
O12_5 O 0.24243(10) 0.68314(9) 0.44648(10)
O13_5 O 0.18314(9) 0.55352(10) 0.25757(10)
O18_13 O 0.25757(10) 0.81686(9) 0.55352(10)
O19_5 O 0.31686(9) 0.75757(10) 0.44648(10)
O21_13 O 0.25757(10) 0.81686(9) 0.44648(10)
O22_5 O 0.31686(9) 0.75757(10) 0.55352(10)
Cr4_5 Cr 0.21898(3) 0.500000 0.78102(3)
Cr5_5 Cr 0.21898(3) 0.500000 0.21898(3)
Cr9_5 Cr 0.28102(3) 0.500000 0.71898(3)
Cr10_5 Cr 0.28102(3) 0.500000 0.28102(3)
C1_6 C 0.19918(19) 0.36487(14) 0.36487(14)
H1_6 H 0.228014 0.379595 0.379596
C2_6 C 0.17782(15) 0.32218(15) 0.3858(2)
C3_6 C 0.20265(14) 0.29735(14) 0.42976(19)
O1_6 O 0.24243(10) 0.31686(9) 0.44648(10)
O2_10 O 0.34153(17) 0.34153(17) 0.500000
Cr1_10 Cr 0.28102(3) 0.28102(3) 0.500000
C4_6 C 0.13513(14) 0.36487(14) 0.30082(19)
H2_6 H 0.120405 0.379596 0.271986
C5_6 C 0.17782(15) 0.3858(2) 0.32218(15)
C6_6 C 0.20265(14) 0.42976(19) 0.29735(14)
O3_6 O 0.18314(9) 0.44648(10) 0.25757(10)
C7_6 C 0.13513(14) 0.30082(19) 0.36487(14)
H3_6 H 0.120404 0.271986 0.379595
C8_6 C 0.1142(2) 0.32218(15) 0.32218(15)
C9_6 C 0.07024(19) 0.29735(14) 0.29735(14)
O5_6 O 0.18314(9) 0.25757(10) 0.44648(10)
O7_6 O 0.24243(10) 0.44648(10) 0.31686(9)
C10_6 C 0.13513(14) 0.30082(19) 0.63513(14)
H4_6 H 0.120405 0.271986 0.620404
C11_6 C 0.17782(15) 0.32218(15) 0.6142(2)
C12_6 C 0.20265(14) 0.29735(14) 0.57024(19)
O8_6 O 0.18314(9) 0.25757(10) 0.55352(10)
O9_26 O 0.15847(17) 0.15847(17) 0.500000
Cr2_10 Cr 0.21898(3) 0.21898(3) 0.500000
C13_6 C 0.13513(14) 0.36487(14) 0.69918(19)
H5_6 H 0.120404 0.379595 0.728014
C14_6 C 0.1142(2) 0.32218(15) 0.67782(15)
C15_6 C 0.07024(19) 0.29735(14) 0.70265(14)
C16_6 C 0.19918(19) 0.36487(14) 0.63513(14)
H6_6 H 0.228014 0.379596 0.620405
C17_6 C 0.17782(15) 0.3858(2) 0.67782(15)
C18_6 C 0.20265(14) 0.42976(19) 0.70265(14)
O11_6 O 0.24243(10) 0.44648(10) 0.68314(9)
O12_6 O 0.24243(10) 0.31686(9) 0.55352(10)
O13_6 O 0.18314(9) 0.44648(10) 0.74243(10)
O18_14 O 0.25757(10) 0.18314(9) 0.44648(10)
O19_6 O 0.31686(9) 0.24243(10) 0.55352(10)
O21_14 O 0.25757(10) 0.18314(9) 0.55352(10)
O22_6 O 0.31686(9) 0.24243(10) 0.44648(10)
C1_7 C 0.80082(19) 0.36487(14) 0.63513(14)
H1_7 H 0.771986 0.379595 0.620404
C2_7 C 0.82218(15) 0.32218(15) 0.6142(2)
C3_7 C 0.79735(14) 0.29735(14) 0.57024(19)
O1_7 O 0.75757(10) 0.31686(9) 0.55352(10)
O2_11 O 0.65847(17) 0.34153(17) 0.500000
Cr1_11 Cr 0.71898(3) 0.28102(3) 0.500000
C4_7 C 0.86487(14) 0.36487(14) 0.69918(19)
H2_7 H 0.879595 0.379596 0.728014
C5_7 C 0.82218(15) 0.3858(2) 0.67782(15)
C6_7 C 0.79735(14) 0.42976(19) 0.70265(14)
O3_7 O 0.81686(9) 0.44648(10) 0.74243(10)
C7_7 C 0.86487(14) 0.30082(19) 0.63513(14)
H3_7 H 0.879596 0.271986 0.620405
C8_7 C 0.8858(2) 0.32218(15) 0.67782(15)
C9_7 C 0.92976(19) 0.29735(14) 0.70265(14)
O5_7 O 0.81686(9) 0.25757(10) 0.55352(10)
O7_7 O 0.75757(10) 0.44648(10) 0.68314(9)
C10_7 C 0.86487(14) 0.30082(19) 0.36487(14)
H4_7 H 0.879595 0.271986 0.379596
C11_7 C 0.82218(15) 0.32218(15) 0.3858(2)
C12_7 C 0.79735(14) 0.29735(14) 0.42976(19)
O8_7 O 0.81686(9) 0.25757(10) 0.44648(10)
O9_27 O 0.84153(17) 0.15847(17) 0.500000
Cr2_11 Cr 0.78102(3) 0.21898(3) 0.500000
C13_7 C 0.86487(14) 0.36487(14) 0.30082(19)
H5_7 H 0.879596 0.379595 0.271986
C14_7 C 0.8858(2) 0.32218(15) 0.32218(15)
C15_7 C 0.92976(19) 0.29735(14) 0.29735(14)
C16_7 C 0.80082(19) 0.36487(14) 0.36487(14)
H6_7 H 0.771986 0.379596 0.379595
C17_7 C 0.82218(15) 0.3858(2) 0.32218(15)
C18_7 C 0.79735(14) 0.42976(19) 0.29735(14)
O11_7 O 0.75757(10) 0.44648(10) 0.31686(9)
O12_7 O 0.75757(10) 0.31686(9) 0.44648(10)
O13_7 O 0.81686(9) 0.44648(10) 0.25757(10)
O18_15 O 0.74243(10) 0.18314(9) 0.55352(10)
O19_7 O 0.68314(9) 0.24243(10) 0.44648(10)
O21_15 O 0.74243(10) 0.18314(9) 0.44648(10)
O22_7 O 0.68314(9) 0.24243(10) 0.55352(10)
Cr4_6 Cr 0.78102(3) 0.500000 0.78102(3)
Cr5_6 Cr 0.78102(3) 0.500000 0.21898(3)
Cr9_6 Cr 0.71898(3) 0.500000 0.71898(3)
Cr10_6 Cr 0.71898(3) 0.500000 0.28102(3)
C1_8 C 0.80082(19) 0.63513(14) 0.36487(14)
H1_8 H 0.771986 0.620405 0.379596
C2_8 C 0.82218(15) 0.67782(15) 0.3858(2)
C3_8 C 0.79735(14) 0.70265(14) 0.42976(19)
O1_8 O 0.75757(10) 0.68314(9) 0.44648(10)
O2_12 O 0.65847(17) 0.65847(17) 0.500000
Cr1_12 Cr 0.71898(3) 0.71898(3) 0.500000
C4_8 C 0.86487(14) 0.63513(14) 0.30082(19)
H2_8 H 0.879595 0.620404 0.271986
C5_8 C 0.82218(15) 0.6142(2) 0.32218(15)
C6_8 C 0.79735(14) 0.57024(19) 0.29735(14)
O3_8 O 0.81686(9) 0.55352(10) 0.25757(10)
C7_8 C 0.86487(14) 0.69918(19) 0.36487(14)
H3_8 H 0.879596 0.728014 0.379595
C8_8 C 0.8858(2) 0.67782(15) 0.32218(15)
C9_8 C 0.92976(19) 0.70265(14) 0.29735(14)
O5_8 O 0.81686(9) 0.74243(10) 0.44648(10)
O7_8 O 0.75757(10) 0.55352(10) 0.31686(9)
C10_8 C 0.86487(14) 0.69918(19) 0.63513(14)
H4_8 H 0.879595 0.728014 0.620404
C11_8 C 0.82218(15) 0.67782(15) 0.6142(2)
C12_8 C 0.79735(14) 0.70265(14) 0.57024(19)
O8_8 O 0.81686(9) 0.74243(10) 0.55352(10)
O9_28 O 0.84153(17) 0.84153(17) 0.500000
Cr2_12 Cr 0.78102(3) 0.78102(3) 0.500000
C13_8 C 0.86487(14) 0.63513(14) 0.69918(19)
H5_8 H 0.879596 0.620405 0.728014
C14_8 C 0.8858(2) 0.67782(15) 0.67782(15)
C15_8 C 0.92976(19) 0.70265(14) 0.70265(14)
C16_8 C 0.80082(19) 0.63513(14) 0.63513(14)
H6_8 H 0.771986 0.620404 0.620405
C17_8 C 0.82218(15) 0.6142(2) 0.67782(15)
C18_8 C 0.79735(14) 0.57024(19) 0.70265(14)
O11_8 O 0.75757(10) 0.55352(10) 0.68314(9)
O12_8 O 0.75757(10) 0.68314(9) 0.55352(10)
O13_8 O 0.81686(9) 0.55352(10) 0.74243(10)
O18_16 O 0.74243(10) 0.81686(9) 0.44648(10)
O19_8 O 0.68314(9) 0.75757(10) 0.55352(10)
O21_16 O 0.74243(10) 0.81686(9) 0.55352(10)
O22_8 O 0.68314(9) 0.75757(10) 0.44648(10)
O15_17 O 0.84153(17) 0.500000 0.84153(17)
O17_9 O 0.74243(10) 0.55352(10) 0.81686(9)
O20_9 O 0.74243(10) 0.44648(10) 0.81686(9)
O15_18 O 0.15847(17) 0.500000 0.15847(17)
O17_10 O 0.25757(10) 0.55352(10) 0.18314(9)
O20_10 O 0.25757(10) 0.44648(10) 0.18314(9)
O15_19 O 0.15847(17) 0.500000 0.84153(17)
O17_11 O 0.25757(10) 0.44648(10) 0.81686(9)
O20_11 O 0.25757(10) 0.55352(10) 0.81686(9)
O15_20 O 0.84153(17) 0.500000 0.15847(17)
O17_12 O 0.74243(10) 0.44648(10) 0.18314(9)
O20_12 O 0.74243(10) 0.55352(10) 0.18314(9)
O9_29 O 0.34153(17) 0.500000 0.65847(17)
O18_17 O 0.31686(9) 0.55352(10) 0.75757(10)
O21_17 O 0.31686(9) 0.44648(10) 0.75757(10)
O9_30 O 0.65847(17) 0.500000 0.65847(17)
O18_18 O 0.68314(9) 0.44648(10) 0.75757(10)
O21_18 O 0.68314(9) 0.55352(10) 0.75757(10)
O9_31 O 0.34153(17) 0.500000 0.34153(17)
O18_19 O 0.31686(9) 0.44648(10) 0.24243(10)
O21_19 O 0.31686(9) 0.55352(10) 0.24243(10)
O9_32 O 0.65847(17) 0.500000 0.34153(17)
O18_20 O 0.68314(9) 0.55352(10) 0.24243(10)
O21_20 O 0.68314(9) 0.44648(10) 0.24243(10)
C1_9 C 0.69918(19) 0.13513(14) 0.63513(14)
H1_9 H 0.728014 0.120405 0.620404
C2_9 C 0.67782(15) 0.17782(15) 0.6142(2)
C3_9 C 0.70265(14) 0.20265(14) 0.57024(19)
C4_9 C 0.63513(14) 0.13513(14) 0.69918(19)
H2_9 H 0.620405 0.120404 0.728014
C5_9 C 0.67782(15) 0.1142(2) 0.67782(15)
C6_9 C 0.70265(14) 0.07024(19) 0.70265(14)
C7_9 C 0.63513(14) 0.19918(19) 0.63513(14)
H3_9 H 0.620404 0.228014 0.620405
C8_9 C 0.6142(2) 0.17782(15) 0.67782(15)
C9_9 C 0.57024(19) 0.20265(14) 0.70265(14)
O4_5 O 0.55352(10) 0.24243(10) 0.68314(9)
O6_5 O 0.55352(10) 0.18314(9) 0.74243(10)
C10_9 C 0.63513(14) 0.19918(19) 0.36487(14)
H4_9 H 0.620405 0.228014 0.379596
C11_9 C 0.67782(15) 0.17782(15) 0.3858(2)
C12_9 C 0.70265(14) 0.20265(14) 0.42976(19)
C13_9 C 0.63513(14) 0.13513(14) 0.30082(19)
H5_9 H 0.620404 0.120405 0.271986
C14_9 C 0.6142(2) 0.17782(15) 0.32218(15)
C15_9 C 0.57024(19) 0.20265(14) 0.29735(14)
O10_3 O 0.55352(10) 0.18314(9) 0.25757(10)
C16_9 C 0.69918(19) 0.13513(14) 0.36487(14)
H6_9 H 0.728014 0.120404 0.379595
C17_9 C 0.67782(15) 0.1142(2) 0.32218(15)
C18_9 C 0.70265(14) 0.07024(19) 0.29735(14)
O14_5 O 0.55352(10) 0.24243(10) 0.31686(9)
O15_21 O 0.500000 0.15847(17) 0.84153(17)
Cr3_5 Cr 0.500000 0.21898(3) 0.78102(3)
O16_3 O 0.44648(10) 0.18314(9) 0.74243(10)
O17_13 O 0.55352(10) 0.25757(10) 0.81686(9)
O20_13 O 0.44648(10) 0.25757(10) 0.81686(9)
Cr6_5 Cr 0.500000 0.21898(3) 0.21898(3)
Cr7_5 Cr 0.500000 0.28102(3) 0.71898(3)
Cr8_5 Cr 0.500000 0.28102(3) 0.28102(3)
C1_10 C 0.69918(19) 0.86487(14) 0.36487(14)
H1_10 H 0.728014 0.879595 0.379596
C2_10 C 0.67782(15) 0.82218(15) 0.3858(2)
C3_10 C 0.70265(14) 0.79735(14) 0.42976(19)
C4_10 C 0.63513(14) 0.86487(14) 0.30082(19)
H2_10 H 0.620405 0.879596 0.271986
C5_10 C 0.67782(15) 0.8858(2) 0.32218(15)
C6_10 C 0.70265(14) 0.92976(19) 0.29735(14)
C7_10 C 0.63513(14) 0.80082(19) 0.36487(14)
H3_10 H 0.620404 0.771986 0.379595
C8_10 C 0.6142(2) 0.82218(15) 0.32218(15)
C9_10 C 0.57024(19) 0.79735(14) 0.29735(14)
O4_6 O 0.55352(10) 0.75757(10) 0.31686(9)
O6_6 O 0.55352(10) 0.81686(9) 0.25757(10)
C10_10 C 0.63513(14) 0.80082(19) 0.63513(14)
H4_10 H 0.620405 0.771986 0.620404
C11_10 C 0.67782(15) 0.82218(15) 0.6142(2)
C12_10 C 0.70265(14) 0.79735(14) 0.57024(19)
C13_10 C 0.63513(14) 0.86487(14) 0.69918(19)
H5_10 H 0.620404 0.879595 0.728014
C14_10 C 0.6142(2) 0.82218(15) 0.67782(15)
C15_10 C 0.57024(19) 0.79735(14) 0.70265(14)
O10_4 O 0.55352(10) 0.81686(9) 0.74243(10)
C16_10 C 0.69918(19) 0.86487(14) 0.63513(14)
H6_10 H 0.728014 0.879596 0.620405
C17_10 C 0.67782(15) 0.8858(2) 0.67782(15)
C18_10 C 0.70265(14) 0.92976(19) 0.70265(14)
O14_6 O 0.55352(10) 0.75757(10) 0.68314(9)
O15_22 O 0.500000 0.84153(17) 0.15847(17)
Cr3_6 Cr 0.500000 0.78102(3) 0.21898(3)
O16_4 O 0.44648(10) 0.81686(9) 0.25757(10)
O17_14 O 0.55352(10) 0.74243(10) 0.18314(9)
O20_14 O 0.44648(10) 0.74243(10) 0.18314(9)
Cr6_6 Cr 0.500000 0.78102(3) 0.78102(3)
Cr7_6 Cr 0.500000 0.71898(3) 0.28102(3)
Cr8_6 Cr 0.500000 0.71898(3) 0.71898(3)
C1_11 C 0.30082(19) 0.86487(14) 0.63513(14)
H1_11 H 0.271986 0.879595 0.620404
C2_11 C 0.32218(15) 0.82218(15) 0.6142(2)
C3_11 C 0.29735(14) 0.79735(14) 0.57024(19)
C4_11 C 0.36487(14) 0.86487(14) 0.69918(19)
H2_11 H 0.379595 0.879596 0.728014
C5_11 C 0.32218(15) 0.8858(2) 0.67782(15)
C6_11 C 0.29735(14) 0.92976(19) 0.70265(14)
C7_11 C 0.36487(14) 0.80082(19) 0.63513(14)
H3_11 H 0.379596 0.771986 0.620405
C8_11 C 0.3858(2) 0.82218(15) 0.67782(15)
C9_11 C 0.42976(19) 0.79735(14) 0.70265(14)
O4_7 O 0.44648(10) 0.75757(10) 0.68314(9)
O6_7 O 0.44648(10) 0.81686(9) 0.74243(10)
C10_11 C 0.36487(14) 0.80082(19) 0.36487(14)
H4_11 H 0.379595 0.771986 0.379596
C11_11 C 0.32218(15) 0.82218(15) 0.3858(2)
C12_11 C 0.29735(14) 0.79735(14) 0.42976(19)
C13_11 C 0.36487(14) 0.86487(14) 0.30082(19)
H5_11 H 0.379596 0.879595 0.271986
C14_11 C 0.3858(2) 0.82218(15) 0.32218(15)
C15_11 C 0.42976(19) 0.79735(14) 0.29735(14)
C16_11 C 0.30082(19) 0.86487(14) 0.36487(14)
H6_11 H 0.271986 0.879596 0.379595
C17_11 C 0.32218(15) 0.8858(2) 0.32218(15)
C18_11 C 0.29735(14) 0.92976(19) 0.29735(14)
O14_7 O 0.44648(10) 0.75757(10) 0.31686(9)
O15_23 O 0.500000 0.84153(17) 0.84153(17)
O17_15 O 0.44648(10) 0.74243(10) 0.81686(9)
O20_15 O 0.55352(10) 0.74243(10) 0.81686(9)
C1_12 C 0.30082(19) 0.13513(14) 0.36487(14)
H1_12 H 0.271986 0.120405 0.379596
C2_12 C 0.32218(15) 0.17782(15) 0.3858(2)
C3_12 C 0.29735(14) 0.20265(14) 0.42976(19)
C4_12 C 0.36487(14) 0.13513(14) 0.30082(19)
H2_12 H 0.379595 0.120404 0.271986
C5_12 C 0.32218(15) 0.1142(2) 0.32218(15)
C6_12 C 0.29735(14) 0.07024(19) 0.29735(14)
C7_12 C 0.36487(14) 0.19918(19) 0.36487(14)
H3_12 H 0.379596 0.228014 0.379595
C8_12 C 0.3858(2) 0.17782(15) 0.32218(15)
C9_12 C 0.42976(19) 0.20265(14) 0.29735(14)
O4_8 O 0.44648(10) 0.24243(10) 0.31686(9)
O6_8 O 0.44648(10) 0.18314(9) 0.25757(10)
C10_12 C 0.36487(14) 0.19918(19) 0.63513(14)
H4_12 H 0.379595 0.228014 0.620404
C11_12 C 0.32218(15) 0.17782(15) 0.6142(2)
C12_12 C 0.29735(14) 0.20265(14) 0.57024(19)
C13_12 C 0.36487(14) 0.13513(14) 0.69918(19)
H5_12 H 0.379596 0.120405 0.728014
C14_12 C 0.3858(2) 0.17782(15) 0.67782(15)
C15_12 C 0.42976(19) 0.20265(14) 0.70265(14)
C16_12 C 0.30082(19) 0.13513(14) 0.63513(14)
H6_12 H 0.271986 0.120404 0.620405
C17_12 C 0.32218(15) 0.1142(2) 0.67782(15)
C18_12 C 0.29735(14) 0.07024(19) 0.70265(14)
O14_8 O 0.44648(10) 0.24243(10) 0.68314(9)
O15_24 O 0.500000 0.15847(17) 0.15847(17)
O17_16 O 0.44648(10) 0.25757(10) 0.18314(9)
O20_16 O 0.55352(10) 0.25757(10) 0.18314(9)
O9_33 O 0.500000 0.34153(17) 0.65847(17)
O18_21 O 0.44648(10) 0.31686(9) 0.75757(10)
O21_21 O 0.55352(10) 0.31686(9) 0.75757(10)
O9_34 O 0.500000 0.65847(17) 0.34153(17)
O18_22 O 0.44648(10) 0.68314(9) 0.24243(10)
O21_22 O 0.55352(10) 0.68314(9) 0.24243(10)
O9_35 O 0.500000 0.65847(17) 0.65847(17)
O18_23 O 0.55352(10) 0.68314(9) 0.75757(10)
O21_23 O 0.44648(10) 0.68314(9) 0.75757(10)
O9_36 O 0.500000 0.34153(17) 0.34153(17)
O18_24 O 0.55352(10) 0.31686(9) 0.24243(10)
O21_24 O 0.44648(10) 0.31686(9) 0.24243(10)
C1_13 C 0.69918(19) 0.63513(14) 0.13513(14)
H1_13 H 0.728014 0.620405 0.120404
C2_13 C 0.67782(15) 0.67782(15) 0.1142(2)
C3_13 C 0.70265(14) 0.70265(14) 0.07024(19)
C4_13 C 0.63513(14) 0.63513(14) 0.19918(19)
H2_13 H 0.620405 0.620404 0.228014
C5_13 C 0.67782(15) 0.6142(2) 0.17782(15)
C6_13 C 0.70265(14) 0.57024(19) 0.20265(14)
C7_13 C 0.63513(14) 0.69918(19) 0.13513(14)
H3_13 H 0.620404 0.728014 0.120405
C8_13 C 0.6142(2) 0.67782(15) 0.17782(15)
C9_13 C 0.57024(19) 0.70265(14) 0.20265(14)
C10_13 C 0.63513(14) 0.69918(19) 0.86487(14)
H4_13 H 0.620405 0.728014 0.879596
C11_13 C 0.67782(15) 0.67782(15) 0.8858(2)
C12_13 C 0.70265(14) 0.70265(14) 0.92976(19)
C13_13 C 0.63513(14) 0.63513(14) 0.80082(19)
H5_13 H 0.620404 0.620405 0.771986
C14_13 C 0.6142(2) 0.67782(15) 0.82218(15)
C15_13 C 0.57024(19) 0.70265(14) 0.79735(14)
C16_13 C 0.69918(19) 0.63513(14) 0.86487(14)
H6_13 H 0.728014 0.620404 0.879595
C17_13 C 0.67782(15) 0.6142(2) 0.82218(15)
C18_13 C 0.70265(14) 0.57024(19) 0.79735(14)
C10_14 C 0.63513(14) 0.30082(19) 0.13513(14)
H4_14 H 0.620405 0.271986 0.120404
C11_14 C 0.67782(15) 0.32218(15) 0.1142(2)
C12_14 C 0.70265(14) 0.29735(14) 0.07024(19)
C13_14 C 0.63513(14) 0.36487(14) 0.19918(19)
H5_14 H 0.620404 0.379595 0.228014
C14_14 C 0.6142(2) 0.32218(15) 0.17782(15)
C15_14 C 0.57024(19) 0.29735(14) 0.20265(14)
C16_14 C 0.69918(19) 0.36487(14) 0.13513(14)
H6_14 H 0.728014 0.379596 0.120405
C17_14 C 0.67782(15) 0.3858(2) 0.17782(15)
C18_14 C 0.70265(14) 0.42976(19) 0.20265(14)
C1_14 C 0.69918(19) 0.36487(14) 0.86487(14)
H1_14 H 0.728014 0.379595 0.879596
C2_14 C 0.67782(15) 0.32218(15) 0.8858(2)
C3_14 C 0.70265(14) 0.29735(14) 0.92976(19)
C4_14 C 0.63513(14) 0.36487(14) 0.80082(19)
H2_14 H 0.620405 0.379596 0.771986
C5_14 C 0.67782(15) 0.3858(2) 0.82218(15)
C6_14 C 0.70265(14) 0.42976(19) 0.79735(14)
C7_14 C 0.63513(14) 0.30082(19) 0.86487(14)
H3_14 H 0.620404 0.271986 0.879595
C8_14 C 0.6142(2) 0.32218(15) 0.82218(15)
C9_14 C 0.57024(19) 0.29735(14) 0.79735(14)
C1_15 C 0.30082(19) 0.36487(14) 0.13513(14)
H1_15 H 0.271986 0.379595 0.120404
C2_15 C 0.32218(15) 0.32218(15) 0.1142(2)
C3_15 C 0.29735(14) 0.29735(14) 0.07024(19)
C4_15 C 0.36487(14) 0.36487(14) 0.19918(19)
H2_15 H 0.379595 0.379596 0.228014
C5_15 C 0.32218(15) 0.3858(2) 0.17782(15)
C6_15 C 0.29735(14) 0.42976(19) 0.20265(14)
C7_15 C 0.36487(14) 0.30082(19) 0.13513(14)
H3_15 H 0.379596 0.271986 0.120405
C8_15 C 0.3858(2) 0.32218(15) 0.17782(15)
C9_15 C 0.42976(19) 0.29735(14) 0.20265(14)
C10_15 C 0.36487(14) 0.30082(19) 0.86487(14)
H4_15 H 0.379595 0.271986 0.879596
C11_15 C 0.32218(15) 0.32218(15) 0.8858(2)
C12_15 C 0.29735(14) 0.29735(14) 0.92976(19)
C13_15 C 0.36487(14) 0.36487(14) 0.80082(19)
H5_15 H 0.379596 0.379595 0.771986
C14_15 C 0.3858(2) 0.32218(15) 0.82218(15)
C15_15 C 0.42976(19) 0.29735(14) 0.79735(14)
C16_15 C 0.30082(19) 0.36487(14) 0.86487(14)
H6_15 H 0.271986 0.379596 0.879595
C17_15 C 0.32218(15) 0.3858(2) 0.82218(15)
C18_15 C 0.29735(14) 0.42976(19) 0.79735(14)
C10_16 C 0.36487(14) 0.69918(19) 0.13513(14)
H4_16 H 0.379595 0.728014 0.120404
C11_16 C 0.32218(15) 0.67782(15) 0.1142(2)
C12_16 C 0.29735(14) 0.70265(14) 0.07024(19)
C13_16 C 0.36487(14) 0.63513(14) 0.19918(19)
H5_16 H 0.379596 0.620405 0.228014
C14_16 C 0.3858(2) 0.67782(15) 0.17782(15)
C15_16 C 0.42976(19) 0.70265(14) 0.20265(14)
C16_16 C 0.30082(19) 0.63513(14) 0.13513(14)
H6_16 H 0.271986 0.620404 0.120405
C17_16 C 0.32218(15) 0.6142(2) 0.17782(15)
C18_16 C 0.29735(14) 0.57024(19) 0.20265(14)
C1_16 C 0.30082(19) 0.63513(14) 0.86487(14)
H1_16 H 0.271986 0.620405 0.879596
C2_16 C 0.32218(15) 0.67782(15) 0.8858(2)
C3_16 C 0.29735(14) 0.70265(14) 0.92976(19)
C4_16 C 0.36487(14) 0.63513(14) 0.80082(19)
H2_16 H 0.379595 0.620404 0.771986
C5_16 C 0.32218(15) 0.6142(2) 0.82218(15)
C6_16 C 0.29735(14) 0.57024(19) 0.79735(14)
C7_16 C 0.36487(14) 0.69918(19) 0.86487(14)
H3_16 H 0.379596 0.728014 0.879595
C8_16 C 0.3858(2) 0.67782(15) 0.82218(15)
C9_16 C 0.42976(19) 0.70265(14) 0.79735(14)
loop_
_geom_bond_atom_site_label_1
_geom_bond_atom_site_label_2
_geom_bond_site_symmetry_1
_geom_bond_site_symmetry_2
C1 H1 1_555 1_555
C2 C1 1_555 1_555
C3 C2 1_555 1_555
O1 C3 1_555 1_555
O2 Cr1 1_555 1_555
Cr1 O1 1_555 1_555
C4 H2 1_555 1_555
C5 C1 1_555 1_555
C6 C5 1_555 1_555
O3 C6 1_555 1_555
C7 C2 1_555 1_555
H3 C7 1_555 1_555
C8 C4 1_555 1_555
C9 C8 1_555 1_555
O4 C9 1_555 1_555
O5 C3 1_555 1_555
O6 C9 1_555 1_555
O7 C6 1_555 1_555
O9 Cr2 1_555 1_555
Cr2 Cr1 1_555 1_555
O15 Cr3 1_555 1_555
Cr3 O6 1_555 1_555
O17 Cr3 1_555 1_555
O18 Cr2 1_555 1_555
O22 Cr1 1_555 1_555
Cr4 O3 1_555 1_555
Cr7 O4 1_555 1_555
Cr9 O7 1_555 1_555
C4 C5 1_555 1_555
C7 C8 1_555 1_555
O5 Cr2 1_555 1_555
Cr3 Cr7 1_555 1_555
Cr4 Cr9 1_555 1_555
O2_2 Cr1_2 1_555 1_555
C10 H4 1_555 1_555
C11 C10 1_555 1_555
C12 C11 1_555 1_555
O8 C12 1_555 1_555
O9_2 Cr2_2 1_555 1_555
Cr2_2 Cr1_2 1_555 1_555
C13 H5 1_555 1_555
C14 C10 1_555 1_555
C15 C14 1_555 1_555
O10 C15 1_555 1_555
C16 C11 1_555 1_555
H6 C16 1_555 1_555
C17 C13 1_555 1_555
C18 C17 1_555 1_555
O11 C18 1_555 1_555
O12 Cr1_2 1_555 1_555
O13 C18 1_555 1_555
O14 C15 1_555 1_555
O19 Cr1_2 1_555 1_555
O21 Cr2_2 1_555 1_555
Cr5 O13 1_555 1_555
Cr6 O10 1_555 1_555
Cr8 O14 1_555 1_555
Cr10 O11 1_555 1_555
C12 O12 1_555 1_555
O8 Cr2_2 1_555 1_555
C13 C14 1_555 1_555
C16 C17 1_555 1_555
Cr5 Cr10 1_555 1_555
Cr6 Cr8 1_555 1_555
Cr4_2 Cr9_2 1_555 1_555
Cr5_2 Cr10_2 1_555 1_555
O15_2 Cr3_2 1_555 1_555
O16 Cr3_2 1_555 1_555
O20 Cr3_2 1_555 1_555
Cr3_2 Cr7_2 1_555 1_555
Cr6_2 Cr8_2 1_555 1_555
O2_3 Cr1_3 1_555 1_555
C10_2 H4_2 1_555 1_555
C11_2 C10_2 1_555 1_555
C12_2 C11_2 1_555 1_555
O8_2 C12_2 1_555 1_555
O9_3 Cr2_3 1_555 1_555
Cr2_3 Cr1_3 1_555 1_555
C13_2 H5_2 1_555 1_555
C14_2 C10_2 1_555 1_555
C15_2 C14_2 1_555 1_555
O10_2 C15_2 1_555 1_555
C16_2 C11_2 1_555 1_555
H6_2 C16_2 1_555 1_555
C17_2 C13_2 1_555 1_555
C18_2 C17_2 1_555 1_555
O11_2 C18_2 1_555 1_555
O12_2 Cr1_3 1_555 1_555
O13_2 C18_2 1_555 1_555
O14_2 C15_2 1_555 1_555
O19_2 Cr1_3 1_555 1_555
O21_2 Cr2_3 1_555 1_555
Cr4_2 O13_2 1_555 1_555
Cr6_3 O10_2 1_555 1_555
Cr8_3 O14_2 1_555 1_555
Cr9_2 O11_2 1_555 1_555
C12_2 O12_2 1_555 1_555
O8_2 Cr2_3 1_555 1_555
C13_2 C14_2 1_555 1_555
C16_2 C17_2 1_555 1_555
Cr6_3 Cr8_3 1_555 1_555
C1_2 H1_2 1_555 1_555
C2_2 C1_2 1_555 1_555
C3_2 C2_2 1_555 1_555
O1_2 C3_2 1_555 1_555
O2_4 Cr1_4 1_555 1_555
Cr1_4 O1_2 1_555 1_555
C4_2 H2_2 1_555 1_555
C5_2 C1_2 1_555 1_555
C6_2 C5_2 1_555 1_555
O3_2 C6_2 1_555 1_555
C7_2 C2_2 1_555 1_555
H3_2 C7_2 1_555 1_555
C8_2 C4_2 1_555 1_555
C9_2 C8_2 1_555 1_555
O4_2 C9_2 1_555 1_555
O5_2 C3_2 1_555 1_555
O6_2 C9_2 1_555 1_555
O7_2 C6_2 1_555 1_555
O9_4 Cr2_4 1_555 1_555
Cr2_4 Cr1_4 1_555 1_555
O15_3 Cr3_3 1_555 1_555
Cr3_3 O6_2 1_555 1_555
O17_2 Cr3_3 1_555 1_555
O18_2 Cr2_4 1_555 1_555
O22_2 Cr1_4 1_555 1_555
Cr5_2 O3_2 1_555 1_555
Cr7_3 O4_2 1_555 1_555
Cr10_2 O7_2 1_555 1_555
C4_2 C5_2 1_555 1_555
C7_2 C8_2 1_555 1_555
O5_2 Cr2_4 1_555 1_555
Cr3_3 Cr7_3 1_555 1_555
Cr6_4 Cr8_4 1_555 1_555
O15_4 Cr3_4 1_555 1_555
O16_2 Cr3_4 1_555 1_555
O20_2 Cr3_4 1_555 1_555
Cr3_4 Cr7_4 1_555 1_555
O15_5 Cr6_3 1_555 1_555
O20_3 Cr6_3 1_555 1_555
Cr4_3 Cr9_3 1_555 1_555
Cr5_3 Cr10_3 1_555 1_555
C1_3 H1_3 1_555 1_555
C2_3 C1_3 1_555 1_555
C3_3 C2_3 1_555 1_555
O1_3 C3_3 1_555 1_555
O2_5 Cr1_5 1_555 1_555
Cr1_5 O1_3 1_555 1_555
C4_3 H2_3 1_555 1_555
C5_3 C1_3 1_555 1_555
C6_3 C5_3 1_555 1_555
O3_3 C6_3 1_555 1_555
C7_3 C2_3 1_555 1_555
H3_3 C7_3 1_555 1_555
C8_3 C4_3 1_555 1_555
C9_3 C8_3 1_555 1_555
O4_3 C9_3 1_555 1_555
O5_3 C3_3 1_555 1_555
O6_3 C9_3 1_555 1_555
O7_3 C6_3 1_555 1_555
O9_5 Cr2_5 1_555 1_555
Cr2_5 Cr1_5 1_555 1_555
O15_6 Cr6_4 1_555 1_555
Cr6_4 O6_3 1_555 1_555
O17_3 Cr6_4 1_555 1_555
O18_3 Cr2_5 1_555 1_555
O22_3 Cr1_5 1_555 1_555
Cr4_4 O3_3 1_555 1_555
Cr8_4 O4_3 1_555 1_555
Cr9_4 O7_3 1_555 1_555
C4_3 C5_3 1_555 1_555
C7_3 C8_3 1_555 1_555
O5_3 Cr2_5 1_555 1_555
Cr4_4 Cr9_4 1_555 1_555
O2_6 Cr1_6 1_555 1_555
C10_3 H4_3 1_555 1_555
C11_3 C10_3 1_555 1_555
C12_3 C11_3 1_555 1_555
O8_3 C12_3 1_555 1_555
O9_6 Cr2_6 1_555 1_555
Cr2_6 Cr1_6 1_555 1_555
C13_3 H5_3 1_555 1_555
C14_3 C10_3 1_555 1_555
C15_3 C14_3 1_555 1_555
O16_2 C15_3 1_555 1_555
C16_3 C11_3 1_555 1_555
H6_3 C16_3 1_555 1_555
C17_3 C13_3 1_555 1_555
C18_3 C17_3 1_555 1_555
O11_3 C18_3 1_555 1_555
O12_3 Cr1_6 1_555 1_555
O13_3 C18_3 1_555 1_555
O14_3 C15_3 1_555 1_555
O19_3 Cr1_6 1_555 1_555
O21_3 Cr2_6 1_555 1_555
Cr5_4 O13_3 1_555 1_555
Cr7_4 O14_3 1_555 1_555
Cr10_4 O11_3 1_555 1_555
C12_3 O12_3 1_555 1_555
O8_3 Cr2_6 1_555 1_555
C13_3 C14_3 1_555 1_555
C16_3 C17_3 1_555 1_555
Cr5_4 Cr10_4 1_555 1_555
O15_7 Cr6 1_555 1_555
O20_4 Cr6 1_555 1_555
O2_7 Cr1_7 1_555 1_555
C10_4 H4_4 1_555 1_555
C11_4 C10_4 1_555 1_555
C12_4 C11_4 1_555 1_555
O8_4 C12_4 1_555 1_555
O9_7 Cr2_7 1_555 1_555
Cr2_7 Cr1_7 1_555 1_555
C13_4 H5_4 1_555 1_555
C14_4 C10_4 1_555 1_555
C15_4 C14_4 1_555 1_555
O16 C15_4 1_555 1_555
C16_4 C11_4 1_555 1_555
H6_4 C16_4 1_555 1_555
C17_4 C13_4 1_555 1_555
C18_4 C17_4 1_555 1_555
O11_4 C18_4 1_555 1_555
O12_4 Cr1_7 1_555 1_555
O13_4 C18_4 1_555 1_555
O14_4 C15_4 1_555 1_555
O19_4 Cr1_7 1_555 1_555
O21_4 Cr2_7 1_555 1_555
Cr4_3 O13_4 1_555 1_555
Cr7_2 O14_4 1_555 1_555
Cr9_3 O11_4 1_555 1_555
C12_4 O12_4 1_555 1_555
O8_4 Cr2_7 1_555 1_555
C13_4 C14_4 1_555 1_555
C16_4 C17_4 1_555 1_555
C1_4 H1_4 1_555 1_555
C2_4 C1_4 1_555 1_555
C3_4 C2_4 1_555 1_555
O1_4 C3_4 1_555 1_555
O2_8 Cr1_8 1_555 1_555
Cr1_8 O1_4 1_555 1_555
C4_4 H2_4 1_555 1_555
C5_4 C1_4 1_555 1_555
C6_4 C5_4 1_555 1_555
O3_4 C6_4 1_555 1_555
C7_4 C2_4 1_555 1_555
H3_4 C7_4 1_555 1_555
C8_4 C4_4 1_555 1_555
C9_4 C8_4 1_555 1_555
O4_4 C9_4 1_555 1_555
O5_4 C3_4 1_555 1_555
O6_4 C9_4 1_555 1_555
O7_4 C6_4 1_555 1_555
O9_8 Cr2_8 1_555 1_555
Cr2_8 Cr1_8 1_555 1_555
O15_8 Cr6_2 1_555 1_555
Cr6_2 O6_4 1_555 1_555
O17_4 Cr6_2 1_555 1_555
O18_4 Cr2_8 1_555 1_555
O22_4 Cr1_8 1_555 1_555
Cr5_3 O3_4 1_555 1_555
Cr8_2 O4_4 1_555 1_555
Cr10_3 O7_4 1_555 1_555
C4_4 C5_4 1_555 1_555
C7_4 C8_4 1_555 1_555
O5_4 Cr2_8 1_555 1_555
O15_9 Cr4_3 1_555 1_555
O17_5 Cr4_3 1_555 1_555
O15_10 Cr4_4 1_555 1_555
O20_5 Cr4_4 1_555 1_555
O15_11 Cr5 1_555 1_555
O17_6 Cr5 1_555 1_555
O15_12 Cr5_2 1_555 1_555
O20_6 Cr5_2 1_555 1_555
O15_13 Cr4 1_555 1_555
O20_7 Cr4 1_555 1_555
O15_14 Cr4_2 1_555 1_555
O17_7 Cr4_2 1_555 1_555
O15_15 Cr5_3 1_555 1_555
O20_8 Cr5_3 1_555 1_555
O15_16 Cr5_4 1_555 1_555
O17_8 Cr5_4 1_555 1_555
O9_9 Cr9 1_555 1_555
O18_5 Cr9 1_555 1_555
O9_10 Cr9_2 1_555 1_555
O21_5 Cr9_2 1_555 1_555
O9_11 Cr9_3 1_555 1_555
O21_6 Cr9_3 1_555 1_555
O9_12 Cr9_4 1_555 1_555
O18_6 Cr9_4 1_555 1_555
O9_13 Cr10 1_555 1_555
O21_7 Cr10 1_555 1_555
O9_14 Cr10_2 1_555 1_555
O18_7 Cr10_2 1_555 1_555
O9_15 Cr10_3 1_555 1_555
O18_8 Cr10_3 1_555 1_555
O9_16 Cr10_4 1_555 1_555
O21_8 Cr10_4 1_555 1_555
O9_17 Cr7 1_555 1_555
O21_9 Cr7 1_555 1_555
O9_18 Cr7_2 1_555 1_555
O18_9 Cr7_2 1_555 1_555
O9_19 Cr7_3 1_555 1_555
O21_10 Cr7_3 1_555 1_555
O9_20 Cr7_4 1_555 1_555
O18_10 Cr7_4 1_555 1_555
O9_21 Cr8_3 1_555 1_555
O18_11 Cr8_3 1_555 1_555
O9_22 Cr8_4 1_555 1_555
O21_11 Cr8_4 1_555 1_555
O9_23 Cr8 1_555 1_555
O18_12 Cr8 1_555 1_555
O9_24 Cr8_2 1_555 1_555
O21_12 Cr8_2 1_555 1_555
C1_5 H1_5 1_555 1_555
C2_5 C1_5 1_555 1_555
C3_5 C2_5 1_555 1_555
O1_5 C3_5 1_555 1_555
O2_9 Cr1_9 1_555 1_555
Cr1_9 O1_5 1_555 1_555
C4_5 H2_5 1_555 1_555
C5_5 C1_5 1_555 1_555
C6_5 C5_5 1_555 1_555
O3_5 C6_5 1_555 1_555
C7_5 C2_5 1_555 1_555
H3_5 C7_5 1_555 1_555
C8_5 C4_5 1_555 1_555
C9_5 C8_5 1_555 1_555
O17_2 C9_5 1_555 1_555
O5_5 C3_5 1_555 1_555
O21_10 C9_5 1_555 1_555
O7_5 C6_5 1_555 1_555
C10_5 H4_5 1_555 1_555
C11_5 C10_5 1_555 1_555
C12_5 C11_5 1_555 1_555
O8_5 C12_5 1_555 1_555
O9_25 Cr2_9 1_555 1_555
Cr2_9 Cr1_9 1_555 1_555
C13_5 H5_5 1_555 1_555
C14_5 C10_5 1_555 1_555
C15_5 C14_5 1_555 1_555
O18_11 C15_5 1_555 1_555
C16_5 C11_5 1_555 1_555
H6_5 C16_5 1_555 1_555
C17_5 C13_5 1_555 1_555
C18_5 C17_5 1_555 1_555
O11_5 C18_5 1_555 1_555
O12_5 Cr1_9 1_555 1_555
O13_5 C18_5 1_555 1_555
O20_3 C15_5 1_555 1_555
O18_13 Cr2_9 1_555 1_555
O19_5 Cr1_9 1_555 1_555
O21_13 Cr2_9 1_555 1_555
O22_5 Cr1_9 1_555 1_555
Cr4_5 O3_5 1_555 1_555
Cr5_5 O13_5 1_555 1_555
Cr9_5 O7_5 1_555 1_555
Cr10_5 O11_5 1_555 1_555
C4_5 C5_5 1_555 1_555
C7_5 C8_5 1_555 1_555
O5_5 Cr2_9 1_555 1_555
C12_5 O12_5 1_555 1_555
O8_5 Cr2_9 1_555 1_555
C13_5 C14_5 1_555 1_555
C16_5 C17_5 1_555 1_555
Cr4_5 Cr9_5 1_555 1_555
Cr5_5 Cr10_5 1_555 1_555
C1_6 H1_6 1_555 1_555
C2_6 C1_6 1_555 1_555
C3_6 C2_6 1_555 1_555
O1_6 C3_6 1_555 1_555
O2_10 Cr1_10 1_555 1_555
Cr1_10 O1_6 1_555 1_555
C4_6 H2_6 1_555 1_555
C5_6 C1_6 1_555 1_555
C6_6 C5_6 1_555 1_555
O3_6 C6_6 1_555 1_555
C7_6 C2_6 1_555 1_555
H3_6 C7_6 1_555 1_555
C8_6 C4_6 1_555 1_555
C9_6 C8_6 1_555 1_555
O17 C9_6 1_555 1_555
O5_6 C3_6 1_555 1_555
O21_9 C9_6 1_555 1_555
O7_6 C6_6 1_555 1_555
C10_6 H4_6 1_555 1_555
C11_6 C10_6 1_555 1_555
C12_6 C11_6 1_555 1_555
O8_6 C12_6 1_555 1_555
O9_26 Cr2_10 1_555 1_555
Cr2_10 Cr1_10 1_555 1_555
C13_6 H5_6 1_555 1_555
C14_6 C10_6 1_555 1_555
C15_6 C14_6 1_555 1_555
O18_12 C15_6 1_555 1_555
C16_6 C11_6 1_555 1_555
H6_6 C16_6 1_555 1_555
C17_6 C13_6 1_555 1_555
C18_6 C17_6 1_555 1_555
O11_6 C18_6 1_555 1_555
O12_6 Cr1_10 1_555 1_555
O13_6 C18_6 1_555 1_555
O20_4 C15_6 1_555 1_555
O18_14 Cr2_10 1_555 1_555
O19_6 Cr1_10 1_555 1_555
O21_14 Cr2_10 1_555 1_555
O22_6 Cr1_10 1_555 1_555
Cr5_5 O3_6 1_555 1_555
Cr4_5 O13_6 1_555 1_555
Cr10_5 O7_6 1_555 1_555
Cr9_5 O11_6 1_555 1_555
C4_6 C5_6 1_555 1_555
C7_6 C8_6 1_555 1_555
O5_6 Cr2_10 1_555 1_555
C12_6 O12_6 1_555 1_555
O8_6 Cr2_10 1_555 1_555
C13_6 C14_6 1_555 1_555
C16_6 C17_6 1_555 1_555
C1_7 H1_7 1_555 1_555
C2_7 C1_7 1_555 1_555
C3_7 C2_7 1_555 1_555
O1_7 C3_7 1_555 1_555
O2_11 Cr1_11 1_555 1_555
Cr1_11 O1_7 1_555 1_555
C4_7 H2_7 1_555 1_555
C5_7 C1_7 1_555 1_555
C6_7 C5_7 1_555 1_555
O3_7 C6_7 1_555 1_555
C7_7 C2_7 1_555 1_555
H3_7 C7_7 1_555 1_555
C8_7 C4_7 1_555 1_555
C9_7 C8_7 1_555 1_555
O17_4 C9_7 1_555 1_555
O5_7 C3_7 1_555 1_555
O21_12 C9_7 1_555 1_555
O7_7 C6_7 1_555 1_555
C10_7 H4_7 1_555 1_555
C11_7 C10_7 1_555 1_555
C12_7 C11_7 1_555 1_555
O8_7 C12_7 1_555 1_555
O9_27 Cr2_11 1_555 1_555
Cr2_11 Cr1_11 1_555 1_555
C13_7 H5_7 1_555 1_555
C14_7 C10_7 1_555 1_555
C15_7 C14_7 1_555 1_555
O18_9 C15_7 1_555 1_555
C16_7 C11_7 1_555 1_555
H6_7 C16_7 1_555 1_555
C17_7 C13_7 1_555 1_555
C18_7 C17_7 1_555 1_555
O11_7 C18_7 1_555 1_555
O12_7 Cr1_11 1_555 1_555
O13_7 C18_7 1_555 1_555
O20 C15_7 1_555 1_555
O18_15 Cr2_11 1_555 1_555
O19_7 Cr1_11 1_555 1_555
O21_15 Cr2_11 1_555 1_555
O22_7 Cr1_11 1_555 1_555
Cr4_6 O3_7 1_555 1_555
Cr5_6 O13_7 1_555 1_555
Cr9_6 O7_7 1_555 1_555
Cr10_6 O11_7 1_555 1_555
C4_7 C5_7 1_555 1_555
C7_7 C8_7 1_555 1_555
O5_7 Cr2_11 1_555 1_555
C12_7 O12_7 1_555 1_555
O8_7 Cr2_11 1_555 1_555
C13_7 C14_7 1_555 1_555
C16_7 C17_7 1_555 1_555
Cr4_6 Cr9_6 1_555 1_555
Cr5_6 Cr10_6 1_555 1_555
C1_8 H1_8 1_555 1_555
C2_8 C1_8 1_555 1_555
C3_8 C2_8 1_555 1_555
O1_8 C3_8 1_555 1_555
O2_12 Cr1_12 1_555 1_555
Cr1_12 O1_8 1_555 1_555
C4_8 H2_8 1_555 1_555
C5_8 C1_8 1_555 1_555
C6_8 C5_8 1_555 1_555
O3_8 C6_8 1_555 1_555
C7_8 C2_8 1_555 1_555
H3_8 C7_8 1_555 1_555
C8_8 C4_8 1_555 1_555
C9_8 C8_8 1_555 1_555
O17_3 C9_8 1_555 1_555
O5_8 C3_8 1_555 1_555
O21_11 C9_8 1_555 1_555
O7_8 C6_8 1_555 1_555
C10_8 H4_8 1_555 1_555
C11_8 C10_8 1_555 1_555
C12_8 C11_8 1_555 1_555
O8_8 C12_8 1_555 1_555
O9_28 Cr2_12 1_555 1_555
Cr2_12 Cr1_12 1_555 1_555
C13_8 H5_8 1_555 1_555
C14_8 C10_8 1_555 1_555
C15_8 C14_8 1_555 1_555
O18_10 C15_8 1_555 1_555
C16_8 C11_8 1_555 1_555
H6_8 C16_8 1_555 1_555
C17_8 C13_8 1_555 1_555
C18_8 C17_8 1_555 1_555
O11_8 C18_8 1_555 1_555
O12_8 Cr1_12 1_555 1_555
O13_8 C18_8 1_555 1_555
O20_2 C15_8 1_555 1_555
O18_16 Cr2_12 1_555 1_555
O19_8 Cr1_12 1_555 1_555
O21_16 Cr2_12 1_555 1_555
O22_8 Cr1_12 1_555 1_555
Cr5_6 O3_8 1_555 1_555
Cr4_6 O13_8 1_555 1_555
Cr10_6 O7_8 1_555 1_555
Cr9_6 O11_8 1_555 1_555
C4_8 C5_8 1_555 1_555
C7_8 C8_8 1_555 1_555
O5_8 Cr2_12 1_555 1_555
C12_8 O12_8 1_555 1_555
O8_8 Cr2_12 1_555 1_555
C13_8 C14_8 1_555 1_555
C16_8 C17_8 1_555 1_555
O15_17 Cr4_6 1_555 1_555
O17_9 Cr4_6 1_555 1_555
O20_9 Cr4_6 1_555 1_555
O15_18 Cr5_5 1_555 1_555
O17_10 Cr5_5 1_555 1_555
O20_10 Cr5_5 1_555 1_555
O15_19 Cr4_5 1_555 1_555
O17_11 Cr4_5 1_555 1_555
O20_11 Cr4_5 1_555 1_555
O15_20 Cr5_6 1_555 1_555
O17_12 Cr5_6 1_555 1_555
O20_12 Cr5_6 1_555 1_555
O9_29 Cr9_5 1_555 1_555
O18_17 Cr9_5 1_555 1_555
O21_17 Cr9_5 1_555 1_555
O9_30 Cr9_6 1_555 1_555
O18_18 Cr9_6 1_555 1_555
O21_18 Cr9_6 1_555 1_555
O9_31 Cr10_5 1_555 1_555
O18_19 Cr10_5 1_555 1_555
O21_19 Cr10_5 1_555 1_555
O9_32 Cr10_6 1_555 1_555
O18_20 Cr10_6 1_555 1_555
O21_20 Cr10_6 1_555 1_555
C1_9 H1_9 1_555 1_555
C2_9 C1_9 1_555 1_555
C3_9 C2_9 1_555 1_555
O18_15 C3_9 1_555 1_555
C4_9 H2_9 1_555 1_555
C5_9 C1_9 1_555 1_555
C6_9 C5_9 1_555 1_555
O18_8 C6_9 1_555 1_555
C7_9 C2_9 1_555 1_555
H3_9 C7_9 1_555 1_555
C8_9 C4_9 1_555 1_555
C9_9 C8_9 1_555 1_555
O4_5 C9_9 1_555 1_555
O22_7 C3_9 1_555 1_555
O6_5 C9_9 1_555 1_555
O20_8 C6_9 1_555 1_555
C10_9 H4_9 1_555 1_555
C11_9 C10_9 1_555 1_555
C12_9 C11_9 1_555 1_555
O19_7 C12_9 1_555 1_555
C13_9 H5_9 1_555 1_555
C14_9 C10_9 1_555 1_555
C15_9 C14_9 1_555 1_555
O10_3 C15_9 1_555 1_555
C16_9 C11_9 1_555 1_555
H6_9 C16_9 1_555 1_555
C17_9 C13_9 1_555 1_555
C18_9 C17_9 1_555 1_555
O17_5 C18_9 1_555 1_555
O21_6 C18_9 1_555 1_555
O14_5 C15_9 1_555 1_555
O15_21 Cr3_5 1_555 1_555
Cr3_5 O6_5 1_555 1_555
O16_3 Cr3_5 1_555 1_555
O17_13 Cr3_5 1_555 1_555
O20_13 Cr3_5 1_555 1_555
Cr6_5 O10_3 1_555 1_555
Cr7_5 O4_5 1_555 1_555
Cr8_5 O14_5 1_555 1_555
C4_9 C5_9 1_555 1_555
C7_9 C8_9 1_555 1_555
C12_9 O21_15 1_555 1_555
C13_9 C14_9 1_555 1_555
C16_9 C17_9 1_555 1_555
Cr3_5 Cr7_5 1_555 1_555
Cr6_5 Cr8_5 1_555 1_555
C1_10 H1_10 1_555 1_555
C2_10 C1_10 1_555 1_555
C3_10 C2_10 1_555 1_555
O18_16 C3_10 1_555 1_555
C4_10 H2_10 1_555 1_555
C5_10 C1_10 1_555 1_555
C6_10 C5_10 1_555 1_555
O18_6 C6_10 1_555 1_555
C7_10 C2_10 1_555 1_555
H3_10 C7_10 1_555 1_555
C8_10 C4_10 1_555 1_555
C9_10 C8_10 1_555 1_555
O4_6 C9_10 1_555 1_555
O22_8 C3_10 1_555 1_555
O6_6 C9_10 1_555 1_555
O20_5 C6_10 1_555 1_555
C10_10 H4_10 1_555 1_555
C11_10 C10_10 1_555 1_555
C12_10 C11_10 1_555 1_555
O19_8 C12_10 1_555 1_555
C13_10 H5_10 1_555 1_555
C14_10 C10_10 1_555 1_555
C15_10 C14_10 1_555 1_555
O10_4 C15_10 1_555 1_555
C16_10 C11_10 1_555 1_555
H6_10 C16_10 1_555 1_555
C17_10 C13_10 1_555 1_555
C18_10 C17_10 1_555 1_555
O17_8 C18_10 1_555 1_555
O21_8 C18_10 1_555 1_555
O14_6 C15_10 1_555 1_555
O15_22 Cr3_6 1_555 1_555
Cr3_6 O6_6 1_555 1_555
O16_4 Cr3_6 1_555 1_555
O17_14 Cr3_6 1_555 1_555
O20_14 Cr3_6 1_555 1_555
Cr6_6 O10_4 1_555 1_555
Cr7_6 O4_6 1_555 1_555
Cr8_6 O14_6 1_555 1_555
C4_10 C5_10 1_555 1_555
C7_10 C8_10 1_555 1_555
C12_10 O21_16 1_555 1_555
C13_10 C14_10 1_555 1_555
C16_10 C17_10 1_555 1_555
Cr3_6 Cr7_6 1_555 1_555
Cr6_6 Cr8_6 1_555 1_555
C1_11 H1_11 1_555 1_555
C2_11 C1_11 1_555 1_555
C3_11 C2_11 1_555 1_555
O18_13 C3_11 1_555 1_555
C4_11 H2_11 1_555 1_555
C5_11 C1_11 1_555 1_555
C6_11 C5_11 1_555 1_555
O18_7 C6_11 1_555 1_555
C7_11 C2_11 1_555 1_555
H3_11 C7_11 1_555 1_555
C8_11 C4_11 1_555 1_555
C9_11 C8_11 1_555 1_555
O4_7 C9_11 1_555 1_555
O22_5 C3_11 1_555 1_555
O6_7 C9_11 1_555 1_555
O20_6 C6_11 1_555 1_555
C10_11 H4_11 1_555 1_555
C11_11 C10_11 1_555 1_555
C12_11 C11_11 1_555 1_555
O19_5 C12_11 1_555 1_555
C13_11 H5_11 1_555 1_555
C14_11 C10_11 1_555 1_555
C15_11 C14_11 1_555 1_555
O16_4 C15_11 1_555 1_555
C16_11 C11_11 1_555 1_555
H6_11 C16_11 1_555 1_555
C17_11 C13_11 1_555 1_555
C18_11 C17_11 1_555 1_555
O17_7 C18_11 1_555 1_555
O21_5 C18_11 1_555 1_555
O14_7 C15_11 1_555 1_555
O15_23 Cr6_6 1_555 1_555
Cr6_6 O6_7 1_555 1_555
O17_15 Cr6_6 1_555 1_555
O20_15 Cr6_6 1_555 1_555
Cr8_6 O4_7 1_555 1_555
Cr7_6 O14_7 1_555 1_555
C4_11 C5_11 1_555 1_555
C7_11 C8_11 1_555 1_555
C12_11 O21_13 1_555 1_555
C13_11 C14_11 1_555 1_555
C16_11 C17_11 1_555 1_555
C1_12 H1_12 1_555 1_555
C2_12 C1_12 1_555 1_555
C3_12 C2_12 1_555 1_555
O18_14 C3_12 1_555 1_555
C4_12 H2_12 1_555 1_555
C5_12 C1_12 1_555 1_555
C6_12 C5_12 1_555 1_555
O18_5 C6_12 1_555 1_555
C7_12 C2_12 1_555 1_555
H3_12 C7_12 1_555 1_555
C8_12 C4_12 1_555 1_555
C9_12 C8_12 1_555 1_555
O4_8 C9_12 1_555 1_555
O22_6 C3_12 1_555 1_555
O6_8 C9_12 1_555 1_555
O20_7 C6_12 1_555 1_555
C10_12 H4_12 1_555 1_555
C11_12 C10_12 1_555 1_555
C12_12 C11_12 1_555 1_555
O19_6 C12_12 1_555 1_555
C13_12 H5_12 1_555 1_555
C14_12 C10_12 1_555 1_555
C15_12 C14_12 1_555 1_555
O16_3 C15_12 1_555 1_555
C16_12 C11_12 1_555 1_555
H6_12 C16_12 1_555 1_555
C17_12 C13_12 1_555 1_555
C18_12 C17_12 1_555 1_555
O17_6 C18_12 1_555 1_555
O21_7 C18_12 1_555 1_555
O14_8 C15_12 1_555 1_555
O15_24 Cr6_5 1_555 1_555
Cr6_5 O6_8 1_555 1_555
O17_16 Cr6_5 1_555 1_555
O20_16 Cr6_5 1_555 1_555
Cr8_5 O4_8 1_555 1_555
Cr7_5 O14_8 1_555 1_555
C4_12 C5_12 1_555 1_555
C7_12 C8_12 1_555 1_555
C12_12 O21_14 1_555 1_555
C13_12 C14_12 1_555 1_555
C16_12 C17_12 1_555 1_555
O9_33 Cr7_5 1_555 1_555
O18_21 Cr7_5 1_555 1_555
O21_21 Cr7_5 1_555 1_555
O9_34 Cr7_6 1_555 1_555
O18_22 Cr7_6 1_555 1_555
O21_22 Cr7_6 1_555 1_555
O9_35 Cr8_6 1_555 1_555
O18_23 Cr8_6 1_555 1_555
O21_23 Cr8_6 1_555 1_555
O9_36 Cr8_5 1_555 1_555
O18_24 Cr8_5 1_555 1_555
O21_24 Cr8_5 1_555 1_555
C1_13 H1_13 1_555 1_555
C2_13 C1_13 1_555 1_555
C3_13 C2_13 1_555 1_555
O18_3 C3_13 1_555 1_555
C4_13 H2_13 1_555 1_555
C5_13 C1_13 1_555 1_555
C6_13 C5_13 1_555 1_555
O18_20 C6_13 1_555 1_555
C7_13 C2_13 1_555 1_555
H3_13 C7_13 1_555 1_555
C8_13 C4_13 1_555 1_555
C9_13 C8_13 1_555 1_555
O17_14 C9_13 1_555 1_555
O22_3 C3_13 1_555 1_555
O21_22 C9_13 1_555 1_555
O20_12 C6_13 1_555 1_555
C4_13 C5_13 1_555 1_555
C7_13 C8_13 1_555 1_555
C10_13 H4_13 1_555 1_555
C11_13 C10_13 1_555 1_555
C12_13 C11_13 1_555 1_555
O19_3 C12_13 1_555 1_555
C13_13 H5_13 1_555 1_555
C14_13 C10_13 1_555 1_555
C15_13 C14_13 1_555 1_555
O18_23 C15_13 1_555 1_555
C16_13 C11_13 1_555 1_555
H6_13 C16_13 1_555 1_555
C17_13 C13_13 1_555 1_555
C18_13 C17_13 1_555 1_555
O17_9 C18_13 1_555 1_555
O21_18 C18_13 1_555 1_555
O20_15 C15_13 1_555 1_555
C12_13 O21_3 1_555 1_555
C13_13 C14_13 1_555 1_555
C16_13 C17_13 1_555 1_555
C10_14 H4_14 1_555 1_555
C11_14 C10_14 1_555 1_555
C12_14 C11_14 1_555 1_555
O19_4 C12_14 1_555 1_555
C13_14 H5_14 1_555 1_555
C14_14 C10_14 1_555 1_555
C15_14 C14_14 1_555 1_555
O18_24 C15_14 1_555 1_555
C16_14 C11_14 1_555 1_555
H6_14 C16_14 1_555 1_555
C17_14 C13_14 1_555 1_555
C18_14 C17_14 1_555 1_555
O17_12 C18_14 1_555 1_555
O21_20 C18_14 1_555 1_555
O20_16 C15_14 1_555 1_555
C12_14 O21_4 1_555 1_555
C13_14 C14_14 1_555 1_555
C16_14 C17_14 1_555 1_555
C1_14 H1_14 1_555 1_555
C2_14 C1_14 1_555 1_555
C3_14 C2_14 1_555 1_555
O18_4 C3_14 1_555 1_555
C4_14 H2_14 1_555 1_555
C5_14 C1_14 1_555 1_555
C6_14 C5_14 1_555 1_555
O18_18 C6_14 1_555 1_555
C7_14 C2_14 1_555 1_555
H3_14 C7_14 1_555 1_555
C8_14 C4_14 1_555 1_555
C9_14 C8_14 1_555 1_555
O17_13 C9_14 1_555 1_555
O22_4 C3_14 1_555 1_555
O21_21 C9_14 1_555 1_555
O20_9 C6_14 1_555 1_555
C4_14 C5_14 1_555 1_555
C7_14 C8_14 1_555 1_555
C1_15 H1_15 1_555 1_555
C2_15 C1_15 1_555 1_555
C3_15 C2_15 1_555 1_555
O18 C3_15 1_555 1_555
C4_15 H2_15 1_555 1_555
C5_15 C1_15 1_555 1_555
C6_15 C5_15 1_555 1_555
O18_19 C6_15 1_555 1_555
C7_15 C2_15 1_555 1_555
H3_15 C7_15 1_555 1_555
C8_15 C4_15 1_555 1_555
C9_15 C8_15 1_555 1_555
O17_16 C9_15 1_555 1_555
O22 C3_15 1_555 1_555
O21_24 C9_15 1_555 1_555
O20_10 C6_15 1_555 1_555
C4_15 C5_15 1_555 1_555
C7_15 C8_15 1_555 1_555
C10_15 H4_15 1_555 1_555
C11_15 C10_15 1_555 1_555
C12_15 C11_15 1_555 1_555
O19 C12_15 1_555 1_555
C13_15 H5_15 1_555 1_555
C14_15 C10_15 1_555 1_555
C15_15 C14_15 1_555 1_555
O18_21 C15_15 1_555 1_555
C16_15 C11_15 1_555 1_555
H6_15 C16_15 1_555 1_555
C17_15 C13_15 1_555 1_555
C18_15 C17_15 1_555 1_555
O17_11 C18_15 1_555 1_555
O21_17 C18_15 1_555 1_555
O20_13 C15_15 1_555 1_555
C12_15 O21 1_555 1_555
C13_15 C14_15 1_555 1_555
C16_15 C17_15 1_555 1_555
C10_16 H4_16 1_555 1_555
C11_16 C10_16 1_555 1_555
C12_16 C11_16 1_555 1_555
O19_2 C12_16 1_555 1_555
C13_16 H5_16 1_555 1_555
C14_16 C10_16 1_555 1_555
C15_16 C14_16 1_555 1_555
O18_22 C15_16 1_555 1_555
C16_16 C11_16 1_555 1_555
H6_16 C16_16 1_555 1_555
C17_16 C13_16 1_555 1_555
C18_16 C17_16 1_555 1_555
O17_10 C18_16 1_555 1_555
O21_19 C18_16 1_555 1_555
O20_14 C15_16 1_555 1_555
C12_16 O21_2 1_555 1_555
C13_16 C14_16 1_555 1_555
C16_16 C17_16 1_555 1_555
C1_16 H1_16 1_555 1_555
C2_16 C1_16 1_555 1_555
C3_16 C2_16 1_555 1_555
O18_2 C3_16 1_555 1_555
C4_16 H2_16 1_555 1_555
C5_16 C1_16 1_555 1_555
C6_16 C5_16 1_555 1_555
O18_17 C6_16 1_555 1_555
C7_16 C2_16 1_555 1_555
H3_16 C7_16 1_555 1_555
C8_16 C4_16 1_555 1_555
C9_16 C8_16 1_555 1_555
O17_15 C9_16 1_555 1_555
O22_2 C3_16 1_555 1_555
O21_23 C9_16 1_555 1_555
O20_11 C6_16 1_555 1_555
C4_16 C5_16 1_555 1_555
C7_16 C8_16 1_555 1_555

#END
