
###############################################################################
#
# This file contains modified crystal structure data generated from the
# MOF subset of the Cambridge Structural Database (CSD) v543 
# hosted by the Cambridge Crystallographic Data Centre (CCDC).
#
# This work is licensed under the Creative Commons
# Attribution-NonCommercial-ShareAlike 4.0 International License.
# To view a copy of this license, visit
# http://creativecommons.org/licenses/by-nc-sa/4.0/
# or send a letter to
# Creative Commons, PO Box 1866, Mountain View, CA 94042, USA.
#
# CIF created using the CSD Python API on 29 September 2022
# The structure has been converted into the P1 space group
# The structure has a 3D framework
# The original CSD entry GEVWAI is in the cubic crystal system
# The framework has been calculated to contain at least 10.0% void space
# The void calculation uses a probe of radius 1.32A, grid spacing 0.4
#
###############################################################################

data_GEVWAI
_chemical_formula_moiety         '(C288 H96 Cr41 O192)n'
_symmetry_cell_setting           triclinic
_symmetry_space_group_name_H-M   'P 1'
_symmetry_Int_Tables_number      1
_space_group_name_Hall           'P 1'
loop_
_symmetry_equiv_pos_site_id
_symmetry_equiv_pos_as_xyz
1 x,y,z
_cell_length_a                   26.6822(11)
_cell_length_b                   26.6822(11)
_cell_length_c                   26.6822(11)
_cell_angle_alpha                90
_cell_angle_beta                 90
_cell_angle_gamma                90
_cell_volume                     18996.1
loop_
_atom_site_label
_atom_site_type_symbol
_atom_site_fract_x
_atom_site_fract_y
_atom_site_fract_z
Cr1 Cr 0.22247(3) 0.22247(3) 0.000000
O1 O 0.25731(9) 0.18347(9) 0.05316(9)
C1 C 0.29725(13) 0.20275(13) 0.07048(18)
C2 C 0.32189(14) 0.17811(14) 0.11417(19)
C3 C 0.30050(19) 0.13547(13) 0.13547(13)
H1 H 0.271401 0.120960 0.120961
O2 O 0.18347(9) 0.25731(9) 0.05316(9)
Cr2 Cr 0.27753(3) 0.27753(3) 0.000000
C4 C 0.20275(13) 0.29725(13) 0.07048(18)
O5 O 0.31653(9) 0.24269(9) 0.05316(9)
O6 O 0.24269(9) 0.31653(9) 0.05316(9)
C5 C 0.17811(14) 0.32189(14) 0.11417(19)
C6 C 0.36453(13) 0.19950(19) 0.13547(13)
C7 C 0.13547(13) 0.30050(19) 0.13547(13)
C8 C 0.19950(19) 0.36453(13) 0.13547(13)
C9 C 0.32189(14) 0.11417(19) 0.17811(14)
C10 C 0.38583(19) 0.17811(14) 0.17811(14)
H2 H 0.379039 0.228599 0.120960
C11 C 0.11417(19) 0.32189(14) 0.17811(14)
H3 H 0.120961 0.271401 0.120960
H4 H 0.228599 0.379040 0.120961
C12 C 0.17811(14) 0.38583(19) 0.17811(14)
C13 C 0.29725(13) 0.07048(18) 0.20275(13)
C14 C 0.36453(13) 0.13547(13) 0.19950(19)
C15 C 0.42952(18) 0.20275(13) 0.20275(13)
C16 C 0.07048(18) 0.29725(13) 0.20275(13)
C17 C 0.13547(13) 0.36453(13) 0.19950(19)
C18 C 0.20275(13) 0.42952(18) 0.20275(13)
O9 O 0.31653(9) 0.05316(9) 0.24269(9)
O10 O 0.25731(9) 0.05316(9) 0.18347(9)
H5 H 0.379040 0.120961 0.228599
O11 O 0.44684(9) 0.24269(9) 0.18347(9)
O12 O 0.44684(9) 0.18347(9) 0.24269(9)
O13 O 0.05316(9) 0.25731(9) 0.18347(9)
O14 O 0.05316(9) 0.31653(9) 0.24269(9)
H6 H 0.120960 0.379039 0.228599
O15 O 0.18347(9) 0.44684(9) 0.24269(9)
O16 O 0.24269(9) 0.44684(9) 0.18347(9)
Cr3 Cr 0.27753(3) 0.000000 0.27753(3)
Cr4 Cr 0.22247(3) -0.000000 0.22247(3)
Cr5 Cr 0.500000 0.27753(3) 0.22247(3)
Cr6 Cr 0.500000 0.22247(3) 0.27753(3)
Cr7 Cr -0.000000 0.22247(3) 0.22247(3)
Cr8 Cr -0.000000 0.27753(3) 0.27753(3)
Cr9 Cr 0.22247(3) 0.500000 0.27753(3)
Cr10 Cr 0.27753(3) 0.500000 0.22247(3)
O17 O 0.18347(9) 0.05316(9) 0.25731(9)
Cr1_2 Cr 0.22247(3) 0.22247(3) 1.000000
O3 O 0.18347(9) 0.25731(9) 0.94684(9)
O4 O 0.25731(9) 0.18347(9) 0.94684(9)
Cr2_2 Cr 0.27753(3) 0.27753(3) 1.000000
O7 O 0.24269(9) 0.31653(9) 0.94684(9)
O8 O 0.31653(9) 0.24269(9) 0.94684(9)
Cr3_2 Cr 0.27753(3) 1.000000 0.27753(3)
Cr4_2 Cr 0.22247(3) 1.000000 0.22247(3)
O18 O 0.25731(9) 0.94684(9) 0.18347(9)
O19 O 0.18347(9) 0.94684(9) 0.25731(9)
Cr7_2 Cr 1.000000 0.22247(3) 0.22247(3)
Cr8_2 Cr 1.000000 0.27753(3) 0.27753(3)
O19_2 O 0.05316(9) 0.18347(9) 0.25731(9)
Cr1_3 Cr 0.77753(3) 0.22247(3) 0.000000
O1_2 O 0.81653(9) 0.25731(9) 0.05316(9)
C1_2 C 0.79725(13) 0.29725(13) 0.07048(18)
C2_2 C 0.82189(14) 0.32189(14) 0.11417(19)
C3_2 C 0.86453(13) 0.30050(19) 0.13547(13)
H1_2 H 0.879040 0.271401 0.120961
O2_2 O 0.74269(9) 0.18347(9) 0.05316(9)
Cr2_3 Cr 0.72247(3) 0.27753(3) 0.000000
C4_2 C 0.70275(13) 0.20275(13) 0.07048(18)
O5_2 O 0.75731(9) 0.31653(9) 0.05316(9)
O6_2 O 0.68347(9) 0.24269(9) 0.05316(9)
C5_2 C 0.67811(14) 0.17811(14) 0.11417(19)
C6_2 C 0.80050(19) 0.36453(13) 0.13547(13)
C7_2 C 0.69950(19) 0.13547(13) 0.13547(13)
C8_2 C 0.63547(13) 0.19950(19) 0.13547(13)
C9_2 C 0.88583(19) 0.32189(14) 0.17811(14)
C10_2 C 0.82189(14) 0.38583(19) 0.17811(14)
H2_2 H 0.771401 0.379039 0.120960
C11_2 C 0.67811(14) 0.11417(19) 0.17811(14)
H3_2 H 0.728599 0.120961 0.120960
H4_2 H 0.620960 0.228599 0.120961
C12_2 C 0.61417(19) 0.17811(14) 0.17811(14)
C13_2 C 0.92952(18) 0.29725(13) 0.20275(13)
C14_2 C 0.86453(13) 0.36453(13) 0.19950(19)
C15_2 C 0.79725(13) 0.42952(18) 0.20275(13)
C16_2 C 0.70275(13) 0.07048(18) 0.20275(13)
C17_2 C 0.63547(13) 0.13547(13) 0.19950(19)
C18_2 C 0.57048(18) 0.20275(13) 0.20275(13)
O9_2 O 0.94684(9) 0.31653(9) 0.24269(9)
O10_2 O 0.94684(9) 0.25731(9) 0.18347(9)
H5_2 H 0.879039 0.379040 0.228599
O11_2 O 0.75731(9) 0.44684(9) 0.18347(9)
O12_2 O 0.81653(9) 0.44684(9) 0.24269(9)
O13_2 O 0.74269(9) 0.05316(9) 0.18347(9)
O14_2 O 0.68347(9) 0.05316(9) 0.24269(9)
H6_2 H 0.620961 0.120960 0.228599
O15_2 O 0.55316(9) 0.18347(9) 0.24269(9)
O16_2 O 0.55316(9) 0.24269(9) 0.18347(9)
Cr5_2 Cr 0.72247(3) 0.500000 0.22247(3)
Cr6_2 Cr 0.77753(3) 0.500000 0.27753(3)
Cr7_3 Cr 0.77753(3) -0.000000 0.22247(3)
Cr8_3 Cr 0.72247(3) -0.000000 0.27753(3)
O17_2 O 0.94684(9) 0.18347(9) 0.25731(9)
Cr1_4 Cr 0.77753(3) 0.22247(3) 1.000000
O3_2 O 0.74269(9) 0.18347(9) 0.94684(9)
O4_2 O 0.81653(9) 0.25731(9) 0.94684(9)
Cr2_4 Cr 0.72247(3) 0.27753(3) 1.000000
O7_2 O 0.68347(9) 0.24269(9) 0.94684(9)
O8_2 O 0.75731(9) 0.31653(9) 0.94684(9)
Cr7_4 Cr 0.77753(3) 1.000000 0.22247(3)
Cr8_4 Cr 0.72247(3) 1.000000 0.27753(3)
Cr3_3 Cr 0.27753(3) 0.000000 0.72247(3)
Cr4_3 Cr 0.22247(3) 0.000000 0.77753(3)
O18_2 O 0.25731(9) 0.05316(9) 0.81653(9)
O19_3 O 0.18347(9) 0.05316(9) 0.74269(9)
Cr1_5 Cr 0.22247(3) 0.77753(3) 0.000000
O3_3 O 0.18347(9) 0.74269(9) 0.05316(9)
O4_3 O 0.25731(9) 0.81653(9) 0.05316(9)
Cr2_5 Cr 0.27753(3) 0.72247(3) 0.000000
O7_3 O 0.24269(9) 0.68347(9) 0.05316(9)
O8_3 O 0.31653(9) 0.75731(9) 0.05316(9)
Cr1_6 Cr 0.22247(3) 0.77753(3) 1.000000
O1_3 O 0.25731(9) 0.81653(9) 0.94684(9)
C1_3 C 0.29725(13) 0.79725(13) 0.92952(18)
C2_3 C 0.32189(14) 0.82189(14) 0.88583(19)
C3_3 C 0.30050(19) 0.86453(13) 0.86453(13)
H1_3 H 0.271401 0.879040 0.879039
O2_3 O 0.18347(9) 0.74269(9) 0.94684(9)
Cr2_6 Cr 0.27753(3) 0.72247(3) 1.000000
C4_3 C 0.20275(13) 0.70275(13) 0.92952(18)
O5_3 O 0.31653(9) 0.75731(9) 0.94684(9)
O6_3 O 0.24269(9) 0.68347(9) 0.94684(9)
C5_3 C 0.17811(14) 0.67811(14) 0.88583(19)
C6_3 C 0.36453(13) 0.80050(19) 0.86453(13)
C7_3 C 0.13547(13) 0.69950(19) 0.86453(13)
C8_3 C 0.19950(19) 0.63547(13) 0.86453(13)
C9_3 C 0.32189(14) 0.88583(19) 0.82189(14)
C10_3 C 0.38583(19) 0.82189(14) 0.82189(14)
H2_3 H 0.379039 0.771401 0.879040
C11_3 C 0.11417(19) 0.67811(14) 0.82189(14)
H3_3 H 0.120961 0.728599 0.879040
H4_3 H 0.228599 0.620960 0.879039
C12_3 C 0.17811(14) 0.61417(19) 0.82189(14)
C13_3 C 0.29725(13) 0.92952(18) 0.79725(13)
C14_3 C 0.36453(13) 0.86453(13) 0.80050(19)
C15_3 C 0.42952(18) 0.79725(13) 0.79725(13)
C16_3 C 0.07048(18) 0.70275(13) 0.79725(13)
C17_3 C 0.13547(13) 0.63547(13) 0.80050(19)
C18_3 C 0.20275(13) 0.57048(18) 0.79725(13)
O9_3 O 0.31653(9) 0.94684(9) 0.75731(9)
O10_3 O 0.25731(9) 0.94684(9) 0.81653(9)
H5_3 H 0.379040 0.879039 0.771401
O11_3 O 0.44684(9) 0.75731(9) 0.81653(9)
O12_3 O 0.44684(9) 0.81653(9) 0.75731(9)
O13_3 O 0.05316(9) 0.74269(9) 0.81653(9)
O14_3 O 0.05316(9) 0.68347(9) 0.75731(9)
H6_3 H 0.120960 0.620961 0.771401
O15_3 O 0.18347(9) 0.55316(9) 0.75731(9)
O16_3 O 0.24269(9) 0.55316(9) 0.81653(9)
Cr3_4 Cr 0.27753(3) 1.000000 0.72247(3)
Cr4_4 Cr 0.22247(3) 1.000000 0.77753(3)
Cr5_3 Cr 0.500000 0.72247(3) 0.77753(3)
Cr6_3 Cr 0.500000 0.77753(3) 0.72247(3)
Cr7_5 Cr 0.000000 0.77753(3) 0.77753(3)
Cr8_5 Cr -0.000000 0.72247(3) 0.72247(3)
Cr9_2 Cr 0.22247(3) 0.500000 0.72247(3)
Cr10_2 Cr 0.27753(3) 0.500000 0.77753(3)
O17_3 O 0.18347(9) 0.94684(9) 0.74269(9)
Cr7_6 Cr 1.000000 0.77753(3) 0.77753(3)
Cr8_6 Cr 1.000000 0.72247(3) 0.72247(3)
C4_4 C 0.07048(18) 0.20275(13) 0.29725(13)
O6_4 O 0.05316(9) 0.24269(9) 0.31653(9)
C5_4 C 0.11417(19) 0.17811(14) 0.32189(14)
C7_4 C 0.13547(13) 0.13547(13) 0.30050(19)
C8_4 C 0.13547(13) 0.19950(19) 0.36453(13)
C11_4 C 0.17811(14) 0.11417(19) 0.32189(14)
H3_4 H 0.120960 0.120961 0.271401
H4_4 H 0.120961 0.228599 0.379040
C12_4 C 0.17811(14) 0.17811(14) 0.38583(19)
C16_4 C 0.20275(13) 0.07048(18) 0.29725(13)
C17_4 C 0.19950(19) 0.13547(13) 0.36453(13)
C18_4 C 0.20275(13) 0.20275(13) 0.42952(18)
O14_4 O 0.24269(9) 0.05316(9) 0.31653(9)
H6_4 H 0.228599 0.120960 0.379039
O15_4 O 0.24269(9) 0.18347(9) 0.44684(9)
O16_4 O 0.18347(9) 0.24269(9) 0.44684(9)
Cr9_3 Cr 0.27753(3) 0.22247(3) 0.500000
Cr10_3 Cr 0.22247(3) 0.27753(3) 0.500000
O7_4 O 0.94684(9) 0.24269(9) 0.31653(9)
Cr7_7 Cr -0.000000 0.77753(3) 0.22247(3)
Cr8_7 Cr -0.000000 0.72247(3) 0.27753(3)
O19_4 O 0.81653(9) 0.05316(9) 0.25731(9)
Cr1_7 Cr 0.77753(3) 0.77753(3) 0.000000
O1_4 O 0.74269(9) 0.81653(9) 0.05316(9)
C1_4 C 0.70275(13) 0.79725(13) 0.07048(18)
C2_4 C 0.67811(14) 0.82189(14) 0.11417(19)
C3_4 C 0.69950(19) 0.86453(13) 0.13547(13)
H1_4 H 0.728599 0.879040 0.120961
O2_4 O 0.81653(9) 0.74269(9) 0.05316(9)
Cr2_7 Cr 0.72247(3) 0.72247(3) 0.000000
C4_5 C 0.79725(13) 0.70275(13) 0.07048(18)
O5_4 O 0.68347(9) 0.75731(9) 0.05316(9)
O6_5 O 0.75731(9) 0.68347(9) 0.05316(9)
C5_5 C 0.82189(14) 0.67811(14) 0.11417(19)
C6_4 C 0.63547(13) 0.80050(19) 0.13547(13)
C7_5 C 0.86453(13) 0.69950(19) 0.13547(13)
C8_5 C 0.80050(19) 0.63547(13) 0.13547(13)
C9_4 C 0.67811(14) 0.88583(19) 0.17811(14)
C10_4 C 0.61417(19) 0.82189(14) 0.17811(14)
H2_4 H 0.620961 0.771401 0.120960
C11_5 C 0.88583(19) 0.67811(14) 0.17811(14)
H3_5 H 0.879039 0.728599 0.120960
H4_5 H 0.771401 0.620960 0.120961
C12_5 C 0.82189(14) 0.61417(19) 0.17811(14)
C13_4 C 0.70275(13) 0.92952(18) 0.20275(13)
C14_4 C 0.63547(13) 0.86453(13) 0.19950(19)
C15_4 C 0.57048(18) 0.79725(13) 0.20275(13)
C16_5 C 0.92952(18) 0.70275(13) 0.20275(13)
C17_5 C 0.86453(13) 0.63547(13) 0.19950(19)
C18_5 C 0.79725(13) 0.57048(18) 0.20275(13)
O9_4 O 0.68347(9) 0.94684(9) 0.24269(9)
O10_4 O 0.74269(9) 0.94684(9) 0.18347(9)
H5_4 H 0.620960 0.879039 0.228599
O11_4 O 0.55316(9) 0.75731(9) 0.18347(9)
O12_4 O 0.55316(9) 0.81653(9) 0.24269(9)
O13_4 O 0.94684(9) 0.74269(9) 0.18347(9)
O14_5 O 0.94684(9) 0.68347(9) 0.24269(9)
H6_5 H 0.879040 0.620961 0.228599
O15_5 O 0.81653(9) 0.55316(9) 0.24269(9)
O16_5 O 0.75731(9) 0.55316(9) 0.18347(9)
Cr5_4 Cr 0.500000 0.72247(3) 0.22247(3)
Cr6_4 Cr 0.500000 0.77753(3) 0.27753(3)
Cr7_8 Cr 1.000000 0.77753(3) 0.22247(3)
Cr8_8 Cr 1.000000 0.72247(3) 0.27753(3)
O17_4 O 0.81653(9) 0.94684(9) 0.25731(9)
Cr1_8 Cr 0.77753(3) 0.77753(3) 1.000000
O3_4 O 0.81653(9) 0.74269(9) 0.94684(9)
O4_4 O 0.74269(9) 0.81653(9) 0.94684(9)
Cr2_8 Cr 0.72247(3) 0.72247(3) 1.000000
O7_5 O 0.75731(9) 0.68347(9) 0.94684(9)
O8_4 O 0.68347(9) 0.75731(9) 0.94684(9)
O19_5 O 0.05316(9) 0.81653(9) 0.74269(9)
Cr7_9 Cr 0.77753(3) 0.000000 0.77753(3)
Cr8_9 Cr 0.72247(3) 0.000000 0.72247(3)
C1_5 C 0.79725(13) 0.70275(13) 0.92952(18)
C2_5 C 0.82189(14) 0.67811(14) 0.88583(19)
C3_5 C 0.86453(13) 0.69950(19) 0.86453(13)
H1_5 H 0.879040 0.728599 0.879039
C4_6 C 0.70275(13) 0.79725(13) 0.92952(18)
C5_6 C 0.67811(14) 0.82189(14) 0.88583(19)
C6_5 C 0.80050(19) 0.63547(13) 0.86453(13)
C7_6 C 0.69950(19) 0.86453(13) 0.86453(13)
C8_6 C 0.63547(13) 0.80050(19) 0.86453(13)
C9_5 C 0.88583(19) 0.67811(14) 0.82189(14)
C10_5 C 0.82189(14) 0.61417(19) 0.82189(14)
H2_5 H 0.771401 0.620961 0.879040
C11_6 C 0.67811(14) 0.88583(19) 0.82189(14)
H3_6 H 0.728599 0.879039 0.879040
H4_6 H 0.620960 0.771401 0.879039
C12_6 C 0.61417(19) 0.82189(14) 0.82189(14)
C13_5 C 0.92952(18) 0.70275(13) 0.79725(13)
C14_5 C 0.86453(13) 0.63547(13) 0.80050(19)
C15_5 C 0.79725(13) 0.57048(18) 0.79725(13)
C16_6 C 0.70275(13) 0.92952(18) 0.79725(13)
C17_6 C 0.63547(13) 0.86453(13) 0.80050(19)
C18_6 C 0.57048(18) 0.79725(13) 0.79725(13)
O9_5 O 0.94684(9) 0.68347(9) 0.75731(9)
O10_5 O 0.94684(9) 0.74269(9) 0.81653(9)
H5_5 H 0.879039 0.620960 0.771401
O11_5 O 0.75731(9) 0.55316(9) 0.81653(9)
O12_5 O 0.81653(9) 0.55316(9) 0.75731(9)
O13_5 O 0.74269(9) 0.94684(9) 0.81653(9)
O14_6 O 0.68347(9) 0.94684(9) 0.75731(9)
H6_6 H 0.620961 0.879040 0.771401
O15_6 O 0.55316(9) 0.81653(9) 0.75731(9)
O16_6 O 0.55316(9) 0.75731(9) 0.81653(9)
Cr5_5 Cr 0.72247(3) 0.500000 0.77753(3)
Cr6_5 Cr 0.77753(3) 0.500000 0.72247(3)
Cr7_10 Cr 0.77753(3) 1.000000 0.77753(3)
Cr8_10 Cr 0.72247(3) 1.000000 0.72247(3)
O17_5 O 0.94684(9) 0.81653(9) 0.74269(9)
C1_6 C 0.20275(13) 0.29725(13) 0.92952(18)
C2_6 C 0.17811(14) 0.32189(14) 0.88583(19)
C3_6 C 0.13547(13) 0.30050(19) 0.86453(13)
H1_6 H 0.120960 0.271401 0.879039
C4_7 C 0.29725(13) 0.20275(13) 0.92952(18)
C5_7 C 0.32189(14) 0.17811(14) 0.88583(19)
C6_6 C 0.19950(19) 0.36453(13) 0.86453(13)
C7_7 C 0.30050(19) 0.13547(13) 0.86453(13)
C8_7 C 0.36453(13) 0.19950(19) 0.86453(13)
C9_6 C 0.11417(19) 0.32189(14) 0.82189(14)
C10_6 C 0.17811(14) 0.38583(19) 0.82189(14)
H2_6 H 0.228599 0.379039 0.879040
C11_7 C 0.32189(14) 0.11417(19) 0.82189(14)
H3_7 H 0.271401 0.120961 0.879040
H4_7 H 0.379040 0.228599 0.879039
C12_7 C 0.38583(19) 0.17811(14) 0.82189(14)
C13_6 C 0.07048(18) 0.29725(13) 0.79725(13)
C14_6 C 0.13547(13) 0.36453(13) 0.80050(19)
C15_6 C 0.20275(13) 0.42952(18) 0.79725(13)
C16_7 C 0.29725(13) 0.07048(18) 0.79725(13)
C17_7 C 0.36453(13) 0.13547(13) 0.80050(19)
C18_7 C 0.42952(18) 0.20275(13) 0.79725(13)
O9_6 O 0.05316(9) 0.31653(9) 0.75731(9)
O10_6 O 0.05316(9) 0.25731(9) 0.81653(9)
H5_6 H 0.120961 0.379040 0.771401
O11_6 O 0.24269(9) 0.44684(9) 0.81653(9)
O12_6 O 0.18347(9) 0.44684(9) 0.75731(9)
O14_7 O 0.31653(9) 0.05316(9) 0.75731(9)
H6_7 H 0.379039 0.120960 0.771401
O15_7 O 0.44684(9) 0.18347(9) 0.75731(9)
O16_7 O 0.44684(9) 0.24269(9) 0.81653(9)
Cr3_5 Cr 0.000000 0.27753(3) 0.72247(3)
Cr4_5 Cr -0.000000 0.22247(3) 0.77753(3)
Cr9_4 Cr 0.500000 0.22247(3) 0.72247(3)
Cr10_4 Cr 0.500000 0.27753(3) 0.77753(3)
O17_6 O 0.05316(9) 0.18347(9) 0.74269(9)
Cr3_6 Cr 1.000000 0.27753(3) 0.72247(3)
Cr4_6 Cr 1.000000 0.22247(3) 0.77753(3)
O18_3 O 0.94684(9) 0.25731(9) 0.81653(9)
O19_6 O 0.94684(9) 0.18347(9) 0.74269(9)
O1_5 O 0.05316(9) 0.81653(9) 0.25731(9)
C1_7 C 0.07048(18) 0.79725(13) 0.29725(13)
C2_7 C 0.11417(19) 0.82189(14) 0.32189(14)
C3_7 C 0.13547(13) 0.86453(13) 0.30050(19)
H1_7 H 0.120961 0.879040 0.271401
O2_5 O 0.05316(9) 0.74269(9) 0.18347(9)
C4_8 C 0.07048(18) 0.70275(13) 0.20275(13)
O5_5 O 0.05316(9) 0.75731(9) 0.31653(9)
O6_6 O 0.05316(9) 0.68347(9) 0.24269(9)
C5_8 C 0.11417(19) 0.67811(14) 0.17811(14)
C6_7 C 0.13547(13) 0.80050(19) 0.36453(13)
C7_8 C 0.13547(13) 0.69950(19) 0.13547(13)
C8_8 C 0.13547(13) 0.63547(13) 0.19950(19)
C9_7 C 0.17811(14) 0.88583(19) 0.32189(14)
C10_7 C 0.17811(14) 0.82189(14) 0.38583(19)
H2_7 H 0.120960 0.771401 0.379039
C11_8 C 0.17811(14) 0.67811(14) 0.11417(19)
H3_8 H 0.120960 0.728599 0.120961
H4_8 H 0.120961 0.620960 0.228599
C12_8 C 0.17811(14) 0.61417(19) 0.17811(14)
C13_7 C 0.20275(13) 0.92952(18) 0.29725(13)
C14_7 C 0.19950(19) 0.86453(13) 0.36453(13)
C15_7 C 0.20275(13) 0.79725(13) 0.42952(18)
C16_8 C 0.20275(13) 0.70275(13) 0.07048(18)
C17_8 C 0.19950(19) 0.63547(13) 0.13547(13)
C18_8 C 0.20275(13) 0.57048(18) 0.20275(13)
O9_7 O 0.24269(9) 0.94684(9) 0.31653(9)
H5_7 H 0.228599 0.879039 0.379040
O11_7 O 0.18347(9) 0.75731(9) 0.44684(9)
O12_7 O 0.24269(9) 0.81653(9) 0.44684(9)
H6_8 H 0.228599 0.620961 0.120960
O15_8 O 0.24269(9) 0.55316(9) 0.18347(9)
O16_8 O 0.18347(9) 0.55316(9) 0.24269(9)
Cr5_6 Cr 0.22247(3) 0.72247(3) 0.500000
Cr6_6 Cr 0.27753(3) 0.77753(3) 0.500000
O4_5 O 0.94684(9) 0.81653(9) 0.25731(9)
O8_5 O 0.94684(9) 0.75731(9) 0.31653(9)
C4_9 C 0.79725(13) 0.07048(18) 0.29725(13)
O6_7 O 0.75731(9) 0.05316(9) 0.31653(9)
C5_9 C 0.82189(14) 0.11417(19) 0.32189(14)
C7_9 C 0.86453(13) 0.13547(13) 0.30050(19)
C8_9 C 0.80050(19) 0.13547(13) 0.36453(13)
C11_9 C 0.88583(19) 0.17811(14) 0.32189(14)
H3_9 H 0.879039 0.120960 0.271401
H4_9 H 0.771401 0.120961 0.379040
C12_9 C 0.82189(14) 0.17811(14) 0.38583(19)
C16_9 C 0.92952(18) 0.20275(13) 0.29725(13)
C17_9 C 0.86453(13) 0.19950(19) 0.36453(13)
C18_9 C 0.79725(13) 0.20275(13) 0.42952(18)
H6_9 H 0.879040 0.228599 0.379039
O15_9 O 0.81653(9) 0.24269(9) 0.44684(9)
O16_9 O 0.75731(9) 0.18347(9) 0.44684(9)
Cr9_5 Cr 0.77753(3) 0.27753(3) 0.500000
Cr10_5 Cr 0.72247(3) 0.22247(3) 0.500000
O7_6 O 0.75731(9) 0.94684(9) 0.31653(9)
O7_7 O 0.05316(9) 0.24269(9) 0.68347(9)
C1_8 C 0.92952(18) 0.29725(13) 0.79725(13)
C2_8 C 0.88583(19) 0.32189(14) 0.82189(14)
C3_8 C 0.86453(13) 0.30050(19) 0.86453(13)
H1_8 H 0.879039 0.271401 0.879040
C4_10 C 0.92952(18) 0.20275(13) 0.70275(13)
O5_6 O 0.94684(9) 0.31653(9) 0.75731(9)
O6_8 O 0.94684(9) 0.24269(9) 0.68347(9)
C5_10 C 0.88583(19) 0.17811(14) 0.67811(14)
C6_8 C 0.86453(13) 0.36453(13) 0.80050(19)
C7_10 C 0.86453(13) 0.13547(13) 0.69950(19)
C8_10 C 0.86453(13) 0.19950(19) 0.63547(13)
C9_8 C 0.82189(14) 0.32189(14) 0.88583(19)
C10_8 C 0.82189(14) 0.38583(19) 0.82189(14)
H2_8 H 0.879040 0.379039 0.771401
C11_10 C 0.82189(14) 0.11417(19) 0.67811(14)
H3_10 H 0.879040 0.120961 0.728599
H4_10 H 0.879039 0.228599 0.620960
C12_10 C 0.82189(14) 0.17811(14) 0.61417(19)
C13_8 C 0.79725(13) 0.29725(13) 0.92952(18)
C14_8 C 0.80050(19) 0.36453(13) 0.86453(13)
C15_8 C 0.79725(13) 0.42952(18) 0.79725(13)
C16_10 C 0.79725(13) 0.07048(18) 0.70275(13)
C17_10 C 0.80050(19) 0.13547(13) 0.63547(13)
C18_10 C 0.79725(13) 0.20275(13) 0.57048(18)
H5_8 H 0.771401 0.379040 0.879039
O11_8 O 0.81653(9) 0.44684(9) 0.75731(9)
O12_8 O 0.75731(9) 0.44684(9) 0.81653(9)
O13_6 O 0.81653(9) 0.05316(9) 0.74269(9)
O14_8 O 0.75731(9) 0.05316(9) 0.68347(9)
H6_10 H 0.771401 0.120960 0.620961
O15_10 O 0.75731(9) 0.18347(9) 0.55316(9)
O16_10 O 0.81653(9) 0.24269(9) 0.55316(9)
C4_11 C 0.07048(18) 0.79725(13) 0.70275(13)
O6_9 O 0.05316(9) 0.75731(9) 0.68347(9)
C5_11 C 0.11417(19) 0.82189(14) 0.67811(14)
C7_11 C 0.13547(13) 0.86453(13) 0.69950(19)
C8_11 C 0.13547(13) 0.80050(19) 0.63547(13)
C11_11 C 0.17811(14) 0.88583(19) 0.67811(14)
H3_11 H 0.120960 0.879039 0.728599
H4_11 H 0.120961 0.771401 0.620960
C12_11 C 0.17811(14) 0.82189(14) 0.61417(19)
C16_11 C 0.20275(13) 0.92952(18) 0.70275(13)
C17_11 C 0.19950(19) 0.86453(13) 0.63547(13)
C18_11 C 0.20275(13) 0.79725(13) 0.57048(18)
O14_9 O 0.24269(9) 0.94684(9) 0.68347(9)
H6_11 H 0.228599 0.879040 0.620961
O15_11 O 0.24269(9) 0.81653(9) 0.55316(9)
O16_11 O 0.18347(9) 0.75731(9) 0.55316(9)
O7_8 O 0.94684(9) 0.75731(9) 0.68347(9)
O7_9 O 0.31653(9) 0.94684(9) 0.24269(9)
C4_12 C 0.29725(13) 0.79725(13) 0.07048(18)
C5_12 C 0.32189(14) 0.82189(14) 0.11417(19)
C7_12 C 0.30050(19) 0.86453(13) 0.13547(13)
C8_12 C 0.36453(13) 0.80050(19) 0.13547(13)
C11_12 C 0.32189(14) 0.88583(19) 0.17811(14)
H3_12 H 0.271401 0.879039 0.120960
H4_12 H 0.379040 0.771401 0.120961
C12_12 C 0.38583(19) 0.82189(14) 0.17811(14)
C16_12 C 0.29725(13) 0.92952(18) 0.20275(13)
C17_12 C 0.36453(13) 0.86453(13) 0.19950(19)
C18_12 C 0.42952(18) 0.79725(13) 0.20275(13)
H6_12 H 0.379039 0.879040 0.228599
O15_12 O 0.44684(9) 0.81653(9) 0.24269(9)
O16_12 O 0.44684(9) 0.75731(9) 0.18347(9)
C1_9 C 0.70275(13) 0.20275(13) 0.92952(18)
C2_9 C 0.67811(14) 0.17811(14) 0.88583(19)
C3_9 C 0.69950(19) 0.13547(13) 0.86453(13)
H1_9 H 0.728599 0.120960 0.879039
C6_9 C 0.63547(13) 0.19950(19) 0.86453(13)
C9_9 C 0.67811(14) 0.11417(19) 0.82189(14)
C10_9 C 0.61417(19) 0.17811(14) 0.82189(14)
H2_9 H 0.620961 0.228599 0.879040
C13_9 C 0.70275(13) 0.07048(18) 0.79725(13)
C14_9 C 0.63547(13) 0.13547(13) 0.80050(19)
C15_9 C 0.57048(18) 0.20275(13) 0.79725(13)
O9_8 O 0.68347(9) 0.05316(9) 0.75731(9)
O10_7 O 0.74269(9) 0.05316(9) 0.81653(9)
H5_9 H 0.620960 0.120961 0.771401
O11_9 O 0.55316(9) 0.24269(9) 0.81653(9)
O12_9 O 0.55316(9) 0.18347(9) 0.75731(9)
O19_7 O 0.81653(9) 0.94684(9) 0.74269(9)
C4_13 C 0.92952(18) 0.79725(13) 0.29725(13)
C5_13 C 0.88583(19) 0.82189(14) 0.32189(14)
C7_13 C 0.86453(13) 0.86453(13) 0.30050(19)
C8_13 C 0.86453(13) 0.80050(19) 0.36453(13)
C11_13 C 0.82189(14) 0.88583(19) 0.32189(14)
H3_13 H 0.879040 0.879039 0.271401
H4_13 H 0.879039 0.771401 0.379040
C12_13 C 0.82189(14) 0.82189(14) 0.38583(19)
C16_13 C 0.79725(13) 0.92952(18) 0.29725(13)
C17_13 C 0.80050(19) 0.86453(13) 0.36453(13)
C18_13 C 0.79725(13) 0.79725(13) 0.42952(18)
H6_13 H 0.771401 0.879040 0.379039
O15_13 O 0.75731(9) 0.81653(9) 0.44684(9)
O16_13 O 0.81653(9) 0.75731(9) 0.44684(9)
Cr9_6 Cr 0.72247(3) 0.77753(3) 0.500000
Cr10_6 Cr 0.77753(3) 0.72247(3) 0.500000
C1_10 C 0.92952(18) 0.79725(13) 0.70275(13)
C2_10 C 0.88583(19) 0.82189(14) 0.67811(14)
C3_10 C 0.86453(13) 0.86453(13) 0.69950(19)
H1_10 H 0.879039 0.879040 0.728599
C6_10 C 0.86453(13) 0.80050(19) 0.63547(13)
C9_10 C 0.82189(14) 0.88583(19) 0.67811(14)
C10_10 C 0.82189(14) 0.82189(14) 0.61417(19)
H2_10 H 0.879040 0.771401 0.620961
C13_10 C 0.79725(13) 0.92952(18) 0.70275(13)
C14_10 C 0.80050(19) 0.86453(13) 0.63547(13)
C15_10 C 0.79725(13) 0.79725(13) 0.57048(18)
O9_9 O 0.75731(9) 0.94684(9) 0.68347(9)
H5_10 H 0.771401 0.879039 0.620960
O11_10 O 0.81653(9) 0.75731(9) 0.55316(9)
O12_10 O 0.75731(9) 0.81653(9) 0.55316(9)
C1_11 C 0.07048(18) 0.20275(13) 0.70275(13)
C2_11 C 0.11417(19) 0.17811(14) 0.67811(14)
C3_11 C 0.13547(13) 0.13547(13) 0.69950(19)
H1_11 H 0.120961 0.120960 0.728599
C6_11 C 0.13547(13) 0.19950(19) 0.63547(13)
C9_11 C 0.17811(14) 0.11417(19) 0.67811(14)
C10_11 C 0.17811(14) 0.17811(14) 0.61417(19)
H2_11 H 0.120960 0.228599 0.620961
C13_11 C 0.20275(13) 0.07048(18) 0.70275(13)
C14_11 C 0.19950(19) 0.13547(13) 0.63547(13)
C15_11 C 0.20275(13) 0.20275(13) 0.57048(18)
O9_10 O 0.24269(9) 0.05316(9) 0.68347(9)
H5_11 H 0.228599 0.120961 0.620960
O11_11 O 0.18347(9) 0.24269(9) 0.55316(9)
O12_11 O 0.24269(9) 0.18347(9) 0.55316(9)
O1_6 O 0.25731(9) 0.68347(9) 0.55316(9)
C1_12 C 0.29725(13) 0.70275(13) 0.57048(18)
C2_12 C 0.32189(14) 0.67811(14) 0.61417(19)
C3_12 C 0.30050(19) 0.63547(13) 0.63547(13)
H1_12 H 0.271401 0.620960 0.620961
O4_6 O 0.25731(9) 0.68347(9) 0.44684(9)
O5_7 O 0.31653(9) 0.74269(9) 0.55316(9)
O8_6 O 0.31653(9) 0.74269(9) 0.44684(9)
C6_12 C 0.36453(13) 0.69950(19) 0.63547(13)
C9_12 C 0.32189(14) 0.61417(19) 0.67811(14)
C10_12 C 0.38583(19) 0.67811(14) 0.67811(14)
H2_12 H 0.379039 0.728599 0.620960
C13_12 C 0.29725(13) 0.57048(18) 0.70275(13)
C14_12 C 0.36453(13) 0.63547(13) 0.69950(19)
C15_12 C 0.42952(18) 0.70275(13) 0.70275(13)
O9_11 O 0.31653(9) 0.55316(9) 0.74269(9)
O10_8 O 0.25731(9) 0.55316(9) 0.68347(9)
H5_12 H 0.379040 0.620961 0.728599
O11_12 O 0.44684(9) 0.74269(9) 0.68347(9)
O12_12 O 0.44684(9) 0.68347(9) 0.74269(9)
O18_4 O 0.25731(9) 0.44684(9) 0.68347(9)
O2_6 O 0.74269(9) 0.68347(9) 0.55316(9)
O3_5 O 0.74269(9) 0.68347(9) 0.44684(9)
C4_14 C 0.70275(13) 0.70275(13) 0.57048(18)
O6_10 O 0.68347(9) 0.74269(9) 0.55316(9)
O7_10 O 0.68347(9) 0.74269(9) 0.44684(9)
C5_14 C 0.67811(14) 0.67811(14) 0.61417(19)
C7_14 C 0.69950(19) 0.63547(13) 0.63547(13)
C8_14 C 0.63547(13) 0.69950(19) 0.63547(13)
C11_14 C 0.67811(14) 0.61417(19) 0.67811(14)
H3_14 H 0.728599 0.620961 0.620960
H4_14 H 0.620960 0.728599 0.620961
C12_14 C 0.61417(19) 0.67811(14) 0.67811(14)
C16_14 C 0.70275(13) 0.57048(18) 0.70275(13)
C17_14 C 0.63547(13) 0.63547(13) 0.69950(19)
C18_14 C 0.57048(18) 0.70275(13) 0.70275(13)
O13_7 O 0.74269(9) 0.55316(9) 0.68347(9)
O14_10 O 0.68347(9) 0.55316(9) 0.74269(9)
H6_14 H 0.620961 0.620960 0.728599
O15_14 O 0.55316(9) 0.68347(9) 0.74269(9)
O16_14 O 0.55316(9) 0.74269(9) 0.68347(9)
O1_7 O 0.25731(9) 0.31653(9) 0.44684(9)
C1_13 C 0.29725(13) 0.29725(13) 0.42952(18)
C2_13 C 0.32189(14) 0.32189(14) 0.38583(19)
C3_13 C 0.30050(19) 0.36453(13) 0.36453(13)
H1_13 H 0.271401 0.379040 0.379039
O4_7 O 0.25731(9) 0.31653(9) 0.55316(9)
O5_8 O 0.31653(9) 0.25731(9) 0.44684(9)
O8_7 O 0.31653(9) 0.25731(9) 0.55316(9)
C6_13 C 0.36453(13) 0.30050(19) 0.36453(13)
C9_13 C 0.32189(14) 0.38583(19) 0.32189(14)
C10_13 C 0.38583(19) 0.32189(14) 0.32189(14)
H2_13 H 0.379039 0.271401 0.379040
C13_13 C 0.29725(13) 0.42952(18) 0.29725(13)
C14_13 C 0.36453(13) 0.36453(13) 0.30050(19)
C15_13 C 0.42952(18) 0.29725(13) 0.29725(13)
O9_12 O 0.31653(9) 0.44684(9) 0.25731(9)
O10_9 O 0.25731(9) 0.44684(9) 0.31653(9)
H5_13 H 0.379040 0.379039 0.271401
O11_13 O 0.44684(9) 0.25731(9) 0.31653(9)
O12_13 O 0.44684(9) 0.31653(9) 0.25731(9)
O18_5 O 0.25731(9) 0.55316(9) 0.31653(9)
O1_8 O 0.74269(9) 0.31653(9) 0.55316(9)
C1_14 C 0.70275(13) 0.29725(13) 0.57048(18)
C2_14 C 0.67811(14) 0.32189(14) 0.61417(19)
C3_14 C 0.69950(19) 0.36453(13) 0.63547(13)
H1_14 H 0.728599 0.379040 0.620961
O4_8 O 0.74269(9) 0.31653(9) 0.44684(9)
O5_9 O 0.68347(9) 0.25731(9) 0.55316(9)
O8_8 O 0.68347(9) 0.25731(9) 0.44684(9)
C6_14 C 0.63547(13) 0.30050(19) 0.63547(13)
C9_14 C 0.67811(14) 0.38583(19) 0.67811(14)
C10_14 C 0.61417(19) 0.32189(14) 0.67811(14)
H2_14 H 0.620961 0.271401 0.620960
C13_14 C 0.70275(13) 0.42952(18) 0.70275(13)
C14_14 C 0.63547(13) 0.36453(13) 0.69950(19)
C15_14 C 0.57048(18) 0.29725(13) 0.70275(13)
O9_13 O 0.68347(9) 0.44684(9) 0.74269(9)
O10_10 O 0.74269(9) 0.44684(9) 0.68347(9)
H5_14 H 0.620960 0.379039 0.728599
O11_14 O 0.55316(9) 0.25731(9) 0.68347(9)
O12_14 O 0.55316(9) 0.31653(9) 0.74269(9)
C4_15 C 0.70275(13) 0.29725(13) 0.42952(18)
C5_15 C 0.67811(14) 0.32189(14) 0.38583(19)
C7_15 C 0.69950(19) 0.36453(13) 0.36453(13)
C8_15 C 0.63547(13) 0.30050(19) 0.36453(13)
C11_15 C 0.67811(14) 0.38583(19) 0.32189(14)
H3_15 H 0.728599 0.379039 0.379040
H4_15 H 0.620960 0.271401 0.379039
C12_15 C 0.61417(19) 0.32189(14) 0.32189(14)
C16_15 C 0.70275(13) 0.42952(18) 0.29725(13)
C17_15 C 0.63547(13) 0.36453(13) 0.30050(19)
C18_15 C 0.57048(18) 0.29725(13) 0.29725(13)
O13_8 O 0.74269(9) 0.44684(9) 0.31653(9)
O14_11 O 0.68347(9) 0.44684(9) 0.25731(9)
H6_15 H 0.620961 0.379040 0.271401
O15_15 O 0.55316(9) 0.31653(9) 0.25731(9)
O16_15 O 0.55316(9) 0.25731(9) 0.31653(9)
C4_16 C 0.29725(13) 0.70275(13) 0.42952(18)
C5_16 C 0.32189(14) 0.67811(14) 0.38583(19)
C7_16 C 0.30050(19) 0.63547(13) 0.36453(13)
C8_16 C 0.36453(13) 0.69950(19) 0.36453(13)
C11_16 C 0.32189(14) 0.61417(19) 0.32189(14)
H3_16 H 0.271401 0.620961 0.379040
H4_16 H 0.379040 0.728599 0.379039
C12_16 C 0.38583(19) 0.67811(14) 0.32189(14)
C16_16 C 0.29725(13) 0.57048(18) 0.29725(13)
C17_16 C 0.36453(13) 0.63547(13) 0.30050(19)
C18_16 C 0.42952(18) 0.70275(13) 0.29725(13)
O14_12 O 0.31653(9) 0.55316(9) 0.25731(9)
H6_16 H 0.379039 0.620960 0.271401
O15_16 O 0.44684(9) 0.68347(9) 0.25731(9)
O16_16 O 0.44684(9) 0.74269(9) 0.31653(9)
O7_11 O 0.31653(9) 0.44684(9) 0.74269(9)
C4_17 C 0.29725(13) 0.29725(13) 0.57048(18)
C5_17 C 0.32189(14) 0.32189(14) 0.61417(19)
C7_17 C 0.30050(19) 0.36453(13) 0.63547(13)
C8_17 C 0.36453(13) 0.30050(19) 0.63547(13)
C11_17 C 0.32189(14) 0.38583(19) 0.67811(14)
H3_17 H 0.271401 0.379039 0.620960
H4_17 H 0.379040 0.271401 0.620961
C12_17 C 0.38583(19) 0.32189(14) 0.67811(14)
C16_17 C 0.29725(13) 0.42952(18) 0.70275(13)
C17_17 C 0.36453(13) 0.36453(13) 0.69950(19)
C18_17 C 0.42952(18) 0.29725(13) 0.70275(13)
H6_17 H 0.379039 0.379040 0.728599
O15_17 O 0.44684(9) 0.31653(9) 0.74269(9)
O16_17 O 0.44684(9) 0.25731(9) 0.68347(9)
C1_15 C 0.70275(13) 0.70275(13) 0.42952(18)
C2_15 C 0.67811(14) 0.67811(14) 0.38583(19)
C3_15 C 0.69950(19) 0.63547(13) 0.36453(13)
H1_15 H 0.728599 0.620960 0.379039
C6_15 C 0.63547(13) 0.69950(19) 0.36453(13)
C9_15 C 0.67811(14) 0.61417(19) 0.32189(14)
C10_15 C 0.61417(19) 0.67811(14) 0.32189(14)
H2_15 H 0.620961 0.728599 0.379040
C13_15 C 0.70275(13) 0.57048(18) 0.29725(13)
C14_15 C 0.63547(13) 0.63547(13) 0.30050(19)
C15_15 C 0.57048(18) 0.70275(13) 0.29725(13)
O9_14 O 0.68347(9) 0.55316(9) 0.25731(9)
O10_11 O 0.74269(9) 0.55316(9) 0.31653(9)
H5_15 H 0.620960 0.620961 0.271401
O11_15 O 0.55316(9) 0.74269(9) 0.31653(9)
O12_15 O 0.55316(9) 0.68347(9) 0.25731(9)
loop_
_geom_bond_atom_site_label_1
_geom_bond_atom_site_label_2
_geom_bond_site_symmetry_1
_geom_bond_site_symmetry_2
Cr1 O1 1_555 1_555
O1 C1 1_555 1_555
C1 C2 1_555 1_555
C2 C3 1_555 1_555
C3 H1 1_555 1_555
O2 Cr1 1_555 1_555
Cr2 Cr1 1_555 1_555
C4 O2 1_555 1_555
O5 C1 1_555 1_555
O6 Cr2 1_555 1_555
C5 C4 1_555 1_555
C6 C2 1_555 1_555
C7 C5 1_555 1_555
C8 C5 1_555 1_555
C9 C3 1_555 1_555
C10 C6 1_555 1_555
H2 C6 1_555 1_555
C11 C7 1_555 1_555
H3 C7 1_555 1_555
H4 C8 1_555 1_555
C12 C8 1_555 1_555
C13 C9 1_555 1_555
C14 C9 1_555 1_555
C15 C10 1_555 1_555
C16 C11 1_555 1_555
C17 C11 1_555 1_555
C18 C12 1_555 1_555
O9 C13 1_555 1_555
O10 C13 1_555 1_555
H5 C14 1_555 1_555
O11 C15 1_555 1_555
O12 C15 1_555 1_555
O13 C16 1_555 1_555
O14 C16 1_555 1_555
H6 C17 1_555 1_555
O15 C18 1_555 1_555
O16 C18 1_555 1_555
Cr3 O9 1_555 1_555
Cr4 O10 1_555 1_555
Cr5 O11 1_555 1_555
Cr6 O12 1_555 1_555
Cr7 O13 1_555 1_555
Cr8 O14 1_555 1_555
Cr9 O15 1_555 1_555
Cr10 O16 1_555 1_555
O17 Cr4 1_555 1_555
Cr2 O5 1_555 1_555
C4 O6 1_555 1_555
C10 C14 1_555 1_555
C12 C17 1_555 1_555
Cr3 Cr4 1_555 1_555
Cr5 Cr6 1_555 1_555
Cr7 Cr8 1_555 1_555
Cr9 Cr10 1_555 1_555
O3 Cr1_2 1_555 1_555
O4 Cr1_2 1_555 1_555
Cr2_2 Cr1_2 1_555 1_555
O7 Cr2_2 1_555 1_555
O8 Cr2_2 1_555 1_555
O18 Cr4_2 1_555 1_555
O19 Cr4_2 1_555 1_555
Cr3_2 Cr4_2 1_555 1_555
Cr7_2 Cr8_2 1_555 1_555
O19_2 Cr7 1_555 1_555
Cr1_3 O1_2 1_555 1_555
O1_2 C1_2 1_555 1_555
C1_2 C2_2 1_555 1_555
C2_2 C3_2 1_555 1_555
C3_2 H1_2 1_555 1_555
O2_2 Cr1_3 1_555 1_555
Cr2_3 Cr1_3 1_555 1_555
C4_2 O2_2 1_555 1_555
O5_2 C1_2 1_555 1_555
O6_2 Cr2_3 1_555 1_555
C5_2 C4_2 1_555 1_555
C6_2 C2_2 1_555 1_555
C7_2 C5_2 1_555 1_555
C8_2 C5_2 1_555 1_555
C9_2 C3_2 1_555 1_555
C10_2 C6_2 1_555 1_555
H2_2 C6_2 1_555 1_555
C11_2 C7_2 1_555 1_555
H3_2 C7_2 1_555 1_555
H4_2 C8_2 1_555 1_555
C12_2 C8_2 1_555 1_555
C13_2 C9_2 1_555 1_555
C14_2 C9_2 1_555 1_555
C15_2 C10_2 1_555 1_555
C16_2 C11_2 1_555 1_555
C17_2 C11_2 1_555 1_555
C18_2 C12_2 1_555 1_555
O9_2 C13_2 1_555 1_555
O10_2 C13_2 1_555 1_555
H5_2 C14_2 1_555 1_555
O11_2 C15_2 1_555 1_555
O12_2 C15_2 1_555 1_555
O13_2 C16_2 1_555 1_555
O14_2 C16_2 1_555 1_555
H6_2 C17_2 1_555 1_555
O15_2 C18_2 1_555 1_555
O16_2 C18_2 1_555 1_555
Cr8_2 O9_2 1_555 1_555
Cr7_2 O10_2 1_555 1_555
Cr5_2 O11_2 1_555 1_555
Cr6_2 O12_2 1_555 1_555
Cr7_3 O13_2 1_555 1_555
Cr8_3 O14_2 1_555 1_555
Cr6 O15_2 1_555 1_555
Cr5 O16_2 1_555 1_555
O17_2 Cr7_2 1_555 1_555
Cr2_3 O5_2 1_555 1_555
C4_2 O6_2 1_555 1_555
C10_2 C14_2 1_555 1_555
C12_2 C17_2 1_555 1_555
Cr5_2 Cr6_2 1_555 1_555
Cr7_3 Cr8_3 1_555 1_555
O3_2 Cr1_4 1_555 1_555
O4_2 Cr1_4 1_555 1_555
Cr2_4 Cr1_4 1_555 1_555
O7_2 Cr2_4 1_555 1_555
O8_2 Cr2_4 1_555 1_555
Cr7_4 Cr8_4 1_555 1_555
O18_2 Cr4_3 1_555 1_555
O19_3 Cr4_3 1_555 1_555
Cr3_3 Cr4_3 1_555 1_555
O3_3 Cr1_5 1_555 1_555
O4_3 Cr1_5 1_555 1_555
Cr2_5 Cr1_5 1_555 1_555
O7_3 Cr2_5 1_555 1_555
O8_3 Cr2_5 1_555 1_555
Cr1_6 O1_3 1_555 1_555
O1_3 C1_3 1_555 1_555
C1_3 C2_3 1_555 1_555
C2_3 C3_3 1_555 1_555
C3_3 H1_3 1_555 1_555
O2_3 Cr1_6 1_555 1_555
Cr2_6 Cr1_6 1_555 1_555
C4_3 O2_3 1_555 1_555
O5_3 C1_3 1_555 1_555
O6_3 Cr2_6 1_555 1_555
C5_3 C4_3 1_555 1_555
C6_3 C2_3 1_555 1_555
C7_3 C5_3 1_555 1_555
C8_3 C5_3 1_555 1_555
C9_3 C3_3 1_555 1_555
C10_3 C6_3 1_555 1_555
H2_3 C6_3 1_555 1_555
C11_3 C7_3 1_555 1_555
H3_3 C7_3 1_555 1_555
H4_3 C8_3 1_555 1_555
C12_3 C8_3 1_555 1_555
C13_3 C9_3 1_555 1_555
C14_3 C9_3 1_555 1_555
C15_3 C10_3 1_555 1_555
C16_3 C11_3 1_555 1_555
C17_3 C11_3 1_555 1_555
C18_3 C12_3 1_555 1_555
O9_3 C13_3 1_555 1_555
O10_3 C13_3 1_555 1_555
H5_3 C14_3 1_555 1_555
O11_3 C15_3 1_555 1_555
O12_3 C15_3 1_555 1_555
O13_3 C16_3 1_555 1_555
O14_3 C16_3 1_555 1_555
H6_3 C17_3 1_555 1_555
O15_3 C18_3 1_555 1_555
O16_3 C18_3 1_555 1_555
Cr3_4 O9_3 1_555 1_555
Cr4_4 O10_3 1_555 1_555
Cr5_3 O11_3 1_555 1_555
Cr6_3 O12_3 1_555 1_555
Cr7_5 O13_3 1_555 1_555
Cr8_5 O14_3 1_555 1_555
Cr9_2 O15_3 1_555 1_555
Cr10_2 O16_3 1_555 1_555
O17_3 Cr4_4 1_555 1_555
Cr2_6 O5_3 1_555 1_555
C4_3 O6_3 1_555 1_555
C10_3 C14_3 1_555 1_555
C12_3 C17_3 1_555 1_555
Cr3_4 Cr4_4 1_555 1_555
Cr5_3 Cr6_3 1_555 1_555
Cr7_5 Cr8_5 1_555 1_555
Cr9_2 Cr10_2 1_555 1_555
Cr7_6 Cr8_6 1_555 1_555
C4_4 O19_2 1_555 1_555
O6_4 Cr8 1_555 1_555
C5_4 C4_4 1_555 1_555
C7_4 C5_4 1_555 1_555
C8_4 C5_4 1_555 1_555
C11_4 C7_4 1_555 1_555
H3_4 C7_4 1_555 1_555
H4_4 C8_4 1_555 1_555
C12_4 C8_4 1_555 1_555
C16_4 C11_4 1_555 1_555
C17_4 C11_4 1_555 1_555
C18_4 C12_4 1_555 1_555
O17 C16_4 1_555 1_555
O14_4 C16_4 1_555 1_555
H6_4 C17_4 1_555 1_555
O15_4 C18_4 1_555 1_555
O16_4 C18_4 1_555 1_555
Cr3 O14_4 1_555 1_555
Cr9_3 O15_4 1_555 1_555
Cr10_3 O16_4 1_555 1_555
C4_4 O6_4 1_555 1_555
C12_4 C17_4 1_555 1_555
Cr9_3 Cr10_3 1_555 1_555
O7_4 Cr8_2 1_555 1_555
Cr7_7 Cr8_7 1_555 1_555
O19_4 Cr7_3 1_555 1_555
Cr1_7 O1_4 1_555 1_555
O1_4 C1_4 1_555 1_555
C1_4 C2_4 1_555 1_555
C2_4 C3_4 1_555 1_555
C3_4 H1_4 1_555 1_555
O2_4 Cr1_7 1_555 1_555
Cr2_7 Cr1_7 1_555 1_555
C4_5 O2_4 1_555 1_555
O5_4 C1_4 1_555 1_555
O6_5 Cr2_7 1_555 1_555
C5_5 C4_5 1_555 1_555
C6_4 C2_4 1_555 1_555
C7_5 C5_5 1_555 1_555
C8_5 C5_5 1_555 1_555
C9_4 C3_4 1_555 1_555
C10_4 C6_4 1_555 1_555
H2_4 C6_4 1_555 1_555
C11_5 C7_5 1_555 1_555
H3_5 C7_5 1_555 1_555
H4_5 C8_5 1_555 1_555
C12_5 C8_5 1_555 1_555
C13_4 C9_4 1_555 1_555
C14_4 C9_4 1_555 1_555
C15_4 C10_4 1_555 1_555
C16_5 C11_5 1_555 1_555
C17_5 C11_5 1_555 1_555
C18_5 C12_5 1_555 1_555
O9_4 C13_4 1_555 1_555
O10_4 C13_4 1_555 1_555
H5_4 C14_4 1_555 1_555
O11_4 C15_4 1_555 1_555
O12_4 C15_4 1_555 1_555
O13_4 C16_5 1_555 1_555
O14_5 C16_5 1_555 1_555
H6_5 C17_5 1_555 1_555
O15_5 C18_5 1_555 1_555
O16_5 C18_5 1_555 1_555
Cr8_4 O9_4 1_555 1_555
Cr7_4 O10_4 1_555 1_555
Cr5_4 O11_4 1_555 1_555
Cr6_4 O12_4 1_555 1_555
Cr7_8 O13_4 1_555 1_555
Cr8_8 O14_5 1_555 1_555
Cr6_2 O15_5 1_555 1_555
Cr5_2 O16_5 1_555 1_555
O17_4 Cr7_4 1_555 1_555
Cr2_7 O5_4 1_555 1_555
C4_5 O6_5 1_555 1_555
C10_4 C14_4 1_555 1_555
C12_5 C17_5 1_555 1_555
Cr5_4 Cr6_4 1_555 1_555
Cr7_8 Cr8_8 1_555 1_555
O3_4 Cr1_8 1_555 1_555
O4_4 Cr1_8 1_555 1_555
Cr2_8 Cr1_8 1_555 1_555
O7_5 Cr2_8 1_555 1_555
O8_4 Cr2_8 1_555 1_555
O19_5 Cr7_5 1_555 1_555
Cr7_9 Cr8_9 1_555 1_555
O3_4 C1_5 1_555 1_555
C1_5 C2_5 1_555 1_555
C2_5 C3_5 1_555 1_555
C3_5 H1_5 1_555 1_555
C4_6 O4_4 1_555 1_555
O7_5 C1_5 1_555 1_555
C5_6 C4_6 1_555 1_555
C6_5 C2_5 1_555 1_555
C7_6 C5_6 1_555 1_555
C8_6 C5_6 1_555 1_555
C9_5 C3_5 1_555 1_555
C10_5 C6_5 1_555 1_555
H2_5 C6_5 1_555 1_555
C11_6 C7_6 1_555 1_555
H3_6 C7_6 1_555 1_555
H4_6 C8_6 1_555 1_555
C12_6 C8_6 1_555 1_555
C13_5 C9_5 1_555 1_555
C14_5 C9_5 1_555 1_555
C15_5 C10_5 1_555 1_555
C16_6 C11_6 1_555 1_555
C17_6 C11_6 1_555 1_555
C18_6 C12_6 1_555 1_555
O9_5 C13_5 1_555 1_555
O10_5 C13_5 1_555 1_555
H5_5 C14_5 1_555 1_555
O11_5 C15_5 1_555 1_555
O12_5 C15_5 1_555 1_555
O13_5 C16_6 1_555 1_555
O14_6 C16_6 1_555 1_555
H6_6 C17_6 1_555 1_555
O15_6 C18_6 1_555 1_555
O16_6 C18_6 1_555 1_555
Cr8_6 O9_5 1_555 1_555
Cr7_6 O10_5 1_555 1_555
Cr5_5 O11_5 1_555 1_555
Cr6_5 O12_5 1_555 1_555
Cr7_10 O13_5 1_555 1_555
Cr8_10 O14_6 1_555 1_555
Cr6_3 O15_6 1_555 1_555
Cr5_3 O16_6 1_555 1_555
O17_5 Cr7_6 1_555 1_555
C4_6 O8_4 1_555 1_555
C10_5 C14_5 1_555 1_555
C12_6 C17_6 1_555 1_555
Cr5_5 Cr6_5 1_555 1_555
Cr7_10 Cr8_10 1_555 1_555
O3 C1_6 1_555 1_555
C1_6 C2_6 1_555 1_555
C2_6 C3_6 1_555 1_555
C3_6 H1_6 1_555 1_555
C4_7 O4 1_555 1_555
O7 C1_6 1_555 1_555
C5_7 C4_7 1_555 1_555
C6_6 C2_6 1_555 1_555
C7_7 C5_7 1_555 1_555
C8_7 C5_7 1_555 1_555
C9_6 C3_6 1_555 1_555
C10_6 C6_6 1_555 1_555
H2_6 C6_6 1_555 1_555
C11_7 C7_7 1_555 1_555
H3_7 C7_7 1_555 1_555
H4_7 C8_7 1_555 1_555
C12_7 C8_7 1_555 1_555
C13_6 C9_6 1_555 1_555
C14_6 C9_6 1_555 1_555
C15_6 C10_6 1_555 1_555
C16_7 C11_7 1_555 1_555
C17_7 C11_7 1_555 1_555
C18_7 C12_7 1_555 1_555
O9_6 C13_6 1_555 1_555
O10_6 C13_6 1_555 1_555
H5_6 C14_6 1_555 1_555
O11_6 C15_6 1_555 1_555
O12_6 C15_6 1_555 1_555
O18_2 C16_7 1_555 1_555
O14_7 C16_7 1_555 1_555
H6_7 C17_7 1_555 1_555
O15_7 C18_7 1_555 1_555
O16_7 C18_7 1_555 1_555
Cr3_5 O9_6 1_555 1_555
Cr4_5 O10_6 1_555 1_555
Cr10_2 O11_6 1_555 1_555
Cr9_2 O12_6 1_555 1_555
Cr3_3 O14_7 1_555 1_555
Cr9_4 O15_7 1_555 1_555
Cr10_4 O16_7 1_555 1_555
O17_6 Cr4_5 1_555 1_555
C4_7 O8 1_555 1_555
C10_6 C14_6 1_555 1_555
C12_7 C17_7 1_555 1_555
Cr3_5 Cr4_5 1_555 1_555
Cr9_4 Cr10_4 1_555 1_555
O18_3 Cr4_6 1_555 1_555
O19_6 Cr4_6 1_555 1_555
Cr3_6 Cr4_6 1_555 1_555
Cr7_7 O1_5 1_555 1_555
O1_5 C1_7 1_555 1_555
C1_7 C2_7 1_555 1_555
C2_7 C3_7 1_555 1_555
C3_7 H1_7 1_555 1_555
O2_5 Cr7_7 1_555 1_555
C4_8 O2_5 1_555 1_555
O5_5 C1_7 1_555 1_555
O6_6 Cr8_7 1_555 1_555
C5_8 C4_8 1_555 1_555
C6_7 C2_7 1_555 1_555
C7_8 C5_8 1_555 1_555
C8_8 C5_8 1_555 1_555
C9_7 C3_7 1_555 1_555
C10_7 C6_7 1_555 1_555
H2_7 C6_7 1_555 1_555
C11_8 C7_8 1_555 1_555
H3_8 C7_8 1_555 1_555
H4_8 C8_8 1_555 1_555
C12_8 C8_8 1_555 1_555
C13_7 C9_7 1_555 1_555
C14_7 C9_7 1_555 1_555
C15_7 C10_7 1_555 1_555
C16_8 C11_8 1_555 1_555
C17_8 C11_8 1_555 1_555
C18_8 C12_8 1_555 1_555
O9_7 C13_7 1_555 1_555
O19 C13_7 1_555 1_555
H5_7 C14_7 1_555 1_555
O11_7 C15_7 1_555 1_555
O12_7 C15_7 1_555 1_555
O3_3 C16_8 1_555 1_555
O7_3 C16_8 1_555 1_555
H6_8 C17_8 1_555 1_555
O15_8 C18_8 1_555 1_555
O16_8 C18_8 1_555 1_555
Cr3_2 O9_7 1_555 1_555
Cr5_6 O11_7 1_555 1_555
Cr6_6 O12_7 1_555 1_555
Cr10 O15_8 1_555 1_555
Cr9 O16_8 1_555 1_555
Cr8_7 O5_5 1_555 1_555
C4_8 O6_6 1_555 1_555
C10_7 C14_7 1_555 1_555
C12_8 C17_8 1_555 1_555
Cr5_6 Cr6_6 1_555 1_555
O4_5 Cr7_8 1_555 1_555
O8_5 Cr8_8 1_555 1_555
C4_9 O19_4 1_555 1_555
O6_7 Cr8_3 1_555 1_555
C5_9 C4_9 1_555 1_555
C7_9 C5_9 1_555 1_555
C8_9 C5_9 1_555 1_555
C11_9 C7_9 1_555 1_555
H3_9 C7_9 1_555 1_555
H4_9 C8_9 1_555 1_555
C12_9 C8_9 1_555 1_555
C16_9 C11_9 1_555 1_555
C17_9 C11_9 1_555 1_555
C18_9 C12_9 1_555 1_555
O17_2 C16_9 1_555 1_555
O7_4 C16_9 1_555 1_555
H6_9 C17_9 1_555 1_555
O15_9 C18_9 1_555 1_555
O16_9 C18_9 1_555 1_555
Cr9_5 O15_9 1_555 1_555
Cr10_5 O16_9 1_555 1_555
C4_9 O6_7 1_555 1_555
C12_9 C17_9 1_555 1_555
Cr9_5 Cr10_5 1_555 1_555
O7_6 Cr8_4 1_555 1_555
O7_7 Cr3_5 1_555 1_555
O18_3 C1_8 1_555 1_555
C1_8 C2_8 1_555 1_555
C2_8 C3_8 1_555 1_555
C3_8 H1_8 1_555 1_555
C4_10 O19_6 1_555 1_555
O5_6 C1_8 1_555 1_555
O6_8 Cr3_6 1_555 1_555
C5_10 C4_10 1_555 1_555
C6_8 C2_8 1_555 1_555
C7_10 C5_10 1_555 1_555
C8_10 C5_10 1_555 1_555
C9_8 C3_8 1_555 1_555
C10_8 C6_8 1_555 1_555
H2_8 C6_8 1_555 1_555
C11_10 C7_10 1_555 1_555
H3_10 C7_10 1_555 1_555
H4_10 C8_10 1_555 1_555
C12_10 C8_10 1_555 1_555
C13_8 C9_8 1_555 1_555
C14_8 C9_8 1_555 1_555
C15_8 C10_8 1_555 1_555
C16_10 C11_10 1_555 1_555
C17_10 C11_10 1_555 1_555
C18_10 C12_10 1_555 1_555
O8_2 C13_8 1_555 1_555
O4_2 C13_8 1_555 1_555
H5_8 C14_8 1_555 1_555
O11_8 C15_8 1_555 1_555
O12_8 C15_8 1_555 1_555
O13_6 C16_10 1_555 1_555
O14_8 C16_10 1_555 1_555
H6_10 C17_10 1_555 1_555
O15_10 C18_10 1_555 1_555
O16_10 C18_10 1_555 1_555
Cr6_5 O11_8 1_555 1_555
Cr5_5 O12_8 1_555 1_555
Cr7_9 O13_6 1_555 1_555
Cr8_9 O14_8 1_555 1_555
Cr10_5 O15_10 1_555 1_555
Cr9_5 O16_10 1_555 1_555
Cr3_6 O5_6 1_555 1_555
C4_10 O6_8 1_555 1_555
C10_8 C14_8 1_555 1_555
C12_10 C17_10 1_555 1_555
C4_11 O19_5 1_555 1_555
O6_9 Cr8_5 1_555 1_555
C5_11 C4_11 1_555 1_555
C7_11 C5_11 1_555 1_555
C8_11 C5_11 1_555 1_555
C11_11 C7_11 1_555 1_555
H3_11 C7_11 1_555 1_555
H4_11 C8_11 1_555 1_555
C12_11 C8_11 1_555 1_555
C16_11 C11_11 1_555 1_555
C17_11 C11_11 1_555 1_555
C18_11 C12_11 1_555 1_555
O17_3 C16_11 1_555 1_555
O14_9 C16_11 1_555 1_555
H6_11 C17_11 1_555 1_555
O15_11 C18_11 1_555 1_555
O16_11 C18_11 1_555 1_555
Cr3_4 O14_9 1_555 1_555
Cr6_6 O15_11 1_555 1_555
Cr5_6 O16_11 1_555 1_555
C4_11 O6_9 1_555 1_555
C12_11 C17_11 1_555 1_555
O7_8 Cr8_6 1_555 1_555
O7_9 Cr3_2 1_555 1_555
C4_12 O4_3 1_555 1_555
C5_12 C4_12 1_555 1_555
C7_12 C5_12 1_555 1_555
C8_12 C5_12 1_555 1_555
C11_12 C7_12 1_555 1_555
H3_12 C7_12 1_555 1_555
H4_12 C8_12 1_555 1_555
C12_12 C8_12 1_555 1_555
C16_12 C11_12 1_555 1_555
C17_12 C11_12 1_555 1_555
C18_12 C12_12 1_555 1_555
O18 C16_12 1_555 1_555
O7_9 C16_12 1_555 1_555
H6_12 C17_12 1_555 1_555
O15_12 C18_12 1_555 1_555
O16_12 C18_12 1_555 1_555
Cr6_4 O15_12 1_555 1_555
Cr5_4 O16_12 1_555 1_555
C4_12 O8_3 1_555 1_555
C12_12 C17_12 1_555 1_555
O3_2 C1_9 1_555 1_555
C1_9 C2_9 1_555 1_555
C2_9 C3_9 1_555 1_555
C3_9 H1_9 1_555 1_555
O7_2 C1_9 1_555 1_555
C6_9 C2_9 1_555 1_555
C9_9 C3_9 1_555 1_555
C10_9 C6_9 1_555 1_555
H2_9 C6_9 1_555 1_555
C13_9 C9_9 1_555 1_555
C14_9 C9_9 1_555 1_555
C15_9 C10_9 1_555 1_555
O9_8 C13_9 1_555 1_555
O10_7 C13_9 1_555 1_555
H5_9 C14_9 1_555 1_555
O11_9 C15_9 1_555 1_555
O12_9 C15_9 1_555 1_555
Cr8_9 O9_8 1_555 1_555
Cr7_9 O10_7 1_555 1_555
Cr10_4 O11_9 1_555 1_555
Cr9_4 O12_9 1_555 1_555
C10_9 C14_9 1_555 1_555
O19_7 Cr7_10 1_555 1_555
C4_13 O4_5 1_555 1_555
C5_13 C4_13 1_555 1_555
C7_13 C5_13 1_555 1_555
C8_13 C5_13 1_555 1_555
C11_13 C7_13 1_555 1_555
H3_13 C7_13 1_555 1_555
H4_13 C8_13 1_555 1_555
C12_13 C8_13 1_555 1_555
C16_13 C11_13 1_555 1_555
C17_13 C11_13 1_555 1_555
C18_13 C12_13 1_555 1_555
O17_4 C16_13 1_555 1_555
O7_6 C16_13 1_555 1_555
H6_13 C17_13 1_555 1_555
O15_13 C18_13 1_555 1_555
O16_13 C18_13 1_555 1_555
Cr9_6 O15_13 1_555 1_555
Cr10_6 O16_13 1_555 1_555
C4_13 O8_5 1_555 1_555
C12_13 C17_13 1_555 1_555
Cr9_6 Cr10_6 1_555 1_555
O17_5 C1_10 1_555 1_555
C1_10 C2_10 1_555 1_555
C2_10 C3_10 1_555 1_555
C3_10 H1_10 1_555 1_555
O7_8 C1_10 1_555 1_555
C6_10 C2_10 1_555 1_555
C9_10 C3_10 1_555 1_555
C10_10 C6_10 1_555 1_555
H2_10 C6_10 1_555 1_555
C13_10 C9_10 1_555 1_555
C14_10 C9_10 1_555 1_555
C15_10 C10_10 1_555 1_555
O9_9 C13_10 1_555 1_555
O19_7 C13_10 1_555 1_555
H5_10 C14_10 1_555 1_555
O11_10 C15_10 1_555 1_555
O12_10 C15_10 1_555 1_555
Cr8_10 O9_9 1_555 1_555
Cr10_6 O11_10 1_555 1_555
Cr9_6 O12_10 1_555 1_555
C10_10 C14_10 1_555 1_555
O17_6 C1_11 1_555 1_555
C1_11 C2_11 1_555 1_555
C2_11 C3_11 1_555 1_555
C3_11 H1_11 1_555 1_555
O7_7 C1_11 1_555 1_555
C6_11 C2_11 1_555 1_555
C9_11 C3_11 1_555 1_555
C10_11 C6_11 1_555 1_555
H2_11 C6_11 1_555 1_555
C13_11 C9_11 1_555 1_555
C14_11 C9_11 1_555 1_555
C15_11 C10_11 1_555 1_555
O9_10 C13_11 1_555 1_555
O19_3 C13_11 1_555 1_555
H5_11 C14_11 1_555 1_555
O11_11 C15_11 1_555 1_555
O12_11 C15_11 1_555 1_555
Cr3_3 O9_10 1_555 1_555
Cr10_3 O11_11 1_555 1_555
Cr9_3 O12_11 1_555 1_555
C10_11 C14_11 1_555 1_555
Cr5_6 O1_6 1_555 1_555
O1_6 C1_12 1_555 1_555
C1_12 C2_12 1_555 1_555
C2_12 C3_12 1_555 1_555
C3_12 H1_12 1_555 1_555
O4_6 Cr5_6 1_555 1_555
O5_7 C1_12 1_555 1_555
O8_6 Cr6_6 1_555 1_555
C6_12 C2_12 1_555 1_555
C9_12 C3_12 1_555 1_555
C10_12 C6_12 1_555 1_555
H2_12 C6_12 1_555 1_555
C13_12 C9_12 1_555 1_555
C14_12 C9_12 1_555 1_555
C15_12 C10_12 1_555 1_555
O9_11 C13_12 1_555 1_555
O10_8 C13_12 1_555 1_555
H5_12 C14_12 1_555 1_555
O11_12 C15_12 1_555 1_555
O12_12 C15_12 1_555 1_555
Cr10_2 O9_11 1_555 1_555
Cr9_2 O10_8 1_555 1_555
Cr6_3 O11_12 1_555 1_555
Cr5_3 O12_12 1_555 1_555
O18_4 Cr9_2 1_555 1_555
Cr6_6 O5_7 1_555 1_555
C10_12 C14_12 1_555 1_555
O2_6 Cr10_6 1_555 1_555
O3_5 Cr10_6 1_555 1_555
C4_14 O2_6 1_555 1_555
O6_10 Cr9_6 1_555 1_555
O7_10 Cr9_6 1_555 1_555
C5_14 C4_14 1_555 1_555
C7_14 C5_14 1_555 1_555
C8_14 C5_14 1_555 1_555
C11_14 C7_14 1_555 1_555
H3_14 C7_14 1_555 1_555
H4_14 C8_14 1_555 1_555
C12_14 C8_14 1_555 1_555
C16_14 C11_14 1_555 1_555
C17_14 C11_14 1_555 1_555
C18_14 C12_14 1_555 1_555
O13_7 C16_14 1_555 1_555
O14_10 C16_14 1_555 1_555
H6_14 C17_14 1_555 1_555
O15_14 C18_14 1_555 1_555
O16_14 C18_14 1_555 1_555
Cr6_5 O13_7 1_555 1_555
Cr5_5 O14_10 1_555 1_555
Cr5_3 O15_14 1_555 1_555
Cr6_3 O16_14 1_555 1_555
C4_14 O6_10 1_555 1_555
C12_14 C17_14 1_555 1_555
Cr10_3 O1_7 1_555 1_555
O1_7 C1_13 1_555 1_555
C1_13 C2_13 1_555 1_555
C2_13 C3_13 1_555 1_555
C3_13 H1_13 1_555 1_555
O4_7 Cr10_3 1_555 1_555
O5_8 C1_13 1_555 1_555
O8_7 Cr9_3 1_555 1_555
C6_13 C2_13 1_555 1_555
C9_13 C3_13 1_555 1_555
C10_13 C6_13 1_555 1_555
H2_13 C6_13 1_555 1_555
C13_13 C9_13 1_555 1_555
C14_13 C9_13 1_555 1_555
C15_13 C10_13 1_555 1_555
O9_12 C13_13 1_555 1_555
O10_9 C13_13 1_555 1_555
H5_13 C14_13 1_555 1_555
O11_13 C15_13 1_555 1_555
O12_13 C15_13 1_555 1_555
Cr10 O9_12 1_555 1_555
Cr9 O10_9 1_555 1_555
Cr6 O11_13 1_555 1_555
Cr5 O12_13 1_555 1_555
O18_5 Cr9 1_555 1_555
Cr9_3 O5_8 1_555 1_555
C10_13 C14_13 1_555 1_555
Cr9_5 O1_8 1_555 1_555
O1_8 C1_14 1_555 1_555
C1_14 C2_14 1_555 1_555
C2_14 C3_14 1_555 1_555
C3_14 H1_14 1_555 1_555
O4_8 Cr9_5 1_555 1_555
O5_9 C1_14 1_555 1_555
O8_8 Cr10_5 1_555 1_555
C6_14 C2_14 1_555 1_555
C9_14 C3_14 1_555 1_555
C10_14 C6_14 1_555 1_555
H2_14 C6_14 1_555 1_555
C13_14 C9_14 1_555 1_555
C14_14 C9_14 1_555 1_555
C15_14 C10_14 1_555 1_555
O9_13 C13_14 1_555 1_555
O10_10 C13_14 1_555 1_555
H5_14 C14_14 1_555 1_555
O11_14 C15_14 1_555 1_555
O12_14 C15_14 1_555 1_555
Cr5_5 O9_13 1_555 1_555
Cr6_5 O10_10 1_555 1_555
Cr9_4 O11_14 1_555 1_555
Cr10_4 O12_14 1_555 1_555
Cr10_5 O5_9 1_555 1_555
C10_14 C14_14 1_555 1_555
C4_15 O4_8 1_555 1_555
C5_15 C4_15 1_555 1_555
C7_15 C5_15 1_555 1_555
C8_15 C5_15 1_555 1_555
C11_15 C7_15 1_555 1_555
H3_15 C7_15 1_555 1_555
H4_15 C8_15 1_555 1_555
C12_15 C8_15 1_555 1_555
C16_15 C11_15 1_555 1_555
C17_15 C11_15 1_555 1_555
C18_15 C12_15 1_555 1_555
O13_8 C16_15 1_555 1_555
O14_11 C16_15 1_555 1_555
H6_15 C17_15 1_555 1_555
O15_15 C18_15 1_555 1_555
O16_15 C18_15 1_555 1_555
Cr6_2 O13_8 1_555 1_555
Cr5_2 O14_11 1_555 1_555
Cr5 O15_15 1_555 1_555
Cr6 O16_15 1_555 1_555
C4_15 O8_8 1_555 1_555
C12_15 C17_15 1_555 1_555
C4_16 O4_6 1_555 1_555
C5_16 C4_16 1_555 1_555
C7_16 C5_16 1_555 1_555
C8_16 C5_16 1_555 1_555
C11_16 C7_16 1_555 1_555
H3_16 C7_16 1_555 1_555
H4_16 C8_16 1_555 1_555
C12_16 C8_16 1_555 1_555
C16_16 C11_16 1_555 1_555
C17_16 C11_16 1_555 1_555
C18_16 C12_16 1_555 1_555
O18_5 C16_16 1_555 1_555
O14_12 C16_16 1_555 1_555
H6_16 C17_16 1_555 1_555
O15_16 C18_16 1_555 1_555
O16_16 C18_16 1_555 1_555
Cr10 O14_12 1_555 1_555
Cr5_4 O15_16 1_555 1_555
Cr6_4 O16_16 1_555 1_555
C4_16 O8_6 1_555 1_555
C12_16 C17_16 1_555 1_555
O7_11 Cr10_2 1_555 1_555
C4_17 O4_7 1_555 1_555
C5_17 C4_17 1_555 1_555
C7_17 C5_17 1_555 1_555
C8_17 C5_17 1_555 1_555
C11_17 C7_17 1_555 1_555
H3_17 C7_17 1_555 1_555
H4_17 C8_17 1_555 1_555
C12_17 C8_17 1_555 1_555
C16_17 C11_17 1_555 1_555
C17_17 C11_17 1_555 1_555
C18_17 C12_17 1_555 1_555
O18_4 C16_17 1_555 1_555
O7_11 C16_17 1_555 1_555
H6_17 C17_17 1_555 1_555
O15_17 C18_17 1_555 1_555
O16_17 C18_17 1_555 1_555
Cr10_4 O15_17 1_555 1_555
Cr9_4 O16_17 1_555 1_555
C4_17 O8_7 1_555 1_555
C12_17 C17_17 1_555 1_555
O3_5 C1_15 1_555 1_555
C1_15 C2_15 1_555 1_555
C2_15 C3_15 1_555 1_555
C3_15 H1_15 1_555 1_555
O7_10 C1_15 1_555 1_555
C6_15 C2_15 1_555 1_555
C9_15 C3_15 1_555 1_555
C10_15 C6_15 1_555 1_555
H2_15 C6_15 1_555 1_555
C13_15 C9_15 1_555 1_555
C14_15 C9_15 1_555 1_555
C15_15 C10_15 1_555 1_555
O9_14 C13_15 1_555 1_555
O10_11 C13_15 1_555 1_555
H5_15 C14_15 1_555 1_555
O11_15 C15_15 1_555 1_555
O12_15 C15_15 1_555 1_555
Cr5_2 O9_14 1_555 1_555
Cr6_2 O10_11 1_555 1_555
Cr6_4 O11_15 1_555 1_555
Cr5_4 O12_15 1_555 1_555
C10_15 C14_15 1_555 1_555

#END
