
###############################################################################
#
# This file contains modified crystal structure data generated from the
# MOF subset of the Cambridge Structural Database (CSD) v543 
# hosted by the Cambridge Crystallographic Data Centre (CCDC).
#
# This work is licensed under the Creative Commons
# Attribution-NonCommercial-ShareAlike 4.0 International License.
# To view a copy of this license, visit
# http://creativecommons.org/licenses/by-nc-sa/4.0/
# or send a letter to
# Creative Commons, PO Box 1866, Mountain View, CA 94042, USA.
#
# CIF created using the CSD Python API on 29 September 2022
# The structure has been converted into the P1 space group
# The structure has a 3D framework
# The original CSD entry GEWSAF is in the orthorhombic crystal system
# The original CSD entry GEWSAF is in a Sohncke space group
# The framework has been calculated to contain at least 10.0% void space
# The void calculation uses a probe of radius 1.32A, grid spacing 0.4
#
###############################################################################

data_GEWSAF
_chemical_formula_moiety         '(C176 H142 Dy20 N12 O94)n'
_symmetry_cell_setting           triclinic
_symmetry_space_group_name_H-M   'P 1'
_symmetry_Int_Tables_number      1
_space_group_name_Hall           'P 1'
loop_
_symmetry_equiv_pos_site_id
_symmetry_equiv_pos_as_xyz
1 x,y,z
_cell_length_a                   10.6031(12)
_cell_length_b                   17.566(2)
_cell_length_c                   33.636(4)
_cell_angle_alpha                90
_cell_angle_beta                 90
_cell_angle_gamma                90
_cell_volume                     6264.84
loop_
_atom_site_label
_atom_site_type_symbol
_atom_site_fract_x
_atom_site_fract_y
_atom_site_fract_z
Dy1 Dy 0.34237(3) 0.35278(2) 0.098062(10)
Dy2 Dy 0.66681(3) 0.30359(2) 0.062724(11)
Dy5 Dy 0.54725(4) 0.50497(2) 0.048378(11)
O1 O 0.0466(5) 0.2262(3) 0.03723(14)
O2 O 0.6014(5) 0.3953(3) 0.01569(16)
O3 O 0.1783(5) 0.2945(3) 0.14447(14)
O4 O 0.3310(5) 0.3659(3) 0.16836(15)
O6 O 0.5965(5) 0.1982(3) 0.09992(16)
O7 O 0.3603(5) 0.4355(3) 0.04214(15)
H4 H 0.2861 0.4680 0.0386
O8 O 0.5441(5) 0.4017(3) 0.09464(16)
H5 H 0.5776 0.4159 0.1208
O10 O 0.4484(4) 0.2868(3) 0.04544(14)
H6 H 0.4244 0.2330 0.0441
O11 O 0.4155(5) 0.2404(3) 0.12503(16)
C3 C 0.1184(8) 0.2431(4) 0.2222(2)
H7 H 0.0833 0.2175 0.2007
C5 C 0.0819(8) 0.2244(5) 0.2607(2)
H9 H 0.0266 0.1841 0.2650
C6 C 0.1287(8) 0.2665(4) 0.2934(2)
C7 C 0.0409(8) 0.1807(4) 0.3434(2)
N2 N 0.0836(7) 0.2535(3) 0.3323(2)
C8 C 0.1244(9) 0.1219(4) 0.3432(2)
H10 H 0.2076 0.1285 0.3351
O12 O 0.0508(6) 0.1528(3) 0.11769(17)
C9 C 0.2069(7) 0.2998(4) 0.2159(2)
C10 C 0.2417(8) 0.3222(4) 0.1733(2)
C12 C 0.3485(9) 0.0313(5) 0.1783(2)
H13 H 0.2812 0.0247 0.1957
C14 C 0.3657(9) 0.1029(5) 0.1625(2)
H14 H 0.3110 0.1431 0.1678
C15 C 0.4720(9) 0.1111(4) 0.1376(2)
O13 O 0.7674(6) 0.5021(4) 0.06616(19)
C17 C 0.0775(8) 0.0480(4) 0.3564(2)
H16 H 0.1319 0.0066 0.3578
C21 C 0.2567(8) 0.3372(5) 0.2474(2)
H19 H 0.3162 0.3751 0.2430
C22 C 0.0461(9) 0.3871(4) 0.3501(3)
H20 H 0.0317 0.3991 0.3236
C23 C 0.2229(8) 0.3213(5) 0.2847(2)
H21 H 0.2623 0.3467 0.3056
C25 C 0.0900(8) 0.2957(5) 0.4004(2)
H23 H 0.1108 0.2462 0.4078
C26 C 0.0762(9) 0.3132(5) 0.3608(3)
C29 C 0.5432(9) 0.0482(4) 0.1277(2)
H25 H 0.6080 0.0529 0.1092
C31 C 0.0372(9) 0.4432(5) 0.3789(2)
H26 H 0.0221 0.4933 0.3712
C32 C 0.4943(8) 0.1889(5) 0.1192(2)
C35 C 0.0502(9) 0.4265(5) 0.4185(2)
C36 C 0.0739(9) 0.3489(5) 0.4285(3)
H29 H 0.0784 0.3349 0.4552
O15 O 0.1768(5) 0.3108(3) 0.05960(15)
C39 C 0.0354(9) 0.4851(4) 0.4517(3)
O16 O 0.0445(5) 0.5533(3) 0.44157(15)
O17 O 0.0265(6) 0.4617(3) 0.48565(16)
N3 N 0.1501(6) 0.2662(4) 0.03117(19)
O25 O 0.7041(7) 0.5851(5) 0.0225(2)
C43 C 0.7936(11) 0.5516(8) 0.0426(4)
C44 C 0.9285(10) 0.5724(7) 0.0362(4)
H34 H 0.9661 0.5859 0.0612
H35 H 0.9336 0.6149 0.0184
H36 H 0.9728 0.5298 0.0251
Dy12 Dy 0.10700(3) 0.64717(2) 0.488246(11)
O28 O 0.8305(4) 0.2089(3) 0.07205(14)
O29 O 0.8686(4) 0.3515(3) 0.05510(14)
O32 O 0.5293(8) 0.5719(4) 0.1109(2)
O33 O 0.4313(9) 0.6206(4) 0.0603(3)
O34 O 0.0131(5) 0.4099(3) 0.11741(16)
O35 O 0.2043(5) 0.4552(3) 0.10841(17)
O37 O 0.7331(5) 0.3395(3) 0.13029(16)
O38 O 0.7106(5) 0.2367(3) 0.00109(15)
Dy4 Dy 0.39300(3) 0.35283(2) 0.988246(11)
H1 H 0.6644 0.4039 0.9949
O5 O 0.3305(4) 0.2911(3) 0.92795(14)
H3 H 0.3024 0.3292 0.9086
O14 O 0.1985(5) 0.4206(3) 0.97154(18)
H32 H 0.183(8) 0.455(4) 0.983(2)
H33 H 0.134(7) 0.440(4) 0.951(2)
O24 O 0.2106(5) 0.2633(3) 0.99891(15)
Dy9 Dy 0.16681(3) 0.19641(2) 0.937276(11)
Dy11 Dy 0.49143(3) 0.21609(2) 0.899968(11)
O26 O 0.5466(5) 0.2738(3) 0.96277(14)
O30 O 0.4555(5) 0.4467(3) 0.94157(15)
O31 O 0.4735(6) 0.5383(3) 0.98565(16)
C1 C 0.4240(9) 0.9677(5) 0.1704(3)
C2 C 0.5192(9) 0.9782(5) 0.1449(2)
H2 H 0.5709 0.9372 0.1386
N1 N 0.3961(9) 0.8954(4) 0.1858(2)
C4 C 0.2464(9) 0.8325(5) 0.2275(3)
H8 H 0.2114 0.8098 0.2050
C13 C 0.3410(10) 0.8826(5) 0.2229(3)
C18 C 0.4701(10) 0.7679(5) 0.1795(3)
H17 H 0.4938 0.7687 0.2062
C19 C 0.2566(8) 0.8455(5) 0.2986(2)
C20 C 0.1997(9) 0.8137(5) 0.2644(2)
H18 H 0.1317 0.7806 0.2668
C24 C 0.3525(9) 0.8987(5) 0.2932(3)
H22 H 0.3911 0.9214 0.3150
C27 C 0.3885(9) 0.9167(5) 0.2560(3)
H24 H 0.4491 0.9545 0.2527
C28 C 0.4586(10) 0.6965(5) 0.1187(3)
C30 C 0.4184(10) 0.8303(5) 0.1630(3)
C34 C 0.4884(9) 0.7025(5) 0.1572(3)
H28 H 0.5234 0.6603 0.1697
C37 C 0.3749(10) 0.8265(5) 0.1232(3)
H30 H 0.3366 0.8681 0.1112
C38 C 0.3919(10) 0.7570(5) 0.1025(3)
H31 H 0.3572 0.7517 0.0773
C40 C 0.4819(10) 0.6283(5) 0.0960(3)
C42 C 0.2111(9) 0.8205(5) 0.3394(3)
O22 O 0.1132(5) 0.7754(3) 0.33998(16)
O23 O 0.2669(5) 0.8395(3) 0.36971(16)
Dy8 Dy 0.33319(3) 0.80359(2) 0.437276(11)
Dy10 Dy 0.00857(3) 0.78391(2) 0.399968(11)
Dy3 Dy 0.99143(3) 0.28391(2) 0.100032(11)
H11 H 0.997(8) 0.132(4) 0.097(2)
H12 H 0.999(8) 0.164(5) 0.134(3)
C11 C 0.9491(8) 0.0393(4) 0.3670(2)
C16 C 0.8739(9) 0.0996(4) 0.3651(2)
H15 H 0.7890 0.0933 0.3713
C33 C 0.9162(8) 0.1718(5) 0.3544(2)
H27 H 0.8617 0.2132 0.3547
Dy13 Dy 0.89300(3) 0.14717(2) 0.011754(11)
Dy15 Dy 0.95275(4) 0.49503(2) 0.548378(11)
O36 O 0.8868(5) 0.2754(3) 0.16002(16)
O20 O 0.9869(5) 0.9099(3) 0.38259(16)
O21 O 0.7957(5) 0.9552(3) 0.39159(17)
C41 C 0.9101(8) 0.9635(5) 0.3809(2)
Dy6 Dy 0.65763(3) 0.85278(2) 0.401938(10)
C1_2 C 0.0760(9) 0.0323(5) 0.6704(3)
N1_2 N 0.1039(9) 0.1046(4) 0.6858(2)
C4_2 C 0.2536(9) 0.1675(5) 0.7275(3)
H8_2 H 0.2886 0.1902 0.7050
C13_2 C 0.1590(10) 0.1174(5) 0.7229(3)
C18_2 C 0.0299(10) 0.2321(5) 0.6795(3)
H17_2 H 0.0062 0.2313 0.7062
C19_2 C 0.2434(8) 0.1545(5) 0.7986(2)
C20_2 C 0.3003(9) 0.1863(5) 0.7644(2)
H18_2 H 0.3683 0.2194 0.7668
C24_2 C 0.1475(9) 0.1013(5) 0.7932(3)
H22_2 H 0.1089 0.0786 0.8150
C27_2 C 0.1115(9) 0.0833(5) 0.7560(3)
H24_2 H 0.0509 0.0455 0.7527
C28_2 C 0.0414(10) 0.3035(5) 0.6187(3)
C30_2 C 0.0816(10) 0.1697(5) 0.6630(3)
C34_2 C 0.0116(9) 0.2975(5) 0.6572(3)
C37_2 C 0.1251(10) 0.1735(5) 0.6232(3)
H30_2 H 0.1634 0.1319 0.6112
C38_2 C 0.1081(10) 0.2430(5) 0.6025(3)
H31_2 H 0.1428 0.2483 0.5773
C40_2 C 0.0181(10) 0.3717(5) 0.5960(3)
O19 O 0.0687(9) 0.3794(4) 0.5603(3)
O20_2 O 0.5131(5) 0.0901(3) 0.88259(16)
O21_2 O 0.7043(5) 0.0448(3) 0.89159(17)
C41_2 C 0.5899(8) 0.0365(5) 0.8809(2)
C42_2 C 0.2889(9) 0.1795(5) 0.8394(3)
O22_2 O 0.3868(5) 0.2246(3) 0.83998(16)
O23_2 O 0.2331(5) 0.1605(3) 0.86971(16)
Dy6_2 Dy 0.84237(3) 0.14722(2) 0.901938(10)
Dy1_2 Dy 0.15763(3) 0.64722(2) 0.598062(10)
Dy3_2 Dy 0.50857(3) 0.71609(2) 0.600032(11)
O1_2 O 0.4534(5) 0.7738(3) 0.53723(14)
O3_2 O 0.3217(5) 0.7055(3) 0.64447(14)
O4_2 O 0.1690(5) 0.6341(3) 0.66836(15)
O5_2 O 0.1695(4) 0.7089(3) 0.42795(14)
H3_2 H 0.1976 0.6708 0.4086
O7_2 O 0.1397(5) 0.5645(3) 0.54214(15)
H4_2 H 0.2139 0.5320 0.5386
O9 O 0.6314(4) 0.6485(3) 0.55510(14)
O10_2 O 0.0516(4) 0.7132(3) 0.54544(14)
H6_2 H 0.0756 0.7670 0.5441
O11_2 O 0.0845(5) 0.7596(3) 0.62503(16)
C3_2 C 0.3816(8) 0.7569(4) 0.7222(2)
H7_2 H 0.4167 0.7825 0.7007
C5_2 C 0.4181(8) 0.7756(5) 0.7607(2)
H9_2 H 0.4734 0.8159 0.7650
C6_2 C 0.3713(8) 0.7335(4) 0.7934(2)
C7_2 C 0.4591(8) 0.8193(4) 0.8434(2)
N2_2 N 0.4164(7) 0.7465(3) 0.8323(2)
C8_2 C 0.3756(9) 0.8781(4) 0.8432(2)
H10_2 H 0.2924 0.8715 0.8351
O12_2 O 0.4492(6) 0.8472(3) 0.61769(17)
H11_2 H 0.503(8) 0.868(4) 0.597(2)
H12_2 H 0.501(8) 0.836(5) 0.634(3)
C9_2 C 0.2931(7) 0.7002(4) 0.7159(2)
C10_2 C 0.2583(8) 0.6778(4) 0.6733(2)
C11_2 C 0.5509(8) 0.9607(4) 0.8670(2)
C12_2 C 0.1515(9) 0.9687(5) 0.6783(2)
H13_2 H 0.2188 0.9753 0.6957
C14_2 C 0.1343(9) 0.8971(5) 0.6625(2)
H14_2 H 0.1890 0.8569 0.6678
C15_2 C 0.0280(9) 0.8889(4) 0.6376(2)
C16_2 C 0.6261(9) 0.9004(4) 0.8651(2)
H15_2 H 0.7110 0.9067 0.8713
C17_2 C 0.4225(8) 0.9520(4) 0.8564(2)
H16_2 H 0.3681 0.9934 0.8578
C21_2 C 0.2433(8) 0.6628(5) 0.7474(2)
H19_2 H 0.1838 0.6249 0.7430
C22_2 C 0.4539(9) 0.6129(4) 0.8501(3)
H20_2 H 0.4683 0.6009 0.8236
C23_2 C 0.2771(8) 0.6787(5) 0.7847(2)
H21_2 H 0.2377 0.6533 0.8056
C25_2 C 0.4100(8) 0.7043(5) 0.9004(2)
H23_2 H 0.3892 0.7538 0.9078
C26_2 C 0.4238(9) 0.6868(5) 0.8608(3)
C31_2 C 0.4628(9) 0.5568(5) 0.8789(2)
H26_2 H 0.4779 0.5067 0.8712
C32_2 C 0.0057(8) 0.8111(5) 0.6192(2)
C33_2 C 0.5838(8) 0.8282(5) 0.8544(2)
H27_2 H 0.6383 0.7868 0.8547
C35_2 C 0.4498(9) 0.5735(5) 0.9185(2)
C36_2 C 0.4261(9) 0.6511(5) 0.9285(3)
H29_2 H 0.4216 0.6651 0.9552
O14_2 O 0.3015(5) 0.5794(3) 0.47154(18)
H32_2 H 0.317(8) 0.545(4) 0.483(2)
H33_2 H 0.366(7) 0.560(4) 0.451(2)
O15_2 O 0.3232(5) 0.6892(3) 0.55960(15)
C39_2 C 0.4646(9) 0.5149(4) 0.9517(3)
N3_2 N 0.3499(6) 0.7338(4) 0.53117(19)
O24_2 O 0.2894(5) 0.7367(3) 0.49891(15)
Dy7 Dy 0.83319(3) 0.69641(2) 0.562724(11)
Dy13_2 Dy 0.60700(3) 0.85283(2) 0.511754(11)
O27 O 0.6695(4) 0.7911(3) 0.57205(14)
O34_2 O 0.4869(5) 0.5901(3) 0.61741(16)
O35_2 O 0.2957(5) 0.5448(3) 0.60841(17)
O36_2 O 0.6132(5) 0.7246(3) 0.66002(16)
C2_2 C 0.9808(9) 0.0218(5) 0.6449(2)
H2_2 H 0.9291 0.0628 0.6386
H28_2 H 0.9766 0.3397 0.6697
O18 O 0.9707(8) 0.4281(4) 0.6109(2)
O2_2 O 0.8986(5) 0.6047(3) 0.51569(16)
H1_2 H 0.8356 0.5961 0.4949
O6_2 O 0.9035(5) 0.8018(3) 0.59992(16)
O8_2 O 0.9559(5) 0.5983(3) 0.59464(16)
H5_2 H 0.9224 0.5841 0.6208
O13_2 O 0.7326(6) 0.4979(4) 0.56616(19)
C29_2 C 0.9568(9) 0.9518(4) 0.6277(2)
H25_2 H 0.8920 0.9471 0.6092
O25_2 O 0.7959(7) 0.4149(5) 0.5225(2)
C43_2 C 0.7064(11) 0.4484(8) 0.5426(4)
C44_2 C 0.5715(10) 0.4276(7) 0.5362(4)
H34_2 H 0.5339 0.4141 0.5612
H35_2 H 0.5664 0.3851 0.5184
H36_2 H 0.5272 0.4702 0.5251
O26_2 O 0.9534(5) 0.7262(3) 0.46277(14)
O37_2 O 0.7669(5) 0.6605(3) 0.63029(16)
O38_2 O 0.7894(5) 0.7633(3) 0.50109(15)
O9_2 O 0.1314(4) 0.8515(3) 0.44490(14)
H11_3 H 0.003(8) 0.632(4) 0.403(2)
H12_3 H 0.001(8) 0.664(5) 0.366(3)
C11_3 C 0.0509(8) 0.5393(4) 0.1330(2)
C16_3 C 0.1261(9) 0.5996(4) 0.1349(2)
H15_3 H 0.2110 0.5933 0.1287
C33_3 C 0.0838(8) 0.6718(5) 0.1456(2)
H27_3 H 0.1383 0.7132 0.1453
C41_3 C 0.0899(8) 0.4635(5) 0.1191(2)
Dy15_2 Dy 0.04725(4) 0.99503(2) 0.951622(11)
Dy5_2 Dy 0.45275(4) 0.00497(2) 0.451622(11)
O13_3 O 0.2326(6) 0.0021(4) 0.43384(19)
O16_2 O 0.9555(5) 0.0533(3) 0.05843(15)
O25_3 O 0.2959(7) 0.0851(5) 0.4775(2)
C43_3 C 0.2064(11) 0.0516(8) 0.4574(4)
C44_3 C 0.0715(10) 0.0724(7) 0.4638(4)
H34_3 H 0.0339 0.0859 0.4388
H35_3 H 0.0664 0.1149 0.4816
H36_3 H 0.0272 0.0298 0.4749
O31_2 O 0.5265(6) 0.0383(3) 0.51435(16)
O32_2 O 0.4707(8) 0.0719(4) 0.3891(2)
O33_2 O 0.5687(9) 0.1206(4) 0.4397(3)
C1_3 C 0.5760(9) 0.4677(5) 0.3296(3)
O2_3 O 0.3986(5) 0.8953(3) 0.48431(16)
H1_3 H 0.3356 0.9039 0.5051
C2_3 C 0.4808(9) 0.4782(5) 0.3551(2)
H2_3 H 0.4291 0.4372 0.3614
O3_3 O 0.8217(5) 0.7945(3) 0.35553(14)
O4_3 O 0.6690(5) 0.8659(3) 0.33164(15)
H3_3 H 0.6976 0.8292 0.5914
O6_3 O 0.4035(5) 0.6982(3) 0.40008(16)
O7_3 O 0.6397(5) 0.9355(3) 0.45786(15)
H4_3 H 0.7139 0.9680 0.4614
O8_3 O 0.4559(5) 0.9017(3) 0.40536(16)
H5_3 H 0.4224 0.9159 0.3792
O10_3 O 0.5516(4) 0.7868(3) 0.45456(14)
H6_3 H 0.5756 0.7330 0.4559
N1_3 N 0.6039(9) 0.3954(4) 0.3142(2)
O11_3 O 0.5845(5) 0.7404(3) 0.37497(16)
C3_3 C 0.8816(8) 0.7431(4) 0.2778(2)
H7_3 H 0.9167 0.7175 0.2993
C4_3 C 0.7536(9) 0.3325(5) 0.2725(3)
H8_3 H 0.7886 0.3098 0.2950
C5_3 C 0.9181(8) 0.7244(5) 0.2393(2)
H9_3 H 0.9734 0.6841 0.2350
C6_3 C 0.8713(8) 0.7665(4) 0.2066(2)
C7_3 C 0.9591(8) 0.6807(4) 0.1566(2)
N2_3 N 0.9164(7) 0.7535(3) 0.1677(2)
C8_3 C 0.8756(9) 0.6219(4) 0.1568(2)
H10_3 H 0.7924 0.6285 0.1649
O12_3 O 0.9492(6) 0.6528(3) 0.38231(17)
C9_3 C 0.7931(7) 0.7998(4) 0.2841(2)
C10_3 C 0.7583(8) 0.8222(4) 0.3267(2)
C12_3 C 0.6515(9) 0.5313(5) 0.3217(2)
H13_3 H 0.7188 0.5247 0.3043
C13_3 C 0.6590(10) 0.3826(5) 0.2771(3)
C14_3 C 0.6343(9) 0.6029(5) 0.3375(2)
H14_3 H 0.6890 0.6431 0.3322
C15_3 C 0.5280(9) 0.6111(4) 0.3624(2)
C17_3 C 0.9225(8) 0.5480(4) 0.1436(2)
H16_3 H 0.8681 0.5066 0.1422
C18_3 C 0.5299(10) 0.2679(5) 0.3205(3)
H17_3 H 0.5062 0.2687 0.2938
C19_3 C 0.7434(8) 0.3455(5) 0.2014(2)
C20_3 C 0.8003(9) 0.3137(5) 0.2356(2)
H18_3 H 0.8683 0.2806 0.2332
C21_3 C 0.7433(8) 0.8372(5) 0.2526(2)
H19_3 H 0.6838 0.8751 0.2570
C22_3 C 0.9539(9) 0.8871(4) 0.1499(3)
H20_3 H 0.9683 0.8991 0.1764
C23_3 C 0.7771(8) 0.8213(5) 0.2153(2)
H21_3 H 0.7377 0.8467 0.1944
C24_3 C 0.6475(9) 0.3987(5) 0.2068(3)
H22_3 H 0.6089 0.4214 0.1850
C25_3 C 0.9100(8) 0.7957(5) 0.0996(2)
H23_3 H 0.8892 0.7462 0.0922
C26_3 C 0.9238(9) 0.8132(5) 0.1392(3)
C27_3 C 0.6115(9) 0.4167(5) 0.2440(3)
H24_3 H 0.5509 0.4545 0.2473
C28_3 C 0.5414(10) 0.1965(5) 0.3813(3)
C29_3 C 0.4568(9) 0.5482(4) 0.3723(2)
H25_3 H 0.3920 0.5529 0.3908
C30_3 C 0.5816(10) 0.3303(5) 0.3370(3)
C31_3 C 0.9628(9) 0.9432(5) 0.1211(2)
H26_3 H 0.9779 0.9933 0.1288
C32_3 C 0.5057(8) 0.6889(5) 0.3808(2)
C34_3 C 0.5116(9) 0.2025(5) 0.3428(3)
H28_3 H 0.4766 0.1603 0.3303
C35_3 C 0.9498(9) 0.9265(5) 0.0815(2)
C36_3 C 0.9261(9) 0.8489(5) 0.0715(3)
H29_3 H 0.9216 0.8349 0.0448
C37_3 C 0.6251(10) 0.3265(5) 0.3768(3)
H30_3 H 0.6634 0.3681 0.3888
C38_3 C 0.6081(10) 0.2570(5) 0.3975(3)
H31_3 H 0.6428 0.2517 0.4227
O14_3 O 0.8015(5) 0.9206(3) 0.52846(18)
H32_3 H 0.817(8) 0.955(4) 0.517(2)
H33_3 H 0.866(7) 0.940(4) 0.549(2)
O15_3 O 0.8232(5) 0.8108(3) 0.44040(15)
C39_3 C 0.9646(9) 0.9851(4) 0.0483(3)
O17_2 O 0.9735(6) 0.9617(3) 0.01435(16)
C40_3 C 0.5181(10) 0.1283(5) 0.4040(3)
C42_3 C 0.7889(9) 0.3205(5) 0.1606(3)
N3_3 N 0.8499(6) 0.7662(4) 0.46883(19)
O30_2 O 0.5445(5) 0.9467(3) 0.55843(15)
H1_4 H 0.1644 0.0961 0.0051
O2_4 O 0.1014(5) 0.1047(3) 0.98431(16)
C2_4 C 0.0192(9) 0.5218(5) 0.8551(2)
H2_4 H 0.0709 0.5628 0.8614
O6_4 O 0.0965(5) 0.3018(3) 0.90008(16)
O8_4 O 0.0441(5) 0.0983(3) 0.90536(16)
H5_4 H 0.0776 0.0841 0.8792
C29_4 C 0.0432(9) 0.4518(4) 0.8723(2)
H25_4 H 0.1080 0.4471 0.8908
H28_4 H 0.0234 0.8397 0.8303
O18_2 O 0.0293(8) 0.9281(4) 0.8891(2)
O29_2 O 0.3686(4) 0.1485(3) 0.94490(14)
O13_4 O 0.2674(6) 0.9979(4) 0.93384(19)
O25_4 O 0.2041(7) 0.9149(5) 0.9775(2)
C43_4 C 0.2936(11) 0.9484(8) 0.9574(4)
C44_4 C 0.4285(10) 0.9276(7) 0.9638(4)
H34_4 H 0.4661 0.9141 0.9388
H35_4 H 0.4336 0.8851 0.9816
H36_4 H 0.4728 0.9702 0.9749
H3_4 H 0.8024 0.1708 0.0914
O14_4 O 0.6985(5) 0.0794(3) 0.02846(18)
H32_4 H 0.683(8) 0.045(4) 0.017(2)
H33_4 H 0.634(7) 0.060(4) 0.049(2)
C1_4 C 0.9240(9) 0.5323(5) 0.8296(3)
O3_4 O 0.6783(5) 0.2055(3) 0.85553(14)
O4_4 O 0.8310(5) 0.1341(3) 0.83164(15)
O7_4 O 0.8603(5) 0.0645(3) 0.95786(15)
H4_4 H 0.7861 0.0320 0.9614
O10_4 O 0.9484(4) 0.2132(3) 0.95456(14)
H6_4 H 0.9244 0.2670 0.9559
N1_4 N 0.8961(9) 0.6046(4) 0.8142(2)
O11_4 O 0.9155(5) 0.2596(3) 0.87497(16)
C3_4 C 0.6184(8) 0.2569(4) 0.7778(2)
H7_4 H 0.5833 0.2825 0.7993
C4_4 C 0.7464(9) 0.6675(5) 0.7725(3)
H8_4 H 0.7114 0.6902 0.7950
C5_4 C 0.5819(8) 0.2756(5) 0.7393(2)
H9_4 H 0.5266 0.3159 0.7350
C6_4 C 0.6287(8) 0.2335(4) 0.7066(2)
C7_4 C 0.5409(8) 0.3193(4) 0.6566(2)
N2_4 N 0.5836(7) 0.2465(3) 0.6677(2)
C8_4 C 0.6244(9) 0.3781(4) 0.6568(2)
H10_4 H 0.7076 0.3715 0.6649
O12_4 O 0.5508(6) 0.3472(3) 0.88231(17)
H11_4 H 0.497(8) 0.368(4) 0.903(2)
H12_4 H 0.499(8) 0.336(5) 0.866(3)
C9_4 C 0.7069(7) 0.2002(4) 0.7841(2)
C10_4 C 0.7417(8) 0.1778(4) 0.8267(2)
C11_4 C 0.4491(8) 0.4607(4) 0.6330(2)
C12_4 C 0.8485(9) 0.4687(5) 0.8217(2)
H13_4 H 0.7812 0.4753 0.8043
C13_4 C 0.8410(10) 0.6174(5) 0.7771(3)
C14_4 C 0.8657(9) 0.3971(5) 0.8375(2)
H14_4 H 0.8110 0.3569 0.8322
C15_4 C 0.9720(9) 0.3889(4) 0.8624(2)
C16_4 C 0.3739(9) 0.4004(4) 0.6349(2)
H15_4 H 0.2890 0.4067 0.6287
C17_4 C 0.5775(8) 0.4520(4) 0.6436(2)
H16_4 H 0.6319 0.4934 0.6422
C18_4 C 0.9701(10) 0.7321(5) 0.8205(3)
H17_4 H 0.9938 0.7313 0.7938
C19_4 C 0.7566(8) 0.6545(5) 0.7014(2)
C20_4 C 0.6997(9) 0.6863(5) 0.7356(2)
H18_4 H 0.6317 0.7194 0.7332
C21_4 C 0.7567(8) 0.1628(5) 0.7526(2)
H19_4 H 0.8162 0.1249 0.7570
C22_4 C 0.5461(9) 0.1129(4) 0.6499(3)
H20_4 H 0.5317 0.1009 0.6764
C23_4 C 0.7229(8) 0.1787(5) 0.7153(2)
H21_4 H 0.7623 0.1533 0.6944
C24_4 C 0.8525(9) 0.6013(5) 0.7068(3)
H22_4 H 0.8911 0.5786 0.6850
C25_4 C 0.5900(8) 0.2043(5) 0.5996(2)
H23_4 H 0.6108 0.2538 0.5922
C26_4 C 0.5762(9) 0.1868(5) 0.6392(3)
C27_4 C 0.8885(9) 0.5833(5) 0.7440(3)
H24_4 H 0.9491 0.5455 0.7473
C28_4 C 0.9586(10) 0.8035(5) 0.8813(3)
C30_4 C 0.9184(10) 0.6697(5) 0.8370(3)
C31_4 C 0.5372(9) 0.0568(5) 0.6211(2)
H26_4 H 0.5221 0.0067 0.6288
C32_4 C 0.9943(8) 0.3111(5) 0.8808(2)
C33_4 C 0.4162(8) 0.3282(5) 0.6456(2)
H27_4 H 0.3617 0.2868 0.6453
C34_4 C 0.9884(9) 0.7975(5) 0.8428(3)
C35_4 C 0.5502(9) 0.0735(5) 0.5815(2)
C36_4 C 0.5739(9) 0.1511(5) 0.5715(3)
H29_4 H 0.5784 0.1651 0.5448
C37_4 C 0.8749(10) 0.6735(5) 0.8768(3)
H30_4 H 0.8366 0.6319 0.8888
C38_4 C 0.8919(10) 0.7430(5) 0.8975(3)
H31_4 H 0.8572 0.7483 0.9227
O15_4 O 0.6768(5) 0.1892(3) 0.94040(15)
C39_4 C 0.5354(9) 0.0149(4) 0.5483(3)
C40_4 C 0.9819(10) 0.8717(5) 0.9040(3)
O19_2 O 0.9313(9) 0.8794(4) 0.9397(3)
C41_4 C 0.4101(8) 0.5365(5) 0.6191(2)
C42_4 C 0.7111(9) 0.6795(5) 0.6606(3)
N3_4 N 0.6501(6) 0.2338(4) 0.96883(19)
loop_
_geom_bond_atom_site_label_1
_geom_bond_atom_site_label_2
_geom_bond_site_symmetry_1
_geom_bond_site_symmetry_2
Dy1 O3 1_555 1_555
Dy2 O2 1_555 1_555
Dy5 O2 1_555 1_555
O1 N3 1_555 1_555
O4 Dy1 1_555 1_555
O6 Dy2 1_555 1_555
O7 Dy1 1_555 1_555
H4 O7 1_555 1_555
O8 Dy1 1_555 1_555
H5 O8 1_555 1_555
O10 Dy1 1_555 1_555
H6 O10 1_555 1_555
O11 Dy1 1_555 1_555
C3 H7 1_555 1_555
C5 C3 1_555 1_555
H9 C5 1_555 1_555
C6 C5 1_555 1_555
C7 N2 1_555 1_555
N2 C6 1_555 1_555
C8 C7 1_555 1_555
H10 C8 1_555 1_555
C9 C3 1_555 1_555
C10 O3 1_555 1_555
H13 C12 1_555 1_555
C14 C12 1_555 1_555
H14 C14 1_555 1_555
C15 C14 1_555 1_555
O13 Dy5 1_555 1_555
C17 C8 1_555 1_555
H16 C17 1_555 1_555
C21 C9 1_555 1_555
H19 C21 1_555 1_555
C22 H20 1_555 1_555
C23 C6 1_555 1_555
H21 C23 1_555 1_555
C25 H23 1_555 1_555
C26 N2 1_555 1_555
H25 C29 1_555 1_555
C31 C22 1_555 1_555
H26 C31 1_555 1_555
C32 O6 1_555 1_555
C35 C31 1_555 1_555
C36 C25 1_555 1_555
H29 C36 1_555 1_555
O15 Dy1 1_555 1_555
C39 C35 1_555 1_555
O16 C39 1_555 1_555
O17 C39 1_555 1_555
N3 O15 1_555 1_555
O25 Dy5 1_555 1_555
C43 O13 1_555 1_555
C44 C43 1_555 1_555
H34 C44 1_555 1_555
H35 C44 1_555 1_555
H36 C44 1_555 1_555
Dy12 O16 1_555 1_555
O28 Dy2 1_555 1_555
O29 Dy2 1_555 1_555
O32 Dy5 1_555 1_555
O33 Dy5 1_555 1_555
O35 Dy1 1_555 1_555
O37 Dy2 1_555 1_555
O38 Dy2 1_555 1_555
Dy2 O8 1_555 1_555
Dy2 O10 1_555 1_555
Dy5 O7 1_555 1_555
Dy5 O8 1_555 1_555
O4 C10 1_555 1_555
O11 C32 1_555 1_555
C9 C10 1_555 1_555
C15 C29 1_555 1_555
C15 C32 1_555 1_555
C21 C23 1_555 1_555
C22 C26 1_555 1_555
C25 C26 1_555 1_555
C35 C36 1_555 1_555
O25 C43 1_555 1_555
O5 Dy4 1_555 1_555
H3 O5 1_555 1_555
O14 Dy4 1_555 1_555
H32 O14 1_555 1_555
H33 O14 1_555 1_555
O24 Dy4 1_555 1_555
Dy9 O5 1_555 1_555
Dy11 O5 1_555 1_555
O26 Dy4 1_555 1_555
O30 Dy4 1_555 1_555
O24 Dy9 1_555 1_555
Dy11 O26 1_555 1_555
C1 C2 1_555 1_555
C2 H2 1_555 1_555
N1 C1 1_555 1_555
C4 H8 1_555 1_555
C13 N1 1_555 1_555
C18 H17 1_555 1_555
C19 C20 1_555 1_555
C20 C4 1_555 1_555
H18 C20 1_555 1_555
C24 C19 1_555 1_555
H22 C24 1_555 1_555
C27 C13 1_555 1_555
H24 C27 1_555 1_555
C28 C34 1_555 1_555
C30 N1 1_555 1_555
C34 C18 1_555 1_555
H28 C34 1_555 1_555
C37 C30 1_555 1_555
H30 C37 1_555 1_555
C38 C28 1_555 1_555
H31 C38 1_555 1_555
C40 C28 1_555 1_555
O32 C40 1_555 1_555
O33 C40 1_555 1_555
C42 C19 1_555 1_555
O22 C42 1_555 1_555
O23 C42 1_555 1_555
Dy8 O23 1_555 1_555
C4 C13 1_555 1_555
C18 C30 1_555 1_555
C24 C27 1_555 1_555
C37 C38 1_555 1_555
O22 Dy10 1_555 1_555
O29 Dy3 1_555 1_555
C11 C16 1_555 1_555
C16 H15 1_555 1_555
H27 C33 1_555 1_555
O28 Dy3 1_555 1_555
O36 Dy3 1_555 1_555
C16 C33 1_555 1_555
Dy13 O28 1_555 1_555
O20 C41 1_555 1_555
O21 C41 1_555 1_555
Dy6 O21 1_555 1_555
N1_2 C1_2 1_555 1_555
C4_2 H8_2 1_555 1_555
C13_2 N1_2 1_555 1_555
C18_2 H17_2 1_555 1_555
C19_2 C20_2 1_555 1_555
C20_2 C4_2 1_555 1_555
H18_2 C20_2 1_555 1_555
C24_2 C19_2 1_555 1_555
H22_2 C24_2 1_555 1_555
C27_2 C13_2 1_555 1_555
H24_2 C27_2 1_555 1_555
C28_2 C34_2 1_555 1_555
C30_2 N1_2 1_555 1_555
C34_2 C18_2 1_555 1_555
C37_2 C30_2 1_555 1_555
H30_2 C37_2 1_555 1_555
C38_2 C28_2 1_555 1_555
H31_2 C38_2 1_555 1_555
C40_2 C28_2 1_555 1_555
O19 C40_2 1_555 1_555
O20_2 C41_2 1_555 1_555
O21_2 C41_2 1_555 1_555
C42_2 C19_2 1_555 1_555
O22_2 C42_2 1_555 1_555
O23_2 C42_2 1_555 1_555
Dy6_2 O21_2 1_555 1_555
Dy9 O23_2 1_555 1_555
Dy11 O20_2 1_555 1_555
C4_2 C13_2 1_555 1_555
C18_2 C30_2 1_555 1_555
C24_2 C27_2 1_555 1_555
C37_2 C38_2 1_555 1_555
O22_2 Dy11 1_555 1_555
Dy1_2 O3_2 1_555 1_555
Dy3_2 O1_2 1_555 1_555
O1_2 N3_2 1_555 1_555
O3_2 Dy3_2 1_555 1_555
O4_2 Dy1_2 1_555 1_555
O5_2 Dy12 1_555 1_555
H3_2 O5_2 1_555 1_555
O7_2 Dy1_2 1_555 1_555
H4_2 O7_2 1_555 1_555
O9 Dy3_2 1_555 1_555
O10_2 Dy1_2 1_555 1_555
H6_2 O10_2 1_555 1_555
O11_2 Dy1_2 1_555 1_555
C3_2 H7_2 1_555 1_555
C5_2 C3_2 1_555 1_555
H9_2 C5_2 1_555 1_555
C6_2 C5_2 1_555 1_555
C7_2 N2_2 1_555 1_555
N2_2 C6_2 1_555 1_555
C8_2 C7_2 1_555 1_555
H10_2 C8_2 1_555 1_555
O12_2 Dy3_2 1_555 1_555
H11_2 O12_2 1_555 1_555
H12_2 O12_2 1_555 1_555
C9_2 C3_2 1_555 1_555
C10_2 O3_2 1_555 1_555
C11_2 C16_2 1_555 1_555
H13_2 C12_2 1_555 1_555
C14_2 C12_2 1_555 1_555
H14_2 C14_2 1_555 1_555
C15_2 C14_2 1_555 1_555
C16_2 H15_2 1_555 1_555
C17_2 C8_2 1_555 1_555
H16_2 C17_2 1_555 1_555
C21_2 C9_2 1_555 1_555
H19_2 C21_2 1_555 1_555
C22_2 H20_2 1_555 1_555
C23_2 C6_2 1_555 1_555
H21_2 C23_2 1_555 1_555
C25_2 H23_2 1_555 1_555
C26_2 N2_2 1_555 1_555
C31_2 C22_2 1_555 1_555
H26_2 C31_2 1_555 1_555
C33_2 C7_2 1_555 1_555
H27_2 C33_2 1_555 1_555
C35_2 C31_2 1_555 1_555
C36_2 C25_2 1_555 1_555
H29_2 C36_2 1_555 1_555
O14_2 Dy12 1_555 1_555
H32_2 O14_2 1_555 1_555
H33_2 O14_2 1_555 1_555
O15_2 Dy1_2 1_555 1_555
C39_2 C35_2 1_555 1_555
O30 C39_2 1_555 1_555
O31 C39_2 1_555 1_555
N3_2 O15_2 1_555 1_555
O24_2 Dy12 1_555 1_555
Dy7 O9 1_555 1_555
Dy8 O5_2 1_555 1_555
Dy10 O5_2 1_555 1_555
Dy13_2 O1_2 1_555 1_555
O27 Dy3_2 1_555 1_555
O34_2 Dy3_2 1_555 1_555
O35_2 Dy1_2 1_555 1_555
O36_2 Dy3_2 1_555 1_555
Dy3_2 O15_2 1_555 1_555
Dy12 O7_2 1_555 1_555
Dy12 O10_2 1_555 1_555
O4_2 C10_2 1_555 1_555
O11_2 C32_2 1_555 1_555
C9_2 C10_2 1_555 1_555
C11_2 C17_2 1_555 1_555
C15_2 C32_2 1_555 1_555
C16_2 C33_2 1_555 1_555
C21_2 C23_2 1_555 1_555
C22_2 C26_2 1_555 1_555
C25_2 C26_2 1_555 1_555
C35_2 C36_2 1_555 1_555
N3_2 O24_2 1_555 1_555
O24_2 Dy8 1_555 1_555
Dy7 O27 1_555 1_555
Dy13_2 O27 1_555 1_555
C2_2 H2_2 1_555 1_555
Dy15 O18 1_555 1_555
Dy7 O2_2 1_555 1_555
Dy15 O2_2 1_555 1_555
O2_2 H1_2 1_555 1_555
O6_2 Dy7 1_555 1_555
H5_2 O8_2 1_555 1_555
O13_2 Dy15 1_555 1_555
H25_2 C29_2 1_555 1_555
O25_2 Dy15 1_555 1_555
C43_2 O13_2 1_555 1_555
C44_2 C43_2 1_555 1_555
H34_2 C44_2 1_555 1_555
H35_2 C44_2 1_555 1_555
H36_2 C44_2 1_555 1_555
O37_2 Dy7 1_555 1_555
O38_2 Dy7 1_555 1_555
Dy7 O8_2 1_555 1_555
Dy15 O8_2 1_555 1_555
O25_2 C43_2 1_555 1_555
O9_2 Dy10 1_555 1_555
C11_3 C16_3 1_555 1_555
C16_3 H15_3 1_555 1_555
H27_3 C33_3 1_555 1_555
O34 C41_3 1_555 1_555
O35 C41_3 1_555 1_555
C41_3 C11_3 1_555 1_555
Dy8 O9_2 1_555 1_555
C16_3 C33_3 1_555 1_555
O13_3 Dy5_2 1_555 1_555
O25_3 Dy5_2 1_555 1_555
C43_3 O13_3 1_555 1_555
C44_3 C43_3 1_555 1_555
H34_3 C44_3 1_555 1_555
H35_3 C44_3 1_555 1_555
H36_3 C44_3 1_555 1_555
Dy13 O16_2 1_555 1_555
O31_2 Dy5_2 1_555 1_555
O32_2 Dy5_2 1_555 1_555
O33_2 Dy5_2 1_555 1_555
O25_3 C43_3 1_555 1_555
Dy6 O3_3 1_555 1_555
Dy8 O2_3 1_555 1_555
Dy13_2 O2_3 1_555 1_555
C1_3 C2_3 1_555 1_555
O26_2 N3_3 1_555 1_555
O2_3 H1_3 1_555 1_555
C2_3 H2_3 1_555 1_555
O4_3 Dy6 1_555 1_555
H3_3 O27 1_555 1_555
O6_3 Dy8 1_555 1_555
O7_3 Dy6 1_555 1_555
H4_3 O7_3 1_555 1_555
O8_3 Dy6 1_555 1_555
H5_3 O8_3 1_555 1_555
O10_3 Dy6 1_555 1_555
H6_3 O10_3 1_555 1_555
N1_3 C1_3 1_555 1_555
O11_3 Dy6 1_555 1_555
C3_3 H7_3 1_555 1_555
C4_3 H8_3 1_555 1_555
C5_3 C3_3 1_555 1_555
H9_3 C5_3 1_555 1_555
C6_3 C5_3 1_555 1_555
C7_3 N2_3 1_555 1_555
N2_3 C6_3 1_555 1_555
C8_3 C7_3 1_555 1_555
H10_3 C8_3 1_555 1_555
C9_3 C3_3 1_555 1_555
C10_3 O3_3 1_555 1_555
C12_3 C1_3 1_555 1_555
H13_3 C12_3 1_555 1_555
C13_3 N1_3 1_555 1_555
C14_3 C12_3 1_555 1_555
H14_3 C14_3 1_555 1_555
C15_3 C14_3 1_555 1_555
C17_3 C8_3 1_555 1_555
H16_3 C17_3 1_555 1_555
C18_3 H17_3 1_555 1_555
C19_3 C20_3 1_555 1_555
C20_3 C4_3 1_555 1_555
H18_3 C20_3 1_555 1_555
C21_3 C9_3 1_555 1_555
H19_3 C21_3 1_555 1_555
C22_3 H20_3 1_555 1_555
C23_3 C6_3 1_555 1_555
H21_3 C23_3 1_555 1_555
C24_3 C19_3 1_555 1_555
H22_3 C24_3 1_555 1_555
C25_3 H23_3 1_555 1_555
C26_3 N2_3 1_555 1_555
C27_3 C13_3 1_555 1_555
H24_3 C27_3 1_555 1_555
C28_3 C34_3 1_555 1_555
C29_3 C2_3 1_555 1_555
H25_3 C29_3 1_555 1_555
C30_3 N1_3 1_555 1_555
C31_3 C22_3 1_555 1_555
H26_3 C31_3 1_555 1_555
C32_3 O6_3 1_555 1_555
C34_3 C18_3 1_555 1_555
H28_3 C34_3 1_555 1_555
C35_3 C31_3 1_555 1_555
C36_3 C25_3 1_555 1_555
H29_3 C36_3 1_555 1_555
C37_3 C30_3 1_555 1_555
H30_3 C37_3 1_555 1_555
C38_3 C28_3 1_555 1_555
H31_3 C38_3 1_555 1_555
O14_3 Dy13_2 1_555 1_555
H32_3 O14_3 1_555 1_555
H33_3 O14_3 1_555 1_555
O15_3 Dy6 1_555 1_555
C39_3 C35_3 1_555 1_555
O17_2 C39_3 1_555 1_555
C40_3 C28_3 1_555 1_555
O32_2 C40_3 1_555 1_555
O33_2 C40_3 1_555 1_555
C42_3 C19_3 1_555 1_555
O36 C42_3 1_555 1_555
O37 C42_3 1_555 1_555
N3_3 O15_3 1_555 1_555
O38_2 Dy13_2 1_555 1_555
O30_2 Dy13_2 1_555 1_555
Dy8 O8_3 1_555 1_555
Dy8 O10_3 1_555 1_555
Dy13_2 O7_3 1_555 1_555
Dy13_2 O10_3 1_555 1_555
O4_3 C10_3 1_555 1_555
O11_3 C32_3 1_555 1_555
C4_3 C13_3 1_555 1_555
C9_3 C10_3 1_555 1_555
C15_3 C29_3 1_555 1_555
C15_3 C32_3 1_555 1_555
C18_3 C30_3 1_555 1_555
C21_3 C23_3 1_555 1_555
C22_3 C26_3 1_555 1_555
C24_3 C27_3 1_555 1_555
C25_3 C26_3 1_555 1_555
C35_3 C36_3 1_555 1_555
C37_3 C38_3 1_555 1_555
N3_3 O38_2 1_555 1_555
Dy9 O2_4 1_555 1_555
C2_4 H2_4 1_555 1_555
O6_4 Dy9 1_555 1_555
H5_4 O8_4 1_555 1_555
C29_4 C2_4 1_555 1_555
H25_4 C29_4 1_555 1_555
Dy15_2 O18_2 1_555 1_555
O29_2 Dy9 1_555 1_555
Dy9 O8_4 1_555 1_555
O13_4 Dy15_2 1_555 1_555
O25_4 Dy15_2 1_555 1_555
C43_4 O13_4 1_555 1_555
C44_4 C43_4 1_555 1_555
H34_4 C44_4 1_555 1_555
H35_4 C44_4 1_555 1_555
H36_4 C44_4 1_555 1_555
O25_4 C43_4 1_555 1_555
H3_4 O28 1_555 1_555
O14_4 Dy13 1_555 1_555
H32_4 O14_4 1_555 1_555
H33_4 O14_4 1_555 1_555
O38 Dy13 1_555 1_555
Dy6_2 O3_4 1_555 1_555
O26 N3_4 1_555 1_555
O3_4 Dy11 1_555 1_555
O4_4 Dy6_2 1_555 1_555
O7_4 Dy6_2 1_555 1_555
H4_4 O7_4 1_555 1_555
O29_2 Dy11 1_555 1_555
O10_4 Dy6_2 1_555 1_555
H6_4 O10_4 1_555 1_555
N1_4 C1_4 1_555 1_555
O11_4 Dy6_2 1_555 1_555
C3_4 H7_4 1_555 1_555
C4_4 H8_4 1_555 1_555
C5_4 C3_4 1_555 1_555
H9_4 C5_4 1_555 1_555
C6_4 C5_4 1_555 1_555
C7_4 N2_4 1_555 1_555
N2_4 C6_4 1_555 1_555
C8_4 C7_4 1_555 1_555
H10_4 C8_4 1_555 1_555
O12_4 Dy11 1_555 1_555
H11_4 O12_4 1_555 1_555
H12_4 O12_4 1_555 1_555
C9_4 C3_4 1_555 1_555
C10_4 O3_4 1_555 1_555
C11_4 C16_4 1_555 1_555
C12_4 C1_4 1_555 1_555
H13_4 C12_4 1_555 1_555
C13_4 N1_4 1_555 1_555
C14_4 C12_4 1_555 1_555
H14_4 C14_4 1_555 1_555
C15_4 C14_4 1_555 1_555
C16_4 H15_4 1_555 1_555
C17_4 C8_4 1_555 1_555
H16_4 C17_4 1_555 1_555
C18_4 H17_4 1_555 1_555
C19_4 C20_4 1_555 1_555
C20_4 C4_4 1_555 1_555
H18_4 C20_4 1_555 1_555
C21_4 C9_4 1_555 1_555
H19_4 C21_4 1_555 1_555
C22_4 H20_4 1_555 1_555
C23_4 C6_4 1_555 1_555
H21_4 C23_4 1_555 1_555
C24_4 C19_4 1_555 1_555
H22_4 C24_4 1_555 1_555
C25_4 H23_4 1_555 1_555
C26_4 N2_4 1_555 1_555
C27_4 C13_4 1_555 1_555
H24_4 C27_4 1_555 1_555
C28_4 C34_4 1_555 1_555
C30_4 N1_4 1_555 1_555
C31_4 C22_4 1_555 1_555
H26_4 C31_4 1_555 1_555
C33_4 C7_4 1_555 1_555
H27_4 C33_4 1_555 1_555
C34_4 C18_4 1_555 1_555
C35_4 C31_4 1_555 1_555
C36_4 C25_4 1_555 1_555
H29_4 C36_4 1_555 1_555
C37_4 C30_4 1_555 1_555
H30_4 C37_4 1_555 1_555
C38_4 C28_4 1_555 1_555
H31_4 C38_4 1_555 1_555
O15_4 Dy6_2 1_555 1_555
C39_4 C35_4 1_555 1_555
O31_2 C39_4 1_555 1_555
C40_4 C28_4 1_555 1_555
O19_2 C40_4 1_555 1_555
O34_2 C41_4 1_555 1_555
O35_2 C41_4 1_555 1_555
C41_4 C11_4 1_555 1_555
C42_4 C19_4 1_555 1_555
O36_2 C42_4 1_555 1_555
O37_2 C42_4 1_555 1_555
N3_4 O15_4 1_555 1_555
Dy11 O15_4 1_555 1_555
O4_4 C10_4 1_555 1_555
O11_4 C32_4 1_555 1_555
C4_4 C13_4 1_555 1_555
C9_4 C10_4 1_555 1_555
C11_4 C17_4 1_555 1_555
C15_4 C32_4 1_555 1_555
C16_4 C33_4 1_555 1_555
C18_4 C30_4 1_555 1_555
C21_4 C23_4 1_555 1_555
C22_4 C26_4 1_555 1_555
C24_4 C27_4 1_555 1_555
C25_4 C26_4 1_555 1_555
C35_4 C36_4 1_555 1_555
C37_4 C38_4 1_555 1_555

#END
