
###############################################################################
#
# This file contains modified crystal structure data generated from the
# MOF subset of the Cambridge Structural Database (CSD) v543 
# hosted by the Cambridge Crystallographic Data Centre (CCDC).
#
# This work is licensed under the Creative Commons
# Attribution-NonCommercial-ShareAlike 4.0 International License.
# To view a copy of this license, visit
# http://creativecommons.org/licenses/by-nc-sa/4.0/
# or send a letter to
# Creative Commons, PO Box 1866, Mountain View, CA 94042, USA.
#
# CIF created using the CSD Python API on 29 September 2022
# The structure has been converted into the P1 space group
# The structure has a 3D framework
# The original CSD entry GEWSIN is in the orthorhombic crystal system
# The original CSD entry GEWSIN is in a Sohncke space group
# The framework has been calculated to contain at least 10.0% void space
# The void calculation uses a probe of radius 1.32A, grid spacing 0.4
#
###############################################################################

data_GEWSIN
_chemical_formula_moiety         '(C176 H137 N12 O86 Y20)n'
_symmetry_cell_setting           triclinic
_symmetry_space_group_name_H-M   'P 1'
_symmetry_Int_Tables_number      1
_space_group_name_Hall           'P 1'
loop_
_symmetry_equiv_pos_site_id
_symmetry_equiv_pos_as_xyz
1 x,y,z
_cell_length_a                   10.5580(16)
_cell_length_b                   17.537(3)
_cell_length_c                   33.566(5)
_cell_angle_alpha                90
_cell_angle_beta                 90
_cell_angle_gamma                90
_cell_volume                     6214.93
loop_
_atom_site_label
_atom_site_type_symbol
_atom_site_fract_x
_atom_site_fract_y
_atom_site_fract_z
O19 O 0.2028(4) 0.0457(3) 0.10759(14)
O21 O 0.0090(5) 0.0906(3) 0.11705(14)
C22 C 0.0892(7) 0.0385(4) 0.11833(19)
Y9 Y 0.34099(6) 0.14696(4) 0.097501(18)
C7 C 0.1271(8) 0.8983(4) 0.1339(2)
H13 H 0.2112 0.9038 0.1262
C9 C 0.0444(7) 0.9619(4) 0.1334(2)
C28 C 0.0813(8) 0.8272(4) 0.1461(2)
H23 H 0.1347 0.7850 0.1465
Y11 Y 0.00962(6) 0.71613(4) 0.400364(18)
Y14 Y 0.04584(7) 0.50440(4) 0.95187(2)
Y12 Y 0.99038(6) 0.21613(4) 0.099636(18)
Y1 Y 0.33459(6) 0.69661(4) 0.437397(18)
Y2 Y 0.65901(6) 0.64696(4) 0.402499(18)
Y4 Y 0.45416(7) 0.49560(4) 0.45187(2)
Y5 Y 0.10794(6) 0.85263(4) 0.488024(18)
O1 O 0.1713(4) 0.7910(3) 0.42850(12)
H1 H 0.1995 0.8292 0.4091
O2 O 0.6693(5) 0.6335(3) 0.33202(13)
O3 O 0.3981(4) 0.6048(3) 0.48488(14)
H2 H 0.3346 0.5961 0.5057
O4 O 0.0527(4) 0.7866(2) 0.54460(12)
H3 H 0.0769 0.7327 0.5432
O5 O 0.1416(4) 0.9349(2) 0.54140(13)
H4 H 0.2162 0.9675 0.5378
O6 O 0.4560(4) 0.5979(3) 0.40605(13)
H5 H 0.4224 0.5835 0.3799
O7 O 0.2901(4) 0.7648(2) 0.49878(13)
O8 O 0.4531(4) 0.7256(3) 0.53697(12)
O9 O 0.8228(4) 0.7044(3) 0.35631(12)
O10 O 0.3019(4) 0.9201(3) 0.47147(14)
H6 H 0.3733 0.8894 0.4789
H7 H 0.3044 0.9675 0.4858
O11 O 0.1350(4) 0.6474(3) 0.44448(12)
O12 O 0.5920(4) 0.3031(3) 0.09933(14)
O13 O 0.3245(4) 0.8101(3) 0.56001(12)
O14 O 0.1155(4) 0.7230(3) 0.34066(13)
O15 O 0.9744(5) 0.5394(3) 0.01467(15)
H8 H 0.0062 0.8625 0.3591
O17 O 0.9596(5) 0.4454(3) 0.05837(13)
O18 O 0.4151(5) 0.2592(3) 0.12491(14)
C1 C 0.3557(9) 0.6033(5) 0.2949(2)
H10 H 0.3982 0.5842 0.3171
N1 N 0.3857(8) 0.6043(4) 0.1842(2)
O20 O 0.2705(5) 0.6599(3) 0.36990(14)
C2 C 0.9175(7) 0.7753(4) 0.23899(19)
H11 H 0.9757 0.8140 0.2342
C3 C 0.4714(9) 0.7335(5) 0.1785(2)
H12 H 0.4984 0.7318 0.2049
C4 C 0.8695(7) 0.7345(4) 0.20814(19)
C5 C 0.7930(7) 0.6994(4) 0.28454(19)
C6 C 0.3425(9) 0.6175(5) 0.2235(2)
C8 C 0.9568(8) 0.8203(4) 0.1574(2)
C10 C 0.7562(7) 0.6783(4) 0.3265(2)
C11 C 0.8795(7) 0.7592(4) 0.27768(19)
H14 H 0.9109 0.7876 0.2989
C12 C 0.2410(8) 0.6678(5) 0.2282(2)
H15 H 0.2021 0.6899 0.2062
C13 C 0.7726(8) 0.6783(4) 0.2157(2)
H16 H 0.7337 0.6533 0.1946
C14 C 0.9633(8) 0.5552(4) 0.12244(19)
H17 H 0.9759 0.5048 0.1301
N2 N 0.9155(6) 0.7456(3) 0.16910(18)
C15 C 0.8758(7) 0.8794(4) 0.1574(2)
H18 H 0.7930 0.8732 0.1663
O22 O 0.4238(6) 0.8825(3) 0.05903(18)
O23 O 0.2337(5) 0.4993(4) 0.43466(16)
C16 C 0.9084(7) 0.7042(4) 0.0984(2)
H19 H 0.8836 0.7532 0.0912
C17 C 0.4654(7) 0.3886(4) 0.1365(2)
C18 C 0.2554(8) 0.6539(5) 0.2993(2)
C19 C 0.9507(8) 0.5742(4) 0.08109(19)
C20 C 0.4915(7) 0.3132(4) 0.1193(2)
C21 C 0.3418(8) 0.4681(4) 0.1779(2)
H20 H 0.2725 0.4743 0.1947
O24 O 0.5304(6) 0.9288(3) 0.10951(16)
C23 C 0.7393(8) 0.6627(4) 0.2526(2)
H21 H 0.6777 0.6258 0.2572
C24 C 0.4135(9) 0.6705(5) 0.1618(2)
C25 C 0.5145(7) 0.5221(4) 0.1440(2)
H22 H 0.5641 0.5638 0.1370
C26 C 0.9660(8) 0.5168(4) 0.0491(2)
C27 C 0.2131(8) 0.6799(4) 0.3393(2)
N3 N 0.3505(5) 0.7669(3) 0.53062(15)
C29 C 0.9258(8) 0.6856(5) 0.1395(2)
C30 C 0.3918(9) 0.5813(5) 0.2557(2)
H24 H 0.4497 0.5419 0.2521
C31 C 0.9174(7) 0.9498(4) 0.1440(2)
H25 H 0.8600 0.9899 0.1419
C32 C 0.4884(9) 0.7958(5) 0.1574(2)
H26 H 0.5274 0.8370 0.1698
C33 C 0.4157(9) 0.5321(5) 0.1691(2)
C34 C 0.2008(8) 0.6836(5) 0.2656(2)
H27 H 0.1322 0.7164 0.2686
C35 C 0.4523(9) 0.8042(5) 0.1180(2)
C36 C 0.4796(10) 0.8723(5) 0.0938(3)
C37 C 0.9275(8) 0.6515(5) 0.0706(2)
H28 H 0.9256 0.6654 0.0439
C38 C 0.3662(7) 0.3964(5) 0.1630(2)
H29 H 0.3175 0.3546 0.1705
C39 C 0.9568(8) 0.6108(4) 0.1503(2)
H30 H 0.9730 0.5993 0.1768
C40 C 0.5437(8) 0.4507(4) 0.1284(2)
H31 H 0.6154 0.4444 0.1126
C41 C 0.3713(9) 0.6756(5) 0.1220(2)
H32 H 0.3341 0.6336 0.1098
C42 C 0.3853(10) 0.7425(5) 0.1014(3)
H33 H 0.3500 0.7472 0.0762
O25 O 0.3023(6) 0.4084(4) 0.47529(19)
C43 C 0.0773(11) 0.4321(7) 0.4661(3)
H34 H 0.0260 0.4686 0.4522
H35 H 0.0637 0.4370 0.4943
H36 H 0.0547 0.3815 0.4577
C44 C 0.2128(11) 0.4461(7) 0.4570(4)
Y6 Y 0.66541(6) 0.19661(4) 0.062603(18)
Y10 Y 0.15901(6) 0.85304(4) 0.597501(18)
Y13 Y 0.50962(6) 0.78387(4) 0.599636(18)
Y15 Y 0.54584(7) 0.99560(4) 0.04813(2)
Y17 Y 0.89206(6) 0.35263(4) 0.011976(18)
Y18 Y 0.60794(6) 0.64737(4) 0.511976(18)
O27 O 0.5527(4) 0.7134(2) 0.45540(12)
O28 O 0.6416(4) 0.5651(2) 0.45860(13)
O31 O 0.4080(4) 0.8031(3) 0.40067(14)
O33 O 0.8245(4) 0.6899(3) 0.43999(12)
O34 O 0.5256(5) 0.4606(3) 0.51467(15)
O35 O 0.0404(5) 0.9454(3) 0.44163(13)
O36 O 0.5849(5) 0.7592(3) 0.37509(14)
O37 O 0.7972(4) 0.5457(3) 0.39241(14)
O39 O 0.5762(6) 0.3825(3) 0.44097(18)
O40 O 0.4696(6) 0.4288(3) 0.39049(16)
Y16 Y 0.95416(7) 0.00440(4) 0.54813(2)
O16 O 0.9530(5) 0.8467(3) 0.38080(13)
H9 H 0.9652 0.8802 0.4031
Y7 Y 0.83459(6) 0.80339(4) 0.562603(18)
O26 O 0.8981(4) 0.8952(3) 0.51512(14)
O29 O 0.9531(4) 0.7744(3) 0.46303(12)
O38 O 0.9910(5) 0.5906(3) 0.38295(14)
H2_2 H 0.1654 0.4039 0.0057
O4_2 O 0.4473(4) 0.2134(2) 0.04460(12)
H3_2 H 0.4231 0.2673 0.0432
O5_2 O 0.3584(4) 0.0651(2) 0.04140(13)
H4_2 H 0.2838 0.0325 0.0378
O8_2 O 0.0469(4) 0.2744(3) 0.03697(12)
O13_2 O 0.1755(4) 0.1899(3) 0.06001(12)
N3_2 N 0.1495(5) 0.2331(3) 0.03062(15)
O26_2 O 0.6019(4) 0.1048(3) 0.01512(14)
Y1_2 Y 0.16541(6) 0.30339(4) 0.937397(18)
Y3 Y 0.49038(6) 0.28387(4) 0.900364(18)
Y5_2 Y 0.39206(6) 0.14737(4) 0.988024(18)
O1_2 O 0.3287(4) 0.2090(3) 0.92850(12)
H1_2 H 0.3005 0.1708 0.9091
O3_2 O 0.1019(4) 0.3952(3) 0.98488(14)
O6_2 O 0.0440(4) 0.4021(3) 0.90605(13)
H5_2 H 0.0776 0.4165 0.8799
O7_2 O 0.2099(4) 0.2352(2) 0.99878(13)
O10_2 O 0.1981(4) 0.0799(3) 0.97147(14)
H6_2 H 0.1267 0.1106 0.9789
H7_2 H 0.1956 0.0325 0.9858
O11_2 O 0.3650(4) 0.3526(3) 0.94448(12)
O14_2 O 0.3845(4) 0.2770(3) 0.84066(13)
O16_2 O 0.5470(5) 0.1533(3) 0.88080(13)
H8_2 H 0.4938 0.1375 0.8591
H9_2 H 0.5348 0.1198 0.9031
O18_2 O 0.0849(5) 0.7408(3) 0.62491(14)
C1_2 C 0.1443(9) 0.3967(5) 0.7949(2)
H10_2 H 0.1018 0.4158 0.8171
N1_2 N 0.1143(8) 0.3957(4) 0.6842(2)
O20_2 O 0.2295(5) 0.3401(3) 0.86990(14)
C3_2 C 0.0286(9) 0.2665(5) 0.6785(2)
H12_2 H 0.0016 0.2682 0.7049
C6_2 C 0.1575(9) 0.3825(5) 0.7235(2)
C12_2 C 0.2590(8) 0.3322(5) 0.7282(2)
H15_2 H 0.2979 0.3101 0.7062
O22_2 O 0.0762(6) 0.1175(3) 0.55903(18)
O23_2 O 0.2663(5) 0.5007(4) 0.93466(16)
C17_2 C 0.0346(7) 0.6114(4) 0.6365(2)
C18_2 C 0.2446(8) 0.3461(5) 0.7993(2)
C20_2 C 0.0085(7) 0.6868(4) 0.6193(2)
C21_2 C 0.1582(8) 0.5319(4) 0.6779(2)
H20_2 H 0.2275 0.5257 0.6947
C24_2 C 0.0865(9) 0.3295(5) 0.6618(2)
C27_2 C 0.2869(8) 0.3201(4) 0.8393(2)
C30_2 C 0.1082(9) 0.4187(5) 0.7557(2)
H24_2 H 0.0503 0.4581 0.7521
C32_2 C 0.0116(9) 0.2042(5) 0.6574(2)
C33_2 C 0.0843(9) 0.4679(5) 0.6691(2)
C34_2 C 0.2992(8) 0.3164(5) 0.7656(2)
H27_2 H 0.3678 0.2836 0.7686
C35_2 C 0.0477(9) 0.1958(5) 0.6180(2)
C36_2 C 0.0204(10) 0.1277(5) 0.5938(3)
C38_2 C 0.1338(7) 0.6036(5) 0.6630(2)
H29_2 H 0.1825 0.6454 0.6705
C41_2 C 0.1287(9) 0.3244(5) 0.6220(2)
H32_2 H 0.1659 0.3664 0.6098
C42_2 C 0.1147(10) 0.2575(5) 0.6014(3)
H33_2 H 0.1500 0.2528 0.5762
O25_2 O 0.1977(6) 0.5916(4) 0.97529(19)
C43_2 C 0.4227(11) 0.5679(7) 0.9661(3)
H34_2 H 0.4740 0.5314 0.9522
H35_2 H 0.4363 0.5630 0.9943
H36_2 H 0.4453 0.6185 0.9577
C44_2 C 0.2872(11) 0.5539(7) 0.9570(4)
O29_2 O 0.5469(4) 0.2256(3) 0.96303(12)
O30 O 0.6772(4) 0.2956(3) 0.85631(12)
O31_2 O 0.0920(4) 0.1969(3) 0.90067(14)
O32 O 0.6755(4) 0.3101(3) 0.93999(12)
O35_2 O 0.4596(5) 0.0546(3) 0.94163(13)
O38_2 O 0.5090(5) 0.4094(3) 0.88295(14)
O40_2 O 0.0304(6) 0.5712(3) 0.89049(16)
Y2_2 Y 0.84099(6) 0.35304(4) 0.902499(18)
O2_2 O 0.8307(5) 0.3665(3) 0.83202(13)
O12_2 O 0.9080(4) 0.6969(3) 0.59933(14)
O17_2 O 0.5404(5) 0.5546(3) 0.55837(13)
C2_2 C 0.5825(7) 0.2247(4) 0.73899(19)
H11_2 H 0.5243 0.1860 0.7342
C4_2 C 0.6305(7) 0.2655(4) 0.70814(19)
C5_2 C 0.7070(7) 0.3006(4) 0.78454(19)
C7_2 C 0.3729(8) 0.1017(4) 0.6339(2)
H13_2 H 0.2888 0.0962 0.6262
C8_2 C 0.5432(8) 0.1797(4) 0.6574(2)
C9_2 C 0.4556(7) 0.0381(4) 0.6334(2)
C10_2 C 0.7438(7) 0.3217(4) 0.8265(2)
C11_2 C 0.6205(7) 0.2408(4) 0.77768(19)
H14_2 H 0.5891 0.2124 0.7989
C13_2 C 0.7274(8) 0.3217(4) 0.7157(2)
H16_2 H 0.7663 0.3467 0.6946
C14_2 C 0.5367(8) 0.4448(4) 0.62244(19)
H17_2 H 0.5241 0.4952 0.6301
N2_2 N 0.5845(6) 0.2544(3) 0.66910(18)
C15_2 C 0.6242(7) 0.1206(4) 0.6574(2)
H18_2 H 0.7070 0.1268 0.6663
C16_2 C 0.5916(7) 0.2958(4) 0.5984(2)
H19_2 H 0.6164 0.2468 0.5912
C19_2 C 0.5493(8) 0.4258(4) 0.58109(19)
O24_2 O 0.9696(6) 0.0712(3) 0.60951(16)
C23_2 C 0.7607(8) 0.3373(4) 0.7526(2)
H21_2 H 0.8223 0.3742 0.7572
C25_2 C 0.9855(7) 0.4779(4) 0.6440(2)
H22_2 H 0.9359 0.4362 0.6370
C26_2 C 0.5340(8) 0.4832(4) 0.5491(2)
C28_2 C 0.4187(8) 0.1728(4) 0.6461(2)
H23_2 H 0.3653 0.2150 0.6465
C29_2 C 0.5742(8) 0.3144(5) 0.6395(2)
C31_2 C 0.5826(7) 0.0502(4) 0.6440(2)
H25_2 H 0.6400 0.0101 0.6419
H26_2 H 0.9726 0.1630 0.6698
C37_2 C 0.5725(8) 0.3485(5) 0.5706(2)
H28_2 H 0.5744 0.3346 0.5439
C39_2 C 0.5432(8) 0.3892(4) 0.6503(2)
H30_2 H 0.5270 0.4007 0.6768
C40_2 C 0.9563(8) 0.5493(4) 0.6284(2)
H31_2 H 0.8846 0.5556 0.6126
O27_2 O 0.9473(4) 0.2866(2) 0.95540(12)
O28_2 O 0.8584(4) 0.4349(2) 0.95860(13)
O36_2 O 0.9151(5) 0.2408(3) 0.87509(14)
O37_2 O 0.7028(4) 0.4543(3) 0.89241(14)
O39_2 O 0.9238(6) 0.6175(3) 0.94097(18)
O19_2 O 0.2972(4) 0.9543(3) 0.60759(14)
O21_2 O 0.4910(5) 0.9094(3) 0.61705(14)
C22_2 C 0.4108(7) 0.9615(4) 0.61833(19)
O16_3 O 0.0470(5) 0.3467(3) 0.11920(13)
H9_3 H 0.0348 0.3802 0.0969
O30_2 O 0.1772(4) 0.2044(3) 0.14369(12)
O1_3 O 0.8287(4) 0.2910(3) 0.07150(12)
H1_3 H 0.8005 0.3292 0.0909
O2_3 O 0.3307(5) 0.1335(3) 0.16798(13)
O6_3 O 0.5440(4) 0.0979(3) 0.09395(13)
H5_3 H 0.5776 0.0835 0.1201
O7_3 O 0.7099(4) 0.2648(2) 0.00122(13)
O10_3 O 0.6981(4) 0.4201(3) 0.02853(14)
H6_3 H 0.6267 0.3894 0.0211
H7_3 H 0.6956 0.4675 0.0142
O11_3 O 0.8650(4) 0.1474(3) 0.05552(12)
O14_3 O 0.8845(4) 0.2230(3) 0.15934(13)
O15_2 O 0.0256(5) 0.0394(3) 0.48533(15)
H8_3 H 0.9938 0.3625 0.1409
C1_3 C 0.6443(9) 0.1033(5) 0.2051(2)
H10_3 H 0.6018 0.0842 0.1829
N1_3 N 0.6143(8) 0.1043(4) 0.3158(2)
O20_3 O 0.7295(5) 0.1599(3) 0.13010(14)
C2_3 C 0.0825(7) 0.2753(4) 0.26101(19)
H11_3 H 0.0243 0.3140 0.2658
C3_3 C 0.5286(9) 0.2335(5) 0.3215(2)
H12_3 H 0.5016 0.2318 0.2951
C4_3 C 0.1305(7) 0.2345(4) 0.29186(19)
C5_3 C 0.2070(7) 0.1994(4) 0.21546(19)
C6_3 C 0.6575(9) 0.1175(5) 0.2765(2)
C8_3 C 0.0432(8) 0.3203(4) 0.3426(2)
C10_3 C 0.2438(7) 0.1783(4) 0.1735(2)
C11_3 C 0.1205(7) 0.2592(4) 0.22232(19)
H14_3 H 0.0891 0.2876 0.2011
C12_3 C 0.7590(8) 0.1678(5) 0.2718(2)
H15_3 H 0.7979 0.1899 0.2938
C13_3 C 0.2274(8) 0.1783(4) 0.2843(2)
H16_3 H 0.2663 0.1533 0.3054
C14_3 C 0.0367(8) 0.0552(4) 0.37756(19)
H17_3 H 0.0241 0.0048 0.3699
N2_3 N 0.0845(6) 0.2456(3) 0.33090(18)
C15_3 C 0.1242(7) 0.3794(4) 0.3426(2)
H18_3 H 0.2070 0.3732 0.3337
C16_3 C 0.0916(7) 0.2042(4) 0.4016(2)
H19_3 H 0.1164 0.2532 0.4088
C18_3 C 0.7446(8) 0.1539(5) 0.2007(2)
C19_3 C 0.0493(8) 0.0742(4) 0.41891(19)
C23_3 C 0.2607(8) 0.1627(4) 0.2474(2)
H21_3 H 0.3223 0.1258 0.2428
C24_3 C 0.5865(9) 0.1705(5) 0.3382(2)
C25_3 C 0.4855(7) 0.0221(4) 0.3560(2)
H22_3 H 0.4359 0.0638 0.3630
C26_3 C 0.0340(8) 0.0168(4) 0.4509(2)
C27_3 C 0.7869(8) 0.1799(4) 0.1607(2)
C29_3 C 0.0742(8) 0.1856(5) 0.3605(2)
C30_3 C 0.6082(9) 0.0813(5) 0.2443(2)
H24_3 H 0.5503 0.0419 0.2479
C31_3 C 0.0826(7) 0.4498(4) 0.3560(2)
H25_3 H 0.1400 0.4899 0.3581
C32_3 C 0.5116(9) 0.2958(5) 0.3426(2)
H26_3 H 0.4726 0.3370 0.3302
C33_3 C 0.5843(9) 0.0321(5) 0.3309(2)
C34_3 C 0.7992(8) 0.1836(5) 0.2344(2)
H27_3 H 0.8678 0.2164 0.2314
C35_3 C 0.5477(9) 0.3042(5) 0.3820(2)
C36_3 C 0.5204(10) 0.3723(5) 0.4062(3)
C37_3 C 0.0725(8) 0.1515(5) 0.4294(2)
H28_3 H 0.0744 0.1654 0.4561
C39_3 C 0.0432(8) 0.1108(4) 0.3497(2)
H30_3 H 0.0270 0.0993 0.3232
C41_3 C 0.6287(9) 0.1756(5) 0.3780(2)
H32_3 H 0.6659 0.1336 0.3902
C42_3 C 0.6147(10) 0.2425(5) 0.3986(3)
H33_3 H 0.6500 0.2472 0.4238
H2_3 H 0.6654 0.0961 0.9943
H3_3 H 0.9231 0.2327 0.9568
H4_3 H 0.7838 0.4675 0.9622
N3_3 N 0.6495(5) 0.2669(3) 0.96938(15)
O23_3 O 0.7663(5) 0.9993(4) 0.06534(16)
C17_3 C 0.5346(7) 0.8886(4) 0.3635(2)
C20_3 C 0.5085(7) 0.8132(4) 0.3807(2)
C21_3 C 0.6582(8) 0.9681(4) 0.3221(2)
H20_3 H 0.7275 0.9743 0.3053
C38_3 C 0.6338(7) 0.8964(5) 0.3370(2)
H29_3 H 0.6825 0.8546 0.3295
C40_3 C 0.4563(8) 0.9507(4) 0.3716(2)
H31_3 H 0.3846 0.9444 0.3874
O25_3 O 0.6977(6) 0.9084(4) 0.02471(19)
C43_3 C 0.9227(11) 0.9321(7) 0.0339(3)
H34_3 H 0.9740 0.9686 0.0478
H35_3 H 0.9363 0.9370 0.0057
H36_3 H 0.9453 0.8815 0.0423
C44_3 C 0.7872(11) 0.9461(7) 0.0430(4)
O34_2 O 0.4744(5) 0.9606(3) 0.98533(15)
C7_3 C 0.8729(8) 0.3983(4) 0.3661(2)
H13_3 H 0.7888 0.4038 0.3738
C9_3 C 0.9556(7) 0.4619(4) 0.3666(2)
C22_3 C 0.9108(7) 0.5385(4) 0.38167(19)
C28_3 C 0.9187(8) 0.3272(4) 0.3539(2)
H23_3 H 0.8653 0.2850 0.3535
C40_4 C 0.0437(8) 0.0493(4) 0.8716(2)
H31_4 H 0.1154 0.0556 0.8874
O2_4 O 0.1693(5) 0.8665(3) 0.66798(13)
O9_2 O 0.3228(4) 0.7956(3) 0.64369(12)
C2_4 C 0.4175(7) 0.7247(4) 0.76101(19)
H11_4 H 0.4757 0.6860 0.7658
C4_4 C 0.3695(7) 0.7655(4) 0.79186(19)
C5_4 C 0.2930(7) 0.8006(4) 0.71546(19)
C7_4 C 0.6271(8) 0.6017(4) 0.8661(2)
H13_4 H 0.7112 0.5962 0.8738
C8_4 C 0.4568(8) 0.6797(4) 0.8426(2)
C9_4 C 0.5444(7) 0.5381(4) 0.8666(2)
C10_4 C 0.2562(7) 0.8217(4) 0.6735(2)
C11_4 C 0.3795(7) 0.7408(4) 0.72232(19)
H14_4 H 0.4109 0.7124 0.7011
C13_4 C 0.2726(8) 0.8217(4) 0.7843(2)
H16_4 H 0.2337 0.8467 0.8054
C14_4 C 0.4633(8) 0.9448(4) 0.87756(19)
H17_4 H 0.4759 0.9952 0.8699
N2_4 N 0.4155(6) 0.7544(3) 0.83090(18)
C15_4 C 0.3758(7) 0.6206(4) 0.8426(2)
H18_4 H 0.2930 0.6268 0.8337
C16_4 C 0.4084(7) 0.7958(4) 0.9016(2)
H19_4 H 0.3836 0.7468 0.9088
C19_4 C 0.4507(8) 0.9258(4) 0.91891(19)
C22_4 C 0.5892(7) 0.4615(4) 0.88167(19)
C23_4 C 0.2393(8) 0.8373(4) 0.7474(2)
H21_4 H 0.1777 0.8742 0.7428
C25_4 C 0.0145(7) 0.9779(4) 0.8560(2)
H22_4 H 0.0641 0.9362 0.8630
C26_4 C 0.4660(8) 0.9832(4) 0.9509(2)
C28_4 C 0.5813(8) 0.6728(4) 0.8539(2)
H23_4 H 0.6347 0.7150 0.8535
C29_4 C 0.4258(8) 0.8144(5) 0.8605(2)
C31_4 C 0.4174(7) 0.5502(4) 0.8560(2)
H25_4 H 0.3600 0.5101 0.8581
H26_4 H 0.0274 0.6630 0.8302
C37_4 C 0.4275(8) 0.8485(5) 0.9294(2)
H28_4 H 0.4256 0.8346 0.9561
C39_4 C 0.4568(8) 0.8892(4) 0.8497(2)
H30_4 H 0.4730 0.9007 0.8232
O23_4 O 0.7337(5) 0.0007(4) 0.56534(16)
C17_4 C 0.9654(7) 0.1114(4) 0.8635(2)
C20_4 C 0.9915(7) 0.1868(4) 0.8807(2)
C21_4 C 0.8418(8) 0.0319(4) 0.8221(2)
H20_4 H 0.7725 0.0257 0.8053
C38_4 C 0.8662(7) 0.1036(5) 0.8370(2)
H29_4 H 0.8175 0.1454 0.8295
O25_4 O 0.8023(6) 0.0916(4) 0.52471(19)
C43_4 C 0.5773(11) 0.0679(7) 0.5339(3)
H34_4 H 0.5260 0.0314 0.5478
H35_4 H 0.5637 0.0630 0.5057
H36_4 H 0.5547 0.1185 0.5423
C44_4 C 0.7128(11) 0.0539(7) 0.5430(4)
O1_4 O 0.6713(4) 0.7090(3) 0.57150(12)
H1_4 H 0.6995 0.6708 0.5909
H2_4 H 0.8346 0.9039 0.4943
H3_4 H 0.5769 0.7673 0.4568
H4_4 H 0.7162 0.5325 0.4622
O6_4 O 0.9560(4) 0.9021(3) 0.59395(13)
H5_4 H 0.9224 0.9165 0.6201
O7_4 O 0.7901(4) 0.7352(2) 0.50122(13)
O10_4 O 0.8019(4) 0.5799(3) 0.52853(14)
H6_4 H 0.8733 0.6106 0.5211
H7_4 H 0.8044 0.5325 0.5142
O11_4 O 0.6350(4) 0.8526(3) 0.55552(12)
O14_4 O 0.6155(4) 0.7770(3) 0.65934(13)
O16_4 O 0.4530(5) 0.6533(3) 0.61920(13)
H8_4 H 0.5062 0.6375 0.6409
H9_4 H 0.4652 0.6198 0.5969
C1_4 C 0.8557(9) 0.8967(5) 0.7051(2)
H10_4 H 0.8982 0.9158 0.6829
N1_4 N 0.8857(8) 0.8957(4) 0.8158(2)
O20_4 O 0.7705(5) 0.8401(3) 0.63010(14)
C3_4 C 0.9714(9) 0.7665(5) 0.8215(2)
H12_4 H 0.9984 0.7682 0.7951
C6_4 C 0.8425(9) 0.8825(5) 0.7765(2)
C12_4 C 0.7410(8) 0.8322(5) 0.7718(2)
H15_4 H 0.7021 0.8101 0.7938
C18_4 C 0.7554(8) 0.8461(5) 0.7007(2)
C24_4 C 0.9135(9) 0.8295(5) 0.8382(2)
C27_4 C 0.7131(8) 0.8201(4) 0.6607(2)
N3_4 N 0.8505(5) 0.7331(3) 0.46938(15)
C30_4 C 0.8918(9) 0.9187(5) 0.7443(2)
H24_4 H 0.9497 0.9581 0.7479
C32_4 C 0.9884(9) 0.7042(5) 0.8426(2)
C33_4 C 0.9157(9) 0.9679(5) 0.8309(2)
C34_4 C 0.7008(8) 0.8164(5) 0.7344(2)
H27_4 H 0.6322 0.7836 0.7314
C35_4 C 0.9523(9) 0.6958(5) 0.8820(2)
C36_4 C 0.9796(10) 0.6277(5) 0.9062(3)
C41_4 C 0.8713(9) 0.8244(5) 0.8780(2)
H32_4 H 0.8341 0.8664 0.8902
C42_4 C 0.8853(10) 0.7575(5) 0.8986(3)
H33_4 H 0.8500 0.7528 0.9238
loop_
_geom_bond_atom_site_label_1
_geom_bond_atom_site_label_2
_geom_bond_site_symmetry_1
_geom_bond_site_symmetry_2
O19 C22 1_555 1_555
O21 C22 1_555 1_555
Y9 O19 1_555 1_555
C7 H13 1_555 1_555
C9 C7 1_555 1_555
C28 C7 1_555 1_555
H23 C28 1_555 1_555
Y1 O1 1_555 1_555
Y2 O2 1_555 1_555
Y11 O1 1_555 1_555
Y4 O3 1_555 1_555
Y5 O1 1_555 1_555
O1 H1 1_555 1_555
O2 C10 1_555 1_555
O3 Y1 1_555 1_555
H2 O3 1_555 1_555
O4 Y5 1_555 1_555
H3 O4 1_555 1_555
O5 Y5 1_555 1_555
H4 O5 1_555 1_555
O6 Y1 1_555 1_555
H5 O6 1_555 1_555
O7 Y1 1_555 1_555
O8 N3 1_555 1_555
O9 Y2 1_555 1_555
O10 Y5 1_555 1_555
H6 O10 1_555 1_555
H7 O10 1_555 1_555
O11 Y1 1_555 1_555
O12 C20 1_555 1_555
O13 N3 1_555 1_555
O14 Y11 1_555 1_555
O15 C26 1_555 1_555
O17 C26 1_555 1_555
O18 C20 1_555 1_555
C1 H10 1_555 1_555
N1 C6 1_555 1_555
O20 Y1 1_555 1_555
C2 H11 1_555 1_555
C3 H12 1_555 1_555
C4 C2 1_555 1_555
C5 C10 1_555 1_555
C6 C12 1_555 1_555
C8 N2 1_555 1_555
C10 O9 1_555 1_555
C11 C2 1_555 1_555
H14 C11 1_555 1_555
C12 H15 1_555 1_555
C13 C4 1_555 1_555
H16 C13 1_555 1_555
C14 H17 1_555 1_555
N2 C4 1_555 1_555
C15 C8 1_555 1_555
H18 C15 1_555 1_555
O22 C36 1_555 1_555
O23 Y4 1_555 1_555
C16 H19 1_555 1_555
C17 C20 1_555 1_555
C18 C1 1_555 1_555
C19 C14 1_555 1_555
C21 H20 1_555 1_555
O24 C36 1_555 1_555
C23 C5 1_555 1_555
H21 C23 1_555 1_555
C24 N1 1_555 1_555
C25 H22 1_555 1_555
C26 C19 1_555 1_555
C27 O14 1_555 1_555
N3 O7 1_555 1_555
C29 N2 1_555 1_555
C30 C1 1_555 1_555
H24 C30 1_555 1_555
H25 C31 1_555 1_555
C32 C3 1_555 1_555
H26 C32 1_555 1_555
C33 N1 1_555 1_555
C34 C12 1_555 1_555
H27 C34 1_555 1_555
C35 C32 1_555 1_555
C36 C35 1_555 1_555
C37 C16 1_555 1_555
H28 C37 1_555 1_555
C38 C17 1_555 1_555
H29 C38 1_555 1_555
C39 C14 1_555 1_555
H30 C39 1_555 1_555
C40 C17 1_555 1_555
H31 C40 1_555 1_555
C41 C24 1_555 1_555
H32 C41 1_555 1_555
C42 C35 1_555 1_555
H33 C42 1_555 1_555
O25 Y4 1_555 1_555
C43 H34 1_555 1_555
H35 C43 1_555 1_555
H36 C43 1_555 1_555
C44 O23 1_555 1_555
Y6 O12 1_555 1_555
Y9 O18 1_555 1_555
Y10 O4 1_555 1_555
Y13 O8 1_555 1_555
Y15 O22 1_555 1_555
Y17 O17 1_555 1_555
Y18 O3 1_555 1_555
O27 Y1 1_555 1_555
O28 Y2 1_555 1_555
O31 Y1 1_555 1_555
O33 Y2 1_555 1_555
O34 Y4 1_555 1_555
O35 Y5 1_555 1_555
O36 Y2 1_555 1_555
O37 Y2 1_555 1_555
O39 Y4 1_555 1_555
O40 Y4 1_555 1_555
Y2 O6 1_555 1_555
Y2 O27 1_555 1_555
Y11 O11 1_555 1_555
Y4 O6 1_555 1_555
Y4 O28 1_555 1_555
Y5 O7 1_555 1_555
O5 Y10 1_555 1_555
O8 Y18 1_555 1_555
O13 Y10 1_555 1_555
O13 Y13 1_555 1_555
O20 C27 1_555 1_555
C3 C24 1_555 1_555
C5 C11 1_555 1_555
C6 C30 1_555 1_555
C13 C23 1_555 1_555
C15 C31 1_555 1_555
C16 C29 1_555 1_555
C18 C27 1_555 1_555
C18 C34 1_555 1_555
C19 C37 1_555 1_555
C21 C33 1_555 1_555
C21 C38 1_555 1_555
O24 Y15 1_555 1_555
C25 C33 1_555 1_555
C25 C40 1_555 1_555
C29 C39 1_555 1_555
C41 C42 1_555 1_555
O25 C44 1_555 1_555
C43 C44 1_555 1_555
Y18 O27 1_555 1_555
Y18 O28 1_555 1_555
H9 O16 1_555 1_555
Y7 O26 1_555 1_555
H3_2 O4_2 1_555 1_555
H4_2 O5_2 1_555 1_555
O8_2 N3_2 1_555 1_555
O13_2 N3_2 1_555 1_555
Y6 O4_2 1_555 1_555
Y9 O4_2 1_555 1_555
O5_2 Y9 1_555 1_555
O13_2 Y9 1_555 1_555
Y6 O26_2 1_555 1_555
Y1_2 O1_2 1_555 1_555
Y3 O1_2 1_555 1_555
Y14 O3_2 1_555 1_555
Y5_2 O1_2 1_555 1_555
O1_2 H1_2 1_555 1_555
O3_2 Y1_2 1_555 1_555
O6_2 Y1_2 1_555 1_555
H5_2 O6_2 1_555 1_555
O7_2 Y1_2 1_555 1_555
O10_2 Y5_2 1_555 1_555
H6_2 O10_2 1_555 1_555
H7_2 O10_2 1_555 1_555
O11_2 Y1_2 1_555 1_555
O14_2 Y3 1_555 1_555
O16_2 Y3 1_555 1_555
H8_2 O16_2 1_555 1_555
H9_2 O16_2 1_555 1_555
O18_2 C20_2 1_555 1_555
C1_2 H10_2 1_555 1_555
N1_2 C6_2 1_555 1_555
O20_2 Y1_2 1_555 1_555
C3_2 H12_2 1_555 1_555
C6_2 C12_2 1_555 1_555
C12_2 H15_2 1_555 1_555
O22_2 C36_2 1_555 1_555
O23_2 Y14 1_555 1_555
C17_2 C20_2 1_555 1_555
C18_2 C1_2 1_555 1_555
C21_2 H20_2 1_555 1_555
C24_2 N1_2 1_555 1_555
C27_2 O14_2 1_555 1_555
C30_2 C1_2 1_555 1_555
H24_2 C30_2 1_555 1_555
C32_2 C3_2 1_555 1_555
C33_2 N1_2 1_555 1_555
C34_2 C12_2 1_555 1_555
H27_2 C34_2 1_555 1_555
C35_2 C32_2 1_555 1_555
C36_2 C35_2 1_555 1_555
C38_2 C17_2 1_555 1_555
H29_2 C38_2 1_555 1_555
C41_2 C24_2 1_555 1_555
H32_2 C41_2 1_555 1_555
C42_2 C35_2 1_555 1_555
H33_2 C42_2 1_555 1_555
O25_2 Y14 1_555 1_555
C43_2 H34_2 1_555 1_555
H35_2 C43_2 1_555 1_555
H36_2 C43_2 1_555 1_555
C44_2 O23_2 1_555 1_555
Y10 O18_2 1_555 1_555
O29_2 Y3 1_555 1_555
O30 Y3 1_555 1_555
O31_2 Y1_2 1_555 1_555
O32 Y3 1_555 1_555
O35_2 Y5_2 1_555 1_555
O38_2 Y3 1_555 1_555
O40_2 Y14 1_555 1_555
Y3 O11_2 1_555 1_555
Y14 O6_2 1_555 1_555
Y5_2 O7_2 1_555 1_555
Y5_2 O29_2 1_555 1_555
O20_2 C27_2 1_555 1_555
C3_2 C24_2 1_555 1_555
C6_2 C30_2 1_555 1_555
C18_2 C27_2 1_555 1_555
C18_2 C34_2 1_555 1_555
C21_2 C33_2 1_555 1_555
C21_2 C38_2 1_555 1_555
C41_2 C42_2 1_555 1_555
O25_2 C44_2 1_555 1_555
C43_2 C44_2 1_555 1_555
Y2_2 O2_2 1_555 1_555
O2_2 C10_2 1_555 1_555
O30 Y2_2 1_555 1_555
O34 C26_2 1_555 1_555
O17_2 C26_2 1_555 1_555
C2_2 H11_2 1_555 1_555
C4_2 C2_2 1_555 1_555
C5_2 C10_2 1_555 1_555
C7_2 H13_2 1_555 1_555
C8_2 N2_2 1_555 1_555
C9_2 C7_2 1_555 1_555
C10_2 O30 1_555 1_555
C11_2 C2_2 1_555 1_555
H14_2 C11_2 1_555 1_555
C13_2 C4_2 1_555 1_555
H16_2 C13_2 1_555 1_555
C14_2 H17_2 1_555 1_555
N2_2 C4_2 1_555 1_555
C15_2 C8_2 1_555 1_555
H18_2 C15_2 1_555 1_555
C16_2 H19_2 1_555 1_555
C19_2 C14_2 1_555 1_555
C23_2 C5_2 1_555 1_555
H21_2 C23_2 1_555 1_555
C25_2 H22_2 1_555 1_555
C26_2 C19_2 1_555 1_555
C28_2 C7_2 1_555 1_555
H23_2 C28_2 1_555 1_555
C29_2 N2_2 1_555 1_555
C31_2 C9_2 1_555 1_555
H25_2 C31_2 1_555 1_555
C37_2 C16_2 1_555 1_555
H28_2 C37_2 1_555 1_555
C39_2 C14_2 1_555 1_555
H30_2 C39_2 1_555 1_555
H31_2 C40_2 1_555 1_555
Y7 O12_2 1_555 1_555
Y18 O17_2 1_555 1_555
O28_2 Y2_2 1_555 1_555
O32 Y2_2 1_555 1_555
O36_2 Y2_2 1_555 1_555
O37_2 Y2_2 1_555 1_555
Y2_2 O27_2 1_555 1_555
C5_2 C11_2 1_555 1_555
C8_2 C28_2 1_555 1_555
C13_2 C23_2 1_555 1_555
C15_2 C31_2 1_555 1_555
C16_2 C29_2 1_555 1_555
C19_2 C37_2 1_555 1_555
O24_2 Y16 1_555 1_555
C25_2 C40_2 1_555 1_555
C29_2 C39_2 1_555 1_555
O19_2 C22_2 1_555 1_555
O21_2 C22_2 1_555 1_555
Y10 O19_2 1_555 1_555
Y13 O21_2 1_555 1_555
H9_3 O16_3 1_555 1_555
Y6 O1_3 1_555 1_555
Y9 O2_3 1_555 1_555
Y12 O1_3 1_555 1_555
Y17 O1_3 1_555 1_555
O1_3 H1_3 1_555 1_555
O2_3 C10_3 1_555 1_555
O6_3 Y6 1_555 1_555
H5_3 O6_3 1_555 1_555
O7_3 Y6 1_555 1_555
O30_2 Y9 1_555 1_555
O10_3 Y17 1_555 1_555
H6_3 O10_3 1_555 1_555
H7_3 O10_3 1_555 1_555
O11_3 Y6 1_555 1_555
O14_3 Y12 1_555 1_555
O15_2 C26_3 1_555 1_555
C1_3 H10_3 1_555 1_555
N1_3 C6_3 1_555 1_555
O20_3 Y6 1_555 1_555
C2_3 H11_3 1_555 1_555
C3_3 H12_3 1_555 1_555
C4_3 C2_3 1_555 1_555
C5_3 C10_3 1_555 1_555
C6_3 C12_3 1_555 1_555
C8_3 N2_3 1_555 1_555
C10_3 O30_2 1_555 1_555
C11_3 C2_3 1_555 1_555
H14_3 C11_3 1_555 1_555
C12_3 H15_3 1_555 1_555
C13_3 C4_3 1_555 1_555
H16_3 C13_3 1_555 1_555
C14_3 H17_3 1_555 1_555
N2_3 C4_3 1_555 1_555
C15_3 C8_3 1_555 1_555
H18_3 C15_3 1_555 1_555
O39 C36_3 1_555 1_555
C16_3 H19_3 1_555 1_555
C18_3 C1_3 1_555 1_555
C19_3 C14_3 1_555 1_555
O40 C36_3 1_555 1_555
C23_3 C5_3 1_555 1_555
H21_3 C23_3 1_555 1_555
C24_3 N1_3 1_555 1_555
C25_3 H22_3 1_555 1_555
C26_3 C19_3 1_555 1_555
C27_3 O14_3 1_555 1_555
C29_3 N2_3 1_555 1_555
C30_3 C1_3 1_555 1_555
H24_3 C30_3 1_555 1_555
H25_3 C31_3 1_555 1_555
C32_3 C3_3 1_555 1_555
H26_3 C32_3 1_555 1_555
C33_3 N1_3 1_555 1_555
C34_3 C12_3 1_555 1_555
H27_3 C34_3 1_555 1_555
C35_3 C32_3 1_555 1_555
C36_3 C35_3 1_555 1_555
C37_3 C16_3 1_555 1_555
H28_3 C37_3 1_555 1_555
C39_3 C14_3 1_555 1_555
H30_3 C39_3 1_555 1_555
C41_3 C24_3 1_555 1_555
H32_3 C41_3 1_555 1_555
C42_3 C35_3 1_555 1_555
H33_3 C42_3 1_555 1_555
Y9 O6_3 1_555 1_555
Y12 O11_3 1_555 1_555
Y17 O7_3 1_555 1_555
O20_3 C27_3 1_555 1_555
C3_3 C24_3 1_555 1_555
C5_3 C11_3 1_555 1_555
C6_3 C30_3 1_555 1_555
C13_3 C23_3 1_555 1_555
C15_3 C31_3 1_555 1_555
C16_3 C29_3 1_555 1_555
C18_3 C27_3 1_555 1_555
C18_3 C34_3 1_555 1_555
C19_3 C37_3 1_555 1_555
C25_3 C33_3 1_555 1_555
C29_3 C39_3 1_555 1_555
C41_3 C42_3 1_555 1_555
H3_3 O27_2 1_555 1_555
H4_3 O28_2 1_555 1_555
O29_2 N3_3 1_555 1_555
O32 N3_3 1_555 1_555
O31 C20_3 1_555 1_555
O36 C20_3 1_555 1_555
O23_3 Y15 1_555 1_555
C17_3 C20_3 1_555 1_555
C21_3 H20_3 1_555 1_555
C38_3 C17_3 1_555 1_555
H29_3 C38_3 1_555 1_555
C40_3 C17_3 1_555 1_555
H31_3 C40_3 1_555 1_555
O25_3 Y15 1_555 1_555
C43_3 H34_3 1_555 1_555
H35_3 C43_3 1_555 1_555
H36_3 C43_3 1_555 1_555
C44_3 O23_3 1_555 1_555
C21_3 C38_3 1_555 1_555
O25_3 C44_3 1_555 1_555
C43_3 C44_3 1_555 1_555
O37 C22_3 1_555 1_555
C7_3 H13_3 1_555 1_555
C9_3 C7_3 1_555 1_555
O38 C22_3 1_555 1_555
C22_3 C9_3 1_555 1_555
C28_3 C7_3 1_555 1_555
H23_3 C28_3 1_555 1_555
H31_4 C40_4 1_555 1_555
Y10 O2_4 1_555 1_555
O2_4 C10_4 1_555 1_555
O9_2 Y10 1_555 1_555
O34_2 C26_4 1_555 1_555
O37_2 C22_4 1_555 1_555
C2_4 H11_4 1_555 1_555
C4_4 C2_4 1_555 1_555
C5_4 C10_4 1_555 1_555
C7_4 H13_4 1_555 1_555
C8_4 N2_4 1_555 1_555
C9_4 C7_4 1_555 1_555
C10_4 O9_2 1_555 1_555
O38_2 C22_4 1_555 1_555
C11_4 C2_4 1_555 1_555
H14_4 C11_4 1_555 1_555
C13_4 C4_4 1_555 1_555
H16_4 C13_4 1_555 1_555
C14_4 H17_4 1_555 1_555
N2_4 C4_4 1_555 1_555
C15_4 C8_4 1_555 1_555
H18_4 C15_4 1_555 1_555
C16_4 H19_4 1_555 1_555
C19_4 C14_4 1_555 1_555
C22_4 C9_4 1_555 1_555
C23_4 C5_4 1_555 1_555
H21_4 C23_4 1_555 1_555
C25_4 H22_4 1_555 1_555
C26_4 C19_4 1_555 1_555
C28_4 C7_4 1_555 1_555
H23_4 C28_4 1_555 1_555
C29_4 N2_4 1_555 1_555
C31_4 C9_4 1_555 1_555
H25_4 C31_4 1_555 1_555
C37_4 C16_4 1_555 1_555
H28_4 C37_4 1_555 1_555
C39_4 C14_4 1_555 1_555
H30_4 C39_4 1_555 1_555
Y13 O9_2 1_555 1_555
C5_4 C11_4 1_555 1_555
C8_4 C28_4 1_555 1_555
C13_4 C23_4 1_555 1_555
C15_4 C31_4 1_555 1_555
C16_4 C29_4 1_555 1_555
C19_4 C37_4 1_555 1_555
C29_4 C39_4 1_555 1_555
O36_2 C20_4 1_555 1_555
O23_4 Y16 1_555 1_555
C17_4 C20_4 1_555 1_555
C21_4 H20_4 1_555 1_555
C38_4 C17_4 1_555 1_555
H29_4 C38_4 1_555 1_555
O25_4 Y16 1_555 1_555
C43_4 H34_4 1_555 1_555
H35_4 C43_4 1_555 1_555
H36_4 C43_4 1_555 1_555
C44_4 O23_4 1_555 1_555
C21_4 C38_4 1_555 1_555
O25_4 C44_4 1_555 1_555
C43_4 C44_4 1_555 1_555
Y7 O1_4 1_555 1_555
Y13 O1_4 1_555 1_555
Y18 O1_4 1_555 1_555
O1_4 H1_4 1_555 1_555
H2_4 O26 1_555 1_555
H3_4 O27 1_555 1_555
H4_4 O28 1_555 1_555
O6_4 Y7 1_555 1_555
H5_4 O6_4 1_555 1_555
O7_4 Y7 1_555 1_555
O29 N3_4 1_555 1_555
O10_4 Y18 1_555 1_555
H6_4 O10_4 1_555 1_555
H7_4 O10_4 1_555 1_555
O11_4 Y7 1_555 1_555
O33 N3_4 1_555 1_555
O14_4 Y13 1_555 1_555
O16_4 Y13 1_555 1_555
H8_4 O16_4 1_555 1_555
H9_4 O16_4 1_555 1_555
C1_4 H10_4 1_555 1_555
N1_4 C6_4 1_555 1_555
O20_4 Y7 1_555 1_555
C3_4 H12_4 1_555 1_555
C6_4 C12_4 1_555 1_555
C12_4 H15_4 1_555 1_555
O39_2 C36_4 1_555 1_555
C18_4 C1_4 1_555 1_555
C24_4 N1_4 1_555 1_555
C27_4 O14_4 1_555 1_555
N3_4 O7_4 1_555 1_555
C30_4 C1_4 1_555 1_555
H24_4 C30_4 1_555 1_555
C32_4 C3_4 1_555 1_555
C33_4 N1_4 1_555 1_555
C34_4 C12_4 1_555 1_555
H27_4 C34_4 1_555 1_555
C35_4 C32_4 1_555 1_555
C36_4 C35_4 1_555 1_555
C41_4 C24_4 1_555 1_555
H32_4 C41_4 1_555 1_555
C42_4 C35_4 1_555 1_555
H33_4 C42_4 1_555 1_555
Y13 O11_4 1_555 1_555
Y18 O7_4 1_555 1_555
O20_4 C27_4 1_555 1_555
C3_4 C24_4 1_555 1_555
C6_4 C30_4 1_555 1_555
C18_4 C27_4 1_555 1_555
C18_4 C34_4 1_555 1_555
C41_4 C42_4 1_555 1_555

#END
