
###############################################################################
#
# This file contains modified crystal structure data generated from the
# MOF subset of the Cambridge Structural Database (CSD) v543 
# hosted by the Cambridge Crystallographic Data Centre (CCDC).
#
# This work is licensed under the Creative Commons
# Attribution-NonCommercial-ShareAlike 4.0 International License.
# To view a copy of this license, visit
# http://creativecommons.org/licenses/by-nc-sa/4.0/
# or send a letter to
# Creative Commons, PO Box 1866, Mountain View, CA 94042, USA.
#
# CIF created using the CSD Python API on 29 September 2022
# The structure has been converted into the P1 space group
# The structure has a 3D framework
# The original CSD entry GEWXAJ is in the monoclinic crystal system
# The framework has been calculated to contain at least 10.0% void space
# The void calculation uses a probe of radius 1.32A, grid spacing 0.4
#
###############################################################################

data_GEWXAJ
_chemical_formula_moiety         '(C116 H84 Cu16 N32 O52)n'
_symmetry_cell_setting           triclinic
_symmetry_space_group_name_H-M   'P 1'
_symmetry_Int_Tables_number      1
_space_group_name_Hall           'P 1'
loop_
_symmetry_equiv_pos_site_id
_symmetry_equiv_pos_as_xyz
1 x,y,z
_cell_length_a                   34.354(5)
_cell_length_b                   7.396(5)
_cell_length_c                   15.666(5)
_cell_angle_alpha                90
_cell_angle_beta                 111.398(5)
_cell_angle_gamma                90
_cell_volume                     3706.07
loop_
_atom_site_label
_atom_site_type_symbol
_atom_site_fract_x
_atom_site_fract_y
_atom_site_fract_z
O3 O 0.28862(18) 0.2895(6) 0.1096(3)
C3 C 0.29799(19) 0.1798(9) 0.0623(4)
O4 O 0.28907(15) 0.0108(6) 0.0579(3)
C6 C 0.3224(2) 0.2370(8) 0.0034(4)
H7 H 0.4092 0.4334 0.0190
C15 C 0.3599(2) 0.3309(9) 0.0435(5)
H11 H 0.3690 0.3625 0.1052
Cu8 Cu 0.74739(2) 0.36223(10) 0.08497(5)
Cu12 Cu 0.83773(2) 0.27304(12) 0.09206(5)
N10 N 0.66144(18) 0.2226(8) 0.0342(4)
O18 O 0.78546(14) 0.1407(6) 0.0444(3)
Cu1 Cu 0.24739(2) 0.13777(10) 0.58497(5)
C1 C 0.1330(2) 0.3237(11) 0.5659(5)
H1 H 0.1064 0.3649 0.5307
N1 N 0.19656(18) 0.2267(7) 0.6074(4)
O1 O 0.34033(17) 0.2500(8) 0.7178(3)
Cu2 Cu 0.33773(2) 0.22696(12) 0.59206(5)
O2 O 0.27761(16) 0.1575(7) 0.7173(3)
N2 N 0.16144(18) 0.2774(8) 0.5342(4)
C2 C 0.1875(2) 0.2449(9) 0.6804(5)
H2 H 0.2058 0.2211 0.7398
N3 N 0.1478(2) 0.3030(8) 0.6581(4)
N4 N 0.1255(3) 0.3292(12) 0.7171(5)
H3 H 0.1373 0.3071 0.7748
H4 H 0.1001 0.3671 0.6953
C4 C 0.3073(2) 0.1983(9) 0.9101(4)
H5 H 0.2820 0.1374 0.8832
O5 O 0.28546(14) 0.3593(6) 0.5444(3)
C5 C 0.3300(2) 0.2511(9) 0.8580(4)
O6 O 0.38940(16) 0.0861(9) 0.6377(4)
C7 C 0.3146(2) 0.2176(10) 0.7566(5)
O7 O 0.4222(3) 0.3454(11) 0.6718(6)
C8 C 0.3683(2) 0.3381(10) 0.8994(5)
H6 H 0.3838 0.3706 0.8641
C9 C 0.3834(2) 0.3769(10) 0.9918(5)
C10 C 0.4218(3) 0.1790(14) 0.6701(6)
C11 C 0.4622(2) 0.0751(12) 0.7105(6)
C13 C 0.5000 0.1664(17) 0.7500
H9 H 0.5000 0.2921 0.7500
O8 O 0.61060(16) 0.0861(9) 0.8623(4)
O9 O 0.5778(3) 0.3454(11) 0.8282(6)
C16 C 0.5782(3) 0.1790(14) 0.8299(6)
C17 C 0.5378(2) 0.0751(12) 0.7895(6)
Cu3 Cu 0.75261(2) 0.13777(10) 0.91503(5)
C19 C 0.8670(2) 0.3237(11) 0.9341(5)
H13 H 0.8936 0.3649 0.9693
N5 N 0.80344(18) 0.2267(7) 0.8926(4)
O10 O 0.65967(17) 0.2500(8) 0.7822(3)
Cu4 Cu 0.66227(2) 0.22696(12) 0.90794(5)
O11 O 0.72239(16) 0.1575(7) 0.7827(3)
N6 N 0.83856(18) 0.2774(8) 0.9658(4)
C20 C 0.8125(2) 0.2449(9) 0.8196(5)
H14 H 0.7942 0.2211 0.7602
O12 O 0.71138(18) 0.2895(6) 0.3904(3)
N7 N 0.8522(2) 0.3030(8) 0.8419(4)
C21 C 0.70201(19) 0.1798(9) 0.4377(4)
O13 O 0.71093(15) 0.0108(6) 0.4421(3)
N8 N 0.8745(3) 0.3292(12) 0.7829(5)
H15 H 0.8627 0.3071 0.7252
H16 H 0.8999 0.3671 0.8047
C22 C 0.6927(2) 0.1983(9) 0.5899(4)
H17 H 0.7180 0.1374 0.6168
O14 O 0.71454(14) 0.3593(6) 0.9556(3)
C23 C 0.6700(2) 0.2511(9) 0.6420(4)
C24 C 0.6776(2) 0.2370(8) 0.4966(4)
C25 C 0.6854(2) 0.2176(10) 0.7434(5)
C26 C 0.6317(2) 0.3381(10) 0.6006(5)
H18 H 0.6162 0.3706 0.6359
C27 C 0.6166(2) 0.3769(10) 0.5082(5)
H19 H 0.5908 0.4334 0.4810
C28 C 0.6401(2) 0.3309(9) 0.4565(5)
H20 H 0.6310 0.3625 0.3948
Cu7 Cu 0.25261(2) 0.36223(10) 0.41503(5)
Cu11 Cu 0.16227(2) 0.27304(12) 0.40794(5)
N9 N 0.33856(18) 0.2226(8) 0.4658(4)
O17 O 0.21454(14) 0.1407(6) 0.4556(3)
Cu6 Cu 0.24739(2) 0.86223(10) 0.08497(5)
Cu10 Cu 0.33773(2) 0.77304(12) 0.09206(5)
C12 C 0.4629(3) 0.8885(13) 0.7106(7)
H8 H 0.4381 0.8244 0.6838
C14 C 0.5000 0.797(2) 0.7500
H10 H 0.5000 0.6708 0.7500
C18 C 0.5371(3) 0.8885(13) 0.7894(7)
H12 H 0.5619 0.8244 0.8162
Cu5 Cu 0.75261(2) 0.86223(10) 0.41503(5)
Cu9 Cu 0.66227(2) 0.77304(12) 0.40794(5)
O15 O 0.71093(15) 0.9892(6) 0.9421(3)
O16 O 0.28907(15) 0.9892(6) 0.5579(3)
N10_2 N 0.16144(18) 0.7226(8) 0.0342(4)
O18_2 O 0.28546(14) 0.6407(6) 0.0444(3)
C13_2 C 0.0000 0.6664(17) 0.7500
H9_2 H 0.0000 0.7921 0.7500
C14_2 C 0.0000 0.297(2) 0.7500
H10_2 H 0.0000 0.1708 0.7500
O8_2 O 0.11060(16) 0.5861(9) 0.8623(4)
O9_2 O 0.0778(3) 0.8454(11) 0.8282(6)
C16_2 C 0.0782(3) 0.6790(14) 0.8299(6)
C17_2 C 0.0378(2) 0.5751(12) 0.7895(6)
C18_2 C 0.0371(3) 0.3885(13) 0.7894(7)
H12_2 H 0.0619 0.3244 0.8162
Cu3_2 Cu 0.25261(2) 0.63777(10) 0.91503(5)
C19_2 C 0.3670(2) 0.8237(11) 0.9341(5)
H13_2 H 0.3936 0.8649 0.9693
N5_2 N 0.30344(18) 0.7267(7) 0.8926(4)
O10_2 O 0.15967(17) 0.7500(8) 0.7822(3)
Cu4_2 Cu 0.16227(2) 0.72696(12) 0.90794(5)
O11_2 O 0.22239(16) 0.6575(7) 0.7827(3)
N6_2 N 0.33856(18) 0.7774(8) 0.9658(4)
C20_2 C 0.3125(2) 0.7449(9) 0.8196(5)
H14_2 H 0.2942 0.7211 0.7602
O12_2 O 0.21138(18) 0.7895(6) 0.3904(3)
N7_2 N 0.3522(2) 0.8030(8) 0.8419(4)
C21_2 C 0.20201(19) 0.6798(9) 0.4377(4)
O13_2 O 0.21093(15) 0.5108(6) 0.4421(3)
N8_2 N 0.3745(3) 0.8292(12) 0.7829(5)
H15_2 H 0.3627 0.8071 0.7252
H16_2 H 0.3999 0.8671 0.8047
C22_2 C 0.1927(2) 0.6983(9) 0.5899(4)
H17_2 H 0.2180 0.6374 0.6168
O14_2 O 0.21454(14) 0.8593(6) 0.9556(3)
C23_2 C 0.1700(2) 0.7511(9) 0.6420(4)
C24_2 C 0.1776(2) 0.7370(8) 0.4966(4)
C25_2 C 0.1854(2) 0.7176(10) 0.7434(5)
C26_2 C 0.1317(2) 0.8381(10) 0.6006(5)
H18_2 H 0.1162 0.8706 0.6359
C27_2 C 0.1166(2) 0.8769(10) 0.5082(5)
H19_2 H 0.0908 0.9334 0.4810
C28_2 C 0.1401(2) 0.8309(9) 0.4565(5)
H20_2 H 0.1310 0.8625 0.3948
O15_2 O 0.21093(15) 0.4892(6) 0.9421(3)
O3_2 O 0.78862(18) 0.7895(6) 0.1096(3)
C3_2 C 0.79799(19) 0.6798(9) 0.0623(4)
O4_2 O 0.78907(15) 0.5108(6) 0.0579(3)
C6_2 C 0.8224(2) 0.7370(8) 0.0034(4)
H7_2 H 0.9092 0.9334 0.0190
C15_2 C 0.8599(2) 0.8309(9) 0.0435(5)
H11_2 H 0.8690 0.8625 0.1052
Cu1_2 Cu 0.74739(2) 0.63777(10) 0.58497(5)
C1_2 C 0.6330(2) 0.8237(11) 0.5659(5)
H1_2 H 0.6064 0.8649 0.5307
N1_2 N 0.69656(18) 0.7267(7) 0.6074(4)
O1_2 O 0.84033(17) 0.7500(8) 0.7178(3)
Cu2_2 Cu 0.83773(2) 0.72696(12) 0.59206(5)
O2_2 O 0.77761(16) 0.6575(7) 0.7173(3)
N2_2 N 0.66144(18) 0.7774(8) 0.5342(4)
C2_2 C 0.6875(2) 0.7449(9) 0.6804(5)
H2_2 H 0.7058 0.7211 0.7398
N3_2 N 0.6478(2) 0.8030(8) 0.6581(4)
N4_2 N 0.6255(3) 0.8292(12) 0.7171(5)
H3_2 H 0.6373 0.8071 0.7748
H4_2 H 0.6001 0.8671 0.6953
C4_2 C 0.8073(2) 0.6983(9) 0.9101(4)
H5_2 H 0.7820 0.6374 0.8832
O5_2 O 0.78546(14) 0.8593(6) 0.5444(3)
C5_2 C 0.8300(2) 0.7511(9) 0.8580(4)
O6_2 O 0.88940(16) 0.5861(9) 0.6377(4)
C7_2 C 0.8146(2) 0.7176(10) 0.7566(5)
O7_2 O 0.9222(3) 0.8454(11) 0.6718(6)
C8_2 C 0.8683(2) 0.8381(10) 0.8994(5)
H6_2 H 0.8838 0.8706 0.8641
C9_2 C 0.8834(2) 0.8769(10) 0.9918(5)
C10_2 C 0.9218(3) 0.6790(14) 0.6701(6)
C11_2 C 0.9622(2) 0.5751(12) 0.7105(6)
C12_2 C 0.9629(3) 0.3885(13) 0.7106(7)
H8_2 H 0.9381 0.3244 0.6838
C13_3 C 1.0000 0.6664(17) 0.7500
H9_3 H 1.0000 0.7921 0.7500
C14_3 C 1.0000 0.297(2) 0.7500
H10_3 H 1.0000 0.1708 0.7500
N9_2 N 0.83856(18) 0.7226(8) 0.4658(4)
O16_2 O 0.78907(15) 0.4892(6) 0.5579(3)
O17_2 O 0.71454(14) 0.6407(6) 0.4556(3)
C12_3 C 0.5371(3) 0.1115(13) 0.2894(7)
H8_3 H 0.5619 0.1756 0.3162
C14_4 C 0.5000 0.203(2) 0.2500
H10_4 H 0.5000 0.3292 0.2500
C18_3 C 0.4629(3) 0.1115(13) 0.2106(7)
H12_3 H 0.4381 0.1756 0.1838
C1_3 C 0.8670(2) 0.6763(11) 0.4341(5)
H1_3 H 0.8936 0.6351 0.4693
N1_3 N 0.80344(18) 0.7733(7) 0.3926(4)
O1_3 O 0.65967(17) 0.7500(8) 0.2822(3)
O2_3 O 0.72239(16) 0.8425(7) 0.2827(3)
C2_3 C 0.8125(2) 0.7551(9) 0.3196(5)
H2_3 H 0.7942 0.7789 0.2602
N3_3 N 0.8522(2) 0.6970(8) 0.3419(4)
N4_3 N 0.8745(3) 0.6708(12) 0.2829(5)
H3_3 H 0.8627 0.6929 0.2252
H4_3 H 0.8999 0.6329 0.3047
C4_3 C 0.6927(2) 0.8017(9) 0.0899(4)
H5_3 H 0.7180 0.8626 0.1168
C5_3 C 0.6700(2) 0.7489(9) 0.1420(4)
O6_3 O 0.61060(16) 0.9139(9) 0.3623(4)
C7_3 C 0.6854(2) 0.7824(10) 0.2434(5)
O7_3 O 0.5778(3) 0.6546(11) 0.3282(6)
C8_3 C 0.6317(2) 0.6619(10) 0.1006(5)
H6_3 H 0.6162 0.6294 0.1359
C9_3 C 0.6166(2) 0.6231(10) 0.0082(5)
C10_3 C 0.5782(3) 0.8210(14) 0.3299(6)
C11_3 C 0.5378(2) 0.9249(12) 0.2895(6)
C13_4 C 0.5000 0.8336(17) 0.2500
H9_4 H 0.5000 0.7079 0.2500
O8_3 O 0.38940(16) 0.9139(9) 0.1377(4)
O9_3 O 0.4222(3) 0.6546(11) 0.1718(6)
C16_3 C 0.4218(3) 0.8210(14) 0.1701(6)
C17_3 C 0.4622(2) 0.9249(12) 0.2105(6)
C19_3 C 0.1330(2) 0.6763(11) 0.0659(5)
H13_3 H 0.1064 0.6351 0.0307
N5_3 N 0.19656(18) 0.7733(7) 0.1074(4)
O10_3 O 0.34033(17) 0.7500(8) 0.2178(3)
O11_3 O 0.27761(16) 0.8425(7) 0.2173(3)
C20_3 C 0.1875(2) 0.7551(9) 0.1804(5)
H14_3 H 0.2058 0.7789 0.2398
O12_3 O 0.28862(18) 0.7105(6) 0.6096(3)
N7_3 N 0.1478(2) 0.6970(8) 0.1581(4)
C21_3 C 0.29799(19) 0.8202(9) 0.5623(4)
N8_3 N 0.1255(3) 0.6708(12) 0.2171(5)
H15_3 H 0.1373 0.6929 0.2748
H16_3 H 0.1001 0.6329 0.1953
C22_3 C 0.3073(2) 0.8017(9) 0.4101(4)
H17_3 H 0.2820 0.8626 0.3832
C23_3 C 0.3300(2) 0.7489(9) 0.3580(4)
C24_3 C 0.3224(2) 0.7630(8) 0.5034(4)
C25_3 C 0.3146(2) 0.7824(10) 0.2566(5)
C26_3 C 0.3683(2) 0.6619(10) 0.3994(5)
H18_3 H 0.3838 0.6294 0.3641
C27_3 C 0.3834(2) 0.6231(10) 0.4918(5)
H19_3 H 0.4092 0.5666 0.5190
C28_3 C 0.3599(2) 0.6691(9) 0.5435(5)
H20_3 H 0.3690 0.6375 0.6052
O3_3 O 0.71138(18) 0.7105(6) 0.8904(3)
C3_3 C 0.70201(19) 0.8202(9) 0.9377(4)
C6_3 C 0.6776(2) 0.7630(8) 0.9966(4)
H7_3 H 0.5908 0.5666 0.9810
C15_3 C 0.6401(2) 0.6691(9) 0.9565(5)
H11_3 H 0.6310 0.6375 0.8948
C1_4 C 0.3670(2) 0.1763(11) 0.4341(5)
H1_4 H 0.3936 0.1351 0.4693
N1_4 N 0.30344(18) 0.2733(7) 0.3926(4)
O1_4 O 0.15967(17) 0.2500(8) 0.2822(3)
O2_4 O 0.22239(16) 0.3425(7) 0.2827(3)
C2_4 C 0.3125(2) 0.2551(9) 0.3196(5)
H2_4 H 0.2942 0.2789 0.2602
N3_4 N 0.3522(2) 0.1970(8) 0.3419(4)
N4_4 N 0.3745(3) 0.1708(12) 0.2829(5)
H3_4 H 0.3627 0.1929 0.2252
H4_4 H 0.3999 0.1329 0.3047
C4_4 C 0.1927(2) 0.3017(9) 0.0899(4)
H5_4 H 0.2180 0.3626 0.1168
C5_4 C 0.1700(2) 0.2489(9) 0.1420(4)
O6_4 O 0.11060(16) 0.4139(9) 0.3623(4)
C7_4 C 0.1854(2) 0.2824(10) 0.2434(5)
O7_4 O 0.0778(3) 0.1546(11) 0.3282(6)
C8_4 C 0.1317(2) 0.1619(10) 0.1006(5)
H6_4 H 0.1162 0.1294 0.1359
C9_4 C 0.1166(2) 0.1231(10) 0.0082(5)
C10_4 C 0.0782(3) 0.3210(14) 0.3299(6)
C11_4 C 0.0378(2) 0.4249(12) 0.2895(6)
C12_4 C 0.0371(3) 0.6115(13) 0.2894(7)
H8_4 H 0.0619 0.6756 0.3162
C13_5 C -0.0000 0.3336(17) 0.2500
H9_5 H -0.0000 0.2079 0.2500
C14_5 C -0.0000 0.703(2) 0.2500
H10_5 H -0.0000 0.8292 0.2500
O3_4 O 0.21138(18) 0.2105(6) 0.8904(3)
C3_4 C 0.20201(19) 0.3202(9) 0.9377(4)
C6_4 C 0.1776(2) 0.2630(8) 0.9966(4)
H7_4 H 0.0908 0.0666 0.9810
C15_4 C 0.1401(2) 0.1691(9) 0.9565(5)
H11_4 H 0.1310 0.1375 0.8948
C13_6 C 1.0000 0.3336(17) 0.2500
H9_6 H 1.0000 0.2079 0.2500
C14_6 C 1.0000 0.703(2) 0.2500
H10_6 H 1.0000 0.8292 0.2500
O8_4 O 0.88940(16) 0.4139(9) 0.1377(4)
O9_4 O 0.9222(3) 0.1546(11) 0.1718(6)
C16_4 C 0.9218(3) 0.3210(14) 0.1701(6)
C17_4 C 0.9622(2) 0.4249(12) 0.2105(6)
C18_4 C 0.9629(3) 0.6115(13) 0.2106(7)
H12_4 H 0.9381 0.6756 0.1838
C19_4 C 0.6330(2) 0.1763(11) 0.0659(5)
H13_4 H 0.6064 0.1351 0.0307
N5_4 N 0.69656(18) 0.2733(7) 0.1074(4)
O10_4 O 0.84033(17) 0.2500(8) 0.2178(3)
O11_4 O 0.77761(16) 0.3425(7) 0.2173(3)
C20_4 C 0.6875(2) 0.2551(9) 0.1804(5)
H14_4 H 0.7058 0.2789 0.2398
O12_4 O 0.78862(18) 0.2105(6) 0.6096(3)
N7_4 N 0.6478(2) 0.1970(8) 0.1581(4)
C21_4 C 0.79799(19) 0.3202(9) 0.5623(4)
N8_4 N 0.6255(3) 0.1708(12) 0.2171(5)
H15_4 H 0.6373 0.1929 0.2748
H16_4 H 0.6001 0.1329 0.1953
C22_4 C 0.8073(2) 0.3017(9) 0.4101(4)
H17_4 H 0.7820 0.3626 0.3832
C23_4 C 0.8300(2) 0.2489(9) 0.3580(4)
C24_4 C 0.8224(2) 0.2630(8) 0.5034(4)
C25_4 C 0.8146(2) 0.2824(10) 0.2566(5)
C26_4 C 0.8683(2) 0.1619(10) 0.3994(5)
H18_4 H 0.8838 0.1294 0.3641
C27_4 C 0.8834(2) 0.1231(10) 0.4918(5)
H19_4 H 0.9092 0.0666 0.5190
C28_4 C 0.8599(2) 0.1691(9) 0.5435(5)
H20_4 H 0.8690 0.1375 0.6052
loop_
_geom_bond_atom_site_label_1
_geom_bond_atom_site_label_2
_geom_bond_site_symmetry_1
_geom_bond_site_symmetry_2
O3 C3 1_555 1_555
C3 O4 1_555 1_555
C6 C3 1_555 1_555
C15 C6 1_555 1_555
H11 C15 1_555 1_555
Cu8 O18 1_555 1_555
Cu12 O18 1_555 1_555
Cu1 N1 1_555 1_555
C1 H1 1_555 1_555
N1 N2 1_555 1_555
O1 Cu2 1_555 1_555
Cu2 O5 1_555 1_555
O2 Cu1 1_555 1_555
N2 C1 1_555 1_555
C2 N1 1_555 1_555
H2 C2 1_555 1_555
N3 C1 1_555 1_555
N4 N3 1_555 1_555
H3 N4 1_555 1_555
H4 N4 1_555 1_555
C4 H5 1_555 1_555
O5 Cu1 1_555 1_555
C5 C4 1_555 1_555
O6 Cu2 1_555 1_555
C7 O1 1_555 1_555
O7 C10 1_555 1_555
C8 C5 1_555 1_555
H6 C8 1_555 1_555
C9 C8 1_555 1_555
C10 O6 1_555 1_555
C11 C10 1_555 1_555
C13 C11 1_555 1_555
H9 C13 1_555 1_555
O8 C16 1_555 1_555
O9 C16 1_555 1_555
C16 C17 1_555 1_555
C17 C13 1_555 1_555
Cu3 N5 1_555 1_555
C19 H13 1_555 1_555
N5 N6 1_555 1_555
O10 Cu4 1_555 1_555
Cu4 O8 1_555 1_555
O11 Cu3 1_555 1_555
N6 C19 1_555 1_555
C20 N5 1_555 1_555
H14 C20 1_555 1_555
O12 C21 1_555 1_555
N7 C19 1_555 1_555
C21 O13 1_555 1_555
N8 N7 1_555 1_555
H15 N8 1_555 1_555
H16 N8 1_555 1_555
C22 H17 1_555 1_555
O14 Cu3 1_555 1_555
C23 C22 1_555 1_555
C24 C21 1_555 1_555
C25 O10 1_555 1_555
C26 C23 1_555 1_555
H18 C26 1_555 1_555
C27 C26 1_555 1_555
H19 C27 1_555 1_555
C28 C24 1_555 1_555
H20 C28 1_555 1_555
Cu7 O5 1_555 1_555
Cu11 N2 1_555 1_555
N9 Cu2 1_555 1_555
O17 Cu1 1_555 1_555
O2 C7 1_555 1_555
C2 N3 1_555 1_555
C5 C7 1_555 1_555
Cu4 O14 1_555 1_555
O11 C25 1_555 1_555
C20 N7 1_555 1_555
C22 C24 1_555 1_555
C23 C25 1_555 1_555
C27 C28 1_555 1_555
Cu7 O17 1_555 1_555
Cu11 O17 1_555 1_555
H8 C12 1_555 1_555
C14 C12 1_555 1_555
H10 C14 1_555 1_555
C18 C14 1_555 1_555
H12 C18 1_555 1_555
Cu6 O18_2 1_555 1_555
Cu10 O18_2 1_555 1_555
H9_2 C13_2 1_555 1_555
H10_2 C14_2 1_555 1_555
O8_2 C16_2 1_555 1_555
O9_2 C16_2 1_555 1_555
C16_2 C17_2 1_555 1_555
C17_2 C13_2 1_555 1_555
C18_2 C14_2 1_555 1_555
H12_2 C18_2 1_555 1_555
Cu3_2 N5_2 1_555 1_555
C19_2 H13_2 1_555 1_555
N5_2 N6_2 1_555 1_555
O10_2 Cu4_2 1_555 1_555
Cu4_2 O8_2 1_555 1_555
O11_2 Cu3_2 1_555 1_555
N6_2 C19_2 1_555 1_555
C20_2 N5_2 1_555 1_555
H14_2 C20_2 1_555 1_555
O12_2 C21_2 1_555 1_555
N7_2 C19_2 1_555 1_555
C21_2 O13_2 1_555 1_555
O13_2 Cu7 1_555 1_555
N8_2 N7_2 1_555 1_555
H15_2 N8_2 1_555 1_555
H16_2 N8_2 1_555 1_555
C22_2 H17_2 1_555 1_555
O14_2 Cu3_2 1_555 1_555
C23_2 C22_2 1_555 1_555
C24_2 C21_2 1_555 1_555
C25_2 O10_2 1_555 1_555
C26_2 C23_2 1_555 1_555
H18_2 C26_2 1_555 1_555
C27_2 C26_2 1_555 1_555
H19_2 C27_2 1_555 1_555
C28_2 C24_2 1_555 1_555
H20_2 C28_2 1_555 1_555
Cu11 O13_2 1_555 1_555
O15_2 Cu3_2 1_555 1_555
C17_2 C18_2 1_555 1_555
Cu4_2 O14_2 1_555 1_555
Cu4_2 O15_2 1_555 1_555
O11_2 C25_2 1_555 1_555
C20_2 N7_2 1_555 1_555
C22_2 C24_2 1_555 1_555
C23_2 C25_2 1_555 1_555
C27_2 C28_2 1_555 1_555
O3_2 C3_2 1_555 1_555
C3_2 O4_2 1_555 1_555
O4_2 Cu8 1_555 1_555
C6_2 C3_2 1_555 1_555
C15_2 C6_2 1_555 1_555
H11_2 C15_2 1_555 1_555
Cu12 O4_2 1_555 1_555
Cu1_2 N1_2 1_555 1_555
C1_2 H1_2 1_555 1_555
N1_2 N2_2 1_555 1_555
O1_2 Cu2_2 1_555 1_555
Cu2_2 O5_2 1_555 1_555
O2_2 Cu1_2 1_555 1_555
N2_2 C1_2 1_555 1_555
C2_2 N1_2 1_555 1_555
H2_2 C2_2 1_555 1_555
N3_2 C1_2 1_555 1_555
N4_2 N3_2 1_555 1_555
H3_2 N4_2 1_555 1_555
H4_2 N4_2 1_555 1_555
C4_2 H5_2 1_555 1_555
O5_2 Cu1_2 1_555 1_555
C5_2 C4_2 1_555 1_555
O6_2 Cu2_2 1_555 1_555
C7_2 O1_2 1_555 1_555
O7_2 C10_2 1_555 1_555
C8_2 C5_2 1_555 1_555
H6_2 C8_2 1_555 1_555
C9_2 C8_2 1_555 1_555
C10_2 O6_2 1_555 1_555
C11_2 C10_2 1_555 1_555
C12_2 C11_2 1_555 1_555
H8_2 C12_2 1_555 1_555
C13_3 C11_2 1_555 1_555
H9_3 C13_3 1_555 1_555
C14_3 C12_2 1_555 1_555
H10_3 C14_3 1_555 1_555
Cu5 O5_2 1_555 1_555
Cu9 N2_2 1_555 1_555
N9_2 Cu2_2 1_555 1_555
O16_2 Cu1_2 1_555 1_555
O17_2 Cu1_2 1_555 1_555
Cu2_2 O16_2 1_555 1_555
O2_2 C7_2 1_555 1_555
C2_2 N3_2 1_555 1_555
C5_2 C7_2 1_555 1_555
Cu5 O17_2 1_555 1_555
Cu9 O17_2 1_555 1_555
H8_3 C12_3 1_555 1_555
C14_4 C12_3 1_555 1_555
H10_4 C14_4 1_555 1_555
C18_3 C14_4 1_555 1_555
H12_3 C18_3 1_555 1_555
Cu5 N1_3 1_555 1_555
C1_3 H1_3 1_555 1_555
N1_3 N9_2 1_555 1_555
O1_3 Cu9 1_555 1_555
O2_3 Cu5 1_555 1_555
N9_2 C1_3 1_555 1_555
C2_3 N1_3 1_555 1_555
H2_3 C2_3 1_555 1_555
N3_3 C1_3 1_555 1_555
N4_3 N3_3 1_555 1_555
H3_3 N4_3 1_555 1_555
H4_3 N4_3 1_555 1_555
C4_3 H5_3 1_555 1_555
C5_3 C4_3 1_555 1_555
O6_3 Cu9 1_555 1_555
C7_3 O1_3 1_555 1_555
O7_3 C10_3 1_555 1_555
C8_3 C5_3 1_555 1_555
H6_3 C8_3 1_555 1_555
C9_3 C8_3 1_555 1_555
C10_3 O6_3 1_555 1_555
C11_3 C10_3 1_555 1_555
C13_4 C11_3 1_555 1_555
H9_4 C13_4 1_555 1_555
O8_3 C16_3 1_555 1_555
O9_3 C16_3 1_555 1_555
C16_3 C17_3 1_555 1_555
C17_3 C13_4 1_555 1_555
Cu6 N5_3 1_555 1_555
C19_3 H13_3 1_555 1_555
N5_3 N10_2 1_555 1_555
O10_3 Cu10 1_555 1_555
Cu10 O8_3 1_555 1_555
O11_3 Cu6 1_555 1_555
N10_2 C19_3 1_555 1_555
C20_3 N5_3 1_555 1_555
H14_3 C20_3 1_555 1_555
O12_3 C21_3 1_555 1_555
N7_3 C19_3 1_555 1_555
C21_3 O16 1_555 1_555
N8_3 N7_3 1_555 1_555
H15_3 N8_3 1_555 1_555
H16_3 N8_3 1_555 1_555
C22_3 H17_3 1_555 1_555
C23_3 C22_3 1_555 1_555
C24_3 C21_3 1_555 1_555
C25_3 O10_3 1_555 1_555
C26_3 C23_3 1_555 1_555
H18_3 C26_3 1_555 1_555
C27_3 C26_3 1_555 1_555
H19_3 C27_3 1_555 1_555
C28_3 C24_3 1_555 1_555
H20_3 C28_3 1_555 1_555
O2_3 C7_3 1_555 1_555
C2_3 N3_3 1_555 1_555
C5_3 C7_3 1_555 1_555
O11_3 C25_3 1_555 1_555
C20_3 N7_3 1_555 1_555
C22_3 C24_3 1_555 1_555
C23_3 C25_3 1_555 1_555
C27_3 C28_3 1_555 1_555
O3_3 C3_3 1_555 1_555
C3_3 O15 1_555 1_555
C6_3 C3_3 1_555 1_555
C15_3 C6_3 1_555 1_555
H11_3 C15_3 1_555 1_555
Cu7 N1_4 1_555 1_555
C1_4 H1_4 1_555 1_555
N1_4 N9 1_555 1_555
O1_4 Cu11 1_555 1_555
O2_4 Cu7 1_555 1_555
N9 C1_4 1_555 1_555
C2_4 N1_4 1_555 1_555
H2_4 C2_4 1_555 1_555
N3_4 C1_4 1_555 1_555
N4_4 N3_4 1_555 1_555
H3_4 N4_4 1_555 1_555
H4_4 N4_4 1_555 1_555
C4_4 H5_4 1_555 1_555
C5_4 C4_4 1_555 1_555
O6_4 Cu11 1_555 1_555
C7_4 O1_4 1_555 1_555
O7_4 C10_4 1_555 1_555
C8_4 C5_4 1_555 1_555
H6_4 C8_4 1_555 1_555
C9_4 C8_4 1_555 1_555
C10_4 O6_4 1_555 1_555
C11_4 C10_4 1_555 1_555
C12_4 C11_4 1_555 1_555
H8_4 C12_4 1_555 1_555
C13_5 C11_4 1_555 1_555
H9_5 C13_5 1_555 1_555
C14_5 C12_4 1_555 1_555
H10_5 C14_5 1_555 1_555
O2_4 C7_4 1_555 1_555
C2_4 N3_4 1_555 1_555
C5_4 C7_4 1_555 1_555
O3_4 C3_4 1_555 1_555
C3_4 O15_2 1_555 1_555
C6_4 C3_4 1_555 1_555
C15_4 C6_4 1_555 1_555
H11_4 C15_4 1_555 1_555
H9_6 C13_6 1_555 1_555
H10_6 C14_6 1_555 1_555
O8_4 C16_4 1_555 1_555
O9_4 C16_4 1_555 1_555
C16_4 C17_4 1_555 1_555
C17_4 C13_6 1_555 1_555
C18_4 C14_6 1_555 1_555
H12_4 C18_4 1_555 1_555
Cu8 N5_4 1_555 1_555
C19_4 H13_4 1_555 1_555
N5_4 N10 1_555 1_555
O10_4 Cu12 1_555 1_555
Cu12 O8_4 1_555 1_555
O11_4 Cu8 1_555 1_555
N10 C19_4 1_555 1_555
C20_4 N5_4 1_555 1_555
H14_4 C20_4 1_555 1_555
O12_4 C21_4 1_555 1_555
N7_4 C19_4 1_555 1_555
C21_4 O16_2 1_555 1_555
N8_4 N7_4 1_555 1_555
H15_4 N8_4 1_555 1_555
H16_4 N8_4 1_555 1_555
C22_4 H17_4 1_555 1_555
C23_4 C22_4 1_555 1_555
C24_4 C21_4 1_555 1_555
C25_4 O10_4 1_555 1_555
C26_4 C23_4 1_555 1_555
H18_4 C26_4 1_555 1_555
C27_4 C26_4 1_555 1_555
H19_4 C27_4 1_555 1_555
C28_4 C24_4 1_555 1_555
H20_4 C28_4 1_555 1_555
C17_4 C18_4 1_555 1_555
O11_4 C25_4 1_555 1_555
C20_4 N7_4 1_555 1_555
C22_4 C24_4 1_555 1_555
C23_4 C25_4 1_555 1_555
C27_4 C28_4 1_555 1_555

#END
