
###############################################################################
#
# This file contains modified crystal structure data generated from the
# MOF subset of the Cambridge Structural Database (CSD) v543 
# hosted by the Cambridge Crystallographic Data Centre (CCDC).
#
# This work is licensed under the Creative Commons
# Attribution-NonCommercial-ShareAlike 4.0 International License.
# To view a copy of this license, visit
# http://creativecommons.org/licenses/by-nc-sa/4.0/
# or send a letter to
# Creative Commons, PO Box 1866, Mountain View, CA 94042, USA.
#
# CIF created using the CSD Python API on 29 September 2022
# The structure has been converted into the P1 space group
# The structure has a 3D framework
# The original CSD entry GEXPAD is in the monoclinic crystal system
# The framework has been calculated to contain at least 10.0% void space
# The void calculation uses a probe of radius 1.32A, grid spacing 0.4
#
###############################################################################

data_GEXPAD
_chemical_formula_moiety         '(C240 H168 Cd14 N24 O67 S12)n'
_symmetry_cell_setting           triclinic
_symmetry_space_group_name_H-M   'P 1'
_symmetry_Int_Tables_number      1
_space_group_name_Hall           'P 1'
loop_
_symmetry_equiv_pos_site_id
_symmetry_equiv_pos_as_xyz
1 x,y,z
_cell_length_a                   12.161(2)
_cell_length_b                   23.730(4)
_cell_length_c                   25.540(4)
_cell_angle_alpha                90
_cell_angle_beta                 91.723(3)
_cell_angle_gamma                90
_cell_volume                     7367.01
loop_
_atom_site_label
_atom_site_type_symbol
_atom_site_fract_x
_atom_site_fract_y
_atom_site_fract_z
Cd13 Cd 0.000000 0.500000 0.000000
Cd1 Cd 0.20920(5) 0.03499(3) 0.40728(3)
Cd2 Cd 0.000000 0.000000 0.500000
N3 N 0.4542(7) 0.6493(4) 0.3150(4)
N4 N 0.4964(7) 0.4932(4) 0.1803(4)
N5 N 0.5922(7) 0.6136(4) 0.3588(3)
N6 N 0.6554(6) 0.5129(3) 0.1468(3)
O7 O 0.0809(5) 0.0771(3) 0.4619(3)
O8 O 0.2401(6) 0.1204(3) 0.4598(3)
O10 O 0.0854(6) 0.3169(3) 0.6541(3)
C15 C 0.1455(8) 0.1166(4) 0.4769(4)
C16 C 0.1070(8) 0.1591(4) 0.5146(4)
C17 C 0.1800(7) 0.1990(4) 0.5366(4)
H9 H 0.255145 0.198195 0.527427
C18 C 0.1460(9) 0.2385(4) 0.5706(5)
H10 H 0.195915 0.265961 0.584137
C19 C 0.0368(8) 0.2384(4) 0.5854(4)
H13 H 0.056510 0.383296 0.569279
C46 C 0.0948(10) 0.4826(5) 0.3192(5)
H28 H 0.080636 0.445835 0.302012
H29 H 0.124977 0.475070 0.354904
C47 C 0.1806(10) 0.5140(5) 0.2887(5)
C48 C 0.2354(10) 0.4878(7) 0.2477(5)
H30 H 0.214712 0.450827 0.237120
C49 C 0.3219(9) 0.5162(6) 0.2217(5)
C50 C 0.3511(9) 0.5695(5) 0.2355(4)
H31 H 0.410908 0.586833 0.218691
C51 C 0.2966(8) 0.5993(5) 0.2734(5)
C52 C 0.2114(9) 0.5713(5) 0.3007(6)
H32 H 0.174254 0.590940 0.327383
C53 C 0.3794(8) 0.4806(5) 0.1837(5)
H33 H 0.370841 0.440548 0.193714
H34 H 0.343875 0.485606 0.148603
C54 C 0.5735(9) 0.4960(5) 0.2209(4)
H35 H 0.560662 0.490487 0.257060
C55 C 0.6678(9) 0.5077(5) 0.2001(4)
H36 H 0.735467 0.512004 0.219225
C56 C 0.5499(8) 0.5040(4) 0.1359(4)
H37 H 0.516603 0.505102 0.101770
C57 C 0.3413(8) 0.6548(5) 0.2917(5)
H38 H 0.342602 0.681283 0.261779
H39 H 0.292232 0.670812 0.318168
C58 C 0.6312(9) 0.6557(4) 0.3290(4)
H40 H 0.705711 0.667630 0.328143
C59 C 0.5444(9) 0.6784(4) 0.3000(4)
H41 H 0.547096 0.707971 0.275018
C60 C 0.4860(8) 0.6109(5) 0.3496(4)
H42 H 0.438289 0.584749 0.365578
O35 O 0.1015(6) 0.5321(4) 0.8731(3)
C100 C 0.0080(8) 0.6085(5) 0.8013(4)
H65 H 0.079428 0.594813 0.794336
C102 C 0.0053(8) 0.5480(5) 0.8836(4)
Cd8 Cd 0.79080(5) 0.53499(3) 0.09272(3)
Cd10 Cd 0.20920(5) 0.46501(3) 0.90728(3)
Cd13_2 Cd 0.000000 0.500000 1.000000
Cd15 Cd 0.69272(6) 0.54659(3) 0.40666(3)
N15 N 0.3446(6) 0.0129(3) 0.3532(3)
O46 O 0.0481(5) 0.0321(3) 0.5790(3)
Cd2_2 Cd 0.000000 1.000000 0.500000
S1 S 0.5237(2) 0.80109(11) 0.63983(11)
O1 O 0.1576(5) 0.9511(3) 0.4988(3)
O2 O 0.3105(6) 0.9942(3) 0.4743(3)
O3 O 0.4499(6) 0.7767(3) 0.6770(3)
O4 O 0.6202(6) 0.8301(3) 0.6579(3)
O5 O 0.5963(6) 0.5797(3) 0.4788(3)
O6 O 0.7465(5) 0.6277(3) 0.4649(3)
C1 C 0.2580(8) 0.9584(4) 0.5005(4)
C2 C 0.3263(7) 0.9201(4) 0.5360(4)
C3 C 0.2710(8) 0.8862(5) 0.5718(4)
H1 H 0.193314 0.888067 0.574210
C4 C 0.3326(8) 0.8498(5) 0.6034(5)
H2 H 0.296960 0.826422 0.627878
C5 C 0.4443(9) 0.8475(4) 0.5995(4)
C6 C 0.4999(8) 0.8801(4) 0.5638(4)
H3 H 0.577399 0.877203 0.561153
C7 C 0.4398(8) 0.9173(4) 0.5319(4)
H4 H 0.476128 0.940519 0.507547
C8 C 0.5642(8) 0.7474(4) 0.5964(4)
C9 C 0.4878(8) 0.7075(4) 0.5801(4)
H5 H 0.415322 0.707809 0.592942
C10 C 0.5192(8) 0.6673(4) 0.5447(4)
H6 H 0.466370 0.640538 0.532343
C11 C 0.6261(8) 0.6645(4) 0.5264(4)
C12 C 0.7013(8) 0.7054(4) 0.5427(4)
H7 H 0.773479 0.705237 0.529504
C13 C 0.6712(8) 0.7463(4) 0.5781(4)
H8 H 0.723308 0.773673 0.589962
C14 C 0.6597(8) 0.6210(4) 0.4887(4)
Cd19 Cd 0.500000 0.500000 0.500000
O43 O 0.1015(6) 0.9679(4) 0.3731(3)
Cd13_3 Cd 1.000000 0.500000 0.000000
Cd2_3 Cd 1.000000 0.000000 0.500000
S2 S 0.9902(2) 0.28943(11) 0.63059(11)
S3 S 0.2174(2) 0.29270(12) 0.26926(13)
N1 N 0.8381(6) 0.5397(4) 0.3545(4)
N2 N 0.9950(7) 0.5112(4) 0.3231(4)
O9 O 0.9102(6) 0.2647(3) 0.6632(3)
O11 O 0.6447(5) 0.4465(3) 0.4848(3)
O12 O 0.7969(6) 0.4934(3) 0.4673(3)
O13 O 0.4578(6) 0.4953(3) 0.4146(3)
O14 O 0.5990(6) 0.4757(3) 0.3629(3)
O15 O 0.1389(7) 0.2730(3) 0.3065(3)
O16 O 0.2845(7) 0.2535(3) 0.2429(3)
O18 O 0.0481(5) 0.4679(3) 0.0790(3)
C20 C 0.9618(8) 0.1989(4) 0.5657(5)
H11 H 0.887813 0.198897 0.576565
C21 C 0.9970(8) 0.1596(4) 0.5301(4)
H12 H 0.946593 0.132653 0.515868
C22 C 0.9212(8) 0.3390(4) 0.5880(4)
C23 C 0.9791(9) 0.3803(4) 0.5641(5)
C24 C 0.9214(8) 0.4178(4) 0.5318(5)
H14 H 0.960185 0.446414 0.513976
C25 C 0.8090(8) 0.4143(4) 0.5253(4)
C26 C 0.7523(8) 0.3725(4) 0.5498(4)
H15 H 0.674744 0.369749 0.544704
C27 C 0.8081(9) 0.3339(4) 0.5821(4)
H16 H 0.769625 0.305040 0.599645
C28 C 0.7462(8) 0.4549(4) 0.4899(4)
C29 C 0.5013(8) 0.4691(5) 0.3785(5)
C30 C 0.4336(8) 0.4235(5) 0.3499(4)
C31 C 0.4752(8) 0.3905(4) 0.3113(4)
H17 H 0.549222 0.395588 0.301435
C32 C 0.4119(8) 0.3504(4) 0.2869(4)
H18 H 0.440734 0.327713 0.259892
C33 C 0.3060(9) 0.3436(4) 0.3021(4)
C34 C 0.2616(9) 0.3738(5) 0.3418(4)
H19 H 0.188915 0.367075 0.352919
C35 C 0.3281(9) 0.4146(5) 0.3652(5)
H20 H 0.299638 0.437082 0.392422
C36 C 0.1480(9) 0.3358(4) 0.2228(4)
C37 C 0.1993(9) 0.3515(4) 0.1782(4)
H21 H 0.269449 0.336332 0.170976
C38 C 0.1503(9) 0.3893(4) 0.1437(4)
H22 H 0.187621 0.401118 0.113449
C39 C 0.0457(9) 0.4098(5) 0.1536(5)
C41 C 0.0424(9) 0.3538(4) 0.2326(4)
H24 H 0.005342 0.340437 0.262393
C43 C 0.8464(10) 0.5580(5) 0.3044(5)
H25 H 0.792635 0.580130 0.286103
C44 C 0.9430(9) 0.5402(5) 0.2839(5)
H26 H 0.968240 0.546774 0.249584
C45 C 0.9307(8) 0.5125(5) 0.3640(5)
H27 H 0.949523 0.495637 0.396836
Cd6 Cd 0.30728(6) 0.45341(3) 0.59334(3)
S5 S 0.0098(2) 0.71057(11) 0.36941(11)
S6 S 0.7826(2) 0.70730(12) 0.73074(13)
N7 N 0.1619(6) 0.4603(4) 0.6455(4)
N8 N 0.0050(7) 0.4888(4) 0.6769(4)
O27 O 0.0898(6) 0.7353(3) 0.3368(3)
O29 O 0.3553(5) 0.5535(3) 0.5152(3)
O30 O 0.2031(6) 0.5066(3) 0.5327(3)
O31 O 0.5422(6) 0.5047(3) 0.5854(3)
O32 O 0.4010(6) 0.5243(3) 0.6371(3)
O33 O 0.8611(7) 0.7270(3) 0.6935(3)
O34 O 0.7155(7) 0.7465(3) 0.7571(3)
O36 O 0.9519(5) 0.5321(3) 0.9210(3)
C80 C 0.0382(8) 0.8011(4) 0.4343(5)
H53 H 0.112187 0.801103 0.423435
C81 C 0.0030(8) 0.8404(4) 0.4699(4)
H54 H 0.053407 0.867347 0.484132
C82 C 0.0788(8) 0.6610(4) 0.4120(4)
C83 C 0.0209(9) 0.6197(4) 0.4359(5)
C84 C 0.0786(8) 0.5822(4) 0.4682(5)
H56 H 0.039815 0.553586 0.486024
C85 C 0.1910(8) 0.5857(4) 0.4747(4)
C86 C 0.2477(8) 0.6275(4) 0.4502(4)
H57 H 0.325256 0.630251 0.455296
C87 C 0.1919(9) 0.6661(4) 0.4179(4)
H58 H 0.230375 0.694960 0.400355
C88 C 0.2538(8) 0.5451(4) 0.5101(4)
C89 C 0.4987(8) 0.5309(5) 0.6215(5)
C90 C 0.5664(8) 0.5765(5) 0.6501(4)
C91 C 0.5248(8) 0.6095(4) 0.6887(4)
H59 H 0.450778 0.604412 0.698565
C92 C 0.5881(8) 0.6496(4) 0.7131(4)
H60 H 0.559266 0.672287 0.740108
C93 C 0.6940(9) 0.6564(4) 0.6979(4)
C94 C 0.7384(9) 0.6262(5) 0.6582(4)
H61 H 0.811085 0.632925 0.647081
C95 C 0.6719(9) 0.5854(5) 0.6348(5)
H62 H 0.700362 0.562918 0.607578
C96 C 0.8520(9) 0.6642(4) 0.7772(4)
C97 C 0.8007(9) 0.6485(4) 0.8218(4)
H63 H 0.730551 0.663668 0.829024
C98 C 0.8497(9) 0.6107(4) 0.8563(4)
H64 H 0.812379 0.598882 0.886551
C99 C 0.9543(9) 0.5902(5) 0.8464(5)
C101 C 0.9576(9) 0.6462(4) 0.7674(4)
H66 H 0.994658 0.659563 0.737607
C103 C 0.1536(10) 0.4420(5) 0.6956(5)
H67 H 0.207365 0.419870 0.713897
C104 C 0.0570(9) 0.4598(5) 0.7161(5)
H68 H 0.031760 0.453226 0.750416
C105 C 0.0693(8) 0.4875(5) 0.6360(5)
H69 H 0.050477 0.504363 0.603164
Cd13_4 Cd 1.000000 0.500000 1.000000
N14 N 0.4078(7) 0.3864(4) 0.6412(3)
O37 O 0.8424(5) 0.0489(3) 0.5012(3)
O39 O 0.4037(6) 0.4203(3) 0.5212(3)
O41 O 0.2535(5) 0.3723(3) 0.5351(3)
Cd2_4 Cd 1.000000 1.000000 0.500000
O42 O 0.9191(5) 0.9229(3) 0.5381(3)
O45 O 0.9519(5) 0.9679(3) 0.4210(3)
S4 S 0.4763(2) 0.19891(11) 0.36017(11)
O20 O 0.6895(6) 0.0058(3) 0.5257(3)
O21 O 0.5501(6) 0.2233(3) 0.3230(3)
O22 O 0.3798(6) 0.1699(3) 0.3421(3)
C61 C 0.7420(8) 0.0416(4) 0.4995(4)
C62 C 0.6737(7) 0.0799(4) 0.4640(4)
C63 C 0.7290(8) 0.1138(5) 0.4282(4)
H43 H 0.806686 0.111933 0.425790
C64 C 0.6674(8) 0.1502(5) 0.3966(5)
H44 H 0.703040 0.173578 0.372122
C65 C 0.5557(9) 0.1525(4) 0.4005(4)
C66 C 0.5001(8) 0.1199(4) 0.4362(4)
H45 H 0.422601 0.122797 0.438847
C67 C 0.5602(8) 0.0827(4) 0.4681(4)
H46 H 0.523872 0.059481 0.492453
C68 C 0.4358(8) 0.2526(4) 0.4036(4)
C69 C 0.5122(8) 0.2925(4) 0.4199(4)
H47 H 0.584678 0.292191 0.407058
C70 C 0.4808(8) 0.3327(4) 0.4553(4)
H48 H 0.533630 0.359462 0.467657
C71 C 0.3739(8) 0.3355(4) 0.4736(4)
C72 C 0.2987(8) 0.2946(4) 0.4573(4)
H49 H 0.226521 0.294763 0.470496
C73 C 0.3288(8) 0.2537(4) 0.4219(4)
H50 H 0.276692 0.226327 0.410038
C74 C 0.3403(8) 0.3790(4) 0.5113(4)
O44 O 0.8985(6) 0.0321(4) 0.6269(3)
O17 O 0.8985(6) 0.4679(4) 0.1269(3)
C40 C 0.9920(8) 0.3915(5) 0.1987(4)
H23 H 0.920572 0.405187 0.205664
C42 C 0.9947(8) 0.4520(5) 0.1164(4)
Cd5 Cd 0.79080(5) 0.96501(3) 0.59272(3)
N9 N 0.5458(7) 0.3507(4) 0.6850(4)
N10 N 0.5036(7) 0.5068(4) 0.8197(4)
N12 N 0.3446(6) 0.4871(3) 0.8532(3)
O26 O 0.7599(6) 0.8796(3) 0.5402(3)
O28 O 0.9146(6) 0.6831(3) 0.3459(3)
C75 C 0.8545(8) 0.8834(4) 0.5231(4)
C76 C 0.8930(8) 0.8409(4) 0.4854(4)
C77 C 0.8200(7) 0.8010(4) 0.4634(4)
H51 H 0.744855 0.801805 0.472573
C78 C 0.8540(9) 0.7615(4) 0.4294(5)
H52 H 0.804085 0.734039 0.415863
C79 C 0.9632(8) 0.7616(4) 0.4146(4)
H55 H 0.943490 0.616704 0.430721
C106 C 0.9052(10) 0.5174(5) 0.6808(5)
H70 H 0.919364 0.554165 0.697988
H71 H 0.875023 0.524930 0.645096
C107 C 0.8194(10) 0.4860(5) 0.7113(5)
C108 C 0.7646(10) 0.5122(7) 0.7523(5)
H72 H 0.785288 0.549173 0.762880
C109 C 0.6781(9) 0.4838(6) 0.7783(5)
C110 C 0.6489(9) 0.4305(5) 0.7645(4)
H73 H 0.589092 0.413167 0.781309
C111 C 0.7034(8) 0.4007(5) 0.7266(5)
C112 C 0.7886(9) 0.4287(5) 0.6993(6)
H74 H 0.825746 0.409060 0.672617
C113 C 0.6206(8) 0.5194(5) 0.8163(5)
H75 H 0.629159 0.559452 0.806286
H76 H 0.656125 0.514394 0.851397
C114 C 0.4265(9) 0.5040(5) 0.7791(4)
H77 H 0.439338 0.509513 0.742940
C115 C 0.3322(9) 0.4923(5) 0.7999(4)
H78 H 0.264533 0.487996 0.780775
C116 C 0.4501(8) 0.4960(4) 0.8641(4)
H79 H 0.483397 0.494898 0.898230
C117 C 0.6587(8) 0.3452(5) 0.7083(5)
H80 H 0.657398 0.318717 0.738221
H81 H 0.707768 0.329188 0.681832
C118 C 0.3688(9) 0.3443(4) 0.6710(4)
H82 H 0.294289 0.332370 0.671857
C119 C 0.4556(9) 0.3216(4) 0.7000(4)
H83 H 0.452904 0.292029 0.724982
C120 C 0.5140(8) 0.3891(5) 0.6504(4)
H84 H 0.561711 0.415251 0.634422
N16 N 0.6554(6) 0.9871(3) 0.6468(3)
Cd18 Cd 0.500000 -0.000000 0.000000
Cd18_2 Cd 0.500000 -0.000000 1.000000
S4_2 S 0.5237(2) 0.69891(11) 0.13983(11)
O21_2 O 0.4499(6) 0.7233(3) 0.1770(3)
O22_2 O 0.6202(6) 0.6699(3) 0.1579(3)
O28_2 O 0.0854(6) 0.1831(3) 0.1541(3)
C61_2 C 0.2580(8) 0.5416(4) 0.0005(4)
C62_2 C 0.3263(7) 0.5799(4) 0.0360(4)
C63_2 C 0.2710(8) 0.6138(5) 0.0718(4)
H43_2 H 0.193314 0.611933 0.074210
C64_2 C 0.3326(8) 0.6502(5) 0.1034(5)
H44_2 H 0.296960 0.673578 0.127878
C65_2 C 0.4443(9) 0.6525(4) 0.0995(4)
C66_2 C 0.4999(8) 0.6199(4) 0.0638(4)
H45_2 H 0.577399 0.622797 0.061153
C67_2 C 0.4398(8) 0.5827(4) 0.0319(4)
H46_2 H 0.476128 0.559481 0.007547
C68_2 C 0.5642(8) 0.7526(4) 0.0964(4)
C69_2 C 0.4878(8) 0.7925(4) 0.0801(4)
H47_2 H 0.415322 0.792191 0.092942
C70_2 C 0.5192(8) 0.8327(4) 0.0447(4)
H48_2 H 0.466370 0.859462 0.032343
C71_2 C 0.6261(8) 0.8355(4) 0.0264(4)
C72_2 C 0.7013(8) 0.7946(4) 0.0427(4)
H49_2 H 0.773479 0.794763 0.029504
C73_2 C 0.6712(8) 0.7537(4) 0.0781(4)
H50_2 H 0.723308 0.726327 0.089962
C76_2 C 0.1070(8) 0.3409(4) 0.0146(4)
C77_2 C 0.1800(7) 0.3010(4) 0.0366(4)
H51_2 H 0.255145 0.301805 0.027427
C78_2 C 0.1460(9) 0.2615(4) 0.0706(5)
H52_2 H 0.195915 0.234039 0.084137
C79_2 C 0.0368(8) 0.2616(4) 0.0854(4)
H55_2 H 0.056510 0.116704 0.069279
Cd18_3 Cd 0.500000 1.000000 0.000000
N10_2 N 0.4964(7) 0.0068(4) 0.6803(4)
O19 O 0.1576(5) 0.5489(3) 0.9988(3)
O20_2 O 0.3105(6) 0.5058(3) 0.9743(3)
O23 O 0.5963(6) 0.9203(3) 0.9788(3)
O24 O 0.7465(5) 0.8723(3) 0.9649(3)
O25 O 0.0809(5) 0.4229(3) 0.9619(3)
O26_2 O 0.2401(6) 0.3796(3) 0.9598(3)
C74_2 C 0.6597(8) 0.8790(4) 0.9887(4)
C75_2 C 0.1455(8) 0.3834(4) 0.9769(4)
C106_2 C 0.0948(10) 0.0174(5) 0.8192(5)
H70_2 H 0.080636 0.054165 0.802012
H71_2 H 0.124977 0.024930 0.854904
C108_2 C 0.2354(10) 0.0122(7) 0.7477(5)
H72_2 H 0.214712 0.049173 0.737120
C113_2 C 0.3794(8) 0.0194(5) 0.6837(5)
H75_2 H 0.370841 0.059452 0.693714
H76_2 H 0.343875 0.014394 0.648603
C114_2 C 0.5735(9) 0.0040(5) 0.7209(4)
H77_2 H 0.560662 0.009513 0.757060
Cd17 Cd 0.69272(6) 0.95341(3) 0.90666(3)
Cd18_4 Cd 0.500000 1.000000 1.000000
C40_2 C 0.0080(8) 0.8915(5) 0.3013(4)
H23_2 H 0.079428 0.905187 0.294336
C42_2 C 0.0053(8) 0.9520(5) 0.3836(4)
N9_2 N 0.4542(7) 0.8507(4) 0.8150(4)
N11 N 0.5922(7) 0.8864(4) 0.8588(3)
C107_2 C 0.1806(10) 0.9860(5) 0.7887(5)
C109_2 C 0.3219(9) 0.9838(6) 0.7217(5)
C110_2 C 0.3511(9) 0.9305(5) 0.7355(4)
H73_2 H 0.410908 0.913167 0.718691
C111_2 C 0.2966(8) 0.9007(5) 0.7734(5)
C112_2 C 0.2114(9) 0.9287(5) 0.8007(6)
H74_2 H 0.174254 0.909060 0.827383
C115_2 C 0.6678(9) 0.9923(5) 0.7001(4)
H78_2 H 0.735467 0.987996 0.719225
C116_2 C 0.5499(8) 0.9960(4) 0.6359(4)
H79_2 H 0.516603 0.994898 0.601770
C117_2 C 0.3413(8) 0.8452(5) 0.7917(5)
H80_2 H 0.342602 0.818717 0.761779
H81_2 H 0.292232 0.829188 0.818168
C118_2 C 0.6312(9) 0.8443(4) 0.8290(4)
H82_2 H 0.705711 0.832370 0.828143
C119_2 C 0.5444(9) 0.8216(4) 0.8000(4)
H83_2 H 0.547096 0.792029 0.775018
C120_2 C 0.4860(8) 0.8891(5) 0.8496(4)
H84_2 H 0.438289 0.915251 0.865578
Cd3 Cd 0.30728(6) 0.04659(3) 0.09334(3)
N1_2 N 0.1619(6) 0.0397(4) 0.1455(4)
N2_2 N 0.0050(7) 0.0112(4) 0.1769(4)
C43_2 C 0.1536(10) 0.0580(5) 0.1956(5)
H25_2 H 0.207365 0.080130 0.213897
C44_2 C 0.0570(9) 0.0402(5) 0.2161(5)
H26_2 H 0.031760 0.046774 0.250416
C45_2 C 0.0693(8) 0.0125(5) 0.1360(5)
S5_2 S 0.9902(2) 0.21057(11) 0.13059(11)
O27_2 O 0.9102(6) 0.2353(3) 0.1632(3)
C80_2 C 0.9618(8) 0.3011(4) 0.0657(5)
H53_2 H 0.887813 0.301103 0.076565
C81_2 C 0.9970(8) 0.3404(4) 0.0301(4)
H54_2 H 0.946593 0.367347 0.015868
C82_2 C 0.9212(8) 0.1610(4) 0.0880(4)
C83_2 C 0.9791(9) 0.1197(4) 0.0641(5)
C84_2 C 0.9214(8) 0.0822(4) 0.0318(5)
H56_2 H 0.960185 0.053586 0.013976
C85_2 C 0.8090(8) 0.0857(4) 0.0253(4)
C86_2 C 0.7523(8) 0.1275(4) 0.0498(4)
H57_2 H 0.674744 0.130251 0.044704
C87_2 C 0.8081(9) 0.1661(4) 0.0821(4)
H58_2 H 0.769625 0.194960 0.099645
N13 N 0.4078(7) 0.1136(4) 0.1412(3)
O38 O 0.4037(6) 0.0797(3) 0.0212(3)
O40 O 0.2535(5) 0.1277(3) 0.0351(3)
S6_2 S 0.2174(2) 0.20730(12) 0.76926(13)
O29_2 O 0.6447(5) 0.0535(3) 0.9848(3)
O30_2 O 0.7969(6) 0.0066(3) 0.9673(3)
O31_2 O 0.4578(6) 0.0047(3) 0.9146(3)
O32_2 O 0.5990(6) 0.0243(3) 0.8629(3)
O33_2 O 0.1389(7) 0.2270(3) 0.8065(3)
O34_2 O 0.2845(7) 0.2465(3) 0.7429(3)
C88_2 C 0.7462(8) 0.0451(4) 0.9899(4)
C89_2 C 0.5013(8) 0.0309(5) 0.8785(5)
C90_2 C 0.4336(8) 0.0765(5) 0.8499(4)
C91_2 C 0.4752(8) 0.1095(4) 0.8113(4)
H59_2 H 0.549222 0.104412 0.801435
C92_2 C 0.4119(8) 0.1496(4) 0.7869(4)
H60_2 H 0.440734 0.172287 0.759892
C93_2 C 0.3060(9) 0.1564(4) 0.8021(4)
C94_2 C 0.2616(9) 0.1262(5) 0.8418(4)
H61_2 H 0.188915 0.132925 0.852919
C95_2 C 0.3281(9) 0.0854(5) 0.8652(5)
H62_2 H 0.299638 0.062918 0.892422
C96_2 C 0.1480(9) 0.1642(4) 0.7228(4)
C97_2 C 0.1993(9) 0.1485(4) 0.6782(4)
H63_2 H 0.269449 0.163668 0.670976
C98_2 C 0.1503(9) 0.1107(4) 0.6437(4)
H64_2 H 0.187621 0.098882 0.613449
C99_2 C 0.0457(9) 0.0902(5) 0.6536(5)
C101_2 C 0.0424(9) 0.1462(4) 0.7326(4)
H66_2 H 0.005342 0.159563 0.762393
H69_2 H 0.949523 0.004363 0.896836
S3_2 S 0.7826(2) 0.79270(12) 0.23074(13)
O11_2 O 0.3553(5) 0.9465(3) 0.0152(3)
O12_2 O 0.2031(6) 0.9934(3) 0.0327(3)
O13_2 O 0.5422(6) 0.9953(3) 0.0854(3)
O14_2 O 0.4010(6) 0.9757(3) 0.1371(3)
O15_2 O 0.8611(7) 0.7730(3) 0.1935(3)
O16_2 O 0.7155(7) 0.7535(3) 0.2571(3)
C28_2 C 0.2538(8) 0.9549(4) 0.0101(4)
C29_2 C 0.4987(8) 0.9691(5) 0.1215(5)
C30_2 C 0.5664(8) 0.9235(5) 0.1501(4)
C31_2 C 0.5248(8) 0.8905(4) 0.1887(4)
H17_2 H 0.450778 0.895588 0.198565
C32_2 C 0.5881(8) 0.8504(4) 0.2131(4)
H18_2 H 0.559266 0.827713 0.240108
C33_2 C 0.6940(9) 0.8436(4) 0.1979(4)
C34_2 C 0.7384(9) 0.8738(5) 0.1582(4)
H19_2 H 0.811085 0.867075 0.147081
C35_2 C 0.6719(9) 0.9146(5) 0.1348(5)
H20_2 H 0.700362 0.937082 0.107578
C36_2 C 0.8520(9) 0.8358(4) 0.2772(4)
C37_2 C 0.8007(9) 0.8515(4) 0.3218(4)
H21_2 H 0.730551 0.836332 0.329024
C38_2 C 0.8497(9) 0.8893(4) 0.3563(4)
H22_2 H 0.812379 0.901118 0.386551
C39_2 C 0.9543(9) 0.9098(5) 0.3464(5)
C41_2 C 0.9576(9) 0.8538(4) 0.2674(4)
H24_2 H 0.994658 0.840437 0.237607
H27_2 H 0.050477 0.995637 0.103164
S2_2 S 0.0098(2) 0.78943(11) 0.86941(11)
O9_2 O 0.0898(6) 0.7647(3) 0.8368(3)
C20_2 C 0.0382(8) 0.6989(4) 0.9343(5)
H11_2 H 0.112187 0.698897 0.923435
C21_2 C 0.0030(8) 0.6596(4) 0.9699(4)
H12_2 H 0.053407 0.632653 0.984132
C22_2 C 0.0788(8) 0.8390(4) 0.9120(4)
C23_2 C 0.0209(9) 0.8803(4) 0.9359(5)
C24_2 C 0.0786(8) 0.9178(4) 0.9682(5)
H14_2 H 0.039815 0.946414 0.986024
C25_2 C 0.1910(8) 0.9143(4) 0.9747(4)
C26_2 C 0.2477(8) 0.8725(4) 0.9502(4)
H15_2 H 0.325256 0.869749 0.955296
C27_2 C 0.1919(9) 0.8339(4) 0.9179(4)
H16_2 H 0.230375 0.805040 0.900355
N7_2 N 0.8381(6) 0.9603(4) 0.8545(4)
N8_2 N 0.9950(7) 0.9888(4) 0.8231(4)
C103_2 C 0.8464(10) 0.9420(5) 0.8044(5)
H67_2 H 0.792635 0.919870 0.786103
C104_2 C 0.9430(9) 0.9598(5) 0.7839(5)
H68_2 H 0.968240 0.953226 0.749584
C105_2 C 0.9307(8) 0.9875(5) 0.8640(5)
N3_2 N 0.5458(7) 0.1493(4) 0.1850(4)
C47_2 C 0.8194(10) 0.0140(5) 0.2113(5)
C49_2 C 0.6781(9) 0.0162(6) 0.2783(5)
C50_2 C 0.6489(9) 0.0695(5) 0.2645(4)
H31_2 H 0.589092 0.086833 0.281309
C51_2 C 0.7034(8) 0.0993(5) 0.2266(5)
C52_2 C 0.7886(9) 0.0713(5) 0.1993(6)
H32_2 H 0.825746 0.090940 0.172617
C55_2 C 0.3322(9) 0.0077(5) 0.2999(4)
H36_2 H 0.264533 0.012004 0.280775
C56_2 C 0.4501(8) 0.0040(4) 0.3641(4)
H37_2 H 0.483397 0.005102 0.398230
C57_2 C 0.6587(8) 0.1548(5) 0.2083(5)
H38_2 H 0.657398 0.181283 0.238221
H39_2 H 0.707768 0.170812 0.181832
C58_2 C 0.3688(9) 0.1557(4) 0.1710(4)
H40_2 H 0.294289 0.167630 0.171857
C59_2 C 0.4556(9) 0.1784(4) 0.2000(4)
H41_2 H 0.452904 0.207971 0.224982
C60_2 C 0.5140(8) 0.1109(5) 0.1504(4)
H42_2 H 0.561711 0.084749 0.134422
C100_2 C 0.9920(8) 0.1085(5) 0.6987(4)
H65_2 H 0.920572 0.094813 0.705664
C102_2 C 0.9947(8) 0.0480(5) 0.6164(4)
N4_2 N 0.5036(7) 0.9932(4) 0.3197(4)
O1_2 O 0.8424(5) 0.4511(3) 0.0012(3)
O2_2 O 0.6895(6) 0.4942(3) 0.0257(3)
O7_2 O 0.9191(5) 0.5771(3) 0.0381(3)
O8_2 O 0.7599(6) 0.6204(3) 0.0402(3)
C14_2 C 0.3403(8) 0.1210(4) 0.0113(4)
C15_2 C 0.8545(8) 0.6166(4) 0.0231(4)
C46_2 C 0.9052(10) 0.9826(5) 0.1808(5)
H28_2 H 0.919364 0.945835 0.197988
H29_2 H 0.875023 0.975070 0.145096
C48_2 C 0.7646(10) 0.9878(7) 0.2523(5)
H30_2 H 0.785288 0.950827 0.262880
C53_2 C 0.6206(8) 0.9806(5) 0.3163(5)
H33_2 H 0.629159 0.940548 0.306286
H34_2 H 0.656125 0.985606 0.351397
C54_2 C 0.4265(9) 0.9960(5) 0.2791(4)
H35_2 H 0.439338 0.990487 0.242940
S1_2 S 0.4763(2) 0.30109(11) 0.86017(11)
O3_2 O 0.5501(6) 0.2767(3) 0.8230(3)
O4_2 O 0.3798(6) 0.3301(3) 0.8421(3)
O10_2 O 0.9146(6) 0.8169(3) 0.8459(3)
C1_2 C 0.7420(8) 0.4584(4) 0.9995(4)
C2_2 C 0.6737(7) 0.4201(4) 0.9640(4)
C3_2 C 0.7290(8) 0.3862(5) 0.9282(4)
H1_2 H 0.806686 0.388067 0.925790
C4_2 C 0.6674(8) 0.3498(5) 0.8966(5)
H2_2 H 0.703040 0.326422 0.872122
C5_2 C 0.5557(9) 0.3475(4) 0.9005(4)
C6_2 C 0.5001(8) 0.3801(4) 0.9362(4)
H3_2 H 0.422601 0.377203 0.938847
C7_2 C 0.5602(8) 0.4173(4) 0.9681(4)
H4_2 H 0.523872 0.440519 0.992453
C8_2 C 0.4358(8) 0.2474(4) 0.9036(4)
C9_2 C 0.5122(8) 0.2075(4) 0.9199(4)
H5_2 H 0.584678 0.207809 0.907058
C10_2 C 0.4808(8) 0.1673(4) 0.9553(4)
H6_2 H 0.533630 0.140538 0.967657
C11_2 C 0.3739(8) 0.1645(4) 0.9736(4)
C12_2 C 0.2987(8) 0.2054(4) 0.9573(4)
H7_2 H 0.226521 0.205237 0.970496
C13_2 C 0.3288(8) 0.2463(4) 0.9219(4)
H8_2 H 0.276692 0.273673 0.910038
C16_2 C 0.8930(8) 0.6591(4) 0.9854(4)
C17_2 C 0.8200(7) 0.6990(4) 0.9634(4)
H9_2 H 0.744855 0.698195 0.972573
C18_2 C 0.8540(9) 0.7385(4) 0.9294(5)
H10_2 H 0.804085 0.765961 0.915863
C19_2 C 0.9632(8) 0.7384(4) 0.9146(4)
H13_2 H 0.943490 0.883296 0.930721
loop_
_geom_bond_atom_site_label_1
_geom_bond_atom_site_label_2
_geom_bond_site_symmetry_1
_geom_bond_site_symmetry_2
N3 C57 1_555 1_555
N4 C53 1_555 1_555
N5 C58 1_555 1_555
N6 C55 1_555 1_555
O7 Cd1 1_555 1_555
O8 Cd1 1_555 1_555
C15 O7 1_555 1_555
C16 C15 1_555 1_555
C17 C16 1_555 1_555
H9 C17 1_555 1_555
C18 C17 1_555 1_555
H10 C18 1_555 1_555
H28 C46 1_555 1_555
H29 C46 1_555 1_555
C47 C46 1_555 1_555
C48 C47 1_555 1_555
H30 C48 1_555 1_555
C49 C48 1_555 1_555
C50 C49 1_555 1_555
H31 C50 1_555 1_555
C51 C50 1_555 1_555
C52 C47 1_555 1_555
H32 C52 1_555 1_555
C53 C49 1_555 1_555
H33 C53 1_555 1_555
H34 C53 1_555 1_555
C54 N4 1_555 1_555
H35 C54 1_555 1_555
C55 C54 1_555 1_555
H36 C55 1_555 1_555
C56 N4 1_555 1_555
H37 C56 1_555 1_555
C57 C51 1_555 1_555
H38 C57 1_555 1_555
H39 C57 1_555 1_555
C58 H40 1_555 1_555
C59 N3 1_555 1_555
H41 C59 1_555 1_555
C60 N3 1_555 1_555
H42 C60 1_555 1_555
O35 C102 1_555 1_555
H65 C100 1_555 1_555
Cd8 N6 1_555 1_555
Cd10 O35 1_555 1_555
Cd15 N5 1_555 1_555
N15 Cd1 1_555 1_555
O46 Cd2 1_555 1_555
Cd2 O7 1_555 1_555
N5 C60 1_555 1_555
N6 C56 1_555 1_555
O8 C15 1_555 1_555
C18 C19 1_555 1_555
C51 C52 1_555 1_555
C58 C59 1_555 1_555
Cd2_2 O1 1_555 1_555
S1 O3 1_555 1_555
O1 C1 1_555 1_555
O2 C1 1_555 1_555
O4 S1 1_555 1_555
O5 C14 1_555 1_555
O6 C14 1_555 1_555
C1 C2 1_555 1_555
C2 C3 1_555 1_555
C3 H1 1_555 1_555
C4 C3 1_555 1_555
H2 C4 1_555 1_555
C5 S1 1_555 1_555
C6 C5 1_555 1_555
H3 C6 1_555 1_555
C7 C2 1_555 1_555
H4 C7 1_555 1_555
C8 S1 1_555 1_555
C9 C8 1_555 1_555
H5 C9 1_555 1_555
C10 C9 1_555 1_555
H6 C10 1_555 1_555
C11 C10 1_555 1_555
C12 C11 1_555 1_555
H7 C12 1_555 1_555
C13 C8 1_555 1_555
H8 C13 1_555 1_555
C14 C11 1_555 1_555
Cd15 O5 1_555 1_555
Cd19 O5 1_555 1_555
O6 Cd15 1_555 1_555
C4 C5 1_555 1_555
C6 C7 1_555 1_555
C12 C13 1_555 1_555
Cd15 N1 1_555 1_555
Cd19 O11 1_555 1_555
S2 O9 1_555 1_555
S3 O15 1_555 1_555
N1 C43 1_555 1_555
N2 C44 1_555 1_555
O11 C28 1_555 1_555
O12 Cd15 1_555 1_555
O13 Cd19 1_555 1_555
O14 Cd15 1_555 1_555
O16 S3 1_555 1_555
H11 C20 1_555 1_555
H12 C21 1_555 1_555
C22 S2 1_555 1_555
C23 C22 1_555 1_555
C24 C23 1_555 1_555
H14 C24 1_555 1_555
C25 C24 1_555 1_555
C26 C25 1_555 1_555
H15 C26 1_555 1_555
C27 C22 1_555 1_555
H16 C27 1_555 1_555
C28 O12 1_555 1_555
C29 O13 1_555 1_555
C30 C29 1_555 1_555
C31 C30 1_555 1_555
H17 C31 1_555 1_555
C32 C31 1_555 1_555
H18 C32 1_555 1_555
C33 S3 1_555 1_555
C34 C33 1_555 1_555
H19 C34 1_555 1_555
C35 C30 1_555 1_555
H20 C35 1_555 1_555
C36 S3 1_555 1_555
C37 C36 1_555 1_555
H21 C37 1_555 1_555
C38 C37 1_555 1_555
H22 C38 1_555 1_555
C39 C38 1_555 1_555
C41 C36 1_555 1_555
H24 C41 1_555 1_555
C43 H25 1_555 1_555
C44 C43 1_555 1_555
H26 C44 1_555 1_555
C45 N1 1_555 1_555
H27 C45 1_555 1_555
Cd6 N7 1_555 1_555
S5 O27 1_555 1_555
S6 O33 1_555 1_555
N7 C103 1_555 1_555
N8 C104 1_555 1_555
O29 Cd19 1_555 1_555
O30 Cd6 1_555 1_555
O31 Cd19 1_555 1_555
O32 Cd6 1_555 1_555
O34 S6 1_555 1_555
H53 C80 1_555 1_555
H54 C81 1_555 1_555
C82 S5 1_555 1_555
C83 C82 1_555 1_555
C84 C83 1_555 1_555
H56 C84 1_555 1_555
C85 C84 1_555 1_555
C86 C85 1_555 1_555
H57 C86 1_555 1_555
C87 C82 1_555 1_555
H58 C87 1_555 1_555
C88 O29 1_555 1_555
C89 O31 1_555 1_555
C90 C89 1_555 1_555
C91 C90 1_555 1_555
H59 C91 1_555 1_555
C92 C91 1_555 1_555
H60 C92 1_555 1_555
C93 S6 1_555 1_555
C94 C93 1_555 1_555
H61 C94 1_555 1_555
C95 C90 1_555 1_555
H62 C95 1_555 1_555
C96 S6 1_555 1_555
C97 C96 1_555 1_555
H63 C97 1_555 1_555
C98 C97 1_555 1_555
H64 C98 1_555 1_555
C99 C98 1_555 1_555
C101 C96 1_555 1_555
H66 C101 1_555 1_555
C103 H67 1_555 1_555
C104 C103 1_555 1_555
H68 C104 1_555 1_555
C105 N7 1_555 1_555
H69 C105 1_555 1_555
Cd13 O18 1_555 1_555
Cd13_4 O36 1_555 1_555
N14 Cd6 1_555 1_555
O37 Cd2_3 1_555 1_555
O39 Cd19 1_555 1_555
O41 Cd6 1_555 1_555
N2 C45 1_555 1_555
O14 C29 1_555 1_555
C20 C21 1_555 1_555
C25 C28 1_555 1_555
C26 C27 1_555 1_555
C32 C33 1_555 1_555
C34 C35 1_555 1_555
Cd6 O39 1_555 1_555
N8 C105 1_555 1_555
O30 C88 1_555 1_555
O32 C89 1_555 1_555
C80 C81 1_555 1_555
C85 C88 1_555 1_555
C86 C87 1_555 1_555
C92 C93 1_555 1_555
C94 C95 1_555 1_555
O42 Cd2_4 1_555 1_555
O45 Cd2_4 1_555 1_555
S4 O21 1_555 1_555
O37 C61 1_555 1_555
O20 C61 1_555 1_555
O22 S4 1_555 1_555
O39 C74 1_555 1_555
O41 C74 1_555 1_555
C61 C62 1_555 1_555
C62 C63 1_555 1_555
C63 H43 1_555 1_555
C64 C63 1_555 1_555
H44 C64 1_555 1_555
C65 S4 1_555 1_555
C66 C65 1_555 1_555
H45 C66 1_555 1_555
C67 C62 1_555 1_555
H46 C67 1_555 1_555
C68 S4 1_555 1_555
C69 C68 1_555 1_555
H47 C69 1_555 1_555
C70 C69 1_555 1_555
H48 C70 1_555 1_555
C71 C70 1_555 1_555
C72 C71 1_555 1_555
H49 C72 1_555 1_555
C73 C68 1_555 1_555
H50 C73 1_555 1_555
C74 C71 1_555 1_555
C64 C65 1_555 1_555
C66 C67 1_555 1_555
C72 C73 1_555 1_555
O17 C42 1_555 1_555
H23 C40 1_555 1_555
N9 C117 1_555 1_555
N10 C113 1_555 1_555
N14 C118 1_555 1_555
N12 C115 1_555 1_555
O42 Cd5 1_555 1_555
O26 Cd5 1_555 1_555
C75 O42 1_555 1_555
C76 C75 1_555 1_555
C77 C76 1_555 1_555
H51 C77 1_555 1_555
C78 C77 1_555 1_555
H52 C78 1_555 1_555
H70 C106 1_555 1_555
H71 C106 1_555 1_555
C107 C106 1_555 1_555
C108 C107 1_555 1_555
H72 C108 1_555 1_555
C109 C108 1_555 1_555
C110 C109 1_555 1_555
H73 C110 1_555 1_555
C111 C110 1_555 1_555
C112 C107 1_555 1_555
H74 C112 1_555 1_555
C113 C109 1_555 1_555
H75 C113 1_555 1_555
H76 C113 1_555 1_555
C114 N10 1_555 1_555
H77 C114 1_555 1_555
C115 C114 1_555 1_555
H78 C115 1_555 1_555
C116 N10 1_555 1_555
H79 C116 1_555 1_555
C117 C111 1_555 1_555
H80 C117 1_555 1_555
H81 C117 1_555 1_555
C118 H82 1_555 1_555
C119 N9 1_555 1_555
H83 C119 1_555 1_555
C120 N9 1_555 1_555
H84 C120 1_555 1_555
Cd8 O17 1_555 1_555
Cd10 N12 1_555 1_555
N16 Cd5 1_555 1_555
N14 C120 1_555 1_555
N12 C116 1_555 1_555
O26 C75 1_555 1_555
C78 C79 1_555 1_555
C111 C112 1_555 1_555
C118 C119 1_555 1_555
S4_2 O21_2 1_555 1_555
O22_2 S4_2 1_555 1_555
C61_2 C62_2 1_555 1_555
C62_2 C63_2 1_555 1_555
C63_2 H43_2 1_555 1_555
C64_2 C63_2 1_555 1_555
H44_2 C64_2 1_555 1_555
C65_2 S4_2 1_555 1_555
C66_2 C65_2 1_555 1_555
H45_2 C66_2 1_555 1_555
C67_2 C62_2 1_555 1_555
H46_2 C67_2 1_555 1_555
C68_2 S4_2 1_555 1_555
C69_2 C68_2 1_555 1_555
H47_2 C69_2 1_555 1_555
C70_2 C69_2 1_555 1_555
H48_2 C70_2 1_555 1_555
C71_2 C70_2 1_555 1_555
C72_2 C71_2 1_555 1_555
H49_2 C72_2 1_555 1_555
C73_2 C68_2 1_555 1_555
H50_2 C73_2 1_555 1_555
C77_2 C76_2 1_555 1_555
H51_2 C77_2 1_555 1_555
C78_2 C77_2 1_555 1_555
H52_2 C78_2 1_555 1_555
C64_2 C65_2 1_555 1_555
C66_2 C67_2 1_555 1_555
C72_2 C73_2 1_555 1_555
C78_2 C79_2 1_555 1_555
Cd10 O20_2 1_555 1_555
N10_2 C113_2 1_555 1_555
O23 C74_2 1_555 1_555
O24 C74_2 1_555 1_555
O25 Cd10 1_555 1_555
O26_2 Cd10 1_555 1_555
C75_2 O25 1_555 1_555
H70_2 C106_2 1_555 1_555
H71_2 C106_2 1_555 1_555
H72_2 C108_2 1_555 1_555
H75_2 C113_2 1_555 1_555
H76_2 C113_2 1_555 1_555
C114_2 N10_2 1_555 1_555
H77_2 C114_2 1_555 1_555
Cd13_2 O19 1_555 1_555
Cd17 O23 1_555 1_555
Cd18_4 O23 1_555 1_555
O24 Cd17 1_555 1_555
O25 Cd13_2 1_555 1_555
O26_2 C75_2 1_555 1_555
O43 C42_2 1_555 1_555
H23_2 C40_2 1_555 1_555
N9_2 C117_2 1_555 1_555
N11 C118_2 1_555 1_555
N16 C115_2 1_555 1_555
C110_2 C109_2 1_555 1_555
H73_2 C110_2 1_555 1_555
C111_2 C110_2 1_555 1_555
C112_2 C107_2 1_555 1_555
H74_2 C112_2 1_555 1_555
H78_2 C115_2 1_555 1_555
H79_2 C116_2 1_555 1_555
C117_2 C111_2 1_555 1_555
H80_2 C117_2 1_555 1_555
H81_2 C117_2 1_555 1_555
C118_2 H82_2 1_555 1_555
C119_2 N9_2 1_555 1_555
H83_2 C119_2 1_555 1_555
C120_2 N9_2 1_555 1_555
H84_2 C120_2 1_555 1_555
Cd17 N11 1_555 1_555
N11 C120_2 1_555 1_555
N16 C116_2 1_555 1_555
C111_2 C112_2 1_555 1_555
C118_2 C119_2 1_555 1_555
Cd3 N1_2 1_555 1_555
N1_2 C43_2 1_555 1_555
N2_2 C44_2 1_555 1_555
C43_2 H25_2 1_555 1_555
C44_2 C43_2 1_555 1_555
H26_2 C44_2 1_555 1_555
C45_2 N1_2 1_555 1_555
S5_2 O27_2 1_555 1_555
H53_2 C80_2 1_555 1_555
H54_2 C81_2 1_555 1_555
C82_2 S5_2 1_555 1_555
C83_2 C82_2 1_555 1_555
C84_2 C83_2 1_555 1_555
H56_2 C84_2 1_555 1_555
C85_2 C84_2 1_555 1_555
C86_2 C85_2 1_555 1_555
H57_2 C86_2 1_555 1_555
C87_2 C82_2 1_555 1_555
H58_2 C87_2 1_555 1_555
N13 Cd3 1_555 1_555
O38 Cd3 1_555 1_555
O40 Cd3 1_555 1_555
Cd18 O38 1_555 1_555
N2_2 C45_2 1_555 1_555
C80_2 C81_2 1_555 1_555
C86_2 C87_2 1_555 1_555
S6_2 O33_2 1_555 1_555
O29_2 Cd18_2 1_555 1_555
O31_2 Cd18_2 1_555 1_555
O34_2 S6_2 1_555 1_555
C88_2 O29_2 1_555 1_555
C89_2 O31_2 1_555 1_555
C90_2 C89_2 1_555 1_555
C91_2 C90_2 1_555 1_555
H59_2 C91_2 1_555 1_555
C92_2 C91_2 1_555 1_555
H60_2 C92_2 1_555 1_555
C93_2 S6_2 1_555 1_555
C94_2 C93_2 1_555 1_555
H61_2 C94_2 1_555 1_555
C95_2 C90_2 1_555 1_555
H62_2 C95_2 1_555 1_555
C96_2 S6_2 1_555 1_555
C97_2 C96_2 1_555 1_555
H63_2 C97_2 1_555 1_555
C98_2 C97_2 1_555 1_555
H64_2 C98_2 1_555 1_555
C99_2 C98_2 1_555 1_555
C101_2 C96_2 1_555 1_555
H66_2 C101_2 1_555 1_555
O30_2 C88_2 1_555 1_555
O32_2 C89_2 1_555 1_555
C92_2 C93_2 1_555 1_555
C94_2 C95_2 1_555 1_555
Cd18_3 O11_2 1_555 1_555
S3_2 O15_2 1_555 1_555
O11_2 C28_2 1_555 1_555
O13_2 Cd18_3 1_555 1_555
O16_2 S3_2 1_555 1_555
C28_2 O12_2 1_555 1_555
C29_2 O13_2 1_555 1_555
C30_2 C29_2 1_555 1_555
C31_2 C30_2 1_555 1_555
H17_2 C31_2 1_555 1_555
C32_2 C31_2 1_555 1_555
H18_2 C32_2 1_555 1_555
C33_2 S3_2 1_555 1_555
C34_2 C33_2 1_555 1_555
H19_2 C34_2 1_555 1_555
C35_2 C30_2 1_555 1_555
H20_2 C35_2 1_555 1_555
C36_2 S3_2 1_555 1_555
C37_2 C36_2 1_555 1_555
H21_2 C37_2 1_555 1_555
C38_2 C37_2 1_555 1_555
H22_2 C38_2 1_555 1_555
C39_2 C38_2 1_555 1_555
C41_2 C36_2 1_555 1_555
H24_2 C41_2 1_555 1_555
O14_2 C29_2 1_555 1_555
C32_2 C33_2 1_555 1_555
C34_2 C35_2 1_555 1_555
S2_2 O9_2 1_555 1_555
H11_2 C20_2 1_555 1_555
H12_2 C21_2 1_555 1_555
C22_2 S2_2 1_555 1_555
C23_2 C22_2 1_555 1_555
C24_2 C23_2 1_555 1_555
H14_2 C24_2 1_555 1_555
C25_2 C24_2 1_555 1_555
C26_2 C25_2 1_555 1_555
H15_2 C26_2 1_555 1_555
C27_2 C22_2 1_555 1_555
H16_2 C27_2 1_555 1_555
Cd17 N7_2 1_555 1_555
N7_2 C103_2 1_555 1_555
N8_2 C104_2 1_555 1_555
C103_2 H67_2 1_555 1_555
C104_2 C103_2 1_555 1_555
H68_2 C104_2 1_555 1_555
C105_2 N7_2 1_555 1_555
C20_2 C21_2 1_555 1_555
C26_2 C27_2 1_555 1_555
N8_2 C105_2 1_555 1_555
N3_2 C57_2 1_555 1_555
N13 C58_2 1_555 1_555
N15 C55_2 1_555 1_555
C50_2 C49_2 1_555 1_555
H31_2 C50_2 1_555 1_555
C51_2 C50_2 1_555 1_555
C52_2 C47_2 1_555 1_555
H32_2 C52_2 1_555 1_555
H36_2 C55_2 1_555 1_555
H37_2 C56_2 1_555 1_555
C57_2 C51_2 1_555 1_555
H38_2 C57_2 1_555 1_555
H39_2 C57_2 1_555 1_555
C58_2 H40_2 1_555 1_555
C59_2 N3_2 1_555 1_555
H41_2 C59_2 1_555 1_555
C60_2 N3_2 1_555 1_555
H42_2 C60_2 1_555 1_555
N13 C60_2 1_555 1_555
N15 C56_2 1_555 1_555
C51_2 C52_2 1_555 1_555
C58_2 C59_2 1_555 1_555
O44 C102_2 1_555 1_555
H65_2 C100_2 1_555 1_555
Cd8 O2_2 1_555 1_555
Cd13_3 O1_2 1_555 1_555
N4_2 C53_2 1_555 1_555
O38 C14_2 1_555 1_555
O40 C14_2 1_555 1_555
O7_2 Cd8 1_555 1_555
O8_2 Cd8 1_555 1_555
C15_2 O7_2 1_555 1_555
H28_2 C46_2 1_555 1_555
H29_2 C46_2 1_555 1_555
H30_2 C48_2 1_555 1_555
H33_2 C53_2 1_555 1_555
H34_2 C53_2 1_555 1_555
C54_2 N4_2 1_555 1_555
H35_2 C54_2 1_555 1_555
Cd13_3 O7_2 1_555 1_555
O8_2 C15_2 1_555 1_555
S1_2 O3_2 1_555 1_555
O4_2 S1_2 1_555 1_555
C1_2 C2_2 1_555 1_555
C2_2 C3_2 1_555 1_555
C3_2 H1_2 1_555 1_555
C4_2 C3_2 1_555 1_555
H2_2 C4_2 1_555 1_555
C5_2 S1_2 1_555 1_555
C6_2 C5_2 1_555 1_555
H3_2 C6_2 1_555 1_555
C7_2 C2_2 1_555 1_555
H4_2 C7_2 1_555 1_555
C8_2 S1_2 1_555 1_555
C9_2 C8_2 1_555 1_555
H5_2 C9_2 1_555 1_555
C10_2 C9_2 1_555 1_555
H6_2 C10_2 1_555 1_555
C11_2 C10_2 1_555 1_555
C12_2 C11_2 1_555 1_555
H7_2 C12_2 1_555 1_555
C13_2 C8_2 1_555 1_555
H8_2 C13_2 1_555 1_555
C17_2 C16_2 1_555 1_555
H9_2 C17_2 1_555 1_555
C18_2 C17_2 1_555 1_555
H10_2 C18_2 1_555 1_555
C4_2 C5_2 1_555 1_555
C6_2 C7_2 1_555 1_555
C12_2 C13_2 1_555 1_555
C18_2 C19_2 1_555 1_555

#END
