
###############################################################################
#
# This file contains modified crystal structure data generated from the
# MOF subset of the Cambridge Structural Database (CSD) v543 
# hosted by the Cambridge Crystallographic Data Centre (CCDC).
#
# This work is licensed under the Creative Commons
# Attribution-NonCommercial-ShareAlike 4.0 International License.
# To view a copy of this license, visit
# http://creativecommons.org/licenses/by-nc-sa/4.0/
# or send a letter to
# Creative Commons, PO Box 1866, Mountain View, CA 94042, USA.
#
# CIF created using the CSD Python API on 29 September 2022
# The structure has been converted into the P1 space group
# The structure has a 3D framework
# The original CSD entry GEYLEE is in the monoclinic crystal system
# The original CSD entry GEYLEE is in a Sohncke space group
# The framework has been calculated to contain at least 10.0% void space
# The void calculation uses a probe of radius 1.32A, grid spacing 0.4
# H atom positions have been added when not included in the experimental data
#
###############################################################################

data_GEYLEE
_chemical_formula_moiety         '(C184 H156 O104 S40 Zn24)n'
_symmetry_cell_setting           triclinic
_symmetry_space_group_name_H-M   'P 1'
_symmetry_Int_Tables_number      1
_space_group_name_Hall           'P 1'
loop_
_symmetry_equiv_pos_site_id
_symmetry_equiv_pos_as_xyz
1 x,y,z
_cell_length_a                   23.7128(4)
_cell_length_b                   10.8050(2)
_cell_length_c                   28.5974(5)
_cell_angle_alpha                90
_cell_angle_beta                 90.017(2)
_cell_angle_gamma                90
_cell_volume                     7327.13
loop_
_atom_site_label
_atom_site_type_symbol
_atom_site_fract_x
_atom_site_fract_y
_atom_site_fract_z
Zn6 Zn 0.47098(9) 0.4158(2) 0.11672(7)
Zn11 Zn 0.04562(10) 0.1957(2) 0.11649(7)
S8 S 0.2938(3) 0.0475(6) 0.0132(2)
S10 S 0.7533(3) 0.1217(7) 0.2223(2)
O21 O 0.5671(5) 0.3634(12) 0.1988(4)
O22 O 0.5020(5) 0.2707(12) 0.1553(4)
O36 O 0.0136(5) 0.0570(12) 0.1529(4)
O45 O 0.4625(6) 0.2806(14) 0.0660(5)
O46 O 0.3812(11) 0.375(3) 0.1335(9)
O50 O 0.0463(8) 0.0783(17) 0.0572(6)
O52 O 0.1275(8) 0.1293(18) 0.1390(7)
C34 C 0.5279(7) 0.0435(17) 0.1966(6)
H13 H 0.489458 0.053272 0.187952
C35 C 0.5614(7) 0.1427(16) 0.1966(5)
C36 C 0.6185(8) 0.1252(18) 0.2117(6)
H14 H 0.645754 0.187308 0.205380
C37 C 0.6339(7) 0.0228(17) 0.2346(6)
C40 C 0.5417(8) 0.2720(18) 0.1845(7)
C78 C 0.7628(10) 0.095(2) 0.1603(7)
H35 H 0.725999 0.080046 0.145729
H36 H 0.787181 0.023218 0.155589
H37 H 0.780182 0.168342 0.146032
Zn19 Zn 0.54683(9) 0.54637(18) 0.20144(7)
O68 O 0.4287(5) 0.5372(13) 0.0717(4)
O69 O 0.5449(5) 0.4824(13) 0.0955(5)
O73 O 0.0904(5) 0.3100(11) 0.0705(4)
O78 O 0.4658(5) 0.5288(12) 0.1736(4)
O80 O 0.0501(5) 0.3116(12) 0.1736(4)
H67 H 0.00725379 0.0506392 0.0502458
H68 H 0.0615875 0.124146 0.0299095
H71 H 0.375521 0.379584 0.167858
H72 H 0.356524 0.436582 0.117819
H75 H 0.133018 0.0431001 0.127864
H76 H 0.15744 0.183169 0.125774
H77 H 0.436981 0.214497 0.077577
H78 H 0.446388 0.317789 0.03719
Zn2 Zn 0.04668(9) 0.45423(17) 0.29858(7)
Zn3 Zn 0.07799(8) 0.3196(2) 0.66472(6)
Zn4 Zn 0.41378(9) 0.5284(2) 0.66052(6)
Zn9 Zn 0.42197(8) 0.6799(2) 0.16470(7)
Zn10 Zn 0.08623(9) 0.4727(2) 0.16089(7)
S5 S 0.2575(3) 0.5852(6) 0.39840(19)
S6 S 0.1794(2) 0.5845(5) 0.42244(18)
S9 S 0.7069(2) 0.9771(5) 0.24246(19)
S11 S 0.6721(2) 0.1813(6) 0.7909(2)
S12 S 0.6759(2) 0.0199(5) 0.82395(16)
S13 S 0.3333(2) 0.2309(5) 0.45012(17)
S14 S 0.3482(4) 0.1790(9) 0.3843(3)
S15 S 0.2427(3) 0.3906(7) 0.8977(2)
S16 S 0.3145(4) 0.4443(9) 0.9234(3)
S19 S 0.1982(2) 0.0528(5) 0.45363(19)
O1 O 0.0508(5) 0.5173(11) 0.4035(4)
O2 O 0.0741(4) 0.3663(11) 0.3551(4)
O3 O 0.1000(5) 0.2830(11) 0.5996(4)
O4 O 0.0586(4) 0.4528(10) 0.5701(3)
O5 O 0.0325(5) 0.1695(12) 0.6809(4)
O9 O 0.1525(5) 0.3501(12) 0.6918(4)
O10 O 0.1014(6) 0.3530(14) 0.7574(5)
O11 O 0.3427(5) 0.5077(12) 0.6929(4)
O12 O 0.3832(6) 0.5724(14) 0.7572(5)
O13 O 0.3923(5) 0.4983(13) 0.5955(4)
O14 O 0.4212(5) 0.6778(11) 0.5705(4)
O15 O 0.4445(5) 0.5853(11) 0.3543(4)
O16 O 0.4729(5) 0.7237(13) 0.4072(4)
O17 O 0.4626(5) 0.3876(12) 0.6741(4)
O18 O 0.5117(5) 0.4895(11) 0.7312(4)
O23 O 0.4655(5) 0.8239(12) 0.1786(4)
O24 O 0.5200(5) 0.7206(12) 0.2310(4)
O25 O 0.4079(5) 0.7228(11) 0.0998(4)
O29 O 0.3994(6) 0.6464(15) 0.2563(5)
O30 O 0.3475(6) 0.6590(14) 0.1942(5)
O31 O 0.1555(4) 0.5099(10) 0.1949(4)
O32 O 0.1156(5) 0.4278(12) 0.2575(4)
O33 O 0.0332(5) 0.6101(13) 0.1746(4)
O37 O 0.1008(5) 0.5120(11) 0.0961(4)
O43 O 0.0335(5) 0.4698(12) 0.6741(4)
O44 O 0.4479(5) 0.6869(12) 0.6734(4)
H1 H 0.009245 0.829768 0.170928
C9 C 0.1010(6) 0.4813(16) 0.0133(6)
C14 C 0.1285(7) 0.5822(19) 0.0054(7)
H6 H 0.140650 0.634222 0.030222
C15 C 0.0936(7) 0.4336(18) 0.0641(6)
C17 C 0.2068(7) 0.5227(16) 0.2653(6)
C18 C 0.2526(6) 0.5610(16) 0.2399(6)
H7 H 0.251536 0.564341 0.206726
C19 C 0.3016(6) 0.5954(15) 0.2650(5)
C20 C 0.3042(6) 0.5952(15) 0.3106(5)
H8 H 0.338754 0.613372 0.325989
C21 C 0.2540(6) 0.5670(14) 0.3378(5)
C22 C 0.2049(5) 0.5408(12) 0.3129(4)
H9 H 0.169910 0.535389 0.328946
C23 C 0.1555(6) 0.4864(15) 0.2386(6)
C24 C 0.3533(8) 0.6380(19) 0.2375(7)
C25 C 0.3971(7) 0.6844(19) 0.0189(6)
C30 C 0.3627(7) 0.7910(18) 0.0129(6)
H12 H 0.350503 0.839534 0.038662
C31 C 0.4165(8) 0.6470(19) 0.0649(7)
C33 C 0.5472(7) 0.9268(18) 0.2089(6)
C38 C 0.6017(8) 0.9081(19) 0.2238(6)
H15 H 0.617593 0.827884 0.227062
C39 C 0.5090(7) 0.8227(17) 0.2070(6)
C41 C 0.5500(7) 0.0665(16) 0.7024(6)
C42 C 0.5168(7) 0.1712(17) 0.6945(6)
H16 H 0.482847 0.167337 0.676925
C43 C 0.5359(7) 0.2806(17) 0.7138(6)
C44 C 0.5827(8) 0.281(2) 0.7437(7)
H17 H 0.595407 0.354968 0.757899
C45 C 0.6105(7) 0.1672(16) 0.7523(6)
C46 C 0.5999(6) 0.0703(16) 0.7331(6)
C48 C 0.4988(6) 0.3975(15) 0.7052(5)
C49 C 0.3970(6) 0.5309(17) 0.5147(6)
C50 C 0.4244(6) 0.5938(17) 0.4777(6)
H19 H 0.445749 0.666426 0.483892
C51 C 0.4204(6) 0.5519(15) 0.4349(5)
C52 C 0.3932(6) 0.4386(15) 0.4225(5)
H20 H 0.391675 0.411138 0.390954
C53 C 0.3691(7) 0.3702(17) 0.4584(6)
C54 C 0.3668(7) 0.414(2) 0.5035(8)
H21 H 0.346367 0.371106 0.526952
C55 C 0.4023(7) 0.5749(18) 0.5643(6)
C56 C 0.4448(8) 0.6382(19) 0.3947(6)
C57 C 0.2936(8) 0.480(2) 0.7642(7)
C58 C 0.2438(7) 0.4505(17) 0.7391(6)
H22 H 0.243269 0.462432 0.706199
C59 C 0.1964(8) 0.4054(19) 0.7607(7)
C60 C 0.1998(7) 0.3843(17) 0.8122(6)
H23 H 0.168493 0.352217 0.828937
C61 C 0.2476(8) 0.4114(19) 0.8341(7)
C62 C 0.2922(8) 0.4834(18) 0.8131(6)
H24 H 0.318509 0.529599 0.831032
C63 C 0.3442(7) 0.5242(16) 0.7368(6)
C64 C 0.1463(8) 0.3669(18) 0.7360(7)
C73 C 0.0977(7) 0.3084(17) 0.5182(6)
C74 C 0.1314(6) 0.2473(14) 0.4283(5)
H28 H 0.145474 0.229235 0.397968
C75 C 0.1459(7) 0.1693(18) 0.4662(6)
C76 C 0.1493(9) 0.728(3) 0.3999(10)
H29 H 0.141602 0.718754 0.366364
H30 H 0.176024 0.795842 0.404695
H31 H 0.114048 0.746075 0.416387
C77 C 0.2428(10) 0.937(3) 0.0425(7)
H32 H 0.211283 0.919703 0.021254
H33 H 0.228409 0.974420 0.071283
H34 H 0.262335 0.859521 0.049946
C79 C 0.6261(6) 0.0372(16) 0.8712(4)
H38 H 0.589564 0.063320 0.858544
H39 H 0.639926 0.099658 0.893185
C80 C 0.3024(13) 0.259(3) 0.3479(6)
H41 H 0.287487 0.201958 0.324135
H42 H 0.322597 0.326447 0.332609
H43 H 0.271156 0.292106 0.366417
C81 C 0.3563(8) 0.284(2) 0.9112(9)
H44 H 0.360553 0.272140 0.877406
H45 H 0.334894 0.214824 0.924410
H46 H 0.393591 0.287822 0.925850
C83 C 0.2554(8) 0.009(2) 0.5454(6)
H50 H 0.290131 0.004382 0.526886
H52 H 0.247354 0.094901 0.553403
C86 C 0.0834(6) 0.3829(16) 0.4814(5)
H59 H 0.063885 0.458337 0.486837
C87 C 0.0702(7) 0.4176(17) 0.3948(6)
C88 C 0.0875(7) 0.3578(17) 0.5680(6)
C89 C 0.0978(6) 0.3470(15) 0.4346(5)
C90 C 0.1305(7) 0.2094(17) 0.5105(6)
H60 H 0.144005 0.164401 0.536770
Zn13 Zn 0.02931(9) 0.5858(2) 0.61653(7)
Zn17 Zn 0.45317(9) 0.54637(18) 0.79856(7)
Zn22 Zn 0.45396(10) 0.8063(2) 0.61654(7)
Zn23 Zn 0.54604(10) 0.8063(2) 0.38346(7)
Zn24 Zn 0.52837(9) 0.66997(18) 0.70327(7)
Zn25 Zn 0.47163(9) 0.66997(18) 0.29673(7)
Zn28 Zn 0.02871(8) 0.33168(18) 0.79647(7)
O55 O 0.0672(5) 0.6357(12) 0.2984(4)
O57 O 0.0207(5) 0.2758(12) 0.2701(4)
S3 S 0.1840(2) 0.7469(6) 0.9486(2)
S4 S 0.1612(3) 0.8127(7) 0.8833(2)
S7 S 0.3071(3) 0.9547(6) 0.9524(2)
O27 O 0.4551(5) 0.4824(13) 0.9045(5)
O28 O 0.4190(5) 0.6292(11) 0.8551(4)
O39 O 0.0636(4) 0.4092(10) 0.8543(4)
O40 O 0.0345(5) 0.2671(11) 0.9043(4)
C10 C 0.0796(6) 0.4028(16) 0.9801(5)
H4 H 0.061591 0.327147 0.988098
C11 C 0.0861(5) 0.4429(15) 0.9314(5)
C12 C 0.1182(6) 0.5475(15) 0.9222(5)
H5 H 0.124564 0.572740 0.890770
C13 C 0.1400(5) 0.6126(15) 0.9574(6)
C16 C 0.0571(7) 0.3723(16) 0.8946(6)
C26 C 0.4225(7) 0.6256(18) 0.9808(6)
H10 H 0.448094 0.559411 0.986017
C27 C 0.4107(6) 0.6625(15) 0.9358(5)
C28 C 0.3770(7) 0.7674(17) 0.9279(6)
H11 H 0.374176 0.802013 0.897487
C29 C 0.3474(7) 0.8210(19) 0.9658(6)
C32 C 0.4270(8) 0.589(2) 0.8945(7)
C91 C 0.2145(10) 0.732(3) 0.8487(6)
H61 H 0.236812 0.793145 0.831250
H62 H 0.195966 0.675827 0.826802
H63 H 0.239271 0.685372 0.869582
Zn21 Zn 0.52902(9) 0.4158(2) 0.88328(7)
O65 O 0.4329(5) 0.3634(12) 0.8012(4)
O67 O 0.4800(5) 0.7206(12) 0.7690(4)
O71 O 0.0500(5) 0.1535(12) 0.8020(4)
O72 O 0.0082(5) 0.5099(12) 0.7694(4)
O79 O 0.5342(5) 0.5288(12) 0.8264(4)
S20 S 0.1969(3) 0.9452(7) 0.5114(3)
O7 O 0.0016(5) 0.7273(12) 0.6575(4)
O19 O 0.4915(5) 0.9476(12) 0.6538(4)
O20 O 0.5530(5) 0.8461(13) 0.6996(4)
O41 O 0.1158(5) 0.6339(14) 0.6286(4)
O42 O 0.0272(5) 0.7040(12) 0.5594(4)
O47 O 0.3733(7) 0.8733(17) 0.6372(6)
O48 O 0.4551(7) 0.9206(16) 0.5596(5)
H18 H 0.622899 0.999333 0.737691
C47 C 0.5261(6) 0.9431(17) 0.6824(6)
H25 H 0.007573 0.946357 0.679119
H40 H 0.621745 0.957850 0.887387
H51 H 0.260118 0.960215 0.574141
C84 C 0.0709(6) 0.7233(14) 0.5254(5)
H53 H 0.055290 0.713057 0.493887
H54 H 0.101143 0.662809 0.530307
H55 H 0.086144 0.807155 0.528724
C92 C 0.3227(7) 0.8099(17) 0.6328(6)
H64 H 0.318582 0.780413 0.600559
H65 H 0.291395 0.865463 0.640437
H66 H 0.322501 0.739172 0.654209
O61 O 0.5555(5) 0.5853(11) 0.6457(4)
O62 O 0.5271(5) 0.7237(13) 0.5928(4)
O70 O 0.6006(6) 0.6464(15) 0.7437(5)
H69 H 0.124069 0.628995 0.662591
H70 H 0.140616 0.575482 0.611427
H73 H 0.494643 0.943781 0.552269
H74 H 0.43826 0.877123 0.532377
O34 O 0.9500(5) 0.1535(12) 0.1980(4)
H2 H 0.888460 0.017688 0.238843
C8 C 0.9699(6) 0.0603(16) 0.1841(6)
Zn30 Zn 0.97129(8) 0.33168(18) 0.20353(7)
O74 O 0.9655(5) 0.2671(11) 0.0957(4)
S1 S 0.8267(2) 0.8133(6) 0.2884(2)
S2 S 0.8330(6) 0.9957(14) 0.3276(5)
S17 S 0.7977(2) 0.0084(5) 0.75787(19)
O8 O 0.9793(5) 0.2758(12) 0.7299(4)
O35 O 0.9918(5) 0.5099(12) 0.2306(4)
C1 C 0.9649(8) 0.7146(18) 0.2145(6)
C2 C 0.9797(7) 0.8289(18) 0.1934(6)
C3 C 0.9526(7) 0.9408(16) 0.2041(6)
C4 C 0.9073(6) 0.9424(14) 0.2318(5)
C5 C 0.8862(6) 0.8168(15) 0.2524(5)
C6 C 0.9158(7) 0.7134(18) 0.2425(6)
H3 H 0.903144 0.636648 0.254797
C7 C 0.9967(7) 0.6085(17) 0.2058(6)
C67 C 0.9545(7) 0.0711(16) 0.7115(6)
C68 C 0.9009(6) 0.0811(16) 0.7290(5)
H26 H 0.890959 0.155706 0.744513
C72 C 0.9926(7) 0.1858(16) 0.7065(6)
H48 H 0.732111 0.008456 0.674449
C85 C 0.862(2) 0.922(3) 0.3785(8)
H56 H 0.902860 0.911915 0.374376
H57 H 0.844446 0.841177 0.382798
H58 H 0.854912 0.973990 0.405999
Zn14 Zn 0.97069(9) 0.5858(2) 0.38347(7)
Zn16 Zn 0.95332(9) 0.45423(17) 0.70142(7)
O76 O 0.9665(5) 0.4698(12) 0.3259(4)
Zn27 Zn 0.95438(10) 0.1957(2) 0.88351(7)
O81 O 0.9499(5) 0.3116(12) 0.8264(4)
S18 S 0.7483(3) 0.8770(6) 0.7318(2)
O6 O 0.9328(5) 0.6357(12) 0.7016(4)
C65 C 0.9374(7) 0.8513(16) 0.7014(5)
C66 C 0.9724(7) 0.9547(17) 0.6947(6)
C69 C 0.8623(6) 0.9936(15) 0.7258(5)
C70 C 0.8854(6) 0.8616(15) 0.7194(5)
H27 H 0.863830 0.790874 0.727704
C71 C 0.9589(7) 0.7294(17) 0.6836(6)
C82 C 0.7285(11) 0.919(3) 0.6779(8)
H47 H 0.752603 0.877213 0.654859
H49 H 0.689138 0.894341 0.672743
O53 O 0.9492(5) 0.5173(11) 0.5965(4)
H2_2 H 0.111540 0.017688 0.761157
C8_2 C 0.0301(6) 0.0603(16) 0.8159(6)
S1_2 S 0.1733(2) 0.8133(6) 0.7116(2)
S2_2 S 0.1670(6) 0.9957(14) 0.6724(5)
S17_2 S 0.2023(2) 0.0084(5) 0.24213(19)
C1_2 C 0.0351(8) 0.7146(18) 0.7855(6)
C2_2 C 0.0203(7) 0.8289(18) 0.8066(6)
C3_2 C 0.0474(7) 0.9408(16) 0.7959(6)
C4_2 C 0.0927(6) 0.9424(14) 0.7682(5)
C5_2 C 0.1138(6) 0.8168(15) 0.7476(5)
C6_2 C 0.0842(7) 0.7134(18) 0.7575(6)
H3_2 H 0.096856 0.636648 0.745203
C7_2 C 0.0033(7) 0.6085(17) 0.7942(6)
C67_2 C 0.0455(7) 0.0711(16) 0.2885(6)
C68_2 C 0.0991(6) 0.0811(16) 0.2710(5)
H26_2 H 0.109041 0.155706 0.255487
C72_2 C 0.0074(7) 0.1858(16) 0.2935(6)
H48_2 H 0.267889 0.008456 0.325551
C85_2 C 0.138(2) 0.922(3) 0.6215(8)
H56_2 H 0.097140 0.911915 0.625624
H57_2 H 0.155554 0.841177 0.617202
H58_2 H 0.145088 0.973990 0.594001
S18_2 S 0.2517(3) 0.8770(6) 0.2682(2)
C65_2 C 0.0626(7) 0.8513(16) 0.2986(5)
C66_2 C 0.0276(7) 0.9547(17) 0.3053(6)
C69_2 C 0.1377(6) 0.9936(15) 0.2742(5)
C70_2 C 0.1146(6) 0.8616(15) 0.2806(5)
H27_2 H 0.136170 0.790874 0.272296
C71_2 C 0.0411(7) 0.7294(17) 0.3164(6)
C82_2 C 0.2715(11) 0.919(3) 0.3221(8)
H47_2 H 0.247397 0.877213 0.345141
H49_2 H 0.310862 0.894341 0.327257
S8_2 S 0.7062(3) 0.0475(6) 0.9868(2)
S10_2 S 0.2467(3) 0.1217(7) 0.7777(2)
O22_2 O 0.4980(5) 0.2707(12) 0.8447(4)
O36_2 O 0.9864(5) 0.0570(12) 0.8471(4)
O45_2 O 0.5375(6) 0.2806(14) 0.9340(5)
O46_2 O 0.6188(11) 0.375(3) 0.8665(9)
O50_2 O 0.9537(8) 0.0783(17) 0.9428(6)
O52_2 O 0.8725(8) 0.1293(18) 0.8610(7)
C34_2 C 0.4721(7) 0.0435(17) 0.8034(6)
H13_2 H 0.510542 0.053272 0.812048
C35_2 C 0.4386(7) 0.1427(16) 0.8034(5)
C36_2 C 0.3815(8) 0.1252(18) 0.7883(6)
H14_2 H 0.354246 0.187308 0.794620
C37_2 C 0.3661(7) 0.0228(17) 0.7654(6)
C40_2 C 0.4583(8) 0.2720(18) 0.8155(7)
C78_2 C 0.2372(10) 0.095(2) 0.8397(7)
H35_2 H 0.274001 0.080046 0.854271
H36_2 H 0.212819 0.023218 0.844411
H37_2 H 0.219818 0.168342 0.853968
O68_2 O 0.5713(5) 0.5372(13) 0.9283(4)
O73_2 O 0.9096(5) 0.3100(11) 0.9295(4)
H67_2 H 0.992746 0.0506392 0.949754
H68_2 H 0.938412 0.124146 0.970091
H71_2 H 0.624479 0.379584 0.832142
H72_2 H 0.643476 0.436582 0.882181
H75_2 H 0.866982 0.0431001 0.872136
H76_2 H 0.84256 0.183169 0.874226
H77_2 H 0.563019 0.214497 0.922423
H78_2 H 0.553612 0.317789 0.96281
S3_2 S 0.8160(2) 0.7469(6) 0.0514(2)
S4_2 S 0.8388(3) 0.8127(7) 0.1167(2)
S7_2 S 0.6929(3) 0.9547(6) 0.0476(2)
O28_2 O 0.5810(5) 0.6292(11) 0.1449(4)
O39_2 O 0.9364(4) 0.4092(10) 0.1457(4)
C10_2 C 0.9204(6) 0.4028(16) 0.0199(5)
H4_2 H 0.938409 0.327147 0.011902
C11_2 C 0.9139(5) 0.4429(15) 0.0686(5)
C12_2 C 0.8818(6) 0.5475(15) 0.0778(5)
H5_2 H 0.875436 0.572740 0.109230
C13_2 C 0.8600(5) 0.6126(15) 0.0426(6)
C16_2 C 0.9429(7) 0.3723(16) 0.1054(6)
C26_2 C 0.5775(7) 0.6256(18) 0.0192(6)
H10_2 H 0.551906 0.559411 0.013983
C27_2 C 0.5893(6) 0.6625(15) 0.0642(5)
C28_2 C 0.6230(7) 0.7674(17) 0.0721(6)
H11_2 H 0.625824 0.802013 0.102513
C29_2 C 0.6526(7) 0.8210(19) 0.0342(6)
C32_2 C 0.5730(8) 0.589(2) 0.1055(7)
C91_2 C 0.7855(10) 0.732(3) 0.1513(6)
H61_2 H 0.763188 0.793145 0.168750
H62_2 H 0.804034 0.675827 0.173198
H63_2 H 0.760729 0.685372 0.130418
O58 O 0.8986(6) 0.3530(14) 0.2426(5)
O59 O 0.6168(6) 0.5724(14) 0.2428(5)
O64 O 0.4883(5) 0.4895(11) 0.2688(4)
Zn3_2 Zn 0.92201(8) 0.3196(2) 0.33528(6)
Zn4_2 Zn 0.58622(9) 0.5284(2) 0.33948(6)
Zn9_2 Zn 0.57803(8) 0.6799(2) 0.83530(7)
Zn10_2 Zn 0.91377(9) 0.4727(2) 0.83911(7)
S5_2 S 0.7425(3) 0.5852(6) 0.60160(19)
S6_2 S 0.8206(2) 0.5845(5) 0.57756(18)
S9_2 S 0.2931(2) 0.9771(5) 0.75754(19)
S11_2 S 0.3279(2) 0.1813(6) 0.2091(2)
S12_2 S 0.3241(2) 0.0199(5) 0.17605(16)
S13_2 S 0.6667(2) 0.2309(5) 0.54988(17)
S14_2 S 0.6518(4) 0.1790(9) 0.6157(3)
S15_2 S 0.7573(3) 0.3906(7) 0.1023(2)
S16_2 S 0.6855(4) 0.4443(9) 0.0766(3)
S19_2 S 0.8018(2) 0.0528(5) 0.54637(19)
O2_2 O 0.9259(4) 0.3663(11) 0.6449(4)
O3_2 O 0.9000(5) 0.2830(11) 0.4004(4)
O4_2 O 0.9414(4) 0.4528(10) 0.4299(3)
O5_2 O 0.9675(5) 0.1695(12) 0.3191(4)
O9_2 O 0.8475(5) 0.3501(12) 0.3082(4)
O11_2 O 0.6573(5) 0.5077(12) 0.3071(4)
O13_2 O 0.6077(5) 0.4983(13) 0.4045(4)
O14_2 O 0.5788(5) 0.6778(11) 0.4295(4)
O17_2 O 0.5374(5) 0.3876(12) 0.3259(4)
O23_2 O 0.5345(5) 0.8239(12) 0.8214(4)
O25_2 O 0.5921(5) 0.7228(11) 0.9002(4)
O30_2 O 0.6525(6) 0.6590(14) 0.8058(5)
O31_2 O 0.8445(4) 0.5099(10) 0.8051(4)
O32_2 O 0.8844(5) 0.4278(12) 0.7425(4)
O33_2 O 0.9668(5) 0.6101(13) 0.8254(4)
O37_2 O 0.8992(5) 0.5120(11) 0.9039(4)
O44_2 O 0.5521(5) 0.6869(12) 0.3266(4)
H1_2 H 0.990755 0.829768 0.829072
C9_2 C 0.8990(6) 0.4813(16) 0.9867(6)
C14_2 C 0.8715(7) 0.5822(19) 0.9946(7)
H6_2 H 0.859350 0.634222 0.969778
C15_2 C 0.9064(7) 0.4336(18) 0.9359(6)
C17_2 C 0.7932(7) 0.5227(16) 0.7347(6)
C18_2 C 0.7474(6) 0.5610(16) 0.7601(6)
H7_2 H 0.748464 0.564341 0.793274
C19_2 C 0.6984(6) 0.5954(15) 0.7350(5)
C20_2 C 0.6958(6) 0.5952(15) 0.6894(5)
H8_2 H 0.661246 0.613372 0.674011
C21_2 C 0.7460(6) 0.5670(14) 0.6622(5)
C22_2 C 0.7951(5) 0.5408(12) 0.6871(4)
H9_2 H 0.830090 0.535389 0.671054
C23_2 C 0.8445(6) 0.4864(15) 0.7614(6)
C24_2 C 0.6467(8) 0.6380(19) 0.7625(7)
C25_2 C 0.6029(7) 0.6844(19) 0.9811(6)
C30_2 C 0.6373(7) 0.7910(18) 0.9871(6)
H12_2 H 0.649497 0.839534 0.961338
C31_2 C 0.5835(8) 0.6470(19) 0.9351(7)
C33_2 C 0.4528(7) 0.9268(18) 0.7911(6)
C38_2 C 0.3983(8) 0.9081(19) 0.7762(6)
H15_2 H 0.382407 0.827884 0.772938
C39_2 C 0.4910(7) 0.8227(17) 0.7930(6)
C41_2 C 0.4500(7) 0.0665(16) 0.2976(6)
C42_2 C 0.4832(7) 0.1712(17) 0.3055(6)
H16_2 H 0.517153 0.167337 0.323075
C43_2 C 0.4641(7) 0.2806(17) 0.2862(6)
C44_2 C 0.4173(8) 0.281(2) 0.2563(7)
H17_2 H 0.404593 0.354968 0.242101
C45_2 C 0.3895(7) 0.1672(16) 0.2477(6)
C46_2 C 0.4001(6) 0.0703(16) 0.2669(6)
C48_2 C 0.5012(6) 0.3975(15) 0.2948(5)
C49_2 C 0.6030(6) 0.5309(17) 0.4853(6)
C50_2 C 0.5756(6) 0.5938(17) 0.5223(6)
H19_2 H 0.554251 0.666426 0.516108
C51_2 C 0.5796(6) 0.5519(15) 0.5651(5)
C52_2 C 0.6068(6) 0.4386(15) 0.5775(5)
H20_2 H 0.608325 0.411138 0.609046
C53_2 C 0.6309(7) 0.3702(17) 0.5416(6)
C54_2 C 0.6332(7) 0.414(2) 0.4965(8)
H21_2 H 0.653633 0.371106 0.473048
C55_2 C 0.5977(7) 0.5749(18) 0.4357(6)
C56_2 C 0.5552(8) 0.6382(19) 0.6053(6)
C57_2 C 0.7064(8) 0.480(2) 0.2358(7)
C58_2 C 0.7562(7) 0.4505(17) 0.2609(6)
H22_2 H 0.756731 0.462432 0.293801
C59_2 C 0.8036(8) 0.4054(19) 0.2393(7)
C60_2 C 0.8002(7) 0.3843(17) 0.1878(6)
H23_2 H 0.831507 0.352217 0.171063
C61_2 C 0.7524(8) 0.4114(19) 0.1659(7)
C62_2 C 0.7078(8) 0.4834(18) 0.1869(6)
H24_2 H 0.681491 0.529599 0.168968
C63_2 C 0.6558(7) 0.5242(16) 0.2632(6)
C64_2 C 0.8537(8) 0.3669(18) 0.2640(7)
C73_2 C 0.9023(7) 0.3084(17) 0.4818(6)
C74_2 C 0.8686(6) 0.2473(14) 0.5717(5)
H28_2 H 0.854526 0.229235 0.602032
C75_2 C 0.8541(7) 0.1693(18) 0.5338(6)
C76_2 C 0.8507(9) 0.728(3) 0.6001(10)
H29_2 H 0.858398 0.718754 0.633636
H30_2 H 0.823976 0.795842 0.595305
H31_2 H 0.885952 0.746075 0.583613
C77_2 C 0.7572(10) 0.937(3) 0.9575(7)
H32_2 H 0.788717 0.919703 0.978746
H33_2 H 0.771591 0.974420 0.928717
H34_2 H 0.737665 0.859521 0.950054
C79_2 C 0.3739(6) 0.0372(16) 0.1288(4)
H38_2 H 0.410436 0.063320 0.141456
H39_2 H 0.360074 0.099658 0.106815
C80_2 C 0.6976(13) 0.259(3) 0.6521(6)
H41_2 H 0.712513 0.201958 0.675865
H42_2 H 0.677403 0.326447 0.667391
H43_2 H 0.728844 0.292106 0.633583
C81_2 C 0.6437(8) 0.284(2) 0.0888(9)
H44_2 H 0.639447 0.272140 0.122594
H45_2 H 0.665106 0.214824 0.075590
H46_2 H 0.606409 0.287822 0.074150
C83_2 C 0.7446(8) 0.009(2) 0.4546(6)
H50_2 H 0.709869 0.004382 0.473114
H52_2 H 0.752646 0.094901 0.446597
C86_2 C 0.9166(6) 0.3829(16) 0.5186(5)
H59_2 H 0.936115 0.458337 0.513163
C87_2 C 0.9298(7) 0.4176(17) 0.6052(6)
C88_2 C 0.9125(7) 0.3578(17) 0.4320(6)
C89_2 C 0.9022(6) 0.3470(15) 0.5654(5)
C90_2 C 0.8695(7) 0.2094(17) 0.4895(6)
H60_2 H 0.855995 0.164401 0.463230
S20_2 S 0.8031(3) 0.9452(7) 0.4886(3)
O7_2 O 0.9984(5) 0.7273(12) 0.3425(4)
O19_2 O 0.5085(5) 0.9476(12) 0.3462(4)
O20_2 O 0.4470(5) 0.8461(13) 0.3004(4)
O41_2 O 0.8842(5) 0.6339(14) 0.3714(4)
O42_2 O 0.9728(5) 0.7040(12) 0.4406(4)
O47_2 O 0.6267(7) 0.8733(17) 0.3628(6)
O48_2 O 0.5449(7) 0.9206(16) 0.4404(5)
H18_2 H 0.377101 0.999333 0.262309
C47_2 C 0.4739(6) 0.9431(17) 0.3176(6)
H25_2 H 0.992427 0.946357 0.320881
H40_2 H 0.378255 0.957850 0.112613
H51_2 H 0.739882 0.960215 0.425859
C84_2 C 0.9291(6) 0.7233(14) 0.4746(5)
H53_2 H 0.944710 0.713057 0.506113
H54_2 H 0.898857 0.662809 0.469693
H55_2 H 0.913856 0.807155 0.471276
C92_2 C 0.6773(7) 0.8099(17) 0.3672(6)
H64_2 H 0.681418 0.780413 0.399441
H65_2 H 0.708605 0.865463 0.359563
H66_2 H 0.677499 0.739172 0.345791
H69_2 H 0.875931 0.628995 0.337409
H70_2 H 0.859384 0.575482 0.388573
H73_2 H 0.505357 0.943781 0.447731
H74_2 H 0.56174 0.877123 0.467623
loop_
_geom_bond_atom_site_label_1
_geom_bond_atom_site_label_2
_geom_bond_site_symmetry_1
_geom_bond_site_symmetry_2
Zn6 O22 1_555 1_555
Zn11 O36 1_555 1_555
S10 C78 1_555 1_555
O21 C40 1_555 1_555
O22 C40 1_555 1_555
O45 Zn6 1_555 1_555
O46 Zn6 1_555 1_555
O50 Zn11 1_555 1_555
O52 Zn11 1_555 1_555
C34 H13 1_555 1_555
C35 C34 1_555 1_555
C36 C35 1_555 1_555
H14 C36 1_555 1_555
C40 C35 1_555 1_555
C78 H35 1_555 1_555
H36 C78 1_555 1_555
H37 C78 1_555 1_555
Zn19 O21 1_555 1_555
O68 Zn6 1_555 1_555
O69 Zn6 1_555 1_555
O73 Zn11 1_555 1_555
O78 Zn6 1_555 1_555
O80 Zn11 1_555 1_555
C36 C37 1_555 1_555
Zn19 O78 1_555 1_555
O50 H67 1_555 1_555
O50 H68 1_555 1_555
O46 H71 1_555 1_555
O46 H72 1_555 1_555
O52 H75 1_555 1_555
O52 H76 1_555 1_555
O45 H77 1_555 1_555
O45 H78 1_555 1_555
Zn2 O2 1_555 1_555
Zn3 O3 1_555 1_555
Zn4 O11 1_555 1_555
Zn9 O23 1_555 1_555
Zn10 O31 1_555 1_555
S5 S6 1_555 1_555
S6 C76 1_555 1_555
S11 S12 1_555 1_555
S12 C79 1_555 1_555
S13 S14 1_555 1_555
S14 C80 1_555 1_555
S15 S16 1_555 1_555
S16 C81 1_555 1_555
O1 C87 1_555 1_555
O2 C87 1_555 1_555
O3 C88 1_555 1_555
O4 C88 1_555 1_555
O5 Zn3 1_555 1_555
O9 Zn3 1_555 1_555
O10 C64 1_555 1_555
O11 C63 1_555 1_555
O12 C63 1_555 1_555
O13 Zn4 1_555 1_555
O14 C55 1_555 1_555
O15 C56 1_555 1_555
O16 C56 1_555 1_555
O17 Zn4 1_555 1_555
O18 C48 1_555 1_555
O23 C39 1_555 1_555
O24 C39 1_555 1_555
O25 Zn9 1_555 1_555
O68 C31 1_555 1_555
O29 C24 1_555 1_555
O30 Zn9 1_555 1_555
O31 C23 1_555 1_555
O32 Zn2 1_555 1_555
O33 Zn10 1_555 1_555
O37 Zn10 1_555 1_555
O73 C15 1_555 1_555
O43 Zn3 1_555 1_555
O44 Zn4 1_555 1_555
O78 Zn9 1_555 1_555
O80 Zn10 1_555 1_555
C14 C9 1_555 1_555
H6 C14 1_555 1_555
C15 O37 1_555 1_555
C17 C18 1_555 1_555
C18 H7 1_555 1_555
C19 C18 1_555 1_555
C20 C19 1_555 1_555
H8 C20 1_555 1_555
C21 S5 1_555 1_555
C22 C17 1_555 1_555
H9 C22 1_555 1_555
C23 O32 1_555 1_555
C24 O30 1_555 1_555
C30 C25 1_555 1_555
H12 C30 1_555 1_555
C31 O25 1_555 1_555
C38 C33 1_555 1_555
H15 C38 1_555 1_555
C39 C33 1_555 1_555
C41 C42 1_555 1_555
C42 H16 1_555 1_555
C43 C42 1_555 1_555
C44 C43 1_555 1_555
H17 C44 1_555 1_555
C45 S11 1_555 1_555
C46 C41 1_555 1_555
C48 O17 1_555 1_555
C49 C50 1_555 1_555
C50 H19 1_555 1_555
C51 C50 1_555 1_555
C52 C51 1_555 1_555
H20 C52 1_555 1_555
C53 S13 1_555 1_555
C54 C49 1_555 1_555
H21 C54 1_555 1_555
C55 O13 1_555 1_555
C56 C51 1_555 1_555
C57 C58 1_555 1_555
C58 H22 1_555 1_555
C59 C58 1_555 1_555
C60 C59 1_555 1_555
H23 C60 1_555 1_555
C61 S15 1_555 1_555
C62 C57 1_555 1_555
H24 C62 1_555 1_555
C63 C57 1_555 1_555
C64 O9 1_555 1_555
C73 C86 1_555 1_555
C74 H28 1_555 1_555
C75 S19 1_555 1_555
C76 H29 1_555 1_555
H30 C76 1_555 1_555
H31 C76 1_555 1_555
C77 H32 1_555 1_555
H33 C77 1_555 1_555
H34 C77 1_555 1_555
C79 H38 1_555 1_555
H39 C79 1_555 1_555
C80 H41 1_555 1_555
H42 C80 1_555 1_555
H43 C80 1_555 1_555
C81 H44 1_555 1_555
H45 C81 1_555 1_555
H46 C81 1_555 1_555
C83 H50 1_555 1_555
H52 C83 1_555 1_555
C86 H59 1_555 1_555
C87 C89 1_555 1_555
C88 C73 1_555 1_555
C89 C74 1_555 1_555
C90 C73 1_555 1_555
H60 C90 1_555 1_555
Zn13 O4 1_555 1_555
Zn17 O12 1_555 1_555
Zn19 O24 1_555 1_555
Zn22 O14 1_555 1_555
Zn23 O16 1_555 1_555
Zn24 O18 1_555 1_555
Zn25 O15 1_555 1_555
O55 Zn2 1_555 1_555
O57 Zn2 1_555 1_555
O10 Zn28 1_555 1_555
O18 Zn17 1_555 1_555
O24 Zn25 1_555 1_555
O29 Zn25 1_555 1_555
O43 Zn13 1_555 1_555
O44 Zn22 1_555 1_555
O44 Zn24 1_555 1_555
C9 C15 1_555 1_555
C17 C23 1_555 1_555
C19 C24 1_555 1_555
C20 C21 1_555 1_555
C21 C22 1_555 1_555
C25 C31 1_555 1_555
C43 C48 1_555 1_555
C44 C45 1_555 1_555
C45 C46 1_555 1_555
C49 C55 1_555 1_555
C52 C53 1_555 1_555
C53 C54 1_555 1_555
C59 C64 1_555 1_555
C60 C61 1_555 1_555
C61 C62 1_555 1_555
C74 C75 1_555 1_555
C75 C90 1_555 1_555
C86 C89 1_555 1_555
Zn17 O28 1_555 1_555
Zn28 O39 1_555 1_555
S3 S4 1_555 1_555
S4 C91 1_555 1_555
O27 C32 1_555 1_555
O28 C32 1_555 1_555
O39 C16 1_555 1_555
O40 C16 1_555 1_555
C10 H4 1_555 1_555
C11 C10 1_555 1_555
C12 C11 1_555 1_555
H5 C12 1_555 1_555
C13 S3 1_555 1_555
C16 C11 1_555 1_555
C26 H10 1_555 1_555
C27 C26 1_555 1_555
C28 C27 1_555 1_555
H11 C28 1_555 1_555
C29 S7 1_555 1_555
C32 C27 1_555 1_555
C91 H61 1_555 1_555
H62 C91 1_555 1_555
H63 C91 1_555 1_555
Zn21 O27 1_555 1_555
O65 Zn17 1_555 1_555
O67 Zn17 1_555 1_555
O71 Zn28 1_555 1_555
O72 Zn28 1_555 1_555
O79 Zn17 1_555 1_555
C12 C13 1_555 1_555
C28 C29 1_555 1_555
Zn21 O79 1_555 1_555
Zn13 O7 1_555 1_555
Zn22 O19 1_555 1_555
Zn24 O20 1_555 1_555
O19 C47 1_555 1_555
O20 C47 1_555 1_555
O41 Zn13 1_555 1_555
O42 Zn13 1_555 1_555
O47 Zn22 1_555 1_555
O48 Zn22 1_555 1_555
C84 O42 1_555 1_555
H53 C84 1_555 1_555
H54 C84 1_555 1_555
H55 C84 1_555 1_555
C92 O47 1_555 1_555
H64 C92 1_555 1_555
H65 C92 1_555 1_555
H66 C92 1_555 1_555
O61 Zn24 1_555 1_555
O62 Zn22 1_555 1_555
O67 Zn24 1_555 1_555
O70 Zn24 1_555 1_555
O41 H69 1_555 1_555
O41 H70 1_555 1_555
O48 H73 1_555 1_555
O48 H74 1_555 1_555
O34 C8 1_555 1_555
Zn30 O34 1_555 1_555
S1 S2 1_555 1_555
S2 C85 1_555 1_555
O8 C72 1_555 1_555
C1 C2 1_555 1_555
C3 C2 1_555 1_555
C4 C3 1_555 1_555
C5 S1 1_555 1_555
C6 C1 1_555 1_555
H3 C6 1_555 1_555
C68 C67 1_555 1_555
H26 C68 1_555 1_555
C85 H56 1_555 1_555
H57 C85 1_555 1_555
H58 C85 1_555 1_555
Zn16 O8 1_555 1_555
Zn30 O35 1_555 1_555
O35 C7 1_555 1_555
C1 C7 1_555 1_555
C4 C5 1_555 1_555
C5 C6 1_555 1_555
C67 C72 1_555 1_555
Zn14 O76 1_555 1_555
Zn27 O81 1_555 1_555
S18 C82 1_555 1_555
O6 C71 1_555 1_555
C65 C66 1_555 1_555
C70 C65 1_555 1_555
H27 C70 1_555 1_555
C71 C65 1_555 1_555
C82 H47 1_555 1_555
H49 C82 1_555 1_555
Zn16 O6 1_555 1_555
C69 C70 1_555 1_555
O71 C8_2 1_555 1_555
S1_2 S2_2 1_555 1_555
S2_2 C85_2 1_555 1_555
O57 C72_2 1_555 1_555
C1_2 C2_2 1_555 1_555
C3_2 C2_2 1_555 1_555
C4_2 C3_2 1_555 1_555
C5_2 S1_2 1_555 1_555
C6_2 C1_2 1_555 1_555
H3_2 C6_2 1_555 1_555
C68_2 C67_2 1_555 1_555
H26_2 C68_2 1_555 1_555
C85_2 H56_2 1_555 1_555
H57_2 C85_2 1_555 1_555
H58_2 C85_2 1_555 1_555
O72 C7_2 1_555 1_555
C1_2 C7_2 1_555 1_555
C4_2 C5_2 1_555 1_555
C5_2 C6_2 1_555 1_555
C67_2 C72_2 1_555 1_555
S18_2 C82_2 1_555 1_555
O55 C71_2 1_555 1_555
C65_2 C66_2 1_555 1_555
C70_2 C65_2 1_555 1_555
H27_2 C70_2 1_555 1_555
C71_2 C65_2 1_555 1_555
C82_2 H47_2 1_555 1_555
H49_2 C82_2 1_555 1_555
C69_2 C70_2 1_555 1_555
Zn21 O22_2 1_555 1_555
Zn27 O36_2 1_555 1_555
S10_2 C78_2 1_555 1_555
O65 C40_2 1_555 1_555
O22_2 C40_2 1_555 1_555
O45_2 Zn21 1_555 1_555
O46_2 Zn21 1_555 1_555
O50_2 Zn27 1_555 1_555
O52_2 Zn27 1_555 1_555
C34_2 H13_2 1_555 1_555
C35_2 C34_2 1_555 1_555
C36_2 C35_2 1_555 1_555
H14_2 C36_2 1_555 1_555
C40_2 C35_2 1_555 1_555
C78_2 H35_2 1_555 1_555
H36_2 C78_2 1_555 1_555
H37_2 C78_2 1_555 1_555
O68_2 Zn21 1_555 1_555
O73_2 Zn27 1_555 1_555
C36_2 C37_2 1_555 1_555
O50_2 H67_2 1_555 1_555
O50_2 H68_2 1_555 1_555
O46_2 H71_2 1_555 1_555
O46_2 H72_2 1_555 1_555
O52_2 H75_2 1_555 1_555
O52_2 H76_2 1_555 1_555
O45_2 H77_2 1_555 1_555
O45_2 H78_2 1_555 1_555
Zn19 O28_2 1_555 1_555
Zn30 O39_2 1_555 1_555
S3_2 S4_2 1_555 1_555
S4_2 C91_2 1_555 1_555
O69 C32_2 1_555 1_555
O28_2 C32_2 1_555 1_555
O39_2 C16_2 1_555 1_555
O74 C16_2 1_555 1_555
C10_2 H4_2 1_555 1_555
C11_2 C10_2 1_555 1_555
C12_2 C11_2 1_555 1_555
H5_2 C12_2 1_555 1_555
C13_2 S3_2 1_555 1_555
C16_2 C11_2 1_555 1_555
C26_2 H10_2 1_555 1_555
C27_2 C26_2 1_555 1_555
C28_2 C27_2 1_555 1_555
H11_2 C28_2 1_555 1_555
C29_2 S7_2 1_555 1_555
C32_2 C27_2 1_555 1_555
C91_2 H61_2 1_555 1_555
H62_2 C91_2 1_555 1_555
H63_2 C91_2 1_555 1_555
O58 Zn30 1_555 1_555
O59 Zn19 1_555 1_555
O64 Zn19 1_555 1_555
C12_2 C13_2 1_555 1_555
C28_2 C29_2 1_555 1_555
Zn16 O2_2 1_555 1_555
Zn3_2 O3_2 1_555 1_555
Zn4_2 O11_2 1_555 1_555
Zn9_2 O23_2 1_555 1_555
Zn10_2 O31_2 1_555 1_555
S5_2 S6_2 1_555 1_555
S6_2 C76_2 1_555 1_555
S11_2 S12_2 1_555 1_555
S12_2 C79_2 1_555 1_555
S13_2 S14_2 1_555 1_555
S14_2 C80_2 1_555 1_555
S15_2 S16_2 1_555 1_555
S16_2 C81_2 1_555 1_555
O53 C87_2 1_555 1_555
O2_2 C87_2 1_555 1_555
O3_2 C88_2 1_555 1_555
O4_2 C88_2 1_555 1_555
O5_2 Zn3_2 1_555 1_555
O9_2 Zn3_2 1_555 1_555
O58 C64_2 1_555 1_555
O11_2 C63_2 1_555 1_555
O59 C63_2 1_555 1_555
O13_2 Zn4_2 1_555 1_555
O14_2 C55_2 1_555 1_555
O61 C56_2 1_555 1_555
O62 C56_2 1_555 1_555
O17_2 Zn4_2 1_555 1_555
O64 C48_2 1_555 1_555
O23_2 C39_2 1_555 1_555
O67 C39_2 1_555 1_555
O25_2 Zn9_2 1_555 1_555
O68_2 C31_2 1_555 1_555
O70 C24_2 1_555 1_555
O30_2 Zn9_2 1_555 1_555
O31_2 C23_2 1_555 1_555
O32_2 Zn16 1_555 1_555
O33_2 Zn10_2 1_555 1_555
O37_2 Zn10_2 1_555 1_555
O73_2 C15_2 1_555 1_555
O76 Zn3_2 1_555 1_555
O44_2 Zn4_2 1_555 1_555
O79 Zn9_2 1_555 1_555
O81 Zn10_2 1_555 1_555
C14_2 C9_2 1_555 1_555
H6_2 C14_2 1_555 1_555
C15_2 O37_2 1_555 1_555
C17_2 C18_2 1_555 1_555
C18_2 H7_2 1_555 1_555
C19_2 C18_2 1_555 1_555
C20_2 C19_2 1_555 1_555
H8_2 C20_2 1_555 1_555
C21_2 S5_2 1_555 1_555
C22_2 C17_2 1_555 1_555
H9_2 C22_2 1_555 1_555
C23_2 O32_2 1_555 1_555
C24_2 O30_2 1_555 1_555
C30_2 C25_2 1_555 1_555
H12_2 C30_2 1_555 1_555
C31_2 O25_2 1_555 1_555
C38_2 C33_2 1_555 1_555
H15_2 C38_2 1_555 1_555
C39_2 C33_2 1_555 1_555
C41_2 C42_2 1_555 1_555
C42_2 H16_2 1_555 1_555
C43_2 C42_2 1_555 1_555
C44_2 C43_2 1_555 1_555
H17_2 C44_2 1_555 1_555
C45_2 S11_2 1_555 1_555
C46_2 C41_2 1_555 1_555
C48_2 O17_2 1_555 1_555
C49_2 C50_2 1_555 1_555
C50_2 H19_2 1_555 1_555
C51_2 C50_2 1_555 1_555
C52_2 C51_2 1_555 1_555
H20_2 C52_2 1_555 1_555
C53_2 S13_2 1_555 1_555
C54_2 C49_2 1_555 1_555
H21_2 C54_2 1_555 1_555
C55_2 O13_2 1_555 1_555
C56_2 C51_2 1_555 1_555
C57_2 C58_2 1_555 1_555
C58_2 H22_2 1_555 1_555
C59_2 C58_2 1_555 1_555
C60_2 C59_2 1_555 1_555
H23_2 C60_2 1_555 1_555
C61_2 S15_2 1_555 1_555
C62_2 C57_2 1_555 1_555
H24_2 C62_2 1_555 1_555
C63_2 C57_2 1_555 1_555
C64_2 O9_2 1_555 1_555
C73_2 C86_2 1_555 1_555
C74_2 H28_2 1_555 1_555
C75_2 S19_2 1_555 1_555
C76_2 H29_2 1_555 1_555
H30_2 C76_2 1_555 1_555
H31_2 C76_2 1_555 1_555
C77_2 H32_2 1_555 1_555
H33_2 C77_2 1_555 1_555
H34_2 C77_2 1_555 1_555
C79_2 H38_2 1_555 1_555
H39_2 C79_2 1_555 1_555
C80_2 H41_2 1_555 1_555
H42_2 C80_2 1_555 1_555
H43_2 C80_2 1_555 1_555
C81_2 H44_2 1_555 1_555
H45_2 C81_2 1_555 1_555
H46_2 C81_2 1_555 1_555
C83_2 H50_2 1_555 1_555
H52_2 C83_2 1_555 1_555
C86_2 H59_2 1_555 1_555
C87_2 C89_2 1_555 1_555
C88_2 C73_2 1_555 1_555
C89_2 C74_2 1_555 1_555
C90_2 C73_2 1_555 1_555
H60_2 C90_2 1_555 1_555
Zn14 O4_2 1_555 1_555
Zn23 O14_2 1_555 1_555
Zn25 O64 1_555 1_555
O44_2 Zn23 1_555 1_555
O44_2 Zn25 1_555 1_555
C9_2 C15_2 1_555 1_555
C17_2 C23_2 1_555 1_555
C19_2 C24_2 1_555 1_555
C20_2 C21_2 1_555 1_555
C21_2 C22_2 1_555 1_555
C25_2 C31_2 1_555 1_555
C43_2 C48_2 1_555 1_555
C44_2 C45_2 1_555 1_555
C45_2 C46_2 1_555 1_555
C49_2 C55_2 1_555 1_555
C52_2 C53_2 1_555 1_555
C53_2 C54_2 1_555 1_555
C59_2 C64_2 1_555 1_555
C60_2 C61_2 1_555 1_555
C61_2 C62_2 1_555 1_555
C74_2 C75_2 1_555 1_555
C75_2 C90_2 1_555 1_555
C86_2 C89_2 1_555 1_555
Zn14 O7_2 1_555 1_555
Zn23 O19_2 1_555 1_555
Zn25 O20_2 1_555 1_555
O19_2 C47_2 1_555 1_555
O20_2 C47_2 1_555 1_555
O41_2 Zn14 1_555 1_555
O42_2 Zn14 1_555 1_555
O47_2 Zn23 1_555 1_555
O48_2 Zn23 1_555 1_555
C84_2 O42_2 1_555 1_555
H53_2 C84_2 1_555 1_555
H54_2 C84_2 1_555 1_555
H55_2 C84_2 1_555 1_555
C92_2 O47_2 1_555 1_555
H64_2 C92_2 1_555 1_555
H65_2 C92_2 1_555 1_555
H66_2 C92_2 1_555 1_555
O41_2 H69_2 1_555 1_555
O41_2 H70_2 1_555 1_555
O48_2 H73_2 1_555 1_555
O48_2 H74_2 1_555 1_555

#END
