
###############################################################################
#
# This file contains modified crystal structure data generated from the
# MOF subset of the Cambridge Structural Database (CSD) v543 
# hosted by the Cambridge Crystallographic Data Centre (CCDC).
#
# This work is licensed under the Creative Commons
# Attribution-NonCommercial-ShareAlike 4.0 International License.
# To view a copy of this license, visit
# http://creativecommons.org/licenses/by-nc-sa/4.0/
# or send a letter to
# Creative Commons, PO Box 1866, Mountain View, CA 94042, USA.
#
# CIF created using the CSD Python API on 29 September 2022
# The structure has been converted into the P1 space group
# The structure has a 3D framework
# The original CSD entry GEZMIK is in the rhombohedral crystal system
# The framework has been calculated to contain at least 10.0% void space
# The void calculation uses a probe of radius 1.32A, grid spacing 0.4
# The framework is charged, counterions have been retained in the structure
#
###############################################################################

data_GEZMIK
_chemical_formula_moiety         '(C126 H180 Co8 N108 16+)n'
_symmetry_cell_setting           triclinic
_symmetry_space_group_name_H-M   'P 1'
_symmetry_Int_Tables_number      1
_space_group_name_Hall           'P 1'
loop_
_symmetry_equiv_pos_site_id
_symmetry_equiv_pos_as_xyz
1 x,y,z
_cell_length_a                   16.4707(12)
_cell_length_b                   16.4707(12)
_cell_length_c                   25.6723(18)
_cell_angle_alpha                90
_cell_angle_beta                 90
_cell_angle_gamma                120
_cell_volume                     6031.42
loop_
_atom_site_label
_atom_site_type_symbol
_atom_site_fract_x
_atom_site_fract_y
_atom_site_fract_z
Co4 Co -0.0000 0.0000 0.66207(8)
Co4_2 Co -0.0000 1.0000 0.66207(8)
H8 H 0.7211 0.0193 0.5342
H9 H 0.8062 0.0079 0.6282
H20 H 0.1399 0.0344 0.5662
Co4_3 Co 1.0000 0.0000 0.66207(8)
Co1 Co 0.3333 0.6667 0.32874(8)
C1 C 0.4718(6) 0.8096(6) 0.4086(4)
H1 H 0.4256 0.8214 0.4209
C2 C 0.5443(7) 0.7545(7) 0.3696(5)
H2 H 0.5567 0.7167 0.3480
C3 C 0.6075(7) 0.9345(7) 0.4588(4)
H3 H 0.5618 0.9447 0.4769
H4 H 0.6506 0.9916 0.4406
C4 C 0.6602(11) 0.9081(14) 0.4971(6)
H5 H 0.6187 0.8428 0.5061
H6 H 0.7124 0.9107 0.4782
C5 C 0.6938(10) 0.9526(13) 0.5405(5)
H7 H 0.6426 0.9340 0.5650
C6 C 0.8139(7) 0.9688(8) 0.6050(5)
C7 C 0.8611(13) 0.8908(14) 0.5727(8)
H10 H 0.8945 0.8601 0.5662
N1 N 0.4571(5) 0.7425(5) 0.3749(3)
N2 N 0.6100(5) 0.8232(6) 0.3972(4)
N3 N 0.5611(5) 0.8576(5) 0.4222(3)
N4 N 0.7649(6) 0.9359(8) 0.5643(4)
N5 N 0.7928(13) 0.8824(15) 0.5408(7)
N6 N 0.8772(5) 0.9421(5) 0.6116(4)
C8 C 0.1904(6) 0.6622(8) 0.4086(4)
H11 H 0.1786 0.6042 0.4209
C9 C 0.2455(7) 0.7898(10) 0.3696(5)
H12 H 0.2833 0.8400 0.3480
C10 C 0.0655(7) 0.6730(10) 0.4588(4)
H13 H 0.0553 0.6171 0.4769
H14 H 0.0084 0.6590 0.4406
C11 C 0.0919(14) 0.7521(18) 0.4971(6)
H15 H 0.1572 0.7759 0.5061
H16 H 0.0893 0.8017 0.4782
C12 C 0.0474(13) 0.7412(16) 0.5405(5)
H17 H 0.0660 0.7086 0.5650
C13 C 0.0312(8) 0.8451(11) 0.6050(5)
C14 C 0.1092(14) 0.9703(19) 0.5727(8)
N7 N 0.2575(5) 0.7146(7) 0.3749(3)
N8 N 0.1768(6) 0.7868(8) 0.3972(4)
N9 N 0.1424(5) 0.7035(7) 0.4222(3)
N10 N 0.0641(8) 0.8290(10) 0.5643(4)
N11 N 0.1176(15) 0.9104(20) 0.5408(7)
N12 N 0.0579(5) 0.9351(7) 0.6116(4)
C15 C 0.3378(8) 0.5282(6) 0.4086(4)
H21 H 0.3958 0.5744 0.4209
C16 C 0.2102(10) 0.4557(7) 0.3696(5)
H22 H 0.1600 0.4433 0.3480
C17 C 0.3270(10) 0.3925(7) 0.4588(4)
H23 H 0.3829 0.4382 0.4769
H24 H 0.3410 0.3494 0.4406
C18 C 0.2479(18) 0.3398(11) 0.4971(6)
H25 H 0.2241 0.3813 0.5061
H26 H 0.1983 0.2876 0.4782
C19 C 0.2588(16) 0.3062(10) 0.5405(5)
H27 H 0.2914 0.3574 0.5650
H28 H 0.2982 0.2789 0.5342
C20 C 0.1549(11) 0.1861(7) 0.6050(5)
H29 H 0.2017 0.1938 0.6282
C21 C 0.0297(19) 0.1389(13) 0.5727(8)
N13 N 0.2854(7) 0.5429(5) 0.3749(3)
N14 N 0.2132(8) 0.3900(5) 0.3972(4)
N15 N 0.2965(7) 0.4389(5) 0.4222(3)
N16 N 0.1710(10) 0.2351(6) 0.5643(4)
N17 N 0.0896(20) 0.2072(13) 0.5408(7)
N18 N 0.0649(7) 0.1228(5) 0.6116(4)
Co4_4 Co 1.0000 1.0000 0.66207(8)
N19 N 0.2105(5) 0.6088(5) 0.2783(4)
N20 N 0.3912(5) 0.6018(7) 0.2783(4)
N21 N 0.3982(7) 0.7895(5) 0.2783(4)
H18 H 0.9807 0.7018 0.5342
H19 H 0.9921 0.7983 0.6282
H30 H 0.9656 0.1055 0.5662
C1_2 C 0.1385(6) 0.1429(6) 0.7419(4)
H1_2 H 0.0923 0.1547 0.7542
C2_2 C 0.2110(7) 0.0878(7) 0.7029(5)
H2_2 H 0.2234 0.0500 0.6813
C3_2 C 0.2742(7) 0.2678(7) 0.7921(4)
H3_2 H 0.2285 0.2780 0.8102
H4_2 H 0.3173 0.3249 0.7739
C4_2 C 0.3269(11) 0.2414(14) 0.8304(6)
H5_2 H 0.2854 0.1761 0.8394
H6_2 H 0.3791 0.2440 0.8115
C5_2 C 0.3605(10) 0.2859(13) 0.8738(5)
H7_2 H 0.3093 0.2673 0.8983
H8_2 H 0.3878 0.3526 0.8675
C6_2 C 0.4806(7) 0.3021(8) 0.9383(5)
H9_2 H 0.4729 0.3412 0.9615
C7_2 C 0.5278(13) 0.2241(14) 0.9060(8)
H10_2 H 0.5612 0.1934 0.8995
N1_2 N 0.1238(5) 0.0758(5) 0.7082(3)
N2_2 N 0.2767(5) 0.1565(6) 0.7305(4)
N3_2 N 0.2278(5) 0.1909(5) 0.7555(3)
N4_2 N 0.4316(6) 0.2692(8) 0.8976(4)
N5_2 N 0.4595(13) 0.2157(15) 0.8741(7)
N6_2 N 0.5439(5) 0.2754(5) 0.9449(4)
Co4_5 Co 0.6666 0.3334 0.99541(8)
C15_2 C 0.0045(8) 0.8615(6) 0.7419(4)
H21_2 H 0.0625 0.9077 0.7542
H23_2 H 0.0496 0.7715 0.8102
H24_2 H 0.0077 0.6827 0.7739
C9_2 C 0.9122(7) 0.1231(10) 0.7029(5)
H12_2 H 0.9500 0.1733 0.6813
C10_2 C 0.7322(7) 0.0063(10) 0.7921(4)
C11_2 C 0.7586(14) 0.0854(18) 0.8304(6)
H15_2 H 0.8239 0.1092 0.8394
H16_2 H 0.7560 0.1350 0.8115
C12_2 C 0.7141(13) 0.0745(16) 0.8738(5)
H17_2 H 0.7327 0.0419 0.8983
H18_2 H 0.6474 0.0351 0.8675
C13_2 C 0.6979(8) 0.1784(11) 0.9383(5)
H19_2 H 0.6588 0.1316 0.9615
C14_2 C 0.7759(14) 0.3036(19) 0.9060(8)
H20_2 H 0.8066 0.3677 0.8995
N7_2 N 0.9242(5) 0.0479(7) 0.7082(3)
N8_2 N 0.8435(6) 0.1201(8) 0.7305(4)
N9_2 N 0.8091(5) 0.0368(7) 0.7555(3)
N10_2 N 0.7308(8) 0.1623(10) 0.8976(4)
N11_2 N 0.7843(15) 0.2437(20) 0.8741(7)
N12_2 N 0.7246(5) 0.2684(7) 0.9449(4)
C8_2 C 0.8571(6) 0.9955(8) 0.7419(4)
H11_2 H 0.8453 0.9375 0.7542
H13_2 H 0.7220 0.9504 0.8102
H14_2 H 0.6751 0.9923 0.7739
C16_2 C 0.8769(10) 0.7890(7) 0.7029(5)
H22_2 H 0.8267 0.7766 0.6813
C17_2 C 0.9937(10) 0.7258(7) 0.7921(4)
C18_2 C 0.9146(18) 0.6731(11) 0.8304(6)
H25_2 H 0.8908 0.7146 0.8394
H26_2 H 0.8650 0.6209 0.8115
C19_2 C 0.9255(16) 0.6395(10) 0.8738(5)
H27_2 H 0.9581 0.6907 0.8983
H28_2 H 0.9649 0.6122 0.8675
C20_2 C 0.8216(11) 0.5194(7) 0.9383(5)
H29_2 H 0.8684 0.5271 0.9615
C21_2 C 0.6964(19) 0.4722(13) 0.9060(8)
H30_2 H 0.6323 0.4388 0.8995
N13_2 N 0.9521(7) 0.8762(5) 0.7082(3)
N14_2 N 0.8799(8) 0.7233(5) 0.7305(4)
N15_2 N 0.9632(7) 0.7722(5) 0.7555(3)
N16_2 N 0.8377(10) 0.5684(6) 0.8976(4)
N17_2 N 0.7563(20) 0.5405(13) 0.8741(7)
N18_2 N 0.7316(7) 0.4561(5) 0.9449(4)
H6_3 H 0.0457 0.5774 0.1449
C5_3 C 0.0271(10) 0.6193(13) 0.2072(5)
H8_3 H 0.0544 0.6860 0.2009
C6_3 C 0.1472(7) 0.6355(8) 0.2717(5)
H9_3 H 0.1395 0.6746 0.2949
C7_3 C 0.1944(13) 0.5575(14) 0.2394(8)
H10_3 H 0.2278 0.5268 0.2329
N4_3 N 0.0982(6) 0.6026(8) 0.2310(4)
N5_3 N 0.1261(13) 0.5491(15) 0.2075(7)
C1_3 C 0.8051(6) 0.4763(6) 0.0753(4)
H1_3 H 0.7589 0.4881 0.0876
C2_3 C 0.8776(7) 0.4212(7) 0.0363(5)
H2_3 H 0.8900 0.3834 0.0147
C3_3 C 0.9408(7) 0.6012(7) 0.1255(4)
H3_3 H 0.8951 0.6114 0.1436
H4_3 H 0.9839 0.6583 0.1073
C4_3 C 0.9935(11) 0.5748(14) 0.1638(6)
H5_3 H 0.9520 0.5095 0.1728
H7_3 H 0.9759 0.6007 0.2317
N1_3 N 0.7904(5) 0.4092(5) 0.0416(3)
N2_3 N 0.9433(5) 0.4899(6) 0.0639(4)
N3_3 N 0.8944(5) 0.5243(5) 0.0889(3)
C8_3 C 0.5237(6) 0.3289(8) 0.0753(4)
H11_3 H 0.5119 0.2709 0.0876
C9_3 C 0.5788(7) 0.4565(10) 0.0363(5)
H12_3 H 0.6166 0.5067 0.0147
C10_3 C 0.3988(7) 0.3397(10) 0.1255(4)
H13_3 H 0.3886 0.2838 0.1436
H14_3 H 0.3417 0.3257 0.1073
C11_3 C 0.4252(14) 0.4188(18) 0.1638(6)
H15_3 H 0.4905 0.4426 0.1728
H16_3 H 0.4226 0.4684 0.1449
C12_3 C 0.3807(13) 0.4079(16) 0.2072(5)
H17_3 H 0.3993 0.3753 0.2317
H18_3 H 0.3140 0.3685 0.2009
C13_3 C 0.3645(8) 0.5118(11) 0.2717(5)
H19_3 H 0.3254 0.4650 0.2949
C14_3 C 0.4425(14) 0.6370(19) 0.2394(8)
H20_3 H 0.4732 0.7011 0.2329
N7_3 N 0.5908(5) 0.3813(7) 0.0416(3)
N8_3 N 0.5101(6) 0.4535(8) 0.0639(4)
N9_3 N 0.4757(5) 0.3702(7) 0.0889(3)
N10_3 N 0.3974(8) 0.4957(10) 0.2310(4)
N11_3 N 0.4509(15) 0.5771(20) 0.2075(7)
C15_3 C 0.6711(8) 0.1949(6) 0.0753(4)
H21_3 H 0.7291 0.2411 0.0876
C16_3 C 0.5435(10) 0.1224(7) 0.0363(5)
H22_3 H 0.4933 0.1100 0.0147
C17_3 C 0.6603(10) 0.0592(7) 0.1255(4)
H23_3 H 0.7162 0.1049 0.1436
H24_3 H 0.6743 0.0161 0.1073
C18_3 C 0.5812(18) 0.0065(11) 0.1638(6)
H25_3 H 0.5574 0.0480 0.1728
H27_3 H 0.6247 0.0241 0.2317
N13_3 N 0.6187(7) 0.2096(5) 0.0416(3)
N14_3 N 0.5465(8) 0.0567(5) 0.0639(4)
N15_3 N 0.6298(7) 0.1056(5) 0.0889(3)
H26_3 H 0.5316 0.9543 0.1449
C19_3 C 0.5921(16) 0.9729(10) 0.2072(5)
H28_3 H 0.6315 0.9456 0.2009
C20_3 C 0.4882(11) 0.8528(7) 0.2717(5)
H29_3 H 0.5350 0.8605 0.2949
C21_3 C 0.3630(19) 0.8056(13) 0.2394(8)
H30_3 H 0.2989 0.7722 0.2329
N16_3 N 0.5043(10) 0.9018(6) 0.2310(4)
N17_3 N 0.4229(20) 0.8739(13) 0.2075(7)
Co2 Co 0.0000 -0.0000 0.33793(8)
H18_4 H 0.0193 0.2982 0.4658
H19_4 H 0.0079 0.2017 0.3718
H30_4 H 0.0344 0.8945 0.4338
Co2_2 Co 0.0000 1.0000 0.33793(8)
Co2_3 Co 1.0000 -0.0000 0.33793(8)
Co1_2 Co 0.6667 0.3333 0.67126(8)
C1_4 C 0.5282(6) 0.1904(6) 0.5914(4)
H1_4 H 0.5744 0.1786 0.5791
C2_4 C 0.4557(7) 0.2455(7) 0.6304(5)
H2_4 H 0.4433 0.2833 0.6520
C3_4 C 0.3925(7) 0.0655(7) 0.5412(4)
H3_4 H 0.4382 0.0553 0.5231
H4_4 H 0.3494 0.0084 0.5594
C4_4 C 0.3398(11) 0.0919(14) 0.5029(6)
H5_4 H 0.3813 0.1572 0.4939
H6_4 H 0.2876 0.0893 0.5218
C5_4 C 0.3062(10) 0.0474(13) 0.4595(5)
H7_4 H 0.3574 0.0660 0.4350
C6_4 C 0.1861(7) 0.0312(8) 0.3950(5)
C7_4 C 0.1389(13) 0.1092(14) 0.4273(8)
H10_4 H 0.1055 0.1399 0.4338
N1_4 N 0.5429(5) 0.2575(5) 0.6251(3)
N2_4 N 0.3900(5) 0.1768(6) 0.6028(4)
N3_4 N 0.4389(5) 0.1424(5) 0.5778(3)
N4_4 N 0.2351(6) 0.0641(8) 0.4357(4)
N5_4 N 0.2072(13) 0.1176(15) 0.4592(7)
N6_3 N 0.1228(5) 0.0579(5) 0.3884(4)
C8_4 C 0.8096(6) 0.3378(8) 0.5914(4)
H11_4 H 0.8214 0.3958 0.5791
C9_4 C 0.7545(7) 0.2102(10) 0.6304(5)
H12_4 H 0.7167 0.1600 0.6520
C10_4 C 0.9345(7) 0.3270(10) 0.5412(4)
H13_4 H 0.9447 0.3829 0.5231
H14_4 H 0.9916 0.3410 0.5594
C11_4 C 0.9081(14) 0.2479(18) 0.5029(6)
H15_4 H 0.8428 0.2241 0.4939
H16_4 H 0.9107 0.1983 0.5218
C12_4 C 0.9526(13) 0.2588(16) 0.4595(5)
H17_4 H 0.9340 0.2914 0.4350
C13_4 C 0.9688(8) 0.1549(11) 0.3950(5)
C14_4 C 0.8908(14) 0.0297(19) 0.4273(8)
N7_4 N 0.7425(5) 0.2854(7) 0.6251(3)
N8_4 N 0.8232(6) 0.2132(8) 0.6028(4)
N9_4 N 0.8576(5) 0.2965(7) 0.5778(3)
N10_4 N 0.9359(8) 0.1710(10) 0.4357(4)
N11_4 N 0.8824(15) 0.0896(20) 0.4592(7)
N12_3 N 0.9421(5) 0.0649(7) 0.3884(4)
C15_4 C 0.6622(8) 0.4718(6) 0.5914(4)
H21_4 H 0.6042 0.4256 0.5791
C16_4 C 0.7898(10) 0.5443(7) 0.6304(5)
H22_4 H 0.8400 0.5567 0.6520
C17_4 C 0.6730(10) 0.6075(7) 0.5412(4)
H23_4 H 0.6171 0.5618 0.5231
H24_4 H 0.6590 0.6506 0.5594
C18_4 C 0.7521(18) 0.6602(11) 0.5029(6)
H25_4 H 0.7759 0.6187 0.4939
H26_4 H 0.8017 0.7124 0.5218
C19_4 C 0.7412(16) 0.6938(10) 0.4595(5)
H27_4 H 0.7086 0.6426 0.4350
H28_4 H 0.7018 0.7211 0.4658
C20_4 C 0.8451(11) 0.8139(7) 0.3950(5)
H29_4 H 0.7983 0.8062 0.3718
C21_4 C 0.9703(19) 0.8611(13) 0.4273(8)
N13_4 N 0.7146(7) 0.4571(5) 0.6251(3)
N14_4 N 0.7868(8) 0.6100(5) 0.6028(4)
N15_4 N 0.7035(7) 0.5611(5) 0.5778(3)
N16_4 N 0.8290(10) 0.7649(6) 0.4357(4)
N17_4 N 0.9104(20) 0.7928(13) 0.4592(7)
N18_3 N 0.9351(7) 0.8772(5) 0.3884(4)
Co2_4 Co 1.0000 1.0000 0.33793(8)
N19_2 N 0.7895(5) 0.3912(5) 0.7217(4)
N20_2 N 0.6088(5) 0.3982(7) 0.7217(4)
N21_2 N 0.6018(7) 0.2105(5) 0.7217(4)
H8_4 H 0.2789 0.9807 0.4658
H9_4 H 0.1938 0.9921 0.3718
H20_4 H 0.8601 0.9656 0.4338
C8_5 C 0.1429(6) 0.0045(8) 0.2581(4)
H11_5 H 0.1547 0.0625 0.2458
H13_5 H 0.2780 0.0496 0.1898
H14_5 H 0.3249 0.0077 0.2261
C16_5 C 0.1231(10) 0.2110(7) 0.2971(5)
H22_5 H 0.1733 0.2234 0.3187
C17_5 C 0.0063(10) 0.2742(7) 0.2079(4)
C18_5 C 0.0854(18) 0.3269(11) 0.1696(6)
H25_5 H 0.1092 0.2854 0.1606
H26_5 H 0.1350 0.3791 0.1885
C19_5 C 0.0745(16) 0.3605(10) 0.1262(5)
H27_5 H 0.0419 0.3093 0.1017
H28_5 H 0.0351 0.3878 0.1325
C20_5 C 0.1784(11) 0.4806(7) 0.0617(5)
H29_5 H 0.1316 0.4729 0.0385
C21_5 C 0.3036(19) 0.5278(13) 0.0940(8)
H30_5 H 0.3677 0.5612 0.1005
N13_5 N 0.0479(7) 0.1238(5) 0.2918(3)
N14_5 N 0.1201(8) 0.2767(5) 0.2695(4)
N15_5 N 0.0368(7) 0.2278(5) 0.2445(3)
N16_5 N 0.1623(10) 0.4316(6) 0.1024(4)
N17_5 N 0.2437(20) 0.4595(13) 0.1259(7)
N18_4 N 0.2684(7) 0.5439(5) 0.0551(4)
Co2_5 Co 0.3334 0.6666 0.00459(8)
C9_5 C 0.0878(7) 0.8769(10) 0.2971(5)
H12_5 H 0.0500 0.8267 0.3187
C10_5 C 0.2678(7) 0.9937(10) 0.2079(4)
C11_5 C 0.2414(14) 0.9146(18) 0.1696(6)
H15_5 H 0.1761 0.8908 0.1606
H16_5 H 0.2440 0.8650 0.1885
C12_5 C 0.2859(13) 0.9255(16) 0.1262(5)
H17_5 H 0.2673 0.9581 0.1017
H18_5 H 0.3526 0.9649 0.1325
C13_5 C 0.3021(8) 0.8216(11) 0.0617(5)
H19_5 H 0.3412 0.8684 0.0385
C14_5 C 0.2241(14) 0.6964(19) 0.0940(8)
H20_5 H 0.1934 0.6323 0.1005
N7_5 N 0.0758(5) 0.9521(7) 0.2918(3)
N8_5 N 0.1565(6) 0.8799(8) 0.2695(4)
N9_5 N 0.1909(5) 0.9632(7) 0.2445(3)
N10_5 N 0.2692(8) 0.8377(10) 0.1024(4)
N11_5 N 0.2157(15) 0.7563(20) 0.1259(7)
N12_4 N 0.2754(5) 0.7316(7) 0.0551(4)
C15_5 C 0.9955(8) 0.1385(6) 0.2581(4)
H21_5 H 0.9375 0.0923 0.2458
H23_5 H 0.9504 0.2285 0.1898
H24_5 H 0.9923 0.3173 0.2261
C1_5 C 0.8615(6) 0.8571(6) 0.2581(4)
H1_5 H 0.9077 0.8453 0.2458
C2_5 C 0.7890(7) 0.9122(7) 0.2971(5)
H2_5 H 0.7766 0.9500 0.3187
C3_5 C 0.7258(7) 0.7322(7) 0.2079(4)
H3_5 H 0.7715 0.7220 0.1898
H4_5 H 0.6827 0.6751 0.2261
C4_5 C 0.6731(11) 0.7586(14) 0.1696(6)
H5_5 H 0.7146 0.8239 0.1606
H6_5 H 0.6209 0.7560 0.1885
C5_5 C 0.6395(10) 0.7141(13) 0.1262(5)
H7_5 H 0.6907 0.7327 0.1017
H8_5 H 0.6122 0.6474 0.1325
C6_5 C 0.5194(7) 0.6979(8) 0.0617(5)
H9_5 H 0.5271 0.6588 0.0385
C7_5 C 0.4722(13) 0.7759(14) 0.0940(8)
H10_5 H 0.4388 0.8066 0.1005
N1_5 N 0.8762(5) 0.9242(5) 0.2918(3)
N2_5 N 0.7233(5) 0.8435(6) 0.2695(4)
N3_5 N 0.7722(5) 0.8091(5) 0.2445(3)
N4_5 N 0.5684(6) 0.7308(8) 0.1024(4)
N5_5 N 0.5405(13) 0.7843(15) 0.1259(7)
N6_4 N 0.4561(5) 0.7246(5) 0.0551(4)
H26_6 H 0.4684 0.0457 0.8551
C19_6 C 0.4079(16) 0.0271(10) 0.7928(5)
H28_6 H 0.3685 0.0544 0.7991
C20_6 C 0.5118(11) 0.1472(7) 0.7283(5)
H29_6 H 0.4650 0.1395 0.7051
C21_6 C 0.6370(19) 0.1944(13) 0.7606(8)
H30_6 H 0.7011 0.2278 0.7671
N16_6 N 0.4957(10) 0.0982(6) 0.7690(4)
N17_6 N 0.5771(20) 0.1261(13) 0.7925(7)
C1_6 C 0.1949(6) 0.5237(6) 0.9247(4)
H1_6 H 0.2411 0.5119 0.9124
C2_6 C 0.1224(7) 0.5788(7) 0.9637(5)
H2_6 H 0.1100 0.6166 0.9853
C3_6 C 0.0592(7) 0.3988(7) 0.8745(4)
H3_6 H 0.1049 0.3886 0.8564
H4_6 H 0.0161 0.3417 0.8927
C4_6 C 0.0065(11) 0.4252(14) 0.8362(6)
H5_6 H 0.0480 0.4905 0.8272
H7_6 H 0.0241 0.3993 0.7683
N1_6 N 0.2096(5) 0.5908(5) 0.9584(3)
N2_6 N 0.0567(5) 0.5101(6) 0.9361(4)
N3_6 N 0.1056(5) 0.4757(5) 0.9111(3)
C8_6 C 0.4763(6) 0.6711(8) 0.9247(4)
H11_6 H 0.4881 0.7291 0.9124
C9_6 C 0.4212(7) 0.5435(10) 0.9637(5)
H12_6 H 0.3834 0.4933 0.9853
C10_6 C 0.6012(7) 0.6603(10) 0.8745(4)
H13_6 H 0.6114 0.7162 0.8564
H14_6 H 0.6583 0.6743 0.8927
C11_6 C 0.5748(14) 0.5812(18) 0.8362(6)
H15_6 H 0.5095 0.5574 0.8272
H16_6 H 0.5774 0.5316 0.8551
C12_6 C 0.6193(13) 0.5921(16) 0.7928(5)
H17_6 H 0.6007 0.6247 0.7683
H18_6 H 0.6860 0.6315 0.7991
C13_6 C 0.6355(8) 0.4882(11) 0.7283(5)
H19_6 H 0.6746 0.5350 0.7051
C14_6 C 0.5575(14) 0.3630(19) 0.7606(8)
H20_6 H 0.5268 0.2989 0.7671
N7_6 N 0.4092(5) 0.6187(7) 0.9584(3)
N8_6 N 0.4899(6) 0.5465(8) 0.9361(4)
N9_6 N 0.5243(5) 0.6298(7) 0.9111(3)
N10_6 N 0.6026(8) 0.5043(10) 0.7690(4)
N11_6 N 0.5491(15) 0.4229(20) 0.7925(7)
C15_6 C 0.3289(8) 0.8051(6) 0.9247(4)
H21_6 H 0.2709 0.7589 0.9124
C16_6 C 0.4565(10) 0.8776(7) 0.9637(5)
H22_6 H 0.5067 0.8900 0.9853
C17_6 C 0.3397(10) 0.9408(7) 0.8745(4)
H23_6 H 0.2838 0.8951 0.8564
H24_6 H 0.3257 0.9839 0.8927
C18_6 C 0.4188(18) 0.9935(11) 0.8362(6)
H25_6 H 0.4426 0.9520 0.8272
H27_6 H 0.3753 0.9759 0.7683
N13_6 N 0.3813(7) 0.7904(5) 0.9584(3)
N14_6 N 0.4535(8) 0.9433(5) 0.9361(4)
N15_6 N 0.3702(7) 0.8944(5) 0.9111(3)
H6_6 H 0.9543 0.4226 0.8551
C5_6 C 0.9729(10) 0.3807(13) 0.7928(5)
H8_6 H 0.9456 0.3140 0.7991
C6_6 C 0.8528(7) 0.3645(8) 0.7283(5)
H9_6 H 0.8605 0.3254 0.7051
C7_6 C 0.8056(13) 0.4425(14) 0.7606(8)
H10_6 H 0.7722 0.4732 0.7671
N4_6 N 0.9018(6) 0.3974(8) 0.7690(4)
N5_6 N 0.8739(13) 0.4509(15) 0.7925(7)
loop_
_geom_bond_atom_site_label_1
_geom_bond_atom_site_label_2
_geom_bond_site_symmetry_1
_geom_bond_site_symmetry_2
Co1 N1 1_555 1_555
C1 H1 1_555 1_555
C2 H2 1_555 1_555
C3 H3 1_555 1_555
H4 C3 1_555 1_555
C4 C3 1_555 1_555
H5 C4 1_555 1_555
H6 C4 1_555 1_555
C5 C4 1_555 1_555
H7 C5 1_555 1_555
C7 H10 1_555 1_555
N1 C1 1_555 1_555
N2 C2 1_555 1_555
N3 C1 1_555 1_555
N4 C5 1_555 1_555
N5 C7 1_555 1_555
N6 C6 1_555 1_555
C8 H11 1_555 1_555
C9 H12 1_555 1_555
C10 H13 1_555 1_555
H14 C10 1_555 1_555
C11 C10 1_555 1_555
H15 C11 1_555 1_555
H16 C11 1_555 1_555
C12 C11 1_555 1_555
H17 C12 1_555 1_555
N7 Co1 1_555 1_555
N8 C9 1_555 1_555
N9 C8 1_555 1_555
N10 C12 1_555 1_555
N11 C14 1_555 1_555
N12 C13 1_555 1_555
C15 H21 1_555 1_555
C16 H22 1_555 1_555
C17 H23 1_555 1_555
H24 C17 1_555 1_555
C18 C17 1_555 1_555
H25 C18 1_555 1_555
H26 C18 1_555 1_555
C19 C18 1_555 1_555
H27 C19 1_555 1_555
H28 C19 1_555 1_555
C20 H29 1_555 1_555
N13 Co1 1_555 1_555
N14 C16 1_555 1_555
N15 C15 1_555 1_555
N16 C19 1_555 1_555
N17 C21 1_555 1_555
N18 C20 1_555 1_555
Co4 N18 1_555 1_555
Co4_2 N12 1_555 1_555
Co4_4 N6 1_555 1_555
N19 Co1 1_555 1_555
N20 Co1 1_555 1_555
N21 Co1 1_555 1_555
C2 N1 1_555 1_555
C3 N3 1_555 1_555
C6 N4 1_555 1_555
C7 N6 1_555 1_555
N2 N3 1_555 1_555
N4 N5 1_555 1_555
C8 N7 1_555 1_555
C9 N7 1_555 1_555
C10 N9 1_555 1_555
C13 N10 1_555 1_555
C14 N12 1_555 1_555
N8 N9 1_555 1_555
N10 N11 1_555 1_555
C15 N13 1_555 1_555
C16 N13 1_555 1_555
C17 N15 1_555 1_555
C20 N16 1_555 1_555
C21 N18 1_555 1_555
N14 N15 1_555 1_555
N16 N17 1_555 1_555
Co4 N1_2 1_555 1_555
C1_2 H1_2 1_555 1_555
C2_2 H2_2 1_555 1_555
C3_2 H3_2 1_555 1_555
H4_2 C3_2 1_555 1_555
C4_2 C3_2 1_555 1_555
H5_2 C4_2 1_555 1_555
H6_2 C4_2 1_555 1_555
C5_2 C4_2 1_555 1_555
H7_2 C5_2 1_555 1_555
H8_2 C5_2 1_555 1_555
C6_2 H9_2 1_555 1_555
C7_2 H10_2 1_555 1_555
N1_2 C1_2 1_555 1_555
N2_2 C2_2 1_555 1_555
N3_2 C1_2 1_555 1_555
N4_2 C5_2 1_555 1_555
N5_2 C7_2 1_555 1_555
N6_2 C6_2 1_555 1_555
Co4_5 N6_2 1_555 1_555
C2_2 N1_2 1_555 1_555
C3_2 N3_2 1_555 1_555
C6_2 N4_2 1_555 1_555
C7_2 N6_2 1_555 1_555
N2_2 N3_2 1_555 1_555
N4_2 N5_2 1_555 1_555
C15_2 H21_2 1_555 1_555
C9_2 H12_2 1_555 1_555
C11_2 C10_2 1_555 1_555
H15_2 C11_2 1_555 1_555
H16_2 C11_2 1_555 1_555
C12_2 C11_2 1_555 1_555
H17_2 C12_2 1_555 1_555
H18_2 C12_2 1_555 1_555
C13_2 H19_2 1_555 1_555
C14_2 H20_2 1_555 1_555
N7_2 Co4_3 1_555 1_555
N8_2 C9_2 1_555 1_555
N10_2 C12_2 1_555 1_555
N11_2 C14_2 1_555 1_555
N12_2 C13_2 1_555 1_555
Co4_5 N12_2 1_555 1_555
C9_2 N7_2 1_555 1_555
C10_2 N9_2 1_555 1_555
C13_2 N10_2 1_555 1_555
C14_2 N12_2 1_555 1_555
N8_2 N9_2 1_555 1_555
N10_2 N11_2 1_555 1_555
C8_2 H11_2 1_555 1_555
C16_2 H22_2 1_555 1_555
C18_2 C17_2 1_555 1_555
H25_2 C18_2 1_555 1_555
H26_2 C18_2 1_555 1_555
C19_2 C18_2 1_555 1_555
H27_2 C19_2 1_555 1_555
H28_2 C19_2 1_555 1_555
C20_2 H29_2 1_555 1_555
C21_2 H30_2 1_555 1_555
N13_2 Co4_4 1_555 1_555
N14_2 C16_2 1_555 1_555
N16_2 C19_2 1_555 1_555
N17_2 C21_2 1_555 1_555
N18_2 C20_2 1_555 1_555
Co4_5 N18_2 1_555 1_555
C16_2 N13_2 1_555 1_555
C17_2 N15_2 1_555 1_555
C20_2 N16_2 1_555 1_555
C21_2 N18_2 1_555 1_555
N14_2 N15_2 1_555 1_555
N16_2 N17_2 1_555 1_555
H8_3 C5_3 1_555 1_555
C6_3 H9_3 1_555 1_555
C7_3 H10_3 1_555 1_555
N4_3 C5_3 1_555 1_555
N5_3 C7_3 1_555 1_555
N19 C6_3 1_555 1_555
C6_3 N4_3 1_555 1_555
C7_3 N19 1_555 1_555
N4_3 N5_3 1_555 1_555
C1_3 H1_3 1_555 1_555
C2_3 H2_3 1_555 1_555
C3_3 H3_3 1_555 1_555
H4_3 C3_3 1_555 1_555
C4_3 C3_3 1_555 1_555
H5_3 C4_3 1_555 1_555
N1_3 C1_3 1_555 1_555
N2_3 C2_3 1_555 1_555
N3_3 C1_3 1_555 1_555
C8_3 H11_3 1_555 1_555
C9_3 H12_3 1_555 1_555
C10_3 H13_3 1_555 1_555
H14_3 C10_3 1_555 1_555
C11_3 C10_3 1_555 1_555
H15_3 C11_3 1_555 1_555
H16_3 C11_3 1_555 1_555
C12_3 C11_3 1_555 1_555
H17_3 C12_3 1_555 1_555
H18_3 C12_3 1_555 1_555
C13_3 H19_3 1_555 1_555
C14_3 H20_3 1_555 1_555
N8_3 C9_3 1_555 1_555
N9_3 C8_3 1_555 1_555
N10_3 C12_3 1_555 1_555
N11_3 C14_3 1_555 1_555
N20 C13_3 1_555 1_555
C15_3 H21_3 1_555 1_555
C16_3 H22_3 1_555 1_555
C17_3 H23_3 1_555 1_555
H24_3 C17_3 1_555 1_555
C18_3 C17_3 1_555 1_555
H25_3 C18_3 1_555 1_555
N14_3 C16_3 1_555 1_555
N15_3 C15_3 1_555 1_555
C2_3 N1_3 1_555 1_555
C3_3 N3_3 1_555 1_555
N2_3 N3_3 1_555 1_555
C8_3 N7_3 1_555 1_555
C9_3 N7_3 1_555 1_555
C10_3 N9_3 1_555 1_555
C13_3 N10_3 1_555 1_555
C14_3 N20 1_555 1_555
N8_3 N9_3 1_555 1_555
N10_3 N11_3 1_555 1_555
C15_3 N13_3 1_555 1_555
C16_3 N13_3 1_555 1_555
C17_3 N15_3 1_555 1_555
N14_3 N15_3 1_555 1_555
H28_3 C19_3 1_555 1_555
C20_3 H29_3 1_555 1_555
C21_3 H30_3 1_555 1_555
N16_3 C19_3 1_555 1_555
N17_3 C21_3 1_555 1_555
N21 C20_3 1_555 1_555
C20_3 N16_3 1_555 1_555
C21_3 N21 1_555 1_555
N16_3 N17_3 1_555 1_555
Co1_2 N1_4 1_555 1_555
C1_4 H1_4 1_555 1_555
C2_4 H2_4 1_555 1_555
C3_4 H3_4 1_555 1_555
H4_4 C3_4 1_555 1_555
C4_4 C3_4 1_555 1_555
H5_4 C4_4 1_555 1_555
H6_4 C4_4 1_555 1_555
C5_4 C4_4 1_555 1_555
H7_4 C5_4 1_555 1_555
C7_4 H10_4 1_555 1_555
N1_4 C1_4 1_555 1_555
N2_4 C2_4 1_555 1_555
N3_4 C1_4 1_555 1_555
N4_4 C5_4 1_555 1_555
N5_4 C7_4 1_555 1_555
N6_3 C6_4 1_555 1_555
C8_4 H11_4 1_555 1_555
C9_4 H12_4 1_555 1_555
C10_4 H13_4 1_555 1_555
H14_4 C10_4 1_555 1_555
C11_4 C10_4 1_555 1_555
H15_4 C11_4 1_555 1_555
H16_4 C11_4 1_555 1_555
C12_4 C11_4 1_555 1_555
H17_4 C12_4 1_555 1_555
N7_4 Co1_2 1_555 1_555
N8_4 C9_4 1_555 1_555
N9_4 C8_4 1_555 1_555
N10_4 C12_4 1_555 1_555
N11_4 C14_4 1_555 1_555
N12_3 C13_4 1_555 1_555
C15_4 H21_4 1_555 1_555
C16_4 H22_4 1_555 1_555
C17_4 H23_4 1_555 1_555
H24_4 C17_4 1_555 1_555
C18_4 C17_4 1_555 1_555
H25_4 C18_4 1_555 1_555
H26_4 C18_4 1_555 1_555
C19_4 C18_4 1_555 1_555
H27_4 C19_4 1_555 1_555
H28_4 C19_4 1_555 1_555
C20_4 H29_4 1_555 1_555
N13_4 Co1_2 1_555 1_555
N14_4 C16_4 1_555 1_555
N15_4 C15_4 1_555 1_555
N16_4 C19_4 1_555 1_555
N17_4 C21_4 1_555 1_555
N18_3 C20_4 1_555 1_555
Co2_4 N18_3 1_555 1_555
Co2_3 N12_3 1_555 1_555
Co2 N6_3 1_555 1_555
N19_2 Co1_2 1_555 1_555
N20_2 Co1_2 1_555 1_555
N21_2 Co1_2 1_555 1_555
C2_4 N1_4 1_555 1_555
C3_4 N3_4 1_555 1_555
C6_4 N4_4 1_555 1_555
C7_4 N6_3 1_555 1_555
N2_4 N3_4 1_555 1_555
N4_4 N5_4 1_555 1_555
C8_4 N7_4 1_555 1_555
C9_4 N7_4 1_555 1_555
C10_4 N9_4 1_555 1_555
C13_4 N10_4 1_555 1_555
C14_4 N12_3 1_555 1_555
N8_4 N9_4 1_555 1_555
N10_4 N11_4 1_555 1_555
C15_4 N13_4 1_555 1_555
C16_4 N13_4 1_555 1_555
C17_4 N15_4 1_555 1_555
C20_4 N16_4 1_555 1_555
C21_4 N18_3 1_555 1_555
N14_4 N15_4 1_555 1_555
N16_4 N17_4 1_555 1_555
C8_5 H11_5 1_555 1_555
C16_5 H22_5 1_555 1_555
C18_5 C17_5 1_555 1_555
H25_5 C18_5 1_555 1_555
H26_5 C18_5 1_555 1_555
C19_5 C18_5 1_555 1_555
H27_5 C19_5 1_555 1_555
H28_5 C19_5 1_555 1_555
C20_5 H29_5 1_555 1_555
C21_5 H30_5 1_555 1_555
N13_5 Co2 1_555 1_555
N14_5 C16_5 1_555 1_555
N16_5 C19_5 1_555 1_555
N17_5 C21_5 1_555 1_555
N18_4 C20_5 1_555 1_555
Co2_5 N18_4 1_555 1_555
C16_5 N13_5 1_555 1_555
C17_5 N15_5 1_555 1_555
C20_5 N16_5 1_555 1_555
C21_5 N18_4 1_555 1_555
N14_5 N15_5 1_555 1_555
N16_5 N17_5 1_555 1_555
C9_5 H12_5 1_555 1_555
C11_5 C10_5 1_555 1_555
H15_5 C11_5 1_555 1_555
H16_5 C11_5 1_555 1_555
C12_5 C11_5 1_555 1_555
H17_5 C12_5 1_555 1_555
H18_5 C12_5 1_555 1_555
C13_5 H19_5 1_555 1_555
C14_5 H20_5 1_555 1_555
N7_5 Co2_2 1_555 1_555
N8_5 C9_5 1_555 1_555
N10_5 C12_5 1_555 1_555
N11_5 C14_5 1_555 1_555
N12_4 C13_5 1_555 1_555
Co2_5 N12_4 1_555 1_555
C9_5 N7_5 1_555 1_555
C10_5 N9_5 1_555 1_555
C13_5 N10_5 1_555 1_555
C14_5 N12_4 1_555 1_555
N8_5 N9_5 1_555 1_555
N10_5 N11_5 1_555 1_555
C15_5 H21_5 1_555 1_555
Co2_4 N1_5 1_555 1_555
C1_5 H1_5 1_555 1_555
C2_5 H2_5 1_555 1_555
C3_5 H3_5 1_555 1_555
H4_5 C3_5 1_555 1_555
C4_5 C3_5 1_555 1_555
H5_5 C4_5 1_555 1_555
H6_5 C4_5 1_555 1_555
C5_5 C4_5 1_555 1_555
H7_5 C5_5 1_555 1_555
H8_5 C5_5 1_555 1_555
C6_5 H9_5 1_555 1_555
C7_5 H10_5 1_555 1_555
N1_5 C1_5 1_555 1_555
N2_5 C2_5 1_555 1_555
N3_5 C1_5 1_555 1_555
N4_5 C5_5 1_555 1_555
N5_5 C7_5 1_555 1_555
N6_4 C6_5 1_555 1_555
Co2_5 N6_4 1_555 1_555
C2_5 N1_5 1_555 1_555
C3_5 N3_5 1_555 1_555
C6_5 N4_5 1_555 1_555
C7_5 N6_4 1_555 1_555
N2_5 N3_5 1_555 1_555
N4_5 N5_5 1_555 1_555
H28_6 C19_6 1_555 1_555
C20_6 H29_6 1_555 1_555
C21_6 H30_6 1_555 1_555
N16_6 C19_6 1_555 1_555
N17_6 C21_6 1_555 1_555
N21_2 C20_6 1_555 1_555
C20_6 N16_6 1_555 1_555
C21_6 N21_2 1_555 1_555
N16_6 N17_6 1_555 1_555
C1_6 H1_6 1_555 1_555
C2_6 H2_6 1_555 1_555
C3_6 H3_6 1_555 1_555
H4_6 C3_6 1_555 1_555
C4_6 C3_6 1_555 1_555
H5_6 C4_6 1_555 1_555
N1_6 C1_6 1_555 1_555
N2_6 C2_6 1_555 1_555
N3_6 C1_6 1_555 1_555
C8_6 H11_6 1_555 1_555
C9_6 H12_6 1_555 1_555
C10_6 H13_6 1_555 1_555
H14_6 C10_6 1_555 1_555
C11_6 C10_6 1_555 1_555
H15_6 C11_6 1_555 1_555
H16_6 C11_6 1_555 1_555
C12_6 C11_6 1_555 1_555
H17_6 C12_6 1_555 1_555
H18_6 C12_6 1_555 1_555
C13_6 H19_6 1_555 1_555
C14_6 H20_6 1_555 1_555
N8_6 C9_6 1_555 1_555
N9_6 C8_6 1_555 1_555
N10_6 C12_6 1_555 1_555
N11_6 C14_6 1_555 1_555
N20_2 C13_6 1_555 1_555
C15_6 H21_6 1_555 1_555
C16_6 H22_6 1_555 1_555
C17_6 H23_6 1_555 1_555
H24_6 C17_6 1_555 1_555
C18_6 C17_6 1_555 1_555
H25_6 C18_6 1_555 1_555
N14_6 C16_6 1_555 1_555
N15_6 C15_6 1_555 1_555
C2_6 N1_6 1_555 1_555
C3_6 N3_6 1_555 1_555
N2_6 N3_6 1_555 1_555
C8_6 N7_6 1_555 1_555
C9_6 N7_6 1_555 1_555
C10_6 N9_6 1_555 1_555
C13_6 N10_6 1_555 1_555
C14_6 N20_2 1_555 1_555
N8_6 N9_6 1_555 1_555
N10_6 N11_6 1_555 1_555
C15_6 N13_6 1_555 1_555
C16_6 N13_6 1_555 1_555
C17_6 N15_6 1_555 1_555
N14_6 N15_6 1_555 1_555
H8_6 C5_6 1_555 1_555
C6_6 H9_6 1_555 1_555
C7_6 H10_6 1_555 1_555
N4_6 C5_6 1_555 1_555
N5_6 C7_6 1_555 1_555
N19_2 C6_6 1_555 1_555
C6_6 N4_6 1_555 1_555
C7_6 N19_2 1_555 1_555
N4_6 N5_6 1_555 1_555

#END
