
###############################################################################
#
# This file contains modified crystal structure data generated from the
# MOF subset of the Cambridge Structural Database (CSD) v543 
# hosted by the Cambridge Crystallographic Data Centre (CCDC).
#
# This work is licensed under the Creative Commons
# Attribution-NonCommercial-ShareAlike 4.0 International License.
# To view a copy of this license, visit
# http://creativecommons.org/licenses/by-nc-sa/4.0/
# or send a letter to
# Creative Commons, PO Box 1866, Mountain View, CA 94042, USA.
#
# CIF created using the CSD Python API on 29 September 2022
# The structure has been converted into the P1 space group
# The structure has a 3D framework
# The original CSD entry GICXIC is in the triclinic crystal system
# The framework has been calculated to contain at least 10.0% void space
# The void calculation uses a probe of radius 1.32A, grid spacing 0.4
# H atom positions have been added when not included in the experimental data
#
###############################################################################

data_GICXIC
_chemical_formula_moiety         '(C26 H22 N4 O14)n'
_symmetry_cell_setting           triclinic
_symmetry_space_group_name_H-M   'P 1'
_symmetry_Int_Tables_number      1
_space_group_name_Hall           'P 1'
loop_
_symmetry_equiv_pos_site_id
_symmetry_equiv_pos_as_xyz
1 x,y,z
_cell_length_a                   9.0968(6)
_cell_length_b                   9.6763(7)
_cell_length_c                   11.5065(9)
_cell_angle_alpha                106.914(7)
_cell_angle_beta                 93.967(6)
_cell_angle_gamma                108.270(6)
_cell_volume                     905.726
loop_
_atom_site_label
_atom_site_type_symbol
_atom_site_fract_x
_atom_site_fract_y
_atom_site_fract_z
O5 O 0.0730(9) 0.7599(9) 0.0770(7)
Tb2 Tb 0.22152(7) 0.97180(6) 0.00841(5)
Tb5 Tb 0.77848(7) 0.02820(6) 0.99159(5)
O1 O 0.6340(10) 0.1805(9) 0.0449(8)
O2 O 0.8041(9) 0.8848(10) 0.7862(7)
O3 O 0.9191(9) 0.8876(9) 0.0471(7)
O6 O 0.6209(10) 0.9888(9) 0.7912(7)
N1 N 0.5884(10) 0.5527(11) 0.1452(8)
N2 N 0.6895(11) 0.6891(10) 0.1444(9)
C1 C 0.9419(13) 0.7746(12) 0.0740(10)
C2 C 0.8106(13) 0.6556(13) 0.0977(10)
C3 C 0.6444(12) 0.4366(12) 0.0989(10)
C4 C 0.6875(14) 0.8996(14) 0.7310(10)
C5 C 0.7876(14) 0.4995(13) 0.0680(11)
H4 H 0.8558 0.4479 0.0339
C6 C 0.5156(14) 0.6431(14) 0.3467(11)
C7 C 0.6233(14) 0.8065(14) 0.5984(11)
C8 C 0.4588(14) 0.5586(14) 0.2108(11)
H5 H 0.3878 0.4523 0.1983
H6 H 0.3979 0.6109 0.1766
C9 C 0.5572(12) 0.2698(12) 0.0756(9)
C10 C 0.6256(17) 0.6094(16) 0.4134(12)
H7 H 0.6628 0.5295 0.3737
C11 C 0.6809(17) 0.6925(17) 0.5380(12)
H8 H 0.7586 0.6713 0.5824
C12 C 0.5129(18) 0.8355(17) 0.5337(14)
H9 H 0.4718 0.9117 0.5751
C13 C 0.458(2) 0.757(2) 0.4088(13)
H10 H 0.3818 0.7802 0.3654
O8 O 0.4128(9) 0.2279(9) 0.0791(7)
O10 O 0.1959(9) 0.1152(10) 0.2138(7)
O14 O 0.3791(10) 0.0112(9) 0.2088(7)
O4 O 0.3292(10) 0.0184(9) 0.8266(7)
H1 H 0.3204 0.1041 0.8189
O12 O 0.0809(9) 0.1124(9) 0.9529(7)
H2 H 0.2772 0.9407 0.7587
O7 O 0.0411(10) 0.7782(10) 0.8261(8)
H3 H 0.0829 0.7807 0.7594
O9 O 0.3660(10) 0.8195(9) 0.9551(8)
H2_2 H 0.7228 0.0593 0.2413
O7_2 O 0.9589(10) 0.2218(10) 0.1739(8)
H3_2 H 0.9171 0.2193 0.2406
O13 O 0.9270(9) 0.2401(9) 0.9230(7)
O4_2 O 0.6708(10) 0.9816(9) 0.1734(7)
H1_2 H 0.6796 0.8959 0.1811
N1_2 N 0.4116(10) 0.4473(11) 0.8548(8)
N2_2 N 0.3105(11) 0.3109(10) 0.8556(9)
C1_2 C 0.0581(13) 0.2254(12) 0.9260(10)
C2_2 C 0.1894(13) 0.3444(13) 0.9023(10)
C3_2 C 0.3556(12) 0.5634(12) 0.9011(10)
C4_2 C 0.3125(14) 0.1004(14) 0.2690(10)
C5_2 C 0.2124(14) 0.5005(13) 0.9320(11)
H4_2 H 0.1442 0.5521 0.9661
C6_2 C 0.4844(14) 0.3569(14) 0.6533(11)
C7_2 C 0.3767(14) 0.1935(14) 0.4016(11)
C8_2 C 0.5412(14) 0.4414(14) 0.7892(11)
H5_2 H 0.6122 0.5477 0.8017
H6_2 H 0.6021 0.3891 0.8234
C9_2 C 0.4428(12) 0.7302(12) 0.9244(9)
C10_2 C 0.3744(17) 0.3906(16) 0.5866(12)
H7_2 H 0.3372 0.4705 0.6263
C11_2 C 0.3191(17) 0.3075(17) 0.4620(12)
H8_2 H 0.2414 0.3287 0.4176
C12_2 C 0.4871(18) 0.1645(17) 0.4663(14)
H9_2 H 0.5282 0.0883 0.4249
C13_2 C 0.542(2) 0.243(2) 0.5912(13)
H10_2 H 0.6182 0.2198 0.6346
O8_2 O 0.5872(9) 0.7721(9) 0.9209(7)
H11 H 0.941441 0.799232 0.818482
H11_2 H 0.0585589 0.200768 0.181518
loop_
_geom_bond_atom_site_label_1
_geom_bond_atom_site_label_2
_geom_bond_site_symmetry_1
_geom_bond_site_symmetry_2
O5 Tb2 1_555 1_555
O1 C9 1_555 1_555
O2 C4 1_555 1_555
O3 C1 1_555 1_555
O6 C4 1_555 1_555
N1 N2 1_555 1_555
N2 C2 1_555 1_555
C1 C2 1_555 1_555
C2 C5 1_555 1_555
C3 N1 1_555 1_555
C4 C7 1_555 1_555
C5 C3 1_555 1_555
H4 C5 1_555 1_555
C6 C8 1_555 1_555
C7 C11 1_555 1_555
C8 N1 1_555 1_555
H5 C8 1_555 1_555
H6 C8 1_555 1_555
C9 C3 1_555 1_555
C10 C6 1_555 1_555
H7 C10 1_555 1_555
C11 C10 1_555 1_555
H8 C11 1_555 1_555
C12 C7 1_555 1_555
H9 C12 1_555 1_555
C13 C6 1_555 1_555
H10 C13 1_555 1_555
C9 O8 1_555 1_555
C12 C13 1_555 1_555
O4 H1 1_555 1_555
H3 O7 1_555 1_555
H3_2 O7_2 1_555 1_555
O13 Tb5 1_555 1_555
O4_2 H1_2 1_555 1_555
O9 C9_2 1_555 1_555
O10 C4_2 1_555 1_555
O12 C1_2 1_555 1_555
O14 C4_2 1_555 1_555
N1_2 N2_2 1_555 1_555
N2_2 C2_2 1_555 1_555
C1_2 C2_2 1_555 1_555
C2_2 C5_2 1_555 1_555
C3_2 N1_2 1_555 1_555
C4_2 C7_2 1_555 1_555
C5_2 C3_2 1_555 1_555
H4_2 C5_2 1_555 1_555
C6_2 C8_2 1_555 1_555
C7_2 C11_2 1_555 1_555
C8_2 N1_2 1_555 1_555
H5_2 C8_2 1_555 1_555
H6_2 C8_2 1_555 1_555
C9_2 C3_2 1_555 1_555
C10_2 C6_2 1_555 1_555
H7_2 C10_2 1_555 1_555
C11_2 C10_2 1_555 1_555
H8_2 C11_2 1_555 1_555
C12_2 C7_2 1_555 1_555
H9_2 C12_2 1_555 1_555
C13_2 C6_2 1_555 1_555
H10_2 C13_2 1_555 1_555
C9_2 O8_2 1_555 1_555
C12_2 C13_2 1_555 1_555

#END
