
###############################################################################
#
# This file contains modified crystal structure data generated from the
# MOF subset of the Cambridge Structural Database (CSD) v543 
# hosted by the Cambridge Crystallographic Data Centre (CCDC).
#
# This work is licensed under the Creative Commons
# Attribution-NonCommercial-ShareAlike 4.0 International License.
# To view a copy of this license, visit
# http://creativecommons.org/licenses/by-nc-sa/4.0/
# or send a letter to
# Creative Commons, PO Box 1866, Mountain View, CA 94042, USA.
#
# CIF created using the CSD Python API on 29 September 2022
# The structure has been converted into the P1 space group
# The structure has a 3D framework
# The original CSD entry GICYIC is in the monoclinic crystal system
# The framework has been calculated to contain at least 10.0% void space
# The void calculation uses a probe of radius 1.32A, grid spacing 0.4
#
###############################################################################

data_GICYIC
_chemical_formula_moiety         '(C200 H140 La14 O124)n'
_symmetry_cell_setting           triclinic
_symmetry_space_group_name_H-M   'P 1'
_symmetry_Int_Tables_number      1
_space_group_name_Hall           'P 1'
loop_
_symmetry_equiv_pos_site_id
_symmetry_equiv_pos_as_xyz
1 x,y,z
_cell_length_a                   26.745(3)
_cell_length_b                   14.5124(14)
_cell_length_c                   18.6197(18)
_cell_angle_alpha                90
_cell_angle_beta                 129.068(2)
_cell_angle_gamma                90
_cell_volume                     5610.99
loop_
_atom_site_label
_atom_site_type_symbol
_atom_site_fract_x
_atom_site_fract_y
_atom_site_fract_z
H14 H 0.2829 0.0139 0.1179
O15 O 0.2992(2) 0.1603(3) 0.0028(3)
H16 H 0.3172 0.1718 0.0591
O38 O 0.2009(2) 0.1560(3) 0.0287(3)
La1 La 0.204541(15) 0.04546(2) 0.91115(2)
La2 La 0.142853(15) 0.02582(2) 0.64483(2)
C17 C -0.0000 0.2491(7) 0.2500
H7 H 0.0000 0.3132 0.2500
C18 C 0.0304(4) 0.2013(4) 0.2234(6)
H8 H 0.0503 0.2336 0.2045
C19 C 0.0316(3) 0.1073(4) 0.2244(4)
C20 C 0.0000 0.0577(5) 0.2500
C25 C 0.0690(3) 0.0604(4) 0.2002(4)
O9 O 0.0666(2) 0.0922(3) 0.1354(3)
O12 O 0.12604(18) 0.0038(3) 0.4333(3)
H15 H 0.3123 0.1869 0.9767
O16 O 0.0389(2) 0.1166(3) 0.5587(3)
H17 H 0.0561 0.0880 0.6092
H18 H 0.0154 0.1238 0.5005
O34 O 0.1588(2) 0.2127(3) 0.8432(3)
O36 O 0.19079(19) 0.1399(3) 0.7756(3)
O40 O 0.1710(2) 0.1499(3) 0.5920(3)
O44 O 0.10257(18) 0.0109(3) 0.7443(3)
C1 C 0.3266(3) 0.9022(4) 0.8491(4)
C2 C 0.3869(3) 0.9405(5) 0.8938(5)
H1 H 0.4005 0.9884 0.9356
C3 C 0.4267(3) 0.9079(5) 0.8767(6)
H2 H 0.4669 0.9347 0.9061
C4 C 0.4074(3) 0.8360(5) 0.8163(5)
H3 H 0.4341 0.8158 0.8036
C5 C 0.3488(3) 0.7937(4) 0.7744(4)
C6 C 0.3067(2) 0.8272(4) 0.7888(3)
C7 C 0.2423(3) 0.7823(4) 0.7398(4)
C8 C 0.1941(3) 0.7963(4) 0.6454(4)
C9 C 0.1366(3) 0.7490(4) 0.5991(4)
H4 H 0.1049 0.7572 0.5358
C10 C 0.1258(3) 0.6899(5) 0.6456(5)
H5 H 0.0869 0.6585 0.6140
C11 C 0.1731(3) 0.6773(4) 0.7399(4)
H6 H 0.1654 0.6386 0.7718
C12 C 0.2316(3) 0.7217(4) 0.7869(4)
C13 C 0.2835(3) 0.9468(4) 0.8644(4)
C14 C 0.3322(3) 0.7115(4) 0.7140(4)
C15 C 0.2052(3) 0.8667(4) 0.5974(4)
C16 C 0.2847(3) 0.7043(4) 0.8881(4)
C21 C 0.0000 0.9546(5) 0.2500
C22 C 0.0369(2) 0.9063(4) 0.3329(4)
C23 C 0.0363(3) 0.8108(4) 0.3325(4)
H9 H 0.0605 0.7787 0.3882
C24 C 0.0000 0.7633(5) 0.2500
H10 H -0.0000 0.6992 0.2500
C26 C 0.0818(2) 0.9593(4) 0.4227(3)
O1 O 0.22321(19) 0.9537(3) 0.7980(3)
O2 O 0.3070(2) 0.9776(3) 0.9419(3)
O3 O 0.3412(2) 0.7127(3) 0.6568(3)
O4 O 0.30921(19) 0.6399(3) 0.7244(3)
O5 O 0.21781(19) 0.9476(3) 0.6294(3)
O6 O 0.2009(2) 0.8440(3) 0.5287(3)
O7 O 0.2829(3) 0.7417(4) 0.9456(3)
O8 O 0.3290(2) 0.6499(3) 0.9080(3)
O10 O 0.10257(18) 0.9891(3) 0.2443(3)
O11 O 0.07282(18) 0.9550(3) 0.4812(3)
O13 O 0.1930(2) 0.8693(3) 0.9084(3)
H11 H 0.1725 0.9076 0.9157
H12 H 0.2020 0.8417 0.9556
La6 La 0.295459(15) 0.54546(2) 0.58885(2)
La8 La 0.204541(15) 0.95454(2) 0.41115(2)
La10 La 0.357147(15) 0.52582(2) 0.85517(2)
La12 La 0.142853(15) 0.97418(2) 0.14483(2)
O42 O 0.0666(2) 0.9078(3) 0.6354(3)
O46 O 0.12604(18) 0.9962(3) 0.9333(3)
C17_2 C 1.0000 0.2491(7) 0.2500
H7_2 H 1.0000 0.3132 0.2500
C20_2 C 1.0000 0.0577(5) 0.2500
C27 C 0.9696(4) 0.2013(4) 0.2766(6)
H19 H 0.9497 0.2336 0.2955
C28 C 0.9684(3) 0.1073(4) 0.2756(4)
C31 C 0.9310(3) 0.0604(4) 0.2998(4)
O17 O 0.9334(2) 0.0922(3) 0.3646(3)
O20 O 0.87396(18) 0.0038(3) 0.0667(3)
La3 La 0.795459(15) 0.04546(2) 0.58885(2)
La4 La 0.857147(15) 0.02582(2) 0.85517(2)
H30 H 0.7171 0.0139 0.3821
O31 O 0.7008(2) 0.1603(3) 0.4972(3)
H31 H 0.6877 0.1869 0.5233
H32 H 0.6828 0.1718 0.4409
O32 O 0.9611(2) 0.1166(3) 0.9413(3)
H33 H 0.9439 0.0880 0.8908
H34 H 0.9846 0.1238 0.9995
O33 O 0.8412(2) 0.2127(3) 0.6568(3)
O35 O 0.80921(19) 0.1399(3) 0.7244(3)
O37 O 0.7991(2) 0.1560(3) 0.4713(3)
O39 O 0.8290(2) 0.1499(3) 0.9080(3)
O43 O 0.89743(18) 0.0109(3) 0.7557(3)
C21_2 C 1.0000 0.9546(5) 0.2500
C24_2 C 1.0000 0.7633(5) 0.2500
H10_2 H 1.0000 0.6992 0.2500
C29 C 0.9631(2) 0.9063(4) 0.1671(4)
C30 C 0.9637(3) 0.8108(4) 0.1675(4)
H20 H 0.9395 0.7787 0.1118
C32 C 0.9182(2) 0.9593(4) 0.0773(3)
O18 O 0.89743(18) 0.9891(3) 0.2557(3)
O19 O 0.92718(18) 0.9550(3) 0.0188(3)
La7 La 0.795459(15) 0.95454(2) 0.08885(2)
La11 La 0.857147(15) 0.97418(2) 0.35517(2)
C33 C 0.6734(3) 0.9022(4) 0.6509(4)
C34 C 0.6131(3) 0.9405(5) 0.6062(5)
H21 H 0.5995 0.9884 0.5644
C35 C 0.5733(3) 0.9079(5) 0.6233(6)
H22 H 0.5331 0.9347 0.5939
C36 C 0.5926(3) 0.8360(5) 0.6837(5)
H23 H 0.5659 0.8158 0.6964
C37 C 0.6512(3) 0.7937(4) 0.7256(4)
C38 C 0.6933(2) 0.8272(4) 0.7112(3)
C39 C 0.7577(3) 0.7823(4) 0.7602(4)
C40 C 0.8059(3) 0.7963(4) 0.8546(4)
C41 C 0.8634(3) 0.7490(4) 0.9009(4)
H24 H 0.8951 0.7572 0.9642
C42 C 0.8742(3) 0.6899(5) 0.8544(5)
H25 H 0.9131 0.6585 0.8860
C43 C 0.8269(3) 0.6773(4) 0.7601(4)
H26 H 0.8346 0.6386 0.7282
C44 C 0.7684(3) 0.7217(4) 0.7131(4)
C45 C 0.7165(3) 0.9468(4) 0.6356(4)
C46 C 0.6678(3) 0.7115(4) 0.7860(4)
C47 C 0.7948(3) 0.8667(4) 0.9026(4)
C48 C 0.7153(3) 0.7043(4) 0.6119(4)
O21 O 0.77679(19) 0.9537(3) 0.7020(3)
O22 O 0.6930(2) 0.9776(3) 0.5581(3)
O23 O 0.6588(2) 0.7127(3) 0.8432(3)
O24 O 0.69079(19) 0.6399(3) 0.7756(3)
O25 O 0.78219(19) 0.9476(3) 0.8706(3)
O26 O 0.7991(2) 0.8440(3) 0.9713(3)
O27 O 0.7171(3) 0.7417(4) 0.5544(3)
O28 O 0.6710(2) 0.6499(3) 0.5920(3)
O29 O 0.8070(2) 0.8693(3) 0.5916(3)
H27 H 0.8275 0.9076 0.5843
H28 H 0.7980 0.8417 0.5444
O30 O 0.7150(2) 0.9931(4) 0.4228(3)
H29 H 0.6947 0.9617 0.4149
La5 La 0.704541(15) 0.54546(2) 0.91115(2)
La9 La 0.642853(15) 0.52582(2) 0.64483(2)
O41 O 0.9334(2) 0.9078(3) 0.8646(3)
O45 O 0.87396(18) 0.9962(3) 0.5667(3)
O14 O 0.7850(2) 0.4931(4) 0.0772(3)
H13 H 0.8053 0.4617 0.0851
H14_2 H 0.7829 0.5139 0.1179
O15_2 O 0.7992(2) 0.6603(3) 0.0028(3)
H16_2 H 0.8172 0.6718 0.0591
O38_2 O 0.7009(2) 0.6560(3) 0.0287(3)
C1_2 C 0.8266(3) 0.4022(4) 0.8491(4)
C2_2 C 0.8869(3) 0.4405(5) 0.8938(5)
H1_2 H 0.9005 0.4884 0.9356
C3_2 C 0.9267(3) 0.4079(5) 0.8767(6)
H2_2 H 0.9669 0.4347 0.9061
C4_2 C 0.9074(3) 0.3360(5) 0.8163(5)
H3_2 H 0.9341 0.3158 0.8036
C5_2 C 0.8488(3) 0.2937(4) 0.7744(4)
C6_2 C 0.8067(2) 0.3272(4) 0.7888(3)
C7_2 C 0.7423(3) 0.2823(4) 0.7398(4)
C8_2 C 0.6941(3) 0.2963(4) 0.6454(4)
C9_2 C 0.6366(3) 0.2490(4) 0.5991(4)
H4_2 H 0.6049 0.2572 0.5358
C10_2 C 0.6258(3) 0.1899(5) 0.6456(5)
H5_2 H 0.5869 0.1585 0.6140
C11_2 C 0.6731(3) 0.1773(4) 0.7399(4)
H6_2 H 0.6654 0.1386 0.7718
C12_2 C 0.7316(3) 0.2217(4) 0.7869(4)
C13_2 C 0.7835(3) 0.4468(4) 0.8644(4)
C14_2 C 0.8322(3) 0.2115(4) 0.7140(4)
C15_2 C 0.7052(3) 0.3667(4) 0.5974(4)
C16_2 C 0.7847(3) 0.2043(4) 0.8881(4)
C17_3 C 0.5000 0.7491(7) 0.2500
H7_3 H 0.5000 0.8132 0.2500
C18_2 C 0.5304(4) 0.7013(4) 0.2234(6)
H8_2 H 0.5503 0.7336 0.2045
C19_2 C 0.5316(3) 0.6073(4) 0.2244(4)
C20_3 C 0.5000 0.5577(5) 0.2500
C21_3 C 0.5000 0.4546(5) 0.2500
C22_2 C 0.5369(2) 0.4063(4) 0.3329(4)
C23_2 C 0.5363(3) 0.3108(4) 0.3325(4)
H9_2 H 0.5605 0.2787 0.3882
C24_3 C 0.5000 0.2633(5) 0.2500
H10_3 H 0.5000 0.1992 0.2500
C25_2 C 0.5690(3) 0.5604(4) 0.2002(4)
C26_2 C 0.5818(2) 0.4593(4) 0.4227(3)
O1_2 O 0.72321(19) 0.4537(3) 0.7980(3)
O2_2 O 0.8070(2) 0.4776(3) 0.9419(3)
O5_2 O 0.71781(19) 0.4476(3) 0.6294(3)
O6_2 O 0.7009(2) 0.3440(3) 0.5287(3)
O7_2 O 0.7829(3) 0.2417(4) 0.9456(3)
O9_2 O 0.5666(2) 0.5922(3) 0.1354(3)
O10_2 O 0.60257(18) 0.4891(3) 0.2443(3)
O11_2 O 0.57282(18) 0.4550(3) 0.4812(3)
O12_2 O 0.62604(18) 0.5038(3) 0.4333(3)
O13_2 O 0.6930(2) 0.3693(3) 0.9084(3)
H11_2 H 0.6725 0.4076 0.9157
H12_2 H 0.7020 0.3417 0.9556
H15_2 H 0.8123 0.6869 0.9767
O16_2 O 0.5389(2) 0.6166(3) 0.5587(3)
H17_2 H 0.5561 0.5880 0.6092
H18_2 H 0.5154 0.6238 0.5005
C27_2 C 0.4696(4) 0.7013(4) 0.2766(6)
H19_2 H 0.4497 0.7336 0.2955
C28_2 C 0.4684(3) 0.6073(4) 0.2756(4)
C29_2 C 0.4631(2) 0.4063(4) 0.1671(4)
C30_2 C 0.4637(3) 0.3108(4) 0.1675(4)
H20_2 H 0.4395 0.2787 0.1118
C31_2 C 0.4310(3) 0.5604(4) 0.2998(4)
C32_2 C 0.4182(2) 0.4593(4) 0.0773(3)
O17_2 O 0.4334(2) 0.5922(3) 0.3646(3)
O18_2 O 0.39743(18) 0.4891(3) 0.2557(3)
O19_2 O 0.42718(18) 0.4550(3) 0.0188(3)
O20_2 O 0.37396(18) 0.5038(3) 0.0667(3)
La7_2 La 0.295459(15) 0.45454(2) 0.08885(2)
La8_2 La 0.704541(15) 0.45454(2) 0.41115(2)
La11_2 La 0.357147(15) 0.47418(2) 0.35517(2)
La12_2 La 0.642853(15) 0.47418(2) 0.14483(2)
O42_2 O 0.5666(2) 0.4078(3) 0.6354(3)
O44_2 O 0.60257(18) 0.5109(3) 0.7443(3)
O46_2 O 0.62604(18) 0.4962(3) 0.9333(3)
C33_2 C 0.1734(3) 0.4022(4) 0.6509(4)
C34_2 C 0.1131(3) 0.4405(5) 0.6062(5)
H21_2 H 0.0995 0.4884 0.5644
C35_2 C 0.0733(3) 0.4079(5) 0.6233(6)
H22_2 H 0.0331 0.4347 0.5939
C36_2 C 0.0926(3) 0.3360(5) 0.6837(5)
H23_2 H 0.0659 0.3158 0.6964
C37_2 C 0.1512(3) 0.2937(4) 0.7256(4)
C38_2 C 0.1933(2) 0.3272(4) 0.7112(3)
C39_2 C 0.2577(3) 0.2823(4) 0.7602(4)
C40_2 C 0.3059(3) 0.2963(4) 0.8546(4)
C41_2 C 0.3634(3) 0.2490(4) 0.9009(4)
H24_2 H 0.3951 0.2572 0.9642
C42_2 C 0.3742(3) 0.1899(5) 0.8544(5)
H25_2 H 0.4131 0.1585 0.8860
C43_2 C 0.3269(3) 0.1773(4) 0.7601(4)
H26_2 H 0.3346 0.1386 0.7282
C44_2 C 0.2684(3) 0.2217(4) 0.7131(4)
C45_2 C 0.2165(3) 0.4468(4) 0.6356(4)
C46_2 C 0.1678(3) 0.2115(4) 0.7860(4)
C47_2 C 0.2948(3) 0.3667(4) 0.9026(4)
C48_2 C 0.2153(3) 0.2043(4) 0.6119(4)
O21_2 O 0.27679(19) 0.4537(3) 0.7020(3)
O22_2 O 0.1930(2) 0.4776(3) 0.5581(3)
O25_2 O 0.28219(19) 0.4476(3) 0.8706(3)
O26_2 O 0.2991(2) 0.3440(3) 0.9713(3)
O27_2 O 0.2171(3) 0.2417(4) 0.5544(3)
O29_2 O 0.3070(2) 0.3693(3) 0.5916(3)
H27_2 H 0.3275 0.4076 0.5843
H28_2 H 0.2980 0.3417 0.5444
O30_2 O 0.2150(2) 0.4931(4) 0.4228(3)
H29_2 H 0.1947 0.4617 0.4149
H30_2 H 0.2171 0.5139 0.3821
O31_2 O 0.2008(2) 0.6603(3) 0.4972(3)
H31_2 H 0.1877 0.6869 0.5233
H32_2 H 0.1828 0.6718 0.4409
O32_2 O 0.4611(2) 0.6166(3) 0.9413(3)
H33_2 H 0.4439 0.5880 0.8908
H34_2 H 0.4846 0.6238 0.9995
O37_2 O 0.2991(2) 0.6560(3) 0.4713(3)
O41_2 O 0.4334(2) 0.4078(3) 0.8646(3)
O43_2 O 0.39743(18) 0.5109(3) 0.7557(3)
O45_2 O 0.37396(18) 0.4962(3) 0.5667(3)
C33_3 C 0.3266(3) 0.0978(4) 0.3491(4)
C34_3 C 0.3869(3) 0.0595(5) 0.3938(5)
H21_3 H 0.4005 0.0116 0.4356
C35_3 C 0.4267(3) 0.0921(5) 0.3767(6)
H22_3 H 0.4669 0.0653 0.4061
C36_3 C 0.4074(3) 0.1640(5) 0.3163(5)
H23_3 H 0.4341 0.1842 0.3036
C37_3 C 0.3488(3) 0.2063(4) 0.2744(4)
C38_3 C 0.3067(2) 0.1728(4) 0.2888(3)
C39_3 C 0.2423(3) 0.2177(4) 0.2398(4)
C40_3 C 0.1941(3) 0.2037(4) 0.1454(4)
C41_3 C 0.1366(3) 0.2510(4) 0.0991(4)
H24_3 H 0.1049 0.2428 0.0358
C42_3 C 0.1258(3) 0.3101(5) 0.1456(5)
H25_3 H 0.0869 0.3415 0.1140
C43_3 C 0.1731(3) 0.3227(4) 0.2399(4)
H26_3 H 0.1654 0.3614 0.2718
C44_3 C 0.2316(3) 0.2783(4) 0.2869(4)
C45_3 C 0.2835(3) 0.0532(4) 0.3644(4)
C46_3 C 0.3322(3) 0.2885(4) 0.2140(4)
C47_3 C 0.2052(3) 0.1333(4) 0.0974(4)
C48_3 C 0.2847(3) 0.2957(4) 0.3881(4)
O21_3 O 0.22321(19) 0.0463(3) 0.2980(3)
O22_3 O 0.3070(2) 0.0224(3) 0.4419(3)
O23_2 O 0.3412(2) 0.2873(3) 0.1568(3)
O24_2 O 0.30921(19) 0.3601(3) 0.2244(3)
O25_3 O 0.21781(19) 0.0524(3) 0.1294(3)
O27_3 O 0.2829(3) 0.2583(4) 0.4456(3)
O28_2 O 0.3290(2) 0.3501(3) 0.4080(3)
O29_3 O 0.1930(2) 0.1307(3) 0.4084(3)
H27_3 H 0.1725 0.0924 0.4157
H28_3 H 0.2020 0.1583 0.4556
O30_3 O 0.2850(2) 0.0069(4) 0.5772(3)
H29_3 H 0.3053 0.0383 0.5851
C21_4 C -0.0000 0.0454(5) 0.7500
C24_4 C -0.0000 0.2367(5) 0.7500
H10_4 H -0.0000 0.3008 0.7500
C29_3 C 0.0369(2) 0.0937(4) 0.8329(4)
C30_3 C 0.0363(3) 0.1892(4) 0.8325(4)
H20_3 H 0.0605 0.2213 0.8882
C32_3 C 0.0818(2) 0.0407(4) 0.9227(3)
O19_3 O 0.07282(18) 0.0450(3) 0.9812(3)
H30_3 H 0.2829 0.9861 0.6179
O31_3 O 0.2992(2) 0.8397(3) 0.5028(3)
H31_3 H 0.3123 0.8131 0.4767
H32_3 H 0.3172 0.8282 0.5591
O32_3 O 0.0389(2) 0.8834(3) 0.0587(3)
H33_3 H 0.0561 0.9120 0.1092
H34_3 H 0.0154 0.8762 0.0005
O33_2 O 0.1588(2) 0.7873(3) 0.3432(3)
O35_2 O 0.19079(19) 0.8601(3) 0.2756(3)
O39_2 O 0.1710(2) 0.8501(3) 0.0920(3)
C17_4 C 0.0000 0.7509(7) 0.7500
H7_4 H -0.0000 0.6868 0.7500
C20_4 C -0.0000 0.9423(5) 0.7500
C27_3 C 0.0304(4) 0.7987(4) 0.7234(6)
H19_3 H 0.0503 0.7664 0.7045
C28_3 C 0.0316(3) 0.8927(4) 0.7244(4)
C31_3 C 0.0690(3) 0.9396(4) 0.7002(4)
C1_3 C 0.6734(3) 0.0978(4) 0.1509(4)
C2_3 C 0.6131(3) 0.0595(5) 0.1062(5)
H1_3 H 0.5995 0.0116 0.0644
C3_3 C 0.5733(3) 0.0921(5) 0.1233(6)
H2_3 H 0.5331 0.0653 0.0939
C4_3 C 0.5926(3) 0.1640(5) 0.1837(5)
H3_3 H 0.5659 0.1842 0.1964
C5_3 C 0.6512(3) 0.2063(4) 0.2256(4)
C6_3 C 0.6933(2) 0.1728(4) 0.2112(3)
C7_3 C 0.7577(3) 0.2177(4) 0.2602(4)
C8_3 C 0.8059(3) 0.2037(4) 0.3546(4)
C9_3 C 0.8634(3) 0.2510(4) 0.4009(4)
H4_3 H 0.8951 0.2428 0.4642
C10_3 C 0.8742(3) 0.3101(5) 0.3544(5)
H5_3 H 0.9131 0.3415 0.3860
C11_3 C 0.8269(3) 0.3227(4) 0.2601(4)
H6_3 H 0.8346 0.3614 0.2282
C12_3 C 0.7684(3) 0.2783(4) 0.2131(4)
C13_3 C 0.7165(3) 0.0532(4) 0.1356(4)
C14_3 C 0.6678(3) 0.2885(4) 0.2860(4)
C15_3 C 0.7948(3) 0.1333(4) 0.4026(4)
C16_3 C 0.7153(3) 0.2957(4) 0.1119(4)
C21_5 C 1.0000 0.0454(5) 0.7500
C22_3 C 0.9631(2) 0.0937(4) 0.6671(4)
C23_3 C 0.9637(3) 0.1892(4) 0.6675(4)
H9_3 H 0.9395 0.2213 0.6118
C24_5 C 1.0000 0.2367(5) 0.7500
H10_5 H 1.0000 0.3008 0.7500
C26_3 C 0.9182(2) 0.0407(4) 0.5773(3)
O1_3 O 0.77679(19) 0.0463(3) 0.2020(3)
O2_3 O 0.6930(2) 0.0224(3) 0.0581(3)
O3_2 O 0.6588(2) 0.2873(3) 0.3432(3)
O4_2 O 0.69079(19) 0.3601(3) 0.2756(3)
O5_3 O 0.78219(19) 0.0524(3) 0.3706(3)
O7_3 O 0.7171(3) 0.2583(4) 0.0544(3)
O8_2 O 0.6710(2) 0.3501(3) 0.0920(3)
O11_3 O 0.92718(18) 0.0450(3) 0.5188(3)
O13_3 O 0.8070(2) 0.1307(3) 0.0916(3)
H11_3 H 0.8275 0.0924 0.0843
H12_3 H 0.7980 0.1583 0.0444
C17_5 C 1.0000 0.7509(7) 0.7500
H7_5 H 1.0000 0.6868 0.7500
C18_3 C 0.9696(4) 0.7987(4) 0.7766(6)
H8_3 H 0.9497 0.7664 0.7955
C19_3 C 0.9684(3) 0.8927(4) 0.7756(4)
C20_5 C 1.0000 0.9423(5) 0.7500
C25_3 C 0.9310(3) 0.9396(4) 0.7998(4)
H15_3 H 0.6877 0.8131 0.0233
O16_3 O 0.9611(2) 0.8834(3) 0.4413(3)
H17_3 H 0.9439 0.9120 0.3908
H18_3 H 0.9846 0.8762 0.4995
O34_2 O 0.8412(2) 0.7873(3) 0.1568(3)
O36_2 O 0.80921(19) 0.8601(3) 0.2244(3)
O40_2 O 0.8290(2) 0.8501(3) 0.4080(3)
H14_3 H 0.7171 0.9861 0.8821
O15_3 O 0.7008(2) 0.8397(3) 0.9972(3)
H16_3 H 0.6828 0.8282 0.9409
C33_4 C 0.8266(3) 0.5978(4) 0.3491(4)
C34_4 C 0.8869(3) 0.5595(5) 0.3938(5)
H21_4 H 0.9005 0.5116 0.4356
C35_4 C 0.9267(3) 0.5921(5) 0.3767(6)
H22_4 H 0.9669 0.5653 0.4061
C36_4 C 0.9074(3) 0.6640(5) 0.3163(5)
H23_4 H 0.9341 0.6842 0.3036
C37_4 C 0.8488(3) 0.7063(4) 0.2744(4)
C38_4 C 0.8067(2) 0.6728(4) 0.2888(3)
C39_4 C 0.7423(3) 0.7177(4) 0.2398(4)
C40_4 C 0.6941(3) 0.7037(4) 0.1454(4)
C41_4 C 0.6366(3) 0.7510(4) 0.0991(4)
H24_4 H 0.6049 0.7428 0.0358
C42_4 C 0.6258(3) 0.8101(5) 0.1456(5)
H25_4 H 0.5869 0.8415 0.1140
C43_4 C 0.6731(3) 0.8227(4) 0.2399(4)
H26_4 H 0.6654 0.8614 0.2718
C44_4 C 0.7316(3) 0.7783(4) 0.2869(4)
C45_4 C 0.7835(3) 0.5532(4) 0.3644(4)
C46_4 C 0.8322(3) 0.7885(4) 0.2140(4)
C47_4 C 0.7052(3) 0.6333(4) 0.0974(4)
C48_4 C 0.7847(3) 0.7957(4) 0.3881(4)
O21_4 O 0.72321(19) 0.5463(3) 0.2980(3)
O22_4 O 0.8070(2) 0.5224(3) 0.4419(3)
O25_4 O 0.71781(19) 0.5524(3) 0.1294(3)
O27_4 O 0.7829(3) 0.7583(4) 0.4456(3)
O29_4 O 0.6930(2) 0.6307(3) 0.4084(3)
H27_4 H 0.6725 0.5924 0.4157
H28_4 H 0.7020 0.6583 0.4556
O30_4 O 0.7850(2) 0.5069(4) 0.5772(3)
H29_4 H 0.8053 0.5383 0.5851
H30_4 H 0.7829 0.4861 0.6179
O31_4 O 0.7992(2) 0.3397(3) 0.5028(3)
H31_4 H 0.8123 0.3131 0.4767
H32_4 H 0.8172 0.3282 0.5591
O32_4 O 0.5389(2) 0.3834(3) 0.0587(3)
H33_4 H 0.5561 0.4120 0.1092
H34_4 H 0.5154 0.3762 0.0005
C1_4 C 0.1734(3) 0.5978(4) 0.1509(4)
C2_4 C 0.1131(3) 0.5595(5) 0.1062(5)
H1_4 H 0.0995 0.5116 0.0644
C3_4 C 0.0733(3) 0.5921(5) 0.1233(6)
H2_4 H 0.0331 0.5653 0.0939
C4_4 C 0.0926(3) 0.6640(5) 0.1837(5)
H3_4 H 0.0659 0.6842 0.1964
C5_4 C 0.1512(3) 0.7063(4) 0.2256(4)
C6_4 C 0.1933(2) 0.6728(4) 0.2112(3)
C7_4 C 0.2577(3) 0.7177(4) 0.2602(4)
C8_4 C 0.3059(3) 0.7037(4) 0.3546(4)
C9_4 C 0.3634(3) 0.7510(4) 0.4009(4)
H4_4 H 0.3951 0.7428 0.4642
C10_4 C 0.3742(3) 0.8101(5) 0.3544(5)
H5_4 H 0.4131 0.8415 0.3860
C11_4 C 0.3269(3) 0.8227(4) 0.2601(4)
H6_4 H 0.3346 0.8614 0.2282
C12_4 C 0.2684(3) 0.7783(4) 0.2131(4)
C13_4 C 0.2165(3) 0.5532(4) 0.1356(4)
C14_4 C 0.1678(3) 0.7885(4) 0.2860(4)
C15_4 C 0.2948(3) 0.6333(4) 0.4026(4)
C16_4 C 0.2153(3) 0.7957(4) 0.1119(4)
C17_6 C 0.5000 0.2509(7) 0.7500
H7_6 H 0.5000 0.1868 0.7500
C18_4 C 0.4696(4) 0.2987(4) 0.7766(6)
H8_4 H 0.4497 0.2664 0.7955
C19_4 C 0.4684(3) 0.3927(4) 0.7756(4)
C20_6 C 0.5000 0.4423(5) 0.7500
C21_6 C 0.5000 0.5454(5) 0.7500
C22_4 C 0.4631(2) 0.5937(4) 0.6671(4)
C23_4 C 0.4637(3) 0.6892(4) 0.6675(4)
H9_4 H 0.4395 0.7213 0.6118
C24_6 C 0.5000 0.7367(5) 0.7500
H10_6 H 0.5000 0.8008 0.7500
C25_4 C 0.4310(3) 0.4396(4) 0.7998(4)
C26_4 C 0.4182(2) 0.5407(4) 0.5773(3)
O1_4 O 0.27679(19) 0.5463(3) 0.2020(3)
O2_4 O 0.1930(2) 0.5224(3) 0.0581(3)
O5_4 O 0.28219(19) 0.5524(3) 0.3706(3)
O7_4 O 0.2171(3) 0.7583(4) 0.0544(3)
O11_4 O 0.42718(18) 0.5450(3) 0.5188(3)
O13_4 O 0.3070(2) 0.6307(3) 0.0916(3)
H11_4 H 0.3275 0.5924 0.0843
H12_4 H 0.2980 0.6583 0.0444
H15_4 H 0.1877 0.3131 0.0233
O16_4 O 0.4611(2) 0.3834(3) 0.4413(3)
H17_4 H 0.4439 0.4120 0.3908
H18_4 H 0.4846 0.3762 0.4995
C27_4 C 0.5304(4) 0.2987(4) 0.7234(6)
H19_4 H 0.5503 0.2664 0.7045
C28_4 C 0.5316(3) 0.3927(4) 0.7244(4)
C29_4 C 0.5369(2) 0.5937(4) 0.8329(4)
C30_4 C 0.5363(3) 0.6892(4) 0.8325(4)
H20_4 H 0.5605 0.7213 0.8882
C31_4 C 0.5690(3) 0.4396(4) 0.7002(4)
C32_4 C 0.5818(2) 0.5407(4) 0.9227(3)
O19_4 O 0.57282(18) 0.5450(3) 0.9812(3)
O14_2 O 0.2150(2) 0.5069(4) 0.9228(3)
H13_2 H 0.1947 0.5383 0.9149
H14_4 H 0.2171 0.4861 0.8821
O15_4 O 0.2008(2) 0.3397(3) 0.9972(3)
H16_4 H 0.1828 0.3282 0.9409
O14_3 O 0.2850(2) 0.9931(4) 0.0772(3)
H13_3 H 0.3053 0.9617 0.0851
O14_4 O 0.7150(2) 0.0069(4) 0.9228(3)
H13_4 H 0.6947 0.0383 0.9149
loop_
_geom_bond_atom_site_label_1
_geom_bond_atom_site_label_2
_geom_bond_site_symmetry_1
_geom_bond_site_symmetry_2
H16 O15 1_555 1_555
C17 H7 1_555 1_555
C18 C17 1_555 1_555
H8 C18 1_555 1_555
C19 C18 1_555 1_555
C20 C19 1_555 1_555
C25 C19 1_555 1_555
O9 C25 1_555 1_555
O16 La2 1_555 1_555
H17 O16 1_555 1_555
H18 O16 1_555 1_555
O34 La1 1_555 1_555
O36 La1 1_555 1_555
O40 La2 1_555 1_555
O44 La1 1_555 1_555
La2 O36 1_555 1_555
La2 O44 1_555 1_555
C1 C2 1_555 1_555
C2 H1 1_555 1_555
C3 C2 1_555 1_555
H2 C3 1_555 1_555
C4 C3 1_555 1_555
H3 C4 1_555 1_555
C5 C4 1_555 1_555
C6 C1 1_555 1_555
C7 C6 1_555 1_555
C8 C7 1_555 1_555
C9 C8 1_555 1_555
H4 C9 1_555 1_555
C10 C9 1_555 1_555
H5 C10 1_555 1_555
C11 C10 1_555 1_555
H6 C11 1_555 1_555
C12 C7 1_555 1_555
C13 C1 1_555 1_555
C14 C5 1_555 1_555
C15 C8 1_555 1_555
C16 C12 1_555 1_555
C22 C21 1_555 1_555
C23 C22 1_555 1_555
H9 C23 1_555 1_555
C24 C23 1_555 1_555
H10 C24 1_555 1_555
C26 C22 1_555 1_555
O1 C13 1_555 1_555
O3 C14 1_555 1_555
O4 C14 1_555 1_555
O6 C15 1_555 1_555
O7 C16 1_555 1_555
O8 C16 1_555 1_555
H11 O13 1_555 1_555
H12 O13 1_555 1_555
La6 O3 1_555 1_555
La8 O6 1_555 1_555
La10 O4 1_555 1_555
C5 C6 1_555 1_555
C11 C12 1_555 1_555
C13 O2 1_555 1_555
C15 O5 1_555 1_555
C26 O11 1_555 1_555
O4 La6 1_555 1_555
O8 La10 1_555 1_555
O10 La8 1_555 1_555
O10 La12 1_555 1_555
C17_2 H7_2 1_555 1_555
C27 C17_2 1_555 1_555
H19 C27 1_555 1_555
C28 C20_2 1_555 1_555
C31 C28 1_555 1_555
O17 C31 1_555 1_555
C27 C28 1_555 1_555
O31 La3 1_555 1_555
H31 O31 1_555 1_555
H32 O31 1_555 1_555
O32 La4 1_555 1_555
H33 O32 1_555 1_555
H34 O32 1_555 1_555
O33 La3 1_555 1_555
O35 La3 1_555 1_555
O37 La3 1_555 1_555
O39 La4 1_555 1_555
O43 La3 1_555 1_555
La4 O35 1_555 1_555
La4 O43 1_555 1_555
H10_2 C24_2 1_555 1_555
C29 C21_2 1_555 1_555
C30 C24_2 1_555 1_555
H20 C30 1_555 1_555
C32 C29 1_555 1_555
O19 C32 1_555 1_555
La7 O18 1_555 1_555
C29 C30 1_555 1_555
O18 La11 1_555 1_555
C33 C34 1_555 1_555
C34 H21 1_555 1_555
C35 C34 1_555 1_555
H22 C35 1_555 1_555
C36 C35 1_555 1_555
H23 C36 1_555 1_555
C37 C36 1_555 1_555
C38 C33 1_555 1_555
C39 C38 1_555 1_555
C40 C39 1_555 1_555
C41 C40 1_555 1_555
H24 C41 1_555 1_555
C42 C41 1_555 1_555
H25 C42 1_555 1_555
C43 C42 1_555 1_555
H26 C43 1_555 1_555
C44 C39 1_555 1_555
C45 C33 1_555 1_555
C46 C37 1_555 1_555
C47 C40 1_555 1_555
C48 C44 1_555 1_555
O23 C46 1_555 1_555
O24 C46 1_555 1_555
O26 C47 1_555 1_555
O27 C48 1_555 1_555
O28 C48 1_555 1_555
H27 O29 1_555 1_555
H28 O29 1_555 1_555
H29 O30 1_555 1_555
La5 O23 1_555 1_555
La9 O24 1_555 1_555
C37 C38 1_555 1_555
C43 C44 1_555 1_555
C45 O21 1_555 1_555
C45 O22 1_555 1_555
C47 O25 1_555 1_555
O24 La5 1_555 1_555
O28 La9 1_555 1_555
H13 O14 1_555 1_555
H14_2 O14 1_555 1_555
H16_2 O15_2 1_555 1_555
La5 O1_2 1_555 1_555
La9 O1_2 1_555 1_555
C1_2 C2_2 1_555 1_555
C2_2 H1_2 1_555 1_555
C3_2 C2_2 1_555 1_555
H2_2 C3_2 1_555 1_555
C4_2 C3_2 1_555 1_555
H3_2 C4_2 1_555 1_555
C5_2 C4_2 1_555 1_555
C6_2 C1_2 1_555 1_555
C7_2 C6_2 1_555 1_555
C8_2 C7_2 1_555 1_555
C9_2 C8_2 1_555 1_555
H4_2 C9_2 1_555 1_555
C10_2 C9_2 1_555 1_555
H5_2 C10_2 1_555 1_555
C11_2 C10_2 1_555 1_555
H6_2 C11_2 1_555 1_555
C12_2 C7_2 1_555 1_555
C13_2 C1_2 1_555 1_555
C14_2 C5_2 1_555 1_555
C15_2 C8_2 1_555 1_555
C16_2 C12_2 1_555 1_555
C17_3 H7_3 1_555 1_555
C18_2 C17_3 1_555 1_555
H8_2 C18_2 1_555 1_555
C19_2 C18_2 1_555 1_555
C20_3 C19_2 1_555 1_555
C21_3 C20_3 1_555 1_555
C22_2 C21_3 1_555 1_555
C23_2 C22_2 1_555 1_555
H9_2 C23_2 1_555 1_555
C24_3 C23_2 1_555 1_555
H10_3 C24_3 1_555 1_555
C25_2 C19_2 1_555 1_555
C26_2 C22_2 1_555 1_555
O1_2 C13_2 1_555 1_555
O2_2 La5 1_555 1_555
O33 C14_2 1_555 1_555
O35 C14_2 1_555 1_555
O5_2 La9 1_555 1_555
O6_2 C15_2 1_555 1_555
O7_2 C16_2 1_555 1_555
O39 C16_2 1_555 1_555
O9_2 C25_2 1_555 1_555
O10_2 C25_2 1_555 1_555
O11_2 La9 1_555 1_555
O12_2 C26_2 1_555 1_555
O13_2 La5 1_555 1_555
H11_2 O13_2 1_555 1_555
H12_2 O13_2 1_555 1_555
O16_2 La9 1_555 1_555
H17_2 O16_2 1_555 1_555
H18_2 O16_2 1_555 1_555
C27_2 C17_3 1_555 1_555
H19_2 C27_2 1_555 1_555
C28_2 C20_3 1_555 1_555
C29_2 C21_3 1_555 1_555
C30_2 C24_3 1_555 1_555
H20_2 C30_2 1_555 1_555
C31_2 C28_2 1_555 1_555
C32_2 C29_2 1_555 1_555
O17_2 C31_2 1_555 1_555
O18_2 C31_2 1_555 1_555
O19_2 C32_2 1_555 1_555
O20_2 C32_2 1_555 1_555
La7_2 O18_2 1_555 1_555
La8_2 O6_2 1_555 1_555
La11_2 O17_2 1_555 1_555
La12_2 O9_2 1_555 1_555
O42_2 La9 1_555 1_555
O44_2 La5 1_555 1_555
O46_2 La5 1_555 1_555
La9 O44_2 1_555 1_555
C5_2 C6_2 1_555 1_555
C11_2 C12_2 1_555 1_555
C13_2 O2_2 1_555 1_555
C15_2 O5_2 1_555 1_555
C26_2 O11_2 1_555 1_555
O10_2 La8_2 1_555 1_555
O10_2 La12_2 1_555 1_555
O12_2 La8_2 1_555 1_555
C27_2 C28_2 1_555 1_555
C29_2 C30_2 1_555 1_555
O18_2 La11_2 1_555 1_555
O20_2 La7_2 1_555 1_555
La6 O21_2 1_555 1_555
C33_2 C34_2 1_555 1_555
C34_2 H21_2 1_555 1_555
C35_2 C34_2 1_555 1_555
H22_2 C35_2 1_555 1_555
C36_2 C35_2 1_555 1_555
H23_2 C36_2 1_555 1_555
C37_2 C36_2 1_555 1_555
C38_2 C33_2 1_555 1_555
C39_2 C38_2 1_555 1_555
C40_2 C39_2 1_555 1_555
C41_2 C40_2 1_555 1_555
H24_2 C41_2 1_555 1_555
C42_2 C41_2 1_555 1_555
H25_2 C42_2 1_555 1_555
C43_2 C42_2 1_555 1_555
H26_2 C43_2 1_555 1_555
C44_2 C39_2 1_555 1_555
C45_2 C33_2 1_555 1_555
C46_2 C37_2 1_555 1_555
C47_2 C40_2 1_555 1_555
C48_2 C44_2 1_555 1_555
O21_2 La10 1_555 1_555
O22_2 La6 1_555 1_555
O34 C46_2 1_555 1_555
O36 C46_2 1_555 1_555
O25_2 La10 1_555 1_555
O26_2 C47_2 1_555 1_555
O27_2 C48_2 1_555 1_555
O40 C48_2 1_555 1_555
O29_2 La6 1_555 1_555
H27_2 O29_2 1_555 1_555
H28_2 O29_2 1_555 1_555
O30_2 La6 1_555 1_555
H29_2 O30_2 1_555 1_555
H30_2 O30_2 1_555 1_555
O31_2 La6 1_555 1_555
H31_2 O31_2 1_555 1_555
H32_2 O31_2 1_555 1_555
O32_2 La10 1_555 1_555
H33_2 O32_2 1_555 1_555
H34_2 O32_2 1_555 1_555
O37_2 La6 1_555 1_555
O41_2 La10 1_555 1_555
O43_2 La6 1_555 1_555
O45_2 La6 1_555 1_555
La10 O43_2 1_555 1_555
C37_2 C38_2 1_555 1_555
C43_2 C44_2 1_555 1_555
C45_2 O21_2 1_555 1_555
C45_2 O22_2 1_555 1_555
C47_2 O25_2 1_555 1_555
C33_3 C34_3 1_555 1_555
C34_3 H21_3 1_555 1_555
C35_3 C34_3 1_555 1_555
H22_3 C35_3 1_555 1_555
C36_3 C35_3 1_555 1_555
H23_3 C36_3 1_555 1_555
C37_3 C36_3 1_555 1_555
C38_3 C33_3 1_555 1_555
C39_3 C38_3 1_555 1_555
C40_3 C39_3 1_555 1_555
C41_3 C40_3 1_555 1_555
H24_3 C41_3 1_555 1_555
C42_3 C41_3 1_555 1_555
H25_3 C42_3 1_555 1_555
C43_3 C42_3 1_555 1_555
H26_3 C43_3 1_555 1_555
C44_3 C39_3 1_555 1_555
C45_3 C33_3 1_555 1_555
C46_3 C37_3 1_555 1_555
C47_3 C40_3 1_555 1_555
C48_3 C44_3 1_555 1_555
O23_2 C46_3 1_555 1_555
O24_2 C46_3 1_555 1_555
O38 C47_3 1_555 1_555
O27_3 C48_3 1_555 1_555
O28_2 C48_3 1_555 1_555
H27_3 O29_3 1_555 1_555
H28_3 O29_3 1_555 1_555
H29_3 O30_3 1_555 1_555
La7_2 O23_2 1_555 1_555
La11_2 O24_2 1_555 1_555
C37_3 C38_3 1_555 1_555
C43_3 C44_3 1_555 1_555
C45_3 O21_3 1_555 1_555
C45_3 O22_3 1_555 1_555
C47_3 O25_3 1_555 1_555
O24_2 La7_2 1_555 1_555
O28_2 La11_2 1_555 1_555
H10_4 C24_4 1_555 1_555
C29_3 C21_4 1_555 1_555
C30_3 C24_4 1_555 1_555
H20_3 C30_3 1_555 1_555
C32_3 C29_3 1_555 1_555
O19_3 C32_3 1_555 1_555
C29_3 C30_3 1_555 1_555
O31_3 La8 1_555 1_555
H31_3 O31_3 1_555 1_555
H32_3 O31_3 1_555 1_555
O32_3 La12 1_555 1_555
H33_3 O32_3 1_555 1_555
H34_3 O32_3 1_555 1_555
O33_2 La8 1_555 1_555
O35_2 La8 1_555 1_555
O39_2 La12 1_555 1_555
La12 O35_2 1_555 1_555
C17_4 H7_4 1_555 1_555
C27_3 C17_4 1_555 1_555
H19_3 C27_3 1_555 1_555
C28_3 C20_4 1_555 1_555
C31_3 C28_3 1_555 1_555
O42 C31_3 1_555 1_555
C27_3 C28_3 1_555 1_555
C1_3 C2_3 1_555 1_555
C2_3 H1_3 1_555 1_555
C3_3 C2_3 1_555 1_555
H2_3 C3_3 1_555 1_555
C4_3 C3_3 1_555 1_555
H3_3 C4_3 1_555 1_555
C5_3 C4_3 1_555 1_555
C6_3 C1_3 1_555 1_555
C7_3 C6_3 1_555 1_555
C8_3 C7_3 1_555 1_555
C9_3 C8_3 1_555 1_555
H4_3 C9_3 1_555 1_555
C10_3 C9_3 1_555 1_555
H5_3 C10_3 1_555 1_555
C11_3 C10_3 1_555 1_555
H6_3 C11_3 1_555 1_555
C12_3 C7_3 1_555 1_555
C13_3 C1_3 1_555 1_555
C14_3 C5_3 1_555 1_555
C15_3 C8_3 1_555 1_555
C16_3 C12_3 1_555 1_555
C22_3 C21_5 1_555 1_555
C23_3 C22_3 1_555 1_555
H9_3 C23_3 1_555 1_555
C24_5 C23_3 1_555 1_555
H10_5 C24_5 1_555 1_555
C26_3 C22_3 1_555 1_555
O1_3 C13_3 1_555 1_555
O3_2 C14_3 1_555 1_555
O4_2 C14_3 1_555 1_555
O37 C15_3 1_555 1_555
O7_3 C16_3 1_555 1_555
O8_2 C16_3 1_555 1_555
H11_3 O13_3 1_555 1_555
H12_3 O13_3 1_555 1_555
La8_2 O3_2 1_555 1_555
La12_2 O4_2 1_555 1_555
C5_3 C6_3 1_555 1_555
C11_3 C12_3 1_555 1_555
C13_3 O2_3 1_555 1_555
C15_3 O5_3 1_555 1_555
C26_3 O11_3 1_555 1_555
O4_2 La8_2 1_555 1_555
O8_2 La12_2 1_555 1_555
C17_5 H7_5 1_555 1_555
C18_3 C17_5 1_555 1_555
H8_3 C18_3 1_555 1_555
C19_3 C18_3 1_555 1_555
C20_5 C19_3 1_555 1_555
C25_3 C19_3 1_555 1_555
O41 C25_3 1_555 1_555
O16_3 La11 1_555 1_555
H17_3 O16_3 1_555 1_555
H18_3 O16_3 1_555 1_555
O34_2 La7 1_555 1_555
O36_2 La7 1_555 1_555
O40_2 La11 1_555 1_555
La11 O36_2 1_555 1_555
H16_3 O15_3 1_555 1_555
La8_2 O21_4 1_555 1_555
C33_4 C34_4 1_555 1_555
C34_4 H21_4 1_555 1_555
C35_4 C34_4 1_555 1_555
H22_4 C35_4 1_555 1_555
C36_4 C35_4 1_555 1_555
H23_4 C36_4 1_555 1_555
C37_4 C36_4 1_555 1_555
C38_4 C33_4 1_555 1_555
C39_4 C38_4 1_555 1_555
C40_4 C39_4 1_555 1_555
C41_4 C40_4 1_555 1_555
H24_4 C41_4 1_555 1_555
C42_4 C41_4 1_555 1_555
H25_4 C42_4 1_555 1_555
C43_4 C42_4 1_555 1_555
H26_4 C43_4 1_555 1_555
C44_4 C39_4 1_555 1_555
C45_4 C33_4 1_555 1_555
C46_4 C37_4 1_555 1_555
C47_4 C40_4 1_555 1_555
C48_4 C44_4 1_555 1_555
O21_4 La12_2 1_555 1_555
O22_4 La8_2 1_555 1_555
O34_2 C46_4 1_555 1_555
O36_2 C46_4 1_555 1_555
O25_4 La12_2 1_555 1_555
O38_2 C47_4 1_555 1_555
O27_4 C48_4 1_555 1_555
O40_2 C48_4 1_555 1_555
O29_4 La8_2 1_555 1_555
H27_4 O29_4 1_555 1_555
H28_4 O29_4 1_555 1_555
O30_4 La8_2 1_555 1_555
H29_4 O30_4 1_555 1_555
H30_4 O30_4 1_555 1_555
O31_4 La8_2 1_555 1_555
H31_4 O31_4 1_555 1_555
H32_4 O31_4 1_555 1_555
O32_4 La12_2 1_555 1_555
H33_4 O32_4 1_555 1_555
H34_4 O32_4 1_555 1_555
C37_4 C38_4 1_555 1_555
C43_4 C44_4 1_555 1_555
C45_4 O21_4 1_555 1_555
C45_4 O22_4 1_555 1_555
C47_4 O25_4 1_555 1_555
La7_2 O1_4 1_555 1_555
La11_2 O1_4 1_555 1_555
C1_4 C2_4 1_555 1_555
C2_4 H1_4 1_555 1_555
C3_4 C2_4 1_555 1_555
H2_4 C3_4 1_555 1_555
C4_4 C3_4 1_555 1_555
H3_4 C4_4 1_555 1_555
C5_4 C4_4 1_555 1_555
C6_4 C1_4 1_555 1_555
C7_4 C6_4 1_555 1_555
C8_4 C7_4 1_555 1_555
C9_4 C8_4 1_555 1_555
H4_4 C9_4 1_555 1_555
C10_4 C9_4 1_555 1_555
H5_4 C10_4 1_555 1_555
C11_4 C10_4 1_555 1_555
H6_4 C11_4 1_555 1_555
C12_4 C7_4 1_555 1_555
C13_4 C1_4 1_555 1_555
C14_4 C5_4 1_555 1_555
C15_4 C8_4 1_555 1_555
C16_4 C12_4 1_555 1_555
C17_6 H7_6 1_555 1_555
C18_4 C17_6 1_555 1_555
H8_4 C18_4 1_555 1_555
C19_4 C18_4 1_555 1_555
C20_6 C19_4 1_555 1_555
C21_6 C20_6 1_555 1_555
C22_4 C21_6 1_555 1_555
C23_4 C22_4 1_555 1_555
H9_4 C23_4 1_555 1_555
C24_6 C23_4 1_555 1_555
H10_6 C24_6 1_555 1_555
C25_4 C19_4 1_555 1_555
C26_4 C22_4 1_555 1_555
O1_4 C13_4 1_555 1_555
O2_4 La7_2 1_555 1_555
O33_2 C14_4 1_555 1_555
O35_2 C14_4 1_555 1_555
O5_4 La11_2 1_555 1_555
O37_2 C15_4 1_555 1_555
O7_4 C16_4 1_555 1_555
O39_2 C16_4 1_555 1_555
O41_2 C25_4 1_555 1_555
O43_2 C25_4 1_555 1_555
O11_4 La11_2 1_555 1_555
O45_2 C26_4 1_555 1_555
O13_4 La7_2 1_555 1_555
H11_4 O13_4 1_555 1_555
H12_4 O13_4 1_555 1_555
O16_4 La11_2 1_555 1_555
H17_4 O16_4 1_555 1_555
H18_4 O16_4 1_555 1_555
C27_4 C17_6 1_555 1_555
H19_4 C27_4 1_555 1_555
C28_4 C20_6 1_555 1_555
C29_4 C21_6 1_555 1_555
C30_4 C24_6 1_555 1_555
H20_4 C30_4 1_555 1_555
C31_4 C28_4 1_555 1_555
C32_4 C29_4 1_555 1_555
O42_2 C31_4 1_555 1_555
O44_2 C31_4 1_555 1_555
O19_4 C32_4 1_555 1_555
O46_2 C32_4 1_555 1_555
C5_4 C6_4 1_555 1_555
C11_4 C12_4 1_555 1_555
C13_4 O2_4 1_555 1_555
C15_4 O5_4 1_555 1_555
C26_4 O11_4 1_555 1_555
C27_4 C28_4 1_555 1_555
C29_4 C30_4 1_555 1_555
H13_2 O14_2 1_555 1_555
H14_4 O14_2 1_555 1_555
H16_4 O15_4 1_555 1_555
H13_3 O14_3 1_555 1_555
H13_4 O14_4 1_555 1_555

#END
