
###############################################################################
#
# This file contains modified crystal structure data generated from the
# MOF subset of the Cambridge Structural Database (CSD) v543 
# hosted by the Cambridge Crystallographic Data Centre (CCDC).
#
# This work is licensed under the Creative Commons
# Attribution-NonCommercial-ShareAlike 4.0 International License.
# To view a copy of this license, visit
# http://creativecommons.org/licenses/by-nc-sa/4.0/
# or send a letter to
# Creative Commons, PO Box 1866, Mountain View, CA 94042, USA.
#
# CIF created using the CSD Python API on 29 September 2022
# The structure has been converted into the P1 space group
# The structure has a 3D framework
# The original CSD entry GIFFEI is in the orthorhombic crystal system
# The original CSD entry GIFFEI is in a Sohncke space group
# The framework has been calculated to contain at least 10.0% void space
# The void calculation uses a probe of radius 1.32A, grid spacing 0.4
# H atom positions have been added when not included in the experimental data
#
###############################################################################

data_GIFFEI
_chemical_formula_moiety         '(C32 H48 Eu8 N24 O53)n'
_symmetry_cell_setting           triclinic
_symmetry_space_group_name_H-M   'P 1'
_symmetry_Int_Tables_number      1
_space_group_name_Hall           'P 1'
loop_
_symmetry_equiv_pos_site_id
_symmetry_equiv_pos_as_xyz
1 x,y,z
_cell_length_a                   13.2813(10)
_cell_length_b                   12.7678(10)
_cell_length_c                   12.7424(10)
_cell_angle_alpha                90
_cell_angle_beta                 90
_cell_angle_gamma                90
_cell_volume                     2160.77
loop_
_atom_site_label
_atom_site_type_symbol
_atom_site_fract_x
_atom_site_fract_y
_atom_site_fract_z
N8 N 0.059(3) 0.409(4) 0.491(4)
O18 O 0.069(3) 0.204(3) 0.492(3)
C1 C 0.053(4) 0.750(5) 0.300(4)
C3 C 0.164(6) 0.736(6) 0.286(7)
N1 N 0.003(4) 0.769(4) 0.207(4)
O3 O 0.200(4) 0.757(4) 0.196(4)
O4 O 0.215(4) 0.710(5) 0.363(4)
O7 O 0.072(2) 0.745(3) 0.547(3)
Eu3 Eu 0.24577(16) 0.71075(19) 0.54259(19)
Eu5 Eu 0.09479(16) 0.7919(2) 0.0397(2)
C5 C 0.657(4) 0.248(5) 0.508(4)
C6 C 0.822(4) 0.035(4) 0.474(5)
C7 C 0.713(4) 0.053(4) 0.491(4)
C8 C 0.649(4) 0.136(4) 0.504(4)
Eu2 Eu 0.90521(16) 0.2919(2) 0.4603(2)
N6 N 0.559(3) 0.091(4) 0.509(4)
O9 O 0.879(3) 0.114(3) 0.473(4)
O10 O 0.569(3) 0.296(3) 0.508(3)
O11 O 0.922(3) 0.275(6) 0.652(3)
O12 O 0.863(4) 0.461(4) 0.555(5)
O13 O 0.860(4) 0.474(4) 0.428(4)
O14 O 0.738(3) 0.294(3) 0.514(3)
Eu4 Eu 0.40521(16) 0.2081(2) 0.5397(2)
N7 N 0.997(4) 0.269(4) 0.293(4)
O15 O 0.800(4) 0.257(4) 0.304(4)
H7 H 0.805721 0.495271 0.477173
H8 H 0.919908 0.51921 0.439038
H9 H 0.890482 0.458474 0.627429
H10 H 0.893229 0.520986 0.516691
H11 H 0.978365 0.226642 0.668542
H12 H 0.935937 0.344849 0.683041
C2 C 0.990(4) 0.746(4) 0.381(4)
C4 C 0.989(4) 0.736(4) 0.498(4)
Eu1 Eu 0.74577(16) 0.78925(19) 0.45741(19)
N2 N 0.902(3) 0.772(4) 0.235(3)
N3 N 0.893(3) 0.759(3) 0.337(3)
N4 N 0.655(4) 0.962(4) 0.492(4)
N5 N 0.561(3) 0.986(3) 0.506(4)
O1 O 0.731(4) 0.603(4) 0.538(5)
O2 O 0.698(4) 0.650(4) 0.328(4)
O5 O 0.712(4) 0.860(6) 0.282(4)
O6 O 0.905(2) 0.733(3) 0.541(3)
O8 O 0.853(3) 0.943(3) 0.468(4)
O16 O 0.715(4) 0.790(5) 0.637(4)
O17 O 0.572(2) 0.755(3) 0.453(3)
H1 H 0.794725 0.584955 0.574528
H2 H 0.674469 0.601502 0.588979
H3 H 0.744811 0.589741 0.334842
H4 H 0.628095 0.626301 0.342152
H5 H 0.715408 0.802595 0.229543
H6 H 0.643839 0.891936 0.28069
N5_2 N 0.939(3) 0.014(3) 0.006(4)
O1_2 O 0.769(4) 0.397(4) 0.038(5)
O6_2 O 0.595(2) 0.267(3) 0.041(3)
O7_2 O 0.428(2) 0.255(3) 0.047(3)
Eu3_2 Eu 0.25423(16) 0.28925(19) 0.04259(19)
O16_2 O 0.785(4) 0.210(5) 0.137(4)
H1_2 H 0.705275 0.415045 0.0745282
H2_2 H 0.825531 0.398498 0.0889791
C1_2 C 0.447(4) 0.250(5) 0.800(4)
C2_2 C 0.510(4) 0.254(4) 0.881(4)
C3_2 C 0.336(6) 0.264(6) 0.786(7)
C4_2 C 0.511(4) 0.264(4) 0.998(4)
Eu1_2 Eu 0.75423(16) 0.21075(19) 0.95741(19)
N1_2 N 0.497(4) 0.231(4) 0.707(4)
N2_2 N 0.598(3) 0.228(4) 0.735(3)
N3_2 N 0.607(3) 0.241(3) 0.837(3)
N4_2 N 0.845(4) 0.038(4) 0.992(4)
O2_2 O 0.802(4) 0.350(4) 0.828(4)
O3_2 O 0.300(4) 0.243(4) 0.696(4)
O4_2 O 0.285(4) 0.290(5) 0.863(4)
O5_2 O 0.788(4) 0.140(6) 0.782(4)
O8_2 O 0.647(3) 0.057(3) 0.968(4)
O17_2 O 0.928(2) 0.245(3) 0.953(3)
H3_2 H 0.755189 0.410259 0.834842
H4_2 H 0.871905 0.373699 0.842152
H5_2 H 0.784592 0.197405 0.729543
H6_2 H 0.856161 0.108064 0.78069
C5_2 C 0.843(4) 0.752(5) 0.008(4)
C8_2 C 0.851(4) 0.864(4) 0.004(4)
N6_2 N 0.941(3) 0.909(4) 0.009(4)
O10_2 O 0.931(3) 0.704(3) 0.008(3)
O11_2 O 0.578(3) 0.725(6) 0.152(3)
O12_2 O 0.637(4) 0.539(4) 0.055(5)
O14_2 O 0.762(3) 0.706(3) 0.014(3)
H9_2 H 0.609518 0.541526 0.127429
H10_2 H 0.606771 0.479014 0.0166913
H11_2 H 0.521635 0.773358 0.168542
H12_2 H 0.564063 0.655151 0.183041
C6_2 C 0.678(4) 0.965(4) 0.974(5)
C7_2 C 0.787(4) 0.947(4) 0.991(4)
Eu2_2 Eu 0.59479(16) 0.7081(2) 0.9603(2)
O9_2 O 0.621(3) 0.886(3) 0.973(4)
O13_2 O 0.640(4) 0.526(4) 0.928(4)
N7_2 N 0.503(4) 0.731(4) 0.793(4)
N8_2 N 0.441(3) 0.591(4) 0.991(4)
O15_2 O 0.700(4) 0.743(4) 0.804(4)
O18_2 O 0.431(3) 0.796(3) 0.992(3)
H7_2 H 0.694279 0.504729 0.977173
H8_2 H 0.580092 0.48079 0.939038
C1_3 C 0.553(4) 0.750(5) 0.700(4)
C2_3 C 0.490(4) 0.754(4) 0.619(4)
C3_3 C 0.664(6) 0.764(6) 0.714(7)
C4_3 C 0.489(4) 0.764(4) 0.502(4)
C5_3 C 0.157(4) 0.252(5) 0.492(4)
C6_3 C 0.322(4) 0.465(4) 0.526(5)
C7_3 C 0.213(4) 0.447(4) 0.509(4)
C8_3 C 0.149(4) 0.364(4) 0.496(4)
N2_3 N 0.402(3) 0.728(4) 0.765(3)
N3_3 N 0.393(3) 0.741(3) 0.663(3)
N4_3 N 0.155(4) 0.538(4) 0.508(4)
N5_3 N 0.061(3) 0.514(3) 0.494(4)
O1_3 O 0.231(4) 0.897(4) 0.462(5)
O2_3 O 0.198(4) 0.850(4) 0.672(4)
O5_3 O 0.212(4) 0.640(6) 0.718(4)
O6_3 O 0.405(2) 0.767(3) 0.459(3)
O8_3 O 0.353(3) 0.557(3) 0.532(4)
O9_3 O 0.379(3) 0.386(3) 0.527(4)
O11_3 O 0.422(3) 0.225(6) 0.348(3)
O12_3 O 0.363(4) 0.039(4) 0.445(5)
O13_3 O 0.360(4) 0.026(4) 0.572(4)
O14_3 O 0.238(3) 0.206(3) 0.486(3)
H1_3 H 0.294725 0.915045 0.425472
H2_3 H 0.174469 0.898498 0.411021
H3_3 H 0.244811 0.910259 0.665158
H4_3 H 0.128095 0.873699 0.657848
H5_3 H 0.215408 0.697405 0.770457
H6_3 H 0.143839 0.608064 0.71931
H7_3 H 0.305721 0.00472851 0.522827
H9_3 H 0.390482 0.0415259 0.372571
H11_3 H 0.478365 0.273358 0.331458
H12_3 H 0.435937 0.155151 0.316959
C2_4 C 0.010(4) 0.246(4) 0.119(4)
C4_4 C 0.011(4) 0.236(4) 0.002(4)
C6_4 C 0.178(4) 0.535(4) 0.026(5)
C7_4 C 0.287(4) 0.553(4) 0.009(4)
N2_4 N 0.098(3) 0.272(4) 0.265(3)
N3_4 N 0.107(3) 0.259(3) 0.163(3)
N4_4 N 0.345(4) 0.462(4) 0.008(4)
O2_4 O 0.302(4) 0.150(4) 0.172(4)
O5_4 O 0.288(4) 0.360(6) 0.218(4)
O8_4 O 0.147(3) 0.443(3) 0.032(4)
O9_4 O 0.121(3) 0.614(3) 0.027(4)
O13_4 O 0.140(4) 0.974(4) 0.072(4)
H3_4 H 0.255189 0.0897415 0.165158
H4_4 H 0.371905 0.126301 0.157848
H5_4 H 0.284592 0.302595 0.270457
H6_4 H 0.356161 0.391936 0.21931
H7_4 H 0.194279 0.995271 0.0228271
C5_4 C 0.343(4) 0.748(5) 0.992(4)
C8_4 C 0.351(4) 0.636(4) 0.996(4)
N5_4 N 0.439(3) 0.486(3) 0.994(4)
O1_4 O 0.269(4) 0.103(4) 0.962(5)
O6_4 O 0.095(2) 0.233(3) 0.959(3)
O11_4 O 0.078(3) 0.775(6) 0.848(3)
O12_4 O 0.137(4) 0.961(4) 0.945(5)
O14_4 O 0.262(3) 0.794(3) 0.986(3)
H1_4 H 0.205275 0.0849552 0.925472
H2_4 H 0.325531 0.101502 0.911021
H9_4 H 0.109518 0.958474 0.872571
H11_4 H 0.0216345 0.726642 0.831458
H12_4 H 0.0640628 0.844849 0.816959
C1_4 C 0.947(4) 0.250(5) 0.200(4)
C3_4 C 0.836(6) 0.236(6) 0.214(7)
H8_3 H 0.419908 0.98079 0.560962
H10_3 H 0.393229 0.979014 0.483309
H8_4 H 0.0800917 0.0192096 0.0609617
H10_4 H 0.106771 0.0209856 0.983309
loop_
_geom_bond_atom_site_label_1
_geom_bond_atom_site_label_2
_geom_bond_site_symmetry_1
_geom_bond_site_symmetry_2
C3 C1 1_555 1_555
N1 C1 1_555 1_555
O3 C3 1_555 1_555
O4 C3 1_555 1_555
Eu3 O4 1_555 1_555
Eu5 N1 1_555 1_555
O3 Eu5 1_555 1_555
O7 Eu3 1_555 1_555
C5 C8 1_555 1_555
C6 C7 1_555 1_555
C7 C8 1_555 1_555
C8 N6 1_555 1_555
Eu2 O9 1_555 1_555
O9 C6 1_555 1_555
O10 C5 1_555 1_555
O11 Eu2 1_555 1_555
O12 Eu2 1_555 1_555
O13 Eu2 1_555 1_555
O14 C5 1_555 1_555
Eu4 N6 1_555 1_555
N7 Eu2 1_555 1_555
O15 Eu2 1_555 1_555
Eu2 O14 1_555 1_555
O10 Eu4 1_555 1_555
O13 H7 1_555 1_555
O13 H8 1_555 1_555
O12 H9 1_555 1_555
O12 H10 1_555 1_555
O11 H11 1_555 1_555
O11 H12 1_555 1_555
C2 C4 1_555 1_555
C4 O6 1_555 1_555
Eu1 N3 1_555 1_555
N3 C2 1_555 1_555
N5 N4 1_555 1_555
O1 Eu1 1_555 1_555
O2 Eu1 1_555 1_555
O5 Eu1 1_555 1_555
O6 Eu1 1_555 1_555
O16 Eu1 1_555 1_555
O17 Eu1 1_555 1_555
Eu1 N4 1_555 1_555
Eu1 O8 1_555 1_555
N2 N3 1_555 1_555
O1 H1 1_555 1_555
O1 H2 1_555 1_555
O2 H3 1_555 1_555
O2 H4 1_555 1_555
O5 H5 1_555 1_555
O5 H6 1_555 1_555
O7_2 Eu3_2 1_555 1_555
O1_2 H1_2 1_555 1_555
O1_2 H2_2 1_555 1_555
C1_2 C2_2 1_555 1_555
C2_2 C4_2 1_555 1_555
C3_2 C1_2 1_555 1_555
Eu1_2 N3_2 1_555 1_555
N1_2 C1_2 1_555 1_555
N2_2 N1_2 1_555 1_555
N3_2 C2_2 1_555 1_555
O2_2 Eu1_2 1_555 1_555
O3_2 C3_2 1_555 1_555
O4_2 C3_2 1_555 1_555
O5_2 Eu1_2 1_555 1_555
Eu4 N1_2 1_555 1_555
O17_2 Eu1_2 1_555 1_555
Eu1_2 N4_2 1_555 1_555
Eu1_2 O8_2 1_555 1_555
N2_2 N3_2 1_555 1_555
O3_2 Eu4 1_555 1_555
O2_2 H3_2 1_555 1_555
O2_2 H4_2 1_555 1_555
O5_2 H5_2 1_555 1_555
O5_2 H6_2 1_555 1_555
C5_2 C8_2 1_555 1_555
C8_2 N6_2 1_555 1_555
O10_2 C5_2 1_555 1_555
O14_2 C5_2 1_555 1_555
O12_2 H9_2 1_555 1_555
O12_2 H10_2 1_555 1_555
O11_2 H11_2 1_555 1_555
O11_2 H12_2 1_555 1_555
C6_2 C7_2 1_555 1_555
Eu2_2 O9_2 1_555 1_555
O9_2 C6_2 1_555 1_555
O13_2 Eu2_2 1_555 1_555
N7_2 Eu2_2 1_555 1_555
N8_2 Eu2_2 1_555 1_555
O15_2 Eu2_2 1_555 1_555
O18_2 Eu2_2 1_555 1_555
O13_2 H7_2 1_555 1_555
O13_2 H8_2 1_555 1_555
C1_3 C2_3 1_555 1_555
C2_3 C4_3 1_555 1_555
C3_3 C1_3 1_555 1_555
C4_3 O6_3 1_555 1_555
C5_3 C8_3 1_555 1_555
C6_3 C7_3 1_555 1_555
C7_3 C8_3 1_555 1_555
C8_3 N8 1_555 1_555
Eu3 N3_3 1_555 1_555
Eu4 O9_3 1_555 1_555
N7_2 C1_3 1_555 1_555
N2_3 N7_2 1_555 1_555
N3_3 C2_3 1_555 1_555
N4_3 C7_3 1_555 1_555
N5_3 N4_3 1_555 1_555
N8 N5_3 1_555 1_555
O1_3 Eu3 1_555 1_555
O2_3 Eu3 1_555 1_555
O15_2 C3_3 1_555 1_555
O16 C3_3 1_555 1_555
O5_3 Eu3 1_555 1_555
O6_3 Eu3 1_555 1_555
O17 C4_3 1_555 1_555
O8_3 C6_3 1_555 1_555
O9_3 C6_3 1_555 1_555
O18 C5_3 1_555 1_555
O11_3 Eu4 1_555 1_555
O12_3 Eu4 1_555 1_555
O13_3 Eu4 1_555 1_555
O14_3 C5_3 1_555 1_555
Eu3 N4_3 1_555 1_555
Eu3 O8_3 1_555 1_555
Eu4 O14_3 1_555 1_555
N2_3 N3_3 1_555 1_555
O1_3 H1_3 1_555 1_555
O1_3 H2_3 1_555 1_555
O2_3 H3_3 1_555 1_555
O2_3 H4_3 1_555 1_555
O5_3 H5_3 1_555 1_555
O5_3 H6_3 1_555 1_555
O13_3 H7_3 1_555 1_555
O12_3 H9_3 1_555 1_555
O11_3 H11_3 1_555 1_555
O11_3 H12_3 1_555 1_555
C2_4 C4_4 1_555 1_555
C6_4 C7_4 1_555 1_555
Eu3_2 N3_4 1_555 1_555
Eu5 O9_4 1_555 1_555
N3_4 C2_4 1_555 1_555
N4_4 C7_4 1_555 1_555
O2_4 Eu3_2 1_555 1_555
O5_4 Eu3_2 1_555 1_555
O8_4 C6_4 1_555 1_555
O9_4 C6_4 1_555 1_555
O13_4 Eu5 1_555 1_555
Eu3_2 N4_4 1_555 1_555
Eu3_2 O8_4 1_555 1_555
N2_4 N3_4 1_555 1_555
O2_4 H3_4 1_555 1_555
O2_4 H4_4 1_555 1_555
O5_4 H5_4 1_555 1_555
O5_4 H6_4 1_555 1_555
O13_4 H7_4 1_555 1_555
C5_4 C8_4 1_555 1_555
C8_4 N8_2 1_555 1_555
N8_2 N5_4 1_555 1_555
O18_2 C5_4 1_555 1_555
O14_4 C5_4 1_555 1_555
O1_4 H1_4 1_555 1_555
O1_4 H2_4 1_555 1_555
O12_4 H9_4 1_555 1_555
O11_4 H11_4 1_555 1_555
O11_4 H12_4 1_555 1_555
C3_4 C1_4 1_555 1_555
N7 C1_4 1_555 1_555
O15 C3_4 1_555 1_555
O16_2 C3_4 1_555 1_555

#END
