
###############################################################################
#
# This file contains modified crystal structure data generated from the
# MOF subset of the Cambridge Structural Database (CSD) v543 
# hosted by the Cambridge Crystallographic Data Centre (CCDC).
#
# This work is licensed under the Creative Commons
# Attribution-NonCommercial-ShareAlike 4.0 International License.
# To view a copy of this license, visit
# http://creativecommons.org/licenses/by-nc-sa/4.0/
# or send a letter to
# Creative Commons, PO Box 1866, Mountain View, CA 94042, USA.
#
# CIF created using the CSD Python API on 29 September 2022
# The structure has been converted into the P1 space group
# The structure has a 3D framework
# The original CSD entry GIFJUD is in the monoclinic crystal system
# The framework has been calculated to contain at least 10.0% void space
# The void calculation uses a probe of radius 1.32A, grid spacing 0.4
# The framework is charged, counterions have been retained in the structure
#
###############################################################################

data_GIFJUD
_chemical_formula_moiety         '(C198 H94 N24 O112 Yb16 4-)n'
_symmetry_cell_setting           triclinic
_symmetry_space_group_name_H-M   'P 1'
_symmetry_Int_Tables_number      1
_space_group_name_Hall           'P 1'
loop_
_symmetry_equiv_pos_site_id
_symmetry_equiv_pos_as_xyz
1 x,y,z
_cell_length_a                   22.59404(20)
_cell_length_b                   14.31168(11)
_cell_length_c                   24.5365(2)
_cell_angle_alpha                90
_cell_angle_beta                 99.5912(9)
_cell_angle_gamma                90
_cell_volume                     7823.18
loop_
_atom_site_label
_atom_site_type_symbol
_atom_site_fract_x
_atom_site_fract_y
_atom_site_fract_z
Yb1 Yb 0.242910(19) 0.74302(3) 0.170529(18)
Yb2 Yb 0.147604(19) 0.48156(3) 0.251240(18)
O1 O 0.2749(3) 0.5989(4) 0.1668(3)
O2 O 0.6935(3) 0.7965(5) 0.2527(2)
O3 O 0.1542(3) 0.3147(5) 0.6185(3)
O4 O 0.3673(3) 0.1287(4) 0.2119(3)
O5 O 0.0493(3) 0.4969(5) 0.2551(3)
O6 O 0.6966(3) 0.3796(4) 0.1674(3)
O7 O 0.1741(3) 0.2823(5) 0.3616(3)
O8 O 0.0995(3) 0.5509(5) 0.1712(3)
H1 H 0.0959 0.5118 0.1442
H2 H 0.1198 0.5984 0.1632
O9 O 0.7609(3) 0.4953(5) 0.1942(3)
O10 O 0.2161(3) 0.4865(5) 0.1917(3)
O11 O 0.3063(3) 0.1913(4) 0.2632(3)
O12 O 0.1328(3) 0.4188(5) 0.3326(3)
O13 O 0.2185(3) 0.2521(5) 0.5720(3)
N1 N 0.4913(4) 0.5302(5) 0.1846(4)
N2 N 0.0065(5) 0.4951(9) 0.4765(4)
N3 N 0.4828(4) 0.4434(6) 0.1866(4)
C1 C 0.0761(5) 0.4238(9) 0.4256(4)
H3 H 0.0557 0.4531 0.3942
C2 C 0.1461(4) 0.3554(7) 0.3678(4)
C3 C 0.2648(4) 0.5155(6) 0.1806(4)
C4 C 0.0875(5) 0.3938(9) 0.5239(4)
H4 H 0.0741 0.4020 0.5575
C5 C 0.0000 0.4554(9) 0.2500
H5 H 0.0000 0.3904 0.2500
C6 C 0.3432(4) 0.1991(6) 0.2299(4)
C7 C 0.1247(4) 0.3679(7) 0.4224(4)
C8 C 0.7090(4) 0.4631(6) 0.1820(4)
C9 C 0.1716(4) 0.2982(7) 0.5728(4)
C10 C 0.5529(4) 0.5567(7) 0.1871(4)
C11 C 0.1557(4) 0.3245(7) 0.4696(4)
H6 H 0.1883 0.2860 0.4670
C12 C 0.1375(4) 0.3391(8) 0.5210(4)
C13 C 0.6255(4) 0.6814(6) 0.2082(4)
C14 C 0.5989(4) 0.4947(7) 0.1796(4)
H7 H 0.5902 0.4326 0.1702
C15 C 0.4133(4) 0.3241(7) 0.2032(4)
H8 H 0.4452 0.2822 0.2079
C16 C 0.0577(6) 0.4360(10) 0.4763(5)
C17 C 0.5659(4) 0.6510(7) 0.2000(4)
H9 H 0.5352 0.6928 0.2032
C18 C 0.3086(4) 0.3574(7) 0.2017(4)
H10 H 0.2706 0.3376 0.2067
C19 C 0.3739(4) 0.4798(6) 0.1796(4)
H11 H 0.3800 0.5412 0.1694
C20 C 0.3166(4) 0.4496(6) 0.1857(4)
C21 C 0.6580(4) 0.5272(6) 0.1862(4)
C22 C 0.4216(4) 0.4175(7) 0.1890(4)
C23 C 0.3558(4) 0.2955(6) 0.2102(4)
C24 C 0.6706(4) 0.6198(6) 0.2015(4)
H12 H 0.7102 0.6403 0.2074
O14 O 0.6046(3) 0.8444(4) 0.2108(3)
C25 C 0.6415(4) 0.7801(6) 0.2250(4)
Yb6 Yb 0.757090(19) 0.74302(3) 0.329471(18)
Yb8 Yb 0.742910(19) 0.24302(3) 0.170529(18)
Yb10 Yb 0.257090(19) 0.24302(3) 0.329471(18)
Yb11 Yb 0.242910(19) 0.25698(3) 0.670529(18)
Yb14 Yb 0.852396(19) 0.48156(3) 0.248760(18)
Yb16 Yb 0.647604(19) 0.98156(3) 0.251240(18)
O30 O 0.3065(3) 0.7965(5) 0.2473(2)
O31 O 0.1935(3) 0.2965(5) 0.2527(2)
O33 O 0.1542(3) 0.6853(5) 0.1185(3)
O35 O 0.1327(3) 0.6287(4) 0.2881(3)
O36 O 0.1966(3) 0.8796(4) 0.1674(3)
O39 O 0.3259(3) 0.7823(5) 0.1384(3)
O41 O 0.2391(3) 0.4953(5) 0.3058(3)
O43 O 0.1937(3) 0.6913(4) 0.2368(3)
O45 O 0.2185(3) 0.7479(5) 0.0720(3)
O46 O 0.1046(3) 0.3444(4) 0.2108(3)
Yb18 Yb 0.352396(19) 0.98156(3) 0.248760(18)
C5_2 C 1.0000 0.4554(9) 0.2500
H5_2 H 1.0000 0.3904 0.2500
O15 O 0.9507(3) 0.4969(5) 0.2449(3)
O16 O 0.8672(3) 0.5812(5) 0.6674(3)
N4 N 0.9935(5) 0.5049(9) 0.5235(4)
C26 C 0.9239(5) 0.5762(9) 0.5744(4)
H13 H 0.9443 0.5469 0.6058
C27 C 0.8539(4) 0.6446(7) 0.6322(4)
C28 C 0.9125(5) 0.6062(9) 0.4761(4)
H14 H 0.9259 0.5980 0.4425
C29 C 0.8753(4) 0.6321(7) 0.5776(4)
C30 C 0.8443(4) 0.6755(7) 0.5304(4)
H15 H 0.8117 0.7140 0.5330
C31 C 0.8625(4) 0.6609(8) 0.4790(4)
C32 C 0.9423(6) 0.5640(10) 0.5237(5)
O17 O 0.8458(3) 0.6853(5) 0.3815(3)
O18 O 0.7815(3) 0.7479(5) 0.4280(3)
C33 C 0.8284(4) 0.7018(7) 0.4272(4)
O19 O 0.8259(3) 0.7177(5) 0.6384(3)
O20 O 0.7251(3) 0.5989(4) 0.3332(3)
O22 O 0.6327(3) 0.1287(4) 0.2881(3)
O23 O 0.3034(3) 0.3796(4) 0.3326(3)
O24 O 0.9005(3) 0.5509(5) 0.3288(3)
H16 H 0.9041 0.5118 0.3558
H17 H 0.8802 0.5984 0.3368
O26 O 0.7839(3) 0.4865(5) 0.3083(3)
O27 O 0.6937(3) 0.1913(4) 0.2368(3)
N5 N 0.5087(4) 0.5302(5) 0.3154(4)
N6 N 0.5172(4) 0.4434(6) 0.3134(4)
C34 C 0.7352(4) 0.5155(6) 0.3194(4)
C35 C 0.6568(4) 0.1991(6) 0.2701(4)
C36 C 0.2910(4) 0.4631(6) 0.3180(4)
C37 C 0.4471(4) 0.5567(7) 0.3129(4)
C38 C 0.3745(4) 0.6814(6) 0.2918(4)
C39 C 0.4011(4) 0.4947(7) 0.3204(4)
H18 H 0.4098 0.4326 0.3298
C40 C 0.5867(4) 0.3241(7) 0.2968(4)
H19 H 0.5548 0.2822 0.2921
C41 C 0.4341(4) 0.6510(7) 0.3000(4)
H20 H 0.4648 0.6928 0.2968
C42 C 0.6914(4) 0.3574(7) 0.2983(4)
H21 H 0.7294 0.3376 0.2933
C43 C 0.6261(4) 0.4798(6) 0.3204(4)
H22 H 0.6200 0.5412 0.3306
C44 C 0.6834(4) 0.4496(6) 0.3143(4)
C45 C 0.3420(4) 0.5272(6) 0.3138(4)
C46 C 0.5784(4) 0.4175(7) 0.3110(4)
C47 C 0.6442(4) 0.2955(6) 0.2898(4)
C48 C 0.3294(4) 0.6198(6) 0.2985(4)
H23 H 0.2898 0.6403 0.2926
O28 O 0.3954(3) 0.8444(4) 0.2892(3)
C49 C 0.3585(4) 0.7801(6) 0.2750(4)
Yb12 Yb 0.742910(19) 0.75698(3) 0.670529(18)
Yb19 Yb 0.852396(19) 0.51844(3) 0.748760(18)
O32 O 0.8065(3) 0.2965(5) 0.2473(2)
O34 O 0.8673(3) 0.6287(4) 0.2119(3)
O37 O 0.8034(3) 0.8796(4) 0.3326(3)
O38 O 0.6741(3) 0.7823(5) 0.3616(3)
O42 O 0.8063(3) 0.6913(4) 0.2632(3)
O44 O 0.8672(3) 0.4188(5) 0.1674(3)
O47 O 0.8954(3) 0.3444(4) 0.2892(3)
C28_2 C 0.0875(5) 0.6062(9) 0.0239(4)
H14_2 H 0.0741 0.5980 0.0575
C31_2 C 0.1375(4) 0.6609(8) 0.0210(4)
C33_2 C 0.1716(4) 0.7018(7) 0.0728(4)
O16_2 O 0.1328(3) 0.5812(5) 0.8326(3)
N4_2 N 0.0065(5) 0.5049(9) 0.9765(4)
C26_2 C 0.0761(5) 0.5762(9) 0.9256(4)
H13_2 H 0.0557 0.5469 0.8942
C27_2 C 0.1461(4) 0.6446(7) 0.8678(4)
C29_2 C 0.1247(4) 0.6321(7) 0.9224(4)
C30_2 C 0.1557(4) 0.6755(7) 0.9696(4)
H15_2 H 0.1883 0.7140 0.9670
C32_2 C 0.0577(6) 0.5640(10) 0.9763(5)
O19_2 O 0.1741(3) 0.7177(5) 0.8616(3)
Yb12_2 Yb 0.257090(19) 0.75698(3) 0.829471(18)
Yb19_2 Yb 0.147604(19) 0.51844(3) 0.751240(18)
O7_2 O 0.8259(3) 0.2823(5) 0.1384(3)
N2_2 N 0.9935(5) 0.4951(9) 0.0235(4)
C1_2 C 0.9239(5) 0.4238(9) 0.0744(4)
H3_2 H 0.9443 0.4531 0.1058
C2_2 C 0.8539(4) 0.3554(7) 0.1322(4)
C7_2 C 0.8753(4) 0.3679(7) 0.0776(4)
C11_2 C 0.8443(4) 0.3245(7) 0.0304(4)
H6_2 H 0.8117 0.2860 0.0330
C16_2 C 0.9423(6) 0.4360(10) 0.0237(5)
O3_2 O 0.8458(3) 0.3147(5) 0.8815(3)
O13_2 O 0.7815(3) 0.2521(5) 0.9280(3)
C4_2 C 0.9125(5) 0.3938(9) 0.9761(4)
H4_2 H 0.9259 0.4020 0.9425
C9_2 C 0.8284(4) 0.2982(7) 0.9272(4)
C12_2 C 0.8625(4) 0.3391(8) 0.9790(4)
Yb11_2 Yb 0.757090(19) 0.25698(3) 0.829471(18)
C10_2 C 0.0529(4) 0.0567(7) 0.1871(4)
C13_2 C 0.1255(4) 0.1814(6) 0.2082(4)
C17_2 C 0.0659(4) 0.1510(7) 0.2000(4)
H9_2 H 0.0352 0.1928 0.2032
C21_2 C 0.1580(4) 0.0272(6) 0.1862(4)
C24_2 C 0.1706(4) 0.1198(6) 0.2015(4)
H12_2 H 0.2102 0.1403 0.2074
C25_2 C 0.1415(4) 0.2801(6) 0.2250(4)
O9_2 O 0.2609(3) 0.9953(5) 0.1942(3)
C8_2 C 0.2090(4) 0.9631(6) 0.1820(4)
C14_2 C 0.0989(4) 0.9947(7) 0.1796(4)
H7_2 H 0.0902 0.9326 0.1702
O1_2 O 0.7749(3) 0.0989(4) 0.1668(3)
O8_2 O 0.5995(3) 0.0509(5) 0.1712(3)
H1_2 H 0.5959 0.0118 0.1442
H2_2 H 0.6198 0.0984 0.1632
N1_2 N 0.9913(4) 0.0302(5) 0.1846(4)
C3_2 C 0.7648(4) 0.0155(6) 0.1806(4)
H11_2 H 0.8800 0.0412 0.1694
O16_3 O 0.3672(3) 0.0812(5) 0.6674(3)
N4_3 N 0.4935(5) 0.0049(9) 0.5235(4)
C26_3 C 0.4239(5) 0.0762(9) 0.5744(4)
H13_3 H 0.4443 0.0469 0.6058
C27_3 C 0.3539(4) 0.1446(7) 0.6322(4)
C28_3 C 0.4125(5) 0.1062(9) 0.4761(4)
H14_3 H 0.4259 0.0980 0.4425
C29_3 C 0.3753(4) 0.1321(7) 0.5776(4)
C30_3 C 0.3443(4) 0.1755(7) 0.5304(4)
H15_3 H 0.3117 0.2140 0.5330
C31_3 C 0.3625(4) 0.1609(8) 0.4790(4)
C32_3 C 0.4423(6) 0.0640(10) 0.5237(5)
O17_2 O 0.3458(3) 0.1853(5) 0.3815(3)
O18_2 O 0.2815(3) 0.2479(5) 0.4280(3)
C33_3 C 0.3284(4) 0.2018(7) 0.4272(4)
O19_3 O 0.3259(3) 0.2177(5) 0.6384(3)
O20_2 O 0.2251(3) 0.0989(4) 0.3332(3)
O24_2 O 0.4005(3) 0.0509(5) 0.3288(3)
H16_2 H 0.4041 0.0118 0.3558
H17_2 H 0.3802 0.0984 0.3368
N5_2 N 0.0087(4) 0.0302(5) 0.3154(4)
C34_2 C 0.2352(4) 0.0155(6) 0.3194(4)
H22_2 H 0.1200 0.0412 0.3306
Yb19_3 Yb 0.352396(19) 0.01844(3) 0.748760(18)
O33_2 O 0.6542(3) 0.1853(5) 0.1185(3)
O45_2 O 0.7185(3) 0.2479(5) 0.0720(3)
O3_3 O 0.6542(3) 0.8147(5) 0.6185(3)
O5_2 O 0.5493(3) 0.9969(5) 0.2551(3)
O10_2 O 0.7161(3) 0.9865(5) 0.1917(3)
O12_2 O 0.6328(3) 0.9188(5) 0.3326(3)
O13_3 O 0.7185(3) 0.7521(5) 0.5720(3)
N2_3 N 0.5065(5) 0.9951(9) 0.4765(4)
N3_2 N 0.9828(4) 0.9434(6) 0.1866(4)
C1_3 C 0.5761(5) 0.9238(9) 0.4256(4)
H3_3 H 0.5557 0.9531 0.3942
C2_3 C 0.6461(4) 0.8554(7) 0.3678(4)
C4_3 C 0.5875(5) 0.8938(9) 0.5239(4)
H4_3 H 0.5741 0.9020 0.5575
C5_3 C 0.5000 0.9554(9) 0.2500
H5_3 H 0.5000 0.8904 0.2500
C6_2 C 0.8432(4) 0.6991(6) 0.2299(4)
C7_3 C 0.6247(4) 0.8679(7) 0.4224(4)
C9_3 C 0.6716(4) 0.7982(7) 0.5728(4)
C11_3 C 0.6557(4) 0.8245(7) 0.4696(4)
H6_3 H 0.6883 0.7860 0.4670
C12_3 C 0.6375(4) 0.8391(8) 0.5210(4)
C15_2 C 0.9133(4) 0.8241(7) 0.2032(4)
H8_2 H 0.9452 0.7822 0.2079
C16_3 C 0.5577(6) 0.9360(10) 0.4763(5)
C18_2 C 0.8086(4) 0.8574(7) 0.2017(4)
H10_2 H 0.7706 0.8376 0.2067
C19_2 C 0.8739(4) 0.9798(6) 0.1796(4)
C20_2 C 0.8166(4) 0.9496(6) 0.1857(4)
C22_2 C 0.9216(4) 0.9175(7) 0.1890(4)
C23_2 C 0.8558(4) 0.7955(6) 0.2102(4)
O15_2 O 0.4507(3) 0.9969(5) 0.2449(3)
O26_2 O 0.2839(3) 0.9865(5) 0.3083(3)
N6_2 N 0.0172(4) 0.9434(6) 0.3134(4)
C35_2 C 0.1568(4) 0.6991(6) 0.2701(4)
C40_2 C 0.0867(4) 0.8241(7) 0.2968(4)
H19_2 H 0.0548 0.7822 0.2921
C42_2 C 0.1914(4) 0.8574(7) 0.2983(4)
H21_2 H 0.2294 0.8376 0.2933
C43_2 C 0.1261(4) 0.9798(6) 0.3204(4)
C44_2 C 0.1834(4) 0.9496(6) 0.3143(4)
C46_2 C 0.0784(4) 0.9175(7) 0.3110(4)
C47_2 C 0.1442(4) 0.7955(6) 0.2898(4)
O41_2 O 0.7391(3) 0.9953(5) 0.3058(3)
O44_2 O 0.3672(3) 0.9188(5) 0.1674(3)
C37_2 C 0.9471(4) 0.0567(7) 0.3129(4)
C38_2 C 0.8745(4) 0.1814(6) 0.2918(4)
C41_2 C 0.9341(4) 0.1510(7) 0.3000(4)
H20_2 H 0.9648 0.1928 0.2968
C45_2 C 0.8420(4) 0.0272(6) 0.3138(4)
C48_2 C 0.8294(4) 0.1198(6) 0.2985(4)
H23_2 H 0.7898 0.1403 0.2926
C49_2 C 0.8585(4) 0.2801(6) 0.2750(4)
C36_2 C 0.7910(4) 0.9631(6) 0.3180(4)
C39_2 C 0.9011(4) 0.9947(7) 0.3204(4)
H18_2 H 0.9098 0.9326 0.3298
C28_4 C 0.5875(5) 0.1062(9) 0.0239(4)
H14_4 H 0.5741 0.0980 0.0575
C31_4 C 0.6375(4) 0.1609(8) 0.0210(4)
C33_4 C 0.6716(4) 0.2018(7) 0.0728(4)
O16_4 O 0.6328(3) 0.0812(5) 0.8326(3)
N4_4 N 0.5065(5) 0.0049(9) 0.9765(4)
C26_4 C 0.5761(5) 0.0762(9) 0.9256(4)
H13_4 H 0.5557 0.0469 0.8942
C27_4 C 0.6461(4) 0.1446(7) 0.8678(4)
C29_4 C 0.6247(4) 0.1321(7) 0.9224(4)
C30_4 C 0.6557(4) 0.1755(7) 0.9696(4)
H15_4 H 0.6883 0.2140 0.9670
C32_4 C 0.5577(6) 0.0640(10) 0.9763(5)
O19_4 O 0.6741(3) 0.2177(5) 0.8616(3)
Yb19_4 Yb 0.647604(19) 0.01844(3) 0.751240(18)
N2_4 N 0.4935(5) 0.9951(9) 0.0235(4)
C1_4 C 0.4239(5) 0.9238(9) 0.0744(4)
H3_4 H 0.4443 0.9531 0.1058
C2_4 C 0.3539(4) 0.8554(7) 0.1322(4)
C7_4 C 0.3753(4) 0.8679(7) 0.0776(4)
C11_4 C 0.3443(4) 0.8245(7) 0.0304(4)
H6_4 H 0.3117 0.7860 0.0330
C16_4 C 0.4423(6) 0.9360(10) 0.0237(5)
O3_4 O 0.3458(3) 0.8147(5) 0.8815(3)
O13_4 O 0.2815(3) 0.7521(5) 0.9280(3)
C4_4 C 0.4125(5) 0.8938(9) 0.9761(4)
H4_4 H 0.4259 0.9020 0.9425
C9_4 C 0.3284(4) 0.7982(7) 0.9272(4)
C12_4 C 0.3625(4) 0.8391(8) 0.9790(4)
C5_4 C 0.0000 0.5446(9) 0.7500
H5_4 H 0.0000 0.6096 0.7500
O15_3 O 0.0493(3) 0.5031(5) 0.7551(3)
O20_3 O 0.2749(3) 0.4011(4) 0.6668(3)
O21 O 0.6935(3) 0.2035(5) 0.7527(2)
O22_2 O 0.3673(3) 0.8713(4) 0.7119(3)
O23_2 O 0.6966(3) 0.6204(4) 0.6674(3)
O24_3 O 0.0995(3) 0.4491(5) 0.6712(3)
H16_3 H 0.0959 0.4882 0.6442
H17_3 H 0.1198 0.4016 0.6632
O25 O 0.7609(3) 0.5047(5) 0.6942(3)
O26_3 O 0.2161(3) 0.5135(5) 0.6917(3)
O27_2 O 0.3063(3) 0.8087(4) 0.7632(3)
N5_3 N 0.4913(4) 0.4698(5) 0.6846(4)
N6_3 N 0.4828(4) 0.5566(6) 0.6866(4)
C34_3 C 0.2648(4) 0.4845(6) 0.6806(4)
C35_3 C 0.3432(4) 0.8009(6) 0.7299(4)
C36_3 C 0.7090(4) 0.5369(6) 0.6820(4)
C37_3 C 0.5529(4) 0.4433(7) 0.6871(4)
C38_3 C 0.6255(4) 0.3186(6) 0.7082(4)
C39_3 C 0.5989(4) 0.5053(7) 0.6796(4)
H18_3 H 0.5902 0.5674 0.6702
C40_3 C 0.4133(4) 0.6759(7) 0.7032(4)
H19_3 H 0.4452 0.7178 0.7079
C41_3 C 0.5659(4) 0.3490(7) 0.7000(4)
H20_3 H 0.5352 0.3072 0.7032
C42_3 C 0.3086(4) 0.6426(7) 0.7017(4)
H21_3 H 0.2706 0.6624 0.7067
C43_3 C 0.3739(4) 0.5202(6) 0.6796(4)
H22_3 H 0.3800 0.4588 0.6694
C44_3 C 0.3166(4) 0.5504(6) 0.6857(4)
C45_3 C 0.6580(4) 0.4728(6) 0.6862(4)
C46_3 C 0.4216(4) 0.5825(7) 0.6890(4)
C47_3 C 0.3558(4) 0.7045(6) 0.7102(4)
C48_3 C 0.6706(4) 0.3802(6) 0.7015(4)
H23_3 H 0.7102 0.3597 0.7074
O28_2 O 0.6046(3) 0.1556(4) 0.7108(3)
C49_3 C 0.6415(4) 0.2199(6) 0.7250(4)
O29 O 0.3065(3) 0.2035(5) 0.7473(2)
O32_2 O 0.1935(3) 0.7035(5) 0.7527(2)
O34_2 O 0.1327(3) 0.3713(4) 0.7881(3)
O37_2 O 0.1966(3) 0.1204(4) 0.6674(3)
O40 O 0.2391(3) 0.5047(5) 0.8058(3)
O42_2 O 0.1937(3) 0.3087(4) 0.7368(3)
O47_2 O 0.1046(3) 0.6556(4) 0.7108(3)
O1_3 O 0.7251(3) 0.4011(4) 0.8332(3)
O4_2 O 0.6327(3) 0.8713(4) 0.7881(3)
O5_3 O 0.9507(3) 0.5031(5) 0.7449(3)
O6_2 O 0.3034(3) 0.6204(4) 0.8326(3)
O8_3 O 0.9005(3) 0.4491(5) 0.8288(3)
H1_3 H 0.9041 0.4882 0.8558
H2_3 H 0.8802 0.4016 0.8368
O10_3 O 0.7839(3) 0.5135(5) 0.8083(3)
O11_2 O 0.6937(3) 0.8087(4) 0.7368(3)
N1_3 N 0.5087(4) 0.4698(5) 0.8154(4)
N3_3 N 0.5172(4) 0.5566(6) 0.8134(4)
C3_3 C 0.7352(4) 0.4845(6) 0.8194(4)
C5_5 C 1.0000 0.5446(9) 0.7500
H5_5 H 1.0000 0.6096 0.7500
C6_3 C 0.6568(4) 0.8009(6) 0.7701(4)
C8_3 C 0.2910(4) 0.5369(6) 0.8180(4)
C10_3 C 0.4471(4) 0.4433(7) 0.8129(4)
C13_3 C 0.3745(4) 0.3186(6) 0.7918(4)
C14_3 C 0.4011(4) 0.5053(7) 0.8204(4)
H7_3 H 0.4098 0.5674 0.8298
C15_3 C 0.5867(4) 0.6759(7) 0.7968(4)
H8_3 H 0.5548 0.7178 0.7921
C17_3 C 0.4341(4) 0.3490(7) 0.8000(4)
H9_3 H 0.4648 0.3072 0.7968
C18_3 C 0.6914(4) 0.6426(7) 0.7983(4)
H10_3 H 0.7294 0.6624 0.7933
C19_3 C 0.6261(4) 0.5202(6) 0.8204(4)
H11_3 H 0.6200 0.4588 0.8306
C20_3 C 0.6834(4) 0.5504(6) 0.8143(4)
C21_3 C 0.3420(4) 0.4728(6) 0.8138(4)
C22_3 C 0.5784(4) 0.5825(7) 0.8110(4)
C23_3 C 0.6442(4) 0.7045(6) 0.7898(4)
C24_3 C 0.3294(4) 0.3802(6) 0.7985(4)
H12_3 H 0.2898 0.3597 0.7926
O14_2 O 0.3954(3) 0.1556(4) 0.7892(3)
C25_3 C 0.3585(4) 0.2199(6) 0.7750(4)
O31_2 O 0.8065(3) 0.7035(5) 0.7473(2)
O35_2 O 0.8673(3) 0.3713(4) 0.7119(3)
O36_2 O 0.8034(3) 0.1204(4) 0.8326(3)
O43_2 O 0.8063(3) 0.3087(4) 0.7632(3)
O46_2 O 0.8954(3) 0.6556(4) 0.7892(3)
O25_2 O 0.2609(3) 0.0047(5) 0.6942(3)
C36_4 C 0.2090(4) 0.0369(6) 0.6820(4)
C39_4 C 0.0989(4) 0.0053(7) 0.6796(4)
H18_4 H 0.0902 0.0674 0.6702
C37_4 C 0.0529(4) 0.9433(7) 0.6871(4)
C38_4 C 0.1255(4) 0.8186(6) 0.7082(4)
C41_4 C 0.0659(4) 0.8490(7) 0.7000(4)
H20_4 H 0.0352 0.8072 0.7032
C45_4 C 0.1580(4) 0.9728(6) 0.6862(4)
C48_4 C 0.1706(4) 0.8802(6) 0.7015(4)
H23_4 H 0.2102 0.8597 0.7074
C49_4 C 0.1415(4) 0.7199(6) 0.7250(4)
O5_4 O 0.4507(3) 0.0031(5) 0.7449(3)
O10_4 O 0.2839(3) 0.0135(5) 0.8083(3)
N3_4 N 0.0172(4) 0.0566(6) 0.8134(4)
C5_6 C 0.5000 0.0446(9) 0.7500
H5_6 H 0.5000 0.1096 0.7500
C6_4 C 0.1568(4) 0.3009(6) 0.7701(4)
C15_4 C 0.0867(4) 0.1759(7) 0.7968(4)
H8_4 H 0.0548 0.2178 0.7921
C18_4 C 0.1914(4) 0.1426(7) 0.7983(4)
H10_4 H 0.2294 0.1624 0.7933
C19_4 C 0.1261(4) 0.0202(6) 0.8204(4)
C20_4 C 0.1834(4) 0.0504(6) 0.8143(4)
C22_4 C 0.0784(4) 0.0825(7) 0.8110(4)
C23_4 C 0.1442(4) 0.2045(6) 0.7898(4)
O15_4 O 0.5493(3) 0.0031(5) 0.7551(3)
O26_4 O 0.7161(3) 0.0135(5) 0.6917(3)
N6_4 N 0.9828(4) 0.0566(6) 0.6866(4)
C35_4 C 0.8432(4) 0.3009(6) 0.7299(4)
C40_4 C 0.9133(4) 0.1759(7) 0.7032(4)
H19_4 H 0.9452 0.2178 0.7079
C42_4 C 0.8086(4) 0.1426(7) 0.7017(4)
H21_4 H 0.7706 0.1624 0.7067
C43_4 C 0.8739(4) 0.0202(6) 0.6796(4)
C44_4 C 0.8166(4) 0.0504(6) 0.6857(4)
C46_4 C 0.9216(4) 0.0825(7) 0.6890(4)
C47_4 C 0.8558(4) 0.2045(6) 0.7102(4)
O40_2 O 0.7391(3) 0.0047(5) 0.8058(3)
O1_4 O 0.2251(3) 0.9011(4) 0.8332(3)
O8_4 O 0.4005(3) 0.9491(5) 0.8288(3)
H1_4 H 0.4041 0.9882 0.8558
H2_4 H 0.3802 0.9016 0.8368
N1_4 N 0.0087(4) 0.9698(5) 0.8154(4)
C3_4 C 0.2352(4) 0.9845(6) 0.8194(4)
H11_4 H 0.1200 0.9588 0.8306
O20_4 O 0.7749(3) 0.9011(4) 0.6668(3)
O24_4 O 0.5995(3) 0.9491(5) 0.6712(3)
H16_4 H 0.5959 0.9882 0.6442
H17_4 H 0.6198 0.9016 0.6632
N5_4 N 0.9913(4) 0.9698(5) 0.6846(4)
C34_4 C 0.7648(4) 0.9845(6) 0.6806(4)
H22_4 H 0.8800 0.9588 0.6694
C8_4 C 0.7910(4) 0.0369(6) 0.8180(4)
C14_4 C 0.9011(4) 0.0053(7) 0.8204(4)
H7_4 H 0.9098 0.0674 0.8298
C10_4 C 0.9471(4) 0.9433(7) 0.8129(4)
C13_4 C 0.8745(4) 0.8186(6) 0.7918(4)
C17_4 C 0.9341(4) 0.8490(7) 0.8000(4)
H9_4 H 0.9648 0.8072 0.7968
C21_4 C 0.8420(4) 0.9728(6) 0.8138(4)
C24_4 C 0.8294(4) 0.8802(6) 0.7985(4)
H12_4 H 0.7898 0.8597 0.7926
C25_4 C 0.8585(4) 0.7199(6) 0.7750(4)
loop_
_geom_bond_atom_site_label_1
_geom_bond_atom_site_label_2
_geom_bond_site_symmetry_1
_geom_bond_site_symmetry_2
Yb1 O1 1_555 1_555
Yb2 O5 1_555 1_555
O1 C3 1_555 1_555
O2 C25 1_555 1_555
O3 C9 1_555 1_555
O4 C6 1_555 1_555
O5 C5 1_555 1_555
O6 C8 1_555 1_555
O7 C2 1_555 1_555
O8 Yb2 1_555 1_555
H1 O8 1_555 1_555
H2 O8 1_555 1_555
O9 C8 1_555 1_555
O10 Yb2 1_555 1_555
O11 C6 1_555 1_555
O12 Yb2 1_555 1_555
O13 C9 1_555 1_555
N1 N3 1_555 1_555
N2 C16 1_555 1_555
N3 C22 1_555 1_555
C1 H3 1_555 1_555
C2 O12 1_555 1_555
C3 O10 1_555 1_555
C4 H4 1_555 1_555
C5 H5 1_555 1_555
C6 C23 1_555 1_555
C7 C1 1_555 1_555
C8 C21 1_555 1_555
C9 C12 1_555 1_555
C10 N1 1_555 1_555
C11 C7 1_555 1_555
H6 C11 1_555 1_555
C12 C4 1_555 1_555
C13 C17 1_555 1_555
C14 C10 1_555 1_555
H7 C14 1_555 1_555
C15 H8 1_555 1_555
C16 C1 1_555 1_555
C17 C10 1_555 1_555
H9 C17 1_555 1_555
C18 H10 1_555 1_555
C19 H11 1_555 1_555
C20 C3 1_555 1_555
C21 C14 1_555 1_555
C22 C15 1_555 1_555
C23 C15 1_555 1_555
C24 C13 1_555 1_555
H12 C24 1_555 1_555
O14 C25 1_555 1_555
C25 C13 1_555 1_555
Yb6 O2 1_555 1_555
Yb8 O6 1_555 1_555
Yb10 O7 1_555 1_555
Yb11 O3 1_555 1_555
Yb14 O9 1_555 1_555
Yb16 O2 1_555 1_555
O30 Yb1 1_555 1_555
O31 Yb2 1_555 1_555
O33 Yb1 1_555 1_555
O35 Yb2 1_555 1_555
O36 Yb1 1_555 1_555
O39 Yb1 1_555 1_555
O41 Yb2 1_555 1_555
O43 Yb1 1_555 1_555
O45 Yb1 1_555 1_555
O46 Yb2 1_555 1_555
O11 Yb10 1_555 1_555
O13 Yb11 1_555 1_555
C2 C7 1_555 1_555
C4 C16 1_555 1_555
C11 C12 1_555 1_555
C18 C20 1_555 1_555
C18 C23 1_555 1_555
C19 C20 1_555 1_555
C19 C22 1_555 1_555
C21 C24 1_555 1_555
O14 Yb16 1_555 1_555
Yb10 O31 1_555 1_555
C5_2 H5_2 1_555 1_555
O15 C5_2 1_555 1_555
O16 C27 1_555 1_555
C26 H13 1_555 1_555
C27 C29 1_555 1_555
C28 H14 1_555 1_555
C29 C26 1_555 1_555
C30 C29 1_555 1_555
H15 C30 1_555 1_555
C31 C28 1_555 1_555
C32 N4 1_555 1_555
O17 C33 1_555 1_555
O18 C33 1_555 1_555
C33 C31 1_555 1_555
O19 C27 1_555 1_555
Yb6 O17 1_555 1_555
Yb14 O15 1_555 1_555
O20 Yb6 1_555 1_555
O30 C49 1_555 1_555
O22 C35 1_555 1_555
O23 C36 1_555 1_555
O24 Yb14 1_555 1_555
H16 O24 1_555 1_555
H17 O24 1_555 1_555
O41 C36 1_555 1_555
O26 Yb14 1_555 1_555
O27 C35 1_555 1_555
N5 N6 1_555 1_555
N6 C46 1_555 1_555
C34 O20 1_555 1_555
C35 C47 1_555 1_555
C36 C45 1_555 1_555
C37 N5 1_555 1_555
C38 C41 1_555 1_555
C39 C37 1_555 1_555
H18 C39 1_555 1_555
C40 H19 1_555 1_555
C41 C37 1_555 1_555
H20 C41 1_555 1_555
C42 H21 1_555 1_555
C43 H22 1_555 1_555
C44 C34 1_555 1_555
C45 C39 1_555 1_555
C46 C40 1_555 1_555
C47 C40 1_555 1_555
C48 C38 1_555 1_555
H23 C48 1_555 1_555
O28 C49 1_555 1_555
C49 C38 1_555 1_555
Yb8 O27 1_555 1_555
Yb10 O23 1_555 1_555
Yb12 O19 1_555 1_555
Yb18 O30 1_555 1_555
Yb19 O16 1_555 1_555
O32 Yb14 1_555 1_555
O34 Yb14 1_555 1_555
O37 Yb6 1_555 1_555
O38 Yb6 1_555 1_555
O42 Yb6 1_555 1_555
O44 Yb14 1_555 1_555
O47 Yb14 1_555 1_555
C26 C32 1_555 1_555
C28 C32 1_555 1_555
C30 C31 1_555 1_555
O18 Yb6 1_555 1_555
O26 C34 1_555 1_555
C42 C44 1_555 1_555
C42 C47 1_555 1_555
C43 C44 1_555 1_555
C43 C46 1_555 1_555
C45 C48 1_555 1_555
O28 Yb18 1_555 1_555
Yb8 O32 1_555 1_555
C28_2 H14_2 1_555 1_555
C31_2 C28_2 1_555 1_555
O33 C33_2 1_555 1_555
O45 C33_2 1_555 1_555
C33_2 C31_2 1_555 1_555
O16_2 C27_2 1_555 1_555
C26_2 H13_2 1_555 1_555
C27_2 C29_2 1_555 1_555
C29_2 C26_2 1_555 1_555
C30_2 C29_2 1_555 1_555
H15_2 C30_2 1_555 1_555
C32_2 N4_2 1_555 1_555
O19_2 C27_2 1_555 1_555
Yb12_2 O19_2 1_555 1_555
Yb19_2 O16_2 1_555 1_555
C26_2 C32_2 1_555 1_555
O7_2 C2_2 1_555 1_555
N2_2 C16_2 1_555 1_555
C1_2 H3_2 1_555 1_555
C2_2 O44 1_555 1_555
C7_2 C1_2 1_555 1_555
C11_2 C7_2 1_555 1_555
H6_2 C11_2 1_555 1_555
C16_2 C1_2 1_555 1_555
Yb8 O7_2 1_555 1_555
C2_2 C7_2 1_555 1_555
O3_2 C9_2 1_555 1_555
O13_2 C9_2 1_555 1_555
C4_2 H4_2 1_555 1_555
C9_2 C12_2 1_555 1_555
C12_2 C4_2 1_555 1_555
Yb11_2 O3_2 1_555 1_555
O13_2 Yb11_2 1_555 1_555
O31 C25_2 1_555 1_555
C13_2 C17_2 1_555 1_555
C17_2 C10_2 1_555 1_555
H9_2 C17_2 1_555 1_555
C24_2 C13_2 1_555 1_555
H12_2 C24_2 1_555 1_555
O46 C25_2 1_555 1_555
C25_2 C13_2 1_555 1_555
C21_2 C24_2 1_555 1_555
O36 C8_2 1_555 1_555
O9_2 C8_2 1_555 1_555
H7_2 C14_2 1_555 1_555
Yb18 O9_2 1_555 1_555
Yb8 O1_2 1_555 1_555
O1_2 C3_2 1_555 1_555
H1_2 O8_2 1_555 1_555
H2_2 O8_2 1_555 1_555
O16_3 C27_3 1_555 1_555
C26_3 H13_3 1_555 1_555
C27_3 C29_3 1_555 1_555
C28_3 H14_3 1_555 1_555
C29_3 C26_3 1_555 1_555
C30_3 C29_3 1_555 1_555
H15_3 C30_3 1_555 1_555
C31_3 C28_3 1_555 1_555
C32_3 N4_3 1_555 1_555
O17_2 C33_3 1_555 1_555
O18_2 C33_3 1_555 1_555
C33_3 C31_3 1_555 1_555
O19_3 C27_3 1_555 1_555
Yb10 O17_2 1_555 1_555
O20_2 Yb10 1_555 1_555
H16_2 O24_2 1_555 1_555
H17_2 O24_2 1_555 1_555
C34_2 O20_2 1_555 1_555
Yb11 O19_3 1_555 1_555
Yb19_3 O16_3 1_555 1_555
O33_2 Yb8 1_555 1_555
O45_2 Yb8 1_555 1_555
C26_3 C32_3 1_555 1_555
C28_3 C32_3 1_555 1_555
C30_3 C31_3 1_555 1_555
O18_2 Yb10 1_555 1_555
Yb16 O5_2 1_555 1_555
O3_3 C9_3 1_555 1_555
O34 C6_2 1_555 1_555
O5_2 C5_3 1_555 1_555
O38 C2_3 1_555 1_555
O10_2 Yb16 1_555 1_555
O42 C6_2 1_555 1_555
O12_2 Yb16 1_555 1_555
O13_3 C9_3 1_555 1_555
N2_3 C16_3 1_555 1_555
N3_2 C22_2 1_555 1_555
C1_3 H3_3 1_555 1_555
C2_3 O12_2 1_555 1_555
C4_3 H4_3 1_555 1_555
C5_3 H5_3 1_555 1_555
C6_2 C23_2 1_555 1_555
C7_3 C1_3 1_555 1_555
C9_3 C12_3 1_555 1_555
C11_3 C7_3 1_555 1_555
H6_3 C11_3 1_555 1_555
C12_3 C4_3 1_555 1_555
C15_2 H8_2 1_555 1_555
C16_3 C1_3 1_555 1_555
C18_2 H10_2 1_555 1_555
C22_2 C15_2 1_555 1_555
C23_2 C15_2 1_555 1_555
O15_2 C5_3 1_555 1_555
Yb18 O15_2 1_555 1_555
O35 C35_2 1_555 1_555
O26_2 Yb18 1_555 1_555
O43 C35_2 1_555 1_555
N6_2 C46_2 1_555 1_555
C35_2 C47_2 1_555 1_555
C40_2 H19_2 1_555 1_555
C42_2 H21_2 1_555 1_555
C46_2 C40_2 1_555 1_555
C47_2 C40_2 1_555 1_555
Yb12 O3_3 1_555 1_555
O41_2 Yb16 1_555 1_555
O44_2 Yb18 1_555 1_555
O13_3 Yb12 1_555 1_555
C2_3 C7_3 1_555 1_555
C4_3 C16_3 1_555 1_555
C11_3 C12_3 1_555 1_555
C18_2 C20_2 1_555 1_555
C18_2 C23_2 1_555 1_555
C19_2 C20_2 1_555 1_555
C19_2 C22_2 1_555 1_555
C42_2 C44_2 1_555 1_555
C42_2 C47_2 1_555 1_555
C43_2 C44_2 1_555 1_555
C43_2 C46_2 1_555 1_555
O32 C49_2 1_555 1_555
C38_2 C41_2 1_555 1_555
C41_2 C37_2 1_555 1_555
H20_2 C41_2 1_555 1_555
C48_2 C38_2 1_555 1_555
H23_2 C48_2 1_555 1_555
O47 C49_2 1_555 1_555
C49_2 C38_2 1_555 1_555
C45_2 C48_2 1_555 1_555
O37 C36_2 1_555 1_555
O41_2 C36_2 1_555 1_555
H18_2 C39_2 1_555 1_555
C28_4 H14_4 1_555 1_555
C31_4 C28_4 1_555 1_555
O33_2 C33_4 1_555 1_555
O45_2 C33_4 1_555 1_555
C33_4 C31_4 1_555 1_555
O16_4 C27_4 1_555 1_555
C26_4 H13_4 1_555 1_555
C27_4 C29_4 1_555 1_555
C29_4 C26_4 1_555 1_555
C30_4 C29_4 1_555 1_555
H15_4 C30_4 1_555 1_555
C32_4 N4_4 1_555 1_555
O19_4 C27_4 1_555 1_555
Yb11_2 O19_4 1_555 1_555
Yb19_4 O16_4 1_555 1_555
C26_4 C32_4 1_555 1_555
O39 C2_4 1_555 1_555
N2_4 C16_4 1_555 1_555
C1_4 H3_4 1_555 1_555
C2_4 O44_2 1_555 1_555
C7_4 C1_4 1_555 1_555
C11_4 C7_4 1_555 1_555
H6_4 C11_4 1_555 1_555
C16_4 C1_4 1_555 1_555
C2_4 C7_4 1_555 1_555
O3_4 C9_4 1_555 1_555
O13_4 C9_4 1_555 1_555
C4_4 H4_4 1_555 1_555
C9_4 C12_4 1_555 1_555
C12_4 C4_4 1_555 1_555
Yb12_2 O3_4 1_555 1_555
O13_4 Yb12_2 1_555 1_555
C5_4 H5_4 1_555 1_555
O15_3 C5_4 1_555 1_555
Yb19_2 O15_3 1_555 1_555
O20_3 Yb11 1_555 1_555
O21 C49_3 1_555 1_555
O22_2 C35_3 1_555 1_555
O23_2 C36_3 1_555 1_555
O24_3 Yb19_2 1_555 1_555
H16_3 O24_3 1_555 1_555
H17_3 O24_3 1_555 1_555
O25 C36_3 1_555 1_555
O26_3 Yb19_2 1_555 1_555
O27_2 C35_3 1_555 1_555
N5_3 N6_3 1_555 1_555
N6_3 C46_3 1_555 1_555
C34_3 O20_3 1_555 1_555
C35_3 C47_3 1_555 1_555
C36_3 C45_3 1_555 1_555
C37_3 N5_3 1_555 1_555
C38_3 C41_3 1_555 1_555
C39_3 C37_3 1_555 1_555
H18_3 C39_3 1_555 1_555
C40_3 H19_3 1_555 1_555
C41_3 C37_3 1_555 1_555
H20_3 C41_3 1_555 1_555
C42_3 H21_3 1_555 1_555
C43_3 H22_3 1_555 1_555
C44_3 C34_3 1_555 1_555
C45_3 C39_3 1_555 1_555
C46_3 C40_3 1_555 1_555
C47_3 C40_3 1_555 1_555
C48_3 C38_3 1_555 1_555
H23_3 C48_3 1_555 1_555
O28_2 C49_3 1_555 1_555
C49_3 C38_3 1_555 1_555
Yb11_2 O21 1_555 1_555
Yb12_2 O27_2 1_555 1_555
Yb12 O23_2 1_555 1_555
Yb19 O25 1_555 1_555
Yb19_4 O21 1_555 1_555
O29 Yb11 1_555 1_555
O32_2 Yb19_2 1_555 1_555
O34_2 Yb19_2 1_555 1_555
O37_2 Yb11 1_555 1_555
O40 Yb19_2 1_555 1_555
O42_2 Yb11 1_555 1_555
O47_2 Yb19_2 1_555 1_555
O26_3 C34_3 1_555 1_555
C42_3 C44_3 1_555 1_555
C42_3 C47_3 1_555 1_555
C43_3 C44_3 1_555 1_555
C43_3 C46_3 1_555 1_555
C45_3 C48_3 1_555 1_555
O28_2 Yb19_4 1_555 1_555
Yb12_2 O32_2 1_555 1_555
Yb11_2 O1_3 1_555 1_555
Yb19 O5_3 1_555 1_555
O1_3 C3_3 1_555 1_555
O29 C25_3 1_555 1_555
O4_2 C6_3 1_555 1_555
O5_3 C5_5 1_555 1_555
O6_2 C8_3 1_555 1_555
O8_3 Yb19 1_555 1_555
H1_3 O8_3 1_555 1_555
H2_3 O8_3 1_555 1_555
O40 C8_3 1_555 1_555
O10_3 Yb19 1_555 1_555
O11_2 C6_3 1_555 1_555
N1_3 N3_3 1_555 1_555
N3_3 C22_3 1_555 1_555
C3_3 O10_3 1_555 1_555
C5_5 H5_5 1_555 1_555
C6_3 C23_3 1_555 1_555
C8_3 C21_3 1_555 1_555
C10_3 N1_3 1_555 1_555
C13_3 C17_3 1_555 1_555
C14_3 C10_3 1_555 1_555
H7_3 C14_3 1_555 1_555
C15_3 H8_3 1_555 1_555
C17_3 C10_3 1_555 1_555
H9_3 C17_3 1_555 1_555
C18_3 H10_3 1_555 1_555
C19_3 H11_3 1_555 1_555
C20_3 C3_3 1_555 1_555
C21_3 C14_3 1_555 1_555
C22_3 C15_3 1_555 1_555
C23_3 C15_3 1_555 1_555
C24_3 C13_3 1_555 1_555
H12_3 C24_3 1_555 1_555
O14_2 C25_3 1_555 1_555
C25_3 C13_3 1_555 1_555
Yb12_2 O6_2 1_555 1_555
Yb19_3 O29 1_555 1_555
O31_2 Yb19 1_555 1_555
O35_2 Yb19 1_555 1_555
O36_2 Yb11_2 1_555 1_555
O43_2 Yb11_2 1_555 1_555
O46_2 Yb19 1_555 1_555
O11_2 Yb12 1_555 1_555
C18_3 C20_3 1_555 1_555
C18_3 C23_3 1_555 1_555
C19_3 C20_3 1_555 1_555
C19_3 C22_3 1_555 1_555
C21_3 C24_3 1_555 1_555
O14_2 Yb19_3 1_555 1_555
Yb12 O31_2 1_555 1_555
O37_2 C36_4 1_555 1_555
O25_2 C36_4 1_555 1_555
H18_4 C39_4 1_555 1_555
Yb19_3 O25_2 1_555 1_555
O32_2 C49_4 1_555 1_555
C38_4 C41_4 1_555 1_555
C41_4 C37_4 1_555 1_555
H20_4 C41_4 1_555 1_555
C48_4 C38_4 1_555 1_555
H23_4 C48_4 1_555 1_555
O47_2 C49_4 1_555 1_555
C49_4 C38_4 1_555 1_555
C45_4 C48_4 1_555 1_555
Yb19_3 O5_4 1_555 1_555
O34_2 C6_4 1_555 1_555
O5_4 C5_6 1_555 1_555
O10_4 Yb19_3 1_555 1_555
O42_2 C6_4 1_555 1_555
N3_4 C22_4 1_555 1_555
C5_6 H5_6 1_555 1_555
C6_4 C23_4 1_555 1_555
C15_4 H8_4 1_555 1_555
C18_4 H10_4 1_555 1_555
C22_4 C15_4 1_555 1_555
C23_4 C15_4 1_555 1_555
O15_4 C5_6 1_555 1_555
Yb19_4 O15_4 1_555 1_555
O35_2 C35_4 1_555 1_555
O26_4 Yb19_4 1_555 1_555
O43_2 C35_4 1_555 1_555
N6_4 C46_4 1_555 1_555
C35_4 C47_4 1_555 1_555
C40_4 H19_4 1_555 1_555
C42_4 H21_4 1_555 1_555
C46_4 C40_4 1_555 1_555
C47_4 C40_4 1_555 1_555
O40_2 Yb19_4 1_555 1_555
C18_4 C20_4 1_555 1_555
C18_4 C23_4 1_555 1_555
C19_4 C20_4 1_555 1_555
C19_4 C22_4 1_555 1_555
C42_4 C44_4 1_555 1_555
C42_4 C47_4 1_555 1_555
C43_4 C44_4 1_555 1_555
C43_4 C46_4 1_555 1_555
Yb12_2 O1_4 1_555 1_555
O1_4 C3_4 1_555 1_555
H1_4 O8_4 1_555 1_555
H2_4 O8_4 1_555 1_555
O20_4 Yb12 1_555 1_555
H16_4 O24_4 1_555 1_555
H17_4 O24_4 1_555 1_555
C34_4 O20_4 1_555 1_555
O36_2 C8_4 1_555 1_555
O40_2 C8_4 1_555 1_555
H7_4 C14_4 1_555 1_555
O31_2 C25_4 1_555 1_555
C13_4 C17_4 1_555 1_555
C17_4 C10_4 1_555 1_555
H9_4 C17_4 1_555 1_555
C24_4 C13_4 1_555 1_555
H12_4 C24_4 1_555 1_555
O46_2 C25_4 1_555 1_555
C25_4 C13_4 1_555 1_555
C21_4 C24_4 1_555 1_555

#END
