
###############################################################################
#
# This file contains modified crystal structure data generated from the
# MOF subset of the Cambridge Structural Database (CSD) v543 
# hosted by the Cambridge Crystallographic Data Centre (CCDC).
#
# This work is licensed under the Creative Commons
# Attribution-NonCommercial-ShareAlike 4.0 International License.
# To view a copy of this license, visit
# http://creativecommons.org/licenses/by-nc-sa/4.0/
# or send a letter to
# Creative Commons, PO Box 1866, Mountain View, CA 94042, USA.
#
# CIF created using the CSD Python API on 29 September 2022
# The structure has been converted into the P1 space group
# The structure has a 3D framework
# The original CSD entry GIFKAH is in the triclinic crystal system
# The framework has been calculated to contain at least 10.0% void space
# The void calculation uses a probe of radius 1.32A, grid spacing 0.4
# H atom positions have been added when not included in the experimental data
#
###############################################################################

data_GIFKAH
_chemical_formula_moiety         '(C10 H20 Cd4 N6 Ni2)n'
_symmetry_cell_setting           triclinic
_symmetry_space_group_name_H-M   'P 1'
_symmetry_Int_Tables_number      1
_space_group_name_Hall           'P 1'
loop_
_symmetry_equiv_pos_site_id
_symmetry_equiv_pos_as_xyz
1 x,y,z
_cell_length_a                   9.725(2)
_cell_length_b                   7.598(1)
_cell_length_c                   7.177(1)
_cell_angle_alpha                90.44(1)
_cell_angle_beta                 98.80(1)
_cell_angle_gamma                95.70(1)
_cell_volume                     521.338
loop_
_atom_site_label
_atom_site_type_symbol
_atom_site_fract_x
_atom_site_fract_y
_atom_site_fract_z
Cd2 Cd 0.00000 0.00000 0.00000
Cd2_2 Cd 0.00000 0.00000 1.00000
Cd2_3 Cd 0.00000 1.00000 0.00000
Cd2_4 Cd 0.00000 1.00000 1.00000
N8 N 0.0635(3) 0.2297(3) 0.2282(3)
N3 N 0.2288(3) 0.0178(4) 0.9397(2)
C3 C 0.2537(3) 0.0222(5) 0.7415(4)
C4 C 0.4062(3) 0.0132(5) 0.7218(4)
C5 C 0.4228(3) 0.0074(5) 0.5102(5)
H1 H 0.30689 0.10074 0.99622
H2 H 0.18680 0.09659 0.70726
H3 H 0.46870 0.11237 0.78350
H5 H 0.35116 0.11229 0.47798
H9 H 0.63607 0.13481 0.55221
Cd2_5 Cd 1.00000 0.00000 0.00000
H14 H 0.560782 0.108551 0.214924
H15 H 0.796287 0.105323 0.31633
H18 H 0.740207 0.100941 0.0172109
Cd2_6 Cd 1.00000 0.00000 1.00000
Ni1 Ni -0.00000 0.5 0.50000
N1 N 0.0526(3) 0.7868(3) 0.2288(3)
C1 C 0.0354(3) 0.6783(3) 0.3336(3)
C2 C 0.0426(3) 0.3325(3) 0.3334(3)
H4 H 0.36393 0.86519 0.44779
C6 C 0.5772(3) 0.9926(5) 0.4898(5)
C7 C 0.5938(3) 0.9868(5) 0.2782(4)
C8 C 0.7463(3) 0.9778(5) 0.2585(4)
N4 N 0.7712(3) 0.9822(4) 0.0603(2)
H6 H 0.69311 0.89926 0.00378
H7 H 0.81320 0.90341 0.29274
H8 H 0.53130 0.88763 0.21650
H10 H 0.64884 0.88771 0.52202
Cd2_7 Cd 1.00000 1.00000 0.00000
H16 H 0.203713 0.894677 0.68367
H17 H 0.439218 0.891449 0.785076
H19 H 0.259793 0.899059 0.982789
Cd2_8 Cd 1.00000 1.00000 1.00000
H12 H 0.739761 0.103633 0.0302321
N5 N 0.9474(3) 0.2132(3) 0.7712(3)
Ni1_2 Ni 1.00000 0.5 0.50000
C9 C 0.9646(3) 0.3217(3) 0.6664(3)
C10 C 0.9574(3) 0.6675(3) 0.6666(3)
N9 N 0.9365(3) 0.7703(3) 0.7718(3)
H13 H 0.778658 0.963043 0.201148
H13_2 H 0.221342 0.0369572 0.798852
H12_2 H 0.260239 0.896367 0.969768
loop_
_geom_bond_atom_site_label_1
_geom_bond_atom_site_label_2
_geom_bond_site_symmetry_1
_geom_bond_site_symmetry_2
N8 Cd2 1_555 1_555
N3 Cd2_2 1_555 1_555
C3 N3 1_555 1_555
C4 C3 1_555 1_555
C5 C4 1_555 1_555
H1 N3 1_555 1_555
H2 C3 1_555 1_555
H3 C4 1_555 1_555
H5 C5 1_555 1_555
Cd2_3 N1 1_555 1_555
Ni1 C1 1_555 1_555
N1 C1 1_555 1_555
N8 C2 1_555 1_555
C2 Ni1 1_555 1_555
C7 C6 1_555 1_555
C8 C7 1_555 1_555
N4 C8 1_555 1_555
H6 N4 1_555 1_555
H7 C8 1_555 1_555
H8 C7 1_555 1_555
H10 C6 1_555 1_555
Cd2_7 N4 1_555 1_555
N5 Cd2_6 1_555 1_555
C9 Ni1_2 1_555 1_555
C10 Ni1_2 1_555 1_555
N9 C10 1_555 1_555
N5 C9 1_555 1_555
Cd2_8 N9 1_555 1_555
N4 H13 1_555 1_555
N3 H13_2 1_555 1_555

#END
