
###############################################################################
#
# This file contains modified crystal structure data generated from the
# MOF subset of the Cambridge Structural Database (CSD) v543 
# hosted by the Cambridge Crystallographic Data Centre (CCDC).
#
# This work is licensed under the Creative Commons
# Attribution-NonCommercial-ShareAlike 4.0 International License.
# To view a copy of this license, visit
# http://creativecommons.org/licenses/by-nc-sa/4.0/
# or send a letter to
# Creative Commons, PO Box 1866, Mountain View, CA 94042, USA.
#
# CIF created using the CSD Python API on 29 September 2022
# The structure has been converted into the P1 space group
# The structure has a 3D framework
# The original CSD entry GIJBUZ is in the monoclinic crystal system
# The framework has been calculated to contain at least 10.0% void space
# The void calculation uses a probe of radius 1.32A, grid spacing 0.4
#
###############################################################################

data_GIJBUZ
_chemical_formula_moiety         '(C160 H96 Au16 N48 Zn8)n'
_symmetry_cell_setting           triclinic
_symmetry_space_group_name_H-M   'P 1'
_symmetry_Int_Tables_number      1
_space_group_name_Hall           'P 1'
loop_
_symmetry_equiv_pos_site_id
_symmetry_equiv_pos_as_xyz
1 x,y,z
_cell_length_a                   33.4492(11)
_cell_length_b                   13.0989(5)
_cell_length_c                   16.2467(6)
_cell_angle_alpha                90
_cell_angle_beta                 112.538(3)
_cell_angle_gamma                90
_cell_volume                     6574.79
loop_
_atom_site_label
_atom_site_type_symbol
_atom_site_fract_x
_atom_site_fract_y
_atom_site_fract_z
Au2 Au 0.70111(3) 0.01477(11) 0.04476(6)
N11 N 0.6064(8) 0.1378(16) 0.1348(17)
C40 C 0.6052(9) 0.084(3) 0.077(2)
Zn6 Zn 0.61261(12) 0.2519(3) 0.2332(3)
Au4 Au 0.60259(3) 0.00011(10) 0.97530(6)
N4 N 0.7000(9) 0.153(2) 0.884(2)
C19 C 0.6999(9) 0.107(2) 0.944(2)
Zn4 Zn 0.71729(13) 0.2474(3) 0.7988(3)
Au1 Au 0.72993(3) 0.51531(11) 0.04937(6)
Zn1 Zn 0.71729(13) 0.7526(3) 0.2988(3)
N2 N 0.6506(8) 0.7088(18) 0.2281(19)
N3 N 0.7332(7) 0.6550(16) 0.2067(16)
N6 N 0.7099(7) 0.8743(18) 0.2063(18)
C2 C 0.3464(7) 0.6818(18) 0.0025(18)
H2 H 0.3576 0.6829 0.0644
C6 C 0.4218(8) 0.6539(19) 0.008(2)
C7 C 0.4416(8) 0.6719(17) 0.1005(15)
H5 H 0.4238 0.6803 0.1323
C8 C 0.4851(7) 0.6777(17) 0.1459(16)
H6 H 0.4970 0.6939 0.2062
C9 C 0.5125(9) 0.657(2) 0.0959(19)
C10 C 0.4927(7) 0.6303(19) 0.0107(18)
C12 C 0.5608(9) 0.669(2) 0.140(2)
C13 C 0.5814(8) 0.661(2) 0.234(2)
H9 H 0.5652 0.6445 0.2679
C14 C 0.6248(9) 0.677(2) 0.2747(17)
H10 H 0.6380 0.6664 0.3358
C15 C 0.6299(8) 0.717(2) 0.1405(17)
H11 H 0.6458 0.7346 0.1068
C16 C 0.5861(8) 0.7005(19) 0.0963(17)
H12 H 0.5735 0.7115 0.0351
C18 C 0.7331(10) 0.603(3) 0.149(2)
C20 C 0.7063(9) 0.931(3) 0.150(2)
N13 N 0.7851(7) 0.7986(17) 0.3672(17)
N14 N 0.7000(9) 0.847(2) 0.384(2)
N15 N 0.7275(8) 0.626(2) 0.3932(19)
C41 C 0.6275(9) 0.419(2) 0.097(2)
Au3 Au 0.62709(3) 0.50107(10) 0.99582(7)
Zn2 Zn 0.61261(12) 0.7481(3) 0.7332(3)
N1 N 0.2851(7) 0.7014(17) 0.8672(17)
N5 N 0.7275(8) 0.374(2) 0.8932(19)
N7 N 0.1812(6) 0.7305(15) 0.2977(15)
N8 N 0.5445(7) 0.7218(17) 0.6696(17)
N9 N 0.6161(8) 0.631(2) 0.8301(19)
N10 N 0.6026(8) 0.8605(18) 0.8221(18)
N12 N 0.6247(8) 0.6356(19) 0.6487(17)
C1 C 0.3036(7) 0.698(2) 0.9573(17)
H1 H 0.2861 0.7064 0.9896
C3 C 0.3738(9) 0.664(2) 0.9588(19)
C4 C 0.3544(8) 0.659(2) 0.8687(17)
H3 H 0.3702 0.6411 0.8346
C5 C 0.3099(8) 0.681(2) 0.8278(18)
H4 H 0.2978 0.6802 0.7658
H7 H 0.5097 0.6088 0.9801
C11 C 0.4488(7) 0.633(2) 0.9660(16)
H8 H 0.4372 0.6191 0.9051
C17 C 0.7306(10) 0.425(2) 0.953(2)
C21 C 0.2058(9) 0.808(2) 0.325(2)
H13 H 0.1939 0.8730 0.3108
C22 C 0.2493(8) 0.799(2) 0.3754(19)
H14 H 0.2659 0.8575 0.3944
C23 C 0.2694(8) 0.703(2) 0.3990(19)
C24 C 0.2422(7) 0.625(2) 0.369(2)
H15 H 0.2534 0.5595 0.3839
C25 C 0.1988(7) 0.6343(19) 0.3191(17)
H16 H 0.1816 0.5765 0.2997
C26 C 0.3145(9) 0.694(2) 0.454(2)
C27 C 0.3350(8) 0.773(2) 0.516(2)
H17 H 0.3186 0.8236 0.5280
C28 C 0.3812(7) 0.7722(19) 0.5612(19)
H18 H 0.3949 0.8227 0.6028
C29 C 0.4053(8) 0.6979(17) 0.5430(16)
C30 C 0.3852(8) 0.625(2) 0.4884(18)
H19 H 0.4021 0.5732 0.4793
C31 C 0.3400(8) 0.6169(18) 0.4420(18)
H20 H 0.3278 0.5617 0.4049
C32 C 0.4546(8) 0.704(2) 0.5897(18)
C33 C 0.4735(7) 0.7974(19) 0.6132(18)
H21 H 0.4565 0.8559 0.6026
C34 C 0.5180(7) 0.8049(18) 0.6529(18)
H22 H 0.5304 0.8691 0.6688
C35 C 0.5247(8) 0.6340(19) 0.6478(19)
H23 H 0.5419 0.5758 0.6594
C36 C 0.4809(8) 0.621(2) 0.6093(18)
H24 H 0.4691 0.5553 0.5966
C37 C 0.6222(9) 0.592(2) 0.891(2)
C38 C 0.6009(9) 0.911(2) 0.876(2)
C39 C 0.6275(9) 0.581(2) 0.597(2)
Au5 Au 0.62709(3) 0.49893(10) 0.49582(7)
Zn5 Zn 0.21729(13) 0.7474(3) 0.7988(3)
Zn7 Zn 0.11261(12) 0.7519(3) 0.2332(3)
N16 N 0.6812(6) 0.7695(15) 0.7977(15)
N17 N 0.6064(8) 0.8622(16) 0.6348(17)
Au1_2 Au 0.72993(3) 0.48469(11) 0.54937(6)
N1_2 N 0.2851(7) 0.2986(17) 0.3672(17)
N2_2 N 0.6506(8) 0.2912(18) 0.7281(19)
N3_2 N 0.7332(7) 0.3450(16) 0.7067(16)
N6_2 N 0.7099(7) 0.1257(18) 0.7063(18)
N8_2 N 0.5445(7) 0.2782(17) 0.1696(17)
N9_2 N 0.6161(8) 0.369(2) 0.3301(19)
N10_2 N 0.6026(8) 0.1395(18) 0.3221(18)
N12_2 N 0.6247(8) 0.3644(19) 0.1487(17)
C1_2 C 0.3036(7) 0.302(2) 0.4573(17)
H1_2 H 0.2861 0.2936 0.4896
C2_2 C 0.3464(7) 0.3182(18) 0.5025(18)
H2_2 H 0.3576 0.3171 0.5644
C3_2 C 0.3738(9) 0.336(2) 0.4588(19)
C4_2 C 0.3544(8) 0.341(2) 0.3687(17)
H3_2 H 0.3702 0.3589 0.3346
C5_2 C 0.3099(8) 0.319(2) 0.3278(18)
H4_2 H 0.2978 0.3198 0.2658
C6_2 C 0.4218(8) 0.3461(19) 0.508(2)
C7_2 C 0.4416(8) 0.3281(17) 0.6005(15)
H5_2 H 0.4238 0.3197 0.6323
C8_2 C 0.4851(7) 0.3223(17) 0.6459(16)
H6_2 H 0.4970 0.3061 0.7062
C9_2 C 0.5125(9) 0.343(2) 0.5959(19)
C10_2 C 0.4927(7) 0.3697(19) 0.5107(18)
H7_2 H 0.5097 0.3912 0.4801
C11_2 C 0.4488(7) 0.367(2) 0.4660(16)
H8_2 H 0.4372 0.3809 0.4051
C12_2 C 0.5608(9) 0.331(2) 0.640(2)
C13_2 C 0.5814(8) 0.339(2) 0.734(2)
H9_2 H 0.5652 0.3555 0.7679
C14_2 C 0.6248(9) 0.323(2) 0.7747(17)
H10_2 H 0.6380 0.3336 0.8358
C15_2 C 0.6299(8) 0.283(2) 0.6405(17)
H11_2 H 0.6458 0.2654 0.6068
C16_2 C 0.5861(8) 0.2995(19) 0.5963(17)
H12_2 H 0.5735 0.2885 0.5351
C17_2 C 0.7306(10) 0.575(2) 0.453(2)
C18_2 C 0.7331(10) 0.397(3) 0.649(2)
C20_2 C 0.7063(9) 0.069(3) 0.650(2)
C27_2 C 0.3350(8) 0.227(2) 0.016(2)
H17_2 H 0.3186 0.1764 0.0280
C28_2 C 0.3812(7) 0.2278(19) 0.0612(19)
H18_2 H 0.3949 0.1773 0.1028
C29_2 C 0.4053(8) 0.3021(17) 0.0430(16)
C32_2 C 0.4546(8) 0.296(2) 0.0897(18)
C33_2 C 0.4735(7) 0.2026(19) 0.1132(18)
H21_2 H 0.4565 0.1441 0.1026
C34_2 C 0.5180(7) 0.1951(18) 0.1529(18)
H22_2 H 0.5304 0.1309 0.1688
C35_2 C 0.5247(8) 0.3660(19) 0.1478(19)
H23_2 H 0.5419 0.4242 0.1594
C36_2 C 0.4809(8) 0.379(2) 0.1093(18)
H24_2 H 0.4691 0.4447 0.0966
C37_2 C 0.6222(9) 0.408(2) 0.391(2)
C38_2 C 0.6009(9) 0.089(2) 0.376(2)
Zn5_2 Zn 0.21729(13) 0.2526(3) 0.2988(3)
N13_2 N 0.7851(7) 0.2014(17) 0.8672(17)
N16_2 N 0.6812(6) 0.2305(15) 0.2977(15)
N7_2 N 0.1812(6) 0.2695(15) 0.7977(15)
C21_2 C 0.2058(9) 0.192(2) 0.825(2)
H13_2 H 0.1939 0.1270 0.8108
C22_2 C 0.2493(8) 0.201(2) 0.8754(19)
H14_2 H 0.2659 0.1425 0.8944
C23_2 C 0.2694(8) 0.297(2) 0.8990(19)
C24_2 C 0.2422(7) 0.375(2) 0.869(2)
H15_2 H 0.2534 0.4405 0.8839
C25_2 C 0.1988(7) 0.3657(19) 0.8191(17)
H16_2 H 0.1816 0.4235 0.7997
C26_2 C 0.3145(9) 0.306(2) 0.954(2)
C30_2 C 0.3852(8) 0.375(2) 0.9884(18)
H19_2 H 0.4021 0.4268 0.9793
C31_2 C 0.3400(8) 0.3831(18) 0.9420(18)
H20_2 H 0.3278 0.4383 0.9049
Zn7_2 Zn 0.11261(12) 0.2481(3) 0.7332(3)
Au2_2 Au 0.70111(3) 0.98523(11) 0.54476(6)
Au4_2 Au 0.60259(3) 0.99989(10) 0.47530(6)
C19_2 C 0.6999(9) 0.893(2) 0.444(2)
C40_2 C 0.6052(9) 0.916(3) 0.577(2)
Au1_3 Au 0.22993(3) 0.01531(11) 0.04937(6)
Au2_3 Au 0.20111(3) 0.51477(11) 0.04476(6)
N2_3 N 0.1506(8) 0.2088(18) 0.2281(19)
N3_3 N 0.2332(7) 0.1550(16) 0.2067(16)
N6_3 N 0.2099(7) 0.3743(18) 0.2063(18)
N11_2 N 0.1064(8) 0.6378(16) 0.1348(17)
C9_3 C 0.0125(9) 0.157(2) 0.0959(19)
C12_3 C 0.0608(9) 0.169(2) 0.140(2)
C13_3 C 0.0814(8) 0.161(2) 0.234(2)
H9_3 H 0.0652 0.1445 0.2679
C14_3 C 0.1248(9) 0.177(2) 0.2747(17)
H10_3 H 0.1380 0.1664 0.3358
C15_3 C 0.1299(8) 0.217(2) 0.1405(17)
H11_3 H 0.1458 0.2346 0.1068
C16_3 C 0.0861(8) 0.2005(19) 0.0963(17)
H12_3 H 0.0735 0.2115 0.0351
C18_3 C 0.2331(10) 0.103(3) 0.149(2)
C20_3 C 0.2063(9) 0.431(3) 0.150(2)
C40_3 C 0.1052(9) 0.584(3) 0.077(2)
N14_2 N 0.2000(9) 0.347(2) 0.384(2)
N15_2 N 0.2275(8) 0.126(2) 0.3932(19)
Au3_2 Au 0.12709(3) 0.00107(10) 0.99582(7)
Au4_3 Au 0.10259(3) 0.50011(10) 0.97530(6)
N4_2 N 0.2000(9) 0.653(2) 0.884(2)
N8_3 N 0.0445(7) 0.2218(17) 0.6696(17)
N9_3 N 0.1161(8) 0.131(2) 0.8301(19)
N10_3 N 0.1026(8) 0.3605(18) 0.8221(18)
N12_3 N 0.1247(8) 0.1356(19) 0.6487(17)
H7_3 H 0.0097 0.1088 0.9801
C19_3 C 0.1999(9) 0.607(2) 0.944(2)
C34_3 C 0.0180(7) 0.3049(18) 0.6529(18)
H22_3 H 0.0304 0.3691 0.6688
C35_3 C 0.0247(8) 0.1340(19) 0.6478(19)
H23_3 H 0.0419 0.0758 0.6594
C37_3 C 0.1222(9) 0.092(2) 0.891(2)
C38_3 C 0.1009(9) 0.411(2) 0.876(2)
C39_2 C 0.1275(9) 0.081(2) 0.597(2)
N17_2 N 0.1064(8) 0.3622(16) 0.6348(17)
C41_2 C 0.1275(9) 0.919(2) 0.097(2)
N5_2 N 0.2275(8) 0.874(2) 0.8932(19)
C17_3 C 0.2306(10) 0.925(2) 0.953(2)
Au5_2 Au 0.12709(3) 0.99893(10) 0.49582(7)
C1_3 C 0.8036(7) 0.198(2) 0.9573(17)
H1_3 H 0.7861 0.2064 0.9896
C3_3 C 0.8738(9) 0.164(2) 0.9588(19)
C4_3 C 0.8544(8) 0.159(2) 0.8687(17)
H3_3 H 0.8702 0.1411 0.8346
C5_3 C 0.8099(8) 0.181(2) 0.8278(18)
H4_3 H 0.7978 0.1802 0.7658
C11_3 C 0.9488(7) 0.133(2) 0.9660(16)
H8_3 H 0.9372 0.1191 0.9051
C21_3 C 0.7058(9) 0.308(2) 0.325(2)
H13_3 H 0.6939 0.3730 0.3108
C22_3 C 0.7493(8) 0.299(2) 0.3754(19)
H14_3 H 0.7659 0.3575 0.3944
C23_3 C 0.7694(8) 0.203(2) 0.3990(19)
C24_3 C 0.7422(7) 0.125(2) 0.369(2)
H15_3 H 0.7534 0.0595 0.3839
C25_3 C 0.6988(7) 0.1343(19) 0.3191(17)
H16_3 H 0.6816 0.0765 0.2997
C26_3 C 0.8145(9) 0.194(2) 0.454(2)
C27_3 C 0.8350(8) 0.273(2) 0.516(2)
H17_3 H 0.8186 0.3236 0.5280
C28_3 C 0.8812(7) 0.2722(19) 0.5612(19)
H18_3 H 0.8949 0.3227 0.6028
C29_3 C 0.9053(8) 0.1979(17) 0.5430(16)
C30_3 C 0.8852(8) 0.125(2) 0.4884(18)
H19_3 H 0.9021 0.0732 0.4793
C31_3 C 0.8400(8) 0.1169(18) 0.4420(18)
H20_3 H 0.8278 0.0617 0.4049
C32_3 C 0.9546(8) 0.204(2) 0.5897(18)
C33_3 C 0.9735(7) 0.2974(19) 0.6132(18)
H21_3 H 0.9565 0.3559 0.6026
C36_3 C 0.9809(8) 0.121(2) 0.6093(18)
H24_3 H 0.9691 0.0553 0.5966
C17_4 C 0.2306(10) 0.075(2) 0.453(2)
Au1_4 Au 0.22993(3) 0.98469(11) 0.54937(6)
Au2_4 Au 0.20111(3) 0.48523(11) 0.54476(6)
Au4_4 Au 0.10259(3) 0.49989(10) 0.47530(6)
N2_4 N 0.1506(8) 0.7912(18) 0.7281(19)
N3_4 N 0.2332(7) 0.8450(16) 0.7067(16)
N6_4 N 0.2099(7) 0.6257(18) 0.7063(18)
N8_4 N 0.0445(7) 0.7782(17) 0.1696(17)
N9_4 N 0.1161(8) 0.869(2) 0.3301(19)
N10_4 N 0.1026(8) 0.6395(18) 0.3221(18)
N12_4 N 0.1247(8) 0.8644(19) 0.1487(17)
C9_4 C 0.0125(9) 0.843(2) 0.5959(19)
H7_4 H 0.0097 0.8912 0.4801
C12_4 C 0.0608(9) 0.831(2) 0.640(2)
C13_4 C 0.0814(8) 0.839(2) 0.734(2)
H9_4 H 0.0652 0.8555 0.7679
C14_4 C 0.1248(9) 0.823(2) 0.7747(17)
H10_4 H 0.1380 0.8336 0.8358
C15_4 C 0.1299(8) 0.783(2) 0.6405(17)
H11_4 H 0.1458 0.7654 0.6068
C16_4 C 0.0861(8) 0.7995(19) 0.5963(17)
H12_4 H 0.0735 0.7885 0.5351
C18_4 C 0.2331(10) 0.897(3) 0.649(2)
C19_4 C 0.1999(9) 0.393(2) 0.444(2)
C20_4 C 0.2063(9) 0.569(3) 0.650(2)
C34_4 C 0.0180(7) 0.6951(18) 0.1529(18)
H22_4 H 0.0304 0.6309 0.1688
C35_4 C 0.0247(8) 0.8660(19) 0.1478(19)
H23_4 H 0.0419 0.9242 0.1594
C37_4 C 0.1222(9) 0.908(2) 0.391(2)
C38_4 C 0.1009(9) 0.589(2) 0.376(2)
C40_4 C 0.1052(9) 0.416(3) 0.577(2)
C1_4 C 0.8036(7) 0.802(2) 0.4573(17)
H1_4 H 0.7861 0.7936 0.4896
C2_3 C 0.8464(7) 0.8182(18) 0.5025(18)
H2_3 H 0.8576 0.8171 0.5644
C3_4 C 0.8738(9) 0.836(2) 0.4588(19)
C4_4 C 0.8544(8) 0.841(2) 0.3687(17)
H3_4 H 0.8702 0.8589 0.3346
C5_4 C 0.8099(8) 0.819(2) 0.3278(18)
H4_4 H 0.7978 0.8198 0.2658
C6_3 C 0.9218(8) 0.8461(19) 0.508(2)
C7_3 C 0.9416(8) 0.8281(17) 0.6005(15)
H5_3 H 0.9238 0.8197 0.6323
C8_3 C 0.9851(7) 0.8223(17) 0.6459(16)
H6_3 H 0.9970 0.8061 0.7062
C10_3 C 0.9927(7) 0.8697(19) 0.5107(18)
C11_4 C 0.9488(7) 0.867(2) 0.4660(16)
H8_4 H 0.9372 0.8809 0.4051
C27_4 C 0.8350(8) 0.727(2) 0.016(2)
H17_4 H 0.8186 0.6764 0.0280
C28_4 C 0.8812(7) 0.7278(19) 0.0612(19)
H18_4 H 0.8949 0.6773 0.1028
C29_4 C 0.9053(8) 0.8021(17) 0.0430(16)
C32_4 C 0.9546(8) 0.796(2) 0.0897(18)
C33_4 C 0.9735(7) 0.7026(19) 0.1132(18)
H21_4 H 0.9565 0.6441 0.1026
C36_4 C 0.9809(8) 0.879(2) 0.1093(18)
H24_4 H 0.9691 0.9447 0.0966
C21_4 C 0.7058(9) 0.692(2) 0.825(2)
H13_4 H 0.6939 0.6270 0.8108
C22_4 C 0.7493(8) 0.701(2) 0.8754(19)
H14_4 H 0.7659 0.6425 0.8944
C23_4 C 0.7694(8) 0.797(2) 0.8990(19)
C24_4 C 0.7422(7) 0.875(2) 0.869(2)
H15_4 H 0.7534 0.9405 0.8839
C25_4 C 0.6988(7) 0.8657(19) 0.8191(17)
H16_4 H 0.6816 0.9235 0.7997
C26_4 C 0.8145(9) 0.806(2) 0.954(2)
C30_4 C 0.8852(8) 0.875(2) 0.9884(18)
H19_4 H 0.9021 0.9268 0.9793
C31_4 C 0.8400(8) 0.8831(18) 0.9420(18)
H20_4 H 0.8278 0.9383 0.9049
C2_4 C 0.8464(7) 0.1818(18) 0.0025(18)
H2_4 H 0.8576 0.1829 0.0644
C6_4 C 0.9218(8) 0.1539(19) 0.008(2)
C7_4 C 0.9416(8) 0.1719(17) 0.1005(15)
H5_4 H 0.9238 0.1803 0.1323
C8_4 C 0.9851(7) 0.1777(17) 0.1459(16)
H6_4 H 0.9970 0.1939 0.2062
C10_4 C 0.9927(7) 0.1303(19) 0.0107(18)
loop_
_geom_bond_atom_site_label_1
_geom_bond_atom_site_label_2
_geom_bond_site_symmetry_1
_geom_bond_site_symmetry_2
N11 C40 1_555 1_555
Zn6 N11 1_555 1_555
N4 C19 1_555 1_555
Zn4 N4 1_555 1_555
Zn1 N2 1_555 1_555
N2 C14 1_555 1_555
N3 Zn1 1_555 1_555
N6 Zn1 1_555 1_555
H2 C2 1_555 1_555
C7 C6 1_555 1_555
H5 C7 1_555 1_555
C8 C7 1_555 1_555
H6 C8 1_555 1_555
C9 C8 1_555 1_555
C10 C9 1_555 1_555
C12 C9 1_555 1_555
C13 C12 1_555 1_555
H9 C13 1_555 1_555
C14 C13 1_555 1_555
H10 C14 1_555 1_555
C15 N2 1_555 1_555
H11 C15 1_555 1_555
C16 C12 1_555 1_555
H12 C16 1_555 1_555
C18 Au1 1_555 1_555
N13 Zn1 1_555 1_555
N14 Zn1 1_555 1_555
N15 Zn1 1_555 1_555
N3 C18 1_555 1_555
N6 C20 1_555 1_555
C15 C16 1_555 1_555
Au3 C37 1_555 1_555
Zn2 N8 1_555 1_555
N1 C1 1_555 1_555
N5 C17 1_555 1_555
N7 C21 1_555 1_555
N8 C34 1_555 1_555
N9 Zn2 1_555 1_555
N10 Zn2 1_555 1_555
N12 Zn2 1_555 1_555
C1 H1 1_555 1_555
C4 C3 1_555 1_555
H3 C4 1_555 1_555
C5 N1 1_555 1_555
H4 C5 1_555 1_555
H8 C11 1_555 1_555
C21 H13 1_555 1_555
C22 C21 1_555 1_555
H14 C22 1_555 1_555
C23 C22 1_555 1_555
C24 C23 1_555 1_555
H15 C24 1_555 1_555
C25 N7 1_555 1_555
H16 C25 1_555 1_555
C26 C23 1_555 1_555
C27 C26 1_555 1_555
H17 C27 1_555 1_555
C28 C27 1_555 1_555
H18 C28 1_555 1_555
C29 C28 1_555 1_555
C30 C29 1_555 1_555
H19 C30 1_555 1_555
C31 C26 1_555 1_555
H20 C31 1_555 1_555
C32 C29 1_555 1_555
C33 C32 1_555 1_555
H21 C33 1_555 1_555
C34 C33 1_555 1_555
H22 C34 1_555 1_555
C35 N8 1_555 1_555
H23 C35 1_555 1_555
C36 C32 1_555 1_555
H24 C36 1_555 1_555
C37 N9 1_555 1_555
C38 N10 1_555 1_555
C39 N12 1_555 1_555
Au5 C39 1_555 1_555
Zn4 N5 1_555 1_555
Zn5 N1 1_555 1_555
Zn7 N7 1_555 1_555
N16 Zn2 1_555 1_555
N17 Zn2 1_555 1_555
C4 C5 1_555 1_555
C24 C25 1_555 1_555
C30 C31 1_555 1_555
C35 C36 1_555 1_555
Au1_2 Au5 1_555 1_555
Au5 C37_2 1_555 1_555
Zn4 N2_2 1_555 1_555
Zn6 N8_2 1_555 1_555
N1_2 C1_2 1_555 1_555
N2_2 C14_2 1_555 1_555
N3_2 Zn4 1_555 1_555
N15 C17_2 1_555 1_555
N6_2 Zn4 1_555 1_555
N8_2 C34_2 1_555 1_555
N9_2 Zn6 1_555 1_555
N10_2 Zn6 1_555 1_555
N12_2 Zn6 1_555 1_555
C1_2 H1_2 1_555 1_555
C2_2 C1_2 1_555 1_555
H2_2 C2_2 1_555 1_555
C3_2 C2_2 1_555 1_555
C4_2 C3_2 1_555 1_555
H3_2 C4_2 1_555 1_555
C5_2 N1_2 1_555 1_555
H4_2 C5_2 1_555 1_555
C6_2 C3_2 1_555 1_555
C7_2 C6_2 1_555 1_555
H5_2 C7_2 1_555 1_555
C8_2 C7_2 1_555 1_555
H6_2 C8_2 1_555 1_555
C9_2 C8_2 1_555 1_555
C10_2 C9_2 1_555 1_555
H7_2 C10_2 1_555 1_555
C11_2 C6_2 1_555 1_555
H8_2 C11_2 1_555 1_555
C12_2 C9_2 1_555 1_555
C13_2 C12_2 1_555 1_555
H9_2 C13_2 1_555 1_555
C14_2 C13_2 1_555 1_555
H10_2 C14_2 1_555 1_555
C15_2 N2_2 1_555 1_555
H11_2 C15_2 1_555 1_555
C16_2 C12_2 1_555 1_555
H12_2 C16_2 1_555 1_555
C17_2 Au1_2 1_555 1_555
C18_2 Au1_2 1_555 1_555
H17_2 C27_2 1_555 1_555
C28_2 C27_2 1_555 1_555
H18_2 C28_2 1_555 1_555
C29_2 C28_2 1_555 1_555
C32_2 C29_2 1_555 1_555
C33_2 C32_2 1_555 1_555
H21_2 C33_2 1_555 1_555
C34_2 C33_2 1_555 1_555
H22_2 C34_2 1_555 1_555
C35_2 N8_2 1_555 1_555
H23_2 C35_2 1_555 1_555
C36_2 C32_2 1_555 1_555
H24_2 C36_2 1_555 1_555
C37_2 N9_2 1_555 1_555
C38_2 N10_2 1_555 1_555
C41 N12_2 1_555 1_555
Zn5_2 N1_2 1_555 1_555
N13_2 Zn4 1_555 1_555
N16_2 Zn6 1_555 1_555
N3_2 C18_2 1_555 1_555
N6_2 C20_2 1_555 1_555
C4_2 C5_2 1_555 1_555
C10_2 C11_2 1_555 1_555
C15_2 C16_2 1_555 1_555
C35_2 C36_2 1_555 1_555
N7_2 C21_2 1_555 1_555
C21_2 H13_2 1_555 1_555
C22_2 C21_2 1_555 1_555
H14_2 C22_2 1_555 1_555
C23_2 C22_2 1_555 1_555
C24_2 C23_2 1_555 1_555
H15_2 C24_2 1_555 1_555
C25_2 N7_2 1_555 1_555
H16_2 C25_2 1_555 1_555
C26_2 C23_2 1_555 1_555
H19_2 C30_2 1_555 1_555
C31_2 C26_2 1_555 1_555
H20_2 C31_2 1_555 1_555
Zn7_2 N7_2 1_555 1_555
C24_2 C25_2 1_555 1_555
C30_2 C31_2 1_555 1_555
Au2_2 Au4_2 1_555 1_555
N14 C19_2 1_555 1_555
N17 C40_2 1_555 1_555
C19_2 Au2_2 1_555 1_555
C40_2 Au4_2 1_555 1_555
Zn5_2 N2_3 1_555 1_555
N2_3 C14_3 1_555 1_555
N3_3 Zn5_2 1_555 1_555
N6_3 Zn5_2 1_555 1_555
N11_2 C40_3 1_555 1_555
C12_3 C9_3 1_555 1_555
C13_3 C12_3 1_555 1_555
H9_3 C13_3 1_555 1_555
C14_3 C13_3 1_555 1_555
H10_3 C14_3 1_555 1_555
C15_3 N2_3 1_555 1_555
H11_3 C15_3 1_555 1_555
C16_3 C12_3 1_555 1_555
H12_3 C16_3 1_555 1_555
C18_3 Au1_3 1_555 1_555
C20_3 Au2_3 1_555 1_555
Zn7 N11_2 1_555 1_555
N14_2 Zn5_2 1_555 1_555
N15_2 Zn5_2 1_555 1_555
N3_3 C18_3 1_555 1_555
N6_3 C20_3 1_555 1_555
C15_3 C16_3 1_555 1_555
Au3_2 C37_3 1_555 1_555
Au4_3 C38_3 1_555 1_555
Zn7_2 N8_3 1_555 1_555
N4_2 C19_3 1_555 1_555
N8_3 C34_3 1_555 1_555
N9_3 Zn7_2 1_555 1_555
N10_3 Zn7_2 1_555 1_555
N12_3 Zn7_2 1_555 1_555
H22_3 C34_3 1_555 1_555
C35_3 N8_3 1_555 1_555
H23_3 C35_3 1_555 1_555
C37_3 N9_3 1_555 1_555
C38_3 N10_3 1_555 1_555
C39_2 N12_3 1_555 1_555
Zn5 N4_2 1_555 1_555
N17_2 Zn7_2 1_555 1_555
N5_2 C17_3 1_555 1_555
Zn5 N5_2 1_555 1_555
N13_2 C1_3 1_555 1_555
N16_2 C21_3 1_555 1_555
C1_3 H1_3 1_555 1_555
C4_3 C3_3 1_555 1_555
H3_3 C4_3 1_555 1_555
C5_3 N13_2 1_555 1_555
H4_3 C5_3 1_555 1_555
H8_3 C11_3 1_555 1_555
C21_3 H13_3 1_555 1_555
C22_3 C21_3 1_555 1_555
H14_3 C22_3 1_555 1_555
C23_3 C22_3 1_555 1_555
C24_3 C23_3 1_555 1_555
H15_3 C24_3 1_555 1_555
C25_3 N16_2 1_555 1_555
H16_3 C25_3 1_555 1_555
C26_3 C23_3 1_555 1_555
C27_3 C26_3 1_555 1_555
H17_3 C27_3 1_555 1_555
C28_3 C27_3 1_555 1_555
H18_3 C28_3 1_555 1_555
C29_3 C28_3 1_555 1_555
C30_3 C29_3 1_555 1_555
H19_3 C30_3 1_555 1_555
C31_3 C26_3 1_555 1_555
H20_3 C31_3 1_555 1_555
C32_3 C29_3 1_555 1_555
C33_3 C32_3 1_555 1_555
H21_3 C33_3 1_555 1_555
C36_3 C32_3 1_555 1_555
H24_3 C36_3 1_555 1_555
C4_3 C5_3 1_555 1_555
C24_3 C25_3 1_555 1_555
C30_3 C31_3 1_555 1_555
N15_2 C17_4 1_555 1_555
Au1_4 Au5_2 1_555 1_555
Au2_4 Au4_4 1_555 1_555
Au5_2 C37_4 1_555 1_555
Au4_4 C38_4 1_555 1_555
Zn5 N2_4 1_555 1_555
Zn7 N8_4 1_555 1_555
N2_4 C14_4 1_555 1_555
N3_4 Zn5 1_555 1_555
N14_2 C19_4 1_555 1_555
N6_4 Zn5 1_555 1_555
N8_4 C34_4 1_555 1_555
N9_4 Zn7 1_555 1_555
N10_4 Zn7 1_555 1_555
N17_2 C40_4 1_555 1_555
N12_4 Zn7 1_555 1_555
C12_4 C9_4 1_555 1_555
C13_4 C12_4 1_555 1_555
H9_4 C13_4 1_555 1_555
C14_4 C13_4 1_555 1_555
H10_4 C14_4 1_555 1_555
C15_4 N2_4 1_555 1_555
H11_4 C15_4 1_555 1_555
C16_4 C12_4 1_555 1_555
H12_4 C16_4 1_555 1_555
C18_4 Au1_4 1_555 1_555
C19_4 Au2_4 1_555 1_555
C20_4 Au2_4 1_555 1_555
H22_4 C34_4 1_555 1_555
C35_4 N8_4 1_555 1_555
H23_4 C35_4 1_555 1_555
C37_4 N9_4 1_555 1_555
C38_4 N10_4 1_555 1_555
C41_2 N12_4 1_555 1_555
C40_4 Au4_4 1_555 1_555
N3_4 C18_4 1_555 1_555
N6_4 C20_4 1_555 1_555
C15_4 C16_4 1_555 1_555
N13 C1_4 1_555 1_555
C1_4 H1_4 1_555 1_555
C2_3 C1_4 1_555 1_555
H2_3 C2_3 1_555 1_555
C3_4 C2_3 1_555 1_555
C4_4 C3_4 1_555 1_555
H3_4 C4_4 1_555 1_555
C5_4 N13 1_555 1_555
H4_4 C5_4 1_555 1_555
C6_3 C3_4 1_555 1_555
C7_3 C6_3 1_555 1_555
H5_3 C7_3 1_555 1_555
C8_3 C7_3 1_555 1_555
H6_3 C8_3 1_555 1_555
C11_4 C6_3 1_555 1_555
H8_4 C11_4 1_555 1_555
H17_4 C27_4 1_555 1_555
C28_4 C27_4 1_555 1_555
H18_4 C28_4 1_555 1_555
C29_4 C28_4 1_555 1_555
C32_4 C29_4 1_555 1_555
C33_4 C32_4 1_555 1_555
H21_4 C33_4 1_555 1_555
C36_4 C32_4 1_555 1_555
H24_4 C36_4 1_555 1_555
C4_4 C5_4 1_555 1_555
C10_3 C11_4 1_555 1_555
N16 C21_4 1_555 1_555
C21_4 H13_4 1_555 1_555
C22_4 C21_4 1_555 1_555
H14_4 C22_4 1_555 1_555
C23_4 C22_4 1_555 1_555
C24_4 C23_4 1_555 1_555
H15_4 C24_4 1_555 1_555
C25_4 N16 1_555 1_555
H16_4 C25_4 1_555 1_555
C26_4 C23_4 1_555 1_555
H19_4 C30_4 1_555 1_555
C31_4 C26_4 1_555 1_555
H20_4 C31_4 1_555 1_555
C24_4 C25_4 1_555 1_555
C30_4 C31_4 1_555 1_555
H2_4 C2_4 1_555 1_555
C7_4 C6_4 1_555 1_555
H5_4 C7_4 1_555 1_555
C8_4 C7_4 1_555 1_555
H6_4 C8_4 1_555 1_555

#END
