
###############################################################################
#
# This file contains modified crystal structure data generated from the
# MOF subset of the Cambridge Structural Database (CSD) v543 
# hosted by the Cambridge Crystallographic Data Centre (CCDC).
#
# This work is licensed under the Creative Commons
# Attribution-NonCommercial-ShareAlike 4.0 International License.
# To view a copy of this license, visit
# http://creativecommons.org/licenses/by-nc-sa/4.0/
# or send a letter to
# Creative Commons, PO Box 1866, Mountain View, CA 94042, USA.
#
# CIF created using the CSD Python API on 29 September 2022
# The structure has been converted into the P1 space group
# The structure has a 3D framework
# The original CSD entry GIJDIM is in the cubic crystal system
# The framework has been calculated to contain at least 10.0% void space
# The void calculation uses a probe of radius 1.32A, grid spacing 0.4
#
###############################################################################

data_GIJDIM
_chemical_formula_moiety         '(C240 H384 Co16 Cu48 I18 N48 S96)n'
_symmetry_cell_setting           triclinic
_symmetry_space_group_name_H-M   'P 1'
_symmetry_Int_Tables_number      1
_space_group_name_Hall           'P 1'
loop_
_symmetry_equiv_pos_site_id
_symmetry_equiv_pos_as_xyz
1 x,y,z
_cell_length_a                   23.637(10)
_cell_length_b                   23.637(10)
_cell_length_c                   23.637(10)
_cell_angle_alpha                90
_cell_angle_beta                 90
_cell_angle_gamma                90
_cell_volume                     13206.2
loop_
_atom_site_label
_atom_site_type_symbol
_atom_site_fract_x
_atom_site_fract_y
_atom_site_fract_z
S6 S 0.0125(2) 0.9469(2) 0.8941(2)
C11 C 0.0173(6) 0.8778(7) 0.8704(7)
N3 N 0.0605(6) 0.8564(5) 0.8469(6)
C12 C 0.1189(10) 0.8816(10) 0.8417(10)
C13 C 0.1591(10) 0.8373(8) 0.8316(11)
C14 C 0.1251(11) 0.7922(12) 0.8042(12)
C15 C 0.0627(9) 0.7979(8) 0.8249(8)
H17 H 0.1287 0.9010 0.8764
H18 H 0.1213 0.9071 0.8115
H19 H 0.1761 0.8250 0.8684
H20 H 0.1906 0.8505 0.8097
H21 H 0.1253 0.7939 0.7633
H22 H 0.1369 0.7533 0.8136
H23 H 0.0348 0.7913 0.7930
H24 H 0.0513 0.7702 0.8521
I5 I 0.08561(5) 0.78153(5) 0.99315(6)
I1 I 0.99315(6) 0.08561(5) 0.78153(5)
S2 S 0.8941(2) 0.0125(2) 0.9469(2)
C1 C 0.8704(7) 0.0173(6) 0.8778(7)
N1 N 0.8469(6) 0.0605(6) 0.8564(5)
C2 C 0.8417(10) 0.1189(10) 0.8816(10)
C3 C 0.8316(11) 0.1591(10) 0.8373(8)
C4 C 0.8042(12) 0.1251(11) 0.7922(12)
C5 C 0.8249(8) 0.0627(9) 0.7979(8)
H1 H 0.8764 0.1287 0.9010
H2 H 0.8115 0.1213 0.9071
H3 H 0.8684 0.1761 0.8250
H4 H 0.8097 0.1906 0.8505
H5 H 0.7633 0.1253 0.7939
H6 H 0.8136 0.1369 0.7533
H7 H 0.7930 0.0348 0.7913
H8 H 0.8521 0.0513 0.7702
Cu4 Cu 0.97476(11) 0.01923(9) 0.69551(9)
S4 S 0.9469(2) 0.8941(2) 0.0125(2)
C6 C 0.8778(7) 0.8704(7) 0.0173(6)
N2 N 0.8564(5) 0.8469(6) 0.0605(6)
C7 C 0.8816(10) 0.8417(10) 0.1189(10)
C8 C 0.8373(8) 0.8316(11) 0.1591(10)
C9 C 0.7922(12) 0.8042(12) 0.1251(11)
C10 C 0.7979(8) 0.8249(8) 0.0627(9)
H9 H 0.9010 0.8764 0.1287
H10 H 0.9071 0.8115 0.1213
H11 H 0.8250 0.8684 0.1761
H12 H 0.8505 0.8097 0.1906
H13 H 0.7939 0.7633 0.1253
H14 H 0.7533 0.8136 0.1369
H15 H 0.7913 0.7930 0.0348
H16 H 0.7702 0.8521 0.0513
I3 I 0.78153(5) 0.99315(6) 0.08561(5)
Cu5 Cu 0.69551(9) 0.97476(11) 0.01923(9)
I1_2 I 0.49315(6) 0.58561(5) 0.28153(5)
Cu1 Cu 0.47476(11) 0.48077(9) 0.30449(9)
Co1 Co 0.42253(9) 0.42253(9) 0.42253(9)
S1 S 0.3823(2) 0.4561(2) 0.3425(2)
S2_2 S 0.3941(2) 0.5125(2) 0.4469(2)
C1_2 C 0.3704(7) 0.5173(6) 0.3778(7)
N1_2 N 0.3469(6) 0.5605(6) 0.3564(5)
C2_2 C 0.3417(10) 0.6189(10) 0.3816(10)
C3_2 C 0.3316(11) 0.6591(10) 0.3373(8)
C4_2 C 0.3042(12) 0.6251(11) 0.2922(12)
C5_2 C 0.3249(8) 0.5627(9) 0.2979(8)
H1_2 H 0.3764 0.6287 0.4010
H2_2 H 0.3115 0.6213 0.4071
H3_2 H 0.3684 0.6761 0.3250
H4_2 H 0.3097 0.6906 0.3505
H5_2 H 0.2633 0.6253 0.2939
H6_2 H 0.3136 0.6369 0.2533
H7_2 H 0.2930 0.5348 0.2913
H8_2 H 0.3521 0.5513 0.2702
S3 S 0.3425(2) 0.3823(2) 0.4561(2)
S4_2 S 0.4469(2) 0.3941(2) 0.5125(2)
C6_2 C 0.3778(7) 0.3704(7) 0.5173(6)
N2_2 N 0.3564(5) 0.3469(6) 0.5605(6)
C7_2 C 0.3816(10) 0.3417(10) 0.6189(10)
C8_2 C 0.3373(8) 0.3316(11) 0.6591(10)
C9_2 C 0.2922(12) 0.3042(12) 0.6251(11)
C10_2 C 0.2979(8) 0.3249(8) 0.5627(9)
H9_2 H 0.4010 0.3764 0.6287
H10_2 H 0.4071 0.3115 0.6213
H11_2 H 0.3250 0.3684 0.6761
H12_2 H 0.3505 0.3097 0.6906
H13_2 H 0.2939 0.2633 0.6253
H14_2 H 0.2533 0.3136 0.6369
H15_2 H 0.2913 0.2930 0.5348
H16_2 H 0.2702 0.3521 0.5513
S5 S 0.4561(2) 0.3425(2) 0.3823(2)
S6_2 S 0.5125(2) 0.4469(2) 0.3941(2)
C11_2 C 0.5173(6) 0.3778(7) 0.3704(7)
N3_2 N 0.5605(6) 0.3564(5) 0.3469(6)
C12_2 C 0.6189(10) 0.3816(10) 0.3417(10)
C13_2 C 0.6591(10) 0.3373(8) 0.3316(11)
C14_2 C 0.6251(11) 0.2922(12) 0.3042(12)
C15_2 C 0.5627(9) 0.2979(8) 0.3249(8)
H17_2 H 0.6287 0.4010 0.3764
H18_2 H 0.6213 0.4071 0.3115
H19_2 H 0.6761 0.3250 0.3684
H20_2 H 0.6906 0.3505 0.3097
H21_2 H 0.6253 0.2939 0.2633
H22_2 H 0.6369 0.2533 0.3136
H23_2 H 0.5348 0.2913 0.2930
H24_2 H 0.5513 0.2702 0.3521
Cu2 Cu 0.30449(9) 0.47476(11) 0.48077(9)
Cu3 Cu 0.48077(9) 0.30449(9) 0.47476(11)
I2 I 0.49315(6) 0.41439(5) 0.21847(5)
I3_2 I 0.28153(5) 0.49315(6) 0.58561(5)
Cu4_2 Cu 0.47476(11) 0.51923(9) 0.19551(9)
I4 I 0.21847(5) 0.49315(6) 0.41439(5)
I5_2 I 0.58561(5) 0.28153(5) 0.49315(6)
I6 I 0.41439(5) 0.21847(5) 0.49315(6)
Cu5_2 Cu 0.19551(9) 0.47476(11) 0.51923(9)
Cu5_3 Cu 0.01923(9) 0.69551(9) 0.97476(11)
Cu5_4 Cu 0.51923(9) 0.19551(9) 0.47476(11)
Co1_2 Co 0.42253(9) 0.57747(9) 0.07747(9)
S1_2 S 0.3823(2) 0.5439(2) 0.1575(2)
S2_3 S 0.3941(2) 0.4875(2) 0.0531(2)
C1_3 C 0.3704(7) 0.4827(6) 0.1222(7)
N1_3 N 0.3469(6) 0.4395(6) 0.1436(5)
C2_3 C 0.3417(10) 0.3811(10) 0.1184(10)
C3_3 C 0.3316(11) 0.3409(10) 0.1627(8)
C4_3 C 0.3042(12) 0.3749(11) 0.2078(12)
C5_3 C 0.3249(8) 0.4373(9) 0.2021(8)
H1_3 H 0.3764 0.3713 0.0990
H2_3 H 0.3115 0.3787 0.0929
H3_3 H 0.3684 0.3239 0.1750
H4_3 H 0.3097 0.3094 0.1495
H5_3 H 0.2633 0.3747 0.2061
H6_3 H 0.3136 0.3631 0.2467
H7_3 H 0.2930 0.4652 0.2087
H8_3 H 0.3521 0.4487 0.2298
S3_2 S 0.3425(2) 0.6177(2) 0.0439(2)
S5_2 S 0.4561(2) 0.6575(2) 0.1177(2)
S6_3 S 0.5125(2) 0.5531(2) 0.1059(2)
C11_3 C 0.5173(6) 0.6222(7) 0.1296(7)
N3_3 N 0.5605(6) 0.6436(5) 0.1531(6)
C12_3 C 0.6189(10) 0.6184(10) 0.1583(10)
C13_3 C 0.6591(10) 0.6627(8) 0.1684(11)
C14_3 C 0.6251(11) 0.7078(12) 0.1958(12)
C15_3 C 0.5627(9) 0.7021(8) 0.1751(8)
H17_3 H 0.6287 0.5990 0.1236
H18_3 H 0.6213 0.5929 0.1885
H19_3 H 0.6761 0.6750 0.1316
H20_3 H 0.6906 0.6495 0.1903
H21_3 H 0.6253 0.7061 0.2367
H22_3 H 0.6369 0.7467 0.1864
H23_3 H 0.5348 0.7087 0.2070
H24_3 H 0.5513 0.7298 0.1479
Cu2_2 Cu 0.30449(9) 0.52524(11) 0.01923(9)
Cu3_2 Cu 0.48077(9) 0.69551(9) 0.02524(11)
I4_2 I 0.21847(5) 0.50685(6) 0.08561(5)
I5_3 I 0.58561(5) 0.71847(5) 0.00685(6)
I6_2 I 0.41439(5) 0.78153(5) 0.00685(6)
S4_3 S 0.4469(2) 0.6059(2) 0.9875(2)
C6_3 C 0.3778(7) 0.6296(7) 0.9827(6)
N2_3 N 0.3564(5) 0.6531(6) 0.9395(6)
C7_3 C 0.3816(10) 0.6583(10) 0.8811(10)
C8_3 C 0.3373(8) 0.6684(11) 0.8409(10)
C9_3 C 0.2922(12) 0.6958(12) 0.8749(11)
C10_3 C 0.2979(8) 0.6751(8) 0.9373(9)
H9_3 H 0.4010 0.6236 0.8713
H10_3 H 0.4071 0.6885 0.8787
H11_3 H 0.3250 0.6316 0.8239
H12_3 H 0.3505 0.6903 0.8094
H13_3 H 0.2939 0.7367 0.8747
H14_3 H 0.2533 0.6864 0.8631
H15_3 H 0.2913 0.7070 0.9652
H16_3 H 0.2702 0.6479 0.9487
I3_3 I 0.28153(5) 0.50685(6) 0.91439(5)
Cu5_5 Cu 0.19551(9) 0.52524(11) 0.98077(9)
S6_4 S 0.0125(2) 0.0531(2) 0.6059(2)
C11_4 C 0.0173(6) 0.1222(7) 0.6296(7)
N3_4 N 0.0605(6) 0.1436(5) 0.6531(6)
C12_4 C 0.1189(10) 0.1184(10) 0.6583(10)
C13_4 C 0.1591(10) 0.1627(8) 0.6684(11)
C14_4 C 0.1251(11) 0.2078(12) 0.6958(12)
C15_4 C 0.0627(9) 0.2021(8) 0.6751(8)
H17_4 H 0.1287 0.0990 0.6236
H18_4 H 0.1213 0.0929 0.6885
H19_4 H 0.1761 0.1750 0.6316
H20_4 H 0.1906 0.1495 0.6903
H21_4 H 0.1253 0.2061 0.7367
H22_4 H 0.1369 0.2467 0.6864
H23_4 H 0.0348 0.2087 0.7070
H24_4 H 0.0513 0.2298 0.6479
I5_4 I 0.08561(5) 0.21847(5) 0.50685(6)
Co1_3 Co 0.92253(9) 0.07747(9) 0.57747(9)
S1_3 S 0.8823(2) 0.0439(2) 0.6575(2)
S3_3 S 0.8425(2) 0.1177(2) 0.5439(2)
S4_4 S 0.9469(2) 0.1059(2) 0.4875(2)
C6_4 C 0.8778(7) 0.1296(7) 0.4827(6)
N2_4 N 0.8564(5) 0.1531(6) 0.4395(6)
C7_4 C 0.8816(10) 0.1583(10) 0.3811(10)
C8_4 C 0.8373(8) 0.1684(11) 0.3409(10)
C9_4 C 0.7922(12) 0.1958(12) 0.3749(11)
C10_4 C 0.7979(8) 0.1751(8) 0.4373(9)
H9_4 H 0.9010 0.1236 0.3713
H10_4 H 0.9071 0.1885 0.3787
H11_4 H 0.8250 0.1316 0.3239
H12_4 H 0.8505 0.1903 0.3094
H13_4 H 0.7939 0.2367 0.3747
H14_4 H 0.7533 0.1864 0.3631
H15_4 H 0.7913 0.2070 0.4652
H16_4 H 0.7702 0.1479 0.4487
S5_3 S 0.9561(2) 0.1575(2) 0.6177(2)
Cu2_3 Cu 0.80449(9) 0.02524(11) 0.51923(9)
Cu3_3 Cu 0.98077(9) 0.19551(9) 0.52524(11)
I3_4 I 0.78153(5) 0.00685(6) 0.41439(5)
I4_3 I 0.71847(5) 0.00685(6) 0.58561(5)
I6_3 I 0.91439(5) 0.28153(5) 0.50685(6)
Cu5_6 Cu 0.69551(9) 0.02524(11) 0.48077(9)
Cu5_7 Cu 0.51923(9) 0.80449(9) 0.02524(11)
Cu5_8 Cu 0.01923(9) 0.30449(9) 0.52524(11)
I1_3 I 0.00685(6) 0.58561(5) 0.71847(5)
Cu1_2 Cu 0.02524(11) 0.48077(9) 0.69551(9)
Co1_4 Co 0.07747(9) 0.42253(9) 0.57747(9)
S1_4 S 0.1177(2) 0.4561(2) 0.6575(2)
S2_4 S 0.1059(2) 0.5125(2) 0.5531(2)
C1_4 C 0.1296(7) 0.5173(6) 0.6222(7)
N1_4 N 0.1531(6) 0.5605(6) 0.6436(5)
C2_4 C 0.1583(10) 0.6189(10) 0.6184(10)
C3_4 C 0.1684(11) 0.6591(10) 0.6627(8)
C4_4 C 0.1958(12) 0.6251(11) 0.7078(12)
C5_4 C 0.1751(8) 0.5627(9) 0.7021(8)
H1_4 H 0.1236 0.6287 0.5990
H2_4 H 0.1885 0.6213 0.5929
H3_4 H 0.1316 0.6761 0.6750
H4_4 H 0.1903 0.6906 0.6495
H5_4 H 0.2367 0.6253 0.7061
H6_4 H 0.1864 0.6369 0.7467
H7_4 H 0.2070 0.5348 0.7087
H8_4 H 0.1479 0.5513 0.7298
S3_4 S 0.1575(2) 0.3823(2) 0.5439(2)
S4_5 S 0.0531(2) 0.3941(2) 0.4875(2)
C6_5 C 0.1222(7) 0.3704(7) 0.4827(6)
N2_5 N 0.1436(5) 0.3469(6) 0.4395(6)
C7_5 C 0.1184(10) 0.3417(10) 0.3811(10)
C8_5 C 0.1627(8) 0.3316(11) 0.3409(10)
C9_5 C 0.2078(12) 0.3042(12) 0.3749(11)
C10_5 C 0.2021(8) 0.3249(8) 0.4373(9)
H9_5 H 0.0990 0.3764 0.3713
H10_5 H 0.0929 0.3115 0.3787
H11_5 H 0.1750 0.3684 0.3239
H12_5 H 0.1495 0.3097 0.3094
H13_5 H 0.2061 0.2633 0.3747
H14_5 H 0.2467 0.3136 0.3631
H15_5 H 0.2087 0.2930 0.4652
H16_5 H 0.2298 0.3521 0.4487
S5_4 S 0.0439(2) 0.3425(2) 0.6177(2)
I2_2 I 0.00685(6) 0.41439(5) 0.78153(5)
Cu4_3 Cu 0.02524(11) 0.51923(9) 0.80449(9)
S6_5 S 0.9875(2) 0.4469(2) 0.6059(2)
C11_5 C 0.9827(6) 0.3778(7) 0.6296(7)
N3_5 N 0.9395(6) 0.3564(5) 0.6531(6)
C12_5 C 0.8811(10) 0.3816(10) 0.6583(10)
C13_5 C 0.8409(10) 0.3373(8) 0.6684(11)
C14_5 C 0.8749(11) 0.2922(12) 0.6958(12)
C15_5 C 0.9373(9) 0.2979(8) 0.6751(8)
H17_5 H 0.8713 0.4010 0.6236
H18_5 H 0.8787 0.4071 0.6885
H19_5 H 0.8239 0.3250 0.6316
H20_5 H 0.8094 0.3505 0.6903
H21_5 H 0.8747 0.2939 0.7367
H22_5 H 0.8631 0.2533 0.6864
H23_5 H 0.9652 0.2913 0.7070
H24_5 H 0.9487 0.2702 0.6479
I1_4 I 0.50685(6) 0.08561(5) 0.21847(5)
S2_5 S 0.6059(2) 0.0125(2) 0.0531(2)
C1_5 C 0.6296(7) 0.0173(6) 0.1222(7)
N1_5 N 0.6531(6) 0.0605(6) 0.1436(5)
C2_5 C 0.6583(10) 0.1189(10) 0.1184(10)
C3_5 C 0.6684(11) 0.1591(10) 0.1627(8)
C4_5 C 0.6958(12) 0.1251(11) 0.2078(12)
C5_5 C 0.6751(8) 0.0627(9) 0.2021(8)
H1_5 H 0.6236 0.1287 0.0990
H2_5 H 0.6885 0.1213 0.0929
H3_5 H 0.6316 0.1761 0.1750
H4_5 H 0.6903 0.1906 0.1495
H5_5 H 0.7367 0.1253 0.2061
H6_5 H 0.6864 0.1369 0.2467
H7_5 H 0.7070 0.0348 0.2087
H8_5 H 0.6479 0.0513 0.2298
Cu4_4 Cu 0.52524(11) 0.01923(9) 0.30449(9)
Cu1_3 Cu 0.52524(11) 0.98077(9) 0.19551(9)
Co1_5 Co 0.57747(9) 0.92253(9) 0.07747(9)
S1_5 S 0.6177(2) 0.9561(2) 0.1575(2)
S3_5 S 0.6575(2) 0.8823(2) 0.0439(2)
S5_5 S 0.5439(2) 0.8425(2) 0.1177(2)
S6_6 S 0.4875(2) 0.9469(2) 0.1059(2)
C11_6 C 0.4827(6) 0.8778(7) 0.1296(7)
N3_6 N 0.4395(6) 0.8564(5) 0.1531(6)
C12_6 C 0.3811(10) 0.8816(10) 0.1583(10)
C13_6 C 0.3409(10) 0.8373(8) 0.1684(11)
C14_6 C 0.3749(11) 0.7922(12) 0.1958(12)
C15_6 C 0.4373(9) 0.7979(8) 0.1751(8)
H17_6 H 0.3713 0.9010 0.1236
H18_6 H 0.3787 0.9071 0.1885
H19_6 H 0.3239 0.8250 0.1316
H20_6 H 0.3094 0.8505 0.1903
H21_6 H 0.3747 0.7939 0.2367
H22_6 H 0.3631 0.7533 0.1864
H23_6 H 0.4652 0.7913 0.2070
H24_6 H 0.4487 0.7702 0.1479
I2_3 I 0.50685(6) 0.91439(5) 0.28153(5)
Co1_6 Co 0.57747(9) 0.07747(9) 0.42253(9)
S1_6 S 0.6177(2) 0.0439(2) 0.3425(2)
S3_6 S 0.6575(2) 0.1177(2) 0.4561(2)
S4_6 S 0.5531(2) 0.1059(2) 0.5125(2)
C6_6 C 0.6222(7) 0.1296(7) 0.5173(6)
N2_6 N 0.6436(5) 0.1531(6) 0.5605(6)
C7_6 C 0.6184(10) 0.1583(10) 0.6189(10)
C8_6 C 0.6627(8) 0.1684(11) 0.6591(10)
C9_6 C 0.7078(12) 0.1958(12) 0.6251(11)
C10_6 C 0.7021(8) 0.1751(8) 0.5627(9)
H9_6 H 0.5990 0.1236 0.6287
H10_6 H 0.5929 0.1885 0.6213
H11_6 H 0.6750 0.1316 0.6761
H12_6 H 0.6495 0.1903 0.6906
H13_6 H 0.7061 0.2367 0.6253
H14_6 H 0.7467 0.1864 0.6369
H15_6 H 0.7087 0.2070 0.5348
H16_6 H 0.7298 0.1479 0.5513
S5_6 S 0.5439(2) 0.1575(2) 0.3823(2)
S6_7 S 0.4875(2) 0.0531(2) 0.3941(2)
C11_7 C 0.4827(6) 0.1222(7) 0.3704(7)
N3_7 N 0.4395(6) 0.1436(5) 0.3469(6)
C12_7 C 0.3811(10) 0.1184(10) 0.3417(10)
C13_7 C 0.3409(10) 0.1627(8) 0.3316(11)
C14_7 C 0.3749(11) 0.2078(12) 0.3042(12)
C15_7 C 0.4373(9) 0.2021(8) 0.3249(8)
H17_7 H 0.3713 0.0990 0.3764
H18_7 H 0.3787 0.0929 0.3115
H19_7 H 0.3239 0.1750 0.3684
H20_7 H 0.3094 0.1495 0.3097
H21_7 H 0.3747 0.2061 0.2633
H22_7 H 0.3631 0.2467 0.3136
H23_7 H 0.4652 0.2087 0.2930
H24_7 H 0.4487 0.2298 0.3521
S2_6 S 0.6059(2) 0.9875(2) 0.4469(2)
C1_6 C 0.6296(7) 0.9827(6) 0.3778(7)
N1_6 N 0.6531(6) 0.9395(6) 0.3564(5)
C2_6 C 0.6583(10) 0.8811(10) 0.3816(10)
C3_6 C 0.6684(11) 0.8409(10) 0.3373(8)
C4_6 C 0.6958(12) 0.8749(11) 0.2922(12)
C5_6 C 0.6751(8) 0.9373(9) 0.2979(8)
H1_6 H 0.6236 0.8713 0.4010
H2_6 H 0.6885 0.8787 0.4071
H3_6 H 0.6316 0.8239 0.3250
H4_6 H 0.6903 0.8094 0.3505
H5_6 H 0.7367 0.8747 0.2939
H6_6 H 0.6864 0.8631 0.2533
H7_6 H 0.7070 0.9652 0.2913
H8_6 H 0.6479 0.9487 0.2702
S4_7 S 0.0531(2) 0.6059(2) 0.0125(2)
C6_7 C 0.1222(7) 0.6296(7) 0.0173(6)
N2_7 N 0.1436(5) 0.6531(6) 0.0605(6)
C7_7 C 0.1184(10) 0.6583(10) 0.1189(10)
C8_7 C 0.1627(8) 0.6684(11) 0.1591(10)
C9_7 C 0.2078(12) 0.6958(12) 0.1251(11)
C10_7 C 0.2021(8) 0.6751(8) 0.0627(9)
H9_7 H 0.0990 0.6236 0.1287
H10_7 H 0.0929 0.6885 0.1213
H11_7 H 0.1750 0.6316 0.1761
H12_7 H 0.1495 0.6903 0.1906
H13_7 H 0.2061 0.7367 0.1253
H14_7 H 0.2467 0.6864 0.1369
H15_7 H 0.2087 0.7070 0.0348
H16_7 H 0.2298 0.6479 0.0513
Co1_7 Co 0.07747(9) 0.57747(9) 0.92253(9)
S1_7 S 0.1177(2) 0.5439(2) 0.8425(2)
S2_7 S 0.1059(2) 0.4875(2) 0.9469(2)
C1_7 C 0.1296(7) 0.4827(6) 0.8778(7)
N1_7 N 0.1531(6) 0.4395(6) 0.8564(5)
C2_7 C 0.1583(10) 0.3811(10) 0.8816(10)
C3_7 C 0.1684(11) 0.3409(10) 0.8373(8)
C4_7 C 0.1958(12) 0.3749(11) 0.7922(12)
C5_7 C 0.1751(8) 0.4373(9) 0.7979(8)
H1_7 H 0.1236 0.3713 0.9010
H2_7 H 0.1885 0.3787 0.9071
H3_7 H 0.1316 0.3239 0.8250
H4_7 H 0.1903 0.3094 0.8505
H5_7 H 0.2367 0.3747 0.7939
H6_7 H 0.1864 0.3631 0.7533
H7_7 H 0.2070 0.4652 0.7913
H8_7 H 0.1479 0.4487 0.7702
S3_7 S 0.1575(2) 0.6177(2) 0.9561(2)
S5_7 S 0.0439(2) 0.6575(2) 0.8823(2)
Cu1_4 Cu 0.97476(11) 0.98077(9) 0.80449(9)
Co1_8 Co 0.92253(9) 0.92253(9) 0.92253(9)
S1_8 S 0.8823(2) 0.9561(2) 0.8425(2)
S3_8 S 0.8425(2) 0.8823(2) 0.9561(2)
S5_8 S 0.9561(2) 0.8425(2) 0.8823(2)
Cu2_4 Cu 0.80449(9) 0.97476(11) 0.98077(9)
Cu3_4 Cu 0.98077(9) 0.80449(9) 0.97476(11)
I2_4 I 0.99315(6) 0.91439(5) 0.71847(5)
I4_4 I 0.71847(5) 0.99315(6) 0.91439(5)
I6_4 I 0.91439(5) 0.71847(5) 0.99315(6)
S2_8 S 0.8941(2) 0.9875(2) 0.5531(2)
C1_8 C 0.8704(7) 0.9827(6) 0.6222(7)
N1_8 N 0.8469(6) 0.9395(6) 0.6436(5)
C2_8 C 0.8417(10) 0.8811(10) 0.6184(10)
C3_8 C 0.8316(11) 0.8409(10) 0.6627(8)
C4_8 C 0.8042(12) 0.8749(11) 0.7078(12)
C5_8 C 0.8249(8) 0.9373(9) 0.7021(8)
H1_8 H 0.8764 0.8713 0.5990
H2_8 H 0.8115 0.8787 0.5929
H3_8 H 0.8684 0.8239 0.6750
H4_8 H 0.8097 0.8094 0.6495
H5_8 H 0.7633 0.8747 0.7061
H6_8 H 0.8136 0.8631 0.7467
H7_8 H 0.7930 0.9652 0.7087
H8_8 H 0.8521 0.9487 0.7298
S4_8 S 0.5531(2) 0.8941(2) 0.9875(2)
C6_8 C 0.6222(7) 0.8704(7) 0.9827(6)
N2_8 N 0.6436(5) 0.8469(6) 0.9395(6)
C7_8 C 0.6184(10) 0.8417(10) 0.8811(10)
C8_8 C 0.6627(8) 0.8316(11) 0.8409(10)
C9_8 C 0.7078(12) 0.8042(12) 0.8749(11)
C10_8 C 0.7021(8) 0.8249(8) 0.9373(9)
H9_8 H 0.5990 0.8764 0.8713
H10_8 H 0.5929 0.8115 0.8787
H11_8 H 0.6750 0.8684 0.8239
H12_8 H 0.6495 0.8097 0.8094
H13_8 H 0.7061 0.7633 0.8747
H14_8 H 0.7467 0.8136 0.8631
H15_8 H 0.7087 0.7930 0.9652
H16_8 H 0.7298 0.8521 0.9487
S6_8 S 0.9875(2) 0.5531(2) 0.8941(2)
C11_8 C 0.9827(6) 0.6222(7) 0.8704(7)
N3_8 N 0.9395(6) 0.6436(5) 0.8469(6)
C12_8 C 0.8811(10) 0.6184(10) 0.8417(10)
C13_8 C 0.8409(10) 0.6627(8) 0.8316(11)
C14_8 C 0.8749(11) 0.7078(12) 0.8042(12)
C15_8 C 0.9373(9) 0.7021(8) 0.8249(8)
H17_8 H 0.8713 0.5990 0.8764
H18_8 H 0.8787 0.5929 0.8115
H19_8 H 0.8239 0.6750 0.8684
H20_8 H 0.8094 0.6495 0.8097
H21_8 H 0.8747 0.7061 0.7633
H22_8 H 0.8631 0.7467 0.8136
H23_8 H 0.9652 0.7087 0.7930
H24_8 H 0.9487 0.7298 0.8521
I1_5 I 0.33561(5) 0.24315(6) 0.03153(5)
Cu1_5 Cu 0.23077(9) 0.22476(11) 0.05449(9)
Co1_9 Co 0.17253(9) 0.17253(9) 0.17253(9)
S1_9 S 0.2061(2) 0.1323(2) 0.0925(2)
S2_9 S 0.2625(2) 0.1441(2) 0.1969(2)
C1_9 C 0.2673(6) 0.1204(7) 0.1278(7)
N1_9 N 0.3105(6) 0.0969(6) 0.1064(5)
C2_9 C 0.3689(10) 0.0917(10) 0.1316(10)
C3_9 C 0.4091(10) 0.0816(11) 0.0873(8)
C4_9 C 0.3751(11) 0.0542(12) 0.0422(12)
C5_9 C 0.3127(9) 0.0749(8) 0.0479(8)
H1_9 H 0.3787 0.1264 0.1510
H2_9 H 0.3713 0.0615 0.1571
H3_9 H 0.4261 0.1184 0.0750
H4_9 H 0.4406 0.0597 0.1005
H5_9 H 0.3753 0.0133 0.0439
H6_9 H 0.3869 0.0636 0.0033
H7_9 H 0.2848 0.0430 0.0413
H8_9 H 0.3013 0.1021 0.0202
S3_9 S 0.1323(2) 0.0925(2) 0.2061(2)
S4_9 S 0.1441(2) 0.1969(2) 0.2625(2)
C6_9 C 0.1204(7) 0.1278(7) 0.2673(6)
N2_9 N 0.0969(6) 0.1064(5) 0.3105(6)
C7_9 C 0.0917(10) 0.1316(10) 0.3689(10)
C8_9 C 0.0816(11) 0.0873(8) 0.4091(10)
C9_9 C 0.0542(12) 0.0422(12) 0.3751(11)
C10_9 C 0.0749(8) 0.0479(8) 0.3127(9)
H9_9 H 0.1264 0.1510 0.3787
H10_9 H 0.0615 0.1571 0.3713
H11_9 H 0.1184 0.0750 0.4261
H12_9 H 0.0597 0.1005 0.4406
H13_9 H 0.0133 0.0439 0.3753
H14_9 H 0.0636 0.0033 0.3869
H15_9 H 0.0430 0.0413 0.2848
H16_9 H 0.1021 0.0202 0.3013
S5_9 S 0.0925(2) 0.2061(2) 0.1323(2)
S6_9 S 0.1969(2) 0.2625(2) 0.1441(2)
C11_9 C 0.1278(7) 0.2673(6) 0.1204(7)
N3_9 N 0.1064(5) 0.3105(6) 0.0969(6)
C12_9 C 0.1316(10) 0.3689(10) 0.0917(10)
C13_9 C 0.0873(8) 0.4091(10) 0.0816(11)
C14_9 C 0.0422(12) 0.3751(11) 0.0542(12)
C15_9 C 0.0479(8) 0.3127(9) 0.0749(8)
H17_9 H 0.1510 0.3787 0.1264
H18_9 H 0.1571 0.3713 0.0615
H19_9 H 0.0750 0.4261 0.1184
H20_9 H 0.1005 0.4406 0.0597
H21_9 H 0.0439 0.3753 0.0133
H22_9 H 0.0033 0.3869 0.0636
H23_9 H 0.0413 0.2848 0.0430
H24_9 H 0.0202 0.3013 0.1021
Cu2_5 Cu 0.22476(11) 0.05449(9) 0.23077(9)
Cu3_5 Cu 0.05449(9) 0.23077(9) 0.22476(11)
I3_5 I 0.24315(6) 0.03153(5) 0.33561(5)
I5_5 I 0.03153(5) 0.33561(5) 0.24315(6)
I2_5 I 0.16439(5) 0.24315(6) 0.96847(5)
Cu4_5 Cu 0.26923(9) 0.22476(11) 0.94551(9)
I4_5 I 0.24315(6) 0.96847(5) 0.16439(5)
Cu5_9 Cu 0.22476(11) 0.94551(9) 0.26923(9)
I6_5 I 0.96847(5) 0.16439(5) 0.24315(6)
I1_6 I 0.83561(5) 0.74315(6) 0.53153(5)
Cu1_6 Cu 0.73077(9) 0.72476(11) 0.55449(9)
Co1_10 Co 0.67253(9) 0.67253(9) 0.67253(9)
S1_10 S 0.7061(2) 0.6323(2) 0.5925(2)
S2_10 S 0.7625(2) 0.6441(2) 0.6969(2)
C1_10 C 0.7673(6) 0.6204(7) 0.6278(7)
N1_10 N 0.8105(6) 0.5969(6) 0.6064(5)
C2_10 C 0.8689(10) 0.5917(10) 0.6316(10)
C3_10 C 0.9091(10) 0.5816(11) 0.5873(8)
C4_10 C 0.8751(11) 0.5542(12) 0.5422(12)
C5_10 C 0.8127(9) 0.5749(8) 0.5479(8)
H1_10 H 0.8787 0.6264 0.6510
H2_10 H 0.8713 0.5615 0.6571
H3_10 H 0.9261 0.6184 0.5750
H4_10 H 0.9406 0.5597 0.6005
H5_10 H 0.8753 0.5133 0.5439
H6_10 H 0.8869 0.5636 0.5033
H7_10 H 0.7848 0.5430 0.5413
H8_10 H 0.8013 0.6021 0.5202
S3_10 S 0.6323(2) 0.5925(2) 0.7061(2)
S4_10 S 0.6441(2) 0.6969(2) 0.7625(2)
C6_10 C 0.6204(7) 0.6278(7) 0.7673(6)
N2_10 N 0.5969(6) 0.6064(5) 0.8105(6)
C7_10 C 0.5917(10) 0.6316(10) 0.8689(10)
C8_10 C 0.5816(11) 0.5873(8) 0.9091(10)
C9_10 C 0.5542(12) 0.5422(12) 0.8751(11)
C10_10 C 0.5749(8) 0.5479(8) 0.8127(9)
H9_10 H 0.6264 0.6510 0.8787
H10_10 H 0.5615 0.6571 0.8713
H11_10 H 0.6184 0.5750 0.9261
H12_10 H 0.5597 0.6005 0.9406
H13_10 H 0.5133 0.5439 0.8753
H14_10 H 0.5636 0.5033 0.8869
H15_10 H 0.5430 0.5413 0.7848
H16_10 H 0.6021 0.5202 0.8013
S5_10 S 0.5925(2) 0.7061(2) 0.6323(2)
S6_10 S 0.6969(2) 0.7625(2) 0.6441(2)
C11_10 C 0.6278(7) 0.7673(6) 0.6204(7)
N3_10 N 0.6064(5) 0.8105(6) 0.5969(6)
C12_10 C 0.6316(10) 0.8689(10) 0.5917(10)
C13_10 C 0.5873(8) 0.9091(10) 0.5816(11)
C14_10 C 0.5422(12) 0.8751(11) 0.5542(12)
C15_10 C 0.5479(8) 0.8127(9) 0.5749(8)
H17_10 H 0.6510 0.8787 0.6264
H18_10 H 0.6571 0.8713 0.5615
H19_10 H 0.5750 0.9261 0.6184
H20_10 H 0.6005 0.9406 0.5597
H21_10 H 0.5439 0.8753 0.5133
H22_10 H 0.5033 0.8869 0.5636
H23_10 H 0.5413 0.7848 0.5430
H24_10 H 0.5202 0.8013 0.6021
Cu2_6 Cu 0.72476(11) 0.55449(9) 0.73077(9)
Cu3_6 Cu 0.55449(9) 0.73077(9) 0.72476(11)
I2_6 I 0.66439(5) 0.74315(6) 0.46847(5)
I3_6 I 0.74315(6) 0.53153(5) 0.83561(5)
Cu4_6 Cu 0.76923(9) 0.72476(11) 0.44551(9)
I4_6 I 0.74315(6) 0.46847(5) 0.66439(5)
I5_6 I 0.53153(5) 0.83561(5) 0.74315(6)
I6_6 I 0.46847(5) 0.66439(5) 0.74315(6)
Cu5_10 Cu 0.72476(11) 0.44551(9) 0.76923(9)
Cu5_11 Cu 0.94551(9) 0.26923(9) 0.22476(11)
Cu5_12 Cu 0.44551(9) 0.76923(9) 0.72476(11)
I6_7 I 0.03153(5) 0.66439(5) 0.25685(6)
Co1_11 Co 0.82747(9) 0.67253(9) 0.32747(9)
S1_11 S 0.7939(2) 0.6323(2) 0.4075(2)
S2_11 S 0.7375(2) 0.6441(2) 0.3031(2)
C1_11 C 0.7327(6) 0.6204(7) 0.3722(7)
N1_11 N 0.6895(6) 0.5969(6) 0.3936(5)
C2_11 C 0.6311(10) 0.5917(10) 0.3684(10)
C3_11 C 0.5909(10) 0.5816(11) 0.4127(8)
C4_11 C 0.6249(11) 0.5542(12) 0.4578(12)
C5_11 C 0.6873(9) 0.5749(8) 0.4521(8)
H1_11 H 0.6213 0.6264 0.3490
H2_11 H 0.6287 0.5615 0.3429
H3_11 H 0.5739 0.6184 0.4250
H4_11 H 0.5594 0.5597 0.3995
H5_11 H 0.6247 0.5133 0.4561
H6_11 H 0.6131 0.5636 0.4967
H7_11 H 0.7152 0.5430 0.4587
H8_11 H 0.6987 0.6021 0.4798
S3_11 S 0.8677(2) 0.5925(2) 0.2939(2)
S4_11 S 0.8559(2) 0.6969(2) 0.2375(2)
C6_11 C 0.8796(7) 0.6278(7) 0.2327(6)
N2_11 N 0.9031(6) 0.6064(5) 0.1895(6)
C7_11 C 0.9083(10) 0.6316(10) 0.1311(10)
C8_11 C 0.9184(11) 0.5873(8) 0.0909(10)
C9_11 C 0.9458(12) 0.5422(12) 0.1249(11)
C10_11 C 0.9251(8) 0.5479(8) 0.1873(9)
H9_11 H 0.8736 0.6510 0.1213
H10_11 H 0.9385 0.6571 0.1287
H11_11 H 0.8816 0.5750 0.0739
H12_11 H 0.9403 0.6005 0.0594
H13_11 H 0.9867 0.5439 0.1247
H14_11 H 0.9364 0.5033 0.1131
H15_11 H 0.9570 0.5413 0.2152
H16_11 H 0.8979 0.5202 0.1987
S5_11 S 0.9075(2) 0.7061(2) 0.3677(2)
S6_11 S 0.8031(2) 0.7625(2) 0.3559(2)
C11_11 C 0.8722(7) 0.7673(6) 0.3796(7)
N3_11 N 0.8936(5) 0.8105(6) 0.4031(6)
C12_11 C 0.8684(10) 0.8689(10) 0.4083(10)
C13_11 C 0.9127(8) 0.9091(10) 0.4184(11)
C14_11 C 0.9578(12) 0.8751(11) 0.4458(12)
C15_11 C 0.9521(8) 0.8127(9) 0.4251(8)
H17_11 H 0.8490 0.8787 0.3736
H18_11 H 0.8429 0.8713 0.4385
H19_11 H 0.9250 0.9261 0.3816
H20_11 H 0.8995 0.9406 0.4403
H21_11 H 0.9561 0.8753 0.4867
H22_11 H 0.9967 0.8869 0.4364
H23_11 H 0.9587 0.7848 0.4570
H24_11 H 0.9798 0.8013 0.3979
Cu2_7 Cu 0.77524(11) 0.55449(9) 0.26923(9)
Cu3_7 Cu 0.94551(9) 0.73077(9) 0.27524(11)
I3_7 I 0.75685(6) 0.53153(5) 0.16439(5)
I4_7 I 0.75685(6) 0.46847(5) 0.33561(5)
I5_7 I 0.96847(5) 0.83561(5) 0.25685(6)
Cu5_13 Cu 0.77524(11) 0.44551(9) 0.23077(9)
Co1_12 Co 0.32747(9) 0.17253(9) 0.82747(9)
S1_12 S 0.2939(2) 0.1323(2) 0.9075(2)
S2_12 S 0.2375(2) 0.1441(2) 0.8031(2)
C1_12 C 0.2327(6) 0.1204(7) 0.8722(7)
N1_12 N 0.1895(6) 0.0969(6) 0.8936(5)
C2_12 C 0.1311(10) 0.0917(10) 0.8684(10)
C3_12 C 0.0909(10) 0.0816(11) 0.9127(8)
C4_12 C 0.1249(11) 0.0542(12) 0.9578(12)
C5_12 C 0.1873(9) 0.0749(8) 0.9521(8)
H1_12 H 0.1213 0.1264 0.8490
H2_12 H 0.1287 0.0615 0.8429
H3_12 H 0.0739 0.1184 0.9250
H4_12 H 0.0594 0.0597 0.8995
H5_12 H 0.1247 0.0133 0.9561
H6_12 H 0.1131 0.0636 0.9967
H7_12 H 0.2152 0.0430 0.9587
H8_12 H 0.1987 0.1021 0.9798
S3_12 S 0.3677(2) 0.0925(2) 0.7939(2)
S4_12 S 0.3559(2) 0.1969(2) 0.7375(2)
C6_12 C 0.3796(7) 0.1278(7) 0.7327(6)
N2_12 N 0.4031(6) 0.1064(5) 0.6895(6)
C7_12 C 0.4083(10) 0.1316(10) 0.6311(10)
C8_12 C 0.4184(11) 0.0873(8) 0.5909(10)
C9_12 C 0.4458(12) 0.0422(12) 0.6249(11)
C10_12 C 0.4251(8) 0.0479(8) 0.6873(9)
H9_12 H 0.3736 0.1510 0.6213
H10_12 H 0.4385 0.1571 0.6287
H11_12 H 0.3816 0.0750 0.5739
H12_12 H 0.4403 0.1005 0.5594
H13_12 H 0.4867 0.0439 0.6247
H14_12 H 0.4364 0.0033 0.6131
H15_12 H 0.4570 0.0413 0.7152
H16_12 H 0.3979 0.0202 0.6987
S5_12 S 0.4075(2) 0.2061(2) 0.8677(2)
S6_12 S 0.3031(2) 0.2625(2) 0.8559(2)
C11_12 C 0.3722(7) 0.2673(6) 0.8796(7)
N3_12 N 0.3936(5) 0.3105(6) 0.9031(6)
C12_12 C 0.3684(10) 0.3689(10) 0.9083(10)
C13_12 C 0.4127(8) 0.4091(10) 0.9184(11)
C14_12 C 0.4578(12) 0.3751(11) 0.9458(12)
C15_12 C 0.4521(8) 0.3127(9) 0.9251(8)
H17_12 H 0.3490 0.3787 0.8736
H18_12 H 0.3429 0.3713 0.9385
H19_12 H 0.4250 0.4261 0.8816
H20_12 H 0.3995 0.4406 0.9403
H21_12 H 0.4561 0.3753 0.9867
H22_12 H 0.4967 0.3869 0.9364
H23_12 H 0.4587 0.2848 0.9570
H24_12 H 0.4798 0.3013 0.8979
Cu2_8 Cu 0.27524(11) 0.05449(9) 0.76923(9)
Cu3_8 Cu 0.44551(9) 0.23077(9) 0.77524(11)
I3_8 I 0.25685(6) 0.03153(5) 0.66439(5)
I5_8 I 0.46847(5) 0.33561(5) 0.75685(6)
I6_8 I 0.53153(5) 0.16439(5) 0.75685(6)
I4_8 I 0.25685(6) 0.96847(5) 0.83561(5)
Cu5_14 Cu 0.27524(11) 0.94551(9) 0.73077(9)
Cu5_15 Cu 0.05449(9) 0.76923(9) 0.27524(11)
Cu5_16 Cu 0.55449(9) 0.26923(9) 0.77524(11)
I2_7 I 0.66439(5) 0.25685(6) 0.03153(5)
Cu4_7 Cu 0.76923(9) 0.27524(11) 0.05449(9)
I1_7 I 0.83561(5) 0.25685(6) 0.96847(5)
Cu1_7 Cu 0.73077(9) 0.27524(11) 0.94551(9)
Co1_13 Co 0.67253(9) 0.32747(9) 0.82747(9)
S1_13 S 0.7061(2) 0.3677(2) 0.9075(2)
S2_13 S 0.7625(2) 0.3559(2) 0.8031(2)
C1_13 C 0.7673(6) 0.3796(7) 0.8722(7)
N1_13 N 0.8105(6) 0.4031(6) 0.8936(5)
C2_13 C 0.8689(10) 0.4083(10) 0.8684(10)
C3_13 C 0.9091(10) 0.4184(11) 0.9127(8)
C4_13 C 0.8751(11) 0.4458(12) 0.9578(12)
C5_13 C 0.8127(9) 0.4251(8) 0.9521(8)
H1_13 H 0.8787 0.3736 0.8490
H2_13 H 0.8713 0.4385 0.8429
H3_13 H 0.9261 0.3816 0.9250
H4_13 H 0.9406 0.4403 0.8995
H5_13 H 0.8753 0.4867 0.9561
H6_13 H 0.8869 0.4364 0.9967
H7_13 H 0.7848 0.4570 0.9587
H8_13 H 0.8013 0.3979 0.9798
S3_13 S 0.6323(2) 0.4075(2) 0.7939(2)
S4_13 S 0.6441(2) 0.3031(2) 0.7375(2)
C6_13 C 0.6204(7) 0.3722(7) 0.7327(6)
N2_13 N 0.5969(6) 0.3936(5) 0.6895(6)
C7_13 C 0.5917(10) 0.3684(10) 0.6311(10)
C8_13 C 0.5816(11) 0.4127(8) 0.5909(10)
C9_13 C 0.5542(12) 0.4578(12) 0.6249(11)
C10_13 C 0.5749(8) 0.4521(8) 0.6873(9)
H9_13 H 0.6264 0.3490 0.6213
H10_13 H 0.5615 0.3429 0.6287
H11_13 H 0.6184 0.4250 0.5739
H12_13 H 0.5597 0.3995 0.5594
H13_13 H 0.5133 0.4561 0.6247
H14_13 H 0.5636 0.4967 0.6131
H15_13 H 0.5430 0.4587 0.7152
H16_13 H 0.6021 0.4798 0.6987
S5_13 S 0.5925(2) 0.2939(2) 0.8677(2)
S6_13 S 0.6969(2) 0.2375(2) 0.8559(2)
C11_13 C 0.6278(7) 0.2327(6) 0.8796(7)
N3_13 N 0.6064(5) 0.1895(6) 0.9031(6)
C12_13 C 0.6316(10) 0.1311(10) 0.9083(10)
C13_13 C 0.5873(8) 0.0909(10) 0.9184(11)
C14_13 C 0.5422(12) 0.1249(11) 0.9458(12)
C15_13 C 0.5479(8) 0.1873(9) 0.9251(8)
H17_13 H 0.6510 0.1213 0.8736
H18_13 H 0.6571 0.1287 0.9385
H19_13 H 0.5750 0.0739 0.8816
H20_13 H 0.6005 0.0594 0.9403
H21_13 H 0.5439 0.1247 0.9867
H22_13 H 0.5033 0.1131 0.9364
H23_13 H 0.5413 0.2152 0.9570
H24_13 H 0.5202 0.1987 0.8979
I1_8 I 0.33561(5) 0.75685(6) 0.46847(5)
Cu1_8 Cu 0.23077(9) 0.77524(11) 0.44551(9)
Co1_14 Co 0.17253(9) 0.82747(9) 0.32747(9)
S1_14 S 0.2061(2) 0.8677(2) 0.4075(2)
S2_14 S 0.2625(2) 0.8559(2) 0.3031(2)
C1_14 C 0.2673(6) 0.8796(7) 0.3722(7)
N1_14 N 0.3105(6) 0.9031(6) 0.3936(5)
C2_14 C 0.3689(10) 0.9083(10) 0.3684(10)
C3_14 C 0.4091(10) 0.9184(11) 0.4127(8)
C4_14 C 0.3751(11) 0.9458(12) 0.4578(12)
C5_14 C 0.3127(9) 0.9251(8) 0.4521(8)
H1_14 H 0.3787 0.8736 0.3490
H2_14 H 0.3713 0.9385 0.3429
H3_14 H 0.4261 0.8816 0.4250
H4_14 H 0.4406 0.9403 0.3995
H5_14 H 0.3753 0.9867 0.4561
H6_14 H 0.3869 0.9364 0.4967
H7_14 H 0.2848 0.9570 0.4587
H8_14 H 0.3013 0.8979 0.4798
S3_14 S 0.1323(2) 0.9075(2) 0.2939(2)
S4_14 S 0.1441(2) 0.8031(2) 0.2375(2)
C6_14 C 0.1204(7) 0.8722(7) 0.2327(6)
N2_14 N 0.0969(6) 0.8936(5) 0.1895(6)
C7_14 C 0.0917(10) 0.8684(10) 0.1311(10)
C8_14 C 0.0816(11) 0.9127(8) 0.0909(10)
C9_14 C 0.0542(12) 0.9578(12) 0.1249(11)
C10_14 C 0.0749(8) 0.9521(8) 0.1873(9)
H9_14 H 0.1264 0.8490 0.1213
H10_14 H 0.0615 0.8429 0.1287
H11_14 H 0.1184 0.9250 0.0739
H12_14 H 0.0597 0.8995 0.0594
H13_14 H 0.0133 0.9561 0.1247
H14_14 H 0.0636 0.9967 0.1131
H15_14 H 0.0430 0.9587 0.2152
H16_14 H 0.1021 0.9798 0.1987
S5_14 S 0.0925(2) 0.7939(2) 0.3677(2)
S6_14 S 0.1969(2) 0.7375(2) 0.3559(2)
C11_14 C 0.1278(7) 0.7327(6) 0.3796(7)
N3_14 N 0.1064(5) 0.6895(6) 0.4031(6)
C12_14 C 0.1316(10) 0.6311(10) 0.4083(10)
C13_14 C 0.0873(8) 0.5909(10) 0.4184(11)
C14_14 C 0.0422(12) 0.6249(11) 0.4458(12)
C15_14 C 0.0479(8) 0.6873(9) 0.4251(8)
H17_14 H 0.1510 0.6213 0.3736
H18_14 H 0.1571 0.6287 0.4385
H19_14 H 0.0750 0.5739 0.3816
H20_14 H 0.1005 0.5594 0.4403
H21_14 H 0.0439 0.6247 0.4867
H22_14 H 0.0033 0.6131 0.4364
H23_14 H 0.0413 0.7152 0.4570
H24_14 H 0.0202 0.6987 0.3979
I2_8 I 0.16439(5) 0.75685(6) 0.53153(5)
Cu4_8 Cu 0.26923(9) 0.77524(11) 0.55449(9)
Co1_15 Co 0.32747(9) 0.82747(9) 0.67253(9)
S1_15 S 0.2939(2) 0.8677(2) 0.5925(2)
S2_15 S 0.2375(2) 0.8559(2) 0.6969(2)
C1_15 C 0.2327(6) 0.8796(7) 0.6278(7)
N1_15 N 0.1895(6) 0.9031(6) 0.6064(5)
C2_15 C 0.1311(10) 0.9083(10) 0.6316(10)
C3_15 C 0.0909(10) 0.9184(11) 0.5873(8)
C4_15 C 0.1249(11) 0.9458(12) 0.5422(12)
C5_15 C 0.1873(9) 0.9251(8) 0.5479(8)
H1_15 H 0.1213 0.8736 0.6510
H2_15 H 0.1287 0.9385 0.6571
H3_15 H 0.0739 0.8816 0.5750
H4_15 H 0.0594 0.9403 0.6005
H5_15 H 0.1247 0.9867 0.5439
H6_15 H 0.1131 0.9364 0.5033
H7_15 H 0.2152 0.9570 0.5413
H8_15 H 0.1987 0.8979 0.5202
S3_15 S 0.3677(2) 0.9075(2) 0.7061(2)
S4_15 S 0.3559(2) 0.8031(2) 0.7625(2)
C6_15 C 0.3796(7) 0.8722(7) 0.7673(6)
N2_15 N 0.4031(6) 0.8936(5) 0.8105(6)
C7_15 C 0.4083(10) 0.8684(10) 0.8689(10)
C8_15 C 0.4184(11) 0.9127(8) 0.9091(10)
C9_15 C 0.4458(12) 0.9578(12) 0.8751(11)
C10_15 C 0.4251(8) 0.9521(8) 0.8127(9)
H9_15 H 0.3736 0.8490 0.8787
H10_15 H 0.4385 0.8429 0.8713
H11_15 H 0.3816 0.9250 0.9261
H12_15 H 0.4403 0.8995 0.9406
H13_15 H 0.4867 0.9561 0.8753
H14_15 H 0.4364 0.9967 0.8869
H15_15 H 0.4570 0.9587 0.7848
H16_15 H 0.3979 0.9798 0.8013
S5_15 S 0.4075(2) 0.7939(2) 0.6323(2)
S6_15 S 0.3031(2) 0.7375(2) 0.6441(2)
C11_15 C 0.3722(7) 0.7327(6) 0.6204(7)
N3_15 N 0.3936(5) 0.6895(6) 0.5969(6)
C12_15 C 0.3684(10) 0.6311(10) 0.5917(10)
C13_15 C 0.4127(8) 0.5909(10) 0.5816(11)
C14_15 C 0.4578(12) 0.6249(11) 0.5542(12)
C15_15 C 0.4521(8) 0.6873(9) 0.5749(8)
H17_15 H 0.3490 0.6213 0.6264
H18_15 H 0.3429 0.6287 0.5615
H19_15 H 0.4250 0.5739 0.6184
H20_15 H 0.3995 0.5594 0.5597
H21_15 H 0.4561 0.6247 0.5133
H22_15 H 0.4967 0.6131 0.5636
H23_15 H 0.4587 0.7152 0.5430
H24_15 H 0.4798 0.6987 0.6021
Co1_16 Co 0.82747(9) 0.32747(9) 0.17253(9)
S1_16 S 0.7939(2) 0.3677(2) 0.0925(2)
S2_16 S 0.7375(2) 0.3559(2) 0.1969(2)
C1_16 C 0.7327(6) 0.3796(7) 0.1278(7)
N1_16 N 0.6895(6) 0.4031(6) 0.1064(5)
C2_16 C 0.6311(10) 0.4083(10) 0.1316(10)
C3_16 C 0.5909(10) 0.4184(11) 0.0873(8)
C4_16 C 0.6249(11) 0.4458(12) 0.0422(12)
C5_16 C 0.6873(9) 0.4251(8) 0.0479(8)
H1_16 H 0.6213 0.3736 0.1510
H2_16 H 0.6287 0.4385 0.1571
H3_16 H 0.5739 0.3816 0.0750
H4_16 H 0.5594 0.4403 0.1005
H5_16 H 0.6247 0.4867 0.0439
H6_16 H 0.6131 0.4364 0.0033
H7_16 H 0.7152 0.4570 0.0413
H8_16 H 0.6987 0.3979 0.0202
S3_16 S 0.8677(2) 0.4075(2) 0.2061(2)
S4_16 S 0.8559(2) 0.3031(2) 0.2625(2)
C6_16 C 0.8796(7) 0.3722(7) 0.2673(6)
N2_16 N 0.9031(6) 0.3936(5) 0.3105(6)
C7_16 C 0.9083(10) 0.3684(10) 0.3689(10)
C8_16 C 0.9184(11) 0.4127(8) 0.4091(10)
C9_16 C 0.9458(12) 0.4578(12) 0.3751(11)
C10_16 C 0.9251(8) 0.4521(8) 0.3127(9)
H9_16 H 0.8736 0.3490 0.3787
H10_16 H 0.9385 0.3429 0.3713
H11_16 H 0.8816 0.4250 0.4261
H12_16 H 0.9403 0.3995 0.4406
H13_16 H 0.9867 0.4561 0.3753
H14_16 H 0.9364 0.4967 0.3869
H15_16 H 0.9570 0.4587 0.2848
H16_16 H 0.8979 0.4798 0.3013
S5_16 S 0.9075(2) 0.2939(2) 0.1323(2)
S6_16 S 0.8031(2) 0.2375(2) 0.1441(2)
C11_16 C 0.8722(7) 0.2327(6) 0.1204(7)
N3_16 N 0.8936(5) 0.1895(6) 0.0969(6)
C12_16 C 0.8684(10) 0.1311(10) 0.0917(10)
C13_16 C 0.9127(8) 0.0909(10) 0.0816(11)
C14_16 C 0.9578(12) 0.1249(11) 0.0542(12)
C15_16 C 0.9521(8) 0.1873(9) 0.0749(8)
H17_16 H 0.8490 0.1213 0.1264
H18_16 H 0.8429 0.1287 0.0615
H19_16 H 0.9250 0.0739 0.1184
H20_16 H 0.8995 0.0594 0.0597
H21_16 H 0.9561 0.1247 0.0133
H22_16 H 0.9967 0.1131 0.0636
H23_16 H 0.9587 0.2152 0.0430
H24_16 H 0.9798 0.1987 0.1021
loop_
_geom_bond_atom_site_label_1
_geom_bond_atom_site_label_2
_geom_bond_site_symmetry_1
_geom_bond_site_symmetry_2
N3 C11 1_555 1_555
C12 N3 1_555 1_555
C13 C12 1_555 1_555
C14 C13 1_555 1_555
C15 N3 1_555 1_555
H17 C12 1_555 1_555
H18 C12 1_555 1_555
H19 C13 1_555 1_555
H20 C13 1_555 1_555
H21 C14 1_555 1_555
H22 C14 1_555 1_555
H23 C15 1_555 1_555
H24 C15 1_555 1_555
S6 C11 1_555 1_555
C14 C15 1_555 1_555
C1 S2 1_555 1_555
N1 C1 1_555 1_555
C2 N1 1_555 1_555
C3 C2 1_555 1_555
C4 C3 1_555 1_555
C5 N1 1_555 1_555
H1 C2 1_555 1_555
H2 C2 1_555 1_555
H3 C3 1_555 1_555
H4 C3 1_555 1_555
H5 C4 1_555 1_555
H6 C4 1_555 1_555
H7 C5 1_555 1_555
H8 C5 1_555 1_555
Cu4 I1 1_555 1_555
C4 C5 1_555 1_555
N2 C6 1_555 1_555
C7 N2 1_555 1_555
C8 C7 1_555 1_555
C9 C8 1_555 1_555
C10 N2 1_555 1_555
H9 C7 1_555 1_555
H10 C7 1_555 1_555
H11 C8 1_555 1_555
H12 C8 1_555 1_555
H13 C9 1_555 1_555
H14 C9 1_555 1_555
H15 C10 1_555 1_555
H16 C10 1_555 1_555
Cu5 I3 1_555 1_555
S4 C6 1_555 1_555
C9 C10 1_555 1_555
I1_2 Cu1 1_555 1_555
Cu1 S1 1_555 1_555
Co1 S1 1_555 1_555
S1 C1_2 1_555 1_555
S2_2 Co1 1_555 1_555
C1_2 S2_2 1_555 1_555
N1_2 C1_2 1_555 1_555
C2_2 N1_2 1_555 1_555
C3_2 C2_2 1_555 1_555
C4_2 C3_2 1_555 1_555
C5_2 N1_2 1_555 1_555
H1_2 C2_2 1_555 1_555
H2_2 C2_2 1_555 1_555
H3_2 C3_2 1_555 1_555
H4_2 C3_2 1_555 1_555
H5_2 C4_2 1_555 1_555
H6_2 C4_2 1_555 1_555
H7_2 C5_2 1_555 1_555
H8_2 C5_2 1_555 1_555
S3 Co1 1_555 1_555
S4_2 Co1 1_555 1_555
C6_2 S3 1_555 1_555
N2_2 C6_2 1_555 1_555
C7_2 N2_2 1_555 1_555
C8_2 C7_2 1_555 1_555
C9_2 C8_2 1_555 1_555
C10_2 N2_2 1_555 1_555
H9_2 C7_2 1_555 1_555
H10_2 C7_2 1_555 1_555
H11_2 C8_2 1_555 1_555
H12_2 C8_2 1_555 1_555
H13_2 C9_2 1_555 1_555
H14_2 C9_2 1_555 1_555
H15_2 C10_2 1_555 1_555
H16_2 C10_2 1_555 1_555
S5 Co1 1_555 1_555
S6_2 Cu1 1_555 1_555
C11_2 S5 1_555 1_555
N3_2 C11_2 1_555 1_555
C12_2 N3_2 1_555 1_555
C13_2 C12_2 1_555 1_555
C14_2 C13_2 1_555 1_555
C15_2 N3_2 1_555 1_555
H17_2 C12_2 1_555 1_555
H18_2 C12_2 1_555 1_555
H19_2 C13_2 1_555 1_555
H20_2 C13_2 1_555 1_555
H21_2 C14_2 1_555 1_555
H22_2 C14_2 1_555 1_555
H23_2 C15_2 1_555 1_555
H24_2 C15_2 1_555 1_555
Cu2 S2_2 1_555 1_555
Cu3 S4_2 1_555 1_555
I2 Cu1 1_555 1_555
I3_2 Cu2 1_555 1_555
Cu4_2 I1_2 1_555 1_555
I4 Cu2 1_555 1_555
I5_2 Cu3 1_555 1_555
I6 Cu3 1_555 1_555
Cu5_2 I3_2 1_555 1_555
Co1 S6_2 1_555 1_555
C4_2 C5_2 1_555 1_555
S3 Cu2 1_555 1_555
S4_2 C6_2 1_555 1_555
C9_2 C10_2 1_555 1_555
S5 Cu3 1_555 1_555
S6_2 C11_2 1_555 1_555
C14_2 C15_2 1_555 1_555
I2 Cu4_2 1_555 1_555
I4 Cu5_2 1_555 1_555
Cu5_3 I5 1_555 1_555
Cu5_4 I5_2 1_555 1_555
I6 Cu5_4 1_555 1_555
Cu4_2 S1_2 1_555 1_555
Co1_2 S1_2 1_555 1_555
S1_2 C1_3 1_555 1_555
S2_3 Co1_2 1_555 1_555
C1_3 S2_3 1_555 1_555
N1_3 C1_3 1_555 1_555
C2_3 N1_3 1_555 1_555
C3_3 C2_3 1_555 1_555
C4_3 C3_3 1_555 1_555
C5_3 N1_3 1_555 1_555
H1_3 C2_3 1_555 1_555
H2_3 C2_3 1_555 1_555
H3_3 C3_3 1_555 1_555
H4_3 C3_3 1_555 1_555
H5_3 C4_3 1_555 1_555
H6_3 C4_3 1_555 1_555
H7_3 C5_3 1_555 1_555
H8_3 C5_3 1_555 1_555
S3_2 Co1_2 1_555 1_555
S5_2 Co1_2 1_555 1_555
S6_3 Cu4_2 1_555 1_555
C11_3 S5_2 1_555 1_555
N3_3 C11_3 1_555 1_555
C12_3 N3_3 1_555 1_555
C13_3 C12_3 1_555 1_555
C14_3 C13_3 1_555 1_555
C15_3 N3_3 1_555 1_555
H17_3 C12_3 1_555 1_555
H18_3 C12_3 1_555 1_555
H19_3 C13_3 1_555 1_555
H20_3 C13_3 1_555 1_555
H21_3 C14_3 1_555 1_555
H22_3 C14_3 1_555 1_555
H23_3 C15_3 1_555 1_555
H24_3 C15_3 1_555 1_555
Cu2_2 S2_3 1_555 1_555
I4_2 Cu2_2 1_555 1_555
I5_3 Cu3_2 1_555 1_555
I6_2 Cu3_2 1_555 1_555
Co1_2 S6_3 1_555 1_555
C4_3 C5_3 1_555 1_555
S3_2 Cu2_2 1_555 1_555
S5_2 Cu3_2 1_555 1_555
S6_3 C11_3 1_555 1_555
C14_3 C15_3 1_555 1_555
N2_3 C6_3 1_555 1_555
C7_3 N2_3 1_555 1_555
C8_3 C7_3 1_555 1_555
C9_3 C8_3 1_555 1_555
C10_3 N2_3 1_555 1_555
H9_3 C7_3 1_555 1_555
H10_3 C7_3 1_555 1_555
H11_3 C8_3 1_555 1_555
H12_3 C8_3 1_555 1_555
H13_3 C9_3 1_555 1_555
H14_3 C9_3 1_555 1_555
H15_3 C10_3 1_555 1_555
H16_3 C10_3 1_555 1_555
Cu5_5 I3_3 1_555 1_555
S4_3 C6_3 1_555 1_555
C9_3 C10_3 1_555 1_555
N3_4 C11_4 1_555 1_555
C12_4 N3_4 1_555 1_555
C13_4 C12_4 1_555 1_555
C14_4 C13_4 1_555 1_555
C15_4 N3_4 1_555 1_555
H17_4 C12_4 1_555 1_555
H18_4 C12_4 1_555 1_555
H19_4 C13_4 1_555 1_555
H20_4 C13_4 1_555 1_555
H21_4 C14_4 1_555 1_555
H22_4 C14_4 1_555 1_555
H23_4 C15_4 1_555 1_555
H24_4 C15_4 1_555 1_555
S6_4 C11_4 1_555 1_555
C14_4 C15_4 1_555 1_555
Cu4 S1_3 1_555 1_555
Co1_3 S1_3 1_555 1_555
S3_3 Co1_3 1_555 1_555
S4_4 Co1_3 1_555 1_555
C6_4 S3_3 1_555 1_555
N2_4 C6_4 1_555 1_555
C7_4 N2_4 1_555 1_555
C8_4 C7_4 1_555 1_555
C9_4 C8_4 1_555 1_555
C10_4 N2_4 1_555 1_555
H9_4 C7_4 1_555 1_555
H10_4 C7_4 1_555 1_555
H11_4 C8_4 1_555 1_555
H12_4 C8_4 1_555 1_555
H13_4 C9_4 1_555 1_555
H14_4 C9_4 1_555 1_555
H15_4 C10_4 1_555 1_555
H16_4 C10_4 1_555 1_555
S5_3 Co1_3 1_555 1_555
Cu3_3 S4_4 1_555 1_555
I3_4 Cu2_3 1_555 1_555
I4_3 Cu2_3 1_555 1_555
I6_3 Cu3_3 1_555 1_555
Cu5_6 I3_4 1_555 1_555
S3_3 Cu2_3 1_555 1_555
S4_4 C6_4 1_555 1_555
C9_4 C10_4 1_555 1_555
S5_3 Cu3_3 1_555 1_555
I4_3 Cu5_6 1_555 1_555
Cu5_7 I5_3 1_555 1_555
I6_2 Cu5_7 1_555 1_555
Cu5_8 I5_4 1_555 1_555
I1_3 Cu1_2 1_555 1_555
Cu1_2 S1_4 1_555 1_555
Co1_4 S1_4 1_555 1_555
S1_4 C1_4 1_555 1_555
S2_4 Co1_4 1_555 1_555
C1_4 S2_4 1_555 1_555
N1_4 C1_4 1_555 1_555
C2_4 N1_4 1_555 1_555
C3_4 C2_4 1_555 1_555
C4_4 C3_4 1_555 1_555
C5_4 N1_4 1_555 1_555
H1_4 C2_4 1_555 1_555
H2_4 C2_4 1_555 1_555
H3_4 C3_4 1_555 1_555
H4_4 C3_4 1_555 1_555
H5_4 C4_4 1_555 1_555
H6_4 C4_4 1_555 1_555
H7_4 C5_4 1_555 1_555
H8_4 C5_4 1_555 1_555
S3_4 Co1_4 1_555 1_555
S4_5 Co1_4 1_555 1_555
C6_5 S3_4 1_555 1_555
N2_5 C6_5 1_555 1_555
C7_5 N2_5 1_555 1_555
C8_5 C7_5 1_555 1_555
C9_5 C8_5 1_555 1_555
C10_5 N2_5 1_555 1_555
H9_5 C7_5 1_555 1_555
H10_5 C7_5 1_555 1_555
H11_5 C8_5 1_555 1_555
H12_5 C8_5 1_555 1_555
H13_5 C9_5 1_555 1_555
H14_5 C9_5 1_555 1_555
H15_5 C10_5 1_555 1_555
H16_5 C10_5 1_555 1_555
S5_4 Co1_4 1_555 1_555
Cu5_2 S2_4 1_555 1_555
Cu5_8 S4_5 1_555 1_555
I2_2 Cu1_2 1_555 1_555
Cu4_3 I1_3 1_555 1_555
C4_4 C5_4 1_555 1_555
S3_4 Cu5_2 1_555 1_555
S4_5 C6_5 1_555 1_555
C9_5 C10_5 1_555 1_555
S5_4 Cu5_8 1_555 1_555
I2_2 Cu4_3 1_555 1_555
N3_5 C11_5 1_555 1_555
C12_5 N3_5 1_555 1_555
C13_5 C12_5 1_555 1_555
C14_5 C13_5 1_555 1_555
C15_5 N3_5 1_555 1_555
H17_5 C12_5 1_555 1_555
H18_5 C12_5 1_555 1_555
H19_5 C13_5 1_555 1_555
H20_5 C13_5 1_555 1_555
H21_5 C14_5 1_555 1_555
H22_5 C14_5 1_555 1_555
H23_5 C15_5 1_555 1_555
H24_5 C15_5 1_555 1_555
S6_5 C11_5 1_555 1_555
C14_5 C15_5 1_555 1_555
C1_5 S2_5 1_555 1_555
N1_5 C1_5 1_555 1_555
C2_5 N1_5 1_555 1_555
C3_5 C2_5 1_555 1_555
C4_5 C3_5 1_555 1_555
C5_5 N1_5 1_555 1_555
H1_5 C2_5 1_555 1_555
H2_5 C2_5 1_555 1_555
H3_5 C3_5 1_555 1_555
H4_5 C3_5 1_555 1_555
H5_5 C4_5 1_555 1_555
H6_5 C4_5 1_555 1_555
H7_5 C5_5 1_555 1_555
H8_5 C5_5 1_555 1_555
Cu4_4 I1_4 1_555 1_555
C4_5 C5_5 1_555 1_555
Cu1_3 S1_5 1_555 1_555
Co1_5 S1_5 1_555 1_555
S3_5 Co1_5 1_555 1_555
S5_5 Co1_5 1_555 1_555
S6_6 Cu1_3 1_555 1_555
C11_6 S5_5 1_555 1_555
N3_6 C11_6 1_555 1_555
C12_6 N3_6 1_555 1_555
C13_6 C12_6 1_555 1_555
C14_6 C13_6 1_555 1_555
C15_6 N3_6 1_555 1_555
H17_6 C12_6 1_555 1_555
H18_6 C12_6 1_555 1_555
H19_6 C13_6 1_555 1_555
H20_6 C13_6 1_555 1_555
H21_6 C14_6 1_555 1_555
H22_6 C14_6 1_555 1_555
H23_6 C15_6 1_555 1_555
H24_6 C15_6 1_555 1_555
I2_3 Cu1_3 1_555 1_555
Co1_5 S6_6 1_555 1_555
S3_5 Cu5 1_555 1_555
S5_5 Cu5_7 1_555 1_555
S6_6 C11_6 1_555 1_555
C14_6 C15_6 1_555 1_555
Cu4_4 S1_6 1_555 1_555
Co1_6 S1_6 1_555 1_555
S3_6 Co1_6 1_555 1_555
S4_6 Co1_6 1_555 1_555
C6_6 S3_6 1_555 1_555
N2_6 C6_6 1_555 1_555
C7_6 N2_6 1_555 1_555
C8_6 C7_6 1_555 1_555
C9_6 C8_6 1_555 1_555
C10_6 N2_6 1_555 1_555
H9_6 C7_6 1_555 1_555
H10_6 C7_6 1_555 1_555
H11_6 C8_6 1_555 1_555
H12_6 C8_6 1_555 1_555
H13_6 C9_6 1_555 1_555
H14_6 C9_6 1_555 1_555
H15_6 C10_6 1_555 1_555
H16_6 C10_6 1_555 1_555
S5_6 Co1_6 1_555 1_555
S6_7 Cu4_4 1_555 1_555
C11_7 S5_6 1_555 1_555
N3_7 C11_7 1_555 1_555
C12_7 N3_7 1_555 1_555
C13_7 C12_7 1_555 1_555
C14_7 C13_7 1_555 1_555
C15_7 N3_7 1_555 1_555
H17_7 C12_7 1_555 1_555
H18_7 C12_7 1_555 1_555
H19_7 C13_7 1_555 1_555
H20_7 C13_7 1_555 1_555
H21_7 C14_7 1_555 1_555
H22_7 C14_7 1_555 1_555
H23_7 C15_7 1_555 1_555
H24_7 C15_7 1_555 1_555
Cu5_4 S4_6 1_555 1_555
Co1_6 S6_7 1_555 1_555
S3_6 Cu5_6 1_555 1_555
S4_6 C6_6 1_555 1_555
C9_6 C10_6 1_555 1_555
S5_6 Cu5_4 1_555 1_555
S6_7 C11_7 1_555 1_555
C14_7 C15_7 1_555 1_555
C1_6 S2_6 1_555 1_555
N1_6 C1_6 1_555 1_555
C2_6 N1_6 1_555 1_555
C3_6 C2_6 1_555 1_555
C4_6 C3_6 1_555 1_555
C5_6 N1_6 1_555 1_555
H1_6 C2_6 1_555 1_555
H2_6 C2_6 1_555 1_555
H3_6 C3_6 1_555 1_555
H4_6 C3_6 1_555 1_555
H5_6 C4_6 1_555 1_555
H6_6 C4_6 1_555 1_555
H7_6 C5_6 1_555 1_555
H8_6 C5_6 1_555 1_555
C4_6 C5_6 1_555 1_555
N2_7 C6_7 1_555 1_555
C7_7 N2_7 1_555 1_555
C8_7 C7_7 1_555 1_555
C9_7 C8_7 1_555 1_555
C10_7 N2_7 1_555 1_555
H9_7 C7_7 1_555 1_555
H10_7 C7_7 1_555 1_555
H11_7 C8_7 1_555 1_555
H12_7 C8_7 1_555 1_555
H13_7 C9_7 1_555 1_555
H14_7 C9_7 1_555 1_555
H15_7 C10_7 1_555 1_555
H16_7 C10_7 1_555 1_555
S4_7 C6_7 1_555 1_555
C9_7 C10_7 1_555 1_555
Cu4_3 S1_7 1_555 1_555
Co1_7 S1_7 1_555 1_555
S1_7 C1_7 1_555 1_555
S2_7 Co1_7 1_555 1_555
C1_7 S2_7 1_555 1_555
N1_7 C1_7 1_555 1_555
C2_7 N1_7 1_555 1_555
C3_7 C2_7 1_555 1_555
C4_7 C3_7 1_555 1_555
C5_7 N1_7 1_555 1_555
H1_7 C2_7 1_555 1_555
H2_7 C2_7 1_555 1_555
H3_7 C3_7 1_555 1_555
H4_7 C3_7 1_555 1_555
H5_7 C4_7 1_555 1_555
H6_7 C4_7 1_555 1_555
H7_7 C5_7 1_555 1_555
H8_7 C5_7 1_555 1_555
S3_7 Co1_7 1_555 1_555
S5_7 Co1_7 1_555 1_555
Cu5_5 S2_7 1_555 1_555
C4_7 C5_7 1_555 1_555
S3_7 Cu5_5 1_555 1_555
S5_7 Cu5_3 1_555 1_555
Cu1_4 S1_8 1_555 1_555
Co1_8 S1_8 1_555 1_555
S3_8 Co1_8 1_555 1_555
S5_8 Co1_8 1_555 1_555
I2_4 Cu1_4 1_555 1_555
I4_4 Cu2_4 1_555 1_555
I6_4 Cu3_4 1_555 1_555
S3_8 Cu2_4 1_555 1_555
S5_8 Cu3_4 1_555 1_555
C1_8 S2_8 1_555 1_555
N1_8 C1_8 1_555 1_555
C2_8 N1_8 1_555 1_555
C3_8 C2_8 1_555 1_555
C4_8 C3_8 1_555 1_555
C5_8 N1_8 1_555 1_555
H1_8 C2_8 1_555 1_555
H2_8 C2_8 1_555 1_555
H3_8 C3_8 1_555 1_555
H4_8 C3_8 1_555 1_555
H5_8 C4_8 1_555 1_555
H6_8 C4_8 1_555 1_555
H7_8 C5_8 1_555 1_555
H8_8 C5_8 1_555 1_555
C4_8 C5_8 1_555 1_555
N2_8 C6_8 1_555 1_555
C7_8 N2_8 1_555 1_555
C8_8 C7_8 1_555 1_555
C9_8 C8_8 1_555 1_555
C10_8 N2_8 1_555 1_555
H9_8 C7_8 1_555 1_555
H10_8 C7_8 1_555 1_555
H11_8 C8_8 1_555 1_555
H12_8 C8_8 1_555 1_555
H13_8 C9_8 1_555 1_555
H14_8 C9_8 1_555 1_555
H15_8 C10_8 1_555 1_555
H16_8 C10_8 1_555 1_555
S4_8 C6_8 1_555 1_555
C9_8 C10_8 1_555 1_555
N3_8 C11_8 1_555 1_555
C12_8 N3_8 1_555 1_555
C13_8 C12_8 1_555 1_555
C14_8 C13_8 1_555 1_555
C15_8 N3_8 1_555 1_555
H17_8 C12_8 1_555 1_555
H18_8 C12_8 1_555 1_555
H19_8 C13_8 1_555 1_555
H20_8 C13_8 1_555 1_555
H21_8 C14_8 1_555 1_555
H22_8 C14_8 1_555 1_555
H23_8 C15_8 1_555 1_555
H24_8 C15_8 1_555 1_555
S6_8 C11_8 1_555 1_555
C14_8 C15_8 1_555 1_555
I1_5 Cu1_5 1_555 1_555
Cu1_5 S1_9 1_555 1_555
Co1_9 S1_9 1_555 1_555
S1_9 C1_9 1_555 1_555
S2_9 Co1_9 1_555 1_555
C1_9 S2_9 1_555 1_555
N1_9 C1_9 1_555 1_555
C2_9 N1_9 1_555 1_555
C3_9 C2_9 1_555 1_555
C4_9 C3_9 1_555 1_555
C5_9 N1_9 1_555 1_555
H1_9 C2_9 1_555 1_555
H2_9 C2_9 1_555 1_555
H3_9 C3_9 1_555 1_555
H4_9 C3_9 1_555 1_555
H5_9 C4_9 1_555 1_555
H6_9 C4_9 1_555 1_555
H7_9 C5_9 1_555 1_555
H8_9 C5_9 1_555 1_555
S3_9 Co1_9 1_555 1_555
S4_9 Co1_9 1_555 1_555
C6_9 S3_9 1_555 1_555
N2_9 C6_9 1_555 1_555
C7_9 N2_9 1_555 1_555
C8_9 C7_9 1_555 1_555
C9_9 C8_9 1_555 1_555
C10_9 N2_9 1_555 1_555
H9_9 C7_9 1_555 1_555
H10_9 C7_9 1_555 1_555
H11_9 C8_9 1_555 1_555
H12_9 C8_9 1_555 1_555
H13_9 C9_9 1_555 1_555
H14_9 C9_9 1_555 1_555
H15_9 C10_9 1_555 1_555
H16_9 C10_9 1_555 1_555
S5_9 Co1_9 1_555 1_555
S6_9 Cu1_5 1_555 1_555
C11_9 S5_9 1_555 1_555
N3_9 C11_9 1_555 1_555
C12_9 N3_9 1_555 1_555
C13_9 C12_9 1_555 1_555
C14_9 C13_9 1_555 1_555
C15_9 N3_9 1_555 1_555
H17_9 C12_9 1_555 1_555
H18_9 C12_9 1_555 1_555
H19_9 C13_9 1_555 1_555
H20_9 C13_9 1_555 1_555
H21_9 C14_9 1_555 1_555
H22_9 C14_9 1_555 1_555
H23_9 C15_9 1_555 1_555
H24_9 C15_9 1_555 1_555
Cu2_5 S2_9 1_555 1_555
Cu3_5 S4_9 1_555 1_555
I3_5 Cu2_5 1_555 1_555
I5_5 Cu3_5 1_555 1_555
Co1_9 S6_9 1_555 1_555
C4_9 C5_9 1_555 1_555
S3_9 Cu2_5 1_555 1_555
S4_9 C6_9 1_555 1_555
C9_9 C10_9 1_555 1_555
S5_9 Cu3_5 1_555 1_555
S6_9 C11_9 1_555 1_555
C14_9 C15_9 1_555 1_555
I2_5 Cu4_5 1_555 1_555
I4_5 Cu5_9 1_555 1_555
I1_6 Cu1_6 1_555 1_555
Cu1_6 S1_10 1_555 1_555
Co1_10 S1_10 1_555 1_555
S1_10 C1_10 1_555 1_555
S2_10 Co1_10 1_555 1_555
C1_10 S2_10 1_555 1_555
N1_10 C1_10 1_555 1_555
C2_10 N1_10 1_555 1_555
C3_10 C2_10 1_555 1_555
C4_10 C3_10 1_555 1_555
C5_10 N1_10 1_555 1_555
H1_10 C2_10 1_555 1_555
H2_10 C2_10 1_555 1_555
H3_10 C3_10 1_555 1_555
H4_10 C3_10 1_555 1_555
H5_10 C4_10 1_555 1_555
H6_10 C4_10 1_555 1_555
H7_10 C5_10 1_555 1_555
H8_10 C5_10 1_555 1_555
S3_10 Co1_10 1_555 1_555
S4_10 Co1_10 1_555 1_555
C6_10 S3_10 1_555 1_555
N2_10 C6_10 1_555 1_555
C7_10 N2_10 1_555 1_555
C8_10 C7_10 1_555 1_555
C9_10 C8_10 1_555 1_555
C10_10 N2_10 1_555 1_555
H9_10 C7_10 1_555 1_555
H10_10 C7_10 1_555 1_555
H11_10 C8_10 1_555 1_555
H12_10 C8_10 1_555 1_555
H13_10 C9_10 1_555 1_555
H14_10 C9_10 1_555 1_555
H15_10 C10_10 1_555 1_555
H16_10 C10_10 1_555 1_555
S5_10 Co1_10 1_555 1_555
S6_10 Cu1_6 1_555 1_555
C11_10 S5_10 1_555 1_555
N3_10 C11_10 1_555 1_555
C12_10 N3_10 1_555 1_555
C13_10 C12_10 1_555 1_555
C14_10 C13_10 1_555 1_555
C15_10 N3_10 1_555 1_555
H17_10 C12_10 1_555 1_555
H18_10 C12_10 1_555 1_555
H19_10 C13_10 1_555 1_555
H20_10 C13_10 1_555 1_555
H21_10 C14_10 1_555 1_555
H22_10 C14_10 1_555 1_555
H23_10 C15_10 1_555 1_555
H24_10 C15_10 1_555 1_555
Cu2_6 S2_10 1_555 1_555
Cu3_6 S4_10 1_555 1_555
I2_6 Cu1_6 1_555 1_555
I3_6 Cu2_6 1_555 1_555
Cu4_6 I1_6 1_555 1_555
I4_6 Cu2_6 1_555 1_555
I5_6 Cu3_6 1_555 1_555
I6_6 Cu3_6 1_555 1_555
Cu5_10 I3_6 1_555 1_555
Co1_10 S6_10 1_555 1_555
C4_10 C5_10 1_555 1_555
S3_10 Cu2_6 1_555 1_555
S4_10 C6_10 1_555 1_555
C9_10 C10_10 1_555 1_555
S5_10 Cu3_6 1_555 1_555
S6_10 C11_10 1_555 1_555
C14_10 C15_10 1_555 1_555
I2_6 Cu4_6 1_555 1_555
I4_6 Cu5_10 1_555 1_555
I6_5 Cu5_11 1_555 1_555
Cu5_12 I5_6 1_555 1_555
I6_6 Cu5_12 1_555 1_555
Cu4_6 S1_11 1_555 1_555
Co1_11 S1_11 1_555 1_555
S1_11 C1_11 1_555 1_555
S2_11 Co1_11 1_555 1_555
C1_11 S2_11 1_555 1_555
N1_11 C1_11 1_555 1_555
C2_11 N1_11 1_555 1_555
C3_11 C2_11 1_555 1_555
C4_11 C3_11 1_555 1_555
C5_11 N1_11 1_555 1_555
H1_11 C2_11 1_555 1_555
H2_11 C2_11 1_555 1_555
H3_11 C3_11 1_555 1_555
H4_11 C3_11 1_555 1_555
H5_11 C4_11 1_555 1_555
H6_11 C4_11 1_555 1_555
H7_11 C5_11 1_555 1_555
H8_11 C5_11 1_555 1_555
S3_11 Co1_11 1_555 1_555
S4_11 Co1_11 1_555 1_555
C6_11 S3_11 1_555 1_555
N2_11 C6_11 1_555 1_555
C7_11 N2_11 1_555 1_555
C8_11 C7_11 1_555 1_555
C9_11 C8_11 1_555 1_555
C10_11 N2_11 1_555 1_555
H9_11 C7_11 1_555 1_555
H10_11 C7_11 1_555 1_555
H11_11 C8_11 1_555 1_555
H12_11 C8_11 1_555 1_555
H13_11 C9_11 1_555 1_555
H14_11 C9_11 1_555 1_555
H15_11 C10_11 1_555 1_555
H16_11 C10_11 1_555 1_555
S5_11 Co1_11 1_555 1_555
S6_11 Cu4_6 1_555 1_555
C11_11 S5_11 1_555 1_555
N3_11 C11_11 1_555 1_555
C12_11 N3_11 1_555 1_555
C13_11 C12_11 1_555 1_555
C14_11 C13_11 1_555 1_555
C15_11 N3_11 1_555 1_555
H17_11 C12_11 1_555 1_555
H18_11 C12_11 1_555 1_555
H19_11 C13_11 1_555 1_555
H20_11 C13_11 1_555 1_555
H21_11 C14_11 1_555 1_555
H22_11 C14_11 1_555 1_555
H23_11 C15_11 1_555 1_555
H24_11 C15_11 1_555 1_555
Cu2_7 S2_11 1_555 1_555
Cu3_7 S4_11 1_555 1_555
I3_7 Cu2_7 1_555 1_555
I4_7 Cu2_7 1_555 1_555
I5_7 Cu3_7 1_555 1_555
Cu5_13 I3_7 1_555 1_555
Co1_11 S6_11 1_555 1_555
C4_11 C5_11 1_555 1_555
S3_11 Cu2_7 1_555 1_555
S4_11 C6_11 1_555 1_555
C9_11 C10_11 1_555 1_555
S5_11 Cu3_7 1_555 1_555
S6_11 C11_11 1_555 1_555
C14_11 C15_11 1_555 1_555
I4_7 Cu5_13 1_555 1_555
Cu4_5 S1_12 1_555 1_555
Co1_12 S1_12 1_555 1_555
S1_12 C1_12 1_555 1_555
S2_12 Co1_12 1_555 1_555
C1_12 S2_12 1_555 1_555
N1_12 C1_12 1_555 1_555
C2_12 N1_12 1_555 1_555
C3_12 C2_12 1_555 1_555
C4_12 C3_12 1_555 1_555
C5_12 N1_12 1_555 1_555
H1_12 C2_12 1_555 1_555
H2_12 C2_12 1_555 1_555
H3_12 C3_12 1_555 1_555
H4_12 C3_12 1_555 1_555
H5_12 C4_12 1_555 1_555
H6_12 C4_12 1_555 1_555
H7_12 C5_12 1_555 1_555
H8_12 C5_12 1_555 1_555
S3_12 Co1_12 1_555 1_555
S4_12 Co1_12 1_555 1_555
C6_12 S3_12 1_555 1_555
N2_12 C6_12 1_555 1_555
C7_12 N2_12 1_555 1_555
C8_12 C7_12 1_555 1_555
C9_12 C8_12 1_555 1_555
C10_12 N2_12 1_555 1_555
H9_12 C7_12 1_555 1_555
H10_12 C7_12 1_555 1_555
H11_12 C8_12 1_555 1_555
H12_12 C8_12 1_555 1_555
H13_12 C9_12 1_555 1_555
H14_12 C9_12 1_555 1_555
H15_12 C10_12 1_555 1_555
H16_12 C10_12 1_555 1_555
S5_12 Co1_12 1_555 1_555
S6_12 Cu4_5 1_555 1_555
C11_12 S5_12 1_555 1_555
N3_12 C11_12 1_555 1_555
C12_12 N3_12 1_555 1_555
C13_12 C12_12 1_555 1_555
C14_12 C13_12 1_555 1_555
C15_12 N3_12 1_555 1_555
H17_12 C12_12 1_555 1_555
H18_12 C12_12 1_555 1_555
H19_12 C13_12 1_555 1_555
H20_12 C13_12 1_555 1_555
H21_12 C14_12 1_555 1_555
H22_12 C14_12 1_555 1_555
H23_12 C15_12 1_555 1_555
H24_12 C15_12 1_555 1_555
Cu2_8 S2_12 1_555 1_555
Cu3_8 S4_12 1_555 1_555
I3_8 Cu2_8 1_555 1_555
I5_8 Cu3_8 1_555 1_555
I6_8 Cu3_8 1_555 1_555
Co1_12 S6_12 1_555 1_555
C4_12 C5_12 1_555 1_555
S3_12 Cu2_8 1_555 1_555
S4_12 C6_12 1_555 1_555
C9_12 C10_12 1_555 1_555
S5_12 Cu3_8 1_555 1_555
S6_12 C11_12 1_555 1_555
C14_12 C15_12 1_555 1_555
I4_8 Cu5_14 1_555 1_555
I6_7 Cu5_15 1_555 1_555
Cu5_16 I5_8 1_555 1_555
I6_8 Cu5_16 1_555 1_555
I2_7 Cu4_7 1_555 1_555
I1_7 Cu1_7 1_555 1_555
Cu1_7 S1_13 1_555 1_555
Co1_13 S1_13 1_555 1_555
S1_13 C1_13 1_555 1_555
S2_13 Co1_13 1_555 1_555
C1_13 S2_13 1_555 1_555
N1_13 C1_13 1_555 1_555
C2_13 N1_13 1_555 1_555
C3_13 C2_13 1_555 1_555
C4_13 C3_13 1_555 1_555
C5_13 N1_13 1_555 1_555
H1_13 C2_13 1_555 1_555
H2_13 C2_13 1_555 1_555
H3_13 C3_13 1_555 1_555
H4_13 C3_13 1_555 1_555
H5_13 C4_13 1_555 1_555
H6_13 C4_13 1_555 1_555
H7_13 C5_13 1_555 1_555
H8_13 C5_13 1_555 1_555
S3_13 Co1_13 1_555 1_555
S4_13 Co1_13 1_555 1_555
C6_13 S3_13 1_555 1_555
N2_13 C6_13 1_555 1_555
C7_13 N2_13 1_555 1_555
C8_13 C7_13 1_555 1_555
C9_13 C8_13 1_555 1_555
C10_13 N2_13 1_555 1_555
H9_13 C7_13 1_555 1_555
H10_13 C7_13 1_555 1_555
H11_13 C8_13 1_555 1_555
H12_13 C8_13 1_555 1_555
H13_13 C9_13 1_555 1_555
H14_13 C9_13 1_555 1_555
H15_13 C10_13 1_555 1_555
H16_13 C10_13 1_555 1_555
S5_13 Co1_13 1_555 1_555
S6_13 Cu1_7 1_555 1_555
C11_13 S5_13 1_555 1_555
N3_13 C11_13 1_555 1_555
C12_13 N3_13 1_555 1_555
C13_13 C12_13 1_555 1_555
C14_13 C13_13 1_555 1_555
C15_13 N3_13 1_555 1_555
H17_13 C12_13 1_555 1_555
H18_13 C12_13 1_555 1_555
H19_13 C13_13 1_555 1_555
H20_13 C13_13 1_555 1_555
H21_13 C14_13 1_555 1_555
H22_13 C14_13 1_555 1_555
H23_13 C15_13 1_555 1_555
H24_13 C15_13 1_555 1_555
Cu5_10 S2_13 1_555 1_555
Cu5_16 S4_13 1_555 1_555
Co1_13 S6_13 1_555 1_555
C4_13 C5_13 1_555 1_555
S3_13 Cu5_10 1_555 1_555
S4_13 C6_13 1_555 1_555
C9_13 C10_13 1_555 1_555
S5_13 Cu5_16 1_555 1_555
S6_13 C11_13 1_555 1_555
C14_13 C15_13 1_555 1_555
I1_8 Cu1_8 1_555 1_555
Cu1_8 S1_14 1_555 1_555
Co1_14 S1_14 1_555 1_555
S1_14 C1_14 1_555 1_555
S2_14 Co1_14 1_555 1_555
C1_14 S2_14 1_555 1_555
N1_14 C1_14 1_555 1_555
C2_14 N1_14 1_555 1_555
C3_14 C2_14 1_555 1_555
C4_14 C3_14 1_555 1_555
C5_14 N1_14 1_555 1_555
H1_14 C2_14 1_555 1_555
H2_14 C2_14 1_555 1_555
H3_14 C3_14 1_555 1_555
H4_14 C3_14 1_555 1_555
H5_14 C4_14 1_555 1_555
H6_14 C4_14 1_555 1_555
H7_14 C5_14 1_555 1_555
H8_14 C5_14 1_555 1_555
S3_14 Co1_14 1_555 1_555
S4_14 Co1_14 1_555 1_555
C6_14 S3_14 1_555 1_555
N2_14 C6_14 1_555 1_555
C7_14 N2_14 1_555 1_555
C8_14 C7_14 1_555 1_555
C9_14 C8_14 1_555 1_555
C10_14 N2_14 1_555 1_555
H9_14 C7_14 1_555 1_555
H10_14 C7_14 1_555 1_555
H11_14 C8_14 1_555 1_555
H12_14 C8_14 1_555 1_555
H13_14 C9_14 1_555 1_555
H14_14 C9_14 1_555 1_555
H15_14 C10_14 1_555 1_555
H16_14 C10_14 1_555 1_555
S5_14 Co1_14 1_555 1_555
S6_14 Cu1_8 1_555 1_555
C11_14 S5_14 1_555 1_555
N3_14 C11_14 1_555 1_555
C12_14 N3_14 1_555 1_555
C13_14 C12_14 1_555 1_555
C14_14 C13_14 1_555 1_555
C15_14 N3_14 1_555 1_555
H17_14 C12_14 1_555 1_555
H18_14 C12_14 1_555 1_555
H19_14 C13_14 1_555 1_555
H20_14 C13_14 1_555 1_555
H21_14 C14_14 1_555 1_555
H22_14 C14_14 1_555 1_555
H23_14 C15_14 1_555 1_555
H24_14 C15_14 1_555 1_555
Cu5_9 S2_14 1_555 1_555
Cu5_15 S4_14 1_555 1_555
I2_8 Cu1_8 1_555 1_555
Cu4_8 I1_8 1_555 1_555
Co1_14 S6_14 1_555 1_555
C4_14 C5_14 1_555 1_555
S3_14 Cu5_9 1_555 1_555
S4_14 C6_14 1_555 1_555
C9_14 C10_14 1_555 1_555
S5_14 Cu5_15 1_555 1_555
S6_14 C11_14 1_555 1_555
C14_14 C15_14 1_555 1_555
I2_8 Cu4_8 1_555 1_555
Cu4_8 S1_15 1_555 1_555
Co1_15 S1_15 1_555 1_555
S1_15 C1_15 1_555 1_555
S2_15 Co1_15 1_555 1_555
C1_15 S2_15 1_555 1_555
N1_15 C1_15 1_555 1_555
C2_15 N1_15 1_555 1_555
C3_15 C2_15 1_555 1_555
C4_15 C3_15 1_555 1_555
C5_15 N1_15 1_555 1_555
H1_15 C2_15 1_555 1_555
H2_15 C2_15 1_555 1_555
H3_15 C3_15 1_555 1_555
H4_15 C3_15 1_555 1_555
H5_15 C4_15 1_555 1_555
H6_15 C4_15 1_555 1_555
H7_15 C5_15 1_555 1_555
H8_15 C5_15 1_555 1_555
S3_15 Co1_15 1_555 1_555
S4_15 Co1_15 1_555 1_555
C6_15 S3_15 1_555 1_555
N2_15 C6_15 1_555 1_555
C7_15 N2_15 1_555 1_555
C8_15 C7_15 1_555 1_555
C9_15 C8_15 1_555 1_555
C10_15 N2_15 1_555 1_555
H9_15 C7_15 1_555 1_555
H10_15 C7_15 1_555 1_555
H11_15 C8_15 1_555 1_555
H12_15 C8_15 1_555 1_555
H13_15 C9_15 1_555 1_555
H14_15 C9_15 1_555 1_555
H15_15 C10_15 1_555 1_555
H16_15 C10_15 1_555 1_555
S5_15 Co1_15 1_555 1_555
S6_15 Cu4_8 1_555 1_555
C11_15 S5_15 1_555 1_555
N3_15 C11_15 1_555 1_555
C12_15 N3_15 1_555 1_555
C13_15 C12_15 1_555 1_555
C14_15 C13_15 1_555 1_555
C15_15 N3_15 1_555 1_555
H17_15 C12_15 1_555 1_555
H18_15 C12_15 1_555 1_555
H19_15 C13_15 1_555 1_555
H20_15 C13_15 1_555 1_555
H21_15 C14_15 1_555 1_555
H22_15 C14_15 1_555 1_555
H23_15 C15_15 1_555 1_555
H24_15 C15_15 1_555 1_555
Cu5_14 S2_15 1_555 1_555
Cu5_12 S4_15 1_555 1_555
Co1_15 S6_15 1_555 1_555
C4_15 C5_15 1_555 1_555
S3_15 Cu5_14 1_555 1_555
S4_15 C6_15 1_555 1_555
C9_15 C10_15 1_555 1_555
S5_15 Cu5_12 1_555 1_555
S6_15 C11_15 1_555 1_555
C14_15 C15_15 1_555 1_555
Cu4_7 S1_16 1_555 1_555
Co1_16 S1_16 1_555 1_555
S1_16 C1_16 1_555 1_555
S2_16 Co1_16 1_555 1_555
C1_16 S2_16 1_555 1_555
N1_16 C1_16 1_555 1_555
C2_16 N1_16 1_555 1_555
C3_16 C2_16 1_555 1_555
C4_16 C3_16 1_555 1_555
C5_16 N1_16 1_555 1_555
H1_16 C2_16 1_555 1_555
H2_16 C2_16 1_555 1_555
H3_16 C3_16 1_555 1_555
H4_16 C3_16 1_555 1_555
H5_16 C4_16 1_555 1_555
H6_16 C4_16 1_555 1_555
H7_16 C5_16 1_555 1_555
H8_16 C5_16 1_555 1_555
S3_16 Co1_16 1_555 1_555
S4_16 Co1_16 1_555 1_555
C6_16 S3_16 1_555 1_555
N2_16 C6_16 1_555 1_555
C7_16 N2_16 1_555 1_555
C8_16 C7_16 1_555 1_555
C9_16 C8_16 1_555 1_555
C10_16 N2_16 1_555 1_555
H9_16 C7_16 1_555 1_555
H10_16 C7_16 1_555 1_555
H11_16 C8_16 1_555 1_555
H12_16 C8_16 1_555 1_555
H13_16 C9_16 1_555 1_555
H14_16 C9_16 1_555 1_555
H15_16 C10_16 1_555 1_555
H16_16 C10_16 1_555 1_555
S5_16 Co1_16 1_555 1_555
S6_16 Cu4_7 1_555 1_555
C11_16 S5_16 1_555 1_555
N3_16 C11_16 1_555 1_555
C12_16 N3_16 1_555 1_555
C13_16 C12_16 1_555 1_555
C14_16 C13_16 1_555 1_555
C15_16 N3_16 1_555 1_555
H17_16 C12_16 1_555 1_555
H18_16 C12_16 1_555 1_555
H19_16 C13_16 1_555 1_555
H20_16 C13_16 1_555 1_555
H21_16 C14_16 1_555 1_555
H22_16 C14_16 1_555 1_555
H23_16 C15_16 1_555 1_555
H24_16 C15_16 1_555 1_555
Cu5_13 S2_16 1_555 1_555
Cu5_11 S4_16 1_555 1_555
Co1_16 S6_16 1_555 1_555
C4_16 C5_16 1_555 1_555
S3_16 Cu5_13 1_555 1_555
S4_16 C6_16 1_555 1_555
C9_16 C10_16 1_555 1_555
S5_16 Cu5_11 1_555 1_555
S6_16 C11_16 1_555 1_555
C14_16 C15_16 1_555 1_555

#END
