
###############################################################################
#
# This file contains modified crystal structure data generated from the
# MOF subset of the Cambridge Structural Database (CSD) v543 
# hosted by the Cambridge Crystallographic Data Centre (CCDC).
#
# This work is licensed under the Creative Commons
# Attribution-NonCommercial-ShareAlike 4.0 International License.
# To view a copy of this license, visit
# http://creativecommons.org/licenses/by-nc-sa/4.0/
# or send a letter to
# Creative Commons, PO Box 1866, Mountain View, CA 94042, USA.
#
# CIF created using the CSD Python API on 29 September 2022
# The structure has been converted into the P1 space group
# The structure has a 3D framework
# The original CSD entry GIKYIL is in the trigonal crystal system
# The framework has been calculated to contain at least 10.0% void space
# The void calculation uses a probe of radius 1.32A, grid spacing 0.4
# The framework is charged, counterions have been retained in the structure
#
###############################################################################

data_GIKYIL
_chemical_formula_moiety         '(C132 H84 Cu22 N72 9+)n'
_symmetry_cell_setting           triclinic
_symmetry_space_group_name_H-M   'P 1'
_symmetry_Int_Tables_number      1
_space_group_name_Hall           'P 1'
loop_
_symmetry_equiv_pos_site_id
_symmetry_equiv_pos_as_xyz
1 x,y,z
_cell_length_a                   23.332(10)
_cell_length_b                   23.332(10)
_cell_length_c                   10.188(5)
_cell_angle_alpha                90
_cell_angle_beta                 90
_cell_angle_gamma                120
_cell_volume                     4803.12
loop_
_atom_site_label
_atom_site_type_symbol
_atom_site_fract_x
_atom_site_fract_y
_atom_site_fract_z
Cu2 Cu 0.52691(7) -0.0000 0.2500
C9 C 0.6750(5) 0.0278(4) 0.0803(9)
H5 H 0.7027 0.0584 0.1424
N5 N 0.6098(4) 0.0026(4) 0.0927(6)
Cu3 Cu 0.48220(7) 0.12766(5) 0.22730(9)
C12 C 0.4565(6) 0.2390(4) 0.5730(8)
H8 H 0.4238 0.2458 0.5366
C13 C 0.4680(6) 0.1918(4) 0.5153(7)
H9 H 0.4422 0.1667 0.4449
C14 C 0.5169(6) 0.1828(3) 0.5624(7)
C15 C 0.5500(6) 0.2167(4) 0.6728(7)
H10 H 0.5818 0.2095 0.7118
C16 C 0.5340(6) 0.2624(4) 0.7250(7)
H11 H 0.5568 0.2857 0.7995
C17 C 0.5353(6) 0.1351(4) 0.5071(7)
C18 C 0.5758(6) 0.0737(4) 0.4828(7)
C19 C 0.6140(6) 0.0414(4) 0.4985(8)
C22 C 0.6948(7) 0.0340(5) 0.6108(9)
H14 H 0.7251 0.0465 0.6793
N7 N 0.4890(4) 0.2750(3) 0.6764(6)
N8 N 0.5136(4) 0.1067(3) 0.3879(5)
N9 N 0.5396(4) 0.0653(3) 0.3727(5)
N10 N 0.5751(4) 0.1176(3) 0.5686(5)
N12 N 0.6547(5) 0.0601(3) 0.6034(6)
Cu4 Cu 0.64546(5) 0.12766(5) 0.72730(9)
Cu5 Cu 0.48220(7) 0.35454(5) 0.72730(9)
N13 N 0.4890(4) 0.2140(3) 0.1764(6)
N15 N 0.5425(3) 0.1176(3) 0.0686(5)
N17 N 0.4054(4) 0.0601(3) 0.1034(6)
Cu1 Cu 0.35454(5) 0.87234(5) 0.27270(9)
Cu2_2 Cu 0.52691(7) 1.0000 0.2500
H2 H 0.2755 0.8333 0.0551
C7 C 0.5021(4) 0.9263(4) 0.0172(7)
C8 C 0.5726(4) 0.9586(4) 0.0015(8)
N2 N 0.4069(3) 0.8933(3) 0.1121(5)
N3 N 0.4743(3) 0.9347(3) 0.1273(5)
C20 C 0.6472(6) 0.9722(4) 0.4197(9)
H12 H 0.6443 0.9416 0.3576
C21 C 0.6919(7) 0.9889(5) 0.5183(9)
H13 H 0.7195 0.9709 0.5238
N11 N 0.6072(6) 0.9974(4) 0.4073(6)
N14 N 0.2750(3) 0.7860(3) 0.3236(6)
N16 N 0.4249(4) 0.8824(3) 0.4314(5)
N18 N 0.3453(5) 0.9399(3) 0.3966(6)
C1 C 0.2175(4) 0.7610(4) 0.9270(8)
H1 H 0.1780 0.7542 0.9634
C2 C 0.2762(4) 0.8082(4) 0.9847(7)
C3 C 0.3341(5) 0.8172(3) 0.9376(7)
C4 C 0.3333(4) 0.7833(4) 0.8272(7)
H3 H 0.3723 0.7905 0.7882
C5 C 0.2716(5) 0.7376(4) 0.7750(7)
H4 H 0.2711 0.7143 0.7005
C6 C 0.4002(4) 0.8649(4) 0.9929(7)
C11 C 0.6608(5) 0.9660(5) 0.8892(9)
H7 H 0.6786 0.9535 0.8207
N1 N 0.2140(3) 0.7250(3) 0.8236(6)
N4 N 0.4575(3) 0.8824(3) 0.9314(5)
N6 N 0.5946(4) 0.9399(3) 0.8966(6)
Cu6 Cu 0.12766(5) 0.64546(5) 0.77270(9)
Cu7 Cu 0.51780(7) 0.87234(5) 0.77270(9)
Cu1_2 Cu 0.12766(5) 0.48220(7) 0.27270(9)
Cu2_3 Cu -0.0000 0.52691(7) 0.2500
H2_2 H 0.1667 0.4422 0.0551
C7_2 C 0.0737(4) 0.5758(6) 0.0172(7)
C8_2 C 0.0414(4) 0.6140(6) 0.0015(8)
N2_2 N 0.1067(3) 0.5136(4) 0.1121(5)
N3_2 N 0.0653(3) 0.5396(4) 0.1273(5)
C20_2 C 0.0278(4) 0.6750(7) 0.4197(9)
H12_2 H 0.0584 0.7027 0.3576
C21_2 C 0.0111(5) 0.7030(9) 0.5183(9)
H13_2 H 0.0291 0.7486 0.5238
N11_2 N 0.0026(4) 0.6098(7) 0.4073(6)
N14_2 N 0.2140(3) 0.4890(4) 0.3236(6)
N16_2 N 0.1176(3) 0.5425(5) 0.4314(5)
N18_2 N 0.0601(3) 0.4054(6) 0.3966(6)
C1_2 C 0.2390(4) 0.4565(6) 0.9270(8)
H1_2 H 0.2458 0.4238 0.9634
C2_2 C 0.1918(4) 0.4680(6) 0.9847(7)
C3_2 C 0.1828(3) 0.5169(6) 0.9376(7)
C4_2 C 0.2167(4) 0.5500(6) 0.8272(7)
H3_2 H 0.2095 0.5818 0.7882
C5_2 C 0.2624(4) 0.5340(6) 0.7750(7)
H4_2 H 0.2857 0.5568 0.7005
C6_2 C 0.1351(4) 0.5353(6) 0.9929(7)
C11_2 C 0.0340(5) 0.6948(7) 0.8892(9)
H7_2 H 0.0465 0.7251 0.8207
N1_2 N 0.2750(3) 0.4890(4) 0.8236(6)
N4_2 N 0.1176(3) 0.5751(4) 0.9314(5)
N6_2 N 0.0601(3) 0.6547(5) 0.8966(6)
Cu6_2 Cu 0.35454(5) 0.48220(7) 0.77270(9)
Cu2_4 Cu 1.0000 0.52691(7) 0.2500
C9_2 C 0.9722(4) 0.6472(6) 0.0803(9)
H5_2 H 0.9416 0.6443 0.1424
N5_2 N 0.9974(4) 0.6072(6) 0.0927(6)
Cu3_2 Cu 0.87234(5) 0.35454(9) 0.22730(9)
C12_2 C 0.7610(4) 0.2175(7) 0.5730(8)
H8_2 H 0.7542 0.1780 0.5366
C13_2 C 0.8082(4) 0.2762(7) 0.5153(7)
H9_2 H 0.8333 0.2755 0.4449
C14_2 C 0.8172(3) 0.3341(7) 0.5624(7)
C15_2 C 0.7833(4) 0.3333(7) 0.6728(7)
H10_2 H 0.7905 0.3723 0.7118
C16_2 C 0.7376(4) 0.2716(7) 0.7250(7)
H11_2 H 0.7143 0.2711 0.7995
C17_2 C 0.8649(4) 0.4002(7) 0.5071(7)
C18_2 C 0.9263(4) 0.5021(7) 0.4828(7)
C19_2 C 0.9586(4) 0.5726(7) 0.4985(8)
C22_2 C 0.9660(5) 0.6608(9) 0.6108(9)
H14_2 H 0.9535 0.6786 0.6793
N7_2 N 0.7250(3) 0.2140(5) 0.6764(6)
N8_2 N 0.8933(3) 0.4069(5) 0.3879(5)
N9_2 N 0.9347(3) 0.4743(5) 0.3727(5)
N10_2 N 0.8824(3) 0.4575(5) 0.5686(5)
N12_2 N 0.9399(3) 0.5946(6) 0.6034(6)
Cu4_2 Cu 0.87234(5) 0.51780(7) 0.72730(9)
N13_2 N 0.7860(3) 0.2750(5) 0.1764(6)
N15_2 N 0.8824(3) 0.4249(4) 0.0686(5)
N17_2 N 0.9399(3) 0.3453(5) 0.1034(6)
Cu1_3 Cu 0.51780(7) 0.64546(5) 0.27270(9)
Cu2_5 Cu 0.47309(7) 0.47309(7) 0.2500
H2_3 H 0.5578 0.7245 0.0551
C7_3 C 0.4242(6) 0.4979(4) 0.0172(7)
C8_3 C 0.3860(6) 0.4274(4) 0.0015(8)
C9_3 C 0.3528(6) 0.3250(5) 0.0803(9)
H5_3 H 0.3557 0.2973 0.1424
N2_3 N 0.4864(4) 0.5931(3) 0.1121(5)
N3_3 N 0.4604(4) 0.5257(3) 0.1273(5)
N5_3 N 0.3928(6) 0.3902(4) 0.0927(6)
Cu3_3 Cu 0.64546(9) 0.51780(7) 0.22730(9)
C12_3 C 0.7825(7) 0.5435(6) 0.5730(8)
H8_3 H 0.8220 0.5762 0.5366
C13_3 C 0.7238(7) 0.5320(6) 0.5153(7)
H9_3 H 0.7245 0.5578 0.4449
C14_3 C 0.6659(7) 0.4831(6) 0.5624(7)
C15_3 C 0.6667(7) 0.4500(6) 0.6728(7)
H10_3 H 0.6277 0.4182 0.7118
C16_3 C 0.7284(7) 0.4660(6) 0.7250(7)
H11_3 H 0.7289 0.4432 0.7995
C17_3 C 0.5998(7) 0.4647(6) 0.5071(7)
C18_3 C 0.4979(7) 0.4242(6) 0.4828(7)
C19_3 C 0.4274(7) 0.3860(6) 0.4985(8)
C20_3 C 0.3250(7) 0.3528(6) 0.4197(9)
H12_3 H 0.2973 0.3557 0.3576
C21_3 C 0.2970(9) 0.3081(7) 0.5183(9)
H13_3 H 0.2514 0.2805 0.5238
C22_3 C 0.3392(9) 0.3052(7) 0.6108(9)
H14_3 H 0.3214 0.2749 0.6793
N7_3 N 0.7860(5) 0.5110(4) 0.6764(6)
N8_3 N 0.5931(5) 0.4864(4) 0.3879(5)
N9_3 N 0.5257(5) 0.4604(4) 0.3727(5)
N10_3 N 0.5425(5) 0.4249(4) 0.5686(5)
N11_3 N 0.3902(7) 0.3928(6) 0.4073(6)
N12_3 N 0.4054(6) 0.3453(5) 0.6034(6)
N13_3 N 0.7250(5) 0.5110(4) 0.1764(6)
N14_3 N 0.5110(4) 0.7250(3) 0.3236(6)
N15_3 N 0.5751(4) 0.4575(3) 0.0686(5)
N16_3 N 0.4575(5) 0.5751(4) 0.4314(5)
N17_3 N 0.6547(5) 0.5946(4) 0.1034(6)
N18_3 N 0.5946(6) 0.6547(5) 0.3966(6)
C1_3 C 0.5435(6) 0.7825(4) 0.9270(8)
H1_3 H 0.5762 0.8220 0.9634
C2_3 C 0.5320(6) 0.7238(4) 0.9847(7)
C3_3 C 0.4831(6) 0.6659(5) 0.9376(7)
C4_3 C 0.4500(6) 0.6667(4) 0.8272(7)
H3_3 H 0.4182 0.6277 0.7882
C5_3 C 0.4660(6) 0.7284(5) 0.7750(7)
H4_3 H 0.4432 0.7289 0.7005
C6_3 C 0.4647(6) 0.5998(4) 0.9929(7)
C10 C 0.3081(7) 0.2970(5) 0.9817(9)
H6 H 0.2805 0.2514 0.9762
C11_3 C 0.3052(7) 0.3392(5) 0.8892(9)
H7_3 H 0.2749 0.3214 0.8207
N1_3 N 0.5110(4) 0.7860(3) 0.8236(6)
N4_3 N 0.4249(4) 0.5425(3) 0.9314(5)
N6_3 N 0.3453(5) 0.4054(4) 0.8966(6)
C1_4 C 0.7825(4) 0.2390(4) 0.0730(8)
H1_4 H 0.8220 0.2458 0.0366
C2_4 C 0.7238(4) 0.1918(4) 0.0153(7)
C3_4 C 0.6659(5) 0.1828(3) 0.0624(7)
C4_4 C 0.6667(4) 0.2167(4) 0.1728(7)
H3_4 H 0.6277 0.2095 0.2118
C5_4 C 0.7284(5) 0.2624(4) 0.2250(7)
H4_4 H 0.7289 0.2857 0.2995
C6_4 C 0.5998(4) 0.1351(4) 0.0071(7)
C11_4 C 0.3392(5) 0.0340(5) 0.1108(9)
H7_4 H 0.3214 0.0465 0.1793
Cu2_6 Cu 0.47309(7) 0.0000 0.7500
H2_4 H 0.7245 0.1667 0.9449
C7_4 C 0.4979(4) 0.0737(4) 0.9828(7)
C8_4 C 0.4274(4) 0.0414(4) 0.9985(8)
N2_4 N 0.5931(3) 0.1067(3) 0.8879(5)
N3_4 N 0.5257(3) 0.0653(3) 0.8727(5)
C20_4 C 0.3528(6) 0.0278(4) 0.5803(9)
H12_4 H 0.3557 0.0584 0.6424
C21_4 C 0.3081(7) 0.0111(5) 0.4817(9)
H13_4 H 0.2805 0.0291 0.4762
N11_4 N 0.3928(6) 0.0026(4) 0.5927(6)
Cu2_7 Cu 0.47309(7) 1.0000 0.7500
C9_4 C 0.3250(5) 0.9722(4) 0.9197(9)
H5_4 H 0.2973 0.9416 0.8576
N5_4 N 0.3902(4) 0.9974(4) 0.9073(6)
C12_4 C 0.5435(6) 0.7610(4) 0.4270(8)
H8_4 H 0.5762 0.7542 0.4634
C13_4 C 0.5320(6) 0.8082(4) 0.4847(7)
H9_4 H 0.5578 0.8333 0.5551
C14_4 C 0.4831(6) 0.8172(3) 0.4376(7)
C15_4 C 0.4500(6) 0.7833(4) 0.3272(7)
H10_4 H 0.4182 0.7905 0.2882
C16_4 C 0.4660(6) 0.7376(4) 0.2750(7)
H11_4 H 0.4432 0.7143 0.2005
C17_4 C 0.4647(6) 0.8649(4) 0.4929(7)
C18_4 C 0.4242(6) 0.9263(4) 0.5172(7)
C19_4 C 0.3860(6) 0.9586(4) 0.5015(8)
C22_4 C 0.3052(7) 0.9660(5) 0.3892(9)
H14_4 H 0.2749 0.9535 0.3207
N8_4 N 0.4864(4) 0.8933(3) 0.6121(5)
N9_4 N 0.4604(4) 0.9347(3) 0.6273(5)
Cu2_8 Cu -0.0000 0.47309(7) 0.7500
C9_5 C 0.0278(4) 0.3528(6) 0.9197(9)
H5_5 H 0.0584 0.3557 0.8576
N5_5 N 0.0026(4) 0.3928(6) 0.9073(6)
C12_5 C 0.2390(4) 0.7825(7) 0.4270(8)
H8_5 H 0.2458 0.8220 0.4634
C13_5 C 0.1918(4) 0.7238(7) 0.4847(7)
H9_5 H 0.1667 0.7245 0.5551
C14_5 C 0.1828(3) 0.6659(7) 0.4376(7)
C15_5 C 0.2167(4) 0.6667(7) 0.3272(7)
H10_5 H 0.2095 0.6277 0.2882
C16_5 C 0.2624(4) 0.7284(7) 0.2750(7)
H11_5 H 0.2857 0.7289 0.2005
C17_5 C 0.1351(4) 0.5998(7) 0.4929(7)
C18_5 C 0.0737(4) 0.4979(7) 0.5172(7)
C19_5 C 0.0414(4) 0.4274(7) 0.5015(8)
C22_5 C 0.0340(5) 0.3392(9) 0.3892(9)
H14_5 H 0.0465 0.3214 0.3207
N8_5 N 0.1067(3) 0.5931(5) 0.6121(5)
N9_5 N 0.0653(3) 0.5257(5) 0.6273(5)
C1_5 C 0.7610(4) 0.5435(6) 0.0730(8)
H1_5 H 0.7542 0.5762 0.0366
C2_5 C 0.8082(4) 0.5320(6) 0.0153(7)
C3_5 C 0.8172(3) 0.4831(6) 0.0624(7)
C4_5 C 0.7833(4) 0.4500(6) 0.1728(7)
H3_5 H 0.7905 0.4182 0.2118
C5_5 C 0.7376(4) 0.4660(6) 0.2250(7)
H4_5 H 0.7143 0.4432 0.2995
C6_5 C 0.8649(4) 0.4647(6) 0.0071(7)
C11_5 C 0.9660(5) 0.3052(7) 0.1108(9)
H7_5 H 0.9535 0.2749 0.1793
Cu2_9 Cu 1.0000 0.47309(7) 0.7500
H2_5 H 0.8333 0.5578 0.9449
C7_5 C 0.9263(4) 0.4242(6) 0.9828(7)
C8_5 C 0.9586(4) 0.3860(6) 0.9985(8)
N2_5 N 0.8933(3) 0.4864(4) 0.8879(5)
N3_5 N 0.9347(3) 0.4604(4) 0.8727(5)
C20_5 C 0.9722(4) 0.3250(7) 0.5803(9)
H12_5 H 0.9416 0.2973 0.6424
C21_5 C 0.9889(5) 0.2970(9) 0.4817(9)
H13_5 H 0.9709 0.2514 0.4762
N11_5 N 0.9974(4) 0.3902(7) 0.5927(6)
C1_6 C 0.4565(6) 0.2175(4) 0.0730(8)
H1_6 H 0.4238 0.1780 0.0366
C2_6 C 0.4680(6) 0.2762(4) 0.0153(7)
C3_6 C 0.5169(6) 0.3341(5) 0.0624(7)
C4_6 C 0.5500(6) 0.3333(4) 0.1728(7)
H3_6 H 0.5818 0.3723 0.2118
C5_6 C 0.5340(6) 0.2716(5) 0.2250(7)
H4_6 H 0.5568 0.2711 0.2995
C6_6 C 0.5353(6) 0.4002(4) 0.0071(7)
C10_2 C 0.6919(7) 0.7030(5) 0.0183(9)
H6_2 H 0.7195 0.7486 0.0238
C11_6 C 0.6948(7) 0.6608(5) 0.1108(9)
H7_6 H 0.7251 0.6786 0.1793
Cu2_10 Cu 0.52691(7) 0.52691(7) 0.7500
H2_6 H 0.4422 0.2755 0.9449
C7_6 C 0.5758(6) 0.5021(4) 0.9828(7)
C8_6 C 0.6140(6) 0.5726(4) 0.9985(8)
C9_6 C 0.6472(6) 0.6750(5) 0.9197(9)
H5_6 H 0.6443 0.7027 0.8576
N2_6 N 0.5136(4) 0.4069(3) 0.8879(5)
N3_6 N 0.5396(4) 0.4743(3) 0.8727(5)
N5_6 N 0.6072(6) 0.6098(4) 0.9073(6)
C12_6 C 0.2175(7) 0.4565(6) 0.4270(8)
H8_6 H 0.1780 0.4238 0.4634
C13_6 C 0.2762(7) 0.4680(6) 0.4847(7)
H9_6 H 0.2755 0.4422 0.5551
C14_6 C 0.3341(7) 0.5169(6) 0.4376(7)
C15_6 C 0.3333(7) 0.5500(6) 0.3272(7)
H10_6 H 0.3723 0.5818 0.2882
C16_6 C 0.2716(7) 0.5340(6) 0.2750(7)
H11_6 H 0.2711 0.5568 0.2005
C17_6 C 0.4002(7) 0.5353(6) 0.4929(7)
C18_6 C 0.5021(7) 0.5758(6) 0.5172(7)
C19_6 C 0.5726(7) 0.6140(6) 0.5015(8)
C20_6 C 0.6750(7) 0.6472(6) 0.5803(9)
H12_6 H 0.7027 0.6443 0.6424
C21_6 C 0.7030(9) 0.6919(7) 0.4817(9)
H13_6 H 0.7486 0.7195 0.4762
C22_6 C 0.6608(9) 0.6948(7) 0.3892(9)
H14_6 H 0.6786 0.7251 0.3207
N8_6 N 0.4069(5) 0.5136(4) 0.6121(5)
N9_6 N 0.4743(5) 0.5396(4) 0.6273(5)
N11_6 N 0.6098(7) 0.6072(6) 0.5927(6)
C10_3 C 0.7030(5) 0.0111(5) 0.9817(9)
H6_3 H 0.7486 0.0291 0.9762
C10_4 C 0.9889(5) 0.6919(7) 0.9817(9)
H6_4 H 0.9709 0.7195 0.9762
C10_5 C 0.2970(5) 0.9889(5) 0.0183(9)
H6_5 H 0.2514 0.9709 0.0238
C10_6 C 0.0111(5) 0.3081(7) 0.0183(9)
H6_6 H 0.0291 0.2805 0.0238
loop_
_geom_bond_atom_site_label_1
_geom_bond_atom_site_label_2
_geom_bond_site_symmetry_1
_geom_bond_site_symmetry_2
C9 H5 1_555 1_555
N5 Cu2 1_555 1_555
Cu3 N8 1_555 1_555
C12 H8 1_555 1_555
C13 C12 1_555 1_555
H9 C13 1_555 1_555
C14 C13 1_555 1_555
C15 C14 1_555 1_555
H10 C15 1_555 1_555
C16 C15 1_555 1_555
H11 C16 1_555 1_555
C17 C14 1_555 1_555
C18 C19 1_555 1_555
H14 C22 1_555 1_555
N7 C12 1_555 1_555
N8 C17 1_555 1_555
N9 Cu2 1_555 1_555
N10 C17 1_555 1_555
N12 C19 1_555 1_555
Cu4 N10 1_555 1_555
Cu5 N7 1_555 1_555
N13 Cu3 1_555 1_555
N15 Cu3 1_555 1_555
N17 Cu3 1_555 1_555
C9 N5 1_555 1_555
C16 N7 1_555 1_555
C18 N9 1_555 1_555
C18 N10 1_555 1_555
C22 N12 1_555 1_555
N8 N9 1_555 1_555
N12 Cu4 1_555 1_555
Cu1 N2 1_555 1_555
Cu2_2 N3 1_555 1_555
C7 C8 1_555 1_555
N3 C7 1_555 1_555
C20 H12 1_555 1_555
C21 C20 1_555 1_555
H13 C21 1_555 1_555
N11 Cu2_2 1_555 1_555
N14 Cu1 1_555 1_555
N16 Cu1 1_555 1_555
N18 Cu1 1_555 1_555
N2 N3 1_555 1_555
C20 N11 1_555 1_555
C1 H1 1_555 1_555
C2 C1 1_555 1_555
C3 C2 1_555 1_555
C4 C3 1_555 1_555
H3 C4 1_555 1_555
C5 C4 1_555 1_555
H4 C5 1_555 1_555
C6 C3 1_555 1_555
H7 C11 1_555 1_555
N1 C1 1_555 1_555
N4 C6 1_555 1_555
Cu6 N1 1_555 1_555
Cu7 N4 1_555 1_555
C5 N1 1_555 1_555
C11 N6 1_555 1_555
N6 Cu7 1_555 1_555
Cu1_2 N2_2 1_555 1_555
Cu2_3 N3_2 1_555 1_555
C7_2 C8_2 1_555 1_555
N3_2 C7_2 1_555 1_555
C20_2 H12_2 1_555 1_555
C21_2 C20_2 1_555 1_555
H13_2 C21_2 1_555 1_555
N11_2 Cu2_3 1_555 1_555
N14_2 Cu1_2 1_555 1_555
N16_2 Cu1_2 1_555 1_555
N18_2 Cu1_2 1_555 1_555
N2_2 N3_2 1_555 1_555
C20_2 N11_2 1_555 1_555
C1_2 H1_2 1_555 1_555
C2_2 C1_2 1_555 1_555
C3_2 C2_2 1_555 1_555
C4_2 C3_2 1_555 1_555
H3_2 C4_2 1_555 1_555
C5_2 C4_2 1_555 1_555
H4_2 C5_2 1_555 1_555
C6_2 C3_2 1_555 1_555
H7_2 C11_2 1_555 1_555
N1_2 C1_2 1_555 1_555
N4_2 C6_2 1_555 1_555
Cu6_2 N1_2 1_555 1_555
Cu6 N4_2 1_555 1_555
C5_2 N1_2 1_555 1_555
C11_2 N6_2 1_555 1_555
N6_2 Cu6 1_555 1_555
C9_2 H5_2 1_555 1_555
N5_2 Cu2_4 1_555 1_555
Cu3_2 N8_2 1_555 1_555
C12_2 H8_2 1_555 1_555
C13_2 C12_2 1_555 1_555
H9_2 C13_2 1_555 1_555
C14_2 C13_2 1_555 1_555
C15_2 C14_2 1_555 1_555
H10_2 C15_2 1_555 1_555
C16_2 C15_2 1_555 1_555
H11_2 C16_2 1_555 1_555
C17_2 C14_2 1_555 1_555
C18_2 C19_2 1_555 1_555
H14_2 C22_2 1_555 1_555
N7_2 C12_2 1_555 1_555
N8_2 C17_2 1_555 1_555
N9_2 Cu2_4 1_555 1_555
N10_2 C17_2 1_555 1_555
N12_2 C19_2 1_555 1_555
Cu4_2 N10_2 1_555 1_555
Cu4 N7_2 1_555 1_555
N13_2 Cu3_2 1_555 1_555
N15_2 Cu3_2 1_555 1_555
N17_2 Cu3_2 1_555 1_555
C9_2 N5_2 1_555 1_555
C16_2 N7_2 1_555 1_555
C18_2 N9_2 1_555 1_555
C18_2 N10_2 1_555 1_555
C22_2 N12_2 1_555 1_555
N8_2 N9_2 1_555 1_555
N12_2 Cu4_2 1_555 1_555
Cu1_3 N2_3 1_555 1_555
Cu2_5 N3_3 1_555 1_555
C7_3 C8_3 1_555 1_555
C8_3 N5_3 1_555 1_555
C9_3 H5_3 1_555 1_555
N3_3 C7_3 1_555 1_555
N5_3 Cu2_5 1_555 1_555
Cu3_3 N8_3 1_555 1_555
C12_3 H8_3 1_555 1_555
C13_3 C12_3 1_555 1_555
H9_3 C13_3 1_555 1_555
C14_3 C13_3 1_555 1_555
C15_3 C14_3 1_555 1_555
H10_3 C15_3 1_555 1_555
C16_3 C15_3 1_555 1_555
H11_3 C16_3 1_555 1_555
C17_3 C14_3 1_555 1_555
C18_3 C19_3 1_555 1_555
C19_3 N11_3 1_555 1_555
C20_3 H12_3 1_555 1_555
C21_3 C20_3 1_555 1_555
H13_3 C21_3 1_555 1_555
C22_3 C21_3 1_555 1_555
H14_3 C22_3 1_555 1_555
N7_3 C12_3 1_555 1_555
N8_3 C17_3 1_555 1_555
N9_3 Cu2_5 1_555 1_555
N10_3 C17_3 1_555 1_555
N11_3 Cu2_5 1_555 1_555
N12_3 C19_3 1_555 1_555
Cu5 N10_3 1_555 1_555
Cu4_2 N7_3 1_555 1_555
N13_3 Cu3_3 1_555 1_555
N14_3 Cu1_3 1_555 1_555
N15_3 Cu3_3 1_555 1_555
N16_3 Cu1_3 1_555 1_555
N17_3 Cu3_3 1_555 1_555
N18_3 Cu1_3 1_555 1_555
C9_3 N5_3 1_555 1_555
N2_3 N3_3 1_555 1_555
C16_3 N7_3 1_555 1_555
C18_3 N9_3 1_555 1_555
C18_3 N10_3 1_555 1_555
C20_3 N11_3 1_555 1_555
C22_3 N12_3 1_555 1_555
N8_3 N9_3 1_555 1_555
N12_3 Cu5 1_555 1_555
C1_3 H1_3 1_555 1_555
C2_3 C1_3 1_555 1_555
C3_3 C2_3 1_555 1_555
C4_3 C3_3 1_555 1_555
H3_3 C4_3 1_555 1_555
C5_3 C4_3 1_555 1_555
H4_3 C5_3 1_555 1_555
C6_3 C3_3 1_555 1_555
H6 C10 1_555 1_555
C11_3 C10 1_555 1_555
H7_3 C11_3 1_555 1_555
N1_3 C1_3 1_555 1_555
N4_3 C6_3 1_555 1_555
Cu7 N1_3 1_555 1_555
Cu6_2 N4_3 1_555 1_555
C5_3 N1_3 1_555 1_555
C11_3 N6_3 1_555 1_555
N6_3 Cu6_2 1_555 1_555
C1_4 H1_4 1_555 1_555
C2_4 C1_4 1_555 1_555
C3_4 C2_4 1_555 1_555
C4_4 C3_4 1_555 1_555
H3_4 C4_4 1_555 1_555
C5_4 C4_4 1_555 1_555
H4_4 C5_4 1_555 1_555
C6_4 C3_4 1_555 1_555
H7_4 C11_4 1_555 1_555
N13_2 C1_4 1_555 1_555
N15 C6_4 1_555 1_555
C5_4 N13_2 1_555 1_555
C11_4 N17 1_555 1_555
Cu4 N2_4 1_555 1_555
Cu2_6 N3_4 1_555 1_555
C7_4 C8_4 1_555 1_555
N3_4 C7_4 1_555 1_555
C20_4 H12_4 1_555 1_555
C21_4 C20_4 1_555 1_555
H13_4 C21_4 1_555 1_555
N11_4 Cu2_6 1_555 1_555
N2_4 N3_4 1_555 1_555
C20_4 N11_4 1_555 1_555
C9_4 H5_4 1_555 1_555
N5_4 Cu2_7 1_555 1_555
Cu7 N8_4 1_555 1_555
C12_4 H8_4 1_555 1_555
C13_4 C12_4 1_555 1_555
H9_4 C13_4 1_555 1_555
C14_4 C13_4 1_555 1_555
C15_4 C14_4 1_555 1_555
H10_4 C15_4 1_555 1_555
C16_4 C15_4 1_555 1_555
H11_4 C16_4 1_555 1_555
C17_4 C14_4 1_555 1_555
C18_4 C19_4 1_555 1_555
H14_4 C22_4 1_555 1_555
N14_3 C12_4 1_555 1_555
N8_4 C17_4 1_555 1_555
N9_4 Cu2_7 1_555 1_555
N16 C17_4 1_555 1_555
N18 C19_4 1_555 1_555
C9_4 N5_4 1_555 1_555
C16_4 N14_3 1_555 1_555
C18_4 N9_4 1_555 1_555
C18_4 N16 1_555 1_555
C22_4 N18 1_555 1_555
N8_4 N9_4 1_555 1_555
C9_5 H5_5 1_555 1_555
N5_5 Cu2_8 1_555 1_555
Cu6 N8_5 1_555 1_555
C12_5 H8_5 1_555 1_555
C13_5 C12_5 1_555 1_555
H9_5 C13_5 1_555 1_555
C14_5 C13_5 1_555 1_555
C15_5 C14_5 1_555 1_555
H10_5 C15_5 1_555 1_555
C16_5 C15_5 1_555 1_555
H11_5 C16_5 1_555 1_555
C17_5 C14_5 1_555 1_555
C18_5 C19_5 1_555 1_555
H14_5 C22_5 1_555 1_555
N14 C12_5 1_555 1_555
N8_5 C17_5 1_555 1_555
N9_5 Cu2_8 1_555 1_555
N16_2 C17_5 1_555 1_555
N18_2 C19_5 1_555 1_555
C9_5 N5_5 1_555 1_555
C16_5 N14 1_555 1_555
C18_5 N9_5 1_555 1_555
C18_5 N16_2 1_555 1_555
C22_5 N18_2 1_555 1_555
N8_5 N9_5 1_555 1_555
C1_5 H1_5 1_555 1_555
C2_5 C1_5 1_555 1_555
C3_5 C2_5 1_555 1_555
C4_5 C3_5 1_555 1_555
H3_5 C4_5 1_555 1_555
C5_5 C4_5 1_555 1_555
H4_5 C5_5 1_555 1_555
C6_5 C3_5 1_555 1_555
H7_5 C11_5 1_555 1_555
N13_3 C1_5 1_555 1_555
N15_2 C6_5 1_555 1_555
C5_5 N13_3 1_555 1_555
C11_5 N17_2 1_555 1_555
Cu4_2 N2_5 1_555 1_555
Cu2_9 N3_5 1_555 1_555
C7_5 C8_5 1_555 1_555
N3_5 C7_5 1_555 1_555
C20_5 H12_5 1_555 1_555
C21_5 C20_5 1_555 1_555
H13_5 C21_5 1_555 1_555
N11_5 Cu2_9 1_555 1_555
N2_5 N3_5 1_555 1_555
C20_5 N11_5 1_555 1_555
C1_6 H1_6 1_555 1_555
C2_6 C1_6 1_555 1_555
C3_6 C2_6 1_555 1_555
C4_6 C3_6 1_555 1_555
H3_6 C4_6 1_555 1_555
C5_6 C4_6 1_555 1_555
H4_6 C5_6 1_555 1_555
C6_6 C3_6 1_555 1_555
H6_2 C10_2 1_555 1_555
C11_6 C10_2 1_555 1_555
H7_6 C11_6 1_555 1_555
N13 C1_6 1_555 1_555
N15_3 C6_6 1_555 1_555
C5_6 N13 1_555 1_555
C11_6 N17_3 1_555 1_555
Cu5 N2_6 1_555 1_555
Cu2_10 N3_6 1_555 1_555
C7_6 C8_6 1_555 1_555
C8_6 N5_6 1_555 1_555
C9_6 H5_6 1_555 1_555
N3_6 C7_6 1_555 1_555
N5_6 Cu2_10 1_555 1_555
Cu6_2 N8_6 1_555 1_555
C12_6 H8_6 1_555 1_555
C13_6 C12_6 1_555 1_555
H9_6 C13_6 1_555 1_555
C14_6 C13_6 1_555 1_555
C15_6 C14_6 1_555 1_555
H10_6 C15_6 1_555 1_555
C16_6 C15_6 1_555 1_555
H11_6 C16_6 1_555 1_555
C17_6 C14_6 1_555 1_555
C18_6 C19_6 1_555 1_555
C19_6 N11_6 1_555 1_555
C20_6 H12_6 1_555 1_555
C21_6 C20_6 1_555 1_555
H13_6 C21_6 1_555 1_555
C22_6 C21_6 1_555 1_555
H14_6 C22_6 1_555 1_555
N14_2 C12_6 1_555 1_555
N8_6 C17_6 1_555 1_555
N9_6 Cu2_10 1_555 1_555
N16_3 C17_6 1_555 1_555
N11_6 Cu2_10 1_555 1_555
N18_3 C19_6 1_555 1_555
C9_6 N5_6 1_555 1_555
N2_6 N3_6 1_555 1_555
C16_6 N14_2 1_555 1_555
C18_6 N9_6 1_555 1_555
C18_6 N16_3 1_555 1_555
C20_6 N11_6 1_555 1_555
C22_6 N18_3 1_555 1_555
N8_6 N9_6 1_555 1_555
H6_3 C10_3 1_555 1_555
H6_4 C10_4 1_555 1_555
H6_5 C10_5 1_555 1_555
H6_6 C10_6 1_555 1_555

#END
