
###############################################################################
#
# This file contains modified crystal structure data generated from the
# MOF subset of the Cambridge Structural Database (CSD) v543 
# hosted by the Cambridge Crystallographic Data Centre (CCDC).
#
# This work is licensed under the Creative Commons
# Attribution-NonCommercial-ShareAlike 4.0 International License.
# To view a copy of this license, visit
# http://creativecommons.org/licenses/by-nc-sa/4.0/
# or send a letter to
# Creative Commons, PO Box 1866, Mountain View, CA 94042, USA.
#
# CIF created using the CSD Python API on 29 September 2022
# The structure has been converted into the P1 space group
# The structure has a 3D framework
# The original CSD entry GILGEQ is in the tetragonal crystal system
# The framework has been calculated to contain at least 10.0% void space
# The void calculation uses a probe of radius 1.32A, grid spacing 0.4
#
###############################################################################

data_GILGEQ
_chemical_formula_moiety         '(C272 H176 Cu12 N48 O64)n'
_symmetry_cell_setting           triclinic
_symmetry_space_group_name_H-M   'P 1'
_symmetry_Int_Tables_number      1
_space_group_name_Hall           'P 1'
loop_
_symmetry_equiv_pos_site_id
_symmetry_equiv_pos_as_xyz
1 x,y,z
_cell_length_a                   18.198(3)
_cell_length_b                   18.198(3)
_cell_length_c                   43.859(9)
_cell_angle_alpha                90
_cell_angle_beta                 90
_cell_angle_gamma                90
_cell_volume                     14524.7
loop_
_atom_site_label
_atom_site_type_symbol
_atom_site_fract_x
_atom_site_fract_y
_atom_site_fract_z
O1 O 0.0086(3) 0.34825(16) 0.38186(8)
O2 O 0.01441(18) 0.6471(2) 0.19202(6)
O3 O 0.08994(15) 0.7411(2) 0.19560(6)
O4 O 0.0942(2) 0.26810(17) 0.37938(7)
N1 N 0.2779(2) 0.5630(3) 0.31269(11)
N2 N 0.36562(19) 0.6206(3) 0.33441(10)
C1 C 0.0682(2) 0.6797(3) 0.20286(9)
C2 C 0.0702(3) 0.3232(3) 0.37156(10)
C3 C 0.3543(3) 0.5724(4) 0.31272(14)
H1 H 0.3889 0.5497 0.3003
C4 C 0.1657(3) 0.6755(4) 0.24315(12)
H2 H 0.1784 0.7237 0.2384
C5 C 0.1111(4) 0.3748(3) 0.34989(12)
C6 C 0.1103(3) 0.6429(4) 0.22774(11)
N3 N 0.2436(3) 0.6010(4) 0.33451(15)
C7 C 0.2386(3) 0.5113(4) 0.29231(14)
H3 H 0.2756 0.4817 0.2817
C8 C 0.1339(3) 0.4932(4) 0.32492(14)
H4 H 0.1245 0.5434 0.3243
C9 C 0.2970(2) 0.6371(3) 0.34556(13)
H5 H 0.2900 0.6728 0.3604
C10 C 0.1826(4) 0.3456(3) 0.33635(13)
H6 H 0.1997 0.2987 0.3410
C11 C 0.1932(3) 0.4614(3) 0.31043(15)
C12 C 0.0849(4) 0.4391(3) 0.34207(15)
H7 H 0.0368 0.4517 0.3469
C13 C 0.2040(4) 0.6388(5) 0.26578(14)
H8 H 0.2334 0.6652 0.2793
C14 C 0.2197(4) 0.3895(3) 0.31761(13)
H9 H 0.2635 0.3731 0.3090
C15 C 0.1983(3) 0.5558(4) 0.26868(12)
C16 C 0.0939(4) 0.5693(5) 0.23446(16)
H10 H 0.0538 0.5473 0.2251
C17 C 0.1351(5) 0.5290(5) 0.2543(2)
H11 H 0.1204 0.4811 0.2586
Cu2 Cu 0.05510(3) 0.20345(2) 0.41203(2)
Cu3 Cu 0.04655(2) 0.80510(3) 0.16203(2)
Cu5 Cu 0.45345(2) 0.69490(3) 0.33797(2)
O7 O 0.01810(17) 0.6558(2) 0.12938(7)
Cu1 Cu 0.95345(2) 0.69490(3) 0.16203(2)
Cu4 Cu 0.94490(3) 0.29655(2) 0.41203(2)
O5 O 0.90175(16) 0.7586(3) 0.13186(8)
O6 O 0.91006(15) 0.7589(2) 0.19560(6)
N4 N 0.86562(19) 0.6206(3) 0.16559(10)
Cu1_2 Cu 0.54655(2) 0.30510(3) 0.66203(2)
O1_2 O 0.4914(3) 0.65175(16) 0.88186(8)
O2_2 O 0.48559(18) 0.3529(2) 0.69202(6)
O3_2 O 0.41006(15) 0.2589(2) 0.69560(6)
O4_2 O 0.4058(2) 0.73190(17) 0.87938(7)
N1_2 N 0.2221(2) 0.4370(3) 0.81269(11)
N2_2 N 0.13438(19) 0.3794(3) 0.83441(10)
C1_2 C 0.4318(2) 0.3203(3) 0.70286(9)
C2_2 C 0.4298(3) 0.6768(3) 0.87156(10)
C3_2 C 0.1457(3) 0.4276(4) 0.81272(14)
H1_2 H 0.1111 0.4503 0.8003
C4_2 C 0.3343(3) 0.3245(4) 0.74315(12)
H2_2 H 0.3216 0.2763 0.7384
C5_2 C 0.3889(4) 0.6252(3) 0.84989(12)
C6_2 C 0.3897(3) 0.3571(4) 0.72774(11)
N3_2 N 0.2564(3) 0.3990(4) 0.83451(15)
C7_2 C 0.2614(3) 0.4887(4) 0.79231(14)
H3_2 H 0.2244 0.5183 0.7817
C8_2 C 0.3661(3) 0.5068(4) 0.82492(14)
H4_2 H 0.3755 0.4566 0.8243
C9_2 C 0.2030(2) 0.3629(3) 0.84556(13)
H5_2 H 0.2100 0.3272 0.8604
C10_2 C 0.3174(4) 0.6544(3) 0.83635(13)
H6_2 H 0.3003 0.7013 0.8410
C11_2 C 0.3068(3) 0.5386(3) 0.81043(15)
C12_2 C 0.4151(4) 0.5609(3) 0.84207(15)
H7_2 H 0.4632 0.5483 0.8469
C13_2 C 0.2960(4) 0.3612(5) 0.76578(14)
H8_2 H 0.2666 0.3348 0.7793
C14_2 C 0.2803(4) 0.6105(3) 0.81761(13)
H9_2 H 0.2365 0.6269 0.8090
C15_2 C 0.3017(3) 0.4442(4) 0.76868(12)
C16_2 C 0.4061(4) 0.4307(5) 0.73446(16)
H10_2 H 0.4462 0.4527 0.7251
C17_2 C 0.3649(5) 0.4710(5) 0.7543(2)
H11_2 H 0.3796 0.5189 0.7586
Cu2_2 Cu 0.44490(3) 0.79655(2) 0.91203(2)
Cu3_2 Cu 0.45345(2) 0.19490(3) 0.66203(2)
Cu4_2 Cu 0.55510(3) 0.70345(2) 0.91203(2)
Cu5_2 Cu 0.04655(2) 0.30510(3) 0.83797(2)
O5_2 O 0.59825(16) 0.2414(3) 0.63186(8)
O6_2 O 0.58994(15) 0.2411(2) 0.69560(6)
O7_2 O 0.48190(17) 0.3442(2) 0.62938(7)
N4_2 N 0.63438(19) 0.3794(3) 0.66559(10)
O1_3 O 0.40175(16) 0.2586(3) 0.63186(8)
O2_3 O 0.1029(2) 0.26441(18) 0.44202(6)
O3_3 O 0.0089(2) 0.33994(15) 0.44560(6)
N1_3 N 0.1870(3) 0.5279(2) 0.56269(11)
N2_3 N 0.1294(3) 0.61562(19) 0.58441(10)
C1_3 C 0.0703(3) 0.3182(2) 0.45286(9)
C2_3 C 0.4268(3) 0.3202(3) 0.62156(10)
C3_3 C 0.1776(4) 0.6043(3) 0.56272(14)
H1_3 H 0.2003 0.6389 0.5503
C4_3 C 0.0745(4) 0.4157(3) 0.49315(12)
H2_3 H 0.0263 0.4284 0.4884
C5_3 C 0.3752(3) 0.3611(4) 0.59989(12)
C6_3 C 0.1071(4) 0.3603(3) 0.47774(11)
N3_3 N 0.1490(4) 0.4936(3) 0.58451(15)
C7_3 C 0.2387(4) 0.4886(3) 0.54231(14)
H3_3 H 0.2683 0.5256 0.5317
C8_3 C 0.2568(4) 0.3839(3) 0.57492(14)
H4_3 H 0.2066 0.3745 0.5743
C9_3 C 0.1129(3) 0.5470(2) 0.59556(13)
H5_3 H 0.0772 0.5400 0.6104
C10_3 C 0.4044(3) 0.4326(4) 0.58635(13)
H6_3 H 0.4513 0.4497 0.5910
C11_3 C 0.2886(3) 0.4432(3) 0.56043(15)
C12_3 C 0.3109(3) 0.3349(4) 0.59207(15)
H7_3 H 0.2983 0.2868 0.5969
C13_3 C 0.1112(5) 0.4540(4) 0.51578(14)
H8_3 H 0.0848 0.4834 0.5293
C14_3 C 0.3605(3) 0.4697(4) 0.56761(13)
H9_3 H 0.3769 0.5135 0.5590
C15_3 C 0.1942(4) 0.4483(3) 0.51868(12)
C16_3 C 0.1807(5) 0.3439(4) 0.48446(16)
H10_3 H 0.2027 0.3038 0.4751
C17_3 C 0.2210(5) 0.3851(5) 0.5043(2)
H11_3 H 0.2689 0.3704 0.5086
Cu5_3 Cu 0.05510(3) 0.70345(2) 0.58797(2)
N4_3 N 0.1294(3) 0.11562(19) 0.41559(10)
O5_3 O 0.9914(3) 0.15175(16) 0.38186(8)
O6_3 O 0.9911(2) 0.16006(15) 0.44560(6)
O1_4 O 0.09825(16) 0.7414(3) 0.13186(8)
N1_4 N 0.3130(3) 0.4721(2) 0.06269(11)
N2_4 N 0.3706(3) 0.38438(19) 0.08441(10)
C2_4 C 0.0732(3) 0.6798(3) 0.12156(10)
C3_4 C 0.3224(4) 0.3957(3) 0.06272(14)
H1_4 H 0.2997 0.3611 0.0503
C5_4 C 0.1248(3) 0.6389(4) 0.09989(12)
N3_4 N 0.3510(4) 0.5064(3) 0.08451(15)
C7_4 C 0.2613(4) 0.5114(3) 0.04231(14)
H3_4 H 0.2317 0.4744 0.0317
C8_4 C 0.2432(4) 0.6161(3) 0.07492(14)
H4_4 H 0.2934 0.6255 0.0743
C9_4 C 0.3871(3) 0.4530(2) 0.09556(13)
H5_4 H 0.4228 0.4600 0.1104
C10_4 C 0.0956(3) 0.5674(4) 0.08635(13)
H6_4 H 0.0487 0.5503 0.0910
C11_4 C 0.2114(3) 0.5568(3) 0.06043(15)
C12_4 C 0.1891(3) 0.6651(4) 0.09207(15)
H7_4 H 0.2017 0.7132 0.0969
C13_4 C 0.3888(5) 0.5460(4) 0.01578(14)
H8_4 H 0.4152 0.5166 0.0293
C14_4 C 0.1395(3) 0.5303(4) 0.06761(13)
H9_4 H 0.1231 0.4865 0.0590
C15_4 C 0.3058(4) 0.5517(3) 0.01868(12)
C17_4 C 0.2790(5) 0.6149(5) 0.0043(2)
H11_4 H 0.2311 0.6296 0.0086
Cu5_4 Cu 0.44490(3) 0.29655(2) 0.08797(2)
O2_4 O 0.3971(2) 0.73559(18) 0.94202(6)
O3_4 O 0.4911(2) 0.66006(15) 0.94560(6)
C1_4 C 0.4297(3) 0.6818(2) 0.95286(9)
C4_4 C 0.4255(4) 0.5843(3) 0.99315(12)
H2_4 H 0.4737 0.5716 0.9884
C6_4 C 0.3929(4) 0.6397(3) 0.97774(11)
C16_4 C 0.3193(5) 0.6561(4) 0.98446(16)
H10_4 H 0.2973 0.6962 0.9751
O5_4 O 0.5086(3) 0.84825(16) 0.88186(8)
O6_4 O 0.5089(2) 0.83994(15) 0.94560(6)
N4_4 N 0.3706(3) 0.88438(19) 0.91559(10)
O2_5 O 0.51441(18) 0.1471(2) 0.69202(6)
N1_5 N 0.7779(2) 0.0630(3) 0.81269(11)
N2_5 N 0.86562(19) 0.1206(3) 0.83441(10)
C1_5 C 0.5682(2) 0.1797(3) 0.70286(9)
C3_5 C 0.8543(3) 0.0724(4) 0.81272(14)
H1_5 H 0.8889 0.0497 0.8003
C4_5 C 0.6657(3) 0.1755(4) 0.74315(12)
H2_5 H 0.6784 0.2237 0.7384
C6_5 C 0.6103(3) 0.1429(4) 0.72774(11)
N3_5 N 0.7436(3) 0.1010(4) 0.83451(15)
C7_5 C 0.7386(3) 0.0113(4) 0.79231(14)
H4_5 H 0.6245 0.0434 0.8243
C9_5 C 0.7970(2) 0.1371(3) 0.84556(13)
H5_5 H 0.7900 0.1728 0.8604
C13_5 C 0.7040(4) 0.1388(5) 0.76578(14)
H8_5 H 0.7334 0.1652 0.7793
C15_5 C 0.6983(3) 0.0558(4) 0.76868(12)
C16_5 C 0.5939(4) 0.0693(5) 0.73446(16)
H10_5 H 0.5538 0.0473 0.7251
C17_5 C 0.6351(5) 0.0290(5) 0.7543(2)
Cu5_5 Cu 0.95345(2) 0.19490(3) 0.83797(2)
O7_3 O 0.51810(17) 0.1558(2) 0.62938(7)
N4_5 N 0.36562(19) 0.1206(3) 0.66559(10)
O4_3 O 0.5942(2) 0.76810(17) 0.87938(7)
C2_5 C 0.5702(3) 0.8232(3) 0.87156(10)
C5_5 C 0.6111(4) 0.8748(3) 0.84989(12)
H3_5 H 0.7756 0.9817 0.7817
C8_5 C 0.6339(3) 0.9932(4) 0.82492(14)
C10_5 C 0.6826(4) 0.8456(3) 0.83635(13)
H6_5 H 0.6997 0.7987 0.8410
C11_5 C 0.6932(3) 0.9614(3) 0.81043(15)
C12_5 C 0.5849(4) 0.9391(3) 0.84207(15)
H7_5 H 0.5368 0.9517 0.8469
C14_5 C 0.7197(4) 0.8895(3) 0.81761(13)
H9_5 H 0.7635 0.8731 0.8090
H11_5 H 0.6204 0.9811 0.7586
N4_6 N 0.13438(19) 0.8794(3) 0.16559(10)
O4_4 O 0.9058(2) 0.23190(17) 0.37938(7)
C2_6 C 0.9298(3) 0.1768(3) 0.37156(10)
C5_6 C 0.8889(4) 0.1252(3) 0.34989(12)
H3_6 H 0.7244 0.0183 0.2817
C8_6 C 0.8661(3) 0.0068(4) 0.32492(14)
C10_6 C 0.8174(4) 0.1544(3) 0.33635(13)
H6_6 H 0.8003 0.2013 0.3410
C11_6 C 0.8068(3) 0.0386(3) 0.31043(15)
C12_6 C 0.9151(4) 0.0609(3) 0.34207(15)
H7_6 H 0.9632 0.0483 0.3469
C14_6 C 0.7803(4) 0.1105(3) 0.31761(13)
H9_6 H 0.7365 0.1269 0.3090
H11_6 H 0.8796 0.0189 0.2586
O2_6 O 0.98559(18) 0.8529(2) 0.19202(6)
N1_6 N 0.7221(2) 0.9370(3) 0.31269(11)
N2_6 N 0.63438(19) 0.8794(3) 0.33441(10)
C1_6 C 0.9318(2) 0.8203(3) 0.20286(9)
C3_6 C 0.6457(3) 0.9276(4) 0.31272(14)
H1_6 H 0.6111 0.9503 0.3003
C4_6 C 0.8343(3) 0.8245(4) 0.24315(12)
H2_6 H 0.8216 0.7763 0.2384
C6_6 C 0.8897(3) 0.8571(4) 0.22774(11)
N3_6 N 0.7564(3) 0.8990(4) 0.33451(15)
C7_6 C 0.7614(3) 0.9887(4) 0.29231(14)
H4_6 H 0.8755 0.9566 0.3243
C9_6 C 0.7030(2) 0.8629(3) 0.34556(13)
H5_6 H 0.7100 0.8272 0.3604
C13_6 C 0.7960(4) 0.8612(5) 0.26578(14)
H8_6 H 0.7666 0.8348 0.2793
C15_6 C 0.8017(3) 0.9442(4) 0.26868(12)
C16_6 C 0.9061(4) 0.9307(5) 0.23446(16)
H10_6 H 0.9462 0.9527 0.2251
C17_6 C 0.8649(5) 0.9710(5) 0.2543(2)
Cu5_6 Cu 0.54655(2) 0.80510(3) 0.33797(2)
O7_4 O 0.98190(17) 0.8442(2) 0.12938(7)
N1_7 N 0.6870(3) 0.0279(2) 0.06269(11)
N2_7 N 0.6294(3) 0.11562(19) 0.08441(10)
C3_7 C 0.6776(4) 0.1043(3) 0.06272(14)
H1_7 H 0.7003 0.1389 0.0503
H3_7 H 0.7683 0.0256 0.0317
C9_7 C 0.6129(3) 0.0470(2) 0.09556(13)
H5_7 H 0.5772 0.0400 0.1104
H9_7 H 0.8769 0.0135 0.0590
Cu5_7 Cu 0.55510(3) 0.20345(2) 0.08797(2)
C2_7 C 0.9268(3) 0.8202(3) 0.12156(10)
C5_7 C 0.8752(3) 0.8611(4) 0.09989(12)
N3_7 N 0.6490(4) 0.9936(3) 0.08451(15)
C7_7 C 0.7387(4) 0.9886(3) 0.04231(14)
C8_7 C 0.7568(4) 0.8839(3) 0.07492(14)
H4_7 H 0.7066 0.8745 0.0743
C10_7 C 0.9044(3) 0.9326(4) 0.08635(13)
H6_7 H 0.9513 0.9497 0.0910
C11_7 C 0.7886(3) 0.9432(3) 0.06043(15)
C12_7 C 0.8109(3) 0.8349(4) 0.09207(15)
H7_7 H 0.7983 0.7868 0.0969
C13_7 C 0.6112(5) 0.9540(4) 0.01578(14)
H8_7 H 0.5848 0.9834 0.0293
C14_7 C 0.8605(3) 0.9697(4) 0.06761(13)
C15_7 C 0.6942(4) 0.9483(3) 0.01868(12)
C17_7 C 0.7210(5) 0.8851(5) 0.0043(2)
H11_7 H 0.7689 0.8704 0.0086
O2_7 O 0.6029(2) 0.76441(18) 0.94202(6)
C1_7 C 0.5703(3) 0.8182(2) 0.95286(9)
C4_7 C 0.5745(4) 0.9157(3) 0.99315(12)
H2_7 H 0.5263 0.9284 0.9884
C6_7 C 0.6071(4) 0.8603(3) 0.97774(11)
C16_7 C 0.6807(5) 0.8439(4) 0.98446(16)
H10_7 H 0.7027 0.8038 0.9751
N4_7 N 0.6294(3) 0.61562(19) 0.91559(10)
O2_8 O 0.8971(2) 0.23559(18) 0.44202(6)
C1_8 C 0.9297(3) 0.1818(2) 0.45286(9)
C2_8 C 0.5732(3) 0.1798(3) 0.62156(10)
C4_8 C 0.9255(4) 0.0843(3) 0.49315(12)
H2_8 H 0.9737 0.0716 0.4884
C5_8 C 0.6248(3) 0.1389(4) 0.59989(12)
C6_8 C 0.8929(4) 0.1397(3) 0.47774(11)
N3_8 N 0.8510(4) 0.0064(3) 0.58451(15)
C7_8 C 0.7613(4) 0.0114(3) 0.54231(14)
C8_8 C 0.7432(4) 0.1161(3) 0.57492(14)
H4_8 H 0.7934 0.1255 0.5743
C10_8 C 0.5956(3) 0.0674(4) 0.58635(13)
H6_8 H 0.5487 0.0503 0.5910
C11_8 C 0.7114(3) 0.0568(3) 0.56043(15)
C12_8 C 0.6891(3) 0.1651(4) 0.59207(15)
H7_8 H 0.7017 0.2132 0.5969
C13_8 C 0.8888(5) 0.0460(4) 0.51578(14)
H8_8 H 0.9152 0.0166 0.5293
C14_8 C 0.6395(3) 0.0303(4) 0.56761(13)
C15_8 C 0.8058(4) 0.0517(3) 0.51868(12)
C16_8 C 0.8193(5) 0.1561(4) 0.48446(16)
H10_8 H 0.7973 0.1962 0.4751
C17_8 C 0.7790(5) 0.1149(5) 0.5043(2)
H11_8 H 0.7311 0.1296 0.5086
N4_8 N 0.8706(3) 0.38438(19) 0.41559(10)
N1_8 N 0.8130(3) 0.9721(2) 0.56269(11)
N2_8 N 0.8706(3) 0.88438(19) 0.58441(10)
C3_8 C 0.8224(4) 0.8957(3) 0.56272(14)
H1_8 H 0.7997 0.8611 0.5503
H3_8 H 0.7317 0.9744 0.5317
C9_8 C 0.8871(3) 0.9530(2) 0.59556(13)
H5_8 H 0.9228 0.9600 0.6104
H9_8 H 0.6231 0.9865 0.5590
Cu5_8 Cu 0.94490(3) 0.79655(2) 0.58797(2)
O5_5 O 0.09825(16) 0.2414(3) 0.86814(8)
O6_5 O 0.08994(15) 0.2411(2) 0.80440(6)
O1_5 O 0.9914(3) 0.65175(16) 0.61814(8)
O2_9 O 0.98559(18) 0.3529(2) 0.80798(6)
O3_5 O 0.91006(15) 0.2589(2) 0.80440(6)
O4_5 O 0.9058(2) 0.73190(17) 0.62062(7)
N1_9 N 0.7221(2) 0.4370(3) 0.68731(11)
C1_9 C 0.9318(2) 0.3203(3) 0.79714(9)
C2_9 C 0.9298(3) 0.6768(3) 0.62844(10)
C3_9 C 0.6457(3) 0.4276(4) 0.68728(14)
H1_9 H 0.6111 0.4503 0.6997
C4_9 C 0.8343(3) 0.3245(4) 0.75685(12)
H2_9 H 0.8216 0.2763 0.7616
C5_9 C 0.8889(4) 0.6252(3) 0.65011(12)
C6_9 C 0.8897(3) 0.3571(4) 0.77226(11)
N3_9 N 0.7564(3) 0.3990(4) 0.66549(15)
C7_9 C 0.7614(3) 0.4887(4) 0.70769(14)
H3_9 H 0.7244 0.5183 0.7183
C8_9 C 0.8661(3) 0.5068(4) 0.67508(14)
H4_9 H 0.8755 0.4566 0.6757
C9_9 C 0.7030(2) 0.3629(3) 0.65444(13)
H5_9 H 0.7100 0.3272 0.6396
C10_9 C 0.8174(4) 0.6544(3) 0.66365(13)
H6_9 H 0.8003 0.7013 0.6590
C11_9 C 0.8068(3) 0.5386(3) 0.68957(15)
C12_9 C 0.9151(4) 0.5609(3) 0.65793(15)
H7_9 H 0.9632 0.5483 0.6531
C13_9 C 0.7960(4) 0.3612(5) 0.73422(14)
H8_9 H 0.7666 0.3348 0.7207
C14_9 C 0.7803(4) 0.6105(3) 0.68239(13)
H9_9 H 0.7365 0.6269 0.6910
C15_9 C 0.8017(3) 0.4442(4) 0.73132(12)
C16_9 C 0.9061(4) 0.4307(5) 0.76554(16)
H10_9 H 0.9462 0.4527 0.7749
C17_9 C 0.8649(5) 0.4710(5) 0.7457(2)
H11_9 H 0.8796 0.5189 0.7414
O7_5 O 0.98190(17) 0.3442(2) 0.87062(7)
O1_6 O 0.5086(3) 0.34825(16) 0.11814(8)
O2_10 O 0.51441(18) 0.6471(2) 0.30798(6)
O3_6 O 0.58994(15) 0.7411(2) 0.30440(6)
O4_6 O 0.5942(2) 0.26810(17) 0.12062(7)
N1_10 N 0.7779(2) 0.5630(3) 0.18731(11)
C1_10 C 0.5682(2) 0.6797(3) 0.29714(9)
C2_10 C 0.5702(3) 0.3232(3) 0.12844(10)
C3_10 C 0.8543(3) 0.5724(4) 0.18728(14)
H1_10 H 0.8889 0.5497 0.1997
C4_10 C 0.6657(3) 0.6755(4) 0.25685(12)
H2_10 H 0.6784 0.7237 0.2616
C5_10 C 0.6111(4) 0.3748(3) 0.15011(12)
C6_10 C 0.6103(3) 0.6429(4) 0.27226(11)
N3_10 N 0.7436(3) 0.6010(4) 0.16549(15)
C7_10 C 0.7386(3) 0.5113(4) 0.20769(14)
H3_10 H 0.7756 0.4817 0.2183
C8_10 C 0.6339(3) 0.4932(4) 0.17508(14)
H4_10 H 0.6245 0.5434 0.1757
C9_10 C 0.7970(2) 0.6371(3) 0.15444(13)
H5_10 H 0.7900 0.6728 0.1396
C10_10 C 0.6826(4) 0.3456(3) 0.16365(13)
H6_10 H 0.6997 0.2987 0.1590
C11_10 C 0.6932(3) 0.4614(3) 0.18957(15)
C12_10 C 0.5849(4) 0.4391(3) 0.15793(15)
H7_10 H 0.5368 0.4517 0.1531
C13_10 C 0.7040(4) 0.6388(5) 0.23422(14)
H8_10 H 0.7334 0.6652 0.2207
C14_10 C 0.7197(4) 0.3895(3) 0.18239(13)
H9_10 H 0.7635 0.3731 0.1910
C15_10 C 0.6983(3) 0.5558(4) 0.23132(12)
C16_10 C 0.5939(4) 0.5693(5) 0.26554(16)
H10_10 H 0.5538 0.5473 0.2749
C17_10 C 0.6351(5) 0.5290(5) 0.2457(2)
H11_10 H 0.6204 0.4811 0.2414
O5_6 O 0.40175(16) 0.7586(3) 0.36814(8)
O6_6 O 0.41006(15) 0.7589(2) 0.30440(6)
O7_6 O 0.51810(17) 0.6558(2) 0.37062(7)
O5_7 O 0.0086(3) 0.84825(16) 0.61814(8)
O6_7 O 0.0089(2) 0.83994(15) 0.55440(6)
O1_7 O 0.59825(16) 0.7414(3) 0.36814(8)
O2_11 O 0.8971(2) 0.73559(18) 0.55798(6)
O3_7 O 0.9911(2) 0.66006(15) 0.55440(6)
N1_11 N 0.8130(3) 0.4721(2) 0.43731(11)
C1_11 C 0.9297(3) 0.6818(2) 0.54714(9)
C2_11 C 0.5732(3) 0.6798(3) 0.37844(10)
C3_11 C 0.8224(4) 0.3957(3) 0.43728(14)
H1_11 H 0.7997 0.3611 0.4497
C4_11 C 0.9255(4) 0.5843(3) 0.50685(12)
H2_11 H 0.9737 0.5716 0.5116
C5_11 C 0.6248(3) 0.6389(4) 0.40011(12)
C6_11 C 0.8929(4) 0.6397(3) 0.52226(11)
N3_11 N 0.8510(4) 0.5064(3) 0.41549(15)
C7_11 C 0.7613(4) 0.5114(3) 0.45769(14)
H3_11 H 0.7317 0.4744 0.4683
C8_11 C 0.7432(4) 0.6161(3) 0.42508(14)
H4_11 H 0.7934 0.6255 0.4257
C9_11 C 0.8871(3) 0.4530(2) 0.40444(13)
H5_11 H 0.9228 0.4600 0.3896
C10_11 C 0.5956(3) 0.5674(4) 0.41365(13)
H6_11 H 0.5487 0.5503 0.4090
C11_11 C 0.7114(3) 0.5568(3) 0.43957(15)
C12_11 C 0.6891(3) 0.6651(4) 0.40793(15)
H7_11 H 0.7017 0.7132 0.4031
C13_11 C 0.8888(5) 0.5460(4) 0.48422(14)
H8_11 H 0.9152 0.5166 0.4707
C14_11 C 0.6395(3) 0.5303(4) 0.43239(13)
H9_11 H 0.6231 0.4865 0.4410
C15_11 C 0.8058(4) 0.5517(3) 0.48132(12)
C16_11 C 0.8193(5) 0.6561(4) 0.51554(16)
H10_11 H 0.7973 0.6962 0.5249
C17_11 C 0.7790(5) 0.6149(5) 0.4957(2)
H11_11 H 0.7311 0.6296 0.4914
O2_12 O 0.6029(2) 0.26441(18) 0.05798(6)
O3_8 O 0.5089(2) 0.33994(15) 0.05440(6)
C1_12 C 0.5703(3) 0.3182(2) 0.04714(9)
C4_12 C 0.5745(4) 0.4157(3) 0.00685(12)
H2_12 H 0.5263 0.4284 0.0116
C6_12 C 0.6071(4) 0.3603(3) 0.02226(11)
C16_12 C 0.6807(5) 0.3439(4) 0.01554(16)
H10_12 H 0.7027 0.3038 0.0249
O5_8 O 0.4914(3) 0.15175(16) 0.11814(8)
O6_8 O 0.4911(2) 0.16006(15) 0.05440(6)
O1_8 O 0.90175(16) 0.2586(3) 0.86814(8)
N1_12 N 0.6870(3) 0.5279(2) 0.93731(11)
C2_12 C 0.9268(3) 0.3202(3) 0.87844(10)
C3_12 C 0.6776(4) 0.6043(3) 0.93728(14)
H1_12 H 0.7003 0.6389 0.9497
C5_12 C 0.8752(3) 0.3611(4) 0.90011(12)
N3_12 N 0.6490(4) 0.4936(3) 0.91549(15)
C7_12 C 0.7387(4) 0.4886(3) 0.95769(14)
H3_12 H 0.7683 0.5256 0.9683
C8_12 C 0.7568(4) 0.3839(3) 0.92508(14)
H4_12 H 0.7066 0.3745 0.9257
C9_12 C 0.6129(3) 0.5470(2) 0.90444(13)
H5_12 H 0.5772 0.5400 0.8896
C10_12 C 0.9044(3) 0.4326(4) 0.91365(13)
H6_12 H 0.9513 0.4497 0.9090
C11_12 C 0.7886(3) 0.4432(3) 0.93957(15)
C12_12 C 0.8109(3) 0.3349(4) 0.90793(15)
H7_12 H 0.7983 0.2868 0.9031
C13_12 C 0.6112(5) 0.4540(4) 0.98422(14)
H8_12 H 0.5848 0.4834 0.9707
C14_12 C 0.8605(3) 0.4697(4) 0.93239(13)
H9_12 H 0.8769 0.5135 0.9410
C15_12 C 0.6942(4) 0.4483(3) 0.98132(12)
C17_12 C 0.7210(5) 0.3851(5) 0.9957(2)
H11_12 H 0.7689 0.3704 0.9914
O4_7 O 0.4058(2) 0.23190(17) 0.12062(7)
C2_13 C 0.4298(3) 0.1768(3) 0.12844(10)
C5_13 C 0.3889(4) 0.1252(3) 0.15011(12)
H3_13 H 0.2244 0.0183 0.2183
C8_13 C 0.3661(3) 0.0068(4) 0.17508(14)
C10_13 C 0.3174(4) 0.1544(3) 0.16365(13)
H6_13 H 0.3003 0.2013 0.1590
C11_13 C 0.3068(3) 0.0386(3) 0.18957(15)
C12_13 C 0.4151(4) 0.0609(3) 0.15793(15)
H7_13 H 0.4632 0.0483 0.1531
C14_13 C 0.2803(4) 0.1105(3) 0.18239(13)
H9_13 H 0.2365 0.1269 0.1910
H11_13 H 0.3796 0.0189 0.2414
O2_13 O 0.48559(18) 0.8529(2) 0.30798(6)
N1_13 N 0.2221(2) 0.9370(3) 0.18731(11)
C1_13 C 0.4318(2) 0.8203(3) 0.29714(9)
C3_13 C 0.1457(3) 0.9276(4) 0.18728(14)
H1_13 H 0.1111 0.9503 0.1997
C4_13 C 0.3343(3) 0.8245(4) 0.25685(12)
H2_13 H 0.3216 0.7763 0.2616
C6_13 C 0.3897(3) 0.8571(4) 0.27226(11)
N3_13 N 0.2564(3) 0.8990(4) 0.16549(15)
C7_13 C 0.2614(3) 0.9887(4) 0.20769(14)
H4_13 H 0.3755 0.9566 0.1757
C9_13 C 0.2030(2) 0.8629(3) 0.15444(13)
H5_13 H 0.2100 0.8272 0.1396
C13_13 C 0.2960(4) 0.8612(5) 0.23422(14)
H8_13 H 0.2666 0.8348 0.2207
C15_13 C 0.3017(3) 0.9442(4) 0.23132(12)
C16_13 C 0.4061(4) 0.9307(5) 0.26554(16)
H10_13 H 0.4462 0.9527 0.2749
C17_13 C 0.3649(5) 0.9710(5) 0.2457(2)
O7_7 O 0.48190(17) 0.8442(2) 0.37062(7)
O2_14 O 0.01441(18) 0.1471(2) 0.80798(6)
N1_14 N 0.2779(2) 0.0630(3) 0.68731(11)
C1_14 C 0.0682(2) 0.1797(3) 0.79714(9)
C3_14 C 0.3543(3) 0.0724(4) 0.68728(14)
H1_14 H 0.3889 0.0497 0.6997
C4_14 C 0.1657(3) 0.1755(4) 0.75685(12)
H2_14 H 0.1784 0.2237 0.7616
C6_14 C 0.1103(3) 0.1429(4) 0.77226(11)
N3_14 N 0.2436(3) 0.1010(4) 0.66549(15)
C7_14 C 0.2386(3) 0.0113(4) 0.70769(14)
H4_14 H 0.1245 0.0434 0.6757
C9_14 C 0.2970(2) 0.1371(3) 0.65444(13)
H5_14 H 0.2900 0.1728 0.6396
C13_14 C 0.2040(4) 0.1388(5) 0.73422(14)
H8_14 H 0.2334 0.1652 0.7207
C15_14 C 0.1983(3) 0.0558(4) 0.73132(12)
C16_14 C 0.0939(4) 0.0693(5) 0.76554(16)
H10_14 H 0.0538 0.0473 0.7749
C17_14 C 0.1351(5) 0.0290(5) 0.7457(2)
O7_8 O 0.01810(17) 0.1558(2) 0.87062(7)
O4_8 O 0.0942(2) 0.76810(17) 0.62062(7)
C2_14 C 0.0702(3) 0.8232(3) 0.62844(10)
C5_14 C 0.1111(4) 0.8748(3) 0.65011(12)
H3_14 H 0.2756 0.9817 0.7183
C8_14 C 0.1339(3) 0.9932(4) 0.67508(14)
C10_14 C 0.1826(4) 0.8456(3) 0.66365(13)
H6_14 H 0.1997 0.7987 0.6590
C11_14 C 0.1932(3) 0.9614(3) 0.68957(15)
C12_14 C 0.0849(4) 0.9391(3) 0.65793(15)
H7_14 H 0.0368 0.9517 0.6531
C14_14 C 0.2197(4) 0.8895(3) 0.68239(13)
H9_14 H 0.2635 0.8731 0.6910
H11_14 H 0.1204 0.9811 0.7414
O2_15 O 0.3971(2) 0.23559(18) 0.05798(6)
C1_15 C 0.4297(3) 0.1818(2) 0.04714(9)
C4_15 C 0.4255(4) 0.0843(3) 0.00685(12)
H2_15 H 0.4737 0.0716 0.0116
C6_15 C 0.3929(4) 0.1397(3) 0.02226(11)
C16_15 C 0.3193(5) 0.1561(4) 0.01554(16)
H10_15 H 0.2973 0.1962 0.0249
C2_15 C 0.0732(3) 0.1798(3) 0.87844(10)
C5_15 C 0.1248(3) 0.1389(4) 0.90011(12)
N3_15 N 0.3510(4) 0.0064(3) 0.91549(15)
C7_15 C 0.2613(4) 0.0114(3) 0.95769(14)
C8_15 C 0.2432(4) 0.1161(3) 0.92508(14)
H4_15 H 0.2934 0.1255 0.9257
C10_15 C 0.0956(3) 0.0674(4) 0.91365(13)
H6_15 H 0.0487 0.0503 0.9090
C11_15 C 0.2114(3) 0.0568(3) 0.93957(15)
C12_15 C 0.1891(3) 0.1651(4) 0.90793(15)
H7_15 H 0.2017 0.2132 0.9031
C13_15 C 0.3888(5) 0.0460(4) 0.98422(14)
H8_15 H 0.4152 0.0166 0.9707
C14_15 C 0.1395(3) 0.0303(4) 0.93239(13)
C15_15 C 0.3058(4) 0.0517(3) 0.98132(12)
C17_15 C 0.2790(5) 0.1149(5) 0.9957(2)
H11_15 H 0.2311 0.1296 0.9914
N1_15 N 0.3130(3) 0.9721(2) 0.93731(11)
C3_15 C 0.3224(4) 0.8957(3) 0.93728(14)
H1_15 H 0.2997 0.8611 0.9497
H3_15 H 0.2317 0.9744 0.9683
C9_15 C 0.3871(3) 0.9530(2) 0.90444(13)
H5_15 H 0.4228 0.9600 0.8896
H9_15 H 0.1231 0.9865 0.9410
N1_16 N 0.1870(3) 0.0279(2) 0.43731(11)
C3_16 C 0.1776(4) 0.1043(3) 0.43728(14)
H1_16 H 0.2003 0.1389 0.4497
H3_16 H 0.2683 0.0256 0.4683
C9_16 C 0.1129(3) 0.0470(2) 0.40444(13)
H5_16 H 0.0772 0.0400 0.3896
H9_16 H 0.3769 0.0135 0.4410
O2_16 O 0.1029(2) 0.76441(18) 0.55798(6)
C1_16 C 0.0703(3) 0.8182(2) 0.54714(9)
C2_16 C 0.4268(3) 0.8202(3) 0.37844(10)
C4_16 C 0.0745(4) 0.9157(3) 0.50685(12)
H2_16 H 0.0263 0.9284 0.5116
C5_16 C 0.3752(3) 0.8611(4) 0.40011(12)
C6_16 C 0.1071(4) 0.8603(3) 0.52226(11)
N3_16 N 0.1490(4) 0.9936(3) 0.41549(15)
C7_16 C 0.2387(4) 0.9886(3) 0.45769(14)
C8_16 C 0.2568(4) 0.8839(3) 0.42508(14)
H4_16 H 0.2066 0.8745 0.4257
C10_16 C 0.4044(3) 0.9326(4) 0.41365(13)
H6_16 H 0.4513 0.9497 0.4090
C11_16 C 0.2886(3) 0.9432(3) 0.43957(15)
C12_16 C 0.3109(3) 0.8349(4) 0.40793(15)
H7_16 H 0.2983 0.7868 0.4031
C13_16 C 0.1112(5) 0.9540(4) 0.48422(14)
H8_16 H 0.0848 0.9834 0.4707
C14_16 C 0.3605(3) 0.9697(4) 0.43239(13)
C15_16 C 0.1942(4) 0.9483(3) 0.48132(12)
C16_16 C 0.1807(5) 0.8439(4) 0.51554(16)
H10_16 H 0.2027 0.8038 0.5249
C17_16 C 0.2210(5) 0.8851(5) 0.4957(2)
H11_16 H 0.2689 0.8704 0.4914
loop_
_geom_bond_atom_site_label_1
_geom_bond_atom_site_label_2
_geom_bond_site_symmetry_1
_geom_bond_site_symmetry_2
O1 C2 1_555 1_555
O2 C1 1_555 1_555
O3 C1 1_555 1_555
O4 C2 1_555 1_555
N1 C3 1_555 1_555
N2 C3 1_555 1_555
C1 C6 1_555 1_555
C2 C5 1_555 1_555
C3 H1 1_555 1_555
C4 H2 1_555 1_555
C5 C10 1_555 1_555
C6 C4 1_555 1_555
N3 N1 1_555 1_555
C7 N1 1_555 1_555
H3 C7 1_555 1_555
C8 H4 1_555 1_555
C9 N2 1_555 1_555
H5 C9 1_555 1_555
C10 H6 1_555 1_555
C11 C7 1_555 1_555
C12 C5 1_555 1_555
H7 C12 1_555 1_555
C13 C4 1_555 1_555
H8 C13 1_555 1_555
C14 C10 1_555 1_555
H9 C14 1_555 1_555
C15 C7 1_555 1_555
C16 C6 1_555 1_555
H10 C16 1_555 1_555
C17 C15 1_555 1_555
H11 C17 1_555 1_555
Cu2 O4 1_555 1_555
Cu5 N2 1_555 1_555
O3 Cu3 1_555 1_555
N3 C9 1_555 1_555
C8 C11 1_555 1_555
C8 C12 1_555 1_555
C11 C14 1_555 1_555
C13 C15 1_555 1_555
C16 C17 1_555 1_555
O5 Cu1 1_555 1_555
O6 Cu1 1_555 1_555
N4 Cu1 1_555 1_555
Cu1_2 O2_2 1_555 1_555
O1_2 C2_2 1_555 1_555
O2_2 C1_2 1_555 1_555
O3_2 C1_2 1_555 1_555
O4_2 C2_2 1_555 1_555
N1_2 C3_2 1_555 1_555
N2_2 C3_2 1_555 1_555
C1_2 C6_2 1_555 1_555
C2_2 C5_2 1_555 1_555
C3_2 H1_2 1_555 1_555
C4_2 H2_2 1_555 1_555
C5_2 C10_2 1_555 1_555
C6_2 C4_2 1_555 1_555
N3_2 N1_2 1_555 1_555
C7_2 N1_2 1_555 1_555
H3_2 C7_2 1_555 1_555
C8_2 H4_2 1_555 1_555
C9_2 N2_2 1_555 1_555
H5_2 C9_2 1_555 1_555
C10_2 H6_2 1_555 1_555
C11_2 C7_2 1_555 1_555
C12_2 C5_2 1_555 1_555
H7_2 C12_2 1_555 1_555
C13_2 C4_2 1_555 1_555
H8_2 C13_2 1_555 1_555
C14_2 C10_2 1_555 1_555
H9_2 C14_2 1_555 1_555
C15_2 C7_2 1_555 1_555
C16_2 C6_2 1_555 1_555
H10_2 C16_2 1_555 1_555
C17_2 C15_2 1_555 1_555
H11_2 C17_2 1_555 1_555
Cu2_2 O4_2 1_555 1_555
Cu3_2 Cu1_2 1_555 1_555
Cu4_2 O1_2 1_555 1_555
Cu5_2 N2_2 1_555 1_555
O5_2 Cu1_2 1_555 1_555
O6_2 Cu1_2 1_555 1_555
O7_2 Cu1_2 1_555 1_555
N4_2 Cu1_2 1_555 1_555
O3_2 Cu3_2 1_555 1_555
N3_2 C9_2 1_555 1_555
C8_2 C11_2 1_555 1_555
C8_2 C12_2 1_555 1_555
C11_2 C14_2 1_555 1_555
C13_2 C15_2 1_555 1_555
C16_2 C17_2 1_555 1_555
Cu2_2 Cu4_2 1_555 1_555
Cu2 O2_3 1_555 1_555
O1_3 C2_3 1_555 1_555
O2_3 C1_3 1_555 1_555
O3_3 C1_3 1_555 1_555
O7_2 C2_3 1_555 1_555
N1_3 C3_3 1_555 1_555
N2_3 C3_3 1_555 1_555
C1_3 C6_3 1_555 1_555
C2_3 C5_3 1_555 1_555
C3_3 H1_3 1_555 1_555
C4_3 H2_3 1_555 1_555
C5_3 C10_3 1_555 1_555
C6_3 C4_3 1_555 1_555
N3_3 N1_3 1_555 1_555
C7_3 N1_3 1_555 1_555
H3_3 C7_3 1_555 1_555
C8_3 H4_3 1_555 1_555
C9_3 N2_3 1_555 1_555
H5_3 C9_3 1_555 1_555
C10_3 H6_3 1_555 1_555
C11_3 C7_3 1_555 1_555
C12_3 C5_3 1_555 1_555
H7_3 C12_3 1_555 1_555
C13_3 C4_3 1_555 1_555
H8_3 C13_3 1_555 1_555
C14_3 C10_3 1_555 1_555
H9_3 C14_3 1_555 1_555
C15_3 C7_3 1_555 1_555
C16_3 C6_3 1_555 1_555
H10_3 C16_3 1_555 1_555
C17_3 C15_3 1_555 1_555
H11_3 C17_3 1_555 1_555
Cu3_2 O1_3 1_555 1_555
Cu5_3 N2_3 1_555 1_555
N4_3 Cu2 1_555 1_555
N3_3 C9_3 1_555 1_555
C8_3 C11_3 1_555 1_555
C8_3 C12_3 1_555 1_555
C11_3 C14_3 1_555 1_555
C13_3 C15_3 1_555 1_555
C16_3 C17_3 1_555 1_555
O1_4 C2_4 1_555 1_555
O7 C2_4 1_555 1_555
N1_4 C3_4 1_555 1_555
N2_4 C3_4 1_555 1_555
C2_4 C5_4 1_555 1_555
C3_4 H1_4 1_555 1_555
C5_4 C10_4 1_555 1_555
N3_4 N1_4 1_555 1_555
C7_4 N1_4 1_555 1_555
H3_4 C7_4 1_555 1_555
C8_4 H4_4 1_555 1_555
C9_4 N2_4 1_555 1_555
H5_4 C9_4 1_555 1_555
C10_4 H6_4 1_555 1_555
C11_4 C7_4 1_555 1_555
C12_4 C5_4 1_555 1_555
H7_4 C12_4 1_555 1_555
H8_4 C13_4 1_555 1_555
C14_4 C10_4 1_555 1_555
H9_4 C14_4 1_555 1_555
C15_4 C7_4 1_555 1_555
C17_4 C15_4 1_555 1_555
H11_4 C17_4 1_555 1_555
Cu3 O1_4 1_555 1_555
Cu5_4 N2_4 1_555 1_555
N3_4 C9_4 1_555 1_555
C8_4 C11_4 1_555 1_555
C8_4 C12_4 1_555 1_555
C11_4 C14_4 1_555 1_555
C13_4 C15_4 1_555 1_555
Cu2_2 O2_4 1_555 1_555
O2_4 C1_4 1_555 1_555
O3_4 C1_4 1_555 1_555
C1_4 C6_4 1_555 1_555
C4_4 H2_4 1_555 1_555
C6_4 C4_4 1_555 1_555
C16_4 C6_4 1_555 1_555
H10_4 C16_4 1_555 1_555
O5_4 Cu2_2 1_555 1_555
O6_4 Cu2_2 1_555 1_555
N4_4 Cu2_2 1_555 1_555
O3_4 Cu4_2 1_555 1_555
Cu3_2 O2_5 1_555 1_555
O2_5 C1_5 1_555 1_555
O6_2 C1_5 1_555 1_555
N1_5 C3_5 1_555 1_555
N2_5 C3_5 1_555 1_555
C1_5 C6_5 1_555 1_555
C3_5 H1_5 1_555 1_555
C4_5 H2_5 1_555 1_555
C6_5 C4_5 1_555 1_555
N3_5 N1_5 1_555 1_555
C7_5 N1_5 1_555 1_555
C9_5 N2_5 1_555 1_555
H5_5 C9_5 1_555 1_555
C13_5 C4_5 1_555 1_555
H8_5 C13_5 1_555 1_555
C15_5 C7_5 1_555 1_555
C16_5 C6_5 1_555 1_555
H10_5 C16_5 1_555 1_555
C17_5 C15_5 1_555 1_555
Cu5_5 N2_5 1_555 1_555
O7_3 Cu3_2 1_555 1_555
N4_5 Cu3_2 1_555 1_555
N3_5 C9_5 1_555 1_555
C13_5 C15_5 1_555 1_555
C16_5 C17_5 1_555 1_555
O5_4 C2_5 1_555 1_555
O4_3 C2_5 1_555 1_555
C2_5 C5_5 1_555 1_555
C5_5 C10_5 1_555 1_555
C10_5 H6_5 1_555 1_555
C12_5 C5_5 1_555 1_555
H7_5 C12_5 1_555 1_555
C14_5 C10_5 1_555 1_555
H9_5 C14_5 1_555 1_555
Cu4_2 O4_3 1_555 1_555
C8_5 C11_5 1_555 1_555
C8_5 C12_5 1_555 1_555
C11_5 C14_5 1_555 1_555
N4_6 Cu3 1_555 1_555
O5_3 C2_6 1_555 1_555
O4_4 C2_6 1_555 1_555
C2_6 C5_6 1_555 1_555
C5_6 C10_6 1_555 1_555
C10_6 H6_6 1_555 1_555
C12_6 C5_6 1_555 1_555
H7_6 C12_6 1_555 1_555
C14_6 C10_6 1_555 1_555
H9_6 C14_6 1_555 1_555
Cu4 O4_4 1_555 1_555
C8_6 C11_6 1_555 1_555
C8_6 C12_6 1_555 1_555
C11_6 C14_6 1_555 1_555
O2_6 C1_6 1_555 1_555
O6 C1_6 1_555 1_555
N1_6 C3_6 1_555 1_555
N2_6 C3_6 1_555 1_555
C1_6 C6_6 1_555 1_555
C3_6 H1_6 1_555 1_555
C4_6 H2_6 1_555 1_555
C6_6 C4_6 1_555 1_555
N3_6 N1_6 1_555 1_555
C7_6 N1_6 1_555 1_555
C9_6 N2_6 1_555 1_555
H5_6 C9_6 1_555 1_555
C13_6 C4_6 1_555 1_555
H8_6 C13_6 1_555 1_555
C15_6 C7_6 1_555 1_555
C16_6 C6_6 1_555 1_555
H10_6 C16_6 1_555 1_555
C17_6 C15_6 1_555 1_555
Cu5_6 N2_6 1_555 1_555
N3_6 C9_6 1_555 1_555
C13_6 C15_6 1_555 1_555
C16_6 C17_6 1_555 1_555
N1_7 C3_7 1_555 1_555
N2_7 C3_7 1_555 1_555
C3_7 H1_7 1_555 1_555
C9_7 N2_7 1_555 1_555
H5_7 C9_7 1_555 1_555
Cu5_7 N2_7 1_555 1_555
O5 C2_7 1_555 1_555
O7_4 C2_7 1_555 1_555
C2_7 C5_7 1_555 1_555
C5_7 C10_7 1_555 1_555
C8_7 H4_7 1_555 1_555
C10_7 H6_7 1_555 1_555
C11_7 C7_7 1_555 1_555
C12_7 C5_7 1_555 1_555
H7_7 C12_7 1_555 1_555
H8_7 C13_7 1_555 1_555
C14_7 C10_7 1_555 1_555
C15_7 C7_7 1_555 1_555
C17_7 C15_7 1_555 1_555
H11_7 C17_7 1_555 1_555
C8_7 C11_7 1_555 1_555
C8_7 C12_7 1_555 1_555
C11_7 C14_7 1_555 1_555
C13_7 C15_7 1_555 1_555
Cu4_2 O2_7 1_555 1_555
O2_7 C1_7 1_555 1_555
O6_4 C1_7 1_555 1_555
C1_7 C6_7 1_555 1_555
C4_7 H2_7 1_555 1_555
C6_7 C4_7 1_555 1_555
C16_7 C6_7 1_555 1_555
H10_7 C16_7 1_555 1_555
N4_7 Cu4_2 1_555 1_555
Cu4 O2_8 1_555 1_555
O5_2 C2_8 1_555 1_555
O2_8 C1_8 1_555 1_555
O6_3 C1_8 1_555 1_555
O7_3 C2_8 1_555 1_555
C1_8 C6_8 1_555 1_555
C2_8 C5_8 1_555 1_555
C4_8 H2_8 1_555 1_555
C5_8 C10_8 1_555 1_555
C6_8 C4_8 1_555 1_555
C8_8 H4_8 1_555 1_555
C10_8 H6_8 1_555 1_555
C11_8 C7_8 1_555 1_555
C12_8 C5_8 1_555 1_555
H7_8 C12_8 1_555 1_555
C13_8 C4_8 1_555 1_555
H8_8 C13_8 1_555 1_555
C14_8 C10_8 1_555 1_555
C15_8 C7_8 1_555 1_555
C16_8 C6_8 1_555 1_555
H10_8 C16_8 1_555 1_555
C17_8 C15_8 1_555 1_555
H11_8 C17_8 1_555 1_555
N4_8 Cu4 1_555 1_555
C8_8 C11_8 1_555 1_555
C8_8 C12_8 1_555 1_555
C11_8 C14_8 1_555 1_555
C13_8 C15_8 1_555 1_555
C16_8 C17_8 1_555 1_555
N1_8 C3_8 1_555 1_555
N2_8 C3_8 1_555 1_555
C3_8 H1_8 1_555 1_555
C9_8 N2_8 1_555 1_555
H5_8 C9_8 1_555 1_555
Cu5_8 N2_8 1_555 1_555
O5_5 Cu5_2 1_555 1_555
O6_5 Cu5_2 1_555 1_555
O1_5 C2_9 1_555 1_555
O2_9 C1_9 1_555 1_555
O3_5 C1_9 1_555 1_555
O4_5 C2_9 1_555 1_555
N1_9 C3_9 1_555 1_555
N4_2 C3_9 1_555 1_555
C1_9 C6_9 1_555 1_555
C2_9 C5_9 1_555 1_555
C3_9 H1_9 1_555 1_555
C4_9 H2_9 1_555 1_555
C5_9 C10_9 1_555 1_555
C6_9 C4_9 1_555 1_555
N3_9 N1_9 1_555 1_555
C7_9 N1_9 1_555 1_555
H3_9 C7_9 1_555 1_555
C8_9 H4_9 1_555 1_555
C9_9 N4_2 1_555 1_555
H5_9 C9_9 1_555 1_555
C10_9 H6_9 1_555 1_555
C11_9 C7_9 1_555 1_555
C12_9 C5_9 1_555 1_555
H7_9 C12_9 1_555 1_555
C13_9 C4_9 1_555 1_555
H8_9 C13_9 1_555 1_555
C14_9 C10_9 1_555 1_555
H9_9 C14_9 1_555 1_555
C15_9 C7_9 1_555 1_555
C16_9 C6_9 1_555 1_555
H10_9 C16_9 1_555 1_555
C17_9 C15_9 1_555 1_555
H11_9 C17_9 1_555 1_555
Cu5_8 O4_5 1_555 1_555
O3_5 Cu5_5 1_555 1_555
N3_9 C9_9 1_555 1_555
C8_9 C11_9 1_555 1_555
C8_9 C12_9 1_555 1_555
C11_9 C14_9 1_555 1_555
C13_9 C15_9 1_555 1_555
C16_9 C17_9 1_555 1_555
Cu5 O2_10 1_555 1_555
O1_6 C2_10 1_555 1_555
O2_10 C1_10 1_555 1_555
O3_6 C1_10 1_555 1_555
O4_6 C2_10 1_555 1_555
N1_10 C3_10 1_555 1_555
N4 C3_10 1_555 1_555
C1_10 C6_10 1_555 1_555
C2_10 C5_10 1_555 1_555
C3_10 H1_10 1_555 1_555
C4_10 H2_10 1_555 1_555
C5_10 C10_10 1_555 1_555
C6_10 C4_10 1_555 1_555
N3_10 N1_10 1_555 1_555
C7_10 N1_10 1_555 1_555
H3_10 C7_10 1_555 1_555
C8_10 H4_10 1_555 1_555
C9_10 N4 1_555 1_555
H5_10 C9_10 1_555 1_555
C10_10 H6_10 1_555 1_555
C11_10 C7_10 1_555 1_555
C12_10 C5_10 1_555 1_555
H7_10 C12_10 1_555 1_555
C13_10 C4_10 1_555 1_555
H8_10 C13_10 1_555 1_555
C14_10 C10_10 1_555 1_555
H9_10 C14_10 1_555 1_555
C15_10 C7_10 1_555 1_555
C16_10 C6_10 1_555 1_555
H10_10 C16_10 1_555 1_555
C17_10 C15_10 1_555 1_555
H11_10 C17_10 1_555 1_555
Cu5_7 O4_6 1_555 1_555
Cu5_6 Cu5 1_555 1_555
Cu5_4 O1_6 1_555 1_555
O5_6 Cu5 1_555 1_555
O6_6 Cu5 1_555 1_555
O7_6 Cu5 1_555 1_555
O3_6 Cu5_6 1_555 1_555
N3_10 C9_10 1_555 1_555
C8_10 C11_10 1_555 1_555
C8_10 C12_10 1_555 1_555
C11_10 C14_10 1_555 1_555
C13_10 C15_10 1_555 1_555
C16_10 C17_10 1_555 1_555
Cu5_7 Cu5_4 1_555 1_555
Cu5_8 O2_11 1_555 1_555
O1_7 C2_11 1_555 1_555
O2_11 C1_11 1_555 1_555
O3_7 C1_11 1_555 1_555
O7_6 C2_11 1_555 1_555
N1_11 C3_11 1_555 1_555
N4_8 C3_11 1_555 1_555
C1_11 C6_11 1_555 1_555
C2_11 C5_11 1_555 1_555
C3_11 H1_11 1_555 1_555
C4_11 H2_11 1_555 1_555
C5_11 C10_11 1_555 1_555
C6_11 C4_11 1_555 1_555
N3_11 N1_11 1_555 1_555
C7_11 N1_11 1_555 1_555
H3_11 C7_11 1_555 1_555
C8_11 H4_11 1_555 1_555
C9_11 N4_8 1_555 1_555
H5_11 C9_11 1_555 1_555
C10_11 H6_11 1_555 1_555
C11_11 C7_11 1_555 1_555
C12_11 C5_11 1_555 1_555
H7_11 C12_11 1_555 1_555
C13_11 C4_11 1_555 1_555
H8_11 C13_11 1_555 1_555
C14_11 C10_11 1_555 1_555
H9_11 C14_11 1_555 1_555
C15_11 C7_11 1_555 1_555
C16_11 C6_11 1_555 1_555
H10_11 C16_11 1_555 1_555
C17_11 C15_11 1_555 1_555
H11_11 C17_11 1_555 1_555
Cu5_6 O1_7 1_555 1_555
N3_11 C9_11 1_555 1_555
C8_11 C11_11 1_555 1_555
C8_11 C12_11 1_555 1_555
C11_11 C14_11 1_555 1_555
C13_11 C15_11 1_555 1_555
C16_11 C17_11 1_555 1_555
Cu5_7 O2_12 1_555 1_555
O2_12 C1_12 1_555 1_555
O3_8 C1_12 1_555 1_555
C1_12 C6_12 1_555 1_555
C4_12 H2_12 1_555 1_555
C6_12 C4_12 1_555 1_555
C16_12 C6_12 1_555 1_555
H10_12 C16_12 1_555 1_555
O5_8 Cu5_7 1_555 1_555
O6_8 Cu5_7 1_555 1_555
O3_8 Cu5_4 1_555 1_555
O1_8 C2_12 1_555 1_555
O7_5 C2_12 1_555 1_555
N1_12 C3_12 1_555 1_555
N4_7 C3_12 1_555 1_555
C2_12 C5_12 1_555 1_555
C3_12 H1_12 1_555 1_555
C5_12 C10_12 1_555 1_555
N3_12 N1_12 1_555 1_555
C7_12 N1_12 1_555 1_555
H3_12 C7_12 1_555 1_555
C8_12 H4_12 1_555 1_555
C9_12 N4_7 1_555 1_555
H5_12 C9_12 1_555 1_555
C10_12 H6_12 1_555 1_555
C11_12 C7_12 1_555 1_555
C12_12 C5_12 1_555 1_555
H7_12 C12_12 1_555 1_555
H8_12 C13_12 1_555 1_555
C14_12 C10_12 1_555 1_555
H9_12 C14_12 1_555 1_555
C15_12 C7_12 1_555 1_555
C17_12 C15_12 1_555 1_555
H11_12 C17_12 1_555 1_555
Cu5_5 O1_8 1_555 1_555
N3_12 C9_12 1_555 1_555
C8_12 C11_12 1_555 1_555
C8_12 C12_12 1_555 1_555
C11_12 C14_12 1_555 1_555
C13_12 C15_12 1_555 1_555
O5_8 C2_13 1_555 1_555
O4_7 C2_13 1_555 1_555
C2_13 C5_13 1_555 1_555
C5_13 C10_13 1_555 1_555
C10_13 H6_13 1_555 1_555
C12_13 C5_13 1_555 1_555
H7_13 C12_13 1_555 1_555
C14_13 C10_13 1_555 1_555
H9_13 C14_13 1_555 1_555
Cu5_4 O4_7 1_555 1_555
C8_13 C11_13 1_555 1_555
C8_13 C12_13 1_555 1_555
C11_13 C14_13 1_555 1_555
Cu5_6 O2_13 1_555 1_555
O2_13 C1_13 1_555 1_555
O6_6 C1_13 1_555 1_555
N1_13 C3_13 1_555 1_555
N4_6 C3_13 1_555 1_555
C1_13 C6_13 1_555 1_555
C3_13 H1_13 1_555 1_555
C4_13 H2_13 1_555 1_555
C6_13 C4_13 1_555 1_555
N3_13 N1_13 1_555 1_555
C7_13 N1_13 1_555 1_555
C9_13 N4_6 1_555 1_555
H5_13 C9_13 1_555 1_555
C13_13 C4_13 1_555 1_555
H8_13 C13_13 1_555 1_555
C15_13 C7_13 1_555 1_555
C16_13 C6_13 1_555 1_555
H10_13 C16_13 1_555 1_555
C17_13 C15_13 1_555 1_555
O7_7 Cu5_6 1_555 1_555
N3_13 C9_13 1_555 1_555
C13_13 C15_13 1_555 1_555
C16_13 C17_13 1_555 1_555
O2_14 C1_14 1_555 1_555
O6_5 C1_14 1_555 1_555
N1_14 C3_14 1_555 1_555
N4_5 C3_14 1_555 1_555
C1_14 C6_14 1_555 1_555
C3_14 H1_14 1_555 1_555
C4_14 H2_14 1_555 1_555
C6_14 C4_14 1_555 1_555
N3_14 N1_14 1_555 1_555
C7_14 N1_14 1_555 1_555
C9_14 N4_5 1_555 1_555
H5_14 C9_14 1_555 1_555
C13_14 C4_14 1_555 1_555
H8_14 C13_14 1_555 1_555
C15_14 C7_14 1_555 1_555
C16_14 C6_14 1_555 1_555
H10_14 C16_14 1_555 1_555
C17_14 C15_14 1_555 1_555
N3_14 C9_14 1_555 1_555
C13_14 C15_14 1_555 1_555
C16_14 C17_14 1_555 1_555
O5_7 C2_14 1_555 1_555
O4_8 C2_14 1_555 1_555
C2_14 C5_14 1_555 1_555
C5_14 C10_14 1_555 1_555
C10_14 H6_14 1_555 1_555
C12_14 C5_14 1_555 1_555
H7_14 C12_14 1_555 1_555
C14_14 C10_14 1_555 1_555
H9_14 C14_14 1_555 1_555
Cu5_3 O4_8 1_555 1_555
C8_14 C11_14 1_555 1_555
C8_14 C12_14 1_555 1_555
C11_14 C14_14 1_555 1_555
Cu5_4 O2_15 1_555 1_555
O2_15 C1_15 1_555 1_555
O6_8 C1_15 1_555 1_555
C1_15 C6_15 1_555 1_555
C4_15 H2_15 1_555 1_555
C6_15 C4_15 1_555 1_555
C16_15 C6_15 1_555 1_555
H10_15 C16_15 1_555 1_555
O5_5 C2_15 1_555 1_555
O7_8 C2_15 1_555 1_555
C2_15 C5_15 1_555 1_555
C5_15 C10_15 1_555 1_555
C8_15 H4_15 1_555 1_555
C10_15 H6_15 1_555 1_555
C11_15 C7_15 1_555 1_555
C12_15 C5_15 1_555 1_555
H7_15 C12_15 1_555 1_555
H8_15 C13_15 1_555 1_555
C14_15 C10_15 1_555 1_555
C15_15 C7_15 1_555 1_555
C17_15 C15_15 1_555 1_555
H11_15 C17_15 1_555 1_555
C8_15 C11_15 1_555 1_555
C8_15 C12_15 1_555 1_555
C11_15 C14_15 1_555 1_555
C13_15 C15_15 1_555 1_555
N1_15 C3_15 1_555 1_555
N4_4 C3_15 1_555 1_555
C3_15 H1_15 1_555 1_555
C9_15 N4_4 1_555 1_555
H5_15 C9_15 1_555 1_555
N1_16 C3_16 1_555 1_555
N4_3 C3_16 1_555 1_555
C3_16 H1_16 1_555 1_555
C9_16 N4_3 1_555 1_555
H5_16 C9_16 1_555 1_555
Cu5_3 O2_16 1_555 1_555
O5_6 C2_16 1_555 1_555
O2_16 C1_16 1_555 1_555
O6_7 C1_16 1_555 1_555
O7_7 C2_16 1_555 1_555
C1_16 C6_16 1_555 1_555
C2_16 C5_16 1_555 1_555
C4_16 H2_16 1_555 1_555
C5_16 C10_16 1_555 1_555
C6_16 C4_16 1_555 1_555
C8_16 H4_16 1_555 1_555
C10_16 H6_16 1_555 1_555
C11_16 C7_16 1_555 1_555
C12_16 C5_16 1_555 1_555
H7_16 C12_16 1_555 1_555
C13_16 C4_16 1_555 1_555
H8_16 C13_16 1_555 1_555
C14_16 C10_16 1_555 1_555
C15_16 C7_16 1_555 1_555
C16_16 C6_16 1_555 1_555
H10_16 C16_16 1_555 1_555
C17_16 C15_16 1_555 1_555
H11_16 C17_16 1_555 1_555
C8_16 C11_16 1_555 1_555
C8_16 C12_16 1_555 1_555
C11_16 C14_16 1_555 1_555
C13_16 C15_16 1_555 1_555
C16_16 C17_16 1_555 1_555

#END
