
###############################################################################
#
# This file contains modified crystal structure data generated from the
# MOF subset of the Cambridge Structural Database (CSD) v543 
# hosted by the Cambridge Crystallographic Data Centre (CCDC).
#
# This work is licensed under the Creative Commons
# Attribution-NonCommercial-ShareAlike 4.0 International License.
# To view a copy of this license, visit
# http://creativecommons.org/licenses/by-nc-sa/4.0/
# or send a letter to
# Creative Commons, PO Box 1866, Mountain View, CA 94042, USA.
#
# CIF created using the CSD Python API on 29 September 2022
# The structure has been converted into the P1 space group
# The structure has a 3D framework
# The original CSD entry GILGAM is in the rhombohedral crystal system
# The framework has been calculated to contain at least 10.0% void space
# The void calculation uses a probe of radius 1.32A, grid spacing 0.4
#
###############################################################################

data_GILGAM
_chemical_formula_moiety         '(C288 H180 Cu14 N72 O66)n'
_symmetry_cell_setting           triclinic
_symmetry_space_group_name_H-M   'P 1'
_symmetry_Int_Tables_number      1
_space_group_name_Hall           'P 1'
loop_
_symmetry_equiv_pos_site_id
_symmetry_equiv_pos_as_xyz
1 x,y,z
_cell_length_a                   41.839(6)
_cell_length_b                   41.839(6)
_cell_length_c                   11.844(2)
_cell_angle_alpha                90
_cell_angle_beta                 90
_cell_angle_gamma                120
_cell_volume                     17955.3
loop_
_atom_site_label
_atom_site_type_symbol
_atom_site_fract_x
_atom_site_fract_y
_atom_site_fract_z
Cu4 Cu 0.50236(2) 0.52787(2) 0.05885(4)
O5 O 0.48935(11) 0.44769(9) 0.0868(2)
Cu1 Cu 0.49764(2) 0.47213(2) 0.94115(4)
O1 O 0.51065(11) 0.55231(9) 0.9132(2)
O2 O 0.6561(2) 0.77739(13) 0.4013(4)
O3 O 0.50394(14) 0.50489(10) 0.8125(3)
O4 O 0.61562(19) 0.78326(12) 0.3060(4)
N1 N 0.49925(16) 0.56674(12) 0.1690(3)
N2 N 0.5029(3) 0.59397(16) 0.3250(4)
C1 C 0.50868(16) 0.53573(13) 0.8237(3)
C2 C 0.5215(2) 0.58478(14) 0.2473(4)
H1 H 0.5461 0.5908 0.2518
N3 N 0.4638(2) 0.5621(2) 0.1942(6)
C3 C 0.5127(2) 0.55757(13) 0.7159(4)
C4 C 0.5810(3) 0.66789(18) 0.4606(6)
H2 H 0.5853 0.6535 0.5114
N4 N 0.5180(2) 0.61468(15) 0.4246(4)
C5 C 0.5209(3) 0.61119(18) 0.6214(4)
H3 H 0.5223 0.6341 0.6249
C6 C 0.6080(3) 0.70428(19) 0.4472(5)
H4 H 0.6310 0.7142 0.4822
C7 C 0.5200(3) 0.59194(16) 0.7215(4)
H5 H 0.5247 0.6037 0.7911
C8 C 0.5983(3) 0.72553(17) 0.3759(4)
C9 C 0.5087(3) 0.53970(16) 0.6139(5)
H6 H 0.5057 0.5162 0.6101
C10 C 0.5504(5) 0.6528(2) 0.4070(5)
C11 C 0.5641(4) 0.7097(2) 0.3237(6)
H7 H 0.5583 0.7244 0.2795
C12 C 0.5195(4) 0.59514(18) 0.5215(5)
C13 C 0.4687(4) 0.5803(4) 0.2924(14)
H8 H 0.4507 0.5827 0.3307
C14 C 0.5393(4) 0.6737(2) 0.3349(6)
H9 H 0.5164 0.6629 0.2989
C15 C 0.5094(4) 0.55929(17) 0.5163(5)
H10 H 0.5029 0.5472 0.4471
C16 C 0.6239(2) 0.76471(18) 0.3562(5)
Cu2 Cu 0.64116(3) 0.83569(2) 0.27448(4)
Cu5 Cu 0.69218(3) 0.83097(2) 0.39218(4)
O6 O 0.44406(13) 0.45462(24) 0.9320(4)
O7 O 0.55007(12) 0.49903(22) 0.9727(4)
N5 N 0.50075(16) 0.43326(12) 0.8310(3)
O5_2 O 0.55231(9) 0.04166(14) 0.0868(2)
Cu1_2 Cu 0.52787(2) 0.02551(3) 0.94115(4)
O7_2 O 0.50097(22) 0.05105(25) 0.9727(4)
N5_2 N 0.56674(12) 0.06749(20) 0.8310(3)
Cu4_2 Cu 0.47213(2) 0.97449(3) 0.05885(4)
O1_2 O 0.44769(9) 0.95834(14) 0.9132(2)
O2_2 O 0.22261(13) 0.87871(24) 0.4013(4)
O3_2 O 0.49511(10) 0.99905(17) 0.8125(3)
O4_2 O 0.21674(12) 0.83236(22) 0.3060(4)
N1_2 N 0.43326(12) 0.93251(20) 0.1690(3)
N2_2 N 0.40603(16) 0.90893(34) 0.3250(4)
C1_2 C 0.46427(13) 0.97295(21) 0.8237(3)
C2_2 C 0.41522(14) 0.93672(24) 0.2473(4)
H1_2 H 0.4092 0.9553 0.2518
N3_2 N 0.4379(2) 0.9017(3) 0.1942(6)
C3_2 C 0.44243(13) 0.95513(24) 0.7159(4)
C4_2 C 0.33211(18) 0.91311(35) 0.4606(6)
H2_2 H 0.3465 0.9318 0.5114
N4_2 N 0.38532(15) 0.90332(25) 0.4246(4)
C5_2 C 0.38881(18) 0.90971(35) 0.6214(4)
H3_2 H 0.3659 0.8882 0.6249
C6_2 C 0.29572(19) 0.90372(36) 0.4472(5)
H4_2 H 0.2858 0.9168 0.4822
C7_2 C 0.40806(16) 0.92806(34) 0.7215(4)
H5_2 H 0.3963 0.9210 0.7911
C8_2 C 0.27447(17) 0.87277(34) 0.3759(4)
C9_2 C 0.46030(16) 0.96900(34) 0.6139(5)
H6_2 H 0.4838 0.9895 0.6101
C10_2 C 0.3472(2) 0.8976(5) 0.4070(5)
C11_2 C 0.2903(2) 0.8544(4) 0.3237(6)
H7_2 H 0.2756 0.8339 0.2795
C12_2 C 0.40486(18) 0.92436(44) 0.5215(5)
C13_2 C 0.4197(4) 0.8884(6) 0.2924(14)
H8_2 H 0.4173 0.8680 0.3307
C14_2 C 0.3263(2) 0.8656(4) 0.3349(6)
H9_2 H 0.3371 0.8535 0.2989
C15_2 C 0.44071(17) 0.95011(43) 0.5163(5)
H10_2 H 0.4528 0.9557 0.4471
C16_2 C 0.23529(18) 0.85919(27) 0.3562(5)
Cu2_2 Cu 0.16431(2) 0.80546(4) 0.27448(4)
Cu5_2 Cu 0.16903(2) 0.86120(4) 0.39218(4)
O6_2 O 0.54538(24) 0.98943(27) 0.9320(4)
Cu4_3 Cu 0.02551(3) 0.49764(2) 0.05885(4)
O1_3 O 0.04166(14) 0.48935(11) 0.9132(2)
O2_3 O 0.12129(24) 0.3439(2) 0.4013(4)
O3_3 O 0.00095(17) 0.49606(14) 0.8125(3)
O4_3 O 0.16764(22) 0.38438(19) 0.3060(4)
N1_3 N 0.06749(20) 0.50075(16) 0.1690(3)
N2_3 N 0.09107(34) 0.4971(3) 0.3250(4)
C1_3 C 0.02705(21) 0.49132(16) 0.8237(3)
C2_3 C 0.06328(24) 0.4785(2) 0.2473(4)
H1_3 H 0.0447 0.4539 0.2518
N3_3 N 0.0983(3) 0.5362(2) 0.1942(6)
C3_3 C 0.04487(24) 0.4873(2) 0.7159(4)
C4_3 C 0.08689(35) 0.4190(3) 0.4606(6)
H2_3 H 0.0682 0.4147 0.5114
N4_3 N 0.09668(25) 0.4820(2) 0.4246(4)
C5_3 C 0.09029(35) 0.4791(3) 0.6214(4)
H3_3 H 0.1118 0.4777 0.6249
C6_3 C 0.09628(36) 0.3920(3) 0.4472(5)
H4_3 H 0.0832 0.3690 0.4822
C7_3 C 0.07194(34) 0.4800(3) 0.7215(4)
H5_3 H 0.0790 0.4753 0.7911
C8_3 C 0.12723(34) 0.4017(3) 0.3759(4)
C9_3 C 0.03100(34) 0.4913(3) 0.6139(5)
H6_3 H 0.0105 0.4943 0.6101
C10_3 C 0.1024(5) 0.4496(5) 0.4070(5)
C11_3 C 0.1456(4) 0.4359(4) 0.3237(6)
H7_3 H 0.1661 0.4417 0.2795
C12_3 C 0.07564(44) 0.4805(4) 0.5215(5)
C13_3 C 0.1116(6) 0.5313(4) 0.2924(14)
H8_3 H 0.1320 0.5493 0.3307
C14_3 C 0.1344(4) 0.4607(4) 0.3349(6)
H9_3 H 0.1465 0.4836 0.2989
C15_3 C 0.04989(43) 0.4906(4) 0.5163(5)
H10_3 H 0.0443 0.4971 0.4471
C16_3 C 0.14081(27) 0.3761(2) 0.3562(5)
Cu2_3 Cu 0.19454(4) 0.35884(3) 0.27448(4)
Cu5_3 Cu 0.13880(4) 0.30782(3) 0.39218(4)
O6_3 O 0.01057(27) 0.55594(13) 0.9320(4)
O5_3 O 0.95834(14) 0.51065(11) 0.0868(2)
Cu1_3 Cu 0.97449(3) 0.50236(2) 0.94115(4)
O7_3 O 0.94895(25) 0.44993(12) 0.9727(4)
N5_3 N 0.93251(20) 0.49925(16) 0.8310(3)
O2_4 O 0.3228(2) 0.11072(13) 0.7346(4)
O4_4 O 0.28229(19) 0.11659(12) 0.6393(4)
C4_4 C 0.2477(3) 0.00122(18) 0.7939(6)
C6_4 C 0.2747(3) 0.03761(19) 0.7805(5)
H4_4 H 0.2977 0.0475 0.8155
C8_4 C 0.2650(3) 0.05886(17) 0.7092(4)
C11_4 C 0.2308(4) 0.0430(2) 0.6570(6)
H7_4 H 0.2250 0.0577 0.6128
C14_4 C 0.2060(4) 0.0070(2) 0.6682(6)
C16_4 C 0.2906(2) 0.09804(18) 0.6895(5)
Cu2_4 Cu 0.30782(3) 0.16903(2) 0.60782(4)
Cu5_4 Cu 0.35884(3) 0.16431(2) 0.72552(4)
O1_4 O 0.17732(11) 0.88564(9) 0.2465(2)
O3_4 O 0.17061(14) 0.83822(10) 0.1458(3)
C1_4 C 0.17535(16) 0.86906(13) 0.1570(3)
C3_4 C 0.1794(2) 0.89090(13) 0.0492(4)
C7_4 C 0.1867(3) 0.92527(16) 0.0548(4)
H5_4 H 0.1914 0.9370 0.1244
O5_4 O 0.15602(11) 0.78102(9) 0.4201(2)
O6_4 O 0.11072(13) 0.78796(24) 0.2654(4)
N5_4 N 0.16742(16) 0.76659(12) 0.1643(3)
N1_4 N 0.16592(16) 0.90007(12) 0.5023(3)
N2_4 N 0.1696(3) 0.92730(16) 0.6583(4)
C2_4 C 0.1882(2) 0.91811(14) 0.5806(4)
H1_4 H 0.2128 0.9241 0.5851
N3_4 N 0.1305(2) 0.8954(2) 0.5275(6)
H2_4 H 0.2520 0.9868 0.8447
N4_4 N 0.1847(2) 0.94801(15) 0.7579(4)
C5_4 C 0.1876(3) 0.94452(18) 0.9547(4)
H3_4 H 0.1890 0.9674 0.9582
C9_4 C 0.1754(3) 0.87303(16) 0.9472(5)
H6_4 H 0.1724 0.8495 0.9434
C10_4 C 0.2171(5) 0.9861(2) 0.7403(5)
C12_4 C 0.1862(4) 0.92847(18) 0.8548(5)
C13_4 C 0.1354(4) 0.9136(4) 0.6257(14)
H8_4 H 0.1174 0.9160 0.6640
H9_4 H 0.1831 0.9962 0.6322
C15_4 C 0.1761(4) 0.89262(17) 0.8496(5)
H10_4 H 0.1696 0.8805 0.7804
O1_5 O 0.11436(9) 0.29167(14) 0.2465(2)
O3_5 O 0.16178(10) 0.33238(17) 0.1458(3)
C1_5 C 0.13094(13) 0.30628(21) 0.1570(3)
C3_5 C 0.10910(13) 0.28846(24) 0.0492(4)
C7_5 C 0.07473(16) 0.26139(34) 0.0548(4)
H5_5 H 0.0630 0.2543 0.1244
O5_5 O 0.21898(9) 0.37499(14) 0.4201(2)
O6_5 O 0.21204(24) 0.32277(27) 0.2654(4)
N5_5 N 0.23341(12) 0.40082(20) 0.1643(3)
N1_5 N 0.09993(12) 0.26584(20) 0.5023(3)
N2_5 N 0.07270(16) 0.24226(34) 0.6583(4)
C2_5 C 0.08189(14) 0.27005(24) 0.5806(4)
H1_5 H 0.0759 0.2886 0.5851
N3_5 N 0.1046(2) 0.2350(3) 0.5275(6)
H2_5 H 0.0132 0.2651 0.8447
N4_5 N 0.05199(15) 0.23665(25) 0.7579(4)
C5_5 C 0.05548(18) 0.24304(35) 0.9547(4)
H3_5 H 0.0326 0.2215 0.9582
C9_5 C 0.12697(16) 0.30233(34) 0.9472(5)
H6_5 H 0.1505 0.3228 0.9434
C10_5 C 0.0139(2) 0.2309(5) 0.7403(5)
C12_5 C 0.07153(18) 0.25769(44) 0.8548(5)
C13_5 C 0.0864(4) 0.2217(6) 0.6257(14)
H8_5 H 0.0840 0.2013 0.6640
H9_5 H 0.0038 0.1868 0.6322
C15_5 C 0.10738(17) 0.28344(43) 0.8496(5)
H10_5 H 0.1195 0.2890 0.7804
O2_5 O 0.88928(13) 0.21204(24) 0.7346(4)
O4_5 O 0.88341(12) 0.16569(22) 0.6393(4)
C4_5 C 0.99878(18) 0.24644(35) 0.7939(6)
C6_5 C 0.96239(19) 0.23705(36) 0.7805(5)
H4_5 H 0.9525 0.2501 0.8155
C8_5 C 0.94114(17) 0.20610(34) 0.7092(4)
C11_5 C 0.9570(2) 0.1877(4) 0.6570(6)
H7_5 H 0.9423 0.1672 0.6128
C14_5 C 0.9930(2) 0.1989(4) 0.6682(6)
C16_5 C 0.90196(18) 0.19252(27) 0.6895(5)
Cu2_5 Cu 0.83097(2) 0.13880(4) 0.60782(4)
Cu5_5 Cu 0.83569(2) 0.19454(4) 0.72552(4)
O1_6 O 0.70833(14) 0.82268(11) 0.2465(2)
O3_6 O 0.66762(17) 0.82939(14) 0.1458(3)
C1_6 C 0.69372(21) 0.82465(16) 0.1570(3)
C3_6 C 0.71154(24) 0.8206(2) 0.0492(4)
C7_6 C 0.73861(34) 0.8133(3) 0.0548(4)
H5_6 H 0.7457 0.8086 0.1244
O5_6 O 0.62501(14) 0.84398(11) 0.4201(2)
O6_6 O 0.67723(27) 0.88928(13) 0.2654(4)
N5_6 N 0.59918(20) 0.83258(16) 0.1643(3)
O2_6 O 0.78796(24) 0.6772(2) 0.7346(4)
O4_6 O 0.83431(22) 0.71771(19) 0.6393(4)
N1_6 N 0.73416(20) 0.83408(16) 0.5023(3)
N2_6 N 0.75774(34) 0.8304(3) 0.6583(4)
C2_6 C 0.72995(24) 0.8118(2) 0.5806(4)
H1_6 H 0.7114 0.7872 0.5851
N3_6 N 0.7650(3) 0.8695(2) 0.5275(6)
C4_6 C 0.75356(35) 0.7523(3) 0.7939(6)
H2_6 H 0.7349 0.7480 0.8447
N4_6 N 0.76335(25) 0.8153(2) 0.7579(4)
C5_6 C 0.75696(35) 0.8124(3) 0.9547(4)
H3_6 H 0.7785 0.8110 0.9582
C6_6 C 0.76295(36) 0.7253(3) 0.7805(5)
H4_6 H 0.7499 0.7023 0.8155
C8_6 C 0.79390(34) 0.7350(3) 0.7092(4)
C9_6 C 0.69767(34) 0.8246(3) 0.9472(5)
H6_6 H 0.6772 0.8276 0.9434
C10_6 C 0.7691(5) 0.7829(5) 0.7403(5)
C11_6 C 0.8123(4) 0.7692(4) 0.6570(6)
H7_6 H 0.8328 0.7750 0.6128
C12_6 C 0.74231(44) 0.8138(4) 0.8548(5)
C13_6 C 0.7783(6) 0.8646(4) 0.6257(14)
H8_6 H 0.7987 0.8826 0.6640
C14_6 C 0.8011(4) 0.7940(4) 0.6682(6)
H9_6 H 0.8132 0.8169 0.6322
C15_6 C 0.71656(43) 0.8239(4) 0.8496(5)
H10_6 H 0.7110 0.8304 0.7804
C16_6 C 0.80748(27) 0.7094(2) 0.6895(5)
Cu2_6 Cu 0.86120(4) 0.69218(3) 0.60782(4)
Cu5_6 Cu 0.80546(4) 0.64116(3) 0.72552(4)
O1_7 O 0.84398(11) 0.21898(9) 0.5799(2)
O2_7 O 0.9894(2) 0.44406(13) 0.0680(4)
O3_7 O 0.83727(14) 0.17156(10) 0.4792(3)
C1_7 C 0.84201(16) 0.20240(13) 0.4904(3)
C3_7 C 0.8460(2) 0.22424(13) 0.3826(4)
C4_7 C 0.9143(3) 0.33456(18) 0.1273(6)
H2_7 H 0.9186 0.3202 0.1781
N4_7 N 0.8513(2) 0.28135(15) 0.0913(4)
C5_7 C 0.8542(3) 0.27786(18) 0.2881(4)
H3_7 H 0.8556 0.3008 0.2916
C6_7 C 0.9413(3) 0.37095(19) 0.1139(5)
H4_7 H 0.9643 0.3809 0.1489
C7_7 C 0.8533(3) 0.25861(16) 0.3882(4)
H5_7 H 0.8580 0.2704 0.4578
C8_7 C 0.9316(3) 0.39220(17) 0.0426(4)
C9_7 C 0.8420(3) 0.20637(16) 0.2806(5)
H6_7 H 0.8390 0.1829 0.2768
C10_7 C 0.8837(5) 0.3195(2) 0.0737(5)
C12_7 C 0.8528(4) 0.26181(18) 0.1882(5)
C14_7 C 0.8726(4) 0.3404(2) 0.0016(6)
C15_7 C 0.8427(4) 0.22596(17) 0.1830(5)
H10_7 H 0.8362 0.2139 0.1138
C16_7 C 0.9572(2) 0.43138(18) 0.0229(5)
O5_7 O 0.82268(11) 0.11436(9) 0.7535(2)
O6_7 O 0.77739(13) 0.12129(24) 0.5987(4)
N5_7 N 0.83408(16) 0.09993(12) 0.4977(3)
N1_7 N 0.83258(16) 0.23341(12) 0.8357(3)
N2_7 N 0.8362(3) 0.26064(16) 0.9917(4)
C2_7 C 0.8548(2) 0.25145(14) 0.9140(4)
H1_7 H 0.8794 0.2575 0.9185
N3_7 N 0.7971(2) 0.2288(2) 0.8609(6)
C11_7 C 0.8974(4) 0.3764(2) 0.9904(6)
H7_7 H 0.8916 0.3911 0.9462
C13_7 C 0.8020(4) 0.2470(4) 0.9591(14)
H8_7 H 0.7840 0.2494 0.9974
H9_7 H 0.8497 0.3296 0.9656
O1_8 O 0.78102(9) 0.62501(14) 0.5799(2)
O2_8 O 0.55594(13) 0.54538(24) 0.0680(4)
O3_8 O 0.82844(10) 0.66572(17) 0.4792(3)
C1_8 C 0.79760(13) 0.63962(21) 0.4904(3)
C3_8 C 0.77576(13) 0.62180(24) 0.3826(4)
C4_8 C 0.66544(18) 0.57978(35) 0.1273(6)
H2_8 H 0.6798 0.5985 0.1781
N4_8 N 0.71865(15) 0.56999(25) 0.0913(4)
C5_8 C 0.72214(18) 0.57638(35) 0.2881(4)
H3_8 H 0.6992 0.5549 0.2916
C6_8 C 0.62905(19) 0.57039(36) 0.1139(5)
H4_8 H 0.6191 0.5835 0.1489
C7_8 C 0.74139(16) 0.59473(34) 0.3882(4)
H5_8 H 0.7296 0.5877 0.4578
C8_8 C 0.60780(17) 0.53944(34) 0.0426(4)
C9_8 C 0.79363(16) 0.63567(34) 0.2806(5)
H6_8 H 0.8171 0.6562 0.2768
C10_8 C 0.6805(2) 0.5643(5) 0.0737(5)
C12_8 C 0.73819(18) 0.59103(44) 0.1882(5)
C14_8 C 0.6596(2) 0.5323(4) 0.0016(6)
C15_8 C 0.77404(17) 0.61678(43) 0.1830(5)
H10_8 H 0.7861 0.6224 0.1138
C16_8 C 0.56862(18) 0.52586(27) 0.0229(5)
O5_8 O 0.88564(9) 0.70833(14) 0.7535(2)
O6_8 O 0.87871(24) 0.65610(27) 0.5987(4)
N5_8 N 0.90007(12) 0.73416(20) 0.4977(3)
N1_8 N 0.76659(12) 0.59918(20) 0.8357(3)
N2_8 N 0.73936(16) 0.57560(34) 0.9917(4)
C2_8 C 0.74855(14) 0.60339(24) 0.9140(4)
H1_8 H 0.7425 0.6220 0.9185
N3_8 N 0.7712(2) 0.5684(3) 0.8609(6)
C11_8 C 0.6236(2) 0.5211(4) 0.9904(6)
H7_8 H 0.6089 0.5006 0.9462
C13_8 C 0.7530(4) 0.5551(6) 0.9591(14)
H8_8 H 0.7506 0.5347 0.9974
H9_8 H 0.6704 0.5202 0.9656
O1_9 O 0.37499(14) 0.15602(11) 0.5799(2)
O2_9 O 0.45462(24) 0.0106(2) 0.0680(4)
O3_9 O 0.33428(17) 0.16273(14) 0.4792(3)
C1_9 C 0.36038(21) 0.15799(16) 0.4904(3)
C3_9 C 0.37820(24) 0.1540(2) 0.3826(4)
C4_9 C 0.42022(35) 0.0857(3) 0.1273(6)
H2_9 H 0.4015 0.0814 0.1781
N4_9 N 0.43001(25) 0.1487(2) 0.0913(4)
C5_9 C 0.42362(35) 0.1458(3) 0.2881(4)
H3_9 H 0.4451 0.1444 0.2916
C6_9 C 0.42961(36) 0.0587(3) 0.1139(5)
H4_9 H 0.4165 0.0357 0.1489
C7_9 C 0.40527(34) 0.1467(3) 0.3882(4)
H5_9 H 0.4123 0.1420 0.4578
C8_9 C 0.46056(34) 0.0684(3) 0.0426(4)
C9_9 C 0.36433(34) 0.1580(3) 0.2806(5)
H6_9 H 0.3438 0.1610 0.2768
C10_9 C 0.4357(5) 0.1163(5) 0.0737(5)
C12_9 C 0.40897(44) 0.1472(4) 0.1882(5)
C14_9 C 0.4677(4) 0.1274(4) 0.0016(6)
C15_9 C 0.38322(43) 0.1573(4) 0.1830(5)
H10_9 H 0.3776 0.1638 0.1138
C16_9 C 0.47414(27) 0.0428(2) 0.0229(5)
O5_9 O 0.29167(14) 0.17732(11) 0.7535(2)
O6_9 O 0.34390(27) 0.22261(13) 0.5987(4)
N5_9 N 0.26584(20) 0.16592(16) 0.4977(3)
N1_9 N 0.40082(20) 0.16742(16) 0.8357(3)
N2_9 N 0.42440(34) 0.1638(3) 0.9917(4)
C2_9 C 0.39661(24) 0.1452(2) 0.9140(4)
H1_9 H 0.3780 0.1206 0.9185
N3_9 N 0.4316(3) 0.2029(2) 0.8609(6)
C11_9 C 0.4789(4) 0.1026(4) 0.9904(6)
H7_9 H 0.4994 0.1084 0.9462
C13_9 C 0.4449(6) 0.1980(4) 0.9591(14)
H8_9 H 0.4653 0.2160 0.9974
H9_9 H 0.4798 0.1503 0.9656
O3_10 O 0.49606(14) 0.49511(10) 0.1875(3)
O4_7 O 0.38438(19) 0.21674(12) 0.6940(4)
N2_10 N 0.4971(3) 0.40603(16) 0.6750(4)
C1_10 C 0.49132(16) 0.46427(13) 0.1763(3)
C2_10 C 0.4785(2) 0.41522(14) 0.7527(4)
H1_10 H 0.4539 0.4092 0.7482
N3_10 N 0.5362(2) 0.4379(2) 0.8058(6)
C3_10 C 0.4873(2) 0.44243(13) 0.2841(4)
C4_10 C 0.4190(3) 0.33211(18) 0.5394(6)
H2_10 H 0.4147 0.3465 0.4886
N4_10 N 0.4820(2) 0.38532(15) 0.5754(4)
C5_10 C 0.4791(3) 0.38881(18) 0.3786(4)
H3_10 H 0.4777 0.3659 0.3751
C6_10 C 0.3920(3) 0.29572(19) 0.5528(5)
H4_10 H 0.3690 0.2858 0.5178
C7_10 C 0.4800(3) 0.40806(16) 0.2785(4)
H5_10 H 0.4753 0.3963 0.2089
C8_10 C 0.4017(3) 0.27447(17) 0.6241(4)
C9_10 C 0.4913(3) 0.46030(16) 0.3861(5)
H6_10 H 0.4943 0.4838 0.3899
C10_10 C 0.4496(5) 0.3472(2) 0.5930(5)
C11_10 C 0.4359(4) 0.2903(2) 0.6763(6)
H7_10 H 0.4417 0.2756 0.7205
C12_10 C 0.4805(4) 0.40486(18) 0.4785(5)
C13_10 C 0.5313(4) 0.4197(4) 0.7076(14)
H8_10 H 0.5493 0.4173 0.6693
C14_10 C 0.4607(4) 0.3263(2) 0.6651(6)
H9_10 H 0.4836 0.3371 0.7011
C15_10 C 0.4906(4) 0.44071(17) 0.4837(5)
H10_10 H 0.4971 0.4528 0.5529
C16_10 C 0.3761(2) 0.23529(18) 0.6438(5)
O7_4 O 0.44993(12) 0.50097(22) 0.0273(4)
O3_11 O 0.50489(10) 0.00095(17) 0.1875(3)
O4_8 O 0.78326(12) 0.16764(22) 0.6940(4)
N2_11 N 0.59397(16) 0.09107(34) 0.6750(4)
C1_11 C 0.53573(13) 0.02705(21) 0.1763(3)
C2_11 C 0.58478(14) 0.06328(24) 0.7527(4)
H1_11 H 0.5908 0.0447 0.7482
N3_11 N 0.5621(2) 0.0983(3) 0.8058(6)
C3_11 C 0.55757(13) 0.04487(24) 0.2841(4)
C4_11 C 0.66789(18) 0.08689(35) 0.5394(6)
H2_11 H 0.6535 0.0682 0.4886
N4_11 N 0.61468(15) 0.09668(25) 0.5754(4)
C5_11 C 0.61119(18) 0.09029(35) 0.3786(4)
H3_11 H 0.6341 0.1118 0.3751
C6_11 C 0.70428(19) 0.09628(36) 0.5528(5)
H4_11 H 0.7142 0.0832 0.5178
C7_11 C 0.59194(16) 0.07194(34) 0.2785(4)
H5_11 H 0.6037 0.0790 0.2089
C8_11 C 0.72553(17) 0.12723(34) 0.6241(4)
C9_11 C 0.53970(16) 0.03100(34) 0.3861(5)
H6_11 H 0.5162 0.0105 0.3899
C10_11 C 0.6528(2) 0.1024(5) 0.5930(5)
C11_11 C 0.7097(2) 0.1456(4) 0.6763(6)
H7_11 H 0.7244 0.1661 0.7205
C12_11 C 0.59514(18) 0.07564(44) 0.4785(5)
C13_11 C 0.5803(4) 0.1116(6) 0.7076(14)
H8_11 H 0.5827 0.1320 0.6693
C14_11 C 0.6737(2) 0.1344(4) 0.6651(6)
H9_11 H 0.6629 0.1465 0.7011
C15_11 C 0.55929(17) 0.04989(43) 0.4837(5)
H10_11 H 0.5472 0.0443 0.5529
C16_11 C 0.76471(18) 0.14081(27) 0.6438(5)
O7_5 O 0.49903(22) 0.94895(25) 0.0273(4)
O7_6 O 0.05105(25) 0.55007(12) 0.0273(4)
O3_12 O 0.99905(17) 0.50394(14) 0.1875(3)
O4_9 O 0.83236(22) 0.61562(19) 0.6940(4)
N2_12 N 0.90893(34) 0.5029(3) 0.6750(4)
C1_12 C 0.97295(21) 0.50868(16) 0.1763(3)
C2_12 C 0.93672(24) 0.5215(2) 0.7527(4)
H1_12 H 0.9553 0.5461 0.7482
N3_12 N 0.9017(3) 0.4638(2) 0.8058(6)
C3_12 C 0.95513(24) 0.5127(2) 0.2841(4)
C4_12 C 0.91311(35) 0.5810(3) 0.5394(6)
H2_12 H 0.9318 0.5853 0.4886
N4_12 N 0.90332(25) 0.5180(2) 0.5754(4)
C5_12 C 0.90971(35) 0.5209(3) 0.3786(4)
H3_12 H 0.8882 0.5223 0.3751
C6_12 C 0.90372(36) 0.6080(3) 0.5528(5)
H4_12 H 0.9168 0.6310 0.5178
C7_12 C 0.92806(34) 0.5200(3) 0.2785(4)
H5_12 H 0.9210 0.5247 0.2089
C8_12 C 0.87277(34) 0.5983(3) 0.6241(4)
C9_12 C 0.96900(34) 0.5087(3) 0.3861(5)
H6_12 H 0.9895 0.5057 0.3899
C10_12 C 0.8976(5) 0.5504(5) 0.5930(5)
C11_12 C 0.8544(4) 0.5641(4) 0.6763(6)
H7_12 H 0.8339 0.5583 0.7205
C12_12 C 0.92436(44) 0.5195(4) 0.4785(5)
C13_12 C 0.8884(6) 0.4687(4) 0.7076(14)
H8_12 H 0.8680 0.4507 0.6693
C14_12 C 0.8656(4) 0.5393(4) 0.6651(6)
H9_12 H 0.8535 0.5164 0.7011
C15_12 C 0.95011(43) 0.5094(4) 0.4837(5)
H10_12 H 0.9557 0.5029 0.5529
C16_12 C 0.85919(27) 0.6239(2) 0.6438(5)
N2_13 N 0.8304(3) 0.07270(16) 0.3417(4)
C2_13 C 0.8118(2) 0.08189(14) 0.4194(4)
H1_13 H 0.7872 0.0759 0.4149
N3_13 N 0.8695(2) 0.1046(2) 0.4725(6)
H2_13 H 0.7480 0.0132 0.1553
N4_13 N 0.8153(2) 0.05199(15) 0.2421(4)
C5_13 C 0.8124(3) 0.05548(18) 0.0453(4)
H3_13 H 0.8110 0.0326 0.0418
C9_13 C 0.8246(3) 0.12697(16) 0.0528(5)
H6_13 H 0.8276 0.1505 0.0566
C10_13 C 0.7829(5) 0.0139(2) 0.2597(5)
C12_13 C 0.8138(4) 0.07153(18) 0.1452(5)
C13_13 C 0.8646(4) 0.0864(4) 0.3743(14)
H8_13 H 0.8826 0.0840 0.3360
H9_13 H 0.8169 0.0038 0.3678
C15_13 C 0.8239(4) 0.10738(17) 0.1504(5)
H10_13 H 0.8304 0.1195 0.2196
O3_13 O 0.82939(14) 0.16178(10) 0.8542(3)
C1_13 C 0.82465(16) 0.13094(13) 0.8430(3)
C3_13 C 0.8206(2) 0.10910(13) 0.9508(4)
C7_13 C 0.8133(3) 0.07473(16) 0.9452(4)
H5_13 H 0.8086 0.0630 0.8756
O4_10 O 0.71771(19) 0.88341(12) 0.3607(4)
C4_13 C 0.7523(3) 0.99878(18) 0.2061(6)
C6_13 C 0.7253(3) 0.96239(19) 0.2195(5)
H4_13 H 0.7023 0.9525 0.1845
C8_13 C 0.7350(3) 0.94114(17) 0.2908(4)
C11_13 C 0.7692(4) 0.9570(2) 0.3430(6)
H7_13 H 0.7750 0.9423 0.3872
C14_13 C 0.7940(4) 0.9930(2) 0.3318(6)
C16_13 C 0.7094(2) 0.90196(18) 0.3105(5)
O4_11 O 0.11659(12) 0.83431(22) 0.3607(4)
C4_14 C 0.00122(18) 0.75356(35) 0.2061(6)
C6_14 C 0.03761(19) 0.76295(36) 0.2195(5)
H4_14 H 0.0475 0.7499 0.1845
C8_14 C 0.05886(17) 0.79390(34) 0.2908(4)
C11_14 C 0.0430(2) 0.8123(4) 0.3430(6)
H7_14 H 0.0577 0.8328 0.3872
C14_14 C 0.0070(2) 0.8011(4) 0.3318(6)
C16_14 C 0.09804(18) 0.80748(27) 0.3105(5)
N2_14 N 0.92730(16) 0.75774(34) 0.3417(4)
C2_14 C 0.91811(14) 0.72995(24) 0.4194(4)
H1_14 H 0.9241 0.7114 0.4149
N3_14 N 0.8954(2) 0.7650(3) 0.4725(6)
H2_14 H 0.9868 0.7349 0.1553
N4_14 N 0.94801(15) 0.76335(25) 0.2421(4)
C5_14 C 0.94452(18) 0.75696(35) 0.0453(4)
H3_14 H 0.9674 0.7785 0.0418
C9_14 C 0.87303(16) 0.69767(34) 0.0528(5)
H6_14 H 0.8495 0.6772 0.0566
C10_14 C 0.9861(2) 0.7691(5) 0.2597(5)
C12_14 C 0.92847(18) 0.74231(44) 0.1452(5)
C13_14 C 0.9136(4) 0.7783(6) 0.3743(14)
H8_14 H 0.9160 0.7987 0.3360
H9_14 H 0.9962 0.8132 0.3678
C15_14 C 0.89262(17) 0.71656(43) 0.1504(5)
H10_14 H 0.8805 0.7110 0.2196
O3_14 O 0.83822(10) 0.66762(17) 0.8542(3)
C1_14 C 0.86906(13) 0.69372(21) 0.8430(3)
C3_14 C 0.89090(13) 0.71154(24) 0.9508(4)
C7_14 C 0.92527(16) 0.73861(34) 0.9452(4)
H5_14 H 0.9370 0.7457 0.8756
O4_12 O 0.16569(22) 0.28229(19) 0.3607(4)
N2_15 N 0.24226(34) 0.1696(3) 0.3417(4)
C2_15 C 0.27005(24) 0.1882(2) 0.4194(4)
H1_15 H 0.2886 0.2128 0.4149
N3_15 N 0.2350(3) 0.1305(2) 0.4725(6)
C4_15 C 0.24644(35) 0.2477(3) 0.2061(6)
H2_15 H 0.2651 0.2520 0.1553
N4_15 N 0.23665(25) 0.1847(2) 0.2421(4)
C5_15 C 0.24304(35) 0.1876(3) 0.0453(4)
H3_15 H 0.2215 0.1890 0.0418
C6_15 C 0.23705(36) 0.2747(3) 0.2195(5)
H4_15 H 0.2501 0.2977 0.1845
C8_15 C 0.20610(34) 0.2650(3) 0.2908(4)
C9_15 C 0.30233(34) 0.1754(3) 0.0528(5)
H6_15 H 0.3228 0.1724 0.0566
C10_15 C 0.2309(5) 0.2171(5) 0.2597(5)
C11_15 C 0.1877(4) 0.2308(4) 0.3430(6)
H7_15 H 0.1672 0.2250 0.3872
C12_15 C 0.25769(44) 0.1862(4) 0.1452(5)
C13_15 C 0.2217(6) 0.1354(4) 0.3743(14)
H8_15 H 0.2013 0.1174 0.3360
C14_15 C 0.1989(4) 0.2060(4) 0.3318(6)
H9_15 H 0.1868 0.1831 0.3678
C15_15 C 0.28344(43) 0.1761(4) 0.1504(5)
H10_15 H 0.2890 0.1696 0.2196
C16_15 C 0.19252(27) 0.2906(2) 0.3105(5)
O3_15 O 0.33238(17) 0.17061(14) 0.8542(3)
C1_15 C 0.30628(21) 0.17535(16) 0.8430(3)
C3_15 C 0.28846(24) 0.1794(2) 0.9508(4)
C7_15 C 0.26139(34) 0.1867(3) 0.9452(4)
H5_15 H 0.2543 0.1914 0.8756
N2_16 N 0.1638(3) 0.73936(16) 0.0083(4)
C2_16 C 0.1452(2) 0.74855(14) 0.0860(4)
H1_16 H 0.1206 0.7425 0.0815
N3_16 N 0.2029(2) 0.7712(2) 0.1391(6)
C11_16 C 0.1026(4) 0.6236(2) 0.0096(6)
H7_16 H 0.1084 0.6089 0.0538
C13_16 C 0.1980(4) 0.7530(4) 0.0409(14)
H8_16 H 0.2160 0.7506 0.0026
H9_16 H 0.1503 0.6704 0.0344
O3_16 O 0.16273(14) 0.82844(10) 0.5208(3)
C1_16 C 0.15799(16) 0.79760(13) 0.5096(3)
C3_16 C 0.1540(2) 0.77576(13) 0.6174(4)
C4_16 C 0.0857(3) 0.66544(18) 0.8727(6)
H2_16 H 0.0814 0.6798 0.8219
N4_16 N 0.1487(2) 0.71865(15) 0.9087(4)
C5_16 C 0.1458(3) 0.72214(18) 0.7119(4)
H3_16 H 0.1444 0.6992 0.7084
C6_16 C 0.0587(3) 0.62905(19) 0.8861(5)
H4_16 H 0.0357 0.6191 0.8511
C7_16 C 0.1467(3) 0.74139(16) 0.6118(4)
H5_16 H 0.1420 0.7296 0.5422
C8_16 C 0.0684(3) 0.60780(17) 0.9574(4)
C9_16 C 0.1580(3) 0.79363(16) 0.7194(5)
H6_16 H 0.1610 0.8171 0.7232
C10_16 C 0.1163(5) 0.6805(2) 0.9263(5)
C12_16 C 0.1472(4) 0.73819(18) 0.8118(5)
C14_16 C 0.1274(4) 0.6596(2) 0.9984(6)
C15_16 C 0.1573(4) 0.77404(17) 0.8170(5)
H10_16 H 0.1638 0.7861 0.8862
C16_16 C 0.0428(2) 0.56862(18) 0.9771(5)
N2_17 N 0.26064(16) 0.42440(34) 0.0083(4)
C2_17 C 0.25145(14) 0.39661(24) 0.0860(4)
H1_17 H 0.2575 0.3780 0.0815
N3_17 N 0.2288(2) 0.4316(3) 0.1391(6)
C11_17 C 0.3764(2) 0.4789(4) 0.0096(6)
H7_17 H 0.3911 0.4994 0.0538
C13_17 C 0.2470(4) 0.4449(6) 0.0409(14)
H8_17 H 0.2494 0.4653 0.0026
H9_17 H 0.3296 0.4798 0.0344
O3_17 O 0.17156(10) 0.33428(17) 0.5208(3)
C1_17 C 0.20240(13) 0.36038(21) 0.5096(3)
C3_17 C 0.22424(13) 0.37820(24) 0.6174(4)
C4_17 C 0.33456(18) 0.42022(35) 0.8727(6)
H2_17 H 0.3202 0.4015 0.8219
N4_17 N 0.28135(15) 0.43001(25) 0.9087(4)
C5_17 C 0.27786(18) 0.42362(35) 0.7119(4)
H3_17 H 0.3008 0.4451 0.7084
C6_17 C 0.37095(19) 0.42961(36) 0.8861(5)
H4_17 H 0.3809 0.4165 0.8511
C7_17 C 0.25861(16) 0.40527(34) 0.6118(4)
H5_17 H 0.2704 0.4123 0.5422
C8_17 C 0.39220(17) 0.46056(34) 0.9574(4)
C9_17 C 0.20637(16) 0.36433(34) 0.7194(5)
H6_17 H 0.1829 0.3438 0.7232
C10_17 C 0.3195(2) 0.4357(5) 0.9263(5)
C12_17 C 0.26181(18) 0.40897(44) 0.8118(5)
C14_17 C 0.3404(2) 0.4677(4) 0.9984(6)
C15_17 C 0.22596(17) 0.38322(43) 0.8170(5)
H10_17 H 0.2139 0.3776 0.8862
C16_17 C 0.43138(18) 0.47414(27) 0.9771(5)
N2_18 N 0.57560(34) 0.8362(3) 0.0083(4)
C2_18 C 0.60339(24) 0.8548(2) 0.0860(4)
H1_18 H 0.6220 0.8794 0.0815
N3_18 N 0.5684(3) 0.7971(2) 0.1391(6)
C11_18 C 0.5211(4) 0.8974(4) 0.0096(6)
H7_18 H 0.5006 0.8916 0.0538
C13_18 C 0.5551(6) 0.8020(4) 0.0409(14)
H8_18 H 0.5347 0.7840 0.0026
H9_18 H 0.5202 0.8497 0.0344
O3_18 O 0.66572(17) 0.83727(14) 0.5208(3)
C1_18 C 0.63962(21) 0.84201(16) 0.5096(3)
C3_18 C 0.62180(24) 0.8460(2) 0.6174(4)
C4_18 C 0.57978(35) 0.9143(3) 0.8727(6)
H2_18 H 0.5985 0.9186 0.8219
N4_18 N 0.56999(25) 0.8513(2) 0.9087(4)
C5_18 C 0.57638(35) 0.8542(3) 0.7119(4)
H3_18 H 0.5549 0.8556 0.7084
C6_18 C 0.57039(36) 0.9413(3) 0.8861(5)
H4_18 H 0.5835 0.9643 0.8511
C7_18 C 0.59473(34) 0.8533(3) 0.6118(4)
H5_18 H 0.5877 0.8580 0.5422
C8_18 C 0.53944(34) 0.9316(3) 0.9574(4)
C9_18 C 0.63567(34) 0.8420(3) 0.7194(5)
H6_18 H 0.6562 0.8390 0.7232
C10_18 C 0.5643(5) 0.8837(5) 0.9263(5)
C12_18 C 0.59103(44) 0.8528(4) 0.8118(5)
C14_18 C 0.5323(4) 0.8726(4) 0.9984(6)
C15_18 C 0.61678(43) 0.8427(4) 0.8170(5)
H10_18 H 0.6224 0.8362 0.8862
C16_18 C 0.52586(27) 0.9572(2) 0.9771(5)
loop_
_geom_bond_atom_site_label_1
_geom_bond_atom_site_label_2
_geom_bond_site_symmetry_1
_geom_bond_site_symmetry_2
Cu1 O3 1_555 1_555
O1 C1 1_555 1_555
O2 C16 1_555 1_555
O3 C1 1_555 1_555
O4 C16 1_555 1_555
N1 C2 1_555 1_555
N2 C2 1_555 1_555
C1 C3 1_555 1_555
C2 H1 1_555 1_555
N3 N1 1_555 1_555
C3 C7 1_555 1_555
C4 H2 1_555 1_555
N4 N2 1_555 1_555
C5 H3 1_555 1_555
C6 C4 1_555 1_555
H4 C6 1_555 1_555
C7 C5 1_555 1_555
H5 C7 1_555 1_555
C8 C6 1_555 1_555
C9 C3 1_555 1_555
H6 C9 1_555 1_555
C10 C4 1_555 1_555
C11 C8 1_555 1_555
H7 C11 1_555 1_555
C12 N4 1_555 1_555
C13 N2 1_555 1_555
H8 C13 1_555 1_555
C14 C10 1_555 1_555
H9 C14 1_555 1_555
C15 C9 1_555 1_555
H10 C15 1_555 1_555
C16 C8 1_555 1_555
Cu2 O4 1_555 1_555
Cu4 N1 1_555 1_555
Cu5 O2 1_555 1_555
O6 Cu1 1_555 1_555
O7 Cu1 1_555 1_555
N5 Cu1 1_555 1_555
N3 C13 1_555 1_555
N4 C10 1_555 1_555
C5 C12 1_555 1_555
C11 C14 1_555 1_555
C12 C15 1_555 1_555
Cu2 Cu5 1_555 1_555
O7_2 Cu1_2 1_555 1_555
N5_2 Cu1_2 1_555 1_555
O1_2 C1_2 1_555 1_555
O2_2 C16_2 1_555 1_555
O3_2 C1_2 1_555 1_555
O4_2 C16_2 1_555 1_555
N1_2 C2_2 1_555 1_555
N2_2 C2_2 1_555 1_555
C1_2 C3_2 1_555 1_555
C2_2 H1_2 1_555 1_555
N3_2 N1_2 1_555 1_555
C3_2 C7_2 1_555 1_555
C4_2 H2_2 1_555 1_555
N4_2 N2_2 1_555 1_555
C5_2 H3_2 1_555 1_555
C6_2 C4_2 1_555 1_555
H4_2 C6_2 1_555 1_555
C7_2 C5_2 1_555 1_555
H5_2 C7_2 1_555 1_555
C8_2 C6_2 1_555 1_555
C9_2 C3_2 1_555 1_555
H6_2 C9_2 1_555 1_555
C10_2 C4_2 1_555 1_555
C11_2 C8_2 1_555 1_555
H7_2 C11_2 1_555 1_555
C12_2 N4_2 1_555 1_555
C13_2 N2_2 1_555 1_555
H8_2 C13_2 1_555 1_555
C14_2 C10_2 1_555 1_555
H9_2 C14_2 1_555 1_555
C15_2 C9_2 1_555 1_555
H10_2 C15_2 1_555 1_555
C16_2 C8_2 1_555 1_555
Cu2_2 O4_2 1_555 1_555
Cu4_2 N1_2 1_555 1_555
Cu5_2 O2_2 1_555 1_555
N3_2 C13_2 1_555 1_555
N4_2 C10_2 1_555 1_555
C5_2 C12_2 1_555 1_555
C11_2 C14_2 1_555 1_555
C12_2 C15_2 1_555 1_555
Cu2_2 Cu5_2 1_555 1_555
O1_3 C1_3 1_555 1_555
O2_3 C16_3 1_555 1_555
O3_3 C1_3 1_555 1_555
O4_3 C16_3 1_555 1_555
N1_3 C2_3 1_555 1_555
N2_3 C2_3 1_555 1_555
C1_3 C3_3 1_555 1_555
C2_3 H1_3 1_555 1_555
N3_3 N1_3 1_555 1_555
C3_3 C7_3 1_555 1_555
C4_3 H2_3 1_555 1_555
N4_3 N2_3 1_555 1_555
C5_3 H3_3 1_555 1_555
C6_3 C4_3 1_555 1_555
H4_3 C6_3 1_555 1_555
C7_3 C5_3 1_555 1_555
H5_3 C7_3 1_555 1_555
C8_3 C6_3 1_555 1_555
C9_3 C3_3 1_555 1_555
H6_3 C9_3 1_555 1_555
C10_3 C4_3 1_555 1_555
C11_3 C8_3 1_555 1_555
H7_3 C11_3 1_555 1_555
C12_3 N4_3 1_555 1_555
C13_3 N2_3 1_555 1_555
H8_3 C13_3 1_555 1_555
C14_3 C10_3 1_555 1_555
H9_3 C14_3 1_555 1_555
C15_3 C9_3 1_555 1_555
H10_3 C15_3 1_555 1_555
C16_3 C8_3 1_555 1_555
Cu2_3 O4_3 1_555 1_555
Cu4_3 N1_3 1_555 1_555
Cu5_3 O2_3 1_555 1_555
N3_3 C13_3 1_555 1_555
N4_3 C10_3 1_555 1_555
C5_3 C12_3 1_555 1_555
C11_3 C14_3 1_555 1_555
C12_3 C15_3 1_555 1_555
Cu2_3 Cu5_3 1_555 1_555
O7_3 Cu1_3 1_555 1_555
N5_3 Cu1_3 1_555 1_555
O2_4 C16_4 1_555 1_555
O4_4 C16_4 1_555 1_555
C6_4 C4_4 1_555 1_555
H4_4 C6_4 1_555 1_555
C8_4 C6_4 1_555 1_555
C11_4 C8_4 1_555 1_555
H7_4 C11_4 1_555 1_555
C16_4 C8_4 1_555 1_555
Cu2_4 O4_4 1_555 1_555
Cu5_4 O2_4 1_555 1_555
C11_4 C14_4 1_555 1_555
Cu2_4 Cu5_4 1_555 1_555
Cu2_2 O3_4 1_555 1_555
O1_4 C1_4 1_555 1_555
O3_4 C1_4 1_555 1_555
C1_4 C3_4 1_555 1_555
C3_4 C7_4 1_555 1_555
H5_4 C7_4 1_555 1_555
O5_4 Cu2_2 1_555 1_555
O6_4 Cu2_2 1_555 1_555
N5_4 Cu2_2 1_555 1_555
O1_4 Cu5_2 1_555 1_555
N1_4 C2_4 1_555 1_555
N2_4 C2_4 1_555 1_555
C2_4 H1_4 1_555 1_555
N3_4 N1_4 1_555 1_555
N4_4 N2_4 1_555 1_555
C5_4 H3_4 1_555 1_555
H6_4 C9_4 1_555 1_555
C12_4 N4_4 1_555 1_555
C13_4 N2_4 1_555 1_555
H8_4 C13_4 1_555 1_555
C15_4 C9_4 1_555 1_555
H10_4 C15_4 1_555 1_555
Cu5_2 N1_4 1_555 1_555
N3_4 C13_4 1_555 1_555
N4_4 C10_4 1_555 1_555
C5_4 C12_4 1_555 1_555
C12_4 C15_4 1_555 1_555
Cu2_3 O3_5 1_555 1_555
O1_5 C1_5 1_555 1_555
O3_5 C1_5 1_555 1_555
C1_5 C3_5 1_555 1_555
C3_5 C7_5 1_555 1_555
H5_5 C7_5 1_555 1_555
O5_5 Cu2_3 1_555 1_555
O6_5 Cu2_3 1_555 1_555
N5_5 Cu2_3 1_555 1_555
O1_5 Cu5_3 1_555 1_555
N1_5 C2_5 1_555 1_555
N2_5 C2_5 1_555 1_555
C2_5 H1_5 1_555 1_555
N3_5 N1_5 1_555 1_555
N4_5 N2_5 1_555 1_555
C5_5 H3_5 1_555 1_555
H6_5 C9_5 1_555 1_555
C12_5 N4_5 1_555 1_555
C13_5 N2_5 1_555 1_555
H8_5 C13_5 1_555 1_555
C15_5 C9_5 1_555 1_555
H10_5 C15_5 1_555 1_555
Cu5_3 N1_5 1_555 1_555
N3_5 C13_5 1_555 1_555
N4_5 C10_5 1_555 1_555
C5_5 C12_5 1_555 1_555
C12_5 C15_5 1_555 1_555
O2_5 C16_5 1_555 1_555
O4_5 C16_5 1_555 1_555
C6_5 C4_5 1_555 1_555
H4_5 C6_5 1_555 1_555
C8_5 C6_5 1_555 1_555
C11_5 C8_5 1_555 1_555
H7_5 C11_5 1_555 1_555
C16_5 C8_5 1_555 1_555
Cu2_5 O4_5 1_555 1_555
Cu5_5 O2_5 1_555 1_555
C11_5 C14_5 1_555 1_555
Cu2_5 Cu5_5 1_555 1_555
Cu2 O3_6 1_555 1_555
O1_6 C1_6 1_555 1_555
O3_6 C1_6 1_555 1_555
C1_6 C3_6 1_555 1_555
C3_6 C7_6 1_555 1_555
H5_6 C7_6 1_555 1_555
O5_6 Cu2 1_555 1_555
O6_6 Cu2 1_555 1_555
N5_6 Cu2 1_555 1_555
O1_6 Cu5 1_555 1_555
O2_6 C16_6 1_555 1_555
O4_6 C16_6 1_555 1_555
N1_6 C2_6 1_555 1_555
N2_6 C2_6 1_555 1_555
C2_6 H1_6 1_555 1_555
N3_6 N1_6 1_555 1_555
C4_6 H2_6 1_555 1_555
N4_6 N2_6 1_555 1_555
C5_6 H3_6 1_555 1_555
C6_6 C4_6 1_555 1_555
H4_6 C6_6 1_555 1_555
C8_6 C6_6 1_555 1_555
H6_6 C9_6 1_555 1_555
C10_6 C4_6 1_555 1_555
C11_6 C8_6 1_555 1_555
H7_6 C11_6 1_555 1_555
C12_6 N4_6 1_555 1_555
C13_6 N2_6 1_555 1_555
H8_6 C13_6 1_555 1_555
C14_6 C10_6 1_555 1_555
H9_6 C14_6 1_555 1_555
C15_6 C9_6 1_555 1_555
H10_6 C15_6 1_555 1_555
C16_6 C8_6 1_555 1_555
Cu2_6 O4_6 1_555 1_555
Cu5 N1_6 1_555 1_555
Cu5_6 O2_6 1_555 1_555
N3_6 C13_6 1_555 1_555
N4_6 C10_6 1_555 1_555
C5_6 C12_6 1_555 1_555
C11_6 C14_6 1_555 1_555
C12_6 C15_6 1_555 1_555
Cu2_6 Cu5_6 1_555 1_555
Cu2_5 O3_7 1_555 1_555
O1_7 C1_7 1_555 1_555
O2_7 C16_7 1_555 1_555
O3_7 C1_7 1_555 1_555
C1_7 C3_7 1_555 1_555
C3_7 C7_7 1_555 1_555
C4_7 H2_7 1_555 1_555
C5_7 H3_7 1_555 1_555
C6_7 C4_7 1_555 1_555
H4_7 C6_7 1_555 1_555
C7_7 C5_7 1_555 1_555
H5_7 C7_7 1_555 1_555
C8_7 C6_7 1_555 1_555
C9_7 C3_7 1_555 1_555
H6_7 C9_7 1_555 1_555
C10_7 C4_7 1_555 1_555
C12_7 N4_7 1_555 1_555
C14_7 C10_7 1_555 1_555
C15_7 C9_7 1_555 1_555
H10_7 C15_7 1_555 1_555
C16_7 C8_7 1_555 1_555
O5_7 Cu2_5 1_555 1_555
O6_7 Cu2_5 1_555 1_555
N5_7 Cu2_5 1_555 1_555
O1_7 Cu5_5 1_555 1_555
N4_7 C10_7 1_555 1_555
C5_7 C12_7 1_555 1_555
C12_7 C15_7 1_555 1_555
N1_7 C2_7 1_555 1_555
N2_7 C2_7 1_555 1_555
C2_7 H1_7 1_555 1_555
N3_7 N1_7 1_555 1_555
H7_7 C11_7 1_555 1_555
C13_7 N2_7 1_555 1_555
H8_7 C13_7 1_555 1_555
Cu5_5 N1_7 1_555 1_555
N3_7 C13_7 1_555 1_555
Cu2_6 O3_8 1_555 1_555
O1_8 C1_8 1_555 1_555
O2_8 C16_8 1_555 1_555
O3_8 C1_8 1_555 1_555
C1_8 C3_8 1_555 1_555
C3_8 C7_8 1_555 1_555
C4_8 H2_8 1_555 1_555
C5_8 H3_8 1_555 1_555
C6_8 C4_8 1_555 1_555
H4_8 C6_8 1_555 1_555
C7_8 C5_8 1_555 1_555
H5_8 C7_8 1_555 1_555
C8_8 C6_8 1_555 1_555
C9_8 C3_8 1_555 1_555
H6_8 C9_8 1_555 1_555
C10_8 C4_8 1_555 1_555
C12_8 N4_8 1_555 1_555
C14_8 C10_8 1_555 1_555
C15_8 C9_8 1_555 1_555
H10_8 C15_8 1_555 1_555
C16_8 C8_8 1_555 1_555
Cu4 O2_8 1_555 1_555
O5_8 Cu2_6 1_555 1_555
O6_8 Cu2_6 1_555 1_555
N5_8 Cu2_6 1_555 1_555
O1_8 Cu5_6 1_555 1_555
N4_8 C10_8 1_555 1_555
C5_8 C12_8 1_555 1_555
C12_8 C15_8 1_555 1_555
N1_8 C2_8 1_555 1_555
N2_8 C2_8 1_555 1_555
C2_8 H1_8 1_555 1_555
N3_8 N1_8 1_555 1_555
H7_8 C11_8 1_555 1_555
C13_8 N2_8 1_555 1_555
H8_8 C13_8 1_555 1_555
Cu5_6 N1_8 1_555 1_555
N3_8 C13_8 1_555 1_555
Cu2_4 O3_9 1_555 1_555
O1_9 C1_9 1_555 1_555
O2_9 C16_9 1_555 1_555
O3_9 C1_9 1_555 1_555
C1_9 C3_9 1_555 1_555
C3_9 C7_9 1_555 1_555
C4_9 H2_9 1_555 1_555
C5_9 H3_9 1_555 1_555
C6_9 C4_9 1_555 1_555
H4_9 C6_9 1_555 1_555
C7_9 C5_9 1_555 1_555
H5_9 C7_9 1_555 1_555
C8_9 C6_9 1_555 1_555
C9_9 C3_9 1_555 1_555
H6_9 C9_9 1_555 1_555
C10_9 C4_9 1_555 1_555
C12_9 N4_9 1_555 1_555
C14_9 C10_9 1_555 1_555
C15_9 C9_9 1_555 1_555
H10_9 C15_9 1_555 1_555
C16_9 C8_9 1_555 1_555
O5_9 Cu2_4 1_555 1_555
O6_9 Cu2_4 1_555 1_555
N5_9 Cu2_4 1_555 1_555
O1_9 Cu5_4 1_555 1_555
N4_9 C10_9 1_555 1_555
C5_9 C12_9 1_555 1_555
C12_9 C15_9 1_555 1_555
N1_9 C2_9 1_555 1_555
N2_9 C2_9 1_555 1_555
C2_9 H1_9 1_555 1_555
N3_9 N1_9 1_555 1_555
H7_9 C11_9 1_555 1_555
C13_9 N2_9 1_555 1_555
H8_9 C13_9 1_555 1_555
Cu5_4 N1_9 1_555 1_555
N3_9 C13_9 1_555 1_555
Cu4 O3_10 1_555 1_555
O5 C1_10 1_555 1_555
O6_9 C16_10 1_555 1_555
O3_10 C1_10 1_555 1_555
O4_7 C16_10 1_555 1_555
N5 C2_10 1_555 1_555
N2_10 C2_10 1_555 1_555
C1_10 C3_10 1_555 1_555
C2_10 H1_10 1_555 1_555
N3_10 N5 1_555 1_555
C3_10 C7_10 1_555 1_555
C4_10 H2_10 1_555 1_555
N4_10 N2_10 1_555 1_555
C5_10 H3_10 1_555 1_555
C6_10 C4_10 1_555 1_555
H4_10 C6_10 1_555 1_555
C7_10 C5_10 1_555 1_555
H5_10 C7_10 1_555 1_555
C8_10 C6_10 1_555 1_555
C9_10 C3_10 1_555 1_555
H6_10 C9_10 1_555 1_555
C10_10 C4_10 1_555 1_555
C11_10 C8_10 1_555 1_555
H7_10 C11_10 1_555 1_555
C12_10 N4_10 1_555 1_555
C13_10 N2_10 1_555 1_555
H8_10 C13_10 1_555 1_555
C14_10 C10_10 1_555 1_555
H9_10 C14_10 1_555 1_555
C15_10 C9_10 1_555 1_555
H10_10 C15_10 1_555 1_555
C16_10 C8_10 1_555 1_555
Cu5_4 O4_7 1_555 1_555
O7_4 Cu4 1_555 1_555
N3_10 C13_10 1_555 1_555
N4_10 C10_10 1_555 1_555
C5_10 C12_10 1_555 1_555
C11_10 C14_10 1_555 1_555
C12_10 C15_10 1_555 1_555
O5_2 C1_11 1_555 1_555
O6_7 C16_11 1_555 1_555
O3_11 C1_11 1_555 1_555
O4_8 C16_11 1_555 1_555
N5_2 C2_11 1_555 1_555
N2_11 C2_11 1_555 1_555
C1_11 C3_11 1_555 1_555
C2_11 H1_11 1_555 1_555
N3_11 N5_2 1_555 1_555
C3_11 C7_11 1_555 1_555
C4_11 H2_11 1_555 1_555
N4_11 N2_11 1_555 1_555
C5_11 H3_11 1_555 1_555
C6_11 C4_11 1_555 1_555
H4_11 C6_11 1_555 1_555
C7_11 C5_11 1_555 1_555
H5_11 C7_11 1_555 1_555
C8_11 C6_11 1_555 1_555
C9_11 C3_11 1_555 1_555
H6_11 C9_11 1_555 1_555
C10_11 C4_11 1_555 1_555
C11_11 C8_11 1_555 1_555
H7_11 C11_11 1_555 1_555
C12_11 N4_11 1_555 1_555
C13_11 N2_11 1_555 1_555
H8_11 C13_11 1_555 1_555
C14_11 C10_11 1_555 1_555
H9_11 C14_11 1_555 1_555
C15_11 C9_11 1_555 1_555
H10_11 C15_11 1_555 1_555
C16_11 C8_11 1_555 1_555
Cu5_5 O4_8 1_555 1_555
N3_11 C13_11 1_555 1_555
N4_11 C10_11 1_555 1_555
C5_11 C12_11 1_555 1_555
C11_11 C14_11 1_555 1_555
C12_11 C15_11 1_555 1_555
O7_5 Cu4_2 1_555 1_555
O7_6 Cu4_3 1_555 1_555
O5_3 C1_12 1_555 1_555
O6_8 C16_12 1_555 1_555
O3_12 C1_12 1_555 1_555
O4_9 C16_12 1_555 1_555
N5_3 C2_12 1_555 1_555
N2_12 C2_12 1_555 1_555
C1_12 C3_12 1_555 1_555
C2_12 H1_12 1_555 1_555
N3_12 N5_3 1_555 1_555
C3_12 C7_12 1_555 1_555
C4_12 H2_12 1_555 1_555
N4_12 N2_12 1_555 1_555
C5_12 H3_12 1_555 1_555
C6_12 C4_12 1_555 1_555
H4_12 C6_12 1_555 1_555
C7_12 C5_12 1_555 1_555
H5_12 C7_12 1_555 1_555
C8_12 C6_12 1_555 1_555
C9_12 C3_12 1_555 1_555
H6_12 C9_12 1_555 1_555
C10_12 C4_12 1_555 1_555
C11_12 C8_12 1_555 1_555
H7_12 C11_12 1_555 1_555
C12_12 N4_12 1_555 1_555
C13_12 N2_12 1_555 1_555
H8_12 C13_12 1_555 1_555
C14_12 C10_12 1_555 1_555
H9_12 C14_12 1_555 1_555
C15_12 C9_12 1_555 1_555
H10_12 C15_12 1_555 1_555
C16_12 C8_12 1_555 1_555
Cu5_6 O4_9 1_555 1_555
N3_12 C13_12 1_555 1_555
N4_12 C10_12 1_555 1_555
C5_12 C12_12 1_555 1_555
C11_12 C14_12 1_555 1_555
C12_12 C15_12 1_555 1_555
N5_7 C2_13 1_555 1_555
N2_13 C2_13 1_555 1_555
C2_13 H1_13 1_555 1_555
N3_13 N5_7 1_555 1_555
N4_13 N2_13 1_555 1_555
C5_13 H3_13 1_555 1_555
H6_13 C9_13 1_555 1_555
C12_13 N4_13 1_555 1_555
C13_13 N2_13 1_555 1_555
H8_13 C13_13 1_555 1_555
C15_13 C9_13 1_555 1_555
H10_13 C15_13 1_555 1_555
N3_13 C13_13 1_555 1_555
N4_13 C10_13 1_555 1_555
C5_13 C12_13 1_555 1_555
C12_13 C15_13 1_555 1_555
Cu5_5 O3_13 1_555 1_555
O5_7 C1_13 1_555 1_555
O3_13 C1_13 1_555 1_555
C1_13 C3_13 1_555 1_555
C3_13 C7_13 1_555 1_555
H5_13 C7_13 1_555 1_555
O6_6 C16_13 1_555 1_555
O4_10 C16_13 1_555 1_555
C6_13 C4_13 1_555 1_555
H4_13 C6_13 1_555 1_555
C8_13 C6_13 1_555 1_555
C11_13 C8_13 1_555 1_555
H7_13 C11_13 1_555 1_555
C16_13 C8_13 1_555 1_555
Cu5 O4_10 1_555 1_555
C11_13 C14_13 1_555 1_555
O6_4 C16_14 1_555 1_555
O4_11 C16_14 1_555 1_555
C6_14 C4_14 1_555 1_555
H4_14 C6_14 1_555 1_555
C8_14 C6_14 1_555 1_555
C11_14 C8_14 1_555 1_555
H7_14 C11_14 1_555 1_555
C16_14 C8_14 1_555 1_555
Cu5_2 O4_11 1_555 1_555
C11_14 C14_14 1_555 1_555
N5_8 C2_14 1_555 1_555
N2_14 C2_14 1_555 1_555
C2_14 H1_14 1_555 1_555
N3_14 N5_8 1_555 1_555
N4_14 N2_14 1_555 1_555
C5_14 H3_14 1_555 1_555
H6_14 C9_14 1_555 1_555
C12_14 N4_14 1_555 1_555
C13_14 N2_14 1_555 1_555
H8_14 C13_14 1_555 1_555
C15_14 C9_14 1_555 1_555
H10_14 C15_14 1_555 1_555
N3_14 C13_14 1_555 1_555
N4_14 C10_14 1_555 1_555
C5_14 C12_14 1_555 1_555
C12_14 C15_14 1_555 1_555
Cu5_6 O3_14 1_555 1_555
O5_8 C1_14 1_555 1_555
O3_14 C1_14 1_555 1_555
C1_14 C3_14 1_555 1_555
C3_14 C7_14 1_555 1_555
H5_14 C7_14 1_555 1_555
O6_5 C16_15 1_555 1_555
O4_12 C16_15 1_555 1_555
N5_9 C2_15 1_555 1_555
N2_15 C2_15 1_555 1_555
C2_15 H1_15 1_555 1_555
N3_15 N5_9 1_555 1_555
C4_15 H2_15 1_555 1_555
N4_15 N2_15 1_555 1_555
C5_15 H3_15 1_555 1_555
C6_15 C4_15 1_555 1_555
H4_15 C6_15 1_555 1_555
C8_15 C6_15 1_555 1_555
H6_15 C9_15 1_555 1_555
C10_15 C4_15 1_555 1_555
C11_15 C8_15 1_555 1_555
H7_15 C11_15 1_555 1_555
C12_15 N4_15 1_555 1_555
C13_15 N2_15 1_555 1_555
H8_15 C13_15 1_555 1_555
C14_15 C10_15 1_555 1_555
H9_15 C14_15 1_555 1_555
C15_15 C9_15 1_555 1_555
H10_15 C15_15 1_555 1_555
C16_15 C8_15 1_555 1_555
Cu5_3 O4_12 1_555 1_555
N3_15 C13_15 1_555 1_555
N4_15 C10_15 1_555 1_555
C5_15 C12_15 1_555 1_555
C11_15 C14_15 1_555 1_555
C12_15 C15_15 1_555 1_555
Cu5_4 O3_15 1_555 1_555
O5_9 C1_15 1_555 1_555
O3_15 C1_15 1_555 1_555
C1_15 C3_15 1_555 1_555
C3_15 C7_15 1_555 1_555
H5_15 C7_15 1_555 1_555
N5_4 C2_16 1_555 1_555
N2_16 C2_16 1_555 1_555
C2_16 H1_16 1_555 1_555
N3_16 N5_4 1_555 1_555
H7_16 C11_16 1_555 1_555
C13_16 N2_16 1_555 1_555
H8_16 C13_16 1_555 1_555
N3_16 C13_16 1_555 1_555
Cu5_2 O3_16 1_555 1_555
O5_4 C1_16 1_555 1_555
O6_3 C16_16 1_555 1_555
O3_16 C1_16 1_555 1_555
C1_16 C3_16 1_555 1_555
C3_16 C7_16 1_555 1_555
C4_16 H2_16 1_555 1_555
C5_16 H3_16 1_555 1_555
C6_16 C4_16 1_555 1_555
H4_16 C6_16 1_555 1_555
C7_16 C5_16 1_555 1_555
H5_16 C7_16 1_555 1_555
C8_16 C6_16 1_555 1_555
C9_16 C3_16 1_555 1_555
H6_16 C9_16 1_555 1_555
C10_16 C4_16 1_555 1_555
C12_16 N4_16 1_555 1_555
C14_16 C10_16 1_555 1_555
C15_16 C9_16 1_555 1_555
H10_16 C15_16 1_555 1_555
C16_16 C8_16 1_555 1_555
N4_16 C10_16 1_555 1_555
C5_16 C12_16 1_555 1_555
C12_16 C15_16 1_555 1_555
N5_5 C2_17 1_555 1_555
N2_17 C2_17 1_555 1_555
C2_17 H1_17 1_555 1_555
N3_17 N5_5 1_555 1_555
H7_17 C11_17 1_555 1_555
C13_17 N2_17 1_555 1_555
H8_17 C13_17 1_555 1_555
N3_17 C13_17 1_555 1_555
Cu5_3 O3_17 1_555 1_555
O5_5 C1_17 1_555 1_555
O6 C16_17 1_555 1_555
O3_17 C1_17 1_555 1_555
C1_17 C3_17 1_555 1_555
C3_17 C7_17 1_555 1_555
C4_17 H2_17 1_555 1_555
C5_17 H3_17 1_555 1_555
C6_17 C4_17 1_555 1_555
H4_17 C6_17 1_555 1_555
C7_17 C5_17 1_555 1_555
H5_17 C7_17 1_555 1_555
C8_17 C6_17 1_555 1_555
C9_17 C3_17 1_555 1_555
H6_17 C9_17 1_555 1_555
C10_17 C4_17 1_555 1_555
C12_17 N4_17 1_555 1_555
C14_17 C10_17 1_555 1_555
C15_17 C9_17 1_555 1_555
H10_17 C15_17 1_555 1_555
C16_17 C8_17 1_555 1_555
N4_17 C10_17 1_555 1_555
C5_17 C12_17 1_555 1_555
C12_17 C15_17 1_555 1_555
N5_6 C2_18 1_555 1_555
N2_18 C2_18 1_555 1_555
C2_18 H1_18 1_555 1_555
N3_18 N5_6 1_555 1_555
H7_18 C11_18 1_555 1_555
C13_18 N2_18 1_555 1_555
H8_18 C13_18 1_555 1_555
N3_18 C13_18 1_555 1_555
Cu5 O3_18 1_555 1_555
O5_6 C1_18 1_555 1_555
O6_2 C16_18 1_555 1_555
O3_18 C1_18 1_555 1_555
C1_18 C3_18 1_555 1_555
C3_18 C7_18 1_555 1_555
C4_18 H2_18 1_555 1_555
C5_18 H3_18 1_555 1_555
C6_18 C4_18 1_555 1_555
H4_18 C6_18 1_555 1_555
C7_18 C5_18 1_555 1_555
H5_18 C7_18 1_555 1_555
C8_18 C6_18 1_555 1_555
C9_18 C3_18 1_555 1_555
H6_18 C9_18 1_555 1_555
C10_18 C4_18 1_555 1_555
C12_18 N4_18 1_555 1_555
C14_18 C10_18 1_555 1_555
C15_18 C9_18 1_555 1_555
H10_18 C15_18 1_555 1_555
C16_18 C8_18 1_555 1_555
N4_18 C10_18 1_555 1_555
C5_18 C12_18 1_555 1_555
C12_18 C15_18 1_555 1_555

#END
