
###############################################################################
#
# This file contains modified crystal structure data generated from the
# MOF subset of the Cambridge Structural Database (CSD) v543 
# hosted by the Cambridge Crystallographic Data Centre (CCDC).
#
# This work is licensed under the Creative Commons
# Attribution-NonCommercial-ShareAlike 4.0 International License.
# To view a copy of this license, visit
# http://creativecommons.org/licenses/by-nc-sa/4.0/
# or send a letter to
# Creative Commons, PO Box 1866, Mountain View, CA 94042, USA.
#
# CIF created using the CSD Python API on 29 September 2022
# The structure has been converted into the P1 space group
# The structure has a 3D framework
# The original CSD entry GILHOB01 is in the monoclinic crystal system
# The framework has been calculated to contain at least 10.0% void space
# The void calculation uses a probe of radius 1.32A, grid spacing 0.4
#
###############################################################################

data_GILHOB01
_chemical_formula_moiety         '(C160 H96 Au10 Fe8 N48)n'
_symmetry_cell_setting           triclinic
_symmetry_space_group_name_H-M   'P 1'
_symmetry_Int_Tables_number      1
_space_group_name_Hall           'P 1'
loop_
_symmetry_equiv_pos_site_id
_symmetry_equiv_pos_as_xyz
1 x,y,z
_cell_length_a                   33.557(6)
_cell_length_b                   13.117(2)
_cell_length_c                   16.174(2)
_cell_angle_alpha                90
_cell_angle_beta                 112.407(5)
_cell_angle_gamma                90
_cell_volume                     6581.76
loop_
_atom_site_label
_atom_site_type_symbol
_atom_site_fract_x
_atom_site_fract_y
_atom_site_fract_z
Au4 Au 0.40068(2) 0.00015(4) 0.08136(3)
C42 C 0.4020(4) 0.0871(11) 0.1810(9)
N6 N 0.7182(3) 0.3018(8) 0.1886(6)
H3 H 0.430416 0.288287 0.023377
C11 C 0.5104(4) 0.3684(10) 0.0502(8)
C13 C 0.5551(4) 0.3679(10) 0.0948(8)
H5 H 0.493300 0.385233 0.081926
C15 C 0.5810(4) 0.3457(9) 0.0484(8)
H7 H 0.567361 0.382446 0.155577
C16 C 0.6284(4) 0.3364(10) 0.0946(7)
C17 C 0.6555(4) 0.3209(10) 0.0510(8)
C18 C 0.6487(4) 0.3419(10) 0.1886(7)
C19 C 0.6994(4) 0.3019(10) 0.0987(7)
C20 C 0.6924(4) 0.3241(11) 0.2308(7)
H10 H 0.632507 0.357552 0.222424
H11 H 0.716539 0.288618 0.066421
H12 H 0.704442 0.328141 0.292833
N12 N 0.8219(3) 0.7288(8) 0.2597(7)
C30 C 0.5974(4) 0.6987(9) 0.0107(7)
C31 C 0.6181(4) 0.6216(10) 0.0677(8)
C33 C 0.6626(4) 0.6202(10) 0.1140(8)
H17 H 0.601848 0.567981 0.075898
C34 C 0.6677(4) 0.7738(11) 0.0425(9)
C35 C 0.6877(4) 0.6994(11) 0.1043(8)
H19 H 0.675508 0.565813 0.151543
H20 H 0.684021 0.824875 0.030667
C36 C 0.7349(4) 0.7053(11) 0.1576(8)
C37 C 0.7530(4) 0.7997(11) 0.1845(9)
C38 C 0.7603(4) 0.6226(10) 0.1862(8)
C39 C 0.7965(4) 0.8086(11) 0.2351(9)
H21 H 0.735834 0.857755 0.168483
C40 C 0.8046(4) 0.6347(10) 0.2374(9)
H22 H 0.748648 0.557618 0.172077
H23 H 0.808161 0.873195 0.252379
H24 H 0.822151 0.577533 0.256001
Fe4 Fe 0.78601(7) 0.25183(18) 0.25915(14)
Au5 Au 0.30278(2) 0.98327(5) 0.01198(2)
Fe6 Fe 0.89098(6) 0.75193(15) 0.32395(14)
Au1 Au 0.27331(2) 0.51617(5) 0.50897(3)
C1 C 0.2739(4) 0.4255(11) 0.6094(9)
C2 C 0.2705(5) 0.6062(11) 0.4070(9)
N1 N 0.2755(4) 0.3720(9) 0.6634(7)
Fe1 Fe 0.28601(7) 0.24817(18) 0.75915(14)
N2 N 0.3540(3) 0.2939(9) 0.8288(7)
N3 N 0.2707(4) 0.6536(10) 0.3504(7)
N4 N 0.2946(4) 0.1252(9) 0.8512(7)
N5 N 0.3041(4) 0.1545(10) 0.6711(7)
C3 C 0.3741(4) 0.2808(10) 0.9169(8)
C4 C 0.3786(4) 0.3258(11) 0.7848(8)
C5 C 0.2973(4) 0.0722(12) 0.9091(8)
C6 C 0.4177(4) 0.2985(10) 0.9619(7)
H1 H 0.358136 0.258806 0.949486
C7 C 0.4214(4) 0.3445(11) 0.8227(8)
H2 H 0.365012 0.335961 0.723500
C8 C 0.4431(4) 0.3321(10) 0.9143(8)
H4 H 0.436314 0.365402 0.787498
C9 C 0.3047(5) 0.1027(12) 0.6138(10)
C10 C 0.4906(4) 0.3445(10) 0.9602(8)
C12 C 0.5176(4) 0.3246(9) 0.9132(7)
H6 H 0.505508 0.308830 0.852601
C14 C 0.5612(4) 0.3284(9) 0.9560(7)
H8 H 0.578383 0.319210 0.923104
H9 H 0.644761 0.322910 0.988872
Au3 Au 0.37657(2) 0.50029(4) 0.56188(3)
C21 C 0.3821(4) 0.5871(12) 0.6656(9)
C22 C 0.3774(4) 0.4130(11) 0.4619(9)
N7 N 0.3872(4) 0.6365(9) 0.7274(7)
N8 N 0.3809(4) 0.3623(10) 0.4083(7)
Fe2 Fe 0.39098(6) 0.74807(15) 0.82395(14)
N9 N 0.3971(4) 0.8623(9) 0.9232(7)
N10 N 0.4010(4) 0.8561(9) 0.7359(7)
N11 N 0.4589(3) 0.7242(8) 0.8860(6)
C23 C 0.3992(4) 0.9128(11) 0.9804(9)
C24 C 0.4852(4) 0.8035(11) 0.9021(8)
C25 C 0.4789(4) 0.6344(10) 0.9099(7)
C26 C 0.5294(4) 0.7978(10) 0.9409(8)
H13 H 0.472922 0.867619 0.885903
C27 C 0.5231(4) 0.6218(10) 0.9503(8)
H14 H 0.461825 0.576152 0.898513
C28 C 0.4020(4) 0.9129(11) 0.6810(9)
C29 C 0.5491(4) 0.7040(10) 0.9668(7)
H15 H 0.545997 0.856662 0.949752
H16 H 0.534783 0.556992 0.965907
C32 C 0.6231(4) 0.7730(10) 0.9976(9)
H18 H 0.610178 0.824980 0.957163
Fe3 Fe 0.28601(7) 0.75183(18) 0.25915(14)
N13 N 0.2707(4) 0.3464(10) 0.8504(7)
N14 N 0.2182(3) 0.1982(8) 0.6886(6)
Au6 Au 0.30278(2) 0.01673(5) 0.51198(2)
N15 N 0.3809(4) 0.6377(10) 0.9083(7)
Fe5 Fe 0.39098(6) 0.25193(15) 0.32395(14)
N16 N 0.3219(3) 0.7712(8) 0.7597(7)
Au8 Au 0.40068(2) 0.99985(4) 0.58136(3)
C41 C 0.3047(5) 0.8973(12) 0.1138(10)
Au1_2 Au 0.27331(2) 0.48383(5) 0.00897(3)
C1_2 C 0.2739(4) 0.5745(11) 0.1094(9)
N1_2 N 0.2755(4) 0.6280(9) 0.1634(7)
N2_2 N 0.3540(3) 0.7061(9) 0.3288(7)
N4_2 N 0.2946(4) 0.8748(9) 0.3512(7)
N5_2 N 0.3041(4) 0.8455(10) 0.1711(7)
N6_2 N 0.7182(3) 0.6982(8) 0.6886(6)
C3_2 C 0.3741(4) 0.7192(10) 0.4169(8)
C4_2 C 0.3786(4) 0.6742(11) 0.2848(8)
C5_2 C 0.2973(4) 0.9278(12) 0.4091(8)
C6_2 C 0.4177(4) 0.7015(10) 0.4619(7)
H1_2 H 0.358136 0.741194 0.449486
C7_2 C 0.4214(4) 0.6555(11) 0.3227(8)
H2_2 H 0.365012 0.664039 0.223500
C8_2 C 0.4431(4) 0.6679(10) 0.4143(8)
H3_2 H 0.430416 0.711713 0.523377
H4_2 H 0.436314 0.634598 0.287498
C10_2 C 0.4906(4) 0.6555(10) 0.4602(8)
C11_2 C 0.5104(4) 0.6316(10) 0.5502(8)
C12_2 C 0.5176(4) 0.6754(9) 0.4132(7)
C13_2 C 0.5551(4) 0.6321(10) 0.5948(8)
H5_2 H 0.493300 0.614767 0.581926
H6_2 H 0.505508 0.691170 0.352601
C14_2 C 0.5612(4) 0.6716(9) 0.4560(7)
C15_2 C 0.5810(4) 0.6543(9) 0.5484(8)
H7_2 H 0.567361 0.617554 0.655577
H8_2 H 0.578383 0.680790 0.423104
C16_2 C 0.6284(4) 0.6636(10) 0.5946(7)
C17_2 C 0.6555(4) 0.6791(10) 0.5510(8)
C18_2 C 0.6487(4) 0.6581(10) 0.6886(7)
C19_2 C 0.6994(4) 0.6981(10) 0.5987(7)
H9_2 H 0.644761 0.677090 0.488872
C20_2 C 0.6924(4) 0.6759(11) 0.7308(7)
H10_2 H 0.632507 0.642448 0.722424
H11_2 H 0.716539 0.711382 0.566421
H12_2 H 0.704442 0.671859 0.792833
Au3_2 Au 0.37657(2) 0.49971(4) 0.06188(3)
C21_2 C 0.3821(4) 0.4129(12) 0.1656(9)
N7_2 N 0.3872(4) 0.3635(9) 0.2274(7)
N9_2 N 0.3971(4) 0.1377(9) 0.4232(7)
N10_2 N 0.4010(4) 0.1439(9) 0.2359(7)
N11_2 N 0.4589(3) 0.2758(8) 0.3860(6)
N12_2 N 0.8219(3) 0.2712(8) 0.7597(7)
C23_2 C 0.3992(4) 0.0872(11) 0.4804(9)
C24_2 C 0.4852(4) 0.1965(11) 0.4021(8)
C25_2 C 0.4789(4) 0.3656(10) 0.4099(7)
C26_2 C 0.5294(4) 0.2022(10) 0.4409(8)
H13_2 H 0.472922 0.132381 0.385903
C27_2 C 0.5231(4) 0.3782(10) 0.4503(8)
H14_2 H 0.461825 0.423848 0.398513
C29_2 C 0.5491(4) 0.2960(10) 0.4668(7)
H15_2 H 0.545997 0.143338 0.449752
H16_2 H 0.534783 0.443008 0.465907
C30_2 C 0.5974(4) 0.3013(9) 0.5107(7)
C31_2 C 0.6181(4) 0.3784(10) 0.5677(8)
C32_2 C 0.6231(4) 0.2270(10) 0.4976(9)
C33_2 C 0.6626(4) 0.3798(10) 0.6140(8)
H17_2 H 0.601848 0.432019 0.575898
C34_2 C 0.6677(4) 0.2262(11) 0.5425(9)
H18_2 H 0.610178 0.175020 0.457163
C35_2 C 0.6877(4) 0.3006(11) 0.6043(8)
H19_2 H 0.675508 0.434187 0.651543
H20_2 H 0.684021 0.175125 0.530667
C36_2 C 0.7349(4) 0.2947(11) 0.6576(8)
C37_2 C 0.7530(4) 0.2003(11) 0.6845(9)
C38_2 C 0.7603(4) 0.3774(10) 0.6862(8)
C39_2 C 0.7965(4) 0.1914(11) 0.7351(9)
H21_2 H 0.735834 0.142245 0.668483
C40_2 C 0.8046(4) 0.3653(10) 0.7374(9)
H22_2 H 0.748648 0.442382 0.672077
H23_2 H 0.808161 0.126805 0.752379
H24_2 H 0.822151 0.422467 0.756001
Fe4_2 Fe 0.78601(7) 0.74817(18) 0.75915(14)
N14_2 N 0.2182(3) 0.8018(8) 0.1886(6)
Fe6_2 Fe 0.89098(6) 0.24807(15) 0.82395(14)
N16_2 N 0.3219(3) 0.2288(8) 0.2597(7)
C2_2 C 0.2705(5) 0.3938(11) 0.9070(9)
C22_2 C 0.3774(4) 0.5870(11) 0.9619(9)
C30_3 C 0.0974(4) 0.1987(9) 0.0107(7)
C31_3 C 0.1181(4) 0.1216(10) 0.0677(8)
C33_3 C 0.1626(4) 0.1202(10) 0.1140(8)
H17_3 H 0.101848 0.067981 0.075898
C34_3 C 0.1677(4) 0.2738(11) 0.0425(9)
C35_3 C 0.1877(4) 0.1994(11) 0.1043(8)
H19_3 H 0.175508 0.065813 0.151543
H20_3 H 0.184021 0.324875 0.030667
C36_3 C 0.2349(4) 0.2053(11) 0.1576(8)
C37_3 C 0.2530(4) 0.2997(11) 0.1845(9)
C38_3 C 0.2603(4) 0.1226(10) 0.1862(8)
C39_3 C 0.2965(4) 0.3086(11) 0.2351(9)
H21_3 H 0.235834 0.357755 0.168483
C40_3 C 0.3046(4) 0.1347(10) 0.2374(9)
H22_3 H 0.248648 0.057618 0.172077
H23_3 H 0.308161 0.373195 0.252379
H24_3 H 0.322151 0.077533 0.256001
C11_3 C 0.0104(4) 0.8684(10) 0.0502(8)
C13_3 C 0.0551(4) 0.8679(10) 0.0948(8)
C15_3 C 0.0810(4) 0.8457(9) 0.0484(8)
H7_3 H 0.067361 0.882446 0.155577
C16_3 C 0.1284(4) 0.8364(10) 0.0946(7)
C17_3 C 0.1555(4) 0.8209(10) 0.0510(8)
C18_3 C 0.1487(4) 0.8419(10) 0.1886(7)
C19_3 C 0.1994(4) 0.8019(10) 0.0987(7)
C20_3 C 0.1924(4) 0.8241(11) 0.2308(7)
H10_3 H 0.132507 0.857552 0.222424
H11_3 H 0.216539 0.788618 0.066421
H12_3 H 0.204442 0.828141 0.292833
Au4_2 Au 0.90068(2) 0.50015(4) 0.08136(3)
Au5_2 Au 0.80278(2) 0.48327(5) 0.01198(2)
C42_2 C 0.9020(4) 0.5871(11) 0.1810(9)
Au1_3 Au 0.77331(2) 0.01617(5) 0.50897(3)
C2_3 C 0.7705(5) 0.1062(11) 0.4070(9)
N3_2 N 0.7707(4) 0.1536(10) 0.3504(7)
Au3_3 Au 0.87657(2) 0.00029(4) 0.56188(3)
C21_3 C 0.8821(4) 0.0871(12) 0.6656(9)
N7_3 N 0.8872(4) 0.1365(9) 0.7274(7)
N9_3 N 0.8971(4) 0.3623(9) 0.9232(7)
N10_3 N 0.9010(4) 0.3561(9) 0.7359(7)
N11_3 N 0.9589(3) 0.2242(8) 0.8860(6)
C23_3 C 0.8992(4) 0.4128(11) 0.9804(9)
C24_3 C 0.9852(4) 0.3035(11) 0.9021(8)
C25_3 C 0.9789(4) 0.1344(10) 0.9099(7)
H13_3 H 0.972922 0.367619 0.885903
H14_3 H 0.961825 0.076152 0.898513
C28_2 C 0.9020(4) 0.4129(11) 0.6810(9)
N15_2 N 0.8809(4) 0.1377(10) 0.9083(7)
Au8_2 Au 0.90068(2) 0.49985(4) 0.58136(3)
H3_3 H 0.930416 0.788287 0.023377
H5_3 H 0.993300 0.885233 0.081926
C41_2 C 0.8047(5) 0.3973(12) 0.1138(10)
C1_3 C 0.7739(4) 0.9255(11) 0.6094(9)
N1_3 N 0.7755(4) 0.8720(9) 0.6634(7)
N2_3 N 0.8540(3) 0.7939(9) 0.8288(7)
N4_3 N 0.7946(4) 0.6252(9) 0.8512(7)
N5_3 N 0.8041(4) 0.6545(10) 0.6711(7)
C3_3 C 0.8741(4) 0.7808(10) 0.9169(8)
C4_3 C 0.8786(4) 0.8258(11) 0.7848(8)
C5_3 C 0.7973(4) 0.5722(12) 0.9091(8)
C6_3 C 0.9177(4) 0.7985(10) 0.9619(7)
H1_3 H 0.858136 0.758806 0.949486
C7_3 C 0.9214(4) 0.8445(11) 0.8227(8)
H2_3 H 0.865012 0.835961 0.723500
C8_3 C 0.9431(4) 0.8321(10) 0.9143(8)
H4_3 H 0.936314 0.865402 0.787498
C9_2 C 0.8047(5) 0.6027(12) 0.6138(10)
C10_3 C 0.9906(4) 0.8445(10) 0.9602(8)
C22_3 C 0.8774(4) 0.9130(11) 0.4619(9)
N8_2 N 0.8809(4) 0.8623(10) 0.4083(7)
N13_2 N 0.7707(4) 0.8464(10) 0.8504(7)
Au6_2 Au 0.80278(2) 0.51673(5) 0.51198(2)
C11_4 C 0.0104(4) 0.1316(10) 0.5502(8)
C12_3 C 0.0176(4) 0.1754(9) 0.4132(7)
C13_4 C 0.0551(4) 0.1321(10) 0.5948(8)
H6_3 H 0.005508 0.191170 0.352601
C14_3 C 0.0612(4) 0.1716(9) 0.4560(7)
C15_4 C 0.0810(4) 0.1543(9) 0.5484(8)
H7_4 H 0.067361 0.117554 0.655577
H8_3 H 0.078383 0.180790 0.423104
C16_4 C 0.1284(4) 0.1636(10) 0.5946(7)
C17_4 C 0.1555(4) 0.1791(10) 0.5510(8)
C18_4 C 0.1487(4) 0.1581(10) 0.6886(7)
C19_4 C 0.1994(4) 0.1981(10) 0.5987(7)
H9_3 H 0.144761 0.177090 0.488872
C20_4 C 0.1924(4) 0.1759(11) 0.7308(7)
H10_4 H 0.132507 0.142448 0.722424
H11_4 H 0.216539 0.211382 0.566421
H12_4 H 0.204442 0.171859 0.792833
C26_3 C 0.0294(4) 0.7022(10) 0.4409(8)
C27_3 C 0.0231(4) 0.8782(10) 0.4503(8)
C29_3 C 0.0491(4) 0.7960(10) 0.4668(7)
H15_3 H 0.045997 0.643338 0.449752
H16_3 H 0.034783 0.943008 0.465907
C30_4 C 0.0974(4) 0.8013(9) 0.5107(7)
C31_4 C 0.1181(4) 0.8784(10) 0.5677(8)
C32_3 C 0.1231(4) 0.7270(10) 0.4976(9)
C33_4 C 0.1626(4) 0.8798(10) 0.6140(8)
H17_4 H 0.101848 0.932019 0.575898
C34_4 C 0.1677(4) 0.7262(11) 0.5425(9)
H18_3 H 0.110178 0.675020 0.457163
C35_4 C 0.1877(4) 0.8006(11) 0.6043(8)
H19_4 H 0.175508 0.934187 0.651543
H20_4 H 0.184021 0.675125 0.530667
C36_4 C 0.2349(4) 0.7947(11) 0.6576(8)
C37_4 C 0.2530(4) 0.7003(11) 0.6845(9)
C38_4 C 0.2603(4) 0.8774(10) 0.6862(8)
C39_4 C 0.2965(4) 0.6914(11) 0.7351(9)
H21_4 H 0.235834 0.642245 0.668483
C40_4 C 0.3046(4) 0.8653(10) 0.7374(9)
H22_4 H 0.248648 0.942382 0.672077
H23_4 H 0.308161 0.626805 0.752379
H24_4 H 0.322151 0.922467 0.756001
C1_4 C 0.7739(4) 0.0745(11) 0.1094(9)
N1_4 N 0.7755(4) 0.1280(9) 0.1634(7)
N2_4 N 0.8540(3) 0.2061(9) 0.3288(7)
N4_4 N 0.7946(4) 0.3748(9) 0.3512(7)
N5_4 N 0.8041(4) 0.3455(10) 0.1711(7)
C3_4 C 0.8741(4) 0.2192(10) 0.4169(8)
C4_4 C 0.8786(4) 0.1742(11) 0.2848(8)
C5_4 C 0.7973(4) 0.4278(12) 0.4091(8)
C6_4 C 0.9177(4) 0.2015(10) 0.4619(7)
H1_4 H 0.858136 0.241194 0.449486
C7_4 C 0.9214(4) 0.1555(11) 0.3227(8)
H2_4 H 0.865012 0.164039 0.223500
C8_4 C 0.9431(4) 0.1679(10) 0.4143(8)
H3_4 H 0.930416 0.211713 0.523377
H4_4 H 0.936314 0.134598 0.287498
C10_4 C 0.9906(4) 0.1555(10) 0.4602(8)
H5_4 H 0.993300 0.114767 0.581926
C22_4 C 0.8774(4) 0.0870(11) 0.9619(9)
Au1_4 Au 0.77331(2) 0.98383(5) 0.00897(3)
Au3_4 Au 0.87657(2) 0.99971(4) 0.06188(3)
C21_4 C 0.8821(4) 0.9129(12) 0.1656(9)
N7_4 N 0.8872(4) 0.8635(9) 0.2274(7)
N9_4 N 0.8971(4) 0.6377(9) 0.4232(7)
N10_4 N 0.9010(4) 0.6439(9) 0.2359(7)
N11_4 N 0.9589(3) 0.7758(8) 0.3860(6)
C23_4 C 0.8992(4) 0.5872(11) 0.4804(9)
C24_4 C 0.9852(4) 0.6965(11) 0.4021(8)
C25_4 C 0.9789(4) 0.8656(10) 0.4099(7)
H13_4 H 0.972922 0.632381 0.385903
H14_4 H 0.961825 0.923848 0.398513
C2_4 C 0.7705(5) 0.8938(11) 0.9070(9)
C26_4 C 0.0294(4) 0.2978(10) 0.9409(8)
C27_4 C 0.0231(4) 0.1218(10) 0.9503(8)
C29_4 C 0.0491(4) 0.2040(10) 0.9668(7)
H15_4 H 0.045997 0.356662 0.949752
H16_4 H 0.034783 0.056992 0.965907
C32_4 C 0.1231(4) 0.2730(10) 0.9976(9)
H18_4 H 0.110178 0.324980 0.957163
C12_4 C 0.0176(4) 0.8246(9) 0.9132(7)
H6_4 H 0.005508 0.808830 0.852601
C14_4 C 0.0612(4) 0.8284(9) 0.9560(7)
H8_4 H 0.078383 0.819210 0.923104
H9_4 H 0.144761 0.822910 0.988872
loop_
_geom_bond_atom_site_label_1
_geom_bond_atom_site_label_2
_geom_bond_site_symmetry_1
_geom_bond_site_symmetry_2
C42 Au4 1_555 1_555
N6 C19 1_555 1_555
C13 C11 1_555 1_555
H5 C11 1_555 1_555
C15 C13 1_555 1_555
H7 C13 1_555 1_555
C16 C15 1_555 1_555
C17 C16 1_555 1_555
C18 C16 1_555 1_555
C19 C17 1_555 1_555
C20 N6 1_555 1_555
H10 C18 1_555 1_555
H11 C19 1_555 1_555
H12 C20 1_555 1_555
N12 C39 1_555 1_555
C31 C30 1_555 1_555
C33 C31 1_555 1_555
H17 C31 1_555 1_555
C35 C33 1_555 1_555
H19 C33 1_555 1_555
H20 C34 1_555 1_555
C36 C35 1_555 1_555
C37 C36 1_555 1_555
C38 C36 1_555 1_555
C39 C37 1_555 1_555
H21 C37 1_555 1_555
C40 N12 1_555 1_555
H22 C38 1_555 1_555
H23 C39 1_555 1_555
H24 C40 1_555 1_555
Fe4 N6 1_555 1_555
Fe6 N12 1_555 1_555
C18 C20 1_555 1_555
C34 C35 1_555 1_555
C38 C40 1_555 1_555
Au1 C1 1_555 1_555
C1 N1 1_555 1_555
C2 Au1 1_555 1_555
N1 Fe1 1_555 1_555
Fe1 N2 1_555 1_555
N2 C3 1_555 1_555
N3 C2 1_555 1_555
N4 Fe1 1_555 1_555
N5 Fe1 1_555 1_555
C3 C6 1_555 1_555
C4 N2 1_555 1_555
C5 N4 1_555 1_555
C6 C8 1_555 1_555
H1 C3 1_555 1_555
C7 C4 1_555 1_555
H2 C4 1_555 1_555
C8 C7 1_555 1_555
H4 C7 1_555 1_555
C9 N5 1_555 1_555
C10 C8 1_555 1_555
C12 C10 1_555 1_555
H6 C12 1_555 1_555
C14 C12 1_555 1_555
H8 C14 1_555 1_555
Au3 Au1 1_555 1_555
C21 Au3 1_555 1_555
C22 Au3 1_555 1_555
N7 C21 1_555 1_555
N8 C22 1_555 1_555
Fe2 N7 1_555 1_555
N9 Fe2 1_555 1_555
N10 Fe2 1_555 1_555
N11 Fe2 1_555 1_555
C23 N9 1_555 1_555
C24 N11 1_555 1_555
C25 N11 1_555 1_555
C26 C24 1_555 1_555
H13 C24 1_555 1_555
C27 C25 1_555 1_555
H14 C25 1_555 1_555
C28 N10 1_555 1_555
C29 C26 1_555 1_555
H15 C26 1_555 1_555
H16 C27 1_555 1_555
H18 C32 1_555 1_555
Fe3 N3 1_555 1_555
N13 Fe1 1_555 1_555
N14 Fe1 1_555 1_555
Au6 C9 1_555 1_555
N15 Fe2 1_555 1_555
Fe5 N8 1_555 1_555
N16 Fe2 1_555 1_555
Au8 C28 1_555 1_555
C27 C29 1_555 1_555
C41 Au5 1_555 1_555
Au1_2 C1_2 1_555 1_555
C1_2 N1_2 1_555 1_555
N1_2 Fe3 1_555 1_555
Fe3 N2_2 1_555 1_555
N2_2 C3_2 1_555 1_555
N4_2 Fe3 1_555 1_555
N5_2 Fe3 1_555 1_555
N6_2 C19_2 1_555 1_555
C3_2 C6_2 1_555 1_555
C4_2 N2_2 1_555 1_555
C5_2 N4_2 1_555 1_555
C6_2 C8_2 1_555 1_555
H1_2 C3_2 1_555 1_555
C7_2 C4_2 1_555 1_555
H2_2 C4_2 1_555 1_555
C8_2 C7_2 1_555 1_555
H3_2 C6_2 1_555 1_555
H4_2 C7_2 1_555 1_555
C41 N5_2 1_555 1_555
C10_2 C8_2 1_555 1_555
C11_2 C10_2 1_555 1_555
C12_2 C10_2 1_555 1_555
C13_2 C11_2 1_555 1_555
H5_2 C11_2 1_555 1_555
H6_2 C12_2 1_555 1_555
C14_2 C12_2 1_555 1_555
C15_2 C13_2 1_555 1_555
H7_2 C13_2 1_555 1_555
H8_2 C14_2 1_555 1_555
C16_2 C15_2 1_555 1_555
C17_2 C16_2 1_555 1_555
C18_2 C16_2 1_555 1_555
C19_2 C17_2 1_555 1_555
H9_2 C17_2 1_555 1_555
C20_2 N6_2 1_555 1_555
H10_2 C18_2 1_555 1_555
H11_2 C19_2 1_555 1_555
H12_2 C20_2 1_555 1_555
Au3_2 Au1_2 1_555 1_555
C21_2 Au3_2 1_555 1_555
N7_2 C21_2 1_555 1_555
Fe5 N7_2 1_555 1_555
N9_2 Fe5 1_555 1_555
N10_2 Fe5 1_555 1_555
N11_2 Fe5 1_555 1_555
N12_2 C39_2 1_555 1_555
C23_2 N9_2 1_555 1_555
C24_2 N11_2 1_555 1_555
C25_2 N11_2 1_555 1_555
C26_2 C24_2 1_555 1_555
H13_2 C24_2 1_555 1_555
C27_2 C25_2 1_555 1_555
H14_2 C25_2 1_555 1_555
C42 N10_2 1_555 1_555
C29_2 C26_2 1_555 1_555
H15_2 C26_2 1_555 1_555
H16_2 C27_2 1_555 1_555
C30_2 C29_2 1_555 1_555
C31_2 C30_2 1_555 1_555
C32_2 C30_2 1_555 1_555
C33_2 C31_2 1_555 1_555
H17_2 C31_2 1_555 1_555
C34_2 C32_2 1_555 1_555
H18_2 C32_2 1_555 1_555
C35_2 C33_2 1_555 1_555
H19_2 C33_2 1_555 1_555
H20_2 C34_2 1_555 1_555
C36_2 C35_2 1_555 1_555
C37_2 C36_2 1_555 1_555
C38_2 C36_2 1_555 1_555
C39_2 C37_2 1_555 1_555
H21_2 C37_2 1_555 1_555
C40_2 N12_2 1_555 1_555
H22_2 C38_2 1_555 1_555
H23_2 C39_2 1_555 1_555
H24_2 C40_2 1_555 1_555
Fe4_2 N6_2 1_555 1_555
N14_2 Fe3 1_555 1_555
Fe6_2 N12_2 1_555 1_555
N16_2 Fe5 1_555 1_555
C14_2 C15_2 1_555 1_555
C18_2 C20_2 1_555 1_555
C27_2 C29_2 1_555 1_555
C34_2 C35_2 1_555 1_555
C38_2 C40_2 1_555 1_555
N13 C2_2 1_555 1_555
N15 C22_2 1_555 1_555
N16_2 C39_3 1_555 1_555
C31_3 C30_3 1_555 1_555
C33_3 C31_3 1_555 1_555
H17_3 C31_3 1_555 1_555
C35_3 C33_3 1_555 1_555
H19_3 C33_3 1_555 1_555
H20_3 C34_3 1_555 1_555
C36_3 C35_3 1_555 1_555
C37_3 C36_3 1_555 1_555
C38_3 C36_3 1_555 1_555
C39_3 C37_3 1_555 1_555
H21_3 C37_3 1_555 1_555
C40_3 N16_2 1_555 1_555
H22_3 C38_3 1_555 1_555
H23_3 C39_3 1_555 1_555
H24_3 C40_3 1_555 1_555
C34_3 C35_3 1_555 1_555
C38_3 C40_3 1_555 1_555
N14_2 C19_3 1_555 1_555
C13_3 C11_3 1_555 1_555
C15_3 C13_3 1_555 1_555
H7_3 C13_3 1_555 1_555
C16_3 C15_3 1_555 1_555
C17_3 C16_3 1_555 1_555
C18_3 C16_3 1_555 1_555
C19_3 C17_3 1_555 1_555
C20_3 N14_2 1_555 1_555
H10_3 C18_3 1_555 1_555
H11_3 C19_3 1_555 1_555
H12_3 C20_3 1_555 1_555
C18_3 C20_3 1_555 1_555
Au5_2 Au4_2 1_555 1_555
C42_2 Au4_2 1_555 1_555
C2_3 Au1_3 1_555 1_555
N3_2 C2_3 1_555 1_555
Au3_3 Au1_3 1_555 1_555
C21_3 Au3_3 1_555 1_555
N7_3 C21_3 1_555 1_555
Fe6_2 N7_3 1_555 1_555
N9_3 Fe6_2 1_555 1_555
N10_3 Fe6_2 1_555 1_555
N11_3 Fe6_2 1_555 1_555
C23_3 N9_3 1_555 1_555
C24_3 N11_3 1_555 1_555
C25_3 N11_3 1_555 1_555
H13_3 C24_3 1_555 1_555
H14_3 C25_3 1_555 1_555
C28_2 N10_3 1_555 1_555
Fe4 N3_2 1_555 1_555
N15_2 Fe6_2 1_555 1_555
Au8_2 C28_2 1_555 1_555
C41_2 Au5_2 1_555 1_555
C1_3 N1_3 1_555 1_555
N1_3 Fe4_2 1_555 1_555
Fe4_2 N2_3 1_555 1_555
N2_3 C3_3 1_555 1_555
N4_3 Fe4_2 1_555 1_555
N5_3 Fe4_2 1_555 1_555
C3_3 C6_3 1_555 1_555
C4_3 N2_3 1_555 1_555
C5_3 N4_3 1_555 1_555
C6_3 C8_3 1_555 1_555
H1_3 C3_3 1_555 1_555
C7_3 C4_3 1_555 1_555
H2_3 C4_3 1_555 1_555
C8_3 C7_3 1_555 1_555
H4_3 C7_3 1_555 1_555
C9_2 N5_3 1_555 1_555
C10_3 C8_3 1_555 1_555
N8_2 C22_3 1_555 1_555
N13_2 Fe4_2 1_555 1_555
Au6_2 C9_2 1_555 1_555
Fe6 N8_2 1_555 1_555
N14 C19_4 1_555 1_555
C13_4 C11_4 1_555 1_555
H6_3 C12_3 1_555 1_555
C14_3 C12_3 1_555 1_555
C15_4 C13_4 1_555 1_555
H7_4 C13_4 1_555 1_555
H8_3 C14_3 1_555 1_555
C16_4 C15_4 1_555 1_555
C17_4 C16_4 1_555 1_555
C18_4 C16_4 1_555 1_555
C19_4 C17_4 1_555 1_555
H9_3 C17_4 1_555 1_555
C20_4 N14 1_555 1_555
H10_4 C18_4 1_555 1_555
H11_4 C19_4 1_555 1_555
H12_4 C20_4 1_555 1_555
C14_3 C15_4 1_555 1_555
C18_4 C20_4 1_555 1_555
N16 C39_4 1_555 1_555
C29_3 C26_3 1_555 1_555
H15_3 C26_3 1_555 1_555
H16_3 C27_3 1_555 1_555
C30_4 C29_3 1_555 1_555
C31_4 C30_4 1_555 1_555
C32_3 C30_4 1_555 1_555
C33_4 C31_4 1_555 1_555
H17_4 C31_4 1_555 1_555
C34_4 C32_3 1_555 1_555
H18_3 C32_3 1_555 1_555
C35_4 C33_4 1_555 1_555
H19_4 C33_4 1_555 1_555
H20_4 C34_4 1_555 1_555
C36_4 C35_4 1_555 1_555
C37_4 C36_4 1_555 1_555
C38_4 C36_4 1_555 1_555
C39_4 C37_4 1_555 1_555
H21_4 C37_4 1_555 1_555
C40_4 N16 1_555 1_555
H22_4 C38_4 1_555 1_555
H23_4 C39_4 1_555 1_555
H24_4 C40_4 1_555 1_555
C27_3 C29_3 1_555 1_555
C34_4 C35_4 1_555 1_555
C38_4 C40_4 1_555 1_555
C1_4 N1_4 1_555 1_555
N1_4 Fe4 1_555 1_555
Fe4 N2_4 1_555 1_555
N2_4 C3_4 1_555 1_555
N4_4 Fe4 1_555 1_555
N5_4 Fe4 1_555 1_555
C3_4 C6_4 1_555 1_555
C4_4 N2_4 1_555 1_555
C5_4 N4_4 1_555 1_555
C6_4 C8_4 1_555 1_555
H1_4 C3_4 1_555 1_555
C7_4 C4_4 1_555 1_555
H2_4 C4_4 1_555 1_555
Au6_2 C5_4 1_555 1_555
C8_4 C7_4 1_555 1_555
H3_4 C6_4 1_555 1_555
H4_4 C7_4 1_555 1_555
C41_2 N5_4 1_555 1_555
C10_4 C8_4 1_555 1_555
Au8_2 Au6_2 1_555 1_555
N15_2 C22_4 1_555 1_555
Au3_4 Au1_4 1_555 1_555
C21_4 Au3_4 1_555 1_555
N7_4 C21_4 1_555 1_555
Fe6 N7_4 1_555 1_555
N9_4 Fe6 1_555 1_555
N10_4 Fe6 1_555 1_555
N11_4 Fe6 1_555 1_555
C23_4 N9_4 1_555 1_555
C24_4 N11_4 1_555 1_555
C25_4 N11_4 1_555 1_555
Au8_2 C23_4 1_555 1_555
H13_4 C24_4 1_555 1_555
H14_4 C25_4 1_555 1_555
C42_2 N10_4 1_555 1_555
N13_2 C2_4 1_555 1_555
C29_4 C26_4 1_555 1_555
H15_4 C26_4 1_555 1_555
H16_4 C27_4 1_555 1_555
H18_4 C32_4 1_555 1_555
C27_4 C29_4 1_555 1_555
H6_4 C12_4 1_555 1_555
C14_4 C12_4 1_555 1_555
H8_4 C14_4 1_555 1_555

#END
