
###############################################################################
#
# This file contains modified crystal structure data generated from the
# MOF subset of the Cambridge Structural Database (CSD) v543 
# hosted by the Cambridge Crystallographic Data Centre (CCDC).
#
# This work is licensed under the Creative Commons
# Attribution-NonCommercial-ShareAlike 4.0 International License.
# To view a copy of this license, visit
# http://creativecommons.org/licenses/by-nc-sa/4.0/
# or send a letter to
# Creative Commons, PO Box 1866, Mountain View, CA 94042, USA.
#
# CIF created using the CSD Python API on 29 September 2022
# The structure has been converted into the P1 space group
# The structure has a 3D framework
# The original CSD entry GILHOB is in the monoclinic crystal system
# The framework has been calculated to contain at least 10.0% void space
# The void calculation uses a probe of radius 1.32A, grid spacing 0.4
#
###############################################################################

data_GILHOB
_chemical_formula_moiety         '(C160 H96 Au16 Fe8 N46)n'
_symmetry_cell_setting           triclinic
_symmetry_space_group_name_H-M   'P 1'
_symmetry_Int_Tables_number      1
_space_group_name_Hall           'P 1'
loop_
_symmetry_equiv_pos_site_id
_symmetry_equiv_pos_as_xyz
1 x,y,z
_cell_length_a                   33.2202(13)
_cell_length_b                   13.2404(5)
_cell_length_c                   15.2020(5)
_cell_angle_alpha                90
_cell_angle_beta                 113.3920(10)
_cell_angle_gamma                90
_cell_volume                     6137.01
loop_
_atom_site_label
_atom_site_type_symbol
_atom_site_fract_x
_atom_site_fract_y
_atom_site_fract_z
H3 H 0.801801 0.153090 0.013965
C5 C 0.8622(3) 0.1910(7) 0.0191(6)
H4 H 0.875979 0.190015 0.087076
Fe4 Fe 0.95078(5) 0.24904(11) 0.03401(10)
Au1 Au 0.43843(2) 0.01452(3) 0.78415(2)
Au2 Au 0.46437(2) 0.48450(3) 0.28380(2)
Au3 Au 0.53775(2) 0.00083(2) 0.32462(2)
Au4 Au 0.56172(2) 0.49882(2) 0.34598(2)
Fe1 Fe 0.45078(5) 0.25096(11) 0.53401(10)
Fe2 Fe 0.55125(4) 0.24853(10) 0.08593(9)
N1 N 0.8868(2) 0.2120(6) 0.9693(5)
N2 N 0.5148(2) 0.2156(6) 0.5989(5)
N3 N 0.4401(3) 0.1613(6) 0.6234(5)
N4 N 0.4621(3) 0.3403(6) 0.4456(5)
N6 N 0.4585(3) 0.3609(6) 0.6227(5)
N7 N 0.4862(2) 0.2714(6) 0.0225(5)
N9 N 0.5421(2) 0.1490(5) 0.1680(5)
N10 N 0.5573(2) 0.3487(5) 0.1830(5)
N11 N 0.5593(2) 0.6519(5) 0.5010(5)
C1 C 0.8662(3) 0.2127(7) 0.8732(6)
H1 H 0.882895 0.226745 0.836369
C2 C 0.8218(3) 0.1938(7) 0.8256(6)
H2 H 0.809122 0.193137 0.757483
C3 C 0.7952(3) 0.1758(7) 0.8760(6)
C4 C 0.8174(3) 0.1706(7) 0.9756(6)
C6 C 0.7469(3) 0.1661(7) 0.8263(6)
C7 C 0.7254(3) 0.1837(7) 0.7289(6)
H5 H 0.742161 0.196257 0.691868
C8 C 0.6800(3) 0.1832(6) 0.6842(6)
H6 H 0.666343 0.196471 0.617378
C9 C 0.6541(3) 0.1638(7) 0.7352(6)
C10 C 0.6760(3) 0.1409(7) 0.8323(7)
H7 H 0.659378 0.123496 0.868481
C11 C 0.7212(3) 0.1427(8) 0.8774(6)
H8 H 0.735013 0.127844 0.943898
C12 C 0.6055(3) 0.1738(7) 0.6891(6)
C13 C 0.5823(3) 0.1657(8) 0.5900(6)
H9 H 0.597082 0.145075 0.550865
C14 C 0.5385(3) 0.1871(7) 0.5490(6)
H10 H 0.523860 0.181593 0.481385
C15 C 0.5369(3) 0.2199(6) 0.6954(6)
H11 H 0.521059 0.237452 0.733173
C16 C 0.5810(3) 0.2004(7) 0.7417(6)
H12 H 0.594725 0.205135 0.809516
C18 C 0.4385(3) 0.1086(7) 0.6828(7)
C19 C 0.4643(3) 0.3911(7) 0.3866(7)
C20 C 0.4604(3) 0.4202(8) 0.6799(6)
H13 H 0.470453 0.127056 0.007218
C25 C 0.4689(3) 0.3659(6) 0.0048(5)
H16 H 0.487865 0.422328 0.027984
C37 C 0.5378(3) 0.0936(6) 0.2221(6)
C38 C 0.5601(3) 0.4032(7) 0.2441(6)
C40 C 0.5618(3) 0.5952(7) 0.4452(6)
Au6 Au 0.46437(2) 0.51550(3) 0.78380(2)
Fe5 Fe 0.55125(4) 0.75147(10) 0.58593(9)
N13 N 0.3868(2) 0.2880(6) 0.4693(5)
N14 N 0.4423(2) 0.1404(6) 0.4428(5)
N15 N 0.6159(2) 0.2245(5) 0.1466(4)
N16 N 0.5593(2) 0.3481(5) 0.0010(5)
C41 C 0.4604(3) 0.5798(8) 0.1799(6)
N8 N 0.1159(2) 0.2755(5) 0.6466(4)
N12 N 0.5464(2) 0.1473(5) 0.9913(5)
C21 C 0.4589(3) 0.1934(7) 0.9917(6)
C22 C 0.4147(3) 0.2047(7) 0.9384(6)
H14 H 0.396698 0.146749 0.915344
C23 C 0.3961(3) 0.3016(6) 0.9179(5)
C24 C 0.4245(3) 0.3826(7) 0.9539(6)
H15 H 0.413417 0.449636 0.943567
C26 C 0.3486(3) 0.3125(7) 0.8610(6)
C27 C 0.3265(3) 0.2405(7) 0.7902(6)
H17 H 0.342844 0.190828 0.773437
C28 C 0.2813(3) 0.2413(7) 0.7446(6)
H18 H 0.267238 0.191811 0.697040
C29 C 0.2559(3) 0.3120(6) 0.7664(6)
C30 C 0.2779(3) 0.3879(6) 0.8307(6)
H19 H 0.261566 0.440696 0.843230
C31 C 0.3235(3) 0.3880(6) 0.8772(6)
H20 H 0.337642 0.440856 0.920733
C32 C 0.2073(3) 0.3021(6) 0.7252(5)
C33 C 0.1883(3) 0.2082(6) 0.7007(6)
H21 H 0.206414 0.150216 0.709816
C34 C 0.1435(3) 0.1976(7) 0.6632(5)
H22 H 0.131566 0.131538 0.648210
C35 C 0.1342(3) 0.3674(6) 0.6688(5)
H23 H 0.115322 0.424291 0.656510
C36 C 0.1789(3) 0.3838(7) 0.7086(6)
H24 H 0.190228 0.450277 0.724471
C39 C 0.5436(3) 0.0915(7) 0.9322(6)
Fe6 Fe 0.05125(4) 0.25147(10) 0.58593(9)
Fe3 Fe 0.45078(5) 0.74904(11) 0.03401(10)
N5 N 0.4423(2) 0.8596(6) 0.9428(5)
C17 C 0.4392(3) 0.9192(7) 0.8859(7)
Au5 Au 0.43843(2) 0.98548(3) 0.28415(2)
Au8 Au 0.53775(2) 0.99917(2) 0.82462(2)
C42 C 0.5436(3) 0.9085(7) 0.4322(6)
C17_2 C 0.4392(3) 0.0808(7) 0.3859(7)
N1_2 N 0.8868(2) 0.7880(6) 0.4693(5)
N2_2 N 0.5148(2) 0.7844(6) 0.0989(5)
N3_2 N 0.4401(3) 0.8387(6) 0.1234(5)
N6_2 N 0.4585(3) 0.6391(6) 0.1227(5)
C1_2 C 0.8662(3) 0.7873(7) 0.3732(6)
H1_2 H 0.882895 0.773255 0.336369
C2_2 C 0.8218(3) 0.8062(7) 0.3256(6)
H2_2 H 0.809122 0.806863 0.257483
C3_2 C 0.7952(3) 0.8242(7) 0.3760(6)
C4_2 C 0.8174(3) 0.8294(7) 0.4756(6)
H3_2 H 0.801801 0.846910 0.513965
C5_2 C 0.8622(3) 0.8090(7) 0.5191(6)
H4_2 H 0.875979 0.809985 0.587076
C6_2 C 0.7469(3) 0.8339(7) 0.3263(6)
C7_2 C 0.7254(3) 0.8163(7) 0.2289(6)
H5_2 H 0.742161 0.803743 0.191868
C8_2 C 0.6800(3) 0.8168(6) 0.1842(6)
H6_2 H 0.666343 0.803529 0.117378
C9_2 C 0.6541(3) 0.8362(7) 0.2352(6)
C10_2 C 0.6760(3) 0.8591(7) 0.3323(7)
H7_2 H 0.659378 0.876504 0.368481
C11_2 C 0.7212(3) 0.8573(8) 0.3774(6)
H8_2 H 0.735013 0.872156 0.443898
C12_2 C 0.6055(3) 0.8262(7) 0.1891(6)
C13_2 C 0.5823(3) 0.8343(8) 0.0900(6)
H9_2 H 0.597082 0.854925 0.050865
C14_2 C 0.5385(3) 0.8129(7) 0.0490(6)
C15_2 C 0.5369(3) 0.7801(6) 0.1954(6)
H11_2 H 0.521059 0.762548 0.233173
C16_2 C 0.5810(3) 0.7996(7) 0.2417(6)
H12_2 H 0.594725 0.794865 0.309516
C18_2 C 0.4385(3) 0.8914(7) 0.1828(7)
Fe4_2 Fe 0.95078(5) 0.75096(11) 0.53401(10)
Au4_2 Au 0.56172(2) 0.50118(2) 0.84598(2)
N4_2 N 0.4621(3) 0.6597(6) 0.9456(5)
N7_2 N 0.4862(2) 0.7286(6) 0.5225(5)
N8_2 N 0.1159(2) 0.7245(5) 0.1466(4)
N9_2 N 0.5421(2) 0.8510(5) 0.6680(5)
N10_2 N 0.5573(2) 0.6513(5) 0.6830(5)
N12_2 N 0.5464(2) 0.8527(5) 0.4913(5)
H10_2 H 0.523860 0.818407 0.981385
C19_2 C 0.4643(3) 0.6089(7) 0.8866(7)
C21_2 C 0.4589(3) 0.8066(7) 0.4917(6)
H13_2 H 0.470453 0.872944 0.507218
C22_2 C 0.4147(3) 0.7953(7) 0.4384(6)
H14_2 H 0.396698 0.853251 0.415344
C23_2 C 0.3961(3) 0.6984(6) 0.4179(5)
C24_2 C 0.4245(3) 0.6174(7) 0.4539(6)
H15_2 H 0.413417 0.550364 0.443567
C25_2 C 0.4689(3) 0.6341(6) 0.5048(5)
H16_2 H 0.487865 0.577672 0.527984
C26_2 C 0.3486(3) 0.6875(7) 0.3610(6)
C27_2 C 0.3265(3) 0.7595(7) 0.2902(6)
H17_2 H 0.342844 0.809172 0.273437
C28_2 C 0.2813(3) 0.7587(7) 0.2446(6)
H18_2 H 0.267238 0.808189 0.197040
C29_2 C 0.2559(3) 0.6880(6) 0.2664(6)
C30_2 C 0.2779(3) 0.6121(6) 0.3307(6)
H19_2 H 0.261566 0.559304 0.343230
C31_2 C 0.3235(3) 0.6120(6) 0.3772(6)
H20_2 H 0.337642 0.559144 0.420733
C32_2 C 0.2073(3) 0.6979(6) 0.2252(5)
C33_2 C 0.1883(3) 0.7918(6) 0.2007(6)
H21_2 H 0.206414 0.849784 0.209816
C34_2 C 0.1435(3) 0.8024(7) 0.1632(5)
H22_2 H 0.131566 0.868462 0.148210
C35_2 C 0.1342(3) 0.6326(6) 0.1688(5)
H23_2 H 0.115322 0.575709 0.156510
C36_2 C 0.1789(3) 0.6162(7) 0.2086(6)
H24_2 H 0.190228 0.549723 0.224471
C37_2 C 0.5378(3) 0.9064(6) 0.7221(6)
C38_2 C 0.5601(3) 0.5968(7) 0.7441(6)
C40_2 C 0.5618(3) 0.4048(7) 0.9452(6)
Fe6_2 Fe 0.05125(4) 0.74853(10) 0.08593(9)
N13_2 N 0.3868(2) 0.7120(6) 0.9693(5)
N15_2 N 0.6159(2) 0.7755(5) 0.6466(4)
N11_2 N 0.0593(2) 0.1519(5) 0.5010(5)
C40_3 C 0.0618(3) 0.0952(7) 0.4452(6)
H3_3 H 0.301801 0.653090 0.013965
C5_3 C 0.3622(3) 0.6910(7) 0.0191(6)
H4_3 H 0.375979 0.690015 0.087076
Au3_2 Au 0.03775(2) 0.50083(2) 0.32462(2)
Au4_3 Au 0.06172(2) 0.99882(2) 0.34598(2)
N2_3 N 0.0148(2) 0.7156(6) 0.5989(5)
N9_3 N 0.0421(2) 0.6490(5) 0.1680(5)
N10_3 N 0.0573(2) 0.8487(5) 0.1830(5)
C1_3 C 0.3662(3) 0.7127(7) 0.8732(6)
H1_3 H 0.382895 0.726745 0.836369
C2_3 C 0.3218(3) 0.6938(7) 0.8256(6)
H2_3 H 0.309122 0.693137 0.757483
C3_3 C 0.2952(3) 0.6758(7) 0.8760(6)
C4_3 C 0.3174(3) 0.6706(7) 0.9756(6)
C6_3 C 0.2469(3) 0.6661(7) 0.8263(6)
C7_3 C 0.2254(3) 0.6837(7) 0.7289(6)
H5_3 H 0.242161 0.696257 0.691868
C8_3 C 0.1800(3) 0.6832(6) 0.6842(6)
H6_3 H 0.166343 0.696471 0.617378
C9_3 C 0.1541(3) 0.6638(7) 0.7352(6)
C10_3 C 0.1760(3) 0.6409(7) 0.8323(7)
H7_3 H 0.159378 0.623496 0.868481
C11_3 C 0.2212(3) 0.6427(8) 0.8774(6)
H8_3 H 0.235013 0.627844 0.943898
C12_3 C 0.1055(3) 0.6738(7) 0.6891(6)
C13_3 C 0.0823(3) 0.6657(8) 0.5900(6)
H9_3 H 0.097082 0.645075 0.550865
C14_3 C 0.0385(3) 0.6871(7) 0.5490(6)
H10_3 H 0.023860 0.681593 0.481385
C15_3 C 0.0369(3) 0.7199(6) 0.6954(6)
H11_3 H 0.021059 0.737452 0.733173
C16_3 C 0.0810(3) 0.7004(7) 0.7417(6)
H12_3 H 0.094725 0.705135 0.809516
C37_3 C 0.0378(3) 0.5936(6) 0.2221(6)
C38_3 C 0.0601(3) 0.9032(7) 0.2441(6)
Au8_2 Au 0.03775(2) 0.49917(2) 0.82462(2)
N16_2 N 0.0593(2) 0.8481(5) 0.0010(5)
C42_2 C 0.0436(3) 0.4085(7) 0.4322(6)
N12_3 N 0.0464(2) 0.6473(5) 0.9913(5)
C39_2 C 0.0436(3) 0.5915(7) 0.9322(6)
Au6_2 Au 0.96437(2) 0.01550(3) 0.78380(2)
C41_2 C 0.9604(3) 0.0798(8) 0.1799(6)
Au1_2 Au 0.93843(2) 0.51452(3) 0.78415(2)
Au2_2 Au 0.96437(2) 0.98450(3) 0.28380(2)
N3_3 N 0.9401(3) 0.6613(6) 0.6234(5)
N4_3 N 0.9621(3) 0.8403(6) 0.4456(5)
N5_2 N 0.9423(2) 0.3596(6) 0.9428(5)
N6_3 N 0.9585(3) 0.8609(6) 0.6227(5)
N7_3 N 0.9862(2) 0.7714(6) 0.0225(5)
C17_3 C 0.9392(3) 0.4192(7) 0.8859(7)
C18_3 C 0.9385(3) 0.6086(7) 0.6828(7)
C19_3 C 0.9643(3) 0.8911(7) 0.3866(7)
C20_2 C 0.9604(3) 0.9202(8) 0.6799(6)
H13_3 H 0.970453 0.627056 0.007218
C25_3 C 0.9689(3) 0.8659(6) 0.0048(5)
H16_3 H 0.987865 0.922328 0.027984
Au5_2 Au 0.93843(2) 0.48548(3) 0.28415(2)
N14_2 N 0.9423(2) 0.6404(6) 0.4428(5)
C21_3 C 0.9589(3) 0.6934(7) 0.9917(6)
C22_3 C 0.9147(3) 0.7047(7) 0.9384(6)
H14_3 H 0.896698 0.646749 0.915344
C23_3 C 0.8961(3) 0.8016(6) 0.9179(5)
C24_3 C 0.9245(3) 0.8826(7) 0.9539(6)
H15_3 H 0.913417 0.949636 0.943567
C26_3 C 0.8486(3) 0.8125(7) 0.8610(6)
C27_3 C 0.8265(3) 0.7405(7) 0.7902(6)
H17_3 H 0.842844 0.690828 0.773437
C28_3 C 0.7813(3) 0.7413(7) 0.7446(6)
H18_3 H 0.767238 0.691811 0.697040
C29_3 C 0.7559(3) 0.8120(6) 0.7664(6)
C30_3 C 0.7779(3) 0.8879(6) 0.8307(6)
H19_3 H 0.761566 0.940696 0.843230
C31_3 C 0.8235(3) 0.8880(6) 0.8772(6)
H20_3 H 0.837642 0.940856 0.920733
C32_3 C 0.7073(3) 0.8021(6) 0.7252(5)
C33_3 C 0.6883(3) 0.7082(6) 0.7007(6)
H21_3 H 0.706414 0.650216 0.709816
C34_3 C 0.6435(3) 0.6976(7) 0.6632(5)
H22_3 H 0.631566 0.631538 0.648210
C35_3 C 0.6342(3) 0.8674(6) 0.6688(5)
H23_3 H 0.615322 0.924291 0.656510
C36_3 C 0.6789(3) 0.8838(7) 0.7086(6)
H24_3 H 0.690228 0.950277 0.724471
N2_4 N 0.0148(2) 0.2844(6) 0.0989(5)
C1_4 C 0.3662(3) 0.2873(7) 0.3732(6)
H1_4 H 0.382895 0.273255 0.336369
C2_4 C 0.3218(3) 0.3062(7) 0.3256(6)
H2_4 H 0.309122 0.306863 0.257483
C3_4 C 0.2952(3) 0.3242(7) 0.3760(6)
C4_4 C 0.3174(3) 0.3294(7) 0.4756(6)
H3_4 H 0.301801 0.346910 0.513965
C5_4 C 0.3622(3) 0.3090(7) 0.5191(6)
H4_4 H 0.375979 0.309985 0.587076
C6_4 C 0.2469(3) 0.3339(7) 0.3263(6)
C7_4 C 0.2254(3) 0.3163(7) 0.2289(6)
H5_4 H 0.242161 0.303743 0.191868
C8_4 C 0.1800(3) 0.3168(6) 0.1842(6)
H6_4 H 0.166343 0.303529 0.117378
C9_4 C 0.1541(3) 0.3362(7) 0.2352(6)
C10_4 C 0.1760(3) 0.3591(7) 0.3323(7)
H7_4 H 0.159378 0.376504 0.368481
C11_4 C 0.2212(3) 0.3573(8) 0.3774(6)
H8_4 H 0.235013 0.372156 0.443898
C12_4 C 0.1055(3) 0.3262(7) 0.1891(6)
C13_4 C 0.0823(3) 0.3343(8) 0.0900(6)
H9_4 H 0.097082 0.354925 0.050865
C14_4 C 0.0385(3) 0.3129(7) 0.0490(6)
C15_4 C 0.0369(3) 0.2801(6) 0.1954(6)
H11_4 H 0.021059 0.262548 0.233173
C16_4 C 0.0810(3) 0.2996(7) 0.2417(6)
H12_4 H 0.094725 0.294865 0.309516
Au4_4 Au 0.06172(2) 0.00118(2) 0.84598(2)
N9_4 N 0.0421(2) 0.3510(5) 0.6680(5)
N10_4 N 0.0573(2) 0.1513(5) 0.6830(5)
N12_4 N 0.0464(2) 0.3527(5) 0.4913(5)
H10_4 H 0.023860 0.318407 0.981385
C37_4 C 0.0378(3) 0.4064(6) 0.7221(6)
C38_4 C 0.0601(3) 0.0968(7) 0.7441(6)
N3_4 N 0.9401(3) 0.3387(6) 0.1234(5)
N6_4 N 0.9585(3) 0.1391(6) 0.1227(5)
C17_4 C 0.9392(3) 0.5808(7) 0.3859(7)
C18_4 C 0.9385(3) 0.3914(7) 0.1828(7)
N4_4 N 0.9621(3) 0.1597(6) 0.9456(5)
N7_4 N 0.9862(2) 0.2286(6) 0.5225(5)
C19_4 C 0.9643(3) 0.1089(7) 0.8866(7)
C21_4 C 0.9589(3) 0.3066(7) 0.4917(6)
H13_4 H 0.970453 0.372944 0.507218
C22_4 C 0.9147(3) 0.2953(7) 0.4384(6)
H14_4 H 0.896698 0.353251 0.415344
C23_4 C 0.8961(3) 0.1984(6) 0.4179(5)
C24_4 C 0.9245(3) 0.1174(7) 0.4539(6)
H15_4 H 0.913417 0.050364 0.443567
C25_4 C 0.9689(3) 0.1341(6) 0.5048(5)
H16_4 H 0.987865 0.077672 0.527984
C26_4 C 0.8486(3) 0.1875(7) 0.3610(6)
C27_4 C 0.8265(3) 0.2595(7) 0.2902(6)
H17_4 H 0.842844 0.309172 0.273437
C28_4 C 0.7813(3) 0.2587(7) 0.2446(6)
H18_4 H 0.767238 0.308189 0.197040
C29_4 C 0.7559(3) 0.1880(6) 0.2664(6)
C30_4 C 0.7779(3) 0.1121(6) 0.3307(6)
H19_4 H 0.761566 0.059304 0.343230
C31_4 C 0.8235(3) 0.1120(6) 0.3772(6)
H20_4 H 0.837642 0.059144 0.420733
C32_4 C 0.7073(3) 0.1979(6) 0.2252(5)
C33_4 C 0.6883(3) 0.2918(6) 0.2007(6)
H21_4 H 0.706414 0.349784 0.209816
C34_4 C 0.6435(3) 0.3024(7) 0.1632(5)
H22_4 H 0.631566 0.368462 0.148210
C35_4 C 0.6342(3) 0.1326(6) 0.1688(5)
H23_4 H 0.615322 0.075709 0.156510
C36_4 C 0.6789(3) 0.1162(7) 0.2086(6)
H24_4 H 0.690228 0.049723 0.224471
C40_4 C 0.0618(3) 0.9048(7) 0.9452(6)
loop_
_geom_bond_atom_site_label_1
_geom_bond_atom_site_label_2
_geom_bond_site_symmetry_1
_geom_bond_site_symmetry_2
H4 C5 1_555 1_555
Au2 Au4 1_555 1_555
Au3 C37 1_555 1_555
Au4 C38 1_555 1_555
Fe1 N2 1_555 1_555
Fe2 N7 1_555 1_555
N1 C1 1_555 1_555
N2 C14 1_555 1_555
N3 Fe1 1_555 1_555
N4 Fe1 1_555 1_555
N6 Fe1 1_555 1_555
N9 Fe2 1_555 1_555
N10 Fe2 1_555 1_555
N11 C40 1_555 1_555
C1 H1 1_555 1_555
C2 C1 1_555 1_555
H2 C2 1_555 1_555
C3 C2 1_555 1_555
C4 C3 1_555 1_555
C6 C3 1_555 1_555
C7 C6 1_555 1_555
H5 C7 1_555 1_555
C8 C7 1_555 1_555
H6 C8 1_555 1_555
C9 C8 1_555 1_555
C10 C9 1_555 1_555
H7 C10 1_555 1_555
C11 C6 1_555 1_555
H8 C11 1_555 1_555
C12 C9 1_555 1_555
C13 C12 1_555 1_555
H9 C13 1_555 1_555
C14 C13 1_555 1_555
H10 C14 1_555 1_555
C15 N2 1_555 1_555
H11 C15 1_555 1_555
C16 C12 1_555 1_555
H12 C16 1_555 1_555
C18 Au1 1_555 1_555
C19 Au2 1_555 1_555
C20 N6 1_555 1_555
C25 N7 1_555 1_555
H16 C25 1_555 1_555
C37 N9 1_555 1_555
C38 N10 1_555 1_555
C40 Au4 1_555 1_555
Au6 C20 1_555 1_555
Fe5 N11 1_555 1_555
N13 Fe1 1_555 1_555
N14 Fe1 1_555 1_555
N15 Fe2 1_555 1_555
N16 Fe2 1_555 1_555
C41 Au2 1_555 1_555
N3 C18 1_555 1_555
N4 C19 1_555 1_555
C10 C11 1_555 1_555
C15 C16 1_555 1_555
N8 C34 1_555 1_555
C22 C21 1_555 1_555
H14 C22 1_555 1_555
C23 C22 1_555 1_555
C24 C23 1_555 1_555
H15 C24 1_555 1_555
C26 C23 1_555 1_555
C27 C26 1_555 1_555
H17 C27 1_555 1_555
C28 C27 1_555 1_555
H18 C28 1_555 1_555
C29 C28 1_555 1_555
C30 C29 1_555 1_555
H19 C30 1_555 1_555
C31 C26 1_555 1_555
H20 C31 1_555 1_555
C32 C29 1_555 1_555
C33 C32 1_555 1_555
H21 C33 1_555 1_555
C34 C33 1_555 1_555
H22 C34 1_555 1_555
C35 N8 1_555 1_555
H23 C35 1_555 1_555
C36 C32 1_555 1_555
H24 C36 1_555 1_555
C39 N12 1_555 1_555
Fe6 N8 1_555 1_555
C30 C31 1_555 1_555
C35 C36 1_555 1_555
N5 C17 1_555 1_555
N14 C17_2 1_555 1_555
Fe3 N2_2 1_555 1_555
N1_2 C1_2 1_555 1_555
N2_2 C14_2 1_555 1_555
N3_2 Fe3 1_555 1_555
N6_2 Fe3 1_555 1_555
C1_2 H1_2 1_555 1_555
C2_2 C1_2 1_555 1_555
H2_2 C2_2 1_555 1_555
C3_2 C2_2 1_555 1_555
C4_2 C3_2 1_555 1_555
H3_2 C4_2 1_555 1_555
C5_2 N1_2 1_555 1_555
H4_2 C5_2 1_555 1_555
C6_2 C3_2 1_555 1_555
C7_2 C6_2 1_555 1_555
H5_2 C7_2 1_555 1_555
C8_2 C7_2 1_555 1_555
H6_2 C8_2 1_555 1_555
C9_2 C8_2 1_555 1_555
C10_2 C9_2 1_555 1_555
H7_2 C10_2 1_555 1_555
C11_2 C6_2 1_555 1_555
H8_2 C11_2 1_555 1_555
C12_2 C9_2 1_555 1_555
C13_2 C12_2 1_555 1_555
H9_2 C13_2 1_555 1_555
C14_2 C13_2 1_555 1_555
C15_2 N2_2 1_555 1_555
H11_2 C15_2 1_555 1_555
C16_2 C12_2 1_555 1_555
H12_2 C16_2 1_555 1_555
C18_2 Au5 1_555 1_555
C41 N6_2 1_555 1_555
Fe4_2 N1_2 1_555 1_555
N3_2 C18_2 1_555 1_555
C4_2 C5_2 1_555 1_555
C10_2 C11_2 1_555 1_555
C15_2 C16_2 1_555 1_555
Au6 Au4_2 1_555 1_555
Au8 C37_2 1_555 1_555
Au4_2 C38_2 1_555 1_555
Fe5 N7_2 1_555 1_555
N7_2 C21_2 1_555 1_555
N8_2 C34_2 1_555 1_555
N9_2 Fe5 1_555 1_555
N10_2 Fe5 1_555 1_555
N12_2 Fe5 1_555 1_555
C19_2 Au6 1_555 1_555
C21_2 H13_2 1_555 1_555
C22_2 C21_2 1_555 1_555
H14_2 C22_2 1_555 1_555
C23_2 C22_2 1_555 1_555
C24_2 C23_2 1_555 1_555
H15_2 C24_2 1_555 1_555
C25_2 N7_2 1_555 1_555
H16_2 C25_2 1_555 1_555
C26_2 C23_2 1_555 1_555
C27_2 C26_2 1_555 1_555
H17_2 C27_2 1_555 1_555
C28_2 C27_2 1_555 1_555
H18_2 C28_2 1_555 1_555
C29_2 C28_2 1_555 1_555
C30_2 C29_2 1_555 1_555
H19_2 C30_2 1_555 1_555
C31_2 C26_2 1_555 1_555
H20_2 C31_2 1_555 1_555
C32_2 C29_2 1_555 1_555
C33_2 C32_2 1_555 1_555
H21_2 C33_2 1_555 1_555
C34_2 C33_2 1_555 1_555
H22_2 C34_2 1_555 1_555
C35_2 N8_2 1_555 1_555
H23_2 C35_2 1_555 1_555
C36_2 C32_2 1_555 1_555
H24_2 C36_2 1_555 1_555
C37_2 N9_2 1_555 1_555
C38_2 N10_2 1_555 1_555
C42 N12_2 1_555 1_555
C40_2 Au4_2 1_555 1_555
Fe6_2 N8_2 1_555 1_555
N15_2 Fe5 1_555 1_555
N4_2 C19_2 1_555 1_555
C24_2 C25_2 1_555 1_555
C30_2 C31_2 1_555 1_555
C35_2 C36_2 1_555 1_555
N11_2 C40_3 1_555 1_555
Fe6 N11_2 1_555 1_555
H4_3 C5_3 1_555 1_555
Au3_2 C37_3 1_555 1_555
Au4_3 C38_3 1_555 1_555
N13_2 C1_3 1_555 1_555
N2_3 C14_3 1_555 1_555
N9_3 Fe6_2 1_555 1_555
N10_3 Fe6_2 1_555 1_555
C1_3 H1_3 1_555 1_555
C2_3 C1_3 1_555 1_555
H2_3 C2_3 1_555 1_555
C3_3 C2_3 1_555 1_555
C4_3 C3_3 1_555 1_555
C6_3 C3_3 1_555 1_555
C7_3 C6_3 1_555 1_555
H5_3 C7_3 1_555 1_555
C8_3 C7_3 1_555 1_555
H6_3 C8_3 1_555 1_555
C9_3 C8_3 1_555 1_555
C10_3 C9_3 1_555 1_555
H7_3 C10_3 1_555 1_555
C11_3 C6_3 1_555 1_555
H8_3 C11_3 1_555 1_555
C12_3 C9_3 1_555 1_555
C13_3 C12_3 1_555 1_555
H9_3 C13_3 1_555 1_555
C14_3 C13_3 1_555 1_555
H10_3 C14_3 1_555 1_555
C15_3 N2_3 1_555 1_555
H11_3 C15_3 1_555 1_555
C16_3 C12_3 1_555 1_555
H12_3 C16_3 1_555 1_555
C37_3 N9_3 1_555 1_555
C38_3 N10_3 1_555 1_555
N16_2 Fe6_2 1_555 1_555
C42_2 Au3_2 1_555 1_555
C10_3 C11_3 1_555 1_555
C15_3 C16_3 1_555 1_555
C39_2 N12_3 1_555 1_555
Au8_2 C39_2 1_555 1_555
Au1_2 C17_3 1_555 1_555
N3_3 Fe4_2 1_555 1_555
N4_3 Fe4_2 1_555 1_555
N5_2 C17_3 1_555 1_555
N6_3 Fe4_2 1_555 1_555
C18_3 Au1_2 1_555 1_555
C19_3 Au2_2 1_555 1_555
C20_2 N6_3 1_555 1_555
C25_3 N7_3 1_555 1_555
H16_3 C25_3 1_555 1_555
N14_2 Fe4_2 1_555 1_555
N3_3 C18_3 1_555 1_555
N4_3 C19_3 1_555 1_555
N15_2 C34_3 1_555 1_555
C22_3 C21_3 1_555 1_555
H14_3 C22_3 1_555 1_555
C23_3 C22_3 1_555 1_555
C24_3 C23_3 1_555 1_555
H15_3 C24_3 1_555 1_555
C26_3 C23_3 1_555 1_555
C27_3 C26_3 1_555 1_555
H17_3 C27_3 1_555 1_555
C28_3 C27_3 1_555 1_555
H18_3 C28_3 1_555 1_555
C29_3 C28_3 1_555 1_555
C30_3 C29_3 1_555 1_555
H19_3 C30_3 1_555 1_555
C31_3 C26_3 1_555 1_555
H20_3 C31_3 1_555 1_555
C32_3 C29_3 1_555 1_555
C33_3 C32_3 1_555 1_555
H21_3 C33_3 1_555 1_555
C34_3 C33_3 1_555 1_555
H22_3 C34_3 1_555 1_555
C35_3 N15_2 1_555 1_555
H23_3 C35_3 1_555 1_555
C36_3 C32_3 1_555 1_555
H24_3 C36_3 1_555 1_555
C30_3 C31_3 1_555 1_555
C35_3 C36_3 1_555 1_555
N13 C1_4 1_555 1_555
N2_4 C14_4 1_555 1_555
C1_4 H1_4 1_555 1_555
C2_4 C1_4 1_555 1_555
H2_4 C2_4 1_555 1_555
C3_4 C2_4 1_555 1_555
C4_4 C3_4 1_555 1_555
H3_4 C4_4 1_555 1_555
C5_4 N13 1_555 1_555
H4_4 C5_4 1_555 1_555
C6_4 C3_4 1_555 1_555
C7_4 C6_4 1_555 1_555
H5_4 C7_4 1_555 1_555
C8_4 C7_4 1_555 1_555
H6_4 C8_4 1_555 1_555
C9_4 C8_4 1_555 1_555
C10_4 C9_4 1_555 1_555
H7_4 C10_4 1_555 1_555
C11_4 C6_4 1_555 1_555
H8_4 C11_4 1_555 1_555
C12_4 C9_4 1_555 1_555
C13_4 C12_4 1_555 1_555
H9_4 C13_4 1_555 1_555
C14_4 C13_4 1_555 1_555
C15_4 N2_4 1_555 1_555
H11_4 C15_4 1_555 1_555
C16_4 C12_4 1_555 1_555
H12_4 C16_4 1_555 1_555
C4_4 C5_4 1_555 1_555
C10_4 C11_4 1_555 1_555
C15_4 C16_4 1_555 1_555
Au8_2 C37_4 1_555 1_555
Au4_4 C38_4 1_555 1_555
N9_4 Fe6 1_555 1_555
N10_4 Fe6 1_555 1_555
N12_4 Fe6 1_555 1_555
C37_4 N9_4 1_555 1_555
C38_4 N10_4 1_555 1_555
C42_2 N12_4 1_555 1_555
Au5_2 C17_4 1_555 1_555
N3_4 Fe4 1_555 1_555
N14_2 C17_4 1_555 1_555
N6_4 Fe4 1_555 1_555
C18_4 Au5_2 1_555 1_555
C41_2 N6_4 1_555 1_555
N3_4 C18_4 1_555 1_555
N7_4 C21_4 1_555 1_555
N15 C34_4 1_555 1_555
C19_4 Au6_2 1_555 1_555
C21_4 H13_4 1_555 1_555
C22_4 C21_4 1_555 1_555
H14_4 C22_4 1_555 1_555
C23_4 C22_4 1_555 1_555
C24_4 C23_4 1_555 1_555
H15_4 C24_4 1_555 1_555
C25_4 N7_4 1_555 1_555
H16_4 C25_4 1_555 1_555
C26_4 C23_4 1_555 1_555
C27_4 C26_4 1_555 1_555
H17_4 C27_4 1_555 1_555
C28_4 C27_4 1_555 1_555
H18_4 C28_4 1_555 1_555
C29_4 C28_4 1_555 1_555
C30_4 C29_4 1_555 1_555
H19_4 C30_4 1_555 1_555
C31_4 C26_4 1_555 1_555
H20_4 C31_4 1_555 1_555
C32_4 C29_4 1_555 1_555
C33_4 C32_4 1_555 1_555
H21_4 C33_4 1_555 1_555
C34_4 C33_4 1_555 1_555
H22_4 C34_4 1_555 1_555
C35_4 N15 1_555 1_555
H23_4 C35_4 1_555 1_555
C36_4 C32_4 1_555 1_555
H24_4 C36_4 1_555 1_555
N4_4 C19_4 1_555 1_555
C24_4 C25_4 1_555 1_555
C30_4 C31_4 1_555 1_555
C35_4 C36_4 1_555 1_555

#END
