
###############################################################################
#
# This file contains modified crystal structure data generated from the
# MOF subset of the Cambridge Structural Database (CSD) v543 
# hosted by the Cambridge Crystallographic Data Centre (CCDC).
#
# This work is licensed under the Creative Commons
# Attribution-NonCommercial-ShareAlike 4.0 International License.
# To view a copy of this license, visit
# http://creativecommons.org/licenses/by-nc-sa/4.0/
# or send a letter to
# Creative Commons, PO Box 1866, Mountain View, CA 94042, USA.
#
# CIF created using the CSD Python API on 29 September 2022
# The structure has been converted into the P1 space group
# The structure has a 3D framework
# The original CSD entry GILJAP is in the monoclinic crystal system
# The framework has been calculated to contain at least 10.0% void space
# The void calculation uses a probe of radius 1.32A, grid spacing 0.4
#
###############################################################################

data_GILJAP
_chemical_formula_moiety         '(C160 H96 Au16 N48 Zn8)n'
_symmetry_cell_setting           triclinic
_symmetry_space_group_name_H-M   'P 1'
_symmetry_Int_Tables_number      1
_space_group_name_Hall           'P 1'
loop_
_symmetry_equiv_pos_site_id
_symmetry_equiv_pos_as_xyz
1 x,y,z
_cell_length_a                   33.219(3)
_cell_length_b                   12.9438(10)
_cell_length_c                   16.3125(13)
_cell_angle_alpha                90
_cell_angle_beta                 111.934(3)
_cell_angle_gamma                90
_cell_volume                     6506.34
loop_
_atom_site_label
_atom_site_type_symbol
_atom_site_fract_x
_atom_site_fract_y
_atom_site_fract_z
Au2 Au 0.42913(2) 0.01877(4) 0.29232(3)
Au4 Au 0.52772(2) 0.00072(5) 0.36510(4)
N4 N 0.4304(5) 0.1550(11) 0.4535(9)
C19 C 0.4313(5) 0.1068(12) 0.3938(11)
Zn4 Zn 0.41231(6) 0.24725(14) 0.54076(12)
C41 C 0.5253(5) 0.0863(15) 0.2623(13)
Au1 Au 0.39980(2) 0.51896(4) 0.29265(3)
Au3 Au 0.50138(2) 0.50421(5) 0.34137(4)
Zn1 Zn 0.41231(6) 0.75275(14) 0.04076(12)
Zn2 Zn 0.51683(6) 0.74794(13) 0.60633(11)
N3 N 0.3958(4) 0.6567(11) 0.1335(11)
N5 N 0.4024(5) 0.3750(10) 0.4489(9)
N6 N 0.4195(5) 0.8777(10) 0.1306(10)
N7 N 0.4492(4) 0.7753(8) 0.5420(9)
N8 N 0.0858(4) 0.7758(11) 0.1713(8)
N9 N 0.5140(5) 0.6342(12) 0.5102(10)
N10 N 0.5289(5) 0.8622(12) 0.5229(11)
N11 N 0.5224(5) 0.8629(13) 0.7037(11)
N12 N 0.5044(5) 0.3669(12) 0.1861(11)
H3 H 0.257005 0.852864 0.003253
C5 C 0.3176(4) 0.8215(12) 0.0129(8)
H4 H 0.329199 0.824240 0.075642
C17 C 0.4010(5) 0.4293(12) 0.3916(10)
C18 C 0.3970(5) 0.6074(14) 0.1898(13)
C20 C 0.4237(6) 0.9316(13) 0.1907(13)
C21 C 0.4244(5) 0.6905(11) 0.5129(11)
H13 H 0.437885 0.624601 0.526544
C22 C 0.3794(5) 0.6953(11) 0.4629(13)
H14 H 0.362368 0.634278 0.445596
C23 C 0.3604(4) 0.7953(12) 0.4395(10)
C24 C 0.3875(5) 0.8812(12) 0.4689(11)
H15 H 0.375952 0.948942 0.454852
C25 C 0.4316(4) 0.8673(10) 0.5190(11)
H16 H 0.449576 0.926572 0.537254
C26 C 0.3140(5) 0.8045(11) 0.3856(11)
C27 C 0.2938(4) 0.7291(12) 0.3217(11)
H17 H 0.311120 0.677271 0.309828
C28 C 0.2493(5) 0.7280(15) 0.2753(14)
H18 H 0.236443 0.676479 0.231894
C29 C 0.2234(4) 0.8047(11) 0.2936(10)
C30 C 0.2440(4) 0.8833(10) 0.3532(10)
H19 H 0.227031 0.937653 0.362773
C31 C 0.2883(5) 0.8841(10) 0.3984(10)
H20 H 0.301452 0.938765 0.438337
C32 C 0.1757(4) 0.7976(10) 0.2498(10)
C33 C 0.1558(5) 0.7029(11) 0.2277(12)
H21 H 0.172823 0.641705 0.241949
C34 C 0.1111(5) 0.6960(10) 0.1845(13)
H22 H 0.098513 0.630388 0.163968
C35 C 0.1046(5) 0.8717(10) 0.1937(10)
H23 H 0.086477 0.931030 0.182133
C36 C 0.1487(5) 0.8843(10) 0.2322(11)
H24 H 0.160787 0.951486 0.246843
C37 C 0.5093(5) 0.5861(13) 0.4480(11)
C38 C 0.5292(5) 0.9140(13) 0.4653(12)
C39 C 0.5007(6) 0.4193(14) 0.2388(12)
C40 C 0.5253(5) 0.9137(15) 0.7623(13)
Au5 Au 0.52772(2) 0.99928(5) 0.86510(4)
Zn6 Zn 0.51683(6) 0.25206(13) 0.10633(11)
Zn7 Zn 0.01683(6) 0.75206(13) 0.10633(11)
N13 N 0.4792(4) 0.7082(9) 0.1091(9)
N16 N 0.5858(4) 0.7242(11) 0.6713(8)
N17 N 0.5044(5) 0.6331(12) 0.6861(11)
N1 N 0.3450(4) 0.8006(9) 0.9708(8)
C1 C 0.3274(5) 0.8021(13) 0.8812(9)
H1 H 0.345887 0.790988 0.849584
C2 C 0.2842(4) 0.8188(12) 0.8344(10)
H2 H 0.273514 0.818458 0.771674
C3 C 0.2550(5) 0.8366(11) 0.8779(10)
C4 C 0.2744(5) 0.8388(13) 0.9698(10)
C6 C 0.2083(4) 0.8446(10) 0.8314(10)
C7 C 0.1891(4) 0.8281(10) 0.7383(9)
H5 H 0.207050 0.818553 0.705153
C8 C 0.1448(4) 0.8259(9) 0.6964(9)
H6 H 0.132676 0.813077 0.634661
C9 C 0.1168(5) 0.8421(12) 0.7421(10)
C10 C 0.1354(5) 0.8657(12) 0.8293(10)
H7 H 0.117136 0.881881 0.860619
C11 C 0.1800(4) 0.8669(12) 0.8746(10)
H8 H 0.191566 0.883168 0.935795
C12 C 0.0688(4) 0.8302(10) 0.6961(10)
C13 C 0.0477(5) 0.8447(13) 0.6053(10)
H9 H 0.063371 0.867968 0.570608
C14 C 0.0035(4) 0.8247(15) 0.5661(11)
C16 C 0.0433(5) 0.7953(12) 0.7422(10)
H12 H 0.056079 0.783196 0.803993
N14 N 0.4304(5) 0.8450(11) 0.9535(9)
N15 N 0.4024(5) 0.6250(10) 0.9489(9)
N2 N 0.9792(4) 0.7918(9) 0.6091(9)
H10 H 0.989805 0.835482 0.504179
C15 C 0.9995(5) 0.7788(11) 0.6970(9)
H11 H 0.982656 0.756913 0.729848
Zn5 Zn 0.91231(6) 0.74725(14) 0.54076(12)
N7_2 N 0.4492(4) 0.2247(8) 0.0420(9)
N9_2 N 0.5140(5) 0.3658(12) 0.0102(10)
N10_2 N 0.5289(5) 0.1378(12) 0.0229(11)
N11_2 N 0.5224(5) 0.1371(13) 0.2037(11)
C21_2 C 0.4244(5) 0.3095(11) 0.0129(11)
H13_2 H 0.437885 0.375399 0.026544
C25_2 C 0.4316(4) 0.1327(10) 0.0190(11)
H16_2 H 0.449576 0.073428 0.037254
N16_2 N 0.5858(4) 0.2758(11) 0.1713(8)
Au1_2 Au 0.39980(2) 0.48104(4) 0.79265(3)
Au3_2 Au 0.50138(2) 0.49579(5) 0.84137(4)
N1_2 N 0.3450(4) 0.1994(9) 0.4708(8)
N3_2 N 0.3958(4) 0.3433(11) 0.6335(11)
N6_2 N 0.4195(5) 0.1223(10) 0.6306(10)
N8_2 N 0.0858(4) 0.2242(11) 0.6713(8)
C1_2 C 0.3274(5) 0.1979(13) 0.3812(9)
H1_2 H 0.345887 0.209012 0.349584
C2_2 C 0.2842(4) 0.1812(12) 0.3344(10)
H2_2 H 0.273514 0.181542 0.271674
C3_2 C 0.2550(5) 0.1634(11) 0.3779(10)
C4_2 C 0.2744(5) 0.1612(13) 0.4698(10)
H3_2 H 0.257005 0.147136 0.503253
C5_2 C 0.3176(4) 0.1785(12) 0.5129(8)
H4_2 H 0.329199 0.175760 0.575642
C6_2 C 0.2083(4) 0.1554(10) 0.3314(10)
C7_2 C 0.1891(4) 0.1719(10) 0.2383(9)
H5_2 H 0.207050 0.181447 0.205153
C8_2 C 0.1448(4) 0.1741(9) 0.1964(9)
H6_2 H 0.132676 0.186923 0.134661
C9_2 C 0.1168(5) 0.1579(12) 0.2421(10)
C10_2 C 0.1354(5) 0.1343(12) 0.3293(10)
H7_2 H 0.117136 0.118119 0.360619
C11_2 C 0.1800(4) 0.1331(12) 0.3746(10)
H8_2 H 0.191566 0.116832 0.435795
C12_2 C 0.0688(4) 0.1698(10) 0.1961(10)
C13_2 C 0.0477(5) 0.1553(13) 0.1053(10)
H9_2 H 0.063371 0.132032 0.070608
C14_2 C 0.0035(4) 0.1753(15) 0.0661(11)
C16_2 C 0.0433(5) 0.2047(12) 0.2422(10)
H12_2 H 0.056079 0.216804 0.303993
C17_2 C 0.4010(5) 0.5707(12) 0.8916(10)
C18_2 C 0.3970(5) 0.3926(14) 0.6898(13)
C20_2 C 0.4237(6) 0.0684(13) 0.6907(13)
C22_2 C 0.3794(5) 0.3047(11) 0.9629(13)
H14_2 H 0.362368 0.365722 0.945596
C23_2 C 0.3604(4) 0.2047(12) 0.9395(10)
C24_2 C 0.3875(5) 0.1188(12) 0.9689(11)
H15_2 H 0.375952 0.051058 0.954852
C26_2 C 0.3140(5) 0.1955(11) 0.8856(11)
C27_2 C 0.2938(4) 0.2709(12) 0.8217(11)
H17_2 H 0.311120 0.322729 0.809828
C28_2 C 0.2493(5) 0.2720(15) 0.7753(14)
H18_2 H 0.236443 0.323521 0.731894
C29_2 C 0.2234(4) 0.1953(11) 0.7936(10)
C30_2 C 0.2440(4) 0.1167(10) 0.8532(10)
H19_2 H 0.227031 0.062347 0.862773
C31_2 C 0.2883(5) 0.1159(10) 0.8984(10)
H20_2 H 0.301452 0.061235 0.938337
C32_2 C 0.1757(4) 0.2024(10) 0.7498(10)
C33_2 C 0.1558(5) 0.2971(11) 0.7277(12)
H21_2 H 0.172823 0.358295 0.741949
C34_2 C 0.1111(5) 0.3040(10) 0.6845(13)
H22_2 H 0.098513 0.369612 0.663968
C35_2 C 0.1046(5) 0.1283(10) 0.6937(10)
H23_2 H 0.086477 0.068970 0.682133
C36_2 C 0.1487(5) 0.1157(10) 0.7322(11)
H24_2 H 0.160787 0.048514 0.746843
C37_2 C 0.5093(5) 0.4139(13) 0.9480(11)
C38_2 C 0.5292(5) 0.0860(13) 0.9653(12)
C39_2 C 0.5007(6) 0.5807(14) 0.7388(12)
Zn7_2 Zn 0.01683(6) 0.24794(13) 0.60633(11)
N13_2 N 0.4792(4) 0.2918(9) 0.6091(9)
Au2_2 Au 0.42913(2) 0.98123(4) 0.79232(3)
C19_2 C 0.4313(5) 0.8932(12) 0.8938(11)
N2_2 N 0.9792(4) 0.2082(9) 0.1091(9)
H10_2 H 0.989805 0.164518 0.004179
C15_2 C 0.9995(5) 0.2212(11) 0.1970(9)
H11_2 H 0.982656 0.243087 0.229848
Zn5_2 Zn 0.91231(6) 0.25275(14) 0.04076(12)
Au3_3 Au 0.00138(2) 0.00421(5) 0.34137(4)
Au4_2 Au 0.02772(2) 0.50072(5) 0.36510(4)
N9_3 N 0.0140(5) 0.1342(12) 0.5102(10)
N10_3 N 0.0289(5) 0.3622(12) 0.5229(11)
N11_3 N 0.0224(5) 0.3629(13) 0.7037(11)
C37_3 C 0.0093(5) 0.0861(13) 0.4480(11)
C38_3 C 0.0292(5) 0.4140(13) 0.4653(12)
C40_2 C 0.0253(5) 0.4137(15) 0.7623(13)
Au5_2 Au 0.02772(2) 0.49928(5) 0.86510(4)
N17_2 N 0.0044(5) 0.1331(12) 0.6861(11)
C41_2 C 0.0253(5) 0.5863(15) 0.2623(13)
N12_2 N 0.0044(5) 0.8669(12) 0.1861(11)
C39_3 C 0.0007(6) 0.9193(14) 0.2388(12)
Au1_3 Au 0.89980(2) 0.01896(4) 0.29265(3)
Au2_3 Au 0.92913(2) 0.51877(4) 0.29232(3)
N3_3 N 0.8958(4) 0.1567(11) 0.1335(11)
N4_2 N 0.9304(5) 0.6550(11) 0.4535(9)
N6_3 N 0.9195(5) 0.3777(10) 0.1306(10)
N7_3 N 0.9492(4) 0.2753(8) 0.5420(9)
H3_3 H 0.757005 0.352864 0.003253
C5_3 C 0.8176(4) 0.3215(12) 0.0129(8)
H4_3 H 0.829199 0.324240 0.075642
C18_3 C 0.8970(5) 0.1074(14) 0.1898(13)
C19_3 C 0.9313(5) 0.6068(12) 0.3938(11)
C20_3 C 0.9237(6) 0.4316(13) 0.1907(13)
C21_3 C 0.9244(5) 0.1905(11) 0.5129(11)
H13_3 H 0.937885 0.124601 0.526544
C22_3 C 0.8794(5) 0.1953(11) 0.4629(13)
H14_3 H 0.862368 0.134278 0.445596
C23_3 C 0.8604(4) 0.2953(12) 0.4395(10)
C24_3 C 0.8875(5) 0.3812(12) 0.4689(11)
H15_3 H 0.875952 0.448942 0.454852
C25_3 C 0.9316(4) 0.3673(10) 0.5190(11)
H16_3 H 0.949576 0.426572 0.537254
C26_3 C 0.8140(5) 0.3045(11) 0.3856(11)
C27_3 C 0.7938(4) 0.2291(12) 0.3217(11)
H17_3 H 0.811120 0.177271 0.309828
C28_3 C 0.7493(5) 0.2280(15) 0.2753(14)
H18_3 H 0.736443 0.176479 0.231894
C29_3 C 0.7234(4) 0.3047(11) 0.2936(10)
C30_3 C 0.7440(4) 0.3833(10) 0.3532(10)
H19_3 H 0.727031 0.437653 0.362773
C31_3 C 0.7883(5) 0.3841(10) 0.3984(10)
H20_3 H 0.801452 0.438765 0.438337
C32_3 C 0.6757(4) 0.2976(10) 0.2498(10)
C33_3 C 0.6558(5) 0.2029(11) 0.2277(12)
H21_3 H 0.672823 0.141705 0.241949
C34_3 C 0.6111(5) 0.1960(10) 0.1845(13)
H22_3 H 0.598513 0.130388 0.163968
C35_3 C 0.6046(5) 0.3717(10) 0.1937(10)
H23_3 H 0.586477 0.431030 0.182133
C36_3 C 0.6487(5) 0.3843(10) 0.2322(11)
H24_3 H 0.660787 0.451486 0.246843
N1_3 N 0.8450(4) 0.3006(9) 0.9708(8)
C1_3 C 0.8274(5) 0.3021(13) 0.8812(9)
H1_3 H 0.845887 0.290988 0.849584
C2_3 C 0.7842(4) 0.3188(12) 0.8344(10)
H2_3 H 0.773514 0.318458 0.771674
C3_3 C 0.7550(5) 0.3366(11) 0.8779(10)
C4_3 C 0.7744(5) 0.3388(13) 0.9698(10)
C6_3 C 0.7083(4) 0.3446(10) 0.8314(10)
C7_3 C 0.6891(4) 0.3281(10) 0.7383(9)
H5_3 H 0.707050 0.318553 0.705153
C8_3 C 0.6448(4) 0.3259(9) 0.6964(9)
H6_3 H 0.632676 0.313077 0.634661
C9_3 C 0.6168(5) 0.3421(12) 0.7421(10)
C10_3 C 0.6354(5) 0.3657(12) 0.8293(10)
H7_3 H 0.617136 0.381881 0.860619
C11_3 C 0.6800(4) 0.3669(12) 0.8746(10)
H8_3 H 0.691566 0.383168 0.935795
C12_3 C 0.5688(4) 0.3302(10) 0.6961(10)
C13_3 C 0.5477(5) 0.3447(13) 0.6053(10)
H9_3 H 0.563371 0.367968 0.570608
C14_3 C 0.5035(4) 0.3247(15) 0.5661(11)
H10_3 H 0.489805 0.335482 0.504179
C15_3 C 0.4995(5) 0.2788(11) 0.6970(9)
H11_3 H 0.482656 0.256913 0.729848
C16_3 C 0.5433(5) 0.2953(12) 0.7422(10)
H12_3 H 0.556079 0.283196 0.803993
N14_2 N 0.9304(5) 0.3450(11) 0.9535(9)
N15_2 N 0.9024(5) 0.1250(10) 0.9489(9)
N5_2 N 0.9024(5) 0.8750(10) 0.4489(9)
C17_3 C 0.9010(5) 0.9293(12) 0.3916(10)
C39_4 C 0.0007(6) 0.0807(14) 0.7388(12)
N9_4 N 0.0140(5) 0.8658(12) 0.0102(10)
N10_4 N 0.0289(5) 0.6378(12) 0.0229(11)
N11_4 N 0.0224(5) 0.6371(13) 0.2037(11)
Au3_4 Au 0.00138(2) 0.99579(5) 0.84137(4)
C37_4 C 0.0093(5) 0.9139(13) 0.9480(11)
C38_4 C 0.0292(5) 0.5860(13) 0.9653(12)
C17_4 C 0.9010(5) 0.0707(12) 0.8916(10)
N7_4 N 0.9492(4) 0.7247(8) 0.0420(9)
C21_4 C 0.9244(5) 0.8095(11) 0.0129(11)
H13_4 H 0.937885 0.875399 0.026544
C25_4 C 0.9316(4) 0.6327(10) 0.0190(11)
H16_4 H 0.949576 0.573428 0.037254
Au1_4 Au 0.89980(2) 0.98104(4) 0.79265(3)
Au2_4 Au 0.92913(2) 0.48123(4) 0.79232(3)
N1_4 N 0.8450(4) 0.6994(9) 0.4708(8)
N3_4 N 0.8958(4) 0.8433(11) 0.6335(11)
N6_4 N 0.9195(5) 0.6223(10) 0.6306(10)
C1_4 C 0.8274(5) 0.6979(13) 0.3812(9)
H1_4 H 0.845887 0.709012 0.349584
C2_4 C 0.7842(4) 0.6812(12) 0.3344(10)
H2_4 H 0.773514 0.681542 0.271674
C3_4 C 0.7550(5) 0.6634(11) 0.3779(10)
C4_4 C 0.7744(5) 0.6612(13) 0.4698(10)
H3_4 H 0.757005 0.647136 0.503253
C5_4 C 0.8176(4) 0.6785(12) 0.5129(8)
H4_4 H 0.829199 0.675760 0.575642
C6_4 C 0.7083(4) 0.6554(10) 0.3314(10)
C7_4 C 0.6891(4) 0.6719(10) 0.2383(9)
H5_4 H 0.707050 0.681447 0.205153
C8_4 C 0.6448(4) 0.6741(9) 0.1964(9)
H6_4 H 0.632676 0.686923 0.134661
C9_4 C 0.6168(5) 0.6579(12) 0.2421(10)
C10_4 C 0.6354(5) 0.6343(12) 0.3293(10)
H7_4 H 0.617136 0.618119 0.360619
C11_4 C 0.6800(4) 0.6331(12) 0.3746(10)
H8_4 H 0.691566 0.616832 0.435795
C12_4 C 0.5688(4) 0.6698(10) 0.1961(10)
C13_4 C 0.5477(5) 0.6553(13) 0.1053(10)
H9_4 H 0.563371 0.632032 0.070608
C14_4 C 0.5035(4) 0.6753(15) 0.0661(11)
H10_4 H 0.489805 0.664518 0.004179
C15_4 C 0.4995(5) 0.7212(11) 0.1970(9)
H11_4 H 0.482656 0.743087 0.229848
C16_4 C 0.5433(5) 0.7047(12) 0.2422(10)
H12_4 H 0.556079 0.716804 0.303993
C18_4 C 0.8970(5) 0.8926(14) 0.6898(13)
C19_4 C 0.9313(5) 0.3932(12) 0.8938(11)
C20_4 C 0.9237(6) 0.5684(13) 0.6907(13)
C22_4 C 0.8794(5) 0.8047(11) 0.9629(13)
H14_4 H 0.862368 0.865722 0.945596
C23_4 C 0.8604(4) 0.7047(12) 0.9395(10)
C24_4 C 0.8875(5) 0.6188(12) 0.9689(11)
H15_4 H 0.875952 0.551058 0.954852
C26_4 C 0.8140(5) 0.6955(11) 0.8856(11)
C27_4 C 0.7938(4) 0.7709(12) 0.8217(11)
H17_4 H 0.811120 0.822729 0.809828
C28_4 C 0.7493(5) 0.7720(15) 0.7753(14)
H18_4 H 0.736443 0.823521 0.731894
C29_4 C 0.7234(4) 0.6953(11) 0.7936(10)
C30_4 C 0.7440(4) 0.6167(10) 0.8532(10)
H19_4 H 0.727031 0.562347 0.862773
C31_4 C 0.7883(5) 0.6159(10) 0.8984(10)
H20_4 H 0.801452 0.561235 0.938337
C32_4 C 0.6757(4) 0.7024(10) 0.7498(10)
C33_4 C 0.6558(5) 0.7971(11) 0.7277(12)
H21_4 H 0.672823 0.858295 0.741949
C34_4 C 0.6111(5) 0.8040(10) 0.6845(13)
H22_4 H 0.598513 0.869612 0.663968
C35_4 C 0.6046(5) 0.6283(10) 0.6937(10)
H23_4 H 0.586477 0.568970 0.682133
C36_4 C 0.6487(5) 0.6157(10) 0.7322(11)
H24_4 H 0.660787 0.548514 0.746843
loop_
_geom_bond_atom_site_label_1
_geom_bond_atom_site_label_2
_geom_bond_site_symmetry_1
_geom_bond_site_symmetry_2
Au2 Au4 1_555 1_555
N4 C19 1_555 1_555
C19 Au2 1_555 1_555
Zn4 N4 1_555 1_555
C41 Au4 1_555 1_555
Au1 Au3 1_555 1_555
Au3 C37 1_555 1_555
Zn2 N7 1_555 1_555
N3 Zn1 1_555 1_555
N5 C17 1_555 1_555
N6 Zn1 1_555 1_555
N7 C21 1_555 1_555
N8 C34 1_555 1_555
N9 Zn2 1_555 1_555
N10 Zn2 1_555 1_555
N11 Zn2 1_555 1_555
N12 C39 1_555 1_555
H4 C5 1_555 1_555
C17 Au1 1_555 1_555
C18 Au1 1_555 1_555
C21 H13 1_555 1_555
C22 C21 1_555 1_555
H14 C22 1_555 1_555
C23 C22 1_555 1_555
C24 C23 1_555 1_555
H15 C24 1_555 1_555
C25 N7 1_555 1_555
H16 C25 1_555 1_555
C26 C23 1_555 1_555
C27 C26 1_555 1_555
H17 C27 1_555 1_555
C28 C27 1_555 1_555
H18 C28 1_555 1_555
C29 C28 1_555 1_555
C30 C29 1_555 1_555
H19 C30 1_555 1_555
C31 C26 1_555 1_555
H20 C31 1_555 1_555
C32 C29 1_555 1_555
C33 C32 1_555 1_555
H21 C33 1_555 1_555
C34 C33 1_555 1_555
H22 C34 1_555 1_555
C35 N8 1_555 1_555
H23 C35 1_555 1_555
C36 C32 1_555 1_555
H24 C36 1_555 1_555
C37 N9 1_555 1_555
C38 N10 1_555 1_555
C39 Au3 1_555 1_555
C40 N11 1_555 1_555
Au5 C40 1_555 1_555
Zn4 N5 1_555 1_555
Zn6 N12 1_555 1_555
Zn7 N8 1_555 1_555
N13 Zn1 1_555 1_555
N16 Zn2 1_555 1_555
N17 Zn2 1_555 1_555
N3 C18 1_555 1_555
N6 C20 1_555 1_555
C24 C25 1_555 1_555
C30 C31 1_555 1_555
C35 C36 1_555 1_555
N1 C1 1_555 1_555
C1 H1 1_555 1_555
C2 C1 1_555 1_555
H2 C2 1_555 1_555
C3 C2 1_555 1_555
C4 C3 1_555 1_555
C6 C3 1_555 1_555
C7 C6 1_555 1_555
H5 C7 1_555 1_555
C8 C7 1_555 1_555
H6 C8 1_555 1_555
C9 C8 1_555 1_555
C10 C9 1_555 1_555
H7 C10 1_555 1_555
C11 C6 1_555 1_555
H8 C11 1_555 1_555
C12 C9 1_555 1_555
C13 C12 1_555 1_555
H9 C13 1_555 1_555
C14 C13 1_555 1_555
C16 C12 1_555 1_555
H12 C16 1_555 1_555
C10 C11 1_555 1_555
C15 N2 1_555 1_555
H11 C15 1_555 1_555
Zn5 N2 1_555 1_555
Zn6 N7_2 1_555 1_555
N7_2 C21_2 1_555 1_555
N9_2 Zn6 1_555 1_555
N10_2 Zn6 1_555 1_555
N11_2 Zn6 1_555 1_555
C21_2 H13_2 1_555 1_555
C25_2 N7_2 1_555 1_555
H16_2 C25_2 1_555 1_555
C41 N11_2 1_555 1_555
N16_2 Zn6 1_555 1_555
Au1_2 Au3_2 1_555 1_555
Au3_2 C37_2 1_555 1_555
Zn4 N1_2 1_555 1_555
N1_2 C1_2 1_555 1_555
N3_2 Zn4 1_555 1_555
N15 C17_2 1_555 1_555
N6_2 Zn4 1_555 1_555
N8_2 C34_2 1_555 1_555
N17 C39_2 1_555 1_555
C1_2 H1_2 1_555 1_555
C2_2 C1_2 1_555 1_555
H2_2 C2_2 1_555 1_555
C3_2 C2_2 1_555 1_555
C4_2 C3_2 1_555 1_555
H3_2 C4_2 1_555 1_555
C5_2 N1_2 1_555 1_555
H4_2 C5_2 1_555 1_555
C6_2 C3_2 1_555 1_555
C7_2 C6_2 1_555 1_555
H5_2 C7_2 1_555 1_555
C8_2 C7_2 1_555 1_555
H6_2 C8_2 1_555 1_555
C9_2 C8_2 1_555 1_555
C10_2 C9_2 1_555 1_555
H7_2 C10_2 1_555 1_555
C11_2 C6_2 1_555 1_555
H8_2 C11_2 1_555 1_555
C12_2 C9_2 1_555 1_555
C13_2 C12_2 1_555 1_555
H9_2 C13_2 1_555 1_555
C14_2 C13_2 1_555 1_555
C16_2 C12_2 1_555 1_555
H12_2 C16_2 1_555 1_555
C17_2 Au1_2 1_555 1_555
C18_2 Au1_2 1_555 1_555
H14_2 C22_2 1_555 1_555
C23_2 C22_2 1_555 1_555
C24_2 C23_2 1_555 1_555
H15_2 C24_2 1_555 1_555
C26_2 C23_2 1_555 1_555
C27_2 C26_2 1_555 1_555
H17_2 C27_2 1_555 1_555
C28_2 C27_2 1_555 1_555
H18_2 C28_2 1_555 1_555
C29_2 C28_2 1_555 1_555
C30_2 C29_2 1_555 1_555
H19_2 C30_2 1_555 1_555
C31_2 C26_2 1_555 1_555
H20_2 C31_2 1_555 1_555
C32_2 C29_2 1_555 1_555
C33_2 C32_2 1_555 1_555
H21_2 C33_2 1_555 1_555
C34_2 C33_2 1_555 1_555
H22_2 C34_2 1_555 1_555
C35_2 N8_2 1_555 1_555
H23_2 C35_2 1_555 1_555
C36_2 C32_2 1_555 1_555
H24_2 C36_2 1_555 1_555
C39_2 Au3_2 1_555 1_555
Zn7_2 N8_2 1_555 1_555
N13_2 Zn4 1_555 1_555
N3_2 C18_2 1_555 1_555
N6_2 C20_2 1_555 1_555
C4_2 C5_2 1_555 1_555
C10_2 C11_2 1_555 1_555
C30_2 C31_2 1_555 1_555
C35_2 C36_2 1_555 1_555
Au2_2 Au5 1_555 1_555
N14 C19_2 1_555 1_555
C19_2 Au2_2 1_555 1_555
C15_2 N2_2 1_555 1_555
H11_2 C15_2 1_555 1_555
Zn5_2 N2_2 1_555 1_555
Au3_3 C37_3 1_555 1_555
Au4_2 C38_3 1_555 1_555
N9_3 Zn7_2 1_555 1_555
N10_3 Zn7_2 1_555 1_555
N11_3 Zn7_2 1_555 1_555
C37_3 N9_3 1_555 1_555
C38_3 N10_3 1_555 1_555
C40_2 N11_3 1_555 1_555
Au5_2 C40_2 1_555 1_555
N17_2 Zn7_2 1_555 1_555
C41_2 Au4_2 1_555 1_555
N12_2 C39_3 1_555 1_555
Zn7 N12_2 1_555 1_555
N3_3 Zn5_2 1_555 1_555
N4_2 C19_3 1_555 1_555
N6_3 Zn5_2 1_555 1_555
N7_3 C21_3 1_555 1_555
N16_2 C34_3 1_555 1_555
H4_3 C5_3 1_555 1_555
C18_3 Au1_3 1_555 1_555
C19_3 Au2_3 1_555 1_555
C20_3 Au2_3 1_555 1_555
C21_3 H13_3 1_555 1_555
C22_3 C21_3 1_555 1_555
H14_3 C22_3 1_555 1_555
C23_3 C22_3 1_555 1_555
C24_3 C23_3 1_555 1_555
H15_3 C24_3 1_555 1_555
C25_3 N7_3 1_555 1_555
H16_3 C25_3 1_555 1_555
C26_3 C23_3 1_555 1_555
C27_3 C26_3 1_555 1_555
H17_3 C27_3 1_555 1_555
C28_3 C27_3 1_555 1_555
H18_3 C28_3 1_555 1_555
C29_3 C28_3 1_555 1_555
C30_3 C29_3 1_555 1_555
H19_3 C30_3 1_555 1_555
C31_3 C26_3 1_555 1_555
H20_3 C31_3 1_555 1_555
C32_3 C29_3 1_555 1_555
C33_3 C32_3 1_555 1_555
H21_3 C33_3 1_555 1_555
C34_3 C33_3 1_555 1_555
H22_3 C34_3 1_555 1_555
C35_3 N16_2 1_555 1_555
H23_3 C35_3 1_555 1_555
C36_3 C32_3 1_555 1_555
H24_3 C36_3 1_555 1_555
Zn5 N4_2 1_555 1_555
N3_3 C18_3 1_555 1_555
N6_3 C20_3 1_555 1_555
C24_3 C25_3 1_555 1_555
C30_3 C31_3 1_555 1_555
C35_3 C36_3 1_555 1_555
N1_3 C1_3 1_555 1_555
N13_2 C14_3 1_555 1_555
C1_3 H1_3 1_555 1_555
C2_3 C1_3 1_555 1_555
H2_3 C2_3 1_555 1_555
C3_3 C2_3 1_555 1_555
C4_3 C3_3 1_555 1_555
C6_3 C3_3 1_555 1_555
C7_3 C6_3 1_555 1_555
H5_3 C7_3 1_555 1_555
C8_3 C7_3 1_555 1_555
H6_3 C8_3 1_555 1_555
C9_3 C8_3 1_555 1_555
C10_3 C9_3 1_555 1_555
H7_3 C10_3 1_555 1_555
C11_3 C6_3 1_555 1_555
H8_3 C11_3 1_555 1_555
C12_3 C9_3 1_555 1_555
C13_3 C12_3 1_555 1_555
H9_3 C13_3 1_555 1_555
C14_3 C13_3 1_555 1_555
H10_3 C14_3 1_555 1_555
C15_3 N13_2 1_555 1_555
H11_3 C15_3 1_555 1_555
C16_3 C12_3 1_555 1_555
H12_3 C16_3 1_555 1_555
C10_3 C11_3 1_555 1_555
C15_3 C16_3 1_555 1_555
N5_2 C17_3 1_555 1_555
Zn5 N5_2 1_555 1_555
N17_2 C39_4 1_555 1_555
N9_4 Zn7 1_555 1_555
N10_4 Zn7 1_555 1_555
N11_4 Zn7 1_555 1_555
C41_2 N11_4 1_555 1_555
Au3_4 C37_4 1_555 1_555
Au5_2 C38_4 1_555 1_555
N15_2 C17_4 1_555 1_555
N7_4 C21_4 1_555 1_555
C21_4 H13_4 1_555 1_555
C25_4 N7_4 1_555 1_555
H16_4 C25_4 1_555 1_555
Zn5 N1_4 1_555 1_555
N1_4 C1_4 1_555 1_555
N13 C14_4 1_555 1_555
N3_4 Zn5 1_555 1_555
N14_2 C19_4 1_555 1_555
N6_4 Zn5 1_555 1_555
N16 C34_4 1_555 1_555
C1_4 H1_4 1_555 1_555
C2_4 C1_4 1_555 1_555
H2_4 C2_4 1_555 1_555
C3_4 C2_4 1_555 1_555
C4_4 C3_4 1_555 1_555
H3_4 C4_4 1_555 1_555
C5_4 N1_4 1_555 1_555
H4_4 C5_4 1_555 1_555
C6_4 C3_4 1_555 1_555
C7_4 C6_4 1_555 1_555
H5_4 C7_4 1_555 1_555
C8_4 C7_4 1_555 1_555
H6_4 C8_4 1_555 1_555
C9_4 C8_4 1_555 1_555
C10_4 C9_4 1_555 1_555
H7_4 C10_4 1_555 1_555
C11_4 C6_4 1_555 1_555
H8_4 C11_4 1_555 1_555
C12_4 C9_4 1_555 1_555
C13_4 C12_4 1_555 1_555
H9_4 C13_4 1_555 1_555
C14_4 C13_4 1_555 1_555
H10_4 C14_4 1_555 1_555
C15_4 N13 1_555 1_555
H11_4 C15_4 1_555 1_555
C16_4 C12_4 1_555 1_555
H12_4 C16_4 1_555 1_555
C18_4 Au1_4 1_555 1_555
C19_4 Au2_4 1_555 1_555
C20_4 Au2_4 1_555 1_555
H14_4 C22_4 1_555 1_555
C23_4 C22_4 1_555 1_555
C24_4 C23_4 1_555 1_555
H15_4 C24_4 1_555 1_555
C26_4 C23_4 1_555 1_555
C27_4 C26_4 1_555 1_555
H17_4 C27_4 1_555 1_555
C28_4 C27_4 1_555 1_555
H18_4 C28_4 1_555 1_555
C29_4 C28_4 1_555 1_555
C30_4 C29_4 1_555 1_555
H19_4 C30_4 1_555 1_555
C31_4 C26_4 1_555 1_555
H20_4 C31_4 1_555 1_555
C32_4 C29_4 1_555 1_555
C33_4 C32_4 1_555 1_555
H21_4 C33_4 1_555 1_555
C34_4 C33_4 1_555 1_555
H22_4 C34_4 1_555 1_555
C35_4 N16 1_555 1_555
H23_4 C35_4 1_555 1_555
C36_4 C32_4 1_555 1_555
H24_4 C36_4 1_555 1_555
N3_4 C18_4 1_555 1_555
N6_4 C20_4 1_555 1_555
C4_4 C5_4 1_555 1_555
C10_4 C11_4 1_555 1_555
C15_4 C16_4 1_555 1_555
C30_4 C31_4 1_555 1_555
C35_4 C36_4 1_555 1_555

#END
