
###############################################################################
#
# This file contains modified crystal structure data generated from the
# MOF subset of the Cambridge Structural Database (CSD) v543 
# hosted by the Cambridge Crystallographic Data Centre (CCDC).
#
# This work is licensed under the Creative Commons
# Attribution-NonCommercial-ShareAlike 4.0 International License.
# To view a copy of this license, visit
# http://creativecommons.org/licenses/by-nc-sa/4.0/
# or send a letter to
# Creative Commons, PO Box 1866, Mountain View, CA 94042, USA.
#
# CIF created using the CSD Python API on 29 September 2022
# The structure has been converted into the P1 space group
# The structure has a 3D framework
# The original CSD entry GILTAZ is in the monoclinic crystal system
# The framework has been calculated to contain at least 10.0% void space
# The void calculation uses a probe of radius 1.32A, grid spacing 0.4
#
###############################################################################

data_GILTAZ
_chemical_formula_moiety         '(C184 H128 Cd8 N40 O32)n'
_symmetry_cell_setting           triclinic
_symmetry_space_group_name_H-M   'P 1'
_symmetry_Int_Tables_number      1
_space_group_name_Hall           'P 1'
loop_
_symmetry_equiv_pos_site_id
_symmetry_equiv_pos_as_xyz
1 x,y,z
_cell_length_a                   34.226(18)
_cell_length_b                   16.245(9)
_cell_length_c                   14.643(8)
_cell_angle_alpha                90
_cell_angle_beta                 99.029(10)
_cell_angle_gamma                90
_cell_volume                     8040.65
loop_
_atom_site_label
_atom_site_type_symbol
_atom_site_fract_x
_atom_site_fract_y
_atom_site_fract_z
Cd4 Cd 0.82786(2) 0.20670(2) 0.06162(3)
Cd1 Cd 0.67214(2) 0.70670(2) 0.43838(3)
O1 O 0.79060(12) 0.2721(2) 0.9376(3)
O2 O 0.81874(12) 0.2031(3) 0.2215(3)
N1 N 0.75515(13) 0.5030(3) 0.5241(3)
O3 O 0.82361(13) 0.3213(3) 0.1518(3)
O4 O 0.85422(14) 0.2672(3) 0.9344(3)
N2 N 0.70717(14) 0.5902(3) 0.4794(3)
N3 N 0.61554(13) 0.6351(3) 0.4033(3)
N4 N 0.72207(15) 0.4554(3) 0.4949(3)
C1 C 0.79894(16) 0.4196(3) 0.6403(3)
C2 C 0.81261(17) 0.3355(3) 0.8099(3)
C3 C 0.79494(15) 0.4657(3) 0.5499(3)
H1 H 0.8142 0.5107 0.5580
N5 N 0.56358(14) 0.5625(3) 0.4220(3)
C4 C 0.77468(16) 0.3570(3) 0.7682(4)
H2 H 0.7531 0.3438 0.7969
C5 C 0.80367(15) 0.4136(3) 0.4688(3)
C6 C 0.76885(16) 0.3972(3) 0.6859(4)
H3 H 0.7431 0.4101 0.6594
C7 C 0.80226(17) 0.2859(3) 0.3833(4)
H4 H 0.7974 0.2296 0.3801
C8 C 0.81469(16) 0.3262(4) 0.3096(3)
C9 C 0.79700(17) 0.3297(4) 0.4618(4)
H5 H 0.7888 0.3018 0.5110
C10 C 0.7449(2) 0.5822(3) 0.5130(4)
H6 H 0.7623 0.6260 0.5273
C11 C 0.81953(16) 0.2795(5) 0.2218(4)
C12 C 0.83690(18) 0.3992(3) 0.6819(4)
H7 H 0.8580 0.4136 0.6522
C13 C 0.8204(2) 0.2880(3) 0.9009(4)
C14 C 0.69485(19) 0.5105(4) 0.4699(4)
H8 H 0.6688 0.4964 0.4471
C15 C 0.53114(18) 0.5309(4) 0.4615(5)
C16 C 0.59002(17) 0.6190(4) 0.4570(4)
H9 H 0.5901 0.6442 0.5140
C17 C 0.84472(16) 0.3582(3) 0.7661(4)
H10 H 0.8706 0.3462 0.7928
C18 C 0.81776(18) 0.4521(4) 0.3964(4)
H11 H 0.8243 0.5076 0.4009
C19 C 0.82233(19) 0.4088(4) 0.3173(4)
H12 H 0.8308 0.4365 0.2683
C20 C 0.60608(19) 0.5839(4) 0.3284(4)
H13 H 0.6195 0.5811 0.2780
C21 C 0.57434(19) 0.5385(5) 0.3394(5)
H14 H 0.5621 0.4987 0.2991
C22 C 0.5332(2) 0.5269(6) 0.5552(5)
H15 H 0.5557 0.5452 0.5938
C23 C 0.4984(2) 0.5046(6) 0.4074(5)
H16 H 0.4969 0.5075 0.3435
N6 N 0.38446(13) 0.3649(3) 0.5967(3)
N7 N 0.43642(14) 0.4375(3) 0.5780(3)
C24 C 0.46886(18) 0.4691(4) 0.5385(5)
C25 C 0.40998(17) 0.3810(4) 0.5430(4)
H17 H 0.4099 0.3558 0.4860
C26 C 0.39392(19) 0.4161(4) 0.6716(4)
H18 H 0.3805 0.4189 0.7220
C27 C 0.42566(19) 0.4615(5) 0.6606(5)
H19 H 0.4379 0.5013 0.7009
C28 C 0.4668(2) 0.4731(6) 0.4448(5)
H20 H 0.4443 0.4548 0.4062
C29 C 0.5016(2) 0.4954(6) 0.5926(5)
H21 H 0.5031 0.4925 0.6565
Cd2 Cd 0.32786(2) 0.29330(2) 0.56162(3)
O5 O 0.20940(12) 0.7279(2) 0.0624(3)
O6 O 0.18126(12) 0.7969(3) 0.7785(3)
N8 N 0.24485(13) 0.4970(3) 0.4759(3)
O7 O 0.17639(13) 0.6787(3) 0.8482(3)
O8 O 0.14578(14) 0.7328(3) 0.0656(3)
N9 N 0.29283(14) 0.4098(3) 0.5206(3)
N10 N 0.27793(15) 0.5446(3) 0.5051(3)
C30 C 0.20106(16) 0.5804(3) 0.3597(3)
C31 C 0.18739(17) 0.6645(3) 0.1901(3)
C32 C 0.20506(15) 0.5343(3) 0.4501(3)
H22 H 0.1858 0.4893 0.4420
C33 C 0.22532(16) 0.6430(3) 0.2318(4)
H23 H 0.2469 0.6562 0.2031
C34 C 0.19633(15) 0.5864(3) 0.5312(3)
C35 C 0.23115(16) 0.6028(3) 0.3141(4)
H24 H 0.2569 0.5899 0.3406
C36 C 0.19774(17) 0.7141(3) 0.6167(4)
H25 H 0.2026 0.7704 0.6199
C37 C 0.18531(16) 0.6738(4) 0.6904(3)
C38 C 0.20300(17) 0.6703(4) 0.5382(4)
H26 H 0.2112 0.6982 0.4890
C39 C 0.2551(2) 0.4178(3) 0.4870(4)
H27 H 0.2377 0.3740 0.4727
C40 C 0.18047(16) 0.7205(5) 0.7782(4)
C41 C 0.16310(18) 0.6008(3) 0.3181(4)
H28 H 0.1420 0.5864 0.3478
C42 C 0.1796(2) 0.7120(3) 0.0991(4)
C43 C 0.30515(19) 0.4895(4) 0.5301(4)
H29 H 0.3312 0.5036 0.5529
C44 C 0.15528(16) 0.6418(3) 0.2339(4)
H30 H 0.1294 0.6538 0.2072
C45 C 0.18224(18) 0.5479(4) 0.6036(4)
H31 H 0.1757 0.4924 0.5991
C46 C 0.17767(19) 0.5912(4) 0.6827(4)
H32 H 0.1692 0.5635 0.7317
Cd6 Cd 0.17214(2) 0.79330(2) 0.93838(3)
O9 O 0.70940(12) 0.7721(2) 0.5624(3)
O10 O 0.29060(12) 0.2279(2) 0.4376(3)
O11 O 0.68126(12) 0.7031(3) 0.2785(3)
O12 O 0.31874(12) 0.2969(3) 0.7215(3)
O13 O 0.67639(13) 0.8213(3) 0.3482(3)
O14 O 0.32361(13) 0.1787(3) 0.6518(3)
O15 O 0.64578(14) 0.7672(3) 0.5656(3)
O16 O 0.35422(14) 0.2328(3) 0.4344(3)
C23_2 C 0.0016(2) 0.0046(6) 0.0926(5)
H16_2 H 0.0031 0.0075 0.1565
C30_2 C 0.29894(16) 0.0804(3) 0.1403(3)
C31_2 C 0.31261(17) 0.1645(3) 0.3099(3)
C32_2 C 0.29494(15) 0.0343(3) 0.0499(3)
C33_2 C 0.27468(16) 0.1430(3) 0.2682(4)
H23_2 H 0.2531 0.1562 0.2969
C35_2 C 0.26885(16) 0.1028(3) 0.1859(4)
H24_2 H 0.2431 0.0899 0.1594
H26_2 H 0.2888 0.1982 0.0110
C41_2 C 0.33690(18) 0.1008(3) 0.1819(4)
H28_2 H 0.3580 0.0864 0.1522
C42_2 C 0.3204(2) 0.2120(3) 0.4009(4)
C44_2 C 0.34472(16) 0.1418(3) 0.2661(4)
H30_2 H 0.3706 0.1538 0.2928
H19_2 H 0.0621 0.0013 0.7991
N10_2 N 0.22207(15) 0.0446(3) 0.9949(3)
C34_2 C 0.30367(15) 0.0864(3) 0.9688(3)
C36_2 C 0.30226(17) 0.2141(3) 0.8833(4)
H25_2 H 0.2974 0.2704 0.8801
C37_2 C 0.31469(16) 0.1738(4) 0.8096(3)
C38_2 C 0.29700(17) 0.1703(4) 0.9618(4)
C40_2 C 0.31953(16) 0.2205(5) 0.7218(4)
H29_2 H 0.1688 0.0036 0.9471
C45_2 C 0.31776(18) 0.0479(4) 0.8964(4)
C46_2 C 0.32233(19) 0.0912(4) 0.8173(4)
H32_2 H 0.3308 0.0635 0.7683
H17_2 H 0.0901 0.8558 0.0140
C28_2 C 0.0332(2) 0.9731(6) 0.0552(5)
H20_2 H 0.0557 0.9548 0.0938
N8_2 N 0.25515(13) 0.9970(3) 0.0241(3)
H22_2 H 0.3142 0.9893 0.0580
C39_2 C 0.2449(2) 0.9178(3) 0.0130(4)
H27_2 H 0.2623 0.8740 0.0273
N6_2 N 0.11554(13) 0.8649(3) 0.9033(3)
N7_2 N 0.06358(14) 0.9375(3) 0.9220(3)
C24_2 C 0.03114(18) 0.9691(4) 0.9615(5)
C25_2 C 0.09002(17) 0.8810(4) 0.9570(4)
C26_2 C 0.10608(19) 0.9161(4) 0.8284(4)
H18_2 H 0.1195 0.9189 0.7780
C27_2 C 0.07434(19) 0.9615(5) 0.8394(5)
N9_2 N 0.20717(14) 0.9098(3) 0.9794(3)
C43_2 C 0.19485(19) 0.9895(4) 0.9699(4)
H31_2 H 0.3243 0.9924 0.9009
N2_2 N 0.79283(14) 0.0902(3) 0.0206(3)
N3_2 N 0.88446(13) 0.1351(3) 0.0967(3)
N5_2 N 0.93642(14) 0.0625(3) 0.0780(3)
C14_2 C 0.80515(19) 0.0105(4) 0.0301(4)
C15_2 C 0.96886(18) 0.0309(4) 0.0385(5)
C16_2 C 0.90998(17) 0.1190(4) 0.0430(4)
H11_2 H 0.6757 0.0076 0.0991
C20_2 C 0.89392(19) 0.0839(4) 0.1716(4)
H13_2 H 0.8805 0.0811 0.2220
C21_2 C 0.92566(19) 0.0385(5) 0.1606(5)
N1_2 N 0.74485(13) 0.0030(3) 0.9759(3)
H1_2 H 0.6858 0.0107 0.9420
C10_2 C 0.7551(2) 0.0822(3) 0.9870(4)
H6_2 H 0.7377 0.1260 0.9727
H9_2 H 0.9099 0.1442 0.9860
C22_2 C 0.9668(2) 0.0269(6) 0.9448(5)
H15_2 H 0.9443 0.0452 0.9062
N4_2 N 0.77793(15) 0.9554(3) 0.0051(3)
C5_2 C 0.69633(15) 0.9136(3) 0.0312(3)
C7_2 C 0.69774(17) 0.7859(3) 0.1167(4)
H4_2 H 0.7026 0.7296 0.1199
C8_2 C 0.68531(16) 0.8262(4) 0.1904(3)
C9_2 C 0.70300(17) 0.8297(4) 0.0382(4)
C11_2 C 0.68047(16) 0.7795(5) 0.2782(4)
H8_2 H 0.8312 0.9964 0.0529
C18_2 C 0.68224(18) 0.9521(4) 0.1036(4)
C19_2 C 0.67767(19) 0.9088(4) 0.1827(4)
H12_2 H 0.6692 0.9365 0.2317
H14_2 H 0.9379 0.9987 0.2009
C1_2 C 0.70106(16) 0.9196(3) 0.8597(3)
C2_2 C 0.68739(17) 0.8355(3) 0.6901(3)
C3_2 C 0.70506(15) 0.9657(3) 0.9501(3)
C4_2 C 0.72532(16) 0.8570(3) 0.7318(4)
H2_2 H 0.7469 0.8438 0.7031
C6_2 C 0.73115(16) 0.8972(3) 0.8141(4)
H3_2 H 0.7569 0.9101 0.8406
H5_2 H 0.7112 0.8018 0.9890
C12_2 C 0.66310(18) 0.8992(3) 0.8181(4)
H7_2 H 0.6420 0.9136 0.8478
C13_2 C 0.6796(2) 0.7880(3) 0.5991(4)
C17_2 C 0.65528(16) 0.8582(3) 0.7339(4)
H10_2 H 0.6294 0.8462 0.7072
C29_2 C 0.9984(2) 0.9954(6) 0.9074(5)
H21_2 H 0.9969 0.9925 0.8435
Cd1_2 Cd 0.32786(2) 0.70670(2) 0.06162(3)
O2_2 O 0.18126(12) 0.2031(3) 0.2785(3)
O3_2 O 0.17639(13) 0.3213(3) 0.3482(3)
N2_3 N 0.29283(14) 0.5902(3) 0.0206(3)
N3_3 N 0.38446(13) 0.6351(3) 0.0967(3)
N4_3 N 0.27793(15) 0.4554(3) 0.0051(3)
N5_3 N 0.43642(14) 0.5625(3) 0.0780(3)
C5_3 C 0.19633(15) 0.4136(3) 0.0312(3)
C7_3 C 0.19774(17) 0.2859(3) 0.1167(4)
H4_3 H 0.2026 0.2296 0.1199
C8_3 C 0.18531(16) 0.3262(4) 0.1904(3)
C9_3 C 0.20300(17) 0.3297(4) 0.0382(4)
C11_3 C 0.18047(16) 0.2795(5) 0.2782(4)
C14_3 C 0.30515(19) 0.5105(4) 0.0301(4)
H8_3 H 0.3312 0.4964 0.0529
C15_3 C 0.46886(18) 0.5309(4) 0.0385(5)
C16_3 C 0.40998(17) 0.6190(4) 0.0430(4)
C18_3 C 0.18224(18) 0.4521(4) 0.1036(4)
H11_3 H 0.1757 0.5076 0.0991
C19_3 C 0.17767(19) 0.4088(4) 0.1827(4)
H12_3 H 0.1692 0.4365 0.2317
C20_3 C 0.39392(19) 0.5839(4) 0.1716(4)
H13_3 H 0.3805 0.5811 0.2220
C21_3 C 0.42566(19) 0.5385(5) 0.1606(5)
H14_3 H 0.4379 0.4987 0.2009
C23_3 C 0.5016(2) 0.5046(6) 0.0926(5)
H16_3 H 0.5031 0.5075 0.1565
H17_3 H 0.5901 0.3558 0.0140
C28_3 C 0.5332(2) 0.4731(6) 0.0552(5)
H20_3 H 0.5557 0.4548 0.0938
O5_2 O 0.79060(12) 0.7279(2) 0.4376(3)
N8_3 N 0.75515(13) 0.4970(3) 0.0241(3)
O8_2 O 0.85422(14) 0.7328(3) 0.4344(3)
C30_3 C 0.79894(16) 0.5804(3) 0.1403(3)
C31_3 C 0.81261(17) 0.6645(3) 0.3099(3)
C32_3 C 0.79494(15) 0.5343(3) 0.0499(3)
H22_3 H 0.8142 0.4893 0.0580
C33_3 C 0.77468(16) 0.6430(3) 0.2682(4)
H23_3 H 0.7531 0.6562 0.2969
C35_3 C 0.76885(16) 0.6028(3) 0.1859(4)
H24_3 H 0.7431 0.5899 0.1594
H26_3 H 0.7888 0.6982 0.0110
C39_3 C 0.7449(2) 0.4178(3) 0.0130(4)
H27_3 H 0.7623 0.3740 0.0273
C41_3 C 0.83690(18) 0.6008(3) 0.1819(4)
H28_3 H 0.8580 0.5864 0.1522
C42_3 C 0.8204(2) 0.7120(3) 0.4009(4)
C44_3 C 0.84472(16) 0.6418(3) 0.2661(4)
H30_3 H 0.8706 0.6538 0.2928
Cd3 Cd 0.17214(2) 0.20670(2) 0.43838(3)
Cd5 Cd 0.82786(2) 0.79330(2) 0.56162(3)
O10_2 O 0.70940(12) 0.2279(2) 0.0624(3)
O11_2 O 0.31874(12) 0.7031(3) 0.2215(3)
O13_2 O 0.32361(13) 0.8213(3) 0.1518(3)
O16_2 O 0.64578(14) 0.2328(3) 0.0656(3)
O1_2 O 0.20940(12) 0.2721(2) 0.5624(3)
N1_3 N 0.24485(13) 0.5030(3) 0.9759(3)
O4_2 O 0.14578(14) 0.2672(3) 0.5656(3)
C1_3 C 0.20106(16) 0.4196(3) 0.8597(3)
C2_3 C 0.18739(17) 0.3355(3) 0.6901(3)
C3_3 C 0.20506(15) 0.4657(3) 0.9501(3)
H1_3 H 0.1858 0.5107 0.9420
C4_3 C 0.22532(16) 0.3570(3) 0.7318(4)
H2_3 H 0.2469 0.3438 0.7031
C6_3 C 0.23115(16) 0.3972(3) 0.8141(4)
H3_3 H 0.2569 0.4101 0.8406
H5_3 H 0.2112 0.3018 0.9890
C10_3 C 0.2551(2) 0.5822(3) 0.9870(4)
H6_3 H 0.2377 0.6260 0.9727
C12_3 C 0.16310(18) 0.3992(3) 0.8181(4)
H7_3 H 0.1420 0.4136 0.8478
C13_3 C 0.1796(2) 0.2880(3) 0.5991(4)
H9_3 H 0.4099 0.6442 0.9860
C17_3 C 0.15528(16) 0.3582(3) 0.7339(4)
H10_3 H 0.1294 0.3462 0.7072
C22_3 C 0.4668(2) 0.5269(6) 0.9448(5)
H15_3 H 0.4443 0.5452 0.9062
N6_3 N 0.61554(13) 0.3649(3) 0.9033(3)
N7_3 N 0.56358(14) 0.4375(3) 0.9220(3)
C24_3 C 0.53114(18) 0.4691(4) 0.9615(5)
C25_3 C 0.59002(17) 0.3810(4) 0.9570(4)
C26_3 C 0.60608(19) 0.4161(4) 0.8284(4)
H18_3 H 0.6195 0.4189 0.7780
C27_3 C 0.57434(19) 0.4615(5) 0.8394(5)
H19_3 H 0.5621 0.5013 0.7991
C29_3 C 0.4984(2) 0.4954(6) 0.9074(5)
H21_3 H 0.4969 0.4925 0.8435
Cd2_2 Cd 0.67214(2) 0.29330(2) 0.93838(3)
O6_2 O 0.81874(12) 0.7969(3) 0.7215(3)
O7_2 O 0.82361(13) 0.6787(3) 0.6518(3)
N9_3 N 0.70717(14) 0.4098(3) 0.9794(3)
N10_3 N 0.72207(15) 0.5446(3) 0.9949(3)
C34_3 C 0.80367(15) 0.5864(3) 0.9688(3)
C36_3 C 0.80226(17) 0.7141(3) 0.8833(4)
H25_3 H 0.7974 0.7704 0.8801
C37_3 C 0.81469(16) 0.6738(4) 0.8096(3)
C38_3 C 0.79700(17) 0.6703(4) 0.9618(4)
C40_3 C 0.81953(16) 0.7205(5) 0.7218(4)
C43_3 C 0.69485(19) 0.4895(4) 0.9699(4)
H29_3 H 0.6688 0.5036 0.9471
C45_3 C 0.81776(18) 0.5479(4) 0.8964(4)
H31_3 H 0.8243 0.4924 0.9009
C46_3 C 0.82233(19) 0.5912(4) 0.8173(4)
H32_3 H 0.8308 0.5635 0.7683
O9_2 O 0.29060(12) 0.7721(2) 0.9376(3)
O12_2 O 0.68126(12) 0.2969(3) 0.7785(3)
O14_2 O 0.67639(13) 0.1787(3) 0.8482(3)
O15_2 O 0.35422(14) 0.7672(3) 0.9344(3)
N1_4 N 0.25515(13) 0.0030(3) 0.5241(3)
N2_4 N 0.20717(14) 0.0902(3) 0.4794(3)
N3_4 N 0.11554(13) 0.1351(3) 0.4033(3)
H1_4 H 0.3142 0.0107 0.5580
N5_4 N 0.06358(14) 0.0625(3) 0.4220(3)
C10_4 C 0.2449(2) 0.0822(3) 0.5130(4)
H6_4 H 0.2623 0.1260 0.5273
C14_4 C 0.19485(19) 0.0105(4) 0.4699(4)
C15_4 C 0.03114(18) 0.0309(4) 0.4615(5)
C16_4 C 0.09002(17) 0.1190(4) 0.4570(4)
H9_4 H 0.0901 0.1442 0.5140
H11_4 H 0.3243 0.0076 0.4009
C20_4 C 0.10608(19) 0.0839(4) 0.3284(4)
H13_4 H 0.1195 0.0811 0.2780
C21_4 C 0.07434(19) 0.0385(5) 0.3394(5)
C22_4 C 0.0332(2) 0.0269(6) 0.5552(5)
H15_4 H 0.0557 0.0452 0.5938
N4_4 N 0.22207(15) 0.9554(3) 0.4949(3)
C1_4 C 0.29894(16) 0.9196(3) 0.6403(3)
C2_4 C 0.31261(17) 0.8355(3) 0.8099(3)
C3_4 C 0.29494(15) 0.9657(3) 0.5499(3)
C4_4 C 0.27468(16) 0.8570(3) 0.7682(4)
H2_4 H 0.2531 0.8438 0.7969
C5_4 C 0.30367(15) 0.9136(3) 0.4688(3)
C6_4 C 0.26885(16) 0.8972(3) 0.6859(4)
H3_4 H 0.2431 0.9101 0.6594
C7_4 C 0.30226(17) 0.7859(3) 0.3833(4)
H4_4 H 0.2974 0.7296 0.3801
C8_4 C 0.31469(16) 0.8262(4) 0.3096(3)
C9_4 C 0.29700(17) 0.8297(4) 0.4618(4)
H5_4 H 0.2888 0.8018 0.5110
C11_4 C 0.31953(16) 0.7795(5) 0.2218(4)
C12_4 C 0.33690(18) 0.8992(3) 0.6819(4)
H7_4 H 0.3580 0.9136 0.6522
C13_4 C 0.3204(2) 0.7880(3) 0.9009(4)
H8_4 H 0.1688 0.9964 0.4471
C17_4 C 0.34472(16) 0.8582(3) 0.7661(4)
H10_4 H 0.3706 0.8462 0.7928
C18_4 C 0.31776(18) 0.9521(4) 0.3964(4)
C19_4 C 0.32233(19) 0.9088(4) 0.3173(4)
H12_4 H 0.3308 0.9365 0.2683
H14_4 H 0.0621 0.9987 0.2991
C29_4 C 0.0016(2) 0.9954(6) 0.5926(5)
H21_4 H 0.0031 0.9925 0.6565
C23_4 C 0.9984(2) 0.0046(6) 0.4074(5)
H16_4 H 0.9969 0.0075 0.3435
H19_4 H 0.9379 0.0013 0.7009
N10_4 N 0.77793(15) 0.0446(3) 0.5051(3)
C30_4 C 0.70106(16) 0.0804(3) 0.3597(3)
C31_4 C 0.68739(17) 0.1645(3) 0.1901(3)
C32_4 C 0.70506(15) 0.0343(3) 0.4501(3)
C33_4 C 0.72532(16) 0.1430(3) 0.2318(4)
H23_4 H 0.7469 0.1562 0.2031
C34_4 C 0.69633(15) 0.0864(3) 0.5312(3)
C35_4 C 0.73115(16) 0.1028(3) 0.3141(4)
H24_4 H 0.7569 0.0899 0.3406
C36_4 C 0.69774(17) 0.2141(3) 0.6167(4)
H25_4 H 0.7026 0.2704 0.6199
C37_4 C 0.68531(16) 0.1738(4) 0.6904(3)
C38_4 C 0.70300(17) 0.1703(4) 0.5382(4)
H26_4 H 0.7112 0.1982 0.4890
C40_4 C 0.68047(16) 0.2205(5) 0.7782(4)
C41_4 C 0.66310(18) 0.1008(3) 0.3181(4)
H28_4 H 0.6420 0.0864 0.3478
C42_4 C 0.6796(2) 0.2120(3) 0.0991(4)
H29_4 H 0.8312 0.0036 0.5529
C44_4 C 0.65528(16) 0.1418(3) 0.2339(4)
H30_4 H 0.6294 0.1538 0.2072
C45_4 C 0.68224(18) 0.0479(4) 0.6036(4)
C46_4 C 0.67767(19) 0.0912(4) 0.6827(4)
H32_4 H 0.6692 0.0635 0.7317
N6_4 N 0.88446(13) 0.8649(3) 0.5967(3)
N7_4 N 0.93642(14) 0.9375(3) 0.5780(3)
C24_4 C 0.96886(18) 0.9691(4) 0.5385(5)
C25_4 C 0.90998(17) 0.8810(4) 0.5430(4)
H17_4 H 0.9099 0.8558 0.4860
C26_4 C 0.89392(19) 0.9161(4) 0.6716(4)
H18_4 H 0.8805 0.9189 0.7220
C27_4 C 0.92566(19) 0.9615(5) 0.6606(5)
C28_4 C 0.9668(2) 0.9731(6) 0.4448(5)
H20_4 H 0.9443 0.9548 0.4062
N8_4 N 0.74485(13) 0.9970(3) 0.4759(3)
N9_4 N 0.79283(14) 0.9098(3) 0.5206(3)
H22_4 H 0.6858 0.9893 0.4420
C39_4 C 0.7551(2) 0.9178(3) 0.4870(4)
H27_4 H 0.7377 0.8740 0.4727
C43_4 C 0.80515(19) 0.9895(4) 0.5301(4)
H31_4 H 0.6757 0.9924 0.5991
loop_
_geom_bond_atom_site_label_1
_geom_bond_atom_site_label_2
_geom_bond_site_symmetry_1
_geom_bond_site_symmetry_2
Cd1 N2 1_555 1_555
O1 C13 1_555 1_555
O2 C11 1_555 1_555
N1 N4 1_555 1_555
O3 C11 1_555 1_555
O4 C13 1_555 1_555
N2 C10 1_555 1_555
N3 Cd1 1_555 1_555
N4 C14 1_555 1_555
C1 C3 1_555 1_555
C2 C4 1_555 1_555
C3 N1 1_555 1_555
H1 C3 1_555 1_555
N5 C15 1_555 1_555
C4 H2 1_555 1_555
C5 C3 1_555 1_555
C6 C1 1_555 1_555
H3 C6 1_555 1_555
C7 H4 1_555 1_555
C8 C7 1_555 1_555
C9 C5 1_555 1_555
H5 C9 1_555 1_555
C10 N1 1_555 1_555
H6 C10 1_555 1_555
C11 C8 1_555 1_555
C12 C1 1_555 1_555
H7 C12 1_555 1_555
C13 C2 1_555 1_555
C14 N2 1_555 1_555
H8 C14 1_555 1_555
C15 C22 1_555 1_555
C16 N3 1_555 1_555
H9 C16 1_555 1_555
C17 C2 1_555 1_555
H10 C17 1_555 1_555
C18 C5 1_555 1_555
H11 C18 1_555 1_555
C19 C8 1_555 1_555
H12 C19 1_555 1_555
C20 N3 1_555 1_555
H13 C20 1_555 1_555
C21 N5 1_555 1_555
H14 C21 1_555 1_555
C22 H15 1_555 1_555
C23 C15 1_555 1_555
H16 C23 1_555 1_555
N6 C25 1_555 1_555
N7 C24 1_555 1_555
C24 C28 1_555 1_555
C25 N7 1_555 1_555
H17 C25 1_555 1_555
C26 N6 1_555 1_555
H18 C26 1_555 1_555
C27 N7 1_555 1_555
H19 C27 1_555 1_555
C28 C23 1_555 1_555
H20 C28 1_555 1_555
C29 C22 1_555 1_555
H21 C29 1_555 1_555
Cd2 N6 1_555 1_555
O5 C42 1_555 1_555
O6 C40 1_555 1_555
N8 N10 1_555 1_555
O7 C40 1_555 1_555
O8 C42 1_555 1_555
N9 Cd2 1_555 1_555
N10 C43 1_555 1_555
C30 C32 1_555 1_555
C31 C33 1_555 1_555
C32 N8 1_555 1_555
H22 C32 1_555 1_555
C33 H23 1_555 1_555
C34 C32 1_555 1_555
C35 C30 1_555 1_555
H24 C35 1_555 1_555
C36 H25 1_555 1_555
C37 C36 1_555 1_555
C38 C34 1_555 1_555
H26 C38 1_555 1_555
C39 N8 1_555 1_555
H27 C39 1_555 1_555
C40 C37 1_555 1_555
C41 C30 1_555 1_555
H28 C41 1_555 1_555
C42 C31 1_555 1_555
C43 N9 1_555 1_555
H29 C43 1_555 1_555
C44 C31 1_555 1_555
H30 C44 1_555 1_555
C45 C34 1_555 1_555
H31 C45 1_555 1_555
C46 C37 1_555 1_555
H32 C46 1_555 1_555
Cd4 O2 1_555 1_555
Cd6 O6 1_555 1_555
O9 Cd1 1_555 1_555
O10 Cd2 1_555 1_555
O11 Cd1 1_555 1_555
O12 Cd2 1_555 1_555
O13 Cd1 1_555 1_555
O14 Cd2 1_555 1_555
O15 Cd1 1_555 1_555
O16 Cd2 1_555 1_555
O3 Cd4 1_555 1_555
N5 C16 1_555 1_555
C4 C6 1_555 1_555
C7 C9 1_555 1_555
C12 C17 1_555 1_555
C18 C19 1_555 1_555
C20 C21 1_555 1_555
C24 C29 1_555 1_555
C26 C27 1_555 1_555
O7 Cd6 1_555 1_555
N9 C39 1_555 1_555
C33 C35 1_555 1_555
C36 C38 1_555 1_555
C41 C44 1_555 1_555
C45 C46 1_555 1_555
H16_2 C23_2 1_555 1_555
O10 C42_2 1_555 1_555
O16 C42_2 1_555 1_555
C30_2 C32_2 1_555 1_555
C31_2 C33_2 1_555 1_555
C33_2 H23_2 1_555 1_555
C35_2 C30_2 1_555 1_555
H24_2 C35_2 1_555 1_555
C41_2 C30_2 1_555 1_555
H28_2 C41_2 1_555 1_555
C42_2 C31_2 1_555 1_555
C44_2 C31_2 1_555 1_555
H30_2 C44_2 1_555 1_555
C33_2 C35_2 1_555 1_555
C41_2 C44_2 1_555 1_555
O12 C40_2 1_555 1_555
O14 C40_2 1_555 1_555
C36_2 H25_2 1_555 1_555
C37_2 C36_2 1_555 1_555
C38_2 C34_2 1_555 1_555
C40_2 C37_2 1_555 1_555
C45_2 C34_2 1_555 1_555
C46_2 C37_2 1_555 1_555
H32_2 C46_2 1_555 1_555
C36_2 C38_2 1_555 1_555
C45_2 C46_2 1_555 1_555
H20_2 C28_2 1_555 1_555
C39_2 N8_2 1_555 1_555
H27_2 C39_2 1_555 1_555
N6_2 C25_2 1_555 1_555
N7_2 C24_2 1_555 1_555
C25_2 N7_2 1_555 1_555
C26_2 N6_2 1_555 1_555
H18_2 C26_2 1_555 1_555
C27_2 N7_2 1_555 1_555
Cd6 N6_2 1_555 1_555
N9_2 Cd6 1_555 1_555
C43_2 N9_2 1_555 1_555
C26_2 C27_2 1_555 1_555
Cd4 N2_2 1_555 1_555
N3_2 Cd4 1_555 1_555
N5_2 C15_2 1_555 1_555
C14_2 N2_2 1_555 1_555
C16_2 N3_2 1_555 1_555
C20_2 N3_2 1_555 1_555
H13_2 C20_2 1_555 1_555
C21_2 N5_2 1_555 1_555
N5_2 C16_2 1_555 1_555
C20_2 C21_2 1_555 1_555
C10_2 N1_2 1_555 1_555
H6_2 C10_2 1_555 1_555
C22_2 H15_2 1_555 1_555
O11 C11_2 1_555 1_555
O13 C11_2 1_555 1_555
C7_2 H4_2 1_555 1_555
C8_2 C7_2 1_555 1_555
C9_2 C5_2 1_555 1_555
C11_2 C8_2 1_555 1_555
C18_2 C5_2 1_555 1_555
C19_2 C8_2 1_555 1_555
H12_2 C19_2 1_555 1_555
C7_2 C9_2 1_555 1_555
C18_2 C19_2 1_555 1_555
O9 C13_2 1_555 1_555
O15 C13_2 1_555 1_555
C1_2 C3_2 1_555 1_555
C2_2 C4_2 1_555 1_555
C4_2 H2_2 1_555 1_555
C6_2 C1_2 1_555 1_555
H3_2 C6_2 1_555 1_555
C12_2 C1_2 1_555 1_555
H7_2 C12_2 1_555 1_555
C13_2 C2_2 1_555 1_555
C17_2 C2_2 1_555 1_555
H10_2 C17_2 1_555 1_555
H21_2 C29_2 1_555 1_555
C4_2 C6_2 1_555 1_555
C12_2 C17_2 1_555 1_555
Cd1_2 N2_3 1_555 1_555
O2_2 C11_3 1_555 1_555
O3_2 C11_3 1_555 1_555
N3_3 Cd1_2 1_555 1_555
N4_3 C14_3 1_555 1_555
N5_3 C15_3 1_555 1_555
C7_3 H4_3 1_555 1_555
C8_3 C7_3 1_555 1_555
C9_3 C5_3 1_555 1_555
C11_3 C8_3 1_555 1_555
C14_3 N2_3 1_555 1_555
H8_3 C14_3 1_555 1_555
C16_3 N3_3 1_555 1_555
C18_3 C5_3 1_555 1_555
H11_3 C18_3 1_555 1_555
C19_3 C8_3 1_555 1_555
H12_3 C19_3 1_555 1_555
C20_3 N3_3 1_555 1_555
H13_3 C20_3 1_555 1_555
C21_3 N5_3 1_555 1_555
H14_3 C21_3 1_555 1_555
C23_3 C15_3 1_555 1_555
H16_3 C23_3 1_555 1_555
C28_3 C23_3 1_555 1_555
H20_3 C28_3 1_555 1_555
O5_2 C42_3 1_555 1_555
O8_2 C42_3 1_555 1_555
C30_3 C32_3 1_555 1_555
C31_3 C33_3 1_555 1_555
C32_3 N8_3 1_555 1_555
H22_3 C32_3 1_555 1_555
C33_3 H23_3 1_555 1_555
C35_3 C30_3 1_555 1_555
H24_3 C35_3 1_555 1_555
C39_3 N8_3 1_555 1_555
H27_3 C39_3 1_555 1_555
C41_3 C30_3 1_555 1_555
H28_3 C41_3 1_555 1_555
C42_3 C31_3 1_555 1_555
C44_3 C31_3 1_555 1_555
H30_3 C44_3 1_555 1_555
Cd3 O2_2 1_555 1_555
Cd5 O5_2 1_555 1_555
O11_2 Cd1_2 1_555 1_555
O13_2 Cd1_2 1_555 1_555
O3_2 Cd3 1_555 1_555
N5_3 C16_3 1_555 1_555
C7_3 C9_3 1_555 1_555
C18_3 C19_3 1_555 1_555
C20_3 C21_3 1_555 1_555
O8_2 Cd5 1_555 1_555
C33_3 C35_3 1_555 1_555
C41_3 C44_3 1_555 1_555
O1_2 C13_3 1_555 1_555
O4_2 C13_3 1_555 1_555
C1_3 C3_3 1_555 1_555
C2_3 C4_3 1_555 1_555
C3_3 N1_3 1_555 1_555
H1_3 C3_3 1_555 1_555
C4_3 H2_3 1_555 1_555
C6_3 C1_3 1_555 1_555
H3_3 C6_3 1_555 1_555
C10_3 N1_3 1_555 1_555
H6_3 C10_3 1_555 1_555
C12_3 C1_3 1_555 1_555
H7_3 C12_3 1_555 1_555
C13_3 C2_3 1_555 1_555
C17_3 C2_3 1_555 1_555
H10_3 C17_3 1_555 1_555
C22_3 H15_3 1_555 1_555
N6_3 C25_3 1_555 1_555
N7_3 C24_3 1_555 1_555
C25_3 N7_3 1_555 1_555
C26_3 N6_3 1_555 1_555
H18_3 C26_3 1_555 1_555
C27_3 N7_3 1_555 1_555
H19_3 C27_3 1_555 1_555
C29_3 C22_3 1_555 1_555
H21_3 C29_3 1_555 1_555
Cd2_2 N6_3 1_555 1_555
O6_2 C40_3 1_555 1_555
O7_2 C40_3 1_555 1_555
N9_3 Cd2_2 1_555 1_555
N10_3 C43_3 1_555 1_555
C36_3 H25_3 1_555 1_555
C37_3 C36_3 1_555 1_555
C38_3 C34_3 1_555 1_555
C40_3 C37_3 1_555 1_555
C43_3 N9_3 1_555 1_555
H29_3 C43_3 1_555 1_555
C45_3 C34_3 1_555 1_555
H31_3 C45_3 1_555 1_555
C46_3 C37_3 1_555 1_555
H32_3 C46_3 1_555 1_555
Cd3 O1_2 1_555 1_555
Cd5 O6_2 1_555 1_555
O12_2 Cd2_2 1_555 1_555
O14_2 Cd2_2 1_555 1_555
O4_2 Cd3 1_555 1_555
C4_3 C6_3 1_555 1_555
C12_3 C17_3 1_555 1_555
C24_3 C29_3 1_555 1_555
C26_3 C27_3 1_555 1_555
O7_2 Cd5 1_555 1_555
C36_3 C38_3 1_555 1_555
C45_3 C46_3 1_555 1_555
Cd3 N2_4 1_555 1_555
N2_4 C10_4 1_555 1_555
N3_4 Cd3 1_555 1_555
N5_4 C15_4 1_555 1_555
C10_4 N1_4 1_555 1_555
H6_4 C10_4 1_555 1_555
C14_4 N2_4 1_555 1_555
C15_4 C22_4 1_555 1_555
C16_4 N3_4 1_555 1_555
H9_4 C16_4 1_555 1_555
C20_4 N3_4 1_555 1_555
H13_4 C20_4 1_555 1_555
C21_4 N5_4 1_555 1_555
C22_4 H15_4 1_555 1_555
N5_4 C16_4 1_555 1_555
C20_4 C21_4 1_555 1_555
O9_2 C13_4 1_555 1_555
O11_2 C11_4 1_555 1_555
O13_2 C11_4 1_555 1_555
O15_2 C13_4 1_555 1_555
C1_4 C3_4 1_555 1_555
C2_4 C4_4 1_555 1_555
C4_4 H2_4 1_555 1_555
C5_4 C3_4 1_555 1_555
C6_4 C1_4 1_555 1_555
H3_4 C6_4 1_555 1_555
C7_4 H4_4 1_555 1_555
C8_4 C7_4 1_555 1_555
C9_4 C5_4 1_555 1_555
H5_4 C9_4 1_555 1_555
C11_4 C8_4 1_555 1_555
C12_4 C1_4 1_555 1_555
H7_4 C12_4 1_555 1_555
C13_4 C2_4 1_555 1_555
C17_4 C2_4 1_555 1_555
H10_4 C17_4 1_555 1_555
C18_4 C5_4 1_555 1_555
C19_4 C8_4 1_555 1_555
H12_4 C19_4 1_555 1_555
H21_4 C29_4 1_555 1_555
C4_4 C6_4 1_555 1_555
C7_4 C9_4 1_555 1_555
C12_4 C17_4 1_555 1_555
C18_4 C19_4 1_555 1_555
H16_4 C23_4 1_555 1_555
O10_2 C42_4 1_555 1_555
O12_2 C40_4 1_555 1_555
O14_2 C40_4 1_555 1_555
O16_2 C42_4 1_555 1_555
C30_4 C32_4 1_555 1_555
C31_4 C33_4 1_555 1_555
C33_4 H23_4 1_555 1_555
C34_4 C32_4 1_555 1_555
C35_4 C30_4 1_555 1_555
H24_4 C35_4 1_555 1_555
C36_4 H25_4 1_555 1_555
C37_4 C36_4 1_555 1_555
C38_4 C34_4 1_555 1_555
H26_4 C38_4 1_555 1_555
C40_4 C37_4 1_555 1_555
C41_4 C30_4 1_555 1_555
H28_4 C41_4 1_555 1_555
C42_4 C31_4 1_555 1_555
C44_4 C31_4 1_555 1_555
H30_4 C44_4 1_555 1_555
C45_4 C34_4 1_555 1_555
C46_4 C37_4 1_555 1_555
H32_4 C46_4 1_555 1_555
C33_4 C35_4 1_555 1_555
C36_4 C38_4 1_555 1_555
C41_4 C44_4 1_555 1_555
C45_4 C46_4 1_555 1_555
N6_4 C25_4 1_555 1_555
N7_4 C24_4 1_555 1_555
C24_4 C28_4 1_555 1_555
C25_4 N7_4 1_555 1_555
H17_4 C25_4 1_555 1_555
C26_4 N6_4 1_555 1_555
H18_4 C26_4 1_555 1_555
C27_4 N7_4 1_555 1_555
H20_4 C28_4 1_555 1_555
Cd5 N6_4 1_555 1_555
N9_4 Cd5 1_555 1_555
C39_4 N8_4 1_555 1_555
H27_4 C39_4 1_555 1_555
C43_4 N9_4 1_555 1_555
C26_4 C27_4 1_555 1_555
N9_4 C39_4 1_555 1_555

#END
