
###############################################################################
#
# This file contains modified crystal structure data generated from the
# MOF subset of the Cambridge Structural Database (CSD) v543 
# hosted by the Cambridge Crystallographic Data Centre (CCDC).
#
# This work is licensed under the Creative Commons
# Attribution-NonCommercial-ShareAlike 4.0 International License.
# To view a copy of this license, visit
# http://creativecommons.org/licenses/by-nc-sa/4.0/
# or send a letter to
# Creative Commons, PO Box 1866, Mountain View, CA 94042, USA.
#
# CIF created using the CSD Python API on 29 September 2022
# The structure has been converted into the P1 space group
# The structure has a 3D framework
# The original CSD entry GILYUY is in the monoclinic crystal system
# The framework has been calculated to contain at least 10.0% void space
# The void calculation uses a probe of radius 1.32A, grid spacing 0.4
# H atom positions have been added when not included in the experimental data
#
###############################################################################

data_GILYUY
_chemical_formula_moiety         '(C192 H132 Eu8 N52 O54)n'
_symmetry_cell_setting           triclinic
_symmetry_space_group_name_H-M   'P 1'
_symmetry_Int_Tables_number      1
_space_group_name_Hall           'P 1'
loop_
_symmetry_equiv_pos_site_id
_symmetry_equiv_pos_as_xyz
1 x,y,z
_cell_length_a                   18.7852(3)
_cell_length_b                   28.4226(5)
_cell_length_c                   17.6050(3)
_cell_angle_alpha                90
_cell_angle_beta                 117.0920(10)
_cell_angle_gamma                90
_cell_volume                     8368.36
loop_
_atom_site_label
_atom_site_type_symbol
_atom_site_fract_x
_atom_site_fract_y
_atom_site_fract_z
C48 C 0.0019(8) 0.6617(6) 0.8507(11)
H29 H 0.043031 0.640602 0.853750
H31 H 0.015927 0.674134 0.906424
O4 O 0.2748(3) 0.1975(2) 0.6440(3)
O9 O 0.2470(3) 0.22654(19) 0.5159(3)
C12 C 0.2664(5) 0.1931(3) 0.5692(5)
N7 N 0.3497(4) 0.0185(3) 0.4753(5)
N8 N 0.3268(5) 0.0056(3) 0.3931(5)
C27 C 0.3212(5) 0.0617(3) 0.4958(5)
C28 C 0.2743(5) 0.0930(3) 0.4329(5)
H14 H 0.256228 0.085623 0.375566
C29 C 0.2549(4) 0.1354(3) 0.4569(5)
H15 H 0.224805 0.157205 0.415199
C30 C 0.2795(4) 0.1460(3) 0.5427(5)
C31 C 0.3215(5) 0.1118(3) 0.6018(5)
H16 H 0.335520 0.117493 0.658926
C32 C 0.3436(5) 0.0697(3) 0.5802(5)
H17 H 0.372619 0.047518 0.621606
Eu4 Eu 0.24771(2) 0.25678(2) 0.72176(2)
Eu7 Eu 0.28300(2) 0.29147(2) 0.45772(2)
Eu8 Eu 0.71700(2) 0.79147(2) 0.04228(2)
Eu1 Eu 0.75229(2) 0.75678(2) 0.77824(2)
Eu2 Eu 0.71700(2) 0.70853(2) 0.54228(2)
O2 O 0.6871(3) 0.8059(2) 0.6595(3)
O3 O 0.6357(3) 0.7853(2) 0.7802(3)
O5 O 0.6703(3) 0.7024(2) 0.6712(3)
O6 O 0.8622(4) 0.7027(2) 0.8304(4)
O8 O 0.6388(3) 0.8076(2) 0.9015(3)
O12 O 0.6279(3) 0.7718(2) 0.5326(3)
O13 O 0.5989(3) 0.6740(2) 0.5423(3)
O14 O 0.7504(4) 0.6294(3) 0.5959(5)
C1 C 0.9203(12) 0.5873(6) 0.7899(15)
H1 H 0.972477 0.576227 0.801404
H2 H 0.899107 0.567995 0.819554
H3 H 0.885536 0.585812 0.729678
N1 N 0.1433(4) 0.8020(3) 0.6607(4)
C3 C 0.6337(4) 0.8035(3) 0.5827(5)
C6 C 0.6026(4) 0.7974(3) 0.8235(4)
C9 C 0.0731(5) 0.6640(3) 0.6395(5)
H5 H 0.102256 0.655158 0.696293
C10 C 0.1119(4) 0.6749(3) 0.5897(5)
C13 C 0.6053(4) 0.6858(3) 0.6132(5)
C14 C 0.5336(4) 0.6810(3) 0.6285(5)
C15 C 0.4595(5) 0.6743(3) 0.5585(5)
H7 H 0.456720 0.671599 0.504526
C16 C 0.3914(4) 0.6717(3) 0.5664(5)
H8 H 0.342184 0.668647 0.518398
C17 C 0.3958(4) 0.6735(3) 0.6458(5)
N2 N 0.4684(5) 0.6789(3) 0.7189(5)
C18 C 0.5383(5) 0.6830(3) 0.7082(5)
H9 H 0.587682 0.687172 0.755623
C19 C 0.3216(4) 0.6721(3) 0.6517(4)
N3 N 0.3187(4) 0.6630(3) 0.7259(4)
N4 N 0.2448(4) 0.6630(3) 0.7103(4)
N5 N 0.1984(4) 0.6731(3) 0.6276(4)
C20 C 0.2454(4) 0.6790(3) 0.5884(5)
H10 H 0.229507 0.686217 0.531402
C21 C 0.0712(4) 0.6874(3) 0.5087(4)
H11 H 0.098317 0.693952 0.476916
C22 C 0.5730(4) 0.8423(3) 0.5532(5)
C23 C 0.5238(5) 0.8485(3) 0.4674(5)
H12 H 0.526604 0.828132 0.427549
N6 N 0.4693(5) 0.8860(3) 0.4407(5)
C24 C 0.4670(5) 0.9159(3) 0.5013(5)
C25 C 0.4147(4) 0.9559(3) 0.4776(4)
C26 C 0.4041(5) 0.9880(3) 0.5290(5)
H13 H 0.429204 0.988775 0.588279
N9 N 0.3661(6) 0.9672(3) 0.3947(5)
C33 C 0.5138(5) 0.9087(3) 0.5862(5)
H18 H 0.509579 0.928064 0.626530
C34 C 0.5670(5) 0.8722(3) 0.6108(5)
H19 H 0.600297 0.867606 0.668674
C35 C 0.5137(4) 0.8004(3) 0.7818(5)
C36 C 0.4685(4) 0.7964(3) 0.6945(5)
H20 H 0.493623 0.792131 0.660080
N10 N 0.3864(4) 0.7986(3) 0.6582(5)
C37 C 0.3515(5) 0.8030(3) 0.7119(5)
C38 C 0.393591 0.806005 0.798234
H21 H 0.368508 0.808414 0.833031
C39 C 0.4730(5) 0.8053(4) 0.8300(5)
H22 H 0.503202 0.808298 0.888806
C40 C 0.2645(4) 0.8034(3) 0.6772(5)
N11 N 0.2139(4) 0.8068(3) 0.5923(4)
N12 N 0.1401(4) 0.8052(3) 0.5819(4)
C41 C 0.0719(4) 0.7977(3) 0.6688(5)
C42 C 0.0012(5) 0.7867(3) 0.5997(5)
C44 C 0.0085(5) 0.7978(4) 0.7591(5)
H25 H 0.010996 0.802519 0.812518
C45 C 0.0766(5) 0.8043(5) 0.7488(5)
H26 H 0.124634 0.812893 0.794792
C46 C 0.2198(5) 0.8011(3) 0.7212(5)
H27 H 0.238486 0.799374 0.779912
C47 C 0.8623(7) 0.6598(5) 0.8107(8)
H28 H 0.813928 0.643744 0.788658
N13 N 0.9259(6) 0.6364(4) 0.8192(7)
H30 H 0.996702 0.687123 0.812488
O15 O 0.8231(3) 0.7982(2) 0.9020(3)
O16 O 0.7252(3) 0.6975(2) 0.8560(3)
O17 O 0.8627(3) 0.7986(2) 0.7653(3)
O18 O 0.6388(3) 0.6924(2) 0.4015(3)
O19 O 0.7530(3) 0.77346(19) 0.4841(3)
O20 O 0.8257(3) 0.6791(2) 0.5248(3)
O21 O 0.8149(3) 0.7446(2) 0.6677(3)
H32 H 0.701182 0.612708 0.58839
H33 H 0.774641 0.612544 0.563969
O1 O 0.8231(3) 0.7018(2) 0.4020(3)
C2 C 0.8587(4) 0.6878(3) 0.4767(4)
C4 C 0.8662(4) 0.7753(3) 0.7083(4)
C5 C 0.9375(4) 0.7845(3) 0.6922(5)
C7 C 0.9482(4) 0.6806(3) 0.5180(5)
C8 C 0.9908(5) 0.6666(3) 0.6021(5)
H4 H 0.963925 0.658946 0.633525
C11 C 0.9898(4) 0.6908(3) 0.4713(5)
H6 H 0.961864 0.700028 0.414476
H23 H 0.998214 0.783834 0.545759
C43 C 0.9331(4) 0.7800(3) 0.6120(5)
H24 H 0.884543 0.772336 0.565773
Eu5 Eu 0.75229(2) 0.74322(2) 0.27824(2)
O1_2 O 0.1769(3) 0.2018(2) 0.0980(3)
C2_2 C 0.1413(4) 0.1878(3) 0.0233(4)
C11_2 C 0.0102(4) 0.1908(3) 0.0287(5)
H6_2 H 0.038136 0.200028 0.085524
Eu5_2 Eu 0.24771(2) 0.24322(2) 0.22176(2)
O7 O 0.1373(3) 0.2986(2) 0.7347(3)
O10 O 0.1743(3) 0.1791(2) 0.9752(3)
O11 O 0.1851(3) 0.2446(2) 0.8323(3)
C4_2 C 0.1338(4) 0.2753(3) 0.7917(4)
C5_2 C 0.0625(4) 0.2845(3) 0.8078(5)
C7_2 C 0.0518(4) 0.1806(3) 0.9820(5)
C8_2 C 0.0092(5) 0.1666(3) 0.8979(5)
H4_2 H 0.036075 0.158946 0.866475
H23_2 H 0.001786 0.283834 0.954241
C43_2 C 0.0669(4) 0.2800(3) 0.8880(5)
H24_2 H 0.115457 0.272336 0.934227
Eu6 Eu 0.28300(2) 0.20853(2) 0.95772(2)
H11_2 H 0.901683 0.193952 0.023084
C23_2 C 0.4762(5) 0.3485(3) 0.0326(5)
H12_2 H 0.473396 0.328132 0.072451
N6_2 N 0.5307(5) 0.3860(3) 0.0593(5)
C25_2 C 0.5853(4) 0.4559(3) 0.0224(4)
N7_2 N 0.6503(4) 0.5185(3) 0.0247(5)
N8_2 N 0.6732(5) 0.5056(3) 0.1069(5)
N9_2 N 0.6339(6) 0.4672(3) 0.1053(5)
C27_2 C 0.6788(5) 0.5617(3) 0.0042(5)
C28_2 C 0.7257(5) 0.5930(3) 0.0671(5)
H14_2 H 0.743772 0.585623 0.124434
C29_2 C 0.7451(4) 0.6354(3) 0.0431(5)
H15_2 H 0.775195 0.657205 0.084801
O18_2 O 0.3612(3) 0.1924(2) 0.0985(3)
O19_2 O 0.2470(3) 0.27346(19) 0.0159(3)
O2_2 O 0.3129(3) 0.3059(2) 0.8405(3)
O3_2 O 0.3643(3) 0.2853(2) 0.7198(3)
O5_2 O 0.3297(3) 0.2024(2) 0.8288(3)
O6_2 O 0.1378(4) 0.2027(2) 0.6696(4)
O8_2 O 0.3612(3) 0.3076(2) 0.5985(3)
O9_2 O 0.7530(3) 0.72654(19) 0.9841(3)
O12_2 O 0.3721(3) 0.2718(2) 0.9674(3)
O13_2 O 0.4011(3) 0.1740(2) 0.9577(3)
O14_2 O 0.2496(4) 0.1294(3) 0.9041(5)
C1_2 C 0.0797(12) 0.0873(6) 0.7101(15)
H1_2 H 0.027523 0.076227 0.698596
H2_2 H 0.100893 0.067995 0.680446
H3_2 H 0.114464 0.085812 0.770322
N1_2 N 0.8567(4) 0.3020(3) 0.8393(4)
C3_2 C 0.3663(4) 0.3035(3) 0.9173(5)
C6_2 C 0.3974(4) 0.2974(3) 0.6765(4)
C9_2 C 0.9269(5) 0.1640(3) 0.8605(5)
H5_2 H 0.897744 0.155158 0.803707
C10_2 C 0.8881(4) 0.1749(3) 0.9103(5)
C12_2 C 0.7336(5) 0.6931(3) 0.9308(5)
C13_2 C 0.3947(4) 0.1858(3) 0.8868(5)
C14_2 C 0.4664(4) 0.1810(3) 0.8715(5)
C15_2 C 0.5405(5) 0.1743(3) 0.9415(5)
H7_2 H 0.543280 0.171599 0.995474
C16_2 C 0.6086(4) 0.1717(3) 0.9336(5)
H8_2 H 0.657816 0.168647 0.981602
C17_2 C 0.6042(4) 0.1735(3) 0.8542(5)
N2_2 N 0.5316(5) 0.1789(3) 0.7811(5)
C18_2 C 0.4617(5) 0.1830(3) 0.7918(5)
H9_2 H 0.412318 0.187172 0.744377
C19_2 C 0.6784(4) 0.1721(3) 0.8483(4)
N3_2 N 0.6813(4) 0.1630(3) 0.7741(4)
N4_2 N 0.7552(4) 0.1630(3) 0.7897(4)
N5_2 N 0.8016(4) 0.1731(3) 0.8724(4)
C20_2 C 0.7546(4) 0.1790(3) 0.9116(5)
H10_2 H 0.770493 0.186217 0.968598
C21_2 C 0.9288(4) 0.1874(3) 0.9913(4)
C22_2 C 0.4270(4) 0.3423(3) 0.9468(5)
C24_2 C 0.5330(5) 0.4159(3) 0.9987(5)
C26_2 C 0.5959(5) 0.4880(3) 0.9710(5)
H13_2 H 0.570796 0.488775 0.911721
C30_2 C 0.7205(4) 0.6460(3) 0.9573(5)
C31_2 C 0.6785(5) 0.6118(3) 0.8982(5)
H16_2 H 0.664480 0.617493 0.841074
C32_2 C 0.6564(5) 0.5697(3) 0.9198(5)
H17_2 H 0.627381 0.547518 0.878394
C33_2 C 0.4862(5) 0.4087(3) 0.9138(5)
H18_2 H 0.490421 0.428064 0.873470
C34_2 C 0.4330(5) 0.3722(3) 0.8892(5)
H19_2 H 0.399703 0.367606 0.831326
C35_2 C 0.4863(4) 0.3004(3) 0.7182(5)
C36_2 C 0.5315(4) 0.2964(3) 0.8055(5)
H20_2 H 0.506377 0.292131 0.839920
N10_2 N 0.6136(4) 0.2986(3) 0.8418(5)
C37_2 C 0.6485(5) 0.3030(3) 0.7881(5)
C38_2 C 0.606409 0.306005 0.701766
H21_2 H 0.631492 0.308414 0.666969
C39_2 C 0.5270(5) 0.3053(4) 0.6700(5)
H22_2 H 0.496798 0.308298 0.611194
C40_2 C 0.7355(4) 0.3034(3) 0.8228(5)
N11_2 N 0.7861(4) 0.3068(3) 0.9077(4)
N12_2 N 0.8599(4) 0.3052(3) 0.9181(4)
C41_2 C 0.9281(4) 0.2977(3) 0.8312(5)
C42_2 C 0.9988(5) 0.2867(3) 0.9003(5)
C44_2 C 0.9915(5) 0.2978(4) 0.7409(5)
H25_2 H 0.989004 0.302519 0.687482
C45_2 C 0.9234(5) 0.3043(5) 0.7512(5)
H26_2 H 0.875366 0.312893 0.705208
C46_2 C 0.7802(5) 0.3011(3) 0.7788(5)
H27_2 H 0.761514 0.299374 0.720088
C47_2 C 0.1377(7) 0.1598(5) 0.6893(8)
H28_2 H 0.186072 0.143744 0.711342
N13_2 N 0.0741(6) 0.1364(4) 0.6808(7)
H30_2 H 0.003298 0.187123 0.687512
O15_2 O 0.1769(3) 0.2982(2) 0.5980(3)
H32_2 H 0.298818 0.112708 0.91161
H33_2 H 0.225359 0.112544 0.936031
O7_2 O 0.1373(3) 0.2014(2) 0.2347(3)
O10_2 O 0.1743(3) 0.3209(2) 0.4752(3)
O11_2 O 0.1851(3) 0.2554(2) 0.3323(3)
C2_3 C 0.1413(4) 0.3122(3) 0.5233(4)
C4_3 C 0.1338(4) 0.2247(3) 0.2917(4)
C5_3 C 0.0625(4) 0.2155(3) 0.3078(5)
C7_3 C 0.0518(4) 0.3194(3) 0.4820(5)
C8_3 C 0.0092(5) 0.3334(3) 0.3979(5)
H4_3 H 0.036075 0.341054 0.366475
C11_3 C 0.0102(4) 0.3092(3) 0.5287(5)
H6_3 H 0.038136 0.299972 0.585524
H23_3 H 0.001786 0.216166 0.454241
C43_3 C 0.0669(4) 0.2200(3) 0.3880(5)
H24_3 H 0.115457 0.227664 0.434227
O2_3 O 0.3129(3) 0.1941(2) 0.3405(3)
O3_3 O 0.3643(3) 0.2147(2) 0.2198(3)
O5_3 O 0.3297(3) 0.2976(2) 0.3288(3)
O6_3 O 0.1378(4) 0.2973(2) 0.1696(4)
O12_3 O 0.3721(3) 0.2282(2) 0.4674(3)
O13_3 O 0.4011(3) 0.3260(2) 0.4577(3)
O14_3 O 0.2496(4) 0.3706(3) 0.4041(5)
C1_3 C 0.0797(12) 0.4127(6) 0.2101(15)
H1_3 H 0.027523 0.423773 0.198596
H2_3 H 0.100893 0.432005 0.180446
H3_3 H 0.114464 0.414188 0.270322
N1_3 N 0.8567(4) 0.1980(3) 0.3393(4)
C3_3 C 0.3663(4) 0.1965(3) 0.4173(5)
C6_3 C 0.3974(4) 0.2026(3) 0.1765(4)
C9_3 C 0.9269(5) 0.3360(3) 0.3605(5)
H5_3 H 0.897744 0.344842 0.303707
C10_3 C 0.8881(4) 0.3251(3) 0.4103(5)
C13_3 C 0.3947(4) 0.3142(3) 0.3868(5)
C14_3 C 0.4664(4) 0.3190(3) 0.3715(5)
C15_3 C 0.5405(5) 0.3257(3) 0.4415(5)
H7_3 H 0.543280 0.328401 0.495474
C16_3 C 0.6086(4) 0.3283(3) 0.4336(5)
H8_3 H 0.657816 0.331353 0.481602
C17_3 C 0.6042(4) 0.3265(3) 0.3542(5)
N2_3 N 0.5316(5) 0.3211(3) 0.2811(5)
C18_3 C 0.4617(5) 0.3170(3) 0.2918(5)
H9_3 H 0.412318 0.312828 0.244377
C19_3 C 0.6784(4) 0.3279(3) 0.3483(4)
N3_3 N 0.6813(4) 0.3370(3) 0.2741(4)
N4_3 N 0.7552(4) 0.3370(3) 0.2897(4)
N5_3 N 0.8016(4) 0.3269(3) 0.3724(4)
C20_3 C 0.7546(4) 0.3210(3) 0.4116(5)
H10_3 H 0.770493 0.313783 0.468598
C21_3 C 0.9288(4) 0.3126(3) 0.4913(4)
H11_3 H 0.901683 0.306048 0.523084
C22_3 C 0.4270(4) 0.1577(3) 0.4468(5)
C23_3 C 0.4762(5) 0.1515(3) 0.5326(5)
H12_3 H 0.473396 0.171868 0.572451
N6_3 N 0.5307(5) 0.1140(3) 0.5593(5)
C24_3 C 0.5330(5) 0.0841(3) 0.4987(5)
C25_3 C 0.5853(4) 0.0441(3) 0.5224(4)
C26_3 C 0.5959(5) 0.0120(3) 0.4710(5)
H13_3 H 0.570796 0.011225 0.411721
N9_3 N 0.6339(6) 0.0328(3) 0.6053(5)
C33_3 C 0.4862(5) 0.0913(3) 0.4138(5)
H18_3 H 0.490421 0.071936 0.373470
C34_3 C 0.4330(5) 0.1278(3) 0.3892(5)
H19_3 H 0.399703 0.132394 0.331326
C35_3 C 0.4863(4) 0.1996(3) 0.2182(5)
C36_3 C 0.5315(4) 0.2036(3) 0.3055(5)
H20_3 H 0.506377 0.207869 0.339920
N10_3 N 0.6136(4) 0.2014(3) 0.3418(5)
C37_3 C 0.6485(5) 0.1970(3) 0.2881(5)
C38_3 C 0.606409 0.193995 0.201766
H21_3 H 0.631492 0.191586 0.166969
C39_3 C 0.5270(5) 0.1947(4) 0.1700(5)
H22_3 H 0.496798 0.191702 0.111194
C40_3 C 0.7355(4) 0.1966(3) 0.3228(5)
N11_3 N 0.7861(4) 0.1932(3) 0.4077(4)
N12_3 N 0.8599(4) 0.1948(3) 0.4181(4)
C41_3 C 0.9281(4) 0.2023(3) 0.3312(5)
C42_3 C 0.9988(5) 0.2133(3) 0.4003(5)
C44_3 C 0.9915(5) 0.2022(4) 0.2409(5)
H25_3 H 0.989004 0.197481 0.187482
C45_3 C 0.9234(5) 0.1957(5) 0.2512(5)
H26_3 H 0.875366 0.187107 0.205208
C46_3 C 0.7802(5) 0.1989(3) 0.2788(5)
H27_3 H 0.761514 0.200626 0.220088
C47_3 C 0.1377(7) 0.3402(5) 0.1893(8)
H28_3 H 0.186072 0.356256 0.211342
N13_3 N 0.0741(6) 0.3636(4) 0.1808(7)
H30_3 H 0.003298 0.312877 0.187512
O16_2 O 0.2748(3) 0.3025(2) 0.1440(3)
H32_3 H 0.298818 0.387292 0.41161
H33_3 H 0.225359 0.387456 0.436031
O4_2 O 0.7252(3) 0.8025(2) 0.3560(3)
C12_3 C 0.7336(5) 0.8069(3) 0.4308(5)
N7_3 N 0.6503(4) 0.9815(3) 0.5247(5)
N8_3 N 0.6732(5) 0.9944(3) 0.6069(5)
C27_3 C 0.6788(5) 0.9383(3) 0.5042(5)
C28_3 C 0.7257(5) 0.9070(3) 0.5671(5)
H14_3 H 0.743772 0.914377 0.624434
C29_3 C 0.7451(4) 0.8646(3) 0.5431(5)
H15_3 H 0.775195 0.842795 0.584801
C30_3 C 0.7205(4) 0.8540(3) 0.4573(5)
C31_3 C 0.6785(5) 0.8882(3) 0.3982(5)
H16_3 H 0.664480 0.882507 0.341074
C32_3 C 0.6564(5) 0.9303(3) 0.4198(5)
H17_3 H 0.627381 0.952482 0.378394
O2_4 O 0.6871(3) 0.6941(2) 0.1595(3)
O3_4 O 0.6357(3) 0.7147(2) 0.2802(3)
O5_4 O 0.6703(3) 0.7976(2) 0.1712(3)
O6_4 O 0.8622(4) 0.7973(2) 0.3304(4)
O12_4 O 0.6279(3) 0.7282(2) 0.0326(3)
O13_4 O 0.5989(3) 0.8260(2) 0.0423(3)
O14_4 O 0.7504(4) 0.8706(3) 0.0959(5)
C1_4 C 0.9203(12) 0.9127(6) 0.2899(15)
H1_4 H 0.972477 0.923773 0.301404
H2_4 H 0.899107 0.932005 0.319554
H3_4 H 0.885536 0.914188 0.229678
N1_4 N 0.1433(4) 0.6980(3) 0.1607(4)
C3_4 C 0.6337(4) 0.6965(3) 0.0827(5)
C6_4 C 0.6026(4) 0.7026(3) 0.3235(4)
C9_4 C 0.0731(5) 0.8360(3) 0.1395(5)
H5_4 H 0.102256 0.844842 0.196293
C10_4 C 0.1119(4) 0.8251(3) 0.0897(5)
C12_4 C 0.2664(5) 0.3069(3) 0.0692(5)
C13_4 C 0.6053(4) 0.8142(3) 0.1132(5)
C14_4 C 0.5336(4) 0.8190(3) 0.1285(5)
C15_4 C 0.4595(5) 0.8257(3) 0.0585(5)
H7_4 H 0.456720 0.828401 0.004526
C16_4 C 0.3914(4) 0.8283(3) 0.0664(5)
H8_4 H 0.342184 0.831353 0.018398
C17_4 C 0.3958(4) 0.8265(3) 0.1458(5)
N2_4 N 0.4684(5) 0.8211(3) 0.2189(5)
C18_4 C 0.5383(5) 0.8170(3) 0.2082(5)
H9_4 H 0.587682 0.812828 0.255623
C19_4 C 0.3216(4) 0.8279(3) 0.1517(4)
N3_4 N 0.3187(4) 0.8370(3) 0.2259(4)
N4_4 N 0.2448(4) 0.8370(3) 0.2103(4)
N5_4 N 0.1984(4) 0.8269(3) 0.1276(4)
C20_4 C 0.2454(4) 0.8210(3) 0.0884(5)
H10_4 H 0.229507 0.813783 0.031402
C21_4 C 0.0712(4) 0.8126(3) 0.0087(4)
C22_4 C 0.5730(4) 0.6577(3) 0.0532(5)
C24_4 C 0.4670(5) 0.5841(3) 0.0013(5)
C26_4 C 0.4041(5) 0.5120(3) 0.0290(5)
H13_4 H 0.429204 0.511225 0.088279
C30_4 C 0.2795(4) 0.3540(3) 0.0427(5)
C31_4 C 0.3215(5) 0.3882(3) 0.1018(5)
H16_4 H 0.335520 0.382507 0.158926
C32_4 C 0.3436(5) 0.4303(3) 0.0802(5)
H17_4 H 0.372619 0.452482 0.121606
C33_4 C 0.5138(5) 0.5913(3) 0.0862(5)
H18_4 H 0.509579 0.571936 0.126530
C34_4 C 0.5670(5) 0.6278(3) 0.1108(5)
H19_4 H 0.600297 0.632394 0.168674
C35_4 C 0.5137(4) 0.6996(3) 0.2818(5)
C36_4 C 0.4685(4) 0.7036(3) 0.1945(5)
H20_4 H 0.493623 0.707869 0.160080
N10_4 N 0.3864(4) 0.7014(3) 0.1582(5)
C37_4 C 0.3515(5) 0.6970(3) 0.2119(5)
C38_4 C 0.393591 0.693995 0.298234
H21_4 H 0.368508 0.691586 0.333031
C39_4 C 0.4730(5) 0.6947(4) 0.3300(5)
H22_4 H 0.503202 0.691702 0.388806
C40_4 C 0.2645(4) 0.6966(3) 0.1772(5)
N11_4 N 0.2139(4) 0.6932(3) 0.0923(4)
N12_4 N 0.1401(4) 0.6948(3) 0.0819(4)
C41_4 C 0.0719(4) 0.7023(3) 0.1688(5)
C42_4 C 0.0012(5) 0.7133(3) 0.0997(5)
C44_4 C 0.0085(5) 0.7022(4) 0.2591(5)
H25_4 H 0.010996 0.697481 0.312518
C45_4 C 0.0766(5) 0.6957(5) 0.2488(5)
H26_4 H 0.124634 0.687107 0.294792
C46_4 C 0.2198(5) 0.6989(3) 0.2212(5)
H27_4 H 0.238486 0.700626 0.279912
C47_4 C 0.8623(7) 0.8402(5) 0.3107(8)
H28_4 H 0.813928 0.856256 0.288658
N13_4 N 0.9259(6) 0.8636(4) 0.3192(7)
H30_4 H 0.996702 0.812877 0.312488
O17_2 O 0.8627(3) 0.7014(2) 0.2653(3)
O20_2 O 0.8257(3) 0.8209(2) 0.0248(3)
O21_2 O 0.8149(3) 0.7554(2) 0.1677(3)
H32_4 H 0.701182 0.887292 0.0883902
H33_4 H 0.774641 0.887456 0.0639687
H11_4 H 0.098317 0.806048 0.976916
C23_4 C 0.5238(5) 0.6515(3) 0.9674(5)
H12_4 H 0.526604 0.671868 0.927549
N6_4 N 0.4693(5) 0.6140(3) 0.9407(5)
C25_4 C 0.4147(4) 0.5441(3) 0.9776(4)
N7_4 N 0.3497(4) 0.4815(3) 0.9753(5)
N8_4 N 0.3268(5) 0.4944(3) 0.8931(5)
N9_4 N 0.3661(6) 0.5328(3) 0.8947(5)
C27_4 C 0.3212(5) 0.4383(3) 0.9958(5)
C28_4 C 0.2743(5) 0.4070(3) 0.9329(5)
H14_4 H 0.256228 0.414377 0.875566
C29_4 C 0.2549(4) 0.3646(3) 0.9569(5)
H15_4 H 0.224805 0.342795 0.915199
C4_4 C 0.8662(4) 0.7247(3) 0.2083(4)
C5_4 C 0.9375(4) 0.7155(3) 0.1922(5)
C7_4 C 0.9482(4) 0.8194(3) 0.0180(5)
C8_4 C 0.9908(5) 0.8334(3) 0.1021(5)
H4_4 H 0.963925 0.841054 0.133525
H23_4 H 0.998214 0.716166 0.045759
C43_4 C 0.9331(4) 0.7200(3) 0.1120(5)
H24_4 H 0.884543 0.727664 0.065773
C2_4 C 0.8587(4) 0.8122(3) 0.9767(4)
C11_4 C 0.9898(4) 0.8092(3) 0.9713(5)
H6_4 H 0.961864 0.799972 0.914476
C48_2 C 0.9981(8) 0.1617(6) 0.6493(11)
H29_2 H 0.956969 0.140602 0.646250
H31_2 H 0.984073 0.174134 0.593576
C48_3 C 0.9981(8) 0.3383(6) 0.1493(11)
H29_3 H 0.956969 0.359398 0.146250
H31_3 H 0.984073 0.325866 0.093576
C48_4 C 0.0019(8) 0.8383(6) 0.3507(11)
H29_4 H 0.043031 0.859398 0.353750
H31_4 H 0.015927 0.825866 0.406424
loop_
_geom_bond_atom_site_label_1
_geom_bond_atom_site_label_2
_geom_bond_site_symmetry_1
_geom_bond_site_symmetry_2
H29 C48 1_555 1_555
H31 C48 1_555 1_555
O4 C12 1_555 1_555
O9 C12 1_555 1_555
C12 C30 1_555 1_555
N8 N7 1_555 1_555
C27 N7 1_555 1_555
C28 C27 1_555 1_555
H14 C28 1_555 1_555
C29 C28 1_555 1_555
H15 C29 1_555 1_555
C30 C29 1_555 1_555
C31 C30 1_555 1_555
H16 C31 1_555 1_555
C32 C27 1_555 1_555
H17 C32 1_555 1_555
Eu4 O4 1_555 1_555
Eu7 O9 1_555 1_555
C31 C32 1_555 1_555
Eu1 O2 1_555 1_555
Eu2 O5 1_555 1_555
O2 C3 1_555 1_555
O3 Eu1 1_555 1_555
O5 Eu1 1_555 1_555
O6 Eu1 1_555 1_555
O8 C6 1_555 1_555
O12 Eu2 1_555 1_555
O13 Eu2 1_555 1_555
O14 Eu2 1_555 1_555
C1 H1 1_555 1_555
H2 C1 1_555 1_555
H3 C1 1_555 1_555
N1 N12 1_555 1_555
C3 O12 1_555 1_555
C6 O3 1_555 1_555
H5 C9 1_555 1_555
C10 C9 1_555 1_555
C13 O5 1_555 1_555
C14 C13 1_555 1_555
C15 C14 1_555 1_555
H7 C15 1_555 1_555
C16 C15 1_555 1_555
H8 C16 1_555 1_555
C17 C16 1_555 1_555
N2 C17 1_555 1_555
C18 C14 1_555 1_555
H9 C18 1_555 1_555
C19 C17 1_555 1_555
N3 C19 1_555 1_555
N4 N3 1_555 1_555
N5 C10 1_555 1_555
C20 C19 1_555 1_555
H10 C20 1_555 1_555
C21 C10 1_555 1_555
H11 C21 1_555 1_555
C22 C3 1_555 1_555
C23 C22 1_555 1_555
H12 C23 1_555 1_555
N6 C23 1_555 1_555
C24 N6 1_555 1_555
C25 C24 1_555 1_555
C26 C25 1_555 1_555
H13 C26 1_555 1_555
N9 C25 1_555 1_555
C33 C24 1_555 1_555
H18 C33 1_555 1_555
C34 C22 1_555 1_555
H19 C34 1_555 1_555
C35 C6 1_555 1_555
C36 C35 1_555 1_555
H20 C36 1_555 1_555
N10 C36 1_555 1_555
C37 N10 1_555 1_555
C38 C37 1_555 1_555
H21 C38 1_555 1_555
C39 C35 1_555 1_555
H22 C39 1_555 1_555
C40 C37 1_555 1_555
N11 C40 1_555 1_555
N12 N11 1_555 1_555
C41 N1 1_555 1_555
C42 C41 1_555 1_555
H25 C44 1_555 1_555
C45 C41 1_555 1_555
H26 C45 1_555 1_555
C46 N1 1_555 1_555
H27 C46 1_555 1_555
C47 O6 1_555 1_555
H28 C47 1_555 1_555
N13 C1 1_555 1_555
O15 Eu1 1_555 1_555
O16 Eu1 1_555 1_555
O17 Eu1 1_555 1_555
O18 Eu2 1_555 1_555
O19 Eu2 1_555 1_555
O20 Eu2 1_555 1_555
O21 Eu1 1_555 1_555
Eu2 O21 1_555 1_555
O13 C13 1_555 1_555
N2 C18 1_555 1_555
N4 N5 1_555 1_555
N5 C20 1_555 1_555
C33 C34 1_555 1_555
C38 C39 1_555 1_555
C40 C46 1_555 1_555
C44 C45 1_555 1_555
C47 N13 1_555 1_555
O14 H32 1_555 1_555
O14 H33 1_555 1_555
O1 C2 1_555 1_555
O17 C4 1_555 1_555
O20 C2 1_555 1_555
O21 C4 1_555 1_555
C2 C7 1_555 1_555
C4 C5 1_555 1_555
C5 C43 1_555 1_555
C7 C8 1_555 1_555
C8 H4 1_555 1_555
C11 C7 1_555 1_555
H6 C11 1_555 1_555
H24 C43 1_555 1_555
Eu5 O1 1_555 1_555
O1_2 C2_2 1_555 1_555
H6_2 C11_2 1_555 1_555
Eu5_2 O1_2 1_555 1_555
O7 C4_2 1_555 1_555
O11 C4_2 1_555 1_555
C4_2 C5_2 1_555 1_555
C5_2 C43_2 1_555 1_555
C7_2 C8_2 1_555 1_555
C8_2 H4_2 1_555 1_555
H24_2 C43_2 1_555 1_555
Eu4 O7 1_555 1_555
Eu6 O10 1_555 1_555
O11 Eu4 1_555 1_555
O11 Eu6 1_555 1_555
H12_2 C23_2 1_555 1_555
N6_2 C23_2 1_555 1_555
N8_2 N7_2 1_555 1_555
N9_2 C25_2 1_555 1_555
C27_2 N7_2 1_555 1_555
C28_2 C27_2 1_555 1_555
H14_2 C28_2 1_555 1_555
C29_2 C28_2 1_555 1_555
H15_2 C29_2 1_555 1_555
N8_2 N9_2 1_555 1_555
Eu4 O2_2 1_555 1_555
Eu6 O5_2 1_555 1_555
O2_2 C3_2 1_555 1_555
O3_2 Eu4 1_555 1_555
O16 C12_2 1_555 1_555
O5_2 Eu4 1_555 1_555
O6_2 Eu4 1_555 1_555
O8_2 C6_2 1_555 1_555
O9_2 C12_2 1_555 1_555
O12_2 Eu6 1_555 1_555
O13_2 Eu6 1_555 1_555
O14_2 Eu6 1_555 1_555
C1_2 H1_2 1_555 1_555
H2_2 C1_2 1_555 1_555
H3_2 C1_2 1_555 1_555
N1_2 N12_2 1_555 1_555
C3_2 O12_2 1_555 1_555
C6_2 O3_2 1_555 1_555
H5_2 C9_2 1_555 1_555
C10_2 C9_2 1_555 1_555
C12_2 C30_2 1_555 1_555
C13_2 O5_2 1_555 1_555
C14_2 C13_2 1_555 1_555
C15_2 C14_2 1_555 1_555
H7_2 C15_2 1_555 1_555
C16_2 C15_2 1_555 1_555
H8_2 C16_2 1_555 1_555
C17_2 C16_2 1_555 1_555
N2_2 C17_2 1_555 1_555
C18_2 C14_2 1_555 1_555
H9_2 C18_2 1_555 1_555
C19_2 C17_2 1_555 1_555
N3_2 C19_2 1_555 1_555
N4_2 N3_2 1_555 1_555
N5_2 C10_2 1_555 1_555
C20_2 C19_2 1_555 1_555
H10_2 C20_2 1_555 1_555
C21_2 C10_2 1_555 1_555
C22_2 C3_2 1_555 1_555
H13_2 C26_2 1_555 1_555
C31_2 C30_2 1_555 1_555
H16_2 C31_2 1_555 1_555
H17_2 C32_2 1_555 1_555
C33_2 C24_2 1_555 1_555
H18_2 C33_2 1_555 1_555
C34_2 C22_2 1_555 1_555
H19_2 C34_2 1_555 1_555
C35_2 C6_2 1_555 1_555
C36_2 C35_2 1_555 1_555
H20_2 C36_2 1_555 1_555
N10_2 C36_2 1_555 1_555
C37_2 N10_2 1_555 1_555
C38_2 C37_2 1_555 1_555
H21_2 C38_2 1_555 1_555
C39_2 C35_2 1_555 1_555
H22_2 C39_2 1_555 1_555
C40_2 C37_2 1_555 1_555
N11_2 C40_2 1_555 1_555
N12_2 N11_2 1_555 1_555
C41_2 N1_2 1_555 1_555
C42_2 C41_2 1_555 1_555
H25_2 C44_2 1_555 1_555
C45_2 C41_2 1_555 1_555
H26_2 C45_2 1_555 1_555
C46_2 N1_2 1_555 1_555
H27_2 C46_2 1_555 1_555
C47_2 O6_2 1_555 1_555
H28_2 C47_2 1_555 1_555
N13_2 C1_2 1_555 1_555
Eu7 O8_2 1_555 1_555
O15_2 Eu4 1_555 1_555
O13_2 C13_2 1_555 1_555
N2_2 C18_2 1_555 1_555
N4_2 N5_2 1_555 1_555
N5_2 C20_2 1_555 1_555
C31_2 C32_2 1_555 1_555
C33_2 C34_2 1_555 1_555
C38_2 C39_2 1_555 1_555
C40_2 C46_2 1_555 1_555
C44_2 C45_2 1_555 1_555
C47_2 N13_2 1_555 1_555
O14_2 H32_2 1_555 1_555
O14_2 H33_2 1_555 1_555
O15_2 C2_3 1_555 1_555
O7_2 C4_3 1_555 1_555
O10_2 C2_3 1_555 1_555
O11_2 C4_3 1_555 1_555
C2_3 C7_3 1_555 1_555
C4_3 C5_3 1_555 1_555
C5_3 C43_3 1_555 1_555
C7_3 C8_3 1_555 1_555
C8_3 H4_3 1_555 1_555
C11_3 C7_3 1_555 1_555
H6_3 C11_3 1_555 1_555
H24_3 C43_3 1_555 1_555
Eu5_2 O7_2 1_555 1_555
Eu7 O10_2 1_555 1_555
O11_2 Eu5_2 1_555 1_555
O11_2 Eu7 1_555 1_555
Eu5_2 O2_3 1_555 1_555
Eu7 O5_3 1_555 1_555
O2_3 C3_3 1_555 1_555
O3_3 Eu5_2 1_555 1_555
O5_3 Eu5_2 1_555 1_555
O6_3 Eu5_2 1_555 1_555
O18_2 C6_3 1_555 1_555
O12_3 Eu7 1_555 1_555
O13_3 Eu7 1_555 1_555
O14_3 Eu7 1_555 1_555
C1_3 H1_3 1_555 1_555
H2_3 C1_3 1_555 1_555
H3_3 C1_3 1_555 1_555
N1_3 N12_3 1_555 1_555
C3_3 O12_3 1_555 1_555
C6_3 O3_3 1_555 1_555
H5_3 C9_3 1_555 1_555
C10_3 C9_3 1_555 1_555
C13_3 O5_3 1_555 1_555
C14_3 C13_3 1_555 1_555
C15_3 C14_3 1_555 1_555
H7_3 C15_3 1_555 1_555
C16_3 C15_3 1_555 1_555
H8_3 C16_3 1_555 1_555
C17_3 C16_3 1_555 1_555
N2_3 C17_3 1_555 1_555
C18_3 C14_3 1_555 1_555
H9_3 C18_3 1_555 1_555
C19_3 C17_3 1_555 1_555
N3_3 C19_3 1_555 1_555
N4_3 N3_3 1_555 1_555
N5_3 C10_3 1_555 1_555
C20_3 C19_3 1_555 1_555
H10_3 C20_3 1_555 1_555
C21_3 C10_3 1_555 1_555
H11_3 C21_3 1_555 1_555
C22_3 C3_3 1_555 1_555
C23_3 C22_3 1_555 1_555
H12_3 C23_3 1_555 1_555
N6_3 C23_3 1_555 1_555
C24_3 N6_3 1_555 1_555
C25_3 C24_3 1_555 1_555
C26_3 C25_3 1_555 1_555
H13_3 C26_3 1_555 1_555
N9_3 C25_3 1_555 1_555
C33_3 C24_3 1_555 1_555
H18_3 C33_3 1_555 1_555
C34_3 C22_3 1_555 1_555
H19_3 C34_3 1_555 1_555
C35_3 C6_3 1_555 1_555
C36_3 C35_3 1_555 1_555
H20_3 C36_3 1_555 1_555
N10_3 C36_3 1_555 1_555
C37_3 N10_3 1_555 1_555
C38_3 C37_3 1_555 1_555
H21_3 C38_3 1_555 1_555
C39_3 C35_3 1_555 1_555
H22_3 C39_3 1_555 1_555
C40_3 C37_3 1_555 1_555
N11_3 C40_3 1_555 1_555
N12_3 N11_3 1_555 1_555
C41_3 N1_3 1_555 1_555
C42_3 C41_3 1_555 1_555
H25_3 C44_3 1_555 1_555
C45_3 C41_3 1_555 1_555
H26_3 C45_3 1_555 1_555
C46_3 N1_3 1_555 1_555
H27_3 C46_3 1_555 1_555
C47_3 O6_3 1_555 1_555
H28_3 C47_3 1_555 1_555
N13_3 C1_3 1_555 1_555
O16_2 Eu5_2 1_555 1_555
O13_3 C13_3 1_555 1_555
N2_3 C18_3 1_555 1_555
N4_3 N5_3 1_555 1_555
N5_3 C20_3 1_555 1_555
C33_3 C34_3 1_555 1_555
C38_3 C39_3 1_555 1_555
C40_3 C46_3 1_555 1_555
C44_3 C45_3 1_555 1_555
C47_3 N13_3 1_555 1_555
O14_3 H32_3 1_555 1_555
O14_3 H33_3 1_555 1_555
O4_2 C12_3 1_555 1_555
O19 C12_3 1_555 1_555
C12_3 C30_3 1_555 1_555
N8_3 N7_3 1_555 1_555
C27_3 N7_3 1_555 1_555
C28_3 C27_3 1_555 1_555
H14_3 C28_3 1_555 1_555
C29_3 C28_3 1_555 1_555
H15_3 C29_3 1_555 1_555
C30_3 C29_3 1_555 1_555
C31_3 C30_3 1_555 1_555
H16_3 C31_3 1_555 1_555
C32_3 C27_3 1_555 1_555
H17_3 C32_3 1_555 1_555
Eu5 O4_2 1_555 1_555
C31_3 C32_3 1_555 1_555
Eu5 O2_4 1_555 1_555
Eu8 O5_4 1_555 1_555
O2_4 C3_4 1_555 1_555
O3_4 Eu5 1_555 1_555
O16_2 C12_4 1_555 1_555
O5_4 Eu5 1_555 1_555
O6_4 Eu5 1_555 1_555
O18 C6_4 1_555 1_555
O19_2 C12_4 1_555 1_555
O12_4 Eu8 1_555 1_555
O13_4 Eu8 1_555 1_555
O14_4 Eu8 1_555 1_555
C1_4 H1_4 1_555 1_555
H2_4 C1_4 1_555 1_555
H3_4 C1_4 1_555 1_555
N1_4 N12_4 1_555 1_555
C3_4 O12_4 1_555 1_555
C6_4 O3_4 1_555 1_555
H5_4 C9_4 1_555 1_555
C10_4 C9_4 1_555 1_555
C12_4 C30_4 1_555 1_555
C13_4 O5_4 1_555 1_555
C14_4 C13_4 1_555 1_555
C15_4 C14_4 1_555 1_555
H7_4 C15_4 1_555 1_555
C16_4 C15_4 1_555 1_555
H8_4 C16_4 1_555 1_555
C17_4 C16_4 1_555 1_555
N2_4 C17_4 1_555 1_555
C18_4 C14_4 1_555 1_555
H9_4 C18_4 1_555 1_555
C19_4 C17_4 1_555 1_555
N3_4 C19_4 1_555 1_555
N4_4 N3_4 1_555 1_555
N5_4 C10_4 1_555 1_555
C20_4 C19_4 1_555 1_555
H10_4 C20_4 1_555 1_555
C21_4 C10_4 1_555 1_555
C22_4 C3_4 1_555 1_555
H13_4 C26_4 1_555 1_555
C31_4 C30_4 1_555 1_555
H16_4 C31_4 1_555 1_555
H17_4 C32_4 1_555 1_555
C33_4 C24_4 1_555 1_555
H18_4 C33_4 1_555 1_555
C34_4 C22_4 1_555 1_555
H19_4 C34_4 1_555 1_555
C35_4 C6_4 1_555 1_555
C36_4 C35_4 1_555 1_555
H20_4 C36_4 1_555 1_555
N10_4 C36_4 1_555 1_555
C37_4 N10_4 1_555 1_555
C38_4 C37_4 1_555 1_555
H21_4 C38_4 1_555 1_555
C39_4 C35_4 1_555 1_555
H22_4 C39_4 1_555 1_555
C40_4 C37_4 1_555 1_555
N11_4 C40_4 1_555 1_555
N12_4 N11_4 1_555 1_555
C41_4 N1_4 1_555 1_555
C42_4 C41_4 1_555 1_555
H25_4 C44_4 1_555 1_555
C45_4 C41_4 1_555 1_555
H26_4 C45_4 1_555 1_555
C46_4 N1_4 1_555 1_555
H27_4 C46_4 1_555 1_555
C47_4 O6_4 1_555 1_555
H28_4 C47_4 1_555 1_555
N13_4 C1_4 1_555 1_555
O17_2 Eu5 1_555 1_555
O20_2 Eu8 1_555 1_555
O21_2 Eu5 1_555 1_555
Eu8 O21_2 1_555 1_555
O13_4 C13_4 1_555 1_555
N2_4 C18_4 1_555 1_555
N4_4 N5_4 1_555 1_555
N5_4 C20_4 1_555 1_555
C31_4 C32_4 1_555 1_555
C33_4 C34_4 1_555 1_555
C38_4 C39_4 1_555 1_555
C40_4 C46_4 1_555 1_555
C44_4 C45_4 1_555 1_555
C47_4 N13_4 1_555 1_555
O14_4 H32_4 1_555 1_555
O14_4 H33_4 1_555 1_555
H12_4 C23_4 1_555 1_555
N6_4 C23_4 1_555 1_555
N8_4 N7_4 1_555 1_555
N9_4 C25_4 1_555 1_555
C27_4 N7_4 1_555 1_555
C28_4 C27_4 1_555 1_555
H14_4 C28_4 1_555 1_555
C29_4 C28_4 1_555 1_555
H15_4 C29_4 1_555 1_555
N8_4 N9_4 1_555 1_555
O17_2 C4_4 1_555 1_555
O21_2 C4_4 1_555 1_555
C4_4 C5_4 1_555 1_555
C5_4 C43_4 1_555 1_555
C7_4 C8_4 1_555 1_555
C8_4 H4_4 1_555 1_555
H24_4 C43_4 1_555 1_555
O15 C2_4 1_555 1_555
H6_4 C11_4 1_555 1_555
H29_2 C48_2 1_555 1_555
H31_2 C48_2 1_555 1_555
H29_3 C48_3 1_555 1_555
H31_3 C48_3 1_555 1_555
H29_4 C48_4 1_555 1_555
H31_4 C48_4 1_555 1_555

#END
