
###############################################################################
#
# This file contains modified crystal structure data generated from the
# MOF subset of the Cambridge Structural Database (CSD) v543 
# hosted by the Cambridge Crystallographic Data Centre (CCDC).
#
# This work is licensed under the Creative Commons
# Attribution-NonCommercial-ShareAlike 4.0 International License.
# To view a copy of this license, visit
# http://creativecommons.org/licenses/by-nc-sa/4.0/
# or send a letter to
# Creative Commons, PO Box 1866, Mountain View, CA 94042, USA.
#
# CIF created using the CSD Python API on 29 September 2022
# The structure has been converted into the P1 space group
# The structure has a 3D framework
# The original CSD entry GIMSIG is in the tetragonal crystal system
# The framework has been calculated to contain at least 10.0% void space
# The void calculation uses a probe of radius 1.32A, grid spacing 0.4
#
###############################################################################

data_GIMSIG
_chemical_formula_moiety         '(C72 H80 Cd12 N12 O44 S20)n'
_symmetry_cell_setting           triclinic
_symmetry_space_group_name_H-M   'P 1'
_symmetry_Int_Tables_number      1
_space_group_name_Hall           'P 1'
loop_
_symmetry_equiv_pos_site_id
_symmetry_equiv_pos_as_xyz
1 x,y,z
_cell_length_a                   15.7960(4)
_cell_length_b                   15.7960(4)
_cell_length_c                   10.3855(2)
_cell_angle_alpha                90
_cell_angle_beta                 90
_cell_angle_gamma                90
_cell_volume                     2591.32
loop_
_atom_site_label
_atom_site_type_symbol
_atom_site_fract_x
_atom_site_fract_y
_atom_site_fract_z
Cd1 Cd 0.601144(9) 0.096353(9) 0.0000
N1 N 0.47692(12) 0.17600(11) 0.0000
C3 C 0.32695(13) 0.26918(13) 0.0000
C4 C 0.24402(13) 0.31657(13) 0.0000
S1 S 0.5000 0.0000 0.2500
O2 O 0.57567(7) 0.00887(7) 0.16735(11)
O3 O 0.73439(10) 0.03564(10) 0.0000
C6 C 0.44002(10) 0.19952(9) 0.11088(15)
H6 H 0.4662 0.1838 0.1897
C7 C 0.36516(10) 0.24589(9) 0.11541(15)
H7 H 0.3407 0.2613 0.1956
O4 O 0.21099(7) 0.33467(7) 0.10716(11)
O7 O 0.49113(7) 0.07567(7) 0.33265(11)
S3 S 0.25721(4) 0.06028(3) 0.0000
C13 C 0.18678(14) 0.08454(13) 0.12863(19)
H13 H 0.2155 0.0750 0.2110
H14 H 0.1367 0.0480 0.1231
H15 H 0.1694 0.1440 0.1226
Cd4 Cd 0.096353(9) 0.398856(9) 0.0000
Cd5 Cd 0.403647(9) 0.101144(9) 0.5000
O14 O 0.66533(7) 0.21099(7) 0.10716(11)
Cd1_2 Cd 0.601144(9) 0.096353(9) 1.0000
N1_2 N 0.47692(12) 0.17600(11) 1.0000
C1 C 0.44002(10) 0.19952(9) 0.88912(15)
H1 H 0.4662 0.1838 0.8103
C2 C 0.36516(10) 0.24589(9) 0.88459(15)
H2 H 0.3407 0.2613 0.8044
C3_2 C 0.32695(13) 0.26918(13) 1.0000
C4_2 C 0.24402(13) 0.31657(13) 1.0000
O1 O 0.21099(7) 0.33467(7) 0.89284(11)
O3_2 O 0.73439(10) 0.03564(10) 1.0000
S3_2 S 0.25721(4) 0.06028(3) 1.0000
C16 C 0.18678(14) 0.08454(13) 0.87137(19)
H18 H 0.2155 0.0750 0.7890
H19 H 0.1367 0.0480 0.8769
H20 H 0.1694 0.1440 0.8774
Cd4_2 Cd 0.096353(9) 0.398856(9) 1.0000
O11 O 0.66533(7) 0.21099(7) 0.89284(11)
O16 O 0.57567(7) 0.00887(7) 0.83265(11)
S1_2 S 0.5000 1.0000 0.2500
S2 S 0.74279(4) 0.93972(3) 0.0000
C5 C 0.81322(14) 0.91546(13) 0.12863(19)
H3 H 0.7845 0.9250 0.2110
H4 H 0.8633 0.9520 0.1231
H5 H 0.8306 0.8560 0.1226
O5 O 0.42433(7) 0.99113(7) 0.16735(11)
O6 O 0.50887(7) 0.92433(7) 0.33265(11)
Cd2 Cd 0.398856(9) 0.903647(9) 0.0000
N2 N 0.52308(12) 0.82400(11) 0.0000
C11 C 0.67305(13) 0.73082(13) 0.0000
C12 C 0.75598(13) 0.68343(13) 0.0000
O9 O 0.26561(10) 0.96436(10) 0.0000
C14 C 0.55998(10) 0.80048(9) 0.11088(15)
H16 H 0.5338 0.8162 0.1897
C15 C 0.63484(10) 0.75411(9) 0.11541(15)
H17 H 0.6593 0.7387 0.1956
O10 O 0.78901(7) 0.66533(7) 0.10716(11)
Cd3 Cd 0.903647(9) 0.601144(9) 0.0000
Cd6 Cd 0.596353(9) 0.898856(9) 0.5000
O13 O 0.33467(7) 0.78901(7) 0.10716(11)
S2_2 S 0.74279(4) 0.93972(3) 1.0000
C8 C 0.81322(14) 0.91546(13) 0.87137(19)
H8 H 0.7845 0.9250 0.7890
H9 H 0.8633 0.9520 0.8769
H10 H 0.8306 0.8560 0.8774
Cd2_2 Cd 0.398856(9) 0.903647(9) 1.0000
N2_2 N 0.52308(12) 0.82400(11) 1.0000
C9 C 0.55998(10) 0.80048(9) 0.88912(15)
H11 H 0.5338 0.8162 0.8103
C10 C 0.63484(10) 0.75411(9) 0.88459(15)
H12 H 0.6593 0.7387 0.8044
C11_2 C 0.67305(13) 0.73082(13) 1.0000
C12_2 C 0.75598(13) 0.68343(13) 1.0000
O8 O 0.78901(7) 0.66533(7) 0.89284(11)
O9_2 O 0.26561(10) 0.96436(10) 1.0000
Cd3_2 Cd 0.903647(9) 0.601144(9) 1.0000
O12 O 0.33467(7) 0.78901(7) 0.89284(11)
O15 O 0.42433(7) 0.99113(7) 0.83265(11)
S1_3 S 0.0000 0.5000 0.2500
S2_3 S 0.06028(3) 0.74279(4) 0.0000
C5_2 C 0.08454(13) 0.81322(14) 0.12863(19)
H3_2 H 0.0750 0.7845 0.2110
H4_2 H 0.0480 0.8633 0.1231
H5_2 H 0.1440 0.8306 0.1226
O5_2 O 0.00887(7) 0.42433(7) 0.16735(11)
O6_2 O 0.07567(7) 0.50887(7) 0.33265(11)
N2_3 N 0.17600(11) 0.52308(12) 0.0000
C11_3 C 0.26918(13) 0.67305(13) 0.0000
C12_3 C 0.31657(13) 0.75598(13) 0.0000
O9_3 O 0.03564(10) 0.26561(10) 0.0000
C14_2 C 0.19952(9) 0.55998(10) 0.11088(15)
H16_2 H 0.1838 0.5338 0.1897
C15_2 C 0.24589(9) 0.63484(10) 0.11541(15)
H17_2 H 0.2613 0.6593 0.1956
Cd6_2 Cd 0.101144(9) 0.596353(9) 0.5000
S2_4 S 0.06028(3) 0.74279(4) 1.0000
C8_2 C 0.08454(13) 0.81322(14) 0.87137(19)
H8_2 H 0.0750 0.7845 0.7890
H9_2 H 0.0480 0.8633 0.8769
H10_2 H 0.1440 0.8306 0.8774
N2_4 N 0.17600(11) 0.52308(12) 1.0000
C9_2 C 0.19952(9) 0.55998(10) 0.88912(15)
H11_2 H 0.1838 0.5338 0.8103
C10_2 C 0.24589(9) 0.63484(10) 0.88459(15)
H12_2 H 0.2613 0.6593 0.8044
C11_4 C 0.26918(13) 0.67305(13) 1.0000
C12_4 C 0.31657(13) 0.75598(13) 1.0000
O9_4 O 0.03564(10) 0.26561(10) 1.0000
O15_2 O 0.00887(7) 0.42433(7) 0.83265(11)
N1_3 N 0.82400(11) 0.47692(12) 0.0000
C3_3 C 0.73082(13) 0.32695(13) 0.0000
C4_3 C 0.68343(13) 0.24402(13) 0.0000
S1_4 S 1.0000 0.5000 0.2500
O2_2 O 0.99113(7) 0.57567(7) 0.16735(11)
O3_3 O 0.96436(10) 0.73439(10) 0.0000
C6_2 C 0.80048(9) 0.44002(10) 0.11088(15)
H6_2 H 0.8162 0.4662 0.1897
C7_2 C 0.75411(9) 0.36516(10) 0.11541(15)
H7_2 H 0.7387 0.3407 0.1956
O7_2 O 0.92433(7) 0.49113(7) 0.33265(11)
S3_3 S 0.93972(3) 0.25721(4) 0.0000
C13_2 C 0.91546(13) 0.18678(14) 0.12863(19)
H13_2 H 0.9250 0.2155 0.2110
H14_2 H 0.9520 0.1367 0.1231
H15_2 H 0.8560 0.1694 0.1226
Cd5_2 Cd 0.898856(9) 0.403647(9) 0.5000
N1_4 N 0.82400(11) 0.47692(12) 1.0000
C1_2 C 0.80048(9) 0.44002(10) 0.88912(15)
H1_2 H 0.8162 0.4662 0.8103
C2_2 C 0.75411(9) 0.36516(10) 0.88459(15)
H2_2 H 0.7387 0.3407 0.8044
C3_4 C 0.73082(13) 0.32695(13) 1.0000
C4_4 C 0.68343(13) 0.24402(13) 1.0000
O3_4 O 0.96436(10) 0.73439(10) 1.0000
S3_4 S 0.93972(3) 0.25721(4) 1.0000
C16_2 C 0.91546(13) 0.18678(14) 0.87137(19)
H18_2 H 0.9250 0.2155 0.7890
H19_2 H 0.9520 0.1367 0.8769
H20_2 H 0.8560 0.1694 0.8774
O16_2 O 0.99113(7) 0.57567(7) 0.83265(11)
S1_5 S -0.0000 0.5000 0.7500
O2_3 O 0.07567(7) 0.50887(7) 0.66735(11)
S2_5 S 0.24279(4) 0.43972(3) 0.5000
O3_5 O 0.23439(10) 0.53564(10) 0.5000
C5_3 C 0.31322(14) 0.41546(13) 0.62863(19)
H3_3 H 0.2845 0.4250 0.7110
H4_3 H 0.3633 0.4520 0.6231
H5_3 H 0.3306 0.3560 0.6226
C8_3 C 0.31322(14) 0.41546(13) 0.37137(19)
H8_3 H 0.2845 0.4250 0.2890
H9_3 H 0.3633 0.4520 0.3769
H10_3 H 0.3306 0.3560 0.3774
N2_5 N 0.02308(12) 0.32400(11) 0.5000
C9_3 C 0.05998(10) 0.30048(9) 0.38912(15)
H11_3 H 0.0338 0.3162 0.3103
C10_3 C 0.13484(10) 0.25411(9) 0.38459(15)
H12_3 H 0.1593 0.2387 0.3044
C11_5 C 0.17305(13) 0.23082(13) 0.5000
C12_5 C 0.25598(13) 0.18343(13) 0.5000
O8_2 O 0.28901(7) 0.16533(7) 0.39284(11)
C14_3 C 0.05998(10) 0.30048(9) 0.61088(15)
H16_3 H 0.0338 0.3162 0.6897
C15_3 C 0.13484(10) 0.25411(9) 0.61541(15)
H17_3 H 0.1593 0.2387 0.6956
O10_2 O 0.28901(7) 0.16533(7) 0.60716(11)
O11_2 O 0.16533(7) 0.71099(7) 0.39284(11)
O14_2 O 0.16533(7) 0.71099(7) 0.60716(11)
N1_5 N 0.97692(12) 0.67600(11) 0.5000
C1_3 C 0.94002(10) 0.69952(9) 0.38912(15)
H1_3 H 0.9662 0.6838 0.3103
C2_3 C 0.86516(10) 0.74589(9) 0.38459(15)
H2_3 H 0.8407 0.7613 0.3044
C3_5 C 0.82695(13) 0.76918(13) 0.5000
C4_5 C 0.74402(13) 0.81657(13) 0.5000
O1_2 O 0.71099(7) 0.83467(7) 0.39284(11)
S1_6 S 1.0000 0.5000 0.7500
C6_3 C 0.94002(10) 0.69952(9) 0.61088(15)
H6_3 H 0.9662 0.6838 0.6897
C7_3 C 0.86516(10) 0.74589(9) 0.61541(15)
H7_3 H 0.8407 0.7613 0.6956
O4_2 O 0.71099(7) 0.83467(7) 0.60716(11)
O5_3 O 0.92433(7) 0.49113(7) 0.66735(11)
S3_5 S 0.75721(4) 0.56028(3) 0.5000
O9_5 O 0.76561(10) 0.46436(10) 0.5000
C13_3 C 0.68678(14) 0.58454(13) 0.62863(19)
H13_3 H 0.7155 0.5750 0.7110
H14_3 H 0.6367 0.5480 0.6231
H15_3 H 0.6694 0.6440 0.6226
C16_3 C 0.68678(14) 0.58454(13) 0.37137(19)
H18_3 H 0.7155 0.5750 0.2890
H19_3 H 0.6367 0.5480 0.3769
H20_3 H 0.6694 0.6440 0.3774
O12_2 O 0.83467(7) 0.28901(7) 0.39284(11)
O13_2 O 0.83467(7) 0.28901(7) 0.60716(11)
S1_7 S 0.5000 0.0000 0.7500
O2_4 O 0.49113(7) 0.07567(7) 0.66735(11)
S2_6 S 0.56028(3) 0.24279(4) 0.5000
O3_6 O 0.46436(10) 0.23439(10) 0.5000
C5_4 C 0.58454(13) 0.31322(14) 0.62863(19)
H3_4 H 0.5750 0.2845 0.7110
H4_4 H 0.5480 0.3633 0.6231
H5_4 H 0.6440 0.3306 0.6226
C8_4 C 0.58454(13) 0.31322(14) 0.37137(19)
H8_4 H 0.5750 0.2845 0.2890
H9_4 H 0.5480 0.3633 0.3769
H10_4 H 0.6440 0.3306 0.3774
N2_6 N 0.67600(11) 0.02308(12) 0.5000
C9_4 C 0.69952(9) 0.05998(10) 0.38912(15)
H11_4 H 0.6838 0.0338 0.3103
C10_4 C 0.74589(9) 0.13484(10) 0.38459(15)
H12_4 H 0.7613 0.1593 0.3044
C11_6 C 0.76918(13) 0.17305(13) 0.5000
C12_6 C 0.81657(13) 0.25598(13) 0.5000
C14_4 C 0.69952(9) 0.05998(10) 0.61088(15)
H16_4 H 0.6838 0.0338 0.6897
C15_4 C 0.74589(9) 0.13484(10) 0.61541(15)
H17_4 H 0.7613 0.1593 0.6956
N1_6 N 0.32400(11) 0.97692(12) 0.5000
C1_4 C 0.30048(9) 0.94002(10) 0.38912(15)
H1_4 H 0.3162 0.9662 0.3103
C2_4 C 0.25411(9) 0.86516(10) 0.38459(15)
H2_4 H 0.2387 0.8407 0.3044
C3_6 C 0.23082(13) 0.82695(13) 0.5000
C4_6 C 0.18343(13) 0.74402(13) 0.5000
S1_8 S 0.5000 1.0000 0.7500
C6_4 C 0.30048(9) 0.94002(10) 0.61088(15)
H6_4 H 0.3162 0.9662 0.6897
C7_4 C 0.25411(9) 0.86516(10) 0.61541(15)
H7_4 H 0.2387 0.8407 0.6956
O5_4 O 0.50887(7) 0.92433(7) 0.66735(11)
S3_6 S 0.43972(3) 0.75721(4) 0.5000
O9_6 O 0.53564(10) 0.76561(10) 0.5000
C13_4 C 0.41546(13) 0.68678(14) 0.62863(19)
H13_4 H 0.4250 0.7155 0.7110
H14_4 H 0.4520 0.6367 0.6231
H15_4 H 0.3560 0.6694 0.6226
C16_4 C 0.41546(13) 0.68678(14) 0.37137(19)
H18_4 H 0.4250 0.7155 0.2890
H19_4 H 0.4520 0.6367 0.3769
H20_4 H 0.3560 0.6694 0.3774
loop_
_geom_bond_atom_site_label_1
_geom_bond_atom_site_label_2
_geom_bond_site_symmetry_1
_geom_bond_site_symmetry_2
Cd1 N1 1_555 1_555
C4 C3 1_555 1_555
S1 O2 1_555 1_555
O2 Cd1 1_555 1_555
O3 Cd1 1_555 1_555
C6 N1 1_555 1_555
H6 C6 1_555 1_555
C7 C3 1_555 1_555
H7 C7 1_555 1_555
O4 C4 1_555 1_555
O7 S1 1_555 1_555
C13 S3 1_555 1_555
H13 C13 1_555 1_555
H14 C13 1_555 1_555
H15 C13 1_555 1_555
Cd5 O7 1_555 1_555
O14 Cd1 1_555 1_555
C6 C7 1_555 1_555
O4 Cd4 1_555 1_555
Cd1_2 N1_2 1_555 1_555
N1_2 C1 1_555 1_555
C1 H1 1_555 1_555
C2 C1 1_555 1_555
H2 C2 1_555 1_555
C3_2 C2 1_555 1_555
C4_2 C3_2 1_555 1_555
O1 C4_2 1_555 1_555
O3_2 Cd1_2 1_555 1_555
C16 S3_2 1_555 1_555
H18 C16 1_555 1_555
H19 C16 1_555 1_555
H20 C16 1_555 1_555
Cd4_2 O1 1_555 1_555
O11 Cd1_2 1_555 1_555
O16 Cd1_2 1_555 1_555
C5 S2 1_555 1_555
H3 C5 1_555 1_555
H4 C5 1_555 1_555
H5 C5 1_555 1_555
O5 S1_2 1_555 1_555
O6 S1_2 1_555 1_555
Cd2 O5 1_555 1_555
N2 Cd2 1_555 1_555
C12 C11 1_555 1_555
O9 Cd2 1_555 1_555
C14 N2 1_555 1_555
H16 C14 1_555 1_555
C15 C11 1_555 1_555
H17 C15 1_555 1_555
O10 C12 1_555 1_555
Cd6 O6 1_555 1_555
O13 Cd2 1_555 1_555
C14 C15 1_555 1_555
O10 Cd3 1_555 1_555
C8 S2_2 1_555 1_555
H8 C8 1_555 1_555
H9 C8 1_555 1_555
H10 C8 1_555 1_555
N2_2 Cd2_2 1_555 1_555
C9 N2_2 1_555 1_555
H11 C9 1_555 1_555
C10 C9 1_555 1_555
H12 C10 1_555 1_555
C11_2 C10 1_555 1_555
C12_2 C11_2 1_555 1_555
O8 C12_2 1_555 1_555
O9_2 Cd2_2 1_555 1_555
Cd3_2 O8 1_555 1_555
O12 Cd2_2 1_555 1_555
O15 Cd2_2 1_555 1_555
C5_2 S2_3 1_555 1_555
H3_2 C5_2 1_555 1_555
H4_2 C5_2 1_555 1_555
H5_2 C5_2 1_555 1_555
O5_2 S1_3 1_555 1_555
O6_2 S1_3 1_555 1_555
Cd4 O5_2 1_555 1_555
N2_3 Cd4 1_555 1_555
C12_3 C11_3 1_555 1_555
O9_3 Cd4 1_555 1_555
C14_2 N2_3 1_555 1_555
H16_2 C14_2 1_555 1_555
C15_2 C11_3 1_555 1_555
H17_2 C15_2 1_555 1_555
O13 C12_3 1_555 1_555
Cd6_2 O6_2 1_555 1_555
C14_2 C15_2 1_555 1_555
C8_2 S2_4 1_555 1_555
H8_2 C8_2 1_555 1_555
H9_2 C8_2 1_555 1_555
H10_2 C8_2 1_555 1_555
N2_4 Cd4_2 1_555 1_555
C9_2 N2_4 1_555 1_555
H11_2 C9_2 1_555 1_555
C10_2 C9_2 1_555 1_555
H12_2 C10_2 1_555 1_555
C11_4 C10_2 1_555 1_555
C12_4 C11_4 1_555 1_555
O12 C12_4 1_555 1_555
O9_4 Cd4_2 1_555 1_555
O15_2 Cd4_2 1_555 1_555
Cd3 N1_3 1_555 1_555
C4_3 C3_3 1_555 1_555
S1_4 O2_2 1_555 1_555
O2_2 Cd3 1_555 1_555
O3_3 Cd3 1_555 1_555
C6_2 N1_3 1_555 1_555
H6_2 C6_2 1_555 1_555
C7_2 C3_3 1_555 1_555
H7_2 C7_2 1_555 1_555
O14 C4_3 1_555 1_555
O7_2 S1_4 1_555 1_555
C13_2 S3_3 1_555 1_555
H13_2 C13_2 1_555 1_555
H14_2 C13_2 1_555 1_555
H15_2 C13_2 1_555 1_555
Cd5_2 O7_2 1_555 1_555
C6_2 C7_2 1_555 1_555
Cd3_2 N1_4 1_555 1_555
N1_4 C1_2 1_555 1_555
C1_2 H1_2 1_555 1_555
C2_2 C1_2 1_555 1_555
H2_2 C2_2 1_555 1_555
C3_4 C2_2 1_555 1_555
C4_4 C3_4 1_555 1_555
O11 C4_4 1_555 1_555
O3_4 Cd3_2 1_555 1_555
C16_2 S3_4 1_555 1_555
H18_2 C16_2 1_555 1_555
H19_2 C16_2 1_555 1_555
H20_2 C16_2 1_555 1_555
O16_2 Cd3_2 1_555 1_555
S1_5 O2_3 1_555 1_555
O2_3 Cd6_2 1_555 1_555
S2_5 O3_5 1_555 1_555
O3_5 Cd6_2 1_555 1_555
C5_3 S2_5 1_555 1_555
H3_3 C5_3 1_555 1_555
H4_3 C5_3 1_555 1_555
H5_3 C5_3 1_555 1_555
O15_2 S1_5 1_555 1_555
C8_3 S2_5 1_555 1_555
H8_3 C8_3 1_555 1_555
H9_3 C8_3 1_555 1_555
H10_3 C8_3 1_555 1_555
C9_3 N2_5 1_555 1_555
H11_3 C9_3 1_555 1_555
C10_3 C9_3 1_555 1_555
H12_3 C10_3 1_555 1_555
C11_5 C10_3 1_555 1_555
C12_5 C11_5 1_555 1_555
O8_2 C12_5 1_555 1_555
C14_3 N2_5 1_555 1_555
H16_3 C14_3 1_555 1_555
C15_3 C11_5 1_555 1_555
H17_3 C15_3 1_555 1_555
O10_2 C12_5 1_555 1_555
Cd5 O8_2 1_555 1_555
O11_2 Cd6_2 1_555 1_555
O14_2 Cd6_2 1_555 1_555
C14_3 C15_3 1_555 1_555
O10_2 Cd5 1_555 1_555
N1_5 C1_3 1_555 1_555
C1_3 H1_3 1_555 1_555
C2_3 C1_3 1_555 1_555
H2_3 C2_3 1_555 1_555
C3_5 C2_3 1_555 1_555
C4_5 C3_5 1_555 1_555
O1_2 C4_5 1_555 1_555
C6_3 N1_5 1_555 1_555
H6_3 C6_3 1_555 1_555
C7_3 C3_5 1_555 1_555
H7_3 C7_3 1_555 1_555
O4_2 C4_5 1_555 1_555
O5_3 S1_6 1_555 1_555
O16_2 S1_6 1_555 1_555
Cd5_2 O5_3 1_555 1_555
S3_5 O9_5 1_555 1_555
O9_5 Cd5_2 1_555 1_555
C13_3 S3_5 1_555 1_555
H13_3 C13_3 1_555 1_555
H14_3 C13_3 1_555 1_555
H15_3 C13_3 1_555 1_555
C16_3 S3_5 1_555 1_555
H18_3 C16_3 1_555 1_555
H19_3 C16_3 1_555 1_555
H20_3 C16_3 1_555 1_555
Cd6 O1_2 1_555 1_555
O12_2 Cd5_2 1_555 1_555
O13_2 Cd5_2 1_555 1_555
C6_3 C7_3 1_555 1_555
O4_2 Cd6 1_555 1_555
S1_7 O2_4 1_555 1_555
O2_4 Cd5 1_555 1_555
S2_6 O3_6 1_555 1_555
O3_6 Cd5 1_555 1_555
C5_4 S2_6 1_555 1_555
H3_4 C5_4 1_555 1_555
H4_4 C5_4 1_555 1_555
H5_4 C5_4 1_555 1_555
O16 S1_7 1_555 1_555
C8_4 S2_6 1_555 1_555
H8_4 C8_4 1_555 1_555
H9_4 C8_4 1_555 1_555
H10_4 C8_4 1_555 1_555
C9_4 N2_6 1_555 1_555
H11_4 C9_4 1_555 1_555
C10_4 C9_4 1_555 1_555
H12_4 C10_4 1_555 1_555
C11_6 C10_4 1_555 1_555
C12_6 C11_6 1_555 1_555
O12_2 C12_6 1_555 1_555
C14_4 N2_6 1_555 1_555
H16_4 C14_4 1_555 1_555
C15_4 C11_6 1_555 1_555
H17_4 C15_4 1_555 1_555
O13_2 C12_6 1_555 1_555
C14_4 C15_4 1_555 1_555
N1_6 C1_4 1_555 1_555
C1_4 H1_4 1_555 1_555
C2_4 C1_4 1_555 1_555
H2_4 C2_4 1_555 1_555
C3_6 C2_4 1_555 1_555
C4_6 C3_6 1_555 1_555
O11_2 C4_6 1_555 1_555
C6_4 N1_6 1_555 1_555
H6_4 C6_4 1_555 1_555
C7_4 C3_6 1_555 1_555
H7_4 C7_4 1_555 1_555
O14_2 C4_6 1_555 1_555
O5_4 S1_8 1_555 1_555
O15 S1_8 1_555 1_555
Cd6 O5_4 1_555 1_555
S3_6 O9_6 1_555 1_555
O9_6 Cd6 1_555 1_555
C13_4 S3_6 1_555 1_555
H13_4 C13_4 1_555 1_555
H14_4 C13_4 1_555 1_555
H15_4 C13_4 1_555 1_555
C16_4 S3_6 1_555 1_555
H18_4 C16_4 1_555 1_555
H19_4 C16_4 1_555 1_555
H20_4 C16_4 1_555 1_555
C6_4 C7_4 1_555 1_555

#END
