
###############################################################################
#
# This file contains modified crystal structure data generated from the
# MOF subset of the Cambridge Structural Database (CSD) v543 
# hosted by the Cambridge Crystallographic Data Centre (CCDC).
#
# This work is licensed under the Creative Commons
# Attribution-NonCommercial-ShareAlike 4.0 International License.
# To view a copy of this license, visit
# http://creativecommons.org/licenses/by-nc-sa/4.0/
# or send a letter to
# Creative Commons, PO Box 1866, Mountain View, CA 94042, USA.
#
# CIF created using the CSD Python API on 29 September 2022
# The structure has been converted into the P1 space group
# The structure has a 3D framework
# The original CSD entry GINDEO is in the monoclinic crystal system
# The framework has been calculated to contain at least 10.0% void space
# The void calculation uses a probe of radius 1.32A, grid spacing 0.4
#
###############################################################################

data_GINDEO
_chemical_formula_moiety         '(C272 H192 N48 O56 Zn12)n'
_symmetry_cell_setting           triclinic
_symmetry_space_group_name_H-M   'P 1'
_symmetry_Int_Tables_number      1
_space_group_name_Hall           'P 1'
loop_
_symmetry_equiv_pos_site_id
_symmetry_equiv_pos_as_xyz
1 x,y,z
_cell_length_a                   11.0420(7)
_cell_length_b                   42.9060(10)
_cell_length_c                   15.604(3)
_cell_angle_alpha                90
_cell_angle_beta                 97.0040(10)
_cell_angle_gamma                90
_cell_volume                     7337.51
loop_
_atom_site_label
_atom_site_type_symbol
_atom_site_fract_x
_atom_site_fract_y
_atom_site_fract_z
C60 C 0.0338(5) 0.16273(16) 0.2942(4)
C61 C 0.1556(5) 0.16933(14) 0.3185(4)
H42 H 0.1805 0.1896 0.3323
C62 C 0.2396(5) 0.14568(13) 0.3222(3)
C63 C 0.4264(5) 0.17909(13) 0.3397(4)
H43 H 0.3959 0.1967 0.3095
C64 C 0.5397(5) 0.17525(14) 0.3816(4)
H44 H 0.6014 0.1901 0.3848
C65 C 0.4429(5) 0.13320(14) 0.3983(4)
H45 H 0.4236 0.1132 0.4151
C66 C 0.2032(5) 0.11520(15) 0.3010(4)
H46 H 0.2606 0.0993 0.3031
C67 C 0.0816(5) 0.10900(14) 0.2771(4)
H47 H 0.0566 0.0888 0.2628
N11 N 0.3658(4) 0.15203(11) 0.3506(3)
N12 N 0.5504(4) 0.14664(11) 0.4185(3)
Zn8 Zn 0.68611(5) 0.125760(15) 0.49322(4)
C17 C 0.7387(5) 0.07404(14) 0.8708(4)
C18 C 0.6817(5) 0.09619(14) 0.8167(4)
H10 H 0.6328 0.1112 0.8384
C19 C 0.6965(5) 0.09639(14) 0.7300(4)
C20 C 0.7724(6) 0.07376(16) 0.6998(5)
H11 H 0.7829 0.0733 0.6416
C21 C 0.8312(6) 0.05233(16) 0.7547(5)
C22 C 0.8153(5) 0.05188(14) 0.8402(4)
H12 H 0.8547 0.0371 0.8772
C23 C 0.7154(5) 0.07255(15) 0.9643(4)
C24 C 0.6275(6) 0.11874(17) 0.6686(5)
C25 C 0.9438(8) 0.0308(2) 0.6435(6)
H13 H 0.9880 0.0501 0.6376
H14 H 0.8731 0.0306 0.6001
O9 O 0.6248(4) 0.08697(11) 0.9837(3)
O10 O 0.5869(5) 0.14281(13) 0.6949(3)
O11 O 0.6119(4) 0.11037(11) 0.5891(3)
O12 O 0.9064(5) 0.02904(14) 0.7267(4)
C28 C 0.9443(11) 0.0519(2) 0.4024(7)
H16 H 0.9716 0.0723 0.4112
C29 C 0.8225(10) 0.0461(2) 0.4026(5)
C30 C 0.7742(9) 0.0154(3) 0.3897(7)
H17 H 0.6912 0.0122 0.3912
C32 C 0.7471(10) 0.0728(3) 0.4245(7)
O13 O 0.6314(6) 0.06947(15) 0.4186(4)
O14 O 0.7912(5) 0.09552(13) 0.4476(4)
N14 N 0.8074(4) 0.15838(11) 0.5374(3)
C39 C 0.8976(6) 0.19746(18) 0.6097(6)
H23 H 0.9125 0.2135 0.6496
C40 C 0.7922(6) 0.18198(17) 0.5900(6)
H24 H 0.7190 0.1871 0.6103
C41 C 0.9240(5) 0.16079(15) 0.5228(4)
H25 H 0.9624 0.1467 0.4897
N7 N 0.9774(5) 0.18509(14) 0.5604(5)
C26 C 0.0274(10) 0.0025(3) 0.6308(6)
C31 C 0.1514(10) 0.0101(3) 0.6254(7)
H18 H 0.1811 0.0304 0.6313
C28_2 C 0.0557(11) 0.9481(2) 0.5976(7)
H16_2 H 0.0284 0.9277 0.5888
C29_2 C 0.1775(10) 0.9539(2) 0.5974(5)
C30_2 C 0.2258(9) 0.9846(3) 0.6103(7)
H17_2 H 0.3088 0.9878 0.6088
C32_2 C 0.2529(10) 0.9272(3) 0.5755(7)
O13_2 O 0.3686(6) 0.93053(15) 0.5814(4)
O14_2 O 0.2088(5) 0.90448(13) 0.5524(4)
Zn3 Zn 0.31389(5) 0.874240(15) 0.50678(4)
N14_2 N 0.1926(4) 0.84162(11) 0.4626(3)
N15 N 0.4496(4) 0.85336(11) 0.5815(3)
O16 O 0.3881(4) 0.88963(11) 0.4109(3)
C39_2 C 0.1024(6) 0.80254(18) 0.3903(6)
H23_2 H 0.0875 0.7865 0.3504
C40_2 C 0.2078(6) 0.81802(17) 0.4100(6)
H24_2 H 0.2810 0.8129 0.3897
C41_2 C 0.0760(5) 0.83921(15) 0.4772(4)
H25_2 H 0.0376 0.8533 0.5103
N7_2 N 0.0226(5) 0.81491(14) 0.4396(5)
C17_2 C 0.2613(5) 0.92596(14) 0.1292(4)
C18_2 C 0.3183(5) 0.90381(14) 0.1833(4)
H10_2 H 0.3672 0.8888 0.1616
C19_2 C 0.3035(5) 0.90361(14) 0.2700(4)
C20_2 C 0.2276(6) 0.92624(16) 0.3002(5)
H11_2 H 0.2171 0.9267 0.3584
C21_2 C 0.1688(6) 0.94767(16) 0.2453(5)
C22_2 C 0.1847(5) 0.94812(14) 0.1598(4)
H12_2 H 0.1453 0.9629 0.1228
C23_2 C 0.2846(5) 0.92745(15) 0.0357(4)
C24_2 C 0.3725(6) 0.88126(17) 0.3314(5)
C25_2 C 0.0562(8) 0.9692(2) 0.3565(6)
H13_2 H 0.0120 0.9499 0.3624
H14_2 H 0.1269 0.9694 0.3999
O9_2 O 0.3752(4) 0.91303(11) 0.0163(3)
O10_2 O 0.4131(5) 0.85719(13) 0.3051(3)
O12_2 O 0.0936(5) 0.97096(14) 0.2733(4)
C60_2 C 0.9662(5) 0.83727(16) 0.7058(4)
C61_2 C 0.8444(5) 0.83067(14) 0.6815(4)
H42_2 H 0.8195 0.8104 0.6677
C62_2 C 0.7604(5) 0.85432(13) 0.6778(3)
C63_2 C 0.5736(5) 0.82091(13) 0.6603(4)
H43_2 H 0.6041 0.8033 0.6905
C64_2 C 0.4603(5) 0.82475(14) 0.6184(4)
H44_2 H 0.3986 0.8099 0.6152
C65_2 C 0.5571(5) 0.86680(14) 0.6017(4)
H45_2 H 0.5764 0.8868 0.5849
C66_2 C 0.7968(5) 0.88480(15) 0.6990(4)
H46_2 H 0.7394 0.9007 0.6969
C67_2 C 0.9184(5) 0.89100(14) 0.7229(4)
H47_2 H 0.9434 0.9112 0.7372
N11_2 N 0.6342(4) 0.84797(11) 0.6494(3)
C10 C 0.0051(5) 0.14475(14) 0.0428(3)
C11 C 0.0158(5) 0.11396(16) 0.0237(4)
C12 C 0.1255(6) 0.09894(17) 0.0372(5)
H7 H 0.1292 0.0778 0.0242
C13 C 0.2292(5) 0.11399(16) 0.0691(4)
C14 C 0.2213(5) 0.14459(16) 0.0889(4)
H8 H 0.2917 0.1553 0.1105
C15 C 0.1081(5) 0.16066(14) 0.0776(4)
H9 H 0.1035 0.1815 0.0933
C16 C 0.3477(8) 0.0967(2) 0.0809(6)
C57 C 0.6721(5) 0.13012(14) 0.2322(4)
H39 H 0.5929 0.1365 0.2376
C58 C 0.7742(5) 0.14312(14) 0.2738(4)
H40 H 0.7788 0.1600 0.3116
C59 C 0.9972(5) 0.13246(14) 0.2742(4)
H41 H 0.9763 0.1786 0.2913
C68 C 0.8235(5) 0.10445(15) 0.1936(4)
H48 H 0.8696 0.0899 0.1674
N9 N 0.7023(4) 0.10604(11) 0.1808(3)
N10 N 0.8703(4) 0.12624(11) 0.2486(3)
O6 O 0.4366(5) 0.10827(14) 0.1119(4)
O7 O 0.3500(5) 0.06861(15) 0.0503(4)
O8 O 0.7834(4) 0.05686(12) 0.0183(3)
Zn2 Zn 0.58068(5) 0.081738(15) 0.09997(4)
N13 N 0.5804(4) 0.03774(12) 0.1411(4)
C51 C 0.6528(5) 0.01523(15) 0.1432(4)
H33 H 0.7288 0.0176 0.1240
C52 C 0.5031(8) 0.0275(2) 0.2033(7)
H34 H 0.4470 0.0399 0.2275
C27 C 0.9625(12) 0.9732(2) 0.6113(7)
H15 H 0.8785 0.9703 0.6079
C1 C 0.6378(4) 0.22628(12) 0.1862(3)
C2 C 0.5363(4) 0.22192(12) 0.1253(3)
H1 H 0.4618 0.2306 0.1343
C3 C 0.5455(4) 0.20484(12) 0.0518(3)
C4 C 0.6559(4) 0.19051(12) 0.0388(3)
C5 C 0.7556(4) 0.19448(13) 0.1003(4)
C6 C 0.7495(4) 0.21268(13) 0.1718(3)
H3 H 0.8190 0.2160 0.2107
C7 C 0.6301(5) 0.24566(12) 0.2650(3)
C9 C 0.8829(5) 0.16102(15) 0.0262(4)
H5 H 0.8178 0.1457 0.0201
H6 H 0.9468 0.1029 0.0009
C33 C 0.1239(5) 0.24615(15) 0.0745(4)
H19 H 0.1984 0.2409 0.1055
C34 C 0.0344(6) 0.26066(16) 0.1070(4)
H20 H 0.0344 0.2671 0.1639
O1 O 0.7273(3) 0.25003(9) 0.3170(2)
O2 O 0.5304(3) 0.25748(8) 0.2775(2)
O5 O 0.8686(3) 0.18111(10) 0.0957(3)
Zn4 Zn 0.69952(5) 0.279889(14) 0.40830(4)
H25_3 H 0.4624 0.3533 0.9897
C42 C 0.6126(5) 0.28047(16) 0.9952(4)
H26 H 0.5450 0.2734 0.9591
C43 C 0.7279(5) 0.26755(15) 0.9901(4)
H27 H 0.7381 0.2517 0.9510
C44 C 0.9801(5) 0.25081(13) 0.9701(4)
H28 H 0.9339 0.2494 0.9163
H29 H 0.9647 0.1806 0.8091
H30 H 0.9794 0.1266 0.7709
Zn6 Zn 0.18611(5) 0.374240(15) 0.99322(4)
C17_3 C 0.7613(5) 0.57404(14) 0.6292(4)
C18_3 C 0.8183(5) 0.59619(14) 0.6833(4)
H10_3 H 0.8672 0.6112 0.6616
C19_3 C 0.8035(5) 0.59639(14) 0.7700(4)
C20_3 C 0.7276(6) 0.57376(16) 0.8002(5)
H11_3 H 0.7171 0.5733 0.8584
C21_3 C 0.6688(6) 0.55233(16) 0.7453(5)
C22_3 C 0.6847(5) 0.55188(14) 0.6598(4)
H12_3 H 0.6453 0.5371 0.6228
C23_3 C 0.7846(5) 0.57255(15) 0.5357(4)
C24_3 C 0.8725(6) 0.61874(17) 0.8314(5)
C25_3 C 0.5562(8) 0.5308(2) 0.8565(6)
H13_3 H 0.5120 0.5501 0.8624
H14_3 H 0.6269 0.5306 0.8999
C26_2 C 0.4726(10) 0.5025(3) 0.8692(6)
C27_2 C 0.5375(12) 0.4732(2) 0.8887(7)
H15_2 H 0.6215 0.4703 0.8921
C28_3 C 0.4443(11) 0.4481(2) 0.9024(7)
H16_3 H 0.4716 0.4277 0.9112
C29_3 C 0.3225(10) 0.4539(2) 0.9026(5)
C30_3 C 0.2742(9) 0.4846(3) 0.8897(7)
H17_3 H 0.1912 0.4878 0.8912
C31_2 C 0.3486(10) 0.5101(3) 0.8746(7)
H18_2 H 0.3189 0.5304 0.8687
C32_3 C 0.2471(10) 0.4272(3) 0.9245(7)
C57_2 C 0.8279(5) 0.63012(14) 0.2678(4)
H39_2 H 0.9071 0.6365 0.2624
C58_2 C 0.7258(5) 0.64312(14) 0.2262(4)
H40_2 H 0.7212 0.6600 0.1884
C59_2 C 0.5028(5) 0.63246(14) 0.2258(4)
C60_3 C 0.4662(5) 0.66273(16) 0.2058(4)
H41_2 H 0.5237 0.6786 0.2087
C61_3 C 0.3444(5) 0.66933(14) 0.1815(4)
H42_3 H 0.3195 0.6896 0.1677
C62_3 C 0.2604(5) 0.64568(13) 0.1778(3)
C63_3 C 0.0736(5) 0.67909(13) 0.1603(4)
H43_3 H 0.1041 0.6967 0.1905
C65_3 C 0.0571(5) 0.63320(14) 0.1017(4)
H45_3 H 0.0764 0.6132 0.0849
C66_3 C 0.2968(5) 0.61520(15) 0.1990(4)
H46_3 H 0.2394 0.5993 0.1969
C67_3 C 0.4184(5) 0.60900(14) 0.2229(4)
H47_3 H 0.4434 0.5888 0.2372
C68_2 C 0.6765(5) 0.60445(15) 0.3064(4)
H48_2 H 0.6304 0.5899 0.3326
N9_2 N 0.7977(4) 0.60604(11) 0.3192(3)
N10_2 N 0.6297(4) 0.62624(11) 0.2514(3)
N11_3 N 0.1342(4) 0.65203(11) 0.1494(3)
O8_2 O 0.7166(4) 0.55686(12) 0.4817(3)
O9_3 O 0.8752(4) 0.58697(11) 0.5163(3)
O10_3 O 0.9131(5) 0.64281(13) 0.8051(3)
O11_2 O 0.8881(4) 0.61037(11) 0.9109(3)
O12_3 O 0.5936(5) 0.52904(14) 0.7733(4)
O13_3 O 0.1314(6) 0.43053(15) 0.9186(4)
O14_3 O 0.2912(5) 0.40448(13) 0.9476(4)
Zn2_2 Zn 0.91932(5) 0.581738(15) 0.40003(4)
N13_2 N 0.9196(4) 0.53774(12) 0.3589(4)
N15_2 N 0.0504(4) 0.35336(11) 0.9185(3)
C35 C 0.1738(5) 0.72107(14) 0.9557(4)
C36 C 0.1867(6) 0.6980(2) 0.8998(5)
H21 H 0.1188 0.6901 0.8656
C37 C 0.3043(7) 0.6857(2) 0.8932(6)
H22 H 0.3147 0.6705 0.8523
C38 C 0.3998(6) 0.69601(16) 0.9456(5)
C39_3 C 0.6024(6) 0.69746(18) 0.8903(6)
H23_3 H 0.5875 0.7135 0.8504
C40_3 C 0.7078(6) 0.68198(17) 0.9100(6)
H24_3 H 0.7810 0.6871 0.8897
C41_3 C 0.5760(5) 0.66079(15) 0.9772(4)
N6 N 0.0591(4) 0.73552(11) 0.9596(3)
N7_3 N 0.5226(5) 0.68509(14) 0.9396(5)
N8 N 0.6926(4) 0.65838(11) 0.9626(3)
C64_3 C 0.0397(5) 0.32475(14) 0.8816(4)
H44_3 H 0.1014 0.3099 0.8848
H1_2 H 0.9618 0.2694 0.6343
C8 C 0.9415(5) 0.29604(13) 0.4795(3)
C33_2 C 0.6239(5) 0.25385(15) 0.5745(4)
H19_2 H 0.6984 0.2591 0.6055
C34_2 C 0.5344(6) 0.23934(16) 0.6070(4)
H20_2 H 0.5344 0.2329 0.6639
C35_2 C 0.3262(5) 0.22107(14) 0.5443(4)
C36_2 C 0.3133(6) 0.1980(2) 0.6002(5)
H21_2 H 0.3812 0.1901 0.6344
C37_2 C 0.1957(7) 0.1857(2) 0.6068(6)
H22_2 H 0.1853 0.1705 0.6477
C38_2 C 0.1002(6) 0.19601(16) 0.5544(5)
C42_2 C 0.1126(5) 0.21953(16) 0.4952(4)
H26_2 H 0.0450 0.2266 0.4591
C43_2 C 0.2279(5) 0.23245(15) 0.4901(4)
H27_2 H 0.2381 0.2483 0.4510
C44_2 C 0.4801(5) 0.24919(13) 0.4701(4)
H28_2 H 0.4339 0.2506 0.4163
C45 C 0.5346(5) 0.33162(15) 0.3193(4)
H29_2 H 0.4647 0.3194 0.3091
C46 C 0.5420(6) 0.36115(16) 0.2985(5)
H30_2 H 0.4794 0.3734 0.2709
C47 C 0.7115(5) 0.40114(13) 0.3206(4)
C48 C 0.6449(5) 0.42708(15) 0.3344(5)
H31 H 0.5632 0.4251 0.3423
C49 C 0.6977(6) 0.45625(15) 0.3365(4)
H32 H 0.6521 0.4738 0.3464
C50 C 0.8192(5) 0.45911(14) 0.3238(5)
C51_2 C 0.8472(5) 0.51523(15) 0.3568(4)
H33_2 H 0.7712 0.5176 0.3760
C52_2 C 0.9969(8) 0.5275(2) 0.2967(7)
C53 C 0.9751(7) 0.4968(2) 0.2790(7)
C54 C 0.8870(6) 0.43313(15) 0.3075(6)
H36 H 0.9683 0.4351 0.2984
C55 C 0.8322(6) 0.40410(16) 0.3051(5)
H37 H 0.8763 0.3865 0.2930
C56 C 0.7176(5) 0.34591(13) 0.3617(4)
H38 H 0.7986 0.3460 0.3865
N1 N 0.6462(4) 0.32146(10) 0.3585(3)
N2 N 0.6596(4) 0.37074(11) 0.3250(3)
N3 N 0.8794(6) 0.48802(16) 0.3271(6)
N5 N 0.5911(4) 0.26019(10) 0.4877(3)
N6_2 N 0.4409(4) 0.23552(11) 0.5404(3)
O3 O 0.8423(3) 0.28365(9) 0.4959(2)
O4 O 0.9550(3) 0.30815(11) 0.4108(3)
H2 H 0.6618 0.1786 0.9897
C8_2 C 0.4415(5) 0.20396(13) 0.9795(3)
H4 H 0.8786 0.1729 0.9730
C45_2 C 0.0346(5) 0.16838(15) 0.8193(4)
C46_2 C 0.0420(6) 0.13885(16) 0.7985(5)
C47_2 C 0.2115(5) 0.09886(13) 0.8206(4)
C48_2 C 0.1449(5) 0.07292(15) 0.8344(5)
H31_2 H 0.0632 0.0749 0.8423
C49_2 C 0.1977(6) 0.04375(15) 0.8365(4)
H32_2 H 0.1521 0.0262 0.8464
C50_2 C 0.3192(5) 0.04089(14) 0.8238(5)
C53_2 C 0.4751(7) 0.0032(2) 0.7790(7)
H35 H 0.5148 0.0158 0.7428
C54_2 C 0.3870(6) 0.06687(15) 0.8075(6)
H36_2 H 0.4683 0.0649 0.7984
C55_2 C 0.3322(6) 0.09590(16) 0.8051(5)
H37_2 H 0.3763 0.1135 0.7930
C56_2 C 0.2176(5) 0.15409(13) 0.8617(4)
H38_2 H 0.2986 0.1540 0.8865
N1_2 N 0.1462(4) 0.17854(10) 0.8585(3)
N2_2 N 0.1596(4) 0.12926(11) 0.8250(3)
N3_2 N 0.3794(6) 0.01198(16) 0.8271(6)
N5_2 N 0.0911(4) 0.23981(10) 0.9877(3)
O3_2 O 0.3423(3) 0.21635(9) 0.9959(2)
O4_2 O 0.4550(3) 0.19185(11) 0.9108(3)
Zn1 Zn 0.19952(5) 0.220111(14) 0.90830(4)
O15 O 0.2273(3) 0.24997(9) 0.8170(2)
C1_2 C 0.1378(4) 0.27372(12) 0.6862(3)
C2_2 C 0.0363(4) 0.27808(12) 0.6253(3)
C3_2 C 0.0455(4) 0.29516(12) 0.5518(3)
C4_2 C 0.1559(4) 0.30949(12) 0.5388(3)
H2_2 H 0.1618 0.3214 0.4897
C5_2 C 0.2556(4) 0.30552(13) 0.6003(4)
C6_2 C 0.2495(4) 0.28732(13) 0.6718(3)
H3_2 H 0.3190 0.2840 0.7107
C7_2 C 0.1301(5) 0.25434(12) 0.7650(3)
C9_2 C 0.3829(5) 0.33898(15) 0.5262(4)
H4_2 H 0.3786 0.3271 0.4730
H5_2 H 0.3178 0.3543 0.5201
C10_2 C 0.5051(5) 0.35525(14) 0.5428(3)
C11_2 C 0.5158(5) 0.38604(16) 0.5237(4)
H6_2 H 0.4468 0.3971 0.5009
C12_2 C 0.6255(6) 0.40106(17) 0.5372(5)
H7_2 H 0.6292 0.4222 0.5242
C13_2 C 0.7292(5) 0.38601(16) 0.5691(4)
C14_2 C 0.7213(5) 0.35541(16) 0.5889(4)
H8_2 H 0.7917 0.3447 0.6105
C15_2 C 0.6081(5) 0.33934(14) 0.5776(4)
H9_2 H 0.6035 0.3185 0.5933
C16_2 C 0.8477(8) 0.4033(2) 0.5809(6)
H34_2 H 0.0530 0.5399 0.2725
H35_2 H 0.0148 0.4842 0.2428
O2_2 O 0.0304(3) 0.24252(8) 0.7775(2)
O5_2 O 0.3686(3) 0.31889(10) 0.5957(3)
O6_2 O 0.9366(5) 0.39173(14) 0.6119(4)
O7_2 O 0.8500(5) 0.43139(15) 0.5503(4)
C51_3 C 0.3472(5) 0.98477(15) 0.8568(4)
H33_3 H 0.2712 0.9824 0.8760
C52_3 C 0.4969(8) 0.9725(2) 0.7967(7)
H34_3 H 0.5530 0.9601 0.7725
N4 N 0.4196(4) 0.96226(12) 0.8589(4)
Zn5 Zn 0.41932(5) 0.918262(15) 0.90003(4)
C10_3 C 0.9949(5) 0.85525(14) 0.9572(3)
C11_3 C 0.9842(5) 0.88604(16) 0.9763(4)
C12_3 C 0.8745(6) 0.90106(17) 0.9628(5)
H7_3 H 0.8708 0.9222 0.9758
C13_3 C 0.7708(5) 0.88601(16) 0.9309(4)
C14_3 C 0.7787(5) 0.85541(16) 0.9111(4)
H8_3 H 0.7083 0.8447 0.8895
C15_3 C 0.8919(5) 0.83934(14) 0.9224(4)
H9_3 H 0.8965 0.8185 0.9067
C16_3 C 0.6523(8) 0.9033(2) 0.9191(6)
C57_3 C 0.3279(5) 0.86988(14) 0.7678(4)
H39_3 H 0.4071 0.8635 0.7624
C58_3 C 0.2258(5) 0.85688(14) 0.7262(4)
H40_3 H 0.2212 0.8400 0.6884
C59_3 C 0.0028(5) 0.86754(14) 0.7258(4)
H41_3 H 0.0237 0.8214 0.7087
C68_3 C 0.1765(5) 0.89555(15) 0.8064(4)
H48_3 H 0.1304 0.9101 0.8326
N9_3 N 0.2977(4) 0.89396(11) 0.8192(3)
N10_3 N 0.1297(4) 0.87376(11) 0.7514(3)
O6_3 O 0.5634(5) 0.89173(14) 0.8881(4)
O7_3 O 0.6500(5) 0.93139(15) 0.9497(4)
O8_3 O 0.2166(4) 0.94314(12) 0.9817(3)
C35_3 C 0.8262(5) 0.27893(14) 0.0443(4)
C36_3 C 0.8133(6) 0.3020(2) 0.1002(5)
H21_3 H 0.8812 0.3099 0.1344
C37_3 C 0.6957(7) 0.3143(2) 0.1068(6)
H22_3 H 0.6853 0.3295 0.1477
C38_3 C 0.6002(6) 0.30399(16) 0.0544(5)
C39_4 C 0.3976(6) 0.30254(18) 0.1097(6)
H23_4 H 0.4125 0.2865 0.1496
C40_4 C 0.2922(6) 0.31802(17) 0.0900(6)
H24_4 H 0.2190 0.3129 0.1103
C41_4 C 0.4240(5) 0.33921(15) 0.0228(4)
N6_3 N 0.9409(4) 0.26448(11) 0.0404(3)
N7_4 N 0.4774(5) 0.31491(14) 0.0604(5)
N8_2 N 0.3074(4) 0.34162(11) 0.0374(3)
H1_3 H 0.0382 0.7306 0.3657
C8_3 C 0.0585(5) 0.70396(13) 0.5205(3)
C33_3 C 0.3761(5) 0.74615(15) 0.4255(4)
H19_3 H 0.3016 0.7409 0.3945
C34_3 C 0.4656(6) 0.76066(16) 0.3930(4)
H20_3 H 0.4656 0.7671 0.3361
C35_4 C 0.6738(5) 0.77893(14) 0.4557(4)
C36_4 C 0.6867(6) 0.8020(2) 0.3998(5)
H21_4 H 0.6188 0.8099 0.3656
C37_4 C 0.8043(7) 0.8143(2) 0.3932(6)
H22_4 H 0.8147 0.8295 0.3523
C38_4 C 0.8998(6) 0.80399(16) 0.4456(5)
C42_3 C 0.8874(5) 0.78047(16) 0.5048(4)
H26_3 H 0.9550 0.7734 0.5409
C43_3 C 0.7721(5) 0.76755(15) 0.5099(4)
H27_3 H 0.7619 0.7517 0.5490
C44_3 C 0.5199(5) 0.75081(13) 0.5299(4)
H28_3 H 0.5661 0.7494 0.5837
C45_3 C 0.4654(5) 0.66838(15) 0.6807(4)
H29_3 H 0.5353 0.6806 0.6909
C46_3 C 0.4580(6) 0.63885(16) 0.7015(5)
H30_3 H 0.5206 0.6266 0.7291
C47_3 C 0.2885(5) 0.59886(13) 0.6794(4)
C48_3 C 0.3551(5) 0.57292(15) 0.6656(5)
H31_3 H 0.4368 0.5749 0.6577
C49_3 C 0.3023(6) 0.54375(15) 0.6635(4)
H32_3 H 0.3479 0.5262 0.6536
C50_3 C 0.1808(5) 0.54089(14) 0.6762(5)
C51_4 C 0.1528(5) 0.48477(15) 0.6432(4)
H33_4 H 0.2288 0.4824 0.6240
C52_4 C 0.0031(8) 0.4725(2) 0.7033(7)
C53_3 C 0.0249(7) 0.5032(2) 0.7210(7)
C54_3 C 0.1130(6) 0.56687(15) 0.6925(6)
H36_3 H 0.0317 0.5649 0.7016
C55_3 C 0.1678(6) 0.59590(16) 0.6949(5)
H37_3 H 0.1237 0.6135 0.7070
C56_3 C 0.2824(5) 0.65409(13) 0.6383(4)
H38_3 H 0.2014 0.6540 0.6135
N1_3 N 0.3538(4) 0.67854(10) 0.6415(3)
N2_3 N 0.3404(4) 0.62926(11) 0.6750(3)
N3_3 N 0.1206(6) 0.51198(16) 0.6729(6)
N4_2 N 0.0804(4) 0.46226(12) 0.6411(4)
N5_3 N 0.4089(4) 0.73981(10) 0.5123(3)
N6_4 N 0.5591(4) 0.76448(11) 0.4596(3)
O3_3 O 0.1577(3) 0.71635(9) 0.5041(2)
O4_3 O 0.0450(3) 0.69185(11) 0.5892(3)
Zn1_2 Zn 0.30048(5) 0.720111(14) 0.59170(4)
O15_2 O 0.2727(3) 0.74997(9) 0.6830(2)
Zn5_2 Zn 0.08068(5) 0.418262(15) 0.59997(4)
O16_2 O 0.1119(4) 0.38963(11) 0.0891(3)
Zn7 Zn 0.81389(5) 0.625760(15) 0.00678(4)
C64_4 C 0.9603(5) 0.67525(14) 0.1184(4)
H44_4 H 0.8986 0.6901 0.1152
N12_2 N 0.9496(4) 0.64664(11) 0.0815(3)
H25_4 H 0.5376 0.6467 0.0103
C42_4 C 0.3874(5) 0.71953(16) 0.0048(4)
H26_4 H 0.4550 0.7266 0.0409
C43_4 C 0.2721(5) 0.73245(15) 0.0099(4)
H27_4 H 0.2619 0.7483 0.0490
C44_4 C 0.0199(5) 0.74919(13) 0.0299(4)
H28_4 H 0.0661 0.7506 0.0837
H29_4 H 0.0353 0.8194 0.1909
H30_4 H 0.0206 0.8734 0.2291
C1_3 C 0.3622(4) 0.77372(12) 0.8138(3)
C2_3 C 0.4637(4) 0.77808(12) 0.8747(3)
H1_4 H 0.5382 0.7694 0.8657
C3_3 C 0.4545(4) 0.79516(12) 0.9482(3)
C4_3 C 0.3441(4) 0.80949(12) 0.9612(3)
C5_3 C 0.2444(4) 0.80552(13) 0.8997(4)
C6_3 C 0.2505(4) 0.78732(13) 0.8282(3)
H3_3 H 0.1810 0.7840 0.7893
C7_3 C 0.3699(5) 0.75434(12) 0.7350(3)
C9_3 C 0.1171(5) 0.83898(15) 0.9738(4)
H5_3 H 0.1822 0.8543 0.9799
H6_3 H 0.0532 0.8971 0.9991
C33_4 C 0.8761(5) 0.75385(15) 0.9255(4)
H19_4 H 0.8016 0.7591 0.8945
C34_4 C 0.9656(6) 0.73934(16) 0.8930(4)
H20_4 H 0.9656 0.7329 0.8361
O2_3 O 0.4696(3) 0.74252(8) 0.7225(2)
O5_3 O 0.1314(3) 0.81889(10) 0.9043(3)
C17_4 C 0.2387(5) 0.42596(14) 0.3708(4)
C18_4 C 0.1817(5) 0.40381(14) 0.3167(4)
H10_4 H 0.1328 0.3888 0.3384
C19_4 C 0.1965(5) 0.40361(14) 0.2300(4)
C20_4 C 0.2724(6) 0.42624(16) 0.1998(5)
H11_4 H 0.2829 0.4267 0.1416
C21_4 C 0.3312(6) 0.44767(16) 0.2547(5)
C22_4 C 0.3153(5) 0.44812(14) 0.3402(4)
H12_4 H 0.3547 0.4629 0.3772
C23_4 C 0.2154(5) 0.42745(15) 0.4643(4)
C24_4 C 0.1275(6) 0.38126(17) 0.1686(5)
C25_4 C 0.4438(8) 0.4692(2) 0.1435(6)
H13_4 H 0.4880 0.4499 0.1376
H14_4 H 0.3731 0.4694 0.1001
C26_3 C 0.5274(10) 0.4975(3) 0.1308(6)
C27_3 C 0.4625(12) 0.5268(2) 0.1113(7)
H15_3 H 0.3785 0.5297 0.1079
C28_4 C 0.5557(11) 0.5519(2) 0.0976(7)
H16_4 H 0.5284 0.5723 0.0888
C29_4 C 0.6775(10) 0.5461(2) 0.0974(5)
C30_4 C 0.7258(9) 0.5154(3) 0.1103(7)
H17_4 H 0.8088 0.5122 0.1088
C31_3 C 0.6514(10) 0.4899(3) 0.1254(7)
H18_3 H 0.6811 0.4696 0.1313
C32_4 C 0.7529(10) 0.5728(3) 0.0755(7)
C57_4 C 0.1721(5) 0.36988(14) 0.7322(4)
H39_4 H 0.0929 0.3635 0.7376
C58_4 C 0.2742(5) 0.35688(14) 0.7738(4)
H40_4 H 0.2788 0.3400 0.8116
C59_4 C 0.4972(5) 0.36754(14) 0.7742(4)
C60_4 C 0.5338(5) 0.33727(16) 0.7942(4)
H41_4 H 0.4763 0.3214 0.7913
C61_4 C 0.6556(5) 0.33067(14) 0.8185(4)
H42_4 H 0.6805 0.3104 0.8323
C62_4 C 0.7396(5) 0.35432(13) 0.8222(3)
C63_4 C 0.9264(5) 0.32091(13) 0.8397(4)
H43_4 H 0.8959 0.3033 0.8095
C65_4 C 0.9429(5) 0.36680(14) 0.8983(4)
H45_4 H 0.9236 0.3868 0.9151
C66_4 C 0.7032(5) 0.38480(15) 0.8010(4)
H46_4 H 0.7606 0.4007 0.8031
C67_4 C 0.5816(5) 0.39100(14) 0.7771(4)
H47_4 H 0.5566 0.4112 0.7628
C68_4 C 0.3235(5) 0.39555(15) 0.6936(4)
H48_4 H 0.3696 0.4101 0.6674
N9_4 N 0.2023(4) 0.39396(11) 0.6808(3)
N10_4 N 0.3703(4) 0.37376(11) 0.7486(3)
N11_4 N 0.8658(4) 0.34797(11) 0.8506(3)
O8_4 O 0.2834(4) 0.44314(12) 0.5183(3)
O9_4 O 0.1248(4) 0.41303(11) 0.4837(3)
O10_4 O 0.0869(5) 0.35719(13) 0.1949(3)
O12_4 O 0.4064(5) 0.47096(14) 0.2267(4)
O13_4 O 0.8686(6) 0.56947(15) 0.0814(4)
O14_4 O 0.7088(5) 0.59552(13) 0.0524(4)
C1_4 C 0.8622(4) 0.72628(12) 0.3138(3)
C2_4 C 0.9637(4) 0.72192(12) 0.3747(3)
C3_4 C 0.9545(4) 0.70484(12) 0.4482(3)
C4_4 C 0.8441(4) 0.69051(12) 0.4612(3)
H2_3 H 0.8382 0.6786 0.5103
C5_4 C 0.7444(4) 0.69448(13) 0.3997(4)
C6_4 C 0.7505(4) 0.71268(13) 0.3282(3)
H3_4 H 0.6810 0.7160 0.2893
C7_4 C 0.8699(5) 0.74566(12) 0.2350(3)
C9_4 C 0.6171(5) 0.66102(15) 0.4738(4)
H4_3 H 0.6214 0.6729 0.5270
H5_4 H 0.6822 0.6457 0.4799
C10_4 C 0.4949(5) 0.64475(14) 0.4572(3)
C11_4 C 0.4842(5) 0.61396(16) 0.4763(4)
H6_4 H 0.5532 0.6029 0.4991
C12_4 C 0.3745(6) 0.59894(17) 0.4628(5)
H7_4 H 0.3708 0.5778 0.4758
C13_4 C 0.2708(5) 0.61399(16) 0.4309(4)
C14_4 C 0.2787(5) 0.64459(16) 0.4111(4)
H8_4 H 0.2083 0.6553 0.3895
C15_4 C 0.3919(5) 0.66066(14) 0.4224(4)
H9_4 H 0.3965 0.6815 0.4067
C16_4 C 0.1523(8) 0.5967(2) 0.4191(6)
H34_4 H 0.9470 0.4601 0.7275
H35_3 H 0.9852 0.5158 0.7572
O1_2 O 0.7727(3) 0.75003(9) 0.1830(2)
O2_4 O 0.9696(3) 0.75748(8) 0.2225(2)
O5_4 O 0.6314(3) 0.68111(10) 0.4043(3)
O6_4 O 0.0634(5) 0.60827(14) 0.3881(4)
O7_4 O 0.1500(5) 0.56861(15) 0.4497(4)
Zn4_2 Zn 0.80048(5) 0.779889(14) 0.09170(4)
H2_4 H 0.3382 0.8214 0.0103
C8_4 C 0.5585(5) 0.79604(13) 0.0205(3)
H4_4 H 0.1214 0.8271 0.0270
C45_4 C 0.9654(5) 0.83162(15) 0.1807(4)
C46_4 C 0.9580(6) 0.86115(16) 0.2015(5)
C47_4 C 0.7885(5) 0.90114(13) 0.1794(4)
C48_4 C 0.8551(5) 0.92708(15) 0.1656(5)
H31_4 H 0.9368 0.9251 0.1577
C49_4 C 0.8023(6) 0.95625(15) 0.1635(4)
H32_4 H 0.8479 0.9738 0.1536
C50_4 C 0.6808(5) 0.95911(14) 0.1762(5)
C53_4 C 0.5249(7) 0.9968(2) 0.2210(7)
H35_4 H 0.4852 0.9842 0.2572
C54_4 C 0.6130(6) 0.93313(15) 0.1925(6)
H36_4 H 0.5317 0.9351 0.2016
C55_4 C 0.6678(6) 0.90410(16) 0.1949(5)
H37_4 H 0.6237 0.8865 0.2070
C56_4 C 0.7824(5) 0.84591(13) 0.1383(4)
H38_4 H 0.7014 0.8460 0.1135
N1_4 N 0.8538(4) 0.82146(10) 0.1415(3)
N2_4 N 0.8404(4) 0.87074(11) 0.1750(3)
N3_4 N 0.6206(6) 0.98802(16) 0.1729(6)
N5_4 N 0.9089(4) 0.76019(10) 0.0123(3)
O3_4 O 0.6577(3) 0.78365(9) 0.0041(2)
O4_4 O 0.5450(3) 0.80815(11) 0.0892(3)
C27_4 C 0.0375(12) 0.0268(2) 0.3887(7)
H15_4 H 0.1215 0.0297 0.3921
C26_4 C 0.9726(10) 0.9975(3) 0.3692(6)
C31_4 C 0.8486(10) 0.9899(3) 0.3746(7)
H18_4 H 0.8189 0.9696 0.3687
loop_
_geom_bond_atom_site_label_1
_geom_bond_atom_site_label_2
_geom_bond_site_symmetry_1
_geom_bond_site_symmetry_2
C61 C60 1_555 1_555
H42 C61 1_555 1_555
C62 C61 1_555 1_555
C63 H43 1_555 1_555
C64 C63 1_555 1_555
H44 C64 1_555 1_555
C65 H45 1_555 1_555
C66 C62 1_555 1_555
H46 C66 1_555 1_555
H47 C67 1_555 1_555
N11 C62 1_555 1_555
N12 C64 1_555 1_555
Zn8 N12 1_555 1_555
C63 N11 1_555 1_555
C65 N11 1_555 1_555
C65 N12 1_555 1_555
C66 C67 1_555 1_555
C17 C18 1_555 1_555
C18 H10 1_555 1_555
C19 C18 1_555 1_555
C20 C19 1_555 1_555
H11 C20 1_555 1_555
C21 C20 1_555 1_555
C22 C17 1_555 1_555
H12 C22 1_555 1_555
C23 C17 1_555 1_555
C24 C19 1_555 1_555
C25 H13 1_555 1_555
H14 C25 1_555 1_555
O9 C23 1_555 1_555
O10 C24 1_555 1_555
O11 C24 1_555 1_555
O12 C21 1_555 1_555
Zn8 O11 1_555 1_555
C21 C22 1_555 1_555
C25 O12 1_555 1_555
H16 C28 1_555 1_555
C29 C28 1_555 1_555
C30 C29 1_555 1_555
H17 C30 1_555 1_555
C32 C29 1_555 1_555
O13 C32 1_555 1_555
O14 C32 1_555 1_555
Zn8 O14 1_555 1_555
N14 Zn8 1_555 1_555
C39 H23 1_555 1_555
C40 C39 1_555 1_555
H24 C40 1_555 1_555
C41 H25 1_555 1_555
N14 C40 1_555 1_555
C39 N7 1_555 1_555
C41 N7 1_555 1_555
C41 N14 1_555 1_555
C31 C26 1_555 1_555
H18 C31 1_555 1_555
H16_2 C28_2 1_555 1_555
C29_2 C28_2 1_555 1_555
C30_2 C29_2 1_555 1_555
H17_2 C30_2 1_555 1_555
C32_2 C29_2 1_555 1_555
O13_2 C32_2 1_555 1_555
O14_2 C32_2 1_555 1_555
Zn3 O14_2 1_555 1_555
N14_2 Zn3 1_555 1_555
N15 Zn3 1_555 1_555
O16 Zn3 1_555 1_555
C39_2 H23_2 1_555 1_555
C40_2 C39_2 1_555 1_555
H24_2 C40_2 1_555 1_555
C41_2 H25_2 1_555 1_555
N14_2 C40_2 1_555 1_555
C39_2 N7_2 1_555 1_555
C41_2 N7_2 1_555 1_555
C41_2 N14_2 1_555 1_555
C17_2 C18_2 1_555 1_555
C18_2 H10_2 1_555 1_555
C19_2 C18_2 1_555 1_555
C20_2 C19_2 1_555 1_555
H11_2 C20_2 1_555 1_555
C21_2 C20_2 1_555 1_555
C22_2 C17_2 1_555 1_555
H12_2 C22_2 1_555 1_555
C23_2 C17_2 1_555 1_555
C24_2 C19_2 1_555 1_555
C25_2 H13_2 1_555 1_555
H14_2 C25_2 1_555 1_555
O9_2 C23_2 1_555 1_555
O10_2 C24_2 1_555 1_555
O16 C24_2 1_555 1_555
O12_2 C21_2 1_555 1_555
C21_2 C22_2 1_555 1_555
C25_2 O12_2 1_555 1_555
C61_2 C60_2 1_555 1_555
H42_2 C61_2 1_555 1_555
C62_2 C61_2 1_555 1_555
C63_2 H43_2 1_555 1_555
C64_2 C63_2 1_555 1_555
H44_2 C64_2 1_555 1_555
C65_2 H45_2 1_555 1_555
C66_2 C62_2 1_555 1_555
H46_2 C66_2 1_555 1_555
H47_2 C67_2 1_555 1_555
N11_2 C62_2 1_555 1_555
N15 C64_2 1_555 1_555
C63_2 N11_2 1_555 1_555
C65_2 N11_2 1_555 1_555
C65_2 N15 1_555 1_555
C66_2 C67_2 1_555 1_555
C11 C10 1_555 1_555
C12 C11 1_555 1_555
H7 C12 1_555 1_555
C13 C12 1_555 1_555
C14 C13 1_555 1_555
H8 C14 1_555 1_555
C15 C10 1_555 1_555
H9 C15 1_555 1_555
C16 C13 1_555 1_555
C57 H39 1_555 1_555
C58 C57 1_555 1_555
H40 C58 1_555 1_555
C68 H48 1_555 1_555
N9 C57 1_555 1_555
N10 C58 1_555 1_555
O6 C16 1_555 1_555
O7 C16 1_555 1_555
Zn2 N9 1_555 1_555
N13 Zn2 1_555 1_555
C14 C15 1_555 1_555
C59 N10 1_555 1_555
C68 N9 1_555 1_555
C68 N10 1_555 1_555
O6 Zn2 1_555 1_555
C51 H33 1_555 1_555
C52 H34 1_555 1_555
N13 C51 1_555 1_555
C52 N13 1_555 1_555
H15 C27 1_555 1_555
C1 C2 1_555 1_555
C2 H1 1_555 1_555
C3 C2 1_555 1_555
C4 C3 1_555 1_555
C5 C4 1_555 1_555
C6 C1 1_555 1_555
H3 C6 1_555 1_555
C7 C1 1_555 1_555
H5 C9 1_555 1_555
C33 H19 1_555 1_555
C34 C33 1_555 1_555
H20 C34 1_555 1_555
O1 C7 1_555 1_555
O2 C7 1_555 1_555
O5 C5 1_555 1_555
Zn4 O1 1_555 1_555
C5 C6 1_555 1_555
C9 O5 1_555 1_555
H26 C42 1_555 1_555
H27 C43 1_555 1_555
C44 H28 1_555 1_555
C42 C43 1_555 1_555
C17_3 C18_3 1_555 1_555
C18_3 H10_3 1_555 1_555
C19_3 C18_3 1_555 1_555
C20_3 C19_3 1_555 1_555
H11_3 C20_3 1_555 1_555
C21_3 C20_3 1_555 1_555
C22_3 C17_3 1_555 1_555
H12_3 C22_3 1_555 1_555
C23_3 C17_3 1_555 1_555
C24_3 C19_3 1_555 1_555
C25_3 H13_3 1_555 1_555
H14_3 C25_3 1_555 1_555
C26_2 C25_3 1_555 1_555
C27_2 C26_2 1_555 1_555
H15_2 C27_2 1_555 1_555
C28_3 C27_2 1_555 1_555
H16_3 C28_3 1_555 1_555
C29_3 C28_3 1_555 1_555
C30_3 C29_3 1_555 1_555
H17_3 C30_3 1_555 1_555
C31_2 C26_2 1_555 1_555
H18_2 C31_2 1_555 1_555
C32_3 C29_3 1_555 1_555
C57_2 H39_2 1_555 1_555
C58_2 C57_2 1_555 1_555
H40_2 C58_2 1_555 1_555
C59_2 C60_3 1_555 1_555
C60_3 H41_2 1_555 1_555
C61_3 C60_3 1_555 1_555
H42_3 C61_3 1_555 1_555
C62_3 C61_3 1_555 1_555
C63_3 H43_3 1_555 1_555
C65_3 H45_3 1_555 1_555
C66_3 C62_3 1_555 1_555
H46_3 C66_3 1_555 1_555
C67_3 C59_2 1_555 1_555
H47_3 C67_3 1_555 1_555
C68_2 H48_2 1_555 1_555
N9_2 C57_2 1_555 1_555
N10_2 C58_2 1_555 1_555
N11_3 C62_3 1_555 1_555
O8_2 C23_3 1_555 1_555
O9_3 C23_3 1_555 1_555
O10_3 C24_3 1_555 1_555
O11_2 C24_3 1_555 1_555
O12_3 C21_3 1_555 1_555
O13_3 C32_3 1_555 1_555
O14_3 C32_3 1_555 1_555
Zn2_2 N9_2 1_555 1_555
Zn6 O14_3 1_555 1_555
N13_2 Zn2_2 1_555 1_555
N15_2 Zn6 1_555 1_555
C21_3 C22_3 1_555 1_555
C25_3 O12_3 1_555 1_555
C30_3 C31_2 1_555 1_555
C59_2 N10_2 1_555 1_555
C63_3 N11_3 1_555 1_555
C65_3 N11_3 1_555 1_555
C66_3 C67_3 1_555 1_555
C68_2 N9_2 1_555 1_555
C68_2 N10_2 1_555 1_555
O9_3 Zn2_2 1_555 1_555
C35 C36 1_555 1_555
C36 H21 1_555 1_555
C37 C36 1_555 1_555
H22 C37 1_555 1_555
C38 C37 1_555 1_555
C39_3 H23_3 1_555 1_555
C40_3 C39_3 1_555 1_555
H24_3 C40_3 1_555 1_555
N7_3 C38 1_555 1_555
N8 C40_3 1_555 1_555
C35 N6 1_555 1_555
C39_3 N7_3 1_555 1_555
C41_3 N7_3 1_555 1_555
C41_3 N8 1_555 1_555
H44_3 C64_3 1_555 1_555
N15_2 C64_3 1_555 1_555
C33_2 H19_2 1_555 1_555
C34_2 C33_2 1_555 1_555
H20_2 C34_2 1_555 1_555
C35_2 C36_2 1_555 1_555
C36_2 H21_2 1_555 1_555
C37_2 C36_2 1_555 1_555
H22_2 C37_2 1_555 1_555
C38_2 C37_2 1_555 1_555
C42_2 C38_2 1_555 1_555
H26_2 C42_2 1_555 1_555
C43_2 C35_2 1_555 1_555
H27_2 C43_2 1_555 1_555
C44_2 H28_2 1_555 1_555
C45 H29_2 1_555 1_555
C46 C45 1_555 1_555
H30_2 C46 1_555 1_555
C47 C48 1_555 1_555
C48 H31 1_555 1_555
C49 C48 1_555 1_555
H32 C49 1_555 1_555
C50 C49 1_555 1_555
C51_2 H33_2 1_555 1_555
C53 C52_2 1_555 1_555
C54 C50 1_555 1_555
H36 C54 1_555 1_555
C55 C47 1_555 1_555
H37 C55 1_555 1_555
C56 H38 1_555 1_555
N1 C45 1_555 1_555
N2 C46 1_555 1_555
N3 C50 1_555 1_555
N13_2 C51_2 1_555 1_555
N5 C33_2 1_555 1_555
N6_2 C34_2 1_555 1_555
O3 C8 1_555 1_555
O4 C8 1_555 1_555
Zn4 N1 1_555 1_555
C35_2 N6_2 1_555 1_555
C42_2 C43_2 1_555 1_555
C44_2 N5 1_555 1_555
C44_2 N6_2 1_555 1_555
C47 N2 1_555 1_555
C51_2 N3 1_555 1_555
C52_2 N13_2 1_555 1_555
C53 N3 1_555 1_555
C54 C55 1_555 1_555
C56 N1 1_555 1_555
C56 N2 1_555 1_555
N5 Zn4 1_555 1_555
O3 Zn4 1_555 1_555
C46_2 C45_2 1_555 1_555
C47_2 C48_2 1_555 1_555
C48_2 H31_2 1_555 1_555
C49_2 C48_2 1_555 1_555
H32_2 C49_2 1_555 1_555
C50_2 C49_2 1_555 1_555
H35 C53_2 1_555 1_555
C54_2 C50_2 1_555 1_555
H36_2 C54_2 1_555 1_555
C55_2 C47_2 1_555 1_555
H37_2 C55_2 1_555 1_555
C56_2 H38_2 1_555 1_555
N1_2 C45_2 1_555 1_555
N2_2 C46_2 1_555 1_555
N3_2 C50_2 1_555 1_555
O3_2 C8_2 1_555 1_555
O4_2 C8_2 1_555 1_555
Zn1 N1_2 1_555 1_555
O15 Zn1 1_555 1_555
C47_2 N2_2 1_555 1_555
C53_2 N3_2 1_555 1_555
C54_2 C55_2 1_555 1_555
C56_2 N1_2 1_555 1_555
C56_2 N2_2 1_555 1_555
N5_2 Zn1 1_555 1_555
O3_2 Zn1 1_555 1_555
C1_2 C2_2 1_555 1_555
C3_2 C2_2 1_555 1_555
C4_2 C3_2 1_555 1_555
H2_2 C4_2 1_555 1_555
C5_2 C4_2 1_555 1_555
C6_2 C1_2 1_555 1_555
H3_2 C6_2 1_555 1_555
C7_2 C1_2 1_555 1_555
C9_2 H4_2 1_555 1_555
H5_2 C9_2 1_555 1_555
C10_2 C9_2 1_555 1_555
C11_2 C10_2 1_555 1_555
H6_2 C11_2 1_555 1_555
C12_2 C11_2 1_555 1_555
H7_2 C12_2 1_555 1_555
C13_2 C12_2 1_555 1_555
C14_2 C13_2 1_555 1_555
H8_2 C14_2 1_555 1_555
C15_2 C10_2 1_555 1_555
H9_2 C15_2 1_555 1_555
C16_2 C13_2 1_555 1_555
O15 C7_2 1_555 1_555
O2_2 C7_2 1_555 1_555
O5_2 C5_2 1_555 1_555
O6_2 C16_2 1_555 1_555
O7_2 C16_2 1_555 1_555
C5_2 C6_2 1_555 1_555
C9_2 O5_2 1_555 1_555
C14_2 C15_2 1_555 1_555
C51_3 H33_3 1_555 1_555
C52_3 H34_3 1_555 1_555
N4 C51_3 1_555 1_555
Zn5 N4 1_555 1_555
C52_3 N4 1_555 1_555
C11_3 C10_3 1_555 1_555
C12_3 C11_3 1_555 1_555
H7_3 C12_3 1_555 1_555
C13_3 C12_3 1_555 1_555
C14_3 C13_3 1_555 1_555
H8_3 C14_3 1_555 1_555
C15_3 C10_3 1_555 1_555
H9_3 C15_3 1_555 1_555
C16_3 C13_3 1_555 1_555
C57_3 H39_3 1_555 1_555
C58_3 C57_3 1_555 1_555
H40_3 C58_3 1_555 1_555
C68_3 H48_3 1_555 1_555
N9_3 C57_3 1_555 1_555
N10_3 C58_3 1_555 1_555
O6_3 C16_3 1_555 1_555
O7_3 C16_3 1_555 1_555
Zn5 N9_3 1_555 1_555
C14_3 C15_3 1_555 1_555
C59_3 N10_3 1_555 1_555
C68_3 N9_3 1_555 1_555
C68_3 N10_3 1_555 1_555
O6_3 Zn5 1_555 1_555
C35_3 C36_3 1_555 1_555
C36_3 H21_3 1_555 1_555
C37_3 C36_3 1_555 1_555
H22_3 C37_3 1_555 1_555
C38_3 C37_3 1_555 1_555
C39_4 H23_4 1_555 1_555
C40_4 C39_4 1_555 1_555
H24_4 C40_4 1_555 1_555
N7_4 C38_3 1_555 1_555
N8_2 C40_4 1_555 1_555
C35_3 N6_3 1_555 1_555
C39_4 N7_4 1_555 1_555
C41_4 N7_4 1_555 1_555
C41_4 N8_2 1_555 1_555
C33_3 H19_3 1_555 1_555
C34_3 C33_3 1_555 1_555
H20_3 C34_3 1_555 1_555
C35_4 C36_4 1_555 1_555
C36_4 H21_4 1_555 1_555
C37_4 C36_4 1_555 1_555
H22_4 C37_4 1_555 1_555
C38_4 C37_4 1_555 1_555
C42_3 C38_4 1_555 1_555
H26_3 C42_3 1_555 1_555
C43_3 C35_4 1_555 1_555
H27_3 C43_3 1_555 1_555
C44_3 H28_3 1_555 1_555
C45_3 H29_3 1_555 1_555
C46_3 C45_3 1_555 1_555
H30_3 C46_3 1_555 1_555
C47_3 C48_3 1_555 1_555
C48_3 H31_3 1_555 1_555
C49_3 C48_3 1_555 1_555
H32_3 C49_3 1_555 1_555
C50_3 C49_3 1_555 1_555
C51_4 H33_4 1_555 1_555
C53_3 C52_4 1_555 1_555
C54_3 C50_3 1_555 1_555
H36_3 C54_3 1_555 1_555
C55_3 C47_3 1_555 1_555
H37_3 C55_3 1_555 1_555
C56_3 H38_3 1_555 1_555
N1_3 C45_3 1_555 1_555
N2_3 C46_3 1_555 1_555
N3_3 C50_3 1_555 1_555
N4_2 C51_4 1_555 1_555
N5_3 C33_3 1_555 1_555
N6_4 C34_3 1_555 1_555
O3_3 C8_3 1_555 1_555
O4_3 C8_3 1_555 1_555
Zn1_2 N1_3 1_555 1_555
O15_2 Zn1_2 1_555 1_555
Zn5_2 N4_2 1_555 1_555
C35_4 N6_4 1_555 1_555
C42_3 C43_3 1_555 1_555
C44_3 N5_3 1_555 1_555
C44_3 N6_4 1_555 1_555
C47_3 N2_3 1_555 1_555
C51_4 N3_3 1_555 1_555
C52_4 N4_2 1_555 1_555
C53_3 N3_3 1_555 1_555
C54_3 C55_3 1_555 1_555
C56_3 N1_3 1_555 1_555
C56_3 N2_3 1_555 1_555
N5_3 Zn1_2 1_555 1_555
O3_3 Zn1_2 1_555 1_555
H44_4 C64_4 1_555 1_555
N12_2 C64_4 1_555 1_555
Zn7 N12_2 1_555 1_555
H26_4 C42_4 1_555 1_555
H27_4 C43_4 1_555 1_555
C44_4 H28_4 1_555 1_555
C42_4 C43_4 1_555 1_555
C1_3 C2_3 1_555 1_555
C2_3 H1_4 1_555 1_555
C3_3 C2_3 1_555 1_555
C4_3 C3_3 1_555 1_555
C5_3 C4_3 1_555 1_555
C6_3 C1_3 1_555 1_555
H3_3 C6_3 1_555 1_555
C7_3 C1_3 1_555 1_555
H5_3 C9_3 1_555 1_555
C33_4 H19_4 1_555 1_555
C34_4 C33_4 1_555 1_555
H20_4 C34_4 1_555 1_555
O15_2 C7_3 1_555 1_555
O2_3 C7_3 1_555 1_555
O5_3 C5_3 1_555 1_555
C5_3 C6_3 1_555 1_555
C9_3 O5_3 1_555 1_555
C17_4 C18_4 1_555 1_555
C18_4 H10_4 1_555 1_555
C19_4 C18_4 1_555 1_555
C20_4 C19_4 1_555 1_555
H11_4 C20_4 1_555 1_555
C21_4 C20_4 1_555 1_555
C22_4 C17_4 1_555 1_555
H12_4 C22_4 1_555 1_555
C23_4 C17_4 1_555 1_555
C24_4 C19_4 1_555 1_555
C25_4 H13_4 1_555 1_555
H14_4 C25_4 1_555 1_555
C26_3 C25_4 1_555 1_555
C27_3 C26_3 1_555 1_555
H15_3 C27_3 1_555 1_555
C28_4 C27_3 1_555 1_555
H16_4 C28_4 1_555 1_555
C29_4 C28_4 1_555 1_555
C30_4 C29_4 1_555 1_555
H17_4 C30_4 1_555 1_555
C31_3 C26_3 1_555 1_555
H18_3 C31_3 1_555 1_555
C32_4 C29_4 1_555 1_555
C57_4 H39_4 1_555 1_555
C58_4 C57_4 1_555 1_555
H40_4 C58_4 1_555 1_555
C59_4 C60_4 1_555 1_555
C60_4 H41_4 1_555 1_555
C61_4 C60_4 1_555 1_555
H42_4 C61_4 1_555 1_555
C62_4 C61_4 1_555 1_555
C63_4 H43_4 1_555 1_555
C65_4 H45_4 1_555 1_555
C66_4 C62_4 1_555 1_555
H46_4 C66_4 1_555 1_555
C67_4 C59_4 1_555 1_555
H47_4 C67_4 1_555 1_555
C68_4 H48_4 1_555 1_555
N9_4 C57_4 1_555 1_555
N10_4 C58_4 1_555 1_555
N11_4 C62_4 1_555 1_555
O8_4 C23_4 1_555 1_555
O9_4 C23_4 1_555 1_555
O10_4 C24_4 1_555 1_555
O16_2 C24_4 1_555 1_555
O12_4 C21_4 1_555 1_555
O13_4 C32_4 1_555 1_555
O14_4 C32_4 1_555 1_555
Zn5_2 N9_4 1_555 1_555
Zn7 O14_4 1_555 1_555
C21_4 C22_4 1_555 1_555
C25_4 O12_4 1_555 1_555
C30_4 C31_3 1_555 1_555
C59_4 N10_4 1_555 1_555
C63_4 N11_4 1_555 1_555
C65_4 N11_4 1_555 1_555
C66_4 C67_4 1_555 1_555
C68_4 N9_4 1_555 1_555
C68_4 N10_4 1_555 1_555
O9_4 Zn5_2 1_555 1_555
C1_4 C2_4 1_555 1_555
C3_4 C2_4 1_555 1_555
C4_4 C3_4 1_555 1_555
H2_3 C4_4 1_555 1_555
C5_4 C4_4 1_555 1_555
C6_4 C1_4 1_555 1_555
H3_4 C6_4 1_555 1_555
C7_4 C1_4 1_555 1_555
C9_4 H4_3 1_555 1_555
H5_4 C9_4 1_555 1_555
C10_4 C9_4 1_555 1_555
C11_4 C10_4 1_555 1_555
H6_4 C11_4 1_555 1_555
C12_4 C11_4 1_555 1_555
H7_4 C12_4 1_555 1_555
C13_4 C12_4 1_555 1_555
C14_4 C13_4 1_555 1_555
H8_4 C14_4 1_555 1_555
C15_4 C10_4 1_555 1_555
H9_4 C15_4 1_555 1_555
C16_4 C13_4 1_555 1_555
O1_2 C7_4 1_555 1_555
O2_4 C7_4 1_555 1_555
O5_4 C5_4 1_555 1_555
O6_4 C16_4 1_555 1_555
O7_4 C16_4 1_555 1_555
Zn4_2 O1_2 1_555 1_555
C5_4 C6_4 1_555 1_555
C9_4 O5_4 1_555 1_555
C14_4 C15_4 1_555 1_555
C46_4 C45_4 1_555 1_555
C47_4 C48_4 1_555 1_555
C48_4 H31_4 1_555 1_555
C49_4 C48_4 1_555 1_555
H32_4 C49_4 1_555 1_555
C50_4 C49_4 1_555 1_555
H35_4 C53_4 1_555 1_555
C54_4 C50_4 1_555 1_555
H36_4 C54_4 1_555 1_555
C55_4 C47_4 1_555 1_555
H37_4 C55_4 1_555 1_555
C56_4 H38_4 1_555 1_555
N1_4 C45_4 1_555 1_555
N2_4 C46_4 1_555 1_555
N3_4 C50_4 1_555 1_555
O3_4 C8_4 1_555 1_555
O4_4 C8_4 1_555 1_555
Zn4_2 N1_4 1_555 1_555
C47_4 N2_4 1_555 1_555
C53_4 N3_4 1_555 1_555
C54_4 C55_4 1_555 1_555
C56_4 N1_4 1_555 1_555
C56_4 N2_4 1_555 1_555
N5_4 Zn4_2 1_555 1_555
O3_4 Zn4_2 1_555 1_555
H15_4 C27_4 1_555 1_555
C31_4 C26_4 1_555 1_555
H18_4 C31_4 1_555 1_555

#END
