
###############################################################################
#
# This file contains modified crystal structure data generated from the
# MOF subset of the Cambridge Structural Database (CSD) v543 
# hosted by the Cambridge Crystallographic Data Centre (CCDC).
#
# This work is licensed under the Creative Commons
# Attribution-NonCommercial-ShareAlike 4.0 International License.
# To view a copy of this license, visit
# http://creativecommons.org/licenses/by-nc-sa/4.0/
# or send a letter to
# Creative Commons, PO Box 1866, Mountain View, CA 94042, USA.
#
# CIF created using the CSD Python API on 29 September 2022
# The structure has been converted into the P1 space group
# The structure has a 3D framework
# The original CSD entry GINDAL is in the orthorhombic crystal system
# The framework has been calculated to contain at least 10.0% void space
# The void calculation uses a probe of radius 1.32A, grid spacing 0.4
# The framework is charged, counterions have been retained in the structure
#
###############################################################################

data_GINDAL
_chemical_formula_moiety         '(C214 H122 Cd12 N8 O56 2-)n'
_symmetry_cell_setting           triclinic
_symmetry_space_group_name_H-M   'P 1'
_symmetry_Int_Tables_number      1
_space_group_name_Hall           'P 1'
loop_
_symmetry_equiv_pos_site_id
_symmetry_equiv_pos_as_xyz
1 x,y,z
_cell_length_a                   16.7239(5)
_cell_length_b                   32.8138(11)
_cell_length_c                   12.8458(5)
_cell_angle_alpha                90
_cell_angle_beta                 90
_cell_angle_gamma                90
_cell_volume                     7049.45
loop_
_atom_site_label
_atom_site_type_symbol
_atom_site_fract_x
_atom_site_fract_y
_atom_site_fract_z
O3 O 0.0175(4) 0.12812(18) 0.0017(7)
Cd11 Cd 0.46164(3) 0.43470(2) 0.00135(5)
Cd1 Cd 0.5000 0.48541(2) 0.7500
O4 O 0.3552(3) 0.49284(19) 0.7736(5)
O5 O 0.4160(3) 0.43733(18) 0.8290(4)
C3 C 0.3511(5) 0.4575(3) 0.8083(6)
C4 C 0.2027(4) 0.4580(2) 0.8090(6)
H2 H 0.2043 0.4839 0.7795
C6 C 0.2723(4) 0.4380(2) 0.8317(6)
C12 C 0.1298(5) 0.4398(2) 0.8301(8)
H6 H 0.0829 0.4545 0.8198
C13 C 0.1968(4) 0.3803(3) 0.8878(8)
H7 H 0.1954 0.3539 0.9142
C14 C 0.1258(4) 0.4003(2) 0.8660(6)
C17 C 0.2689(5) 0.3988(3) 0.8711(8)
H9 H 0.3160 0.3850 0.8865
C18 C 0.0466(4) 0.3801(2) 0.8846(8)
C19 C 0.0430(4) 0.3383(2) 0.8875(8)
H10 H 0.0890 0.3229 0.8770
C21 C 0.0300(6) 0.2108(3) 0.9590(14)
H11 H 0.0754 0.1971 0.9817
C22 C 0.0329(7) 0.2532(3) 0.9440(14)
H12 H 0.0812 0.2667 0.9542
Cd2 Cd 0.46164(3) 0.56530(2) 0.50135(5)
O7 O 0.5044(4) 0.55087(16) 0.6665(4)
C27 C 0.5000 0.5693(3) 0.7500
H15 H 0.5000 0.5976 0.7500
O8 O 0.4956(4) 0.55087(16) 0.8335(4)
O9 O 0.4416(3) 0.47071(16) 0.5763(4)
O10 O 0.3626(3) 0.52176(15) 0.5283(5)
O14 O 0.1009(4) 0.12506(18) 0.5702(7)
C28 C 0.3738(4) 0.4854(2) 0.5500(6)
C29 C 0.0206(4) 0.4028(2) 0.6001(7)
H16 H 0.0176 0.4311 0.6017
C32 C 0.3021(4) 0.4578(2) 0.5507(6)
C34 C 0.2411(4) 0.3932(2) 0.5891(7)
H18 H 0.2464 0.3663 0.6111
C35 C 0.3079(4) 0.4173(2) 0.5787(7)
H19 H 0.3581 0.4060 0.5909
C36 C 0.2276(5) 0.4732(2) 0.5263(7)
H20 H 0.2229 0.5000 0.5034
C37 C 0.1657(4) 0.4087(2) 0.5671(7)
C38 C 0.0407(7) 0.1450(3) 0.5397(11)
C42 C 0.0922(4) 0.3842(2) 0.5823(8)
C43 C 0.1604(5) 0.4494(3) 0.5355(9)
H23 H 0.1105 0.4605 0.5204
N2 N 0.0973(4) 0.3420(2) 0.5798(9)
C47 C 0.0277(5) 0.3196(3) 0.5943(10)
C50 C 0.0309(6) 0.2747(3) 0.5842(15)
C51 C 0.0978(6) 0.2530(3) 0.6124(14)
H28 H 0.1417 0.2667 0.6397
C52 C 0.1012(7) 0.2099(3) 0.6007(14)
H29 H 0.1465 0.1956 0.6211
C53 C 0.0372(7) 0.1899(3) 0.5590(15)
O15 O 0.5584(3) 0.47071(16) 0.9237(4)
O17 O 0.5584(3) 0.52929(16) 0.4237(4)
O18 O 0.5175(4) 0.62812(18) 0.4983(7)
O20 O 0.6448(3) 0.49284(19) 0.7264(5)
O21 O 0.5840(3) 0.43733(18) 0.6710(4)
O23 O 0.4160(3) 0.56267(18) 0.3290(4)
O24 O 0.3991(4) 0.62506(18) 0.5702(7)
Cd5 Cd 0.53836(3) 0.56530(2) 0.99865(5)
Cd7 Cd 0.53836(3) 0.43470(2) 0.49865(5)
Cd9 Cd 0.03836(3) 0.06530(2) 0.50135(5)
O16 O 0.4416(3) 0.52929(16) 0.0763(4)
O19 O 0.4825(4) 0.62812(18) 0.0017(7)
O22 O 0.5840(3) 0.56267(18) 0.1710(4)
O2 O 0.6374(3) 0.52176(15) 0.9717(5)
O6 O 0.8991(4) 0.12506(18) 0.9298(7)
C1 C 0.6262(4) 0.4854(2) 0.9500(6)
C2 C 0.9794(4) 0.4028(2) 0.8999(7)
H1 H 0.9824 0.4311 0.8983
C5 C 0.6979(4) 0.4578(2) 0.9493(6)
C7 C 0.7589(4) 0.3932(2) 0.9109(7)
H3 H 0.7536 0.3663 0.8889
C8 C 0.6921(4) 0.4173(2) 0.9213(7)
H4 H 0.6419 0.4060 0.9091
C9 C 0.7724(5) 0.4732(2) 0.9737(7)
H5 H 0.7771 0.5000 0.9966
C10 C 0.8343(4) 0.4087(2) 0.9329(7)
C11 C 0.9593(7) 0.1450(3) 0.9603(11)
C15 C 0.9078(4) 0.3842(2) 0.9177(8)
C16 C 0.8396(5) 0.4494(3) 0.9645(9)
H8 H 0.8895 0.4605 0.9796
N1 N 0.9027(4) 0.3420(2) 0.9202(9)
C20 C 0.9723(5) 0.3196(3) 0.9057(10)
C23 C 0.9691(6) 0.2747(3) 0.9158(15)
C24 C 0.9022(6) 0.2530(3) 0.8876(14)
H13 H 0.8583 0.2667 0.8603
C25 C 0.8988(7) 0.2099(3) 0.8993(14)
H14 H 0.8535 0.1956 0.8789
C26 C 0.9628(7) 0.1899(3) 0.9410(15)
O11 O 0.9825(4) 0.12812(18) 0.4983(7)
C30 C 0.6489(5) 0.4575(3) 0.6917(6)
C31 C 0.7973(4) 0.4580(2) 0.6910(6)
H17 H 0.7957 0.4839 0.7205
C33 C 0.7277(4) 0.4380(2) 0.6683(6)
C39 C 0.8702(5) 0.4398(2) 0.6699(8)
H21 H 0.9171 0.4545 0.6802
C40 C 0.8032(4) 0.3803(3) 0.6122(8)
H22 H 0.8046 0.3539 0.5858
C41 C 0.8742(4) 0.4003(2) 0.6340(6)
C44 C 0.7311(5) 0.3988(3) 0.6289(8)
H24 H 0.6840 0.3850 0.6135
C45 C 0.9534(4) 0.3801(2) 0.6154(8)
C46 C 0.9570(4) 0.3383(2) 0.6125(8)
H25 H 0.9110 0.3229 0.6230
C48 C 0.9700(6) 0.2108(3) 0.5410(14)
H26 H 0.9246 0.1971 0.5183
C49 C 0.9671(7) 0.2532(3) 0.5560(14)
H27 H 0.9188 0.2667 0.5458
O25 O 0.6009(4) 0.62506(18) 0.9298(7)
Cd8 Cd 0.96164(3) 0.06530(2) 0.99865(5)
Cd4 Cd -0.0000 0.01459(2) 0.2500
O16_2 O 0.0584(3) 0.97071(16) 0.5763(4)
O19_2 O 0.0175(4) 0.87188(18) 0.5017(7)
O26 O 0.0044(4) 0.94913(16) 0.3335(4)
O1 O 0.9416(3) 0.02929(16) 0.4237(4)
O3_2 O 0.4825(4) 0.37188(18) 0.5017(7)
O4_2 O 0.1448(3) 0.00716(19) 0.2736(5)
O5_2 O 0.0840(3) 0.06267(18) 0.3290(4)
O6_2 O 0.6009(4) 0.37494(18) 0.4298(7)
C1_2 C 0.8738(4) 0.0146(2) 0.4500(6)
C2_2 C 0.5206(4) 0.0972(2) 0.3999(7)
H1_2 H 0.5176 0.0689 0.3983
C3_2 C 0.1489(5) 0.0425(3) 0.3083(6)
C4_2 C 0.2973(4) 0.0420(2) 0.3090(6)
H2_2 H 0.2957 0.0161 0.2795
C5_2 C 0.8021(4) 0.0422(2) 0.4493(6)
C6_2 C 0.2277(4) 0.0620(2) 0.3317(6)
C7_2 C 0.7411(4) 0.1068(2) 0.4109(7)
H3_2 H 0.7464 0.1337 0.3889
C8_2 C 0.8079(4) 0.0827(2) 0.4213(7)
H4_2 H 0.8581 0.0940 0.4091
C9_2 C 0.7276(5) 0.0268(2) 0.4737(7)
H5_2 H 0.7229 0.0000 0.4966
C10_2 C 0.6657(4) 0.0913(2) 0.4329(7)
C11_2 C 0.5407(7) 0.3550(3) 0.4603(11)
C12_2 C 0.3702(5) 0.0602(2) 0.3301(8)
H6_2 H 0.4171 0.0455 0.3198
C13_2 C 0.3032(4) 0.1197(3) 0.3878(8)
H7_2 H 0.3046 0.1461 0.4142
C14_2 C 0.3742(4) 0.0997(2) 0.3660(6)
C15_2 C 0.5922(4) 0.1158(2) 0.4177(8)
C16_2 C 0.6604(5) 0.0506(3) 0.4645(9)
H8_2 H 0.6105 0.0395 0.4796
N1_2 N 0.5973(4) 0.1580(2) 0.4202(9)
C17_2 C 0.2311(5) 0.1012(3) 0.3711(8)
H9_2 H 0.1840 0.1150 0.3865
C18_2 C 0.4534(4) 0.1199(2) 0.3846(8)
C19_2 C 0.4570(4) 0.1617(2) 0.3875(8)
H10_2 H 0.4110 0.1771 0.3770
C20_2 C 0.5277(5) 0.1804(3) 0.4057(10)
C21_2 C 0.4700(6) 0.2892(3) 0.4590(14)
H11_2 H 0.4246 0.3029 0.4817
C22_2 C 0.4671(7) 0.2468(3) 0.4440(14)
H12_2 H 0.4188 0.2333 0.4542
C23_2 C 0.5309(6) 0.2253(3) 0.4158(15)
C24_2 C 0.5978(6) 0.2470(3) 0.3876(14)
H13_2 H 0.6417 0.2333 0.3603
C25_2 C 0.6012(7) 0.2901(3) 0.3993(14)
H14_2 H 0.6465 0.3044 0.3789
C26_2 C 0.5372(7) 0.3101(3) 0.4410(15)
O9_2 O 0.0584(3) 0.02929(16) 0.0763(4)
O12 O 0.8552(3) 0.00716(19) 0.2264(5)
O13 O 0.9160(3) 0.06267(18) 0.1710(4)
O14_2 O 0.3991(4) 0.37494(18) 0.0702(7)
C28_2 C 0.1262(4) 0.0146(2) 0.0500(6)
C29_2 C 0.4794(4) 0.0972(2) 0.1001(7)
H16_2 H 0.4824 0.0689 0.1017
C30_2 C 0.8511(5) 0.0425(3) 0.1917(6)
C31_2 C 0.7027(4) 0.0420(2) 0.1910(6)
H17_2 H 0.7043 0.0161 0.2205
C32_2 C 0.1979(4) 0.0422(2) 0.0507(6)
C33_2 C 0.7723(4) 0.0620(2) 0.1683(6)
C34_2 C 0.2589(4) 0.1068(2) 0.0891(7)
H18_2 H 0.2536 0.1337 0.1111
C35_2 C 0.1921(4) 0.0827(2) 0.0787(7)
H19_2 H 0.1419 0.0940 0.0909
C36_2 C 0.2724(5) 0.0268(2) 0.0263(7)
H20_2 H 0.2771 0.0000 0.0034
C37_2 C 0.3343(4) 0.0913(2) 0.0671(7)
C38_2 C 0.4593(7) 0.3550(3) 0.0397(11)
C39_2 C 0.6298(5) 0.0602(2) 0.1699(8)
H21_2 H 0.5829 0.0455 0.1802
C40_2 C 0.6968(4) 0.1197(3) 0.1122(8)
H22_2 H 0.6954 0.1461 0.0858
C41_2 C 0.6258(4) 0.0997(2) 0.1340(6)
C42_2 C 0.4078(4) 0.1158(2) 0.0823(8)
C43_2 C 0.3396(5) 0.0506(3) 0.0355(9)
H23_2 H 0.3895 0.0395 0.0204
N2_2 N 0.4027(4) 0.1580(2) 0.0798(9)
C44_2 C 0.7689(5) 0.1012(3) 0.1289(8)
H24_2 H 0.8160 0.1150 0.1135
C45_2 C 0.5466(4) 0.1199(2) 0.1154(8)
C46_2 C 0.5430(4) 0.1617(2) 0.1125(8)
H25_2 H 0.5890 0.1771 0.1230
C47_2 C 0.4723(5) 0.1804(3) 0.0943(10)
C48_2 C 0.5300(6) 0.2892(3) 0.0410(14)
H26_2 H 0.5754 0.3029 0.0183
C49_2 C 0.5329(7) 0.2468(3) 0.0560(14)
H27_2 H 0.5812 0.2333 0.0458
C50_2 C 0.4691(6) 0.2253(3) 0.0842(15)
C51_2 C 0.4022(6) 0.2470(3) 0.1124(14)
H28_2 H 0.3583 0.2333 0.1397
C52_2 C 0.3988(7) 0.2901(3) 0.1007(14)
H29_2 H 0.3535 0.3044 0.1211
C53_2 C 0.4628(7) 0.3101(3) 0.0590(15)
Cd4_2 Cd 1.0000 0.01459(2) 0.2500
O11_2 O 0.5175(4) 0.37188(18) 0.9983(7)
O2_2 O 0.8626(3) 0.97824(15) 0.4717(5)
H5_3 H 0.7229 1.0000 0.4966
Cd2_2 Cd 0.03836(3) 0.93470(2) 0.00135(5)
C27_2 C 0.0000 0.9307(3) 0.2500
H15_2 H 0.0000 0.9024 0.2500
O10_2 O 0.1374(3) 0.97824(15) 0.0283(5)
H20_3 H 0.2771 1.0000 0.0034
Cd3 Cd 0.96164(3) 0.93470(2) 0.49865(5)
O22_2 O 0.9160(3) 0.93733(18) 0.6710(4)
O24_2 O 0.1009(4) 0.87494(18) 0.0702(7)
O25_2 O 0.8991(4) 0.87494(18) 0.4298(7)
O23_2 O 0.0840(3) 0.93733(18) 0.8290(4)
O7_2 O 0.9956(4) 0.94913(16) 0.1665(4)
C27_3 C 1.0000 0.9307(3) 0.2500
H15_3 H 1.0000 0.9024 0.2500
O17_2 O 0.9416(3) 0.97071(16) 0.9237(4)
O18_2 O 0.9825(4) 0.87188(18) 0.9983(7)
O2_3 O 0.3626(3) 0.47824(15) 0.0283(5)
C1_3 C 0.3738(4) 0.5146(2) 0.0500(6)
C2_3 C 0.0206(4) 0.5972(2) 0.1001(7)
H1_3 H 0.0176 0.5689 0.1017
C5_3 C 0.3021(4) 0.5422(2) 0.0507(6)
C7_3 C 0.2411(4) 0.6068(2) 0.0891(7)
H3_3 H 0.2464 0.6337 0.1111
C8_3 C 0.3079(4) 0.5827(2) 0.0787(7)
H4_3 H 0.3581 0.5940 0.0909
C9_3 C 0.2276(5) 0.5268(2) 0.0263(7)
H5_4 H 0.2229 0.5000 0.0034
C10_3 C 0.1657(4) 0.5913(2) 0.0671(7)
C11_3 C 0.0407(7) 0.8550(3) 0.0397(11)
C15_3 C 0.0922(4) 0.6158(2) 0.0823(8)
C16_3 C 0.1604(5) 0.5506(3) 0.0355(9)
H8_3 H 0.1105 0.5395 0.0204
N1_3 N 0.0973(4) 0.6580(2) 0.0798(9)
C20_3 C 0.0277(5) 0.6804(3) 0.0943(10)
C23_3 C 0.0309(6) 0.7253(3) 0.0842(15)
C24_3 C 0.0978(6) 0.7470(3) 0.1124(14)
H13_3 H 0.1417 0.7333 0.1397
C25_3 C 0.1012(7) 0.7901(3) 0.1007(14)
H14_3 H 0.1465 0.8044 0.1211
C26_3 C 0.0372(7) 0.8101(3) 0.0590(15)
O12_2 O 0.3552(3) 0.50716(19) 0.2736(5)
C30_3 C 0.3511(5) 0.5425(3) 0.3083(6)
C31_3 C 0.2027(4) 0.5420(2) 0.3090(6)
H17_3 H 0.2043 0.5161 0.2795
C33_3 C 0.2723(4) 0.5620(2) 0.3317(6)
C39_3 C 0.1298(5) 0.5602(2) 0.3301(8)
H21_3 H 0.0829 0.5455 0.3198
C40_3 C 0.1968(4) 0.6197(3) 0.3878(8)
H22_3 H 0.1954 0.6461 0.4142
C41_3 C 0.1258(4) 0.5997(2) 0.3660(6)
C44_3 C 0.2689(5) 0.6012(3) 0.3711(8)
H24_3 H 0.3160 0.6150 0.3865
C45_3 C 0.0466(4) 0.6199(2) 0.3846(8)
C46_3 C 0.0430(4) 0.6617(2) 0.3875(8)
H25_3 H 0.0890 0.6771 0.3770
C48_3 C 0.0300(6) 0.7892(3) 0.4590(14)
H26_3 H 0.0754 0.8029 0.4817
C49_3 C 0.0329(7) 0.7468(3) 0.4440(14)
H27_3 H 0.0812 0.7333 0.4542
Cd4_3 Cd 0.5000 0.51459(2) 0.2500
O26_2 O 0.5044(4) 0.44913(16) 0.1665(4)
O4_3 O 0.6448(3) 0.50716(19) 0.2264(5)
C3_3 C 0.6489(5) 0.5425(3) 0.1917(6)
C4_3 C 0.7973(4) 0.5420(2) 0.1910(6)
H2_3 H 0.7957 0.5161 0.2205
C6_3 C 0.7277(4) 0.5620(2) 0.1683(6)
C12_3 C 0.8702(5) 0.5602(2) 0.1699(8)
H6_3 H 0.9171 0.5455 0.1802
C13_3 C 0.8032(4) 0.6197(3) 0.1122(8)
H7_3 H 0.8046 0.6461 0.0858
C14_3 C 0.8742(4) 0.5997(2) 0.1340(6)
C17_3 C 0.7311(5) 0.6012(3) 0.1289(8)
H9_3 H 0.6840 0.6150 0.1135
C18_3 C 0.9534(4) 0.6199(2) 0.1154(8)
C19_3 C 0.9570(4) 0.6617(2) 0.1125(8)
H10_3 H 0.9110 0.6771 0.1230
C21_3 C 0.9700(6) 0.7892(3) 0.0410(14)
H11_3 H 0.9246 0.8029 0.0183
C22_3 C 0.9671(7) 0.7468(3) 0.0560(14)
H12_3 H 0.9188 0.7333 0.0458
O7_3 O 0.4956(4) 0.44913(16) 0.3335(4)
C27_4 C 0.5000 0.4307(3) 0.2500
H15_4 H 0.5000 0.4024 0.2500
O10_3 O 0.6374(3) 0.47824(15) 0.4717(5)
C28_3 C 0.6262(4) 0.5146(2) 0.4500(6)
C29_3 C 0.9794(4) 0.5972(2) 0.3999(7)
H16_3 H 0.9824 0.5689 0.3983
C32_3 C 0.6979(4) 0.5422(2) 0.4493(6)
C34_3 C 0.7589(4) 0.6068(2) 0.4109(7)
H18_3 H 0.7536 0.6337 0.3889
C35_3 C 0.6921(4) 0.5827(2) 0.4213(7)
H19_3 H 0.6419 0.5940 0.4091
C36_3 C 0.7724(5) 0.5268(2) 0.4737(7)
H20_4 H 0.7771 0.5000 0.4966
C37_3 C 0.8343(4) 0.5913(2) 0.4329(7)
C38_3 C 0.9593(7) 0.8550(3) 0.4603(11)
C42_3 C 0.9078(4) 0.6158(2) 0.4177(8)
C43_3 C 0.8396(5) 0.5506(3) 0.4645(9)
H23_3 H 0.8895 0.5395 0.4796
N2_3 N 0.9027(4) 0.6580(2) 0.4202(9)
C47_3 C 0.9723(5) 0.6804(3) 0.4057(10)
C50_3 C 0.9691(6) 0.7253(3) 0.4158(15)
C51_3 C 0.9022(6) 0.7470(3) 0.3876(14)
H28_3 H 0.8583 0.7333 0.3603
C52_3 C 0.8988(7) 0.7901(3) 0.3993(14)
H29_3 H 0.8535 0.8044 0.3789
C53_3 C 0.9628(7) 0.8101(3) 0.4410(15)
O7_4 O 0.0044(4) 0.05087(16) 0.8335(4)
C27_5 C -0.0000 0.0693(3) 0.7500
H15_5 H -0.0000 0.0976 0.7500
Cd1_2 Cd -0.0000 0.98541(2) 0.7500
O20_2 O 0.1448(3) 0.99284(19) 0.7736(5)
O2_4 O 0.1374(3) 0.02176(15) 0.5283(5)
H5_5 H 0.2771 -0.0000 0.5034
C27_6 C 1.0000 0.0693(3) 0.7500
H15_6 H 1.0000 0.0976 0.7500
O8_2 O 0.9956(4) 0.05087(16) 0.6665(4)
O10_4 O 0.8626(3) 0.02176(15) 0.9717(5)
H20_5 H 0.7229 -0.0000 0.9966
Cd1_3 Cd 1.0000 0.98541(2) 0.7500
O4_4 O 0.8552(3) 0.99284(19) 0.7264(5)
C1_4 C 0.1262(4) 0.9854(2) 0.5500(6)
C2_4 C 0.4794(4) 0.9028(2) 0.6001(7)
H1_4 H 0.4824 0.9311 0.6017
C3_4 C 0.8511(5) 0.9575(3) 0.6917(6)
C4_4 C 0.7027(4) 0.9580(2) 0.6910(6)
H2_4 H 0.7043 0.9839 0.7205
C5_4 C 0.1979(4) 0.9578(2) 0.5507(6)
C6_4 C 0.7723(4) 0.9380(2) 0.6683(6)
C7_4 C 0.2589(4) 0.8932(2) 0.5891(7)
H3_4 H 0.2536 0.8663 0.6111
C8_4 C 0.1921(4) 0.9173(2) 0.5787(7)
H4_4 H 0.1419 0.9060 0.5909
C9_4 C 0.2724(5) 0.9732(2) 0.5263(7)
H5_6 H 0.2771 1.0000 0.5034
C10_4 C 0.3343(4) 0.9087(2) 0.5671(7)
C11_4 C 0.4593(7) 0.6450(3) 0.5397(11)
C12_4 C 0.6298(5) 0.9398(2) 0.6699(8)
H6_4 H 0.5829 0.9545 0.6802
C13_4 C 0.6968(4) 0.8803(3) 0.6122(8)
H7_4 H 0.6954 0.8539 0.5858
C14_4 C 0.6258(4) 0.9003(2) 0.6340(6)
C15_4 C 0.4078(4) 0.8842(2) 0.5823(8)
C16_4 C 0.3396(5) 0.9494(3) 0.5355(9)
H8_4 H 0.3895 0.9605 0.5204
N1_4 N 0.4027(4) 0.8420(2) 0.5798(9)
C17_4 C 0.7689(5) 0.8988(3) 0.6289(8)
H9_4 H 0.8160 0.8850 0.6135
C18_4 C 0.5466(4) 0.8801(2) 0.6154(8)
C19_4 C 0.5430(4) 0.8383(2) 0.6125(8)
H10_4 H 0.5890 0.8229 0.6230
C20_4 C 0.4723(5) 0.8196(3) 0.5943(10)
C21_4 C 0.5300(6) 0.7108(3) 0.5410(14)
H11_4 H 0.5754 0.6971 0.5183
C22_4 C 0.5329(7) 0.7532(3) 0.5560(14)
H12_4 H 0.5812 0.7667 0.5458
C23_4 C 0.4691(6) 0.7747(3) 0.5842(15)
C24_4 C 0.4022(6) 0.7530(3) 0.6124(14)
H13_4 H 0.3583 0.7667 0.6397
C25_4 C 0.3988(7) 0.7099(3) 0.6007(14)
H14_4 H 0.3535 0.6956 0.6211
C26_4 C 0.4628(7) 0.6899(3) 0.5590(15)
C28_4 C 0.8738(4) 0.9854(2) 0.9500(6)
C29_4 C 0.5206(4) 0.9028(2) 0.8999(7)
H16_4 H 0.5176 0.9311 0.8983
C30_4 C 0.1489(5) 0.9575(3) 0.8083(6)
C31_4 C 0.2973(4) 0.9580(2) 0.8090(6)
H17_4 H 0.2957 0.9839 0.7795
C32_4 C 0.8021(4) 0.9578(2) 0.9493(6)
C33_4 C 0.2277(4) 0.9380(2) 0.8317(6)
C34_4 C 0.7411(4) 0.8932(2) 0.9109(7)
H18_4 H 0.7464 0.8663 0.8889
C35_4 C 0.8079(4) 0.9173(2) 0.9213(7)
H19_4 H 0.8581 0.9060 0.9091
C36_4 C 0.7276(5) 0.9732(2) 0.9737(7)
H20_6 H 0.7229 1.0000 0.9966
C37_4 C 0.6657(4) 0.9087(2) 0.9329(7)
C38_4 C 0.5407(7) 0.6450(3) 0.9603(11)
C39_4 C 0.3702(5) 0.9398(2) 0.8301(8)
H21_4 H 0.4171 0.9545 0.8198
C40_4 C 0.3032(4) 0.8803(3) 0.8878(8)
H22_4 H 0.3046 0.8539 0.9142
C41_4 C 0.3742(4) 0.9003(2) 0.8660(6)
C42_4 C 0.5922(4) 0.8842(2) 0.9177(8)
C43_4 C 0.6604(5) 0.9494(3) 0.9645(9)
H23_4 H 0.6105 0.9605 0.9796
N2_4 N 0.5973(4) 0.8420(2) 0.9202(9)
C44_4 C 0.2311(5) 0.8988(3) 0.8711(8)
H24_4 H 0.1840 0.8850 0.8865
C45_4 C 0.4534(4) 0.8801(2) 0.8846(8)
C46_4 C 0.4570(4) 0.8383(2) 0.8875(8)
H25_4 H 0.4110 0.8229 0.8770
C47_4 C 0.5277(5) 0.8196(3) 0.9057(10)
C48_4 C 0.4700(6) 0.7108(3) 0.9590(14)
H26_4 H 0.4246 0.6971 0.9817
C49_4 C 0.4671(7) 0.7532(3) 0.9440(14)
H27_4 H 0.4188 0.7667 0.9542
C50_4 C 0.5309(6) 0.7747(3) 0.9158(15)
C51_4 C 0.5978(6) 0.7530(3) 0.8876(14)
H28_4 H 0.6417 0.7667 0.8603
C52_4 C 0.6012(7) 0.7099(3) 0.8993(14)
H29_4 H 0.6465 0.6956 0.8789
C53_4 C 0.5372(7) 0.6899(3) 0.9410(15)
loop_
_geom_bond_atom_site_label_1
_geom_bond_atom_site_label_2
_geom_bond_site_symmetry_1
_geom_bond_site_symmetry_2
Cd1 O4 1_555 1_555
O4 C3 1_555 1_555
O5 Cd1 1_555 1_555
C3 O5 1_555 1_555
C4 H2 1_555 1_555
C6 C3 1_555 1_555
C12 C4 1_555 1_555
H6 C12 1_555 1_555
C13 H7 1_555 1_555
C14 C12 1_555 1_555
C17 C6 1_555 1_555
H9 C17 1_555 1_555
C19 C18 1_555 1_555
H10 C19 1_555 1_555
C21 H11 1_555 1_555
C22 C21 1_555 1_555
H12 C22 1_555 1_555
Cd2 O7 1_555 1_555
O7 Cd1 1_555 1_555
C27 O7 1_555 1_555
H15 C27 1_555 1_555
O8 Cd1 1_555 1_555
O9 Cd1 1_555 1_555
O10 Cd2 1_555 1_555
O14 C38 1_555 1_555
C28 O9 1_555 1_555
C29 H16 1_555 1_555
C32 C28 1_555 1_555
C34 H18 1_555 1_555
C35 C32 1_555 1_555
H19 C35 1_555 1_555
C36 C32 1_555 1_555
H20 C36 1_555 1_555
C37 C34 1_555 1_555
C38 C53 1_555 1_555
C42 C29 1_555 1_555
C43 C36 1_555 1_555
H23 C43 1_555 1_555
N2 C42 1_555 1_555
C47 N2 1_555 1_555
C50 C47 1_555 1_555
C51 C50 1_555 1_555
H28 C51 1_555 1_555
C52 C51 1_555 1_555
H29 C52 1_555 1_555
O15 Cd1 1_555 1_555
O17 Cd2 1_555 1_555
O18 Cd2 1_555 1_555
O20 Cd1 1_555 1_555
O21 Cd1 1_555 1_555
O23 Cd2 1_555 1_555
O24 Cd2 1_555 1_555
Cd5 O8 1_555 1_555
Cd7 O9 1_555 1_555
C4 C6 1_555 1_555
C13 C14 1_555 1_555
C13 C17 1_555 1_555
C14 C18 1_555 1_555
C27 O8 1_555 1_555
O10 C28 1_555 1_555
O14 Cd9 1_555 1_555
C34 C35 1_555 1_555
C37 C42 1_555 1_555
C37 C43 1_555 1_555
C52 C53 1_555 1_555
O21 Cd7 1_555 1_555
O15 C1 1_555 1_555
O2 C1 1_555 1_555
O6 C11 1_555 1_555
C1 C5 1_555 1_555
C2 H1 1_555 1_555
C5 C8 1_555 1_555
C7 H3 1_555 1_555
C8 C7 1_555 1_555
H4 C8 1_555 1_555
C9 C5 1_555 1_555
H5 C9 1_555 1_555
C10 C7 1_555 1_555
C11 C26 1_555 1_555
C15 C2 1_555 1_555
C16 C9 1_555 1_555
H8 C16 1_555 1_555
N1 C15 1_555 1_555
C20 N1 1_555 1_555
C23 C20 1_555 1_555
C24 C23 1_555 1_555
H13 C24 1_555 1_555
C25 C24 1_555 1_555
H14 C25 1_555 1_555
O20 C30 1_555 1_555
O21 C30 1_555 1_555
C30 C33 1_555 1_555
C31 H17 1_555 1_555
C33 C31 1_555 1_555
C39 C31 1_555 1_555
H21 C39 1_555 1_555
C40 H22 1_555 1_555
C41 C39 1_555 1_555
C44 C33 1_555 1_555
H24 C44 1_555 1_555
C46 C45 1_555 1_555
H25 C46 1_555 1_555
C48 H26 1_555 1_555
C49 C48 1_555 1_555
H27 C49 1_555 1_555
Cd5 O2 1_555 1_555
O25 Cd5 1_555 1_555
O6 Cd8 1_555 1_555
C10 C15 1_555 1_555
C10 C16 1_555 1_555
C25 C26 1_555 1_555
C40 C41 1_555 1_555
C40 C44 1_555 1_555
C41 C45 1_555 1_555
Cd4 O4_2 1_555 1_555
O1 C1_2 1_555 1_555
O3_2 C11_2 1_555 1_555
O4_2 C3_2 1_555 1_555
O5_2 Cd4 1_555 1_555
O6_2 C11_2 1_555 1_555
C1_2 C5_2 1_555 1_555
C2_2 H1_2 1_555 1_555
C3_2 O5_2 1_555 1_555
C4_2 H2_2 1_555 1_555
C5_2 C8_2 1_555 1_555
C6_2 C3_2 1_555 1_555
C7_2 H3_2 1_555 1_555
C8_2 C7_2 1_555 1_555
H4_2 C8_2 1_555 1_555
C9_2 C5_2 1_555 1_555
H5_2 C9_2 1_555 1_555
C10_2 C7_2 1_555 1_555
C11_2 C26_2 1_555 1_555
C12_2 C4_2 1_555 1_555
H6_2 C12_2 1_555 1_555
C13_2 H7_2 1_555 1_555
C14_2 C12_2 1_555 1_555
C15_2 C2_2 1_555 1_555
C16_2 C9_2 1_555 1_555
H8_2 C16_2 1_555 1_555
N1_2 C15_2 1_555 1_555
C17_2 C6_2 1_555 1_555
H9_2 C17_2 1_555 1_555
C18_2 C2_2 1_555 1_555
C19_2 C18_2 1_555 1_555
H10_2 C19_2 1_555 1_555
C20_2 N1_2 1_555 1_555
C21_2 H11_2 1_555 1_555
C22_2 C21_2 1_555 1_555
H12_2 C22_2 1_555 1_555
C23_2 C20_2 1_555 1_555
C24_2 C23_2 1_555 1_555
H13_2 C24_2 1_555 1_555
C25_2 C24_2 1_555 1_555
H14_2 C25_2 1_555 1_555
C26_2 C21_2 1_555 1_555
O9_2 Cd4 1_555 1_555
O12 C30_2 1_555 1_555
O13 C30_2 1_555 1_555
O14_2 C38_2 1_555 1_555
C28_2 O9_2 1_555 1_555
C29_2 H16_2 1_555 1_555
C30_2 C33_2 1_555 1_555
C31_2 H17_2 1_555 1_555
C32_2 C28_2 1_555 1_555
C33_2 C31_2 1_555 1_555
C34_2 H18_2 1_555 1_555
C35_2 C32_2 1_555 1_555
H19_2 C35_2 1_555 1_555
C36_2 C32_2 1_555 1_555
H20_2 C36_2 1_555 1_555
C37_2 C34_2 1_555 1_555
C38_2 C53_2 1_555 1_555
C39_2 C31_2 1_555 1_555
H21_2 C39_2 1_555 1_555
C40_2 H22_2 1_555 1_555
C41_2 C39_2 1_555 1_555
C42_2 C29_2 1_555 1_555
C43_2 C36_2 1_555 1_555
H23_2 C43_2 1_555 1_555
N2_2 C42_2 1_555 1_555
C44_2 C33_2 1_555 1_555
H24_2 C44_2 1_555 1_555
C45_2 C29_2 1_555 1_555
C46_2 C45_2 1_555 1_555
H25_2 C46_2 1_555 1_555
C47_2 N2_2 1_555 1_555
C48_2 H26_2 1_555 1_555
C49_2 C48_2 1_555 1_555
H27_2 C49_2 1_555 1_555
C50_2 C47_2 1_555 1_555
C51_2 C50_2 1_555 1_555
H28_2 C51_2 1_555 1_555
C52_2 C51_2 1_555 1_555
H29_2 C52_2 1_555 1_555
C53_2 C48_2 1_555 1_555
Cd4_2 O1 1_555 1_555
Cd7 O3_2 1_555 1_555
Cd9 O5_2 1_555 1_555
O6_2 Cd7 1_555 1_555
C4_2 C6_2 1_555 1_555
C10_2 C15_2 1_555 1_555
C10_2 C16_2 1_555 1_555
C13_2 C14_2 1_555 1_555
C13_2 C17_2 1_555 1_555
C14_2 C18_2 1_555 1_555
C19_2 C20_2 1_555 1_555
C22_2 C23_2 1_555 1_555
C25_2 C26_2 1_555 1_555
O12 Cd4_2 1_555 1_555
O13 Cd4_2 1_555 1_555
O14_2 Cd11 1_555 1_555
C34_2 C35_2 1_555 1_555
C37_2 C42_2 1_555 1_555
C37_2 C43_2 1_555 1_555
C40_2 C41_2 1_555 1_555
C40_2 C44_2 1_555 1_555
C41_2 C45_2 1_555 1_555
C46_2 C47_2 1_555 1_555
C49_2 C50_2 1_555 1_555
C52_2 C53_2 1_555 1_555
H15_2 C27_2 1_555 1_555
O10_2 Cd2_2 1_555 1_555
Cd3 O2_2 1_555 1_555
O22_2 Cd3 1_555 1_555
O24_2 Cd2_2 1_555 1_555
O25_2 Cd3 1_555 1_555
C27_2 O26 1_555 1_555
C27_3 O7_2 1_555 1_555
H15_3 C27_3 1_555 1_555
O16 C1_3 1_555 1_555
O2_3 C1_3 1_555 1_555
O24_2 C11_3 1_555 1_555
C1_3 C5_3 1_555 1_555
C2_3 H1_3 1_555 1_555
C5_3 C8_3 1_555 1_555
C7_3 H3_3 1_555 1_555
C8_3 C7_3 1_555 1_555
H4_3 C8_3 1_555 1_555
C9_3 C5_3 1_555 1_555
H5_4 C9_3 1_555 1_555
C10_3 C7_3 1_555 1_555
C11_3 C26_3 1_555 1_555
C15_3 C2_3 1_555 1_555
C16_3 C9_3 1_555 1_555
H8_3 C16_3 1_555 1_555
N1_3 C15_3 1_555 1_555
C20_3 N1_3 1_555 1_555
C23_3 C20_3 1_555 1_555
C24_3 C23_3 1_555 1_555
H13_3 C24_3 1_555 1_555
C25_3 C24_3 1_555 1_555
H14_3 C25_3 1_555 1_555
O12_2 C30_3 1_555 1_555
O23 C30_3 1_555 1_555
C30_3 C33_3 1_555 1_555
C31_3 H17_3 1_555 1_555
C33_3 C31_3 1_555 1_555
C39_3 C31_3 1_555 1_555
H21_3 C39_3 1_555 1_555
C40_3 H22_3 1_555 1_555
C41_3 C39_3 1_555 1_555
C44_3 C33_3 1_555 1_555
H24_3 C44_3 1_555 1_555
C46_3 C45_3 1_555 1_555
H25_3 C46_3 1_555 1_555
C48_3 H26_3 1_555 1_555
C49_3 C48_3 1_555 1_555
H27_3 C49_3 1_555 1_555
Cd11 O2_3 1_555 1_555
Cd4_3 O16 1_555 1_555
O26_2 Cd11 1_555 1_555
C10_3 C15_3 1_555 1_555
C10_3 C16_3 1_555 1_555
C25_3 C26_3 1_555 1_555
O12_2 Cd4_3 1_555 1_555
O23 Cd4_3 1_555 1_555
C40_3 C41_3 1_555 1_555
C40_3 C44_3 1_555 1_555
C41_3 C45_3 1_555 1_555
Cd4_3 O26_2 1_555 1_555
Cd4_3 O4_3 1_555 1_555
O4_3 C3_3 1_555 1_555
O22 Cd4_3 1_555 1_555
C3_3 O22 1_555 1_555
C4_3 H2_3 1_555 1_555
C6_3 C3_3 1_555 1_555
C12_3 C4_3 1_555 1_555
H6_3 C12_3 1_555 1_555
C13_3 H7_3 1_555 1_555
C14_3 C12_3 1_555 1_555
C17_3 C6_3 1_555 1_555
H9_3 C17_3 1_555 1_555
C19_3 C18_3 1_555 1_555
H10_3 C19_3 1_555 1_555
C21_3 H11_3 1_555 1_555
C22_3 C21_3 1_555 1_555
H12_3 C22_3 1_555 1_555
Cd7 O7_3 1_555 1_555
O7_3 Cd4_3 1_555 1_555
C27_4 O7_3 1_555 1_555
H15_4 C27_4 1_555 1_555
O17 Cd4_3 1_555 1_555
O10_3 Cd7 1_555 1_555
O25_2 C38_3 1_555 1_555
C28_3 O17 1_555 1_555
C29_3 H16_3 1_555 1_555
C32_3 C28_3 1_555 1_555
C34_3 H18_3 1_555 1_555
C35_3 C32_3 1_555 1_555
H19_3 C35_3 1_555 1_555
C36_3 C32_3 1_555 1_555
H20_4 C36_3 1_555 1_555
C37_3 C34_3 1_555 1_555
C38_3 C53_3 1_555 1_555
C42_3 C29_3 1_555 1_555
C43_3 C36_3 1_555 1_555
H23_3 C43_3 1_555 1_555
N2_3 C42_3 1_555 1_555
C47_3 N2_3 1_555 1_555
C50_3 C47_3 1_555 1_555
C51_3 C50_3 1_555 1_555
H28_3 C51_3 1_555 1_555
C52_3 C51_3 1_555 1_555
H29_3 C52_3 1_555 1_555
C4_3 C6_3 1_555 1_555
C13_3 C14_3 1_555 1_555
C13_3 C17_3 1_555 1_555
C14_3 C18_3 1_555 1_555
C27_4 O26_2 1_555 1_555
O10_3 C28_3 1_555 1_555
C34_3 C35_3 1_555 1_555
C37_3 C42_3 1_555 1_555
C37_3 C43_3 1_555 1_555
C52_3 C53_3 1_555 1_555
C27_5 O7_4 1_555 1_555
H15_5 C27_5 1_555 1_555
O16_2 Cd1_2 1_555 1_555
O20_2 Cd1_2 1_555 1_555
O23_2 Cd1_2 1_555 1_555
H15_6 C27_6 1_555 1_555
O10_4 Cd8 1_555 1_555
Cd9 O2_4 1_555 1_555
C27_6 O8_2 1_555 1_555
Cd1_3 O4_4 1_555 1_555
O16_2 C1_4 1_555 1_555
O18 C11_4 1_555 1_555
O4_4 C3_4 1_555 1_555
O22_2 Cd1_3 1_555 1_555
O24 C11_4 1_555 1_555
C1_4 C5_4 1_555 1_555
C2_4 H1_4 1_555 1_555
C3_4 O22_2 1_555 1_555
C4_4 H2_4 1_555 1_555
C5_4 C8_4 1_555 1_555
C6_4 C3_4 1_555 1_555
C7_4 H3_4 1_555 1_555
C8_4 C7_4 1_555 1_555
H4_4 C8_4 1_555 1_555
C9_4 C5_4 1_555 1_555
H5_6 C9_4 1_555 1_555
C10_4 C7_4 1_555 1_555
C11_4 C26_4 1_555 1_555
C12_4 C4_4 1_555 1_555
H6_4 C12_4 1_555 1_555
C13_4 H7_4 1_555 1_555
C14_4 C12_4 1_555 1_555
C15_4 C2_4 1_555 1_555
C16_4 C9_4 1_555 1_555
H8_4 C16_4 1_555 1_555
N1_4 C15_4 1_555 1_555
C17_4 C6_4 1_555 1_555
H9_4 C17_4 1_555 1_555
C18_4 C2_4 1_555 1_555
C19_4 C18_4 1_555 1_555
H10_4 C19_4 1_555 1_555
C20_4 N1_4 1_555 1_555
C21_4 H11_4 1_555 1_555
C22_4 C21_4 1_555 1_555
H12_4 C22_4 1_555 1_555
C23_4 C20_4 1_555 1_555
C24_4 C23_4 1_555 1_555
H13_4 C24_4 1_555 1_555
C25_4 C24_4 1_555 1_555
H14_4 C25_4 1_555 1_555
C26_4 C21_4 1_555 1_555
O17_2 Cd1_3 1_555 1_555
O20_2 C30_4 1_555 1_555
O23_2 C30_4 1_555 1_555
O25 C38_4 1_555 1_555
C28_4 O17_2 1_555 1_555
C29_4 H16_4 1_555 1_555
C30_4 C33_4 1_555 1_555
C31_4 H17_4 1_555 1_555
C32_4 C28_4 1_555 1_555
C33_4 C31_4 1_555 1_555
C34_4 H18_4 1_555 1_555
C35_4 C32_4 1_555 1_555
H19_4 C35_4 1_555 1_555
C36_4 C32_4 1_555 1_555
H20_6 C36_4 1_555 1_555
C37_4 C34_4 1_555 1_555
C38_4 C53_4 1_555 1_555
C39_4 C31_4 1_555 1_555
H21_4 C39_4 1_555 1_555
C40_4 H22_4 1_555 1_555
C41_4 C39_4 1_555 1_555
C42_4 C29_4 1_555 1_555
C43_4 C36_4 1_555 1_555
H23_4 C43_4 1_555 1_555
N2_4 C42_4 1_555 1_555
C44_4 C33_4 1_555 1_555
H24_4 C44_4 1_555 1_555
C45_4 C29_4 1_555 1_555
C46_4 C45_4 1_555 1_555
H25_4 C46_4 1_555 1_555
C47_4 N2_4 1_555 1_555
C48_4 H26_4 1_555 1_555
C49_4 C48_4 1_555 1_555
H27_4 C49_4 1_555 1_555
C50_4 C47_4 1_555 1_555
C51_4 C50_4 1_555 1_555
H28_4 C51_4 1_555 1_555
C52_4 C51_4 1_555 1_555
H29_4 C52_4 1_555 1_555
C53_4 C48_4 1_555 1_555
C4_4 C6_4 1_555 1_555
C10_4 C15_4 1_555 1_555
C10_4 C16_4 1_555 1_555
C13_4 C14_4 1_555 1_555
C13_4 C17_4 1_555 1_555
C14_4 C18_4 1_555 1_555
C19_4 C20_4 1_555 1_555
C22_4 C23_4 1_555 1_555
C25_4 C26_4 1_555 1_555
C34_4 C35_4 1_555 1_555
C37_4 C42_4 1_555 1_555
C37_4 C43_4 1_555 1_555
C40_4 C41_4 1_555 1_555
C40_4 C44_4 1_555 1_555
C41_4 C45_4 1_555 1_555
C46_4 C47_4 1_555 1_555
C49_4 C50_4 1_555 1_555
C52_4 C53_4 1_555 1_555

#END
