
###############################################################################
#
# This file contains modified crystal structure data generated from the
# MOF subset of the Cambridge Structural Database (CSD) v543 
# hosted by the Cambridge Crystallographic Data Centre (CCDC).
#
# This work is licensed under the Creative Commons
# Attribution-NonCommercial-ShareAlike 4.0 International License.
# To view a copy of this license, visit
# http://creativecommons.org/licenses/by-nc-sa/4.0/
# or send a letter to
# Creative Commons, PO Box 1866, Mountain View, CA 94042, USA.
#
# CIF created using the CSD Python API on 29 September 2022
# The structure has been converted into the P1 space group
# The structure has a 3D framework
# The original CSD entry GINHOD is in the cubic crystal system
# The framework has been calculated to contain at least 10.0% void space
# The void calculation uses a probe of radius 1.32A, grid spacing 0.4
# The framework is charged, counterions have been retained in the structure
# H atom positions have been added when not included in the experimental data
#
###############################################################################

data_GINHOD
_chemical_formula_moiety         '(C72 H24 Mn17 O48 S8 3-)n'
_symmetry_cell_setting           triclinic
_symmetry_space_group_name_H-M   'P 1'
_symmetry_Int_Tables_number      1
_space_group_name_Hall           'P 1'
loop_
_symmetry_equiv_pos_site_id
_symmetry_equiv_pos_as_xyz
1 x,y,z
_cell_length_a                   15.8573(6)
_cell_length_b                   15.8573(6)
_cell_length_c                   15.8573(6)
_cell_angle_alpha                90
_cell_angle_beta                 90
_cell_angle_gamma                90
_cell_volume                     3987.38
loop_
_atom_site_label
_atom_site_type_symbol
_atom_site_fract_x
_atom_site_fract_y
_atom_site_fract_z
Mn17 Mn 0.15384(4) 0.0000 0.5000
Mn25 Mn 0.5000 0.0000 0.15384(4)
Mn18 Mn 0.5000 0.15384(4) 0.0000
Mn31 Mn 0.15384(4) 0.5000 0.0000
C1 C 0.26463(16) 0.26463(16) 0.1574(2)
Mn1 Mn 0.0000 0.5000 0.15384(4)
S1 S 0.0000 0.5000 0.0000
C2 C 0.15365(16) 0.3780(2) 0.15365(16)
O1 O 0.08958(12) 0.40694(13) 0.18885(13)
C3 C 0.19308(15) 0.3004(2) 0.19308(15)
C4 C 0.1574(2) 0.26463(16) 0.26463(16)
C5 C 0.15365(16) 0.15365(16) 0.3780(2)
O2 O 0.18885(13) 0.08958(12) 0.40694(13)
C6 C 0.19308(15) 0.19308(15) 0.3004(2)
C7 C 0.26463(16) 0.1574(2) 0.26463(16)
C8 C 0.3780(2) 0.15365(16) 0.15365(16)
O3 O 0.40694(13) 0.18885(13) 0.08958(12)
C9 C 0.3004(2) 0.19308(15) 0.19308(15)
O4 O 0.40694(13) 0.08958(12) 0.18885(13)
O5 O 0.08958(12) 0.18885(13) 0.40694(13)
O6 O 0.18885(13) 0.40694(13) 0.08958(12)
S2 S 0.0000 0.0000 0.5000
C46 C 0.26463(16) 0.26463(16) 0.8426(2)
C47 C 0.3780(2) 0.15365(16) 0.84635(16)
O31 O 0.40694(13) 0.08958(12) 0.81115(13)
C48 C 0.3004(2) 0.19308(15) 0.80692(15)
C49 C 0.26463(16) 0.1574(2) 0.73537(16)
C50 C 0.15365(16) 0.15365(16) 0.6220(2)
O32 O 0.08958(12) 0.18885(13) 0.59306(13)
C51 C 0.19308(15) 0.19308(15) 0.6996(2)
C52 C 0.1574(2) 0.26463(16) 0.73537(16)
C53 C 0.15365(16) 0.3780(2) 0.84635(16)
O33 O 0.18885(13) 0.40694(13) 0.91042(12)
C54 C 0.19308(15) 0.3004(2) 0.80692(15)
O34 O 0.08958(12) 0.40694(13) 0.81115(13)
O35 O 0.18885(13) 0.08958(12) 0.59306(13)
O36 O 0.40694(13) 0.18885(13) 0.91042(12)
C64 C 0.26463(16) 0.73537(16) 0.1574(2)
C65 C 0.3780(2) 0.84635(16) 0.15365(16)
O43 O 0.40694(13) 0.91042(12) 0.18885(13)
C66 C 0.3004(2) 0.80692(15) 0.19308(15)
C67 C 0.26463(16) 0.8426(2) 0.26463(16)
C68 C 0.15365(16) 0.84635(16) 0.3780(2)
O44 O 0.08958(12) 0.81115(13) 0.40694(13)
C69 C 0.19308(15) 0.80692(15) 0.3004(2)
C70 C 0.1574(2) 0.73537(16) 0.26463(16)
C71 C 0.15365(16) 0.6220(2) 0.15365(16)
O45 O 0.18885(13) 0.59306(13) 0.08958(12)
C72 C 0.19308(15) 0.6996(2) 0.19308(15)
O46 O 0.08958(12) 0.59306(13) 0.18885(13)
O47 O 0.18885(13) 0.91042(12) 0.40694(13)
O48 O 0.40694(13) 0.81115(13) 0.08958(12)
Mn10 Mn 0.0000 0.15384(4) 0.5000
Mn15 Mn 0.0000 0.5000 0.84616(4)
Mn17_2 Mn 0.15384(4) 1.0000 0.5000
Mn18_2 Mn 0.5000 0.15384(4) 1.0000
Mn19 Mn 0.5000 0.84616(4) 0.0000
Mn22 Mn 0.5000 0.0000 0.84616(4)
Mn25_2 Mn 0.5000 1.0000 0.15384(4)
Mn29 Mn 0.0000 0.84616(4) 0.5000
Mn31_2 Mn 0.15384(4) 0.5000 1.0000
S5 S 0.5000 0.0000 0.0000
O71 O 0.59306(13) 0.18885(13) 0.08958(12)
H2 H 0.292719 0.292719 0.898621
H5 H 0.292719 0.101379 0.707281
H6 H 0.101379 0.292719 0.707281
H9 H 0.292719 0.898621 0.292719
H10 H 0.101379 0.707281 0.292719
H11 H 0.292719 0.707281 0.101379
H13 H 0.292719 0.292719 0.101379
H14 H 0.101379 0.292719 0.292719
H15 H 0.292719 0.101379 0.292719
S1_2 S 0.0000 0.5000 1.0000
Mn19_2 Mn 0.5000 0.84616(4) 1.0000
S5_2 S 0.5000 0.0000 1.0000
O50 O 0.08958(12) 0.59306(13) 0.81115(13)
O55 O 0.59306(13) 0.18885(13) 0.91042(12)
O75 O 0.18885(13) 0.59306(13) 0.91042(12)
S2_2 S 0.0000 1.0000 0.5000
Mn22_2 Mn 0.5000 1.0000 0.84616(4)
S5_3 S 0.5000 1.0000 0.0000
O51 O 0.18885(13) 0.91042(12) 0.59306(13)
O57 O 0.59306(13) 0.81115(13) 0.08958(12)
C28 C 0.26463(16) 0.8426(2) 0.73537(16)
C29 C 0.3780(2) 0.84635(16) 0.84635(16)
O19 O 0.40694(13) 0.81115(13) 0.91042(12)
C30 C 0.3004(2) 0.80692(15) 0.80692(15)
C31 C 0.26463(16) 0.73537(16) 0.8426(2)
C32 C 0.15365(16) 0.6220(2) 0.84635(16)
C33 C 0.19308(15) 0.6996(2) 0.80692(15)
C34 C 0.1574(2) 0.73537(16) 0.73537(16)
C35 C 0.15365(16) 0.84635(16) 0.6220(2)
C36 C 0.19308(15) 0.80692(15) 0.6996(2)
O22 O 0.08958(12) 0.81115(13) 0.59306(13)
O24 O 0.40694(13) 0.91042(12) 0.81115(13)
S5_4 S 0.5000 1.0000 1.0000
O68 O 0.59306(13) 0.81115(13) 0.91042(12)
H20 H 0.292719 0.898621 0.707281
H21 H 0.101379 0.707281 0.707281
H22 H 0.292719 0.707281 0.898621
Mn1_2 Mn 1.0000 0.5000 0.15384(4)
S1_3 S 1.0000 0.5000 0.0000
S2_3 S 1.0000 0.0000 0.5000
Mn4 Mn 0.84616(4) 0.0000 0.5000
Mn10_2 Mn 1.0000 0.15384(4) 0.5000
Mn11 Mn 0.84616(4) 0.5000 0.0000
Mn15_2 Mn 1.0000 0.5000 0.84616(4)
Mn29_2 Mn 1.0000 0.84616(4) 0.5000
O49 O 0.91042(12) 0.59306(13) 0.18885(13)
O53 O 0.81115(13) 0.08958(12) 0.59306(13)
O58 O 0.91042(12) 0.18885(13) 0.40694(13)
O59 O 0.81115(13) 0.40694(13) 0.08958(12)
O62 O 0.91042(12) 0.40694(13) 0.18885(13)
O66 O 0.81115(13) 0.08958(12) 0.40694(13)
O73 O 0.91042(12) 0.18885(13) 0.59306(13)
O74 O 0.81115(13) 0.59306(13) 0.08958(12)
S1_4 S 1.0000 0.5000 1.0000
C10 C 0.73537(16) 0.26463(16) 0.8426(2)
C11 C 0.84635(16) 0.3780(2) 0.84635(16)
O7 O 0.91042(12) 0.40694(13) 0.81115(13)
C12 C 0.80692(15) 0.3004(2) 0.80692(15)
C13 C 0.8426(2) 0.26463(16) 0.73537(16)
C14 C 0.84635(16) 0.15365(16) 0.6220(2)
C15 C 0.80692(15) 0.19308(15) 0.6996(2)
C16 C 0.73537(16) 0.1574(2) 0.73537(16)
C17 C 0.6220(2) 0.15365(16) 0.84635(16)
C18 C 0.6996(2) 0.19308(15) 0.80692(15)
O10 O 0.59306(13) 0.08958(12) 0.81115(13)
O12 O 0.81115(13) 0.40694(13) 0.91042(12)
Mn11_2 Mn 0.84616(4) 0.5000 1.0000
O60 O 0.81115(13) 0.59306(13) 0.91042(12)
O61 O 0.91042(12) 0.59306(13) 0.81115(13)
H17 H 0.898621 0.292719 0.707281
H18 H 0.707281 0.101379 0.707281
H19 H 0.707281 0.292719 0.898621
S2_4 S 1.0000 1.0000 0.5000
C19 C 0.8426(2) 0.73537(16) 0.26463(16)
Mn4_2 Mn 0.84616(4) 1.0000 0.5000
C20 C 0.84635(16) 0.84635(16) 0.3780(2)
O13 O 0.81115(13) 0.91042(12) 0.40694(13)
C21 C 0.80692(15) 0.80692(15) 0.3004(2)
C22 C 0.73537(16) 0.8426(2) 0.26463(16)
C23 C 0.6220(2) 0.84635(16) 0.15365(16)
C24 C 0.6996(2) 0.80692(15) 0.19308(15)
C25 C 0.73537(16) 0.73537(16) 0.1574(2)
C26 C 0.84635(16) 0.6220(2) 0.15365(16)
C27 C 0.80692(15) 0.6996(2) 0.19308(15)
O17 O 0.59306(13) 0.91042(12) 0.18885(13)
O18 O 0.91042(12) 0.81115(13) 0.40694(13)
O64 O 0.81115(13) 0.91042(12) 0.59306(13)
H16 H 0.898621 0.707281 0.292719
H23 H 0.707281 0.898621 0.292719
H24 H 0.707281 0.707281 0.101379
C55 C 0.73537(16) 0.26463(16) 0.1574(2)
C56 C 0.6220(2) 0.15365(16) 0.15365(16)
O37 O 0.59306(13) 0.08958(12) 0.18885(13)
C57 C 0.6996(2) 0.19308(15) 0.19308(15)
C58 C 0.73537(16) 0.1574(2) 0.26463(16)
C59 C 0.84635(16) 0.15365(16) 0.3780(2)
C60 C 0.80692(15) 0.19308(15) 0.3004(2)
C61 C 0.8426(2) 0.26463(16) 0.26463(16)
C62 C 0.84635(16) 0.3780(2) 0.15365(16)
C63 C 0.80692(15) 0.3004(2) 0.19308(15)
H4 H 0.707281 0.292719 0.101379
H8 H 0.898621 0.292719 0.292719
H12 H 0.707281 0.101379 0.292719
C46_2 C 0.73537(16) 0.73537(16) 0.8426(2)
C47_2 C 0.6220(2) 0.84635(16) 0.84635(16)
O31_2 O 0.59306(13) 0.91042(12) 0.81115(13)
C48_2 C 0.6996(2) 0.80692(15) 0.80692(15)
C49_2 C 0.73537(16) 0.8426(2) 0.73537(16)
C50_2 C 0.84635(16) 0.84635(16) 0.6220(2)
O32_2 O 0.91042(12) 0.81115(13) 0.59306(13)
C51_2 C 0.80692(15) 0.80692(15) 0.6996(2)
C52_2 C 0.8426(2) 0.73537(16) 0.73537(16)
C53_2 C 0.84635(16) 0.6220(2) 0.84635(16)
C54_2 C 0.80692(15) 0.6996(2) 0.80692(15)
H2_2 H 0.707281 0.707281 0.898621
H5_2 H 0.707281 0.898621 0.707281
H6_2 H 0.898621 0.707281 0.707281
loop_
_geom_bond_atom_site_label_1
_geom_bond_atom_site_label_2
_geom_bond_site_symmetry_1
_geom_bond_site_symmetry_2
C1 C3 1_555 1_555
Mn1 S1 1_555 1_555
C2 O1 1_555 1_555
O1 Mn1 1_555 1_555
C3 C2 1_555 1_555
C4 C3 1_555 1_555
C5 O2 1_555 1_555
O2 Mn17 1_555 1_555
C6 C4 1_555 1_555
C7 C6 1_555 1_555
C8 O3 1_555 1_555
O3 Mn18 1_555 1_555
C9 C1 1_555 1_555
O4 C8 1_555 1_555
O5 C5 1_555 1_555
O6 C2 1_555 1_555
Mn17 S2 1_555 1_555
C46 C48 1_555 1_555
C47 O31 1_555 1_555
O31 Mn22 1_555 1_555
C48 C47 1_555 1_555
C49 C48 1_555 1_555
C50 O32 1_555 1_555
O32 Mn10 1_555 1_555
C51 C49 1_555 1_555
C52 C51 1_555 1_555
C53 O33 1_555 1_555
O33 Mn31_2 1_555 1_555
C54 C46 1_555 1_555
O34 C53 1_555 1_555
O35 Mn17 1_555 1_555
O36 C47 1_555 1_555
C64 C66 1_555 1_555
C65 O43 1_555 1_555
O43 Mn25_2 1_555 1_555
C66 C65 1_555 1_555
C67 C66 1_555 1_555
C68 O44 1_555 1_555
O44 Mn29 1_555 1_555
C69 C67 1_555 1_555
C70 C69 1_555 1_555
C71 O45 1_555 1_555
O45 Mn31 1_555 1_555
C72 C64 1_555 1_555
O46 Mn1 1_555 1_555
O47 C68 1_555 1_555
O48 C65 1_555 1_555
Mn10 O5 1_555 1_555
Mn31 S1 1_555 1_555
Mn15 O34 1_555 1_555
Mn17_2 O47 1_555 1_555
Mn18_2 O36 1_555 1_555
Mn19 O48 1_555 1_555
Mn25 O4 1_555 1_555
S5 Mn18 1_555 1_555
O71 Mn18 1_555 1_555
C5 C6 1_555 1_555
C7 C9 1_555 1_555
C8 C9 1_555 1_555
O6 Mn31 1_555 1_555
S2 Mn10 1_555 1_555
C50 C51 1_555 1_555
C50 O35 1_555 1_555
C52 C54 1_555 1_555
C53 C54 1_555 1_555
C68 C69 1_555 1_555
C70 C72 1_555 1_555
C71 C72 1_555 1_555
C71 O46 1_555 1_555
Mn25 S5 1_555 1_555
C46 H2 1_555 1_555
C49 H5 1_555 1_555
C52 H6 1_555 1_555
C67 H9 1_555 1_555
C70 H10 1_555 1_555
C64 H11 1_555 1_555
C1 H13 1_555 1_555
C4 H14 1_555 1_555
C7 H15 1_555 1_555
S1_2 Mn15 1_555 1_555
Mn31_2 S1_2 1_555 1_555
S5_2 Mn18_2 1_555 1_555
O50 Mn15 1_555 1_555
O55 Mn18_2 1_555 1_555
O75 Mn31_2 1_555 1_555
Mn22 S5_2 1_555 1_555
Mn17_2 S2_2 1_555 1_555
Mn29 S2_2 1_555 1_555
O51 Mn17_2 1_555 1_555
O57 Mn19 1_555 1_555
Mn19 S5_3 1_555 1_555
Mn25_2 S5_3 1_555 1_555
C28 C30 1_555 1_555
Mn19_2 O19 1_555 1_555
C29 O19 1_555 1_555
C30 C29 1_555 1_555
C31 C30 1_555 1_555
C32 O50 1_555 1_555
C33 C31 1_555 1_555
C34 C33 1_555 1_555
C35 O51 1_555 1_555
C36 C28 1_555 1_555
O22 C35 1_555 1_555
O75 C32 1_555 1_555
O24 C29 1_555 1_555
Mn22_2 O24 1_555 1_555
O68 Mn19_2 1_555 1_555
Mn19_2 S5_4 1_555 1_555
C32 C33 1_555 1_555
C34 C36 1_555 1_555
C35 C36 1_555 1_555
O22 Mn29 1_555 1_555
Mn22_2 S5_4 1_555 1_555
C28 H20 1_555 1_555
C34 H21 1_555 1_555
C31 H22 1_555 1_555
Mn1_2 S1_3 1_555 1_555
S2_3 Mn4 1_555 1_555
Mn11 S1_3 1_555 1_555
O49 Mn1_2 1_555 1_555
O53 Mn4 1_555 1_555
O58 Mn10_2 1_555 1_555
O59 Mn11 1_555 1_555
O62 Mn1_2 1_555 1_555
O66 Mn4 1_555 1_555
O73 Mn10_2 1_555 1_555
O74 Mn11 1_555 1_555
S2_3 Mn10_2 1_555 1_555
S1_4 Mn15_2 1_555 1_555
C10 C12 1_555 1_555
Mn15_2 O7 1_555 1_555
C11 O7 1_555 1_555
C12 C11 1_555 1_555
C13 C12 1_555 1_555
C14 O53 1_555 1_555
C15 C13 1_555 1_555
C16 C15 1_555 1_555
C17 O55 1_555 1_555
C18 C10 1_555 1_555
O10 C17 1_555 1_555
O73 C14 1_555 1_555
O12 C11 1_555 1_555
Mn11_2 S1_4 1_555 1_555
Mn22 O10 1_555 1_555
O60 Mn11_2 1_555 1_555
O61 Mn15_2 1_555 1_555
C14 C15 1_555 1_555
C16 C18 1_555 1_555
C17 C18 1_555 1_555
O12 Mn11_2 1_555 1_555
C13 H17 1_555 1_555
C16 H18 1_555 1_555
C10 H19 1_555 1_555
S2_4 Mn4_2 1_555 1_555
C19 C21 1_555 1_555
Mn4_2 O13 1_555 1_555
C20 O13 1_555 1_555
C21 C20 1_555 1_555
C22 C21 1_555 1_555
C23 O57 1_555 1_555
C24 C22 1_555 1_555
C25 C24 1_555 1_555
C26 O49 1_555 1_555
C27 C19 1_555 1_555
O74 C26 1_555 1_555
O17 C23 1_555 1_555
O18 C20 1_555 1_555
Mn25_2 O17 1_555 1_555
Mn29_2 S2_4 1_555 1_555
O64 Mn4_2 1_555 1_555
C23 C24 1_555 1_555
C25 C27 1_555 1_555
C26 C27 1_555 1_555
O18 Mn29_2 1_555 1_555
C19 H16 1_555 1_555
C22 H23 1_555 1_555
C25 H24 1_555 1_555
C55 C57 1_555 1_555
C56 O37 1_555 1_555
O37 Mn25 1_555 1_555
C57 C56 1_555 1_555
C58 C57 1_555 1_555
C59 O58 1_555 1_555
C60 C58 1_555 1_555
C61 C60 1_555 1_555
C62 O59 1_555 1_555
C63 C55 1_555 1_555
O62 C62 1_555 1_555
C56 O71 1_555 1_555
C59 C60 1_555 1_555
C59 O66 1_555 1_555
C61 C63 1_555 1_555
C62 C63 1_555 1_555
C55 H4 1_555 1_555
C61 H8 1_555 1_555
C58 H12 1_555 1_555
C46_2 C48_2 1_555 1_555
C47_2 O31_2 1_555 1_555
O31_2 Mn22_2 1_555 1_555
C48_2 C47_2 1_555 1_555
C49_2 C48_2 1_555 1_555
C50_2 O32_2 1_555 1_555
O32_2 Mn29_2 1_555 1_555
C51_2 C49_2 1_555 1_555
C52_2 C51_2 1_555 1_555
C53_2 O60 1_555 1_555
C54_2 C46_2 1_555 1_555
O61 C53_2 1_555 1_555
O68 C47_2 1_555 1_555
C50_2 C51_2 1_555 1_555
C50_2 O64 1_555 1_555
C52_2 C54_2 1_555 1_555
C53_2 C54_2 1_555 1_555
C46_2 H2_2 1_555 1_555
C49_2 H5_2 1_555 1_555
C52_2 H6_2 1_555 1_555

#END
