
###############################################################################
#
# This file contains modified crystal structure data generated from the
# MOF subset of the Cambridge Structural Database (CSD) v543 
# hosted by the Cambridge Crystallographic Data Centre (CCDC).
#
# This work is licensed under the Creative Commons
# Attribution-NonCommercial-ShareAlike 4.0 International License.
# To view a copy of this license, visit
# http://creativecommons.org/licenses/by-nc-sa/4.0/
# or send a letter to
# Creative Commons, PO Box 1866, Mountain View, CA 94042, USA.
#
# CIF created using the CSD Python API on 29 September 2022
# The structure has been converted into the P1 space group
# The structure has a 3D framework
# The original CSD entry GINLIA is in the monoclinic crystal system
# The original CSD entry GINLIA is in a Sohncke space group
# The framework has been calculated to contain at least 10.0% void space
# The void calculation uses a probe of radius 1.32A, grid spacing 0.4
# H atom positions have been added when not included in the experimental data
#
###############################################################################

data_GINLIA
_chemical_formula_moiety         '(C80 H56 Cl4 O23 Zn4)n'
_symmetry_cell_setting           triclinic
_symmetry_space_group_name_H-M   'P 1'
_symmetry_Int_Tables_number      1
_space_group_name_Hall           'P 1'
loop_
_symmetry_equiv_pos_site_id
_symmetry_equiv_pos_as_xyz
1 x,y,z
_cell_length_a                   10.1889(13)
_cell_length_b                   16.651(2)
_cell_length_c                   19.730(3)
_cell_angle_alpha                90
_cell_angle_beta                 101.825(2)
_cell_angle_gamma                90
_cell_volume                     3276.26
loop_
_atom_site_label
_atom_site_type_symbol
_atom_site_fract_x
_atom_site_fract_y
_atom_site_fract_z
O4 O 0.4993(7) 0.0414(4) 0.3680(3)
Zn5 Zn 0.49794(9) 0.15804(7) 0.38455(5)
Zn7 Zn 0.75780(13) 0.06384(9) 0.50027(6)
Zn1 Zn 0.50206(9) 0.65804(7) 0.61545(5)
Zn2 Zn 0.24220(13) 0.56384(9) 0.49973(6)
C1 C 0.4043(10) 0.7099(7) 0.4732(5)
C2 C 0.4077(11) 0.7726(6) 0.4190(5)
O1 O 0.4676(7) 0.7250(5) 0.5315(4)
O2 O 0.3275(8) 0.6483(5) 0.4542(3)
O3 O 0.6039(11) 0.9921(5) 0.4687(4)
O9 O 0.1729(9) 0.5257(6) 0.4024(4)
O10 O 0.1061(13) 0.4887(7) 0.5331(6)
C3 C 0.4646(10) 0.8481(7) 0.4373(5)
C4 C 0.4628(10) 0.9060(7) 0.3901(5)
C5 C 0.4113(11) 0.8910(6) 0.3220(5)
H1 H 0.4175 0.9310 0.2884
C6 C 0.3501(10) 0.8183(7) 0.3010(5)
C7 C 0.3475(10) 0.7577(7) 0.3476(4)
H2 H 0.3073 0.7074 0.3332
C8 C 0.5286(12) 0.9845(7) 0.4097(5)
C9 C 0.3053(12) 0.8007(7) 0.2244(5)
C10 C 0.1663(12) 0.7749(7) 0.1974(5)
C11 C 0.0704(12) 0.7649(7) 0.2399(6)
H3 H 0.0941 0.7728 0.2885
C15 C 0.1231(11) 0.7646(7) 0.1232(5)
C16 C 0.2176(11) 0.7771(7) 0.0794(5)
C17 C 0.3451(12) 0.8053(8) 0.1108(5)
O11 O 0.4303(16) 0.8132(8) 0.0638(5)
C18 C 0.569(2) 0.8482(16) 0.0907(8)
H6 H 0.6281 0.8091 0.1204
H7 H 0.5645 0.8980 0.1174
C19 C 0.618(2) 0.8647(15) 0.0271(9)
H9 H 0.7146 0.8539 0.0350
H10 H 0.6014 0.9211 0.0140
C20 C 0.3901(13) 0.8164(7) 0.1795(6)
H11 H 0.4789 0.8349 0.1968
C21 C 0.174(2) 0.7695(11) 0.0025(8)
H12 H 0.2230 0.9116 0.0300
O12 O 0.2121(15) 0.6256(7) 0.0233(5)
C31 C 0.134(2) 0.5452(13) 0.0014(8)
C32 C 0.157(2) 0.4902(14) 0.0601(9)
H18 H 0.2453 0.4648 0.0640
H19 H 0.0875 0.4487 0.0531
H20 H 0.1550 0.5199 0.1027
O13 O 0.3961(11) 0.4921(5) 0.5313(4)
O14 O 0.5007(7) 0.5414(4) 0.6320(3)
O15 O 0.6657(10) 0.6957(6) 0.6796(4)
O16 O 0.7262(7) 0.6385(6) 0.5914(4)
O17 O 0.2056(6) 0.6361(4) 0.5779(3)
O18 O 0.3568(7) 0.6874(5) 0.6633(3)
H24 H 0.511329 0.859942 0.49112
H25 H 0.0505108 0.461001 0.492618
H26 H 0.15529 0.448188 0.565617
H27 H 0.249623 0.512648 0.380389
H28 H 0.117045 0.476976 0.403208
H8 H 0.5710 0.8301 0.9897
C22 C 0.1591(14) 0.8277(6) 0.9553(4)
C23 C 0.1985(14) 0.9034(7) 0.9814(4)
C24 C 0.2020(15) 0.9672(6) 0.9363(6)
C25 C 0.1661(16) 0.9552(6) 0.8652(5)
C26 C 0.1268(14) 0.8795(7) 0.8391(4)
H14 H 0.1023 0.8713 0.7905
C27 C 0.1233(14) 0.8157(6) 0.8842(5)
C28 C 0.108(2) 0.7400(11) 0.8583(7)
C29 C 0.1447(18) 0.6775(11) 0.9044(6)
H15 H 0.1450 0.6240 0.8878
C30 C 0.182(2) 0.6928(10) 0.9767(7)
H16 H 0.0364 0.5565 0.9870
H17 H 0.1646 0.5207 0.9618
C33 C 0.0687(10) 0.7181(7) 0.7824(5)
C37 C 0.1346(10) 0.6876(7) 0.6754(5)
C38 C 0.1624(10) 0.7091(8) 0.7424(5)
H23 H 0.2536 0.7187 0.7635
C40 C 0.2429(9) 0.6690(7) 0.6348(4)
C34 C 0.9312(10) 0.7123(7) 0.7524(5)
H21 H 0.8634 0.7250 0.7773
C35 C 0.9006(10) 0.6859(7) 0.6814(5)
C36 C 0.9977(8) 0.6738(7) 0.6453(5)
H22 H 0.9739 0.6556 0.5988
C39 C 0.7561(10) 0.6700(8) 0.6463(6)
O5 O 0.3343(10) 0.1957(6) 0.3204(4)
O6 O 0.2738(7) 0.1385(6) 0.4086(4)
C34_2 C 0.0688(10) 0.2123(7) 0.2476(5)
H21_2 H 0.1366 0.2250 0.2227
C35_2 C 0.0994(10) 0.1859(7) 0.3186(5)
C36_2 C 0.0023(8) 0.1738(7) 0.3547(5)
H22_2 H 0.0261 0.1556 0.4012
C39_2 C 0.2439(10) 0.1700(8) 0.3537(6)
O7 O 0.7944(6) 0.1361(4) 0.4221(3)
O8 O 0.6432(7) 0.1874(5) 0.3367(3)
H8_2 H 0.4290 0.3301 0.0103
C22_2 C 0.8409(14) 0.3277(6) 0.0447(4)
C23_2 C 0.8015(14) 0.4034(7) 0.0186(4)
C24_2 C 0.7980(15) 0.4672(6) 0.0637(6)
H13 H 0.7711 0.5190 0.0459
C25_2 C 0.8339(16) 0.4552(6) 0.1348(5)
C26_2 C 0.8732(14) 0.3795(7) 0.1609(4)
H14_2 H 0.8977 0.3713 0.2095
C27_2 C 0.8767(14) 0.3157(6) 0.1158(5)
C28_2 C 0.892(2) 0.2400(11) 0.1417(7)
C29_2 C 0.8553(18) 0.1775(11) 0.0956(6)
H15_2 H 0.8550 0.1240 0.1122
C30_2 C 0.818(2) 0.1928(10) 0.0233(7)
H16_2 H 0.9636 0.0565 0.0130
H17_2 H 0.8354 0.0207 0.0382
C33_2 C 0.9313(10) 0.2181(7) 0.2176(5)
C37_2 C 0.8654(10) 0.1876(7) 0.3246(5)
C38_2 C 0.8376(10) 0.2091(8) 0.2576(5)
H23_2 H 0.7464 0.2187 0.2365
C40_2 C 0.7571(9) 0.1690(7) 0.3652(4)
Cl2 Cl 0.8341(6) 0.5321(4) 0.1942(3)
C1_2 C 0.5957(10) 0.2099(7) 0.5268(5)
C2_2 C 0.5923(11) 0.2726(6) 0.5810(5)
O1_2 O 0.5324(7) 0.2250(5) 0.4685(4)
O2_2 O 0.6725(8) 0.1483(5) 0.5458(3)
O9_2 O 0.8271(9) 0.0257(6) 0.5976(4)
C3_2 C 0.5354(10) 0.3481(7) 0.5627(5)
C4_2 C 0.5372(10) 0.4060(7) 0.6099(5)
C5_2 C 0.5887(11) 0.3910(6) 0.6780(5)
H1_2 H 0.5825 0.4310 0.7116
C6_2 C 0.6499(10) 0.3183(7) 0.6990(5)
C7_2 C 0.6525(10) 0.2577(7) 0.6524(4)
H2_2 H 0.6927 0.2074 0.6668
C8_2 C 0.4714(12) 0.4845(7) 0.5903(5)
C9_2 C 0.6947(12) 0.3007(7) 0.7756(5)
C10_2 C 0.8337(12) 0.2749(7) 0.8026(5)
C11_2 C 0.9296(12) 0.2649(7) 0.7601(6)
H3_2 H 0.9059 0.2728 0.7115
C15_2 C 0.8769(11) 0.2646(7) 0.8768(5)
C16_2 C 0.7824(11) 0.2771(7) 0.9206(5)
C17_2 C 0.6549(12) 0.3053(8) 0.8892(5)
O11_2 O 0.5697(16) 0.3132(8) 0.9362(5)
C18_2 C 0.431(2) 0.3482(16) 0.9093(8)
H6_2 H 0.3719 0.3091 0.8796
H7_2 H 0.4355 0.3980 0.8826
C19_2 C 0.382(2) 0.3647(15) 0.9729(9)
H9_2 H 0.2854 0.3539 0.9650
H10_2 H 0.3986 0.4211 0.9860
C20_2 C 0.6099(13) 0.3164(7) 0.8205(6)
H11_2 H 0.5211 0.3349 0.8032
C21_2 C 0.826(2) 0.2695(11) 0.9975(8)
H12_2 H 0.7770 0.4116 0.9700
O12_2 O 0.7879(15) 0.1256(7) 0.9767(5)
C31_2 C 0.866(2) 0.0452(13) 0.9986(8)
H20_2 H 0.8450 0.0199 0.8973
H24_2 H 0.488671 0.359942 0.50888
H27_2 H 0.750377 0.0126478 0.619611
O10_2 O 0.8939(13) 0.9887(7) 0.4669(6)
C32_2 C 0.843(2) 0.9902(14) 0.9399(9)
H18_2 H 0.7547 0.9648 0.9360
H19_2 H 0.9125 0.9487 0.9469
H25_2 H 0.949489 0.961001 0.507382
H26_2 H 0.84471 0.948188 0.434383
H28_2 H 0.882955 0.976976 0.596792
H13_2 H 0.2289 0.0190 0.9541
Cl2_2 Cl 0.1659(6) 0.0321(4) 0.8058(3)
C12 C 0.9448(10) 0.7439(9) 0.2088(6)
C13 C 0.9084(16) 0.7296(10) 0.1368(6)
H4 H 0.8186 0.7153 0.1167
C14 C 0.9967(11) 0.7360(8) 0.0972(5)
H5 H 0.9728 0.7205 0.0499
Cl1 Cl 0.8213(6) 0.7388(4) 0.2597(3)
C12_2 C 0.0552(10) 0.2439(9) 0.7912(6)
C13_2 C 0.0916(16) 0.2296(10) 0.8632(6)
H4_2 H 0.1814 0.2153 0.8833
C14_2 C 0.0033(11) 0.2360(8) 0.9028(5)
H5_2 H 0.0272 0.2205 0.9501
Cl1_2 Cl 0.1787(6) 0.2388(4) 0.7403(3)
loop_
_geom_bond_atom_site_label_1
_geom_bond_atom_site_label_2
_geom_bond_site_symmetry_1
_geom_bond_site_symmetry_2
Zn5 O4 1_555 1_555
Zn1 O1 1_555 1_555
Zn2 O2 1_555 1_555
C1 C2 1_555 1_555
C2 C3 1_555 1_555
O1 C1 1_555 1_555
O2 C1 1_555 1_555
O3 C8 1_555 1_555
O9 Zn2 1_555 1_555
O10 Zn2 1_555 1_555
C3 C4 1_555 1_555
C4 C5 1_555 1_555
C5 H1 1_555 1_555
C6 C5 1_555 1_555
C7 C2 1_555 1_555
H2 C7 1_555 1_555
C8 C4 1_555 1_555
C9 C6 1_555 1_555
C10 C9 1_555 1_555
C11 C10 1_555 1_555
H3 C11 1_555 1_555
C15 C10 1_555 1_555
C16 C15 1_555 1_555
C17 C16 1_555 1_555
O11 C17 1_555 1_555
C18 O11 1_555 1_555
H6 C18 1_555 1_555
H7 C18 1_555 1_555
C19 C18 1_555 1_555
H9 C19 1_555 1_555
H10 C19 1_555 1_555
C20 C9 1_555 1_555
H11 C20 1_555 1_555
C21 C16 1_555 1_555
C31 O12 1_555 1_555
C32 C31 1_555 1_555
H18 C32 1_555 1_555
H19 C32 1_555 1_555
H20 C32 1_555 1_555
O13 Zn2 1_555 1_555
O14 Zn1 1_555 1_555
O15 Zn1 1_555 1_555
O16 Zn1 1_555 1_555
O17 Zn2 1_555 1_555
O18 Zn1 1_555 1_555
C6 C7 1_555 1_555
C17 C20 1_555 1_555
C3 H24 1_555 1_555
O10 H25 1_555 1_555
O10 H26 1_555 1_555
O9 H27 1_555 1_555
O9 H28 1_555 1_555
O17 C40 1_555 1_555
O18 C40 1_555 1_555
C23 C22 1_555 1_555
C24 C23 1_555 1_555
C25 C24 1_555 1_555
C26 C25 1_555 1_555
H14 C26 1_555 1_555
C27 C22 1_555 1_555
C28 C27 1_555 1_555
C29 C28 1_555 1_555
H15 C29 1_555 1_555
C33 C28 1_555 1_555
C38 C33 1_555 1_555
H23 C38 1_555 1_555
C40 C37 1_555 1_555
C26 C27 1_555 1_555
C29 C30 1_555 1_555
C37 C38 1_555 1_555
O15 C39 1_555 1_555
O16 C39 1_555 1_555
H21 C34 1_555 1_555
C35 C34 1_555 1_555
C36 C35 1_555 1_555
H22 C36 1_555 1_555
C39 C35 1_555 1_555
O5 C39_2 1_555 1_555
O6 C39_2 1_555 1_555
H21_2 C34_2 1_555 1_555
C35_2 C34_2 1_555 1_555
C36_2 C35_2 1_555 1_555
H22_2 C36_2 1_555 1_555
C39_2 C35_2 1_555 1_555
Zn5 O5 1_555 1_555
O6 Zn5 1_555 1_555
O7 C40_2 1_555 1_555
O8 C40_2 1_555 1_555
C23_2 C22_2 1_555 1_555
C24_2 C23_2 1_555 1_555
H13 C24_2 1_555 1_555
C25_2 C24_2 1_555 1_555
C26_2 C25_2 1_555 1_555
H14_2 C26_2 1_555 1_555
C27_2 C22_2 1_555 1_555
C28_2 C27_2 1_555 1_555
C29_2 C28_2 1_555 1_555
H15_2 C29_2 1_555 1_555
C33_2 C28_2 1_555 1_555
C38_2 C33_2 1_555 1_555
H23_2 C38_2 1_555 1_555
C40_2 C37_2 1_555 1_555
Cl2 C25_2 1_555 1_555
Zn5 O8 1_555 1_555
Zn7 O7 1_555 1_555
C26_2 C27_2 1_555 1_555
C29_2 C30_2 1_555 1_555
C37_2 C38_2 1_555 1_555
Zn5 O1_2 1_555 1_555
Zn7 O2_2 1_555 1_555
C1_2 C2_2 1_555 1_555
C2_2 C3_2 1_555 1_555
O1_2 C1_2 1_555 1_555
O2_2 C1_2 1_555 1_555
O13 C8_2 1_555 1_555
O14 C8_2 1_555 1_555
O9_2 Zn7 1_555 1_555
C3_2 C4_2 1_555 1_555
C4_2 C5_2 1_555 1_555
C5_2 H1_2 1_555 1_555
C6_2 C5_2 1_555 1_555
C7_2 C2_2 1_555 1_555
H2_2 C7_2 1_555 1_555
C8_2 C4_2 1_555 1_555
C9_2 C6_2 1_555 1_555
C10_2 C9_2 1_555 1_555
C11_2 C10_2 1_555 1_555
H3_2 C11_2 1_555 1_555
C15_2 C10_2 1_555 1_555
C16_2 C15_2 1_555 1_555
C17_2 C16_2 1_555 1_555
O11_2 C17_2 1_555 1_555
C18_2 O11_2 1_555 1_555
H6_2 C18_2 1_555 1_555
H7_2 C18_2 1_555 1_555
C19_2 C18_2 1_555 1_555
H9_2 C19_2 1_555 1_555
H10_2 C19_2 1_555 1_555
C20_2 C9_2 1_555 1_555
H11_2 C20_2 1_555 1_555
C21_2 C16_2 1_555 1_555
C31_2 O12_2 1_555 1_555
C6_2 C7_2 1_555 1_555
C17_2 C20_2 1_555 1_555
C3_2 H24_2 1_555 1_555
O9_2 H27_2 1_555 1_555
H18_2 C32_2 1_555 1_555
H19_2 C32_2 1_555 1_555
O10_2 H25_2 1_555 1_555
O10_2 H26_2 1_555 1_555
C13 C12 1_555 1_555
H4 C13 1_555 1_555
C14 C13 1_555 1_555
H5 C14 1_555 1_555
Cl1 C12 1_555 1_555
C13_2 C12_2 1_555 1_555
H4_2 C13_2 1_555 1_555
C14_2 C13_2 1_555 1_555
H5_2 C14_2 1_555 1_555
Cl1_2 C12_2 1_555 1_555

#END
