
###############################################################################
#
# This file contains modified crystal structure data generated from the
# MOF subset of the Cambridge Structural Database (CSD) v543 
# hosted by the Cambridge Crystallographic Data Centre (CCDC).
#
# This work is licensed under the Creative Commons
# Attribution-NonCommercial-ShareAlike 4.0 International License.
# To view a copy of this license, visit
# http://creativecommons.org/licenses/by-nc-sa/4.0/
# or send a letter to
# Creative Commons, PO Box 1866, Mountain View, CA 94042, USA.
#
# CIF created using the CSD Python API on 29 September 2022
# The structure has been converted into the P1 space group
# The structure has a 3D framework
# The original CSD entry GINTOP is in the orthorhombic crystal system
# The framework has been calculated to contain at least 10.0% void space
# The void calculation uses a probe of radius 1.32A, grid spacing 0.4
# H atom positions have been added when not included in the experimental data
# Generated hydrogen atom positions removed from atoms on special positions
#
###############################################################################

data_GINTOP
_chemical_formula_moiety         '(C448 H364 N12 O132 Zr34)n'
_symmetry_cell_setting           triclinic
_symmetry_space_group_name_H-M   'P 1'
_symmetry_Int_Tables_number      1
_space_group_name_Hall           'P 1'
loop_
_symmetry_equiv_pos_site_id
_symmetry_equiv_pos_as_xyz
1 x,y,z
_cell_length_a                   24.6270(8)
_cell_length_b                   36.7534(10)
_cell_length_c                   39.9531(7)
_cell_angle_alpha                90
_cell_angle_beta                 90
_cell_angle_gamma                90
_cell_volume                     36162.6
loop_
_atom_site_label
_atom_site_type_symbol
_atom_site_fract_x
_atom_site_fract_y
_atom_site_fract_z
Zr1 Zr -0.0000 0.26402(2) 0.43857(2)
Zr2 Zr 0.07209(3) 0.31221(2) 0.5000
Zr3 Zr 0.07087(3) 0.21593(2) 0.5000
O1 O 0.44597(17) 0.27316(11) 0.08992(8)
O2 O 0.05423(16) 0.29942(11) 0.41025(8)
O3 O 0.40018(19) 0.30350(12) 0.05039(9)
O4 O 0.0000 0.31329(17) 0.46924(12)
O5 O 0.1006(2) 0.33122(12) 0.44868(8)
O6 O 0.07204(19) 0.26413(10) 0.52997(9)
O7 O 0.0000 0.21516(16) 0.46882(13)
O8 O 0.0675(3) 0.37237(15) 0.5000
O9 O 0.1614(3) 0.2190(2) 0.5000
O10 O 0.0564(3) 0.15641(16) 0.5000
O11 O 0.1602(3) 0.3081(2) 0.5000
N1 N 0.2543(4) 0.5000 0.29632(19)
H1 H 0.2332 0.5000 0.3141
C1 C 0.0887(3) 0.32292(18) 0.41874(14)
C2 C 0.4139(3) 0.29735(19) 0.07991(15)
C3 C 0.1174(3) 0.34221(19) 0.39112(14)
C4 C 0.1576(3) 0.36621(18) 0.39705(15)
H2 H 0.1684 0.3710 0.4195
C5 C 0.3893(3) 0.3227(2) 0.10530(15)
C6 C 0.1839(4) 0.38434(19) 0.37066(17)
C7 C 0.3751(5) 0.3416(2) 0.16268(16)
C8 C 0.2744(5) 0.46897(16) 0.27942(19)
C9 C 0.3074(4) 0.47929(17) 0.25276(18)
C10 C 0.3502(4) 0.3730(2) 0.1514(2)
C11 C 0.1653(5) 0.3758(2) 0.33715(17)
C12 C 0.3964(3) 0.31557(19) 0.13885(16)
H3 H 0.4147 0.2942 0.1461
C13 C 0.2639(5) 0.4327(2) 0.28449(19)
C14 C 0.3271(4) 0.45520(16) 0.22918(18)
H4 H 0.3468 0.4634 0.2102
C15 C 0.3626(4) 0.3553(2) 0.09466(18)
H5 H 0.3586 0.3604 0.0715
C16 C 0.3392(5) 0.3912(2) 0.2098(2)
C17 C 0.3174(5) 0.41995(18) 0.23434(19)
C18 C 0.2270(4) 0.4088(2) 0.37639(18)
H6 H 0.2382 0.4148 0.3984
C19 C 0.3322(5) 0.3989(2) 0.17524(19)
H7 H 0.3157 0.4210 0.1682
C20 C 0.2884(5) 0.40809(18) 0.26320(18)
C21 C 0.2316(5) 0.4154(2) 0.31432(19)
C22 C 0.1010(4) 0.3358(2) 0.35836(15)
H8 H 0.0722 0.3190 0.3547
C23 C 0.3612(5) 0.3593(2) 0.2211(2)
H9 H 0.3622 0.3536 0.2443
C24 C 0.1901(5) 0.3920(2) 0.3065(3)
H10 H 0.1785 0.3867 0.2843
C25 C 0.3428(4) 0.3793(2) 0.11810(19)
H11 H 0.3238 0.4005 0.1110
C26 C 0.1242(4) 0.3523(3) 0.33111(19)
H12 H 0.1120 0.3474 0.3090
C27 C 0.2522(4) 0.4235(2) 0.3488(2)
H13 H 0.2828 0.4390 0.3516
C28 C 0.3827(5) 0.3349(2) 0.1966(2)
H14 H 0.4023 0.3139 0.2035
O12 O 0.44597(17) 0.72684(11) 0.08992(8)
O13 O 0.05423(16) 0.70058(11) 0.41025(8)
O14 O 0.40018(19) 0.69650(12) 0.05039(9)
O15 O 0.1006(2) 0.66878(12) 0.44868(8)
C29 C 0.0887(3) 0.67708(18) 0.41874(14)
C30 C 0.4139(3) 0.70265(19) 0.07991(15)
C31 C 0.1174(3) 0.65779(19) 0.39112(14)
C32 C 0.1576(3) 0.63379(18) 0.39705(15)
H15 H 0.1684 0.6290 0.4195
C33 C 0.3893(3) 0.6773(2) 0.10530(15)
C34 C 0.1839(4) 0.61566(19) 0.37066(17)
C35 C 0.3751(5) 0.6584(2) 0.16268(16)
C36 C 0.2744(5) 0.53103(16) 0.27942(19)
C37 C 0.3074(4) 0.52071(17) 0.25276(18)
C38 C 0.3502(4) 0.6270(2) 0.1514(2)
C39 C 0.1653(5) 0.6242(2) 0.33715(17)
C40 C 0.3964(3) 0.68443(19) 0.13885(16)
H16 H 0.4147 0.7058 0.1461
C41 C 0.2639(5) 0.5673(2) 0.28449(19)
C42 C 0.3271(4) 0.54480(16) 0.22918(18)
H17 H 0.3468 0.5366 0.2102
C43 C 0.3626(4) 0.6447(2) 0.09466(18)
H18 H 0.3586 0.6396 0.0715
C44 C 0.3392(5) 0.6088(2) 0.2098(2)
C45 C 0.3174(5) 0.58005(18) 0.23434(19)
C46 C 0.2270(4) 0.5912(2) 0.37639(18)
H19 H 0.2382 0.5852 0.3984
C47 C 0.3322(5) 0.6011(2) 0.17524(19)
H20 H 0.3157 0.5790 0.1682
C48 C 0.2884(5) 0.59191(18) 0.26320(18)
C49 C 0.2316(5) 0.5846(2) 0.31432(19)
C50 C 0.1010(4) 0.6642(2) 0.35836(15)
H21 H 0.0722 0.6810 0.3547
C51 C 0.3612(5) 0.6407(2) 0.2211(2)
H22 H 0.3622 0.6464 0.2443
C52 C 0.1901(5) 0.6080(2) 0.3065(3)
H23 H 0.1785 0.6133 0.2843
C53 C 0.3428(4) 0.6207(2) 0.11810(19)
H24 H 0.3238 0.5995 0.1110
C54 C 0.1242(4) 0.6477(3) 0.33111(19)
H25 H 0.1120 0.6526 0.3090
C55 C 0.2522(4) 0.5765(2) 0.3488(2)
H26 H 0.2828 0.5610 0.3516
C56 C 0.3827(5) 0.6651(2) 0.1966(2)
H27 H 0.4023 0.6861 0.2035
Zr4 Zr 0.0000 0.73598(2) 0.43857(2)
Zr5 Zr 0.0000 0.26402(2) 0.56143(2)
Zr6 Zr 0.5000 0.76402(2) 0.06143(2)
Zr7 Zr 0.5000 0.23598(2) 0.06143(2)
Zr9 Zr 0.07209(3) 0.68779(2) 0.5000
Zr11 Zr 0.42913(3) 0.28407(2) 0.0000
Zr12 Zr 0.42913(3) 0.71593(2) 0.0000
O18 O 0.05403(17) 0.22684(11) 0.41008(8)
O20 O 0.09982(19) 0.19650(12) 0.55039(9)
O21 O 0.09982(19) 0.19650(12) 0.44961(9)
O22 O 0.0000 0.31329(17) 0.53076(12)
O23 O 0.1006(2) 0.33122(12) 0.55132(8)
O24 O 0.07204(19) 0.26413(10) 0.47003(9)
O25 O 0.0000 0.21516(16) 0.53118(13)
H36 H 0.285509 0.379103 0.26856
H37 H 0.285509 0.620897 0.26856
Zr11_2 Zr 0.42913(3) 0.28407(2) 1.0000
Zr12_2 Zr 0.42913(3) 0.71593(2) 1.0000
Zr1_2 Zr 1.0000 0.26402(2) 0.43857(2)
O4_2 O 1.0000 0.31329(17) 0.46924(12)
O7_2 O 1.0000 0.21516(16) 0.46882(13)
O16 O 0.92796(19) 0.26413(10) 0.47003(9)
Zr4_2 Zr 1.0000 0.73598(2) 0.43857(2)
Zr5_2 Zr 1.0000 0.26402(2) 0.56143(2)
Zr8 Zr 0.92791(3) 0.31221(2) 0.5000
Zr10 Zr 0.92913(3) 0.21593(2) 0.5000
O17 O 0.94597(17) 0.22684(11) 0.41008(8)
O19 O 0.94577(16) 0.29942(11) 0.41025(8)
O22_2 O 1.0000 0.31329(17) 0.53076(12)
O25_2 O 1.0000 0.21516(16) 0.53118(13)
O4_3 O 0.0000 0.68671(17) 0.46924(12)
O7_3 O -0.0000 0.78484(16) 0.46882(13)
O16_2 O 0.07204(19) 0.73587(10) 0.47003(9)
Zr5_3 Zr 0.0000 0.73598(2) 0.56143(2)
Zr10_2 Zr 0.07087(3) 0.78407(2) 0.5000
O17_2 O 0.05403(17) 0.77316(11) 0.41008(8)
O22_3 O 0.0000 0.68671(17) 0.53076(12)
O25_3 O 0.0000 0.78484(16) 0.53118(13)
Zr2_2 Zr 0.92791(3) 0.68779(2) 0.5000
Zr3_2 Zr 0.92913(3) 0.78407(2) 0.5000
O1_2 O 0.55403(17) 0.72684(11) 0.08992(8)
O2_2 O 0.94577(16) 0.70058(11) 0.41025(8)
O3_2 O 0.59982(19) 0.69650(12) 0.05039(9)
O4_4 O 1.0000 0.68671(17) 0.46924(12)
O5_2 O 0.8994(2) 0.66878(12) 0.44868(8)
O6_2 O 0.92796(19) 0.73587(10) 0.52997(9)
O7_4 O 1.0000 0.78484(16) 0.46882(13)
O8_2 O 0.9325(3) 0.62763(15) 0.5000
O9_2 O 0.8386(3) 0.7810(2) 0.5000
O10_2 O 0.9436(3) 0.84359(16) 0.5000
O11_2 O 0.8398(3) 0.6919(2) 0.5000
N1_2 N 0.7457(4) 0.5000 0.29632(19)
H1_2 H 0.7668 0.5000 0.3141
C1_2 C 0.9113(3) 0.67708(18) 0.41874(14)
C2_2 C 0.5861(3) 0.70265(19) 0.07991(15)
C3_2 C 0.8826(3) 0.65779(19) 0.39112(14)
C4_2 C 0.8424(3) 0.63379(18) 0.39705(15)
H2_2 H 0.8316 0.6290 0.4195
C5_2 C 0.6107(3) 0.6773(2) 0.10530(15)
C6_2 C 0.8161(4) 0.61566(19) 0.37066(17)
C7_2 C 0.6249(5) 0.6584(2) 0.16268(16)
C8_2 C 0.7256(5) 0.53103(16) 0.27942(19)
C9_2 C 0.6926(4) 0.52071(17) 0.25276(18)
C10_2 C 0.6498(4) 0.6270(2) 0.1514(2)
C11_2 C 0.8347(5) 0.6242(2) 0.33715(17)
C12_2 C 0.6036(3) 0.68443(19) 0.13885(16)
H3_2 H 0.5853 0.7058 0.1461
C13_2 C 0.7361(5) 0.5673(2) 0.28449(19)
C14_2 C 0.6729(4) 0.54480(16) 0.22918(18)
H4_2 H 0.6532 0.5366 0.2102
C15_2 C 0.6374(4) 0.6447(2) 0.09466(18)
H5_2 H 0.6414 0.6396 0.0715
C16_2 C 0.6608(5) 0.6088(2) 0.2098(2)
C17_2 C 0.6826(5) 0.58005(18) 0.23434(19)
C18_2 C 0.7730(4) 0.5912(2) 0.37639(18)
H6_2 H 0.7618 0.5852 0.3984
C19_2 C 0.6678(5) 0.6011(2) 0.17524(19)
H7_2 H 0.6843 0.5790 0.1682
C20_2 C 0.7116(5) 0.59191(18) 0.26320(18)
C21_2 C 0.7684(5) 0.5846(2) 0.31432(19)
C22_2 C 0.8990(4) 0.6642(2) 0.35836(15)
H8_2 H 0.9278 0.6810 0.3547
C23_2 C 0.6388(5) 0.6407(2) 0.2211(2)
H9_2 H 0.6378 0.6464 0.2443
C24_2 C 0.8099(5) 0.6080(2) 0.3065(3)
H10_2 H 0.8215 0.6133 0.2843
C25_2 C 0.6572(4) 0.6207(2) 0.11810(19)
H11_2 H 0.6762 0.5995 0.1110
C26_2 C 0.8758(4) 0.6477(3) 0.33111(19)
H12_2 H 0.8880 0.6526 0.3090
C27_2 C 0.7478(4) 0.5765(2) 0.3488(2)
H13_2 H 0.7172 0.5610 0.3516
C28_2 C 0.6173(5) 0.6651(2) 0.1966(2)
H14_2 H 0.5977 0.6861 0.2035
O12_2 O 0.55403(17) 0.27316(11) 0.08992(8)
O14_2 O 0.59982(19) 0.30350(12) 0.05039(9)
O15_2 O 0.8994(2) 0.33122(12) 0.44868(8)
C29_2 C 0.9113(3) 0.32292(18) 0.41874(14)
C30_2 C 0.5861(3) 0.29735(19) 0.07991(15)
C31_2 C 0.8826(3) 0.34221(19) 0.39112(14)
C32_2 C 0.8424(3) 0.36621(18) 0.39705(15)
H15_2 H 0.8316 0.3710 0.4195
C33_2 C 0.6107(3) 0.3227(2) 0.10530(15)
C34_2 C 0.8161(4) 0.38434(19) 0.37066(17)
C35_2 C 0.6249(5) 0.3416(2) 0.16268(16)
C36_2 C 0.7256(5) 0.46897(16) 0.27942(19)
C37_2 C 0.6926(4) 0.47929(17) 0.25276(18)
C38_2 C 0.6498(4) 0.3730(2) 0.1514(2)
C39_2 C 0.8347(5) 0.3758(2) 0.33715(17)
C40_2 C 0.6036(3) 0.31557(19) 0.13885(16)
H16_2 H 0.5853 0.2942 0.1461
C41_2 C 0.7361(5) 0.4327(2) 0.28449(19)
C42_2 C 0.6729(4) 0.45520(16) 0.22918(18)
H17_2 H 0.6532 0.4634 0.2102
C43_2 C 0.6374(4) 0.3553(2) 0.09466(18)
H18_2 H 0.6414 0.3604 0.0715
C44_2 C 0.6608(5) 0.3912(2) 0.2098(2)
C45_2 C 0.6826(5) 0.41995(18) 0.23434(19)
C46_2 C 0.7730(4) 0.4088(2) 0.37639(18)
H19_2 H 0.7618 0.4148 0.3984
C47_2 C 0.6678(5) 0.3989(2) 0.17524(19)
H20_2 H 0.6843 0.4210 0.1682
C48_2 C 0.7116(5) 0.40809(18) 0.26320(18)
C49_2 C 0.7684(5) 0.4154(2) 0.31432(19)
C50_2 C 0.8990(4) 0.3358(2) 0.35836(15)
H21_2 H 0.9278 0.3190 0.3547
C51_2 C 0.6388(5) 0.3593(2) 0.2211(2)
H22_2 H 0.6378 0.3536 0.2443
C52_2 C 0.8099(5) 0.3920(2) 0.3065(3)
H23_2 H 0.8215 0.3867 0.2843
C53_2 C 0.6572(4) 0.3793(2) 0.11810(19)
H24_2 H 0.6762 0.4005 0.1110
C54_2 C 0.8758(4) 0.3523(3) 0.33111(19)
H25_2 H 0.8880 0.3474 0.3090
C55_2 C 0.7478(4) 0.4235(2) 0.3488(2)
H26_2 H 0.7172 0.4390 0.3516
C56_2 C 0.6173(5) 0.3349(2) 0.1966(2)
H27_2 H 0.5977 0.3139 0.2035
Zr5_4 Zr 1.0000 0.73598(2) 0.56143(2)
Zr11_3 Zr 0.57087(3) 0.71593(2) 0.0000
Zr12_3 Zr 0.57087(3) 0.28407(2) 0.0000
O18_2 O 0.94597(17) 0.77316(11) 0.41008(8)
O20_2 O 0.90018(19) 0.80350(12) 0.55039(9)
O21_2 O 0.90018(19) 0.80350(12) 0.44961(9)
O22_4 O 1.0000 0.68671(17) 0.53076(12)
O23_2 O 0.8994(2) 0.66878(12) 0.55132(8)
O24_2 O 0.92796(19) 0.73587(10) 0.47003(9)
O25_4 O 1.0000 0.78484(16) 0.53118(13)
H36_2 H 0.714491 0.620897 0.26856
H37_2 H 0.714491 0.379103 0.26856
Zr11_4 Zr 0.57087(3) 0.71593(2) 1.0000
Zr12_4 Zr 0.57087(3) 0.28407(2) 1.0000
O17_3 O 0.05403(17) 0.22684(11) 0.58992(8)
O19_2 O 0.05423(16) 0.29942(11) 0.58975(8)
O1_3 O 0.55403(17) 0.27316(11) 0.91008(8)
O2_3 O 0.94577(16) 0.29942(11) 0.58975(8)
O3_3 O 0.59982(19) 0.30350(12) 0.94961(9)
O5_3 O 0.8994(2) 0.33122(12) 0.55132(8)
O8_3 O 0.9325(3) 0.37237(15) 0.5000
O9_3 O 0.8386(3) 0.2190(2) 0.5000
O10_3 O 0.9436(3) 0.15641(16) 0.5000
O11_3 O 0.8398(3) 0.3081(2) 0.5000
N1_3 N 0.7457(4) 0.5000 0.70368(19)
H1_3 H 0.7668 0.5000 0.6859
C1_3 C 0.9113(3) 0.32292(18) 0.58126(14)
C2_3 C 0.5861(3) 0.29735(19) 0.92009(15)
C3_3 C 0.8826(3) 0.34221(19) 0.60888(14)
C4_3 C 0.8424(3) 0.36621(18) 0.60295(15)
H2_3 H 0.8316 0.3710 0.5805
C5_3 C 0.6107(3) 0.3227(2) 0.89470(15)
C6_3 C 0.8161(4) 0.38434(19) 0.62934(17)
C7_3 C 0.6249(5) 0.3416(2) 0.83732(16)
C8_3 C 0.7256(5) 0.46897(16) 0.72058(19)
C9_3 C 0.6926(4) 0.47929(17) 0.74724(18)
C10_3 C 0.6498(4) 0.3730(2) 0.8486(2)
C11_3 C 0.8347(5) 0.3758(2) 0.66285(17)
C12_3 C 0.6036(3) 0.31557(19) 0.86115(16)
H3_3 H 0.5853 0.2942 0.8539
C13_3 C 0.7361(5) 0.4327(2) 0.71551(19)
C14_3 C 0.6729(4) 0.45520(16) 0.77082(18)
H4_3 H 0.6532 0.4634 0.7898
C15_3 C 0.6374(4) 0.3553(2) 0.90534(18)
H5_3 H 0.6414 0.3604 0.9285
C16_3 C 0.6608(5) 0.3912(2) 0.7902(2)
C17_3 C 0.6826(5) 0.41995(18) 0.76566(19)
C18_3 C 0.7730(4) 0.4088(2) 0.62361(18)
H6_3 H 0.7618 0.4148 0.6016
C19_3 C 0.6678(5) 0.3989(2) 0.82476(19)
H7_3 H 0.6843 0.4210 0.8318
C20_3 C 0.7116(5) 0.40809(18) 0.73680(18)
C21_3 C 0.7684(5) 0.4154(2) 0.68568(19)
C22_3 C 0.8990(4) 0.3358(2) 0.64164(15)
H8_3 H 0.9278 0.3190 0.6453
C23_3 C 0.6388(5) 0.3593(2) 0.7789(2)
H9_3 H 0.6378 0.3536 0.7557
C24_3 C 0.8099(5) 0.3920(2) 0.6935(3)
H10_3 H 0.8215 0.3867 0.7157
C25_3 C 0.6572(4) 0.3793(2) 0.88190(19)
H11_3 H 0.6762 0.4005 0.8890
C26_3 C 0.8758(4) 0.3523(3) 0.66889(19)
H12_3 H 0.8880 0.3474 0.6910
C27_3 C 0.7478(4) 0.4235(2) 0.6512(2)
H13_3 H 0.7172 0.4390 0.6484
C28_3 C 0.6173(5) 0.3349(2) 0.8034(2)
H14_3 H 0.5977 0.3139 0.7965
O12_3 O 0.55403(17) 0.72684(11) 0.91008(8)
O13_2 O 0.94577(16) 0.70058(11) 0.58975(8)
O14_3 O 0.59982(19) 0.69650(12) 0.94961(9)
C29_3 C 0.9113(3) 0.67708(18) 0.58126(14)
C30_3 C 0.5861(3) 0.70265(19) 0.92009(15)
C31_3 C 0.8826(3) 0.65779(19) 0.60888(14)
C32_3 C 0.8424(3) 0.63379(18) 0.60295(15)
H15_3 H 0.8316 0.6290 0.5805
C33_3 C 0.6107(3) 0.6773(2) 0.89470(15)
C34_3 C 0.8161(4) 0.61566(19) 0.62934(17)
C35_3 C 0.6249(5) 0.6584(2) 0.83732(16)
C36_3 C 0.7256(5) 0.53103(16) 0.72058(19)
C37_3 C 0.6926(4) 0.52071(17) 0.74724(18)
C38_3 C 0.6498(4) 0.6270(2) 0.8486(2)
C39_3 C 0.8347(5) 0.6242(2) 0.66285(17)
C40_3 C 0.6036(3) 0.68443(19) 0.86115(16)
H16_3 H 0.5853 0.7058 0.8539
C41_3 C 0.7361(5) 0.5673(2) 0.71551(19)
C42_3 C 0.6729(4) 0.54480(16) 0.77082(18)
H17_3 H 0.6532 0.5366 0.7898
C43_3 C 0.6374(4) 0.6447(2) 0.90534(18)
H18_3 H 0.6414 0.6396 0.9285
C44_3 C 0.6608(5) 0.6088(2) 0.7902(2)
C45_3 C 0.6826(5) 0.58005(18) 0.76566(19)
C46_3 C 0.7730(4) 0.5912(2) 0.62361(18)
H19_3 H 0.7618 0.5852 0.6016
C47_3 C 0.6678(5) 0.6011(2) 0.82476(19)
H20_3 H 0.6843 0.5790 0.8318
C48_3 C 0.7116(5) 0.59191(18) 0.73680(18)
C49_3 C 0.7684(5) 0.5846(2) 0.68568(19)
C50_3 C 0.8990(4) 0.6642(2) 0.64164(15)
H21_3 H 0.9278 0.6810 0.6453
C51_3 C 0.6388(5) 0.6407(2) 0.7789(2)
H22_3 H 0.6378 0.6464 0.7557
C52_3 C 0.8099(5) 0.6080(2) 0.6935(3)
H23_3 H 0.8215 0.6133 0.7157
C53_3 C 0.6572(4) 0.6207(2) 0.88190(19)
H24_3 H 0.6762 0.5995 0.8890
C54_3 C 0.8758(4) 0.6477(3) 0.66889(19)
H25_3 H 0.8880 0.6526 0.6910
C55_3 C 0.7478(4) 0.5765(2) 0.6512(2)
H26_3 H 0.7172 0.5610 0.6484
C56_3 C 0.6173(5) 0.6651(2) 0.8034(2)
H27_3 H 0.5977 0.6861 0.7965
Zr6_2 Zr 0.5000 0.76402(2) 0.93857(2)
Zr7_2 Zr 0.5000 0.23598(2) 0.93857(2)
O18_3 O 0.94597(17) 0.22684(11) 0.58992(8)
O20_3 O 0.90018(19) 0.19650(12) 0.44961(9)
O21_3 O 0.90018(19) 0.19650(12) 0.55039(9)
O24_3 O 0.92796(19) 0.26413(10) 0.52997(9)
H36_3 H 0.714491 0.379103 0.73144
H37_3 H 0.714491 0.620897 0.73144
O1_4 O 0.44597(17) 0.72684(11) 0.91008(8)
O2_4 O 0.05423(16) 0.70058(11) 0.58975(8)
O3_4 O 0.40018(19) 0.69650(12) 0.94961(9)
O5_4 O 0.1006(2) 0.66878(12) 0.55132(8)
O8_4 O 0.0675(3) 0.62763(15) 0.5000
O9_4 O 0.1614(3) 0.7810(2) 0.5000
O10_4 O 0.0564(3) 0.84359(16) 0.5000
O11_4 O 0.1602(3) 0.6919(2) 0.5000
N1_4 N 0.2543(4) 0.5000 0.70368(19)
H1_4 H 0.2332 0.5000 0.6859
C1_4 C 0.0887(3) 0.67708(18) 0.58126(14)
C2_4 C 0.4139(3) 0.70265(19) 0.92009(15)
C3_4 C 0.1174(3) 0.65779(19) 0.60888(14)
C4_4 C 0.1576(3) 0.63379(18) 0.60295(15)
H2_4 H 0.1684 0.6290 0.5805
C5_4 C 0.3893(3) 0.6773(2) 0.89470(15)
C6_4 C 0.1839(4) 0.61566(19) 0.62934(17)
C7_4 C 0.3751(5) 0.6584(2) 0.83732(16)
C8_4 C 0.2744(5) 0.53103(16) 0.72058(19)
C9_4 C 0.3074(4) 0.52071(17) 0.74724(18)
C10_4 C 0.3502(4) 0.6270(2) 0.8486(2)
C11_4 C 0.1653(5) 0.6242(2) 0.66285(17)
C12_4 C 0.3964(3) 0.68443(19) 0.86115(16)
H3_4 H 0.4147 0.7058 0.8539
C13_4 C 0.2639(5) 0.5673(2) 0.71551(19)
C14_4 C 0.3271(4) 0.54480(16) 0.77082(18)
H4_4 H 0.3468 0.5366 0.7898
C15_4 C 0.3626(4) 0.6447(2) 0.90534(18)
H5_4 H 0.3586 0.6396 0.9285
C16_4 C 0.3392(5) 0.6088(2) 0.7902(2)
C17_4 C 0.3174(5) 0.58005(18) 0.76566(19)
C18_4 C 0.2270(4) 0.5912(2) 0.62361(18)
H6_4 H 0.2382 0.5852 0.6016
C19_4 C 0.3322(5) 0.6011(2) 0.82476(19)
H7_4 H 0.3157 0.5790 0.8318
C20_4 C 0.2884(5) 0.59191(18) 0.73680(18)
C21_4 C 0.2316(5) 0.5846(2) 0.68568(19)
C22_4 C 0.1010(4) 0.6642(2) 0.64164(15)
H8_4 H 0.0722 0.6810 0.6453
C23_4 C 0.3612(5) 0.6407(2) 0.7789(2)
H9_4 H 0.3622 0.6464 0.7557
C24_4 C 0.1901(5) 0.6080(2) 0.6935(3)
H10_4 H 0.1785 0.6133 0.7157
C25_4 C 0.3428(4) 0.6207(2) 0.88190(19)
H11_4 H 0.3238 0.5995 0.8890
C26_4 C 0.1242(4) 0.6477(3) 0.66889(19)
H12_4 H 0.1120 0.6526 0.6910
C27_4 C 0.2522(4) 0.5765(2) 0.6512(2)
H13_4 H 0.2828 0.5610 0.6484
C28_4 C 0.3827(5) 0.6651(2) 0.8034(2)
H14_4 H 0.4023 0.6861 0.7965
O12_4 O 0.44597(17) 0.27316(11) 0.91008(8)
O14_4 O 0.40018(19) 0.30350(12) 0.94961(9)
C29_4 C 0.0887(3) 0.32292(18) 0.58126(14)
C30_4 C 0.4139(3) 0.29735(19) 0.92009(15)
C31_4 C 0.1174(3) 0.34221(19) 0.60888(14)
C32_4 C 0.1576(3) 0.36621(18) 0.60295(15)
H15_4 H 0.1684 0.3710 0.5805
C33_4 C 0.3893(3) 0.3227(2) 0.89470(15)
C34_4 C 0.1839(4) 0.38434(19) 0.62934(17)
C35_4 C 0.3751(5) 0.3416(2) 0.83732(16)
C36_4 C 0.2744(5) 0.46897(16) 0.72058(19)
C37_4 C 0.3074(4) 0.47929(17) 0.74724(18)
C38_4 C 0.3502(4) 0.3730(2) 0.8486(2)
C39_4 C 0.1653(5) 0.3758(2) 0.66285(17)
C40_4 C 0.3964(3) 0.31557(19) 0.86115(16)
H16_4 H 0.4147 0.2942 0.8539
C41_4 C 0.2639(5) 0.4327(2) 0.71551(19)
C42_4 C 0.3271(4) 0.45520(16) 0.77082(18)
H17_4 H 0.3468 0.4634 0.7898
C43_4 C 0.3626(4) 0.3553(2) 0.90534(18)
H18_4 H 0.3586 0.3604 0.9285
C44_4 C 0.3392(5) 0.3912(2) 0.7902(2)
C45_4 C 0.3174(5) 0.41995(18) 0.76566(19)
C46_4 C 0.2270(4) 0.4088(2) 0.62361(18)
H19_4 H 0.2382 0.4148 0.6016
C47_4 C 0.3322(5) 0.3989(2) 0.82476(19)
H20_4 H 0.3157 0.4210 0.8318
C48_4 C 0.2884(5) 0.40809(18) 0.73680(18)
C49_4 C 0.2316(5) 0.4154(2) 0.68568(19)
C50_4 C 0.1010(4) 0.3358(2) 0.64164(15)
H21_4 H 0.0722 0.3190 0.6453
C51_4 C 0.3612(5) 0.3593(2) 0.7789(2)
H22_4 H 0.3622 0.3536 0.7557
C52_4 C 0.1901(5) 0.3920(2) 0.6935(3)
H23_4 H 0.1785 0.3867 0.7157
C53_4 C 0.3428(4) 0.3793(2) 0.88190(19)
H24_4 H 0.3238 0.4005 0.8890
C54_4 C 0.1242(4) 0.3523(3) 0.66889(19)
H25_4 H 0.1120 0.3474 0.6910
C55_4 C 0.2522(4) 0.4235(2) 0.6512(2)
H26_4 H 0.2828 0.4390 0.6484
C56_4 C 0.3827(5) 0.3349(2) 0.8034(2)
H27_4 H 0.4023 0.3139 0.7965
O18_4 O 0.05403(17) 0.77316(11) 0.58992(8)
O20_4 O 0.09982(19) 0.80350(12) 0.44961(9)
O21_4 O 0.09982(19) 0.80350(12) 0.55039(9)
O24_4 O 0.07204(19) 0.73587(10) 0.52997(9)
H36_4 H 0.285509 0.620897 0.73144
H37_4 H 0.285509 0.379103 0.73144
O17_4 O 0.94597(17) 0.77316(11) 0.58992(8)
Zr9_2 Zr 0.57209(3) 0.18779(2) 0.0000
N1_5 N 0.7543(4) 0.0000 0.79632(19)
H1_5 H 0.7332 -0.0000 0.8141
O13_3 O 0.55423(16) 0.20058(11) 0.91025(8)
O15_3 O 0.6006(2) 0.16878(12) 0.94868(8)
C29_5 C 0.5887(3) 0.17708(18) 0.91874(14)
C30_5 C 0.9139(3) 0.20265(19) 0.57991(15)
C31_5 C 0.6174(3) 0.15779(19) 0.89112(14)
C32_5 C 0.6576(3) 0.13379(18) 0.89705(15)
H15_5 H 0.6684 0.1290 0.9195
C33_5 C 0.8893(3) 0.1773(2) 0.60530(15)
C34_5 C 0.6839(4) 0.11566(19) 0.87066(17)
C35_5 C 0.8751(5) 0.1584(2) 0.66268(16)
C36_5 C 0.7744(5) 0.03103(16) 0.77942(19)
C37_5 C 0.8074(4) 0.02071(17) 0.75276(18)
C38_5 C 0.8502(4) 0.1270(2) 0.6514(2)
C39_5 C 0.6653(5) 0.1242(2) 0.83715(17)
C40_5 C 0.8964(3) 0.18443(19) 0.63885(16)
H16_5 H 0.9147 0.2058 0.6461
C41_5 C 0.7639(5) 0.0673(2) 0.78449(19)
C42_5 C 0.8271(4) 0.04480(16) 0.72918(18)
H17_5 H 0.8468 0.0366 0.7102
C43_5 C 0.8626(4) 0.1447(2) 0.59466(18)
H18_5 H 0.8586 0.1396 0.5715
C44_5 C 0.8392(5) 0.1088(2) 0.7098(2)
C45_5 C 0.8174(5) 0.08005(18) 0.73434(19)
C46_5 C 0.7270(4) 0.0912(2) 0.87639(18)
H19_5 H 0.7382 0.0852 0.8984
C47_5 C 0.8322(5) 0.1011(2) 0.67524(19)
H20_5 H 0.8157 0.0790 0.6682
C48_5 C 0.7884(5) 0.09191(18) 0.76320(18)
C49_5 C 0.7316(5) 0.0846(2) 0.81432(19)
C50_5 C 0.6010(4) 0.1642(2) 0.85836(15)
H21_5 H 0.5722 0.1810 0.8547
C51_5 C 0.8612(5) 0.1407(2) 0.7211(2)
H22_5 H 0.8622 0.1464 0.7443
C52_5 C 0.6901(5) 0.1080(2) 0.8065(3)
H23_5 H 0.6785 0.1133 0.7843
C53_5 C 0.8428(4) 0.1207(2) 0.61810(19)
H24_5 H 0.8238 0.0995 0.6110
C54_5 C 0.6242(4) 0.1477(3) 0.83111(19)
H25_5 H 0.6120 0.1526 0.8090
C55_5 C 0.7522(4) 0.0765(2) 0.8488(2)
H26_5 H 0.7828 0.0610 0.8516
C56_5 C 0.8827(5) 0.1651(2) 0.6966(2)
H27_5 H 0.9023 0.1861 0.7035
Zr9_3 Zr 0.57209(3) 0.18779(2) 1.0000
H37_5 H 0.785509 0.120897 0.76856
Zr2_3 Zr 0.57209(3) 0.81221(2) 0.0000
O6_3 O 0.57204(19) 0.76413(10) 0.02997(9)
O8_5 O 0.5675(3) 0.87237(15) 0.0000
O9_5 O 0.6614(3) 0.7190(2) 0.0000
O10_5 O 0.5564(3) 0.65641(16) 0.0000
O11_5 O 0.6602(3) 0.8081(2) 0.0000
Zr8_2 Zr 0.42791(3) 0.81221(2) 0.0000
O22_5 O 0.5000 0.81329(17) 0.03076(12)
O23_3 O 0.6006(2) 0.83122(12) 0.05132(8)
O25_5 O 0.5000 0.71516(16) 0.03118(13)
H28 H 0.518537 0.651418 0.00720778
H30 H 0.532473 0.880188 0.00999277
H31 H 0.598005 0.882433 0.0133592
H32 H 0.674961 0.717631 0.0233724
H35 H 0.673787 0.809201 0.0233786
Zr2_4 Zr 0.57209(3) 0.81221(2) 1.0000
O2_5 O 0.55423(16) 0.79942(11) 0.91025(8)
O4_5 O 0.5000 0.81329(17) 0.96924(12)
O5_5 O 0.6006(2) 0.83122(12) 0.94868(8)
O7_5 O 0.5000 0.71516(16) 0.96882(13)
O8_6 O 0.5675(3) 0.87237(15) 1.0000
O9_6 O 0.6614(3) 0.7190(2) 1.0000
O10_6 O 0.5564(3) 0.65641(16) 1.0000
O11_6 O 0.6602(3) 0.8081(2) 1.0000
N1_6 N 0.7543(4) 1.0000 0.79632(19)
H1_6 H 0.7332 1.0000 0.8141
C1_5 C 0.5887(3) 0.82292(18) 0.91874(14)
C2_5 C 0.9139(3) 0.79735(19) 0.57991(15)
C3_5 C 0.6174(3) 0.84221(19) 0.89112(14)
C4_5 C 0.6576(3) 0.86621(18) 0.89705(15)
H2_5 H 0.6684 0.8710 0.9195
C5_5 C 0.8893(3) 0.8227(2) 0.60530(15)
C6_5 C 0.6839(4) 0.88434(19) 0.87066(17)
C7_5 C 0.8751(5) 0.8416(2) 0.66268(16)
C8_5 C 0.7744(5) 0.96897(16) 0.77942(19)
C9_5 C 0.8074(4) 0.97929(17) 0.75276(18)
C10_5 C 0.8502(4) 0.8730(2) 0.6514(2)
C11_5 C 0.6653(5) 0.8758(2) 0.83715(17)
C12_5 C 0.8964(3) 0.81557(19) 0.63885(16)
H3_5 H 0.9147 0.7942 0.6461
C13_5 C 0.7639(5) 0.9327(2) 0.78449(19)
C14_5 C 0.8271(4) 0.95520(16) 0.72918(18)
H4_5 H 0.8468 0.9634 0.7102
C15_5 C 0.8626(4) 0.8553(2) 0.59466(18)
H5_5 H 0.8586 0.8604 0.5715
C16_5 C 0.8392(5) 0.8912(2) 0.7098(2)
C17_5 C 0.8174(5) 0.91995(18) 0.73434(19)
C18_5 C 0.7270(4) 0.9088(2) 0.87639(18)
H6_5 H 0.7382 0.9148 0.8984
C19_5 C 0.8322(5) 0.8989(2) 0.67524(19)
H7_5 H 0.8157 0.9210 0.6682
C20_5 C 0.7884(5) 0.90809(18) 0.76320(18)
C21_5 C 0.7316(5) 0.9154(2) 0.81432(19)
C22_5 C 0.6010(4) 0.8358(2) 0.85836(15)
H8_5 H 0.5722 0.8190 0.8547
C23_5 C 0.8612(5) 0.8593(2) 0.7211(2)
H9_5 H 0.8622 0.8536 0.7443
C24_5 C 0.6901(5) 0.8920(2) 0.8065(3)
H10_5 H 0.6785 0.8867 0.7843
C25_5 C 0.8428(4) 0.8793(2) 0.61810(19)
H11_5 H 0.8238 0.9005 0.6110
C26_5 C 0.6242(4) 0.8523(3) 0.83111(19)
H12_5 H 0.6120 0.8474 0.8090
C27_5 C 0.7522(4) 0.9235(2) 0.8488(2)
H13_5 H 0.7828 0.9390 0.8516
C28_5 C 0.8827(5) 0.8349(2) 0.6966(2)
H14_5 H 0.9023 0.8139 0.7035
O16_3 O 0.42796(19) 0.76413(10) 0.97003(9)
Zr8_3 Zr 0.42791(3) 0.81221(2) 1.0000
O19_3 O 0.44577(16) 0.79942(11) 0.91025(8)
O24_5 O 0.57204(19) 0.76413(10) 0.97003(9)
H29 H 0.562095 0.646664 0.977087
H33 H 0.676414 0.698392 0.986859
H34 H 0.675799 0.828567 0.986932
H36_5 H 0.785509 0.879103 0.76856
Zr2_5 Zr 0.42791(3) 0.18779(2) 0.0000
O6_4 O 0.42796(19) 0.23587(10) 0.02997(9)
O8_7 O 0.4325(3) 0.12763(15) 0.0000
O9_7 O 0.3386(3) 0.2810(2) 0.0000
O10_7 O 0.4436(3) 0.34359(16) 0.0000
O11_7 O 0.3398(3) 0.1919(2) 0.0000
O22_6 O 0.5000 0.18671(17) 0.03076(12)
O23_4 O 0.3994(2) 0.16878(12) 0.05132(8)
O25_6 O 0.5000 0.28484(16) 0.03118(13)
H28_2 H 0.481463 0.348582 0.00720778
H30_2 H 0.467527 0.119812 0.00999277
H31_2 H 0.401995 0.117567 0.0133592
H32_2 H 0.325039 0.282369 0.0233724
H35_2 H 0.326213 0.190799 0.0233786
Zr2_6 Zr 0.42791(3) 0.18779(2) 1.0000
O2_6 O 0.44577(16) 0.20058(11) 0.91025(8)
O4_6 O 0.5000 0.18671(17) 0.96924(12)
O5_6 O 0.3994(2) 0.16878(12) 0.94868(8)
O7_6 O 0.5000 0.28484(16) 0.96882(13)
O8_8 O 0.4325(3) 0.12763(15) 1.0000
O9_8 O 0.3386(3) 0.2810(2) 1.0000
O10_8 O 0.4436(3) 0.34359(16) 1.0000
O11_8 O 0.3398(3) 0.1919(2) 1.0000
N1_7 N 0.2457(4) 0.0000 0.79632(19)
H1_7 H 0.2668 -0.0000 0.8141
C1_6 C 0.4113(3) 0.17708(18) 0.91874(14)
C2_6 C 0.0861(3) 0.20265(19) 0.57991(15)
C3_6 C 0.3826(3) 0.15779(19) 0.89112(14)
C4_6 C 0.3424(3) 0.13379(18) 0.89705(15)
H2_6 H 0.3316 0.1290 0.9195
C5_6 C 0.1107(3) 0.1773(2) 0.60530(15)
C6_6 C 0.3161(4) 0.11566(19) 0.87066(17)
C7_6 C 0.1249(5) 0.1584(2) 0.66268(16)
C8_6 C 0.2256(5) 0.03103(16) 0.77942(19)
C9_6 C 0.1926(4) 0.02071(17) 0.75276(18)
C10_6 C 0.1498(4) 0.1270(2) 0.6514(2)
C11_6 C 0.3347(5) 0.1242(2) 0.83715(17)
C12_6 C 0.1036(3) 0.18443(19) 0.63885(16)
H3_6 H 0.0853 0.2058 0.6461
C13_6 C 0.2361(5) 0.0673(2) 0.78449(19)
C14_6 C 0.1729(4) 0.04480(16) 0.72918(18)
H4_6 H 0.1532 0.0366 0.7102
C15_6 C 0.1374(4) 0.1447(2) 0.59466(18)
H5_6 H 0.1414 0.1396 0.5715
C16_6 C 0.1608(5) 0.1088(2) 0.7098(2)
C17_6 C 0.1826(5) 0.08005(18) 0.73434(19)
C18_6 C 0.2730(4) 0.0912(2) 0.87639(18)
H6_6 H 0.2618 0.0852 0.8984
C19_6 C 0.1678(5) 0.1011(2) 0.67524(19)
H7_6 H 0.1843 0.0790 0.6682
C20_6 C 0.2116(5) 0.09191(18) 0.76320(18)
C21_6 C 0.2684(5) 0.0846(2) 0.81432(19)
C22_6 C 0.3990(4) 0.1642(2) 0.85836(15)
H8_6 H 0.4278 0.1810 0.8547
C23_6 C 0.1388(5) 0.1407(2) 0.7211(2)
H9_6 H 0.1378 0.1464 0.7443
C24_6 C 0.3099(5) 0.1080(2) 0.8065(3)
H10_6 H 0.3215 0.1133 0.7843
C25_6 C 0.1572(4) 0.1207(2) 0.61810(19)
H11_6 H 0.1762 0.0995 0.6110
C26_6 C 0.3758(4) 0.1477(3) 0.83111(19)
H12_6 H 0.3880 0.1526 0.8090
C27_6 C 0.2478(4) 0.0765(2) 0.8488(2)
H13_6 H 0.2172 0.0610 0.8516
C28_6 C 0.1173(5) 0.1651(2) 0.6966(2)
H14_6 H 0.0977 0.1861 0.7035
O16_4 O 0.57204(19) 0.23587(10) 0.97003(9)
O24_6 O 0.42796(19) 0.23587(10) 0.97003(9)
H29_2 H 0.437905 0.353336 0.977087
H33_2 H 0.323586 0.301608 0.986859
H34_2 H 0.324201 0.171433 0.986932
H36_6 H 0.214491 0.120897 0.76856
N1_8 N 0.2457(4) 1.0000 0.79632(19)
H1_8 H 0.2668 1.0000 0.8141
O15_4 O 0.3994(2) 0.83122(12) 0.94868(8)
C29_6 C 0.4113(3) 0.82292(18) 0.91874(14)
C30_6 C 0.0861(3) 0.79735(19) 0.57991(15)
C31_6 C 0.3826(3) 0.84221(19) 0.89112(14)
C32_6 C 0.3424(3) 0.86621(18) 0.89705(15)
H15_6 H 0.3316 0.8710 0.9195
C33_6 C 0.1107(3) 0.8227(2) 0.60530(15)
C34_6 C 0.3161(4) 0.88434(19) 0.87066(17)
C35_6 C 0.1249(5) 0.8416(2) 0.66268(16)
C36_6 C 0.2256(5) 0.96897(16) 0.77942(19)
C37_6 C 0.1926(4) 0.97929(17) 0.75276(18)
C38_6 C 0.1498(4) 0.8730(2) 0.6514(2)
C39_6 C 0.3347(5) 0.8758(2) 0.83715(17)
C40_6 C 0.1036(3) 0.81557(19) 0.63885(16)
H16_6 H 0.0853 0.7942 0.6461
C41_6 C 0.2361(5) 0.9327(2) 0.78449(19)
C42_6 C 0.1729(4) 0.95520(16) 0.72918(18)
H17_6 H 0.1532 0.9634 0.7102
C43_6 C 0.1374(4) 0.8553(2) 0.59466(18)
H18_6 H 0.1414 0.8604 0.5715
C44_6 C 0.1608(5) 0.8912(2) 0.7098(2)
C45_6 C 0.1826(5) 0.91995(18) 0.73434(19)
C46_6 C 0.2730(4) 0.9088(2) 0.87639(18)
H19_6 H 0.2618 0.9148 0.8984
C47_6 C 0.1678(5) 0.8989(2) 0.67524(19)
H20_6 H 0.1843 0.9210 0.6682
C48_6 C 0.2116(5) 0.90809(18) 0.76320(18)
C49_6 C 0.2684(5) 0.9154(2) 0.81432(19)
C50_6 C 0.3990(4) 0.8358(2) 0.85836(15)
H21_6 H 0.4278 0.8190 0.8547
C51_6 C 0.1388(5) 0.8593(2) 0.7211(2)
H22_6 H 0.1378 0.8536 0.7443
C52_6 C 0.3099(5) 0.8920(2) 0.8065(3)
H23_6 H 0.3215 0.8867 0.7843
C53_6 C 0.1572(4) 0.8793(2) 0.61810(19)
H24_6 H 0.1762 0.9005 0.6110
C54_6 C 0.3758(4) 0.8523(3) 0.83111(19)
H25_6 H 0.3880 0.8474 0.8090
C55_6 C 0.2478(4) 0.9235(2) 0.8488(2)
H26_6 H 0.2172 0.9390 0.8516
C56_6 C 0.1173(5) 0.8349(2) 0.6966(2)
H27_6 H 0.0977 0.8139 0.7035
H37_6 H 0.214491 0.879103 0.76856
N1_9 N 0.2457(4) 0.0000 0.20368(19)
H1_9 H 0.2668 0.0000 0.1859
O13_4 O 0.44577(16) 0.20058(11) 0.08975(8)
C29_7 C 0.4113(3) 0.17708(18) 0.08126(14)
C30_7 C 0.0861(3) 0.20265(19) 0.42009(15)
C31_7 C 0.3826(3) 0.15779(19) 0.10888(14)
C32_7 C 0.3424(3) 0.13379(18) 0.10295(15)
H15_7 H 0.3316 0.1290 0.0805
C33_7 C 0.1107(3) 0.1773(2) 0.39470(15)
C34_7 C 0.3161(4) 0.11566(19) 0.12934(17)
C35_7 C 0.1249(5) 0.1584(2) 0.33732(16)
C36_7 C 0.2256(5) 0.03103(16) 0.22058(19)
C37_7 C 0.1926(4) 0.02071(17) 0.24724(18)
C38_7 C 0.1498(4) 0.1270(2) 0.3486(2)
C39_7 C 0.3347(5) 0.1242(2) 0.16285(17)
C40_7 C 0.1036(3) 0.18443(19) 0.36115(16)
H16_7 H 0.0853 0.2058 0.3539
C41_7 C 0.2361(5) 0.0673(2) 0.21551(19)
C42_7 C 0.1729(4) 0.04480(16) 0.27082(18)
H17_7 H 0.1532 0.0366 0.2898
C43_7 C 0.1374(4) 0.1447(2) 0.40534(18)
H18_7 H 0.1414 0.1396 0.4285
C44_7 C 0.1608(5) 0.1088(2) 0.2902(2)
C45_7 C 0.1826(5) 0.08005(18) 0.26566(19)
C46_7 C 0.2730(4) 0.0912(2) 0.12361(18)
H19_7 H 0.2618 0.0852 0.1016
C47_7 C 0.1678(5) 0.1011(2) 0.32476(19)
H20_7 H 0.1843 0.0790 0.3318
C48_7 C 0.2116(5) 0.09191(18) 0.23680(18)
C49_7 C 0.2684(5) 0.0846(2) 0.18568(19)
C50_7 C 0.3990(4) 0.1642(2) 0.14164(15)
H21_7 H 0.4278 0.1810 0.1453
C51_7 C 0.1388(5) 0.1407(2) 0.2789(2)
H22_7 H 0.1378 0.1464 0.2557
C52_7 C 0.3099(5) 0.1080(2) 0.1935(3)
H23_7 H 0.3215 0.1133 0.2157
C53_7 C 0.1572(4) 0.1207(2) 0.38190(19)
H24_7 H 0.1762 0.0995 0.3890
C54_7 C 0.3758(4) 0.1477(3) 0.16889(19)
H25_7 H 0.3880 0.1526 0.1910
C55_7 C 0.2478(4) 0.0765(2) 0.1512(2)
H26_7 H 0.2172 0.0610 0.1484
C56_7 C 0.1173(5) 0.1651(2) 0.3034(2)
H27_7 H 0.0977 0.1861 0.2965
H37_7 H 0.214491 0.120897 0.23144
O2_7 O 0.44577(16) 0.79942(11) 0.08975(8)
O5_7 O 0.3994(2) 0.83122(12) 0.05132(8)
O8_9 O 0.4325(3) 0.87237(15) 0.0000
O9_9 O 0.3386(3) 0.7190(2) 0.0000
O10_9 O 0.4436(3) 0.65641(16) 0.0000
O11_9 O 0.3398(3) 0.8081(2) 0.0000
N1_10 N 0.2457(4) 1.0000 0.20368(19)
H1_10 H 0.2668 1.0000 0.1859
C1_7 C 0.4113(3) 0.82292(18) 0.08126(14)
C2_7 C 0.0861(3) 0.79735(19) 0.42009(15)
C3_7 C 0.3826(3) 0.84221(19) 0.10888(14)
C4_7 C 0.3424(3) 0.86621(18) 0.10295(15)
H2_7 H 0.3316 0.8710 0.0805
C5_7 C 0.1107(3) 0.8227(2) 0.39470(15)
C6_7 C 0.3161(4) 0.88434(19) 0.12934(17)
C7_7 C 0.1249(5) 0.8416(2) 0.33732(16)
C8_7 C 0.2256(5) 0.96897(16) 0.22058(19)
C9_7 C 0.1926(4) 0.97929(17) 0.24724(18)
C10_7 C 0.1498(4) 0.8730(2) 0.3486(2)
C11_7 C 0.3347(5) 0.8758(2) 0.16285(17)
C12_7 C 0.1036(3) 0.81557(19) 0.36115(16)
H3_7 H 0.0853 0.7942 0.3539
C13_7 C 0.2361(5) 0.9327(2) 0.21551(19)
C14_7 C 0.1729(4) 0.95520(16) 0.27082(18)
H4_7 H 0.1532 0.9634 0.2898
C15_7 C 0.1374(4) 0.8553(2) 0.40534(18)
H5_7 H 0.1414 0.8604 0.4285
C16_7 C 0.1608(5) 0.8912(2) 0.2902(2)
C17_7 C 0.1826(5) 0.91995(18) 0.26566(19)
C18_7 C 0.2730(4) 0.9088(2) 0.12361(18)
H6_7 H 0.2618 0.9148 0.1016
C19_7 C 0.1678(5) 0.8989(2) 0.32476(19)
H7_7 H 0.1843 0.9210 0.3318
C20_7 C 0.2116(5) 0.90809(18) 0.23680(18)
C21_7 C 0.2684(5) 0.9154(2) 0.18568(19)
C22_7 C 0.3990(4) 0.8358(2) 0.14164(15)
H8_7 H 0.4278 0.8190 0.1453
C23_7 C 0.1388(5) 0.8593(2) 0.2789(2)
H9_7 H 0.1378 0.8536 0.2557
C24_7 C 0.3099(5) 0.8920(2) 0.1935(3)
H10_7 H 0.3215 0.8867 0.2157
C25_7 C 0.1572(4) 0.8793(2) 0.38190(19)
H11_7 H 0.1762 0.9005 0.3890
C26_7 C 0.3758(4) 0.8523(3) 0.16889(19)
H12_7 H 0.3880 0.8474 0.1910
C27_7 C 0.2478(4) 0.9235(2) 0.1512(2)
H13_7 H 0.2172 0.9390 0.1484
C28_7 C 0.1173(5) 0.8349(2) 0.3034(2)
H14_7 H 0.0977 0.8139 0.2965
O19_4 O 0.55423(16) 0.79942(11) 0.08975(8)
O24_7 O 0.42796(19) 0.76413(10) 0.02997(9)
H29_3 H 0.437905 0.646664 0.0229133
H33_3 H 0.323586 0.698392 0.0131411
H34_3 H 0.324201 0.828567 0.0130681
H36_7 H 0.214491 0.879103 0.23144
O8_10 O 0.4325(3) 0.87237(15) 1.0000
O9_10 O 0.3386(3) 0.7190(2) 1.0000
O10_10 O 0.4436(3) 0.65641(16) 1.0000
O11_10 O 0.3398(3) 0.8081(2) 1.0000
H28_3 H 0.481463 0.651418 0.992792
H30_3 H 0.467527 0.880188 0.990007
H31_3 H 0.401995 0.882433 0.986641
H32_3 H 0.325039 0.717631 0.976628
H35_3 H 0.326213 0.809201 0.976621
O2_8 O 0.55423(16) 0.20058(11) 0.08975(8)
O5_8 O 0.6006(2) 0.16878(12) 0.05132(8)
O8_11 O 0.5675(3) 0.12763(15) 0.0000
O9_11 O 0.6614(3) 0.2810(2) 0.0000
O10_11 O 0.5564(3) 0.34359(16) 0.0000
O11_11 O 0.6602(3) 0.1919(2) 0.0000
N1_11 N 0.7543(4) 0.0000 0.20368(19)
H1_11 H 0.7332 0.0000 0.1859
C1_8 C 0.5887(3) 0.17708(18) 0.08126(14)
C2_8 C 0.9139(3) 0.20265(19) 0.42009(15)
C3_8 C 0.6174(3) 0.15779(19) 0.10888(14)
C4_8 C 0.6576(3) 0.13379(18) 0.10295(15)
H2_8 H 0.6684 0.1290 0.0805
C5_8 C 0.8893(3) 0.1773(2) 0.39470(15)
C6_8 C 0.6839(4) 0.11566(19) 0.12934(17)
C7_8 C 0.8751(5) 0.1584(2) 0.33732(16)
C8_8 C 0.7744(5) 0.03103(16) 0.22058(19)
C9_8 C 0.8074(4) 0.02071(17) 0.24724(18)
C10_8 C 0.8502(4) 0.1270(2) 0.3486(2)
C11_8 C 0.6653(5) 0.1242(2) 0.16285(17)
C12_8 C 0.8964(3) 0.18443(19) 0.36115(16)
H3_8 H 0.9147 0.2058 0.3539
C13_8 C 0.7639(5) 0.0673(2) 0.21551(19)
C14_8 C 0.8271(4) 0.04480(16) 0.27082(18)
H4_8 H 0.8468 0.0366 0.2898
C15_8 C 0.8626(4) 0.1447(2) 0.40534(18)
H5_8 H 0.8586 0.1396 0.4285
C16_8 C 0.8392(5) 0.1088(2) 0.2902(2)
C17_8 C 0.8174(5) 0.08005(18) 0.26566(19)
C18_8 C 0.7270(4) 0.0912(2) 0.12361(18)
H6_8 H 0.7382 0.0852 0.1016
C19_8 C 0.8322(5) 0.1011(2) 0.32476(19)
H7_8 H 0.8157 0.0790 0.3318
C20_8 C 0.7884(5) 0.09191(18) 0.23680(18)
C21_8 C 0.7316(5) 0.0846(2) 0.18568(19)
C22_8 C 0.6010(4) 0.1642(2) 0.14164(15)
H8_8 H 0.5722 0.1810 0.1453
C23_8 C 0.8612(5) 0.1407(2) 0.2789(2)
H9_8 H 0.8622 0.1464 0.2557
C24_8 C 0.6901(5) 0.1080(2) 0.1935(3)
H10_8 H 0.6785 0.1133 0.2157
C25_8 C 0.8428(4) 0.1207(2) 0.38190(19)
H11_8 H 0.8238 0.0995 0.3890
C26_8 C 0.6242(4) 0.1477(3) 0.16889(19)
H12_8 H 0.6120 0.1526 0.1910
C27_8 C 0.7522(4) 0.0765(2) 0.1512(2)
H13_8 H 0.7828 0.0610 0.1484
C28_8 C 0.8827(5) 0.1651(2) 0.3034(2)
H14_8 H 0.9023 0.1861 0.2965
O24_8 O 0.57204(19) 0.23587(10) 0.02997(9)
H29_4 H 0.562095 0.353336 0.0229133
H33_4 H 0.676414 0.301608 0.0131411
H34_4 H 0.675799 0.171433 0.0130681
H36_8 H 0.785509 0.120897 0.23144
O8_12 O 0.5675(3) 0.12763(15) 1.0000
O9_12 O 0.6614(3) 0.2810(2) 1.0000
O10_12 O 0.5564(3) 0.34359(16) 1.0000
O11_12 O 0.6602(3) 0.1919(2) 1.0000
H28_4 H 0.518537 0.348582 0.992792
H30_4 H 0.532473 0.119812 0.990007
H31_4 H 0.598005 0.117567 0.986641
H32_4 H 0.674961 0.282369 0.976628
H35_4 H 0.673787 0.190799 0.976621
N1_12 N 0.7543(4) 1.0000 0.20368(19)
H1_12 H 0.7332 1.0000 0.1859
C29_8 C 0.5887(3) 0.82292(18) 0.08126(14)
C30_8 C 0.9139(3) 0.79735(19) 0.42009(15)
C31_8 C 0.6174(3) 0.84221(19) 0.10888(14)
C32_8 C 0.6576(3) 0.86621(18) 0.10295(15)
H15_8 H 0.6684 0.8710 0.0805
C33_8 C 0.8893(3) 0.8227(2) 0.39470(15)
C34_8 C 0.6839(4) 0.88434(19) 0.12934(17)
C35_8 C 0.8751(5) 0.8416(2) 0.33732(16)
C36_8 C 0.7744(5) 0.96897(16) 0.22058(19)
C37_8 C 0.8074(4) 0.97929(17) 0.24724(18)
C38_8 C 0.8502(4) 0.8730(2) 0.3486(2)
C39_8 C 0.6653(5) 0.8758(2) 0.16285(17)
C40_8 C 0.8964(3) 0.81557(19) 0.36115(16)
H16_8 H 0.9147 0.7942 0.3539
C41_8 C 0.7639(5) 0.9327(2) 0.21551(19)
C42_8 C 0.8271(4) 0.95520(16) 0.27082(18)
H17_8 H 0.8468 0.9634 0.2898
C43_8 C 0.8626(4) 0.8553(2) 0.40534(18)
H18_8 H 0.8586 0.8604 0.4285
C44_8 C 0.8392(5) 0.8912(2) 0.2902(2)
C45_8 C 0.8174(5) 0.91995(18) 0.26566(19)
C46_8 C 0.7270(4) 0.9088(2) 0.12361(18)
H19_8 H 0.7382 0.9148 0.1016
C47_8 C 0.8322(5) 0.8989(2) 0.32476(19)
H20_8 H 0.8157 0.9210 0.3318
C48_8 C 0.7884(5) 0.90809(18) 0.23680(18)
C49_8 C 0.7316(5) 0.9154(2) 0.18568(19)
C50_8 C 0.6010(4) 0.8358(2) 0.14164(15)
H21_8 H 0.5722 0.8190 0.1453
C51_8 C 0.8612(5) 0.8593(2) 0.2789(2)
H22_8 H 0.8622 0.8536 0.2557
C52_8 C 0.6901(5) 0.8920(2) 0.1935(3)
H23_8 H 0.6785 0.8867 0.2157
C53_8 C 0.8428(4) 0.8793(2) 0.38190(19)
H24_8 H 0.8238 0.9005 0.3890
C54_8 C 0.6242(4) 0.8523(3) 0.16889(19)
H25_8 H 0.6120 0.8474 0.1910
C55_8 C 0.7522(4) 0.9235(2) 0.1512(2)
H26_8 H 0.7828 0.9390 0.1484
C56_8 C 0.8827(5) 0.8349(2) 0.3034(2)
H27_8 H 0.9023 0.8139 0.2965
H37_8 H 0.785509 0.879103 0.23144
H29_5 H 0.437905 0.353336 0.0229133
H33_5 H 0.323586 0.301608 0.0131411
H34_5 H 0.324201 0.171433 0.0130681
H28_5 H 0.481463 0.348582 0.992792
H30_5 H 0.467527 0.119812 0.990007
H31_5 H 0.401995 0.117567 0.986641
H32_5 H 0.325039 0.282369 0.976628
H35_5 H 0.326213 0.190799 0.976621
H29_6 H 0.562095 0.646664 0.0229133
H33_6 H 0.676414 0.698392 0.0131411
H34_6 H 0.675799 0.828567 0.0130681
H28_6 H 0.518537 0.651418 0.992792
H30_6 H 0.532473 0.880188 0.990007
H31_6 H 0.598005 0.882433 0.986641
H32_6 H 0.674961 0.717631 0.976628
H35_6 H 0.673787 0.809201 0.976621
H28_7 H 0.518537 0.348582 0.00720778
H30_7 H 0.532473 0.119812 0.00999277
H31_7 H 0.598005 0.117567 0.0133592
H32_7 H 0.674961 0.282369 0.0233724
H35_7 H 0.673787 0.190799 0.0233786
H29_7 H 0.562095 0.353336 0.977087
H33_7 H 0.676414 0.301608 0.986859
H34_7 H 0.675799 0.171433 0.986932
H28_8 H 0.481463 0.651418 0.00720778
H30_8 H 0.467527 0.880188 0.00999277
H31_8 H 0.401995 0.882433 0.0133592
H32_8 H 0.325039 0.717631 0.0233724
H35_8 H 0.326213 0.809201 0.0233786
H29_8 H 0.437905 0.646664 0.977087
H33_8 H 0.323586 0.698392 0.986859
H34_8 H 0.324201 0.828567 0.986932
loop_
_geom_bond_atom_site_label_1
_geom_bond_atom_site_label_2
_geom_bond_site_symmetry_1
_geom_bond_site_symmetry_2
Zr1 O2 1_555 1_555
Zr2 O4 1_555 1_555
Zr3 O6 1_555 1_555
O1 C2 1_555 1_555
O2 C1 1_555 1_555
O3 C2 1_555 1_555
O4 Zr1 1_555 1_555
O5 Zr2 1_555 1_555
O6 Zr2 1_555 1_555
O7 Zr1 1_555 1_555
O8 Zr2 1_555 1_555
O9 Zr3 1_555 1_555
O10 Zr3 1_555 1_555
O11 Zr2 1_555 1_555
N1 H1 1_555 1_555
C1 O5 1_555 1_555
C2 C5 1_555 1_555
C3 C1 1_555 1_555
C4 C3 1_555 1_555
H2 C4 1_555 1_555
C5 C12 1_555 1_555
C6 C4 1_555 1_555
C7 C10 1_555 1_555
C8 N1 1_555 1_555
C9 C8 1_555 1_555
C10 C19 1_555 1_555
C11 C6 1_555 1_555
C12 C7 1_555 1_555
H3 C12 1_555 1_555
C13 C8 1_555 1_555
C14 C9 1_555 1_555
H4 C14 1_555 1_555
C15 C5 1_555 1_555
H5 C15 1_555 1_555
C16 C17 1_555 1_555
C17 C14 1_555 1_555
C18 C6 1_555 1_555
H6 C18 1_555 1_555
C19 C16 1_555 1_555
H7 C19 1_555 1_555
C20 C13 1_555 1_555
C21 C13 1_555 1_555
C22 C3 1_555 1_555
H8 C22 1_555 1_555
C23 C16 1_555 1_555
H9 C23 1_555 1_555
C24 C11 1_555 1_555
H10 C24 1_555 1_555
C25 C10 1_555 1_555
H11 C25 1_555 1_555
C26 C11 1_555 1_555
H12 C26 1_555 1_555
C27 C18 1_555 1_555
H13 C27 1_555 1_555
C28 C7 1_555 1_555
H14 C28 1_555 1_555
O12 C30 1_555 1_555
O13 C29 1_555 1_555
O14 C30 1_555 1_555
O15 C29 1_555 1_555
C29 C31 1_555 1_555
C30 C33 1_555 1_555
C31 C32 1_555 1_555
C32 H15 1_555 1_555
C33 C40 1_555 1_555
C34 C32 1_555 1_555
C35 C38 1_555 1_555
C36 N1 1_555 1_555
C37 C9 1_555 1_555
C38 C47 1_555 1_555
C39 C34 1_555 1_555
C40 C35 1_555 1_555
H16 C40 1_555 1_555
C41 C36 1_555 1_555
C42 C37 1_555 1_555
H17 C42 1_555 1_555
C43 C33 1_555 1_555
H18 C43 1_555 1_555
C44 C45 1_555 1_555
C45 C42 1_555 1_555
C46 C34 1_555 1_555
H19 C46 1_555 1_555
C47 C44 1_555 1_555
H20 C47 1_555 1_555
C48 C41 1_555 1_555
C49 C41 1_555 1_555
C50 C31 1_555 1_555
H21 C50 1_555 1_555
C51 C44 1_555 1_555
H22 C51 1_555 1_555
C52 C39 1_555 1_555
H23 C52 1_555 1_555
C53 C38 1_555 1_555
H24 C53 1_555 1_555
C54 C39 1_555 1_555
H25 C54 1_555 1_555
C55 C46 1_555 1_555
H26 C55 1_555 1_555
C56 C35 1_555 1_555
H27 C56 1_555 1_555
Zr4 O13 1_555 1_555
Zr5 O6 1_555 1_555
Zr6 O12 1_555 1_555
Zr7 O1 1_555 1_555
Zr9 O15 1_555 1_555
Zr11 O3 1_555 1_555
Zr12 O14 1_555 1_555
O18 Zr1 1_555 1_555
O20 Zr3 1_555 1_555
O21 Zr3 1_555 1_555
O22 Zr2 1_555 1_555
O23 Zr2 1_555 1_555
O24 Zr1 1_555 1_555
O25 Zr3 1_555 1_555
Zr2 O24 1_555 1_555
Zr3 O7 1_555 1_555
Zr3 O24 1_555 1_555
C15 C25 1_555 1_555
C17 C20 1_555 1_555
C21 C24 1_555 1_555
C21 C27 1_555 1_555
C22 C26 1_555 1_555
C23 C28 1_555 1_555
C36 C37 1_555 1_555
C43 C53 1_555 1_555
C45 C48 1_555 1_555
C49 C52 1_555 1_555
C49 C55 1_555 1_555
C50 C54 1_555 1_555
C51 C56 1_555 1_555
Zr5 O22 1_555 1_555
Zr5 O25 1_555 1_555
C20 H36 1_555 1_555
C48 H37 1_555 1_555
O4_2 Zr1_2 1_555 1_555
O7_2 Zr1_2 1_555 1_555
O16 Zr1_2 1_555 1_555
Zr8 O4_2 1_555 1_555
Zr10 O7_2 1_555 1_555
O17 Zr1_2 1_555 1_555
O19 Zr1_2 1_555 1_555
O16 Zr8 1_555 1_555
O16 Zr10 1_555 1_555
Zr5_2 O22_2 1_555 1_555
Zr5_2 O25_2 1_555 1_555
Zr8 O22_2 1_555 1_555
Zr10 O25_2 1_555 1_555
O4_3 Zr4 1_555 1_555
O7_3 Zr4 1_555 1_555
O16_2 Zr4 1_555 1_555
Zr9 O4_3 1_555 1_555
Zr10_2 O7_3 1_555 1_555
O17_2 Zr4 1_555 1_555
O16_2 Zr9 1_555 1_555
O16_2 Zr10_2 1_555 1_555
Zr5_3 O22_3 1_555 1_555
Zr5_3 O25_3 1_555 1_555
Zr9 O22_3 1_555 1_555
Zr10_2 O25_3 1_555 1_555
Zr4_2 O2_2 1_555 1_555
Zr2_2 O4_4 1_555 1_555
Zr3_2 O6_2 1_555 1_555
O1_2 C2_2 1_555 1_555
O2_2 C1_2 1_555 1_555
O3_2 C2_2 1_555 1_555
O4_4 Zr4_2 1_555 1_555
O5_2 Zr2_2 1_555 1_555
O6_2 Zr2_2 1_555 1_555
O7_4 Zr4_2 1_555 1_555
O8_2 Zr2_2 1_555 1_555
O9_2 Zr3_2 1_555 1_555
O10_2 Zr3_2 1_555 1_555
O11_2 Zr2_2 1_555 1_555
N1_2 H1_2 1_555 1_555
C1_2 O5_2 1_555 1_555
C2_2 C5_2 1_555 1_555
C3_2 C1_2 1_555 1_555
C4_2 C3_2 1_555 1_555
H2_2 C4_2 1_555 1_555
C5_2 C12_2 1_555 1_555
C6_2 C4_2 1_555 1_555
C7_2 C10_2 1_555 1_555
C8_2 N1_2 1_555 1_555
C9_2 C8_2 1_555 1_555
C10_2 C19_2 1_555 1_555
C11_2 C6_2 1_555 1_555
C12_2 C7_2 1_555 1_555
H3_2 C12_2 1_555 1_555
C13_2 C8_2 1_555 1_555
C14_2 C9_2 1_555 1_555
H4_2 C14_2 1_555 1_555
C15_2 C5_2 1_555 1_555
H5_2 C15_2 1_555 1_555
C16_2 C17_2 1_555 1_555
C17_2 C14_2 1_555 1_555
C18_2 C6_2 1_555 1_555
H6_2 C18_2 1_555 1_555
C19_2 C16_2 1_555 1_555
H7_2 C19_2 1_555 1_555
C20_2 C13_2 1_555 1_555
C21_2 C13_2 1_555 1_555
C22_2 C3_2 1_555 1_555
H8_2 C22_2 1_555 1_555
C23_2 C16_2 1_555 1_555
H9_2 C23_2 1_555 1_555
C24_2 C11_2 1_555 1_555
H10_2 C24_2 1_555 1_555
C25_2 C10_2 1_555 1_555
H11_2 C25_2 1_555 1_555
C26_2 C11_2 1_555 1_555
H12_2 C26_2 1_555 1_555
C27_2 C18_2 1_555 1_555
H13_2 C27_2 1_555 1_555
C28_2 C7_2 1_555 1_555
H14_2 C28_2 1_555 1_555
O12_2 C30_2 1_555 1_555
O19 C29_2 1_555 1_555
O14_2 C30_2 1_555 1_555
O15_2 C29_2 1_555 1_555
C29_2 C31_2 1_555 1_555
C30_2 C33_2 1_555 1_555
C31_2 C32_2 1_555 1_555
C32_2 H15_2 1_555 1_555
C33_2 C40_2 1_555 1_555
C34_2 C32_2 1_555 1_555
C35_2 C38_2 1_555 1_555
C36_2 N1_2 1_555 1_555
C37_2 C9_2 1_555 1_555
C38_2 C47_2 1_555 1_555
C39_2 C34_2 1_555 1_555
C40_2 C35_2 1_555 1_555
H16_2 C40_2 1_555 1_555
C41_2 C36_2 1_555 1_555
C42_2 C37_2 1_555 1_555
H17_2 C42_2 1_555 1_555
C43_2 C33_2 1_555 1_555
H18_2 C43_2 1_555 1_555
C44_2 C45_2 1_555 1_555
C45_2 C42_2 1_555 1_555
C46_2 C34_2 1_555 1_555
H19_2 C46_2 1_555 1_555
C47_2 C44_2 1_555 1_555
H20_2 C47_2 1_555 1_555
C48_2 C41_2 1_555 1_555
C49_2 C41_2 1_555 1_555
C50_2 C31_2 1_555 1_555
H21_2 C50_2 1_555 1_555
C51_2 C44_2 1_555 1_555
H22_2 C51_2 1_555 1_555
C52_2 C39_2 1_555 1_555
H23_2 C52_2 1_555 1_555
C53_2 C38_2 1_555 1_555
H24_2 C53_2 1_555 1_555
C54_2 C39_2 1_555 1_555
H25_2 C54_2 1_555 1_555
C55_2 C46_2 1_555 1_555
H26_2 C55_2 1_555 1_555
C56_2 C35_2 1_555 1_555
H27_2 C56_2 1_555 1_555
Zr5_4 O6_2 1_555 1_555
Zr7 O12_2 1_555 1_555
Zr6 O1_2 1_555 1_555
Zr8 O15_2 1_555 1_555
Zr11_3 O3_2 1_555 1_555
Zr12_3 O14_2 1_555 1_555
O18_2 Zr4_2 1_555 1_555
O20_2 Zr3_2 1_555 1_555
O21_2 Zr3_2 1_555 1_555
O22_4 Zr2_2 1_555 1_555
O23_2 Zr2_2 1_555 1_555
O24_2 Zr4_2 1_555 1_555
O25_4 Zr3_2 1_555 1_555
Zr2_2 O24_2 1_555 1_555
Zr3_2 O7_4 1_555 1_555
Zr3_2 O24_2 1_555 1_555
C15_2 C25_2 1_555 1_555
C17_2 C20_2 1_555 1_555
C21_2 C24_2 1_555 1_555
C21_2 C27_2 1_555 1_555
C22_2 C26_2 1_555 1_555
C23_2 C28_2 1_555 1_555
C36_2 C37_2 1_555 1_555
C43_2 C53_2 1_555 1_555
C45_2 C48_2 1_555 1_555
C49_2 C52_2 1_555 1_555
C49_2 C55_2 1_555 1_555
C50_2 C54_2 1_555 1_555
C51_2 C56_2 1_555 1_555
Zr5_4 O22_4 1_555 1_555
Zr5_4 O25_4 1_555 1_555
C20_2 H36_2 1_555 1_555
C48_2 H37_2 1_555 1_555
O17_3 Zr5 1_555 1_555
O19_2 Zr5 1_555 1_555
Zr5_2 O2_3 1_555 1_555
O1_3 C2_3 1_555 1_555
O2_3 C1_3 1_555 1_555
O3_3 C2_3 1_555 1_555
O5_3 Zr8 1_555 1_555
O8_3 Zr8 1_555 1_555
O9_3 Zr10 1_555 1_555
O10_3 Zr10 1_555 1_555
O11_3 Zr8 1_555 1_555
N1_3 H1_3 1_555 1_555
C1_3 O5_3 1_555 1_555
C2_3 C5_3 1_555 1_555
C3_3 C1_3 1_555 1_555
C4_3 C3_3 1_555 1_555
H2_3 C4_3 1_555 1_555
C5_3 C12_3 1_555 1_555
C6_3 C4_3 1_555 1_555
C7_3 C10_3 1_555 1_555
C8_3 N1_3 1_555 1_555
C9_3 C8_3 1_555 1_555
C10_3 C19_3 1_555 1_555
C11_3 C6_3 1_555 1_555
C12_3 C7_3 1_555 1_555
H3_3 C12_3 1_555 1_555
C13_3 C8_3 1_555 1_555
C14_3 C9_3 1_555 1_555
H4_3 C14_3 1_555 1_555
C15_3 C5_3 1_555 1_555
H5_3 C15_3 1_555 1_555
C16_3 C17_3 1_555 1_555
C17_3 C14_3 1_555 1_555
C18_3 C6_3 1_555 1_555
H6_3 C18_3 1_555 1_555
C19_3 C16_3 1_555 1_555
H7_3 C19_3 1_555 1_555
C20_3 C13_3 1_555 1_555
C21_3 C13_3 1_555 1_555
C22_3 C3_3 1_555 1_555
H8_3 C22_3 1_555 1_555
C23_3 C16_3 1_555 1_555
H9_3 C23_3 1_555 1_555
C24_3 C11_3 1_555 1_555
H10_3 C24_3 1_555 1_555
C25_3 C10_3 1_555 1_555
H11_3 C25_3 1_555 1_555
C26_3 C11_3 1_555 1_555
H12_3 C26_3 1_555 1_555
C27_3 C18_3 1_555 1_555
H13_3 C27_3 1_555 1_555
C28_3 C7_3 1_555 1_555
H14_3 C28_3 1_555 1_555
O12_3 C30_3 1_555 1_555
O13_2 C29_3 1_555 1_555
O14_3 C30_3 1_555 1_555
O23_2 C29_3 1_555 1_555
C29_3 C31_3 1_555 1_555
C30_3 C33_3 1_555 1_555
C31_3 C32_3 1_555 1_555
C32_3 H15_3 1_555 1_555
C33_3 C40_3 1_555 1_555
C34_3 C32_3 1_555 1_555
C35_3 C38_3 1_555 1_555
C36_3 N1_3 1_555 1_555
C37_3 C9_3 1_555 1_555
C38_3 C47_3 1_555 1_555
C39_3 C34_3 1_555 1_555
C40_3 C35_3 1_555 1_555
H16_3 C40_3 1_555 1_555
C41_3 C36_3 1_555 1_555
C42_3 C37_3 1_555 1_555
H17_3 C42_3 1_555 1_555
C43_3 C33_3 1_555 1_555
H18_3 C43_3 1_555 1_555
C44_3 C45_3 1_555 1_555
C45_3 C42_3 1_555 1_555
C46_3 C34_3 1_555 1_555
H19_3 C46_3 1_555 1_555
C47_3 C44_3 1_555 1_555
H20_3 C47_3 1_555 1_555
C48_3 C41_3 1_555 1_555
C49_3 C41_3 1_555 1_555
C50_3 C31_3 1_555 1_555
H21_3 C50_3 1_555 1_555
C51_3 C44_3 1_555 1_555
H22_3 C51_3 1_555 1_555
C52_3 C39_3 1_555 1_555
H23_3 C52_3 1_555 1_555
C53_3 C38_3 1_555 1_555
H24_3 C53_3 1_555 1_555
C54_3 C39_3 1_555 1_555
H25_3 C54_3 1_555 1_555
C55_3 C46_3 1_555 1_555
H26_3 C55_3 1_555 1_555
C56_3 C35_3 1_555 1_555
H27_3 C56_3 1_555 1_555
Zr5_4 O13_2 1_555 1_555
Zr6_2 O12_3 1_555 1_555
Zr7_2 O1_3 1_555 1_555
Zr12_4 O3_3 1_555 1_555
Zr11_4 O14_3 1_555 1_555
O18_3 Zr5_2 1_555 1_555
O20_3 Zr10 1_555 1_555
O21_3 Zr10 1_555 1_555
O24_3 Zr5_2 1_555 1_555
Zr8 O24_3 1_555 1_555
Zr10 O24_3 1_555 1_555
C15_3 C25_3 1_555 1_555
C17_3 C20_3 1_555 1_555
C21_3 C24_3 1_555 1_555
C21_3 C27_3 1_555 1_555
C22_3 C26_3 1_555 1_555
C23_3 C28_3 1_555 1_555
C36_3 C37_3 1_555 1_555
C43_3 C53_3 1_555 1_555
C45_3 C48_3 1_555 1_555
C49_3 C52_3 1_555 1_555
C49_3 C55_3 1_555 1_555
C50_3 C54_3 1_555 1_555
C51_3 C56_3 1_555 1_555
C20_3 H36_3 1_555 1_555
C48_3 H37_3 1_555 1_555
Zr5_3 O2_4 1_555 1_555
O1_4 C2_4 1_555 1_555
O2_4 C1_4 1_555 1_555
O3_4 C2_4 1_555 1_555
O5_4 Zr9 1_555 1_555
O8_4 Zr9 1_555 1_555
O9_4 Zr10_2 1_555 1_555
O10_4 Zr10_2 1_555 1_555
O11_4 Zr9 1_555 1_555
N1_4 H1_4 1_555 1_555
C1_4 O5_4 1_555 1_555
C2_4 C5_4 1_555 1_555
C3_4 C1_4 1_555 1_555
C4_4 C3_4 1_555 1_555
H2_4 C4_4 1_555 1_555
C5_4 C12_4 1_555 1_555
C6_4 C4_4 1_555 1_555
C7_4 C10_4 1_555 1_555
C8_4 N1_4 1_555 1_555
C9_4 C8_4 1_555 1_555
C10_4 C19_4 1_555 1_555
C11_4 C6_4 1_555 1_555
C12_4 C7_4 1_555 1_555
H3_4 C12_4 1_555 1_555
C13_4 C8_4 1_555 1_555
C14_4 C9_4 1_555 1_555
H4_4 C14_4 1_555 1_555
C15_4 C5_4 1_555 1_555
H5_4 C15_4 1_555 1_555
C16_4 C17_4 1_555 1_555
C17_4 C14_4 1_555 1_555
C18_4 C6_4 1_555 1_555
H6_4 C18_4 1_555 1_555
C19_4 C16_4 1_555 1_555
H7_4 C19_4 1_555 1_555
C20_4 C13_4 1_555 1_555
C21_4 C13_4 1_555 1_555
C22_4 C3_4 1_555 1_555
H8_4 C22_4 1_555 1_555
C23_4 C16_4 1_555 1_555
H9_4 C23_4 1_555 1_555
C24_4 C11_4 1_555 1_555
H10_4 C24_4 1_555 1_555
C25_4 C10_4 1_555 1_555
H11_4 C25_4 1_555 1_555
C26_4 C11_4 1_555 1_555
H12_4 C26_4 1_555 1_555
C27_4 C18_4 1_555 1_555
H13_4 C27_4 1_555 1_555
C28_4 C7_4 1_555 1_555
H14_4 C28_4 1_555 1_555
O12_4 C30_4 1_555 1_555
O19_2 C29_4 1_555 1_555
O14_4 C30_4 1_555 1_555
O23 C29_4 1_555 1_555
C29_4 C31_4 1_555 1_555
C30_4 C33_4 1_555 1_555
C31_4 C32_4 1_555 1_555
C32_4 H15_4 1_555 1_555
C33_4 C40_4 1_555 1_555
C34_4 C32_4 1_555 1_555
C35_4 C38_4 1_555 1_555
C36_4 N1_4 1_555 1_555
C37_4 C9_4 1_555 1_555
C38_4 C47_4 1_555 1_555
C39_4 C34_4 1_555 1_555
C40_4 C35_4 1_555 1_555
H16_4 C40_4 1_555 1_555
C41_4 C36_4 1_555 1_555
C42_4 C37_4 1_555 1_555
H17_4 C42_4 1_555 1_555
C43_4 C33_4 1_555 1_555
H18_4 C43_4 1_555 1_555
C44_4 C45_4 1_555 1_555
C45_4 C42_4 1_555 1_555
C46_4 C34_4 1_555 1_555
H19_4 C46_4 1_555 1_555
C47_4 C44_4 1_555 1_555
H20_4 C47_4 1_555 1_555
C48_4 C41_4 1_555 1_555
C49_4 C41_4 1_555 1_555
C50_4 C31_4 1_555 1_555
H21_4 C50_4 1_555 1_555
C51_4 C44_4 1_555 1_555
H22_4 C51_4 1_555 1_555
C52_4 C39_4 1_555 1_555
H23_4 C52_4 1_555 1_555
C53_4 C38_4 1_555 1_555
H24_4 C53_4 1_555 1_555
C54_4 C39_4 1_555 1_555
H25_4 C54_4 1_555 1_555
C55_4 C46_4 1_555 1_555
H26_4 C55_4 1_555 1_555
C56_4 C35_4 1_555 1_555
H27_4 C56_4 1_555 1_555
Zr7_2 O12_4 1_555 1_555
Zr6_2 O1_4 1_555 1_555
Zr12_2 O3_4 1_555 1_555
Zr11_2 O14_4 1_555 1_555
O18_4 Zr5_3 1_555 1_555
O20_4 Zr10_2 1_555 1_555
O21_4 Zr10_2 1_555 1_555
O24_4 Zr5_3 1_555 1_555
Zr9 O24_4 1_555 1_555
Zr10_2 O24_4 1_555 1_555
C15_4 C25_4 1_555 1_555
C17_4 C20_4 1_555 1_555
C21_4 C24_4 1_555 1_555
C21_4 C27_4 1_555 1_555
C22_4 C26_4 1_555 1_555
C23_4 C28_4 1_555 1_555
C36_4 C37_4 1_555 1_555
C43_4 C53_4 1_555 1_555
C45_4 C48_4 1_555 1_555
C49_4 C52_4 1_555 1_555
C49_4 C55_4 1_555 1_555
C50_4 C54_4 1_555 1_555
C51_4 C56_4 1_555 1_555
C20_4 H36_4 1_555 1_555
C48_4 H37_4 1_555 1_555
O17_4 Zr5_4 1_555 1_555
N1_5 H1_5 1_555 1_555
O18_3 C30_5 1_555 1_555
O13_3 C29_5 1_555 1_555
O21_3 C30_5 1_555 1_555
O15_3 C29_5 1_555 1_555
C29_5 C31_5 1_555 1_555
C30_5 C33_5 1_555 1_555
C31_5 C32_5 1_555 1_555
C32_5 H15_5 1_555 1_555
C33_5 C40_5 1_555 1_555
C34_5 C32_5 1_555 1_555
C35_5 C38_5 1_555 1_555
C36_5 N1_5 1_555 1_555
C38_5 C47_5 1_555 1_555
C39_5 C34_5 1_555 1_555
C40_5 C35_5 1_555 1_555
H16_5 C40_5 1_555 1_555
C41_5 C36_5 1_555 1_555
C42_5 C37_5 1_555 1_555
H17_5 C42_5 1_555 1_555
C43_5 C33_5 1_555 1_555
H18_5 C43_5 1_555 1_555
C44_5 C45_5 1_555 1_555
C45_5 C42_5 1_555 1_555
C46_5 C34_5 1_555 1_555
H19_5 C46_5 1_555 1_555
C47_5 C44_5 1_555 1_555
H20_5 C47_5 1_555 1_555
C48_5 C41_5 1_555 1_555
C49_5 C41_5 1_555 1_555
C50_5 C31_5 1_555 1_555
H21_5 C50_5 1_555 1_555
C51_5 C44_5 1_555 1_555
H22_5 C51_5 1_555 1_555
C52_5 C39_5 1_555 1_555
H23_5 C52_5 1_555 1_555
C53_5 C38_5 1_555 1_555
H24_5 C53_5 1_555 1_555
C54_5 C39_5 1_555 1_555
H25_5 C54_5 1_555 1_555
C55_5 C46_5 1_555 1_555
H26_5 C55_5 1_555 1_555
C56_5 C35_5 1_555 1_555
H27_5 C56_5 1_555 1_555
Zr7_2 O13_3 1_555 1_555
Zr9_3 O15_3 1_555 1_555
C36_5 C37_5 1_555 1_555
C43_5 C53_5 1_555 1_555
C45_5 C48_5 1_555 1_555
C49_5 C52_5 1_555 1_555
C49_5 C55_5 1_555 1_555
C50_5 C54_5 1_555 1_555
C51_5 C56_5 1_555 1_555
C48_5 H37_5 1_555 1_555
Zr11_3 O6_3 1_555 1_555
O6_3 Zr2_3 1_555 1_555
O8_5 Zr2_3 1_555 1_555
O9_5 Zr11_3 1_555 1_555
O10_5 Zr11_3 1_555 1_555
O11_5 Zr2_3 1_555 1_555
Zr6 O6_3 1_555 1_555
O22_5 Zr2_3 1_555 1_555
O23_3 Zr2_3 1_555 1_555
O25_5 Zr11_3 1_555 1_555
Zr6 O22_5 1_555 1_555
Zr6 O25_5 1_555 1_555
Zr8_2 O22_5 1_555 1_555
Zr12 O25_5 1_555 1_555
O10_5 H28 1_555 1_555
O8_5 H30 1_555 1_555
O8_5 H31 1_555 1_555
O9_5 H32 1_555 1_555
O11_5 H35 1_555 1_555
Zr6_2 O2_5 1_555 1_555
Zr2_4 O4_5 1_555 1_555
O17_4 C2_5 1_555 1_555
O2_5 C1_5 1_555 1_555
O20_2 C2_5 1_555 1_555
O4_5 Zr6_2 1_555 1_555
O5_5 Zr2_4 1_555 1_555
O7_5 Zr6_2 1_555 1_555
O8_6 Zr2_4 1_555 1_555
O9_6 Zr11_4 1_555 1_555
O10_6 Zr11_4 1_555 1_555
O11_6 Zr2_4 1_555 1_555
N1_6 H1_6 1_555 1_555
C1_5 O5_5 1_555 1_555
C2_5 C5_5 1_555 1_555
C3_5 C1_5 1_555 1_555
C4_5 C3_5 1_555 1_555
H2_5 C4_5 1_555 1_555
C5_5 C12_5 1_555 1_555
C6_5 C4_5 1_555 1_555
C7_5 C10_5 1_555 1_555
C8_5 N1_6 1_555 1_555
C9_5 C8_5 1_555 1_555
C10_5 C19_5 1_555 1_555
C11_5 C6_5 1_555 1_555
C12_5 C7_5 1_555 1_555
H3_5 C12_5 1_555 1_555
C13_5 C8_5 1_555 1_555
C14_5 C9_5 1_555 1_555
H4_5 C14_5 1_555 1_555
C15_5 C5_5 1_555 1_555
H5_5 C15_5 1_555 1_555
C16_5 C17_5 1_555 1_555
C17_5 C14_5 1_555 1_555
C18_5 C6_5 1_555 1_555
H6_5 C18_5 1_555 1_555
C19_5 C16_5 1_555 1_555
H7_5 C19_5 1_555 1_555
C20_5 C13_5 1_555 1_555
C21_5 C13_5 1_555 1_555
C22_5 C3_5 1_555 1_555
H8_5 C22_5 1_555 1_555
C23_5 C16_5 1_555 1_555
H9_5 C23_5 1_555 1_555
C24_5 C11_5 1_555 1_555
H10_5 C24_5 1_555 1_555
C25_5 C10_5 1_555 1_555
H11_5 C25_5 1_555 1_555
C26_5 C11_5 1_555 1_555
H12_5 C26_5 1_555 1_555
C27_5 C18_5 1_555 1_555
H13_5 C27_5 1_555 1_555
C28_5 C7_5 1_555 1_555
H14_5 C28_5 1_555 1_555
O16_3 Zr6_2 1_555 1_555
Zr8_3 O4_5 1_555 1_555
Zr12_2 O7_5 1_555 1_555
O19_3 Zr6_2 1_555 1_555
O24_5 Zr6_2 1_555 1_555
Zr2_4 O24_5 1_555 1_555
Zr11_4 O7_5 1_555 1_555
Zr11_4 O24_5 1_555 1_555
C15_5 C25_5 1_555 1_555
C17_5 C20_5 1_555 1_555
C21_5 C24_5 1_555 1_555
C21_5 C27_5 1_555 1_555
C22_5 C26_5 1_555 1_555
C23_5 C28_5 1_555 1_555
O16_3 Zr8_3 1_555 1_555
O16_3 Zr12_2 1_555 1_555
O10_6 H29 1_555 1_555
O9_6 H33 1_555 1_555
O11_6 H34 1_555 1_555
C20_5 H36_5 1_555 1_555
Zr11 O6_4 1_555 1_555
O6_4 Zr2_5 1_555 1_555
O8_7 Zr2_5 1_555 1_555
O9_7 Zr11 1_555 1_555
O10_7 Zr11 1_555 1_555
O11_7 Zr2_5 1_555 1_555
Zr7 O6_4 1_555 1_555
O22_6 Zr2_5 1_555 1_555
O23_4 Zr2_5 1_555 1_555
O25_6 Zr11 1_555 1_555
Zr7 O22_6 1_555 1_555
Zr7 O25_6 1_555 1_555
Zr9_2 O22_6 1_555 1_555
Zr12_3 O25_6 1_555 1_555
O10_7 H28_2 1_555 1_555
O8_7 H30_2 1_555 1_555
O8_7 H31_2 1_555 1_555
O9_7 H32_2 1_555 1_555
O11_7 H35_2 1_555 1_555
Zr7_2 O2_6 1_555 1_555
Zr2_6 O4_6 1_555 1_555
O17_3 C2_6 1_555 1_555
O2_6 C1_6 1_555 1_555
O20 C2_6 1_555 1_555
O4_6 Zr7_2 1_555 1_555
O5_6 Zr2_6 1_555 1_555
O7_6 Zr7_2 1_555 1_555
O8_8 Zr2_6 1_555 1_555
O9_8 Zr11_2 1_555 1_555
O10_8 Zr11_2 1_555 1_555
O11_8 Zr2_6 1_555 1_555
N1_7 H1_7 1_555 1_555
C1_6 O5_6 1_555 1_555
C2_6 C5_6 1_555 1_555
C3_6 C1_6 1_555 1_555
C4_6 C3_6 1_555 1_555
H2_6 C4_6 1_555 1_555
C5_6 C12_6 1_555 1_555
C6_6 C4_6 1_555 1_555
C7_6 C10_6 1_555 1_555
C8_6 N1_7 1_555 1_555
C9_6 C8_6 1_555 1_555
C10_6 C19_6 1_555 1_555
C11_6 C6_6 1_555 1_555
C12_6 C7_6 1_555 1_555
H3_6 C12_6 1_555 1_555
C13_6 C8_6 1_555 1_555
C14_6 C9_6 1_555 1_555
H4_6 C14_6 1_555 1_555
C15_6 C5_6 1_555 1_555
H5_6 C15_6 1_555 1_555
C16_6 C17_6 1_555 1_555
C17_6 C14_6 1_555 1_555
C18_6 C6_6 1_555 1_555
H6_6 C18_6 1_555 1_555
C19_6 C16_6 1_555 1_555
H7_6 C19_6 1_555 1_555
C20_6 C13_6 1_555 1_555
C21_6 C13_6 1_555 1_555
C22_6 C3_6 1_555 1_555
H8_6 C22_6 1_555 1_555
C23_6 C16_6 1_555 1_555
H9_6 C23_6 1_555 1_555
C24_6 C11_6 1_555 1_555
H10_6 C24_6 1_555 1_555
C25_6 C10_6 1_555 1_555
H11_6 C25_6 1_555 1_555
C26_6 C11_6 1_555 1_555
H12_6 C26_6 1_555 1_555
C27_6 C18_6 1_555 1_555
H13_6 C27_6 1_555 1_555
C28_6 C7_6 1_555 1_555
H14_6 C28_6 1_555 1_555
O16_4 Zr7_2 1_555 1_555
Zr9_3 O4_6 1_555 1_555
Zr12_4 O7_6 1_555 1_555
O24_6 Zr7_2 1_555 1_555
Zr2_6 O24_6 1_555 1_555
Zr11_2 O7_6 1_555 1_555
Zr11_2 O24_6 1_555 1_555
C15_6 C25_6 1_555 1_555
C17_6 C20_6 1_555 1_555
C21_6 C24_6 1_555 1_555
C21_6 C27_6 1_555 1_555
C22_6 C26_6 1_555 1_555
C23_6 C28_6 1_555 1_555
O16_4 Zr9_3 1_555 1_555
O16_4 Zr12_4 1_555 1_555
O10_8 H29_2 1_555 1_555
O9_8 H33_2 1_555 1_555
O11_8 H34_2 1_555 1_555
C20_6 H36_6 1_555 1_555
N1_8 H1_8 1_555 1_555
O18_4 C30_6 1_555 1_555
O19_3 C29_6 1_555 1_555
O21_4 C30_6 1_555 1_555
O15_4 C29_6 1_555 1_555
C29_6 C31_6 1_555 1_555
C30_6 C33_6 1_555 1_555
C31_6 C32_6 1_555 1_555
C32_6 H15_6 1_555 1_555
C33_6 C40_6 1_555 1_555
C34_6 C32_6 1_555 1_555
C35_6 C38_6 1_555 1_555
C36_6 N1_8 1_555 1_555
C38_6 C47_6 1_555 1_555
C39_6 C34_6 1_555 1_555
C40_6 C35_6 1_555 1_555
H16_6 C40_6 1_555 1_555
C41_6 C36_6 1_555 1_555
C42_6 C37_6 1_555 1_555
H17_6 C42_6 1_555 1_555
C43_6 C33_6 1_555 1_555
H18_6 C43_6 1_555 1_555
C44_6 C45_6 1_555 1_555
C45_6 C42_6 1_555 1_555
C46_6 C34_6 1_555 1_555
H19_6 C46_6 1_555 1_555
C47_6 C44_6 1_555 1_555
H20_6 C47_6 1_555 1_555
C48_6 C41_6 1_555 1_555
C49_6 C41_6 1_555 1_555
C50_6 C31_6 1_555 1_555
H21_6 C50_6 1_555 1_555
C51_6 C44_6 1_555 1_555
H22_6 C51_6 1_555 1_555
C52_6 C39_6 1_555 1_555
H23_6 C52_6 1_555 1_555
C53_6 C38_6 1_555 1_555
H24_6 C53_6 1_555 1_555
C54_6 C39_6 1_555 1_555
H25_6 C54_6 1_555 1_555
C55_6 C46_6 1_555 1_555
H26_6 C55_6 1_555 1_555
C56_6 C35_6 1_555 1_555
H27_6 C56_6 1_555 1_555
Zr8_3 O15_4 1_555 1_555
C36_6 C37_6 1_555 1_555
C43_6 C53_6 1_555 1_555
C45_6 C48_6 1_555 1_555
C49_6 C52_6 1_555 1_555
C49_6 C55_6 1_555 1_555
C50_6 C54_6 1_555 1_555
C51_6 C56_6 1_555 1_555
C48_6 H37_6 1_555 1_555
N1_9 H1_9 1_555 1_555
O18 C30_7 1_555 1_555
O13_4 C29_7 1_555 1_555
O21 C30_7 1_555 1_555
O23_4 C29_7 1_555 1_555
C29_7 C31_7 1_555 1_555
C30_7 C33_7 1_555 1_555
C31_7 C32_7 1_555 1_555
C32_7 H15_7 1_555 1_555
C33_7 C40_7 1_555 1_555
C34_7 C32_7 1_555 1_555
C35_7 C38_7 1_555 1_555
C36_7 N1_9 1_555 1_555
C38_7 C47_7 1_555 1_555
C39_7 C34_7 1_555 1_555
C40_7 C35_7 1_555 1_555
H16_7 C40_7 1_555 1_555
C41_7 C36_7 1_555 1_555
C42_7 C37_7 1_555 1_555
H17_7 C42_7 1_555 1_555
C43_7 C33_7 1_555 1_555
H18_7 C43_7 1_555 1_555
C44_7 C45_7 1_555 1_555
C45_7 C42_7 1_555 1_555
C46_7 C34_7 1_555 1_555
H19_7 C46_7 1_555 1_555
C47_7 C44_7 1_555 1_555
H20_7 C47_7 1_555 1_555
C48_7 C41_7 1_555 1_555
C49_7 C41_7 1_555 1_555
C50_7 C31_7 1_555 1_555
H21_7 C50_7 1_555 1_555
C51_7 C44_7 1_555 1_555
H22_7 C51_7 1_555 1_555
C52_7 C39_7 1_555 1_555
H23_7 C52_7 1_555 1_555
C53_7 C38_7 1_555 1_555
H24_7 C53_7 1_555 1_555
C54_7 C39_7 1_555 1_555
H25_7 C54_7 1_555 1_555
C55_7 C46_7 1_555 1_555
H26_7 C55_7 1_555 1_555
C56_7 C35_7 1_555 1_555
H27_7 C56_7 1_555 1_555
Zr7 O13_4 1_555 1_555
C36_7 C37_7 1_555 1_555
C43_7 C53_7 1_555 1_555
C45_7 C48_7 1_555 1_555
C49_7 C52_7 1_555 1_555
C49_7 C55_7 1_555 1_555
C50_7 C54_7 1_555 1_555
C51_7 C56_7 1_555 1_555
C48_7 H37_7 1_555 1_555
Zr6 O2_7 1_555 1_555
O17_2 C2_7 1_555 1_555
O2_7 C1_7 1_555 1_555
O20_4 C2_7 1_555 1_555
O5_7 Zr8_2 1_555 1_555
O8_9 Zr8_2 1_555 1_555
O9_9 Zr12 1_555 1_555
O10_9 Zr12 1_555 1_555
O11_9 Zr8_2 1_555 1_555
N1_10 H1_10 1_555 1_555
C1_7 O5_7 1_555 1_555
C2_7 C5_7 1_555 1_555
C3_7 C1_7 1_555 1_555
C4_7 C3_7 1_555 1_555
H2_7 C4_7 1_555 1_555
C5_7 C12_7 1_555 1_555
C6_7 C4_7 1_555 1_555
C7_7 C10_7 1_555 1_555
C8_7 N1_10 1_555 1_555
C9_7 C8_7 1_555 1_555
C10_7 C19_7 1_555 1_555
C11_7 C6_7 1_555 1_555
C12_7 C7_7 1_555 1_555
H3_7 C12_7 1_555 1_555
C13_7 C8_7 1_555 1_555
C14_7 C9_7 1_555 1_555
H4_7 C14_7 1_555 1_555
C15_7 C5_7 1_555 1_555
H5_7 C15_7 1_555 1_555
C16_7 C17_7 1_555 1_555
C17_7 C14_7 1_555 1_555
C18_7 C6_7 1_555 1_555
H6_7 C18_7 1_555 1_555
C19_7 C16_7 1_555 1_555
H7_7 C19_7 1_555 1_555
C20_7 C13_7 1_555 1_555
C21_7 C13_7 1_555 1_555
C22_7 C3_7 1_555 1_555
H8_7 C22_7 1_555 1_555
C23_7 C16_7 1_555 1_555
H9_7 C23_7 1_555 1_555
C24_7 C11_7 1_555 1_555
H10_7 C24_7 1_555 1_555
C25_7 C10_7 1_555 1_555
H11_7 C25_7 1_555 1_555
C26_7 C11_7 1_555 1_555
H12_7 C26_7 1_555 1_555
C27_7 C18_7 1_555 1_555
H13_7 C27_7 1_555 1_555
C28_7 C7_7 1_555 1_555
H14_7 C28_7 1_555 1_555
O19_4 Zr6 1_555 1_555
O24_7 Zr6 1_555 1_555
Zr8_2 O24_7 1_555 1_555
Zr12 O24_7 1_555 1_555
C15_7 C25_7 1_555 1_555
C17_7 C20_7 1_555 1_555
C21_7 C24_7 1_555 1_555
C21_7 C27_7 1_555 1_555
C22_7 C26_7 1_555 1_555
C23_7 C28_7 1_555 1_555
O10_9 H29_3 1_555 1_555
O9_9 H33_3 1_555 1_555
O11_9 H34_3 1_555 1_555
C20_7 H36_7 1_555 1_555
O8_10 Zr8_3 1_555 1_555
O9_10 Zr12_2 1_555 1_555
O10_10 Zr12_2 1_555 1_555
O11_10 Zr8_3 1_555 1_555
O10_10 H28_3 1_555 1_555
O8_10 H30_3 1_555 1_555
O8_10 H31_3 1_555 1_555
O9_10 H32_3 1_555 1_555
O11_10 H35_3 1_555 1_555
Zr7 O2_8 1_555 1_555
O17 C2_8 1_555 1_555
O2_8 C1_8 1_555 1_555
O20_3 C2_8 1_555 1_555
O5_8 Zr9_2 1_555 1_555
O8_11 Zr9_2 1_555 1_555
O9_11 Zr12_3 1_555 1_555
O10_11 Zr12_3 1_555 1_555
O11_11 Zr9_2 1_555 1_555
N1_11 H1_11 1_555 1_555
C1_8 O5_8 1_555 1_555
C2_8 C5_8 1_555 1_555
C3_8 C1_8 1_555 1_555
C4_8 C3_8 1_555 1_555
H2_8 C4_8 1_555 1_555
C5_8 C12_8 1_555 1_555
C6_8 C4_8 1_555 1_555
C7_8 C10_8 1_555 1_555
C8_8 N1_11 1_555 1_555
C9_8 C8_8 1_555 1_555
C10_8 C19_8 1_555 1_555
C11_8 C6_8 1_555 1_555
C12_8 C7_8 1_555 1_555
H3_8 C12_8 1_555 1_555
C13_8 C8_8 1_555 1_555
C14_8 C9_8 1_555 1_555
H4_8 C14_8 1_555 1_555
C15_8 C5_8 1_555 1_555
H5_8 C15_8 1_555 1_555
C16_8 C17_8 1_555 1_555
C17_8 C14_8 1_555 1_555
C18_8 C6_8 1_555 1_555
H6_8 C18_8 1_555 1_555
C19_8 C16_8 1_555 1_555
H7_8 C19_8 1_555 1_555
C20_8 C13_8 1_555 1_555
C21_8 C13_8 1_555 1_555
C22_8 C3_8 1_555 1_555
H8_8 C22_8 1_555 1_555
C23_8 C16_8 1_555 1_555
H9_8 C23_8 1_555 1_555
C24_8 C11_8 1_555 1_555
H10_8 C24_8 1_555 1_555
C25_8 C10_8 1_555 1_555
H11_8 C25_8 1_555 1_555
C26_8 C11_8 1_555 1_555
H12_8 C26_8 1_555 1_555
C27_8 C18_8 1_555 1_555
H13_8 C27_8 1_555 1_555
C28_8 C7_8 1_555 1_555
H14_8 C28_8 1_555 1_555
O24_8 Zr7 1_555 1_555
Zr9_2 O24_8 1_555 1_555
Zr12_3 O24_8 1_555 1_555
C15_8 C25_8 1_555 1_555
C17_8 C20_8 1_555 1_555
C21_8 C24_8 1_555 1_555
C21_8 C27_8 1_555 1_555
C22_8 C26_8 1_555 1_555
C23_8 C28_8 1_555 1_555
O10_11 H29_4 1_555 1_555
O9_11 H33_4 1_555 1_555
O11_11 H34_4 1_555 1_555
C20_8 H36_8 1_555 1_555
O8_12 Zr9_3 1_555 1_555
O9_12 Zr12_4 1_555 1_555
O10_12 Zr12_4 1_555 1_555
O11_12 Zr9_3 1_555 1_555
O10_12 H28_4 1_555 1_555
O8_12 H30_4 1_555 1_555
O8_12 H31_4 1_555 1_555
O9_12 H32_4 1_555 1_555
O11_12 H35_4 1_555 1_555
N1_12 H1_12 1_555 1_555
O18_2 C30_8 1_555 1_555
O19_4 C29_8 1_555 1_555
O21_2 C30_8 1_555 1_555
O23_3 C29_8 1_555 1_555
C29_8 C31_8 1_555 1_555
C30_8 C33_8 1_555 1_555
C31_8 C32_8 1_555 1_555
C32_8 H15_8 1_555 1_555
C33_8 C40_8 1_555 1_555
C34_8 C32_8 1_555 1_555
C35_8 C38_8 1_555 1_555
C36_8 N1_12 1_555 1_555
C38_8 C47_8 1_555 1_555
C39_8 C34_8 1_555 1_555
C40_8 C35_8 1_555 1_555
H16_8 C40_8 1_555 1_555
C41_8 C36_8 1_555 1_555
C42_8 C37_8 1_555 1_555
H17_8 C42_8 1_555 1_555
C43_8 C33_8 1_555 1_555
H18_8 C43_8 1_555 1_555
C44_8 C45_8 1_555 1_555
C45_8 C42_8 1_555 1_555
C46_8 C34_8 1_555 1_555
H19_8 C46_8 1_555 1_555
C47_8 C44_8 1_555 1_555
H20_8 C47_8 1_555 1_555
C48_8 C41_8 1_555 1_555
C49_8 C41_8 1_555 1_555
C50_8 C31_8 1_555 1_555
H21_8 C50_8 1_555 1_555
C51_8 C44_8 1_555 1_555
H22_8 C51_8 1_555 1_555
C52_8 C39_8 1_555 1_555
H23_8 C52_8 1_555 1_555
C53_8 C38_8 1_555 1_555
H24_8 C53_8 1_555 1_555
C54_8 C39_8 1_555 1_555
H25_8 C54_8 1_555 1_555
C55_8 C46_8 1_555 1_555
H26_8 C55_8 1_555 1_555
C56_8 C35_8 1_555 1_555
H27_8 C56_8 1_555 1_555
C36_8 C37_8 1_555 1_555
C43_8 C53_8 1_555 1_555
C45_8 C48_8 1_555 1_555
C49_8 C52_8 1_555 1_555
C49_8 C55_8 1_555 1_555
C50_8 C54_8 1_555 1_555
C51_8 C56_8 1_555 1_555
C48_8 H37_8 1_555 1_555
O10_7 H29_5 1_555 1_555
O9_7 H33_5 1_555 1_555
O11_7 H34_5 1_555 1_555
O10_8 H28_5 1_555 1_555
O8_8 H30_5 1_555 1_555
O8_8 H31_5 1_555 1_555
O9_8 H32_5 1_555 1_555
O11_8 H35_5 1_555 1_555
O10_5 H29_6 1_555 1_555
O9_5 H33_6 1_555 1_555
O11_5 H34_6 1_555 1_555
O10_6 H28_6 1_555 1_555
O8_6 H30_6 1_555 1_555
O8_6 H31_6 1_555 1_555
O9_6 H32_6 1_555 1_555
O11_6 H35_6 1_555 1_555
O10_11 H28_7 1_555 1_555
O8_11 H30_7 1_555 1_555
O8_11 H31_7 1_555 1_555
O9_11 H32_7 1_555 1_555
O11_11 H35_7 1_555 1_555
O10_12 H29_7 1_555 1_555
O9_12 H33_7 1_555 1_555
O11_12 H34_7 1_555 1_555
O10_9 H28_8 1_555 1_555
O8_9 H30_8 1_555 1_555
O8_9 H31_8 1_555 1_555
O9_9 H32_8 1_555 1_555
O11_9 H35_8 1_555 1_555
O10_10 H29_8 1_555 1_555
O9_10 H33_8 1_555 1_555
O11_10 H34_8 1_555 1_555

#END
