
###############################################################################
#
# This file contains modified crystal structure data generated from the
# MOF subset of the Cambridge Structural Database (CSD) v543 
# hosted by the Cambridge Crystallographic Data Centre (CCDC).
#
# This work is licensed under the Creative Commons
# Attribution-NonCommercial-ShareAlike 4.0 International License.
# To view a copy of this license, visit
# http://creativecommons.org/licenses/by-nc-sa/4.0/
# or send a letter to
# Creative Commons, PO Box 1866, Mountain View, CA 94042, USA.
#
# CIF created using the CSD Python API on 29 September 2022
# The structure has been converted into the P1 space group
# The structure has a 3D framework
# The original CSD entry GINTIJ is in the orthorhombic crystal system
# The framework has been calculated to contain at least 10.0% void space
# The void calculation uses a probe of radius 1.32A, grid spacing 0.4
# H atom positions have been added when not included in the experimental data
# Generated hydrogen atom positions removed from atoms on special positions
#
###############################################################################

data_GINTIJ
_chemical_formula_moiety         '(C320 H296 N12 O136 Zr36)n'
_symmetry_cell_setting           triclinic
_symmetry_space_group_name_H-M   'P 1'
_symmetry_Int_Tables_number      1
_space_group_name_Hall           'P 1'
loop_
_symmetry_equiv_pos_site_id
_symmetry_equiv_pos_as_xyz
1 x,y,z
_cell_length_a                   17.723(5)
_cell_length_b                   32.705(3)
_cell_length_c                   34.670(4)
_cell_angle_alpha                90
_cell_angle_beta                 90
_cell_angle_gamma                90
_cell_volume                     20095.8
loop_
_atom_site_label
_atom_site_type_symbol
_atom_site_fract_x
_atom_site_fract_y
_atom_site_fract_z
Zr12 Zr 0.40000(19) 0.22413(6) -0.0000
C1 C 0.1210(14) 0.1545(5) 0.5934(4)
C2 C 0.1507(12) 0.1303(4) 0.6270(4)
C3 C 0.2075(11) 0.1012(5) 0.6221(4)
H1 H 0.2285 0.0963 0.5974
C4 C 0.2330(11) 0.0794(4) 0.6545(4)
H2 H 0.2672 0.0572 0.6516
C5 C 0.2062(13) 0.0913(5) 0.6925(4)
C6 C 0.1532(12) 0.1226(5) 0.6958(4)
H3 H 0.1373 0.1311 0.7207
C7 C 0.1236(12) 0.1413(4) 0.6637(4)
H4 H 0.0853 0.1615 0.6663
C8 C 0.2427(14) 0.0752(4) 0.7284(4)
C9 C 0.2525(15) 0.0336(4) 0.7359(4)
C10 C 0.2806(14) 0.0203(4) 0.7721(4)
C11 C 0.3063(14) 0.0499(5) 0.7999(4)
H5 H 0.3299 0.0416 0.8232
C12 C 0.2955(16) 0.0909(4) 0.7916(4)
C13 C 0.2651(13) 0.1027(4) 0.7568(4)
H6 H 0.2591 0.1311 0.7519
C14 C 0.3157(16) 0.1221(5) 0.8219(4)
C15 C 0.2929(14) 0.1153(5) 0.8597(4)
H7 H 0.2610 0.0930 0.8662
C16 C 0.3195(15) 0.1430(5) 0.8881(4)
H8 H 0.3077 0.1382 0.9145
C17 C 0.3630(16) 0.1777(5) 0.8782(4)
C18 C 0.3741(16) 0.1861(5) 0.8390(4)
H9 H 0.3977 0.2109 0.8313
C19 C 0.3505(15) 0.1582(5) 0.8112(4)
H10 H 0.3585 0.1640 0.7847
C20 C 0.3847(16) 0.2093(5) 0.9065(4)
N1 N 0.2301(16) -0.0000 0.7134(5)
H11 H 0.2075 0.0000 0.6907
O1 O 0.0000 0.1674(5) 0.5333(4)
O3 O 0.0000 0.2732(5) 0.5325(5)
O5 O 0.0732(8) 0.1819(3) 0.6018(2)
O6 O 0.1415(8) 0.1438(3) 0.5596(3)
O7 O 0.4278(9) 0.2375(3) 0.8982(3)
O8 O 0.3583(10) 0.2020(3) 0.9414(3)
Zr2 Zr 0.0000 0.22205(6) 0.57012(5)
O17 O 0.0000 0.1674(5) 0.4667(4)
O18 O 0.0000 0.2732(5) 0.4675(5)
O23 O 0.0722(9) 0.2625(3) 0.6018(3)
O26 O 0.1016(8) 0.2217(3) 0.5354(3)
Zr5 Zr 0.10044(19) 0.16695(6) 0.5000
Zr7 Zr 0.0000 0.22205(6) 0.42988(5)
Zr9 Zr 0.5000 0.27795(6) 0.92988(5)
Zr10 Zr 0.10000(19) 0.27587(6) 0.5000
Zr12_2 Zr 0.40000(19) 0.22413(6) 1.0000
Zr11 Zr 0.40000(19) 0.77587(6) -0.0000
N1_2 N 0.2301(16) 1.0000 0.7134(5)
H11_2 H 0.2075 1.0000 0.6907
C21 C 0.1210(14) 0.8455(5) 0.5934(4)
C22 C 0.1507(12) 0.8697(4) 0.6270(4)
C23 C 0.2075(11) 0.8988(5) 0.6221(4)
H12 H 0.2285 0.9037 0.5974
C24 C 0.2330(11) 0.9206(4) 0.6545(4)
H13 H 0.2672 0.9428 0.6516
C25 C 0.2062(13) 0.9087(5) 0.6925(4)
C26 C 0.1532(12) 0.8774(5) 0.6958(4)
H14 H 0.1373 0.8689 0.7207
C27 C 0.1236(12) 0.8587(4) 0.6637(4)
H15 H 0.0853 0.8385 0.6663
C28 C 0.2427(14) 0.9248(4) 0.7284(4)
C29 C 0.2525(15) 0.9664(4) 0.7359(4)
C30 C 0.2806(14) 0.9797(4) 0.7721(4)
C31 C 0.3063(14) 0.9501(5) 0.7999(4)
H16 H 0.3299 0.9584 0.8232
C32 C 0.2955(16) 0.9091(4) 0.7916(4)
C33 C 0.2651(13) 0.8973(4) 0.7568(4)
H17 H 0.2591 0.8689 0.7519
C34 C 0.3157(16) 0.8779(5) 0.8219(4)
C35 C 0.2929(14) 0.8847(5) 0.8597(4)
H18 H 0.2610 0.9070 0.8662
C36 C 0.3195(15) 0.8570(5) 0.8881(4)
H19 H 0.3077 0.8618 0.9145
C37 C 0.3630(16) 0.8223(5) 0.8782(4)
C38 C 0.3741(16) 0.8139(5) 0.8390(4)
H20 H 0.3977 0.7891 0.8313
C39 C 0.3505(15) 0.8418(5) 0.8112(4)
H21 H 0.3585 0.8360 0.7847
C40 C 0.3847(16) 0.7907(5) 0.9065(4)
O12 O 0.0732(8) 0.8181(3) 0.6018(2)
O13 O 0.1415(8) 0.8562(3) 0.5596(3)
O14 O 0.4278(9) 0.7625(3) 0.8982(3)
O15 O 0.3583(10) 0.7980(3) 0.9414(3)
Zr4 Zr 0.10044(19) 0.83305(6) 0.5000
Zr6 Zr 0.0000 0.77795(6) 0.57012(5)
Zr8 Zr 0.5000 0.72205(6) 0.92988(5)
Zr11_2 Zr 0.40000(19) 0.77587(6) 1.0000
O1_2 O 1.0000 0.1674(5) 0.5333(4)
O2 O 0.7787(12) 0.2760(5) 0.5000
O3_2 O 1.0000 0.2732(5) 0.5325(5)
O4 O 0.9114(13) 0.3432(4) 0.5000
O9 O 0.9099(11) 0.0989(4) 0.5000
O10 O 0.8984(8) 0.2217(3) 0.5354(3)
O11 O 0.7727(12) 0.1689(4) 0.5000
Zr1 Zr 0.89956(19) 0.16695(6) 0.5000
Zr2_2 Zr 1.0000 0.22205(6) 0.57012(5)
Zr3 Zr 0.90000(19) 0.27587(6) 0.5000
O16 O 0.8984(8) 0.2217(3) 0.4646(3)
O17_2 O 1.0000 0.1674(5) 0.4667(4)
O18_2 O 1.0000 0.2732(5) 0.4675(5)
O19 O 0.9268(8) 0.1819(3) 0.6018(2)
O20 O 0.8585(8) 0.1438(3) 0.4404(3)
O21 O 0.8585(8) 0.1438(3) 0.5596(3)
O22 O 0.9278(9) 0.2625(3) 0.6018(3)
O24 O 0.8583(10) 0.2980(3) 0.5586(3)
O25 O 0.8583(10) 0.2980(3) 0.4414(3)
Zr7_2 Zr 1.0000 0.22205(6) 0.42988(5)
Zr6_2 Zr 1.0000 0.77795(6) 0.57012(5)
O1_3 O -0.0000 0.8326(5) 0.5333(4)
O2_2 O 0.2213(12) 0.7240(5) 0.5000
O3_3 O 0.0000 0.7268(5) 0.5325(5)
O4_2 O 0.0886(13) 0.6568(4) 0.5000
O9_2 O 0.0901(11) 0.9011(4) 0.5000
O10_2 O 0.1016(8) 0.7783(3) 0.5354(3)
O11_2 O 0.2273(12) 0.8311(4) 0.5000
Zr3_2 Zr 0.10000(19) 0.72413(6) 0.5000
O16_2 O 0.1016(8) 0.7783(3) 0.4646(3)
O17_3 O -0.0000 0.8326(5) 0.4667(4)
O18_3 O 0.0000 0.7268(5) 0.4675(5)
O20_2 O 0.1415(8) 0.8562(3) 0.4404(3)
O22_2 O 0.0722(9) 0.7375(3) 0.6018(3)
O24_2 O 0.1417(10) 0.7020(3) 0.5586(3)
O25_2 O 0.1417(10) 0.7020(3) 0.4414(3)
Zr7_3 Zr 0.0000 0.77795(6) 0.42988(5)
Zr11_3 Zr 0.60000(19) 0.22413(6) -0.0000
N1_3 N 0.7699(16) 0.0000 0.7134(5)
H11_3 H 0.7925 0.0000 0.6907
C21_2 C 0.8790(14) 0.1545(5) 0.5934(4)
C22_2 C 0.8493(12) 0.1303(4) 0.6270(4)
C23_2 C 0.7925(11) 0.1012(5) 0.6221(4)
H12_2 H 0.7715 0.0963 0.5974
C24_2 C 0.7670(11) 0.0794(4) 0.6545(4)
H13_2 H 0.7328 0.0572 0.6516
C25_2 C 0.7938(13) 0.0913(5) 0.6925(4)
C26_2 C 0.8468(12) 0.1226(5) 0.6958(4)
H14_2 H 0.8627 0.1311 0.7207
C27_2 C 0.8764(12) 0.1413(4) 0.6637(4)
H15_2 H 0.9147 0.1615 0.6663
C28_2 C 0.7573(14) 0.0752(4) 0.7284(4)
C29_2 C 0.7475(15) 0.0336(4) 0.7359(4)
C30_2 C 0.7194(14) 0.0203(4) 0.7721(4)
C31_2 C 0.6937(14) 0.0499(5) 0.7999(4)
H16_2 H 0.6701 0.0416 0.8232
C32_2 C 0.7045(16) 0.0909(4) 0.7916(4)
C33_2 C 0.7349(13) 0.1027(4) 0.7568(4)
H17_2 H 0.7409 0.1311 0.7519
C34_2 C 0.6843(16) 0.1221(5) 0.8219(4)
C35_2 C 0.7071(14) 0.1153(5) 0.8597(4)
H18_2 H 0.7390 0.0930 0.8662
C36_2 C 0.6805(15) 0.1430(5) 0.8881(4)
H19_2 H 0.6923 0.1382 0.9145
C37_2 C 0.6370(16) 0.1777(5) 0.8782(4)
C38_2 C 0.6259(16) 0.1861(5) 0.8390(4)
H20_2 H 0.6023 0.2109 0.8313
C39_2 C 0.6495(15) 0.1582(5) 0.8112(4)
H21_2 H 0.6415 0.1640 0.7847
C40_2 C 0.6153(16) 0.2093(5) 0.9065(4)
O14_2 O 0.5722(9) 0.2375(3) 0.8982(3)
O15_2 O 0.6417(10) 0.2020(3) 0.9414(3)
Zr11_4 Zr 0.60000(19) 0.22413(6) 1.0000
Zr12_3 Zr 0.60000(19) 0.77587(6) -0.0000
C1_2 C 0.8790(14) 0.8455(5) 0.5934(4)
C2_2 C 0.8493(12) 0.8697(4) 0.6270(4)
C3_2 C 0.7925(11) 0.8988(5) 0.6221(4)
H1_2 H 0.7715 0.9037 0.5974
C4_2 C 0.7670(11) 0.9206(4) 0.6545(4)
H2_2 H 0.7328 0.9428 0.6516
C5_2 C 0.7938(13) 0.9087(5) 0.6925(4)
C6_2 C 0.8468(12) 0.8774(5) 0.6958(4)
H3_2 H 0.8627 0.8689 0.7207
C7_2 C 0.8764(12) 0.8587(4) 0.6637(4)
H4_2 H 0.9147 0.8385 0.6663
C8_2 C 0.7573(14) 0.9248(4) 0.7284(4)
C9_2 C 0.7475(15) 0.9664(4) 0.7359(4)
C10_2 C 0.7194(14) 0.9797(4) 0.7721(4)
C11_2 C 0.6937(14) 0.9501(5) 0.7999(4)
H5_2 H 0.6701 0.9584 0.8232
C12_2 C 0.7045(16) 0.9091(4) 0.7916(4)
C13_2 C 0.7349(13) 0.8973(4) 0.7568(4)
H6_2 H 0.7409 0.8689 0.7519
C14_2 C 0.6843(16) 0.8779(5) 0.8219(4)
C15_2 C 0.7071(14) 0.8847(5) 0.8597(4)
H7_2 H 0.7390 0.9070 0.8662
C16_2 C 0.6805(15) 0.8570(5) 0.8881(4)
H8_2 H 0.6923 0.8618 0.9145
C17_2 C 0.6370(16) 0.8223(5) 0.8782(4)
C18_2 C 0.6259(16) 0.8139(5) 0.8390(4)
H9_2 H 0.6023 0.7891 0.8313
C19_2 C 0.6495(15) 0.8418(5) 0.8112(4)
H10_2 H 0.6415 0.8360 0.7847
C20_2 C 0.6153(16) 0.7907(5) 0.9065(4)
N1_4 N 0.7699(16) 1.0000 0.7134(5)
H11_4 H 0.7925 1.0000 0.6907
O1_4 O 1.0000 0.8326(5) 0.5333(4)
O3_4 O 1.0000 0.7268(5) 0.5325(5)
O5_2 O 0.9268(8) 0.8181(3) 0.6018(2)
O6_2 O 0.8585(8) 0.8562(3) 0.5596(3)
O7_2 O 0.5722(9) 0.7625(3) 0.8982(3)
O8_2 O 0.6417(10) 0.7980(3) 0.9414(3)
O17_4 O 1.0000 0.8326(5) 0.4667(4)
O18_4 O 1.0000 0.7268(5) 0.4675(5)
O23_2 O 0.9278(9) 0.7375(3) 0.6018(3)
O26_2 O 0.8984(8) 0.7783(3) 0.5354(3)
Zr5_2 Zr 0.89956(19) 0.83305(6) 0.5000
Zr7_4 Zr 1.0000 0.77795(6) 0.42988(5)
Zr10_2 Zr 0.90000(19) 0.72413(6) 0.5000
Zr12_4 Zr 0.60000(19) 0.77587(6) 1.0000
O2_3 O 0.2213(12) 0.2760(5) 0.5000
O4_3 O 0.0886(13) 0.3432(4) 0.5000
O9_3 O 0.0901(11) 0.0989(4) 0.5000
O10_3 O 0.1016(8) 0.2217(3) 0.4646(3)
O11_3 O 0.2273(12) 0.1689(4) 0.5000
O19_2 O 0.0732(8) 0.1819(3) 0.3982(2)
O21_2 O 0.1415(8) 0.1438(3) 0.4404(3)
O22_3 O 0.0722(9) 0.2625(3) 0.3982(3)
O24_3 O 0.1417(10) 0.2980(3) 0.4414(3)
O25_3 O 0.1417(10) 0.2980(3) 0.5586(3)
C1_3 C 0.8790(14) 0.1545(5) 0.4066(4)
C2_3 C 0.8493(12) 0.1303(4) 0.3730(4)
C3_3 C 0.7925(11) 0.1012(5) 0.3779(4)
H1_3 H 0.7715 0.0963 0.4026
C4_3 C 0.7670(11) 0.0794(4) 0.3455(4)
H2_3 H 0.7328 0.0572 0.3484
C5_3 C 0.7938(13) 0.0913(5) 0.3075(4)
C6_3 C 0.8468(12) 0.1226(5) 0.3042(4)
H3_3 H 0.8627 0.1311 0.2793
C7_3 C 0.8764(12) 0.1413(4) 0.3363(4)
H4_3 H 0.9147 0.1615 0.3337
C8_3 C 0.7573(14) 0.0752(4) 0.2716(4)
C9_3 C 0.7475(15) 0.0336(4) 0.2641(4)
C10_3 C 0.7194(14) 0.0203(4) 0.2279(4)
C11_3 C 0.6937(14) 0.0499(5) 0.2001(4)
H5_3 H 0.6701 0.0416 0.1768
C12_3 C 0.7045(16) 0.0909(4) 0.2084(4)
C13_3 C 0.7349(13) 0.1027(4) 0.2432(4)
H6_3 H 0.7409 0.1311 0.2481
C14_3 C 0.6843(16) 0.1221(5) 0.1781(4)
C15_3 C 0.7071(14) 0.1153(5) 0.1403(4)
H7_3 H 0.7390 0.0930 0.1338
C16_3 C 0.6805(15) 0.1430(5) 0.1119(4)
H8_3 H 0.6923 0.1382 0.0855
C17_3 C 0.6370(16) 0.1777(5) 0.1218(4)
C18_3 C 0.6259(16) 0.1861(5) 0.1610(4)
H9_3 H 0.6023 0.2109 0.1687
C19_3 C 0.6495(15) 0.1582(5) 0.1888(4)
H10_3 H 0.6415 0.1640 0.2153
C20_3 C 0.6153(16) 0.2093(5) 0.0935(4)
N1_5 N 0.7699(16) -0.0000 0.2866(5)
H11_5 H 0.7925 -0.0000 0.3093
O5_3 O 0.9268(8) 0.1819(3) 0.3982(2)
O7_3 O 0.5722(9) 0.2375(3) 0.1018(3)
O8_3 O 0.6417(10) 0.2020(3) 0.0586(3)
O23_3 O 0.9278(9) 0.2625(3) 0.3982(3)
Zr9_2 Zr 0.5000 0.27795(6) 0.07012(5)
N1_6 N 0.7699(16) 1.0000 0.2866(5)
H11_6 H 0.7925 1.0000 0.3093
C21_3 C 0.8790(14) 0.8455(5) 0.4066(4)
C22_3 C 0.8493(12) 0.8697(4) 0.3730(4)
C23_3 C 0.7925(11) 0.8988(5) 0.3779(4)
H12_3 H 0.7715 0.9037 0.4026
C24_3 C 0.7670(11) 0.9206(4) 0.3455(4)
H13_3 H 0.7328 0.9428 0.3484
C25_3 C 0.7938(13) 0.9087(5) 0.3075(4)
C26_3 C 0.8468(12) 0.8774(5) 0.3042(4)
H14_3 H 0.8627 0.8689 0.2793
C27_3 C 0.8764(12) 0.8587(4) 0.3363(4)
H15_3 H 0.9147 0.8385 0.3337
C28_3 C 0.7573(14) 0.9248(4) 0.2716(4)
C29_3 C 0.7475(15) 0.9664(4) 0.2641(4)
C30_3 C 0.7194(14) 0.9797(4) 0.2279(4)
C31_3 C 0.6937(14) 0.9501(5) 0.2001(4)
H16_3 H 0.6701 0.9584 0.1768
C32_3 C 0.7045(16) 0.9091(4) 0.2084(4)
C33_3 C 0.7349(13) 0.8973(4) 0.2432(4)
H17_3 H 0.7409 0.8689 0.2481
C34_3 C 0.6843(16) 0.8779(5) 0.1781(4)
C35_3 C 0.7071(14) 0.8847(5) 0.1403(4)
H18_3 H 0.7390 0.9070 0.1338
C36_3 C 0.6805(15) 0.8570(5) 0.1119(4)
H19_3 H 0.6923 0.8618 0.0855
C37_3 C 0.6370(16) 0.8223(5) 0.1218(4)
C38_3 C 0.6259(16) 0.8139(5) 0.1610(4)
H20_3 H 0.6023 0.7891 0.1687
C39_3 C 0.6495(15) 0.8418(5) 0.1888(4)
H21_3 H 0.6415 0.8360 0.2153
C40_3 C 0.6153(16) 0.7907(5) 0.0935(4)
O12_2 O 0.9268(8) 0.8181(3) 0.3982(2)
O13_2 O 0.8585(8) 0.8562(3) 0.4404(3)
O14_3 O 0.5722(9) 0.7625(3) 0.1018(3)
O15_3 O 0.6417(10) 0.7980(3) 0.0586(3)
Zr8_2 Zr 0.5000 0.72205(6) 0.07012(5)
N1_7 N 0.2301(16) 0.0000 0.2866(5)
H11_7 H 0.2075 -0.0000 0.3093
C21_4 C 0.1210(14) 0.1545(5) 0.4066(4)
C22_4 C 0.1507(12) 0.1303(4) 0.3730(4)
C23_4 C 0.2075(11) 0.1012(5) 0.3779(4)
H12_4 H 0.2285 0.0963 0.4026
C24_4 C 0.2330(11) 0.0794(4) 0.3455(4)
H13_4 H 0.2672 0.0572 0.3484
C25_4 C 0.2062(13) 0.0913(5) 0.3075(4)
C26_4 C 0.1532(12) 0.1226(5) 0.3042(4)
H14_4 H 0.1373 0.1311 0.2793
C27_4 C 0.1236(12) 0.1413(4) 0.3363(4)
H15_4 H 0.0853 0.1615 0.3337
C28_4 C 0.2427(14) 0.0752(4) 0.2716(4)
C29_4 C 0.2525(15) 0.0336(4) 0.2641(4)
C30_4 C 0.2806(14) 0.0203(4) 0.2279(4)
C31_4 C 0.3063(14) 0.0499(5) 0.2001(4)
H16_4 H 0.3299 0.0416 0.1768
C32_4 C 0.2955(16) 0.0909(4) 0.2084(4)
C33_4 C 0.2651(13) 0.1027(4) 0.2432(4)
H17_4 H 0.2591 0.1311 0.2481
C34_4 C 0.3157(16) 0.1221(5) 0.1781(4)
C35_4 C 0.2929(14) 0.1153(5) 0.1403(4)
H18_4 H 0.2610 0.0930 0.1338
C36_4 C 0.3195(15) 0.1430(5) 0.1119(4)
H19_4 H 0.3077 0.1382 0.0855
C37_4 C 0.3630(16) 0.1777(5) 0.1218(4)
C38_4 C 0.3741(16) 0.1861(5) 0.1610(4)
H20_4 H 0.3977 0.2109 0.1687
C39_4 C 0.3505(15) 0.1582(5) 0.1888(4)
H21_4 H 0.3585 0.1640 0.2153
C40_4 C 0.3847(16) 0.2093(5) 0.0935(4)
O14_4 O 0.4278(9) 0.2375(3) 0.1018(3)
O15_4 O 0.3583(10) 0.2020(3) 0.0586(3)
C1_4 C 0.1210(14) 0.8455(5) 0.4066(4)
C2_4 C 0.1507(12) 0.8697(4) 0.3730(4)
C3_4 C 0.2075(11) 0.8988(5) 0.3779(4)
H1_4 H 0.2285 0.9037 0.4026
C4_4 C 0.2330(11) 0.9206(4) 0.3455(4)
H2_4 H 0.2672 0.9428 0.3484
C5_4 C 0.2062(13) 0.9087(5) 0.3075(4)
C6_4 C 0.1532(12) 0.8774(5) 0.3042(4)
H3_4 H 0.1373 0.8689 0.2793
C7_4 C 0.1236(12) 0.8587(4) 0.3363(4)
H4_4 H 0.0853 0.8385 0.3337
C8_4 C 0.2427(14) 0.9248(4) 0.2716(4)
C9_4 C 0.2525(15) 0.9664(4) 0.2641(4)
C10_4 C 0.2806(14) 0.9797(4) 0.2279(4)
C11_4 C 0.3063(14) 0.9501(5) 0.2001(4)
H5_4 H 0.3299 0.9584 0.1768
C12_4 C 0.2955(16) 0.9091(4) 0.2084(4)
C13_4 C 0.2651(13) 0.8973(4) 0.2432(4)
H6_4 H 0.2591 0.8689 0.2481
C14_4 C 0.3157(16) 0.8779(5) 0.1781(4)
C15_4 C 0.2929(14) 0.8847(5) 0.1403(4)
H7_4 H 0.2610 0.9070 0.1338
C16_4 C 0.3195(15) 0.8570(5) 0.1119(4)
H8_4 H 0.3077 0.8618 0.0855
C17_4 C 0.3630(16) 0.8223(5) 0.1218(4)
C18_4 C 0.3741(16) 0.8139(5) 0.1610(4)
H9_4 H 0.3977 0.7891 0.1687
C19_4 C 0.3505(15) 0.8418(5) 0.1888(4)
H10_4 H 0.3585 0.8360 0.2153
C20_4 C 0.3847(16) 0.7907(5) 0.0935(4)
N1_8 N 0.2301(16) 1.0000 0.2866(5)
H11_8 H 0.2075 1.0000 0.3093
O5_4 O 0.0732(8) 0.8181(3) 0.3982(2)
O7_4 O 0.4278(9) 0.7625(3) 0.1018(3)
O8_4 O 0.3583(10) 0.7980(3) 0.0586(3)
O23_4 O 0.0722(9) 0.7375(3) 0.3982(3)
O2_4 O 0.7787(12) 0.7240(5) 0.5000
O4_4 O 0.9114(13) 0.6568(4) 0.5000
O9_4 O 0.9099(11) 0.9011(4) 0.5000
O10_4 O 0.8984(8) 0.7783(3) 0.4646(3)
O11_4 O 0.7727(12) 0.8311(4) 0.5000
O22_4 O 0.9278(9) 0.7375(3) 0.3982(3)
O24_4 O 0.8583(10) 0.7020(3) 0.4414(3)
O25_4 O 0.8583(10) 0.7020(3) 0.5586(3)
C1_5 C 0.6210(14) 0.6545(5) 0.0934(4)
C2_5 C 0.6507(12) 0.6303(4) 0.1270(4)
C3_5 C 0.7075(11) 0.6012(5) 0.1221(4)
H1_5 H 0.7285 0.5963 0.0974
C4_5 C 0.7330(11) 0.5794(4) 0.1545(4)
H2_5 H 0.7672 0.5572 0.1516
C5_5 C 0.7062(13) 0.5913(5) 0.1925(4)
C6_5 C 0.6532(12) 0.6226(5) 0.1958(4)
H3_5 H 0.6373 0.6311 0.2207
C7_5 C 0.6236(12) 0.6413(4) 0.1637(4)
H4_5 H 0.5853 0.6615 0.1663
C8_5 C 0.7427(14) 0.5752(4) 0.2284(4)
C9_5 C 0.7525(15) 0.5336(4) 0.2359(4)
C10_5 C 0.7806(14) 0.5203(4) 0.2721(4)
C11_5 C 0.8063(14) 0.5499(5) 0.2999(4)
H5_5 H 0.8299 0.5416 0.3232
C12_5 C 0.7955(16) 0.5909(4) 0.2916(4)
C13_5 C 0.7651(13) 0.6027(4) 0.2568(4)
H6_5 H 0.7591 0.6311 0.2519
C14_5 C 0.8157(16) 0.6221(5) 0.3219(4)
C15_5 C 0.7929(14) 0.6153(5) 0.3597(4)
H7_5 H 0.7610 0.5930 0.3662
C16_5 C 0.8195(15) 0.6430(5) 0.3881(4)
H8_5 H 0.8077 0.6382 0.4145
C17_5 C 0.8630(16) 0.6777(5) 0.3782(4)
C18_5 C 0.8741(16) 0.6861(5) 0.3390(4)
H9_5 H 0.8977 0.7109 0.3313
C19_5 C 0.8505(15) 0.6582(5) 0.3112(4)
H10_5 H 0.8585 0.6640 0.2847
C20_5 C 0.8847(16) 0.7093(5) 0.4065(4)
N1_9 N 0.7301(16) 0.5000 0.2134(5)
H11_9 H 0.7075 0.5000 0.1907
O1_5 O 0.5000 0.6674(5) 0.0333(4)
O2_5 O 0.2787(12) 0.7760(5) -0.0000
O3_5 O 0.5000 0.7732(5) 0.0325(5)
O4_5 O 0.4114(13) 0.8432(4) -0.0000
O5_5 O 0.5732(8) 0.6819(3) 0.1018(2)
O6_3 O 0.6415(8) 0.6438(3) 0.0596(3)
O9_5 O 0.4099(11) 0.5989(4) -0.0000
O10_5 O 0.3984(8) 0.7217(3) 0.0354(3)
O11_5 O 0.2727(12) 0.6689(4) -0.0000
Zr1_2 Zr 0.39956(19) 0.66695(6) -0.0000
C21_5 C 0.6210(14) 0.3455(5) 0.0934(4)
C22_5 C 0.6507(12) 0.3697(4) 0.1270(4)
C23_5 C 0.7075(11) 0.3988(5) 0.1221(4)
H12_5 H 0.7285 0.4037 0.0974
C24_5 C 0.7330(11) 0.4206(4) 0.1545(4)
H13_5 H 0.7672 0.4428 0.1516
C25_5 C 0.7062(13) 0.4087(5) 0.1925(4)
C26_5 C 0.6532(12) 0.3774(5) 0.1958(4)
H14_5 H 0.6373 0.3689 0.2207
C27_5 C 0.6236(12) 0.3587(4) 0.1637(4)
H15_5 H 0.5853 0.3385 0.1663
C28_5 C 0.7427(14) 0.4248(4) 0.2284(4)
C29_5 C 0.7525(15) 0.4664(4) 0.2359(4)
C30_5 C 0.7806(14) 0.4797(4) 0.2721(4)
C31_5 C 0.8063(14) 0.4501(5) 0.2999(4)
H16_5 H 0.8299 0.4584 0.3232
C32_5 C 0.7955(16) 0.4091(4) 0.2916(4)
C33_5 C 0.7651(13) 0.3973(4) 0.2568(4)
H17_5 H 0.7591 0.3689 0.2519
C34_5 C 0.8157(16) 0.3779(5) 0.3219(4)
C35_5 C 0.7929(14) 0.3847(5) 0.3597(4)
H18_5 H 0.7610 0.4070 0.3662
C36_5 C 0.8195(15) 0.3570(5) 0.3881(4)
H19_5 H 0.8077 0.3618 0.4145
C37_5 C 0.8630(16) 0.3223(5) 0.3782(4)
C38_5 C 0.8741(16) 0.3139(5) 0.3390(4)
H20_5 H 0.8977 0.2891 0.3313
C39_5 C 0.8505(15) 0.3418(5) 0.3112(4)
H21_5 H 0.8585 0.3360 0.2847
C40_5 C 0.8847(16) 0.2907(5) 0.4065(4)
O12_3 O 0.5732(8) 0.3181(3) 0.1018(2)
O13_3 O 0.6415(8) 0.3562(3) 0.0596(3)
O19_3 O 0.4268(8) 0.6819(3) 0.1018(2)
O21_3 O 0.3585(8) 0.6438(3) 0.0596(3)
O26_3 O 0.6016(8) 0.7217(3) 0.0354(3)
Zr4_2 Zr 0.60044(19) 0.33305(6) -0.0000
Zr5_3 Zr 0.60044(19) 0.66695(6) -0.0000
H22 H 0.26011 0.799681 0.0151993
H24 H 0.386805 0.854586 0.0233857
H25 H 0.46571 0.850663 -5.55112e-17
H26 H 0.408644 0.588689 0.0269655
H28 H 0.255368 0.694735 0.012162
O2_6 O 0.2787(12) 0.7760(5) 1.0000
O4_6 O 0.4114(13) 0.8432(4) 1.0000
O9_6 O 0.4099(11) 0.5989(4) 1.0000
O11_6 O 0.2727(12) 0.6689(4) 1.0000
Zr1_3 Zr 0.39956(19) 0.66695(6) 1.0000
O16_3 O 0.3984(8) 0.7217(3) 0.9646(3)
O17_5 O 0.5000 0.6674(5) 0.9667(4)
O18_5 O 0.5000 0.7732(5) 0.9675(5)
O20_3 O 0.3585(8) 0.6438(3) 0.9404(3)
Zr4_3 Zr 0.60044(19) 0.33305(6) 1.0000
Zr5_4 Zr 0.60044(19) 0.66695(6) 1.0000
H23 H 0.260031 0.778144 0.973071
H25_2 H 0.46571 0.850663 1
H27 H 0.367298 0.586844 0.985278
H29 H 0.253947 0.667574 0.973039
C1_6 C 0.3790(14) 0.3455(5) 0.0934(4)
C2_6 C 0.3493(12) 0.3697(4) 0.1270(4)
C3_6 C 0.2925(11) 0.3988(5) 0.1221(4)
H1_6 H 0.2715 0.4037 0.0974
C4_6 C 0.2670(11) 0.4206(4) 0.1545(4)
H2_6 H 0.2328 0.4428 0.1516
C5_6 C 0.2938(13) 0.4087(5) 0.1925(4)
C6_6 C 0.3468(12) 0.3774(5) 0.1958(4)
H3_6 H 0.3627 0.3689 0.2207
C7_6 C 0.3764(12) 0.3587(4) 0.1637(4)
H4_6 H 0.4147 0.3385 0.1663
C8_6 C 0.2573(14) 0.4248(4) 0.2284(4)
C9_6 C 0.2475(15) 0.4664(4) 0.2359(4)
C10_6 C 0.2194(14) 0.4797(4) 0.2721(4)
C11_6 C 0.1937(14) 0.4501(5) 0.2999(4)
H5_6 H 0.1701 0.4584 0.3232
C12_6 C 0.2045(16) 0.4091(4) 0.2916(4)
C13_6 C 0.2349(13) 0.3973(4) 0.2568(4)
H6_6 H 0.2409 0.3689 0.2519
C14_6 C 0.1843(16) 0.3779(5) 0.3219(4)
C15_6 C 0.2071(14) 0.3847(5) 0.3597(4)
H7_6 H 0.2390 0.4070 0.3662
C16_6 C 0.1805(15) 0.3570(5) 0.3881(4)
H8_6 H 0.1923 0.3618 0.4145
C17_6 C 0.1370(16) 0.3223(5) 0.3782(4)
C18_6 C 0.1259(16) 0.3139(5) 0.3390(4)
H9_6 H 0.1023 0.2891 0.3313
C19_6 C 0.1495(15) 0.3418(5) 0.3112(4)
H10_6 H 0.1415 0.3360 0.2847
C20_6 C 0.1153(16) 0.2907(5) 0.4065(4)
N1_10 N 0.2699(16) 0.5000 0.2134(5)
H11_10 H 0.2925 0.5000 0.1907
O1_6 O 0.5000 0.3326(5) 0.0333(4)
O2_7 O 0.7213(12) 0.2240(5) -0.0000
O3_6 O 0.5000 0.2268(5) 0.0325(5)
O4_7 O 0.5886(13) 0.1568(4) -0.0000
O5_6 O 0.4268(8) 0.3181(3) 0.1018(2)
O6_4 O 0.3585(8) 0.3562(3) 0.0596(3)
O9_7 O 0.5901(11) 0.4011(4) -0.0000
O10_6 O 0.6016(8) 0.2783(3) 0.0354(3)
O11_7 O 0.7273(12) 0.3311(4) -0.0000
C21_6 C 0.3790(14) 0.6545(5) 0.0934(4)
C22_6 C 0.3493(12) 0.6303(4) 0.1270(4)
C23_6 C 0.2925(11) 0.6012(5) 0.1221(4)
H12_6 H 0.2715 0.5963 0.0974
C24_6 C 0.2670(11) 0.5794(4) 0.1545(4)
H13_6 H 0.2328 0.5572 0.1516
C25_6 C 0.2938(13) 0.5913(5) 0.1925(4)
C26_6 C 0.3468(12) 0.6226(5) 0.1958(4)
H14_6 H 0.3627 0.6311 0.2207
C27_6 C 0.3764(12) 0.6413(4) 0.1637(4)
H15_6 H 0.4147 0.6615 0.1663
C28_6 C 0.2573(14) 0.5752(4) 0.2284(4)
C29_6 C 0.2475(15) 0.5336(4) 0.2359(4)
C30_6 C 0.2194(14) 0.5203(4) 0.2721(4)
C31_6 C 0.1937(14) 0.5499(5) 0.2999(4)
H16_6 H 0.1701 0.5416 0.3232
C32_6 C 0.2045(16) 0.5909(4) 0.2916(4)
C33_6 C 0.2349(13) 0.6027(4) 0.2568(4)
H17_6 H 0.2409 0.6311 0.2519
C34_6 C 0.1843(16) 0.6221(5) 0.3219(4)
C35_6 C 0.2071(14) 0.6153(5) 0.3597(4)
H18_6 H 0.2390 0.5930 0.3662
C36_6 C 0.1805(15) 0.6430(5) 0.3881(4)
H19_6 H 0.1923 0.6382 0.4145
C37_6 C 0.1370(16) 0.6777(5) 0.3782(4)
C38_6 C 0.1259(16) 0.6861(5) 0.3390(4)
H20_6 H 0.1023 0.7109 0.3313
C39_6 C 0.1495(15) 0.6582(5) 0.3112(4)
H21_6 H 0.1415 0.6640 0.2847
C40_6 C 0.1153(16) 0.7093(5) 0.4065(4)
O26_4 O 0.3984(8) 0.2783(3) 0.0354(3)
Zr5_5 Zr 0.39956(19) 0.33305(6) -0.0000
H22_2 H 0.73989 0.200319 0.0151993
H24_2 H 0.613195 0.145414 0.0233857
H25_3 H 0.53429 0.149337 -5.55112e-17
H26_2 H 0.591356 0.411311 0.0269655
H28_2 H 0.744632 0.305265 0.012162
O2_8 O 0.7213(12) 0.2240(5) 1.0000
O4_8 O 0.5886(13) 0.1568(4) 1.0000
O9_8 O 0.5901(11) 0.4011(4) 1.0000
O11_8 O 0.7273(12) 0.3311(4) 1.0000
O16_4 O 0.6016(8) 0.2783(3) 0.9646(3)
O17_6 O 0.5000 0.3326(5) 0.9667(4)
O18_6 O 0.5000 0.2268(5) 0.9675(5)
O20_4 O 0.6415(8) 0.3562(3) 0.9404(3)
Zr5_6 Zr 0.39956(19) 0.33305(6) 1.0000
H23_2 H 0.739969 0.221856 0.973071
H25_4 H 0.53429 0.149337 1
H27_2 H 0.632702 0.413156 0.985278
H29_2 H 0.746053 0.332426 0.973039
O2_9 O 0.7213(12) 0.7760(5) 0.0000
O4_9 O 0.5886(13) 0.8432(4) 0.0000
O9_9 O 0.5901(11) 0.5989(4) 0.0000
O11_9 O 0.7273(12) 0.6689(4) 0.0000
H23_3 H 0.739969 0.778144 0.026929
H25_5 H 0.53429 0.850663 5.55112e-17
H27_3 H 0.632702 0.586844 0.0147216
H29_3 H 0.746053 0.667574 0.0269605
C1_7 C 0.3790(14) 0.6545(5) 0.9066(4)
C2_7 C 0.3493(12) 0.6303(4) 0.8730(4)
C3_7 C 0.2925(11) 0.6012(5) 0.8779(4)
H1_7 H 0.2715 0.5963 0.9026
C4_7 C 0.2670(11) 0.5794(4) 0.8455(4)
H2_7 H 0.2328 0.5572 0.8484
C5_7 C 0.2938(13) 0.5913(5) 0.8075(4)
C6_7 C 0.3468(12) 0.6226(5) 0.8042(4)
H3_7 H 0.3627 0.6311 0.7793
C7_7 C 0.3764(12) 0.6413(4) 0.8363(4)
H4_7 H 0.4147 0.6615 0.8337
C8_7 C 0.2573(14) 0.5752(4) 0.7716(4)
C9_7 C 0.2475(15) 0.5336(4) 0.7641(4)
C10_7 C 0.2194(14) 0.5203(4) 0.7279(4)
C11_7 C 0.1937(14) 0.5499(5) 0.7001(4)
H5_7 H 0.1701 0.5416 0.6768
C12_7 C 0.2045(16) 0.5909(4) 0.7084(4)
C13_7 C 0.2349(13) 0.6027(4) 0.7432(4)
H6_7 H 0.2409 0.6311 0.7481
C14_7 C 0.1843(16) 0.6221(5) 0.6781(4)
C15_7 C 0.2071(14) 0.6153(5) 0.6403(4)
H7_7 H 0.2390 0.5930 0.6338
C16_7 C 0.1805(15) 0.6430(5) 0.6119(4)
H8_7 H 0.1923 0.6382 0.5855
C17_7 C 0.1370(16) 0.6777(5) 0.6218(4)
C18_7 C 0.1259(16) 0.6861(5) 0.6610(4)
H9_7 H 0.1023 0.7109 0.6687
C19_7 C 0.1495(15) 0.6582(5) 0.6888(4)
H10_7 H 0.1415 0.6640 0.7153
C20_7 C 0.1153(16) 0.7093(5) 0.5935(4)
N1_11 N 0.2699(16) 0.5000 0.7866(5)
H11_11 H 0.2925 0.5000 0.8093
O2_10 O 0.7213(12) 0.7760(5) 1.0000
O4_10 O 0.5886(13) 0.8432(4) 1.0000
O5_7 O 0.4268(8) 0.6819(3) 0.8982(2)
O9_10 O 0.5901(11) 0.5989(4) 1.0000
O10_7 O 0.6016(8) 0.7217(3) 0.9646(3)
O11_10 O 0.7273(12) 0.6689(4) 1.0000
C21_7 C 0.3790(14) 0.3455(5) 0.9066(4)
C22_7 C 0.3493(12) 0.3697(4) 0.8730(4)
C23_7 C 0.2925(11) 0.3988(5) 0.8779(4)
H12_7 H 0.2715 0.4037 0.9026
C24_7 C 0.2670(11) 0.4206(4) 0.8455(4)
H13_7 H 0.2328 0.4428 0.8484
C25_7 C 0.2938(13) 0.4087(5) 0.8075(4)
C26_7 C 0.3468(12) 0.3774(5) 0.8042(4)
H14_7 H 0.3627 0.3689 0.7793
C27_7 C 0.3764(12) 0.3587(4) 0.8363(4)
H15_7 H 0.4147 0.3385 0.8337
C28_7 C 0.2573(14) 0.4248(4) 0.7716(4)
C29_7 C 0.2475(15) 0.4664(4) 0.7641(4)
C30_7 C 0.2194(14) 0.4797(4) 0.7279(4)
C31_7 C 0.1937(14) 0.4501(5) 0.7001(4)
H16_7 H 0.1701 0.4584 0.6768
C32_7 C 0.2045(16) 0.4091(4) 0.7084(4)
C33_7 C 0.2349(13) 0.3973(4) 0.7432(4)
H17_7 H 0.2409 0.3689 0.7481
C34_7 C 0.1843(16) 0.3779(5) 0.6781(4)
C35_7 C 0.2071(14) 0.3847(5) 0.6403(4)
H18_7 H 0.2390 0.4070 0.6338
C36_7 C 0.1805(15) 0.3570(5) 0.6119(4)
H19_7 H 0.1923 0.3618 0.5855
C37_7 C 0.1370(16) 0.3223(5) 0.6218(4)
C38_7 C 0.1259(16) 0.3139(5) 0.6610(4)
H20_7 H 0.1023 0.2891 0.6687
C39_7 C 0.1495(15) 0.3418(5) 0.6888(4)
H21_7 H 0.1415 0.3360 0.7153
C40_7 C 0.1153(16) 0.2907(5) 0.5935(4)
O12_4 O 0.4268(8) 0.3181(3) 0.8982(2)
O13_4 O 0.3585(8) 0.3562(3) 0.9404(3)
O19_4 O 0.5732(8) 0.6819(3) 0.8982(2)
O21_4 O 0.6415(8) 0.6438(3) 0.9404(3)
H22_3 H 0.73989 0.799681 0.984801
H24_3 H 0.613195 0.854586 0.976614
H25_6 H 0.53429 0.850663 1
H26_3 H 0.591356 0.588689 0.973034
H28_3 H 0.744632 0.694735 0.987838
O2_11 O 0.2787(12) 0.2240(5) 0.0000
O4_11 O 0.4114(13) 0.1568(4) 0.0000
O9_11 O 0.4099(11) 0.4011(4) 0.0000
O11_11 O 0.2727(12) 0.3311(4) 0.0000
H23_4 H 0.260031 0.221856 0.026929
H25_7 H 0.46571 0.149337 5.55112e-17
H27_4 H 0.367298 0.413156 0.0147216
H29_4 H 0.253947 0.332426 0.0269605
C1_8 C 0.6210(14) 0.3455(5) 0.9066(4)
C2_8 C 0.6507(12) 0.3697(4) 0.8730(4)
C3_8 C 0.7075(11) 0.3988(5) 0.8779(4)
H1_8 H 0.7285 0.4037 0.9026
C4_8 C 0.7330(11) 0.4206(4) 0.8455(4)
H2_8 H 0.7672 0.4428 0.8484
C5_8 C 0.7062(13) 0.4087(5) 0.8075(4)
C6_8 C 0.6532(12) 0.3774(5) 0.8042(4)
H3_8 H 0.6373 0.3689 0.7793
C7_8 C 0.6236(12) 0.3587(4) 0.8363(4)
H4_8 H 0.5853 0.3385 0.8337
C8_8 C 0.7427(14) 0.4248(4) 0.7716(4)
C9_8 C 0.7525(15) 0.4664(4) 0.7641(4)
C10_8 C 0.7806(14) 0.4797(4) 0.7279(4)
C11_8 C 0.8063(14) 0.4501(5) 0.7001(4)
H5_8 H 0.8299 0.4584 0.6768
C12_8 C 0.7955(16) 0.4091(4) 0.7084(4)
C13_8 C 0.7651(13) 0.3973(4) 0.7432(4)
H6_8 H 0.7591 0.3689 0.7481
C14_8 C 0.8157(16) 0.3779(5) 0.6781(4)
C15_8 C 0.7929(14) 0.3847(5) 0.6403(4)
H7_8 H 0.7610 0.4070 0.6338
C16_8 C 0.8195(15) 0.3570(5) 0.6119(4)
H8_8 H 0.8077 0.3618 0.5855
C17_8 C 0.8630(16) 0.3223(5) 0.6218(4)
C18_8 C 0.8741(16) 0.3139(5) 0.6610(4)
H9_8 H 0.8977 0.2891 0.6687
C19_8 C 0.8505(15) 0.3418(5) 0.6888(4)
H10_8 H 0.8585 0.3360 0.7153
C20_8 C 0.8847(16) 0.2907(5) 0.5935(4)
N1_12 N 0.7301(16) 0.5000 0.7866(5)
H11_12 H 0.7075 0.5000 0.8093
O2_12 O 0.2787(12) 0.2240(5) 1.0000
O4_12 O 0.4114(13) 0.1568(4) 1.0000
O5_8 O 0.5732(8) 0.3181(3) 0.8982(2)
O9_12 O 0.4099(11) 0.4011(4) 1.0000
O10_8 O 0.3984(8) 0.2783(3) 0.9646(3)
O11_12 O 0.2727(12) 0.3311(4) 1.0000
C21_8 C 0.6210(14) 0.6545(5) 0.9066(4)
C22_8 C 0.6507(12) 0.6303(4) 0.8730(4)
C23_8 C 0.7075(11) 0.6012(5) 0.8779(4)
H12_8 H 0.7285 0.5963 0.9026
C24_8 C 0.7330(11) 0.5794(4) 0.8455(4)
H13_8 H 0.7672 0.5572 0.8484
C25_8 C 0.7062(13) 0.5913(5) 0.8075(4)
C26_8 C 0.6532(12) 0.6226(5) 0.8042(4)
H14_8 H 0.6373 0.6311 0.7793
C27_8 C 0.6236(12) 0.6413(4) 0.8363(4)
H15_8 H 0.5853 0.6615 0.8337
C28_8 C 0.7427(14) 0.5752(4) 0.7716(4)
C29_8 C 0.7525(15) 0.5336(4) 0.7641(4)
C30_8 C 0.7806(14) 0.5203(4) 0.7279(4)
C31_8 C 0.8063(14) 0.5499(5) 0.7001(4)
H16_8 H 0.8299 0.5416 0.6768
C32_8 C 0.7955(16) 0.5909(4) 0.7084(4)
C33_8 C 0.7651(13) 0.6027(4) 0.7432(4)
H17_8 H 0.7591 0.6311 0.7481
C34_8 C 0.8157(16) 0.6221(5) 0.6781(4)
C35_8 C 0.7929(14) 0.6153(5) 0.6403(4)
H18_8 H 0.7610 0.5930 0.6338
C36_8 C 0.8195(15) 0.6430(5) 0.6119(4)
H19_8 H 0.8077 0.6382 0.5855
C37_8 C 0.8630(16) 0.6777(5) 0.6218(4)
C38_8 C 0.8741(16) 0.6861(5) 0.6610(4)
H20_8 H 0.8977 0.7109 0.6687
C39_8 C 0.8505(15) 0.6582(5) 0.6888(4)
H21_8 H 0.8585 0.6640 0.7153
C40_8 C 0.8847(16) 0.7093(5) 0.5935(4)
H22_4 H 0.26011 0.200319 0.984801
H24_4 H 0.386805 0.145414 0.976614
H25_8 H 0.46571 0.149337 1
H26_4 H 0.408644 0.411311 0.973034
H28_4 H 0.255368 0.305265 0.987838
H23_5 H 0.739969 0.221856 0.026929
H27_5 H 0.632702 0.413156 0.0147216
H29_5 H 0.746053 0.332426 0.0269605
H22_5 H 0.73989 0.200319 0.984801
H24_5 H 0.613195 0.145414 0.976614
H26_5 H 0.591356 0.411311 0.973034
H28_5 H 0.744632 0.305265 0.987838
H23_6 H 0.260031 0.778144 0.026929
H27_6 H 0.367298 0.586844 0.0147216
H29_6 H 0.253947 0.667574 0.0269605
H22_6 H 0.26011 0.799681 0.984801
H24_6 H 0.386805 0.854586 0.976614
H26_6 H 0.408644 0.588689 0.973034
H28_6 H 0.255368 0.694735 0.987838
H22_7 H 0.26011 0.200319 0.0151993
H24_7 H 0.386805 0.145414 0.0233857
H26_7 H 0.408644 0.411311 0.0269655
H28_7 H 0.255368 0.305265 0.012162
H23_7 H 0.260031 0.221856 0.973071
H27_7 H 0.367298 0.413156 0.985278
H29_7 H 0.253947 0.332426 0.973039
H22_8 H 0.73989 0.799681 0.0151993
H24_8 H 0.613195 0.854586 0.0233857
H26_8 H 0.591356 0.588689 0.0269655
H28_8 H 0.744632 0.694735 0.012162
H23_8 H 0.739969 0.778144 0.973071
H27_8 H 0.632702 0.586844 0.985278
H29_8 H 0.746053 0.667574 0.973039
loop_
_geom_bond_atom_site_label_1
_geom_bond_atom_site_label_2
_geom_bond_site_symmetry_1
_geom_bond_site_symmetry_2
C1 C2 1_555 1_555
C2 C3 1_555 1_555
C3 H1 1_555 1_555
C4 C3 1_555 1_555
H2 C4 1_555 1_555
C5 C4 1_555 1_555
C6 C5 1_555 1_555
H3 C6 1_555 1_555
C7 C2 1_555 1_555
H4 C7 1_555 1_555
C8 C5 1_555 1_555
C9 C8 1_555 1_555
C10 C9 1_555 1_555
C11 C10 1_555 1_555
H5 C11 1_555 1_555
C12 C11 1_555 1_555
C13 C8 1_555 1_555
H6 C13 1_555 1_555
C14 C12 1_555 1_555
C15 C14 1_555 1_555
H7 C15 1_555 1_555
C16 C15 1_555 1_555
H8 C16 1_555 1_555
C17 C16 1_555 1_555
C18 C17 1_555 1_555
H9 C18 1_555 1_555
C19 C14 1_555 1_555
H10 C19 1_555 1_555
C20 C17 1_555 1_555
N1 C9 1_555 1_555
H11 N1 1_555 1_555
O3 Zr2 1_555 1_555
O5 C1 1_555 1_555
O6 C1 1_555 1_555
O7 C20 1_555 1_555
O8 C20 1_555 1_555
Zr2 O1 1_555 1_555
O23 Zr2 1_555 1_555
O26 Zr2 1_555 1_555
Zr5 O1 1_555 1_555
Zr9 O7 1_555 1_555
Zr10 O3 1_555 1_555
Zr12_2 O8 1_555 1_555
C6 C7 1_555 1_555
C12 C13 1_555 1_555
C18 C19 1_555 1_555
O5 Zr2 1_555 1_555
O6 Zr5 1_555 1_555
O17 Zr5 1_555 1_555
O17 Zr7 1_555 1_555
O18 Zr7 1_555 1_555
O18 Zr10 1_555 1_555
O26 Zr5 1_555 1_555
O26 Zr10 1_555 1_555
H11_2 N1_2 1_555 1_555
C21 C22 1_555 1_555
C22 C23 1_555 1_555
C23 H12 1_555 1_555
C24 C23 1_555 1_555
H13 C24 1_555 1_555
C25 C24 1_555 1_555
C26 C25 1_555 1_555
H14 C26 1_555 1_555
C27 C22 1_555 1_555
H15 C27 1_555 1_555
C28 C25 1_555 1_555
C29 N1_2 1_555 1_555
C31 C30 1_555 1_555
H16 C31 1_555 1_555
C32 C31 1_555 1_555
C33 C28 1_555 1_555
H17 C33 1_555 1_555
C34 C32 1_555 1_555
C35 C34 1_555 1_555
H18 C35 1_555 1_555
C36 C35 1_555 1_555
H19 C36 1_555 1_555
C37 C36 1_555 1_555
C38 C37 1_555 1_555
H20 C38 1_555 1_555
C39 C34 1_555 1_555
H21 C39 1_555 1_555
C40 C37 1_555 1_555
O12 C21 1_555 1_555
O13 C21 1_555 1_555
O14 C40 1_555 1_555
O15 C40 1_555 1_555
Zr4 O13 1_555 1_555
Zr6 O12 1_555 1_555
Zr8 O14 1_555 1_555
Zr11_2 O15 1_555 1_555
C26 C27 1_555 1_555
C28 C29 1_555 1_555
C29 C30 1_555 1_555
C32 C33 1_555 1_555
C38 C39 1_555 1_555
O1_2 Zr1 1_555 1_555
O2 Zr3 1_555 1_555
O3_2 Zr2_2 1_555 1_555
O4 Zr3 1_555 1_555
O9 Zr1 1_555 1_555
O10 Zr1 1_555 1_555
O11 Zr1 1_555 1_555
Zr1 O16 1_555 1_555
Zr2_2 O1_2 1_555 1_555
Zr3 O3_2 1_555 1_555
O16 Zr3 1_555 1_555
O17_2 Zr1 1_555 1_555
O18_2 Zr3 1_555 1_555
O19 Zr2_2 1_555 1_555
O20 Zr1 1_555 1_555
O21 Zr1 1_555 1_555
O22 Zr2_2 1_555 1_555
O24 Zr3 1_555 1_555
O25 Zr3 1_555 1_555
Zr7_2 O16 1_555 1_555
O10 Zr2_2 1_555 1_555
O10 Zr3 1_555 1_555
O17_2 Zr7_2 1_555 1_555
O18_2 Zr7_2 1_555 1_555
O1_3 Zr4 1_555 1_555
O2_2 Zr3_2 1_555 1_555
O3_3 Zr6 1_555 1_555
O4_2 Zr3_2 1_555 1_555
O9_2 Zr4 1_555 1_555
O10_2 Zr4 1_555 1_555
O11_2 Zr4 1_555 1_555
Zr4 O16_2 1_555 1_555
Zr6 O1_3 1_555 1_555
Zr3_2 O3_3 1_555 1_555
O16_2 Zr3_2 1_555 1_555
O17_3 Zr4 1_555 1_555
O18_3 Zr3_2 1_555 1_555
O20_2 Zr4 1_555 1_555
O22_2 Zr6 1_555 1_555
O24_2 Zr3_2 1_555 1_555
O25_2 Zr3_2 1_555 1_555
Zr7_3 O16_2 1_555 1_555
O10_2 Zr6 1_555 1_555
O10_2 Zr3_2 1_555 1_555
O17_3 Zr7_3 1_555 1_555
O18_3 Zr7_3 1_555 1_555
H11_3 N1_3 1_555 1_555
C21_2 C22_2 1_555 1_555
C22_2 C23_2 1_555 1_555
C23_2 H12_2 1_555 1_555
C24_2 C23_2 1_555 1_555
H13_2 C24_2 1_555 1_555
C25_2 C24_2 1_555 1_555
C26_2 C25_2 1_555 1_555
H14_2 C26_2 1_555 1_555
C27_2 C22_2 1_555 1_555
H15_2 C27_2 1_555 1_555
C28_2 C25_2 1_555 1_555
C29_2 N1_3 1_555 1_555
C31_2 C30_2 1_555 1_555
H16_2 C31_2 1_555 1_555
C32_2 C31_2 1_555 1_555
C33_2 C28_2 1_555 1_555
H17_2 C33_2 1_555 1_555
C34_2 C32_2 1_555 1_555
C35_2 C34_2 1_555 1_555
H18_2 C35_2 1_555 1_555
C36_2 C35_2 1_555 1_555
H19_2 C36_2 1_555 1_555
C37_2 C36_2 1_555 1_555
C38_2 C37_2 1_555 1_555
H20_2 C38_2 1_555 1_555
C39_2 C34_2 1_555 1_555
H21_2 C39_2 1_555 1_555
C40_2 C37_2 1_555 1_555
O19 C21_2 1_555 1_555
O21 C21_2 1_555 1_555
O14_2 C40_2 1_555 1_555
O15_2 C40_2 1_555 1_555
Zr9 O14_2 1_555 1_555
Zr11_4 O15_2 1_555 1_555
C26_2 C27_2 1_555 1_555
C28_2 C29_2 1_555 1_555
C29_2 C30_2 1_555 1_555
C32_2 C33_2 1_555 1_555
C38_2 C39_2 1_555 1_555
C1_2 C2_2 1_555 1_555
C2_2 C3_2 1_555 1_555
C3_2 H1_2 1_555 1_555
C4_2 C3_2 1_555 1_555
H2_2 C4_2 1_555 1_555
C5_2 C4_2 1_555 1_555
C6_2 C5_2 1_555 1_555
H3_2 C6_2 1_555 1_555
C7_2 C2_2 1_555 1_555
H4_2 C7_2 1_555 1_555
C8_2 C5_2 1_555 1_555
C9_2 C8_2 1_555 1_555
C10_2 C9_2 1_555 1_555
C11_2 C10_2 1_555 1_555
H5_2 C11_2 1_555 1_555
C12_2 C11_2 1_555 1_555
C13_2 C8_2 1_555 1_555
H6_2 C13_2 1_555 1_555
C14_2 C12_2 1_555 1_555
C15_2 C14_2 1_555 1_555
H7_2 C15_2 1_555 1_555
C16_2 C15_2 1_555 1_555
H8_2 C16_2 1_555 1_555
C17_2 C16_2 1_555 1_555
C18_2 C17_2 1_555 1_555
H9_2 C18_2 1_555 1_555
C19_2 C14_2 1_555 1_555
H10_2 C19_2 1_555 1_555
C20_2 C17_2 1_555 1_555
N1_4 C9_2 1_555 1_555
H11_4 N1_4 1_555 1_555
O3_4 Zr6_2 1_555 1_555
O5_2 C1_2 1_555 1_555
O6_2 C1_2 1_555 1_555
O7_2 C20_2 1_555 1_555
O8_2 C20_2 1_555 1_555
Zr6_2 O1_4 1_555 1_555
O23_2 Zr6_2 1_555 1_555
O26_2 Zr6_2 1_555 1_555
Zr5_2 O1_4 1_555 1_555
Zr8 O7_2 1_555 1_555
Zr10_2 O3_4 1_555 1_555
Zr12_4 O8_2 1_555 1_555
C6_2 C7_2 1_555 1_555
C12_2 C13_2 1_555 1_555
C18_2 C19_2 1_555 1_555
O5_2 Zr6_2 1_555 1_555
O6_2 Zr5_2 1_555 1_555
O17_4 Zr5_2 1_555 1_555
O17_4 Zr7_4 1_555 1_555
O18_4 Zr7_4 1_555 1_555
O18_4 Zr10_2 1_555 1_555
O26_2 Zr5_2 1_555 1_555
O26_2 Zr10_2 1_555 1_555
O2_3 Zr10 1_555 1_555
O4_3 Zr10 1_555 1_555
O9_3 Zr5 1_555 1_555
O10_3 Zr5 1_555 1_555
O11_3 Zr5 1_555 1_555
O19_2 Zr7 1_555 1_555
O21_2 Zr5 1_555 1_555
O22_3 Zr7 1_555 1_555
O24_3 Zr10 1_555 1_555
O25_3 Zr10 1_555 1_555
O10_3 Zr7 1_555 1_555
O10_3 Zr10 1_555 1_555
C1_3 C2_3 1_555 1_555
C2_3 C3_3 1_555 1_555
C3_3 H1_3 1_555 1_555
C4_3 C3_3 1_555 1_555
H2_3 C4_3 1_555 1_555
C5_3 C4_3 1_555 1_555
C6_3 C5_3 1_555 1_555
H3_3 C6_3 1_555 1_555
C7_3 C2_3 1_555 1_555
H4_3 C7_3 1_555 1_555
C8_3 C5_3 1_555 1_555
C9_3 C8_3 1_555 1_555
C10_3 C9_3 1_555 1_555
C11_3 C10_3 1_555 1_555
H5_3 C11_3 1_555 1_555
C12_3 C11_3 1_555 1_555
C13_3 C8_3 1_555 1_555
H6_3 C13_3 1_555 1_555
C14_3 C12_3 1_555 1_555
C15_3 C14_3 1_555 1_555
H7_3 C15_3 1_555 1_555
C16_3 C15_3 1_555 1_555
H8_3 C16_3 1_555 1_555
C17_3 C16_3 1_555 1_555
C18_3 C17_3 1_555 1_555
H9_3 C18_3 1_555 1_555
C19_3 C14_3 1_555 1_555
H10_3 C19_3 1_555 1_555
C20_3 C17_3 1_555 1_555
N1_5 C9_3 1_555 1_555
H11_5 N1_5 1_555 1_555
O5_3 C1_3 1_555 1_555
O20 C1_3 1_555 1_555
O7_3 C20_3 1_555 1_555
O8_3 C20_3 1_555 1_555
O23_3 Zr7_2 1_555 1_555
Zr9_2 O7_3 1_555 1_555
Zr11_3 O8_3 1_555 1_555
C6_3 C7_3 1_555 1_555
C12_3 C13_3 1_555 1_555
C18_3 C19_3 1_555 1_555
O5_3 Zr7_2 1_555 1_555
H11_6 N1_6 1_555 1_555
C21_3 C22_3 1_555 1_555
C22_3 C23_3 1_555 1_555
C23_3 H12_3 1_555 1_555
C24_3 C23_3 1_555 1_555
H13_3 C24_3 1_555 1_555
C25_3 C24_3 1_555 1_555
C26_3 C25_3 1_555 1_555
H14_3 C26_3 1_555 1_555
C27_3 C22_3 1_555 1_555
H15_3 C27_3 1_555 1_555
C28_3 C25_3 1_555 1_555
C29_3 N1_6 1_555 1_555
C31_3 C30_3 1_555 1_555
H16_3 C31_3 1_555 1_555
C32_3 C31_3 1_555 1_555
C33_3 C28_3 1_555 1_555
H17_3 C33_3 1_555 1_555
C34_3 C32_3 1_555 1_555
C35_3 C34_3 1_555 1_555
H18_3 C35_3 1_555 1_555
C36_3 C35_3 1_555 1_555
H19_3 C36_3 1_555 1_555
C37_3 C36_3 1_555 1_555
C38_3 C37_3 1_555 1_555
H20_3 C38_3 1_555 1_555
C39_3 C34_3 1_555 1_555
H21_3 C39_3 1_555 1_555
C40_3 C37_3 1_555 1_555
O12_2 C21_3 1_555 1_555
O13_2 C21_3 1_555 1_555
O14_3 C40_3 1_555 1_555
O15_3 C40_3 1_555 1_555
Zr5_2 O13_2 1_555 1_555
Zr7_4 O12_2 1_555 1_555
Zr8_2 O14_3 1_555 1_555
Zr12_3 O15_3 1_555 1_555
C26_3 C27_3 1_555 1_555
C28_3 C29_3 1_555 1_555
C29_3 C30_3 1_555 1_555
C32_3 C33_3 1_555 1_555
C38_3 C39_3 1_555 1_555
H11_7 N1_7 1_555 1_555
C21_4 C22_4 1_555 1_555
C22_4 C23_4 1_555 1_555
C23_4 H12_4 1_555 1_555
C24_4 C23_4 1_555 1_555
H13_4 C24_4 1_555 1_555
C25_4 C24_4 1_555 1_555
C26_4 C25_4 1_555 1_555
H14_4 C26_4 1_555 1_555
C27_4 C22_4 1_555 1_555
H15_4 C27_4 1_555 1_555
C28_4 C25_4 1_555 1_555
C29_4 N1_7 1_555 1_555
C31_4 C30_4 1_555 1_555
H16_4 C31_4 1_555 1_555
C32_4 C31_4 1_555 1_555
C33_4 C28_4 1_555 1_555
H17_4 C33_4 1_555 1_555
C34_4 C32_4 1_555 1_555
C35_4 C34_4 1_555 1_555
H18_4 C35_4 1_555 1_555
C36_4 C35_4 1_555 1_555
H19_4 C36_4 1_555 1_555
C37_4 C36_4 1_555 1_555
C38_4 C37_4 1_555 1_555
H20_4 C38_4 1_555 1_555
C39_4 C34_4 1_555 1_555
H21_4 C39_4 1_555 1_555
C40_4 C37_4 1_555 1_555
O19_2 C21_4 1_555 1_555
O21_2 C21_4 1_555 1_555
O14_4 C40_4 1_555 1_555
O15_4 C40_4 1_555 1_555
Zr9_2 O14_4 1_555 1_555
Zr12 O15_4 1_555 1_555
C26_4 C27_4 1_555 1_555
C28_4 C29_4 1_555 1_555
C29_4 C30_4 1_555 1_555
C32_4 C33_4 1_555 1_555
C38_4 C39_4 1_555 1_555
C1_4 C2_4 1_555 1_555
C2_4 C3_4 1_555 1_555
C3_4 H1_4 1_555 1_555
C4_4 C3_4 1_555 1_555
H2_4 C4_4 1_555 1_555
C5_4 C4_4 1_555 1_555
C6_4 C5_4 1_555 1_555
H3_4 C6_4 1_555 1_555
C7_4 C2_4 1_555 1_555
H4_4 C7_4 1_555 1_555
C8_4 C5_4 1_555 1_555
C9_4 C8_4 1_555 1_555
C10_4 C9_4 1_555 1_555
C11_4 C10_4 1_555 1_555
H5_4 C11_4 1_555 1_555
C12_4 C11_4 1_555 1_555
C13_4 C8_4 1_555 1_555
H6_4 C13_4 1_555 1_555
C14_4 C12_4 1_555 1_555
C15_4 C14_4 1_555 1_555
H7_4 C15_4 1_555 1_555
C16_4 C15_4 1_555 1_555
H8_4 C16_4 1_555 1_555
C17_4 C16_4 1_555 1_555
C18_4 C17_4 1_555 1_555
H9_4 C18_4 1_555 1_555
C19_4 C14_4 1_555 1_555
H10_4 C19_4 1_555 1_555
C20_4 C17_4 1_555 1_555
N1_8 C9_4 1_555 1_555
H11_8 N1_8 1_555 1_555
O5_4 C1_4 1_555 1_555
O20_2 C1_4 1_555 1_555
O7_4 C20_4 1_555 1_555
O8_4 C20_4 1_555 1_555
O23_4 Zr7_3 1_555 1_555
Zr8_2 O7_4 1_555 1_555
Zr11 O8_4 1_555 1_555
C6_4 C7_4 1_555 1_555
C12_4 C13_4 1_555 1_555
C18_4 C19_4 1_555 1_555
O5_4 Zr7_3 1_555 1_555
O2_4 Zr10_2 1_555 1_555
O4_4 Zr10_2 1_555 1_555
O9_4 Zr5_2 1_555 1_555
O10_4 Zr5_2 1_555 1_555
O11_4 Zr5_2 1_555 1_555
O22_4 Zr7_4 1_555 1_555
O24_4 Zr10_2 1_555 1_555
O25_4 Zr10_2 1_555 1_555
O10_4 Zr7_4 1_555 1_555
O10_4 Zr10_2 1_555 1_555
C1_5 C2_5 1_555 1_555
C2_5 C3_5 1_555 1_555
C3_5 H1_5 1_555 1_555
C4_5 C3_5 1_555 1_555
H2_5 C4_5 1_555 1_555
C5_5 C4_5 1_555 1_555
C6_5 C5_5 1_555 1_555
H3_5 C6_5 1_555 1_555
C7_5 C2_5 1_555 1_555
H4_5 C7_5 1_555 1_555
C8_5 C5_5 1_555 1_555
C9_5 C8_5 1_555 1_555
C10_5 C9_5 1_555 1_555
C11_5 C10_5 1_555 1_555
H5_5 C11_5 1_555 1_555
C12_5 C11_5 1_555 1_555
C13_5 C8_5 1_555 1_555
H6_5 C13_5 1_555 1_555
C14_5 C12_5 1_555 1_555
C15_5 C14_5 1_555 1_555
H7_5 C15_5 1_555 1_555
C16_5 C15_5 1_555 1_555
H8_5 C16_5 1_555 1_555
C17_5 C16_5 1_555 1_555
C18_5 C17_5 1_555 1_555
H9_5 C18_5 1_555 1_555
C19_5 C14_5 1_555 1_555
H10_5 C19_5 1_555 1_555
C20_5 C17_5 1_555 1_555
N1_9 C9_5 1_555 1_555
H11_9 N1_9 1_555 1_555
O1_5 Zr1_2 1_555 1_555
O2_5 Zr11 1_555 1_555
O3_5 Zr8_2 1_555 1_555
O4_5 Zr11 1_555 1_555
O5_5 C1_5 1_555 1_555
O6_3 C1_5 1_555 1_555
O22_4 C20_5 1_555 1_555
O24_4 C20_5 1_555 1_555
O9_5 Zr1_2 1_555 1_555
O10_5 Zr1_2 1_555 1_555
O11_5 Zr1_2 1_555 1_555
Zr8_2 O1_5 1_555 1_555
Zr11 O3_5 1_555 1_555
C21_5 C22_5 1_555 1_555
C22_5 C23_5 1_555 1_555
C23_5 H12_5 1_555 1_555
C24_5 C23_5 1_555 1_555
H13_5 C24_5 1_555 1_555
C25_5 C24_5 1_555 1_555
C26_5 C25_5 1_555 1_555
H14_5 C26_5 1_555 1_555
C27_5 C22_5 1_555 1_555
H15_5 C27_5 1_555 1_555
C28_5 C25_5 1_555 1_555
C29_5 N1_9 1_555 1_555
C30_5 C10_5 1_555 1_555
C31_5 C30_5 1_555 1_555
H16_5 C31_5 1_555 1_555
C32_5 C31_5 1_555 1_555
C33_5 C28_5 1_555 1_555
H17_5 C33_5 1_555 1_555
C34_5 C32_5 1_555 1_555
C35_5 C34_5 1_555 1_555
H18_5 C35_5 1_555 1_555
C36_5 C35_5 1_555 1_555
H19_5 C36_5 1_555 1_555
C37_5 C36_5 1_555 1_555
C38_5 C37_5 1_555 1_555
H20_5 C38_5 1_555 1_555
C39_5 C34_5 1_555 1_555
H21_5 C39_5 1_555 1_555
C40_5 C37_5 1_555 1_555
O12_3 C21_5 1_555 1_555
O13_3 C21_5 1_555 1_555
O23_3 C40_5 1_555 1_555
O25 C40_5 1_555 1_555
O19_3 Zr8_2 1_555 1_555
O21_3 Zr1_2 1_555 1_555
O26_3 Zr8_2 1_555 1_555
Zr4_2 O13_3 1_555 1_555
Zr5_3 O1_5 1_555 1_555
Zr9_2 O12_3 1_555 1_555
Zr12_3 O3_5 1_555 1_555
C6_5 C7_5 1_555 1_555
C12_5 C13_5 1_555 1_555
C18_5 C19_5 1_555 1_555
O5_5 Zr8_2 1_555 1_555
O6_3 Zr5_3 1_555 1_555
O10_5 Zr8_2 1_555 1_555
O10_5 Zr11 1_555 1_555
C26_5 C27_5 1_555 1_555
C28_5 C29_5 1_555 1_555
C29_5 C30_5 1_555 1_555
C32_5 C33_5 1_555 1_555
C38_5 C39_5 1_555 1_555
O26_3 Zr5_3 1_555 1_555
O26_3 Zr12_3 1_555 1_555
O2_5 H22 1_555 1_555
O4_5 H24 1_555 1_555
O4_5 H25 1_555 1_555
O9_5 H26 1_555 1_555
O11_5 H28 1_555 1_555
O2_6 Zr11_2 1_555 1_555
O4_6 Zr11_2 1_555 1_555
O9_6 Zr1_3 1_555 1_555
O11_6 Zr1_3 1_555 1_555
Zr1_3 O16_3 1_555 1_555
O16_3 Zr11_2 1_555 1_555
O17_5 Zr1_3 1_555 1_555
O18_5 Zr11_2 1_555 1_555
O20_3 Zr1_3 1_555 1_555
Zr8 O16_3 1_555 1_555
O17_5 Zr5_4 1_555 1_555
O17_5 Zr8 1_555 1_555
O18_5 Zr8 1_555 1_555
O18_5 Zr12_4 1_555 1_555
O2_6 H23 1_555 1_555
O4_6 H25_2 1_555 1_555
O9_6 H27 1_555 1_555
O11_6 H29 1_555 1_555
C1_6 C2_6 1_555 1_555
C2_6 C3_6 1_555 1_555
C3_6 H1_6 1_555 1_555
C4_6 C3_6 1_555 1_555
H2_6 C4_6 1_555 1_555
C5_6 C4_6 1_555 1_555
C6_6 C5_6 1_555 1_555
H3_6 C6_6 1_555 1_555
C7_6 C2_6 1_555 1_555
H4_6 C7_6 1_555 1_555
C8_6 C5_6 1_555 1_555
C9_6 C8_6 1_555 1_555
C10_6 C9_6 1_555 1_555
C11_6 C10_6 1_555 1_555
H5_6 C11_6 1_555 1_555
C12_6 C11_6 1_555 1_555
C13_6 C8_6 1_555 1_555
H6_6 C13_6 1_555 1_555
C14_6 C12_6 1_555 1_555
C15_6 C14_6 1_555 1_555
H7_6 C15_6 1_555 1_555
C16_6 C15_6 1_555 1_555
H8_6 C16_6 1_555 1_555
C17_6 C16_6 1_555 1_555
C18_6 C17_6 1_555 1_555
H9_6 C18_6 1_555 1_555
C19_6 C14_6 1_555 1_555
H10_6 C19_6 1_555 1_555
C20_6 C17_6 1_555 1_555
N1_10 C9_6 1_555 1_555
H11_10 N1_10 1_555 1_555
O1_6 Zr4_2 1_555 1_555
O2_7 Zr11_3 1_555 1_555
O3_6 Zr9_2 1_555 1_555
O4_7 Zr11_3 1_555 1_555
O5_6 C1_6 1_555 1_555
O6_4 C1_6 1_555 1_555
O22_3 C20_6 1_555 1_555
O24_3 C20_6 1_555 1_555
O9_7 Zr4_2 1_555 1_555
O10_6 Zr4_2 1_555 1_555
O11_7 Zr4_2 1_555 1_555
Zr9_2 O1_6 1_555 1_555
Zr11_3 O3_6 1_555 1_555
C21_6 C22_6 1_555 1_555
C22_6 C23_6 1_555 1_555
C23_6 H12_6 1_555 1_555
C24_6 C23_6 1_555 1_555
H13_6 C24_6 1_555 1_555
C25_6 C24_6 1_555 1_555
C26_6 C25_6 1_555 1_555
H14_6 C26_6 1_555 1_555
C27_6 C22_6 1_555 1_555
H15_6 C27_6 1_555 1_555
C28_6 C25_6 1_555 1_555
C29_6 N1_10 1_555 1_555
C30_6 C10_6 1_555 1_555
C31_6 C30_6 1_555 1_555
H16_6 C31_6 1_555 1_555
C32_6 C31_6 1_555 1_555
C33_6 C28_6 1_555 1_555
H17_6 C33_6 1_555 1_555
C34_6 C32_6 1_555 1_555
C35_6 C34_6 1_555 1_555
H18_6 C35_6 1_555 1_555
C36_6 C35_6 1_555 1_555
H19_6 C36_6 1_555 1_555
C37_6 C36_6 1_555 1_555
C38_6 C37_6 1_555 1_555
H20_6 C38_6 1_555 1_555
C39_6 C34_6 1_555 1_555
H21_6 C39_6 1_555 1_555
C40_6 C37_6 1_555 1_555
O19_3 C21_6 1_555 1_555
O21_3 C21_6 1_555 1_555
O23_4 C40_6 1_555 1_555
O25_2 C40_6 1_555 1_555
O26_4 Zr9_2 1_555 1_555
Zr5_5 O1_6 1_555 1_555
Zr12 O3_6 1_555 1_555
C6_6 C7_6 1_555 1_555
C12_6 C13_6 1_555 1_555
C18_6 C19_6 1_555 1_555
O5_6 Zr9_2 1_555 1_555
O6_4 Zr5_5 1_555 1_555
O10_6 Zr9_2 1_555 1_555
O10_6 Zr11_3 1_555 1_555
C26_6 C27_6 1_555 1_555
C28_6 C29_6 1_555 1_555
C29_6 C30_6 1_555 1_555
C32_6 C33_6 1_555 1_555
C38_6 C39_6 1_555 1_555
O26_4 Zr5_5 1_555 1_555
O26_4 Zr12 1_555 1_555
O2_7 H22_2 1_555 1_555
O4_7 H24_2 1_555 1_555
O4_7 H25_3 1_555 1_555
O9_7 H26_2 1_555 1_555
O11_7 H28_2 1_555 1_555
O2_8 Zr11_4 1_555 1_555
O4_8 Zr11_4 1_555 1_555
O9_8 Zr4_3 1_555 1_555
O11_8 Zr4_3 1_555 1_555
Zr4_3 O16_4 1_555 1_555
O16_4 Zr11_4 1_555 1_555
O17_6 Zr4_3 1_555 1_555
O18_6 Zr11_4 1_555 1_555
O20_4 Zr4_3 1_555 1_555
Zr9 O16_4 1_555 1_555
O17_6 Zr5_6 1_555 1_555
O17_6 Zr9 1_555 1_555
O18_6 Zr9 1_555 1_555
O18_6 Zr12_2 1_555 1_555
O2_8 H23_2 1_555 1_555
O4_8 H25_4 1_555 1_555
O9_8 H27_2 1_555 1_555
O11_8 H29_2 1_555 1_555
O2_9 Zr12_3 1_555 1_555
O4_9 Zr12_3 1_555 1_555
O9_9 Zr5_3 1_555 1_555
O11_9 Zr5_3 1_555 1_555
O2_9 H23_3 1_555 1_555
O4_9 H25_5 1_555 1_555
O9_9 H27_3 1_555 1_555
O11_9 H29_3 1_555 1_555
C1_7 C2_7 1_555 1_555
C2_7 C3_7 1_555 1_555
C3_7 H1_7 1_555 1_555
C4_7 C3_7 1_555 1_555
H2_7 C4_7 1_555 1_555
C5_7 C4_7 1_555 1_555
C6_7 C5_7 1_555 1_555
H3_7 C6_7 1_555 1_555
C7_7 C2_7 1_555 1_555
H4_7 C7_7 1_555 1_555
C8_7 C5_7 1_555 1_555
C9_7 C8_7 1_555 1_555
C10_7 C9_7 1_555 1_555
C11_7 C10_7 1_555 1_555
H5_7 C11_7 1_555 1_555
C12_7 C11_7 1_555 1_555
C13_7 C8_7 1_555 1_555
H6_7 C13_7 1_555 1_555
C14_7 C12_7 1_555 1_555
C15_7 C14_7 1_555 1_555
H7_7 C15_7 1_555 1_555
C16_7 C15_7 1_555 1_555
H8_7 C16_7 1_555 1_555
C17_7 C16_7 1_555 1_555
C18_7 C17_7 1_555 1_555
H9_7 C18_7 1_555 1_555
C19_7 C14_7 1_555 1_555
H10_7 C19_7 1_555 1_555
C20_7 C17_7 1_555 1_555
N1_11 C9_7 1_555 1_555
H11_11 N1_11 1_555 1_555
O2_10 Zr12_4 1_555 1_555
O4_10 Zr12_4 1_555 1_555
O5_7 C1_7 1_555 1_555
O20_3 C1_7 1_555 1_555
O22_2 C20_7 1_555 1_555
O24_2 C20_7 1_555 1_555
O9_10 Zr5_4 1_555 1_555
O10_7 Zr5_4 1_555 1_555
O11_10 Zr5_4 1_555 1_555
C21_7 C22_7 1_555 1_555
C22_7 C23_7 1_555 1_555
C23_7 H12_7 1_555 1_555
C24_7 C23_7 1_555 1_555
H13_7 C24_7 1_555 1_555
C25_7 C24_7 1_555 1_555
C26_7 C25_7 1_555 1_555
H14_7 C26_7 1_555 1_555
C27_7 C22_7 1_555 1_555
H15_7 C27_7 1_555 1_555
C28_7 C25_7 1_555 1_555
C29_7 N1_11 1_555 1_555
C30_7 C10_7 1_555 1_555
C31_7 C30_7 1_555 1_555
H16_7 C31_7 1_555 1_555
C32_7 C31_7 1_555 1_555
C33_7 C28_7 1_555 1_555
H17_7 C33_7 1_555 1_555
C34_7 C32_7 1_555 1_555
C35_7 C34_7 1_555 1_555
H18_7 C35_7 1_555 1_555
C36_7 C35_7 1_555 1_555
H19_7 C36_7 1_555 1_555
C37_7 C36_7 1_555 1_555
C38_7 C37_7 1_555 1_555
H20_7 C38_7 1_555 1_555
C39_7 C34_7 1_555 1_555
H21_7 C39_7 1_555 1_555
C40_7 C37_7 1_555 1_555
O12_4 C21_7 1_555 1_555
O13_4 C21_7 1_555 1_555
O23 C40_7 1_555 1_555
O25_3 C40_7 1_555 1_555
O19_4 Zr8 1_555 1_555
O21_4 Zr5_4 1_555 1_555
Zr5_6 O13_4 1_555 1_555
Zr9 O12_4 1_555 1_555
C6_7 C7_7 1_555 1_555
C12_7 C13_7 1_555 1_555
C18_7 C19_7 1_555 1_555
O5_7 Zr8 1_555 1_555
O10_7 Zr8 1_555 1_555
O10_7 Zr12_4 1_555 1_555
C26_7 C27_7 1_555 1_555
C28_7 C29_7 1_555 1_555
C29_7 C30_7 1_555 1_555
C32_7 C33_7 1_555 1_555
C38_7 C39_7 1_555 1_555
O2_10 H22_3 1_555 1_555
O4_10 H24_3 1_555 1_555
O4_10 H25_6 1_555 1_555
O9_10 H26_3 1_555 1_555
O11_10 H28_3 1_555 1_555
O2_11 Zr12 1_555 1_555
O4_11 Zr12 1_555 1_555
O9_11 Zr5_5 1_555 1_555
O11_11 Zr5_5 1_555 1_555
O2_11 H23_4 1_555 1_555
O4_11 H25_7 1_555 1_555
O9_11 H27_4 1_555 1_555
O11_11 H29_4 1_555 1_555
C1_8 C2_8 1_555 1_555
C2_8 C3_8 1_555 1_555
C3_8 H1_8 1_555 1_555
C4_8 C3_8 1_555 1_555
H2_8 C4_8 1_555 1_555
C5_8 C4_8 1_555 1_555
C6_8 C5_8 1_555 1_555
H3_8 C6_8 1_555 1_555
C7_8 C2_8 1_555 1_555
H4_8 C7_8 1_555 1_555
C8_8 C5_8 1_555 1_555
C9_8 C8_8 1_555 1_555
C10_8 C9_8 1_555 1_555
C11_8 C10_8 1_555 1_555
H5_8 C11_8 1_555 1_555
C12_8 C11_8 1_555 1_555
C13_8 C8_8 1_555 1_555
H6_8 C13_8 1_555 1_555
C14_8 C12_8 1_555 1_555
C15_8 C14_8 1_555 1_555
H7_8 C15_8 1_555 1_555
C16_8 C15_8 1_555 1_555
H8_8 C16_8 1_555 1_555
C17_8 C16_8 1_555 1_555
C18_8 C17_8 1_555 1_555
H9_8 C18_8 1_555 1_555
C19_8 C14_8 1_555 1_555
H10_8 C19_8 1_555 1_555
C20_8 C17_8 1_555 1_555
N1_12 C9_8 1_555 1_555
H11_12 N1_12 1_555 1_555
O2_12 Zr12_2 1_555 1_555
O4_12 Zr12_2 1_555 1_555
O5_8 C1_8 1_555 1_555
O20_4 C1_8 1_555 1_555
O22 C20_8 1_555 1_555
O24 C20_8 1_555 1_555
O9_12 Zr5_6 1_555 1_555
O10_8 Zr5_6 1_555 1_555
O11_12 Zr5_6 1_555 1_555
C21_8 C22_8 1_555 1_555
C22_8 C23_8 1_555 1_555
C23_8 H12_8 1_555 1_555
C24_8 C23_8 1_555 1_555
H13_8 C24_8 1_555 1_555
C25_8 C24_8 1_555 1_555
C26_8 C25_8 1_555 1_555
H14_8 C26_8 1_555 1_555
C27_8 C22_8 1_555 1_555
H15_8 C27_8 1_555 1_555
C28_8 C25_8 1_555 1_555
C29_8 N1_12 1_555 1_555
C30_8 C10_8 1_555 1_555
C31_8 C30_8 1_555 1_555
H16_8 C31_8 1_555 1_555
C32_8 C31_8 1_555 1_555
C33_8 C28_8 1_555 1_555
H17_8 C33_8 1_555 1_555
C34_8 C32_8 1_555 1_555
C35_8 C34_8 1_555 1_555
H18_8 C35_8 1_555 1_555
C36_8 C35_8 1_555 1_555
H19_8 C36_8 1_555 1_555
C37_8 C36_8 1_555 1_555
C38_8 C37_8 1_555 1_555
H20_8 C38_8 1_555 1_555
C39_8 C34_8 1_555 1_555
H21_8 C39_8 1_555 1_555
C40_8 C37_8 1_555 1_555
O19_4 C21_8 1_555 1_555
O21_4 C21_8 1_555 1_555
O23_2 C40_8 1_555 1_555
O25_4 C40_8 1_555 1_555
C6_8 C7_8 1_555 1_555
C12_8 C13_8 1_555 1_555
C18_8 C19_8 1_555 1_555
O5_8 Zr9 1_555 1_555
O10_8 Zr9 1_555 1_555
O10_8 Zr12_2 1_555 1_555
C26_8 C27_8 1_555 1_555
C28_8 C29_8 1_555 1_555
C29_8 C30_8 1_555 1_555
C32_8 C33_8 1_555 1_555
C38_8 C39_8 1_555 1_555
O2_12 H22_4 1_555 1_555
O4_12 H24_4 1_555 1_555
O4_12 H25_8 1_555 1_555
O9_12 H26_4 1_555 1_555
O11_12 H28_4 1_555 1_555
O2_7 H23_5 1_555 1_555
O9_7 H27_5 1_555 1_555
O11_7 H29_5 1_555 1_555
O2_8 H22_5 1_555 1_555
O4_8 H24_5 1_555 1_555
O9_8 H26_5 1_555 1_555
O11_8 H28_5 1_555 1_555
O2_5 H23_6 1_555 1_555
O9_5 H27_6 1_555 1_555
O11_5 H29_6 1_555 1_555
O2_6 H22_6 1_555 1_555
O4_6 H24_6 1_555 1_555
O9_6 H26_6 1_555 1_555
O11_6 H28_6 1_555 1_555
O2_11 H22_7 1_555 1_555
O4_11 H24_7 1_555 1_555
O9_11 H26_7 1_555 1_555
O11_11 H28_7 1_555 1_555
O2_12 H23_7 1_555 1_555
O9_12 H27_7 1_555 1_555
O11_12 H29_7 1_555 1_555
O2_9 H22_8 1_555 1_555
O4_9 H24_8 1_555 1_555
O9_9 H26_8 1_555 1_555
O11_9 H28_8 1_555 1_555
O2_10 H23_8 1_555 1_555
O9_10 H27_8 1_555 1_555
O11_10 H29_8 1_555 1_555

#END
