
###############################################################################
#
# This file contains modified crystal structure data generated from the
# MOF subset of the Cambridge Structural Database (CSD) v543 
# hosted by the Cambridge Crystallographic Data Centre (CCDC).
#
# This work is licensed under the Creative Commons
# Attribution-NonCommercial-ShareAlike 4.0 International License.
# To view a copy of this license, visit
# http://creativecommons.org/licenses/by-nc-sa/4.0/
# or send a letter to
# Creative Commons, PO Box 1866, Mountain View, CA 94042, USA.
#
# CIF created using the CSD Python API on 29 September 2022
# The structure has been converted into the P1 space group
# The structure has a 3D framework
# The original CSD entry GINTEF is in the orthorhombic crystal system
# The framework has been calculated to contain at least 10.0% void space
# The void calculation uses a probe of radius 1.32A, grid spacing 0.4
# H atom positions have been added when not included in the experimental data
# Generated hydrogen atom positions removed from atoms on special positions
#
###############################################################################

data_GINTEF
_chemical_formula_moiety         '(C320 H296 N12 O136 Zr36)n'
_symmetry_cell_setting           triclinic
_symmetry_space_group_name_H-M   'P 1'
_symmetry_Int_Tables_number      1
_space_group_name_Hall           'P 1'
loop_
_symmetry_equiv_pos_site_id
_symmetry_equiv_pos_as_xyz
1 x,y,z
_cell_length_a                   17.723(5)
_cell_length_b                   32.705(3)
_cell_length_c                   34.670(4)
_cell_angle_alpha                90
_cell_angle_beta                 90
_cell_angle_gamma                90
_cell_volume                     20095.8
loop_
_atom_site_label
_atom_site_type_symbol
_atom_site_fract_x
_atom_site_fract_y
_atom_site_fract_z
Zr12 Zr 0.39977(16) 0.22416(5) -0.0000
C1 C 0.1207(13) 0.1537(4) 0.5930(3)
C2 C 0.1526(12) 0.1304(4) 0.6268(4)
C3 C 0.2048(11) 0.1007(4) 0.6221(4)
H1 H 0.2240 0.0948 0.5971
C4 C 0.2294(12) 0.0795(4) 0.6530(4)
H2 H 0.2618 0.0566 0.6499
C5 C 0.2044(13) 0.0928(4) 0.6925(4)
C6 C 0.1588(12) 0.1240(4) 0.6954(4)
H3 H 0.1490 0.1351 0.7202
C7 C 0.1239(12) 0.1416(4) 0.6634(4)
H4 H 0.0830 0.1601 0.6660
C8 C 0.2430(13) 0.0753(3) 0.7275(4)
C9 C 0.2561(12) 0.0343(4) 0.7363(4)
C10 C 0.2855(11) 0.0211(3) 0.7713(3)
C11 C 0.3108(12) 0.0514(4) 0.7990(4)
H5 H 0.3416 0.0443 0.8204
C12 C 0.2876(13) 0.0909(4) 0.7927(4)
C13 C 0.2641(12) 0.1019(4) 0.7569(4)
H6 H 0.2620 0.1303 0.7514
C14 C 0.3140(14) 0.1220(4) 0.8237(4)
C15 C 0.2963(12) 0.1146(4) 0.8603(4)
H7 H 0.2693 0.0908 0.8676
C16 C 0.3197(12) 0.1441(4) 0.8879(4)
H8 H 0.3077 0.1394 0.9142
C17 C 0.3561(13) 0.1766(4) 0.8793(4)
C18 C 0.3711(13) 0.1859(4) 0.8398(4)
H9 H 0.3972 0.2101 0.8327
C19 C 0.3459(13) 0.1578(4) 0.8115(4)
H10 H 0.3510 0.1636 0.7848
C20 C 0.3821(13) 0.2097(5) 0.9066(4)
N1 N 0.2277(13) -0.0000 0.7129(4)
H11 H 0.2015 -0.0000 0.6914
O1 O 0.0000 0.1656(4) 0.5335(4)
O3 O 0.0000 0.2743(4) 0.5321(4)
O5 O 0.0798(7) 0.1823(2) 0.6016(2)
O6 O 0.1415(6) 0.1438(2) 0.5588(2)
O7 O 0.4275(7) 0.2374(2) 0.8984(2)
O8 O 0.3553(8) 0.2017(3) 0.9427(3)
Zr2 Zr 0.0000 0.22215(5) 0.57000(4)
O17 O 0.0000 0.1656(4) 0.4665(4)
O18 O 0.0000 0.2743(4) 0.4679(4)
O23 O 0.0725(7) 0.2626(2) 0.6016(2)
O26 O 0.1048(6) 0.2212(2) 0.5349(2)
Zr5 Zr 0.10067(16) 0.16690(5) 0.5000
Zr7 Zr 0.0000 0.22215(5) 0.43000(4)
Zr9 Zr 0.5000 0.27785(5) 0.93000(4)
Zr10 Zr 0.10023(16) 0.27584(5) 0.5000
Zr12_2 Zr 0.39977(16) 0.22416(5) 1.0000
Zr11 Zr 0.39977(16) 0.77584(5) -0.0000
N1_2 N 0.2277(13) 1.0000 0.7129(4)
H11_2 H 0.2015 1.0000 0.6914
C21 C 0.1207(13) 0.8463(4) 0.5930(3)
C22 C 0.1526(12) 0.8696(4) 0.6268(4)
C23 C 0.2048(11) 0.8993(4) 0.6221(4)
H12 H 0.2240 0.9052 0.5971
C24 C 0.2294(12) 0.9205(4) 0.6530(4)
H13 H 0.2618 0.9434 0.6499
C25 C 0.2044(13) 0.9072(4) 0.6925(4)
C26 C 0.1588(12) 0.8760(4) 0.6954(4)
H14 H 0.1490 0.8649 0.7202
C27 C 0.1239(12) 0.8584(4) 0.6634(4)
H15 H 0.0830 0.8399 0.6660
C28 C 0.2430(13) 0.9247(3) 0.7275(4)
C29 C 0.2561(12) 0.9657(4) 0.7363(4)
C30 C 0.2855(11) 0.9789(3) 0.7713(3)
C31 C 0.3108(12) 0.9486(4) 0.7990(4)
H16 H 0.3416 0.9557 0.8204
C32 C 0.2876(13) 0.9091(4) 0.7927(4)
C33 C 0.2641(12) 0.8981(4) 0.7569(4)
H17 H 0.2620 0.8697 0.7514
C34 C 0.3140(14) 0.8780(4) 0.8237(4)
C35 C 0.2963(12) 0.8854(4) 0.8603(4)
H18 H 0.2693 0.9092 0.8676
C36 C 0.3197(12) 0.8559(4) 0.8879(4)
H19 H 0.3077 0.8606 0.9142
C37 C 0.3561(13) 0.8234(4) 0.8793(4)
C38 C 0.3711(13) 0.8141(4) 0.8398(4)
H20 H 0.3972 0.7899 0.8327
C39 C 0.3459(13) 0.8422(4) 0.8115(4)
H21 H 0.3510 0.8364 0.7848
C40 C 0.3821(13) 0.7903(5) 0.9066(4)
O12 O 0.0798(7) 0.8177(2) 0.6016(2)
O13 O 0.1415(6) 0.8562(2) 0.5588(2)
O14 O 0.4275(7) 0.7626(2) 0.8984(2)
O15 O 0.3553(8) 0.7983(3) 0.9427(3)
Zr4 Zr 0.10067(16) 0.83310(5) 0.5000
Zr6 Zr 0.0000 0.77785(5) 0.57000(4)
Zr8 Zr 0.5000 0.72215(5) 0.93000(4)
Zr11_2 Zr 0.39977(16) 0.77584(5) 1.0000
O1_2 O 1.0000 0.1656(4) 0.5335(4)
O2 O 0.7792(9) 0.2740(4) 0.5000
O3_2 O 1.0000 0.2743(4) 0.5321(4)
O4 O 0.9125(10) 0.3423(3) 0.5000
O9 O 0.9117(9) 0.0982(3) 0.5000
O10 O 0.8952(6) 0.2212(2) 0.5349(2)
O11 O 0.7765(10) 0.1685(4) 0.5000
Zr1 Zr 0.89933(16) 0.16690(5) 0.5000
Zr2_2 Zr 1.0000 0.22215(5) 0.57000(4)
Zr3 Zr 0.89977(16) 0.27584(5) 0.5000
O16 O 0.8952(6) 0.2212(2) 0.4651(2)
O17_2 O 1.0000 0.1656(4) 0.4665(4)
O18_2 O 1.0000 0.2743(4) 0.4679(4)
O19 O 0.9202(7) 0.1823(2) 0.6016(2)
O20 O 0.8585(6) 0.1438(2) 0.4412(2)
O21 O 0.8585(6) 0.1438(2) 0.5588(2)
O22 O 0.9275(7) 0.2626(2) 0.6016(2)
O24 O 0.8553(8) 0.2983(3) 0.5573(3)
O25 O 0.8553(8) 0.2983(3) 0.4427(3)
Zr7_2 Zr 1.0000 0.22215(5) 0.43000(4)
Zr6_2 Zr 1.0000 0.77785(5) 0.57000(4)
O1_3 O 0.0000 0.8344(4) 0.5335(4)
O2_2 O 0.2208(9) 0.7260(4) 0.5000
O3_3 O 0.0000 0.7257(4) 0.5321(4)
O4_2 O 0.0875(10) 0.6577(3) 0.5000
O9_2 O 0.0883(9) 0.9018(3) 0.5000
O10_2 O 0.1048(6) 0.7788(2) 0.5349(2)
O11_2 O 0.2235(10) 0.8315(4) 0.5000
Zr3_2 Zr 0.10023(16) 0.72416(5) 0.5000
O16_2 O 0.1048(6) 0.7788(2) 0.4651(2)
O17_3 O 0.0000 0.8344(4) 0.4665(4)
O18_3 O 0.0000 0.7257(4) 0.4679(4)
O20_2 O 0.1415(6) 0.8562(2) 0.4412(2)
O22_2 O 0.0725(7) 0.7374(2) 0.6016(2)
O24_2 O 0.1447(8) 0.7017(3) 0.5573(3)
O25_2 O 0.1447(8) 0.7017(3) 0.4427(3)
Zr7_3 Zr -0.0000 0.77785(5) 0.43000(4)
Zr11_3 Zr 0.60023(16) 0.22416(5) -0.0000
N1_3 N 0.7723(13) -0.0000 0.7129(4)
H11_3 H 0.7985 -0.0000 0.6914
C21_2 C 0.8793(13) 0.1537(4) 0.5930(3)
C22_2 C 0.8474(12) 0.1304(4) 0.6268(4)
C23_2 C 0.7952(11) 0.1007(4) 0.6221(4)
H12_2 H 0.7760 0.0948 0.5971
C24_2 C 0.7706(12) 0.0795(4) 0.6530(4)
H13_2 H 0.7382 0.0566 0.6499
C25_2 C 0.7956(13) 0.0928(4) 0.6925(4)
C26_2 C 0.8412(12) 0.1240(4) 0.6954(4)
H14_2 H 0.8510 0.1351 0.7202
C27_2 C 0.8761(12) 0.1416(4) 0.6634(4)
H15_2 H 0.9170 0.1601 0.6660
C28_2 C 0.7570(13) 0.0753(3) 0.7275(4)
C29_2 C 0.7439(12) 0.0343(4) 0.7363(4)
C30_2 C 0.7145(11) 0.0211(3) 0.7713(3)
C31_2 C 0.6892(12) 0.0514(4) 0.7990(4)
H16_2 H 0.6584 0.0443 0.8204
C32_2 C 0.7124(13) 0.0909(4) 0.7927(4)
C33_2 C 0.7359(12) 0.1019(4) 0.7569(4)
H17_2 H 0.7380 0.1303 0.7514
C34_2 C 0.6860(14) 0.1220(4) 0.8237(4)
C35_2 C 0.7037(12) 0.1146(4) 0.8603(4)
H18_2 H 0.7307 0.0908 0.8676
C36_2 C 0.6803(12) 0.1441(4) 0.8879(4)
H19_2 H 0.6923 0.1394 0.9142
C37_2 C 0.6439(13) 0.1766(4) 0.8793(4)
C38_2 C 0.6289(13) 0.1859(4) 0.8398(4)
H20_2 H 0.6028 0.2101 0.8327
C39_2 C 0.6541(13) 0.1578(4) 0.8115(4)
H21_2 H 0.6490 0.1636 0.7848
C40_2 C 0.6179(13) 0.2097(5) 0.9066(4)
O14_2 O 0.5725(7) 0.2374(2) 0.8984(2)
O15_2 O 0.6447(8) 0.2017(3) 0.9427(3)
Zr11_4 Zr 0.60023(16) 0.22416(5) 1.0000
Zr12_3 Zr 0.60023(16) 0.77584(5) -0.0000
C1_2 C 0.8793(13) 0.8463(4) 0.5930(3)
C2_2 C 0.8474(12) 0.8696(4) 0.6268(4)
C3_2 C 0.7952(11) 0.8993(4) 0.6221(4)
H1_2 H 0.7760 0.9052 0.5971
C4_2 C 0.7706(12) 0.9205(4) 0.6530(4)
H2_2 H 0.7382 0.9434 0.6499
C5_2 C 0.7956(13) 0.9072(4) 0.6925(4)
C6_2 C 0.8412(12) 0.8760(4) 0.6954(4)
H3_2 H 0.8510 0.8649 0.7202
C7_2 C 0.8761(12) 0.8584(4) 0.6634(4)
H4_2 H 0.9170 0.8399 0.6660
C8_2 C 0.7570(13) 0.9247(3) 0.7275(4)
C9_2 C 0.7439(12) 0.9657(4) 0.7363(4)
C10_2 C 0.7145(11) 0.9789(3) 0.7713(3)
C11_2 C 0.6892(12) 0.9486(4) 0.7990(4)
H5_2 H 0.6584 0.9557 0.8204
C12_2 C 0.7124(13) 0.9091(4) 0.7927(4)
C13_2 C 0.7359(12) 0.8981(4) 0.7569(4)
H6_2 H 0.7380 0.8697 0.7514
C14_2 C 0.6860(14) 0.8780(4) 0.8237(4)
C15_2 C 0.7037(12) 0.8854(4) 0.8603(4)
H7_2 H 0.7307 0.9092 0.8676
C16_2 C 0.6803(12) 0.8559(4) 0.8879(4)
H8_2 H 0.6923 0.8606 0.9142
C17_2 C 0.6439(13) 0.8234(4) 0.8793(4)
C18_2 C 0.6289(13) 0.8141(4) 0.8398(4)
H9_2 H 0.6028 0.7899 0.8327
C19_2 C 0.6541(13) 0.8422(4) 0.8115(4)
H10_2 H 0.6490 0.8364 0.7848
C20_2 C 0.6179(13) 0.7903(5) 0.9066(4)
N1_4 N 0.7723(13) 1.0000 0.7129(4)
H11_4 H 0.7985 1.0000 0.6914
O1_4 O 1.0000 0.8344(4) 0.5335(4)
O3_4 O 1.0000 0.7257(4) 0.5321(4)
O5_2 O 0.9202(7) 0.8177(2) 0.6016(2)
O6_2 O 0.8585(6) 0.8562(2) 0.5588(2)
O7_2 O 0.5725(7) 0.7626(2) 0.8984(2)
O8_2 O 0.6447(8) 0.7983(3) 0.9427(3)
O17_4 O 1.0000 0.8344(4) 0.4665(4)
O18_4 O 1.0000 0.7257(4) 0.4679(4)
O23_2 O 0.9275(7) 0.7374(2) 0.6016(2)
O26_2 O 0.8952(6) 0.7788(2) 0.5349(2)
Zr5_2 Zr 0.89933(16) 0.83310(5) 0.5000
Zr7_4 Zr 1.0000 0.77785(5) 0.43000(4)
Zr10_2 Zr 0.89977(16) 0.72416(5) 0.5000
Zr12_4 Zr 0.60023(16) 0.77584(5) 1.0000
O2_3 O 0.2208(9) 0.2740(4) 0.5000
O4_3 O 0.0875(10) 0.3423(3) 0.5000
O9_3 O 0.0883(9) 0.0982(3) 0.5000
O10_3 O 0.1048(6) 0.2212(2) 0.4651(2)
O11_3 O 0.2235(10) 0.1685(4) 0.5000
O19_2 O 0.0798(7) 0.1823(2) 0.3984(2)
O21_2 O 0.1415(6) 0.1438(2) 0.4412(2)
O22_3 O 0.0725(7) 0.2626(2) 0.3984(2)
O24_3 O 0.1447(8) 0.2983(3) 0.4427(3)
O25_3 O 0.1447(8) 0.2983(3) 0.5573(3)
C1_3 C 0.8793(13) 0.1537(4) 0.4070(3)
C2_3 C 0.8474(12) 0.1304(4) 0.3732(4)
C3_3 C 0.7952(11) 0.1007(4) 0.3779(4)
H1_3 H 0.7760 0.0948 0.4029
C4_3 C 0.7706(12) 0.0795(4) 0.3470(4)
H2_3 H 0.7382 0.0566 0.3501
C5_3 C 0.7956(13) 0.0928(4) 0.3075(4)
C6_3 C 0.8412(12) 0.1240(4) 0.3046(4)
H3_3 H 0.8510 0.1351 0.2798
C7_3 C 0.8761(12) 0.1416(4) 0.3366(4)
H4_3 H 0.9170 0.1601 0.3340
C8_3 C 0.7570(13) 0.0753(3) 0.2725(4)
C9_3 C 0.7439(12) 0.0343(4) 0.2637(4)
C10_3 C 0.7145(11) 0.0211(3) 0.2287(3)
C11_3 C 0.6892(12) 0.0514(4) 0.2010(4)
H5_3 H 0.6584 0.0443 0.1796
C12_3 C 0.7124(13) 0.0909(4) 0.2073(4)
C13_3 C 0.7359(12) 0.1019(4) 0.2431(4)
H6_3 H 0.7380 0.1303 0.2486
C14_3 C 0.6860(14) 0.1220(4) 0.1763(4)
C15_3 C 0.7037(12) 0.1146(4) 0.1397(4)
H7_3 H 0.7307 0.0908 0.1324
C16_3 C 0.6803(12) 0.1441(4) 0.1121(4)
H8_3 H 0.6923 0.1394 0.0858
C17_3 C 0.6439(13) 0.1766(4) 0.1207(4)
C18_3 C 0.6289(13) 0.1859(4) 0.1602(4)
H9_3 H 0.6028 0.2101 0.1673
C19_3 C 0.6541(13) 0.1578(4) 0.1885(4)
H10_3 H 0.6490 0.1636 0.2152
C20_3 C 0.6179(13) 0.2097(5) 0.0934(4)
N1_5 N 0.7723(13) -0.0000 0.2871(4)
H11_5 H 0.7985 -0.0000 0.3086
O5_3 O 0.9202(7) 0.1823(2) 0.3984(2)
O7_3 O 0.5725(7) 0.2374(2) 0.1016(2)
O8_3 O 0.6447(8) 0.2017(3) 0.0573(3)
O23_3 O 0.9275(7) 0.2626(2) 0.3984(2)
Zr9_2 Zr 0.5000 0.27785(5) 0.07000(4)
N1_6 N 0.7723(13) 1.0000 0.2871(4)
H11_6 H 0.7985 1.0000 0.3086
C21_3 C 0.8793(13) 0.8463(4) 0.4070(3)
C22_3 C 0.8474(12) 0.8696(4) 0.3732(4)
C23_3 C 0.7952(11) 0.8993(4) 0.3779(4)
H12_3 H 0.7760 0.9052 0.4029
C24_3 C 0.7706(12) 0.9205(4) 0.3470(4)
H13_3 H 0.7382 0.9434 0.3501
C25_3 C 0.7956(13) 0.9072(4) 0.3075(4)
C26_3 C 0.8412(12) 0.8760(4) 0.3046(4)
H14_3 H 0.8510 0.8649 0.2798
C27_3 C 0.8761(12) 0.8584(4) 0.3366(4)
H15_3 H 0.9170 0.8399 0.3340
C28_3 C 0.7570(13) 0.9247(3) 0.2725(4)
C29_3 C 0.7439(12) 0.9657(4) 0.2637(4)
C30_3 C 0.7145(11) 0.9789(3) 0.2287(3)
C31_3 C 0.6892(12) 0.9486(4) 0.2010(4)
H16_3 H 0.6584 0.9557 0.1796
C32_3 C 0.7124(13) 0.9091(4) 0.2073(4)
C33_3 C 0.7359(12) 0.8981(4) 0.2431(4)
H17_3 H 0.7380 0.8697 0.2486
C34_3 C 0.6860(14) 0.8780(4) 0.1763(4)
C35_3 C 0.7037(12) 0.8854(4) 0.1397(4)
H18_3 H 0.7307 0.9092 0.1324
C36_3 C 0.6803(12) 0.8559(4) 0.1121(4)
H19_3 H 0.6923 0.8606 0.0858
C37_3 C 0.6439(13) 0.8234(4) 0.1207(4)
C38_3 C 0.6289(13) 0.8141(4) 0.1602(4)
H20_3 H 0.6028 0.7899 0.1673
C39_3 C 0.6541(13) 0.8422(4) 0.1885(4)
H21_3 H 0.6490 0.8364 0.2152
C40_3 C 0.6179(13) 0.7903(5) 0.0934(4)
O12_2 O 0.9202(7) 0.8177(2) 0.3984(2)
O13_2 O 0.8585(6) 0.8562(2) 0.4412(2)
O14_3 O 0.5725(7) 0.7626(2) 0.1016(2)
O15_3 O 0.6447(8) 0.7983(3) 0.0573(3)
Zr8_2 Zr 0.5000 0.72215(5) 0.07000(4)
N1_7 N 0.2277(13) 0.0000 0.2871(4)
H11_7 H 0.2015 -0.0000 0.3086
C21_4 C 0.1207(13) 0.1537(4) 0.4070(3)
C22_4 C 0.1526(12) 0.1304(4) 0.3732(4)
C23_4 C 0.2048(11) 0.1007(4) 0.3779(4)
H12_4 H 0.2240 0.0948 0.4029
C24_4 C 0.2294(12) 0.0795(4) 0.3470(4)
H13_4 H 0.2618 0.0566 0.3501
C25_4 C 0.2044(13) 0.0928(4) 0.3075(4)
C26_4 C 0.1588(12) 0.1240(4) 0.3046(4)
H14_4 H 0.1490 0.1351 0.2798
C27_4 C 0.1239(12) 0.1416(4) 0.3366(4)
H15_4 H 0.0830 0.1601 0.3340
C28_4 C 0.2430(13) 0.0753(3) 0.2725(4)
C29_4 C 0.2561(12) 0.0343(4) 0.2637(4)
C30_4 C 0.2855(11) 0.0211(3) 0.2287(3)
C31_4 C 0.3108(12) 0.0514(4) 0.2010(4)
H16_4 H 0.3416 0.0443 0.1796
C32_4 C 0.2876(13) 0.0909(4) 0.2073(4)
C33_4 C 0.2641(12) 0.1019(4) 0.2431(4)
H17_4 H 0.2620 0.1303 0.2486
C34_4 C 0.3140(14) 0.1220(4) 0.1763(4)
C35_4 C 0.2963(12) 0.1146(4) 0.1397(4)
H18_4 H 0.2693 0.0908 0.1324
C36_4 C 0.3197(12) 0.1441(4) 0.1121(4)
H19_4 H 0.3077 0.1394 0.0858
C37_4 C 0.3561(13) 0.1766(4) 0.1207(4)
C38_4 C 0.3711(13) 0.1859(4) 0.1602(4)
H20_4 H 0.3972 0.2101 0.1673
C39_4 C 0.3459(13) 0.1578(4) 0.1885(4)
H21_4 H 0.3510 0.1636 0.2152
C40_4 C 0.3821(13) 0.2097(5) 0.0934(4)
O14_4 O 0.4275(7) 0.2374(2) 0.1016(2)
O15_4 O 0.3553(8) 0.2017(3) 0.0573(3)
C1_4 C 0.1207(13) 0.8463(4) 0.4070(3)
C2_4 C 0.1526(12) 0.8696(4) 0.3732(4)
C3_4 C 0.2048(11) 0.8993(4) 0.3779(4)
H1_4 H 0.2240 0.9052 0.4029
C4_4 C 0.2294(12) 0.9205(4) 0.3470(4)
H2_4 H 0.2618 0.9434 0.3501
C5_4 C 0.2044(13) 0.9072(4) 0.3075(4)
C6_4 C 0.1588(12) 0.8760(4) 0.3046(4)
H3_4 H 0.1490 0.8649 0.2798
C7_4 C 0.1239(12) 0.8584(4) 0.3366(4)
H4_4 H 0.0830 0.8399 0.3340
C8_4 C 0.2430(13) 0.9247(3) 0.2725(4)
C9_4 C 0.2561(12) 0.9657(4) 0.2637(4)
C10_4 C 0.2855(11) 0.9789(3) 0.2287(3)
C11_4 C 0.3108(12) 0.9486(4) 0.2010(4)
H5_4 H 0.3416 0.9557 0.1796
C12_4 C 0.2876(13) 0.9091(4) 0.2073(4)
C13_4 C 0.2641(12) 0.8981(4) 0.2431(4)
H6_4 H 0.2620 0.8697 0.2486
C14_4 C 0.3140(14) 0.8780(4) 0.1763(4)
C15_4 C 0.2963(12) 0.8854(4) 0.1397(4)
H7_4 H 0.2693 0.9092 0.1324
C16_4 C 0.3197(12) 0.8559(4) 0.1121(4)
H8_4 H 0.3077 0.8606 0.0858
C17_4 C 0.3561(13) 0.8234(4) 0.1207(4)
C18_4 C 0.3711(13) 0.8141(4) 0.1602(4)
H9_4 H 0.3972 0.7899 0.1673
C19_4 C 0.3459(13) 0.8422(4) 0.1885(4)
H10_4 H 0.3510 0.8364 0.2152
C20_4 C 0.3821(13) 0.7903(5) 0.0934(4)
N1_8 N 0.2277(13) 1.0000 0.2871(4)
H11_8 H 0.2015 1.0000 0.3086
O5_4 O 0.0798(7) 0.8177(2) 0.3984(2)
O7_4 O 0.4275(7) 0.7626(2) 0.1016(2)
O8_4 O 0.3553(8) 0.7983(3) 0.0573(3)
O23_4 O 0.0725(7) 0.7374(2) 0.3984(2)
O2_4 O 0.7792(9) 0.7260(4) 0.5000
O4_4 O 0.9125(10) 0.6577(3) 0.5000
O9_4 O 0.9117(9) 0.9018(3) 0.5000
O10_4 O 0.8952(6) 0.7788(2) 0.4651(2)
O11_4 O 0.7765(10) 0.8315(4) 0.5000
O22_4 O 0.9275(7) 0.7374(2) 0.3984(2)
O24_4 O 0.8553(8) 0.7017(3) 0.4427(3)
O25_4 O 0.8553(8) 0.7017(3) 0.5573(3)
C1_5 C 0.6207(13) 0.6537(4) 0.0930(3)
C2_5 C 0.6526(12) 0.6304(4) 0.1268(4)
C3_5 C 0.7048(11) 0.6007(4) 0.1221(4)
H1_5 H 0.7240 0.5948 0.0971
C4_5 C 0.7294(12) 0.5795(4) 0.1530(4)
H2_5 H 0.7618 0.5566 0.1499
C5_5 C 0.7044(13) 0.5928(4) 0.1925(4)
C6_5 C 0.6588(12) 0.6240(4) 0.1954(4)
H3_5 H 0.6490 0.6351 0.2202
C7_5 C 0.6239(12) 0.6416(4) 0.1634(4)
H4_5 H 0.5830 0.6601 0.1660
C8_5 C 0.7430(13) 0.5753(3) 0.2275(4)
C9_5 C 0.7561(12) 0.5343(4) 0.2363(4)
C10_5 C 0.7855(11) 0.5211(3) 0.2713(3)
C11_5 C 0.8108(12) 0.5514(4) 0.2990(4)
H5_5 H 0.8416 0.5443 0.3204
C12_5 C 0.7876(13) 0.5909(4) 0.2927(4)
C13_5 C 0.7641(12) 0.6019(4) 0.2569(4)
H6_5 H 0.7620 0.6303 0.2514
C14_5 C 0.8140(14) 0.6220(4) 0.3237(4)
C15_5 C 0.7963(12) 0.6146(4) 0.3603(4)
H7_5 H 0.7693 0.5908 0.3676
C16_5 C 0.8197(12) 0.6441(4) 0.3879(4)
H8_5 H 0.8077 0.6394 0.4142
C17_5 C 0.8561(13) 0.6766(4) 0.3793(4)
C18_5 C 0.8711(13) 0.6859(4) 0.3398(4)
H9_5 H 0.8972 0.7101 0.3327
C19_5 C 0.8459(13) 0.6578(4) 0.3115(4)
H10_5 H 0.8510 0.6636 0.2848
C20_5 C 0.8821(13) 0.7097(5) 0.4066(4)
N1_9 N 0.7277(13) 0.5000 0.2129(4)
H11_9 H 0.7015 0.5000 0.1914
O1_5 O 0.5000 0.6656(4) 0.0335(4)
O2_5 O 0.2792(9) 0.7740(4) -0.0000
O3_5 O 0.5000 0.7743(4) 0.0321(4)
O4_5 O 0.4125(10) 0.8423(3) -0.0000
O5_5 O 0.5798(7) 0.6823(2) 0.1016(2)
O6_3 O 0.6415(6) 0.6438(2) 0.0588(2)
O9_5 O 0.4117(9) 0.5982(3) -0.0000
O10_5 O 0.3952(6) 0.7212(2) 0.0349(2)
O11_5 O 0.2765(10) 0.6685(4) -0.0000
Zr1_2 Zr 0.39933(16) 0.66690(5) -0.0000
C21_5 C 0.6207(13) 0.3463(4) 0.0930(3)
C22_5 C 0.6526(12) 0.3696(4) 0.1268(4)
C23_5 C 0.7048(11) 0.3993(4) 0.1221(4)
H12_5 H 0.7240 0.4052 0.0971
C24_5 C 0.7294(12) 0.4205(4) 0.1530(4)
H13_5 H 0.7618 0.4434 0.1499
C25_5 C 0.7044(13) 0.4072(4) 0.1925(4)
C26_5 C 0.6588(12) 0.3760(4) 0.1954(4)
H14_5 H 0.6490 0.3649 0.2202
C27_5 C 0.6239(12) 0.3584(4) 0.1634(4)
H15_5 H 0.5830 0.3399 0.1660
C28_5 C 0.7430(13) 0.4247(3) 0.2275(4)
C29_5 C 0.7561(12) 0.4657(4) 0.2363(4)
C30_5 C 0.7855(11) 0.4789(3) 0.2713(3)
C31_5 C 0.8108(12) 0.4486(4) 0.2990(4)
H16_5 H 0.8416 0.4557 0.3204
C32_5 C 0.7876(13) 0.4091(4) 0.2927(4)
C33_5 C 0.7641(12) 0.3981(4) 0.2569(4)
H17_5 H 0.7620 0.3697 0.2514
C34_5 C 0.8140(14) 0.3780(4) 0.3237(4)
C35_5 C 0.7963(12) 0.3854(4) 0.3603(4)
H18_5 H 0.7693 0.4092 0.3676
C36_5 C 0.8197(12) 0.3559(4) 0.3879(4)
H19_5 H 0.8077 0.3606 0.4142
C37_5 C 0.8561(13) 0.3234(4) 0.3793(4)
C38_5 C 0.8711(13) 0.3141(4) 0.3398(4)
H20_5 H 0.8972 0.2899 0.3327
C39_5 C 0.8459(13) 0.3422(4) 0.3115(4)
H21_5 H 0.8510 0.3364 0.2848
C40_5 C 0.8821(13) 0.2903(5) 0.4066(4)
O12_3 O 0.5798(7) 0.3177(2) 0.1016(2)
O13_3 O 0.6415(6) 0.3562(2) 0.0588(2)
O19_3 O 0.4202(7) 0.6823(2) 0.1016(2)
O21_3 O 0.3585(6) 0.6438(2) 0.0588(2)
O26_3 O 0.6048(6) 0.7212(2) 0.0349(2)
Zr4_2 Zr 0.60067(16) 0.33310(5) -0.0000
Zr5_3 Zr 0.60067(16) 0.66690(5) -0.0000
H22 H 0.259315 0.797111 0.0155473
H24 H 0.388157 0.853844 0.0233857
H25 H 0.46697 0.849411 -5.55112e-17
H26 H 0.410535 0.58797 0.0269601
H28 H 0.258929 0.693531 0.0134943
O2_6 O 0.2792(9) 0.7740(4) 1.0000
O4_6 O 0.4125(10) 0.8423(3) 1.0000
O9_6 O 0.4117(9) 0.5982(3) 1.0000
O11_6 O 0.2765(10) 0.6685(4) 1.0000
Zr1_3 Zr 0.39933(16) 0.66690(5) 1.0000
O16_3 O 0.3952(6) 0.7212(2) 0.9651(2)
O17_5 O 0.5000 0.6656(4) 0.9665(4)
O18_5 O 0.5000 0.7743(4) 0.9679(4)
O20_3 O 0.3585(6) 0.6438(2) 0.9412(2)
Zr4_3 Zr 0.60067(16) 0.33310(5) 1.0000
Zr5_4 Zr 0.60067(16) 0.66690(5) 1.0000
H23 H 0.260398 0.776285 0.973106
H25_2 H 0.46697 0.849411 1
H27 H 0.369545 0.585802 0.985195
H29 H 0.257829 0.668734 0.972997
C1_6 C 0.3793(13) 0.3463(4) 0.0930(3)
C2_6 C 0.3474(12) 0.3696(4) 0.1268(4)
C3_6 C 0.2952(11) 0.3993(4) 0.1221(4)
H1_6 H 0.2760 0.4052 0.0971
C4_6 C 0.2706(12) 0.4205(4) 0.1530(4)
H2_6 H 0.2382 0.4434 0.1499
C5_6 C 0.2956(13) 0.4072(4) 0.1925(4)
C6_6 C 0.3412(12) 0.3760(4) 0.1954(4)
H3_6 H 0.3510 0.3649 0.2202
C7_6 C 0.3761(12) 0.3584(4) 0.1634(4)
H4_6 H 0.4170 0.3399 0.1660
C8_6 C 0.2570(13) 0.4247(3) 0.2275(4)
C9_6 C 0.2439(12) 0.4657(4) 0.2363(4)
C10_6 C 0.2145(11) 0.4789(3) 0.2713(3)
C11_6 C 0.1892(12) 0.4486(4) 0.2990(4)
H5_6 H 0.1584 0.4557 0.3204
C12_6 C 0.2124(13) 0.4091(4) 0.2927(4)
C13_6 C 0.2359(12) 0.3981(4) 0.2569(4)
H6_6 H 0.2380 0.3697 0.2514
C14_6 C 0.1860(14) 0.3780(4) 0.3237(4)
C15_6 C 0.2037(12) 0.3854(4) 0.3603(4)
H7_6 H 0.2307 0.4092 0.3676
C16_6 C 0.1803(12) 0.3559(4) 0.3879(4)
H8_6 H 0.1923 0.3606 0.4142
C17_6 C 0.1439(13) 0.3234(4) 0.3793(4)
C18_6 C 0.1289(13) 0.3141(4) 0.3398(4)
H9_6 H 0.1028 0.2899 0.3327
C19_6 C 0.1541(13) 0.3422(4) 0.3115(4)
H10_6 H 0.1490 0.3364 0.2848
C20_6 C 0.1179(13) 0.2903(5) 0.4066(4)
N1_10 N 0.2723(13) 0.5000 0.2129(4)
H11_10 H 0.2985 0.5000 0.1914
O1_6 O 0.5000 0.3344(4) 0.0335(4)
O2_7 O 0.7208(9) 0.2260(4) -0.0000
O3_6 O 0.5000 0.2257(4) 0.0321(4)
O4_7 O 0.5875(10) 0.1577(3) -0.0000
O5_6 O 0.4202(7) 0.3177(2) 0.1016(2)
O6_4 O 0.3585(6) 0.3562(2) 0.0588(2)
O9_7 O 0.5883(9) 0.4018(3) -0.0000
O10_6 O 0.6048(6) 0.2788(2) 0.0349(2)
O11_7 O 0.7235(10) 0.3315(4) -0.0000
C21_6 C 0.3793(13) 0.6537(4) 0.0930(3)
C22_6 C 0.3474(12) 0.6304(4) 0.1268(4)
C23_6 C 0.2952(11) 0.6007(4) 0.1221(4)
H12_6 H 0.2760 0.5948 0.0971
C24_6 C 0.2706(12) 0.5795(4) 0.1530(4)
H13_6 H 0.2382 0.5566 0.1499
C25_6 C 0.2956(13) 0.5928(4) 0.1925(4)
C26_6 C 0.3412(12) 0.6240(4) 0.1954(4)
H14_6 H 0.3510 0.6351 0.2202
C27_6 C 0.3761(12) 0.6416(4) 0.1634(4)
H15_6 H 0.4170 0.6601 0.1660
C28_6 C 0.2570(13) 0.5753(3) 0.2275(4)
C29_6 C 0.2439(12) 0.5343(4) 0.2363(4)
C30_6 C 0.2145(11) 0.5211(3) 0.2713(3)
C31_6 C 0.1892(12) 0.5514(4) 0.2990(4)
H16_6 H 0.1584 0.5443 0.3204
C32_6 C 0.2124(13) 0.5909(4) 0.2927(4)
C33_6 C 0.2359(12) 0.6019(4) 0.2569(4)
H17_6 H 0.2380 0.6303 0.2514
C34_6 C 0.1860(14) 0.6220(4) 0.3237(4)
C35_6 C 0.2037(12) 0.6146(4) 0.3603(4)
H18_6 H 0.2307 0.5908 0.3676
C36_6 C 0.1803(12) 0.6441(4) 0.3879(4)
H19_6 H 0.1923 0.6394 0.4142
C37_6 C 0.1439(13) 0.6766(4) 0.3793(4)
C38_6 C 0.1289(13) 0.6859(4) 0.3398(4)
H20_6 H 0.1028 0.7101 0.3327
C39_6 C 0.1541(13) 0.6578(4) 0.3115(4)
H21_6 H 0.1490 0.6636 0.2848
C40_6 C 0.1179(13) 0.7097(5) 0.4066(4)
O26_4 O 0.3952(6) 0.2788(2) 0.0349(2)
Zr5_5 Zr 0.39933(16) 0.33310(5) -0.0000
H22_2 H 0.740685 0.202889 0.0155473
H24_2 H 0.611843 0.146156 0.0233857
H25_3 H 0.53303 0.150589 -5.55112e-17
H26_2 H 0.589465 0.41203 0.0269601
H28_2 H 0.741071 0.306469 0.0134943
O2_8 O 0.7208(9) 0.2260(4) 1.0000
O4_8 O 0.5875(10) 0.1577(3) 1.0000
O9_8 O 0.5883(9) 0.4018(3) 1.0000
O11_8 O 0.7235(10) 0.3315(4) 1.0000
O16_4 O 0.6048(6) 0.2788(2) 0.9651(2)
O17_6 O 0.5000 0.3344(4) 0.9665(4)
O18_6 O 0.5000 0.2257(4) 0.9679(4)
O20_4 O 0.6415(6) 0.3562(2) 0.9412(2)
Zr5_6 Zr 0.39933(16) 0.33310(5) 1.0000
H23_2 H 0.739602 0.223715 0.973106
H25_4 H 0.53303 0.150589 1
H27_2 H 0.630455 0.414198 0.985195
H29_2 H 0.742171 0.331266 0.972997
O2_9 O 0.7208(9) 0.7740(4) 0.0000
O4_9 O 0.5875(10) 0.8423(3) 0.0000
O9_9 O 0.5883(9) 0.5982(3) 0.0000
O11_9 O 0.7235(10) 0.6685(4) 0.0000
H23_3 H 0.739602 0.776285 0.0268943
H25_5 H 0.53303 0.849411 5.55112e-17
H27_3 H 0.630455 0.585802 0.0148051
H29_3 H 0.742171 0.668734 0.0270034
C1_7 C 0.3793(13) 0.6537(4) 0.9070(3)
C2_7 C 0.3474(12) 0.6304(4) 0.8732(4)
C3_7 C 0.2952(11) 0.6007(4) 0.8779(4)
H1_7 H 0.2760 0.5948 0.9029
C4_7 C 0.2706(12) 0.5795(4) 0.8470(4)
H2_7 H 0.2382 0.5566 0.8501
C5_7 C 0.2956(13) 0.5928(4) 0.8075(4)
C6_7 C 0.3412(12) 0.6240(4) 0.8046(4)
H3_7 H 0.3510 0.6351 0.7798
C7_7 C 0.3761(12) 0.6416(4) 0.8366(4)
H4_7 H 0.4170 0.6601 0.8340
C8_7 C 0.2570(13) 0.5753(3) 0.7725(4)
C9_7 C 0.2439(12) 0.5343(4) 0.7637(4)
C10_7 C 0.2145(11) 0.5211(3) 0.7287(3)
C11_7 C 0.1892(12) 0.5514(4) 0.7010(4)
H5_7 H 0.1584 0.5443 0.6796
C12_7 C 0.2124(13) 0.5909(4) 0.7073(4)
C13_7 C 0.2359(12) 0.6019(4) 0.7431(4)
H6_7 H 0.2380 0.6303 0.7486
C14_7 C 0.1860(14) 0.6220(4) 0.6763(4)
C15_7 C 0.2037(12) 0.6146(4) 0.6397(4)
H7_7 H 0.2307 0.5908 0.6324
C16_7 C 0.1803(12) 0.6441(4) 0.6121(4)
H8_7 H 0.1923 0.6394 0.5858
C17_7 C 0.1439(13) 0.6766(4) 0.6207(4)
C18_7 C 0.1289(13) 0.6859(4) 0.6602(4)
H9_7 H 0.1028 0.7101 0.6673
C19_7 C 0.1541(13) 0.6578(4) 0.6885(4)
H10_7 H 0.1490 0.6636 0.7152
C20_7 C 0.1179(13) 0.7097(5) 0.5934(4)
N1_11 N 0.2723(13) 0.5000 0.7871(4)
H11_11 H 0.2985 0.5000 0.8086
O2_10 O 0.7208(9) 0.7740(4) 1.0000
O4_10 O 0.5875(10) 0.8423(3) 1.0000
O5_7 O 0.4202(7) 0.6823(2) 0.8984(2)
O9_10 O 0.5883(9) 0.5982(3) 1.0000
O10_7 O 0.6048(6) 0.7212(2) 0.9651(2)
O11_10 O 0.7235(10) 0.6685(4) 1.0000
C21_7 C 0.3793(13) 0.3463(4) 0.9070(3)
C22_7 C 0.3474(12) 0.3696(4) 0.8732(4)
C23_7 C 0.2952(11) 0.3993(4) 0.8779(4)
H12_7 H 0.2760 0.4052 0.9029
C24_7 C 0.2706(12) 0.4205(4) 0.8470(4)
H13_7 H 0.2382 0.4434 0.8501
C25_7 C 0.2956(13) 0.4072(4) 0.8075(4)
C26_7 C 0.3412(12) 0.3760(4) 0.8046(4)
H14_7 H 0.3510 0.3649 0.7798
C27_7 C 0.3761(12) 0.3584(4) 0.8366(4)
H15_7 H 0.4170 0.3399 0.8340
C28_7 C 0.2570(13) 0.4247(3) 0.7725(4)
C29_7 C 0.2439(12) 0.4657(4) 0.7637(4)
C30_7 C 0.2145(11) 0.4789(3) 0.7287(3)
C31_7 C 0.1892(12) 0.4486(4) 0.7010(4)
H16_7 H 0.1584 0.4557 0.6796
C32_7 C 0.2124(13) 0.4091(4) 0.7073(4)
C33_7 C 0.2359(12) 0.3981(4) 0.7431(4)
H17_7 H 0.2380 0.3697 0.7486
C34_7 C 0.1860(14) 0.3780(4) 0.6763(4)
C35_7 C 0.2037(12) 0.3854(4) 0.6397(4)
H18_7 H 0.2307 0.4092 0.6324
C36_7 C 0.1803(12) 0.3559(4) 0.6121(4)
H19_7 H 0.1923 0.3606 0.5858
C37_7 C 0.1439(13) 0.3234(4) 0.6207(4)
C38_7 C 0.1289(13) 0.3141(4) 0.6602(4)
H20_7 H 0.1028 0.2899 0.6673
C39_7 C 0.1541(13) 0.3422(4) 0.6885(4)
H21_7 H 0.1490 0.3364 0.7152
C40_7 C 0.1179(13) 0.2903(5) 0.5934(4)
O12_4 O 0.4202(7) 0.3177(2) 0.8984(2)
O13_4 O 0.3585(6) 0.3562(2) 0.9412(2)
O19_4 O 0.5798(7) 0.6823(2) 0.8984(2)
O21_4 O 0.6415(6) 0.6438(2) 0.9412(2)
H22_3 H 0.740685 0.797111 0.984453
H24_3 H 0.611843 0.853844 0.976614
H25_6 H 0.53303 0.849411 1
H26_3 H 0.589465 0.58797 0.97304
H28_3 H 0.741071 0.693531 0.986506
O2_11 O 0.2792(9) 0.2260(4) 0.0000
O4_11 O 0.4125(10) 0.1577(3) 0.0000
O9_11 O 0.4117(9) 0.4018(3) 0.0000
O11_11 O 0.2765(10) 0.3315(4) 0.0000
H23_4 H 0.260398 0.223715 0.0268943
H25_7 H 0.46697 0.150589 5.55112e-17
H27_4 H 0.369545 0.414198 0.0148051
H29_4 H 0.257829 0.331266 0.0270034
C1_8 C 0.6207(13) 0.3463(4) 0.9070(3)
C2_8 C 0.6526(12) 0.3696(4) 0.8732(4)
C3_8 C 0.7048(11) 0.3993(4) 0.8779(4)
H1_8 H 0.7240 0.4052 0.9029
C4_8 C 0.7294(12) 0.4205(4) 0.8470(4)
H2_8 H 0.7618 0.4434 0.8501
C5_8 C 0.7044(13) 0.4072(4) 0.8075(4)
C6_8 C 0.6588(12) 0.3760(4) 0.8046(4)
H3_8 H 0.6490 0.3649 0.7798
C7_8 C 0.6239(12) 0.3584(4) 0.8366(4)
H4_8 H 0.5830 0.3399 0.8340
C8_8 C 0.7430(13) 0.4247(3) 0.7725(4)
C9_8 C 0.7561(12) 0.4657(4) 0.7637(4)
C10_8 C 0.7855(11) 0.4789(3) 0.7287(3)
C11_8 C 0.8108(12) 0.4486(4) 0.7010(4)
H5_8 H 0.8416 0.4557 0.6796
C12_8 C 0.7876(13) 0.4091(4) 0.7073(4)
C13_8 C 0.7641(12) 0.3981(4) 0.7431(4)
H6_8 H 0.7620 0.3697 0.7486
C14_8 C 0.8140(14) 0.3780(4) 0.6763(4)
C15_8 C 0.7963(12) 0.3854(4) 0.6397(4)
H7_8 H 0.7693 0.4092 0.6324
C16_8 C 0.8197(12) 0.3559(4) 0.6121(4)
H8_8 H 0.8077 0.3606 0.5858
C17_8 C 0.8561(13) 0.3234(4) 0.6207(4)
C18_8 C 0.8711(13) 0.3141(4) 0.6602(4)
H9_8 H 0.8972 0.2899 0.6673
C19_8 C 0.8459(13) 0.3422(4) 0.6885(4)
H10_8 H 0.8510 0.3364 0.7152
C20_8 C 0.8821(13) 0.2903(5) 0.5934(4)
N1_12 N 0.7277(13) 0.5000 0.7871(4)
H11_12 H 0.7015 0.5000 0.8086
O2_12 O 0.2792(9) 0.2260(4) 1.0000
O4_12 O 0.4125(10) 0.1577(3) 1.0000
O5_8 O 0.5798(7) 0.3177(2) 0.8984(2)
O9_12 O 0.4117(9) 0.4018(3) 1.0000
O10_8 O 0.3952(6) 0.2788(2) 0.9651(2)
O11_12 O 0.2765(10) 0.3315(4) 1.0000
C21_8 C 0.6207(13) 0.6537(4) 0.9070(3)
C22_8 C 0.6526(12) 0.6304(4) 0.8732(4)
C23_8 C 0.7048(11) 0.6007(4) 0.8779(4)
H12_8 H 0.7240 0.5948 0.9029
C24_8 C 0.7294(12) 0.5795(4) 0.8470(4)
H13_8 H 0.7618 0.5566 0.8501
C25_8 C 0.7044(13) 0.5928(4) 0.8075(4)
C26_8 C 0.6588(12) 0.6240(4) 0.8046(4)
H14_8 H 0.6490 0.6351 0.7798
C27_8 C 0.6239(12) 0.6416(4) 0.8366(4)
H15_8 H 0.5830 0.6601 0.8340
C28_8 C 0.7430(13) 0.5753(3) 0.7725(4)
C29_8 C 0.7561(12) 0.5343(4) 0.7637(4)
C30_8 C 0.7855(11) 0.5211(3) 0.7287(3)
C31_8 C 0.8108(12) 0.5514(4) 0.7010(4)
H16_8 H 0.8416 0.5443 0.6796
C32_8 C 0.7876(13) 0.5909(4) 0.7073(4)
C33_8 C 0.7641(12) 0.6019(4) 0.7431(4)
H17_8 H 0.7620 0.6303 0.7486
C34_8 C 0.8140(14) 0.6220(4) 0.6763(4)
C35_8 C 0.7963(12) 0.6146(4) 0.6397(4)
H18_8 H 0.7693 0.5908 0.6324
C36_8 C 0.8197(12) 0.6441(4) 0.6121(4)
H19_8 H 0.8077 0.6394 0.5858
C37_8 C 0.8561(13) 0.6766(4) 0.6207(4)
C38_8 C 0.8711(13) 0.6859(4) 0.6602(4)
H20_8 H 0.8972 0.7101 0.6673
C39_8 C 0.8459(13) 0.6578(4) 0.6885(4)
H21_8 H 0.8510 0.6636 0.7152
C40_8 C 0.8821(13) 0.7097(5) 0.5934(4)
H22_4 H 0.259315 0.202889 0.984453
H24_4 H 0.388157 0.146156 0.976614
H25_8 H 0.46697 0.150589 1
H26_4 H 0.410535 0.41203 0.97304
H28_4 H 0.258929 0.306469 0.986506
H23_5 H 0.739602 0.223715 0.0268943
H27_5 H 0.630455 0.414198 0.0148051
H29_5 H 0.742171 0.331266 0.0270034
H22_5 H 0.740685 0.202889 0.984453
H24_5 H 0.611843 0.146156 0.976614
H26_5 H 0.589465 0.41203 0.97304
H28_5 H 0.741071 0.306469 0.986506
H23_6 H 0.260398 0.776285 0.0268943
H27_6 H 0.369545 0.585802 0.0148051
H29_6 H 0.257829 0.668734 0.0270034
H22_6 H 0.259315 0.797111 0.984453
H24_6 H 0.388157 0.853844 0.976614
H26_6 H 0.410535 0.58797 0.97304
H28_6 H 0.258929 0.693531 0.986506
H22_7 H 0.259315 0.202889 0.0155473
H24_7 H 0.388157 0.146156 0.0233857
H26_7 H 0.410535 0.41203 0.0269601
H28_7 H 0.258929 0.306469 0.0134943
H23_7 H 0.260398 0.223715 0.973106
H27_7 H 0.369545 0.414198 0.985195
H29_7 H 0.257829 0.331266 0.972997
H22_8 H 0.740685 0.797111 0.0155473
H24_8 H 0.611843 0.853844 0.0233857
H26_8 H 0.589465 0.58797 0.0269601
H28_8 H 0.741071 0.693531 0.0134943
H23_8 H 0.739602 0.776285 0.973106
H27_8 H 0.630455 0.585802 0.985195
H29_8 H 0.742171 0.668734 0.972997
loop_
_geom_bond_atom_site_label_1
_geom_bond_atom_site_label_2
_geom_bond_site_symmetry_1
_geom_bond_site_symmetry_2
C1 C2 1_555 1_555
C2 C3 1_555 1_555
C3 H1 1_555 1_555
C4 C3 1_555 1_555
H2 C4 1_555 1_555
C5 C4 1_555 1_555
C6 C5 1_555 1_555
H3 C6 1_555 1_555
C7 C2 1_555 1_555
H4 C7 1_555 1_555
C8 C5 1_555 1_555
C9 C8 1_555 1_555
C10 C9 1_555 1_555
C11 C10 1_555 1_555
H5 C11 1_555 1_555
C12 C11 1_555 1_555
C13 C8 1_555 1_555
H6 C13 1_555 1_555
C14 C12 1_555 1_555
C15 C14 1_555 1_555
H7 C15 1_555 1_555
C16 C15 1_555 1_555
H8 C16 1_555 1_555
C17 C16 1_555 1_555
C18 C17 1_555 1_555
H9 C18 1_555 1_555
C19 C14 1_555 1_555
H10 C19 1_555 1_555
C20 C17 1_555 1_555
N1 C9 1_555 1_555
H11 N1 1_555 1_555
O3 Zr2 1_555 1_555
O5 C1 1_555 1_555
O6 C1 1_555 1_555
O7 C20 1_555 1_555
O8 C20 1_555 1_555
Zr2 O1 1_555 1_555
O23 Zr2 1_555 1_555
O26 Zr2 1_555 1_555
Zr5 O1 1_555 1_555
Zr9 O7 1_555 1_555
Zr10 O3 1_555 1_555
Zr12_2 O8 1_555 1_555
C6 C7 1_555 1_555
C12 C13 1_555 1_555
C18 C19 1_555 1_555
O5 Zr2 1_555 1_555
O6 Zr5 1_555 1_555
O17 Zr5 1_555 1_555
O17 Zr7 1_555 1_555
O18 Zr7 1_555 1_555
O18 Zr10 1_555 1_555
O26 Zr5 1_555 1_555
O26 Zr10 1_555 1_555
H11_2 N1_2 1_555 1_555
C21 C22 1_555 1_555
C22 C23 1_555 1_555
C23 H12 1_555 1_555
C24 C23 1_555 1_555
H13 C24 1_555 1_555
C25 C24 1_555 1_555
C26 C25 1_555 1_555
H14 C26 1_555 1_555
C27 C22 1_555 1_555
H15 C27 1_555 1_555
C28 C25 1_555 1_555
C29 N1_2 1_555 1_555
C31 C30 1_555 1_555
H16 C31 1_555 1_555
C32 C31 1_555 1_555
C33 C28 1_555 1_555
H17 C33 1_555 1_555
C34 C32 1_555 1_555
C35 C34 1_555 1_555
H18 C35 1_555 1_555
C36 C35 1_555 1_555
H19 C36 1_555 1_555
C37 C36 1_555 1_555
C38 C37 1_555 1_555
H20 C38 1_555 1_555
C39 C34 1_555 1_555
H21 C39 1_555 1_555
C40 C37 1_555 1_555
O12 C21 1_555 1_555
O13 C21 1_555 1_555
O14 C40 1_555 1_555
O15 C40 1_555 1_555
Zr4 O13 1_555 1_555
Zr6 O12 1_555 1_555
Zr8 O14 1_555 1_555
Zr11_2 O15 1_555 1_555
C26 C27 1_555 1_555
C28 C29 1_555 1_555
C29 C30 1_555 1_555
C32 C33 1_555 1_555
C38 C39 1_555 1_555
O1_2 Zr1 1_555 1_555
O2 Zr3 1_555 1_555
O3_2 Zr2_2 1_555 1_555
O4 Zr3 1_555 1_555
O9 Zr1 1_555 1_555
O10 Zr1 1_555 1_555
O11 Zr1 1_555 1_555
Zr1 O16 1_555 1_555
Zr2_2 O1_2 1_555 1_555
Zr3 O3_2 1_555 1_555
O16 Zr3 1_555 1_555
O17_2 Zr1 1_555 1_555
O18_2 Zr3 1_555 1_555
O19 Zr2_2 1_555 1_555
O20 Zr1 1_555 1_555
O21 Zr1 1_555 1_555
O22 Zr2_2 1_555 1_555
O24 Zr3 1_555 1_555
O25 Zr3 1_555 1_555
Zr7_2 O16 1_555 1_555
O10 Zr2_2 1_555 1_555
O10 Zr3 1_555 1_555
O17_2 Zr7_2 1_555 1_555
O18_2 Zr7_2 1_555 1_555
O1_3 Zr4 1_555 1_555
O2_2 Zr3_2 1_555 1_555
O3_3 Zr6 1_555 1_555
O4_2 Zr3_2 1_555 1_555
O9_2 Zr4 1_555 1_555
O10_2 Zr4 1_555 1_555
O11_2 Zr4 1_555 1_555
Zr4 O16_2 1_555 1_555
Zr6 O1_3 1_555 1_555
Zr3_2 O3_3 1_555 1_555
O16_2 Zr3_2 1_555 1_555
O17_3 Zr4 1_555 1_555
O18_3 Zr3_2 1_555 1_555
O20_2 Zr4 1_555 1_555
O22_2 Zr6 1_555 1_555
O24_2 Zr3_2 1_555 1_555
O25_2 Zr3_2 1_555 1_555
Zr7_3 O16_2 1_555 1_555
O10_2 Zr6 1_555 1_555
O10_2 Zr3_2 1_555 1_555
O17_3 Zr7_3 1_555 1_555
O18_3 Zr7_3 1_555 1_555
H11_3 N1_3 1_555 1_555
C21_2 C22_2 1_555 1_555
C22_2 C23_2 1_555 1_555
C23_2 H12_2 1_555 1_555
C24_2 C23_2 1_555 1_555
H13_2 C24_2 1_555 1_555
C25_2 C24_2 1_555 1_555
C26_2 C25_2 1_555 1_555
H14_2 C26_2 1_555 1_555
C27_2 C22_2 1_555 1_555
H15_2 C27_2 1_555 1_555
C28_2 C25_2 1_555 1_555
C29_2 N1_3 1_555 1_555
C31_2 C30_2 1_555 1_555
H16_2 C31_2 1_555 1_555
C32_2 C31_2 1_555 1_555
C33_2 C28_2 1_555 1_555
H17_2 C33_2 1_555 1_555
C34_2 C32_2 1_555 1_555
C35_2 C34_2 1_555 1_555
H18_2 C35_2 1_555 1_555
C36_2 C35_2 1_555 1_555
H19_2 C36_2 1_555 1_555
C37_2 C36_2 1_555 1_555
C38_2 C37_2 1_555 1_555
H20_2 C38_2 1_555 1_555
C39_2 C34_2 1_555 1_555
H21_2 C39_2 1_555 1_555
C40_2 C37_2 1_555 1_555
O19 C21_2 1_555 1_555
O21 C21_2 1_555 1_555
O14_2 C40_2 1_555 1_555
O15_2 C40_2 1_555 1_555
Zr9 O14_2 1_555 1_555
Zr11_4 O15_2 1_555 1_555
C26_2 C27_2 1_555 1_555
C28_2 C29_2 1_555 1_555
C29_2 C30_2 1_555 1_555
C32_2 C33_2 1_555 1_555
C38_2 C39_2 1_555 1_555
C1_2 C2_2 1_555 1_555
C2_2 C3_2 1_555 1_555
C3_2 H1_2 1_555 1_555
C4_2 C3_2 1_555 1_555
H2_2 C4_2 1_555 1_555
C5_2 C4_2 1_555 1_555
C6_2 C5_2 1_555 1_555
H3_2 C6_2 1_555 1_555
C7_2 C2_2 1_555 1_555
H4_2 C7_2 1_555 1_555
C8_2 C5_2 1_555 1_555
C9_2 C8_2 1_555 1_555
C10_2 C9_2 1_555 1_555
C11_2 C10_2 1_555 1_555
H5_2 C11_2 1_555 1_555
C12_2 C11_2 1_555 1_555
C13_2 C8_2 1_555 1_555
H6_2 C13_2 1_555 1_555
C14_2 C12_2 1_555 1_555
C15_2 C14_2 1_555 1_555
H7_2 C15_2 1_555 1_555
C16_2 C15_2 1_555 1_555
H8_2 C16_2 1_555 1_555
C17_2 C16_2 1_555 1_555
C18_2 C17_2 1_555 1_555
H9_2 C18_2 1_555 1_555
C19_2 C14_2 1_555 1_555
H10_2 C19_2 1_555 1_555
C20_2 C17_2 1_555 1_555
N1_4 C9_2 1_555 1_555
H11_4 N1_4 1_555 1_555
O3_4 Zr6_2 1_555 1_555
O5_2 C1_2 1_555 1_555
O6_2 C1_2 1_555 1_555
O7_2 C20_2 1_555 1_555
O8_2 C20_2 1_555 1_555
Zr6_2 O1_4 1_555 1_555
O23_2 Zr6_2 1_555 1_555
O26_2 Zr6_2 1_555 1_555
Zr5_2 O1_4 1_555 1_555
Zr8 O7_2 1_555 1_555
Zr10_2 O3_4 1_555 1_555
Zr12_4 O8_2 1_555 1_555
C6_2 C7_2 1_555 1_555
C12_2 C13_2 1_555 1_555
C18_2 C19_2 1_555 1_555
O5_2 Zr6_2 1_555 1_555
O6_2 Zr5_2 1_555 1_555
O17_4 Zr5_2 1_555 1_555
O17_4 Zr7_4 1_555 1_555
O18_4 Zr7_4 1_555 1_555
O18_4 Zr10_2 1_555 1_555
O26_2 Zr5_2 1_555 1_555
O26_2 Zr10_2 1_555 1_555
O2_3 Zr10 1_555 1_555
O4_3 Zr10 1_555 1_555
O9_3 Zr5 1_555 1_555
O10_3 Zr5 1_555 1_555
O11_3 Zr5 1_555 1_555
O19_2 Zr7 1_555 1_555
O21_2 Zr5 1_555 1_555
O22_3 Zr7 1_555 1_555
O24_3 Zr10 1_555 1_555
O25_3 Zr10 1_555 1_555
O10_3 Zr7 1_555 1_555
O10_3 Zr10 1_555 1_555
C1_3 C2_3 1_555 1_555
C2_3 C3_3 1_555 1_555
C3_3 H1_3 1_555 1_555
C4_3 C3_3 1_555 1_555
H2_3 C4_3 1_555 1_555
C5_3 C4_3 1_555 1_555
C6_3 C5_3 1_555 1_555
H3_3 C6_3 1_555 1_555
C7_3 C2_3 1_555 1_555
H4_3 C7_3 1_555 1_555
C8_3 C5_3 1_555 1_555
C9_3 C8_3 1_555 1_555
C10_3 C9_3 1_555 1_555
C11_3 C10_3 1_555 1_555
H5_3 C11_3 1_555 1_555
C12_3 C11_3 1_555 1_555
C13_3 C8_3 1_555 1_555
H6_3 C13_3 1_555 1_555
C14_3 C12_3 1_555 1_555
C15_3 C14_3 1_555 1_555
H7_3 C15_3 1_555 1_555
C16_3 C15_3 1_555 1_555
H8_3 C16_3 1_555 1_555
C17_3 C16_3 1_555 1_555
C18_3 C17_3 1_555 1_555
H9_3 C18_3 1_555 1_555
C19_3 C14_3 1_555 1_555
H10_3 C19_3 1_555 1_555
C20_3 C17_3 1_555 1_555
N1_5 C9_3 1_555 1_555
H11_5 N1_5 1_555 1_555
O5_3 C1_3 1_555 1_555
O20 C1_3 1_555 1_555
O7_3 C20_3 1_555 1_555
O8_3 C20_3 1_555 1_555
O23_3 Zr7_2 1_555 1_555
Zr9_2 O7_3 1_555 1_555
Zr11_3 O8_3 1_555 1_555
C6_3 C7_3 1_555 1_555
C12_3 C13_3 1_555 1_555
C18_3 C19_3 1_555 1_555
O5_3 Zr7_2 1_555 1_555
H11_6 N1_6 1_555 1_555
C21_3 C22_3 1_555 1_555
C22_3 C23_3 1_555 1_555
C23_3 H12_3 1_555 1_555
C24_3 C23_3 1_555 1_555
H13_3 C24_3 1_555 1_555
C25_3 C24_3 1_555 1_555
C26_3 C25_3 1_555 1_555
H14_3 C26_3 1_555 1_555
C27_3 C22_3 1_555 1_555
H15_3 C27_3 1_555 1_555
C28_3 C25_3 1_555 1_555
C29_3 N1_6 1_555 1_555
C31_3 C30_3 1_555 1_555
H16_3 C31_3 1_555 1_555
C32_3 C31_3 1_555 1_555
C33_3 C28_3 1_555 1_555
H17_3 C33_3 1_555 1_555
C34_3 C32_3 1_555 1_555
C35_3 C34_3 1_555 1_555
H18_3 C35_3 1_555 1_555
C36_3 C35_3 1_555 1_555
H19_3 C36_3 1_555 1_555
C37_3 C36_3 1_555 1_555
C38_3 C37_3 1_555 1_555
H20_3 C38_3 1_555 1_555
C39_3 C34_3 1_555 1_555
H21_3 C39_3 1_555 1_555
C40_3 C37_3 1_555 1_555
O12_2 C21_3 1_555 1_555
O13_2 C21_3 1_555 1_555
O14_3 C40_3 1_555 1_555
O15_3 C40_3 1_555 1_555
Zr5_2 O13_2 1_555 1_555
Zr7_4 O12_2 1_555 1_555
Zr8_2 O14_3 1_555 1_555
Zr12_3 O15_3 1_555 1_555
C26_3 C27_3 1_555 1_555
C28_3 C29_3 1_555 1_555
C29_3 C30_3 1_555 1_555
C32_3 C33_3 1_555 1_555
C38_3 C39_3 1_555 1_555
H11_7 N1_7 1_555 1_555
C21_4 C22_4 1_555 1_555
C22_4 C23_4 1_555 1_555
C23_4 H12_4 1_555 1_555
C24_4 C23_4 1_555 1_555
H13_4 C24_4 1_555 1_555
C25_4 C24_4 1_555 1_555
C26_4 C25_4 1_555 1_555
H14_4 C26_4 1_555 1_555
C27_4 C22_4 1_555 1_555
H15_4 C27_4 1_555 1_555
C28_4 C25_4 1_555 1_555
C29_4 N1_7 1_555 1_555
C31_4 C30_4 1_555 1_555
H16_4 C31_4 1_555 1_555
C32_4 C31_4 1_555 1_555
C33_4 C28_4 1_555 1_555
H17_4 C33_4 1_555 1_555
C34_4 C32_4 1_555 1_555
C35_4 C34_4 1_555 1_555
H18_4 C35_4 1_555 1_555
C36_4 C35_4 1_555 1_555
H19_4 C36_4 1_555 1_555
C37_4 C36_4 1_555 1_555
C38_4 C37_4 1_555 1_555
H20_4 C38_4 1_555 1_555
C39_4 C34_4 1_555 1_555
H21_4 C39_4 1_555 1_555
C40_4 C37_4 1_555 1_555
O19_2 C21_4 1_555 1_555
O21_2 C21_4 1_555 1_555
O14_4 C40_4 1_555 1_555
O15_4 C40_4 1_555 1_555
Zr9_2 O14_4 1_555 1_555
Zr12 O15_4 1_555 1_555
C26_4 C27_4 1_555 1_555
C28_4 C29_4 1_555 1_555
C29_4 C30_4 1_555 1_555
C32_4 C33_4 1_555 1_555
C38_4 C39_4 1_555 1_555
C1_4 C2_4 1_555 1_555
C2_4 C3_4 1_555 1_555
C3_4 H1_4 1_555 1_555
C4_4 C3_4 1_555 1_555
H2_4 C4_4 1_555 1_555
C5_4 C4_4 1_555 1_555
C6_4 C5_4 1_555 1_555
H3_4 C6_4 1_555 1_555
C7_4 C2_4 1_555 1_555
H4_4 C7_4 1_555 1_555
C8_4 C5_4 1_555 1_555
C9_4 C8_4 1_555 1_555
C10_4 C9_4 1_555 1_555
C11_4 C10_4 1_555 1_555
H5_4 C11_4 1_555 1_555
C12_4 C11_4 1_555 1_555
C13_4 C8_4 1_555 1_555
H6_4 C13_4 1_555 1_555
C14_4 C12_4 1_555 1_555
C15_4 C14_4 1_555 1_555
H7_4 C15_4 1_555 1_555
C16_4 C15_4 1_555 1_555
H8_4 C16_4 1_555 1_555
C17_4 C16_4 1_555 1_555
C18_4 C17_4 1_555 1_555
H9_4 C18_4 1_555 1_555
C19_4 C14_4 1_555 1_555
H10_4 C19_4 1_555 1_555
C20_4 C17_4 1_555 1_555
N1_8 C9_4 1_555 1_555
H11_8 N1_8 1_555 1_555
O5_4 C1_4 1_555 1_555
O20_2 C1_4 1_555 1_555
O7_4 C20_4 1_555 1_555
O8_4 C20_4 1_555 1_555
O23_4 Zr7_3 1_555 1_555
Zr8_2 O7_4 1_555 1_555
Zr11 O8_4 1_555 1_555
C6_4 C7_4 1_555 1_555
C12_4 C13_4 1_555 1_555
C18_4 C19_4 1_555 1_555
O5_4 Zr7_3 1_555 1_555
O2_4 Zr10_2 1_555 1_555
O4_4 Zr10_2 1_555 1_555
O9_4 Zr5_2 1_555 1_555
O10_4 Zr5_2 1_555 1_555
O11_4 Zr5_2 1_555 1_555
O22_4 Zr7_4 1_555 1_555
O24_4 Zr10_2 1_555 1_555
O25_4 Zr10_2 1_555 1_555
O10_4 Zr7_4 1_555 1_555
O10_4 Zr10_2 1_555 1_555
C1_5 C2_5 1_555 1_555
C2_5 C3_5 1_555 1_555
C3_5 H1_5 1_555 1_555
C4_5 C3_5 1_555 1_555
H2_5 C4_5 1_555 1_555
C5_5 C4_5 1_555 1_555
C6_5 C5_5 1_555 1_555
H3_5 C6_5 1_555 1_555
C7_5 C2_5 1_555 1_555
H4_5 C7_5 1_555 1_555
C8_5 C5_5 1_555 1_555
C9_5 C8_5 1_555 1_555
C10_5 C9_5 1_555 1_555
C11_5 C10_5 1_555 1_555
H5_5 C11_5 1_555 1_555
C12_5 C11_5 1_555 1_555
C13_5 C8_5 1_555 1_555
H6_5 C13_5 1_555 1_555
C14_5 C12_5 1_555 1_555
C15_5 C14_5 1_555 1_555
H7_5 C15_5 1_555 1_555
C16_5 C15_5 1_555 1_555
H8_5 C16_5 1_555 1_555
C17_5 C16_5 1_555 1_555
C18_5 C17_5 1_555 1_555
H9_5 C18_5 1_555 1_555
C19_5 C14_5 1_555 1_555
H10_5 C19_5 1_555 1_555
C20_5 C17_5 1_555 1_555
N1_9 C9_5 1_555 1_555
H11_9 N1_9 1_555 1_555
O1_5 Zr1_2 1_555 1_555
O2_5 Zr11 1_555 1_555
O3_5 Zr8_2 1_555 1_555
O4_5 Zr11 1_555 1_555
O5_5 C1_5 1_555 1_555
O6_3 C1_5 1_555 1_555
O22_4 C20_5 1_555 1_555
O24_4 C20_5 1_555 1_555
O9_5 Zr1_2 1_555 1_555
O10_5 Zr1_2 1_555 1_555
O11_5 Zr1_2 1_555 1_555
Zr8_2 O1_5 1_555 1_555
Zr11 O3_5 1_555 1_555
C21_5 C22_5 1_555 1_555
C22_5 C23_5 1_555 1_555
C23_5 H12_5 1_555 1_555
C24_5 C23_5 1_555 1_555
H13_5 C24_5 1_555 1_555
C25_5 C24_5 1_555 1_555
C26_5 C25_5 1_555 1_555
H14_5 C26_5 1_555 1_555
C27_5 C22_5 1_555 1_555
H15_5 C27_5 1_555 1_555
C28_5 C25_5 1_555 1_555
C29_5 N1_9 1_555 1_555
C30_5 C10_5 1_555 1_555
C31_5 C30_5 1_555 1_555
H16_5 C31_5 1_555 1_555
C32_5 C31_5 1_555 1_555
C33_5 C28_5 1_555 1_555
H17_5 C33_5 1_555 1_555
C34_5 C32_5 1_555 1_555
C35_5 C34_5 1_555 1_555
H18_5 C35_5 1_555 1_555
C36_5 C35_5 1_555 1_555
H19_5 C36_5 1_555 1_555
C37_5 C36_5 1_555 1_555
C38_5 C37_5 1_555 1_555
H20_5 C38_5 1_555 1_555
C39_5 C34_5 1_555 1_555
H21_5 C39_5 1_555 1_555
C40_5 C37_5 1_555 1_555
O12_3 C21_5 1_555 1_555
O13_3 C21_5 1_555 1_555
O23_3 C40_5 1_555 1_555
O25 C40_5 1_555 1_555
O19_3 Zr8_2 1_555 1_555
O21_3 Zr1_2 1_555 1_555
O26_3 Zr8_2 1_555 1_555
Zr4_2 O13_3 1_555 1_555
Zr5_3 O1_5 1_555 1_555
Zr9_2 O12_3 1_555 1_555
Zr12_3 O3_5 1_555 1_555
C6_5 C7_5 1_555 1_555
C12_5 C13_5 1_555 1_555
C18_5 C19_5 1_555 1_555
O5_5 Zr8_2 1_555 1_555
O6_3 Zr5_3 1_555 1_555
O10_5 Zr8_2 1_555 1_555
O10_5 Zr11 1_555 1_555
C26_5 C27_5 1_555 1_555
C28_5 C29_5 1_555 1_555
C29_5 C30_5 1_555 1_555
C32_5 C33_5 1_555 1_555
C38_5 C39_5 1_555 1_555
O26_3 Zr5_3 1_555 1_555
O26_3 Zr12_3 1_555 1_555
O2_5 H22 1_555 1_555
O4_5 H24 1_555 1_555
O4_5 H25 1_555 1_555
O9_5 H26 1_555 1_555
O11_5 H28 1_555 1_555
O2_6 Zr11_2 1_555 1_555
O4_6 Zr11_2 1_555 1_555
O9_6 Zr1_3 1_555 1_555
O11_6 Zr1_3 1_555 1_555
Zr1_3 O16_3 1_555 1_555
O16_3 Zr11_2 1_555 1_555
O17_5 Zr1_3 1_555 1_555
O18_5 Zr11_2 1_555 1_555
O20_3 Zr1_3 1_555 1_555
Zr8 O16_3 1_555 1_555
O17_5 Zr5_4 1_555 1_555
O17_5 Zr8 1_555 1_555
O18_5 Zr8 1_555 1_555
O18_5 Zr12_4 1_555 1_555
O2_6 H23 1_555 1_555
O4_6 H25_2 1_555 1_555
O9_6 H27 1_555 1_555
O11_6 H29 1_555 1_555
C1_6 C2_6 1_555 1_555
C2_6 C3_6 1_555 1_555
C3_6 H1_6 1_555 1_555
C4_6 C3_6 1_555 1_555
H2_6 C4_6 1_555 1_555
C5_6 C4_6 1_555 1_555
C6_6 C5_6 1_555 1_555
H3_6 C6_6 1_555 1_555
C7_6 C2_6 1_555 1_555
H4_6 C7_6 1_555 1_555
C8_6 C5_6 1_555 1_555
C9_6 C8_6 1_555 1_555
C10_6 C9_6 1_555 1_555
C11_6 C10_6 1_555 1_555
H5_6 C11_6 1_555 1_555
C12_6 C11_6 1_555 1_555
C13_6 C8_6 1_555 1_555
H6_6 C13_6 1_555 1_555
C14_6 C12_6 1_555 1_555
C15_6 C14_6 1_555 1_555
H7_6 C15_6 1_555 1_555
C16_6 C15_6 1_555 1_555
H8_6 C16_6 1_555 1_555
C17_6 C16_6 1_555 1_555
C18_6 C17_6 1_555 1_555
H9_6 C18_6 1_555 1_555
C19_6 C14_6 1_555 1_555
H10_6 C19_6 1_555 1_555
C20_6 C17_6 1_555 1_555
N1_10 C9_6 1_555 1_555
H11_10 N1_10 1_555 1_555
O1_6 Zr4_2 1_555 1_555
O2_7 Zr11_3 1_555 1_555
O3_6 Zr9_2 1_555 1_555
O4_7 Zr11_3 1_555 1_555
O5_6 C1_6 1_555 1_555
O6_4 C1_6 1_555 1_555
O22_3 C20_6 1_555 1_555
O24_3 C20_6 1_555 1_555
O9_7 Zr4_2 1_555 1_555
O10_6 Zr4_2 1_555 1_555
O11_7 Zr4_2 1_555 1_555
Zr9_2 O1_6 1_555 1_555
Zr11_3 O3_6 1_555 1_555
C21_6 C22_6 1_555 1_555
C22_6 C23_6 1_555 1_555
C23_6 H12_6 1_555 1_555
C24_6 C23_6 1_555 1_555
H13_6 C24_6 1_555 1_555
C25_6 C24_6 1_555 1_555
C26_6 C25_6 1_555 1_555
H14_6 C26_6 1_555 1_555
C27_6 C22_6 1_555 1_555
H15_6 C27_6 1_555 1_555
C28_6 C25_6 1_555 1_555
C29_6 N1_10 1_555 1_555
C30_6 C10_6 1_555 1_555
C31_6 C30_6 1_555 1_555
H16_6 C31_6 1_555 1_555
C32_6 C31_6 1_555 1_555
C33_6 C28_6 1_555 1_555
H17_6 C33_6 1_555 1_555
C34_6 C32_6 1_555 1_555
C35_6 C34_6 1_555 1_555
H18_6 C35_6 1_555 1_555
C36_6 C35_6 1_555 1_555
H19_6 C36_6 1_555 1_555
C37_6 C36_6 1_555 1_555
C38_6 C37_6 1_555 1_555
H20_6 C38_6 1_555 1_555
C39_6 C34_6 1_555 1_555
H21_6 C39_6 1_555 1_555
C40_6 C37_6 1_555 1_555
O19_3 C21_6 1_555 1_555
O21_3 C21_6 1_555 1_555
O23_4 C40_6 1_555 1_555
O25_2 C40_6 1_555 1_555
O26_4 Zr9_2 1_555 1_555
Zr5_5 O1_6 1_555 1_555
Zr12 O3_6 1_555 1_555
C6_6 C7_6 1_555 1_555
C12_6 C13_6 1_555 1_555
C18_6 C19_6 1_555 1_555
O5_6 Zr9_2 1_555 1_555
O6_4 Zr5_5 1_555 1_555
O10_6 Zr9_2 1_555 1_555
O10_6 Zr11_3 1_555 1_555
C26_6 C27_6 1_555 1_555
C28_6 C29_6 1_555 1_555
C29_6 C30_6 1_555 1_555
C32_6 C33_6 1_555 1_555
C38_6 C39_6 1_555 1_555
O26_4 Zr5_5 1_555 1_555
O26_4 Zr12 1_555 1_555
O2_7 H22_2 1_555 1_555
O4_7 H24_2 1_555 1_555
O4_7 H25_3 1_555 1_555
O9_7 H26_2 1_555 1_555
O11_7 H28_2 1_555 1_555
O2_8 Zr11_4 1_555 1_555
O4_8 Zr11_4 1_555 1_555
O9_8 Zr4_3 1_555 1_555
O11_8 Zr4_3 1_555 1_555
Zr4_3 O16_4 1_555 1_555
O16_4 Zr11_4 1_555 1_555
O17_6 Zr4_3 1_555 1_555
O18_6 Zr11_4 1_555 1_555
O20_4 Zr4_3 1_555 1_555
Zr9 O16_4 1_555 1_555
O17_6 Zr5_6 1_555 1_555
O17_6 Zr9 1_555 1_555
O18_6 Zr9 1_555 1_555
O18_6 Zr12_2 1_555 1_555
O2_8 H23_2 1_555 1_555
O4_8 H25_4 1_555 1_555
O9_8 H27_2 1_555 1_555
O11_8 H29_2 1_555 1_555
O2_9 Zr12_3 1_555 1_555
O4_9 Zr12_3 1_555 1_555
O9_9 Zr5_3 1_555 1_555
O11_9 Zr5_3 1_555 1_555
O2_9 H23_3 1_555 1_555
O4_9 H25_5 1_555 1_555
O9_9 H27_3 1_555 1_555
O11_9 H29_3 1_555 1_555
C1_7 C2_7 1_555 1_555
C2_7 C3_7 1_555 1_555
C3_7 H1_7 1_555 1_555
C4_7 C3_7 1_555 1_555
H2_7 C4_7 1_555 1_555
C5_7 C4_7 1_555 1_555
C6_7 C5_7 1_555 1_555
H3_7 C6_7 1_555 1_555
C7_7 C2_7 1_555 1_555
H4_7 C7_7 1_555 1_555
C8_7 C5_7 1_555 1_555
C9_7 C8_7 1_555 1_555
C10_7 C9_7 1_555 1_555
C11_7 C10_7 1_555 1_555
H5_7 C11_7 1_555 1_555
C12_7 C11_7 1_555 1_555
C13_7 C8_7 1_555 1_555
H6_7 C13_7 1_555 1_555
C14_7 C12_7 1_555 1_555
C15_7 C14_7 1_555 1_555
H7_7 C15_7 1_555 1_555
C16_7 C15_7 1_555 1_555
H8_7 C16_7 1_555 1_555
C17_7 C16_7 1_555 1_555
C18_7 C17_7 1_555 1_555
H9_7 C18_7 1_555 1_555
C19_7 C14_7 1_555 1_555
H10_7 C19_7 1_555 1_555
C20_7 C17_7 1_555 1_555
N1_11 C9_7 1_555 1_555
H11_11 N1_11 1_555 1_555
O2_10 Zr12_4 1_555 1_555
O4_10 Zr12_4 1_555 1_555
O5_7 C1_7 1_555 1_555
O20_3 C1_7 1_555 1_555
O22_2 C20_7 1_555 1_555
O24_2 C20_7 1_555 1_555
O9_10 Zr5_4 1_555 1_555
O10_7 Zr5_4 1_555 1_555
O11_10 Zr5_4 1_555 1_555
C21_7 C22_7 1_555 1_555
C22_7 C23_7 1_555 1_555
C23_7 H12_7 1_555 1_555
C24_7 C23_7 1_555 1_555
H13_7 C24_7 1_555 1_555
C25_7 C24_7 1_555 1_555
C26_7 C25_7 1_555 1_555
H14_7 C26_7 1_555 1_555
C27_7 C22_7 1_555 1_555
H15_7 C27_7 1_555 1_555
C28_7 C25_7 1_555 1_555
C29_7 N1_11 1_555 1_555
C30_7 C10_7 1_555 1_555
C31_7 C30_7 1_555 1_555
H16_7 C31_7 1_555 1_555
C32_7 C31_7 1_555 1_555
C33_7 C28_7 1_555 1_555
H17_7 C33_7 1_555 1_555
C34_7 C32_7 1_555 1_555
C35_7 C34_7 1_555 1_555
H18_7 C35_7 1_555 1_555
C36_7 C35_7 1_555 1_555
H19_7 C36_7 1_555 1_555
C37_7 C36_7 1_555 1_555
C38_7 C37_7 1_555 1_555
H20_7 C38_7 1_555 1_555
C39_7 C34_7 1_555 1_555
H21_7 C39_7 1_555 1_555
C40_7 C37_7 1_555 1_555
O12_4 C21_7 1_555 1_555
O13_4 C21_7 1_555 1_555
O23 C40_7 1_555 1_555
O25_3 C40_7 1_555 1_555
O19_4 Zr8 1_555 1_555
O21_4 Zr5_4 1_555 1_555
Zr5_6 O13_4 1_555 1_555
Zr9 O12_4 1_555 1_555
C6_7 C7_7 1_555 1_555
C12_7 C13_7 1_555 1_555
C18_7 C19_7 1_555 1_555
O5_7 Zr8 1_555 1_555
O10_7 Zr8 1_555 1_555
O10_7 Zr12_4 1_555 1_555
C26_7 C27_7 1_555 1_555
C28_7 C29_7 1_555 1_555
C29_7 C30_7 1_555 1_555
C32_7 C33_7 1_555 1_555
C38_7 C39_7 1_555 1_555
O2_10 H22_3 1_555 1_555
O4_10 H24_3 1_555 1_555
O4_10 H25_6 1_555 1_555
O9_10 H26_3 1_555 1_555
O11_10 H28_3 1_555 1_555
O2_11 Zr12 1_555 1_555
O4_11 Zr12 1_555 1_555
O9_11 Zr5_5 1_555 1_555
O11_11 Zr5_5 1_555 1_555
O2_11 H23_4 1_555 1_555
O4_11 H25_7 1_555 1_555
O9_11 H27_4 1_555 1_555
O11_11 H29_4 1_555 1_555
C1_8 C2_8 1_555 1_555
C2_8 C3_8 1_555 1_555
C3_8 H1_8 1_555 1_555
C4_8 C3_8 1_555 1_555
H2_8 C4_8 1_555 1_555
C5_8 C4_8 1_555 1_555
C6_8 C5_8 1_555 1_555
H3_8 C6_8 1_555 1_555
C7_8 C2_8 1_555 1_555
H4_8 C7_8 1_555 1_555
C8_8 C5_8 1_555 1_555
C9_8 C8_8 1_555 1_555
C10_8 C9_8 1_555 1_555
C11_8 C10_8 1_555 1_555
H5_8 C11_8 1_555 1_555
C12_8 C11_8 1_555 1_555
C13_8 C8_8 1_555 1_555
H6_8 C13_8 1_555 1_555
C14_8 C12_8 1_555 1_555
C15_8 C14_8 1_555 1_555
H7_8 C15_8 1_555 1_555
C16_8 C15_8 1_555 1_555
H8_8 C16_8 1_555 1_555
C17_8 C16_8 1_555 1_555
C18_8 C17_8 1_555 1_555
H9_8 C18_8 1_555 1_555
C19_8 C14_8 1_555 1_555
H10_8 C19_8 1_555 1_555
C20_8 C17_8 1_555 1_555
N1_12 C9_8 1_555 1_555
H11_12 N1_12 1_555 1_555
O2_12 Zr12_2 1_555 1_555
O4_12 Zr12_2 1_555 1_555
O5_8 C1_8 1_555 1_555
O20_4 C1_8 1_555 1_555
O22 C20_8 1_555 1_555
O24 C20_8 1_555 1_555
O9_12 Zr5_6 1_555 1_555
O10_8 Zr5_6 1_555 1_555
O11_12 Zr5_6 1_555 1_555
C21_8 C22_8 1_555 1_555
C22_8 C23_8 1_555 1_555
C23_8 H12_8 1_555 1_555
C24_8 C23_8 1_555 1_555
H13_8 C24_8 1_555 1_555
C25_8 C24_8 1_555 1_555
C26_8 C25_8 1_555 1_555
H14_8 C26_8 1_555 1_555
C27_8 C22_8 1_555 1_555
H15_8 C27_8 1_555 1_555
C28_8 C25_8 1_555 1_555
C29_8 N1_12 1_555 1_555
C30_8 C10_8 1_555 1_555
C31_8 C30_8 1_555 1_555
H16_8 C31_8 1_555 1_555
C32_8 C31_8 1_555 1_555
C33_8 C28_8 1_555 1_555
H17_8 C33_8 1_555 1_555
C34_8 C32_8 1_555 1_555
C35_8 C34_8 1_555 1_555
H18_8 C35_8 1_555 1_555
C36_8 C35_8 1_555 1_555
H19_8 C36_8 1_555 1_555
C37_8 C36_8 1_555 1_555
C38_8 C37_8 1_555 1_555
H20_8 C38_8 1_555 1_555
C39_8 C34_8 1_555 1_555
H21_8 C39_8 1_555 1_555
C40_8 C37_8 1_555 1_555
O19_4 C21_8 1_555 1_555
O21_4 C21_8 1_555 1_555
O23_2 C40_8 1_555 1_555
O25_4 C40_8 1_555 1_555
C6_8 C7_8 1_555 1_555
C12_8 C13_8 1_555 1_555
C18_8 C19_8 1_555 1_555
O5_8 Zr9 1_555 1_555
O10_8 Zr9 1_555 1_555
O10_8 Zr12_2 1_555 1_555
C26_8 C27_8 1_555 1_555
C28_8 C29_8 1_555 1_555
C29_8 C30_8 1_555 1_555
C32_8 C33_8 1_555 1_555
C38_8 C39_8 1_555 1_555
O2_12 H22_4 1_555 1_555
O4_12 H24_4 1_555 1_555
O4_12 H25_8 1_555 1_555
O9_12 H26_4 1_555 1_555
O11_12 H28_4 1_555 1_555
O2_7 H23_5 1_555 1_555
O9_7 H27_5 1_555 1_555
O11_7 H29_5 1_555 1_555
O2_8 H22_5 1_555 1_555
O4_8 H24_5 1_555 1_555
O9_8 H26_5 1_555 1_555
O11_8 H28_5 1_555 1_555
O2_5 H23_6 1_555 1_555
O9_5 H27_6 1_555 1_555
O11_5 H29_6 1_555 1_555
O2_6 H22_6 1_555 1_555
O4_6 H24_6 1_555 1_555
O9_6 H26_6 1_555 1_555
O11_6 H28_6 1_555 1_555
O2_11 H22_7 1_555 1_555
O4_11 H24_7 1_555 1_555
O9_11 H26_7 1_555 1_555
O11_11 H28_7 1_555 1_555
O2_12 H23_7 1_555 1_555
O9_12 H27_7 1_555 1_555
O11_12 H29_7 1_555 1_555
O2_9 H22_8 1_555 1_555
O4_9 H24_8 1_555 1_555
O9_9 H26_8 1_555 1_555
O11_9 H28_8 1_555 1_555
O2_10 H23_8 1_555 1_555
O9_10 H27_8 1_555 1_555
O11_10 H29_8 1_555 1_555

#END
