
###############################################################################
#
# This file contains modified crystal structure data generated from the
# MOF subset of the Cambridge Structural Database (CSD) v543 
# hosted by the Cambridge Crystallographic Data Centre (CCDC).
#
# This work is licensed under the Creative Commons
# Attribution-NonCommercial-ShareAlike 4.0 International License.
# To view a copy of this license, visit
# http://creativecommons.org/licenses/by-nc-sa/4.0/
# or send a letter to
# Creative Commons, PO Box 1866, Mountain View, CA 94042, USA.
#
# CIF created using the CSD Python API on 29 September 2022
# The structure has been converted into the P1 space group
# The structure has a 3D framework
# The original CSD entry GINWUY is in the orthorhombic crystal system
# The framework has been calculated to contain at least 10.0% void space
# The void calculation uses a probe of radius 1.32A, grid spacing 0.4
# H atom positions have been added when not included in the experimental data
# Generated hydrogen atom positions removed from atoms on special positions
#
###############################################################################

data_GINWUY
_chemical_formula_moiety         '(C320 H296 N12 O152 Zr36)n'
_symmetry_cell_setting           triclinic
_symmetry_space_group_name_H-M   'P 1'
_symmetry_Int_Tables_number      1
_space_group_name_Hall           'P 1'
loop_
_symmetry_equiv_pos_site_id
_symmetry_equiv_pos_as_xyz
1 x,y,z
_cell_length_a                   22.2490(6)
_cell_length_b                   31.0425(8)
_cell_length_c                   33.0217(7)
_cell_angle_alpha                90
_cell_angle_beta                 90
_cell_angle_gamma                90
_cell_volume                     22806.9
loop_
_atom_site_label
_atom_site_type_symbol
_atom_site_fract_x
_atom_site_fract_y
_atom_site_fract_z
Zr1 Zr 0.5000 0.29344(2) 0.42539(2)
Zr2 Zr 0.57937(3) 0.35023(2) 0.5000
Zr3 Zr 0.57815(4) 0.23666(3) 0.5000
O1 O 0.43942(19) 0.33546(13) 0.39172(11)
O2 O 0.3884(3) 0.37372(18) 0.43831(13)
O3 O 0.5692(4) 0.4207(2) 0.5000
O4 O 0.5000 0.3495(3) 0.4636(2)
O5 O 0.5793(3) 0.29368(16) 0.46349(16)
O6 O 0.5454(4) 0.1659(2) 0.5000
O7 O 0.6772(4) 0.2430(4) 0.5000
O8 O 0.5000 0.2381(3) 0.4631(3)
N1 N 0.2513(4) 0.5000 0.2873(2)
H1 H 0.2436 0.5000 0.3128
O9 O 0.6766(4) 0.3449(4) 0.5000
C1 C 0.3590(3) 0.3778(2) 0.36996(18)
C2 C 0.3126(3) 0.4066(2) 0.3776(2)
H2 H 0.3062 0.4161 0.4040
C3 C 0.3987(3) 0.3612(2) 0.40279(17)
C4 C 0.2831(4) 0.4059(2) 0.30729(19)
C5 C 0.3287(4) 0.3768(2) 0.29952(19)
H3 H 0.3337 0.3663 0.2734
C6 C 0.1368(4) 0.3322(2) 0.1961(2)
H4 H 0.1332 0.3263 0.2236
C7 C 0.3675(4) 0.3629(2) 0.33004(19)
H5 H 0.3987 0.3441 0.3241
C8 C 0.2758(3) 0.4214(2) 0.34721(18)
H6 H 0.2461 0.4416 0.3529
C9 C 0.1633(4) 0.3700(2) 0.1838(2)
C10 C 0.1961(4) 0.47675(19) 0.23319(19)
C11 C 0.1216(4) 0.3109(2) 0.12647(19)
C12 C 0.2305(3) 0.4631(2) 0.26648(19)
C13 C 0.1685(4) 0.3774(2) 0.1421(2)
H7 H 0.1862 0.4029 0.1333
C14 C 0.1730(4) 0.4462(2) 0.20639(19)
H8 H 0.1497 0.4548 0.1844
C15 C 0.1154(4) 0.3025(3) 0.1679(2)
H9 H 0.0970 0.2772 0.1766
C16 C 0.2190(4) 0.3909(2) 0.2467(2)
H10 H 0.2254 0.3617 0.2514
C17 C 0.1853(4) 0.4028(2) 0.2129(2)
C18 C 0.2435(4) 0.4203(2) 0.2737(2)
C19 C 0.1485(4) 0.3489(2) 0.1142(2)
H11 H 0.1529 0.3549 0.0868
O10 O 0.0611(2) 0.25107(14) 0.10812(12)
O11 O 0.1102(3) 0.28814(17) 0.05934(14)
C20 C 0.0960(4) 0.2810(2) 0.09589(18)
O12 O 0.43942(19) 0.66454(13) 0.39172(11)
O13 O 0.3884(3) 0.62628(18) 0.43831(13)
C21 C 0.3590(3) 0.6222(2) 0.36996(18)
C22 C 0.3126(3) 0.5934(2) 0.3776(2)
H12 H 0.3062 0.5839 0.4040
C23 C 0.3987(3) 0.6388(2) 0.40279(17)
C24 C 0.2831(4) 0.5941(2) 0.30729(19)
C25 C 0.3287(4) 0.6232(2) 0.29952(19)
H13 H 0.3337 0.6337 0.2734
C26 C 0.1368(4) 0.6678(2) 0.1961(2)
H14 H 0.1332 0.6737 0.2236
C27 C 0.3675(4) 0.6371(2) 0.33004(19)
H15 H 0.3987 0.6559 0.3241
C28 C 0.2758(3) 0.5786(2) 0.34721(18)
H16 H 0.2461 0.5584 0.3529
C29 C 0.1633(4) 0.6300(2) 0.1838(2)
C30 C 0.1961(4) 0.52325(19) 0.23319(19)
C31 C 0.1216(4) 0.6891(2) 0.12647(19)
C32 C 0.2305(3) 0.5369(2) 0.26648(19)
C33 C 0.1685(4) 0.6226(2) 0.1421(2)
H17 H 0.1862 0.5971 0.1333
C34 C 0.1730(4) 0.5538(2) 0.20639(19)
H18 H 0.1497 0.5452 0.1844
C35 C 0.1154(4) 0.6975(3) 0.1679(2)
H19 H 0.0970 0.7228 0.1766
C36 C 0.2190(4) 0.6091(2) 0.2467(2)
H20 H 0.2254 0.6383 0.2514
C37 C 0.1853(4) 0.5972(2) 0.2129(2)
C38 C 0.2435(4) 0.5797(2) 0.2737(2)
C39 C 0.1485(4) 0.6511(2) 0.1142(2)
H21 H 0.1529 0.6451 0.0868
O14 O 0.0611(2) 0.74893(14) 0.10812(12)
O15 O 0.1102(3) 0.71186(17) 0.05934(14)
C40 C 0.0960(4) 0.7190(2) 0.09589(18)
O16 O 0.4207(3) 0.29368(16) 0.46349(16)
Zr4 Zr 0.5000 0.70656(2) 0.42539(2)
Zr5 Zr 0.0000 0.79344(2) 0.07461(2)
Zr6 Zr 0.0000 0.20656(2) 0.07461(2)
Zr7 Zr 0.42063(3) 0.64977(2) 0.5000
Zr8 Zr 0.42063(3) 0.35023(2) 0.5000
Zr9 Zr 0.42185(4) 0.23666(3) 0.5000
Zr10 Zr 0.07815(4) 0.73666(3) 0.0000
Zr11 Zr 0.07815(4) 0.26334(3) 0.0000
O17 O 0.56058(19) 0.33546(13) 0.39172(11)
O18 O 0.6116(3) 0.37372(18) 0.56169(13)
O19 O 0.6116(3) 0.37372(18) 0.43831(13)
O20 O 0.5000 0.3495(3) 0.5364(2)
O21 O 0.5793(3) 0.29368(16) 0.53651(16)
O22 O 0.5000 0.2381(3) 0.5369(3)
O23 O 0.5611(2) 0.24893(14) 0.39188(12)
O24 O 0.4389(2) 0.24893(14) 0.39188(12)
O25 O 0.6102(3) 0.21186(17) 0.44066(14)
O26 O 0.6102(3) 0.21186(17) 0.55934(14)
Zr10_2 Zr 0.07815(4) 0.73666(3) 1.0000
Zr11_2 Zr 0.07815(4) 0.26334(3) 1.0000
Zr5_2 Zr 1.0000 0.79344(2) 0.07461(2)
Zr6_2 Zr 1.0000 0.20656(2) 0.07461(2)
Zr3_2 Zr 0.42185(4) 0.76334(3) 0.5000
O1_2 O 0.56058(19) 0.66454(13) 0.39172(11)
O2_2 O 0.6116(3) 0.62628(18) 0.43831(13)
O3_2 O 0.4308(4) 0.5793(2) 0.5000
O4_2 O 0.5000 0.6505(3) 0.4636(2)
O5_2 O 0.4207(3) 0.70632(16) 0.46349(16)
O6_2 O 0.4546(4) 0.8341(2) 0.5000
O7_2 O 0.3228(4) 0.7570(4) 0.5000
O8_2 O 0.5000 0.7619(3) 0.4631(3)
N1_2 N 0.7487(4) 0.5000 0.2873(2)
H1_2 H 0.7564 0.5000 0.3128
O9_2 O 0.3234(4) 0.6551(4) 0.5000
C1_2 C 0.6410(3) 0.6222(2) 0.36996(18)
C2_2 C 0.6874(3) 0.5934(2) 0.3776(2)
H2_2 H 0.6938 0.5839 0.4040
C3_2 C 0.6013(3) 0.6388(2) 0.40279(17)
C4_2 C 0.7169(4) 0.5941(2) 0.30729(19)
C5_2 C 0.6713(4) 0.6232(2) 0.29952(19)
H3_2 H 0.6663 0.6337 0.2734
C6_2 C 0.8632(4) 0.6678(2) 0.1961(2)
H4_2 H 0.8668 0.6737 0.2236
C7_2 C 0.6325(4) 0.6371(2) 0.33004(19)
H5_2 H 0.6013 0.6559 0.3241
C8_2 C 0.7242(3) 0.5786(2) 0.34721(18)
H6_2 H 0.7539 0.5584 0.3529
C9_2 C 0.8367(4) 0.6300(2) 0.1838(2)
C10_2 C 0.8039(4) 0.52325(19) 0.23319(19)
C11_2 C 0.8784(4) 0.6891(2) 0.12647(19)
C12_2 C 0.7695(3) 0.5369(2) 0.26648(19)
C13_2 C 0.8315(4) 0.6226(2) 0.1421(2)
H7_2 H 0.8138 0.5971 0.1333
C14_2 C 0.8270(4) 0.5538(2) 0.20639(19)
H8_2 H 0.8503 0.5452 0.1844
C15_2 C 0.8846(4) 0.6975(3) 0.1679(2)
H9_2 H 0.9030 0.7228 0.1766
C16_2 C 0.7810(4) 0.6091(2) 0.2467(2)
H10_2 H 0.7746 0.6383 0.2514
C17_2 C 0.8147(4) 0.5972(2) 0.2129(2)
C18_2 C 0.7565(4) 0.5797(2) 0.2737(2)
C19_2 C 0.8515(4) 0.6511(2) 0.1142(2)
H11_2 H 0.8471 0.6451 0.0868
O10_2 O 0.9389(2) 0.74893(14) 0.10812(12)
O11_2 O 0.8898(3) 0.71186(17) 0.05934(14)
C20_2 C 0.9040(4) 0.7190(2) 0.09589(18)
C21_2 C 0.6410(3) 0.3778(2) 0.36996(18)
C22_2 C 0.6874(3) 0.4066(2) 0.3776(2)
H12_2 H 0.6938 0.4161 0.4040
C23_2 C 0.6013(3) 0.3612(2) 0.40279(17)
C24_2 C 0.7169(4) 0.4059(2) 0.30729(19)
C25_2 C 0.6713(4) 0.3768(2) 0.29952(19)
H13_2 H 0.6663 0.3663 0.2734
C26_2 C 0.8632(4) 0.3322(2) 0.1961(2)
H14_2 H 0.8668 0.3263 0.2236
C27_2 C 0.6325(4) 0.3629(2) 0.33004(19)
H15_2 H 0.6013 0.3441 0.3241
C28_2 C 0.7242(3) 0.4214(2) 0.34721(18)
H16_2 H 0.7539 0.4416 0.3529
C29_2 C 0.8367(4) 0.3700(2) 0.1838(2)
C30_2 C 0.8039(4) 0.47675(19) 0.23319(19)
C31_2 C 0.8784(4) 0.3109(2) 0.12647(19)
C32_2 C 0.7695(3) 0.4631(2) 0.26648(19)
C33_2 C 0.8315(4) 0.3774(2) 0.1421(2)
H17_2 H 0.8138 0.4029 0.1333
C34_2 C 0.8270(4) 0.4462(2) 0.20639(19)
H18_2 H 0.8503 0.4548 0.1844
C35_2 C 0.8846(4) 0.3025(3) 0.1679(2)
H19_2 H 0.9030 0.2772 0.1766
C36_2 C 0.7810(4) 0.3909(2) 0.2467(2)
H20_2 H 0.7746 0.3617 0.2514
C37_2 C 0.8147(4) 0.4028(2) 0.2129(2)
C38_2 C 0.7565(4) 0.4203(2) 0.2737(2)
C39_2 C 0.8515(4) 0.3489(2) 0.1142(2)
H21_2 H 0.8471 0.3549 0.0868
O14_2 O 0.9389(2) 0.25107(14) 0.10812(12)
O15_2 O 0.8898(3) 0.28814(17) 0.05934(14)
C40_2 C 0.9040(4) 0.2810(2) 0.09589(18)
O16_2 O 0.5793(3) 0.70632(16) 0.46349(16)
Zr8_2 Zr 0.57937(3) 0.64977(2) 0.5000
Zr9_2 Zr 0.57815(4) 0.76334(3) 0.5000
Zr10_3 Zr 0.92185(4) 0.26334(3) 0.0000
Zr11_3 Zr 0.92185(4) 0.73666(3) 0.0000
O18_2 O 0.3884(3) 0.62628(18) 0.56169(13)
O20_2 O 0.5000 0.6505(3) 0.5364(2)
O21_2 O 0.4207(3) 0.70632(16) 0.53651(16)
O22_2 O 0.5000 0.7619(3) 0.5369(3)
O23_2 O 0.4389(2) 0.75107(14) 0.39188(12)
O24_2 O 0.5611(2) 0.75107(14) 0.39188(12)
O25_2 O 0.3898(3) 0.78814(17) 0.44066(14)
O26_2 O 0.3898(3) 0.78814(17) 0.55934(14)
Zr10_4 Zr 0.92185(4) 0.26334(3) 1.0000
Zr11_4 Zr 0.92185(4) 0.73666(3) 1.0000
Zr5_3 Zr -0.0000 0.79344(2) 0.92539(2)
Zr6_3 Zr -0.0000 0.20656(2) 0.92539(2)
Zr1_2 Zr 0.5000 0.29344(2) 0.57461(2)
O1_3 O 0.56058(19) 0.33546(13) 0.60828(11)
O3_3 O 0.4308(4) 0.4207(2) 0.5000
O5_3 O 0.4207(3) 0.29368(16) 0.53651(16)
O6_3 O 0.4546(4) 0.1659(2) 0.5000
O7_3 O 0.3228(4) 0.2430(4) 0.5000
N1_3 N 0.7487(4) 0.5000 0.7127(2)
H1_3 H 0.7564 0.5000 0.6872
O9_3 O 0.3234(4) 0.3449(4) 0.5000
C1_3 C 0.6410(3) 0.3778(2) 0.63004(18)
C2_3 C 0.6874(3) 0.4066(2) 0.6224(2)
H2_3 H 0.6938 0.4161 0.5960
C3_3 C 0.6013(3) 0.3612(2) 0.59721(17)
C4_3 C 0.7169(4) 0.4059(2) 0.69271(19)
C5_3 C 0.6713(4) 0.3768(2) 0.70048(19)
H3_3 H 0.6663 0.3663 0.7266
C6_3 C 0.8632(4) 0.3322(2) 0.8039(2)
H4_3 H 0.8668 0.3263 0.7764
C7_3 C 0.6325(4) 0.3629(2) 0.66996(19)
H5_3 H 0.6013 0.3441 0.6759
C8_3 C 0.7242(3) 0.4214(2) 0.65279(18)
H6_3 H 0.7539 0.4416 0.6471
C9_3 C 0.8367(4) 0.3700(2) 0.8162(2)
C10_3 C 0.8039(4) 0.47675(19) 0.76681(19)
C11_3 C 0.8784(4) 0.3109(2) 0.87353(19)
C12_3 C 0.7695(3) 0.4631(2) 0.73352(19)
C13_3 C 0.8315(4) 0.3774(2) 0.8579(2)
H7_3 H 0.8138 0.4029 0.8667
C14_3 C 0.8270(4) 0.4462(2) 0.79361(19)
H8_3 H 0.8503 0.4548 0.8156
C15_3 C 0.8846(4) 0.3025(3) 0.8321(2)
H9_3 H 0.9030 0.2772 0.8234
C16_3 C 0.7810(4) 0.3909(2) 0.7533(2)
H10_3 H 0.7746 0.3617 0.7486
C17_3 C 0.8147(4) 0.4028(2) 0.7871(2)
C18_3 C 0.7565(4) 0.4203(2) 0.7263(2)
C19_3 C 0.8515(4) 0.3489(2) 0.8858(2)
H11_3 H 0.8471 0.3549 0.9132
O10_3 O 0.9389(2) 0.25107(14) 0.89188(12)
O11_3 O 0.8898(3) 0.28814(17) 0.94066(14)
C20_3 C 0.9040(4) 0.2810(2) 0.90411(18)
O12_2 O 0.56058(19) 0.66454(13) 0.60828(11)
O13_2 O 0.6116(3) 0.62628(18) 0.56169(13)
C21_3 C 0.6410(3) 0.6222(2) 0.63004(18)
C22_3 C 0.6874(3) 0.5934(2) 0.6224(2)
H12_3 H 0.6938 0.5839 0.5960
C23_3 C 0.6013(3) 0.6388(2) 0.59721(17)
C24_3 C 0.7169(4) 0.5941(2) 0.69271(19)
C25_3 C 0.6713(4) 0.6232(2) 0.70048(19)
H13_3 H 0.6663 0.6337 0.7266
C26_3 C 0.8632(4) 0.6678(2) 0.8039(2)
H14_3 H 0.8668 0.6737 0.7764
C27_3 C 0.6325(4) 0.6371(2) 0.66996(19)
H15_3 H 0.6013 0.6559 0.6759
C28_3 C 0.7242(3) 0.5786(2) 0.65279(18)
H16_3 H 0.7539 0.5584 0.6471
C29_3 C 0.8367(4) 0.6300(2) 0.8162(2)
C30_3 C 0.8039(4) 0.52325(19) 0.76681(19)
C31_3 C 0.8784(4) 0.6891(2) 0.87353(19)
C32_3 C 0.7695(3) 0.5369(2) 0.73352(19)
C33_3 C 0.8315(4) 0.6226(2) 0.8579(2)
H17_3 H 0.8138 0.5971 0.8667
C34_3 C 0.8270(4) 0.5538(2) 0.79361(19)
H18_3 H 0.8503 0.5452 0.8156
C35_3 C 0.8846(4) 0.6975(3) 0.8321(2)
H19_3 H 0.9030 0.7228 0.8234
C36_3 C 0.7810(4) 0.6091(2) 0.7533(2)
H20_3 H 0.7746 0.6383 0.7486
C37_3 C 0.8147(4) 0.5972(2) 0.7871(2)
C38_3 C 0.7565(4) 0.5797(2) 0.7263(2)
C39_3 C 0.8515(4) 0.6511(2) 0.8858(2)
H21_3 H 0.8471 0.6451 0.9132
O14_3 O 0.9389(2) 0.74893(14) 0.89188(12)
O15_3 O 0.8898(3) 0.71186(17) 0.94066(14)
C40_3 C 0.9040(4) 0.7190(2) 0.90411(18)
Zr4_2 Zr 0.5000 0.70656(2) 0.57461(2)
Zr5_4 Zr 1.0000 0.79344(2) 0.92539(2)
Zr6_4 Zr 1.0000 0.20656(2) 0.92539(2)
O17_2 O 0.43942(19) 0.33546(13) 0.60828(11)
O19_2 O 0.3884(3) 0.37372(18) 0.56169(13)
O23_3 O 0.4389(2) 0.24893(14) 0.60812(12)
O24_3 O 0.5611(2) 0.24893(14) 0.60812(12)
O25_3 O 0.3898(3) 0.21186(17) 0.55934(14)
O26_3 O 0.3898(3) 0.21186(17) 0.44066(14)
O1_4 O 0.43942(19) 0.66454(13) 0.60828(11)
O3_4 O 0.5692(4) 0.5793(2) 0.5000
O5_4 O 0.5793(3) 0.70632(16) 0.53651(16)
O6_4 O 0.5454(4) 0.8341(2) 0.5000
O7_4 O 0.6772(4) 0.7570(4) 0.5000
N1_4 N 0.2513(4) 0.5000 0.7127(2)
H1_4 H 0.2436 0.5000 0.6872
O9_4 O 0.6766(4) 0.6551(4) 0.5000
C1_4 C 0.3590(3) 0.6222(2) 0.63004(18)
C2_4 C 0.3126(3) 0.5934(2) 0.6224(2)
H2_4 H 0.3062 0.5839 0.5960
C3_4 C 0.3987(3) 0.6388(2) 0.59721(17)
C4_4 C 0.2831(4) 0.5941(2) 0.69271(19)
C5_4 C 0.3287(4) 0.6232(2) 0.70048(19)
H3_4 H 0.3337 0.6337 0.7266
C6_4 C 0.1368(4) 0.6678(2) 0.8039(2)
H4_4 H 0.1332 0.6737 0.7764
C7_4 C 0.3675(4) 0.6371(2) 0.66996(19)
H5_4 H 0.3987 0.6559 0.6759
C8_4 C 0.2758(3) 0.5786(2) 0.65279(18)
H6_4 H 0.2461 0.5584 0.6471
C9_4 C 0.1633(4) 0.6300(2) 0.8162(2)
C10_4 C 0.1961(4) 0.52325(19) 0.76681(19)
C11_4 C 0.1216(4) 0.6891(2) 0.87353(19)
C12_4 C 0.2305(3) 0.5369(2) 0.73352(19)
C13_4 C 0.1685(4) 0.6226(2) 0.8579(2)
H7_4 H 0.1862 0.5971 0.8667
C14_4 C 0.1730(4) 0.5538(2) 0.79361(19)
H8_4 H 0.1497 0.5452 0.8156
C15_4 C 0.1154(4) 0.6975(3) 0.8321(2)
H9_4 H 0.0970 0.7228 0.8234
C16_4 C 0.2190(4) 0.6091(2) 0.7533(2)
H10_4 H 0.2254 0.6383 0.7486
C17_4 C 0.1853(4) 0.5972(2) 0.7871(2)
C18_4 C 0.2435(4) 0.5797(2) 0.7263(2)
C19_4 C 0.1485(4) 0.6511(2) 0.8858(2)
H11_4 H 0.1529 0.6451 0.9132
O10_4 O 0.0611(2) 0.74893(14) 0.89188(12)
O11_4 O 0.1102(3) 0.71186(17) 0.94066(14)
C20_4 C 0.0960(4) 0.7190(2) 0.90411(18)
C21_4 C 0.3590(3) 0.3778(2) 0.63004(18)
C22_4 C 0.3126(3) 0.4066(2) 0.6224(2)
H12_4 H 0.3062 0.4161 0.5960
C23_4 C 0.3987(3) 0.3612(2) 0.59721(17)
C24_4 C 0.2831(4) 0.4059(2) 0.69271(19)
C25_4 C 0.3287(4) 0.3768(2) 0.70048(19)
H13_4 H 0.3337 0.3663 0.7266
C26_4 C 0.1368(4) 0.3322(2) 0.8039(2)
H14_4 H 0.1332 0.3263 0.7764
C27_4 C 0.3675(4) 0.3629(2) 0.66996(19)
H15_4 H 0.3987 0.3441 0.6759
C28_4 C 0.2758(3) 0.4214(2) 0.65279(18)
H16_4 H 0.2461 0.4416 0.6471
C29_4 C 0.1633(4) 0.3700(2) 0.8162(2)
C30_4 C 0.1961(4) 0.47675(19) 0.76681(19)
C31_4 C 0.1216(4) 0.3109(2) 0.87353(19)
C32_4 C 0.2305(3) 0.4631(2) 0.73352(19)
C33_4 C 0.1685(4) 0.3774(2) 0.8579(2)
H17_4 H 0.1862 0.4029 0.8667
C34_4 C 0.1730(4) 0.4462(2) 0.79361(19)
H18_4 H 0.1497 0.4548 0.8156
C35_4 C 0.1154(4) 0.3025(3) 0.8321(2)
H19_4 H 0.0970 0.2772 0.8234
C36_4 C 0.2190(4) 0.3909(2) 0.7533(2)
H20_4 H 0.2254 0.3617 0.7486
C37_4 C 0.1853(4) 0.4028(2) 0.7871(2)
C38_4 C 0.2435(4) 0.4203(2) 0.7263(2)
C39_4 C 0.1485(4) 0.3489(2) 0.8858(2)
H21_4 H 0.1529 0.3549 0.9132
O14_4 O 0.0611(2) 0.25107(14) 0.89188(12)
O15_4 O 0.1102(3) 0.28814(17) 0.94066(14)
C40_4 C 0.0960(4) 0.2810(2) 0.90411(18)
O23_4 O 0.5611(2) 0.75107(14) 0.60812(12)
O24_4 O 0.4389(2) 0.75107(14) 0.60812(12)
O25_4 O 0.6102(3) 0.78814(17) 0.55934(14)
O26_4 O 0.6102(3) 0.78814(17) 0.44066(14)
Zr2_2 Zr 0.07937(3) 0.85023(2) 0.0000
O3_5 O 0.0692(4) 0.9207(2) 0.0000
O6_5 O 0.0454(4) 0.6659(2) 0.0000
O7_5 O 0.1772(4) 0.7430(4) 0.0000
O9_5 O 0.1766(4) 0.8449(4) 0.0000
O18_3 O 0.1116(3) 0.87372(18) 0.06169(13)
O20_3 O 0.0000 0.8495(3) 0.0364(2)
O21_3 O 0.0793(3) 0.79368(16) 0.03651(16)
O22_3 O 0.0000 0.7381(3) 0.0369(3)
H22 H 0.188643 0.771039 0.0122501
H23 H 0.195106 0.719163 0.0160177
H24 H 0.193038 0.859122 0.024553
H25 H 0.188225 0.814016 0
H26 H 0.0299391 0.928509 0.0122733
H27 H 0.102226 0.933868 0.0159965
H29 H 0.0568653 0.65194 0.0259302
Zr2_3 Zr 0.07937(3) 0.85023(2) 1.0000
O3_6 O 0.0692(4) 0.9207(2) 1.0000
O4_3 O 0.0000 0.8495(3) 0.9636(2)
O5_5 O 0.0793(3) 0.79368(16) 0.96349(16)
O6_6 O 0.0454(4) 0.6659(2) 1.0000
O7_6 O 0.1772(4) 0.7430(4) 1.0000
O8_3 O 0.0000 0.7381(3) 0.9631(3)
O9_6 O 0.1766(4) 0.8449(4) 1.0000
O17_3 O 0.06058(19) 0.83546(13) 0.89172(11)
O19_3 O 0.1116(3) 0.87372(18) 0.93831(13)
H25_2 H 0.188225 0.814016 1
H28 H 0.0642753 0.650178 0.977107
Zr7_2 Zr 0.92063(3) 0.14977(2) 0.0000
N1_5 N 0.7513(4) 0.0000 0.7873(2)
H1_5 H 0.7436 0.0000 0.8128
O12_3 O 0.93942(19) 0.16454(13) 0.89172(11)
O13_3 O 0.8884(3) 0.12628(18) 0.93831(13)
C21_5 C 0.8590(3) 0.1222(2) 0.86996(18)
C22_5 C 0.8126(3) 0.0934(2) 0.8776(2)
H12_5 H 0.8062 0.0839 0.9040
C23_5 C 0.8987(3) 0.1388(2) 0.90279(17)
C24_5 C 0.7831(4) 0.0941(2) 0.80729(19)
C25_5 C 0.8287(4) 0.1232(2) 0.79952(19)
H13_5 H 0.8337 0.1337 0.7734
C26_5 C 0.6368(4) 0.1678(2) 0.6961(2)
H14_5 H 0.6332 0.1737 0.7236
C27_5 C 0.8675(4) 0.1371(2) 0.83004(19)
H15_5 H 0.8987 0.1559 0.8241
C28_5 C 0.7758(3) 0.0786(2) 0.84721(18)
H16_5 H 0.7461 0.0584 0.8529
C29_5 C 0.6633(4) 0.1300(2) 0.6838(2)
C30_5 C 0.6961(4) 0.02325(19) 0.73319(19)
C31_5 C 0.6216(4) 0.1891(2) 0.62647(19)
C32_5 C 0.7305(3) 0.0369(2) 0.76648(19)
C33_5 C 0.6685(4) 0.1226(2) 0.6421(2)
H17_5 H 0.6862 0.0971 0.6333
C34_5 C 0.6730(4) 0.0538(2) 0.70639(19)
H18_5 H 0.6497 0.0452 0.6844
C35_5 C 0.6154(4) 0.1975(3) 0.6679(2)
H19_5 H 0.5970 0.2228 0.6766
C36_5 C 0.7190(4) 0.1091(2) 0.7467(2)
H20_5 H 0.7254 0.1383 0.7514
C37_5 C 0.6853(4) 0.0972(2) 0.7129(2)
C38_5 C 0.7435(4) 0.0797(2) 0.7737(2)
C39_5 C 0.6485(4) 0.1511(2) 0.6142(2)
H21_5 H 0.6529 0.1451 0.5868
C40_5 C 0.5960(4) 0.2190(2) 0.59589(18)
Zr7_3 Zr 0.92063(3) 0.14977(2) 1.0000
Zr8_3 Zr 0.92063(3) 0.85023(2) 0.0000
O20_4 O 1.0000 0.8495(3) 0.0364(2)
O22_4 O 1.0000 0.7381(3) 0.0369(3)
O1_5 O 0.93942(19) 0.83546(13) 0.89172(11)
O2_3 O 0.8884(3) 0.87372(18) 0.93831(13)
O4_4 O 1.0000 0.8495(3) 0.9636(2)
O8_4 O 1.0000 0.7381(3) 0.9631(3)
N1_6 N 0.7513(4) 1.0000 0.7873(2)
H1_6 H 0.7436 1.0000 0.8128
C1_5 C 0.8590(3) 0.8778(2) 0.86996(18)
C2_5 C 0.8126(3) 0.9066(2) 0.8776(2)
H2_5 H 0.8062 0.9161 0.9040
C3_5 C 0.8987(3) 0.8612(2) 0.90279(17)
C4_5 C 0.7831(4) 0.9059(2) 0.80729(19)
C5_5 C 0.8287(4) 0.8768(2) 0.79952(19)
H3_5 H 0.8337 0.8663 0.7734
C6_5 C 0.6368(4) 0.8322(2) 0.6961(2)
H4_5 H 0.6332 0.8263 0.7236
C7_5 C 0.8675(4) 0.8629(2) 0.83004(19)
H5_5 H 0.8987 0.8441 0.8241
C8_5 C 0.7758(3) 0.9214(2) 0.84721(18)
H6_5 H 0.7461 0.9416 0.8529
C9_5 C 0.6633(4) 0.8700(2) 0.6838(2)
C10_5 C 0.6961(4) 0.97675(19) 0.73319(19)
C11_5 C 0.6216(4) 0.8109(2) 0.62647(19)
C12_5 C 0.7305(3) 0.9631(2) 0.76648(19)
C13_5 C 0.6685(4) 0.8774(2) 0.6421(2)
H7_5 H 0.6862 0.9029 0.6333
C14_5 C 0.6730(4) 0.9462(2) 0.70639(19)
H8_5 H 0.6497 0.9548 0.6844
C15_5 C 0.6154(4) 0.8025(3) 0.6679(2)
H9_5 H 0.5970 0.7772 0.6766
C16_5 C 0.7190(4) 0.8909(2) 0.7467(2)
H10_5 H 0.7254 0.8617 0.7514
C17_5 C 0.6853(4) 0.9028(2) 0.7129(2)
C18_5 C 0.7435(4) 0.9203(2) 0.7737(2)
C19_5 C 0.6485(4) 0.8489(2) 0.6142(2)
H11_5 H 0.6529 0.8549 0.5868
C20_5 C 0.5960(4) 0.7810(2) 0.59589(18)
O16_3 O 0.9207(3) 0.79368(16) 0.96349(16)
Zr8_4 Zr 0.92063(3) 0.85023(2) 1.0000
Zr8_5 Zr 0.07937(3) 0.14977(2) 0.0000
O20_5 O -0.0000 0.1505(3) 0.0364(2)
O22_5 O -0.0000 0.2619(3) 0.0369(3)
O1_6 O 0.06058(19) 0.16454(13) 0.89172(11)
O2_4 O 0.1116(3) 0.12628(18) 0.93831(13)
O4_5 O -0.0000 0.1505(3) 0.9636(2)
O8_5 O -0.0000 0.2619(3) 0.9631(3)
N1_7 N 0.2487(4) 0.0000 0.7873(2)
H1_7 H 0.2564 0.0000 0.8128
C1_6 C 0.1410(3) 0.1222(2) 0.86996(18)
C2_6 C 0.1874(3) 0.0934(2) 0.8776(2)
H2_6 H 0.1938 0.0839 0.9040
C3_6 C 0.1013(3) 0.1388(2) 0.90279(17)
C4_6 C 0.2169(4) 0.0941(2) 0.80729(19)
C5_6 C 0.1713(4) 0.1232(2) 0.79952(19)
H3_6 H 0.1663 0.1337 0.7734
C6_6 C 0.3632(4) 0.1678(2) 0.6961(2)
H4_6 H 0.3668 0.1737 0.7236
C7_6 C 0.1325(4) 0.1371(2) 0.83004(19)
H5_6 H 0.1013 0.1559 0.8241
C8_6 C 0.2242(3) 0.0786(2) 0.84721(18)
H6_6 H 0.2539 0.0584 0.8529
C9_6 C 0.3367(4) 0.1300(2) 0.6838(2)
C10_6 C 0.3039(4) 0.02325(19) 0.73319(19)
C11_6 C 0.3784(4) 0.1891(2) 0.62647(19)
C12_6 C 0.2695(3) 0.0369(2) 0.76648(19)
C13_6 C 0.3315(4) 0.1226(2) 0.6421(2)
H7_6 H 0.3138 0.0971 0.6333
C14_6 C 0.3270(4) 0.0538(2) 0.70639(19)
H8_6 H 0.3503 0.0452 0.6844
C15_6 C 0.3846(4) 0.1975(3) 0.6679(2)
H9_6 H 0.4030 0.2228 0.6766
C16_6 C 0.2810(4) 0.1091(2) 0.7467(2)
H10_6 H 0.2746 0.1383 0.7514
C17_6 C 0.3147(4) 0.0972(2) 0.7129(2)
C18_6 C 0.2565(4) 0.0797(2) 0.7737(2)
C19_6 C 0.3515(4) 0.1511(2) 0.6142(2)
H11_6 H 0.3471 0.1451 0.5868
C20_6 C 0.4040(4) 0.2190(2) 0.59589(18)
O16_4 O 0.0793(3) 0.20632(16) 0.96349(16)
Zr8_6 Zr 0.07937(3) 0.14977(2) 1.0000
N1_8 N 0.2487(4) 1.0000 0.7873(2)
H1_8 H 0.2564 1.0000 0.8128
C21_6 C 0.1410(3) 0.8778(2) 0.86996(18)
C22_6 C 0.1874(3) 0.9066(2) 0.8776(2)
H12_6 H 0.1938 0.9161 0.9040
C23_6 C 0.1013(3) 0.8612(2) 0.90279(17)
C24_6 C 0.2169(4) 0.9059(2) 0.80729(19)
C25_6 C 0.1713(4) 0.8768(2) 0.79952(19)
H13_6 H 0.1663 0.8663 0.7734
C26_6 C 0.3632(4) 0.8322(2) 0.6961(2)
H14_6 H 0.3668 0.8263 0.7236
C27_6 C 0.1325(4) 0.8629(2) 0.83004(19)
H15_6 H 0.1013 0.8441 0.8241
C28_6 C 0.2242(3) 0.9214(2) 0.84721(18)
H16_6 H 0.2539 0.9416 0.8529
C29_6 C 0.3367(4) 0.8700(2) 0.6838(2)
C30_6 C 0.3039(4) 0.97675(19) 0.73319(19)
C31_6 C 0.3784(4) 0.8109(2) 0.62647(19)
C32_6 C 0.2695(3) 0.9631(2) 0.76648(19)
C33_6 C 0.3315(4) 0.8774(2) 0.6421(2)
H17_6 H 0.3138 0.9029 0.6333
C34_6 C 0.3270(4) 0.9462(2) 0.70639(19)
H18_6 H 0.3503 0.9548 0.6844
C35_6 C 0.3846(4) 0.8025(3) 0.6679(2)
H19_6 H 0.4030 0.7772 0.6766
C36_6 C 0.2810(4) 0.8909(2) 0.7467(2)
H20_6 H 0.2746 0.8617 0.7514
C37_6 C 0.3147(4) 0.9028(2) 0.7129(2)
C38_6 C 0.2565(4) 0.9203(2) 0.7737(2)
C39_6 C 0.3515(4) 0.8489(2) 0.6142(2)
H21_6 H 0.3471 0.8549 0.5868
C40_6 C 0.4040(4) 0.7810(2) 0.59589(18)
O3_7 O 0.9308(4) 0.0793(2) 0.0000
O6_7 O 0.9546(4) 0.3341(2) 0.0000
O7_7 O 0.8228(4) 0.2570(4) 0.0000
O9_7 O 0.8234(4) 0.1551(4) 0.0000
O18_4 O 0.8884(3) 0.12628(18) 0.06169(13)
O20_6 O 1.0000 0.1505(3) 0.0364(2)
O21_4 O 0.9207(3) 0.20632(16) 0.03651(16)
O22_6 O 1.0000 0.2619(3) 0.0369(3)
H22_2 H 0.811357 0.228961 0.0122501
H23_2 H 0.804894 0.280837 0.0160177
H24_2 H 0.806962 0.140878 0.024553
H25_3 H 0.811775 0.185984 0
H26_2 H 0.970061 0.0714909 0.0122733
H27_2 H 0.897774 0.0661319 0.0159965
H29_2 H 0.943135 0.34806 0.0259302
O3_8 O 0.9308(4) 0.0793(2) 1.0000
O4_6 O 1.0000 0.1505(3) 0.9636(2)
O5_6 O 0.9207(3) 0.20632(16) 0.96349(16)
O6_8 O 0.9546(4) 0.3341(2) 1.0000
O7_8 O 0.8228(4) 0.2570(4) 1.0000
O8_6 O 1.0000 0.2619(3) 0.9631(3)
O9_8 O 0.8234(4) 0.1551(4) 1.0000
H25_4 H 0.811775 0.185984 1
H28_2 H 0.935725 0.349822 0.977107
N1_9 N 0.2487(4) 0.0000 0.2127(2)
H1_9 H 0.2564 0.0000 0.1872
O12_4 O 0.06058(19) 0.16454(13) 0.10828(11)
O13_4 O 0.1116(3) 0.12628(18) 0.06169(13)
C21_7 C 0.1410(3) 0.1222(2) 0.13004(18)
C22_7 C 0.1874(3) 0.0934(2) 0.1224(2)
H12_7 H 0.1938 0.0839 0.0960
C23_7 C 0.1013(3) 0.1388(2) 0.09721(17)
C24_7 C 0.2169(4) 0.0941(2) 0.19271(19)
C25_7 C 0.1713(4) 0.1232(2) 0.20048(19)
H13_7 H 0.1663 0.1337 0.2266
C26_7 C 0.3632(4) 0.1678(2) 0.3039(2)
H14_7 H 0.3668 0.1737 0.2764
C27_7 C 0.1325(4) 0.1371(2) 0.16996(19)
H15_7 H 0.1013 0.1559 0.1759
C28_7 C 0.2242(3) 0.0786(2) 0.15279(18)
H16_7 H 0.2539 0.0584 0.1471
C29_7 C 0.3367(4) 0.1300(2) 0.3162(2)
C30_7 C 0.3039(4) 0.02325(19) 0.26681(19)
C31_7 C 0.3784(4) 0.1891(2) 0.37353(19)
C32_7 C 0.2695(3) 0.0369(2) 0.23352(19)
C33_7 C 0.3315(4) 0.1226(2) 0.3579(2)
H17_7 H 0.3138 0.0971 0.3667
C34_7 C 0.3270(4) 0.0538(2) 0.29361(19)
H18_7 H 0.3503 0.0452 0.3156
C35_7 C 0.3846(4) 0.1975(3) 0.3321(2)
H19_7 H 0.4030 0.2228 0.3234
C36_7 C 0.2810(4) 0.1091(2) 0.2533(2)
H20_7 H 0.2746 0.1383 0.2486
C37_7 C 0.3147(4) 0.0972(2) 0.2871(2)
C38_7 C 0.2565(4) 0.0797(2) 0.2263(2)
C39_7 C 0.3515(4) 0.1511(2) 0.3858(2)
H21_7 H 0.3471 0.1451 0.4132
C40_7 C 0.4040(4) 0.2190(2) 0.40411(18)
O1_7 O 0.06058(19) 0.83546(13) 0.10828(11)
N1_10 N 0.2487(4) 1.0000 0.2127(2)
H1_10 H 0.2564 1.0000 0.1872
C1_7 C 0.1410(3) 0.8778(2) 0.13004(18)
C2_7 C 0.1874(3) 0.9066(2) 0.1224(2)
H2_7 H 0.1938 0.9161 0.0960
C3_7 C 0.1013(3) 0.8612(2) 0.09721(17)
C4_7 C 0.2169(4) 0.9059(2) 0.19271(19)
C5_7 C 0.1713(4) 0.8768(2) 0.20048(19)
H3_7 H 0.1663 0.8663 0.2266
C6_7 C 0.3632(4) 0.8322(2) 0.3039(2)
H4_7 H 0.3668 0.8263 0.2764
C7_7 C 0.1325(4) 0.8629(2) 0.16996(19)
H5_7 H 0.1013 0.8441 0.1759
C8_7 C 0.2242(3) 0.9214(2) 0.15279(18)
H6_7 H 0.2539 0.9416 0.1471
C9_7 C 0.3367(4) 0.8700(2) 0.3162(2)
C10_7 C 0.3039(4) 0.97675(19) 0.26681(19)
C11_7 C 0.3784(4) 0.8109(2) 0.37353(19)
C12_7 C 0.2695(3) 0.9631(2) 0.23352(19)
C13_7 C 0.3315(4) 0.8774(2) 0.3579(2)
H7_7 H 0.3138 0.9029 0.3667
C14_7 C 0.3270(4) 0.9462(2) 0.29361(19)
H8_7 H 0.3503 0.9548 0.3156
C15_7 C 0.3846(4) 0.8025(3) 0.3321(2)
H9_7 H 0.4030 0.7772 0.3234
C16_7 C 0.2810(4) 0.8909(2) 0.2533(2)
H10_7 H 0.2746 0.8617 0.2486
C17_7 C 0.3147(4) 0.9028(2) 0.2871(2)
C18_7 C 0.2565(4) 0.9203(2) 0.2263(2)
C19_7 C 0.3515(4) 0.8489(2) 0.3858(2)
H11_7 H 0.3471 0.8549 0.4132
C20_7 C 0.4040(4) 0.7810(2) 0.40411(18)
O3_9 O 0.9308(4) 0.9207(2) 0.0000
O5_7 O 0.9207(3) 0.79368(16) 0.03651(16)
O6_9 O 0.9546(4) 0.6659(2) 0.0000
O7_9 O 0.8228(4) 0.7430(4) 0.0000
O9_9 O 0.8234(4) 0.8449(4) 0.0000
O17_4 O 0.93942(19) 0.83546(13) 0.10828(11)
O19_4 O 0.8884(3) 0.87372(18) 0.06169(13)
H25_5 H 0.811775 0.814016 0
H28_3 H 0.935725 0.650178 0.0228932
O3_10 O 0.9308(4) 0.9207(2) 1.0000
O6_10 O 0.9546(4) 0.6659(2) 1.0000
O7_10 O 0.8228(4) 0.7430(4) 1.0000
O9_10 O 0.8234(4) 0.8449(4) 1.0000
H22_3 H 0.811357 0.771039 0.98775
H23_3 H 0.804894 0.719163 0.983982
H24_3 H 0.806962 0.859122 0.975447
H25_6 H 0.811775 0.814016 1
H26_3 H 0.970061 0.928509 0.987727
H27_3 H 0.897774 0.933868 0.984004
H29_3 H 0.943135 0.65194 0.97407
O3_11 O 0.0692(4) 0.0793(2) 0.0000
O5_8 O 0.0793(3) 0.20632(16) 0.03651(16)
O6_11 O 0.0454(4) 0.3341(2) 0.0000
O7_11 O 0.1772(4) 0.2570(4) 0.0000
O9_11 O 0.1766(4) 0.1551(4) 0.0000
H25_7 H 0.188225 0.185984 0
H28_4 H 0.0642753 0.349822 0.0228932
O3_12 O 0.0692(4) 0.0793(2) 1.0000
O6_12 O 0.0454(4) 0.3341(2) 1.0000
O7_12 O 0.1772(4) 0.2570(4) 1.0000
O9_12 O 0.1766(4) 0.1551(4) 1.0000
H22_4 H 0.188643 0.228961 0.98775
H23_4 H 0.195106 0.280837 0.983982
H24_4 H 0.193038 0.140878 0.975447
H25_8 H 0.188225 0.185984 1
H26_4 H 0.0299391 0.0714909 0.987727
H27_4 H 0.102226 0.0661319 0.984004
H29_4 H 0.0568653 0.34806 0.97407
O1_8 O 0.93942(19) 0.16454(13) 0.10828(11)
N1_11 N 0.7513(4) 0.0000 0.2127(2)
H1_11 H 0.7436 0.0000 0.1872
C1_8 C 0.8590(3) 0.1222(2) 0.13004(18)
C2_8 C 0.8126(3) 0.0934(2) 0.1224(2)
H2_8 H 0.8062 0.0839 0.0960
C3_8 C 0.8987(3) 0.1388(2) 0.09721(17)
C4_8 C 0.7831(4) 0.0941(2) 0.19271(19)
C5_8 C 0.8287(4) 0.1232(2) 0.20048(19)
H3_8 H 0.8337 0.1337 0.2266
C6_8 C 0.6368(4) 0.1678(2) 0.3039(2)
H4_8 H 0.6332 0.1737 0.2764
C7_8 C 0.8675(4) 0.1371(2) 0.16996(19)
H5_8 H 0.8987 0.1559 0.1759
C8_8 C 0.7758(3) 0.0786(2) 0.15279(18)
H6_8 H 0.7461 0.0584 0.1471
C9_8 C 0.6633(4) 0.1300(2) 0.3162(2)
C10_8 C 0.6961(4) 0.02325(19) 0.26681(19)
C11_8 C 0.6216(4) 0.1891(2) 0.37353(19)
C12_8 C 0.7305(3) 0.0369(2) 0.23352(19)
C13_8 C 0.6685(4) 0.1226(2) 0.3579(2)
H7_8 H 0.6862 0.0971 0.3667
C14_8 C 0.6730(4) 0.0538(2) 0.29361(19)
H8_8 H 0.6497 0.0452 0.3156
C15_8 C 0.6154(4) 0.1975(3) 0.3321(2)
H9_8 H 0.5970 0.2228 0.3234
C16_8 C 0.7190(4) 0.1091(2) 0.2533(2)
H10_8 H 0.7254 0.1383 0.2486
C17_8 C 0.6853(4) 0.0972(2) 0.2871(2)
C18_8 C 0.7435(4) 0.0797(2) 0.2263(2)
C19_8 C 0.6485(4) 0.1511(2) 0.3858(2)
H11_8 H 0.6529 0.1451 0.4132
C20_8 C 0.5960(4) 0.2190(2) 0.40411(18)
N1_12 N 0.7513(4) 1.0000 0.2127(2)
H1_12 H 0.7436 1.0000 0.1872
C21_8 C 0.8590(3) 0.8778(2) 0.13004(18)
C22_8 C 0.8126(3) 0.9066(2) 0.1224(2)
H12_8 H 0.8062 0.9161 0.0960
C23_8 C 0.8987(3) 0.8612(2) 0.09721(17)
C24_8 C 0.7831(4) 0.9059(2) 0.19271(19)
C25_8 C 0.8287(4) 0.8768(2) 0.20048(19)
H13_8 H 0.8337 0.8663 0.2266
C26_8 C 0.6368(4) 0.8322(2) 0.3039(2)
H14_8 H 0.6332 0.8263 0.2764
C27_8 C 0.8675(4) 0.8629(2) 0.16996(19)
H15_8 H 0.8987 0.8441 0.1759
C28_8 C 0.7758(3) 0.9214(2) 0.15279(18)
H16_8 H 0.7461 0.9416 0.1471
C29_8 C 0.6633(4) 0.8700(2) 0.3162(2)
C30_8 C 0.6961(4) 0.97675(19) 0.26681(19)
C31_8 C 0.6216(4) 0.8109(2) 0.37353(19)
C32_8 C 0.7305(3) 0.9631(2) 0.23352(19)
C33_8 C 0.6685(4) 0.8774(2) 0.3579(2)
H17_8 H 0.6862 0.9029 0.3667
C34_8 C 0.6730(4) 0.9462(2) 0.29361(19)
H18_8 H 0.6497 0.9548 0.3156
C35_8 C 0.6154(4) 0.8025(3) 0.3321(2)
H19_8 H 0.5970 0.7772 0.3234
C36_8 C 0.7190(4) 0.8909(2) 0.2533(2)
H20_8 H 0.7254 0.8617 0.2486
C37_8 C 0.6853(4) 0.9028(2) 0.2871(2)
C38_8 C 0.7435(4) 0.9203(2) 0.2263(2)
C39_8 C 0.6485(4) 0.8489(2) 0.3858(2)
H21_8 H 0.6529 0.8549 0.4132
C40_8 C 0.5960(4) 0.7810(2) 0.40411(18)
H28_5 H 0.935725 0.349822 0.0228932
H22_5 H 0.811357 0.228961 0.98775
H23_5 H 0.804894 0.280837 0.983982
H24_5 H 0.806962 0.140878 0.975447
H26_5 H 0.970061 0.0714909 0.987727
H27_5 H 0.897774 0.0661319 0.984004
H29_5 H 0.943135 0.34806 0.97407
H28_6 H 0.0642753 0.650178 0.0228932
H22_6 H 0.188643 0.771039 0.98775
H23_6 H 0.195106 0.719163 0.983982
H24_6 H 0.193038 0.859122 0.975447
H26_6 H 0.0299391 0.928509 0.987727
H27_6 H 0.102226 0.933868 0.984004
H29_6 H 0.0568653 0.65194 0.97407
H22_7 H 0.188643 0.228961 0.0122501
H23_7 H 0.195106 0.280837 0.0160177
H24_7 H 0.193038 0.140878 0.024553
H26_7 H 0.0299391 0.0714909 0.0122733
H27_7 H 0.102226 0.0661319 0.0159965
H29_7 H 0.0568653 0.34806 0.0259302
H28_7 H 0.0642753 0.349822 0.977107
H22_8 H 0.811357 0.771039 0.0122501
H23_8 H 0.804894 0.719163 0.0160177
H24_8 H 0.806962 0.859122 0.024553
H26_8 H 0.970061 0.928509 0.0122733
H27_8 H 0.897774 0.933868 0.0159965
H29_8 H 0.943135 0.65194 0.0259302
H28_8 H 0.935725 0.650178 0.977107
loop_
_geom_bond_atom_site_label_1
_geom_bond_atom_site_label_2
_geom_bond_site_symmetry_1
_geom_bond_site_symmetry_2
Zr1 O1 1_555 1_555
Zr2 O3 1_555 1_555
Zr3 O5 1_555 1_555
O1 C3 1_555 1_555
O2 C3 1_555 1_555
O4 Zr1 1_555 1_555
O5 Zr1 1_555 1_555
O6 Zr3 1_555 1_555
O7 Zr3 1_555 1_555
O8 Zr1 1_555 1_555
N1 H1 1_555 1_555
O9 Zr2 1_555 1_555
C1 C2 1_555 1_555
C2 H2 1_555 1_555
C3 C1 1_555 1_555
C4 C5 1_555 1_555
C5 H3 1_555 1_555
C6 H4 1_555 1_555
C7 C1 1_555 1_555
H5 C7 1_555 1_555
C8 C2 1_555 1_555
H6 C8 1_555 1_555
C9 C6 1_555 1_555
C10 C12 1_555 1_555
C11 C15 1_555 1_555
C12 N1 1_555 1_555
C13 C9 1_555 1_555
H7 C13 1_555 1_555
C14 C10 1_555 1_555
H8 C14 1_555 1_555
C15 C6 1_555 1_555
H9 C15 1_555 1_555
C16 H10 1_555 1_555
C17 C9 1_555 1_555
C18 C4 1_555 1_555
C19 C11 1_555 1_555
H11 C19 1_555 1_555
O10 C20 1_555 1_555
O11 C20 1_555 1_555
C20 C11 1_555 1_555
O12 C23 1_555 1_555
O13 C23 1_555 1_555
C21 C22 1_555 1_555
C22 H12 1_555 1_555
C23 C21 1_555 1_555
C24 C25 1_555 1_555
C25 H13 1_555 1_555
C26 H14 1_555 1_555
C27 C21 1_555 1_555
H15 C27 1_555 1_555
C28 C22 1_555 1_555
H16 C28 1_555 1_555
C29 C26 1_555 1_555
C30 C10 1_555 1_555
C31 C35 1_555 1_555
C32 N1 1_555 1_555
C33 C29 1_555 1_555
H17 C33 1_555 1_555
C34 C30 1_555 1_555
H18 C34 1_555 1_555
C35 C26 1_555 1_555
H19 C35 1_555 1_555
C36 H20 1_555 1_555
C37 C29 1_555 1_555
C38 C24 1_555 1_555
C39 C31 1_555 1_555
H21 C39 1_555 1_555
O14 C40 1_555 1_555
O15 C40 1_555 1_555
C40 C31 1_555 1_555
O16 Zr1 1_555 1_555
Zr4 O12 1_555 1_555
Zr5 O14 1_555 1_555
Zr6 O10 1_555 1_555
Zr7 O13 1_555 1_555
Zr8 O2 1_555 1_555
Zr9 O8 1_555 1_555
Zr10 O15 1_555 1_555
Zr11 O11 1_555 1_555
O17 Zr1 1_555 1_555
O18 Zr2 1_555 1_555
O19 Zr2 1_555 1_555
O20 Zr2 1_555 1_555
O21 Zr2 1_555 1_555
O22 Zr3 1_555 1_555
O23 Zr1 1_555 1_555
O24 Zr1 1_555 1_555
O25 Zr3 1_555 1_555
O26 Zr3 1_555 1_555
Zr2 O4 1_555 1_555
Zr2 O5 1_555 1_555
Zr3 O8 1_555 1_555
Zr3 O21 1_555 1_555
O4 Zr8 1_555 1_555
C4 C8 1_555 1_555
C5 C7 1_555 1_555
C12 C18 1_555 1_555
C13 C19 1_555 1_555
C14 C17 1_555 1_555
C16 C17 1_555 1_555
C16 C18 1_555 1_555
C24 C28 1_555 1_555
C25 C27 1_555 1_555
C30 C32 1_555 1_555
C32 C38 1_555 1_555
C33 C39 1_555 1_555
C34 C37 1_555 1_555
C36 C37 1_555 1_555
C36 C38 1_555 1_555
O16 Zr8 1_555 1_555
O16 Zr9 1_555 1_555
Zr8 O20 1_555 1_555
Zr9 O22 1_555 1_555
Zr4 O1_2 1_555 1_555
Zr7 O3_2 1_555 1_555
Zr3_2 O5_2 1_555 1_555
O1_2 C3_2 1_555 1_555
O2_2 C3_2 1_555 1_555
O4_2 Zr4 1_555 1_555
O5_2 Zr4 1_555 1_555
O6_2 Zr3_2 1_555 1_555
O7_2 Zr3_2 1_555 1_555
O8_2 Zr4 1_555 1_555
N1_2 H1_2 1_555 1_555
O9_2 Zr7 1_555 1_555
C1_2 C2_2 1_555 1_555
C2_2 H2_2 1_555 1_555
C3_2 C1_2 1_555 1_555
C4_2 C5_2 1_555 1_555
C5_2 H3_2 1_555 1_555
C6_2 H4_2 1_555 1_555
C7_2 C1_2 1_555 1_555
H5_2 C7_2 1_555 1_555
C8_2 C2_2 1_555 1_555
H6_2 C8_2 1_555 1_555
C9_2 C6_2 1_555 1_555
C10_2 C12_2 1_555 1_555
C11_2 C15_2 1_555 1_555
C12_2 N1_2 1_555 1_555
C13_2 C9_2 1_555 1_555
H7_2 C13_2 1_555 1_555
C14_2 C10_2 1_555 1_555
H8_2 C14_2 1_555 1_555
C15_2 C6_2 1_555 1_555
H9_2 C15_2 1_555 1_555
C16_2 H10_2 1_555 1_555
C17_2 C9_2 1_555 1_555
C18_2 C4_2 1_555 1_555
C19_2 C11_2 1_555 1_555
H11_2 C19_2 1_555 1_555
O10_2 C20_2 1_555 1_555
O11_2 C20_2 1_555 1_555
C20_2 C11_2 1_555 1_555
O17 C23_2 1_555 1_555
O19 C23_2 1_555 1_555
C21_2 C22_2 1_555 1_555
C22_2 H12_2 1_555 1_555
C23_2 C21_2 1_555 1_555
C24_2 C25_2 1_555 1_555
C25_2 H13_2 1_555 1_555
C26_2 H14_2 1_555 1_555
C27_2 C21_2 1_555 1_555
H15_2 C27_2 1_555 1_555
C28_2 C22_2 1_555 1_555
H16_2 C28_2 1_555 1_555
C29_2 C26_2 1_555 1_555
C30_2 C10_2 1_555 1_555
C31_2 C35_2 1_555 1_555
C32_2 N1_2 1_555 1_555
C33_2 C29_2 1_555 1_555
H17_2 C33_2 1_555 1_555
C34_2 C30_2 1_555 1_555
H18_2 C34_2 1_555 1_555
C35_2 C26_2 1_555 1_555
H19_2 C35_2 1_555 1_555
C36_2 H20_2 1_555 1_555
C37_2 C29_2 1_555 1_555
C38_2 C24_2 1_555 1_555
C39_2 C31_2 1_555 1_555
H21_2 C39_2 1_555 1_555
O14_2 C40_2 1_555 1_555
O15_2 C40_2 1_555 1_555
C40_2 C31_2 1_555 1_555
O16_2 Zr4 1_555 1_555
Zr6_2 O14_2 1_555 1_555
Zr5_2 O10_2 1_555 1_555
Zr8_2 O2_2 1_555 1_555
Zr9_2 O8_2 1_555 1_555
Zr10_3 O15_2 1_555 1_555
Zr11_3 O11_2 1_555 1_555
O18_2 Zr7 1_555 1_555
O20_2 Zr7 1_555 1_555
O21_2 Zr7 1_555 1_555
O22_2 Zr3_2 1_555 1_555
O23_2 Zr4 1_555 1_555
O24_2 Zr4 1_555 1_555
O25_2 Zr3_2 1_555 1_555
O26_2 Zr3_2 1_555 1_555
Zr7 O4_2 1_555 1_555
Zr7 O5_2 1_555 1_555
Zr3_2 O8_2 1_555 1_555
Zr3_2 O21_2 1_555 1_555
O4_2 Zr8_2 1_555 1_555
C4_2 C8_2 1_555 1_555
C5_2 C7_2 1_555 1_555
C12_2 C18_2 1_555 1_555
C13_2 C19_2 1_555 1_555
C14_2 C17_2 1_555 1_555
C16_2 C17_2 1_555 1_555
C16_2 C18_2 1_555 1_555
C24_2 C28_2 1_555 1_555
C25_2 C27_2 1_555 1_555
C30_2 C32_2 1_555 1_555
C32_2 C38_2 1_555 1_555
C33_2 C39_2 1_555 1_555
C34_2 C37_2 1_555 1_555
C36_2 C37_2 1_555 1_555
C36_2 C38_2 1_555 1_555
O16_2 Zr8_2 1_555 1_555
O16_2 Zr9_2 1_555 1_555
Zr8_2 O20_2 1_555 1_555
Zr9_2 O22_2 1_555 1_555
Zr1_2 O1_3 1_555 1_555
Zr8 O3_3 1_555 1_555
Zr9 O5_3 1_555 1_555
O1_3 C3_3 1_555 1_555
O18 C3_3 1_555 1_555
O20 Zr1_2 1_555 1_555
O5_3 Zr1_2 1_555 1_555
O6_3 Zr9 1_555 1_555
O7_3 Zr9 1_555 1_555
O22 Zr1_2 1_555 1_555
N1_3 H1_3 1_555 1_555
O9_3 Zr8 1_555 1_555
C1_3 C2_3 1_555 1_555
C2_3 H2_3 1_555 1_555
C3_3 C1_3 1_555 1_555
C4_3 C5_3 1_555 1_555
C5_3 H3_3 1_555 1_555
C6_3 H4_3 1_555 1_555
C7_3 C1_3 1_555 1_555
H5_3 C7_3 1_555 1_555
C8_3 C2_3 1_555 1_555
H6_3 C8_3 1_555 1_555
C9_3 C6_3 1_555 1_555
C10_3 C12_3 1_555 1_555
C11_3 C15_3 1_555 1_555
C12_3 N1_3 1_555 1_555
C13_3 C9_3 1_555 1_555
H7_3 C13_3 1_555 1_555
C14_3 C10_3 1_555 1_555
H8_3 C14_3 1_555 1_555
C15_3 C6_3 1_555 1_555
H9_3 C15_3 1_555 1_555
C16_3 H10_3 1_555 1_555
C17_3 C9_3 1_555 1_555
C18_3 C4_3 1_555 1_555
C19_3 C11_3 1_555 1_555
H11_3 C19_3 1_555 1_555
O10_3 C20_3 1_555 1_555
O11_3 C20_3 1_555 1_555
C20_3 C11_3 1_555 1_555
O12_2 C23_3 1_555 1_555
O13_2 C23_3 1_555 1_555
C21_3 C22_3 1_555 1_555
C22_3 H12_3 1_555 1_555
C23_3 C21_3 1_555 1_555
C24_3 C25_3 1_555 1_555
C25_3 H13_3 1_555 1_555
C26_3 H14_3 1_555 1_555
C27_3 C21_3 1_555 1_555
H15_3 C27_3 1_555 1_555
C28_3 C22_3 1_555 1_555
H16_3 C28_3 1_555 1_555
C29_3 C26_3 1_555 1_555
C30_3 C10_3 1_555 1_555
C31_3 C35_3 1_555 1_555
C32_3 N1_3 1_555 1_555
C33_3 C29_3 1_555 1_555
H17_3 C33_3 1_555 1_555
C34_3 C30_3 1_555 1_555
H18_3 C34_3 1_555 1_555
C35_3 C26_3 1_555 1_555
H19_3 C35_3 1_555 1_555
C36_3 H20_3 1_555 1_555
C37_3 C29_3 1_555 1_555
C38_3 C24_3 1_555 1_555
C39_3 C31_3 1_555 1_555
H21_3 C39_3 1_555 1_555
O14_3 C40_3 1_555 1_555
O15_3 C40_3 1_555 1_555
C40_3 C31_3 1_555 1_555
O21 Zr1_2 1_555 1_555
Zr4_2 O12_2 1_555 1_555
Zr5_4 O14_3 1_555 1_555
Zr6_4 O10_3 1_555 1_555
Zr8_2 O13_2 1_555 1_555
Zr11_4 O15_3 1_555 1_555
Zr10_4 O11_3 1_555 1_555
O17_2 Zr1_2 1_555 1_555
O19_2 Zr8 1_555 1_555
O23_3 Zr1_2 1_555 1_555
O24_3 Zr1_2 1_555 1_555
O25_3 Zr9 1_555 1_555
O26_3 Zr9 1_555 1_555
Zr8 O5_3 1_555 1_555
C4_3 C8_3 1_555 1_555
C5_3 C7_3 1_555 1_555
C12_3 C18_3 1_555 1_555
C13_3 C19_3 1_555 1_555
C14_3 C17_3 1_555 1_555
C16_3 C17_3 1_555 1_555
C16_3 C18_3 1_555 1_555
C24_3 C28_3 1_555 1_555
C25_3 C27_3 1_555 1_555
C30_3 C32_3 1_555 1_555
C32_3 C38_3 1_555 1_555
C33_3 C39_3 1_555 1_555
C34_3 C37_3 1_555 1_555
C36_3 C37_3 1_555 1_555
C36_3 C38_3 1_555 1_555
Zr4_2 O1_4 1_555 1_555
Zr8_2 O3_4 1_555 1_555
Zr9_2 O5_4 1_555 1_555
O1_4 C3_4 1_555 1_555
O18_2 C3_4 1_555 1_555
O20_2 Zr4_2 1_555 1_555
O5_4 Zr4_2 1_555 1_555
O6_4 Zr9_2 1_555 1_555
O7_4 Zr9_2 1_555 1_555
O22_2 Zr4_2 1_555 1_555
N1_4 H1_4 1_555 1_555
O9_4 Zr8_2 1_555 1_555
C1_4 C2_4 1_555 1_555
C2_4 H2_4 1_555 1_555
C3_4 C1_4 1_555 1_555
C4_4 C5_4 1_555 1_555
C5_4 H3_4 1_555 1_555
C6_4 H4_4 1_555 1_555
C7_4 C1_4 1_555 1_555
H5_4 C7_4 1_555 1_555
C8_4 C2_4 1_555 1_555
H6_4 C8_4 1_555 1_555
C9_4 C6_4 1_555 1_555
C10_4 C12_4 1_555 1_555
C11_4 C15_4 1_555 1_555
C12_4 N1_4 1_555 1_555
C13_4 C9_4 1_555 1_555
H7_4 C13_4 1_555 1_555
C14_4 C10_4 1_555 1_555
H8_4 C14_4 1_555 1_555
C15_4 C6_4 1_555 1_555
H9_4 C15_4 1_555 1_555
C16_4 H10_4 1_555 1_555
C17_4 C9_4 1_555 1_555
C18_4 C4_4 1_555 1_555
C19_4 C11_4 1_555 1_555
H11_4 C19_4 1_555 1_555
O10_4 C20_4 1_555 1_555
O11_4 C20_4 1_555 1_555
C20_4 C11_4 1_555 1_555
O17_2 C23_4 1_555 1_555
O19_2 C23_4 1_555 1_555
C21_4 C22_4 1_555 1_555
C22_4 H12_4 1_555 1_555
C23_4 C21_4 1_555 1_555
C24_4 C25_4 1_555 1_555
C25_4 H13_4 1_555 1_555
C26_4 H14_4 1_555 1_555
C27_4 C21_4 1_555 1_555
H15_4 C27_4 1_555 1_555
C28_4 C22_4 1_555 1_555
H16_4 C28_4 1_555 1_555
C29_4 C26_4 1_555 1_555
C30_4 C10_4 1_555 1_555
C31_4 C35_4 1_555 1_555
C32_4 N1_4 1_555 1_555
C33_4 C29_4 1_555 1_555
H17_4 C33_4 1_555 1_555
C34_4 C30_4 1_555 1_555
H18_4 C34_4 1_555 1_555
C35_4 C26_4 1_555 1_555
H19_4 C35_4 1_555 1_555
C36_4 H20_4 1_555 1_555
C37_4 C29_4 1_555 1_555
C38_4 C24_4 1_555 1_555
C39_4 C31_4 1_555 1_555
H21_4 C39_4 1_555 1_555
O14_4 C40_4 1_555 1_555
O15_4 C40_4 1_555 1_555
C40_4 C31_4 1_555 1_555
O21_2 Zr4_2 1_555 1_555
Zr6_3 O14_4 1_555 1_555
Zr5_3 O10_4 1_555 1_555
Zr11_2 O15_4 1_555 1_555
Zr10_2 O11_4 1_555 1_555
O23_4 Zr4_2 1_555 1_555
O24_4 Zr4_2 1_555 1_555
O25_4 Zr9_2 1_555 1_555
O26_4 Zr9_2 1_555 1_555
Zr8_2 O5_4 1_555 1_555
C4_4 C8_4 1_555 1_555
C5_4 C7_4 1_555 1_555
C12_4 C18_4 1_555 1_555
C13_4 C19_4 1_555 1_555
C14_4 C17_4 1_555 1_555
C16_4 C17_4 1_555 1_555
C16_4 C18_4 1_555 1_555
C24_4 C28_4 1_555 1_555
C25_4 C27_4 1_555 1_555
C30_4 C32_4 1_555 1_555
C32_4 C38_4 1_555 1_555
C33_4 C39_4 1_555 1_555
C34_4 C37_4 1_555 1_555
C36_4 C37_4 1_555 1_555
C36_4 C38_4 1_555 1_555
Zr2_2 O3_5 1_555 1_555
O6_5 Zr10 1_555 1_555
O7_5 Zr10 1_555 1_555
O9_5 Zr2_2 1_555 1_555
O18_3 Zr2_2 1_555 1_555
O20_3 Zr2_2 1_555 1_555
O21_3 Zr2_2 1_555 1_555
O22_3 Zr10 1_555 1_555
Zr10 O21_3 1_555 1_555
O7_5 H22 1_555 1_555
O7_5 H23 1_555 1_555
O9_5 H24 1_555 1_555
O9_5 H25 1_555 1_555
O3_5 H26 1_555 1_555
O3_5 H27 1_555 1_555
O6_5 H29 1_555 1_555
Zr2_3 O3_6 1_555 1_555
Zr10_2 O5_5 1_555 1_555
O4_3 Zr5_3 1_555 1_555
O5_5 Zr5_3 1_555 1_555
O6_6 Zr10_2 1_555 1_555
O7_6 Zr10_2 1_555 1_555
O8_3 Zr5_3 1_555 1_555
O9_6 Zr2_3 1_555 1_555
O17_3 Zr5_3 1_555 1_555
O19_3 Zr2_3 1_555 1_555
Zr2_3 O4_3 1_555 1_555
Zr2_3 O5_5 1_555 1_555
Zr10_2 O8_3 1_555 1_555
O9_6 H25_2 1_555 1_555
O6_6 H28 1_555 1_555
N1_5 H1_5 1_555 1_555
O12_3 C23_5 1_555 1_555
O13_3 C23_5 1_555 1_555
C21_5 C22_5 1_555 1_555
C22_5 H12_5 1_555 1_555
C23_5 C21_5 1_555 1_555
C24_5 C25_5 1_555 1_555
C25_5 H13_5 1_555 1_555
C26_5 H14_5 1_555 1_555
C27_5 C21_5 1_555 1_555
H15_5 C27_5 1_555 1_555
C28_5 C22_5 1_555 1_555
H16_5 C28_5 1_555 1_555
C29_5 C26_5 1_555 1_555
C31_5 C35_5 1_555 1_555
C32_5 N1_5 1_555 1_555
C33_5 C29_5 1_555 1_555
H17_5 C33_5 1_555 1_555
C34_5 C30_5 1_555 1_555
H18_5 C34_5 1_555 1_555
C35_5 C26_5 1_555 1_555
H19_5 C35_5 1_555 1_555
C36_5 H20_5 1_555 1_555
C37_5 C29_5 1_555 1_555
C38_5 C24_5 1_555 1_555
C39_5 C31_5 1_555 1_555
H21_5 C39_5 1_555 1_555
O24_3 C40_5 1_555 1_555
O26 C40_5 1_555 1_555
C40_5 C31_5 1_555 1_555
Zr6_4 O12_3 1_555 1_555
Zr7_3 O13_3 1_555 1_555
C24_5 C28_5 1_555 1_555
C25_5 C27_5 1_555 1_555
C30_5 C32_5 1_555 1_555
C32_5 C38_5 1_555 1_555
C33_5 C39_5 1_555 1_555
C34_5 C37_5 1_555 1_555
C36_5 C37_5 1_555 1_555
C36_5 C38_5 1_555 1_555
Zr8_3 O20_4 1_555 1_555
Zr11_3 O22_4 1_555 1_555
Zr5_4 O1_5 1_555 1_555
O1_5 C3_5 1_555 1_555
O2_3 C3_5 1_555 1_555
O4_4 Zr5_4 1_555 1_555
O8_4 Zr5_4 1_555 1_555
N1_6 H1_6 1_555 1_555
C1_5 C2_5 1_555 1_555
C2_5 H2_5 1_555 1_555
C3_5 C1_5 1_555 1_555
C4_5 C5_5 1_555 1_555
C5_5 H3_5 1_555 1_555
C6_5 H4_5 1_555 1_555
C7_5 C1_5 1_555 1_555
H5_5 C7_5 1_555 1_555
C8_5 C2_5 1_555 1_555
H6_5 C8_5 1_555 1_555
C9_5 C6_5 1_555 1_555
C10_5 C12_5 1_555 1_555
C11_5 C15_5 1_555 1_555
C12_5 N1_6 1_555 1_555
C13_5 C9_5 1_555 1_555
H7_5 C13_5 1_555 1_555
C14_5 C10_5 1_555 1_555
H8_5 C14_5 1_555 1_555
C15_5 C6_5 1_555 1_555
H9_5 C15_5 1_555 1_555
C16_5 H10_5 1_555 1_555
C17_5 C9_5 1_555 1_555
C18_5 C4_5 1_555 1_555
C19_5 C11_5 1_555 1_555
H11_5 C19_5 1_555 1_555
O23_4 C20_5 1_555 1_555
O25_4 C20_5 1_555 1_555
C20_5 C11_5 1_555 1_555
O16_3 Zr5_4 1_555 1_555
Zr8_4 O2_3 1_555 1_555
Zr11_4 O8_4 1_555 1_555
O4_4 Zr8_4 1_555 1_555
C4_5 C8_5 1_555 1_555
C5_5 C7_5 1_555 1_555
C12_5 C18_5 1_555 1_555
C13_5 C19_5 1_555 1_555
C14_5 C17_5 1_555 1_555
C16_5 C17_5 1_555 1_555
C16_5 C18_5 1_555 1_555
O16_3 Zr8_4 1_555 1_555
O16_3 Zr11_4 1_555 1_555
Zr8_5 O20_5 1_555 1_555
Zr11 O22_5 1_555 1_555
Zr6_3 O1_6 1_555 1_555
O1_6 C3_6 1_555 1_555
O2_4 C3_6 1_555 1_555
O4_5 Zr6_3 1_555 1_555
O8_5 Zr6_3 1_555 1_555
N1_7 H1_7 1_555 1_555
C1_6 C2_6 1_555 1_555
C2_6 H2_6 1_555 1_555
C3_6 C1_6 1_555 1_555
C4_6 C5_6 1_555 1_555
C5_6 H3_6 1_555 1_555
C6_6 H4_6 1_555 1_555
C7_6 C1_6 1_555 1_555
H5_6 C7_6 1_555 1_555
C8_6 C2_6 1_555 1_555
H6_6 C8_6 1_555 1_555
C9_6 C6_6 1_555 1_555
C10_6 C12_6 1_555 1_555
C11_6 C15_6 1_555 1_555
C12_6 N1_7 1_555 1_555
C13_6 C9_6 1_555 1_555
H7_6 C13_6 1_555 1_555
C14_6 C10_6 1_555 1_555
H8_6 C14_6 1_555 1_555
C15_6 C6_6 1_555 1_555
H9_6 C15_6 1_555 1_555
C16_6 H10_6 1_555 1_555
C17_6 C9_6 1_555 1_555
C18_6 C4_6 1_555 1_555
C19_6 C11_6 1_555 1_555
H11_6 C19_6 1_555 1_555
O23_3 C20_6 1_555 1_555
O25_3 C20_6 1_555 1_555
C20_6 C11_6 1_555 1_555
O16_4 Zr6_3 1_555 1_555
Zr8_6 O2_4 1_555 1_555
Zr11_2 O8_5 1_555 1_555
O4_5 Zr8_6 1_555 1_555
C4_6 C8_6 1_555 1_555
C5_6 C7_6 1_555 1_555
C12_6 C18_6 1_555 1_555
C13_6 C19_6 1_555 1_555
C14_6 C17_6 1_555 1_555
C16_6 C17_6 1_555 1_555
C16_6 C18_6 1_555 1_555
O16_4 Zr8_6 1_555 1_555
O16_4 Zr11_2 1_555 1_555
N1_8 H1_8 1_555 1_555
O17_3 C23_6 1_555 1_555
O19_3 C23_6 1_555 1_555
C21_6 C22_6 1_555 1_555
C22_6 H12_6 1_555 1_555
C23_6 C21_6 1_555 1_555
C24_6 C25_6 1_555 1_555
C25_6 H13_6 1_555 1_555
C26_6 H14_6 1_555 1_555
C27_6 C21_6 1_555 1_555
H15_6 C27_6 1_555 1_555
C28_6 C22_6 1_555 1_555
H16_6 C28_6 1_555 1_555
C29_6 C26_6 1_555 1_555
C31_6 C35_6 1_555 1_555
C32_6 N1_8 1_555 1_555
C33_6 C29_6 1_555 1_555
H17_6 C33_6 1_555 1_555
C34_6 C30_6 1_555 1_555
H18_6 C34_6 1_555 1_555
C35_6 C26_6 1_555 1_555
H19_6 C35_6 1_555 1_555
C36_6 H20_6 1_555 1_555
C37_6 C29_6 1_555 1_555
C38_6 C24_6 1_555 1_555
C39_6 C31_6 1_555 1_555
H21_6 C39_6 1_555 1_555
O24_4 C40_6 1_555 1_555
O26_2 C40_6 1_555 1_555
C40_6 C31_6 1_555 1_555
C24_6 C28_6 1_555 1_555
C25_6 C27_6 1_555 1_555
C30_6 C32_6 1_555 1_555
C32_6 C38_6 1_555 1_555
C33_6 C39_6 1_555 1_555
C34_6 C37_6 1_555 1_555
C36_6 C37_6 1_555 1_555
C36_6 C38_6 1_555 1_555
Zr7_2 O3_7 1_555 1_555
O6_7 Zr10_3 1_555 1_555
O7_7 Zr10_3 1_555 1_555
O9_7 Zr7_2 1_555 1_555
O18_4 Zr7_2 1_555 1_555
O20_6 Zr7_2 1_555 1_555
O21_4 Zr7_2 1_555 1_555
O22_6 Zr10_3 1_555 1_555
Zr10_3 O21_4 1_555 1_555
O7_7 H22_2 1_555 1_555
O7_7 H23_2 1_555 1_555
O9_7 H24_2 1_555 1_555
O9_7 H25_3 1_555 1_555
O3_7 H26_2 1_555 1_555
O3_7 H27_2 1_555 1_555
O6_7 H29_2 1_555 1_555
Zr7_3 O3_8 1_555 1_555
Zr10_4 O5_6 1_555 1_555
O4_6 Zr6_4 1_555 1_555
O5_6 Zr6_4 1_555 1_555
O6_8 Zr10_4 1_555 1_555
O7_8 Zr10_4 1_555 1_555
O8_6 Zr6_4 1_555 1_555
O9_8 Zr7_3 1_555 1_555
Zr7_3 O4_6 1_555 1_555
Zr7_3 O5_6 1_555 1_555
Zr10_4 O8_6 1_555 1_555
O9_8 H25_4 1_555 1_555
O6_8 H28_2 1_555 1_555
N1_9 H1_9 1_555 1_555
O12_4 C23_7 1_555 1_555
O13_4 C23_7 1_555 1_555
C21_7 C22_7 1_555 1_555
C22_7 H12_7 1_555 1_555
C23_7 C21_7 1_555 1_555
C24_7 C25_7 1_555 1_555
C25_7 H13_7 1_555 1_555
C26_7 H14_7 1_555 1_555
C27_7 C21_7 1_555 1_555
H15_7 C27_7 1_555 1_555
C28_7 C22_7 1_555 1_555
H16_7 C28_7 1_555 1_555
C29_7 C26_7 1_555 1_555
C31_7 C35_7 1_555 1_555
C32_7 N1_9 1_555 1_555
C33_7 C29_7 1_555 1_555
H17_7 C33_7 1_555 1_555
C34_7 C30_7 1_555 1_555
H18_7 C34_7 1_555 1_555
C35_7 C26_7 1_555 1_555
H19_7 C35_7 1_555 1_555
C36_7 H20_7 1_555 1_555
C37_7 C29_7 1_555 1_555
C38_7 C24_7 1_555 1_555
C39_7 C31_7 1_555 1_555
H21_7 C39_7 1_555 1_555
O24 C40_7 1_555 1_555
O26_3 C40_7 1_555 1_555
C40_7 C31_7 1_555 1_555
Zr6 O12_4 1_555 1_555
Zr8_5 O13_4 1_555 1_555
C24_7 C28_7 1_555 1_555
C25_7 C27_7 1_555 1_555
C30_7 C32_7 1_555 1_555
C32_7 C38_7 1_555 1_555
C33_7 C39_7 1_555 1_555
C34_7 C37_7 1_555 1_555
C36_7 C37_7 1_555 1_555
C36_7 C38_7 1_555 1_555
Zr5 O1_7 1_555 1_555
O1_7 C3_7 1_555 1_555
O18_3 C3_7 1_555 1_555
O20_3 Zr5 1_555 1_555
O22_3 Zr5 1_555 1_555
N1_10 H1_10 1_555 1_555
C1_7 C2_7 1_555 1_555
C2_7 H2_7 1_555 1_555
C3_7 C1_7 1_555 1_555
C4_7 C5_7 1_555 1_555
C5_7 H3_7 1_555 1_555
C6_7 H4_7 1_555 1_555
C7_7 C1_7 1_555 1_555
H5_7 C7_7 1_555 1_555
C8_7 C2_7 1_555 1_555
H6_7 C8_7 1_555 1_555
C9_7 C6_7 1_555 1_555
C10_7 C12_7 1_555 1_555
C11_7 C15_7 1_555 1_555
C12_7 N1_10 1_555 1_555
C13_7 C9_7 1_555 1_555
H7_7 C13_7 1_555 1_555
C14_7 C10_7 1_555 1_555
H8_7 C14_7 1_555 1_555
C15_7 C6_7 1_555 1_555
H9_7 C15_7 1_555 1_555
C16_7 H10_7 1_555 1_555
C17_7 C9_7 1_555 1_555
C18_7 C4_7 1_555 1_555
C19_7 C11_7 1_555 1_555
H11_7 C19_7 1_555 1_555
O23_2 C20_7 1_555 1_555
O25_2 C20_7 1_555 1_555
C20_7 C11_7 1_555 1_555
O21_3 Zr5 1_555 1_555
C4_7 C8_7 1_555 1_555
C5_7 C7_7 1_555 1_555
C12_7 C18_7 1_555 1_555
C13_7 C19_7 1_555 1_555
C14_7 C17_7 1_555 1_555
C16_7 C17_7 1_555 1_555
C16_7 C18_7 1_555 1_555
Zr8_3 O3_9 1_555 1_555
Zr11_3 O5_7 1_555 1_555
O20_4 Zr5_2 1_555 1_555
O5_7 Zr5_2 1_555 1_555
O6_9 Zr11_3 1_555 1_555
O7_9 Zr11_3 1_555 1_555
O22_4 Zr5_2 1_555 1_555
O9_9 Zr8_3 1_555 1_555
O17_4 Zr5_2 1_555 1_555
O19_4 Zr8_3 1_555 1_555
Zr8_3 O5_7 1_555 1_555
O9_9 H25_5 1_555 1_555
O6_9 H28_3 1_555 1_555
Zr8_4 O3_10 1_555 1_555
O6_10 Zr11_4 1_555 1_555
O7_10 Zr11_4 1_555 1_555
O9_10 Zr8_4 1_555 1_555
O7_10 H22_3 1_555 1_555
O7_10 H23_3 1_555 1_555
O9_10 H24_3 1_555 1_555
O9_10 H25_6 1_555 1_555
O3_10 H26_3 1_555 1_555
O3_10 H27_3 1_555 1_555
O6_10 H29_3 1_555 1_555
Zr8_5 O3_11 1_555 1_555
Zr11 O5_8 1_555 1_555
O20_5 Zr6 1_555 1_555
O5_8 Zr6 1_555 1_555
O6_11 Zr11 1_555 1_555
O7_11 Zr11 1_555 1_555
O22_5 Zr6 1_555 1_555
O9_11 Zr8_5 1_555 1_555
Zr8_5 O5_8 1_555 1_555
O9_11 H25_7 1_555 1_555
O6_11 H28_4 1_555 1_555
Zr8_6 O3_12 1_555 1_555
O6_12 Zr11_2 1_555 1_555
O7_12 Zr11_2 1_555 1_555
O9_12 Zr8_6 1_555 1_555
O7_12 H22_4 1_555 1_555
O7_12 H23_4 1_555 1_555
O9_12 H24_4 1_555 1_555
O9_12 H25_8 1_555 1_555
O3_12 H26_4 1_555 1_555
O3_12 H27_4 1_555 1_555
O6_12 H29_4 1_555 1_555
Zr6_2 O1_8 1_555 1_555
O1_8 C3_8 1_555 1_555
O18_4 C3_8 1_555 1_555
O20_6 Zr6_2 1_555 1_555
O22_6 Zr6_2 1_555 1_555
N1_11 H1_11 1_555 1_555
C1_8 C2_8 1_555 1_555
C2_8 H2_8 1_555 1_555
C3_8 C1_8 1_555 1_555
C4_8 C5_8 1_555 1_555
C5_8 H3_8 1_555 1_555
C6_8 H4_8 1_555 1_555
C7_8 C1_8 1_555 1_555
H5_8 C7_8 1_555 1_555
C8_8 C2_8 1_555 1_555
H6_8 C8_8 1_555 1_555
C9_8 C6_8 1_555 1_555
C10_8 C12_8 1_555 1_555
C11_8 C15_8 1_555 1_555
C12_8 N1_11 1_555 1_555
C13_8 C9_8 1_555 1_555
H7_8 C13_8 1_555 1_555
C14_8 C10_8 1_555 1_555
H8_8 C14_8 1_555 1_555
C15_8 C6_8 1_555 1_555
H9_8 C15_8 1_555 1_555
C16_8 H10_8 1_555 1_555
C17_8 C9_8 1_555 1_555
C18_8 C4_8 1_555 1_555
C19_8 C11_8 1_555 1_555
H11_8 C19_8 1_555 1_555
O23 C20_8 1_555 1_555
O25 C20_8 1_555 1_555
C20_8 C11_8 1_555 1_555
O21_4 Zr6_2 1_555 1_555
C4_8 C8_8 1_555 1_555
C5_8 C7_8 1_555 1_555
C12_8 C18_8 1_555 1_555
C13_8 C19_8 1_555 1_555
C14_8 C17_8 1_555 1_555
C16_8 C17_8 1_555 1_555
C16_8 C18_8 1_555 1_555
N1_12 H1_12 1_555 1_555
O17_4 C23_8 1_555 1_555
O19_4 C23_8 1_555 1_555
C21_8 C22_8 1_555 1_555
C22_8 H12_8 1_555 1_555
C23_8 C21_8 1_555 1_555
C24_8 C25_8 1_555 1_555
C25_8 H13_8 1_555 1_555
C26_8 H14_8 1_555 1_555
C27_8 C21_8 1_555 1_555
H15_8 C27_8 1_555 1_555
C28_8 C22_8 1_555 1_555
H16_8 C28_8 1_555 1_555
C29_8 C26_8 1_555 1_555
C31_8 C35_8 1_555 1_555
C32_8 N1_12 1_555 1_555
C33_8 C29_8 1_555 1_555
H17_8 C33_8 1_555 1_555
C34_8 C30_8 1_555 1_555
H18_8 C34_8 1_555 1_555
C35_8 C26_8 1_555 1_555
H19_8 C35_8 1_555 1_555
C36_8 H20_8 1_555 1_555
C37_8 C29_8 1_555 1_555
C38_8 C24_8 1_555 1_555
C39_8 C31_8 1_555 1_555
H21_8 C39_8 1_555 1_555
O24_2 C40_8 1_555 1_555
O26_4 C40_8 1_555 1_555
C40_8 C31_8 1_555 1_555
C24_8 C28_8 1_555 1_555
C25_8 C27_8 1_555 1_555
C30_8 C32_8 1_555 1_555
C32_8 C38_8 1_555 1_555
C33_8 C39_8 1_555 1_555
C34_8 C37_8 1_555 1_555
C36_8 C37_8 1_555 1_555
C36_8 C38_8 1_555 1_555
O6_7 H28_5 1_555 1_555
O7_8 H22_5 1_555 1_555
O7_8 H23_5 1_555 1_555
O9_8 H24_5 1_555 1_555
O3_8 H26_5 1_555 1_555
O3_8 H27_5 1_555 1_555
O6_8 H29_5 1_555 1_555
O6_5 H28_6 1_555 1_555
O7_6 H22_6 1_555 1_555
O7_6 H23_6 1_555 1_555
O9_6 H24_6 1_555 1_555
O3_6 H26_6 1_555 1_555
O3_6 H27_6 1_555 1_555
O6_6 H29_6 1_555 1_555
O7_11 H22_7 1_555 1_555
O7_11 H23_7 1_555 1_555
O9_11 H24_7 1_555 1_555
O3_11 H26_7 1_555 1_555
O3_11 H27_7 1_555 1_555
O6_11 H29_7 1_555 1_555
O6_12 H28_7 1_555 1_555
O7_9 H22_8 1_555 1_555
O7_9 H23_8 1_555 1_555
O9_9 H24_8 1_555 1_555
O3_9 H26_8 1_555 1_555
O3_9 H27_8 1_555 1_555
O6_9 H29_8 1_555 1_555
O6_10 H28_8 1_555 1_555

#END
