
###############################################################################
#
# This file contains modified crystal structure data generated from the
# MOF subset of the Cambridge Structural Database (CSD) v543 
# hosted by the Cambridge Crystallographic Data Centre (CCDC).
#
# This work is licensed under the Creative Commons
# Attribution-NonCommercial-ShareAlike 4.0 International License.
# To view a copy of this license, visit
# http://creativecommons.org/licenses/by-nc-sa/4.0/
# or send a letter to
# Creative Commons, PO Box 1866, Mountain View, CA 94042, USA.
#
# CIF created using the CSD Python API on 29 September 2022
# The structure has been converted into the P1 space group
# The structure has a 3D framework
# The original CSD entry GINYUA is in the rhombohedral crystal system
# The original CSD entry GINYUA is in a Sohncke space group
# The framework has been calculated to contain at least 10.0% void space
# The void calculation uses a probe of radius 1.32A, grid spacing 0.4
# H atom positions have been added when not included in the experimental data
#
###############################################################################

data_GINYUA
_chemical_formula_moiety         '(C344 H306 Ni18 O70)n'
_symmetry_cell_setting           triclinic
_symmetry_space_group_name_H-M   'P 1'
_symmetry_Int_Tables_number      1
_space_group_name_Hall           'P 1'
loop_
_symmetry_equiv_pos_site_id
_symmetry_equiv_pos_as_xyz
1 x,y,z
_cell_length_a                   68.2(4)
_cell_length_b                   68.2(4)
_cell_length_c                   7.02(7)
_cell_angle_alpha                90
_cell_angle_beta                 90
_cell_angle_gamma                120
_cell_volume                     28277.2
loop_
_atom_site_label
_atom_site_type_symbol
_atom_site_fract_x
_atom_site_fract_y
_atom_site_fract_z
_atom_site_U_iso_or_equiv
_atom_site_thermal_displace_type
O10 O 0.02018 0.32196 0.35332 0.0127 Uiso
O11 O 0.00062 0.34450 0.39727 0.0127 Uiso
O12 O 0.01055 0.33272 0.73061 0.0127 Uiso
Ni5 Ni 0.01835 0.34504 0.17924 0.0127 Uiso
H32 H 0.00427653 0.292424 0.727993 . .
O9 O 0.01138 0.36489 0.01998 0.0127 Uiso
H9 H 0.04695 0.44861 0.04378 0.0127 Uiso
C17 C 0.00534 0.37946 0.11070 0.0127 Uiso
C18 C 0.00001 0.3786 0.31442 0.0127 Uiso
C24 C 0.00110 0.41259 0.06750 0.0127 Uiso
O1 O 0.04545 0.37294 0.28186 0.0127 Uiso
H31 H 0.0515816 0.384849 0.182051 . .
H32_2 H 0.0409098 0.37852 0.394659 . .
H1 H 0.1408 0.31004 0.2911 0.0127 Uiso
H2 H 0.14552 0.28910 0.17353 0.0127 Uiso
H3 H 0.16827 0.31313 0.2954 0.0127 Uiso
H4 H 0.15137 0.38717 0.01485 0.0127 Uiso
H5 H 0.16015 0.38414 0.25715 0.0127 Uiso
H6 H 0.16906 0.37479 0.04913 0.0127 Uiso
H7 H 0.05682 0.28976 0.14842 0.0127 Uiso
H8 H 0.07288 0.27553 0.15232 0.0127 Uiso
H9_2 H 0.068333 0.28639 0.37712 0.0127 Uiso
H11 H 0.10830 0.29758 0.00790 0.0127 Uiso
H12 H 0.11771 0.36798 0.30663 0.0127 Uiso
H16 H 0.0535 0.32300 0.17225 0.0127 Uiso
H17 H 0.07115 0.34267 0.87271 0.0127 Uiso
H18 H 0.09899 0.34150 0.66022 0.0127 Uiso
C1 C 0.15301 0.30744 0.20380 0.0127 Uiso
C2 C 0.1547 0.37604 0.11081 0.0127 Uiso
C3 C 0.07148 0.28969 0.21750 0.0127 Uiso
C7 C 0.11567 0.35260 0.24116 0.0127 Uiso
C8 C 0.13341 0.35343 0.13129 0.0127 Uiso
C9 C 0.13087 0.33321 0.04971 0.0127 Uiso
C10 C 0.11028 0.31295 0.07313 0.0127 Uiso
C11 C 0.09265 0.31211 0.1852 0.0127 Uiso
C12 C 0.09552 0.33217 0.27183 0.0127 Uiso
C17_2 C 0.04079 0.32800 0.44404 0.0127 Uiso
C18_2 C 0.04529 0.33333 0.64776 0.0127 Uiso
C19 C 0.02965 0.33571 0.78716 0.0127 Uiso
C23 C 0.0572 0.32746 0.32520 0.0127 Uiso
C24_2 C 0.07816 0.33224 0.40084 0.0127 Uiso
C25 C 0.08279 0.33764 0.59919 0.0127 Uiso
C26 C 0.06661 0.33811 0.72069 0.0127 Uiso
C35 C 0.1597 0.32039 0.01362 0.0127 Uiso
O4 O 0.03578 0.34093 0.96580 0.0127 Uiso
H17_2 H 0.93818 0.26218 0.20604 0.0127 Uiso
C19_2 C 0.97272 0.30368 0.12049 0.0127 Uiso
C26_2 C 0.93816 0.26672 0.05402 0.0127 Uiso
O1_2 O 0.99415 0.28788 0.61519 0.0127 Uiso
O3 O 0.98883 0.32278 0.06394 0.0127 Uiso
O4_2 O 0.97181 0.29755 0.29913 0.0127 Uiso
Ni1 Ni 0.99335 0.31498 0.51257 0.0127 Uiso
O9_2 O 0.96844 0.31315 0.68665 0.0127 Uiso
H31_2 H 0.999934 0.281752 0.515385 . .
H1_2 H 0.83587 0.1925 0.6244 0.0127 Uiso
H2_2 H 0.81024 0.18781 0.50686 0.0127 Uiso
H3_2 H 0.81152 0.16506 0.6287 0.0127 Uiso
H4_2 H 0.90246 0.18196 0.34818 0.0127 Uiso
H5_2 H 0.89065 0.17318 0.59048 0.0127 Uiso
H6_2 H 0.87239 0.16427 0.38246 0.0127 Uiso
H7_2 H 0.8996 0.27651 0.48175 0.0127 Uiso
H8_2 H 0.86931 0.26045 0.48565 0.0127 Uiso
H9_3 H 0.88472 0.265 0.71045 0.0127 Uiso
H10 H 0.87124 0.18467 0.04107 0.0127 Uiso
H11_2 H 0.85594 0.22503 0.34123 0.0127 Uiso
H12_2 H 0.91693 0.21562 0.63996 0.0127 Uiso
H16_2 H 0.93613 0.2798 0.50558 0.0127 Uiso
H18_2 H 0.90917 0.23434 0.99355 0.0127 Uiso
H21 H 0.79269 0.14804 0.29493 0.0127 Uiso
C1_2 C 0.82109 0.18032 0.53713 0.0127 Uiso
C2_2 C 0.88797 0.1786 0.44414 0.0127 Uiso
C3_2 C 0.88487 0.26185 0.55083 0.0127 Uiso
C5 C 0.85408 0.17661 0.09688 0.0127 Uiso
C6 C 0.84978 0.1839 0.27561 0.0127 Uiso
C7_2 C 0.90359 0.21766 0.57449 0.0127 Uiso
C8_2 C 0.88668 0.19992 0.46462 0.0127 Uiso
C9_2 C 0.869 0.20246 0.38304 0.0127 Uiso
C10_2 C 0.86933 0.22305 0.40646 0.0127 Uiso
C11_2 C 0.88612 0.24068 0.5185 0.0127 Uiso
C12_2 C 0.90331 0.23781 0.60516 0.0127 Uiso
C17_3 C 0.95387 0.29254 0.77737 0.0127 Uiso
C18_3 C 0.9547 0.28804 0.98109 0.0127 Uiso
C23_2 C 0.93689 0.2761 0.65853 0.0127 Uiso
C24_3 C 0.92074 0.25517 0.73417 0.0127 Uiso
C25_2 C 0.92151 0.25054 0.93252 0.0127 Uiso
C33 C 0.81416 0.14881 0.06046 0.0127 Uiso
C34 C 0.80986 0.1561 0.23913 0.0127 Uiso
C35_2 C 0.82732 0.1736 0.34695 0.0127 Uiso
Ni4 Ni 0.98830 0.33998 0.84590 0.0127 Uiso
H32_3 H 0.954814 0.329057 0.061326 . .
H17_3 H 0.99067 0.39515 0.53937 0.0127 Uiso
H18_3 H 0.99184 0.42416 0.32688 0.0127 Uiso
C18_4 C 1.00001 0.3786 0.31442 0.0127 Uiso
C19_3 C 0.99763 0.36061 0.45382 0.0127 Uiso
C25_3 C 0.99570 0.41182 0.26585 0.0127 Uiso
C26_3 C 0.99523 0.39517 0.38735 0.0127 Uiso
O1_3 O 0.96040 0.33918 0.94852 0.0127 Uiso
O4_3 O 0.99241 0.36152 0.63246 0.0127 Uiso
H31_3 H 0.948484 0.333399 0.848718 . .
H4_3 H 0.94617 0.43087 0.68151 0.0127 Uiso
H5_3 H 0.94920 0.44268 0.92381 0.0127 Uiso
H6_3 H 0.95855 0.46094 0.71579 0.0127 Uiso
H10_2 H 0.98010 0.46209 0.37440 0.0127 Uiso
H12_3 H 0.96536 0.41640 0.97329 0.0127 Uiso
H15 H 0.99233 0.6057 0.15719 0.0127 Uiso
H20 H 0.96635 0.52539 0.33087 0.0127 Uiso
H23 H 0.94422 0.53884 0.18922 0.0127 Uiso
H24 H 0.95864 0.56915 0.18679 0.0127 Uiso
H28 H 0.98182 0.48086 0.04075 0.0127 Uiso
H29 H 0.95784 0.47965 0.16297 0.0127 Uiso
H30 H 0.97878 0.50525 0.04511 0.0127 Uiso
C2_3 C 0.95730 0.44536 0.77747 0.0127 Uiso
C4 C 0.98916 0.49671 0.32244 0.0127 Uiso
C5_2 C 0.98920 0.47925 0.43021 0.0127 Uiso
C7_3 C 0.98074 0.42974 0.90782 0.0127 Uiso
C8_3 C 0.97991 0.44665 0.79795 0.0127 Uiso
C16 C 0.99640 0.60611 0.00396 0.0127 Uiso
C28 C 0.98072 0.55535 0.15076 0.0127 Uiso
C29 C 0.98165 0.53869 0.2640 0.0127 Uiso
C36 C 0.95829 0.55416 0.12031 0.0127 Uiso
C38 C 0.97618 0.49047 0.13241 0.0127 Uiso
H13 H 0.75683 0.0983 0.33666 0.0127 Uiso
H14 H 0.72839 0.07071 0.11933 0.0127 Uiso
H15_2 H 0.7276 0.05326 0.82386 0.0127 Uiso
H19 H 0.7474 0.11716 0.69067 0.0127 Uiso
H20_2 H 0.80794 0.10762 0.99754 0.0127 Uiso
H22 H 0.77972 0.06773 0.62767 0.0127 Uiso
H23_2 H 0.79449 0.07204 0.85589 0.0127 Uiso
H24_2 H 0.76418 0.05615 0.85346 0.0127 Uiso
H25 H 0.79147 0.16835 0.95345 0.0127 Uiso
H26 H 0.77347 0.15955 0.74362 0.0127 Uiso
H27 H 0.76137 0.15059 0.98473 0.0127 Uiso
H28_2 H 0.85247 0.16762 0.70742 0.0127 Uiso
H29_2 H 0.85368 0.14485 0.82964 0.0127 Uiso
H30_2 H 0.82808 0.14019 0.71178 0.0127 Uiso
C4_2 C 0.83662 0.15911 0.98911 0.0127 Uiso
C13 C 0.7278 0.0661 0.27185 0.0127 Uiso
C14 C 0.74407 0.08221 0.39641 0.0127 Uiso
C15 C 0.74386 0.07771 0.59636 0.0127 Uiso
C16_2 C 0.72722 0.05695 0.67063 0.0127 Uiso
C20 C 0.69333 0.03017 0.21371 0.0127 Uiso
C21 C 0.7107 0.04494 0.34354 0.0127 Uiso
C22 C 0.71084 0.04044 0.548 0.0127 Uiso
C27 C 0.76098 0.09497 0.72797 0.0127 Uiso
C28_2 C 0.77798 0.09203 0.81743 0.0127 Uiso
C29_2 C 0.79464 0.10962 0.9307 0.0127 Uiso
C30 C 0.79496 0.13022 0.95309 0.0127 Uiso
C31 C 0.77737 0.13277 0.86976 0.0127 Uiso
C32 C 0.76064 0.11509 0.7581 0.0127 Uiso
C36_2 C 0.77917 0.07079 0.78698 0.0127 Uiso
C37 C 0.77599 0.15404 0.89017 0.0127 Uiso
C38_2 C 0.84286 0.15237 0.79908 0.0127 Uiso
O5 O 0.69423 0.03559 0.03315 0.0127 Uiso
O6 O 0.67674 0.0117 0.27539 0.0127 Uiso
O7 O 0.69665 0.02157 0.62523 0.0127 Uiso
Ni6 Ni 0.67302 0.01789 0.81748 0.0127 Uiso
O8 O 0.67088 0.04481 0.73006 0.0127 Uiso
O16 O 0.64510 0.00841 0.95856 0.0127 Uiso
H33 H 0.686186 0.05729 0.695041 . .
H34 H 0.660748 0.0405446 0.617449 . .
H22_2 H 0.59894 0.04532 0.96100 0.0127 Uiso
C22_2 C 0.62623 0.00373 0.881333 0.0127 Uiso
H34_2 H 0.71313 0.00591886 0.284115 . .
Ni7 Ni 0.64878 0.98846 0.15081 0.0127 Uiso
Ni8 Ni 0.67820 0.99365 0.48415 0.0127 Uiso
O13 O 0.6550 0.99837 0.60872 0.0127 Uiso
O14 O 0.66829 0.98993 0.94206 0.0127 Uiso
H1_3 H 0.4742 0.97670 0.9577 0.0127 Uiso
H2_3 H 0.47886 0.95576 0.84019 0.0127 Uiso
H3_3 H 0.50161 0.97979 0.9620 0.0127 Uiso
H7_3 H 0.39016 0.95642 0.81508 0.0127 Uiso
H8_3 H 0.40622 0.94219 0.81898 0.0127 Uiso
H11_3 H 0.44164 0.96424 0.67456 0.0127 Uiso
H16_3 H 0.3869 0.98966 0.83891 0.0127 Uiso
H19_2 H 0.54951 0.96357 0.02400 0.0127 Uiso
H21_2 H 0.51863 0.97798 0.62826 0.0127 Uiso
H25_2 H 0.49832 0.95645 0.28678 0.0127 Uiso
H26_2 H 0.50712 0.94725 0.07695 0.0127 Uiso
H27_2 H 0.51608 0.94411 0.31806 0.0127 Uiso
C1_3 C 0.48635 0.97410 0.87046 0.0127 Uiso
C3_3 C 0.40482 0.95635 0.88416 0.0127 Uiso
C6_2 C 0.4828 0.99921 0.60894 0.0127 Uiso
C9_3 C 0.46421 0.99987 0.71637 0.0127 Uiso
C10_3 C 0.44362 0.97961 0.73979 0.0127 Uiso
C11_3 C 0.42599 0.97877 0.8518 0.0127 Uiso
C12_3 C 0.42886 0.99883 0.93849 0.0127 Uiso
C23_3 C 0.3906 0.99412 0.99186 0.0127 Uiso
C27_2 C 0.57170 0.99934 0.06130 0.0127 Uiso
C30_2 C 0.53645 0.99807 0.28642 0.0127 Uiso
C31_2 C 0.53390 0.97793 0.20309 0.0127 Uiso
C32_2 C 0.55158 0.97888 0.0914 0.0127 Uiso
C33_2 C 0.51786 0.99868 0.39379 0.0127 Uiso
C34_2 C 0.5106 0.98709 0.57246 0.0127 Uiso
C35_3 C 0.4931 0.98705 0.68028 0.0127 Uiso
C37_2 C 0.51263 0.95528 0.22350 0.0127 Uiso
H13_2 H 0.5684 0.99186 0.66999 0.0127 Uiso
H14_2 H 0.59596 0.99101 0.45266 0.0127 Uiso
C13_2 C 0.6006 0.9950 0.60518 0.0127 Uiso
C14_2 C 0.58446 0.99519 0.72974 0.0127 Uiso
C15_2 C 0.58896 0.99948 0.92969 0.0127 Uiso
C20_2 C 0.63650 0.99649 0.54704 0.0127 Uiso
C21_2 C 0.62173 0.99909 0.67687 0.0127 Uiso
O5_2 O 0.63108 0.99197 0.36648 0.0127 Uiso
O8_2 O 0.62186 0.95940 0.06339 0.0127 Uiso
O16_2 O 0.65825 0.97002 0.29190 0.0127 Uiso
H33_2 H 0.609377 0.962229 0.0283748 . .
H34_3 H 0.626122 0.953537 0.950782 . .
H10_3 H 0.64676 0.79543 0.70774 0.0127 Uiso
H13_3 H 0.67480 0.90984 0.00333 0.0127 Uiso
H15_3 H 0.65899 0.9391 0.49053 0.0127 Uiso
H19_3 H 0.70309 0.9193 0.35734 0.0127 Uiso
H20_3 H 0.63301 0.85873 0.66421 0.0127 Uiso
H21_3 H 0.68868 0.87398 0.96160 0.0127 Uiso
H22_3 H 0.62134 0.88695 0.29434 0.0127 Uiso
H23_3 H 0.61088 0.87218 0.52256 0.0127 Uiso
H24_3 H 0.62530 0.90249 0.52013 0.0127 Uiso
H25_3 H 0.71021 0.87520 0.62012 0.0127 Uiso
H26_3 H 0.71941 0.89320 0.41029 0.0127 Uiso
H27_3 H 0.72255 0.90530 0.65140 0.0127 Uiso
H28_3 H 0.64848 0.81420 0.37409 0.0127 Uiso
H29_3 H 0.62450 0.81299 0.49631 0.0127 Uiso
H30_3 H 0.64544 0.83859 0.37845 0.0127 Uiso
C4_3 C 0.65582 0.83005 0.65578 0.0127 Uiso
C5_3 C 0.65586 0.81259 0.76355 0.0127 Uiso
C6_3 C 0.66745 0.81689 0.94228 0.0127 Uiso
C14_3 C 0.67147 0.92260 0.06308 0.0127 Uiso
C15_3 C 0.66718 0.92281 0.26303 0.0127 Uiso
C16_3 C 0.66306 0.93945 0.33730 0.0127 Uiso
C21_3 C 0.66757 0.9560 0.01021 0.0127 Uiso
C22_3 C 0.66293 0.95583 0.214667 0.0127 Uiso
C27_3 C 0.66732 0.90569 0.39464 0.0127 Uiso
C28_3 C 0.64738 0.88869 0.48410 0.0127 Uiso
C29_3 C 0.64831 0.87203 0.5974 0.0127 Uiso
C30_3 C 0.66859 0.87171 0.61976 0.0127 Uiso
C31_3 C 0.68873 0.88930 0.53643 0.0127 Uiso
C32_3 C 0.68778 0.90603 0.4248 0.0127 Uiso
C33_3 C 0.66798 0.85251 0.72713 0.0127 Uiso
C34_3 C 0.67957 0.85681 0.90580 0.0127 Uiso
C36_3 C 0.62495 0.88750 0.45365 0.0127 Uiso
C37_3 C 0.71138 0.89068 0.55684 0.0127 Uiso
C38_3 C 0.64284 0.82381 0.46575 0.0127 Uiso
H14_3 H 0.67565 0.93828 0.78600 0.0127 Uiso
C13_3 C 0.6716 0.9389 0.93852 0.0127 Uiso
C20_3 C 0.67017 0.97334 0.88038 0.0127 Uiso
O5_3 O 0.67469 0.97244 0.69982 0.0127 Uiso
O8_3 O 0.70726 0.99579 0.39673 0.0127 Uiso
H33_3 H 0.704437 0.980481 0.361708 . .
Ni7_2 Ni 0.01154 0.66031 0.15081 0.0127 Uiso
Ni8_2 Ni 0.00635 0.68456 0.48415 0.0127 Uiso
O13_2 O 0.00163 0.65659 0.60872 0.0127 Uiso
O14_2 O 0.01007 0.67837 0.94206 0.0127 Uiso
H1_4 H 0.02330 0.49746 0.9577 0.0127 Uiso
H2_4 H 0.04424 0.52309 0.84019 0.0127 Uiso
H3_4 H 0.02021 0.52181 0.9620 0.0127 Uiso
H7_4 H 0.04358 0.4337 0.81508 0.0127 Uiso
H8_4 H 0.05781 0.46402 0.81898 0.0127 Uiso
H11_4 H 0.03576 0.47739 0.67456 0.0127 Uiso
H16_4 H 0.01034 0.39720 0.83891 0.0127 Uiso
H19_4 H 0.03643 0.5859 0.02400 0.0127 Uiso
H21_4 H 0.02202 0.54064 0.62826 0.0127 Uiso
H25_4 H 0.04355 0.54186 0.28678 0.0127 Uiso
H26_4 H 0.05275 0.55986 0.07695 0.0127 Uiso
H27_4 H 0.05589 0.57196 0.31806 0.0127 Uiso
C1_4 C 0.02590 0.51224 0.87046 0.0127 Uiso
C3_4 C 0.04365 0.44846 0.88416 0.0127 Uiso
C6_4 C 0.00079 0.48355 0.60894 0.0127 Uiso
C9_4 C 0.00013 0.464333 0.71637 0.0127 Uiso
C10_4 C 0.02039 0.46400 0.73979 0.0127 Uiso
C11_4 C 0.02123 0.44721 0.8518 0.0127 Uiso
C12_4 C 0.00117 0.43002 0.93849 0.0127 Uiso
C23_4 C 0.00588 0.39644 0.99186 0.0127 Uiso
C27_4 C 0.00066 0.57235 0.06130 0.0127 Uiso
C30_4 C 0.00193 0.53837 0.28642 0.0127 Uiso
C31_4 C 0.02207 0.55596 0.20309 0.0127 Uiso
C32_4 C 0.02112 0.57269 0.0914 0.0127 Uiso
C33_4 C 0.00132 0.51917 0.39379 0.0127 Uiso
C34_4 C 0.01291 0.52347 0.57246 0.0127 Uiso
C35_4 C 0.01295 0.50601 0.68028 0.0127 Uiso
C37_4 C 0.04472 0.55734 0.22350 0.0127 Uiso
H13_4 H 0.00814 0.57650 0.66999 0.0127 Uiso
H14_4 H 0.00899 0.60494 0.45266 0.0127 Uiso
C13_4 C 0.0050 0.6055 0.60518 0.0127 Uiso
C14_4 C 0.00481 0.58926 0.72974 0.0127 Uiso
C15_4 C 0.00052 0.58947 0.92969 0.0127 Uiso
C20_4 C 0.00351 0.64000 0.54704 0.0127 Uiso
C21_4 C 0.00091 0.6226 0.67687 0.0127 Uiso
O5_4 O 0.00803 0.63910 0.36648 0.0127 Uiso
O8_4 O 0.04060 0.66245 0.06339 0.0127 Uiso
O16_3 O 0.02998 0.68824 0.29190 0.0127 Uiso
H33_4 H 0.0377707 0.647147 0.0283748 . .
H34_4 H 0.0464634 0.672586 0.950782 . .
H10_4 H 0.20457 0.85134 0.70774 0.0127 Uiso
H13_5 H 0.09016 0.7650 0.00333 0.0127 Uiso
H15_4 H 0.0609 0.71993 0.49053 0.0127 Uiso
H19_5 H 0.0807 0.78383 0.35734 0.0127 Uiso
H20_4 H 0.14127 0.77429 0.66421 0.0127 Uiso
H21_5 H 0.12602 0.81471 0.96160 0.0127 Uiso
H22_4 H 0.11305 0.73440 0.29434 0.0127 Uiso
H23_4 H 0.12782 0.73871 0.52256 0.0127 Uiso
H24_4 H 0.09751 0.72282 0.52013 0.0127 Uiso
H25_5 H 0.12480 0.83502 0.62012 0.0127 Uiso
H26_5 H 0.10680 0.82622 0.41029 0.0127 Uiso
H27_5 H 0.09470 0.81726 0.65140 0.0127 Uiso
H28_4 H 0.18580 0.83429 0.37409 0.0127 Uiso
H29_4 H 0.18701 0.81152 0.49631 0.0127 Uiso
H30_4 H 0.16141 0.80686 0.37845 0.0127 Uiso
C4_4 C 0.16995 0.82578 0.65578 0.0127 Uiso
C5_4 C 0.18741 0.84328 0.76355 0.0127 Uiso
C6_5 C 0.18311 0.8506 0.94228 0.0127 Uiso
C14_5 C 0.07740 0.74888 0.06308 0.0127 Uiso
C15_5 C 0.07719 0.74438 0.26303 0.0127 Uiso
C16_4 C 0.06055 0.72362 0.33730 0.0127 Uiso
C21_5 C 0.0440 0.71161 0.01021 0.0127 Uiso
C22_4 C 0.04417 0.70711 0.214667 0.0127 Uiso
C27_5 C 0.09431 0.76164 0.39464 0.0127 Uiso
C28_4 C 0.11131 0.75870 0.48410 0.0127 Uiso
C29_4 C 0.12797 0.77629 0.5974 0.0127 Uiso
C30_5 C 0.12829 0.79689 0.61976 0.0127 Uiso
C31_5 C 0.11070 0.79944 0.53643 0.0127 Uiso
C32_5 C 0.09397 0.78176 0.4248 0.0127 Uiso
C33_5 C 0.14749 0.81548 0.72713 0.0127 Uiso
C34_5 C 0.14319 0.8228 0.90580 0.0127 Uiso
C36_4 C 0.11250 0.73746 0.45365 0.0127 Uiso
C37_5 C 0.10932 0.82071 0.55684 0.0127 Uiso
C38_4 C 0.17619 0.81904 0.46575 0.0127 Uiso
H14_5 H 0.06172 0.73738 0.78600 0.0127 Uiso
C13_5 C 0.0611 0.7328 0.93852 0.0127 Uiso
C20_5 C 0.02666 0.69684 0.88038 0.0127 Uiso
O5_5 O 0.02756 0.70226 0.69982 0.0127 Uiso
O8_5 O 0.00421 0.71148 0.39673 0.0127 Uiso
H33_5 H 0.0195193 0.723957 0.361708 . .
H17_4 H 0.73782 0.67600 0.20604 0.0127 Uiso
C19_4 C 0.69632 0.66904 0.12049 0.0127 Uiso
C26_4 C 0.73328 0.67144 0.05402 0.0127 Uiso
O1_4 O 0.71212 0.70627 0.61519 0.0127 Uiso
O3_2 O 0.67722 0.66605 0.06394 0.0127 Uiso
O4_4 O 0.70245 0.67426 0.29913 0.0127 Uiso
Ni1_2 Ni 0.68502 0.67837 0.51257 0.0127 Uiso
O9_3 O 0.68685 0.65529 0.68665 0.0127 Uiso
O10_2 O 0.67804 0.69823 0.35332 0.0127 Uiso
O11_2 O 0.65550 0.65611 0.39727 0.0127 Uiso
O12_2 O 0.66728 0.67784 0.73061 0.0127 Uiso
Ni5_2 Ni 0.65496 0.67332 0.17924 0.0127 Uiso
H31_4 H 0.718248 0.718182 0.515385 . .
H32_4 H 0.707576 0.711853 0.727993 . .
H1_5 H 0.8075 0.64337 0.6244 0.0127 Uiso
H2_5 H 0.81219 0.62243 0.50686 0.0127 Uiso
H3_5 H 0.83494 0.64646 0.6287 0.0127 Uiso
H4_4 H 0.81804 0.72050 0.34818 0.0127 Uiso
H5_4 H 0.82682 0.71747 0.59048 0.0127 Uiso
H6_4 H 0.83573 0.70812 0.38246 0.0127 Uiso
H7_5 H 0.72349 0.62309 0.48175 0.0127 Uiso
H8_5 H 0.73955 0.60886 0.48565 0.0127 Uiso
H9_4 H 0.735 0.61972 0.71045 0.0127 Uiso
H10_5 H 0.81533 0.68657 0.04107 0.0127 Uiso
H11_5 H 0.77497 0.63091 0.34123 0.0127 Uiso
H12_4 H 0.78438 0.70131 0.63996 0.0127 Uiso
H16_5 H 0.7202 0.65633 0.50558 0.0127 Uiso
H18_4 H 0.76566 0.67483 0.99355 0.0127 Uiso
H21_6 H 0.85196 0.64465 0.29493 0.0127 Uiso
C1_5 C 0.81968 0.64077 0.53713 0.0127 Uiso
C2_4 C 0.8214 0.70937 0.44414 0.0127 Uiso
C3_5 C 0.73815 0.62302 0.55083 0.0127 Uiso
C5_5 C 0.82339 0.67747 0.09688 0.0127 Uiso
C6_6 C 0.8161 0.66588 0.27561 0.0127 Uiso
C7_4 C 0.78234 0.68593 0.57449 0.0127 Uiso
C8_4 C 0.80008 0.68676 0.46462 0.0127 Uiso
C9_5 C 0.79754 0.66654 0.38304 0.0127 Uiso
C10_5 C 0.77695 0.64628 0.40646 0.0127 Uiso
C11_5 C 0.75932 0.64544 0.5185 0.0127 Uiso
C12_5 C 0.76219 0.66550 0.60516 0.0127 Uiso
C17_4 C 0.70746 0.66133 0.77737 0.0127 Uiso
C18_5 C 0.71196 0.66666 0.98109 0.0127 Uiso
C23_5 C 0.7239 0.66079 0.65853 0.0127 Uiso
C24_4 C 0.74483 0.66557 0.73417 0.0127 Uiso
C25_4 C 0.74946 0.67097 0.93252 0.0127 Uiso
C33_6 C 0.85119 0.66535 0.06046 0.0127 Uiso
C34_6 C 0.8439 0.65376 0.23913 0.0127 Uiso
C35_5 C 0.8264 0.65372 0.34695 0.0127 Uiso
Ni4_2 Ni 0.66002 0.64831 0.84590 0.0127 Uiso
H13_6 H 0.34147 0.24317 0.33666 0.0127 Uiso
H14_6 H 0.34232 0.27161 0.11933 0.0127 Uiso
H15_5 H 0.32566 0.2724 0.82386 0.0127 Uiso
H19_6 H 0.36976 0.2526 0.69067 0.0127 Uiso
H20_5 H 0.29968 0.19206 0.99754 0.0127 Uiso
H22_5 H 0.28801 0.22028 0.62767 0.0127 Uiso
H23_5 H 0.27755 0.20551 0.85589 0.0127 Uiso
H24_5 H 0.29197 0.23582 0.85346 0.0127 Uiso
H25_6 H 0.37688 0.20853 0.95345 0.0127 Uiso
H26_6 H 0.38608 0.22653 0.74362 0.0127 Uiso
H27_6 H 0.38922 0.23863 0.98473 0.0127 Uiso
H28_5 H 0.31515 0.14753 0.70742 0.0127 Uiso
H29_5 H 0.29117 0.14632 0.82964 0.0127 Uiso
H30_5 H 0.31211 0.17192 0.71178 0.0127 Uiso
C4_5 C 0.32249 0.16338 0.98911 0.0127 Uiso
C13_6 C 0.3383 0.2722 0.27185 0.0127 Uiso
C14_6 C 0.33814 0.25593 0.39641 0.0127 Uiso
C15_6 C 0.33385 0.25614 0.59636 0.0127 Uiso
C16_5 C 0.32973 0.27278 0.67063 0.0127 Uiso
C20_6 C 0.33684 0.30667 0.21371 0.0127 Uiso
C21_6 C 0.33424 0.2893 0.34354 0.0127 Uiso
C22_5 C 0.32960 0.28916 0.548 0.0127 Uiso
C27_6 C 0.33399 0.23902 0.72797 0.0127 Uiso
C28_5 C 0.31405 0.22202 0.81743 0.0127 Uiso
C29_5 C 0.31498 0.20536 0.9307 0.0127 Uiso
C30_6 C 0.33526 0.20504 0.95309 0.0127 Uiso
C31_6 C 0.35540 0.22263 0.86976 0.0127 Uiso
C32_6 C 0.35445 0.23936 0.7581 0.0127 Uiso
C36_5 C 0.29162 0.22083 0.78698 0.0127 Uiso
C37_6 C 0.37805 0.22401 0.89017 0.0127 Uiso
C38_5 C 0.30951 0.15714 0.79908 0.0127 Uiso
O5_6 O 0.34136 0.30577 0.03315 0.0127 Uiso
O6_2 O 0.33496 0.32326 0.27539 0.0127 Uiso
O7_2 O 0.32492 0.30335 0.62523 0.0127 Uiso
Ni6_2 Ni 0.34487 0.32698 0.81748 0.0127 Uiso
Ni7_3 Ni 0.33969 0.35122 0.15081 0.0127 Uiso
Ni8_3 Ni 0.31544 0.32180 0.48415 0.0127 Uiso
O8_6 O 0.37393 0.32912 0.73006 0.0127 Uiso
O13_3 O 0.34341 0.3450 0.60872 0.0127 Uiso
O14_3 O 0.32163 0.33171 0.94206 0.0127 Uiso
O16_4 O 0.36332 0.35490 0.95856 0.0127 Uiso
H33_6 H 0.371104 0.313814 0.695041 . .
H34_5 H 0.379797 0.339252 0.617449 . .
O9_4 O 0.63511 0.64648 0.01998 0.0127 Uiso
H32_5 H 0.670943 0.625757 0.061326 . .
H9_5 H 0.55139 0.598333 0.04378 0.0127 Uiso
H17_5 H 0.60485 0.59551 0.53937 0.0127 Uiso
H18_5 H 0.57584 0.56767 0.32688 0.0127 Uiso
C17_5 C 0.62054 0.62587 0.11070 0.0127 Uiso
C18_6 C 0.6214 0.62137 0.31442 0.0127 Uiso
C19_5 C 0.63939 0.63701 0.45382 0.0127 Uiso
C24_5 C 0.58741 0.58850 0.06750 0.0127 Uiso
C25_5 C 0.58818 0.58387 0.26585 0.0127 Uiso
C26_5 C 0.60483 0.60005 0.38735 0.0127 Uiso
O1_5 O 0.66082 0.62121 0.94852 0.0127 Uiso
O4_5 O 0.63848 0.63088 0.63246 0.0127 Uiso
H31_5 H 0.666601 0.615085 0.848718 . .
H1_6 H 0.50254 0.5258 0.9577 0.0127 Uiso
H2_6 H 0.47691 0.52114 0.84019 0.0127 Uiso
H3_6 H 0.47819 0.49839 0.9620 0.0127 Uiso
H4_5 H 0.56913 0.51529 0.68151 0.0127 Uiso
H5_5 H 0.55732 0.50651 0.92381 0.0127 Uiso
H6_5 H 0.53906 0.49760 0.71579 0.0127 Uiso
H7_6 H 0.5663 0.60984 0.81508 0.0127 Uiso
H8_6 H 0.53598 0.59378 0.81898 0.0127 Uiso
H10_6 H 0.53791 0.51800 0.37440 0.0127 Uiso
H11_6 H 0.52261 0.55836 0.67456 0.0127 Uiso
H12_5 H 0.58360 0.54895 0.97329 0.0127 Uiso
H15_6 H 0.3943 0.38659 0.15719 0.0127 Uiso
H16_6 H 0.60280 0.6131 0.83891 0.0127 Uiso
H19_7 H 0.4141 0.45049 0.02400 0.0127 Uiso
H20_6 H 0.47461 0.44095 0.33087 0.0127 Uiso
H21_7 H 0.45936 0.48137 0.62826 0.0127 Uiso
H23_6 H 0.46116 0.40537 0.18922 0.0127 Uiso
H24_6 H 0.43085 0.38948 0.18679 0.0127 Uiso
H25_7 H 0.45814 0.50168 0.28678 0.0127 Uiso
H26_7 H 0.44014 0.49288 0.07695 0.0127 Uiso
H27_7 H 0.42804 0.48392 0.31806 0.0127 Uiso
H28_6 H 0.51914 0.50095 0.04075 0.0127 Uiso
H29_6 H 0.52035 0.47818 0.16297 0.0127 Uiso
H30_6 H 0.49475 0.47352 0.04511 0.0127 Uiso
C1_6 C 0.48776 0.51365 0.87046 0.0127 Uiso
C2_5 C 0.55464 0.5119 0.77747 0.0127 Uiso
C3_6 C 0.55154 0.59518 0.88416 0.0127 Uiso
C4_6 C 0.50329 0.49244 0.32244 0.0127 Uiso
C5_6 C 0.52075 0.50994 0.43021 0.0127 Uiso
C6_7 C 0.51645 0.5172 0.60894 0.0127 Uiso
C7_5 C 0.57026 0.55099 0.90782 0.0127 Uiso
C8_5 C 0.55335 0.53325 0.79795 0.0127 Uiso
C9_6 C 0.535667 0.53579 0.71637 0.0127 Uiso
C10_6 C 0.53600 0.55638 0.73979 0.0127 Uiso
C11_6 C 0.55279 0.57401 0.8518 0.0127 Uiso
C12_6 C 0.56998 0.57114 0.93849 0.0127 Uiso
C16_6 C 0.39389 0.39028 0.00396 0.0127 Uiso
C23_6 C 0.60356 0.6094 0.99186 0.0127 Uiso
C27_7 C 0.42765 0.42830 0.06130 0.0127 Uiso
C28_6 C 0.44465 0.42536 0.15076 0.0127 Uiso
C29_6 C 0.46131 0.44295 0.2640 0.0127 Uiso
C30_7 C 0.46163 0.46355 0.28642 0.0127 Uiso
C31_7 C 0.44404 0.46610 0.20309 0.0127 Uiso
C32_7 C 0.42731 0.44842 0.0914 0.0127 Uiso
C33_7 C 0.48083 0.48214 0.39379 0.0127 Uiso
C34_7 C 0.47653 0.4894 0.57246 0.0127 Uiso
C35_6 C 0.49399 0.5069 0.68028 0.0127 Uiso
C36_6 C 0.44584 0.40412 0.12031 0.0127 Uiso
C37_7 C 0.44266 0.48737 0.22350 0.0127 Uiso
C38_6 C 0.50953 0.48570 0.13241 0.0127 Uiso
H13_7 H 0.42350 0.4316 0.66999 0.0127 Uiso
H14_7 H 0.39506 0.40404 0.45266 0.0127 Uiso
H22_6 H 0.44639 0.40106 0.96100 0.0127 Uiso
C13_7 C 0.3945 0.3994 0.60518 0.0127 Uiso
C14_7 C 0.41074 0.41554 0.72974 0.0127 Uiso
C15_7 C 0.41053 0.41104 0.92969 0.0127 Uiso
C20_7 C 0.36000 0.36350 0.54704 0.0127 Uiso
C21_7 C 0.3774 0.37827 0.67687 0.0127 Uiso
C22_6 C 0.37751 0.37377 0.881333 0.0127 Uiso
O5_7 O 0.36090 0.36892 0.36648 0.0127 Uiso
O8_7 O 0.33755 0.37814 0.06339 0.0127 Uiso
O16_5 O 0.31176 0.34175 0.29190 0.0127 Uiso
H33_7 H 0.352853 0.390623 0.0283748 . .
H34_6 H 0.327414 0.373878 0.950782 . .
H10_7 H 0.14866 0.35324 0.70774 0.0127 Uiso
H13_8 H 0.2350 0.32520 0.00333 0.0127 Uiso
H15_7 H 0.28007 0.34101 0.49053 0.0127 Uiso
H19_8 H 0.21617 0.29691 0.35734 0.0127 Uiso
H20_7 H 0.22571 0.36699 0.66421 0.0127 Uiso
H21_8 H 0.18529 0.31132 0.96160 0.0127 Uiso
H22_7 H 0.26560 0.37866 0.29434 0.0127 Uiso
H23_7 H 0.26129 0.38912 0.52256 0.0127 Uiso
H24_7 H 0.27718 0.37470 0.52013 0.0127 Uiso
H25_8 H 0.16498 0.28979 0.62012 0.0127 Uiso
H26_8 H 0.17378 0.28059 0.41029 0.0127 Uiso
H27_8 H 0.18274 0.27745 0.65140 0.0127 Uiso
H28_7 H 0.16571 0.35152 0.37409 0.0127 Uiso
H29_7 H 0.18848 0.37550 0.49631 0.0127 Uiso
H30_7 H 0.19314 0.35456 0.37845 0.0127 Uiso
C4_7 C 0.17422 0.34418 0.65578 0.0127 Uiso
C5_7 C 0.15672 0.34414 0.76355 0.0127 Uiso
C6_8 C 0.1494 0.33255 0.94228 0.0127 Uiso
C14_8 C 0.25112 0.32853 0.06308 0.0127 Uiso
C15_8 C 0.25562 0.33282 0.26303 0.0127 Uiso
C16_7 C 0.27638 0.33694 0.33730 0.0127 Uiso
C21_8 C 0.28839 0.33243 0.01021 0.0127 Uiso
C22_7 C 0.29289 0.33707 0.214667 0.0127 Uiso
C27_8 C 0.23836 0.33268 0.39464 0.0127 Uiso
C28_7 C 0.24130 0.35262 0.48410 0.0127 Uiso
C29_7 C 0.22371 0.35169 0.5974 0.0127 Uiso
C30_8 C 0.20311 0.33141 0.61976 0.0127 Uiso
C31_8 C 0.20056 0.31127 0.53643 0.0127 Uiso
C32_8 C 0.21824 0.31222 0.4248 0.0127 Uiso
C33_8 C 0.18452 0.33202 0.72713 0.0127 Uiso
C34_8 C 0.1772 0.32043 0.90580 0.0127 Uiso
C36_7 C 0.26254 0.37505 0.45365 0.0127 Uiso
C37_8 C 0.17929 0.28862 0.55684 0.0127 Uiso
C38_7 C 0.18096 0.35716 0.46575 0.0127 Uiso
H14_8 H 0.26262 0.32435 0.78600 0.0127 Uiso
C13_8 C 0.2672 0.3284 0.93852 0.0127 Uiso
C20_8 C 0.30316 0.32983 0.88038 0.0127 Uiso
O5_8 O 0.29774 0.32531 0.69982 0.0127 Uiso
O8_8 O 0.28852 0.29274 0.39673 0.0127 Uiso
H33_8 H 0.276043 0.295563 0.361708 . .
H34_7 H 0.292789 0.28687 0.284115 . .
O1_6 O 0.62706 0.67252 0.28186 0.0127 Uiso
H31_6 H 0.615151 0.666733 0.182051 . .
H32_6 H 0.62148 0.66239 0.394659 . .
H1_7 H 0.68996 0.83080 0.2911 0.0127 Uiso
H2_7 H 0.71090 0.85643 0.17353 0.0127 Uiso
H3_7 H 0.68687 0.85515 0.2954 0.0127 Uiso
H4_6 H 0.61283 0.76421 0.01485 0.0127 Uiso
H5_6 H 0.61586 0.77602 0.25715 0.0127 Uiso
H6_6 H 0.62521 0.79428 0.04913 0.0127 Uiso
H7_7 H 0.71024 0.7671 0.14842 0.0127 Uiso
H8_7 H 0.72447 0.79736 0.15232 0.0127 Uiso
H9_6 H 0.71361 0.78195 0.37712 0.0127 Uiso
H11_7 H 0.70242 0.81073 0.00790 0.0127 Uiso
H12_6 H 0.63202 0.74974 0.30663 0.0127 Uiso
H16_7 H 0.67700 0.73054 0.17225 0.0127 Uiso
H17_6 H 0.65733 0.72849 0.87271 0.0127 Uiso
H18_6 H 0.65850 0.75750 0.66022 0.0127 Uiso
C1_7 C 0.69256 0.84558 0.20380 0.0127 Uiso
C2_6 C 0.62396 0.77870 0.11081 0.0127 Uiso
C3_7 C 0.71031 0.78180 0.21750 0.0127 Uiso
C7_6 C 0.64740 0.76308 0.24116 0.0127 Uiso
C8_6 C 0.64657 0.77999 0.13129 0.0127 Uiso
C9_7 C 0.66679 0.797667 0.04971 0.0127 Uiso
C10_7 C 0.68705 0.79734 0.07313 0.0127 Uiso
C11_7 C 0.68789 0.78055 0.1852 0.0127 Uiso
C12_7 C 0.66783 0.76336 0.27183 0.0127 Uiso
C17_6 C 0.67200 0.71280 0.44404 0.0127 Uiso
C18_7 C 0.66667 0.7120 0.64776 0.0127 Uiso
C19_6 C 0.66429 0.69395 0.78716 0.0127 Uiso
C23_7 C 0.67254 0.72978 0.32520 0.0127 Uiso
C24_6 C 0.66776 0.74593 0.40084 0.0127 Uiso
C25_6 C 0.66236 0.74516 0.59919 0.0127 Uiso
C26_6 C 0.66189 0.72851 0.72069 0.0127 Uiso
C35_7 C 0.67961 0.83935 0.01362 0.0127 Uiso
O4_6 O 0.65907 0.69486 0.96580 0.0127 Uiso
H13_9 H 0.9017 0.65853 0.33666 0.0127 Uiso
H14_9 H 0.92929 0.65768 0.11933 0.0127 Uiso
H15_8 H 0.94674 0.67434 0.82386 0.0127 Uiso
H19_9 H 0.88284 0.63024 0.69067 0.0127 Uiso
H20_8 H 0.89238 0.70032 0.99754 0.0127 Uiso
H22_8 H 0.93227 0.71199 0.62767 0.0127 Uiso
H23_8 H 0.92796 0.72245 0.85589 0.0127 Uiso
H24_8 H 0.94385 0.70803 0.85346 0.0127 Uiso
H25_9 H 0.83165 0.62312 0.95345 0.0127 Uiso
H26_9 H 0.84045 0.61392 0.74362 0.0127 Uiso
H27_9 H 0.84941 0.61078 0.98473 0.0127 Uiso
H28_8 H 0.83238 0.68485 0.70742 0.0127 Uiso
H29_8 H 0.85515 0.70883 0.82964 0.0127 Uiso
H30_8 H 0.85981 0.68789 0.71178 0.0127 Uiso
C4_8 C 0.84089 0.67751 0.98911 0.0127 Uiso
C13_9 C 0.9339 0.6617 0.27185 0.0127 Uiso
C14_9 C 0.91779 0.66186 0.39641 0.0127 Uiso
C15_9 C 0.92229 0.66615 0.59636 0.0127 Uiso
C16_8 C 0.94305 0.67027 0.67063 0.0127 Uiso
C20_9 C 0.96983 0.66316 0.21371 0.0127 Uiso
C21_9 C 0.95506 0.66576 0.34354 0.0127 Uiso
C22_8 C 0.95956 0.67040 0.548 0.0127 Uiso
C27_9 C 0.90503 0.66601 0.72797 0.0127 Uiso
C28_8 C 0.90797 0.68595 0.81743 0.0127 Uiso
C29_8 C 0.89038 0.68502 0.9307 0.0127 Uiso
C30_9 C 0.86978 0.66474 0.95309 0.0127 Uiso
C31_9 C 0.86723 0.64460 0.86976 0.0127 Uiso
C32_9 C 0.88491 0.64555 0.7581 0.0127 Uiso
C36_8 C 0.92921 0.70838 0.78698 0.0127 Uiso
C37_9 C 0.84596 0.62195 0.89017 0.0127 Uiso
C38_8 C 0.84763 0.69049 0.79908 0.0127 Uiso
O5_9 O 0.96441 0.65864 0.03315 0.0127 Uiso
O6_3 O 0.9883 0.66504 0.27539 0.0127 Uiso
O7_3 O 0.97843 0.67508 0.62523 0.0127 Uiso
Ni6_3 Ni 0.98211 0.65513 0.81748 0.0127 Uiso
O8_9 O 0.95519 0.62607 0.73006 0.0127 Uiso
O16_6 O 0.99159 0.63668 0.95856 0.0127 Uiso
H33_9 H 0.94271 0.628896 0.695041 . .
H34_8 H 0.959455 0.620203 0.617449 . .
H22_9 H 0.95468 0.55361 0.96100 0.0127 Uiso
C22_9 C 0.99627 0.62249 0.881333 0.0127 Uiso
H34_9 H 0.994081 0.707211 0.284115 . .
H17_7 H 0.32400 0.06182 0.20604 0.0127 Uiso
C19_7 C 0.33096 0.02728 0.12049 0.0127 Uiso
C26_7 C 0.32856 0.06184 0.05402 0.0127 Uiso
O1_7 O 0.29373 0.00585 0.61519 0.0127 Uiso
O3_3 O 0.33395 0.01117 0.06394 0.0127 Uiso
O4_7 O 0.32574 0.02819 0.29913 0.0127 Uiso
Ni1_3 Ni 0.32163 0.00665 0.51257 0.0127 Uiso
O9_5 O 0.34471 0.03156 0.68665 0.0127 Uiso
H31_7 H 0.281818 6.59239e-05 0.515385 . .
H1_8 H 0.35663 0.16413 0.6244 0.0127 Uiso
H2_8 H 0.37757 0.18976 0.50686 0.0127 Uiso
H3_8 H 0.35354 0.18848 0.6287 0.0127 Uiso
H4_7 H 0.27950 0.09754 0.34818 0.0127 Uiso
H5_7 H 0.28253 0.10935 0.59048 0.0127 Uiso
H6_7 H 0.29188 0.12761 0.38246 0.0127 Uiso
H7_8 H 0.37691 0.1004 0.48175 0.0127 Uiso
H8_8 H 0.39114 0.13069 0.48565 0.0127 Uiso
H9_7 H 0.38028 0.11528 0.71045 0.0127 Uiso
H10_8 H 0.31343 0.12876 0.04107 0.0127 Uiso
H11_8 H 0.36909 0.14406 0.34123 0.0127 Uiso
H12_7 H 0.29869 0.08307 0.63996 0.0127 Uiso
H16_8 H 0.34367 0.06387 0.50558 0.0127 Uiso
H18_7 H 0.32517 0.09083 0.99355 0.0127 Uiso
H21_9 H 0.35535 0.20731 0.29493 0.0127 Uiso
C1_8 C 0.35923 0.17891 0.53713 0.0127 Uiso
C2_7 C 0.29063 0.11203 0.44414 0.0127 Uiso
C3_8 C 0.37698 0.11513 0.55083 0.0127 Uiso
C5_8 C 0.32253 0.14592 0.09688 0.0127 Uiso
C6_9 C 0.33412 0.15022 0.27561 0.0127 Uiso
C7_7 C 0.31407 0.09641 0.57449 0.0127 Uiso
C8_7 C 0.31324 0.11332 0.46462 0.0127 Uiso
C9_8 C 0.33346 0.131 0.38304 0.0127 Uiso
C10_8 C 0.35372 0.13067 0.40646 0.0127 Uiso
C11_8 C 0.35456 0.11388 0.5185 0.0127 Uiso
C12_8 C 0.33450 0.09669 0.60516 0.0127 Uiso
C17_7 C 0.33867 0.04613 0.77737 0.0127 Uiso
C18_8 C 0.33334 0.0453 0.98109 0.0127 Uiso
C23_8 C 0.33921 0.06311 0.65853 0.0127 Uiso
C24_7 C 0.33443 0.07926 0.73417 0.0127 Uiso
C25_7 C 0.32903 0.07849 0.93252 0.0127 Uiso
C33_9 C 0.33465 0.18584 0.06046 0.0127 Uiso
C34_9 C 0.34624 0.19014 0.23913 0.0127 Uiso
C35_8 C 0.34628 0.17268 0.34695 0.0127 Uiso
Ni4_3 Ni 0.35169 0.01170 0.84590 0.0127 Uiso
H32_7 H 0.374243 0.0451863 0.061326 . .
H17_8 H 0.40449 0.00933 0.53937 0.0127 Uiso
H18_8 H 0.43233 0.00816 0.32688 0.0127 Uiso
C18_9 C 0.37863 -0.00001 0.31442 0.0127 Uiso
C19_8 C 0.36299 0.00237 0.45382 0.0127 Uiso
C25_8 C 0.41613 0.00430 0.26585 0.0127 Uiso
C26_8 C 0.39995 0.00477 0.38735 0.0127 Uiso
O1_8 O 0.37879 0.03960 0.94852 0.0127 Uiso
O4_8 O 0.36912 0.00759 0.63246 0.0127 Uiso
H31_8 H 0.384915 0.0515157 0.848718 . .
H4_8 H 0.48471 0.05383 0.68151 0.0127 Uiso
H5_8 H 0.49349 0.05080 0.92381 0.0127 Uiso
H6_8 H 0.50240 0.04145 0.71579 0.0127 Uiso
H10_9 H 0.48200 0.01990 0.37440 0.0127 Uiso
H12_8 H 0.45105 0.03464 0.97329 0.0127 Uiso
H15_9 H 0.61341 0.00767 0.15719 0.0127 Uiso
H20_9 H 0.55905 0.03365 0.33087 0.0127 Uiso
H23_9 H 0.59463 0.05578 0.18922 0.0127 Uiso
H24_9 H 0.61052 0.04136 0.18679 0.0127 Uiso
H28_9 H 0.49905 0.01818 0.04075 0.0127 Uiso
H29_9 H 0.52182 0.04216 0.16297 0.0127 Uiso
H30_9 H 0.52648 0.02122 0.04511 0.0127 Uiso
C2_8 C 0.4881 0.04270 0.77747 0.0127 Uiso
C4_9 C 0.50756 0.01084 0.32244 0.0127 Uiso
C5_9 C 0.49006 0.01080 0.43021 0.0127 Uiso
C7_8 C 0.44901 0.01926 0.90782 0.0127 Uiso
C8_8 C 0.46675 0.02009 0.79795 0.0127 Uiso
C16_9 C 0.60972 0.00360 0.00396 0.0127 Uiso
C28_9 C 0.57464 0.01928 0.15076 0.0127 Uiso
C29_9 C 0.55705 0.01835 0.2640 0.0127 Uiso
C36_9 C 0.59588 0.04171 0.12031 0.0127 Uiso
C38_9 C 0.51430 0.02382 0.13241 0.0127 Uiso
O10_3 O 0.30177 0.97982 0.35332 0.0127 Uiso
O11_3 O 0.34389 0.99938 0.39727 0.0127 Uiso
O12_3 O 0.32216 0.98945 0.73061 0.0127 Uiso
Ni5_3 Ni 0.32668 0.98165 0.17924 0.0127 Uiso
H32_8 H 0.288147 0.995723 0.727993 . .
O9_6 O 0.35352 0.98862 0.01998 0.0127 Uiso
H9_8 H 0.401667 0.95305 0.04378 0.0127 Uiso
C17_8 C 0.37413 0.99466 0.11070 0.0127 Uiso
C18_10 C 0.37863 0.99999 0.31442 0.0127 Uiso
C24_8 C 0.41150 0.99890 0.06750 0.0127 Uiso
O1_9 O 0.32748 0.95455 0.28186 0.0127 Uiso
H31_9 H 0.333267 0.948418 0.182051 . .
H32_9 H 0.33761 0.95909 0.394659 . .
H1_9 H 0.16920 0.8592 0.2911 0.0127 Uiso
H2_9 H 0.14357 0.85448 0.17353 0.0127 Uiso
H3_9 H 0.14485 0.83173 0.2954 0.0127 Uiso
H4_9 H 0.23579 0.84863 0.01485 0.0127 Uiso
H5_9 H 0.22398 0.83985 0.25715 0.0127 Uiso
H6_9 H 0.20572 0.83094 0.04913 0.0127 Uiso
H7_9 H 0.2329 0.94318 0.14842 0.0127 Uiso
H8_9 H 0.20264 0.92712 0.15232 0.0127 Uiso
H9_9 H 0.21805 0.931667 0.37712 0.0127 Uiso
H11_9 H 0.18927 0.89170 0.00790 0.0127 Uiso
H12_9 H 0.25026 0.88229 0.30663 0.0127 Uiso
H16_9 H 0.26946 0.9465 0.17225 0.0127 Uiso
H17_9 H 0.27151 0.92885 0.87271 0.0127 Uiso
H18_9 H 0.24250 0.90101 0.66022 0.0127 Uiso
C1_9 C 0.15442 0.84699 0.20380 0.0127 Uiso
C2_9 C 0.22130 0.8453 0.11081 0.0127 Uiso
C3_9 C 0.21820 0.92852 0.21750 0.0127 Uiso
C7_9 C 0.23692 0.88433 0.24116 0.0127 Uiso
C8_9 C 0.22001 0.86659 0.13129 0.0127 Uiso
C9_9 C 0.202333 0.86913 0.04971 0.0127 Uiso
C10_9 C 0.20266 0.88972 0.07313 0.0127 Uiso
C11_9 C 0.21945 0.90735 0.1852 0.0127 Uiso
C12_9 C 0.23664 0.90448 0.27183 0.0127 Uiso
C17_9 C 0.28720 0.95921 0.44404 0.0127 Uiso
C18_11 C 0.2880 0.95471 0.64776 0.0127 Uiso
C19_9 C 0.30605 0.97035 0.78716 0.0127 Uiso
C23_9 C 0.27022 0.9428 0.32520 0.0127 Uiso
C24_9 C 0.25407 0.92184 0.40084 0.0127 Uiso
C25_9 C 0.25484 0.91721 0.59919 0.0127 Uiso
C26_9 C 0.27149 0.93339 0.72069 0.0127 Uiso
C35_9 C 0.16065 0.8403 0.01362 0.0127 Uiso
O4_9 O 0.30514 0.96422 0.96580 0.0127 Uiso
loop_
_geom_bond_atom_site_label_1
_geom_bond_atom_site_label_2
_geom_bond_site_symmetry_1
_geom_bond_site_symmetry_2
O10 Ni5 1_555 1_555
O11 Ni5 1_555 1_555
C17 C18 1_555 1_555
O9 C17 1_555 1_555
Ni5 O9 1_555 1_555
O1 Ni5 1_555 1_555
O1 H31 1_555 1_555
O1 H32_2 1_555 1_555
H1 C1 1_555 1_555
H2 C1 1_555 1_555
H3 C1 1_555 1_555
H4 C2 1_555 1_555
H5 C2 1_555 1_555
H6 C2 1_555 1_555
H7 C3 1_555 1_555
H8 C3 1_555 1_555
H9_2 C3 1_555 1_555
H11 C10 1_555 1_555
H12 C7 1_555 1_555
H16 C23 1_555 1_555
H17 C26 1_555 1_555
H18 C25 1_555 1_555
C1 C35 1_555 1_555
C2 C8 1_555 1_555
C3 C11 1_555 1_555
C7 C8 1_555 1_555
C8 C9 1_555 1_555
C9 C10 1_555 1_555
C10 C11 1_555 1_555
C11 C12 1_555 1_555
C12 C7 1_555 1_555
C17_2 C18_2 1_555 1_555
C18_2 C19 1_555 1_555
C19 O12 1_555 1_555
C23 C17_2 1_555 1_555
C24_2 C12 1_555 1_555
C25 C24_2 1_555 1_555
C26 C18_2 1_555 1_555
O10 C17_2 1_555 1_555
O4 C19 1_555 1_555
C23 C24_2 1_555 1_555
C25 C26 1_555 1_555
H17_2 C26_2 1_555 1_555
C19_2 O3 1_555 1_555
O1_2 Ni1 1_555 1_555
O4_2 C19_2 1_555 1_555
Ni1 O4_2 1_555 1_555
O9_2 Ni1 1_555 1_555
O1_2 H31_2 1_555 1_555
H1_2 C1_2 1_555 1_555
H2_2 C1_2 1_555 1_555
H3_2 C1_2 1_555 1_555
H4_2 C2_2 1_555 1_555
H5_2 C2_2 1_555 1_555
H6_2 C2_2 1_555 1_555
H7_2 C3_2 1_555 1_555
H8_2 C3_2 1_555 1_555
H9_3 C3_2 1_555 1_555
H10 C5 1_555 1_555
H11_2 C10_2 1_555 1_555
H12_2 C7_2 1_555 1_555
H16_2 C23_2 1_555 1_555
H18_2 C25_2 1_555 1_555
H21 C34 1_555 1_555
C1_2 C35_2 1_555 1_555
C2_2 C8_2 1_555 1_555
C3_2 C11_2 1_555 1_555
C5 C6 1_555 1_555
C6 C9_2 1_555 1_555
C7_2 C8_2 1_555 1_555
C8_2 C9_2 1_555 1_555
C9_2 C10_2 1_555 1_555
C10_2 C11_2 1_555 1_555
C11_2 C12_2 1_555 1_555
C12_2 C7_2 1_555 1_555
C17_3 C18_3 1_555 1_555
C23_2 C17_3 1_555 1_555
C24_3 C12_2 1_555 1_555
C25_2 C24_3 1_555 1_555
C34 C33 1_555 1_555
C35_2 C6 1_555 1_555
O9_2 C17_3 1_555 1_555
Ni4 O9_2 1_555 1_555
C23_2 C24_3 1_555 1_555
C34 C35_2 1_555 1_555
H17_3 C26_3 1_555 1_555
H18_3 C25_3 1_555 1_555
C18_4 C19_3 1_555 1_555
C26_3 C18_4 1_555 1_555
O1_3 Ni4 1_555 1_555
O4_3 C19_3 1_555 1_555
Ni4 O4_3 1_555 1_555
C25_3 C26_3 1_555 1_555
O1_3 H31_3 1_555 1_555
H4_3 C2_3 1_555 1_555
H5_3 C2_3 1_555 1_555
H6_3 C2_3 1_555 1_555
H10_2 C5_2 1_555 1_555
H12_3 C7_3 1_555 1_555
H15 C16 1_555 1_555
H20 C29 1_555 1_555
H23 C36 1_555 1_555
H24 C36 1_555 1_555
H28 C38 1_555 1_555
H29 C38 1_555 1_555
H30 C38 1_555 1_555
C2_3 C8_3 1_555 1_555
C4 C5_2 1_555 1_555
C7_3 C8_3 1_555 1_555
C29 C28 1_555 1_555
C36 C28 1_555 1_555
C38 C4 1_555 1_555
H13 C14 1_555 1_555
H14 C13 1_555 1_555
H15_2 C16_2 1_555 1_555
H19 C32 1_555 1_555
H20_2 C29_2 1_555 1_555
H22 C36_2 1_555 1_555
H23_2 C36_2 1_555 1_555
H24_2 C36_2 1_555 1_555
H25 C37 1_555 1_555
H26 C37 1_555 1_555
H27 C37 1_555 1_555
H28_2 C38_2 1_555 1_555
H29_2 C38_2 1_555 1_555
H30_2 C38_2 1_555 1_555
C13 C14 1_555 1_555
C14 C15 1_555 1_555
C15 C16_2 1_555 1_555
C16_2 C22 1_555 1_555
C20 C21 1_555 1_555
C21 C13 1_555 1_555
C22 C21 1_555 1_555
C27 C15 1_555 1_555
C28_2 C27 1_555 1_555
C29_2 C28_2 1_555 1_555
C30 C29_2 1_555 1_555
C31 C30 1_555 1_555
C32 C27 1_555 1_555
C36_2 C28_2 1_555 1_555
C37 C31 1_555 1_555
C38_2 C4_2 1_555 1_555
O5 C20 1_555 1_555
O6 C20 1_555 1_555
O7 C22 1_555 1_555
Ni6 O7 1_555 1_555
C31 C32 1_555 1_555
O8 Ni6 1_555 1_555
O16 Ni6 1_555 1_555
O8 H33 1_555 1_555
O8 H34 1_555 1_555
O16 C22_2 1_555 1_555
H1_3 C1_3 1_555 1_555
H2_3 C1_3 1_555 1_555
H3_3 C1_3 1_555 1_555
H7_3 C3_3 1_555 1_555
H8_3 C3_3 1_555 1_555
H11_3 C10_3 1_555 1_555
H16_3 C23_3 1_555 1_555
H19_2 C32_2 1_555 1_555
H21_2 C34_2 1_555 1_555
H25_2 C37_2 1_555 1_555
H26_2 C37_2 1_555 1_555
H27_2 C37_2 1_555 1_555
C1_3 C35_3 1_555 1_555
C3_3 C11_3 1_555 1_555
C6_2 C9_3 1_555 1_555
C9_3 C10_3 1_555 1_555
C10_3 C11_3 1_555 1_555
C11_3 C12_3 1_555 1_555
C31_2 C30_2 1_555 1_555
C32_2 C27_2 1_555 1_555
C34_2 C33_2 1_555 1_555
C35_3 C6_2 1_555 1_555
C37_2 C31_2 1_555 1_555
C30_2 C33_2 1_555 1_555
C31_2 C32_2 1_555 1_555
C34_2 C35_3 1_555 1_555
H13_2 C14_2 1_555 1_555
H14_2 C13_2 1_555 1_555
C13_2 C14_2 1_555 1_555
C14_2 C15_2 1_555 1_555
C20_2 C21_2 1_555 1_555
C21_2 C13_2 1_555 1_555
O5_2 C20_2 1_555 1_555
O13 C20_2 1_555 1_555
O8_2 Ni7 1_555 1_555
Ni7 O5_2 1_555 1_555
O16_2 Ni7 1_555 1_555
Ni8 O13 1_555 1_555
O16_2 Ni8 1_555 1_555
O8_2 H33_2 1_555 1_555
H10_3 C5_3 1_555 1_555
H13_3 C14_3 1_555 1_555
H15_3 C16_3 1_555 1_555
H19_3 C32_3 1_555 1_555
H20_3 C29_3 1_555 1_555
H21_3 C34_3 1_555 1_555
H22_3 C36_3 1_555 1_555
H23_3 C36_3 1_555 1_555
H24_3 C36_3 1_555 1_555
H25_3 C37_3 1_555 1_555
H26_3 C37_3 1_555 1_555
H27_3 C37_3 1_555 1_555
H28_3 C38_3 1_555 1_555
H29_3 C38_3 1_555 1_555
H30_3 C38_3 1_555 1_555
C4_3 C5_3 1_555 1_555
C5_3 C6_3 1_555 1_555
C14_3 C15_3 1_555 1_555
C15_3 C16_3 1_555 1_555
C16_3 C22_3 1_555 1_555
C22_3 C21_3 1_555 1_555
C27_3 C15_3 1_555 1_555
C28_3 C27_3 1_555 1_555
C29_3 C28_3 1_555 1_555
C30_3 C29_3 1_555 1_555
C31_3 C30_3 1_555 1_555
C32_3 C27_3 1_555 1_555
C33_3 C4_3 1_555 1_555
C34_3 C33_3 1_555 1_555
C36_3 C28_3 1_555 1_555
C37_3 C31_3 1_555 1_555
C38_3 C4_3 1_555 1_555
O16_2 C22_3 1_555 1_555
C30_3 C33_3 1_555 1_555
C31_3 C32_3 1_555 1_555
H14_3 C13_3 1_555 1_555
O5_3 C20_3 1_555 1_555
O14 C20_3 1_555 1_555
O8_3 Ni8 1_555 1_555
Ni8 O5_3 1_555 1_555
O8_3 H33_3 1_555 1_555
H1_4 C1_4 1_555 1_555
H2_4 C1_4 1_555 1_555
H3_4 C1_4 1_555 1_555
H7_4 C3_4 1_555 1_555
H8_4 C3_4 1_555 1_555
H11_4 C10_4 1_555 1_555
H16_4 C23_4 1_555 1_555
H19_4 C32_4 1_555 1_555
H21_4 C34_4 1_555 1_555
H25_4 C37_4 1_555 1_555
H26_4 C37_4 1_555 1_555
H27_4 C37_4 1_555 1_555
C1_4 C35_4 1_555 1_555
C3_4 C11_4 1_555 1_555
C6_4 C9_4 1_555 1_555
C9_4 C10_4 1_555 1_555
C10_4 C11_4 1_555 1_555
C11_4 C12_4 1_555 1_555
C31_4 C30_4 1_555 1_555
C32_4 C27_4 1_555 1_555
C34_4 C33_4 1_555 1_555
C35_4 C6_4 1_555 1_555
C37_4 C31_4 1_555 1_555
C30_4 C33_4 1_555 1_555
C31_4 C32_4 1_555 1_555
C34_4 C35_4 1_555 1_555
H13_4 C14_4 1_555 1_555
H14_4 C13_4 1_555 1_555
C13_4 C14_4 1_555 1_555
C14_4 C15_4 1_555 1_555
C20_4 C21_4 1_555 1_555
C21_4 C13_4 1_555 1_555
O5_4 C20_4 1_555 1_555
O13_2 C20_4 1_555 1_555
O8_4 Ni7_2 1_555 1_555
Ni7_2 O5_4 1_555 1_555
O16_3 Ni7_2 1_555 1_555
Ni8_2 O13_2 1_555 1_555
O16_3 Ni8_2 1_555 1_555
O8_4 H33_4 1_555 1_555
H10_4 C5_4 1_555 1_555
H13_5 C14_5 1_555 1_555
H15_4 C16_4 1_555 1_555
H19_5 C32_5 1_555 1_555
H20_4 C29_4 1_555 1_555
H21_5 C34_5 1_555 1_555
H22_4 C36_4 1_555 1_555
H23_4 C36_4 1_555 1_555
H24_4 C36_4 1_555 1_555
H25_5 C37_5 1_555 1_555
H26_5 C37_5 1_555 1_555
H27_5 C37_5 1_555 1_555
H28_4 C38_4 1_555 1_555
H29_4 C38_4 1_555 1_555
H30_4 C38_4 1_555 1_555
C4_4 C5_4 1_555 1_555
C5_4 C6_5 1_555 1_555
C14_5 C15_5 1_555 1_555
C15_5 C16_4 1_555 1_555
C16_4 C22_4 1_555 1_555
C22_4 C21_5 1_555 1_555
C27_5 C15_5 1_555 1_555
C28_4 C27_5 1_555 1_555
C29_4 C28_4 1_555 1_555
C30_5 C29_4 1_555 1_555
C31_5 C30_5 1_555 1_555
C32_5 C27_5 1_555 1_555
C33_5 C4_4 1_555 1_555
C34_5 C33_5 1_555 1_555
C36_4 C28_4 1_555 1_555
C37_5 C31_5 1_555 1_555
C38_4 C4_4 1_555 1_555
O16_3 C22_4 1_555 1_555
C30_5 C33_5 1_555 1_555
C31_5 C32_5 1_555 1_555
H14_5 C13_5 1_555 1_555
O5_5 C20_5 1_555 1_555
O14_2 C20_5 1_555 1_555
O8_5 Ni8_2 1_555 1_555
Ni8_2 O5_5 1_555 1_555
O8_5 H33_5 1_555 1_555
H17_4 C26_4 1_555 1_555
C19_4 O3_2 1_555 1_555
O1_4 Ni1_2 1_555 1_555
O4_4 C19_4 1_555 1_555
Ni1_2 O4_4 1_555 1_555
O9_3 Ni1_2 1_555 1_555
O10_2 Ni1_2 1_555 1_555
O11_2 Ni1_2 1_555 1_555
O12_2 Ni1_2 1_555 1_555
Ni5_2 O3_2 1_555 1_555
O10_2 Ni5_2 1_555 1_555
O11_2 Ni5_2 1_555 1_555
O1_4 H31_4 1_555 1_555
O1_4 H32_4 1_555 1_555
H1_5 C1_5 1_555 1_555
H2_5 C1_5 1_555 1_555
H3_5 C1_5 1_555 1_555
H4_4 C2_4 1_555 1_555
H5_4 C2_4 1_555 1_555
H6_4 C2_4 1_555 1_555
H7_5 C3_5 1_555 1_555
H8_5 C3_5 1_555 1_555
H9_4 C3_5 1_555 1_555
H10_5 C5_5 1_555 1_555
H11_5 C10_5 1_555 1_555
H12_4 C7_4 1_555 1_555
H16_5 C23_5 1_555 1_555
H18_4 C25_4 1_555 1_555
H21_6 C34_6 1_555 1_555
C1_5 C35_5 1_555 1_555
C2_4 C8_4 1_555 1_555
C3_5 C11_5 1_555 1_555
C5_5 C6_6 1_555 1_555
C6_6 C9_5 1_555 1_555
C7_4 C8_4 1_555 1_555
C8_4 C9_5 1_555 1_555
C9_5 C10_5 1_555 1_555
C10_5 C11_5 1_555 1_555
C11_5 C12_5 1_555 1_555
C12_5 C7_4 1_555 1_555
C17_4 C18_5 1_555 1_555
C23_5 C17_4 1_555 1_555
C24_4 C12_5 1_555 1_555
C25_4 C24_4 1_555 1_555
C34_6 C33_6 1_555 1_555
C35_5 C6_6 1_555 1_555
O9_3 C17_4 1_555 1_555
Ni4_2 O9_3 1_555 1_555
C23_5 C24_4 1_555 1_555
C34_6 C35_5 1_555 1_555
H13_6 C14_6 1_555 1_555
H14_6 C13_6 1_555 1_555
H15_5 C16_5 1_555 1_555
H19_6 C32_6 1_555 1_555
H20_5 C29_5 1_555 1_555
H22_5 C36_5 1_555 1_555
H23_5 C36_5 1_555 1_555
H24_5 C36_5 1_555 1_555
H25_6 C37_6 1_555 1_555
H26_6 C37_6 1_555 1_555
H27_6 C37_6 1_555 1_555
H28_5 C38_5 1_555 1_555
H29_5 C38_5 1_555 1_555
H30_5 C38_5 1_555 1_555
C13_6 C14_6 1_555 1_555
C14_6 C15_6 1_555 1_555
C15_6 C16_5 1_555 1_555
C16_5 C22_5 1_555 1_555
C20_6 C21_6 1_555 1_555
C21_6 C13_6 1_555 1_555
C22_5 C21_6 1_555 1_555
C27_6 C15_6 1_555 1_555
C28_5 C27_6 1_555 1_555
C29_5 C28_5 1_555 1_555
C30_6 C29_5 1_555 1_555
C31_6 C30_6 1_555 1_555
C32_6 C27_6 1_555 1_555
C36_5 C28_5 1_555 1_555
C37_6 C31_6 1_555 1_555
C38_5 C4_5 1_555 1_555
O5_6 C20_6 1_555 1_555
O6_2 C20_6 1_555 1_555
O7_2 C22_5 1_555 1_555
Ni6_2 O7_2 1_555 1_555
Ni7_3 O6_2 1_555 1_555
Ni8_3 O6_2 1_555 1_555
C31_6 C32_6 1_555 1_555
O7_2 Ni8_3 1_555 1_555
O8_6 Ni6_2 1_555 1_555
O13_3 Ni6_2 1_555 1_555
O14_3 Ni6_2 1_555 1_555
O16_4 Ni6_2 1_555 1_555
O8_6 H33_6 1_555 1_555
O8_6 H34_5 1_555 1_555
H17_5 C26_5 1_555 1_555
H18_5 C25_5 1_555 1_555
C17_5 C18_6 1_555 1_555
C18_6 C19_5 1_555 1_555
C19_5 O11_2 1_555 1_555
C25_5 C24_5 1_555 1_555
C26_5 C18_6 1_555 1_555
O1_5 Ni4_2 1_555 1_555
O9_4 C17_5 1_555 1_555
O4_5 C19_5 1_555 1_555
Ni4_2 O4_5 1_555 1_555
O12_2 Ni4_2 1_555 1_555
Ni5_2 O9_4 1_555 1_555
C25_5 C26_5 1_555 1_555
O1_5 H31_5 1_555 1_555
H1_6 C1_6 1_555 1_555
H2_6 C1_6 1_555 1_555
H3_6 C1_6 1_555 1_555
H4_5 C2_5 1_555 1_555
H5_5 C2_5 1_555 1_555
H6_5 C2_5 1_555 1_555
H7_6 C3_6 1_555 1_555
H8_6 C3_6 1_555 1_555
H10_6 C5_6 1_555 1_555
H11_6 C10_6 1_555 1_555
H12_5 C7_5 1_555 1_555
H15_6 C16_6 1_555 1_555
H16_6 C23_6 1_555 1_555
H19_7 C32_7 1_555 1_555
H20_6 C29_6 1_555 1_555
H21_7 C34_7 1_555 1_555
H23_6 C36_6 1_555 1_555
H24_6 C36_6 1_555 1_555
H25_7 C37_7 1_555 1_555
H26_7 C37_7 1_555 1_555
H27_7 C37_7 1_555 1_555
H28_6 C38_6 1_555 1_555
H29_6 C38_6 1_555 1_555
H30_6 C38_6 1_555 1_555
C1_6 C35_6 1_555 1_555
C2_5 C8_5 1_555 1_555
C3_6 C11_6 1_555 1_555
C4_6 C5_6 1_555 1_555
C5_6 C6_7 1_555 1_555
C6_7 C9_6 1_555 1_555
C7_5 C8_5 1_555 1_555
C8_5 C9_6 1_555 1_555
C9_6 C10_6 1_555 1_555
C10_6 C11_6 1_555 1_555
C11_6 C12_6 1_555 1_555
C12_6 C7_5 1_555 1_555
C28_6 C27_7 1_555 1_555
C29_6 C28_6 1_555 1_555
C30_7 C29_6 1_555 1_555
C31_7 C30_7 1_555 1_555
C32_7 C27_7 1_555 1_555
C33_7 C4_6 1_555 1_555
C34_7 C33_7 1_555 1_555
C35_6 C6_7 1_555 1_555
C36_6 C28_6 1_555 1_555
C37_7 C31_7 1_555 1_555
C38_6 C4_6 1_555 1_555
C30_7 C33_7 1_555 1_555
C31_7 C32_7 1_555 1_555
C34_7 C35_6 1_555 1_555
H13_7 C14_7 1_555 1_555
H14_7 C13_7 1_555 1_555
C13_7 C14_7 1_555 1_555
C14_7 C15_7 1_555 1_555
C20_7 C21_7 1_555 1_555
C21_7 C13_7 1_555 1_555
C22_6 C21_7 1_555 1_555
O5_7 C20_7 1_555 1_555
O13_3 C20_7 1_555 1_555
O16_4 C22_6 1_555 1_555
O8_7 Ni7_3 1_555 1_555
Ni7_3 O5_7 1_555 1_555
O16_5 Ni7_3 1_555 1_555
Ni8_3 O13_3 1_555 1_555
O16_5 Ni8_3 1_555 1_555
O8_7 H33_7 1_555 1_555
H10_7 C5_7 1_555 1_555
H13_8 C14_8 1_555 1_555
H15_7 C16_7 1_555 1_555
H19_8 C32_8 1_555 1_555
H20_7 C29_7 1_555 1_555
H21_8 C34_8 1_555 1_555
H22_7 C36_7 1_555 1_555
H23_7 C36_7 1_555 1_555
H24_7 C36_7 1_555 1_555
H25_8 C37_8 1_555 1_555
H26_8 C37_8 1_555 1_555
H27_8 C37_8 1_555 1_555
H28_7 C38_7 1_555 1_555
H29_7 C38_7 1_555 1_555
H30_7 C38_7 1_555 1_555
C4_7 C5_7 1_555 1_555
C5_7 C6_8 1_555 1_555
C14_8 C15_8 1_555 1_555
C15_8 C16_7 1_555 1_555
C16_7 C22_7 1_555 1_555
C22_7 C21_8 1_555 1_555
C27_8 C15_8 1_555 1_555
C28_7 C27_8 1_555 1_555
C29_7 C28_7 1_555 1_555
C30_8 C29_7 1_555 1_555
C31_8 C30_8 1_555 1_555
C32_8 C27_8 1_555 1_555
C33_8 C4_7 1_555 1_555
C34_8 C33_8 1_555 1_555
C36_7 C28_7 1_555 1_555
C37_8 C31_8 1_555 1_555
C38_7 C4_7 1_555 1_555
O16_5 C22_7 1_555 1_555
C30_8 C33_8 1_555 1_555
C31_8 C32_8 1_555 1_555
H14_8 C13_8 1_555 1_555
O5_8 C20_8 1_555 1_555
O14_3 C20_8 1_555 1_555
O8_8 Ni8_3 1_555 1_555
Ni8_3 O5_8 1_555 1_555
O8_8 H33_8 1_555 1_555
O8_8 H34_7 1_555 1_555
O1_6 Ni5_2 1_555 1_555
O1_6 H31_6 1_555 1_555
O1_6 H32_6 1_555 1_555
H1_7 C1_7 1_555 1_555
H2_7 C1_7 1_555 1_555
H3_7 C1_7 1_555 1_555
H4_6 C2_6 1_555 1_555
H5_6 C2_6 1_555 1_555
H6_6 C2_6 1_555 1_555
H7_7 C3_7 1_555 1_555
H8_7 C3_7 1_555 1_555
H9_6 C3_7 1_555 1_555
H11_7 C10_7 1_555 1_555
H12_6 C7_6 1_555 1_555
H16_7 C23_7 1_555 1_555
H17_6 C26_6 1_555 1_555
H18_6 C25_6 1_555 1_555
C1_7 C35_7 1_555 1_555
C2_6 C8_6 1_555 1_555
C3_7 C11_7 1_555 1_555
C7_6 C8_6 1_555 1_555
C8_6 C9_7 1_555 1_555
C9_7 C10_7 1_555 1_555
C10_7 C11_7 1_555 1_555
C11_7 C12_7 1_555 1_555
C12_7 C7_6 1_555 1_555
C17_6 C18_7 1_555 1_555
C18_7 C19_6 1_555 1_555
C19_6 O12_2 1_555 1_555
C23_7 C17_6 1_555 1_555
C24_6 C12_7 1_555 1_555
C25_6 C24_6 1_555 1_555
C26_6 C18_7 1_555 1_555
O10_2 C17_6 1_555 1_555
O4_6 C19_6 1_555 1_555
C23_7 C24_6 1_555 1_555
C25_6 C26_6 1_555 1_555
H13_9 C14_9 1_555 1_555
H14_9 C13_9 1_555 1_555
H15_8 C16_8 1_555 1_555
H19_9 C32_9 1_555 1_555
H20_8 C29_8 1_555 1_555
H22_8 C36_8 1_555 1_555
H23_8 C36_8 1_555 1_555
H24_8 C36_8 1_555 1_555
H25_9 C37_9 1_555 1_555
H26_9 C37_9 1_555 1_555
H27_9 C37_9 1_555 1_555
H28_8 C38_8 1_555 1_555
H29_8 C38_8 1_555 1_555
H30_8 C38_8 1_555 1_555
C13_9 C14_9 1_555 1_555
C14_9 C15_9 1_555 1_555
C15_9 C16_8 1_555 1_555
C16_8 C22_8 1_555 1_555
C20_9 C21_9 1_555 1_555
C21_9 C13_9 1_555 1_555
C22_8 C21_9 1_555 1_555
C27_9 C15_9 1_555 1_555
C28_8 C27_9 1_555 1_555
C29_8 C28_8 1_555 1_555
C30_9 C29_8 1_555 1_555
C31_9 C30_9 1_555 1_555
C32_9 C27_9 1_555 1_555
C36_8 C28_8 1_555 1_555
C37_9 C31_9 1_555 1_555
C38_8 C4_8 1_555 1_555
O5_9 C20_9 1_555 1_555
O6_3 C20_9 1_555 1_555
O7_3 C22_8 1_555 1_555
Ni6_3 O7_3 1_555 1_555
C31_9 C32_9 1_555 1_555
O8_9 Ni6_3 1_555 1_555
O16_6 Ni6_3 1_555 1_555
O8_9 H33_9 1_555 1_555
O8_9 H34_8 1_555 1_555
O16_6 C22_9 1_555 1_555
H17_7 C26_7 1_555 1_555
C19_7 O3_3 1_555 1_555
O1_7 Ni1_3 1_555 1_555
O4_7 C19_7 1_555 1_555
Ni1_3 O4_7 1_555 1_555
O9_5 Ni1_3 1_555 1_555
O1_7 H31_7 1_555 1_555
H1_8 C1_8 1_555 1_555
H2_8 C1_8 1_555 1_555
H3_8 C1_8 1_555 1_555
H4_7 C2_7 1_555 1_555
H5_7 C2_7 1_555 1_555
H6_7 C2_7 1_555 1_555
H7_8 C3_8 1_555 1_555
H8_8 C3_8 1_555 1_555
H9_7 C3_8 1_555 1_555
H10_8 C5_8 1_555 1_555
H11_8 C10_8 1_555 1_555
H12_7 C7_7 1_555 1_555
H16_8 C23_8 1_555 1_555
H18_7 C25_7 1_555 1_555
H21_9 C34_9 1_555 1_555
C1_8 C35_8 1_555 1_555
C2_7 C8_7 1_555 1_555
C3_8 C11_8 1_555 1_555
C5_8 C6_9 1_555 1_555
C6_9 C9_8 1_555 1_555
C7_7 C8_7 1_555 1_555
C8_7 C9_8 1_555 1_555
C9_8 C10_8 1_555 1_555
C10_8 C11_8 1_555 1_555
C11_8 C12_8 1_555 1_555
C12_8 C7_7 1_555 1_555
C17_7 C18_8 1_555 1_555
C23_8 C17_7 1_555 1_555
C24_7 C12_8 1_555 1_555
C25_7 C24_7 1_555 1_555
C34_9 C33_9 1_555 1_555
C35_8 C6_9 1_555 1_555
O9_5 C17_7 1_555 1_555
Ni4_3 O9_5 1_555 1_555
C23_8 C24_7 1_555 1_555
C34_9 C35_8 1_555 1_555
H17_8 C26_8 1_555 1_555
H18_8 C25_8 1_555 1_555
C18_9 C19_8 1_555 1_555
C26_8 C18_9 1_555 1_555
O1_8 Ni4_3 1_555 1_555
O4_8 C19_8 1_555 1_555
Ni4_3 O4_8 1_555 1_555
C25_8 C26_8 1_555 1_555
O1_8 H31_8 1_555 1_555
H4_8 C2_8 1_555 1_555
H5_8 C2_8 1_555 1_555
H6_8 C2_8 1_555 1_555
H10_9 C5_9 1_555 1_555
H12_8 C7_8 1_555 1_555
H15_9 C16_9 1_555 1_555
H20_9 C29_9 1_555 1_555
H23_9 C36_9 1_555 1_555
H24_9 C36_9 1_555 1_555
H28_9 C38_9 1_555 1_555
H29_9 C38_9 1_555 1_555
H30_9 C38_9 1_555 1_555
C2_8 C8_8 1_555 1_555
C4_9 C5_9 1_555 1_555
C7_8 C8_8 1_555 1_555
C29_9 C28_9 1_555 1_555
C36_9 C28_9 1_555 1_555
C38_9 C4_9 1_555 1_555
O10_3 Ni5_3 1_555 1_555
O11_3 Ni5_3 1_555 1_555
C17_8 C18_10 1_555 1_555
O9_6 C17_8 1_555 1_555
Ni5_3 O9_6 1_555 1_555
O1_9 Ni5_3 1_555 1_555
O1_9 H31_9 1_555 1_555
O1_9 H32_9 1_555 1_555
H1_9 C1_9 1_555 1_555
H2_9 C1_9 1_555 1_555
H3_9 C1_9 1_555 1_555
H4_9 C2_9 1_555 1_555
H5_9 C2_9 1_555 1_555
H6_9 C2_9 1_555 1_555
H7_9 C3_9 1_555 1_555
H8_9 C3_9 1_555 1_555
H9_9 C3_9 1_555 1_555
H11_9 C10_9 1_555 1_555
H12_9 C7_9 1_555 1_555
H16_9 C23_9 1_555 1_555
H17_9 C26_9 1_555 1_555
H18_9 C25_9 1_555 1_555
C1_9 C35_9 1_555 1_555
C2_9 C8_9 1_555 1_555
C3_9 C11_9 1_555 1_555
C7_9 C8_9 1_555 1_555
C8_9 C9_9 1_555 1_555
C9_9 C10_9 1_555 1_555
C10_9 C11_9 1_555 1_555
C11_9 C12_9 1_555 1_555
C12_9 C7_9 1_555 1_555
C17_9 C18_11 1_555 1_555
C18_11 C19_9 1_555 1_555
C19_9 O12_3 1_555 1_555
C23_9 C17_9 1_555 1_555
C24_9 C12_9 1_555 1_555
C25_9 C24_9 1_555 1_555
C26_9 C18_11 1_555 1_555
O10_3 C17_9 1_555 1_555
O4_9 C19_9 1_555 1_555
C23_9 C24_9 1_555 1_555
C25_9 C26_9 1_555 1_555

#END
