
###############################################################################
#
# This file contains modified crystal structure data generated from the
# MOF subset of the Cambridge Structural Database (CSD) v543 
# hosted by the Cambridge Crystallographic Data Centre (CCDC).
#
# This work is licensed under the Creative Commons
# Attribution-NonCommercial-ShareAlike 4.0 International License.
# To view a copy of this license, visit
# http://creativecommons.org/licenses/by-nc-sa/4.0/
# or send a letter to
# Creative Commons, PO Box 1866, Mountain View, CA 94042, USA.
#
# CIF created using the CSD Python API on 29 September 2022
# The structure has been converted into the P1 space group
# The structure has a 3D framework
# The original CSD entry GINYAG is in the rhombohedral crystal system
# The framework has been calculated to contain at least 10.0% void space
# The void calculation uses a probe of radius 1.32A, grid spacing 0.4
# H atom positions have been added when not included in the experimental data
# Generated hydrogen atom positions removed from atoms on special positions
#
###############################################################################

data_GINYAG
_chemical_formula_moiety         '(C126 H126 Ni16 O68)n'
_symmetry_cell_setting           triclinic
_symmetry_space_group_name_H-M   'P 1'
_symmetry_Int_Tables_number      1
_space_group_name_Hall           'P 1'
loop_
_symmetry_equiv_pos_site_id
_symmetry_equiv_pos_as_xyz
1 x,y,z
_cell_length_a                   36.03(5)
_cell_length_b                   36.03(5)
_cell_length_c                   6.965(13)
_cell_angle_alpha                90
_cell_angle_beta                 90
_cell_angle_gamma                120
_cell_volume                     7830.33
loop_
_atom_site_label
_atom_site_type_symbol
_atom_site_fract_x
_atom_site_fract_y
_atom_site_fract_z
_atom_site_U_iso_or_equiv
_atom_site_thermal_displace_type
C8 C 0.323(2) 0.0483(17) 0.093(16) 0.0380 Uiso
C14 C 0.315(12) 0.112(7) 0.03(2) 0.0380 Uiso
H5 H 0.307(11) 0.111(8) 0.18(2) 0.0127 Uiso
O5 O 0.318(5) 0.051(2) 0.274(16) 0.0380 Uiso
O6 O 0.327(6) 0.017(3) 0.032(18) 0.0380 Uiso
Ni6 Ni 0.318(2) 0.011(3) 0.48(2) 0.0127 Uiso
O12 O 0.357(7) 0.007(6) 0.366(18) 0.0380 Uiso
C1 C 0.344(2) 0.2850(17) 0.240(16) 0.0380 Uiso
C2 C 0.343(8) 0.252(4) 0.374(17) 0.0380 Uiso
C3 C 0.336(11) 0.254(5) 0.560(17) 0.0380 Uiso
C4 C 0.336(18) 0.221(8) 0.69(2) 0.0380 Uiso
C5 C 0.34(2) 0.187(11) 0.60(3) 0.0380 Uiso
C6 C 0.350(19) 0.188(11) 0.43(3) 0.0380 Uiso
C7 C 0.352(12) 0.221(7) 0.30(2) 0.0380 Uiso
H1 H 0.33(2) 0.224(9) 0.835(19) 0.0127 Uiso
H2 H 0.360(11) 0.222(8) 0.15(2) 0.0127 Uiso
H3 H 0.36(2) 0.164(13) 0.37(3) 0.0127 Uiso
O1 O 0.349(5) 0.282(2) 0.059(16) 0.0380 Uiso
O2 O 0.340(6) 0.316(3) 0.301(18) 0.0380 Uiso
O3 O 0.329(9) 0.287(4) 0.620(18) 0.0380 Uiso
C9 C 0.324(8) 0.081(4) 0.959(17) 0.0380 Uiso
C10 C 0.331(11) 0.079(5) 0.773(17) 0.0380 Uiso
C11 C 0.331(18) 0.112(8) 0.64(2) 0.0380 Uiso
C12 C 0.33(2) 0.146(11) 0.73(3) 0.0380 Uiso
C13 C 0.317(19) 0.145(11) 0.90(3) 0.0380 Uiso
H4 H 0.34(2) 0.109(9) 0.498(19) 0.0127 Uiso
H6 H 0.31(2) 0.169(13) 0.96(3) 0.0127 Uiso
O7 O 0.338(9) 0.046(4) 0.713(18) 0.0380 Uiso
Ni3 Ni 0.349(2) 0.322(3) 0.85(2) 0.0127 Uiso
Ni4 Ni 0.345(3) 0.360(4) 0.18(2) 0.0127 Uiso
Ni7 Ni 0.306(4) 0.318(2) 0.52(2) 0.0127 Uiso
Ni8 Ni 0.360(4) 0.016(2) 0.82(2) 0.0127 Uiso
O4 O 0.40866 0.33646 0.76792 0.0633 Uiso
O10 O 0.351(3) 0.357(7) 0.634(18) 0.0380 Uiso
O11 O 0.309(7) 0.327(6) 0.968(18) 0.0380 Uiso
O15 O 0.380(4) 0.375(10) 0.953(18) 0.0380 Uiso
Ni2 Ni 0.322(3) 0.973(4) 0.15(2) 0.0127 Uiso
O8 O 0.33646 0.92780 0.23208 0.0633 Uiso
O14 O 0.287(4) 0.958(10) 0.380(18) 0.0380 Uiso
O16 O 0.375(10) 0.996(9) 0.047(18) 0.0380 Uiso
O9 O 0.282(2) 0.933(5) 0.941(16) 0.0380 Uiso
Ni4_2 Ni 0.016(5) 0.655(3) 0.18(2) 0.0127 Uiso
Ni7_2 Ni 0.011(4) 0.694(4) 0.52(2) 0.0127 Uiso
O10_2 O 0.007(8) 0.649(3) 0.634(18) 0.0380 Uiso
O11_2 O 0.017(9) 0.691(7) 0.968(18) 0.0380 Uiso
C8_2 C 0.7257(26) 0.677(2) 0.093(16) 0.0380 Uiso
C14_2 C 0.798(14) 0.685(12) 0.03(2) 0.0380 Uiso
H5_2 H 0.805(14) 0.693(11) 0.18(2) 0.0127 Uiso
O5_2 O 0.734(5) 0.682(5) 0.274(16) 0.0380 Uiso
O6_2 O 0.691(7) 0.673(6) 0.032(18) 0.0380 Uiso
Ni2_2 Ni 0.651(5) 0.678(3) 0.15(2) 0.0127 Uiso
O8_2 O 0.59134 0.66354 0.23208 0.0633 Uiso
Ni6_2 Ni 0.694(4) 0.682(2) 0.48(2) 0.0127 Uiso
O12_2 O 0.649(9) 0.643(7) 0.366(18) 0.0380 Uiso
O14_2 O 0.671(11) 0.713(4) 0.380(18) 0.0380 Uiso
O16_2 O 0.620(13) 0.625(10) 0.047(18) 0.0380 Uiso
C1_2 C 0.9410(26) 0.656(2) 0.240(16) 0.0380 Uiso
C2_2 C 0.909(9) 0.657(8) 0.374(17) 0.0380 Uiso
C3_2 C 0.918(12) 0.664(11) 0.560(17) 0.0380 Uiso
C4_2 C 0.885(20) 0.664(18) 0.69(2) 0.0380 Uiso
C5_2 C 0.847(23) 0.66(2) 0.60(3) 0.0380 Uiso
C6_2 C 0.838(22) 0.650(19) 0.43(3) 0.0380 Uiso
C7_2 C 0.869(14) 0.648(12) 0.30(2) 0.0380 Uiso
H1_2 H 0.894(22) 0.67(2) 0.835(19) 0.0127 Uiso
H2_2 H 0.862(14) 0.640(11) 0.15(2) 0.0127 Uiso
H3_2 H 0.804(24) 0.64(2) 0.37(3) 0.0127 Uiso
O1_2 O 0.933(5) 0.651(5) 0.059(16) 0.0380 Uiso
O2_2 O 0.976(7) 0.660(6) 0.301(18) 0.0380 Uiso
O3_2 O 0.958(10) 0.671(9) 0.620(18) 0.0380 Uiso
C9_2 C 0.758(9) 0.676(8) 0.959(17) 0.0380 Uiso
C10_2 C 0.749(12) 0.669(11) 0.773(17) 0.0380 Uiso
C11_2 C 0.782(20) 0.669(18) 0.64(2) 0.0380 Uiso
C12_2 C 0.820(23) 0.67(2) 0.73(3) 0.0380 Uiso
C13_2 C 0.829(22) 0.683(19) 0.90(3) 0.0380 Uiso
H4_2 H 0.773(22) 0.66(2) 0.498(19) 0.0127 Uiso
H6_2 H 0.863(24) 0.69(2) 0.96(3) 0.0127 Uiso
O7_2 O 0.709(10) 0.662(9) 0.713(18) 0.0380 Uiso
Ni3_2 Ni 0.973(4) 0.651(2) 0.85(2) 0.0127 Uiso
Ni8_2 Ni 0.655(4) 0.640(4) 0.82(2) 0.0127 Uiso
O9_2 O 0.651(5) 0.718(2) 0.941(16) 0.0380 Uiso
O4_2 O 0.92780 0.59134 0.76792 0.0633 Uiso
O15_2 O 0.996(11) 0.620(4) 0.953(18) 0.0380 Uiso
Ni2_3 Ni 0.027(4) 0.349(5) 0.15(2) 0.0127 Uiso
O8_3 O 0.07220 0.40866 0.23208 0.0633 Uiso
O14_3 O 0.042(10) 0.329(11) 0.380(18) 0.0380 Uiso
O16_3 O 0.004(9) 0.380(13) 0.047(18) 0.0380 Uiso
O9_3 O 0.067(5) 0.349(5) 0.941(16) 0.0380 Uiso
C8_3 C 0.9517(17) 0.2743(26) 0.093(16) 0.0380 Uiso
C14_3 C 0.888(7) 0.202(14) 0.03(2) 0.0380 Uiso
H5_3 H 0.889(8) 0.195(14) 0.18(2) 0.0127 Uiso
O5_3 O 0.949(2) 0.266(5) 0.274(16) 0.0380 Uiso
O6_3 O 0.983(3) 0.309(7) 0.032(18) 0.0380 Uiso
Ni6_3 Ni 0.989(3) 0.306(4) 0.48(2) 0.0127 Uiso
O12_3 O 0.993(6) 0.351(9) 0.366(18) 0.0380 Uiso
C1_3 C 0.7150(17) 0.0590(26) 0.240(16) 0.0380 Uiso
C2_3 C 0.748(4) 0.091(9) 0.374(17) 0.0380 Uiso
C3_3 C 0.746(5) 0.082(12) 0.560(17) 0.0380 Uiso
C4_3 C 0.779(8) 0.115(20) 0.69(2) 0.0380 Uiso
C5_3 C 0.813(11) 0.153(23) 0.60(3) 0.0380 Uiso
C6_3 C 0.812(11) 0.162(22) 0.43(3) 0.0380 Uiso
C7_3 C 0.779(7) 0.131(14) 0.30(2) 0.0380 Uiso
H1_3 H 0.776(9) 0.106(22) 0.835(19) 0.0127 Uiso
H2_3 H 0.778(8) 0.138(14) 0.15(2) 0.0127 Uiso
H3_3 H 0.836(13) 0.196(24) 0.37(3) 0.0127 Uiso
O1_3 O 0.718(2) 0.067(5) 0.059(16) 0.0380 Uiso
O2_3 O 0.684(3) 0.024(7) 0.301(18) 0.0380 Uiso
O3_3 O 0.713(4) 0.042(10) 0.620(18) 0.0380 Uiso
C9_3 C 0.919(4) 0.242(9) 0.959(17) 0.0380 Uiso
C10_3 C 0.921(5) 0.251(12) 0.773(17) 0.0380 Uiso
C11_3 C 0.888(8) 0.218(20) 0.64(2) 0.0380 Uiso
C12_3 C 0.854(11) 0.180(23) 0.73(3) 0.0380 Uiso
C13_3 C 0.855(11) 0.171(22) 0.90(3) 0.0380 Uiso
H4_3 H 0.891(9) 0.227(22) 0.498(19) 0.0127 Uiso
H6_3 H 0.831(13) 0.137(24) 0.96(3) 0.0127 Uiso
O7_3 O 0.954(4) 0.291(10) 0.713(18) 0.0380 Uiso
Ni3_3 Ni 0.678(3) 0.027(4) 0.85(2) 0.0127 Uiso
Ni8_3 Ni 0.984(2) 0.345(4) 0.82(2) 0.0127 Uiso
O4_3 O 0.66354 0.07220 0.76792 0.0633 Uiso
O15_3 O 0.625(10) 0.004(11) 0.953(18) 0.0380 Uiso
Ni4_3 Ni 0.640(4) 0.984(5) 0.18(2) 0.0127 Uiso
Ni7_3 Ni 0.682(2) 0.989(4) 0.52(2) 0.0127 Uiso
O10_3 O 0.643(7) 0.993(8) 0.634(18) 0.0380 Uiso
O11_3 O 0.673(6) 0.983(9) 0.968(18) 0.0380 Uiso
C4_4 C 0.003(18) 0.554(8) 0.02(2) 0.0380 Uiso
O8_4 O 0.00313 0.26113 0.56541 0.0633 Uiso
O12_4 O 0.024(7) 0.340(6) 0.699(18) 0.0380 Uiso
H9 H 0.0317273 0.27516 0.627919 . .
C1_4 C 0.011(2) 0.6183(17) 0.573(16) 0.0380 Uiso
C2_4 C 0.010(8) 0.585(4) 0.707(17) 0.0380 Uiso
C3_4 C 0.003(11) 0.587(5) 0.893(17) 0.0380 Uiso
C5_4 C 0.01(2) 0.520(11) 0.93(3) 0.0380 Uiso
C6_4 C 0.017(19) 0.521(11) 0.76(3) 0.0380 Uiso
C7_4 C 0.019(12) 0.554(7) 0.63(2) 0.0380 Uiso
H2_4 H 0.027(11) 0.555(8) 0.48(2) 0.0127 Uiso
H3_4 H 0.03(2) 0.497(13) 0.70(3) 0.0127 Uiso
O1_4 O 0.016(5) 0.615(2) 0.392(16) 0.0380 Uiso
O4_4 O 0.07533 0.66979 0.10125 0.0633 Uiso
H4_4 H 0.00(2) 0.443(9) 0.832(19) 0.0127 Uiso
O15_4 O 0.046(4) 0.709(10) 0.287(18) 0.0380 Uiso
H8 H 0.0848538 0.690385 0.992622 . .
H1_4 H 1.00(2) 0.557(9) 0.168(19) 0.0127 Uiso
C8_4 C 0.989(2) 0.3817(17) 0.427(16) 0.0380 Uiso
C9_4 C 0.990(8) 0.415(4) 0.293(17) 0.0380 Uiso
C10_4 C 0.997(11) 0.413(5) 0.107(17) 0.0380 Uiso
C12_4 C 0.99(2) 0.480(11) 0.07(3) 0.0380 Uiso
C13_4 C 0.983(19) 0.479(11) 0.24(3) 0.0380 Uiso
C14_4 C 0.981(12) 0.446(7) 0.37(2) 0.0380 Uiso
H5_4 H 0.973(11) 0.445(8) 0.52(2) 0.0127 Uiso
H6_4 H 0.97(2) 0.503(13) 0.30(3) 0.0127 Uiso
O5_4 O 0.984(5) 0.385(2) 0.608(16) 0.0380 Uiso
H10 H 0.981175 0.241162 0.657552 . .
C11_4 C 0.997(18) 0.446(8) 0.98(2) 0.0380 Uiso
H1_5 H 0.561(22) 0.00(2) 0.168(19) 0.0127 Uiso
C8_5 C 0.3923(26) 0.011(2) 0.427(16) 0.0380 Uiso
C9_5 C 0.424(9) 0.010(8) 0.293(17) 0.0380 Uiso
C10_5 C 0.415(12) 0.003(11) 0.107(17) 0.0380 Uiso
C12_5 C 0.486(23) 0.01(2) 0.07(3) 0.0380 Uiso
C13_5 C 0.495(22) 0.017(19) 0.24(3) 0.0380 Uiso
C14_5 C 0.464(14) 0.019(12) 0.37(2) 0.0380 Uiso
H5_5 H 0.471(14) 0.027(11) 0.52(2) 0.0127 Uiso
H6_5 H 0.529(24) 0.03(2) 0.30(3) 0.0127 Uiso
O5_5 O 0.400(5) 0.016(5) 0.608(16) 0.0380 Uiso
H10_2 H 0.259986 0.0188246 0.657552 . .
C11_5 C 0.448(20) 0.003(18) 0.98(2) 0.0380 Uiso
C4_5 C 0.552(20) 0.997(18) 0.02(2) 0.0380 Uiso
O8_5 O 0.25801 0.99687 0.56541 0.0633 Uiso
O12_5 O 0.316(9) 0.976(7) 0.699(18) 0.0380 Uiso
H9_2 H 0.243433 0.968273 0.627919 . .
C1_5 C 0.6077(26) 0.989(2) 0.573(16) 0.0380 Uiso
C2_5 C 0.576(9) 0.990(8) 0.707(17) 0.0380 Uiso
C3_5 C 0.585(12) 0.997(11) 0.893(17) 0.0380 Uiso
C5_5 C 0.514(23) 0.99(2) 0.93(3) 0.0380 Uiso
C6_5 C 0.505(22) 0.983(19) 0.76(3) 0.0380 Uiso
C7_5 C 0.536(14) 0.981(12) 0.63(2) 0.0380 Uiso
H2_5 H 0.529(14) 0.973(11) 0.48(2) 0.0127 Uiso
H3_5 H 0.471(24) 0.97(2) 0.70(3) 0.0127 Uiso
O1_5 O 0.600(5) 0.984(5) 0.392(16) 0.0380 Uiso
O4_5 O 0.59447 0.92467 0.10125 0.0633 Uiso
H4_5 H 0.439(22) 1.00(2) 0.832(19) 0.0127 Uiso
O15_5 O 0.662(11) 0.954(4) 0.287(18) 0.0380 Uiso
H8_2 H 0.605531 0.915146 0.992622 . .
C4_6 C 0.446(8) 0.448(20) 0.02(2) 0.0380 Uiso
H1_6 H 0.443(9) 0.439(22) 0.168(19) 0.0127 Uiso
C8_6 C 0.6183(17) 0.6077(26) 0.427(16) 0.0380 Uiso
C9_6 C 0.585(4) 0.576(9) 0.293(17) 0.0380 Uiso
C10_6 C 0.587(5) 0.585(12) 0.107(17) 0.0380 Uiso
C12_6 C 0.520(11) 0.514(23) 0.07(3) 0.0380 Uiso
C13_6 C 0.521(11) 0.505(22) 0.24(3) 0.0380 Uiso
C14_6 C 0.554(7) 0.536(14) 0.37(2) 0.0380 Uiso
H5_6 H 0.555(8) 0.529(14) 0.52(2) 0.0127 Uiso
H6_6 H 0.497(13) 0.471(24) 0.30(3) 0.0127 Uiso
O5_6 O 0.615(2) 0.600(5) 0.608(16) 0.0380 Uiso
O8_6 O 0.73887 0.74199 0.56541 0.0633 Uiso
O12_6 O 0.660(6) 0.684(9) 0.699(18) 0.0380 Uiso
C1_6 C 0.3817(17) 0.3923(26) 0.573(16) 0.0380 Uiso
C2_6 C 0.415(4) 0.424(9) 0.707(17) 0.0380 Uiso
C3_6 C 0.413(5) 0.415(12) 0.893(17) 0.0380 Uiso
C5_6 C 0.480(11) 0.486(23) 0.93(3) 0.0380 Uiso
C6_6 C 0.479(11) 0.495(22) 0.76(3) 0.0380 Uiso
C7_6 C 0.446(7) 0.464(14) 0.63(2) 0.0380 Uiso
H2_6 H 0.445(8) 0.471(14) 0.48(2) 0.0127 Uiso
H3_6 H 0.503(13) 0.529(24) 0.70(3) 0.0127 Uiso
O1_6 O 0.385(2) 0.400(5) 0.392(16) 0.0380 Uiso
O4_6 O 0.33021 0.40553 0.10125 0.0633 Uiso
C11_6 C 0.554(8) 0.552(20) 0.98(2) 0.0380 Uiso
H4_6 H 0.557(9) 0.561(22) 0.832(19) 0.0127 Uiso
O15_6 O 0.291(10) 0.338(11) 0.287(18) 0.0380 Uiso
H8_3 H 0.309615 0.394469 0.992622 . .
O4_7 O 0.74199 0.00313 0.43459 0.0633 Uiso
H8_4 H 0.75152 0.0237179 0.325955 . .
C2_7 C 0.676(8) 0.919(4) 0.041(17) 0.0380 Uiso
C3_7 C 0.669(11) 0.921(5) 0.227(17) 0.0380 Uiso
C4_7 C 0.669(18) 0.888(8) 0.36(2) 0.0380 Uiso
C5_7 C 0.67(2) 0.854(11) 0.27(3) 0.0380 Uiso
C6_7 C 0.683(19) 0.855(11) 0.10(3) 0.0380 Uiso
H1_7 H 0.66(2) 0.891(9) 0.502(19) 0.0127 Uiso
H3_7 H 0.69(2) 0.831(13) 0.04(3) 0.0127 Uiso
C8_7 C 0.656(2) 0.7150(17) 0.760(16) 0.0380 Uiso
C9_7 C 0.657(8) 0.748(4) 0.626(17) 0.0380 Uiso
C10_7 C 0.664(11) 0.746(5) 0.440(17) 0.0380 Uiso
C11_7 C 0.664(18) 0.779(8) 0.31(2) 0.0380 Uiso
C12_7 C 0.66(2) 0.813(11) 0.40(3) 0.0380 Uiso
C13_7 C 0.650(19) 0.812(11) 0.57(3) 0.0380 Uiso
C14_7 C 0.648(12) 0.779(7) 0.70(2) 0.0380 Uiso
H4_7 H 0.67(2) 0.776(9) 0.165(19) 0.0127 Uiso
H5_7 H 0.640(11) 0.778(8) 0.85(2) 0.0127 Uiso
H6_7 H 0.64(2) 0.836(13) 0.63(3) 0.0127 Uiso
O8_7 O 0.66979 0.59447 0.89875 0.0633 Uiso
C1_7 C 0.677(2) 0.9517(17) 0.907(16) 0.0380 Uiso
C7_7 C 0.685(12) 0.888(7) 0.97(2) 0.0380 Uiso
H2_7 H 0.693(11) 0.889(8) 0.82(2) 0.0127 Uiso
O1_7 O 0.682(5) 0.949(2) 0.726(16) 0.0380 Uiso
H7 H 0.741647 0.976566 0.393465 . .
C2_8 C 0.242(9) 0.324(8) 0.041(17) 0.0380 Uiso
C3_8 C 0.251(12) 0.331(11) 0.227(17) 0.0380 Uiso
C4_8 C 0.218(20) 0.331(18) 0.36(2) 0.0380 Uiso
C5_8 C 0.180(23) 0.33(2) 0.27(3) 0.0380 Uiso
C6_8 C 0.171(22) 0.317(19) 0.10(3) 0.0380 Uiso
H1_8 H 0.227(22) 0.34(2) 0.502(19) 0.0127 Uiso
H3_8 H 0.137(24) 0.31(2) 0.04(3) 0.0127 Uiso
C8_8 C 0.0590(26) 0.344(2) 0.760(16) 0.0380 Uiso
C9_8 C 0.091(9) 0.343(8) 0.626(17) 0.0380 Uiso
C10_8 C 0.082(12) 0.336(11) 0.440(17) 0.0380 Uiso
C11_8 C 0.115(20) 0.336(18) 0.31(2) 0.0380 Uiso
C12_8 C 0.153(23) 0.34(2) 0.40(3) 0.0380 Uiso
C13_8 C 0.162(22) 0.350(19) 0.57(3) 0.0380 Uiso
C14_8 C 0.131(14) 0.352(12) 0.70(2) 0.0380 Uiso
H4_8 H 0.106(22) 0.33(2) 0.165(19) 0.0127 Uiso
H5_8 H 0.138(14) 0.360(11) 0.85(2) 0.0127 Uiso
H6_8 H 0.196(24) 0.36(2) 0.63(3) 0.0127 Uiso
C1_8 C 0.2743(26) 0.323(2) 0.907(16) 0.0380 Uiso
C7_8 C 0.202(14) 0.315(12) 0.97(2) 0.0380 Uiso
H2_8 H 0.195(14) 0.307(11) 0.82(2) 0.0127 Uiso
O1_8 O 0.266(5) 0.318(5) 0.726(16) 0.0380 Uiso
O4_8 O 0.26113 0.25801 0.43459 0.0633 Uiso
O8_8 O 0.92467 0.33021 0.89875 0.0633 Uiso
O8_9 O 0.40553 0.07533 0.89875 0.0633 Uiso
C2_9 C 0.081(4) 0.758(9) 0.041(17) 0.0380 Uiso
C3_9 C 0.079(5) 0.749(12) 0.227(17) 0.0380 Uiso
C4_9 C 0.112(8) 0.782(20) 0.36(2) 0.0380 Uiso
C5_9 C 0.146(11) 0.820(23) 0.27(3) 0.0380 Uiso
C6_9 C 0.145(11) 0.829(22) 0.10(3) 0.0380 Uiso
H1_9 H 0.109(9) 0.773(22) 0.502(19) 0.0127 Uiso
H3_9 H 0.169(13) 0.863(24) 0.04(3) 0.0127 Uiso
C8_9 C 0.2850(17) 0.9410(26) 0.760(16) 0.0380 Uiso
C9_9 C 0.252(4) 0.909(9) 0.626(17) 0.0380 Uiso
C10_9 C 0.254(5) 0.918(12) 0.440(17) 0.0380 Uiso
C11_9 C 0.221(8) 0.885(20) 0.31(2) 0.0380 Uiso
C12_9 C 0.187(11) 0.847(23) 0.40(3) 0.0380 Uiso
C13_9 C 0.188(11) 0.838(22) 0.57(3) 0.0380 Uiso
C14_9 C 0.221(7) 0.869(14) 0.70(2) 0.0380 Uiso
H4_9 H 0.224(9) 0.894(22) 0.165(19) 0.0127 Uiso
H5_9 H 0.222(8) 0.862(14) 0.85(2) 0.0127 Uiso
H6_9 H 0.164(13) 0.804(24) 0.63(3) 0.0127 Uiso
C1_9 C 0.0483(17) 0.7257(26) 0.907(16) 0.0380 Uiso
C7_9 C 0.112(7) 0.798(14) 0.97(2) 0.0380 Uiso
H2_9 H 0.111(8) 0.805(14) 0.82(2) 0.0127 Uiso
O1_9 O 0.051(2) 0.734(5) 0.726(16) 0.0380 Uiso
H7_2 H 0.0234337 0.765081 0.393465 . .
O4_9 O 0.99687 0.73887 0.43459 0.0633 Uiso
H8_5 H 0.976282 0.727803 0.325955 . .
H10_3 H 0.0188246 0.758838 0.342448 . .
H8_6 H 0.915146 0.309615 0.00737795 . .
H9_3 H 0.968273 0.72484 0.372081 . .
H8_7 H 0.394469 0.0848538 0.00737795 . .
H9_4 H 0.756567 0.0317273 0.372081 . .
H10_4 H 0.740014 0.981175 0.342448 . .
H8_8 H 0.690385 0.605531 0.00737795 . .
H7_3 H 0.258353 0.0234337 0.606535 . .
H8_9 H 0.24848 0.976282 0.674045 . .
H8_10 H 0.0237179 0.272197 0.674045 . .
H7_4 H 0.976566 0.234919 0.606535 . .
loop_
_geom_bond_atom_site_label_1
_geom_bond_atom_site_label_2
_geom_bond_site_symmetry_1
_geom_bond_site_symmetry_2
H5 C14 1_555 1_555
O5 C8 1_555 1_555
O6 C8 1_555 1_555
Ni6 O5 1_555 1_555
Ni6 O12 1_555 1_555
C1 C2 1_555 1_555
C2 C3 1_555 1_555
C3 C4 1_555 1_555
C4 C5 1_555 1_555
C5 C6 1_555 1_555
C6 C7 1_555 1_555
C7 C2 1_555 1_555
H1 C4 1_555 1_555
H2 C7 1_555 1_555
H3 C6 1_555 1_555
O1 C1 1_555 1_555
O2 C1 1_555 1_555
O3 C3 1_555 1_555
C9 C10 1_555 1_555
C10 C11 1_555 1_555
C11 C12 1_555 1_555
C12 C5 1_555 1_555
C13 C12 1_555 1_555
H4 C11 1_555 1_555
H6 C13 1_555 1_555
O7 C10 1_555 1_555
Ni3 O3 1_555 1_555
Ni4 O2 1_555 1_555
Ni6 O7 1_555 1_555
Ni7 O2 1_555 1_555
O3 Ni7 1_555 1_555
O7 Ni8 1_555 1_555
O4 Ni3 1_555 1_555
O10 Ni3 1_555 1_555
O11 Ni3 1_555 1_555
O15 Ni3 1_555 1_555
O8 Ni2 1_555 1_555
O14 Ni2 1_555 1_555
O16 Ni2 1_555 1_555
H5_2 C14_2 1_555 1_555
O5_2 C8_2 1_555 1_555
O6_2 C8_2 1_555 1_555
Ni2_2 O6_2 1_555 1_555
O8_2 Ni2_2 1_555 1_555
Ni6_2 O5_2 1_555 1_555
O12_2 Ni2_2 1_555 1_555
O14_2 Ni2_2 1_555 1_555
O16_2 Ni2_2 1_555 1_555
Ni6_2 O12_2 1_555 1_555
Ni6_2 O14_2 1_555 1_555
C1_2 C2_2 1_555 1_555
C2_2 C3_2 1_555 1_555
C3_2 C4_2 1_555 1_555
C4_2 C5_2 1_555 1_555
C5_2 C6_2 1_555 1_555
C6_2 C7_2 1_555 1_555
C7_2 C2_2 1_555 1_555
H1_2 C4_2 1_555 1_555
H2_2 C7_2 1_555 1_555
H3_2 C6_2 1_555 1_555
O1_2 C1_2 1_555 1_555
O2_2 C1_2 1_555 1_555
O3_2 C3_2 1_555 1_555
C9_2 C10_2 1_555 1_555
C10_2 C11_2 1_555 1_555
C11_2 C12_2 1_555 1_555
C12_2 C5_2 1_555 1_555
C13_2 C12_2 1_555 1_555
H4_2 C11_2 1_555 1_555
H6_2 C13_2 1_555 1_555
O7_2 C10_2 1_555 1_555
Ni3_2 O3_2 1_555 1_555
Ni6_2 O7_2 1_555 1_555
O7_2 Ni8_2 1_555 1_555
O4_2 Ni3_2 1_555 1_555
O15_2 Ni3_2 1_555 1_555
O8_3 Ni2_3 1_555 1_555
O14_3 Ni2_3 1_555 1_555
O16_3 Ni2_3 1_555 1_555
H5_3 C14_3 1_555 1_555
O5_3 C8_3 1_555 1_555
O6_3 C8_3 1_555 1_555
Ni6_3 O5_3 1_555 1_555
Ni6_3 O12_3 1_555 1_555
C1_3 C2_3 1_555 1_555
C2_3 C3_3 1_555 1_555
C3_3 C4_3 1_555 1_555
C4_3 C5_3 1_555 1_555
C5_3 C6_3 1_555 1_555
C6_3 C7_3 1_555 1_555
C7_3 C2_3 1_555 1_555
H1_3 C4_3 1_555 1_555
H2_3 C7_3 1_555 1_555
H3_3 C6_3 1_555 1_555
O1_3 C1_3 1_555 1_555
O2_3 C1_3 1_555 1_555
O3_3 C3_3 1_555 1_555
C9_3 C10_3 1_555 1_555
C10_3 C11_3 1_555 1_555
C11_3 C12_3 1_555 1_555
C12_3 C5_3 1_555 1_555
C13_3 C12_3 1_555 1_555
H4_3 C11_3 1_555 1_555
H6_3 C13_3 1_555 1_555
O7_3 C10_3 1_555 1_555
Ni3_3 O3_3 1_555 1_555
Ni6_3 O7_3 1_555 1_555
O7_3 Ni8_3 1_555 1_555
O4_3 Ni3_3 1_555 1_555
O15_3 Ni3_3 1_555 1_555
O8_4 H9 1_555 1_555
Ni4_2 O1_4 1_555 1_555
C1_4 C2_4 1_555 1_555
C2_4 C3_4 1_555 1_555
C5_4 C6_4 1_555 1_555
C6_4 C7_4 1_555 1_555
C7_4 C2_4 1_555 1_555
H2_4 C7_4 1_555 1_555
H3_4 C6_4 1_555 1_555
O1_4 C1_4 1_555 1_555
O10_2 C1_4 1_555 1_555
O4_4 Ni4_2 1_555 1_555
Ni7_2 O10_2 1_555 1_555
O15_4 Ni4_2 1_555 1_555
Ni7_2 O15_4 1_555 1_555
C8_4 C9_4 1_555 1_555
C9_4 C10_4 1_555 1_555
C13_4 C12_4 1_555 1_555
C14_4 C9_4 1_555 1_555
H5_4 C14_4 1_555 1_555
H6_4 C13_4 1_555 1_555
O5_4 C8_4 1_555 1_555
O12_3 C8_4 1_555 1_555
Ni8_3 O5_4 1_555 1_555
C13_4 C14_4 1_555 1_555
C8_5 C9_5 1_555 1_555
C9_5 C10_5 1_555 1_555
C13_5 C12_5 1_555 1_555
C14_5 C9_5 1_555 1_555
H5_5 C14_5 1_555 1_555
H6_5 C13_5 1_555 1_555
O5_5 C8_5 1_555 1_555
O12 C8_5 1_555 1_555
Ni8 O5_5 1_555 1_555
C13_5 C14_5 1_555 1_555
O8_5 H9_2 1_555 1_555
Ni4_3 O1_5 1_555 1_555
C1_5 C2_5 1_555 1_555
C2_5 C3_5 1_555 1_555
C5_5 C6_5 1_555 1_555
C6_5 C7_5 1_555 1_555
C7_5 C2_5 1_555 1_555
H2_5 C7_5 1_555 1_555
H3_5 C6_5 1_555 1_555
O1_5 C1_5 1_555 1_555
O10_3 C1_5 1_555 1_555
O4_5 Ni4_3 1_555 1_555
Ni7_3 O10_3 1_555 1_555
O15_5 Ni4_3 1_555 1_555
Ni7_3 O15_5 1_555 1_555
H1_6 C4_6 1_555 1_555
C8_6 C9_6 1_555 1_555
C9_6 C10_6 1_555 1_555
C13_6 C12_6 1_555 1_555
C14_6 C9_6 1_555 1_555
H5_6 C14_6 1_555 1_555
H6_6 C13_6 1_555 1_555
O5_6 C8_6 1_555 1_555
O12_2 C8_6 1_555 1_555
O16_2 C10_6 1_555 1_555
O8_6 Ni6_2 1_555 1_555
Ni8_2 O5_6 1_555 1_555
O12_6 Ni6_2 1_555 1_555
C13_6 C14_6 1_555 1_555
Ni8_2 O12_6 1_555 1_555
Ni4 O1_6 1_555 1_555
C1_6 C2_6 1_555 1_555
C2_6 C3_6 1_555 1_555
C5_6 C6_6 1_555 1_555
C6_6 C7_6 1_555 1_555
C7_6 C2_6 1_555 1_555
H2_6 C7_6 1_555 1_555
H3_6 C6_6 1_555 1_555
O1_6 C1_6 1_555 1_555
O10 C1_6 1_555 1_555
O15 C3_6 1_555 1_555
O4_6 Ni4 1_555 1_555
H4_6 C11_6 1_555 1_555
Ni7 O10 1_555 1_555
O15_6 Ni4 1_555 1_555
Ni7 O15_6 1_555 1_555
O4_7 H8_4 1_555 1_555
C2_7 C3_7 1_555 1_555
C3_7 C4_7 1_555 1_555
C4_7 C5_7 1_555 1_555
C5_7 C6_7 1_555 1_555
H1_7 C4_7 1_555 1_555
H3_7 C6_7 1_555 1_555
O15_5 C3_7 1_555 1_555
C8_7 C9_7 1_555 1_555
C9_7 C10_7 1_555 1_555
C10_7 C11_7 1_555 1_555
C11_7 C12_7 1_555 1_555
C12_7 C5_7 1_555 1_555
C13_7 C12_7 1_555 1_555
C14_7 C9_7 1_555 1_555
H4_7 C11_7 1_555 1_555
H5_7 C14_7 1_555 1_555
H6_7 C13_7 1_555 1_555
O9_2 C8_7 1_555 1_555
O12_6 C8_7 1_555 1_555
O14_2 C10_7 1_555 1_555
O8_7 Ni8_2 1_555 1_555
C13_7 C14_7 1_555 1_555
Ni7_3 O1_7 1_555 1_555
H2_7 C7_7 1_555 1_555
O1_7 C1_7 1_555 1_555
O11_3 C1_7 1_555 1_555
C2_8 C3_8 1_555 1_555
C3_8 C4_8 1_555 1_555
C4_8 C5_8 1_555 1_555
C5_8 C6_8 1_555 1_555
H1_8 C4_8 1_555 1_555
H3_8 C6_8 1_555 1_555
O15_6 C3_8 1_555 1_555
C8_8 C9_8 1_555 1_555
C9_8 C10_8 1_555 1_555
C10_8 C11_8 1_555 1_555
C11_8 C12_8 1_555 1_555
C12_8 C5_8 1_555 1_555
C13_8 C12_8 1_555 1_555
C14_8 C9_8 1_555 1_555
H4_8 C11_8 1_555 1_555
H5_8 C14_8 1_555 1_555
H6_8 C13_8 1_555 1_555
O9_3 C8_8 1_555 1_555
O12_4 C8_8 1_555 1_555
O14_3 C10_8 1_555 1_555
C13_8 C14_8 1_555 1_555
Ni7 O1_8 1_555 1_555
H2_8 C7_8 1_555 1_555
O1_8 C1_8 1_555 1_555
O11 C1_8 1_555 1_555
O4_8 Ni7 1_555 1_555
O8_8 Ni8_3 1_555 1_555
O8_9 Ni8 1_555 1_555
C2_9 C3_9 1_555 1_555
C3_9 C4_9 1_555 1_555
C4_9 C5_9 1_555 1_555
C5_9 C6_9 1_555 1_555
H1_9 C4_9 1_555 1_555
H3_9 C6_9 1_555 1_555
O15_4 C3_9 1_555 1_555
C8_9 C9_9 1_555 1_555
C9_9 C10_9 1_555 1_555
C10_9 C11_9 1_555 1_555
C11_9 C12_9 1_555 1_555
C12_9 C5_9 1_555 1_555
C13_9 C12_9 1_555 1_555
C14_9 C9_9 1_555 1_555
H4_9 C11_9 1_555 1_555
H5_9 C14_9 1_555 1_555
H6_9 C13_9 1_555 1_555
O9 C8_9 1_555 1_555
O12_5 C8_9 1_555 1_555
O14 C10_9 1_555 1_555
C13_9 C14_9 1_555 1_555
Ni7_2 O1_9 1_555 1_555
H2_9 C7_9 1_555 1_555
O1_9 C1_9 1_555 1_555
O11_2 C1_9 1_555 1_555
O4_9 H8_5 1_555 1_555
O4_9 H9_3 1_555 1_555
O4_7 H9_4 1_555 1_555
O8_5 H8_9 1_555 1_555
O8_4 H8_10 1_555 1_555

#END
