
###############################################################################
#
# This file contains modified crystal structure data generated from the
# MOF subset of the Cambridge Structural Database (CSD) v543 
# hosted by the Cambridge Crystallographic Data Centre (CCDC).
#
# This work is licensed under the Creative Commons
# Attribution-NonCommercial-ShareAlike 4.0 International License.
# To view a copy of this license, visit
# http://creativecommons.org/licenses/by-nc-sa/4.0/
# or send a letter to
# Creative Commons, PO Box 1866, Mountain View, CA 94042, USA.
#
# CIF created using the CSD Python API on 29 September 2022
# The structure has been converted into the P1 space group
# The structure has a 3D framework
# The original CSD entry GIPFAP is in the orthorhombic crystal system
# The framework has been calculated to contain at least 10.0% void space
# The void calculation uses a probe of radius 1.32A, grid spacing 0.4
# H atom positions have been added when not included in the experimental data
# Generated hydrogen atom positions removed from atoms on special positions
#
###############################################################################

data_GIPFAP
_chemical_formula_moiety         '(C320 H300 N12 O152 Zr36)n'
_symmetry_cell_setting           triclinic
_symmetry_space_group_name_H-M   'P 1'
_symmetry_Int_Tables_number      1
_space_group_name_Hall           'P 1'
loop_
_symmetry_equiv_pos_site_id
_symmetry_equiv_pos_as_xyz
1 x,y,z
_cell_length_a                   20.194(17)
_cell_length_b                   31.65(3)
_cell_length_c                   33.78(3)
_cell_angle_alpha                90
_cell_angle_beta                 90
_cell_angle_gamma                90
_cell_volume                     21590.2
loop_
_atom_site_label
_atom_site_type_symbol
_atom_site_fract_x
_atom_site_fract_y
_atom_site_fract_z
Zr1 Zr 0.5000 0.284001(14) 0.427802(11)
Zr2 Zr 0.41259(3) 0.339721(13) 0.5000
Zr3 Zr 0.41388(3) 0.228746(13) 0.5000
O1 O 0.41245(13) 0.28450(7) 0.46512(6)
O2 O 0.5000 0.22934(10) 0.46480(9)
O3 O 0.5000 0.34035(12) 0.46456(8)
O4 O 0.38027(12) 0.20532(6) 0.44154(6)
O5 O 0.43298(12) 0.24163(6) 0.39477(5)
O6 O 0.06444(12) 0.17450(5) 0.10471(5)
O7 O 0.12350(13) 0.13798(6) 0.06072(5)
O8 O 0.4320(2) 0.16000(10) 0.5000
O9 O 0.3035(2) 0.23288(11) 0.5000
O10 O 0.3032(2) 0.33539(11) 0.5000
O11 O 0.41714(17) 0.40810(9) 0.5000
N1 N 0.2395(2) 0.0000 0.21434(9)
H1 H 0.2176 0.0000 0.1918
C1 C 0.3960(2) 0.21252(10) 0.40597(9)
C2 C 0.37173(19) 0.18327(9) 0.37466(9)
C3 C 0.34082(19) 0.14659(10) 0.38702(9)
H2 H 0.3347 0.1411 0.4144
C4 C 0.31876(18) 0.11771(10) 0.35854(9)
H3 H 0.2975 0.0924 0.3668
C5 C 0.3275(2) 0.12538(9) 0.31852(8)
C6 C 0.3533(2) 0.16225(10) 0.30765(9)
H4 H 0.3561 0.1691 0.2803
C7 C 0.37650(18) 0.19101(10) 0.33558(9)
H5 H 0.3961 0.2167 0.3269
C8 C 0.30392(19) 0.09480(9) 0.29060(8)
C9 C 0.31572(19) 0.05163(9) 0.29702(9)
H6 H 0.3387 0.0423 0.3200
C10 C 0.29290(17) 0.02271(8) 0.26896(8)
C11 C 0.26005(17) 0.03436(9) 0.23550(8)
C12 C 0.24789(19) 0.07790(9) 0.22700(9)
C13 C 0.27254(18) 0.10689(9) 0.25557(9)
H7 H 0.2673 0.1362 0.2505
C14 C 0.21353(18) 0.09357(9) 0.19294(8)
C15 C 0.22494(18) 0.07991(10) 0.15490(9)
H8 H 0.2564 0.0583 0.1498
C16 C 0.18936(17) 0.09848(10) 0.12380(9)
H9 H 0.1979 0.0885 0.0978
C17 C 0.14513(19) 0.12867(9) 0.12780(8)
C18 C 0.12976(19) 0.14190(11) 0.16757(9)
H10 H 0.0962 0.1622 0.1727
C19 C 0.16672(19) 0.12340(10) 0.19850(9)
H11 H 0.1581 0.1325 0.2248
C20 C 0.10804(18) 0.14896(10) 0.09626(9)
O16 O 0.58755(13) 0.28450(7) 0.46512(6)
Zr5 Zr 0.0000 0.215999(14) 0.072198(11)
Zr7 Zr 0.58741(3) 0.339721(13) 0.5000
Zr8 Zr 0.08741(3) 0.160279(13) 0.0000
Zr11 Zr 0.58612(3) 0.228746(13) 0.5000
O17 O 0.41245(13) 0.28450(7) 0.53488(6)
O18 O 0.5000 0.22934(10) 0.53520(9)
O19 O 0.5000 0.34035(12) 0.53544(8)
O20 O 0.38027(12) 0.20532(6) 0.55846(6)
O21 O 0.56702(12) 0.24163(6) 0.39477(5)
O22 O 0.56444(12) 0.32550(5) 0.39529(5)
O23 O 0.43556(12) 0.32550(5) 0.39529(5)
O24 O 0.37650(13) 0.36202(6) 0.56072(5)
O25 O 0.37650(13) 0.36202(6) 0.43928(5)
Zr8_2 Zr 0.08741(3) 0.160279(13) 1.0000
N1_2 N 0.2395(2) 1.0000 0.21434(9)
H1_2 H 0.2176 1.0000 0.1918
O12 O 0.38027(12) 0.79468(6) 0.44154(6)
O13 O 0.43298(12) 0.75837(6) 0.39477(5)
O14 O 0.06444(12) 0.82550(5) 0.10471(5)
O15 O 0.12350(13) 0.86202(6) 0.06072(5)
C21 C 0.3960(2) 0.78748(10) 0.40597(9)
C22 C 0.37173(19) 0.81673(9) 0.37466(9)
C23 C 0.34082(19) 0.85341(10) 0.38702(9)
H12 H 0.3347 0.8589 0.4144
C24 C 0.31876(18) 0.88229(10) 0.35854(9)
H13 H 0.2975 0.9076 0.3668
C25 C 0.3275(2) 0.87462(9) 0.31852(8)
C26 C 0.3533(2) 0.83775(10) 0.30765(9)
H14 H 0.3561 0.8309 0.2803
C27 C 0.37650(18) 0.80899(10) 0.33558(9)
H15 H 0.3961 0.7833 0.3269
C28 C 0.30392(19) 0.90520(9) 0.29060(8)
C29 C 0.31572(19) 0.94837(9) 0.29702(9)
H16 H 0.3387 0.9577 0.3200
C30 C 0.29290(17) 0.97729(8) 0.26896(8)
C31 C 0.26005(17) 0.96564(9) 0.23550(8)
C32 C 0.24789(19) 0.92210(9) 0.22700(9)
C33 C 0.27254(18) 0.89311(9) 0.25557(9)
H17 H 0.2673 0.8638 0.2505
C34 C 0.21353(18) 0.90643(9) 0.19294(8)
C35 C 0.22494(18) 0.92009(10) 0.15490(9)
H18 H 0.2564 0.9417 0.1498
C36 C 0.18936(17) 0.90152(10) 0.12380(9)
H19 H 0.1979 0.9115 0.0978
C37 C 0.14513(19) 0.87133(9) 0.12780(8)
C38 C 0.12976(19) 0.85810(11) 0.16757(9)
H20 H 0.0962 0.8378 0.1727
C39 C 0.16672(19) 0.87660(10) 0.19850(9)
H21 H 0.1581 0.8675 0.2248
C40 C 0.10804(18) 0.85104(10) 0.09626(9)
Zr4 Zr 0.5000 0.715999(14) 0.427802(11)
Zr6 Zr -0.0000 0.784001(14) 0.072198(11)
Zr9 Zr 0.08741(3) 0.839721(13) 0.0000
Zr10 Zr 0.41388(3) 0.771254(13) 0.5000
Zr9_2 Zr 0.08741(3) 0.839721(13) 1.0000
Zr5_2 Zr 1.0000 0.215999(14) 0.072198(11)
Zr6_2 Zr 1.0000 0.784001(14) 0.072198(11)
N1_3 N 0.7605(2) 0.0000 0.21434(9)
H1_3 H 0.7824 0.0000 0.1918
O12_2 O 0.61973(12) 0.20532(6) 0.44154(6)
O14_2 O 0.93556(12) 0.17450(5) 0.10471(5)
O15_2 O 0.87650(13) 0.13798(6) 0.06072(5)
C21_2 C 0.6040(2) 0.21252(10) 0.40597(9)
C22_2 C 0.62827(19) 0.18327(9) 0.37466(9)
C23_2 C 0.65918(19) 0.14659(10) 0.38702(9)
H12_2 H 0.6653 0.1411 0.4144
C24_2 C 0.68124(18) 0.11771(10) 0.35854(9)
H13_2 H 0.7025 0.0924 0.3668
C25_2 C 0.6725(2) 0.12538(9) 0.31852(8)
C26_2 C 0.6467(2) 0.16225(10) 0.30765(9)
H14_2 H 0.6439 0.1691 0.2803
C27_2 C 0.62350(18) 0.19101(10) 0.33558(9)
H15_2 H 0.6039 0.2167 0.3269
C28_2 C 0.69608(19) 0.09480(9) 0.29060(8)
C29_2 C 0.68428(19) 0.05163(9) 0.29702(9)
H16_2 H 0.6613 0.0423 0.3200
C30_2 C 0.70710(17) 0.02271(8) 0.26896(8)
C31_2 C 0.73995(17) 0.03436(9) 0.23550(8)
C32_2 C 0.75211(19) 0.07790(9) 0.22700(9)
C33_2 C 0.72746(18) 0.10689(9) 0.25557(9)
H17_2 H 0.7327 0.1362 0.2505
C34_2 C 0.78647(18) 0.09357(9) 0.19294(8)
C35_2 C 0.77506(18) 0.07991(10) 0.15490(9)
H18_2 H 0.7436 0.0583 0.1498
C36_2 C 0.81064(17) 0.09848(10) 0.12380(9)
H19_2 H 0.8021 0.0885 0.0978
C37_2 C 0.85487(19) 0.12867(9) 0.12780(8)
C38_2 C 0.87024(19) 0.14190(11) 0.16757(9)
H20_2 H 0.9038 0.1622 0.1727
C39_2 C 0.83328(19) 0.12340(10) 0.19850(9)
H21_2 H 0.8419 0.1325 0.2248
C40_2 C 0.89196(18) 0.14896(10) 0.09626(9)
Zr9_3 Zr 0.91259(3) 0.160279(13) 0.0000
Zr9_4 Zr 0.91259(3) 0.160279(13) 1.0000
Zr2_2 Zr 0.58741(3) 0.660279(13) 0.5000
Zr3_2 Zr 0.58612(3) 0.771254(13) 0.5000
O1_2 O 0.58755(13) 0.71550(7) 0.46512(6)
O2_2 O 0.5000 0.77066(10) 0.46480(9)
O3_2 O 0.5000 0.65965(12) 0.46456(8)
O4_2 O 0.61973(12) 0.79468(6) 0.44154(6)
O5_2 O 0.56702(12) 0.75837(6) 0.39477(5)
O6_2 O 0.93556(12) 0.82550(5) 0.10471(5)
O7_2 O 0.87650(13) 0.86202(6) 0.06072(5)
O8_2 O 0.5680(2) 0.84000(10) 0.5000
O9_2 O 0.6965(2) 0.76712(11) 0.5000
O10_2 O 0.6968(2) 0.66461(11) 0.5000
O11_2 O 0.58286(17) 0.59190(9) 0.5000
N1_4 N 0.7605(2) 1.0000 0.21434(9)
H1_4 H 0.7824 1.0000 0.1918
C1_2 C 0.6040(2) 0.78748(10) 0.40597(9)
C2_2 C 0.62827(19) 0.81673(9) 0.37466(9)
C3_2 C 0.65918(19) 0.85341(10) 0.38702(9)
H2_2 H 0.6653 0.8589 0.4144
C4_2 C 0.68124(18) 0.88229(10) 0.35854(9)
H3_2 H 0.7025 0.9076 0.3668
C5_2 C 0.6725(2) 0.87462(9) 0.31852(8)
C6_2 C 0.6467(2) 0.83775(10) 0.30765(9)
H4_2 H 0.6439 0.8309 0.2803
C7_2 C 0.62350(18) 0.80899(10) 0.33558(9)
H5_2 H 0.6039 0.7833 0.3269
C8_2 C 0.69608(19) 0.90520(9) 0.29060(8)
C9_2 C 0.68428(19) 0.94837(9) 0.29702(9)
H6_2 H 0.6613 0.9577 0.3200
C10_2 C 0.70710(17) 0.97729(8) 0.26896(8)
C11_2 C 0.73995(17) 0.96564(9) 0.23550(8)
C12_2 C 0.75211(19) 0.92210(9) 0.22700(9)
C13_2 C 0.72746(18) 0.89311(9) 0.25557(9)
H7_2 H 0.7327 0.8638 0.2505
C14_2 C 0.78647(18) 0.90643(9) 0.19294(8)
C15_2 C 0.77506(18) 0.92009(10) 0.15490(9)
H8_2 H 0.7436 0.9417 0.1498
C16_2 C 0.81064(17) 0.90152(10) 0.12380(9)
H9_2 H 0.8021 0.9115 0.0978
C17_2 C 0.85487(19) 0.87133(9) 0.12780(8)
C18_2 C 0.87024(19) 0.85810(11) 0.16757(9)
H10_2 H 0.9038 0.8378 0.1727
C19_2 C 0.83328(19) 0.87660(10) 0.19850(9)
H11_2 H 0.8419 0.8675 0.2248
C20_2 C 0.89196(18) 0.85104(10) 0.09626(9)
O16_2 O 0.41245(13) 0.71550(7) 0.46512(6)
Zr7_2 Zr 0.41259(3) 0.660279(13) 0.5000
Zr8_3 Zr 0.91259(3) 0.839721(13) 0.0000
O17_2 O 0.58755(13) 0.71550(7) 0.53488(6)
O18_2 O 0.5000 0.77066(10) 0.53520(9)
O19_2 O 0.5000 0.65965(12) 0.53544(8)
O20_2 O 0.61973(12) 0.79468(6) 0.55846(6)
O22_2 O 0.43556(12) 0.67450(5) 0.39529(5)
O23_2 O 0.56444(12) 0.67450(5) 0.39529(5)
O24_2 O 0.62350(13) 0.63798(6) 0.56072(5)
O25_2 O 0.62350(13) 0.63798(6) 0.43928(5)
Zr8_4 Zr 0.91259(3) 0.839721(13) 1.0000
N1_5 N 0.2395(2) -0.0000 0.78566(9)
H1_5 H 0.2176 0.0000 0.8082
O13_2 O 0.43298(12) 0.24163(6) 0.60523(5)
O14_3 O 0.06444(12) 0.17450(5) 0.89529(5)
O15_3 O 0.12350(13) 0.13798(6) 0.93928(5)
C21_3 C 0.3960(2) 0.21252(10) 0.59403(9)
C22_3 C 0.37173(19) 0.18327(9) 0.62534(9)
C23_3 C 0.34082(19) 0.14659(10) 0.61298(9)
H12_3 H 0.3347 0.1411 0.5856
C24_3 C 0.31876(18) 0.11771(10) 0.64146(9)
H13_3 H 0.2975 0.0924 0.6332
C25_3 C 0.3275(2) 0.12538(9) 0.68148(8)
C26_3 C 0.3533(2) 0.16225(10) 0.69235(9)
H14_3 H 0.3561 0.1691 0.7197
C27_3 C 0.37650(18) 0.19101(10) 0.66442(9)
H15_3 H 0.3961 0.2167 0.6731
C28_3 C 0.30392(19) 0.09480(9) 0.70940(8)
C29_3 C 0.31572(19) 0.05163(9) 0.70298(9)
H16_3 H 0.3387 0.0423 0.6800
C30_3 C 0.29290(17) 0.02271(8) 0.73104(8)
C31_3 C 0.26005(17) 0.03436(9) 0.76450(8)
C32_3 C 0.24789(19) 0.07790(9) 0.77300(9)
C33_3 C 0.27254(18) 0.10689(9) 0.74443(9)
H17_3 H 0.2673 0.1362 0.7495
C34_3 C 0.21353(18) 0.09357(9) 0.80706(8)
C35_3 C 0.22494(18) 0.07991(10) 0.84510(9)
H18_3 H 0.2564 0.0583 0.8502
C36_3 C 0.18936(17) 0.09848(10) 0.87620(9)
H19_3 H 0.1979 0.0885 0.9022
C37_3 C 0.14513(19) 0.12867(9) 0.87220(8)
C38_3 C 0.12976(19) 0.14190(11) 0.83243(9)
H20_3 H 0.0962 0.1622 0.8273
C39_3 C 0.16672(19) 0.12340(10) 0.80150(9)
H21_3 H 0.1581 0.1325 0.7752
C40_3 C 0.10804(18) 0.14896(10) 0.90374(9)
Zr4_2 Zr 0.5000 0.284001(14) 0.572198(11)
Zr6_3 Zr -0.0000 0.215999(14) 0.927802(11)
Zr1_2 Zr 0.5000 0.715999(14) 0.572198(11)
O1_3 O 0.41245(13) 0.71550(7) 0.53488(6)
O4_3 O 0.38027(12) 0.79468(6) 0.55846(6)
O5_3 O 0.43298(12) 0.75837(6) 0.60523(5)
O6_3 O 0.06444(12) 0.82550(5) 0.89529(5)
O7_3 O 0.12350(13) 0.86202(6) 0.93928(5)
O8_3 O 0.4320(2) 0.84000(10) 0.5000
O9_3 O 0.3035(2) 0.76712(11) 0.5000
O10_3 O 0.3032(2) 0.66461(11) 0.5000
O11_3 O 0.41714(17) 0.59190(9) 0.5000
N1_6 N 0.2395(2) 1.0000 0.78566(9)
H1_6 H 0.2176 1.0000 0.8082
C1_3 C 0.3960(2) 0.78748(10) 0.59403(9)
C2_3 C 0.37173(19) 0.81673(9) 0.62534(9)
C3_3 C 0.34082(19) 0.85341(10) 0.61298(9)
H2_3 H 0.3347 0.8589 0.5856
C4_3 C 0.31876(18) 0.88229(10) 0.64146(9)
H3_3 H 0.2975 0.9076 0.6332
C5_3 C 0.3275(2) 0.87462(9) 0.68148(8)
C6_3 C 0.3533(2) 0.83775(10) 0.69235(9)
H4_3 H 0.3561 0.8309 0.7197
C7_3 C 0.37650(18) 0.80899(10) 0.66442(9)
H5_3 H 0.3961 0.7833 0.6731
C8_3 C 0.30392(19) 0.90520(9) 0.70940(8)
C9_3 C 0.31572(19) 0.94837(9) 0.70298(9)
H6_3 H 0.3387 0.9577 0.6800
C10_3 C 0.29290(17) 0.97729(8) 0.73104(8)
C11_3 C 0.26005(17) 0.96564(9) 0.76450(8)
C12_3 C 0.24789(19) 0.92210(9) 0.77300(9)
C13_3 C 0.27254(18) 0.89311(9) 0.74443(9)
H7_3 H 0.2673 0.8638 0.7495
C14_3 C 0.21353(18) 0.90643(9) 0.80706(8)
C15_3 C 0.22494(18) 0.92009(10) 0.84510(9)
H8_3 H 0.2564 0.9417 0.8502
C16_3 C 0.18936(17) 0.90152(10) 0.87620(9)
H9_3 H 0.1979 0.9115 0.9022
C17_3 C 0.14513(19) 0.87133(9) 0.87220(8)
C18_3 C 0.12976(19) 0.85810(11) 0.83243(9)
H10_3 H 0.0962 0.8378 0.8273
C19_3 C 0.16672(19) 0.87660(10) 0.80150(9)
H11_3 H 0.1581 0.8675 0.7752
C20_3 C 0.10804(18) 0.85104(10) 0.90374(9)
Zr5_3 Zr 0.0000 0.784001(14) 0.927802(11)
O21_2 O 0.56702(12) 0.75837(6) 0.60523(5)
O22_3 O 0.56444(12) 0.67450(5) 0.60471(5)
O23_3 O 0.43556(12) 0.67450(5) 0.60471(5)
O24_3 O 0.37650(13) 0.63798(6) 0.43928(5)
O25_3 O 0.37650(13) 0.63798(6) 0.56072(5)
Zr6_4 Zr 1.0000 0.215999(14) 0.927802(11)
Zr5_4 Zr 1.0000 0.784001(14) 0.927802(11)
O1_4 O 0.58755(13) 0.28450(7) 0.53488(6)
O4_4 O 0.61973(12) 0.20532(6) 0.55846(6)
O5_4 O 0.56702(12) 0.24163(6) 0.60523(5)
O6_4 O 0.93556(12) 0.17450(5) 0.89529(5)
O7_4 O 0.87650(13) 0.13798(6) 0.93928(5)
O8_4 O 0.5680(2) 0.16000(10) 0.5000
O9_4 O 0.6965(2) 0.23288(11) 0.5000
O10_4 O 0.6968(2) 0.33539(11) 0.5000
O11_4 O 0.58286(17) 0.40810(9) 0.5000
N1_7 N 0.7605(2) -0.0000 0.78566(9)
H1_7 H 0.7824 0.0000 0.8082
C1_4 C 0.6040(2) 0.21252(10) 0.59403(9)
C2_4 C 0.62827(19) 0.18327(9) 0.62534(9)
C3_4 C 0.65918(19) 0.14659(10) 0.61298(9)
H2_4 H 0.6653 0.1411 0.5856
C4_4 C 0.68124(18) 0.11771(10) 0.64146(9)
H3_4 H 0.7025 0.0924 0.6332
C5_4 C 0.6725(2) 0.12538(9) 0.68148(8)
C6_4 C 0.6467(2) 0.16225(10) 0.69235(9)
H4_4 H 0.6439 0.1691 0.7197
C7_4 C 0.62350(18) 0.19101(10) 0.66442(9)
H5_4 H 0.6039 0.2167 0.6731
C8_4 C 0.69608(19) 0.09480(9) 0.70940(8)
C9_4 C 0.68428(19) 0.05163(9) 0.70298(9)
H6_4 H 0.6613 0.0423 0.6800
C10_4 C 0.70710(17) 0.02271(8) 0.73104(8)
C11_4 C 0.73995(17) 0.03436(9) 0.76450(8)
C12_4 C 0.75211(19) 0.07790(9) 0.77300(9)
C13_4 C 0.72746(18) 0.10689(9) 0.74443(9)
H7_4 H 0.7327 0.1362 0.7495
C14_4 C 0.78647(18) 0.09357(9) 0.80706(8)
C15_4 C 0.77506(18) 0.07991(10) 0.84510(9)
H8_4 H 0.7436 0.0583 0.8502
C16_4 C 0.81064(17) 0.09848(10) 0.87620(9)
H9_4 H 0.8021 0.0885 0.9022
C17_4 C 0.85487(19) 0.12867(9) 0.87220(8)
C18_4 C 0.87024(19) 0.14190(11) 0.83243(9)
H10_4 H 0.9038 0.1622 0.8273
C19_4 C 0.83328(19) 0.12340(10) 0.80150(9)
H11_4 H 0.8419 0.1325 0.7752
C20_4 C 0.89196(18) 0.14896(10) 0.90374(9)
O22_4 O 0.43556(12) 0.32550(5) 0.60471(5)
O23_4 O 0.56444(12) 0.32550(5) 0.60471(5)
O24_4 O 0.62350(13) 0.36202(6) 0.43928(5)
O25_4 O 0.62350(13) 0.36202(6) 0.56072(5)
N1_8 N 0.7605(2) 1.0000 0.78566(9)
H1_8 H 0.7824 1.0000 0.8082
O14_4 O 0.93556(12) 0.82550(5) 0.89529(5)
O15_4 O 0.87650(13) 0.86202(6) 0.93928(5)
C21_4 C 0.6040(2) 0.78748(10) 0.59403(9)
C22_4 C 0.62827(19) 0.81673(9) 0.62534(9)
C23_4 C 0.65918(19) 0.85341(10) 0.61298(9)
H12_4 H 0.6653 0.8589 0.5856
C24_4 C 0.68124(18) 0.88229(10) 0.64146(9)
H13_4 H 0.7025 0.9076 0.6332
C25_4 C 0.6725(2) 0.87462(9) 0.68148(8)
C26_4 C 0.6467(2) 0.83775(10) 0.69235(9)
H14_4 H 0.6439 0.8309 0.7197
C27_4 C 0.62350(18) 0.80899(10) 0.66442(9)
H15_4 H 0.6039 0.7833 0.6731
C28_4 C 0.69608(19) 0.90520(9) 0.70940(8)
C29_4 C 0.68428(19) 0.94837(9) 0.70298(9)
H16_4 H 0.6613 0.9577 0.6800
C30_4 C 0.70710(17) 0.97729(8) 0.73104(8)
C31_4 C 0.73995(17) 0.96564(9) 0.76450(8)
C32_4 C 0.75211(19) 0.92210(9) 0.77300(9)
C33_4 C 0.72746(18) 0.89311(9) 0.74443(9)
H17_4 H 0.7327 0.8638 0.7495
C34_4 C 0.78647(18) 0.90643(9) 0.80706(8)
C35_4 C 0.77506(18) 0.92009(10) 0.84510(9)
H18_4 H 0.7436 0.9417 0.8502
C36_4 C 0.81064(17) 0.90152(10) 0.87620(9)
H19_4 H 0.8021 0.9115 0.9022
C37_4 C 0.85487(19) 0.87133(9) 0.87220(8)
C38_4 C 0.87024(19) 0.85810(11) 0.83243(9)
H20_4 H 0.9038 0.8378 0.8273
C39_4 C 0.83328(19) 0.87660(10) 0.80150(9)
H21_4 H 0.8419 0.8675 0.7752
C40_4 C 0.89196(18) 0.85104(10) 0.90374(9)
Zr11_2 Zr 0.08612(3) 0.728746(13) -0.0000
O18_3 O 0.0000 0.72934(10) 0.03520(9)
O19_3 O 0.0000 0.84035(12) 0.03544(8)
O2_3 O 0.0000 0.72934(10) 0.96480(9)
O3_3 O 0.0000 0.84035(12) 0.96456(8)
O16_3 O 0.08755(13) 0.78450(7) 0.96512(6)
Zr11_3 Zr 0.08612(3) 0.728746(13) 1.0000
O21_3 O 0.06702(12) 0.74163(6) 0.89477(5)
Zr3_3 Zr 0.91388(3) 0.728746(13) -0.0000
O8_5 O 0.9320(2) 0.66000(10) -0.0000
O9_5 O 0.8035(2) 0.73288(11) -0.0000
O10_5 O 0.8032(2) 0.83539(11) -0.0000
O11_5 O 0.91714(17) 0.90810(9) -0.0000
Zr10_2 Zr 0.91388(3) 0.271254(13) -0.0000
O17_3 O 0.91245(13) 0.78450(7) 0.03488(6)
O18_4 O 1.0000 0.72934(10) 0.03520(9)
O19_4 O 1.0000 0.84035(12) 0.03544(8)
O20_3 O 0.88027(12) 0.70532(6) 0.05846(6)
H23 H 0.915037 0.918625 0.0276643
H25 H 0.78488 0.708955 0.0154186
H26 H 0.789422 0.808198 0.0121322
H27 H 0.784461 0.859207 0.0155139
H29 H 0.924716 0.648613 0.0270435
Zr3_4 Zr 0.91388(3) 0.728746(13) 1.0000
O1_5 O 0.91245(13) 0.78450(7) 0.96512(6)
O2_4 O 1.0000 0.72934(10) 0.96480(9)
O3_4 O 1.0000 0.84035(12) 0.96456(8)
O4_5 O 0.88027(12) 0.70532(6) 0.94154(6)
O5_5 O 0.93298(12) 0.74163(6) 0.89477(5)
O8_6 O 0.9320(2) 0.66000(10) 1.0000
O9_6 O 0.8035(2) 0.73288(11) 1.0000
O10_6 O 0.8032(2) 0.83539(11) 1.0000
O11_6 O 0.91714(17) 0.90810(9) 1.0000
N1_9 N 0.7395(2) 0.5000 0.71434(9)
H1_9 H 0.7176 0.5000 0.6918
C1_5 C 0.8960(2) 0.71252(10) 0.90597(9)
C2_5 C 0.87173(19) 0.68327(9) 0.87466(9)
C3_5 C 0.84082(19) 0.64659(10) 0.88702(9)
H2_5 H 0.8347 0.6411 0.9144
C4_5 C 0.81876(18) 0.61771(10) 0.85854(9)
H3_5 H 0.7975 0.5924 0.8668
C5_5 C 0.8275(2) 0.62538(9) 0.81852(8)
C6_5 C 0.8533(2) 0.66225(10) 0.80765(9)
H4_5 H 0.8561 0.6691 0.7803
C7_5 C 0.87650(18) 0.69101(10) 0.83558(9)
H5_5 H 0.8961 0.7167 0.8269
C8_5 C 0.80392(19) 0.59480(9) 0.79060(8)
C9_5 C 0.81572(19) 0.55163(9) 0.79702(9)
H6_5 H 0.8387 0.5423 0.8200
C10_5 C 0.79290(17) 0.52271(8) 0.76896(8)
C11_5 C 0.76005(17) 0.53436(9) 0.73550(8)
C12_5 C 0.74789(19) 0.57790(9) 0.72700(9)
C13_5 C 0.77254(18) 0.60689(9) 0.75557(9)
H7_5 H 0.7673 0.6362 0.7505
C14_5 C 0.71353(18) 0.59357(9) 0.69294(8)
C15_5 C 0.72494(18) 0.57991(10) 0.65490(9)
H8_5 H 0.7564 0.5583 0.6498
C16_5 C 0.68936(17) 0.59848(10) 0.62380(9)
H9_5 H 0.6979 0.5885 0.5978
C17_5 C 0.64513(19) 0.62867(9) 0.62780(8)
C18_5 C 0.62976(19) 0.64190(11) 0.66757(9)
H10_5 H 0.5962 0.6622 0.6727
C19_5 C 0.66672(19) 0.62340(10) 0.69850(9)
H11_5 H 0.6581 0.6325 0.7248
C20_5 C 0.60804(18) 0.64896(10) 0.59626(9)
O12_3 O 0.88027(12) 0.29468(6) 0.94154(6)
O13_3 O 0.93298(12) 0.25837(6) 0.89477(5)
C21_5 C 0.8960(2) 0.28748(10) 0.90597(9)
C22_5 C 0.87173(19) 0.31673(9) 0.87466(9)
C23_5 C 0.84082(19) 0.35341(10) 0.88702(9)
H12_5 H 0.8347 0.3589 0.9144
C24_5 C 0.81876(18) 0.38229(10) 0.85854(9)
H13_5 H 0.7975 0.4076 0.8668
C25_5 C 0.8275(2) 0.37462(9) 0.81852(8)
C26_5 C 0.8533(2) 0.33775(10) 0.80765(9)
H14_5 H 0.8561 0.3309 0.7803
C27_5 C 0.87650(18) 0.30899(10) 0.83558(9)
H15_5 H 0.8961 0.2833 0.8269
C28_5 C 0.80392(19) 0.40520(9) 0.79060(8)
C29_5 C 0.81572(19) 0.44837(9) 0.79702(9)
H16_5 H 0.8387 0.4577 0.8200
C30_5 C 0.79290(17) 0.47729(8) 0.76896(8)
C31_5 C 0.76005(17) 0.46564(9) 0.73550(8)
C32_5 C 0.74789(19) 0.42210(9) 0.72700(9)
C33_5 C 0.77254(18) 0.39311(9) 0.75557(9)
H17_5 H 0.7673 0.3638 0.7505
C34_5 C 0.71353(18) 0.40643(9) 0.69294(8)
C35_5 C 0.72494(18) 0.42009(10) 0.65490(9)
H18_5 H 0.7564 0.4417 0.6498
C36_5 C 0.68936(17) 0.40152(10) 0.62380(9)
H19_5 H 0.6979 0.4115 0.5978
C37_5 C 0.64513(19) 0.37133(9) 0.62780(8)
C38_5 C 0.62976(19) 0.35810(11) 0.66757(9)
H20_5 H 0.5962 0.3378 0.6727
C39_5 C 0.66672(19) 0.37660(10) 0.69850(9)
H21_5 H 0.6581 0.3675 0.7248
C40_5 C 0.60804(18) 0.35104(10) 0.59626(9)
Zr10_3 Zr 0.91388(3) 0.271254(13) 1.0000
H22 H 0.879194 0.919595 0.984718
H24 H 0.786957 0.731535 0.972346
H28 H 0.978354 0.654369 0.991729
Zr3_5 Zr 0.08612(3) 0.271254(13) -0.0000
O8_7 O 0.0680(2) 0.34000(10) -0.0000
O9_7 O 0.1965(2) 0.26712(11) -0.0000
O10_7 O 0.1968(2) 0.16461(11) -0.0000
O11_7 O 0.08286(17) 0.09190(9) -0.0000
O17_4 O 0.08755(13) 0.21550(7) 0.03488(6)
O18_5 O -0.0000 0.27066(10) 0.03520(9)
O19_5 O -0.0000 0.15965(12) 0.03544(8)
O20_4 O 0.11973(12) 0.29468(6) 0.05846(6)
H23_2 H 0.084963 0.0813755 0.0276643
H25_2 H 0.21512 0.291045 0.0154186
H26_2 H 0.210578 0.191802 0.0121322
H27_2 H 0.215539 0.140793 0.0155139
H29_2 H 0.0752839 0.351387 0.0270435
Zr3_6 Zr 0.08612(3) 0.271254(13) 1.0000
O1_6 O 0.08755(13) 0.21550(7) 0.96512(6)
O2_5 O -0.0000 0.27066(10) 0.96480(9)
O3_5 O -0.0000 0.15965(12) 0.96456(8)
O4_6 O 0.11973(12) 0.29468(6) 0.94154(6)
O5_6 O 0.06702(12) 0.25837(6) 0.89477(5)
O8_8 O 0.0680(2) 0.34000(10) 1.0000
O9_8 O 0.1965(2) 0.26712(11) 1.0000
O10_8 O 0.1968(2) 0.16461(11) 1.0000
O11_8 O 0.08286(17) 0.09190(9) 1.0000
N1_10 N 0.2605(2) 0.5000 0.71434(9)
H1_10 H 0.2824 0.5000 0.6918
C1_6 C 0.1040(2) 0.28748(10) 0.90597(9)
C2_6 C 0.12827(19) 0.31673(9) 0.87466(9)
C3_6 C 0.15918(19) 0.35341(10) 0.88702(9)
H2_6 H 0.1653 0.3589 0.9144
C4_6 C 0.18124(18) 0.38229(10) 0.85854(9)
H3_6 H 0.2025 0.4076 0.8668
C5_6 C 0.1725(2) 0.37462(9) 0.81852(8)
C6_6 C 0.1467(2) 0.33775(10) 0.80765(9)
H4_6 H 0.1439 0.3309 0.7803
C7_6 C 0.12350(18) 0.30899(10) 0.83558(9)
H5_6 H 0.1039 0.2833 0.8269
C8_6 C 0.19608(19) 0.40520(9) 0.79060(8)
C9_6 C 0.18428(19) 0.44837(9) 0.79702(9)
H6_6 H 0.1613 0.4577 0.8200
C10_6 C 0.20710(17) 0.47729(8) 0.76896(8)
C11_6 C 0.23995(17) 0.46564(9) 0.73550(8)
C12_6 C 0.25211(19) 0.42210(9) 0.72700(9)
C13_6 C 0.22746(18) 0.39311(9) 0.75557(9)
H7_6 H 0.2327 0.3638 0.7505
C14_6 C 0.28647(18) 0.40643(9) 0.69294(8)
C15_6 C 0.27506(18) 0.42009(10) 0.65490(9)
H8_6 H 0.2436 0.4417 0.6498
C16_6 C 0.31064(17) 0.40152(10) 0.62380(9)
H9_6 H 0.3021 0.4115 0.5978
C17_6 C 0.35487(19) 0.37133(9) 0.62780(8)
C18_6 C 0.37024(19) 0.35810(11) 0.66757(9)
H10_6 H 0.4038 0.3378 0.6727
C19_6 C 0.33328(19) 0.37660(10) 0.69850(9)
H11_6 H 0.3419 0.3675 0.7248
C20_6 C 0.39196(18) 0.35104(10) 0.59626(9)
O12_4 O 0.11973(12) 0.70532(6) 0.94154(6)
C21_6 C 0.1040(2) 0.71252(10) 0.90597(9)
C22_6 C 0.12827(19) 0.68327(9) 0.87466(9)
C23_6 C 0.15918(19) 0.64659(10) 0.88702(9)
H12_6 H 0.1653 0.6411 0.9144
C24_6 C 0.18124(18) 0.61771(10) 0.85854(9)
H13_6 H 0.2025 0.5924 0.8668
C25_6 C 0.1725(2) 0.62538(9) 0.81852(8)
C26_6 C 0.1467(2) 0.66225(10) 0.80765(9)
H14_6 H 0.1439 0.6691 0.7803
C27_6 C 0.12350(18) 0.69101(10) 0.83558(9)
H15_6 H 0.1039 0.7167 0.8269
C28_6 C 0.19608(19) 0.59480(9) 0.79060(8)
C29_6 C 0.18428(19) 0.55163(9) 0.79702(9)
H16_6 H 0.1613 0.5423 0.8200
C30_6 C 0.20710(17) 0.52271(8) 0.76896(8)
C31_6 C 0.23995(17) 0.53436(9) 0.73550(8)
C32_6 C 0.25211(19) 0.57790(9) 0.72700(9)
C33_6 C 0.22746(18) 0.60689(9) 0.75557(9)
H17_6 H 0.2327 0.6362 0.7505
C34_6 C 0.28647(18) 0.59357(9) 0.69294(8)
C35_6 C 0.27506(18) 0.57991(10) 0.65490(9)
H18_6 H 0.2436 0.5583 0.6498
C36_6 C 0.31064(17) 0.59848(10) 0.62380(9)
H19_6 H 0.3021 0.5885 0.5978
C37_6 C 0.35487(19) 0.62867(9) 0.62780(8)
C38_6 C 0.37024(19) 0.64190(11) 0.66757(9)
H20_6 H 0.4038 0.6622 0.6727
C39_6 C 0.33328(19) 0.62340(10) 0.69850(9)
H21_6 H 0.3419 0.6325 0.7248
C40_6 C 0.39196(18) 0.64896(10) 0.59626(9)
H22_2 H 0.120806 0.0804045 0.984718
H24_2 H 0.213043 0.268465 0.972346
H28_2 H 0.021646 0.345631 0.991729
O18_6 O 1.0000 0.27066(10) 0.03520(9)
O19_6 O 1.0000 0.15965(12) 0.03544(8)
O2_6 O 1.0000 0.27066(10) 0.96480(9)
O3_6 O 1.0000 0.15965(12) 0.96456(8)
O16_4 O 0.91245(13) 0.21550(7) 0.96512(6)
O21_4 O 0.06702(12) 0.25837(6) 0.10523(5)
O1_7 O 0.91245(13) 0.21550(7) 0.03488(6)
O4_7 O 0.88027(12) 0.29468(6) 0.05846(6)
O5_7 O 0.93298(12) 0.25837(6) 0.10523(5)
O8_9 O 0.9320(2) 0.34000(10) 0.0000
O9_9 O 0.8035(2) 0.26712(11) 0.0000
O10_9 O 0.8032(2) 0.16461(11) 0.0000
O11_9 O 0.91714(17) 0.09190(9) 0.0000
N1_11 N 0.7395(2) 0.5000 0.28566(9)
H1_11 H 0.7176 0.5000 0.3082
C1_7 C 0.8960(2) 0.28748(10) 0.09403(9)
C2_7 C 0.87173(19) 0.31673(9) 0.12534(9)
C3_7 C 0.84082(19) 0.35341(10) 0.11298(9)
H2_7 H 0.8347 0.3589 0.0856
C4_7 C 0.81876(18) 0.38229(10) 0.14146(9)
H3_7 H 0.7975 0.4076 0.1332
C5_7 C 0.8275(2) 0.37462(9) 0.18148(8)
C6_7 C 0.8533(2) 0.33775(10) 0.19235(9)
H4_7 H 0.8561 0.3309 0.2197
C7_7 C 0.87650(18) 0.30899(10) 0.16442(9)
H5_7 H 0.8961 0.2833 0.1731
C8_7 C 0.80392(19) 0.40520(9) 0.20940(8)
C9_7 C 0.81572(19) 0.44837(9) 0.20298(9)
H6_7 H 0.8387 0.4577 0.1800
C10_7 C 0.79290(17) 0.47729(8) 0.23104(8)
C11_7 C 0.76005(17) 0.46564(9) 0.26450(8)
C12_7 C 0.74789(19) 0.42210(9) 0.27300(9)
C13_7 C 0.77254(18) 0.39311(9) 0.24443(9)
H7_7 H 0.7673 0.3638 0.2495
C14_7 C 0.71353(18) 0.40643(9) 0.30706(8)
C15_7 C 0.72494(18) 0.42009(10) 0.34510(9)
H8_7 H 0.7564 0.4417 0.3502
C16_7 C 0.68936(17) 0.40152(10) 0.37620(9)
H9_7 H 0.6979 0.4115 0.4022
C17_7 C 0.64513(19) 0.37133(9) 0.37220(8)
C18_7 C 0.62976(19) 0.35810(11) 0.33243(9)
H10_7 H 0.5962 0.3378 0.3273
C19_7 C 0.66672(19) 0.37660(10) 0.30150(9)
H11_7 H 0.6581 0.3675 0.2752
C20_7 C 0.60804(18) 0.35104(10) 0.40374(9)
O13_4 O 0.93298(12) 0.74163(6) 0.10523(5)
C21_7 C 0.8960(2) 0.71252(10) 0.09403(9)
C22_7 C 0.87173(19) 0.68327(9) 0.12534(9)
C23_7 C 0.84082(19) 0.64659(10) 0.11298(9)
H12_7 H 0.8347 0.6411 0.0856
C24_7 C 0.81876(18) 0.61771(10) 0.14146(9)
H13_7 H 0.7975 0.5924 0.1332
C25_7 C 0.8275(2) 0.62538(9) 0.18148(8)
C26_7 C 0.8533(2) 0.66225(10) 0.19235(9)
H14_7 H 0.8561 0.6691 0.2197
C27_7 C 0.87650(18) 0.69101(10) 0.16442(9)
H15_7 H 0.8961 0.7167 0.1731
C28_7 C 0.80392(19) 0.59480(9) 0.20940(8)
C29_7 C 0.81572(19) 0.55163(9) 0.20298(9)
H16_7 H 0.8387 0.5423 0.1800
C30_7 C 0.79290(17) 0.52271(8) 0.23104(8)
C31_7 C 0.76005(17) 0.53436(9) 0.26450(8)
C32_7 C 0.74789(19) 0.57790(9) 0.27300(9)
C33_7 C 0.77254(18) 0.60689(9) 0.24443(9)
H17_7 H 0.7673 0.6362 0.2495
C34_7 C 0.71353(18) 0.59357(9) 0.30706(8)
C35_7 C 0.72494(18) 0.57991(10) 0.34510(9)
H18_7 H 0.7564 0.5583 0.3502
C36_7 C 0.68936(17) 0.59848(10) 0.37620(9)
H19_7 H 0.6979 0.5885 0.4022
C37_7 C 0.64513(19) 0.62867(9) 0.37220(8)
C38_7 C 0.62976(19) 0.64190(11) 0.33243(9)
H20_7 H 0.5962 0.6622 0.3273
C39_7 C 0.66672(19) 0.62340(10) 0.30150(9)
H21_7 H 0.6581 0.6325 0.2752
C40_7 C 0.60804(18) 0.64896(10) 0.40374(9)
H22_3 H 0.879194 0.0804045 0.0152821
H24_3 H 0.786957 0.268465 0.0276539
H28_3 H 0.978354 0.345631 0.00827065
O8_10 O 0.9320(2) 0.34000(10) 1.0000
O9_10 O 0.8035(2) 0.26712(11) 1.0000
O10_10 O 0.8032(2) 0.16461(11) 1.0000
O11_10 O 0.91714(17) 0.09190(9) 1.0000
H23_3 H 0.915037 0.0813755 0.972336
H25_3 H 0.78488 0.291045 0.984581
H26_3 H 0.789422 0.191802 0.987868
H27_3 H 0.784461 0.140793 0.984486
H29_3 H 0.924716 0.351387 0.972957
O1_8 O 0.08755(13) 0.78450(7) 0.03488(6)
O4_8 O 0.11973(12) 0.70532(6) 0.05846(6)
O5_8 O 0.06702(12) 0.74163(6) 0.10523(5)
O8_11 O 0.0680(2) 0.66000(10) 0.0000
O9_11 O 0.1965(2) 0.73288(11) 0.0000
O10_11 O 0.1968(2) 0.83539(11) 0.0000
O11_11 O 0.08286(17) 0.90810(9) 0.0000
N1_12 N 0.2605(2) 0.5000 0.28566(9)
H1_12 H 0.2824 0.5000 0.3082
C1_8 C 0.1040(2) 0.71252(10) 0.09403(9)
C2_8 C 0.12827(19) 0.68327(9) 0.12534(9)
C3_8 C 0.15918(19) 0.64659(10) 0.11298(9)
H2_8 H 0.1653 0.6411 0.0856
C4_8 C 0.18124(18) 0.61771(10) 0.14146(9)
H3_8 H 0.2025 0.5924 0.1332
C5_8 C 0.1725(2) 0.62538(9) 0.18148(8)
C6_8 C 0.1467(2) 0.66225(10) 0.19235(9)
H4_8 H 0.1439 0.6691 0.2197
C7_8 C 0.12350(18) 0.69101(10) 0.16442(9)
H5_8 H 0.1039 0.7167 0.1731
C8_8 C 0.19608(19) 0.59480(9) 0.20940(8)
C9_8 C 0.18428(19) 0.55163(9) 0.20298(9)
H6_8 H 0.1613 0.5423 0.1800
C10_8 C 0.20710(17) 0.52271(8) 0.23104(8)
C11_8 C 0.23995(17) 0.53436(9) 0.26450(8)
C12_8 C 0.25211(19) 0.57790(9) 0.27300(9)
C13_8 C 0.22746(18) 0.60689(9) 0.24443(9)
H7_8 H 0.2327 0.6362 0.2495
C14_8 C 0.28647(18) 0.59357(9) 0.30706(8)
C15_8 C 0.27506(18) 0.57991(10) 0.34510(9)
H8_8 H 0.2436 0.5583 0.3502
C16_8 C 0.31064(17) 0.59848(10) 0.37620(9)
H9_8 H 0.3021 0.5885 0.4022
C17_8 C 0.35487(19) 0.62867(9) 0.37220(8)
C18_8 C 0.37024(19) 0.64190(11) 0.33243(9)
H10_8 H 0.4038 0.6622 0.3273
C19_8 C 0.33328(19) 0.62340(10) 0.30150(9)
H11_8 H 0.3419 0.6325 0.2752
C20_8 C 0.39196(18) 0.64896(10) 0.40374(9)
C21_8 C 0.1040(2) 0.28748(10) 0.09403(9)
C22_8 C 0.12827(19) 0.31673(9) 0.12534(9)
C23_8 C 0.15918(19) 0.35341(10) 0.11298(9)
H12_8 H 0.1653 0.3589 0.0856
C24_8 C 0.18124(18) 0.38229(10) 0.14146(9)
H13_8 H 0.2025 0.4076 0.1332
C25_8 C 0.1725(2) 0.37462(9) 0.18148(8)
C26_8 C 0.1467(2) 0.33775(10) 0.19235(9)
H14_8 H 0.1439 0.3309 0.2197
C27_8 C 0.12350(18) 0.30899(10) 0.16442(9)
H15_8 H 0.1039 0.2833 0.1731
C28_8 C 0.19608(19) 0.40520(9) 0.20940(8)
C29_8 C 0.18428(19) 0.44837(9) 0.20298(9)
H16_8 H 0.1613 0.4577 0.1800
C30_8 C 0.20710(17) 0.47729(8) 0.23104(8)
C31_8 C 0.23995(17) 0.46564(9) 0.26450(8)
C32_8 C 0.25211(19) 0.42210(9) 0.27300(9)
C33_8 C 0.22746(18) 0.39311(9) 0.24443(9)
H17_8 H 0.2327 0.3638 0.2495
C34_8 C 0.28647(18) 0.40643(9) 0.30706(8)
C35_8 C 0.27506(18) 0.42009(10) 0.34510(9)
H18_8 H 0.2436 0.4417 0.3502
C36_8 C 0.31064(17) 0.40152(10) 0.37620(9)
H19_8 H 0.3021 0.4115 0.4022
C37_8 C 0.35487(19) 0.37133(9) 0.37220(8)
C38_8 C 0.37024(19) 0.35810(11) 0.33243(9)
H20_8 H 0.4038 0.3378 0.3273
C39_8 C 0.33328(19) 0.37660(10) 0.30150(9)
H21_8 H 0.3419 0.3675 0.2752
C40_8 C 0.39196(18) 0.35104(10) 0.40374(9)
H22_4 H 0.120806 0.919595 0.0152821
H24_4 H 0.213043 0.731535 0.0276539
H28_4 H 0.021646 0.654369 0.00827065
O8_12 O 0.0680(2) 0.66000(10) 1.0000
O9_12 O 0.1965(2) 0.73288(11) 1.0000
O10_12 O 0.1968(2) 0.83539(11) 1.0000
O11_12 O 0.08286(17) 0.90810(9) 1.0000
H23_4 H 0.084963 0.918625 0.972336
H25_4 H 0.21512 0.708955 0.984581
H26_4 H 0.210578 0.808198 0.987868
H27_4 H 0.215539 0.859207 0.984486
H29_4 H 0.0752839 0.648613 0.972957
H22_5 H 0.120806 0.0804045 0.0152821
H24_5 H 0.213043 0.268465 0.0276539
H28_5 H 0.021646 0.345631 0.00827065
H23_5 H 0.084963 0.0813755 0.972336
H25_5 H 0.21512 0.291045 0.984581
H26_5 H 0.210578 0.191802 0.987868
H27_5 H 0.215539 0.140793 0.984486
H29_5 H 0.0752839 0.351387 0.972957
H22_6 H 0.879194 0.919595 0.0152821
H24_6 H 0.786957 0.731535 0.0276539
H28_6 H 0.978354 0.654369 0.00827065
H23_6 H 0.915037 0.918625 0.972336
H25_6 H 0.78488 0.708955 0.984581
H26_6 H 0.789422 0.808198 0.987868
H27_6 H 0.784461 0.859207 0.984486
H29_6 H 0.924716 0.648613 0.972957
H23_7 H 0.084963 0.918625 0.0276643
H25_7 H 0.21512 0.708955 0.0154186
H26_7 H 0.210578 0.808198 0.0121322
H27_7 H 0.215539 0.859207 0.0155139
H29_7 H 0.0752839 0.648613 0.0270435
H22_7 H 0.120806 0.919595 0.984718
H24_7 H 0.213043 0.731535 0.972346
H28_7 H 0.021646 0.654369 0.991729
H23_8 H 0.915037 0.0813755 0.0276643
H25_8 H 0.78488 0.291045 0.0154186
H26_8 H 0.789422 0.191802 0.0121322
H27_8 H 0.784461 0.140793 0.0155139
H29_8 H 0.924716 0.351387 0.0270435
H22_8 H 0.879194 0.0804045 0.984718
H24_8 H 0.786957 0.268465 0.972346
H28_8 H 0.978354 0.345631 0.991729
loop_
_geom_bond_atom_site_label_1
_geom_bond_atom_site_label_2
_geom_bond_site_symmetry_1
_geom_bond_site_symmetry_2
Zr1 O1 1_555 1_555
Zr2 O1 1_555 1_555
Zr3 O1 1_555 1_555
O2 Zr1 1_555 1_555
O3 Zr1 1_555 1_555
O4 Zr3 1_555 1_555
O5 Zr1 1_555 1_555
O6 C20 1_555 1_555
O7 C20 1_555 1_555
O8 Zr3 1_555 1_555
O9 Zr3 1_555 1_555
O10 Zr2 1_555 1_555
O11 Zr2 1_555 1_555
N1 H1 1_555 1_555
C1 O4 1_555 1_555
C2 C1 1_555 1_555
C3 C2 1_555 1_555
H2 C3 1_555 1_555
C4 C3 1_555 1_555
H3 C4 1_555 1_555
C5 C4 1_555 1_555
C6 C5 1_555 1_555
H4 C6 1_555 1_555
C7 C2 1_555 1_555
H5 C7 1_555 1_555
C8 C5 1_555 1_555
C9 C8 1_555 1_555
H6 C9 1_555 1_555
C10 C9 1_555 1_555
C11 N1 1_555 1_555
C12 C11 1_555 1_555
C13 C8 1_555 1_555
H7 C13 1_555 1_555
C14 C12 1_555 1_555
C15 C14 1_555 1_555
H8 C15 1_555 1_555
C16 C15 1_555 1_555
H9 C16 1_555 1_555
C17 C16 1_555 1_555
C18 C17 1_555 1_555
H10 C18 1_555 1_555
C19 C14 1_555 1_555
H11 C19 1_555 1_555
C20 C17 1_555 1_555
O16 Zr1 1_555 1_555
Zr5 O6 1_555 1_555
Zr7 O3 1_555 1_555
Zr8 O7 1_555 1_555
Zr11 O2 1_555 1_555
O17 Zr2 1_555 1_555
O18 Zr3 1_555 1_555
O19 Zr2 1_555 1_555
O20 Zr3 1_555 1_555
O21 Zr1 1_555 1_555
O22 Zr1 1_555 1_555
O23 Zr1 1_555 1_555
O24 Zr2 1_555 1_555
O25 Zr2 1_555 1_555
Zr2 O3 1_555 1_555
Zr3 O2 1_555 1_555
Zr3 O17 1_555 1_555
O5 C1 1_555 1_555
C6 C7 1_555 1_555
C10 C11 1_555 1_555
C12 C13 1_555 1_555
C18 C19 1_555 1_555
O16 Zr7 1_555 1_555
O16 Zr11 1_555 1_555
Zr7 O19 1_555 1_555
Zr11 O18 1_555 1_555
N1_2 H1_2 1_555 1_555
O12 C21 1_555 1_555
O13 C21 1_555 1_555
O14 C40 1_555 1_555
O15 C40 1_555 1_555
C21 C22 1_555 1_555
C22 C23 1_555 1_555
C23 H12 1_555 1_555
C24 C23 1_555 1_555
H13 C24 1_555 1_555
C25 C24 1_555 1_555
C26 C25 1_555 1_555
H14 C26 1_555 1_555
C27 C22 1_555 1_555
H15 C27 1_555 1_555
C28 C25 1_555 1_555
C29 C28 1_555 1_555
H16 C29 1_555 1_555
C31 N1_2 1_555 1_555
C32 C31 1_555 1_555
C33 C28 1_555 1_555
H17 C33 1_555 1_555
C34 C32 1_555 1_555
C35 C34 1_555 1_555
H18 C35 1_555 1_555
C36 C35 1_555 1_555
H19 C36 1_555 1_555
C37 C36 1_555 1_555
C38 C37 1_555 1_555
H20 C38 1_555 1_555
C39 C34 1_555 1_555
H21 C39 1_555 1_555
C40 C37 1_555 1_555
Zr4 O13 1_555 1_555
Zr6 O14 1_555 1_555
Zr9 O15 1_555 1_555
Zr10 O12 1_555 1_555
C26 C27 1_555 1_555
C29 C30 1_555 1_555
C30 C31 1_555 1_555
C32 C33 1_555 1_555
C38 C39 1_555 1_555
N1_3 H1_3 1_555 1_555
O12_2 C21_2 1_555 1_555
O21 C21_2 1_555 1_555
O14_2 C40_2 1_555 1_555
O15_2 C40_2 1_555 1_555
C21_2 C22_2 1_555 1_555
C22_2 C23_2 1_555 1_555
C23_2 H12_2 1_555 1_555
C24_2 C23_2 1_555 1_555
H13_2 C24_2 1_555 1_555
C25_2 C24_2 1_555 1_555
C26_2 C25_2 1_555 1_555
H14_2 C26_2 1_555 1_555
C27_2 C22_2 1_555 1_555
H15_2 C27_2 1_555 1_555
C28_2 C25_2 1_555 1_555
C29_2 C28_2 1_555 1_555
H16_2 C29_2 1_555 1_555
C31_2 N1_3 1_555 1_555
C32_2 C31_2 1_555 1_555
C33_2 C28_2 1_555 1_555
H17_2 C33_2 1_555 1_555
C34_2 C32_2 1_555 1_555
C35_2 C34_2 1_555 1_555
H18_2 C35_2 1_555 1_555
C36_2 C35_2 1_555 1_555
H19_2 C36_2 1_555 1_555
C37_2 C36_2 1_555 1_555
C38_2 C37_2 1_555 1_555
H20_2 C38_2 1_555 1_555
C39_2 C34_2 1_555 1_555
H21_2 C39_2 1_555 1_555
C40_2 C37_2 1_555 1_555
Zr5_2 O14_2 1_555 1_555
Zr9_3 O15_2 1_555 1_555
Zr11 O12_2 1_555 1_555
C26_2 C27_2 1_555 1_555
C29_2 C30_2 1_555 1_555
C30_2 C31_2 1_555 1_555
C32_2 C33_2 1_555 1_555
C38_2 C39_2 1_555 1_555
Zr4 O1_2 1_555 1_555
Zr2_2 O1_2 1_555 1_555
Zr3_2 O1_2 1_555 1_555
O2_2 Zr4 1_555 1_555
O3_2 Zr4 1_555 1_555
O4_2 Zr3_2 1_555 1_555
O5_2 Zr4 1_555 1_555
O6_2 C20_2 1_555 1_555
O7_2 C20_2 1_555 1_555
O8_2 Zr3_2 1_555 1_555
O9_2 Zr3_2 1_555 1_555
O10_2 Zr2_2 1_555 1_555
O11_2 Zr2_2 1_555 1_555
N1_4 H1_4 1_555 1_555
C1_2 O4_2 1_555 1_555
C2_2 C1_2 1_555 1_555
C3_2 C2_2 1_555 1_555
H2_2 C3_2 1_555 1_555
C4_2 C3_2 1_555 1_555
H3_2 C4_2 1_555 1_555
C5_2 C4_2 1_555 1_555
C6_2 C5_2 1_555 1_555
H4_2 C6_2 1_555 1_555
C7_2 C2_2 1_555 1_555
H5_2 C7_2 1_555 1_555
C8_2 C5_2 1_555 1_555
C9_2 C8_2 1_555 1_555
H6_2 C9_2 1_555 1_555
C10_2 C9_2 1_555 1_555
C11_2 N1_4 1_555 1_555
C12_2 C11_2 1_555 1_555
C13_2 C8_2 1_555 1_555
H7_2 C13_2 1_555 1_555
C14_2 C12_2 1_555 1_555
C15_2 C14_2 1_555 1_555
H8_2 C15_2 1_555 1_555
C16_2 C15_2 1_555 1_555
H9_2 C16_2 1_555 1_555
C17_2 C16_2 1_555 1_555
C18_2 C17_2 1_555 1_555
H10_2 C18_2 1_555 1_555
C19_2 C14_2 1_555 1_555
H11_2 C19_2 1_555 1_555
C20_2 C17_2 1_555 1_555
O16_2 Zr4 1_555 1_555
Zr6_2 O6_2 1_555 1_555
Zr7_2 O3_2 1_555 1_555
Zr8_3 O7_2 1_555 1_555
Zr10 O2_2 1_555 1_555
O17_2 Zr2_2 1_555 1_555
O18_2 Zr3_2 1_555 1_555
O19_2 Zr2_2 1_555 1_555
O20_2 Zr3_2 1_555 1_555
O22_2 Zr4 1_555 1_555
O23_2 Zr4 1_555 1_555
O24_2 Zr2_2 1_555 1_555
O25_2 Zr2_2 1_555 1_555
Zr2_2 O3_2 1_555 1_555
Zr3_2 O2_2 1_555 1_555
Zr3_2 O17_2 1_555 1_555
O5_2 C1_2 1_555 1_555
C6_2 C7_2 1_555 1_555
C10_2 C11_2 1_555 1_555
C12_2 C13_2 1_555 1_555
C18_2 C19_2 1_555 1_555
O16_2 Zr7_2 1_555 1_555
O16_2 Zr10 1_555 1_555
Zr7_2 O19_2 1_555 1_555
Zr10 O18_2 1_555 1_555
N1_5 H1_5 1_555 1_555
O20 C21_3 1_555 1_555
O13_2 C21_3 1_555 1_555
O14_3 C40_3 1_555 1_555
O15_3 C40_3 1_555 1_555
C21_3 C22_3 1_555 1_555
C22_3 C23_3 1_555 1_555
C23_3 H12_3 1_555 1_555
C24_3 C23_3 1_555 1_555
H13_3 C24_3 1_555 1_555
C25_3 C24_3 1_555 1_555
C26_3 C25_3 1_555 1_555
H14_3 C26_3 1_555 1_555
C27_3 C22_3 1_555 1_555
H15_3 C27_3 1_555 1_555
C28_3 C25_3 1_555 1_555
C29_3 C28_3 1_555 1_555
H16_3 C29_3 1_555 1_555
C31_3 N1_5 1_555 1_555
C32_3 C31_3 1_555 1_555
C33_3 C28_3 1_555 1_555
H17_3 C33_3 1_555 1_555
C34_3 C32_3 1_555 1_555
C35_3 C34_3 1_555 1_555
H18_3 C35_3 1_555 1_555
C36_3 C35_3 1_555 1_555
H19_3 C36_3 1_555 1_555
C37_3 C36_3 1_555 1_555
C38_3 C37_3 1_555 1_555
H20_3 C38_3 1_555 1_555
C39_3 C34_3 1_555 1_555
H21_3 C39_3 1_555 1_555
C40_3 C37_3 1_555 1_555
Zr4_2 O13_2 1_555 1_555
Zr6_3 O14_3 1_555 1_555
Zr8_2 O15_3 1_555 1_555
C26_3 C27_3 1_555 1_555
C29_3 C30_3 1_555 1_555
C30_3 C31_3 1_555 1_555
C32_3 C33_3 1_555 1_555
C38_3 C39_3 1_555 1_555
Zr1_2 O1_3 1_555 1_555
Zr7_2 O1_3 1_555 1_555
Zr10 O1_3 1_555 1_555
O18_2 Zr1_2 1_555 1_555
O19_2 Zr1_2 1_555 1_555
O4_3 Zr10 1_555 1_555
O5_3 Zr1_2 1_555 1_555
O6_3 C20_3 1_555 1_555
O7_3 C20_3 1_555 1_555
O8_3 Zr10 1_555 1_555
O9_3 Zr10 1_555 1_555
O10_3 Zr7_2 1_555 1_555
O11_3 Zr7_2 1_555 1_555
N1_6 H1_6 1_555 1_555
C1_3 O4_3 1_555 1_555
C2_3 C1_3 1_555 1_555
C3_3 C2_3 1_555 1_555
H2_3 C3_3 1_555 1_555
C4_3 C3_3 1_555 1_555
H3_3 C4_3 1_555 1_555
C5_3 C4_3 1_555 1_555
C6_3 C5_3 1_555 1_555
H4_3 C6_3 1_555 1_555
C7_3 C2_3 1_555 1_555
H5_3 C7_3 1_555 1_555
C8_3 C5_3 1_555 1_555
C9_3 C8_3 1_555 1_555
H6_3 C9_3 1_555 1_555
C10_3 C9_3 1_555 1_555
C11_3 N1_6 1_555 1_555
C12_3 C11_3 1_555 1_555
C13_3 C8_3 1_555 1_555
H7_3 C13_3 1_555 1_555
C14_3 C12_3 1_555 1_555
C15_3 C14_3 1_555 1_555
H8_3 C15_3 1_555 1_555
C16_3 C15_3 1_555 1_555
H9_3 C16_3 1_555 1_555
C17_3 C16_3 1_555 1_555
C18_3 C17_3 1_555 1_555
H10_3 C18_3 1_555 1_555
C19_3 C14_3 1_555 1_555
H11_3 C19_3 1_555 1_555
C20_3 C17_3 1_555 1_555
O17_2 Zr1_2 1_555 1_555
Zr5_3 O6_3 1_555 1_555
Zr9_2 O7_3 1_555 1_555
O21_2 Zr1_2 1_555 1_555
O22_3 Zr1_2 1_555 1_555
O23_3 Zr1_2 1_555 1_555
O24_3 Zr7_2 1_555 1_555
O25_3 Zr7_2 1_555 1_555
O5_3 C1_3 1_555 1_555
C6_3 C7_3 1_555 1_555
C10_3 C11_3 1_555 1_555
C12_3 C13_3 1_555 1_555
C18_3 C19_3 1_555 1_555
Zr4_2 O1_4 1_555 1_555
Zr7 O1_4 1_555 1_555
Zr11 O1_4 1_555 1_555
O18 Zr4_2 1_555 1_555
O19 Zr4_2 1_555 1_555
O4_4 Zr11 1_555 1_555
O5_4 Zr4_2 1_555 1_555
O6_4 C20_4 1_555 1_555
O7_4 C20_4 1_555 1_555
O8_4 Zr11 1_555 1_555
O9_4 Zr11 1_555 1_555
O10_4 Zr7 1_555 1_555
O11_4 Zr7 1_555 1_555
N1_7 H1_7 1_555 1_555
C1_4 O4_4 1_555 1_555
C2_4 C1_4 1_555 1_555
C3_4 C2_4 1_555 1_555
H2_4 C3_4 1_555 1_555
C4_4 C3_4 1_555 1_555
H3_4 C4_4 1_555 1_555
C5_4 C4_4 1_555 1_555
C6_4 C5_4 1_555 1_555
H4_4 C6_4 1_555 1_555
C7_4 C2_4 1_555 1_555
H5_4 C7_4 1_555 1_555
C8_4 C5_4 1_555 1_555
C9_4 C8_4 1_555 1_555
H6_4 C9_4 1_555 1_555
C10_4 C9_4 1_555 1_555
C11_4 N1_7 1_555 1_555
C12_4 C11_4 1_555 1_555
C13_4 C8_4 1_555 1_555
H7_4 C13_4 1_555 1_555
C14_4 C12_4 1_555 1_555
C15_4 C14_4 1_555 1_555
H8_4 C15_4 1_555 1_555
C16_4 C15_4 1_555 1_555
H9_4 C16_4 1_555 1_555
C17_4 C16_4 1_555 1_555
C18_4 C17_4 1_555 1_555
H10_4 C18_4 1_555 1_555
C19_4 C14_4 1_555 1_555
H11_4 C19_4 1_555 1_555
C20_4 C17_4 1_555 1_555
O17 Zr4_2 1_555 1_555
Zr6_4 O6_4 1_555 1_555
Zr9_4 O7_4 1_555 1_555
O22_4 Zr4_2 1_555 1_555
O23_4 Zr4_2 1_555 1_555
O24_4 Zr7 1_555 1_555
O25_4 Zr7 1_555 1_555
O5_4 C1_4 1_555 1_555
C6_4 C7_4 1_555 1_555
C10_4 C11_4 1_555 1_555
C12_4 C13_4 1_555 1_555
C18_4 C19_4 1_555 1_555
N1_8 H1_8 1_555 1_555
O20_2 C21_4 1_555 1_555
O21_2 C21_4 1_555 1_555
O14_4 C40_4 1_555 1_555
O15_4 C40_4 1_555 1_555
C21_4 C22_4 1_555 1_555
C22_4 C23_4 1_555 1_555
C23_4 H12_4 1_555 1_555
C24_4 C23_4 1_555 1_555
H13_4 C24_4 1_555 1_555
C25_4 C24_4 1_555 1_555
C26_4 C25_4 1_555 1_555
H14_4 C26_4 1_555 1_555
C27_4 C22_4 1_555 1_555
H15_4 C27_4 1_555 1_555
C28_4 C25_4 1_555 1_555
C29_4 C28_4 1_555 1_555
H16_4 C29_4 1_555 1_555
C31_4 N1_8 1_555 1_555
C32_4 C31_4 1_555 1_555
C33_4 C28_4 1_555 1_555
H17_4 C33_4 1_555 1_555
C34_4 C32_4 1_555 1_555
C35_4 C34_4 1_555 1_555
H18_4 C35_4 1_555 1_555
C36_4 C35_4 1_555 1_555
H19_4 C36_4 1_555 1_555
C37_4 C36_4 1_555 1_555
C38_4 C37_4 1_555 1_555
H20_4 C38_4 1_555 1_555
C39_4 C34_4 1_555 1_555
H21_4 C39_4 1_555 1_555
C40_4 C37_4 1_555 1_555
Zr5_4 O14_4 1_555 1_555
Zr8_4 O15_4 1_555 1_555
C26_4 C27_4 1_555 1_555
C29_4 C30_4 1_555 1_555
C30_4 C31_4 1_555 1_555
C32_4 C33_4 1_555 1_555
C38_4 C39_4 1_555 1_555
Zr9 O19_3 1_555 1_555
Zr11_2 O18_3 1_555 1_555
O2_3 Zr5_3 1_555 1_555
O3_3 Zr5_3 1_555 1_555
O16_3 Zr5_3 1_555 1_555
Zr9_2 O3_3 1_555 1_555
Zr11_3 O2_3 1_555 1_555
O21_3 Zr5_3 1_555 1_555
O16_3 Zr9_2 1_555 1_555
O16_3 Zr11_3 1_555 1_555
O8_5 Zr3_3 1_555 1_555
O9_5 Zr3_3 1_555 1_555
O10_5 Zr8_3 1_555 1_555
O11_5 Zr8_3 1_555 1_555
O17_3 Zr8_3 1_555 1_555
O18_4 Zr3_3 1_555 1_555
O19_4 Zr8_3 1_555 1_555
O20_3 Zr3_3 1_555 1_555
Zr3_3 O17_3 1_555 1_555
O11_5 H23 1_555 1_555
O9_5 H25 1_555 1_555
O10_5 H26 1_555 1_555
O10_5 H27 1_555 1_555
O8_5 H29 1_555 1_555
Zr5_4 O1_5 1_555 1_555
Zr8_4 O1_5 1_555 1_555
Zr3_4 O1_5 1_555 1_555
O2_4 Zr5_4 1_555 1_555
O3_4 Zr5_4 1_555 1_555
O4_5 Zr3_4 1_555 1_555
O5_5 Zr5_4 1_555 1_555
O22_3 C20_5 1_555 1_555
O24_2 C20_5 1_555 1_555
O8_6 Zr3_4 1_555 1_555
O9_6 Zr3_4 1_555 1_555
O10_6 Zr8_4 1_555 1_555
O11_6 Zr8_4 1_555 1_555
N1_9 H1_9 1_555 1_555
C1_5 O4_5 1_555 1_555
C2_5 C1_5 1_555 1_555
C3_5 C2_5 1_555 1_555
H2_5 C3_5 1_555 1_555
C4_5 C3_5 1_555 1_555
H3_5 C4_5 1_555 1_555
C5_5 C4_5 1_555 1_555
C6_5 C5_5 1_555 1_555
H4_5 C6_5 1_555 1_555
C7_5 C2_5 1_555 1_555
H5_5 C7_5 1_555 1_555
C8_5 C5_5 1_555 1_555
C9_5 C8_5 1_555 1_555
H6_5 C9_5 1_555 1_555
C10_5 C9_5 1_555 1_555
C11_5 N1_9 1_555 1_555
C12_5 C11_5 1_555 1_555
C13_5 C8_5 1_555 1_555
H7_5 C13_5 1_555 1_555
C14_5 C12_5 1_555 1_555
C15_5 C14_5 1_555 1_555
H8_5 C15_5 1_555 1_555
C16_5 C15_5 1_555 1_555
H9_5 C16_5 1_555 1_555
C17_5 C16_5 1_555 1_555
C18_5 C17_5 1_555 1_555
H10_5 C18_5 1_555 1_555
C19_5 C14_5 1_555 1_555
H11_5 C19_5 1_555 1_555
C20_5 C17_5 1_555 1_555
O12_3 C21_5 1_555 1_555
O13_3 C21_5 1_555 1_555
O23_4 C40_5 1_555 1_555
O25_4 C40_5 1_555 1_555
C21_5 C22_5 1_555 1_555
C22_5 C23_5 1_555 1_555
C23_5 H12_5 1_555 1_555
C24_5 C23_5 1_555 1_555
H13_5 C24_5 1_555 1_555
C25_5 C24_5 1_555 1_555
C26_5 C25_5 1_555 1_555
H14_5 C26_5 1_555 1_555
C27_5 C22_5 1_555 1_555
H15_5 C27_5 1_555 1_555
C28_5 C25_5 1_555 1_555
C29_5 C28_5 1_555 1_555
H16_5 C29_5 1_555 1_555
C30_5 C10_5 1_555 1_555
C31_5 N1_9 1_555 1_555
C32_5 C31_5 1_555 1_555
C33_5 C28_5 1_555 1_555
H17_5 C33_5 1_555 1_555
C34_5 C32_5 1_555 1_555
C35_5 C34_5 1_555 1_555
H18_5 C35_5 1_555 1_555
C36_5 C35_5 1_555 1_555
H19_5 C36_5 1_555 1_555
C37_5 C36_5 1_555 1_555
C38_5 C37_5 1_555 1_555
H20_5 C38_5 1_555 1_555
C39_5 C34_5 1_555 1_555
H21_5 C39_5 1_555 1_555
C40_5 C37_5 1_555 1_555
Zr6_4 O13_3 1_555 1_555
Zr10_3 O12_3 1_555 1_555
Zr8_4 O3_4 1_555 1_555
Zr3_4 O2_4 1_555 1_555
O5_5 C1_5 1_555 1_555
C6_5 C7_5 1_555 1_555
C10_5 C11_5 1_555 1_555
C12_5 C13_5 1_555 1_555
C18_5 C19_5 1_555 1_555
C26_5 C27_5 1_555 1_555
C29_5 C30_5 1_555 1_555
C30_5 C31_5 1_555 1_555
C32_5 C33_5 1_555 1_555
C38_5 C39_5 1_555 1_555
O11_6 H22 1_555 1_555
O9_6 H24 1_555 1_555
O8_6 H28 1_555 1_555
O8_7 Zr3_5 1_555 1_555
O9_7 Zr3_5 1_555 1_555
O10_7 Zr8 1_555 1_555
O11_7 Zr8 1_555 1_555
O17_4 Zr8 1_555 1_555
O18_5 Zr3_5 1_555 1_555
O19_5 Zr8 1_555 1_555
O20_4 Zr3_5 1_555 1_555
Zr3_5 O17_4 1_555 1_555
O11_7 H23_2 1_555 1_555
O9_7 H25_2 1_555 1_555
O10_7 H26_2 1_555 1_555
O10_7 H27_2 1_555 1_555
O8_7 H29_2 1_555 1_555
Zr6_3 O1_6 1_555 1_555
Zr8_2 O1_6 1_555 1_555
Zr3_6 O1_6 1_555 1_555
O2_5 Zr6_3 1_555 1_555
O3_5 Zr6_3 1_555 1_555
O4_6 Zr3_6 1_555 1_555
O5_6 Zr6_3 1_555 1_555
O22_4 C20_6 1_555 1_555
O24 C20_6 1_555 1_555
O8_8 Zr3_6 1_555 1_555
O9_8 Zr3_6 1_555 1_555
O10_8 Zr8_2 1_555 1_555
O11_8 Zr8_2 1_555 1_555
N1_10 H1_10 1_555 1_555
C1_6 O4_6 1_555 1_555
C2_6 C1_6 1_555 1_555
C3_6 C2_6 1_555 1_555
H2_6 C3_6 1_555 1_555
C4_6 C3_6 1_555 1_555
H3_6 C4_6 1_555 1_555
C5_6 C4_6 1_555 1_555
C6_6 C5_6 1_555 1_555
H4_6 C6_6 1_555 1_555
C7_6 C2_6 1_555 1_555
H5_6 C7_6 1_555 1_555
C8_6 C5_6 1_555 1_555
C9_6 C8_6 1_555 1_555
H6_6 C9_6 1_555 1_555
C10_6 C9_6 1_555 1_555
C11_6 N1_10 1_555 1_555
C12_6 C11_6 1_555 1_555
C13_6 C8_6 1_555 1_555
H7_6 C13_6 1_555 1_555
C14_6 C12_6 1_555 1_555
C15_6 C14_6 1_555 1_555
H8_6 C15_6 1_555 1_555
C16_6 C15_6 1_555 1_555
H9_6 C16_6 1_555 1_555
C17_6 C16_6 1_555 1_555
C18_6 C17_6 1_555 1_555
H10_6 C18_6 1_555 1_555
C19_6 C14_6 1_555 1_555
H11_6 C19_6 1_555 1_555
C20_6 C17_6 1_555 1_555
O12_4 C21_6 1_555 1_555
O21_3 C21_6 1_555 1_555
O23_3 C40_6 1_555 1_555
O25_3 C40_6 1_555 1_555
C21_6 C22_6 1_555 1_555
C22_6 C23_6 1_555 1_555
C23_6 H12_6 1_555 1_555
C24_6 C23_6 1_555 1_555
H13_6 C24_6 1_555 1_555
C25_6 C24_6 1_555 1_555
C26_6 C25_6 1_555 1_555
H14_6 C26_6 1_555 1_555
C27_6 C22_6 1_555 1_555
H15_6 C27_6 1_555 1_555
C28_6 C25_6 1_555 1_555
C29_6 C28_6 1_555 1_555
H16_6 C29_6 1_555 1_555
C30_6 C10_6 1_555 1_555
C31_6 N1_10 1_555 1_555
C32_6 C31_6 1_555 1_555
C33_6 C28_6 1_555 1_555
H17_6 C33_6 1_555 1_555
C34_6 C32_6 1_555 1_555
C35_6 C34_6 1_555 1_555
H18_6 C35_6 1_555 1_555
C36_6 C35_6 1_555 1_555
H19_6 C36_6 1_555 1_555
C37_6 C36_6 1_555 1_555
C38_6 C37_6 1_555 1_555
H20_6 C38_6 1_555 1_555
C39_6 C34_6 1_555 1_555
H21_6 C39_6 1_555 1_555
C40_6 C37_6 1_555 1_555
Zr11_3 O12_4 1_555 1_555
Zr8_2 O3_5 1_555 1_555
Zr3_6 O2_5 1_555 1_555
O5_6 C1_6 1_555 1_555
C6_6 C7_6 1_555 1_555
C10_6 C11_6 1_555 1_555
C12_6 C13_6 1_555 1_555
C18_6 C19_6 1_555 1_555
C26_6 C27_6 1_555 1_555
C29_6 C30_6 1_555 1_555
C30_6 C31_6 1_555 1_555
C32_6 C33_6 1_555 1_555
C38_6 C39_6 1_555 1_555
O11_8 H22_2 1_555 1_555
O9_8 H24_2 1_555 1_555
O8_8 H28_2 1_555 1_555
Zr9_3 O19_6 1_555 1_555
Zr10_2 O18_6 1_555 1_555
O2_6 Zr6_4 1_555 1_555
O3_6 Zr6_4 1_555 1_555
O16_4 Zr6_4 1_555 1_555
Zr9_4 O3_6 1_555 1_555
Zr10_3 O2_6 1_555 1_555
O16_4 Zr9_4 1_555 1_555
O16_4 Zr10_3 1_555 1_555
O18_5 Zr5 1_555 1_555
O19_5 Zr5 1_555 1_555
O17_4 Zr5 1_555 1_555
O21_4 Zr5 1_555 1_555
Zr5_2 O1_7 1_555 1_555
Zr9_3 O1_7 1_555 1_555
Zr10_2 O1_7 1_555 1_555
O18_6 Zr5_2 1_555 1_555
O19_6 Zr5_2 1_555 1_555
O4_7 Zr10_2 1_555 1_555
O5_7 Zr5_2 1_555 1_555
O22 C20_7 1_555 1_555
O24_4 C20_7 1_555 1_555
O8_9 Zr10_2 1_555 1_555
O9_9 Zr10_2 1_555 1_555
O10_9 Zr9_3 1_555 1_555
O11_9 Zr9_3 1_555 1_555
N1_11 H1_11 1_555 1_555
C1_7 O4_7 1_555 1_555
C2_7 C1_7 1_555 1_555
C3_7 C2_7 1_555 1_555
H2_7 C3_7 1_555 1_555
C4_7 C3_7 1_555 1_555
H3_7 C4_7 1_555 1_555
C5_7 C4_7 1_555 1_555
C6_7 C5_7 1_555 1_555
H4_7 C6_7 1_555 1_555
C7_7 C2_7 1_555 1_555
H5_7 C7_7 1_555 1_555
C8_7 C5_7 1_555 1_555
C9_7 C8_7 1_555 1_555
H6_7 C9_7 1_555 1_555
C10_7 C9_7 1_555 1_555
C11_7 N1_11 1_555 1_555
C12_7 C11_7 1_555 1_555
C13_7 C8_7 1_555 1_555
H7_7 C13_7 1_555 1_555
C14_7 C12_7 1_555 1_555
C15_7 C14_7 1_555 1_555
H8_7 C15_7 1_555 1_555
C16_7 C15_7 1_555 1_555
H9_7 C16_7 1_555 1_555
C17_7 C16_7 1_555 1_555
C18_7 C17_7 1_555 1_555
H10_7 C18_7 1_555 1_555
C19_7 C14_7 1_555 1_555
H11_7 C19_7 1_555 1_555
C20_7 C17_7 1_555 1_555
O20_3 C21_7 1_555 1_555
O13_4 C21_7 1_555 1_555
O23_2 C40_7 1_555 1_555
O25_2 C40_7 1_555 1_555
C21_7 C22_7 1_555 1_555
C22_7 C23_7 1_555 1_555
C23_7 H12_7 1_555 1_555
C24_7 C23_7 1_555 1_555
H13_7 C24_7 1_555 1_555
C25_7 C24_7 1_555 1_555
C26_7 C25_7 1_555 1_555
H14_7 C26_7 1_555 1_555
C27_7 C22_7 1_555 1_555
H15_7 C27_7 1_555 1_555
C28_7 C25_7 1_555 1_555
C29_7 C28_7 1_555 1_555
H16_7 C29_7 1_555 1_555
C30_7 C10_7 1_555 1_555
C31_7 N1_11 1_555 1_555
C32_7 C31_7 1_555 1_555
C33_7 C28_7 1_555 1_555
H17_7 C33_7 1_555 1_555
C34_7 C32_7 1_555 1_555
C35_7 C34_7 1_555 1_555
H18_7 C35_7 1_555 1_555
C36_7 C35_7 1_555 1_555
H19_7 C36_7 1_555 1_555
C37_7 C36_7 1_555 1_555
C38_7 C37_7 1_555 1_555
H20_7 C38_7 1_555 1_555
C39_7 C34_7 1_555 1_555
H21_7 C39_7 1_555 1_555
C40_7 C37_7 1_555 1_555
Zr6_2 O13_4 1_555 1_555
O5_7 C1_7 1_555 1_555
C6_7 C7_7 1_555 1_555
C10_7 C11_7 1_555 1_555
C12_7 C13_7 1_555 1_555
C18_7 C19_7 1_555 1_555
C26_7 C27_7 1_555 1_555
C29_7 C30_7 1_555 1_555
C30_7 C31_7 1_555 1_555
C32_7 C33_7 1_555 1_555
C38_7 C39_7 1_555 1_555
O11_9 H22_3 1_555 1_555
O9_9 H24_3 1_555 1_555
O8_9 H28_3 1_555 1_555
O8_10 Zr10_3 1_555 1_555
O9_10 Zr10_3 1_555 1_555
O10_10 Zr9_4 1_555 1_555
O11_10 Zr9_4 1_555 1_555
O11_10 H23_3 1_555 1_555
O9_10 H25_3 1_555 1_555
O10_10 H26_3 1_555 1_555
O10_10 H27_3 1_555 1_555
O8_10 H29_3 1_555 1_555
Zr6 O1_8 1_555 1_555
Zr9 O1_8 1_555 1_555
Zr11_2 O1_8 1_555 1_555
O18_3 Zr6 1_555 1_555
O19_3 Zr6 1_555 1_555
O4_8 Zr11_2 1_555 1_555
O5_8 Zr6 1_555 1_555
O22_2 C20_8 1_555 1_555
O24_3 C20_8 1_555 1_555
O8_11 Zr11_2 1_555 1_555
O9_11 Zr11_2 1_555 1_555
O10_11 Zr9 1_555 1_555
O11_11 Zr9 1_555 1_555
N1_12 H1_12 1_555 1_555
C1_8 O4_8 1_555 1_555
C2_8 C1_8 1_555 1_555
C3_8 C2_8 1_555 1_555
H2_8 C3_8 1_555 1_555
C4_8 C3_8 1_555 1_555
H3_8 C4_8 1_555 1_555
C5_8 C4_8 1_555 1_555
C6_8 C5_8 1_555 1_555
H4_8 C6_8 1_555 1_555
C7_8 C2_8 1_555 1_555
H5_8 C7_8 1_555 1_555
C8_8 C5_8 1_555 1_555
C9_8 C8_8 1_555 1_555
H6_8 C9_8 1_555 1_555
C10_8 C9_8 1_555 1_555
C11_8 N1_12 1_555 1_555
C12_8 C11_8 1_555 1_555
C13_8 C8_8 1_555 1_555
H7_8 C13_8 1_555 1_555
C14_8 C12_8 1_555 1_555
C15_8 C14_8 1_555 1_555
H8_8 C15_8 1_555 1_555
C16_8 C15_8 1_555 1_555
H9_8 C16_8 1_555 1_555
C17_8 C16_8 1_555 1_555
C18_8 C17_8 1_555 1_555
H10_8 C18_8 1_555 1_555
C19_8 C14_8 1_555 1_555
H11_8 C19_8 1_555 1_555
C20_8 C17_8 1_555 1_555
O20_4 C21_8 1_555 1_555
O21_4 C21_8 1_555 1_555
O23 C40_8 1_555 1_555
O25 C40_8 1_555 1_555
C21_8 C22_8 1_555 1_555
C22_8 C23_8 1_555 1_555
C23_8 H12_8 1_555 1_555
C24_8 C23_8 1_555 1_555
H13_8 C24_8 1_555 1_555
C25_8 C24_8 1_555 1_555
C26_8 C25_8 1_555 1_555
H14_8 C26_8 1_555 1_555
C27_8 C22_8 1_555 1_555
H15_8 C27_8 1_555 1_555
C28_8 C25_8 1_555 1_555
C29_8 C28_8 1_555 1_555
H16_8 C29_8 1_555 1_555
C30_8 C10_8 1_555 1_555
C31_8 N1_12 1_555 1_555
C32_8 C31_8 1_555 1_555
C33_8 C28_8 1_555 1_555
H17_8 C33_8 1_555 1_555
C34_8 C32_8 1_555 1_555
C35_8 C34_8 1_555 1_555
H18_8 C35_8 1_555 1_555
C36_8 C35_8 1_555 1_555
H19_8 C36_8 1_555 1_555
C37_8 C36_8 1_555 1_555
C38_8 C37_8 1_555 1_555
H20_8 C38_8 1_555 1_555
C39_8 C34_8 1_555 1_555
H21_8 C39_8 1_555 1_555
C40_8 C37_8 1_555 1_555
O5_8 C1_8 1_555 1_555
C6_8 C7_8 1_555 1_555
C10_8 C11_8 1_555 1_555
C12_8 C13_8 1_555 1_555
C18_8 C19_8 1_555 1_555
C26_8 C27_8 1_555 1_555
C29_8 C30_8 1_555 1_555
C30_8 C31_8 1_555 1_555
C32_8 C33_8 1_555 1_555
C38_8 C39_8 1_555 1_555
O11_11 H22_4 1_555 1_555
O9_11 H24_4 1_555 1_555
O8_11 H28_4 1_555 1_555
O8_12 Zr11_3 1_555 1_555
O9_12 Zr11_3 1_555 1_555
O10_12 Zr9_2 1_555 1_555
O11_12 Zr9_2 1_555 1_555
O11_12 H23_4 1_555 1_555
O9_12 H25_4 1_555 1_555
O10_12 H26_4 1_555 1_555
O10_12 H27_4 1_555 1_555
O8_12 H29_4 1_555 1_555
O18_4 Zr6_2 1_555 1_555
O19_4 Zr6_2 1_555 1_555
O17_3 Zr6_2 1_555 1_555
O11_7 H22_5 1_555 1_555
O9_7 H24_5 1_555 1_555
O8_7 H28_5 1_555 1_555
O11_8 H23_5 1_555 1_555
O9_8 H25_5 1_555 1_555
O10_8 H26_5 1_555 1_555
O10_8 H27_5 1_555 1_555
O8_8 H29_5 1_555 1_555
O11_5 H22_6 1_555 1_555
O9_5 H24_6 1_555 1_555
O8_5 H28_6 1_555 1_555
O11_6 H23_6 1_555 1_555
O9_6 H25_6 1_555 1_555
O10_6 H26_6 1_555 1_555
O10_6 H27_6 1_555 1_555
O8_6 H29_6 1_555 1_555
O11_11 H23_7 1_555 1_555
O9_11 H25_7 1_555 1_555
O10_11 H26_7 1_555 1_555
O10_11 H27_7 1_555 1_555
O8_11 H29_7 1_555 1_555
O11_12 H22_7 1_555 1_555
O9_12 H24_7 1_555 1_555
O8_12 H28_7 1_555 1_555
O11_9 H23_8 1_555 1_555
O9_9 H25_8 1_555 1_555
O10_9 H26_8 1_555 1_555
O10_9 H27_8 1_555 1_555
O8_9 H29_8 1_555 1_555
O11_10 H22_8 1_555 1_555
O9_10 H24_8 1_555 1_555
O8_10 H28_8 1_555 1_555

#END
