
###############################################################################
#
# This file contains modified crystal structure data generated from the
# MOF subset of the Cambridge Structural Database (CSD) v543 
# hosted by the Cambridge Crystallographic Data Centre (CCDC).
#
# This work is licensed under the Creative Commons
# Attribution-NonCommercial-ShareAlike 4.0 International License.
# To view a copy of this license, visit
# http://creativecommons.org/licenses/by-nc-sa/4.0/
# or send a letter to
# Creative Commons, PO Box 1866, Mountain View, CA 94042, USA.
#
# CIF created using the CSD Python API on 29 September 2022
# The structure has been converted into the P1 space group
# The structure has a 3D framework
# The original CSD entry GIPNUR is in the monoclinic crystal system
# The framework has been calculated to contain at least 10.0% void space
# The void calculation uses a probe of radius 1.32A, grid spacing 0.4
#
###############################################################################

data_GIPNUR
_chemical_formula_moiety         '(C208 H144 N32 O40 Zn8)n'
_symmetry_cell_setting           triclinic
_symmetry_space_group_name_H-M   'P 1'
_symmetry_Int_Tables_number      1
_space_group_name_Hall           'P 1'
loop_
_symmetry_equiv_pos_site_id
_symmetry_equiv_pos_as_xyz
1 x,y,z
_cell_length_a                   27.017(6)
_cell_length_b                   10.919(3)
_cell_length_c                   34.189(6)
_cell_angle_alpha                90
_cell_angle_beta                 139.244(10)
_cell_angle_gamma                90
_cell_volume                     6584.34
loop_
_atom_site_label
_atom_site_type_symbol
_atom_site_fract_x
_atom_site_fract_y
_atom_site_fract_z
H7 H 0.2359 0.0393 0.1487
C22 C 0.1124(3) 0.0857(4) 0.0268(2)
H15 H 0.1559 0.1271 0.0606
C18 C 0.0603(3) 0.1414(5) 0.9716(2)
H11 H 0.0691 0.2205 0.9680
N2 N 0.20431(18) 0.7739(3) 0.15755(14)
N3 N 0.15309(17) 0.9113(3) 0.08875(14)
C6 C 0.0995(2) 0.9710(4) 0.03119(18)
C10 C 0.1481(2) 0.7987(4) 0.10063(18)
H5 H 0.1090 0.7443 0.0716
C11 C 0.2470(3) 0.8759(5) 0.1832(2)
H6 H 0.2915 0.8856 0.2240
C13 C 0.2169(3) 0.9612(5) 0.14209(19)
Zn3 Zn 0.21298(2) 0.62089(4) 0.194562(19)
O1 O 0.24605(15) 0.5139(3) 0.68095(12)
Zn1 Zn 0.71298(2) 0.87911(4) 0.694562(19)
N1 N 0.80648(19) 0.8617(3) 0.78309(14)
C1 C 0.2372(2) 0.6224(4) 0.61730(19)
N4 N 0.91604(18) 0.9004(3) 0.87582(14)
C2 C 0.2089(3) 0.6276(4) 0.5624(2)
H1 H 0.1692 0.5768 0.5311
O2 O 0.62226(16) 0.9237(3) 0.66878(14)
O3 O 0.32219(19) 0.8683(3) 0.58715(18)
O4 O 0.64244(16) 0.7439(3) 0.70646(13)
C3 C 0.5089(2) 0.7559(4) 0.67065(19)
H2 H 0.5416 0.6908 0.6950
C4 C 0.8257(2) 0.7654(4) 0.81812(18)
H3 H 0.7966 0.6954 0.8046
C7 C 0.5308(2) 0.8458(4) 0.65838(19)
C8 C 0.3929(3) 0.8572(5) 0.6130(2)
C9 C 0.9833(2) 0.9634(4) 0.92716(17)
C12 C 0.6044(2) 0.8365(4) 0.68056(19)
C14 C 0.4404(2) 0.7595(4) 0.6480(2)
H8 H 0.4259 0.6968 0.6562
C15 C 0.2963(2) 0.7009(4) 0.6629(2)
H9 H 0.3160 0.6988 0.6999
C16 C 0.4831(3) 0.9424(5) 0.6240(2)
C17 C 0.2974(3) 0.7851(5) 0.5999(3)
C19 C 0.8621(2) 0.9405(4) 0.81940(17)
C20 C 0.3256(3) 0.7815(4) 0.6534(2)
H13 H 0.3650 0.8336 0.6840
C21 C 0.4146(3) 0.9471(5) 0.6011(2)
C24 C 0.8920(3) 0.7878(4) 0.87423(19)
H17 H 0.9179 0.7364 0.9068
C25 C 0.2407(3) 0.7099(5) 0.5547(2)
H18 H 0.2227 0.7128 0.5184
O5 O 0.14385(19) 0.4880(3) 0.58419(14)
C26 C 0.2067(2) 0.5370(4) 0.6271(2)
Zn2 Zn 0.21298(2) 0.37911(4) 0.694562(19)
N5 N 0.70431(18) 0.7261(3) 0.65755(14)
N2_2 N 0.70431(18) 0.2739(3) 0.15755(14)
N3_2 N 0.65309(17) 0.4113(3) 0.08875(14)
C6_2 C 0.5995(2) 0.4710(4) 0.03119(18)
C10_2 C 0.6481(2) 0.2987(4) 0.10063(18)
H5_2 H 0.6090 0.2443 0.0716
C11_2 C 0.7470(3) 0.3759(5) 0.1832(2)
H6_2 H 0.7915 0.3856 0.2240
C13_2 C 0.7169(3) 0.4612(5) 0.14209(19)
H7_2 H 0.7359 0.5393 0.1487
C22_2 C 0.6124(3) 0.5857(4) 0.0268(2)
H15_2 H 0.6559 0.6271 0.0606
Zn3_2 Zn 0.71298(2) 0.12089(4) 0.194562(19)
N1_2 N 0.30648(19) 0.3617(3) 0.78309(14)
N4_2 N 0.41604(18) 0.4004(3) 0.87582(14)
O2_2 O 0.12226(16) 0.4237(3) 0.66878(14)
O4_2 O 0.14244(16) 0.2439(3) 0.70646(13)
C3_2 C 0.0089(2) 0.2559(4) 0.67065(19)
H2_2 H 0.0416 0.1908 0.6950
C4_2 C 0.3257(2) 0.2654(4) 0.81812(18)
H3_2 H 0.2966 0.1954 0.8046
C5 C 0.5352(2) 0.4079(4) 0.98176(18)
H4 H 0.5274 0.3282 0.9857
C7_2 C 0.0308(2) 0.3458(4) 0.65838(19)
C9_2 C 0.4833(2) 0.4634(4) 0.92716(17)
C12_2 C 0.1044(2) 0.3365(4) 0.68056(19)
C18_2 C 0.5603(3) 0.6414(5) 0.9716(2)
H11_2 H 0.5691 0.7205 0.9680
C19_2 C 0.3621(2) 0.4405(4) 0.81940(17)
H12 H 0.3639 0.5151 0.8073
C23 C 0.4944(3) 0.5803(5) 0.9213(2)
H16 H 0.4585 0.6188 0.8841
C24_2 C 0.3920(3) 0.2878(4) 0.87423(19)
H17_2 H 0.4179 0.2364 0.9068
N5_2 N 0.20431(18) 0.2261(3) 0.65755(14)
O5_2 O 0.64385(19) 0.9880(3) 0.58419(14)
N3_3 N 0.15309(17) 0.0887(3) 0.58875(14)
C5_2 C 0.0352(2) 0.0921(4) 0.48176(18)
H4_2 H 0.0274 0.1718 0.4857
C6_3 C 0.0995(2) 0.0290(4) 0.53119(18)
C10_3 C 0.1481(2) 0.2013(4) 0.60063(18)
H5_3 H 0.1090 0.2557 0.5716
C11_3 C 0.2470(3) 0.1241(5) 0.6832(2)
H6_3 H 0.2915 0.1144 0.7240
C13_3 C 0.2169(3) 0.0388(5) 0.64209(19)
O1_2 O 0.24605(15) 0.4861(3) 0.18095(12)
N1_3 N 0.80648(19) 0.1383(3) 0.28309(14)
C1_2 C 0.2372(2) 0.3776(4) 0.11730(19)
N4_3 N 0.91604(18) 0.0996(3) 0.37582(14)
C2_2 C 0.2089(3) 0.3724(4) 0.0624(2)
H1_2 H 0.1692 0.4232 0.0311
O2_3 O 0.62226(16) 0.0763(3) 0.16878(14)
O3_2 O 0.32219(19) 0.1317(3) 0.08715(18)
O4_3 O 0.64244(16) 0.2561(3) 0.20646(13)
C3_3 C 0.5089(2) 0.2441(4) 0.17065(19)
H2_3 H 0.5416 0.3092 0.1950
C4_3 C 0.8257(2) 0.2346(4) 0.31812(18)
H3_3 H 0.7966 0.3046 0.3046
C7_3 C 0.5308(2) 0.1542(4) 0.15838(19)
C8_2 C 0.3929(3) 0.1428(5) 0.1130(2)
C9_3 C 0.9833(2) 0.0366(4) 0.42716(17)
C12_3 C 0.6044(2) 0.1635(4) 0.18056(19)
C14_2 C 0.4404(2) 0.2405(4) 0.1480(2)
H8_2 H 0.4259 0.3032 0.1562
C15_2 C 0.2963(2) 0.2991(4) 0.1629(2)
H9_2 H 0.3160 0.3012 0.1999
C16_2 C 0.4831(3) 0.0576(5) 0.1240(2)
C17_2 C 0.2974(3) 0.2149(5) 0.0999(3)
C19_3 C 0.8621(2) 0.0595(4) 0.31940(17)
C20_2 C 0.3256(3) 0.2185(4) 0.1534(2)
H13_2 H 0.3650 0.1664 0.1840
C21_2 C 0.4146(3) 0.0529(5) 0.1011(2)
C24_3 C 0.8920(3) 0.2122(4) 0.37423(19)
H17_3 H 0.9179 0.2636 0.4068
C25_2 C 0.2407(3) 0.2901(5) 0.0547(2)
H18_2 H 0.2227 0.2872 0.0184
O5_3 O 0.14385(19) 0.5120(3) 0.08419(14)
C26_2 C 0.2067(2) 0.4630(4) 0.1271(2)
N1_4 N 0.30648(19) 0.6383(3) 0.28309(14)
N3_4 N 0.65309(17) 0.5887(3) 0.58875(14)
N4_4 N 0.41604(18) 0.5996(3) 0.37582(14)
O2_4 O 0.12226(16) 0.5763(3) 0.16878(14)
O4_4 O 0.14244(16) 0.7561(3) 0.20646(13)
C3_4 C 0.0089(2) 0.7441(4) 0.17065(19)
H2_4 H 0.0416 0.8092 0.1950
C4_4 C 0.3257(2) 0.7346(4) 0.31812(18)
H3_4 H 0.2966 0.8046 0.3046
C5_3 C 0.5352(2) 0.5921(4) 0.48176(18)
H4_3 H 0.5274 0.6718 0.4857
C6_4 C 0.5995(2) 0.5290(4) 0.53119(18)
C7_4 C 0.0308(2) 0.6542(4) 0.15838(19)
C9_4 C 0.4833(2) 0.5366(4) 0.42716(17)
C10_4 C 0.6481(2) 0.7013(4) 0.60063(18)
H5_4 H 0.6090 0.7557 0.5716
C11_4 C 0.7470(3) 0.6241(5) 0.6832(2)
H6_4 H 0.7915 0.6144 0.7240
C12_4 C 0.1044(2) 0.6635(4) 0.18056(19)
C13_4 C 0.7169(3) 0.5388(5) 0.64209(19)
H7_3 H 0.7359 0.4607 0.6487
C18_3 C 0.5603(3) 0.3586(5) 0.4716(2)
H11_3 H 0.5691 0.2795 0.4680
C19_4 C 0.3621(2) 0.5595(4) 0.31940(17)
H12_2 H 0.3639 0.4849 0.3073
C22_3 C 0.6124(3) 0.4143(4) 0.5268(2)
H15_3 H 0.6559 0.3729 0.5606
C23_2 C 0.4944(3) 0.4197(5) 0.4213(2)
H16_2 H 0.4585 0.3812 0.3841
C24_4 C 0.3920(3) 0.7122(4) 0.37423(19)
H17_4 H 0.4179 0.7636 0.4068
O5_4 O 0.64385(19) 0.0120(3) 0.08419(14)
C5_4 C 0.0352(2) 0.9079(4) 0.98176(18)
H4_4 H 0.0274 0.8282 0.9857
H10 H 0.4976 0.0056 0.6160
H12_3 H 0.8639 0.0151 0.8073
H14 H 0.3823 0.0129 0.5772
C23_3 C 0.9944(3) 0.0803(5) 0.9213(2)
H16_3 H 0.9585 0.1188 0.8841
O6 O 0.74605(15) 0.0139(3) 0.68095(12)
C1_3 C 0.7372(2) 0.1224(4) 0.61730(19)
C2_3 C 0.7089(3) 0.1276(4) 0.5624(2)
H1_3 H 0.6692 0.0768 0.5311
O3_3 O 0.82219(19) 0.3683(3) 0.58715(18)
C8_3 C 0.8929(3) 0.3572(5) 0.6130(2)
C14_3 C 0.9404(2) 0.2595(4) 0.6480(2)
H8_3 H 0.9259 0.1968 0.6562
C15_3 C 0.7963(2) 0.2009(4) 0.6629(2)
H9_3 H 0.8160 0.1988 0.6999
C16_3 C 0.9831(3) 0.4424(5) 0.6240(2)
H10_2 H 0.9976 0.5056 0.6160
C17_3 C 0.7974(3) 0.2851(5) 0.5999(3)
C20_3 C 0.8256(3) 0.2815(4) 0.6534(2)
H13_3 H 0.8650 0.3336 0.6840
C21_3 C 0.9146(3) 0.4471(5) 0.6011(2)
H14_2 H 0.8823 0.5129 0.5772
C25_3 C 0.7407(3) 0.2099(5) 0.5547(2)
H18_3 H 0.7227 0.2128 0.5184
C26_3 C 0.7067(2) 0.0370(4) 0.6271(2)
H10_3 H 0.5024 0.0056 0.8840
H12_4 H 0.1361 0.0151 0.6927
H14_3 H 0.6177 0.0129 0.9228
C23_4 C 0.0056(3) 0.0803(5) 0.5787(2)
H16_4 H 0.0415 0.1188 0.6159
O6_2 O 0.25395(15) 0.0139(3) 0.81905(12)
C1_4 C 0.2628(2) 0.1224(4) 0.88270(19)
C2_4 C 0.2911(3) 0.1276(4) 0.9376(2)
H1_4 H 0.3308 0.0768 0.9689
O3_4 O 0.17781(19) 0.3683(3) 0.91285(18)
C8_4 C 0.1071(3) 0.3572(5) 0.8870(2)
C14_4 C 0.0596(2) 0.2595(4) 0.8520(2)
H8_4 H 0.0741 0.1968 0.8438
C15_4 C 0.2037(2) 0.2009(4) 0.8371(2)
H9_4 H 0.1840 0.1988 0.8001
C16_4 C 0.0169(3) 0.4424(5) 0.8760(2)
H10_4 H 0.0024 0.5056 0.8840
C17_4 C 0.2026(3) 0.2851(5) 0.9001(3)
C20_4 C 0.1744(3) 0.2815(4) 0.8466(2)
H13_4 H 0.1350 0.3336 0.8160
C21_4 C 0.0854(3) 0.4471(5) 0.8989(2)
H14_4 H 0.1177 0.5129 0.9228
C25_4 C 0.2593(3) 0.2099(5) 0.9453(2)
H18_4 H 0.2773 0.2128 0.9816
C26_4 C 0.2933(2) 0.0370(4) 0.8729(2)
O1_3 O 0.75395(15) 0.5139(3) 0.81905(12)
Zn1_2 Zn 0.28702(2) 0.87911(4) 0.805438(19)
N1_5 N 0.19352(19) 0.8617(3) 0.71691(14)
C1_5 C 0.7628(2) 0.6224(4) 0.88270(19)
N4_5 N 0.08396(18) 0.9004(3) 0.62418(14)
C2_5 C 0.7911(3) 0.6276(4) 0.9376(2)
H1_5 H 0.8308 0.5768 0.9689
O2_5 O 0.37774(16) 0.9237(3) 0.83122(14)
O3_5 O 0.67781(19) 0.8683(3) 0.91285(18)
O4_5 O 0.35756(16) 0.7439(3) 0.79354(13)
C3_5 C 0.4911(2) 0.7559(4) 0.82935(19)
H2_5 H 0.4584 0.6908 0.8050
C4_5 C 0.1743(2) 0.7654(4) 0.68188(18)
H3_5 H 0.2034 0.6954 0.6954
C7_5 C 0.4692(2) 0.8458(4) 0.84162(19)
C8_5 C 0.6071(3) 0.8572(5) 0.8870(2)
C9_5 C 0.0167(2) 0.9634(4) 0.57284(17)
C12_5 C 0.3956(2) 0.8365(4) 0.81944(19)
C14_5 C 0.5596(2) 0.7595(4) 0.8520(2)
H8_5 H 0.5741 0.6968 0.8438
C15_5 C 0.7037(2) 0.7009(4) 0.8371(2)
H9_5 H 0.6840 0.6988 0.8001
C16_5 C 0.5169(3) 0.9424(5) 0.8760(2)
C17_5 C 0.7026(3) 0.7851(5) 0.9001(3)
C19_5 C 0.1379(2) 0.9405(4) 0.68060(17)
C20_5 C 0.6744(3) 0.7815(4) 0.8466(2)
H13_5 H 0.6350 0.8336 0.8160
C21_5 C 0.5854(3) 0.9471(5) 0.8989(2)
C24_5 C 0.1080(3) 0.7878(4) 0.62577(19)
H17_5 H 0.0821 0.7364 0.5932
C25_5 C 0.7593(3) 0.7099(5) 0.9453(2)
H18_5 H 0.7773 0.7128 0.9816
O5_5 O 0.85615(19) 0.4880(3) 0.91581(14)
C26_5 C 0.7933(2) 0.5370(4) 0.8729(2)
Zn2_2 Zn 0.78702(2) 0.37911(4) 0.805438(19)
N5_3 N 0.29569(18) 0.7261(3) 0.84245(14)
N2_3 N 0.79569(18) 0.7739(3) 0.34245(14)
N3_5 N 0.84691(17) 0.9113(3) 0.41125(14)
C5_5 C 0.9648(2) 0.9079(4) 0.51824(18)
H4_5 H 0.9726 0.8282 0.5143
C6_5 C 0.9005(2) 0.9710(4) 0.46881(18)
C10_5 C 0.8519(2) 0.7987(4) 0.39937(18)
H5_5 H 0.8910 0.7443 0.4284
C11_5 C 0.7530(3) 0.8759(5) 0.3168(2)
H6_5 H 0.7085 0.8856 0.2760
C13_5 C 0.7831(3) 0.9612(5) 0.35791(19)
Zn3_3 Zn 0.78702(2) 0.62089(4) 0.305438(19)
O5_6 O 0.35615(19) 0.9880(3) 0.91581(14)
N1_6 N 0.69352(19) 0.3617(3) 0.71691(14)
N2_4 N 0.29569(18) 0.2739(3) 0.34245(14)
N3_6 N 0.34691(17) 0.4113(3) 0.41125(14)
N4_6 N 0.58396(18) 0.4004(3) 0.62418(14)
O2_6 O 0.87774(16) 0.4237(3) 0.83122(14)
O4_6 O 0.85756(16) 0.2439(3) 0.79354(13)
C3_6 C 0.9911(2) 0.2559(4) 0.82935(19)
H2_6 H 0.9584 0.1908 0.8050
C4_6 C 0.6743(2) 0.2654(4) 0.68188(18)
H3_6 H 0.7034 0.1954 0.6954
C5_6 C 0.4648(2) 0.4079(4) 0.51824(18)
H4_6 H 0.4726 0.3282 0.5143
C6_6 C 0.4005(2) 0.4710(4) 0.46881(18)
C7_6 C 0.9692(2) 0.3458(4) 0.84162(19)
C9_6 C 0.5167(2) 0.4634(4) 0.57284(17)
C10_6 C 0.3519(2) 0.2987(4) 0.39937(18)
H5_6 H 0.3910 0.2443 0.4284
C11_6 C 0.2530(3) 0.3759(5) 0.3168(2)
H6_6 H 0.2085 0.3856 0.2760
C12_6 C 0.8956(2) 0.3365(4) 0.81944(19)
C13_6 C 0.2831(3) 0.4612(5) 0.35791(19)
H7_4 H 0.2641 0.5393 0.3513
C18_4 C 0.4397(3) 0.6414(5) 0.5284(2)
H11_4 H 0.4309 0.7205 0.5320
C19_6 C 0.6379(2) 0.4405(4) 0.68060(17)
H12_5 H 0.6361 0.5151 0.6927
C22_4 C 0.3876(3) 0.5857(4) 0.4732(2)
H15_4 H 0.3441 0.6271 0.4394
C23_5 C 0.5056(3) 0.5803(5) 0.5787(2)
H16_5 H 0.5415 0.6188 0.6159
C24_6 C 0.6080(3) 0.2878(4) 0.62577(19)
H17_6 H 0.5821 0.2364 0.5932
Zn3_4 Zn 0.28702(2) 0.12089(4) 0.305438(19)
N5_4 N 0.79569(18) 0.2261(3) 0.84245(14)
O1_4 O 0.75395(15) 0.4861(3) 0.31905(12)
N1_7 N 0.19352(19) 0.1383(3) 0.21691(14)
C1_6 C 0.7628(2) 0.3776(4) 0.38270(19)
N4_7 N 0.08396(18) 0.0996(3) 0.12418(14)
C2_6 C 0.7911(3) 0.3724(4) 0.4376(2)
H1_6 H 0.8308 0.4232 0.4689
O2_7 O 0.37774(16) 0.0763(3) 0.33122(14)
O3_6 O 0.67781(19) 0.1317(3) 0.41285(18)
O4_7 O 0.35756(16) 0.2561(3) 0.29354(13)
C3_7 C 0.4911(2) 0.2441(4) 0.32935(19)
H2_7 H 0.4584 0.3092 0.3050
C4_7 C 0.1743(2) 0.2346(4) 0.18188(18)
H3_7 H 0.2034 0.3046 0.1954
C7_7 C 0.4692(2) 0.1542(4) 0.34162(19)
C8_6 C 0.6071(3) 0.1428(5) 0.3870(2)
C9_7 C 0.0167(2) 0.0366(4) 0.07284(17)
C12_7 C 0.3956(2) 0.1635(4) 0.31944(19)
C14_6 C 0.5596(2) 0.2405(4) 0.3520(2)
H8_6 H 0.5741 0.3032 0.3438
C15_6 C 0.7037(2) 0.2991(4) 0.3371(2)
H9_6 H 0.6840 0.3012 0.3001
C16_6 C 0.5169(3) 0.0576(5) 0.3760(2)
C17_6 C 0.7026(3) 0.2149(5) 0.4001(3)
C19_7 C 0.1379(2) 0.0595(4) 0.18060(17)
C20_6 C 0.6744(3) 0.2185(4) 0.3466(2)
H13_6 H 0.6350 0.1664 0.3160
C21_6 C 0.5854(3) 0.0529(5) 0.3989(2)
C24_7 C 0.1080(3) 0.2122(4) 0.12577(19)
H17_7 H 0.0821 0.2636 0.0932
C25_6 C 0.7593(3) 0.2901(5) 0.4453(2)
H18_6 H 0.7773 0.2872 0.4816
O5_7 O 0.85615(19) 0.5120(3) 0.41581(14)
C26_6 C 0.7933(2) 0.4630(4) 0.3729(2)
N3_7 N 0.84691(17) 0.0887(3) 0.91125(14)
C6_7 C 0.9005(2) 0.0290(4) 0.96881(18)
C10_7 C 0.8519(2) 0.2013(4) 0.89937(18)
H5_7 H 0.8910 0.2557 0.9284
C11_7 C 0.7530(3) 0.1241(5) 0.8168(2)
H6_7 H 0.7085 0.1144 0.7760
C13_7 C 0.7831(3) 0.0388(5) 0.85791(19)
O5_8 O 0.35615(19) 0.0120(3) 0.41581(14)
N1_8 N 0.69352(19) 0.6383(3) 0.21691(14)
N4_8 N 0.58396(18) 0.5996(3) 0.12418(14)
O2_8 O 0.87774(16) 0.5763(3) 0.33122(14)
O4_8 O 0.85756(16) 0.7561(3) 0.29354(13)
C3_8 C 0.9911(2) 0.7441(4) 0.32935(19)
H2_8 H 0.9584 0.8092 0.3050
C4_8 C 0.6743(2) 0.7346(4) 0.18188(18)
H3_8 H 0.7034 0.8046 0.1954
C5_7 C 0.4648(2) 0.5921(4) 0.01824(18)
H4_7 H 0.4726 0.6718 0.0143
C7_8 C 0.9692(2) 0.6542(4) 0.34162(19)
C9_8 C 0.5167(2) 0.5366(4) 0.07284(17)
C12_8 C 0.8956(2) 0.6635(4) 0.31944(19)
C18_5 C 0.4397(3) 0.3586(5) 0.0284(2)
H11_5 H 0.4309 0.2795 0.0320
C19_8 C 0.6379(2) 0.5595(4) 0.18060(17)
H12_6 H 0.6361 0.4849 0.1927
C23_6 C 0.5056(3) 0.4197(5) 0.0787(2)
H16_6 H 0.5415 0.3812 0.1159
C24_8 C 0.6080(3) 0.7122(4) 0.12577(19)
H17_8 H 0.5821 0.7636 0.0932
N3_8 N 0.34691(17) 0.5887(3) 0.91125(14)
C6_8 C 0.4005(2) 0.5290(4) 0.96881(18)
C10_8 C 0.3519(2) 0.7013(4) 0.89937(18)
H5_8 H 0.3910 0.7557 0.9284
C11_8 C 0.2530(3) 0.6241(5) 0.8168(2)
H6_8 H 0.2085 0.6144 0.7760
C13_8 C 0.2831(3) 0.5388(5) 0.85791(19)
H7_5 H 0.2641 0.4607 0.8513
C22_5 C 0.3876(3) 0.4143(4) 0.9732(2)
H15_5 H 0.3441 0.3729 0.9394
H7_6 H 0.7641 0.0393 0.3513
C18_6 C 0.9397(3) 0.1414(5) 0.5284(2)
H11_6 H 0.9309 0.2205 0.5320
C22_6 C 0.8876(3) 0.0857(4) 0.4732(2)
H15_6 H 0.8441 0.1271 0.4394
H10_5 H 0.5024 0.9944 0.3840
H12_7 H 0.1361 0.9849 0.1927
H14_5 H 0.6177 0.9871 0.4228
C23_7 C 0.0056(3) 0.9197(5) 0.0787(2)
H16_7 H 0.0415 0.8812 0.1159
O6_3 O 0.25395(15) 0.9861(3) 0.31905(12)
C1_7 C 0.2628(2) 0.8776(4) 0.38270(19)
C2_7 C 0.2911(3) 0.8724(4) 0.4376(2)
H1_7 H 0.3308 0.9232 0.4689
O3_7 O 0.17781(19) 0.6317(3) 0.41285(18)
C8_7 C 0.1071(3) 0.6428(5) 0.3870(2)
C14_7 C 0.0596(2) 0.7405(4) 0.3520(2)
H8_7 H 0.0741 0.8032 0.3438
C15_7 C 0.2037(2) 0.7991(4) 0.3371(2)
H9_7 H 0.1840 0.8012 0.3001
C16_7 C 0.0169(3) 0.5576(5) 0.3760(2)
H10_6 H 0.0024 0.4944 0.3840
C17_7 C 0.2026(3) 0.7149(5) 0.4001(3)
C20_7 C 0.1744(3) 0.7185(4) 0.3466(2)
H13_7 H 0.1350 0.6664 0.3160
C21_7 C 0.0854(3) 0.5529(5) 0.3989(2)
H14_6 H 0.1177 0.4871 0.4228
C25_7 C 0.2593(3) 0.7901(5) 0.4453(2)
H18_7 H 0.2773 0.7872 0.4816
C26_7 C 0.2933(2) 0.9630(4) 0.3729(2)
C5_8 C 0.9648(2) 0.0921(4) 0.01824(18)
H4_8 H 0.9726 0.1718 0.0143
C18_7 C 0.9397(3) 0.8586(5) 0.0284(2)
H11_7 H 0.9309 0.7795 0.0320
H7_7 H 0.7641 0.9607 0.8513
C22_7 C 0.8876(3) 0.9143(4) 0.9732(2)
H15_7 H 0.8441 0.8729 0.9394
H7_8 H 0.2359 0.9607 0.6487
C18_8 C 0.0603(3) 0.8586(5) 0.4716(2)
H11_8 H 0.0691 0.7795 0.4680
C22_8 C 0.1124(3) 0.9143(4) 0.5268(2)
H15_8 H 0.1559 0.8729 0.5606
H10_7 H 0.4976 0.9944 0.1160
H12_8 H 0.8639 0.9849 0.3073
H14_7 H 0.3823 0.9871 0.0772
C23_8 C 0.9944(3) 0.9197(5) 0.4213(2)
H16_8 H 0.9585 0.8812 0.3841
O6_4 O 0.74605(15) 0.9861(3) 0.18095(12)
C1_8 C 0.7372(2) 0.8776(4) 0.11730(19)
C2_8 C 0.7089(3) 0.8724(4) 0.0624(2)
H1_8 H 0.6692 0.9232 0.0311
O3_8 O 0.82219(19) 0.6317(3) 0.08715(18)
C8_8 C 0.8929(3) 0.6428(5) 0.1130(2)
C14_8 C 0.9404(2) 0.7405(4) 0.1480(2)
H8_8 H 0.9259 0.8032 0.1562
C15_8 C 0.7963(2) 0.7991(4) 0.1629(2)
H9_8 H 0.8160 0.8012 0.1999
C16_8 C 0.9831(3) 0.5576(5) 0.1240(2)
H10_8 H 0.9976 0.4944 0.1160
C17_8 C 0.7974(3) 0.7149(5) 0.0999(3)
C20_8 C 0.8256(3) 0.7185(4) 0.1534(2)
H13_8 H 0.8650 0.6664 0.1840
C21_8 C 0.9146(3) 0.5529(5) 0.1011(2)
H14_8 H 0.8823 0.4871 0.0772
C25_8 C 0.7407(3) 0.7901(5) 0.0547(2)
H18_8 H 0.7227 0.7872 0.0184
C26_8 C 0.7067(2) 0.9630(4) 0.1271(2)
loop_
_geom_bond_atom_site_label_1
_geom_bond_atom_site_label_2
_geom_bond_site_symmetry_1
_geom_bond_site_symmetry_2
H15 C22 1_555 1_555
C18 H11 1_555 1_555
N2 C10 1_555 1_555
N3 C6 1_555 1_555
C10 N3 1_555 1_555
H5 C10 1_555 1_555
C11 N2 1_555 1_555
H6 C11 1_555 1_555
C13 N3 1_555 1_555
Zn3 N2 1_555 1_555
C11 C13 1_555 1_555
O1 C26 1_555 1_555
Zn1 N1 1_555 1_555
N1 C4 1_555 1_555
C1 C2 1_555 1_555
N4 C9 1_555 1_555
C2 H1 1_555 1_555
O2 Zn1 1_555 1_555
O3 C8 1_555 1_555
O4 C12 1_555 1_555
C3 H2 1_555 1_555
C4 H3 1_555 1_555
C7 C3 1_555 1_555
C8 C14 1_555 1_555
C12 O2 1_555 1_555
C14 C3 1_555 1_555
H8 C14 1_555 1_555
C15 C1 1_555 1_555
H9 C15 1_555 1_555
C16 C7 1_555 1_555
C17 O3 1_555 1_555
C19 N1 1_555 1_555
C20 C15 1_555 1_555
H13 C20 1_555 1_555
C21 C8 1_555 1_555
C24 N4 1_555 1_555
H17 C24 1_555 1_555
C25 C2 1_555 1_555
H18 C25 1_555 1_555
O5 C26 1_555 1_555
C26 C1 1_555 1_555
Zn2 O1 1_555 1_555
N5 Zn1 1_555 1_555
N4 C19 1_555 1_555
C4 C24 1_555 1_555
C7 C12 1_555 1_555
C16 C21 1_555 1_555
C17 C20 1_555 1_555
C17 C25 1_555 1_555
N2_2 C10_2 1_555 1_555
N3_2 C6_2 1_555 1_555
C10_2 N3_2 1_555 1_555
H5_2 C10_2 1_555 1_555
C11_2 N2_2 1_555 1_555
H6_2 C11_2 1_555 1_555
C13_2 N3_2 1_555 1_555
H7_2 C13_2 1_555 1_555
C22_2 C6_2 1_555 1_555
H15_2 C22_2 1_555 1_555
Zn3_2 N2_2 1_555 1_555
C11_2 C13_2 1_555 1_555
Zn2 N1_2 1_555 1_555
N1_2 C4_2 1_555 1_555
N4_2 C9_2 1_555 1_555
O2_2 Zn2 1_555 1_555
O4_2 C12_2 1_555 1_555
C3_2 H2_2 1_555 1_555
C4_2 H3_2 1_555 1_555
C5 H4 1_555 1_555
C7_2 C3_2 1_555 1_555
C9_2 C5 1_555 1_555
C12_2 O2_2 1_555 1_555
C18_2 H11_2 1_555 1_555
C19_2 N1_2 1_555 1_555
H12 C19_2 1_555 1_555
C23 C9_2 1_555 1_555
H16 C23 1_555 1_555
C24_2 N4_2 1_555 1_555
H17_2 C24_2 1_555 1_555
N5_2 Zn2 1_555 1_555
N4_2 C19_2 1_555 1_555
C4_2 C24_2 1_555 1_555
C7_2 C12_2 1_555 1_555
C18_2 C23 1_555 1_555
N5_2 C10_3 1_555 1_555
N3_3 C6_3 1_555 1_555
C5_2 H4_2 1_555 1_555
C6_3 C5_2 1_555 1_555
C10_3 N3_3 1_555 1_555
H5_3 C10_3 1_555 1_555
C11_3 N5_2 1_555 1_555
H6_3 C11_3 1_555 1_555
C13_3 N3_3 1_555 1_555
C11_3 C13_3 1_555 1_555
O1_2 C26_2 1_555 1_555
Zn3_2 N1_3 1_555 1_555
N1_3 C4_3 1_555 1_555
C1_2 C2_2 1_555 1_555
N4_3 C9_3 1_555 1_555
C2_2 H1_2 1_555 1_555
O2_3 Zn3_2 1_555 1_555
O3_2 C8_2 1_555 1_555
O4_3 C12_3 1_555 1_555
C3_3 H2_3 1_555 1_555
C4_3 H3_3 1_555 1_555
C7_3 C3_3 1_555 1_555
C8_2 C14_2 1_555 1_555
C12_3 O2_3 1_555 1_555
C14_2 C3_3 1_555 1_555
H8_2 C14_2 1_555 1_555
C15_2 C1_2 1_555 1_555
H9_2 C15_2 1_555 1_555
C16_2 C7_3 1_555 1_555
C17_2 O3_2 1_555 1_555
C19_3 N1_3 1_555 1_555
C20_2 C15_2 1_555 1_555
H13_2 C20_2 1_555 1_555
C21_2 C8_2 1_555 1_555
C24_3 N4_3 1_555 1_555
H17_3 C24_3 1_555 1_555
C25_2 C2_2 1_555 1_555
H18_2 C25_2 1_555 1_555
O5_3 C26_2 1_555 1_555
C26_2 C1_2 1_555 1_555
Zn3 O1_2 1_555 1_555
N4_3 C19_3 1_555 1_555
C4_3 C24_3 1_555 1_555
C7_3 C12_3 1_555 1_555
C16_2 C21_2 1_555 1_555
C17_2 C20_2 1_555 1_555
C17_2 C25_2 1_555 1_555
Zn3 N1_4 1_555 1_555
N1_4 C4_4 1_555 1_555
N5 C10_4 1_555 1_555
N3_4 C6_4 1_555 1_555
N4_4 C9_4 1_555 1_555
O2_4 Zn3 1_555 1_555
O4_4 C12_4 1_555 1_555
C3_4 H2_4 1_555 1_555
C4_4 H3_4 1_555 1_555
C5_3 H4_3 1_555 1_555
C6_4 C5_3 1_555 1_555
C7_4 C3_4 1_555 1_555
C9_4 C5_3 1_555 1_555
C10_4 N3_4 1_555 1_555
H5_4 C10_4 1_555 1_555
C11_4 N5 1_555 1_555
H6_4 C11_4 1_555 1_555
C12_4 O2_4 1_555 1_555
C13_4 N3_4 1_555 1_555
H7_3 C13_4 1_555 1_555
C18_3 H11_3 1_555 1_555
C19_4 N1_4 1_555 1_555
H12_2 C19_4 1_555 1_555
C22_3 C6_4 1_555 1_555
H15_3 C22_3 1_555 1_555
C23_2 C9_4 1_555 1_555
H16_2 C23_2 1_555 1_555
C24_4 N4_4 1_555 1_555
H17_4 C24_4 1_555 1_555
N4_4 C19_4 1_555 1_555
C4_4 C24_4 1_555 1_555
C7_4 C12_4 1_555 1_555
C11_4 C13_4 1_555 1_555
C18_3 C22_3 1_555 1_555
C18_3 C23_2 1_555 1_555
C5_4 H4_4 1_555 1_555
H16_3 C23_3 1_555 1_555
O6 C26_3 1_555 1_555
C1_3 C2_3 1_555 1_555
C2_3 H1_3 1_555 1_555
O3_3 C8_3 1_555 1_555
C8_3 C14_3 1_555 1_555
H8_3 C14_3 1_555 1_555
C15_3 C1_3 1_555 1_555
H9_3 C15_3 1_555 1_555
H10_2 C16_3 1_555 1_555
C17_3 O3_3 1_555 1_555
C20_3 C15_3 1_555 1_555
H13_3 C20_3 1_555 1_555
C21_3 C8_3 1_555 1_555
H14_2 C21_3 1_555 1_555
C25_3 C2_3 1_555 1_555
H18_3 C25_3 1_555 1_555
C26_3 C1_3 1_555 1_555
C16_3 C21_3 1_555 1_555
C17_3 C20_3 1_555 1_555
C17_3 C25_3 1_555 1_555
H16_4 C23_4 1_555 1_555
O6_2 C26_4 1_555 1_555
C1_4 C2_4 1_555 1_555
C2_4 H1_4 1_555 1_555
O3_4 C8_4 1_555 1_555
C8_4 C14_4 1_555 1_555
H8_4 C14_4 1_555 1_555
C15_4 C1_4 1_555 1_555
H9_4 C15_4 1_555 1_555
H10_4 C16_4 1_555 1_555
C17_4 O3_4 1_555 1_555
C20_4 C15_4 1_555 1_555
H13_4 C20_4 1_555 1_555
C21_4 C8_4 1_555 1_555
H14_4 C21_4 1_555 1_555
C25_4 C2_4 1_555 1_555
H18_4 C25_4 1_555 1_555
C26_4 C1_4 1_555 1_555
C16_4 C21_4 1_555 1_555
C17_4 C20_4 1_555 1_555
C17_4 C25_4 1_555 1_555
O1_3 C26_5 1_555 1_555
Zn1_2 N1_5 1_555 1_555
N1_5 C4_5 1_555 1_555
C1_5 C2_5 1_555 1_555
N4_5 C9_5 1_555 1_555
C2_5 H1_5 1_555 1_555
O2_5 Zn1_2 1_555 1_555
O3_5 C8_5 1_555 1_555
O4_5 C12_5 1_555 1_555
C3_5 H2_5 1_555 1_555
C4_5 H3_5 1_555 1_555
C7_5 C3_5 1_555 1_555
C8_5 C14_5 1_555 1_555
C12_5 O2_5 1_555 1_555
C14_5 C3_5 1_555 1_555
H8_5 C14_5 1_555 1_555
C15_5 C1_5 1_555 1_555
H9_5 C15_5 1_555 1_555
C16_5 C7_5 1_555 1_555
C17_5 O3_5 1_555 1_555
C19_5 N1_5 1_555 1_555
C20_5 C15_5 1_555 1_555
H13_5 C20_5 1_555 1_555
C21_5 C8_5 1_555 1_555
C24_5 N4_5 1_555 1_555
H17_5 C24_5 1_555 1_555
C25_5 C2_5 1_555 1_555
H18_5 C25_5 1_555 1_555
O5_5 C26_5 1_555 1_555
C26_5 C1_5 1_555 1_555
Zn2_2 O1_3 1_555 1_555
N5_3 Zn1_2 1_555 1_555
N4_5 C19_5 1_555 1_555
C4_5 C24_5 1_555 1_555
C7_5 C12_5 1_555 1_555
C16_5 C21_5 1_555 1_555
C17_5 C20_5 1_555 1_555
C17_5 C25_5 1_555 1_555
N2_3 C10_5 1_555 1_555
N3_5 C6_5 1_555 1_555
C5_5 H4_5 1_555 1_555
C6_5 C5_5 1_555 1_555
C10_5 N3_5 1_555 1_555
H5_5 C10_5 1_555 1_555
C11_5 N2_3 1_555 1_555
H6_5 C11_5 1_555 1_555
C13_5 N3_5 1_555 1_555
Zn3_3 N2_3 1_555 1_555
C11_5 C13_5 1_555 1_555
Zn2_2 N1_6 1_555 1_555
N1_6 C4_6 1_555 1_555
N2_4 C10_6 1_555 1_555
N3_6 C6_6 1_555 1_555
N4_6 C9_6 1_555 1_555
O2_6 Zn2_2 1_555 1_555
O4_6 C12_6 1_555 1_555
C3_6 H2_6 1_555 1_555
C4_6 H3_6 1_555 1_555
C5_6 H4_6 1_555 1_555
C6_6 C5_6 1_555 1_555
C7_6 C3_6 1_555 1_555
C9_6 C5_6 1_555 1_555
C10_6 N3_6 1_555 1_555
H5_6 C10_6 1_555 1_555
C11_6 N2_4 1_555 1_555
H6_6 C11_6 1_555 1_555
C12_6 O2_6 1_555 1_555
C13_6 N3_6 1_555 1_555
H7_4 C13_6 1_555 1_555
C18_4 H11_4 1_555 1_555
C19_6 N1_6 1_555 1_555
H12_5 C19_6 1_555 1_555
C22_4 C6_6 1_555 1_555
H15_4 C22_4 1_555 1_555
C23_5 C9_6 1_555 1_555
H16_5 C23_5 1_555 1_555
C24_6 N4_6 1_555 1_555
H17_6 C24_6 1_555 1_555
Zn3_4 N2_4 1_555 1_555
N5_4 Zn2_2 1_555 1_555
N4_6 C19_6 1_555 1_555
C4_6 C24_6 1_555 1_555
C7_6 C12_6 1_555 1_555
C11_6 C13_6 1_555 1_555
C18_4 C22_4 1_555 1_555
C18_4 C23_5 1_555 1_555
O1_4 C26_6 1_555 1_555
Zn3_4 N1_7 1_555 1_555
N1_7 C4_7 1_555 1_555
C1_6 C2_6 1_555 1_555
N4_7 C9_7 1_555 1_555
C2_6 H1_6 1_555 1_555
O2_7 Zn3_4 1_555 1_555
O3_6 C8_6 1_555 1_555
O4_7 C12_7 1_555 1_555
C3_7 H2_7 1_555 1_555
C4_7 H3_7 1_555 1_555
C7_7 C3_7 1_555 1_555
C8_6 C14_6 1_555 1_555
C12_7 O2_7 1_555 1_555
C14_6 C3_7 1_555 1_555
H8_6 C14_6 1_555 1_555
C15_6 C1_6 1_555 1_555
H9_6 C15_6 1_555 1_555
C16_6 C7_7 1_555 1_555
C17_6 O3_6 1_555 1_555
C19_7 N1_7 1_555 1_555
C20_6 C15_6 1_555 1_555
H13_6 C20_6 1_555 1_555
C21_6 C8_6 1_555 1_555
C24_7 N4_7 1_555 1_555
H17_7 C24_7 1_555 1_555
C25_6 C2_6 1_555 1_555
H18_6 C25_6 1_555 1_555
O5_7 C26_6 1_555 1_555
C26_6 C1_6 1_555 1_555
Zn3_3 O1_4 1_555 1_555
N4_7 C19_7 1_555 1_555
C4_7 C24_7 1_555 1_555
C7_7 C12_7 1_555 1_555
C16_6 C21_6 1_555 1_555
C17_6 C20_6 1_555 1_555
C17_6 C25_6 1_555 1_555
N5_4 C10_7 1_555 1_555
N3_7 C6_7 1_555 1_555
C10_7 N3_7 1_555 1_555
H5_7 C10_7 1_555 1_555
C11_7 N5_4 1_555 1_555
H6_7 C11_7 1_555 1_555
C13_7 N3_7 1_555 1_555
C11_7 C13_7 1_555 1_555
Zn3_3 N1_8 1_555 1_555
N1_8 C4_8 1_555 1_555
N4_8 C9_8 1_555 1_555
O2_8 Zn3_3 1_555 1_555
O4_8 C12_8 1_555 1_555
C3_8 H2_8 1_555 1_555
C4_8 H3_8 1_555 1_555
C5_7 H4_7 1_555 1_555
C7_8 C3_8 1_555 1_555
C9_8 C5_7 1_555 1_555
C12_8 O2_8 1_555 1_555
C18_5 H11_5 1_555 1_555
C19_8 N1_8 1_555 1_555
H12_6 C19_8 1_555 1_555
C23_6 C9_8 1_555 1_555
H16_6 C23_6 1_555 1_555
C24_8 N4_8 1_555 1_555
H17_8 C24_8 1_555 1_555
N4_8 C19_8 1_555 1_555
C4_8 C24_8 1_555 1_555
C7_8 C12_8 1_555 1_555
C18_5 C23_6 1_555 1_555
N5_3 C10_8 1_555 1_555
N3_8 C6_8 1_555 1_555
C10_8 N3_8 1_555 1_555
H5_8 C10_8 1_555 1_555
C11_8 N5_3 1_555 1_555
H6_8 C11_8 1_555 1_555
C13_8 N3_8 1_555 1_555
H7_5 C13_8 1_555 1_555
C22_5 C6_8 1_555 1_555
H15_5 C22_5 1_555 1_555
C11_8 C13_8 1_555 1_555
C18_6 H11_6 1_555 1_555
H15_6 C22_6 1_555 1_555
C18_6 C22_6 1_555 1_555
H16_7 C23_7 1_555 1_555
O6_3 C26_7 1_555 1_555
C1_7 C2_7 1_555 1_555
C2_7 H1_7 1_555 1_555
O3_7 C8_7 1_555 1_555
C8_7 C14_7 1_555 1_555
H8_7 C14_7 1_555 1_555
C15_7 C1_7 1_555 1_555
H9_7 C15_7 1_555 1_555
H10_6 C16_7 1_555 1_555
C17_7 O3_7 1_555 1_555
C20_7 C15_7 1_555 1_555
H13_7 C20_7 1_555 1_555
C21_7 C8_7 1_555 1_555
H14_6 C21_7 1_555 1_555
C25_7 C2_7 1_555 1_555
H18_7 C25_7 1_555 1_555
C26_7 C1_7 1_555 1_555
C16_7 C21_7 1_555 1_555
C17_7 C20_7 1_555 1_555
C17_7 C25_7 1_555 1_555
C5_8 H4_8 1_555 1_555
C18_7 H11_7 1_555 1_555
H15_7 C22_7 1_555 1_555
C18_8 H11_8 1_555 1_555
H15_8 C22_8 1_555 1_555
C18_8 C22_8 1_555 1_555
H16_8 C23_8 1_555 1_555
O6_4 C26_8 1_555 1_555
C1_8 C2_8 1_555 1_555
C2_8 H1_8 1_555 1_555
O3_8 C8_8 1_555 1_555
C8_8 C14_8 1_555 1_555
H8_8 C14_8 1_555 1_555
C15_8 C1_8 1_555 1_555
H9_8 C15_8 1_555 1_555
H10_8 C16_8 1_555 1_555
C17_8 O3_8 1_555 1_555
C20_8 C15_8 1_555 1_555
H13_8 C20_8 1_555 1_555
C21_8 C8_8 1_555 1_555
H14_8 C21_8 1_555 1_555
C25_8 C2_8 1_555 1_555
H18_8 C25_8 1_555 1_555
C26_8 C1_8 1_555 1_555
C16_8 C21_8 1_555 1_555
C17_8 C20_8 1_555 1_555
C17_8 C25_8 1_555 1_555

#END
