
###############################################################################
#
# This file contains modified crystal structure data generated from the
# MOF subset of the Cambridge Structural Database (CSD) v543 
# hosted by the Cambridge Crystallographic Data Centre (CCDC).
#
# This work is licensed under the Creative Commons
# Attribution-NonCommercial-ShareAlike 4.0 International License.
# To view a copy of this license, visit
# http://creativecommons.org/licenses/by-nc-sa/4.0/
# or send a letter to
# Creative Commons, PO Box 1866, Mountain View, CA 94042, USA.
#
# CIF created using the CSD Python API on 29 September 2022
# The structure has been converted into the P1 space group
# The structure has a 3D framework
# The original CSD entry GIQHAQ is in the hexagonal crystal system
# The original CSD entry GIQHAQ is in a Sohncke space group
# The framework has been calculated to contain at least 10.0% void space
# The void calculation uses a probe of radius 1.32A, grid spacing 0.4
# The framework is charged, counterions have been retained in the structure
#
###############################################################################

data_GIQHAQ
_chemical_formula_moiety         '(C252 H144 Cd17 O70 15-)n'
_symmetry_cell_setting           triclinic
_symmetry_space_group_name_H-M   'P 1'
_symmetry_Int_Tables_number      1
_space_group_name_Hall           'P 1'
loop_
_symmetry_equiv_pos_site_id
_symmetry_equiv_pos_as_xyz
1 x,y,z
_cell_length_a                   26.712(4)
_cell_length_b                   26.712(4)
_cell_length_c                   15.919(3)
_cell_angle_alpha                90
_cell_angle_beta                 90
_cell_angle_gamma                120
_cell_volume                     9836.92
loop_
_atom_site_label
_atom_site_type_symbol
_atom_site_fract_x
_atom_site_fract_y
_atom_site_fract_z
Cd1 Cd -0.0000 0.418979(12) 0.3333
O1 O 0.02940(11) 0.41586(12) 0.19921(15)
O2 O 0.06965(13) 0.38779(15) 0.29364(19)
C1 C 0.10313(17) 0.3974(2) 0.1518(2)
C2 C 0.1452(2) 0.3851(3) 0.1752(3)
H1 H 0.1477 0.3754 0.2319
C3 C 0.1850(2) 0.3869(3) 0.1143(3)
H2 H 0.2162 0.3817 0.1315
C4 C 0.17892(19) 0.3960(2) 0.0304(2)
C5 C 0.13100(17) 0.40130(19) 0.0095(2)
C6 C 0.09358(14) 0.40137(17) 0.0690(2)
H4 H 0.0610 0.4042 0.0520
H7 H 0.2889 0.4257 0.0439
C13 C 0.06509(16) 0.39999(18) 0.2195(3)
Cd4 Cd -0.000000(18) 0.579743(13) 0.3334
O17 O 0.07861(10) 0.49729(16) 0.38546(17)
Cd2 Cd 0.420257(13) 0.420257(13) 0.6667
O3 O 0.32341(11) 0.39565(12) 0.70392(16)
O4 O 0.38992(11) 0.41915(12) 0.80100(14)
H3 H 0.1239 0.4050 0.9520
C7 C 0.29859(16) 0.40254(17) 0.8446(2)
C8 C 0.24208(19) 0.3846(2) 0.8250(3)
H5 H 0.2293 0.3735 0.7689
C9 C 0.2028(2) 0.3821(3) 0.8846(3)
H6 H 0.1639 0.3693 0.8690
C10 C 0.22077(18) 0.3984(2) 0.9669(3)
C11 C 0.27621(18) 0.4143(2) 0.9877(2)
C12 C 0.31418(19) 0.4144(2) 0.9297(3)
H8 H 0.3515 0.4227 0.9472
C14 C 0.34085(17) 0.40635(16) 0.7792(3)
O10 O 0.39565(12) 0.32341(11) 0.62941(16)
O12 O 0.41915(12) 0.38992(11) 0.53233(14)
O14 O 0.51435(11) 0.45531(15) 0.70873(16)
O15 O 0.45531(15) 0.51435(11) 0.62460(16)
Cd6 Cd 0.579743(13) 0.000000(18) 0.0000
Cd1_2 Cd 1.0000 0.418979(12) 0.3333
O5 O 0.94096(10) 0.48565(11) 0.37540(16)
O6 O 0.92139(10) 0.41868(13) 0.28121(17)
C15 C 0.85454(15) 0.44977(16) 0.2987(3)
C16 C 0.82534(17) 0.4270(2) 0.2226(3)
H9 H 0.8413 0.4124 0.1829
C17 C 0.77497(19) 0.4254(2) 0.2043(3)
H10 H 0.7559 0.4092 0.1526
C18 C 0.75112(15) 0.44725(18) 0.2604(3)
C19 C 0.77858(18) 0.4686(2) 0.3361(3)
H11 H 0.7613 0.4816 0.3762
C20 C 0.83087(18) 0.4715(2) 0.3557(3)
H12 H 0.8500 0.4882 0.4072
C21 C 0.90940(13) 0.45149(17) 0.3191(2)
Cd3 Cd 0.418979(12) 0.418979(12) 0.1666
Cd4_2 Cd 1.000000(18) 0.579743(13) 0.3334
Cd5 Cd 0.579743(13) 0.579743(13) 0.1667
Cd6_2 Cd 0.579743(13) 0.000000(18) 1.0000
O7 O 0.97060(11) 0.38646(16) 0.46746(15)
O8 O 0.93035(13) 0.31814(20) 0.37303(19)
O9 O 0.67659(11) 0.07224(16) 0.96275(16)
O11 O 0.61008(11) 0.02923(16) 0.86567(14)
O13 O 0.54469(15) 0.48565(11) 0.12460(16)
O16 O 0.49729(16) 0.41868(13) 0.21879(17)
C22 C 0.89687(17) 0.29427(26) 0.5149(2)
C23 C 0.8548(2) 0.2399(4) 0.4915(3)
H13 H 0.8523 0.2277 0.4348
C24 C 0.8150(2) 0.2019(4) 0.5524(3)
H14 H 0.7838 0.1655 0.5352
C25 C 0.82108(19) 0.21708(28) 0.6363(2)
C26 C 0.86900(17) 0.27030(25) 0.6572(2)
H15 H 0.8761 0.2811 0.7147
C27 C 0.90642(14) 0.30779(22) 0.5977(2)
H16 H 0.9390 0.3432 0.6147
C28 C 0.70141(16) 0.10395(23) 0.8221(2)
C29 C 0.75792(19) 0.14252(28) 0.8417(3)
H17 H 0.7707 0.1442 0.8978
C30 C 0.7972(2) 0.1793(4) 0.7821(3)
H18 H 0.8361 0.2054 0.7977
C31 C 0.77923(18) 0.17763(27) 0.6998(3)
C32 C 0.72379(18) 0.13809(27) 0.6790(2)
H19 H 0.7111 0.1368 0.6228
C33 C 0.68582(19) 0.10022(28) 0.7370(3)
H20 H 0.6485 0.0712 0.7195
C34 C 0.93491(16) 0.33490(24) 0.4472(3)
C35 C 0.65915(17) 0.06550(23) 0.8875(3)
C36 C 0.59523(22) 0.44977(16) 0.2013(3)
C37 C 0.60166(26) 0.4270(2) 0.2774(3)
H21 H 0.5711 0.4124 0.3171
C38 C 0.65043(28) 0.4254(2) 0.2957(3)
H22 H 0.6533 0.4092 0.3474
C39 C 0.69613(23) 0.44725(18) 0.2396(3)
C40 C 0.69002(27) 0.4686(2) 0.1639(3)
H23 H 0.7203 0.4816 0.1238
C41 C 0.64063(27) 0.4715(2) 0.1443(3)
H24 H 0.6382 0.4882 0.0928
C42 C 0.54209(21) 0.45149(17) 0.1809(2)
Cd6_3 Cd 0.579743(13) 1.000000(18) 0.0000
Cd6_4 Cd 0.579743(13) 1.000000(18) 1.0000
Cd2_2 Cd -0.000000(18) 0.420257(13) 0.8334
O10_2 O 0.07224(16) 0.39565(12) 0.79608(16)
O12_2 O 0.02923(16) 0.41915(12) 0.69900(14)
O14_2 O 0.05904(19) 0.51435(11) 0.87540(16)
Cd1_3 Cd 0.581021(12) -0.0000 0.5000
O1_2 O 0.61354(16) 0.02940(11) 0.36588(15)
O2_2 O 0.68186(20) 0.06965(13) 0.46031(19)
C1_2 C 0.70573(26) 0.10313(17) 0.3185(2)
C2_2 C 0.7601(4) 0.1452(2) 0.3419(3)
H1_2 H 0.7723 0.1477 0.3986
C3_2 C 0.7981(4) 0.1850(2) 0.2810(3)
H2_2 H 0.8345 0.2162 0.2982
C4_2 C 0.78292(28) 0.17892(19) 0.1971(2)
C5_2 C 0.72970(25) 0.13100(17) 0.1762(2)
H3_2 H 0.7189 0.1239 0.1187
C6_2 C 0.69221(22) 0.09358(14) 0.2357(2)
H4_2 H 0.6568 0.0610 0.2187
C7_2 C 0.89605(23) 0.29859(16) 0.0113(2)
C9_2 C 0.8207(4) 0.2028(2) 0.0513(3)
H6_2 H 0.7946 0.1639 0.0357
C10_2 C 0.82237(27) 0.22077(18) 0.1336(3)
C11_2 C 0.86191(27) 0.27621(18) 0.1544(2)
H7_2 H 0.8632 0.2889 0.2106
C12_2 C 0.89978(28) 0.31418(19) 0.0964(3)
H8_2 H 0.9288 0.3515 0.1139
C13_2 C 0.66510(24) 0.06509(16) 0.3862(3)
Cd4_3 Cd 0.420257(22) -0.000000(18) 0.5000
O17_2 O 0.58132(19) 0.07861(10) 0.55212(17)
Cd2_3 Cd 1.000000(18) 0.420257(13) 0.8334
O3_2 O 0.92776(16) 0.32341(11) 0.87059(16)
O4_2 O 0.97077(16) 0.38992(11) 0.96767(14)
C8_2 C 0.85748(28) 0.24208(19) 0.9917(3)
H5_2 H 0.8558 0.2293 0.9356
C14_2 C 0.93450(23) 0.34085(17) 0.9459(3)
O15_2 O 0.94096(19) 0.45531(15) 0.79127(16)
O9_2 O 0.60435(19) 0.67659(11) 0.12941(16)
O11_2 O 0.58085(19) 0.61008(11) 0.03233(14)
C29_2 C 0.61540(34) 0.75792(19) 0.0083(3)
H17_2 H 0.6265 0.7707 0.0644
C35_2 C 0.59365(29) 0.65915(17) 0.0541(3)
Cd1_4 Cd 0.581021(12) 1.0000 0.5000
O5_2 O 0.45531(15) 0.94096(10) 0.54207(16)
O6_2 O 0.50271(16) 0.92139(10) 0.44788(17)
C15_2 C 0.40477(22) 0.85454(15) 0.4654(3)
C16_2 C 0.39834(26) 0.82534(17) 0.3893(3)
H9_2 H 0.4289 0.8413 0.3496
C17_2 C 0.34957(28) 0.77497(19) 0.3710(3)
H10_2 H 0.3467 0.7559 0.3193
C18_2 C 0.30387(23) 0.75112(15) 0.4271(3)
C19_2 C 0.30998(27) 0.77858(18) 0.5028(3)
H11_2 H 0.2797 0.7613 0.5429
C20_2 C 0.35937(27) 0.83087(18) 0.5224(3)
H12_2 H 0.3618 0.8500 0.5739
C21_2 C 0.45791(21) 0.90940(13) 0.4858(2)
Cd4_4 Cd 0.420257(22) 1.000000(18) 0.5000
O7_2 O 0.58414(19) 0.97060(11) 0.63412(15)
O8_2 O 0.61221(24) 0.93035(13) 0.53969(19)
O13_2 O 0.05904(19) 0.54469(15) 0.29127(16)
C22_2 C 0.60260(31) 0.89687(17) 0.6815(2)
C23_2 C 0.6149(4) 0.8548(2) 0.6581(3)
H13_2 H 0.6246 0.8523 0.6014
C24_2 C 0.6131(4) 0.8150(2) 0.7190(3)
H14_2 H 0.6183 0.7838 0.7018
C25_2 C 0.60400(34) 0.82108(19) 0.8029(2)
C26_2 C 0.59870(30) 0.86900(17) 0.8238(2)
H15_2 H 0.5950 0.8761 0.8813
C27_2 C 0.59863(26) 0.90642(14) 0.7643(2)
H16_2 H 0.5958 0.9390 0.7813
C28_2 C 0.59746(28) 0.70141(16) 0.9887(2)
C30_2 C 0.6179(4) 0.7972(2) 0.9487(3)
H18_2 H 0.6307 0.8361 0.9643
C31_2 C 0.60160(32) 0.77923(18) 0.8664(3)
C32_2 C 0.58570(32) 0.72379(18) 0.8456(2)
H19_2 H 0.5743 0.7111 0.7894
C33_2 C 0.58560(34) 0.68582(19) 0.9036(3)
H20_2 H 0.5773 0.6485 0.8861
C34_2 C 0.60001(29) 0.93491(16) 0.6138(3)
C36_2 C 0.14546(27) 0.59523(22) 0.3680(3)
C37_2 C 0.17466(33) 0.60166(26) 0.4441(3)
H21_2 H 0.1587 0.5711 0.4838
C38_2 C 0.22503(34) 0.65043(28) 0.4624(3)
H22_2 H 0.2441 0.6533 0.5141
C39_2 C 0.24888(29) 0.69613(23) 0.4063(3)
C40_2 C 0.22142(34) 0.69002(27) 0.3306(3)
H23_2 H 0.2387 0.7203 0.2905
C41_2 C 0.16913(34) 0.64063(27) 0.3110(3)
H24_2 H 0.1500 0.6382 0.2595
C42_2 C 0.09060(27) 0.54209(21) 0.3476(2)
O14_3 O 0.54469(15) 0.05904(19) 0.04207(16)
O9_3 O 0.92776(16) 0.60435(19) 0.29608(16)
O11_3 O 0.97077(16) 0.58085(19) 0.19900(14)
H15_3 H 0.7189 0.5950 0.0480
C28_3 C 0.89605(23) 0.59746(28) 0.1554(2)
C29_3 C 0.85748(28) 0.61540(34) 0.1750(3)
H17_3 H 0.8558 0.6265 0.2311
C30_3 C 0.8207(4) 0.6179(4) 0.1154(3)
H18_3 H 0.7946 0.6307 0.1310
C31_3 C 0.82237(27) 0.60160(32) 0.0331(3)
C32_3 C 0.86191(27) 0.58570(32) 0.0123(2)
C33_3 C 0.89978(28) 0.58560(34) 0.0703(3)
H20_3 H 0.9288 0.5773 0.0528
C35_3 C 0.93450(23) 0.59365(29) 0.2208(3)
Cd1_5 Cd 0.581021(12) 0.581021(12) 0.6666
O1_3 O 0.58414(12) 0.61354(16) 0.53254(15)
O2_3 O 0.61221(15) 0.68186(20) 0.62697(19)
O3_3 O 0.60435(12) 0.92776(16) 0.03725(16)
O4_3 O 0.58085(12) 0.97077(16) 0.13433(14)
O6_3 O 0.58132(13) 0.50271(16) 0.61454(17)
C1_3 C 0.6026(2) 0.70573(26) 0.4851(2)
C2_3 C 0.6149(3) 0.7601(4) 0.5085(3)
H1_3 H 0.6246 0.7723 0.5652
C3_3 C 0.6131(3) 0.7981(4) 0.4476(3)
H2_3 H 0.6183 0.8345 0.4648
C4_3 C 0.6040(2) 0.78292(28) 0.3637(2)
C5_3 C 0.59870(19) 0.72970(25) 0.3428(2)
H3_3 H 0.5950 0.7189 0.2853
C6_3 C 0.59863(17) 0.69221(22) 0.4023(2)
H4_3 H 0.5958 0.6568 0.3853
C7_3 C 0.59746(17) 0.89605(23) 0.1779(2)
C8_3 C 0.6154(2) 0.85748(28) 0.1583(3)
H5_3 H 0.6265 0.8558 0.1022
C9_3 C 0.6179(3) 0.8207(4) 0.2179(3)
H6_3 H 0.6307 0.7946 0.2023
C10_3 C 0.6016(2) 0.82237(27) 0.3002(3)
C11_3 C 0.5857(2) 0.86191(27) 0.3210(2)
H7_3 H 0.5743 0.8632 0.3772
C12_3 C 0.5856(2) 0.89978(28) 0.2630(3)
H8_3 H 0.5773 0.9288 0.2805
C13_3 C 0.60001(18) 0.66510(24) 0.5528(3)
C14_3 C 0.59365(16) 0.93450(23) 0.1125(3)
C15_3 C 0.55023(16) 0.40477(22) 0.6320(3)
C16_3 C 0.5730(2) 0.39834(26) 0.5559(3)
H9_3 H 0.5876 0.4289 0.5162
C17_3 C 0.5746(2) 0.34957(28) 0.5376(3)
H10_3 H 0.5908 0.3467 0.4859
C18_3 C 0.55275(18) 0.30387(23) 0.5937(3)
C19_3 C 0.5314(2) 0.30998(27) 0.6694(3)
H11_3 H 0.5184 0.2797 0.7095
C20_3 C 0.5285(2) 0.35937(27) 0.6890(3)
H12_3 H 0.5118 0.3618 0.7405
C21_3 C 0.54851(17) 0.45791(21) 0.6524(2)
O7_3 O 0.61354(16) 0.58414(19) 0.80079(15)
O8_3 O 0.68186(20) 0.61221(24) 0.70636(19)
O13_3 O 0.51435(11) 0.05904(19) 0.45793(16)
O17_3 O 0.50271(16) 0.58132(19) 0.71879(17)
C22_3 C 0.70573(26) 0.60260(31) 0.8482(2)
C23_3 C 0.7601(4) 0.6149(4) 0.8248(3)
H13_3 H 0.7723 0.6246 0.7681
C24_3 C 0.7981(4) 0.6131(4) 0.8857(3)
H14_3 H 0.8345 0.6183 0.8685
C25_3 C 0.78292(28) 0.60400(34) 0.9696(2)
C26_3 C 0.72970(25) 0.59870(30) 0.9905(2)
C27_3 C 0.69221(22) 0.59863(26) 0.9310(2)
H16_3 H 0.6568 0.5958 0.9480
H19_3 H 0.8632 0.5743 0.9561
C34_3 C 0.66510(24) 0.60001(29) 0.7805(3)
C36_3 C 0.55023(16) 0.14546(27) 0.5346(3)
C37_3 C 0.5730(2) 0.17466(33) 0.6107(3)
H21_3 H 0.5876 0.1587 0.6504
C38_3 C 0.5746(2) 0.22503(34) 0.6290(3)
H22_3 H 0.5908 0.2441 0.6807
C39_3 C 0.55275(18) 0.24888(29) 0.5729(3)
C40_3 C 0.5314(2) 0.22142(34) 0.4972(3)
H23_3 H 0.5184 0.2387 0.4571
C41_3 C 0.5285(2) 0.16913(34) 0.4776(3)
H24_3 H 0.5118 0.1500 0.4261
C42_3 C 0.54851(17) 0.09060(27) 0.5142(2)
O15_3 O 0.48565(11) 0.94096(19) 0.95793(16)
O9_4 O 0.32341(11) 0.92776(16) 0.46275(16)
O11_4 O 0.38992(11) 0.97077(16) 0.36567(14)
C22_4 C 0.10313(17) 0.70573(26) 0.0149(2)
C24_4 C 0.1850(2) 0.7981(4) 0.0524(3)
H14_4 H 0.2162 0.8345 0.0352
C25_4 C 0.17892(19) 0.78292(28) 0.1363(2)
C26_4 C 0.13100(17) 0.72970(25) 0.1572(2)
H15_4 H 0.1239 0.7189 0.2147
C27_4 C 0.09358(14) 0.69221(22) 0.0977(2)
H16_4 H 0.0610 0.6568 0.1147
C28_4 C 0.29859(16) 0.89605(23) 0.3221(2)
C29_4 C 0.24208(19) 0.85748(28) 0.3417(3)
H17_4 H 0.2293 0.8558 0.3978
C30_4 C 0.2028(2) 0.8207(4) 0.2821(3)
H18_4 H 0.1639 0.7946 0.2977
C31_4 C 0.22077(18) 0.82237(27) 0.1998(3)
C32_4 C 0.27621(18) 0.86191(27) 0.1790(2)
H19_4 H 0.2889 0.8632 0.1228
C33_4 C 0.31418(19) 0.89978(28) 0.2370(3)
H20_4 H 0.3515 0.9288 0.2195
C35_4 C 0.34085(17) 0.93450(23) 0.3875(3)
Cd1_6 Cd 0.0000 0.581021(12) 0.8333
O6_4 O 0.07861(10) 0.58132(13) 0.78121(17)
C15_4 C 0.14546(15) 0.55023(16) 0.7987(3)
C16_4 C 0.17466(17) 0.5730(2) 0.7226(3)
H9_4 H 0.1587 0.5876 0.6829
C17_4 C 0.22503(19) 0.5746(2) 0.7043(3)
H10_4 H 0.2441 0.5908 0.6526
C18_4 C 0.24888(15) 0.55275(18) 0.7604(3)
C19_4 C 0.22142(18) 0.5314(2) 0.8361(3)
H11_4 H 0.2387 0.5184 0.8762
C20_4 C 0.16913(18) 0.5285(2) 0.8557(3)
H12_4 H 0.1500 0.5118 0.9072
C21_4 C 0.09060(13) 0.54851(17) 0.8191(2)
O7_4 O 0.02940(11) 0.61354(16) 0.96746(15)
O8_4 O 0.06965(13) 0.68186(20) 0.87303(19)
C23_4 C 0.1452(2) 0.7601(4) 0.9915(3)
H13_4 H 0.1477 0.7723 0.9348
C34_4 C 0.06509(16) 0.66510(24) 0.9472(3)
C36_4 C 0.40477(22) 0.55023(16) 0.7013(3)
C37_4 C 0.39834(26) 0.5730(2) 0.7774(3)
H21_4 H 0.4289 0.5876 0.8171
C38_4 C 0.34957(28) 0.5746(2) 0.7957(3)
H22_4 H 0.3467 0.5908 0.8474
C39_4 C 0.30387(23) 0.55275(18) 0.7396(3)
C40_4 C 0.30998(27) 0.5314(2) 0.6639(3)
H23_4 H 0.2797 0.5184 0.6238
C41_4 C 0.35937(27) 0.5285(2) 0.6443(3)
H24_4 H 0.3618 0.5118 0.5928
C42_4 C 0.45791(21) 0.54851(17) 0.6809(2)
Cd1_7 Cd 1.0000 0.581021(12) 0.8333
O1_4 O 0.97060(11) 0.58414(12) 0.69921(15)
O2_4 O 0.93035(13) 0.61221(15) 0.79364(19)
O3_4 O 0.67659(11) 0.60435(12) 0.20392(16)
O4_4 O 0.61008(11) 0.58085(12) 0.30100(14)
C1_4 C 0.89687(17) 0.6026(2) 0.6518(2)
C2_4 C 0.8548(2) 0.6149(3) 0.6752(3)
H1_4 H 0.8523 0.6246 0.7319
C3_4 C 0.8150(2) 0.6131(3) 0.6143(3)
H2_4 H 0.7838 0.6183 0.6315
C4_4 C 0.82108(19) 0.6040(2) 0.5304(2)
C5_4 C 0.86900(17) 0.59870(19) 0.5095(2)
H3_4 H 0.8761 0.5950 0.4520
C6_4 C 0.90642(14) 0.59863(17) 0.5690(2)
H4_4 H 0.9390 0.5958 0.5520
C7_4 C 0.70141(16) 0.59746(17) 0.3446(2)
C8_4 C 0.75792(19) 0.6154(2) 0.3250(3)
H5_4 H 0.7707 0.6265 0.2689
C9_4 C 0.7972(2) 0.6179(3) 0.3846(3)
H6_4 H 0.8361 0.6307 0.3690
C10_4 C 0.77923(18) 0.6016(2) 0.4669(3)
C11_4 C 0.72379(18) 0.5857(2) 0.4877(2)
H7_4 H 0.7111 0.5743 0.5439
C12_4 C 0.68582(19) 0.5856(2) 0.4297(3)
H8_4 H 0.6485 0.5773 0.4472
C13_4 C 0.93491(16) 0.60001(18) 0.7195(3)
C14_4 C 0.65915(17) 0.59365(16) 0.2792(3)
O14_4 O 0.48565(11) 0.54469(15) 0.20873(16)
O17_4 O 0.92139(10) 0.50271(16) 0.88546(17)
Cd1_8 Cd 0.418979(12) 0.0000 -0.0000
C19_5 C 0.69002(27) 0.22142(18) 0.0028(3)
H11_5 H 0.7203 0.2387 0.0429
C20_5 C 0.64063(27) 0.16913(18) 0.0224(3)
H12_5 H 0.6382 0.1500 0.0739
O7_5 O 0.41586(19) 0.02940(11) 0.13412(15)
O8_5 O 0.38779(24) 0.06965(13) 0.03969(19)
C22_5 C 0.39740(31) 0.10313(17) 0.1815(2)
C23_5 C 0.3851(4) 0.1452(2) 0.1581(3)
H13_5 H 0.3754 0.1477 0.1014
C24_5 C 0.3869(4) 0.1850(2) 0.2190(3)
H14_5 H 0.3817 0.2162 0.2018
C25_5 C 0.39600(34) 0.17892(19) 0.3029(2)
C26_5 C 0.40130(30) 0.13100(17) 0.3238(2)
H15_5 H 0.4050 0.1239 0.3813
C27_5 C 0.40137(26) 0.09358(14) 0.2643(2)
H16_5 H 0.4042 0.0610 0.2813
C28_5 C 0.40254(28) 0.29859(16) 0.4887(2)
C29_5 C 0.38460(34) 0.24208(19) 0.5083(3)
H17_5 H 0.3735 0.2293 0.5644
C30_5 C 0.3821(4) 0.2028(2) 0.4487(3)
H18_5 H 0.3693 0.1639 0.4643
C31_5 C 0.39840(32) 0.22077(18) 0.3664(3)
C32_5 C 0.41430(32) 0.27621(18) 0.3456(2)
H19_5 H 0.4257 0.2889 0.2894
C33_5 C 0.41440(34) 0.31418(19) 0.4036(3)
H20_5 H 0.4227 0.3515 0.3861
C34_5 C 0.39999(29) 0.06509(16) 0.1138(3)
C35_5 C 0.40635(29) 0.34085(17) 0.5541(3)
H22_5 H 0.7559 0.3467 0.0141
Cd1_9 Cd 0.418979(12) 0.0000 1.0000
O6_5 O 0.49729(16) 0.07861(10) 0.94788(17)
C15_5 C 0.59523(22) 0.14546(15) 0.9654(3)
C16_5 C 0.60166(26) 0.17466(17) 0.8893(3)
H9_5 H 0.5711 0.1587 0.8496
C17_5 C 0.65043(28) 0.22503(19) 0.8710(3)
H10_5 H 0.6533 0.2441 0.8193
C18_5 C 0.69613(23) 0.24888(15) 0.9271(3)
C21_5 C 0.54209(21) 0.09060(13) 0.9858(2)
C36_5 C 0.85454(27) 0.40477(22) 0.8680(3)
C37_5 C 0.82534(33) 0.39834(26) 0.9441(3)
H21_5 H 0.8413 0.4289 0.9838
C38_5 C 0.77497(34) 0.34957(28) 0.9624(3)
C39_5 C 0.75112(29) 0.30387(23) 0.9063(3)
C40_5 C 0.77858(34) 0.30998(27) 0.8306(3)
H23_5 H 0.7613 0.2797 0.7905
C41_5 C 0.83087(34) 0.35937(27) 0.8110(3)
H24_5 H 0.8500 0.3618 0.7595
C42_5 C 0.90940(27) 0.45791(21) 0.8476(2)
Cd1_10 Cd 0.418979(12) 1.0000 -0.0000
O17_5 O 0.41868(19) 0.92139(10) 0.05212(17)
Cd1_11 Cd 0.418979(12) 1.0000 1.0000
O1_5 O 0.38646(16) 0.97060(11) 0.86588(15)
O2_5 O 0.31814(20) 0.93035(13) 0.96031(19)
O3_5 O 0.07224(16) 0.67659(11) 0.37059(16)
O4_5 O 0.02923(16) 0.61008(11) 0.46767(14)
C1_5 C 0.29427(26) 0.89687(17) 0.8185(2)
C2_5 C 0.2399(4) 0.8548(2) 0.8419(3)
H1_5 H 0.2277 0.8523 0.8986
C3_5 C 0.2019(4) 0.8150(2) 0.7810(3)
H2_5 H 0.1655 0.7838 0.7982
C4_5 C 0.21708(28) 0.82108(19) 0.6971(2)
C5_5 C 0.27030(25) 0.86900(17) 0.6762(2)
H3_5 H 0.2811 0.8761 0.6187
C6_5 C 0.30779(22) 0.90642(14) 0.7357(2)
H4_5 H 0.3432 0.9390 0.7187
C7_5 C 0.10395(23) 0.70141(16) 0.5113(2)
C8_5 C 0.14252(28) 0.75792(19) 0.4917(3)
H5_5 H 0.1442 0.7707 0.4356
C9_5 C 0.1793(4) 0.7972(2) 0.5513(3)
H6_5 H 0.2054 0.8361 0.5357
C10_5 C 0.17763(27) 0.77923(18) 0.6336(3)
C11_5 C 0.13809(27) 0.72379(18) 0.6544(2)
H7_5 H 0.1368 0.7111 0.7106
C12_5 C 0.10022(28) 0.68582(19) 0.5964(3)
H8_5 H 0.0712 0.6485 0.6139
C13_5 C 0.33490(24) 0.93491(16) 0.8862(3)
C14_5 C 0.06550(23) 0.65915(17) 0.4459(3)
O1_6 O 0.41586(12) 0.38646(16) 0.03254(15)
O2_6 O 0.38779(15) 0.31814(20) 0.12697(19)
O6_6 O 0.41868(13) 0.49729(16) 0.11454(17)
C2_6 C 0.3851(3) 0.2399(4) 0.0085(3)
H1_6 H 0.3754 0.2277 0.0652
C13_6 C 0.39999(18) 0.33490(24) 0.0528(3)
C15_6 C 0.44977(16) 0.59523(22) 0.1320(3)
C16_6 C 0.4270(2) 0.60166(26) 0.0559(3)
H9_6 H 0.4124 0.5711 0.0162
C17_6 C 0.4254(2) 0.65043(28) 0.0376(3)
C18_6 C 0.44725(18) 0.69613(23) 0.0937(3)
C19_6 C 0.4686(2) 0.69002(27) 0.1694(3)
H11_6 H 0.4816 0.7203 0.2095
C20_6 C 0.4715(2) 0.64063(27) 0.1890(3)
H12_6 H 0.4882 0.6382 0.2405
C21_6 C 0.45149(17) 0.54209(21) 0.1524(2)
O7_6 O 0.38646(16) 0.41586(19) 0.30079(15)
O8_6 O 0.31814(20) 0.38779(24) 0.20636(19)
C22_6 C 0.29427(26) 0.39740(31) 0.3482(2)
C23_6 C 0.2399(4) 0.3851(4) 0.3248(3)
H13_6 H 0.2277 0.3754 0.2681
C24_6 C 0.2019(4) 0.3869(4) 0.3857(3)
H14_6 H 0.1655 0.3817 0.3685
C25_6 C 0.21708(28) 0.39600(34) 0.4696(2)
C26_6 C 0.27030(25) 0.40130(30) 0.4905(2)
H15_6 H 0.2811 0.4050 0.5480
C27_6 C 0.30779(22) 0.40137(26) 0.4310(2)
H16_6 H 0.3432 0.4042 0.4480
C28_6 C 0.10395(23) 0.40254(28) 0.6554(2)
C29_6 C 0.14252(28) 0.38460(34) 0.6750(3)
H17_6 H 0.1442 0.3735 0.7311
C30_6 C 0.1793(4) 0.3821(4) 0.6154(3)
H18_6 H 0.2054 0.3693 0.6310
C31_6 C 0.17763(27) 0.39840(32) 0.5331(3)
C32_6 C 0.13809(27) 0.41430(32) 0.5123(2)
H19_6 H 0.1368 0.4257 0.4561
C33_6 C 0.10022(28) 0.41440(34) 0.5703(3)
H20_6 H 0.0712 0.4227 0.5528
C34_6 C 0.33490(24) 0.39999(29) 0.2805(3)
C35_6 C 0.06550(23) 0.40635(29) 0.7208(3)
C36_6 C 0.44977(16) 0.85454(27) 0.0346(3)
C37_6 C 0.4270(2) 0.82534(33) 0.1107(3)
H21_6 H 0.4124 0.8413 0.1504
C38_6 C 0.4254(2) 0.77497(34) 0.1290(3)
H22_6 H 0.4092 0.7559 0.1807
C39_6 C 0.44725(18) 0.75112(29) 0.0729(3)
C42_6 C 0.45149(17) 0.90940(27) 0.0142(2)
O3_6 O 0.39565(12) 0.07224(16) 0.53725(16)
O4_6 O 0.41915(12) 0.02923(16) 0.63433(14)
C1_6 C 0.3974(2) 0.29427(26) 0.9851(2)
C3_6 C 0.3869(3) 0.2019(4) 0.9476(3)
H2_6 H 0.3817 0.1655 0.9648
C4_6 C 0.3960(2) 0.21708(28) 0.8637(2)
C5_6 C 0.40130(19) 0.27030(25) 0.8428(2)
H3_6 H 0.4050 0.2811 0.7853
C6_6 C 0.40137(17) 0.30779(22) 0.9023(2)
H4_6 H 0.4042 0.3432 0.8853
C7_6 C 0.40254(17) 0.10395(23) 0.6779(2)
C8_6 C 0.3846(2) 0.14252(28) 0.6583(3)
H5_6 H 0.3735 0.1442 0.6022
C9_6 C 0.3821(3) 0.1793(4) 0.7179(3)
H6_6 H 0.3693 0.2054 0.7023
C10_6 C 0.3984(2) 0.17763(27) 0.8002(3)
C11_6 C 0.4143(2) 0.13809(27) 0.8210(2)
H7_6 H 0.4257 0.1368 0.8772
C12_6 C 0.4144(2) 0.10022(28) 0.7630(3)
H8_6 H 0.4227 0.0712 0.7805
C14_6 C 0.40635(16) 0.06550(23) 0.6125(3)
H10_6 H 0.4092 0.6533 0.9859
C40_6 C 0.4686(2) 0.77858(34) 0.9972(3)
H23_6 H 0.4816 0.7613 0.9571
C41_6 C 0.4715(2) 0.83087(34) 0.9776(3)
H24_6 H 0.4882 0.8500 0.9261
loop_
_geom_bond_atom_site_label_1
_geom_bond_atom_site_label_2
_geom_bond_site_symmetry_1
_geom_bond_site_symmetry_2
Cd1 O1 1_555 1_555
O1 C13 1_555 1_555
O2 Cd1 1_555 1_555
C1 C2 1_555 1_555
C2 H1 1_555 1_555
C3 C2 1_555 1_555
H2 C3 1_555 1_555
C4 C3 1_555 1_555
C5 C4 1_555 1_555
C6 C1 1_555 1_555
H4 C6 1_555 1_555
C13 O2 1_555 1_555
O17 Cd1 1_555 1_555
C1 C13 1_555 1_555
C5 C6 1_555 1_555
Cd2 O3 1_555 1_555
O3 C14 1_555 1_555
O4 Cd2 1_555 1_555
C7 C8 1_555 1_555
C8 H5 1_555 1_555
C9 C8 1_555 1_555
H6 C9 1_555 1_555
C11 C10 1_555 1_555
C12 C7 1_555 1_555
H8 C12 1_555 1_555
C14 O4 1_555 1_555
O10 Cd2 1_555 1_555
O12 Cd2 1_555 1_555
O14 Cd2 1_555 1_555
O15 Cd2 1_555 1_555
C7 C14 1_555 1_555
C9 C10 1_555 1_555
C11 C12 1_555 1_555
O5 C21 1_555 1_555
O6 Cd1_2 1_555 1_555
C15 C16 1_555 1_555
C16 H9 1_555 1_555
C17 C16 1_555 1_555
H10 C17 1_555 1_555
C18 C17 1_555 1_555
C19 C18 1_555 1_555
H11 C19 1_555 1_555
C20 C15 1_555 1_555
H12 C20 1_555 1_555
C21 O6 1_555 1_555
Cd3 O16 1_555 1_555
Cd4_2 O5 1_555 1_555
Cd5 O13 1_555 1_555
Cd6_2 O9 1_555 1_555
O7 Cd1_2 1_555 1_555
O8 Cd1_2 1_555 1_555
O9 C35 1_555 1_555
O11 Cd6_2 1_555 1_555
O13 C42 1_555 1_555
O16 C42 1_555 1_555
C22 C23 1_555 1_555
C23 H13 1_555 1_555
C24 C23 1_555 1_555
H14 C24 1_555 1_555
C25 C24 1_555 1_555
C26 C25 1_555 1_555
H15 C26 1_555 1_555
C27 C22 1_555 1_555
H16 C27 1_555 1_555
C28 C29 1_555 1_555
C29 H17 1_555 1_555
C30 C29 1_555 1_555
H18 C30 1_555 1_555
C31 C25 1_555 1_555
C32 C31 1_555 1_555
H19 C32 1_555 1_555
C33 C28 1_555 1_555
H20 C33 1_555 1_555
C34 O7 1_555 1_555
C35 O11 1_555 1_555
C36 C37 1_555 1_555
C37 H21 1_555 1_555
C38 C37 1_555 1_555
H22 C38 1_555 1_555
C39 C18 1_555 1_555
C40 C39 1_555 1_555
H23 C40 1_555 1_555
C41 C36 1_555 1_555
H24 C41 1_555 1_555
C42 C36 1_555 1_555
C15 C21 1_555 1_555
C19 C20 1_555 1_555
O8 C34 1_555 1_555
C22 C34 1_555 1_555
C26 C27 1_555 1_555
C28 C35 1_555 1_555
C30 C31 1_555 1_555
C32 C33 1_555 1_555
C38 C39 1_555 1_555
C40 C41 1_555 1_555
O10_2 Cd2_2 1_555 1_555
O12_2 Cd2_2 1_555 1_555
O14_2 Cd2_2 1_555 1_555
Cd1_3 O1_2 1_555 1_555
O1_2 C13_2 1_555 1_555
O2_2 Cd1_3 1_555 1_555
C1_2 C2_2 1_555 1_555
C2_2 H1_2 1_555 1_555
C3_2 C2_2 1_555 1_555
H2_2 C3_2 1_555 1_555
C4_2 C3_2 1_555 1_555
C5_2 C4_2 1_555 1_555
H3_2 C5_2 1_555 1_555
C6_2 C1_2 1_555 1_555
H4_2 C6_2 1_555 1_555
H6_2 C9_2 1_555 1_555
C10_2 C4_2 1_555 1_555
C11_2 C10_2 1_555 1_555
H7_2 C11_2 1_555 1_555
C12_2 C7_2 1_555 1_555
H8_2 C12_2 1_555 1_555
C13_2 O2_2 1_555 1_555
O17_2 Cd1_3 1_555 1_555
C1_2 C13_2 1_555 1_555
C5_2 C6_2 1_555 1_555
C9_2 C10_2 1_555 1_555
C11_2 C12_2 1_555 1_555
Cd2_3 O3_2 1_555 1_555
O3_2 C14_2 1_555 1_555
O4_2 Cd2_3 1_555 1_555
C8_2 H5_2 1_555 1_555
C14_2 O4_2 1_555 1_555
O15_2 Cd2_3 1_555 1_555
Cd5 O9_2 1_555 1_555
O9_2 C35_2 1_555 1_555
O11_2 Cd5 1_555 1_555
C29_2 H17_2 1_555 1_555
C35_2 O11_2 1_555 1_555
O5_2 C21_2 1_555 1_555
O6_2 Cd1_4 1_555 1_555
C15_2 C16_2 1_555 1_555
C16_2 H9_2 1_555 1_555
C17_2 C16_2 1_555 1_555
H10_2 C17_2 1_555 1_555
C18_2 C17_2 1_555 1_555
C19_2 C18_2 1_555 1_555
H11_2 C19_2 1_555 1_555
C20_2 C15_2 1_555 1_555
H12_2 C20_2 1_555 1_555
C21_2 O6_2 1_555 1_555
Cd4_4 O5_2 1_555 1_555
Cd4 O13_2 1_555 1_555
O7_2 Cd1_4 1_555 1_555
O8_2 Cd1_4 1_555 1_555
O13_2 C42_2 1_555 1_555
O17 C42_2 1_555 1_555
C22_2 C23_2 1_555 1_555
C23_2 H13_2 1_555 1_555
C24_2 C23_2 1_555 1_555
H14_2 C24_2 1_555 1_555
C25_2 C24_2 1_555 1_555
C26_2 C25_2 1_555 1_555
H15_2 C26_2 1_555 1_555
C27_2 C22_2 1_555 1_555
H16_2 C27_2 1_555 1_555
H18_2 C30_2 1_555 1_555
C31_2 C25_2 1_555 1_555
C32_2 C31_2 1_555 1_555
H19_2 C32_2 1_555 1_555
C33_2 C28_2 1_555 1_555
H20_2 C33_2 1_555 1_555
C34_2 O7_2 1_555 1_555
C36_2 C37_2 1_555 1_555
C37_2 H21_2 1_555 1_555
C38_2 C37_2 1_555 1_555
H22_2 C38_2 1_555 1_555
C39_2 C18_2 1_555 1_555
C40_2 C39_2 1_555 1_555
H23_2 C40_2 1_555 1_555
C41_2 C36_2 1_555 1_555
H24_2 C41_2 1_555 1_555
C42_2 C36_2 1_555 1_555
C15_2 C21_2 1_555 1_555
C19_2 C20_2 1_555 1_555
O8_2 C34_2 1_555 1_555
C22_2 C34_2 1_555 1_555
C26_2 C27_2 1_555 1_555
C30_2 C31_2 1_555 1_555
C32_2 C33_2 1_555 1_555
C38_2 C39_2 1_555 1_555
C40_2 C41_2 1_555 1_555
O14_3 Cd6 1_555 1_555
Cd4_2 O9_3 1_555 1_555
O9_3 C35_3 1_555 1_555
O11_3 Cd4_2 1_555 1_555
C28_3 C29_3 1_555 1_555
C29_3 H17_3 1_555 1_555
C30_3 C29_3 1_555 1_555
H18_3 C30_3 1_555 1_555
C32_3 C31_3 1_555 1_555
C33_3 C28_3 1_555 1_555
H20_3 C33_3 1_555 1_555
C35_3 O11_3 1_555 1_555
C28_3 C35_3 1_555 1_555
C30_3 C31_3 1_555 1_555
C32_3 C33_3 1_555 1_555
Cd1_5 O1_3 1_555 1_555
Cd6_3 O3_3 1_555 1_555
O1_3 C13_3 1_555 1_555
O2_3 Cd1_5 1_555 1_555
O3_3 C14_3 1_555 1_555
O4_3 Cd6_3 1_555 1_555
O14 C21_3 1_555 1_555
O6_3 Cd1_5 1_555 1_555
C1_3 C2_3 1_555 1_555
C2_3 H1_3 1_555 1_555
C3_3 C2_3 1_555 1_555
H2_3 C3_3 1_555 1_555
C4_3 C3_3 1_555 1_555
C5_3 C4_3 1_555 1_555
H3_3 C5_3 1_555 1_555
C6_3 C1_3 1_555 1_555
H4_3 C6_3 1_555 1_555
C7_3 C8_3 1_555 1_555
C8_3 H5_3 1_555 1_555
C9_3 C8_3 1_555 1_555
H6_3 C9_3 1_555 1_555
C10_3 C4_3 1_555 1_555
C11_3 C10_3 1_555 1_555
H7_3 C11_3 1_555 1_555
C12_3 C7_3 1_555 1_555
H8_3 C12_3 1_555 1_555
C13_3 O2_3 1_555 1_555
C14_3 O4_3 1_555 1_555
C15_3 C16_3 1_555 1_555
C16_3 H9_3 1_555 1_555
C17_3 C16_3 1_555 1_555
H10_3 C17_3 1_555 1_555
C18_3 C17_3 1_555 1_555
C19_3 C18_3 1_555 1_555
H11_3 C19_3 1_555 1_555
C20_3 C15_3 1_555 1_555
H12_3 C20_3 1_555 1_555
C21_3 O6_3 1_555 1_555
Cd4_3 O13_3 1_555 1_555
O7_3 Cd1_5 1_555 1_555
O8_3 Cd1_5 1_555 1_555
O13_3 C42_3 1_555 1_555
O17_2 C42_3 1_555 1_555
O17_3 Cd1_5 1_555 1_555
C22_3 C23_3 1_555 1_555
C23_3 H13_3 1_555 1_555
C24_3 C23_3 1_555 1_555
H14_3 C24_3 1_555 1_555
C25_3 C24_3 1_555 1_555
C26_3 C25_3 1_555 1_555
C27_3 C22_3 1_555 1_555
H16_3 C27_3 1_555 1_555
C34_3 O7_3 1_555 1_555
C36_3 C37_3 1_555 1_555
C37_3 H21_3 1_555 1_555
C38_3 C37_3 1_555 1_555
H22_3 C38_3 1_555 1_555
C39_3 C18_3 1_555 1_555
C40_3 C39_3 1_555 1_555
H23_3 C40_3 1_555 1_555
C41_3 C36_3 1_555 1_555
H24_3 C41_3 1_555 1_555
C42_3 C36_3 1_555 1_555
C1_3 C13_3 1_555 1_555
C5_3 C6_3 1_555 1_555
C7_3 C14_3 1_555 1_555
C9_3 C10_3 1_555 1_555
C11_3 C12_3 1_555 1_555
C15_3 C21_3 1_555 1_555
C19_3 C20_3 1_555 1_555
O8_3 C34_3 1_555 1_555
C22_3 C34_3 1_555 1_555
C26_3 C27_3 1_555 1_555
C38_3 C39_3 1_555 1_555
C40_3 C41_3 1_555 1_555
O15_3 Cd6_4 1_555 1_555
Cd4_4 O9_4 1_555 1_555
O9_4 C35_4 1_555 1_555
O11_4 Cd4_4 1_555 1_555
H14_4 C24_4 1_555 1_555
C25_4 C24_4 1_555 1_555
C26_4 C25_4 1_555 1_555
H15_4 C26_4 1_555 1_555
C27_4 C22_4 1_555 1_555
H16_4 C27_4 1_555 1_555
C28_4 C29_4 1_555 1_555
C29_4 H17_4 1_555 1_555
C30_4 C29_4 1_555 1_555
H18_4 C30_4 1_555 1_555
C31_4 C25_4 1_555 1_555
C32_4 C31_4 1_555 1_555
H19_4 C32_4 1_555 1_555
C33_4 C28_4 1_555 1_555
H20_4 C33_4 1_555 1_555
C35_4 O11_4 1_555 1_555
C26_4 C27_4 1_555 1_555
C28_4 C35_4 1_555 1_555
C30_4 C31_4 1_555 1_555
C32_4 C33_4 1_555 1_555
O14_2 C21_4 1_555 1_555
O6_4 Cd1_6 1_555 1_555
C15_4 C16_4 1_555 1_555
C16_4 H9_4 1_555 1_555
C17_4 C16_4 1_555 1_555
H10_4 C17_4 1_555 1_555
C18_4 C17_4 1_555 1_555
C19_4 C18_4 1_555 1_555
H11_4 C19_4 1_555 1_555
C20_4 C15_4 1_555 1_555
H12_4 C20_4 1_555 1_555
C21_4 O6_4 1_555 1_555
O7_4 Cd1_6 1_555 1_555
O8_4 Cd1_6 1_555 1_555
O15 C42_4 1_555 1_555
O17_3 C42_4 1_555 1_555
C23_4 H13_4 1_555 1_555
C34_4 O7_4 1_555 1_555
C36_4 C37_4 1_555 1_555
C37_4 H21_4 1_555 1_555
C38_4 C37_4 1_555 1_555
H22_4 C38_4 1_555 1_555
C39_4 C18_4 1_555 1_555
C40_4 C39_4 1_555 1_555
H23_4 C40_4 1_555 1_555
C41_4 C36_4 1_555 1_555
H24_4 C41_4 1_555 1_555
C42_4 C36_4 1_555 1_555
C15_4 C21_4 1_555 1_555
C19_4 C20_4 1_555 1_555
O8_4 C34_4 1_555 1_555
C38_4 C39_4 1_555 1_555
C40_4 C41_4 1_555 1_555
Cd1_7 O1_4 1_555 1_555
Cd5 O3_4 1_555 1_555
O1_4 C13_4 1_555 1_555
O2_4 Cd1_7 1_555 1_555
O3_4 C14_4 1_555 1_555
O4_4 Cd5 1_555 1_555
C1_4 C2_4 1_555 1_555
C2_4 H1_4 1_555 1_555
C3_4 C2_4 1_555 1_555
H2_4 C3_4 1_555 1_555
C4_4 C3_4 1_555 1_555
C5_4 C4_4 1_555 1_555
H3_4 C5_4 1_555 1_555
C6_4 C1_4 1_555 1_555
H4_4 C6_4 1_555 1_555
C7_4 C8_4 1_555 1_555
C8_4 H5_4 1_555 1_555
C9_4 C8_4 1_555 1_555
H6_4 C9_4 1_555 1_555
C10_4 C4_4 1_555 1_555
C11_4 C10_4 1_555 1_555
H7_4 C11_4 1_555 1_555
C12_4 C7_4 1_555 1_555
H8_4 C12_4 1_555 1_555
C13_4 O2_4 1_555 1_555
C14_4 O4_4 1_555 1_555
O14_4 Cd5 1_555 1_555
O17_4 Cd1_7 1_555 1_555
C1_4 C13_4 1_555 1_555
C5_4 C6_4 1_555 1_555
C7_4 C14_4 1_555 1_555
C9_4 C10_4 1_555 1_555
C11_4 C12_4 1_555 1_555
H11_5 C19_5 1_555 1_555
H12_5 C20_5 1_555 1_555
O7_5 Cd1_8 1_555 1_555
O8_5 Cd1_8 1_555 1_555
O10 C35_5 1_555 1_555
C22_5 C23_5 1_555 1_555
C23_5 H13_5 1_555 1_555
C24_5 C23_5 1_555 1_555
H14_5 C24_5 1_555 1_555
C25_5 C24_5 1_555 1_555
C26_5 C25_5 1_555 1_555
H15_5 C26_5 1_555 1_555
C27_5 C22_5 1_555 1_555
H16_5 C27_5 1_555 1_555
C28_5 C29_5 1_555 1_555
C29_5 H17_5 1_555 1_555
C30_5 C29_5 1_555 1_555
H18_5 C30_5 1_555 1_555
C31_5 C25_5 1_555 1_555
C32_5 C31_5 1_555 1_555
H19_5 C32_5 1_555 1_555
C33_5 C28_5 1_555 1_555
H20_5 C33_5 1_555 1_555
C34_5 O7_5 1_555 1_555
C35_5 O12 1_555 1_555
C19_5 C20_5 1_555 1_555
O8_5 C34_5 1_555 1_555
C22_5 C34_5 1_555 1_555
C26_5 C27_5 1_555 1_555
C28_5 C35_5 1_555 1_555
C30_5 C31_5 1_555 1_555
C32_5 C33_5 1_555 1_555
O6_5 Cd1_9 1_555 1_555
C15_5 C16_5 1_555 1_555
C16_5 H9_5 1_555 1_555
C17_5 C16_5 1_555 1_555
H10_5 C17_5 1_555 1_555
C18_5 C17_5 1_555 1_555
C21_5 O6_5 1_555 1_555
O15_2 C42_5 1_555 1_555
O17_4 C42_5 1_555 1_555
C36_5 C37_5 1_555 1_555
C37_5 H21_5 1_555 1_555
C38_5 C37_5 1_555 1_555
C39_5 C18_5 1_555 1_555
C40_5 C39_5 1_555 1_555
H23_5 C40_5 1_555 1_555
C41_5 C36_5 1_555 1_555
H24_5 C41_5 1_555 1_555
C42_5 C36_5 1_555 1_555
C15_5 C21_5 1_555 1_555
C38_5 C39_5 1_555 1_555
C40_5 C41_5 1_555 1_555
O17_5 Cd1_10 1_555 1_555
Cd1_11 O1_5 1_555 1_555
Cd4 O3_5 1_555 1_555
O1_5 C13_5 1_555 1_555
O2_5 Cd1_11 1_555 1_555
O3_5 C14_5 1_555 1_555
O4_5 Cd4 1_555 1_555
C1_5 C2_5 1_555 1_555
C2_5 H1_5 1_555 1_555
C3_5 C2_5 1_555 1_555
H2_5 C3_5 1_555 1_555
C4_5 C3_5 1_555 1_555
C5_5 C4_5 1_555 1_555
H3_5 C5_5 1_555 1_555
C6_5 C1_5 1_555 1_555
H4_5 C6_5 1_555 1_555
C7_5 C8_5 1_555 1_555
C8_5 H5_5 1_555 1_555
C9_5 C8_5 1_555 1_555
H6_5 C9_5 1_555 1_555
C10_5 C4_5 1_555 1_555
C11_5 C10_5 1_555 1_555
H7_5 C11_5 1_555 1_555
C12_5 C7_5 1_555 1_555
H8_5 C12_5 1_555 1_555
C13_5 O2_5 1_555 1_555
C14_5 O4_5 1_555 1_555
C1_5 C13_5 1_555 1_555
C5_5 C6_5 1_555 1_555
C7_5 C14_5 1_555 1_555
C9_5 C10_5 1_555 1_555
C11_5 C12_5 1_555 1_555
Cd3 O1_6 1_555 1_555
O1_6 C13_6 1_555 1_555
O2_6 Cd3 1_555 1_555
O14_4 C21_6 1_555 1_555
O6_6 Cd3 1_555 1_555
C2_6 H1_6 1_555 1_555
C13_6 O2_6 1_555 1_555
C15_6 C16_6 1_555 1_555
C16_6 H9_6 1_555 1_555
C17_6 C16_6 1_555 1_555
C18_6 C17_6 1_555 1_555
C19_6 C18_6 1_555 1_555
H11_6 C19_6 1_555 1_555
C20_6 C15_6 1_555 1_555
H12_6 C20_6 1_555 1_555
C21_6 O6_6 1_555 1_555
O7_6 Cd3 1_555 1_555
O8_6 Cd3 1_555 1_555
O10_2 C35_6 1_555 1_555
O17_5 C42_6 1_555 1_555
C22_6 C23_6 1_555 1_555
C23_6 H13_6 1_555 1_555
C24_6 C23_6 1_555 1_555
H14_6 C24_6 1_555 1_555
C25_6 C24_6 1_555 1_555
C26_6 C25_6 1_555 1_555
H15_6 C26_6 1_555 1_555
C27_6 C22_6 1_555 1_555
H16_6 C27_6 1_555 1_555
C28_6 C29_6 1_555 1_555
C29_6 H17_6 1_555 1_555
C30_6 C29_6 1_555 1_555
H18_6 C30_6 1_555 1_555
C31_6 C25_6 1_555 1_555
C32_6 C31_6 1_555 1_555
H19_6 C32_6 1_555 1_555
C33_6 C28_6 1_555 1_555
H20_6 C33_6 1_555 1_555
C34_6 O7_6 1_555 1_555
C35_6 O12_2 1_555 1_555
C36_6 C37_6 1_555 1_555
C37_6 H21_6 1_555 1_555
C38_6 C37_6 1_555 1_555
H22_6 C38_6 1_555 1_555
C39_6 C18_6 1_555 1_555
C42_6 C36_6 1_555 1_555
C15_6 C21_6 1_555 1_555
C19_6 C20_6 1_555 1_555
O8_6 C34_6 1_555 1_555
C22_6 C34_6 1_555 1_555
C26_6 C27_6 1_555 1_555
C28_6 C35_6 1_555 1_555
C30_6 C31_6 1_555 1_555
C32_6 C33_6 1_555 1_555
C38_6 C39_6 1_555 1_555
Cd4_3 O3_6 1_555 1_555
O3_6 C14_6 1_555 1_555
O4_6 Cd4_3 1_555 1_555
H2_6 C3_6 1_555 1_555
C4_6 C3_6 1_555 1_555
C5_6 C4_6 1_555 1_555
H3_6 C5_6 1_555 1_555
C6_6 C1_6 1_555 1_555
H4_6 C6_6 1_555 1_555
C7_6 C8_6 1_555 1_555
C8_6 H5_6 1_555 1_555
C9_6 C8_6 1_555 1_555
H6_6 C9_6 1_555 1_555
C10_6 C4_6 1_555 1_555
C11_6 C10_6 1_555 1_555
H7_6 C11_6 1_555 1_555
C12_6 C7_6 1_555 1_555
H8_6 C12_6 1_555 1_555
C14_6 O4_6 1_555 1_555
H23_6 C40_6 1_555 1_555
H24_6 C41_6 1_555 1_555
C5_6 C6_6 1_555 1_555
C7_6 C14_6 1_555 1_555
C9_6 C10_6 1_555 1_555
C11_6 C12_6 1_555 1_555
C40_6 C41_6 1_555 1_555

#END
