
###############################################################################
#
# This file contains modified crystal structure data generated from the
# MOF subset of the Cambridge Structural Database (CSD) v543 
# hosted by the Cambridge Crystallographic Data Centre (CCDC).
#
# This work is licensed under the Creative Commons
# Attribution-NonCommercial-ShareAlike 4.0 International License.
# To view a copy of this license, visit
# http://creativecommons.org/licenses/by-nc-sa/4.0/
# or send a letter to
# Creative Commons, PO Box 1866, Mountain View, CA 94042, USA.
#
# CIF created using the CSD Python API on 29 September 2022
# The structure has been converted into the P1 space group
# The structure has a 3D framework
# The original CSD entry GIRDUI is in the monoclinic crystal system
# The framework has been calculated to contain at least 10.0% void space
# The void calculation uses a probe of radius 1.32A, grid spacing 0.4
#
###############################################################################

data_GIRDUI
_chemical_formula_moiety         '(C60 H56 Co4 N8 O18)n'
_symmetry_cell_setting           triclinic
_symmetry_space_group_name_H-M   'P 1'
_symmetry_Int_Tables_number      1
_space_group_name_Hall           'P 1'
loop_
_symmetry_equiv_pos_site_id
_symmetry_equiv_pos_as_xyz
1 x,y,z
_cell_length_a                   14.224(4)
_cell_length_b                   14.726(4)
_cell_length_c                   8.287(2)
_cell_angle_alpha                90
_cell_angle_beta                 99.696(4)
_cell_angle_gamma                90
_cell_volume                     1711.02
loop_
_atom_site_label
_atom_site_type_symbol
_atom_site_fract_x
_atom_site_fract_y
_atom_site_fract_z
C3 C 0.04159(18) 0.69795(16) 0.3373(3)
C4 C 0.11913(18) 0.73578(17) 0.4372(3)
H1 H 0.1613 0.6980 0.5043
C5 C 0.13579(19) 0.82785(17) 0.4403(3)
C6 C 0.06907(19) 0.88121(17) 0.3406(3)
H2 H 0.0767 0.9439 0.3442
C7 C 0.2191(2) 0.8711(2) 0.5477(4)
H3 H 0.2354 0.9263 0.4947
H4 H 0.1991 0.8886 0.6496
C8 C 0.3043(3) 0.8167(3) 0.5867(7)
H5 H 0.2911 0.7641 0.6476
H6 H 0.3537 0.8519 0.6512
H7 H 0.3249 0.7979 0.4873
C9 C 0.02472(19) 0.59740(16) 0.3529(3)
O4 O 0.09203(13) 0.54737(11) 0.3269(2)
Co4 Co 0.11991(2) 0.41744(2) 0.40593(4)
C13 C 0.6055(2) 0.0330(3) 0.8520(4)
H10 H 0.5585 0.0703 0.8816
C14 C 0.6853(2) 0.0141(2) 0.9634(4)
C15 C 0.5087(2) 0.0155(2) 0.5760(4)
H12 H 0.4624 0.0523 0.6092
C16 C 0.2557(2) 0.0726(2) 0.2199(4)
H15 H 0.2076 0.1096 0.2466
C17 C 0.3330(2) 0.0560(2) 0.3387(4)
H16 H 0.3361 0.0808 0.4427
C18 C 0.4060(2) 0.0027(2) 0.3036(4)
N3 N 0.24486(15) 0.03926(14) 0.0695(3)
O11 O 0.04958(12) 0.07107(11) 0.1028(2)
Co2 Co 0.11991(2) 0.08256(2) 0.90593(4)
C22 C 0.09801(19) 0.27681(16) 0.8946(3)
C23 C 0.01841(17) 0.24426(15) 0.7645(3)
N4 N 0.00552(15) 0.15367(13) 0.7600(2)
O6 O 0.15804(13) 0.21751(11) 0.9581(2)
O7 O 0.09924(13) 0.35754(12) 0.9340(2)
O8 O 0.04958(12) 0.42893(11) 0.6028(2)
O10 O 0.20490(14) 0.08851(12) 0.7147(2)
H27 H 0.1696 0.0994 0.6234
H28 H 0.2579 0.1146 0.7114
C1 C 0.09801(19) 0.22319(16) 0.3946(3)
C2 C 0.01841(17) 0.25574(15) 0.2645(3)
C10 C 0.2557(2) 0.4274(2) 0.7199(4)
H8 H 0.2076 0.3904 0.7466
C11 C 0.3330(2) 0.4440(2) 0.8387(4)
H9 H 0.3361 0.4192 0.9427
C12 C 0.4060(2) 0.4973(2) 0.8036(4)
C13_2 C 0.3945(2) 0.5330(3) 0.6480(4)
H10_2 H 0.4415 0.5703 0.6184
C14_2 C 0.3147(2) 0.5141(2) 0.5366(4)
H11 H 0.3089 0.5398 0.4328
C15_2 C 0.4913(2) 0.5155(2) 0.9240(4)
H12_2 H 0.5376 0.5523 0.8908
N1 N 0.00552(15) 0.34633(13) 0.2600(2)
N2 N 0.24486(15) 0.46074(14) 0.5695(3)
O1 O 0.15804(13) 0.28249(11) 0.4581(2)
O2 O 0.09924(13) 0.14246(12) 0.4340(2)
O5 O 0.20490(14) 0.41149(12) 0.2147(2)
H13 H 0.1696 0.4006 0.1234
H14 H 0.2579 0.3854 0.2114
H11_2 H 0.6911 0.0398 0.0672
O13 O 0.90797(13) 0.04737(11) 0.1731(2)
C3_2 C 0.95841(18) 0.19795(16) 0.1627(3)
C4_2 C 0.88087(18) 0.23578(17) 0.0628(3)
C5_2 C 0.86421(19) 0.32785(17) 0.0597(3)
C6_2 C 0.93093(19) 0.38121(17) 0.1594(3)
H2_2 H 0.9233 0.4439 0.1558
H3_2 H 0.7646 0.4263 0.0053
H7_2 H 0.6751 0.2979 0.0127
C9_2 C 0.97528(19) 0.09740(16) 0.1471(3)
Co1 Co 0.88009(2) 0.91744(2) 0.09407(4)
C1_2 C 0.90199(19) 0.72319(16) 0.1054(3)
C2_2 C 0.98159(17) 0.75574(15) 0.2355(3)
N1_2 N 0.99448(15) 0.84633(13) 0.2400(2)
O1_2 O 0.84196(13) 0.78249(11) 0.0419(2)
O2_2 O 0.90076(13) 0.64246(12) 0.0660(2)
O3 O 0.95042(12) 0.57107(11) 0.3972(2)
O5_2 O 0.79510(14) 0.91149(12) 0.2853(2)
H13_2 H 0.8304 0.9006 0.3766
H14_2 H 0.7421 0.8854 0.2886
Co6 Co 0.88009(2) 0.58256(2) 0.59407(4)
C10_2 C 0.7443(2) 0.9274(2) 0.7801(4)
H8_2 H 0.7924 0.8904 0.7534
C11_2 C 0.6670(2) 0.9440(2) 0.6613(4)
H9_2 H 0.6639 0.9192 0.5573
C12_2 C 0.5940(2) 0.9973(2) 0.6964(4)
N2_2 N 0.75514(15) 0.96074(14) 0.9305(3)
C19 C 0.3945(2) 0.9670(3) 0.1480(4)
H17 H 0.4415 0.9297 0.1184
C20 C 0.3147(2) 0.9859(2) 0.0366(4)
C21 C 0.4913(2) 0.9845(2) 0.4240(4)
H19 H 0.5376 0.9477 0.3908
O12 O 0.95042(12) 0.92893(11) 0.8972(2)
C24 C 0.95841(18) 0.30205(16) 0.6627(3)
C25 C 0.88087(18) 0.26422(17) 0.5628(3)
H20 H 0.8387 0.3020 0.4957
C26 C 0.86421(19) 0.17215(17) 0.5597(3)
C27 C 0.93093(19) 0.11879(17) 0.6594(3)
H21 H 0.9233 0.0561 0.6558
C28 C 0.7809(2) 0.1289(2) 0.4523(4)
H22 H 0.7646 0.0737 0.5053
H23 H 0.8009 0.1114 0.3504
C29 C 0.6957(3) 0.1833(3) 0.4133(7)
H24 H 0.7089 0.2359 0.3524
H25 H 0.6463 0.1481 0.3488
H26 H 0.6751 0.2021 0.5127
C30 C 0.97528(19) 0.40260(16) 0.6471(3)
O9 O 0.90797(13) 0.45263(11) 0.6731(2)
C16_2 C 0.7443(2) 0.5726(2) 0.2801(4)
H15_2 H 0.7924 0.6096 0.2534
C17_2 C 0.6670(2) 0.5560(2) 0.1613(4)
H16_2 H 0.6639 0.5808 0.0573
C18_2 C 0.5940(2) 0.5027(2) 0.1964(4)
C19_2 C 0.6055(2) 0.4670(3) 0.3520(4)
H17_2 H 0.5585 0.4297 0.3816
C20_2 C 0.6853(2) 0.4859(2) 0.4634(4)
H18 H 0.6911 0.4602 0.5672
C21_2 C 0.5087(2) 0.4845(2) 0.0760(4)
H19_2 H 0.4624 0.4477 0.1092
N3_2 N 0.75514(15) 0.53926(14) 0.4305(3)
C22_2 C 0.90199(19) 0.77681(16) 0.6054(3)
C23_2 C 0.98159(17) 0.74426(15) 0.7355(3)
N4_2 N 0.99448(15) 0.65367(13) 0.7400(2)
O6_2 O 0.84196(13) 0.71751(11) 0.5419(2)
O7_2 O 0.90076(13) 0.85754(12) 0.5660(2)
O10_2 O 0.79510(14) 0.58851(12) 0.7853(2)
H27_2 H 0.8304 0.5994 0.8766
H28_2 H 0.7421 0.6146 0.7886
H18_2 H 0.3089 0.9602 0.9328
O14 O 0.09203(13) 0.95263(11) 0.8269(2)
C24_2 C 0.04159(18) 0.80205(16) 0.8373(3)
C25_2 C 0.11913(18) 0.76422(17) 0.9372(3)
C26_2 C 0.13579(19) 0.67215(17) 0.9403(3)
C27_2 C 0.06907(19) 0.61879(17) 0.8406(3)
H21_2 H 0.0767 0.5561 0.8442
H22_2 H 0.2354 0.5737 0.9947
H26_2 H 0.3249 0.7021 0.9873
C30_2 C 0.02472(19) 0.90260(16) 0.8529(3)
H20_2 H 0.1613 0.8020 0.0043
C28_2 C 0.2191(2) 0.6289(2) 0.0477(4)
H23_2 H 0.1991 0.6114 0.1496
C29_2 C 0.3043(3) 0.6833(3) 0.0867(7)
H24_2 H 0.2911 0.7359 0.1476
H25_2 H 0.3537 0.6481 0.1512
H1_2 H 0.8387 0.1980 0.9957
C7_2 C 0.7809(2) 0.3711(2) 0.9523(4)
H4_2 H 0.8009 0.3886 0.8504
C8_2 C 0.6957(3) 0.3167(3) 0.9133(7)
H5_2 H 0.7089 0.2641 0.8524
H6_2 H 0.6463 0.3519 0.8488
loop_
_geom_bond_atom_site_label_1
_geom_bond_atom_site_label_2
_geom_bond_site_symmetry_1
_geom_bond_site_symmetry_2
C3 C4 1_555 1_555
C4 H1 1_555 1_555
C5 C4 1_555 1_555
C6 C5 1_555 1_555
H2 C6 1_555 1_555
C7 C5 1_555 1_555
H3 C7 1_555 1_555
H4 C7 1_555 1_555
C8 C7 1_555 1_555
H5 C8 1_555 1_555
H6 C8 1_555 1_555
H7 C8 1_555 1_555
C9 C3 1_555 1_555
O4 C9 1_555 1_555
Co4 O4 1_555 1_555
H10 C13 1_555 1_555
C14 C13 1_555 1_555
H12 C15 1_555 1_555
C16 H15 1_555 1_555
C17 C16 1_555 1_555
H16 C17 1_555 1_555
C18 C17 1_555 1_555
N3 C16 1_555 1_555
C22 C23 1_555 1_555
N4 Co2 1_555 1_555
O6 Co2 1_555 1_555
O7 C22 1_555 1_555
O10 Co2 1_555 1_555
H27 O10 1_555 1_555
H28 O10 1_555 1_555
Co4 O8 1_555 1_555
C22 O6 1_555 1_555
C23 N4 1_555 1_555
Co4 N1 1_555 1_555
C1 C2 1_555 1_555
C10 H8 1_555 1_555
C11 C10 1_555 1_555
H9 C11 1_555 1_555
C12 C11 1_555 1_555
C13_2 C12 1_555 1_555
H10_2 C13_2 1_555 1_555
C14_2 C13_2 1_555 1_555
H11 C14_2 1_555 1_555
C15_2 C12 1_555 1_555
H12_2 C15_2 1_555 1_555
N1 C2 1_555 1_555
N2 Co4 1_555 1_555
O1 Co4 1_555 1_555
O2 C1 1_555 1_555
O5 Co4 1_555 1_555
H13 O5 1_555 1_555
H14 O5 1_555 1_555
C1 O1 1_555 1_555
C10 N2 1_555 1_555
C14_2 N2 1_555 1_555
C3_2 C4_2 1_555 1_555
C5_2 C4_2 1_555 1_555
C6_2 C5_2 1_555 1_555
H2_2 C6_2 1_555 1_555
C9_2 C3_2 1_555 1_555
O13 C9_2 1_555 1_555
Co1 N1_2 1_555 1_555
C1_2 C2_2 1_555 1_555
N1_2 C2_2 1_555 1_555
O1_2 Co1 1_555 1_555
O2_2 C1_2 1_555 1_555
O5_2 Co1 1_555 1_555
H13_2 O5_2 1_555 1_555
H14_2 O5_2 1_555 1_555
Co6 O3 1_555 1_555
C1_2 O1_2 1_555 1_555
C10_2 H8_2 1_555 1_555
C11_2 C10_2 1_555 1_555
H9_2 C11_2 1_555 1_555
C12_2 C11_2 1_555 1_555
H17 C19 1_555 1_555
C20 C19 1_555 1_555
H19 C21 1_555 1_555
C10_2 N2_2 1_555 1_555
C24 C25 1_555 1_555
C25 H20 1_555 1_555
C26 C25 1_555 1_555
C27 C26 1_555 1_555
H21 C27 1_555 1_555
C28 C26 1_555 1_555
H22 C28 1_555 1_555
H23 C28 1_555 1_555
C29 C28 1_555 1_555
H24 C29 1_555 1_555
H25 C29 1_555 1_555
H26 C29 1_555 1_555
C30 C24 1_555 1_555
O9 C30 1_555 1_555
Co6 O9 1_555 1_555
C16_2 H15_2 1_555 1_555
C17_2 C16_2 1_555 1_555
H16_2 C17_2 1_555 1_555
C18_2 C17_2 1_555 1_555
C19_2 C18_2 1_555 1_555
H17_2 C19_2 1_555 1_555
C20_2 C19_2 1_555 1_555
H18 C20_2 1_555 1_555
H19_2 C21_2 1_555 1_555
N3_2 C16_2 1_555 1_555
Co6 N3_2 1_555 1_555
C22_2 C23_2 1_555 1_555
N4_2 Co6 1_555 1_555
O6_2 Co6 1_555 1_555
O7_2 C22_2 1_555 1_555
O10_2 Co6 1_555 1_555
H27_2 O10_2 1_555 1_555
H28_2 O10_2 1_555 1_555
C18_2 C21_2 1_555 1_555
C20_2 N3_2 1_555 1_555
C22_2 O6_2 1_555 1_555
C23_2 N4_2 1_555 1_555
C24_2 C25_2 1_555 1_555
C26_2 C25_2 1_555 1_555
C27_2 C26_2 1_555 1_555
H21_2 C27_2 1_555 1_555
C30_2 C24_2 1_555 1_555
O14 C30_2 1_555 1_555
H23_2 C28_2 1_555 1_555
C29_2 C28_2 1_555 1_555
H24_2 C29_2 1_555 1_555
H25_2 C29_2 1_555 1_555
H4_2 C7_2 1_555 1_555
C8_2 C7_2 1_555 1_555
H5_2 C8_2 1_555 1_555
H6_2 C8_2 1_555 1_555

#END
