
###############################################################################
#
# This file contains modified crystal structure data generated from the
# MOF subset of the Cambridge Structural Database (CSD) v543 
# hosted by the Cambridge Crystallographic Data Centre (CCDC).
#
# This work is licensed under the Creative Commons
# Attribution-NonCommercial-ShareAlike 4.0 International License.
# To view a copy of this license, visit
# http://creativecommons.org/licenses/by-nc-sa/4.0/
# or send a letter to
# Creative Commons, PO Box 1866, Mountain View, CA 94042, USA.
#
# CIF created using the CSD Python API on 29 September 2022
# The structure has been converted into the P1 space group
# The structure has a 3D framework
# The original CSD entry GIRGUL is in the monoclinic crystal system
# The framework has been calculated to contain at least 10.0% void space
# The void calculation uses a probe of radius 1.32A, grid spacing 0.4
#
###############################################################################

data_GIRGUL
_chemical_formula_moiety         '(C56 H52 Co4 N8 O20)n'
_symmetry_cell_setting           triclinic
_symmetry_space_group_name_H-M   'P 1'
_symmetry_Int_Tables_number      1
_space_group_name_Hall           'P 1'
loop_
_symmetry_equiv_pos_site_id
_symmetry_equiv_pos_as_xyz
1 x,y,z
_cell_length_a                   13.344(5)
_cell_length_b                   14.724(5)
_cell_length_c                   8.267(3)
_cell_angle_alpha                90
_cell_angle_beta                 105.840(4)
_cell_angle_gamma                90
_cell_volume                     1562.6
loop_
_atom_site_label
_atom_site_type_symbol
_atom_site_fract_x
_atom_site_fract_y
_atom_site_fract_z
N3 N 0.2319(2) 0.04042(19) 0.3822(4)
C15 C 0.2160(3) 0.0738(3) 0.5223(5)
H14 H 0.2681 0.1094 0.5909
C16 C 0.1279(3) 0.0591(3) 0.5718(5)
H15 H 0.1219 0.0842 0.6719
C17 C 0.0487(3) 0.0079(3) 0.4760(5)
Co2 Co 0.36953(3) 0.08315(3) 0.31660(6)
N4 N 0.4953(2) 0.15346(17) 0.2601(3)
O6 O 0.32848(19) 0.21819(14) 0.3377(3)
O7 O 0.39266(19) 0.35778(15) 0.3585(3)
O8 O 0.44628(18) 0.42838(14) 0.0674(3)
O9 O 0.60258(18) 0.45249(15) 0.2431(3)
O10 O 0.2773(2) 0.08866(16) 0.0577(3)
H18 H 0.3224 0.1082 0.0108
H19 H 0.2123 0.0878 0.0096
C20 C 0.3940(3) 0.2774(2) 0.3208(4)
C21 C 0.4809(2) 0.2440(2) 0.2524(4)
C22 C 0.6312(2) 0.2633(2) 0.1567(4)
H20 H 0.6766 0.3008 0.1202
C23 C 0.6505(3) 0.1712(2) 0.1686(5)
C24 C 0.5766(3) 0.1189(2) 0.2173(4)
H21 H 0.5846 0.0561 0.2201
C25 C 0.5291(3) 0.4024(2) 0.1681(4)
C26 C 0.7423(3) 0.1290(3) 0.1290(6)
H22 H 0.7249 0.1194 0.0085
H23 H 0.7530 0.0696 0.1818
C27 C 0.8392(4) 0.1769(4) 0.1781(12)
H24 H 0.8556 0.1910 0.2959
H25 H 0.8933 0.1398 0.1569
H26 H 0.8335 0.2322 0.1146
C28 C 0.5475(2) 0.3015(2) 0.1967(4)
Co6 Co 0.63047(3) 0.58315(3) 0.18340(6)
O11 O 0.44628(18) 0.07162(14) 0.5674(3)
Co4 Co 0.36953(3) 0.41685(3) 0.81660(6)
C18 C 0.0658(4) 0.9715(4) 0.3303(7)
H16 H 0.0150 0.9358 0.2589
C19 C 0.1580(3) 0.9887(3) 0.2926(6)
H17 H 0.1685 0.9617 0.1968
O14 O 0.39742(18) 0.95249(15) 0.2569(3)
C12 C 0.9342(4) 0.0285(4) 0.6697(7)
H12 H 0.9850 0.0642 0.7411
C13 C 0.8420(3) 0.0113(3) 0.7074(6)
H13 H 0.8315 0.0383 0.8032
O13 O 0.60258(18) 0.04751(15) 0.7431(3)
Co1 Co 0.63047(3) 0.91685(3) 0.68340(6)
N1 N 0.5047(2) 0.84654(17) 0.7399(3)
N2 N 0.7681(2) 0.95958(19) 0.6178(4)
O1 O 0.67152(19) 0.78181(14) 0.6623(3)
O2 O 0.60734(19) 0.64222(15) 0.6415(3)
O3 O 0.55372(18) 0.57162(14) 0.9326(3)
O4 O 0.39742(18) 0.54751(15) 0.7569(3)
O5 O 0.7227(2) 0.91134(16) 0.9423(3)
H1 H 0.6776 0.8918 0.9892
H2 H 0.7877 0.9122 0.9904
C1 C 0.6060(3) 0.7226(2) 0.6792(4)
C2 C 0.5191(2) 0.7560(2) 0.7476(4)
C3 C 0.3688(2) 0.7367(2) 0.8433(4)
H3 H 0.3234 0.6992 0.8798
C4 C 0.3495(3) 0.8288(2) 0.8314(5)
C5 C 0.4234(3) 0.8811(2) 0.7827(4)
H4 H 0.4154 0.9439 0.7799
C6 C 0.4709(3) 0.5976(2) 0.8319(4)
C7 C 0.2577(3) 0.8710(3) 0.8710(6)
H5 H 0.2751 0.8806 0.9915
H6 H 0.2470 0.9304 0.8182
C8 C 0.1608(4) 0.8231(4) 0.8219(12)
H7 H 0.1444 0.8090 0.7041
H8 H 0.1067 0.8602 0.8431
H9 H 0.1665 0.7678 0.8854
C9 C 0.7840(3) 0.9262(3) 0.4777(5)
H10 H 0.7319 0.8906 0.4091
C10 C 0.8721(3) 0.9409(3) 0.4282(5)
H11 H 0.8781 0.9158 0.3281
C11 C 0.9513(3) 0.9921(3) 0.5240(5)
C14 C 0.4525(2) 0.6985(2) 0.8033(4)
O12 O 0.55372(18) 0.92838(14) 0.4326(3)
C9_2 C 0.2160(3) 0.4262(3) 0.0223(5)
H10_2 H 0.2681 0.3906 0.0909
C10_2 C 0.1279(3) 0.4409(3) 0.0718(5)
H11_2 H 0.1219 0.4158 0.1719
N1_2 N 0.4953(2) 0.34654(17) 0.7601(3)
N2_2 N 0.2319(2) 0.45958(19) 0.8822(4)
O1_2 O 0.32848(19) 0.28181(14) 0.8377(3)
O2_2 O 0.39266(19) 0.14222(15) 0.8585(3)
O5_2 O 0.2773(2) 0.41134(16) 0.5577(3)
H1_2 H 0.3224 0.3918 0.5108
H2_2 H 0.2123 0.4122 0.5096
C1_2 C 0.3940(3) 0.2226(2) 0.8208(4)
C2_2 C 0.4809(2) 0.2560(2) 0.7524(4)
C3_2 C 0.6312(2) 0.2367(2) 0.6567(4)
H3_2 H 0.6766 0.1992 0.6202
C4_2 C 0.6505(3) 0.3288(2) 0.6686(5)
C5_2 C 0.5766(3) 0.3811(2) 0.7173(4)
H4_2 H 0.5846 0.4439 0.7201
C6_2 C 0.5291(3) 0.0976(2) 0.6681(4)
C7_2 C 0.7423(3) 0.3710(3) 0.6290(6)
H5_2 H 0.7249 0.3806 0.5085
H6_2 H 0.7530 0.4304 0.6818
C8_2 C 0.8392(4) 0.3231(4) 0.6781(12)
H7_2 H 0.8556 0.3090 0.7959
H8_2 H 0.8933 0.3602 0.6569
H9_2 H 0.8335 0.2678 0.6146
C11_2 C 0.0487(3) 0.4921(3) 0.9760(5)
C12_2 C 0.0658(4) 0.5285(4) 0.8303(7)
H12_2 H 0.0150 0.5642 0.7589
C13_2 C 0.1580(3) 0.5113(3) 0.7926(6)
H13_2 H 0.1685 0.5383 0.6968
C14_2 C 0.5475(2) 0.1985(2) 0.6967(4)
N3_2 N 0.7681(2) 0.54042(19) 0.1178(4)
C17_2 C 0.9513(3) 0.5079(3) 0.0240(5)
C18_2 C 0.9342(4) 0.4715(4) 0.1697(7)
H16_2 H 0.9850 0.4358 0.2411
C19_2 C 0.8420(3) 0.4887(3) 0.2074(6)
H17_2 H 0.8315 0.4617 0.3032
N4_2 N 0.5047(2) 0.65346(17) 0.2399(3)
O6_2 O 0.67152(19) 0.71819(14) 0.1623(3)
O7_2 O 0.60734(19) 0.85778(15) 0.1415(3)
O10_2 O 0.7227(2) 0.58866(16) 0.4423(3)
H18_2 H 0.6776 0.6082 0.4892
H19_2 H 0.7877 0.5878 0.4904
C20_2 C 0.6060(3) 0.7774(2) 0.1792(4)
C21_2 C 0.5191(2) 0.7440(2) 0.2476(4)
C22_2 C 0.3688(2) 0.7633(2) 0.3433(4)
H20_2 H 0.3234 0.8008 0.3798
C23_2 C 0.3495(3) 0.6712(2) 0.3314(5)
C24_2 C 0.4234(3) 0.6189(2) 0.2827(4)
H21_2 H 0.4154 0.5561 0.2799
C25_2 C 0.4709(3) 0.9024(2) 0.3319(4)
C26_2 C 0.2577(3) 0.6290(3) 0.3710(6)
H22_2 H 0.2751 0.6194 0.4915
H23_2 H 0.2470 0.5696 0.3182
C27_2 C 0.1608(4) 0.6769(4) 0.3219(12)
H24_2 H 0.1444 0.6910 0.2041
H25_2 H 0.1067 0.6398 0.3431
H26_2 H 0.1665 0.7322 0.3854
C28_2 C 0.4525(2) 0.8015(2) 0.3033(4)
C15_2 C 0.7840(3) 0.5738(3) 0.9777(5)
H14_2 H 0.7319 0.6094 0.9091
C16_2 C 0.8721(3) 0.5591(3) 0.9282(5)
H15_2 H 0.8781 0.5842 0.8281
loop_
_geom_bond_atom_site_label_1
_geom_bond_atom_site_label_2
_geom_bond_site_symmetry_1
_geom_bond_site_symmetry_2
N3 C15 1_555 1_555
C15 H14 1_555 1_555
C16 C15 1_555 1_555
H15 C16 1_555 1_555
Co2 N3 1_555 1_555
N4 Co2 1_555 1_555
O6 Co2 1_555 1_555
O7 C20 1_555 1_555
O8 C25 1_555 1_555
O9 C25 1_555 1_555
O10 Co2 1_555 1_555
H18 O10 1_555 1_555
H19 O10 1_555 1_555
C20 O6 1_555 1_555
C21 N4 1_555 1_555
C22 H20 1_555 1_555
C23 C22 1_555 1_555
C24 N4 1_555 1_555
H21 C24 1_555 1_555
C25 C28 1_555 1_555
C26 C23 1_555 1_555
H22 C26 1_555 1_555
H23 C26 1_555 1_555
C27 C26 1_555 1_555
H24 C27 1_555 1_555
H25 C27 1_555 1_555
H26 C27 1_555 1_555
C28 C21 1_555 1_555
Co6 O9 1_555 1_555
O11 Co2 1_555 1_555
C16 C17 1_555 1_555
C20 C21 1_555 1_555
C22 C28 1_555 1_555
C23 C24 1_555 1_555
H16 C18 1_555 1_555
H17 C19 1_555 1_555
C18 C19 1_555 1_555
H12 C12 1_555 1_555
H13 C13 1_555 1_555
C12 C13 1_555 1_555
Co1 N1 1_555 1_555
N1 C2 1_555 1_555
N2 Co1 1_555 1_555
O1 Co1 1_555 1_555
O2 C1 1_555 1_555
O3 C6 1_555 1_555
O4 C6 1_555 1_555
O5 Co1 1_555 1_555
H1 O5 1_555 1_555
H2 O5 1_555 1_555
C1 O1 1_555 1_555
C2 C1 1_555 1_555
C3 H3 1_555 1_555
C4 C3 1_555 1_555
C5 N1 1_555 1_555
H4 C5 1_555 1_555
C6 C14 1_555 1_555
C7 C4 1_555 1_555
H5 C7 1_555 1_555
H6 C7 1_555 1_555
C8 C7 1_555 1_555
H7 C8 1_555 1_555
H8 C8 1_555 1_555
H9 C8 1_555 1_555
C9 N2 1_555 1_555
H10 C9 1_555 1_555
C10 C9 1_555 1_555
H11 C10 1_555 1_555
C11 C10 1_555 1_555
C14 C2 1_555 1_555
Co4 O4 1_555 1_555
O12 Co1 1_555 1_555
C3 C14 1_555 1_555
C4 C5 1_555 1_555
H10_2 C9_2 1_555 1_555
C10_2 C9_2 1_555 1_555
H11_2 C10_2 1_555 1_555
Co4 N1_2 1_555 1_555
N1_2 C2_2 1_555 1_555
N2_2 Co4 1_555 1_555
O1_2 Co4 1_555 1_555
O2_2 C1_2 1_555 1_555
O11 C6_2 1_555 1_555
O13 C6_2 1_555 1_555
O5_2 Co4 1_555 1_555
H1_2 O5_2 1_555 1_555
H2_2 O5_2 1_555 1_555
C1_2 O1_2 1_555 1_555
C2_2 C1_2 1_555 1_555
C3_2 H3_2 1_555 1_555
C4_2 C3_2 1_555 1_555
C5_2 N1_2 1_555 1_555
H4_2 C5_2 1_555 1_555
C6_2 C14_2 1_555 1_555
C7_2 C4_2 1_555 1_555
H5_2 C7_2 1_555 1_555
H6_2 C7_2 1_555 1_555
C8_2 C7_2 1_555 1_555
H7_2 C8_2 1_555 1_555
H8_2 C8_2 1_555 1_555
H9_2 C8_2 1_555 1_555
C12_2 C11_2 1_555 1_555
H12_2 C12_2 1_555 1_555
C13_2 N2_2 1_555 1_555
H13_2 C13_2 1_555 1_555
C14_2 C2_2 1_555 1_555
C3_2 C14_2 1_555 1_555
C4_2 C5_2 1_555 1_555
C12_2 C13_2 1_555 1_555
C18_2 C17_2 1_555 1_555
H16_2 C18_2 1_555 1_555
C19_2 N3_2 1_555 1_555
H17_2 C19_2 1_555 1_555
Co6 N3_2 1_555 1_555
N4_2 Co6 1_555 1_555
O6_2 Co6 1_555 1_555
O7_2 C20_2 1_555 1_555
O12 C25_2 1_555 1_555
O14 C25_2 1_555 1_555
O10_2 Co6 1_555 1_555
H18_2 O10_2 1_555 1_555
H19_2 O10_2 1_555 1_555
C20_2 O6_2 1_555 1_555
C21_2 N4_2 1_555 1_555
C22_2 H20_2 1_555 1_555
C23_2 C22_2 1_555 1_555
C24_2 N4_2 1_555 1_555
H21_2 C24_2 1_555 1_555
C25_2 C28_2 1_555 1_555
C26_2 C23_2 1_555 1_555
H22_2 C26_2 1_555 1_555
H23_2 C26_2 1_555 1_555
C27_2 C26_2 1_555 1_555
H24_2 C27_2 1_555 1_555
H25_2 C27_2 1_555 1_555
H26_2 C27_2 1_555 1_555
C28_2 C21_2 1_555 1_555
C18_2 C19_2 1_555 1_555
C20_2 C21_2 1_555 1_555
C22_2 C28_2 1_555 1_555
C23_2 C24_2 1_555 1_555
C15_2 H14_2 1_555 1_555
C16_2 C15_2 1_555 1_555
H15_2 C16_2 1_555 1_555

#END
