
###############################################################################
#
# This file contains modified crystal structure data generated from the
# MOF subset of the Cambridge Structural Database (CSD) v543 
# hosted by the Cambridge Crystallographic Data Centre (CCDC).
#
# This work is licensed under the Creative Commons
# Attribution-NonCommercial-ShareAlike 4.0 International License.
# To view a copy of this license, visit
# http://creativecommons.org/licenses/by-nc-sa/4.0/
# or send a letter to
# Creative Commons, PO Box 1866, Mountain View, CA 94042, USA.
#
# CIF created using the CSD Python API on 29 September 2022
# The structure has been converted into the P1 space group
# The structure has a 3D framework
# The original CSD entry GIRNUT is in the tetragonal crystal system
# The original CSD entry GIRNUT is in a Sohncke space group
# The framework has been calculated to contain at least 10.0% void space
# The void calculation uses a probe of radius 1.32A, grid spacing 0.4
#
###############################################################################

data_GIRNUT
_chemical_formula_moiety         '(C280 H224 Cd8 N32 O30)n'
_symmetry_cell_setting           triclinic
_symmetry_space_group_name_H-M   'P 1'
_symmetry_Int_Tables_number      1
_space_group_name_Hall           'P 1'
loop_
_symmetry_equiv_pos_site_id
_symmetry_equiv_pos_as_xyz
1 x,y,z
_cell_length_a                   16.6643(4)
_cell_length_b                   16.6643(4)
_cell_length_c                   24.8800(13)
_cell_angle_alpha                90
_cell_angle_beta                 90
_cell_angle_gamma                90
_cell_volume                     6909.15
loop_
_atom_site_label
_atom_site_type_symbol
_atom_site_fract_x
_atom_site_fract_y
_atom_site_fract_z
C35 C 0.0338(4) 0.1317(4) 0.2053(3)
H28 H 0.0659 0.1723 0.2194
N4 N 0.0556(3) 0.0525(3) 0.1999(2)
Cd2 Cd 0.16806(2) 0.99295(2) 0.230171(15)
H9 H 0.3498 0.0096 0.1967
C20 C 0.5740(4) 0.0396(4) 0.1427(3)
C21 C 0.4922(4) 0.0386(5) 0.1435(3)
H12 H 0.4636 0.0767 0.1629
C22 C 0.6306(5) 0.1006(6) 0.1699(4)
C23 C 0.7129(4) 0.0629(5) 0.1544(3)
C27 C 0.8534(4) 0.0441(4) 0.1522(3)
C28 C 0.7875(4) 0.0858(5) 0.1714(3)
H15 H 0.7938 0.1283 0.1953
C29 C 0.6185(7) 0.0996(9) 0.2302(6)
H16 H 0.6576 0.1351 0.2467
H17 H 0.5656 0.1205 0.2383
C30 C 0.6258(6) 0.0249(8) 0.2528(6)
H18 H 0.6162 0.0284 0.2908
H19 H 0.6790 0.0047 0.2467
C31 C 0.6192(6) 0.1835(6) 0.1437(5)
H21 H 0.5640 0.1998 0.1495
H22 H 0.6262 0.1770 0.1052
C32 C 0.6737(7) 0.2530(8) 0.1620(5)
H23 H 0.6597 0.3009 0.1427
H24 H 0.7287 0.2396 0.1549
H25 H 0.6667 0.2618 0.1998
C33 C 0.9927(4) 0.0156(4) 0.1800(2)
C34 C 0.9571(4) 0.1410(4) 0.1866(3)
H27 H 0.9278 0.1884 0.1851
N3 N 0.9323(3) 0.0665(3) 0.1706(2)
O6 O 0.1678(3) 0.0699(3) 0.30996(18)
O7 O 0.2395(3) 0.1225(3) 0.2452(2)
C1 C 0.1951(4) 0.8730(4) 0.3062(2)
C2 C 0.2200(4) 0.8104(4) 0.3460(3)
C3 C 0.2398(7) 0.8332(5) 0.3987(3)
C4 C 0.2392(7) 0.9149(5) 0.4145(3)
H1 H 0.2195 0.9532 0.3907
C5 C 0.2663(7) 0.9387(5) 0.4627(3)
H2 H 0.2732 0.9928 0.4706
C6 C 0.2844(7) 0.8770(5) 0.5021(3)
H3 H 0.2965 0.8919 0.5372
C7 C 0.2839(7) 0.7989(5) 0.4888(3)
H4 H 0.2983 0.7610 0.5144
C8 C 0.2622(7) 0.7731(5) 0.4371(3)
C9 C 0.2650(4) 0.6915(4) 0.4199(3)
C10 C 0.2479(4) 0.6722(4) 0.3675(3)
H5 H 0.2512 0.6190 0.3565
C11 C 0.2255(4) 0.7313(4) 0.3304(3)
H6 H 0.2142 0.7170 0.2951
C12 C 0.2878(4) 0.6233(4) 0.4579(3)
C13 C 0.2382(4) 0.9620(4) 0.1050(3)
H7 H 0.1889 0.9524 0.0888
C14 C 0.3109(4) 0.9556(4) 0.0800(3)
H8 H 0.3208 0.9404 0.0446
C15 C 0.3259(4) 0.9936(5) 0.1646(3)
C16 C 0.4530(4) 0.9795(5) 0.1146(3)
C17 C 0.4930(4) 0.9244(4) 0.0827(3)
H10 H 0.4646 0.8866 0.0629
C18 C 0.5766(4) 0.9263(4) 0.0808(3)
H11 H 0.6048 0.8902 0.0595
C19 C 0.6170(4) 0.9831(4) 0.1112(3)
C24 C 0.7022(4) 0.9974(5) 0.1196(2)
C25 C 0.7697(4) 0.9548(4) 0.1007(3)
H13 H 0.7635 0.9112 0.0777
C26 C 0.8452(4) 0.9791(4) 0.1168(3)
H14 H 0.8904 0.9524 0.1043
H20 H 0.5873 0.9892 0.2369
H26 H 0.9904 0.9607 0.1733
N1 N 0.2485(3) 0.9846(4) 0.1578(2)
N2 N 0.3665(3) 0.9767(4) 0.1189(2)
O1 O 0.2473(3) 0.8997(3) 0.27364(17)
O2 O 0.1234(3) 0.8983(3) 0.30727(18)
O3 O 0.3322(3) 0.5699(3) 0.44004(18)
O4 O 0.2605(3) 0.6225(3) 0.5048(2)
O5 O 0.1017(3) 0.8766(3) 0.19273(18)
Cd3 Cd 0.33194(2) 0.49295(2) 0.519829(15)
Cd4 Cd 0.00705(2) 0.83194(2) 0.269829(15)
C6_2 C 0.7156(7) 0.1230(5) 0.0021(3)
H3_2 H 0.7035 0.1081 0.0372
H4_2 H 0.7017 0.2390 0.0144
O4_2 O 0.7395(3) 0.3775(3) 0.0048(2)
Cd3_2 Cd 0.66806(2) 0.50705(2) 0.019829(15)
C1_2 C 0.8049(4) 0.1270(4) 0.8062(2)
C2_2 C 0.7800(4) 0.1896(4) 0.8460(3)
C3_2 C 0.7602(7) 0.1668(5) 0.8987(3)
C4_2 C 0.7608(7) 0.0851(5) 0.9145(3)
H1_2 H 0.7805 0.0468 0.8907
C5_2 C 0.7337(7) 0.0613(5) 0.9627(3)
H2_2 H 0.7268 0.0072 0.9706
C7_2 C 0.7161(7) 0.2011(5) 0.9888(3)
C8_2 C 0.7378(7) 0.2269(5) 0.9371(3)
C9_2 C 0.7350(4) 0.3085(4) 0.9199(3)
C10_2 C 0.7521(4) 0.3278(4) 0.8675(3)
H5_2 H 0.7488 0.3810 0.8565
C11_2 C 0.7745(4) 0.2687(4) 0.8304(3)
H6_2 H 0.7858 0.2830 0.7951
C12_2 C 0.7122(4) 0.3767(4) 0.9579(3)
C13_2 C 0.7618(4) 0.0380(4) 0.6050(3)
H7_2 H 0.8111 0.0476 0.5888
C14_2 C 0.6891(4) 0.0444(4) 0.5800(3)
H8_2 H 0.6792 0.0596 0.5446
C15_2 C 0.6741(4) 0.0064(5) 0.6646(3)
C16_2 C 0.5470(4) 0.0205(5) 0.6146(3)
C17_2 C 0.5070(4) 0.0756(4) 0.5827(3)
H10_2 H 0.5354 0.1134 0.5629
C18_2 C 0.4234(4) 0.0737(4) 0.5808(3)
H11_2 H 0.3952 0.1098 0.5595
C19_2 C 0.3830(4) 0.0169(4) 0.6112(3)
C24_2 C 0.2978(4) 0.0026(5) 0.6196(2)
C25_2 C 0.2303(4) 0.0452(4) 0.6007(3)
H13_2 H 0.2365 0.0888 0.5777
C26_2 C 0.1548(4) 0.0209(4) 0.6168(3)
H14_2 H 0.1096 0.0476 0.6043
H20_2 H 0.4127 0.0108 0.7369
H26_2 H 0.0096 0.0393 0.6733
N1_2 N 0.7515(3) 0.0154(4) 0.6578(2)
N2_2 N 0.6335(3) 0.0233(4) 0.6189(2)
O1_2 O 0.7527(3) 0.1003(3) 0.77364(17)
O2_2 O 0.8766(3) 0.1017(3) 0.80727(18)
O3_2 O 0.6678(3) 0.4301(3) 0.94004(18)
Cd1 Cd 0.83194(2) 0.00705(2) 0.730171(15)
O5_2 O 0.8983(3) 0.1234(3) 0.69273(18)
Cd4_2 Cd 0.99295(2) 0.16806(2) 0.769829(15)
H9_2 H 0.6502 0.9904 0.6967
C20_2 C 0.4260(4) 0.9604(4) 0.6427(3)
C21_2 C 0.5078(4) 0.9614(5) 0.6435(3)
H12_2 H 0.5364 0.9233 0.6629
C22_2 C 0.3694(5) 0.8994(6) 0.6699(4)
C23_2 C 0.2871(4) 0.9371(5) 0.6544(3)
C27_2 C 0.1466(4) 0.9559(4) 0.6522(3)
C28_2 C 0.2125(4) 0.9142(5) 0.6714(3)
H15_2 H 0.2062 0.8717 0.6953
C29_2 C 0.3815(7) 0.9004(9) 0.7302(6)
H16_2 H 0.3424 0.8649 0.7467
H17_2 H 0.4344 0.8795 0.7383
C30_2 C 0.3742(6) 0.9751(8) 0.7528(6)
H18_2 H 0.3838 0.9716 0.7908
H19_2 H 0.3210 0.9953 0.7467
C31_2 C 0.3808(6) 0.8165(6) 0.6437(5)
H21_2 H 0.4360 0.8002 0.6495
H22_2 H 0.3738 0.8230 0.6052
C32_2 C 0.3263(7) 0.7470(8) 0.6620(5)
H23_2 H 0.3403 0.6991 0.6427
H24_2 H 0.2713 0.7604 0.6549
H25_2 H 0.3333 0.7382 0.6998
C33_2 C 0.0073(4) 0.9844(4) 0.6800(2)
C34_2 C 0.0429(4) 0.8590(4) 0.6866(3)
H27_2 H 0.0722 0.8116 0.6851
N3_2 N 0.0677(3) 0.9335(3) 0.6706(2)
N5 N 0.9444(3) 0.9475(3) 0.6999(2)
O6_2 O 0.8322(3) 0.9301(3) 0.80996(18)
O7_2 O 0.7605(3) 0.8775(3) 0.7452(2)
C35_2 C 0.9662(4) 0.8683(4) 0.7053(3)
H28_2 H 0.9341 0.8277 0.7194
C18_3 C 0.0766(4) 0.5737(4) 0.1692(3)
H11_3 H 0.1048 0.6098 0.1905
C19_3 C 0.1170(4) 0.5169(4) 0.1388(3)
C20_3 C 0.0740(4) 0.4604(4) 0.1073(3)
C22_3 C 0.1306(5) 0.3994(6) 0.0801(4)
C23_3 C 0.2129(4) 0.4371(5) 0.0956(3)
C24_3 C 0.2022(4) 0.5026(5) 0.1304(2)
C25_3 C 0.2697(4) 0.5452(4) 0.1493(3)
H13_3 H 0.2635 0.5888 0.1723
C26_3 C 0.3452(4) 0.5209(4) 0.1332(3)
H14_3 H 0.3904 0.5476 0.1457
C27_3 C 0.3534(4) 0.4559(4) 0.0978(3)
C28_3 C 0.2875(4) 0.4142(5) 0.0786(3)
H15_3 H 0.2938 0.3717 0.0547
C29_3 C 0.1185(7) 0.4004(9) 0.0198(6)
H16_3 H 0.1576 0.3649 0.0033
H17_3 H 0.0656 0.3795 0.0117
H19_3 H 0.1790 0.4953 0.0033
H20_3 H 0.0873 0.5108 0.0131
C31_3 C 0.1192(6) 0.3165(6) 0.1063(5)
H21_3 H 0.0640 0.3002 0.1005
H22_3 H 0.1262 0.3230 0.1448
C32_3 C 0.1737(7) 0.2470(8) 0.0880(5)
H23_3 H 0.1597 0.1991 0.1073
H24_3 H 0.2287 0.2604 0.0951
H25_3 H 0.1667 0.2382 0.0502
C33_3 C 0.4927(4) 0.4844(4) 0.0700(2)
H26_3 H 0.4904 0.5393 0.0767
C34_3 C 0.4571(4) 0.3590(4) 0.0634(3)
H27_3 H 0.4278 0.3116 0.0649
C35_3 C 0.5338(4) 0.3683(4) 0.0447(3)
H28_3 H 0.5659 0.3277 0.0306
N3_3 N 0.4323(3) 0.4335(3) 0.0794(2)
N4_2 N 0.5556(3) 0.4475(3) 0.0501(2)
C13_3 C 0.7382(4) 0.5380(4) 0.1450(3)
H7_3 H 0.6889 0.5476 0.1612
C14_3 C 0.8109(4) 0.5444(4) 0.1700(3)
H8_3 H 0.8208 0.5596 0.2054
C15_3 C 0.8259(4) 0.5064(5) 0.0854(3)
H9_3 H 0.8498 0.4904 0.0533
C16_3 C 0.9530(4) 0.5205(5) 0.1354(3)
C17_3 C 0.9930(4) 0.5756(4) 0.1673(3)
H10_3 H 0.9646 0.6134 0.1871
C21_3 C 0.9922(4) 0.4614(5) 0.1065(3)
H12_3 H 0.9636 0.4233 0.0871
N1_3 N 0.7485(3) 0.5154(4) 0.0922(2)
N2_3 N 0.8665(3) 0.5233(4) 0.1311(2)
O5_3 O 0.6017(3) 0.6234(3) 0.05727(18)
C1_3 C 0.6951(4) 0.6270(4) 0.9438(2)
C2_3 C 0.7200(4) 0.6896(4) 0.9040(3)
C3_3 C 0.7398(7) 0.6668(5) 0.8513(3)
C4_3 C 0.7392(7) 0.5851(5) 0.8355(3)
H1_3 H 0.7195 0.5468 0.8593
C5_3 C 0.7663(7) 0.5613(5) 0.7873(3)
H2_3 H 0.7732 0.5072 0.7794
C6_3 C 0.7844(7) 0.6230(5) 0.7479(3)
H3_3 H 0.7965 0.6081 0.7128
C7_3 C 0.7839(7) 0.7011(5) 0.7612(3)
H4_3 H 0.7983 0.7390 0.7356
C8_3 C 0.7622(7) 0.7269(5) 0.8129(3)
C9_3 C 0.7650(4) 0.8085(4) 0.8301(3)
C10_3 C 0.7479(4) 0.8278(4) 0.8825(3)
H5_3 H 0.7512 0.8810 0.8935
C11_3 C 0.7255(4) 0.7687(4) 0.9196(3)
H6_3 H 0.7142 0.7830 0.9549
C12_3 C 0.7878(4) 0.8767(4) 0.7921(3)
O1_3 O 0.7473(3) 0.6003(3) 0.97636(17)
O2_3 O 0.6234(3) 0.6017(3) 0.94273(18)
Cd4_3 Cd 0.50705(2) 0.66806(2) 0.980171(15)
C1_4 C 0.3049(4) 0.3730(4) 0.4438(2)
C2_4 C 0.2800(4) 0.3104(4) 0.4040(3)
C3_4 C 0.2602(7) 0.3332(5) 0.3513(3)
C4_4 C 0.2608(7) 0.4149(5) 0.3355(3)
H1_4 H 0.2805 0.4532 0.3593
C5_4 C 0.2337(7) 0.4387(5) 0.2873(3)
H2_4 H 0.2268 0.4928 0.2794
C6_4 C 0.2156(7) 0.3770(5) 0.2479(3)
H3_4 H 0.2035 0.3919 0.2128
C7_4 C 0.2161(7) 0.2989(5) 0.2612(3)
H4_4 H 0.2017 0.2610 0.2356
C8_4 C 0.2378(7) 0.2731(5) 0.3129(3)
C9_4 C 0.2350(4) 0.1915(4) 0.3301(3)
C10_4 C 0.2521(4) 0.1722(4) 0.3825(3)
H5_4 H 0.2488 0.1190 0.3935
C11_4 C 0.2745(4) 0.2313(4) 0.4196(3)
H6_4 H 0.2858 0.2170 0.4549
C12_4 C 0.2122(4) 0.1233(4) 0.2921(3)
C13_4 C 0.2618(4) 0.4620(4) 0.6450(3)
H7_4 H 0.3111 0.4524 0.6612
C14_4 C 0.1891(4) 0.4556(4) 0.6700(3)
H8_4 H 0.1792 0.4404 0.7054
C15_4 C 0.1741(4) 0.4936(5) 0.5854(3)
H9_4 H 0.1502 0.5096 0.5533
C16_4 C 0.0470(4) 0.4795(5) 0.6354(3)
C17_4 C 0.0070(4) 0.4244(4) 0.6673(3)
H10_4 H 0.0354 0.3866 0.6871
C21_4 C 0.0078(4) 0.5386(5) 0.6065(3)
H12_4 H 0.0364 0.5767 0.5871
N1_4 N 0.2515(3) 0.4846(4) 0.5922(2)
N2_4 N 0.1335(3) 0.4767(4) 0.6311(2)
O1_4 O 0.2527(3) 0.3997(3) 0.47636(17)
O2_4 O 0.3766(3) 0.3983(3) 0.44273(18)
N5_2 N 0.4444(3) 0.5525(3) 0.5501(2)
O5_4 O 0.3983(3) 0.3766(3) 0.55727(18)
Cd4_4 Cd 0.49295(2) 0.33194(2) 0.480171(15)
C18_4 C 0.9234(4) 0.4263(4) 0.6692(3)
H11_4 H 0.8952 0.3902 0.6905
C19_4 C 0.8830(4) 0.4831(4) 0.6388(3)
C20_4 C 0.9260(4) 0.5396(4) 0.6073(3)
C22_4 C 0.8694(5) 0.6006(6) 0.5801(4)
C23_4 C 0.7871(4) 0.5629(5) 0.5956(3)
C24_4 C 0.7978(4) 0.4974(5) 0.6304(2)
C25_4 C 0.7303(4) 0.4548(4) 0.6493(3)
H13_4 H 0.7365 0.4112 0.6723
C26_4 C 0.6548(4) 0.4791(4) 0.6332(3)
H14_4 H 0.6096 0.4524 0.6457
C27_4 C 0.6466(4) 0.5441(4) 0.5978(3)
C28_4 C 0.7125(4) 0.5858(5) 0.5786(3)
H15_4 H 0.7062 0.6283 0.5547
C29_4 C 0.8815(7) 0.5996(9) 0.5198(6)
H16_4 H 0.8424 0.6351 0.5033
H17_4 H 0.9344 0.6205 0.5117
C30_3 C 0.8742(6) 0.5249(8) 0.4972(6)
H18_3 H 0.8838 0.5284 0.4592
H19_4 H 0.8210 0.5047 0.5033
H20_4 H 0.9127 0.4892 0.5131
C31_4 C 0.8808(6) 0.6835(6) 0.6063(5)
H21_4 H 0.9360 0.6998 0.6005
H22_4 H 0.8738 0.6770 0.6448
C32_4 C 0.8263(7) 0.7530(8) 0.5880(5)
H23_4 H 0.8403 0.8009 0.6073
H24_4 H 0.7713 0.7396 0.5951
H25_4 H 0.8333 0.7618 0.5502
C33_4 C 0.5073(4) 0.5156(4) 0.5700(2)
H26_4 H 0.5096 0.4607 0.5767
C34_4 C 0.5429(4) 0.6410(4) 0.5634(3)
H27_4 H 0.5722 0.6884 0.5649
C35_4 C 0.4662(4) 0.6317(4) 0.5447(3)
H28_4 H 0.4341 0.6723 0.5306
N3_4 N 0.5677(3) 0.5665(3) 0.5794(2)
C1_5 C 0.1270(4) 0.8049(4) 0.1938(2)
C2_5 C 0.1896(4) 0.7800(4) 0.1540(3)
C3_5 C 0.1668(5) 0.7602(7) 0.1013(3)
C4_5 C 0.0851(5) 0.7608(7) 0.0855(3)
H1_5 H 0.0468 0.7805 0.1093
C5_5 C 0.0613(5) 0.7337(7) 0.0373(3)
H2_5 H 0.0072 0.7268 0.0294
C7_5 C 0.2011(5) 0.7161(7) 0.0112(3)
C8_5 C 0.2269(5) 0.7378(7) 0.0629(3)
C9_5 C 0.3085(4) 0.7350(4) 0.0801(3)
C10_5 C 0.3278(4) 0.7521(4) 0.1325(3)
H5_5 H 0.3810 0.7488 0.1435
C11_5 C 0.2687(4) 0.7745(4) 0.1696(3)
H6_5 H 0.2830 0.7858 0.2049
C12_5 C 0.3767(4) 0.7122(4) 0.0421(3)
C13_5 C 0.0380(4) 0.7618(4) 0.3950(3)
H7_5 H 0.0476 0.8111 0.4112
C14_5 C 0.0444(4) 0.6891(4) 0.4200(3)
H8_5 H 0.0596 0.6792 0.4554
C15_5 C 0.0064(5) 0.6741(4) 0.3354(3)
C16_5 C 0.0205(5) 0.5470(4) 0.3854(3)
C17_5 C 0.0756(4) 0.5070(4) 0.4173(3)
H10_5 H 0.1134 0.5354 0.4371
C18_5 C 0.0737(4) 0.4234(4) 0.4192(3)
H11_5 H 0.1098 0.3952 0.4405
C19_5 C 0.0169(4) 0.3830(4) 0.3888(3)
C24_5 C 0.0026(5) 0.2978(4) 0.3804(2)
C25_5 C 0.0452(4) 0.2303(4) 0.3993(3)
H13_5 H 0.0888 0.2365 0.4223
C26_5 C 0.0209(4) 0.1548(4) 0.3832(3)
H14_5 H 0.0476 0.1096 0.3957
H20_5 H 0.0108 0.4127 0.2631
H26_5 H 0.0393 0.0096 0.3267
N1_5 N 0.0154(4) 0.7515(3) 0.3422(2)
N2_5 N 0.0233(4) 0.6335(3) 0.3811(2)
O1_5 O 0.1003(3) 0.7527(3) 0.22636(17)
O3_3 O 0.4301(3) 0.6678(3) 0.05996(18)
C6_5 C 0.1230(5) 0.7156(7) 0.9979(3)
H3_5 H 0.1081 0.7035 0.9628
H4_5 H 0.2390 0.7017 0.9856
O4_3 O 0.3775(3) 0.7395(3) 0.9952(2)
H9_5 H 0.9904 0.6502 0.3033
C20_5 C 0.9604(4) 0.4260(4) 0.3573(3)
C21_5 C 0.9614(5) 0.5078(4) 0.3565(3)
H12_5 H 0.9233 0.5364 0.3371
C22_5 C 0.8994(6) 0.3694(5) 0.3301(4)
C23_5 C 0.9371(5) 0.2871(4) 0.3456(3)
C27_5 C 0.9559(4) 0.1466(4) 0.3478(3)
C28_5 C 0.9142(5) 0.2125(4) 0.3286(3)
H15_5 H 0.8717 0.2062 0.3047
C29_5 C 0.9004(9) 0.3815(7) 0.2698(6)
H16_5 H 0.8649 0.3424 0.2533
H17_5 H 0.8795 0.4344 0.2617
C30_4 C 0.9751(8) 0.3742(6) 0.2472(6)
H18_4 H 0.9716 0.3838 0.2092
H19_5 H 0.9953 0.3210 0.2533
C31_5 C 0.8165(6) 0.3808(6) 0.3563(5)
H21_5 H 0.8002 0.4360 0.3505
H22_5 H 0.8230 0.3738 0.3948
C32_5 C 0.7470(8) 0.3263(7) 0.3380(5)
H23_5 H 0.6991 0.3403 0.3573
H24_5 H 0.7604 0.2713 0.3451
H25_5 H 0.7382 0.3333 0.3002
C33_5 C 0.9844(4) 0.0073(4) 0.3200(2)
C34_5 C 0.8590(4) 0.0429(4) 0.3134(3)
H27_5 H 0.8116 0.0722 0.3149
N3_5 N 0.9335(3) 0.0677(3) 0.3294(2)
N5_3 N 0.9475(3) 0.9444(3) 0.3001(2)
O6_3 O 0.9301(3) 0.8322(3) 0.19004(18)
O7_3 O 0.8775(3) 0.7605(3) 0.2548(2)
C35_5 C 0.8683(4) 0.9662(4) 0.2947(3)
H28_5 H 0.8277 0.9341 0.2806
C35_6 C 0.1317(4) 0.0338(4) 0.7947(3)
H28_6 H 0.1723 0.0659 0.7806
N4_3 N 0.0525(3) 0.0556(3) 0.8001(2)
H9_6 H 0.0096 0.3498 0.8033
C20_6 C 0.0396(4) 0.5740(4) 0.8573(3)
C21_6 C 0.0386(5) 0.4922(4) 0.8565(3)
H12_6 H 0.0767 0.4636 0.8371
C22_6 C 0.1006(6) 0.6306(5) 0.8301(4)
C23_6 C 0.0629(5) 0.7129(4) 0.8456(3)
C27_6 C 0.0441(4) 0.8534(4) 0.8478(3)
C28_6 C 0.0858(5) 0.7875(4) 0.8286(3)
H15_6 H 0.1283 0.7938 0.8047
C29_6 C 0.0996(9) 0.6185(7) 0.7698(6)
H16_6 H 0.1351 0.6576 0.7533
H17_6 H 0.1205 0.5656 0.7617
C30_5 C 0.0249(8) 0.6258(6) 0.7472(6)
H18_5 H 0.0284 0.6162 0.7092
H19_6 H 0.0047 0.6790 0.7533
C31_6 C 0.1835(6) 0.6192(6) 0.8563(5)
H21_6 H 0.1998 0.5640 0.8505
H22_6 H 0.1770 0.6262 0.8948
C32_6 C 0.2530(8) 0.6737(7) 0.8380(5)
H23_6 H 0.3009 0.6597 0.8573
H24_6 H 0.2396 0.7287 0.8451
H25_6 H 0.2618 0.6667 0.8002
C33_6 C 0.0156(4) 0.9927(4) 0.8200(2)
C34_6 C 0.1410(4) 0.9571(4) 0.8134(3)
H27_6 H 0.1884 0.9278 0.8149
N3_6 N 0.0665(3) 0.9323(3) 0.8294(2)
O6_4 O 0.0699(3) 0.1678(3) 0.69004(18)
O7_4 O 0.1225(3) 0.2395(3) 0.7548(2)
C1_6 C 0.8730(4) 0.1951(4) 0.6938(2)
C2_6 C 0.8104(4) 0.2200(4) 0.6540(3)
C3_6 C 0.8332(5) 0.2398(7) 0.6013(3)
C4_6 C 0.9149(5) 0.2392(7) 0.5855(3)
H1_6 H 0.9532 0.2195 0.6093
C5_6 C 0.9387(5) 0.2663(7) 0.5373(3)
H2_6 H 0.9928 0.2732 0.5294
C6_6 C 0.8770(5) 0.2844(7) 0.4979(3)
H3_6 H 0.8919 0.2965 0.4628
C7_6 C 0.7989(5) 0.2839(7) 0.5112(3)
H4_6 H 0.7610 0.2983 0.4856
C8_6 C 0.7731(5) 0.2622(7) 0.5629(3)
C9_6 C 0.6915(4) 0.2650(4) 0.5801(3)
C10_6 C 0.6722(4) 0.2479(4) 0.6325(3)
H5_6 H 0.6190 0.2512 0.6435
C11_6 C 0.7313(4) 0.2255(4) 0.6696(3)
H6_6 H 0.7170 0.2142 0.7049
C12_6 C 0.6233(4) 0.2878(4) 0.5421(3)
C13_6 C 0.9620(4) 0.2382(4) 0.8950(3)
H7_6 H 0.9524 0.1889 0.9112
C14_6 C 0.9556(4) 0.3109(4) 0.9200(3)
H8_6 H 0.9404 0.3208 0.9554
C15_6 C 0.9936(5) 0.3259(4) 0.8354(3)
C16_6 C 0.9795(5) 0.4530(4) 0.8854(3)
C17_6 C 0.9244(4) 0.4930(4) 0.9173(3)
H10_6 H 0.8866 0.4646 0.9371
C18_6 C 0.9263(4) 0.5766(4) 0.9192(3)
H11_6 H 0.8902 0.6048 0.9405
C19_6 C 0.9831(4) 0.6170(4) 0.8888(3)
C24_6 C 0.9974(5) 0.7022(4) 0.8804(2)
C25_6 C 0.9548(4) 0.7697(4) 0.8993(3)
H13_6 H 0.9112 0.7635 0.9223
C26_6 C 0.9791(4) 0.8452(4) 0.8832(3)
H14_6 H 0.9524 0.8904 0.8957
H20_6 H 0.9892 0.5873 0.7631
H26_6 H 0.9607 0.9904 0.8267
N1_6 N 0.9846(4) 0.2485(3) 0.8422(2)
N2_6 N 0.9767(4) 0.3665(3) 0.8811(2)
O1_6 O 0.8997(3) 0.2473(3) 0.72636(17)
O3_4 O 0.5699(3) 0.3322(3) 0.55996(18)
O4_4 O 0.6225(3) 0.2605(3) 0.4952(2)
C1_7 C 0.3730(4) 0.3049(4) 0.5562(2)
C2_7 C 0.3104(4) 0.2800(4) 0.5960(3)
C3_7 C 0.3332(5) 0.2602(7) 0.6487(3)
C4_7 C 0.4149(5) 0.2608(7) 0.6645(3)
H1_7 H 0.4532 0.2805 0.6407
C5_7 C 0.4387(5) 0.2337(7) 0.7127(3)
H2_7 H 0.4928 0.2268 0.7206
C6_7 C 0.3770(5) 0.2156(7) 0.7521(3)
H3_7 H 0.3919 0.2035 0.7872
C7_7 C 0.2989(5) 0.2161(7) 0.7388(3)
H4_7 H 0.2610 0.2017 0.7644
C8_7 C 0.2731(5) 0.2378(7) 0.6871(3)
C9_7 C 0.1915(4) 0.2350(4) 0.6699(3)
C10_7 C 0.1722(4) 0.2521(4) 0.6175(3)
H5_7 H 0.1190 0.2488 0.6065
C11_7 C 0.2313(4) 0.2745(4) 0.5804(3)
H6_7 H 0.2170 0.2858 0.5451
C12_7 C 0.1233(4) 0.2122(4) 0.7079(3)
C13_7 C 0.4620(4) 0.2618(4) 0.3550(3)
H7_7 H 0.4524 0.3111 0.3388
C14_7 C 0.4556(4) 0.1891(4) 0.3300(3)
H8_7 H 0.4404 0.1792 0.2946
C15_7 C 0.4936(5) 0.1741(4) 0.4146(3)
H9_7 H 0.5096 0.1502 0.4467
C16_7 C 0.4795(5) 0.0470(4) 0.3646(3)
C17_7 C 0.4244(4) 0.0070(4) 0.3327(3)
H10_7 H 0.3866 0.0354 0.3129
C21_7 C 0.5386(5) 0.0078(4) 0.3935(3)
H12_7 H 0.5767 0.0364 0.4129
N1_7 N 0.4846(4) 0.2515(3) 0.4078(2)
N2_7 N 0.4767(4) 0.1335(3) 0.3689(2)
O1_7 O 0.3997(3) 0.2527(3) 0.52364(17)
N5_4 N 0.5525(3) 0.4444(3) 0.4499(2)
C18_7 C 0.4263(4) 0.9234(4) 0.3308(3)
H11_7 H 0.3902 0.8952 0.3095
C19_7 C 0.4831(4) 0.8830(4) 0.3612(3)
C20_7 C 0.5396(4) 0.9260(4) 0.3927(3)
C22_7 C 0.6006(6) 0.8694(5) 0.4199(4)
C23_7 C 0.5629(5) 0.7871(4) 0.4044(3)
C24_7 C 0.4974(5) 0.7978(4) 0.3696(2)
C25_7 C 0.4548(4) 0.7303(4) 0.3507(3)
H13_7 H 0.4112 0.7365 0.3277
C26_7 C 0.4791(4) 0.6548(4) 0.3668(3)
H14_7 H 0.4524 0.6096 0.3543
C27_7 C 0.5441(4) 0.6466(4) 0.4022(3)
C28_7 C 0.5858(5) 0.7125(4) 0.4214(3)
H15_7 H 0.6283 0.7062 0.4453
C29_7 C 0.5996(9) 0.8815(7) 0.4802(6)
H16_7 H 0.6351 0.8424 0.4967
H17_7 H 0.6205 0.9344 0.4883
C30_6 C 0.5249(8) 0.8742(6) 0.5028(6)
H18_6 H 0.5284 0.8838 0.5408
H19_7 H 0.5047 0.8210 0.4967
H20_7 H 0.4892 0.9127 0.4869
C31_7 C 0.6835(6) 0.8808(6) 0.3937(5)
H21_7 H 0.6998 0.9360 0.3995
H22_7 H 0.6770 0.8738 0.3552
C32_7 C 0.7530(8) 0.8263(7) 0.4120(5)
H23_7 H 0.8009 0.8403 0.3927
H24_7 H 0.7396 0.7713 0.4049
H25_7 H 0.7618 0.8333 0.4498
C33_7 C 0.5156(4) 0.5073(4) 0.4300(2)
H26_7 H 0.4607 0.5096 0.4233
C34_7 C 0.6410(4) 0.5429(4) 0.4366(3)
H27_7 H 0.6884 0.5722 0.4351
C35_7 C 0.6317(4) 0.4662(4) 0.4553(3)
H28_7 H 0.6723 0.4341 0.4694
N3_7 N 0.5665(3) 0.5677(3) 0.4206(2)
C18_8 C 0.5737(4) 0.0766(4) 0.8308(3)
H11_8 H 0.6098 0.1048 0.8095
C19_8 C 0.5169(4) 0.1170(4) 0.8612(3)
C20_8 C 0.4604(4) 0.0740(4) 0.8927(3)
C22_8 C 0.3994(6) 0.1306(5) 0.9199(4)
C23_8 C 0.4371(5) 0.2129(4) 0.9044(3)
C24_8 C 0.5026(5) 0.2022(4) 0.8696(2)
C25_8 C 0.5452(4) 0.2697(4) 0.8507(3)
H13_8 H 0.5888 0.2635 0.8277
C26_8 C 0.5209(4) 0.3452(4) 0.8668(3)
H14_8 H 0.5476 0.3904 0.8543
C27_8 C 0.4559(4) 0.3534(4) 0.9022(3)
C28_8 C 0.4142(5) 0.2875(4) 0.9214(3)
H15_8 H 0.3717 0.2938 0.9453
C29_8 C 0.4004(9) 0.1185(7) 0.9802(6)
H16_8 H 0.3649 0.1576 0.9967
H17_8 H 0.3795 0.0656 0.9883
H19_8 H 0.4953 0.1790 0.9967
H20_8 H 0.5108 0.0873 0.9869
C31_8 C 0.3165(6) 0.1192(6) 0.8937(5)
H21_8 H 0.3002 0.0640 0.8995
H22_8 H 0.3230 0.1262 0.8552
C32_8 C 0.2470(8) 0.1737(7) 0.9120(5)
H23_8 H 0.1991 0.1597 0.8927
H24_8 H 0.2604 0.2287 0.9049
H25_8 H 0.2382 0.1667 0.9498
C33_8 C 0.4844(4) 0.4927(4) 0.9300(2)
H26_8 H 0.5393 0.4904 0.9233
C34_8 C 0.3590(4) 0.4571(4) 0.9366(3)
H27_8 H 0.3116 0.4278 0.9351
C35_8 C 0.3683(4) 0.5338(4) 0.9553(3)
H28_8 H 0.3277 0.5659 0.9694
N3_8 N 0.4335(3) 0.4323(3) 0.9206(2)
N4_4 N 0.4475(3) 0.5556(3) 0.9499(2)
C1_8 C 0.6270(4) 0.6951(4) 0.0562(2)
C2_8 C 0.6896(4) 0.7200(4) 0.0960(3)
C3_8 C 0.6668(5) 0.7398(7) 0.1487(3)
C4_8 C 0.5851(5) 0.7392(7) 0.1645(3)
H1_8 H 0.5468 0.7195 0.1407
C5_8 C 0.5613(5) 0.7663(7) 0.2127(3)
H2_8 H 0.5072 0.7732 0.2206
C6_8 C 0.6230(5) 0.7844(7) 0.2521(3)
H3_8 H 0.6081 0.7965 0.2872
C7_8 C 0.7011(5) 0.7839(7) 0.2388(3)
H4_8 H 0.7390 0.7983 0.2644
C8_8 C 0.7269(5) 0.7622(7) 0.1871(3)
C9_8 C 0.8085(4) 0.7650(4) 0.1699(3)
C10_8 C 0.8278(4) 0.7479(4) 0.1175(3)
H5_8 H 0.8810 0.7512 0.1065
C11_8 C 0.7687(4) 0.7255(4) 0.0804(3)
H6_8 H 0.7830 0.7142 0.0451
C12_8 C 0.8767(4) 0.7878(4) 0.2079(3)
O1_8 O 0.6003(3) 0.7473(3) 0.02364(17)
C13_8 C 0.5380(4) 0.7382(4) 0.8550(3)
H7_8 H 0.5476 0.6889 0.8388
C14_8 C 0.5444(4) 0.8109(4) 0.8300(3)
H8_8 H 0.5596 0.8208 0.7946
C15_8 C 0.5064(5) 0.8259(4) 0.9146(3)
H9_8 H 0.4904 0.8498 0.9467
C16_8 C 0.5205(5) 0.9530(4) 0.8646(3)
C17_8 C 0.5756(4) 0.9930(4) 0.8327(3)
H10_8 H 0.6134 0.9646 0.8129
C21_8 C 0.4614(5) 0.9922(4) 0.8935(3)
H12_8 H 0.4233 0.9636 0.9129
N1_8 N 0.5154(4) 0.7485(3) 0.9078(2)
N2_8 N 0.5233(4) 0.8665(3) 0.8689(2)
C30_7 C 0.1258(6) 0.4751(8) 0.9972(6)
H18_7 H 0.1162 0.4716 0.9592
C30_8 C 0.4751(8) 0.1258(6) 0.0028(6)
H18_8 H 0.4716 0.1162 0.0408
loop_
_geom_bond_atom_site_label_1
_geom_bond_atom_site_label_2
_geom_bond_site_symmetry_1
_geom_bond_site_symmetry_2
H28 C35 1_555 1_555
C35 N4 1_555 1_555
H12 C21 1_555 1_555
C22 C20 1_555 1_555
C23 C22 1_555 1_555
C28 C23 1_555 1_555
H15 C28 1_555 1_555
C29 C22 1_555 1_555
H16 C29 1_555 1_555
H17 C29 1_555 1_555
C30 C29 1_555 1_555
H18 C30 1_555 1_555
H19 C30 1_555 1_555
C31 C22 1_555 1_555
H21 C31 1_555 1_555
H22 C31 1_555 1_555
C32 C31 1_555 1_555
H23 C32 1_555 1_555
H24 C32 1_555 1_555
H25 C32 1_555 1_555
C34 H27 1_555 1_555
N3 C27 1_555 1_555
C20 C21 1_555 1_555
C27 C28 1_555 1_555
C33 N3 1_555 1_555
C34 N3 1_555 1_555
C1 C2 1_555 1_555
C2 C3 1_555 1_555
C3 C4 1_555 1_555
C4 H1 1_555 1_555
C5 C4 1_555 1_555
H2 C5 1_555 1_555
C6 C5 1_555 1_555
H3 C6 1_555 1_555
C7 C6 1_555 1_555
H4 C7 1_555 1_555
C8 C3 1_555 1_555
C9 C8 1_555 1_555
C10 C9 1_555 1_555
H5 C10 1_555 1_555
C11 C2 1_555 1_555
H6 C11 1_555 1_555
C12 C9 1_555 1_555
C13 H7 1_555 1_555
C14 C13 1_555 1_555
H8 C14 1_555 1_555
C16 C17 1_555 1_555
C17 H10 1_555 1_555
C18 C17 1_555 1_555
H11 C18 1_555 1_555
C19 C18 1_555 1_555
C24 C19 1_555 1_555
C25 C24 1_555 1_555
H13 C25 1_555 1_555
C26 C25 1_555 1_555
H14 C26 1_555 1_555
N1 C13 1_555 1_555
N2 C14 1_555 1_555
O1 C1 1_555 1_555
O2 C1 1_555 1_555
O3 C12 1_555 1_555
O4 C12 1_555 1_555
Cd2 N1 1_555 1_555
O5 Cd2 1_555 1_555
Cd3 O3 1_555 1_555
Cd4 O2 1_555 1_555
C7 C8 1_555 1_555
C10 C11 1_555 1_555
C15 N1 1_555 1_555
C15 N2 1_555 1_555
C16 N2 1_555 1_555
O1 Cd2 1_555 1_555
O2 Cd2 1_555 1_555
O4 Cd3 1_555 1_555
O5 Cd4 1_555 1_555
H3_2 C6_2 1_555 1_555
O4_2 Cd3_2 1_555 1_555
C1_2 C2_2 1_555 1_555
C2_2 C3_2 1_555 1_555
C3_2 C4_2 1_555 1_555
C4_2 H1_2 1_555 1_555
C5_2 C4_2 1_555 1_555
H2_2 C5_2 1_555 1_555
C8_2 C3_2 1_555 1_555
C9_2 C8_2 1_555 1_555
C10_2 C9_2 1_555 1_555
H5_2 C10_2 1_555 1_555
C11_2 C2_2 1_555 1_555
H6_2 C11_2 1_555 1_555
C12_2 C9_2 1_555 1_555
C13_2 H7_2 1_555 1_555
C14_2 C13_2 1_555 1_555
H8_2 C14_2 1_555 1_555
C16_2 C17_2 1_555 1_555
C17_2 H10_2 1_555 1_555
C18_2 C17_2 1_555 1_555
H11_2 C18_2 1_555 1_555
C19_2 C18_2 1_555 1_555
C24_2 C19_2 1_555 1_555
C25_2 C24_2 1_555 1_555
H13_2 C25_2 1_555 1_555
C26_2 C25_2 1_555 1_555
H14_2 C26_2 1_555 1_555
N1_2 C13_2 1_555 1_555
N2_2 C14_2 1_555 1_555
O1_2 C1_2 1_555 1_555
O2_2 C1_2 1_555 1_555
O3_2 C12_2 1_555 1_555
Cd1 N1_2 1_555 1_555
O5_2 Cd1 1_555 1_555
Cd4_2 O2_2 1_555 1_555
C7_2 C8_2 1_555 1_555
C10_2 C11_2 1_555 1_555
C15_2 N1_2 1_555 1_555
C15_2 N2_2 1_555 1_555
C16_2 N2_2 1_555 1_555
O1_2 Cd1 1_555 1_555
O2_2 Cd1 1_555 1_555
O5_2 Cd4_2 1_555 1_555
H12_2 C21_2 1_555 1_555
C22_2 C20_2 1_555 1_555
C23_2 C22_2 1_555 1_555
C28_2 C23_2 1_555 1_555
H15_2 C28_2 1_555 1_555
C29_2 C22_2 1_555 1_555
H16_2 C29_2 1_555 1_555
H17_2 C29_2 1_555 1_555
C30_2 C29_2 1_555 1_555
H18_2 C30_2 1_555 1_555
H19_2 C30_2 1_555 1_555
C31_2 C22_2 1_555 1_555
H21_2 C31_2 1_555 1_555
H22_2 C31_2 1_555 1_555
C32_2 C31_2 1_555 1_555
H23_2 C32_2 1_555 1_555
H24_2 C32_2 1_555 1_555
H25_2 C32_2 1_555 1_555
C34_2 H27_2 1_555 1_555
N3_2 C27_2 1_555 1_555
C20_2 C21_2 1_555 1_555
C27_2 C28_2 1_555 1_555
C33_2 N3_2 1_555 1_555
C34_2 N3_2 1_555 1_555
H28_2 C35_2 1_555 1_555
C35_2 N5 1_555 1_555
H11_3 C18_3 1_555 1_555
C19_3 C18_3 1_555 1_555
C20_3 C19_3 1_555 1_555
C22_3 C20_3 1_555 1_555
C23_3 C22_3 1_555 1_555
C24_3 C19_3 1_555 1_555
C25_3 C24_3 1_555 1_555
H13_3 C25_3 1_555 1_555
C26_3 C25_3 1_555 1_555
H14_3 C26_3 1_555 1_555
C27_3 C26_3 1_555 1_555
C28_3 C23_3 1_555 1_555
H15_3 C28_3 1_555 1_555
C29_3 C22_3 1_555 1_555
H16_3 C29_3 1_555 1_555
H17_3 C29_3 1_555 1_555
C31_3 C22_3 1_555 1_555
H21_3 C31_3 1_555 1_555
H22_3 C31_3 1_555 1_555
C32_3 C31_3 1_555 1_555
H23_3 C32_3 1_555 1_555
H24_3 C32_3 1_555 1_555
H25_3 C32_3 1_555 1_555
C33_3 H26_3 1_555 1_555
C34_3 H27_3 1_555 1_555
C35_3 C34_3 1_555 1_555
H28_3 C35_3 1_555 1_555
N3_3 C27_3 1_555 1_555
N4_2 C33_3 1_555 1_555
Cd3_2 N4_2 1_555 1_555
C23_3 C24_3 1_555 1_555
C27_3 C28_3 1_555 1_555
C33_3 N3_3 1_555 1_555
C34_3 N3_3 1_555 1_555
C35_3 N4_2 1_555 1_555
C13_3 H7_3 1_555 1_555
C14_3 C13_3 1_555 1_555
H8_3 C14_3 1_555 1_555
C15_3 H9_3 1_555 1_555
C16_3 C17_3 1_555 1_555
C17_3 H10_3 1_555 1_555
C21_3 C16_3 1_555 1_555
H12_3 C21_3 1_555 1_555
N1_3 C13_3 1_555 1_555
N2_3 C14_3 1_555 1_555
Cd3_2 N1_3 1_555 1_555
O5_3 Cd3_2 1_555 1_555
C15_3 N1_3 1_555 1_555
C15_3 N2_3 1_555 1_555
C16_3 N2_3 1_555 1_555
C1_3 C2_3 1_555 1_555
C2_3 C3_3 1_555 1_555
C3_3 C4_3 1_555 1_555
C4_3 H1_3 1_555 1_555
C5_3 C4_3 1_555 1_555
H2_3 C5_3 1_555 1_555
C6_3 C5_3 1_555 1_555
H3_3 C6_3 1_555 1_555
C7_3 C6_3 1_555 1_555
H4_3 C7_3 1_555 1_555
C8_3 C3_3 1_555 1_555
C9_3 C8_3 1_555 1_555
C10_3 C9_3 1_555 1_555
H5_3 C10_3 1_555 1_555
C11_3 C2_3 1_555 1_555
H6_3 C11_3 1_555 1_555
C12_3 C9_3 1_555 1_555
O1_3 C1_3 1_555 1_555
O2_3 C1_3 1_555 1_555
O6_2 C12_3 1_555 1_555
O7_2 C12_3 1_555 1_555
Cd4_3 O2_3 1_555 1_555
C7_3 C8_3 1_555 1_555
C10_3 C11_3 1_555 1_555
C1_4 C2_4 1_555 1_555
C2_4 C3_4 1_555 1_555
C3_4 C4_4 1_555 1_555
C4_4 H1_4 1_555 1_555
C5_4 C4_4 1_555 1_555
H2_4 C5_4 1_555 1_555
C6_4 C5_4 1_555 1_555
H3_4 C6_4 1_555 1_555
C7_4 C6_4 1_555 1_555
H4_4 C7_4 1_555 1_555
C8_4 C3_4 1_555 1_555
C9_4 C8_4 1_555 1_555
C10_4 C9_4 1_555 1_555
H5_4 C10_4 1_555 1_555
C11_4 C2_4 1_555 1_555
H6_4 C11_4 1_555 1_555
C12_4 C9_4 1_555 1_555
C13_4 H7_4 1_555 1_555
C14_4 C13_4 1_555 1_555
H8_4 C14_4 1_555 1_555
C15_4 H9_4 1_555 1_555
C16_4 C17_4 1_555 1_555
C17_4 H10_4 1_555 1_555
C21_4 C16_4 1_555 1_555
H12_4 C21_4 1_555 1_555
N1_4 C13_4 1_555 1_555
N2_4 C14_4 1_555 1_555
O1_4 C1_4 1_555 1_555
O2_4 C1_4 1_555 1_555
O6 C12_4 1_555 1_555
O7 C12_4 1_555 1_555
Cd3 N1_4 1_555 1_555
N5_2 Cd3 1_555 1_555
O5_4 Cd3 1_555 1_555
Cd4_4 O2_4 1_555 1_555
C7_4 C8_4 1_555 1_555
C10_4 C11_4 1_555 1_555
C15_4 N1_4 1_555 1_555
C15_4 N2_4 1_555 1_555
C16_4 N2_4 1_555 1_555
O1_4 Cd3 1_555 1_555
O2_4 Cd3 1_555 1_555
O5_4 Cd4_4 1_555 1_555
H11_4 C18_4 1_555 1_555
C19_4 C18_4 1_555 1_555
C20_4 C19_4 1_555 1_555
C22_4 C20_4 1_555 1_555
C23_4 C22_4 1_555 1_555
C24_4 C19_4 1_555 1_555
C25_4 C24_4 1_555 1_555
H13_4 C25_4 1_555 1_555
C26_4 C25_4 1_555 1_555
H14_4 C26_4 1_555 1_555
C27_4 C26_4 1_555 1_555
C28_4 C23_4 1_555 1_555
H15_4 C28_4 1_555 1_555
C29_4 C22_4 1_555 1_555
H16_4 C29_4 1_555 1_555
H17_4 C29_4 1_555 1_555
C30_3 C29_4 1_555 1_555
H18_3 C30_3 1_555 1_555
H19_4 C30_3 1_555 1_555
H20_4 C30_3 1_555 1_555
C31_4 C22_4 1_555 1_555
H21_4 C31_4 1_555 1_555
H22_4 C31_4 1_555 1_555
C32_4 C31_4 1_555 1_555
H23_4 C32_4 1_555 1_555
H24_4 C32_4 1_555 1_555
H25_4 C32_4 1_555 1_555
C33_4 H26_4 1_555 1_555
C34_4 H27_4 1_555 1_555
C35_4 C34_4 1_555 1_555
H28_4 C35_4 1_555 1_555
N3_4 C27_4 1_555 1_555
N5_2 C33_4 1_555 1_555
C23_4 C24_4 1_555 1_555
C27_4 C28_4 1_555 1_555
C33_4 N3_4 1_555 1_555
C34_4 N3_4 1_555 1_555
C35_4 N5_2 1_555 1_555
C1_5 C2_5 1_555 1_555
C2_5 C3_5 1_555 1_555
C3_5 C4_5 1_555 1_555
C4_5 H1_5 1_555 1_555
C5_5 C4_5 1_555 1_555
H2_5 C5_5 1_555 1_555
C8_5 C3_5 1_555 1_555
C9_5 C8_5 1_555 1_555
C10_5 C9_5 1_555 1_555
H5_5 C10_5 1_555 1_555
C11_5 C2_5 1_555 1_555
H6_5 C11_5 1_555 1_555
C12_5 C9_5 1_555 1_555
C13_5 H7_5 1_555 1_555
C14_5 C13_5 1_555 1_555
H8_5 C14_5 1_555 1_555
C16_5 C17_5 1_555 1_555
C17_5 H10_5 1_555 1_555
C18_5 C17_5 1_555 1_555
H11_5 C18_5 1_555 1_555
C19_5 C18_5 1_555 1_555
C24_5 C19_5 1_555 1_555
C25_5 C24_5 1_555 1_555
H13_5 C25_5 1_555 1_555
C26_5 C25_5 1_555 1_555
H14_5 C26_5 1_555 1_555
N1_5 C13_5 1_555 1_555
N2_5 C14_5 1_555 1_555
O1_5 C1_5 1_555 1_555
O5 C1_5 1_555 1_555
O3_3 C12_5 1_555 1_555
Cd4 N1_5 1_555 1_555
C7_5 C8_5 1_555 1_555
C10_5 C11_5 1_555 1_555
C15_5 N1_5 1_555 1_555
C15_5 N2_5 1_555 1_555
C16_5 N2_5 1_555 1_555
O1_5 Cd4 1_555 1_555
H3_5 C6_5 1_555 1_555
O4_3 Cd4_3 1_555 1_555
H12_5 C21_5 1_555 1_555
C22_5 C20_5 1_555 1_555
C23_5 C22_5 1_555 1_555
C28_5 C23_5 1_555 1_555
H15_5 C28_5 1_555 1_555
C29_5 C22_5 1_555 1_555
H16_5 C29_5 1_555 1_555
H17_5 C29_5 1_555 1_555
C30_4 C29_5 1_555 1_555
H18_4 C30_4 1_555 1_555
H19_5 C30_4 1_555 1_555
C31_5 C22_5 1_555 1_555
H21_5 C31_5 1_555 1_555
H22_5 C31_5 1_555 1_555
C32_5 C31_5 1_555 1_555
H23_5 C32_5 1_555 1_555
H24_5 C32_5 1_555 1_555
H25_5 C32_5 1_555 1_555
C34_5 H27_5 1_555 1_555
N3_5 C27_5 1_555 1_555
C20_5 C21_5 1_555 1_555
C27_5 C28_5 1_555 1_555
C33_5 N3_5 1_555 1_555
C34_5 N3_5 1_555 1_555
H28_5 C35_5 1_555 1_555
C35_5 N5_3 1_555 1_555
H28_6 C35_6 1_555 1_555
C35_6 N4_3 1_555 1_555
H12_6 C21_6 1_555 1_555
C22_6 C20_6 1_555 1_555
C23_6 C22_6 1_555 1_555
C28_6 C23_6 1_555 1_555
H15_6 C28_6 1_555 1_555
C29_6 C22_6 1_555 1_555
H16_6 C29_6 1_555 1_555
H17_6 C29_6 1_555 1_555
C30_5 C29_6 1_555 1_555
H18_5 C30_5 1_555 1_555
H19_6 C30_5 1_555 1_555
C31_6 C22_6 1_555 1_555
H21_6 C31_6 1_555 1_555
H22_6 C31_6 1_555 1_555
C32_6 C31_6 1_555 1_555
H23_6 C32_6 1_555 1_555
H24_6 C32_6 1_555 1_555
H25_6 C32_6 1_555 1_555
C34_6 H27_6 1_555 1_555
N3_6 C27_6 1_555 1_555
C20_6 C21_6 1_555 1_555
C27_6 C28_6 1_555 1_555
C33_6 N3_6 1_555 1_555
C34_6 N3_6 1_555 1_555
C1_6 C2_6 1_555 1_555
C2_6 C3_6 1_555 1_555
C3_6 C4_6 1_555 1_555
C4_6 H1_6 1_555 1_555
C5_6 C4_6 1_555 1_555
H2_6 C5_6 1_555 1_555
C6_6 C5_6 1_555 1_555
H3_6 C6_6 1_555 1_555
C7_6 C6_6 1_555 1_555
H4_6 C7_6 1_555 1_555
C8_6 C3_6 1_555 1_555
C9_6 C8_6 1_555 1_555
C10_6 C9_6 1_555 1_555
H5_6 C10_6 1_555 1_555
C11_6 C2_6 1_555 1_555
H6_6 C11_6 1_555 1_555
C12_6 C9_6 1_555 1_555
C13_6 H7_6 1_555 1_555
C14_6 C13_6 1_555 1_555
H8_6 C14_6 1_555 1_555
C16_6 C17_6 1_555 1_555
C17_6 H10_6 1_555 1_555
C18_6 C17_6 1_555 1_555
H11_6 C18_6 1_555 1_555
C19_6 C18_6 1_555 1_555
C24_6 C19_6 1_555 1_555
C25_6 C24_6 1_555 1_555
H13_6 C25_6 1_555 1_555
C26_6 C25_6 1_555 1_555
H14_6 C26_6 1_555 1_555
N1_6 C13_6 1_555 1_555
N2_6 C14_6 1_555 1_555
O1_6 C1_6 1_555 1_555
O5_2 C1_6 1_555 1_555
O3_4 C12_6 1_555 1_555
O4_4 C12_6 1_555 1_555
Cd4_2 N1_6 1_555 1_555
Cd4_4 O3_4 1_555 1_555
C7_6 C8_6 1_555 1_555
C10_6 C11_6 1_555 1_555
C15_6 N1_6 1_555 1_555
C15_6 N2_6 1_555 1_555
C16_6 N2_6 1_555 1_555
O1_6 Cd4_2 1_555 1_555
O4_4 Cd4_4 1_555 1_555
C1_7 C2_7 1_555 1_555
C2_7 C3_7 1_555 1_555
C3_7 C4_7 1_555 1_555
C4_7 H1_7 1_555 1_555
C5_7 C4_7 1_555 1_555
H2_7 C5_7 1_555 1_555
C6_7 C5_7 1_555 1_555
H3_7 C6_7 1_555 1_555
C7_7 C6_7 1_555 1_555
H4_7 C7_7 1_555 1_555
C8_7 C3_7 1_555 1_555
C9_7 C8_7 1_555 1_555
C10_7 C9_7 1_555 1_555
H5_7 C10_7 1_555 1_555
C11_7 C2_7 1_555 1_555
H6_7 C11_7 1_555 1_555
C12_7 C9_7 1_555 1_555
C13_7 H7_7 1_555 1_555
C14_7 C13_7 1_555 1_555
H8_7 C14_7 1_555 1_555
C15_7 H9_7 1_555 1_555
C16_7 C17_7 1_555 1_555
C17_7 H10_7 1_555 1_555
C21_7 C16_7 1_555 1_555
H12_7 C21_7 1_555 1_555
N1_7 C13_7 1_555 1_555
N2_7 C14_7 1_555 1_555
O1_7 C1_7 1_555 1_555
O5_4 C1_7 1_555 1_555
O6_4 C12_7 1_555 1_555
O7_4 C12_7 1_555 1_555
Cd4_4 N1_7 1_555 1_555
N5_4 Cd4_4 1_555 1_555
C7_7 C8_7 1_555 1_555
C10_7 C11_7 1_555 1_555
C15_7 N1_7 1_555 1_555
C15_7 N2_7 1_555 1_555
C16_7 N2_7 1_555 1_555
O1_7 Cd4_4 1_555 1_555
H11_7 C18_7 1_555 1_555
C19_7 C18_7 1_555 1_555
C20_7 C19_7 1_555 1_555
C22_7 C20_7 1_555 1_555
C23_7 C22_7 1_555 1_555
C24_7 C19_7 1_555 1_555
C25_7 C24_7 1_555 1_555
H13_7 C25_7 1_555 1_555
C26_7 C25_7 1_555 1_555
H14_7 C26_7 1_555 1_555
C27_7 C26_7 1_555 1_555
C28_7 C23_7 1_555 1_555
H15_7 C28_7 1_555 1_555
C29_7 C22_7 1_555 1_555
H16_7 C29_7 1_555 1_555
H17_7 C29_7 1_555 1_555
C30_6 C29_7 1_555 1_555
H18_6 C30_6 1_555 1_555
H19_7 C30_6 1_555 1_555
H20_7 C30_6 1_555 1_555
C31_7 C22_7 1_555 1_555
H21_7 C31_7 1_555 1_555
H22_7 C31_7 1_555 1_555
C32_7 C31_7 1_555 1_555
H23_7 C32_7 1_555 1_555
H24_7 C32_7 1_555 1_555
H25_7 C32_7 1_555 1_555
C33_7 H26_7 1_555 1_555
C34_7 H27_7 1_555 1_555
C35_7 C34_7 1_555 1_555
H28_7 C35_7 1_555 1_555
N3_7 C27_7 1_555 1_555
N5_4 C33_7 1_555 1_555
C23_7 C24_7 1_555 1_555
C27_7 C28_7 1_555 1_555
C33_7 N3_7 1_555 1_555
C34_7 N3_7 1_555 1_555
C35_7 N5_4 1_555 1_555
H11_8 C18_8 1_555 1_555
C19_8 C18_8 1_555 1_555
C20_8 C19_8 1_555 1_555
C22_8 C20_8 1_555 1_555
C23_8 C22_8 1_555 1_555
C24_8 C19_8 1_555 1_555
C25_8 C24_8 1_555 1_555
H13_8 C25_8 1_555 1_555
C26_8 C25_8 1_555 1_555
H14_8 C26_8 1_555 1_555
C27_8 C26_8 1_555 1_555
C28_8 C23_8 1_555 1_555
H15_8 C28_8 1_555 1_555
C29_8 C22_8 1_555 1_555
H16_8 C29_8 1_555 1_555
H17_8 C29_8 1_555 1_555
C31_8 C22_8 1_555 1_555
H21_8 C31_8 1_555 1_555
H22_8 C31_8 1_555 1_555
C32_8 C31_8 1_555 1_555
H23_8 C32_8 1_555 1_555
H24_8 C32_8 1_555 1_555
H25_8 C32_8 1_555 1_555
C33_8 H26_8 1_555 1_555
C34_8 H27_8 1_555 1_555
C35_8 C34_8 1_555 1_555
H28_8 C35_8 1_555 1_555
N3_8 C27_8 1_555 1_555
N4_4 C33_8 1_555 1_555
Cd4_3 N4_4 1_555 1_555
C23_8 C24_8 1_555 1_555
C27_8 C28_8 1_555 1_555
C33_8 N3_8 1_555 1_555
C34_8 N3_8 1_555 1_555
C35_8 N4_4 1_555 1_555
C1_8 C2_8 1_555 1_555
C2_8 C3_8 1_555 1_555
C3_8 C4_8 1_555 1_555
C4_8 H1_8 1_555 1_555
C5_8 C4_8 1_555 1_555
H2_8 C5_8 1_555 1_555
C6_8 C5_8 1_555 1_555
H3_8 C6_8 1_555 1_555
C7_8 C6_8 1_555 1_555
H4_8 C7_8 1_555 1_555
C8_8 C3_8 1_555 1_555
C9_8 C8_8 1_555 1_555
C10_8 C9_8 1_555 1_555
H5_8 C10_8 1_555 1_555
C11_8 C2_8 1_555 1_555
H6_8 C11_8 1_555 1_555
C12_8 C9_8 1_555 1_555
O1_8 C1_8 1_555 1_555
O5_3 C1_8 1_555 1_555
O6_3 C12_8 1_555 1_555
O7_3 C12_8 1_555 1_555
C7_8 C8_8 1_555 1_555
C10_8 C11_8 1_555 1_555
C13_8 H7_8 1_555 1_555
C14_8 C13_8 1_555 1_555
H8_8 C14_8 1_555 1_555
C15_8 H9_8 1_555 1_555
C16_8 C17_8 1_555 1_555
C17_8 H10_8 1_555 1_555
C21_8 C16_8 1_555 1_555
H12_8 C21_8 1_555 1_555
N1_8 C13_8 1_555 1_555
N2_8 C14_8 1_555 1_555
Cd4_3 N1_8 1_555 1_555
C15_8 N1_8 1_555 1_555
C15_8 N2_8 1_555 1_555
C16_8 N2_8 1_555 1_555
H18_7 C30_7 1_555 1_555
H18_8 C30_8 1_555 1_555

#END
