
###############################################################################
#
# This file contains modified crystal structure data generated from the
# MOF subset of the Cambridge Structural Database (CSD) v543 
# hosted by the Cambridge Crystallographic Data Centre (CCDC).
#
# This work is licensed under the Creative Commons
# Attribution-NonCommercial-ShareAlike 4.0 International License.
# To view a copy of this license, visit
# http://creativecommons.org/licenses/by-nc-sa/4.0/
# or send a letter to
# Creative Commons, PO Box 1866, Mountain View, CA 94042, USA.
#
# CIF created using the CSD Python API on 29 September 2022
# The structure has been converted into the P1 space group
# The structure has a 3D framework
# The original CSD entry GIRXUC is in the cubic crystal system
# The original CSD entry GIRXUC is in a Sohncke space group
# The framework has been calculated to contain at least 10.0% void space
# The void calculation uses a probe of radius 1.32A, grid spacing 0.4
# H atom positions have been added when not included in the experimental data
# Generated hydrogen atom positions removed from atoms on special positions
#
###############################################################################

data_GIRXUC
_chemical_formula_moiety         '(C72 H108 N12 O40 Zn8)n'
_symmetry_cell_setting           triclinic
_symmetry_space_group_name_H-M   'P 1'
_symmetry_Int_Tables_number      1
_space_group_name_Hall           'P 1'
loop_
_symmetry_equiv_pos_site_id
_symmetry_equiv_pos_as_xyz
1 x,y,z
_cell_length_a                   14.2941(8)
_cell_length_b                   14.2941(8)
_cell_length_c                   14.2941(8)
_cell_angle_alpha                90
_cell_angle_beta                 90
_cell_angle_gamma                90
_cell_volume                     2920.59
loop_
_atom_site_label
_atom_site_type_symbol
_atom_site_fract_x
_atom_site_fract_y
_atom_site_fract_z
H3 H 0.1664 0.0054 0.8018
C5 C 0.0725(8) 0.0671(7) 0.6870(8)
H5 H 0.0177 0.1042 0.6981
H6 H 0.0836 0.0627 0.6209
H7 H 0.1255 0.0958 0.7167
H10 H 0.2826 0.0083 0.5641
C12 C 0.3764(3) 0.0609(3) 0.7208(4)
O7 O 0.3071(2) 0.1145(2) 0.7010(2)
O8 O 0.4326(2) 0.0746(3) 0.7822(3)
C16 C 0.0468(9) 0.2918(7) 0.3746(6)
H18 H 0.0621 0.3493 0.4057
H20 H 0.0997 0.2709 0.3389
C18 C 0.0706(9) 0.1448(5) 0.4159(9)
H24 H 0.1264 0.1664 0.3902
N3 N 0.0235(7) 0.2241(5) 0.4410(6)
O10 O 0.0756(11) 0.0665(6) 0.4107(10)
Zn3 Zn 0.27973(3) 0.22027(3) 0.77973(3)
Zn5 Zn 0.42652(4) 0.07348(4) 0.92652(4)
C1 C 0.3486(3) 0.8944(3) 0.5165(3)
C2 C 0.4255(3) 0.8328(3) 0.5317(3)
H1 H 0.4359 0.7826 0.4917
C3 C 0.2792(4) 0.8764(3) 0.4391(3)
C4 C 0.1254(6) 0.9532(9) 0.7918(7)
H2 H 0.0943 0.9379 0.8493
H4 H 0.1611 0.9003 0.7709
C6 C 0.0841(9) 0.9294(9) 0.6448(5)
H8 H 0.1098 0.8736 0.6664
N1 N 0.0590(6) 0.9765(7) 0.7241(5)
O1 O 0.2990(2) 0.8071(2) 0.3855(2)
O2 O 0.3003(5) 0.6997(5) 0.1997(5)
O3 O 0.2178(3) 0.9326(2) 0.4254(3)
O4 O 0.0893(10) 0.9244(11) 0.5665(6)
Zn1 Zn 0.22027(3) 0.77973(3) 0.27973(3)
Zn2 Zn 0.07348(4) 0.92652(4) 0.42652(4)
C7 C 0.4835(3) 0.8486(3) 0.6056(3)
C8 C 0.4683(3) 0.9255(3) 0.6672(3)
H9 H 0.5083 0.9359 0.7174
C9 C 0.5609(3) 0.7792(4) 0.6236(3)
O5 O 0.6145(2) 0.7990(2) 0.6929(2)
O6 O 0.5746(3) 0.7178(3) 0.5674(2)
C10 C 0.3944(3) 0.9835(3) 0.6514(3)
C11 C 0.3328(3) 0.9683(3) 0.5745(3)
O11 O 0.1145(2) 0.7010(2) 0.3071(2)
O12 O 0.1929(2) 0.8855(2) 0.2010(2)
O13 O 0.0746(3) 0.7822(3) 0.4326(2)
O14 O 0.0674(2) 0.9254(3) 0.2822(3)
Zn4 Zn 0.72027(3) 0.72027(3) 0.72027(3)
Zn6 Zn 0.57348(4) 0.57348(4) 0.57348(4)
H19 H 0.9946 0.3018 0.3336
C17 C 0.9329(7) 0.1870(8) 0.4275(8)
H21 H 0.8958 0.1981 0.4823
H22 H 0.9373 0.1209 0.4164
H23 H 0.9042 0.2167 0.3745
C13 C 0.7082(7) 0.8746(6) 0.4532(9)
H11 H 0.6507 0.9057 0.4379
H12 H 0.6982 0.8336 0.5054
H13 H 0.7291 0.8389 0.4003
C14 C 0.8130(8) 0.9275(8) 0.5671(7)
H14 H 0.8019 0.9823 0.6042
H15 H 0.8791 0.9164 0.5627
H16 H 0.7833 0.8745 0.5958
C15 C 0.8552(5) 0.9159(9) 0.4294(9)
H17 H 0.8336 0.8902 0.3736
N2 N 0.7759(5) 0.9410(6) 0.4765(7)
O9 O 0.9335(6) 0.9107(10) 0.4244(11)
C1_2 C 0.1514(3) 0.1056(3) 0.0165(3)
C2_2 C 0.0745(3) 0.1672(3) 0.0317(3)
C4_2 C 0.3746(6) 0.0468(9) 0.2918(7)
H2_2 H 0.4057 0.0621 0.3493
H4_2 H 0.3389 0.0997 0.2709
C6_2 C 0.4159(9) 0.0706(9) 0.1448(5)
H8_2 H 0.3902 0.1264 0.1664
N1_2 N 0.4410(6) 0.0235(7) 0.2241(5)
O4_2 O 0.4107(10) 0.0756(11) 0.0665(6)
C7_2 C 0.0165(3) 0.1514(3) 0.1056(3)
C8_2 C 0.0317(3) 0.0745(3) 0.1672(3)
C10_2 C 0.1056(3) 0.0165(3) 0.1514(3)
C11_2 C 0.1672(3) 0.0317(3) 0.0745(3)
H12_2 H 0.8018 0.1664 0.0054
C14_2 C 0.6870(8) 0.0725(8) 0.0671(7)
H14_2 H 0.6981 0.0177 0.1042
H15_2 H 0.6209 0.0836 0.0627
H16_2 H 0.7167 0.1255 0.0958
H1_2 H 0.0641 0.2174 0.9917
C3_2 C 0.2208(4) 0.1236(3) 0.9391(3)
O1_2 O 0.2010(2) 0.1929(2) 0.8855(2)
O2_2 O 0.1997(5) 0.3003(5) 0.6997(5)
O3_2 O 0.2822(3) 0.0674(2) 0.9254(3)
C13_2 C 0.7918(7) 0.1254(6) 0.9532(9)
H11_2 H 0.8493 0.0943 0.9379
H13_2 H 0.7709 0.1611 0.9003
C15_2 C 0.6448(5) 0.0841(9) 0.9294(9)
H17_2 H 0.6664 0.1098 0.8736
N2_2 N 0.7241(5) 0.0590(6) 0.9765(7)
O9_2 O 0.5665(6) 0.0893(10) 0.9244(11)
O11_2 O 0.3855(2) 0.2990(2) 0.8071(2)
O13_2 O 0.4254(3) 0.2178(3) 0.9326(2)
H3_2 H 0.3336 0.9946 0.3018
C5_2 C 0.4275(8) 0.9329(7) 0.1870(8)
H5_2 H 0.4823 0.8958 0.1981
H6_2 H 0.4164 0.9373 0.1209
H7_2 H 0.3745 0.9042 0.2167
H10_2 H 0.2174 0.9917 0.0641
C12_2 C 0.1236(3) 0.9391(3) 0.2208(4)
C16_2 C 0.4532(9) 0.7082(7) 0.8746(6)
H18_2 H 0.4379 0.6507 0.9057
H19_2 H 0.5054 0.6982 0.8336
H20_2 H 0.4003 0.7291 0.8389
C17_2 C 0.5671(7) 0.8130(8) 0.9275(8)
H21_2 H 0.6042 0.8019 0.9823
H22_2 H 0.5627 0.8791 0.9164
H23_2 H 0.5958 0.7833 0.8745
C18_2 C 0.4294(9) 0.8552(5) 0.9159(9)
H24_2 H 0.3736 0.8336 0.8902
N3_2 N 0.4765(7) 0.7759(5) 0.9410(6)
O10_2 O 0.4244(11) 0.9335(6) 0.9107(10)
H9_2 H 0.9917 0.0641 0.2174
C9_2 C 0.9391(3) 0.2208(4) 0.1236(3)
O5_2 O 0.8855(2) 0.2010(2) 0.1929(2)
O6_2 O 0.9254(3) 0.2822(3) 0.0674(2)
Zn4_2 Zn 0.77973(3) 0.27973(3) 0.22027(3)
Zn6_2 Zn 0.92652(4) 0.42652(4) 0.07348(4)
H9_3 H 0.0083 0.5641 0.2826
C9_3 C 0.0609(3) 0.7208(4) 0.3764(3)
C1_3 C 0.8486(3) 0.6056(3) 0.4835(3)
C2_3 C 0.9255(3) 0.6672(3) 0.4683(3)
H1_3 H 0.9359 0.7174 0.5083
C3_3 C 0.7792(4) 0.6236(3) 0.5609(3)
C4_3 C 0.6254(6) 0.5468(9) 0.2082(7)
H2_3 H 0.5943 0.5621 0.1507
H3_3 H 0.6664 0.4946 0.1982
H4_3 H 0.6611 0.5997 0.2291
C5_3 C 0.5725(8) 0.4329(7) 0.3130(8)
H5_3 H 0.5177 0.3958 0.3019
H6_3 H 0.5836 0.4373 0.3791
H7_3 H 0.6255 0.4042 0.2833
C6_3 C 0.5841(9) 0.5706(9) 0.3552(5)
H8_3 H 0.6098 0.6264 0.3336
N1_3 N 0.5590(6) 0.5235(7) 0.2759(5)
O1_3 O 0.7990(2) 0.6929(2) 0.6145(2)
O2_3 O 0.8003(5) 0.8003(5) 0.8003(5)
O3_3 O 0.7178(3) 0.5674(2) 0.5746(3)
O4_3 O 0.5893(10) 0.5756(11) 0.4335(6)
C7_3 C 0.9835(3) 0.6514(3) 0.3944(3)
C8_3 C 0.9683(3) 0.5745(3) 0.3328(3)
C10_3 C 0.8944(3) 0.5165(3) 0.3486(3)
C11_3 C 0.8328(3) 0.5317(3) 0.4255(3)
H10_3 H 0.7826 0.4917 0.4359
C12_3 C 0.8764(3) 0.4391(3) 0.2792(4)
O7_2 O 0.8071(2) 0.3855(2) 0.2990(2)
O8_2 O 0.9326(2) 0.4254(3) 0.2178(3)
C13_3 C 0.2082(7) 0.6254(6) 0.5468(9)
H11_3 H 0.1507 0.5943 0.5621
H12_3 H 0.1982 0.6664 0.4946
H13_3 H 0.2291 0.6611 0.5997
C14_3 C 0.3130(8) 0.5725(8) 0.4329(7)
H14_3 H 0.3019 0.5177 0.3958
H15_3 H 0.3791 0.5836 0.4373
H16_3 H 0.2833 0.6255 0.4042
C15_3 C 0.3552(5) 0.5841(9) 0.5706(9)
H17_3 H 0.3336 0.6098 0.6264
N2_3 N 0.2759(5) 0.5590(6) 0.5235(7)
O9_3 O 0.4335(6) 0.5893(10) 0.5756(11)
C16_3 C 0.5468(9) 0.2082(7) 0.6254(6)
H18_3 H 0.5621 0.1507 0.5943
H19_3 H 0.4946 0.1982 0.6664
H20_3 H 0.5997 0.2291 0.6611
C17_3 C 0.4329(7) 0.3130(8) 0.5725(8)
H21_3 H 0.3958 0.3019 0.5177
H22_3 H 0.4373 0.3791 0.5836
H23_3 H 0.4042 0.2833 0.6255
C18_3 C 0.5706(9) 0.3552(5) 0.5841(9)
H24_3 H 0.6264 0.3336 0.6098
N3_3 N 0.5235(7) 0.2759(5) 0.5590(6)
O10_3 O 0.5756(11) 0.4335(6) 0.5893(10)
O12_2 O 0.6929(2) 0.6145(2) 0.7990(2)
O14_2 O 0.5674(2) 0.5746(3) 0.7178(3)
C13_4 C 0.2918(7) 0.3746(6) 0.0468(9)
H11_4 H 0.3493 0.4057 0.0621
H13_4 H 0.2709 0.3389 0.0997
C15_4 C 0.1448(5) 0.4159(9) 0.0706(9)
H17_4 H 0.1664 0.3902 0.1264
N2_4 N 0.2241(5) 0.4410(6) 0.0235(7)
O9_4 O 0.0665(6) 0.4107(10) 0.0756(11)
H19_4 H 0.0054 0.8018 0.1664
C17_4 C 0.0671(7) 0.6870(8) 0.0725(8)
H21_4 H 0.1042 0.6981 0.0177
H22_4 H 0.0627 0.6209 0.0836
H23_4 H 0.0958 0.7167 0.1255
H12_4 H 0.3018 0.3336 0.9946
C14_4 C 0.1870(8) 0.4275(8) 0.9329(7)
H14_4 H 0.1981 0.4823 0.8958
H15_4 H 0.1209 0.4164 0.9373
H16_4 H 0.2167 0.3745 0.9042
H1_4 H 0.5641 0.2826 0.0083
C3_4 C 0.7208(4) 0.3764(3) 0.0609(3)
O1_4 O 0.7010(2) 0.3071(2) 0.1145(2)
O2_4 O 0.6997(5) 0.1997(5) 0.3003(5)
O3_4 O 0.7822(3) 0.4326(2) 0.0746(3)
C16_4 C 0.9532(9) 0.7918(7) 0.1254(6)
H18_4 H 0.9379 0.8493 0.0943
H20_4 H 0.9003 0.7709 0.1611
C18_4 C 0.9294(9) 0.6448(5) 0.0841(9)
H24_4 H 0.8736 0.6664 0.1098
N3_4 N 0.9765(7) 0.7241(5) 0.0590(6)
O10_4 O 0.9244(11) 0.5665(6) 0.0893(10)
C1_4 C 0.6514(3) 0.3944(3) 0.9835(3)
C2_4 C 0.5745(3) 0.3328(3) 0.9683(3)
C4_4 C 0.8746(6) 0.4532(9) 0.7082(7)
H2_4 H 0.9057 0.4379 0.6507
H3_4 H 0.8336 0.5054 0.6982
H4_4 H 0.8389 0.4003 0.7291
C5_4 C 0.9275(8) 0.5671(7) 0.8130(8)
H5_4 H 0.9823 0.6042 0.8019
H6_4 H 0.9164 0.5627 0.8791
H7_4 H 0.8745 0.5958 0.7833
C6_4 C 0.9159(9) 0.4294(9) 0.8552(5)
H8_4 H 0.8902 0.3736 0.8336
N1_4 N 0.9410(6) 0.4765(7) 0.7759(5)
O4_4 O 0.9107(10) 0.4244(11) 0.9335(6)
C7_4 C 0.5165(3) 0.3486(3) 0.8944(3)
C8_4 C 0.5317(3) 0.4255(3) 0.8328(3)
H9_4 H 0.4917 0.4359 0.7826
C9_4 C 0.4391(3) 0.2792(4) 0.8764(3)
C10_4 C 0.6056(3) 0.4835(3) 0.8486(3)
C11_4 C 0.6672(3) 0.4683(3) 0.9255(3)
H10_4 H 0.7174 0.5083 0.9359
C12_4 C 0.6236(3) 0.5609(3) 0.7792(4)
loop_
_geom_bond_atom_site_label_1
_geom_bond_atom_site_label_2
_geom_bond_site_symmetry_1
_geom_bond_site_symmetry_2
C5 H5 1_555 1_555
H6 C5 1_555 1_555
H7 C5 1_555 1_555
O7 C12 1_555 1_555
O8 C12 1_555 1_555
C16 H18 1_555 1_555
H20 C16 1_555 1_555
C18 H24 1_555 1_555
N3 C16 1_555 1_555
Zn3 O7 1_555 1_555
Zn5 O8 1_555 1_555
C18 N3 1_555 1_555
C18 O10 1_555 1_555
C1 C2 1_555 1_555
C2 H1 1_555 1_555
C3 C1 1_555 1_555
C4 H2 1_555 1_555
H4 C4 1_555 1_555
C6 H8 1_555 1_555
N1 C4 1_555 1_555
O1 C3 1_555 1_555
O2 Zn1 1_555 1_555
O3 C3 1_555 1_555
O4 C6 1_555 1_555
Zn1 O1 1_555 1_555
Zn2 O3 1_555 1_555
C7 C2 1_555 1_555
C8 C7 1_555 1_555
H9 C8 1_555 1_555
C9 C7 1_555 1_555
O5 C9 1_555 1_555
O6 C9 1_555 1_555
C10 C8 1_555 1_555
C11 C1 1_555 1_555
O11 Zn1 1_555 1_555
O12 Zn1 1_555 1_555
O13 Zn2 1_555 1_555
O14 Zn2 1_555 1_555
Zn4 O5 1_555 1_555
Zn6 O6 1_555 1_555
C6 N1 1_555 1_555
O4 Zn2 1_555 1_555
C10 C11 1_555 1_555
C17 H21 1_555 1_555
H22 C17 1_555 1_555
H23 C17 1_555 1_555
C13 H11 1_555 1_555
H12 C13 1_555 1_555
H13 C13 1_555 1_555
C14 H14 1_555 1_555
H15 C14 1_555 1_555
H16 C14 1_555 1_555
C15 H17 1_555 1_555
N2 C13 1_555 1_555
C14 N2 1_555 1_555
C15 N2 1_555 1_555
C15 O9 1_555 1_555
C1_2 C2_2 1_555 1_555
C4_2 H2_2 1_555 1_555
H4_2 C4_2 1_555 1_555
C6_2 H8_2 1_555 1_555
N1_2 C4_2 1_555 1_555
O4_2 C6_2 1_555 1_555
C7_2 C2_2 1_555 1_555
C8_2 C7_2 1_555 1_555
C10_2 C8_2 1_555 1_555
C11_2 C1_2 1_555 1_555
C14_2 H14_2 1_555 1_555
H15_2 C14_2 1_555 1_555
H16_2 C14_2 1_555 1_555
C6_2 N1_2 1_555 1_555
C10_2 C11_2 1_555 1_555
O1_2 C3_2 1_555 1_555
O2_2 Zn3 1_555 1_555
O3_2 C3_2 1_555 1_555
Zn3 O1_2 1_555 1_555
Zn5 O3_2 1_555 1_555
C13_2 H11_2 1_555 1_555
H13_2 C13_2 1_555 1_555
C15_2 H17_2 1_555 1_555
N2_2 C13_2 1_555 1_555
O9_2 Zn5 1_555 1_555
O11_2 Zn3 1_555 1_555
O13_2 Zn5 1_555 1_555
C15_2 N2_2 1_555 1_555
C15_2 O9_2 1_555 1_555
C5_2 H5_2 1_555 1_555
H6_2 C5_2 1_555 1_555
H7_2 C5_2 1_555 1_555
O12 C12_2 1_555 1_555
O14 C12_2 1_555 1_555
C16_2 H18_2 1_555 1_555
H19_2 C16_2 1_555 1_555
H20_2 C16_2 1_555 1_555
C17_2 H21_2 1_555 1_555
H22_2 C17_2 1_555 1_555
H23_2 C17_2 1_555 1_555
C18_2 H24_2 1_555 1_555
N3_2 C16_2 1_555 1_555
C17_2 N3_2 1_555 1_555
C18_2 N3_2 1_555 1_555
C18_2 O10_2 1_555 1_555
O5_2 C9_2 1_555 1_555
O6_2 C9_2 1_555 1_555
Zn4_2 O5_2 1_555 1_555
Zn6_2 O6_2 1_555 1_555
O11 C9_3 1_555 1_555
O13 C9_3 1_555 1_555
C1_3 C2_3 1_555 1_555
C2_3 H1_3 1_555 1_555
C3_3 C1_3 1_555 1_555
C4_3 H2_3 1_555 1_555
H3_3 C4_3 1_555 1_555
H4_3 C4_3 1_555 1_555
C5_3 H5_3 1_555 1_555
H6_3 C5_3 1_555 1_555
H7_3 C5_3 1_555 1_555
C6_3 H8_3 1_555 1_555
N1_3 C4_3 1_555 1_555
O1_3 C3_3 1_555 1_555
O2_3 Zn4 1_555 1_555
O3_3 C3_3 1_555 1_555
O4_3 C6_3 1_555 1_555
Zn4 O1_3 1_555 1_555
Zn6 O3_3 1_555 1_555
C7_3 C2_3 1_555 1_555
C8_3 C7_3 1_555 1_555
C10_3 C8_3 1_555 1_555
C11_3 C1_3 1_555 1_555
H10_3 C11_3 1_555 1_555
C12_3 C10_3 1_555 1_555
O7_2 C12_3 1_555 1_555
O8_2 C12_3 1_555 1_555
C13_3 H11_3 1_555 1_555
H12_3 C13_3 1_555 1_555
H13_3 C13_3 1_555 1_555
C14_3 H14_3 1_555 1_555
H15_3 C14_3 1_555 1_555
H16_3 C14_3 1_555 1_555
C15_3 H17_3 1_555 1_555
N2_3 C13_3 1_555 1_555
O9_3 Zn6 1_555 1_555
C16_3 H18_3 1_555 1_555
H19_3 C16_3 1_555 1_555
H20_3 C16_3 1_555 1_555
C17_3 H21_3 1_555 1_555
H22_3 C17_3 1_555 1_555
H23_3 C17_3 1_555 1_555
C18_3 H24_3 1_555 1_555
N3_3 C16_3 1_555 1_555
O10_3 Zn6 1_555 1_555
O12_2 Zn4 1_555 1_555
O14_2 Zn6 1_555 1_555
Zn4_2 O7_2 1_555 1_555
Zn6_2 O8_2 1_555 1_555
C5_3 N1_3 1_555 1_555
C6_3 N1_3 1_555 1_555
O4_3 Zn6 1_555 1_555
C10_3 C11_3 1_555 1_555
C14_3 N2_3 1_555 1_555
C15_3 N2_3 1_555 1_555
C15_3 O9_3 1_555 1_555
C17_3 N3_3 1_555 1_555
C18_3 N3_3 1_555 1_555
C18_3 O10_3 1_555 1_555
C13_4 H11_4 1_555 1_555
H13_4 C13_4 1_555 1_555
C15_4 H17_4 1_555 1_555
N2_4 C13_4 1_555 1_555
C17_4 H21_4 1_555 1_555
H22_4 C17_4 1_555 1_555
H23_4 C17_4 1_555 1_555
C15_4 N2_4 1_555 1_555
C15_4 O9_4 1_555 1_555
C14_4 H14_4 1_555 1_555
H15_4 C14_4 1_555 1_555
H16_4 C14_4 1_555 1_555
O1_4 C3_4 1_555 1_555
O2_4 Zn4_2 1_555 1_555
O3_4 C3_4 1_555 1_555
Zn4_2 O1_4 1_555 1_555
Zn6_2 O3_4 1_555 1_555
C16_4 H18_4 1_555 1_555
H20_4 C16_4 1_555 1_555
C18_4 H24_4 1_555 1_555
N3_4 C16_4 1_555 1_555
O10_4 Zn6_2 1_555 1_555
C18_4 N3_4 1_555 1_555
C18_4 O10_4 1_555 1_555
C1_4 C2_4 1_555 1_555
C4_4 H2_4 1_555 1_555
H3_4 C4_4 1_555 1_555
H4_4 C4_4 1_555 1_555
C5_4 H5_4 1_555 1_555
H6_4 C5_4 1_555 1_555
H7_4 C5_4 1_555 1_555
C6_4 H8_4 1_555 1_555
N1_4 C4_4 1_555 1_555
O4_4 C6_4 1_555 1_555
C7_4 C2_4 1_555 1_555
C8_4 C7_4 1_555 1_555
H9_4 C8_4 1_555 1_555
C9_4 C7_4 1_555 1_555
O11_2 C9_4 1_555 1_555
O13_2 C9_4 1_555 1_555
C10_4 C8_4 1_555 1_555
C11_4 C1_4 1_555 1_555
H10_4 C11_4 1_555 1_555
C12_4 C10_4 1_555 1_555
O12_2 C12_4 1_555 1_555
O14_2 C12_4 1_555 1_555
C5_4 N1_4 1_555 1_555
C6_4 N1_4 1_555 1_555
C10_4 C11_4 1_555 1_555

#END
