
###############################################################################
#
# This file contains modified crystal structure data generated from the
# MOF subset of the Cambridge Structural Database (CSD) v543 
# hosted by the Cambridge Crystallographic Data Centre (CCDC).
#
# This work is licensed under the Creative Commons
# Attribution-NonCommercial-ShareAlike 4.0 International License.
# To view a copy of this license, visit
# http://creativecommons.org/licenses/by-nc-sa/4.0/
# or send a letter to
# Creative Commons, PO Box 1866, Mountain View, CA 94042, USA.
#
# CIF created using the CSD Python API on 29 September 2022
# The structure has been converted into the P1 space group
# The structure has a 3D framework
# The original CSD entry GIRYIR is in the monoclinic crystal system
# The framework has been calculated to contain at least 10.0% void space
# The void calculation uses a probe of radius 1.32A, grid spacing 0.4
#
###############################################################################

data_GIRYIR
_chemical_formula_moiety         '(C160 H108 N24 O52 Zn19)n'
_symmetry_cell_setting           triclinic
_symmetry_space_group_name_H-M   'P 1'
_symmetry_Int_Tables_number      1
_space_group_name_Hall           'P 1'
loop_
_symmetry_equiv_pos_site_id
_symmetry_equiv_pos_as_xyz
1 x,y,z
_cell_length_a                   15.7066(13)
_cell_length_b                   25.077(2)
_cell_length_c                   13.4867(11)
_cell_angle_alpha                90
_cell_angle_beta                 124.6280(10)
_cell_angle_gamma                90
_cell_volume                     4371.08
loop_
_atom_site_label
_atom_site_type_symbol
_atom_site_fract_x
_atom_site_fract_y
_atom_site_fract_z
O6 O 0.0184(5) 0.2232(2) 0.4658(5)
Zn1 Zn 0.5000 0.0000 0.0000
O3 O 0.6582(3) 0.02857(14) 0.0832(4)
O4 O 0.7630(3) 0.01213(14) 0.2807(4)
O5 O 0.9768(5) 0.1605(3) 0.5347(5)
N1 N 0.9711(5) 0.1827(2) 0.4523(6)
N2 N 0.4595(4) 0.07024(16) 0.0591(4)
N3 N 0.2477(4) 0.38581(16) 0.2385(4)
C1 C 0.7754(4) 0.1175(2) 0.1033(5)
C2 C 0.7908(4) 0.0903(2) 0.2029(5)
C3 C 0.8575(5) 0.1110(2) 0.3183(6)
H2 H 0.8705 0.0925 0.3852
C4 C 0.9037(5) 0.1595(2) 0.3315(6)
C5 C 0.8881(5) 0.1881(2) 0.2361(6)
H3 H 0.9201 0.2209 0.2478
C6 C 0.8227(5) 0.1666(2) 0.1207(6)
H4 H 0.8107 0.1855 0.0545
C8 C 0.7327(5) 0.0392(2) 0.1865(6)
C9 C 0.4805(5) 0.1205(2) 0.0445(5)
H5 H 0.5195 0.1255 0.0131
C10 C 0.4479(5) 0.1646(2) 0.0733(5)
H6 H 0.4661 0.1985 0.0632
C11 C 0.3872(5) 0.1587(2) 0.1179(5)
C12 C 0.3651(5) 0.1064(2) 0.1325(5)
H7 H 0.3253 0.1003 0.1626
C13 C 0.4016(5) 0.0641(2) 0.1026(5)
H8 H 0.3857 0.0298 0.1130
C14 C 0.3487(5) 0.2033(2) 0.1526(5)
H9 H 0.3079 0.1947 0.1799
C15 C 0.3665(5) 0.2546(2) 0.1488(5)
H10 H 0.4082 0.2633 0.1225
C16 C 0.3065(5) 0.3927(2) 0.1973(6)
H11 H 0.3219 0.4274 0.1878
C17 C 0.3456(5) 0.3511(2) 0.1679(6)
H12 H 0.3853 0.3582 0.1382
C18 C 0.3265(5) 0.2992(2) 0.1821(5)
C19 C 0.2663(5) 0.2914(2) 0.2271(6)
H13 H 0.2518 0.2571 0.2395
C20 C 0.2286(5) 0.3350(2) 0.2528(6)
H14 H 0.1879 0.3290 0.2816
Zn8 Zn 0.18514(6) 0.44859(2) 0.27458(6)
Zn1_2 Zn 0.5000 -0.0000 1.0000
Zn2 Zn 0.31486(6) 0.05141(2) 0.72542(6)
O1 O 0.7509(3) 0.06069(14) 0.9498(4)
O2 O 0.6249(4) 0.11766(16) 0.9028(4)
O7 O 0.4557(3) 0.03781(13) 0.8431(3)
H1 H 0.4948 0.0611 0.8428
C7 C 0.7087(6) 0.0969(2) 0.9751(6)
Zn3 Zn 0.68514(6) 0.05141(2) 0.77458(6)
O8 O 0.2491(3) 0.06069(14) 0.5502(4)
O9 O 0.3751(4) 0.11766(16) 0.5972(4)
O10 O 0.3418(3) 0.02857(14) 0.4168(4)
O11 O 0.2370(3) 0.01213(14) 0.2193(4)
O14 O 0.5443(3) 0.03781(13) 0.6569(3)
H15 H 0.5052 0.0611 0.6572
N4 N 0.0289(5) 0.1827(2) 0.0477(6)
C21 C 0.2246(4) 0.1175(2) 0.3967(5)
C22 C 0.2092(4) 0.0903(2) 0.2971(5)
C23 C 0.1425(5) 0.1110(2) 0.1817(6)
H16 H 0.1295 0.0925 0.1148
C24 C 0.0963(5) 0.1595(2) 0.1685(6)
C25 C 0.1119(5) 0.1881(2) 0.2639(6)
H17 H 0.0799 0.2209 0.2522
C26 C 0.1773(5) 0.1666(2) 0.3793(6)
H18 H 0.1893 0.1855 0.4455
C27 C 0.2913(6) 0.0969(2) 0.5249(6)
C28 C 0.2673(5) 0.0392(2) 0.3135(6)
Zn4 Zn 0.5000 0.0000 0.5000
N7 N 0.2523(4) 0.11419(16) 0.7615(4)
N8 N 0.7477(4) 0.11419(16) 0.7385(4)
Zn1_3 Zn 0.5000 1.0000 0.0000
Zn6 Zn 0.68514(6) 0.94859(2) 0.27458(6)
O18 O 0.5443(3) 0.96219(13) 0.1569(3)
Zn1_4 Zn 0.5000 1.0000 1.0000
N5 N 0.5405(4) 0.92976(16) 0.9409(4)
N6 N 0.7523(4) 0.61419(16) 0.7615(4)
C29 C 0.5195(5) 0.8795(2) 0.9555(5)
H19 H 0.4805 0.8745 0.9869
C30 C 0.5521(5) 0.8354(2) 0.9267(5)
H20 H 0.5339 0.8015 0.9368
C31 C 0.6128(5) 0.8413(2) 0.8821(5)
C32 C 0.6349(5) 0.8936(2) 0.8675(5)
H21 H 0.6747 0.8997 0.8374
C33 C 0.5984(5) 0.9359(2) 0.8974(5)
H22 H 0.6143 0.9702 0.8870
C34 C 0.6513(5) 0.7967(2) 0.8474(5)
H23 H 0.6921 0.8053 0.8201
C35 C 0.6335(5) 0.7454(2) 0.8512(5)
H24 H 0.5918 0.7367 0.8775
C36 C 0.6935(5) 0.6073(2) 0.8027(6)
H25 H 0.6781 0.5726 0.8122
C37 C 0.6544(5) 0.6489(2) 0.8321(6)
H26 H 0.6147 0.6418 0.8618
C38 C 0.6735(5) 0.7008(2) 0.8179(5)
C39 C 0.7337(5) 0.7086(2) 0.7729(6)
H27 H 0.7482 0.7429 0.7605
C40 C 0.7714(5) 0.6650(2) 0.7472(6)
H28 H 0.8121 0.6710 0.7184
Zn4_2 Zn 0.5000 1.0000 0.5000
Zn5 Zn 0.81486(6) 0.55141(2) 0.72542(6)
Zn7 Zn 0.31486(6) 0.94859(2) 0.22542(6)
O15 O 0.3418(3) 0.97143(14) 0.9168(4)
O16 O 0.2370(3) 0.98787(14) 0.7193(4)
O17 O 0.7630(3) 0.98787(14) 0.7807(4)
N2_2 N 0.5405(4) 0.07024(16) 0.4409(4)
N3_2 N 0.7523(4) 0.38581(16) 0.2615(4)
C9_2 C 0.5195(5) 0.1205(2) 0.4555(5)
H5_2 H 0.4805 0.1255 0.4869
C10_2 C 0.5521(5) 0.1646(2) 0.4267(5)
H6_2 H 0.5339 0.1985 0.4368
C11_2 C 0.6128(5) 0.1587(2) 0.3821(5)
C12_2 C 0.6349(5) 0.1064(2) 0.3675(5)
H7_2 H 0.6747 0.1003 0.3374
C13_2 C 0.5984(5) 0.0641(2) 0.3974(5)
H8_2 H 0.6143 0.0298 0.3870
C14_2 C 0.6513(5) 0.2033(2) 0.3474(5)
H9_2 H 0.6921 0.1947 0.3201
C15_2 C 0.6335(5) 0.2546(2) 0.3512(5)
H10_2 H 0.5918 0.2633 0.3775
C16_2 C 0.6935(5) 0.3927(2) 0.3027(6)
H11_2 H 0.6781 0.4274 0.3122
C17_2 C 0.6544(5) 0.3511(2) 0.3321(6)
H12_2 H 0.6147 0.3582 0.3618
C18_2 C 0.6735(5) 0.2992(2) 0.3179(5)
C19_2 C 0.7337(5) 0.2914(2) 0.2729(6)
H13_2 H 0.7482 0.2571 0.2605
C20_2 C 0.7714(5) 0.3350(2) 0.2472(6)
H14_2 H 0.8121 0.3290 0.2184
Zn8_2 Zn 0.81486(6) 0.44859(2) 0.22542(6)
N5_2 N 0.4595(4) 0.92976(16) 0.5591(4)
N6_2 N 0.2477(4) 0.61419(16) 0.7385(4)
C29_2 C 0.4805(5) 0.8795(2) 0.5445(5)
H19_2 H 0.5195 0.8745 0.5131
C30_2 C 0.4479(5) 0.8354(2) 0.5733(5)
H20_2 H 0.4661 0.8015 0.5632
C31_2 C 0.3872(5) 0.8413(2) 0.6179(5)
C32_2 C 0.3651(5) 0.8936(2) 0.6325(5)
H21_2 H 0.3253 0.8997 0.6626
C33_2 C 0.4016(5) 0.9359(2) 0.6026(5)
H22_2 H 0.3857 0.9702 0.6130
C34_2 C 0.3487(5) 0.7967(2) 0.6526(5)
H23_2 H 0.3079 0.8053 0.6799
C35_2 C 0.3665(5) 0.7454(2) 0.6488(5)
H24_2 H 0.4082 0.7367 0.6225
C36_2 C 0.3065(5) 0.6073(2) 0.6973(6)
H25_2 H 0.3219 0.5726 0.6878
C37_2 C 0.3456(5) 0.6489(2) 0.6679(6)
H26_2 H 0.3853 0.6418 0.6382
C38_2 C 0.3265(5) 0.7008(2) 0.6821(5)
C39_2 C 0.2663(5) 0.7086(2) 0.7271(6)
H27_2 H 0.2518 0.7429 0.7395
C40_2 C 0.2286(5) 0.6650(2) 0.7528(6)
H28_2 H 0.1879 0.6710 0.7816
Zn5_2 Zn 0.18514(6) 0.55141(2) 0.77458(6)
O15_2 O 0.6582(3) 0.97143(14) 0.5832(4)
O18_2 O 0.4557(3) 0.96219(13) 0.3431(3)
Zn1_5 Zn -0.0000 0.5000 0.0000
O3_2 O 0.1582(3) 0.52857(14) 0.0832(4)
O4_2 O 0.2630(3) 0.51213(14) 0.2807(4)
O5_2 O 0.4768(5) 0.6605(3) 0.5347(5)
O6_2 O 0.5184(5) 0.7232(2) 0.4658(5)
N1_2 N 0.4711(5) 0.6827(2) 0.4523(6)
C1_2 C 0.2754(4) 0.6175(2) 0.1033(5)
C2_2 C 0.2908(4) 0.5903(2) 0.2029(5)
C3_2 C 0.3575(5) 0.6110(2) 0.3183(6)
H2_2 H 0.3705 0.5925 0.3852
C4_2 C 0.4037(5) 0.6595(2) 0.3315(6)
C5_2 C 0.3881(5) 0.6881(2) 0.2361(6)
H3_2 H 0.4201 0.7209 0.2478
C6_2 C 0.3227(5) 0.6666(2) 0.1207(6)
H4_2 H 0.3107 0.6855 0.0545
C8_2 C 0.2327(5) 0.5392(2) 0.1865(6)
H5_3 H 0.0195 0.6255 0.0131
O18_3 O 0.0443(3) 0.46219(13) 0.1569(3)
Zn1_6 Zn 0.0000 0.5000 1.0000
O1_2 O 0.2509(3) 0.56069(14) 0.9498(4)
O2_2 O 0.1249(4) 0.61766(16) 0.9028(4)
C7_2 C 0.2087(6) 0.5969(2) 0.9751(6)
O14_2 O 0.0443(3) 0.53781(13) 0.6569(3)
H15_2 H 0.0052 0.5611 0.6572
N5_3 N 0.0405(4) 0.42976(16) 0.9409(4)
C29_3 C 0.0195(5) 0.3795(2) 0.9555(5)
C30_3 C 0.0521(5) 0.3354(2) 0.9267(5)
H20_3 H 0.0339 0.3015 0.9368
C31_3 C 0.1128(5) 0.3413(2) 0.8821(5)
C32_3 C 0.1349(5) 0.3936(2) 0.8675(5)
H21_3 H 0.1747 0.3997 0.8374
C33_3 C 0.0984(5) 0.4359(2) 0.8974(5)
H22_3 H 0.1143 0.4702 0.8870
C34_3 C 0.1513(5) 0.2967(2) 0.8474(5)
H23_3 H 0.1921 0.3053 0.8201
C35_3 C 0.1335(5) 0.2454(2) 0.8512(5)
H24_3 H 0.0918 0.2367 0.8775
C36_3 C 0.1935(5) 0.1073(2) 0.8027(6)
H25_3 H 0.1781 0.0726 0.8122
C37_3 C 0.1544(5) 0.1489(2) 0.8321(6)
H26_3 H 0.1147 0.1418 0.8618
C38_3 C 0.1735(5) 0.2008(2) 0.8179(5)
C39_3 C 0.2337(5) 0.2086(2) 0.7729(6)
H27_3 H 0.2482 0.2429 0.7605
C40_3 C 0.2714(5) 0.1650(2) 0.7472(6)
H28_3 H 0.3121 0.1710 0.7184
Zn4_3 Zn -0.0000 0.5000 0.5000
O17_2 O 0.2630(3) 0.48787(14) 0.7807(4)
Zn1_7 Zn 1.0000 0.5000 0.0000
N2_3 N 0.9595(4) 0.57024(16) 0.0591(4)
N3_3 N 0.7477(4) 0.88581(16) 0.2385(4)
C9_3 C 0.9805(5) 0.6205(2) 0.0445(5)
C10_3 C 0.9479(5) 0.6646(2) 0.0733(5)
H6_3 H 0.9661 0.6985 0.0632
C11_3 C 0.8872(5) 0.6587(2) 0.1179(5)
C12_3 C 0.8651(5) 0.6064(2) 0.1325(5)
H7_3 H 0.8253 0.6003 0.1626
C13_3 C 0.9016(5) 0.5641(2) 0.1026(5)
H8_3 H 0.8857 0.5298 0.1130
C14_3 C 0.8487(5) 0.7033(2) 0.1526(5)
H9_3 H 0.8079 0.6947 0.1799
C15_3 C 0.8665(5) 0.7546(2) 0.1488(5)
H10_3 H 0.9082 0.7633 0.1225
C16_3 C 0.8065(5) 0.8927(2) 0.1973(6)
H11_3 H 0.8219 0.9274 0.1878
C17_3 C 0.8456(5) 0.8511(2) 0.1679(6)
H12_3 H 0.8853 0.8582 0.1382
C18_3 C 0.8265(5) 0.7992(2) 0.1821(5)
C19_3 C 0.7663(5) 0.7914(2) 0.2271(6)
H13_3 H 0.7518 0.7571 0.2395
C20_3 C 0.7286(5) 0.8350(2) 0.2528(6)
H14_3 H 0.6879 0.8290 0.2816
Zn1_8 Zn 1.0000 0.5000 1.0000
O7_2 O 0.9557(3) 0.53781(13) 0.8431(3)
H1_2 H 0.9948 0.5611 0.8428
O8_2 O 0.7491(3) 0.56069(14) 0.5502(4)
O9_2 O 0.8751(4) 0.61766(16) 0.5972(4)
O10_2 O 0.8418(3) 0.52857(14) 0.4168(4)
O11_2 O 0.7370(3) 0.51213(14) 0.2193(4)
O13 O 0.4816(5) 0.7232(2) 0.0342(5)
N4_2 N 0.5289(5) 0.6827(2) 0.0477(6)
C21_2 C 0.7246(4) 0.6175(2) 0.3967(5)
C22_2 C 0.7092(4) 0.5903(2) 0.2971(5)
C23_2 C 0.6425(5) 0.6110(2) 0.1817(6)
H16_2 H 0.6295 0.5925 0.1148
C24_2 C 0.5963(5) 0.6595(2) 0.1685(6)
C25_2 C 0.6119(5) 0.6881(2) 0.2639(6)
H17_2 H 0.5799 0.7209 0.2522
C26_2 C 0.6773(5) 0.6666(2) 0.3793(6)
H18_2 H 0.6893 0.6855 0.4455
C27_2 C 0.7913(6) 0.5969(2) 0.5249(6)
C28_2 C 0.7673(5) 0.5392(2) 0.3135(6)
H19_3 H 0.9805 0.3745 0.9869
Zn4_4 Zn 1.0000 0.5000 0.5000
O15_3 O 0.8418(3) 0.47143(14) 0.9168(4)
O16_2 O 0.7370(3) 0.48787(14) 0.7193(4)
N2_4 N 0.0405(4) 0.57024(16) 0.4409(4)
N3_4 N 0.2523(4) 0.88581(16) 0.2615(4)
C9_4 C 0.0195(5) 0.6205(2) 0.4555(5)
C10_4 C 0.0521(5) 0.6646(2) 0.4267(5)
H6_4 H 0.0339 0.6985 0.4368
C11_4 C 0.1128(5) 0.6587(2) 0.3821(5)
C12_4 C 0.1349(5) 0.6064(2) 0.3675(5)
H7_4 H 0.1747 0.6003 0.3374
C13_4 C 0.0984(5) 0.5641(2) 0.3974(5)
H8_4 H 0.1143 0.5298 0.3870
C14_4 C 0.1513(5) 0.7033(2) 0.3474(5)
H9_4 H 0.1921 0.6947 0.3201
C15_4 C 0.1335(5) 0.7546(2) 0.3512(5)
H10_4 H 0.0918 0.7633 0.3775
C16_4 C 0.1935(5) 0.8927(2) 0.3027(6)
H11_4 H 0.1781 0.9274 0.3122
C17_4 C 0.1544(5) 0.8511(2) 0.3321(6)
H12_4 H 0.1147 0.8582 0.3618
C18_4 C 0.1735(5) 0.7992(2) 0.3179(5)
C19_4 C 0.2337(5) 0.7914(2) 0.2729(6)
H13_4 H 0.2482 0.7571 0.2605
C20_4 C 0.2714(5) 0.8350(2) 0.2472(6)
H14_4 H 0.3121 0.8290 0.2184
H19_4 H 0.0195 0.3745 0.5131
O15_4 O 0.1582(3) 0.47143(14) 0.5832(4)
H5_4 H 0.9805 0.6255 0.4869
N5_4 N 0.9595(4) 0.42976(16) 0.5591(4)
C29_4 C 0.9805(5) 0.3795(2) 0.5445(5)
C30_4 C 0.9479(5) 0.3354(2) 0.5733(5)
H20_4 H 0.9661 0.3015 0.5632
C31_4 C 0.8872(5) 0.3413(2) 0.6179(5)
C32_4 C 0.8651(5) 0.3936(2) 0.6325(5)
H21_4 H 0.8253 0.3997 0.6626
C33_4 C 0.9016(5) 0.4359(2) 0.6026(5)
H22_4 H 0.8857 0.4702 0.6130
C34_4 C 0.8487(5) 0.2967(2) 0.6526(5)
H23_4 H 0.8079 0.3053 0.6799
C35_4 C 0.8665(5) 0.2454(2) 0.6488(5)
H24_4 H 0.9082 0.2367 0.6225
C36_4 C 0.8065(5) 0.1073(2) 0.6973(6)
H25_4 H 0.8219 0.0726 0.6878
C37_4 C 0.8456(5) 0.1489(2) 0.6679(6)
H26_4 H 0.8853 0.1418 0.6382
C38_4 C 0.8265(5) 0.2008(2) 0.6821(5)
C39_4 C 0.7663(5) 0.2086(2) 0.7271(6)
H27_4 H 0.7518 0.2429 0.7395
C40_4 C 0.7286(5) 0.1650(2) 0.7528(6)
H28_4 H 0.6879 0.1710 0.7816
O18_4 O 0.9557(3) 0.46219(13) 0.3431(3)
O1_3 O 0.2491(3) 0.93931(14) 0.0502(4)
O2_3 O 0.3751(4) 0.88234(16) 0.0972(4)
H1_3 H 0.5052 0.9389 0.1572
C7_3 C 0.2913(6) 0.9031(2) 0.0249(6)
O8_3 O 0.7509(3) 0.93931(14) 0.4498(4)
O9_3 O 0.6249(4) 0.88234(16) 0.4028(4)
H15_3 H 0.4948 0.9389 0.3428
N4_3 N 0.9711(5) 0.8173(2) 0.9523(6)
C21_3 C 0.7754(4) 0.8825(2) 0.6033(5)
C22_3 C 0.7908(4) 0.9097(2) 0.7029(5)
C23_3 C 0.8575(5) 0.8890(2) 0.8183(6)
H16_3 H 0.8705 0.9075 0.8852
C24_3 C 0.9037(5) 0.8405(2) 0.8315(6)
C25_3 C 0.8881(5) 0.8119(2) 0.7361(6)
H17_3 H 0.9201 0.7791 0.7478
C26_3 C 0.8227(5) 0.8334(2) 0.6207(6)
H18_3 H 0.8107 0.8145 0.5545
C27_3 C 0.7087(6) 0.9031(2) 0.4751(6)
C28_3 C 0.7327(5) 0.9608(2) 0.6865(6)
O5_3 O 0.0232(5) 0.8395(3) 0.4653(5)
N1_3 N 0.0289(5) 0.8173(2) 0.5477(6)
C1_3 C 0.2246(4) 0.8825(2) 0.8967(5)
C2_3 C 0.2092(4) 0.9097(2) 0.7971(5)
C3_3 C 0.1425(5) 0.8890(2) 0.6817(6)
H2_3 H 0.1295 0.9075 0.6148
C4_3 C 0.0963(5) 0.8405(2) 0.6685(6)
C5_3 C 0.1119(5) 0.8119(2) 0.7639(6)
H3_3 H 0.0799 0.7791 0.7522
C6_3 C 0.1773(5) 0.8334(2) 0.8793(6)
H4_3 H 0.1893 0.8145 0.9455
C8_3 C 0.2673(5) 0.9608(2) 0.8135(6)
H1_4 H 0.0052 0.4389 0.1572
O8_4 O 0.2509(3) 0.43931(14) 0.4498(4)
O9_4 O 0.1249(4) 0.38234(16) 0.4028(4)
O13_2 O 0.5184(5) 0.2768(2) 0.9658(5)
N4_4 N 0.4711(5) 0.3173(2) 0.9523(6)
C21_4 C 0.2754(4) 0.3825(2) 0.6033(5)
C22_4 C 0.2908(4) 0.4097(2) 0.7029(5)
C23_4 C 0.3575(5) 0.3890(2) 0.8183(6)
H16_4 H 0.3705 0.4075 0.8852
C24_4 C 0.4037(5) 0.3405(2) 0.8315(6)
C25_4 C 0.3881(5) 0.3119(2) 0.7361(6)
H17_4 H 0.4201 0.2791 0.7478
C26_4 C 0.3227(5) 0.3334(2) 0.6207(6)
H18_4 H 0.3107 0.3145 0.5545
C27_4 C 0.2087(6) 0.4031(2) 0.4751(6)
C28_4 C 0.2327(5) 0.4608(2) 0.6865(6)
O1_4 O 0.7491(3) 0.43931(14) 0.0502(4)
O2_4 O 0.8751(4) 0.38234(16) 0.0972(4)
C7_4 C 0.7913(6) 0.4031(2) 0.0249(6)
H15_4 H 0.9948 0.4389 0.3428
O5_4 O 0.5232(5) 0.3395(3) 0.4653(5)
O6_3 O 0.4816(5) 0.2768(2) 0.5342(5)
N1_4 N 0.5289(5) 0.3173(2) 0.5477(6)
C1_4 C 0.7246(4) 0.3825(2) 0.8967(5)
C2_4 C 0.7092(4) 0.4097(2) 0.7971(5)
C3_4 C 0.6425(5) 0.3890(2) 0.6817(6)
H2_4 H 0.6295 0.4075 0.6148
C4_4 C 0.5963(5) 0.3405(2) 0.6685(6)
C5_4 C 0.6119(5) 0.3119(2) 0.7639(6)
H3_4 H 0.5799 0.2791 0.7522
C6_4 C 0.6773(5) 0.3334(2) 0.8793(6)
H4_4 H 0.6893 0.3145 0.9455
C8_4 C 0.7673(5) 0.4608(2) 0.8135(6)
O12 O 0.0232(5) 0.1605(3) 0.9653(5)
O13_3 O 0.9816(5) 0.2232(2) 0.0342(5)
O12_2 O 0.5232(5) 0.6605(3) 0.9653(5)
O13_4 O 0.0184(5) 0.7768(2) 0.9658(5)
O12_3 O 0.9768(5) 0.8395(3) 0.0347(5)
O6_4 O 0.9816(5) 0.7768(2) 0.5342(5)
O12_4 O 0.4768(5) 0.3395(3) 0.0347(5)
loop_
_geom_bond_atom_site_label_1
_geom_bond_atom_site_label_2
_geom_bond_site_symmetry_1
_geom_bond_site_symmetry_2
Zn1 O3 1_555 1_555
O3 C8 1_555 1_555
O4 C8 1_555 1_555
O5 N1 1_555 1_555
N1 C4 1_555 1_555
N2 Zn1 1_555 1_555
N3 C16 1_555 1_555
C1 C2 1_555 1_555
C2 C3 1_555 1_555
C3 H2 1_555 1_555
C4 C3 1_555 1_555
C5 C4 1_555 1_555
H3 C5 1_555 1_555
C6 C1 1_555 1_555
H4 C6 1_555 1_555
C8 C2 1_555 1_555
C9 N2 1_555 1_555
H5 C9 1_555 1_555
C10 C9 1_555 1_555
H6 C10 1_555 1_555
C11 C10 1_555 1_555
C12 C11 1_555 1_555
H7 C12 1_555 1_555
C13 N2 1_555 1_555
H8 C13 1_555 1_555
C14 C11 1_555 1_555
H9 C14 1_555 1_555
C15 C14 1_555 1_555
H10 C15 1_555 1_555
C16 H11 1_555 1_555
C17 C16 1_555 1_555
H12 C17 1_555 1_555
C18 C15 1_555 1_555
C19 C18 1_555 1_555
H13 C19 1_555 1_555
C20 N3 1_555 1_555
H14 C20 1_555 1_555
Zn8 N3 1_555 1_555
C5 C6 1_555 1_555
C12 C13 1_555 1_555
C17 C18 1_555 1_555
C19 C20 1_555 1_555
Zn2 O7 1_555 1_555
O1 C7 1_555 1_555
O2 C7 1_555 1_555
O7 Zn1_2 1_555 1_555
H1 O7 1_555 1_555
Zn3 O1 1_555 1_555
O8 Zn2 1_555 1_555
O9 C27 1_555 1_555
O10 C28 1_555 1_555
O11 C28 1_555 1_555
O14 Zn3 1_555 1_555
H15 O14 1_555 1_555
N4 C24 1_555 1_555
C21 C22 1_555 1_555
C22 C23 1_555 1_555
C23 H16 1_555 1_555
C24 C23 1_555 1_555
C25 C24 1_555 1_555
H17 C25 1_555 1_555
C26 C21 1_555 1_555
H18 C26 1_555 1_555
C27 O8 1_555 1_555
C28 C22 1_555 1_555
Zn4 O10 1_555 1_555
N7 Zn2 1_555 1_555
N8 Zn3 1_555 1_555
O14 Zn4 1_555 1_555
C21 C27 1_555 1_555
C25 C26 1_555 1_555
O18 Zn1_3 1_555 1_555
Zn6 O18 1_555 1_555
N5 Zn1_4 1_555 1_555
N6 C36 1_555 1_555
C29 N5 1_555 1_555
H19 C29 1_555 1_555
C30 C29 1_555 1_555
H20 C30 1_555 1_555
C31 C30 1_555 1_555
C32 C31 1_555 1_555
H21 C32 1_555 1_555
C33 N5 1_555 1_555
H22 C33 1_555 1_555
C34 C31 1_555 1_555
H23 C34 1_555 1_555
C35 C34 1_555 1_555
H24 C35 1_555 1_555
C36 H25 1_555 1_555
C37 C36 1_555 1_555
H26 C37 1_555 1_555
C38 C35 1_555 1_555
C39 C38 1_555 1_555
H27 C39 1_555 1_555
C40 N6 1_555 1_555
H28 C40 1_555 1_555
Zn5 N6 1_555 1_555
O15 Zn1_4 1_555 1_555
C32 C33 1_555 1_555
C37 C38 1_555 1_555
C39 C40 1_555 1_555
N2_2 Zn4 1_555 1_555
N3_2 C16_2 1_555 1_555
C9_2 N2_2 1_555 1_555
H5_2 C9_2 1_555 1_555
C10_2 C9_2 1_555 1_555
H6_2 C10_2 1_555 1_555
C11_2 C10_2 1_555 1_555
C12_2 C11_2 1_555 1_555
H7_2 C12_2 1_555 1_555
C13_2 N2_2 1_555 1_555
H8_2 C13_2 1_555 1_555
C14_2 C11_2 1_555 1_555
H9_2 C14_2 1_555 1_555
C15_2 C14_2 1_555 1_555
H10_2 C15_2 1_555 1_555
C16_2 H11_2 1_555 1_555
C17_2 C16_2 1_555 1_555
H12_2 C17_2 1_555 1_555
C18_2 C15_2 1_555 1_555
C19_2 C18_2 1_555 1_555
H13_2 C19_2 1_555 1_555
C20_2 N3_2 1_555 1_555
H14_2 C20_2 1_555 1_555
Zn8_2 N3_2 1_555 1_555
C12_2 C13_2 1_555 1_555
C17_2 C18_2 1_555 1_555
C19_2 C20_2 1_555 1_555
N5_2 Zn4_2 1_555 1_555
N6_2 C36_2 1_555 1_555
C29_2 N5_2 1_555 1_555
H19_2 C29_2 1_555 1_555
C30_2 C29_2 1_555 1_555
H20_2 C30_2 1_555 1_555
C31_2 C30_2 1_555 1_555
C32_2 C31_2 1_555 1_555
H21_2 C32_2 1_555 1_555
C33_2 N5_2 1_555 1_555
H22_2 C33_2 1_555 1_555
C34_2 C31_2 1_555 1_555
H23_2 C34_2 1_555 1_555
C35_2 C34_2 1_555 1_555
H24_2 C35_2 1_555 1_555
C36_2 H25_2 1_555 1_555
C37_2 C36_2 1_555 1_555
H26_2 C37_2 1_555 1_555
C38_2 C35_2 1_555 1_555
C39_2 C38_2 1_555 1_555
H27_2 C39_2 1_555 1_555
C40_2 N6_2 1_555 1_555
H28_2 C40_2 1_555 1_555
Zn5_2 N6_2 1_555 1_555
O15_2 Zn4_2 1_555 1_555
O18_2 Zn4_2 1_555 1_555
C32_2 C33_2 1_555 1_555
C37_2 C38_2 1_555 1_555
C39_2 C40_2 1_555 1_555
Zn7 O18_2 1_555 1_555
Zn1_5 O3_2 1_555 1_555
O3_2 C8_2 1_555 1_555
O4_2 C8_2 1_555 1_555
O5_2 N1_2 1_555 1_555
O6_2 N1_2 1_555 1_555
N1_2 C4_2 1_555 1_555
C1_2 C2_2 1_555 1_555
C2_2 C3_2 1_555 1_555
C3_2 H2_2 1_555 1_555
C4_2 C3_2 1_555 1_555
C5_2 C4_2 1_555 1_555
H3_2 C5_2 1_555 1_555
C6_2 C1_2 1_555 1_555
H4_2 C6_2 1_555 1_555
C8_2 C2_2 1_555 1_555
Zn8 O4_2 1_555 1_555
O18_3 Zn1_5 1_555 1_555
C5_2 C6_2 1_555 1_555
Zn8 O18_3 1_555 1_555
O1_2 C7_2 1_555 1_555
O2_2 C7_2 1_555 1_555
Zn5_2 O1_2 1_555 1_555
O14_2 Zn5_2 1_555 1_555
H15_2 O14_2 1_555 1_555
N5_3 Zn1_6 1_555 1_555
N7 C36_3 1_555 1_555
C29_3 N5_3 1_555 1_555
C30_3 C29_3 1_555 1_555
H20_3 C30_3 1_555 1_555
C31_3 C30_3 1_555 1_555
C32_3 C31_3 1_555 1_555
H21_3 C32_3 1_555 1_555
C33_3 N5_3 1_555 1_555
H22_3 C33_3 1_555 1_555
C34_3 C31_3 1_555 1_555
H23_3 C34_3 1_555 1_555
C35_3 C34_3 1_555 1_555
H24_3 C35_3 1_555 1_555
C36_3 H25_3 1_555 1_555
C37_3 C36_3 1_555 1_555
H26_3 C37_3 1_555 1_555
C38_3 C35_3 1_555 1_555
C39_3 C38_3 1_555 1_555
H27_3 C39_3 1_555 1_555
C40_3 N7 1_555 1_555
H28_3 C40_3 1_555 1_555
O17_2 Zn5_2 1_555 1_555
O14_2 Zn4_3 1_555 1_555
C32_3 C33_3 1_555 1_555
C37_3 C38_3 1_555 1_555
C39_3 C40_3 1_555 1_555
N2_3 Zn1_7 1_555 1_555
N3_3 C16_3 1_555 1_555
C9_3 N2_3 1_555 1_555
C10_3 C9_3 1_555 1_555
H6_3 C10_3 1_555 1_555
C11_3 C10_3 1_555 1_555
C12_3 C11_3 1_555 1_555
H7_3 C12_3 1_555 1_555
C13_3 N2_3 1_555 1_555
H8_3 C13_3 1_555 1_555
C14_3 C11_3 1_555 1_555
H9_3 C14_3 1_555 1_555
C15_3 C14_3 1_555 1_555
H10_3 C15_3 1_555 1_555
C16_3 H11_3 1_555 1_555
C17_3 C16_3 1_555 1_555
H12_3 C17_3 1_555 1_555
C18_3 C15_3 1_555 1_555
C19_3 C18_3 1_555 1_555
H13_3 C19_3 1_555 1_555
C20_3 N3_3 1_555 1_555
H14_3 C20_3 1_555 1_555
Zn6 N3_3 1_555 1_555
C12_3 C13_3 1_555 1_555
C17_3 C18_3 1_555 1_555
C19_3 C20_3 1_555 1_555
Zn5 O7_2 1_555 1_555
O7_2 Zn1_8 1_555 1_555
H1_2 O7_2 1_555 1_555
O8_2 Zn5 1_555 1_555
O9_2 C27_2 1_555 1_555
O10_2 C28_2 1_555 1_555
O11_2 C28_2 1_555 1_555
O13 N4_2 1_555 1_555
N4_2 C24_2 1_555 1_555
C21_2 C22_2 1_555 1_555
C22_2 C23_2 1_555 1_555
C23_2 H16_2 1_555 1_555
C24_2 C23_2 1_555 1_555
C25_2 C24_2 1_555 1_555
H17_2 C25_2 1_555 1_555
C26_2 C21_2 1_555 1_555
H18_2 C26_2 1_555 1_555
C27_2 O8_2 1_555 1_555
C28_2 C22_2 1_555 1_555
Zn4_4 O10_2 1_555 1_555
Zn8_2 O11_2 1_555 1_555
O15_3 Zn1_8 1_555 1_555
O16_2 Zn5 1_555 1_555
C21_2 C27_2 1_555 1_555
C25_2 C26_2 1_555 1_555
N2_4 Zn4_3 1_555 1_555
N3_4 C16_4 1_555 1_555
C9_4 N2_4 1_555 1_555
C10_4 C9_4 1_555 1_555
H6_4 C10_4 1_555 1_555
C11_4 C10_4 1_555 1_555
C12_4 C11_4 1_555 1_555
H7_4 C12_4 1_555 1_555
C13_4 N2_4 1_555 1_555
H8_4 C13_4 1_555 1_555
C14_4 C11_4 1_555 1_555
H9_4 C14_4 1_555 1_555
C15_4 C14_4 1_555 1_555
H10_4 C15_4 1_555 1_555
C16_4 H11_4 1_555 1_555
C17_4 C16_4 1_555 1_555
H12_4 C17_4 1_555 1_555
C18_4 C15_4 1_555 1_555
C19_4 C18_4 1_555 1_555
H13_4 C19_4 1_555 1_555
C20_4 N3_4 1_555 1_555
H14_4 C20_4 1_555 1_555
Zn7 N3_4 1_555 1_555
O15_4 Zn4_3 1_555 1_555
C12_4 C13_4 1_555 1_555
C17_4 C18_4 1_555 1_555
C19_4 C20_4 1_555 1_555
N5_4 Zn4_4 1_555 1_555
N8 C36_4 1_555 1_555
C29_4 N5_4 1_555 1_555
C30_4 C29_4 1_555 1_555
H20_4 C30_4 1_555 1_555
C31_4 C30_4 1_555 1_555
C32_4 C31_4 1_555 1_555
H21_4 C32_4 1_555 1_555
C33_4 N5_4 1_555 1_555
H22_4 C33_4 1_555 1_555
C34_4 C31_4 1_555 1_555
H23_4 C34_4 1_555 1_555
C35_4 C34_4 1_555 1_555
H24_4 C35_4 1_555 1_555
C36_4 H25_4 1_555 1_555
C37_4 C36_4 1_555 1_555
H26_4 C37_4 1_555 1_555
C38_4 C35_4 1_555 1_555
C39_4 C38_4 1_555 1_555
H27_4 C39_4 1_555 1_555
C40_4 N8 1_555 1_555
H28_4 C40_4 1_555 1_555
O18_4 Zn4_4 1_555 1_555
C32_4 C33_4 1_555 1_555
C37_4 C38_4 1_555 1_555
C39_4 C40_4 1_555 1_555
Zn8_2 O18_4 1_555 1_555
O1_3 C7_3 1_555 1_555
O2_3 C7_3 1_555 1_555
H1_3 O18 1_555 1_555
Zn7 O1_3 1_555 1_555
O8_3 Zn6 1_555 1_555
O9_3 C27_3 1_555 1_555
O15_2 C28_3 1_555 1_555
O17 C28_3 1_555 1_555
H15_3 O18_2 1_555 1_555
N4_3 C24_3 1_555 1_555
C21_3 C22_3 1_555 1_555
C22_3 C23_3 1_555 1_555
C23_3 H16_3 1_555 1_555
C24_3 C23_3 1_555 1_555
C25_3 C24_3 1_555 1_555
H17_3 C25_3 1_555 1_555
C26_3 C21_3 1_555 1_555
H18_3 C26_3 1_555 1_555
C27_3 O8_3 1_555 1_555
C28_3 C22_3 1_555 1_555
C21_3 C27_3 1_555 1_555
C25_3 C26_3 1_555 1_555
O15 C8_3 1_555 1_555
O16 C8_3 1_555 1_555
O5_3 N1_3 1_555 1_555
N1_3 C4_3 1_555 1_555
C1_3 C2_3 1_555 1_555
C2_3 C3_3 1_555 1_555
C3_3 H2_3 1_555 1_555
C4_3 C3_3 1_555 1_555
C5_3 C4_3 1_555 1_555
H3_3 C5_3 1_555 1_555
C6_3 C1_3 1_555 1_555
H4_3 C6_3 1_555 1_555
C8_3 C2_3 1_555 1_555
C5_3 C6_3 1_555 1_555
H1_4 O18_3 1_555 1_555
O8_4 Zn8 1_555 1_555
O9_4 C27_4 1_555 1_555
O15_4 C28_4 1_555 1_555
O17_2 C28_4 1_555 1_555
O13_2 N4_4 1_555 1_555
N4_4 C24_4 1_555 1_555
C21_4 C22_4 1_555 1_555
C22_4 C23_4 1_555 1_555
C23_4 H16_4 1_555 1_555
C24_4 C23_4 1_555 1_555
C25_4 C24_4 1_555 1_555
H17_4 C25_4 1_555 1_555
C26_4 C21_4 1_555 1_555
H18_4 C26_4 1_555 1_555
C27_4 O8_4 1_555 1_555
C28_4 C22_4 1_555 1_555
C21_4 C27_4 1_555 1_555
C25_4 C26_4 1_555 1_555
O1_4 C7_4 1_555 1_555
O2_4 C7_4 1_555 1_555
Zn8_2 O1_4 1_555 1_555
H15_4 O18_4 1_555 1_555
O15_3 C8_4 1_555 1_555
O16_2 C8_4 1_555 1_555
O5_4 N1_4 1_555 1_555
O6_3 N1_4 1_555 1_555
N1_4 C4_4 1_555 1_555
C1_4 C2_4 1_555 1_555
C2_4 C3_4 1_555 1_555
C3_4 H2_4 1_555 1_555
C4_4 C3_4 1_555 1_555
C5_4 C4_4 1_555 1_555
H3_4 C5_4 1_555 1_555
C6_4 C1_4 1_555 1_555
H4_4 C6_4 1_555 1_555
C8_4 C2_4 1_555 1_555
C5_4 C6_4 1_555 1_555

#END
