
###############################################################################
#
# This file contains modified crystal structure data generated from the
# MOF subset of the Cambridge Structural Database (CSD) v543 
# hosted by the Cambridge Crystallographic Data Centre (CCDC).
#
# This work is licensed under the Creative Commons
# Attribution-NonCommercial-ShareAlike 4.0 International License.
# To view a copy of this license, visit
# http://creativecommons.org/licenses/by-nc-sa/4.0/
# or send a letter to
# Creative Commons, PO Box 1866, Mountain View, CA 94042, USA.
#
# CIF created using the CSD Python API on 29 September 2022
# The structure has been converted into the P1 space group
# The structure has a 3D framework
# The original CSD entry GIRYAJ is in the cubic crystal system
# The framework has been calculated to contain at least 10.0% void space
# The void calculation uses a probe of radius 1.32A, grid spacing 0.4
# H atom positions have been added when not included in the experimental data
# Generated hydrogen atom positions removed from atoms on special positions
#
###############################################################################

data_GIRYAJ
_chemical_formula_moiety         '(C108 H132 N8 O128 Zn40)n'
_symmetry_cell_setting           triclinic
_symmetry_space_group_name_H-M   'P 1'
_symmetry_Int_Tables_number      1
_space_group_name_Hall           'P 1'
loop_
_symmetry_equiv_pos_site_id
_symmetry_equiv_pos_as_xyz
1 x,y,z
_cell_length_a                   20.4666(8)
_cell_length_b                   20.4666(8)
_cell_length_c                   20.4666(8)
_cell_angle_alpha                90
_cell_angle_beta                 90
_cell_angle_gamma                90
_cell_volume                     8573.08
loop_
_atom_site_label
_atom_site_type_symbol
_atom_site_fract_x
_atom_site_fract_y
_atom_site_fract_z
O3 O 0.3283(5) -0.0000 0.0000
Zn2 Zn 0.42623(7) -0.0000 0.0000
O24 O 0.6717(5) -0.0000 0.0000
Zn6 Zn 0.57377(7) -0.0000 0.0000
C37 C 0.6227(7) 0.2385(4) 0.2385(4)
C38 C 0.5000 0.0883(4) 0.0883(4)
C39 C 0.5000 0.1392(3) 0.1392(3)
C40 C 0.5593(4) 0.1644(3) 0.1644(3)
H13 H 0.5999 0.1485 0.1485
C41 C 0.5582(4) 0.2122(3) 0.2122(3)
C42 C 0.5000 0.2349(4) 0.2349(4)
H14 H 0.5000 0.2677 0.2677
O40 O 0.6725(4) 0.2174(3) 0.2174(3)
O41 O 0.6141(6) 0.2821(3) 0.2821(3)
O42 O 0.5555(3) 0.06837(17) 0.06837(17)
C43 C 0.3773(7) 0.2385(4) 0.2385(4)
C44 C 0.4407(4) 0.1644(3) 0.1644(3)
H15 H 0.4001 0.1485 0.1485
C45 C 0.4418(4) 0.2122(3) 0.2122(3)
O43 O 0.3275(4) 0.2174(3) 0.2174(3)
O44 O 0.3859(6) 0.2821(3) 0.2821(3)
O45 O 0.4445(3) 0.06837(17) 0.06837(17)
Zn15 Zn 0.33696(3) 0.33696(3) 0.33696(3)
Zn16 Zn 0.66304(3) 0.33696(3) 0.33696(3)
Zn23 Zn 0.23581(5) 0.23581(5) 0.23581(5)
Zn24 Zn 0.76419(5) 0.23581(5) 0.23581(5)
O3_2 O 0.3283(5) -0.0000 1.0000
Zn2_2 Zn 0.42623(7) -0.0000 1.0000
C19 C 0.6227(7) 0.2385(4) 0.7615(4)
C20 C 0.5000 0.0883(4) 0.9117(4)
C21 C 0.5000 0.1392(3) 0.8608(3)
C22 C 0.5593(4) 0.1644(3) 0.8356(3)
H7 H 0.5999 0.1485 0.8515
C23 C 0.5582(4) 0.2122(3) 0.7878(3)
C24 C 0.5000 0.2349(4) 0.7651(4)
H8 H 0.5000 0.2677 0.7323
O22 O 0.6725(4) 0.2174(3) 0.7826(3)
O23 O 0.6141(6) 0.2821(3) 0.7179(3)
O24_2 O 0.6717(5) -0.0000 1.0000
O25 O 0.5555(3) 0.06837(17) 0.93163(17)
Zn6_2 Zn 0.57377(7) -0.0000 1.0000
C25 C 0.3773(7) 0.2385(4) 0.7615(4)
C26 C 0.4407(4) 0.1644(3) 0.8356(3)
H9 H 0.4001 0.1485 0.8515
C27 C 0.4418(4) 0.2122(3) 0.7878(3)
O26 O 0.3275(4) 0.2174(3) 0.7826(3)
O27 O 0.3859(6) 0.2821(3) 0.7179(3)
O28 O 0.4445(3) 0.06837(17) 0.93163(17)
Zn12 Zn 0.33696(3) 0.33696(3) 0.66304(3)
Zn14 Zn 0.66304(3) 0.33696(3) 0.66304(3)
Zn20 Zn 0.23581(5) 0.23581(5) 0.76419(5)
Zn22 Zn 0.76419(5) 0.23581(5) 0.76419(5)
O3_3 O 0.3283(5) 1.0000 0.0000
Zn2_3 Zn 0.42623(7) 1.0000 0.0000
O24_3 O 0.6717(5) 1.0000 0.0000
Zn6_3 Zn 0.57377(7) 1.0000 0.0000
O31 O -0.0000 0.6717(5) 0.0000
Zn8 Zn 0.0000 0.57377(7) 0.0000
C46 C 0.3773(7) 0.7615(4) 0.2385(4)
C47 C 0.5000 0.9117(4) 0.0883(4)
C48 C 0.5000 0.8608(3) 0.1392(3)
C49 C 0.4407(4) 0.8356(3) 0.1644(3)
H16 H 0.4001 0.8515 0.1485
C50 C 0.4418(4) 0.7878(3) 0.2122(3)
C51 C 0.5000 0.7651(4) 0.2349(4)
H17 H 0.5000 0.7323 0.2677
O46 O 0.3275(4) 0.7826(3) 0.2174(3)
O47 O 0.3859(6) 0.7179(3) 0.2821(3)
O48 O 0.4445(3) 0.93163(17) 0.06837(17)
C52 C 0.6227(7) 0.7615(4) 0.2385(4)
C53 C 0.5593(4) 0.8356(3) 0.1644(3)
H18 H 0.5999 0.8515 0.1485
C54 C 0.5582(4) 0.7878(3) 0.2122(3)
O49 O 0.6725(4) 0.7826(3) 0.2174(3)
O50 O 0.6141(6) 0.7179(3) 0.2821(3)
O51 O 0.5555(3) 0.93163(17) 0.06837(17)
O70 O 0.06837(17) 0.5555(3) 0.06837(17)
Zn17 Zn 0.66304(3) 0.66304(3) 0.33696(3)
Zn18 Zn 0.33696(3) 0.66304(3) 0.33696(3)
Zn19 Zn -0.0000 0.42623(7) 0.0000
Zn25 Zn 0.76419(5) 0.76419(5) 0.23581(5)
Zn26 Zn 0.23581(5) 0.76419(5) 0.23581(5)
C1 C 0.3773(7) 0.7615(4) 0.7615(4)
C2 C 0.5000 0.9117(4) 0.9117(4)
C3 C 0.5000 0.8608(3) 0.8608(3)
C4 C 0.4407(4) 0.8356(3) 0.8356(3)
H1 H 0.4001 0.8515 0.8515
C5 C 0.4418(4) 0.7878(3) 0.7878(3)
C6 C 0.5000 0.7651(4) 0.7651(4)
H2 H 0.5000 0.7323 0.7323
O1 O 0.3275(4) 0.7826(3) 0.7826(3)
O2 O 0.3859(6) 0.7179(3) 0.7179(3)
O3_4 O 0.3283(5) 1.0000 1.0000
O4 O 0.4445(3) 0.93163(17) 0.93163(17)
O5 O 0.3917(5) 0.6083(5) 0.6083(5)
N1 N 0.1782(6) 0.8218(6) 0.8218(6)
Zn1 Zn 0.33696(3) 0.66304(3) 0.66304(3)
Zn2_4 Zn 0.42623(7) 1.0000 1.0000
Zn3 Zn 0.23581(5) 0.76419(5) 0.76419(5)
O6 O 0.2116(15) 0.7884(15) 0.866(2)
C7 C 0.6227(7) 0.7615(4) 0.7615(4)
C8 C 0.5593(4) 0.8356(3) 0.8356(3)
H3 H 0.5999 0.8515 0.8515
C9 C 0.5582(4) 0.7878(3) 0.7878(3)
O7 O 0.6725(4) 0.7826(3) 0.7826(3)
O8 O 0.6141(6) 0.7179(3) 0.7179(3)
O9 O 0.5555(3) 0.93163(17) 0.93163(17)
O10 O 0.134(2) 0.7884(15) 0.7884(15)
O11 O 0.2116(15) 0.866(2) 0.7884(15)
C10 C 0.2385(4) 0.3773(7) 0.7615(4)
C11 C 0.0883(4) 0.5000 0.9117(4)
C12 C 0.1392(3) 0.5000 0.8608(3)
C13 C 0.1644(3) 0.4407(4) 0.8356(3)
H4 H 0.1485 0.4001 0.8515
C14 C 0.2122(3) 0.4418(4) 0.7878(3)
C15 C 0.2349(4) 0.5000 0.7651(4)
H5 H 0.2677 0.5000 0.7323
O12 O 0.2174(3) 0.3275(4) 0.7826(3)
O13 O 0.2821(3) 0.3859(6) 0.7179(3)
O14 O 0.06837(17) 0.4445(3) 0.93163(17)
O15 O 0.3917(5) 0.3917(5) 0.6083(5)
N2 N 0.1782(6) 0.1782(6) 0.8218(6)
O16 O 0.2116(15) 0.2116(15) 0.866(2)
C16 C 0.2385(4) 0.6227(7) 0.7615(4)
C17 C 0.1644(3) 0.5593(4) 0.8356(3)
H6 H 0.1485 0.5999 0.8515
C18 C 0.2122(3) 0.5582(4) 0.7878(3)
O17 O 0.2174(3) 0.6725(4) 0.7826(3)
O18 O 0.2821(3) 0.6141(6) 0.7179(3)
O19 O 0.06837(17) 0.5555(3) 0.93163(17)
O20 O 0.2116(15) 0.134(2) 0.7884(15)
O21 O 0.134(2) 0.2116(15) 0.7884(15)
O24_4 O 0.6717(5) 1.0000 1.0000
Zn6_4 Zn 0.57377(7) 1.0000 1.0000
O31_2 O -0.0000 0.6717(5) 1.0000
Zn8_2 Zn 0.0000 0.57377(7) 1.0000
N4 N 0.8218(6) 0.8218(6) 0.8218(6)
Zn10 Zn 0.76419(5) 0.76419(5) 0.76419(5)
O52 O 0.7884(15) 0.7884(15) 0.866(2)
O53 O 0.866(2) 0.7884(15) 0.7884(15)
O54 O 0.7884(15) 0.866(2) 0.7884(15)
O55 O 0.6083(5) 0.6083(5) 0.6083(5)
Zn11 Zn 0.66304(3) 0.66304(3) 0.66304(3)
O56 O 0.7826(3) 0.6725(4) 0.7826(3)
O59 O 0.2174(3) 0.2174(3) 0.6725(4)
O61 O 0.7826(3) 0.7826(3) 0.6725(4)
O62 O 0.2174(3) 0.7826(3) 0.6725(4)
O63 O 0.7179(3) 0.6141(6) 0.7179(3)
O66 O 0.2821(3) 0.2821(3) 0.6141(6)
O68 O 0.7179(3) 0.7179(3) 0.6141(6)
O69 O 0.2821(3) 0.7179(3) 0.6141(6)
Zn19_2 Zn -0.0000 0.42623(7) 1.0000
O31_3 O 1.0000 0.6717(5) 0.0000
Zn8_3 Zn 1.0000 0.57377(7) 0.0000
O71 O 0.93163(17) 0.5555(3) 0.06837(17)
Zn19_3 Zn 1.0000 0.42623(7) 0.0000
C28 C 0.7615(4) 0.6227(7) 0.7615(4)
C29 C 0.9117(4) 0.5000 0.9117(4)
C30 C 0.8608(3) 0.5000 0.8608(3)
C31 C 0.8356(3) 0.5593(4) 0.8356(3)
H10 H 0.8515 0.5999 0.8515
C32 C 0.7878(3) 0.5582(4) 0.7878(3)
C33 C 0.7651(4) 0.5000 0.7651(4)
H11 H 0.7323 0.5000 0.7323
O31_4 O 1.0000 0.6717(5) 1.0000
O32 O 0.93163(17) 0.5555(3) 0.93163(17)
Zn8_4 Zn 1.0000 0.57377(7) 1.0000
C34 C 0.7615(4) 0.3773(7) 0.7615(4)
C35 C 0.8356(3) 0.4407(4) 0.8356(3)
H12 H 0.8515 0.4001 0.8515
C36 C 0.7878(3) 0.4418(4) 0.7878(3)
O35 O 0.7826(3) 0.3275(4) 0.7826(3)
O36 O 0.7179(3) 0.3859(6) 0.7179(3)
O37 O 0.93163(17) 0.4445(3) 0.93163(17)
Zn19_4 Zn 1.0000 0.42623(7) 1.0000
O3_5 O 0.0000 0.3283(5) 0.0000
C46_2 C 0.2385(4) 0.3773(7) 0.2385(4)
C47_2 C 0.0883(4) 0.5000 0.0883(4)
C48_2 C 0.1392(3) 0.5000 0.1392(3)
C49_2 C 0.1644(3) 0.4407(4) 0.1644(3)
H16_2 H 0.1485 0.4001 0.1485
C50_2 C 0.2122(3) 0.4418(4) 0.2122(3)
C51_2 C 0.2349(4) 0.5000 0.2349(4)
H17_2 H 0.2677 0.5000 0.2677
O46_2 O 0.2174(3) 0.3275(4) 0.2174(3)
O47_2 O 0.2821(3) 0.3859(6) 0.2821(3)
O48_2 O 0.06837(17) 0.4445(3) 0.06837(17)
C52_2 C 0.2385(4) 0.6227(7) 0.2385(4)
C53_2 C 0.1644(3) 0.5593(4) 0.1644(3)
H18_2 H 0.1485 0.5999 0.1485
C54_2 C 0.2122(3) 0.5582(4) 0.2122(3)
O49_2 O 0.2174(3) 0.6725(4) 0.2174(3)
O50_2 O 0.2821(3) 0.6141(6) 0.2821(3)
O3_6 O 0.0000 0.3283(5) 1.0000
O15_2 O 0.6083(5) 0.3917(5) 0.6083(5)
N2_2 N 0.8218(6) 0.1782(6) 0.8218(6)
O16_2 O 0.7884(15) 0.2116(15) 0.866(2)
O20_2 O 0.866(2) 0.2116(15) 0.7884(15)
O21_2 O 0.7884(15) 0.134(2) 0.7884(15)
O59_2 O 0.7826(3) 0.2174(3) 0.6725(4)
O66_2 O 0.7179(3) 0.2821(3) 0.6141(6)
O3_7 O 1.0000 0.3283(5) 0.0000
C37_2 C 0.7615(4) 0.6227(7) 0.2385(4)
C38_2 C 0.9117(4) 0.5000 0.0883(4)
C39_2 C 0.8608(3) 0.5000 0.1392(3)
C40_2 C 0.8356(3) 0.5593(4) 0.1644(3)
H13_2 H 0.8515 0.5999 0.1485
C41_2 C 0.7878(3) 0.5582(4) 0.2122(3)
C42_2 C 0.7651(4) 0.5000 0.2349(4)
H14_2 H 0.7323 0.5000 0.2677
O40_2 O 0.7826(3) 0.6725(4) 0.2174(3)
O41_2 O 0.7179(3) 0.6141(6) 0.2821(3)
C43_2 C 0.7615(4) 0.3773(7) 0.2385(4)
C44_2 C 0.8356(3) 0.4407(4) 0.1644(3)
H15_2 H 0.8515 0.4001 0.1485
C45_2 C 0.7878(3) 0.4418(4) 0.2122(3)
O43_2 O 0.7826(3) 0.3275(4) 0.2174(3)
O44_2 O 0.7179(3) 0.3859(6) 0.2821(3)
O45_2 O 0.93163(17) 0.4445(3) 0.06837(17)
O3_8 O 1.0000 0.3283(5) 1.0000
O5_2 O 0.3917(5) 0.3917(5) 0.3917(5)
N1_2 N 0.1782(6) 0.1782(6) 0.1782(6)
O6_2 O 0.2116(15) 0.2116(15) 0.134(2)
O10_2 O 0.134(2) 0.2116(15) 0.2116(15)
O11_2 O 0.2116(15) 0.134(2) 0.2116(15)
O15_3 O 0.3917(5) 0.6083(5) 0.3917(5)
N2_3 N 0.1782(6) 0.8218(6) 0.1782(6)
O16_3 O 0.2116(15) 0.7884(15) 0.134(2)
O20_3 O 0.2116(15) 0.866(2) 0.2116(15)
O21_3 O 0.134(2) 0.7884(15) 0.2116(15)
N4_2 N 0.8218(6) 0.1782(6) 0.1782(6)
O52_2 O 0.7884(15) 0.2116(15) 0.134(2)
O53_2 O 0.866(2) 0.2116(15) 0.2116(15)
O54_2 O 0.7884(15) 0.134(2) 0.2116(15)
O55_2 O 0.6083(5) 0.3917(5) 0.3917(5)
O59_3 O 0.2174(3) 0.7826(3) 0.3275(4)
O61_2 O 0.7826(3) 0.2174(3) 0.3275(4)
O62_2 O 0.2174(3) 0.2174(3) 0.3275(4)
O66_3 O 0.2821(3) 0.7179(3) 0.3859(6)
O68_2 O 0.7179(3) 0.2821(3) 0.3859(6)
O69_2 O 0.2821(3) 0.2821(3) 0.3859(6)
N4_3 N 0.8218(6) 0.8218(6) 0.1782(6)
O52_3 O 0.7884(15) 0.7884(15) 0.134(2)
O53_3 O 0.7884(15) 0.866(2) 0.2116(15)
O54_3 O 0.866(2) 0.7884(15) 0.2116(15)
O55_3 O 0.6083(5) 0.6083(5) 0.3917(5)
O61_3 O 0.7826(3) 0.7826(3) 0.3275(4)
O68_3 O 0.7179(3) 0.7179(3) 0.3859(6)
O31_5 O 0.0000 -0.0000 0.6717(5)
Zn8_5 Zn 0.0000 0.0000 0.57377(7)
O70_2 O 0.06837(17) 0.06837(17) 0.5555(3)
Zn19_5 Zn -0.0000 -0.0000 0.42623(7)
O31_6 O 0.0000 1.0000 0.6717(5)
Zn8_6 Zn 0.0000 1.0000 0.57377(7)
O71_2 O 0.06837(17) 0.93163(17) 0.5555(3)
Zn19_6 Zn -0.0000 1.0000 0.42623(7)
C10_2 C 0.7615(4) 0.2385(4) 0.3773(7)
C11_2 C 0.9117(4) 0.0883(4) 0.5000
C12_2 C 0.8608(3) 0.1392(3) 0.5000
C13_2 C 0.8356(3) 0.1644(3) 0.4407(4)
H4_2 H 0.8515 0.1485 0.4001
C14_2 C 0.7878(3) 0.2122(3) 0.4418(4)
C15_2 C 0.7651(4) 0.2349(4) 0.5000
H5_2 H 0.7323 0.2677 0.5000
O14_2 O 0.93163(17) 0.06837(17) 0.4445(3)
C16_2 C 0.7615(4) 0.2385(4) 0.6227(7)
C17_2 C 0.8356(3) 0.1644(3) 0.5593(4)
H6_2 H 0.8515 0.1485 0.5999
C18_2 C 0.7878(3) 0.2122(3) 0.5582(4)
O19_2 O 0.93163(17) 0.06837(17) 0.5555(3)
O31_7 O 1.0000 -0.0000 0.6717(5)
Zn8_7 Zn 1.0000 0.0000 0.57377(7)
Zn19_7 Zn 1.0000 -0.0000 0.42623(7)
C28_2 C 0.7615(4) 0.7615(4) 0.6227(7)
C29_2 C 0.9117(4) 0.9117(4) 0.5000
C30_2 C 0.8608(3) 0.8608(3) 0.5000
C31_2 C 0.8356(3) 0.8356(3) 0.5593(4)
H10_2 H 0.8515 0.8515 0.5999
C32_2 C 0.7878(3) 0.7878(3) 0.5582(4)
C33_2 C 0.7651(4) 0.7651(4) 0.5000
H11_2 H 0.7323 0.7323 0.5000
O31_8 O 1.0000 1.0000 0.6717(5)
O32_2 O 0.93163(17) 0.93163(17) 0.5555(3)
Zn8_8 Zn 1.0000 1.0000 0.57377(7)
C34_2 C 0.7615(4) 0.7615(4) 0.3773(7)
C35_2 C 0.8356(3) 0.8356(3) 0.4407(4)
H12_2 H 0.8515 0.8515 0.4001
C36_2 C 0.7878(3) 0.7878(3) 0.4418(4)
O37_2 O 0.93163(17) 0.93163(17) 0.4445(3)
Zn19_8 Zn 1.0000 1.0000 0.42623(7)
C28_3 C 0.2385(4) 0.7615(4) 0.6227(7)
C29_3 C 0.0883(4) 0.9117(4) 0.5000
C30_3 C 0.1392(3) 0.8608(3) 0.5000
C31_3 C 0.1644(3) 0.8356(3) 0.5593(4)
H10_3 H 0.1485 0.8515 0.5999
C32_3 C 0.2122(3) 0.7878(3) 0.5582(4)
C33_3 C 0.2349(4) 0.7651(4) 0.5000
H11_3 H 0.2677 0.7323 0.5000
C34_3 C 0.2385(4) 0.7615(4) 0.3773(7)
C35_3 C 0.1644(3) 0.8356(3) 0.4407(4)
H12_3 H 0.1485 0.8515 0.4001
C36_3 C 0.2122(3) 0.7878(3) 0.4418(4)
O37_3 O 0.06837(17) 0.93163(17) 0.4445(3)
C28_4 C 0.2385(4) 0.2385(4) 0.6227(7)
C29_4 C 0.0883(4) 0.0883(4) 0.5000
C30_4 C 0.1392(3) 0.1392(3) 0.5000
C31_4 C 0.1644(3) 0.1644(3) 0.5593(4)
H10_4 H 0.1485 0.1485 0.5999
C32_4 C 0.2122(3) 0.2122(3) 0.5582(4)
C33_4 C 0.2349(4) 0.2349(4) 0.5000
H11_4 H 0.2677 0.2677 0.5000
C34_4 C 0.2385(4) 0.2385(4) 0.3773(7)
C35_4 C 0.1644(3) 0.1644(3) 0.4407(4)
H12_4 H 0.1485 0.1485 0.4001
C36_4 C 0.2122(3) 0.2122(3) 0.4418(4)
O37_4 O 0.06837(17) 0.06837(17) 0.4445(3)
O31_9 O -0.0000 0.0000 0.3283(5)
O31_10 O 0.0000 1.0000 0.3283(5)
O31_11 O 1.0000 0.0000 0.3283(5)
O31_12 O 1.0000 1.0000 0.3283(5)
loop_
_geom_bond_atom_site_label_1
_geom_bond_atom_site_label_2
_geom_bond_site_symmetry_1
_geom_bond_site_symmetry_2
O3 Zn2 1_555 1_555
O24 Zn6 1_555 1_555
C37 C41 1_555 1_555
C38 C39 1_555 1_555
C39 C40 1_555 1_555
C40 H13 1_555 1_555
C41 C40 1_555 1_555
C42 C41 1_555 1_555
H14 C42 1_555 1_555
O40 C37 1_555 1_555
O41 C37 1_555 1_555
O42 Zn6 1_555 1_555
C43 C45 1_555 1_555
C44 C39 1_555 1_555
H15 C44 1_555 1_555
C45 C42 1_555 1_555
O43 C43 1_555 1_555
O44 C43 1_555 1_555
O45 Zn2 1_555 1_555
Zn15 O44 1_555 1_555
Zn16 O41 1_555 1_555
Zn23 O43 1_555 1_555
Zn24 O40 1_555 1_555
C38 O42 1_555 1_555
C38 O45 1_555 1_555
C44 C45 1_555 1_555
O3_2 Zn2_2 1_555 1_555
C19 C23 1_555 1_555
C20 C21 1_555 1_555
C21 C22 1_555 1_555
C22 H7 1_555 1_555
C23 C22 1_555 1_555
C24 C23 1_555 1_555
H8 C24 1_555 1_555
O22 C19 1_555 1_555
O23 C19 1_555 1_555
O24_2 Zn6_2 1_555 1_555
O25 C20 1_555 1_555
C25 C27 1_555 1_555
C26 C21 1_555 1_555
H9 C26 1_555 1_555
C27 C24 1_555 1_555
O26 C25 1_555 1_555
O27 C25 1_555 1_555
O28 Zn2_2 1_555 1_555
Zn12 O27 1_555 1_555
Zn14 O23 1_555 1_555
Zn20 O26 1_555 1_555
Zn22 O22 1_555 1_555
C20 O28 1_555 1_555
O25 Zn6_2 1_555 1_555
C26 C27 1_555 1_555
O3_3 Zn2_3 1_555 1_555
O24_3 Zn6_3 1_555 1_555
O31 Zn8 1_555 1_555
C46 C50 1_555 1_555
C47 C48 1_555 1_555
C48 C49 1_555 1_555
C49 H16 1_555 1_555
C50 C49 1_555 1_555
C51 C50 1_555 1_555
H17 C51 1_555 1_555
O46 C46 1_555 1_555
O47 C46 1_555 1_555
O48 Zn2_3 1_555 1_555
C52 C54 1_555 1_555
C53 C48 1_555 1_555
H18 C53 1_555 1_555
C54 C51 1_555 1_555
O49 C52 1_555 1_555
O50 C52 1_555 1_555
O51 Zn6_3 1_555 1_555
O70 Zn8 1_555 1_555
Zn17 O50 1_555 1_555
Zn18 O47 1_555 1_555
Zn25 O49 1_555 1_555
Zn26 O46 1_555 1_555
C47 O48 1_555 1_555
C47 O51 1_555 1_555
C53 C54 1_555 1_555
C1 C5 1_555 1_555
C2 C3 1_555 1_555
C3 C4 1_555 1_555
C4 H1 1_555 1_555
C5 C4 1_555 1_555
C6 C5 1_555 1_555
H2 C6 1_555 1_555
O1 C1 1_555 1_555
O2 C1 1_555 1_555
O3_4 Zn2_4 1_555 1_555
O4 C2 1_555 1_555
O5 Zn1 1_555 1_555
N1 O6 1_555 1_555
Zn1 O2 1_555 1_555
Zn2_4 O4 1_555 1_555
Zn3 O1 1_555 1_555
O6 Zn3 1_555 1_555
C7 C9 1_555 1_555
C8 C3 1_555 1_555
H3 C8 1_555 1_555
C9 C6 1_555 1_555
O7 C7 1_555 1_555
O8 C7 1_555 1_555
O9 C2 1_555 1_555
O10 N1 1_555 1_555
O11 N1 1_555 1_555
C10 C14 1_555 1_555
C11 C12 1_555 1_555
C12 C13 1_555 1_555
C13 H4 1_555 1_555
C14 C13 1_555 1_555
C15 C14 1_555 1_555
H5 C15 1_555 1_555
O12 C10 1_555 1_555
O13 C10 1_555 1_555
O14 C11 1_555 1_555
O15 Zn12 1_555 1_555
N2 O16 1_555 1_555
Zn12 O13 1_555 1_555
Zn20 O12 1_555 1_555
O16 Zn20 1_555 1_555
C16 C18 1_555 1_555
C17 C12 1_555 1_555
H6 C17 1_555 1_555
C18 C15 1_555 1_555
O17 Zn3 1_555 1_555
O18 Zn1 1_555 1_555
O19 C11 1_555 1_555
O20 N2 1_555 1_555
O21 N2 1_555 1_555
O24_4 Zn6_4 1_555 1_555
Zn6_4 O9 1_555 1_555
O31_2 Zn8_2 1_555 1_555
Zn8_2 O19 1_555 1_555
N4 O52 1_555 1_555
Zn10 O7 1_555 1_555
O52 Zn10 1_555 1_555
O53 N4 1_555 1_555
O54 N4 1_555 1_555
O55 Zn11 1_555 1_555
Zn11 O8 1_555 1_555
O56 Zn10 1_555 1_555
O59 Zn20 1_555 1_555
O61 Zn10 1_555 1_555
O62 Zn3 1_555 1_555
O63 Zn11 1_555 1_555
O66 Zn12 1_555 1_555
O68 Zn11 1_555 1_555
O69 Zn1 1_555 1_555
Zn19_2 O14 1_555 1_555
Zn3 O10 1_555 1_555
Zn3 O11 1_555 1_555
C8 C9 1_555 1_555
Zn20 O20 1_555 1_555
Zn20 O21 1_555 1_555
C16 O17 1_555 1_555
C16 O18 1_555 1_555
C17 C18 1_555 1_555
Zn10 O53 1_555 1_555
Zn10 O54 1_555 1_555
O31_3 Zn8_3 1_555 1_555
O71 Zn8_3 1_555 1_555
C28 C32 1_555 1_555
C29 C30 1_555 1_555
C30 C31 1_555 1_555
C31 H10 1_555 1_555
C32 C31 1_555 1_555
C33 C32 1_555 1_555
H11 C33 1_555 1_555
O56 C28 1_555 1_555
O63 C28 1_555 1_555
O31_4 Zn8_4 1_555 1_555
O32 C29 1_555 1_555
C34 C36 1_555 1_555
C35 C30 1_555 1_555
H12 C35 1_555 1_555
C36 C33 1_555 1_555
O35 C34 1_555 1_555
O36 C34 1_555 1_555
O37 C29 1_555 1_555
Zn14 O36 1_555 1_555
Zn22 O35 1_555 1_555
O32 Zn8_4 1_555 1_555
C35 C36 1_555 1_555
O37 Zn19_4 1_555 1_555
O3_5 Zn19 1_555 1_555
C46_2 C50_2 1_555 1_555
C47_2 C48_2 1_555 1_555
C48_2 C49_2 1_555 1_555
C49_2 H16_2 1_555 1_555
C50_2 C49_2 1_555 1_555
C51_2 C50_2 1_555 1_555
H17_2 C51_2 1_555 1_555
O46_2 C46_2 1_555 1_555
O47_2 C46_2 1_555 1_555
O48_2 Zn19 1_555 1_555
C52_2 C54_2 1_555 1_555
C53_2 C48_2 1_555 1_555
H18_2 C53_2 1_555 1_555
C54_2 C51_2 1_555 1_555
O49_2 C52_2 1_555 1_555
O50_2 C52_2 1_555 1_555
Zn18 O50_2 1_555 1_555
Zn15 O47_2 1_555 1_555
Zn26 O49_2 1_555 1_555
Zn23 O46_2 1_555 1_555
C47_2 O48_2 1_555 1_555
C47_2 O70 1_555 1_555
C53_2 C54_2 1_555 1_555
O3_6 Zn19_2 1_555 1_555
O15_2 Zn14 1_555 1_555
N2_2 O16_2 1_555 1_555
O16_2 Zn22 1_555 1_555
O20_2 N2_2 1_555 1_555
O21_2 N2_2 1_555 1_555
O59_2 Zn22 1_555 1_555
O66_2 Zn14 1_555 1_555
Zn22 O20_2 1_555 1_555
Zn22 O21_2 1_555 1_555
O3_7 Zn19_3 1_555 1_555
C37_2 C41_2 1_555 1_555
C38_2 C39_2 1_555 1_555
C39_2 C40_2 1_555 1_555
C40_2 H13_2 1_555 1_555
C41_2 C40_2 1_555 1_555
C42_2 C41_2 1_555 1_555
H14_2 C42_2 1_555 1_555
O40_2 C37_2 1_555 1_555
O41_2 C37_2 1_555 1_555
C43_2 C45_2 1_555 1_555
C44_2 C39_2 1_555 1_555
H15_2 C44_2 1_555 1_555
C45_2 C42_2 1_555 1_555
O43_2 C43_2 1_555 1_555
O44_2 C43_2 1_555 1_555
O45_2 Zn19_3 1_555 1_555
Zn16 O44_2 1_555 1_555
Zn17 O41_2 1_555 1_555
Zn24 O43_2 1_555 1_555
Zn25 O40_2 1_555 1_555
C38_2 O71 1_555 1_555
C38_2 O45_2 1_555 1_555
C44_2 C45_2 1_555 1_555
O3_8 Zn19_4 1_555 1_555
O5_2 Zn15 1_555 1_555
N1_2 O6_2 1_555 1_555
O6_2 Zn23 1_555 1_555
O10_2 N1_2 1_555 1_555
O11_2 N1_2 1_555 1_555
O15_3 Zn18 1_555 1_555
N2_3 O16_3 1_555 1_555
O16_3 Zn26 1_555 1_555
O20_3 N2_3 1_555 1_555
O21_3 N2_3 1_555 1_555
N4_2 O52_2 1_555 1_555
O52_2 Zn24 1_555 1_555
O53_2 N4_2 1_555 1_555
O54_2 N4_2 1_555 1_555
O55_2 Zn16 1_555 1_555
O59_3 Zn26 1_555 1_555
O61_2 Zn24 1_555 1_555
O62_2 Zn23 1_555 1_555
O66_3 Zn18 1_555 1_555
O68_2 Zn16 1_555 1_555
O69_2 Zn15 1_555 1_555
Zn23 O10_2 1_555 1_555
Zn23 O11_2 1_555 1_555
Zn26 O20_3 1_555 1_555
Zn26 O21_3 1_555 1_555
Zn24 O53_2 1_555 1_555
Zn24 O54_2 1_555 1_555
N4_3 O52_3 1_555 1_555
O52_3 Zn25 1_555 1_555
O53_3 N4_3 1_555 1_555
O54_3 N4_3 1_555 1_555
O55_3 Zn17 1_555 1_555
O61_3 Zn25 1_555 1_555
O68_3 Zn17 1_555 1_555
Zn25 O53_3 1_555 1_555
Zn25 O54_3 1_555 1_555
O31_5 Zn8_5 1_555 1_555
O70_2 Zn8_5 1_555 1_555
O31_6 Zn8_6 1_555 1_555
O71_2 Zn8_6 1_555 1_555
C10_2 C14_2 1_555 1_555
C11_2 C12_2 1_555 1_555
C12_2 C13_2 1_555 1_555
C13_2 H4_2 1_555 1_555
C14_2 C13_2 1_555 1_555
C15_2 C14_2 1_555 1_555
H5_2 C15_2 1_555 1_555
O61_2 C10_2 1_555 1_555
O68_2 C10_2 1_555 1_555
O14_2 C11_2 1_555 1_555
C16_2 C18_2 1_555 1_555
C17_2 C12_2 1_555 1_555
H6_2 C17_2 1_555 1_555
C18_2 C15_2 1_555 1_555
O19_2 C11_2 1_555 1_555
O31_7 Zn8_7 1_555 1_555
Zn8_7 O19_2 1_555 1_555
Zn19_7 O14_2 1_555 1_555
C16_2 O59_2 1_555 1_555
C16_2 O66_2 1_555 1_555
C17_2 C18_2 1_555 1_555
C28_2 C32_2 1_555 1_555
C29_2 C30_2 1_555 1_555
C30_2 C31_2 1_555 1_555
C31_2 H10_2 1_555 1_555
C32_2 C31_2 1_555 1_555
C33_2 C32_2 1_555 1_555
H11_2 C33_2 1_555 1_555
O61 C28_2 1_555 1_555
O68 C28_2 1_555 1_555
O31_8 Zn8_8 1_555 1_555
O32_2 C29_2 1_555 1_555
C34_2 C36_2 1_555 1_555
C35_2 C30_2 1_555 1_555
H12_2 C35_2 1_555 1_555
C36_2 C33_2 1_555 1_555
O61_3 C34_2 1_555 1_555
O68_3 C34_2 1_555 1_555
O37_2 C29_2 1_555 1_555
O32_2 Zn8_8 1_555 1_555
C35_2 C36_2 1_555 1_555
O37_2 Zn19_8 1_555 1_555
C28_3 C32_3 1_555 1_555
C29_3 C30_3 1_555 1_555
C30_3 C31_3 1_555 1_555
C31_3 H10_3 1_555 1_555
C32_3 C31_3 1_555 1_555
C33_3 C32_3 1_555 1_555
H11_3 C33_3 1_555 1_555
O62 C28_3 1_555 1_555
O69 C28_3 1_555 1_555
O71_2 C29_3 1_555 1_555
C34_3 C36_3 1_555 1_555
C35_3 C30_3 1_555 1_555
H12_3 C35_3 1_555 1_555
C36_3 C33_3 1_555 1_555
O59_3 C34_3 1_555 1_555
O66_3 C34_3 1_555 1_555
O37_3 C29_3 1_555 1_555
C35_3 C36_3 1_555 1_555
O37_3 Zn19_6 1_555 1_555
C28_4 C32_4 1_555 1_555
C29_4 C30_4 1_555 1_555
C30_4 C31_4 1_555 1_555
C31_4 H10_4 1_555 1_555
C32_4 C31_4 1_555 1_555
C33_4 C32_4 1_555 1_555
H11_4 C33_4 1_555 1_555
O59 C28_4 1_555 1_555
O66 C28_4 1_555 1_555
O70_2 C29_4 1_555 1_555
C34_4 C36_4 1_555 1_555
C35_4 C30_4 1_555 1_555
H12_4 C35_4 1_555 1_555
C36_4 C33_4 1_555 1_555
O62_2 C34_4 1_555 1_555
O69_2 C34_4 1_555 1_555
O37_4 C29_4 1_555 1_555
C35_4 C36_4 1_555 1_555
O37_4 Zn19_5 1_555 1_555
O31_9 Zn19_5 1_555 1_555
O31_10 Zn19_6 1_555 1_555
O31_11 Zn19_7 1_555 1_555
O31_12 Zn19_8 1_555 1_555

#END
