
###############################################################################
#
# This file contains modified crystal structure data generated from the
# MOF subset of the Cambridge Structural Database (CSD) v543 
# hosted by the Cambridge Crystallographic Data Centre (CCDC).
#
# This work is licensed under the Creative Commons
# Attribution-NonCommercial-ShareAlike 4.0 International License.
# To view a copy of this license, visit
# http://creativecommons.org/licenses/by-nc-sa/4.0/
# or send a letter to
# Creative Commons, PO Box 1866, Mountain View, CA 94042, USA.
#
# CIF created using the CSD Python API on 29 September 2022
# The structure has been converted into the P1 space group
# The structure has a 3D framework
# The original CSD entry GIRYEN is in the monoclinic crystal system
# The framework has been calculated to contain at least 10.0% void space
# The void calculation uses a probe of radius 1.32A, grid spacing 0.4
#
###############################################################################

data_GIRYEN
_chemical_formula_moiety         '(C160 H108 N24 O52 Zn19)n'
_symmetry_cell_setting           triclinic
_symmetry_space_group_name_H-M   'P 1'
_symmetry_Int_Tables_number      1
_space_group_name_Hall           'P 1'
loop_
_symmetry_equiv_pos_site_id
_symmetry_equiv_pos_as_xyz
1 x,y,z
_cell_length_a                   16.205(6)
_cell_length_b                   24.834(8)
_cell_length_c                   13.514(5)
_cell_angle_alpha                90
_cell_angle_beta                 124.244(3)
_cell_angle_gamma                90
_cell_volume                     4495.73
loop_
_atom_site_label
_atom_site_type_symbol
_atom_site_fract_x
_atom_site_fract_y
_atom_site_fract_z
O6 O 0.0160(2) 0.21801(11) 0.4691(2)
Zn1 Zn 0.5000 0.0000 0.0000
O3 O 0.65123(12) 0.02988(6) 0.08091(13)
O4 O 0.75197(13) 0.01222(7) 0.27671(14)
O5 O 0.9700(2) 0.15628(15) 0.5361(2)
N1 N 0.96730(19) 0.17845(11) 0.4549(2)
N2 N 0.45984(14) 0.07047(7) 0.05932(16)
N3 N 0.23892(15) 0.38414(7) 0.23500(17)
C1 C 0.77125(17) 0.11771(9) 0.10448(19)
C2 C 0.78330(17) 0.08986(9) 0.20186(19)
C3 C 0.84886(18) 0.10949(10) 0.3174(2)
H2 H 0.8584 0.0911 0.3830
C4 C 0.89959(18) 0.15690(10) 0.3328(2)
C5 C 0.8885(2) 0.18572(10) 0.2387(2)
H3 H 0.9232 0.2177 0.2517
C6 C 0.8241(2) 0.16546(10) 0.1244(2)
H4 H 0.8157 0.1840 0.0596
C8 C 0.72341(17) 0.03987(8) 0.18355(19)
C9 C 0.47972(18) 0.12112(9) 0.04483(19)
H5 H 0.5178 0.1265 0.0138
C10 C 0.44626(19) 0.16581(9) 0.0739(2)
H6 H 0.4622 0.2003 0.0628
C11 C 0.38821(18) 0.15869(9) 0.1200(2)
C12 C 0.36784(19) 0.10600(10) 0.1342(2)
H7 H 0.3294 0.0993 0.1643
C13 C 0.40453(19) 0.06363(9) 0.1038(2)
H8 H 0.3903 0.0287 0.1146
C14 C 0.34849(19) 0.20299(10) 0.1539(2)
H9 H 0.3082 0.1935 0.1799
C15 C 0.36448(19) 0.25486(10) 0.1509(2)
H10 H 0.4059 0.2646 0.1267
C16 C 0.2946(2) 0.39267(10) 0.1915(2)
H11 H 0.3054 0.4280 0.1784
C17 C 0.3364(2) 0.35165(10) 0.1654(2)
H12 H 0.3746 0.3597 0.1357
C18 C 0.32190(18) 0.29875(10) 0.1829(2)
C19 C 0.2651(2) 0.28988(10) 0.2298(3)
H13 H 0.2544 0.2550 0.2453
C20 C 0.2250(2) 0.33299(10) 0.2530(2)
H14 H 0.1862 0.3262 0.2826
Zn8 Zn 0.177489(19) 0.447494(10) 0.27160(2)
Zn1_2 Zn 0.5000 0.0000 1.0000
Zn2 Zn 0.322511(19) 0.052506(10) 0.72840(2)
O1 O 0.74207(13) 0.06221(7) 0.94579(14)
O2 O 0.62419(14) 0.12105(8) 0.90758(16)
O7 O 0.45881(12) 0.03861(6) 0.84512(13)
H1 H 0.4975 0.0616 0.8448
C7 C 0.70465(18) 0.09846(9) 0.97597(19)
Zn3 Zn 0.677489(19) 0.052506(10) 0.77160(2)
O8 O 0.25793(13) 0.06221(7) 0.55421(14)
O9 O 0.37581(14) 0.12105(8) 0.59242(16)
O10 O 0.34877(12) 0.02988(6) 0.41909(13)
O11 O 0.24803(13) 0.01222(7) 0.22329(14)
O14 O 0.54119(12) 0.03861(6) 0.65488(13)
H15 H 0.5025 0.0616 0.6552
N4 N 0.03270(19) 0.17845(11) 0.0451(2)
C21 C 0.22875(17) 0.11771(9) 0.39552(19)
C22 C 0.21670(17) 0.08986(9) 0.29814(19)
C23 C 0.15114(18) 0.10949(10) 0.1826(2)
H16 H 0.1416 0.0911 0.1170
C24 C 0.10041(18) 0.15690(10) 0.1672(2)
C25 C 0.1115(2) 0.18572(10) 0.2613(2)
H17 H 0.0768 0.2177 0.2483
C26 C 0.1759(2) 0.16546(10) 0.3756(2)
H18 H 0.1843 0.1840 0.4404
C27 C 0.29535(18) 0.09846(9) 0.52403(19)
C28 C 0.27659(17) 0.03987(8) 0.31645(19)
Zn4 Zn 0.5000 0.0000 0.5000
N7 N 0.26108(15) 0.11586(7) 0.76500(17)
N8 N 0.73892(15) 0.11586(7) 0.73500(17)
Zn1_3 Zn 0.5000 1.0000 0.0000
Zn6 Zn 0.677489(19) 0.947494(10) 0.27160(2)
O18 O 0.54119(12) 0.96139(6) 0.15488(13)
Zn1_4 Zn 0.5000 1.0000 1.0000
N5 N 0.54016(14) 0.92953(7) 0.94068(16)
N6 N 0.76108(15) 0.61586(7) 0.76500(17)
C29 C 0.52028(18) 0.87888(9) 0.95517(19)
H19 H 0.4822 0.8735 0.9862
C30 C 0.55374(19) 0.83419(9) 0.9261(2)
H20 H 0.5378 0.7997 0.9372
C31 C 0.61179(18) 0.84131(9) 0.8800(2)
C32 C 0.63216(19) 0.89400(10) 0.8658(2)
H21 H 0.6706 0.9007 0.8357
C33 C 0.59547(19) 0.93637(9) 0.8962(2)
H22 H 0.6097 0.9713 0.8854
C34 C 0.65151(19) 0.79701(10) 0.8461(2)
H23 H 0.6918 0.8065 0.8201
C35 C 0.63552(19) 0.74514(10) 0.8491(2)
H24 H 0.5941 0.7354 0.8733
C36 C 0.7054(2) 0.60733(10) 0.8085(2)
H25 H 0.6946 0.5720 0.8216
C37 C 0.6636(2) 0.64835(10) 0.8346(2)
H26 H 0.6254 0.6403 0.8643
C38 C 0.67810(18) 0.70125(10) 0.8171(2)
C39 C 0.7349(2) 0.71012(10) 0.7702(3)
H27 H 0.7456 0.7450 0.7547
C40 C 0.7750(2) 0.66701(10) 0.7470(2)
H28 H 0.8138 0.6738 0.7174
Zn4_2 Zn 0.5000 1.0000 0.5000
Zn5 Zn 0.822511(19) 0.552506(10) 0.72840(2)
Zn7 Zn 0.322511(19) 0.947494(10) 0.22840(2)
O15 O 0.34877(12) 0.97012(6) 0.91909(13)
O16 O 0.24803(13) 0.98778(7) 0.72329(14)
O17 O 0.75197(13) 0.98778(7) 0.77671(14)
N2_2 N 0.54016(14) 0.07047(7) 0.44068(16)
N3_2 N 0.76108(15) 0.38414(7) 0.26500(17)
C9_2 C 0.52028(18) 0.12112(9) 0.45517(19)
H5_2 H 0.4822 0.1265 0.4862
C10_2 C 0.55374(19) 0.16581(9) 0.4261(2)
H6_2 H 0.5378 0.2003 0.4372
C11_2 C 0.61179(18) 0.15869(9) 0.3800(2)
C12_2 C 0.63216(19) 0.10600(10) 0.3658(2)
H7_2 H 0.6706 0.0993 0.3357
C13_2 C 0.59547(19) 0.06363(9) 0.3962(2)
H8_2 H 0.6097 0.0287 0.3854
C14_2 C 0.65151(19) 0.20299(10) 0.3461(2)
H9_2 H 0.6918 0.1935 0.3201
C15_2 C 0.63552(19) 0.25486(10) 0.3491(2)
H10_2 H 0.5941 0.2646 0.3733
C16_2 C 0.7054(2) 0.39267(10) 0.3085(2)
H11_2 H 0.6946 0.4280 0.3216
C17_2 C 0.6636(2) 0.35165(10) 0.3346(2)
H12_2 H 0.6254 0.3597 0.3643
C18_2 C 0.67810(18) 0.29875(10) 0.3171(2)
C19_2 C 0.7349(2) 0.28988(10) 0.2702(3)
H13_2 H 0.7456 0.2550 0.2547
C20_2 C 0.7750(2) 0.33299(10) 0.2470(2)
H14_2 H 0.8138 0.3262 0.2174
Zn8_2 Zn 0.822511(19) 0.447494(10) 0.22840(2)
N5_2 N 0.45984(14) 0.92953(7) 0.55932(16)
N6_2 N 0.23892(15) 0.61586(7) 0.73500(17)
C29_2 C 0.47972(18) 0.87888(9) 0.54483(19)
H19_2 H 0.5178 0.8735 0.5138
C30_2 C 0.44626(19) 0.83419(9) 0.5739(2)
H20_2 H 0.4622 0.7997 0.5628
C31_2 C 0.38821(18) 0.84131(9) 0.6200(2)
C32_2 C 0.36784(19) 0.89400(10) 0.6342(2)
H21_2 H 0.3294 0.9007 0.6643
C33_2 C 0.40453(19) 0.93637(9) 0.6038(2)
H22_2 H 0.3903 0.9713 0.6146
C34_2 C 0.34849(19) 0.79701(10) 0.6539(2)
H23_2 H 0.3082 0.8065 0.6799
C35_2 C 0.36448(19) 0.74514(10) 0.6509(2)
H24_2 H 0.4059 0.7354 0.6267
C36_2 C 0.2946(2) 0.60733(10) 0.6915(2)
H25_2 H 0.3054 0.5720 0.6784
C37_2 C 0.3364(2) 0.64835(10) 0.6654(2)
H26_2 H 0.3746 0.6403 0.6357
C38_2 C 0.32190(18) 0.70125(10) 0.6829(2)
C39_2 C 0.2651(2) 0.71012(10) 0.7298(3)
H27_2 H 0.2544 0.7450 0.7453
C40_2 C 0.2250(2) 0.66701(10) 0.7530(2)
H28_2 H 0.1862 0.6738 0.7826
Zn5_2 Zn 0.177489(19) 0.552506(10) 0.77160(2)
O15_2 O 0.65123(12) 0.97012(6) 0.58091(13)
O18_2 O 0.45881(12) 0.96139(6) 0.34512(13)
Zn1_5 Zn 0.0000 0.5000 0.0000
O3_2 O 0.15123(12) 0.52988(6) 0.08091(13)
O4_2 O 0.25197(13) 0.51222(7) 0.27671(14)
O5_2 O 0.4700(2) 0.65628(15) 0.5361(2)
O6_2 O 0.5160(2) 0.71801(11) 0.4691(2)
N1_2 N 0.46730(19) 0.67845(11) 0.4549(2)
C1_2 C 0.27125(17) 0.61771(9) 0.10448(19)
C2_2 C 0.28330(17) 0.58986(9) 0.20186(19)
C3_2 C 0.34886(18) 0.60949(10) 0.3174(2)
H2_2 H 0.3584 0.5911 0.3830
C4_2 C 0.39959(18) 0.65690(10) 0.3328(2)
C5_2 C 0.3885(2) 0.68572(10) 0.2387(2)
H3_2 H 0.4232 0.7177 0.2517
C6_2 C 0.3241(2) 0.66546(10) 0.1244(2)
H4_2 H 0.3157 0.6840 0.0596
C8_2 C 0.22341(17) 0.53987(8) 0.18355(19)
H5_3 H 0.0178 0.6265 0.0138
O18_3 O 0.04119(12) 0.46139(6) 0.15488(13)
Zn1_6 Zn 0.0000 0.5000 1.0000
O1_2 O 0.24207(13) 0.56221(7) 0.94579(14)
O2_2 O 0.12419(14) 0.62105(8) 0.90758(16)
C7_2 C 0.20465(18) 0.59846(9) 0.97597(19)
O14_2 O 0.04119(12) 0.53861(6) 0.65488(13)
H15_2 H 0.0025 0.5616 0.6552
N5_3 N 0.04016(14) 0.42953(7) 0.94068(16)
C29_3 C 0.02028(18) 0.37888(9) 0.95517(19)
C30_3 C 0.05374(19) 0.33419(9) 0.9261(2)
H20_3 H 0.0378 0.2997 0.9372
C31_3 C 0.11179(18) 0.34131(9) 0.8800(2)
C32_3 C 0.13216(19) 0.39400(10) 0.8658(2)
H21_3 H 0.1706 0.4007 0.8357
C33_3 C 0.09547(19) 0.43637(9) 0.8962(2)
H22_3 H 0.1097 0.4713 0.8854
C34_3 C 0.15151(19) 0.29701(10) 0.8461(2)
H23_3 H 0.1918 0.3065 0.8201
C35_3 C 0.13552(19) 0.24514(10) 0.8491(2)
H24_3 H 0.0941 0.2354 0.8733
C36_3 C 0.2054(2) 0.10733(10) 0.8085(2)
H25_3 H 0.1946 0.0720 0.8216
C37_3 C 0.1636(2) 0.14835(10) 0.8346(2)
H26_3 H 0.1254 0.1403 0.8643
C38_3 C 0.17810(18) 0.20125(10) 0.8171(2)
C39_3 C 0.2349(2) 0.21012(10) 0.7702(3)
H27_3 H 0.2456 0.2450 0.7547
C40_3 C 0.2750(2) 0.16701(10) 0.7470(2)
H28_3 H 0.3138 0.1738 0.7174
Zn4_3 Zn 0.0000 0.5000 0.5000
O17_2 O 0.25197(13) 0.48778(7) 0.77671(14)
Zn1_7 Zn 1.0000 0.5000 0.0000
N2_3 N 0.95984(14) 0.57047(7) 0.05932(16)
N3_3 N 0.73892(15) 0.88414(7) 0.23500(17)
C9_3 C 0.97972(18) 0.62112(9) 0.04483(19)
C10_3 C 0.94626(19) 0.66581(9) 0.0739(2)
H6_3 H 0.9622 0.7003 0.0628
C11_3 C 0.88821(18) 0.65869(9) 0.1200(2)
C12_3 C 0.86784(19) 0.60600(10) 0.1342(2)
H7_3 H 0.8294 0.5993 0.1643
C13_3 C 0.90453(19) 0.56363(9) 0.1038(2)
H8_3 H 0.8903 0.5287 0.1146
C14_3 C 0.84849(19) 0.70299(10) 0.1539(2)
H9_3 H 0.8082 0.6935 0.1799
C15_3 C 0.86448(19) 0.75486(10) 0.1509(2)
H10_3 H 0.9059 0.7646 0.1267
C16_3 C 0.7946(2) 0.89267(10) 0.1915(2)
H11_3 H 0.8054 0.9280 0.1784
C17_3 C 0.8364(2) 0.85165(10) 0.1654(2)
H12_3 H 0.8746 0.8597 0.1357
C18_3 C 0.82190(18) 0.79875(10) 0.1829(2)
C19_3 C 0.7651(2) 0.78988(10) 0.2298(3)
H13_3 H 0.7544 0.7550 0.2453
C20_3 C 0.7250(2) 0.83299(10) 0.2530(2)
H14_3 H 0.6862 0.8262 0.2826
Zn1_8 Zn 1.0000 0.5000 1.0000
O7_2 O 0.95881(12) 0.53861(6) 0.84512(13)
H1_2 H 0.9975 0.5616 0.8448
O8_2 O 0.75793(13) 0.56221(7) 0.55421(14)
O9_2 O 0.87581(14) 0.62105(8) 0.59242(16)
O10_2 O 0.84877(12) 0.52988(6) 0.41909(13)
O11_2 O 0.74803(13) 0.51222(7) 0.22329(14)
O13 O 0.4840(2) 0.71801(11) 0.0309(2)
N4_2 N 0.53270(19) 0.67845(11) 0.0451(2)
C21_2 C 0.72875(17) 0.61771(9) 0.39552(19)
C22_2 C 0.71670(17) 0.58986(9) 0.29814(19)
C23_2 C 0.65114(18) 0.60949(10) 0.1826(2)
H16_2 H 0.6416 0.5911 0.1170
C24_2 C 0.60041(18) 0.65690(10) 0.1672(2)
C25_2 C 0.6115(2) 0.68572(10) 0.2613(2)
H17_2 H 0.5768 0.7177 0.2483
C26_2 C 0.6759(2) 0.66546(10) 0.3756(2)
H18_2 H 0.6843 0.6840 0.4404
C27_2 C 0.79535(18) 0.59846(9) 0.52403(19)
C28_2 C 0.77659(17) 0.53987(8) 0.31645(19)
H19_3 H 0.9822 0.3735 0.9862
Zn4_4 Zn 1.0000 0.5000 0.5000
O15_3 O 0.84877(12) 0.47012(6) 0.91909(13)
O16_2 O 0.74803(13) 0.48778(7) 0.72329(14)
N2_4 N 0.04016(14) 0.57047(7) 0.44068(16)
N3_4 N 0.26108(15) 0.88414(7) 0.26500(17)
C9_4 C 0.02028(18) 0.62112(9) 0.45517(19)
C10_4 C 0.05374(19) 0.66581(9) 0.4261(2)
H6_4 H 0.0378 0.7003 0.4372
C11_4 C 0.11179(18) 0.65869(9) 0.3800(2)
C12_4 C 0.13216(19) 0.60600(10) 0.3658(2)
H7_4 H 0.1706 0.5993 0.3357
C13_4 C 0.09547(19) 0.56363(9) 0.3962(2)
H8_4 H 0.1097 0.5287 0.3854
C14_4 C 0.15151(19) 0.70299(10) 0.3461(2)
H9_4 H 0.1918 0.6935 0.3201
C15_4 C 0.13552(19) 0.75486(10) 0.3491(2)
H10_4 H 0.0941 0.7646 0.3733
C16_4 C 0.2054(2) 0.89267(10) 0.3085(2)
H11_4 H 0.1946 0.9280 0.3216
C17_4 C 0.1636(2) 0.85165(10) 0.3346(2)
H12_4 H 0.1254 0.8597 0.3643
C18_4 C 0.17810(18) 0.79875(10) 0.3171(2)
C19_4 C 0.2349(2) 0.78988(10) 0.2702(3)
H13_4 H 0.2456 0.7550 0.2547
C20_4 C 0.2750(2) 0.83299(10) 0.2470(2)
H14_4 H 0.3138 0.8262 0.2174
H19_4 H 0.0178 0.3735 0.5138
O15_4 O 0.15123(12) 0.47012(6) 0.58091(13)
H5_4 H 0.9822 0.6265 0.4862
N5_4 N 0.95984(14) 0.42953(7) 0.55932(16)
C29_4 C 0.97972(18) 0.37888(9) 0.54483(19)
C30_4 C 0.94626(19) 0.33419(9) 0.5739(2)
H20_4 H 0.9622 0.2997 0.5628
C31_4 C 0.88821(18) 0.34131(9) 0.6200(2)
C32_4 C 0.86784(19) 0.39400(10) 0.6342(2)
H21_4 H 0.8294 0.4007 0.6643
C33_4 C 0.90453(19) 0.43637(9) 0.6038(2)
H22_4 H 0.8903 0.4713 0.6146
C34_4 C 0.84849(19) 0.29701(10) 0.6539(2)
H23_4 H 0.8082 0.3065 0.6799
C35_4 C 0.86448(19) 0.24514(10) 0.6509(2)
H24_4 H 0.9059 0.2354 0.6267
C36_4 C 0.7946(2) 0.10733(10) 0.6915(2)
H25_4 H 0.8054 0.0720 0.6784
C37_4 C 0.8364(2) 0.14835(10) 0.6654(2)
H26_4 H 0.8746 0.1403 0.6357
C38_4 C 0.82190(18) 0.20125(10) 0.6829(2)
C39_4 C 0.7651(2) 0.21012(10) 0.7298(3)
H27_4 H 0.7544 0.2450 0.7453
C40_4 C 0.7250(2) 0.16701(10) 0.7530(2)
H28_4 H 0.6862 0.1738 0.7826
O18_4 O 0.95881(12) 0.46139(6) 0.34512(13)
O1_3 O 0.25793(13) 0.93779(7) 0.05421(14)
O2_3 O 0.37581(14) 0.87895(8) 0.09242(16)
H1_3 H 0.5025 0.9384 0.1552
C7_3 C 0.29535(18) 0.90154(9) 0.02403(19)
O8_3 O 0.74207(13) 0.93779(7) 0.44579(14)
O9_3 O 0.62419(14) 0.87895(8) 0.40758(16)
H15_3 H 0.4975 0.9384 0.3448
N4_3 N 0.96730(19) 0.82155(11) 0.9549(2)
C21_3 C 0.77125(17) 0.88229(9) 0.60448(19)
C22_3 C 0.78330(17) 0.91014(9) 0.70186(19)
C23_3 C 0.84886(18) 0.89051(10) 0.8174(2)
H16_3 H 0.8584 0.9089 0.8830
C24_3 C 0.89959(18) 0.84310(10) 0.8328(2)
C25_3 C 0.8885(2) 0.81428(10) 0.7387(2)
H17_3 H 0.9232 0.7823 0.7517
C26_3 C 0.8241(2) 0.83454(10) 0.6244(2)
H18_3 H 0.8157 0.8160 0.5596
C27_3 C 0.70465(18) 0.90154(9) 0.47597(19)
C28_3 C 0.72341(17) 0.96013(8) 0.68355(19)
O5_3 O 0.0300(2) 0.84372(15) 0.4639(2)
N1_3 N 0.03270(19) 0.82155(11) 0.5451(2)
C1_3 C 0.22875(17) 0.88229(9) 0.89552(19)
C2_3 C 0.21670(17) 0.91014(9) 0.79814(19)
C3_3 C 0.15114(18) 0.89051(10) 0.6826(2)
H2_3 H 0.1416 0.9089 0.6170
C4_3 C 0.10041(18) 0.84310(10) 0.6672(2)
C5_3 C 0.1115(2) 0.81428(10) 0.7613(2)
H3_3 H 0.0768 0.7823 0.7483
C6_3 C 0.1759(2) 0.83454(10) 0.8756(2)
H4_3 H 0.1843 0.8160 0.9404
C8_3 C 0.27659(17) 0.96013(8) 0.81645(19)
H1_4 H 0.0025 0.4384 0.1552
O8_4 O 0.24207(13) 0.43779(7) 0.44579(14)
O9_4 O 0.12419(14) 0.37895(8) 0.40758(16)
O13_2 O 0.5160(2) 0.28199(11) 0.9691(2)
N4_4 N 0.46730(19) 0.32155(11) 0.9549(2)
C21_4 C 0.27125(17) 0.38229(9) 0.60448(19)
C22_4 C 0.28330(17) 0.41014(9) 0.70186(19)
C23_4 C 0.34886(18) 0.39051(10) 0.8174(2)
H16_4 H 0.3584 0.4089 0.8830
C24_4 C 0.39959(18) 0.34310(10) 0.8328(2)
C25_4 C 0.3885(2) 0.31428(10) 0.7387(2)
H17_4 H 0.4232 0.2823 0.7517
C26_4 C 0.3241(2) 0.33454(10) 0.6244(2)
H18_4 H 0.3157 0.3160 0.5596
C27_4 C 0.20465(18) 0.40154(9) 0.47597(19)
C28_4 C 0.22341(17) 0.46013(8) 0.68355(19)
O1_4 O 0.75793(13) 0.43779(7) 0.05421(14)
O2_4 O 0.87581(14) 0.37895(8) 0.09242(16)
C7_4 C 0.79535(18) 0.40154(9) 0.02403(19)
H15_4 H 0.9975 0.4384 0.3448
O5_4 O 0.5300(2) 0.34372(15) 0.4639(2)
O6_3 O 0.4840(2) 0.28199(11) 0.5309(2)
N1_4 N 0.53270(19) 0.32155(11) 0.5451(2)
C1_4 C 0.72875(17) 0.38229(9) 0.89552(19)
C2_4 C 0.71670(17) 0.41014(9) 0.79814(19)
C3_4 C 0.65114(18) 0.39051(10) 0.6826(2)
H2_4 H 0.6416 0.4089 0.6170
C4_4 C 0.60041(18) 0.34310(10) 0.6672(2)
C5_4 C 0.6115(2) 0.31428(10) 0.7613(2)
H3_4 H 0.5768 0.2823 0.7483
C6_4 C 0.6759(2) 0.33454(10) 0.8756(2)
H4_4 H 0.6843 0.3160 0.9404
C8_4 C 0.77659(17) 0.46013(8) 0.81645(19)
O12 O 0.0300(2) 0.15628(15) 0.9639(2)
O13_3 O 0.9840(2) 0.21801(11) 0.0309(2)
O12_2 O 0.5300(2) 0.65628(15) 0.9639(2)
O13_4 O 0.0160(2) 0.78199(11) 0.9691(2)
O12_3 O 0.9700(2) 0.84372(15) 0.0361(2)
O6_4 O 0.9840(2) 0.78199(11) 0.5309(2)
O12_4 O 0.4700(2) 0.34372(15) 0.0361(2)
loop_
_geom_bond_atom_site_label_1
_geom_bond_atom_site_label_2
_geom_bond_site_symmetry_1
_geom_bond_site_symmetry_2
Zn1 O3 1_555 1_555
O3 C8 1_555 1_555
O4 C8 1_555 1_555
O5 N1 1_555 1_555
N1 C4 1_555 1_555
N2 Zn1 1_555 1_555
N3 C16 1_555 1_555
C1 C2 1_555 1_555
C2 C3 1_555 1_555
C3 H2 1_555 1_555
C4 C3 1_555 1_555
C5 C4 1_555 1_555
H3 C5 1_555 1_555
C6 C1 1_555 1_555
H4 C6 1_555 1_555
C8 C2 1_555 1_555
C9 N2 1_555 1_555
H5 C9 1_555 1_555
C10 C9 1_555 1_555
H6 C10 1_555 1_555
C11 C10 1_555 1_555
C12 C11 1_555 1_555
H7 C12 1_555 1_555
C13 N2 1_555 1_555
H8 C13 1_555 1_555
C14 C11 1_555 1_555
H9 C14 1_555 1_555
C15 C14 1_555 1_555
H10 C15 1_555 1_555
C16 H11 1_555 1_555
C17 C16 1_555 1_555
H12 C17 1_555 1_555
C18 C15 1_555 1_555
C19 C18 1_555 1_555
H13 C19 1_555 1_555
C20 N3 1_555 1_555
H14 C20 1_555 1_555
Zn8 N3 1_555 1_555
C5 C6 1_555 1_555
C12 C13 1_555 1_555
C17 C18 1_555 1_555
C19 C20 1_555 1_555
Zn2 O7 1_555 1_555
O1 C7 1_555 1_555
O2 C7 1_555 1_555
O7 Zn1_2 1_555 1_555
H1 O7 1_555 1_555
Zn3 O1 1_555 1_555
O8 Zn2 1_555 1_555
O9 C27 1_555 1_555
O10 C28 1_555 1_555
O11 C28 1_555 1_555
O14 Zn3 1_555 1_555
H15 O14 1_555 1_555
N4 C24 1_555 1_555
C21 C22 1_555 1_555
C22 C23 1_555 1_555
C23 H16 1_555 1_555
C24 C23 1_555 1_555
C25 C24 1_555 1_555
H17 C25 1_555 1_555
C26 C21 1_555 1_555
H18 C26 1_555 1_555
C27 O8 1_555 1_555
C28 C22 1_555 1_555
Zn4 O10 1_555 1_555
N7 Zn2 1_555 1_555
N8 Zn3 1_555 1_555
O14 Zn4 1_555 1_555
C21 C27 1_555 1_555
C25 C26 1_555 1_555
O18 Zn1_3 1_555 1_555
Zn6 O18 1_555 1_555
N5 Zn1_4 1_555 1_555
N6 C36 1_555 1_555
C29 N5 1_555 1_555
H19 C29 1_555 1_555
C30 C29 1_555 1_555
H20 C30 1_555 1_555
C31 C30 1_555 1_555
C32 C31 1_555 1_555
H21 C32 1_555 1_555
C33 N5 1_555 1_555
H22 C33 1_555 1_555
C34 C31 1_555 1_555
H23 C34 1_555 1_555
C35 C34 1_555 1_555
H24 C35 1_555 1_555
C36 H25 1_555 1_555
C37 C36 1_555 1_555
H26 C37 1_555 1_555
C38 C35 1_555 1_555
C39 C38 1_555 1_555
H27 C39 1_555 1_555
C40 N6 1_555 1_555
H28 C40 1_555 1_555
Zn5 N6 1_555 1_555
O15 Zn1_4 1_555 1_555
C32 C33 1_555 1_555
C37 C38 1_555 1_555
C39 C40 1_555 1_555
N2_2 Zn4 1_555 1_555
N3_2 C16_2 1_555 1_555
C9_2 N2_2 1_555 1_555
H5_2 C9_2 1_555 1_555
C10_2 C9_2 1_555 1_555
H6_2 C10_2 1_555 1_555
C11_2 C10_2 1_555 1_555
C12_2 C11_2 1_555 1_555
H7_2 C12_2 1_555 1_555
C13_2 N2_2 1_555 1_555
H8_2 C13_2 1_555 1_555
C14_2 C11_2 1_555 1_555
H9_2 C14_2 1_555 1_555
C15_2 C14_2 1_555 1_555
H10_2 C15_2 1_555 1_555
C16_2 H11_2 1_555 1_555
C17_2 C16_2 1_555 1_555
H12_2 C17_2 1_555 1_555
C18_2 C15_2 1_555 1_555
C19_2 C18_2 1_555 1_555
H13_2 C19_2 1_555 1_555
C20_2 N3_2 1_555 1_555
H14_2 C20_2 1_555 1_555
Zn8_2 N3_2 1_555 1_555
C12_2 C13_2 1_555 1_555
C17_2 C18_2 1_555 1_555
C19_2 C20_2 1_555 1_555
N5_2 Zn4_2 1_555 1_555
N6_2 C36_2 1_555 1_555
C29_2 N5_2 1_555 1_555
H19_2 C29_2 1_555 1_555
C30_2 C29_2 1_555 1_555
H20_2 C30_2 1_555 1_555
C31_2 C30_2 1_555 1_555
C32_2 C31_2 1_555 1_555
H21_2 C32_2 1_555 1_555
C33_2 N5_2 1_555 1_555
H22_2 C33_2 1_555 1_555
C34_2 C31_2 1_555 1_555
H23_2 C34_2 1_555 1_555
C35_2 C34_2 1_555 1_555
H24_2 C35_2 1_555 1_555
C36_2 H25_2 1_555 1_555
C37_2 C36_2 1_555 1_555
H26_2 C37_2 1_555 1_555
C38_2 C35_2 1_555 1_555
C39_2 C38_2 1_555 1_555
H27_2 C39_2 1_555 1_555
C40_2 N6_2 1_555 1_555
H28_2 C40_2 1_555 1_555
Zn5_2 N6_2 1_555 1_555
O15_2 Zn4_2 1_555 1_555
O18_2 Zn4_2 1_555 1_555
C32_2 C33_2 1_555 1_555
C37_2 C38_2 1_555 1_555
C39_2 C40_2 1_555 1_555
Zn7 O18_2 1_555 1_555
Zn1_5 O3_2 1_555 1_555
O3_2 C8_2 1_555 1_555
O4_2 C8_2 1_555 1_555
O5_2 N1_2 1_555 1_555
O6_2 N1_2 1_555 1_555
N1_2 C4_2 1_555 1_555
C1_2 C2_2 1_555 1_555
C2_2 C3_2 1_555 1_555
C3_2 H2_2 1_555 1_555
C4_2 C3_2 1_555 1_555
C5_2 C4_2 1_555 1_555
H3_2 C5_2 1_555 1_555
C6_2 C1_2 1_555 1_555
H4_2 C6_2 1_555 1_555
C8_2 C2_2 1_555 1_555
Zn8 O4_2 1_555 1_555
O18_3 Zn1_5 1_555 1_555
C5_2 C6_2 1_555 1_555
Zn8 O18_3 1_555 1_555
O1_2 C7_2 1_555 1_555
O2_2 C7_2 1_555 1_555
Zn5_2 O1_2 1_555 1_555
O14_2 Zn5_2 1_555 1_555
H15_2 O14_2 1_555 1_555
N5_3 Zn1_6 1_555 1_555
N7 C36_3 1_555 1_555
C29_3 N5_3 1_555 1_555
C30_3 C29_3 1_555 1_555
H20_3 C30_3 1_555 1_555
C31_3 C30_3 1_555 1_555
C32_3 C31_3 1_555 1_555
H21_3 C32_3 1_555 1_555
C33_3 N5_3 1_555 1_555
H22_3 C33_3 1_555 1_555
C34_3 C31_3 1_555 1_555
H23_3 C34_3 1_555 1_555
C35_3 C34_3 1_555 1_555
H24_3 C35_3 1_555 1_555
C36_3 H25_3 1_555 1_555
C37_3 C36_3 1_555 1_555
H26_3 C37_3 1_555 1_555
C38_3 C35_3 1_555 1_555
C39_3 C38_3 1_555 1_555
H27_3 C39_3 1_555 1_555
C40_3 N7 1_555 1_555
H28_3 C40_3 1_555 1_555
O17_2 Zn5_2 1_555 1_555
O14_2 Zn4_3 1_555 1_555
C32_3 C33_3 1_555 1_555
C37_3 C38_3 1_555 1_555
C39_3 C40_3 1_555 1_555
N2_3 Zn1_7 1_555 1_555
N3_3 C16_3 1_555 1_555
C9_3 N2_3 1_555 1_555
C10_3 C9_3 1_555 1_555
H6_3 C10_3 1_555 1_555
C11_3 C10_3 1_555 1_555
C12_3 C11_3 1_555 1_555
H7_3 C12_3 1_555 1_555
C13_3 N2_3 1_555 1_555
H8_3 C13_3 1_555 1_555
C14_3 C11_3 1_555 1_555
H9_3 C14_3 1_555 1_555
C15_3 C14_3 1_555 1_555
H10_3 C15_3 1_555 1_555
C16_3 H11_3 1_555 1_555
C17_3 C16_3 1_555 1_555
H12_3 C17_3 1_555 1_555
C18_3 C15_3 1_555 1_555
C19_3 C18_3 1_555 1_555
H13_3 C19_3 1_555 1_555
C20_3 N3_3 1_555 1_555
H14_3 C20_3 1_555 1_555
Zn6 N3_3 1_555 1_555
C12_3 C13_3 1_555 1_555
C17_3 C18_3 1_555 1_555
C19_3 C20_3 1_555 1_555
Zn5 O7_2 1_555 1_555
O7_2 Zn1_8 1_555 1_555
H1_2 O7_2 1_555 1_555
O8_2 Zn5 1_555 1_555
O9_2 C27_2 1_555 1_555
O10_2 C28_2 1_555 1_555
O11_2 C28_2 1_555 1_555
O13 N4_2 1_555 1_555
N4_2 C24_2 1_555 1_555
C21_2 C22_2 1_555 1_555
C22_2 C23_2 1_555 1_555
C23_2 H16_2 1_555 1_555
C24_2 C23_2 1_555 1_555
C25_2 C24_2 1_555 1_555
H17_2 C25_2 1_555 1_555
C26_2 C21_2 1_555 1_555
H18_2 C26_2 1_555 1_555
C27_2 O8_2 1_555 1_555
C28_2 C22_2 1_555 1_555
Zn4_4 O10_2 1_555 1_555
Zn8_2 O11_2 1_555 1_555
O15_3 Zn1_8 1_555 1_555
O16_2 Zn5 1_555 1_555
C21_2 C27_2 1_555 1_555
C25_2 C26_2 1_555 1_555
N2_4 Zn4_3 1_555 1_555
N3_4 C16_4 1_555 1_555
C9_4 N2_4 1_555 1_555
C10_4 C9_4 1_555 1_555
H6_4 C10_4 1_555 1_555
C11_4 C10_4 1_555 1_555
C12_4 C11_4 1_555 1_555
H7_4 C12_4 1_555 1_555
C13_4 N2_4 1_555 1_555
H8_4 C13_4 1_555 1_555
C14_4 C11_4 1_555 1_555
H9_4 C14_4 1_555 1_555
C15_4 C14_4 1_555 1_555
H10_4 C15_4 1_555 1_555
C16_4 H11_4 1_555 1_555
C17_4 C16_4 1_555 1_555
H12_4 C17_4 1_555 1_555
C18_4 C15_4 1_555 1_555
C19_4 C18_4 1_555 1_555
H13_4 C19_4 1_555 1_555
C20_4 N3_4 1_555 1_555
H14_4 C20_4 1_555 1_555
Zn7 N3_4 1_555 1_555
O15_4 Zn4_3 1_555 1_555
C12_4 C13_4 1_555 1_555
C17_4 C18_4 1_555 1_555
C19_4 C20_4 1_555 1_555
N5_4 Zn4_4 1_555 1_555
N8 C36_4 1_555 1_555
C29_4 N5_4 1_555 1_555
C30_4 C29_4 1_555 1_555
H20_4 C30_4 1_555 1_555
C31_4 C30_4 1_555 1_555
C32_4 C31_4 1_555 1_555
H21_4 C32_4 1_555 1_555
C33_4 N5_4 1_555 1_555
H22_4 C33_4 1_555 1_555
C34_4 C31_4 1_555 1_555
H23_4 C34_4 1_555 1_555
C35_4 C34_4 1_555 1_555
H24_4 C35_4 1_555 1_555
C36_4 H25_4 1_555 1_555
C37_4 C36_4 1_555 1_555
H26_4 C37_4 1_555 1_555
C38_4 C35_4 1_555 1_555
C39_4 C38_4 1_555 1_555
H27_4 C39_4 1_555 1_555
C40_4 N8 1_555 1_555
H28_4 C40_4 1_555 1_555
O18_4 Zn4_4 1_555 1_555
C32_4 C33_4 1_555 1_555
C37_4 C38_4 1_555 1_555
C39_4 C40_4 1_555 1_555
Zn8_2 O18_4 1_555 1_555
O1_3 C7_3 1_555 1_555
O2_3 C7_3 1_555 1_555
H1_3 O18 1_555 1_555
Zn7 O1_3 1_555 1_555
O8_3 Zn6 1_555 1_555
O9_3 C27_3 1_555 1_555
O15_2 C28_3 1_555 1_555
O17 C28_3 1_555 1_555
H15_3 O18_2 1_555 1_555
N4_3 C24_3 1_555 1_555
C21_3 C22_3 1_555 1_555
C22_3 C23_3 1_555 1_555
C23_3 H16_3 1_555 1_555
C24_3 C23_3 1_555 1_555
C25_3 C24_3 1_555 1_555
H17_3 C25_3 1_555 1_555
C26_3 C21_3 1_555 1_555
H18_3 C26_3 1_555 1_555
C27_3 O8_3 1_555 1_555
C28_3 C22_3 1_555 1_555
C21_3 C27_3 1_555 1_555
C25_3 C26_3 1_555 1_555
O15 C8_3 1_555 1_555
O16 C8_3 1_555 1_555
O5_3 N1_3 1_555 1_555
N1_3 C4_3 1_555 1_555
C1_3 C2_3 1_555 1_555
C2_3 C3_3 1_555 1_555
C3_3 H2_3 1_555 1_555
C4_3 C3_3 1_555 1_555
C5_3 C4_3 1_555 1_555
H3_3 C5_3 1_555 1_555
C6_3 C1_3 1_555 1_555
H4_3 C6_3 1_555 1_555
C8_3 C2_3 1_555 1_555
C5_3 C6_3 1_555 1_555
H1_4 O18_3 1_555 1_555
O8_4 Zn8 1_555 1_555
O9_4 C27_4 1_555 1_555
O15_4 C28_4 1_555 1_555
O17_2 C28_4 1_555 1_555
O13_2 N4_4 1_555 1_555
N4_4 C24_4 1_555 1_555
C21_4 C22_4 1_555 1_555
C22_4 C23_4 1_555 1_555
C23_4 H16_4 1_555 1_555
C24_4 C23_4 1_555 1_555
C25_4 C24_4 1_555 1_555
H17_4 C25_4 1_555 1_555
C26_4 C21_4 1_555 1_555
H18_4 C26_4 1_555 1_555
C27_4 O8_4 1_555 1_555
C28_4 C22_4 1_555 1_555
C21_4 C27_4 1_555 1_555
C25_4 C26_4 1_555 1_555
O1_4 C7_4 1_555 1_555
O2_4 C7_4 1_555 1_555
Zn8_2 O1_4 1_555 1_555
H15_4 O18_4 1_555 1_555
O15_3 C8_4 1_555 1_555
O16_2 C8_4 1_555 1_555
O5_4 N1_4 1_555 1_555
O6_3 N1_4 1_555 1_555
N1_4 C4_4 1_555 1_555
C1_4 C2_4 1_555 1_555
C2_4 C3_4 1_555 1_555
C3_4 H2_4 1_555 1_555
C4_4 C3_4 1_555 1_555
C5_4 C4_4 1_555 1_555
H3_4 C5_4 1_555 1_555
C6_4 C1_4 1_555 1_555
H4_4 C6_4 1_555 1_555
C8_4 C2_4 1_555 1_555
C5_4 C6_4 1_555 1_555

#END
