
###############################################################################
#
# This file contains modified crystal structure data generated from the
# MOF subset of the Cambridge Structural Database (CSD) v543 
# hosted by the Cambridge Crystallographic Data Centre (CCDC).
#
# This work is licensed under the Creative Commons
# Attribution-NonCommercial-ShareAlike 4.0 International License.
# To view a copy of this license, visit
# http://creativecommons.org/licenses/by-nc-sa/4.0/
# or send a letter to
# Creative Commons, PO Box 1866, Mountain View, CA 94042, USA.
#
# CIF created using the CSD Python API on 29 September 2022
# The structure has been converted into the P1 space group
# The structure has a 3D framework
# The original CSD entry GIRYAK is in the monoclinic crystal system
# The framework has been calculated to contain at least 10.0% void space
# The void calculation uses a probe of radius 1.32A, grid spacing 0.4
# H atom positions have been added when not included in the experimental data
#
###############################################################################

data_GIRYAK
_chemical_formula_moiety         '(C128 H128 Co8 N24 O46 S8)n'
_symmetry_cell_setting           triclinic
_symmetry_space_group_name_H-M   'P 1'
_symmetry_Int_Tables_number      1
_space_group_name_Hall           'P 1'
loop_
_symmetry_equiv_pos_site_id
_symmetry_equiv_pos_as_xyz
1 x,y,z
_cell_length_a                   16.845(5)
_cell_length_b                   14.915(5)
_cell_length_c                   18.137(5)
_cell_angle_alpha                90
_cell_angle_beta                 112.243(5)
_cell_angle_gamma                90
_cell_volume                     4217.71
loop_
_atom_site_label
_atom_site_type_symbol
_atom_site_fract_x
_atom_site_fract_y
_atom_site_fract_z
C25 C 0.4775(8) 0.2828(7) 0.0410(7)
H26 H 0.4402 0.2993 0.0678
H27 H 0.5156 0.2360 0.0703
H28 H 0.5104 0.3341 0.0376
N3 N 0.8005(3) 0.0552(4) 0.0341(4)
C9 C 0.9467(4) 0.0294(5) 0.0381(4)
C12 C 0.8925(4) 0.0613(6) 0.0822(5)
H12 H 0.9054 0.0255 0.1300
H13 H 0.9069 0.1231 0.0983
Co1 Co 0.41398(5) 0.15525(6) 0.65532(5)
O1 O 0.5040(3) 0.0544(3) 0.6607(3)
N1 N 0.5737(5) 0.2509(5) 0.5392(5)
C1 C 0.6658(7) 0.2510(9) 0.5642(9)
H1 H 0.6812 0.2723 0.5215
H2 H 0.6903 0.2896 0.6096
H3 H 0.6872 0.1912 0.5783
O2 O 0.4597(3) 0.2245(4) 0.5728(3)
N2 N 0.3228(3) 0.0878(4) 0.5617(4)
C2 C 0.5225(8) 0.2828(7) 0.4590(7)
H4 H 0.5598 0.2993 0.4322
H5 H 0.4844 0.2360 0.4297
H6 H 0.4896 0.3341 0.4624
O3 O 0.6242(3) 0.0898(3) 0.7637(3)
O4 O 0.5000 0.2340(4) 0.7500
C3 C 0.3275(5) 0.0030(5) 0.5323(5)
N3_2 N 0.1995(3) 0.0552(4) 0.4659(4)
C5 C 0.5387(5) 0.2245(5) 0.5877(5)
C7 C 0.5814(4) 0.0451(5) 0.7043(5)
C9_2 C 0.0533(4) 0.0294(5) 0.4619(4)
C10 C 0.0869(4) 0.0023(5) 0.5395(5)
H10 H 0.1461 0.0024 0.5669
C12_2 C 0.1075(4) 0.0613(6) 0.4178(5)
H12_2 H 0.0946 0.0255 0.3700
H13_2 H 0.0931 0.1231 0.4017
C13 C 0.2447(4) 0.1158(5) 0.5195(4)
H14 H 0.2235 0.1715 0.5261
Co2 Co 0.58602(5) 0.15525(6) 0.84468(5)
O7 O 0.4960(3) 0.0544(3) 0.8393(3)
N6 N 0.4263(5) 0.2509(5) 0.9608(5)
C24 C 0.3342(7) 0.2510(9) 0.9358(9)
H23 H 0.3188 0.2723 0.9785
H24 H 0.3097 0.2896 0.8904
H25 H 0.3128 0.1912 0.9217
O8 O 0.5403(3) 0.2245(4) 0.9272(3)
O9 O 0.3758(3) 0.0898(3) 0.7363(3)
C26 C 0.4613(5) 0.2245(5) 0.9123(5)
C27 C 0.4186(4) 0.0451(5) 0.7957(5)
N7 N 0.6772(3) 0.0878(4) 0.9383(4)
O12 O 0.3194(3) 0.2552(3) 0.6429(3)
O13 O 0.6806(3) 0.2552(3) 0.8571(3)
H31 H 0.581083 0.200391 0.646013
H32 H 0.418917 0.200391 0.853987
S1 S 0.73196(11) 0.94621(13) 0.74072(11)
H7 H 0.3756 0.9661 0.5502
O5 O 0.8781(3) 0.8280(4) 0.7586(3)
C4 C 0.0338(4) 0.9743(5) 0.5785(5)
H8 H 0.0577 0.9581 0.6319
O6 O 0.8194(3) 0.7552(3) 0.6429(3)
C6 C 0.2516(5) 0.9818(5) 0.4737(5)
H9 H 0.2376 0.9287 0.4448
C8 C 0.8175(4) 0.8108(5) 0.6939(4)
C11 C 0.5997(4) 0.9198(5) 0.6134(4)
H11 H 0.5454 0.9250 0.5735
C14 C 0.6621(4) 0.8581(5) 0.6108(4)
H15 H 0.6535 0.8183 0.5690
C15 C 0.7366(4) 0.8631(4) 0.6765(4)
C16 C 0.6278(4) 0.9717(5) 0.6813(4)
S2 S 0.26804(11) 0.94621(13) 0.75928(11)
O10 O 0.1219(3) 0.8280(4) 0.7414(3)
O11 O 0.1806(3) 0.7552(3) 0.8571(3)
C28 C 0.1825(4) 0.8108(5) 0.8061(4)
C29 C 0.4003(4) 0.9198(5) 0.8866(4)
H29 H 0.4546 0.9250 0.9265
C30 C 0.3379(4) 0.8581(5) 0.8892(4)
H30 H 0.3465 0.8183 0.9310
C31 C 0.2634(4) 0.8631(4) 0.8235(4)
C32 C 0.3722(4) 0.9717(5) 0.8187(4)
Co3 Co 0.91398(5) 0.65525(6) 0.65532(5)
Co4 Co 0.08602(5) 0.65525(6) 0.84468(5)
H16 H 0.6244 0.0339 0.4498
C18 C 0.9662(4) 0.0257(5) 0.4215(5)
H17 H 0.9423 0.0419 0.3681
C19 C 0.7484(5) 0.0182(5) 0.5263(5)
H18 H 0.7624 0.0713 0.5552
N4 N 0.6772(3) 0.9122(4) 0.4383(4)
C17 C 0.6725(5) 0.9970(5) 0.4677(5)
N5 N 0.8005(3) 0.9448(4) 0.5341(4)
C20 C 0.9467(4) 0.9706(5) 0.5381(4)
C21 C 0.9131(4) 0.9977(5) 0.4605(5)
H19 H 0.8539 0.9976 0.4331
C22 C 0.8925(4) 0.9387(6) 0.5822(5)
H20 H 0.9054 0.9745 0.6300
H21 H 0.9069 0.8769 0.5983
C23 C 0.7553(4) 0.8842(5) 0.4805(4)
H22 H 0.7765 0.8285 0.4739
Co5 Co 0.58602(5) 0.84475(6) 0.34468(5)
H16_2 H 0.3756 0.0339 0.0502
C18_2 C 0.0338(4) 0.0257(5) 0.0785(5)
H17_2 H 0.0577 0.0419 0.1319
N4_2 N 0.3228(3) 0.9122(4) 0.0617(4)
C17_2 C 0.3275(5) 0.9970(5) 0.0323(5)
C21_2 C 0.0869(4) 0.9977(5) 0.0395(5)
H19_2 H 0.1461 0.9976 0.0669
C23_2 C 0.2447(4) 0.8842(5) 0.0195(4)
H22_2 H 0.2235 0.8285 0.0261
Co5_2 Co 0.41398(5) 0.84475(6) 0.15532(5)
C3_2 C 0.6725(5) 0.0030(5) 0.9677(5)
C10_2 C 0.9131(4) 0.0023(5) 0.9605(5)
H10_2 H 0.8539 0.0024 0.9331
C13_2 C 0.7553(4) 0.1158(5) 0.9805(4)
H14_2 H 0.7765 0.1715 0.9739
H7_2 H 0.6244 0.9661 0.9498
C4_2 C 0.9662(4) 0.9743(5) 0.9215(5)
H8_2 H 0.9423 0.9581 0.8681
H27_2 H 0.0156 0.7360 0.0703
H28_2 H 0.0104 0.8341 0.0376
S1_2 S 0.23196(11) 0.44621(13) 0.74072(11)
O1_2 O 0.0040(3) 0.5544(3) 0.6607(3)
N1_2 N 0.0737(5) 0.7509(5) 0.5392(5)
C1_2 C 0.1658(7) 0.7510(9) 0.5642(9)
H1_2 H 0.1812 0.7723 0.5215
H2_2 H 0.1903 0.7896 0.6096
H3_2 H 0.1872 0.6912 0.5783
C2_2 C 0.0225(8) 0.7828(7) 0.4590(7)
H4_2 H 0.0598 0.7993 0.4322
O3_2 O 0.1242(3) 0.5898(3) 0.7637(3)
O4_2 O 0.0000 0.7340(4) 0.7500
O5_2 O 0.3781(3) 0.3280(4) 0.7586(3)
C5_2 C 0.0387(5) 0.7245(5) 0.5877(5)
C7_2 C 0.0814(4) 0.5451(5) 0.7043(5)
C8_2 C 0.3175(4) 0.3108(5) 0.6939(4)
C11_2 C 0.0997(4) 0.4198(5) 0.6134(4)
H11_2 H 0.0454 0.4250 0.5735
C14_2 C 0.1621(4) 0.3581(5) 0.6108(4)
H15_2 H 0.1535 0.3183 0.5690
C15_2 C 0.2366(4) 0.3631(4) 0.6765(4)
C16_2 C 0.1278(4) 0.4717(5) 0.6813(4)
O8_2 O 0.0403(3) 0.7245(4) 0.9272(3)
N7_2 N 0.1772(3) 0.5878(4) 0.9383(4)
H31_2 H 0.0810825 0.700391 0.646013
O2_2 O 0.9597(3) 0.7245(4) 0.5728(3)
N2_2 N 0.8228(3) 0.5878(4) 0.5617(4)
H5_2 H 0.9844 0.7360 0.4297
H6_2 H 0.9896 0.8341 0.4624
O4_3 O 1.0000 0.7340(4) 0.7500
C3_3 C 0.8275(5) 0.5030(5) 0.5323(5)
H7_3 H 0.8756 0.4661 0.5502
N3_3 N 0.6995(3) 0.5552(4) 0.4659(4)
C4_3 C 0.5338(4) 0.4743(5) 0.5785(5)
H8_3 H 0.5577 0.4581 0.6319
C6_2 C 0.7516(5) 0.4818(5) 0.4737(5)
H9_2 H 0.7376 0.4287 0.4448
C9_3 C 0.5533(4) 0.5294(5) 0.4619(4)
C10_3 C 0.5869(4) 0.5023(5) 0.5395(5)
H10_3 H 0.6461 0.5024 0.5669
C12_3 C 0.6075(4) 0.5613(6) 0.4178(5)
H12_3 H 0.5946 0.5255 0.3700
H13_3 H 0.5931 0.6231 0.4017
C13_3 C 0.7447(4) 0.6158(5) 0.5195(4)
H14_3 H 0.7235 0.6715 0.5261
N4_3 N 0.1772(3) 0.4122(4) 0.4383(4)
C17_3 C 0.1725(5) 0.4970(5) 0.4677(5)
H16_3 H 0.1244 0.5339 0.4498
N5_2 N 0.3005(3) 0.4448(4) 0.5341(4)
C18_3 C 0.4662(4) 0.5257(5) 0.4215(5)
H17_3 H 0.4423 0.5419 0.3681
C19_2 C 0.2484(5) 0.5182(5) 0.5263(5)
H18_2 H 0.2624 0.5713 0.5552
C20_2 C 0.4467(4) 0.4706(5) 0.5381(4)
C21_3 C 0.4131(4) 0.4977(5) 0.4605(5)
H19_3 H 0.3539 0.4976 0.4331
C22_2 C 0.3925(4) 0.4387(6) 0.5822(5)
H20_2 H 0.4054 0.4745 0.6300
H21_2 H 0.4069 0.3769 0.5983
C23_3 C 0.2553(4) 0.3842(5) 0.4805(4)
H22_3 H 0.2765 0.3285 0.4739
S2_2 S 0.76804(11) 0.44621(13) 0.75928(11)
O7_2 O 0.9960(3) 0.5544(3) 0.8393(3)
N6_2 N 0.9263(5) 0.7509(5) 0.9608(5)
C24_2 C 0.8342(7) 0.7510(9) 0.9358(9)
H23_2 H 0.8188 0.7723 0.9785
H24_2 H 0.8097 0.7896 0.8904
H25_2 H 0.8128 0.6912 0.9217
O9_2 O 0.8758(3) 0.5898(3) 0.7363(3)
O10_2 O 0.6219(3) 0.3280(4) 0.7414(3)
C26_2 C 0.9613(5) 0.7245(5) 0.9123(5)
C27_2 C 0.9186(4) 0.5451(5) 0.7957(5)
C28_2 C 0.6825(4) 0.3108(5) 0.8061(4)
C29_2 C 0.9003(4) 0.4198(5) 0.8866(4)
H29_2 H 0.9546 0.4250 0.9265
C30_2 C 0.8379(4) 0.3581(5) 0.8892(4)
H30_2 H 0.8465 0.3183 0.9310
C31_2 C 0.7634(4) 0.3631(4) 0.8235(4)
C32_2 C 0.8722(4) 0.4717(5) 0.8187(4)
Co5_3 Co 0.08602(5) 0.34475(6) 0.34468(5)
H32_2 H 0.918917 0.700391 0.853987
N3_4 N 0.3005(3) 0.5552(4) 0.0341(4)
C6_3 C 0.2484(5) 0.4818(5) 0.0263(5)
H9_3 H 0.2624 0.4287 0.0552
C9_4 C 0.4467(4) 0.5294(5) 0.0381(4)
C12_4 C 0.3925(4) 0.5613(6) 0.0822(5)
H12_4 H 0.4054 0.5255 0.1300
H13_4 H 0.4069 0.6231 0.0983
N4_4 N 0.8228(3) 0.4122(4) 0.0617(4)
C17_4 C 0.8275(5) 0.4970(5) 0.0323(5)
H16_4 H 0.8756 0.5339 0.0502
C18_4 C 0.5338(4) 0.5257(5) 0.0785(5)
H17_4 H 0.5577 0.5419 0.1319
C21_4 C 0.5869(4) 0.4977(5) 0.0395(5)
H19_4 H 0.6461 0.4976 0.0669
C23_4 C 0.7447(4) 0.3842(5) 0.0195(4)
H22_4 H 0.7235 0.3285 0.0261
Co5_4 Co 0.91398(5) 0.34475(6) 0.15532(5)
C3_4 C 0.1725(5) 0.5030(5) 0.9677(5)
H7_4 H 0.1244 0.4661 0.9498
C4_4 C 0.4662(4) 0.4743(5) 0.9215(5)
H8_4 H 0.4423 0.4581 0.8681
C10_4 C 0.4131(4) 0.5023(5) 0.9605(5)
H10_4 H 0.3539 0.5024 0.9331
C13_4 C 0.2553(4) 0.6158(5) 0.9805(4)
H14_4 H 0.2765 0.6715 0.9739
N5_3 N 0.6995(3) 0.4448(4) 0.9659(4)
C19_3 C 0.7516(5) 0.5182(5) 0.9737(5)
H18_3 H 0.7376 0.5713 0.9448
C20_3 C 0.5533(4) 0.4706(5) 0.9619(4)
C22_3 C 0.6075(4) 0.4387(6) 0.9178(5)
H20_3 H 0.5946 0.4745 0.8700
H21_3 H 0.5931 0.3769 0.9017
S1_3 S 0.26804(11) 0.05379(13) 0.25928(11)
O5_3 O 0.1219(3) 0.1720(4) 0.2414(3)
O6_2 O 0.1806(3) 0.2448(3) 0.3571(3)
C8_3 C 0.1825(4) 0.1892(5) 0.3061(4)
C11_3 C 0.4003(4) 0.0802(5) 0.3866(4)
H11_3 H 0.4546 0.0750 0.4265
C14_3 C 0.3379(4) 0.1419(5) 0.3892(4)
H15_3 H 0.3465 0.1817 0.4310
C15_3 C 0.2634(4) 0.1369(4) 0.3235(4)
C16_3 C 0.3722(4) 0.0283(5) 0.3187(4)
S2_3 S 0.73196(11) 0.05379(13) 0.24072(11)
O10_3 O 0.8781(3) 0.1720(4) 0.2586(3)
O11_2 O 0.8194(3) 0.2448(3) 0.1429(3)
C28_3 C 0.8175(4) 0.1892(5) 0.1939(4)
C29_3 C 0.5997(4) 0.0802(5) 0.1134(4)
H29_3 H 0.5454 0.0750 0.0735
C30_3 C 0.6621(4) 0.1419(5) 0.1108(4)
H30_3 H 0.6535 0.1817 0.0690
C31_3 C 0.7366(4) 0.1369(4) 0.1765(4)
C32_3 C 0.6278(4) 0.0283(5) 0.1813(4)
O1_3 O 0.4960(3) 0.9456(3) 0.3393(3)
N1_3 N 0.4263(5) 0.7491(5) 0.4608(5)
C1_3 C 0.3342(7) 0.7490(9) 0.4358(9)
H1_3 H 0.3188 0.7277 0.4785
H2_3 H 0.3097 0.7104 0.3904
H3_3 H 0.3128 0.8088 0.4217
O2_3 O 0.5403(3) 0.7755(4) 0.4272(3)
C2_3 C 0.4775(8) 0.7172(7) 0.5410(7)
H4_3 H 0.4402 0.7007 0.5678
H5_3 H 0.5156 0.7640 0.5703
H6_3 H 0.5104 0.6659 0.5376
O3_3 O 0.3758(3) 0.9102(3) 0.2363(3)
O4_4 O 0.5000 0.7660(4) 0.2500
C5_3 C 0.4613(5) 0.7755(5) 0.4123(5)
C7_3 C 0.4186(4) 0.9549(5) 0.2957(5)
O7_3 O 0.5040(3) 0.9456(3) 0.1607(3)
N6_3 N 0.5737(5) 0.7491(5) 0.0392(5)
C24_3 C 0.6658(7) 0.7490(9) 0.0642(9)
H23_3 H 0.6812 0.7277 0.0215
H24_3 H 0.6903 0.7104 0.1096
H25_3 H 0.6872 0.8088 0.0783
O8_3 O 0.4597(3) 0.7755(4) 0.0728(3)
O9_3 O 0.6242(3) 0.9102(3) 0.2637(3)
C26_3 C 0.5387(5) 0.7755(5) 0.0877(5)
C27_3 C 0.5814(4) 0.9549(5) 0.2043(5)
O12_2 O 0.6806(3) 0.7448(3) 0.3571(3)
O13_2 O 0.3194(3) 0.7448(3) 0.1429(3)
H31_3 H 0.418917 0.799609 0.353987
H32_3 H 0.581083 0.799609 0.146013
O2_4 O 0.0403(3) 0.2755(4) 0.4272(3)
H5_4 H 0.0156 0.2640 0.5703
H6_4 H 0.0104 0.1659 0.5376
O4_5 O 0.0000 0.2660(4) 0.2500
S2_4 S 0.23196(11) 0.55379(13) 0.24072(11)
O7_4 O 0.0040(3) 0.4456(3) 0.1607(3)
N6_4 N 0.0737(5) 0.2491(5) 0.0392(5)
C24_4 C 0.1658(7) 0.2490(9) 0.0642(9)
H23_4 H 0.1812 0.2277 0.0215
H24_4 H 0.1903 0.2104 0.1096
H25_4 H 0.1872 0.3088 0.0783
O9_4 O 0.1242(3) 0.4102(3) 0.2637(3)
O10_4 O 0.3781(3) 0.6720(4) 0.2586(3)
C26_4 C 0.0387(5) 0.2755(5) 0.0877(5)
C27_4 C 0.0814(4) 0.4549(5) 0.2043(5)
C28_4 C 0.3175(4) 0.6892(5) 0.1939(4)
C29_4 C 0.0997(4) 0.5802(5) 0.1134(4)
H29_4 H 0.0454 0.5750 0.0735
C30_4 C 0.1621(4) 0.6419(5) 0.1108(4)
H30_4 H 0.1535 0.6817 0.0690
C31_4 C 0.2366(4) 0.6369(4) 0.1765(4)
C32_4 C 0.1278(4) 0.5283(5) 0.1813(4)
H32_4 H 0.0810825 0.299609 0.146013
S1_4 S 0.76804(11) 0.55379(13) 0.25928(11)
O1_4 O 0.9960(3) 0.4456(3) 0.3393(3)
N1_4 N 0.9263(5) 0.2491(5) 0.4608(5)
C1_4 C 0.8342(7) 0.2490(9) 0.4358(9)
H1_4 H 0.8188 0.2277 0.4785
H2_4 H 0.8097 0.2104 0.3904
H3_4 H 0.8128 0.3088 0.4217
C2_4 C 0.9775(8) 0.2172(7) 0.5410(7)
H4_4 H 0.9402 0.2007 0.5678
O3_4 O 0.8758(3) 0.4102(3) 0.2363(3)
O4_6 O 1.0000 0.2660(4) 0.2500
O5_4 O 0.6219(3) 0.6720(4) 0.2414(3)
C5_4 C 0.9613(5) 0.2755(5) 0.4123(5)
C7_4 C 0.9186(4) 0.4549(5) 0.2957(5)
C8_4 C 0.6825(4) 0.6892(5) 0.3061(4)
C11_4 C 0.9003(4) 0.5802(5) 0.3866(4)
H11_4 H 0.9546 0.5750 0.4265
C14_4 C 0.8379(4) 0.6419(5) 0.3892(4)
H15_4 H 0.8465 0.6817 0.4310
C15_4 C 0.7634(4) 0.6369(4) 0.3235(4)
C16_4 C 0.8722(4) 0.5283(5) 0.3187(4)
O8_4 O 0.9597(3) 0.2755(4) 0.0728(3)
H31_4 H 0.918917 0.299609 0.353987
H27_3 H 0.9844 0.2640 0.9297
H28_3 H 0.9896 0.1659 0.9624
C19_4 C 0.2516(5) 0.0182(5) 0.9737(5)
H18_4 H 0.2376 0.0713 0.9448
N5_4 N 0.1995(3) 0.9448(4) 0.9659(4)
C20_4 C 0.0533(4) 0.9706(5) 0.9619(4)
C22_4 C 0.1075(4) 0.9387(6) 0.9178(5)
H20_4 H 0.0946 0.9745 0.8700
H21_4 H 0.0931 0.8769 0.9017
C25_2 C 0.5225(8) 0.7172(7) 0.9590(7)
H26_2 H 0.5598 0.7007 0.9322
H27_4 H 0.4844 0.7640 0.9297
H28_4 H 0.4896 0.6659 0.9624
C6_4 C 0.7484(5) 0.9818(5) 0.0263(5)
H9_4 H 0.7624 0.9287 0.0552
C25_3 C 0.9775(8) 0.7828(7) 0.0410(7)
H26_3 H 0.9402 0.7993 0.0678
C25_4 C 0.0225(8) 0.2172(7) 0.9590(7)
H26_4 H 0.0598 0.2007 0.9322
loop_
_geom_bond_atom_site_label_1
_geom_bond_atom_site_label_2
_geom_bond_site_symmetry_1
_geom_bond_site_symmetry_2
H26 C25 1_555 1_555
H27 C25 1_555 1_555
H28 C25 1_555 1_555
C12 N3 1_555 1_555
H12 C12 1_555 1_555
H13 C12 1_555 1_555
C9 C12 1_555 1_555
Co1 O1 1_555 1_555
O1 C7 1_555 1_555
N1 C1 1_555 1_555
C1 H1 1_555 1_555
H2 C1 1_555 1_555
H3 C1 1_555 1_555
O2 Co1 1_555 1_555
N2 Co1 1_555 1_555
C2 N1 1_555 1_555
H4 C2 1_555 1_555
H5 C2 1_555 1_555
H6 C2 1_555 1_555
O3 C7 1_555 1_555
O4 Co1 1_555 1_555
C3 N2 1_555 1_555
C5 N1 1_555 1_555
C9_2 C10 1_555 1_555
H10 C10 1_555 1_555
C12_2 N3_2 1_555 1_555
H12_2 C12_2 1_555 1_555
H13_2 C12_2 1_555 1_555
C13 N2 1_555 1_555
H14 C13 1_555 1_555
Co2 O3 1_555 1_555
O7 Co2 1_555 1_555
N6 C24 1_555 1_555
C24 H23 1_555 1_555
H24 C24 1_555 1_555
H25 C24 1_555 1_555
O8 Co2 1_555 1_555
O9 Co1 1_555 1_555
C26 N6 1_555 1_555
C27 O7 1_555 1_555
N7 Co2 1_555 1_555
O12 Co1 1_555 1_555
O13 Co2 1_555 1_555
O2 C5 1_555 1_555
O4 Co2 1_555 1_555
N3_2 C13 1_555 1_555
C9_2 C12_2 1_555 1_555
O8 C26 1_555 1_555
O9 C27 1_555 1_555
C5 H31 1_555 1_555
C26 H32 1_555 1_555
S1 C15 1_555 1_555
O5 C8 1_555 1_555
C4 H8 1_555 1_555
O6 C8 1_555 1_555
H9 C6 1_555 1_555
C8 C15 1_555 1_555
C11 H11 1_555 1_555
C14 C11 1_555 1_555
H15 C14 1_555 1_555
C15 C14 1_555 1_555
C16 S1 1_555 1_555
S2 C31 1_555 1_555
O10 C28 1_555 1_555
O11 C28 1_555 1_555
C28 C31 1_555 1_555
C29 H29 1_555 1_555
C30 C29 1_555 1_555
H30 C30 1_555 1_555
C31 C30 1_555 1_555
C32 S2 1_555 1_555
Co3 O6 1_555 1_555
Co4 O11 1_555 1_555
C11 C16 1_555 1_555
C29 C32 1_555 1_555
H17 C18 1_555 1_555
H18 C19 1_555 1_555
N4 C17 1_555 1_555
H19 C21 1_555 1_555
C22 N5 1_555 1_555
H20 C22 1_555 1_555
H21 C22 1_555 1_555
C23 N4 1_555 1_555
H22 C23 1_555 1_555
Co5 N4 1_555 1_555
N5 C23 1_555 1_555
C20 C21 1_555 1_555
C20 C22 1_555 1_555
H17_2 C18_2 1_555 1_555
N4_2 C17_2 1_555 1_555
H19_2 C21_2 1_555 1_555
C23_2 N4_2 1_555 1_555
H22_2 C23_2 1_555 1_555
Co5_2 N4_2 1_555 1_555
C3_2 N7 1_555 1_555
H10_2 C10_2 1_555 1_555
C13_2 N7 1_555 1_555
H14_2 C13_2 1_555 1_555
C4_2 H8_2 1_555 1_555
S1_2 C15_2 1_555 1_555
O1_2 C7_2 1_555 1_555
N1_2 C1_2 1_555 1_555
C1_2 H1_2 1_555 1_555
H2_2 C1_2 1_555 1_555
H3_2 C1_2 1_555 1_555
C2_2 N1_2 1_555 1_555
H4_2 C2_2 1_555 1_555
O3_2 C7_2 1_555 1_555
O5_2 C8_2 1_555 1_555
O12 C8_2 1_555 1_555
C5_2 N1_2 1_555 1_555
C7_2 C16_2 1_555 1_555
C8_2 C15_2 1_555 1_555
C11_2 H11_2 1_555 1_555
C14_2 C11_2 1_555 1_555
H15_2 C14_2 1_555 1_555
C15_2 C14_2 1_555 1_555
C16_2 S1_2 1_555 1_555
Co4 O3_2 1_555 1_555
O8_2 Co4 1_555 1_555
N7_2 Co4 1_555 1_555
O4_2 Co4 1_555 1_555
C11_2 C16_2 1_555 1_555
C5_2 H31_2 1_555 1_555
O2_2 Co3 1_555 1_555
N2_2 Co3 1_555 1_555
O4_3 Co3 1_555 1_555
C3_3 N2_2 1_555 1_555
H7_3 C3_3 1_555 1_555
N3_3 C6_2 1_555 1_555
C4_3 H8_3 1_555 1_555
C6_2 C3_3 1_555 1_555
H9_2 C6_2 1_555 1_555
C9_3 C10_3 1_555 1_555
C10_3 C4_3 1_555 1_555
H10_3 C10_3 1_555 1_555
C12_3 N3_3 1_555 1_555
H12_3 C12_3 1_555 1_555
H13_3 C12_3 1_555 1_555
C13_3 N2_2 1_555 1_555
H14_3 C13_3 1_555 1_555
N4_3 C17_3 1_555 1_555
C17_3 H16_3 1_555 1_555
N5_2 C19_2 1_555 1_555
C18_3 C9_3 1_555 1_555
H17_3 C18_3 1_555 1_555
C19_2 C17_3 1_555 1_555
H18_2 C19_2 1_555 1_555
C20_2 C4_3 1_555 1_555
C21_3 C18_3 1_555 1_555
H19_3 C21_3 1_555 1_555
C22_2 N5_2 1_555 1_555
H20_2 C22_2 1_555 1_555
H21_2 C22_2 1_555 1_555
C23_3 N4_3 1_555 1_555
H22_3 C23_3 1_555 1_555
S2_2 C31_2 1_555 1_555
N6_2 C24_2 1_555 1_555
C24_2 H23_2 1_555 1_555
H24_2 C24_2 1_555 1_555
H25_2 C24_2 1_555 1_555
O9_2 Co3 1_555 1_555
O10_2 C28_2 1_555 1_555
O13 C28_2 1_555 1_555
C26_2 N6_2 1_555 1_555
C27_2 O7_2 1_555 1_555
C28_2 C31_2 1_555 1_555
C29_2 H29_2 1_555 1_555
C30_2 C29_2 1_555 1_555
H30_2 C30_2 1_555 1_555
C31_2 C30_2 1_555 1_555
C32_2 S2_2 1_555 1_555
Co5_3 N4_3 1_555 1_555
N3_3 C13_3 1_555 1_555
C9_3 C12_3 1_555 1_555
N5_2 C23_3 1_555 1_555
C20_2 C21_3 1_555 1_555
C20_2 C22_2 1_555 1_555
O9_2 C27_2 1_555 1_555
C27_2 C32_2 1_555 1_555
C29_2 C32_2 1_555 1_555
C26_2 H32_2 1_555 1_555
N3_4 C6_3 1_555 1_555
H9_3 C6_3 1_555 1_555
C12_4 N3_4 1_555 1_555
H12_4 C12_4 1_555 1_555
H13_4 C12_4 1_555 1_555
N4_4 C17_4 1_555 1_555
C17_4 H16_4 1_555 1_555
C18_4 C9_4 1_555 1_555
H17_4 C18_4 1_555 1_555
C21_4 C18_4 1_555 1_555
H19_4 C21_4 1_555 1_555
C23_4 N4_4 1_555 1_555
H22_4 C23_4 1_555 1_555
Co5_4 N4_4 1_555 1_555
C9_4 C12_4 1_555 1_555
C3_4 N7_2 1_555 1_555
H7_4 C3_4 1_555 1_555
C4_4 H8_4 1_555 1_555
C10_4 C4_4 1_555 1_555
H10_4 C10_4 1_555 1_555
C13_4 N7_2 1_555 1_555
H14_4 C13_4 1_555 1_555
N5_3 C19_3 1_555 1_555
H18_3 C19_3 1_555 1_555
C20_3 C4_4 1_555 1_555
C22_3 N5_3 1_555 1_555
H20_3 C22_3 1_555 1_555
H21_3 C22_3 1_555 1_555
C20_3 C22_3 1_555 1_555
S1_3 C15_3 1_555 1_555
O5_3 C8_3 1_555 1_555
O6_2 C8_3 1_555 1_555
C8_3 C15_3 1_555 1_555
C11_3 H11_3 1_555 1_555
C14_3 C11_3 1_555 1_555
H15_3 C14_3 1_555 1_555
C15_3 C14_3 1_555 1_555
C16_3 S1_3 1_555 1_555
S2_3 C31_3 1_555 1_555
O10_3 C28_3 1_555 1_555
O11_2 C28_3 1_555 1_555
C28_3 C31_3 1_555 1_555
C29_3 H29_3 1_555 1_555
C30_3 C29_3 1_555 1_555
H30_3 C30_3 1_555 1_555
C31_3 C30_3 1_555 1_555
C32_3 S2_3 1_555 1_555
Co5_3 O6_2 1_555 1_555
Co5_4 O11_2 1_555 1_555
C11_3 C16_3 1_555 1_555
C29_3 C32_3 1_555 1_555
Co5 O1_3 1_555 1_555
O1_3 C7_3 1_555 1_555
N1_3 C1_3 1_555 1_555
C1_3 H1_3 1_555 1_555
H2_3 C1_3 1_555 1_555
H3_3 C1_3 1_555 1_555
O2_3 Co5 1_555 1_555
C2_3 N1_3 1_555 1_555
H4_3 C2_3 1_555 1_555
H5_3 C2_3 1_555 1_555
H6_3 C2_3 1_555 1_555
O3_3 C7_3 1_555 1_555
O4_4 Co5 1_555 1_555
C5_3 N1_3 1_555 1_555
Co5_2 O3_3 1_555 1_555
O7_3 Co5_2 1_555 1_555
N6_3 C24_3 1_555 1_555
C24_3 H23_3 1_555 1_555
H24_3 C24_3 1_555 1_555
H25_3 C24_3 1_555 1_555
O8_3 Co5_2 1_555 1_555
O9_3 Co5 1_555 1_555
C26_3 N6_3 1_555 1_555
C27_3 O7_3 1_555 1_555
O12_2 Co5 1_555 1_555
O13_2 Co5_2 1_555 1_555
O2_3 C5_3 1_555 1_555
O4_4 Co5_2 1_555 1_555
O8_3 C26_3 1_555 1_555
O9_3 C27_3 1_555 1_555
C5_3 H31_3 1_555 1_555
C26_3 H32_3 1_555 1_555
O2_4 Co5_3 1_555 1_555
O4_5 Co5_3 1_555 1_555
S2_4 C31_4 1_555 1_555
N6_4 C24_4 1_555 1_555
C24_4 H23_4 1_555 1_555
H24_4 C24_4 1_555 1_555
H25_4 C24_4 1_555 1_555
O9_4 Co5_3 1_555 1_555
O10_4 C28_4 1_555 1_555
O13_2 C28_4 1_555 1_555
C26_4 N6_4 1_555 1_555
C27_4 O7_4 1_555 1_555
C28_4 C31_4 1_555 1_555
C29_4 H29_4 1_555 1_555
C30_4 C29_4 1_555 1_555
H30_4 C30_4 1_555 1_555
C31_4 C30_4 1_555 1_555
C32_4 S2_4 1_555 1_555
O9_4 C27_4 1_555 1_555
C27_4 C32_4 1_555 1_555
C29_4 C32_4 1_555 1_555
C26_4 H32_4 1_555 1_555
S1_4 C15_4 1_555 1_555
O1_4 C7_4 1_555 1_555
N1_4 C1_4 1_555 1_555
C1_4 H1_4 1_555 1_555
H2_4 C1_4 1_555 1_555
H3_4 C1_4 1_555 1_555
C2_4 N1_4 1_555 1_555
H4_4 C2_4 1_555 1_555
O3_4 C7_4 1_555 1_555
O5_4 C8_4 1_555 1_555
O12_2 C8_4 1_555 1_555
C5_4 N1_4 1_555 1_555
C7_4 C16_4 1_555 1_555
C8_4 C15_4 1_555 1_555
C11_4 H11_4 1_555 1_555
C14_4 C11_4 1_555 1_555
H15_4 C14_4 1_555 1_555
C15_4 C14_4 1_555 1_555
C16_4 S1_4 1_555 1_555
Co5_4 O3_4 1_555 1_555
O8_4 Co5_4 1_555 1_555
O4_6 Co5_4 1_555 1_555
C11_4 C16_4 1_555 1_555
C5_4 H31_4 1_555 1_555
H18_4 C19_4 1_555 1_555
C22_4 N5_4 1_555 1_555
H20_4 C22_4 1_555 1_555
H21_4 C22_4 1_555 1_555
C20_4 C22_4 1_555 1_555
H26_2 C25_2 1_555 1_555
H27_4 C25_2 1_555 1_555
H28_4 C25_2 1_555 1_555
H9_4 C6_4 1_555 1_555
H26_3 C25_3 1_555 1_555
H26_4 C25_4 1_555 1_555

#END
