
###############################################################################
#
# This file contains modified crystal structure data generated from the
# MOF subset of the Cambridge Structural Database (CSD) v543 
# hosted by the Cambridge Crystallographic Data Centre (CCDC).
#
# This work is licensed under the Creative Commons
# Attribution-NonCommercial-ShareAlike 4.0 International License.
# To view a copy of this license, visit
# http://creativecommons.org/licenses/by-nc-sa/4.0/
# or send a letter to
# Creative Commons, PO Box 1866, Mountain View, CA 94042, USA.
#
# CIF created using the CSD Python API on 29 September 2022
# The structure has been converted into the P1 space group
# The structure has a 3D framework
# The original CSD entry GISMIG is in the monoclinic crystal system
# The framework has been calculated to contain at least 10.0% void space
# The void calculation uses a probe of radius 1.32A, grid spacing 0.4
#
###############################################################################

data_GISMIG
_chemical_formula_moiety         '(C136 H136 Cd8 N40 O32)n'
_symmetry_cell_setting           triclinic
_symmetry_space_group_name_H-M   'P 1'
_symmetry_Int_Tables_number      1
_space_group_name_Hall           'P 1'
loop_
_symmetry_equiv_pos_site_id
_symmetry_equiv_pos_as_xyz
1 x,y,z
_cell_length_a                   19.4357(18)
_cell_length_b                   14.7675(14)
_cell_length_c                   16.7987(16)
_cell_angle_alpha                90
_cell_angle_beta                 120.369(2)
_cell_angle_gamma                90
_cell_volume                     4159.94
loop_
_atom_site_label
_atom_site_type_symbol
_atom_site_fract_x
_atom_site_fract_y
_atom_site_fract_z
H6 H 0.0054 0.3025 0.6303
C11 C 0.0385(4) 0.4863(6) 0.6304(4)
H7 H 0.0888 0.4607 0.6775
H8 H 0.0363 0.5484 0.6479
C12 C 0.0371(4) 0.4866(6) 0.5421(4)
H9 H 0.0509 0.4262 0.5322
H10 H 0.0791 0.5269 0.5486
N6 N 0.0271(3) 0.5648(4) 0.3712(4)
N7 N 0.1385(3) 0.5962(3) 0.3774(3)
C18 C 0.0915(4) 0.5316(4) 0.3753(4)
H18 H 0.1024 0.4701 0.3766
C19 C 0.1001(4) 0.6739(5) 0.3749(5)
H19 H 0.1192 0.7318 0.3754
C20 C 0.0315(4) 0.6561(6) 0.3715(6)
Cd5 Cd 0.24746(2) 0.57820(3) 0.36870(3)
H6_2 H 0.9946 0.3025 0.8697
C11_2 C 0.9615(4) 0.4863(6) 0.8696(4)
H7_2 H 0.9112 0.4607 0.8225
H8_2 H 0.9637 0.5484 0.8521
C12_2 C 0.9629(4) 0.4866(6) 0.9579(4)
H9_2 H 0.9491 0.4262 0.9678
H10_2 H 0.9209 0.5269 0.9514
C16 C 0.9709(5) 0.0840(5) 0.3447(5)
H14 H 0.9941 0.1425 0.3706
H15 H 0.9192 0.0807 0.3402
C17 C 0.9601(4) 0.0758(5) 0.2486(5)
H16 H 0.9279 0.1259 0.2109
H17 H 0.9318 0.0201 0.2202
N8 N 0.9775(3) 0.0123(4) 0.0940(4)
C23 C 0.9029(4) 0.0218(5) 0.0285(4)
H25 H 0.8758 0.0767 0.0118
H13 H 0.9545 0.8966 0.3639
C24 C 0.9304(4) 0.8831(6) 0.0327(5)
H26 H 0.9258 0.8215 0.0194
C25 C 0.9965(5) 0.9236(6) 0.0971(6)
N6_2 N 0.4729(3) 0.0648(4) 0.1288(4)
N7_2 N 0.3615(3) 0.0962(3) 0.1226(3)
C18_2 C 0.4085(4) 0.0316(4) 0.1247(4)
C19_2 C 0.3999(4) 0.1739(5) 0.1251(5)
H19_2 H 0.3808 0.2318 0.1246
C20_2 C 0.4685(4) 0.1561(6) 0.1285(6)
H20 H 0.5054 0.1975 0.1303
C21 C 0.5385(4) 0.0137(6) 0.1304(4)
H21 H 0.5888 0.0393 0.1775
C22 C 0.5371(4) 0.0134(6) 0.0421(4)
H23 H 0.5509 0.0738 0.0322
Cd5_2 Cd 0.25254(2) 0.07820(3) 0.13130(3)
H18_2 H 0.3976 0.9701 0.1234
H22 H 0.5363 0.9516 0.1479
H24 H 0.5791 0.9731 0.0486
N1 N 0.2449(3) 0.5067(3) 0.2467(3)
N4 N 0.4775(3) 0.4877(4) 0.5940(4)
N5 N 0.3712(3) 0.5562(4) 0.4896(3)
O1 O 0.2317(3) 0.4230(2) 0.3817(3)
O2 O 0.2076(4) 0.2949(3) 0.3084(4)
O3 O 0.2130(4) 0.2220(4) 0.1267(4)
O4 O 0.3242(4) 0.2275(4) 0.2577(4)
C1 C 0.2264(4) 0.3738(4) 0.3190(4)
C2 C 0.2646(4) 0.2632(5) 0.1928(5)
C3 C 0.2446(3) 0.4154(4) 0.2491(4)
C4 C 0.2568(3) 0.3641(4) 0.1884(4)
C5 C 0.2639(4) 0.4100(5) 0.1209(4)
H1 H 0.2714 0.3777 0.0783
C6 C 0.2601(3) 0.5021(4) 0.1165(4)
H2 H 0.2624 0.5328 0.0695
C7 C 0.2529(3) 0.5489(4) 0.1821(4)
H3 H 0.2537 0.6118 0.1814
C13 C 0.4029(4) 0.4782(5) 0.5285(4)
H11 H 0.3758 0.4233 0.5118
C14 C 0.4304(4) 0.6169(6) 0.5327(5)
H12 H 0.4258 0.6785 0.5194
C15 C 0.4965(5) 0.5764(6) 0.5971(6)
H13_2 H 0.5455 0.6034 0.6361
C16_2 C 0.5291(5) 0.4160(5) 0.6553(5)
H14_2 H 0.5059 0.3575 0.6294
H15_2 H 0.5808 0.4193 0.6598
C17_2 C 0.5399(4) 0.4242(5) 0.7514(5)
H16_2 H 0.5721 0.3741 0.7891
H17_2 H 0.5682 0.4799 0.7798
N8_2 N 0.5225(3) 0.4877(4) 0.9060(4)
C23_2 C 0.5971(4) 0.4782(5) 0.9715(4)
H25_2 H 0.6242 0.4233 0.9882
C24_2 C 0.5696(4) 0.6169(6) 0.9673(5)
H26_2 H 0.5742 0.6785 0.9806
C25_2 C 0.5035(5) 0.5764(6) 0.9029(6)
H27 H 0.4545 0.6034 0.8639
C26 C 0.4709(5) 0.4160(5) 0.8447(5)
H28 H 0.4941 0.3575 0.8706
H29 H 0.4192 0.4193 0.8402
C27 C 0.4601(4) 0.4242(5) 0.7486(5)
H30 H 0.4279 0.3741 0.7109
H31 H 0.4318 0.4799 0.7202
O10 O 0.2870(4) 0.7220(4) 0.3733(4)
N9 N 0.1288(3) 0.0562(4) 0.0104(3)
N10 N 0.2551(3) 0.0067(3) 0.2533(3)
C33 C 0.2399(3) 0.0021(4) 0.3835(4)
H33 H 0.2376 0.0328 0.4305
C34 C 0.2471(3) 0.0489(4) 0.3179(4)
H34 H 0.2463 0.1118 0.3186
O5 O 0.2683(3) 0.9230(2) 0.1183(3)
O6 O 0.2924(4) 0.7949(3) 0.1916(4)
O8 O 0.1758(4) 0.7275(4) 0.2423(4)
C28 C 0.2736(4) 0.8738(4) 0.1810(4)
C29 C 0.2354(4) 0.7632(5) 0.3072(5)
C30 C 0.2554(3) 0.9154(4) 0.2509(4)
C31 C 0.2432(3) 0.8641(4) 0.3116(4)
C32 C 0.2361(4) 0.9100(5) 0.3791(4)
H32 H 0.2286 0.8777 0.4217
Cd1 Cd 0.75254(2) 0.42180(3) 0.63130(3)
N1_2 N 0.7551(3) 0.4933(3) 0.7533(3)
N2 N 0.9729(3) 0.4352(4) 0.6288(4)
N3 N 0.8615(3) 0.4038(3) 0.6226(3)
N4_2 N 0.5225(3) 0.5123(4) 0.4060(4)
N5_2 N 0.6288(3) 0.4438(4) 0.5104(3)
O1_2 O 0.7683(3) 0.5770(2) 0.6183(3)
O2_2 O 0.7924(4) 0.7051(3) 0.6916(4)
O3_2 O 0.7870(4) 0.7780(4) 0.8733(4)
O4_2 O 0.6758(4) 0.7725(4) 0.7423(4)
C1_2 C 0.7736(4) 0.6262(4) 0.6810(4)
C2_2 C 0.7354(4) 0.7368(5) 0.8072(5)
C3_2 C 0.7554(3) 0.5846(4) 0.7509(4)
C4_2 C 0.7432(3) 0.6359(4) 0.8116(4)
C5_2 C 0.7361(4) 0.5900(5) 0.8791(4)
H1_2 H 0.7286 0.6223 0.9217
C6_2 C 0.7399(3) 0.4979(4) 0.8835(4)
H2_2 H 0.7376 0.4672 0.9305
C7_2 C 0.7471(3) 0.4511(4) 0.8179(4)
H3_2 H 0.7463 0.3882 0.8186
C8 C 0.9085(4) 0.4684(4) 0.6247(4)
H4 H 0.8976 0.5299 0.6234
C9 C 0.8999(4) 0.3261(5) 0.6251(5)
H5 H 0.8808 0.2682 0.6246
C10 C 0.9685(4) 0.3439(6) 0.6285(6)
C13_2 C 0.5971(4) 0.5218(5) 0.4715(4)
H11_2 H 0.6242 0.5767 0.4882
C14_2 C 0.5696(4) 0.3831(6) 0.4673(5)
H12_2 H 0.5742 0.3215 0.4806
C15_2 C 0.5035(5) 0.4236(6) 0.4029(6)
H13_3 H 0.4545 0.3966 0.3639
C16_3 C 0.4709(5) 0.5840(5) 0.3447(5)
H14_3 H 0.4941 0.6425 0.3706
H15_3 H 0.4192 0.5807 0.3402
C17_3 C 0.4601(4) 0.5758(5) 0.2486(5)
H16_3 H 0.4279 0.6259 0.2109
H17_3 H 0.4318 0.5201 0.2202
H20_2 H 0.9946 0.6975 0.3697
C21_2 C 0.9615(4) 0.5137(6) 0.3696(4)
H21_2 H 0.9112 0.5393 0.3225
H22_2 H 0.9637 0.4516 0.3521
C22_2 C 0.9629(4) 0.5134(6) 0.4579(4)
H23_2 H 0.9491 0.5738 0.4678
H24_2 H 0.9209 0.4731 0.4514
N8_3 N 0.4775(3) 0.5123(4) 0.0940(4)
C23_3 C 0.4029(4) 0.5218(5) 0.0285(4)
H25_3 H 0.3758 0.5767 0.0118
C24_3 C 0.4304(4) 0.3831(6) 0.0327(5)
H26_3 H 0.4258 0.3215 0.0194
C25_3 C 0.4965(5) 0.4236(6) 0.0971(6)
H27_2 H 0.5455 0.3966 0.1361
C26_2 C 0.5291(5) 0.5840(5) 0.1553(5)
H28_2 H 0.5059 0.6425 0.1294
H29_2 H 0.5808 0.5807 0.1598
C27_2 C 0.5399(4) 0.5758(5) 0.2514(5)
H30_2 H 0.5721 0.6259 0.2891
H31_2 H 0.5682 0.5201 0.2798
Cd4 Cd 0.74746(2) 0.92180(3) 0.86870(3)
O10_2 O 0.7130(4) 0.2780(4) 0.6267(4)
H20_3 H 0.0054 0.6975 0.1303
C21_3 C 0.0385(4) 0.5137(6) 0.1304(4)
H21_3 H 0.0888 0.5393 0.1775
H22_3 H 0.0363 0.4516 0.1479
C22_3 C 0.0371(4) 0.5134(6) 0.0421(4)
H23_3 H 0.0509 0.5738 0.0322
H24_3 H 0.0791 0.4731 0.0486
O5_2 O 0.7317(3) 0.0770(2) 0.8817(3)
O6_2 O 0.7076(4) 0.2051(3) 0.8084(4)
O8_2 O 0.8242(4) 0.2725(4) 0.7577(4)
C28_2 C 0.7264(4) 0.1262(4) 0.8190(4)
C29_2 C 0.7646(4) 0.2368(5) 0.6928(5)
C30_2 C 0.7446(3) 0.0846(4) 0.7491(4)
C31_2 C 0.7568(3) 0.1359(4) 0.6884(4)
C32_2 C 0.7639(4) 0.0900(5) 0.6209(4)
H32_2 H 0.7714 0.1223 0.5783
N9_2 N 0.8712(3) 0.9438(4) 0.9896(3)
N10_2 N 0.7449(3) 0.9933(3) 0.7467(3)
C33_2 C 0.7601(3) 0.9979(4) 0.6165(4)
H33_2 H 0.7624 0.9672 0.5695
C34_2 C 0.7529(3) 0.9511(4) 0.6821(4)
H34_2 H 0.7537 0.8882 0.6814
N11 N 0.6385(3) 0.9038(3) 0.8774(3)
H4_2 H 0.6024 0.0299 0.8766
H8_3 H 0.4637 0.0484 0.8521
H10_3 H 0.4209 0.0269 0.9514
N2_2 N 0.5271(3) 0.9352(4) 0.8712(4)
C8_2 C 0.5915(4) 0.9684(4) 0.8753(4)
C9_2 C 0.6001(4) 0.8261(5) 0.8749(5)
H5_2 H 0.6192 0.7682 0.8754
C10_2 C 0.5315(4) 0.8439(6) 0.8715(6)
H6_3 H 0.4946 0.8025 0.8697
C11_3 C 0.4615(4) 0.9863(6) 0.8696(4)
H7_3 H 0.4112 0.9607 0.8225
C12_3 C 0.4629(4) 0.9866(6) 0.9579(4)
H9_3 H 0.4491 0.9262 0.9678
H13_4 H 0.0455 0.1034 0.6361
C24_4 C 0.0696(4) 0.1169(6) 0.9673(5)
H26_4 H 0.0742 0.1785 0.9806
C25_4 C 0.0035(5) 0.0764(6) 0.9029(6)
C16_4 C 0.0291(5) 0.9160(5) 0.6553(5)
H14_4 H 0.0059 0.8575 0.6294
H15_4 H 0.0808 0.9193 0.6598
C17_4 C 0.0399(4) 0.9242(5) 0.7514(5)
H16_4 H 0.0721 0.8741 0.7891
H17_4 H 0.0682 0.9799 0.7798
N8_4 N 0.0225(3) 0.9877(4) 0.9060(4)
C23_4 C 0.0971(4) 0.9782(5) 0.9715(4)
H25_4 H 0.1242 0.9233 0.9882
N9_3 N 0.3712(3) 0.4438(4) 0.9896(3)
Cd2 Cd 0.24746(2) 0.42180(3) 0.86870(3)
N10_3 N 0.2449(3) 0.4933(3) 0.7467(3)
O5_3 O 0.2317(3) 0.5770(2) 0.8817(3)
O6_3 O 0.2076(4) 0.7051(3) 0.8084(4)
O7 O 0.2130(4) 0.7780(4) 0.6267(4)
O8_3 O 0.3242(4) 0.7725(4) 0.7577(4)
C28_3 C 0.2264(4) 0.6262(4) 0.8190(4)
C29_3 C 0.2646(4) 0.7368(5) 0.6928(5)
C30_3 C 0.2446(3) 0.5846(4) 0.7491(4)
C31_3 C 0.2568(3) 0.6359(4) 0.6884(4)
C32_3 C 0.2639(4) 0.5900(5) 0.6209(4)
H32_3 H 0.2714 0.6223 0.5783
C33_3 C 0.2601(3) 0.4979(4) 0.6165(4)
H33_3 H 0.2624 0.4672 0.5695
C34_3 C 0.2529(3) 0.4511(4) 0.6821(4)
H34_3 H 0.2537 0.3882 0.6814
Cd3 Cd 0.25254(2) 0.92180(3) 0.63130(3)
N11_2 N 0.1385(3) 0.4038(3) 0.8774(3)
O9 O 0.2870(4) 0.2780(4) 0.8733(4)
N2_3 N 0.0271(3) 0.4352(4) 0.8712(4)
C8_3 C 0.0915(4) 0.4684(4) 0.8753(4)
H4_3 H 0.1024 0.5299 0.8766
C9_3 C 0.1001(4) 0.3261(5) 0.8749(5)
H5_3 H 0.1192 0.2682 0.8754
C10_3 C 0.0315(4) 0.3439(6) 0.8715(6)
N6_3 N 0.9729(3) 0.5648(4) 0.1288(4)
N7_3 N 0.8615(3) 0.5962(3) 0.1226(3)
C18_3 C 0.9085(4) 0.5316(4) 0.1247(4)
H18_3 H 0.8976 0.4701 0.1234
C19_3 C 0.8999(4) 0.6739(5) 0.1251(5)
H19_3 H 0.8808 0.7318 0.1246
C20_3 C 0.9685(4) 0.6561(6) 0.1285(6)
Cd5_3 Cd 0.75254(2) 0.57820(3) 0.13130(3)
N4_3 N 0.0225(3) 0.0123(4) 0.4060(4)
O1_3 O 0.2683(3) 0.0770(2) 0.6183(3)
O2_3 O 0.2924(4) 0.2051(3) 0.6916(4)
O4_3 O 0.1758(4) 0.2725(4) 0.7423(4)
C1_3 C 0.2736(4) 0.1262(4) 0.6810(4)
C2_3 C 0.2354(4) 0.2368(5) 0.8072(5)
C3_3 C 0.2554(3) 0.0846(4) 0.7509(4)
C4_3 C 0.2432(3) 0.1359(4) 0.8116(4)
C5_3 C 0.2361(4) 0.0900(5) 0.8791(4)
H1_3 H 0.2286 0.1223 0.9217
H4_4 H 0.3976 0.0299 0.6234
H8_4 H 0.5363 0.0484 0.6479
H10_4 H 0.5791 0.0269 0.5486
C13_3 C 0.0971(4) 0.0218(5) 0.4715(4)
H11_3 H 0.1242 0.0767 0.4882
N6_4 N 0.5271(3) 0.0648(4) 0.3712(4)
N7_4 N 0.6385(3) 0.0962(3) 0.3774(3)
C18_4 C 0.5915(4) 0.0316(4) 0.3753(4)
C19_4 C 0.6001(4) 0.1739(5) 0.3749(5)
H19_4 H 0.6192 0.2318 0.3754
C20_4 C 0.5315(4) 0.1561(6) 0.3715(6)
H20_4 H 0.4946 0.1975 0.3697
C21_4 C 0.4615(4) 0.0137(6) 0.3696(4)
H21_4 H 0.4112 0.0393 0.3225
C22_4 C 0.4629(4) 0.0134(6) 0.4579(4)
H23_4 H 0.4491 0.0738 0.4678
C26_3 C 0.0291(5) 0.0840(5) 0.1553(5)
H28_3 H 0.0059 0.1425 0.1294
H29_3 H 0.0808 0.0807 0.1598
C27_3 C 0.0399(4) 0.0758(5) 0.2514(5)
H30_3 H 0.0721 0.1259 0.2891
H31_3 H 0.0682 0.0201 0.2798
Cd5_4 Cd 0.74746(2) 0.07820(3) 0.36870(3)
N1_3 N 0.2551(3) 0.9933(3) 0.7533(3)
N2_4 N 0.4729(3) 0.9352(4) 0.6288(4)
N3_2 N 0.3615(3) 0.9038(3) 0.6226(3)
N5_3 N 0.1288(3) 0.9438(4) 0.5104(3)
C6_3 C 0.2399(3) 0.9979(4) 0.8835(4)
H2_3 H 0.2376 0.9672 0.9305
C7_3 C 0.2471(3) 0.9511(4) 0.8179(4)
H3_3 H 0.2463 0.8882 0.8186
C8_4 C 0.4085(4) 0.9684(4) 0.6247(4)
C9_4 C 0.3999(4) 0.8261(5) 0.6251(5)
H5_4 H 0.3808 0.7682 0.6246
C10_4 C 0.4685(4) 0.8439(6) 0.6285(6)
H6_4 H 0.5054 0.8025 0.6303
C11_4 C 0.5385(4) 0.9863(6) 0.6304(4)
H7_4 H 0.5888 0.9607 0.6775
C12_4 C 0.5371(4) 0.9866(6) 0.5421(4)
H9_4 H 0.5509 0.9262 0.5322
C14_3 C 0.0696(4) 0.8831(6) 0.4673(5)
H12_3 H 0.0742 0.8215 0.4806
C15_3 C 0.0035(5) 0.9236(6) 0.4029(6)
H18_4 H 0.6024 0.9701 0.3766
H22_4 H 0.4637 0.9516 0.3521
H24_4 H 0.4209 0.9731 0.4514
H27_3 H 0.0455 0.8966 0.1361
N9_4 N 0.6288(3) 0.5562(4) 0.0104(3)
N10_4 N 0.7551(3) 0.5067(3) 0.2533(3)
O5_4 O 0.7683(3) 0.4230(2) 0.1183(3)
O6_4 O 0.7924(4) 0.2949(3) 0.1916(4)
O7_2 O 0.7870(4) 0.2220(4) 0.3733(4)
O8_4 O 0.6758(4) 0.2275(4) 0.2423(4)
C28_4 C 0.7736(4) 0.3738(4) 0.1810(4)
C29_4 C 0.7354(4) 0.2632(5) 0.3072(5)
C30_4 C 0.7554(3) 0.4154(4) 0.2509(4)
C31_4 C 0.7432(3) 0.3641(4) 0.3116(4)
C32_4 C 0.7361(4) 0.4100(5) 0.3791(4)
H32_4 H 0.7286 0.3777 0.4217
C33_4 C 0.7399(3) 0.5021(4) 0.3835(4)
H33_4 H 0.7376 0.5328 0.4305
C34_4 C 0.7471(3) 0.5489(4) 0.3179(4)
H34_4 H 0.7463 0.6118 0.3186
O9_2 O 0.7130(4) 0.7220(4) 0.1267(4)
N1_4 N 0.7449(3) 0.0067(3) 0.2467(3)
N5_4 N 0.8712(3) 0.0562(4) 0.4896(3)
C6_4 C 0.7601(3) 0.0021(4) 0.1165(4)
H2_4 H 0.7624 0.0328 0.0695
C7_4 C 0.7529(3) 0.0489(4) 0.1821(4)
H3_4 H 0.7537 0.1118 0.1814
C14_4 C 0.9304(4) 0.1169(6) 0.5327(5)
H12_4 H 0.9258 0.1785 0.5194
C15_4 C 0.9965(5) 0.0764(6) 0.5971(6)
H27_4 H 0.9545 0.1034 0.8639
N4_4 N 0.9775(3) 0.9877(4) 0.5940(4)
O1_4 O 0.7317(3) 0.9230(2) 0.3817(3)
O2_4 O 0.7076(4) 0.7949(3) 0.3084(4)
O4_4 O 0.8242(4) 0.7275(4) 0.2577(4)
C1_4 C 0.7264(4) 0.8738(4) 0.3190(4)
C2_4 C 0.7646(4) 0.7632(5) 0.1928(5)
C3_4 C 0.7446(3) 0.9154(4) 0.2491(4)
C4_4 C 0.7568(3) 0.8641(4) 0.1884(4)
C5_4 C 0.7639(4) 0.9100(5) 0.1209(4)
H1_4 H 0.7714 0.8777 0.0783
C13_4 C 0.9029(4) 0.9782(5) 0.5285(4)
H11_4 H 0.8758 0.9233 0.5118
C26_4 C 0.9709(5) 0.9160(5) 0.8447(5)
H28_4 H 0.9941 0.8575 0.8706
H29_4 H 0.9192 0.9193 0.8402
C27_4 C 0.9601(4) 0.9242(5) 0.7486(5)
H30_4 H 0.9279 0.8741 0.7109
H31_4 H 0.9318 0.9799 0.7202
loop_
_geom_bond_atom_site_label_1
_geom_bond_atom_site_label_2
_geom_bond_site_symmetry_1
_geom_bond_site_symmetry_2
H7 C11 1_555 1_555
H8 C11 1_555 1_555
C12 C11 1_555 1_555
H9 C12 1_555 1_555
H10 C12 1_555 1_555
N6 C18 1_555 1_555
N7 C18 1_555 1_555
C18 H18 1_555 1_555
C19 N7 1_555 1_555
H19 C19 1_555 1_555
C20 N6 1_555 1_555
Cd5 N7 1_555 1_555
C19 C20 1_555 1_555
H7_2 C11_2 1_555 1_555
H8_2 C11_2 1_555 1_555
C12_2 C11_2 1_555 1_555
H9_2 C12_2 1_555 1_555
H10_2 C12_2 1_555 1_555
H14 C16 1_555 1_555
H15 C16 1_555 1_555
C17 C16 1_555 1_555
H16 C17 1_555 1_555
H17 C17 1_555 1_555
N8 C23 1_555 1_555
C23 H25 1_555 1_555
H26 C24 1_555 1_555
C24 C25 1_555 1_555
N6_2 C18_2 1_555 1_555
N7_2 C18_2 1_555 1_555
C19_2 N7_2 1_555 1_555
H19_2 C19_2 1_555 1_555
C20_2 N6_2 1_555 1_555
H20 C20_2 1_555 1_555
C21 N6_2 1_555 1_555
H21 C21 1_555 1_555
H23 C22 1_555 1_555
Cd5_2 N7_2 1_555 1_555
C19_2 C20_2 1_555 1_555
C21 C22 1_555 1_555
Cd5 N1 1_555 1_555
N1 C3 1_555 1_555
N4 C13 1_555 1_555
N5 Cd5 1_555 1_555
O1 Cd5 1_555 1_555
O2 C1 1_555 1_555
O3 C2 1_555 1_555
O4 C2 1_555 1_555
C1 O1 1_555 1_555
C2 C4 1_555 1_555
C3 C1 1_555 1_555
C4 C3 1_555 1_555
C5 C4 1_555 1_555
H1 C5 1_555 1_555
C6 C5 1_555 1_555
H2 C6 1_555 1_555
C7 N1 1_555 1_555
H3 C7 1_555 1_555
C13 N5 1_555 1_555
H11 C13 1_555 1_555
C14 N5 1_555 1_555
H12 C14 1_555 1_555
C15 N4 1_555 1_555
H13_2 C15 1_555 1_555
C16_2 N4 1_555 1_555
H14_2 C16_2 1_555 1_555
H15_2 C16_2 1_555 1_555
C17_2 C16_2 1_555 1_555
H16_2 C17_2 1_555 1_555
H17_2 C17_2 1_555 1_555
N8_2 C23_2 1_555 1_555
C23_2 H25_2 1_555 1_555
H26_2 C24_2 1_555 1_555
C25_2 N8_2 1_555 1_555
H27 C25_2 1_555 1_555
C26 N8_2 1_555 1_555
H28 C26 1_555 1_555
H29 C26 1_555 1_555
C27 C17_2 1_555 1_555
H30 C27 1_555 1_555
H31 C27 1_555 1_555
Cd5_2 O3 1_555 1_555
O10 Cd5 1_555 1_555
C6 C7 1_555 1_555
C14 C15 1_555 1_555
C24_2 C25_2 1_555 1_555
C26 C27 1_555 1_555
Cd5_2 N9 1_555 1_555
N10 Cd5_2 1_555 1_555
H33 C33 1_555 1_555
C34 N10 1_555 1_555
H34 C34 1_555 1_555
C33 C34 1_555 1_555
O6 C28 1_555 1_555
O10 C29 1_555 1_555
O8 C29 1_555 1_555
C28 O5 1_555 1_555
C29 C31 1_555 1_555
C31 C30 1_555 1_555
C32 C31 1_555 1_555
H32 C32 1_555 1_555
C28 C30 1_555 1_555
Cd1 N1_2 1_555 1_555
N1_2 C3_2 1_555 1_555
N2 C8 1_555 1_555
N3 Cd1 1_555 1_555
N4_2 C13_2 1_555 1_555
N5_2 Cd1 1_555 1_555
O1_2 Cd1 1_555 1_555
O2_2 C1_2 1_555 1_555
O3_2 C2_2 1_555 1_555
O4_2 C2_2 1_555 1_555
C1_2 O1_2 1_555 1_555
C2_2 C4_2 1_555 1_555
C3_2 C1_2 1_555 1_555
C4_2 C3_2 1_555 1_555
C5_2 C4_2 1_555 1_555
H1_2 C5_2 1_555 1_555
C6_2 C5_2 1_555 1_555
H2_2 C6_2 1_555 1_555
C7_2 N1_2 1_555 1_555
H3_2 C7_2 1_555 1_555
C8 N3 1_555 1_555
H4 C8 1_555 1_555
C9 N3 1_555 1_555
H5 C9 1_555 1_555
C10 N2 1_555 1_555
C13_2 N5_2 1_555 1_555
H11_2 C13_2 1_555 1_555
C14_2 N5_2 1_555 1_555
H12_2 C14_2 1_555 1_555
C15_2 N4_2 1_555 1_555
H13_3 C15_2 1_555 1_555
C16_3 N4_2 1_555 1_555
H14_3 C16_3 1_555 1_555
H15_3 C16_3 1_555 1_555
C17_3 C16_3 1_555 1_555
H16_3 C17_3 1_555 1_555
H17_3 C17_3 1_555 1_555
H21_2 C21_2 1_555 1_555
H22_2 C21_2 1_555 1_555
H23_2 C22_2 1_555 1_555
H24_2 C22_2 1_555 1_555
N8_3 C23_3 1_555 1_555
C23_3 H25_3 1_555 1_555
H26_3 C24_3 1_555 1_555
C25_3 N8_3 1_555 1_555
H27_2 C25_3 1_555 1_555
C26_2 N8_3 1_555 1_555
H28_2 C26_2 1_555 1_555
H29_2 C26_2 1_555 1_555
C27_2 C17_3 1_555 1_555
H30_2 C27_2 1_555 1_555
H31_2 C27_2 1_555 1_555
Cd4 O3_2 1_555 1_555
O10_2 Cd1 1_555 1_555
C6_2 C7_2 1_555 1_555
C9 C10 1_555 1_555
C14_2 C15_2 1_555 1_555
C21_2 C22_2 1_555 1_555
C24_3 C25_3 1_555 1_555
C26_2 C27_2 1_555 1_555
H21_3 C21_3 1_555 1_555
H22_3 C21_3 1_555 1_555
H23_3 C22_3 1_555 1_555
H24_3 C22_3 1_555 1_555
C21_3 C22_3 1_555 1_555
O6_2 C28_2 1_555 1_555
O10_2 C29_2 1_555 1_555
O8_2 C29_2 1_555 1_555
C28_2 O5_2 1_555 1_555
C29_2 C31_2 1_555 1_555
C31_2 C30_2 1_555 1_555
C32_2 C31_2 1_555 1_555
H32_2 C32_2 1_555 1_555
C28_2 C30_2 1_555 1_555
Cd4 N9_2 1_555 1_555
N10_2 Cd4 1_555 1_555
H33_2 C33_2 1_555 1_555
C34_2 N10_2 1_555 1_555
H34_2 C34_2 1_555 1_555
N11 Cd4 1_555 1_555
C33_2 C34_2 1_555 1_555
N2_2 C8_2 1_555 1_555
C8_2 N11 1_555 1_555
C9_2 N11 1_555 1_555
H5_2 C9_2 1_555 1_555
C10_2 N2_2 1_555 1_555
H6_3 C10_2 1_555 1_555
C11_3 N2_2 1_555 1_555
H7_3 C11_3 1_555 1_555
C12_3 C11_3 1_555 1_555
H9_3 C12_3 1_555 1_555
C9_2 C10_2 1_555 1_555
H26_4 C24_4 1_555 1_555
C24_4 C25_4 1_555 1_555
H14_4 C16_4 1_555 1_555
H15_4 C16_4 1_555 1_555
C17_4 C16_4 1_555 1_555
H16_4 C17_4 1_555 1_555
H17_4 C17_4 1_555 1_555
N8_4 C23_4 1_555 1_555
C23_4 H25_4 1_555 1_555
Cd2 N9_3 1_555 1_555
N10_3 Cd2 1_555 1_555
O5_3 Cd2 1_555 1_555
O6_3 C28_3 1_555 1_555
O7 C29_3 1_555 1_555
O8_3 C29_3 1_555 1_555
C28_3 O5_3 1_555 1_555
C29_3 C31_3 1_555 1_555
C30_3 N10_3 1_555 1_555
C31_3 C30_3 1_555 1_555
C32_3 C31_3 1_555 1_555
H32_3 C32_3 1_555 1_555
C33_3 C32_3 1_555 1_555
H33_3 C33_3 1_555 1_555
C34_3 N10_3 1_555 1_555
H34_3 C34_3 1_555 1_555
Cd3 O7 1_555 1_555
N11_2 Cd2 1_555 1_555
O9 Cd2 1_555 1_555
C28_3 C30_3 1_555 1_555
C33_3 C34_3 1_555 1_555
N2_3 C8_3 1_555 1_555
C8_3 N11_2 1_555 1_555
H4_3 C8_3 1_555 1_555
C9_3 N11_2 1_555 1_555
H5_3 C9_3 1_555 1_555
C10_3 N2_3 1_555 1_555
C9_3 C10_3 1_555 1_555
N6_3 C18_3 1_555 1_555
N7_3 C18_3 1_555 1_555
C18_3 H18_3 1_555 1_555
C19_3 N7_3 1_555 1_555
H19_3 C19_3 1_555 1_555
C20_3 N6_3 1_555 1_555
Cd5_3 N7_3 1_555 1_555
C19_3 C20_3 1_555 1_555
N4_3 C13_3 1_555 1_555
O2_3 C1_3 1_555 1_555
O9 C2_3 1_555 1_555
O4_3 C2_3 1_555 1_555
C1_3 O1_3 1_555 1_555
C2_3 C4_3 1_555 1_555
C3_3 C1_3 1_555 1_555
C4_3 C3_3 1_555 1_555
C5_3 C4_3 1_555 1_555
H1_3 C5_3 1_555 1_555
H11_3 C13_3 1_555 1_555
N6_4 C18_4 1_555 1_555
N7_4 C18_4 1_555 1_555
C19_4 N7_4 1_555 1_555
H19_4 C19_4 1_555 1_555
C20_4 N6_4 1_555 1_555
H20_4 C20_4 1_555 1_555
C21_4 N6_4 1_555 1_555
H21_4 C21_4 1_555 1_555
H23_4 C22_4 1_555 1_555
H28_3 C26_3 1_555 1_555
H29_3 C26_3 1_555 1_555
H30_3 C27_3 1_555 1_555
H31_3 C27_3 1_555 1_555
Cd5_4 N7_4 1_555 1_555
C19_4 C20_4 1_555 1_555
C21_4 C22_4 1_555 1_555
C26_3 C27_3 1_555 1_555
Cd3 N1_3 1_555 1_555
N2_4 C8_4 1_555 1_555
N3_2 Cd3 1_555 1_555
N5_3 Cd3 1_555 1_555
H2_3 C6_3 1_555 1_555
C7_3 N1_3 1_555 1_555
H3_3 C7_3 1_555 1_555
C8_4 N3_2 1_555 1_555
C9_4 N3_2 1_555 1_555
H5_4 C9_4 1_555 1_555
C10_4 N2_4 1_555 1_555
H6_4 C10_4 1_555 1_555
C11_4 N2_4 1_555 1_555
H7_4 C11_4 1_555 1_555
C12_4 C11_4 1_555 1_555
H9_4 C12_4 1_555 1_555
C14_3 N5_3 1_555 1_555
H12_3 C14_3 1_555 1_555
C6_3 C7_3 1_555 1_555
C9_4 C10_4 1_555 1_555
C14_3 C15_3 1_555 1_555
Cd5_3 N9_4 1_555 1_555
N10_4 Cd5_3 1_555 1_555
O5_4 Cd5_3 1_555 1_555
O6_4 C28_4 1_555 1_555
O7_2 C29_4 1_555 1_555
O8_4 C29_4 1_555 1_555
C28_4 O5_4 1_555 1_555
C29_4 C31_4 1_555 1_555
C30_4 N10_4 1_555 1_555
C31_4 C30_4 1_555 1_555
C32_4 C31_4 1_555 1_555
H32_4 C32_4 1_555 1_555
C33_4 C32_4 1_555 1_555
H33_4 C33_4 1_555 1_555
C34_4 N10_4 1_555 1_555
H34_4 C34_4 1_555 1_555
Cd5_4 O7_2 1_555 1_555
O9_2 Cd5_3 1_555 1_555
C28_4 C30_4 1_555 1_555
C33_4 C34_4 1_555 1_555
Cd5_4 N1_4 1_555 1_555
N5_4 Cd5_4 1_555 1_555
H2_4 C6_4 1_555 1_555
C7_4 N1_4 1_555 1_555
H3_4 C7_4 1_555 1_555
C14_4 N5_4 1_555 1_555
H12_4 C14_4 1_555 1_555
C6_4 C7_4 1_555 1_555
C14_4 C15_4 1_555 1_555
N4_4 C13_4 1_555 1_555
O2_4 C1_4 1_555 1_555
O9_2 C2_4 1_555 1_555
O4_4 C2_4 1_555 1_555
C1_4 O1_4 1_555 1_555
C2_4 C4_4 1_555 1_555
C3_4 C1_4 1_555 1_555
C4_4 C3_4 1_555 1_555
C5_4 C4_4 1_555 1_555
H1_4 C5_4 1_555 1_555
H11_4 C13_4 1_555 1_555
H28_4 C26_4 1_555 1_555
H29_4 C26_4 1_555 1_555
H30_4 C27_4 1_555 1_555
H31_4 C27_4 1_555 1_555
C26_4 C27_4 1_555 1_555

#END
