
###############################################################################
#
# This file contains modified crystal structure data generated from the
# MOF subset of the Cambridge Structural Database (CSD) v543 
# hosted by the Cambridge Crystallographic Data Centre (CCDC).
#
# This work is licensed under the Creative Commons
# Attribution-NonCommercial-ShareAlike 4.0 International License.
# To view a copy of this license, visit
# http://creativecommons.org/licenses/by-nc-sa/4.0/
# or send a letter to
# Creative Commons, PO Box 1866, Mountain View, CA 94042, USA.
#
# CIF created using the CSD Python API on 29 September 2022
# The structure has been converted into the P1 space group
# The structure has a 3D framework
# The original CSD entry GISWEM is in the monoclinic crystal system
# The framework has been calculated to contain at least 10.0% void space
# The void calculation uses a probe of radius 1.32A, grid spacing 0.4
#
###############################################################################

data_GISWEM
_chemical_formula_moiety         '(C176 H128 N24 Ni8 O40)n'
_symmetry_cell_setting           triclinic
_symmetry_space_group_name_H-M   'P 1'
_symmetry_Int_Tables_number      1
_space_group_name_Hall           'P 1'
loop_
_symmetry_equiv_pos_site_id
_symmetry_equiv_pos_as_xyz
1 x,y,z
_cell_length_a                   17.241(6)
_cell_length_b                   15.950(6)
_cell_length_c                   16.740(6)
_cell_angle_alpha                90
_cell_angle_beta                 108.386(7)
_cell_angle_gamma                90
_cell_volume                     4368.41
loop_
_atom_site_label
_atom_site_type_symbol
_atom_site_fract_x
_atom_site_fract_y
_atom_site_fract_z
C1 C 0.3871(3) 0.2798(3) 0.3054(3)
C2 C 0.4303(3) 0.3115(3) 0.3927(3)
C3 C 0.5048(3) 0.2795(3) 0.4394(3)
H1 H 0.5298 0.2391 0.4159
C4 C 0.5434(3) 0.3065(3) 0.5211(3)
C5 C 0.5071(3) 0.3692(3) 0.5550(3)
H2 H 0.5328 0.3875 0.6098
C6 C 0.4330(3) 0.4048(3) 0.5084(3)
C7 C 0.3955(3) 0.3740(3) 0.4274(3)
H3 H 0.3454 0.3963 0.3957
C8 C 0.6219(3) 0.2644(3) 0.5711(3)
C9 C 0.3939(3) 0.4733(3) 0.5430(3)
C10 C 0.3179(4) 0.5022(5) 0.5009(4)
H4 H 0.2894 0.4786 0.4491
C11 C 0.2822(4) 0.5648(4) 0.5326(4)
H5 H 0.2308 0.5830 0.4997
C12 C 0.3887(4) 0.5730(4) 0.6459(4)
H6 H 0.4157 0.5975 0.6977
C13 C 0.4284(3) 0.5113(4) 0.6181(3)
H7 H 0.4804 0.4950 0.6513
C14 C 0.2066(4) 0.4906(4) 0.1965(5)
H8 H 0.2367 0.5181 0.1671
C15 C 0.1771(5) 0.5271(4) 0.2542(5)
H9 H 0.1834 0.5827 0.2718
C16 C 0.1449(3) 0.3964(3) 0.2404(3)
H10 H 0.1237 0.3446 0.2486
C17 C 0.0965(3) 0.4747(3) 0.3438(3)
C18 C 0.0957(5) 0.4118(4) 0.3968(5)
H11 H 0.1211 0.3612 0.3926
C19 C 0.0573(5) 0.4215(4) 0.4580(4)
H12 H 0.0572 0.3769 0.4937
C20 C 0.0202(3) 0.4942(3) 0.4670(3)
C21 C 0.0199(5) 0.5555(4) 0.4106(5)
C22 C 0.0578(5) 0.5472(4) 0.3505(4)
H14 H 0.0570 0.5914 0.3141
N1 N 0.3142(2) 0.6008(2) 0.6046(2)
N2 N 0.1860(2) 0.4085(2) 0.1880(2)
N3 N 0.1365(3) 0.4659(3) 0.2809(3)
Ni1 Ni 0.24760(4) 0.31315(4) 0.14850(4)
O1 O 0.3173(2) 0.3110(2) 0.27022(19)
O2 O 0.4212(3) 0.2276(3) 0.2738(2)
O3 O 0.6567(2) 0.2148(2) 0.53413(18)
O4 O 0.6515(2) 0.2768(2) 0.64935(19)
O5 O 0.3143(2) 0.2145(2) 0.1221(2)
H15 H 0.320(3) 0.213(6) 0.0750(11)
H16 H 0.3575(13) 0.215(3) 0.1610(17)
H22 H 0.0073 0.3947 0.5870
N8 N 0.3142(2) 0.3992(2) 0.1046(2)
Ni5 Ni 0.24760(4) 0.68685(4) 0.64850(4)
Ni6 Ni 0.74760(4) 0.18685(4) 0.64850(4)
O12 O 0.1567(2) 0.2852(2) 0.03413(18)
O14 O 0.1515(2) 0.2232(2) 0.14935(19)
H13 H 0.9927 0.6053 0.4130
C23 C 0.7934(4) 0.5094(4) 0.8035(5)
H17 H 0.7633 0.4819 0.8329
C24 C 0.8229(5) 0.4729(4) 0.7458(5)
H18 H 0.8166 0.4173 0.7282
C25 C 0.8551(3) 0.6036(3) 0.7596(3)
H19 H 0.8763 0.6554 0.7514
C26 C 0.9035(3) 0.5253(3) 0.6562(3)
C27 C 0.9043(5) 0.5882(4) 0.6032(5)
H20 H 0.8789 0.6388 0.6074
C28 C 0.9427(5) 0.5785(4) 0.5420(4)
H21 H 0.9428 0.6231 0.5063
C29 C 0.9798(3) 0.5058(3) 0.5330(3)
C30 C 0.9801(5) 0.4445(4) 0.5894(5)
C31 C 0.9422(5) 0.4528(4) 0.6495(4)
H23 H 0.9430 0.4086 0.6859
N4 N 0.8140(2) 0.5915(2) 0.8120(2)
N5 N 0.8635(3) 0.5341(3) 0.7191(3)
C32 C 0.6129(3) 0.7202(3) 0.6946(3)
C33 C 0.5697(3) 0.6885(3) 0.6073(3)
C34 C 0.4952(3) 0.7205(3) 0.5606(3)
H24 H 0.4702 0.7609 0.5841
C35 C 0.4566(3) 0.6935(3) 0.4789(3)
C36 C 0.4929(3) 0.6308(3) 0.4450(3)
H25 H 0.4672 0.6125 0.3902
C37 C 0.5670(3) 0.5952(3) 0.4916(3)
C38 C 0.6045(3) 0.6260(3) 0.5726(3)
H26 H 0.6546 0.6037 0.6043
C39 C 0.3781(3) 0.7356(3) 0.4289(3)
C40 C 0.6061(3) 0.5267(3) 0.4570(3)
C41 C 0.6821(4) 0.4978(5) 0.4991(4)
H27 H 0.7106 0.5214 0.5509
C42 C 0.7178(4) 0.4352(4) 0.4674(4)
H28 H 0.7692 0.4170 0.5003
C43 C 0.6113(4) 0.4270(4) 0.3541(4)
H29 H 0.5843 0.4025 0.3023
C44 C 0.5716(3) 0.4887(4) 0.3819(3)
H30 H 0.5196 0.5050 0.3487
N6 N 0.6858(2) 0.3992(2) 0.3954(2)
Ni2 Ni 0.75240(4) 0.68685(4) 0.85150(4)
O6 O 0.6827(2) 0.6890(2) 0.72978(19)
O7 O 0.5788(3) 0.7724(3) 0.7262(2)
O8 O 0.3433(2) 0.7852(2) 0.46587(18)
O9 O 0.3485(2) 0.7232(2) 0.35065(19)
O10 O 0.6857(2) 0.7855(2) 0.8779(2)
H31 H 0.680(3) 0.787(6) 0.9250(11)
H32 H 0.6425(13) 0.785(3) 0.8390(17)
N7 N 0.6858(2) 0.6008(2) 0.8954(2)
Ni3 Ni 0.75240(4) 0.31315(4) 0.35150(4)
Ni4 Ni 0.25240(4) 0.81315(4) 0.35150(4)
O11 O 0.8433(2) 0.7148(2) 0.96587(18)
O13 O 0.8485(2) 0.7768(2) 0.85065(19)
H13_2 H 0.0073 0.6053 0.0870
C35_2 C 0.5434(3) 0.6935(3) 0.0211(3)
C36_2 C 0.5071(3) 0.6308(3) 0.0550(3)
H25_2 H 0.5328 0.6125 0.1098
C37_2 C 0.4330(3) 0.5952(3) 0.0084(3)
C39_2 C 0.6219(3) 0.7356(3) 0.0711(3)
C40_2 C 0.3939(3) 0.5267(3) 0.0430(3)
C41_2 C 0.3179(4) 0.4978(5) 0.0009(4)
C42_2 C 0.2822(4) 0.4352(4) 0.0326(4)
C43_2 C 0.3887(4) 0.4270(4) 0.1459(4)
H29_2 H 0.4157 0.4025 0.1977
C44_2 C 0.4284(3) 0.4887(4) 0.1181(3)
H30_2 H 0.4804 0.5050 0.1513
O8_2 O 0.6567(2) 0.7852(2) 0.03413(18)
O9_2 O 0.6515(2) 0.7232(2) 0.14935(19)
Ni4_2 Ni 0.74760(4) 0.81315(4) 0.14850(4)
C23_2 C 0.2066(4) 0.5094(4) 0.6965(5)
H17_2 H 0.2367 0.4819 0.6671
C24_2 C 0.1771(5) 0.4729(4) 0.7542(5)
H18_2 H 0.1834 0.4173 0.7718
C25_2 C 0.1449(3) 0.6036(3) 0.7404(3)
H19_2 H 0.1237 0.6554 0.7486
C26_2 C 0.0965(3) 0.5253(3) 0.8438(3)
C27_2 C 0.0957(5) 0.5882(4) 0.8968(5)
H20_2 H 0.1211 0.6388 0.8926
C28_2 C 0.0573(5) 0.5785(4) 0.9580(4)
H21_2 H 0.0572 0.6231 0.9937
C29_2 C 0.0202(3) 0.5058(3) 0.9670(3)
C30_2 C 0.0199(5) 0.4445(4) 0.9106(5)
C31_2 C 0.0578(5) 0.4528(4) 0.8505(4)
H23_2 H 0.0570 0.4086 0.8141
N4_2 N 0.1860(2) 0.5915(2) 0.6880(2)
N5_2 N 0.1365(3) 0.5341(3) 0.7809(3)
C32_2 C 0.3871(3) 0.7202(3) 0.8054(3)
C33_2 C 0.4303(3) 0.6885(3) 0.8927(3)
C34_2 C 0.5048(3) 0.7205(3) 0.9394(3)
H24_2 H 0.5298 0.7609 0.9159
C38_2 C 0.3955(3) 0.6260(3) 0.9274(3)
H26_2 H 0.3454 0.6037 0.8957
H27_2 H 0.2894 0.5214 0.9491
H28_2 H 0.2308 0.4170 0.9997
O6_2 O 0.3173(2) 0.6890(2) 0.77022(19)
O7_2 O 0.4212(3) 0.7724(3) 0.7738(2)
O10_2 O 0.3143(2) 0.7855(2) 0.6221(2)
H31_2 H 0.320(3) 0.787(6) 0.5750(11)
H32_2 H 0.3575(13) 0.785(3) 0.6610(17)
O11_2 O 0.1567(2) 0.7148(2) 0.53413(18)
O13_2 O 0.1515(2) 0.7768(2) 0.64935(19)
C1_2 C 0.6129(3) 0.2798(3) 0.1946(3)
C2_2 C 0.5697(3) 0.3115(3) 0.1073(3)
C3_2 C 0.4952(3) 0.2795(3) 0.0606(3)
H1_2 H 0.4702 0.2391 0.0841
C7_2 C 0.6045(3) 0.3740(3) 0.0726(3)
H3_2 H 0.6546 0.3963 0.1043
H4_2 H 0.7106 0.4786 0.0509
H5_2 H 0.7692 0.5830 0.0003
C14_2 C 0.7934(4) 0.4906(4) 0.3035(5)
H8_2 H 0.7633 0.5181 0.3329
C15_2 C 0.8229(5) 0.5271(4) 0.2458(5)
H9_2 H 0.8166 0.5827 0.2282
C16_2 C 0.8551(3) 0.3964(3) 0.2596(3)
H10_2 H 0.8763 0.3446 0.2514
C17_2 C 0.9035(3) 0.4747(3) 0.1562(3)
C18_2 C 0.9043(5) 0.4118(4) 0.1032(5)
H11_2 H 0.8789 0.3612 0.1074
C19_2 C 0.9427(5) 0.4215(4) 0.0420(4)
H12_2 H 0.9428 0.3769 0.0063
C20_2 C 0.9798(3) 0.4942(3) 0.0330(3)
C21_2 C 0.9801(5) 0.5555(4) 0.0894(5)
C22_2 C 0.9422(5) 0.5472(4) 0.1495(4)
H14_2 H 0.9430 0.5914 0.1859
N2_2 N 0.8140(2) 0.4085(2) 0.3120(2)
N3_2 N 0.8635(3) 0.4659(3) 0.2191(3)
O1_2 O 0.6827(2) 0.3110(2) 0.22978(19)
O2_2 O 0.5788(3) 0.2276(3) 0.2262(2)
O5_2 O 0.6857(2) 0.2145(2) 0.3779(2)
H15_2 H 0.680(3) 0.213(6) 0.4250(11)
H16_2 H 0.6425(13) 0.215(3) 0.3390(17)
O12_2 O 0.8433(2) 0.2852(2) 0.46587(18)
O14_2 O 0.8485(2) 0.2232(2) 0.35065(19)
C4_2 C 0.4566(3) 0.3065(3) 0.9789(3)
C5_2 C 0.4929(3) 0.3692(3) 0.9450(3)
H2_2 H 0.4672 0.3875 0.8902
C6_2 C 0.5670(3) 0.4048(3) 0.9916(3)
C8_2 C 0.3781(3) 0.2644(3) 0.9289(3)
C9_2 C 0.6061(3) 0.4733(3) 0.9570(3)
C10_2 C 0.6821(4) 0.5022(5) 0.9991(4)
C11_2 C 0.7178(4) 0.5648(4) 0.9674(4)
C12_2 C 0.6113(4) 0.5730(4) 0.8541(4)
H6_2 H 0.5843 0.5975 0.8023
C13_2 C 0.5716(3) 0.5113(4) 0.8819(3)
H7_2 H 0.5196 0.4950 0.8487
O3_2 O 0.3433(2) 0.2148(2) 0.96587(18)
O4_2 O 0.3485(2) 0.2768(2) 0.85065(19)
H22_2 H 0.9927 0.3947 0.9130
Ni6_2 Ni 0.25240(4) 0.18685(4) 0.85150(4)
C3_3 C 0.0048(3) 0.7795(3) 0.4394(3)
H1_3 H 0.0298 0.7391 0.4159
C4_3 C 0.0434(3) 0.8065(3) 0.5211(3)
C5_3 C 0.0071(3) 0.8692(3) 0.5550(3)
H2_3 H 0.0328 0.8875 0.6098
C8_3 C 0.1219(3) 0.7644(3) 0.5711(3)
C10_3 C 0.8179(4) 0.0022(5) 0.5009(4)
C11_3 C 0.7822(4) 0.0648(4) 0.5326(4)
H5_3 H 0.7308 0.0830 0.4997
C12_3 C 0.8887(4) 0.0730(4) 0.6459(4)
H6_3 H 0.9157 0.0975 0.6977
C13_3 C 0.9284(3) 0.0113(4) 0.6181(3)
H8_3 H 0.7367 0.0181 0.1671
C15_3 C 0.6771(5) 0.0271(4) 0.2542(5)
H9_3 H 0.6834 0.0827 0.2718
C21_3 C 0.5199(5) 0.0555(4) 0.4106(5)
H13_3 H 0.4927 0.1053 0.4130
C22_3 C 0.5578(5) 0.0472(4) 0.3505(4)
H14_3 H 0.5570 0.0914 0.3141
N1_2 N 0.8142(2) 0.1008(2) 0.6046(2)
C23_3 C 0.2934(4) 0.0094(4) 0.8035(5)
C25_3 C 0.3551(3) 0.1036(3) 0.7596(3)
H19_3 H 0.3763 0.1554 0.7514
C26_3 C 0.4035(3) 0.0253(3) 0.6562(3)
C27_3 C 0.4043(5) 0.0882(4) 0.6032(5)
H20_3 H 0.3789 0.1388 0.6074
C28_3 C 0.4427(5) 0.0785(4) 0.5420(4)
H21_3 H 0.4428 0.1231 0.5063
C29_3 C 0.4798(3) 0.0058(3) 0.5330(3)
N4_3 N 0.3140(2) 0.0915(2) 0.8120(2)
N5_3 N 0.3635(3) 0.0341(3) 0.7191(3)
C32_3 C 0.1129(3) 0.2202(3) 0.6946(3)
C33_3 C 0.0697(3) 0.1885(3) 0.6073(3)
C37_3 C 0.0670(3) 0.0952(3) 0.4916(3)
C38_3 C 0.1045(3) 0.1260(3) 0.5726(3)
H26_3 H 0.1546 0.1037 0.6043
C40_3 C 0.1061(3) 0.0267(3) 0.4570(3)
H27_3 H 0.2106 0.0214 0.5509
H30_3 H 0.0196 0.0050 0.3487
O6_3 O 0.1827(2) 0.1890(2) 0.72978(19)
O7_3 O 0.0788(3) 0.2724(3) 0.7262(2)
O10_3 O 0.1857(2) 0.2855(2) 0.8779(2)
H31_3 H 0.180(3) 0.287(6) 0.9250(11)
H32_3 H 0.1425(13) 0.285(3) 0.8390(17)
N7_2 N 0.1858(2) 0.1008(2) 0.8954(2)
C1_3 C 0.8871(3) 0.7798(3) 0.3054(3)
C2_3 C 0.9303(3) 0.8115(3) 0.3927(3)
C6_3 C 0.9330(3) 0.9048(3) 0.5084(3)
C7_3 C 0.8955(3) 0.8740(3) 0.4274(3)
H3_3 H 0.8454 0.8963 0.3957
C9_3 C 0.8939(3) 0.9733(3) 0.5430(3)
H4_3 H 0.7894 0.9786 0.4491
H7_3 H 0.9804 0.9950 0.6513
C14_3 C 0.7066(4) 0.9906(4) 0.1965(5)
C16_3 C 0.6449(3) 0.8964(3) 0.2404(3)
H10_3 H 0.6237 0.8446 0.2486
C17_3 C 0.5965(3) 0.9747(3) 0.3438(3)
C18_3 C 0.5957(5) 0.9118(4) 0.3968(5)
H11_3 H 0.6211 0.8612 0.3926
C19_3 C 0.5573(5) 0.9215(4) 0.4580(4)
H12_3 H 0.5572 0.8769 0.4937
C20_3 C 0.5202(3) 0.9942(3) 0.4670(3)
N2_3 N 0.6860(2) 0.9085(2) 0.1880(2)
N3_3 N 0.6365(3) 0.9659(3) 0.2809(3)
O1_3 O 0.8173(2) 0.8110(2) 0.27022(19)
O2_3 O 0.9212(3) 0.7276(3) 0.2738(2)
O5_3 O 0.8143(2) 0.7145(2) 0.1221(2)
H15_3 H 0.820(3) 0.713(6) 0.0750(11)
H16_3 H 0.8575(13) 0.715(3) 0.1610(17)
H17_3 H 0.2633 0.9819 0.8329
C24_3 C 0.3229(5) 0.9729(4) 0.7458(5)
H18_3 H 0.3166 0.9173 0.7282
C30_3 C 0.4801(5) 0.9445(4) 0.5894(5)
H22_3 H 0.5073 0.8947 0.5870
C31_3 C 0.4422(5) 0.9528(4) 0.6495(4)
H23_3 H 0.4430 0.9086 0.6859
C41_3 C 0.1821(4) 0.9978(5) 0.4991(4)
C42_3 C 0.2178(4) 0.9352(4) 0.4674(4)
H28_3 H 0.2692 0.9170 0.5003
C43_3 C 0.1113(4) 0.9270(4) 0.3541(4)
H29_3 H 0.0843 0.9025 0.3023
C44_3 C 0.0716(3) 0.9887(4) 0.3819(3)
N6_2 N 0.1858(2) 0.8992(2) 0.3954(2)
N8_2 N 0.8142(2) 0.8992(2) 0.1046(2)
C34_3 C 0.9952(3) 0.2205(3) 0.5606(3)
H24_3 H 0.9702 0.2609 0.5841
C35_3 C 0.9566(3) 0.1935(3) 0.4789(3)
C36_3 C 0.9929(3) 0.1308(3) 0.4450(3)
H25_3 H 0.9672 0.1125 0.3902
C39_3 C 0.8781(3) 0.2356(3) 0.4289(3)
C35_4 C 0.0434(3) 0.1935(3) 0.0211(3)
C36_4 C 0.0071(3) 0.1308(3) 0.0550(3)
H25_4 H 0.0328 0.1125 0.1098
C39_4 C 0.1219(3) 0.2356(3) 0.0711(3)
C10_4 C 0.1821(4) 0.0022(5) 0.9991(4)
C11_4 C 0.2178(4) 0.0648(4) 0.9674(4)
C12_4 C 0.1113(4) 0.0730(4) 0.8541(4)
H6_4 H 0.0843 0.0975 0.8023
C13_4 C 0.0716(3) 0.0113(4) 0.8819(3)
C23_4 C 0.7066(4) 0.0094(4) 0.6965(5)
C25_4 C 0.6449(3) 0.1036(3) 0.7404(3)
H19_4 H 0.6237 0.1554 0.7486
C26_4 C 0.5965(3) 0.0253(3) 0.8438(3)
C27_4 C 0.5957(5) 0.0882(4) 0.8968(5)
H20_4 H 0.6211 0.1388 0.8926
C28_4 C 0.5573(5) 0.0785(4) 0.9580(4)
H21_4 H 0.5572 0.1231 0.9937
C29_4 C 0.5202(3) 0.0058(3) 0.9670(3)
N4_4 N 0.6860(2) 0.0915(2) 0.6880(2)
N5_4 N 0.6365(3) 0.0341(3) 0.7809(3)
C32_4 C 0.8871(3) 0.2202(3) 0.8054(3)
C33_4 C 0.9303(3) 0.1885(3) 0.8927(3)
C38_4 C 0.8955(3) 0.1260(3) 0.9274(3)
H26_4 H 0.8454 0.1037 0.8957
H27_4 H 0.7894 0.0214 0.9491
O6_4 O 0.8173(2) 0.1890(2) 0.77022(19)
O7_4 O 0.9212(3) 0.2724(3) 0.7738(2)
O10_4 O 0.8143(2) 0.2855(2) 0.6221(2)
H31_4 H 0.820(3) 0.287(6) 0.5750(11)
H32_4 H 0.8575(13) 0.285(3) 0.6610(17)
C1_4 C 0.1129(3) 0.7798(3) 0.1946(3)
C2_4 C 0.0697(3) 0.8115(3) 0.1073(3)
C7_4 C 0.1045(3) 0.8740(3) 0.0726(3)
H3_4 H 0.1546 0.8963 0.1043
H4_4 H 0.2106 0.9786 0.0509
C14_4 C 0.2934(4) 0.9906(4) 0.3035(5)
C16_4 C 0.3551(3) 0.8964(3) 0.2596(3)
H10_4 H 0.3763 0.8446 0.2514
C17_4 C 0.4035(3) 0.9747(3) 0.1562(3)
C18_4 C 0.4043(5) 0.9118(4) 0.1032(5)
H11_4 H 0.3789 0.8612 0.1074
C19_4 C 0.4427(5) 0.9215(4) 0.0420(4)
H12_4 H 0.4428 0.8769 0.0063
C20_4 C 0.4798(3) 0.9942(3) 0.0330(3)
N2_4 N 0.3140(2) 0.9085(2) 0.3120(2)
N3_4 N 0.3635(3) 0.9659(3) 0.2191(3)
O1_4 O 0.1827(2) 0.8110(2) 0.22978(19)
O2_4 O 0.0788(3) 0.7276(3) 0.2262(2)
O5_4 O 0.1857(2) 0.7145(2) 0.3779(2)
H15_4 H 0.180(3) 0.713(6) 0.4250(11)
H16_4 H 0.1425(13) 0.715(3) 0.3390(17)
C41_4 C 0.8179(4) 0.9978(5) 0.0009(4)
C42_4 C 0.7822(4) 0.9352(4) 0.0326(4)
C43_4 C 0.8887(4) 0.9270(4) 0.1459(4)
H29_4 H 0.9157 0.9025 0.1977
C44_4 C 0.9284(3) 0.9887(4) 0.1181(3)
C4_4 C 0.9566(3) 0.8065(3) 0.9789(3)
C5_4 C 0.9929(3) 0.8692(3) 0.9450(3)
H2_4 H 0.9672 0.8875 0.8902
C8_4 C 0.8781(3) 0.7644(3) 0.9289(3)
C34_4 C 0.0048(3) 0.2205(3) 0.9394(3)
H24_4 H 0.0298 0.2609 0.9159
H5_4 H 0.2692 0.0830 0.0003
H8_4 H 0.2633 0.0181 0.3329
C15_4 C 0.3229(5) 0.0271(4) 0.2458(5)
H9_4 H 0.3166 0.0827 0.2282
C21_4 C 0.4801(5) 0.0555(4) 0.0894(5)
H13_4 H 0.5073 0.1053 0.0870
C22_4 C 0.4422(5) 0.0472(4) 0.1495(4)
H14_4 H 0.4430 0.0914 0.1859
C37_4 C 0.9330(3) 0.0952(3) 0.0084(3)
C40_4 C 0.8939(3) 0.0267(3) 0.0430(3)
H30_4 H 0.9804 0.0050 0.1513
C6_4 C 0.0670(3) 0.9048(3) 0.9916(3)
C9_4 C 0.1061(3) 0.9733(3) 0.9570(3)
H7_4 H 0.0196 0.9950 0.8487
H17_4 H 0.7367 0.9819 0.6671
C24_4 C 0.6771(5) 0.9729(4) 0.7542(5)
H18_4 H 0.6834 0.9173 0.7718
C30_4 C 0.5199(5) 0.9445(4) 0.9106(5)
H22_4 H 0.4927 0.8947 0.9130
C31_4 C 0.5578(5) 0.9528(4) 0.8505(4)
H23_4 H 0.5570 0.9086 0.8141
H28_4 H 0.7308 0.9170 0.9997
C3_4 C 0.9952(3) 0.7795(3) 0.0606(3)
H1_4 H 0.9702 0.7391 0.0841
loop_
_geom_bond_atom_site_label_1
_geom_bond_atom_site_label_2
_geom_bond_site_symmetry_1
_geom_bond_site_symmetry_2
C1 C2 1_555 1_555
C2 C3 1_555 1_555
C3 H1 1_555 1_555
C4 C3 1_555 1_555
C5 C4 1_555 1_555
H2 C5 1_555 1_555
C6 C5 1_555 1_555
C7 C2 1_555 1_555
H3 C7 1_555 1_555
C8 C4 1_555 1_555
C9 C6 1_555 1_555
C10 C9 1_555 1_555
H4 C10 1_555 1_555
C11 C10 1_555 1_555
H5 C11 1_555 1_555
C12 H6 1_555 1_555
C13 C9 1_555 1_555
H7 C13 1_555 1_555
C14 H8 1_555 1_555
C15 C14 1_555 1_555
H9 C15 1_555 1_555
C16 H10 1_555 1_555
C17 C18 1_555 1_555
C18 H11 1_555 1_555
C19 C18 1_555 1_555
H12 C19 1_555 1_555
C20 C19 1_555 1_555
C21 C20 1_555 1_555
C22 C17 1_555 1_555
H14 C22 1_555 1_555
N1 C11 1_555 1_555
N2 C14 1_555 1_555
N3 C15 1_555 1_555
Ni1 N2 1_555 1_555
O1 C1 1_555 1_555
O2 C1 1_555 1_555
O3 C8 1_555 1_555
O4 C8 1_555 1_555
O5 Ni1 1_555 1_555
H15 O5 1_555 1_555
H16 O5 1_555 1_555
N8 Ni1 1_555 1_555
Ni5 N1 1_555 1_555
Ni6 O3 1_555 1_555
O12 Ni1 1_555 1_555
O14 Ni1 1_555 1_555
C6 C7 1_555 1_555
C12 C13 1_555 1_555
C12 N1 1_555 1_555
C16 N2 1_555 1_555
C16 N3 1_555 1_555
C17 N3 1_555 1_555
C21 C22 1_555 1_555
Ni1 O1 1_555 1_555
O4 Ni6 1_555 1_555
C23 H17 1_555 1_555
C24 C23 1_555 1_555
H18 C24 1_555 1_555
C25 H19 1_555 1_555
C26 C27 1_555 1_555
C27 H20 1_555 1_555
C28 C27 1_555 1_555
H21 C28 1_555 1_555
C30 C29 1_555 1_555
C31 C26 1_555 1_555
H23 C31 1_555 1_555
N4 C23 1_555 1_555
N5 C24 1_555 1_555
C32 C33 1_555 1_555
C33 C34 1_555 1_555
C34 H24 1_555 1_555
C35 C34 1_555 1_555
C36 C35 1_555 1_555
H25 C36 1_555 1_555
C37 C36 1_555 1_555
C38 C33 1_555 1_555
H26 C38 1_555 1_555
C39 C35 1_555 1_555
C40 C37 1_555 1_555
C41 C40 1_555 1_555
H27 C41 1_555 1_555
C42 C41 1_555 1_555
H28 C42 1_555 1_555
C43 H29 1_555 1_555
C44 C40 1_555 1_555
H30 C44 1_555 1_555
N6 C42 1_555 1_555
Ni2 N4 1_555 1_555
O6 C32 1_555 1_555
O7 C32 1_555 1_555
O8 C39 1_555 1_555
O9 C39 1_555 1_555
O10 Ni2 1_555 1_555
H31 O10 1_555 1_555
H32 O10 1_555 1_555
N7 Ni2 1_555 1_555
Ni3 N6 1_555 1_555
Ni4 O8 1_555 1_555
O11 Ni2 1_555 1_555
O13 Ni2 1_555 1_555
C25 N4 1_555 1_555
C25 N5 1_555 1_555
C26 N5 1_555 1_555
C28 C29 1_555 1_555
C30 C31 1_555 1_555
C37 C38 1_555 1_555
C43 C44 1_555 1_555
C43 N6 1_555 1_555
Ni2 O6 1_555 1_555
O9 Ni4 1_555 1_555
C36_2 C35_2 1_555 1_555
H25_2 C36_2 1_555 1_555
C37_2 C36_2 1_555 1_555
C39_2 C35_2 1_555 1_555
C40_2 C37_2 1_555 1_555
C41_2 C40_2 1_555 1_555
C42_2 C41_2 1_555 1_555
C43_2 H29_2 1_555 1_555
C44_2 C40_2 1_555 1_555
H30_2 C44_2 1_555 1_555
N8 C42_2 1_555 1_555
O8_2 C39_2 1_555 1_555
O9_2 C39_2 1_555 1_555
Ni4_2 O8_2 1_555 1_555
C43_2 C44_2 1_555 1_555
C43_2 N8 1_555 1_555
O9_2 Ni4_2 1_555 1_555
C23_2 H17_2 1_555 1_555
C24_2 C23_2 1_555 1_555
H18_2 C24_2 1_555 1_555
C25_2 H19_2 1_555 1_555
C26_2 C27_2 1_555 1_555
C27_2 H20_2 1_555 1_555
C28_2 C27_2 1_555 1_555
H21_2 C28_2 1_555 1_555
C30_2 C29_2 1_555 1_555
C31_2 C26_2 1_555 1_555
H23_2 C31_2 1_555 1_555
N4_2 C23_2 1_555 1_555
N5_2 C24_2 1_555 1_555
C32_2 C33_2 1_555 1_555
C33_2 C34_2 1_555 1_555
C34_2 H24_2 1_555 1_555
C38_2 C33_2 1_555 1_555
H26_2 C38_2 1_555 1_555
Ni5 N4_2 1_555 1_555
O6_2 C32_2 1_555 1_555
O7_2 C32_2 1_555 1_555
O10_2 Ni5 1_555 1_555
H31_2 O10_2 1_555 1_555
H32_2 O10_2 1_555 1_555
O11_2 Ni5 1_555 1_555
O13_2 Ni5 1_555 1_555
C25_2 N4_2 1_555 1_555
C25_2 N5_2 1_555 1_555
C26_2 N5_2 1_555 1_555
C28_2 C29_2 1_555 1_555
C30_2 C31_2 1_555 1_555
Ni5 O6_2 1_555 1_555
C1_2 C2_2 1_555 1_555
C2_2 C3_2 1_555 1_555
C3_2 H1_2 1_555 1_555
C7_2 C2_2 1_555 1_555
H3_2 C7_2 1_555 1_555
C14_2 H8_2 1_555 1_555
C15_2 C14_2 1_555 1_555
H9_2 C15_2 1_555 1_555
C16_2 H10_2 1_555 1_555
C17_2 C18_2 1_555 1_555
C18_2 H11_2 1_555 1_555
C19_2 C18_2 1_555 1_555
H12_2 C19_2 1_555 1_555
C20_2 C19_2 1_555 1_555
C21_2 C20_2 1_555 1_555
C22_2 C17_2 1_555 1_555
H14_2 C22_2 1_555 1_555
N2_2 C14_2 1_555 1_555
N3_2 C15_2 1_555 1_555
Ni3 N2_2 1_555 1_555
O1_2 C1_2 1_555 1_555
O2_2 C1_2 1_555 1_555
O5_2 Ni3 1_555 1_555
H15_2 O5_2 1_555 1_555
H16_2 O5_2 1_555 1_555
O12_2 Ni3 1_555 1_555
O14_2 Ni3 1_555 1_555
C16_2 N2_2 1_555 1_555
C16_2 N3_2 1_555 1_555
C17_2 N3_2 1_555 1_555
C21_2 C22_2 1_555 1_555
Ni3 O1_2 1_555 1_555
C5_2 C4_2 1_555 1_555
H2_2 C5_2 1_555 1_555
C6_2 C5_2 1_555 1_555
C8_2 C4_2 1_555 1_555
C9_2 C6_2 1_555 1_555
C10_2 C9_2 1_555 1_555
C11_2 C10_2 1_555 1_555
C12_2 H6_2 1_555 1_555
C13_2 C9_2 1_555 1_555
H7_2 C13_2 1_555 1_555
N7 C11_2 1_555 1_555
O3_2 C8_2 1_555 1_555
O4_2 C8_2 1_555 1_555
Ni6_2 O3_2 1_555 1_555
C12_2 C13_2 1_555 1_555
C12_2 N7 1_555 1_555
O4_2 Ni6_2 1_555 1_555
C3_3 H1_3 1_555 1_555
C4_3 C3_3 1_555 1_555
C5_3 C4_3 1_555 1_555
H2_3 C5_3 1_555 1_555
C8_3 C4_3 1_555 1_555
O11_2 C8_3 1_555 1_555
O13_2 C8_3 1_555 1_555
C11_3 C10_3 1_555 1_555
H5_3 C11_3 1_555 1_555
C12_3 H6_3 1_555 1_555
H9_3 C15_3 1_555 1_555
H13_3 C21_3 1_555 1_555
H14_3 C22_3 1_555 1_555
N1_2 C11_3 1_555 1_555
C25_3 H19_3 1_555 1_555
C26_3 C27_3 1_555 1_555
C27_3 H20_3 1_555 1_555
C28_3 C27_3 1_555 1_555
H21_3 C28_3 1_555 1_555
N4_3 C23_3 1_555 1_555
C32_3 C33_3 1_555 1_555
C38_3 C33_3 1_555 1_555
H26_3 C38_3 1_555 1_555
C40_3 C37_3 1_555 1_555
Ni6_2 N4_3 1_555 1_555
O6_3 C32_3 1_555 1_555
O7_3 C32_3 1_555 1_555
O10_3 Ni6_2 1_555 1_555
H31_3 O10_3 1_555 1_555
H32_3 O10_3 1_555 1_555
N7_2 Ni6_2 1_555 1_555
Ni6 N1_2 1_555 1_555
C12_3 C13_3 1_555 1_555
C12_3 N1_2 1_555 1_555
C21_3 C22_3 1_555 1_555
C25_3 N4_3 1_555 1_555
C25_3 N5_3 1_555 1_555
C26_3 N5_3 1_555 1_555
C28_3 C29_3 1_555 1_555
C37_3 C38_3 1_555 1_555
Ni6_2 O6_3 1_555 1_555
C1_3 C2_3 1_555 1_555
C7_3 C2_3 1_555 1_555
H3_3 C7_3 1_555 1_555
C9_3 C6_3 1_555 1_555
C16_3 H10_3 1_555 1_555
C17_3 C18_3 1_555 1_555
C18_3 H11_3 1_555 1_555
C19_3 C18_3 1_555 1_555
H12_3 C19_3 1_555 1_555
C20_3 C19_3 1_555 1_555
N2_3 C14_3 1_555 1_555
Ni4_2 N2_3 1_555 1_555
O1_3 C1_3 1_555 1_555
O2_3 C1_3 1_555 1_555
O5_3 Ni4_2 1_555 1_555
H15_3 O5_3 1_555 1_555
H16_3 O5_3 1_555 1_555
H18_3 C24_3 1_555 1_555
H22_3 C30_3 1_555 1_555
H23_3 C31_3 1_555 1_555
C42_3 C41_3 1_555 1_555
H28_3 C42_3 1_555 1_555
C43_3 H29_3 1_555 1_555
N6_2 C42_3 1_555 1_555
N8_2 Ni4_2 1_555 1_555
Ni4 N6_2 1_555 1_555
C6_3 C7_3 1_555 1_555
C16_3 N2_3 1_555 1_555
C16_3 N3_3 1_555 1_555
C17_3 N3_3 1_555 1_555
Ni4_2 O1_3 1_555 1_555
C30_3 C31_3 1_555 1_555
C43_3 C44_3 1_555 1_555
C43_3 N6_2 1_555 1_555
C34_3 H24_3 1_555 1_555
C35_3 C34_3 1_555 1_555
C36_3 C35_3 1_555 1_555
H25_3 C36_3 1_555 1_555
C39_3 C35_3 1_555 1_555
O12_2 C39_3 1_555 1_555
O14_2 C39_3 1_555 1_555
C36_4 C35_4 1_555 1_555
H25_4 C36_4 1_555 1_555
C39_4 C35_4 1_555 1_555
O12 C39_4 1_555 1_555
O14 C39_4 1_555 1_555
C11_4 C10_4 1_555 1_555
C12_4 H6_4 1_555 1_555
N7_2 C11_4 1_555 1_555
C25_4 H19_4 1_555 1_555
C26_4 C27_4 1_555 1_555
C27_4 H20_4 1_555 1_555
C28_4 C27_4 1_555 1_555
H21_4 C28_4 1_555 1_555
N4_4 C23_4 1_555 1_555
C32_4 C33_4 1_555 1_555
C38_4 C33_4 1_555 1_555
H26_4 C38_4 1_555 1_555
Ni6 N4_4 1_555 1_555
O6_4 C32_4 1_555 1_555
O7_4 C32_4 1_555 1_555
O10_4 Ni6 1_555 1_555
H31_4 O10_4 1_555 1_555
H32_4 O10_4 1_555 1_555
C12_4 C13_4 1_555 1_555
C12_4 N7_2 1_555 1_555
C25_4 N4_4 1_555 1_555
C25_4 N5_4 1_555 1_555
C26_4 N5_4 1_555 1_555
C28_4 C29_4 1_555 1_555
Ni6 O6_4 1_555 1_555
C1_4 C2_4 1_555 1_555
C7_4 C2_4 1_555 1_555
H3_4 C7_4 1_555 1_555
C16_4 H10_4 1_555 1_555
C17_4 C18_4 1_555 1_555
C18_4 H11_4 1_555 1_555
C19_4 C18_4 1_555 1_555
H12_4 C19_4 1_555 1_555
C20_4 C19_4 1_555 1_555
N2_4 C14_4 1_555 1_555
Ni4 N2_4 1_555 1_555
O1_4 C1_4 1_555 1_555
O2_4 C1_4 1_555 1_555
O5_4 Ni4 1_555 1_555
H15_4 O5_4 1_555 1_555
H16_4 O5_4 1_555 1_555
C42_4 C41_4 1_555 1_555
C43_4 H29_4 1_555 1_555
N8_2 C42_4 1_555 1_555
C16_4 N2_4 1_555 1_555
C16_4 N3_4 1_555 1_555
C17_4 N3_4 1_555 1_555
Ni4 O1_4 1_555 1_555
C43_4 C44_4 1_555 1_555
C43_4 N8_2 1_555 1_555
C5_4 C4_4 1_555 1_555
H2_4 C5_4 1_555 1_555
C8_4 C4_4 1_555 1_555
O11 C8_4 1_555 1_555
O13 C8_4 1_555 1_555
C34_4 H24_4 1_555 1_555
H9_4 C15_4 1_555 1_555
H13_4 C21_4 1_555 1_555
H14_4 C22_4 1_555 1_555
C40_4 C37_4 1_555 1_555
C21_4 C22_4 1_555 1_555
C9_4 C6_4 1_555 1_555
H18_4 C24_4 1_555 1_555
H22_4 C30_4 1_555 1_555
H23_4 C31_4 1_555 1_555
C30_4 C31_4 1_555 1_555
C3_4 H1_4 1_555 1_555

#END
