
###############################################################################
#
# This file contains modified crystal structure data generated from the
# MOF subset of the Cambridge Structural Database (CSD) v543 
# hosted by the Cambridge Crystallographic Data Centre (CCDC).
#
# This work is licensed under the Creative Commons
# Attribution-NonCommercial-ShareAlike 4.0 International License.
# To view a copy of this license, visit
# http://creativecommons.org/licenses/by-nc-sa/4.0/
# or send a letter to
# Creative Commons, PO Box 1866, Mountain View, CA 94042, USA.
#
# CIF created using the CSD Python API on 29 September 2022
# The structure has been converted into the P1 space group
# The structure has a 3D framework
# The original CSD entry GISZUF is in the monoclinic crystal system
# The framework has been calculated to contain at least 10.0% void space
# The void calculation uses a probe of radius 1.32A, grid spacing 0.4
# The framework is charged, counterions have been retained in the structure
#
###############################################################################

data_GISZUF
_chemical_formula_moiety         '(C192 H208 Cd12 N32 O72 S12)n'
_symmetry_cell_setting           triclinic
_symmetry_space_group_name_H-M   'P 1'
_symmetry_Int_Tables_number      1
_space_group_name_Hall           'P 1'
loop_
_symmetry_equiv_pos_site_id
_symmetry_equiv_pos_as_xyz
1 x,y,z
_cell_length_a                   14.070(3)
_cell_length_b                   22.001(4)
_cell_length_c                   20.966(4)
_cell_angle_alpha                90
_cell_angle_beta                 101.07(3)
_cell_angle_gamma                90
_cell_volume                     6369.35
loop_
_atom_site_label
_atom_site_type_symbol
_atom_site_fract_x
_atom_site_fract_y
_atom_site_fract_z
Cd9 Cd 0.17939(3) 0.002884(17) 0.197447(19)
N6 N 0.0408(3) 0.7430(2) 0.6563(2)
N7 N 0.2728(3) 0.58423(19) 0.3587(2)
N8 N 0.1330(3) 0.92773(19) 0.2628(2)
C31 C 0.0107(4) 0.6920(3) 0.6245(3)
C32 C 0.0102(4) 0.6849(2) 0.5589(2)
C33 C 0.0398(3) 0.7308(2) 0.5233(2)
C34 C 0.0735(4) 0.7832(2) 0.5573(3)
H40 H 0.0969 0.8153 0.5359
C35 C 0.0723(4) 0.7876(3) 0.6226(3)
H41 H 0.0943 0.8233 0.6442
C36 C 0.0327(3) 0.7250(2) 0.4514(2)
H42 H 0.0054 0.6852 0.4370
C37 C 0.2838(4) 0.6402(2) 0.3370(3)
H43 H 0.3238 0.6457 0.3069
C38 C 0.2386(4) 0.6903(2) 0.3570(3)
H44 H 0.2484 0.7284 0.3403
C39 C 0.1786(3) 0.6842(2) 0.4019(2)
C40 C 0.1712(4) 0.6267(2) 0.4258(3)
H45 H 0.1342 0.6202 0.4575
C41 C 0.2180(5) 0.5782(3) 0.4033(3)
H46 H 0.2107 0.5398 0.4201
C42 C 0.1233(3) 0.7376(2) 0.4203(2)
H47 H 0.1670 0.7668 0.4464
C43 C 0.1987(4) 0.8990(2) 0.3069(3)
H48 H 0.2623 0.9130 0.3142
C44 C 0.1772(3) 0.8496(2) 0.3422(2)
H49 H 0.2254 0.8317 0.3730
C45 C 0.0836(3) 0.8267(2) 0.3315(2)
C46 C 0.0152(4) 0.8584(2) 0.2872(3)
C47 C 0.0416(4) 0.9076(2) 0.2545(3)
C48 C 0.0550(3) 0.7701(2) 0.3627(2)
H52 H 0.0324 0.7401 0.3286
Cd5 Cd 0.01501(2) 0.755833(17) 0.762178(16)
Cd8 Cd 0.32061(3) 0.502884(17) 0.302553(19)
O10 O 0.7387(3) 0.05839(19) 0.1559(2)
H3 H 0.7510 0.0943 0.1449
H4 H 0.7886 0.0368 0.1552
O11 O 0.5386(3) 0.0120(2) 0.0933(2)
H5 H 0.4893 0.0340 0.0795
H6 H 0.5700 0.0082 0.0627
N11 N 0.5990(3) 0.06963(19) 0.2504(2)
Cd1 Cd 0.51501(2) 0.744167(17) 0.262178(16)
Cd2 Cd 0.64014(3) 0.988824(17) 0.19028(2)
S1 S 0.51480(9) 0.91389(6) 0.28282(7)
S2 S 0.51008(9) 0.57758(6) 0.24546(6)
O1 O 0.4984(3) 0.84829(17) 0.2780(2)
O2 O 0.4386(4) 0.9422(2) 0.3086(3)
O3 O 0.6074(4) 0.9289(2) 0.3209(4)
O4 O 0.5092(4) 0.9392(2) 0.2163(2)
O5 O 0.5404(3) 0.64097(18) 0.2527(2)
O6 O 0.4180(3) 0.5709(2) 0.2648(3)
O7 O 0.5791(4) 0.5377(3) 0.2846(3)
O8 O 0.4995(6) 0.5594(3) 0.1790(3)
O9 O 0.7809(4) 0.9726(2) 0.2753(2)
H1 H 0.8263 0.9959 0.2935
H2 H 0.7635 0.9512 0.3048
O12 O 0.4002(3) 0.45190(19) 0.39326(19)
H7 H 0.3943 0.4475 0.4326
H8 H 0.4551 0.4377 0.3897
O13 O 0.1972(3) 0.4445(2) 0.3246(2)
H9 H 0.1854 0.4191 0.3527
H10 H 0.1572 0.4378 0.2894
O14 O 0.2011(3) 0.5340(2) 0.2140(2)
H11 H 0.1405 0.5284 0.2027
H12 H 0.2221 0.5459 0.1807
N1 N 0.3491(3) 0.7434(2) 0.2114(2)
N5 N 0.6803(3) 0.75166(19) 0.3120(2)
C1 C 0.2913(4) 0.7919(2) 0.2070(3)
H13 H 0.3168 0.8281 0.2258
C2 C 0.1952(4) 0.7909(2) 0.1760(3)
H14 H 0.1576 0.8258 0.1749
C3 C 0.1549(3) 0.7384(2) 0.1468(2)
C4 C 0.2154(4) 0.6889(2) 0.1504(3)
H15 H 0.1919 0.6522 0.1315
C5 C 0.3103(4) 0.6931(2) 0.1817(3)
H16 H 0.3497 0.6591 0.1823
C6 C 0.0506(3) 0.7324(2) 0.1153(2)
H17 H 0.0420 0.6946 0.0902
H22 H 0.0191 0.8238 0.0897
C22 C 0.0160(4) 0.6443(2) 0.2319(2)
H30 H 0.0795 0.6582 0.2416
H31 H 0.0395 0.5706 0.2878
C25 C 0.7112(4) 0.8022(3) 0.3443(3)
H33 H 0.6665 0.8329 0.3466
C26 C 0.8066(4) 0.8116(2) 0.3748(3)
H34 H 0.8253 0.8485 0.3950
C27 C 0.8739(3) 0.7657(2) 0.3749(2)
C28 C 0.8413(4) 0.7124(2) 0.3427(3)
H35 H 0.8837 0.6801 0.3415
C29 C 0.7451(4) 0.7076(2) 0.3122(3)
H36 H 0.7247 0.6715 0.2907
C30 C 0.9779(3) 0.7756(2) 0.4070(2)
H37 H 0.9848 0.8146 0.4298
H38 H 0.9893 0.6600 0.6471
H39 H 0.9893 0.6483 0.5386
H50 H 0.9508 0.8461 0.2797
H51 H 0.9940 0.9280 0.2254
N9 N 0.4911(3) 0.7299(2) 0.3684(2)
N10 N 0.7162(3) 0.90870(19) 0.1489(2)
N12 N 0.5408(3) 0.7570(2) 0.1563(2)
N14 N 0.3670(3) 0.42773(19) 0.2372(2)
C7 C 0.0263(4) 0.8184(3) 0.9018(3)
H18 H 0.0523 0.8494 0.8804
C8 C 0.0264(4) 0.8250(3) 0.9678(3)
H19 H 0.0521 0.8600 0.9894
N4 N 0.9010(3) 0.56963(19) 0.2496(2)
C9 C 0.9891(3) 0.7806(2) 0.0010(2)
C12 C 0.9938(3) 0.7841(2) 0.0734(2)
C13 C 0.7598(4) 0.9133(2) 0.0982(3)
H23 H 0.7486 0.9479 0.0724
C14 C 0.8210(4) 0.8693(3) 0.0818(3)
H24 H 0.8509 0.8752 0.0464
C15 C 0.8380(3) 0.8161(2) 0.1181(2)
C16 C 0.7908(4) 0.8114(2) 0.1704(2)
H25 H 0.7992 0.7768 0.1964
C17 C 0.7315(4) 0.8578(2) 0.1839(3)
H26 H 0.7008 0.8533 0.2192
C18 C 0.9038(3) 0.7673(2) 0.1029(2)
H27 H 0.8655 0.7366 0.0754
C19 C 0.8341(4) 0.5999(2) 0.2076(3)
H28 H 0.7711 0.5849 0.1989
C20 C 0.8540(4) 0.6524(2) 0.1765(3)
H29 H 0.8051 0.6715 0.1472
C21 C 0.9466(3) 0.6768(2) 0.1888(2)
C23 C 0.9912(4) 0.5918(2) 0.2601(3)
C24 C 0.9724(3) 0.7352(2) 0.1594(2)
H32 H 0.9933 0.7647 0.1943
Cd7 Cd 0.85986(3) 0.488824(17) 0.30972(2)
N2 N 0.9911(3) 0.7701(2) 0.8684(2)
C10 C 0.9512(4) 0.7302(3) 0.9656(3)
H20 H 0.9238 0.6989 0.9859
C11 C 0.9537(4) 0.7261(3) 0.9005(3)
H21 H 0.9286 0.6915 0.8778
O1_2 O 0.0016(3) 0.34829(17) 0.2220(2)
O2_2 O 0.0614(4) 0.4422(2) 0.1914(3)
O6_2 O 0.0820(3) 0.0709(2) 0.2352(3)
O8_2 O 0.0005(6) 0.0594(3) 0.3210(3)
H5_2 H 0.0107 0.5340 0.4205
O14_2 O 0.2989(3) 0.0340(2) 0.2860(2)
H11_2 H 0.3595 0.0284 0.2973
H12_2 H 0.2779 0.0459 0.3193
N1_2 N 0.1509(3) 0.2434(2) 0.2886(2)
N2_2 N 0.5089(3) 0.2701(2) 0.6316(2)
N3 N 0.7838(3) 0.40870(19) 0.3511(2)
C1_2 C 0.2087(4) 0.2919(2) 0.2930(3)
H13_2 H 0.1832 0.3281 0.2742
C2_2 C 0.3048(4) 0.2909(2) 0.3240(3)
H14_2 H 0.3424 0.3258 0.3251
C3_2 C 0.3451(3) 0.2384(2) 0.3532(2)
C4_2 C 0.2846(4) 0.1889(2) 0.3496(3)
H15_2 H 0.3081 0.1522 0.3685
C5_2 C 0.1897(4) 0.1931(2) 0.3183(3)
H16_2 H 0.1503 0.1591 0.3177
C6_2 C 0.4494(3) 0.2324(2) 0.3847(2)
H17_2 H 0.4580 0.1946 0.4098
C7_2 C 0.4737(4) 0.3184(3) 0.5982(3)
H18_2 H 0.4477 0.3494 0.6196
C8_2 C 0.4736(4) 0.3250(3) 0.5322(3)
H19_2 H 0.4479 0.3600 0.5106
C9_2 C 0.5109(3) 0.2806(2) 0.4990(2)
C10_2 C 0.5488(4) 0.2302(3) 0.5344(3)
H20_2 H 0.5762 0.1989 0.5141
C11_2 C 0.5463(4) 0.2261(3) 0.5995(3)
H21_2 H 0.5714 0.1915 0.6222
C12_2 C 0.5062(3) 0.2841(2) 0.4266(2)
H22_2 H 0.4809 0.3238 0.4103
C13_2 C 0.7402(4) 0.4133(2) 0.4018(3)
H23_2 H 0.7514 0.4479 0.4276
C14_2 C 0.6790(4) 0.3693(3) 0.4182(3)
H24_2 H 0.6491 0.3752 0.4536
C15_2 C 0.6620(3) 0.3161(2) 0.3819(2)
C16_2 C 0.7092(4) 0.3114(2) 0.3296(2)
H25_2 H 0.7008 0.2768 0.3036
C17_2 C 0.7685(4) 0.3578(2) 0.3161(3)
H26_2 H 0.7992 0.3533 0.2808
C18_2 C 0.5962(3) 0.2673(2) 0.3971(2)
H27_2 H 0.6345 0.2366 0.4246
C19_2 C 0.6659(4) 0.0999(2) 0.2924(3)
H28_2 H 0.7289 0.0849 0.3011
C20_2 C 0.6460(4) 0.1524(2) 0.3235(3)
H29_2 H 0.6949 0.1715 0.3528
C21_2 C 0.5534(3) 0.1768(2) 0.3112(2)
C22_2 C 0.4840(4) 0.1443(2) 0.2681(2)
H30_2 H 0.4205 0.1582 0.2584
C23_2 C 0.5088(4) 0.0918(2) 0.2399(3)
H31_2 H 0.4605 0.0706 0.2122
C24_2 C 0.5276(3) 0.2352(2) 0.3406(2)
H32_2 H 0.5067 0.2647 0.3057
Cd4 Cd 0.48499(2) 0.255833(17) 0.737822(16)
N9_2 N 0.0089(3) 0.2299(2) 0.1316(2)
N13 N 0.2272(3) 0.08423(19) 0.1413(2)
O12_2 O 0.0998(3) 0.95190(19) 0.10674(19)
H7_2 H 0.1057 0.9475 0.0674
H8_2 H 0.0449 0.9377 0.1103
O13_2 O 0.3028(3) 0.9445(2) 0.1754(2)
H9_2 H 0.3146 0.9191 0.1473
H10_2 H 0.3428 0.9378 0.2106
Cd1_2 Cd 0.98499(2) 0.244167(17) 0.237822(16)
S1_2 S 0.98520(9) 0.41389(6) 0.21718(7)
S2_2 S 0.98992(9) 0.07758(6) 0.25454(6)
O3_2 O 0.8926(4) 0.4289(2) 0.1791(4)
O4_2 O 0.9908(4) 0.4392(2) 0.2837(2)
O5_2 O 0.9596(3) 0.14097(18) 0.2473(2)
O7_2 O 0.9209(4) 0.0377(3) 0.2154(3)
O9_2 O 0.7191(4) 0.4726(2) 0.2247(2)
H1_2 H 0.6737 0.4959 0.2065
H2_2 H 0.7365 0.4512 0.1952
O10_2 O 0.7613(3) 0.55839(19) 0.3441(2)
H3_2 H 0.7490 0.5943 0.3551
H4_2 H 0.7114 0.5368 0.3448
O11_2 O 0.9614(3) 0.5120(2) 0.4067(2)
H6_2 H 0.9300 0.5082 0.4373
N5_2 N 0.8197(3) 0.25166(19) 0.1880(2)
C25_2 C 0.7888(4) 0.3022(3) 0.1557(3)
H33_2 H 0.8335 0.3329 0.1534
C26_2 C 0.6934(4) 0.3116(2) 0.1252(3)
H34_2 H 0.6747 0.3485 0.1050
C27_2 C 0.6261(3) 0.2657(2) 0.1251(2)
C28_2 C 0.6587(4) 0.2124(2) 0.1573(3)
H35_2 H 0.6163 0.1801 0.1585
C29_2 C 0.7549(4) 0.2076(2) 0.1878(3)
H36_2 H 0.7753 0.1715 0.2093
C30_2 C 0.5221(3) 0.2756(2) 0.0930(2)
H37_2 H 0.5152 0.3146 0.0702
C36_2 C 0.4673(3) 0.2250(2) 0.0486(2)
H42_2 H 0.4946 0.1852 0.0630
C37_2 C 0.2162(4) 0.1402(2) 0.1630(3)
H43_2 H 0.1762 0.1457 0.1931
C38_2 C 0.2614(4) 0.1903(2) 0.1430(3)
H44_2 H 0.2516 0.2284 0.1597
C39_2 C 0.3214(3) 0.1842(2) 0.0981(2)
C40_2 C 0.3288(4) 0.1267(2) 0.0742(3)
H45_2 H 0.3658 0.1202 0.0425
C41_2 C 0.2820(5) 0.0782(3) 0.0967(3)
H46_2 H 0.2893 0.0398 0.0799
C42_2 C 0.3767(3) 0.2376(2) 0.0797(2)
H47_2 H 0.3330 0.2668 0.0536
C43_2 C 0.3013(4) 0.3990(2) 0.1931(3)
H48_2 H 0.2377 0.4130 0.1858
C44_2 C 0.3228(3) 0.3496(2) 0.1578(2)
H49_2 H 0.2746 0.3317 0.1270
C45_2 C 0.4164(3) 0.3267(2) 0.1685(2)
C46_2 C 0.4848(4) 0.3584(2) 0.2128(3)
H50_2 H 0.5492 0.3461 0.2203
C47_2 C 0.4584(4) 0.4076(2) 0.2455(3)
H51_2 H 0.5060 0.4280 0.2746
C48_2 C 0.4450(3) 0.2701(2) 0.1373(2)
H52_2 H 0.4676 0.2401 0.1714
N12_2 N 0.9592(3) 0.2570(2) 0.3437(2)
N6_2 N 0.4592(3) 0.2430(2) 0.8437(2)
C31_2 C 0.4893(4) 0.1920(3) 0.8755(3)
H38_2 H 0.5107 0.1600 0.8529
C32_2 C 0.4898(4) 0.1849(2) 0.9411(2)
H39_2 H 0.5107 0.1483 0.9614
C33_2 C 0.4602(3) 0.2308(2) 0.9767(2)
C34_2 C 0.4265(4) 0.2832(2) 0.9427(3)
H40_2 H 0.4031 0.3153 0.9641
C35_2 C 0.4277(4) 0.2876(3) 0.8774(3)
H41_2 H 0.4057 0.3233 0.8558
C10_3 C 0.0488(4) 0.2698(3) 0.0344(3)
H20_3 H 0.0762 0.3011 0.0141
C11_3 C 0.0463(4) 0.2739(3) 0.0995(3)
H21_3 H 0.0714 0.3085 0.1222
N3_2 N 0.2838(3) 0.09130(19) 0.8511(2)
N4_2 N 0.0990(3) 0.43037(19) 0.7504(2)
C9_3 C 0.0109(3) 0.2194(2) 0.9990(2)
C12_3 C 0.0062(3) 0.2159(2) 0.9266(2)
C13_3 C 0.2402(4) 0.0867(2) 0.9018(3)
H23_3 H 0.2514 0.0521 0.9276
C14_3 C 0.1790(4) 0.1307(3) 0.9182(3)
H24_3 H 0.1491 0.1248 0.9536
C15_3 C 0.1620(3) 0.1839(2) 0.8819(2)
C16_3 C 0.2092(4) 0.1886(2) 0.8296(2)
H25_3 H 0.2008 0.2232 0.8036
C17_3 C 0.2685(4) 0.1422(2) 0.8161(3)
H26_3 H 0.2992 0.1467 0.7808
C18_3 C 0.0962(3) 0.2327(2) 0.8971(2)
H27_3 H 0.1345 0.2634 0.9246
C19_3 C 0.1659(4) 0.4001(2) 0.7924(3)
H28_3 H 0.2289 0.4151 0.8011
C20_3 C 0.1460(4) 0.3476(2) 0.8235(3)
H29_3 H 0.1949 0.3285 0.8528
C21_3 C 0.0534(3) 0.3232(2) 0.8112(2)
C23_3 C 0.0088(4) 0.4082(2) 0.7399(3)
C24_3 C 0.0276(3) 0.2648(2) 0.8406(2)
H32_3 H 0.0067 0.2353 0.8057
Cd6 Cd 0.35986(3) 0.011176(17) 0.80972(2)
Cd7_2 Cd 0.14014(3) 0.511176(17) 0.69028(2)
C7_3 C 0.9737(4) 0.1816(3) 0.0982(3)
H18_3 H 0.9477 0.1506 0.1196
C8_3 C 0.9736(4) 0.1750(3) 0.0322(3)
H19_3 H 0.9479 0.1400 0.0106
Cd3 Cd 0.67939(3) 0.497116(17) 0.697447(19)
S1_3 S 0.48520(9) 0.08611(6) 0.71718(7)
S2_3 S 0.48992(9) 0.42242(6) 0.75454(6)
O1_3 O 0.5016(3) 0.15171(17) 0.7220(2)
O2_3 O 0.5614(4) 0.0578(2) 0.6914(3)
O3_3 O 0.3926(4) 0.0711(2) 0.6791(4)
O4_3 O 0.4908(4) 0.0608(2) 0.7837(2)
O5_3 O 0.4596(3) 0.35903(18) 0.7473(2)
O6_3 O 0.5820(3) 0.4291(2) 0.7352(3)
O7_3 O 0.4209(4) 0.4623(3) 0.7154(3)
O8_3 O 0.5005(6) 0.4406(3) 0.8210(3)
O9_3 O 0.2191(4) 0.0274(2) 0.7247(2)
H1_3 H 0.1737 0.0041 0.7065
H2_3 H 0.2365 0.0488 0.6952
O12_3 O 0.5998(3) 0.54810(19) 0.60674(19)
H7_3 H 0.6057 0.5525 0.5674
H8_3 H 0.5449 0.5623 0.6103
O13_3 O 0.8028(3) 0.5555(2) 0.6754(2)
H9_3 H 0.8146 0.5809 0.6473
H10_3 H 0.8428 0.5622 0.7106
O14_3 O 0.7989(3) 0.4660(2) 0.7860(2)
H11_3 H 0.8595 0.4716 0.7973
H12_3 H 0.7779 0.4541 0.8193
N1_3 N 0.6509(3) 0.2566(2) 0.7886(2)
N5_3 N 0.3197(3) 0.24834(19) 0.6880(2)
C1_3 C 0.7087(4) 0.2081(2) 0.7930(3)
H13_3 H 0.6832 0.1719 0.7742
C2_3 C 0.8048(4) 0.2091(2) 0.8240(3)
H14_3 H 0.8424 0.1742 0.8251
C3_3 C 0.8451(3) 0.2616(2) 0.8532(2)
C4_3 C 0.7846(4) 0.3111(2) 0.8496(3)
H15_3 H 0.8081 0.3478 0.8685
C5_3 C 0.6897(4) 0.3069(2) 0.8183(3)
H16_3 H 0.6503 0.3409 0.8177
C6_3 C 0.9494(3) 0.2676(2) 0.8847(2)
H17_3 H 0.9580 0.3054 0.9098
H22_3 H 0.9809 0.1762 0.9103
C22_3 C 0.9840(4) 0.3557(2) 0.7681(2)
H30_3 H 0.9205 0.3418 0.7584
H31_3 H 0.9605 0.4294 0.7122
C25_3 C 0.2888(4) 0.1978(3) 0.6557(3)
H33_3 H 0.3335 0.1671 0.6534
C26_3 C 0.1934(4) 0.1884(2) 0.6252(3)
H34_3 H 0.1747 0.1515 0.6050
C27_3 C 0.1261(3) 0.2343(2) 0.6251(2)
C28_3 C 0.1587(4) 0.2876(2) 0.6573(3)
H35_3 H 0.1163 0.3199 0.6585
C29_3 C 0.2549(4) 0.2924(2) 0.6878(3)
H36_3 H 0.2753 0.3285 0.7093
C30_3 C 0.0221(3) 0.2244(2) 0.5930(2)
H37_3 H 0.0152 0.1854 0.5702
H38_3 H 0.0107 0.3400 0.3529
H39_3 H 0.0107 0.3517 0.4614
H50_3 H 0.0492 0.1539 0.7203
H51_3 H 0.0060 0.0720 0.7746
N13_2 N 0.7272(3) 0.41577(19) 0.6413(2)
N14_2 N 0.6330(3) 0.57227(19) 0.7628(2)
O10_3 O 0.2613(3) 0.94161(19) 0.8441(2)
H3_3 H 0.2490 0.9057 0.8551
H4_3 H 0.2114 0.9632 0.8448
O11_3 O 0.4614(3) 0.9880(2) 0.9067(2)
H5_3 H 0.5107 0.9660 0.9205
H6_3 H 0.4300 0.9918 0.9373
N11_2 N 0.4010(3) 0.93037(19) 0.7496(2)
N8_2 N 0.8670(3) 0.07227(19) 0.7372(2)
C31_3 C 0.9893(4) 0.3080(3) 0.3755(3)
C32_3 C 0.9898(4) 0.3151(2) 0.4411(2)
C33_3 C 0.9602(3) 0.2692(2) 0.4767(2)
C34_3 C 0.9265(4) 0.2168(2) 0.4427(3)
H40_3 H 0.9031 0.1847 0.4641
C35_3 C 0.9277(4) 0.2124(3) 0.3774(3)
H41_3 H 0.9057 0.1767 0.3558
C36_3 C 0.9673(3) 0.2750(2) 0.5486(2)
H42_3 H 0.9946 0.3148 0.5630
C37_3 C 0.7162(4) 0.3598(2) 0.6630(3)
H43_3 H 0.6762 0.3543 0.6931
C38_3 C 0.7614(4) 0.3097(2) 0.6430(3)
H44_3 H 0.7516 0.2716 0.6597
C39_3 C 0.8214(3) 0.3158(2) 0.5981(2)
C40_3 C 0.8288(4) 0.3733(2) 0.5742(3)
H45_3 H 0.8658 0.3798 0.5425
C41_3 C 0.7820(5) 0.4218(3) 0.5967(3)
H46_3 H 0.7893 0.4602 0.5799
C42_3 C 0.8767(3) 0.2624(2) 0.5797(2)
H47_3 H 0.8330 0.2332 0.5536
C43_3 C 0.8013(4) 0.1010(2) 0.6931(3)
H48_3 H 0.7377 0.0870 0.6858
C44_3 C 0.8228(3) 0.1504(2) 0.6578(2)
H49_3 H 0.7746 0.1683 0.6270
C45_3 C 0.9164(3) 0.1733(2) 0.6685(2)
C46_3 C 0.9848(4) 0.1416(2) 0.7128(3)
C47_3 C 0.9584(4) 0.0924(2) 0.7455(3)
C48_3 C 0.9450(3) 0.2299(2) 0.6373(2)
H52_3 H 0.9676 0.2599 0.6714
Cd9_2 Cd 0.82061(3) 0.997116(17) 0.802553(19)
C31_4 C 0.5107(4) 0.8080(3) 0.1245(3)
H38_4 H 0.4893 0.8400 0.1471
C32_4 C 0.5102(4) 0.8151(2) 0.0589(2)
H39_4 H 0.4893 0.8517 0.0386
C33_4 C 0.5398(3) 0.7692(2) 0.0233(2)
C34_4 C 0.5735(4) 0.7168(2) 0.0573(3)
H40_4 H 0.5969 0.6847 0.0359
C35_4 C 0.5723(4) 0.7124(3) 0.1226(3)
H41_4 H 0.5943 0.6767 0.1442
S1_4 S 0.01480(9) 0.58611(6) 0.78282(7)
S2_4 S 0.01008(9) 0.92242(6) 0.74546(6)
O3_4 O 0.1074(4) 0.5711(2) 0.8209(4)
O4_4 O 0.0092(4) 0.5608(2) 0.7163(2)
O5_4 O 0.0404(3) 0.85903(18) 0.7527(2)
O7_4 O 0.0791(4) 0.9623(3) 0.7846(3)
O9_4 O 0.2809(4) 0.5274(2) 0.7753(2)
H1_4 H 0.3263 0.5041 0.7935
H2_4 H 0.2635 0.5488 0.8048
O10_4 O 0.2387(3) 0.44161(19) 0.6559(2)
H3_4 H 0.2510 0.4057 0.6449
H4_4 H 0.2886 0.4632 0.6552
O11_4 O 0.0386(3) 0.4880(2) 0.5933(2)
H6_4 H 0.0700 0.4918 0.5627
N5_4 N 0.1803(3) 0.74834(19) 0.8120(2)
N7_2 N 0.7728(3) 0.91577(19) 0.8587(2)
C25_4 C 0.2112(4) 0.6978(3) 0.8443(3)
H33_4 H 0.1665 0.6671 0.8466
C26_4 C 0.3066(4) 0.6884(2) 0.8748(3)
H34_4 H 0.3253 0.6515 0.8950
C27_4 C 0.3739(3) 0.7343(2) 0.8749(2)
C28_4 C 0.3413(4) 0.7876(2) 0.8427(3)
H35_4 H 0.3837 0.8199 0.8415
C29_4 C 0.2451(4) 0.7924(2) 0.8122(3)
H36_4 H 0.2247 0.8285 0.7907
C30_4 C 0.4779(3) 0.7244(2) 0.9070(2)
H37_4 H 0.4848 0.6854 0.9298
C36_4 C 0.5327(3) 0.7750(2) 0.9514(2)
H42_4 H 0.5054 0.8148 0.9370
C37_4 C 0.7838(4) 0.8598(2) 0.8370(3)
H43_4 H 0.8238 0.8543 0.8069
C38_4 C 0.7386(4) 0.8097(2) 0.8570(3)
H44_4 H 0.7484 0.7716 0.8403
C39_4 C 0.6786(3) 0.8158(2) 0.9019(2)
C40_4 C 0.6712(4) 0.8733(2) 0.9258(3)
H45_4 H 0.6342 0.8798 0.9575
C41_4 C 0.7180(5) 0.9218(3) 0.9033(3)
H46_4 H 0.7107 0.9602 0.9201
C42_4 C 0.6233(3) 0.7624(2) 0.9203(2)
H47_4 H 0.6670 0.7332 0.9464
C43_4 C 0.6987(4) 0.6010(2) 0.8069(3)
H48_4 H 0.7623 0.5870 0.8142
C44_4 C 0.6772(3) 0.6504(2) 0.8422(2)
H49_4 H 0.7254 0.6683 0.8730
C45_4 C 0.5836(3) 0.6733(2) 0.8315(2)
C46_4 C 0.5152(4) 0.6416(2) 0.7872(3)
H50_4 H 0.4508 0.6539 0.7797
C47_4 C 0.5416(4) 0.5924(2) 0.7545(3)
H51_4 H 0.4940 0.5720 0.7254
C48_4 C 0.5550(3) 0.7299(2) 0.8627(2)
H52_4 H 0.5324 0.7599 0.8286
N10_2 N 0.2162(3) 0.59130(19) 0.6489(2)
O12_4 O 0.9002(3) 0.04810(19) 0.89326(19)
H7_4 H 0.8943 0.0525 0.9326
H8_4 H 0.9551 0.0623 0.8897
O13_4 O 0.6972(3) 0.0555(2) 0.8246(2)
H9_4 H 0.6854 0.0809 0.8527
H10_4 H 0.6572 0.0622 0.7894
O1_4 O 0.9984(3) 0.65171(17) 0.7780(2)
O2_4 O 0.9386(4) 0.5578(2) 0.8086(3)
O6_4 O 0.9180(3) 0.9291(2) 0.7648(3)
O8_4 O 0.9995(6) 0.9406(3) 0.6790(3)
H5_4 H 0.9893 0.4660 0.5795
O14_4 O 0.7011(3) 0.9660(2) 0.7140(2)
H11_4 H 0.6405 0.9716 0.7027
H12_4 H 0.7221 0.9541 0.6807
N1_4 N 0.8491(3) 0.7566(2) 0.7114(2)
C1_4 C 0.7913(4) 0.7081(2) 0.7070(3)
H13_4 H 0.8168 0.6719 0.7258
C2_4 C 0.6952(4) 0.7091(2) 0.6760(3)
H14_4 H 0.6576 0.6742 0.6749
C3_4 C 0.6549(3) 0.7616(2) 0.6468(2)
C4_4 C 0.7154(4) 0.8111(2) 0.6504(3)
H15_4 H 0.6919 0.8478 0.6315
C5_4 C 0.8103(4) 0.8069(2) 0.6817(3)
H16_4 H 0.8497 0.8409 0.6823
C6_4 C 0.5506(3) 0.7676(2) 0.6153(2)
H17_4 H 0.5420 0.8054 0.5902
C7_4 C 0.5263(4) 0.6816(3) 0.4018(3)
H18_4 H 0.5523 0.6506 0.3804
C8_4 C 0.5264(4) 0.6750(3) 0.4678(3)
H19_4 H 0.5521 0.6400 0.4894
C9_4 C 0.4891(3) 0.7194(2) 0.5010(2)
C10_4 C 0.4512(4) 0.7698(3) 0.4656(3)
H20_4 H 0.4238 0.8011 0.4859
C11_4 C 0.4537(4) 0.7739(3) 0.4005(3)
H21_4 H 0.4286 0.8085 0.3778
C12_4 C 0.4938(3) 0.7159(2) 0.5734(2)
H22_4 H 0.5191 0.6762 0.5897
C13_4 C 0.2598(4) 0.5867(2) 0.5982(3)
H23_4 H 0.2486 0.5521 0.5724
C14_4 C 0.3210(4) 0.6307(3) 0.5818(3)
H24_4 H 0.3509 0.6248 0.5464
C15_4 C 0.3380(3) 0.6839(2) 0.6181(2)
C16_4 C 0.2908(4) 0.6886(2) 0.6704(2)
H25_4 H 0.2992 0.7232 0.6964
C17_4 C 0.2315(4) 0.6422(2) 0.6839(3)
H26_4 H 0.2008 0.6467 0.7192
C18_4 C 0.4038(3) 0.7327(2) 0.6029(2)
H27_4 H 0.3655 0.7634 0.5754
C19_4 C 0.3341(4) 0.9001(2) 0.7076(3)
H28_4 H 0.2711 0.9151 0.6989
C20_4 C 0.3540(4) 0.8476(2) 0.6765(3)
H29_4 H 0.3051 0.8285 0.6472
C21_4 C 0.4466(3) 0.8232(2) 0.6888(2)
C22_4 C 0.5160(4) 0.8557(2) 0.7319(2)
H30_4 H 0.5795 0.8418 0.7416
C23_4 C 0.4912(4) 0.9082(2) 0.7601(3)
H31_4 H 0.5395 0.9294 0.7878
C24_4 C 0.4724(3) 0.7648(2) 0.6594(2)
H32_4 H 0.4933 0.7353 0.6943
S3 S 0.20568(10) 0.41736(6) 0.48838(7)
O15 O 0.2199(3) 0.37892(19) 0.5467(2)
O16 O 0.1938(3) 0.3786(2) 0.4301(2)
O17 O 0.1201(3) 0.4552(2) 0.4867(2)
O18 O 0.2903(3) 0.4561(2) 0.4897(2)
S3_2 S 0.29432(10) 0.91736(6) 0.01162(7)
O16_2 O 0.3062(3) 0.8786(2) 0.0699(2)
O17_2 O 0.3799(3) 0.9552(2) 0.0133(2)
O18_2 O 0.2097(3) 0.9561(2) 0.0103(2)
O15_2 O 0.2801(3) 0.87892(19) 0.9533(2)
S3_3 S 0.79432(10) 0.58264(6) 0.51162(7)
O15_3 O 0.7801(3) 0.62108(19) 0.4533(2)
O16_3 O 0.8062(3) 0.6214(2) 0.5699(2)
O17_3 O 0.8799(3) 0.5448(2) 0.5133(2)
O18_3 O 0.7097(3) 0.5439(2) 0.5103(2)
O15_4 O 0.7199(3) 0.12108(19) 0.0467(2)
S3_4 S 0.70568(10) 0.08264(6) 0.98838(7)
O16_4 O 0.6938(3) 0.1214(2) 0.9301(2)
O17_4 O 0.6201(3) 0.0448(2) 0.9867(2)
O18_4 O 0.7903(3) 0.0439(2) 0.9897(2)
loop_
_geom_bond_atom_site_label_1
_geom_bond_atom_site_label_2
_geom_bond_site_symmetry_1
_geom_bond_site_symmetry_2
N6 C31 1_555 1_555
N7 C37 1_555 1_555
N8 C43 1_555 1_555
C32 C31 1_555 1_555
C33 C32 1_555 1_555
C34 C33 1_555 1_555
H40 C34 1_555 1_555
C35 N6 1_555 1_555
H41 C35 1_555 1_555
H42 C36 1_555 1_555
C37 H43 1_555 1_555
C38 C37 1_555 1_555
H44 C38 1_555 1_555
C39 C38 1_555 1_555
C40 C39 1_555 1_555
H45 C40 1_555 1_555
C41 N7 1_555 1_555
H46 C41 1_555 1_555
C42 C36 1_555 1_555
H47 C42 1_555 1_555
C43 H48 1_555 1_555
C44 C43 1_555 1_555
H49 C44 1_555 1_555
C45 C44 1_555 1_555
C46 C45 1_555 1_555
C47 N8 1_555 1_555
H52 C48 1_555 1_555
Cd5 N6 1_555 1_555
Cd8 N7 1_555 1_555
C33 C36 1_555 1_555
C34 C35 1_555 1_555
C39 C42 1_555 1_555
C40 C41 1_555 1_555
C42 C48 1_555 1_555
C45 C48 1_555 1_555
C46 C47 1_555 1_555
H3 O10 1_555 1_555
H4 O10 1_555 1_555
H5 O11 1_555 1_555
H6 O11 1_555 1_555
Cd1 O1 1_555 1_555
Cd2 O4 1_555 1_555
Cd8 O6 1_555 1_555
S1 O1 1_555 1_555
S2 O5 1_555 1_555
O2 S1 1_555 1_555
O3 S1 1_555 1_555
O4 S1 1_555 1_555
O5 Cd1 1_555 1_555
O6 S2 1_555 1_555
O7 S2 1_555 1_555
O8 S2 1_555 1_555
O9 Cd2 1_555 1_555
H1 O9 1_555 1_555
H2 O9 1_555 1_555
O12 Cd8 1_555 1_555
H7 O12 1_555 1_555
H8 O12 1_555 1_555
O13 Cd8 1_555 1_555
H9 O13 1_555 1_555
H10 O13 1_555 1_555
O14 Cd8 1_555 1_555
H11 O14 1_555 1_555
H12 O14 1_555 1_555
N1 Cd1 1_555 1_555
N5 Cd1 1_555 1_555
C1 N1 1_555 1_555
H13 C1 1_555 1_555
C2 C1 1_555 1_555
H14 C2 1_555 1_555
C3 C2 1_555 1_555
C4 C3 1_555 1_555
H15 C4 1_555 1_555
C5 N1 1_555 1_555
H16 C5 1_555 1_555
C6 C3 1_555 1_555
H17 C6 1_555 1_555
H30 C22 1_555 1_555
C25 N5 1_555 1_555
H33 C25 1_555 1_555
C26 C25 1_555 1_555
H34 C26 1_555 1_555
C27 C26 1_555 1_555
C28 C27 1_555 1_555
H35 C28 1_555 1_555
C29 N5 1_555 1_555
H36 C29 1_555 1_555
C30 C27 1_555 1_555
H37 C30 1_555 1_555
N9 Cd1 1_555 1_555
N10 Cd2 1_555 1_555
N12 Cd1 1_555 1_555
N14 Cd8 1_555 1_555
C4 C5 1_555 1_555
C28 C29 1_555 1_555
C7 H18 1_555 1_555
C8 C7 1_555 1_555
H19 C8 1_555 1_555
N10 C13 1_555 1_555
N4 C19 1_555 1_555
C13 H23 1_555 1_555
C14 C13 1_555 1_555
H24 C14 1_555 1_555
C15 C14 1_555 1_555
C16 C15 1_555 1_555
H25 C16 1_555 1_555
C17 N10 1_555 1_555
H26 C17 1_555 1_555
C18 C12 1_555 1_555
H27 C18 1_555 1_555
C19 H28 1_555 1_555
C20 C19 1_555 1_555
H29 C20 1_555 1_555
C21 C20 1_555 1_555
C23 N4 1_555 1_555
H32 C24 1_555 1_555
Cd7 N4 1_555 1_555
C9 C12 1_555 1_555
C15 C18 1_555 1_555
C16 C17 1_555 1_555
C18 C24 1_555 1_555
C21 C24 1_555 1_555
H20 C10 1_555 1_555
C11 N2 1_555 1_555
H21 C11 1_555 1_555
C10 C11 1_555 1_555
Cd9 O6_2 1_555 1_555
O14_2 Cd9 1_555 1_555
H11_2 O14_2 1_555 1_555
H12_2 O14_2 1_555 1_555
N2_2 C7_2 1_555 1_555
N3 C13_2 1_555 1_555
N11 C19_2 1_555 1_555
C1_2 N1_2 1_555 1_555
H13_2 C1_2 1_555 1_555
C2_2 C1_2 1_555 1_555
H14_2 C2_2 1_555 1_555
C3_2 C2_2 1_555 1_555
C4_2 C3_2 1_555 1_555
H15_2 C4_2 1_555 1_555
C5_2 N1_2 1_555 1_555
H16_2 C5_2 1_555 1_555
C6_2 C3_2 1_555 1_555
H17_2 C6_2 1_555 1_555
C7_2 H18_2 1_555 1_555
C8_2 C7_2 1_555 1_555
H19_2 C8_2 1_555 1_555
C9_2 C8_2 1_555 1_555
C10_2 C9_2 1_555 1_555
H20_2 C10_2 1_555 1_555
C11_2 N2_2 1_555 1_555
H21_2 C11_2 1_555 1_555
C12_2 C6_2 1_555 1_555
H22_2 C12_2 1_555 1_555
C13_2 H23_2 1_555 1_555
C14_2 C13_2 1_555 1_555
H24_2 C14_2 1_555 1_555
C15_2 C14_2 1_555 1_555
C16_2 C15_2 1_555 1_555
H25_2 C16_2 1_555 1_555
C17_2 N3 1_555 1_555
H26_2 C17_2 1_555 1_555
C18_2 C12_2 1_555 1_555
H27_2 C18_2 1_555 1_555
C19_2 H28_2 1_555 1_555
C20_2 C19_2 1_555 1_555
H29_2 C20_2 1_555 1_555
C21_2 C20_2 1_555 1_555
C22_2 C21_2 1_555 1_555
H30_2 C22_2 1_555 1_555
C23_2 N11 1_555 1_555
H31_2 C23_2 1_555 1_555
C24_2 C6_2 1_555 1_555
H32_2 C24_2 1_555 1_555
Cd4 N2_2 1_555 1_555
Cd7 N3 1_555 1_555
N13 Cd9 1_555 1_555
C4_2 C5_2 1_555 1_555
C9_2 C12_2 1_555 1_555
C10_2 C11_2 1_555 1_555
C15_2 C18_2 1_555 1_555
C16_2 C17_2 1_555 1_555
C18_2 C24_2 1_555 1_555
C21_2 C24_2 1_555 1_555
C22_2 C23_2 1_555 1_555
H7_2 O12_2 1_555 1_555
H8_2 O12_2 1_555 1_555
H9_2 O13_2 1_555 1_555
H10_2 O13_2 1_555 1_555
Cd7 O4_2 1_555 1_555
S2_2 O5_2 1_555 1_555
O3_2 S1_2 1_555 1_555
O4_2 S1_2 1_555 1_555
O5_2 Cd1_2 1_555 1_555
O7_2 S2_2 1_555 1_555
O9_2 Cd7 1_555 1_555
H1_2 O9_2 1_555 1_555
H2_2 O9_2 1_555 1_555
O10_2 Cd7 1_555 1_555
H3_2 O10_2 1_555 1_555
H4_2 O10_2 1_555 1_555
O11_2 Cd7 1_555 1_555
H6_2 O11_2 1_555 1_555
N5_2 Cd1_2 1_555 1_555
N13 C37_2 1_555 1_555
N14 C43_2 1_555 1_555
C25_2 N5_2 1_555 1_555
H33_2 C25_2 1_555 1_555
C26_2 C25_2 1_555 1_555
H34_2 C26_2 1_555 1_555
C27_2 C26_2 1_555 1_555
C28_2 C27_2 1_555 1_555
H35_2 C28_2 1_555 1_555
C29_2 N5_2 1_555 1_555
H36_2 C29_2 1_555 1_555
C30_2 C27_2 1_555 1_555
H37_2 C30_2 1_555 1_555
C36_2 C30_2 1_555 1_555
H42_2 C36_2 1_555 1_555
C37_2 H43_2 1_555 1_555
C38_2 C37_2 1_555 1_555
H44_2 C38_2 1_555 1_555
C39_2 C38_2 1_555 1_555
C40_2 C39_2 1_555 1_555
H45_2 C40_2 1_555 1_555
C41_2 N13 1_555 1_555
H46_2 C41_2 1_555 1_555
C42_2 C36_2 1_555 1_555
H47_2 C42_2 1_555 1_555
C43_2 H48_2 1_555 1_555
C44_2 C43_2 1_555 1_555
H49_2 C44_2 1_555 1_555
C45_2 C44_2 1_555 1_555
C46_2 C45_2 1_555 1_555
H50_2 C46_2 1_555 1_555
C47_2 N14 1_555 1_555
H51_2 C47_2 1_555 1_555
C48_2 C30_2 1_555 1_555
H52_2 C48_2 1_555 1_555
N12_2 Cd1_2 1_555 1_555
C28_2 C29_2 1_555 1_555
C39_2 C42_2 1_555 1_555
C40_2 C41_2 1_555 1_555
C42_2 C48_2 1_555 1_555
C45_2 C48_2 1_555 1_555
C46_2 C47_2 1_555 1_555
N6_2 C31_2 1_555 1_555
C31_2 H38_2 1_555 1_555
C32_2 C31_2 1_555 1_555
H39_2 C32_2 1_555 1_555
C33_2 C32_2 1_555 1_555
C34_2 C33_2 1_555 1_555
H40_2 C34_2 1_555 1_555
C35_2 N6_2 1_555 1_555
H41_2 C35_2 1_555 1_555
Cd4 N6_2 1_555 1_555
C34_2 C35_2 1_555 1_555
H20_3 C10_3 1_555 1_555
C11_3 N9_2 1_555 1_555
H21_3 C11_3 1_555 1_555
C10_3 C11_3 1_555 1_555
N3_2 C13_3 1_555 1_555
N4_2 C19_3 1_555 1_555
C13_3 H23_3 1_555 1_555
C14_3 C13_3 1_555 1_555
H24_3 C14_3 1_555 1_555
C15_3 C14_3 1_555 1_555
C16_3 C15_3 1_555 1_555
H25_3 C16_3 1_555 1_555
C17_3 N3_2 1_555 1_555
H26_3 C17_3 1_555 1_555
C18_3 C12_3 1_555 1_555
H27_3 C18_3 1_555 1_555
C19_3 H28_3 1_555 1_555
C20_3 C19_3 1_555 1_555
H29_3 C20_3 1_555 1_555
C21_3 C20_3 1_555 1_555
C23_3 N4_2 1_555 1_555
H32_3 C24_3 1_555 1_555
Cd6 N3_2 1_555 1_555
Cd7_2 N4_2 1_555 1_555
C9_3 C12_3 1_555 1_555
C15_3 C18_3 1_555 1_555
C16_3 C17_3 1_555 1_555
C18_3 C24_3 1_555 1_555
C21_3 C24_3 1_555 1_555
C7_3 H18_3 1_555 1_555
C8_3 C7_3 1_555 1_555
H19_3 C8_3 1_555 1_555
Cd4 O1_3 1_555 1_555
Cd6 O4_3 1_555 1_555
Cd3 O6_3 1_555 1_555
S1_3 O1_3 1_555 1_555
S2_3 O5_3 1_555 1_555
O2_3 S1_3 1_555 1_555
O3_3 S1_3 1_555 1_555
O4_3 S1_3 1_555 1_555
O5_3 Cd4 1_555 1_555
O6_3 S2_3 1_555 1_555
O7_3 S2_3 1_555 1_555
O8_3 S2_3 1_555 1_555
O9_3 Cd6 1_555 1_555
H1_3 O9_3 1_555 1_555
H2_3 O9_3 1_555 1_555
O12_3 Cd3 1_555 1_555
H7_3 O12_3 1_555 1_555
H8_3 O12_3 1_555 1_555
O13_3 Cd3 1_555 1_555
H9_3 O13_3 1_555 1_555
H10_3 O13_3 1_555 1_555
O14_3 Cd3 1_555 1_555
H11_3 O14_3 1_555 1_555
H12_3 O14_3 1_555 1_555
N1_3 Cd4 1_555 1_555
N5_3 Cd4 1_555 1_555
C1_3 N1_3 1_555 1_555
H13_3 C1_3 1_555 1_555
C2_3 C1_3 1_555 1_555
H14_3 C2_3 1_555 1_555
C3_3 C2_3 1_555 1_555
C4_3 C3_3 1_555 1_555
H15_3 C4_3 1_555 1_555
C5_3 N1_3 1_555 1_555
H16_3 C5_3 1_555 1_555
C6_3 C3_3 1_555 1_555
H17_3 C6_3 1_555 1_555
H30_3 C22_3 1_555 1_555
C25_3 N5_3 1_555 1_555
H33_3 C25_3 1_555 1_555
C26_3 C25_3 1_555 1_555
H34_3 C26_3 1_555 1_555
C27_3 C26_3 1_555 1_555
C28_3 C27_3 1_555 1_555
H35_3 C28_3 1_555 1_555
C29_3 N5_3 1_555 1_555
H36_3 C29_3 1_555 1_555
C30_3 C27_3 1_555 1_555
H37_3 C30_3 1_555 1_555
N13_2 Cd3 1_555 1_555
N14_2 Cd3 1_555 1_555
C4_3 C5_3 1_555 1_555
C28_3 C29_3 1_555 1_555
H3_3 O10_3 1_555 1_555
H4_3 O10_3 1_555 1_555
H5_3 O11_3 1_555 1_555
H6_3 O11_3 1_555 1_555
N12_2 C31_3 1_555 1_555
N13_2 C37_3 1_555 1_555
N8_2 C43_3 1_555 1_555
C32_3 C31_3 1_555 1_555
C33_3 C32_3 1_555 1_555
C34_3 C33_3 1_555 1_555
H40_3 C34_3 1_555 1_555
C35_3 N12_2 1_555 1_555
H41_3 C35_3 1_555 1_555
H42_3 C36_3 1_555 1_555
C37_3 H43_3 1_555 1_555
C38_3 C37_3 1_555 1_555
H44_3 C38_3 1_555 1_555
C39_3 C38_3 1_555 1_555
C40_3 C39_3 1_555 1_555
H45_3 C40_3 1_555 1_555
C41_3 N13_2 1_555 1_555
H46_3 C41_3 1_555 1_555
C42_3 C36_3 1_555 1_555
H47_3 C42_3 1_555 1_555
C43_3 H48_3 1_555 1_555
C44_3 C43_3 1_555 1_555
H49_3 C44_3 1_555 1_555
C45_3 C44_3 1_555 1_555
C46_3 C45_3 1_555 1_555
C47_3 N8_2 1_555 1_555
H52_3 C48_3 1_555 1_555
C33_3 C36_3 1_555 1_555
C34_3 C35_3 1_555 1_555
C39_3 C42_3 1_555 1_555
C40_3 C41_3 1_555 1_555
C42_3 C48_3 1_555 1_555
C45_3 C48_3 1_555 1_555
C46_3 C47_3 1_555 1_555
N12 C31_4 1_555 1_555
C31_4 H38_4 1_555 1_555
C32_4 C31_4 1_555 1_555
H39_4 C32_4 1_555 1_555
C33_4 C32_4 1_555 1_555
C34_4 C33_4 1_555 1_555
H40_4 C34_4 1_555 1_555
C35_4 N12 1_555 1_555
H41_4 C35_4 1_555 1_555
C34_4 C35_4 1_555 1_555
Cd7_2 O4_4 1_555 1_555
S2_4 O5_4 1_555 1_555
O3_4 S1_4 1_555 1_555
O4_4 S1_4 1_555 1_555
O5_4 Cd5 1_555 1_555
O7_4 S2_4 1_555 1_555
O9_4 Cd7_2 1_555 1_555
H1_4 O9_4 1_555 1_555
H2_4 O9_4 1_555 1_555
O10_4 Cd7_2 1_555 1_555
H3_4 O10_4 1_555 1_555
H4_4 O10_4 1_555 1_555
O11_4 Cd7_2 1_555 1_555
H6_4 O11_4 1_555 1_555
N5_4 Cd5 1_555 1_555
N7_2 C37_4 1_555 1_555
N14_2 C43_4 1_555 1_555
C25_4 N5_4 1_555 1_555
H33_4 C25_4 1_555 1_555
C26_4 C25_4 1_555 1_555
H34_4 C26_4 1_555 1_555
C27_4 C26_4 1_555 1_555
C28_4 C27_4 1_555 1_555
H35_4 C28_4 1_555 1_555
C29_4 N5_4 1_555 1_555
H36_4 C29_4 1_555 1_555
C30_4 C27_4 1_555 1_555
H37_4 C30_4 1_555 1_555
C36_4 C30_4 1_555 1_555
H42_4 C36_4 1_555 1_555
C37_4 H43_4 1_555 1_555
C38_4 C37_4 1_555 1_555
H44_4 C38_4 1_555 1_555
C39_4 C38_4 1_555 1_555
C40_4 C39_4 1_555 1_555
H45_4 C40_4 1_555 1_555
C41_4 N7_2 1_555 1_555
H46_4 C41_4 1_555 1_555
C42_4 C36_4 1_555 1_555
H47_4 C42_4 1_555 1_555
C43_4 H48_4 1_555 1_555
C44_4 C43_4 1_555 1_555
H49_4 C44_4 1_555 1_555
C45_4 C44_4 1_555 1_555
C46_4 C45_4 1_555 1_555
H50_4 C46_4 1_555 1_555
C47_4 N14_2 1_555 1_555
H51_4 C47_4 1_555 1_555
C48_4 C30_4 1_555 1_555
H52_4 C48_4 1_555 1_555
Cd9_2 N7_2 1_555 1_555
N10_2 Cd7_2 1_555 1_555
C28_4 C29_4 1_555 1_555
C39_4 C42_4 1_555 1_555
C40_4 C41_4 1_555 1_555
C42_4 C48_4 1_555 1_555
C45_4 C48_4 1_555 1_555
C46_4 C47_4 1_555 1_555
H7_4 O12_4 1_555 1_555
H8_4 O12_4 1_555 1_555
H9_4 O13_4 1_555 1_555
H10_4 O13_4 1_555 1_555
Cd9_2 O6_4 1_555 1_555
O14_4 Cd9_2 1_555 1_555
H11_4 O14_4 1_555 1_555
H12_4 O14_4 1_555 1_555
N9 C7_4 1_555 1_555
N10_2 C13_4 1_555 1_555
N11_2 C19_4 1_555 1_555
C1_4 N1_4 1_555 1_555
H13_4 C1_4 1_555 1_555
C2_4 C1_4 1_555 1_555
H14_4 C2_4 1_555 1_555
C3_4 C2_4 1_555 1_555
C4_4 C3_4 1_555 1_555
H15_4 C4_4 1_555 1_555
C5_4 N1_4 1_555 1_555
H16_4 C5_4 1_555 1_555
C6_4 C3_4 1_555 1_555
H17_4 C6_4 1_555 1_555
C7_4 H18_4 1_555 1_555
C8_4 C7_4 1_555 1_555
H19_4 C8_4 1_555 1_555
C9_4 C8_4 1_555 1_555
C10_4 C9_4 1_555 1_555
H20_4 C10_4 1_555 1_555
C11_4 N9 1_555 1_555
H21_4 C11_4 1_555 1_555
C12_4 C6_4 1_555 1_555
H22_4 C12_4 1_555 1_555
C13_4 H23_4 1_555 1_555
C14_4 C13_4 1_555 1_555
H24_4 C14_4 1_555 1_555
C15_4 C14_4 1_555 1_555
C16_4 C15_4 1_555 1_555
H25_4 C16_4 1_555 1_555
C17_4 N10_2 1_555 1_555
H26_4 C17_4 1_555 1_555
C18_4 C12_4 1_555 1_555
H27_4 C18_4 1_555 1_555
C19_4 H28_4 1_555 1_555
C20_4 C19_4 1_555 1_555
H29_4 C20_4 1_555 1_555
C21_4 C20_4 1_555 1_555
C22_4 C21_4 1_555 1_555
H30_4 C22_4 1_555 1_555
C23_4 N11_2 1_555 1_555
H31_4 C23_4 1_555 1_555
C24_4 C6_4 1_555 1_555
H32_4 C24_4 1_555 1_555
C4_4 C5_4 1_555 1_555
C9_4 C12_4 1_555 1_555
C10_4 C11_4 1_555 1_555
C15_4 C18_4 1_555 1_555
C16_4 C17_4 1_555 1_555
C18_4 C24_4 1_555 1_555
C21_4 C24_4 1_555 1_555
C22_4 C23_4 1_555 1_555
S3 O15 1_555 1_555
O16 S3 1_555 1_555
O17 S3 1_555 1_555
O18 S3 1_555 1_555
O16_2 S3_2 1_555 1_555
O17_2 S3_2 1_555 1_555
O18_2 S3_2 1_555 1_555
S3_3 O15_3 1_555 1_555
O16_3 S3_3 1_555 1_555
O17_3 S3_3 1_555 1_555
O18_3 S3_3 1_555 1_555
O16_4 S3_4 1_555 1_555
O17_4 S3_4 1_555 1_555
O18_4 S3_4 1_555 1_555

#END
