
###############################################################################
#
# This file contains modified crystal structure data generated from the
# MOF subset of the Cambridge Structural Database (CSD) v543 
# hosted by the Cambridge Crystallographic Data Centre (CCDC).
#
# This work is licensed under the Creative Commons
# Attribution-NonCommercial-ShareAlike 4.0 International License.
# To view a copy of this license, visit
# http://creativecommons.org/licenses/by-nc-sa/4.0/
# or send a letter to
# Creative Commons, PO Box 1866, Mountain View, CA 94042, USA.
#
# CIF created using the CSD Python API on 29 September 2022
# The structure has been converted into the P1 space group
# The structure has a 3D framework
# The original CSD entry GITPIK is in the monoclinic crystal system
# The framework has been calculated to contain at least 10.0% void space
# The void calculation uses a probe of radius 1.32A, grid spacing 0.4
# H atom positions have been added when not included in the experimental data
# Generated hydrogen atom positions removed from atoms on special positions
#
###############################################################################

data_GITPIK
_chemical_formula_moiety         '(C168 H160 N48 O92 Zn16)n'
_symmetry_cell_setting           triclinic
_symmetry_space_group_name_H-M   'P 1'
_symmetry_Int_Tables_number      1
_space_group_name_Hall           'P 1'
loop_
_symmetry_equiv_pos_site_id
_symmetry_equiv_pos_as_xyz
1 x,y,z
_cell_length_a                   29.542(8)
_cell_length_b                   7.3171(18)
_cell_length_c                   35.757(10)
_cell_angle_alpha                90
_cell_angle_beta                 98.761(5)
_cell_angle_gamma                90
_cell_volume                     7639.11
loop_
_atom_site_label
_atom_site_type_symbol
_atom_site_fract_x
_atom_site_fract_y
_atom_site_fract_z
Zn10 Zn 0.047647(11) 0.05492(6) 0.281544(9)
Zn1 Zn 0.290319(10) 0.53787(4) 0.184661(8)
Zn2 Zn 0.452353(11) 0.55492(6) 0.218456(9)
N1 N 0.28702(7) 0.3503(3) 0.08155(6)
N2 N 0.20889(8) 0.3637(3) 0.05142(6)
N3 N 0.22737(7) 0.2462(3) 0.11433(6)
N4 N 0.27061(8) 0.4538(3) 0.02145(6)
H1 H 0.3000 0.4526 0.0238
N5 N 0.15232(8) 0.2606(4) 0.08259(6)
H2 H 0.1358 0.2752 0.0608
N6 N 0.30241(7) 0.2469(3) 0.14381(6)
O3 O 0.00290(7) 0.0733(3) 0.18823(6)
O4 O 0.06676(7) 0.0689(3) 0.23149(6)
O5 O 0.35405(7) 0.4531(3) 0.19897(5)
O6 O 0.41908(7) 0.3610(3) 0.18238(6)
O7 O 0.24067(8) 0.0558(3) 0.21514(6)
O8 O 0.25260(7) 0.3460(3) 0.20251(5)
O9 O 0.28544(8) 0.7221(3) 0.22500(6)
O10 O 0.41515(8) 0.7709(3) 0.19237(7)
O11 O 0.5000 0.3123(5) 0.2500
O12 O 0.5000 0.8243(6) 0.2500
C1 C 0.27150(9) 0.2821(3) 0.11143(7)
C2 C 0.25380(9) 0.3877(3) 0.05209(7)
C3 C 0.19821(9) 0.2909(4) 0.08357(7)
C11 C 0.12815(9) 0.2092(4) 0.11192(7)
C12 C 0.08090(10) 0.1838(5) 0.10249(8)
H7 H 0.0672 0.1932 0.0774
C13 C 0.05440(10) 0.1449(5) 0.13021(8)
H8 H 0.0229 0.1309 0.1235
C14 C 0.07400(9) 0.1263(4) 0.16786(7)
C15 C 0.12094(10) 0.1487(5) 0.17697(8)
H9 H 0.1347 0.1351 0.2020
C16 C 0.14781(10) 0.1909(5) 0.14962(8)
H10 H 0.1792 0.2071 0.1565
C17 C 0.04580(9) 0.0864(4) 0.19827(8)
C18 C 0.35116(9) 0.2647(4) 0.14304(7)
H11 H 0.3558 0.3296 0.1203
H12 H 0.3645 0.1439 0.1421
C19 C 0.37569(9) 0.3663(4) 0.17742(7)
C20 C 0.28849(9) 0.1097(3) 0.16965(7)
H13 H 0.3159 0.0564 0.1838
H14 H 0.2723 0.0129 0.1546
C21 C 0.25843(9) 0.1769(3) 0.19756(7)
Zn3 Zn 0.709681(10) 0.53787(4) 0.315339(8)
Zn4 Zn 0.547647(11) 0.55492(6) 0.281544(9)
N7 N 0.71298(7) 0.3503(3) 0.41845(6)
N8 N 0.79111(8) 0.3637(3) 0.44858(6)
N9 N 0.77263(7) 0.2462(3) 0.38567(6)
N10 N 0.72939(8) 0.4538(3) 0.47855(6)
H15 H 0.7000 0.4526 0.4762
N11 N 0.84768(8) 0.2606(4) 0.41741(6)
H16 H 0.8642 0.2752 0.4392
N12 N 0.69759(7) 0.2469(3) 0.35619(6)
O13 O 0.77279(8) 0.8274(3) 0.63884(5)
O14 O 0.84504(8) 0.7689(4) 0.63208(6)
O15 O 0.99710(7) 0.0733(3) 0.31177(6)
O16 O 0.93324(7) 0.0689(3) 0.26851(6)
O17 O 0.64595(7) 0.4531(3) 0.30103(5)
O18 O 0.58092(7) 0.3610(3) 0.31762(6)
O19 O 0.75933(8) 0.0558(3) 0.28486(6)
O20 O 0.74740(7) 0.3460(3) 0.29749(5)
O21 O 0.71456(8) 0.7221(3) 0.27500(6)
O22 O 0.58485(8) 0.7709(3) 0.30763(7)
C22 C 0.72850(9) 0.2821(3) 0.38857(7)
C23 C 0.74620(9) 0.3877(3) 0.44791(7)
C24 C 0.80179(9) 0.2909(4) 0.41643(7)
C25 C 0.75099(10) 0.5234(4) 0.51316(7)
C26 C 0.72136(10) 0.5887(4) 0.53707(8)
H17 H 0.6899 0.5801 0.5296
C27 C 0.73833(11) 0.6656(4) 0.57151(7)
H18 H 0.7182 0.7096 0.5870
C28 C 0.78541(10) 0.6779(4) 0.58321(7)
C29 C 0.81456(10) 0.6095(4) 0.55969(8)
H19 H 0.8460 0.6150 0.5675
C30 C 0.79808(10) 0.5329(4) 0.52469(8)
H20 H 0.8182 0.4886 0.5092
C31 C 0.80341(11) 0.7640(4) 0.62045(7)
C32 C 0.87185(9) 0.2092(4) 0.38808(7)
C33 C 0.91910(10) 0.1838(5) 0.39751(8)
H21 H 0.9328 0.1932 0.4226
C34 C 0.94560(10) 0.1449(5) 0.36979(8)
H22 H 0.9771 0.1309 0.3765
C35 C 0.92600(9) 0.1263(4) 0.33214(7)
C36 C 0.87906(10) 0.1487(5) 0.32303(8)
H23 H 0.8653 0.1351 0.2980
C37 C 0.85219(10) 0.1909(5) 0.35038(8)
H24 H 0.8208 0.2071 0.3435
C38 C 0.95420(9) 0.0864(4) 0.30173(8)
C39 C 0.64884(9) 0.2647(4) 0.35696(7)
H25 H 0.6442 0.3296 0.3797
H26 H 0.6355 0.1439 0.3579
C40 C 0.62431(9) 0.3663(4) 0.32258(7)
C41 C 0.71151(9) 0.1097(3) 0.33035(7)
H27 H 0.6841 0.0564 0.3162
H28 H 0.7277 0.0129 0.3454
C42 C 0.74157(9) 0.1769(3) 0.30244(7)
Zn6 Zn 0.790319(10) 0.96213(4) 0.684661(8)
Zn8 Zn 0.952353(11) 0.05492(6) 0.218456(9)
O23 O 0.27279(8) 0.6726(3) 0.13884(5)
O24 O 0.72721(8) 0.6726(3) 0.36116(5)
O25 O 0.50290(7) 0.5733(3) 0.18823(6)
O26 O 0.49710(7) 0.5733(3) 0.31177(6)
O27 O 0.56676(7) 0.5689(3) 0.23149(6)
O28 O 0.43324(7) 0.5689(3) 0.26851(6)
H31 H 0.308519 0.819872 0.223934
H32 H 0.254269 0.776382 0.22099
H33 H 0.691481 0.819872 0.276066
H34 H 0.745731 0.776382 0.27901
O1 O 0.22721(8) 0.8274(3) 0.86116(5)
O2 O 0.15496(8) 0.7689(4) 0.86792(6)
C4 C 0.24901(10) 0.5234(4) 0.98684(7)
C5 C 0.27864(10) 0.5887(4) 0.96293(8)
H3 H 0.3101 0.5801 0.9704
C6 C 0.26167(11) 0.6656(4) 0.92849(7)
H4 H 0.2818 0.7096 0.9130
C7 C 0.21459(10) 0.6779(4) 0.91679(7)
C8 C 0.18544(10) 0.6095(4) 0.94031(8)
H5 H 0.1540 0.6150 0.9325
C9 C 0.20192(10) 0.5329(4) 0.97531(8)
H6 H 0.1818 0.4886 0.9908
C10 C 0.19659(11) 0.7640(4) 0.87955(7)
Zn5 Zn 0.209681(10) 0.96213(4) 0.815339(8)
O12_2 O 0.0000 0.3243(6) 0.2500
Zn3_2 Zn 0.209681(10) 0.03787(4) 0.315339(8)
O13_2 O 0.27279(8) 0.3274(3) 0.63884(5)
O14_2 O 0.34504(8) 0.2689(4) 0.63208(6)
O21_2 O 0.21456(8) 0.2221(3) 0.27500(6)
O22_2 O 0.08485(8) 0.2709(3) 0.30763(7)
C25_2 C 0.25099(10) 0.0234(4) 0.51316(7)
C26_2 C 0.22136(10) 0.0887(4) 0.53707(8)
H17_2 H 0.1899 0.0801 0.5296
C27_2 C 0.23833(11) 0.1656(4) 0.57151(7)
H18_2 H 0.2182 0.2096 0.5870
C28_2 C 0.28541(10) 0.1779(4) 0.58321(7)
C29_2 C 0.31456(10) 0.1095(4) 0.55969(8)
H19_2 H 0.3460 0.1150 0.5675
C30_2 C 0.29808(10) 0.0329(4) 0.52469(8)
C31_2 C 0.30341(11) 0.2640(4) 0.62045(7)
Zn6_2 Zn 0.290319(10) 0.46213(4) 0.684661(8)
O24_2 O 0.22721(8) 0.1726(3) 0.36116(5)
H33_2 H 0.191481 0.319872 0.276066
H34_2 H 0.245731 0.276382 0.27901
O11_2 O 0.0000 0.8123(5) 0.2500
N7_2 N 0.21298(7) 0.8503(3) 0.41845(6)
N8_2 N 0.29111(8) 0.8637(3) 0.44858(6)
N9_2 N 0.27263(7) 0.7462(3) 0.38567(6)
N10_2 N 0.22939(8) 0.9538(3) 0.47855(6)
H15_2 H 0.2000 0.9526 0.4762
N11_2 N 0.34768(8) 0.7606(4) 0.41741(6)
H16_2 H 0.3642 0.7752 0.4392
N12_2 N 0.19759(7) 0.7469(3) 0.35619(6)
O17_2 O 0.14595(7) 0.9531(3) 0.30103(5)
O18_2 O 0.08092(7) 0.8610(3) 0.31762(6)
O19_2 O 0.25933(8) 0.5558(3) 0.28486(6)
O20_2 O 0.24740(7) 0.8460(3) 0.29749(5)
C22_2 C 0.22850(9) 0.7821(3) 0.38857(7)
C23_2 C 0.24620(9) 0.8877(3) 0.44791(7)
C24_2 C 0.30179(9) 0.7909(4) 0.41643(7)
H20_2 H 0.3182 0.9886 0.5092
C32_2 C 0.37185(9) 0.7092(4) 0.38808(7)
C33_2 C 0.41910(10) 0.6838(5) 0.39751(8)
H21_2 H 0.4328 0.6932 0.4226
C34_2 C 0.44560(10) 0.6449(5) 0.36979(8)
H22_2 H 0.4771 0.6309 0.3765
C35_2 C 0.42600(9) 0.6263(4) 0.33214(7)
C36_2 C 0.37906(10) 0.6487(5) 0.32303(8)
H23_2 H 0.3653 0.6351 0.2980
C37_2 C 0.35219(10) 0.6909(5) 0.35038(8)
H24_2 H 0.3208 0.7071 0.3435
C38_2 C 0.45420(9) 0.5864(4) 0.30173(8)
C39_2 C 0.14884(9) 0.7647(4) 0.35696(7)
H25_2 H 0.1442 0.8296 0.3797
H26_2 H 0.1355 0.6439 0.3579
C40_2 C 0.12431(9) 0.8663(4) 0.32258(7)
C41_2 C 0.21151(9) 0.6097(3) 0.33035(7)
H27_2 H 0.1841 0.5564 0.3162
H28_2 H 0.2277 0.5129 0.3454
C42_2 C 0.24157(9) 0.6769(3) 0.30244(7)
Zn1_2 Zn 0.790319(10) 0.03787(4) 0.184661(8)
O9_2 O 0.78544(8) 0.2221(3) 0.22500(6)
O10_2 O 0.91515(8) 0.2709(3) 0.19237(7)
O12_3 O 1.0000 0.3243(6) 0.2500
O23_2 O 0.77279(8) 0.1726(3) 0.13884(5)
H31_2 H 0.808519 0.319872 0.223934
H32_2 H 0.754269 0.276382 0.22099
O1_2 O 0.72721(8) 0.3274(3) 0.86116(5)
O2_2 O 0.65496(8) 0.2689(4) 0.86792(6)
C4_2 C 0.74901(10) 0.0234(4) 0.98684(7)
C5_2 C 0.77864(10) 0.0887(4) 0.96293(8)
H3_2 H 0.8101 0.0801 0.9704
C6_2 C 0.76167(11) 0.1656(4) 0.92849(7)
H4_2 H 0.7818 0.2096 0.9130
C7_2 C 0.71459(10) 0.1779(4) 0.91679(7)
C8_2 C 0.68544(10) 0.1095(4) 0.94031(8)
H5_2 H 0.6540 0.1150 0.9325
C9_2 C 0.70192(10) 0.0329(4) 0.97531(8)
C10_2 C 0.69659(11) 0.2640(4) 0.87955(7)
Zn5_2 Zn 0.709681(10) 0.46213(4) 0.815339(8)
N1_2 N 0.78702(7) 0.8503(3) 0.08155(6)
N2_2 N 0.70889(8) 0.8637(3) 0.05142(6)
N3_2 N 0.72737(7) 0.7462(3) 0.11433(6)
N4_2 N 0.77061(8) 0.9538(3) 0.02145(6)
H1_2 H 0.8000 0.9526 0.0238
N5_2 N 0.65232(8) 0.7606(4) 0.08259(6)
H2_2 H 0.6358 0.7752 0.0608
N6_2 N 0.80241(7) 0.7469(3) 0.14381(6)
O5_2 O 0.85405(7) 0.9531(3) 0.19897(5)
O6_2 O 0.91908(7) 0.8610(3) 0.18238(6)
O7_2 O 0.74067(8) 0.5558(3) 0.21514(6)
O8_2 O 0.75260(7) 0.8460(3) 0.20251(5)
O11_3 O 1.0000 0.8123(5) 0.2500
C1_2 C 0.77150(9) 0.7821(3) 0.11143(7)
C2_2 C 0.75380(9) 0.8877(3) 0.05209(7)
C3_2 C 0.69821(9) 0.7909(4) 0.08357(7)
C11_2 C 0.62815(9) 0.7092(4) 0.11192(7)
C12_2 C 0.58090(10) 0.6838(5) 0.10249(8)
H7_2 H 0.5672 0.6932 0.0774
C13_2 C 0.55440(10) 0.6449(5) 0.13021(8)
H8_2 H 0.5229 0.6309 0.1235
C14_2 C 0.57400(9) 0.6263(4) 0.16786(7)
C15_2 C 0.62094(10) 0.6487(5) 0.17697(8)
H9_2 H 0.6347 0.6351 0.2020
C16_2 C 0.64781(10) 0.6909(5) 0.14962(8)
H10_2 H 0.6792 0.7071 0.1565
C17_2 C 0.54580(9) 0.5864(4) 0.19827(8)
C18_2 C 0.85116(9) 0.7647(4) 0.14304(7)
H11_2 H 0.8558 0.8296 0.1203
H12_2 H 0.8645 0.6439 0.1421
C19_2 C 0.87569(9) 0.8663(4) 0.17742(7)
C20_2 C 0.78849(9) 0.6097(3) 0.16965(7)
H13_2 H 0.8159 0.5564 0.1838
H14_2 H 0.7723 0.5129 0.1546
C21_2 C 0.75843(9) 0.6769(3) 0.19756(7)
Zn7 Zn 0.047647(11) 0.94508(6) 0.781544(9)
O2_3 O 0.84504(8) 0.2311(4) 0.13208(6)
C4_3 C 0.75099(10) 0.4766(4) 0.01316(7)
C5_3 C 0.72136(10) 0.4113(4) 0.03707(8)
H3_3 H 0.6899 0.4199 0.0296
C6_3 C 0.73833(11) 0.3344(4) 0.07151(7)
H4_3 H 0.7182 0.2904 0.0870
C7_3 C 0.78541(10) 0.3221(4) 0.08321(7)
C8_3 C 0.81456(10) 0.3905(4) 0.05969(8)
H5_3 H 0.8460 0.3850 0.0675
C9_3 C 0.79808(10) 0.4671(4) 0.02469(8)
H6_2 H 0.8182 0.5114 0.0092
C10_3 C 0.80341(11) 0.2360(4) 0.12045(7)
Zn2_2 Zn 0.547647(11) 0.44508(6) 0.781544(9)
N1_3 N 0.71298(7) 0.6497(3) 0.91845(6)
N2_3 N 0.79111(8) 0.6363(3) 0.94858(6)
N3_3 N 0.77263(7) 0.7538(3) 0.88567(6)
N4_3 N 0.72939(8) 0.5462(3) 0.97855(6)
H1_3 H 0.7000 0.5474 0.9762
N5_3 N 0.84768(8) 0.7394(4) 0.91741(6)
H2_3 H 0.8642 0.7248 0.9392
N6_3 N 0.69759(7) 0.7531(3) 0.85619(6)
O3_2 O 0.99710(7) 0.9267(3) 0.81177(6)
O4_2 O 0.93324(7) 0.9311(3) 0.76851(6)
O5_3 O 0.64595(7) 0.5469(3) 0.80103(5)
O6_3 O 0.58092(7) 0.6390(3) 0.81762(6)
O7_3 O 0.75933(8) 0.9442(3) 0.78486(6)
O8_3 O 0.74740(7) 0.6540(3) 0.79749(5)
O9_3 O 0.71456(8) 0.2779(3) 0.77500(6)
O10_3 O 0.58485(8) 0.2291(3) 0.80763(7)
O11_4 O 0.5000 0.6877(5) 0.7500
O12_4 O 0.5000 0.1757(6) 0.7500
C1_3 C 0.72850(9) 0.7179(3) 0.88857(7)
C2_3 C 0.74620(9) 0.6123(3) 0.94791(7)
C3_3 C 0.80179(9) 0.7091(4) 0.91643(7)
C11_3 C 0.87185(9) 0.7908(4) 0.88808(7)
C12_3 C 0.91910(10) 0.8162(5) 0.89751(8)
H7_3 H 0.9328 0.8068 0.9226
C13_3 C 0.94560(10) 0.8551(5) 0.86979(8)
H8_3 H 0.9771 0.8691 0.8765
C14_3 C 0.92600(9) 0.8737(4) 0.83214(7)
C15_3 C 0.87906(10) 0.8513(5) 0.82303(8)
H9_3 H 0.8653 0.8649 0.7980
C16_3 C 0.85219(10) 0.8091(5) 0.85038(8)
H10_3 H 0.8208 0.7929 0.8435
C17_3 C 0.95420(9) 0.9136(4) 0.80173(8)
C18_3 C 0.64884(9) 0.7353(4) 0.85696(7)
H11_3 H 0.6442 0.6704 0.8797
H12_3 H 0.6355 0.8561 0.8579
C19_3 C 0.62431(9) 0.6337(4) 0.82258(7)
C20_3 C 0.71151(9) 0.8903(3) 0.83035(7)
H13_3 H 0.6841 0.9436 0.8162
H14_3 H 0.7277 0.9871 0.8454
C21_3 C 0.74157(9) 0.8231(3) 0.80244(7)
Zn4_2 Zn 0.452353(11) 0.44508(6) 0.718456(9)
N7_3 N 0.28702(7) 0.6497(3) 0.58155(6)
N8_3 N 0.20889(8) 0.6363(3) 0.55142(6)
N9_3 N 0.22737(7) 0.7538(3) 0.61433(6)
N10_3 N 0.27061(8) 0.5462(3) 0.52145(6)
H15_3 H 0.3000 0.5474 0.5238
N11_3 N 0.15232(8) 0.7394(4) 0.58259(6)
H16_3 H 0.1358 0.7248 0.5608
N12_3 N 0.30241(7) 0.7531(3) 0.64381(6)
O14_3 O 0.15496(8) 0.2311(4) 0.36792(6)
O15_2 O 0.00290(7) 0.9267(3) 0.68823(6)
O16_2 O 0.06676(7) 0.9311(3) 0.73149(6)
O17_3 O 0.35405(7) 0.5469(3) 0.69897(5)
O18_3 O 0.41908(7) 0.6390(3) 0.68238(6)
O19_3 O 0.24067(8) 0.9442(3) 0.71514(6)
O20_3 O 0.25260(7) 0.6540(3) 0.70251(5)
O21_3 O 0.28544(8) 0.2779(3) 0.72500(6)
O22_3 O 0.41515(8) 0.2291(3) 0.69237(7)
C22_3 C 0.27150(9) 0.7179(3) 0.61143(7)
C23_3 C 0.25380(9) 0.6123(3) 0.55209(7)
C24_3 C 0.19821(9) 0.7091(4) 0.58357(7)
C25_3 C 0.24901(10) 0.4766(4) 0.48684(7)
C26_3 C 0.27864(10) 0.4113(4) 0.46293(8)
H17_3 H 0.3101 0.4199 0.4704
C27_3 C 0.26167(11) 0.3344(4) 0.42849(7)
H18_3 H 0.2818 0.2904 0.4130
C28_3 C 0.21459(10) 0.3221(4) 0.41679(7)
C29_3 C 0.18544(10) 0.3905(4) 0.44031(8)
H19_3 H 0.1540 0.3850 0.4325
C30_3 C 0.20192(10) 0.4671(4) 0.47531(8)
H20_3 H 0.1818 0.5114 0.4908
C31_3 C 0.19659(11) 0.2360(4) 0.37955(7)
C32_3 C 0.12815(9) 0.7908(4) 0.61192(7)
C33_3 C 0.08090(10) 0.8162(5) 0.60249(8)
H21_3 H 0.0672 0.8068 0.5774
C34_3 C 0.05440(10) 0.8551(5) 0.63021(8)
H22_3 H 0.0229 0.8691 0.6235
C35_3 C 0.07400(9) 0.8737(4) 0.66786(7)
C36_3 C 0.12094(10) 0.8513(5) 0.67697(8)
H23_3 H 0.1347 0.8649 0.7020
C37_3 C 0.14781(10) 0.8091(5) 0.64962(8)
H24_3 H 0.1792 0.7929 0.6565
C38_3 C 0.04580(9) 0.9136(4) 0.69827(8)
C39_3 C 0.35116(9) 0.7353(4) 0.64304(7)
H25_3 H 0.3558 0.6704 0.6203
H26_3 H 0.3645 0.8561 0.6421
C40_3 C 0.37569(9) 0.6337(4) 0.67742(7)
C41_3 C 0.28849(9) 0.8903(3) 0.66965(7)
H27_3 H 0.3159 0.9436 0.6838
H28_3 H 0.2723 0.9871 0.6546
C42_3 C 0.25843(9) 0.8231(3) 0.69756(7)
Zn9 Zn 0.952353(11) 0.94508(6) 0.718456(9)
O25_2 O 0.49710(7) 0.4267(3) 0.81177(6)
O26_2 O 0.50290(7) 0.4267(3) 0.68823(6)
O27_2 O 0.43324(7) 0.4311(3) 0.76851(6)
O28_2 O 0.56676(7) 0.4311(3) 0.73149(6)
H31_3 H 0.691481 0.180128 0.776066
H32_3 H 0.745731 0.223618 0.77901
H33_3 H 0.308519 0.180128 0.723934
H34_3 H 0.254269 0.223618 0.72099
N1_4 N 0.21298(7) 0.1497(3) 0.91845(6)
N2_4 N 0.29111(8) 0.1363(3) 0.94858(6)
N3_4 N 0.27263(7) 0.2538(3) 0.88567(6)
N4_4 N 0.22939(8) 0.0462(3) 0.97855(6)
H1_4 H 0.2000 0.0474 0.9762
N5_4 N 0.34768(8) 0.2394(4) 0.91741(6)
H2_4 H 0.3642 0.2248 0.9392
N6_4 N 0.19759(7) 0.2531(3) 0.85619(6)
O5_4 O 0.14595(7) 0.0469(3) 0.80103(5)
O6_4 O 0.08092(7) 0.1390(3) 0.81762(6)
O7_4 O 0.25933(8) 0.4442(3) 0.78486(6)
O8_4 O 0.24740(7) 0.1540(3) 0.79749(5)
O11_5 O 0.0000 0.1877(5) 0.7500
C1_4 C 0.22850(9) 0.2179(3) 0.88857(7)
C2_4 C 0.24620(9) 0.1123(3) 0.94791(7)
C3_4 C 0.30179(9) 0.2091(4) 0.91643(7)
C11_4 C 0.37185(9) 0.2908(4) 0.88808(7)
C12_4 C 0.41910(10) 0.3162(5) 0.89751(8)
H7_4 H 0.4328 0.3068 0.9226
C13_4 C 0.44560(10) 0.3551(5) 0.86979(8)
H8_4 H 0.4771 0.3691 0.8765
C14_4 C 0.42600(9) 0.3737(4) 0.83214(7)
C15_4 C 0.37906(10) 0.3513(5) 0.82303(8)
H9_4 H 0.3653 0.3649 0.7980
C16_4 C 0.35219(10) 0.3091(5) 0.85038(8)
H10_4 H 0.3208 0.2929 0.8435
C17_4 C 0.45420(9) 0.4136(4) 0.80173(8)
C18_4 C 0.14884(9) 0.2353(4) 0.85696(7)
H11_4 H 0.1442 0.1704 0.8797
H12_4 H 0.1355 0.3561 0.8579
C19_4 C 0.12431(9) 0.1337(4) 0.82258(7)
C20_4 C 0.21151(9) 0.3903(3) 0.83035(7)
H13_4 H 0.1841 0.4436 0.8162
H14_4 H 0.2277 0.4871 0.8454
C21_4 C 0.24157(9) 0.3231(3) 0.80244(7)
O2_4 O 0.34504(8) 0.7311(4) 0.13208(6)
C4_4 C 0.25099(10) 0.9766(4) 0.01316(7)
C5_4 C 0.22136(10) 0.9113(4) 0.03707(8)
H3_4 H 0.1899 0.9199 0.0296
C6_4 C 0.23833(11) 0.8344(4) 0.07151(7)
H4_4 H 0.2182 0.7904 0.0870
C7_4 C 0.28541(10) 0.8221(4) 0.08321(7)
C8_4 C 0.31456(10) 0.8905(4) 0.05969(8)
H5_4 H 0.3460 0.8850 0.0675
C9_4 C 0.29808(10) 0.9671(4) 0.02469(8)
C10_4 C 0.30341(11) 0.7360(4) 0.12045(7)
O9_4 O 0.21456(8) 0.7779(3) 0.77500(6)
O10_4 O 0.08485(8) 0.7291(3) 0.80763(7)
O12_5 O 0.0000 0.6757(6) 0.7500
H31_4 H 0.191481 0.680128 0.776066
H32_4 H 0.245731 0.723618 0.77901
O11_6 O 1.0000 0.1877(5) 0.7500
N7_4 N 0.78702(7) 0.1497(3) 0.58155(6)
N8_4 N 0.70889(8) 0.1363(3) 0.55142(6)
N9_4 N 0.72737(7) 0.2538(3) 0.61433(6)
N10_4 N 0.77061(8) 0.0462(3) 0.52145(6)
H15_4 H 0.8000 0.0474 0.5238
N11_4 N 0.65232(8) 0.2394(4) 0.58259(6)
H16_4 H 0.6358 0.2248 0.5608
N12_4 N 0.80241(7) 0.2531(3) 0.64381(6)
O17_4 O 0.85405(7) 0.0469(3) 0.69897(5)
O18_4 O 0.91908(7) 0.1390(3) 0.68238(6)
O19_4 O 0.74067(8) 0.4442(3) 0.71514(6)
O20_4 O 0.75260(7) 0.1540(3) 0.70251(5)
C22_4 C 0.77150(9) 0.2179(3) 0.61143(7)
C23_4 C 0.75380(9) 0.1123(3) 0.55209(7)
C24_4 C 0.69821(9) 0.2091(4) 0.58357(7)
H20_4 H 0.6818 0.0114 0.4908
C32_4 C 0.62815(9) 0.2908(4) 0.61192(7)
C33_4 C 0.58090(10) 0.3162(5) 0.60249(8)
H21_4 H 0.5672 0.3068 0.5774
C34_4 C 0.55440(10) 0.3551(5) 0.63021(8)
H22_4 H 0.5229 0.3691 0.6235
C35_4 C 0.57400(9) 0.3737(4) 0.66786(7)
C36_4 C 0.62094(10) 0.3513(5) 0.67697(8)
H23_4 H 0.6347 0.3649 0.7020
C37_4 C 0.64781(10) 0.3091(5) 0.64962(8)
H24_4 H 0.6792 0.2929 0.6565
C38_4 C 0.54580(9) 0.4136(4) 0.69827(8)
C39_4 C 0.85116(9) 0.2353(4) 0.64304(7)
H25_4 H 0.8558 0.1704 0.6203
H26_4 H 0.8645 0.3561 0.6421
C40_4 C 0.87569(9) 0.1337(4) 0.67742(7)
C41_4 C 0.78849(9) 0.3903(3) 0.66965(7)
H27_4 H 0.8159 0.4436 0.6838
H28_4 H 0.7723 0.4871 0.6546
C42_4 C 0.75843(9) 0.3231(3) 0.69756(7)
O12_6 O 1.0000 0.6757(6) 0.7500
O14_4 O 0.65496(8) 0.7311(4) 0.36792(6)
O21_4 O 0.78544(8) 0.7779(3) 0.72500(6)
O22_4 O 0.91515(8) 0.7291(3) 0.69237(7)
C25_4 C 0.74901(10) 0.9766(4) 0.48684(7)
C26_4 C 0.77864(10) 0.9113(4) 0.46293(8)
H17_4 H 0.8101 0.9199 0.4704
C27_4 C 0.76167(11) 0.8344(4) 0.42849(7)
H18_4 H 0.7818 0.7904 0.4130
C28_4 C 0.71459(10) 0.8221(4) 0.41679(7)
C29_4 C 0.68544(10) 0.8905(4) 0.44031(8)
H19_4 H 0.6540 0.8850 0.4325
C30_4 C 0.70192(10) 0.9671(4) 0.47531(8)
C31_4 C 0.69659(11) 0.7360(4) 0.37955(7)
H33_4 H 0.808519 0.680128 0.723934
H34_4 H 0.754269 0.723618 0.72099
H6_3 H 0.6818 0.9886 0.9908
H6_4 H 0.3182 0.0114 0.0092
loop_
_geom_bond_atom_site_label_1
_geom_bond_atom_site_label_2
_geom_bond_site_symmetry_1
_geom_bond_site_symmetry_2
Zn1 O5 1_555 1_555
Zn2 O6 1_555 1_555
N1 C1 1_555 1_555
N2 C2 1_555 1_555
N3 C1 1_555 1_555
N4 H1 1_555 1_555
N5 H2 1_555 1_555
N6 C1 1_555 1_555
O3 C17 1_555 1_555
O4 C17 1_555 1_555
O5 C19 1_555 1_555
O6 C19 1_555 1_555
O7 C21 1_555 1_555
O8 Zn1 1_555 1_555
O9 Zn1 1_555 1_555
O10 Zn2 1_555 1_555
O11 Zn2 1_555 1_555
O12 Zn2 1_555 1_555
C2 N1 1_555 1_555
C3 N2 1_555 1_555
C11 N5 1_555 1_555
C12 C11 1_555 1_555
H7 C12 1_555 1_555
C13 C12 1_555 1_555
H8 C13 1_555 1_555
C14 C13 1_555 1_555
C15 C14 1_555 1_555
H9 C15 1_555 1_555
C16 C11 1_555 1_555
H10 C16 1_555 1_555
C17 C14 1_555 1_555
C18 N6 1_555 1_555
H11 C18 1_555 1_555
H12 C18 1_555 1_555
C19 C18 1_555 1_555
C20 N6 1_555 1_555
H13 C20 1_555 1_555
H14 C20 1_555 1_555
C21 O8 1_555 1_555
Zn3 O17 1_555 1_555
Zn4 O11 1_555 1_555
N7 C22 1_555 1_555
N8 C23 1_555 1_555
N9 C22 1_555 1_555
N10 H15 1_555 1_555
N11 H16 1_555 1_555
N12 C22 1_555 1_555
O13 C31 1_555 1_555
O14 C31 1_555 1_555
O15 C38 1_555 1_555
O16 C38 1_555 1_555
O17 C40 1_555 1_555
O18 Zn4 1_555 1_555
O19 C42 1_555 1_555
O20 Zn3 1_555 1_555
O21 Zn3 1_555 1_555
O22 Zn4 1_555 1_555
C23 N7 1_555 1_555
C24 N8 1_555 1_555
C25 N10 1_555 1_555
C26 C25 1_555 1_555
H17 C26 1_555 1_555
C27 C26 1_555 1_555
H18 C27 1_555 1_555
C28 C27 1_555 1_555
C29 C28 1_555 1_555
H19 C29 1_555 1_555
C30 C25 1_555 1_555
H20 C30 1_555 1_555
C31 C28 1_555 1_555
C32 N11 1_555 1_555
C33 C32 1_555 1_555
H21 C33 1_555 1_555
C34 C33 1_555 1_555
H22 C34 1_555 1_555
C35 C34 1_555 1_555
C36 C35 1_555 1_555
H23 C36 1_555 1_555
C37 C32 1_555 1_555
H24 C37 1_555 1_555
C38 C35 1_555 1_555
C39 N12 1_555 1_555
H25 C39 1_555 1_555
H26 C39 1_555 1_555
C40 O18 1_555 1_555
C41 N12 1_555 1_555
H27 C41 1_555 1_555
H28 C41 1_555 1_555
C42 O20 1_555 1_555
Zn6 O13 1_555 1_555
Zn8 O16 1_555 1_555
Zn10 O4 1_555 1_555
O23 Zn1 1_555 1_555
O24 Zn3 1_555 1_555
O25 Zn2 1_555 1_555
O26 Zn4 1_555 1_555
O27 Zn4 1_555 1_555
O28 Zn2 1_555 1_555
N3 C3 1_555 1_555
N4 C2 1_555 1_555
N5 C3 1_555 1_555
O12 Zn4 1_555 1_555
C15 C16 1_555 1_555
C20 C21 1_555 1_555
N9 C24 1_555 1_555
N10 C23 1_555 1_555
N11 C24 1_555 1_555
C29 C30 1_555 1_555
C36 C37 1_555 1_555
C39 C40 1_555 1_555
C41 C42 1_555 1_555
O9 H31 1_555 1_555
O9 H32 1_555 1_555
O21 H33 1_555 1_555
O21 H34 1_555 1_555
O1 C10 1_555 1_555
O2 C10 1_555 1_555
C5 C4 1_555 1_555
H3 C5 1_555 1_555
C6 C5 1_555 1_555
H4 C6 1_555 1_555
C7 C6 1_555 1_555
C8 C7 1_555 1_555
H5 C8 1_555 1_555
C9 C4 1_555 1_555
H6 C9 1_555 1_555
C10 C7 1_555 1_555
Zn5 O1 1_555 1_555
C8 C9 1_555 1_555
O13_2 C31_2 1_555 1_555
O14_2 C31_2 1_555 1_555
O21_2 Zn3_2 1_555 1_555
O22_2 Zn10 1_555 1_555
C26_2 C25_2 1_555 1_555
H17_2 C26_2 1_555 1_555
C27_2 C26_2 1_555 1_555
H18_2 C27_2 1_555 1_555
C28_2 C27_2 1_555 1_555
C29_2 C28_2 1_555 1_555
H19_2 C29_2 1_555 1_555
C30_2 C25_2 1_555 1_555
C31_2 C28_2 1_555 1_555
Zn6_2 O13_2 1_555 1_555
O24_2 Zn3_2 1_555 1_555
O12_2 Zn10 1_555 1_555
C29_2 C30_2 1_555 1_555
O21_2 H33_2 1_555 1_555
O21_2 H34_2 1_555 1_555
N7_2 C22_2 1_555 1_555
N8_2 C23_2 1_555 1_555
N9_2 C22_2 1_555 1_555
N10_2 H15_2 1_555 1_555
N11_2 H16_2 1_555 1_555
N12_2 C22_2 1_555 1_555
O26 C38_2 1_555 1_555
O28 C38_2 1_555 1_555
O17_2 C40_2 1_555 1_555
O19_2 C42_2 1_555 1_555
C23_2 N7_2 1_555 1_555
C24_2 N8_2 1_555 1_555
C32_2 N11_2 1_555 1_555
C33_2 C32_2 1_555 1_555
H21_2 C33_2 1_555 1_555
C34_2 C33_2 1_555 1_555
H22_2 C34_2 1_555 1_555
C35_2 C34_2 1_555 1_555
C36_2 C35_2 1_555 1_555
H23_2 C36_2 1_555 1_555
C37_2 C32_2 1_555 1_555
H24_2 C37_2 1_555 1_555
C38_2 C35_2 1_555 1_555
C39_2 N12_2 1_555 1_555
H25_2 C39_2 1_555 1_555
H26_2 C39_2 1_555 1_555
C40_2 O18_2 1_555 1_555
C41_2 N12_2 1_555 1_555
H27_2 C41_2 1_555 1_555
H28_2 C41_2 1_555 1_555
C42_2 O20_2 1_555 1_555
N9_2 C24_2 1_555 1_555
N10_2 C23_2 1_555 1_555
N11_2 C24_2 1_555 1_555
C36_2 C37_2 1_555 1_555
C39_2 C40_2 1_555 1_555
C41_2 C42_2 1_555 1_555
O9_2 Zn1_2 1_555 1_555
O10_2 Zn8 1_555 1_555
O12_3 Zn8 1_555 1_555
O23_2 Zn1_2 1_555 1_555
O9_2 H31_2 1_555 1_555
O9_2 H32_2 1_555 1_555
O1_2 C10_2 1_555 1_555
O2_2 C10_2 1_555 1_555
C5_2 C4_2 1_555 1_555
H3_2 C5_2 1_555 1_555
C6_2 C5_2 1_555 1_555
H4_2 C6_2 1_555 1_555
C7_2 C6_2 1_555 1_555
C8_2 C7_2 1_555 1_555
H5_2 C8_2 1_555 1_555
C9_2 C4_2 1_555 1_555
C10_2 C7_2 1_555 1_555
Zn5_2 O1_2 1_555 1_555
C8_2 C9_2 1_555 1_555
N1_2 C1_2 1_555 1_555
N2_2 C2_2 1_555 1_555
N3_2 C1_2 1_555 1_555
N4_2 H1_2 1_555 1_555
N5_2 H2_2 1_555 1_555
N6_2 C1_2 1_555 1_555
O25 C17_2 1_555 1_555
O27 C17_2 1_555 1_555
O5_2 C19_2 1_555 1_555
O6_2 C19_2 1_555 1_555
O7_2 C21_2 1_555 1_555
C2_2 N1_2 1_555 1_555
C3_2 N2_2 1_555 1_555
C11_2 N5_2 1_555 1_555
C12_2 C11_2 1_555 1_555
H7_2 C12_2 1_555 1_555
C13_2 C12_2 1_555 1_555
H8_2 C13_2 1_555 1_555
C14_2 C13_2 1_555 1_555
C15_2 C14_2 1_555 1_555
H9_2 C15_2 1_555 1_555
C16_2 C11_2 1_555 1_555
H10_2 C16_2 1_555 1_555
C17_2 C14_2 1_555 1_555
C18_2 N6_2 1_555 1_555
H11_2 C18_2 1_555 1_555
H12_2 C18_2 1_555 1_555
C19_2 C18_2 1_555 1_555
C20_2 N6_2 1_555 1_555
H13_2 C20_2 1_555 1_555
H14_2 C20_2 1_555 1_555
C21_2 O8_2 1_555 1_555
N3_2 C3_2 1_555 1_555
N4_2 C2_2 1_555 1_555
N5_2 C3_2 1_555 1_555
C15_2 C16_2 1_555 1_555
C20_2 C21_2 1_555 1_555
O23_2 C10_3 1_555 1_555
O2_3 C10_3 1_555 1_555
C5_3 C4_3 1_555 1_555
H3_3 C5_3 1_555 1_555
C6_3 C5_3 1_555 1_555
H4_3 C6_3 1_555 1_555
C7_3 C6_3 1_555 1_555
C8_3 C7_3 1_555 1_555
H5_3 C8_3 1_555 1_555
C9_3 C4_3 1_555 1_555
H6_2 C9_3 1_555 1_555
C10_3 C7_3 1_555 1_555
C8_3 C9_3 1_555 1_555
Zn5_2 O5_3 1_555 1_555
Zn2_2 O6_3 1_555 1_555
N1_3 C1_3 1_555 1_555
N2_3 C2_3 1_555 1_555
N3_3 C1_3 1_555 1_555
N4_3 H1_3 1_555 1_555
N5_3 H2_3 1_555 1_555
N6_3 C1_3 1_555 1_555
O3_2 C17_3 1_555 1_555
O4_2 C17_3 1_555 1_555
O5_3 C19_3 1_555 1_555
O6_3 C19_3 1_555 1_555
O7_3 C21_3 1_555 1_555
O8_3 Zn5_2 1_555 1_555
O9_3 Zn5_2 1_555 1_555
O10_3 Zn2_2 1_555 1_555
O11_4 Zn2_2 1_555 1_555
O12_4 Zn2_2 1_555 1_555
C2_3 N1_3 1_555 1_555
C3_3 N2_3 1_555 1_555
C11_3 N5_3 1_555 1_555
C12_3 C11_3 1_555 1_555
H7_3 C12_3 1_555 1_555
C13_3 C12_3 1_555 1_555
H8_3 C13_3 1_555 1_555
C14_3 C13_3 1_555 1_555
C15_3 C14_3 1_555 1_555
H9_3 C15_3 1_555 1_555
C16_3 C11_3 1_555 1_555
H10_3 C16_3 1_555 1_555
C17_3 C14_3 1_555 1_555
C18_3 N6_3 1_555 1_555
H11_3 C18_3 1_555 1_555
H12_3 C18_3 1_555 1_555
C19_3 C18_3 1_555 1_555
C20_3 N6_3 1_555 1_555
H13_3 C20_3 1_555 1_555
H14_3 C20_3 1_555 1_555
C21_3 O8_3 1_555 1_555
Zn6_2 O17_3 1_555 1_555
Zn4_2 O11_4 1_555 1_555
N7_3 C22_3 1_555 1_555
N8_3 C23_3 1_555 1_555
N9_3 C22_3 1_555 1_555
N10_3 H15_3 1_555 1_555
N11_3 H16_3 1_555 1_555
N12_3 C22_3 1_555 1_555
O24_2 C31_3 1_555 1_555
O14_3 C31_3 1_555 1_555
O15_2 C38_3 1_555 1_555
O16_2 C38_3 1_555 1_555
O17_3 C40_3 1_555 1_555
O18_3 Zn4_2 1_555 1_555
O19_3 C42_3 1_555 1_555
O20_3 Zn6_2 1_555 1_555
O21_3 Zn6_2 1_555 1_555
O22_3 Zn4_2 1_555 1_555
C23_3 N7_3 1_555 1_555
C24_3 N8_3 1_555 1_555
C25_3 N10_3 1_555 1_555
C26_3 C25_3 1_555 1_555
H17_3 C26_3 1_555 1_555
C27_3 C26_3 1_555 1_555
H18_3 C27_3 1_555 1_555
C28_3 C27_3 1_555 1_555
C29_3 C28_3 1_555 1_555
H19_3 C29_3 1_555 1_555
C30_3 C25_3 1_555 1_555
H20_3 C30_3 1_555 1_555
C31_3 C28_3 1_555 1_555
C32_3 N11_3 1_555 1_555
C33_3 C32_3 1_555 1_555
H21_3 C33_3 1_555 1_555
C34_3 C33_3 1_555 1_555
H22_3 C34_3 1_555 1_555
C35_3 C34_3 1_555 1_555
C36_3 C35_3 1_555 1_555
H23_3 C36_3 1_555 1_555
C37_3 C32_3 1_555 1_555
H24_3 C37_3 1_555 1_555
C38_3 C35_3 1_555 1_555
C39_3 N12_3 1_555 1_555
H25_3 C39_3 1_555 1_555
H26_3 C39_3 1_555 1_555
C40_3 O18_3 1_555 1_555
C41_3 N12_3 1_555 1_555
H27_3 C41_3 1_555 1_555
H28_3 C41_3 1_555 1_555
C42_3 O20_3 1_555 1_555
Zn7 O16_2 1_555 1_555
Zn9 O4_2 1_555 1_555
O25_2 Zn2_2 1_555 1_555
O26_2 Zn4_2 1_555 1_555
O27_2 Zn4_2 1_555 1_555
O28_2 Zn2_2 1_555 1_555
N3_3 C3_3 1_555 1_555
N4_3 C2_3 1_555 1_555
N5_3 C3_3 1_555 1_555
O12_4 Zn4_2 1_555 1_555
C15_3 C16_3 1_555 1_555
C20_3 C21_3 1_555 1_555
N9_3 C24_3 1_555 1_555
N10_3 C23_3 1_555 1_555
N11_3 C24_3 1_555 1_555
C29_3 C30_3 1_555 1_555
C36_3 C37_3 1_555 1_555
C39_3 C40_3 1_555 1_555
C41_3 C42_3 1_555 1_555
O9_3 H31_3 1_555 1_555
O9_3 H32_3 1_555 1_555
O21_3 H33_3 1_555 1_555
O21_3 H34_3 1_555 1_555
N1_4 C1_4 1_555 1_555
N2_4 C2_4 1_555 1_555
N3_4 C1_4 1_555 1_555
N4_4 H1_4 1_555 1_555
N5_4 H2_4 1_555 1_555
N6_4 C1_4 1_555 1_555
O25_2 C17_4 1_555 1_555
O27_2 C17_4 1_555 1_555
O5_4 C19_4 1_555 1_555
O6_4 C19_4 1_555 1_555
O7_4 C21_4 1_555 1_555
C2_4 N1_4 1_555 1_555
C3_4 N2_4 1_555 1_555
C11_4 N5_4 1_555 1_555
C12_4 C11_4 1_555 1_555
H7_4 C12_4 1_555 1_555
C13_4 C12_4 1_555 1_555
H8_4 C13_4 1_555 1_555
C14_4 C13_4 1_555 1_555
C15_4 C14_4 1_555 1_555
H9_4 C15_4 1_555 1_555
C16_4 C11_4 1_555 1_555
H10_4 C16_4 1_555 1_555
C17_4 C14_4 1_555 1_555
C18_4 N6_4 1_555 1_555
H11_4 C18_4 1_555 1_555
H12_4 C18_4 1_555 1_555
C19_4 C18_4 1_555 1_555
C20_4 N6_4 1_555 1_555
H13_4 C20_4 1_555 1_555
H14_4 C20_4 1_555 1_555
C21_4 O8_4 1_555 1_555
N3_4 C3_4 1_555 1_555
N4_4 C2_4 1_555 1_555
N5_4 C3_4 1_555 1_555
C15_4 C16_4 1_555 1_555
C20_4 C21_4 1_555 1_555
O23 C10_4 1_555 1_555
O2_4 C10_4 1_555 1_555
C5_4 C4_4 1_555 1_555
H3_4 C5_4 1_555 1_555
C6_4 C5_4 1_555 1_555
H4_4 C6_4 1_555 1_555
C7_4 C6_4 1_555 1_555
C8_4 C7_4 1_555 1_555
H5_4 C8_4 1_555 1_555
C9_4 C4_4 1_555 1_555
C10_4 C7_4 1_555 1_555
C8_4 C9_4 1_555 1_555
O9_4 Zn5 1_555 1_555
O10_4 Zn7 1_555 1_555
O12_5 Zn7 1_555 1_555
O9_4 H31_4 1_555 1_555
O9_4 H32_4 1_555 1_555
N7_4 C22_4 1_555 1_555
N8_4 C23_4 1_555 1_555
N9_4 C22_4 1_555 1_555
N10_4 H15_4 1_555 1_555
N11_4 H16_4 1_555 1_555
N12_4 C22_4 1_555 1_555
O26_2 C38_4 1_555 1_555
O28_2 C38_4 1_555 1_555
O17_4 C40_4 1_555 1_555
O19_4 C42_4 1_555 1_555
C23_4 N7_4 1_555 1_555
C24_4 N8_4 1_555 1_555
C32_4 N11_4 1_555 1_555
C33_4 C32_4 1_555 1_555
H21_4 C33_4 1_555 1_555
C34_4 C33_4 1_555 1_555
H22_4 C34_4 1_555 1_555
C35_4 C34_4 1_555 1_555
C36_4 C35_4 1_555 1_555
H23_4 C36_4 1_555 1_555
C37_4 C32_4 1_555 1_555
H24_4 C37_4 1_555 1_555
C38_4 C35_4 1_555 1_555
C39_4 N12_4 1_555 1_555
H25_4 C39_4 1_555 1_555
H26_4 C39_4 1_555 1_555
C40_4 O18_4 1_555 1_555
C41_4 N12_4 1_555 1_555
H27_4 C41_4 1_555 1_555
H28_4 C41_4 1_555 1_555
C42_4 O20_4 1_555 1_555
N9_4 C24_4 1_555 1_555
N10_4 C23_4 1_555 1_555
N11_4 C24_4 1_555 1_555
C36_4 C37_4 1_555 1_555
C39_4 C40_4 1_555 1_555
C41_4 C42_4 1_555 1_555
O24 C31_4 1_555 1_555
O14_4 C31_4 1_555 1_555
O21_4 Zn6 1_555 1_555
O22_4 Zn9 1_555 1_555
C26_4 C25_4 1_555 1_555
H17_4 C26_4 1_555 1_555
C27_4 C26_4 1_555 1_555
H18_4 C27_4 1_555 1_555
C28_4 C27_4 1_555 1_555
C29_4 C28_4 1_555 1_555
H19_4 C29_4 1_555 1_555
C30_4 C25_4 1_555 1_555
C31_4 C28_4 1_555 1_555
O12_6 Zn9 1_555 1_555
C29_4 C30_4 1_555 1_555
O21_4 H33_4 1_555 1_555
O21_4 H34_4 1_555 1_555

#END
