
###############################################################################
#
# This file contains modified crystal structure data generated from the
# MOF subset of the Cambridge Structural Database (CSD) v543 
# hosted by the Cambridge Crystallographic Data Centre (CCDC).
#
# This work is licensed under the Creative Commons
# Attribution-NonCommercial-ShareAlike 4.0 International License.
# To view a copy of this license, visit
# http://creativecommons.org/licenses/by-nc-sa/4.0/
# or send a letter to
# Creative Commons, PO Box 1866, Mountain View, CA 94042, USA.
#
# CIF created using the CSD Python API on 29 September 2022
# The structure has been converted into the P1 space group
# The structure has a 3D framework
# The original CSD entry GITTIN is in the cubic crystal system
# The framework has been calculated to contain at least 10.0% void space
# The void calculation uses a probe of radius 1.32A, grid spacing 0.4
#
###############################################################################

data_GITTIN
_chemical_formula_moiety         '(C72 H48 Co12 N72 O48)n'
_symmetry_cell_setting           triclinic
_symmetry_space_group_name_H-M   'P 1'
_symmetry_Int_Tables_number      1
_space_group_name_Hall           'P 1'
loop_
_symmetry_equiv_pos_site_id
_symmetry_equiv_pos_as_xyz
1 x,y,z
_cell_length_a                   17.2715(4)
_cell_length_b                   17.2715(4)
_cell_length_c                   17.2715(4)
_cell_angle_alpha                90
_cell_angle_beta                 90
_cell_angle_gamma                90
_cell_volume                     5152.17
loop_
_atom_site_label
_atom_site_type_symbol
_atom_site_fract_x
_atom_site_fract_y
_atom_site_fract_z
Co1 Co -0.0000 0.5000 0.2500
Co3 Co 0.2500 0.5000 0.0000
N4 N 0.0894(5) 0.5302(7) 0.1807(6)
N5 N 0.1807(6) 0.5302(7) 0.0894(5)
N7 N 0.0302(7) 0.4106(5) 0.3193(6)
C3 C 0.1265(7) 0.491(2) 0.1265(7)
N8 N 0.1069(6) 0.4156(16) 0.1069(6)
O3 O 0.1420(5) 0.3850(6) 0.0553(6)
O4 O 0.0553(6) 0.3850(6) 0.1420(5)
C5 C 0.1255(6) 0.5999(9) 0.1798(6)
C6 C 0.1798(6) 0.5999(9) 0.1255(6)
H3 H 0.1137 0.6421 0.2129
H4 H 0.2129 0.6421 0.1137
Co3_2 Co 0.2500 0.5000 1.0000
Co1_2 Co 1.0000 0.5000 0.2500
N1 N 0.9106(5) 0.4698(7) 0.1807(6)
C1 C 0.8735(7) 0.509(2) 0.1265(7)
N2 N 0.8931(6) 0.5844(16) 0.1069(6)
O1 O 0.8580(5) 0.6150(6) 0.0553(6)
C2 C 0.8745(6) 0.4001(9) 0.1798(6)
H1 H 0.8863 0.3579 0.2129
Co2 Co 0.7500 0.5000 0.0000
N3 N 0.8193(6) 0.4698(7) 0.0894(5)
N6 N 0.9698(7) 0.5894(5) 0.3193(6)
O2 O 0.9447(6) 0.6150(6) 0.1420(5)
C4 C 0.8202(6) 0.4001(9) 0.1255(6)
H2 H 0.7871 0.3579 0.1137
Co2_2 Co 0.7500 0.5000 1.0000
Co1_3 Co -0.0000 0.5000 0.7500
N1_2 N 0.0894(5) 0.4698(7) 0.8193(6)
C1_2 C 0.1265(7) 0.509(2) 0.8735(7)
N2_2 N 0.1069(6) 0.5844(16) 0.8931(6)
O1_2 O 0.1420(5) 0.6150(6) 0.9447(6)
C2_2 C 0.1255(6) 0.4001(9) 0.8202(6)
H1_2 H 0.1137 0.3579 0.7871
N3_2 N 0.1807(6) 0.4698(7) 0.9106(5)
N6_2 N 0.0302(7) 0.5894(5) 0.6807(6)
O2_2 O 0.0553(6) 0.6150(6) 0.8580(5)
C4_2 C 0.1798(6) 0.4001(9) 0.8745(6)
H2_2 H 0.2129 0.3579 0.8863
Co1_4 Co 1.0000 0.5000 0.7500
N4_2 N 0.9106(5) 0.5302(7) 0.8193(6)
N5_2 N 0.8193(6) 0.5302(7) 0.9106(5)
N7_2 N 0.9698(7) 0.4106(5) 0.6807(6)
C3_2 C 0.8735(7) 0.491(2) 0.8735(7)
N8_2 N 0.8931(6) 0.4156(16) 0.8931(6)
O3_2 O 0.8580(5) 0.3850(6) 0.9447(6)
O4_2 O 0.9447(6) 0.3850(6) 0.8580(5)
C5_2 C 0.8745(6) 0.5999(9) 0.8202(6)
C6_2 C 0.8202(6) 0.5999(9) 0.8745(6)
H3_2 H 0.8863 0.6421 0.7871
H4_2 H 0.7871 0.6421 0.8863
Co1_5 Co 0.2500 -0.0000 0.5000
Co3_3 Co -0.0000 0.2500 0.5000
N4_3 N 0.1807(6) 0.0894(5) 0.5302(7)
N5_3 N 0.0894(5) 0.1807(6) 0.5302(7)
N7_3 N 0.3193(6) 0.0302(7) 0.4106(5)
C3_3 C 0.1265(7) 0.1265(7) 0.491(2)
N8_3 N 0.1069(6) 0.1069(6) 0.4156(16)
O3_3 O 0.0553(6) 0.1420(5) 0.3850(6)
O4_3 O 0.1420(5) 0.0553(6) 0.3850(6)
C5_3 C 0.1798(6) 0.1255(6) 0.5999(9)
C6_3 C 0.1255(6) 0.1798(6) 0.5999(9)
H3_3 H 0.2129 0.1137 0.6421
H4_3 H 0.1137 0.2129 0.6421
Co1_6 Co 0.2500 1.0000 0.5000
N1_3 N 0.1807(6) 0.9106(5) 0.4698(7)
C1_3 C 0.1265(7) 0.8735(7) 0.509(2)
N2_3 N 0.1069(6) 0.8931(6) 0.5844(16)
O1_3 O 0.0553(6) 0.8580(5) 0.6150(6)
C2_3 C 0.1798(6) 0.8745(6) 0.4001(9)
H1_3 H 0.2129 0.8863 0.3579
Co2_3 Co -0.0000 0.7500 0.5000
N3_3 N 0.0894(5) 0.8193(6) 0.4698(7)
N6_3 N 0.3193(6) 0.9698(7) 0.5894(5)
O2_3 O 0.1420(5) 0.9447(6) 0.6150(6)
C4_3 C 0.1255(6) 0.8202(6) 0.4001(9)
H2_3 H 0.1137 0.7871 0.3579
Co3_4 Co 1.0000 0.2500 0.5000
Co2_4 Co 1.0000 0.7500 0.5000
Co1_7 Co 0.7500 -0.0000 0.5000
N1_4 N 0.8193(6) 0.0894(5) 0.4698(7)
C1_4 C 0.8735(7) 0.1265(7) 0.509(2)
N2_4 N 0.8931(6) 0.1069(6) 0.5844(16)
O1_4 O 0.9447(6) 0.1420(5) 0.6150(6)
C2_4 C 0.8202(6) 0.1255(6) 0.4001(9)
H1_4 H 0.7871 0.1137 0.3579
N3_4 N 0.9106(5) 0.1807(6) 0.4698(7)
N6_4 N 0.6807(6) 0.0302(7) 0.5894(5)
O2_4 O 0.8580(5) 0.0553(6) 0.6150(6)
C4_4 C 0.8745(6) 0.1798(6) 0.4001(9)
H2_4 H 0.8863 0.2129 0.3579
Co1_8 Co 0.7500 1.0000 0.5000
N4_4 N 0.8193(6) 0.9106(5) 0.5302(7)
N5_4 N 0.9106(5) 0.8193(6) 0.5302(7)
N7_4 N 0.6807(6) 0.9698(7) 0.4106(5)
C3_4 C 0.8735(7) 0.8735(7) 0.491(2)
N8_4 N 0.8931(6) 0.8931(6) 0.4156(16)
O3_4 O 0.9447(6) 0.8580(5) 0.3850(6)
O4_4 O 0.8580(5) 0.9447(6) 0.3850(6)
C5_4 C 0.8202(6) 0.8745(6) 0.5999(9)
C6_4 C 0.8745(6) 0.8202(6) 0.5999(9)
H3_4 H 0.7871 0.8863 0.6421
H4_4 H 0.8863 0.7871 0.6421
Co1_9 Co 0.5000 0.2500 0.0000
Co3_5 Co 0.5000 -0.0000 0.2500
N4_5 N 0.5302(7) 0.1807(6) 0.0894(5)
N5_5 N 0.5302(7) 0.0894(5) 0.1807(6)
N7_5 N 0.4106(5) 0.3193(6) 0.0302(7)
C3_5 C 0.491(2) 0.1265(7) 0.1265(7)
N8_5 N 0.4156(16) 0.1069(6) 0.1069(6)
O3_5 O 0.3850(6) 0.0553(6) 0.1420(5)
O4_5 O 0.3850(6) 0.1420(5) 0.0553(6)
C5_5 C 0.5999(9) 0.1798(6) 0.1255(6)
C6_5 C 0.5999(9) 0.1255(6) 0.1798(6)
H3_5 H 0.6421 0.2129 0.1137
H4_5 H 0.6421 0.1137 0.2129
Co1_10 Co 0.5000 0.2500 1.0000
N1_5 N 0.4698(7) 0.1807(6) 0.9106(5)
C1_5 C 0.509(2) 0.1265(7) 0.8735(7)
N2_5 N 0.5844(16) 0.1069(6) 0.8931(6)
O1_5 O 0.6150(6) 0.0553(6) 0.8580(5)
C2_5 C 0.4001(9) 0.1798(6) 0.8745(6)
H1_5 H 0.3579 0.2129 0.8863
Co2_5 Co 0.5000 0.0000 0.7500
N3_5 N 0.4698(7) 0.0894(5) 0.8193(6)
N6_5 N 0.5894(5) 0.3193(6) 0.9698(7)
O2_5 O 0.6150(6) 0.1420(5) 0.9447(6)
C4_5 C 0.4001(9) 0.1255(6) 0.8202(6)
H2_5 H 0.3579 0.1137 0.7871
Co3_6 Co 0.5000 1.0000 0.2500
Co2_6 Co 0.5000 1.0000 0.7500
Co1_11 Co 0.5000 0.7500 0.0000
N1_6 N 0.4698(7) 0.8193(6) 0.0894(5)
C1_6 C 0.509(2) 0.8735(7) 0.1265(7)
N2_6 N 0.5844(16) 0.8931(6) 0.1069(6)
O1_6 O 0.6150(6) 0.9447(6) 0.1420(5)
C2_6 C 0.4001(9) 0.8202(6) 0.1255(6)
H1_6 H 0.3579 0.7871 0.1137
N3_6 N 0.4698(7) 0.9106(5) 0.1807(6)
N6_6 N 0.5894(5) 0.6807(6) 0.0302(7)
O2_6 O 0.6150(6) 0.8580(5) 0.0553(6)
C4_6 C 0.4001(9) 0.8745(6) 0.1798(6)
H2_6 H 0.3579 0.8863 0.2129
Co1_12 Co 0.5000 0.7500 1.0000
N4_6 N 0.5302(7) 0.8193(6) 0.9106(5)
N5_6 N 0.5302(7) 0.9106(5) 0.8193(6)
N7_6 N 0.4106(5) 0.6807(6) 0.9698(7)
C3_6 C 0.491(2) 0.8735(7) 0.8735(7)
N8_6 N 0.4156(16) 0.8931(6) 0.8931(6)
O3_6 O 0.3850(6) 0.9447(6) 0.8580(5)
O4_6 O 0.3850(6) 0.8580(5) 0.9447(6)
C5_6 C 0.5999(9) 0.8202(6) 0.8745(6)
C6_6 C 0.5999(9) 0.8745(6) 0.8202(6)
H3_6 H 0.6421 0.7871 0.8863
H4_6 H 0.6421 0.8863 0.7871
N7_7 N 0.4106(5) 0.0302(7) 0.3193(6)
N6_7 N 0.5894(5) 0.9698(7) 0.3193(6)
N6_8 N 0.5894(5) 0.0302(7) 0.6807(6)
N7_8 N 0.4106(5) 0.9698(7) 0.6807(6)
N7_9 N 0.0302(7) 0.3193(6) 0.4106(5)
N6_9 N 0.9698(7) 0.3193(6) 0.5894(5)
N6_10 N 0.0302(7) 0.6807(6) 0.5894(5)
N7_10 N 0.9698(7) 0.6807(6) 0.4106(5)
N7_11 N 0.3193(6) 0.4106(5) 0.0302(7)
N6_11 N 0.3193(6) 0.5894(5) 0.9698(7)
N6_12 N 0.6807(6) 0.5894(5) 0.0302(7)
N7_12 N 0.6807(6) 0.4106(5) 0.9698(7)
C1_7 C 0.3735(7) 0.009(2) 0.6265(7)
N2_7 N 0.3931(6) 0.0844(16) 0.6069(6)
O1_7 O 0.3580(5) 0.1150(6) 0.5553(6)
O2_7 O 0.4447(6) 0.1150(6) 0.6420(5)
C5_7 C 0.6255(6) 0.0999(9) 0.6798(6)
C6_7 C 0.6798(6) 0.0999(9) 0.6255(6)
H3_7 H 0.6137 0.1421 0.7129
H4_7 H 0.7129 0.1421 0.6137
C2_7 C 0.3745(6) 0.9001(9) 0.6798(6)
H1_7 H 0.3863 0.8579 0.7129
C3_7 C 0.6265(7) 0.991(2) 0.6265(7)
N8_7 N 0.6069(6) 0.9156(16) 0.6069(6)
O3_7 O 0.6420(5) 0.8850(6) 0.5553(6)
O4_7 O 0.5553(6) 0.8850(6) 0.6420(5)
C4_7 C 0.3202(6) 0.9001(9) 0.6255(6)
H2_7 H 0.2871 0.8579 0.6137
C1_8 C 0.6265(7) 0.009(2) 0.3735(7)
N2_8 N 0.6069(6) 0.0844(16) 0.3931(6)
O1_8 O 0.6420(5) 0.1150(6) 0.4447(6)
O2_8 O 0.5553(6) 0.1150(6) 0.3580(5)
C5_8 C 0.3745(6) 0.0999(9) 0.3202(6)
C6_8 C 0.3202(6) 0.0999(9) 0.3745(6)
H3_8 H 0.3863 0.1421 0.2871
H4_8 H 0.2871 0.1421 0.3863
C2_8 C 0.6255(6) 0.9001(9) 0.3202(6)
H1_8 H 0.6137 0.8579 0.2871
C3_8 C 0.3735(7) 0.991(2) 0.3735(7)
N8_8 N 0.3931(6) 0.9156(16) 0.3931(6)
O3_8 O 0.3580(5) 0.8850(6) 0.4447(6)
O4_8 O 0.4447(6) 0.8850(6) 0.3580(5)
C4_8 C 0.6798(6) 0.9001(9) 0.3745(6)
H2_8 H 0.7129 0.8579 0.3863
C1_9 C 0.6265(7) 0.3735(7) 0.009(2)
N2_9 N 0.6069(6) 0.3931(6) 0.0844(16)
O1_9 O 0.5553(6) 0.3580(5) 0.1150(6)
O2_9 O 0.6420(5) 0.4447(6) 0.1150(6)
C5_9 C 0.6798(6) 0.6255(6) 0.0999(9)
C6_9 C 0.6255(6) 0.6798(6) 0.0999(9)
H3_9 H 0.7129 0.6137 0.1421
H4_9 H 0.6137 0.7129 0.1421
C2_9 C 0.6798(6) 0.3745(6) 0.9001(9)
H1_9 H 0.7129 0.3863 0.8579
C3_9 C 0.6265(7) 0.6265(7) 0.991(2)
N8_9 N 0.6069(6) 0.6069(6) 0.9156(16)
O3_9 O 0.5553(6) 0.6420(5) 0.8850(6)
O4_9 O 0.6420(5) 0.5553(6) 0.8850(6)
C4_9 C 0.6255(6) 0.3202(6) 0.9001(9)
H2_9 H 0.6137 0.2871 0.8579
C1_10 C 0.3735(7) 0.6265(7) 0.009(2)
N2_10 N 0.3931(6) 0.6069(6) 0.0844(16)
O1_10 O 0.4447(6) 0.6420(5) 0.1150(6)
O2_10 O 0.3580(5) 0.5553(6) 0.1150(6)
C5_10 C 0.3202(6) 0.3745(6) 0.0999(9)
C6_10 C 0.3745(6) 0.3202(6) 0.0999(9)
H3_10 H 0.2871 0.3863 0.1421
H4_10 H 0.3863 0.2871 0.1421
C2_10 C 0.3202(6) 0.6255(6) 0.9001(9)
H1_10 H 0.2871 0.6137 0.8579
C3_10 C 0.3735(7) 0.3735(7) 0.991(2)
N8_10 N 0.3931(6) 0.3931(6) 0.9156(16)
O3_10 O 0.4447(6) 0.3580(5) 0.8850(6)
O4_10 O 0.3580(5) 0.4447(6) 0.8850(6)
C4_10 C 0.3745(6) 0.6798(6) 0.9001(9)
H2_10 H 0.3863 0.7129 0.8579
C1_11 C 0.009(2) 0.6265(7) 0.3735(7)
N2_11 N 0.0844(16) 0.6069(6) 0.3931(6)
O1_11 O 0.1150(6) 0.5553(6) 0.3580(5)
O2_11 O 0.1150(6) 0.6420(5) 0.4447(6)
C5_11 C 0.0999(9) 0.6798(6) 0.6255(6)
C6_11 C 0.0999(9) 0.6255(6) 0.6798(6)
H3_11 H 0.1421 0.7129 0.6137
H4_11 H 0.1421 0.6137 0.7129
C2_11 C 0.9001(9) 0.6798(6) 0.3745(6)
H1_11 H 0.8579 0.7129 0.3863
C3_11 C 0.991(2) 0.6265(7) 0.6265(7)
N8_11 N 0.9156(16) 0.6069(6) 0.6069(6)
O3_11 O 0.8850(6) 0.5553(6) 0.6420(5)
O4_11 O 0.8850(6) 0.6420(5) 0.5553(6)
C4_11 C 0.9001(9) 0.6255(6) 0.3202(6)
H2_11 H 0.8579 0.6137 0.2871
C1_12 C 0.009(2) 0.3735(7) 0.6265(7)
N2_12 N 0.0844(16) 0.3931(6) 0.6069(6)
O1_12 O 0.1150(6) 0.4447(6) 0.6420(5)
O2_12 O 0.1150(6) 0.3580(5) 0.5553(6)
C5_12 C 0.0999(9) 0.3202(6) 0.3745(6)
C6_12 C 0.0999(9) 0.3745(6) 0.3202(6)
H3_12 H 0.1421 0.2871 0.3863
H4_12 H 0.1421 0.3863 0.2871
C2_12 C 0.9001(9) 0.3202(6) 0.6255(6)
H1_12 H 0.8579 0.2871 0.6137
C3_12 C 0.991(2) 0.3735(7) 0.3735(7)
N8_12 N 0.9156(16) 0.3931(6) 0.3931(6)
O3_12 O 0.8850(6) 0.4447(6) 0.3580(5)
O4_12 O 0.8850(6) 0.3580(5) 0.4447(6)
C4_12 C 0.9001(9) 0.3745(6) 0.6798(6)
H2_12 H 0.8579 0.3863 0.7129
loop_
_geom_bond_atom_site_label_1
_geom_bond_atom_site_label_2
_geom_bond_site_symmetry_1
_geom_bond_site_symmetry_2
Co3 N5 1_555 1_555
N4 Co1 1_555 1_555
N5 C3 1_555 1_555
N7 Co1 1_555 1_555
C3 N4 1_555 1_555
N8 C3 1_555 1_555
O3 N8 1_555 1_555
O4 N8 1_555 1_555
C5 N4 1_555 1_555
C6 N5 1_555 1_555
H3 C5 1_555 1_555
H4 C6 1_555 1_555
C5 C6 1_555 1_555
Co1_2 N1 1_555 1_555
N1 C1 1_555 1_555
C1 N2 1_555 1_555
N2 O1 1_555 1_555
C2 N1 1_555 1_555
H1 C2 1_555 1_555
Co2 N3 1_555 1_555
N3 C1 1_555 1_555
N6 Co1_2 1_555 1_555
O2 N2 1_555 1_555
C4 C2 1_555 1_555
H2 C4 1_555 1_555
N3 C4 1_555 1_555
Co1_3 N1_2 1_555 1_555
N1_2 C1_2 1_555 1_555
C1_2 N2_2 1_555 1_555
N2_2 O1_2 1_555 1_555
C2_2 N1_2 1_555 1_555
H1_2 C2_2 1_555 1_555
Co3_2 N3_2 1_555 1_555
N3_2 C1_2 1_555 1_555
N6_2 Co1_3 1_555 1_555
O2_2 N2_2 1_555 1_555
C4_2 C2_2 1_555 1_555
H2_2 C4_2 1_555 1_555
N3_2 C4_2 1_555 1_555
Co2_2 N5_2 1_555 1_555
N4_2 Co1_4 1_555 1_555
N5_2 C3_2 1_555 1_555
N7_2 Co1_4 1_555 1_555
C3_2 N4_2 1_555 1_555
N8_2 C3_2 1_555 1_555
O3_2 N8_2 1_555 1_555
O4_2 N8_2 1_555 1_555
C5_2 N4_2 1_555 1_555
C6_2 N5_2 1_555 1_555
H3_2 C5_2 1_555 1_555
H4_2 C6_2 1_555 1_555
C5_2 C6_2 1_555 1_555
Co3_3 N5_3 1_555 1_555
N4_3 Co1_5 1_555 1_555
N5_3 C3_3 1_555 1_555
N7_3 Co1_5 1_555 1_555
C3_3 N4_3 1_555 1_555
N8_3 C3_3 1_555 1_555
O3_3 N8_3 1_555 1_555
O4_3 N8_3 1_555 1_555
C5_3 N4_3 1_555 1_555
C6_3 N5_3 1_555 1_555
H3_3 C5_3 1_555 1_555
H4_3 C6_3 1_555 1_555
C5_3 C6_3 1_555 1_555
Co1_6 N1_3 1_555 1_555
N1_3 C1_3 1_555 1_555
C1_3 N2_3 1_555 1_555
N2_3 O1_3 1_555 1_555
C2_3 N1_3 1_555 1_555
H1_3 C2_3 1_555 1_555
Co2_3 N3_3 1_555 1_555
N3_3 C1_3 1_555 1_555
N6_3 Co1_6 1_555 1_555
O2_3 N2_3 1_555 1_555
C4_3 C2_3 1_555 1_555
H2_3 C4_3 1_555 1_555
N3_3 C4_3 1_555 1_555
Co1_7 N1_4 1_555 1_555
N1_4 C1_4 1_555 1_555
C1_4 N2_4 1_555 1_555
N2_4 O1_4 1_555 1_555
C2_4 N1_4 1_555 1_555
H1_4 C2_4 1_555 1_555
Co3_4 N3_4 1_555 1_555
N3_4 C1_4 1_555 1_555
N6_4 Co1_7 1_555 1_555
O2_4 N2_4 1_555 1_555
C4_4 C2_4 1_555 1_555
H2_4 C4_4 1_555 1_555
N3_4 C4_4 1_555 1_555
Co2_4 N5_4 1_555 1_555
N4_4 Co1_8 1_555 1_555
N5_4 C3_4 1_555 1_555
N7_4 Co1_8 1_555 1_555
C3_4 N4_4 1_555 1_555
N8_4 C3_4 1_555 1_555
O3_4 N8_4 1_555 1_555
O4_4 N8_4 1_555 1_555
C5_4 N4_4 1_555 1_555
C6_4 N5_4 1_555 1_555
H3_4 C5_4 1_555 1_555
H4_4 C6_4 1_555 1_555
C5_4 C6_4 1_555 1_555
Co3_5 N5_5 1_555 1_555
N4_5 Co1_9 1_555 1_555
N5_5 C3_5 1_555 1_555
N7_5 Co1_9 1_555 1_555
C3_5 N4_5 1_555 1_555
N8_5 C3_5 1_555 1_555
O3_5 N8_5 1_555 1_555
O4_5 N8_5 1_555 1_555
C5_5 N4_5 1_555 1_555
C6_5 N5_5 1_555 1_555
H3_5 C5_5 1_555 1_555
H4_5 C6_5 1_555 1_555
C5_5 C6_5 1_555 1_555
Co1_10 N1_5 1_555 1_555
N1_5 C1_5 1_555 1_555
C1_5 N2_5 1_555 1_555
N2_5 O1_5 1_555 1_555
C2_5 N1_5 1_555 1_555
H1_5 C2_5 1_555 1_555
Co2_5 N3_5 1_555 1_555
N3_5 C1_5 1_555 1_555
N6_5 Co1_10 1_555 1_555
O2_5 N2_5 1_555 1_555
C4_5 C2_5 1_555 1_555
H2_5 C4_5 1_555 1_555
N3_5 C4_5 1_555 1_555
Co1_11 N1_6 1_555 1_555
N1_6 C1_6 1_555 1_555
C1_6 N2_6 1_555 1_555
N2_6 O1_6 1_555 1_555
C2_6 N1_6 1_555 1_555
H1_6 C2_6 1_555 1_555
Co3_6 N3_6 1_555 1_555
N3_6 C1_6 1_555 1_555
N6_6 Co1_11 1_555 1_555
O2_6 N2_6 1_555 1_555
C4_6 C2_6 1_555 1_555
H2_6 C4_6 1_555 1_555
N3_6 C4_6 1_555 1_555
Co2_6 N5_6 1_555 1_555
N4_6 Co1_12 1_555 1_555
N5_6 C3_6 1_555 1_555
N7_6 Co1_12 1_555 1_555
C3_6 N4_6 1_555 1_555
N8_6 C3_6 1_555 1_555
O3_6 N8_6 1_555 1_555
O4_6 N8_6 1_555 1_555
C5_6 N4_6 1_555 1_555
C6_6 N5_6 1_555 1_555
H3_6 C5_6 1_555 1_555
H4_6 C6_6 1_555 1_555
C5_6 C6_6 1_555 1_555
N7_7 Co3_5 1_555 1_555
N6_7 Co3_6 1_555 1_555
N6_8 Co2_5 1_555 1_555
N7_8 Co2_6 1_555 1_555
N7_9 Co3_3 1_555 1_555
N6_9 Co3_4 1_555 1_555
N6_10 Co2_3 1_555 1_555
N7_10 Co2_4 1_555 1_555
N7_11 Co3 1_555 1_555
N6_11 Co3_2 1_555 1_555
N6_12 Co2 1_555 1_555
N7_12 Co2_2 1_555 1_555
C1_7 N2_7 1_555 1_555
N2_7 O1_7 1_555 1_555
O2_7 N2_7 1_555 1_555
C5_7 N6_8 1_555 1_555
C6_7 N6_4 1_555 1_555
H3_7 C5_7 1_555 1_555
H4_7 C6_7 1_555 1_555
C5_7 C6_7 1_555 1_555
C2_7 N7_8 1_555 1_555
H1_7 C2_7 1_555 1_555
N8_7 C3_7 1_555 1_555
O3_7 N8_7 1_555 1_555
O4_7 N8_7 1_555 1_555
C4_7 C2_7 1_555 1_555
H2_7 C4_7 1_555 1_555
N6_3 C4_7 1_555 1_555
C1_8 N2_8 1_555 1_555
N2_8 O1_8 1_555 1_555
O2_8 N2_8 1_555 1_555
C5_8 N7_7 1_555 1_555
C6_8 N7_3 1_555 1_555
H3_8 C5_8 1_555 1_555
H4_8 C6_8 1_555 1_555
C5_8 C6_8 1_555 1_555
C2_8 N6_7 1_555 1_555
H1_8 C2_8 1_555 1_555
N8_8 C3_8 1_555 1_555
O3_8 N8_8 1_555 1_555
O4_8 N8_8 1_555 1_555
C4_8 C2_8 1_555 1_555
H2_8 C4_8 1_555 1_555
N7_4 C4_8 1_555 1_555
C1_9 N2_9 1_555 1_555
N2_9 O1_9 1_555 1_555
O2_9 N2_9 1_555 1_555
C5_9 N6_12 1_555 1_555
C6_9 N6_6 1_555 1_555
H3_9 C5_9 1_555 1_555
H4_9 C6_9 1_555 1_555
C5_9 C6_9 1_555 1_555
C2_9 N7_12 1_555 1_555
H1_9 C2_9 1_555 1_555
N8_9 C3_9 1_555 1_555
O3_9 N8_9 1_555 1_555
O4_9 N8_9 1_555 1_555
C4_9 C2_9 1_555 1_555
H2_9 C4_9 1_555 1_555
N6_5 C4_9 1_555 1_555
C1_10 N2_10 1_555 1_555
N2_10 O1_10 1_555 1_555
O2_10 N2_10 1_555 1_555
C5_10 N7_11 1_555 1_555
C6_10 N7_5 1_555 1_555
H3_10 C5_10 1_555 1_555
H4_10 C6_10 1_555 1_555
C5_10 C6_10 1_555 1_555
C2_10 N6_11 1_555 1_555
H1_10 C2_10 1_555 1_555
N8_10 C3_10 1_555 1_555
O3_10 N8_10 1_555 1_555
O4_10 N8_10 1_555 1_555
C4_10 C2_10 1_555 1_555
H2_10 C4_10 1_555 1_555
N7_6 C4_10 1_555 1_555
C1_11 N2_11 1_555 1_555
N2_11 O1_11 1_555 1_555
O2_11 N2_11 1_555 1_555
C5_11 N6_10 1_555 1_555
C6_11 N6_2 1_555 1_555
H3_11 C5_11 1_555 1_555
H4_11 C6_11 1_555 1_555
C5_11 C6_11 1_555 1_555
C2_11 N7_10 1_555 1_555
H1_11 C2_11 1_555 1_555
N8_11 C3_11 1_555 1_555
O3_11 N8_11 1_555 1_555
O4_11 N8_11 1_555 1_555
C4_11 C2_11 1_555 1_555
H2_11 C4_11 1_555 1_555
N6 C4_11 1_555 1_555
C1_12 N2_12 1_555 1_555
N2_12 O1_12 1_555 1_555
O2_12 N2_12 1_555 1_555
C5_12 N7_9 1_555 1_555
C6_12 N7 1_555 1_555
H3_12 C5_12 1_555 1_555
H4_12 C6_12 1_555 1_555
C5_12 C6_12 1_555 1_555
C2_12 N6_9 1_555 1_555
H1_12 C2_12 1_555 1_555
N8_12 C3_12 1_555 1_555
O3_12 N8_12 1_555 1_555
O4_12 N8_12 1_555 1_555
C4_12 C2_12 1_555 1_555
H2_12 C4_12 1_555 1_555
N7_2 C4_12 1_555 1_555

#END
