
###############################################################################
#
# This file contains modified crystal structure data generated from the
# MOF subset of the Cambridge Structural Database (CSD) v543 
# hosted by the Cambridge Crystallographic Data Centre (CCDC).
#
# This work is licensed under the Creative Commons
# Attribution-NonCommercial-ShareAlike 4.0 International License.
# To view a copy of this license, visit
# http://creativecommons.org/licenses/by-nc-sa/4.0/
# or send a letter to
# Creative Commons, PO Box 1866, Mountain View, CA 94042, USA.
#
# CIF created using the CSD Python API on 29 September 2022
# The structure has been converted into the P1 space group
# The structure has a 3D framework
# The original CSD entry GITVIP01 is in the cubic crystal system
# The framework has been calculated to contain at least 10.0% void space
# The void calculation uses a probe of radius 1.32A, grid spacing 0.4
#
###############################################################################

data_GITVIP01
_chemical_formula_moiety         '(C312 H120 Cl192 N192 Zn48)n'
_symmetry_cell_setting           triclinic
_symmetry_space_group_name_H-M   'P 1'
_symmetry_Int_Tables_number      1
_space_group_name_Hall           'P 1'
loop_
_symmetry_equiv_pos_site_id
_symmetry_equiv_pos_as_xyz
1 x,y,z
_cell_length_a                   28.5539(2)
_cell_length_b                   28.5539(2)
_cell_length_c                   28.5539(2)
_cell_angle_alpha                90
_cell_angle_beta                 90
_cell_angle_gamma                90
_cell_volume                     23280.7
loop_
_atom_site_label
_atom_site_type_symbol
_atom_site_fract_x
_atom_site_fract_y
_atom_site_fract_z
Zn1 Zn 0.39551(6) 0.10433(6) 0.25207(6)
C1 C 0.3957(7) 0.0000 0.2590(6)
H1 H 0.4239 0.0000 0.2766
N1 N 0.3721(3) 0.0380(5) 0.2443(3)
C2 C 0.3358(4) 0.0243(4) 0.2215(3)
Cl1 Cl 0.29541(10) 0.06062(11) 0.19564(10)
C3 C 0.5000 0.1065(5) 0.2548(7)
H2 H 0.5000 0.1171 0.2232
N2 N 0.4603(3) 0.0991(3) 0.2769(4)
C4 C 0.4776(4) 0.0827(4) 0.3208(4)
Cl2 Cl 0.43906(12) 0.06862(15) 0.36268(11)
C5 C 0.3176(4) 0.1142(7) 0.3176(4)
H3 H 0.3065 0.0849 0.3065
N3 N 0.3539(3) 0.1349(4) 0.2972(4)
C6 C 0.3566(4) 0.1753(4) 0.3241(4)
Cl3 Cl 0.39754(12) 0.21522(11) 0.31090(11)
C7 C 0.3949(6) 0.1781(8) 0.1781(8)
H4 H 0.3856 0.2007 0.2007
N4 N 0.4007(3) 0.1361(4) 0.1923(4)
C8 C 0.4171(3) 0.1186(3) 0.1507(4)
Cl4 Cl 0.43310(10) 0.05954(11) 0.14477(9)
Zn3 Zn 0.60449(6) 0.10433(6) 0.25207(6)
Zn4 Zn 0.25207(6) 0.10433(6) 0.39551(6)
Zn5 Zn 0.39551(6) 0.25207(6) 0.10433(6)
N6 N 0.5397(3) 0.0991(3) 0.2769(4)
C10 C 0.5224(4) 0.0827(4) 0.3208(4)
Cl6 Cl 0.56094(12) 0.06862(15) 0.36268(11)
N8 N 0.2972(4) 0.1349(4) 0.3539(3)
C11 C 0.3241(4) 0.1753(4) 0.3566(4)
Cl7 Cl 0.31090(11) 0.21522(11) 0.39754(12)
N10 N 0.4007(3) 0.1923(4) 0.1361(4)
C12 C 0.4171(3) 0.1507(4) 0.1186(3)
Cl8 Cl 0.43310(10) 0.14477(9) 0.05954(11)
C1_2 C 0.3957(7) 1.0000 0.2590(6)
H1_2 H 0.4239 1.0000 0.2766
Zn2 Zn 0.39551(6) 0.89567(6) 0.25207(6)
N5 N 0.3721(3) 0.9620(5) 0.2443(3)
C9 C 0.3358(4) 0.9757(4) 0.2215(3)
Cl5 Cl 0.29541(10) 0.93938(11) 0.19564(10)
N7 N 0.4603(3) 0.9009(3) 0.2769(4)
N9 N 0.3539(3) 0.8651(4) 0.2972(4)
N11 N 0.4007(3) 0.8639(4) 0.1923(4)
Zn1_2 Zn 0.25207(6) 0.39551(6) 0.10433(6)
C1_3 C 0.2590(6) 0.3957(7) 0.0000
H1_3 H 0.2766 0.4239 0.0000
N1_2 N 0.2443(3) 0.3721(3) 0.0380(5)
C2_2 C 0.2215(3) 0.3358(4) 0.0243(4)
Cl1_2 Cl 0.19564(10) 0.29541(10) 0.06062(11)
C3_2 C 0.2548(7) 0.5000 0.1065(5)
H2_2 H 0.2232 0.5000 0.1171
N2_2 N 0.2769(4) 0.4603(3) 0.0991(3)
C4_2 C 0.3208(4) 0.4776(4) 0.0827(4)
Cl2_2 Cl 0.36268(11) 0.43906(12) 0.06862(15)
C5_2 C 0.3176(4) 0.3176(4) 0.1142(7)
H3_2 H 0.3065 0.3065 0.0849
N3_2 N 0.2972(4) 0.3539(3) 0.1349(4)
C6_2 C 0.3241(4) 0.3566(4) 0.1753(4)
Cl3_2 Cl 0.31090(11) 0.39754(12) 0.21522(11)
C7_2 C 0.1781(8) 0.3949(6) 0.1781(8)
H4_2 H 0.2007 0.3856 0.2007
N4_2 N 0.1923(4) 0.4007(3) 0.1361(4)
C8_2 C 0.1507(4) 0.4171(3) 0.1186(3)
Cl4_2 Cl 0.14477(9) 0.43310(10) 0.05954(11)
Zn3_2 Zn 0.25207(6) 0.60449(6) 0.10433(6)
Zn5_2 Zn 0.10433(6) 0.39551(6) 0.25207(6)
N6_2 N 0.2769(4) 0.5397(3) 0.0991(3)
C10_2 C 0.3208(4) 0.5224(4) 0.0827(4)
Cl6_2 Cl 0.36268(11) 0.56094(12) 0.06862(15)
N8_2 N 0.3539(3) 0.2972(4) 0.1349(4)
C11_2 C 0.3566(4) 0.3241(4) 0.1753(4)
Cl7_2 Cl 0.39754(12) 0.31090(11) 0.21522(11)
N10_2 N 0.1361(4) 0.4007(3) 0.1923(4)
C12_2 C 0.1186(3) 0.4171(3) 0.1507(4)
Cl8_2 Cl 0.05954(11) 0.43310(10) 0.14477(9)
C1_4 C 0.2590(6) 0.3957(7) 1.0000
H1_4 H 0.2766 0.4239 1.0000
Zn2_2 Zn 0.25207(6) 0.39551(6) 0.89567(6)
N5_2 N 0.2443(3) 0.3721(3) 0.9620(5)
C9_2 C 0.2215(3) 0.3358(4) 0.9757(4)
Cl5_2 Cl 0.19564(10) 0.29541(10) 0.93938(11)
N7_2 N 0.2769(4) 0.4603(3) 0.9009(3)
N9_2 N 0.2972(4) 0.3539(3) 0.8651(4)
N11_2 N 0.1923(4) 0.4007(3) 0.8639(4)
Zn1_3 Zn 0.10433(6) 0.25207(6) 0.39551(6)
C1_5 C -0.0000 0.2590(6) 0.3957(7)
H1_5 H 0.0000 0.2766 0.4239
N1_3 N 0.0380(5) 0.2443(3) 0.3721(3)
C2_3 C 0.0243(4) 0.2215(3) 0.3358(4)
Cl1_3 Cl 0.06062(11) 0.19564(10) 0.29541(10)
C3_3 C 0.1065(5) 0.2548(7) 0.5000
H2_3 H 0.1171 0.2232 0.5000
N2_3 N 0.0991(3) 0.2769(4) 0.4603(3)
C4_3 C 0.0827(4) 0.3208(4) 0.4776(4)
Cl2_3 Cl 0.06862(15) 0.36268(11) 0.43906(12)
C5_3 C 0.1142(7) 0.3176(4) 0.3176(4)
H3_3 H 0.0849 0.3065 0.3065
N3_3 N 0.1349(4) 0.2972(4) 0.3539(3)
C6_3 C 0.1753(4) 0.3241(4) 0.3566(4)
Cl3_3 Cl 0.21522(11) 0.31090(11) 0.39754(12)
C7_3 C 0.1781(8) 0.1781(8) 0.3949(6)
H4_3 H 0.2007 0.2007 0.3856
N4_3 N 0.1361(4) 0.1923(4) 0.4007(3)
C8_3 C 0.1186(3) 0.1507(4) 0.4171(3)
Cl4_3 Cl 0.05954(11) 0.14477(9) 0.43310(10)
Zn3_3 Zn 0.10433(6) 0.25207(6) 0.60449(6)
N6_3 N 0.0991(3) 0.2769(4) 0.5397(3)
C10_3 C 0.0827(4) 0.3208(4) 0.5224(4)
Cl6_3 Cl 0.06862(15) 0.36268(11) 0.56094(12)
N8_3 N 0.1349(4) 0.3539(3) 0.2972(4)
C11_3 C 0.1753(4) 0.3566(4) 0.3241(4)
Cl7_3 Cl 0.21522(11) 0.39754(12) 0.31090(11)
N10_3 N 0.1923(4) 0.1361(4) 0.4007(3)
C12_3 C 0.1507(4) 0.1186(3) 0.4171(3)
Cl8_3 Cl 0.14477(9) 0.05954(11) 0.43310(10)
C1_6 C 1.0000 0.2590(6) 0.3957(7)
H1_6 H 1.0000 0.2766 0.4239
Zn2_3 Zn 0.89567(6) 0.25207(6) 0.39551(6)
N5_3 N 0.9620(5) 0.2443(3) 0.3721(3)
C9_3 C 0.9757(4) 0.2215(3) 0.3358(4)
Cl5_3 Cl 0.93938(11) 0.19564(10) 0.29541(10)
N7_3 N 0.9009(3) 0.2769(4) 0.4603(3)
N9_3 N 0.8651(4) 0.2972(4) 0.3539(3)
N11_3 N 0.8639(4) 0.1923(4) 0.4007(3)
Zn1_4 Zn 0.10433(6) 0.39551(6) 0.74793(6)
C1_7 C 0.0000 0.3957(7) 0.7410(6)
H1_7 H 0.0000 0.4239 0.7234
N1_4 N 0.0380(5) 0.3721(3) 0.7557(3)
C2_4 C 0.0243(4) 0.3358(4) 0.7785(3)
Cl1_4 Cl 0.06062(11) 0.29541(10) 0.80436(10)
C3_4 C 0.1065(5) 0.5000 0.7452(7)
H2_4 H 0.1171 0.5000 0.7768
N2_4 N 0.0991(3) 0.4603(3) 0.7231(4)
C4_4 C 0.0827(4) 0.4776(4) 0.6792(4)
Cl2_4 Cl 0.06862(15) 0.43906(12) 0.63732(11)
C5_4 C 0.1142(7) 0.3176(4) 0.6824(4)
H3_4 H 0.0849 0.3065 0.6935
N3_4 N 0.1349(4) 0.3539(3) 0.7028(4)
C6_4 C 0.1753(4) 0.3566(4) 0.6759(4)
Cl3_4 Cl 0.21522(11) 0.39754(12) 0.68910(11)
C7_4 C 0.1781(8) 0.3949(6) 0.8219(8)
H4_4 H 0.2007 0.3856 0.7993
N4_4 N 0.1361(4) 0.4007(3) 0.8077(4)
C8_4 C 0.1186(3) 0.4171(3) 0.8493(4)
Cl4_4 Cl 0.05954(11) 0.43310(10) 0.85523(9)
Zn3_4 Zn 0.10433(6) 0.60449(6) 0.74793(6)
N6_4 N 0.0991(3) 0.5397(3) 0.7231(4)
C10_4 C 0.0827(4) 0.5224(4) 0.6792(4)
Cl6_4 Cl 0.06862(15) 0.56094(12) 0.63732(11)
N8_4 N 0.1349(4) 0.2972(4) 0.6461(3)
C11_4 C 0.1753(4) 0.3241(4) 0.6434(4)
Cl7_4 Cl 0.21522(11) 0.31090(11) 0.60246(12)
C12_4 C 0.1507(4) 0.4171(3) 0.8814(3)
Cl8_4 Cl 0.14477(9) 0.43310(10) 0.94046(11)
C1_8 C 1.0000 0.3957(7) 0.7410(6)
H1_8 H 1.0000 0.4239 0.7234
Zn2_4 Zn 0.89567(6) 0.39551(6) 0.74793(6)
N5_4 N 0.9620(5) 0.3721(3) 0.7557(3)
C9_4 C 0.9757(4) 0.3358(4) 0.7785(3)
Cl5_4 Cl 0.93938(11) 0.29541(10) 0.80436(10)
N7_4 N 0.9009(3) 0.4603(3) 0.7231(4)
N9_4 N 0.8651(4) 0.3539(3) 0.7028(4)
N11_4 N 0.8639(4) 0.4007(3) 0.8077(4)
Zn1_5 Zn 0.10433(6) 0.60449(6) 0.25207(6)
C1_9 C 0.0000 0.6043(7) 0.2590(6)
H1_9 H 0.0000 0.5761 0.2766
N1_5 N 0.0380(5) 0.6279(3) 0.2443(3)
C2_5 C 0.0243(4) 0.6642(4) 0.2215(3)
Cl1_5 Cl 0.06062(11) 0.70459(10) 0.19564(10)
C3_5 C 0.1065(5) 0.5000 0.2548(7)
H2_5 H 0.1171 0.5000 0.2232
N2_5 N 0.0991(3) 0.5397(3) 0.2769(4)
C4_5 C 0.0827(4) 0.5224(4) 0.3208(4)
Cl2_5 Cl 0.06862(15) 0.56094(12) 0.36268(11)
C5_5 C 0.1142(7) 0.6824(4) 0.3176(4)
H3_5 H 0.0849 0.6935 0.3065
N3_5 N 0.1349(4) 0.6461(3) 0.2972(4)
C6_5 C 0.1753(4) 0.6434(4) 0.3241(4)
Cl3_5 Cl 0.21522(11) 0.60246(12) 0.31090(11)
C7_5 C 0.1781(8) 0.6051(6) 0.1781(8)
H4_5 H 0.2007 0.6144 0.2007
N4_5 N 0.1361(4) 0.5993(3) 0.1923(4)
C8_5 C 0.1186(3) 0.5829(3) 0.1507(4)
Cl4_5 Cl 0.05954(11) 0.56690(10) 0.14477(9)
Zn4_2 Zn 0.10433(6) 0.74793(6) 0.39551(6)
N6_5 N 0.0991(3) 0.4603(3) 0.2769(4)
C10_5 C 0.0827(4) 0.4776(4) 0.3208(4)
Cl6_5 Cl 0.06862(15) 0.43906(12) 0.36268(11)
N8_5 N 0.1349(4) 0.7028(4) 0.3539(3)
C11_5 C 0.1753(4) 0.6759(4) 0.3566(4)
Cl7_5 Cl 0.21522(11) 0.68910(11) 0.39754(12)
N10_4 N 0.1923(4) 0.5993(3) 0.1361(4)
C12_5 C 0.1507(4) 0.5829(3) 0.1186(3)
Cl8_5 Cl 0.14477(9) 0.56690(10) 0.05954(11)
C1_10 C 1.0000 0.6043(7) 0.2590(6)
H1_10 H 1.0000 0.5761 0.2766
Zn2_5 Zn 0.89567(6) 0.60449(6) 0.25207(6)
N5_5 N 0.9620(5) 0.6279(3) 0.2443(3)
C9_5 C 0.9757(4) 0.6642(4) 0.2215(3)
Cl5_5 Cl 0.93938(11) 0.70459(10) 0.19564(10)
N7_5 N 0.9009(3) 0.5397(3) 0.2769(4)
N9_5 N 0.8651(4) 0.6461(3) 0.2972(4)
N11_5 N 0.8639(4) 0.5993(3) 0.1923(4)
C1_11 C -0.0000 0.3957(7) 0.2590(6)
H1_11 H 0.0000 0.4239 0.2766
N5_6 N 0.0380(5) 0.3721(3) 0.2443(3)
C9_6 C 0.0243(4) 0.3358(4) 0.2215(3)
Cl5_6 Cl 0.06062(11) 0.29541(10) 0.19564(10)
Zn1_6 Zn 0.89567(6) 0.39551(6) 0.25207(6)
C1_12 C 1.0000 0.3957(7) 0.2590(6)
H1_12 H 1.0000 0.4239 0.2766
N1_6 N 0.9620(5) 0.3721(3) 0.2443(3)
C2_6 C 0.9757(4) 0.3358(4) 0.2215(3)
Cl1_6 Cl 0.93938(11) 0.29541(10) 0.19564(10)
C3_6 C 0.8935(5) 0.5000 0.2548(7)
H2_6 H 0.8829 0.5000 0.2232
N2_6 N 0.9009(3) 0.4603(3) 0.2769(4)
C4_6 C 0.9173(4) 0.4776(4) 0.3208(4)
Cl2_6 Cl 0.93138(15) 0.43906(12) 0.36268(11)
C5_6 C 0.8858(7) 0.3176(4) 0.3176(4)
H3_6 H 0.9151 0.3065 0.3065
N3_6 N 0.8651(4) 0.3539(3) 0.2972(4)
C6_6 C 0.8247(4) 0.3566(4) 0.3241(4)
Cl3_6 Cl 0.78478(11) 0.39754(12) 0.31090(11)
C7_6 C 0.8219(8) 0.3949(6) 0.1781(8)
H4_6 H 0.7993 0.3856 0.2007
N4_6 N 0.8639(4) 0.4007(3) 0.1923(4)
C8_6 C 0.8814(3) 0.4171(3) 0.1507(4)
Cl4_6 Cl 0.94046(11) 0.43310(10) 0.14477(9)
Zn5_3 Zn 0.74793(6) 0.39551(6) 0.10433(6)
C10_6 C 0.9173(4) 0.5224(4) 0.3208(4)
Cl6_6 Cl 0.93138(15) 0.56094(12) 0.36268(11)
C11_6 C 0.8247(4) 0.3241(4) 0.3566(4)
Cl7_6 Cl 0.78478(11) 0.31090(11) 0.39754(12)
N10_5 N 0.8077(4) 0.4007(3) 0.1361(4)
C12_6 C 0.8493(4) 0.4171(3) 0.1186(3)
Cl8_6 Cl 0.85523(9) 0.43310(10) 0.05954(11)
C1_13 C 0.3957(7) 0.2590(6) 0.0000
H1_13 H 0.4239 0.2766 -0.0000
N5_7 N 0.3721(3) 0.2443(3) 0.0380(5)
C9_7 C 0.3358(4) 0.2215(3) 0.0243(4)
Cl5_7 Cl 0.29541(10) 0.19564(10) 0.06062(11)
N7_6 N 0.4603(3) 0.2769(4) 0.0991(3)
Zn1_7 Zn 0.39551(6) 0.25207(6) 0.89567(6)
C1_14 C 0.3957(7) 0.2590(6) 1.0000
H1_14 H 0.4239 0.2766 1.0000
N1_7 N 0.3721(3) 0.2443(3) 0.9620(5)
C2_7 C 0.3358(4) 0.2215(3) 0.9757(4)
Cl1_7 Cl 0.29541(10) 0.19564(10) 0.93938(11)
C3_7 C 0.5000 0.2548(7) 0.8935(5)
H2_7 H 0.5000 0.2232 0.8829
N2_7 N 0.4603(3) 0.2769(4) 0.9009(3)
C4_7 C 0.4776(4) 0.3208(4) 0.9173(4)
Cl2_7 Cl 0.43906(12) 0.36268(11) 0.93138(15)
C5_7 C 0.3176(4) 0.3176(4) 0.8858(7)
H3_7 H 0.3065 0.3065 0.9151
N3_7 N 0.3539(3) 0.2972(4) 0.8651(4)
C6_7 C 0.3566(4) 0.3241(4) 0.8247(4)
Cl3_7 Cl 0.39754(12) 0.31090(11) 0.78478(11)
C7_7 C 0.3949(6) 0.1781(8) 0.8219(8)
H4_7 H 0.3856 0.2007 0.7993
N4_7 N 0.4007(3) 0.1923(4) 0.8639(4)
C8_7 C 0.4171(3) 0.1507(4) 0.8814(3)
Cl4_7 Cl 0.43310(10) 0.14477(9) 0.94046(11)
Zn3_5 Zn 0.60449(6) 0.25207(6) 0.89567(6)
Zn5_4 Zn 0.39551(6) 0.10433(6) 0.74793(6)
N6_6 N 0.5397(3) 0.2769(4) 0.9009(3)
C10_7 C 0.5224(4) 0.3208(4) 0.9173(4)
Cl6_7 Cl 0.56094(12) 0.36268(11) 0.93138(15)
C11_7 C 0.3241(4) 0.3566(4) 0.8247(4)
Cl7_7 Cl 0.31090(11) 0.39754(12) 0.78478(11)
N10_6 N 0.4007(3) 0.1361(4) 0.8077(4)
C12_7 C 0.4171(3) 0.1186(3) 0.8493(4)
Cl8_7 Cl 0.43310(10) 0.05954(11) 0.85523(9)
Zn1_8 Zn 0.60449(6) 0.25207(6) 0.10433(6)
C1_15 C 0.6043(7) 0.2590(6) 0.0000
H1_15 H 0.5761 0.2766 0.0000
N1_8 N 0.6279(3) 0.2443(3) 0.0380(5)
C2_8 C 0.6642(4) 0.2215(3) 0.0243(4)
Cl1_8 Cl 0.70459(10) 0.19564(10) 0.06062(11)
C3_8 C 0.5000 0.2548(7) 0.1065(5)
H2_8 H 0.5000 0.2232 0.1171
N2_8 N 0.5397(3) 0.2769(4) 0.0991(3)
C4_8 C 0.5224(4) 0.3208(4) 0.0827(4)
Cl2_8 Cl 0.56094(12) 0.36268(11) 0.06862(15)
C5_8 C 0.6824(4) 0.3176(4) 0.1142(7)
H3_8 H 0.6935 0.3065 0.0849
N3_8 N 0.6461(3) 0.2972(4) 0.1349(4)
C6_8 C 0.6434(4) 0.3241(4) 0.1753(4)
Cl3_8 Cl 0.60246(12) 0.31090(11) 0.21522(11)
C7_8 C 0.6051(6) 0.1781(8) 0.1781(8)
H4_8 H 0.6144 0.2007 0.2007
N4_8 N 0.5993(3) 0.1923(4) 0.1361(4)
C8_8 C 0.5829(3) 0.1507(4) 0.1186(3)
Cl4_8 Cl 0.56690(10) 0.14477(9) 0.05954(11)
C10_8 C 0.4776(4) 0.3208(4) 0.0827(4)
Cl6_8 Cl 0.43906(12) 0.36268(11) 0.06862(15)
N8_6 N 0.7028(4) 0.3539(3) 0.1349(4)
C11_8 C 0.6759(4) 0.3566(4) 0.1753(4)
Cl7_8 Cl 0.68910(11) 0.39754(12) 0.21522(11)
N10_7 N 0.5993(3) 0.1361(4) 0.1923(4)
C12_8 C 0.5829(3) 0.1186(3) 0.1507(4)
Cl8_8 Cl 0.56690(10) 0.05954(11) 0.14477(9)
C1_16 C 0.6043(7) 0.2590(6) 1.0000
H1_16 H 0.5761 0.2766 1.0000
N5_8 N 0.6279(3) 0.2443(3) 0.9620(5)
C9_8 C 0.6642(4) 0.2215(3) 0.9757(4)
Cl5_8 Cl 0.70459(10) 0.19564(10) 0.93938(11)
N9_6 N 0.6461(3) 0.2972(4) 0.8651(4)
N11_6 N 0.5993(3) 0.1923(4) 0.8639(4)
Zn1_9 Zn 0.39551(6) 0.74793(6) 0.10433(6)
C1_17 C 0.3957(7) 0.7410(6) 0.0000
H1_17 H 0.4239 0.7234 0.0000
N1_9 N 0.3721(3) 0.7557(3) 0.0380(5)
C2_9 C 0.3358(4) 0.7785(3) 0.0243(4)
Cl1_9 Cl 0.29541(10) 0.80436(10) 0.06062(11)
C3_9 C 0.5000 0.7452(7) 0.1065(5)
H2_9 H 0.5000 0.7768 0.1171
N2_9 N 0.4603(3) 0.7231(4) 0.0991(3)
C4_9 C 0.4776(4) 0.6792(4) 0.0827(4)
Cl2_9 Cl 0.43906(12) 0.63732(11) 0.06862(15)
C5_9 C 0.3176(4) 0.6824(4) 0.1142(7)
H3_9 H 0.3065 0.6935 0.0849
N3_9 N 0.3539(3) 0.7028(4) 0.1349(4)
C6_9 C 0.3566(4) 0.6759(4) 0.1753(4)
Cl3_9 Cl 0.39754(12) 0.68910(11) 0.21522(11)
C7_9 C 0.3949(6) 0.8219(8) 0.1781(8)
H4_9 H 0.3856 0.7993 0.2007
N4_9 N 0.4007(3) 0.8077(4) 0.1361(4)
C8_9 C 0.4171(3) 0.8493(4) 0.1186(3)
Cl4_9 Cl 0.43310(10) 0.85523(9) 0.05954(11)
Zn3_6 Zn 0.60449(6) 0.74793(6) 0.10433(6)
N6_7 N 0.5397(3) 0.7231(4) 0.0991(3)
C10_9 C 0.5224(4) 0.6792(4) 0.0827(4)
Cl6_9 Cl 0.56094(12) 0.63732(11) 0.06862(15)
N8_7 N 0.2972(4) 0.6461(3) 0.1349(4)
C11_9 C 0.3241(4) 0.6434(4) 0.1753(4)
Cl7_9 Cl 0.31090(11) 0.60246(12) 0.21522(11)
C12_9 C 0.4171(3) 0.8814(3) 0.1507(4)
Cl8_9 Cl 0.43310(10) 0.94046(11) 0.14477(9)
C1_18 C 0.3957(7) 0.7410(6) 1.0000
H1_18 H 0.4239 0.7234 1.0000
Zn2_6 Zn 0.39551(6) 0.74793(6) 0.89567(6)
N5_9 N 0.3721(3) 0.7557(3) 0.9620(5)
C9_9 C 0.3358(4) 0.7785(3) 0.9757(4)
Cl5_9 Cl 0.29541(10) 0.80436(10) 0.93938(11)
N7_7 N 0.4603(3) 0.7231(4) 0.9009(3)
N9_7 N 0.3539(3) 0.7028(4) 0.8651(4)
N11_7 N 0.4007(3) 0.8077(4) 0.8639(4)
Zn1_10 Zn 0.25207(6) 0.10433(6) 0.60449(6)
C1_19 C 0.2590(6) 0.0000 0.6043(7)
H1_19 H 0.2766 -0.0000 0.5761
N1_10 N 0.2443(3) 0.0380(5) 0.6279(3)
C2_10 C 0.2215(3) 0.0243(4) 0.6642(4)
Cl1_10 Cl 0.19564(10) 0.06062(11) 0.70459(10)
C3_10 C 0.2548(7) 0.1065(5) 0.5000
H2_10 H 0.2232 0.1171 0.5000
N2_10 N 0.2769(4) 0.0991(3) 0.5397(3)
C4_10 C 0.3208(4) 0.0827(4) 0.5224(4)
Cl2_10 Cl 0.36268(11) 0.06862(15) 0.56094(12)
C5_10 C 0.3176(4) 0.1142(7) 0.6824(4)
H3_10 H 0.3065 0.0849 0.6935
N3_10 N 0.2972(4) 0.1349(4) 0.6461(3)
C6_10 C 0.3241(4) 0.1753(4) 0.6434(4)
Cl3_10 Cl 0.31090(11) 0.21522(11) 0.60246(12)
C7_10 C 0.1781(8) 0.1781(8) 0.6051(6)
H4_10 H 0.2007 0.2007 0.6144
N4_10 N 0.1923(4) 0.1361(4) 0.5993(3)
C8_10 C 0.1507(4) 0.1186(3) 0.5829(3)
Cl4_10 Cl 0.14477(9) 0.05954(11) 0.56690(10)
N6_8 N 0.2769(4) 0.0991(3) 0.4603(3)
C10_10 C 0.3208(4) 0.0827(4) 0.4776(4)
Cl6_10 Cl 0.36268(11) 0.06862(15) 0.43906(12)
N8_8 N 0.3539(3) 0.1349(4) 0.7028(4)
C11_10 C 0.3566(4) 0.1753(4) 0.6759(4)
Cl7_10 Cl 0.39754(12) 0.21522(11) 0.68910(11)
N10_8 N 0.1361(4) 0.1923(4) 0.5993(3)
C12_10 C 0.1186(3) 0.1507(4) 0.5829(3)
Cl8_10 Cl 0.05954(11) 0.14477(9) 0.56690(10)
C1_20 C 0.2590(6) 1.0000 0.6043(7)
H1_20 H 0.2766 1.0000 0.5761
Zn2_7 Zn 0.25207(6) 0.89567(6) 0.60449(6)
N5_10 N 0.2443(3) 0.9620(5) 0.6279(3)
C9_10 C 0.2215(3) 0.9757(4) 0.6642(4)
Cl5_10 Cl 0.19564(10) 0.93938(11) 0.70459(10)
N7_8 N 0.2769(4) 0.9009(3) 0.5397(3)
N9_8 N 0.2972(4) 0.8651(4) 0.6461(3)
N11_8 N 0.1923(4) 0.8639(4) 0.5993(3)
C1_21 C 0.2590(6) -0.0000 0.3957(7)
H1_21 H 0.2766 -0.0000 0.4239
N5_11 N 0.2443(3) 0.0380(5) 0.3721(3)
C9_11 C 0.2215(3) 0.0243(4) 0.3358(4)
Cl5_11 Cl 0.19564(10) 0.06062(11) 0.29541(10)
Zn1_11 Zn 0.25207(6) 0.89567(6) 0.39551(6)
C1_22 C 0.2590(6) 1.0000 0.3957(7)
H1_22 H 0.2766 1.0000 0.4239
N1_11 N 0.2443(3) 0.9620(5) 0.3721(3)
C2_11 C 0.2215(3) 0.9757(4) 0.3358(4)
Cl1_11 Cl 0.19564(10) 0.93938(11) 0.29541(10)
C3_11 C 0.2548(7) 0.8935(5) 0.5000
H2_11 H 0.2232 0.8829 0.5000
N2_11 N 0.2769(4) 0.9009(3) 0.4603(3)
C4_11 C 0.3208(4) 0.9173(4) 0.4776(4)
Cl2_11 Cl 0.36268(11) 0.93138(15) 0.43906(12)
C5_11 C 0.3176(4) 0.8858(7) 0.3176(4)
H3_11 H 0.3065 0.9151 0.3065
N3_11 N 0.2972(4) 0.8651(4) 0.3539(3)
C6_11 C 0.3241(4) 0.8247(4) 0.3566(4)
Cl3_11 Cl 0.31090(11) 0.78478(11) 0.39754(12)
C7_11 C 0.1781(8) 0.8219(8) 0.3949(6)
H4_11 H 0.2007 0.7993 0.3856
N4_11 N 0.1923(4) 0.8639(4) 0.4007(3)
C8_11 C 0.1507(4) 0.8814(3) 0.4171(3)
Cl4_11 Cl 0.14477(9) 0.94046(11) 0.43310(10)
C10_11 C 0.3208(4) 0.9173(4) 0.5224(4)
Cl6_11 Cl 0.36268(11) 0.93138(15) 0.56094(12)
C11_11 C 0.3566(4) 0.8247(4) 0.3241(4)
Cl7_11 Cl 0.39754(12) 0.78478(11) 0.31090(11)
N10_9 N 0.1361(4) 0.8077(4) 0.4007(3)
C12_11 C 0.1186(3) 0.8493(4) 0.4171(3)
Cl8_11 Cl 0.05954(11) 0.85523(9) 0.43310(10)
Zn1_12 Zn 0.74793(6) 0.10433(6) 0.39551(6)
C1_23 C 0.7410(6) -0.0000 0.3957(7)
H1_23 H 0.7234 0.0000 0.4239
N1_12 N 0.7557(3) 0.0380(5) 0.3721(3)
C2_12 C 0.7785(3) 0.0243(4) 0.3358(4)
Cl1_12 Cl 0.80436(10) 0.06062(11) 0.29541(10)
C3_12 C 0.7452(7) 0.1065(5) 0.5000
H2_12 H 0.7768 0.1171 0.5000
N2_12 N 0.7231(4) 0.0991(3) 0.4603(3)
C4_12 C 0.6792(4) 0.0827(4) 0.4776(4)
Cl2_12 Cl 0.63732(11) 0.06862(15) 0.43906(12)
C5_12 C 0.6824(4) 0.1142(7) 0.3176(4)
H3_12 H 0.6935 0.0849 0.3065
N3_12 N 0.7028(4) 0.1349(4) 0.3539(3)
C6_12 C 0.6759(4) 0.1753(4) 0.3566(4)
Cl3_12 Cl 0.68910(11) 0.21522(11) 0.39754(12)
C7_12 C 0.8219(8) 0.1781(8) 0.3949(6)
H4_12 H 0.7993 0.2007 0.3856
N4_12 N 0.8077(4) 0.1361(4) 0.4007(3)
C8_12 C 0.8493(4) 0.1186(3) 0.4171(3)
Cl4_12 Cl 0.85523(9) 0.05954(11) 0.43310(10)
Zn3_7 Zn 0.74793(6) 0.10433(6) 0.60449(6)
N6_9 N 0.7231(4) 0.0991(3) 0.5397(3)
C10_12 C 0.6792(4) 0.0827(4) 0.5224(4)
Cl6_12 Cl 0.63732(11) 0.06862(15) 0.56094(12)
N8_9 N 0.6461(3) 0.1349(4) 0.2972(4)
C11_12 C 0.6434(4) 0.1753(4) 0.3241(4)
Cl7_12 Cl 0.60246(12) 0.21522(11) 0.31090(11)
C12_12 C 0.8814(3) 0.1507(4) 0.4171(3)
Cl8_12 Cl 0.94046(11) 0.14477(9) 0.43310(10)
C1_24 C 0.7410(6) 1.0000 0.3957(7)
H1_24 H 0.7234 1.0000 0.4239
Zn2_8 Zn 0.74793(6) 0.89567(6) 0.39551(6)
N5_12 N 0.7557(3) 0.9620(5) 0.3721(3)
C9_12 C 0.7785(3) 0.9757(4) 0.3358(4)
Cl5_12 Cl 0.80436(10) 0.93938(11) 0.29541(10)
N7_9 N 0.7231(4) 0.9009(3) 0.4603(3)
N9_9 N 0.7028(4) 0.8651(4) 0.3539(3)
N11_9 N 0.8077(4) 0.8639(4) 0.4007(3)
C1_25 C 0.6043(7) 0.0000 0.2590(6)
H1_25 H 0.5761 0.0000 0.2766
N5_13 N 0.6279(3) 0.0380(5) 0.2443(3)
C9_13 C 0.6642(4) 0.0243(4) 0.2215(3)
Cl5_13 Cl 0.70459(10) 0.06062(11) 0.19564(10)
Zn1_13 Zn 0.60449(6) 0.89567(6) 0.25207(6)
C1_26 C 0.6043(7) 1.0000 0.2590(6)
H1_26 H 0.5761 1.0000 0.2766
N1_13 N 0.6279(3) 0.9620(5) 0.2443(3)
C2_13 C 0.6642(4) 0.9757(4) 0.2215(3)
Cl1_13 Cl 0.70459(10) 0.93938(11) 0.19564(10)
C3_13 C 0.5000 0.8935(5) 0.2548(7)
H2_13 H 0.5000 0.8829 0.2232
N2_13 N 0.5397(3) 0.9009(3) 0.2769(4)
C4_13 C 0.5224(4) 0.9173(4) 0.3208(4)
Cl2_13 Cl 0.56094(12) 0.93138(15) 0.36268(11)
C5_13 C 0.6824(4) 0.8858(7) 0.3176(4)
H3_13 H 0.6935 0.9151 0.3065
N3_13 N 0.6461(3) 0.8651(4) 0.2972(4)
C6_13 C 0.6434(4) 0.8247(4) 0.3241(4)
Cl3_13 Cl 0.60246(12) 0.78478(11) 0.31090(11)
C7_13 C 0.6051(6) 0.8219(8) 0.1781(8)
H4_13 H 0.6144 0.7993 0.2007
N4_13 N 0.5993(3) 0.8639(4) 0.1923(4)
C8_13 C 0.5829(3) 0.8814(3) 0.1507(4)
Cl4_13 Cl 0.56690(10) 0.94046(11) 0.14477(9)
C10_13 C 0.4776(4) 0.9173(4) 0.3208(4)
Cl6_13 Cl 0.43906(12) 0.93138(15) 0.36268(11)
C11_13 C 0.6759(4) 0.8247(4) 0.3566(4)
Cl7_13 Cl 0.68910(11) 0.78478(11) 0.39754(12)
N10_10 N 0.5993(3) 0.8077(4) 0.1361(4)
C12_13 C 0.5829(3) 0.8493(4) 0.1186(3)
Cl8_13 Cl 0.56690(10) 0.85523(9) 0.05954(11)
Zn1_14 Zn 0.60449(6) 0.10433(6) 0.74793(6)
C1_27 C 0.6043(7) 0.0000 0.7410(6)
H1_27 H 0.5761 -0.0000 0.7234
N1_14 N 0.6279(3) 0.0380(5) 0.7557(3)
C2_14 C 0.6642(4) 0.0243(4) 0.7785(3)
Cl1_14 Cl 0.70459(10) 0.06062(11) 0.80436(10)
C3_14 C 0.5000 0.1065(5) 0.7452(7)
H2_14 H 0.5000 0.1171 0.7768
N2_14 N 0.5397(3) 0.0991(3) 0.7231(4)
C4_14 C 0.5224(4) 0.0827(4) 0.6792(4)
Cl2_14 Cl 0.56094(12) 0.06862(15) 0.63732(11)
C5_14 C 0.6824(4) 0.1142(7) 0.6824(4)
H3_14 H 0.6935 0.0849 0.6935
N3_14 N 0.6461(3) 0.1349(4) 0.7028(4)
C6_14 C 0.6434(4) 0.1753(4) 0.6759(4)
Cl3_14 Cl 0.60246(12) 0.21522(11) 0.68910(11)
C7_14 C 0.6051(6) 0.1781(8) 0.8219(8)
H4_14 H 0.6144 0.2007 0.7993
N4_14 N 0.5993(3) 0.1361(4) 0.8077(4)
C8_14 C 0.5829(3) 0.1186(3) 0.8493(4)
Cl4_14 Cl 0.56690(10) 0.05954(11) 0.85523(9)
N6_10 N 0.4603(3) 0.0991(3) 0.7231(4)
C10_14 C 0.4776(4) 0.0827(4) 0.6792(4)
Cl6_14 Cl 0.43906(12) 0.06862(15) 0.63732(11)
N8_10 N 0.7028(4) 0.1349(4) 0.6461(3)
C11_14 C 0.6759(4) 0.1753(4) 0.6434(4)
Cl7_14 Cl 0.68910(11) 0.21522(11) 0.60246(12)
C12_14 C 0.5829(3) 0.1507(4) 0.8814(3)
Cl8_14 Cl 0.56690(10) 0.14477(9) 0.94046(11)
C1_28 C 0.6043(7) 1.0000 0.7410(6)
H1_28 H 0.5761 1.0000 0.7234
Zn2_9 Zn 0.60449(6) 0.89567(6) 0.74793(6)
N5_14 N 0.6279(3) 0.9620(5) 0.7557(3)
C9_14 C 0.6642(4) 0.9757(4) 0.7785(3)
Cl5_14 Cl 0.70459(10) 0.93938(11) 0.80436(10)
N7_10 N 0.5397(3) 0.9009(3) 0.7231(4)
N9_10 N 0.6461(3) 0.8651(4) 0.7028(4)
N11_10 N 0.5993(3) 0.8639(4) 0.8077(4)
C1_29 C 0.3957(7) 0.0000 0.7410(6)
H1_29 H 0.4239 -0.0000 0.7234
N5_15 N 0.3721(3) 0.0380(5) 0.7557(3)
C9_15 C 0.3358(4) 0.0243(4) 0.7785(3)
Cl5_15 Cl 0.29541(10) 0.06062(11) 0.80436(10)
Zn1_15 Zn 0.39551(6) 0.89567(6) 0.74793(6)
C1_30 C 0.3957(7) 1.0000 0.7410(6)
H1_30 H 0.4239 1.0000 0.7234
N1_15 N 0.3721(3) 0.9620(5) 0.7557(3)
C2_15 C 0.3358(4) 0.9757(4) 0.7785(3)
Cl1_15 Cl 0.29541(10) 0.93938(11) 0.80436(10)
C3_15 C 0.5000 0.8935(5) 0.7452(7)
H2_15 H 0.5000 0.8829 0.7768
N2_15 N 0.4603(3) 0.9009(3) 0.7231(4)
C4_15 C 0.4776(4) 0.9173(4) 0.6792(4)
Cl2_15 Cl 0.43906(12) 0.93138(15) 0.63732(11)
C5_15 C 0.3176(4) 0.8858(7) 0.6824(4)
H3_15 H 0.3065 0.9151 0.6935
N3_15 N 0.3539(3) 0.8651(4) 0.7028(4)
C6_15 C 0.3566(4) 0.8247(4) 0.6759(4)
Cl3_15 Cl 0.39754(12) 0.78478(11) 0.68910(11)
C7_15 C 0.3949(6) 0.8219(8) 0.8219(8)
H4_15 H 0.3856 0.7993 0.7993
N4_15 N 0.4007(3) 0.8639(4) 0.8077(4)
C8_15 C 0.4171(3) 0.8814(3) 0.8493(4)
Cl4_15 Cl 0.43310(10) 0.94046(11) 0.85523(9)
C10_15 C 0.5224(4) 0.9173(4) 0.6792(4)
Cl6_15 Cl 0.56094(12) 0.93138(15) 0.63732(11)
C11_15 C 0.3241(4) 0.8247(4) 0.6434(4)
Cl7_15 Cl 0.31090(11) 0.78478(11) 0.60246(12)
C12_15 C 0.4171(3) 0.8493(4) 0.8814(3)
Cl8_15 Cl 0.43310(10) 0.85523(9) 0.94046(11)
C1_31 C 0.2590(6) 0.6043(7) 0.0000
H1_31 H 0.2766 0.5761 -0.0000
N5_16 N 0.2443(3) 0.6279(3) 0.0380(5)
C9_16 C 0.2215(3) 0.6642(4) 0.0243(4)
Cl5_16 Cl 0.19564(10) 0.70459(10) 0.06062(11)
Zn1_16 Zn 0.25207(6) 0.60449(6) 0.89567(6)
C1_32 C 0.2590(6) 0.6043(7) 1.0000
H1_32 H 0.2766 0.5761 1.0000
N1_16 N 0.2443(3) 0.6279(3) 0.9620(5)
C2_16 C 0.2215(3) 0.6642(4) 0.9757(4)
Cl1_16 Cl 0.19564(10) 0.70459(10) 0.93938(11)
C3_16 C 0.2548(7) 0.5000 0.8935(5)
H2_16 H 0.2232 0.5000 0.8829
N2_16 N 0.2769(4) 0.5397(3) 0.9009(3)
C4_16 C 0.3208(4) 0.5224(4) 0.9173(4)
Cl2_16 Cl 0.36268(11) 0.56094(12) 0.93138(15)
C5_16 C 0.3176(4) 0.6824(4) 0.8858(7)
H3_16 H 0.3065 0.6935 0.9151
N3_16 N 0.2972(4) 0.6461(3) 0.8651(4)
C6_16 C 0.3241(4) 0.6434(4) 0.8247(4)
Cl3_16 Cl 0.31090(11) 0.60246(12) 0.78478(11)
C7_16 C 0.1781(8) 0.6051(6) 0.8219(8)
H4_16 H 0.2007 0.6144 0.7993
N4_16 N 0.1923(4) 0.5993(3) 0.8639(4)
C8_16 C 0.1507(4) 0.5829(3) 0.8814(3)
Cl4_16 Cl 0.14477(9) 0.56690(10) 0.94046(11)
C10_16 C 0.3208(4) 0.4776(4) 0.9173(4)
Cl6_16 Cl 0.36268(11) 0.43906(12) 0.93138(15)
C11_16 C 0.3566(4) 0.6759(4) 0.8247(4)
Cl7_16 Cl 0.39754(12) 0.68910(11) 0.78478(11)
N10_11 N 0.1361(4) 0.5993(3) 0.8077(4)
C12_16 C 0.1186(3) 0.5829(3) 0.8493(4)
Cl8_16 Cl 0.05954(11) 0.56690(10) 0.85523(9)
Zn1_17 Zn 0.74793(6) 0.60449(6) 0.10433(6)
C1_33 C 0.7410(6) 0.6043(7) 0.0000
H1_33 H 0.7234 0.5761 0.0000
N1_17 N 0.7557(3) 0.6279(3) 0.0380(5)
C2_17 C 0.7785(3) 0.6642(4) 0.0243(4)
Cl1_17 Cl 0.80436(10) 0.70459(10) 0.06062(11)
C3_17 C 0.7452(7) 0.5000 0.1065(5)
H2_17 H 0.7768 0.5000 0.1171
N2_17 N 0.7231(4) 0.5397(3) 0.0991(3)
C4_17 C 0.6792(4) 0.5224(4) 0.0827(4)
Cl2_17 Cl 0.63732(11) 0.56094(12) 0.06862(15)
C5_17 C 0.6824(4) 0.6824(4) 0.1142(7)
H3_17 H 0.6935 0.6935 0.0849
N3_17 N 0.7028(4) 0.6461(3) 0.1349(4)
C6_17 C 0.6759(4) 0.6434(4) 0.1753(4)
Cl3_17 Cl 0.68910(11) 0.60246(12) 0.21522(11)
C7_17 C 0.8219(8) 0.6051(6) 0.1781(8)
H4_17 H 0.7993 0.6144 0.2007
N4_17 N 0.8077(4) 0.5993(3) 0.1361(4)
C8_17 C 0.8493(4) 0.5829(3) 0.1186(3)
Cl4_17 Cl 0.85523(9) 0.56690(10) 0.05954(11)
N6_11 N 0.7231(4) 0.4603(3) 0.0991(3)
C10_17 C 0.6792(4) 0.4776(4) 0.0827(4)
Cl6_17 Cl 0.63732(11) 0.43906(12) 0.06862(15)
N8_11 N 0.6461(3) 0.7028(4) 0.1349(4)
C11_17 C 0.6434(4) 0.6759(4) 0.1753(4)
Cl7_17 Cl 0.60246(12) 0.68910(11) 0.21522(11)
C12_17 C 0.8814(3) 0.5829(3) 0.1507(4)
Cl8_17 Cl 0.94046(11) 0.56690(10) 0.14477(9)
C1_34 C 0.7410(6) 0.6043(7) 1.0000
H1_34 H 0.7234 0.5761 1.0000
Zn2_10 Zn 0.74793(6) 0.60449(6) 0.89567(6)
N5_17 N 0.7557(3) 0.6279(3) 0.9620(5)
C9_17 C 0.7785(3) 0.6642(4) 0.9757(4)
Cl5_17 Cl 0.80436(10) 0.70459(10) 0.93938(11)
N7_11 N 0.7231(4) 0.5397(3) 0.9009(3)
N9_11 N 0.7028(4) 0.6461(3) 0.8651(4)
N11_11 N 0.8077(4) 0.5993(3) 0.8639(4)
C1_35 C 0.7410(6) 0.3957(7) 0.0000
H1_35 H 0.7234 0.4239 -0.0000
N5_18 N 0.7557(3) 0.3721(3) 0.0380(5)
C9_18 C 0.7785(3) 0.3358(4) 0.0243(4)
Cl5_18 Cl 0.80436(10) 0.29541(10) 0.06062(11)
Zn1_18 Zn 0.74793(6) 0.39551(6) 0.89567(6)
C1_36 C 0.7410(6) 0.3957(7) 1.0000
H1_36 H 0.7234 0.4239 1.0000
N1_18 N 0.7557(3) 0.3721(3) 0.9620(5)
C2_18 C 0.7785(3) 0.3358(4) 0.9757(4)
Cl1_18 Cl 0.80436(10) 0.29541(10) 0.93938(11)
C3_18 C 0.7452(7) 0.5000 0.8935(5)
H2_18 H 0.7768 0.5000 0.8829
N2_18 N 0.7231(4) 0.4603(3) 0.9009(3)
C4_18 C 0.6792(4) 0.4776(4) 0.9173(4)
Cl2_18 Cl 0.63732(11) 0.43906(12) 0.93138(15)
C5_18 C 0.6824(4) 0.3176(4) 0.8858(7)
H3_18 H 0.6935 0.3065 0.9151
N3_18 N 0.7028(4) 0.3539(3) 0.8651(4)
C6_18 C 0.6759(4) 0.3566(4) 0.8247(4)
Cl3_18 Cl 0.68910(11) 0.39754(12) 0.78478(11)
C7_18 C 0.8219(8) 0.3949(6) 0.8219(8)
H4_18 H 0.7993 0.3856 0.7993
N4_18 N 0.8077(4) 0.4007(3) 0.8639(4)
C8_18 C 0.8493(4) 0.4171(3) 0.8814(3)
Cl4_18 Cl 0.85523(9) 0.43310(10) 0.94046(11)
C10_18 C 0.6792(4) 0.5224(4) 0.9173(4)
Cl6_18 Cl 0.63732(11) 0.56094(12) 0.93138(15)
C11_18 C 0.6434(4) 0.3241(4) 0.8247(4)
Cl7_18 Cl 0.60246(12) 0.31090(11) 0.78478(11)
C12_18 C 0.8814(3) 0.4171(3) 0.8493(4)
Cl8_18 Cl 0.94046(11) 0.43310(10) 0.85523(9)
C1_37 C -0.0000 0.2590(6) 0.6043(7)
H1_37 H 0.0000 0.2766 0.5761
N5_19 N 0.0380(5) 0.2443(3) 0.6279(3)
C9_19 C 0.0243(4) 0.2215(3) 0.6642(4)
Cl5_19 Cl 0.06062(11) 0.19564(10) 0.70459(10)
Zn1_19 Zn 0.89567(6) 0.25207(6) 0.60449(6)
C1_38 C 1.0000 0.2590(6) 0.6043(7)
H1_38 H 1.0000 0.2766 0.5761
N1_19 N 0.9620(5) 0.2443(3) 0.6279(3)
C2_19 C 0.9757(4) 0.2215(3) 0.6642(4)
Cl1_19 Cl 0.93938(11) 0.19564(10) 0.70459(10)
C3_19 C 0.8935(5) 0.2548(7) 0.5000
H2_19 H 0.8829 0.2232 0.5000
N2_19 N 0.9009(3) 0.2769(4) 0.5397(3)
C4_19 C 0.9173(4) 0.3208(4) 0.5224(4)
Cl2_19 Cl 0.93138(15) 0.36268(11) 0.56094(12)
C5_19 C 0.8858(7) 0.3176(4) 0.6824(4)
H3_19 H 0.9151 0.3065 0.6935
N3_19 N 0.8651(4) 0.2972(4) 0.6461(3)
C6_19 C 0.8247(4) 0.3241(4) 0.6434(4)
Cl3_19 Cl 0.78478(11) 0.31090(11) 0.60246(12)
C7_19 C 0.8219(8) 0.1781(8) 0.6051(6)
H4_19 H 0.7993 0.2007 0.6144
N4_19 N 0.8639(4) 0.1923(4) 0.5993(3)
C8_19 C 0.8814(3) 0.1507(4) 0.5829(3)
Cl4_19 Cl 0.94046(11) 0.14477(9) 0.56690(10)
C10_19 C 0.9173(4) 0.3208(4) 0.4776(4)
Cl6_19 Cl 0.93138(15) 0.36268(11) 0.43906(12)
C11_19 C 0.8247(4) 0.3566(4) 0.6759(4)
Cl7_19 Cl 0.78478(11) 0.39754(12) 0.68910(11)
N10_12 N 0.8077(4) 0.1361(4) 0.5993(3)
C12_19 C 0.8493(4) 0.1186(3) 0.5829(3)
Cl8_19 Cl 0.85523(9) 0.05954(11) 0.56690(10)
Zn1_20 Zn 0.10433(6) 0.74793(6) 0.60449(6)
C1_39 C -0.0000 0.7410(6) 0.6043(7)
H1_39 H -0.0000 0.7234 0.5761
N1_20 N 0.0380(5) 0.7557(3) 0.6279(3)
C2_20 C 0.0243(4) 0.7785(3) 0.6642(4)
Cl1_20 Cl 0.06062(11) 0.80436(10) 0.70459(10)
C3_20 C 0.1065(5) 0.7452(7) 0.5000
H2_20 H 0.1171 0.7768 0.5000
N2_20 N 0.0991(3) 0.7231(4) 0.5397(3)
C4_20 C 0.0827(4) 0.6792(4) 0.5224(4)
Cl2_20 Cl 0.06862(15) 0.63732(11) 0.56094(12)
C5_20 C 0.1142(7) 0.6824(4) 0.6824(4)
H3_20 H 0.0849 0.6935 0.6935
N3_20 N 0.1349(4) 0.7028(4) 0.6461(3)
C6_20 C 0.1753(4) 0.6759(4) 0.6434(4)
Cl3_20 Cl 0.21522(11) 0.68910(11) 0.60246(12)
C7_20 C 0.1781(8) 0.8219(8) 0.6051(6)
H4_20 H 0.2007 0.7993 0.6144
N4_20 N 0.1361(4) 0.8077(4) 0.5993(3)
C8_20 C 0.1186(3) 0.8493(4) 0.5829(3)
Cl4_20 Cl 0.05954(11) 0.85523(9) 0.56690(10)
N6_12 N 0.0991(3) 0.7231(4) 0.4603(3)
C10_20 C 0.0827(4) 0.6792(4) 0.4776(4)
Cl6_20 Cl 0.06862(15) 0.63732(11) 0.43906(12)
N8_12 N 0.1349(4) 0.6461(3) 0.7028(4)
C11_20 C 0.1753(4) 0.6434(4) 0.6759(4)
Cl7_20 Cl 0.21522(11) 0.60246(12) 0.68910(11)
C12_20 C 0.1507(4) 0.8814(3) 0.5829(3)
Cl8_20 Cl 0.14477(9) 0.94046(11) 0.56690(10)
C1_40 C 1.0000 0.7410(6) 0.6043(7)
H1_40 H 1.0000 0.7234 0.5761
Zn2_11 Zn 0.89567(6) 0.74793(6) 0.60449(6)
N5_20 N 0.9620(5) 0.7557(3) 0.6279(3)
C9_20 C 0.9757(4) 0.7785(3) 0.6642(4)
Cl5_20 Cl 0.93938(11) 0.80436(10) 0.70459(10)
N7_12 N 0.9009(3) 0.7231(4) 0.5397(3)
N9_12 N 0.8651(4) 0.7028(4) 0.6461(3)
N11_12 N 0.8639(4) 0.8077(4) 0.5993(3)
C1_41 C 0.0000 0.7410(6) 0.3957(7)
H1_41 H 0.0000 0.7234 0.4239
N5_21 N 0.0380(5) 0.7557(3) 0.3721(3)
C9_21 C 0.0243(4) 0.7785(3) 0.3358(4)
Cl5_21 Cl 0.06062(11) 0.80436(10) 0.29541(10)
Zn1_21 Zn 0.89567(6) 0.74793(6) 0.39551(6)
C1_42 C 1.0000 0.7410(6) 0.3957(7)
H1_42 H 1.0000 0.7234 0.4239
N1_21 N 0.9620(5) 0.7557(3) 0.3721(3)
C2_21 C 0.9757(4) 0.7785(3) 0.3358(4)
Cl1_21 Cl 0.93938(11) 0.80436(10) 0.29541(10)
C3_21 C 0.8935(5) 0.7452(7) 0.5000
H2_21 H 0.8829 0.7768 0.5000
N2_21 N 0.9009(3) 0.7231(4) 0.4603(3)
C4_21 C 0.9173(4) 0.6792(4) 0.4776(4)
Cl2_21 Cl 0.93138(15) 0.63732(11) 0.43906(12)
C5_21 C 0.8858(7) 0.6824(4) 0.3176(4)
H3_21 H 0.9151 0.6935 0.3065
N3_21 N 0.8651(4) 0.7028(4) 0.3539(3)
C6_21 C 0.8247(4) 0.6759(4) 0.3566(4)
Cl3_21 Cl 0.78478(11) 0.68910(11) 0.39754(12)
C7_21 C 0.8219(8) 0.8219(8) 0.3949(6)
H4_21 H 0.7993 0.7993 0.3856
N4_21 N 0.8639(4) 0.8077(4) 0.4007(3)
C8_21 C 0.8814(3) 0.8493(4) 0.4171(3)
Cl4_21 Cl 0.94046(11) 0.85523(9) 0.43310(10)
C10_21 C 0.9173(4) 0.6792(4) 0.5224(4)
Cl6_21 Cl 0.93138(15) 0.63732(11) 0.56094(12)
C11_21 C 0.8247(4) 0.6434(4) 0.3241(4)
Cl7_21 Cl 0.78478(11) 0.60246(12) 0.31090(11)
C12_21 C 0.8493(4) 0.8814(3) 0.4171(3)
Cl8_21 Cl 0.85523(9) 0.94046(11) 0.43310(10)
C1_43 C -0.0000 0.6043(7) 0.7410(6)
H1_43 H -0.0000 0.5761 0.7234
N5_22 N 0.0380(5) 0.6279(3) 0.7557(3)
C9_22 C 0.0243(4) 0.6642(4) 0.7785(3)
Cl5_22 Cl 0.06062(11) 0.70459(10) 0.80436(10)
Zn1_22 Zn 0.89567(6) 0.60449(6) 0.74793(6)
C1_44 C 1.0000 0.6043(7) 0.7410(6)
H1_44 H 1.0000 0.5761 0.7234
N1_22 N 0.9620(5) 0.6279(3) 0.7557(3)
C2_22 C 0.9757(4) 0.6642(4) 0.7785(3)
Cl1_22 Cl 0.93938(11) 0.70459(10) 0.80436(10)
C3_22 C 0.8935(5) 0.5000 0.7452(7)
H2_22 H 0.8829 0.5000 0.7768
N2_22 N 0.9009(3) 0.5397(3) 0.7231(4)
C4_22 C 0.9173(4) 0.5224(4) 0.6792(4)
Cl2_22 Cl 0.93138(15) 0.56094(12) 0.63732(11)
C5_22 C 0.8858(7) 0.6824(4) 0.6824(4)
H3_22 H 0.9151 0.6935 0.6935
N3_22 N 0.8651(4) 0.6461(3) 0.7028(4)
C6_22 C 0.8247(4) 0.6434(4) 0.6759(4)
Cl3_22 Cl 0.78478(11) 0.60246(12) 0.68910(11)
C7_22 C 0.8219(8) 0.6051(6) 0.8219(8)
H4_22 H 0.7993 0.6144 0.7993
N4_22 N 0.8639(4) 0.5993(3) 0.8077(4)
C8_22 C 0.8814(3) 0.5829(3) 0.8493(4)
Cl4_22 Cl 0.94046(11) 0.56690(10) 0.85523(9)
C10_22 C 0.9173(4) 0.4776(4) 0.6792(4)
Cl6_22 Cl 0.93138(15) 0.43906(12) 0.63732(11)
C11_22 C 0.8247(4) 0.6759(4) 0.6434(4)
Cl7_22 Cl 0.78478(11) 0.68910(11) 0.60246(12)
C12_22 C 0.8493(4) 0.5829(3) 0.8814(3)
Cl8_22 Cl 0.85523(9) 0.56690(10) 0.94046(11)
C1_45 C 0.6043(7) 0.7410(6) 0.0000
H1_45 H 0.5761 0.7234 -0.0000
N5_23 N 0.6279(3) 0.7557(3) 0.0380(5)
C9_23 C 0.6642(4) 0.7785(3) 0.0243(4)
Cl5_23 Cl 0.70459(10) 0.80436(10) 0.06062(11)
Zn1_23 Zn 0.60449(6) 0.74793(6) 0.89567(6)
C1_46 C 0.6043(7) 0.7410(6) 1.0000
H1_46 H 0.5761 0.7234 1.0000
N1_23 N 0.6279(3) 0.7557(3) 0.9620(5)
C2_23 C 0.6642(4) 0.7785(3) 0.9757(4)
Cl1_23 Cl 0.70459(10) 0.80436(10) 0.93938(11)
C3_23 C 0.5000 0.7452(7) 0.8935(5)
H2_23 H 0.5000 0.7768 0.8829
N2_23 N 0.5397(3) 0.7231(4) 0.9009(3)
C4_23 C 0.5224(4) 0.6792(4) 0.9173(4)
Cl2_23 Cl 0.56094(12) 0.63732(11) 0.93138(15)
C5_23 C 0.6824(4) 0.6824(4) 0.8858(7)
H3_23 H 0.6935 0.6935 0.9151
N3_23 N 0.6461(3) 0.7028(4) 0.8651(4)
C6_23 C 0.6434(4) 0.6759(4) 0.8247(4)
Cl3_23 Cl 0.60246(12) 0.68910(11) 0.78478(11)
C7_23 C 0.6051(6) 0.8219(8) 0.8219(8)
H4_23 H 0.6144 0.7993 0.7993
N4_23 N 0.5993(3) 0.8077(4) 0.8639(4)
C8_23 C 0.5829(3) 0.8493(4) 0.8814(3)
Cl4_23 Cl 0.56690(10) 0.85523(9) 0.94046(11)
C10_23 C 0.4776(4) 0.6792(4) 0.9173(4)
Cl6_23 Cl 0.43906(12) 0.63732(11) 0.93138(15)
C11_23 C 0.6759(4) 0.6434(4) 0.8247(4)
Cl7_23 Cl 0.68910(11) 0.60246(12) 0.78478(11)
C12_23 C 0.5829(3) 0.8814(3) 0.8493(4)
Cl8_23 Cl 0.56690(10) 0.94046(11) 0.85523(9)
C1_47 C 0.7410(6) 0.0000 0.6043(7)
H1_47 H 0.7234 -0.0000 0.5761
N5_24 N 0.7557(3) 0.0380(5) 0.6279(3)
C9_24 C 0.7785(3) 0.0243(4) 0.6642(4)
Cl5_24 Cl 0.80436(10) 0.06062(11) 0.70459(10)
Zn1_24 Zn 0.74793(6) 0.89567(6) 0.60449(6)
C1_48 C 0.7410(6) 1.0000 0.6043(7)
H1_48 H 0.7234 1.0000 0.5761
N1_24 N 0.7557(3) 0.9620(5) 0.6279(3)
C2_24 C 0.7785(3) 0.9757(4) 0.6642(4)
Cl1_24 Cl 0.80436(10) 0.93938(11) 0.70459(10)
C3_24 C 0.7452(7) 0.8935(5) 0.5000
H2_24 H 0.7768 0.8829 0.5000
N2_24 N 0.7231(4) 0.9009(3) 0.5397(3)
C4_24 C 0.6792(4) 0.9173(4) 0.5224(4)
Cl2_24 Cl 0.63732(11) 0.93138(15) 0.56094(12)
C5_24 C 0.6824(4) 0.8858(7) 0.6824(4)
H3_24 H 0.6935 0.9151 0.6935
N3_24 N 0.7028(4) 0.8651(4) 0.6461(3)
C6_24 C 0.6759(4) 0.8247(4) 0.6434(4)
Cl3_24 Cl 0.68910(11) 0.78478(11) 0.60246(12)
C7_24 C 0.8219(8) 0.8219(8) 0.6051(6)
H4_24 H 0.7993 0.7993 0.6144
N4_24 N 0.8077(4) 0.8639(4) 0.5993(3)
C8_24 C 0.8493(4) 0.8814(3) 0.5829(3)
Cl4_24 Cl 0.85523(9) 0.94046(11) 0.56690(10)
C10_24 C 0.6792(4) 0.9173(4) 0.4776(4)
Cl6_24 Cl 0.63732(11) 0.93138(15) 0.43906(12)
C11_24 C 0.6434(4) 0.8247(4) 0.6759(4)
Cl7_24 Cl 0.60246(12) 0.78478(11) 0.68910(11)
C12_24 C 0.8814(3) 0.8493(4) 0.5829(3)
Cl8_24 Cl 0.94046(11) 0.85523(9) 0.56690(10)
loop_
_geom_bond_atom_site_label_1
_geom_bond_atom_site_label_2
_geom_bond_site_symmetry_1
_geom_bond_site_symmetry_2
Zn1 N1 1_555 1_555
C1 H1 1_555 1_555
N1 C1 1_555 1_555
C2 N1 1_555 1_555
Cl1 C2 1_555 1_555
C3 H2 1_555 1_555
N2 Zn1 1_555 1_555
C4 N2 1_555 1_555
Cl2 C4 1_555 1_555
C5 H3 1_555 1_555
N3 Zn1 1_555 1_555
C6 N3 1_555 1_555
Cl3 C6 1_555 1_555
C7 H4 1_555 1_555
N4 Zn1 1_555 1_555
C8 N4 1_555 1_555
Cl4 C8 1_555 1_555
Zn3 N6 1_555 1_555
Zn4 N8 1_555 1_555
Zn5 N10 1_555 1_555
N6 C3 1_555 1_555
C10 C4 1_555 1_555
Cl6 C10 1_555 1_555
N8 C5 1_555 1_555
C11 C6 1_555 1_555
Cl7 C11 1_555 1_555
N10 C7 1_555 1_555
C12 C8 1_555 1_555
Cl8 C12 1_555 1_555
C3 N2 1_555 1_555
C5 N3 1_555 1_555
C7 N4 1_555 1_555
N6 C10 1_555 1_555
N8 C11 1_555 1_555
N10 C12 1_555 1_555
C1_2 H1_2 1_555 1_555
Zn2 N5 1_555 1_555
N5 C1_2 1_555 1_555
Cl5 C9 1_555 1_555
N7 Zn2 1_555 1_555
N9 Zn2 1_555 1_555
N11 Zn2 1_555 1_555
N5 C9 1_555 1_555
Zn1_2 N1_2 1_555 1_555
C1_3 H1_3 1_555 1_555
N1_2 C1_3 1_555 1_555
C2_2 N1_2 1_555 1_555
Cl1_2 C2_2 1_555 1_555
C3_2 H2_2 1_555 1_555
N2_2 Zn1_2 1_555 1_555
C4_2 N2_2 1_555 1_555
Cl2_2 C4_2 1_555 1_555
C5_2 H3_2 1_555 1_555
N3_2 Zn1_2 1_555 1_555
C6_2 N3_2 1_555 1_555
Cl3_2 C6_2 1_555 1_555
C7_2 H4_2 1_555 1_555
N4_2 Zn1_2 1_555 1_555
C8_2 N4_2 1_555 1_555
Cl4_2 C8_2 1_555 1_555
Zn3_2 N6_2 1_555 1_555
Zn5 N8_2 1_555 1_555
Zn5_2 N10_2 1_555 1_555
N6_2 C3_2 1_555 1_555
C10_2 C4_2 1_555 1_555
Cl6_2 C10_2 1_555 1_555
N8_2 C5_2 1_555 1_555
C11_2 C6_2 1_555 1_555
Cl7_2 C11_2 1_555 1_555
N10_2 C7_2 1_555 1_555
C12_2 C8_2 1_555 1_555
Cl8_2 C12_2 1_555 1_555
C3_2 N2_2 1_555 1_555
C5_2 N3_2 1_555 1_555
C7_2 N4_2 1_555 1_555
N6_2 C10_2 1_555 1_555
N8_2 C11_2 1_555 1_555
N10_2 C12_2 1_555 1_555
C1_4 H1_4 1_555 1_555
Zn2_2 N5_2 1_555 1_555
N5_2 C1_4 1_555 1_555
Cl5_2 C9_2 1_555 1_555
N7_2 Zn2_2 1_555 1_555
N9_2 Zn2_2 1_555 1_555
N11_2 Zn2_2 1_555 1_555
N5_2 C9_2 1_555 1_555
Zn1_3 N1_3 1_555 1_555
C1_5 H1_5 1_555 1_555
N1_3 C1_5 1_555 1_555
C2_3 N1_3 1_555 1_555
Cl1_3 C2_3 1_555 1_555
C3_3 H2_3 1_555 1_555
N2_3 Zn1_3 1_555 1_555
C4_3 N2_3 1_555 1_555
Cl2_3 C4_3 1_555 1_555
C5_3 H3_3 1_555 1_555
N3_3 Zn1_3 1_555 1_555
C6_3 N3_3 1_555 1_555
Cl3_3 C6_3 1_555 1_555
C7_3 H4_3 1_555 1_555
N4_3 Zn1_3 1_555 1_555
C8_3 N4_3 1_555 1_555
Cl4_3 C8_3 1_555 1_555
Zn3_3 N6_3 1_555 1_555
Zn5_2 N8_3 1_555 1_555
Zn4 N10_3 1_555 1_555
N6_3 C3_3 1_555 1_555
C10_3 C4_3 1_555 1_555
Cl6_3 C10_3 1_555 1_555
N8_3 C5_3 1_555 1_555
C11_3 C6_3 1_555 1_555
Cl7_3 C11_3 1_555 1_555
N10_3 C7_3 1_555 1_555
C12_3 C8_3 1_555 1_555
Cl8_3 C12_3 1_555 1_555
C3_3 N2_3 1_555 1_555
C5_3 N3_3 1_555 1_555
C7_3 N4_3 1_555 1_555
N6_3 C10_3 1_555 1_555
N8_3 C11_3 1_555 1_555
N10_3 C12_3 1_555 1_555
C1_6 H1_6 1_555 1_555
Zn2_3 N5_3 1_555 1_555
N5_3 C1_6 1_555 1_555
Cl5_3 C9_3 1_555 1_555
N7_3 Zn2_3 1_555 1_555
N9_3 Zn2_3 1_555 1_555
N11_3 Zn2_3 1_555 1_555
N5_3 C9_3 1_555 1_555
Zn1_4 N1_4 1_555 1_555
C1_7 H1_7 1_555 1_555
N1_4 C1_7 1_555 1_555
C2_4 N1_4 1_555 1_555
Cl1_4 C2_4 1_555 1_555
C3_4 H2_4 1_555 1_555
N2_4 Zn1_4 1_555 1_555
C4_4 N2_4 1_555 1_555
Cl2_4 C4_4 1_555 1_555
C5_4 H3_4 1_555 1_555
N3_4 Zn1_4 1_555 1_555
C6_4 N3_4 1_555 1_555
Cl3_4 C6_4 1_555 1_555
C7_4 H4_4 1_555 1_555
N4_4 Zn1_4 1_555 1_555
C8_4 N4_4 1_555 1_555
Cl4_4 C8_4 1_555 1_555
Zn3_4 N6_4 1_555 1_555
Zn3_3 N8_4 1_555 1_555
N6_4 C3_4 1_555 1_555
C10_4 C4_4 1_555 1_555
Cl6_4 C10_4 1_555 1_555
N8_4 C5_4 1_555 1_555
C11_4 C6_4 1_555 1_555
Cl7_4 C11_4 1_555 1_555
N11_2 C7_4 1_555 1_555
C12_4 C8_4 1_555 1_555
Cl8_4 C12_4 1_555 1_555
C3_4 N2_4 1_555 1_555
C5_4 N3_4 1_555 1_555
C7_4 N4_4 1_555 1_555
N6_4 C10_4 1_555 1_555
N8_4 C11_4 1_555 1_555
N11_2 C12_4 1_555 1_555
C1_8 H1_8 1_555 1_555
Zn2_4 N5_4 1_555 1_555
N5_4 C1_8 1_555 1_555
Cl5_4 C9_4 1_555 1_555
N7_4 Zn2_4 1_555 1_555
N9_4 Zn2_4 1_555 1_555
N11_4 Zn2_4 1_555 1_555
N5_4 C9_4 1_555 1_555
Zn1_5 N1_5 1_555 1_555
C1_9 H1_9 1_555 1_555
N1_5 C1_9 1_555 1_555
C2_5 N1_5 1_555 1_555
Cl1_5 C2_5 1_555 1_555
C3_5 H2_5 1_555 1_555
N2_5 Zn1_5 1_555 1_555
C4_5 N2_5 1_555 1_555
Cl2_5 C4_5 1_555 1_555
C5_5 H3_5 1_555 1_555
N3_5 Zn1_5 1_555 1_555
C6_5 N3_5 1_555 1_555
Cl3_5 C6_5 1_555 1_555
C7_5 H4_5 1_555 1_555
N4_5 Zn1_5 1_555 1_555
C8_5 N4_5 1_555 1_555
Cl4_5 C8_5 1_555 1_555
Zn5_2 N6_5 1_555 1_555
Zn4_2 N8_5 1_555 1_555
Zn3_2 N10_4 1_555 1_555
N6_5 C3_5 1_555 1_555
C10_5 C4_5 1_555 1_555
Cl6_5 C10_5 1_555 1_555
N8_5 C5_5 1_555 1_555
C11_5 C6_5 1_555 1_555
Cl7_5 C11_5 1_555 1_555
N10_4 C7_5 1_555 1_555
C12_5 C8_5 1_555 1_555
Cl8_5 C12_5 1_555 1_555
C3_5 N2_5 1_555 1_555
C5_5 N3_5 1_555 1_555
C7_5 N4_5 1_555 1_555
N6_5 C10_5 1_555 1_555
N8_5 C11_5 1_555 1_555
N10_4 C12_5 1_555 1_555
C1_10 H1_10 1_555 1_555
Zn2_5 N5_5 1_555 1_555
N5_5 C1_10 1_555 1_555
Cl5_5 C9_5 1_555 1_555
N7_5 Zn2_5 1_555 1_555
N9_5 Zn2_5 1_555 1_555
N11_5 Zn2_5 1_555 1_555
N5_5 C9_5 1_555 1_555
C1_11 H1_11 1_555 1_555
Zn5_2 N5_6 1_555 1_555
N5_6 C1_11 1_555 1_555
Cl5_6 C9_6 1_555 1_555
N5_6 C9_6 1_555 1_555
Zn1_6 N1_6 1_555 1_555
C1_12 H1_12 1_555 1_555
N1_6 C1_12 1_555 1_555
C2_6 N1_6 1_555 1_555
Cl1_6 C2_6 1_555 1_555
C3_6 H2_6 1_555 1_555
N2_6 Zn1_6 1_555 1_555
C4_6 N2_6 1_555 1_555
Cl2_6 C4_6 1_555 1_555
C5_6 H3_6 1_555 1_555
N3_6 Zn1_6 1_555 1_555
C6_6 N3_6 1_555 1_555
Cl3_6 C6_6 1_555 1_555
C7_6 H4_6 1_555 1_555
N4_6 Zn1_6 1_555 1_555
C8_6 N4_6 1_555 1_555
Cl4_6 C8_6 1_555 1_555
Zn5_3 N10_5 1_555 1_555
N7_5 C3_6 1_555 1_555
C10_6 C4_6 1_555 1_555
Cl6_6 C10_6 1_555 1_555
N9_3 C5_6 1_555 1_555
C11_6 C6_6 1_555 1_555
Cl7_6 C11_6 1_555 1_555
N10_5 C7_6 1_555 1_555
C12_6 C8_6 1_555 1_555
Cl8_6 C12_6 1_555 1_555
C3_6 N2_6 1_555 1_555
C5_6 N3_6 1_555 1_555
C7_6 N4_6 1_555 1_555
N7_5 C10_6 1_555 1_555
N9_3 C11_6 1_555 1_555
N10_5 C12_6 1_555 1_555
C1_13 H1_13 1_555 1_555
Zn5 N5_7 1_555 1_555
N5_7 C1_13 1_555 1_555
Cl5_7 C9_7 1_555 1_555
N7_6 Zn5 1_555 1_555
N5_7 C9_7 1_555 1_555
Zn1_7 N1_7 1_555 1_555
C1_14 H1_14 1_555 1_555
N1_7 C1_14 1_555 1_555
C2_7 N1_7 1_555 1_555
Cl1_7 C2_7 1_555 1_555
C3_7 H2_7 1_555 1_555
N2_7 Zn1_7 1_555 1_555
C4_7 N2_7 1_555 1_555
Cl2_7 C4_7 1_555 1_555
C5_7 H3_7 1_555 1_555
N3_7 Zn1_7 1_555 1_555
C6_7 N3_7 1_555 1_555
Cl3_7 C6_7 1_555 1_555
C7_7 H4_7 1_555 1_555
N4_7 Zn1_7 1_555 1_555
C8_7 N4_7 1_555 1_555
Cl4_7 C8_7 1_555 1_555
Zn3_5 N6_6 1_555 1_555
Zn5_4 N10_6 1_555 1_555
N6_6 C3_7 1_555 1_555
C10_7 C4_7 1_555 1_555
Cl6_7 C10_7 1_555 1_555
N9_2 C5_7 1_555 1_555
C11_7 C6_7 1_555 1_555
Cl7_7 C11_7 1_555 1_555
N10_6 C7_7 1_555 1_555
C12_7 C8_7 1_555 1_555
Cl8_7 C12_7 1_555 1_555
C3_7 N2_7 1_555 1_555
C5_7 N3_7 1_555 1_555
C7_7 N4_7 1_555 1_555
N6_6 C10_7 1_555 1_555
N9_2 C11_7 1_555 1_555
N10_6 C12_7 1_555 1_555
Zn1_8 N1_8 1_555 1_555
C1_15 H1_15 1_555 1_555
N1_8 C1_15 1_555 1_555
C2_8 N1_8 1_555 1_555
Cl1_8 C2_8 1_555 1_555
C3_8 H2_8 1_555 1_555
N2_8 Zn1_8 1_555 1_555
C4_8 N2_8 1_555 1_555
Cl2_8 C4_8 1_555 1_555
C5_8 H3_8 1_555 1_555
N3_8 Zn1_8 1_555 1_555
C6_8 N3_8 1_555 1_555
Cl3_8 C6_8 1_555 1_555
C7_8 H4_8 1_555 1_555
N4_8 Zn1_8 1_555 1_555
C8_8 N4_8 1_555 1_555
Cl4_8 C8_8 1_555 1_555
Zn5_3 N8_6 1_555 1_555
Zn3 N10_7 1_555 1_555
N7_6 C3_8 1_555 1_555
C10_8 C4_8 1_555 1_555
Cl6_8 C10_8 1_555 1_555
N8_6 C5_8 1_555 1_555
C11_8 C6_8 1_555 1_555
Cl7_8 C11_8 1_555 1_555
N10_7 C7_8 1_555 1_555
C12_8 C8_8 1_555 1_555
Cl8_8 C12_8 1_555 1_555
C3_8 N2_8 1_555 1_555
C5_8 N3_8 1_555 1_555
C7_8 N4_8 1_555 1_555
N7_6 C10_8 1_555 1_555
N8_6 C11_8 1_555 1_555
N10_7 C12_8 1_555 1_555
C1_16 H1_16 1_555 1_555
Zn3_5 N5_8 1_555 1_555
N5_8 C1_16 1_555 1_555
Cl5_8 C9_8 1_555 1_555
N9_6 Zn3_5 1_555 1_555
N11_6 Zn3_5 1_555 1_555
N5_8 C9_8 1_555 1_555
Zn1_9 N1_9 1_555 1_555
C1_17 H1_17 1_555 1_555
N1_9 C1_17 1_555 1_555
C2_9 N1_9 1_555 1_555
Cl1_9 C2_9 1_555 1_555
C3_9 H2_9 1_555 1_555
N2_9 Zn1_9 1_555 1_555
C4_9 N2_9 1_555 1_555
Cl2_9 C4_9 1_555 1_555
C5_9 H3_9 1_555 1_555
N3_9 Zn1_9 1_555 1_555
C6_9 N3_9 1_555 1_555
Cl3_9 C6_9 1_555 1_555
C7_9 H4_9 1_555 1_555
N4_9 Zn1_9 1_555 1_555
C8_9 N4_9 1_555 1_555
Cl4_9 C8_9 1_555 1_555
Zn3_6 N6_7 1_555 1_555
Zn3_2 N8_7 1_555 1_555
N6_7 C3_9 1_555 1_555
C10_9 C4_9 1_555 1_555
Cl6_9 C10_9 1_555 1_555
N8_7 C5_9 1_555 1_555
C11_9 C6_9 1_555 1_555
Cl7_9 C11_9 1_555 1_555
N11 C7_9 1_555 1_555
C12_9 C8_9 1_555 1_555
Cl8_9 C12_9 1_555 1_555
C3_9 N2_9 1_555 1_555
C5_9 N3_9 1_555 1_555
C7_9 N4_9 1_555 1_555
N6_7 C10_9 1_555 1_555
N8_7 C11_9 1_555 1_555
N11 C12_9 1_555 1_555
C1_18 H1_18 1_555 1_555
Zn2_6 N5_9 1_555 1_555
N5_9 C1_18 1_555 1_555
Cl5_9 C9_9 1_555 1_555
N7_7 Zn2_6 1_555 1_555
N9_7 Zn2_6 1_555 1_555
N11_7 Zn2_6 1_555 1_555
N5_9 C9_9 1_555 1_555
Zn1_10 N1_10 1_555 1_555
C1_19 H1_19 1_555 1_555
N1_10 C1_19 1_555 1_555
C2_10 N1_10 1_555 1_555
Cl1_10 C2_10 1_555 1_555
C3_10 H2_10 1_555 1_555
N2_10 Zn1_10 1_555 1_555
C4_10 N2_10 1_555 1_555
Cl2_10 C4_10 1_555 1_555
C5_10 H3_10 1_555 1_555
N3_10 Zn1_10 1_555 1_555
C6_10 N3_10 1_555 1_555
Cl3_10 C6_10 1_555 1_555
C7_10 H4_10 1_555 1_555
N4_10 Zn1_10 1_555 1_555
C8_10 N4_10 1_555 1_555
Cl4_10 C8_10 1_555 1_555
Zn4 N6_8 1_555 1_555
Zn5_4 N8_8 1_555 1_555
Zn3_3 N10_8 1_555 1_555
N6_8 C3_10 1_555 1_555
C10_10 C4_10 1_555 1_555
Cl6_10 C10_10 1_555 1_555
N8_8 C5_10 1_555 1_555
C11_10 C6_10 1_555 1_555
Cl7_10 C11_10 1_555 1_555
N10_8 C7_10 1_555 1_555
C12_10 C8_10 1_555 1_555
Cl8_10 C12_10 1_555 1_555
C3_10 N2_10 1_555 1_555
C5_10 N3_10 1_555 1_555
C7_10 N4_10 1_555 1_555
N6_8 C10_10 1_555 1_555
N8_8 C11_10 1_555 1_555
N10_8 C12_10 1_555 1_555
C1_20 H1_20 1_555 1_555
Zn2_7 N5_10 1_555 1_555
N5_10 C1_20 1_555 1_555
Cl5_10 C9_10 1_555 1_555
N7_8 Zn2_7 1_555 1_555
N9_8 Zn2_7 1_555 1_555
N11_8 Zn2_7 1_555 1_555
N5_10 C9_10 1_555 1_555
C1_21 H1_21 1_555 1_555
Zn4 N5_11 1_555 1_555
N5_11 C1_21 1_555 1_555
Cl5_11 C9_11 1_555 1_555
N5_11 C9_11 1_555 1_555
Zn1_11 N1_11 1_555 1_555
C1_22 H1_22 1_555 1_555
N1_11 C1_22 1_555 1_555
C2_11 N1_11 1_555 1_555
Cl1_11 C2_11 1_555 1_555
C3_11 H2_11 1_555 1_555
N2_11 Zn1_11 1_555 1_555
C4_11 N2_11 1_555 1_555
Cl2_11 C4_11 1_555 1_555
C5_11 H3_11 1_555 1_555
N3_11 Zn1_11 1_555 1_555
C6_11 N3_11 1_555 1_555
Cl3_11 C6_11 1_555 1_555
C7_11 H4_11 1_555 1_555
N4_11 Zn1_11 1_555 1_555
C8_11 N4_11 1_555 1_555
Cl4_11 C8_11 1_555 1_555
Zn4_2 N10_9 1_555 1_555
N7_8 C3_11 1_555 1_555
C10_11 C4_11 1_555 1_555
Cl6_11 C10_11 1_555 1_555
N9 C5_11 1_555 1_555
C11_11 C6_11 1_555 1_555
Cl7_11 C11_11 1_555 1_555
N10_9 C7_11 1_555 1_555
C12_11 C8_11 1_555 1_555
Cl8_11 C12_11 1_555 1_555
C3_11 N2_11 1_555 1_555
C5_11 N3_11 1_555 1_555
C7_11 N4_11 1_555 1_555
N7_8 C10_11 1_555 1_555
N9 C11_11 1_555 1_555
N10_9 C12_11 1_555 1_555
Zn1_12 N1_12 1_555 1_555
C1_23 H1_23 1_555 1_555
N1_12 C1_23 1_555 1_555
C2_12 N1_12 1_555 1_555
Cl1_12 C2_12 1_555 1_555
C3_12 H2_12 1_555 1_555
N2_12 Zn1_12 1_555 1_555
C4_12 N2_12 1_555 1_555
Cl2_12 C4_12 1_555 1_555
C5_12 H3_12 1_555 1_555
N3_12 Zn1_12 1_555 1_555
C6_12 N3_12 1_555 1_555
Cl3_12 C6_12 1_555 1_555
C7_12 H4_12 1_555 1_555
N4_12 Zn1_12 1_555 1_555
C8_12 N4_12 1_555 1_555
Cl4_12 C8_12 1_555 1_555
Zn3_7 N6_9 1_555 1_555
Zn3 N8_9 1_555 1_555
N6_9 C3_12 1_555 1_555
C10_12 C4_12 1_555 1_555
Cl6_12 C10_12 1_555 1_555
N8_9 C5_12 1_555 1_555
C11_12 C6_12 1_555 1_555
Cl7_12 C11_12 1_555 1_555
N11_3 C7_12 1_555 1_555
C12_12 C8_12 1_555 1_555
Cl8_12 C12_12 1_555 1_555
C3_12 N2_12 1_555 1_555
C5_12 N3_12 1_555 1_555
C7_12 N4_12 1_555 1_555
N6_9 C10_12 1_555 1_555
N8_9 C11_12 1_555 1_555
N11_3 C12_12 1_555 1_555
C1_24 H1_24 1_555 1_555
Zn2_8 N5_12 1_555 1_555
N5_12 C1_24 1_555 1_555
Cl5_12 C9_12 1_555 1_555
N7_9 Zn2_8 1_555 1_555
N9_9 Zn2_8 1_555 1_555
N11_9 Zn2_8 1_555 1_555
N5_12 C9_12 1_555 1_555
C1_25 H1_25 1_555 1_555
Zn3 N5_13 1_555 1_555
N5_13 C1_25 1_555 1_555
Cl5_13 C9_13 1_555 1_555
N5_13 C9_13 1_555 1_555
Zn1_13 N1_13 1_555 1_555
C1_26 H1_26 1_555 1_555
N1_13 C1_26 1_555 1_555
C2_13 N1_13 1_555 1_555
Cl1_13 C2_13 1_555 1_555
C3_13 H2_13 1_555 1_555
N2_13 Zn1_13 1_555 1_555
C4_13 N2_13 1_555 1_555
Cl2_13 C4_13 1_555 1_555
C5_13 H3_13 1_555 1_555
N3_13 Zn1_13 1_555 1_555
C6_13 N3_13 1_555 1_555
Cl3_13 C6_13 1_555 1_555
C7_13 H4_13 1_555 1_555
N4_13 Zn1_13 1_555 1_555
C8_13 N4_13 1_555 1_555
Cl4_13 C8_13 1_555 1_555
Zn3_6 N10_10 1_555 1_555
N7 C3_13 1_555 1_555
C10_13 C4_13 1_555 1_555
Cl6_13 C10_13 1_555 1_555
N9_9 C5_13 1_555 1_555
C11_13 C6_13 1_555 1_555
Cl7_13 C11_13 1_555 1_555
N10_10 C7_13 1_555 1_555
C12_13 C8_13 1_555 1_555
Cl8_13 C12_13 1_555 1_555
C3_13 N2_13 1_555 1_555
C5_13 N3_13 1_555 1_555
C7_13 N4_13 1_555 1_555
N7 C10_13 1_555 1_555
N9_9 C11_13 1_555 1_555
N10_10 C12_13 1_555 1_555
Zn1_14 N1_14 1_555 1_555
C1_27 H1_27 1_555 1_555
N1_14 C1_27 1_555 1_555
C2_14 N1_14 1_555 1_555
Cl1_14 C2_14 1_555 1_555
C3_14 H2_14 1_555 1_555
N2_14 Zn1_14 1_555 1_555
C4_14 N2_14 1_555 1_555
Cl2_14 C4_14 1_555 1_555
C5_14 H3_14 1_555 1_555
N3_14 Zn1_14 1_555 1_555
C6_14 N3_14 1_555 1_555
Cl3_14 C6_14 1_555 1_555
C7_14 H4_14 1_555 1_555
N4_14 Zn1_14 1_555 1_555
C8_14 N4_14 1_555 1_555
Cl4_14 C8_14 1_555 1_555
Zn5_4 N6_10 1_555 1_555
Zn3_7 N8_10 1_555 1_555
N6_10 C3_14 1_555 1_555
C10_14 C4_14 1_555 1_555
Cl6_14 C10_14 1_555 1_555
N8_10 C5_14 1_555 1_555
C11_14 C6_14 1_555 1_555
Cl7_14 C11_14 1_555 1_555
N11_6 C7_14 1_555 1_555
C12_14 C8_14 1_555 1_555
Cl8_14 C12_14 1_555 1_555
C3_14 N2_14 1_555 1_555
C5_14 N3_14 1_555 1_555
C7_14 N4_14 1_555 1_555
N6_10 C10_14 1_555 1_555
N8_10 C11_14 1_555 1_555
N11_6 C12_14 1_555 1_555
C1_28 H1_28 1_555 1_555
Zn2_9 N5_14 1_555 1_555
N5_14 C1_28 1_555 1_555
Cl5_14 C9_14 1_555 1_555
N7_10 Zn2_9 1_555 1_555
N9_10 Zn2_9 1_555 1_555
N11_10 Zn2_9 1_555 1_555
N5_14 C9_14 1_555 1_555
C1_29 H1_29 1_555 1_555
Zn5_4 N5_15 1_555 1_555
N5_15 C1_29 1_555 1_555
Cl5_15 C9_15 1_555 1_555
N5_15 C9_15 1_555 1_555
Zn1_15 N1_15 1_555 1_555
C1_30 H1_30 1_555 1_555
N1_15 C1_30 1_555 1_555
C2_15 N1_15 1_555 1_555
Cl1_15 C2_15 1_555 1_555
C3_15 H2_15 1_555 1_555
N2_15 Zn1_15 1_555 1_555
C4_15 N2_15 1_555 1_555
Cl2_15 C4_15 1_555 1_555
C5_15 H3_15 1_555 1_555
N3_15 Zn1_15 1_555 1_555
C6_15 N3_15 1_555 1_555
Cl3_15 C6_15 1_555 1_555
C7_15 H4_15 1_555 1_555
N4_15 Zn1_15 1_555 1_555
C8_15 N4_15 1_555 1_555
Cl4_15 C8_15 1_555 1_555
N7_10 C3_15 1_555 1_555
C10_15 C4_15 1_555 1_555
Cl6_15 C10_15 1_555 1_555
N9_8 C5_15 1_555 1_555
C11_15 C6_15 1_555 1_555
Cl7_15 C11_15 1_555 1_555
N11_7 C7_15 1_555 1_555
C12_15 C8_15 1_555 1_555
Cl8_15 C12_15 1_555 1_555
C3_15 N2_15 1_555 1_555
C5_15 N3_15 1_555 1_555
C7_15 N4_15 1_555 1_555
N7_10 C10_15 1_555 1_555
N9_8 C11_15 1_555 1_555
N11_7 C12_15 1_555 1_555
C1_31 H1_31 1_555 1_555
Zn3_2 N5_16 1_555 1_555
N5_16 C1_31 1_555 1_555
Cl5_16 C9_16 1_555 1_555
N5_16 C9_16 1_555 1_555
Zn1_16 N1_16 1_555 1_555
C1_32 H1_32 1_555 1_555
N1_16 C1_32 1_555 1_555
C2_16 N1_16 1_555 1_555
Cl1_16 C2_16 1_555 1_555
C3_16 H2_16 1_555 1_555
N2_16 Zn1_16 1_555 1_555
C4_16 N2_16 1_555 1_555
Cl2_16 C4_16 1_555 1_555
C5_16 H3_16 1_555 1_555
N3_16 Zn1_16 1_555 1_555
C6_16 N3_16 1_555 1_555
Cl3_16 C6_16 1_555 1_555
C7_16 H4_16 1_555 1_555
N4_16 Zn1_16 1_555 1_555
C8_16 N4_16 1_555 1_555
Cl4_16 C8_16 1_555 1_555
Zn3_4 N10_11 1_555 1_555
N7_2 C3_16 1_555 1_555
C10_16 C4_16 1_555 1_555
Cl6_16 C10_16 1_555 1_555
N9_7 C5_16 1_555 1_555
C11_16 C6_16 1_555 1_555
Cl7_16 C11_16 1_555 1_555
N10_11 C7_16 1_555 1_555
C12_16 C8_16 1_555 1_555
Cl8_16 C12_16 1_555 1_555
C3_16 N2_16 1_555 1_555
C5_16 N3_16 1_555 1_555
C7_16 N4_16 1_555 1_555
N7_2 C10_16 1_555 1_555
N9_7 C11_16 1_555 1_555
N10_11 C12_16 1_555 1_555
Zn1_17 N1_17 1_555 1_555
C1_33 H1_33 1_555 1_555
N1_17 C1_33 1_555 1_555
C2_17 N1_17 1_555 1_555
Cl1_17 C2_17 1_555 1_555
C3_17 H2_17 1_555 1_555
N2_17 Zn1_17 1_555 1_555
C4_17 N2_17 1_555 1_555
Cl2_17 C4_17 1_555 1_555
C5_17 H3_17 1_555 1_555
N3_17 Zn1_17 1_555 1_555
C6_17 N3_17 1_555 1_555
Cl3_17 C6_17 1_555 1_555
C7_17 H4_17 1_555 1_555
N4_17 Zn1_17 1_555 1_555
C8_17 N4_17 1_555 1_555
Cl4_17 C8_17 1_555 1_555
Zn5_3 N6_11 1_555 1_555
Zn3_6 N8_11 1_555 1_555
N6_11 C3_17 1_555 1_555
C10_17 C4_17 1_555 1_555
Cl6_17 C10_17 1_555 1_555
N8_11 C5_17 1_555 1_555
C11_17 C6_17 1_555 1_555
Cl7_17 C11_17 1_555 1_555
N11_5 C7_17 1_555 1_555
C12_17 C8_17 1_555 1_555
Cl8_17 C12_17 1_555 1_555
C3_17 N2_17 1_555 1_555
C5_17 N3_17 1_555 1_555
C7_17 N4_17 1_555 1_555
N6_11 C10_17 1_555 1_555
N8_11 C11_17 1_555 1_555
N11_5 C12_17 1_555 1_555
C1_34 H1_34 1_555 1_555
Zn2_10 N5_17 1_555 1_555
N5_17 C1_34 1_555 1_555
Cl5_17 C9_17 1_555 1_555
N7_11 Zn2_10 1_555 1_555
N9_11 Zn2_10 1_555 1_555
N11_11 Zn2_10 1_555 1_555
N5_17 C9_17 1_555 1_555
C1_35 H1_35 1_555 1_555
Zn5_3 N5_18 1_555 1_555
N5_18 C1_35 1_555 1_555
Cl5_18 C9_18 1_555 1_555
N5_18 C9_18 1_555 1_555
Zn1_18 N1_18 1_555 1_555
C1_36 H1_36 1_555 1_555
N1_18 C1_36 1_555 1_555
C2_18 N1_18 1_555 1_555
Cl1_18 C2_18 1_555 1_555
C3_18 H2_18 1_555 1_555
N2_18 Zn1_18 1_555 1_555
C4_18 N2_18 1_555 1_555
Cl2_18 C4_18 1_555 1_555
C5_18 H3_18 1_555 1_555
N3_18 Zn1_18 1_555 1_555
C6_18 N3_18 1_555 1_555
Cl3_18 C6_18 1_555 1_555
C7_18 H4_18 1_555 1_555
N4_18 Zn1_18 1_555 1_555
C8_18 N4_18 1_555 1_555
Cl4_18 C8_18 1_555 1_555
N7_11 C3_18 1_555 1_555
C10_18 C4_18 1_555 1_555
Cl6_18 C10_18 1_555 1_555
N9_6 C5_18 1_555 1_555
C11_18 C6_18 1_555 1_555
Cl7_18 C11_18 1_555 1_555
N11_4 C7_18 1_555 1_555
C12_18 C8_18 1_555 1_555
Cl8_18 C12_18 1_555 1_555
C3_18 N2_18 1_555 1_555
C5_18 N3_18 1_555 1_555
C7_18 N4_18 1_555 1_555
N7_11 C10_18 1_555 1_555
N9_6 C11_18 1_555 1_555
N11_4 C12_18 1_555 1_555
C1_37 H1_37 1_555 1_555
Zn3_3 N5_19 1_555 1_555
N5_19 C1_37 1_555 1_555
Cl5_19 C9_19 1_555 1_555
N5_19 C9_19 1_555 1_555
Zn1_19 N1_19 1_555 1_555
C1_38 H1_38 1_555 1_555
N1_19 C1_38 1_555 1_555
C2_19 N1_19 1_555 1_555
Cl1_19 C2_19 1_555 1_555
C3_19 H2_19 1_555 1_555
N2_19 Zn1_19 1_555 1_555
C4_19 N2_19 1_555 1_555
Cl2_19 C4_19 1_555 1_555
C5_19 H3_19 1_555 1_555
N3_19 Zn1_19 1_555 1_555
C6_19 N3_19 1_555 1_555
Cl3_19 C6_19 1_555 1_555
C7_19 H4_19 1_555 1_555
N4_19 Zn1_19 1_555 1_555
C8_19 N4_19 1_555 1_555
Cl4_19 C8_19 1_555 1_555
Zn3_7 N10_12 1_555 1_555
N7_3 C3_19 1_555 1_555
C10_19 C4_19 1_555 1_555
Cl6_19 C10_19 1_555 1_555
N9_4 C5_19 1_555 1_555
C11_19 C6_19 1_555 1_555
Cl7_19 C11_19 1_555 1_555
N10_12 C7_19 1_555 1_555
C12_19 C8_19 1_555 1_555
Cl8_19 C12_19 1_555 1_555
C3_19 N2_19 1_555 1_555
C5_19 N3_19 1_555 1_555
C7_19 N4_19 1_555 1_555
N7_3 C10_19 1_555 1_555
N9_4 C11_19 1_555 1_555
N10_12 C12_19 1_555 1_555
Zn1_20 N1_20 1_555 1_555
C1_39 H1_39 1_555 1_555
N1_20 C1_39 1_555 1_555
C2_20 N1_20 1_555 1_555
Cl1_20 C2_20 1_555 1_555
C3_20 H2_20 1_555 1_555
N2_20 Zn1_20 1_555 1_555
C4_20 N2_20 1_555 1_555
Cl2_20 C4_20 1_555 1_555
C5_20 H3_20 1_555 1_555
N3_20 Zn1_20 1_555 1_555
C6_20 N3_20 1_555 1_555
Cl3_20 C6_20 1_555 1_555
C7_20 H4_20 1_555 1_555
N4_20 Zn1_20 1_555 1_555
C8_20 N4_20 1_555 1_555
Cl4_20 C8_20 1_555 1_555
Zn4_2 N6_12 1_555 1_555
Zn3_4 N8_12 1_555 1_555
N6_12 C3_20 1_555 1_555
C10_20 C4_20 1_555 1_555
Cl6_20 C10_20 1_555 1_555
N8_12 C5_20 1_555 1_555
C11_20 C6_20 1_555 1_555
Cl7_20 C11_20 1_555 1_555
N11_8 C7_20 1_555 1_555
C12_20 C8_20 1_555 1_555
Cl8_20 C12_20 1_555 1_555
C3_20 N2_20 1_555 1_555
C5_20 N3_20 1_555 1_555
C7_20 N4_20 1_555 1_555
N6_12 C10_20 1_555 1_555
N8_12 C11_20 1_555 1_555
N11_8 C12_20 1_555 1_555
C1_40 H1_40 1_555 1_555
Zn2_11 N5_20 1_555 1_555
N5_20 C1_40 1_555 1_555
Cl5_20 C9_20 1_555 1_555
N7_12 Zn2_11 1_555 1_555
N9_12 Zn2_11 1_555 1_555
N11_12 Zn2_11 1_555 1_555
N5_20 C9_20 1_555 1_555
C1_41 H1_41 1_555 1_555
Zn4_2 N5_21 1_555 1_555
N5_21 C1_41 1_555 1_555
Cl5_21 C9_21 1_555 1_555
N5_21 C9_21 1_555 1_555
Zn1_21 N1_21 1_555 1_555
C1_42 H1_42 1_555 1_555
N1_21 C1_42 1_555 1_555
C2_21 N1_21 1_555 1_555
Cl1_21 C2_21 1_555 1_555
C3_21 H2_21 1_555 1_555
N2_21 Zn1_21 1_555 1_555
C4_21 N2_21 1_555 1_555
Cl2_21 C4_21 1_555 1_555
C5_21 H3_21 1_555 1_555
N3_21 Zn1_21 1_555 1_555
C6_21 N3_21 1_555 1_555
Cl3_21 C6_21 1_555 1_555
C7_21 H4_21 1_555 1_555
N4_21 Zn1_21 1_555 1_555
C8_21 N4_21 1_555 1_555
Cl4_21 C8_21 1_555 1_555
N7_12 C3_21 1_555 1_555
C10_21 C4_21 1_555 1_555
Cl6_21 C10_21 1_555 1_555
N9_5 C5_21 1_555 1_555
C11_21 C6_21 1_555 1_555
Cl7_21 C11_21 1_555 1_555
N11_9 C7_21 1_555 1_555
C12_21 C8_21 1_555 1_555
Cl8_21 C12_21 1_555 1_555
C3_21 N2_21 1_555 1_555
C5_21 N3_21 1_555 1_555
C7_21 N4_21 1_555 1_555
N7_12 C10_21 1_555 1_555
N9_5 C11_21 1_555 1_555
N11_9 C12_21 1_555 1_555
C1_43 H1_43 1_555 1_555
Zn3_4 N5_22 1_555 1_555
N5_22 C1_43 1_555 1_555
Cl5_22 C9_22 1_555 1_555
N5_22 C9_22 1_555 1_555
Zn1_22 N1_22 1_555 1_555
C1_44 H1_44 1_555 1_555
N1_22 C1_44 1_555 1_555
C2_22 N1_22 1_555 1_555
Cl1_22 C2_22 1_555 1_555
C3_22 H2_22 1_555 1_555
N2_22 Zn1_22 1_555 1_555
C4_22 N2_22 1_555 1_555
Cl2_22 C4_22 1_555 1_555
C5_22 H3_22 1_555 1_555
N3_22 Zn1_22 1_555 1_555
C6_22 N3_22 1_555 1_555
Cl3_22 C6_22 1_555 1_555
C7_22 H4_22 1_555 1_555
N4_22 Zn1_22 1_555 1_555
C8_22 N4_22 1_555 1_555
Cl4_22 C8_22 1_555 1_555
N7_4 C3_22 1_555 1_555
C10_22 C4_22 1_555 1_555
Cl6_22 C10_22 1_555 1_555
N9_12 C5_22 1_555 1_555
C11_22 C6_22 1_555 1_555
Cl7_22 C11_22 1_555 1_555
N11_11 C7_22 1_555 1_555
C12_22 C8_22 1_555 1_555
Cl8_22 C12_22 1_555 1_555
C3_22 N2_22 1_555 1_555
C5_22 N3_22 1_555 1_555
C7_22 N4_22 1_555 1_555
N7_4 C10_22 1_555 1_555
N9_12 C11_22 1_555 1_555
N11_11 C12_22 1_555 1_555
C1_45 H1_45 1_555 1_555
Zn3_6 N5_23 1_555 1_555
N5_23 C1_45 1_555 1_555
Cl5_23 C9_23 1_555 1_555
N5_23 C9_23 1_555 1_555
Zn1_23 N1_23 1_555 1_555
C1_46 H1_46 1_555 1_555
N1_23 C1_46 1_555 1_555
C2_23 N1_23 1_555 1_555
Cl1_23 C2_23 1_555 1_555
C3_23 H2_23 1_555 1_555
N2_23 Zn1_23 1_555 1_555
C4_23 N2_23 1_555 1_555
Cl2_23 C4_23 1_555 1_555
C5_23 H3_23 1_555 1_555
N3_23 Zn1_23 1_555 1_555
C6_23 N3_23 1_555 1_555
Cl3_23 C6_23 1_555 1_555
C7_23 H4_23 1_555 1_555
N4_23 Zn1_23 1_555 1_555
C8_23 N4_23 1_555 1_555
Cl4_23 C8_23 1_555 1_555
N7_7 C3_23 1_555 1_555
C10_23 C4_23 1_555 1_555
Cl6_23 C10_23 1_555 1_555
N9_11 C5_23 1_555 1_555
C11_23 C6_23 1_555 1_555
Cl7_23 C11_23 1_555 1_555
N11_10 C7_23 1_555 1_555
C12_23 C8_23 1_555 1_555
Cl8_23 C12_23 1_555 1_555
C3_23 N2_23 1_555 1_555
C5_23 N3_23 1_555 1_555
C7_23 N4_23 1_555 1_555
N7_7 C10_23 1_555 1_555
N9_11 C11_23 1_555 1_555
N11_10 C12_23 1_555 1_555
C1_47 H1_47 1_555 1_555
Zn3_7 N5_24 1_555 1_555
N5_24 C1_47 1_555 1_555
Cl5_24 C9_24 1_555 1_555
N5_24 C9_24 1_555 1_555
Zn1_24 N1_24 1_555 1_555
C1_48 H1_48 1_555 1_555
N1_24 C1_48 1_555 1_555
C2_24 N1_24 1_555 1_555
Cl1_24 C2_24 1_555 1_555
C3_24 H2_24 1_555 1_555
N2_24 Zn1_24 1_555 1_555
C4_24 N2_24 1_555 1_555
Cl2_24 C4_24 1_555 1_555
C5_24 H3_24 1_555 1_555
N3_24 Zn1_24 1_555 1_555
C6_24 N3_24 1_555 1_555
Cl3_24 C6_24 1_555 1_555
C7_24 H4_24 1_555 1_555
N4_24 Zn1_24 1_555 1_555
C8_24 N4_24 1_555 1_555
Cl4_24 C8_24 1_555 1_555
N7_9 C3_24 1_555 1_555
C10_24 C4_24 1_555 1_555
Cl6_24 C10_24 1_555 1_555
N9_10 C5_24 1_555 1_555
C11_24 C6_24 1_555 1_555
Cl7_24 C11_24 1_555 1_555
N11_12 C7_24 1_555 1_555
C12_24 C8_24 1_555 1_555
Cl8_24 C12_24 1_555 1_555
C3_24 N2_24 1_555 1_555
C5_24 N3_24 1_555 1_555
C7_24 N4_24 1_555 1_555
N7_9 C10_24 1_555 1_555
N9_10 C11_24 1_555 1_555
N11_12 C12_24 1_555 1_555

#END
