
###############################################################################
#
# This file contains modified crystal structure data generated from the
# MOF subset of the Cambridge Structural Database (CSD) v543 
# hosted by the Cambridge Crystallographic Data Centre (CCDC).
#
# This work is licensed under the Creative Commons
# Attribution-NonCommercial-ShareAlike 4.0 International License.
# To view a copy of this license, visit
# http://creativecommons.org/licenses/by-nc-sa/4.0/
# or send a letter to
# Creative Commons, PO Box 1866, Mountain View, CA 94042, USA.
#
# CIF created using the CSD Python API on 29 September 2022
# The structure has been converted into the P1 space group
# The structure has a 3D framework
# The original CSD entry GITVUB is in the tetragonal crystal system
# The framework has been calculated to contain at least 10.0% void space
# The void calculation uses a probe of radius 1.32A, grid spacing 0.4
#
###############################################################################

data_GITVUB
_chemical_formula_moiety         '(C192 H176 N77 O32 Zn16)n'
_symmetry_cell_setting           triclinic
_symmetry_space_group_name_H-M   'P 1'
_symmetry_Int_Tables_number      1
_space_group_name_Hall           'P 1'
loop_
_symmetry_equiv_pos_site_id
_symmetry_equiv_pos_as_xyz
1 x,y,z
_cell_length_a                   16.6703(2)
_cell_length_b                   16.6703(2)
_cell_length_c                   21.6026(6)
_cell_angle_alpha                90
_cell_angle_beta                 90
_cell_angle_gamma                90
_cell_volume                     6003.34
loop_
_atom_site_label
_atom_site_type_symbol
_atom_site_fract_x
_atom_site_fract_y
_atom_site_fract_z
Zn1 Zn 0.30024(3) 0.08869(3) 0.39295(2)
C1 C 0.3178(2) 0.0256(2) 0.51938(16)
H1 H 0.3725 0.0150 0.5101
C2 C 0.2068(2) 0.0353(2) 0.56989(17)
C3 C 0.1438(3) 0.0342(2) 0.61234(19)
H2 H 0.1521 0.0155 0.6534
C4 C 0.0691(3) 0.0606(2) 0.5939(2)
C5 C 0.0005(4) 0.0596(3) 0.6400(2)
H3 H 0.0179 0.0326 0.6780
C6 C 0.2348(3) 0.3282(3) 0.4220(3)
H6 H 0.2060 0.3687 0.4435
C7 C 0.3142(2) 0.2680(2) 0.36356(18)
C8 C 0.2278(3) 0.2467(3) 0.4314(3)
H7 H 0.1933 0.2215 0.4606
C9 C 0.1940(2) 0.0604(2) 0.50877(17)
C10 C 0.1181(2) 0.0870(2) 0.49030(19)
H8 H 0.1093 0.1042 0.4489
C11 C 0.0563(2) 0.0880(2) 0.5325(2)
N1 N 0.2791(2) 0.2079(2) 0.39155(17)
N2 N 0.26682(19) 0.05373(18) 0.47736(14)
N3 N 0.28668(18) 0.01318(18) 0.57564(14)
N4 N 0.2904(2) 0.3409(2) 0.37645(18)
N5 N 0.3720(4) 0.2542(3) 0.3159(2)
O1 O 0.3718(10) 0.1838(4) 0.2926(8)
O2 O 0.3945(11) 0.3116(6) 0.2872(8)
Zn2 Zn 0.66131(3) 0.05024(3) 0.35705(2)
Zn4 Zn 0.33869(3) 0.44976(3) 0.35705(2)
Zn5 Zn 0.16131(3) 0.05024(3) 0.14295(2)
C13 C 0.2244(2) 0.0678(2) 0.26938(16)
H12 H 0.2350 0.1225 0.2601
C19 C 0.4820(2) 0.0642(2) 0.38644(18)
N6 N 0.5421(2) 0.0291(2) 0.35845(17)
N7 N 0.19627(18) 0.01682(19) 0.22736(14)
N8 N 0.69627(18) 0.01682(19) 0.27264(14)
N9 N 0.23682(18) 0.03668(18) 0.32564(14)
N11 N 0.4091(2) 0.0404(2) 0.37355(18)
N12 N 0.7096(2) 0.1591(2) 0.37645(18)
N13 N 0.4958(3) 0.1220(4) 0.4341(2)
O3 O 0.5662(4) 0.1218(10) 0.4574(8)
O4 O 0.4384(6) 0.1445(11) 0.4628(8)
Zn3 Zn 0.33869(3) 0.94976(3) 0.64295(2)
C14 C 0.2147(2) 0.9568(2) 0.31989(17)
C15 C 0.2158(2) 0.8938(3) 0.36234(19)
H13 H 0.2345 0.9021 0.4034
C16 C 0.1894(2) 0.8191(3) 0.3439(2)
C17 C 0.1904(3) 0.7505(4) 0.3900(2)
H14 H 0.2174 0.7679 0.4280
H15 H 0.2193 0.7048 0.3722
H16 H 0.1352 0.7346 0.3996
C18 C 0.4218(3) 0.9848(3) 0.3280(3)
H17 H 0.3813 0.9560 0.3065
C20 C 0.5033(3) 0.9778(3) 0.3186(3)
H18 H 0.5285 0.9433 0.2894
C21 C 0.1896(2) 0.9440(2) 0.25877(17)
C22 C 0.1630(2) 0.8681(2) 0.24030(19)
H19 H 0.1458 0.8593 0.1989
C23 C 0.1620(2) 0.8063(2) 0.2825(2)
C24 C 0.1305(3) 0.7245(3) 0.2631(2)
H20 H 0.1156 0.7258 0.2193
H21 H 0.0833 0.7109 0.2881
H22 H 0.1723 0.6840 0.2697
N10 N 0.71332(18) 0.98682(18) 0.42436(14)
Zn1_2 Zn 0.66131(3) 0.55024(3) 0.64295(2)
C1_2 C 0.7244(2) 0.5678(2) 0.76938(16)
H1_2 H 0.7350 0.6225 0.7601
C2_2 C 0.7147(2) 0.4568(2) 0.81989(17)
C3_2 C 0.7158(2) 0.3938(3) 0.86234(19)
H2_2 H 0.7345 0.4021 0.9034
C4_2 C 0.6894(2) 0.3191(3) 0.8439(2)
C5_2 C 0.6904(3) 0.2505(4) 0.8900(2)
H3_2 H 0.7174 0.2679 0.9280
H4 H 0.7193 0.2048 0.8722
H5 H 0.6352 0.2346 0.8996
C6_2 C 0.4218(3) 0.4848(3) 0.6720(3)
H6_2 H 0.3813 0.4560 0.6935
C7_2 C 0.4820(2) 0.5642(2) 0.61356(18)
C8_2 C 0.5033(3) 0.4778(3) 0.6814(3)
H7_2 H 0.5285 0.4433 0.7106
C9_2 C 0.6896(2) 0.4440(2) 0.75877(17)
C10_2 C 0.6630(2) 0.3681(2) 0.74030(19)
H8_2 H 0.6458 0.3593 0.6989
C11_2 C 0.6620(2) 0.3063(2) 0.7825(2)
C12 C 0.6305(3) 0.2245(3) 0.7631(2)
H9 H 0.6156 0.2258 0.7193
H10 H 0.5833 0.2109 0.7881
H11 H 0.6723 0.1840 0.7697
N1_2 N 0.5421(2) 0.5291(2) 0.64155(17)
N2_2 N 0.69627(18) 0.51682(19) 0.72736(14)
N3_2 N 0.73682(18) 0.53668(18) 0.82564(14)
N4_2 N 0.4091(2) 0.5404(2) 0.62645(18)
N5_2 N 0.4958(3) 0.6220(4) 0.5659(2)
O1_2 O 0.5662(4) 0.6218(10) 0.5426(8)
O2_2 O 0.4384(6) 0.6445(11) 0.5372(8)
Zn2_2 Zn 0.69976(3) 0.91131(3) 0.60705(2)
Zn3_2 Zn 0.80024(3) 0.58869(3) 0.89295(2)
Zn4_2 Zn 0.30024(3) 0.58869(3) 0.60705(2)
Zn5_2 Zn 0.69976(3) 0.41131(3) 0.39295(2)
C13_2 C 0.6822(2) 0.4744(2) 0.51938(16)
H12_2 H 0.6275 0.4850 0.5101
C14_2 C 0.7932(2) 0.4647(2) 0.56989(17)
C15_2 C 0.8562(3) 0.4658(2) 0.61234(19)
H13_2 H 0.8479 0.4845 0.6534
C16_2 C 0.9309(3) 0.4394(2) 0.5939(2)
C17_2 C 0.9995(4) 0.4404(3) 0.6400(2)
H14_2 H 0.9821 0.4674 0.6780
C18_2 C 0.7652(3) 0.6718(3) 0.5780(3)
H17_2 H 0.7940 0.6313 0.5565
C19_2 C 0.6858(2) 0.7320(2) 0.63644(18)
C20_2 C 0.7722(3) 0.7533(3) 0.5686(3)
H18_2 H 0.8067 0.7785 0.5394
C21_2 C 0.8060(2) 0.4396(2) 0.50877(17)
C22_2 C 0.8819(2) 0.4130(2) 0.49030(19)
H19_2 H 0.8907 0.3958 0.4489
C23_2 C 0.9437(2) 0.4120(2) 0.5325(2)
N6_2 N 0.7209(2) 0.7921(2) 0.60845(17)
N7_2 N 0.73318(19) 0.44627(18) 0.47736(14)
N8_2 N 0.73318(19) 0.94627(18) 0.52264(14)
N9_2 N 0.71332(18) 0.48682(18) 0.57564(14)
N10_2 N 0.76318(18) 0.96332(18) 0.67436(14)
N11_2 N 0.7096(2) 0.6591(2) 0.62355(18)
N12_2 N 0.5909(2) 0.9596(2) 0.62645(18)
N13_2 N 0.6280(4) 0.7458(3) 0.6841(2)
O3_2 O 0.6282(10) 0.8162(4) 0.7074(8)
O4_2 O 0.6055(11) 0.6884(6) 0.7128(8)
Zn2_3 Zn 0.16131(3) 0.55024(3) 0.85705(2)
C20_3 C 0.0033(3) 0.4778(3) 0.8186(3)
H18_3 H 0.0285 0.4433 0.7894
N6_3 N 0.0421(2) 0.5291(2) 0.85845(17)
N8_3 N 0.19627(18) 0.51682(19) 0.77264(14)
N10_3 N 0.21332(18) 0.48682(18) 0.92436(14)
N12_3 N 0.2096(2) 0.6591(2) 0.87645(18)
O3_3 O 0.0662(4) 0.6218(10) 0.9574(8)
C1_3 C 0.8178(2) 0.5256(2) 0.01938(16)
H1_3 H 0.8725 0.5150 0.0101
C2_3 C 0.7068(2) 0.5353(2) 0.06989(17)
C3_3 C 0.6438(3) 0.5342(2) 0.11234(19)
H2_3 H 0.6521 0.5155 0.1534
C4_3 C 0.5691(3) 0.5606(2) 0.0939(2)
C5_3 C 0.5005(4) 0.5596(3) 0.1400(2)
H3_3 H 0.5179 0.5326 0.1780
H4_2 H 0.4548 0.5307 0.1222
H5_2 H 0.4846 0.6148 0.1496
C9_3 C 0.6940(2) 0.5604(2) 0.00877(17)
C11_3 C 0.5563(2) 0.5880(2) 0.0325(2)
C12_2 C 0.4745(3) 0.6195(3) 0.0131(2)
H10_2 H 0.4609 0.6667 0.0381
H11_2 H 0.4340 0.5777 0.0197
N3_3 N 0.78668(18) 0.51318(18) 0.07564(14)
Zn3_3 Zn 0.83869(3) 0.44976(3) 0.14295(2)
C6_3 C 0.7348(3) 0.8282(3) 0.9220(3)
H6_3 H 0.7060 0.8687 0.9435
C7_3 C 0.8142(2) 0.7680(2) 0.86356(18)
C8_3 C 0.7278(3) 0.7467(3) 0.9314(3)
H7_3 H 0.6933 0.7215 0.9606
C10_3 C 0.6181(2) 0.5870(2) 0.99030(19)
H8_3 H 0.6093 0.6042 0.9489
H9_2 H 0.4758 0.6344 0.9693
N1_3 N 0.7791(2) 0.7079(2) 0.89155(17)
N2_3 N 0.76682(19) 0.55373(18) 0.97736(14)
N4_3 N 0.7904(2) 0.8409(2) 0.87645(18)
N5_3 N 0.8720(4) 0.7542(3) 0.8159(2)
O1_3 O 0.8718(10) 0.6838(4) 0.7926(8)
O2_3 O 0.8945(11) 0.8116(6) 0.7872(8)
Zn4_3 Zn 0.83869(3) 0.94976(3) 0.85705(2)
C18_3 C 0.9218(3) 0.4848(3) 0.8280(3)
H17_3 H 0.8813 0.4560 0.8065
C19_3 C 0.9820(2) 0.5642(2) 0.88644(18)
N11_3 N 0.9091(2) 0.5404(2) 0.87355(18)
N13_3 N 0.9958(3) 0.6220(4) 0.9341(2)
O4_3 O 0.9384(6) 0.6445(11) 0.9628(8)
N1_4 N 0.0421(2) 0.0291(2) 0.14155(17)
O1_4 O 0.0662(4) 0.1218(10) 0.0426(8)
Zn2_4 Zn 0.19976(3) 0.41131(3) 0.10705(2)
C18_4 C 0.2652(3) 0.1718(3) 0.0780(3)
H17_4 H 0.2940 0.1313 0.0565
C19_4 C 0.1858(2) 0.2320(2) 0.13644(18)
C20_4 C 0.2722(3) 0.2533(3) 0.0686(3)
H18_4 H 0.3067 0.2785 0.0394
N6_4 N 0.2209(2) 0.2921(2) 0.10845(17)
N8_4 N 0.23318(19) 0.44627(18) 0.02264(14)
N10_4 N 0.26318(18) 0.46332(18) 0.17436(14)
N11_4 N 0.2096(2) 0.1591(2) 0.12355(18)
N12_4 N 0.0909(2) 0.4596(2) 0.12645(18)
N13_4 N 0.1280(4) 0.2458(3) 0.1841(2)
O3_4 O 0.1282(10) 0.3162(4) 0.2074(8)
O4_4 O 0.1055(11) 0.1884(6) 0.2128(8)
C8_4 C 0.0033(3) 0.9778(3) 0.1814(3)
H7_4 H 0.0285 0.9433 0.2106
C13_3 C 0.1822(2) 0.9744(2) 0.01938(16)
H12_3 H 0.1275 0.9850 0.0101
C14_3 C 0.2932(2) 0.9647(2) 0.06989(17)
C15_3 C 0.3562(3) 0.9658(2) 0.11234(19)
H13_3 H 0.3479 0.9845 0.1534
C16_3 C 0.4309(3) 0.9394(2) 0.0939(2)
C17_3 C 0.4995(4) 0.9404(3) 0.1400(2)
H14_3 H 0.4821 0.9674 0.1780
H15_2 H 0.5452 0.9693 0.1222
H16_2 H 0.5154 0.8852 0.1496
C21_3 C 0.3060(2) 0.9396(2) 0.00877(17)
C23_3 C 0.4437(2) 0.9120(2) 0.0325(2)
C24_2 C 0.5255(3) 0.8805(3) 0.0131(2)
H21_2 H 0.5391 0.8333 0.0381
H22_2 H 0.5660 0.9223 0.0197
N9_3 N 0.21332(18) 0.98682(18) 0.07564(14)
Zn5_3 Zn 0.19976(3) 0.91131(3) 0.89295(2)
C22_3 C 0.3819(2) 0.9130(2) 0.99030(19)
H19_3 H 0.3907 0.8958 0.9489
H20_2 H 0.5242 0.8656 0.9693
N7_3 N 0.23318(19) 0.94627(18) 0.97736(14)
C7_4 C 0.9820(2) 0.0642(2) 0.11356(18)
N4_4 N 0.9091(2) 0.0404(2) 0.12645(18)
N5_4 N 0.9958(3) 0.1220(4) 0.0659(2)
O2_4 O 0.9384(6) 0.1445(11) 0.0372(8)
Zn4_4 Zn 0.80024(3) 0.08869(3) 0.10705(2)
C6_4 C 0.9218(3) 0.9848(3) 0.1720(3)
H6_4 H 0.8813 0.9560 0.1935
C2_4 C 0.2853(2) 0.0432(2) 0.81989(17)
C3_4 C 0.2842(2) 0.1062(3) 0.86234(19)
H2_4 H 0.2655 0.0979 0.9034
C4_4 C 0.3106(2) 0.1809(3) 0.8439(2)
C5_4 C 0.3096(3) 0.2495(4) 0.8900(2)
H3_4 H 0.2826 0.2321 0.9280
H4_3 H 0.2807 0.2952 0.8722
H5_3 H 0.3648 0.2654 0.8996
C6_5 C 0.5782(3) 0.0152(3) 0.6720(3)
H6_5 H 0.6187 0.0440 0.6935
C8_5 C 0.4967(3) 0.0222(3) 0.6814(3)
H7_5 H 0.4715 0.0567 0.7106
C9_4 C 0.3104(2) 0.0560(2) 0.75877(17)
C10_4 C 0.3370(2) 0.1319(2) 0.74030(19)
H8_4 H 0.3542 0.1407 0.6989
C11_4 C 0.3380(2) 0.1937(2) 0.7825(2)
C12_3 C 0.3695(3) 0.2755(3) 0.7631(2)
H9_3 H 0.3844 0.2742 0.7193
H10_3 H 0.4167 0.2891 0.7881
H11_3 H 0.3277 0.3160 0.7697
C1_4 C 0.2756(2) 0.9322(2) 0.76938(16)
H1_4 H 0.2650 0.8775 0.7601
C7_5 C 0.5180(2) 0.9358(2) 0.61356(18)
N1_5 N 0.4579(2) 0.9709(2) 0.64155(17)
N2_4 N 0.30373(18) 0.98318(19) 0.72736(14)
N3_4 N 0.26318(18) 0.96332(18) 0.82564(14)
N5_5 N 0.5042(3) 0.8780(4) 0.5659(2)
O1_5 O 0.4338(4) 0.8782(10) 0.5426(8)
O2_5 O 0.5616(6) 0.8555(11) 0.5372(8)
C18_5 C 0.2348(3) 0.8282(3) 0.5780(3)
H17_5 H 0.2060 0.8687 0.5565
C19_5 C 0.3142(2) 0.7680(2) 0.63644(18)
C20_5 C 0.2278(3) 0.7467(3) 0.5686(3)
H18_5 H 0.1933 0.7215 0.5394
N6_5 N 0.2791(2) 0.7079(2) 0.60845(17)
N8_5 N 0.26682(19) 0.55373(18) 0.52264(14)
N10_5 N 0.23682(18) 0.53668(18) 0.67436(14)
N11_5 N 0.2904(2) 0.8409(2) 0.62355(18)
N13_5 N 0.3720(4) 0.7542(3) 0.6841(2)
O3_5 O 0.3718(10) 0.6838(4) 0.7074(8)
O4_5 O 0.3945(11) 0.8116(6) 0.7128(8)
C18_6 C 0.0782(3) 0.0152(3) 0.8280(3)
H17_6 H 0.1187 0.0440 0.8065
C6_6 C 0.2652(3) 0.6718(3) 0.9220(3)
H6_6 H 0.2940 0.6313 0.9435
C7_6 C 0.1858(2) 0.7320(2) 0.86356(18)
C8_6 C 0.2722(3) 0.7533(3) 0.9314(3)
H7_6 H 0.3067 0.7785 0.9606
N1_6 N 0.2209(2) 0.7921(2) 0.89155(17)
N5_6 N 0.1280(4) 0.7458(3) 0.8159(2)
O1_6 O 0.1282(10) 0.8162(4) 0.7926(8)
O2_6 O 0.1055(11) 0.6884(6) 0.7872(8)
C19_6 C 0.0180(2) 0.9358(2) 0.88644(18)
N11_6 N 0.0909(2) 0.9596(2) 0.87355(18)
N13_6 N 0.0042(3) 0.8780(4) 0.9341(2)
O4_6 O 0.0616(6) 0.8555(11) 0.9628(8)
C20_6 C 0.9967(3) 0.0222(3) 0.8186(3)
H18_6 H 0.9715 0.0567 0.7894
N10_6 N 0.78668(18) 0.01318(18) 0.92436(14)
N6_6 N 0.9579(2) 0.9709(2) 0.85845(17)
N8_6 N 0.80373(18) 0.98318(19) 0.77264(14)
O3_6 O 0.9338(4) 0.8782(10) 0.9574(8)
C6_7 C 0.0782(3) 0.5152(3) 0.1720(3)
H6_7 H 0.1187 0.5440 0.1935
C7_7 C 0.0180(2) 0.4358(2) 0.11356(18)
N5_7 N 0.0042(3) 0.3780(4) 0.0659(2)
O2_7 O 0.0616(6) 0.3555(11) 0.0372(8)
C1_5 C 0.7756(2) 0.4322(2) 0.26938(16)
H1_5 H 0.7650 0.3775 0.2601
C2_5 C 0.7853(2) 0.5432(2) 0.31989(17)
C3_5 C 0.7842(2) 0.6062(3) 0.36234(19)
H2_5 H 0.7655 0.5979 0.4034
C4_5 C 0.8106(2) 0.6809(3) 0.3439(2)
C5_5 C 0.8096(3) 0.7495(4) 0.3900(2)
H3_5 H 0.7826 0.7321 0.4280
H4_4 H 0.7807 0.7952 0.3722
H5_4 H 0.8648 0.7654 0.3996
C8_7 C 0.9967(3) 0.5222(3) 0.1814(3)
H7_7 H 0.9715 0.5567 0.2106
C9_5 C 0.8104(2) 0.5560(2) 0.25877(17)
C10_5 C 0.8370(2) 0.6319(2) 0.24030(19)
H8_5 H 0.8542 0.6407 0.1989
C11_5 C 0.8380(2) 0.6937(2) 0.2825(2)
C12_4 C 0.8695(3) 0.7755(3) 0.2631(2)
H9_4 H 0.8844 0.7742 0.2193
H10_4 H 0.9167 0.7891 0.2881
H11_4 H 0.8277 0.8160 0.2697
N1_7 N 0.9579(2) 0.4709(2) 0.14155(17)
N2_5 N 0.80373(18) 0.48318(19) 0.22736(14)
N3_5 N 0.76318(18) 0.46332(18) 0.32564(14)
O1_7 O 0.9338(4) 0.3782(10) 0.0426(8)
C18_7 C 0.7348(3) 0.3282(3) 0.0780(3)
H17_7 H 0.7060 0.3687 0.0565
C19_7 C 0.8142(2) 0.2680(2) 0.13644(18)
C20_7 C 0.7278(3) 0.2467(3) 0.0686(3)
H18_7 H 0.6933 0.2215 0.0394
N6_7 N 0.7791(2) 0.2079(2) 0.10845(17)
N8_7 N 0.76682(19) 0.05373(18) 0.02264(14)
N10_7 N 0.73682(18) 0.03668(18) 0.17436(14)
N11_7 N 0.7904(2) 0.3409(2) 0.12355(18)
N13_7 N 0.8720(4) 0.2542(3) 0.1841(2)
O3_7 O 0.8718(10) 0.1838(4) 0.2074(8)
O4_7 O 0.8945(11) 0.3116(6) 0.2128(8)
C6_8 C 0.7652(3) 0.1718(3) 0.4220(3)
H6_8 H 0.7940 0.1313 0.4435
C7_8 C 0.6858(2) 0.2320(2) 0.36356(18)
C8_8 C 0.7722(3) 0.2533(3) 0.4314(3)
H7_8 H 0.8067 0.2785 0.4606
N1_8 N 0.7209(2) 0.2921(2) 0.39155(17)
N5_8 N 0.6280(4) 0.2458(3) 0.3159(2)
O1_8 O 0.6282(10) 0.3162(4) 0.2926(8)
O2_8 O 0.6055(11) 0.1884(6) 0.2872(8)
C18_8 C 0.5782(3) 0.5152(3) 0.3280(3)
H17_8 H 0.6187 0.5440 0.3065
C19_8 C 0.5180(2) 0.4358(2) 0.38644(18)
C20_8 C 0.4967(3) 0.5222(3) 0.3186(3)
H18_8 H 0.4715 0.5567 0.2894
N6_8 N 0.4579(2) 0.4709(2) 0.35845(17)
N8_8 N 0.30373(18) 0.48318(19) 0.27264(14)
N10_8 N 0.28668(18) 0.51318(18) 0.42436(14)
N11_8 N 0.5909(2) 0.4596(2) 0.37355(18)
N13_8 N 0.5042(3) 0.3780(4) 0.4341(2)
O3_8 O 0.4338(4) 0.3782(10) 0.4574(8)
O4_8 O 0.5616(6) 0.3555(11) 0.4628(8)
C14_4 C 0.7853(2) 0.0432(2) 0.68011(17)
C15_4 C 0.7842(2) 0.1062(3) 0.63766(19)
H13_4 H 0.7655 0.0979 0.5966
C16_4 C 0.8106(2) 0.1809(3) 0.6561(2)
C17_4 C 0.8096(3) 0.2495(4) 0.6100(2)
H14_4 H 0.7826 0.2321 0.5720
H15_3 H 0.7807 0.2952 0.6278
H16_3 H 0.8648 0.2654 0.6004
C21_4 C 0.8104(2) 0.0560(2) 0.74123(17)
C22_4 C 0.8370(2) 0.1319(2) 0.75970(19)
H19_4 H 0.8542 0.1407 0.8011
C23_4 C 0.8380(2) 0.1937(2) 0.7175(2)
C24_3 C 0.8695(3) 0.2755(3) 0.7369(2)
H20_3 H 0.8844 0.2742 0.7807
H21_3 H 0.9167 0.2891 0.7119
H22_3 H 0.8277 0.3160 0.7303
C1_6 C 0.6822(2) 0.9744(2) 0.48062(16)
H1_6 H 0.6275 0.9850 0.4899
C2_6 C 0.7932(2) 0.9647(2) 0.43011(17)
C3_6 C 0.8562(3) 0.9658(2) 0.38766(19)
H2_6 H 0.8479 0.9845 0.3466
C4_6 C 0.9309(3) 0.9394(2) 0.4061(2)
C5_6 C 0.9995(4) 0.9404(3) 0.3600(2)
H3_6 H 0.9821 0.9674 0.3220
C9_6 C 0.8060(2) 0.9396(2) 0.49123(17)
C10_6 C 0.8819(2) 0.9130(2) 0.50970(19)
H8_6 H 0.8907 0.8958 0.5511
C11_6 C 0.9437(2) 0.9120(2) 0.4675(2)
C13_4 C 0.7756(2) 0.9322(2) 0.73062(16)
H12_4 H 0.7650 0.8775 0.7399
C1_7 C 0.2756(2) 0.4322(2) 0.23062(16)
H1_7 H 0.2650 0.3775 0.2399
C2_7 C 0.2853(2) 0.5432(2) 0.18011(17)
C3_7 C 0.2842(2) 0.6062(3) 0.13766(19)
H2_7 H 0.2655 0.5979 0.0966
C4_7 C 0.3106(2) 0.6809(3) 0.1561(2)
C5_7 C 0.3096(3) 0.7495(4) 0.1100(2)
H3_7 H 0.2826 0.7321 0.0720
H4_5 H 0.2807 0.7952 0.1278
H5_5 H 0.3648 0.7654 0.1004
C9_7 C 0.3104(2) 0.5560(2) 0.24123(17)
C10_7 C 0.3370(2) 0.6319(2) 0.25970(19)
H8_7 H 0.3542 0.6407 0.3011
C11_7 C 0.3380(2) 0.6937(2) 0.2175(2)
C12_5 C 0.3695(3) 0.7755(3) 0.2369(2)
H9_5 H 0.3844 0.7742 0.2807
H10_5 H 0.4167 0.7891 0.2119
H11_5 H 0.3277 0.8160 0.2303
C13_5 C 0.3178(2) 0.5256(2) 0.48062(16)
H12_5 H 0.3725 0.5150 0.4899
C14_5 C 0.2068(2) 0.5353(2) 0.43011(17)
C15_5 C 0.1438(3) 0.5342(2) 0.38766(19)
H13_5 H 0.1521 0.5155 0.3466
C16_5 C 0.0691(3) 0.5606(2) 0.4061(2)
C17_5 C 0.0005(4) 0.5596(3) 0.3600(2)
H14_5 H 0.0179 0.5326 0.3220
C21_5 C 0.1940(2) 0.5604(2) 0.49123(17)
C22_5 C 0.1181(2) 0.5870(2) 0.50970(19)
H19_5 H 0.1093 0.6042 0.5511
C23_5 C 0.0563(2) 0.5880(2) 0.4675(2)
C10_8 C 0.3819(2) 0.4130(2) 0.00970(19)
H8_8 H 0.3907 0.3958 0.0511
H9_6 H 0.5242 0.3656 0.0307
C1_8 C 0.1822(2) 0.4744(2) 0.98062(16)
H1_8 H 0.1275 0.4850 0.9899
C2_8 C 0.2932(2) 0.4647(2) 0.93011(17)
C3_8 C 0.3562(3) 0.4658(2) 0.88766(19)
H2_8 H 0.3479 0.4845 0.8466
C4_8 C 0.4309(3) 0.4394(2) 0.9061(2)
C5_8 C 0.4995(4) 0.4404(3) 0.8600(2)
H3_8 H 0.4821 0.4674 0.8220
H4_6 H 0.5452 0.4693 0.8778
H5_6 H 0.5154 0.3852 0.8504
C9_8 C 0.3060(2) 0.4396(2) 0.99123(17)
C11_8 C 0.4437(2) 0.4120(2) 0.9675(2)
C12_6 C 0.5255(3) 0.3805(3) 0.9869(2)
H10_6 H 0.5391 0.3333 0.9619
H11_6 H 0.5660 0.4223 0.9803
C22_6 C 0.6181(2) 0.0870(2) 0.00970(19)
H19_6 H 0.6093 0.1042 0.0511
H20_4 H 0.4758 0.1344 0.0307
C13_6 C 0.8178(2) 0.0256(2) 0.98062(16)
H12_6 H 0.8725 0.0150 0.9899
C14_6 C 0.7068(2) 0.0353(2) 0.93011(17)
C15_6 C 0.6438(3) 0.0342(2) 0.88766(19)
H13_6 H 0.6521 0.0155 0.8466
C16_6 C 0.5691(3) 0.0606(2) 0.9061(2)
C17_6 C 0.5005(4) 0.0596(3) 0.8600(2)
H14_6 H 0.5179 0.0326 0.8220
H15_4 H 0.4548 0.0307 0.8778
H16_4 H 0.4846 0.1148 0.8504
C21_6 C 0.6940(2) 0.0604(2) 0.99123(17)
C23_6 C 0.5563(2) 0.0880(2) 0.9675(2)
C24_4 C 0.4745(3) 0.1195(3) 0.9869(2)
H21_4 H 0.4609 0.1667 0.9619
H22_4 H 0.4340 0.0777 0.9803
C1_9 C 0.7244(2) 0.0678(2) 0.23062(16)
H1_9 H 0.7350 0.1225 0.2399
C2_9 C 0.7147(2) 0.9568(2) 0.18011(17)
C3_9 C 0.7158(2) 0.8938(3) 0.13766(19)
H2_9 H 0.7345 0.9021 0.0966
C4_9 C 0.6894(2) 0.8191(3) 0.1561(2)
C5_9 C 0.6904(3) 0.7505(4) 0.1100(2)
H3_9 H 0.7174 0.7679 0.0720
H4_7 H 0.7193 0.7048 0.1278
H5_7 H 0.6352 0.7346 0.1004
C9_9 C 0.6896(2) 0.9440(2) 0.24123(17)
C10_9 C 0.6630(2) 0.8681(2) 0.25970(19)
H8_9 H 0.6458 0.8593 0.3011
C11_9 C 0.6620(2) 0.8063(2) 0.2175(2)
C12_7 C 0.6305(3) 0.7245(3) 0.2369(2)
H9_7 H 0.6156 0.7258 0.2807
H10_7 H 0.5833 0.7109 0.2119
H11_7 H 0.6723 0.6840 0.2303
C1_10 C 0.2244(2) 0.5678(2) 0.73062(16)
H1_10 H 0.2350 0.6225 0.7399
C2_10 C 0.2147(2) 0.4568(2) 0.68011(17)
C3_10 C 0.2158(2) 0.3938(3) 0.63766(19)
H2_10 H 0.2345 0.4021 0.5966
C4_10 C 0.1894(2) 0.3191(3) 0.6561(2)
C5_10 C 0.1904(3) 0.2505(4) 0.6100(2)
H3_10 H 0.2174 0.2679 0.5720
H4_8 H 0.2193 0.2048 0.6278
H5_8 H 0.1352 0.2346 0.6004
C9_10 C 0.1896(2) 0.4440(2) 0.74123(17)
C10_10 C 0.1630(2) 0.3681(2) 0.75970(19)
H8_10 H 0.1458 0.3593 0.8011
C11_10 C 0.1620(2) 0.3063(2) 0.7175(2)
C12_8 C 0.1305(3) 0.2245(3) 0.7369(2)
H9_8 H 0.1156 0.2258 0.7807
H10_8 H 0.0833 0.2109 0.7119
H11_8 H 0.1723 0.1840 0.7303
H4_9 H 0.9548 0.0307 0.6222
H5_9 H 0.9846 0.1148 0.6496
C12_9 C 0.9745(3) 0.1195(3) 0.5131(2)
H9_9 H 0.9758 0.1344 0.4693
H10_9 H 0.9609 0.1667 0.5381
H11_9 H 0.9340 0.0777 0.5197
H15_5 H 0.0452 0.4693 0.6222
H16_5 H 0.0154 0.3852 0.6496
C24_5 C 0.0255(3) 0.3805(3) 0.5131(2)
H20_5 H 0.0242 0.3656 0.4693
H21_5 H 0.0391 0.3333 0.5381
H22_5 H 0.0660 0.4223 0.5197
H4_10 H 0.0452 0.9693 0.3778
H5_10 H 0.0154 0.8852 0.3504
C12_10 C 0.0255(3) 0.8805(3) 0.4869(2)
H9_10 H 0.0242 0.8656 0.5307
H10_10 H 0.0391 0.8333 0.4619
H11_10 H 0.0660 0.9223 0.4803
H15_6 H 0.9548 0.5307 0.3778
H16_6 H 0.9846 0.6148 0.3504
C24_6 C 0.9745(3) 0.6195(3) 0.4869(2)
H20_6 H 0.9758 0.6344 0.5307
H21_6 H 0.9609 0.6667 0.4619
H22_6 H 0.9340 0.5777 0.4803
loop_
_geom_bond_atom_site_label_1
_geom_bond_atom_site_label_2
_geom_bond_site_symmetry_1
_geom_bond_site_symmetry_2
Zn1 N1 1_555 1_555
C1 H1 1_555 1_555
C2 C3 1_555 1_555
C3 H2 1_555 1_555
C4 C3 1_555 1_555
C5 C4 1_555 1_555
H3 C5 1_555 1_555
C6 H6 1_555 1_555
C7 N1 1_555 1_555
C8 C6 1_555 1_555
H7 C8 1_555 1_555
C9 C2 1_555 1_555
C10 C9 1_555 1_555
H8 C10 1_555 1_555
C11 C4 1_555 1_555
N1 C8 1_555 1_555
N2 Zn1 1_555 1_555
N3 C1 1_555 1_555
N4 C6 1_555 1_555
N5 C7 1_555 1_555
O1 N5 1_555 1_555
O2 N5 1_555 1_555
Zn2 N6 1_555 1_555
Zn4 N4 1_555 1_555
Zn5 N7 1_555 1_555
C13 H12 1_555 1_555
C19 N6 1_555 1_555
N7 C13 1_555 1_555
N8 Zn2 1_555 1_555
N9 Zn1 1_555 1_555
N11 Zn1 1_555 1_555
N12 Zn2 1_555 1_555
N13 C19 1_555 1_555
O3 N13 1_555 1_555
O4 N13 1_555 1_555
C1 N2 1_555 1_555
C2 N3 1_555 1_555
C7 N4 1_555 1_555
C9 N2 1_555 1_555
C10 C11 1_555 1_555
C13 N9 1_555 1_555
C19 N11 1_555 1_555
C14 C15 1_555 1_555
C15 H13 1_555 1_555
C16 C15 1_555 1_555
C17 C16 1_555 1_555
H14 C17 1_555 1_555
H15 C17 1_555 1_555
H16 C17 1_555 1_555
C18 H17 1_555 1_555
C20 C18 1_555 1_555
H18 C20 1_555 1_555
C21 C14 1_555 1_555
C22 C21 1_555 1_555
H19 C22 1_555 1_555
C23 C16 1_555 1_555
C24 C23 1_555 1_555
H20 C24 1_555 1_555
H21 C24 1_555 1_555
H22 C24 1_555 1_555
C22 C23 1_555 1_555
Zn1_2 N1_2 1_555 1_555
C1_2 H1_2 1_555 1_555
C2_2 C3_2 1_555 1_555
C3_2 H2_2 1_555 1_555
C4_2 C3_2 1_555 1_555
C5_2 C4_2 1_555 1_555
H3_2 C5_2 1_555 1_555
H4 C5_2 1_555 1_555
H5 C5_2 1_555 1_555
C6_2 H6_2 1_555 1_555
C7_2 N1_2 1_555 1_555
C8_2 C6_2 1_555 1_555
H7_2 C8_2 1_555 1_555
C9_2 C2_2 1_555 1_555
C10_2 C9_2 1_555 1_555
H8_2 C10_2 1_555 1_555
C11_2 C4_2 1_555 1_555
C12 C11_2 1_555 1_555
H9 C12 1_555 1_555
H10 C12 1_555 1_555
H11 C12 1_555 1_555
N1_2 C8_2 1_555 1_555
N2_2 Zn1_2 1_555 1_555
N3_2 C1_2 1_555 1_555
N4_2 C6_2 1_555 1_555
N5_2 C7_2 1_555 1_555
O1_2 N5_2 1_555 1_555
O2_2 N5_2 1_555 1_555
Zn2_2 N6_2 1_555 1_555
Zn3_2 N3_2 1_555 1_555
Zn4_2 N4_2 1_555 1_555
Zn5_2 N7_2 1_555 1_555
C13_2 H12_2 1_555 1_555
C14_2 C15_2 1_555 1_555
C15_2 H13_2 1_555 1_555
C16_2 C15_2 1_555 1_555
C17_2 C16_2 1_555 1_555
H14_2 C17_2 1_555 1_555
C18_2 H17_2 1_555 1_555
C19_2 N6_2 1_555 1_555
C20_2 C18_2 1_555 1_555
H18_2 C20_2 1_555 1_555
C21_2 C14_2 1_555 1_555
C22_2 C21_2 1_555 1_555
H19_2 C22_2 1_555 1_555
C23_2 C16_2 1_555 1_555
N6_2 C20_2 1_555 1_555
N7_2 C13_2 1_555 1_555
N8_2 Zn2_2 1_555 1_555
N9_2 Zn1_2 1_555 1_555
N10_2 Zn2_2 1_555 1_555
N11_2 Zn1_2 1_555 1_555
N12_2 Zn2_2 1_555 1_555
N13_2 C19_2 1_555 1_555
O3_2 N13_2 1_555 1_555
O4_2 N13_2 1_555 1_555
C1_2 N2_2 1_555 1_555
C2_2 N3_2 1_555 1_555
C7_2 N4_2 1_555 1_555
C9_2 N2_2 1_555 1_555
C10_2 C11_2 1_555 1_555
C13_2 N9_2 1_555 1_555
C14_2 N9_2 1_555 1_555
C18_2 N11_2 1_555 1_555
C19_2 N11_2 1_555 1_555
C21_2 N7_2 1_555 1_555
C22_2 C23_2 1_555 1_555
Zn2_3 N6_3 1_555 1_555
H18_3 C20_3 1_555 1_555
N6_3 C20_3 1_555 1_555
N8_3 Zn2_3 1_555 1_555
N10_3 Zn2_3 1_555 1_555
N12_3 Zn2_3 1_555 1_555
C1_3 H1_3 1_555 1_555
C2_3 C3_3 1_555 1_555
C3_3 H2_3 1_555 1_555
C4_3 C3_3 1_555 1_555
C5_3 C4_3 1_555 1_555
H3_3 C5_3 1_555 1_555
H4_2 C5_3 1_555 1_555
H5_2 C5_3 1_555 1_555
C9_3 C2_3 1_555 1_555
C11_3 C4_3 1_555 1_555
C12_2 C11_3 1_555 1_555
H10_2 C12_2 1_555 1_555
H11_2 C12_2 1_555 1_555
N3_3 C1_3 1_555 1_555
Zn3_3 N3_3 1_555 1_555
C2_3 N3_3 1_555 1_555
Zn3_2 N1_3 1_555 1_555
C6_3 H6_3 1_555 1_555
C7_3 N1_3 1_555 1_555
C8_3 C6_3 1_555 1_555
H7_3 C8_3 1_555 1_555
H8_3 C10_3 1_555 1_555
N1_3 C8_3 1_555 1_555
N2_3 Zn3_2 1_555 1_555
N4_3 C6_3 1_555 1_555
N5_3 C7_3 1_555 1_555
O1_3 N5_3 1_555 1_555
O2_3 N5_3 1_555 1_555
Zn4_3 N4_3 1_555 1_555
C18_3 H17_3 1_555 1_555
N11_3 Zn3_2 1_555 1_555
N13_3 C19_3 1_555 1_555
O4_3 N13_3 1_555 1_555
C7_3 N4_3 1_555 1_555
C18_3 N11_3 1_555 1_555
C19_3 N11_3 1_555 1_555
Zn5 N1_4 1_555 1_555
Zn2_4 N6_4 1_555 1_555
C18_4 H17_4 1_555 1_555
C19_4 N6_4 1_555 1_555
C20_4 C18_4 1_555 1_555
H18_4 C20_4 1_555 1_555
N6_4 C20_4 1_555 1_555
N8_4 Zn2_4 1_555 1_555
N10_4 Zn2_4 1_555 1_555
N11_4 Zn5 1_555 1_555
N12_4 Zn2_4 1_555 1_555
N13_4 C19_4 1_555 1_555
O3_4 N13_4 1_555 1_555
O4_4 N13_4 1_555 1_555
C18_4 N11_4 1_555 1_555
C19_4 N11_4 1_555 1_555
H7_4 C8_4 1_555 1_555
C13_3 H12_3 1_555 1_555
C14_3 C15_3 1_555 1_555
C15_3 H13_3 1_555 1_555
C16_3 C15_3 1_555 1_555
C17_3 C16_3 1_555 1_555
H14_3 C17_3 1_555 1_555
H15_2 C17_3 1_555 1_555
H16_2 C17_3 1_555 1_555
C21_3 C14_3 1_555 1_555
C23_3 C16_3 1_555 1_555
C24_2 C23_3 1_555 1_555
H21_2 C24_2 1_555 1_555
H22_2 C24_2 1_555 1_555
C13_3 N9_3 1_555 1_555
C14_3 N9_3 1_555 1_555
Zn5_3 N7_3 1_555 1_555
H19_3 C22_3 1_555 1_555
N5_4 C7_4 1_555 1_555
O2_4 N5_4 1_555 1_555
Zn4_4 N4_4 1_555 1_555
C7_4 N4_4 1_555 1_555
C6_4 H6_4 1_555 1_555
C2_4 C3_4 1_555 1_555
C3_4 H2_4 1_555 1_555
C4_4 C3_4 1_555 1_555
C5_4 C4_4 1_555 1_555
H3_4 C5_4 1_555 1_555
H4_3 C5_4 1_555 1_555
H5_3 C5_4 1_555 1_555
C6_5 H6_5 1_555 1_555
C8_5 C6_5 1_555 1_555
H7_5 C8_5 1_555 1_555
C9_4 C2_4 1_555 1_555
C10_4 C9_4 1_555 1_555
H8_4 C10_4 1_555 1_555
C11_4 C4_4 1_555 1_555
C12_3 C11_4 1_555 1_555
H9_3 C12_3 1_555 1_555
H10_3 C12_3 1_555 1_555
H11_3 C12_3 1_555 1_555
C10_4 C11_4 1_555 1_555
Zn3 N1_5 1_555 1_555
C1_4 H1_4 1_555 1_555
C7_5 N1_5 1_555 1_555
N2_4 Zn3 1_555 1_555
N3_4 C1_4 1_555 1_555
N5_5 C7_5 1_555 1_555
O1_5 N5_5 1_555 1_555
O2_5 N5_5 1_555 1_555
Zn4_2 N6_5 1_555 1_555
Zn5_3 N3_4 1_555 1_555
C18_5 H17_5 1_555 1_555
C19_5 N6_5 1_555 1_555
C20_5 C18_5 1_555 1_555
H18_5 C20_5 1_555 1_555
N6_5 C20_5 1_555 1_555
N8_5 Zn4_2 1_555 1_555
N10_5 Zn4_2 1_555 1_555
N11_5 Zn3 1_555 1_555
N13_5 C19_5 1_555 1_555
O3_5 N13_5 1_555 1_555
O4_5 N13_5 1_555 1_555
C1_4 N2_4 1_555 1_555
C7_5 N12_2 1_555 1_555
C18_5 N11_5 1_555 1_555
C19_5 N11_5 1_555 1_555
C18_6 H17_6 1_555 1_555
Zn5_3 N1_6 1_555 1_555
C6_6 H6_6 1_555 1_555
C7_6 N1_6 1_555 1_555
C8_6 C6_6 1_555 1_555
H7_6 C8_6 1_555 1_555
N1_6 C8_6 1_555 1_555
N12_3 C6_6 1_555 1_555
N5_6 C7_6 1_555 1_555
O1_6 N5_6 1_555 1_555
O2_6 N5_6 1_555 1_555
N11_6 Zn5_3 1_555 1_555
N13_6 C19_6 1_555 1_555
O4_6 N13_6 1_555 1_555
C7_6 N12_3 1_555 1_555
C19_6 N11_6 1_555 1_555
H18_6 C20_6 1_555 1_555
Zn4_3 N6_6 1_555 1_555
N8_6 Zn4_3 1_555 1_555
C6_7 H6_7 1_555 1_555
N12_4 C6_7 1_555 1_555
N5_7 C7_7 1_555 1_555
O2_7 N5_7 1_555 1_555
C7_7 N12_4 1_555 1_555
Zn3_3 N1_7 1_555 1_555
C1_5 H1_5 1_555 1_555
C2_5 C3_5 1_555 1_555
C3_5 H2_5 1_555 1_555
C4_5 C3_5 1_555 1_555
C5_5 C4_5 1_555 1_555
H3_5 C5_5 1_555 1_555
H4_4 C5_5 1_555 1_555
H5_4 C5_5 1_555 1_555
H7_7 C8_7 1_555 1_555
C9_5 C2_5 1_555 1_555
C10_5 C9_5 1_555 1_555
H8_5 C10_5 1_555 1_555
C11_5 C4_5 1_555 1_555
C12_4 C11_5 1_555 1_555
H9_4 C12_4 1_555 1_555
H10_4 C12_4 1_555 1_555
H11_4 C12_4 1_555 1_555
N1_7 C8_7 1_555 1_555
N2_5 Zn3_3 1_555 1_555
N3_5 C1_5 1_555 1_555
Zn4_4 N6_7 1_555 1_555
Zn5_2 N3_5 1_555 1_555
C18_7 H17_7 1_555 1_555
C19_7 N6_7 1_555 1_555
C20_7 C18_7 1_555 1_555
H18_7 C20_7 1_555 1_555
N6_7 C20_7 1_555 1_555
N8_7 Zn4_4 1_555 1_555
N10_7 Zn4_4 1_555 1_555
N11_7 Zn3_3 1_555 1_555
N13_7 C19_7 1_555 1_555
O3_7 N13_7 1_555 1_555
O4_7 N13_7 1_555 1_555
C1_5 N2_5 1_555 1_555
C2_5 N3_5 1_555 1_555
C9_5 N2_5 1_555 1_555
C10_5 C11_5 1_555 1_555
C18_7 N11_7 1_555 1_555
C19_7 N11_7 1_555 1_555
Zn5_2 N1_8 1_555 1_555
C6_8 H6_8 1_555 1_555
C7_8 N1_8 1_555 1_555
C8_8 C6_8 1_555 1_555
H7_8 C8_8 1_555 1_555
N1_8 C8_8 1_555 1_555
N12 C6_8 1_555 1_555
N5_8 C7_8 1_555 1_555
O1_8 N5_8 1_555 1_555
O2_8 N5_8 1_555 1_555
Zn4 N6_8 1_555 1_555
C18_8 H17_8 1_555 1_555
C19_8 N6_8 1_555 1_555
C20_8 C18_8 1_555 1_555
H18_8 C20_8 1_555 1_555
N6_8 C20_8 1_555 1_555
N8_8 Zn4 1_555 1_555
N10_8 Zn4 1_555 1_555
N11_8 Zn5_2 1_555 1_555
N13_8 C19_8 1_555 1_555
O3_8 N13_8 1_555 1_555
O4_8 N13_8 1_555 1_555
C7_8 N12 1_555 1_555
C18_8 N11_8 1_555 1_555
C19_8 N11_8 1_555 1_555
C14_4 C15_4 1_555 1_555
C15_4 H13_4 1_555 1_555
C16_4 C15_4 1_555 1_555
C17_4 C16_4 1_555 1_555
H14_4 C17_4 1_555 1_555
H15_3 C17_4 1_555 1_555
H16_3 C17_4 1_555 1_555
C21_4 C14_4 1_555 1_555
C22_4 C21_4 1_555 1_555
H19_4 C22_4 1_555 1_555
C23_4 C16_4 1_555 1_555
C24_3 C23_4 1_555 1_555
H20_3 C24_3 1_555 1_555
H21_3 C24_3 1_555 1_555
H22_3 C24_3 1_555 1_555
C22_4 C23_4 1_555 1_555
C1_6 H1_6 1_555 1_555
C2_6 C3_6 1_555 1_555
C3_6 H2_6 1_555 1_555
C4_6 C3_6 1_555 1_555
C5_6 C4_6 1_555 1_555
H3_6 C5_6 1_555 1_555
C9_6 C2_6 1_555 1_555
C10_6 C9_6 1_555 1_555
H8_6 C10_6 1_555 1_555
C11_6 C4_6 1_555 1_555
N10 C1_6 1_555 1_555
C13_4 H12_4 1_555 1_555
N8_6 C13_4 1_555 1_555
C1_6 N8_2 1_555 1_555
C2_6 N10 1_555 1_555
C9_6 N8_2 1_555 1_555
C10_6 C11_6 1_555 1_555
C13_4 N10_2 1_555 1_555
C1_7 H1_7 1_555 1_555
C2_7 C3_7 1_555 1_555
C3_7 H2_7 1_555 1_555
C4_7 C3_7 1_555 1_555
C5_7 C4_7 1_555 1_555
H3_7 C5_7 1_555 1_555
H4_5 C5_7 1_555 1_555
H5_5 C5_7 1_555 1_555
C9_7 C2_7 1_555 1_555
C10_7 C9_7 1_555 1_555
H8_7 C10_7 1_555 1_555
C11_7 C4_7 1_555 1_555
C12_5 C11_7 1_555 1_555
H9_5 C12_5 1_555 1_555
H10_5 C12_5 1_555 1_555
H11_5 C12_5 1_555 1_555
N10_4 C1_7 1_555 1_555
C13_5 H12_5 1_555 1_555
C14_5 C15_5 1_555 1_555
C15_5 H13_5 1_555 1_555
C16_5 C15_5 1_555 1_555
C17_5 C16_5 1_555 1_555
H14_5 C17_5 1_555 1_555
C21_5 C14_5 1_555 1_555
C22_5 C21_5 1_555 1_555
H19_5 C22_5 1_555 1_555
C23_5 C16_5 1_555 1_555
N8_5 C13_5 1_555 1_555
C1_7 N8_8 1_555 1_555
C2_7 N10_4 1_555 1_555
C9_7 N8_8 1_555 1_555
C10_7 C11_7 1_555 1_555
C13_5 N10_8 1_555 1_555
C14_5 N10_8 1_555 1_555
C21_5 N8_5 1_555 1_555
C22_5 C23_5 1_555 1_555
H8_8 C10_8 1_555 1_555
C1_8 H1_8 1_555 1_555
C2_8 C3_8 1_555 1_555
C3_8 H2_8 1_555 1_555
C4_8 C3_8 1_555 1_555
C5_8 C4_8 1_555 1_555
H3_8 C5_8 1_555 1_555
H4_6 C5_8 1_555 1_555
H5_6 C5_8 1_555 1_555
C9_8 C2_8 1_555 1_555
C11_8 C4_8 1_555 1_555
C12_6 C11_8 1_555 1_555
H10_6 C12_6 1_555 1_555
H11_6 C12_6 1_555 1_555
N10_3 C1_8 1_555 1_555
C2_8 N10_3 1_555 1_555
H19_6 C22_6 1_555 1_555
C13_6 H12_6 1_555 1_555
C14_6 C15_6 1_555 1_555
C15_6 H13_6 1_555 1_555
C16_6 C15_6 1_555 1_555
C17_6 C16_6 1_555 1_555
H14_6 C17_6 1_555 1_555
H15_4 C17_6 1_555 1_555
H16_4 C17_6 1_555 1_555
C21_6 C14_6 1_555 1_555
C23_6 C16_6 1_555 1_555
C24_4 C23_6 1_555 1_555
H21_4 C24_4 1_555 1_555
H22_4 C24_4 1_555 1_555
C13_6 N10_6 1_555 1_555
C14_6 N10_6 1_555 1_555
C1_9 H1_9 1_555 1_555
N10_7 C1_9 1_555 1_555
C1_9 N8 1_555 1_555
C2_9 C3_9 1_555 1_555
C3_9 H2_9 1_555 1_555
C4_9 C3_9 1_555 1_555
C5_9 C4_9 1_555 1_555
H3_9 C5_9 1_555 1_555
H4_7 C5_9 1_555 1_555
H5_7 C5_9 1_555 1_555
C9_9 C2_9 1_555 1_555
C10_9 C9_9 1_555 1_555
H8_9 C10_9 1_555 1_555
C11_9 C4_9 1_555 1_555
C12_7 C11_9 1_555 1_555
H9_7 C12_7 1_555 1_555
H10_7 C12_7 1_555 1_555
H11_7 C12_7 1_555 1_555
C10_9 C11_9 1_555 1_555
C1_10 H1_10 1_555 1_555
C2_10 C3_10 1_555 1_555
C3_10 H2_10 1_555 1_555
C4_10 C3_10 1_555 1_555
C5_10 C4_10 1_555 1_555
H3_10 C5_10 1_555 1_555
H4_8 C5_10 1_555 1_555
H5_8 C5_10 1_555 1_555
C9_10 C2_10 1_555 1_555
C10_10 C9_10 1_555 1_555
H8_10 C10_10 1_555 1_555
C11_10 C4_10 1_555 1_555
C12_8 C11_10 1_555 1_555
H9_8 C12_8 1_555 1_555
H10_8 C12_8 1_555 1_555
H11_8 C12_8 1_555 1_555
N10_5 C1_10 1_555 1_555
C1_10 N8_3 1_555 1_555
C2_10 N10_5 1_555 1_555
C9_10 N8_3 1_555 1_555
C10_10 C11_10 1_555 1_555
H9_9 C12_9 1_555 1_555
H10_9 C12_9 1_555 1_555
H11_9 C12_9 1_555 1_555
H20_5 C24_5 1_555 1_555
H21_5 C24_5 1_555 1_555
H22_5 C24_5 1_555 1_555
H9_10 C12_10 1_555 1_555
H10_10 C12_10 1_555 1_555
H11_10 C12_10 1_555 1_555
H20_6 C24_6 1_555 1_555
H21_6 C24_6 1_555 1_555
H22_6 C24_6 1_555 1_555

#END
