
###############################################################################
#
# This file contains modified crystal structure data generated from the
# MOF subset of the Cambridge Structural Database (CSD) v543 
# hosted by the Cambridge Crystallographic Data Centre (CCDC).
#
# This work is licensed under the Creative Commons
# Attribution-NonCommercial-ShareAlike 4.0 International License.
# To view a copy of this license, visit
# http://creativecommons.org/licenses/by-nc-sa/4.0/
# or send a letter to
# Creative Commons, PO Box 1866, Mountain View, CA 94042, USA.
#
# CIF created using the CSD Python API on 29 September 2022
# The structure has been converted into the P1 space group
# The structure has a 3D framework
# The original CSD entry GITYIT is in the monoclinic crystal system
# The framework has been calculated to contain at least 10.0% void space
# The void calculation uses a probe of radius 1.32A, grid spacing 0.4
#
###############################################################################

data_GITYIT
_chemical_formula_moiety         '(C232 H176 N32 O32 Zn8)n'
_symmetry_cell_setting           triclinic
_symmetry_space_group_name_H-M   'P 1'
_symmetry_Int_Tables_number      1
_space_group_name_Hall           'P 1'
loop_
_symmetry_equiv_pos_site_id
_symmetry_equiv_pos_as_xyz
1 x,y,z
_cell_length_a                   28.3903(12)
_cell_length_b                   13.8667(6)
_cell_length_c                   14.3593(6)
_cell_angle_alpha                90
_cell_angle_beta                 107.2540(10)
_cell_angle_gamma                90
_cell_volume                     5398.58
loop_
_atom_site_label
_atom_site_type_symbol
_atom_site_fract_x
_atom_site_fract_y
_atom_site_fract_z
H33 H 0.0734 0.0202 0.1884
C48 C 0.01452(8) 0.82256(16) 0.10054(16)
C49 C 0.02151(8) 0.91963(16) 0.12770(16)
C50 C 0.06872(8) 0.95546(16) 0.17122(17)
C51 C 0.10872(8) 0.89346(16) 0.18870(16)
H34 H 0.1405 0.9160 0.2188
C52 C 0.10097(8) 0.79744(16) 0.16086(17)
C53 C 0.05429(8) 0.76084(16) 0.11561(17)
H35 H 0.0499 0.6967 0.0960
C56 C 0.18777(8) 0.74545(17) 0.17080(18)
H42 H 0.1993 0.8009 0.1484
C57 C 0.21285(8) 0.66218(17) 0.19857(18)
H43 H 0.2450 0.6505 0.1980
C58 C 0.14106(8) 0.64218(16) 0.21684(18)
H44 H 0.1141 0.6150 0.2313
N7 N 0.14188(7) 0.73174(13) 0.18222(14)
N8 N 0.18338(7) 0.59749(13) 0.22772(15)
Zn4 Zn 0.193132(9) 0.460181(17) 0.273824(18)
C30 C 0.23833(8) 0.38186(16) 0.14883(16)
C31 C 0.24424(8) 0.31402(16) 0.07128(16)
C32 C 0.29097(8) 0.29040(18) 0.06676(18)
H23 H 0.3186 0.3172 0.1113
C33 C 0.20341(8) 0.27281(18) 0.00372(18)
H24 H 0.1719 0.2881 0.0061
O5 O 0.27033(6) 0.44015(12) 0.18780(12)
O6 O 0.19739(6) 0.37200(12) 0.17046(12)
C39 C 0.79827(9) 0.10824(19) 0.03655(18)
H28 H 0.8105 0.1421 0.0947
C41 C 0.87475(8) 0.01665(16) 0.03401(16)
C45 C 0.95897(8) 0.06059(16) 0.11103(17)
H31 H 0.9826 0.1066 0.1400
C46 C 0.90957(8) 0.08623(16) 0.07758(17)
H32 H 0.8999 0.1493 0.0842
H3 H 0.1997 0.9671 0.6293
C5 C 0.11203(8) 0.92185(16) 0.47645(16)
H4 H 0.1357 0.8762 0.5061
C6 C 0.06285(8) 0.89692(15) 0.44188(15)
C7 C 0.02700(8) 0.96614(15) 0.39878(16)
C10 C 0.03971(8) 0.79811(15) 0.44230(16)
C17 C 0.05558(8) 0.72848(17) 0.37412(18)
H10 H 0.0899 0.7132 0.4014
H11 H 0.0504 0.7583 0.3115
H12 H 0.0364 0.6704 0.3668
C18 C 0.05159(9) 0.75478(18) 0.54461(18)
H13 H 0.0862 0.7407 0.5684
H14 H 0.0331 0.6964 0.5421
H15 H 0.0430 0.8000 0.5875
H21 H 0.4577 0.9858 0.7325
H25 H 0.5423 0.9858 0.7675
H29 H 0.8003 0.9671 0.8707
H30 H 0.8643 0.8762 0.9939
C55 C 0.94841(9) 0.75478(18) 0.95539(18)
H39 H 0.9138 0.7407 0.9316
H40 H 0.9669 0.6964 0.9579
H41 H 0.9570 0.8000 0.9125
N9 N 0.68338(7) 0.90251(13) 0.72772(15)
N10 N 0.31662(7) 0.90251(13) 0.77228(15)
C1 C 0.25205(8) 0.38772(18) 0.47481(17)
H1 H 0.2266 0.3501 0.4836
C2 C 0.29827(9) 0.39176(19) 0.53655(18)
H2 H 0.3105 0.3579 0.5947
C3 C 0.29232(8) 0.48847(16) 0.41210(16)
H3_2 H 0.3003 0.5329 0.3707
C4 C 0.37475(8) 0.48335(16) 0.53401(16)
C5_2 C 0.38797(8) 0.57815(16) 0.52355(16)
H4_2 H 0.3643 0.6238 0.4939
C6_2 C 0.43715(8) 0.60308(15) 0.55812(15)
C7_2 C 0.47300(8) 0.53386(15) 0.60122(16)
C8 C 0.45897(8) 0.43941(16) 0.61103(17)
H5 H 0.4826 0.3934 0.6400
C9 C 0.40957(8) 0.41377(16) 0.57758(17)
H6 H 0.3999 0.3507 0.5842
C10_2 C 0.46029(8) 0.70189(15) 0.55770(16)
C11 C 0.51452(8) 0.67744(16) 0.60054(16)
C12 C 0.52151(8) 0.58037(16) 0.62770(16)
C13 C 0.56872(8) 0.54454(16) 0.67122(17)
H7 H 0.5734 0.4798 0.6884
C14 C 0.60872(8) 0.60654(16) 0.68870(16)
H8 H 0.6405 0.5840 0.7188
C15 C 0.60097(8) 0.70256(16) 0.66086(17)
C16 C 0.55429(8) 0.73916(16) 0.61561(17)
H9 H 0.5499 0.8033 0.5960
C17_2 C 0.44442(8) 0.77152(17) 0.62588(18)
H10_2 H 0.4101 0.7868 0.5986
H11_2 H 0.4496 0.7417 0.6885
H12_2 H 0.4636 0.8296 0.6332
C18_2 C 0.44841(9) 0.74522(18) 0.45539(18)
H13_2 H 0.4138 0.7593 0.4316
H14_2 H 0.4669 0.8036 0.4579
H15_2 H 0.4570 0.7000 0.4125
C19 C 0.68777(8) 0.75455(17) 0.67080(18)
H16 H 0.6993 0.6991 0.6484
C20 C 0.71285(8) 0.83782(17) 0.69857(18)
H17 H 0.7450 0.8495 0.6980
C21 C 0.64106(8) 0.85782(16) 0.71684(18)
H18 H 0.6141 0.8850 0.7313
C26 C 0.10676(8) 0.36808(16) 0.29642(17)
C27 C 0.05150(8) 0.37029(16) 0.27333(17)
C28 C 0.02548(9) 0.45591(18) 0.2610(3)
H21_2 H 0.0423 0.5142 0.2675
C29 C 0.02537(8) 0.28468(16) 0.26178(16)
H22 H 0.0423 0.2263 0.2700
N1 N 0.24844(6) 0.44799(13) 0.39680(14)
N2 N 0.32372(7) 0.45612(13) 0.49623(14)
N3 N 0.64188(7) 0.76826(13) 0.68222(14)
O3 O 0.12945(6) 0.29204(13) 0.32195(14)
O4 O 0.12681(6) 0.44828(12) 0.28724(15)
C39_2 C 0.70173(9) 0.39176(19) 0.96345(18)
H28_2 H 0.6895 0.3579 0.9053
C41_2 C 0.62525(8) 0.48335(16) 0.96599(16)
C42 C 0.61203(8) 0.57815(16) 0.97645(16)
C43 C 0.56285(8) 0.60308(15) 0.94188(15)
C44 C 0.52700(8) 0.53386(15) 0.89878(16)
C45_2 C 0.54103(8) 0.43941(16) 0.88897(17)
H31_2 H 0.5174 0.3934 0.8600
C46_2 C 0.59043(8) 0.41377(16) 0.92242(17)
H32_2 H 0.6001 0.3507 0.9158
C47 C 0.53971(8) 0.70189(15) 0.94230(16)
C48_2 C 0.48548(8) 0.67744(16) 0.89946(16)
C49_2 C 0.47849(8) 0.58037(16) 0.87230(16)
C50_2 C 0.43128(8) 0.54454(16) 0.82878(17)
H33_2 H 0.4266 0.4798 0.8116
C51_2 C 0.39128(8) 0.60654(16) 0.81130(16)
H34_2 H 0.3595 0.5840 0.7812
C52_2 C 0.39903(8) 0.70256(16) 0.83914(17)
C53_2 C 0.44571(8) 0.73916(16) 0.88439(17)
H35_2 H 0.4501 0.8033 0.9040
C54 C 0.55558(8) 0.77152(17) 0.87412(18)
H36 H 0.5899 0.7868 0.9014
H37 H 0.5504 0.7417 0.8115
H38 H 0.5364 0.8296 0.8668
C56_2 C 0.31223(8) 0.75455(17) 0.82920(18)
H42_2 H 0.3007 0.6991 0.8516
C57_2 C 0.28715(8) 0.83782(17) 0.80143(18)
H43_2 H 0.2550 0.8495 0.8020
C58_2 C 0.35894(8) 0.85782(16) 0.78316(18)
H44_2 H 0.3859 0.8850 0.7687
N7_2 N 0.35812(7) 0.76826(13) 0.81778(14)
C1_2 C 0.24795(8) 0.11228(18) 0.52519(17)
H1_2 H 0.2734 0.1499 0.5164
C2_2 C 0.20173(9) 0.10824(19) 0.46345(18)
H2_2 H 0.1895 0.1421 0.4053
C3_2 C 0.20768(8) 0.01153(16) 0.58790(16)
C4_2 C 0.12525(8) 0.01665(16) 0.46599(16)
C8_2 C 0.04103(8) 0.06059(16) 0.38897(17)
H5_2 H 0.0174 0.1066 0.3600
C9_2 C 0.09043(8) 0.08623(16) 0.42242(17)
H6_2 H 0.1001 0.1493 0.4158
C22 C 0.26167(8) 0.11814(16) 0.85117(16)
C23 C 0.25576(8) 0.18598(16) 0.92872(16)
C24 C 0.20903(8) 0.20960(18) 0.93324(18)
H19 H 0.1814 0.1828 0.8887
C25 C 0.29659(8) 0.22719(18) 0.99628(18)
H20 H 0.3281 0.2119 0.9939
C26_2 C 0.39324(8) 0.13192(16) 0.70358(17)
C27_2 C 0.44850(8) 0.12971(16) 0.72667(17)
C28_2 C 0.47452(9) 0.04409(18) 0.7390(3)
C29_2 C 0.47463(8) 0.21532(16) 0.73822(16)
H22_2 H 0.4577 0.2737 0.7300
N1_2 N 0.25156(6) 0.05201(13) 0.60320(14)
N2_2 N 0.17628(7) 0.04388(13) 0.50377(14)
O1 O 0.22967(6) 0.05985(12) 0.81220(12)
O2 O 0.30261(6) 0.12800(12) 0.82954(12)
O3_2 O 0.37055(6) 0.20796(13) 0.67805(14)
O4_2 O 0.37319(6) 0.05172(12) 0.71276(15)
Zn1 Zn 0.306868(9) 0.039819(17) 0.726176(18)
C34 C 0.60676(8) 0.13192(16) 0.79642(17)
C35 C 0.55150(8) 0.12971(16) 0.77333(17)
C36 C 0.52548(9) 0.04409(18) 0.7610(3)
C37 C 0.52537(8) 0.21532(16) 0.76178(16)
H26 H 0.5423 0.2737 0.7700
O7 O 0.62945(6) 0.20796(13) 0.82195(14)
O8 O 0.62681(6) 0.05172(12) 0.78724(15)
C38 C 0.75205(8) 0.11228(18) 0.97481(17)
H27 H 0.7266 0.1499 0.9836
C40 C 0.79232(8) 0.01153(16) 0.91210(16)
N5 N 0.74844(6) 0.05201(13) 0.89680(14)
N6 N 0.82372(7) 0.04388(13) 0.99623(14)
Zn2 Zn 0.693132(9) 0.039819(17) 0.773824(18)
O9 O 0.69739(6) 0.12800(12) 0.67046(12)
C11_2 C 0.98548(8) 0.82256(16) 0.39946(16)
C12_2 C 0.97849(8) 0.91963(16) 0.37230(16)
C13_2 C 0.93128(8) 0.95546(16) 0.32878(17)
C14_2 C 0.89128(8) 0.89346(16) 0.31130(16)
H8_2 H 0.8595 0.9160 0.2812
C15_2 C 0.89903(8) 0.79744(16) 0.33914(17)
C16_2 C 0.94571(8) 0.76084(16) 0.38439(17)
H9_2 H 0.9501 0.6967 0.4040
C19_2 C 0.81223(8) 0.74545(17) 0.32920(18)
H16_2 H 0.8007 0.8009 0.3516
C20_2 C 0.78715(8) 0.66218(17) 0.30143(18)
H17_2 H 0.7550 0.6505 0.3020
C21_2 C 0.85894(8) 0.64218(16) 0.28316(18)
H18_2 H 0.8859 0.6150 0.2687
N3_2 N 0.85812(7) 0.73174(13) 0.31778(14)
N4 N 0.81662(7) 0.59749(13) 0.27228(15)
Zn5 Zn 0.806868(9) 0.460181(17) 0.226176(18)
C22_2 C 0.73833(8) 0.11814(16) 0.64883(16)
C23_2 C 0.74424(8) 0.18598(16) 0.57128(16)
C24_2 C 0.79097(8) 0.20960(18) 0.56676(18)
H19_2 H 0.8186 0.1828 0.6113
C25_2 C 0.70341(8) 0.22719(18) 0.50372(18)
H20_2 H 0.6719 0.2119 0.5061
O1_2 O 0.77033(6) 0.05985(12) 0.68780(12)
C30_2 C 0.76167(8) 0.38186(16) 0.35117(16)
C31_2 C 0.75576(8) 0.31402(16) 0.42872(16)
C32_2 C 0.70903(8) 0.29040(18) 0.43324(18)
H23_2 H 0.6814 0.3172 0.3887
C33_2 C 0.79659(8) 0.27281(18) 0.49628(18)
H24_2 H 0.8281 0.2881 0.4939
O5_2 O 0.72967(6) 0.44015(12) 0.31220(12)
O6_2 O 0.80261(6) 0.37200(12) 0.32954(12)
C34_2 C 0.89324(8) 0.36808(16) 0.20358(17)
C35_2 C 0.94850(8) 0.37029(16) 0.22667(17)
C36_2 C 0.97452(9) 0.45591(18) 0.2390(3)
H25_2 H 0.9577 0.5142 0.2325
C37_2 C 0.97463(8) 0.28468(16) 0.23822(16)
H26_2 H 0.9577 0.2263 0.2300
O7_2 O 0.87055(6) 0.29204(13) 0.17805(14)
O8_2 O 0.87319(6) 0.44828(12) 0.21276(15)
C38_2 C 0.74795(8) 0.38772(18) 0.02519(17)
H27_2 H 0.7734 0.3501 0.0164
C40_2 C 0.70768(8) 0.48847(16) 0.08790(16)
H29_2 H 0.6997 0.5329 0.1293
H30_2 H 0.6357 0.6238 0.0061
C55_2 C 0.55159(9) 0.74522(18) 0.04461(18)
H39_2 H 0.5862 0.7593 0.0684
H40_2 H 0.5331 0.8036 0.0421
H41_2 H 0.5430 0.7000 0.0875
N5_2 N 0.75156(6) 0.44799(13) 0.10320(14)
N6_2 N 0.67628(7) 0.45612(13) 0.00377(14)
C42_2 C 0.88797(8) 0.92185(16) 0.02355(16)
C43_2 C 0.93715(8) 0.89692(15) 0.05812(15)
C44_2 C 0.97300(8) 0.96614(15) 0.10122(16)
C47_2 C 0.96029(8) 0.79811(15) 0.05770(16)
C54_2 C 0.94442(8) 0.72848(17) 0.12588(18)
H36_2 H 0.9101 0.7132 0.0986
H37_2 H 0.9496 0.7583 0.1885
H38_2 H 0.9636 0.6704 0.1332
H7_2 H 0.9266 0.0202 0.3116
C39_3 C 0.29827(9) 0.60824(19) 0.03655(18)
H28_3 H 0.3105 0.6421 0.0947
C41_3 C 0.37475(8) 0.51665(16) 0.03401(16)
C42_3 C 0.38797(8) 0.42185(16) 0.02355(16)
C43_3 C 0.43715(8) 0.39692(15) 0.05812(15)
C44_3 C 0.47300(8) 0.46614(15) 0.10122(16)
C45_3 C 0.45897(8) 0.56059(16) 0.11103(17)
H31_3 H 0.4826 0.6066 0.1400
C46_3 C 0.40957(8) 0.58623(16) 0.07758(17)
H32_3 H 0.3999 0.6493 0.0842
C47_3 C 0.46029(8) 0.29811(15) 0.05770(16)
C48_3 C 0.51452(8) 0.32256(16) 0.10054(16)
C49_3 C 0.52151(8) 0.41963(16) 0.12770(16)
C50_3 C 0.56872(8) 0.45546(16) 0.17122(17)
H33_3 H 0.5734 0.5202 0.1884
C51_3 C 0.60872(8) 0.39346(16) 0.18870(16)
H34_3 H 0.6405 0.4160 0.2188
C52_3 C 0.60097(8) 0.29744(16) 0.16086(17)
C53_3 C 0.55429(8) 0.26084(16) 0.11561(17)
H35_3 H 0.5499 0.1967 0.0960
C54_3 C 0.44442(8) 0.22848(17) 0.12588(18)
H36_3 H 0.4101 0.2132 0.0986
H37_3 H 0.4496 0.2583 0.1885
H38_3 H 0.4636 0.1704 0.1332
C56_3 C 0.68777(8) 0.24545(17) 0.17080(18)
H42_3 H 0.6993 0.3009 0.1484
C57_3 C 0.71285(8) 0.16218(17) 0.19857(18)
H43_3 H 0.7450 0.1505 0.1980
C58_3 C 0.64106(8) 0.14218(16) 0.21684(18)
H44_3 H 0.6141 0.1150 0.2313
N7_3 N 0.64188(7) 0.23174(13) 0.18222(14)
N8_2 N 0.68338(7) 0.09749(13) 0.22772(15)
C1_3 C 0.74795(8) 0.61228(18) 0.52519(17)
H1_3 H 0.7734 0.6499 0.5164
C2_3 C 0.70173(9) 0.60824(19) 0.46345(18)
H2_3 H 0.6895 0.6421 0.4053
C3_3 C 0.70768(8) 0.51153(16) 0.58790(16)
H3_3 H 0.6997 0.4671 0.6293
C4_3 C 0.62525(8) 0.51665(16) 0.46599(16)
C5_3 C 0.61203(8) 0.42185(16) 0.47645(16)
H4_3 H 0.6357 0.3762 0.5061
C6_3 C 0.56285(8) 0.39692(15) 0.44188(15)
C7_3 C 0.52700(8) 0.46614(15) 0.39878(16)
C8_3 C 0.54103(8) 0.56059(16) 0.38897(17)
H5_3 H 0.5174 0.6066 0.3600
C9_3 C 0.59043(8) 0.58623(16) 0.42242(17)
H6_3 H 0.6001 0.6493 0.4158
C10_3 C 0.53971(8) 0.29811(15) 0.44230(16)
C11_3 C 0.48548(8) 0.32256(16) 0.39946(16)
C12_3 C 0.47849(8) 0.41963(16) 0.37230(16)
C13_3 C 0.43128(8) 0.45546(16) 0.32878(17)
H7_3 H 0.4266 0.5202 0.3116
C14_3 C 0.39128(8) 0.39346(16) 0.31130(16)
H8_3 H 0.3595 0.4160 0.2812
C15_3 C 0.39903(8) 0.29744(16) 0.33914(17)
C16_3 C 0.44571(8) 0.26084(16) 0.38439(17)
H9_3 H 0.4501 0.1967 0.4040
C17_3 C 0.55558(8) 0.22848(17) 0.37412(18)
H10_3 H 0.5899 0.2132 0.4014
H11_3 H 0.5504 0.2583 0.3115
H12_3 H 0.5364 0.1704 0.3668
C18_3 C 0.55159(9) 0.25478(18) 0.54461(18)
H13_3 H 0.5862 0.2407 0.5684
H14_3 H 0.5331 0.1964 0.5421
H15_3 H 0.5430 0.3000 0.5875
C19_3 C 0.31223(8) 0.24545(17) 0.32920(18)
H16_3 H 0.3007 0.3009 0.3516
C20_3 C 0.28715(8) 0.16218(17) 0.30143(18)
H17_3 H 0.2550 0.1505 0.3020
C21_3 C 0.35894(8) 0.14218(16) 0.28316(18)
H18_3 H 0.3859 0.1150 0.2687
C22_3 C 0.76167(8) 0.61814(16) 0.85117(16)
C23_3 C 0.75576(8) 0.68598(16) 0.92872(16)
C24_3 C 0.70903(8) 0.70960(18) 0.93324(18)
H19_3 H 0.6814 0.6828 0.8887
C25_3 C 0.79659(8) 0.72719(18) 0.99628(18)
H20_3 H 0.8281 0.7119 0.9939
C26_3 C 0.89324(8) 0.63192(16) 0.70358(17)
C27_3 C 0.94850(8) 0.62971(16) 0.72667(17)
C28_3 C 0.97452(9) 0.54409(18) 0.7390(3)
H21_3 H 0.9577 0.4858 0.7325
C29_3 C 0.97463(8) 0.71532(16) 0.73822(16)
H22_3 H 0.9577 0.7737 0.7300
N1_3 N 0.75156(6) 0.55201(13) 0.60320(14)
N2_3 N 0.67628(7) 0.54388(13) 0.50377(14)
N3_3 N 0.35812(7) 0.23174(13) 0.31778(14)
N4_2 N 0.31662(7) 0.09749(13) 0.27228(15)
O1_3 O 0.72967(6) 0.55985(12) 0.81220(12)
O2_2 O 0.80261(6) 0.62800(12) 0.82954(12)
O3_3 O 0.87055(6) 0.70796(13) 0.67805(14)
O4_3 O 0.87319(6) 0.55172(12) 0.71276(15)
Zn1_2 Zn 0.806868(9) 0.539819(17) 0.726176(18)
N10_2 N 0.81662(7) 0.40251(13) 0.77228(15)
H3_4 H 0.8003 0.0329 0.3707
C5_4 C 0.88797(8) 0.07815(16) 0.52355(16)
H4_4 H 0.8643 0.1238 0.4939
C6_4 C 0.93715(8) 0.10308(15) 0.55812(15)
C7_4 C 0.97300(8) 0.03386(15) 0.60122(16)
C10_4 C 0.96029(8) 0.20189(15) 0.55770(16)
C17_4 C 0.94442(8) 0.27152(17) 0.62588(18)
H10_4 H 0.9101 0.2868 0.5986
H11_4 H 0.9496 0.2417 0.6885
H12_4 H 0.9636 0.3296 0.6332
C18_4 C 0.94841(9) 0.24522(18) 0.45539(18)
H13_4 H 0.9138 0.2593 0.4316
H14_4 H 0.9669 0.3036 0.4579
H15_4 H 0.9570 0.2000 0.4125
H21_4 H 0.5423 0.0142 0.2675
H25_3 H 0.4577 0.0142 0.2325
H29_3 H 0.1997 0.0329 0.1293
H30_3 H 0.1357 0.1238 0.0061
C55_3 C 0.05159(9) 0.24522(18) 0.04461(18)
H39_3 H 0.0862 0.2593 0.0684
H40_3 H 0.0331 0.3036 0.0421
H41_3 H 0.0430 0.2000 0.0875
C39_4 C 0.20173(9) 0.89176(19) 0.96345(18)
H28_4 H 0.1895 0.8579 0.9053
C41_4 C 0.12525(8) 0.98335(16) 0.96599(16)
C45_4 C 0.04103(8) 0.93941(16) 0.88897(17)
H31_4 H 0.0174 0.8934 0.8600
C46_4 C 0.09043(8) 0.91377(16) 0.92242(17)
H32_4 H 0.1001 0.8507 0.9158
C48_4 C 0.98548(8) 0.17744(16) 0.89946(16)
C49_4 C 0.97849(8) 0.08037(16) 0.87230(16)
C50_4 C 0.93128(8) 0.04454(16) 0.82878(17)
C51_4 C 0.89128(8) 0.10654(16) 0.81130(16)
H34_4 H 0.8595 0.0840 0.7812
C52_4 C 0.89903(8) 0.20256(16) 0.83914(17)
C53_4 C 0.94571(8) 0.23916(16) 0.88439(17)
H35_4 H 0.9501 0.3033 0.9040
C56_4 C 0.81223(8) 0.25455(17) 0.82920(18)
H42_4 H 0.8007 0.1991 0.8516
C57_4 C 0.78715(8) 0.33782(17) 0.80143(18)
H43_4 H 0.7550 0.3495 0.8020
C58_4 C 0.85894(8) 0.35782(16) 0.78316(18)
H44_4 H 0.8859 0.3850 0.7687
N7_4 N 0.85812(7) 0.26826(13) 0.81778(14)
C34_3 C 0.10676(8) 0.63192(16) 0.79642(17)
C35_3 C 0.05150(8) 0.62971(16) 0.77333(17)
C36_3 C 0.02548(9) 0.54409(18) 0.7610(3)
H25_4 H 0.0423 0.4858 0.7675
C37_3 C 0.02537(8) 0.71532(16) 0.76178(16)
H26_3 H 0.0423 0.7737 0.7700
O7_3 O 0.12945(6) 0.70796(13) 0.82195(14)
O8_3 O 0.12681(6) 0.55172(12) 0.78724(15)
C38_3 C 0.25205(8) 0.61228(18) 0.97481(17)
H27_3 H 0.2266 0.6499 0.9836
C40_3 C 0.29232(8) 0.51153(16) 0.91210(16)
H29_4 H 0.3003 0.4671 0.8707
H30_4 H 0.3643 0.3762 0.9939
C55_4 C 0.44841(9) 0.25478(18) 0.95539(18)
H39_4 H 0.4138 0.2407 0.9316
H40_4 H 0.4669 0.1964 0.9579
H41_4 H 0.4570 0.3000 0.9125
N5_3 N 0.24844(6) 0.55201(13) 0.89680(14)
N6_3 N 0.32372(7) 0.54388(13) 0.99623(14)
Zn2_2 Zn 0.193132(9) 0.539819(17) 0.773824(18)
N9_2 N 0.18338(7) 0.40251(13) 0.72772(15)
O9_2 O 0.19739(6) 0.62800(12) 0.67046(12)
Zn4_2 Zn 0.693132(9) 0.960181(17) 0.273824(18)
C30_3 C 0.73833(8) 0.88186(16) 0.14883(16)
C31_3 C 0.74424(8) 0.81402(16) 0.07128(16)
C32_3 C 0.79097(8) 0.79040(18) 0.06676(18)
H23_3 H 0.8186 0.8172 0.1113
C33_3 C 0.70341(8) 0.77281(18) 0.00372(18)
H24_3 H 0.6719 0.7881 0.0061
O5_3 O 0.77033(6) 0.94015(12) 0.18780(12)
O6_3 O 0.69739(6) 0.87200(12) 0.17046(12)
Zn5_2 Zn 0.306868(9) 0.960181(17) 0.226176(18)
C22_4 C 0.23833(8) 0.61814(16) 0.64883(16)
C23_4 C 0.24424(8) 0.68598(16) 0.57128(16)
C24_4 C 0.29097(8) 0.70960(18) 0.56676(18)
H19_4 H 0.3186 0.6828 0.6113
C25_4 C 0.20341(8) 0.72719(18) 0.50372(18)
H20_4 H 0.1719 0.7119 0.5061
O1_4 O 0.27033(6) 0.55985(12) 0.68780(12)
C30_4 C 0.26167(8) 0.88186(16) 0.35117(16)
C31_4 C 0.25576(8) 0.81402(16) 0.42872(16)
C32_4 C 0.20903(8) 0.79040(18) 0.43324(18)
H23_4 H 0.1814 0.8172 0.3887
C33_4 C 0.29659(8) 0.77281(18) 0.49628(18)
H24_4 H 0.3281 0.7881 0.4939
O5_4 O 0.22967(6) 0.94015(12) 0.31220(12)
O6_4 O 0.30261(6) 0.87200(12) 0.32954(12)
C11_4 C 0.01452(8) 0.17744(16) 0.60054(16)
C12_4 C 0.02151(8) 0.08037(16) 0.62770(16)
C13_4 C 0.06872(8) 0.04454(16) 0.67122(17)
C14_4 C 0.10872(8) 0.10654(16) 0.68870(16)
H8_4 H 0.1405 0.0840 0.7188
C15_4 C 0.10097(8) 0.20256(16) 0.66086(17)
C16_4 C 0.05429(8) 0.23916(16) 0.61561(17)
H9_4 H 0.0499 0.3033 0.5960
C19_4 C 0.18777(8) 0.25455(17) 0.67080(18)
H16_4 H 0.1993 0.1991 0.6484
C20_4 C 0.21285(8) 0.33782(17) 0.69857(18)
H17_4 H 0.2450 0.3495 0.6980
C21_4 C 0.14106(8) 0.35782(16) 0.71684(18)
H18_4 H 0.1141 0.3850 0.7313
N3_4 N 0.14188(7) 0.26826(13) 0.68222(14)
C1_4 C 0.75205(8) 0.88772(18) 0.47481(17)
H1_4 H 0.7266 0.8501 0.4836
C2_4 C 0.79827(9) 0.89176(19) 0.53655(18)
H2_4 H 0.8105 0.8579 0.5947
C3_4 C 0.79232(8) 0.98847(16) 0.41210(16)
C4_4 C 0.87475(8) 0.98335(16) 0.53401(16)
C8_4 C 0.95897(8) 0.93941(16) 0.61103(17)
H5_4 H 0.9826 0.8934 0.6400
C9_4 C 0.90957(8) 0.91377(16) 0.57758(17)
H6_4 H 0.8999 0.8507 0.5842
C26_4 C 0.60676(8) 0.86808(16) 0.29642(17)
C27_4 C 0.55150(8) 0.87029(16) 0.27333(17)
C28_4 C 0.52548(9) 0.95591(18) 0.2610(3)
C29_4 C 0.52537(8) 0.78468(16) 0.26178(16)
H22_4 H 0.5423 0.7263 0.2700
N1_4 N 0.74844(6) 0.94799(13) 0.39680(14)
N2_4 N 0.82372(7) 0.95612(13) 0.49623(14)
O3_4 O 0.62945(6) 0.79204(13) 0.32195(14)
O4_4 O 0.62681(6) 0.94828(12) 0.28724(15)
C34_4 C 0.39324(8) 0.86808(16) 0.20358(17)
C35_4 C 0.44850(8) 0.87029(16) 0.22667(17)
C36_4 C 0.47452(9) 0.95591(18) 0.2390(3)
C37_4 C 0.47463(8) 0.78468(16) 0.23822(16)
H26_4 H 0.4577 0.7263 0.2300
O7_4 O 0.37055(6) 0.79204(13) 0.17805(14)
O8_4 O 0.37319(6) 0.94828(12) 0.21276(15)
C38_4 C 0.24795(8) 0.88772(18) 0.02519(17)
H27_4 H 0.2734 0.8501 0.0164
C40_4 C 0.20768(8) 0.98847(16) 0.08790(16)
N5_4 N 0.25156(6) 0.94799(13) 0.10320(14)
N6_4 N 0.17628(7) 0.95612(13) 0.00377(14)
H7_4 H 0.0734 0.9798 0.6884
C42_4 C 0.11203(8) 0.07815(16) 0.97645(16)
C43_4 C 0.06285(8) 0.10308(15) 0.94188(15)
C44_4 C 0.02700(8) 0.03386(15) 0.89878(16)
C47_4 C 0.03971(8) 0.20189(15) 0.94230(16)
C54_4 C 0.05558(8) 0.27152(17) 0.87412(18)
H36_4 H 0.0899 0.2868 0.9014
H37_4 H 0.0504 0.2417 0.8115
H38_4 H 0.0364 0.3296 0.8668
H33_4 H 0.9266 0.9798 0.8116
loop_
_geom_bond_atom_site_label_1
_geom_bond_atom_site_label_2
_geom_bond_site_symmetry_1
_geom_bond_site_symmetry_2
C50 C49 1_555 1_555
C51 C50 1_555 1_555
H34 C51 1_555 1_555
C52 C51 1_555 1_555
C53 C48 1_555 1_555
H35 C53 1_555 1_555
C56 H42 1_555 1_555
C57 C56 1_555 1_555
H43 C57 1_555 1_555
C58 H44 1_555 1_555
N7 C52 1_555 1_555
N8 C57 1_555 1_555
Zn4 N8 1_555 1_555
C48 C49 1_555 1_555
C52 C53 1_555 1_555
C56 N7 1_555 1_555
C58 N7 1_555 1_555
C58 N8 1_555 1_555
C30 C31 1_555 1_555
C31 C32 1_555 1_555
H23 C32 1_555 1_555
H24 C33 1_555 1_555
O5 C30 1_555 1_555
O6 C30 1_555 1_555
H28 C39 1_555 1_555
H31 C45 1_555 1_555
C46 C41 1_555 1_555
H32 C46 1_555 1_555
Zn4 O6 1_555 1_555
C31 C33 1_555 1_555
C45 C46 1_555 1_555
C5 H4 1_555 1_555
C6 C5 1_555 1_555
C7 C6 1_555 1_555
C10 C6 1_555 1_555
C17 C10 1_555 1_555
H10 C17 1_555 1_555
H11 C17 1_555 1_555
H12 C17 1_555 1_555
C18 C10 1_555 1_555
H13 C18 1_555 1_555
H14 C18 1_555 1_555
H15 C18 1_555 1_555
H39 C55 1_555 1_555
H40 C55 1_555 1_555
H41 C55 1_555 1_555
C1 H1 1_555 1_555
C2 C1 1_555 1_555
H2 C2 1_555 1_555
C3 H3_2 1_555 1_555
C4 C5_2 1_555 1_555
C5_2 H4_2 1_555 1_555
C6_2 C5_2 1_555 1_555
C7_2 C6_2 1_555 1_555
C8 C7_2 1_555 1_555
H5 C8 1_555 1_555
C9 C4 1_555 1_555
H6 C9 1_555 1_555
C10_2 C6_2 1_555 1_555
C11 C10_2 1_555 1_555
C12 C7_2 1_555 1_555
C13 C12 1_555 1_555
H7 C13 1_555 1_555
C14 C13 1_555 1_555
H8 C14 1_555 1_555
C15 C14 1_555 1_555
C16 C11 1_555 1_555
H9 C16 1_555 1_555
C17_2 C10_2 1_555 1_555
H10_2 C17_2 1_555 1_555
H11_2 C17_2 1_555 1_555
H12_2 C17_2 1_555 1_555
C18_2 C10_2 1_555 1_555
H13_2 C18_2 1_555 1_555
H14_2 C18_2 1_555 1_555
H15_2 C18_2 1_555 1_555
C19 H16 1_555 1_555
C20 C19 1_555 1_555
H17 C20 1_555 1_555
C21 H18 1_555 1_555
C26 C27 1_555 1_555
C27 C28 1_555 1_555
C28 H21_2 1_555 1_555
C29 C27 1_555 1_555
H22 C29 1_555 1_555
N1 C1 1_555 1_555
N2 C2 1_555 1_555
N3 C15 1_555 1_555
N9 C20 1_555 1_555
O3 C26 1_555 1_555
O4 C26 1_555 1_555
Zn4 N1 1_555 1_555
C3 N1 1_555 1_555
C3 N2 1_555 1_555
C4 N2 1_555 1_555
C8 C9 1_555 1_555
C11 C12 1_555 1_555
C15 C16 1_555 1_555
C19 N3 1_555 1_555
C21 N3 1_555 1_555
C21 N9 1_555 1_555
O4 Zn4 1_555 1_555
H28_2 C39_2 1_555 1_555
C41_2 C42 1_555 1_555
C43 C42 1_555 1_555
C44 C43 1_555 1_555
C45_2 C44 1_555 1_555
H31_2 C45_2 1_555 1_555
C46_2 C41_2 1_555 1_555
H32_2 C46_2 1_555 1_555
C47 C43 1_555 1_555
C48_2 C47 1_555 1_555
C49_2 C44 1_555 1_555
C50_2 C49_2 1_555 1_555
H33_2 C50_2 1_555 1_555
C51_2 C50_2 1_555 1_555
H34_2 C51_2 1_555 1_555
C52_2 C51_2 1_555 1_555
C53_2 C48_2 1_555 1_555
H35_2 C53_2 1_555 1_555
C54 C47 1_555 1_555
H36 C54 1_555 1_555
H37 C54 1_555 1_555
H38 C54 1_555 1_555
C56_2 H42_2 1_555 1_555
C57_2 C56_2 1_555 1_555
H43_2 C57_2 1_555 1_555
C58_2 H44_2 1_555 1_555
N7_2 C52_2 1_555 1_555
N10 C57_2 1_555 1_555
C45_2 C46_2 1_555 1_555
C48_2 C49_2 1_555 1_555
C52_2 C53_2 1_555 1_555
C56_2 N7_2 1_555 1_555
C58_2 N7_2 1_555 1_555
C58_2 N10 1_555 1_555
C1_2 H1_2 1_555 1_555
C2_2 C1_2 1_555 1_555
H2_2 C2_2 1_555 1_555
H5_2 C8_2 1_555 1_555
C9_2 C4_2 1_555 1_555
H6_2 C9_2 1_555 1_555
C22 C23 1_555 1_555
C23 C24 1_555 1_555
C24 H19 1_555 1_555
C25 C23 1_555 1_555
H20 C25 1_555 1_555
C26_2 C27_2 1_555 1_555
C27_2 C28_2 1_555 1_555
C29_2 C27_2 1_555 1_555
H22_2 C29_2 1_555 1_555
N1_2 C1_2 1_555 1_555
N2_2 C2_2 1_555 1_555
O1 C22 1_555 1_555
O2 C22 1_555 1_555
O3_2 C26_2 1_555 1_555
O4_2 C26_2 1_555 1_555
Zn1 N1_2 1_555 1_555
C34 C35 1_555 1_555
C35 C36 1_555 1_555
C36 C28_2 1_555 1_555
C37 C29_2 1_555 1_555
H26 C37 1_555 1_555
O7 C34 1_555 1_555
O8 C34 1_555 1_555
C38 H27 1_555 1_555
N5 C38 1_555 1_555
Zn2 O8 1_555 1_555
O9 Zn2 1_555 1_555
C3_2 N1_2 1_555 1_555
C3_2 N2_2 1_555 1_555
C4_2 N2_2 1_555 1_555
C8_2 C9_2 1_555 1_555
O2 Zn1 1_555 1_555
O4_2 Zn1 1_555 1_555
C35 C37 1_555 1_555
C40 N5 1_555 1_555
C40 N6 1_555 1_555
N5 Zn2 1_555 1_555
C13_2 C12_2 1_555 1_555
C14_2 C13_2 1_555 1_555
H8_2 C14_2 1_555 1_555
C15_2 C14_2 1_555 1_555
C16_2 C11_2 1_555 1_555
H9_2 C16_2 1_555 1_555
C19_2 H16_2 1_555 1_555
C20_2 C19_2 1_555 1_555
H17_2 C20_2 1_555 1_555
C21_2 H18_2 1_555 1_555
N3_2 C15_2 1_555 1_555
N4 C20_2 1_555 1_555
Zn5 N4 1_555 1_555
C11_2 C12_2 1_555 1_555
C15_2 C16_2 1_555 1_555
C19_2 N3_2 1_555 1_555
C21_2 N3_2 1_555 1_555
C21_2 N4 1_555 1_555
C22_2 C23_2 1_555 1_555
C23_2 C24_2 1_555 1_555
C24_2 H19_2 1_555 1_555
C25_2 C23_2 1_555 1_555
H20_2 C25_2 1_555 1_555
O1_2 C22_2 1_555 1_555
O9 C22_2 1_555 1_555
C30_2 C31_2 1_555 1_555
C31_2 C32_2 1_555 1_555
C32_2 C25_2 1_555 1_555
H23_2 C32_2 1_555 1_555
C33_2 C24_2 1_555 1_555
H24_2 C33_2 1_555 1_555
O5_2 C30_2 1_555 1_555
O6_2 C30_2 1_555 1_555
Zn5 O6_2 1_555 1_555
C31_2 C33_2 1_555 1_555
C34_2 C35_2 1_555 1_555
C35_2 C36_2 1_555 1_555
H25_2 C36_2 1_555 1_555
H26_2 C37_2 1_555 1_555
O7_2 C34_2 1_555 1_555
O8_2 C34_2 1_555 1_555
C38_2 H27_2 1_555 1_555
C40_2 H29_2 1_555 1_555
H39_2 C55_2 1_555 1_555
H40_2 C55_2 1_555 1_555
H41_2 C55_2 1_555 1_555
N5_2 C38_2 1_555 1_555
Zn5 O8_2 1_555 1_555
C35_2 C37_2 1_555 1_555
C40_2 N5_2 1_555 1_555
C40_2 N6_2 1_555 1_555
N5_2 Zn5 1_555 1_555
C43_2 C42_2 1_555 1_555
C44_2 C43_2 1_555 1_555
C47_2 C43_2 1_555 1_555
C54_2 C47_2 1_555 1_555
H36_2 C54_2 1_555 1_555
H37_2 C54_2 1_555 1_555
H38_2 C54_2 1_555 1_555
H28_3 C39_3 1_555 1_555
C41_3 C42_3 1_555 1_555
C43_3 C42_3 1_555 1_555
C44_3 C43_3 1_555 1_555
C45_3 C44_3 1_555 1_555
H31_3 C45_3 1_555 1_555
C46_3 C41_3 1_555 1_555
H32_3 C46_3 1_555 1_555
C47_3 C43_3 1_555 1_555
C48_3 C47_3 1_555 1_555
C49_3 C44_3 1_555 1_555
C50_3 C49_3 1_555 1_555
H33_3 C50_3 1_555 1_555
C51_3 C50_3 1_555 1_555
H34_3 C51_3 1_555 1_555
C52_3 C51_3 1_555 1_555
C53_3 C48_3 1_555 1_555
H35_3 C53_3 1_555 1_555
C54_3 C47_3 1_555 1_555
H36_3 C54_3 1_555 1_555
H37_3 C54_3 1_555 1_555
H38_3 C54_3 1_555 1_555
C56_3 H42_3 1_555 1_555
C57_3 C56_3 1_555 1_555
H43_3 C57_3 1_555 1_555
C58_3 H44_3 1_555 1_555
N7_3 C52_3 1_555 1_555
N8_2 C57_3 1_555 1_555
C45_3 C46_3 1_555 1_555
C48_3 C49_3 1_555 1_555
C52_3 C53_3 1_555 1_555
C56_3 N7_3 1_555 1_555
C58_3 N7_3 1_555 1_555
C58_3 N8_2 1_555 1_555
C1_3 H1_3 1_555 1_555
C2_3 C1_3 1_555 1_555
H2_3 C2_3 1_555 1_555
C3_3 H3_3 1_555 1_555
C4_3 C5_3 1_555 1_555
C5_3 H4_3 1_555 1_555
C6_3 C5_3 1_555 1_555
C7_3 C6_3 1_555 1_555
C8_3 C7_3 1_555 1_555
H5_3 C8_3 1_555 1_555
C9_3 C4_3 1_555 1_555
H6_3 C9_3 1_555 1_555
C10_3 C6_3 1_555 1_555
C11_3 C10_3 1_555 1_555
C12_3 C7_3 1_555 1_555
C13_3 C12_3 1_555 1_555
H7_3 C13_3 1_555 1_555
C14_3 C13_3 1_555 1_555
H8_3 C14_3 1_555 1_555
C15_3 C14_3 1_555 1_555
C16_3 C11_3 1_555 1_555
H9_3 C16_3 1_555 1_555
C17_3 C10_3 1_555 1_555
H10_3 C17_3 1_555 1_555
H11_3 C17_3 1_555 1_555
H12_3 C17_3 1_555 1_555
C18_3 C10_3 1_555 1_555
H13_3 C18_3 1_555 1_555
H14_3 C18_3 1_555 1_555
H15_3 C18_3 1_555 1_555
C19_3 H16_3 1_555 1_555
C20_3 C19_3 1_555 1_555
H17_3 C20_3 1_555 1_555
C21_3 H18_3 1_555 1_555
C22_3 C23_3 1_555 1_555
C23_3 C24_3 1_555 1_555
C24_3 H19_3 1_555 1_555
C25_3 C23_3 1_555 1_555
H20_3 C25_3 1_555 1_555
C26_3 C27_3 1_555 1_555
C27_3 C28_3 1_555 1_555
C28_3 H21_3 1_555 1_555
C29_3 C27_3 1_555 1_555
H22_3 C29_3 1_555 1_555
N1_3 C1_3 1_555 1_555
N2_3 C2_3 1_555 1_555
N3_3 C15_3 1_555 1_555
N4_2 C20_3 1_555 1_555
O1_3 C22_3 1_555 1_555
O2_2 C22_3 1_555 1_555
O3_3 C26_3 1_555 1_555
O4_3 C26_3 1_555 1_555
Zn1_2 N1_3 1_555 1_555
N10_2 Zn1_2 1_555 1_555
C3_3 N1_3 1_555 1_555
C3_3 N2_3 1_555 1_555
C4_3 N2_3 1_555 1_555
C8_3 C9_3 1_555 1_555
C11_3 C12_3 1_555 1_555
C15_3 C16_3 1_555 1_555
C19_3 N3_3 1_555 1_555
C21_3 N3_3 1_555 1_555
C21_3 N4_2 1_555 1_555
O2_2 Zn1_2 1_555 1_555
O4_3 Zn1_2 1_555 1_555
C5_4 H4_4 1_555 1_555
C6_4 C5_4 1_555 1_555
C7_4 C6_4 1_555 1_555
C10_4 C6_4 1_555 1_555
C17_4 C10_4 1_555 1_555
H10_4 C17_4 1_555 1_555
H11_4 C17_4 1_555 1_555
H12_4 C17_4 1_555 1_555
C18_4 C10_4 1_555 1_555
H13_4 C18_4 1_555 1_555
H14_4 C18_4 1_555 1_555
H15_4 C18_4 1_555 1_555
H39_3 C55_3 1_555 1_555
H40_3 C55_3 1_555 1_555
H41_3 C55_3 1_555 1_555
H28_4 C39_4 1_555 1_555
H31_4 C45_4 1_555 1_555
C46_4 C41_4 1_555 1_555
H32_4 C46_4 1_555 1_555
C45_4 C46_4 1_555 1_555
C50_4 C49_4 1_555 1_555
C51_4 C50_4 1_555 1_555
H34_4 C51_4 1_555 1_555
C52_4 C51_4 1_555 1_555
C53_4 C48_4 1_555 1_555
H35_4 C53_4 1_555 1_555
C56_4 H42_4 1_555 1_555
C57_4 C56_4 1_555 1_555
H43_4 C57_4 1_555 1_555
C58_4 H44_4 1_555 1_555
N7_4 C52_4 1_555 1_555
N10_2 C57_4 1_555 1_555
C48_4 C49_4 1_555 1_555
C52_4 C53_4 1_555 1_555
C56_4 N7_4 1_555 1_555
C58_4 N7_4 1_555 1_555
C58_4 N10_2 1_555 1_555
C34_3 C35_3 1_555 1_555
C35_3 C36_3 1_555 1_555
H25_4 C36_3 1_555 1_555
H26_3 C37_3 1_555 1_555
O7_3 C34_3 1_555 1_555
O8_3 C34_3 1_555 1_555
C38_3 H27_3 1_555 1_555
C40_3 H29_4 1_555 1_555
H39_4 C55_4 1_555 1_555
H40_4 C55_4 1_555 1_555
H41_4 C55_4 1_555 1_555
N5_3 C38_3 1_555 1_555
Zn2_2 O8_3 1_555 1_555
N9_2 Zn2_2 1_555 1_555
O9_2 Zn2_2 1_555 1_555
C35_3 C37_3 1_555 1_555
C40_3 N5_3 1_555 1_555
C40_3 N6_3 1_555 1_555
N5_3 Zn2_2 1_555 1_555
C30_3 C31_3 1_555 1_555
C31_3 C32_3 1_555 1_555
H23_3 C32_3 1_555 1_555
H24_3 C33_3 1_555 1_555
O5_3 C30_3 1_555 1_555
O6_3 C30_3 1_555 1_555
Zn4_2 O6_3 1_555 1_555
C31_3 C33_3 1_555 1_555
C22_4 C23_4 1_555 1_555
C23_4 C24_4 1_555 1_555
C24_4 H19_4 1_555 1_555
C25_4 C23_4 1_555 1_555
H20_4 C25_4 1_555 1_555
O1_4 C22_4 1_555 1_555
O9_2 C22_4 1_555 1_555
C30_4 C31_4 1_555 1_555
C31_4 C32_4 1_555 1_555
C32_4 C25_4 1_555 1_555
H23_4 C32_4 1_555 1_555
C33_4 C24_4 1_555 1_555
H24_4 C33_4 1_555 1_555
O5_4 C30_4 1_555 1_555
O6_4 C30_4 1_555 1_555
Zn5_2 O6_4 1_555 1_555
C31_4 C33_4 1_555 1_555
C13_4 C12_4 1_555 1_555
C14_4 C13_4 1_555 1_555
H8_4 C14_4 1_555 1_555
C15_4 C14_4 1_555 1_555
C16_4 C11_4 1_555 1_555
H9_4 C16_4 1_555 1_555
C19_4 H16_4 1_555 1_555
C20_4 C19_4 1_555 1_555
H17_4 C20_4 1_555 1_555
C21_4 H18_4 1_555 1_555
N3_4 C15_4 1_555 1_555
N9_2 C20_4 1_555 1_555
C11_4 C12_4 1_555 1_555
C15_4 C16_4 1_555 1_555
C19_4 N3_4 1_555 1_555
C21_4 N3_4 1_555 1_555
C21_4 N9_2 1_555 1_555
C1_4 H1_4 1_555 1_555
C2_4 C1_4 1_555 1_555
H2_4 C2_4 1_555 1_555
H5_4 C8_4 1_555 1_555
C9_4 C4_4 1_555 1_555
H6_4 C9_4 1_555 1_555
C26_4 C27_4 1_555 1_555
C27_4 C28_4 1_555 1_555
C29_4 C27_4 1_555 1_555
H22_4 C29_4 1_555 1_555
N1_4 C1_4 1_555 1_555
N2_4 C2_4 1_555 1_555
O3_4 C26_4 1_555 1_555
O4_4 C26_4 1_555 1_555
Zn4_2 N1_4 1_555 1_555
C34_4 C35_4 1_555 1_555
C35_4 C36_4 1_555 1_555
C36_4 C28_4 1_555 1_555
C37_4 C29_4 1_555 1_555
H26_4 C37_4 1_555 1_555
O7_4 C34_4 1_555 1_555
O8_4 C34_4 1_555 1_555
C38_4 H27_4 1_555 1_555
N5_4 C38_4 1_555 1_555
Zn5_2 O8_4 1_555 1_555
C3_4 N1_4 1_555 1_555
C3_4 N2_4 1_555 1_555
C4_4 N2_4 1_555 1_555
C8_4 C9_4 1_555 1_555
O4_4 Zn4_2 1_555 1_555
C35_4 C37_4 1_555 1_555
C40_4 N5_4 1_555 1_555
C40_4 N6_4 1_555 1_555
N5_4 Zn5_2 1_555 1_555
C43_4 C42_4 1_555 1_555
C44_4 C43_4 1_555 1_555
C47_4 C43_4 1_555 1_555
C54_4 C47_4 1_555 1_555
H36_4 C54_4 1_555 1_555
H37_4 C54_4 1_555 1_555
H38_4 C54_4 1_555 1_555

#END
