
###############################################################################
#
# This file contains modified crystal structure data generated from the
# MOF subset of the Cambridge Structural Database (CSD) v543 
# hosted by the Cambridge Crystallographic Data Centre (CCDC).
#
# This work is licensed under the Creative Commons
# Attribution-NonCommercial-ShareAlike 4.0 International License.
# To view a copy of this license, visit
# http://creativecommons.org/licenses/by-nc-sa/4.0/
# or send a letter to
# Creative Commons, PO Box 1866, Mountain View, CA 94042, USA.
#
# CIF created using the CSD Python API on 29 September 2022
# The structure has been converted into the P1 space group
# The structure has a 3D framework
# The original CSD entry GIVDUL is in the tetragonal crystal system
# The framework has been calculated to contain at least 10.0% void space
# The void calculation uses a probe of radius 1.32A, grid spacing 0.4
#
###############################################################################

data_GIVDUL
_chemical_formula_moiety         '(C64 H96 Cu32 I16 N48 O32)n'
_symmetry_cell_setting           triclinic
_symmetry_space_group_name_H-M   'P 1'
_symmetry_Int_Tables_number      1
_space_group_name_Hall           'P 1'
loop_
_symmetry_equiv_pos_site_id
_symmetry_equiv_pos_as_xyz
1 x,y,z
_cell_length_a                   17.3064(8)
_cell_length_b                   17.3064(8)
_cell_length_c                   18.5975(16)
_cell_angle_alpha                90
_cell_angle_beta                 90
_cell_angle_gamma                90
_cell_volume                     5570.16
loop_
_atom_site_label
_atom_site_type_symbol
_atom_site_fract_x
_atom_site_fract_y
_atom_site_fract_z
C10 C 0.7441(7) 0.0060(8) 0.4771(9)
H13 H 0.7389 0.0615 0.4716
H17 H 0.2547 0.0179 0.7267
O7 O 0.2751(12) 0.0381(12) 0.8288(9)
H22 H 0.2559 0.0814 0.8283
N15 N 0.3883(4) 0.0171(4) 0.5755(4)
Cu12 Cu 0.62431(8) 0.05354(8) 0.34880(7)
I1 I 0.62767(3) 0.70682(3) 0.54699(3)
Cu1 Cu 0.48392(7) 0.67574(7) 0.56850(6)
N1 N 0.4312(4) 0.6024(3) 0.5039(3)
N2 N 0.3560(4) 0.5818(4) 0.5207(4)
C1 C 0.5212(6) 0.5694(6) 0.4057(5)
H1 H 0.5583 0.5969 0.4352
H2 H 0.5420 0.5185 0.3956
C2 C 0.2559(7) 0.4940(8) 0.4771(9)
H3 H 0.2611 0.4385 0.4716
H4 H 0.2321 0.5047 0.5233
O1 O 0.5101(11) 0.6106(10) 0.3391(9)
H5 H 0.5515 0.6140 0.3178
O2 O 0.2119(12) 0.5251(12) 0.4212(9)
H6 H 0.1686 0.5059 0.4217
C3 C 0.4483(5) 0.5616(4) 0.4452(4)
C4 C 0.3325(5) 0.5328(5) 0.4713(5)
N3 N 0.3883(4) 0.5171(4) 0.4245(4)
Cu2 Cu 0.30354(8) 0.62569(8) 0.59880(7)
I2 I 0.45682(3) 0.62233(3) 0.70301(3)
I3 I 0.37233(3) 0.79318(3) 0.54699(3)
I4 I 0.54318(3) 0.87767(3) 0.70301(3)
Cu3 Cu 0.57426(7) 0.73392(7) 0.68150(6)
Cu4 Cu 0.51608(7) 0.82426(7) 0.56850(6)
Cu5 Cu 0.42574(7) 0.76608(7) 0.68150(6)
N4 N 0.3524(3) 0.8188(4) 0.7461(3)
N5 N 0.6476(3) 0.6812(4) 0.7461(3)
N6 N 0.5688(4) 0.8976(3) 0.5039(3)
N7 N 0.3318(4) 0.8940(4) 0.7293(4)
N8 N 0.6682(4) 0.6060(4) 0.7293(4)
N9 N 0.6440(4) 0.9182(4) 0.5207(4)
C5 C 0.3194(6) 0.7288(6) 0.8443(5)
C6 C 0.6806(6) 0.7712(6) 0.8443(5)
C7 C 0.4788(6) 0.9306(6) 0.4057(5)
H7 H 0.3469 0.6917 0.8148
H8 H 0.6531 0.8083 0.8148
H9 H 0.4417 0.9031 0.4352
H10 H 0.2685 0.7080 0.8544
H11 H 0.7315 0.7920 0.8544
H12 H 0.4580 0.9815 0.3956
C8 C 0.2440(8) 0.9941(7) 0.7729(9)
C9 C 0.7560(8) 0.5059(7) 0.7729(9)
H14 H 0.1885 0.9889 0.7784
H15 H 0.8115 0.5111 0.7784
H16 H 0.7679 0.9953 0.5233
H18 H 0.7453 0.4821 0.7267
O3 O 0.3606(10) 0.7399(11) 0.9109(9)
O4 O 0.6394(10) 0.7601(11) 0.9109(9)
O5 O 0.4899(11) 0.8894(10) 0.3391(9)
H19 H 0.4485 0.8860 0.3178
H20 H 0.3640 0.6985 0.9322
H21 H 0.6360 0.8015 0.9322
O6 O 0.7881(12) 0.9749(12) 0.4212(9)
O8 O 0.7249(12) 0.4619(12) 0.8288(9)
H23 H 0.7441 0.4186 0.8283
H24 H 0.8314 0.9941 0.4217
C11 C 0.3116(4) 0.8017(5) 0.8048(4)
C12 C 0.6884(4) 0.6983(5) 0.8048(4)
C13 C 0.5517(5) 0.9384(4) 0.4452(4)
C14 C 0.2828(5) 0.9175(5) 0.7787(5)
C15 C 0.7172(5) 0.5825(5) 0.7787(5)
C16 C 0.6675(5) 0.9672(5) 0.4713(5)
N10 N 0.2329(4) 0.6383(4) 0.6745(4)
N11 N 0.2671(4) 0.8617(4) 0.8255(4)
N12 N 0.7329(4) 0.6383(4) 0.8255(4)
N13 N 0.6117(4) 0.9829(4) 0.4245(4)
N14 N 0.7671(4) 0.8617(4) 0.6745(4)
N16 N 0.6117(4) 0.4829(4) 0.5755(4)
Cu6 Cu 0.37569(8) 0.44646(8) 0.34880(7)
Cu7 Cu 0.37569(8) 0.94646(8) 0.65120(7)
Cu8 Cu 0.62431(8) 0.55354(8) 0.65120(7)
Cu9 Cu 0.69646(8) 0.87431(8) 0.59880(7)
Cu10 Cu 0.19646(8) 0.87431(8) 0.90120(7)
Cu11 Cu 0.80354(8) 0.62569(8) 0.90120(7)
C9_2 C 0.2441(7) 0.0060(8) 0.0229(9)
H15_2 H 0.2389 0.0615 0.0284
Cu11_2 Cu 0.12431(8) 0.05354(8) 0.15120(7)
I1_2 I 0.04318(3) 0.87767(3) 0.79699(3)
Cu1_2 Cu 0.07426(7) 0.73392(7) 0.81850(6)
N1_2 N 0.1476(3) 0.6812(4) 0.7539(3)
N2_2 N 0.1682(4) 0.6060(4) 0.7707(4)
C1_2 C 0.1806(6) 0.7712(6) 0.6557(5)
H1_2 H 0.1531 0.8083 0.6852
H2_2 H 0.2315 0.7920 0.6456
C2_2 C 0.2560(8) 0.5059(7) 0.7271(9)
H3_2 H 0.3115 0.5111 0.7216
H4_2 H 0.2453 0.4821 0.7733
O1_2 O 0.1394(10) 0.7601(11) 0.5891(9)
H5_2 H 0.1360 0.8015 0.5678
O2_2 O 0.2249(12) 0.4619(12) 0.6712(9)
H6_2 H 0.2441 0.4186 0.6717
C3_2 C 0.1884(4) 0.6983(5) 0.6952(4)
C4_2 C 0.2172(5) 0.5825(5) 0.7213(5)
Cu2_2 Cu 0.12431(8) 0.55354(8) 0.84880(7)
I2_2 I 0.12767(3) 0.70682(3) 0.95301(3)
Cu3_2 Cu 0.01608(7) 0.82426(7) 0.93150(6)
N5_2 N 0.0688(4) 0.8976(3) 0.9961(3)
N8_2 N 0.1440(4) 0.9182(4) 0.9793(4)
H18_2 H 0.2679 0.9953 0.9767
N10_2 N 0.1117(4) 0.4829(4) 0.9245(4)
C6_2 C 0.9788(6) 0.9306(6) 0.0943(5)
H8_2 H 0.9417 0.9031 0.0648
H11_2 H 0.9580 0.9815 0.1044
C8_2 C 0.7559(7) 0.4940(8) 0.0229(9)
H14_2 H 0.7611 0.4385 0.0284
O4_2 O 0.9899(11) 0.8894(10) 0.1609(9)
H21_2 H 0.9485 0.8860 0.1822
O7_2 O 0.7119(12) 0.5251(12) 0.0788(9)
H22_2 H 0.6686 0.5059 0.0783
C11_2 C 0.9483(5) 0.5616(4) 0.0548(4)
C14_2 C 0.8325(5) 0.5328(5) 0.0287(5)
N11_2 N 0.8883(4) 0.5171(4) 0.0755(4)
Cu10_2 Cu 0.87569(8) 0.44646(8) 0.15120(7)
I3_2 I 0.95682(3) 0.62233(3) 0.79699(3)
I4_2 I 0.87233(3) 0.79318(3) 0.95301(3)
Cu4_2 Cu 0.92574(7) 0.76608(7) 0.81850(6)
Cu5_2 Cu 0.98392(7) 0.67574(7) 0.93150(6)
N4_2 N 0.9312(4) 0.6024(3) 0.9961(3)
N6_2 N 0.8524(3) 0.8188(4) 0.7539(3)
N7_2 N 0.8560(4) 0.5818(4) 0.9793(4)
N9_2 N 0.8318(4) 0.8940(4) 0.7707(4)
C7_2 C 0.8194(6) 0.7288(6) 0.6557(5)
H9_2 H 0.8469 0.6917 0.6852
H12_2 H 0.7685 0.7080 0.6456
C10_2 C 0.7440(8) 0.9941(7) 0.7271(9)
H13_2 H 0.6885 0.9889 0.7216
H17_2 H 0.7321 0.5047 0.9767
O5_2 O 0.8606(10) 0.7399(11) 0.5891(9)
H19_2 H 0.8640 0.6985 0.5678
C13_2 C 0.8116(4) 0.8017(5) 0.6952(4)
C16_2 C 0.7828(5) 0.9175(5) 0.7213(5)
Cu9_2 Cu 0.87569(8) 0.94646(8) 0.84880(7)
I1_3 I 0.12767(3) 0.20682(3) 0.04699(3)
I4_3 I 0.04318(3) 0.37767(3) 0.20301(3)
Cu3_3 Cu 0.07426(7) 0.23392(7) 0.18150(6)
Cu4_3 Cu 0.01608(7) 0.32426(7) 0.06850(6)
N5_3 N 0.1476(3) 0.1812(4) 0.2461(3)
N6_3 N 0.0688(4) 0.3976(3) 0.0039(3)
N8_3 N 0.1682(4) 0.1060(4) 0.2293(4)
N9_3 N 0.1440(4) 0.4182(4) 0.0207(4)
C6_3 C 0.1806(6) 0.2712(6) 0.3443(5)
H8_3 H 0.1531 0.3083 0.3148
H11_3 H 0.2315 0.2920 0.3544
C9_3 C 0.2560(8) 0.0059(7) 0.2729(9)
H15_3 H 0.3115 0.0111 0.2784
H16_2 H 0.2679 0.4953 0.0233
O4_3 O 0.1394(10) 0.2601(11) 0.4109(9)
H21_3 H 0.1360 0.3015 0.4322
C12_2 C 0.1884(4) 0.1983(5) 0.3048(4)
C15_2 C 0.2172(5) 0.0825(5) 0.2787(5)
N12_2 N 0.2329(4) 0.1383(4) 0.3255(4)
N14_2 N 0.2671(4) 0.3617(4) 0.1745(4)
Cu9_3 Cu 0.19646(8) 0.37431(8) 0.09880(7)
Cu11_3 Cu 0.30354(8) 0.12569(8) 0.40120(7)
C1_3 C 0.0212(6) 0.0694(6) 0.9057(5)
H1_3 H 0.0583 0.0969 0.9352
H2_3 H 0.0420 0.0185 0.8956
O1_3 O 0.0101(11) 0.1106(10) 0.8391(9)
H5_3 H 0.0515 0.1140 0.8178
C10_3 C 0.2441(7) 0.5060(8) 0.9771(9)
H13_3 H 0.2389 0.5615 0.9716
O6_2 O 0.2881(12) 0.4749(12) 0.9212(9)
H24_2 H 0.3314 0.4941 0.9217
C13_3 C 0.0517(5) 0.4384(4) 0.9452(4)
C16_3 C 0.1675(5) 0.4672(5) 0.9713(5)
Cu1_3 Cu 0.98392(7) 0.17574(7) 0.06850(6)
N1_3 N 0.9312(4) 0.1024(3) 0.0039(3)
N2_3 N 0.8560(4) 0.0818(4) 0.0207(4)
H4_3 H 0.7321 0.0047 0.0233
Cu2_3 Cu 0.80354(8) 0.12569(8) 0.09880(7)
I2_3 I 0.95682(3) 0.12233(3) 0.20301(3)
I3_3 I 0.87233(3) 0.29318(3) 0.04699(3)
Cu5_3 Cu 0.92574(7) 0.26608(7) 0.18150(6)
N4_3 N 0.8524(3) 0.3188(4) 0.2461(3)
N7_3 N 0.8318(4) 0.3940(4) 0.2293(4)
C5_2 C 0.8194(6) 0.2288(6) 0.3443(5)
H7_2 H 0.8469 0.1917 0.3148
H10_2 H 0.7685 0.2080 0.3544
C8_3 C 0.7440(8) 0.4941(7) 0.2729(9)
H14_3 H 0.6885 0.4889 0.2784
H17_3 H 0.7547 0.5179 0.2267
O3_2 O 0.8606(10) 0.2399(11) 0.4109(9)
H20_2 H 0.8640 0.1985 0.4322
O7_3 O 0.7751(12) 0.5381(12) 0.3288(9)
H22_3 H 0.7559 0.5814 0.3283
C11_3 C 0.8116(4) 0.3017(5) 0.3048(4)
C14_3 C 0.7828(5) 0.4175(5) 0.2787(5)
N10_3 N 0.7329(4) 0.1383(4) 0.1745(4)
N11_3 N 0.7671(4) 0.3617(4) 0.3255(4)
Cu10_3 Cu 0.69646(8) 0.37431(8) 0.40120(7)
C2_3 C 0.7559(7) 0.9940(8) 0.9771(9)
H3_3 H 0.7611 0.9385 0.9716
I1_4 I 0.54318(3) 0.37767(3) 0.29699(3)
Cu1_4 Cu 0.57426(7) 0.23392(7) 0.31850(6)
N1_4 N 0.6476(3) 0.1812(4) 0.2539(3)
N2_4 N 0.6682(4) 0.1060(4) 0.2707(4)
C1_4 C 0.6806(6) 0.2712(6) 0.1557(5)
H1_4 H 0.6531 0.3083 0.1852
H2_4 H 0.7315 0.2920 0.1456
C2_4 C 0.7560(8) 0.0059(7) 0.2271(9)
H3_4 H 0.8115 0.0111 0.2216
O1_4 O 0.6394(10) 0.2601(11) 0.0891(9)
H5_4 H 0.6360 0.3015 0.0678
C3_3 C 0.6884(4) 0.1983(5) 0.1952(4)
C4_3 C 0.7172(5) 0.0825(5) 0.2213(5)
I2_4 I 0.62767(3) 0.20682(3) 0.45301(3)
I3_4 I 0.45682(3) 0.12233(3) 0.29699(3)
I4_4 I 0.37233(3) 0.29318(3) 0.45301(3)
Cu3_4 Cu 0.51608(7) 0.32426(7) 0.43150(6)
Cu4_4 Cu 0.42574(7) 0.26608(7) 0.31850(6)
Cu5_4 Cu 0.48392(7) 0.17574(7) 0.43150(6)
N4_4 N 0.4312(4) 0.1024(3) 0.4961(3)
N5_4 N 0.5688(4) 0.3976(3) 0.4961(3)
N6_4 N 0.3524(3) 0.3188(4) 0.2539(3)
N7_4 N 0.3560(4) 0.0818(4) 0.4793(4)
N8_4 N 0.6440(4) 0.4182(4) 0.4793(4)
N9_4 N 0.3318(4) 0.3940(4) 0.2707(4)
C5_3 C 0.5212(6) 0.0694(6) 0.5943(5)
C6_4 C 0.4788(6) 0.4306(6) 0.5943(5)
C7_3 C 0.3194(6) 0.2288(6) 0.1557(5)
H7_3 H 0.5583 0.0969 0.5648
H8_4 H 0.4417 0.4031 0.5648
H9_3 H 0.3469 0.1917 0.1852
H10_3 H 0.5420 0.0185 0.6044
H11_4 H 0.4580 0.4815 0.6044
H12_3 H 0.2685 0.2080 0.1456
C9_4 C 0.7441(7) 0.5060(8) 0.5229(9)
C10_4 C 0.2440(8) 0.4941(7) 0.2271(9)
H13_4 H 0.1885 0.4889 0.2216
H15_4 H 0.7389 0.5615 0.5284
H16_3 H 0.2547 0.5179 0.2733
H17_4 H 0.2321 0.0047 0.4767
H18_3 H 0.7679 0.4953 0.4767
O3_3 O 0.5101(11) 0.1106(10) 0.6609(9)
O4_4 O 0.4899(11) 0.3894(10) 0.6609(9)
O5_3 O 0.3606(10) 0.2399(11) 0.0891(9)
H19_3 H 0.3640 0.1985 0.0678
H20_3 H 0.5515 0.1140 0.6822
H21_4 H 0.4485 0.3860 0.6822
O6_3 O 0.2751(12) 0.5381(12) 0.1712(9)
O7_4 O 0.2119(12) 0.0251(12) 0.5788(9)
O8_2 O 0.7881(12) 0.4749(12) 0.5788(9)
H22_4 H 0.1686 0.0059 0.5783
H23_2 H 0.8314 0.4941 0.5783
H24_3 H 0.2559 0.5814 0.1717
C11_4 C 0.4483(5) 0.0616(4) 0.5548(4)
C12_3 C 0.5517(5) 0.4384(4) 0.5548(4)
C13_4 C 0.3116(4) 0.3017(5) 0.1952(4)
C14_4 C 0.3325(5) 0.0328(5) 0.5287(5)
C15_3 C 0.6675(5) 0.4672(5) 0.5287(5)
C16_4 C 0.2828(5) 0.4175(5) 0.2213(5)
H4_4 H 0.7453 0.9821 0.2733
O2_3 O 0.7249(12) 0.9619(12) 0.1712(9)
H6_3 H 0.7441 0.9186 0.1717
C8_4 C 0.2559(7) 0.9940(8) 0.5229(9)
H14_4 H 0.2611 0.9385 0.5284
C5_4 C 0.0212(6) 0.5694(6) 0.0943(5)
H7_4 H 0.0583 0.5969 0.0648
H10_4 H 0.0420 0.5185 0.1044
O3_4 O 0.0101(11) 0.6106(10) 0.1609(9)
H20_4 H 0.0515 0.6140 0.1822
O8_3 O 0.2881(12) 0.9749(12) 0.0788(9)
H23_3 H 0.3314 0.9941 0.0783
C12_4 C 0.0517(5) 0.9384(4) 0.0548(4)
C15_4 C 0.1675(5) 0.9672(5) 0.0287(5)
N12_3 N 0.1117(4) 0.9829(4) 0.0755(4)
H18_4 H 0.2453 0.9821 0.2267
O8_4 O 0.2249(12) 0.9619(12) 0.3288(9)
H23_4 H 0.2441 0.9186 0.3283
H16_4 H 0.7547 0.0179 0.7733
O6_4 O 0.7751(12) 0.0381(12) 0.6712(9)
H24_4 H 0.7559 0.0814 0.6717
N14_3 N 0.8883(4) 0.0171(4) 0.9245(4)
O2_4 O 0.7119(12) 0.0251(12) 0.9212(9)
H6_4 H 0.6686 0.0059 0.9217
C3_4 C 0.9483(5) 0.0616(4) 0.9452(4)
C4_4 C 0.8325(5) 0.0328(5) 0.9713(5)
C7_4 C 0.9788(6) 0.4306(6) 0.9057(5)
H9_4 H 0.9417 0.4031 0.9352
H12_4 H 0.9580 0.4815 0.8956
O5_4 O 0.9899(11) 0.3894(10) 0.8391(9)
H19_4 H 0.9485 0.3860 0.8178
loop_
_geom_bond_atom_site_label_1
_geom_bond_atom_site_label_2
_geom_bond_site_symmetry_1
_geom_bond_site_symmetry_2
C10 H13 1_555 1_555
H22 O7 1_555 1_555
I1 Cu1 1_555 1_555
Cu1 N1 1_555 1_555
N1 N2 1_555 1_555
N2 C4 1_555 1_555
C1 H1 1_555 1_555
H2 C1 1_555 1_555
C2 H3 1_555 1_555
H4 C2 1_555 1_555
O1 C1 1_555 1_555
H5 O1 1_555 1_555
O2 C2 1_555 1_555
H6 O2 1_555 1_555
C3 N1 1_555 1_555
C4 C2 1_555 1_555
N3 C3 1_555 1_555
Cu2 N2 1_555 1_555
I2 Cu1 1_555 1_555
I3 Cu1 1_555 1_555
I4 Cu3 1_555 1_555
Cu3 I1 1_555 1_555
Cu4 I1 1_555 1_555
Cu5 Cu1 1_555 1_555
N4 Cu5 1_555 1_555
N5 Cu3 1_555 1_555
N6 Cu4 1_555 1_555
N7 N4 1_555 1_555
N8 N5 1_555 1_555
N9 N6 1_555 1_555
C5 H7 1_555 1_555
C6 H8 1_555 1_555
C7 H9 1_555 1_555
H10 C5 1_555 1_555
H11 C6 1_555 1_555
H12 C7 1_555 1_555
C8 H14 1_555 1_555
C9 H15 1_555 1_555
H18 C9 1_555 1_555
O3 C5 1_555 1_555
O4 C6 1_555 1_555
O5 C7 1_555 1_555
H19 O5 1_555 1_555
H20 O3 1_555 1_555
H21 O4 1_555 1_555
O8 C9 1_555 1_555
H23 O8 1_555 1_555
H24 O6 1_555 1_555
C11 N4 1_555 1_555
C12 N5 1_555 1_555
C13 N6 1_555 1_555
C14 N7 1_555 1_555
C15 N8 1_555 1_555
C16 N9 1_555 1_555
N10 Cu2 1_555 1_555
N11 C11 1_555 1_555
N12 C12 1_555 1_555
N13 C13 1_555 1_555
N14 Cu9 1_555 1_555
N16 Cu8 1_555 1_555
Cu6 N3 1_555 1_555
Cu7 N7 1_555 1_555
Cu8 N8 1_555 1_555
Cu9 N9 1_555 1_555
Cu10 N11 1_555 1_555
Cu11 N12 1_555 1_555
Cu1 Cu3 1_555 1_555
Cu1 Cu4 1_555 1_555
C1 C3 1_555 1_555
C4 N3 1_555 1_555
I2 Cu3 1_555 1_555
I2 Cu5 1_555 1_555
I3 Cu4 1_555 1_555
I3 Cu5 1_555 1_555
I4 Cu4 1_555 1_555
I4 Cu5 1_555 1_555
Cu3 Cu4 1_555 1_555
Cu3 Cu5 1_555 1_555
Cu4 Cu5 1_555 1_555
C5 C11 1_555 1_555
C6 C12 1_555 1_555
C7 C13 1_555 1_555
C8 C14 1_555 1_555
C9 C15 1_555 1_555
C14 N11 1_555 1_555
C15 N12 1_555 1_555
C16 N13 1_555 1_555
C9_2 H15_2 1_555 1_555
I1_2 Cu1_2 1_555 1_555
Cu1_2 N1_2 1_555 1_555
N1_2 N2_2 1_555 1_555
N2_2 C4_2 1_555 1_555
C1_2 H1_2 1_555 1_555
H2_2 C1_2 1_555 1_555
C2_2 H3_2 1_555 1_555
H4_2 C2_2 1_555 1_555
O1_2 C1_2 1_555 1_555
H5_2 O1_2 1_555 1_555
O2_2 C2_2 1_555 1_555
H6_2 O2_2 1_555 1_555
C3_2 N1_2 1_555 1_555
C4_2 C2_2 1_555 1_555
N10 C3_2 1_555 1_555
Cu2_2 N2_2 1_555 1_555
I2_2 Cu1_2 1_555 1_555
Cu3_2 I1_2 1_555 1_555
N5_2 Cu3_2 1_555 1_555
N8_2 N5_2 1_555 1_555
N10_2 Cu2_2 1_555 1_555
Cu10 N8_2 1_555 1_555
Cu1_2 Cu3_2 1_555 1_555
C1_2 C3_2 1_555 1_555
C4_2 N10 1_555 1_555
I2_2 Cu3_2 1_555 1_555
C6_2 H8_2 1_555 1_555
H11_2 C6_2 1_555 1_555
C8_2 H14_2 1_555 1_555
O4_2 C6_2 1_555 1_555
H21_2 O4_2 1_555 1_555
O7_2 C8_2 1_555 1_555
H22_2 O7_2 1_555 1_555
N11_2 C11_2 1_555 1_555
Cu10_2 N11_2 1_555 1_555
C8_2 C14_2 1_555 1_555
C14_2 N11_2 1_555 1_555
N4_2 Cu5_2 1_555 1_555
N6_2 Cu4_2 1_555 1_555
N7_2 N4_2 1_555 1_555
N9_2 N6_2 1_555 1_555
C7_2 H9_2 1_555 1_555
H12_2 C7_2 1_555 1_555
C10_2 H13_2 1_555 1_555
O5_2 C7_2 1_555 1_555
H19_2 O5_2 1_555 1_555
C13_2 N6_2 1_555 1_555
C16_2 N9_2 1_555 1_555
N14 C13_2 1_555 1_555
Cu11 N7_2 1_555 1_555
Cu9_2 N9_2 1_555 1_555
I3_2 Cu4_2 1_555 1_555
I3_2 Cu5_2 1_555 1_555
I4_2 Cu4_2 1_555 1_555
I4_2 Cu5_2 1_555 1_555
Cu4_2 Cu5_2 1_555 1_555
C7_2 C13_2 1_555 1_555
C10_2 C16_2 1_555 1_555
C16_2 N14 1_555 1_555
I4_3 Cu3_3 1_555 1_555
Cu3_3 I1_3 1_555 1_555
Cu4_3 I1_3 1_555 1_555
N5_3 Cu3_3 1_555 1_555
N6_3 Cu4_3 1_555 1_555
N8_3 N5_3 1_555 1_555
N9_3 N6_3 1_555 1_555
C6_3 H8_3 1_555 1_555
H11_3 C6_3 1_555 1_555
C9_3 H15_3 1_555 1_555
O4_3 C6_3 1_555 1_555
H21_3 O4_3 1_555 1_555
C12_2 N5_3 1_555 1_555
C15_2 N8_3 1_555 1_555
N12_2 C12_2 1_555 1_555
N14_2 Cu9_3 1_555 1_555
Cu11_2 N8_3 1_555 1_555
Cu9_3 N9_3 1_555 1_555
Cu11_3 N12_2 1_555 1_555
I4_3 Cu4_3 1_555 1_555
Cu3_3 Cu4_3 1_555 1_555
C6_3 C12_2 1_555 1_555
C9_3 C15_2 1_555 1_555
C15_2 N12_2 1_555 1_555
C1_3 H1_3 1_555 1_555
H2_3 C1_3 1_555 1_555
O1_3 C1_3 1_555 1_555
H5_3 O1_3 1_555 1_555
C10_3 H13_3 1_555 1_555
O6_2 C10_3 1_555 1_555
H24_2 O6_2 1_555 1_555
N10_2 C13_3 1_555 1_555
C10_3 C16_3 1_555 1_555
C16_3 N10_2 1_555 1_555
Cu1_3 N1_3 1_555 1_555
N1_3 N2_3 1_555 1_555
Cu2_3 N2_3 1_555 1_555
I2_3 Cu1_3 1_555 1_555
I3_3 Cu1_3 1_555 1_555
Cu5_3 Cu1_3 1_555 1_555
N4_3 Cu5_3 1_555 1_555
N7_3 N4_3 1_555 1_555
C5_2 H7_2 1_555 1_555
H10_2 C5_2 1_555 1_555
C8_3 H14_3 1_555 1_555
H17_3 C8_3 1_555 1_555
O3_2 C5_2 1_555 1_555
H20_2 O3_2 1_555 1_555
O7_3 C8_3 1_555 1_555
H22_3 O7_3 1_555 1_555
C11_3 N4_3 1_555 1_555
C14_3 N7_3 1_555 1_555
N10_3 Cu2_3 1_555 1_555
N11_3 C11_3 1_555 1_555
Cu10_2 N7_3 1_555 1_555
Cu10_3 N11_3 1_555 1_555
I2_3 Cu5_3 1_555 1_555
I3_3 Cu5_3 1_555 1_555
C5_2 C11_3 1_555 1_555
C8_3 C14_3 1_555 1_555
C14_3 N11_3 1_555 1_555
C2_3 H3_3 1_555 1_555
I1_4 Cu1_4 1_555 1_555
Cu1_4 N1_4 1_555 1_555
N1_4 N2_4 1_555 1_555
N2_4 C4_3 1_555 1_555
C1_4 H1_4 1_555 1_555
H2_4 C1_4 1_555 1_555
C2_4 H3_4 1_555 1_555
O1_4 C1_4 1_555 1_555
H5_4 O1_4 1_555 1_555
C3_3 N1_4 1_555 1_555
C4_3 C2_4 1_555 1_555
N10_3 C3_3 1_555 1_555
Cu12 N2_4 1_555 1_555
I2_4 Cu1_4 1_555 1_555
I3_4 Cu1_4 1_555 1_555
I4_4 Cu3_4 1_555 1_555
Cu3_4 I1_4 1_555 1_555
Cu4_4 I1_4 1_555 1_555
Cu5_4 Cu1_4 1_555 1_555
N4_4 Cu5_4 1_555 1_555
N5_4 Cu3_4 1_555 1_555
N6_4 Cu4_4 1_555 1_555
N7_4 N4_4 1_555 1_555
N8_4 N5_4 1_555 1_555
N9_4 N6_4 1_555 1_555
C5_3 H7_3 1_555 1_555
C6_4 H8_4 1_555 1_555
C7_3 H9_3 1_555 1_555
H10_3 C5_3 1_555 1_555
H11_4 C6_4 1_555 1_555
H12_3 C7_3 1_555 1_555
C9_4 H15_4 1_555 1_555
C10_4 H13_4 1_555 1_555
H16_3 C10_4 1_555 1_555
H18_3 C9_4 1_555 1_555
O3_3 C5_3 1_555 1_555
O4_4 C6_4 1_555 1_555
O5_3 C7_3 1_555 1_555
H19_3 O5_3 1_555 1_555
H20_3 O3_3 1_555 1_555
H21_4 O4_4 1_555 1_555
O6_3 C10_4 1_555 1_555
O8_2 C9_4 1_555 1_555
H22_4 O7_4 1_555 1_555
H23_2 O8_2 1_555 1_555
H24_3 O6_3 1_555 1_555
C11_4 N4_4 1_555 1_555
C12_3 N5_4 1_555 1_555
C13_4 N6_4 1_555 1_555
C14_4 N7_4 1_555 1_555
C15_3 N8_4 1_555 1_555
C16_4 N9_4 1_555 1_555
N15 C11_4 1_555 1_555
N16 C12_3 1_555 1_555
N14_2 C13_4 1_555 1_555
Cu11_3 N7_4 1_555 1_555
Cu10_3 N8_4 1_555 1_555
Cu6 N9_4 1_555 1_555
Cu1_4 Cu3_4 1_555 1_555
Cu1_4 Cu4_4 1_555 1_555
C1_4 C3_3 1_555 1_555
C4_3 N10_3 1_555 1_555
I2_4 Cu3_4 1_555 1_555
I2_4 Cu5_4 1_555 1_555
I3_4 Cu4_4 1_555 1_555
I3_4 Cu5_4 1_555 1_555
I4_4 Cu4_4 1_555 1_555
I4_4 Cu5_4 1_555 1_555
Cu3_4 Cu4_4 1_555 1_555
Cu3_4 Cu5_4 1_555 1_555
Cu4_4 Cu5_4 1_555 1_555
C5_3 C11_4 1_555 1_555
C6_4 C12_3 1_555 1_555
C7_3 C13_4 1_555 1_555
C9_4 C15_3 1_555 1_555
C10_4 C16_4 1_555 1_555
C14_4 N15 1_555 1_555
C15_3 N16 1_555 1_555
C16_4 N14_2 1_555 1_555
H6_3 O2_3 1_555 1_555
C8_4 H14_4 1_555 1_555
C5_4 H7_4 1_555 1_555
H10_4 C5_4 1_555 1_555
O3_4 C5_4 1_555 1_555
H20_4 O3_4 1_555 1_555
H23_3 O8_3 1_555 1_555
N12_3 C12_4 1_555 1_555
C15_4 N12_3 1_555 1_555
H23_4 O8_4 1_555 1_555
H24_4 O6_4 1_555 1_555
H6_4 O2_4 1_555 1_555
N14_3 C3_4 1_555 1_555
C7_4 H9_4 1_555 1_555
H12_4 C7_4 1_555 1_555
O5_4 C7_4 1_555 1_555
H19_4 O5_4 1_555 1_555
C4_4 N14_3 1_555 1_555

#END
