
###############################################################################
#
# This file contains modified crystal structure data generated from the
# MOF subset of the Cambridge Structural Database (CSD) v543 
# hosted by the Cambridge Crystallographic Data Centre (CCDC).
#
# This work is licensed under the Creative Commons
# Attribution-NonCommercial-ShareAlike 4.0 International License.
# To view a copy of this license, visit
# http://creativecommons.org/licenses/by-nc-sa/4.0/
# or send a letter to
# Creative Commons, PO Box 1866, Mountain View, CA 94042, USA.
#
# CIF created using the CSD Python API on 29 September 2022
# The structure has been converted into the P1 space group
# The structure has a 3D framework
# The original CSD entry GIVHIC is in the rhombohedral crystal system
# The framework has been calculated to contain at least 10.0% void space
# The void calculation uses a probe of radius 1.32A, grid spacing 0.4
# The framework is charged, counterions have been retained in the structure
#
###############################################################################

data_GIVHIC
_chemical_formula_moiety         '(C216 H216 N36 Ni4 S36 8+)n'
_symmetry_cell_setting           triclinic
_symmetry_space_group_name_H-M   'P 1'
_symmetry_Int_Tables_number      1
_space_group_name_Hall           'P 1'
loop_
_symmetry_equiv_pos_site_id
_symmetry_equiv_pos_as_xyz
1 x,y,z
_cell_length_a                   15.914(1)
_cell_length_b                   15.914(1)
_cell_length_c                   35.966(5)
_cell_angle_alpha                90
_cell_angle_beta                 90
_cell_angle_gamma                120.00
_cell_volume                     7888.26
loop_
_atom_site_label
_atom_site_type_symbol
_atom_site_fract_x
_atom_site_fract_y
_atom_site_fract_z
C5 C 0.0222(5) 0.3482(5) 0.0262(2)
C6 C 0.0109(4) 0.4933(4) 0.0202(2)
H3 H 0.0247(5) 0.2231(6) 0.0318(2)
H4 H 0.0871(5) 0.3864(5) 0.0196(2)
H5 H 0.0805(4) 0.5241(4) 0.0239(2)
C15 C 0.5067(4) 0.5176(6) 0.0202(2)
N4 N 0.6105(3) 0.5759(4) 0.0286(1)
C16 C 0.6633(3) 0.5324(4) 0.0380(1)
S4 S 0.6048(1) 0.4076(1) 0.0392(1)
Ni3 Ni 0.6667 0.3333 0.0833
C23 C 0.7619(4) 0.5933(6) 0.0452(2)
C24 C 0.8038(5) 0.6916(7) 0.0432(2)
C25 C 0.7488(6) 0.7344(8) 0.0334(2)
C26 C 0.6518(5) 0.6740(7) 0.0262(2)
H15 H 0.6136(5) 0.7007(7) 0.0196(2)
H16 H 0.7769(6) 0.8016(8) 0.0318(2)
H17 H 0.8696(5) 0.7305(7) 0.0483(2)
H18 H 0.7999(4) 0.5662(6) 0.0516(2)
H19 H 0.4759(4) 0.5564(6) 0.0239(2)
H20 H 0.4765(4) 0.4624(6) 0.0369(2)
Ni1 Ni 0.3333 0.6667 0.9167
N2 N 0.0346(3) 0.6105(3) 0.9714(1)
C8 C 0.1309(3) 0.6633(3) 0.9620(1)
S2 S 0.1972(1) 0.6048(1) 0.9608(1)
S3 S 0.3952(1) 0.5924(1) 0.9608(1)
C9 C 0.3367(3) 0.4676(4) 0.9620(1)
N3 N 0.3895(3) 0.4241(4) 0.9714(1)
C10 C 0.3482(5) 0.3260(7) 0.9738(2)
C11 C 0.2512(6) 0.2656(8) 0.9666(2)
C12 C 0.1962(5) 0.3084(7) 0.9568(2)
C13 C 0.2381(4) 0.4067(6) 0.9548(2)
H7 H 0.2001(4) 0.4338(6) 0.9484(2)
H8 H 0.1304(5) 0.2695(7) 0.9517(2)
H9 H 0.2231(6) 0.1984(8) 0.9682(2)
H10 H 0.3864(5) 0.2993(7) 0.9804(2)
C14 C 0.4933(4) 0.4824(6) 0.9798(2)
Ni4 Ni -0.0000 0.0000 0.7500
S5 S 0.0619(1) 0.1361(1) 0.7941(1)
C17 C 0.0034(3) 0.2024(3) 0.7953(1)
N5 N 0.0562(3) 0.2987(3) 0.8047(1)
C18 C 0.0149(5) 0.3555(5) 0.8071(2)
H14 H 0.0531(5) 0.4204(5) 0.8137(2)
C22 C 0.1600(4) 0.3442(4) 0.8131(2)
H21 H 0.5241(4) 0.4436(6) 0.9761(2)
H22 H 0.5235(4) 0.5376(6) 0.9631(2)
S6 S 0.4076(1) 0.8028(1) 0.9608(1)
S7 S 0.2715(1) 0.5305(1) 0.8725(1)
C27 C 0.3300(3) 0.4642(3) 0.8713(1)
N6 N 0.2772(3) 0.3679(3) 0.8619(1)
C28 C 0.3185(5) 0.3111(5) 0.8595(2)
C29 C 0.4155(6) 0.3477(5) 0.8667(2)
C30 C 0.4705(5) 0.4455(5) 0.8765(2)
C31 C 0.4286(4) 0.5019(4) 0.8785(2)
H23 H 0.4666(4) 0.5670(4) 0.8849(2)
H24 H 0.5363(5) 0.4724(5) 0.8816(2)
H25 H 0.4436(6) 0.3086(5) 0.8651(2)
H26 H 0.2803(5) 0.2462(5) 0.8529(2)
C32 C 0.1734(4) 0.3224(4) 0.8535(2)
S8 S 0.4695(1) 0.7409(1) 0.8725(1)
S9 S 0.2591(1) 0.7285(1) 0.8725(1)
C33 C 0.1686(4) 0.7619(4) 0.9548(2)
C34 C 0.1122(5) 0.8038(5) 0.9568(2)
C35 C 0.0144(5) 0.7488(6) 0.9666(2)
H29 H 0.1391(5) 0.8696(5) 0.9517(2)
H30 H 0.2337(4) 0.7999(4) 0.9484(2)
H32 H 0.0141(4) 0.4765(4) 0.9631(2)
H33 H 0.1426(4) 0.2528(4) 0.8572(2)
H34 H 0.1432(4) 0.3474(4) 0.8702(2)
H35 H 0.1908(4) 0.4138(4) 0.8094(2)
H36 H 0.1902(4) 0.3192(4) 0.7964(2)
Ni4_2 Ni -0.0000 1.0000 0.7500
S1 S 0.8028(1) 0.3952(1) 0.0392(1)
N1 N 0.9654(3) 0.3895(3) 0.0286(1)
C1 C 0.8691(3) 0.3367(3) 0.0380(1)
C2 C 0.8314(4) 0.2381(4) 0.0452(2)
C3 C 0.8878(5) 0.1962(5) 0.0432(2)
C4 C 0.9856(5) 0.2512(6) 0.0334(2)
H1 H 0.7663(4) 0.2001(4) 0.0516(2)
H2 H 0.8609(5) 0.1304(5) 0.0483(2)
H6 H 0.9859(4) 0.5235(4) 0.0369(2)
C7 C 0.9891(4) 0.5067(4) 0.9798(2)
Ni4_3 Ni 1.0000 0.0000 0.7500
C19 C 0.9179(6) 0.3189(5) 0.7999(2)
C20 C 0.8629(5) 0.2211(5) 0.7901(2)
C21 C 0.9048(4) 0.1647(4) 0.7881(2)
H11 H 0.8668(4) 0.0996(4) 0.7817(2)
H12 H 0.7971(5) 0.1942(5) 0.7850(2)
H13 H 0.8898(6) 0.3580(5) 0.8015(2)
C36 C 0.9778(5) 0.6518(5) 0.9738(2)
H27 H 0.9129(5) 0.6136(5) 0.9804(2)
H28 H 0.9753(5) 0.7769(6) 0.9682(2)
H31 H 0.9195(4) 0.4759(4) 0.9761(2)
Ni4_4 Ni 1.0000 1.0000 0.7500
N4_2 N 0.4241(4) 0.0346(5) 0.0286(1)
C16_2 C 0.4676(4) 0.1309(5) 0.0380(1)
S4_2 S 0.5924(1) 0.1972(1) 0.0392(1)
C23_2 C 0.4067(6) 0.1686(7) 0.0452(2)
C24_2 C 0.3084(7) 0.1122(9) 0.0432(2)
C25_2 C 0.2656(8) 0.0144(10) 0.0334(2)
H17_2 H 0.2695(7) 0.1391(9) 0.0483(2)
H18_2 H 0.4338(6) 0.2337(7) 0.0516(2)
H20_2 H 0.5376(6) 0.0141(7) 0.0369(2)
C10_2 C 0.6740(7) 0.0222(9) 0.9738(2)
H9_2 H 0.8016(8) 0.0247(10) 0.9682(2)
H10_2 H 0.7007(7) 0.0871(9) 0.9804(2)
C14_2 C 0.5176(6) 0.0109(7) 0.9798(2)
H21_2 H 0.5564(6) 0.0805(7) 0.9761(2)
C28_2 C 0.6889(5) 0.0073(7) 0.8595(2)
C29_2 C 0.6523(5) 0.0677(8) 0.8667(2)
C30_2 C 0.5545(5) 0.0249(7) 0.8765(2)
H24_2 H 0.5276(5) 0.0638(7) 0.8816(2)
H25_2 H 0.6914(5) 0.1349(8) 0.8651(2)
H26_2 H 0.7538(5) 0.0340(7) 0.8529(2)
C15_2 C 0.4824(6) 0.9891(7) 0.0202(2)
C26_2 C 0.3260(7) 0.9778(9) 0.0262(2)
H15_2 H 0.2993(7) 0.9129(9) 0.0196(2)
H16_2 H 0.1984(8) 0.9753(10) 0.0318(2)
H19_2 H 0.4436(6) 0.9195(7) 0.0239(2)
C9_2 C 0.5324(4) 0.8691(5) 0.9620(1)
N3_2 N 0.5759(4) 0.9654(5) 0.9714(1)
C11_2 C 0.7344(8) 0.9856(10) 0.9666(2)
C12_2 C 0.6916(7) 0.8878(9) 0.9568(2)
C13_2 C 0.5933(6) 0.8314(7) 0.9548(2)
H7_2 H 0.5662(6) 0.7663(7) 0.9484(2)
H8_2 H 0.7305(7) 0.8609(9) 0.9517(2)
S5_2 S 0.8639(1) 0.9257(1) 0.7941(1)
C17_2 C 0.7976(3) 0.8009(4) 0.7953(1)
N5_2 N 0.7013(3) 0.7574(4) 0.8047(1)
C18_2 C 0.6445(5) 0.6593(7) 0.8071(2)
C19_2 C 0.6811(5) 0.5989(8) 0.7999(2)
C20_2 C 0.7789(5) 0.6417(7) 0.7901(2)
C21_2 C 0.8353(4) 0.7400(6) 0.7881(2)
H11_2 H 0.9004(4) 0.7671(6) 0.7817(2)
H12_2 H 0.8058(5) 0.6028(7) 0.7850(2)
H13_2 H 0.6420(5) 0.5317(8) 0.8015(2)
H14_2 H 0.5796(5) 0.6326(7) 0.8137(2)
C22_2 C 0.6558(4) 0.8157(6) 0.8131(2)
H22_2 H 0.4624(6) 0.9859(7) 0.9631(2)
C27_2 C 0.5358(3) 0.8657(4) 0.8713(1)
N6_2 N 0.6321(3) 0.9092(4) 0.8619(1)
C31_2 C 0.4981(4) 0.9266(6) 0.8785(2)
H23_2 H 0.4330(4) 0.8995(6) 0.8849(2)
C32_2 C 0.6776(4) 0.8509(6) 0.8535(2)
H33_2 H 0.7472(4) 0.8897(6) 0.8572(2)
H34_2 H 0.6526(4) 0.7957(6) 0.8702(2)
H35_2 H 0.5862(4) 0.7769(6) 0.8094(2)
H36_2 H 0.6808(4) 0.8709(6) 0.7964(2)
Ni1_2 Ni 0.6667 0.3333 0.5833
C5_2 C 0.3482(5) 0.0222(5) 0.4738(2)
C6_2 C 0.4933(4) 0.0109(4) 0.4798(2)
H3_2 H 0.2231(6) 0.0247(5) 0.4682(2)
H4_2 H 0.3864(5) 0.0871(5) 0.4804(2)
H5_2 H 0.5241(4) 0.0805(4) 0.4761(2)
N2_2 N 0.6105(3) 0.0346(3) 0.5286(1)
C8_2 C 0.6633(3) 0.1309(3) 0.5380(1)
S2_2 S 0.6048(1) 0.1972(1) 0.5392(1)
S3_2 S 0.5924(1) 0.3952(1) 0.5392(1)
C9_3 C 0.4676(4) 0.3367(3) 0.5380(1)
N3_3 N 0.4241(4) 0.3895(3) 0.5286(1)
C10_3 C 0.3260(7) 0.3482(5) 0.5262(2)
C11_3 C 0.2656(8) 0.2512(6) 0.5334(2)
C12_3 C 0.3084(7) 0.1962(5) 0.5432(2)
C13_3 C 0.4067(6) 0.2381(4) 0.5452(2)
H7_3 H 0.4338(6) 0.2001(4) 0.5516(2)
H8_3 H 0.2695(7) 0.1304(5) 0.5483(2)
H9_3 H 0.1984(8) 0.2231(6) 0.5318(2)
H10_3 H 0.2993(7) 0.3864(5) 0.5196(2)
C14_3 C 0.4824(6) 0.4933(4) 0.5202(2)
C15_3 C 0.5176(6) 0.5067(4) 0.4798(2)
N4_3 N 0.5759(4) 0.6105(3) 0.4714(1)
C16_3 C 0.5324(4) 0.6633(3) 0.4620(1)
S4_3 S 0.4076(1) 0.6048(1) 0.4608(1)
Ni3_2 Ni 0.3333 0.6667 0.4167
S5_3 S 0.1361(1) 0.0619(1) 0.7059(1)
C17_3 C 0.2024(3) 0.0034(3) 0.7047(1)
N5_3 N 0.2987(3) 0.0562(3) 0.6953(1)
C18_3 C 0.3555(5) 0.0149(5) 0.6929(2)
H14_3 H 0.4204(5) 0.0531(5) 0.6863(2)
C22_3 C 0.3442(4) 0.1600(4) 0.6869(2)
C23_3 C 0.5933(6) 0.7619(4) 0.4548(2)
C24_3 C 0.6916(7) 0.8038(5) 0.4568(2)
C25_3 C 0.7344(8) 0.7488(6) 0.4666(2)
C26_3 C 0.6740(7) 0.6518(5) 0.4738(2)
H15_3 H 0.7007(7) 0.6136(5) 0.4804(2)
H16_3 H 0.8016(8) 0.7769(6) 0.4682(2)
H17_3 H 0.7305(7) 0.8696(5) 0.4517(2)
H18_3 H 0.5662(6) 0.7999(4) 0.4484(2)
H19_3 H 0.5564(6) 0.4759(4) 0.4761(2)
H20_3 H 0.4624(6) 0.4765(4) 0.4631(2)
H21_3 H 0.4436(6) 0.5241(4) 0.5239(2)
H22_3 H 0.5376(6) 0.5235(4) 0.5369(2)
S6_2 S 0.8028(1) 0.4076(1) 0.5392(1)
S7_2 S 0.5305(1) 0.2715(1) 0.6275(1)
C27_3 C 0.4642(3) 0.3300(3) 0.6287(1)
N6_3 N 0.3679(3) 0.2772(3) 0.6381(1)
C28_3 C 0.3111(5) 0.3185(5) 0.6405(2)
C29_3 C 0.3477(5) 0.4155(6) 0.6333(2)
C30_3 C 0.4455(5) 0.4705(5) 0.6235(2)
C31_3 C 0.5019(4) 0.4286(4) 0.6215(2)
H23_3 H 0.5670(4) 0.4666(4) 0.6151(2)
H24_3 H 0.4724(5) 0.5363(5) 0.6184(2)
H25_3 H 0.3086(5) 0.4436(6) 0.6349(2)
H26_3 H 0.2462(5) 0.2803(5) 0.6471(2)
C32_3 C 0.3224(4) 0.1734(4) 0.6465(2)
S8_2 S 0.7409(1) 0.4695(1) 0.6275(1)
S9_2 S 0.7285(1) 0.2591(1) 0.6275(1)
C33_2 C 0.7619(4) 0.1686(4) 0.5452(2)
C34_2 C 0.8038(5) 0.1122(5) 0.5432(2)
C35_2 C 0.7488(6) 0.0144(5) 0.5334(2)
H29_2 H 0.8696(5) 0.1391(5) 0.5483(2)
H30_2 H 0.7999(4) 0.2337(4) 0.5516(2)
H32_2 H 0.4765(4) 0.0141(4) 0.5369(2)
H33_3 H 0.2528(4) 0.1426(4) 0.6428(2)
H34_3 H 0.3474(4) 0.1432(4) 0.6298(2)
H35_3 H 0.4138(4) 0.1908(4) 0.6906(2)
H36_3 H 0.3192(4) 0.1902(4) 0.7036(2)
S1_2 S 0.3952(1) 0.8028(1) 0.4608(1)
N1_2 N 0.3895(3) 0.9654(3) 0.4714(1)
C1_2 C 0.3367(3) 0.8691(3) 0.4620(1)
C2_2 C 0.2381(4) 0.8314(4) 0.4548(2)
C3_2 C 0.1962(5) 0.8878(5) 0.4568(2)
C4_2 C 0.2512(6) 0.9856(5) 0.4666(2)
H1_2 H 0.2001(4) 0.7663(4) 0.4484(2)
H2_2 H 0.1304(5) 0.8609(5) 0.4517(2)
H6_2 H 0.5235(4) 0.9859(4) 0.4631(2)
C7_2 C 0.5067(4) 0.9891(4) 0.5202(2)
C19_3 C 0.3189(5) 0.9179(6) 0.7001(2)
C20_3 C 0.2211(5) 0.8629(5) 0.7099(2)
C21_3 C 0.1647(4) 0.9048(4) 0.7119(2)
H11_3 H 0.0996(4) 0.8668(4) 0.7183(2)
H12_3 H 0.1942(5) 0.7971(5) 0.7150(2)
H13_3 H 0.3580(5) 0.8898(6) 0.6985(2)
C36_2 C 0.6518(5) 0.9778(5) 0.5262(2)
H27_2 H 0.6136(5) 0.9129(5) 0.5196(2)
H28_2 H 0.7769(6) 0.9753(5) 0.5318(2)
H31_2 H 0.4759(4) 0.9195(4) 0.5239(2)
C19_4 C 0.4011(8) 0.0821(6) 0.7999(2)
C20_4 C 0.3583(7) 0.1371(5) 0.7901(2)
C21_4 C 0.2600(6) 0.0952(4) 0.7881(2)
H11_4 H 0.2329(6) 0.1332(4) 0.7817(2)
H12_4 H 0.3972(7) 0.2029(5) 0.7850(2)
H13_4 H 0.4683(8) 0.1102(6) 0.8015(2)
S5_4 S 0.0743(1) 0.9381(1) 0.7941(1)
C17_4 C 0.1991(4) 0.9966(3) 0.7953(1)
N5_4 N 0.2426(4) 0.9438(3) 0.8047(1)
C18_4 C 0.3407(7) 0.9851(5) 0.8071(2)
H14_4 H 0.3674(7) 0.9469(5) 0.8137(2)
C22_4 C 0.1843(6) 0.8400(4) 0.8131(2)
C27_4 C 0.1343(4) 0.6700(3) 0.8713(1)
N6_4 N 0.0908(4) 0.7228(3) 0.8619(1)
C31_4 C 0.0734(6) 0.5714(4) 0.8785(2)
H23_4 H 0.1005(6) 0.5334(4) 0.8849(2)
C32_4 C 0.1491(6) 0.8266(4) 0.8535(2)
H33_4 H 0.1103(6) 0.8574(4) 0.8572(2)
H34_4 H 0.2043(6) 0.8568(4) 0.8702(2)
H35_4 H 0.2231(6) 0.8092(4) 0.8094(2)
H36_4 H 0.1291(6) 0.8098(4) 0.7964(2)
C28_4 C 0.9927(7) 0.6815(5) 0.8595(2)
C29_4 C 0.9323(8) 0.5845(6) 0.8667(2)
C30_4 C 0.9751(7) 0.5295(5) 0.8765(2)
H24_4 H 0.9362(7) 0.4637(5) 0.8816(2)
H25_4 H 0.8651(8) 0.5564(6) 0.8651(2)
H26_4 H 0.9660(7) 0.7197(5) 0.8529(2)
S1_3 S 0.1972(1) 0.5924(1) 0.4608(1)
N1_3 N 0.0346(3) 0.4241(4) 0.4714(1)
C1_3 C 0.1309(3) 0.4676(4) 0.4620(1)
C2_3 C 0.1686(4) 0.4067(6) 0.4548(2)
C3_3 C 0.1122(5) 0.3084(7) 0.4568(2)
C4_3 C 0.0144(5) 0.2656(8) 0.4666(2)
H1_3 H 0.2337(4) 0.4338(6) 0.4484(2)
H2_3 H 0.1391(5) 0.2695(7) 0.4517(2)
H6_3 H 0.0141(4) 0.5376(6) 0.4631(2)
C7_3 C 0.0109(4) 0.5176(6) 0.5202(2)
C19_5 C 0.0821(6) 0.4011(8) 0.7001(2)
C20_5 C 0.1371(5) 0.3583(7) 0.7099(2)
C21_5 C 0.0952(4) 0.2600(6) 0.7119(2)
H11_5 H 0.1332(4) 0.2329(6) 0.7183(2)
H12_5 H 0.2029(5) 0.3972(7) 0.7150(2)
H13_5 H 0.1102(6) 0.4683(8) 0.6985(2)
C36_3 C 0.0222(5) 0.6740(7) 0.5262(2)
H27_3 H 0.0871(5) 0.7007(7) 0.5196(2)
H28_3 H 0.0247(5) 0.8016(8) 0.5318(2)
H31_3 H 0.0805(4) 0.5564(6) 0.5239(2)
C5_3 C 0.9778(5) 0.3260(7) 0.4738(2)
C6_3 C 0.9891(4) 0.4824(6) 0.4798(2)
H3_3 H 0.9753(5) 0.1984(8) 0.4682(2)
H4_3 H 0.9129(5) 0.2993(7) 0.4804(2)
H5_3 H 0.9195(4) 0.4436(6) 0.4761(2)
N2_3 N 0.9654(3) 0.5759(4) 0.5286(1)
C8_3 C 0.8691(3) 0.5324(4) 0.5380(1)
S5_5 S 0.9381(1) 0.0743(1) 0.7059(1)
C17_5 C 0.9966(3) 0.1991(4) 0.7047(1)
N5_5 N 0.9438(3) 0.2426(4) 0.6953(1)
C18_5 C 0.9851(5) 0.3407(7) 0.6929(2)
H14_5 H 0.9469(5) 0.3674(7) 0.6863(2)
C22_5 C 0.8400(4) 0.1843(6) 0.6869(2)
C27_5 C 0.6700(3) 0.1343(4) 0.6287(1)
N6_5 N 0.7228(3) 0.0908(4) 0.6381(1)
C31_5 C 0.5714(4) 0.0734(6) 0.6215(2)
H23_5 H 0.5334(4) 0.1005(6) 0.6151(2)
C32_5 C 0.8266(4) 0.1491(6) 0.6465(2)
C33_3 C 0.8314(4) 0.5933(6) 0.5452(2)
C34_3 C 0.8878(5) 0.6916(7) 0.5432(2)
C35_3 C 0.9856(5) 0.7344(8) 0.5334(2)
H29_3 H 0.8609(5) 0.7305(7) 0.5483(2)
H30_3 H 0.7663(4) 0.5662(6) 0.5516(2)
H32_3 H 0.9859(4) 0.4624(6) 0.5369(2)
H33_5 H 0.8574(4) 0.1103(6) 0.6428(2)
H34_5 H 0.8568(4) 0.2043(6) 0.6298(2)
H35_5 H 0.8092(4) 0.2231(6) 0.6906(2)
H36_5 H 0.8098(4) 0.1291(6) 0.7036(2)
C28_5 C 0.6815(5) 0.9927(7) 0.6405(2)
C29_5 C 0.5845(6) 0.9323(8) 0.6333(2)
C30_5 C 0.5295(5) 0.9751(7) 0.6235(2)
H24_5 H 0.4637(5) 0.9362(7) 0.6184(2)
H25_5 H 0.5564(6) 0.8651(8) 0.6349(2)
H26_5 H 0.7197(5) 0.9660(7) 0.6471(2)
C28_6 C 0.0073(7) 0.6889(5) 0.6405(2)
C29_6 C 0.0677(8) 0.6523(5) 0.6333(2)
C30_6 C 0.0249(7) 0.5545(5) 0.6235(2)
H24_6 H 0.0638(7) 0.5276(5) 0.6184(2)
H25_6 H 0.1349(8) 0.6914(5) 0.6349(2)
H26_6 H 0.0340(7) 0.7538(5) 0.6471(2)
S5_6 S 0.9257(1) 0.8639(1) 0.7059(1)
C17_6 C 0.8009(4) 0.7976(3) 0.7047(1)
N5_6 N 0.7574(4) 0.7013(3) 0.6953(1)
C18_6 C 0.6593(7) 0.6445(5) 0.6929(2)
C19_6 C 0.5989(8) 0.6811(5) 0.7001(2)
C20_6 C 0.6417(7) 0.7789(5) 0.7099(2)
C21_6 C 0.7400(6) 0.8353(4) 0.7119(2)
H11_6 H 0.7671(6) 0.9004(4) 0.7183(2)
H12_6 H 0.6028(7) 0.8058(5) 0.7150(2)
H13_6 H 0.5317(8) 0.6420(5) 0.6985(2)
H14_6 H 0.6326(7) 0.5796(5) 0.6863(2)
C22_6 C 0.8157(6) 0.6558(4) 0.6869(2)
C27_6 C 0.8657(4) 0.5358(3) 0.6287(1)
N6_6 N 0.9092(4) 0.6321(3) 0.6381(1)
C31_6 C 0.9266(6) 0.4981(4) 0.6215(2)
H23_6 H 0.8995(6) 0.4330(4) 0.6151(2)
C32_6 C 0.8509(6) 0.6776(4) 0.6465(2)
H33_6 H 0.8897(6) 0.7472(4) 0.6428(2)
H34_6 H 0.7957(6) 0.6526(4) 0.6298(2)
H35_6 H 0.7769(6) 0.5862(4) 0.6906(2)
H36_6 H 0.8709(6) 0.6808(4) 0.7036(2)
Ni1_3 Ni 0.0000 -0.0000 0.2500
C24_4 C 0.0249(7) 0.4705(5) 0.1235(2)
C25_4 C 0.0677(8) 0.4155(6) 0.1333(2)
C26_4 C 0.0073(7) 0.3185(5) 0.1405(2)
H15_4 H 0.0340(7) 0.2803(5) 0.1471(2)
H16_4 H 0.1349(8) 0.4436(6) 0.1349(2)
H17_4 H 0.0638(7) 0.5363(5) 0.1184(2)
S6_3 S 0.1361(1) 0.0743(1) 0.2059(1)
S8_3 S 0.0743(1) 0.1361(1) 0.2941(1)
Ni1_4 Ni 0.0000 1.0000 0.2500
S9_3 S 0.0619(1) 0.9257(1) 0.2941(1)
C33_4 C 0.0952(4) 0.8353(4) 0.2119(2)
C34_4 C 0.1371(5) 0.7789(5) 0.2099(2)
C35_4 C 0.0821(6) 0.6811(5) 0.2001(2)
H28_4 H 0.1102(6) 0.6420(5) 0.1985(2)
H29_4 H 0.2029(5) 0.8058(5) 0.2150(2)
H30_4 H 0.1332(4) 0.9004(4) 0.2183(2)
Ni1_5 Ni 1.0000 -0.0000 0.2500
S3_3 S 0.9257(1) 0.0619(1) 0.2059(1)
C9_4 C 0.8009(4) 0.0034(3) 0.2047(1)
N3_4 N 0.7574(4) 0.0562(3) 0.1953(1)
C10_4 C 0.6593(7) 0.0149(5) 0.1929(2)
H10_4 H 0.6326(7) 0.0531(5) 0.1863(2)
C14_4 C 0.8157(6) 0.1600(4) 0.1869(2)
C15_4 C 0.8509(6) 0.1734(4) 0.1465(2)
N4_4 N 0.9092(4) 0.2772(3) 0.1381(1)
C16_4 C 0.8657(4) 0.3300(3) 0.1287(1)
S4_4 S 0.7409(1) 0.2715(1) 0.1275(1)
C23_4 C 0.9266(6) 0.4286(4) 0.1215(2)
H18_4 H 0.8995(6) 0.4666(4) 0.1151(2)
H19_4 H 0.8897(6) 0.1426(4) 0.1428(2)
H20_4 H 0.7957(6) 0.1432(4) 0.1298(2)
H21_4 H 0.7769(6) 0.1908(4) 0.1906(2)
H22_4 H 0.8709(6) 0.1902(4) 0.2036(2)
C29_7 C 0.6811(5) 0.0821(6) 0.2999(2)
C30_7 C 0.7789(5) 0.1371(5) 0.2901(2)
C31_7 C 0.8353(4) 0.0952(4) 0.2881(2)
H23_7 H 0.9004(4) 0.1332(4) 0.2817(2)
H24_7 H 0.8058(5) 0.2029(5) 0.2850(2)
H25_7 H 0.6420(5) 0.1102(6) 0.3015(2)
Ni1_6 Ni 1.0000 1.0000 0.2500
S1_4 S 0.7285(1) 0.4695(1) 0.1275(1)
N1_4 N 0.7228(3) 0.6321(3) 0.1381(1)
C1_4 C 0.6700(3) 0.5358(3) 0.1287(1)
C2_4 C 0.5714(4) 0.4981(4) 0.1215(2)
C3_4 C 0.5295(5) 0.5545(5) 0.1235(2)
C4_4 C 0.5845(6) 0.6523(5) 0.1333(2)
C5_4 C 0.6815(5) 0.6889(5) 0.1405(2)
C6_4 C 0.8266(4) 0.6776(4) 0.1465(2)
H1_4 H 0.5334(4) 0.4330(4) 0.1151(2)
H2_4 H 0.4637(5) 0.5276(5) 0.1184(2)
H3_4 H 0.5564(6) 0.6914(5) 0.1349(2)
H4_4 H 0.7197(5) 0.7538(5) 0.1471(2)
H5_4 H 0.8574(4) 0.7472(4) 0.1428(2)
H6_4 H 0.8568(4) 0.6526(4) 0.1298(2)
C7_4 C 0.8400(4) 0.6558(4) 0.1869(2)
N2_4 N 0.9438(3) 0.7013(3) 0.1953(1)
C8_4 C 0.9966(3) 0.7976(3) 0.2047(1)
S2_3 S 0.9381(1) 0.8639(1) 0.2059(1)
C11_4 C 0.5989(8) 0.9179(6) 0.2001(2)
C12_4 C 0.6417(7) 0.8629(5) 0.2099(2)
C13_4 C 0.7400(6) 0.9048(4) 0.2119(2)
H7_4 H 0.7671(6) 0.8668(4) 0.2183(2)
H8_4 H 0.6028(7) 0.7971(5) 0.2150(2)
H9_4 H 0.5317(8) 0.8898(6) 0.1985(2)
S5_7 S 0.4695(1) 0.7285(1) 0.3725(1)
C17_7 C 0.5358(3) 0.6700(3) 0.3713(1)
N5_7 N 0.6321(3) 0.7228(3) 0.3619(1)
C18_7 C 0.6889(5) 0.6815(5) 0.3595(2)
C19_7 C 0.6523(5) 0.5845(6) 0.3667(2)
C20_7 C 0.5545(5) 0.5295(5) 0.3765(2)
C21_7 C 0.4981(4) 0.5714(4) 0.3785(2)
H11_7 H 0.4330(4) 0.5334(4) 0.3849(2)
H12_7 H 0.5276(5) 0.4637(5) 0.3816(2)
H13_7 H 0.6914(5) 0.5564(6) 0.3651(2)
H14_7 H 0.7538(5) 0.7197(5) 0.3529(2)
C22_7 C 0.6776(4) 0.8266(4) 0.3535(2)
S7_3 S 0.8639(1) 0.9381(1) 0.2941(1)
C27_7 C 0.7976(3) 0.9966(3) 0.2953(1)
N6_7 N 0.7013(3) 0.9438(3) 0.3047(1)
C28_7 C 0.6445(5) 0.9851(5) 0.3071(2)
H26_7 H 0.5796(5) 0.9469(5) 0.3137(2)
C32_7 C 0.6558(4) 0.8400(4) 0.3131(2)
C36_4 C 0.9851(5) 0.6445(5) 0.1929(2)
H27_4 H 0.9469(5) 0.5796(5) 0.1863(2)
H31_4 H 0.8092(4) 0.5862(4) 0.1906(2)
H32_4 H 0.8098(4) 0.6808(4) 0.2036(2)
H33_7 H 0.5862(4) 0.8092(4) 0.3094(2)
H34_7 H 0.6808(4) 0.8098(4) 0.2964(2)
H35_7 H 0.7472(4) 0.8574(4) 0.3572(2)
H36_7 H 0.6526(4) 0.8568(4) 0.3702(2)
S1_5 S 0.5305(1) 0.2591(1) 0.1275(1)
N1_5 N 0.3679(3) 0.0908(4) 0.1381(1)
C1_5 C 0.4642(3) 0.1343(4) 0.1287(1)
C2_5 C 0.5019(4) 0.0734(6) 0.1215(2)
C6_5 C 0.3224(4) 0.1491(6) 0.1465(2)
H1_5 H 0.5670(4) 0.1005(6) 0.1151(2)
H5_5 H 0.2528(4) 0.1103(6) 0.1428(2)
H6_5 H 0.3474(4) 0.2043(6) 0.1298(2)
C7_5 C 0.3442(4) 0.1843(6) 0.1869(2)
N2_5 N 0.2987(3) 0.2426(4) 0.1953(1)
C8_5 C 0.2024(3) 0.1991(4) 0.2047(1)
C18_8 C 0.3185(5) 0.0073(7) 0.3595(2)
C19_8 C 0.4155(6) 0.0677(8) 0.3667(2)
C20_8 C 0.4705(5) 0.0249(7) 0.3765(2)
H12_8 H 0.5363(5) 0.0638(7) 0.3816(2)
H13_8 H 0.4436(6) 0.1349(8) 0.3651(2)
H14_8 H 0.2803(5) 0.0340(7) 0.3529(2)
C33_5 C 0.1647(4) 0.2600(6) 0.2119(2)
C34_5 C 0.2211(5) 0.3583(7) 0.2099(2)
C35_5 C 0.3189(5) 0.4011(8) 0.2001(2)
C36_5 C 0.3555(5) 0.3407(7) 0.1929(2)
H27_5 H 0.4204(5) 0.3674(7) 0.1863(2)
H28_5 H 0.3580(5) 0.4683(8) 0.1985(2)
H29_5 H 0.1942(5) 0.3972(7) 0.2150(2)
H30_5 H 0.0996(4) 0.2329(6) 0.2183(2)
H31_5 H 0.4138(4) 0.2231(6) 0.1906(2)
H32_5 H 0.3192(4) 0.1291(6) 0.2036(2)
C3_5 C 0.4455(5) 0.9751(7) 0.1235(2)
C4_5 C 0.3477(5) 0.9323(8) 0.1333(2)
C5_5 C 0.3111(5) 0.9927(7) 0.1405(2)
H2_5 H 0.4724(5) 0.9362(7) 0.1184(2)
H3_5 H 0.3086(5) 0.8651(8) 0.1349(2)
H4_5 H 0.2462(5) 0.9660(7) 0.1471(2)
S5_8 S 0.2715(1) 0.7409(1) 0.3725(1)
C17_8 C 0.3300(3) 0.8657(4) 0.3713(1)
N5_8 N 0.2772(3) 0.9092(4) 0.3619(1)
C21_8 C 0.4286(4) 0.9266(6) 0.3785(2)
H11_8 H 0.4666(4) 0.8995(6) 0.3849(2)
C22_8 C 0.1734(4) 0.8509(6) 0.3535(2)
C27_8 C 0.0034(3) 0.8009(4) 0.2953(1)
N6_8 N 0.0562(3) 0.7574(4) 0.3047(1)
C28_8 C 0.0149(5) 0.6593(7) 0.3071(2)
H26_8 H 0.0531(5) 0.6326(7) 0.3137(2)
C32_8 C 0.1600(4) 0.8157(6) 0.3131(2)
H33_8 H 0.1908(4) 0.7769(6) 0.3094(2)
H34_8 H 0.1902(4) 0.8709(6) 0.2964(2)
H35_8 H 0.1426(4) 0.8897(6) 0.3572(2)
H36_8 H 0.1432(4) 0.7957(6) 0.3702(2)
C29_8 C 0.9179(6) 0.5989(8) 0.2999(2)
C30_8 C 0.8629(5) 0.6417(7) 0.2901(2)
C31_8 C 0.9048(4) 0.7400(6) 0.2881(2)
H23_8 H 0.8668(4) 0.7671(6) 0.2817(2)
H24_8 H 0.7971(5) 0.6028(7) 0.2850(2)
H25_8 H 0.8898(6) 0.5317(8) 0.3015(2)
S5_9 S 0.2591(1) 0.5305(1) 0.3725(1)
C17_9 C 0.1343(4) 0.4642(3) 0.3713(1)
N5_9 N 0.0908(4) 0.3679(3) 0.3619(1)
C21_9 C 0.0734(6) 0.5019(4) 0.3785(2)
H11_9 H 0.1005(6) 0.5670(4) 0.3849(2)
C22_9 C 0.1491(6) 0.3224(4) 0.3535(2)
C27_9 C 0.1991(4) 0.2024(3) 0.2953(1)
N6_9 N 0.2426(4) 0.2987(3) 0.3047(1)
C28_9 C 0.3407(7) 0.3555(5) 0.3071(2)
C29_9 C 0.4011(8) 0.3189(5) 0.2999(2)
C30_9 C 0.3583(7) 0.2211(5) 0.2901(2)
C31_9 C 0.2600(6) 0.1647(4) 0.2881(2)
H23_9 H 0.2329(6) 0.0996(4) 0.2817(2)
H24_9 H 0.3972(7) 0.1942(5) 0.2850(2)
H25_9 H 0.4683(8) 0.3580(5) 0.3015(2)
H26_9 H 0.3674(7) 0.4204(5) 0.3137(2)
C32_9 C 0.1843(6) 0.3442(4) 0.3131(2)
H33_9 H 0.2231(6) 0.4138(4) 0.3094(2)
H34_9 H 0.1291(6) 0.3192(4) 0.2964(2)
H35_9 H 0.1103(6) 0.2528(4) 0.3572(2)
H36_9 H 0.2043(6) 0.3474(4) 0.3702(2)
C18_9 C 0.9927(7) 0.3111(5) 0.3595(2)
C19_9 C 0.9323(8) 0.3477(5) 0.3667(2)
C20_9 C 0.9751(7) 0.4455(5) 0.3765(2)
H12_9 H 0.9362(7) 0.4724(5) 0.3816(2)
H13_9 H 0.8651(8) 0.3086(5) 0.3651(2)
H14_9 H 0.9660(7) 0.2462(5) 0.3529(2)
loop_
_geom_bond_atom_site_label_1
_geom_bond_atom_site_label_2
_geom_bond_site_symmetry_1
_geom_bond_site_symmetry_2
H4 C5 1_555 1_555
H5 C6 1_555 1_555
N4 C15 1_555 1_555
C16 N4 1_555 1_555
S4 C16 1_555 1_555
Ni3 S4 1_555 1_555
C23 C16 1_555 1_555
C24 C23 1_555 1_555
C25 C24 1_555 1_555
C26 N4 1_555 1_555
H15 C26 1_555 1_555
H16 C25 1_555 1_555
H17 C24 1_555 1_555
H18 C23 1_555 1_555
H19 C15 1_555 1_555
H20 C15 1_555 1_555
C25 C26 1_555 1_555
Ni1 S2 1_555 1_555
C8 N2 1_555 1_555
S2 C8 1_555 1_555
S3 Ni1 1_555 1_555
C9 S3 1_555 1_555
N3 C9 1_555 1_555
C10 N3 1_555 1_555
C11 C10 1_555 1_555
C12 C11 1_555 1_555
C13 C9 1_555 1_555
H7 C13 1_555 1_555
H8 C12 1_555 1_555
H9 C11 1_555 1_555
H10 C10 1_555 1_555
C14 N3 1_555 1_555
Ni4 S5 1_555 1_555
S5 C17 1_555 1_555
C17 N5 1_555 1_555
N5 C18 1_555 1_555
H14 C18 1_555 1_555
C22 N5 1_555 1_555
H21 C14 1_555 1_555
H22 C14 1_555 1_555
S6 Ni1 1_555 1_555
S7 Ni1 1_555 1_555
C27 S7 1_555 1_555
N6 C27 1_555 1_555
C28 N6 1_555 1_555
C29 C28 1_555 1_555
C30 C29 1_555 1_555
C31 C27 1_555 1_555
H23 C31 1_555 1_555
H24 C30 1_555 1_555
H25 C29 1_555 1_555
H26 C28 1_555 1_555
C32 C22 1_555 1_555
S8 Ni1 1_555 1_555
S9 Ni1 1_555 1_555
C33 C8 1_555 1_555
C34 C33 1_555 1_555
C35 C34 1_555 1_555
H29 C34 1_555 1_555
H30 C33 1_555 1_555
H33 C32 1_555 1_555
H34 C32 1_555 1_555
H35 C22 1_555 1_555
H36 C22 1_555 1_555
C12 C13 1_555 1_555
N6 C32 1_555 1_555
C30 C31 1_555 1_555
S1 C1 1_555 1_555
N1 C1 1_555 1_555
C1 C2 1_555 1_555
C2 C3 1_555 1_555
C3 C4 1_555 1_555
H1 C2 1_555 1_555
H2 C3 1_555 1_555
Ni3 S1 1_555 1_555
C19 C20 1_555 1_555
C20 C21 1_555 1_555
H11 C21 1_555 1_555
H12 C20 1_555 1_555
H13 C19 1_555 1_555
H27 C36 1_555 1_555
H31 C7 1_555 1_555
C16_2 N4_2 1_555 1_555
S4_2 C16_2 1_555 1_555
Ni3 S4_2 1_555 1_555
C23_2 C16_2 1_555 1_555
C24_2 C23_2 1_555 1_555
C25_2 C24_2 1_555 1_555
H17_2 C24_2 1_555 1_555
H18_2 C23_2 1_555 1_555
H10_2 C10_2 1_555 1_555
H21_2 C14_2 1_555 1_555
C29_2 C28_2 1_555 1_555
C30_2 C29_2 1_555 1_555
H24_2 C30_2 1_555 1_555
H25_2 C29_2 1_555 1_555
H26_2 C28_2 1_555 1_555
H15_2 C26_2 1_555 1_555
H19_2 C15_2 1_555 1_555
C9_2 S6 1_555 1_555
N3_2 C9_2 1_555 1_555
C12_2 C11_2 1_555 1_555
C13_2 C9_2 1_555 1_555
H7_2 C13_2 1_555 1_555
H8_2 C12_2 1_555 1_555
Ni4_4 S5_2 1_555 1_555
S5_2 C17_2 1_555 1_555
C17_2 N5_2 1_555 1_555
N5_2 C18_2 1_555 1_555
C18_2 C19_2 1_555 1_555
C19_2 C20_2 1_555 1_555
C20_2 C21_2 1_555 1_555
C21_2 C17_2 1_555 1_555
H11_2 C21_2 1_555 1_555
H12_2 C20_2 1_555 1_555
H13_2 C19_2 1_555 1_555
H14_2 C18_2 1_555 1_555
C22_2 N5_2 1_555 1_555
C27_2 S8 1_555 1_555
N6_2 C27_2 1_555 1_555
C31_2 C27_2 1_555 1_555
H23_2 C31_2 1_555 1_555
C32_2 C22_2 1_555 1_555
H33_2 C32_2 1_555 1_555
H34_2 C32_2 1_555 1_555
H35_2 C22_2 1_555 1_555
H36_2 C22_2 1_555 1_555
C12_2 C13_2 1_555 1_555
N6_2 C32_2 1_555 1_555
Ni1_2 S2_2 1_555 1_555
H4_2 C5_2 1_555 1_555
H5_2 C6_2 1_555 1_555
C8_2 N2_2 1_555 1_555
S2_2 C8_2 1_555 1_555
S3_2 Ni1_2 1_555 1_555
C9_3 S3_2 1_555 1_555
N3_3 C9_3 1_555 1_555
C10_3 N3_3 1_555 1_555
C11_3 C10_3 1_555 1_555
C12_3 C11_3 1_555 1_555
C13_3 C9_3 1_555 1_555
H7_3 C13_3 1_555 1_555
H8_3 C12_3 1_555 1_555
H9_3 C11_3 1_555 1_555
H10_3 C10_3 1_555 1_555
C14_3 N3_3 1_555 1_555
C15_3 C14_3 1_555 1_555
N4_3 C15_3 1_555 1_555
C16_3 N4_3 1_555 1_555
S4_3 C16_3 1_555 1_555
Ni3_2 S4_3 1_555 1_555
Ni4 S5_3 1_555 1_555
S5_3 C17_3 1_555 1_555
C17_3 N5_3 1_555 1_555
N5_3 C18_3 1_555 1_555
H14_3 C18_3 1_555 1_555
C22_3 N5_3 1_555 1_555
C23_3 C16_3 1_555 1_555
C24_3 C23_3 1_555 1_555
C25_3 C24_3 1_555 1_555
C26_3 N4_3 1_555 1_555
H15_3 C26_3 1_555 1_555
H16_3 C25_3 1_555 1_555
H17_3 C24_3 1_555 1_555
H18_3 C23_3 1_555 1_555
H19_3 C15_3 1_555 1_555
H20_3 C15_3 1_555 1_555
H21_3 C14_3 1_555 1_555
H22_3 C14_3 1_555 1_555
S6_2 Ni1_2 1_555 1_555
S7_2 Ni1_2 1_555 1_555
C27_3 S7_2 1_555 1_555
N6_3 C27_3 1_555 1_555
C28_3 N6_3 1_555 1_555
C29_3 C28_3 1_555 1_555
C30_3 C29_3 1_555 1_555
C31_3 C27_3 1_555 1_555
H23_3 C31_3 1_555 1_555
H24_3 C30_3 1_555 1_555
H25_3 C29_3 1_555 1_555
H26_3 C28_3 1_555 1_555
C32_3 C22_3 1_555 1_555
S8_2 Ni1_2 1_555 1_555
S9_2 Ni1_2 1_555 1_555
C33_2 C8_2 1_555 1_555
C34_2 C33_2 1_555 1_555
C35_2 C34_2 1_555 1_555
H29_2 C34_2 1_555 1_555
H30_2 C33_2 1_555 1_555
H33_3 C32_3 1_555 1_555
H34_3 C32_3 1_555 1_555
H35_3 C22_3 1_555 1_555
H36_3 C22_3 1_555 1_555
C12_3 C13_3 1_555 1_555
C25_3 C26_3 1_555 1_555
N6_3 C32_3 1_555 1_555
C30_3 C31_3 1_555 1_555
S1_2 C1_2 1_555 1_555
N1_2 C1_2 1_555 1_555
C1_2 C2_2 1_555 1_555
C2_2 C3_2 1_555 1_555
C3_2 C4_2 1_555 1_555
H1_2 C2_2 1_555 1_555
H2_2 C3_2 1_555 1_555
Ni3_2 S1_2 1_555 1_555
C19_3 C20_3 1_555 1_555
C20_3 C21_3 1_555 1_555
H11_3 C21_3 1_555 1_555
H12_3 C20_3 1_555 1_555
H13_3 C19_3 1_555 1_555
H27_2 C36_2 1_555 1_555
H31_2 C7_2 1_555 1_555
C19_4 C20_4 1_555 1_555
C20_4 C21_4 1_555 1_555
H11_4 C21_4 1_555 1_555
H12_4 C20_4 1_555 1_555
H13_4 C19_4 1_555 1_555
Ni4_2 S5_4 1_555 1_555
S5_4 C17_4 1_555 1_555
C17_4 N5_4 1_555 1_555
N5_4 C18_4 1_555 1_555
H14_4 C18_4 1_555 1_555
C22_4 N5_4 1_555 1_555
C27_4 S9 1_555 1_555
N6_4 C27_4 1_555 1_555
C31_4 C27_4 1_555 1_555
H23_4 C31_4 1_555 1_555
C32_4 C22_4 1_555 1_555
H33_4 C32_4 1_555 1_555
H34_4 C32_4 1_555 1_555
H35_4 C22_4 1_555 1_555
H36_4 C22_4 1_555 1_555
N6_4 C32_4 1_555 1_555
C29_4 C28_4 1_555 1_555
C30_4 C29_4 1_555 1_555
H24_4 C30_4 1_555 1_555
H25_4 C29_4 1_555 1_555
H26_4 C28_4 1_555 1_555
S1_3 C1_3 1_555 1_555
N1_3 C1_3 1_555 1_555
C1_3 C2_3 1_555 1_555
C2_3 C3_3 1_555 1_555
C3_3 C4_3 1_555 1_555
H1_3 C2_3 1_555 1_555
H2_3 C3_3 1_555 1_555
Ni3_2 S1_3 1_555 1_555
C19_5 C20_5 1_555 1_555
C20_5 C21_5 1_555 1_555
H11_5 C21_5 1_555 1_555
H12_5 C20_5 1_555 1_555
H13_5 C19_5 1_555 1_555
H27_3 C36_3 1_555 1_555
H31_3 C7_3 1_555 1_555
H4_3 C5_3 1_555 1_555
H5_3 C6_3 1_555 1_555
C8_3 N2_3 1_555 1_555
S6_2 C8_3 1_555 1_555
Ni4_3 S5_5 1_555 1_555
S5_5 C17_5 1_555 1_555
C17_5 N5_5 1_555 1_555
N5_5 C18_5 1_555 1_555
H14_5 C18_5 1_555 1_555
C22_5 N5_5 1_555 1_555
C27_5 S9_2 1_555 1_555
N6_5 C27_5 1_555 1_555
C31_5 C27_5 1_555 1_555
H23_5 C31_5 1_555 1_555
C32_5 C22_5 1_555 1_555
C33_3 C8_3 1_555 1_555
C34_3 C33_3 1_555 1_555
C35_3 C34_3 1_555 1_555
H29_3 C34_3 1_555 1_555
H30_3 C33_3 1_555 1_555
H33_5 C32_5 1_555 1_555
H34_5 C32_5 1_555 1_555
H35_5 C22_5 1_555 1_555
H36_5 C22_5 1_555 1_555
N6_5 C32_5 1_555 1_555
C29_5 C28_5 1_555 1_555
C30_5 C29_5 1_555 1_555
H24_5 C30_5 1_555 1_555
H25_5 C29_5 1_555 1_555
H26_5 C28_5 1_555 1_555
C29_6 C28_6 1_555 1_555
C30_6 C29_6 1_555 1_555
H24_6 C30_6 1_555 1_555
H25_6 C29_6 1_555 1_555
H26_6 C28_6 1_555 1_555
Ni4_4 S5_6 1_555 1_555
S5_6 C17_6 1_555 1_555
C17_6 N5_6 1_555 1_555
N5_6 C18_6 1_555 1_555
C18_6 C19_6 1_555 1_555
C19_6 C20_6 1_555 1_555
C20_6 C21_6 1_555 1_555
C21_6 C17_6 1_555 1_555
H11_6 C21_6 1_555 1_555
H12_6 C20_6 1_555 1_555
H13_6 C19_6 1_555 1_555
H14_6 C18_6 1_555 1_555
C22_6 N5_6 1_555 1_555
C27_6 S8_2 1_555 1_555
N6_6 C27_6 1_555 1_555
C31_6 C27_6 1_555 1_555
H23_6 C31_6 1_555 1_555
C32_6 C22_6 1_555 1_555
H33_6 C32_6 1_555 1_555
H34_6 C32_6 1_555 1_555
H35_6 C22_6 1_555 1_555
H36_6 C22_6 1_555 1_555
N6_6 C32_6 1_555 1_555
C25_4 C24_4 1_555 1_555
H15_4 C26_4 1_555 1_555
H16_4 C25_4 1_555 1_555
H17_4 C24_4 1_555 1_555
S6_3 Ni1_3 1_555 1_555
S8_3 Ni1_3 1_555 1_555
C25_4 C26_4 1_555 1_555
S9_3 Ni1_4 1_555 1_555
C34_4 C33_4 1_555 1_555
C35_4 C34_4 1_555 1_555
H28_4 C35_4 1_555 1_555
H29_4 C34_4 1_555 1_555
H30_4 C33_4 1_555 1_555
S3_3 Ni1_5 1_555 1_555
C9_4 S3_3 1_555 1_555
N3_4 C9_4 1_555 1_555
C10_4 N3_4 1_555 1_555
H10_4 C10_4 1_555 1_555
C14_4 N3_4 1_555 1_555
C15_4 C14_4 1_555 1_555
N4_4 C15_4 1_555 1_555
C16_4 N4_4 1_555 1_555
S4_4 C16_4 1_555 1_555
Ni3 S4_4 1_555 1_555
C23_4 C16_4 1_555 1_555
H18_4 C23_4 1_555 1_555
H19_4 C15_4 1_555 1_555
H20_4 C15_4 1_555 1_555
H21_4 C14_4 1_555 1_555
H22_4 C14_4 1_555 1_555
C30_7 C29_7 1_555 1_555
H23_7 C31_7 1_555 1_555
H24_7 C30_7 1_555 1_555
H25_7 C29_7 1_555 1_555
C30_7 C31_7 1_555 1_555
Ni1_6 S2_3 1_555 1_555
S1_4 C1_4 1_555 1_555
N1_4 C1_4 1_555 1_555
C1_4 C2_4 1_555 1_555
C2_4 C3_4 1_555 1_555
C3_4 C4_4 1_555 1_555
C4_4 C5_4 1_555 1_555
C5_4 N1_4 1_555 1_555
C6_4 N1_4 1_555 1_555
H1_4 C2_4 1_555 1_555
H2_4 C3_4 1_555 1_555
H3_4 C4_4 1_555 1_555
H4_4 C5_4 1_555 1_555
H5_4 C6_4 1_555 1_555
H6_4 C6_4 1_555 1_555
C7_4 C6_4 1_555 1_555
N2_4 C7_4 1_555 1_555
C8_4 N2_4 1_555 1_555
S2_3 C8_4 1_555 1_555
Ni3 S1_4 1_555 1_555
C12_4 C11_4 1_555 1_555
H7_4 C13_4 1_555 1_555
H8_4 C12_4 1_555 1_555
H9_4 C11_4 1_555 1_555
Ni3_2 S5_7 1_555 1_555
S5_7 C17_7 1_555 1_555
C17_7 N5_7 1_555 1_555
N5_7 C18_7 1_555 1_555
C18_7 C19_7 1_555 1_555
C19_7 C20_7 1_555 1_555
C20_7 C21_7 1_555 1_555
C21_7 C17_7 1_555 1_555
H11_7 C21_7 1_555 1_555
H12_7 C20_7 1_555 1_555
H13_7 C19_7 1_555 1_555
H14_7 C18_7 1_555 1_555
C22_7 N5_7 1_555 1_555
S7_3 Ni1_6 1_555 1_555
C27_7 S7_3 1_555 1_555
N6_7 C27_7 1_555 1_555
C28_7 N6_7 1_555 1_555
H26_7 C28_7 1_555 1_555
C32_7 C22_7 1_555 1_555
C36_4 N2_4 1_555 1_555
H27_4 C36_4 1_555 1_555
H31_4 C7_4 1_555 1_555
H32_4 C7_4 1_555 1_555
H33_7 C32_7 1_555 1_555
H34_7 C32_7 1_555 1_555
H35_7 C22_7 1_555 1_555
H36_7 C22_7 1_555 1_555
C12_4 C13_4 1_555 1_555
N6_7 C32_7 1_555 1_555
S1_5 C1_5 1_555 1_555
N1_5 C1_5 1_555 1_555
C1_5 C2_5 1_555 1_555
C6_5 N1_5 1_555 1_555
H1_5 C2_5 1_555 1_555
H5_5 C6_5 1_555 1_555
H6_5 C6_5 1_555 1_555
C7_5 C6_5 1_555 1_555
N2_5 C7_5 1_555 1_555
C8_5 N2_5 1_555 1_555
S6_3 C8_5 1_555 1_555
Ni3 S1_5 1_555 1_555
C18_8 C19_8 1_555 1_555
C19_8 C20_8 1_555 1_555
H12_8 C20_8 1_555 1_555
H13_8 C19_8 1_555 1_555
H14_8 C18_8 1_555 1_555
C33_5 C8_5 1_555 1_555
C34_5 C33_5 1_555 1_555
C35_5 C34_5 1_555 1_555
C36_5 N2_5 1_555 1_555
H27_5 C36_5 1_555 1_555
H28_5 C35_5 1_555 1_555
H29_5 C34_5 1_555 1_555
H30_5 C33_5 1_555 1_555
H31_5 C7_5 1_555 1_555
H32_5 C7_5 1_555 1_555
C35_5 C36_5 1_555 1_555
C3_5 C4_5 1_555 1_555
C4_5 C5_5 1_555 1_555
H2_5 C3_5 1_555 1_555
H3_5 C4_5 1_555 1_555
H4_5 C5_5 1_555 1_555
Ni3_2 S5_8 1_555 1_555
S5_8 C17_8 1_555 1_555
C17_8 N5_8 1_555 1_555
C21_8 C17_8 1_555 1_555
H11_8 C21_8 1_555 1_555
C22_8 N5_8 1_555 1_555
C27_8 S9_3 1_555 1_555
N6_8 C27_8 1_555 1_555
C28_8 N6_8 1_555 1_555
H26_8 C28_8 1_555 1_555
C32_8 C22_8 1_555 1_555
H33_8 C32_8 1_555 1_555
H34_8 C32_8 1_555 1_555
H35_8 C22_8 1_555 1_555
H36_8 C22_8 1_555 1_555
N6_8 C32_8 1_555 1_555
C30_8 C29_8 1_555 1_555
H23_8 C31_8 1_555 1_555
H24_8 C30_8 1_555 1_555
H25_8 C29_8 1_555 1_555
C30_8 C31_8 1_555 1_555
Ni3_2 S5_9 1_555 1_555
S5_9 C17_9 1_555 1_555
C17_9 N5_9 1_555 1_555
C21_9 C17_9 1_555 1_555
H11_9 C21_9 1_555 1_555
C22_9 N5_9 1_555 1_555
C27_9 S8_3 1_555 1_555
N6_9 C27_9 1_555 1_555
C28_9 N6_9 1_555 1_555
C29_9 C28_9 1_555 1_555
C30_9 C29_9 1_555 1_555
C31_9 C27_9 1_555 1_555
H23_9 C31_9 1_555 1_555
H24_9 C30_9 1_555 1_555
H25_9 C29_9 1_555 1_555
H26_9 C28_9 1_555 1_555
C32_9 C22_9 1_555 1_555
H33_9 C32_9 1_555 1_555
H34_9 C32_9 1_555 1_555
H35_9 C22_9 1_555 1_555
H36_9 C22_9 1_555 1_555
N6_9 C32_9 1_555 1_555
C30_9 C31_9 1_555 1_555
C18_9 C19_9 1_555 1_555
C19_9 C20_9 1_555 1_555
H12_9 C20_9 1_555 1_555
H13_9 C19_9 1_555 1_555
H14_9 C18_9 1_555 1_555

#END
