
###############################################################################
#
# This file contains modified crystal structure data generated from the
# MOF subset of the Cambridge Structural Database (CSD) v543 
# hosted by the Cambridge Crystallographic Data Centre (CCDC).
#
# This work is licensed under the Creative Commons
# Attribution-NonCommercial-ShareAlike 4.0 International License.
# To view a copy of this license, visit
# http://creativecommons.org/licenses/by-nc-sa/4.0/
# or send a letter to
# Creative Commons, PO Box 1866, Mountain View, CA 94042, USA.
#
# CIF created using the CSD Python API on 29 September 2022
# The structure has been converted into the P1 space group
# The structure has a 3D framework
# The original CSD entry GIVNOQ is in the monoclinic crystal system
# The framework has been calculated to contain at least 10.0% void space
# The void calculation uses a probe of radius 1.32A, grid spacing 0.4
# The framework is charged, counterions have been retained in the structure
# H atom positions have been added when not included in the experimental data
#
###############################################################################

data_GIVNOQ
_chemical_formula_moiety         '(C256 H144 Ag8 F48 N48 Sb8 Zn12)n'
_symmetry_cell_setting           triclinic
_symmetry_space_group_name_H-M   'P 1'
_symmetry_Int_Tables_number      1
_space_group_name_Hall           'P 1'
loop_
_symmetry_equiv_pos_site_id
_symmetry_equiv_pos_as_xyz
1 x,y,z
_cell_length_a                   34.607(2)
_cell_length_b                   12.8631(8)
_cell_length_c                   23.8751(14)
_cell_angle_alpha                90
_cell_angle_beta                 114.026(2)
_cell_angle_gamma                90
_cell_volume                     9707.27
loop_
_atom_site_label
_atom_site_type_symbol
_atom_site_fract_x
_atom_site_fract_y
_atom_site_fract_z
C13 C 0.12304(19) 0.0055(5) 0.0955(3)
C14 C 0.1126(2) 0.1076(6) 0.0716(3)
C15 C 0.0908(2) 0.1189(6) 0.0078(3)
C60 C 0.19911(19) 0.2739(6) 0.0012(2)
H26 H 0.2169 0.2170 0.0161
C61 C 0.21046(18) 0.3684(6) 0.0256(3)
C62 C 0.1868(2) 0.4589(7) 0.0040(3)
H27 H 0.1962 0.5235 0.0218
C64 C 0.2518(2) 0.3826(7) 0.0776(3)
N12 N 0.28428(19) 0.3961(7) 0.1152(3)
Ag5 Ag 0.347002(15) 0.41385(5) 0.19566(2)
H31 H 0.12121 0.175089 0.10175
C4 C 0.07639(18) 0.0046(4) 0.8635(2)
C5 C 0.05852(18) 0.0488(4) 0.9026(2)
C6 C 0.01967(16) 0.0964(5) 0.8837(2)
H4 H 0.0052 0.1104 0.9626
C10 C 0.08299(18) 0.0326(5) 0.9698(2)
H9 H 0.0017 0.4467 0.5513
C25 C 0.0103(2) 0.4168(5) 0.6438(3)
H10 H 0.0386 0.4323 0.6669
Zn1 Zn -0.0000 0.06686(8) 0.7500
Zn2 Zn -0.0000 0.31425(8) 0.7500
Ag1 Ag 0.152998(15) 0.08615(5) 0.80434(2)
C39 C 0.0036(2) 0.1232(5) 0.5791(3)
C40 C 0.04018(18) 0.1699(5) 0.6160(3)
H19 H 0.0610 0.1952 0.6043
C41 C 0.04086(17) 0.1731(5) 0.6755(3)
C49 C 0.07196(16) 0.2207(5) 0.7311(2)
C50 C 0.11480(17) 0.2405(5) 0.7484(2)
H20 H 0.1305 0.2255 0.7258
C51 C 0.12945(16) 0.2863(5) 0.8052(2)
H21 H 0.1571 0.3074 0.8287
C52 C 0.09372(16) 0.2953(6) 0.8212(2)
C53 C 0.09165(18) 0.3375(4) 0.8739(2)
C54 C 0.05728(17) 0.3732(5) 0.8801(3)
C55 C 0.05252(19) 0.4065(5) 0.9345(3)
H22 H 0.0746 0.4125 0.9731
C56 C 0.0103(2) 0.4286(6) 0.9216(4)
C58 C 0.13373(16) 0.3520(5) 0.9264(2)
C59 C 0.15892(18) 0.2635(6) 0.9516(3)
H25 H 0.1491 0.1980 0.9356
C63 C 0.1473(2) 0.4454(6) 0.9528(3)
H28 H 0.1302 0.5033 0.9369
N8 N 0.00574(13) 0.1249(4) 0.67613(17)
N10 N 0.05756(13) 0.2547(4) 0.77319(19)
N11 N 0.01623(15) 0.3805(4) 0.8325(2)
N14 N 0.1544(2) 0.0196(6) 0.7122(2)
N16 N 0.21572(19) 0.1039(7) 0.8848(3)
H30 H 0.080017 0.195421 0.988131
C12 C 0.1143(2) 0.9239(6) 0.0566(3)
C16 C 0.1409(2) 0.9900(8) 0.1610(3)
N3 N 0.1544(2) 0.9804(6) 0.2122(2)
Ag4 Ag 0.152998(15) 0.91385(5) 0.30434(2)
H29 H 0.122926 0.846274 0.0758677
C7 C 0.9964(2) 0.1232(5) 0.9209(3)
C8 C 0.95982(18) 0.1699(5) 0.8840(3)
H5 H 0.9390 0.1952 0.8957
C9 C 0.95914(17) 0.1731(5) 0.8245(3)
C17 C 0.92804(16) 0.2207(5) 0.7689(2)
C18 C 0.88520(17) 0.2405(5) 0.7516(2)
H6 H 0.8695 0.2255 0.7742
C19 C 0.87055(16) 0.2863(5) 0.6948(2)
H7 H 0.8429 0.3074 0.6713
C20 C 0.90628(16) 0.2953(6) 0.6788(2)
C21 C 0.90835(18) 0.3375(4) 0.6261(2)
C22 C 0.94272(17) 0.3732(5) 0.6199(3)
C23 C 0.94748(19) 0.4065(5) 0.5655(3)
H8 H 0.9254 0.4125 0.5269
C24 C 0.9897(2) 0.4286(6) 0.5784(4)
C26 C 0.86627(16) 0.3520(5) 0.5736(2)
C27 C 0.84108(18) 0.2635(6) 0.5484(3)
H11 H 0.8509 0.1980 0.5644
C28 C 0.80089(19) 0.2739(6) 0.4988(2)
H12 H 0.7831 0.2170 0.4839
C29 C 0.78954(18) 0.3684(6) 0.4744(3)
C30 C 0.8132(2) 0.4589(7) 0.4960(3)
H13 H 0.8038 0.5235 0.4782
C31 C 0.8527(2) 0.4454(6) 0.5472(3)
H14 H 0.8698 0.5033 0.5631
C32 C 0.7482(2) 0.3826(7) 0.4224(3)
N2 N 0.99426(13) 0.1249(4) 0.82387(17)
N4 N 0.94244(13) 0.2547(4) 0.72681(19)
N5 N 0.98377(15) 0.3805(4) 0.6675(2)
N6 N 0.71572(19) 0.3961(7) 0.3848(3)
Zn1_2 Zn 1.0000 0.06686(8) 0.7500
Zn2_2 Zn 1.0000 0.31425(8) 0.7500
C36 C 0.92361(18) 0.0046(4) 0.6365(2)
C37 C 0.94148(18) 0.0488(4) 0.5974(2)
C38 C 0.98033(16) 0.0964(5) 0.6163(2)
H18 H 0.9948 0.1104 0.5374
C42 C 0.91701(18) 0.0326(5) 0.5302(2)
C45 C 0.87696(19) 0.0055(5) 0.4045(3)
C46 C 0.8874(2) 0.1076(6) 0.4284(3)
C47 C 0.9092(2) 0.1189(6) 0.4922(3)
H23 H 0.9983 0.4467 0.9487
C57 C 0.9897(2) 0.4168(5) 0.8562(3)
H24 H 0.9614 0.4323 0.8331
Ag2 Ag 0.847002(15) 0.08615(5) 0.69566(2)
N13 N 0.8456(2) 0.0196(6) 0.7878(2)
N15 N 0.78428(19) 0.1039(7) 0.6152(3)
Ag6 Ag 0.652998(15) 0.41385(5) 0.30434(2)
H33 H 0.87879 0.175089 0.39825
H34 H 0.919983 0.195421 0.511869
C33 C 0.9184(2) 0.9505(6) 0.7203(3)
H15 H 0.9248 0.9335 0.7610
C34 C 0.8790(2) 0.9332(6) 0.6697(3)
H16 H 0.8549 0.9046 0.6716
C35 C 0.88296(19) 0.9650(5) 0.6197(3)
H17 H 0.8621 0.9616 0.5800
C43 C 0.9051(2) 0.9342(6) 0.5066(3)
C44 C 0.8857(2) 0.9239(6) 0.4434(3)
C48 C 0.8591(2) 0.9900(8) 0.3390(3)
N7 N 0.94488(16) 0.9961(4) 0.6989(2)
N9 N 0.8456(2) 0.9804(6) 0.2878(2)
Ag3 Ag 0.847002(15) 0.91385(5) 0.19566(2)
H35 H 0.910741 0.866906 0.536579
H36 H 0.877074 0.846274 0.424132
C12_2 C 0.6143(2) 0.4239(6) 0.0566(3)
C13_2 C 0.62304(19) 0.5055(5) 0.0955(3)
C14_2 C 0.6126(2) 0.6076(6) 0.0716(3)
C15_2 C 0.5908(2) 0.6189(6) 0.0078(3)
C16_2 C 0.6409(2) 0.4900(8) 0.1610(3)
N3_2 N 0.6544(2) 0.4804(6) 0.2122(2)
C60_2 C 0.69911(19) 0.7739(6) 0.0012(2)
H26_2 H 0.7169 0.7170 0.0161
C61_2 C 0.71046(18) 0.8684(6) 0.0256(3)
C62_2 C 0.6868(2) 0.9589(7) 0.0040(3)
C64_2 C 0.7518(2) 0.8826(7) 0.0776(3)
N12_2 N 0.78428(19) 0.8961(7) 0.1152(3)
H29_2 H 0.622926 0.346274 0.0758677
H31_2 H 0.62121 0.675089 0.10175
C1 C 0.5816(2) 0.4505(6) 0.7797(3)
H1 H 0.5752 0.4335 0.7390
C2 C 0.6210(2) 0.4332(6) 0.8303(3)
H2 H 0.6451 0.4046 0.8284
C3 C 0.61704(19) 0.4650(5) 0.8803(3)
H3 H 0.6379 0.4616 0.9200
C4_2 C 0.57639(18) 0.5046(4) 0.8635(2)
C5_2 C 0.55852(18) 0.5488(4) 0.9026(2)
C6_2 C 0.51967(16) 0.5964(5) 0.8837(2)
C7_2 C 0.4964(2) 0.6232(5) 0.9209(3)
H4_2 H 0.5052 0.6104 0.9626
C8_2 C 0.45982(18) 0.6699(5) 0.8840(3)
H5_2 H 0.4390 0.6952 0.8957
C9_2 C 0.45914(17) 0.6731(5) 0.8245(3)
C10_2 C 0.58299(18) 0.5326(5) 0.9698(2)
C11 C 0.5949(2) 0.4342(6) 0.9934(3)
C17_2 C 0.42804(16) 0.7207(5) 0.7689(2)
C18_2 C 0.38520(17) 0.7405(5) 0.7516(2)
H6_2 H 0.3695 0.7255 0.7742
C19_2 C 0.37055(16) 0.7863(5) 0.6948(2)
H7_2 H 0.3429 0.8074 0.6713
C20_2 C 0.40628(16) 0.7953(6) 0.6788(2)
C21_2 C 0.40835(18) 0.8375(4) 0.6261(2)
C22_2 C 0.44272(17) 0.8732(5) 0.6199(3)
C23_2 C 0.44748(19) 0.9065(5) 0.5655(3)
H8_2 H 0.4254 0.9125 0.5269
C24_2 C 0.4897(2) 0.9286(6) 0.5784(4)
H9_2 H 0.5017 0.9467 0.5513
C25_2 C 0.5103(2) 0.9168(5) 0.6438(3)
H10_2 H 0.5386 0.9323 0.6669
C26_2 C 0.36627(16) 0.8520(5) 0.5736(2)
C27_2 C 0.34108(18) 0.7635(6) 0.5484(3)
H11_2 H 0.3509 0.6980 0.5644
C28_2 C 0.30089(19) 0.7739(6) 0.4988(2)
H12_2 H 0.2831 0.7170 0.4839
C29_2 C 0.28954(18) 0.8684(6) 0.4744(3)
C30_2 C 0.3132(2) 0.9589(7) 0.4960(3)
C31_2 C 0.3527(2) 0.9454(6) 0.5472(3)
C32_2 C 0.2482(2) 0.8826(7) 0.4224(3)
N1 N 0.55512(16) 0.4961(4) 0.8011(2)
N2_2 N 0.49426(13) 0.6249(4) 0.82387(17)
N4_2 N 0.44244(13) 0.7547(4) 0.72681(19)
N5_2 N 0.48377(15) 0.8805(4) 0.6675(2)
N6_2 N 0.21572(19) 0.8961(7) 0.3848(3)
Zn1_3 Zn 0.5000 0.56686(8) 0.7500
Zn2_3 Zn 0.5000 0.81425(8) 0.7500
Ag1_2 Ag 0.652998(15) 0.58615(5) 0.80434(2)
C33_2 C 0.4184(2) 0.4505(6) 0.7203(3)
H15_2 H 0.4248 0.4335 0.7610
C34_2 C 0.3790(2) 0.4332(6) 0.6697(3)
H16_2 H 0.3549 0.4046 0.6716
C35_2 C 0.38296(19) 0.4650(5) 0.6197(3)
H17_2 H 0.3621 0.4616 0.5800
C36_2 C 0.42361(18) 0.5046(4) 0.6365(2)
C37_2 C 0.44148(18) 0.5488(4) 0.5974(2)
C38_2 C 0.48033(16) 0.5964(5) 0.6163(2)
C39_2 C 0.5036(2) 0.6232(5) 0.5791(3)
H18_2 H 0.4948 0.6104 0.5374
C40_2 C 0.54018(18) 0.6699(5) 0.6160(3)
H19_2 H 0.5610 0.6952 0.6043
C41_2 C 0.54086(17) 0.6731(5) 0.6755(3)
C42_2 C 0.41701(18) 0.5326(5) 0.5302(2)
C43_2 C 0.4051(2) 0.4342(6) 0.5066(3)
C44_2 C 0.3857(2) 0.4239(6) 0.4434(3)
C45_2 C 0.37696(19) 0.5055(5) 0.4045(3)
C46_2 C 0.3874(2) 0.6076(6) 0.4284(3)
C47_2 C 0.4092(2) 0.6189(6) 0.4922(3)
C48_2 C 0.3591(2) 0.4900(8) 0.3390(3)
C49_2 C 0.57196(16) 0.7207(5) 0.7311(2)
C50_2 C 0.61480(17) 0.7405(5) 0.7484(2)
H20_2 H 0.6305 0.7255 0.7258
C51_2 C 0.62945(16) 0.7863(5) 0.8052(2)
H21_2 H 0.6571 0.8074 0.8287
C52_2 C 0.59372(16) 0.7953(6) 0.8212(2)
C53_2 C 0.59165(18) 0.8375(4) 0.8739(2)
C54_2 C 0.55728(17) 0.8732(5) 0.8801(3)
C55_2 C 0.55252(19) 0.9065(5) 0.9345(3)
H22_2 H 0.5746 0.9125 0.9731
C56_2 C 0.5103(2) 0.9286(6) 0.9216(4)
H23_2 H 0.4983 0.9467 0.9487
C57_2 C 0.4897(2) 0.9168(5) 0.8562(3)
H24_2 H 0.4614 0.9323 0.8331
C58_2 C 0.63373(16) 0.8520(5) 0.9264(2)
C59_2 C 0.65892(18) 0.7635(6) 0.9516(3)
H25_2 H 0.6491 0.6980 0.9356
C63_2 C 0.6473(2) 0.9454(6) 0.9528(3)
N7_2 N 0.44488(16) 0.4961(4) 0.6989(2)
N8_2 N 0.50574(13) 0.6249(4) 0.67613(17)
N9_2 N 0.3456(2) 0.4804(6) 0.2878(2)
N10_2 N 0.55756(13) 0.7547(4) 0.77319(19)
N11_2 N 0.51623(15) 0.8805(4) 0.8325(2)
Ag2_2 Ag 0.347002(15) 0.58615(5) 0.69566(2)
N13_2 N 0.3456(2) 0.5196(6) 0.7878(2)
N14_2 N 0.6544(2) 0.5196(6) 0.7122(2)
N15_2 N 0.28428(19) 0.6039(7) 0.6152(3)
N16_2 N 0.71572(19) 0.6039(7) 0.8848(3)
H30_2 H 0.580017 0.695421 0.988131
H32 H 0.589259 0.366906 0.963421
H33_2 H 0.37879 0.675089 0.39825
H34_2 H 0.419983 0.695421 0.511869
H35_2 H 0.410741 0.366906 0.536579
H36_2 H 0.377074 0.346274 0.424132
C33_3 C 0.0816(2) 0.0495(6) 0.2797(3)
H15_3 H 0.0752 0.0665 0.2390
C34_3 C 0.1210(2) 0.0668(6) 0.3303(3)
H16_3 H 0.1451 0.0954 0.3284
C35_3 C 0.11704(19) 0.0350(5) 0.3803(3)
H17_3 H 0.1379 0.0384 0.4200
C43_3 C 0.0949(2) 0.0658(6) 0.4934(3)
C44_3 C 0.1143(2) 0.0761(6) 0.5566(3)
C48_3 C 0.1409(2) 0.0100(8) 0.6610(3)
N7_3 N 0.05512(16) 0.0039(4) 0.3011(2)
H35_3 H 0.0892591 0.133094 0.463421
H36_3 H 0.122926 0.153726 0.575868
C7_3 C 0.0036(2) 0.8768(5) 0.0791(3)
C8_3 C 0.04018(18) 0.8301(5) 0.1160(3)
H5_3 H 0.0610 0.8048 0.1043
C9_3 C 0.04086(17) 0.8269(5) 0.1755(3)
C17_3 C 0.07196(16) 0.7793(5) 0.2311(2)
C18_3 C 0.11480(17) 0.7595(5) 0.2484(2)
H6_3 H 0.1305 0.7745 0.2258
C19_3 C 0.12945(16) 0.7137(5) 0.3052(2)
H7_3 H 0.1571 0.6926 0.3287
C20_3 C 0.09372(16) 0.7047(6) 0.3212(2)
C21_3 C 0.09165(18) 0.6625(4) 0.3739(2)
C22_3 C 0.05728(17) 0.6268(5) 0.3801(3)
C23_3 C 0.05252(19) 0.5935(5) 0.4345(3)
H8_3 H 0.0746 0.5875 0.4731
C24_3 C 0.0103(2) 0.5714(6) 0.4216(4)
C26_3 C 0.13373(16) 0.6480(5) 0.4264(2)
C27_3 C 0.15892(18) 0.7365(6) 0.4516(3)
H11_3 H 0.1491 0.8020 0.4356
C28_3 C 0.19911(19) 0.7261(6) 0.5012(2)
H12_3 H 0.2169 0.7830 0.5161
C29_3 C 0.21046(18) 0.6316(6) 0.5256(3)
C30_3 C 0.1868(2) 0.5411(7) 0.5040(3)
H13_2 H 0.1962 0.4765 0.5218
C31_3 C 0.1473(2) 0.5546(6) 0.4528(3)
H14_2 H 0.1302 0.4967 0.4369
C32_3 C 0.2518(2) 0.6174(7) 0.5776(3)
N2_3 N 0.00574(13) 0.8751(4) 0.17613(17)
N4_3 N 0.05756(13) 0.7453(4) 0.27319(19)
N5_3 N 0.01623(15) 0.6195(4) 0.3325(2)
Zn1_4 Zn 0.0000 0.93314(8) 0.2500
Zn2_4 Zn 0.0000 0.68575(8) 0.2500
C36_3 C 0.07639(18) 0.9954(4) 0.3635(2)
C37_3 C 0.05852(18) 0.9512(4) 0.4026(2)
C38_3 C 0.01967(16) 0.9036(5) 0.3837(2)
H18_3 H 0.0052 0.8896 0.4626
C42_3 C 0.08299(18) 0.9674(5) 0.4698(2)
C45_3 C 0.12304(19) 0.9945(5) 0.5955(3)
C46_3 C 0.1126(2) 0.8924(6) 0.5716(3)
C47_3 C 0.0908(2) 0.8811(6) 0.5078(3)
H23_3 H 0.0017 0.5533 0.0513
C57_3 C 0.0103(2) 0.5832(5) 0.1438(3)
H24_3 H 0.0386 0.5677 0.1669
H33_3 H 0.12121 0.824911 0.60175
H34_3 H 0.080017 0.804579 0.488131
C12_3 C 0.8857(2) 0.0761(6) 0.9434(3)
C16_3 C 0.8591(2) 0.0100(8) 0.8390(3)
H29_3 H 0.877074 0.153726 0.924132
C4_3 C 0.92361(18) 0.9954(4) 0.1365(2)
C5_3 C 0.94148(18) 0.9512(4) 0.0974(2)
C6_3 C 0.98033(16) 0.9036(5) 0.1163(2)
H4_3 H 0.9948 0.8896 0.0374
C10_3 C 0.91701(18) 0.9674(5) 0.0302(2)
H9_3 H 0.9983 0.5533 0.4487
C25_3 C 0.9897(2) 0.5832(5) 0.3562(3)
H10_3 H 0.9614 0.5677 0.3331
Zn1_5 Zn 1.0000 0.93314(8) 0.2500
Zn2_5 Zn 1.0000 0.68575(8) 0.2500
C39_3 C 0.9964(2) 0.8768(5) 0.4209(3)
C40_3 C 0.95982(18) 0.8301(5) 0.3840(3)
H19_3 H 0.9390 0.8048 0.3957
C41_3 C 0.95914(17) 0.8269(5) 0.3245(3)
C49_3 C 0.92804(16) 0.7793(5) 0.2689(2)
C50_3 C 0.88520(17) 0.7595(5) 0.2516(2)
H20_3 H 0.8695 0.7745 0.2742
C51_3 C 0.87055(16) 0.7137(5) 0.1948(2)
H21_3 H 0.8429 0.6926 0.1713
C52_3 C 0.90628(16) 0.7047(6) 0.1788(2)
C53_3 C 0.90835(18) 0.6625(4) 0.1261(2)
C54_3 C 0.94272(17) 0.6268(5) 0.1199(3)
C55_3 C 0.94748(19) 0.5935(5) 0.0655(3)
H22_3 H 0.9254 0.5875 0.0269
C56_3 C 0.9897(2) 0.5714(6) 0.0784(4)
C58_3 C 0.86627(16) 0.6480(5) 0.0736(2)
C59_3 C 0.84108(18) 0.7365(6) 0.0484(3)
H25_3 H 0.8509 0.8020 0.0644
C63_3 C 0.8527(2) 0.5546(6) 0.0472(3)
H28_2 H 0.8698 0.4967 0.0631
N8_3 N 0.99426(13) 0.8751(4) 0.32387(17)
N10_3 N 0.94244(13) 0.7453(4) 0.22681(19)
N11_3 N 0.98377(15) 0.6195(4) 0.1675(2)
H30_3 H 0.919983 0.804579 0.0118688
C13_3 C 0.87696(19) 0.9945(5) 0.9045(3)
C14_3 C 0.8874(2) 0.8924(6) 0.9284(3)
C15_3 C 0.9092(2) 0.8811(6) 0.9922(3)
C60_3 C 0.80089(19) 0.7261(6) 0.9988(2)
H26_3 H 0.7831 0.7830 0.9839
C61_3 C 0.78954(18) 0.6316(6) 0.9744(3)
C62_3 C 0.8132(2) 0.5411(7) 0.9960(3)
H27_2 H 0.8038 0.4765 0.9782
C64_3 C 0.7482(2) 0.6174(7) 0.9224(3)
H31_3 H 0.87879 0.824911 0.89825
C1_2 C 0.4184(2) 0.5495(6) 0.2203(3)
H1_2 H 0.4248 0.5665 0.2610
C2_2 C 0.3790(2) 0.5668(6) 0.1697(3)
H2_2 H 0.3549 0.5954 0.1716
C3_2 C 0.38296(19) 0.5350(5) 0.1197(3)
H3_2 H 0.3621 0.5384 0.0800
C4_4 C 0.42361(18) 0.4954(4) 0.1365(2)
C5_4 C 0.44148(18) 0.4512(4) 0.0974(2)
C6_4 C 0.48033(16) 0.4036(5) 0.1163(2)
C7_4 C 0.5036(2) 0.3768(5) 0.0791(3)
H4_4 H 0.4948 0.3896 0.0374
C8_4 C 0.54018(18) 0.3301(5) 0.1160(3)
H5_4 H 0.5610 0.3048 0.1043
C9_4 C 0.54086(17) 0.3269(5) 0.1755(3)
C10_4 C 0.41701(18) 0.4674(5) 0.0302(2)
C11_2 C 0.4051(2) 0.5658(6) 0.0066(3)
C17_4 C 0.57196(16) 0.2793(5) 0.2311(2)
C18_4 C 0.61480(17) 0.2595(5) 0.2484(2)
H6_4 H 0.6305 0.2745 0.2258
C19_4 C 0.62945(16) 0.2137(5) 0.3052(2)
H7_4 H 0.6571 0.1926 0.3287
C20_4 C 0.59372(16) 0.2047(6) 0.3212(2)
C21_4 C 0.59165(18) 0.1625(4) 0.3739(2)
C22_4 C 0.55728(17) 0.1268(5) 0.3801(3)
C23_4 C 0.55252(19) 0.0935(5) 0.4345(3)
H8_4 H 0.5746 0.0875 0.4731
C24_4 C 0.5103(2) 0.0714(6) 0.4216(4)
H9_4 H 0.4983 0.0533 0.4487
C25_4 C 0.4897(2) 0.0832(5) 0.3562(3)
H10_4 H 0.4614 0.0677 0.3331
C26_4 C 0.63373(16) 0.1480(5) 0.4264(2)
C27_4 C 0.65892(18) 0.2365(6) 0.4516(3)
H11_4 H 0.6491 0.3020 0.4356
C28_4 C 0.69911(19) 0.2261(6) 0.5012(2)
H12_4 H 0.7169 0.2830 0.5161
C29_4 C 0.71046(18) 0.1316(6) 0.5256(3)
C30_4 C 0.6868(2) 0.0411(7) 0.5040(3)
C31_4 C 0.6473(2) 0.0546(6) 0.4528(3)
C32_4 C 0.7518(2) 0.1174(7) 0.5776(3)
N1_2 N 0.44488(16) 0.5039(4) 0.1989(2)
N2_4 N 0.50574(13) 0.3751(4) 0.17613(17)
N4_4 N 0.55756(13) 0.2453(4) 0.27319(19)
N5_4 N 0.51623(15) 0.1195(4) 0.3325(2)
Zn1_6 Zn 0.5000 0.43314(8) 0.2500
Zn2_6 Zn 0.5000 0.18575(8) 0.2500
C33_4 C 0.5816(2) 0.5495(6) 0.2797(3)
H15_4 H 0.5752 0.5665 0.2390
C34_4 C 0.6210(2) 0.5668(6) 0.3303(3)
H16_4 H 0.6451 0.5954 0.3284
C35_4 C 0.61704(19) 0.5350(5) 0.3803(3)
H17_4 H 0.6379 0.5384 0.4200
C36_4 C 0.57639(18) 0.4954(4) 0.3635(2)
C37_4 C 0.55852(18) 0.4512(4) 0.4026(2)
C38_4 C 0.51967(16) 0.4036(5) 0.3837(2)
C39_4 C 0.4964(2) 0.3768(5) 0.4209(3)
H18_4 H 0.5052 0.3896 0.4626
C40_4 C 0.45982(18) 0.3301(5) 0.3840(3)
H19_4 H 0.4390 0.3048 0.3957
C41_4 C 0.45914(17) 0.3269(5) 0.3245(3)
C42_4 C 0.58299(18) 0.4674(5) 0.4698(2)
C43_4 C 0.5949(2) 0.5658(6) 0.4934(3)
C44_4 C 0.6143(2) 0.5761(6) 0.5566(3)
C45_4 C 0.62304(19) 0.4945(5) 0.5955(3)
C46_4 C 0.6126(2) 0.3924(6) 0.5716(3)
C47_4 C 0.5908(2) 0.3811(6) 0.5078(3)
C48_4 C 0.6409(2) 0.5100(8) 0.6610(3)
C49_4 C 0.42804(16) 0.2793(5) 0.2689(2)
C50_4 C 0.38520(17) 0.2595(5) 0.2516(2)
H20_4 H 0.3695 0.2745 0.2742
C51_4 C 0.37055(16) 0.2137(5) 0.1948(2)
H21_4 H 0.3429 0.1926 0.1713
C52_4 C 0.40628(16) 0.2047(6) 0.1788(2)
C53_4 C 0.40835(18) 0.1625(4) 0.1261(2)
C54_4 C 0.44272(17) 0.1268(5) 0.1199(3)
C55_4 C 0.44748(19) 0.0935(5) 0.0655(3)
H22_4 H 0.4254 0.0875 0.0269
C56_4 C 0.4897(2) 0.0714(6) 0.0784(4)
H23_4 H 0.5017 0.0533 0.0513
C57_4 C 0.5103(2) 0.0832(5) 0.1438(3)
H24_4 H 0.5386 0.0677 0.1669
C58_4 C 0.36627(16) 0.1480(5) 0.0736(2)
C59_4 C 0.34108(18) 0.2365(6) 0.0484(3)
H25_4 H 0.3509 0.3020 0.0644
C63_4 C 0.3527(2) 0.0546(6) 0.0472(3)
N7_4 N 0.55512(16) 0.5039(4) 0.3011(2)
N8_4 N 0.49426(13) 0.3751(4) 0.32387(17)
N10_4 N 0.44244(13) 0.2453(4) 0.22681(19)
N11_4 N 0.48377(15) 0.1195(4) 0.1675(2)
H30_4 H 0.419983 0.304579 0.0118688
H32_2 H 0.410741 0.633094 0.0365795
H33_4 H 0.62121 0.324911 0.60175
H34_4 H 0.580017 0.304579 0.488131
H35_4 H 0.589259 0.633094 0.463421
H36_4 H 0.622926 0.653726 0.575868
C12_4 C 0.3857(2) 0.5761(6) 0.9434(3)
C13_4 C 0.37696(19) 0.4945(5) 0.9045(3)
C14_4 C 0.3874(2) 0.3924(6) 0.9284(3)
C15_4 C 0.4092(2) 0.3811(6) 0.9922(3)
C16_4 C 0.3591(2) 0.5100(8) 0.8390(3)
C60_4 C 0.30089(19) 0.2261(6) 0.9988(2)
H26_4 H 0.2831 0.2830 0.9839
C61_4 C 0.28954(18) 0.1316(6) 0.9744(3)
C62_4 C 0.3132(2) 0.0411(7) 0.9960(3)
C64_4 C 0.2482(2) 0.1174(7) 0.9224(3)
H29_4 H 0.377074 0.653726 0.924132
H31_4 H 0.37879 0.324911 0.89825
C1_3 C 0.0816(2) 0.9505(6) 0.7797(3)
H1_3 H 0.0752 0.9335 0.7390
C2_3 C 0.1210(2) 0.9332(6) 0.8303(3)
H2_3 H 0.1451 0.9046 0.8284
C3_3 C 0.11704(19) 0.9650(5) 0.8803(3)
H3_3 H 0.1379 0.9616 0.9200
C11_3 C 0.0949(2) 0.9342(6) 0.9934(3)
N1_3 N 0.05512(16) 0.9961(4) 0.8011(2)
H32_3 H 0.0892591 0.866906 0.963421
H27_3 H 0.6962 0.0235 0.0218
H13_3 H 0.3038 0.0235 0.4782
H14_3 H 0.3698 0.0033 0.5631
H28_3 H 0.6302 0.0033 0.9369
C1_4 C 0.9184(2) 0.0495(6) 0.2203(3)
H1_4 H 0.9248 0.0665 0.2610
C2_4 C 0.8790(2) 0.0668(6) 0.1697(3)
H2_4 H 0.8549 0.0954 0.1716
C3_4 C 0.88296(19) 0.0350(5) 0.1197(3)
H3_4 H 0.8621 0.0384 0.0800
C11_4 C 0.9051(2) 0.0658(6) 0.0066(3)
N1_4 N 0.94488(16) 0.0039(4) 0.1989(2)
H32_4 H 0.910741 0.133094 0.0365795
H13_4 H 0.6962 0.9765 0.5218
H14_4 H 0.6302 0.9967 0.4369
H28_4 H 0.3698 0.9967 0.0631
H27_4 H 0.3038 0.9765 0.9782
F1 F 0.1549(2) 0.2777(5) 0.6497(3)
F2 F 0.0902(2) 0.3924(8) 0.6107(4)
F3 F 0.13466(19) 0.3665(5) 0.5423(3)
F4 F 0.13058(19) 0.5543(5) 0.5978(6)
F5 F 0.19896(17) 0.4407(5) 0.6292(3)
F6 F 0.1544(3) 0.4636(5) 0.6987(3)
Sb1 Sb 0.144473(19) 0.41537(5) 0.61960(3)
F1_2 F 0.8451(2) 0.2777(5) 0.8503(3)
F2_2 F 0.9098(2) 0.3924(8) 0.8893(4)
F3_2 F 0.86534(19) 0.3665(5) 0.9577(3)
F4_2 F 0.86942(19) 0.5543(5) 0.9022(6)
F5_2 F 0.80104(17) 0.4407(5) 0.8708(3)
F6_2 F 0.8456(3) 0.4636(5) 0.8013(3)
Sb1_2 Sb 0.855527(19) 0.41537(5) 0.88040(3)
F4_3 F 0.63058(19) 0.0543(5) 0.5978(6)
F1_3 F 0.6549(2) 0.7777(5) 0.6497(3)
F2_3 F 0.5902(2) 0.8924(8) 0.6107(4)
F3_3 F 0.63466(19) 0.8665(5) 0.5423(3)
F5_3 F 0.69896(17) 0.9407(5) 0.6292(3)
F6_3 F 0.6544(3) 0.9636(5) 0.6987(3)
Sb1_3 Sb 0.644473(19) 0.91537(5) 0.61960(3)
F4_4 F 0.36942(19) 0.0543(5) 0.9022(6)
F1_4 F 0.3451(2) 0.7777(5) 0.8503(3)
F2_4 F 0.4098(2) 0.8924(8) 0.8893(4)
F3_4 F 0.36534(19) 0.8665(5) 0.9577(3)
F5_4 F 0.30104(17) 0.9407(5) 0.8708(3)
F6_4 F 0.3456(3) 0.9636(5) 0.8013(3)
Sb1_4 Sb 0.355527(19) 0.91537(5) 0.88040(3)
F1_5 F 0.8451(2) 0.7223(5) 0.3503(3)
F2_5 F 0.9098(2) 0.6076(8) 0.3893(4)
F3_5 F 0.86534(19) 0.6335(5) 0.4577(3)
F4_5 F 0.86942(19) 0.4457(5) 0.4022(6)
F5_5 F 0.80104(17) 0.5593(5) 0.3708(3)
F6_5 F 0.8456(3) 0.5364(5) 0.3013(3)
Sb1_5 Sb 0.855527(19) 0.58463(5) 0.38040(3)
F1_6 F 0.1549(2) 0.7223(5) 0.1497(3)
F2_6 F 0.0902(2) 0.6076(8) 0.1107(4)
F3_6 F 0.13466(19) 0.6335(5) 0.0423(3)
F4_6 F 0.13058(19) 0.4457(5) 0.0978(6)
F5_6 F 0.19896(17) 0.5593(5) 0.1292(3)
F6_6 F 0.1544(3) 0.5364(5) 0.1987(3)
Sb1_6 Sb 0.144473(19) 0.58463(5) 0.11960(3)
F1_7 F 0.3451(2) 0.2223(5) 0.3503(3)
F2_7 F 0.4098(2) 0.1076(8) 0.3893(4)
F3_7 F 0.36534(19) 0.1335(5) 0.4577(3)
F5_7 F 0.30104(17) 0.0593(5) 0.3708(3)
F6_7 F 0.3456(3) 0.0364(5) 0.3013(3)
Sb1_7 Sb 0.355527(19) 0.08463(5) 0.38040(3)
F4_7 F 0.36942(19) 0.9457(5) 0.4022(6)
F1_8 F 0.6549(2) 0.2223(5) 0.1497(3)
F2_8 F 0.5902(2) 0.1076(8) 0.1107(4)
F3_8 F 0.63466(19) 0.1335(5) 0.0423(3)
F5_8 F 0.69896(17) 0.0593(5) 0.1292(3)
F6_8 F 0.6544(3) 0.0364(5) 0.1987(3)
Sb1_8 Sb 0.644473(19) 0.08463(5) 0.11960(3)
F4_8 F 0.63058(19) 0.9457(5) 0.0978(6)
loop_
_geom_bond_atom_site_label_1
_geom_bond_atom_site_label_2
_geom_bond_site_symmetry_1
_geom_bond_site_symmetry_2
C14 C13 1_555 1_555
H26 C60 1_555 1_555
C61 C60 1_555 1_555
C62 C61 1_555 1_555
H27 C62 1_555 1_555
C64 C61 1_555 1_555
N12 C64 1_555 1_555
Ag5 N12 1_555 1_555
C14 C15 1_555 1_555
C14 H31 1_555 1_555
C5 C4 1_555 1_555
C6 C5 1_555 1_555
C10 C5 1_555 1_555
H10 C25 1_555 1_555
C40 C39 1_555 1_555
H19 C40 1_555 1_555
C41 C40 1_555 1_555
C49 C41 1_555 1_555
C50 Ag1 1_555 1_555
H20 C50 1_555 1_555
C51 Ag1 1_555 1_555
H21 C51 1_555 1_555
C52 C51 1_555 1_555
C53 C52 1_555 1_555
C54 C53 1_555 1_555
C55 C54 1_555 1_555
H22 C55 1_555 1_555
C56 C55 1_555 1_555
C58 C53 1_555 1_555
C59 C58 1_555 1_555
H25 C59 1_555 1_555
C63 C58 1_555 1_555
H28 C63 1_555 1_555
N8 Zn1 1_555 1_555
N10 Zn2 1_555 1_555
N11 Zn2 1_555 1_555
N14 Ag1 1_555 1_555
N16 Ag1 1_555 1_555
C41 N8 1_555 1_555
C49 C50 1_555 1_555
C49 N10 1_555 1_555
C50 C51 1_555 1_555
C52 N10 1_555 1_555
C54 N11 1_555 1_555
N3 C16 1_555 1_555
Ag4 N3 1_555 1_555
C12 H29 1_555 1_555
C8 C7 1_555 1_555
H5 C8 1_555 1_555
C9 C8 1_555 1_555
C17 C9 1_555 1_555
C18 C17 1_555 1_555
H6 C18 1_555 1_555
C19 C18 1_555 1_555
H7 C19 1_555 1_555
C20 C19 1_555 1_555
C21 C20 1_555 1_555
C22 C21 1_555 1_555
C23 C22 1_555 1_555
H8 C23 1_555 1_555
C24 C23 1_555 1_555
C26 C21 1_555 1_555
C27 C26 1_555 1_555
H11 C27 1_555 1_555
C28 C27 1_555 1_555
H12 C28 1_555 1_555
C29 C28 1_555 1_555
C30 C29 1_555 1_555
H13 C30 1_555 1_555
C31 C26 1_555 1_555
H14 C31 1_555 1_555
C32 C29 1_555 1_555
N4 C17 1_555 1_555
N5 C22 1_555 1_555
N6 C32 1_555 1_555
Zn2_2 N4 1_555 1_555
C37 C36 1_555 1_555
C38 C37 1_555 1_555
C42 C37 1_555 1_555
C46 C45 1_555 1_555
C47 C42 1_555 1_555
H24 C57 1_555 1_555
Ag2 C18 1_555 1_555
N13 Ag2 1_555 1_555
N15 Ag2 1_555 1_555
Ag6 N6 1_555 1_555
C9 N2 1_555 1_555
C19 Ag2 1_555 1_555
C20 N4 1_555 1_555
C30 C31 1_555 1_555
N2 Zn1_2 1_555 1_555
N5 Zn2_2 1_555 1_555
C46 C47 1_555 1_555
C46 H33 1_555 1_555
C47 H34 1_555 1_555
C33 H15 1_555 1_555
C34 C33 1_555 1_555
H16 C34 1_555 1_555
C35 C34 1_555 1_555
H17 C35 1_555 1_555
C44 C43 1_555 1_555
N9 C48 1_555 1_555
Ag3 N9 1_555 1_555
C33 N7 1_555 1_555
C43 H35 1_555 1_555
C44 H36 1_555 1_555
C13_2 C12_2 1_555 1_555
C14_2 C13_2 1_555 1_555
C16_2 C13_2 1_555 1_555
N3_2 C16_2 1_555 1_555
H26_2 C60_2 1_555 1_555
C61_2 C60_2 1_555 1_555
C62_2 C61_2 1_555 1_555
C64_2 C61_2 1_555 1_555
N12_2 C64_2 1_555 1_555
Ag6 N3_2 1_555 1_555
Ag3 N12_2 1_555 1_555
C14_2 C15_2 1_555 1_555
C12_2 H29_2 1_555 1_555
C14_2 H31_2 1_555 1_555
C1 H1 1_555 1_555
C2 C1 1_555 1_555
H2 C2 1_555 1_555
C3 C2 1_555 1_555
H3 C3 1_555 1_555
C4_2 C3 1_555 1_555
C5_2 C4_2 1_555 1_555
C6_2 C5_2 1_555 1_555
C7_2 C6_2 1_555 1_555
H4_2 C7_2 1_555 1_555
C8_2 C7_2 1_555 1_555
H5_2 C8_2 1_555 1_555
C9_2 C8_2 1_555 1_555
C10_2 C5_2 1_555 1_555
C11 C10_2 1_555 1_555
C17_2 C9_2 1_555 1_555
C18_2 C17_2 1_555 1_555
H6_2 C18_2 1_555 1_555
C19_2 C18_2 1_555 1_555
H7_2 C19_2 1_555 1_555
C20_2 C19_2 1_555 1_555
C21_2 C20_2 1_555 1_555
C22_2 C21_2 1_555 1_555
C23_2 C22_2 1_555 1_555
H8_2 C23_2 1_555 1_555
C24_2 C23_2 1_555 1_555
H9_2 C24_2 1_555 1_555
C25_2 C24_2 1_555 1_555
H10_2 C25_2 1_555 1_555
C26_2 C21_2 1_555 1_555
C27_2 C26_2 1_555 1_555
H11_2 C27_2 1_555 1_555
C28_2 C27_2 1_555 1_555
H12_2 C28_2 1_555 1_555
C29_2 C28_2 1_555 1_555
C30_2 C29_2 1_555 1_555
C31_2 C26_2 1_555 1_555
C32_2 C29_2 1_555 1_555
N1 C1 1_555 1_555
N2_2 C6_2 1_555 1_555
N4_2 C17_2 1_555 1_555
N5_2 C22_2 1_555 1_555
N6_2 C32_2 1_555 1_555
Zn1_3 N1 1_555 1_555
Zn2_3 N4_2 1_555 1_555
Ag1_2 C2 1_555 1_555
C33_2 H15_2 1_555 1_555
C34_2 C33_2 1_555 1_555
H16_2 C34_2 1_555 1_555
C35_2 C34_2 1_555 1_555
H17_2 C35_2 1_555 1_555
C36_2 C35_2 1_555 1_555
C37_2 C36_2 1_555 1_555
C38_2 C37_2 1_555 1_555
C39_2 C38_2 1_555 1_555
H18_2 C39_2 1_555 1_555
C40_2 C39_2 1_555 1_555
H19_2 C40_2 1_555 1_555
C41_2 C40_2 1_555 1_555
C42_2 C37_2 1_555 1_555
C43_2 C42_2 1_555 1_555
C44_2 C43_2 1_555 1_555
C45_2 C44_2 1_555 1_555
C46_2 C45_2 1_555 1_555
C47_2 C42_2 1_555 1_555
C48_2 C45_2 1_555 1_555
C49_2 C41_2 1_555 1_555
C50_2 Ag1_2 1_555 1_555
H20_2 C50_2 1_555 1_555
C51_2 Ag1_2 1_555 1_555
H21_2 C51_2 1_555 1_555
C52_2 C51_2 1_555 1_555
C53_2 C52_2 1_555 1_555
C54_2 C53_2 1_555 1_555
C55_2 C54_2 1_555 1_555
H22_2 C55_2 1_555 1_555
C56_2 C55_2 1_555 1_555
H23_2 C56_2 1_555 1_555
C57_2 C56_2 1_555 1_555
H24_2 C57_2 1_555 1_555
C58_2 C53_2 1_555 1_555
C59_2 C58_2 1_555 1_555
H25_2 C59_2 1_555 1_555
C63_2 C58_2 1_555 1_555
N7_2 Zn1_3 1_555 1_555
N8_2 Zn1_3 1_555 1_555
N9_2 C48_2 1_555 1_555
N10_2 Zn2_3 1_555 1_555
N11_2 Zn2_3 1_555 1_555
Ag2_2 C18_2 1_555 1_555
N13_2 Ag2_2 1_555 1_555
N14_2 Ag1_2 1_555 1_555
N15_2 Ag2_2 1_555 1_555
N16_2 Ag1_2 1_555 1_555
Ag5 N9_2 1_555 1_555
Ag4 N6_2 1_555 1_555
C4_2 N1 1_555 1_555
C9_2 N2_2 1_555 1_555
C19_2 Ag2_2 1_555 1_555
C20_2 N4_2 1_555 1_555
C25_2 N5_2 1_555 1_555
C30_2 C31_2 1_555 1_555
N2_2 Zn1_3 1_555 1_555
N5_2 Zn2_3 1_555 1_555
C33_2 N7_2 1_555 1_555
C34_2 Ag2_2 1_555 1_555
C36_2 N7_2 1_555 1_555
C38_2 N8_2 1_555 1_555
C41_2 N8_2 1_555 1_555
C46_2 C47_2 1_555 1_555
C49_2 C50_2 1_555 1_555
C49_2 N10_2 1_555 1_555
C50_2 C51_2 1_555 1_555
C52_2 N10_2 1_555 1_555
C54_2 N11_2 1_555 1_555
C57_2 N11_2 1_555 1_555
C11 H32 1_555 1_555
C46_2 H33_2 1_555 1_555
C47_2 H34_2 1_555 1_555
C43_2 H35_2 1_555 1_555
C44_2 H36_2 1_555 1_555
C33_3 H15_3 1_555 1_555
C34_3 C33_3 1_555 1_555
H16_3 C34_3 1_555 1_555
C35_3 C34_3 1_555 1_555
H17_3 C35_3 1_555 1_555
C44_3 C43_3 1_555 1_555
N14 C48_3 1_555 1_555
C33_3 N7_3 1_555 1_555
C43_3 H35_3 1_555 1_555
C44_3 H36_3 1_555 1_555
C8_3 C7_3 1_555 1_555
H5_3 C8_3 1_555 1_555
C9_3 C8_3 1_555 1_555
C17_3 C9_3 1_555 1_555
C18_3 C17_3 1_555 1_555
H6_3 C18_3 1_555 1_555
C19_3 C18_3 1_555 1_555
H7_3 C19_3 1_555 1_555
C20_3 C19_3 1_555 1_555
C21_3 C20_3 1_555 1_555
C22_3 C21_3 1_555 1_555
C23_3 C22_3 1_555 1_555
H8_3 C23_3 1_555 1_555
C24_3 C23_3 1_555 1_555
C26_3 C21_3 1_555 1_555
C27_3 C26_3 1_555 1_555
H11_3 C27_3 1_555 1_555
C28_3 C27_3 1_555 1_555
H12_3 C28_3 1_555 1_555
C29_3 C28_3 1_555 1_555
C30_3 C29_3 1_555 1_555
H13_2 C30_3 1_555 1_555
C31_3 C26_3 1_555 1_555
H14_2 C31_3 1_555 1_555
C32_3 C29_3 1_555 1_555
N4_3 C17_3 1_555 1_555
N5_3 C22_3 1_555 1_555
N15_2 C32_3 1_555 1_555
Zn2_4 N4_3 1_555 1_555
C37_3 C36_3 1_555 1_555
C38_3 C37_3 1_555 1_555
C42_3 C37_3 1_555 1_555
C46_3 C45_3 1_555 1_555
C47_3 C42_3 1_555 1_555
H24_3 C57_3 1_555 1_555
Ag4 C18_3 1_555 1_555
C9_3 N2_3 1_555 1_555
C19_3 Ag4 1_555 1_555
C20_3 N4_3 1_555 1_555
C30_3 C31_3 1_555 1_555
N2_3 Zn1_4 1_555 1_555
N5_3 Zn2_4 1_555 1_555
C46_3 C47_3 1_555 1_555
C46_3 H33_3 1_555 1_555
C47_3 H34_3 1_555 1_555
N13 C16_3 1_555 1_555
C12_3 H29_3 1_555 1_555
C5_3 C4_3 1_555 1_555
C6_3 C5_3 1_555 1_555
C10_3 C5_3 1_555 1_555
H10_3 C25_3 1_555 1_555
C40_3 C39_3 1_555 1_555
H19_3 C40_3 1_555 1_555
C41_3 C40_3 1_555 1_555
C49_3 C41_3 1_555 1_555
C50_3 Ag3 1_555 1_555
H20_3 C50_3 1_555 1_555
C51_3 Ag3 1_555 1_555
H21_3 C51_3 1_555 1_555
C52_3 C51_3 1_555 1_555
C53_3 C52_3 1_555 1_555
C54_3 C53_3 1_555 1_555
C55_3 C54_3 1_555 1_555
H22_3 C55_3 1_555 1_555
C56_3 C55_3 1_555 1_555
C58_3 C53_3 1_555 1_555
C59_3 C58_3 1_555 1_555
H25_3 C59_3 1_555 1_555
C63_3 C58_3 1_555 1_555
H28_2 C63_3 1_555 1_555
N8_3 Zn1_5 1_555 1_555
N10_3 Zn2_5 1_555 1_555
N11_3 Zn2_5 1_555 1_555
C41_3 N8_3 1_555 1_555
C49_3 C50_3 1_555 1_555
C49_3 N10_3 1_555 1_555
C50_3 C51_3 1_555 1_555
C52_3 N10_3 1_555 1_555
C54_3 N11_3 1_555 1_555
C14_3 C13_3 1_555 1_555
H26_3 C60_3 1_555 1_555
C61_3 C60_3 1_555 1_555
C62_3 C61_3 1_555 1_555
H27_2 C62_3 1_555 1_555
C64_3 C61_3 1_555 1_555
N16_2 C64_3 1_555 1_555
C14_3 C15_3 1_555 1_555
C14_3 H31_3 1_555 1_555
C1_2 H1_2 1_555 1_555
C2_2 C1_2 1_555 1_555
H2_2 C2_2 1_555 1_555
C3_2 C2_2 1_555 1_555
H3_2 C3_2 1_555 1_555
C4_4 C3_2 1_555 1_555
C5_4 C4_4 1_555 1_555
C6_4 C5_4 1_555 1_555
C7_4 C6_4 1_555 1_555
H4_4 C7_4 1_555 1_555
C8_4 C7_4 1_555 1_555
H5_4 C8_4 1_555 1_555
C9_4 C8_4 1_555 1_555
C10_4 C5_4 1_555 1_555
C11_2 C10_4 1_555 1_555
C17_4 C9_4 1_555 1_555
C18_4 C17_4 1_555 1_555
H6_4 C18_4 1_555 1_555
C19_4 C18_4 1_555 1_555
H7_4 C19_4 1_555 1_555
C20_4 C19_4 1_555 1_555
C21_4 C20_4 1_555 1_555
C22_4 C21_4 1_555 1_555
C23_4 C22_4 1_555 1_555
H8_4 C23_4 1_555 1_555
C24_4 C23_4 1_555 1_555
H9_4 C24_4 1_555 1_555
C25_4 C24_4 1_555 1_555
H10_4 C25_4 1_555 1_555
C26_4 C21_4 1_555 1_555
C27_4 C26_4 1_555 1_555
H11_4 C27_4 1_555 1_555
C28_4 C27_4 1_555 1_555
H12_4 C28_4 1_555 1_555
C29_4 C28_4 1_555 1_555
C30_4 C29_4 1_555 1_555
C31_4 C26_4 1_555 1_555
C32_4 C29_4 1_555 1_555
N1_2 C1_2 1_555 1_555
N2_4 C6_4 1_555 1_555
N4_4 C17_4 1_555 1_555
N5_4 C22_4 1_555 1_555
N15 C32_4 1_555 1_555
Zn1_6 N1_2 1_555 1_555
Zn2_6 N4_4 1_555 1_555
Ag5 C2_2 1_555 1_555
C33_4 H15_4 1_555 1_555
C34_4 C33_4 1_555 1_555
H16_4 C34_4 1_555 1_555
C35_4 C34_4 1_555 1_555
H17_4 C35_4 1_555 1_555
C36_4 C35_4 1_555 1_555
C37_4 C36_4 1_555 1_555
C38_4 C37_4 1_555 1_555
C39_4 C38_4 1_555 1_555
H18_4 C39_4 1_555 1_555
C40_4 C39_4 1_555 1_555
H19_4 C40_4 1_555 1_555
C41_4 C40_4 1_555 1_555
C42_4 C37_4 1_555 1_555
C43_4 C42_4 1_555 1_555
C44_4 C43_4 1_555 1_555
C45_4 C44_4 1_555 1_555
C46_4 C45_4 1_555 1_555
C47_4 C42_4 1_555 1_555
C48_4 C45_4 1_555 1_555
C49_4 C41_4 1_555 1_555
C50_4 Ag5 1_555 1_555
H20_4 C50_4 1_555 1_555
C51_4 Ag5 1_555 1_555
H21_4 C51_4 1_555 1_555
C52_4 C51_4 1_555 1_555
C53_4 C52_4 1_555 1_555
C54_4 C53_4 1_555 1_555
C55_4 C54_4 1_555 1_555
H22_4 C55_4 1_555 1_555
C56_4 C55_4 1_555 1_555
H23_4 C56_4 1_555 1_555
C57_4 C56_4 1_555 1_555
H24_4 C57_4 1_555 1_555
C58_4 C53_4 1_555 1_555
C59_4 C58_4 1_555 1_555
H25_4 C59_4 1_555 1_555
C63_4 C58_4 1_555 1_555
N7_4 Zn1_6 1_555 1_555
N8_4 Zn1_6 1_555 1_555
N14_2 C48_4 1_555 1_555
N10_4 Zn2_6 1_555 1_555
N11_4 Zn2_6 1_555 1_555
Ag6 C18_4 1_555 1_555
C4_4 N1_2 1_555 1_555
C9_4 N2_4 1_555 1_555
C19_4 Ag6 1_555 1_555
C20_4 N4_4 1_555 1_555
C25_4 N5_4 1_555 1_555
C30_4 C31_4 1_555 1_555
N2_4 Zn1_6 1_555 1_555
N5_4 Zn2_6 1_555 1_555
C33_4 N7_4 1_555 1_555
C34_4 Ag6 1_555 1_555
C36_4 N7_4 1_555 1_555
C38_4 N8_4 1_555 1_555
C41_4 N8_4 1_555 1_555
C46_4 C47_4 1_555 1_555
C49_4 C50_4 1_555 1_555
C49_4 N10_4 1_555 1_555
C50_4 C51_4 1_555 1_555
C52_4 N10_4 1_555 1_555
C54_4 N11_4 1_555 1_555
C57_4 N11_4 1_555 1_555
C11_2 H32_2 1_555 1_555
C46_4 H33_4 1_555 1_555
C47_4 H34_4 1_555 1_555
C43_4 H35_4 1_555 1_555
C44_4 H36_4 1_555 1_555
C13_4 C12_4 1_555 1_555
C14_4 C13_4 1_555 1_555
C16_4 C13_4 1_555 1_555
N13_2 C16_4 1_555 1_555
H26_4 C60_4 1_555 1_555
C61_4 C60_4 1_555 1_555
C62_4 C61_4 1_555 1_555
C64_4 C61_4 1_555 1_555
N16 C64_4 1_555 1_555
C14_4 C15_4 1_555 1_555
C12_4 H29_4 1_555 1_555
C14_4 H31_4 1_555 1_555
C1_3 H1_3 1_555 1_555
C2_3 C1_3 1_555 1_555
H2_3 C2_3 1_555 1_555
C3_3 C2_3 1_555 1_555
H3_3 C3_3 1_555 1_555
N1_3 C1_3 1_555 1_555
C11_3 H32_3 1_555 1_555
C1_4 H1_4 1_555 1_555
C2_4 C1_4 1_555 1_555
H2_4 C2_4 1_555 1_555
C3_4 C2_4 1_555 1_555
H3_4 C3_4 1_555 1_555
N1_4 C1_4 1_555 1_555
C11_4 H32_4 1_555 1_555
F1 Sb1 1_555 1_555
F2 Sb1 1_555 1_555
F3 Sb1 1_555 1_555
F4 Sb1 1_555 1_555
F5 Sb1 1_555 1_555
F6 Sb1 1_555 1_555
F1_2 Sb1_2 1_555 1_555
F2_2 Sb1_2 1_555 1_555
F3_2 Sb1_2 1_555 1_555
F4_2 Sb1_2 1_555 1_555
F5_2 Sb1_2 1_555 1_555
F6_2 Sb1_2 1_555 1_555
F1_3 Sb1_3 1_555 1_555
F2_3 Sb1_3 1_555 1_555
F3_3 Sb1_3 1_555 1_555
F5_3 Sb1_3 1_555 1_555
F6_3 Sb1_3 1_555 1_555
F1_4 Sb1_4 1_555 1_555
F2_4 Sb1_4 1_555 1_555
F3_4 Sb1_4 1_555 1_555
F5_4 Sb1_4 1_555 1_555
F6_4 Sb1_4 1_555 1_555
F1_5 Sb1_5 1_555 1_555
F2_5 Sb1_5 1_555 1_555
F3_5 Sb1_5 1_555 1_555
F4_5 Sb1_5 1_555 1_555
F5_5 Sb1_5 1_555 1_555
F6_5 Sb1_5 1_555 1_555
F1_6 Sb1_6 1_555 1_555
F2_6 Sb1_6 1_555 1_555
F3_6 Sb1_6 1_555 1_555
F4_6 Sb1_6 1_555 1_555
F5_6 Sb1_6 1_555 1_555
F6_6 Sb1_6 1_555 1_555
F1_7 Sb1_7 1_555 1_555
F2_7 Sb1_7 1_555 1_555
F3_7 Sb1_7 1_555 1_555
F5_7 Sb1_7 1_555 1_555
F6_7 Sb1_7 1_555 1_555
F1_8 Sb1_8 1_555 1_555
F2_8 Sb1_8 1_555 1_555
F3_8 Sb1_8 1_555 1_555
F5_8 Sb1_8 1_555 1_555
F6_8 Sb1_8 1_555 1_555

#END
