
###############################################################################
#
# This file contains modified crystal structure data generated from the
# MOF subset of the Cambridge Structural Database (CSD) v543 
# hosted by the Cambridge Crystallographic Data Centre (CCDC).
#
# This work is licensed under the Creative Commons
# Attribution-NonCommercial-ShareAlike 4.0 International License.
# To view a copy of this license, visit
# http://creativecommons.org/licenses/by-nc-sa/4.0/
# or send a letter to
# Creative Commons, PO Box 1866, Mountain View, CA 94042, USA.
#
# CIF created using the CSD Python API on 29 September 2022
# The structure has been converted into the P1 space group
# The structure has a 3D framework
# The original CSD entry GIVNIK is in the monoclinic crystal system
# The framework has been calculated to contain at least 10.0% void space
# The void calculation uses a probe of radius 1.32A, grid spacing 0.4
# The framework is charged, counterions have been retained in the structure
#
###############################################################################

data_GIVNIK
_chemical_formula_moiety         '(C256 H144 Ag8 B8 F32 N48 Zn12 4-)n'
_symmetry_cell_setting           triclinic
_symmetry_space_group_name_H-M   'P 1'
_symmetry_Int_Tables_number      1
_space_group_name_Hall           'P 1'
loop_
_symmetry_equiv_pos_site_id
_symmetry_equiv_pos_as_xyz
1 x,y,z
_cell_length_a                   33.6474(7)
_cell_length_b                   13.9237(3)
_cell_length_c                   23.3437(5)
_cell_angle_alpha                90
_cell_angle_beta                 112.4950(10)
_cell_angle_gamma                90
_cell_volume                     10104.3
loop_
_atom_site_label
_atom_site_type_symbol
_atom_site_fract_x
_atom_site_fract_y
_atom_site_fract_z
B1 B 0.1390(3) 0.3316(5) 0.0595(3)
F1 F 0.13916(11) 0.2747(2) 0.10573(14)
F2 F 0.1004(3) 0.3844(5) 0.0431(3)
F3 F 0.1396(3) 0.2848(5) 0.0122(2)
F4 F 0.1685(3) 0.3981(5) 0.0818(3)
B1_2 B 0.8610(3) 0.3316(5) 0.4405(3)
F1_2 F 0.86084(11) 0.2747(2) 0.39427(14)
F2_2 F 0.8996(3) 0.3844(5) 0.4569(3)
F3_2 F 0.8604(3) 0.2848(5) 0.4878(2)
F4_2 F 0.8315(3) 0.3981(5) 0.4182(3)
B1_3 B 0.6390(3) 0.8316(5) 0.0595(3)
F1_3 F 0.63916(11) 0.7747(2) 0.10573(14)
F2_3 F 0.6004(3) 0.8844(5) 0.0431(3)
F3_3 F 0.6396(3) 0.7848(5) 0.0122(2)
F4_3 F 0.6685(3) 0.8981(5) 0.0818(3)
B1_4 B 0.3610(3) 0.8316(5) 0.4405(3)
F1_4 F 0.36084(11) 0.7747(2) 0.39427(14)
F2_4 F 0.3996(3) 0.8844(5) 0.4569(3)
F3_4 F 0.3604(3) 0.7848(5) 0.4878(2)
F4_4 F 0.3315(3) 0.8981(5) 0.4182(3)
B1_5 B 0.8610(3) 0.6684(5) 0.9405(3)
F1_5 F 0.86084(11) 0.7253(2) 0.89427(14)
F2_5 F 0.8996(3) 0.6156(5) 0.9569(3)
F3_5 F 0.8604(3) 0.7152(5) 0.9878(2)
F4_5 F 0.8315(3) 0.6019(5) 0.9182(3)
B1_6 B 0.1390(3) 0.6684(5) 0.5595(3)
F1_6 F 0.13916(11) 0.7253(2) 0.60573(14)
F2_6 F 0.1004(3) 0.6156(5) 0.5431(3)
F3_6 F 0.1396(3) 0.7152(5) 0.5122(2)
F4_6 F 0.1685(3) 0.6019(5) 0.5818(3)
B1_7 B 0.3610(3) 0.1684(5) 0.9405(3)
F1_7 F 0.36084(11) 0.2253(2) 0.89427(14)
F2_7 F 0.3996(3) 0.1156(5) 0.9569(3)
F3_7 F 0.3604(3) 0.2152(5) 0.9878(2)
F4_7 F 0.3315(3) 0.1019(5) 0.9182(3)
B1_8 B 0.6390(3) 0.1684(5) 0.5595(3)
F1_8 F 0.63916(11) 0.2253(2) 0.60573(14)
F2_8 F 0.6004(3) 0.1156(5) 0.5431(3)
F3_8 F 0.6396(3) 0.2152(5) 0.5122(2)
F4_8 F 0.6685(3) 0.1019(5) 0.5818(3)
C54 C 0.69223(11) 0.0585(3) 0.01281(17)
C58 C 0.59978(12) 0.3660(2) 0.01554(15)
H30 H 0.7038 0.0038 0.0360
C59 C 0.71281(11) 0.1448(3) 0.03067(16)
H31 H 0.7090 0.2877 0.0091
C60 C 0.60827(12) 0.5633(3) 0.04284(16)
C61 C 0.62034(12) 0.3974(3) 0.07663(14)
H34 H 0.5968 0.3007 0.0067
C62 C 0.75139(12) 0.1502(3) 0.08497(17)
H35 H 0.6107 0.6287 0.0516
C63 C 0.62381(10) 0.4953(3) 0.08995(14)
H36 H 0.6317 0.3529 0.1085
N14 N 0.78219(11) 0.1516(3) 0.12782(14)
C64 C 0.64177(12) 0.5284(3) 0.15271(16)
Ag4 Ag 0.846003(8) 0.13611(2) 0.208709(11)
N16 N 0.65465(11) 0.5597(3) 0.20252(14)
Ag6 Ag 0.653997(8) 0.63611(2) 0.291291(11)
Ag1 Ag 0.153997(8) 0.13611(2) 0.291291(11)
N1 N 0.21781(11) 0.1516(3) 0.37218(14)
C1 C 0.24861(12) 0.1502(3) 0.41503(17)
C2 C 0.28719(11) 0.1448(3) 0.46933(16)
C3 C 0.30777(11) 0.0585(3) 0.48719(17)
C4 C 0.30454(10) 0.2288(3) 0.50359(14)
C5 C 0.34603(11) 0.0514(3) 0.53993(17)
H1 H 0.2962 0.0038 0.4640
H2 H 0.2910 0.2877 0.4909
C6 C 0.34188(10) 0.2229(2) 0.55611(14)
C7 C 0.36346(10) 0.1351(2) 0.57456(15)
H4 H 0.3528 0.2778 0.5795
C8 C 0.40529(10) 0.1326(2) 0.62837(15)
C9 C 0.44030(10) 0.0930(3) 0.61987(14)
C10 C 0.40549(10) 0.1715(2) 0.68477(14)
C11 C 0.44235(12) 0.0546(3) 0.56390(17)
N2 N 0.48120(9) 0.0795(2) 0.66832(12)
C12 C 0.36966(10) 0.1825(2) 0.70276(15)
N3 N 0.44217(8) 0.20134(19) 0.73319(11)
C13 C 0.48350(14) 0.0226(4) 0.57783(19)
H5 H 0.4199 0.0521 0.5253
C14 C 0.50572(11) 0.0384(3) 0.64226(18)
Zn1 Zn 0.5000 0.14412(4) 0.7500
H6 H 0.3411 0.1683 0.6788
C15 C 0.38558(9) 0.2182(2) 0.76258(14)
C16 C 0.43029(10) 0.2309(2) 0.77969(14)
H8 H 0.5344 0.0218 0.6639
H9 H 0.3699 0.2314 0.7869
C17 C 0.37893(11) 0.5064(2) 0.68207(15)
N4 N 0.34535(11) 0.4403(3) 0.79748(14)
C18 C 0.46224(10) 0.2763(2) 0.83370(13)
C19 C 0.38125(10) 0.4805(2) 0.62582(15)
H10 H 0.3560 0.5365 0.6876
C20 C 0.41825(10) 0.4779(3) 0.72912(15)
C21 C 0.46370(11) 0.2825(3) 0.89528(14)
N5 N 0.49673(8) 0.31864(19) 0.82857(10)
C22 C 0.42235(10) 0.4370(2) 0.64047(14)
H11 H 0.3602 0.4897 0.5865
H12 H 0.4252 0.4867 0.7714
N6 N 0.44408(8) 0.4367(2) 0.70462(11)
H13 H 0.4431 0.2601 0.9095
C23 C 0.50121(11) 0.3277(3) 0.92934(14)
C24 C 0.52185(11) 0.3536(2) 0.88826(13)
Zn2 Zn 0.5000 0.37086(4) 0.7500
C25 C 0.43965(10) 0.4046(2) 0.59746(13)
H14 H 0.5116 0.3396 0.9717
C26 C 0.41617(10) 0.4329(2) 0.53187(13)
C27 C 0.41085(11) 0.5302(2) 0.51731(15)
C28 C 0.40022(12) 0.3660(2) 0.48446(15)
H15 H 0.4206 0.5748 0.5494
C29 C 0.39173(12) 0.5633(3) 0.45716(16)
C30 C 0.37966(12) 0.3974(3) 0.42337(14)
H16 H 0.4032 0.3007 0.4933
H17 H 0.3893 0.6287 0.4484
C31 C 0.37619(10) 0.4953(3) 0.41005(14)
H18 H 0.3683 0.3529 0.3915
C32 C 0.35823(12) 0.5284(3) 0.34729(16)
N7 N 0.28219(11) 0.3484(3) 0.62782(14)
Ag2 Ag 0.346003(8) 0.36389(2) 0.708709(11)
N8 N 0.51880(9) 0.0795(2) 0.83168(12)
N9 N 0.55783(8) 0.20134(19) 0.76681(11)
C33 C 0.49428(11) 0.0384(3) 0.85774(18)
C34 C 0.55970(10) 0.0930(3) 0.88013(14)
C35 C 0.59451(10) 0.1715(2) 0.81523(14)
C36 C 0.56971(10) 0.2309(2) 0.72031(14)
H19 H 0.4656 0.0218 0.8361
C37 C 0.51650(14) 0.0226(4) 0.92217(19)
C38 C 0.55765(12) 0.0546(3) 0.93610(17)
C39 C 0.59471(10) 0.1326(2) 0.87163(15)
C40 C 0.63034(10) 0.1825(2) 0.79724(15)
C41 C 0.61442(9) 0.2182(2) 0.73742(14)
C42 C 0.53776(10) 0.2763(2) 0.66630(13)
H21 H 0.5801 0.0521 0.9747
C43 C 0.63654(10) 0.1351(2) 0.92544(15)
H22 H 0.6589 0.1683 0.8212
Ag3 Ag 0.653997(8) 0.36389(2) 0.791291(11)
H23 H 0.6301 0.2314 0.7131
C44 C 0.53630(11) 0.2825(3) 0.60472(14)
N10 N 0.50327(8) 0.31864(19) 0.67143(10)
C45 C 0.56035(10) 0.4046(2) 0.90254(13)
N11 N 0.55592(8) 0.4367(2) 0.79538(11)
C46 C 0.65397(11) 0.0514(3) 0.96007(17)
C47 C 0.65812(10) 0.2229(2) 0.94389(14)
C48 C 0.62107(11) 0.5064(2) 0.81793(15)
N12 N 0.71781(11) 0.3484(3) 0.87218(14)
N13 N 0.65465(11) 0.4403(3) 0.70252(14)
H24 H 0.5569 0.2601 0.5905
C49 C 0.49879(11) 0.3277(3) 0.57066(14)
C50 C 0.47815(11) 0.3536(2) 0.61174(13)
C51 C 0.57765(10) 0.4370(2) 0.85953(14)
C52 C 0.58383(10) 0.4329(2) 0.96813(13)
C53 C 0.58175(10) 0.4779(3) 0.77088(15)
C55 C 0.69546(10) 0.2288(3) 0.99641(14)
H26 H 0.6472 0.2778 0.9205
C56 C 0.61875(10) 0.4805(2) 0.87418(15)
H27 H 0.6440 0.5365 0.8124
H28 H 0.4884 0.3396 0.5283
C57 C 0.58915(11) 0.5302(2) 0.98269(15)
H29 H 0.5748 0.4867 0.7286
H32 H 0.6398 0.4897 0.9135
H33 H 0.5794 0.5748 0.9506
N15 N 0.34535(11) 0.5597(3) 0.29748(14)
Ag5 Ag 0.346003(8) 0.63611(2) 0.208709(11)
C60_2 C 0.10827(12) 0.0633(3) 0.04284(16)
H35_2 H 0.1107 0.1287 0.0516
C64_2 C 0.14177(12) 0.0284(3) 0.15271(16)
N16_2 N 0.15465(11) 0.0597(3) 0.20252(14)
C54_2 C 0.19223(11) 0.5585(3) 0.01281(17)
C58_2 C 0.09978(12) 0.8660(2) 0.01554(15)
H30_2 H 0.2038 0.5038 0.0360
C59_2 C 0.21281(11) 0.6448(3) 0.03067(16)
H31_2 H 0.2090 0.7877 0.0091
C61_2 C 0.12034(12) 0.8974(3) 0.07663(14)
H34_2 H 0.0968 0.8007 0.0067
C62_2 C 0.25139(12) 0.6502(3) 0.08497(17)
C63_2 C 0.12381(10) 0.9953(3) 0.08995(14)
H36_2 H 0.1317 0.8529 0.1085
N14_2 N 0.28219(11) 0.6516(3) 0.12782(14)
C14_2 C 0.00572(11) 0.5384(3) 0.64226(18)
Zn1_2 Zn -0.0000 0.64412(4) 0.7500
H8_2 H 0.0344 0.5218 0.6639
C23_2 C 0.00121(11) 0.8277(3) 0.92934(14)
C24_2 C 0.02185(11) 0.8536(2) 0.88826(13)
Zn2_2 Zn -0.0000 0.87086(4) 0.7500
H14_2 H 0.0116 0.8396 0.9717
N8_2 N 0.01880(9) 0.5795(2) 0.83168(12)
N9_2 N 0.05783(8) 0.70134(19) 0.76681(11)
C34_2 C 0.05970(10) 0.5930(3) 0.88013(14)
C35_2 C 0.09451(10) 0.6715(2) 0.81523(14)
C36_2 C 0.06971(10) 0.7309(2) 0.72031(14)
C37_2 C 0.01650(14) 0.5226(4) 0.92217(19)
C38_2 C 0.05765(12) 0.5546(3) 0.93610(17)
C39_2 C 0.09471(10) 0.6326(2) 0.87163(15)
C40_2 C 0.13034(10) 0.6825(2) 0.79724(15)
C41_2 C 0.11442(9) 0.7182(2) 0.73742(14)
C42_2 C 0.03776(10) 0.7763(2) 0.66630(13)
H20 H 0.0054 0.4958 0.9494
H21_2 H 0.0801 0.5521 0.9747
C43_2 C 0.13654(10) 0.6351(2) 0.92544(15)
H22_2 H 0.1589 0.6683 0.8212
Ag3_2 Ag 0.153997(8) 0.86389(2) 0.791291(11)
H23_2 H 0.1301 0.7314 0.7131
C44_2 C 0.03630(11) 0.7825(3) 0.60472(14)
N10_2 N 0.00327(8) 0.81864(19) 0.67143(10)
C45_2 C 0.06035(10) 0.9046(2) 0.90254(13)
N11_2 N 0.05592(8) 0.9367(2) 0.79538(11)
C46_2 C 0.15397(11) 0.5514(3) 0.96007(17)
C47_2 C 0.15812(10) 0.7229(2) 0.94389(14)
N12_2 N 0.21781(11) 0.8484(3) 0.87218(14)
N13_2 N 0.15465(11) 0.9403(3) 0.70252(14)
H24_2 H 0.0569 0.7601 0.5905
C51_2 C 0.07765(10) 0.9370(2) 0.85953(14)
C52_2 C 0.08383(10) 0.9329(2) 0.96813(13)
C53_2 C 0.08175(10) 0.9779(3) 0.77088(15)
H25 H 0.1403 0.4925 0.9481
C55_2 C 0.19546(10) 0.7288(3) 0.99641(14)
H26_2 H 0.1472 0.7778 0.9205
C56_2 C 0.11875(10) 0.9805(2) 0.87418(15)
H29_2 H 0.0748 0.9867 0.7286
H32_2 H 0.1398 0.9897 0.9135
C17_2 C 0.87893(11) 0.0064(2) 0.68207(15)
H10_2 H 0.8560 0.0365 0.6876
C27_2 C 0.91085(11) 0.0302(2) 0.51731(15)
H15_2 H 0.9206 0.0748 0.5494
C29_2 C 0.89173(12) 0.0633(3) 0.45716(16)
H17_2 H 0.8893 0.1287 0.4484
C32_2 C 0.85823(12) 0.0284(3) 0.34729(16)
N15_2 N 0.84535(11) 0.0597(3) 0.29748(14)
N1_2 N 0.71781(11) 0.6516(3) 0.37218(14)
C1_2 C 0.74861(12) 0.6502(3) 0.41503(17)
C2_2 C 0.78719(11) 0.6448(3) 0.46933(16)
C3_2 C 0.80777(11) 0.5585(3) 0.48719(17)
C4_2 C 0.80454(10) 0.7288(3) 0.50359(14)
C5_2 C 0.84603(11) 0.5514(3) 0.53993(17)
H1_2 H 0.7962 0.5038 0.4640
H2_2 H 0.7910 0.7877 0.4909
C6_2 C 0.84188(10) 0.7229(2) 0.55611(14)
C7_2 C 0.86346(10) 0.6351(2) 0.57456(15)
H3 H 0.8597 0.4925 0.5519
H4_2 H 0.8528 0.7778 0.5795
C8_2 C 0.90529(10) 0.6326(2) 0.62837(15)
C9_2 C 0.94030(10) 0.5930(3) 0.61987(14)
C10_2 C 0.90549(10) 0.6715(2) 0.68477(14)
C11_2 C 0.94235(12) 0.5546(3) 0.56390(17)
N2_2 N 0.98120(9) 0.5795(2) 0.66832(12)
C12_2 C 0.86966(10) 0.6825(2) 0.70276(15)
N3_2 N 0.94217(8) 0.70134(19) 0.73319(11)
C13_2 C 0.98350(14) 0.5226(4) 0.57783(19)
H5_2 H 0.9199 0.5521 0.5253
Zn1_3 Zn 1.0000 0.64412(4) 0.7500
H6_2 H 0.8411 0.6683 0.6788
C15_2 C 0.88558(9) 0.7182(2) 0.76258(14)
C16_2 C 0.93029(10) 0.7309(2) 0.77969(14)
H7 H 0.9946 0.4958 0.5506
H9_2 H 0.8699 0.7314 0.7869
N4_2 N 0.84535(11) 0.9403(3) 0.79748(14)
C18_2 C 0.96224(10) 0.7763(2) 0.83370(13)
C19_2 C 0.88125(10) 0.9805(2) 0.62582(15)
C20_2 C 0.91825(10) 0.9779(3) 0.72912(15)
C21_2 C 0.96370(11) 0.7825(3) 0.89528(14)
N5_2 N 0.99673(8) 0.81864(19) 0.82857(10)
C22_2 C 0.92235(10) 0.9370(2) 0.64047(14)
H11_2 H 0.8602 0.9897 0.5865
H12_2 H 0.9252 0.9867 0.7714
N6_2 N 0.94408(8) 0.9367(2) 0.70462(11)
H13_2 H 0.9431 0.7601 0.9095
Zn2_3 Zn 1.0000 0.87086(4) 0.7500
C25_2 C 0.93965(10) 0.9046(2) 0.59746(13)
C26_2 C 0.91617(10) 0.9329(2) 0.53187(13)
C28_2 C 0.90022(12) 0.8660(2) 0.48446(15)
C30_2 C 0.87966(12) 0.8974(3) 0.42337(14)
H16_2 H 0.9032 0.8007 0.4933
C31_2 C 0.87619(10) 0.9953(3) 0.41005(14)
H18_2 H 0.8683 0.8529 0.3915
N7_2 N 0.78219(11) 0.8484(3) 0.62782(14)
Ag2_2 Ag 0.846003(8) 0.86389(2) 0.708709(11)
C33_2 C 0.99428(11) 0.5384(3) 0.85774(18)
H19_2 H 0.9656 0.5218 0.8361
C49_2 C 0.99879(11) 0.8277(3) 0.57066(14)
C50_2 C 0.97815(11) 0.8536(2) 0.61174(13)
H28_2 H 0.9884 0.8396 0.5283
C1_3 C 0.75139(12) 0.8498(3) 0.58497(17)
C2_3 C 0.71281(11) 0.8552(3) 0.53067(16)
C3_3 C 0.69223(11) 0.9415(3) 0.51281(17)
C4_3 C 0.69546(10) 0.7712(3) 0.49641(14)
C5_3 C 0.65397(11) 0.9486(3) 0.46007(17)
H1_3 H 0.7038 0.9962 0.5360
H2_3 H 0.7090 0.7123 0.5091
C6_3 C 0.65812(10) 0.7771(2) 0.44389(14)
C7_3 C 0.63654(10) 0.8649(2) 0.42544(15)
H4_3 H 0.6472 0.7222 0.4205
C8_3 C 0.59471(10) 0.8674(2) 0.37163(15)
C9_3 C 0.55970(10) 0.9070(3) 0.38013(14)
C10_3 C 0.59451(10) 0.8285(2) 0.31523(14)
C11_3 C 0.55765(12) 0.9454(3) 0.43610(17)
N2_3 N 0.51880(9) 0.9205(2) 0.33168(12)
C12_3 C 0.63034(10) 0.8175(2) 0.29724(15)
N3_3 N 0.55783(8) 0.79866(19) 0.26681(11)
C13_3 C 0.51650(14) 0.9774(4) 0.42217(19)
H5_3 H 0.5801 0.9479 0.4747
C14_3 C 0.49428(11) 0.9616(3) 0.35774(18)
Zn1_4 Zn 0.5000 0.85588(4) 0.2500
H6_3 H 0.6589 0.8317 0.3212
C15_3 C 0.61442(9) 0.7818(2) 0.23742(14)
C16_3 C 0.56971(10) 0.7691(2) 0.22031(14)
H8_3 H 0.4656 0.9782 0.3361
H9_3 H 0.6301 0.7686 0.2131
C17_3 C 0.62107(11) 0.4936(2) 0.31793(15)
C18_3 C 0.53776(10) 0.7237(2) 0.16630(13)
C19_3 C 0.61875(10) 0.5195(2) 0.37418(15)
H10_3 H 0.6440 0.4635 0.3124
C20_3 C 0.58175(10) 0.5221(3) 0.27088(15)
C21_3 C 0.53630(11) 0.7175(3) 0.10472(14)
N5_3 N 0.50327(8) 0.68136(19) 0.17143(10)
C22_3 C 0.57765(10) 0.5630(2) 0.35953(14)
H11_3 H 0.6398 0.5103 0.4135
H12_3 H 0.5748 0.5133 0.2286
N6_3 N 0.55592(8) 0.5633(2) 0.29538(11)
H13_3 H 0.5569 0.7399 0.0905
C23_3 C 0.49879(11) 0.6723(3) 0.07066(14)
C24_3 C 0.47815(11) 0.6464(2) 0.11174(13)
Zn2_4 Zn 0.5000 0.62914(4) 0.2500
C25_3 C 0.56035(10) 0.5954(2) 0.40254(13)
H14_3 H 0.4884 0.6604 0.0283
C26_3 C 0.58383(10) 0.5671(2) 0.46813(13)
C27_3 C 0.58915(11) 0.4698(2) 0.48269(15)
C28_3 C 0.59978(12) 0.6340(2) 0.51554(15)
H15_3 H 0.5794 0.4252 0.4506
C29_3 C 0.60827(12) 0.4367(3) 0.54284(16)
C30_3 C 0.62034(12) 0.6026(3) 0.57663(14)
H16_3 H 0.5968 0.6993 0.5067
H17_3 H 0.6107 0.3713 0.5516
C31_3 C 0.62381(10) 0.5047(3) 0.58995(14)
H18_3 H 0.6317 0.6471 0.6085
C32_3 C 0.64177(12) 0.4716(3) 0.65271(16)
N8_3 N 0.48120(9) 0.9205(2) 0.16832(12)
N9_3 N 0.44217(8) 0.79866(19) 0.23319(11)
C33_3 C 0.50572(11) 0.9616(3) 0.14226(18)
C34_3 C 0.44030(10) 0.9070(3) 0.11987(14)
C35_3 C 0.40549(10) 0.8285(2) 0.18477(14)
C36_3 C 0.43029(10) 0.7691(2) 0.27969(14)
H19_3 H 0.5344 0.9782 0.1639
C37_3 C 0.48350(14) 0.9774(4) 0.07783(19)
C38_3 C 0.44235(12) 0.9454(3) 0.06390(17)
C39_3 C 0.40529(10) 0.8674(2) 0.12837(15)
C40_3 C 0.36966(10) 0.8175(2) 0.20276(15)
C41_3 C 0.38558(9) 0.7818(2) 0.26258(14)
C42_3 C 0.46224(10) 0.7237(2) 0.33370(13)
H21_3 H 0.4199 0.9479 0.0253
C43_3 C 0.36346(10) 0.8649(2) 0.07456(15)
H22_3 H 0.3411 0.8317 0.1788
H23_3 H 0.3699 0.7686 0.2869
C44_3 C 0.46370(11) 0.7175(3) 0.39528(14)
N10_3 N 0.49673(8) 0.68136(19) 0.32857(10)
C45_3 C 0.43965(10) 0.5954(2) 0.09746(13)
N11_3 N 0.44408(8) 0.5633(2) 0.20462(11)
C46_3 C 0.34603(11) 0.9486(3) 0.03993(17)
C47_3 C 0.34188(10) 0.7771(2) 0.05611(14)
C48_2 C 0.37893(11) 0.4936(2) 0.18207(15)
H24_3 H 0.4431 0.7399 0.4095
C49_3 C 0.50121(11) 0.6723(3) 0.42934(14)
C50_3 C 0.52185(11) 0.6464(2) 0.38826(13)
C51_3 C 0.42235(10) 0.5630(2) 0.14047(14)
C52_3 C 0.41617(10) 0.5671(2) 0.03187(13)
C53_3 C 0.41825(10) 0.5221(3) 0.22912(15)
C55_3 C 0.30454(10) 0.7712(3) 0.00359(14)
H26_3 H 0.3528 0.7222 0.0795
C56_3 C 0.38125(10) 0.5195(2) 0.12582(15)
H27_2 H 0.3560 0.4635 0.1876
H28_3 H 0.5116 0.6604 0.4717
C57_2 C 0.41085(11) 0.4698(2) 0.01731(15)
H29_3 H 0.4252 0.5133 0.2714
H32_3 H 0.3602 0.5103 0.0865
H33_2 H 0.4206 0.4252 0.0494
C54_3 C 0.30777(11) 0.9415(3) 0.98719(17)
C58_3 C 0.40022(12) 0.6340(2) 0.98446(15)
H30_3 H 0.2962 0.9962 0.9640
C59_3 C 0.28719(11) 0.8552(3) 0.96933(16)
H31_3 H 0.2910 0.7123 0.9909
C60_3 C 0.39173(12) 0.4367(3) 0.95716(16)
C61_3 C 0.37966(12) 0.6026(3) 0.92337(14)
H34_3 H 0.4032 0.6993 0.9933
C62_3 C 0.24861(12) 0.8498(3) 0.91503(17)
H35_3 H 0.3893 0.3713 0.9484
C63_3 C 0.37619(10) 0.5047(3) 0.91005(14)
H36_3 H 0.3683 0.6471 0.8915
C64_3 C 0.35823(12) 0.4716(3) 0.84729(16)
C1_4 C 0.25139(12) 0.3498(3) 0.58497(17)
C2_4 C 0.21281(11) 0.3552(3) 0.53067(16)
C3_4 C 0.19223(11) 0.4415(3) 0.51281(17)
C4_4 C 0.19546(10) 0.2712(3) 0.49641(14)
C5_4 C 0.15397(11) 0.4486(3) 0.46007(17)
H1_4 H 0.2038 0.4962 0.5360
H2_4 H 0.2090 0.2123 0.5091
C6_4 C 0.15812(10) 0.2771(2) 0.44389(14)
C7_4 C 0.13654(10) 0.3649(2) 0.42544(15)
H3_2 H 0.1403 0.5075 0.4481
H4_4 H 0.1472 0.2222 0.4205
C8_4 C 0.09471(10) 0.3674(2) 0.37163(15)
C9_4 C 0.05970(10) 0.4070(3) 0.38013(14)
C10_4 C 0.09451(10) 0.3285(2) 0.31523(14)
C11_4 C 0.05765(12) 0.4454(3) 0.43610(17)
N2_4 N 0.01880(9) 0.4205(2) 0.33168(12)
C12_4 C 0.13034(10) 0.3175(2) 0.29724(15)
N3_4 N 0.05783(8) 0.29866(19) 0.26681(11)
C13_4 C 0.01650(14) 0.4774(4) 0.42217(19)
H5_4 H 0.0801 0.4479 0.4747
Zn1_5 Zn 0.0000 0.35588(4) 0.2500
H6_4 H 0.1589 0.3317 0.3212
C15_4 C 0.11442(9) 0.2818(2) 0.23742(14)
C16_4 C 0.06971(10) 0.2691(2) 0.22031(14)
H7_2 H 0.0054 0.5042 0.4494
H9_4 H 0.1301 0.2686 0.2131
C18_4 C 0.03776(10) 0.2237(2) 0.16630(13)
C19_4 C 0.11875(10) 0.0195(2) 0.37418(15)
C20_4 C 0.08175(10) 0.0221(3) 0.27088(15)
C21_4 C 0.03630(11) 0.2175(3) 0.10472(14)
N5_4 N 0.00327(8) 0.18136(19) 0.17143(10)
C22_4 C 0.07765(10) 0.0630(2) 0.35953(14)
H11_4 H 0.1398 0.0103 0.4135
H12_4 H 0.0748 0.0133 0.2286
N6_4 N 0.05592(8) 0.0633(2) 0.29538(11)
H13_4 H 0.0569 0.2399 0.0905
Zn2_5 Zn 0.0000 0.12914(4) 0.2500
C25_4 C 0.06035(10) 0.0954(2) 0.40254(13)
C26_4 C 0.08383(10) 0.0671(2) 0.46813(13)
C28_4 C 0.09978(12) 0.1340(2) 0.51554(15)
C30_4 C 0.12034(12) 0.1026(3) 0.57663(14)
H16_4 H 0.0968 0.1993 0.5067
C31_4 C 0.12381(10) 0.0047(3) 0.58995(14)
H18_4 H 0.1317 0.1471 0.6085
C33_4 C 0.00572(11) 0.4616(3) 0.14226(18)
H19_4 H 0.0344 0.4782 0.1639
C49_4 C 0.00121(11) 0.1723(3) 0.42934(14)
C50_4 C 0.02185(11) 0.1464(2) 0.38826(13)
H28_4 H 0.0116 0.1604 0.4717
C17_4 C 0.12107(11) 0.9936(2) 0.31793(15)
H10_4 H 0.1440 0.9635 0.3124
C27_4 C 0.08915(11) 0.9698(2) 0.48269(15)
H15_4 H 0.0794 0.9252 0.4506
C29_4 C 0.10827(12) 0.9367(3) 0.54284(16)
H17_4 H 0.1107 0.8713 0.5516
C32_4 C 0.14177(12) 0.9716(3) 0.65271(16)
C14_4 C 0.99428(11) 0.4616(3) 0.35774(18)
Zn1_6 Zn 1.0000 0.35588(4) 0.2500
H8_4 H 0.9656 0.4782 0.3361
C23_4 C 0.99879(11) 0.1723(3) 0.07066(14)
C24_4 C 0.97815(11) 0.1464(2) 0.11174(13)
Zn2_6 Zn 1.0000 0.12914(4) 0.2500
H14_4 H 0.9884 0.1604 0.0283
N8_4 N 0.98120(9) 0.4205(2) 0.16832(12)
N9_4 N 0.94217(8) 0.29866(19) 0.23319(11)
C34_4 C 0.94030(10) 0.4070(3) 0.11987(14)
C35_4 C 0.90549(10) 0.3285(2) 0.18477(14)
C36_4 C 0.93029(10) 0.2691(2) 0.27969(14)
C37_4 C 0.98350(14) 0.4774(4) 0.07783(19)
C38_4 C 0.94235(12) 0.4454(3) 0.06390(17)
C39_4 C 0.90529(10) 0.3674(2) 0.12837(15)
C40_4 C 0.86966(10) 0.3175(2) 0.20276(15)
C41_4 C 0.88558(9) 0.2818(2) 0.26258(14)
C42_4 C 0.96224(10) 0.2237(2) 0.33370(13)
H20_2 H 0.9946 0.5042 0.0506
H21_4 H 0.9199 0.4479 0.0253
C43_4 C 0.86346(10) 0.3649(2) 0.07456(15)
H22_4 H 0.8411 0.3317 0.1788
H23_4 H 0.8699 0.2686 0.2869
C44_4 C 0.96370(11) 0.2175(3) 0.39528(14)
N10_4 N 0.99673(8) 0.18136(19) 0.32857(10)
C45_4 C 0.93965(10) 0.0954(2) 0.09746(13)
N11_4 N 0.94408(8) 0.0633(2) 0.20462(11)
C46_4 C 0.84603(11) 0.4486(3) 0.03993(17)
C47_4 C 0.84188(10) 0.2771(2) 0.05611(14)
H24_4 H 0.9431 0.2399 0.4095
C51_4 C 0.92235(10) 0.0630(2) 0.14047(14)
C52_4 C 0.91617(10) 0.0671(2) 0.03187(13)
C53_4 C 0.91825(10) 0.0221(3) 0.22912(15)
H25_2 H 0.8597 0.5075 0.0519
C55_4 C 0.80454(10) 0.2712(3) 0.00359(14)
H26_4 H 0.8528 0.2222 0.0795
C56_4 C 0.88125(10) 0.0195(2) 0.12582(15)
H29_4 H 0.9252 0.0133 0.2714
H32_4 H 0.8602 0.0103 0.0865
C54_4 C 0.80777(11) 0.4415(3) 0.98719(17)
C58_4 C 0.90022(12) 0.1340(2) 0.98446(15)
H30_4 H 0.7962 0.4962 0.9640
C59_4 C 0.78719(11) 0.3552(3) 0.96933(16)
H31_4 H 0.7910 0.2123 0.9909
C61_4 C 0.87966(12) 0.1026(3) 0.92337(14)
H34_4 H 0.9032 0.1993 0.9933
C62_4 C 0.74861(12) 0.3498(3) 0.91503(17)
C63_4 C 0.87619(10) 0.0047(3) 0.91005(14)
H36_4 H 0.8683 0.1471 0.8915
C60_4 C 0.89173(12) 0.9367(3) 0.95716(16)
H35_4 H 0.8893 0.8713 0.9484
C64_4 C 0.85823(12) 0.9716(3) 0.84729(16)
H3_3 H 0.3597 0.9925 0.5519
H7_3 H 0.4946 0.9958 0.5506
H20_3 H 0.5054 0.9958 0.9494
H25_3 H 0.6403 0.9925 0.9481
C48_3 C 0.12107(11) 0.0064(2) 0.81793(15)
H27_3 H 0.1440 0.0365 0.8124
C57_3 C 0.08915(11) 0.0302(2) 0.98269(15)
H33_3 H 0.0794 0.0748 0.9506
H3_4 H 0.6403 0.0075 0.4481
H7_4 H 0.5054 0.0042 0.4494
H20_4 H 0.4946 0.0042 0.0506
H25_4 H 0.3597 0.0075 0.0519
C48_4 C 0.87893(11) 0.9936(2) 0.18207(15)
H27_4 H 0.8560 0.9635 0.1876
C57_4 C 0.91085(11) 0.9698(2) 0.01731(15)
H33_4 H 0.9206 0.9252 0.0494
loop_
_geom_bond_atom_site_label_1
_geom_bond_atom_site_label_2
_geom_bond_site_symmetry_1
_geom_bond_site_symmetry_2
B1 F1 1_555 1_555
F2 B1 1_555 1_555
F3 B1 1_555 1_555
F4 B1 1_555 1_555
B1_2 F1_2 1_555 1_555
F2_2 B1_2 1_555 1_555
F3_2 B1_2 1_555 1_555
F4_2 B1_2 1_555 1_555
B1_3 F1_3 1_555 1_555
F2_3 B1_3 1_555 1_555
F3_3 B1_3 1_555 1_555
F4_3 B1_3 1_555 1_555
B1_4 F1_4 1_555 1_555
F2_4 B1_4 1_555 1_555
F3_4 B1_4 1_555 1_555
F4_4 B1_4 1_555 1_555
B1_5 F1_5 1_555 1_555
F2_5 B1_5 1_555 1_555
F3_5 B1_5 1_555 1_555
F4_5 B1_5 1_555 1_555
B1_6 F1_6 1_555 1_555
F2_6 B1_6 1_555 1_555
F3_6 B1_6 1_555 1_555
F4_6 B1_6 1_555 1_555
B1_7 F1_7 1_555 1_555
F2_7 B1_7 1_555 1_555
F3_7 B1_7 1_555 1_555
F4_7 B1_7 1_555 1_555
B1_8 F1_8 1_555 1_555
F2_8 B1_8 1_555 1_555
F3_8 B1_8 1_555 1_555
F4_8 B1_8 1_555 1_555
H30 C54 1_555 1_555
C59 C54 1_555 1_555
C61 C58 1_555 1_555
H34 C58 1_555 1_555
C62 C59 1_555 1_555
H35 C60 1_555 1_555
C63 C60 1_555 1_555
H36 C61 1_555 1_555
N14 C62 1_555 1_555
C64 C63 1_555 1_555
Ag4 N14 1_555 1_555
N16 C64 1_555 1_555
Ag6 N16 1_555 1_555
C61 C63 1_555 1_555
Ag1 N1 1_555 1_555
N1 C1 1_555 1_555
C1 C2 1_555 1_555
C2 C3 1_555 1_555
C3 C5 1_555 1_555
C4 C2 1_555 1_555
C5 C7 1_555 1_555
H1 C3 1_555 1_555
H2 C4 1_555 1_555
C6 C4 1_555 1_555
C7 C6 1_555 1_555
H4 C6 1_555 1_555
C8 C7 1_555 1_555
C9 C8 1_555 1_555
C10 C8 1_555 1_555
C11 C9 1_555 1_555
N2 C9 1_555 1_555
C12 C10 1_555 1_555
N3 C10 1_555 1_555
C13 C11 1_555 1_555
H5 C11 1_555 1_555
C14 N2 1_555 1_555
Zn1 N2 1_555 1_555
H6 C12 1_555 1_555
C15 C12 1_555 1_555
C16 N3 1_555 1_555
H8 C14 1_555 1_555
H9 C15 1_555 1_555
C17 C19 1_555 1_555
N4 Ag2 1_555 1_555
C18 C16 1_555 1_555
C19 C22 1_555 1_555
H10 C17 1_555 1_555
C20 C17 1_555 1_555
C21 C18 1_555 1_555
N5 C18 1_555 1_555
C22 N6 1_555 1_555
H11 C19 1_555 1_555
H12 C20 1_555 1_555
N6 C20 1_555 1_555
H13 C21 1_555 1_555
C23 C21 1_555 1_555
C24 N5 1_555 1_555
Zn2 N5 1_555 1_555
C25 C22 1_555 1_555
H14 C23 1_555 1_555
C26 C25 1_555 1_555
C27 C26 1_555 1_555
C28 C26 1_555 1_555
H15 C27 1_555 1_555
C29 C27 1_555 1_555
C30 C28 1_555 1_555
H16 C28 1_555 1_555
H17 C29 1_555 1_555
C31 C29 1_555 1_555
H18 C30 1_555 1_555
C32 C31 1_555 1_555
N7 Ag2 1_555 1_555
Ag2 C12 1_555 1_555
N8 Zn1 1_555 1_555
N9 Zn1 1_555 1_555
C33 N8 1_555 1_555
C34 N8 1_555 1_555
C35 N9 1_555 1_555
C36 N9 1_555 1_555
H19 C33 1_555 1_555
C37 C33 1_555 1_555
C38 C34 1_555 1_555
C39 C34 1_555 1_555
C40 C35 1_555 1_555
C41 C36 1_555 1_555
C42 C36 1_555 1_555
H21 C38 1_555 1_555
C43 C39 1_555 1_555
H22 C40 1_555 1_555
Ag3 C40 1_555 1_555
H23 C41 1_555 1_555
C44 C42 1_555 1_555
N10 Zn2 1_555 1_555
C45 C24 1_555 1_555
N11 Zn2 1_555 1_555
C46 C43 1_555 1_555
C47 C43 1_555 1_555
C48 Ag3 1_555 1_555
N12 Ag3 1_555 1_555
N13 Ag3 1_555 1_555
H24 C44 1_555 1_555
C49 C44 1_555 1_555
C50 C25 1_555 1_555
C51 C45 1_555 1_555
C52 C45 1_555 1_555
C53 N11 1_555 1_555
C55 C47 1_555 1_555
H26 C47 1_555 1_555
C56 C48 1_555 1_555
H27 C48 1_555 1_555
H28 C49 1_555 1_555
C57 C52 1_555 1_555
H29 C53 1_555 1_555
H32 C56 1_555 1_555
H33 C57 1_555 1_555
N15 C32 1_555 1_555
Ag5 N15 1_555 1_555
N3 Zn1 1_555 1_555
C13 C14 1_555 1_555
C15 C16 1_555 1_555
C15 Ag2 1_555 1_555
C17 Ag2 1_555 1_555
N6 Zn2 1_555 1_555
C23 C24 1_555 1_555
C30 C31 1_555 1_555
C35 C39 1_555 1_555
C37 C38 1_555 1_555
C40 C41 1_555 1_555
C41 Ag3 1_555 1_555
C42 N10 1_555 1_555
N10 C50 1_555 1_555
N11 C51 1_555 1_555
C48 C53 1_555 1_555
C49 C50 1_555 1_555
C51 C56 1_555 1_555
H35_2 C60_2 1_555 1_555
N16_2 C64_2 1_555 1_555
Ag1 N16_2 1_555 1_555
H30_2 C54_2 1_555 1_555
C59_2 C54_2 1_555 1_555
C61_2 C58_2 1_555 1_555
H34_2 C58_2 1_555 1_555
C62_2 C59_2 1_555 1_555
H36_2 C61_2 1_555 1_555
N14_2 C62_2 1_555 1_555
Ag5 N14_2 1_555 1_555
C61_2 C63_2 1_555 1_555
H8_2 C14_2 1_555 1_555
H14_2 C23_2 1_555 1_555
N8_2 Zn1_2 1_555 1_555
N9_2 Zn1_2 1_555 1_555
C34_2 N8_2 1_555 1_555
C35_2 N9_2 1_555 1_555
C36_2 N9_2 1_555 1_555
C38_2 C34_2 1_555 1_555
C39_2 C34_2 1_555 1_555
C40_2 C35_2 1_555 1_555
C41_2 C36_2 1_555 1_555
C42_2 C36_2 1_555 1_555
H20 C37_2 1_555 1_555
H21_2 C38_2 1_555 1_555
C43_2 C39_2 1_555 1_555
H22_2 C40_2 1_555 1_555
Ag3_2 C40_2 1_555 1_555
H23_2 C41_2 1_555 1_555
C44_2 C42_2 1_555 1_555
N10_2 Zn2_2 1_555 1_555
C45_2 C24_2 1_555 1_555
N11_2 Zn2_2 1_555 1_555
C46_2 C43_2 1_555 1_555
C47_2 C43_2 1_555 1_555
N12_2 Ag3_2 1_555 1_555
N13_2 Ag3_2 1_555 1_555
H24_2 C44_2 1_555 1_555
C51_2 C45_2 1_555 1_555
C52_2 C45_2 1_555 1_555
C53_2 N11_2 1_555 1_555
H25 C46_2 1_555 1_555
C55_2 C47_2 1_555 1_555
H26_2 C47_2 1_555 1_555
H29_2 C53_2 1_555 1_555
H32_2 C56_2 1_555 1_555
C23_2 C24_2 1_555 1_555
C35_2 C39_2 1_555 1_555
C37_2 C38_2 1_555 1_555
C40_2 C41_2 1_555 1_555
C41_2 Ag3_2 1_555 1_555
C42_2 N10_2 1_555 1_555
N11_2 C51_2 1_555 1_555
C51_2 C56_2 1_555 1_555
H10_2 C17_2 1_555 1_555
H15_2 C27_2 1_555 1_555
C29_2 C27_2 1_555 1_555
H17_2 C29_2 1_555 1_555
N15_2 C32_2 1_555 1_555
Ag4 N15_2 1_555 1_555
Ag6 N1_2 1_555 1_555
N1_2 C1_2 1_555 1_555
C1_2 C2_2 1_555 1_555
C2_2 C3_2 1_555 1_555
C3_2 C5_2 1_555 1_555
C4_2 C2_2 1_555 1_555
C5_2 C7_2 1_555 1_555
H1_2 C3_2 1_555 1_555
H2_2 C4_2 1_555 1_555
C6_2 C4_2 1_555 1_555
C7_2 C6_2 1_555 1_555
H3 C5_2 1_555 1_555
H4_2 C6_2 1_555 1_555
C8_2 C7_2 1_555 1_555
C9_2 C8_2 1_555 1_555
C10_2 C8_2 1_555 1_555
C11_2 C9_2 1_555 1_555
N2_2 C9_2 1_555 1_555
C12_2 C10_2 1_555 1_555
N3_2 C10_2 1_555 1_555
C13_2 C11_2 1_555 1_555
H5_2 C11_2 1_555 1_555
Zn1_3 N2_2 1_555 1_555
H6_2 C12_2 1_555 1_555
C15_2 C12_2 1_555 1_555
C16_2 N3_2 1_555 1_555
H7 C13_2 1_555 1_555
H9_2 C15_2 1_555 1_555
N4_2 Ag2_2 1_555 1_555
C18_2 C16_2 1_555 1_555
C19_2 C22_2 1_555 1_555
C21_2 C18_2 1_555 1_555
N5_2 C18_2 1_555 1_555
C22_2 N6_2 1_555 1_555
H11_2 C19_2 1_555 1_555
H12_2 C20_2 1_555 1_555
N6_2 C20_2 1_555 1_555
H13_2 C21_2 1_555 1_555
Zn2_3 N5_2 1_555 1_555
C25_2 C22_2 1_555 1_555
C26_2 C25_2 1_555 1_555
C28_2 C26_2 1_555 1_555
C30_2 C28_2 1_555 1_555
H16_2 C28_2 1_555 1_555
H18_2 C30_2 1_555 1_555
N7_2 Ag2_2 1_555 1_555
Ag2_2 C12_2 1_555 1_555
H19_2 C33_2 1_555 1_555
C50_2 C25_2 1_555 1_555
H28_2 C49_2 1_555 1_555
N3_2 Zn1_3 1_555 1_555
C15_2 C16_2 1_555 1_555
C15_2 Ag2_2 1_555 1_555
N6_2 Zn2_3 1_555 1_555
C30_2 C31_2 1_555 1_555
C49_2 C50_2 1_555 1_555
N7_2 C1_3 1_555 1_555
C1_3 C2_3 1_555 1_555
C2_3 C3_3 1_555 1_555
C3_3 C5_3 1_555 1_555
C4_3 C2_3 1_555 1_555
C5_3 C7_3 1_555 1_555
H1_3 C3_3 1_555 1_555
H2_3 C4_3 1_555 1_555
C6_3 C4_3 1_555 1_555
C7_3 C6_3 1_555 1_555
H4_3 C6_3 1_555 1_555
C8_3 C7_3 1_555 1_555
C9_3 C8_3 1_555 1_555
C10_3 C8_3 1_555 1_555
C11_3 C9_3 1_555 1_555
N2_3 C9_3 1_555 1_555
C12_3 C10_3 1_555 1_555
N3_3 C10_3 1_555 1_555
C13_3 C11_3 1_555 1_555
H5_3 C11_3 1_555 1_555
C14_3 N2_3 1_555 1_555
Zn1_4 N2_3 1_555 1_555
H6_3 C12_3 1_555 1_555
C15_3 C12_3 1_555 1_555
C16_3 N3_3 1_555 1_555
H8_3 C14_3 1_555 1_555
H9_3 C15_3 1_555 1_555
C17_3 C19_3 1_555 1_555
C18_3 C16_3 1_555 1_555
C19_3 C22_3 1_555 1_555
H10_3 C17_3 1_555 1_555
C20_3 C17_3 1_555 1_555
C21_3 C18_3 1_555 1_555
N5_3 C18_3 1_555 1_555
C22_3 N6_3 1_555 1_555
H11_3 C19_3 1_555 1_555
H12_3 C20_3 1_555 1_555
N6_3 C20_3 1_555 1_555
H13_3 C21_3 1_555 1_555
C23_3 C21_3 1_555 1_555
C24_3 N5_3 1_555 1_555
Zn2_4 N5_3 1_555 1_555
C25_3 C22_3 1_555 1_555
H14_3 C23_3 1_555 1_555
C26_3 C25_3 1_555 1_555
C27_3 C26_3 1_555 1_555
C28_3 C26_3 1_555 1_555
H15_3 C27_3 1_555 1_555
C29_3 C27_3 1_555 1_555
C30_3 C28_3 1_555 1_555
H16_3 C28_3 1_555 1_555
H17_3 C29_3 1_555 1_555
C31_3 C29_3 1_555 1_555
H18_3 C30_3 1_555 1_555
C32_3 C31_3 1_555 1_555
Ag6 C12_3 1_555 1_555
N8_3 Zn1_4 1_555 1_555
N9_3 Zn1_4 1_555 1_555
C33_3 N8_3 1_555 1_555
C34_3 N8_3 1_555 1_555
C35_3 N9_3 1_555 1_555
C36_3 N9_3 1_555 1_555
H19_3 C33_3 1_555 1_555
C37_3 C33_3 1_555 1_555
C38_3 C34_3 1_555 1_555
C39_3 C34_3 1_555 1_555
C40_3 C35_3 1_555 1_555
C41_3 C36_3 1_555 1_555
C42_3 C36_3 1_555 1_555
H21_3 C38_3 1_555 1_555
C43_3 C39_3 1_555 1_555
H22_3 C40_3 1_555 1_555
Ag5 C40_3 1_555 1_555
H23_3 C41_3 1_555 1_555
C44_3 C42_3 1_555 1_555
N10_3 Zn2_4 1_555 1_555
C45_3 C24_3 1_555 1_555
N11_3 Zn2_4 1_555 1_555
C46_3 C43_3 1_555 1_555
C47_3 C43_3 1_555 1_555
C48_2 Ag5 1_555 1_555
H24_3 C44_3 1_555 1_555
C49_3 C44_3 1_555 1_555
C50_3 C25_3 1_555 1_555
C51_3 C45_3 1_555 1_555
C52_3 C45_3 1_555 1_555
C53_3 N11_3 1_555 1_555
C55_3 C47_3 1_555 1_555
H26_3 C47_3 1_555 1_555
C56_3 C48_2 1_555 1_555
H27_2 C48_2 1_555 1_555
H28_3 C49_3 1_555 1_555
C57_2 C52_3 1_555 1_555
H29_3 C53_3 1_555 1_555
H32_3 C56_3 1_555 1_555
H33_2 C57_2 1_555 1_555
N13 C32_3 1_555 1_555
N3_3 Zn1_4 1_555 1_555
C13_3 C14_3 1_555 1_555
C15_3 C16_3 1_555 1_555
C15_3 Ag6 1_555 1_555
C17_3 Ag6 1_555 1_555
N6_3 Zn2_4 1_555 1_555
C23_3 C24_3 1_555 1_555
C30_3 C31_3 1_555 1_555
C35_3 C39_3 1_555 1_555
C37_3 C38_3 1_555 1_555
C40_3 C41_3 1_555 1_555
C41_3 Ag5 1_555 1_555
C42_3 N10_3 1_555 1_555
N10_3 C50_3 1_555 1_555
N11_3 C51_3 1_555 1_555
C48_2 C53_3 1_555 1_555
C49_3 C50_3 1_555 1_555
C51_3 C56_3 1_555 1_555
H30_3 C54_3 1_555 1_555
C59_3 C54_3 1_555 1_555
C61_3 C58_3 1_555 1_555
H34_3 C58_3 1_555 1_555
C62_3 C59_3 1_555 1_555
H35_3 C60_3 1_555 1_555
C63_3 C60_3 1_555 1_555
H36_3 C61_3 1_555 1_555
N12_2 C62_3 1_555 1_555
C64_3 C63_3 1_555 1_555
N4 C64_3 1_555 1_555
C61_3 C63_3 1_555 1_555
N7 C1_4 1_555 1_555
C1_4 C2_4 1_555 1_555
C2_4 C3_4 1_555 1_555
C3_4 C5_4 1_555 1_555
C4_4 C2_4 1_555 1_555
C5_4 C7_4 1_555 1_555
H1_4 C3_4 1_555 1_555
H2_4 C4_4 1_555 1_555
C6_4 C4_4 1_555 1_555
C7_4 C6_4 1_555 1_555
H3_2 C5_4 1_555 1_555
H4_4 C6_4 1_555 1_555
C8_4 C7_4 1_555 1_555
C9_4 C8_4 1_555 1_555
C10_4 C8_4 1_555 1_555
C11_4 C9_4 1_555 1_555
N2_4 C9_4 1_555 1_555
C12_4 C10_4 1_555 1_555
N3_4 C10_4 1_555 1_555
C13_4 C11_4 1_555 1_555
H5_4 C11_4 1_555 1_555
Zn1_5 N2_4 1_555 1_555
H6_4 C12_4 1_555 1_555
C15_4 C12_4 1_555 1_555
C16_4 N3_4 1_555 1_555
H7_2 C13_4 1_555 1_555
H9_4 C15_4 1_555 1_555
C18_4 C16_4 1_555 1_555
C19_4 C22_4 1_555 1_555
C21_4 C18_4 1_555 1_555
N5_4 C18_4 1_555 1_555
C22_4 N6_4 1_555 1_555
H11_4 C19_4 1_555 1_555
H12_4 C20_4 1_555 1_555
N6_4 C20_4 1_555 1_555
H13_4 C21_4 1_555 1_555
Zn2_5 N5_4 1_555 1_555
C25_4 C22_4 1_555 1_555
C26_4 C25_4 1_555 1_555
C28_4 C26_4 1_555 1_555
C30_4 C28_4 1_555 1_555
H16_4 C28_4 1_555 1_555
H18_4 C30_4 1_555 1_555
Ag1 C12_4 1_555 1_555
H19_4 C33_4 1_555 1_555
C50_4 C25_4 1_555 1_555
H28_4 C49_4 1_555 1_555
N3_4 Zn1_5 1_555 1_555
C15_4 C16_4 1_555 1_555
C15_4 Ag1 1_555 1_555
N6_4 Zn2_5 1_555 1_555
C30_4 C31_4 1_555 1_555
C49_4 C50_4 1_555 1_555
H10_4 C17_4 1_555 1_555
H15_4 C27_4 1_555 1_555
C29_4 C27_4 1_555 1_555
H17_4 C29_4 1_555 1_555
N13_2 C32_4 1_555 1_555
H8_4 C14_4 1_555 1_555
H14_4 C23_4 1_555 1_555
N8_4 Zn1_6 1_555 1_555
N9_4 Zn1_6 1_555 1_555
C34_4 N8_4 1_555 1_555
C35_4 N9_4 1_555 1_555
C36_4 N9_4 1_555 1_555
C38_4 C34_4 1_555 1_555
C39_4 C34_4 1_555 1_555
C40_4 C35_4 1_555 1_555
C41_4 C36_4 1_555 1_555
C42_4 C36_4 1_555 1_555
H20_2 C37_4 1_555 1_555
H21_4 C38_4 1_555 1_555
C43_4 C39_4 1_555 1_555
H22_4 C40_4 1_555 1_555
Ag4 C40_4 1_555 1_555
H23_4 C41_4 1_555 1_555
C44_4 C42_4 1_555 1_555
N10_4 Zn2_6 1_555 1_555
C45_4 C24_4 1_555 1_555
N11_4 Zn2_6 1_555 1_555
C46_4 C43_4 1_555 1_555
C47_4 C43_4 1_555 1_555
H24_4 C44_4 1_555 1_555
C51_4 C45_4 1_555 1_555
C52_4 C45_4 1_555 1_555
C53_4 N11_4 1_555 1_555
H25_2 C46_4 1_555 1_555
C55_4 C47_4 1_555 1_555
H26_4 C47_4 1_555 1_555
H29_4 C53_4 1_555 1_555
H32_4 C56_4 1_555 1_555
C23_4 C24_4 1_555 1_555
C35_4 C39_4 1_555 1_555
C37_4 C38_4 1_555 1_555
C40_4 C41_4 1_555 1_555
C41_4 Ag4 1_555 1_555
C42_4 N10_4 1_555 1_555
N11_4 C51_4 1_555 1_555
C51_4 C56_4 1_555 1_555
H30_4 C54_4 1_555 1_555
C59_4 C54_4 1_555 1_555
C61_4 C58_4 1_555 1_555
H34_4 C58_4 1_555 1_555
C62_4 C59_4 1_555 1_555
H36_4 C61_4 1_555 1_555
N12 C62_4 1_555 1_555
C61_4 C63_4 1_555 1_555
H35_4 C60_4 1_555 1_555
N4_2 C64_4 1_555 1_555
H27_3 C48_3 1_555 1_555
H33_3 C57_3 1_555 1_555
H27_4 C48_4 1_555 1_555
H33_4 C57_4 1_555 1_555

#END
