
###############################################################################
#
# This file contains modified crystal structure data generated from the
# MOF subset of the Cambridge Structural Database (CSD) v543 
# hosted by the Cambridge Crystallographic Data Centre (CCDC).
#
# This work is licensed under the Creative Commons
# Attribution-NonCommercial-ShareAlike 4.0 International License.
# To view a copy of this license, visit
# http://creativecommons.org/licenses/by-nc-sa/4.0/
# or send a letter to
# Creative Commons, PO Box 1866, Mountain View, CA 94042, USA.
#
# CIF created using the CSD Python API on 29 September 2022
# The structure has been converted into the P1 space group
# The structure has a 3D framework
# The original CSD entry GIVVUF is in the orthorhombic crystal system
# The framework has been calculated to contain at least 10.0% void space
# The void calculation uses a probe of radius 1.32A, grid spacing 0.4
#
###############################################################################

data_GIVVUF
_chemical_formula_moiety         '(C160 H88 Cu4 N8 O44 S8)n'
_symmetry_cell_setting           triclinic
_symmetry_space_group_name_H-M   'P 1'
_symmetry_Int_Tables_number      1
_space_group_name_Hall           'P 1'
loop_
_symmetry_equiv_pos_site_id
_symmetry_equiv_pos_as_xyz
1 x,y,z
_cell_length_a                   12.9345(3)
_cell_length_b                   24.1072(9)
_cell_length_c                   13.4333(3)
_cell_angle_alpha                90
_cell_angle_beta                 90
_cell_angle_gamma                90
_cell_volume                     4188.7
loop_
_atom_site_label
_atom_site_type_symbol
_atom_site_fract_x
_atom_site_fract_y
_atom_site_fract_z
_atom_site_U_iso_or_equiv
_atom_site_thermal_displace_type
Cu4 Cu 0.4894(6) 0.4536(3) 0.0487(5) 0.0050 Uiso
O7 O 0.5770(18) 0.5660(7) 0.0785(14) 0.0050 Uiso
O9 O 0.3810(16) 0.5697(7) 0.0042(16) 0.0050 Uiso
Cu1 Cu 0.5106(6) 0.5464(3) 0.9513(5) 0.0050 Uiso
O1 O 0.440(3) 0.5143(8) 0.8382(13) 0.0050 Uiso
O2 O 0.4230(18) 0.4340(7) 0.9215(14) 0.0050 Uiso
C1 C 0.415(3) 0.4639(7) 0.8452(14) 0.0050 Uiso
C2 C 0.377(3) 0.4364(8) 0.7536(18) 0.0050 Uiso
C3 C 0.304(3) 0.4639(8) 0.696(3) 0.0050 Uiso
H1 H 0.300(16) 0.5037(10) 0.696(16) 0.0050 Uiso
C4 C 0.244(3) 0.4318(9) 0.631(3) 0.0050 Uiso
C5 C 0.269(3) 0.3776(9) 0.609(3) 0.0050 Uiso
H2 H 0.238(5) 0.3599(17) 0.553(4) 0.0050 Uiso
C6 C 0.3470(19) 0.3497(7) 0.6634(18) 0.0050 Uiso
C7 C 0.397(4) 0.3808(10) 0.737(4) 0.0050 Uiso
H3 H 0.45(3) 0.363(5) 0.776(19) 0.0050 Uiso
C8 C 0.163(3) 0.4595(10) 0.570(3) 0.0050 Uiso
O3 O 0.1375(16) 0.5080(8) 0.5946(18) 0.0050 Uiso
O4 O 0.1190(16) 0.4303(7) 0.5042(16) 0.0050 Uiso
N1 N 0.365(2) 0.2923(6) 0.6533(17) 0.0050 Uiso
C9 C 0.316(4) 0.2534(7) 0.714(3) 0.0050 Uiso
C10 C 0.315(3) 0.1975(7) 0.7013(17) 0.0050 Uiso
S1 S 0.3694(9) 0.1669(5) 0.5917(8) 0.0050 Uiso
O5 O 0.4384(15) 0.1213(7) 0.6232(15) 0.0050 Uiso
O6 O 0.2856(15) 0.1539(9) 0.5231(15) 0.0050 Uiso
C11 C 0.441(3) 0.2196(6) 0.544(2) 0.0050 Uiso
C12 C 0.431(3) 0.2763(7) 0.570(3) 0.0050 Uiso
C13 C 0.254(3) 0.1603(9) 0.760(3) 0.0050 Uiso
H4 H 0.241(15) 0.123(4) 0.739(10) 0.0050 Uiso
C14 C 0.204(3) 0.1822(9) 0.843(3) 0.0050 Uiso
H5 H 0.160(13) 0.160(3) 0.882(10) 0.0050 Uiso
C15 C 0.208(3) 0.2375(9) 0.856(3) 0.0050 Uiso
H6 H 0.171(16) 0.2524(16) 0.911(10) 0.0050 Uiso
C16 C 0.250(3) 0.2745(8) 0.789(3) 0.0050 Uiso
H7 H 0.227(15) 0.312(3) 0.787(12) 0.0050 Uiso
C17 C 0.480(3) 0.3151(7) 0.509(3) 0.0050 Uiso
H8 H 0.466(13) 0.3532(9) 0.520(9) 0.0050 Uiso
C18 C 0.539(3) 0.3012(8) 0.426(3) 0.0050 Uiso
H9 H 0.579(11) 0.3280(16) 0.392(10) 0.0050 Uiso
C19 C 0.549(3) 0.2461(9) 0.408(3) 0.0050 Uiso
H10 H 0.592(15) 0.2352(16) 0.355(11) 0.0050 Uiso
C20 C 0.514(3) 0.2058(8) 0.471(3) 0.0050 Uiso
H11 H 0.545(13) 0.170(4) 0.470(11) 0.0050 Uiso
Cu3 Cu 0.4894(6) 0.0464(3) 0.5487(5) 0.0050 Uiso
Cu5 Cu 0.0106(6) 0.5464(3) 0.5487(5) 0.0050 Uiso
O8 O 0.6375(16) 0.5080(8) 0.9054(18) 0.0050 Uiso
O10 O 0.5616(15) 0.6213(7) 0.8768(15) 0.0050 Uiso
Cu2 Cu 0.9894(6) 0.4536(3) 0.4513(5) 0.0050 Uiso
O1_2 O 0.060(3) 0.4857(8) 0.3382(13) 0.0050 Uiso
O2_2 O 0.0770(18) 0.5660(7) 0.4215(14) 0.0050 Uiso
C1_2 C 0.085(3) 0.5361(7) 0.3452(14) 0.0050 Uiso
C2_2 C 0.123(3) 0.5636(8) 0.2536(18) 0.0050 Uiso
C3_2 C 0.196(3) 0.5361(8) 0.196(3) 0.0050 Uiso
H1_2 H 0.200(16) 0.4963(10) 0.196(16) 0.0050 Uiso
C4_2 C 0.256(3) 0.5682(9) 0.131(3) 0.0050 Uiso
C5_2 C 0.231(3) 0.6224(9) 0.109(3) 0.0050 Uiso
H2_2 H 0.262(5) 0.6401(17) 0.053(4) 0.0050 Uiso
C6_2 C 0.1530(19) 0.6503(7) 0.1634(18) 0.0050 Uiso
C7_2 C 0.103(4) 0.6192(10) 0.237(4) 0.0050 Uiso
H3_2 H 0.05(3) 0.637(5) 0.276(19) 0.0050 Uiso
C8_2 C 0.337(3) 0.5405(10) 0.070(3) 0.0050 Uiso
O3_2 O 0.3625(16) 0.4920(8) 0.0946(18) 0.0050 Uiso
N1_2 N 0.135(2) 0.7077(6) 0.1533(17) 0.0050 Uiso
C9_2 C 0.184(4) 0.7466(7) 0.214(3) 0.0050 Uiso
C10_2 C 0.185(3) 0.8025(7) 0.2013(17) 0.0050 Uiso
S1_2 S 0.1306(9) 0.8331(5) 0.0917(8) 0.0050 Uiso
O5_2 O 0.0616(15) 0.8787(7) 0.1232(15) 0.0050 Uiso
O6_2 O 0.2144(15) 0.8461(9) 0.0231(15) 0.0050 Uiso
C11_2 C 0.059(3) 0.7804(6) 0.044(2) 0.0050 Uiso
C12_2 C 0.069(3) 0.7237(7) 0.070(3) 0.0050 Uiso
C13_2 C 0.246(3) 0.8397(9) 0.260(3) 0.0050 Uiso
H4_2 H 0.259(15) 0.877(4) 0.239(10) 0.0050 Uiso
C14_2 C 0.296(3) 0.8178(9) 0.343(3) 0.0050 Uiso
H5_2 H 0.340(13) 0.840(3) 0.382(10) 0.0050 Uiso
C15_2 C 0.292(3) 0.7625(9) 0.356(3) 0.0050 Uiso
H6_2 H 0.329(16) 0.7476(16) 0.411(10) 0.0050 Uiso
C16_2 C 0.250(3) 0.7255(8) 0.289(3) 0.0050 Uiso
H7_2 H 0.273(15) 0.688(3) 0.287(12) 0.0050 Uiso
C17_2 C 0.020(3) 0.6849(7) 0.009(3) 0.0050 Uiso
H8_2 H 0.034(13) 0.6468(9) 0.020(9) 0.0050 Uiso
Cu3_2 Cu 0.0106(6) 0.9536(3) 0.0487(5) 0.0050 Uiso
O7_2 O 0.9230(18) 0.4340(7) 0.5785(14) 0.0050 Uiso
O8_2 O 0.8625(16) 0.4920(8) 0.4054(18) 0.0050 Uiso
O10_2 O 0.9384(15) 0.3787(7) 0.3768(15) 0.0050 Uiso
O1_3 O 0.560(3) 0.0143(8) 0.6618(13) 0.0050 Uiso
H1_3 H 0.700(16) 0.0037(10) 0.804(16) 0.0050 Uiso
O3_3 O 0.8625(16) 0.0080(8) 0.9054(18) 0.0050 Uiso
Cu5_2 Cu 0.9894(6) 0.0464(3) 0.9513(5) 0.0050 Uiso
O7_3 O 0.4230(18) 0.0660(7) 0.4215(14) 0.0050 Uiso
O8_3 O 0.3625(16) 0.0080(8) 0.5946(18) 0.0050 Uiso
O9_2 O 0.6190(16) 0.0697(7) 0.4958(16) 0.0050 Uiso
O2_3 O 0.5770(18) 0.9340(7) 0.5785(14) 0.0050 Uiso
C1_3 C 0.585(3) 0.9639(7) 0.6548(14) 0.0050 Uiso
C2_3 C 0.623(3) 0.9364(8) 0.7464(18) 0.0050 Uiso
C3_3 C 0.696(3) 0.9639(8) 0.804(3) 0.0050 Uiso
C4_3 C 0.756(3) 0.9318(9) 0.869(3) 0.0050 Uiso
C5_3 C 0.731(3) 0.8776(9) 0.891(3) 0.0050 Uiso
H2_3 H 0.762(5) 0.8599(17) 0.947(4) 0.0050 Uiso
C6_3 C 0.6530(19) 0.8497(7) 0.8366(18) 0.0050 Uiso
C7_3 C 0.603(4) 0.8808(10) 0.763(4) 0.0050 Uiso
H3_3 H 0.55(3) 0.863(5) 0.724(19) 0.0050 Uiso
C8_3 C 0.837(3) 0.9595(10) 0.930(3) 0.0050 Uiso
O4_2 O 0.8810(16) 0.9303(7) 0.9958(16) 0.0050 Uiso
N1_3 N 0.635(2) 0.7923(6) 0.8467(17) 0.0050 Uiso
C9_3 C 0.684(4) 0.7534(7) 0.786(3) 0.0050 Uiso
C10_3 C 0.685(3) 0.6975(7) 0.7987(17) 0.0050 Uiso
S1_3 S 0.6306(9) 0.6669(5) 0.9083(8) 0.0050 Uiso
O6_3 O 0.7144(15) 0.6539(9) 0.9769(15) 0.0050 Uiso
C11_3 C 0.559(3) 0.7196(6) 0.956(2) 0.0050 Uiso
C12_3 C 0.569(3) 0.7763(7) 0.930(3) 0.0050 Uiso
C13_3 C 0.746(3) 0.6603(9) 0.740(3) 0.0050 Uiso
H4_3 H 0.759(15) 0.623(4) 0.761(10) 0.0050 Uiso
C14_3 C 0.796(3) 0.6822(9) 0.657(3) 0.0050 Uiso
H5_3 H 0.840(13) 0.660(3) 0.618(10) 0.0050 Uiso
C15_3 C 0.792(3) 0.7375(9) 0.644(3) 0.0050 Uiso
H6_3 H 0.829(16) 0.7524(16) 0.589(10) 0.0050 Uiso
C16_3 C 0.750(3) 0.7745(8) 0.711(3) 0.0050 Uiso
H7_3 H 0.773(15) 0.812(3) 0.713(12) 0.0050 Uiso
C17_3 C 0.520(3) 0.8151(7) 0.991(3) 0.0050 Uiso
H8_3 H 0.534(13) 0.8532(9) 0.980(9) 0.0050 Uiso
Cu4_2 Cu 0.5106(6) 0.9536(3) 0.4513(5) 0.0050 Uiso
O8_4 O 0.1375(16) 0.9920(8) 0.0946(18) 0.0050 Uiso
O7_4 O 0.0770(18) 0.9340(7) 0.9215(14) 0.0050 Uiso
O2_4 O 0.9230(18) 0.0660(7) 0.0785(14) 0.0050 Uiso
C1_4 C 0.915(3) 0.0361(7) 0.1548(14) 0.0050 Uiso
C2_4 C 0.877(3) 0.0636(8) 0.2464(18) 0.0050 Uiso
C3_4 C 0.804(3) 0.0361(8) 0.304(3) 0.0050 Uiso
C4_4 C 0.744(3) 0.0682(9) 0.369(3) 0.0050 Uiso
C5_4 C 0.769(3) 0.1224(9) 0.391(3) 0.0050 Uiso
H2_4 H 0.738(5) 0.1401(17) 0.447(4) 0.0050 Uiso
C6_4 C 0.8470(19) 0.1503(7) 0.3366(18) 0.0050 Uiso
C7_4 C 0.897(4) 0.1192(10) 0.263(4) 0.0050 Uiso
H3_4 H 0.95(3) 0.137(5) 0.224(19) 0.0050 Uiso
C8_4 C 0.663(3) 0.0405(10) 0.430(3) 0.0050 Uiso
N1_4 N 0.865(2) 0.2077(6) 0.3467(17) 0.0050 Uiso
C9_4 C 0.816(4) 0.2466(7) 0.286(3) 0.0050 Uiso
C10_4 C 0.815(3) 0.3025(7) 0.2987(17) 0.0050 Uiso
S1_4 S 0.8694(9) 0.3331(5) 0.4083(8) 0.0050 Uiso
O6_4 O 0.7856(15) 0.3461(9) 0.4769(15) 0.0050 Uiso
C11_4 C 0.941(3) 0.2804(6) 0.456(2) 0.0050 Uiso
C12_4 C 0.931(3) 0.2237(7) 0.430(3) 0.0050 Uiso
C13_4 C 0.754(3) 0.3397(9) 0.240(3) 0.0050 Uiso
H4_4 H 0.741(15) 0.377(4) 0.261(10) 0.0050 Uiso
C14_4 C 0.704(3) 0.3178(9) 0.157(3) 0.0050 Uiso
H5_4 H 0.660(13) 0.340(3) 0.118(10) 0.0050 Uiso
C15_4 C 0.708(3) 0.2625(9) 0.144(3) 0.0050 Uiso
H6_4 H 0.671(16) 0.2476(16) 0.089(10) 0.0050 Uiso
C16_4 C 0.750(3) 0.2255(8) 0.211(3) 0.0050 Uiso
H7_4 H 0.727(15) 0.188(3) 0.213(12) 0.0050 Uiso
C17_4 C 0.980(3) 0.1849(7) 0.491(3) 0.0050 Uiso
H8_4 H 0.966(13) 0.1468(9) 0.480(9) 0.0050 Uiso
O1_4 O 0.940(3) 0.9857(8) 0.1618(13) 0.0050 Uiso
H1_4 H 0.800(16) 0.9963(10) 0.304(16) 0.0050 Uiso
O3_4 O 0.6375(16) 0.9920(8) 0.4054(18) 0.0050 Uiso
O1_5 O 0.560(3) 0.4857(8) 0.1618(13) 0.0050 Uiso
C1_5 C 0.585(3) 0.5361(7) 0.1548(14) 0.0050 Uiso
C2_5 C 0.623(3) 0.5636(8) 0.2464(18) 0.0050 Uiso
C3_5 C 0.696(3) 0.5361(8) 0.304(3) 0.0050 Uiso
H1_5 H 0.700(16) 0.4963(10) 0.304(16) 0.0050 Uiso
C4_5 C 0.756(3) 0.5682(9) 0.369(3) 0.0050 Uiso
C5_5 C 0.731(3) 0.6224(9) 0.391(3) 0.0050 Uiso
H2_5 H 0.762(5) 0.6401(17) 0.447(4) 0.0050 Uiso
C6_5 C 0.6530(19) 0.6503(7) 0.3366(18) 0.0050 Uiso
C7_5 C 0.603(4) 0.6192(10) 0.263(4) 0.0050 Uiso
H3_5 H 0.55(3) 0.637(5) 0.224(19) 0.0050 Uiso
C8_5 C 0.837(3) 0.5405(10) 0.430(3) 0.0050 Uiso
O4_3 O 0.8810(16) 0.5697(7) 0.4958(16) 0.0050 Uiso
N1_5 N 0.635(2) 0.7077(6) 0.3467(17) 0.0050 Uiso
C9_5 C 0.684(4) 0.7466(7) 0.286(3) 0.0050 Uiso
C10_5 C 0.685(3) 0.8025(7) 0.2987(17) 0.0050 Uiso
S1_5 S 0.6306(9) 0.8331(5) 0.4083(8) 0.0050 Uiso
O5_3 O 0.5616(15) 0.8787(7) 0.3768(15) 0.0050 Uiso
O6_5 O 0.7144(15) 0.8461(9) 0.4769(15) 0.0050 Uiso
C11_5 C 0.559(3) 0.7804(6) 0.456(2) 0.0050 Uiso
C12_5 C 0.569(3) 0.7237(7) 0.430(3) 0.0050 Uiso
C13_5 C 0.746(3) 0.8397(9) 0.240(3) 0.0050 Uiso
H4_5 H 0.759(15) 0.877(4) 0.261(10) 0.0050 Uiso
C14_5 C 0.796(3) 0.8178(9) 0.157(3) 0.0050 Uiso
H5_5 H 0.840(13) 0.840(3) 0.118(10) 0.0050 Uiso
C15_5 C 0.792(3) 0.7625(9) 0.144(3) 0.0050 Uiso
H6_5 H 0.829(16) 0.7476(16) 0.089(10) 0.0050 Uiso
C16_5 C 0.750(3) 0.7255(8) 0.211(3) 0.0050 Uiso
H7_5 H 0.773(15) 0.688(3) 0.213(12) 0.0050 Uiso
C17_5 C 0.520(3) 0.6849(7) 0.491(3) 0.0050 Uiso
H8_5 H 0.534(13) 0.6468(9) 0.480(9) 0.0050 Uiso
C18_2 C 0.461(3) 0.6988(8) 0.574(3) 0.0050 Uiso
H9_2 H 0.421(11) 0.6720(16) 0.608(10) 0.0050 Uiso
C19_2 C 0.451(3) 0.7539(9) 0.592(3) 0.0050 Uiso
H10_2 H 0.408(15) 0.7648(16) 0.645(11) 0.0050 Uiso
C20_2 C 0.486(3) 0.7942(8) 0.529(3) 0.0050 Uiso
H11_2 H 0.455(13) 0.830(4) 0.530(11) 0.0050 Uiso
O10_3 O 0.4384(15) 0.3787(7) 0.1232(15) 0.0050 Uiso
O9_3 O 0.6190(16) 0.4303(7) 0.9958(16) 0.0050 Uiso
O10_4 O 0.0616(15) 0.6213(7) 0.6232(15) 0.0050 Uiso
O1_6 O 0.940(3) 0.5143(8) 0.6618(13) 0.0050 Uiso
C1_6 C 0.915(3) 0.4639(7) 0.6548(14) 0.0050 Uiso
C2_6 C 0.877(3) 0.4364(8) 0.7464(18) 0.0050 Uiso
C3_6 C 0.804(3) 0.4639(8) 0.804(3) 0.0050 Uiso
H1_6 H 0.800(16) 0.5037(10) 0.804(16) 0.0050 Uiso
C4_6 C 0.744(3) 0.4318(9) 0.869(3) 0.0050 Uiso
C5_6 C 0.769(3) 0.3776(9) 0.891(3) 0.0050 Uiso
H2_6 H 0.738(5) 0.3599(17) 0.947(4) 0.0050 Uiso
C6_6 C 0.8470(19) 0.3497(7) 0.8366(18) 0.0050 Uiso
C7_6 C 0.897(4) 0.3808(10) 0.763(4) 0.0050 Uiso
H3_6 H 0.95(3) 0.363(5) 0.724(19) 0.0050 Uiso
C8_6 C 0.663(3) 0.4595(10) 0.930(3) 0.0050 Uiso
N1_6 N 0.865(2) 0.2923(6) 0.8467(17) 0.0050 Uiso
C9_6 C 0.816(4) 0.2534(7) 0.786(3) 0.0050 Uiso
C10_6 C 0.815(3) 0.1975(7) 0.7987(17) 0.0050 Uiso
S1_6 S 0.8694(9) 0.1669(5) 0.9083(8) 0.0050 Uiso
O5_4 O 0.9384(15) 0.1213(7) 0.8768(15) 0.0050 Uiso
O6_6 O 0.7856(15) 0.1539(9) 0.9769(15) 0.0050 Uiso
C11_6 C 0.941(3) 0.2196(6) 0.956(2) 0.0050 Uiso
C12_6 C 0.931(3) 0.2763(7) 0.930(3) 0.0050 Uiso
C13_6 C 0.754(3) 0.1603(9) 0.740(3) 0.0050 Uiso
H4_6 H 0.741(15) 0.123(4) 0.761(10) 0.0050 Uiso
C14_6 C 0.704(3) 0.1822(9) 0.657(3) 0.0050 Uiso
H5_6 H 0.660(13) 0.160(3) 0.618(10) 0.0050 Uiso
C15_6 C 0.708(3) 0.2375(9) 0.644(3) 0.0050 Uiso
H6_6 H 0.671(16) 0.2524(16) 0.589(10) 0.0050 Uiso
C16_6 C 0.750(3) 0.2745(8) 0.711(3) 0.0050 Uiso
H7_6 H 0.727(15) 0.312(3) 0.713(12) 0.0050 Uiso
C17_6 C 0.980(3) 0.3151(7) 0.991(3) 0.0050 Uiso
H8_6 H 0.966(13) 0.3532(9) 0.980(9) 0.0050 Uiso
C1_7 C 0.415(3) 0.0361(7) 0.3452(14) 0.0050 Uiso
C2_7 C 0.377(3) 0.0636(8) 0.2536(18) 0.0050 Uiso
C3_7 C 0.304(3) 0.0361(8) 0.196(3) 0.0050 Uiso
C4_7 C 0.244(3) 0.0682(9) 0.131(3) 0.0050 Uiso
C5_7 C 0.269(3) 0.1224(9) 0.109(3) 0.0050 Uiso
H2_7 H 0.238(5) 0.1401(17) 0.053(4) 0.0050 Uiso
C6_7 C 0.3470(19) 0.1503(7) 0.1634(18) 0.0050 Uiso
C7_7 C 0.397(4) 0.1192(10) 0.237(4) 0.0050 Uiso
H3_7 H 0.45(3) 0.137(5) 0.276(19) 0.0050 Uiso
C8_7 C 0.163(3) 0.0405(10) 0.070(3) 0.0050 Uiso
O4_4 O 0.1190(16) 0.0697(7) 0.0042(16) 0.0050 Uiso
N1_7 N 0.365(2) 0.2077(6) 0.1533(17) 0.0050 Uiso
C9_7 C 0.316(4) 0.2466(7) 0.214(3) 0.0050 Uiso
C10_7 C 0.315(3) 0.3025(7) 0.2013(17) 0.0050 Uiso
S1_7 S 0.3694(9) 0.3331(5) 0.0917(8) 0.0050 Uiso
O6_7 O 0.2856(15) 0.3461(9) 0.0231(15) 0.0050 Uiso
C11_7 C 0.441(3) 0.2804(6) 0.044(2) 0.0050 Uiso
C12_7 C 0.431(3) 0.2237(7) 0.070(3) 0.0050 Uiso
C13_7 C 0.254(3) 0.3397(9) 0.260(3) 0.0050 Uiso
H4_7 H 0.241(15) 0.377(4) 0.239(10) 0.0050 Uiso
C14_7 C 0.204(3) 0.3178(9) 0.343(3) 0.0050 Uiso
H5_7 H 0.160(13) 0.340(3) 0.382(10) 0.0050 Uiso
C15_7 C 0.208(3) 0.2625(9) 0.356(3) 0.0050 Uiso
H6_7 H 0.171(16) 0.2476(16) 0.411(10) 0.0050 Uiso
C16_7 C 0.250(3) 0.2255(8) 0.289(3) 0.0050 Uiso
H7_7 H 0.227(15) 0.188(3) 0.287(12) 0.0050 Uiso
C17_7 C 0.480(3) 0.1849(7) 0.009(3) 0.0050 Uiso
H8_7 H 0.466(13) 0.1468(9) 0.020(9) 0.0050 Uiso
O1_7 O 0.440(3) 0.9857(8) 0.3382(13) 0.0050 Uiso
H1_7 H 0.300(16) 0.9963(10) 0.196(16) 0.0050 Uiso
O9_4 O 0.3810(16) 0.9303(7) 0.5042(16) 0.0050 Uiso
O1_8 O 0.060(3) 0.0143(8) 0.8382(13) 0.0050 Uiso
H1_8 H 0.200(16) 0.0037(10) 0.696(16) 0.0050 Uiso
C1_8 C 0.085(3) 0.9639(7) 0.8452(14) 0.0050 Uiso
C2_8 C 0.123(3) 0.9364(8) 0.7536(18) 0.0050 Uiso
C3_8 C 0.196(3) 0.9639(8) 0.696(3) 0.0050 Uiso
C4_8 C 0.256(3) 0.9318(9) 0.631(3) 0.0050 Uiso
C5_8 C 0.231(3) 0.8776(9) 0.609(3) 0.0050 Uiso
H2_8 H 0.262(5) 0.8599(17) 0.553(4) 0.0050 Uiso
C6_8 C 0.1530(19) 0.8497(7) 0.6634(18) 0.0050 Uiso
C7_8 C 0.103(4) 0.8808(10) 0.737(4) 0.0050 Uiso
H3_8 H 0.05(3) 0.863(5) 0.776(19) 0.0050 Uiso
C8_8 C 0.337(3) 0.9595(10) 0.570(3) 0.0050 Uiso
N1_8 N 0.135(2) 0.7923(6) 0.6533(17) 0.0050 Uiso
C9_8 C 0.184(4) 0.7534(7) 0.714(3) 0.0050 Uiso
C10_8 C 0.185(3) 0.6975(7) 0.7013(17) 0.0050 Uiso
S1_8 S 0.1306(9) 0.6669(5) 0.5917(8) 0.0050 Uiso
O6_8 O 0.2144(15) 0.6539(9) 0.5231(15) 0.0050 Uiso
C11_8 C 0.059(3) 0.7196(6) 0.544(2) 0.0050 Uiso
C12_8 C 0.069(3) 0.7763(7) 0.570(3) 0.0050 Uiso
C13_8 C 0.246(3) 0.6603(9) 0.760(3) 0.0050 Uiso
H4_8 H 0.259(15) 0.623(4) 0.739(10) 0.0050 Uiso
C14_8 C 0.296(3) 0.6822(9) 0.843(3) 0.0050 Uiso
H5_8 H 0.340(13) 0.660(3) 0.882(10) 0.0050 Uiso
C15_8 C 0.292(3) 0.7375(9) 0.856(3) 0.0050 Uiso
H6_8 H 0.329(16) 0.7524(16) 0.911(10) 0.0050 Uiso
C16_8 C 0.250(3) 0.7745(8) 0.789(3) 0.0050 Uiso
H7_8 H 0.273(15) 0.812(3) 0.787(12) 0.0050 Uiso
C17_8 C 0.020(3) 0.8151(7) 0.509(3) 0.0050 Uiso
H8_8 H 0.034(13) 0.8532(9) 0.520(9) 0.0050 Uiso
C18_3 C 0.961(3) 0.6988(8) 0.926(3) 0.0050 Uiso
H9_3 H 0.921(11) 0.6720(16) 0.892(10) 0.0050 Uiso
C19_3 C 0.951(3) 0.7539(9) 0.908(3) 0.0050 Uiso
H10_3 H 0.908(15) 0.7648(16) 0.855(11) 0.0050 Uiso
C20_3 C 0.986(3) 0.7942(8) 0.971(3) 0.0050 Uiso
H11_3 H 0.955(13) 0.830(4) 0.970(11) 0.0050 Uiso
C18_4 C 0.461(3) 0.8012(8) 0.074(3) 0.0050 Uiso
H9_4 H 0.421(11) 0.8280(16) 0.108(10) 0.0050 Uiso
C19_4 C 0.451(3) 0.7461(9) 0.092(3) 0.0050 Uiso
H10_4 H 0.408(15) 0.7352(16) 0.145(11) 0.0050 Uiso
C20_4 C 0.486(3) 0.7058(8) 0.029(3) 0.0050 Uiso
H11_4 H 0.455(13) 0.670(4) 0.030(11) 0.0050 Uiso
C18_5 C 0.039(3) 0.1988(8) 0.574(3) 0.0050 Uiso
H9_5 H 0.079(11) 0.1720(16) 0.608(10) 0.0050 Uiso
C19_5 C 0.049(3) 0.2539(9) 0.592(3) 0.0050 Uiso
H10_5 H 0.092(15) 0.2648(16) 0.645(11) 0.0050 Uiso
C20_5 C 0.014(3) 0.2942(8) 0.529(3) 0.0050 Uiso
H11_5 H 0.045(13) 0.330(4) 0.530(11) 0.0050 Uiso
C18_6 C 0.039(3) 0.3012(8) 0.074(3) 0.0050 Uiso
H9_6 H 0.079(11) 0.3280(16) 0.108(10) 0.0050 Uiso
C19_6 C 0.049(3) 0.2461(9) 0.092(3) 0.0050 Uiso
H10_6 H 0.092(15) 0.2352(16) 0.145(11) 0.0050 Uiso
C20_6 C 0.014(3) 0.2058(8) 0.029(3) 0.0050 Uiso
H11_6 H 0.045(13) 0.170(4) 0.030(11) 0.0050 Uiso
C18_7 C 0.539(3) 0.1988(8) 0.926(3) 0.0050 Uiso
H9_7 H 0.579(11) 0.1720(16) 0.892(10) 0.0050 Uiso
C19_7 C 0.549(3) 0.2539(9) 0.908(3) 0.0050 Uiso
H10_7 H 0.592(15) 0.2648(16) 0.855(11) 0.0050 Uiso
C20_7 C 0.514(3) 0.2942(8) 0.971(3) 0.0050 Uiso
H11_7 H 0.545(13) 0.330(4) 0.970(11) 0.0050 Uiso
C18_8 C 0.961(3) 0.8012(8) 0.426(3) 0.0050 Uiso
H9_8 H 0.921(11) 0.8280(16) 0.392(10) 0.0050 Uiso
C19_8 C 0.951(3) 0.7461(9) 0.408(3) 0.0050 Uiso
H10_8 H 0.908(15) 0.7352(16) 0.355(11) 0.0050 Uiso
C20_8 C 0.986(3) 0.7058(8) 0.471(3) 0.0050 Uiso
H11_8 H 0.955(13) 0.670(4) 0.470(11) 0.0050 Uiso
loop_
_geom_bond_atom_site_label_1
_geom_bond_atom_site_label_2
_geom_bond_site_symmetry_1
_geom_bond_site_symmetry_2
Cu1 O1 1_555 1_555
O1 C1 1_555 1_555
O2 C1 1_555 1_555
C1 C2 1_555 1_555
C2 C3 1_555 1_555
C3 H1 1_555 1_555
C4 C3 1_555 1_555
C5 C4 1_555 1_555
H2 C5 1_555 1_555
C6 C5 1_555 1_555
C7 C2 1_555 1_555
H3 C7 1_555 1_555
C8 C4 1_555 1_555
O3 C8 1_555 1_555
O4 C8 1_555 1_555
N1 C6 1_555 1_555
C9 N1 1_555 1_555
C10 C9 1_555 1_555
S1 C10 1_555 1_555
O5 S1 1_555 1_555
O6 S1 1_555 1_555
C11 S1 1_555 1_555
C12 N1 1_555 1_555
C13 C10 1_555 1_555
H4 C13 1_555 1_555
C14 C13 1_555 1_555
H5 C14 1_555 1_555
C15 C14 1_555 1_555
H6 C15 1_555 1_555
C16 C9 1_555 1_555
H7 C16 1_555 1_555
C17 C12 1_555 1_555
H8 C17 1_555 1_555
C18 C17 1_555 1_555
H9 C18 1_555 1_555
C19 C18 1_555 1_555
H10 C19 1_555 1_555
C20 C11 1_555 1_555
H11 C20 1_555 1_555
Cu3 O5 1_555 1_555
Cu5 O3 1_555 1_555
O8 Cu1 1_555 1_555
O10 Cu1 1_555 1_555
C6 C7 1_555 1_555
C11 C12 1_555 1_555
C15 C16 1_555 1_555
C19 C20 1_555 1_555
O1_2 C1_2 1_555 1_555
O2_2 C1_2 1_555 1_555
C1_2 C2_2 1_555 1_555
C2_2 C3_2 1_555 1_555
C3_2 H1_2 1_555 1_555
C4_2 C3_2 1_555 1_555
C5_2 C4_2 1_555 1_555
H2_2 C5_2 1_555 1_555
C6_2 C5_2 1_555 1_555
C7_2 C2_2 1_555 1_555
H3_2 C7_2 1_555 1_555
C8_2 C4_2 1_555 1_555
O3_2 C8_2 1_555 1_555
O9 C8_2 1_555 1_555
N1_2 C6_2 1_555 1_555
C9_2 N1_2 1_555 1_555
C10_2 C9_2 1_555 1_555
S1_2 C10_2 1_555 1_555
O5_2 S1_2 1_555 1_555
O6_2 S1_2 1_555 1_555
C11_2 S1_2 1_555 1_555
C12_2 N1_2 1_555 1_555
C13_2 C10_2 1_555 1_555
H4_2 C13_2 1_555 1_555
C14_2 C13_2 1_555 1_555
H5_2 C14_2 1_555 1_555
C15_2 C14_2 1_555 1_555
H6_2 C15_2 1_555 1_555
C16_2 C9_2 1_555 1_555
H7_2 C16_2 1_555 1_555
C17_2 C12_2 1_555 1_555
H8_2 C17_2 1_555 1_555
Cu3_2 O5_2 1_555 1_555
Cu5 O2_2 1_555 1_555
Cu4 O3_2 1_555 1_555
C6_2 C7_2 1_555 1_555
C11_2 C12_2 1_555 1_555
C15_2 C16_2 1_555 1_555
O7_2 Cu2 1_555 1_555
O8_2 Cu2 1_555 1_555
O10_2 Cu2 1_555 1_555
Cu3 O1_3 1_555 1_555
Cu5_2 O3_3 1_555 1_555
O7_3 Cu3 1_555 1_555
O8_3 Cu3 1_555 1_555
O9_2 Cu3 1_555 1_555
O2_3 C1_3 1_555 1_555
C1_3 C2_3 1_555 1_555
C2_3 C3_3 1_555 1_555
C4_3 C3_3 1_555 1_555
C5_3 C4_3 1_555 1_555
H2_3 C5_3 1_555 1_555
C6_3 C5_3 1_555 1_555
C7_3 C2_3 1_555 1_555
H3_3 C7_3 1_555 1_555
C8_3 C4_3 1_555 1_555
O4_2 C8_3 1_555 1_555
N1_3 C6_3 1_555 1_555
C9_3 N1_3 1_555 1_555
C10_3 C9_3 1_555 1_555
S1_3 C10_3 1_555 1_555
O10 S1_3 1_555 1_555
O6_3 S1_3 1_555 1_555
C11_3 S1_3 1_555 1_555
C12_3 N1_3 1_555 1_555
C13_3 C10_3 1_555 1_555
H4_3 C13_3 1_555 1_555
C14_3 C13_3 1_555 1_555
H5_3 C14_3 1_555 1_555
C15_3 C14_3 1_555 1_555
H6_3 C15_3 1_555 1_555
C16_3 C9_3 1_555 1_555
H7_3 C16_3 1_555 1_555
C17_3 C12_3 1_555 1_555
H8_3 C17_3 1_555 1_555
Cu4_2 O2_3 1_555 1_555
C6_3 C7_3 1_555 1_555
C11_3 C12_3 1_555 1_555
C15_3 C16_3 1_555 1_555
O8_4 Cu3_2 1_555 1_555
O2_4 C1_4 1_555 1_555
C1_4 C2_4 1_555 1_555
C2_4 C3_4 1_555 1_555
C4_4 C3_4 1_555 1_555
C5_4 C4_4 1_555 1_555
H2_4 C5_4 1_555 1_555
C6_4 C5_4 1_555 1_555
C7_4 C2_4 1_555 1_555
H3_4 C7_4 1_555 1_555
C8_4 C4_4 1_555 1_555
O9_2 C8_4 1_555 1_555
N1_4 C6_4 1_555 1_555
C9_4 N1_4 1_555 1_555
C10_4 C9_4 1_555 1_555
S1_4 C10_4 1_555 1_555
O10_2 S1_4 1_555 1_555
O6_4 S1_4 1_555 1_555
C11_4 S1_4 1_555 1_555
C12_4 N1_4 1_555 1_555
C13_4 C10_4 1_555 1_555
H4_4 C13_4 1_555 1_555
C14_4 C13_4 1_555 1_555
H5_4 C14_4 1_555 1_555
C15_4 C14_4 1_555 1_555
H6_4 C15_4 1_555 1_555
C16_4 C9_4 1_555 1_555
H7_4 C16_4 1_555 1_555
C17_4 C12_4 1_555 1_555
H8_4 C17_4 1_555 1_555
C6_4 C7_4 1_555 1_555
C11_4 C12_4 1_555 1_555
C15_4 C16_4 1_555 1_555
Cu4_2 O3_4 1_555 1_555
Cu4 O1_5 1_555 1_555
O1_5 C1_5 1_555 1_555
O7 C1_5 1_555 1_555
C1_5 C2_5 1_555 1_555
C2_5 C3_5 1_555 1_555
C3_5 H1_5 1_555 1_555
C4_5 C3_5 1_555 1_555
C5_5 C4_5 1_555 1_555
H2_5 C5_5 1_555 1_555
C6_5 C5_5 1_555 1_555
C7_5 C2_5 1_555 1_555
H3_5 C7_5 1_555 1_555
C8_5 C4_5 1_555 1_555
O8_2 C8_5 1_555 1_555
O4_3 C8_5 1_555 1_555
N1_5 C6_5 1_555 1_555
C9_5 N1_5 1_555 1_555
C10_5 C9_5 1_555 1_555
S1_5 C10_5 1_555 1_555
O5_3 S1_5 1_555 1_555
O6_5 S1_5 1_555 1_555
C11_5 S1_5 1_555 1_555
C12_5 N1_5 1_555 1_555
C13_5 C10_5 1_555 1_555
H4_5 C13_5 1_555 1_555
C14_5 C13_5 1_555 1_555
H5_5 C14_5 1_555 1_555
C15_5 C14_5 1_555 1_555
H6_5 C15_5 1_555 1_555
C16_5 C9_5 1_555 1_555
H7_5 C16_5 1_555 1_555
C17_5 C12_5 1_555 1_555
H8_5 C17_5 1_555 1_555
C18_2 C17_5 1_555 1_555
H9_2 C18_2 1_555 1_555
C19_2 C18_2 1_555 1_555
H10_2 C19_2 1_555 1_555
C20_2 C11_5 1_555 1_555
H11_2 C20_2 1_555 1_555
Cu4_2 O5_3 1_555 1_555
O10_3 Cu4 1_555 1_555
C6_5 C7_5 1_555 1_555
C11_5 C12_5 1_555 1_555
C15_5 C16_5 1_555 1_555
C19_2 C20_2 1_555 1_555
O10_4 Cu5 1_555 1_555
O1_6 C1_6 1_555 1_555
O7_2 C1_6 1_555 1_555
C1_6 C2_6 1_555 1_555
C2_6 C3_6 1_555 1_555
C3_6 H1_6 1_555 1_555
C4_6 C3_6 1_555 1_555
C5_6 C4_6 1_555 1_555
H2_6 C5_6 1_555 1_555
C6_6 C5_6 1_555 1_555
C7_6 C2_6 1_555 1_555
H3_6 C7_6 1_555 1_555
C8_6 C4_6 1_555 1_555
O8 C8_6 1_555 1_555
O9_3 C8_6 1_555 1_555
N1_6 C6_6 1_555 1_555
C9_6 N1_6 1_555 1_555
C10_6 C9_6 1_555 1_555
S1_6 C10_6 1_555 1_555
O5_4 S1_6 1_555 1_555
O6_6 S1_6 1_555 1_555
C11_6 S1_6 1_555 1_555
C12_6 N1_6 1_555 1_555
C13_6 C10_6 1_555 1_555
H4_6 C13_6 1_555 1_555
C14_6 C13_6 1_555 1_555
H5_6 C14_6 1_555 1_555
C15_6 C14_6 1_555 1_555
H6_6 C15_6 1_555 1_555
C16_6 C9_6 1_555 1_555
H7_6 C16_6 1_555 1_555
C17_6 C12_6 1_555 1_555
H8_6 C17_6 1_555 1_555
Cu5_2 O5_4 1_555 1_555
C6_6 C7_6 1_555 1_555
C11_6 C12_6 1_555 1_555
C15_6 C16_6 1_555 1_555
O7_3 C1_7 1_555 1_555
C1_7 C2_7 1_555 1_555
C2_7 C3_7 1_555 1_555
C4_7 C3_7 1_555 1_555
C5_7 C4_7 1_555 1_555
H2_7 C5_7 1_555 1_555
C6_7 C5_7 1_555 1_555
C7_7 C2_7 1_555 1_555
H3_7 C7_7 1_555 1_555
C8_7 C4_7 1_555 1_555
O4_4 C8_7 1_555 1_555
N1_7 C6_7 1_555 1_555
C9_7 N1_7 1_555 1_555
C10_7 C9_7 1_555 1_555
S1_7 C10_7 1_555 1_555
O10_3 S1_7 1_555 1_555
O6_7 S1_7 1_555 1_555
C11_7 S1_7 1_555 1_555
C12_7 N1_7 1_555 1_555
C13_7 C10_7 1_555 1_555
H4_7 C13_7 1_555 1_555
C14_7 C13_7 1_555 1_555
H5_7 C14_7 1_555 1_555
C15_7 C14_7 1_555 1_555
H6_7 C15_7 1_555 1_555
C16_7 C9_7 1_555 1_555
H7_7 C16_7 1_555 1_555
C17_7 C12_7 1_555 1_555
H8_7 C17_7 1_555 1_555
C6_7 C7_7 1_555 1_555
C11_7 C12_7 1_555 1_555
C15_7 C16_7 1_555 1_555
Cu4_2 O1_7 1_555 1_555
O9_4 Cu4_2 1_555 1_555
O7_4 C1_8 1_555 1_555
C1_8 C2_8 1_555 1_555
C2_8 C3_8 1_555 1_555
C4_8 C3_8 1_555 1_555
C5_8 C4_8 1_555 1_555
H2_8 C5_8 1_555 1_555
C6_8 C5_8 1_555 1_555
C7_8 C2_8 1_555 1_555
H3_8 C7_8 1_555 1_555
C8_8 C4_8 1_555 1_555
O9_4 C8_8 1_555 1_555
N1_8 C6_8 1_555 1_555
C9_8 N1_8 1_555 1_555
C10_8 C9_8 1_555 1_555
S1_8 C10_8 1_555 1_555
O10_4 S1_8 1_555 1_555
O6_8 S1_8 1_555 1_555
C11_8 S1_8 1_555 1_555
C12_8 N1_8 1_555 1_555
C13_8 C10_8 1_555 1_555
H4_8 C13_8 1_555 1_555
C14_8 C13_8 1_555 1_555
H5_8 C14_8 1_555 1_555
C15_8 C14_8 1_555 1_555
H6_8 C15_8 1_555 1_555
C16_8 C9_8 1_555 1_555
H7_8 C16_8 1_555 1_555
C17_8 C12_8 1_555 1_555
H8_8 C17_8 1_555 1_555
C6_8 C7_8 1_555 1_555
C11_8 C12_8 1_555 1_555
C15_8 C16_8 1_555 1_555
H9_3 C18_3 1_555 1_555
C19_3 C18_3 1_555 1_555
H10_3 C19_3 1_555 1_555
H11_3 C20_3 1_555 1_555
C19_3 C20_3 1_555 1_555
H9_4 C18_4 1_555 1_555
C19_4 C18_4 1_555 1_555
H10_4 C19_4 1_555 1_555
H11_4 C20_4 1_555 1_555
C19_4 C20_4 1_555 1_555
H9_5 C18_5 1_555 1_555
C19_5 C18_5 1_555 1_555
H10_5 C19_5 1_555 1_555
H11_5 C20_5 1_555 1_555
C19_5 C20_5 1_555 1_555
H9_6 C18_6 1_555 1_555
C19_6 C18_6 1_555 1_555
H10_6 C19_6 1_555 1_555
H11_6 C20_6 1_555 1_555
C19_6 C20_6 1_555 1_555
H9_7 C18_7 1_555 1_555
C19_7 C18_7 1_555 1_555
H10_7 C19_7 1_555 1_555
H11_7 C20_7 1_555 1_555
C19_7 C20_7 1_555 1_555
H9_8 C18_8 1_555 1_555
C19_8 C18_8 1_555 1_555
H10_8 C19_8 1_555 1_555
H11_8 C20_8 1_555 1_555
C19_8 C20_8 1_555 1_555

#END
