
###############################################################################
#
# This file contains modified crystal structure data generated from the
# MOF subset of the Cambridge Structural Database (CSD) v543 
# hosted by the Cambridge Crystallographic Data Centre (CCDC).
#
# This work is licensed under the Creative Commons
# Attribution-NonCommercial-ShareAlike 4.0 International License.
# To view a copy of this license, visit
# http://creativecommons.org/licenses/by-nc-sa/4.0/
# or send a letter to
# Creative Commons, PO Box 1866, Mountain View, CA 94042, USA.
#
# CIF created using the CSD Python API on 29 September 2022
# The structure has been converted into the P1 space group
# The structure has a 3D framework
# The original CSD entry GIVWAM is in the orthorhombic crystal system
# The framework has been calculated to contain at least 10.0% void space
# The void calculation uses a probe of radius 1.32A, grid spacing 0.4
#
###############################################################################

data_GIVWAM
_chemical_formula_moiety         '(C160 H88 Cu4 N8 O42 S8)n'
_symmetry_cell_setting           triclinic
_symmetry_space_group_name_H-M   'P 1'
_symmetry_Int_Tables_number      1
_space_group_name_Hall           'P 1'
loop_
_symmetry_equiv_pos_site_id
_symmetry_equiv_pos_as_xyz
1 x,y,z
_cell_length_a                   12.9648(9)
_cell_length_b                   24.144(3)
_cell_length_c                   13.4069(9)
_cell_angle_alpha                90
_cell_angle_beta                 90
_cell_angle_gamma                90
_cell_volume                     4196.66
loop_
_atom_site_label
_atom_site_type_symbol
_atom_site_fract_x
_atom_site_fract_y
_atom_site_fract_z
_atom_site_U_iso_or_equiv
_atom_site_thermal_displace_type
Cu4 Cu 0.4908(6) 0.45553(15) 0.0540(4) 0.0015 Uiso
O7 O 0.558(2) 0.5682(3) 0.0835(9) 0.0015 Uiso
Cu1 Cu 0.5092(6) 0.54447(15) 0.9460(4) 0.0015 Uiso
O1 O 0.438(2) 0.5124(5) 0.8305(10) 0.0015 Uiso
O2 O 0.442(2) 0.4318(3) 0.9165(9) 0.0015 Uiso
C1 C 0.4186(12) 0.4612(3) 0.8412(9) 0.0015 Uiso
C2 C 0.3696(11) 0.4320(4) 0.7544(10) 0.0015 Uiso
C3 C 0.2891(16) 0.4578(5) 0.7059(14) 0.0015 Uiso
H1 H 0.267(6) 0.494(2) 0.724(6) 0.0015 Uiso
C4 C 0.2374(11) 0.4278(3) 0.6322(9) 0.0015 Uiso
C5 C 0.2622(17) 0.3737(4) 0.6116(17) 0.0015 Uiso
H2 H 0.225(6) 0.3542(16) 0.561(6) 0.0015 Uiso
C6 C 0.3442(9) 0.3474(3) 0.6606(9) 0.0015 Uiso
C7 C 0.3979(14) 0.3793(5) 0.7283(16) 0.0015 Uiso
H3 H 0.457(9) 0.363(3) 0.759(11) 0.0015 Uiso
C8 C 0.1616(6) 0.4569(4) 0.5658(9) 0.0015 Uiso
O3 O 0.1498(10) 0.5085(3) 0.5796(17) 0.0015 Uiso
O4 O 0.1205(12) 0.4284(6) 0.4968(10) 0.0015 Uiso
N1 N 0.3644(9) 0.2913(2) 0.6492(8) 0.0015 Uiso
C9 C 0.315(2) 0.2505(3) 0.7083(13) 0.0015 Uiso
C10 C 0.3172(11) 0.1946(3) 0.6942(9) 0.0015 Uiso
S1 S 0.3713(7) 0.1661(2) 0.5859(7) 0.0015 Uiso
O5 O 0.4431(11) 0.1228(4) 0.6163(10) 0.0015 Uiso
O6 O 0.2884(9) 0.1510(5) 0.5187(11) 0.0015 Uiso
C11 C 0.4385(14) 0.2215(3) 0.5364(13) 0.0015 Uiso
C12 C 0.4315(16) 0.2776(3) 0.5706(15) 0.0015 Uiso
C13 C 0.264(2) 0.1558(4) 0.7551(16) 0.0015 Uiso
H4 H 0.268(9) 0.1172(6) 0.742(6) 0.0015 Uiso
C14 C 0.210(3) 0.1762(6) 0.836(2) 0.0015 Uiso
H5 H 0.170(8) 0.1524(10) 0.877(6) 0.0015 Uiso
C15 C 0.211(2) 0.2315(7) 0.8524(17) 0.0015 Uiso
H6 H 0.170(9) 0.2453(10) 0.905(7) 0.0015 Uiso
C16 C 0.264(3) 0.2696(5) 0.7951(16) 0.0015 Uiso
H7 H 0.264(12) 0.3077(12) 0.812(8) 0.0015 Uiso
C17 C 0.4954(17) 0.3168(4) 0.5246(15) 0.0015 Uiso
H8 H 0.499(8) 0.3526(18) 0.554(6) 0.0015 Uiso
C18 C 0.555(2) 0.3064(6) 0.4439(18) 0.0015 Uiso
H9 H 0.598(7) 0.3341(13) 0.415(5) 0.0015 Uiso
C19 C 0.554(2) 0.2535(7) 0.4096(17) 0.0015 Uiso
H10 H 0.591(9) 0.2461(15) 0.350(6) 0.0015 Uiso
C20 C 0.501(3) 0.2110(6) 0.4517(19) 0.0015 Uiso
H11 H 0.504(12) 0.1749(18) 0.424(8) 0.0015 Uiso
Cu3 Cu 0.4908(6) 0.04447(15) 0.5540(4) 0.0015 Uiso
Cu5 Cu 0.0092(6) 0.54447(15) 0.5540(4) 0.0015 Uiso
O8 O 0.6498(10) 0.5085(3) 0.9204(17) 0.0015 Uiso
O9 O 0.3795(12) 0.5716(6) 0.9968(10) 0.0015 Uiso
O10 O 0.5569(11) 0.6228(4) 0.8837(10) 0.0015 Uiso
Cu2 Cu 0.9908(6) 0.45553(15) 0.4460(4) 0.0015 Uiso
O1_2 O 0.062(2) 0.4876(5) 0.3305(10) 0.0015 Uiso
O2_2 O 0.058(2) 0.5682(3) 0.4165(9) 0.0015 Uiso
C1_2 C 0.0814(12) 0.5388(3) 0.3412(9) 0.0015 Uiso
C2_2 C 0.1304(11) 0.5680(4) 0.2544(10) 0.0015 Uiso
C3_2 C 0.2109(16) 0.5422(5) 0.2059(14) 0.0015 Uiso
H1_2 H 0.233(6) 0.506(2) 0.224(6) 0.0015 Uiso
C4_2 C 0.2626(11) 0.5722(3) 0.1322(9) 0.0015 Uiso
C5_2 C 0.2378(17) 0.6263(4) 0.1116(17) 0.0015 Uiso
H2_2 H 0.275(6) 0.6458(16) 0.061(6) 0.0015 Uiso
C6_2 C 0.1558(9) 0.6526(3) 0.1606(9) 0.0015 Uiso
C7_2 C 0.1021(14) 0.6207(5) 0.2283(16) 0.0015 Uiso
H3_2 H 0.043(9) 0.637(3) 0.259(11) 0.0015 Uiso
C8_2 C 0.3384(6) 0.5431(4) 0.0658(9) 0.0015 Uiso
O3_2 O 0.3502(10) 0.4915(3) 0.0796(17) 0.0015 Uiso
N1_2 N 0.1356(9) 0.7087(2) 0.1492(8) 0.0015 Uiso
C9_2 C 0.185(2) 0.7495(3) 0.2083(13) 0.0015 Uiso
C10_2 C 0.1828(11) 0.8054(3) 0.1942(9) 0.0015 Uiso
S1_2 S 0.1287(7) 0.8339(2) 0.0859(7) 0.0015 Uiso
O5_2 O 0.0569(11) 0.8772(4) 0.1163(10) 0.0015 Uiso
O6_2 O 0.2116(9) 0.8490(5) 0.0187(11) 0.0015 Uiso
C11_2 C 0.0615(14) 0.7785(3) 0.0364(13) 0.0015 Uiso
C12_2 C 0.0685(16) 0.7224(3) 0.0706(15) 0.0015 Uiso
C13_2 C 0.236(2) 0.8442(4) 0.2551(16) 0.0015 Uiso
H4_2 H 0.232(9) 0.8828(6) 0.242(6) 0.0015 Uiso
C14_2 C 0.290(3) 0.8238(6) 0.336(2) 0.0015 Uiso
H5_2 H 0.330(8) 0.8476(10) 0.377(6) 0.0015 Uiso
C15_2 C 0.289(2) 0.7685(7) 0.3524(17) 0.0015 Uiso
H6_2 H 0.330(9) 0.7547(10) 0.405(7) 0.0015 Uiso
C16_2 C 0.236(3) 0.7304(5) 0.2951(16) 0.0015 Uiso
H7_2 H 0.236(12) 0.6923(12) 0.312(8) 0.0015 Uiso
C17_2 C 0.0046(17) 0.6832(4) 0.0246(15) 0.0015 Uiso
H8_2 H 0.001(8) 0.6474(18) 0.054(6) 0.0015 Uiso
Cu3_2 Cu 0.0092(6) 0.95553(15) 0.0540(4) 0.0015 Uiso
O7_2 O 0.942(2) 0.4318(3) 0.5835(9) 0.0015 Uiso
O8_2 O 0.8502(10) 0.4915(3) 0.4204(17) 0.0015 Uiso
O10_2 O 0.9431(11) 0.3772(4) 0.3837(10) 0.0015 Uiso
O1_3 O 0.562(2) 0.0124(5) 0.6695(10) 0.0015 Uiso
O3_3 O 0.8502(10) 0.0085(3) 0.9204(17) 0.0015 Uiso
Cu5_2 Cu 0.9908(6) 0.04447(15) 0.9460(4) 0.0015 Uiso
O7_3 O 0.442(2) 0.0682(3) 0.4165(9) 0.0015 Uiso
O8_3 O 0.3502(10) 0.0085(3) 0.5796(17) 0.0015 Uiso
O9_2 O 0.6205(12) 0.0716(6) 0.5032(10) 0.0015 Uiso
O4_2 O 0.8795(12) 0.9284(6) 0.0032(10) 0.0015 Uiso
C18_2 C 0.445(2) 0.8064(6) 0.0561(18) 0.0015 Uiso
H9_2 H 0.402(7) 0.8341(13) 0.085(5) 0.0015 Uiso
C19_2 C 0.446(2) 0.7535(7) 0.0904(17) 0.0015 Uiso
H10_2 H 0.409(9) 0.7461(15) 0.150(6) 0.0015 Uiso
C20_2 C 0.499(3) 0.7110(6) 0.0483(19) 0.0015 Uiso
H11_2 H 0.496(12) 0.6749(18) 0.076(8) 0.0015 Uiso
O2_3 O 0.558(2) 0.9318(3) 0.5835(9) 0.0015 Uiso
C1_3 C 0.5814(12) 0.9612(3) 0.6588(9) 0.0015 Uiso
C2_3 C 0.6304(11) 0.9320(4) 0.7456(10) 0.0015 Uiso
C3_3 C 0.7109(16) 0.9578(5) 0.7941(14) 0.0015 Uiso
H1_3 H 0.733(6) 0.994(2) 0.776(6) 0.0015 Uiso
C4_3 C 0.7626(11) 0.9278(3) 0.8678(9) 0.0015 Uiso
C5_3 C 0.7378(17) 0.8737(4) 0.8884(17) 0.0015 Uiso
H2_3 H 0.775(6) 0.8542(16) 0.939(6) 0.0015 Uiso
C6_3 C 0.6558(9) 0.8474(3) 0.8394(9) 0.0015 Uiso
C7_3 C 0.6021(14) 0.8793(5) 0.7717(16) 0.0015 Uiso
H3_3 H 0.543(9) 0.863(3) 0.741(11) 0.0015 Uiso
C8_3 C 0.8384(6) 0.9569(4) 0.9342(9) 0.0015 Uiso
N1_3 N 0.6356(9) 0.7913(2) 0.8508(8) 0.0015 Uiso
C9_3 C 0.685(2) 0.7505(3) 0.7917(13) 0.0015 Uiso
C10_3 C 0.6828(11) 0.6946(3) 0.8058(9) 0.0015 Uiso
S1_3 S 0.6287(7) 0.6661(2) 0.9141(7) 0.0015 Uiso
O6_3 O 0.7116(9) 0.6510(5) 0.9813(11) 0.0015 Uiso
C11_3 C 0.5615(14) 0.7215(3) 0.9636(13) 0.0015 Uiso
C12_3 C 0.5685(16) 0.7776(3) 0.9294(15) 0.0015 Uiso
C13_3 C 0.736(2) 0.6558(4) 0.7449(16) 0.0015 Uiso
H4_3 H 0.732(9) 0.6172(6) 0.758(6) 0.0015 Uiso
C14_3 C 0.790(3) 0.6762(6) 0.664(2) 0.0015 Uiso
H5_3 H 0.830(8) 0.6524(10) 0.623(6) 0.0015 Uiso
C15_3 C 0.789(2) 0.7315(7) 0.6476(17) 0.0015 Uiso
H6_3 H 0.830(9) 0.7453(10) 0.595(7) 0.0015 Uiso
C16_3 C 0.736(3) 0.7696(5) 0.7049(16) 0.0015 Uiso
H7_3 H 0.736(12) 0.8077(12) 0.688(8) 0.0015 Uiso
C17_3 C 0.5046(17) 0.8168(4) 0.9754(15) 0.0015 Uiso
H8_3 H 0.501(8) 0.8526(18) 0.946(6) 0.0015 Uiso
Cu4_2 Cu 0.5092(6) 0.95553(15) 0.4460(4) 0.0015 Uiso
O8_4 O 0.1498(10) 0.9915(3) 0.0796(17) 0.0015 Uiso
O7_4 O 0.058(2) 0.9318(3) 0.9165(9) 0.0015 Uiso
O2_4 O 0.942(2) 0.0682(3) 0.0835(9) 0.0015 Uiso
C1_4 C 0.9186(12) 0.0388(3) 0.1588(9) 0.0015 Uiso
C2_4 C 0.8696(11) 0.0680(4) 0.2456(10) 0.0015 Uiso
C3_4 C 0.7891(16) 0.0422(5) 0.2941(14) 0.0015 Uiso
H1_4 H 0.767(6) 0.006(2) 0.276(6) 0.0015 Uiso
C4_4 C 0.7374(11) 0.0722(3) 0.3678(9) 0.0015 Uiso
C5_4 C 0.7622(17) 0.1263(4) 0.3884(17) 0.0015 Uiso
H2_4 H 0.725(6) 0.1458(16) 0.439(6) 0.0015 Uiso
C6_4 C 0.8442(9) 0.1526(3) 0.3394(9) 0.0015 Uiso
C7_4 C 0.8979(14) 0.1207(5) 0.2717(16) 0.0015 Uiso
H3_4 H 0.957(9) 0.137(3) 0.241(11) 0.0015 Uiso
C8_4 C 0.6616(6) 0.0431(4) 0.4342(9) 0.0015 Uiso
N1_4 N 0.8644(9) 0.2087(2) 0.3508(8) 0.0015 Uiso
C9_4 C 0.815(2) 0.2495(3) 0.2917(13) 0.0015 Uiso
C10_4 C 0.8172(11) 0.3054(3) 0.3058(9) 0.0015 Uiso
S1_4 S 0.8713(7) 0.3339(2) 0.4141(7) 0.0015 Uiso
O6_4 O 0.7884(9) 0.3490(5) 0.4813(11) 0.0015 Uiso
C11_4 C 0.9385(14) 0.2785(3) 0.4636(13) 0.0015 Uiso
C12_4 C 0.9315(16) 0.2224(3) 0.4294(15) 0.0015 Uiso
C13_4 C 0.764(2) 0.3442(4) 0.2449(16) 0.0015 Uiso
H4_4 H 0.768(9) 0.3828(6) 0.258(6) 0.0015 Uiso
C14_4 C 0.710(3) 0.3238(6) 0.164(2) 0.0015 Uiso
H5_4 H 0.670(8) 0.3476(10) 0.123(6) 0.0015 Uiso
C15_4 C 0.711(2) 0.2685(7) 0.1476(17) 0.0015 Uiso
H6_4 H 0.670(9) 0.2547(10) 0.095(7) 0.0015 Uiso
C16_4 C 0.764(3) 0.2304(5) 0.2049(16) 0.0015 Uiso
H7_4 H 0.764(12) 0.1923(12) 0.188(8) 0.0015 Uiso
C17_4 C 0.9954(17) 0.1832(4) 0.4754(15) 0.0015 Uiso
H8_4 H 0.999(8) 0.1474(18) 0.446(6) 0.0015 Uiso
O1_4 O 0.938(2) 0.9876(5) 0.1695(10) 0.0015 Uiso
O3_4 O 0.6498(10) 0.9915(3) 0.4204(17) 0.0015 Uiso
O1_5 O 0.562(2) 0.4876(5) 0.1695(10) 0.0015 Uiso
C1_5 C 0.5814(12) 0.5388(3) 0.1588(9) 0.0015 Uiso
C2_5 C 0.6304(11) 0.5680(4) 0.2456(10) 0.0015 Uiso
C3_5 C 0.7109(16) 0.5422(5) 0.2941(14) 0.0015 Uiso
H1_5 H 0.733(6) 0.506(2) 0.276(6) 0.0015 Uiso
C4_5 C 0.7626(11) 0.5722(3) 0.3678(9) 0.0015 Uiso
C5_5 C 0.7378(17) 0.6263(4) 0.3884(17) 0.0015 Uiso
H2_5 H 0.775(6) 0.6458(16) 0.439(6) 0.0015 Uiso
C6_5 C 0.6558(9) 0.6526(3) 0.3394(9) 0.0015 Uiso
C7_5 C 0.6021(14) 0.6207(5) 0.2717(16) 0.0015 Uiso
H3_5 H 0.543(9) 0.637(3) 0.241(11) 0.0015 Uiso
C8_5 C 0.8384(6) 0.5431(4) 0.4342(9) 0.0015 Uiso
O4_3 O 0.8795(12) 0.5716(6) 0.5032(10) 0.0015 Uiso
N1_5 N 0.6356(9) 0.7087(2) 0.3508(8) 0.0015 Uiso
C9_5 C 0.685(2) 0.7495(3) 0.2917(13) 0.0015 Uiso
C10_5 C 0.6828(11) 0.8054(3) 0.3058(9) 0.0015 Uiso
S1_5 S 0.6287(7) 0.8339(2) 0.4141(7) 0.0015 Uiso
O5_3 O 0.5569(11) 0.8772(4) 0.3837(10) 0.0015 Uiso
O6_5 O 0.7116(9) 0.8490(5) 0.4813(11) 0.0015 Uiso
C11_5 C 0.5615(14) 0.7785(3) 0.4636(13) 0.0015 Uiso
C12_5 C 0.5685(16) 0.7224(3) 0.4294(15) 0.0015 Uiso
C13_5 C 0.736(2) 0.8442(4) 0.2449(16) 0.0015 Uiso
H4_5 H 0.732(9) 0.8828(6) 0.258(6) 0.0015 Uiso
C14_5 C 0.790(3) 0.8238(6) 0.164(2) 0.0015 Uiso
H5_5 H 0.830(8) 0.8476(10) 0.123(6) 0.0015 Uiso
C15_5 C 0.789(2) 0.7685(7) 0.1476(17) 0.0015 Uiso
H6_5 H 0.830(9) 0.7547(10) 0.095(7) 0.0015 Uiso
C16_5 C 0.736(3) 0.7304(5) 0.2049(16) 0.0015 Uiso
H7_5 H 0.736(12) 0.6923(12) 0.188(8) 0.0015 Uiso
C17_5 C 0.5046(17) 0.6832(4) 0.4754(15) 0.0015 Uiso
H8_5 H 0.501(8) 0.6474(18) 0.446(6) 0.0015 Uiso
C18_3 C 0.445(2) 0.6936(6) 0.5561(18) 0.0015 Uiso
H9_3 H 0.402(7) 0.6659(13) 0.585(5) 0.0015 Uiso
C19_3 C 0.446(2) 0.7465(7) 0.5904(17) 0.0015 Uiso
H10_3 H 0.409(9) 0.7539(15) 0.650(6) 0.0015 Uiso
C20_3 C 0.499(3) 0.7890(6) 0.5483(19) 0.0015 Uiso
H11_3 H 0.496(12) 0.8251(18) 0.576(8) 0.0015 Uiso
O9_3 O 0.6205(12) 0.4284(6) 0.0032(10) 0.0015 Uiso
O10_3 O 0.4431(11) 0.3772(4) 0.1163(10) 0.0015 Uiso
O10_4 O 0.0569(11) 0.6228(4) 0.6163(10) 0.0015 Uiso
O1_6 O 0.938(2) 0.5124(5) 0.6695(10) 0.0015 Uiso
C1_6 C 0.9186(12) 0.4612(3) 0.6588(9) 0.0015 Uiso
C2_6 C 0.8696(11) 0.4320(4) 0.7456(10) 0.0015 Uiso
C3_6 C 0.7891(16) 0.4578(5) 0.7941(14) 0.0015 Uiso
H1_6 H 0.767(6) 0.494(2) 0.776(6) 0.0015 Uiso
C4_6 C 0.7374(11) 0.4278(3) 0.8678(9) 0.0015 Uiso
C5_6 C 0.7622(17) 0.3737(4) 0.8884(17) 0.0015 Uiso
H2_6 H 0.725(6) 0.3542(16) 0.939(6) 0.0015 Uiso
C6_6 C 0.8442(9) 0.3474(3) 0.8394(9) 0.0015 Uiso
C7_6 C 0.8979(14) 0.3793(5) 0.7717(16) 0.0015 Uiso
H3_6 H 0.957(9) 0.363(3) 0.741(11) 0.0015 Uiso
C8_6 C 0.6616(6) 0.4569(4) 0.9342(9) 0.0015 Uiso
N1_6 N 0.8644(9) 0.2913(2) 0.8508(8) 0.0015 Uiso
C9_6 C 0.815(2) 0.2505(3) 0.7917(13) 0.0015 Uiso
C10_6 C 0.8172(11) 0.1946(3) 0.8058(9) 0.0015 Uiso
S1_6 S 0.8713(7) 0.1661(2) 0.9141(7) 0.0015 Uiso
O5_4 O 0.9431(11) 0.1228(4) 0.8837(10) 0.0015 Uiso
O6_6 O 0.7884(9) 0.1510(5) 0.9813(11) 0.0015 Uiso
C11_6 C 0.9385(14) 0.2215(3) 0.9636(13) 0.0015 Uiso
C12_6 C 0.9315(16) 0.2776(3) 0.9294(15) 0.0015 Uiso
C13_6 C 0.764(2) 0.1558(4) 0.7449(16) 0.0015 Uiso
H4_6 H 0.768(9) 0.1172(6) 0.758(6) 0.0015 Uiso
C14_6 C 0.710(3) 0.1762(6) 0.664(2) 0.0015 Uiso
H5_6 H 0.670(8) 0.1524(10) 0.623(6) 0.0015 Uiso
C15_6 C 0.711(2) 0.2315(7) 0.6476(17) 0.0015 Uiso
H6_6 H 0.670(9) 0.2453(10) 0.595(7) 0.0015 Uiso
C16_6 C 0.764(3) 0.2696(5) 0.7049(16) 0.0015 Uiso
H7_6 H 0.764(12) 0.3077(12) 0.688(8) 0.0015 Uiso
C17_6 C 0.9954(17) 0.3168(4) 0.9754(15) 0.0015 Uiso
H8_6 H 0.999(8) 0.3526(18) 0.946(6) 0.0015 Uiso
C1_7 C 0.4186(12) 0.0388(3) 0.3412(9) 0.0015 Uiso
C2_7 C 0.3696(11) 0.0680(4) 0.2544(10) 0.0015 Uiso
C3_7 C 0.2891(16) 0.0422(5) 0.2059(14) 0.0015 Uiso
H1_7 H 0.267(6) 0.006(2) 0.224(6) 0.0015 Uiso
C4_7 C 0.2374(11) 0.0722(3) 0.1322(9) 0.0015 Uiso
C5_7 C 0.2622(17) 0.1263(4) 0.1116(17) 0.0015 Uiso
H2_7 H 0.225(6) 0.1458(16) 0.061(6) 0.0015 Uiso
C6_7 C 0.3442(9) 0.1526(3) 0.1606(9) 0.0015 Uiso
C7_7 C 0.3979(14) 0.1207(5) 0.2283(16) 0.0015 Uiso
H3_7 H 0.457(9) 0.137(3) 0.259(11) 0.0015 Uiso
C8_7 C 0.1616(6) 0.0431(4) 0.0658(9) 0.0015 Uiso
N1_7 N 0.3644(9) 0.2087(2) 0.1492(8) 0.0015 Uiso
C9_7 C 0.315(2) 0.2495(3) 0.2083(13) 0.0015 Uiso
C10_7 C 0.3172(11) 0.3054(3) 0.1942(9) 0.0015 Uiso
S1_7 S 0.3713(7) 0.3339(2) 0.0859(7) 0.0015 Uiso
O6_7 O 0.2884(9) 0.3490(5) 0.0187(11) 0.0015 Uiso
C11_7 C 0.4385(14) 0.2785(3) 0.0364(13) 0.0015 Uiso
C12_7 C 0.4315(16) 0.2224(3) 0.0706(15) 0.0015 Uiso
C13_7 C 0.264(2) 0.3442(4) 0.2551(16) 0.0015 Uiso
H4_7 H 0.268(9) 0.3828(6) 0.242(6) 0.0015 Uiso
C14_7 C 0.210(3) 0.3238(6) 0.336(2) 0.0015 Uiso
H5_7 H 0.170(8) 0.3476(10) 0.377(6) 0.0015 Uiso
C15_7 C 0.211(2) 0.2685(7) 0.3524(17) 0.0015 Uiso
H6_7 H 0.170(9) 0.2547(10) 0.405(7) 0.0015 Uiso
C16_7 C 0.264(3) 0.2304(5) 0.2951(16) 0.0015 Uiso
H7_7 H 0.264(12) 0.1923(12) 0.312(8) 0.0015 Uiso
C17_7 C 0.4954(17) 0.1832(4) 0.0246(15) 0.0015 Uiso
H8_7 H 0.499(8) 0.1474(18) 0.054(6) 0.0015 Uiso
O4_4 O 0.1205(12) 0.0716(6) 0.9968(10) 0.0015 Uiso
C18_4 C 0.555(2) 0.1936(6) 0.9439(18) 0.0015 Uiso
H9_4 H 0.598(7) 0.1659(13) 0.915(5) 0.0015 Uiso
C19_4 C 0.554(2) 0.2465(7) 0.9096(17) 0.0015 Uiso
H10_4 H 0.591(9) 0.2539(15) 0.850(6) 0.0015 Uiso
C20_4 C 0.501(3) 0.2890(6) 0.9517(19) 0.0015 Uiso
H11_4 H 0.504(12) 0.3251(18) 0.924(8) 0.0015 Uiso
O1_7 O 0.438(2) 0.9876(5) 0.3305(10) 0.0015 Uiso
O9_4 O 0.3795(12) 0.9284(6) 0.4968(10) 0.0015 Uiso
O1_8 O 0.062(2) 0.0124(5) 0.8305(10) 0.0015 Uiso
C1_8 C 0.0814(12) 0.9612(3) 0.8412(9) 0.0015 Uiso
C2_8 C 0.1304(11) 0.9320(4) 0.7544(10) 0.0015 Uiso
C3_8 C 0.2109(16) 0.9578(5) 0.7059(14) 0.0015 Uiso
H1_8 H 0.233(6) 0.994(2) 0.724(6) 0.0015 Uiso
C4_8 C 0.2626(11) 0.9278(3) 0.6322(9) 0.0015 Uiso
C5_8 C 0.2378(17) 0.8737(4) 0.6116(17) 0.0015 Uiso
H2_8 H 0.275(6) 0.8542(16) 0.561(6) 0.0015 Uiso
C6_8 C 0.1558(9) 0.8474(3) 0.6606(9) 0.0015 Uiso
C7_8 C 0.1021(14) 0.8793(5) 0.7283(16) 0.0015 Uiso
H3_8 H 0.043(9) 0.863(3) 0.759(11) 0.0015 Uiso
C8_8 C 0.3384(6) 0.9569(4) 0.5658(9) 0.0015 Uiso
N1_8 N 0.1356(9) 0.7913(2) 0.6492(8) 0.0015 Uiso
C9_8 C 0.185(2) 0.7505(3) 0.7083(13) 0.0015 Uiso
C10_8 C 0.1828(11) 0.6946(3) 0.6942(9) 0.0015 Uiso
S1_8 S 0.1287(7) 0.6661(2) 0.5859(7) 0.0015 Uiso
O6_8 O 0.2116(9) 0.6510(5) 0.5187(11) 0.0015 Uiso
C11_8 C 0.0615(14) 0.7215(3) 0.5364(13) 0.0015 Uiso
C12_8 C 0.0685(16) 0.7776(3) 0.5706(15) 0.0015 Uiso
C13_8 C 0.236(2) 0.6558(4) 0.7551(16) 0.0015 Uiso
H4_8 H 0.232(9) 0.6172(6) 0.742(6) 0.0015 Uiso
C14_8 C 0.290(3) 0.6762(6) 0.836(2) 0.0015 Uiso
H5_8 H 0.330(8) 0.6524(10) 0.877(6) 0.0015 Uiso
C15_8 C 0.289(2) 0.7315(7) 0.8524(17) 0.0015 Uiso
H6_8 H 0.330(9) 0.7453(10) 0.905(7) 0.0015 Uiso
C16_8 C 0.236(3) 0.7696(5) 0.7951(16) 0.0015 Uiso
H7_8 H 0.236(12) 0.8077(12) 0.812(8) 0.0015 Uiso
C17_8 C 0.0046(17) 0.8168(4) 0.5246(15) 0.0015 Uiso
H8_8 H 0.001(8) 0.8526(18) 0.554(6) 0.0015 Uiso
C18_5 C 0.945(2) 0.6936(6) 0.9439(18) 0.0015 Uiso
H9_5 H 0.902(7) 0.6659(13) 0.915(5) 0.0015 Uiso
C19_5 C 0.946(2) 0.7465(7) 0.9096(17) 0.0015 Uiso
H10_5 H 0.909(9) 0.7539(15) 0.850(6) 0.0015 Uiso
C20_5 C 0.999(3) 0.7890(6) 0.9517(19) 0.0015 Uiso
H11_5 H 0.996(12) 0.8251(18) 0.924(8) 0.0015 Uiso
C18_6 C 0.055(2) 0.1936(6) 0.5561(18) 0.0015 Uiso
H9_6 H 0.098(7) 0.1659(13) 0.585(5) 0.0015 Uiso
C19_6 C 0.054(2) 0.2465(7) 0.5904(17) 0.0015 Uiso
H10_6 H 0.091(9) 0.2539(15) 0.650(6) 0.0015 Uiso
C20_6 C 0.001(3) 0.2890(6) 0.5483(19) 0.0015 Uiso
H11_6 H 0.004(12) 0.3251(18) 0.576(8) 0.0015 Uiso
C18_7 C 0.055(2) 0.3064(6) 0.0561(18) 0.0015 Uiso
H9_7 H 0.098(7) 0.3341(13) 0.085(5) 0.0015 Uiso
C19_7 C 0.054(2) 0.2535(7) 0.0904(17) 0.0015 Uiso
H10_7 H 0.091(9) 0.2461(15) 0.150(6) 0.0015 Uiso
C20_7 C 0.001(3) 0.2110(6) 0.0483(19) 0.0015 Uiso
H11_7 H 0.004(12) 0.1749(18) 0.076(8) 0.0015 Uiso
C18_8 C 0.945(2) 0.8064(6) 0.4439(18) 0.0015 Uiso
H9_8 H 0.902(7) 0.8341(13) 0.415(5) 0.0015 Uiso
C19_8 C 0.946(2) 0.7535(7) 0.4096(17) 0.0015 Uiso
H10_8 H 0.909(9) 0.7461(15) 0.350(6) 0.0015 Uiso
C20_8 C 0.999(3) 0.7110(6) 0.4517(19) 0.0015 Uiso
H11_8 H 0.996(12) 0.6749(18) 0.424(8) 0.0015 Uiso
loop_
_geom_bond_atom_site_label_1
_geom_bond_atom_site_label_2
_geom_bond_site_symmetry_1
_geom_bond_site_symmetry_2
Cu1 O1 1_555 1_555
O1 C1 1_555 1_555
O2 C1 1_555 1_555
C1 C2 1_555 1_555
C2 C3 1_555 1_555
C3 H1 1_555 1_555
C4 C3 1_555 1_555
C5 C4 1_555 1_555
H2 C5 1_555 1_555
C6 C5 1_555 1_555
C7 C2 1_555 1_555
H3 C7 1_555 1_555
C8 C4 1_555 1_555
O3 C8 1_555 1_555
O4 C8 1_555 1_555
N1 C6 1_555 1_555
C9 N1 1_555 1_555
C10 C9 1_555 1_555
S1 C10 1_555 1_555
O5 S1 1_555 1_555
O6 S1 1_555 1_555
C11 S1 1_555 1_555
C12 N1 1_555 1_555
C13 C10 1_555 1_555
H4 C13 1_555 1_555
C14 C13 1_555 1_555
H5 C14 1_555 1_555
C15 C14 1_555 1_555
H6 C15 1_555 1_555
C16 C9 1_555 1_555
H7 C16 1_555 1_555
C17 C12 1_555 1_555
H8 C17 1_555 1_555
C18 C17 1_555 1_555
H9 C18 1_555 1_555
C19 C18 1_555 1_555
H10 C19 1_555 1_555
C20 C11 1_555 1_555
H11 C20 1_555 1_555
Cu3 O5 1_555 1_555
Cu5 O3 1_555 1_555
O8 Cu1 1_555 1_555
O9 Cu1 1_555 1_555
O10 Cu1 1_555 1_555
C6 C7 1_555 1_555
C11 C12 1_555 1_555
C15 C16 1_555 1_555
C19 C20 1_555 1_555
O1_2 C1_2 1_555 1_555
O2_2 C1_2 1_555 1_555
C1_2 C2_2 1_555 1_555
C2_2 C3_2 1_555 1_555
C3_2 H1_2 1_555 1_555
C4_2 C3_2 1_555 1_555
C5_2 C4_2 1_555 1_555
H2_2 C5_2 1_555 1_555
C6_2 C5_2 1_555 1_555
C7_2 C2_2 1_555 1_555
H3_2 C7_2 1_555 1_555
C8_2 C4_2 1_555 1_555
O3_2 C8_2 1_555 1_555
N1_2 C6_2 1_555 1_555
C9_2 N1_2 1_555 1_555
C10_2 C9_2 1_555 1_555
S1_2 C10_2 1_555 1_555
O5_2 S1_2 1_555 1_555
O6_2 S1_2 1_555 1_555
C11_2 S1_2 1_555 1_555
C12_2 N1_2 1_555 1_555
C13_2 C10_2 1_555 1_555
H4_2 C13_2 1_555 1_555
C14_2 C13_2 1_555 1_555
H5_2 C14_2 1_555 1_555
C15_2 C14_2 1_555 1_555
H6_2 C15_2 1_555 1_555
C16_2 C9_2 1_555 1_555
H7_2 C16_2 1_555 1_555
C17_2 C12_2 1_555 1_555
H8_2 C17_2 1_555 1_555
Cu3_2 O5_2 1_555 1_555
Cu5 O2_2 1_555 1_555
Cu4 O3_2 1_555 1_555
C6_2 C7_2 1_555 1_555
C11_2 C12_2 1_555 1_555
C15_2 C16_2 1_555 1_555
O7_2 Cu2 1_555 1_555
O8_2 Cu2 1_555 1_555
O10_2 Cu2 1_555 1_555
Cu3 O1_3 1_555 1_555
Cu5_2 O3_3 1_555 1_555
O7_3 Cu3 1_555 1_555
O8_3 Cu3 1_555 1_555
O9_2 Cu3 1_555 1_555
H9_2 C18_2 1_555 1_555
C19_2 C18_2 1_555 1_555
H10_2 C19_2 1_555 1_555
H11_2 C20_2 1_555 1_555
C19_2 C20_2 1_555 1_555
O2_3 C1_3 1_555 1_555
C1_3 C2_3 1_555 1_555
C2_3 C3_3 1_555 1_555
C3_3 H1_3 1_555 1_555
C4_3 C3_3 1_555 1_555
C5_3 C4_3 1_555 1_555
H2_3 C5_3 1_555 1_555
C6_3 C5_3 1_555 1_555
C7_3 C2_3 1_555 1_555
H3_3 C7_3 1_555 1_555
C8_3 C4_3 1_555 1_555
N1_3 C6_3 1_555 1_555
C9_3 N1_3 1_555 1_555
C10_3 C9_3 1_555 1_555
S1_3 C10_3 1_555 1_555
O10 S1_3 1_555 1_555
O6_3 S1_3 1_555 1_555
C11_3 S1_3 1_555 1_555
C12_3 N1_3 1_555 1_555
C13_3 C10_3 1_555 1_555
H4_3 C13_3 1_555 1_555
C14_3 C13_3 1_555 1_555
H5_3 C14_3 1_555 1_555
C15_3 C14_3 1_555 1_555
H6_3 C15_3 1_555 1_555
C16_3 C9_3 1_555 1_555
H7_3 C16_3 1_555 1_555
C17_3 C12_3 1_555 1_555
H8_3 C17_3 1_555 1_555
Cu4_2 O2_3 1_555 1_555
C6_3 C7_3 1_555 1_555
C11_3 C12_3 1_555 1_555
C15_3 C16_3 1_555 1_555
O8_4 Cu3_2 1_555 1_555
O2_4 C1_4 1_555 1_555
C1_4 C2_4 1_555 1_555
C2_4 C3_4 1_555 1_555
C3_4 H1_4 1_555 1_555
C4_4 C3_4 1_555 1_555
C5_4 C4_4 1_555 1_555
H2_4 C5_4 1_555 1_555
C6_4 C5_4 1_555 1_555
C7_4 C2_4 1_555 1_555
H3_4 C7_4 1_555 1_555
C8_4 C4_4 1_555 1_555
O9_2 C8_4 1_555 1_555
N1_4 C6_4 1_555 1_555
C9_4 N1_4 1_555 1_555
C10_4 C9_4 1_555 1_555
S1_4 C10_4 1_555 1_555
O10_2 S1_4 1_555 1_555
O6_4 S1_4 1_555 1_555
C11_4 S1_4 1_555 1_555
C12_4 N1_4 1_555 1_555
C13_4 C10_4 1_555 1_555
H4_4 C13_4 1_555 1_555
C14_4 C13_4 1_555 1_555
H5_4 C14_4 1_555 1_555
C15_4 C14_4 1_555 1_555
H6_4 C15_4 1_555 1_555
C16_4 C9_4 1_555 1_555
H7_4 C16_4 1_555 1_555
C17_4 C12_4 1_555 1_555
H8_4 C17_4 1_555 1_555
C6_4 C7_4 1_555 1_555
C11_4 C12_4 1_555 1_555
C15_4 C16_4 1_555 1_555
Cu4_2 O3_4 1_555 1_555
Cu4 O1_5 1_555 1_555
O1_5 C1_5 1_555 1_555
O7 C1_5 1_555 1_555
C1_5 C2_5 1_555 1_555
C2_5 C3_5 1_555 1_555
C3_5 H1_5 1_555 1_555
C4_5 C3_5 1_555 1_555
C5_5 C4_5 1_555 1_555
H2_5 C5_5 1_555 1_555
C6_5 C5_5 1_555 1_555
C7_5 C2_5 1_555 1_555
H3_5 C7_5 1_555 1_555
C8_5 C4_5 1_555 1_555
O8_2 C8_5 1_555 1_555
O4_3 C8_5 1_555 1_555
N1_5 C6_5 1_555 1_555
C9_5 N1_5 1_555 1_555
C10_5 C9_5 1_555 1_555
S1_5 C10_5 1_555 1_555
O5_3 S1_5 1_555 1_555
O6_5 S1_5 1_555 1_555
C11_5 S1_5 1_555 1_555
C12_5 N1_5 1_555 1_555
C13_5 C10_5 1_555 1_555
H4_5 C13_5 1_555 1_555
C14_5 C13_5 1_555 1_555
H5_5 C14_5 1_555 1_555
C15_5 C14_5 1_555 1_555
H6_5 C15_5 1_555 1_555
C16_5 C9_5 1_555 1_555
H7_5 C16_5 1_555 1_555
C17_5 C12_5 1_555 1_555
H8_5 C17_5 1_555 1_555
C18_3 C17_5 1_555 1_555
H9_3 C18_3 1_555 1_555
C19_3 C18_3 1_555 1_555
H10_3 C19_3 1_555 1_555
C20_3 C11_5 1_555 1_555
H11_3 C20_3 1_555 1_555
Cu4_2 O5_3 1_555 1_555
O9_3 Cu4 1_555 1_555
O10_3 Cu4 1_555 1_555
C6_5 C7_5 1_555 1_555
C11_5 C12_5 1_555 1_555
C15_5 C16_5 1_555 1_555
C19_3 C20_3 1_555 1_555
O10_4 Cu5 1_555 1_555
O1_6 C1_6 1_555 1_555
O7_2 C1_6 1_555 1_555
C1_6 C2_6 1_555 1_555
C2_6 C3_6 1_555 1_555
C3_6 H1_6 1_555 1_555
C4_6 C3_6 1_555 1_555
C5_6 C4_6 1_555 1_555
H2_6 C5_6 1_555 1_555
C6_6 C5_6 1_555 1_555
C7_6 C2_6 1_555 1_555
H3_6 C7_6 1_555 1_555
C8_6 C4_6 1_555 1_555
O8 C8_6 1_555 1_555
N1_6 C6_6 1_555 1_555
C9_6 N1_6 1_555 1_555
C10_6 C9_6 1_555 1_555
S1_6 C10_6 1_555 1_555
O5_4 S1_6 1_555 1_555
O6_6 S1_6 1_555 1_555
C11_6 S1_6 1_555 1_555
C12_6 N1_6 1_555 1_555
C13_6 C10_6 1_555 1_555
H4_6 C13_6 1_555 1_555
C14_6 C13_6 1_555 1_555
H5_6 C14_6 1_555 1_555
C15_6 C14_6 1_555 1_555
H6_6 C15_6 1_555 1_555
C16_6 C9_6 1_555 1_555
H7_6 C16_6 1_555 1_555
C17_6 C12_6 1_555 1_555
H8_6 C17_6 1_555 1_555
Cu5_2 O5_4 1_555 1_555
C6_6 C7_6 1_555 1_555
C11_6 C12_6 1_555 1_555
C15_6 C16_6 1_555 1_555
O7_3 C1_7 1_555 1_555
C1_7 C2_7 1_555 1_555
C2_7 C3_7 1_555 1_555
C3_7 H1_7 1_555 1_555
C4_7 C3_7 1_555 1_555
C5_7 C4_7 1_555 1_555
H2_7 C5_7 1_555 1_555
C6_7 C5_7 1_555 1_555
C7_7 C2_7 1_555 1_555
H3_7 C7_7 1_555 1_555
C8_7 C4_7 1_555 1_555
N1_7 C6_7 1_555 1_555
C9_7 N1_7 1_555 1_555
C10_7 C9_7 1_555 1_555
S1_7 C10_7 1_555 1_555
O10_3 S1_7 1_555 1_555
O6_7 S1_7 1_555 1_555
C11_7 S1_7 1_555 1_555
C12_7 N1_7 1_555 1_555
C13_7 C10_7 1_555 1_555
H4_7 C13_7 1_555 1_555
C14_7 C13_7 1_555 1_555
H5_7 C14_7 1_555 1_555
C15_7 C14_7 1_555 1_555
H6_7 C15_7 1_555 1_555
C16_7 C9_7 1_555 1_555
H7_7 C16_7 1_555 1_555
C17_7 C12_7 1_555 1_555
H8_7 C17_7 1_555 1_555
C6_7 C7_7 1_555 1_555
C11_7 C12_7 1_555 1_555
C15_7 C16_7 1_555 1_555
H9_4 C18_4 1_555 1_555
C19_4 C18_4 1_555 1_555
H10_4 C19_4 1_555 1_555
H11_4 C20_4 1_555 1_555
C19_4 C20_4 1_555 1_555
Cu4_2 O1_7 1_555 1_555
O9_4 Cu4_2 1_555 1_555
O7_4 C1_8 1_555 1_555
C1_8 C2_8 1_555 1_555
C2_8 C3_8 1_555 1_555
C3_8 H1_8 1_555 1_555
C4_8 C3_8 1_555 1_555
C5_8 C4_8 1_555 1_555
H2_8 C5_8 1_555 1_555
C6_8 C5_8 1_555 1_555
C7_8 C2_8 1_555 1_555
H3_8 C7_8 1_555 1_555
C8_8 C4_8 1_555 1_555
O9_4 C8_8 1_555 1_555
N1_8 C6_8 1_555 1_555
C9_8 N1_8 1_555 1_555
C10_8 C9_8 1_555 1_555
S1_8 C10_8 1_555 1_555
O10_4 S1_8 1_555 1_555
O6_8 S1_8 1_555 1_555
C11_8 S1_8 1_555 1_555
C12_8 N1_8 1_555 1_555
C13_8 C10_8 1_555 1_555
H4_8 C13_8 1_555 1_555
C14_8 C13_8 1_555 1_555
H5_8 C14_8 1_555 1_555
C15_8 C14_8 1_555 1_555
H6_8 C15_8 1_555 1_555
C16_8 C9_8 1_555 1_555
H7_8 C16_8 1_555 1_555
C17_8 C12_8 1_555 1_555
H8_8 C17_8 1_555 1_555
C6_8 C7_8 1_555 1_555
C11_8 C12_8 1_555 1_555
C15_8 C16_8 1_555 1_555
H9_5 C18_5 1_555 1_555
C19_5 C18_5 1_555 1_555
H10_5 C19_5 1_555 1_555
H11_5 C20_5 1_555 1_555
C19_5 C20_5 1_555 1_555
H9_6 C18_6 1_555 1_555
C19_6 C18_6 1_555 1_555
H10_6 C19_6 1_555 1_555
H11_6 C20_6 1_555 1_555
C19_6 C20_6 1_555 1_555
H9_7 C18_7 1_555 1_555
C19_7 C18_7 1_555 1_555
H10_7 C19_7 1_555 1_555
H11_7 C20_7 1_555 1_555
C19_7 C20_7 1_555 1_555
H9_8 C18_8 1_555 1_555
C19_8 C18_8 1_555 1_555
H10_8 C19_8 1_555 1_555
H11_8 C20_8 1_555 1_555
C19_8 C20_8 1_555 1_555

#END
