
###############################################################################
#
# This file contains modified crystal structure data generated from the
# MOF subset of the Cambridge Structural Database (CSD) v543 
# hosted by the Cambridge Crystallographic Data Centre (CCDC).
#
# This work is licensed under the Creative Commons
# Attribution-NonCommercial-ShareAlike 4.0 International License.
# To view a copy of this license, visit
# http://creativecommons.org/licenses/by-nc-sa/4.0/
# or send a letter to
# Creative Commons, PO Box 1866, Mountain View, CA 94042, USA.
#
# CIF created using the CSD Python API on 29 September 2022
# The structure has been converted into the P1 space group
# The structure has a 3D framework
# The original CSD entry GIWBOE is in the orthorhombic crystal system
# The framework has been calculated to contain at least 10.0% void space
# The void calculation uses a probe of radius 1.32A, grid spacing 0.4
#
###############################################################################

data_GIWBOE
_chemical_formula_moiety         '(C336 H240 Ag8 F48 Ga8 N72 P8)n'
_symmetry_cell_setting           triclinic
_symmetry_space_group_name_H-M   'P 1'
_symmetry_Int_Tables_number      1
_space_group_name_Hall           'P 1'
loop_
_symmetry_equiv_pos_site_id
_symmetry_equiv_pos_as_xyz
1 x,y,z
_cell_length_a                   27.172(18)
_cell_length_b                   12.563(8)
_cell_length_c                   33.70(2)
_cell_angle_alpha                90
_cell_angle_beta                 90
_cell_angle_gamma                90
_cell_volume                     11503.9
loop_
_atom_site_label
_atom_site_type_symbol
_atom_site_fract_x
_atom_site_fract_y
_atom_site_fract_z
C29 C 0.0047(2) 0.6779(4) 0.35762(16)
H21 H 0.0329 0.7228 0.3574
C37 C 0.0352(2) 0.2657(4) 0.41055(16)
H26 H 0.0679 0.2480 0.4180
N7 N 0.00511(14) 0.5767(3) 0.36955(12)
N8 N 0.02183(14) 0.3589(3) 0.39607(12)
Ga3 Ga 0.066351(19) 0.48820(4) 0.384897(16)
Ag1 Ag 0.719690(17) 0.26191(5) 0.363267(13)
Ga1 Ga 0.566351(19) 0.01180(4) 0.615103(16)
C4 C 0.58614(18) 0.0097(4) 0.52430(15)
C5 C 0.62412(17) 0.0848(4) 0.52736(14)
C6 C 0.64417(18) 0.1262(4) 0.56276(15)
C7 C 0.6830(2) 0.1984(5) 0.5666(2)
H4 H 0.7005 0.2315 0.5455
C8 C 0.6910(3) 0.2124(6) 0.6057(2)
H5 H 0.7164 0.2536 0.6174
C9 C 0.6544(2) 0.1545(6) 0.62603(19)
H6 H 0.6500 0.1545 0.6540
C10 C 0.64523(19) 0.1246(4) 0.49020(15)
C11 C 0.69413(18) 0.0997(5) 0.47942(16)
H7 H 0.7137 0.0555 0.4960
C12 C 0.7132(2) 0.1400(5) 0.44474(16)
H8 H 0.7459 0.1215 0.4375
C13 C 0.6417(2) 0.2293(4) 0.43030(17)
H9 H 0.6235 0.2759 0.4136
C14 C 0.6190(2) 0.1893(5) 0.46419(15)
H10 H 0.5855 0.2061 0.4696
C19 C 0.6252(2) 0.0845(5) 0.19829(15)
C20 C 0.63303(19) 0.1410(4) 0.16280(15)
C21 C 0.6639(2) 0.2295(5) 0.1570(2)
H14 H 0.6834 0.2636 0.1767
C22 C 0.6605(2) 0.2575(5) 0.1178(2)
H15 H 0.6770 0.3143 0.1048
C23 C 0.6278(2) 0.1853(5) 0.10108(16)
H16 H 0.6186 0.1856 0.0739
C24 C 0.6505(3) 0.1265(5) 0.23473(17)
C25 C 0.6383(3) 0.2241(6) 0.2491(2)
H17 H 0.6150 0.2673 0.2357
C26 C 0.6610(3) 0.2600(6) 0.2843(2)
H18 H 0.6527 0.3286 0.2941
C27 C 0.7057(3) 0.1066(7) 0.28978(18)
H19 H 0.7293 0.0655 0.3038
C28 C 0.6853(2) 0.0642(5) 0.25473(16)
C30 C 0.9577(2) 0.7098(5) 0.34551(19)
H22 H 0.9482 0.7783 0.3363
C31 C 0.9280(2) 0.6216(5) 0.34962(17)
H23 H 0.8939 0.6177 0.3435
C32 C 0.95729(18) 0.5384(4) 0.36445(15)
C33 C 0.94175(19) 0.4331(4) 0.37357(14)
C34 C 0.97104(18) 0.3515(4) 0.38913(14)
C35 C 0.9552(2) 0.2491(4) 0.40021(16)
H24 H 0.9226 0.2223 0.3986
C36 C 0.9952(2) 0.1962(5) 0.41349(17)
H25 H 0.9960 0.1251 0.4230
C38 C 0.8898(2) 0.4076(5) 0.36655(15)
C39 C 0.87634(19) 0.3348(4) 0.33781(14)
H27 H 0.9005 0.3030 0.3213
C40 C 0.82680(19) 0.3087(5) 0.33334(15)
H28 H 0.8180 0.2598 0.3131
C41 C 0.8045(2) 0.4219(5) 0.38289(17)
H29 H 0.7794 0.4542 0.3984
C42 C 0.85327(18) 0.4533(5) 0.38950(15)
H30 H 0.8610 0.5047 0.4092
N2 N 0.62736(15) 0.1004(3) 0.60069(12)
N3 N 0.68712(17) 0.2054(4) 0.42041(14)
N5 N 0.61116(14) 0.1162(3) 0.12724(11)
N6 N 0.6933(2) 0.2023(5) 0.30422(15)
N9 N 0.79112(15) 0.3491(4) 0.35607(12)
N10 N 0.57274(14) 0.0582(4) 0.67378(12)
N13 N 0.52183(14) 0.1411(3) 0.60393(12)
C1 C 0.52950(18) 0.8942(4) 0.54225(15)
H1 H 0.5074 0.8529 0.5577
C2 C 0.53464(19) 0.8865(5) 0.50075(16)
H2 H 0.5168 0.8401 0.4837
C3 C 0.56970(18) 0.9577(5) 0.48943(16)
H3 H 0.5810 0.9701 0.4632
C15 C 0.5509(2) 0.8575(5) 0.19050(17)
H11 H 0.5314 0.8073 0.1765
C16 C 0.5606(2) 0.8528(6) 0.23114(18)
H12 H 0.5492 0.8003 0.2492
C17 C 0.5892(2) 0.9372(5) 0.23962(17)
H13 H 0.6013 0.9560 0.2651
C18 C 0.59794(18) 0.9931(4) 0.20370(14)
H20 H 0.6948 0.9961 0.2451
N1 N 0.56028(14) 0.9680(4) 0.55682(12)
N4 N 0.57274(14) 0.9418(4) 0.17378(12)
Ga2 Ga 0.566351(19) 0.98820(4) 0.115103(16)
N11 N 0.61116(14) 0.8838(3) 0.62724(11)
N12 N 0.50511(14) 0.9233(3) 0.63045(12)
Ag1_2 Ag 0.219690(17) 0.23809(5) 0.636733(13)
C1_2 C 0.02950(18) 0.6058(4) 0.45775(15)
H1_2 H 0.0074 0.6471 0.4423
C2_2 C 0.03464(19) 0.6135(5) 0.49925(16)
H2_2 H 0.0168 0.6599 0.5163
C3_2 C 0.06970(18) 0.5423(5) 0.51057(16)
H3_2 H 0.0810 0.5299 0.5368
C4_2 C 0.08614(18) 0.4903(4) 0.47570(15)
C5_2 C 0.12412(17) 0.4152(4) 0.47264(14)
C6_2 C 0.14417(18) 0.3738(4) 0.43724(15)
C7_2 C 0.1830(2) 0.3016(5) 0.4334(2)
H4_2 H 0.2005 0.2685 0.4545
C8_2 C 0.1910(3) 0.2876(6) 0.3943(2)
H5_2 H 0.2164 0.2464 0.3826
C9_2 C 0.1544(2) 0.3455(6) 0.37397(19)
H6_2 H 0.1500 0.3455 0.3460
C10_2 C 0.14523(19) 0.3754(4) 0.50980(15)
C11_2 C 0.19413(18) 0.4003(5) 0.52058(16)
H7_2 H 0.2137 0.4445 0.5040
C12_2 C 0.2132(2) 0.3600(5) 0.55526(16)
H8_2 H 0.2459 0.3785 0.5625
C13_2 C 0.1417(2) 0.2707(4) 0.56970(17)
H9_2 H 0.1235 0.2241 0.5864
C14_2 C 0.1190(2) 0.3107(5) 0.53581(15)
H10_2 H 0.0855 0.2939 0.5304
C15_2 C 0.0509(2) 0.6425(5) 0.80950(17)
H11_2 H 0.0314 0.6927 0.8235
C16_2 C 0.0606(2) 0.6472(6) 0.76886(18)
H12_2 H 0.0492 0.6997 0.7508
C17_2 C 0.0892(2) 0.5628(5) 0.76038(17)
H13_2 H 0.1013 0.5440 0.7349
C18_2 C 0.09794(18) 0.5069(4) 0.79630(14)
C19_2 C 0.1252(2) 0.4155(5) 0.80171(15)
C20_2 C 0.13303(19) 0.3590(4) 0.83720(15)
C21_2 C 0.1639(2) 0.2705(5) 0.8430(2)
H14_2 H 0.1834 0.2364 0.8233
C22_2 C 0.1605(2) 0.2425(5) 0.8822(2)
H15_2 H 0.1770 0.1857 0.8952
C23_2 C 0.1278(2) 0.3147(5) 0.89892(16)
H16_2 H 0.1186 0.3144 0.9261
C24_2 C 0.1505(3) 0.3735(5) 0.76527(17)
C25_2 C 0.1383(3) 0.2759(6) 0.7509(2)
H17_2 H 0.1150 0.2327 0.7643
C26_2 C 0.1610(3) 0.2400(6) 0.7157(2)
H18_2 H 0.1527 0.1714 0.7059
C27_2 C 0.2057(3) 0.3934(7) 0.71022(18)
H19_2 H 0.2293 0.4345 0.6962
C28_2 C 0.1853(2) 0.4358(5) 0.74527(16)
H20_2 H 0.1948 0.5039 0.7549
C33_2 C 0.44175(19) 0.0669(4) 0.62643(14)
C34_2 C 0.47104(18) 0.1485(4) 0.61087(14)
C35_2 C 0.4552(2) 0.2509(4) 0.59979(16)
H24_2 H 0.4226 0.2777 0.6014
C36_2 C 0.4952(2) 0.3038(5) 0.58651(17)
H25_2 H 0.4960 0.3749 0.5770
C37_2 C 0.5352(2) 0.2343(4) 0.58945(16)
H26_2 H 0.5679 0.2520 0.5820
C38_2 C 0.3898(2) 0.0924(5) 0.63345(15)
C39_2 C 0.37634(19) 0.1652(4) 0.66219(14)
H27_2 H 0.4005 0.1970 0.6787
C40_2 C 0.32680(19) 0.1913(5) 0.66666(15)
H28_2 H 0.3180 0.2402 0.6869
C41_2 C 0.3045(2) 0.0781(5) 0.61711(17)
H29_2 H 0.2794 0.0458 0.6016
C42_2 C 0.35327(18) 0.0467(5) 0.61050(15)
N1_2 N 0.06028(14) 0.5320(4) 0.44318(12)
N2_2 N 0.12736(15) 0.3996(3) 0.39931(12)
N3_2 N 0.18712(17) 0.2946(4) 0.57959(14)
N4_2 N 0.07274(14) 0.5582(4) 0.82622(12)
N5_2 N 0.11116(14) 0.3838(3) 0.87276(11)
N6_2 N 0.1933(2) 0.2977(5) 0.69578(15)
N9_2 N 0.29112(15) 0.1509(4) 0.64393(12)
Ga2_2 Ga 0.066351(19) 0.51180(4) 0.884897(16)
N10_2 N 0.07274(14) 0.4418(4) 0.32622(12)
N11_2 N 0.11116(14) 0.6162(3) 0.37276(11)
C29_2 C 0.5047(2) 0.8221(4) 0.64238(16)
H21_2 H 0.5329 0.7772 0.6426
C30_2 C 0.4577(2) 0.7902(5) 0.65449(19)
H22_2 H 0.4482 0.7217 0.6637
C31_2 C 0.4280(2) 0.8784(5) 0.65038(17)
H23_2 H 0.3939 0.8823 0.6565
C32_2 C 0.45729(18) 0.9616(4) 0.63555(15)
H30_2 H 0.3610 0.9953 0.5908
C29_3 C 0.5047(2) 0.1779(4) 0.14238(16)
H21_3 H 0.5329 0.2228 0.1426
C30_3 C 0.4577(2) 0.2098(5) 0.15449(19)
H22_3 H 0.4482 0.2783 0.1637
C31_3 C 0.4280(2) 0.1216(5) 0.15038(17)
H23_3 H 0.3939 0.1177 0.1565
C32_3 C 0.45729(18) 0.0384(4) 0.13555(15)
H30_3 H 0.3610 0.0047 0.0908
N7_2 N 0.50511(14) 0.0767(3) 0.13045(12)
Ag1_3 Ag 0.219690(17) 0.76191(5) 0.136733(13)
H2_3 H 0.0168 0.3401 0.0163
C3_3 C 0.06970(18) 0.4577(5) 0.01057(16)
H3_3 H 0.0810 0.4701 0.0368
C10_3 C 0.14523(19) 0.6246(4) 0.00980(15)
C11_3 C 0.19413(18) 0.5997(5) 0.02058(16)
H7_3 H 0.2137 0.5555 0.0040
C12_3 C 0.2132(2) 0.6400(5) 0.05526(16)
H8_3 H 0.2459 0.6215 0.0625
C13_3 C 0.1417(2) 0.7293(4) 0.06970(17)
H9_3 H 0.1235 0.7759 0.0864
C14_3 C 0.1190(2) 0.6893(5) 0.03581(15)
H10_3 H 0.0855 0.7061 0.0304
C15_3 C 0.0509(2) 0.3575(5) 0.30950(17)
H11_3 H 0.0314 0.3073 0.3235
C16_3 C 0.0606(2) 0.3528(6) 0.26886(18)
H12_3 H 0.0492 0.3003 0.2508
C17_3 C 0.0892(2) 0.4372(5) 0.26038(17)
H13_3 H 0.1013 0.4560 0.2349
C18_3 C 0.09794(18) 0.4931(4) 0.29630(14)
C19_3 C 0.1252(2) 0.5845(5) 0.30171(15)
C20_3 C 0.13303(19) 0.6410(4) 0.33720(15)
C21_3 C 0.1639(2) 0.7295(5) 0.3430(2)
H14_3 H 0.1834 0.7636 0.3233
C22_3 C 0.1605(2) 0.7575(5) 0.3822(2)
H15_3 H 0.1770 0.8143 0.3952
C23_3 C 0.1278(2) 0.6853(5) 0.39892(16)
H16_3 H 0.1186 0.6856 0.4261
C24_3 C 0.1505(3) 0.6265(5) 0.26527(17)
C25_3 C 0.1383(3) 0.7241(6) 0.2509(2)
H17_3 H 0.1150 0.7673 0.2643
C26_3 C 0.1610(3) 0.7600(6) 0.2157(2)
H18_3 H 0.1527 0.8286 0.2059
C27_3 C 0.2057(3) 0.6066(7) 0.21022(18)
H19_3 H 0.2293 0.5655 0.1962
C28_3 C 0.1853(2) 0.5642(5) 0.24527(16)
H20_3 H 0.1948 0.4961 0.2549
C33_3 C 0.44175(19) 0.9331(4) 0.12643(14)
C34_3 C 0.47104(18) 0.8515(4) 0.11087(14)
C35_3 C 0.4552(2) 0.7491(4) 0.09979(16)
H24_3 H 0.4226 0.7223 0.1014
C36_3 C 0.4952(2) 0.6962(5) 0.08651(17)
H25_3 H 0.4960 0.6251 0.0770
C37_3 C 0.5352(2) 0.7657(4) 0.08945(16)
H26_3 H 0.5679 0.7480 0.0820
C38_3 C 0.3898(2) 0.9076(5) 0.13345(15)
C39_3 C 0.37634(19) 0.8348(4) 0.16219(14)
H27_3 H 0.4005 0.8030 0.1787
C40_3 C 0.32680(19) 0.8087(5) 0.16666(15)
H28_3 H 0.3180 0.7598 0.1869
C41_3 C 0.3045(2) 0.9219(5) 0.11711(17)
H29_3 H 0.2794 0.9542 0.1016
C42_3 C 0.35327(18) 0.9533(5) 0.11050(15)
N3_3 N 0.18712(17) 0.7054(4) 0.07959(14)
N6_3 N 0.1933(2) 0.7023(5) 0.19578(15)
N8_2 N 0.52183(14) 0.8589(3) 0.10393(12)
N9_3 N 0.29112(15) 0.8491(4) 0.14393(12)
C1_3 C 0.02950(18) 0.3942(4) 0.95775(15)
H1_3 H 0.0074 0.3529 0.9423
C2_3 C 0.03464(19) 0.3865(5) 0.99925(16)
C4_3 C 0.08614(18) 0.5097(4) 0.97570(15)
C5_3 C 0.12412(17) 0.5848(4) 0.97264(14)
C6_3 C 0.14417(18) 0.6262(4) 0.93724(15)
C7_3 C 0.1830(2) 0.6984(5) 0.9334(2)
H4_3 H 0.2005 0.7315 0.9545
C8_3 C 0.1910(3) 0.7124(6) 0.8943(2)
H5_3 H 0.2164 0.7536 0.8826
C9_3 C 0.1544(2) 0.6545(6) 0.87397(19)
H6_3 H 0.1500 0.6545 0.8460
N1_3 N 0.06028(14) 0.4680(4) 0.94318(12)
N2_3 N 0.12736(15) 0.6004(3) 0.89931(12)
N12_2 N 0.00511(14) 0.4233(3) 0.86955(12)
N13_2 N 0.02183(14) 0.6411(3) 0.89607(12)
C29_4 C 0.0047(2) 0.3221(4) 0.85762(16)
H21_4 H 0.0329 0.2772 0.8574
C37_4 C 0.0352(2) 0.7343(4) 0.91055(16)
H26_4 H 0.0679 0.7520 0.9180
C1_4 C 0.52950(18) 0.1058(4) 0.04225(15)
H1_4 H 0.5074 0.1471 0.0577
C2_4 C 0.53464(19) 0.1135(5) 0.00075(16)
N1_4 N 0.56028(14) 0.0320(4) 0.05682(12)
H2_4 H 0.5168 0.1599 0.9837
C3_4 C 0.56970(18) 0.0423(5) 0.98943(16)
H3_4 H 0.5810 0.0299 0.9632
C15_4 C 0.5509(2) 0.1425(5) 0.69050(17)
H11_4 H 0.5314 0.1927 0.6765
C16_4 C 0.5606(2) 0.1472(6) 0.73114(18)
H12_4 H 0.5492 0.1997 0.7492
C17_4 C 0.5892(2) 0.0628(5) 0.73962(17)
H13_4 H 0.6013 0.0440 0.7651
C18_4 C 0.59794(18) 0.0069(4) 0.70370(14)
H20_4 H 0.6948 0.0039 0.7451
C4_4 C 0.58614(18) 0.9903(4) 0.02430(15)
C5_4 C 0.62412(17) 0.9152(4) 0.02736(14)
C6_4 C 0.64417(18) 0.8738(4) 0.06276(15)
C7_4 C 0.6830(2) 0.8016(5) 0.0666(2)
H4_4 H 0.7005 0.7685 0.0455
C8_4 C 0.6910(3) 0.7876(6) 0.1057(2)
H5_4 H 0.7164 0.7464 0.1174
C9_4 C 0.6544(2) 0.8455(6) 0.12603(19)
H6_4 H 0.6500 0.8455 0.1540
N2_4 N 0.62736(15) 0.8996(3) 0.10069(12)
Ag1_4 Ag 0.719690(17) 0.73809(5) 0.863267(13)
C10_4 C 0.64523(19) 0.8754(4) 0.99020(15)
C11_4 C 0.69413(18) 0.9003(5) 0.97942(16)
H7_4 H 0.7137 0.9445 0.9960
C12_4 C 0.7132(2) 0.8600(5) 0.94474(16)
H8_4 H 0.7459 0.8785 0.9375
C13_4 C 0.6417(2) 0.7707(4) 0.93030(17)
H9_4 H 0.6235 0.7241 0.9136
C14_4 C 0.6190(2) 0.8107(5) 0.96419(15)
H10_4 H 0.5855 0.7939 0.9696
C19_4 C 0.6252(2) 0.9155(5) 0.69829(15)
C20_4 C 0.63303(19) 0.8590(4) 0.66280(15)
C21_4 C 0.6639(2) 0.7705(5) 0.6570(2)
H14_4 H 0.6834 0.7364 0.6767
C22_4 C 0.6605(2) 0.7425(5) 0.6178(2)
H15_4 H 0.6770 0.6857 0.6048
C23_4 C 0.6278(2) 0.8147(5) 0.60108(16)
H16_4 H 0.6186 0.8144 0.5739
C24_4 C 0.6505(3) 0.8735(5) 0.73473(17)
C25_4 C 0.6383(3) 0.7759(6) 0.7491(2)
H17_4 H 0.6150 0.7327 0.7357
C26_4 C 0.6610(3) 0.7400(6) 0.7843(2)
H18_4 H 0.6527 0.6714 0.7941
C27_4 C 0.7057(3) 0.8934(7) 0.78978(18)
H19_4 H 0.7293 0.9345 0.8038
C28_4 C 0.6853(2) 0.9358(5) 0.75473(16)
C30_4 C 0.9577(2) 0.2902(5) 0.84551(19)
H22_4 H 0.9482 0.2217 0.8363
C31_4 C 0.9280(2) 0.3784(5) 0.84962(17)
H23_4 H 0.8939 0.3823 0.8435
C32_4 C 0.95729(18) 0.4616(4) 0.86445(15)
C33_4 C 0.94175(19) 0.5669(4) 0.87357(14)
C34_4 C 0.97104(18) 0.6485(4) 0.88913(14)
C35_4 C 0.9552(2) 0.7509(4) 0.90021(16)
H24_4 H 0.9226 0.7777 0.8986
C36_4 C 0.9952(2) 0.8038(5) 0.91349(17)
H25_4 H 0.9960 0.8749 0.9230
C38_4 C 0.8898(2) 0.5924(5) 0.86655(15)
C39_4 C 0.87634(19) 0.6652(4) 0.83781(14)
H27_4 H 0.9005 0.6970 0.8213
C40_4 C 0.82680(19) 0.6913(5) 0.83334(15)
H28_4 H 0.8180 0.7402 0.8131
C41_4 C 0.8045(2) 0.5781(5) 0.88289(17)
H29_4 H 0.7794 0.5458 0.8984
C42_4 C 0.85327(18) 0.5467(5) 0.88950(15)
H30_4 H 0.8610 0.4953 0.9092
N3_4 N 0.68712(17) 0.7946(4) 0.92041(14)
N6_4 N 0.6933(2) 0.7977(5) 0.80422(15)
N9_4 N 0.79112(15) 0.6509(4) 0.85607(12)
Ga1_2 Ga 0.933649(19) 0.48820(4) 0.115103(16)
C1_5 C 0.97050(18) 0.6058(4) 0.04225(15)
H1_5 H 0.9926 0.6471 0.0577
C2_5 C 0.96536(19) 0.6135(5) 0.00075(16)
C4_5 C 0.91386(18) 0.4903(4) 0.02430(15)
C5_5 C 0.87588(17) 0.4152(4) 0.02736(14)
C6_5 C 0.85583(18) 0.3738(4) 0.06276(15)
C7_5 C 0.8170(2) 0.3016(5) 0.0666(2)
H4_5 H 0.7995 0.2685 0.0455
C8_5 C 0.8090(3) 0.2876(6) 0.1057(2)
H5_5 H 0.7836 0.2464 0.1174
C9_5 C 0.8456(2) 0.3455(6) 0.12603(19)
H6_5 H 0.8500 0.3455 0.1540
N1_5 N 0.93972(14) 0.5320(4) 0.05682(12)
N2_5 N 0.87264(15) 0.3996(3) 0.10069(12)
N10_3 N 0.92726(14) 0.4418(4) 0.17378(12)
N11_3 N 0.88884(14) 0.6162(3) 0.12724(11)
N12_3 N 0.99489(14) 0.5767(3) 0.13045(12)
N13_3 N 0.97817(14) 0.3589(3) 0.10393(12)
Ag1_5 Ag 0.780310(17) 0.23809(5) 0.863267(13)
H2_5 H 0.9832 0.6599 0.9837
C3_5 C 0.93030(18) 0.5423(5) 0.98943(16)
H3_5 H 0.9190 0.5299 0.9632
C10_5 C 0.85477(19) 0.3754(4) 0.99020(15)
C11_5 C 0.80587(18) 0.4003(5) 0.97942(16)
H7_5 H 0.7863 0.4445 0.9960
C12_5 C 0.7868(2) 0.3600(5) 0.94474(16)
H8_5 H 0.7541 0.3785 0.9375
C13_5 C 0.8583(2) 0.2707(4) 0.93030(17)
H9_5 H 0.8765 0.2241 0.9136
C14_5 C 0.8810(2) 0.3107(5) 0.96419(15)
H10_5 H 0.9145 0.2939 0.9696
C15_5 C 0.9491(2) 0.6425(5) 0.69050(17)
H11_5 H 0.9686 0.6927 0.6765
C16_5 C 0.9394(2) 0.6472(6) 0.73114(18)
H12_5 H 0.9508 0.6997 0.7492
C17_5 C 0.9108(2) 0.5628(5) 0.73962(17)
H13_5 H 0.8987 0.5440 0.7651
C18_5 C 0.90206(18) 0.5069(4) 0.70370(14)
C19_5 C 0.8748(2) 0.4155(5) 0.69829(15)
C20_5 C 0.86697(19) 0.3590(4) 0.66280(15)
C21_5 C 0.8361(2) 0.2705(5) 0.6570(2)
H14_5 H 0.8166 0.2364 0.6767
C22_5 C 0.8395(2) 0.2425(5) 0.6178(2)
H15_5 H 0.8230 0.1857 0.6048
C23_5 C 0.8722(2) 0.3147(5) 0.60108(16)
H16_5 H 0.8814 0.3144 0.5739
C24_5 C 0.8495(3) 0.3735(5) 0.73473(17)
C25_5 C 0.8617(3) 0.2759(6) 0.7491(2)
H17_5 H 0.8850 0.2327 0.7357
C26_5 C 0.8390(3) 0.2400(6) 0.7843(2)
H18_5 H 0.8473 0.1714 0.7941
C27_5 C 0.7943(3) 0.3934(7) 0.78978(18)
H19_5 H 0.7707 0.4345 0.8038
C28_5 C 0.8147(2) 0.4358(5) 0.75473(16)
H20_5 H 0.8052 0.5039 0.7451
C33_5 C 0.55825(19) 0.0669(4) 0.87357(14)
C34_5 C 0.52896(18) 0.1485(4) 0.88913(14)
C35_5 C 0.5448(2) 0.2509(4) 0.90021(16)
H24_5 H 0.5774 0.2777 0.8986
C36_5 C 0.5048(2) 0.3038(5) 0.91349(17)
H25_5 H 0.5040 0.3749 0.9230
C37_5 C 0.4648(2) 0.2343(4) 0.91055(16)
H26_5 H 0.4321 0.2520 0.9180
C38_5 C 0.6102(2) 0.0924(5) 0.86655(15)
C39_5 C 0.62366(19) 0.1652(4) 0.83781(14)
H27_5 H 0.5995 0.1970 0.8213
C40_5 C 0.67320(19) 0.1913(5) 0.83334(15)
H28_5 H 0.6820 0.2402 0.8131
C41_5 C 0.6955(2) 0.0781(5) 0.88289(17)
H29_5 H 0.7206 0.0458 0.8984
C42_5 C 0.64673(18) 0.0467(5) 0.88950(15)
N3_5 N 0.81288(17) 0.2946(4) 0.92041(14)
N4_3 N 0.92726(14) 0.5582(4) 0.67378(12)
N5_3 N 0.88884(14) 0.3838(3) 0.62724(11)
N6_5 N 0.8067(2) 0.2977(5) 0.80422(15)
N8_3 N 0.47817(14) 0.1411(3) 0.89607(12)
N9_5 N 0.70888(15) 0.1509(4) 0.85607(12)
Ga2_3 Ga 0.933649(19) 0.51180(4) 0.615103(16)
Ga3_2 Ga 0.433649(19) 0.01180(4) 0.884897(16)
C29_5 C 0.4953(2) 0.8221(4) 0.85762(16)
H21_5 H 0.4671 0.7772 0.8574
C30_5 C 0.5423(2) 0.7902(5) 0.84551(19)
H22_5 H 0.5518 0.7217 0.8363
C31_5 C 0.5720(2) 0.8784(5) 0.84962(17)
H23_5 H 0.6061 0.8823 0.8435
C32_5 C 0.54271(18) 0.9616(4) 0.86445(15)
H30_5 H 0.6390 0.9953 0.9092
N7_3 N 0.49489(14) 0.9233(3) 0.86955(12)
Ag1_6 Ag 0.280310(17) 0.26191(5) 0.136733(13)
C10_6 C 0.35477(19) 0.1246(4) 0.00980(15)
C11_6 C 0.30587(18) 0.0997(5) 0.02058(16)
H7_6 H 0.2863 0.0555 0.0040
C12_6 C 0.2868(2) 0.1400(5) 0.05526(16)
H8_6 H 0.2541 0.1215 0.0625
C13_6 C 0.3583(2) 0.2293(4) 0.06970(17)
H9_6 H 0.3765 0.2759 0.0864
C14_6 C 0.3810(2) 0.1893(5) 0.03581(15)
H10_6 H 0.4145 0.2061 0.0304
C19_6 C 0.3748(2) 0.0845(5) 0.30171(15)
C20_6 C 0.36697(19) 0.1410(4) 0.33720(15)
C21_6 C 0.3361(2) 0.2295(5) 0.3430(2)
H14_6 H 0.3166 0.2636 0.3233
C22_6 C 0.3395(2) 0.2575(5) 0.3822(2)
H15_6 H 0.3230 0.3143 0.3952
C23_6 C 0.3722(2) 0.1853(5) 0.39892(16)
H16_6 H 0.3814 0.1856 0.4261
C24_6 C 0.3495(3) 0.1265(5) 0.26527(17)
C25_6 C 0.3617(3) 0.2241(6) 0.2509(2)
H17_6 H 0.3850 0.2673 0.2643
C26_6 C 0.3390(3) 0.2600(6) 0.2157(2)
H18_6 H 0.3473 0.3286 0.2059
C27_6 C 0.2943(3) 0.1066(7) 0.21022(18)
H19_6 H 0.2707 0.0655 0.1962
C28_6 C 0.3147(2) 0.0642(5) 0.24527(16)
C30_6 C 0.0423(2) 0.7098(5) 0.15449(19)
H22_6 H 0.0518 0.7783 0.1637
C31_6 C 0.0720(2) 0.6216(5) 0.15038(17)
H23_6 H 0.1061 0.6177 0.1565
C32_6 C 0.04271(18) 0.5384(4) 0.13555(15)
C33_6 C 0.05825(19) 0.4331(4) 0.12643(14)
C34_6 C 0.02896(18) 0.3515(4) 0.11087(14)
C35_6 C 0.0448(2) 0.2491(4) 0.09979(16)
H24_6 H 0.0774 0.2223 0.1014
C36_6 C 0.0048(2) 0.1962(5) 0.08651(17)
H25_6 H 0.0040 0.1251 0.0770
C38_6 C 0.1102(2) 0.4076(5) 0.13345(15)
C39_6 C 0.12366(19) 0.3348(4) 0.16219(14)
H27_6 H 0.0995 0.3030 0.1787
C40_6 C 0.17320(19) 0.3087(5) 0.16666(15)
H28_6 H 0.1820 0.2598 0.1869
C41_6 C 0.1955(2) 0.4219(5) 0.11711(17)
H29_6 H 0.2206 0.4542 0.1016
C42_6 C 0.14673(18) 0.4533(5) 0.11050(15)
H30_6 H 0.1390 0.5047 0.0908
N3_6 N 0.31288(17) 0.2054(4) 0.07959(14)
N5_4 N 0.38884(14) 0.1162(3) 0.37276(11)
N6_6 N 0.3067(2) 0.2023(5) 0.19578(15)
N9_6 N 0.20888(15) 0.3491(4) 0.14393(12)
C4_6 C 0.41386(18) 0.0097(4) 0.97570(15)
C5_6 C 0.37588(17) 0.0848(4) 0.97264(14)
C6_6 C 0.35583(18) 0.1262(4) 0.93724(15)
C7_6 C 0.3170(2) 0.1984(5) 0.9334(2)
H4_6 H 0.2995 0.2315 0.9545
C8_6 C 0.3090(3) 0.2124(6) 0.8943(2)
H5_6 H 0.2836 0.2536 0.8826
C9_6 C 0.3456(2) 0.1545(6) 0.87397(19)
H6_6 H 0.3500 0.1545 0.8460
N2_6 N 0.37264(15) 0.1004(3) 0.89931(12)
N10_4 N 0.42726(14) 0.0582(4) 0.82622(12)
H2_6 H 0.4832 0.8401 0.0163
C3_6 C 0.43030(18) 0.9577(5) 0.01057(16)
H3_6 H 0.4190 0.9701 0.0368
C15_6 C 0.4491(2) 0.8575(5) 0.30950(17)
H11_6 H 0.4686 0.8073 0.3235
C16_6 C 0.4394(2) 0.8528(6) 0.26886(18)
H12_6 H 0.4508 0.8003 0.2508
C17_6 C 0.4108(2) 0.9372(5) 0.26038(17)
H13_6 H 0.3987 0.9560 0.2349
C18_6 C 0.40206(18) 0.9931(4) 0.29630(14)
H20_6 H 0.3052 0.9961 0.2549
N4_4 N 0.42726(14) 0.9418(4) 0.32622(12)
Ga2_4 Ga 0.433649(19) 0.98820(4) 0.384897(16)
C1_6 C 0.47050(18) 0.8942(4) 0.95775(15)
H1_6 H 0.4926 0.8529 0.9423
C2_6 C 0.46536(19) 0.8865(5) 0.99925(16)
N1_6 N 0.43972(14) 0.9680(4) 0.94318(12)
N11_4 N 0.38884(14) 0.8838(3) 0.87276(11)
C29_6 C 0.9953(2) 0.6779(4) 0.14238(16)
H21_6 H 0.9671 0.7228 0.1426
C37_6 C 0.9648(2) 0.2657(4) 0.08945(16)
H26_6 H 0.9321 0.2480 0.0820
C1_7 C 0.47050(18) 0.1058(4) 0.45775(15)
H1_7 H 0.4926 0.1471 0.4423
C2_7 C 0.46536(19) 0.1135(5) 0.49925(16)
H2_7 H 0.4832 0.1599 0.5163
C3_7 C 0.43030(18) 0.0423(5) 0.51057(16)
H3_7 H 0.4190 0.0299 0.5368
C15_7 C 0.4491(2) 0.1425(5) 0.80950(17)
H11_7 H 0.4686 0.1927 0.8235
C16_7 C 0.4394(2) 0.1472(6) 0.76886(18)
H12_7 H 0.4508 0.1997 0.7508
C17_7 C 0.4108(2) 0.0628(5) 0.76038(17)
H13_7 H 0.3987 0.0440 0.7349
C18_7 C 0.40206(18) 0.0069(4) 0.79630(14)
H20_7 H 0.3052 0.0039 0.7549
N1_7 N 0.43972(14) 0.0320(4) 0.44318(12)
N12_4 N 0.49489(14) 0.0767(3) 0.36955(12)
Ag1_7 Ag 0.280310(17) 0.73809(5) 0.636733(13)
C4_7 C 0.41386(18) 0.9903(4) 0.47570(15)
C5_7 C 0.37588(17) 0.9152(4) 0.47264(14)
C6_7 C 0.35583(18) 0.8738(4) 0.43724(15)
C7_7 C 0.3170(2) 0.8016(5) 0.4334(2)
H4_7 H 0.2995 0.7685 0.4545
C8_7 C 0.3090(3) 0.7876(6) 0.3943(2)
H5_7 H 0.2836 0.7464 0.3826
C9_7 C 0.3456(2) 0.8455(6) 0.37397(19)
H6_7 H 0.3500 0.8455 0.3460
C10_7 C 0.35477(19) 0.8754(4) 0.50980(15)
C11_7 C 0.30587(18) 0.9003(5) 0.52058(16)
H7_7 H 0.2863 0.9445 0.5040
C12_7 C 0.2868(2) 0.8600(5) 0.55526(16)
H8_7 H 0.2541 0.8785 0.5625
C13_7 C 0.3583(2) 0.7707(4) 0.56970(17)
H9_7 H 0.3765 0.7241 0.5864
C14_7 C 0.3810(2) 0.8107(5) 0.53581(15)
H10_7 H 0.4145 0.7939 0.5304
C19_7 C 0.3748(2) 0.9155(5) 0.80171(15)
C20_7 C 0.36697(19) 0.8590(4) 0.83720(15)
C21_7 C 0.3361(2) 0.7705(5) 0.8430(2)
H14_7 H 0.3166 0.7364 0.8233
C22_7 C 0.3395(2) 0.7425(5) 0.8822(2)
H15_7 H 0.3230 0.6857 0.8952
C23_7 C 0.3722(2) 0.8147(5) 0.89892(16)
H16_7 H 0.3814 0.8144 0.9261
C24_7 C 0.3495(3) 0.8735(5) 0.76527(17)
C25_7 C 0.3617(3) 0.7759(6) 0.7509(2)
H17_7 H 0.3850 0.7327 0.7643
C26_7 C 0.3390(3) 0.7400(6) 0.7157(2)
H18_7 H 0.3473 0.6714 0.7059
C27_7 C 0.2943(3) 0.8934(7) 0.71022(18)
H19_7 H 0.2707 0.9345 0.6962
C28_7 C 0.3147(2) 0.9358(5) 0.74527(16)
C30_7 C 0.0423(2) 0.2902(5) 0.65449(19)
H22_7 H 0.0518 0.2217 0.6637
C31_7 C 0.0720(2) 0.3784(5) 0.65038(17)
H23_7 H 0.1061 0.3823 0.6565
C32_7 C 0.04271(18) 0.4616(4) 0.63555(15)
C33_7 C 0.05825(19) 0.5669(4) 0.62643(14)
C34_7 C 0.02896(18) 0.6485(4) 0.61087(14)
C35_7 C 0.0448(2) 0.7509(4) 0.59979(16)
H24_7 H 0.0774 0.7777 0.6014
C36_7 C 0.0048(2) 0.8038(5) 0.58651(17)
H25_7 H 0.0040 0.8749 0.5770
C38_7 C 0.1102(2) 0.5924(5) 0.63345(15)
C39_7 C 0.12366(19) 0.6652(4) 0.66219(14)
H27_7 H 0.0995 0.6970 0.6787
C40_7 C 0.17320(19) 0.6913(5) 0.66666(15)
H28_7 H 0.1820 0.7402 0.6869
C41_7 C 0.1955(2) 0.5781(5) 0.61711(17)
H29_7 H 0.2206 0.5458 0.6016
C42_7 C 0.14673(18) 0.5467(5) 0.61050(15)
H30_7 H 0.1390 0.4953 0.5908
N2_7 N 0.37264(15) 0.8996(3) 0.39931(12)
N3_7 N 0.31288(17) 0.7946(4) 0.57959(14)
N6_7 N 0.3067(2) 0.7977(5) 0.69578(15)
N9_7 N 0.20888(15) 0.6509(4) 0.64393(12)
N13_4 N 0.47817(14) 0.8589(3) 0.39607(12)
C29_7 C 0.9953(2) 0.3221(4) 0.64238(16)
H21_7 H 0.9671 0.2772 0.6426
C37_7 C 0.9648(2) 0.7343(4) 0.58945(16)
H26_7 H 0.9321 0.7520 0.5820
N7_4 N 0.99489(14) 0.4233(3) 0.63045(12)
N8_4 N 0.97817(14) 0.6411(3) 0.60393(12)
C29_8 C 0.4953(2) 0.1779(4) 0.35762(16)
H21_8 H 0.4671 0.2228 0.3574
C30_8 C 0.5423(2) 0.2098(5) 0.34551(19)
H22_8 H 0.5518 0.2783 0.3363
C31_8 C 0.5720(2) 0.1216(5) 0.34962(17)
H23_8 H 0.6061 0.1177 0.3435
C32_8 C 0.54271(18) 0.0384(4) 0.36445(15)
H30_8 H 0.6390 0.0047 0.4092
Ag1_8 Ag 0.780310(17) 0.76191(5) 0.363267(13)
C1_8 C 0.97050(18) 0.3942(4) 0.54225(15)
H1_8 H 0.9926 0.3529 0.5577
C2_8 C 0.96536(19) 0.3865(5) 0.50075(16)
H2_8 H 0.9832 0.3401 0.4837
C3_8 C 0.93030(18) 0.4577(5) 0.48943(16)
H3_8 H 0.9190 0.4701 0.4632
C4_8 C 0.91386(18) 0.5097(4) 0.52430(15)
C5_8 C 0.87588(17) 0.5848(4) 0.52736(14)
C6_8 C 0.85583(18) 0.6262(4) 0.56276(15)
C7_8 C 0.8170(2) 0.6984(5) 0.5666(2)
H4_8 H 0.7995 0.7315 0.5455
C8_8 C 0.8090(3) 0.7124(6) 0.6057(2)
H5_8 H 0.7836 0.7536 0.6174
C9_8 C 0.8456(2) 0.6545(6) 0.62603(19)
H6_8 H 0.8500 0.6545 0.6540
C10_8 C 0.85477(19) 0.6246(4) 0.49020(15)
C11_8 C 0.80587(18) 0.5997(5) 0.47942(16)
H7_8 H 0.7863 0.5555 0.4960
C12_8 C 0.7868(2) 0.6400(5) 0.44474(16)
H8_8 H 0.7541 0.6215 0.4375
C13_8 C 0.8583(2) 0.7293(4) 0.43030(17)
H9_8 H 0.8765 0.7759 0.4136
C14_8 C 0.8810(2) 0.6893(5) 0.46419(15)
H10_8 H 0.9145 0.7061 0.4696
C15_8 C 0.9491(2) 0.3575(5) 0.19050(17)
H11_8 H 0.9686 0.3073 0.1765
C16_8 C 0.9394(2) 0.3528(6) 0.23114(18)
H12_8 H 0.9508 0.3003 0.2492
C17_8 C 0.9108(2) 0.4372(5) 0.23962(17)
H13_8 H 0.8987 0.4560 0.2651
C18_8 C 0.90206(18) 0.4931(4) 0.20370(14)
C19_8 C 0.8748(2) 0.5845(5) 0.19829(15)
C20_8 C 0.86697(19) 0.6410(4) 0.16280(15)
C21_8 C 0.8361(2) 0.7295(5) 0.1570(2)
H14_8 H 0.8166 0.7636 0.1767
C22_8 C 0.8395(2) 0.7575(5) 0.1178(2)
H15_8 H 0.8230 0.8143 0.1048
C23_8 C 0.8722(2) 0.6853(5) 0.10108(16)
H16_8 H 0.8814 0.6856 0.0739
C24_8 C 0.8495(3) 0.6265(5) 0.23473(17)
C25_8 C 0.8617(3) 0.7241(6) 0.2491(2)
H17_8 H 0.8850 0.7673 0.2357
C26_8 C 0.8390(3) 0.7600(6) 0.2843(2)
H18_8 H 0.8473 0.8286 0.2941
C27_8 C 0.7943(3) 0.6066(7) 0.28978(18)
H19_8 H 0.7707 0.5655 0.3038
C28_8 C 0.8147(2) 0.5642(5) 0.25473(16)
H20_8 H 0.8052 0.4961 0.2451
C33_8 C 0.55825(19) 0.9331(4) 0.37357(14)
C34_8 C 0.52896(18) 0.8515(4) 0.38913(14)
C35_8 C 0.5448(2) 0.7491(4) 0.40021(16)
H24_8 H 0.5774 0.7223 0.3986
C36_8 C 0.5048(2) 0.6962(5) 0.41349(17)
H25_8 H 0.5040 0.6251 0.4230
C37_8 C 0.4648(2) 0.7657(4) 0.41055(16)
H26_8 H 0.4321 0.7480 0.4180
C38_8 C 0.6102(2) 0.9076(5) 0.36655(15)
C39_8 C 0.62366(19) 0.8348(4) 0.33781(14)
H27_8 H 0.5995 0.8030 0.3213
C40_8 C 0.67320(19) 0.8087(5) 0.33334(15)
H28_8 H 0.6820 0.7598 0.3131
C41_8 C 0.6955(2) 0.9219(5) 0.38289(17)
H29_8 H 0.7206 0.9542 0.3984
C42_8 C 0.64673(18) 0.9533(5) 0.38950(15)
N1_8 N 0.93972(14) 0.4680(4) 0.55682(12)
N2_8 N 0.87264(15) 0.6004(3) 0.60069(12)
N3_8 N 0.81288(17) 0.7054(4) 0.42041(14)
N6_8 N 0.8067(2) 0.7023(5) 0.30422(15)
N9_8 N 0.70888(15) 0.8491(4) 0.35607(12)
P1 P 0.65642(19) 0.5285(4) 0.37570(16)
F1 F 0.6505(3) 0.4176(6) 0.3613(3)
F2 F 0.7029(3) 0.5446(8) 0.3496(3)
F3 F 0.6644(3) 0.6343(5) 0.3982(2)
F4 F 0.6092(3) 0.5092(8) 0.4045(2)
F5 F 0.6888(6) 0.4953(13) 0.4174(5)
F6 F 0.6231(7) 0.5776(16) 0.3445(6)
F1_2 F 0.8495(3) 0.0824(6) 0.8613(3)
F5_2 F 0.8112(6) 0.0047(13) 0.9174(5)
P1_2 P 0.84358(19) 0.9715(4) 0.87570(16)
F2_2 F 0.7971(3) 0.9554(8) 0.8496(3)
F3_2 F 0.8356(3) 0.8657(5) 0.8982(2)
F4_2 F 0.8908(3) 0.9908(8) 0.9045(2)
F6_2 F 0.8769(7) 0.9224(16) 0.8445(6)
P1_3 P 0.34358(19) 0.5285(4) 0.12430(16)
F1_3 F 0.3495(3) 0.4176(6) 0.1387(3)
F2_3 F 0.2971(3) 0.5446(8) 0.1504(3)
F3_3 F 0.3356(3) 0.6343(5) 0.1018(2)
F4_3 F 0.3908(3) 0.5092(8) 0.0955(2)
F5_3 F 0.3112(6) 0.4953(13) 0.0826(5)
F6_3 F 0.3769(7) 0.5776(16) 0.1555(6)
F1_4 F 0.1505(3) 0.0824(6) 0.6387(3)
F5_4 F 0.1888(6) 0.0047(13) 0.5826(5)
P1_4 P 0.15642(19) 0.9715(4) 0.62430(16)
F2_4 F 0.2029(3) 0.9554(8) 0.6504(3)
F3_4 F 0.1644(3) 0.8657(5) 0.6018(2)
F4_4 F 0.1092(3) 0.9908(8) 0.5955(2)
F6_4 F 0.1231(7) 0.9224(16) 0.6555(6)
P1_5 P 0.34358(19) 0.4715(4) 0.62430(16)
F1_5 F 0.3495(3) 0.5824(6) 0.6387(3)
F2_5 F 0.2971(3) 0.4554(8) 0.6504(3)
F3_5 F 0.3356(3) 0.3657(5) 0.6018(2)
F4_5 F 0.3908(3) 0.4908(8) 0.5955(2)
F5_5 F 0.3112(6) 0.5047(13) 0.5826(5)
F6_5 F 0.3769(7) 0.4224(16) 0.6555(6)
P1_6 P 0.15642(19) 0.0285(4) 0.12430(16)
F2_6 F 0.2029(3) 0.0446(8) 0.1504(3)
F3_6 F 0.1644(3) 0.1343(5) 0.1018(2)
F4_6 F 0.1092(3) 0.0092(8) 0.0955(2)
F6_6 F 0.1231(7) 0.0776(16) 0.1555(6)
F1_6 F 0.1505(3) 0.9176(6) 0.1387(3)
F5_6 F 0.1888(6) 0.9953(13) 0.0826(5)
P1_7 P 0.65642(19) 0.4715(4) 0.87570(16)
F1_7 F 0.6505(3) 0.5824(6) 0.8613(3)
F2_7 F 0.7029(3) 0.4554(8) 0.8496(3)
F3_7 F 0.6644(3) 0.3657(5) 0.8982(2)
F4_7 F 0.6092(3) 0.4908(8) 0.9045(2)
F5_7 F 0.6888(6) 0.5047(13) 0.9174(5)
F6_7 F 0.6231(7) 0.4224(16) 0.8445(6)
P1_8 P 0.84358(19) 0.0285(4) 0.37570(16)
F2_8 F 0.7971(3) 0.0446(8) 0.3496(3)
F3_8 F 0.8356(3) 0.1343(5) 0.3982(2)
F4_8 F 0.8908(3) 0.0092(8) 0.4045(2)
F6_8 F 0.8769(7) 0.0776(16) 0.3445(6)
F1_8 F 0.8495(3) 0.9176(6) 0.3613(3)
F5_8 F 0.8112(6) 0.9953(13) 0.4174(5)
loop_
_geom_bond_atom_site_label_1
_geom_bond_atom_site_label_2
_geom_bond_site_symmetry_1
_geom_bond_site_symmetry_2
C29 H21 1_555 1_555
H26 C37 1_555 1_555
N7 C29 1_555 1_555
Ga3 N7 1_555 1_555
C37 N8 1_555 1_555
N8 Ga3 1_555 1_555
Ag1 N3 1_555 1_555
C5 C4 1_555 1_555
C6 C5 1_555 1_555
C7 C6 1_555 1_555
H4 C7 1_555 1_555
C8 C7 1_555 1_555
H5 C8 1_555 1_555
C9 C8 1_555 1_555
H6 C9 1_555 1_555
C10 C5 1_555 1_555
C11 C10 1_555 1_555
H7 C11 1_555 1_555
C12 C11 1_555 1_555
H8 C12 1_555 1_555
C13 H9 1_555 1_555
C14 C10 1_555 1_555
H10 C14 1_555 1_555
C20 C19 1_555 1_555
C21 C20 1_555 1_555
H14 C21 1_555 1_555
C22 C21 1_555 1_555
H15 C22 1_555 1_555
C23 C22 1_555 1_555
H16 C23 1_555 1_555
C24 C19 1_555 1_555
C25 C24 1_555 1_555
H17 C25 1_555 1_555
C26 C25 1_555 1_555
H18 C26 1_555 1_555
C27 H19 1_555 1_555
C28 C24 1_555 1_555
H22 C30 1_555 1_555
C31 C30 1_555 1_555
H23 C31 1_555 1_555
C32 C31 1_555 1_555
C33 C32 1_555 1_555
C34 C33 1_555 1_555
C35 C34 1_555 1_555
H24 C35 1_555 1_555
C36 C35 1_555 1_555
H25 C36 1_555 1_555
C38 C33 1_555 1_555
C39 C38 1_555 1_555
H27 C39 1_555 1_555
C40 C39 1_555 1_555
H28 C40 1_555 1_555
C41 H29 1_555 1_555
C42 C38 1_555 1_555
H30 C42 1_555 1_555
N2 Ga1 1_555 1_555
N3 C12 1_555 1_555
N5 C20 1_555 1_555
N6 Ag1 1_555 1_555
N9 Ag1 1_555 1_555
N10 Ga1 1_555 1_555
N13 Ga1 1_555 1_555
C6 N2 1_555 1_555
C9 N2 1_555 1_555
C13 C14 1_555 1_555
C13 N3 1_555 1_555
C23 N5 1_555 1_555
C26 N6 1_555 1_555
C27 C28 1_555 1_555
C27 N6 1_555 1_555
C40 N9 1_555 1_555
C41 C42 1_555 1_555
C41 N9 1_555 1_555
C1 H1 1_555 1_555
C2 C1 1_555 1_555
H2 C2 1_555 1_555
C3 C2 1_555 1_555
H3 C3 1_555 1_555
C15 H11 1_555 1_555
C16 C15 1_555 1_555
H12 C16 1_555 1_555
C17 C16 1_555 1_555
H13 C17 1_555 1_555
C18 C17 1_555 1_555
N1 C1 1_555 1_555
N4 C15 1_555 1_555
Ga2 N4 1_555 1_555
C18 N4 1_555 1_555
Ag1_2 N3_2 1_555 1_555
Ga3 N1_2 1_555 1_555
C1_2 H1_2 1_555 1_555
C2_2 C1_2 1_555 1_555
H2_2 C2_2 1_555 1_555
C3_2 C2_2 1_555 1_555
H3_2 C3_2 1_555 1_555
C4_2 C3_2 1_555 1_555
C5_2 C4_2 1_555 1_555
C6_2 C5_2 1_555 1_555
C7_2 C6_2 1_555 1_555
H4_2 C7_2 1_555 1_555
C8_2 C7_2 1_555 1_555
H5_2 C8_2 1_555 1_555
C9_2 C8_2 1_555 1_555
H6_2 C9_2 1_555 1_555
C10_2 C5_2 1_555 1_555
C11_2 C10_2 1_555 1_555
H7_2 C11_2 1_555 1_555
C12_2 C11_2 1_555 1_555
H8_2 C12_2 1_555 1_555
C13_2 H9_2 1_555 1_555
C14_2 C10_2 1_555 1_555
H10_2 C14_2 1_555 1_555
C15_2 H11_2 1_555 1_555
C16_2 C15_2 1_555 1_555
H12_2 C16_2 1_555 1_555
C17_2 C16_2 1_555 1_555
H13_2 C17_2 1_555 1_555
C18_2 C17_2 1_555 1_555
C19_2 C18_2 1_555 1_555
C20_2 C19_2 1_555 1_555
C21_2 C20_2 1_555 1_555
H14_2 C21_2 1_555 1_555
C22_2 C21_2 1_555 1_555
H15_2 C22_2 1_555 1_555
C23_2 C22_2 1_555 1_555
H16_2 C23_2 1_555 1_555
C24_2 C19_2 1_555 1_555
C25_2 C24_2 1_555 1_555
H17_2 C25_2 1_555 1_555
C26_2 C25_2 1_555 1_555
H18_2 C26_2 1_555 1_555
C27_2 H19_2 1_555 1_555
C28_2 C24_2 1_555 1_555
H20_2 C28_2 1_555 1_555
C34_2 C33_2 1_555 1_555
C35_2 C34_2 1_555 1_555
H24_2 C35_2 1_555 1_555
C36_2 C35_2 1_555 1_555
H25_2 C36_2 1_555 1_555
C37_2 C36_2 1_555 1_555
H26_2 C37_2 1_555 1_555
C38_2 C33_2 1_555 1_555
C39_2 C38_2 1_555 1_555
H27_2 C39_2 1_555 1_555
C40_2 C39_2 1_555 1_555
H28_2 C40_2 1_555 1_555
C41_2 H29_2 1_555 1_555
C42_2 C38_2 1_555 1_555
N1_2 C1_2 1_555 1_555
N2_2 Ga3 1_555 1_555
N3_2 C12_2 1_555 1_555
N4_2 C15_2 1_555 1_555
N5_2 C20_2 1_555 1_555
N6_2 Ag1_2 1_555 1_555
N13 C34_2 1_555 1_555
N9_2 Ag1_2 1_555 1_555
Ga2_2 N4_2 1_555 1_555
N10_2 Ga3 1_555 1_555
N11_2 Ga3 1_555 1_555
C4_2 N1_2 1_555 1_555
C6_2 N2_2 1_555 1_555
C9_2 N2_2 1_555 1_555
C13_2 C14_2 1_555 1_555
C13_2 N3_2 1_555 1_555
C18_2 N4_2 1_555 1_555
C23_2 N5_2 1_555 1_555
C26_2 N6_2 1_555 1_555
C27_2 C28_2 1_555 1_555
C27_2 N6_2 1_555 1_555
C37_2 N13 1_555 1_555
C40_2 N9_2 1_555 1_555
C41_2 C42_2 1_555 1_555
C41_2 N9_2 1_555 1_555
N5_2 Ga2_2 1_555 1_555
C29_2 H21_2 1_555 1_555
C30_2 C29_2 1_555 1_555
H22_2 C30_2 1_555 1_555
C31_2 C30_2 1_555 1_555
H23_2 C31_2 1_555 1_555
C32_2 C31_2 1_555 1_555
N12 C29_2 1_555 1_555
C32_2 N12 1_555 1_555
C29_3 H21_3 1_555 1_555
C30_3 C29_3 1_555 1_555
H22_3 C30_3 1_555 1_555
C31_3 C30_3 1_555 1_555
H23_3 C31_3 1_555 1_555
C32_3 C31_3 1_555 1_555
N7_2 C29_3 1_555 1_555
C32_3 N7_2 1_555 1_555
Ag1_3 N3_3 1_555 1_555
H3_3 C3_3 1_555 1_555
C11_3 C10_3 1_555 1_555
H7_3 C11_3 1_555 1_555
C12_3 C11_3 1_555 1_555
H8_3 C12_3 1_555 1_555
C13_3 H9_3 1_555 1_555
C14_3 C10_3 1_555 1_555
H10_3 C14_3 1_555 1_555
C15_3 H11_3 1_555 1_555
C16_3 C15_3 1_555 1_555
H12_3 C16_3 1_555 1_555
C17_3 C16_3 1_555 1_555
H13_3 C17_3 1_555 1_555
C18_3 C17_3 1_555 1_555
C19_3 C18_3 1_555 1_555
C20_3 C19_3 1_555 1_555
C21_3 C20_3 1_555 1_555
H14_3 C21_3 1_555 1_555
C22_3 C21_3 1_555 1_555
H15_3 C22_3 1_555 1_555
C23_3 C22_3 1_555 1_555
H16_3 C23_3 1_555 1_555
C24_3 C19_3 1_555 1_555
C25_3 C24_3 1_555 1_555
H17_3 C25_3 1_555 1_555
C26_3 C25_3 1_555 1_555
H18_3 C26_3 1_555 1_555
C27_3 H19_3 1_555 1_555
C28_3 C24_3 1_555 1_555
H20_3 C28_3 1_555 1_555
C34_3 C33_3 1_555 1_555
C35_3 C34_3 1_555 1_555
H24_3 C35_3 1_555 1_555
C36_3 C35_3 1_555 1_555
H25_3 C36_3 1_555 1_555
C37_3 C36_3 1_555 1_555
H26_3 C37_3 1_555 1_555
C38_3 C33_3 1_555 1_555
C39_3 C38_3 1_555 1_555
H27_3 C39_3 1_555 1_555
C40_3 C39_3 1_555 1_555
H28_3 C40_3 1_555 1_555
C41_3 H29_3 1_555 1_555
C42_3 C38_3 1_555 1_555
N3_3 C12_3 1_555 1_555
N10_2 C15_3 1_555 1_555
N11_2 C20_3 1_555 1_555
N6_3 Ag1_3 1_555 1_555
N8_2 C34_3 1_555 1_555
N9_3 Ag1_3 1_555 1_555
C13_3 C14_3 1_555 1_555
C13_3 N3_3 1_555 1_555
C18_3 N10_2 1_555 1_555
C23_3 N11_2 1_555 1_555
C26_3 N6_3 1_555 1_555
C27_3 C28_3 1_555 1_555
C27_3 N6_3 1_555 1_555
C37_3 N8_2 1_555 1_555
C40_3 N9_3 1_555 1_555
C41_3 C42_3 1_555 1_555
C41_3 N9_3 1_555 1_555
N8_2 Ga2 1_555 1_555
Ga2_2 N1_3 1_555 1_555
C1_3 H1_3 1_555 1_555
C2_3 C1_3 1_555 1_555
C5_3 C4_3 1_555 1_555
C6_3 C5_3 1_555 1_555
C7_3 C6_3 1_555 1_555
H4_3 C7_3 1_555 1_555
C8_3 C7_3 1_555 1_555
H5_3 C8_3 1_555 1_555
C9_3 C8_3 1_555 1_555
H6_3 C9_3 1_555 1_555
N1_3 C1_3 1_555 1_555
N2_3 Ga2_2 1_555 1_555
N12_2 Ga2_2 1_555 1_555
N13_2 Ga2_2 1_555 1_555
C4_3 N1_3 1_555 1_555
C6_3 N2_3 1_555 1_555
C9_3 N2_3 1_555 1_555
C29_4 H21_4 1_555 1_555
H26_4 C37_4 1_555 1_555
N12_2 C29_4 1_555 1_555
C37_4 N13_2 1_555 1_555
C1_4 H1_4 1_555 1_555
C2_4 C1_4 1_555 1_555
N1_4 C1_4 1_555 1_555
H3_4 C3_4 1_555 1_555
C15_4 H11_4 1_555 1_555
C16_4 C15_4 1_555 1_555
H12_4 C16_4 1_555 1_555
C17_4 C16_4 1_555 1_555
H13_4 C17_4 1_555 1_555
C18_4 C17_4 1_555 1_555
N10 C15_4 1_555 1_555
C18_4 N10 1_555 1_555
C5_4 C4_4 1_555 1_555
C6_4 C5_4 1_555 1_555
C7_4 C6_4 1_555 1_555
H4_4 C7_4 1_555 1_555
C8_4 C7_4 1_555 1_555
H5_4 C8_4 1_555 1_555
C9_4 C8_4 1_555 1_555
H6_4 C9_4 1_555 1_555
N2_4 Ga2 1_555 1_555
C6_4 N2_4 1_555 1_555
C9_4 N2_4 1_555 1_555
Ag1_4 N3_4 1_555 1_555
C11_4 C10_4 1_555 1_555
H7_4 C11_4 1_555 1_555
C12_4 C11_4 1_555 1_555
H8_4 C12_4 1_555 1_555
C13_4 H9_4 1_555 1_555
C14_4 C10_4 1_555 1_555
H10_4 C14_4 1_555 1_555
C20_4 C19_4 1_555 1_555
C21_4 C20_4 1_555 1_555
H14_4 C21_4 1_555 1_555
C22_4 C21_4 1_555 1_555
H15_4 C22_4 1_555 1_555
C23_4 C22_4 1_555 1_555
H16_4 C23_4 1_555 1_555
C24_4 C19_4 1_555 1_555
C25_4 C24_4 1_555 1_555
H17_4 C25_4 1_555 1_555
C26_4 C25_4 1_555 1_555
H18_4 C26_4 1_555 1_555
C27_4 H19_4 1_555 1_555
C28_4 C24_4 1_555 1_555
H22_4 C30_4 1_555 1_555
C31_4 C30_4 1_555 1_555
H23_4 C31_4 1_555 1_555
C32_4 C31_4 1_555 1_555
C33_4 C32_4 1_555 1_555
C34_4 C33_4 1_555 1_555
C35_4 C34_4 1_555 1_555
H24_4 C35_4 1_555 1_555
C36_4 C35_4 1_555 1_555
H25_4 C36_4 1_555 1_555
C38_4 C33_4 1_555 1_555
C39_4 C38_4 1_555 1_555
H27_4 C39_4 1_555 1_555
C40_4 C39_4 1_555 1_555
H28_4 C40_4 1_555 1_555
C41_4 H29_4 1_555 1_555
C42_4 C38_4 1_555 1_555
H30_4 C42_4 1_555 1_555
N3_4 C12_4 1_555 1_555
N11 C20_4 1_555 1_555
N6_4 Ag1_4 1_555 1_555
N9_4 Ag1_4 1_555 1_555
C13_4 C14_4 1_555 1_555
C13_4 N3_4 1_555 1_555
C23_4 N11 1_555 1_555
C26_4 N6_4 1_555 1_555
C27_4 C28_4 1_555 1_555
C27_4 N6_4 1_555 1_555
C40_4 N9_4 1_555 1_555
C41_4 C42_4 1_555 1_555
C41_4 N9_4 1_555 1_555
Ga1_2 N1_5 1_555 1_555
C1_5 H1_5 1_555 1_555
C2_5 C1_5 1_555 1_555
C5_5 C4_5 1_555 1_555
C6_5 C5_5 1_555 1_555
C7_5 C6_5 1_555 1_555
H4_5 C7_5 1_555 1_555
C8_5 C7_5 1_555 1_555
H5_5 C8_5 1_555 1_555
C9_5 C8_5 1_555 1_555
H6_5 C9_5 1_555 1_555
N1_5 C1_5 1_555 1_555
N2_5 Ga1_2 1_555 1_555
N10_3 Ga1_2 1_555 1_555
N11_3 Ga1_2 1_555 1_555
N12_3 Ga1_2 1_555 1_555
N13_3 Ga1_2 1_555 1_555
C4_5 N1_5 1_555 1_555
C6_5 N2_5 1_555 1_555
C9_5 N2_5 1_555 1_555
Ag1_5 N3_5 1_555 1_555
H3_5 C3_5 1_555 1_555
C11_5 C10_5 1_555 1_555
H7_5 C11_5 1_555 1_555
C12_5 C11_5 1_555 1_555
H8_5 C12_5 1_555 1_555
C13_5 H9_5 1_555 1_555
C14_5 C10_5 1_555 1_555
H10_5 C14_5 1_555 1_555
C15_5 H11_5 1_555 1_555
C16_5 C15_5 1_555 1_555
H12_5 C16_5 1_555 1_555
C17_5 C16_5 1_555 1_555
H13_5 C17_5 1_555 1_555
C18_5 C17_5 1_555 1_555
C19_5 C18_5 1_555 1_555
C20_5 C19_5 1_555 1_555
C21_5 C20_5 1_555 1_555
H14_5 C21_5 1_555 1_555
C22_5 C21_5 1_555 1_555
H15_5 C22_5 1_555 1_555
C23_5 C22_5 1_555 1_555
H16_5 C23_5 1_555 1_555
C24_5 C19_5 1_555 1_555
C25_5 C24_5 1_555 1_555
H17_5 C25_5 1_555 1_555
C26_5 C25_5 1_555 1_555
H18_5 C26_5 1_555 1_555
C27_5 H19_5 1_555 1_555
C28_5 C24_5 1_555 1_555
H20_5 C28_5 1_555 1_555
C34_5 C33_5 1_555 1_555
C35_5 C34_5 1_555 1_555
H24_5 C35_5 1_555 1_555
C36_5 C35_5 1_555 1_555
H25_5 C36_5 1_555 1_555
C37_5 C36_5 1_555 1_555
H26_5 C37_5 1_555 1_555
C38_5 C33_5 1_555 1_555
C39_5 C38_5 1_555 1_555
H27_5 C39_5 1_555 1_555
C40_5 C39_5 1_555 1_555
H28_5 C40_5 1_555 1_555
C41_5 H29_5 1_555 1_555
C42_5 C38_5 1_555 1_555
N3_5 C12_5 1_555 1_555
N4_3 C15_5 1_555 1_555
N5_3 C20_5 1_555 1_555
N6_5 Ag1_5 1_555 1_555
N8_3 C34_5 1_555 1_555
N9_5 Ag1_5 1_555 1_555
Ga2_3 N4_3 1_555 1_555
C13_5 C14_5 1_555 1_555
C13_5 N3_5 1_555 1_555
C18_5 N4_3 1_555 1_555
C23_5 N5_3 1_555 1_555
C26_5 N6_5 1_555 1_555
C27_5 C28_5 1_555 1_555
C27_5 N6_5 1_555 1_555
C37_5 N8_3 1_555 1_555
C40_5 N9_5 1_555 1_555
C41_5 C42_5 1_555 1_555
C41_5 N9_5 1_555 1_555
N5_3 Ga2_3 1_555 1_555
N8_3 Ga3_2 1_555 1_555
C29_5 H21_5 1_555 1_555
C30_5 C29_5 1_555 1_555
H22_5 C30_5 1_555 1_555
C31_5 C30_5 1_555 1_555
H23_5 C31_5 1_555 1_555
C32_5 C31_5 1_555 1_555
N7_3 C29_5 1_555 1_555
C32_5 N7_3 1_555 1_555
Ag1_6 N3_6 1_555 1_555
C11_6 C10_6 1_555 1_555
H7_6 C11_6 1_555 1_555
C12_6 C11_6 1_555 1_555
H8_6 C12_6 1_555 1_555
C13_6 H9_6 1_555 1_555
C14_6 C10_6 1_555 1_555
H10_6 C14_6 1_555 1_555
C20_6 C19_6 1_555 1_555
C21_6 C20_6 1_555 1_555
H14_6 C21_6 1_555 1_555
C22_6 C21_6 1_555 1_555
H15_6 C22_6 1_555 1_555
C23_6 C22_6 1_555 1_555
H16_6 C23_6 1_555 1_555
C24_6 C19_6 1_555 1_555
C25_6 C24_6 1_555 1_555
H17_6 C25_6 1_555 1_555
C26_6 C25_6 1_555 1_555
H18_6 C26_6 1_555 1_555
C27_6 H19_6 1_555 1_555
C28_6 C24_6 1_555 1_555
H22_6 C30_6 1_555 1_555
C31_6 C30_6 1_555 1_555
H23_6 C31_6 1_555 1_555
C32_6 C31_6 1_555 1_555
C33_6 C32_6 1_555 1_555
C34_6 C33_6 1_555 1_555
C35_6 C34_6 1_555 1_555
H24_6 C35_6 1_555 1_555
C36_6 C35_6 1_555 1_555
H25_6 C36_6 1_555 1_555
C38_6 C33_6 1_555 1_555
C39_6 C38_6 1_555 1_555
H27_6 C39_6 1_555 1_555
C40_6 C39_6 1_555 1_555
H28_6 C40_6 1_555 1_555
C41_6 H29_6 1_555 1_555
C42_6 C38_6 1_555 1_555
H30_6 C42_6 1_555 1_555
N3_6 C12_6 1_555 1_555
N5_4 C20_6 1_555 1_555
N6_6 Ag1_6 1_555 1_555
N9_6 Ag1_6 1_555 1_555
C13_6 C14_6 1_555 1_555
C13_6 N3_6 1_555 1_555
C23_6 N5_4 1_555 1_555
C26_6 N6_6 1_555 1_555
C27_6 C28_6 1_555 1_555
C27_6 N6_6 1_555 1_555
C40_6 N9_6 1_555 1_555
C41_6 C42_6 1_555 1_555
C41_6 N9_6 1_555 1_555
C5_6 C4_6 1_555 1_555
C6_6 C5_6 1_555 1_555
C7_6 C6_6 1_555 1_555
H4_6 C7_6 1_555 1_555
C8_6 C7_6 1_555 1_555
H5_6 C8_6 1_555 1_555
C9_6 C8_6 1_555 1_555
H6_6 C9_6 1_555 1_555
N2_6 Ga3_2 1_555 1_555
N10_4 Ga3_2 1_555 1_555
C6_6 N2_6 1_555 1_555
C9_6 N2_6 1_555 1_555
H3_6 C3_6 1_555 1_555
C15_6 H11_6 1_555 1_555
C16_6 C15_6 1_555 1_555
H12_6 C16_6 1_555 1_555
C17_6 C16_6 1_555 1_555
H13_6 C17_6 1_555 1_555
C18_6 C17_6 1_555 1_555
N4_4 C15_6 1_555 1_555
Ga2_4 N4_4 1_555 1_555
C18_6 N4_4 1_555 1_555
C1_6 H1_6 1_555 1_555
C2_6 C1_6 1_555 1_555
N1_6 C1_6 1_555 1_555
C29_6 H21_6 1_555 1_555
H26_6 C37_6 1_555 1_555
N12_3 C29_6 1_555 1_555
C37_6 N13_3 1_555 1_555
C1_7 H1_7 1_555 1_555
C2_7 C1_7 1_555 1_555
H2_7 C2_7 1_555 1_555
C3_7 C2_7 1_555 1_555
H3_7 C3_7 1_555 1_555
C15_7 H11_7 1_555 1_555
C16_7 C15_7 1_555 1_555
H12_7 C16_7 1_555 1_555
C17_7 C16_7 1_555 1_555
H13_7 C17_7 1_555 1_555
C18_7 C17_7 1_555 1_555
N1_7 C1_7 1_555 1_555
N10_4 C15_7 1_555 1_555
C18_7 N10_4 1_555 1_555
Ag1_7 N3_7 1_555 1_555
C5_7 C4_7 1_555 1_555
C6_7 C5_7 1_555 1_555
C7_7 C6_7 1_555 1_555
H4_7 C7_7 1_555 1_555
C8_7 C7_7 1_555 1_555
H5_7 C8_7 1_555 1_555
C9_7 C8_7 1_555 1_555
H6_7 C9_7 1_555 1_555
C10_7 C5_7 1_555 1_555
C11_7 C10_7 1_555 1_555
H7_7 C11_7 1_555 1_555
C12_7 C11_7 1_555 1_555
H8_7 C12_7 1_555 1_555
C13_7 H9_7 1_555 1_555
C14_7 C10_7 1_555 1_555
H10_7 C14_7 1_555 1_555
C20_7 C19_7 1_555 1_555
C21_7 C20_7 1_555 1_555
H14_7 C21_7 1_555 1_555
C22_7 C21_7 1_555 1_555
H15_7 C22_7 1_555 1_555
C23_7 C22_7 1_555 1_555
H16_7 C23_7 1_555 1_555
C24_7 C19_7 1_555 1_555
C25_7 C24_7 1_555 1_555
H17_7 C25_7 1_555 1_555
C26_7 C25_7 1_555 1_555
H18_7 C26_7 1_555 1_555
C27_7 H19_7 1_555 1_555
C28_7 C24_7 1_555 1_555
H22_7 C30_7 1_555 1_555
C31_7 C30_7 1_555 1_555
H23_7 C31_7 1_555 1_555
C32_7 C31_7 1_555 1_555
C33_7 C32_7 1_555 1_555
C34_7 C33_7 1_555 1_555
C35_7 C34_7 1_555 1_555
H24_7 C35_7 1_555 1_555
C36_7 C35_7 1_555 1_555
H25_7 C36_7 1_555 1_555
C38_7 C33_7 1_555 1_555
C39_7 C38_7 1_555 1_555
H27_7 C39_7 1_555 1_555
C40_7 C39_7 1_555 1_555
H28_7 C40_7 1_555 1_555
C41_7 H29_7 1_555 1_555
C42_7 C38_7 1_555 1_555
H30_7 C42_7 1_555 1_555
N2_7 Ga2_4 1_555 1_555
N3_7 C12_7 1_555 1_555
N11_4 C20_7 1_555 1_555
N6_7 Ag1_7 1_555 1_555
N9_7 Ag1_7 1_555 1_555
N13_4 Ga2_4 1_555 1_555
C6_7 N2_7 1_555 1_555
C9_7 N2_7 1_555 1_555
C13_7 C14_7 1_555 1_555
C13_7 N3_7 1_555 1_555
C23_7 N11_4 1_555 1_555
C26_7 N6_7 1_555 1_555
C27_7 C28_7 1_555 1_555
C27_7 N6_7 1_555 1_555
C40_7 N9_7 1_555 1_555
C41_7 C42_7 1_555 1_555
C41_7 N9_7 1_555 1_555
C29_7 H21_7 1_555 1_555
H26_7 C37_7 1_555 1_555
N7_4 C29_7 1_555 1_555
Ga2_3 N7_4 1_555 1_555
C37_7 N8_4 1_555 1_555
N8_4 Ga2_3 1_555 1_555
C29_8 H21_8 1_555 1_555
C30_8 C29_8 1_555 1_555
H22_8 C30_8 1_555 1_555
C31_8 C30_8 1_555 1_555
H23_8 C31_8 1_555 1_555
C32_8 C31_8 1_555 1_555
N12_4 C29_8 1_555 1_555
C32_8 N12_4 1_555 1_555
Ag1_8 N3_8 1_555 1_555
Ga2_3 N1_8 1_555 1_555
C1_8 H1_8 1_555 1_555
C2_8 C1_8 1_555 1_555
H2_8 C2_8 1_555 1_555
C3_8 C2_8 1_555 1_555
H3_8 C3_8 1_555 1_555
C4_8 C3_8 1_555 1_555
C5_8 C4_8 1_555 1_555
C6_8 C5_8 1_555 1_555
C7_8 C6_8 1_555 1_555
H4_8 C7_8 1_555 1_555
C8_8 C7_8 1_555 1_555
H5_8 C8_8 1_555 1_555
C9_8 C8_8 1_555 1_555
H6_8 C9_8 1_555 1_555
C10_8 C5_8 1_555 1_555
C11_8 C10_8 1_555 1_555
H7_8 C11_8 1_555 1_555
C12_8 C11_8 1_555 1_555
H8_8 C12_8 1_555 1_555
C13_8 H9_8 1_555 1_555
C14_8 C10_8 1_555 1_555
H10_8 C14_8 1_555 1_555
C15_8 H11_8 1_555 1_555
C16_8 C15_8 1_555 1_555
H12_8 C16_8 1_555 1_555
C17_8 C16_8 1_555 1_555
H13_8 C17_8 1_555 1_555
C18_8 C17_8 1_555 1_555
C19_8 C18_8 1_555 1_555
C20_8 C19_8 1_555 1_555
C21_8 C20_8 1_555 1_555
H14_8 C21_8 1_555 1_555
C22_8 C21_8 1_555 1_555
H15_8 C22_8 1_555 1_555
C23_8 C22_8 1_555 1_555
H16_8 C23_8 1_555 1_555
C24_8 C19_8 1_555 1_555
C25_8 C24_8 1_555 1_555
H17_8 C25_8 1_555 1_555
C26_8 C25_8 1_555 1_555
H18_8 C26_8 1_555 1_555
C27_8 H19_8 1_555 1_555
C28_8 C24_8 1_555 1_555
H20_8 C28_8 1_555 1_555
C34_8 C33_8 1_555 1_555
C35_8 C34_8 1_555 1_555
H24_8 C35_8 1_555 1_555
C36_8 C35_8 1_555 1_555
H25_8 C36_8 1_555 1_555
C37_8 C36_8 1_555 1_555
H26_8 C37_8 1_555 1_555
C38_8 C33_8 1_555 1_555
C39_8 C38_8 1_555 1_555
H27_8 C39_8 1_555 1_555
C40_8 C39_8 1_555 1_555
H28_8 C40_8 1_555 1_555
C41_8 H29_8 1_555 1_555
C42_8 C38_8 1_555 1_555
N1_8 C1_8 1_555 1_555
N2_8 Ga2_3 1_555 1_555
N3_8 C12_8 1_555 1_555
N10_3 C15_8 1_555 1_555
N11_3 C20_8 1_555 1_555
N6_8 Ag1_8 1_555 1_555
N13_4 C34_8 1_555 1_555
N9_8 Ag1_8 1_555 1_555
C4_8 N1_8 1_555 1_555
C6_8 N2_8 1_555 1_555
C9_8 N2_8 1_555 1_555
C13_8 C14_8 1_555 1_555
C13_8 N3_8 1_555 1_555
C18_8 N10_3 1_555 1_555
C23_8 N11_3 1_555 1_555
C26_8 N6_8 1_555 1_555
C27_8 C28_8 1_555 1_555
C27_8 N6_8 1_555 1_555
C37_8 N13_4 1_555 1_555
C40_8 N9_8 1_555 1_555
C41_8 C42_8 1_555 1_555
C41_8 N9_8 1_555 1_555
P1 F1 1_555 1_555
F2 P1 1_555 1_555
F3 P1 1_555 1_555
F4 P1 1_555 1_555
F5 P1 1_555 1_555
F6 P1 1_555 1_555
F2_2 P1_2 1_555 1_555
F3_2 P1_2 1_555 1_555
F4_2 P1_2 1_555 1_555
F6_2 P1_2 1_555 1_555
P1_3 F1_3 1_555 1_555
F2_3 P1_3 1_555 1_555
F3_3 P1_3 1_555 1_555
F4_3 P1_3 1_555 1_555
F5_3 P1_3 1_555 1_555
F6_3 P1_3 1_555 1_555
F2_4 P1_4 1_555 1_555
F3_4 P1_4 1_555 1_555
F4_4 P1_4 1_555 1_555
F6_4 P1_4 1_555 1_555
P1_5 F1_5 1_555 1_555
F2_5 P1_5 1_555 1_555
F3_5 P1_5 1_555 1_555
F4_5 P1_5 1_555 1_555
F5_5 P1_5 1_555 1_555
F6_5 P1_5 1_555 1_555
F2_6 P1_6 1_555 1_555
F3_6 P1_6 1_555 1_555
F4_6 P1_6 1_555 1_555
F6_6 P1_6 1_555 1_555
P1_7 F1_7 1_555 1_555
F2_7 P1_7 1_555 1_555
F3_7 P1_7 1_555 1_555
F4_7 P1_7 1_555 1_555
F5_7 P1_7 1_555 1_555
F6_7 P1_7 1_555 1_555
F2_8 P1_8 1_555 1_555
F3_8 P1_8 1_555 1_555
F4_8 P1_8 1_555 1_555
F6_8 P1_8 1_555 1_555

#END
