
###############################################################################
#
# This file contains modified crystal structure data generated from the
# MOF subset of the Cambridge Structural Database (CSD) v543 
# hosted by the Cambridge Crystallographic Data Centre (CCDC).
#
# This work is licensed under the Creative Commons
# Attribution-NonCommercial-ShareAlike 4.0 International License.
# To view a copy of this license, visit
# http://creativecommons.org/licenses/by-nc-sa/4.0/
# or send a letter to
# Creative Commons, PO Box 1866, Mountain View, CA 94042, USA.
#
# CIF created using the CSD Python API on 29 September 2022
# The structure has been converted into the P1 space group
# The structure has a 3D framework
# The original CSD entry GIWCAR is in the monoclinic crystal system
# The framework has been calculated to contain at least 10.0% void space
# The void calculation uses a probe of radius 1.32A, grid spacing 0.4
# The framework is charged, counterions have been retained in the structure
#
###############################################################################

data_GIWCAR
_chemical_formula_moiety         '(C336 H240 Ag8 Ga8 N72 8+)n'
_symmetry_cell_setting           triclinic
_symmetry_space_group_name_H-M   'P 1'
_symmetry_Int_Tables_number      1
_space_group_name_Hall           'P 1'
loop_
_symmetry_equiv_pos_site_id
_symmetry_equiv_pos_as_xyz
1 x,y,z
_cell_length_a                   30.705(6)
_cell_length_b                   12.857(3)
_cell_length_c                   33.146(7)
_cell_angle_alpha                90
_cell_angle_beta                 116.457(3)
_cell_angle_gamma                90
_cell_volume                     11714.8
loop_
_atom_site_label
_atom_site_type_symbol
_atom_site_fract_x
_atom_site_fract_y
_atom_site_fract_z
Ag1 Ag 0.21700(2) 0.20514(5) 0.226449(12)
Ga1 Ga 0.565089(13) 0.01709(3) 0.412391(12)
C5 C 0.44202(12) 0.0680(3) 0.34796(11)
C6 C 0.46983(12) 0.1495(3) 0.37556(10)
C7 C 0.45355(13) 0.2493(3) 0.37988(11)
H4 H 0.4212 0.2748 0.3646
C8 C 0.49374(14) 0.3037(3) 0.41067(12)
H5 H 0.4944 0.3732 0.4206
C9 C 0.53294(14) 0.2354(3) 0.42396(11)
H6 H 0.5653 0.2528 0.4449
C10 C 0.39023(12) 0.0932(3) 0.31750(10)
C11 C 0.35182(13) 0.0444(3) 0.32135(11)
C12 C 0.30465(13) 0.0704(3) 0.29244(12)
H8 H 0.2790 0.0352 0.2954
C13 C 0.32967(14) 0.1880(3) 0.25629(11)
H9 H 0.3218 0.2383 0.2331
C14 C 0.37851(13) 0.1671(3) 0.28363(11)
H10 H 0.4033 0.2024 0.2793
C16 C 0.03616(13) 0.6105(3) 0.01702(11)
H12 H 0.0196 0.6579 0.0273
C17 C 0.07039(13) 0.5402(3) 0.04219(12)
H13 H 0.0823 0.5291 0.0737
C18 C 0.08536(12) 0.4859(3) 0.01300(11)
C19 C 0.12129(12) 0.4100(3) 0.02416(11)
C21 C 0.17594(14) 0.2877(3) 0.00754(13)
H14 H 0.1930 0.2556 0.0362
C24 C 0.14343(12) 0.3706(3) 0.07237(11)
C25 C 0.19102(13) 0.3929(3) 0.10158(12)
H17 H 0.2104 0.4348 0.0923
C26 C 0.21017(13) 0.3522(3) 0.14532(12)
H18 H 0.2428 0.3684 0.1658
C27 C 0.13884(14) 0.2716(3) 0.13054(12)
H19 H 0.1203 0.2283 0.1403
C28 C 0.11687(13) 0.3102(3) 0.08722(12)
H20 H 0.0837 0.2949 0.0679
C29 C 0.05088(14) 0.6386(4) 0.32911(12)
H21 H 0.0316 0.6888 0.3348
C30 C 0.06112(16) 0.6404(4) 0.29130(13)
H22 H 0.0510 0.6915 0.2682
C31 C 0.08842(16) 0.5540(4) 0.29492(13)
H23 H 0.1002 0.5325 0.2741
C32 C 0.09604(14) 0.5026(3) 0.33499(12)
C33 C 0.12268(14) 0.4117(3) 0.35195(12)
C34 C 0.13009(14) 0.3604(3) 0.39174(12)
C35 C 0.15941(17) 0.2716(4) 0.41108(15)
H24 H 0.1769 0.2330 0.3986
C36 C 0.15792(17) 0.2521(4) 0.45072(14)
H25 H 0.1746 0.1982 0.4715
C37 C 0.12718(14) 0.3266(3) 0.45482(12)
H26 H 0.1193 0.3297 0.4794
C38 C 0.14581(15) 0.3626(4) 0.32501(12)
C39 C 0.12942(18) 0.2687(4) 0.30307(15)
H27 H 0.1036 0.2327 0.3054
C40 C 0.15080(19) 0.2280(4) 0.27797(15)
H28 H 0.1395 0.1629 0.2635
C41 C 0.20195(16) 0.3641(4) 0.29289(15)
H29 H 0.2276 0.3981 0.2895
C42 C 0.18231(16) 0.4132(4) 0.31982(14)
H30 H 0.1941 0.4787 0.3337
N2 N 0.51995(10) 0.1425(2) 0.40390(9)
N3 N 0.29325(10) 0.1418(2) 0.26070(9)
N6 N 0.18453(11) 0.2920(2) 0.15933(10)
N7 N 0.07191(10) 0.5572(2) 0.35542(9)
N8 N 0.11024(10) 0.3928(2) 0.42055(9)
N9 N 0.18661(14) 0.2754(3) 0.27285(12)
Ga3 Ga 0.065089(13) 0.51709(3) 0.412391(12)
N11 N 0.62353(10) 0.1077(2) 0.45114(9)
N12 N 0.57191(10) 0.0572(2) 0.35542(9)
C15 C 0.03003(12) 0.5994(3) 0.97223(11)
H11 H 0.0080 0.6394 0.9474
C20 C 0.13977(12) 0.3657(3) 0.99638(11)
C22 C 0.18192(15) 0.2669(4) 0.97002(14)
H15 H 0.2037 0.2182 0.9673
C23 C 0.14902(14) 0.3328(3) 0.93608(13)
H16 H 0.1454 0.3348 0.9061
N4 N 0.05913(10) 0.5257(2) 0.96922(9)
N5 N 0.12353(10) 0.3923(2) 0.95114(9)
Ga2 Ga 0.065089(13) 0.48291(3) 0.912391(12)
C1 C 0.50522(13) 0.8315(3) 0.36053(11)
H1 H 0.5330 0.7877 0.3732
C2 C 0.45903(14) 0.7992(3) 0.32715(12)
H2 H 0.4503 0.7320 0.3141
C3 C 0.42962(14) 0.8844(3) 0.31768(12)
H3 H 0.3964 0.8879 0.2961
C4 C 0.45741(12) 0.9669(3) 0.34573(10)
H7 H 0.3582 0.9932 0.3440
N1 N 0.50486(10) 0.9307(2) 0.37191(8)
N10 N 0.55913(10) 0.9743(2) 0.46922(9)
N13 N 0.61024(10) 0.8928(2) 0.42055(9)
C1_2 C 0.00522(13) 0.3315(3) 0.36053(11)
H1_2 H 0.0330 0.2877 0.3732
C9_2 C 0.03294(14) 0.7354(3) 0.42396(11)
H6_2 H 0.0653 0.7528 0.4449
N1_2 N 0.00486(10) 0.4307(2) 0.37191(8)
N2_2 N 0.01995(10) 0.6425(2) 0.40390(9)
N10_2 N 0.05913(10) 0.4743(2) 0.46922(9)
N11_2 N 0.12353(10) 0.6077(2) 0.45114(9)
C16_2 C 0.53616(13) 0.1105(3) 0.01702(11)
H12_2 H 0.5196 0.1579 0.0273
C17_2 C 0.57039(13) 0.0402(3) 0.04219(12)
H13_2 H 0.5823 0.0291 0.0737
C29_2 C 0.55088(14) 0.1386(4) 0.32911(12)
H21_2 H 0.5316 0.1888 0.3348
C30_2 C 0.56112(16) 0.1404(4) 0.29130(13)
H22_2 H 0.5510 0.1915 0.2682
C31_2 C 0.58842(16) 0.0540(4) 0.29492(13)
H23_2 H 0.6002 0.0325 0.2741
C32_2 C 0.59604(14) 0.0026(3) 0.33499(12)
C15_2 C 0.53003(12) 0.0994(3) 0.97223(11)
H11_2 H 0.5080 0.1394 0.9474
N4_2 N 0.55913(10) 0.0257(2) 0.96922(9)
Ag1_2 Ag 0.71700(2) 0.70514(5) 0.226449(12)
C2_2 C 0.95903(14) 0.2992(3) 0.32715(12)
H2_2 H 0.9503 0.2320 0.3141
C3_2 C 0.92962(14) 0.3844(3) 0.31768(12)
H3_2 H 0.8964 0.3879 0.2961
C4_2 C 0.95741(12) 0.4669(3) 0.34573(10)
C5_2 C 0.94202(12) 0.5680(3) 0.34796(11)
C6_2 C 0.96983(12) 0.6495(3) 0.37556(10)
C7_2 C 0.95355(13) 0.7493(3) 0.37988(11)
H4_2 H 0.9212 0.7748 0.3646
C8_2 C 0.99374(14) 0.8037(3) 0.41067(12)
H5_2 H 0.9944 0.8732 0.4206
C10_2 C 0.89023(12) 0.5932(3) 0.31750(10)
C11_2 C 0.85182(13) 0.5444(3) 0.32135(11)
H7_2 H 0.8582 0.4932 0.3440
C12_2 C 0.80465(13) 0.5704(3) 0.29244(12)
H8_2 H 0.7790 0.5352 0.2954
C13_2 C 0.82967(14) 0.6880(3) 0.25629(11)
H9_2 H 0.8218 0.7383 0.2331
C14_2 C 0.87851(13) 0.6671(3) 0.28363(11)
H10_2 H 0.9033 0.7024 0.2793
C18_2 C 0.58536(12) 0.9859(3) 0.01300(11)
C19_2 C 0.62129(12) 0.9100(3) 0.02416(11)
C21_2 C 0.67594(14) 0.7877(3) 0.00754(13)
H14_2 H 0.6930 0.7556 0.0362
C24_2 C 0.64343(12) 0.8706(3) 0.07237(11)
C25_2 C 0.69102(13) 0.8929(3) 0.10158(12)
H17_2 H 0.7104 0.9348 0.0923
C26_2 C 0.71017(13) 0.8522(3) 0.14532(12)
H18_2 H 0.7428 0.8684 0.1658
C27_2 C 0.63884(14) 0.7716(3) 0.13054(12)
H19_2 H 0.6203 0.7283 0.1403
C28_2 C 0.61687(13) 0.8102(3) 0.08722(12)
H20_2 H 0.5837 0.7949 0.0679
C33_2 C 0.62268(14) 0.9117(3) 0.35195(12)
C34_2 C 0.63009(14) 0.8604(3) 0.39174(12)
C35_2 C 0.65941(17) 0.7716(4) 0.41108(15)
H24_2 H 0.6769 0.7330 0.3986
C36_2 C 0.65792(17) 0.7521(4) 0.45072(14)
H25_2 H 0.6746 0.6982 0.4715
C37_2 C 0.62718(14) 0.8266(3) 0.45482(12)
H26_2 H 0.6193 0.8297 0.4794
C38_2 C 0.64581(15) 0.8626(4) 0.32501(12)
C39_2 C 0.62942(18) 0.7687(4) 0.30307(15)
H27_2 H 0.6036 0.7327 0.3054
C40_2 C 0.65080(19) 0.7280(4) 0.27797(15)
H28_2 H 0.6395 0.6629 0.2635
C41_2 C 0.70195(16) 0.8641(4) 0.29289(15)
H29_2 H 0.7276 0.8981 0.2895
C42_2 C 0.68231(16) 0.9132(4) 0.31982(14)
H30_2 H 0.6941 0.9787 0.3337
N3_2 N 0.79325(10) 0.6418(2) 0.26070(9)
N6_2 N 0.68453(11) 0.7920(2) 0.15933(10)
N9_2 N 0.68661(14) 0.7754(3) 0.27285(12)
C20_2 C 0.63977(12) 0.8657(3) 0.99638(11)
C22_2 C 0.68192(15) 0.7669(4) 0.97002(14)
H15_2 H 0.7037 0.7182 0.9673
C23_2 C 0.64902(14) 0.8328(3) 0.93608(13)
H16_2 H 0.6454 0.8348 0.9061
N5_2 N 0.62353(10) 0.8923(2) 0.95114(9)
Ga2_2 Ga 0.565089(13) 0.98291(3) 0.912391(12)
C1_3 C 0.50522(13) 0.1685(3) 0.86053(11)
H1_3 H 0.5330 0.2123 0.8732
C2_3 C 0.45903(14) 0.2008(3) 0.82715(12)
H2_3 H 0.4503 0.2680 0.8141
C3_3 C 0.42962(14) 0.1156(3) 0.81768(12)
H3_3 H 0.3964 0.1121 0.7961
C4_3 C 0.45741(12) 0.0331(3) 0.84573(10)
H7_3 H 0.3582 0.0068 0.8440
N1_3 N 0.50486(10) 0.0693(2) 0.87191(8)
N13_2 N 0.61024(10) 0.1072(2) 0.92055(9)
Ag1_3 Ag 0.21700(2) 0.79486(5) 0.726449(12)
C5_3 C 0.44202(12) 0.9320(3) 0.84796(11)
C6_3 C 0.46983(12) 0.8505(3) 0.87556(10)
C7_3 C 0.45355(13) 0.7507(3) 0.87988(11)
H4_3 H 0.4212 0.7252 0.8646
C8_3 C 0.49374(14) 0.6963(3) 0.91067(12)
H5_3 H 0.4944 0.6268 0.9206
C9_3 C 0.53294(14) 0.7646(3) 0.92396(11)
H6_3 H 0.5653 0.7472 0.9449
C10_3 C 0.39023(12) 0.9068(3) 0.81750(10)
C11_3 C 0.35182(13) 0.9556(3) 0.82135(11)
C12_3 C 0.30465(13) 0.9296(3) 0.79244(12)
H8_3 H 0.2790 0.9648 0.7954
C13_3 C 0.32967(14) 0.8120(3) 0.75629(11)
H9_3 H 0.3218 0.7617 0.7331
C14_3 C 0.37851(13) 0.8329(3) 0.78363(11)
H10_3 H 0.4033 0.7976 0.7793
C15_3 C 0.03003(12) 0.4006(3) 0.47223(11)
H11_3 H 0.0080 0.3606 0.4474
C16_3 C 0.03616(13) 0.3895(3) 0.51702(11)
H12_3 H 0.0196 0.3421 0.5273
C17_3 C 0.07039(13) 0.4598(3) 0.54219(12)
H13_3 H 0.0823 0.4709 0.5737
C18_3 C 0.08536(12) 0.5141(3) 0.51300(11)
C19_3 C 0.12129(12) 0.5900(3) 0.52416(11)
C20_3 C 0.13977(12) 0.6343(3) 0.49638(11)
C21_3 C 0.17594(14) 0.7123(3) 0.50754(13)
H14_3 H 0.1930 0.7444 0.5362
C22_3 C 0.18192(15) 0.7331(4) 0.47002(14)
H15_3 H 0.2037 0.7818 0.4673
C23_3 C 0.14902(14) 0.6672(3) 0.43608(13)
H16_3 H 0.1454 0.6652 0.4061
C24_3 C 0.14343(12) 0.6294(3) 0.57237(11)
C25_3 C 0.19102(13) 0.6071(3) 0.60158(12)
H17_3 H 0.2104 0.5652 0.5923
C26_3 C 0.21017(13) 0.6478(3) 0.64532(12)
H18_3 H 0.2428 0.6316 0.6658
C27_3 C 0.13884(14) 0.7284(3) 0.63054(12)
H19_3 H 0.1203 0.7717 0.6403
C28_3 C 0.11687(13) 0.6898(3) 0.58722(12)
H20_3 H 0.0837 0.7051 0.5679
C29_3 C 0.05088(14) 0.3614(4) 0.82911(12)
H21_3 H 0.0316 0.3112 0.8348
C30_3 C 0.06112(16) 0.3596(4) 0.79130(13)
H22_3 H 0.0510 0.3085 0.7682
C31_3 C 0.08842(16) 0.4460(4) 0.79492(13)
H23_3 H 0.1002 0.4675 0.7741
C32_3 C 0.09604(14) 0.4974(3) 0.83499(12)
C33_3 C 0.12268(14) 0.5883(3) 0.85195(12)
C34_3 C 0.13009(14) 0.6396(3) 0.89174(12)
C35_3 C 0.15941(17) 0.7284(4) 0.91108(15)
H24_3 H 0.1769 0.7670 0.8986
C36_3 C 0.15792(17) 0.7479(4) 0.95072(14)
H25_3 H 0.1746 0.8018 0.9715
C37_3 C 0.12718(14) 0.6734(3) 0.95482(12)
H26_3 H 0.1193 0.6703 0.9794
C38_3 C 0.14581(15) 0.6374(4) 0.82501(12)
C39_3 C 0.12942(18) 0.7313(4) 0.80307(15)
H27_3 H 0.1036 0.7673 0.8054
C40_3 C 0.15080(19) 0.7720(4) 0.77797(15)
H28_3 H 0.1395 0.8371 0.7635
C41_3 C 0.20195(16) 0.6359(4) 0.79289(15)
H29_3 H 0.2276 0.6019 0.7895
C42_3 C 0.18231(16) 0.5868(4) 0.81982(14)
H30_3 H 0.1941 0.5213 0.8337
N2_3 N 0.51995(10) 0.8575(2) 0.90390(9)
N3_3 N 0.29325(10) 0.8582(2) 0.76070(9)
N6_3 N 0.18453(11) 0.7080(2) 0.65933(10)
N7_2 N 0.07191(10) 0.4428(2) 0.85542(9)
N8_2 N 0.11024(10) 0.6072(2) 0.92055(9)
N9_3 N 0.18661(14) 0.7246(3) 0.77285(12)
N12_2 N 0.57191(10) 0.9428(2) 0.85542(9)
C1_4 C 0.00522(13) 0.6685(3) 0.86053(11)
H1_4 H 0.0330 0.7123 0.8732
C9_4 C 0.03294(14) 0.2646(3) 0.92396(11)
H6_4 H 0.0653 0.2472 0.9449
N1_4 N 0.00486(10) 0.5693(2) 0.87191(8)
N2_4 N 0.01995(10) 0.3575(2) 0.90390(9)
Ag1_4 Ag 0.71700(2) 0.29486(5) 0.726449(12)
C2_4 C 0.95903(14) 0.7008(3) 0.82715(12)
H2_4 H 0.9503 0.7680 0.8141
C3_4 C 0.92962(14) 0.6156(3) 0.81768(12)
H3_4 H 0.8964 0.6121 0.7961
C4_4 C 0.95741(12) 0.5331(3) 0.84573(10)
C5_4 C 0.94202(12) 0.4320(3) 0.84796(11)
C6_4 C 0.96983(12) 0.3505(3) 0.87556(10)
C7_4 C 0.95355(13) 0.2507(3) 0.87988(11)
H4_4 H 0.9212 0.2252 0.8646
C8_4 C 0.99374(14) 0.1963(3) 0.91067(12)
H5_4 H 0.9944 0.1268 0.9206
C10_4 C 0.89023(12) 0.4068(3) 0.81750(10)
C11_4 C 0.85182(13) 0.4556(3) 0.82135(11)
H7_4 H 0.8582 0.5068 0.8440
C12_4 C 0.80465(13) 0.4296(3) 0.79244(12)
H8_4 H 0.7790 0.4648 0.7954
C13_4 C 0.82967(14) 0.3120(3) 0.75629(11)
H9_4 H 0.8218 0.2617 0.7331
C14_4 C 0.87851(13) 0.3329(3) 0.78363(11)
H10_4 H 0.9033 0.2976 0.7793
C18_4 C 0.58536(12) 0.0141(3) 0.51300(11)
C19_4 C 0.62129(12) 0.0900(3) 0.52416(11)
C20_4 C 0.63977(12) 0.1343(3) 0.49638(11)
C21_4 C 0.67594(14) 0.2123(3) 0.50754(13)
H14_4 H 0.6930 0.2444 0.5362
C22_4 C 0.68192(15) 0.2331(4) 0.47002(14)
H15_4 H 0.7037 0.2818 0.4673
C23_4 C 0.64902(14) 0.1672(3) 0.43608(13)
H16_4 H 0.6454 0.1652 0.4061
C24_4 C 0.64343(12) 0.1294(3) 0.57237(11)
C25_4 C 0.69102(13) 0.1071(3) 0.60158(12)
H17_4 H 0.7104 0.0652 0.5923
C26_4 C 0.71017(13) 0.1478(3) 0.64532(12)
H18_4 H 0.7428 0.1316 0.6658
C27_4 C 0.63884(14) 0.2284(3) 0.63054(12)
H19_4 H 0.6203 0.2717 0.6403
C28_4 C 0.61687(13) 0.1898(3) 0.58722(12)
H20_4 H 0.5837 0.2051 0.5679
C33_4 C 0.62268(14) 0.0883(3) 0.85195(12)
C34_4 C 0.63009(14) 0.1396(3) 0.89174(12)
C35_4 C 0.65941(17) 0.2284(4) 0.91108(15)
H24_4 H 0.6769 0.2670 0.8986
C36_4 C 0.65792(17) 0.2479(4) 0.95072(14)
H25_4 H 0.6746 0.3018 0.9715
C37_4 C 0.62718(14) 0.1734(3) 0.95482(12)
H26_4 H 0.6193 0.1703 0.9794
C38_4 C 0.64581(15) 0.1374(4) 0.82501(12)
C39_4 C 0.62942(18) 0.2313(4) 0.80307(15)
H27_4 H 0.6036 0.2673 0.8054
C40_4 C 0.65080(19) 0.2720(4) 0.77797(15)
H28_4 H 0.6395 0.3371 0.7635
C41_4 C 0.70195(16) 0.1359(4) 0.79289(15)
H29_4 H 0.7276 0.1019 0.7895
C42_4 C 0.68231(16) 0.0868(4) 0.81982(14)
H30_4 H 0.6941 0.0213 0.8337
N3_4 N 0.79325(10) 0.3582(2) 0.76070(9)
N6_4 N 0.68453(11) 0.2080(2) 0.65933(10)
N9_4 N 0.68661(14) 0.2246(3) 0.77285(12)
C15_4 C 0.53003(12) 0.9006(3) 0.47223(11)
H11_4 H 0.5080 0.8606 0.4474
C16_4 C 0.53616(13) 0.8895(3) 0.51702(11)
H12_4 H 0.5196 0.8421 0.5273
C17_4 C 0.57039(13) 0.9598(3) 0.54219(12)
H13_4 H 0.5823 0.9709 0.5737
C29_4 C 0.55088(14) 0.8614(4) 0.82911(12)
H21_4 H 0.5316 0.8112 0.8348
C30_4 C 0.56112(16) 0.8596(4) 0.79130(13)
H22_4 H 0.5510 0.8085 0.7682
C31_4 C 0.58842(16) 0.9460(4) 0.79492(13)
H23_4 H 0.6002 0.9675 0.7741
C32_4 C 0.59604(14) 0.9974(3) 0.83499(12)
Ag1_5 Ag 0.78300(2) 0.20514(5) 0.273551(12)
Ga1_2 Ga 0.434911(13) 0.01709(3) 0.087609(12)
C5_5 C 0.55798(12) 0.0680(3) 0.15204(11)
C6_5 C 0.53017(12) 0.1495(3) 0.12444(10)
C7_5 C 0.54645(13) 0.2493(3) 0.12012(11)
H4_5 H 0.5788 0.2748 0.1354
C8_5 C 0.50626(14) 0.3037(3) 0.08933(12)
H5_5 H 0.5056 0.3732 0.0794
C9_5 C 0.46706(14) 0.2354(3) 0.07604(11)
H6_5 H 0.4347 0.2528 0.0551
C10_5 C 0.60977(12) 0.0932(3) 0.18250(10)
C11_5 C 0.64818(13) 0.0444(3) 0.17865(11)
C12_5 C 0.69535(13) 0.0704(3) 0.20756(12)
H8_5 H 0.7210 0.0352 0.2046
C13_5 C 0.67033(14) 0.1880(3) 0.24371(11)
H9_5 H 0.6782 0.2383 0.2669
C14_5 C 0.62149(13) 0.1671(3) 0.21637(11)
H10_5 H 0.5967 0.2024 0.2207
C15_5 C 0.96997(12) 0.5994(3) 0.52777(11)
H11_5 H 0.9920 0.6394 0.5526
C16_5 C 0.96384(13) 0.6105(3) 0.48298(11)
H12_5 H 0.9804 0.6579 0.4727
C17_5 C 0.92961(13) 0.5402(3) 0.45781(12)
H13_5 H 0.9177 0.5291 0.4263
C18_5 C 0.91464(12) 0.4859(3) 0.48700(11)
C19_5 C 0.87871(12) 0.4100(3) 0.47584(11)
C20_5 C 0.86023(12) 0.3657(3) 0.50362(11)
C21_5 C 0.82406(14) 0.2877(3) 0.49246(13)
H14_5 H 0.8070 0.2556 0.4638
C22_5 C 0.81808(15) 0.2669(4) 0.52998(14)
H15_5 H 0.7963 0.2182 0.5327
C23_5 C 0.85098(14) 0.3328(3) 0.56392(13)
H16_5 H 0.8546 0.3348 0.5939
C24_5 C 0.85657(12) 0.3706(3) 0.42763(11)
C25_5 C 0.80898(13) 0.3929(3) 0.39842(12)
H17_5 H 0.7896 0.4348 0.4077
C26_5 C 0.78983(13) 0.3522(3) 0.35468(12)
H18_5 H 0.7572 0.3684 0.3342
C27_5 C 0.86116(14) 0.2716(3) 0.36946(12)
H19_5 H 0.8797 0.2283 0.3597
C28_5 C 0.88313(13) 0.3102(3) 0.41278(12)
H20_5 H 0.9163 0.2949 0.4321
C29_5 C 0.94912(14) 0.6386(4) 0.17089(12)
H21_5 H 0.9684 0.6888 0.1652
C30_5 C 0.93888(16) 0.6404(4) 0.20870(13)
H22_5 H 0.9490 0.6915 0.2318
C31_5 C 0.91158(16) 0.5540(4) 0.20508(13)
H23_5 H 0.8998 0.5325 0.2259
C32_5 C 0.90396(14) 0.5026(3) 0.16501(12)
C33_5 C 0.87732(14) 0.4117(3) 0.14805(12)
C34_5 C 0.86991(14) 0.3604(3) 0.10826(12)
C35_5 C 0.84059(17) 0.2716(4) 0.08892(15)
H24_5 H 0.8231 0.2330 0.1014
C36_5 C 0.84208(17) 0.2521(4) 0.04928(14)
H25_5 H 0.8254 0.1982 0.0285
C37_5 C 0.87282(14) 0.3266(3) 0.04518(12)
H26_5 H 0.8807 0.3297 0.0206
C38_5 C 0.85419(15) 0.3626(4) 0.17499(12)
C39_5 C 0.87058(18) 0.2687(4) 0.19693(15)
H27_5 H 0.8964 0.2327 0.1946
C40_5 C 0.84920(19) 0.2280(4) 0.22203(15)
H28_5 H 0.8605 0.1629 0.2365
C41_5 C 0.79805(16) 0.3641(4) 0.20711(15)
H29_5 H 0.7724 0.3981 0.2105
C42_5 C 0.81769(16) 0.4132(4) 0.18018(14)
H30_5 H 0.8059 0.4787 0.1663
N2_5 N 0.48005(10) 0.1425(2) 0.09610(9)
N3_5 N 0.70675(10) 0.1418(2) 0.23930(9)
N4_3 N 0.94087(10) 0.5257(2) 0.53078(9)
N5_3 N 0.87647(10) 0.3923(2) 0.54886(9)
N6_5 N 0.81547(11) 0.2920(2) 0.34067(10)
N7_3 N 0.92809(10) 0.5572(2) 0.14458(9)
N8_3 N 0.88976(10) 0.3928(2) 0.07945(9)
N9_5 N 0.81339(14) 0.2754(3) 0.22715(12)
Ga2_3 Ga 0.934911(13) 0.48291(3) 0.587609(12)
Ga3_2 Ga 0.934911(13) 0.51709(3) 0.087609(12)
N11_3 N 0.37647(10) 0.1077(2) 0.04886(9)
N12_3 N 0.42809(10) 0.0572(2) 0.14458(9)
C1_5 C 0.49478(13) 0.8315(3) 0.13947(11)
H1_5 H 0.4670 0.7877 0.1268
C2_5 C 0.54097(14) 0.7992(3) 0.17285(12)
H2_5 H 0.5497 0.7320 0.1859
C3_5 C 0.57038(14) 0.8844(3) 0.18232(12)
H3_5 H 0.6036 0.8879 0.2039
C4_5 C 0.54259(12) 0.9669(3) 0.15427(10)
H7_5 H 0.6418 0.9932 0.1560
N1_5 N 0.49514(10) 0.9307(2) 0.12809(8)
N10_3 N 0.44087(10) 0.9743(2) 0.03078(9)
N13_3 N 0.38976(10) 0.8928(2) 0.07945(9)
C15_6 C 0.46997(12) 0.0994(3) 0.52777(11)
H11_6 H 0.4920 0.1394 0.5526
C16_6 C 0.46384(13) 0.1105(3) 0.48298(11)
H12_6 H 0.4804 0.1579 0.4727
C17_6 C 0.42961(13) 0.0402(3) 0.45781(12)
H13_6 H 0.4177 0.0291 0.4263
C29_6 C 0.44912(14) 0.1386(4) 0.17089(12)
H21_6 H 0.4684 0.1888 0.1652
C30_6 C 0.43888(16) 0.1404(4) 0.20870(13)
H22_6 H 0.4490 0.1915 0.2318
C31_6 C 0.41158(16) 0.0540(4) 0.20508(13)
H23_6 H 0.3998 0.0325 0.2259
C32_6 C 0.40396(14) 0.0026(3) 0.16501(12)
N4_4 N 0.44087(10) 0.0257(2) 0.53078(9)
Ag1_6 Ag 0.28300(2) 0.70514(5) 0.273551(12)
C2_6 C 0.04097(14) 0.2992(3) 0.17285(12)
H2_6 H 0.0497 0.2320 0.1859
C3_6 C 0.07038(14) 0.3844(3) 0.18232(12)
H3_6 H 0.1036 0.3879 0.2039
C4_6 C 0.04259(12) 0.4669(3) 0.15427(10)
C5_6 C 0.05798(12) 0.5680(3) 0.15204(11)
C6_6 C 0.03017(12) 0.6495(3) 0.12444(10)
C7_6 C 0.04645(13) 0.7493(3) 0.12012(11)
H4_6 H 0.0788 0.7748 0.1354
C8_6 C 0.00626(14) 0.8037(3) 0.08933(12)
H5_6 H 0.0056 0.8732 0.0794
C10_6 C 0.10977(12) 0.5932(3) 0.18250(10)
C11_6 C 0.14818(13) 0.5444(3) 0.17865(11)
H7_6 H 0.1418 0.4932 0.1560
C12_6 C 0.19535(13) 0.5704(3) 0.20756(12)
H8_6 H 0.2210 0.5352 0.2046
C13_6 C 0.17033(14) 0.6880(3) 0.24371(11)
H9_6 H 0.1782 0.7383 0.2669
C14_6 C 0.12149(13) 0.6671(3) 0.21637(11)
H10_6 H 0.0967 0.7024 0.2207
C18_6 C 0.41464(12) 0.9859(3) 0.48700(11)
C19_6 C 0.37871(12) 0.9100(3) 0.47584(11)
C20_6 C 0.36023(12) 0.8657(3) 0.50362(11)
C21_6 C 0.32406(14) 0.7877(3) 0.49246(13)
H14_6 H 0.3070 0.7556 0.4638
C22_6 C 0.31808(15) 0.7669(4) 0.52998(14)
H15_6 H 0.2963 0.7182 0.5327
C23_6 C 0.35098(14) 0.8328(3) 0.56392(13)
H16_6 H 0.3546 0.8348 0.5939
C24_6 C 0.35657(12) 0.8706(3) 0.42763(11)
C25_6 C 0.30898(13) 0.8929(3) 0.39842(12)
H17_6 H 0.2896 0.9348 0.4077
C26_6 C 0.28983(13) 0.8522(3) 0.35468(12)
H18_6 H 0.2572 0.8684 0.3342
C27_6 C 0.36116(14) 0.7716(3) 0.36946(12)
H19_6 H 0.3797 0.7283 0.3597
C28_6 C 0.38313(13) 0.8102(3) 0.41278(12)
H20_6 H 0.4163 0.7949 0.4321
C33_6 C 0.37732(14) 0.9117(3) 0.14805(12)
C34_6 C 0.36991(14) 0.8604(3) 0.10826(12)
C35_6 C 0.34059(17) 0.7716(4) 0.08892(15)
H24_6 H 0.3231 0.7330 0.1014
C36_6 C 0.34208(17) 0.7521(4) 0.04928(14)
H25_6 H 0.3254 0.6982 0.0285
C37_6 C 0.37282(14) 0.8266(3) 0.04518(12)
H26_6 H 0.3807 0.8297 0.0206
C38_6 C 0.35419(15) 0.8626(4) 0.17499(12)
C39_6 C 0.37058(18) 0.7687(4) 0.19693(15)
H27_6 H 0.3964 0.7327 0.1946
C40_6 C 0.34920(19) 0.7280(4) 0.22203(15)
H28_6 H 0.3605 0.6629 0.2365
C41_6 C 0.29805(16) 0.8641(4) 0.20711(15)
H29_6 H 0.2724 0.8981 0.2105
C42_6 C 0.31769(16) 0.9132(4) 0.18018(14)
H30_6 H 0.3059 0.9787 0.1663
N3_6 N 0.20675(10) 0.6418(2) 0.23930(9)
N5_4 N 0.37647(10) 0.8923(2) 0.54886(9)
N6_6 N 0.31547(11) 0.7920(2) 0.34067(10)
N9_6 N 0.31339(14) 0.7754(3) 0.22715(12)
Ga2_4 Ga 0.434911(13) 0.98291(3) 0.587609(12)
C1_6 C 0.99478(13) 0.3315(3) 0.13947(11)
H1_6 H 0.9670 0.2877 0.1268
C9_6 C 0.96706(14) 0.7354(3) 0.07604(11)
H6_6 H 0.9347 0.7528 0.0551
N1_6 N 0.99514(10) 0.4307(2) 0.12809(8)
N2_6 N 0.98005(10) 0.6425(2) 0.09610(9)
N10_4 N 0.94087(10) 0.4743(2) 0.03078(9)
N11_4 N 0.87647(10) 0.6077(2) 0.04886(9)
C1_7 C 0.49478(13) 0.1685(3) 0.63947(11)
H1_7 H 0.4670 0.2123 0.6268
C2_7 C 0.54097(14) 0.2008(3) 0.67285(12)
H2_7 H 0.5497 0.2680 0.6859
C3_7 C 0.57038(14) 0.1156(3) 0.68232(12)
H3_7 H 0.6036 0.1121 0.7039
C4_7 C 0.54259(12) 0.0331(3) 0.65427(10)
H7_7 H 0.6418 0.0068 0.6560
N1_7 N 0.49514(10) 0.0693(2) 0.62809(8)
N13_4 N 0.38976(10) 0.1072(2) 0.57945(9)
C15_7 C 0.96997(12) 0.4006(3) 0.02777(11)
H11_7 H 0.9920 0.3606 0.0526
C20_7 C 0.86023(12) 0.6343(3) 0.00362(11)
C22_7 C 0.81808(15) 0.7331(4) 0.02998(14)
H15_7 H 0.7963 0.7818 0.0327
C23_7 C 0.85098(14) 0.6672(3) 0.06392(13)
H16_7 H 0.8546 0.6652 0.0939
Ag1_7 Ag 0.78300(2) 0.79486(5) 0.773551(12)
C5_7 C 0.55798(12) 0.9320(3) 0.65204(11)
C6_7 C 0.53017(12) 0.8505(3) 0.62444(10)
C7_7 C 0.54645(13) 0.7507(3) 0.62012(11)
H4_7 H 0.5788 0.7252 0.6354
C8_7 C 0.50626(14) 0.6963(3) 0.58933(12)
H5_7 H 0.5056 0.6268 0.5794
C9_7 C 0.46706(14) 0.7646(3) 0.57604(11)
H6_7 H 0.4347 0.7472 0.5551
C10_7 C 0.60977(12) 0.9068(3) 0.68250(10)
C11_7 C 0.64818(13) 0.9556(3) 0.67865(11)
C12_7 C 0.69535(13) 0.9296(3) 0.70756(12)
H8_7 H 0.7210 0.9648 0.7046
C13_7 C 0.67033(14) 0.8120(3) 0.74371(11)
H9_7 H 0.6782 0.7617 0.7669
C14_7 C 0.62149(13) 0.8329(3) 0.71637(11)
H10_7 H 0.5967 0.7976 0.7207
C16_7 C 0.96384(13) 0.3895(3) 0.98298(11)
H12_7 H 0.9804 0.3421 0.9727
C17_7 C 0.92961(13) 0.4598(3) 0.95781(12)
H13_7 H 0.9177 0.4709 0.9263
C18_7 C 0.91464(12) 0.5141(3) 0.98700(11)
C19_7 C 0.87871(12) 0.5900(3) 0.97584(11)
C21_7 C 0.82406(14) 0.7123(3) 0.99246(13)
H14_7 H 0.8070 0.7444 0.9638
C24_7 C 0.85657(12) 0.6294(3) 0.92763(11)
C25_7 C 0.80898(13) 0.6071(3) 0.89842(12)
H17_7 H 0.7896 0.5652 0.9077
C26_7 C 0.78983(13) 0.6478(3) 0.85468(12)
H18_7 H 0.7572 0.6316 0.8342
C27_7 C 0.86116(14) 0.7284(3) 0.86946(12)
H19_7 H 0.8797 0.7717 0.8597
C28_7 C 0.88313(13) 0.6898(3) 0.91278(12)
H20_7 H 0.9163 0.7051 0.9321
C29_7 C 0.94912(14) 0.3614(4) 0.67089(12)
H21_7 H 0.9684 0.3112 0.6652
C30_7 C 0.93888(16) 0.3596(4) 0.70870(13)
H22_7 H 0.9490 0.3085 0.7318
C31_7 C 0.91158(16) 0.4460(4) 0.70508(13)
H23_7 H 0.8998 0.4675 0.7259
C32_7 C 0.90396(14) 0.4974(3) 0.66501(12)
C33_7 C 0.87732(14) 0.5883(3) 0.64805(12)
C34_7 C 0.86991(14) 0.6396(3) 0.60826(12)
C35_7 C 0.84059(17) 0.7284(4) 0.58892(15)
H24_7 H 0.8231 0.7670 0.6014
C36_7 C 0.84208(17) 0.7479(4) 0.54928(14)
H25_7 H 0.8254 0.8018 0.5285
C37_7 C 0.87282(14) 0.6734(3) 0.54518(12)
H26_7 H 0.8807 0.6703 0.5206
C38_7 C 0.85419(15) 0.6374(4) 0.67499(12)
C39_7 C 0.87058(18) 0.7313(4) 0.69693(15)
H27_7 H 0.8964 0.7673 0.6946
C40_7 C 0.84920(19) 0.7720(4) 0.72203(15)
H28_7 H 0.8605 0.8371 0.7365
C41_7 C 0.79805(16) 0.6359(4) 0.70711(15)
H29_7 H 0.7724 0.6019 0.7105
C42_7 C 0.81769(16) 0.5868(4) 0.68018(14)
H30_7 H 0.8059 0.5213 0.6663
N2_7 N 0.48005(10) 0.8575(2) 0.59610(9)
N3_7 N 0.70675(10) 0.8582(2) 0.73930(9)
N6_7 N 0.81547(11) 0.7080(2) 0.84067(10)
N7_4 N 0.92809(10) 0.4428(2) 0.64458(9)
N8_4 N 0.88976(10) 0.6072(2) 0.57945(9)
N9_7 N 0.81339(14) 0.7246(3) 0.72715(12)
N12_4 N 0.42809(10) 0.9428(2) 0.64458(9)
C20_8 C 0.36023(12) 0.1343(3) 0.00362(11)
C22_8 C 0.31808(15) 0.2331(4) 0.02998(14)
H15_8 H 0.2963 0.2818 0.0327
C23_8 C 0.35098(14) 0.1672(3) 0.06392(13)
H16_8 H 0.3546 0.1652 0.0939
Ag1_8 Ag 0.28300(2) 0.29486(5) 0.773551(12)
C2_8 C 0.04097(14) 0.7008(3) 0.67285(12)
H2_8 H 0.0497 0.7680 0.6859
C3_8 C 0.07038(14) 0.6156(3) 0.68232(12)
H3_8 H 0.1036 0.6121 0.7039
C4_8 C 0.04259(12) 0.5331(3) 0.65427(10)
C5_8 C 0.05798(12) 0.4320(3) 0.65204(11)
C6_8 C 0.03017(12) 0.3505(3) 0.62444(10)
C7_8 C 0.04645(13) 0.2507(3) 0.62012(11)
H4_8 H 0.0788 0.2252 0.6354
C8_8 C 0.00626(14) 0.1963(3) 0.58933(12)
H5_8 H 0.0056 0.1268 0.5794
C10_8 C 0.10977(12) 0.4068(3) 0.68250(10)
C11_8 C 0.14818(13) 0.4556(3) 0.67865(11)
H7_8 H 0.1418 0.5068 0.6560
C12_8 C 0.19535(13) 0.4296(3) 0.70756(12)
H8_8 H 0.2210 0.4648 0.7046
C13_8 C 0.17033(14) 0.3120(3) 0.74371(11)
H9_8 H 0.1782 0.2617 0.7669
C14_8 C 0.12149(13) 0.3329(3) 0.71637(11)
H10_8 H 0.0967 0.2976 0.7207
C18_8 C 0.41464(12) 0.0141(3) 0.98700(11)
C19_8 C 0.37871(12) 0.0900(3) 0.97584(11)
C21_8 C 0.32406(14) 0.2123(3) 0.99246(13)
H14_8 H 0.3070 0.2444 0.9638
C24_8 C 0.35657(12) 0.1294(3) 0.92763(11)
C25_8 C 0.30898(13) 0.1071(3) 0.89842(12)
H17_8 H 0.2896 0.0652 0.9077
C26_8 C 0.28983(13) 0.1478(3) 0.85468(12)
H18_8 H 0.2572 0.1316 0.8342
C27_8 C 0.36116(14) 0.2284(3) 0.86946(12)
H19_8 H 0.3797 0.2717 0.8597
C28_8 C 0.38313(13) 0.1898(3) 0.91278(12)
H20_8 H 0.4163 0.2051 0.9321
C33_8 C 0.37732(14) 0.0883(3) 0.64805(12)
C34_8 C 0.36991(14) 0.1396(3) 0.60826(12)
C35_8 C 0.34059(17) 0.2284(4) 0.58892(15)
H24_8 H 0.3231 0.2670 0.6014
C36_8 C 0.34208(17) 0.2479(4) 0.54928(14)
H25_8 H 0.3254 0.3018 0.5285
C37_8 C 0.37282(14) 0.1734(3) 0.54518(12)
H26_8 H 0.3807 0.1703 0.5206
C38_8 C 0.35419(15) 0.1374(4) 0.67499(12)
C39_8 C 0.37058(18) 0.2313(4) 0.69693(15)
H27_8 H 0.3964 0.2673 0.6946
C40_8 C 0.34920(19) 0.2720(4) 0.72203(15)
H28_8 H 0.3605 0.3371 0.7365
C41_8 C 0.29805(16) 0.1359(4) 0.70711(15)
H29_8 H 0.2724 0.1019 0.7105
C42_8 C 0.31769(16) 0.0868(4) 0.68018(14)
H30_8 H 0.3059 0.0213 0.6663
N3_8 N 0.20675(10) 0.3582(2) 0.73930(9)
N6_8 N 0.31547(11) 0.2080(2) 0.84067(10)
N9_8 N 0.31339(14) 0.2246(3) 0.72715(12)
C15_8 C 0.46997(12) 0.9006(3) 0.02777(11)
H11_8 H 0.4920 0.8606 0.0526
C16_8 C 0.46384(13) 0.8895(3) 0.98298(11)
H12_8 H 0.4804 0.8421 0.9727
C17_8 C 0.42961(13) 0.9598(3) 0.95781(12)
H13_8 H 0.4177 0.9709 0.9263
C29_8 C 0.44912(14) 0.8614(4) 0.67089(12)
H21_8 H 0.4684 0.8112 0.6652
C30_8 C 0.43888(16) 0.8596(4) 0.70870(13)
H22_8 H 0.4490 0.8085 0.7318
C31_8 C 0.41158(16) 0.9460(4) 0.70508(13)
H23_8 H 0.3998 0.9675 0.7259
C32_8 C 0.40396(14) 0.9974(3) 0.66501(12)
C1_8 C 0.99478(13) 0.6685(3) 0.63947(11)
H1_8 H 0.9670 0.7123 0.6268
C9_8 C 0.96706(14) 0.2646(3) 0.57604(11)
H6_8 H 0.9347 0.2472 0.5551
N1_8 N 0.99514(10) 0.5693(2) 0.62809(8)
N2_8 N 0.98005(10) 0.3575(2) 0.59610(9)
loop_
_geom_bond_atom_site_label_1
_geom_bond_atom_site_label_2
_geom_bond_site_symmetry_1
_geom_bond_site_symmetry_2
Ag1 N3 1_555 1_555
C6 C5 1_555 1_555
C7 C6 1_555 1_555
H4 C7 1_555 1_555
C8 C7 1_555 1_555
H5 C8 1_555 1_555
C9 C8 1_555 1_555
H6 C9 1_555 1_555
C10 C5 1_555 1_555
C11 C10 1_555 1_555
C12 C11 1_555 1_555
H8 C12 1_555 1_555
C13 H9 1_555 1_555
C14 C10 1_555 1_555
H10 C14 1_555 1_555
H12 C16 1_555 1_555
C17 C16 1_555 1_555
H13 C17 1_555 1_555
C18 C17 1_555 1_555
C19 C18 1_555 1_555
H14 C21 1_555 1_555
C24 C19 1_555 1_555
C25 C24 1_555 1_555
H17 C25 1_555 1_555
C26 C25 1_555 1_555
H18 C26 1_555 1_555
C27 H19 1_555 1_555
C28 C24 1_555 1_555
H20 C28 1_555 1_555
C29 H21 1_555 1_555
C30 C29 1_555 1_555
H22 C30 1_555 1_555
C31 C30 1_555 1_555
H23 C31 1_555 1_555
C32 C31 1_555 1_555
C33 C32 1_555 1_555
C34 C33 1_555 1_555
C35 C34 1_555 1_555
H24 C35 1_555 1_555
C36 C35 1_555 1_555
H25 C36 1_555 1_555
C37 C36 1_555 1_555
H26 C37 1_555 1_555
C38 C33 1_555 1_555
C39 C38 1_555 1_555
H27 C39 1_555 1_555
C40 C39 1_555 1_555
H28 C40 1_555 1_555
C41 H29 1_555 1_555
C42 C38 1_555 1_555
H30 C42 1_555 1_555
N2 Ga1 1_555 1_555
N3 C12 1_555 1_555
N6 Ag1 1_555 1_555
N7 C29 1_555 1_555
N8 C34 1_555 1_555
N9 Ag1 1_555 1_555
Ga3 N7 1_555 1_555
N11 Ga1 1_555 1_555
N12 Ga1 1_555 1_555
C6 N2 1_555 1_555
C9 N2 1_555 1_555
C13 C14 1_555 1_555
C13 N3 1_555 1_555
C26 N6 1_555 1_555
C27 C28 1_555 1_555
C27 N6 1_555 1_555
C32 N7 1_555 1_555
C37 N8 1_555 1_555
C40 N9 1_555 1_555
C41 C42 1_555 1_555
C41 N9 1_555 1_555
N8 Ga3 1_555 1_555
C15 H11 1_555 1_555
H15 C22 1_555 1_555
C23 C22 1_555 1_555
H16 C23 1_555 1_555
N4 C15 1_555 1_555
N5 C20 1_555 1_555
Ga2 N4 1_555 1_555
C23 N5 1_555 1_555
N5 Ga2 1_555 1_555
C1 H1 1_555 1_555
C2 C1 1_555 1_555
H2 C2 1_555 1_555
C3 C2 1_555 1_555
H3 C3 1_555 1_555
C4 C3 1_555 1_555
N1 C1 1_555 1_555
C4 N1 1_555 1_555
Ga3 N1_2 1_555 1_555
C1_2 H1_2 1_555 1_555
H6_2 C9_2 1_555 1_555
N1_2 C1_2 1_555 1_555
N2_2 Ga3 1_555 1_555
N10_2 Ga3 1_555 1_555
N11_2 Ga3 1_555 1_555
C9_2 N2_2 1_555 1_555
H12_2 C16_2 1_555 1_555
C17_2 C16_2 1_555 1_555
H13_2 C17_2 1_555 1_555
C29_2 H21_2 1_555 1_555
C30_2 C29_2 1_555 1_555
H22_2 C30_2 1_555 1_555
C31_2 C30_2 1_555 1_555
H23_2 C31_2 1_555 1_555
C32_2 C31_2 1_555 1_555
N12 C29_2 1_555 1_555
C32_2 N12 1_555 1_555
C15_2 H11_2 1_555 1_555
N4_2 C15_2 1_555 1_555
Ag1_2 N3_2 1_555 1_555
H2_2 C2_2 1_555 1_555
C3_2 C2_2 1_555 1_555
H3_2 C3_2 1_555 1_555
C4_2 C3_2 1_555 1_555
C5_2 C4_2 1_555 1_555
C6_2 C5_2 1_555 1_555
C7_2 C6_2 1_555 1_555
H4_2 C7_2 1_555 1_555
C8_2 C7_2 1_555 1_555
H5_2 C8_2 1_555 1_555
C10_2 C5_2 1_555 1_555
C11_2 C10_2 1_555 1_555
H7_2 C11_2 1_555 1_555
C12_2 C11_2 1_555 1_555
H8_2 C12_2 1_555 1_555
C13_2 H9_2 1_555 1_555
C14_2 C10_2 1_555 1_555
H10_2 C14_2 1_555 1_555
C19_2 C18_2 1_555 1_555
H14_2 C21_2 1_555 1_555
C24_2 C19_2 1_555 1_555
C25_2 C24_2 1_555 1_555
H17_2 C25_2 1_555 1_555
C26_2 C25_2 1_555 1_555
H18_2 C26_2 1_555 1_555
C27_2 H19_2 1_555 1_555
C28_2 C24_2 1_555 1_555
H20_2 C28_2 1_555 1_555
C34_2 C33_2 1_555 1_555
C35_2 C34_2 1_555 1_555
H24_2 C35_2 1_555 1_555
C36_2 C35_2 1_555 1_555
H25_2 C36_2 1_555 1_555
C37_2 C36_2 1_555 1_555
H26_2 C37_2 1_555 1_555
C38_2 C33_2 1_555 1_555
C39_2 C38_2 1_555 1_555
H27_2 C39_2 1_555 1_555
C40_2 C39_2 1_555 1_555
H28_2 C40_2 1_555 1_555
C41_2 H29_2 1_555 1_555
C42_2 C38_2 1_555 1_555
H30_2 C42_2 1_555 1_555
N3_2 C12_2 1_555 1_555
N6_2 Ag1_2 1_555 1_555
N13 C34_2 1_555 1_555
N9_2 Ag1_2 1_555 1_555
C13_2 C14_2 1_555 1_555
C13_2 N3_2 1_555 1_555
C26_2 N6_2 1_555 1_555
C27_2 C28_2 1_555 1_555
C27_2 N6_2 1_555 1_555
C37_2 N13 1_555 1_555
C40_2 N9_2 1_555 1_555
C41_2 C42_2 1_555 1_555
C41_2 N9_2 1_555 1_555
H15_2 C22_2 1_555 1_555
C23_2 C22_2 1_555 1_555
H16_2 C23_2 1_555 1_555
N5_2 C20_2 1_555 1_555
C23_2 N5_2 1_555 1_555
N5_2 Ga2_2 1_555 1_555
C1_3 H1_3 1_555 1_555
C2_3 C1_3 1_555 1_555
H2_3 C2_3 1_555 1_555
C3_3 C2_3 1_555 1_555
H3_3 C3_3 1_555 1_555
C4_3 C3_3 1_555 1_555
N1_3 C1_3 1_555 1_555
C4_3 N1_3 1_555 1_555
Ag1_3 N3_3 1_555 1_555
C6_3 C5_3 1_555 1_555
C7_3 C6_3 1_555 1_555
H4_3 C7_3 1_555 1_555
C8_3 C7_3 1_555 1_555
H5_3 C8_3 1_555 1_555
C9_3 C8_3 1_555 1_555
H6_3 C9_3 1_555 1_555
C10_3 C5_3 1_555 1_555
C11_3 C10_3 1_555 1_555
C12_3 C11_3 1_555 1_555
H8_3 C12_3 1_555 1_555
C13_3 H9_3 1_555 1_555
C14_3 C10_3 1_555 1_555
H10_3 C14_3 1_555 1_555
C15_3 H11_3 1_555 1_555
C16_3 C15_3 1_555 1_555
H12_3 C16_3 1_555 1_555
C17_3 C16_3 1_555 1_555
H13_3 C17_3 1_555 1_555
C18_3 C17_3 1_555 1_555
C19_3 C18_3 1_555 1_555
C20_3 C19_3 1_555 1_555
C21_3 C20_3 1_555 1_555
H14_3 C21_3 1_555 1_555
C22_3 C21_3 1_555 1_555
H15_3 C22_3 1_555 1_555
C23_3 C22_3 1_555 1_555
H16_3 C23_3 1_555 1_555
C24_3 C19_3 1_555 1_555
C25_3 C24_3 1_555 1_555
H17_3 C25_3 1_555 1_555
C26_3 C25_3 1_555 1_555
H18_3 C26_3 1_555 1_555
C27_3 H19_3 1_555 1_555
C28_3 C24_3 1_555 1_555
H20_3 C28_3 1_555 1_555
C29_3 H21_3 1_555 1_555
C30_3 C29_3 1_555 1_555
H22_3 C30_3 1_555 1_555
C31_3 C30_3 1_555 1_555
H23_3 C31_3 1_555 1_555
C32_3 C31_3 1_555 1_555
C33_3 C32_3 1_555 1_555
C34_3 C33_3 1_555 1_555
C35_3 C34_3 1_555 1_555
H24_3 C35_3 1_555 1_555
C36_3 C35_3 1_555 1_555
H25_3 C36_3 1_555 1_555
C37_3 C36_3 1_555 1_555
H26_3 C37_3 1_555 1_555
C38_3 C33_3 1_555 1_555
C39_3 C38_3 1_555 1_555
H27_3 C39_3 1_555 1_555
C40_3 C39_3 1_555 1_555
H28_3 C40_3 1_555 1_555
C41_3 H29_3 1_555 1_555
C42_3 C38_3 1_555 1_555
H30_3 C42_3 1_555 1_555
N2_3 Ga2_2 1_555 1_555
N3_3 C12_3 1_555 1_555
N10_2 C15_3 1_555 1_555
N11_2 C20_3 1_555 1_555
N6_3 Ag1_3 1_555 1_555
N7_2 C29_3 1_555 1_555
N8_2 C34_3 1_555 1_555
N9_3 Ag1_3 1_555 1_555
Ga2 N7_2 1_555 1_555
N12_2 Ga2_2 1_555 1_555
C6_3 N2_3 1_555 1_555
C9_3 N2_3 1_555 1_555
C13_3 C14_3 1_555 1_555
C13_3 N3_3 1_555 1_555
C18_3 N10_2 1_555 1_555
C23_3 N11_2 1_555 1_555
C26_3 N6_3 1_555 1_555
C27_3 C28_3 1_555 1_555
C27_3 N6_3 1_555 1_555
C32_3 N7_2 1_555 1_555
C37_3 N8_2 1_555 1_555
C40_3 N9_3 1_555 1_555
C41_3 C42_3 1_555 1_555
C41_3 N9_3 1_555 1_555
N8_2 Ga2 1_555 1_555
Ga2 N1_4 1_555 1_555
C1_4 H1_4 1_555 1_555
H6_4 C9_4 1_555 1_555
N1_4 C1_4 1_555 1_555
N2_4 Ga2 1_555 1_555
C9_4 N2_4 1_555 1_555
Ag1_4 N3_4 1_555 1_555
H2_4 C2_4 1_555 1_555
C3_4 C2_4 1_555 1_555
H3_4 C3_4 1_555 1_555
C4_4 C3_4 1_555 1_555
C5_4 C4_4 1_555 1_555
C6_4 C5_4 1_555 1_555
C7_4 C6_4 1_555 1_555
H4_4 C7_4 1_555 1_555
C8_4 C7_4 1_555 1_555
H5_4 C8_4 1_555 1_555
C10_4 C5_4 1_555 1_555
C11_4 C10_4 1_555 1_555
H7_4 C11_4 1_555 1_555
C12_4 C11_4 1_555 1_555
H8_4 C12_4 1_555 1_555
C13_4 H9_4 1_555 1_555
C14_4 C10_4 1_555 1_555
H10_4 C14_4 1_555 1_555
C19_4 C18_4 1_555 1_555
C20_4 C19_4 1_555 1_555
C21_4 C20_4 1_555 1_555
H14_4 C21_4 1_555 1_555
C22_4 C21_4 1_555 1_555
H15_4 C22_4 1_555 1_555
C23_4 C22_4 1_555 1_555
H16_4 C23_4 1_555 1_555
C24_4 C19_4 1_555 1_555
C25_4 C24_4 1_555 1_555
H17_4 C25_4 1_555 1_555
C26_4 C25_4 1_555 1_555
H18_4 C26_4 1_555 1_555
C27_4 H19_4 1_555 1_555
C28_4 C24_4 1_555 1_555
H20_4 C28_4 1_555 1_555
C34_4 C33_4 1_555 1_555
C35_4 C34_4 1_555 1_555
H24_4 C35_4 1_555 1_555
C36_4 C35_4 1_555 1_555
H25_4 C36_4 1_555 1_555
C37_4 C36_4 1_555 1_555
H26_4 C37_4 1_555 1_555
C38_4 C33_4 1_555 1_555
C39_4 C38_4 1_555 1_555
H27_4 C39_4 1_555 1_555
C40_4 C39_4 1_555 1_555
H28_4 C40_4 1_555 1_555
C41_4 H29_4 1_555 1_555
C42_4 C38_4 1_555 1_555
H30_4 C42_4 1_555 1_555
N3_4 C12_4 1_555 1_555
N11 C20_4 1_555 1_555
N6_4 Ag1_4 1_555 1_555
N13_2 C34_4 1_555 1_555
N9_4 Ag1_4 1_555 1_555
C13_4 C14_4 1_555 1_555
C13_4 N3_4 1_555 1_555
C23_4 N11 1_555 1_555
C26_4 N6_4 1_555 1_555
C27_4 C28_4 1_555 1_555
C27_4 N6_4 1_555 1_555
C37_4 N13_2 1_555 1_555
C40_4 N9_4 1_555 1_555
C41_4 C42_4 1_555 1_555
C41_4 N9_4 1_555 1_555
C15_4 H11_4 1_555 1_555
C16_4 C15_4 1_555 1_555
H12_4 C16_4 1_555 1_555
C17_4 C16_4 1_555 1_555
H13_4 C17_4 1_555 1_555
C29_4 H21_4 1_555 1_555
C30_4 C29_4 1_555 1_555
H22_4 C30_4 1_555 1_555
C31_4 C30_4 1_555 1_555
H23_4 C31_4 1_555 1_555
C32_4 C31_4 1_555 1_555
N10 C15_4 1_555 1_555
N12_2 C29_4 1_555 1_555
C32_4 N12_2 1_555 1_555
Ag1_5 N3_5 1_555 1_555
C6_5 C5_5 1_555 1_555
C7_5 C6_5 1_555 1_555
H4_5 C7_5 1_555 1_555
C8_5 C7_5 1_555 1_555
H5_5 C8_5 1_555 1_555
C9_5 C8_5 1_555 1_555
H6_5 C9_5 1_555 1_555
C10_5 C5_5 1_555 1_555
C11_5 C10_5 1_555 1_555
C12_5 C11_5 1_555 1_555
H8_5 C12_5 1_555 1_555
C13_5 H9_5 1_555 1_555
C14_5 C10_5 1_555 1_555
H10_5 C14_5 1_555 1_555
C15_5 H11_5 1_555 1_555
C16_5 C15_5 1_555 1_555
H12_5 C16_5 1_555 1_555
C17_5 C16_5 1_555 1_555
H13_5 C17_5 1_555 1_555
C18_5 C17_5 1_555 1_555
C19_5 C18_5 1_555 1_555
C20_5 C19_5 1_555 1_555
C21_5 C20_5 1_555 1_555
H14_5 C21_5 1_555 1_555
C22_5 C21_5 1_555 1_555
H15_5 C22_5 1_555 1_555
C23_5 C22_5 1_555 1_555
H16_5 C23_5 1_555 1_555
C24_5 C19_5 1_555 1_555
C25_5 C24_5 1_555 1_555
H17_5 C25_5 1_555 1_555
C26_5 C25_5 1_555 1_555
H18_5 C26_5 1_555 1_555
C27_5 H19_5 1_555 1_555
C28_5 C24_5 1_555 1_555
H20_5 C28_5 1_555 1_555
C29_5 H21_5 1_555 1_555
C30_5 C29_5 1_555 1_555
H22_5 C30_5 1_555 1_555
C31_5 C30_5 1_555 1_555
H23_5 C31_5 1_555 1_555
C32_5 C31_5 1_555 1_555
C33_5 C32_5 1_555 1_555
C34_5 C33_5 1_555 1_555
C35_5 C34_5 1_555 1_555
H24_5 C35_5 1_555 1_555
C36_5 C35_5 1_555 1_555
H25_5 C36_5 1_555 1_555
C37_5 C36_5 1_555 1_555
H26_5 C37_5 1_555 1_555
C38_5 C33_5 1_555 1_555
C39_5 C38_5 1_555 1_555
H27_5 C39_5 1_555 1_555
C40_5 C39_5 1_555 1_555
H28_5 C40_5 1_555 1_555
C41_5 H29_5 1_555 1_555
C42_5 C38_5 1_555 1_555
H30_5 C42_5 1_555 1_555
N2_5 Ga1_2 1_555 1_555
N3_5 C12_5 1_555 1_555
N4_3 C15_5 1_555 1_555
N5_3 C20_5 1_555 1_555
N6_5 Ag1_5 1_555 1_555
N7_3 C29_5 1_555 1_555
N8_3 C34_5 1_555 1_555
N9_5 Ag1_5 1_555 1_555
Ga2_3 N4_3 1_555 1_555
Ga3_2 N7_3 1_555 1_555
N11_3 Ga1_2 1_555 1_555
N12_3 Ga1_2 1_555 1_555
C6_5 N2_5 1_555 1_555
C9_5 N2_5 1_555 1_555
C13_5 C14_5 1_555 1_555
C13_5 N3_5 1_555 1_555
C18_5 N4_3 1_555 1_555
C23_5 N5_3 1_555 1_555
C26_5 N6_5 1_555 1_555
C27_5 C28_5 1_555 1_555
C27_5 N6_5 1_555 1_555
C32_5 N7_3 1_555 1_555
C37_5 N8_3 1_555 1_555
C40_5 N9_5 1_555 1_555
C41_5 C42_5 1_555 1_555
C41_5 N9_5 1_555 1_555
N5_3 Ga2_3 1_555 1_555
N8_3 Ga3_2 1_555 1_555
C1_5 H1_5 1_555 1_555
C2_5 C1_5 1_555 1_555
H2_5 C2_5 1_555 1_555
C3_5 C2_5 1_555 1_555
H3_5 C3_5 1_555 1_555
C4_5 C3_5 1_555 1_555
N1_5 C1_5 1_555 1_555
C4_5 N1_5 1_555 1_555
C15_6 H11_6 1_555 1_555
C16_6 C15_6 1_555 1_555
H12_6 C16_6 1_555 1_555
C17_6 C16_6 1_555 1_555
H13_6 C17_6 1_555 1_555
C29_6 H21_6 1_555 1_555
C30_6 C29_6 1_555 1_555
H22_6 C30_6 1_555 1_555
C31_6 C30_6 1_555 1_555
H23_6 C31_6 1_555 1_555
C32_6 C31_6 1_555 1_555
N4_4 C15_6 1_555 1_555
N12_3 C29_6 1_555 1_555
C32_6 N12_3 1_555 1_555
Ag1_6 N3_6 1_555 1_555
H2_6 C2_6 1_555 1_555
C3_6 C2_6 1_555 1_555
H3_6 C3_6 1_555 1_555
C4_6 C3_6 1_555 1_555
C5_6 C4_6 1_555 1_555
C6_6 C5_6 1_555 1_555
C7_6 C6_6 1_555 1_555
H4_6 C7_6 1_555 1_555
C8_6 C7_6 1_555 1_555
H5_6 C8_6 1_555 1_555
C10_6 C5_6 1_555 1_555
C11_6 C10_6 1_555 1_555
H7_6 C11_6 1_555 1_555
C12_6 C11_6 1_555 1_555
H8_6 C12_6 1_555 1_555
C13_6 H9_6 1_555 1_555
C14_6 C10_6 1_555 1_555
H10_6 C14_6 1_555 1_555
C19_6 C18_6 1_555 1_555
C20_6 C19_6 1_555 1_555
C21_6 C20_6 1_555 1_555
H14_6 C21_6 1_555 1_555
C22_6 C21_6 1_555 1_555
H15_6 C22_6 1_555 1_555
C23_6 C22_6 1_555 1_555
H16_6 C23_6 1_555 1_555
C24_6 C19_6 1_555 1_555
C25_6 C24_6 1_555 1_555
H17_6 C25_6 1_555 1_555
C26_6 C25_6 1_555 1_555
H18_6 C26_6 1_555 1_555
C27_6 H19_6 1_555 1_555
C28_6 C24_6 1_555 1_555
H20_6 C28_6 1_555 1_555
C34_6 C33_6 1_555 1_555
C35_6 C34_6 1_555 1_555
H24_6 C35_6 1_555 1_555
C36_6 C35_6 1_555 1_555
H25_6 C36_6 1_555 1_555
C37_6 C36_6 1_555 1_555
H26_6 C37_6 1_555 1_555
C38_6 C33_6 1_555 1_555
C39_6 C38_6 1_555 1_555
H27_6 C39_6 1_555 1_555
C40_6 C39_6 1_555 1_555
H28_6 C40_6 1_555 1_555
C41_6 H29_6 1_555 1_555
C42_6 C38_6 1_555 1_555
H30_6 C42_6 1_555 1_555
N3_6 C12_6 1_555 1_555
N5_4 C20_6 1_555 1_555
N6_6 Ag1_6 1_555 1_555
N13_3 C34_6 1_555 1_555
N9_6 Ag1_6 1_555 1_555
C13_6 C14_6 1_555 1_555
C13_6 N3_6 1_555 1_555
C23_6 N5_4 1_555 1_555
C26_6 N6_6 1_555 1_555
C27_6 C28_6 1_555 1_555
C27_6 N6_6 1_555 1_555
C37_6 N13_3 1_555 1_555
C40_6 N9_6 1_555 1_555
C41_6 C42_6 1_555 1_555
C41_6 N9_6 1_555 1_555
N5_4 Ga2_4 1_555 1_555
Ga3_2 N1_6 1_555 1_555
C1_6 H1_6 1_555 1_555
H6_6 C9_6 1_555 1_555
N1_6 C1_6 1_555 1_555
N2_6 Ga3_2 1_555 1_555
N10_4 Ga3_2 1_555 1_555
N11_4 Ga3_2 1_555 1_555
C9_6 N2_6 1_555 1_555
C1_7 H1_7 1_555 1_555
C2_7 C1_7 1_555 1_555
H2_7 C2_7 1_555 1_555
C3_7 C2_7 1_555 1_555
H3_7 C3_7 1_555 1_555
C4_7 C3_7 1_555 1_555
N1_7 C1_7 1_555 1_555
C4_7 N1_7 1_555 1_555
C15_7 H11_7 1_555 1_555
H15_7 C22_7 1_555 1_555
C23_7 C22_7 1_555 1_555
H16_7 C23_7 1_555 1_555
N10_4 C15_7 1_555 1_555
N11_4 C20_7 1_555 1_555
C23_7 N11_4 1_555 1_555
Ag1_7 N3_7 1_555 1_555
C6_7 C5_7 1_555 1_555
C7_7 C6_7 1_555 1_555
H4_7 C7_7 1_555 1_555
C8_7 C7_7 1_555 1_555
H5_7 C8_7 1_555 1_555
C9_7 C8_7 1_555 1_555
H6_7 C9_7 1_555 1_555
C10_7 C5_7 1_555 1_555
C11_7 C10_7 1_555 1_555
C12_7 C11_7 1_555 1_555
H8_7 C12_7 1_555 1_555
C13_7 H9_7 1_555 1_555
C14_7 C10_7 1_555 1_555
H10_7 C14_7 1_555 1_555
H12_7 C16_7 1_555 1_555
C17_7 C16_7 1_555 1_555
H13_7 C17_7 1_555 1_555
C18_7 C17_7 1_555 1_555
C19_7 C18_7 1_555 1_555
H14_7 C21_7 1_555 1_555
C24_7 C19_7 1_555 1_555
C25_7 C24_7 1_555 1_555
H17_7 C25_7 1_555 1_555
C26_7 C25_7 1_555 1_555
H18_7 C26_7 1_555 1_555
C27_7 H19_7 1_555 1_555
C28_7 C24_7 1_555 1_555
H20_7 C28_7 1_555 1_555
C29_7 H21_7 1_555 1_555
C30_7 C29_7 1_555 1_555
H22_7 C30_7 1_555 1_555
C31_7 C30_7 1_555 1_555
H23_7 C31_7 1_555 1_555
C32_7 C31_7 1_555 1_555
C33_7 C32_7 1_555 1_555
C34_7 C33_7 1_555 1_555
C35_7 C34_7 1_555 1_555
H24_7 C35_7 1_555 1_555
C36_7 C35_7 1_555 1_555
H25_7 C36_7 1_555 1_555
C37_7 C36_7 1_555 1_555
H26_7 C37_7 1_555 1_555
C38_7 C33_7 1_555 1_555
C39_7 C38_7 1_555 1_555
H27_7 C39_7 1_555 1_555
C40_7 C39_7 1_555 1_555
H28_7 C40_7 1_555 1_555
C41_7 H29_7 1_555 1_555
C42_7 C38_7 1_555 1_555
H30_7 C42_7 1_555 1_555
N2_7 Ga2_4 1_555 1_555
N3_7 C12_7 1_555 1_555
N6_7 Ag1_7 1_555 1_555
N7_4 C29_7 1_555 1_555
N8_4 C34_7 1_555 1_555
N9_7 Ag1_7 1_555 1_555
Ga2_3 N7_4 1_555 1_555
N12_4 Ga2_4 1_555 1_555
C6_7 N2_7 1_555 1_555
C9_7 N2_7 1_555 1_555
C13_7 C14_7 1_555 1_555
C13_7 N3_7 1_555 1_555
C26_7 N6_7 1_555 1_555
C27_7 C28_7 1_555 1_555
C27_7 N6_7 1_555 1_555
C32_7 N7_4 1_555 1_555
C37_7 N8_4 1_555 1_555
C40_7 N9_7 1_555 1_555
C41_7 C42_7 1_555 1_555
C41_7 N9_7 1_555 1_555
N8_4 Ga2_3 1_555 1_555
H15_8 C22_8 1_555 1_555
C23_8 C22_8 1_555 1_555
H16_8 C23_8 1_555 1_555
N11_3 C20_8 1_555 1_555
C23_8 N11_3 1_555 1_555
Ag1_8 N3_8 1_555 1_555
H2_8 C2_8 1_555 1_555
C3_8 C2_8 1_555 1_555
H3_8 C3_8 1_555 1_555
C4_8 C3_8 1_555 1_555
C5_8 C4_8 1_555 1_555
C6_8 C5_8 1_555 1_555
C7_8 C6_8 1_555 1_555
H4_8 C7_8 1_555 1_555
C8_8 C7_8 1_555 1_555
H5_8 C8_8 1_555 1_555
C10_8 C5_8 1_555 1_555
C11_8 C10_8 1_555 1_555
H7_8 C11_8 1_555 1_555
C12_8 C11_8 1_555 1_555
H8_8 C12_8 1_555 1_555
C13_8 H9_8 1_555 1_555
C14_8 C10_8 1_555 1_555
H10_8 C14_8 1_555 1_555
C19_8 C18_8 1_555 1_555
H14_8 C21_8 1_555 1_555
C24_8 C19_8 1_555 1_555
C25_8 C24_8 1_555 1_555
H17_8 C25_8 1_555 1_555
C26_8 C25_8 1_555 1_555
H18_8 C26_8 1_555 1_555
C27_8 H19_8 1_555 1_555
C28_8 C24_8 1_555 1_555
H20_8 C28_8 1_555 1_555
C34_8 C33_8 1_555 1_555
C35_8 C34_8 1_555 1_555
H24_8 C35_8 1_555 1_555
C36_8 C35_8 1_555 1_555
H25_8 C36_8 1_555 1_555
C37_8 C36_8 1_555 1_555
H26_8 C37_8 1_555 1_555
C38_8 C33_8 1_555 1_555
C39_8 C38_8 1_555 1_555
H27_8 C39_8 1_555 1_555
C40_8 C39_8 1_555 1_555
H28_8 C40_8 1_555 1_555
C41_8 H29_8 1_555 1_555
C42_8 C38_8 1_555 1_555
H30_8 C42_8 1_555 1_555
N3_8 C12_8 1_555 1_555
N6_8 Ag1_8 1_555 1_555
N13_4 C34_8 1_555 1_555
N9_8 Ag1_8 1_555 1_555
C13_8 C14_8 1_555 1_555
C13_8 N3_8 1_555 1_555
C26_8 N6_8 1_555 1_555
C27_8 C28_8 1_555 1_555
C27_8 N6_8 1_555 1_555
C37_8 N13_4 1_555 1_555
C40_8 N9_8 1_555 1_555
C41_8 C42_8 1_555 1_555
C41_8 N9_8 1_555 1_555
C15_8 H11_8 1_555 1_555
N10_3 C15_8 1_555 1_555
H12_8 C16_8 1_555 1_555
C17_8 C16_8 1_555 1_555
H13_8 C17_8 1_555 1_555
C29_8 H21_8 1_555 1_555
C30_8 C29_8 1_555 1_555
H22_8 C30_8 1_555 1_555
C31_8 C30_8 1_555 1_555
H23_8 C31_8 1_555 1_555
C32_8 C31_8 1_555 1_555
N12_4 C29_8 1_555 1_555
C32_8 N12_4 1_555 1_555
Ga2_3 N1_8 1_555 1_555
C1_8 H1_8 1_555 1_555
H6_8 C9_8 1_555 1_555
N1_8 C1_8 1_555 1_555
N2_8 Ga2_3 1_555 1_555
C9_8 N2_8 1_555 1_555

#END
