
###############################################################################
#
# This file contains modified crystal structure data generated from the
# MOF subset of the Cambridge Structural Database (CSD) v543 
# hosted by the Cambridge Crystallographic Data Centre (CCDC).
#
# This work is licensed under the Creative Commons
# Attribution-NonCommercial-ShareAlike 4.0 International License.
# To view a copy of this license, visit
# http://creativecommons.org/licenses/by-nc-sa/4.0/
# or send a letter to
# Creative Commons, PO Box 1866, Mountain View, CA 94042, USA.
#
# CIF created using the CSD Python API on 29 September 2022
# The structure has been converted into the P1 space group
# The structure has a 3D framework
# The original CSD entry GIWSOX is in the cubic crystal system
# The framework has been calculated to contain at least 10.0% void space
# The void calculation uses a probe of radius 1.32A, grid spacing 0.4
# H atom positions have been added when not included in the experimental data
# Generated hydrogen atom positions removed from atoms on special positions
#
###############################################################################

data_GIWSOX
_chemical_formula_moiety         '(C1488 H3648 O512 Zr96)n'
_symmetry_cell_setting           triclinic
_symmetry_space_group_name_H-M   'P 1'
_symmetry_Int_Tables_number      1
_space_group_name_Hall           'P 1'
loop_
_symmetry_equiv_pos_site_id
_symmetry_equiv_pos_as_xyz
1 x,y,z
_cell_length_a                   44.655(10)
_cell_length_b                   44.655
_cell_length_c                   44.655
_cell_angle_alpha                90
_cell_angle_beta                 90
_cell_angle_gamma                90
_cell_volume                     89045.2
loop_
_atom_site_label
_atom_site_type_symbol
_atom_site_fract_x
_atom_site_fract_y
_atom_site_fract_z
O3 O 0.03099(19) 0.53099(19) 0.03099(19)
O4 O 0.04352(14) 0.50131(11) 0.08612(13)
C1 C -0.0000 0.4290(3) 0.0710(3)
C2 C -0.0000 0.4051(3) 0.0949(3)
C5 C -0.0000 0.3628(2) 0.1372(2)
C6 C -0.0000 0.33905(19) 0.16095(19)
C9 C -0.0000 0.29282(9) 0.20718(9)
C10 C -0.0000 0.27132(7) 0.22868(7)
O6 O 0.02866(9) 0.47346(14) 0.02866(9)
O7 O 0.00131(11) 0.54352(14) 0.08612(13)
Zr5 Zr 0.00011(2) 0.44454(2) 0.00011(2)
O9 O 0.00111(11) 0.41854(13) 0.04166(13)
O16 O 0.00131(11) 0.58612(13) 0.04352(14)
O17 O 0.04352(14) 0.58612(13) 0.00131(11)
O24 O 0.08612(13) 0.54352(14) 0.00131(11)
O25 O 0.08612(13) 0.50131(11) 0.04352(14)
O26 O 0.04166(13) 0.41854(13) 0.00111(11)
C11 C 0.0024(2) 0.4124(3) 0.1254(2)
H4 H 0.0010 0.4329 0.1307
C12 C 0.0066(3) 0.3919(2) 0.1480(3)
H5 H 0.0129 0.3965 0.1678
C13 C 0.02038(14) 0.33578(17) 0.18386(17)
H6 H 0.0361 0.3502 0.1845
C14 C 0.02094(14) 0.31408(16) 0.20629(15)
C16 C 0.04371(15) 0.31408(16) 0.22906(14)
C19 C 0.04282(9) 0.29282(9) 0.2500
C20 C 0.06614(17) 0.33578(17) 0.22962(14)
C21 C 0.02132(7) 0.27132(7) 0.2500
C25 C 0.06408(16) 0.29371(15) 0.27094(14)
C26 C 0.08905(19) 0.33905(19) 0.2500
H8 H 0.0655 0.3502 0.2139
C27 C 0.02132(7) 0.2500 0.27132(7)
C32 C 0.08578(17) 0.31614(17) 0.27038(14)
C33 C 0.06408(16) 0.27094(14) 0.29371(15)
C34 C 0.1128(2) 0.3628(2) 0.2500
C35 C 0.04282(9) 0.2500 0.29282(9)
C36 C 0.0000 0.22868(7) 0.27132(7)
H10 H 0.1002 0.3155 0.2861
C41 C 0.08578(17) 0.27038(14) 0.31614(17)
C42 C 0.1020(3) 0.3919(2) 0.2434(3)
C43 C 0.1419(2) 0.3520(3) 0.2566(3)
C44 C 0.04371(15) 0.22906(14) 0.31408(16)
C45 C 0.0000 0.20718(9) 0.29282(9)
C50 C 0.08905(19) 0.2500 0.33905(19)
H14 H 0.1002 0.2861 0.3155
C51 C 0.1246(2) 0.4124(3) 0.2476(2)
H15 H 0.0822 0.3965 0.2371
C52 C 0.1624(3) 0.3746(2) 0.2524(2)
H16 H 0.1465 0.3322 0.2629
C53 C 0.06614(17) 0.22962(14) 0.33578(17)
C54 C 0.02094(14) 0.20629(15) 0.31408(16)
C59 C 0.1128(2) 0.2500 0.3628(2)
C60 C 0.1551(3) 0.4051(3) 0.2500
H19 H 0.1193 0.4329 0.2490
H20 H 0.1829 0.3693 0.2510
H21 H 0.0655 0.2139 0.3502
C61 C 0.02038(14) 0.18386(17) 0.33578(17)
C66 C 0.1419(2) 0.2566(3) 0.3520(3)
C67 C 0.1020(3) 0.2434(3) 0.3919(2)
C68 C 0.1790(3) 0.4290(3) 0.2500
C69 C -0.0000 0.16095(19) 0.33905(19)
H23 H 0.0361 0.1845 0.3502
C72 C 0.1624(3) 0.2524(2) 0.3746(2)
H27 H 0.1465 0.2629 0.3322
C73 C 0.1246(2) 0.2476(2) 0.4124(3)
H28 H 0.0822 0.2371 0.3965
O35 O 0.20834(13) 0.41854(13) 0.24889(11)
O36 O 0.16854(13) 0.45834(13) 0.25111(11)
C74 C -0.0000 0.1372(2) 0.3628(2)
C76 C 0.1551(3) 0.2500 0.4051(3)
H31 H 0.1829 0.2510 0.3693
H32 H 0.1193 0.2490 0.4329
Zr9 Zr 0.24989(2) 0.44454(2) 0.24989(2)
Zr10 Zr 0.19454(2) 0.49989(2) 0.25011(2)
C78 C 0.0066(3) 0.1480(3) 0.3919(2)
C80 C 0.1790(3) 0.2500 0.4290(3)
C82 C 0.0024(2) 0.1254(2) 0.4124(3)
H34 H 0.0129 0.1678 0.3965
O39 O 0.16854(13) 0.25111(11) 0.45834(13)
O40 O 0.20834(13) 0.24889(11) 0.41854(13)
C83 C -0.0000 0.0949(3) 0.4051(3)
H36 H 0.0010 0.1307 0.4329
Zr13 Zr 0.19454(2) 0.25011(2) 0.49989(2)
Zr14 Zr 0.24989(2) 0.24989(2) 0.44454(2)
C84 C -0.0000 0.0710(3) 0.4290(3)
O42 O 0.00111(11) 0.04166(13) 0.41854(13)
Zr16 Zr 0.00011(2) 0.00011(2) 0.44454(2)
Zr4 Zr 0.05546(2) 0.49989(2) 0.99989(2)
O20 O 0.02866(9) 0.52866(9) 0.97346(14)
O21 O 0.08146(13) 0.45834(13) 0.99889(11)
O22 O 0.02654(14) 0.47134(9) 0.97134(9)
O23 O 0.08146(13) 0.49889(11) 0.95834(13)
Zr6 Zr 0.00011(2) 0.50011(2) 0.94454(2)
O29 O 0.04166(13) 0.50111(11) 0.91854(13)
O30 O 0.00111(11) 0.54166(13) 0.91854(13)
H48 H 0.0473674 0.594479 0.981066
H50 H 0.103897 0.540514 0.988294
H52 H 0.0189338 0.405521 0.952633
H56 H 0.0189338 0.452633 0.905521
Zr1 Zr 0.99989(2) 0.49989(2) 0.05546(2)
O1 O 0.99889(11) 0.45834(13) 0.08146(13)
O2 O 0.97346(14) 0.52866(9) 0.02866(9)
C1_2 C 1.0000 0.4290(3) 0.0710(3)
C2_2 C 1.0000 0.4051(3) 0.0949(3)
C3 C 0.9976(2) 0.3746(2) 0.0876(3)
H1 H 0.9990 0.3693 0.0671
C4 C 0.9934(3) 0.3520(3) 0.1081(2)
C5_2 C 1.0000 0.3628(2) 0.1372(2)
H2 H 0.9871 0.3322 0.1035
C6_2 C 1.0000 0.33905(19) 0.16095(19)
C7 C 0.97962(14) 0.31614(17) 0.16422(17)
H3 H 0.9639 0.3155 0.1498
C8 C 0.97906(14) 0.29371(15) 0.18592(16)
C9_2 C 1.0000 0.29282(9) 0.20718(9)
C10_2 C 1.0000 0.27132(7) 0.22868(7)
O5 O 0.97134(9) 0.47134(9) 0.02654(14)
O8 O 0.95834(13) 0.49889(11) 0.08146(13)
Zr2 Zr 0.94454(2) 0.50011(2) 0.00011(2)
O12 O 0.91854(13) 0.54166(13) 0.00111(11)
O13 O 0.91854(13) 0.50111(11) 0.04166(13)
C15 C 0.95629(15) 0.27094(14) 0.18592(16)
C17 C 0.95718(9) 0.2500 0.20718(9)
C18 C 0.93386(17) 0.27038(14) 0.16422(17)
C22 C 0.97868(7) 0.2500 0.22868(7)
C23 C 0.93592(16) 0.22906(14) 0.20629(15)
C24 C 0.91095(19) 0.2500 0.16095(19)
H7 H 0.9345 0.2861 0.1498
C28 C 0.97868(7) 0.22868(7) 0.2500
C29 C 0.91422(17) 0.22962(14) 0.18386(17)
C30 C 0.93592(16) 0.20629(15) 0.22906(14)
C31 C 0.8872(2) 0.2500 0.1372(2)
C36_2 C 1.0000 0.22868(7) 0.27132(7)
C37 C 0.95718(9) 0.20718(9) 0.2500
H9 H 0.8998 0.2139 0.1845
C38 C 0.91422(17) 0.18386(17) 0.22962(14)
C39 C 0.8581(2) 0.2434(3) 0.1480(3)
C40 C 0.8980(3) 0.2566(3) 0.1081(2)
C45_2 C 1.0000 0.20718(9) 0.29282(9)
C46 C 0.95629(15) 0.18592(16) 0.27094(14)
C47 C 0.91095(19) 0.16095(19) 0.2500
H11 H 0.8998 0.1845 0.2139
C48 C 0.8376(3) 0.2476(2) 0.1254(2)
H12 H 0.8535 0.2371 0.1678
C49 C 0.8754(2) 0.2524(2) 0.0876(3)
H13 H 0.9178 0.2629 0.1035
C55 C 0.97906(14) 0.18592(16) 0.29371(15)
C56 C 0.93386(17) 0.16422(17) 0.27038(14)
C57 C 0.8872(2) 0.1372(2) 0.2500
C58 C 0.8449(3) 0.2500 0.0949(3)
H17 H 0.8171 0.2490 0.1307
H18 H 0.8807 0.2510 0.0671
C62 C 0.97962(14) 0.16422(17) 0.31614(17)
H22 H 0.9345 0.1498 0.2861
C63 C 0.8980(3) 0.1081(2) 0.2566(3)
C64 C 0.8581(2) 0.1480(3) 0.2434(3)
C65 C 0.8210(3) 0.2500 0.0710(3)
C69_2 C 1.0000 0.16095(19) 0.33905(19)
H24 H 0.9639 0.1498 0.3155
C70 C 0.8754(2) 0.0876(3) 0.2524(2)
H25 H 0.9178 0.1035 0.2629
C71 C 0.8376(3) 0.1254(2) 0.2476(2)
H26 H 0.8535 0.1678 0.2371
O33 O 0.83146(13) 0.24889(11) 0.04166(13)
O34 O 0.79166(13) 0.25111(11) 0.08146(13)
C74_2 C 1.0000 0.1372(2) 0.3628(2)
C75 C 0.8449(3) 0.0949(3) 0.2500
H29 H 0.8807 0.0671 0.2510
H30 H 0.8171 0.1307 0.2490
Zr7 Zr 0.80546(2) 0.24989(2) 0.00011(2)
Zr8 Zr 0.75011(2) 0.25011(2) 0.05546(2)
C77 C 0.9934(3) 0.1081(2) 0.3520(3)
C79 C 0.8210(3) 0.0710(3) 0.2500
C81 C 0.9976(2) 0.0876(3) 0.3746(2)
H33 H 0.9871 0.1035 0.3322
O37 O 0.79166(13) 0.08146(13) 0.25111(11)
O38 O 0.83146(13) 0.04166(13) 0.24889(11)
C83_2 C 1.0000 0.0949(3) 0.4051(3)
H35 H 0.9990 0.0671 0.3693
Zr11 Zr 0.75011(2) 0.05546(2) 0.25011(2)
Zr12 Zr 0.80546(2) 0.00011(2) 0.24989(2)
C84_2 C 1.0000 0.0710(3) 0.4290(3)
O41 O 0.99889(11) 0.08146(13) 0.45834(13)
Zr15 Zr 0.99989(2) 0.05546(2) 0.49989(2)
H39 H 0.897217 0.458653 0.013254
Zr3 Zr 0.99989(2) 0.55546(2) 0.99989(2)
O10 O 0.91388(13) 0.49869(11) 0.95648(14)
O11 O 0.91388(13) 0.45648(14) 0.99869(11)
O14 O 0.97134(9) 0.52654(14) 0.97134(9)
O15 O 0.96901(19) 0.46901(19) 0.96901(19)
O18 O 0.95834(13) 0.58146(13) 0.99889(11)
O19 O 0.99889(11) 0.58146(13) 0.95834(13)
O27 O 0.99869(11) 0.41388(13) 0.95648(14)
O28 O 0.95648(14) 0.41388(13) 0.99869(11)
O31 O 0.99869(11) 0.45648(14) 0.91388(13)
O32 O 0.95648(14) 0.49869(11) 0.91388(13)
Zr1_2 Zr 0.50011(2) 0.24989(2) 0.30546(2)
O1_2 O 0.54166(13) 0.24889(11) 0.33146(13)
O2_2 O 0.47134(9) 0.22346(14) 0.27866(9)
O3_2 O 0.46901(19) 0.28099(19) 0.28099(19)
O4_2 O 0.49869(11) 0.29352(14) 0.33612(13)
C1_3 C 0.5710(3) 0.2500 0.3210(3)
C2_3 C 0.5949(3) 0.2500 0.3449(3)
C3_2 C 0.6254(2) 0.2476(2) 0.3376(3)
H1_2 H 0.6307 0.2490 0.3171
C4_2 C 0.6480(3) 0.2434(3) 0.3581(2)
C5_3 C 0.6372(2) 0.2500 0.3872(2)
H2_2 H 0.6678 0.2371 0.3535
C6_3 C 0.66095(19) 0.2500 0.41095(19)
C7_2 C 0.68386(17) 0.22962(14) 0.41422(17)
H3_2 H 0.6845 0.2139 0.3998
C8_2 C 0.70629(15) 0.22906(14) 0.43592(16)
C9_3 C 0.70718(9) 0.2500 0.45718(9)
C10_3 C 0.72868(7) 0.2500 0.47868(7)
O5_2 O 0.52866(9) 0.22134(9) 0.27654(14)
O6_2 O 0.52654(14) 0.27866(9) 0.27866(9)
O7_2 O 0.45648(14) 0.25131(11) 0.33612(13)
O8_2 O 0.50111(11) 0.20834(13) 0.33146(13)
Zr2_2 Zr 0.49989(2) 0.19454(2) 0.25011(2)
Zr3_2 Zr 0.44454(2) 0.24989(2) 0.24989(2)
Zr4_2 Zr 0.50011(2) 0.30546(2) 0.24989(2)
Zr5_2 Zr 0.55546(2) 0.25011(2) 0.25011(2)
O9_2 O 0.58146(13) 0.25111(11) 0.29166(13)
O10_2 O 0.50131(11) 0.16388(13) 0.20648(14)
O11_2 O 0.54352(14) 0.16388(13) 0.24869(11)
O12_2 O 0.45834(13) 0.16854(13) 0.25111(11)
O13_2 O 0.49889(11) 0.16854(13) 0.29166(13)
O14_2 O 0.47346(14) 0.22134(9) 0.22134(9)
O15_2 O 0.53099(19) 0.21901(19) 0.21901(19)
O16_2 O 0.41388(13) 0.25131(11) 0.29352(14)
O17_2 O 0.41388(13) 0.29352(14) 0.25131(11)
O18_2 O 0.41854(13) 0.20834(13) 0.24889(11)
O19_2 O 0.41854(13) 0.24889(11) 0.20834(13)
O20_2 O 0.47134(9) 0.27866(9) 0.22346(14)
O21_2 O 0.54166(13) 0.33146(13) 0.24889(11)
O22_2 O 0.52866(9) 0.27654(14) 0.22134(9)
O23_2 O 0.50111(11) 0.33146(13) 0.20834(13)
O24_2 O 0.45648(14) 0.33612(13) 0.25131(11)
O25_2 O 0.49869(11) 0.33612(13) 0.29352(14)
O26_2 O 0.58146(13) 0.29166(13) 0.25111(11)
O27_2 O 0.58612(13) 0.24869(11) 0.20648(14)
O28_2 O 0.58612(13) 0.20648(14) 0.24869(11)
C11_2 C 0.5876(3) 0.2524(2) 0.3754(2)
Zr6_2 Zr 0.49989(2) 0.25011(2) 0.19454(2)
H4_2 H 0.5671 0.2510 0.3807
C12_2 C 0.6081(2) 0.2566(3) 0.3980(3)
O29_2 O 0.49889(11) 0.29166(13) 0.16854(13)
O30_2 O 0.45834(13) 0.25111(11) 0.16854(13)
O31_2 O 0.54352(14) 0.24869(11) 0.16388(13)
O32_2 O 0.50131(11) 0.20648(14) 0.16388(13)
H5_2 H 0.6035 0.2629 0.4178
C13_2 C 0.66422(17) 0.27038(14) 0.43386(17)
H6_2 H 0.6498 0.2861 0.4345
C14_2 C 0.68592(16) 0.27094(14) 0.45629(15)
C15_2 C 0.72906(14) 0.20629(15) 0.43592(16)
C16_2 C 0.68592(16) 0.29371(15) 0.47906(14)
C17_2 C 0.7500 0.20718(9) 0.45718(9)
C18_2 C 0.72962(14) 0.18386(17) 0.41422(17)
C19_2 C 0.70718(9) 0.29282(9) 0.5000
C20_2 C 0.66422(17) 0.31614(17) 0.47962(14)
C21_2 C 0.72868(7) 0.27132(7) 0.5000
C22_2 C 0.7500 0.22868(7) 0.47868(7)
C23_2 C 0.77094(14) 0.18592(16) 0.45629(15)
C24_2 C 0.7500 0.16095(19) 0.41095(19)
H7_2 H 0.7139 0.1845 0.3998
C25_2 C 0.70629(15) 0.31408(16) 0.52094(14)
C26_2 C 0.66095(19) 0.33905(19) 0.5000
H8_2 H 0.6498 0.3155 0.4639
C27_2 C 0.7500 0.27132(7) 0.52132(7)
C28_2 C 0.77132(7) 0.22868(7) 0.5000
C29_2 C 0.77038(14) 0.16422(17) 0.43386(17)
C30_2 C 0.79371(15) 0.18592(16) 0.47906(14)
C31_2 C 0.7500 0.1372(2) 0.3872(2)
C32_2 C 0.68386(17) 0.33578(17) 0.52038(14)
C33_2 C 0.72906(14) 0.31408(16) 0.54371(15)
C34_2 C 0.6372(2) 0.3628(2) 0.5000
C35_2 C 0.7500 0.29282(9) 0.54282(9)
C36_3 C 0.77132(7) 0.2500 0.52132(7)
C37_2 C 0.79282(9) 0.20718(9) 0.5000
H9_2 H 0.7861 0.1498 0.4345
C38_2 C 0.81614(17) 0.16422(17) 0.47962(14)
C39_2 C 0.7566(3) 0.1081(2) 0.3980(3)
C40_2 C 0.7434(3) 0.1480(3) 0.3581(2)
H10_2 H 0.6845 0.3502 0.5361
C41_2 C 0.72962(14) 0.33578(17) 0.56614(17)
C42_2 C 0.6081(2) 0.3520(3) 0.4934(3)
C43_2 C 0.6480(3) 0.3919(2) 0.5066(3)
C44_2 C 0.77094(14) 0.29371(15) 0.56408(16)
C45_3 C 0.79282(9) 0.2500 0.54282(9)
C46_2 C 0.81408(16) 0.20629(15) 0.52094(14)
C47_2 C 0.83905(19) 0.16095(19) 0.5000
H11_2 H 0.8155 0.1498 0.4639
C48_2 C 0.7524(2) 0.0876(3) 0.3754(2)
H12_2 H 0.7629 0.1035 0.4178
C49_2 C 0.7476(2) 0.1254(2) 0.3376(3)
H13_2 H 0.7371 0.1678 0.3535
C50_2 C 0.7500 0.33905(19) 0.58905(19)
H14_2 H 0.7139 0.3502 0.5655
C51_2 C 0.5876(3) 0.3746(2) 0.4976(2)
H15_2 H 0.6035 0.3322 0.4871
C52_2 C 0.6254(2) 0.4124(3) 0.5024(2)
H16_2 H 0.6678 0.3965 0.5129
C53_2 C 0.77038(14) 0.31614(17) 0.58578(17)
C54_2 C 0.79371(15) 0.27094(14) 0.56408(16)
C55_2 C 0.81408(16) 0.22906(14) 0.54371(15)
C56_2 C 0.83578(17) 0.18386(17) 0.52038(14)
C57_2 C 0.8628(2) 0.1372(2) 0.5000
C58_2 C 0.7500 0.0949(3) 0.3449(3)
H17_2 H 0.7510 0.0671 0.3807
H18_2 H 0.7490 0.1307 0.3171
C59_2 C 0.7500 0.3628(2) 0.6128(2)
C60_2 C 0.5949(3) 0.4051(3) 0.5000
H19_2 H 0.5671 0.3693 0.4990
H20_2 H 0.6307 0.4329 0.5010
H21_2 H 0.7861 0.3155 0.6002
C61_2 C 0.81614(17) 0.27038(14) 0.58578(17)
C62_2 C 0.83578(17) 0.22962(14) 0.56614(17)
H22_2 H 0.8502 0.1845 0.5361
C63_2 C 0.8919(2) 0.1480(3) 0.5066(3)
C64_2 C 0.8520(3) 0.1081(2) 0.4934(3)
C65_2 C 0.7500 0.0710(3) 0.3210(3)
C66_2 C 0.7434(3) 0.3919(2) 0.6020(3)
C67_2 C 0.7566(3) 0.3520(3) 0.6419(2)
C68_2 C 0.5710(3) 0.4290(3) 0.5000
C69_3 C 0.83905(19) 0.2500 0.58905(19)
H23_2 H 0.8155 0.2861 0.6002
H24_2 H 0.8502 0.2139 0.5655
C70_2 C 0.9124(3) 0.1254(2) 0.5024(2)
H25_2 H 0.8965 0.1678 0.5129
C71_2 C 0.8746(2) 0.0876(3) 0.4976(2)
H26_2 H 0.8322 0.1035 0.4871
O33_2 O 0.75111(11) 0.08146(13) 0.29166(13)
O34_2 O 0.74889(11) 0.04166(13) 0.33146(13)
C72_2 C 0.7476(2) 0.4124(3) 0.6246(2)
H27_2 H 0.7371 0.3965 0.5822
C73_2 C 0.7524(2) 0.3746(2) 0.6624(3)
H28_2 H 0.7629 0.3322 0.6465
O35_2 O 0.58146(13) 0.45834(13) 0.49889(11)
O36_2 O 0.54166(13) 0.41854(13) 0.50111(11)
C74_3 C 0.8628(2) 0.2500 0.6128(2)
C75_2 C 0.9051(3) 0.0949(3) 0.5000
H29_2 H 0.9329 0.1307 0.5010
H30_2 H 0.8693 0.0671 0.4990
Zr8_2 Zr 0.74989(2) 0.00011(2) 0.30546(2)
C76_2 C 0.7500 0.4051(3) 0.6551(3)
H31_2 H 0.7490 0.4329 0.6193
H32_2 H 0.7510 0.3693 0.6829
Zr9_2 Zr 0.55546(2) 0.49989(2) 0.49989(2)
Zr10_2 Zr 0.50011(2) 0.44454(2) 0.50011(2)
C77_2 C 0.8919(2) 0.2434(3) 0.6020(3)
C78_2 C 0.8520(3) 0.2566(3) 0.6419(2)
C79_2 C 0.9290(3) 0.0710(3) 0.5000
C80_2 C 0.7500 0.4290(3) 0.6790(3)
C81_2 C 0.9124(3) 0.2476(2) 0.6246(2)
H33_2 H 0.8965 0.2371 0.5822
C82_2 C 0.8746(2) 0.2524(2) 0.6624(3)
H34_2 H 0.8322 0.2629 0.6465
O37_2 O 0.91854(13) 0.04166(13) 0.50111(11)
O38_2 O 0.95834(13) 0.08146(13) 0.49889(11)
O39_2 O 0.74889(11) 0.41854(13) 0.70834(13)
O40_2 O 0.75111(11) 0.45834(13) 0.66854(13)
C83_3 C 0.9051(3) 0.2500 0.6551(3)
H35_2 H 0.9329 0.2490 0.6193
H36_2 H 0.8693 0.2510 0.6829
Zr11_2 Zr 0.94454(2) 0.00011(2) 0.50011(2)
Zr13_2 Zr 0.74989(2) 0.44454(2) 0.74989(2)
Zr14_2 Zr 0.75011(2) 0.49989(2) 0.69454(2)
C84_3 C 0.9290(3) 0.2500 0.6790(3)
O41_2 O 0.91854(13) 0.24889(11) 0.70834(13)
O42_2 O 0.95834(13) 0.25111(11) 0.66854(13)
Zr15_2 Zr 0.94454(2) 0.24989(2) 0.74989(2)
Zr16_2 Zr 0.99989(2) 0.25011(2) 0.69454(2)
C17_3 C 0.29282(9) 0.0000 0.20718(9)
C22_3 C 0.27132(7) 0.0000 0.22868(7)
C23_3 C 0.31408(16) 0.02094(14) 0.20629(15)
C24_3 C 0.33905(19) -0.0000 0.16095(19)
C27_3 C 0.22868(7) 0.0000 0.27132(7)
C28_3 C 0.27132(7) 0.02132(7) 0.2500
C29_3 C 0.33578(17) 0.02038(14) 0.18386(17)
C30_3 C 0.31408(16) 0.04371(15) 0.22906(14)
C31_3 C 0.3628(2) 0.0000 0.1372(2)
C35_3 C 0.20718(9) 0.0000 0.29282(9)
C36_4 C 0.2500 0.02132(7) 0.27132(7)
C37_3 C 0.29282(9) 0.04282(9) 0.2500
H9_3 H 0.3502 0.0361 0.1845
C38_3 C 0.33578(17) 0.06614(17) 0.22962(14)
C39_3 C 0.3919(2) 0.0066(3) 0.1480(3)
C44_3 C 0.20629(15) 0.02094(14) 0.31408(16)
C45_4 C 0.2500 0.04282(9) 0.29282(9)
C46_3 C 0.29371(15) 0.06408(16) 0.27094(14)
C47_3 C 0.33905(19) 0.08905(19) 0.2500
H11_3 H 0.3502 0.0655 0.2139
C48_3 C 0.4124(3) 0.0024(2) 0.1254(2)
H12_3 H 0.3965 0.0129 0.1678
C50_3 C 0.16095(19) -0.0000 0.33905(19)
C53_3 C 0.18386(17) 0.02038(14) 0.33578(17)
C54_3 C 0.22906(14) 0.04371(15) 0.31408(16)
C55_3 C 0.27094(14) 0.06408(16) 0.29371(15)
C56_3 C 0.31614(17) 0.08578(17) 0.27038(14)
C57_3 C 0.3628(2) 0.1128(2) 0.2500
C58_3 C 0.4051(3) 0.0000 0.0949(3)
H17_3 H 0.4329 0.0010 0.1307
C59_3 C 0.1372(2) -0.0000 0.3628(2)
H21_3 H 0.1845 0.0361 0.3502
C61_3 C 0.22962(14) 0.06614(17) 0.33578(17)
C62_3 C 0.27038(14) 0.08578(17) 0.31614(17)
H22_3 H 0.3155 0.1002 0.2861
C63_3 C 0.3520(3) 0.1419(2) 0.2566(3)
C64_3 C 0.3919(2) 0.1020(3) 0.2434(3)
C65_3 C 0.4290(3) -0.0000 0.0710(3)
C67_3 C 0.1480(3) 0.0066(3) 0.3919(2)
C69_4 C 0.2500 0.08905(19) 0.33905(19)
H23_3 H 0.2139 0.0655 0.3502
H24_3 H 0.2861 0.1002 0.3155
C70_3 C 0.3746(2) 0.1624(3) 0.2524(2)
H25_3 H 0.3322 0.1465 0.2629
C71_3 C 0.4124(3) 0.1246(2) 0.2476(2)
H26_3 H 0.3965 0.0822 0.2371
O33_3 O 0.41854(13) 0.00111(11) 0.04166(13)
C73_3 C 0.1254(2) 0.0024(2) 0.4124(3)
H28_3 H 0.1678 0.0129 0.3965
C74_4 C 0.2500 0.1128(2) 0.3628(2)
C75_3 C 0.4051(3) 0.1551(3) 0.2500
H29_3 H 0.3693 0.1829 0.2510
H30_3 H 0.4329 0.1193 0.2490
Zr7_2 Zr 0.44454(2) 0.00011(2) 0.00011(2)
C76_3 C 0.0949(3) -0.0000 0.4051(3)
H32_3 H 0.1307 0.0010 0.4329
C77_3 C 0.2566(3) 0.1419(2) 0.3520(3)
C78_3 C 0.2434(3) 0.1020(3) 0.3919(2)
C79_3 C 0.4290(3) 0.1790(3) 0.2500
C80_3 C 0.0710(3) -0.0000 0.4290(3)
C81_3 C 0.2524(2) 0.1624(3) 0.3746(2)
H33_3 H 0.2629 0.1465 0.3322
C82_3 C 0.2476(2) 0.1246(2) 0.4124(3)
H34_3 H 0.2371 0.0822 0.3965
O40_3 O 0.04166(13) 0.00111(11) 0.41854(13)
C83_4 C 0.2500 0.1551(3) 0.4051(3)
H35_3 H 0.2510 0.1829 0.3693
H36_3 H 0.2490 0.1193 0.4329
C84_4 C 0.2500 0.1790(3) 0.4290(3)
O41_3 O 0.25111(11) 0.16854(13) 0.45834(13)
O42_3 O 0.24889(11) 0.20834(13) 0.41854(13)
Zr15_3 Zr 0.25011(2) 0.19454(2) 0.49989(2)
Zr1_3 Zr 0.25011(2) 0.75011(2) 0.05546(2)
O1_3 O 0.25111(11) 0.79166(13) 0.08146(13)
O2_3 O 0.27654(14) 0.72134(9) 0.02866(9)
O3_3 O 0.21901(19) 0.71901(19) 0.03099(19)
O4_3 O 0.20648(14) 0.74869(11) 0.08612(13)
C1_4 C 0.2500 0.8210(3) 0.0710(3)
C2_4 C 0.2500 0.8449(3) 0.0949(3)
C3_3 C 0.2524(2) 0.8754(2) 0.0876(3)
H1_3 H 0.2510 0.8807 0.0671
C4_3 C 0.2566(3) 0.8980(3) 0.1081(2)
C5_4 C 0.2500 0.8872(2) 0.1372(2)
H2_3 H 0.2629 0.9178 0.1035
C6_4 C 0.2500 0.91095(19) 0.16095(19)
C7_3 C 0.27038(14) 0.93386(17) 0.16422(17)
H3_3 H 0.2861 0.9345 0.1498
C8_3 C 0.27094(14) 0.95629(15) 0.18592(16)
C9_4 C 0.2500 0.95718(9) 0.20718(9)
C10_4 C 0.2500 0.97868(7) 0.22868(7)
O5_3 O 0.27866(9) 0.77866(9) 0.02654(14)
O6_3 O 0.22134(9) 0.77654(14) 0.02866(9)
O7_3 O 0.24869(11) 0.70648(14) 0.08612(13)
O8_3 O 0.29166(13) 0.75111(11) 0.08146(13)
Zr2_3 Zr 0.30546(2) 0.74989(2) 0.00011(2)
Zr5_3 Zr 0.24989(2) 0.80546(2) 0.00011(2)
O9_3 O 0.24889(11) 0.83146(13) 0.04166(13)
O12_3 O 0.33146(13) 0.70834(13) 0.00111(11)
O13_3 O 0.33146(13) 0.74889(11) 0.04166(13)
O16_3 O 0.24869(11) 0.66388(13) 0.04352(14)
O17_3 O 0.20648(14) 0.66388(13) 0.00131(11)
O24_3 O 0.16388(13) 0.70648(14) 0.00131(11)
O25_3 O 0.16388(13) 0.74869(11) 0.04352(14)
O26_3 O 0.20834(13) 0.83146(13) 0.00111(11)
C11_3 C 0.2476(2) 0.8376(3) 0.1254(2)
H4_3 H 0.2490 0.8171 0.1307
C12_3 C 0.2434(3) 0.8581(2) 0.1480(3)
H5_3 H 0.2371 0.8535 0.1678
C13_3 C 0.22962(14) 0.91422(17) 0.18386(17)
H6_3 H 0.2139 0.8998 0.1845
C14_3 C 0.22906(14) 0.93592(16) 0.20629(15)
C15_3 C 0.29371(15) 0.97906(14) 0.18592(16)
C16_3 C 0.20629(15) 0.93592(16) 0.22906(14)
C17_4 C 0.29282(9) 1.0000 0.20718(9)
C18_3 C 0.31614(17) 0.97962(14) 0.16422(17)
C19_3 C 0.20718(9) 0.95718(9) 0.2500
C20_3 C 0.18386(17) 0.91422(17) 0.22962(14)
C21_3 C 0.22868(7) 0.97868(7) 0.2500
C22_4 C 0.27132(7) 1.0000 0.22868(7)
C24_4 C 0.33905(19) 1.0000 0.16095(19)
H7_3 H 0.3155 0.9639 0.1498
C25_3 C 0.18592(16) 0.95629(15) 0.27094(14)
C26_3 C 0.16095(19) 0.91095(19) 0.2500
H8_3 H 0.1845 0.8998 0.2139
C27_4 C 0.22868(7) 1.0000 0.27132(7)
C31_4 C 0.3628(2) 1.0000 0.1372(2)
C32_3 C 0.16422(17) 0.93386(17) 0.27038(14)
C33_3 C 0.18592(16) 0.97906(14) 0.29371(15)
C34_3 C 0.1372(2) 0.8872(2) 0.2500
C35_4 C 0.20718(9) 1.0000 0.29282(9)
C40_3 C 0.3520(3) 0.9934(3) 0.1081(2)
H10_3 H 0.1498 0.9345 0.2861
C41_3 C 0.16422(17) 0.97962(14) 0.31614(17)
C42_3 C 0.1480(3) 0.8581(2) 0.2434(3)
C43_3 C 0.1081(2) 0.8980(3) 0.2566(3)
C49_3 C 0.3746(2) 0.9976(2) 0.0876(3)
H13_3 H 0.3322 0.9871 0.1035
C50_4 C 0.16095(19) 1.0000 0.33905(19)
H14_3 H 0.1498 0.9639 0.3155
C51_3 C 0.1254(2) 0.8376(3) 0.2476(2)
H15_3 H 0.1678 0.8535 0.2371
C52_3 C 0.0876(3) 0.8754(2) 0.2524(2)
H16_3 H 0.1035 0.9178 0.2629
C58_4 C 0.4051(3) 1.0000 0.0949(3)
H18_3 H 0.3693 0.9990 0.0671
C59_4 C 0.1372(2) 1.0000 0.3628(2)
C60_3 C 0.0949(3) 0.8449(3) 0.2500
H19_3 H 0.1307 0.8171 0.2490
H20_3 H 0.0671 0.8807 0.2510
C65_4 C 0.4290(3) 1.0000 0.0710(3)
C66_3 C 0.1081(2) 0.9934(3) 0.3520(3)
C68_3 C 0.0710(3) 0.8210(3) 0.2500
O34_3 O 0.45834(13) 0.99889(11) 0.08146(13)
C72_3 C 0.0876(3) 0.9976(2) 0.3746(2)
H27_3 H 0.1035 0.9871 0.3322
O35_3 O 0.04166(13) 0.83146(13) 0.24889(11)
O36_3 O 0.08146(13) 0.79166(13) 0.25111(11)
Zr8_3 Zr 0.49989(2) 0.99989(2) 0.05546(2)
C76_4 C 0.0949(3) 1.0000 0.4051(3)
H31_3 H 0.0671 0.9990 0.3693
Zr9_3 Zr 0.00011(2) 0.80546(2) 0.24989(2)
Zr10_3 Zr 0.05546(2) 0.75011(2) 0.25011(2)
C80_4 C 0.0710(3) 1.0000 0.4290(3)
O39_3 O 0.08146(13) 0.99889(11) 0.45834(13)
Zr13_3 Zr 0.05546(2) 0.99989(2) 0.49989(2)
H39_2 H 0.352783 0.791347 0.013254
Zr3_3 Zr 0.25011(2) 0.69454(2) 0.99989(2)
Zr4_3 Zr 0.19454(2) 0.75011(2) 0.99989(2)
O10_3 O 0.33612(13) 0.75131(11) 0.95648(14)
O11_3 O 0.33612(13) 0.79352(14) 0.99869(11)
O14_3 O 0.27866(9) 0.72346(14) 0.97134(9)
O15_3 O 0.28099(19) 0.78099(19) 0.96901(19)
O18_3 O 0.29166(13) 0.66854(13) 0.99889(11)
O19_3 O 0.25111(11) 0.66854(13) 0.95834(13)
O20_3 O 0.22134(9) 0.72134(9) 0.97346(14)
O21_3 O 0.16854(13) 0.79166(13) 0.99889(11)
O22_3 O 0.22346(14) 0.77866(9) 0.97134(9)
O23_3 O 0.16854(13) 0.75111(11) 0.95834(13)
O27_3 O 0.25131(11) 0.83612(13) 0.95648(14)
O28_3 O 0.29352(14) 0.83612(13) 0.99869(11)
Zr6_3 Zr 0.24989(2) 0.74989(2) 0.94454(2)
O29_3 O 0.20834(13) 0.74889(11) 0.91854(13)
O30_3 O 0.24889(11) 0.70834(13) 0.91854(13)
O31_3 O 0.25131(11) 0.79352(14) 0.91388(13)
O32_3 O 0.29352(14) 0.75131(11) 0.91388(13)
H48_2 H 0.202633 0.655521 0.981066
H50_2 H 0.146103 0.709486 0.988294
O1_4 O 0.70834(13) 0.00111(11) 0.33146(13)
O2_4 O 0.77866(9) 0.02654(14) 0.27866(9)
C1_5 C 0.6790(3) 0.0000 0.3210(3)
C2_5 C 0.6551(3) 0.0000 0.3449(3)
C3_4 C 0.6246(2) 0.0024(2) 0.3376(3)
H1_4 H 0.6193 0.0010 0.3171
C4_4 C 0.6020(3) 0.0066(3) 0.3581(2)
C5_5 C 0.6128(2) 0.0000 0.3872(2)
H2_4 H 0.5822 0.0129 0.3535
C6_5 C 0.58905(19) 0.0000 0.41095(19)
C7_4 C 0.56614(17) 0.02038(14) 0.41422(17)
H3_4 H 0.5655 0.0361 0.3998
C8_4 C 0.54371(15) 0.02094(14) 0.43592(16)
C9_5 C 0.54282(9) 0.0000 0.45718(9)
C10_5 C 0.52132(7) 0.0000 0.47868(7)
O5_4 O 0.72134(9) 0.02866(9) 0.27654(14)
O10_4 O 0.74869(11) 0.08612(13) 0.20648(14)
O11_4 O 0.70648(14) 0.08612(13) 0.24869(11)
O14_4 O 0.77654(14) 0.02866(9) 0.22134(9)
O15_4 O 0.71901(19) 0.03099(19) 0.21901(19)
O19_4 O 0.83146(13) 0.00111(11) 0.20834(13)
O27_4 O 0.66388(13) 0.00131(11) 0.20648(14)
O28_4 O 0.66388(13) 0.04352(14) 0.24869(11)
O31_4 O 0.70648(14) 0.00131(11) 0.16388(13)
O32_4 O 0.74869(11) 0.04352(14) 0.16388(13)
C15_4 C 0.52094(14) 0.04371(15) 0.43592(16)
C17_5 C 0.5000 0.04282(9) 0.45718(9)
C18_4 C 0.52038(14) 0.06614(17) 0.41422(17)
C22_5 C 0.5000 0.02132(7) 0.47868(7)
C23_4 C 0.47906(14) 0.06408(16) 0.45629(15)
C24_5 C 0.5000 0.08905(19) 0.41095(19)
H7_4 H 0.5361 0.0655 0.3998
C28_4 C 0.47868(7) 0.02132(7) 0.5000
C29_4 C 0.47962(14) 0.08578(17) 0.43386(17)
C30_4 C 0.45629(15) 0.06408(16) 0.47906(14)
C31_5 C 0.5000 0.1128(2) 0.3872(2)
C36_5 C 0.47868(7) 0.0000 0.52132(7)
C37_4 C 0.45718(9) 0.04282(9) 0.5000
H9_4 H 0.4639 0.1002 0.4345
C38_4 C 0.43386(17) 0.08578(17) 0.47962(14)
C39_4 C 0.4934(3) 0.1419(2) 0.3980(3)
C40_4 C 0.5066(3) 0.1020(3) 0.3581(2)
C45_5 C 0.45718(9) 0.0000 0.54282(9)
C46_4 C 0.43592(16) 0.04371(15) 0.52094(14)
C47_4 C 0.41095(19) 0.08905(19) 0.5000
H11_4 H 0.4345 0.1002 0.4639
C48_4 C 0.4976(2) 0.1624(3) 0.3754(2)
H12_4 H 0.4871 0.1465 0.4178
C49_4 C 0.5024(2) 0.1246(2) 0.3376(3)
H13_4 H 0.5129 0.0822 0.3535
C55_4 C 0.43592(16) 0.02094(14) 0.54371(15)
C56_4 C 0.41422(17) 0.06614(17) 0.52038(14)
C57_4 C 0.3872(2) 0.1128(2) 0.5000
C58_5 C 0.5000 0.1551(3) 0.3449(3)
H17_4 H 0.4990 0.1829 0.3807
H18_4 H 0.5010 0.1193 0.3171
C62_4 C 0.41422(17) 0.02038(14) 0.56614(17)
H22_4 H 0.3998 0.0655 0.5361
C63_4 C 0.3581(2) 0.1020(3) 0.5066(3)
C64_4 C 0.3980(3) 0.1419(2) 0.4934(3)
C65_5 C 0.5000 0.1790(3) 0.3210(3)
C69_5 C 0.41095(19) 0.0000 0.58905(19)
H24_4 H 0.3998 0.0361 0.5655
C70_4 C 0.3376(3) 0.1246(2) 0.5024(2)
H25_4 H 0.3535 0.0822 0.5129
C71_4 C 0.3754(2) 0.1624(3) 0.4976(2)
H26_4 H 0.4178 0.1465 0.4871
C74_5 C 0.3872(2) 0.0000 0.6128(2)
C75_4 C 0.3449(3) 0.1551(3) 0.5000
H29_4 H 0.3171 0.1193 0.5010
H30_4 H 0.3807 0.1829 0.4990
C77_4 C 0.3581(2) 0.0066(3) 0.6020(3)
C79_4 C 0.3210(3) 0.1790(3) 0.5000
C81_4 C 0.3376(3) 0.0024(2) 0.6246(2)
H33_4 H 0.3535 0.0129 0.5822
O37_3 O 0.33146(13) 0.20834(13) 0.50111(11)
O38_3 O 0.29166(13) 0.16854(13) 0.49889(11)
C83_5 C 0.3449(3) -0.0000 0.6551(3)
H35_4 H 0.3171 0.0010 0.6193
Zr11_3 Zr 0.30546(2) 0.24989(2) 0.50011(2)
C84_5 C 0.3210(3) 0.0000 0.6790(3)
O41_4 O 0.33146(13) 0.00111(11) 0.70834(13)
Zr15_4 Zr 0.30546(2) 0.00011(2) 0.74989(2)
O3_4 O 0.78099(19) 0.96901(19) 0.28099(19)
O4_4 O 0.75131(11) 0.95648(14) 0.33612(13)
C1_6 C 0.6790(3) 1.0000 0.3210(3)
C2_6 C 0.6551(3) 1.0000 0.3449(3)
C5_6 C 0.6128(2) 1.0000 0.3872(2)
C6_6 C 0.58905(19) 1.0000 0.41095(19)
C9_6 C 0.54282(9) 1.0000 0.45718(9)
C10_6 C 0.52132(7) 1.0000 0.47868(7)
O6_4 O 0.72346(14) 0.97134(9) 0.27866(9)
O7_4 O 0.79352(14) 0.99869(11) 0.33612(13)
Zr4_4 Zr 0.74989(2) 0.94454(2) 0.24989(2)
Zr5_4 Zr 0.69454(2) 0.99989(2) 0.25011(2)
O9_4 O 0.66854(13) 0.99889(11) 0.29166(13)
O16_4 O 0.83612(13) 0.99869(11) 0.29352(14)
O17_4 O 0.83612(13) 0.95648(14) 0.25131(11)
O20_4 O 0.77866(9) 0.97134(9) 0.22346(14)
O21_4 O 0.70834(13) 0.91854(13) 0.24889(11)
O22_4 O 0.72134(9) 0.97346(14) 0.22134(9)
O23_4 O 0.74889(11) 0.91854(13) 0.20834(13)
O24_4 O 0.79352(14) 0.91388(13) 0.25131(11)
O25_4 O 0.75131(11) 0.91388(13) 0.29352(14)
O26_4 O 0.66854(13) 0.95834(13) 0.25111(11)
C11_4 C 0.6624(3) 0.9976(2) 0.3754(2)
Zr6_4 Zr 0.75011(2) 0.99989(2) 0.19454(2)
H4_4 H 0.6829 0.9990 0.3807
C12_4 C 0.6419(2) 0.9934(3) 0.3980(3)
O29_4 O 0.75111(11) 0.95834(13) 0.16854(13)
O30_4 O 0.79166(13) 0.99889(11) 0.16854(13)
H5_4 H 0.6465 0.9871 0.4178
C13_4 C 0.58578(17) 0.97962(14) 0.43386(17)
H6_4 H 0.6002 0.9639 0.4345
C14_4 C 0.56408(16) 0.97906(14) 0.45629(15)
C16_4 C 0.56408(16) 0.95629(15) 0.47906(14)
C19_4 C 0.54282(9) 0.95718(9) 0.5000
C20_4 C 0.58578(17) 0.93386(17) 0.47962(14)
C21_4 C 0.52132(7) 0.97868(7) 0.5000
C25_4 C 0.54371(15) 0.93592(16) 0.52094(14)
C26_4 C 0.58905(19) 0.91095(19) 0.5000
H8_4 H 0.6002 0.9345 0.4639
C27_5 C 0.5000 0.97868(7) 0.52132(7)
C32_4 C 0.56614(17) 0.91422(17) 0.52038(14)
C33_4 C 0.52094(14) 0.93592(16) 0.54371(15)
C34_4 C 0.6128(2) 0.8872(2) 0.5000
C35_5 C 0.5000 0.95718(9) 0.54282(9)
C36_6 C 0.47868(7) 1.0000 0.52132(7)
H10_4 H 0.5655 0.8998 0.5361
C41_4 C 0.52038(14) 0.91422(17) 0.56614(17)
C42_4 C 0.6419(2) 0.8980(3) 0.4934(3)
C43_4 C 0.6020(3) 0.8581(2) 0.5066(3)
C44_4 C 0.47906(14) 0.95629(15) 0.56408(16)
C45_6 C 0.45718(9) 1.0000 0.54282(9)
C50_5 C 0.5000 0.91095(19) 0.58905(19)
H14_4 H 0.5361 0.8998 0.5655
C51_4 C 0.6624(3) 0.8754(2) 0.4976(2)
H15_4 H 0.6465 0.9178 0.4871
C52_4 C 0.6246(2) 0.8376(3) 0.5024(2)
H16_4 H 0.5822 0.8535 0.5129
C53_4 C 0.47962(14) 0.93386(17) 0.58578(17)
C54_4 C 0.45629(15) 0.97906(14) 0.56408(16)
C59_5 C 0.5000 0.8872(2) 0.6128(2)
C60_4 C 0.6551(3) 0.8449(3) 0.5000
H19_4 H 0.6829 0.8807 0.4990
H20_4 H 0.6193 0.8171 0.5010
H21_4 H 0.4639 0.9345 0.6002
C61_4 C 0.43386(17) 0.97962(14) 0.58578(17)
C66_4 C 0.5066(3) 0.8581(2) 0.6020(3)
C67_4 C 0.4934(3) 0.8980(3) 0.6419(2)
C68_4 C 0.6790(3) 0.8210(3) 0.5000
C69_6 C 0.41095(19) 1.0000 0.58905(19)
H23_4 H 0.4345 0.9639 0.6002
C72_4 C 0.5024(2) 0.8376(3) 0.6246(2)
H27_4 H 0.5129 0.8535 0.5822
C73_4 C 0.4976(2) 0.8754(2) 0.6624(3)
H28_4 H 0.4871 0.9178 0.6465
O35_4 O 0.66854(13) 0.79166(13) 0.49889(11)
O36_4 O 0.70834(13) 0.83146(13) 0.50111(11)
C74_6 C 0.3872(2) 1.0000 0.6128(2)
C76_5 C 0.5000 0.8449(3) 0.6551(3)
H31_4 H 0.5010 0.8171 0.6193
H32_4 H 0.4990 0.8807 0.6829
Zr9_4 Zr 0.69454(2) 0.75011(2) 0.49989(2)
Zr10_4 Zr 0.74989(2) 0.80546(2) 0.50011(2)
C78_4 C 0.3980(3) 0.9934(3) 0.6419(2)
C80_5 C 0.5000 0.8210(3) 0.6790(3)
C82_4 C 0.3754(2) 0.9976(2) 0.6624(3)
H34_4 H 0.4178 0.9871 0.6465
O39_4 O 0.50111(11) 0.83146(13) 0.70834(13)
O40_4 O 0.49889(11) 0.79166(13) 0.66854(13)
C83_6 C 0.3449(3) 1.0000 0.6551(3)
H36_4 H 0.3807 0.9990 0.6829
Zr13_4 Zr 0.50011(2) 0.80546(2) 0.74989(2)
Zr14_3 Zr 0.49989(2) 0.75011(2) 0.69454(2)
C84_6 C 0.3210(3) 1.0000 0.6790(3)
O42_4 O 0.29166(13) 0.99889(11) 0.66854(13)
Zr16_3 Zr 0.25011(2) 0.99989(2) 0.69454(2)
H52_2 H 0.655521 0.981066 0.202633
H56_2 H 0.702633 0.981066 0.155521
Zr3_4 Zr 0.24989(2) 0.00011(2) 0.80546(2)
O10_5 O 0.16388(13) 0.04352(14) 0.74869(11)
O11_5 O 0.16388(13) 0.00131(11) 0.70648(14)
O14_5 O 0.22134(9) 0.02866(9) 0.77654(14)
O15_5 O 0.21901(19) 0.03099(19) 0.71901(19)
O18_4 O 0.20834(13) 0.00111(11) 0.83146(13)
O19_5 O 0.24889(11) 0.04166(13) 0.83146(13)
O20_5 O 0.27866(9) 0.02654(14) 0.77866(9)
O22_5 O 0.27654(14) 0.02866(9) 0.72134(9)
O23_5 O 0.33146(13) 0.04166(13) 0.74889(11)
O27_5 O 0.24869(11) 0.04352(14) 0.66388(13)
O28_5 O 0.20648(14) 0.00131(11) 0.66388(13)
Zr6_5 Zr 0.25011(2) 0.05546(2) 0.75011(2)
O29_5 O 0.29166(13) 0.08146(13) 0.75111(11)
O30_5 O 0.25111(11) 0.08146(13) 0.79166(13)
O31_5 O 0.24869(11) 0.08612(13) 0.70648(14)
O32_5 O 0.20648(14) 0.08612(13) 0.74869(11)
H48_3 H 0.297367 0.0189338 0.844479
H50_3 H 0.353897 0.0117062 0.790514
Zr1_4 Zr 0.24989(2) 0.94454(2) 0.74989(2)
O1_5 O 0.24889(11) 0.91854(13) 0.70834(13)
O2_5 O 0.22346(14) 0.97134(9) 0.77866(9)
O3_5 O 0.28099(19) 0.96901(19) 0.78099(19)
O4_5 O 0.29352(14) 0.91388(13) 0.75131(11)
C1_7 C 0.2500 0.9290(3) 0.6790(3)
C2_7 C 0.2500 0.9051(3) 0.6551(3)
C3_5 C 0.2476(2) 0.9124(3) 0.6246(2)
H1_5 H 0.2490 0.9329 0.6193
C4_5 C 0.2434(3) 0.8919(2) 0.6020(3)
C5_7 C 0.2500 0.8628(2) 0.6128(2)
H2_5 H 0.2371 0.8965 0.5822
C6_7 C 0.2500 0.83905(19) 0.58905(19)
C7_5 C 0.22962(14) 0.83578(17) 0.56614(17)
H3_5 H 0.2139 0.8502 0.5655
C8_5 C 0.22906(14) 0.81408(16) 0.54371(15)
C9_7 C 0.2500 0.79282(9) 0.54282(9)
C10_7 C 0.2500 0.77132(7) 0.52132(7)
O5_5 O 0.22134(9) 0.97346(14) 0.72134(9)
O6_5 O 0.27866(9) 0.97134(9) 0.72346(14)
O7_5 O 0.25131(11) 0.91388(13) 0.79352(14)
O8_4 O 0.20834(13) 0.91854(13) 0.74889(11)
Zr2_4 Zr 0.19454(2) 0.99989(2) 0.75011(2)
O9_5 O 0.25111(11) 0.95834(13) 0.66854(13)
O12_4 O 0.16854(13) 0.99889(11) 0.79166(13)
O13_4 O 0.16854(13) 0.95834(13) 0.75111(11)
O16_5 O 0.25131(11) 0.95648(14) 0.83612(13)
O17_5 O 0.29352(14) 0.99869(11) 0.83612(13)
O24_5 O 0.33612(13) 0.99869(11) 0.79352(14)
O25_5 O 0.33612(13) 0.95648(14) 0.75131(11)
C11_5 C 0.2524(2) 0.8746(2) 0.6624(3)
H4_5 H 0.2510 0.8693 0.6829
C12_5 C 0.2566(3) 0.8520(3) 0.6419(2)
H5_5 H 0.2629 0.8322 0.6465
C13_5 C 0.27038(14) 0.81614(17) 0.58578(17)
H6_5 H 0.2861 0.8155 0.6002
C14_5 C 0.27094(14) 0.79371(15) 0.56408(16)
C15_5 C 0.20629(15) 0.81408(16) 0.52094(14)
C16_5 C 0.29371(15) 0.77094(14) 0.56408(16)
C17_6 C 0.20718(9) 0.79282(9) 0.5000
C18_5 C 0.18386(17) 0.83578(17) 0.52038(14)
C19_5 C 0.29282(9) 0.7500 0.54282(9)
C20_5 C 0.31614(17) 0.77038(14) 0.58578(17)
C21_5 C 0.27132(7) 0.7500 0.52132(7)
C22_6 C 0.22868(7) 0.77132(7) 0.5000
C23_5 C 0.18592(16) 0.79371(15) 0.47906(14)
C24_6 C 0.16095(19) 0.83905(19) 0.5000
H7_5 H 0.1845 0.8502 0.5361
C25_5 C 0.31408(16) 0.72906(14) 0.54371(15)
C26_5 C 0.33905(19) 0.7500 0.58905(19)
H8_5 H 0.3155 0.7861 0.6002
C27_6 C 0.27132(7) 0.72868(7) 0.5000
C28_5 C 0.22868(7) 0.7500 0.47868(7)
C29_5 C 0.16422(17) 0.81614(17) 0.47962(14)
C30_5 C 0.18592(16) 0.77094(14) 0.45629(15)
C31_6 C 0.1372(2) 0.8628(2) 0.5000
C32_5 C 0.33578(17) 0.72962(14) 0.56614(17)
C33_5 C 0.31408(16) 0.70629(15) 0.52094(14)
C34_5 C 0.3628(2) 0.7500 0.6128(2)
C35_6 C 0.29282(9) 0.70718(9) 0.5000
C36_7 C 0.2500 0.72868(7) 0.47868(7)
C37_5 C 0.20718(9) 0.7500 0.45718(9)
H9_5 H 0.1498 0.8155 0.4639
C38_5 C 0.16422(17) 0.77038(14) 0.43386(17)
C39_5 C 0.1081(2) 0.8520(3) 0.4934(3)
C40_5 C 0.1480(3) 0.8919(2) 0.5066(3)
H10_5 H 0.3502 0.7139 0.5655
C41_5 C 0.33578(17) 0.68386(17) 0.52038(14)
C42_5 C 0.3520(3) 0.7566(3) 0.6419(2)
C43_5 C 0.3919(2) 0.7434(3) 0.6020(3)
C44_5 C 0.29371(15) 0.68592(16) 0.47906(14)
C45_7 C 0.2500 0.70718(9) 0.45718(9)
C46_5 C 0.20629(15) 0.72906(14) 0.43592(16)
C47_5 C 0.16095(19) 0.7500 0.41095(19)
H11_5 H 0.1498 0.7861 0.4345
C48_5 C 0.0876(3) 0.8746(2) 0.4976(2)
H12_5 H 0.1035 0.8322 0.4871
C49_5 C 0.1254(2) 0.9124(3) 0.5024(2)
H13_5 H 0.1678 0.8965 0.5129
C50_6 C 0.33905(19) 0.66095(19) 0.5000
H14_5 H 0.3502 0.6845 0.5361
C51_5 C 0.3746(2) 0.7524(2) 0.6624(3)
H15_5 H 0.3322 0.7629 0.6465
C52_5 C 0.4124(3) 0.7476(2) 0.6246(2)
H16_5 H 0.3965 0.7371 0.5822
C53_5 C 0.31614(17) 0.66422(17) 0.47962(14)
C54_5 C 0.27094(14) 0.68592(16) 0.45629(15)
C55_5 C 0.22906(14) 0.70629(15) 0.43592(16)
C56_5 C 0.18386(17) 0.72962(14) 0.41422(17)
C57_5 C 0.1372(2) 0.7500 0.3872(2)
C58_6 C 0.0949(3) 0.9051(3) 0.5000
H17_5 H 0.0671 0.8693 0.4990
H18_5 H 0.1307 0.9329 0.5010
C59_6 C 0.3628(2) 0.6372(2) 0.5000
C60_5 C 0.4051(3) 0.7500 0.6551(3)
H19_5 H 0.3693 0.7510 0.6829
H20_5 H 0.4329 0.7490 0.6193
H21_5 H 0.3155 0.6498 0.4639
C61_5 C 0.27038(14) 0.66422(17) 0.43386(17)
C62_5 C 0.22962(14) 0.68386(17) 0.41422(17)
H22_5 H 0.1845 0.7139 0.3998
C63_5 C 0.1480(3) 0.7434(3) 0.3581(2)
C64_5 C 0.1081(2) 0.7566(3) 0.3980(3)
C65_6 C 0.0710(3) 0.9290(3) 0.5000
C66_5 C 0.3919(2) 0.6480(3) 0.5066(3)
C67_5 C 0.3520(3) 0.6081(2) 0.4934(3)
C68_5 C 0.4290(3) 0.7500 0.6790(3)
C69_7 C 0.2500 0.66095(19) 0.41095(19)
H23_5 H 0.2861 0.6498 0.4345
H24_5 H 0.2139 0.6845 0.3998
C70_5 C 0.1254(2) 0.7476(2) 0.3376(3)
H25_5 H 0.1678 0.7371 0.3535
C71_5 C 0.0876(3) 0.7524(2) 0.3754(2)
H26_5 H 0.1035 0.7629 0.4178
O33_4 O 0.08146(13) 0.95834(13) 0.49889(11)
O34_4 O 0.04166(13) 0.91854(13) 0.50111(11)
C72_5 C 0.4124(3) 0.6254(2) 0.5024(2)
H27_5 H 0.3965 0.6678 0.5129
C73_5 C 0.3746(2) 0.5876(3) 0.4976(2)
H28_5 H 0.3322 0.6035 0.4871
O35_5 O 0.45834(13) 0.75111(11) 0.66854(13)
O36_5 O 0.41854(13) 0.74889(11) 0.70834(13)
C74_7 C 0.2500 0.6372(2) 0.3872(2)
C75_5 C 0.0949(3) 0.7500 0.3449(3)
H29_5 H 0.1307 0.7490 0.3171
H30_5 H 0.0671 0.7510 0.3807
Zr8_4 Zr 0.00011(2) 0.94454(2) 0.50011(2)
C76_6 C 0.4051(3) 0.5949(3) 0.5000
H31_5 H 0.4329 0.6307 0.5010
H32_5 H 0.3693 0.5671 0.4990
Zr10_5 Zr 0.44454(2) 0.74989(2) 0.74989(2)
C77_5 C 0.2434(3) 0.6480(3) 0.3581(2)
C78_5 C 0.2566(3) 0.6081(2) 0.3980(3)
C79_5 C 0.0710(3) 0.7500 0.3210(3)
C80_6 C 0.4290(3) 0.5710(3) 0.5000
C81_5 C 0.2476(2) 0.6254(2) 0.3376(3)
H33_5 H 0.2371 0.6678 0.3535
C82_5 C 0.2524(2) 0.5876(3) 0.3754(2)
H34_5 H 0.2629 0.6035 0.4178
O37_4 O 0.04166(13) 0.74889(11) 0.33146(13)
O38_4 O 0.08146(13) 0.75111(11) 0.29166(13)
O39_5 O 0.41854(13) 0.54166(13) 0.50111(11)
O40_5 O 0.45834(13) 0.58146(13) 0.49889(11)
C83_7 C 0.2500 0.5949(3) 0.3449(3)
H35_5 H 0.2490 0.6307 0.3171
H36_5 H 0.2510 0.5671 0.3807
Zr11_4 Zr 0.00011(2) 0.74989(2) 0.30546(2)
Zr13_5 Zr 0.44454(2) 0.50011(2) 0.50011(2)
Zr14_4 Zr 0.49989(2) 0.55546(2) 0.49989(2)
C84_7 C 0.2500 0.5710(3) 0.3210(3)
O41_5 O 0.24889(11) 0.54166(13) 0.33146(13)
O42_5 O 0.25111(11) 0.58146(13) 0.29166(13)
Zr15_5 Zr 0.24989(2) 0.50011(2) 0.30546(2)
Zr16_4 Zr 0.25011(2) 0.55546(2) 0.25011(2)
H39_3 H 0.147217 0.986746 0.708653
C27_7 C 0.02132(7) 0.0000 0.97868(7)
C35_7 C 0.04282(9) 0.0000 0.95718(9)
C36_8 C 0.0000 0.02132(7) 0.97868(7)
C44_6 C 0.04371(15) 0.02094(14) 0.93592(16)
C45_8 C 0.0000 0.04282(9) 0.95718(9)
C50_7 C 0.08905(19) -0.0000 0.91095(19)
C53_6 C 0.06614(17) 0.02038(14) 0.91422(17)
C54_6 C 0.02094(14) 0.04371(15) 0.93592(16)
C59_7 C 0.1128(2) -0.0000 0.8872(2)
H21_6 H 0.0655 0.0361 0.8998
C61_6 C 0.02038(14) 0.06614(17) 0.91422(17)
C67_6 C 0.1020(3) 0.0066(3) 0.8581(2)
C69_8 C -0.0000 0.08905(19) 0.91095(19)
H23_6 H 0.0361 0.0655 0.8998
C73_6 C 0.1246(2) 0.0024(2) 0.8376(3)
H28_6 H 0.0822 0.0129 0.8535
C74_8 C 0.0000 0.1128(2) 0.8872(2)
C76_7 C 0.1551(3) -0.0000 0.8449(3)
H32_6 H 0.1193 0.0010 0.8171
C78_6 C 0.0066(3) 0.1020(3) 0.8581(2)
C80_7 C 0.1790(3) -0.0000 0.8210(3)
C82_6 C 0.0024(2) 0.1246(2) 0.8376(3)
H34_6 H 0.0129 0.0822 0.8535
C83_8 C -0.0000 0.1551(3) 0.8449(3)
H36_6 H 0.0010 0.1193 0.8171
C84_8 C -0.0000 0.1790(3) 0.8210(3)
O42_6 O 0.00111(11) 0.20834(13) 0.83146(13)
Zr16_5 Zr 0.00011(2) 0.24989(2) 0.80546(2)
O3_6 O 0.03099(19) 0.71901(19) 0.21901(19)
O4_6 O 0.04352(14) 0.74869(11) 0.16388(13)
C1_8 C -0.0000 0.8210(3) 0.1790(3)
C2_8 C -0.0000 0.8449(3) 0.1551(3)
C5_8 C 0.0000 0.8872(2) 0.1128(2)
C6_8 C 0.0000 0.91095(19) 0.08905(19)
C9_8 C 0.0000 0.95718(9) 0.04282(9)
C10_8 C 0.0000 0.97868(7) 0.02132(7)
O6_6 O 0.02866(9) 0.77654(14) 0.22134(9)
O7_6 O 0.00131(11) 0.70648(14) 0.16388(13)
O9_6 O 0.00111(11) 0.83146(13) 0.20834(13)
O16_6 O 0.00131(11) 0.66388(13) 0.20648(14)
O17_6 O 0.04352(14) 0.66388(13) 0.24869(11)
O20_6 O 0.02866(9) 0.72134(9) 0.27654(14)
O22_6 O 0.02654(14) 0.77866(9) 0.27866(9)
O24_6 O 0.08612(13) 0.70648(14) 0.24869(11)
O25_6 O 0.08612(13) 0.74869(11) 0.20648(14)
C11_6 C 0.0024(2) 0.8376(3) 0.1246(2)
H4_6 H 0.0010 0.8171 0.1193
C12_6 C 0.0066(3) 0.8581(2) 0.1020(3)
O30_6 O 0.00111(11) 0.70834(13) 0.33146(13)
H5_6 H 0.0129 0.8535 0.0822
C13_6 C 0.02038(14) 0.91422(17) 0.06614(17)
H6_6 H 0.0361 0.8998 0.0655
C14_6 C 0.02094(14) 0.93592(16) 0.04371(15)
C16_6 C 0.04371(15) 0.93592(16) 0.02094(14)
C19_6 C 0.04282(9) 0.95718(9) 0.0000
C20_6 C 0.06614(17) 0.91422(17) 0.02038(14)
C21_6 C 0.02132(7) 0.97868(7) 0.0000
C26_6 C 0.08905(19) 0.91095(19) 0.0000
H8_6 H 0.0655 0.8998 0.0361
C34_6 C 0.1128(2) 0.8872(2) 0.0000
C42_6 C 0.1020(3) 0.8581(2) 0.0066(3)
C51_6 C 0.1246(2) 0.8376(3) 0.0024(2)
H15_6 H 0.0822 0.8535 0.0129
C60_6 C 0.1551(3) 0.8449(3) 0.0000
H19_6 H 0.1193 0.8171 0.0010
C68_6 C 0.1790(3) 0.8210(3) 0.0000
H52_3 H 0.0189338 0.844479 0.297367
H56_3 H 0.0189338 0.797367 0.344479
C19_7 C 0.04282(9) 0.95718(9) 1.0000
C21_7 C 0.02132(7) 0.97868(7) 1.0000
C25_6 C 0.06408(16) 0.95629(15) 0.97906(14)
C26_7 C 0.08905(19) 0.91095(19) 1.0000
C27_8 C 0.02132(7) 1.0000 0.97868(7)
C32_6 C 0.08578(17) 0.93386(17) 0.97962(14)
C33_6 C 0.06408(16) 0.97906(14) 0.95629(15)
C34_7 C 0.1128(2) 0.8872(2) 1.0000
C35_8 C 0.04282(9) 1.0000 0.95718(9)
H10_6 H 0.1002 0.9345 0.9639
C41_6 C 0.08578(17) 0.97962(14) 0.93386(17)
C43_6 C 0.1419(2) 0.8980(3) 0.9934(3)
C50_8 C 0.08905(19) 1.0000 0.91095(19)
H14_6 H 0.1002 0.9639 0.9345
C52_6 C 0.1624(3) 0.8754(2) 0.9976(2)
H16_6 H 0.1465 0.9178 0.9871
C59_8 C 0.1128(2) 1.0000 0.8872(2)
C60_7 C 0.1551(3) 0.8449(3) 1.0000
H20_6 H 0.1829 0.8807 0.9990
C66_6 C 0.1419(2) 0.9934(3) 0.8980(3)
C68_7 C 0.1790(3) 0.8210(3) 1.0000
C72_6 C 0.1624(3) 0.9976(2) 0.8754(2)
H27_6 H 0.1465 0.9871 0.9178
C76_8 C 0.1551(3) 1.0000 0.8449(3)
H31_6 H 0.1829 0.9990 0.8807
C80_8 C 0.1790(3) 1.0000 0.8210(3)
C17_7 C 0.95718(9) 0.0000 0.04282(9)
C22_7 C 0.97868(7) 0.0000 0.02132(7)
C23_6 C 0.93592(16) 0.02094(14) 0.04371(15)
C24_7 C 0.91095(19) 0.0000 0.08905(19)
C28_6 C 0.97868(7) 0.02132(7) 0.0000
C29_6 C 0.91422(17) 0.02038(14) 0.06614(17)
C30_6 C 0.93592(16) 0.04371(15) 0.02094(14)
C31_7 C 0.8872(2) -0.0000 0.1128(2)
C37_6 C 0.95718(9) 0.04282(9) 0.0000
H9_6 H 0.8998 0.0361 0.0655
C38_6 C 0.91422(17) 0.06614(17) 0.02038(14)
C39_6 C 0.8581(2) 0.0066(3) 0.1020(3)
C47_6 C 0.91095(19) 0.08905(19) 0.0000
H11_6 H 0.8998 0.0655 0.0361
C48_6 C 0.8376(3) 0.0024(2) 0.1246(2)
H12_6 H 0.8535 0.0129 0.0822
C57_6 C 0.8872(2) 0.1128(2) 0.0000
C58_7 C 0.8449(3) -0.0000 0.1551(3)
H17_6 H 0.8171 0.0010 0.1193
C64_6 C 0.8581(2) 0.1020(3) 0.0066(3)
C65_7 C 0.8210(3) -0.0000 0.1790(3)
C71_6 C 0.8376(3) 0.1246(2) 0.0024(2)
H26_6 H 0.8535 0.0822 0.0129
C75_6 C 0.8449(3) 0.1551(3) 0.0000
H30_6 H 0.8171 0.1193 0.0010
C79_6 C 0.8210(3) 0.1790(3) 0.0000
O38_5 O 0.83146(13) 0.20834(13) 0.00111(11)
C28_7 C 0.97868(7) 0.02132(7) 1.0000
C36_9 C 1.0000 0.02132(7) 0.97868(7)
C37_7 C 0.95718(9) 0.04282(9) 1.0000
C45_9 C 1.0000 0.04282(9) 0.95718(9)
C46_6 C 0.95629(15) 0.06408(16) 0.97906(14)
C47_7 C 0.91095(19) 0.08905(19) 1.0000
C55_6 C 0.97906(14) 0.06408(16) 0.95629(15)
C56_6 C 0.93386(17) 0.08578(17) 0.97962(14)
C57_7 C 0.8872(2) 0.1128(2) 1.0000
C62_6 C 0.97962(14) 0.08578(17) 0.93386(17)
H22_6 H 0.9345 0.1002 0.9639
C63_6 C 0.8980(3) 0.1419(2) 0.9934(3)
C69_9 C 1.0000 0.08905(19) 0.91095(19)
H24_6 H 0.9639 0.1002 0.9345
C70_6 C 0.8754(2) 0.1624(3) 0.9976(2)
H25_6 H 0.9178 0.1465 0.9871
C74_9 C 1.0000 0.1128(2) 0.8872(2)
C75_7 C 0.8449(3) 0.1551(3) 1.0000
H29_6 H 0.8807 0.1829 0.9990
C77_6 C 0.9934(3) 0.1419(2) 0.8980(3)
C79_7 C 0.8210(3) 0.1790(3) 1.0000
C81_6 C 0.9976(2) 0.1624(3) 0.8754(2)
H33_6 H 0.9871 0.1465 0.9178
O37_5 O 0.79166(13) 0.16854(13) 0.99889(11)
C83_9 C 1.0000 0.1551(3) 0.8449(3)
H35_6 H 0.9990 0.1829 0.8807
Zr11_5 Zr 0.75011(2) 0.19454(2) 0.99989(2)
C84_9 C 1.0000 0.1790(3) 0.8210(3)
O41_6 O 0.99889(11) 0.16854(13) 0.79166(13)
Zr15_6 Zr 0.99989(2) 0.19454(2) 0.75011(2)
Zr1_5 Zr 0.99989(2) 0.75011(2) 0.19454(2)
O1_6 O 0.99889(11) 0.79166(13) 0.16854(13)
O2_6 O 0.97346(14) 0.72134(9) 0.22134(9)
C1_9 C 1.0000 0.8210(3) 0.1790(3)
C2_9 C 1.0000 0.8449(3) 0.1551(3)
C3_6 C 0.9976(2) 0.8754(2) 0.1624(3)
H1_6 H 0.9990 0.8807 0.1829
C4_6 C 0.9934(3) 0.8980(3) 0.1419(2)
C5_9 C 1.0000 0.8872(2) 0.1128(2)
H2_6 H 0.9871 0.9178 0.1465
C6_9 C 1.0000 0.91095(19) 0.08905(19)
C7_6 C 0.97962(14) 0.93386(17) 0.08578(17)
H3_6 H 0.9639 0.9345 0.1002
C8_6 C 0.97906(14) 0.95629(15) 0.06408(16)
C9_9 C 1.0000 0.95718(9) 0.04282(9)
C10_9 C 1.0000 0.97868(7) 0.02132(7)
O5_6 O 0.97134(9) 0.77866(9) 0.22346(14)
O8_5 O 0.95834(13) 0.75111(11) 0.16854(13)
Zr2_5 Zr 0.94454(2) 0.74989(2) 0.24989(2)
Zr3_5 Zr 0.99989(2) 0.69454(2) 0.25011(2)
O10_6 O 0.91388(13) 0.75131(11) 0.29352(14)
O11_6 O 0.91388(13) 0.79352(14) 0.25131(11)
O12_5 O 0.91854(13) 0.70834(13) 0.24889(11)
O13_5 O 0.91854(13) 0.74889(11) 0.20834(13)
O14_6 O 0.97134(9) 0.72346(14) 0.27866(9)
O15_6 O 0.96901(19) 0.78099(19) 0.28099(19)
O18_5 O 0.95834(13) 0.66854(13) 0.25111(11)
O19_6 O 0.99889(11) 0.66854(13) 0.29166(13)
O27_6 O 0.99869(11) 0.83612(13) 0.29352(14)
O28_6 O 0.95648(14) 0.83612(13) 0.25131(11)
O31_6 O 0.99869(11) 0.79352(14) 0.33612(13)
O32_6 O 0.95648(14) 0.75131(11) 0.33612(13)
C15_6 C 0.95629(15) 0.97906(14) 0.06408(16)
C17_8 C 0.95718(9) 1.0000 0.04282(9)
C18_6 C 0.93386(17) 0.97962(14) 0.08578(17)
C22_8 C 0.97868(7) 1.0000 0.02132(7)
C24_8 C 0.91095(19) 1.0000 0.08905(19)
H7_6 H 0.9345 0.9639 0.1002
C31_8 C 0.8872(2) 1.0000 0.1128(2)
C40_6 C 0.8980(3) 0.9934(3) 0.1419(2)
C49_6 C 0.8754(2) 0.9976(2) 0.1624(3)
H13_6 H 0.9178 0.9871 0.1465
C58_8 C 0.8449(3) 1.0000 0.1551(3)
H18_6 H 0.8807 0.9990 0.1829
C65_8 C 0.8210(3) 1.0000 0.1790(3)
Zr1_6 Zr 0.24989(2) 0.30546(2) 0.50011(2)
O1_7 O 0.24889(11) 0.33146(13) 0.54166(13)
O2_7 O 0.22346(14) 0.27866(9) 0.47134(9)
O3_7 O 0.28099(19) 0.28099(19) 0.46901(19)
O4_7 O 0.29352(14) 0.33612(13) 0.49869(11)
C1_10 C 0.2500 0.3210(3) 0.5710(3)
C2_10 C 0.2500 0.3449(3) 0.5949(3)
C3_7 C 0.2476(2) 0.3376(3) 0.6254(2)
H1_7 H 0.2490 0.3171 0.6307
C4_7 C 0.2434(3) 0.3581(2) 0.6480(3)
C5_10 C 0.2500 0.3872(2) 0.6372(2)
H2_7 H 0.2371 0.3535 0.6678
C6_10 C 0.2500 0.41095(19) 0.66095(19)
C7_7 C 0.22962(14) 0.41422(17) 0.68386(17)
H3_7 H 0.2139 0.3998 0.6845
C8_7 C 0.22906(14) 0.43592(16) 0.70629(15)
C9_10 C 0.2500 0.45718(9) 0.70718(9)
C10_10 C 0.2500 0.47868(7) 0.72868(7)
O5_7 O 0.22134(9) 0.27654(14) 0.52866(9)
O6_7 O 0.27866(9) 0.27866(9) 0.52654(14)
O7_7 O 0.25131(11) 0.33612(13) 0.45648(14)
O8_6 O 0.20834(13) 0.33146(13) 0.50111(11)
Zr5_5 Zr 0.25011(2) 0.25011(2) 0.55546(2)
O9_7 O 0.25111(11) 0.29166(13) 0.58146(13)
O10_7 O 0.16388(13) 0.20648(14) 0.50131(11)
O11_7 O 0.16388(13) 0.24869(11) 0.54352(14)
O13_6 O 0.16854(13) 0.29166(13) 0.49889(11)
O14_7 O 0.22134(9) 0.22134(9) 0.47346(14)
O15_7 O 0.21901(19) 0.21901(19) 0.53099(19)
O16_7 O 0.25131(11) 0.29352(14) 0.41388(13)
O17_7 O 0.29352(14) 0.25131(11) 0.41388(13)
O20_7 O 0.27866(9) 0.22346(14) 0.47134(9)
O21_5 O 0.33146(13) 0.24889(11) 0.54166(13)
O22_7 O 0.27654(14) 0.22134(9) 0.52866(9)
O24_7 O 0.33612(13) 0.25131(11) 0.45648(14)
O25_7 O 0.33612(13) 0.29352(14) 0.49869(11)
O26_5 O 0.29166(13) 0.25111(11) 0.58146(13)
O27_7 O 0.24869(11) 0.20648(14) 0.58612(13)
O28_7 O 0.20648(14) 0.24869(11) 0.58612(13)
C11_7 C 0.2524(2) 0.3754(2) 0.5876(3)
H4_7 H 0.2510 0.3807 0.5671
C12_7 C 0.2566(3) 0.3980(3) 0.6081(2)
O31_7 O 0.24869(11) 0.16388(13) 0.54352(14)
O32_7 O 0.20648(14) 0.16388(13) 0.50131(11)
H5_7 H 0.2629 0.4178 0.6035
C13_7 C 0.27038(14) 0.43386(17) 0.66422(17)
H6_7 H 0.2861 0.4345 0.6498
C14_7 C 0.27094(14) 0.45629(15) 0.68592(16)
C15_7 C 0.20629(15) 0.43592(16) 0.72906(14)
C16_7 C 0.29371(15) 0.47906(14) 0.68592(16)
C17_9 C 0.20718(9) 0.45718(9) 0.7500
C18_7 C 0.18386(17) 0.41422(17) 0.72962(14)
C19_8 C 0.29282(9) 0.5000 0.70718(9)
C20_7 C 0.31614(17) 0.47962(14) 0.66422(17)
C21_8 C 0.27132(7) 0.5000 0.72868(7)
C22_9 C 0.22868(7) 0.47868(7) 0.7500
C23_7 C 0.18592(16) 0.45629(15) 0.77094(14)
C24_9 C 0.16095(19) 0.41095(19) 0.7500
H7_7 H 0.1845 0.3998 0.7139
C25_7 C 0.31408(16) 0.52094(14) 0.70629(15)
C26_8 C 0.33905(19) 0.5000 0.66095(19)
H8_7 H 0.3155 0.4639 0.6498
C27_9 C 0.27132(7) 0.52132(7) 0.7500
C28_8 C 0.22868(7) 0.5000 0.77132(7)
C29_7 C 0.16422(17) 0.43386(17) 0.77038(14)
C30_7 C 0.18592(16) 0.47906(14) 0.79371(15)
C31_9 C 0.1372(2) 0.3872(2) 0.7500
C32_7 C 0.33578(17) 0.52038(14) 0.68386(17)
C33_7 C 0.31408(16) 0.54371(15) 0.72906(14)
C34_8 C 0.3628(2) 0.5000 0.6372(2)
C35_9 C 0.29282(9) 0.54282(9) 0.7500
C36_10 C 0.2500 0.52132(7) 0.77132(7)
C37_8 C 0.20718(9) 0.5000 0.79282(9)
H9_7 H 0.1498 0.4345 0.7861
C38_7 C 0.16422(17) 0.47962(14) 0.81614(17)
C39_7 C 0.1081(2) 0.3980(3) 0.7566(3)
C40_7 C 0.1480(3) 0.3581(2) 0.7434(3)
H10_7 H 0.3502 0.5361 0.6845
C41_7 C 0.33578(17) 0.56614(17) 0.72962(14)
C42_7 C 0.3520(3) 0.4934(3) 0.6081(2)
C43_7 C 0.3919(2) 0.5066(3) 0.6480(3)
C44_7 C 0.29371(15) 0.56408(16) 0.77094(14)
C45_10 C 0.2500 0.54282(9) 0.79282(9)
C46_7 C 0.20629(15) 0.52094(14) 0.81408(16)
C47_8 C 0.16095(19) 0.5000 0.83905(19)
H11_7 H 0.1498 0.4639 0.8155
C48_7 C 0.0876(3) 0.3754(2) 0.7524(2)
H12_7 H 0.1035 0.4178 0.7629
C49_7 C 0.1254(2) 0.3376(3) 0.7476(2)
H13_7 H 0.1678 0.3535 0.7371
C50_9 C 0.33905(19) 0.58905(19) 0.7500
H14_7 H 0.3502 0.5655 0.7139
C51_7 C 0.3746(2) 0.4976(2) 0.5876(3)
H15_7 H 0.3322 0.4871 0.6035
C52_7 C 0.4124(3) 0.5024(2) 0.6254(2)
H16_7 H 0.3965 0.5129 0.6678
C53_7 C 0.31614(17) 0.58578(17) 0.77038(14)
C54_7 C 0.27094(14) 0.56408(16) 0.79371(15)
C55_7 C 0.22906(14) 0.54371(15) 0.81408(16)
C56_7 C 0.18386(17) 0.52038(14) 0.83578(17)
C57_8 C 0.1372(2) 0.5000 0.8628(2)
C58_9 C 0.0949(3) 0.3449(3) 0.7500
H17_7 H 0.0671 0.3807 0.7510
H18_7 H 0.1307 0.3171 0.7490
C59_9 C 0.3628(2) 0.6128(2) 0.7500
C60_8 C 0.4051(3) 0.5000 0.5949(3)
H19_7 H 0.3693 0.4990 0.5671
H20_7 H 0.4329 0.5010 0.6307
H21_7 H 0.3155 0.6002 0.7861
C61_7 C 0.27038(14) 0.58578(17) 0.81614(17)
C62_7 C 0.22962(14) 0.56614(17) 0.83578(17)
H22_7 H 0.1845 0.5361 0.8502
C63_7 C 0.1480(3) 0.5066(3) 0.8919(2)
C64_7 C 0.1081(2) 0.4934(3) 0.8520(3)
C65_9 C 0.0710(3) 0.3210(3) 0.7500
C66_7 C 0.3919(2) 0.6020(3) 0.7434(3)
C67_7 C 0.3520(3) 0.6419(2) 0.7566(3)
C68_8 C 0.4290(3) 0.5000 0.5710(3)
C69_10 C 0.2500 0.58905(19) 0.83905(19)
H23_7 H 0.2861 0.6002 0.8155
H24_7 H 0.2139 0.5655 0.8502
C70_7 C 0.1254(2) 0.5024(2) 0.9124(3)
H25_7 H 0.1678 0.5129 0.8965
C71_7 C 0.0876(3) 0.4976(2) 0.8746(2)
H26_7 H 0.1035 0.4871 0.8322
O33_5 O 0.08146(13) 0.29166(13) 0.75111(11)
O34_5 O 0.04166(13) 0.33146(13) 0.74889(11)
C72_7 C 0.4124(3) 0.6246(2) 0.7476(2)
H27_7 H 0.3965 0.5822 0.7371
C73_7 C 0.3746(2) 0.6624(3) 0.7524(2)
H28_7 H 0.3322 0.6465 0.7629
O35_6 O 0.45834(13) 0.49889(11) 0.58146(13)
O36_6 O 0.41854(13) 0.50111(11) 0.54166(13)
C74_10 C 0.2500 0.6128(2) 0.8628(2)
C75_8 C 0.0949(3) 0.5000 0.9051(3)
H29_7 H 0.1307 0.5010 0.9329
H30_7 H 0.0671 0.4990 0.8693
Zr7_3 Zr 0.05546(2) 0.25011(2) 0.75011(2)
Zr8_5 Zr 0.00011(2) 0.30546(2) 0.74989(2)
C76_9 C 0.4051(3) 0.6551(3) 0.7500
H31_7 H 0.4329 0.6193 0.7490
H32_7 H 0.3693 0.6829 0.7510
Zr9_5 Zr 0.49989(2) 0.49989(2) 0.55546(2)
C77_7 C 0.2434(3) 0.6020(3) 0.8919(2)
C78_7 C 0.2566(3) 0.6419(2) 0.8520(3)
C79_8 C 0.0710(3) 0.5000 0.9290(3)
C80_9 C 0.4290(3) 0.6790(3) 0.7500
C81_7 C 0.2476(2) 0.6246(2) 0.9124(3)
H33_7 H 0.2371 0.5822 0.8965
C82_7 C 0.2524(2) 0.6624(3) 0.8746(2)
H34_7 H 0.2629 0.6465 0.8322
O39_6 O 0.41854(13) 0.70834(13) 0.74889(11)
O40_6 O 0.45834(13) 0.66854(13) 0.75111(11)
C83_10 C 0.2500 0.6551(3) 0.9051(3)
H35_7 H 0.2490 0.6193 0.9329
H36_7 H 0.2510 0.6829 0.8693
Zr14_5 Zr 0.49989(2) 0.69454(2) 0.75011(2)
C84_10 C 0.2500 0.6790(3) 0.9290(3)
C1_11 C 0.3210(3) 0.6790(3) 0.0000
C2_11 C 0.3449(3) 0.6551(3) 0.0000
C3_8 C 0.3376(3) 0.6246(2) 0.0024(2)
H1_8 H 0.3171 0.6193 0.0010
C4_8 C 0.3581(2) 0.6020(3) 0.0066(3)
C5_11 C 0.3872(2) 0.6128(2) 0.0000
H2_8 H 0.3535 0.5822 0.0129
C6_11 C 0.41095(19) 0.58905(19) 0.0000
C7_8 C 0.41422(17) 0.56614(17) 0.02038(14)
H3_8 H 0.3998 0.5655 0.0361
C8_8 C 0.43592(16) 0.54371(15) 0.02094(14)
C9_11 C 0.45718(9) 0.54282(9) 0.0000
C10_11 C 0.47868(7) 0.52132(7) 0.0000
C15_8 C 0.43592(16) 0.52094(14) 0.04371(15)
C17_10 C 0.45718(9) 0.5000 0.04282(9)
C18_8 C 0.41422(17) 0.52038(14) 0.06614(17)
C22_10 C 0.47868(7) 0.5000 0.02132(7)
C23_8 C 0.45629(15) 0.47906(14) 0.06408(16)
C24_10 C 0.41095(19) 0.5000 0.08905(19)
H7_8 H 0.3998 0.5361 0.0655
C28_9 C 0.5000 0.47868(7) 0.02132(7)
C29_8 C 0.43386(17) 0.47962(14) 0.08578(17)
C30_8 C 0.47906(14) 0.45629(15) 0.06408(16)
C31_10 C 0.3872(2) 0.5000 0.1128(2)
C36_11 C 0.52132(7) 0.47868(7) 0.0000
C37_9 C 0.5000 0.45718(9) 0.04282(9)
H9_8 H 0.4345 0.4639 0.1002
C38_8 C 0.47962(14) 0.43386(17) 0.08578(17)
C39_8 C 0.3980(3) 0.4934(3) 0.1419(2)
C40_8 C 0.3581(2) 0.5066(3) 0.1020(3)
C45_11 C 0.54282(9) 0.45718(9) 0.0000
C46_8 C 0.52094(14) 0.43592(16) 0.04371(15)
C47_9 C 0.5000 0.41095(19) 0.08905(19)
H11_8 H 0.4639 0.4345 0.1002
C48_8 C 0.3754(2) 0.4976(2) 0.1624(3)
H12_8 H 0.4178 0.4871 0.1465
C49_8 C 0.3376(3) 0.5024(2) 0.1246(2)
H13_8 H 0.3535 0.5129 0.0822
C55_8 C 0.54371(15) 0.43592(16) 0.02094(14)
C56_8 C 0.52038(14) 0.41422(17) 0.06614(17)
C57_9 C 0.5000 0.3872(2) 0.1128(2)
C58_10 C 0.3449(3) 0.5000 0.1551(3)
H17_8 H 0.3807 0.4990 0.1829
H18_8 H 0.3171 0.5010 0.1193
C62_8 C 0.56614(17) 0.41422(17) 0.02038(14)
H22_8 H 0.5361 0.3998 0.0655
C63_8 C 0.5066(3) 0.3581(2) 0.1020(3)
C64_8 C 0.4934(3) 0.3980(3) 0.1419(2)
C65_10 C 0.3210(3) 0.5000 0.1790(3)
C69_11 C 0.58905(19) 0.41095(19) 0.0000
H24_8 H 0.5655 0.3998 0.0361
C70_8 C 0.5024(2) 0.3376(3) 0.1246(2)
H25_8 H 0.5129 0.3535 0.0822
C71_8 C 0.4976(2) 0.3754(2) 0.1624(3)
H26_8 H 0.4871 0.4178 0.1465
O33_6 O 0.29166(13) 0.49889(11) 0.16854(13)
O34_6 O 0.33146(13) 0.50111(11) 0.20834(13)
C74_11 C 0.6128(2) 0.3872(2) 0.0000
C75_9 C 0.5000 0.3449(3) 0.1551(3)
H29_8 H 0.5010 0.3171 0.1193
H30_8 H 0.4990 0.3807 0.1829
Zr7_4 Zr 0.25011(2) 0.49989(2) 0.19454(2)
Zr8_6 Zr 0.30546(2) 0.50011(2) 0.24989(2)
C77_8 C 0.6020(3) 0.3581(2) 0.0066(3)
C79_9 C 0.5000 0.3210(3) 0.1790(3)
C81_8 C 0.6246(2) 0.3376(3) 0.0024(2)
H33_8 H 0.5822 0.3535 0.0129
C83_11 C 0.6551(3) 0.3449(3) 0.0000
H35_8 H 0.6193 0.3171 0.0010
C84_11 C 0.6790(3) 0.3210(3) 0.0000
O41_7 O 0.70834(13) 0.33146(13) 0.00111(11)
Zr15_7 Zr 0.74989(2) 0.30546(2) 0.00011(2)
C1_12 C 0.3210(3) 0.6790(3) 1.0000
C2_12 C 0.3449(3) 0.6551(3) 1.0000
C5_12 C 0.3872(2) 0.6128(2) 1.0000
C6_12 C 0.41095(19) 0.58905(19) 1.0000
C9_12 C 0.45718(9) 0.54282(9) 1.0000
C10_12 C 0.47868(7) 0.52132(7) 1.0000
C11_8 C 0.3754(2) 0.6624(3) 0.9976(2)
H4_8 H 0.3807 0.6829 0.9990
C12_8 C 0.3980(3) 0.6419(2) 0.9934(3)
H5_8 H 0.4178 0.6465 0.9871
C13_8 C 0.43386(17) 0.58578(17) 0.97962(14)
H6_8 H 0.4345 0.6002 0.9639
C14_8 C 0.45629(15) 0.56408(16) 0.97906(14)
C16_8 C 0.47906(14) 0.56408(16) 0.95629(15)
C19_9 C 0.5000 0.54282(9) 0.95718(9)
C20_8 C 0.47962(14) 0.58578(17) 0.93386(17)
C21_9 C 0.5000 0.52132(7) 0.97868(7)
C25_8 C 0.52094(14) 0.54371(15) 0.93592(16)
C26_9 C 0.5000 0.58905(19) 0.91095(19)
H8_8 H 0.4639 0.6002 0.9345
C27_10 C 0.52132(7) 0.5000 0.97868(7)
C32_8 C 0.52038(14) 0.56614(17) 0.91422(17)
C33_8 C 0.54371(15) 0.52094(14) 0.93592(16)
C34_9 C 0.5000 0.6128(2) 0.8872(2)
C35_10 C 0.54282(9) 0.5000 0.95718(9)
C36_12 C 0.52132(7) 0.47868(7) 1.0000
H10_8 H 0.5361 0.5655 0.8998
C41_8 C 0.56614(17) 0.52038(14) 0.91422(17)
C42_8 C 0.4934(3) 0.6419(2) 0.8980(3)
C43_8 C 0.5066(3) 0.6020(3) 0.8581(2)
C44_8 C 0.56408(16) 0.47906(14) 0.95629(15)
C45_12 C 0.54282(9) 0.45718(9) 1.0000
C50_10 C 0.58905(19) 0.5000 0.91095(19)
H14_8 H 0.5655 0.5361 0.8998
C51_8 C 0.4976(2) 0.6624(3) 0.8754(2)
H15_8 H 0.4871 0.6465 0.9178
C52_8 C 0.5024(2) 0.6246(2) 0.8376(3)
H16_8 H 0.5129 0.5822 0.8535
C53_8 C 0.58578(17) 0.47962(14) 0.93386(17)
C54_8 C 0.56408(16) 0.45629(15) 0.97906(14)
C59_10 C 0.6128(2) 0.5000 0.8872(2)
C60_9 C 0.5000 0.6551(3) 0.8449(3)
H19_8 H 0.4990 0.6829 0.8807
H20_8 H 0.5010 0.6193 0.8171
H21_8 H 0.6002 0.4639 0.9345
C61_8 C 0.58578(17) 0.43386(17) 0.97962(14)
C66_8 C 0.6020(3) 0.5066(3) 0.8581(2)
C67_8 C 0.6419(2) 0.4934(3) 0.8980(3)
C68_9 C 0.5000 0.6790(3) 0.8210(3)
C69_12 C 0.58905(19) 0.41095(19) 1.0000
H23_8 H 0.6002 0.4345 0.9639
C72_8 C 0.6246(2) 0.5024(2) 0.8376(3)
H27_8 H 0.5822 0.5129 0.8535
C73_8 C 0.6624(3) 0.4976(2) 0.8754(2)
H28_8 H 0.6465 0.4871 0.9178
O35_7 O 0.49889(11) 0.66854(13) 0.79166(13)
O36_7 O 0.50111(11) 0.70834(13) 0.83146(13)
C74_12 C 0.6128(2) 0.3872(2) 1.0000
C76_10 C 0.6551(3) 0.5000 0.8449(3)
H31_8 H 0.6193 0.5010 0.8171
H32_8 H 0.6829 0.4990 0.8807
Zr10_6 Zr 0.50011(2) 0.74989(2) 0.80546(2)
C78_8 C 0.6419(2) 0.3980(3) 0.9934(3)
C80_10 C 0.6790(3) 0.5000 0.8210(3)
C82_8 C 0.6624(3) 0.3754(2) 0.9976(2)
H34_8 H 0.6465 0.4178 0.9871
O39_7 O 0.70834(13) 0.50111(11) 0.83146(13)
O40_7 O 0.66854(13) 0.49889(11) 0.79166(13)
C83_12 C 0.6551(3) 0.3449(3) 1.0000
H36_8 H 0.6829 0.3807 0.9990
Zr13_6 Zr 0.74989(2) 0.50011(2) 0.80546(2)
Zr14_6 Zr 0.69454(2) 0.49989(2) 0.75011(2)
C84_12 C 0.6790(3) 0.3210(3) 1.0000
O42_7 O 0.66854(13) 0.29166(13) 0.99889(11)
Zr16_6 Zr 0.69454(2) 0.25011(2) 0.99989(2)
H56_4 H 0.155521 0.702633 0.981066
O1_8 O 0.25111(11) 0.45834(13) 0.16854(13)
O2_8 O 0.27654(14) 0.52866(9) 0.22134(9)
O3_8 O 0.21901(19) 0.53099(19) 0.21901(19)
O4_8 O 0.20648(14) 0.50131(11) 0.16388(13)
C1_13 C 0.2500 0.4290(3) 0.1790(3)
C2_13 C 0.2500 0.4051(3) 0.1551(3)
C3_9 C 0.2524(2) 0.3746(2) 0.1624(3)
H1_9 H 0.2510 0.3693 0.1829
C4_9 C 0.2566(3) 0.3520(3) 0.1419(2)
C5_13 C 0.2500 0.3628(2) 0.1128(2)
H2_9 H 0.2629 0.3322 0.1465
C6_13 C 0.2500 0.33905(19) 0.08905(19)
C7_9 C 0.27038(14) 0.31614(17) 0.08578(17)
H3_9 H 0.2861 0.3155 0.1002
C8_9 C 0.27094(14) 0.29371(15) 0.06408(16)
C9_13 C 0.2500 0.29282(9) 0.04282(9)
C10_13 C 0.2500 0.27132(7) 0.02132(7)
O5_8 O 0.27866(9) 0.47134(9) 0.22346(14)
O6_8 O 0.22134(9) 0.47346(14) 0.22134(9)
O7_8 O 0.24869(11) 0.54352(14) 0.16388(13)
O9_8 O 0.24889(11) 0.41854(13) 0.20834(13)
O10_8 O 0.33612(13) 0.49869(11) 0.29352(14)
O11_8 O 0.33612(13) 0.45648(14) 0.25131(11)
O12_6 O 0.33146(13) 0.54166(13) 0.24889(11)
O14_8 O 0.27866(9) 0.52654(14) 0.27866(9)
O15_8 O 0.28099(19) 0.46901(19) 0.28099(19)
O16_8 O 0.24869(11) 0.58612(13) 0.20648(14)
O17_8 O 0.20648(14) 0.58612(13) 0.24869(11)
O18_6 O 0.29166(13) 0.58146(13) 0.25111(11)
O20_8 O 0.22134(9) 0.52866(9) 0.27654(14)
O22_8 O 0.22346(14) 0.47134(9) 0.27866(9)
O23_6 O 0.16854(13) 0.49889(11) 0.29166(13)
O24_8 O 0.16388(13) 0.54352(14) 0.24869(11)
O25_8 O 0.16388(13) 0.50131(11) 0.20648(14)
O27_8 O 0.25131(11) 0.41388(13) 0.29352(14)
O28_8 O 0.29352(14) 0.41388(13) 0.25131(11)
C11_9 C 0.2476(2) 0.4124(3) 0.1246(2)
H4_9 H 0.2490 0.4329 0.1193
C12_9 C 0.2434(3) 0.3919(2) 0.1020(3)
O29_6 O 0.20834(13) 0.50111(11) 0.33146(13)
O31_8 O 0.25131(11) 0.45648(14) 0.33612(13)
O32_8 O 0.29352(14) 0.49869(11) 0.33612(13)
H5_9 H 0.2371 0.3965 0.0822
C13_9 C 0.22962(14) 0.33578(17) 0.06614(17)
H6_9 H 0.2139 0.3502 0.0655
C14_9 C 0.22906(14) 0.31408(16) 0.04371(15)
C15_9 C 0.29371(15) 0.27094(14) 0.06408(16)
C16_9 C 0.20629(15) 0.31408(16) 0.02094(14)
C17_11 C 0.29282(9) 0.2500 0.04282(9)
C18_9 C 0.31614(17) 0.27038(14) 0.08578(17)
C19_10 C 0.20718(9) 0.29282(9) 0.0000
C20_9 C 0.18386(17) 0.33578(17) 0.02038(14)
C21_10 C 0.22868(7) 0.27132(7) 0.0000
C22_11 C 0.27132(7) 0.2500 0.02132(7)
C23_9 C 0.31408(16) 0.22906(14) 0.04371(15)
C24_11 C 0.33905(19) 0.2500 0.08905(19)
H7_9 H 0.3155 0.2861 0.1002
C26_10 C 0.16095(19) 0.33905(19) 0.0000
H8_9 H 0.1845 0.3502 0.0361
C28_10 C 0.27132(7) 0.22868(7) 0.0000
C29_9 C 0.33578(17) 0.22962(14) 0.06614(17)
C30_9 C 0.31408(16) 0.20629(15) 0.02094(14)
C31_11 C 0.3628(2) 0.2500 0.1128(2)
C34_10 C 0.1372(2) 0.3628(2) 0.0000
C37_10 C 0.29282(9) 0.20718(9) 0.0000
H9_9 H 0.3502 0.2139 0.0655
C38_9 C 0.33578(17) 0.18386(17) 0.02038(14)
C39_9 C 0.3919(2) 0.2434(3) 0.1020(3)
C40_9 C 0.3520(3) 0.2566(3) 0.1419(2)
C42_9 C 0.1480(3) 0.3919(2) 0.0066(3)
C47_10 C 0.33905(19) 0.16095(19) 0.0000
H11_9 H 0.3502 0.1845 0.0361
C48_9 C 0.4124(3) 0.2476(2) 0.1246(2)
H12_9 H 0.3965 0.2371 0.0822
C49_9 C 0.3746(2) 0.2524(2) 0.1624(3)
H13_9 H 0.3322 0.2629 0.1465
C51_9 C 0.1254(2) 0.4124(3) 0.0024(2)
H15_9 H 0.1678 0.3965 0.0129
C57_10 C 0.3628(2) 0.1372(2) 0.0000
C58_11 C 0.4051(3) 0.2500 0.1551(3)
H17_9 H 0.4329 0.2490 0.1193
H18_9 H 0.3693 0.2510 0.1829
C60_10 C 0.0949(3) 0.4051(3) 0.0000
H19_9 H 0.1307 0.4329 0.0010
C64_9 C 0.3919(2) 0.1480(3) 0.0066(3)
C65_11 C 0.4290(3) 0.2500 0.1790(3)
C68_10 C 0.0710(3) 0.4290(3) 0.0000
C71_9 C 0.4124(3) 0.1254(2) 0.0024(2)
H26_9 H 0.3965 0.1678 0.0129
C75_10 C 0.4051(3) 0.0949(3) 0.0000
H30_9 H 0.4329 0.1307 0.0010
C79_10 C 0.4290(3) 0.0710(3) 0.0000
O38_6 O 0.41854(13) 0.04166(13) 0.00111(11)
C19_11 C 0.20718(9) 0.29282(9) 1.0000
C21_11 C 0.22868(7) 0.27132(7) 1.0000
C25_9 C 0.18592(16) 0.29371(15) 0.97906(14)
C26_11 C 0.16095(19) 0.33905(19) 1.0000
C27_11 C 0.22868(7) 0.2500 0.97868(7)
C28_11 C 0.27132(7) 0.22868(7) 1.0000
C32_9 C 0.16422(17) 0.31614(17) 0.97962(14)
C33_9 C 0.18592(16) 0.27094(14) 0.95629(15)
C34_11 C 0.1372(2) 0.3628(2) 1.0000
C35_11 C 0.20718(9) 0.2500 0.95718(9)
C36_13 C 0.2500 0.22868(7) 0.97868(7)
C37_11 C 0.29282(9) 0.20718(9) 1.0000
H10_9 H 0.1498 0.3155 0.9639
C41_9 C 0.16422(17) 0.27038(14) 0.93386(17)
C43_9 C 0.1081(2) 0.3520(3) 0.9934(3)
C44_9 C 0.20629(15) 0.22906(14) 0.93592(16)
C45_13 C 0.2500 0.20718(9) 0.95718(9)
C46_9 C 0.29371(15) 0.18592(16) 0.97906(14)
C47_11 C 0.33905(19) 0.16095(19) 1.0000
C50_11 C 0.16095(19) 0.2500 0.91095(19)
H14_9 H 0.1498 0.2861 0.9345
C52_9 C 0.0876(3) 0.3746(2) 0.9976(2)
H16_9 H 0.1035 0.3322 0.9871
C53_9 C 0.18386(17) 0.22962(14) 0.91422(17)
C54_9 C 0.22906(14) 0.20629(15) 0.93592(16)
C55_9 C 0.27094(14) 0.18592(16) 0.95629(15)
C56_9 C 0.31614(17) 0.16422(17) 0.97962(14)
C57_11 C 0.3628(2) 0.1372(2) 1.0000
C59_11 C 0.1372(2) 0.2500 0.8872(2)
C60_11 C 0.0949(3) 0.4051(3) 1.0000
H20_9 H 0.0671 0.3693 0.9990
H21_9 H 0.1845 0.2139 0.8998
C61_9 C 0.22962(14) 0.18386(17) 0.91422(17)
C62_9 C 0.27038(14) 0.16422(17) 0.93386(17)
H22_9 H 0.3155 0.1498 0.9639
C63_9 C 0.3520(3) 0.1081(2) 0.9934(3)
C66_9 C 0.1081(2) 0.2566(3) 0.8980(3)
C67_9 C 0.1480(3) 0.2434(3) 0.8581(2)
C68_11 C 0.0710(3) 0.4290(3) 1.0000
C69_13 C 0.2500 0.16095(19) 0.91095(19)
H23_9 H 0.2139 0.1845 0.8998
H24_9 H 0.2861 0.1498 0.9345
C70_9 C 0.3746(2) 0.0876(3) 0.9976(2)
H25_9 H 0.3322 0.1035 0.9871
C72_9 C 0.0876(3) 0.2524(2) 0.8754(2)
H27_9 H 0.1035 0.2629 0.9178
C73_9 C 0.1254(2) 0.2476(2) 0.8376(3)
H28_9 H 0.1678 0.2371 0.8535
C74_13 C 0.2500 0.1372(2) 0.8872(2)
C75_11 C 0.4051(3) 0.0949(3) 1.0000
H29_9 H 0.3693 0.0671 0.9990
C76_11 C 0.0949(3) 0.2500 0.8449(3)
H31_9 H 0.0671 0.2510 0.8807
H32_9 H 0.1307 0.2490 0.8171
C77_9 C 0.2566(3) 0.1081(2) 0.8980(3)
C78_9 C 0.2434(3) 0.1480(3) 0.8581(2)
C79_11 C 0.4290(3) 0.0710(3) 1.0000
C80_11 C 0.0710(3) 0.2500 0.8210(3)
C81_9 C 0.2524(2) 0.0876(3) 0.8754(2)
H33_9 H 0.2629 0.1035 0.9178
C82_9 C 0.2476(2) 0.1254(2) 0.8376(3)
H34_9 H 0.2371 0.1678 0.8535
O37_6 O 0.45834(13) 0.08146(13) 0.99889(11)
O39_8 O 0.08146(13) 0.25111(11) 0.79166(13)
O40_8 O 0.04166(13) 0.24889(11) 0.83146(13)
C83_13 C 0.2500 0.0949(3) 0.8449(3)
H35_9 H 0.2510 0.0671 0.8807
H36_9 H 0.2490 0.1307 0.8171
Zr11_6 Zr 0.49989(2) 0.05546(2) 0.99989(2)
C84_13 C 0.2500 0.0710(3) 0.8210(3)
H50_4 H 0.0117062 0.790514 0.353897
C1_14 C 0.9290(3) 0.6790(3) 0.2500
C2_14 C 0.9051(3) 0.6551(3) 0.2500
C3_10 C 0.9124(3) 0.6246(2) 0.2476(2)
H1_10 H 0.9329 0.6193 0.2490
C4_10 C 0.8919(2) 0.6020(3) 0.2434(3)
C5_14 C 0.8628(2) 0.6128(2) 0.2500
H2_10 H 0.8965 0.5822 0.2371
C6_14 C 0.83905(19) 0.58905(19) 0.2500
C7_10 C 0.83578(17) 0.56614(17) 0.22962(14)
H3_10 H 0.8502 0.5655 0.2139
C8_10 C 0.81408(16) 0.54371(15) 0.22906(14)
C9_14 C 0.79282(9) 0.54282(9) 0.2500
C10_14 C 0.77132(7) 0.52132(7) 0.2500
C11_10 C 0.8746(2) 0.6624(3) 0.2524(2)
H4_10 H 0.8693 0.6829 0.2510
C12_10 C 0.8520(3) 0.6419(2) 0.2566(3)
H5_10 H 0.8322 0.6465 0.2629
C13_10 C 0.81614(17) 0.58578(17) 0.27038(14)
H6_10 H 0.8155 0.6002 0.2861
C14_10 C 0.79371(15) 0.56408(16) 0.27094(14)
C15_10 C 0.81408(16) 0.52094(14) 0.20629(15)
C16_10 C 0.77094(14) 0.56408(16) 0.29371(15)
C17_12 C 0.79282(9) 0.5000 0.20718(9)
C18_10 C 0.83578(17) 0.52038(14) 0.18386(17)
C19_12 C 0.7500 0.54282(9) 0.29282(9)
C20_10 C 0.77038(14) 0.58578(17) 0.31614(17)
C21_12 C 0.7500 0.52132(7) 0.27132(7)
C22_12 C 0.77132(7) 0.5000 0.22868(7)
C23_10 C 0.79371(15) 0.47906(14) 0.18592(16)
C24_12 C 0.83905(19) 0.5000 0.16095(19)
H7_10 H 0.8502 0.5361 0.1845
C25_10 C 0.72906(14) 0.54371(15) 0.31408(16)
C26_12 C 0.7500 0.58905(19) 0.33905(19)
H8_10 H 0.7861 0.6002 0.3155
C27_12 C 0.72868(7) 0.5000 0.27132(7)
C28_12 C 0.7500 0.47868(7) 0.22868(7)
C29_10 C 0.81614(17) 0.47962(14) 0.16422(17)
C30_10 C 0.77094(14) 0.45629(15) 0.18592(16)
C31_12 C 0.8628(2) 0.5000 0.1372(2)
C32_10 C 0.72962(14) 0.56614(17) 0.33578(17)
C33_10 C 0.70629(15) 0.52094(14) 0.31408(16)
C34_12 C 0.7500 0.6128(2) 0.3628(2)
C35_12 C 0.70718(9) 0.5000 0.29282(9)
C36_14 C 0.72868(7) 0.47868(7) 0.2500
C37_12 C 0.7500 0.45718(9) 0.20718(9)
H9_10 H 0.8155 0.4639 0.1498
C38_10 C 0.77038(14) 0.43386(17) 0.16422(17)
C39_10 C 0.8520(3) 0.4934(3) 0.1081(2)
C40_10 C 0.8919(2) 0.5066(3) 0.1480(3)
H10_10 H 0.7139 0.5655 0.3502
C41_10 C 0.68386(17) 0.52038(14) 0.33578(17)
C42_10 C 0.7566(3) 0.6419(2) 0.3520(3)
C43_10 C 0.7434(3) 0.6020(3) 0.3919(2)
C44_10 C 0.68592(16) 0.47906(14) 0.29371(15)
C45_14 C 0.70718(9) 0.45718(9) 0.2500
C46_10 C 0.72906(14) 0.43592(16) 0.20629(15)
C47_12 C 0.7500 0.41095(19) 0.16095(19)
H11_10 H 0.7861 0.4345 0.1498
C48_10 C 0.8746(2) 0.4976(2) 0.0876(3)
H12_10 H 0.8322 0.4871 0.1035
C49_10 C 0.9124(3) 0.5024(2) 0.1254(2)
H13_10 H 0.8965 0.5129 0.1678
C50_12 C 0.66095(19) 0.5000 0.33905(19)
H14_10 H 0.6845 0.5361 0.3502
C51_10 C 0.7524(2) 0.6624(3) 0.3746(2)
H15_10 H 0.7629 0.6465 0.3322
C52_10 C 0.7476(2) 0.6246(2) 0.4124(3)
H16_10 H 0.7371 0.5822 0.3965
C53_10 C 0.66422(17) 0.47962(14) 0.31614(17)
C54_10 C 0.68592(16) 0.45629(15) 0.27094(14)
C55_10 C 0.70629(15) 0.43592(16) 0.22906(14)
C56_10 C 0.72962(14) 0.41422(17) 0.18386(17)
C57_12 C 0.7500 0.3872(2) 0.1372(2)
C58_12 C 0.9051(3) 0.5000 0.0949(3)
H17_10 H 0.8693 0.4990 0.0671
H18_10 H 0.9329 0.5010 0.1307
C59_12 C 0.6372(2) 0.5000 0.3628(2)
C60_12 C 0.7500 0.6551(3) 0.4051(3)
H19_10 H 0.7510 0.6829 0.3693
H20_10 H 0.7490 0.6193 0.4329
H21_10 H 0.6498 0.4639 0.3155
C61_10 C 0.66422(17) 0.43386(17) 0.27038(14)
C62_10 C 0.68386(17) 0.41422(17) 0.22962(14)
H22_10 H 0.7139 0.3998 0.1845
C63_10 C 0.7434(3) 0.3581(2) 0.1480(3)
C64_10 C 0.7566(3) 0.3980(3) 0.1081(2)
C65_12 C 0.9290(3) 0.5000 0.0710(3)
C66_10 C 0.6480(3) 0.5066(3) 0.3919(2)
C67_10 C 0.6081(2) 0.4934(3) 0.3520(3)
C68_12 C 0.7500 0.6790(3) 0.4290(3)
C69_14 C 0.66095(19) 0.41095(19) 0.2500
H23_10 H 0.6498 0.4345 0.2861
H24_10 H 0.6845 0.3998 0.2139
C70_10 C 0.7476(2) 0.3376(3) 0.1254(2)
H25_10 H 0.7371 0.3535 0.1678
C71_10 C 0.7524(2) 0.3754(2) 0.0876(3)
H26_10 H 0.7629 0.4178 0.1035
C72_10 C 0.6254(2) 0.5024(2) 0.4124(3)
H27_10 H 0.6678 0.5129 0.3965
C73_10 C 0.5876(3) 0.4976(2) 0.3746(2)
H28_10 H 0.6035 0.4871 0.3322
O35_8 O 0.75111(11) 0.66854(13) 0.45834(13)
O36_8 O 0.74889(11) 0.70834(13) 0.41854(13)
C74_14 C 0.6372(2) 0.3872(2) 0.2500
C75_12 C 0.7500 0.3449(3) 0.0949(3)
H29_10 H 0.7490 0.3171 0.1307
H30_10 H 0.7510 0.3807 0.0671
C76_12 C 0.5949(3) 0.5000 0.4051(3)
H31_10 H 0.6307 0.5010 0.4329
H32_10 H 0.5671 0.4990 0.3693
Zr9_6 Zr 0.75011(2) 0.69454(2) 0.49989(2)
Zr10_7 Zr 0.74989(2) 0.74989(2) 0.44454(2)
C77_10 C 0.6480(3) 0.3581(2) 0.2434(3)
C78_10 C 0.6081(2) 0.3980(3) 0.2566(3)
C79_12 C 0.7500 0.3210(3) 0.0710(3)
C80_12 C 0.5710(3) 0.5000 0.4290(3)
C81_10 C 0.6254(2) 0.3376(3) 0.2476(2)
H33_10 H 0.6678 0.3535 0.2371
C82_10 C 0.5876(3) 0.3754(2) 0.2524(2)
H34_10 H 0.6035 0.4178 0.2629
O37_7 O 0.74889(11) 0.33146(13) 0.04166(13)
O38_7 O 0.75111(11) 0.29166(13) 0.08146(13)
O39_9 O 0.54166(13) 0.50111(11) 0.41854(13)
O40_9 O 0.58146(13) 0.49889(11) 0.45834(13)
C83_14 C 0.5949(3) 0.3449(3) 0.2500
H35_10 H 0.6307 0.3171 0.2490
H36_10 H 0.5671 0.3807 0.2510
Zr13_7 Zr 0.50011(2) 0.50011(2) 0.44454(2)
C84_14 C 0.5710(3) 0.3210(3) 0.2500
H39_4 H 0.986746 0.708653 0.147217
O3_9 O 0.03099(19) 0.03099(19) 0.53099(19)
O4_9 O 0.08612(13) 0.04352(14) 0.50131(11)
O6_9 O 0.02866(9) 0.02866(9) 0.47346(14)
O7_9 O 0.08612(13) 0.00131(11) 0.54352(14)
O16_9 O 0.04352(14) 0.00131(11) 0.58612(13)
O17_9 O 0.00131(11) 0.04352(14) 0.58612(13)
O24_9 O 0.00131(11) 0.08612(13) 0.54352(14)
O25_9 O 0.04352(14) 0.08612(13) 0.50131(11)
O2_9 O 0.02866(9) 0.97346(14) 0.52866(9)
O5_9 O 0.02654(14) 0.97134(9) 0.47134(9)
O12_7 O 0.00111(11) 0.91854(13) 0.54166(13)
H39_5 H 0.013254 0.897217 0.458653
O20_9 O 0.97346(14) 0.02866(9) 0.52866(9)
O22_9 O 0.97134(9) 0.02654(14) 0.47134(9)
O30_7 O 0.91854(13) 0.00111(11) 0.54166(13)
H48_4 H 0.981066 0.0473674 0.594479
H50_5 H 0.988294 0.103897 0.540514
H52_4 H 0.952633 0.0189338 0.405521
H56_5 H 0.905521 0.0189338 0.452633
Zr3_6 Zr 0.99989(2) 0.99989(2) 0.55546(2)
O10_9 O 0.95648(14) 0.91388(13) 0.49869(11)
O11_9 O 0.99869(11) 0.91388(13) 0.45648(14)
O14_9 O 0.97134(9) 0.97134(9) 0.52654(14)
O15_9 O 0.96901(19) 0.96901(19) 0.46901(19)
O18_7 O 0.99889(11) 0.95834(13) 0.58146(13)
O19_7 O 0.95834(13) 0.99889(11) 0.58146(13)
O27_9 O 0.95648(14) 0.99869(11) 0.41388(13)
O28_9 O 0.99869(11) 0.95648(14) 0.41388(13)
O31_9 O 0.91388(13) 0.99869(11) 0.45648(14)
O32_9 O 0.91388(13) 0.95648(14) 0.49869(11)
O3_10 O 0.53099(19) 0.03099(19) 0.03099(19)
O4_10 O 0.50131(11) 0.08612(13) 0.04352(14)
O6_10 O 0.47346(14) 0.02866(9) 0.02866(9)
O7_10 O 0.54352(14) 0.08612(13) 0.00131(11)
O16_10 O 0.58612(13) 0.04352(14) 0.00131(11)
O17_10 O 0.58612(13) 0.00131(11) 0.04352(14)
O24_10 O 0.54352(14) 0.00131(11) 0.08612(13)
O25_10 O 0.50131(11) 0.04352(14) 0.08612(13)
O2_10 O 0.52866(9) 0.02866(9) 0.97346(14)
O5_10 O 0.47134(9) 0.02654(14) 0.97134(9)
O8_7 O 0.49889(11) 0.08146(13) 0.95834(13)
Zr2_6 Zr 0.50011(2) 0.00011(2) 0.94454(2)
O12_8 O 0.54166(13) 0.00111(11) 0.91854(13)
O13_7 O 0.50111(11) 0.04166(13) 0.91854(13)
H39_6 H 0.458653 0.013254 0.897217
O20_10 O 0.52866(9) 0.97346(14) 0.02866(9)
O22_10 O 0.47134(9) 0.97134(9) 0.02654(14)
O23_7 O 0.49889(11) 0.95834(13) 0.08146(13)
Zr6_6 Zr 0.50011(2) 0.94454(2) 0.00011(2)
O29_7 O 0.50111(11) 0.91854(13) 0.04166(13)
O30_8 O 0.54166(13) 0.91854(13) 0.00111(11)
H48_5 H 0.594479 0.981066 0.0473674
H50_6 H 0.540514 0.988294 0.103897
H52_5 H 0.405521 0.952633 0.0189338
H56_6 H 0.452633 0.905521 0.0189338
Zr3_7 Zr 0.55546(2) 0.99989(2) 0.99989(2)
O10_10 O 0.49869(11) 0.95648(14) 0.91388(13)
O11_10 O 0.45648(14) 0.99869(11) 0.91388(13)
O14_10 O 0.52654(14) 0.97134(9) 0.97134(9)
O15_10 O 0.46901(19) 0.96901(19) 0.96901(19)
O18_8 O 0.58146(13) 0.99889(11) 0.95834(13)
O19_8 O 0.58146(13) 0.95834(13) 0.99889(11)
O27_10 O 0.41388(13) 0.95648(14) 0.99869(11)
O28_10 O 0.41388(13) 0.99869(11) 0.95648(14)
O31_10 O 0.45648(14) 0.91388(13) 0.99869(11)
O32_10 O 0.49869(11) 0.91388(13) 0.95648(14)
O3_11 O 0.71901(19) 0.21901(19) 0.03099(19)
O4_11 O 0.74869(11) 0.16388(13) 0.04352(14)
O6_11 O 0.77654(14) 0.22134(9) 0.02866(9)
O7_11 O 0.70648(14) 0.16388(13) 0.00131(11)
O16_11 O 0.66388(13) 0.20648(14) 0.00131(11)
O17_11 O 0.66388(13) 0.24869(11) 0.04352(14)
O20_11 O 0.72134(9) 0.27654(14) 0.02866(9)
O22_11 O 0.77866(9) 0.27866(9) 0.02654(14)
O24_11 O 0.70648(14) 0.24869(11) 0.08612(13)
O25_11 O 0.74869(11) 0.20648(14) 0.08612(13)
H52_6 H 0.844479 0.297367 0.0189338
H56_7 H 0.797367 0.344479 0.0189338
O2_11 O 0.72134(9) 0.22134(9) 0.97346(14)
O5_11 O 0.77866(9) 0.22346(14) 0.97134(9)
O8_8 O 0.75111(11) 0.16854(13) 0.95834(13)
Zr2_7 Zr 0.74989(2) 0.24989(2) 0.94454(2)
O10_11 O 0.75131(11) 0.29352(14) 0.91388(13)
O11_11 O 0.79352(14) 0.25131(11) 0.91388(13)
O12_9 O 0.70834(13) 0.24889(11) 0.91854(13)
O13_8 O 0.74889(11) 0.20834(13) 0.91854(13)
O14_11 O 0.72346(14) 0.27866(9) 0.97134(9)
O15_11 O 0.78099(19) 0.28099(19) 0.96901(19)
O18_9 O 0.66854(13) 0.25111(11) 0.95834(13)
O27_11 O 0.83612(13) 0.29352(14) 0.99869(11)
O28_11 O 0.83612(13) 0.25131(11) 0.95648(14)
O31_11 O 0.79352(14) 0.33612(13) 0.99869(11)
O32_11 O 0.75131(11) 0.33612(13) 0.95648(14)
O2_12 O 0.02866(9) 0.27654(14) 0.72134(9)
O3_12 O 0.03099(19) 0.21901(19) 0.71901(19)
O4_12 O 0.08612(13) 0.20648(14) 0.74869(11)
O5_12 O 0.02654(14) 0.27866(9) 0.77866(9)
O6_12 O 0.02866(9) 0.22134(9) 0.77654(14)
O7_12 O 0.08612(13) 0.24869(11) 0.70648(14)
O12_10 O 0.00111(11) 0.33146(13) 0.70834(13)
O16_12 O 0.04352(14) 0.24869(11) 0.66388(13)
O17_12 O 0.00131(11) 0.20648(14) 0.66388(13)
O24_12 O 0.00131(11) 0.16388(13) 0.70648(14)
O25_12 O 0.04352(14) 0.16388(13) 0.74869(11)
H39_7 H 0.013254 0.352783 0.791347
O10_12 O 0.95648(14) 0.33612(13) 0.75131(11)
O11_12 O 0.99869(11) 0.33612(13) 0.79352(14)
O14_12 O 0.97134(9) 0.27866(9) 0.72346(14)
O15_12 O 0.96901(19) 0.28099(19) 0.78099(19)
O18_10 O 0.99889(11) 0.29166(13) 0.66854(13)
O20_12 O 0.97346(14) 0.22134(9) 0.72134(9)
O22_12 O 0.97134(9) 0.22346(14) 0.77866(9)
O23_8 O 0.95834(13) 0.16854(13) 0.75111(11)
O27_12 O 0.95648(14) 0.25131(11) 0.83612(13)
O28_12 O 0.99869(11) 0.29352(14) 0.83612(13)
O29_8 O 0.91854(13) 0.20834(13) 0.74889(11)
O31_12 O 0.91388(13) 0.25131(11) 0.79352(14)
O32_12 O 0.91388(13) 0.29352(14) 0.75131(11)
H48_6 H 0.981066 0.202633 0.655521
H50_7 H 0.988294 0.146103 0.709486
H39_8 H 0.791347 0.013254 0.352783
H50_8 H 0.709486 0.988294 0.146103
H56_8 H 0.344479 0.0189338 0.797367
H50_9 H 0.790514 0.353897 0.0117062
C1_15 C 0.6790(3) 0.2500 0.9290(3)
C2_15 C 0.6551(3) 0.2500 0.9051(3)
C3_11 C 0.6246(2) 0.2476(2) 0.9124(3)
H1_11 H 0.6193 0.2490 0.9329
C4_11 C 0.6020(3) 0.2434(3) 0.8919(2)
C5_15 C 0.6128(2) 0.2500 0.8628(2)
H2_11 H 0.5822 0.2371 0.8965
C6_15 C 0.58905(19) 0.2500 0.83905(19)
C7_11 C 0.56614(17) 0.22962(14) 0.83578(17)
H3_11 H 0.5655 0.2139 0.8502
C8_11 C 0.54371(15) 0.22906(14) 0.81408(16)
C9_15 C 0.54282(9) 0.2500 0.79282(9)
C10_15 C 0.52132(7) 0.2500 0.77132(7)
C11_11 C 0.6624(3) 0.2524(2) 0.8746(2)
H4_11 H 0.6829 0.2510 0.8693
C12_11 C 0.6419(2) 0.2566(3) 0.8520(3)
H5_11 H 0.6465 0.2629 0.8322
C13_11 C 0.58578(17) 0.27038(14) 0.81614(17)
H6_11 H 0.6002 0.2861 0.8155
C14_11 C 0.56408(16) 0.27094(14) 0.79371(15)
C15_11 C 0.52094(14) 0.20629(15) 0.81408(16)
C16_11 C 0.56408(16) 0.29371(15) 0.77094(14)
C17_13 C 0.5000 0.20718(9) 0.79282(9)
C18_11 C 0.52038(14) 0.18386(17) 0.83578(17)
C19_13 C 0.54282(9) 0.29282(9) 0.7500
C20_11 C 0.58578(17) 0.31614(17) 0.77038(14)
C21_13 C 0.52132(7) 0.27132(7) 0.7500
C22_13 C 0.5000 0.22868(7) 0.77132(7)
C23_11 C 0.47906(14) 0.18592(16) 0.79371(15)
C24_13 C 0.5000 0.16095(19) 0.83905(19)
H7_11 H 0.5361 0.1845 0.8502
C25_11 C 0.54371(15) 0.31408(16) 0.72906(14)
C26_13 C 0.58905(19) 0.33905(19) 0.7500
H8_11 H 0.6002 0.3155 0.7861
C27_13 C 0.5000 0.27132(7) 0.72868(7)
C28_13 C 0.47868(7) 0.22868(7) 0.7500
C29_11 C 0.47962(14) 0.16422(17) 0.81614(17)
C30_11 C 0.45629(15) 0.18592(16) 0.77094(14)
C31_13 C 0.5000 0.1372(2) 0.8628(2)
C32_11 C 0.56614(17) 0.33578(17) 0.72962(14)
C33_11 C 0.52094(14) 0.31408(16) 0.70629(15)
C34_13 C 0.6128(2) 0.3628(2) 0.7500
C35_13 C 0.5000 0.29282(9) 0.70718(9)
C36_15 C 0.47868(7) 0.2500 0.72868(7)
C37_13 C 0.45718(9) 0.20718(9) 0.7500
H9_11 H 0.4639 0.1498 0.8155
C38_11 C 0.43386(17) 0.16422(17) 0.77038(14)
C39_11 C 0.4934(3) 0.1081(2) 0.8520(3)
C40_11 C 0.5066(3) 0.1480(3) 0.8919(2)
H10_11 H 0.5655 0.3502 0.7139
C41_11 C 0.52038(14) 0.33578(17) 0.68386(17)
C42_11 C 0.6419(2) 0.3520(3) 0.7566(3)
C43_11 C 0.6020(3) 0.3919(2) 0.7434(3)
C44_11 C 0.47906(14) 0.29371(15) 0.68592(16)
C45_15 C 0.45718(9) 0.2500 0.70718(9)
C46_11 C 0.43592(16) 0.20629(15) 0.72906(14)
C47_13 C 0.41095(19) 0.16095(19) 0.7500
H11_11 H 0.4345 0.1498 0.7861
C48_11 C 0.4976(2) 0.0876(3) 0.8746(2)
H12_11 H 0.4871 0.1035 0.8322
C49_11 C 0.5024(2) 0.1254(2) 0.9124(3)
H13_11 H 0.5129 0.1678 0.8965
C50_13 C 0.5000 0.33905(19) 0.66095(19)
H14_11 H 0.5361 0.3502 0.6845
C51_11 C 0.6624(3) 0.3746(2) 0.7524(2)
H15_11 H 0.6465 0.3322 0.7629
C52_11 C 0.6246(2) 0.4124(3) 0.7476(2)
H16_11 H 0.5822 0.3965 0.7371
C53_11 C 0.47962(14) 0.31614(17) 0.66422(17)
C54_11 C 0.45629(15) 0.27094(14) 0.68592(16)
C55_11 C 0.43592(16) 0.22906(14) 0.70629(15)
C56_11 C 0.41422(17) 0.18386(17) 0.72962(14)
C57_13 C 0.3872(2) 0.1372(2) 0.7500
C58_13 C 0.5000 0.0949(3) 0.9051(3)
H17_11 H 0.4990 0.0671 0.8693
H18_11 H 0.5010 0.1307 0.9329
C59_13 C 0.5000 0.3628(2) 0.6372(2)
C60_13 C 0.6551(3) 0.4051(3) 0.7500
H19_11 H 0.6829 0.3693 0.7510
H20_11 H 0.6193 0.4329 0.7490
H21_11 H 0.4639 0.3155 0.6498
C61_11 C 0.43386(17) 0.27038(14) 0.66422(17)
C62_11 C 0.41422(17) 0.22962(14) 0.68386(17)
H22_11 H 0.3998 0.1845 0.7139
C63_11 C 0.3581(2) 0.1480(3) 0.7434(3)
C64_11 C 0.3980(3) 0.1081(2) 0.7566(3)
C65_13 C 0.5000 0.0710(3) 0.9290(3)
C66_11 C 0.5066(3) 0.3919(2) 0.6480(3)
C67_11 C 0.4934(3) 0.3520(3) 0.6081(2)
C68_13 C 0.6790(3) 0.4290(3) 0.7500
C69_15 C 0.41095(19) 0.2500 0.66095(19)
H23_11 H 0.4345 0.2861 0.6498
H24_11 H 0.3998 0.2139 0.6845
C70_11 C 0.3376(3) 0.1254(2) 0.7476(2)
H25_11 H 0.3535 0.1678 0.7371
C71_11 C 0.3754(2) 0.0876(3) 0.7524(2)
H26_11 H 0.4178 0.1035 0.7629
C72_11 C 0.5024(2) 0.4124(3) 0.6254(2)
H27_11 H 0.5129 0.3965 0.6678
C73_11 C 0.4976(2) 0.3746(2) 0.5876(3)
H28_11 H 0.4871 0.3322 0.6035
O35_9 O 0.66854(13) 0.45834(13) 0.75111(11)
O36_9 O 0.70834(13) 0.41854(13) 0.74889(11)
C74_15 C 0.3872(2) 0.2500 0.6372(2)
C75_13 C 0.3449(3) 0.0949(3) 0.7500
H29_11 H 0.3171 0.1307 0.7490
H30_11 H 0.3807 0.0671 0.7510
C76_13 C 0.5000 0.4051(3) 0.5949(3)
H31_11 H 0.5010 0.4329 0.6307
H32_11 H 0.4990 0.3693 0.5671
C77_11 C 0.3581(2) 0.2434(3) 0.6480(3)
C78_11 C 0.3980(3) 0.2566(3) 0.6081(2)
C79_13 C 0.3210(3) 0.0710(3) 0.7500
C80_13 C 0.5000 0.4290(3) 0.5710(3)
C81_11 C 0.3376(3) 0.2476(2) 0.6254(2)
H33_11 H 0.3535 0.2371 0.6678
C82_11 C 0.3754(2) 0.2524(2) 0.5876(3)
H34_11 H 0.4178 0.2629 0.6035
O39_10 O 0.50111(11) 0.41854(13) 0.54166(13)
O40_10 O 0.49889(11) 0.45834(13) 0.58146(13)
C83_15 C 0.3449(3) 0.2500 0.5949(3)
H35_11 H 0.3171 0.2490 0.6307
H36_11 H 0.3807 0.2510 0.5671
C84_15 C 0.3210(3) 0.2500 0.5710(3)
H39_9 H 0.708653 0.147217 0.986746
C1_16 C 0.5710(3) 0.0000 0.9290(3)
C2_16 C 0.5949(3) 0.0000 0.9051(3)
C3_12 C 0.6254(2) 0.0024(2) 0.9124(3)
H1_12 H 0.6307 0.0010 0.9329
C4_12 C 0.6480(3) 0.0066(3) 0.8919(2)
C5_16 C 0.6372(2) 0.0000 0.8628(2)
H2_12 H 0.6678 0.0129 0.8965
C6_16 C 0.66095(19) 0.0000 0.83905(19)
C7_12 C 0.68386(17) 0.02038(14) 0.83578(17)
H3_12 H 0.6845 0.0361 0.8502
C8_12 C 0.70629(15) 0.02094(14) 0.81408(16)
C9_16 C 0.70718(9) -0.0000 0.79282(9)
C10_16 C 0.72868(7) 0.0000 0.77132(7)
C15_12 C 0.72906(14) 0.04371(15) 0.81408(16)
C17_14 C 0.7500 0.04282(9) 0.79282(9)
C18_12 C 0.72962(14) 0.06614(17) 0.83578(17)
C22_14 C 0.7500 0.02132(7) 0.77132(7)
C23_12 C 0.77094(14) 0.06408(16) 0.79371(15)
C24_14 C 0.7500 0.08905(19) 0.83905(19)
H7_12 H 0.7139 0.0655 0.8502
C28_14 C 0.77132(7) 0.02132(7) 0.7500
C29_12 C 0.77038(14) 0.08578(17) 0.81614(17)
C30_12 C 0.79371(15) 0.06408(16) 0.77094(14)
C31_14 C 0.7500 0.1128(2) 0.8628(2)
C36_16 C 0.77132(7) -0.0000 0.72868(7)
C37_14 C 0.79282(9) 0.04282(9) 0.7500
H9_12 H 0.7861 0.1002 0.8155
C38_12 C 0.81614(17) 0.08578(17) 0.77038(14)
C39_12 C 0.7566(3) 0.1419(2) 0.8520(3)
C40_12 C 0.7434(3) 0.1020(3) 0.8919(2)
C45_16 C 0.79282(9) -0.0000 0.70718(9)
C46_12 C 0.81408(16) 0.04371(15) 0.72906(14)
C47_14 C 0.83905(19) 0.08905(19) 0.7500
H11_12 H 0.8155 0.1002 0.7861
C48_12 C 0.7524(2) 0.1624(3) 0.8746(2)
H12_12 H 0.7629 0.1465 0.8322
C49_12 C 0.7476(2) 0.1246(2) 0.9124(3)
H13_12 H 0.7371 0.0822 0.8965
C55_12 C 0.81408(16) 0.02094(14) 0.70629(15)
C56_12 C 0.83578(17) 0.06614(17) 0.72962(14)
C57_14 C 0.8628(2) 0.1128(2) 0.7500
C58_14 C 0.7500 0.1551(3) 0.9051(3)
H17_12 H 0.7510 0.1829 0.8693
H18_12 H 0.7490 0.1193 0.9329
C62_12 C 0.83578(17) 0.02038(14) 0.68386(17)
H22_12 H 0.8502 0.0655 0.7139
C63_12 C 0.8919(2) 0.1020(3) 0.7434(3)
C64_12 C 0.8520(3) 0.1419(2) 0.7566(3)
C65_14 C 0.7500 0.1790(3) 0.9290(3)
C69_16 C 0.83905(19) 0.0000 0.66095(19)
H24_12 H 0.8502 0.0361 0.6845
C70_12 C 0.9124(3) 0.1246(2) 0.7476(2)
H25_12 H 0.8965 0.0822 0.7371
C71_12 C 0.8746(2) 0.1624(3) 0.7524(2)
H26_12 H 0.8322 0.1465 0.7629
C74_16 C 0.8628(2) 0.0000 0.6372(2)
C75_14 C 0.9051(3) 0.1551(3) 0.7500
H29_12 H 0.9329 0.1193 0.7490
H30_12 H 0.8693 0.1829 0.7510
C77_12 C 0.8919(2) 0.0066(3) 0.6480(3)
C79_14 C 0.9290(3) 0.1790(3) 0.7500
C81_12 C 0.9124(3) 0.0024(2) 0.6254(2)
H33_12 H 0.8965 0.0129 0.6678
C83_16 C 0.9051(3) 0.0000 0.5949(3)
H35_12 H 0.9329 0.0010 0.6307
C84_16 C 0.9290(3) 0.0000 0.5710(3)
H39_10 H 0.541347 0.102783 0.986746
H50_10 H 0.459486 0.896103 0.0117062
H56_9 H 0.547367 0.981066 0.0944792
C1_17 C 0.5710(3) 1.0000 0.9290(3)
C2_17 C 0.5949(3) 1.0000 0.9051(3)
C5_17 C 0.6372(2) 1.0000 0.8628(2)
C6_17 C 0.66095(19) 1.0000 0.83905(19)
C9_17 C 0.70718(9) 1.0000 0.79282(9)
C10_17 C 0.72868(7) 1.0000 0.77132(7)
C11_12 C 0.5876(3) 0.9976(2) 0.8746(2)
H4_12 H 0.5671 0.9990 0.8693
C12_12 C 0.6081(2) 0.9934(3) 0.8520(3)
H5_12 H 0.6035 0.9871 0.8322
C13_12 C 0.66422(17) 0.97962(14) 0.81614(17)
H6_12 H 0.6498 0.9639 0.8155
C14_12 C 0.68592(16) 0.97906(14) 0.79371(15)
C16_12 C 0.68592(16) 0.95629(15) 0.77094(14)
C19_14 C 0.70718(9) 0.95718(9) 0.7500
C20_12 C 0.66422(17) 0.93386(17) 0.77038(14)
C21_14 C 0.72868(7) 0.97868(7) 0.7500
C25_12 C 0.70629(15) 0.93592(16) 0.72906(14)
C26_14 C 0.66095(19) 0.91095(19) 0.7500
H8_12 H 0.6498 0.9345 0.7861
C27_14 C 0.7500 0.97868(7) 0.72868(7)
C32_12 C 0.68386(17) 0.91422(17) 0.72962(14)
C33_12 C 0.72906(14) 0.93592(16) 0.70629(15)
C34_14 C 0.6372(2) 0.8872(2) 0.7500
C35_14 C 0.7500 0.95718(9) 0.70718(9)
C36_17 C 0.77132(7) 1.0000 0.72868(7)
H10_12 H 0.6845 0.8998 0.7139
C41_12 C 0.72962(14) 0.91422(17) 0.68386(17)
C42_12 C 0.6081(2) 0.8980(3) 0.7566(3)
C43_12 C 0.6480(3) 0.8581(2) 0.7434(3)
C44_12 C 0.77094(14) 0.95629(15) 0.68592(16)
C45_17 C 0.79282(9) 1.0000 0.70718(9)
C50_14 C 0.7500 0.91095(19) 0.66095(19)
H14_12 H 0.7139 0.8998 0.6845
C51_12 C 0.5876(3) 0.8754(2) 0.7524(2)
H15_12 H 0.6035 0.9178 0.7629
C52_12 C 0.6254(2) 0.8376(3) 0.7476(2)
H16_12 H 0.6678 0.8535 0.7371
C53_12 C 0.77038(14) 0.93386(17) 0.66422(17)
C54_12 C 0.79371(15) 0.97906(14) 0.68592(16)
C59_14 C 0.7500 0.8872(2) 0.6372(2)
C60_14 C 0.5949(3) 0.8449(3) 0.7500
H19_12 H 0.5671 0.8807 0.7510
H20_12 H 0.6307 0.8171 0.7490
H21_12 H 0.7861 0.9345 0.6498
C61_12 C 0.81614(17) 0.97962(14) 0.66422(17)
C66_12 C 0.7434(3) 0.8581(2) 0.6480(3)
C67_12 C 0.7566(3) 0.8980(3) 0.6081(2)
C68_14 C 0.5710(3) 0.8210(3) 0.7500
C69_17 C 0.83905(19) 1.0000 0.66095(19)
H23_12 H 0.8155 0.9639 0.6498
C72_12 C 0.7476(2) 0.8376(3) 0.6254(2)
H27_12 H 0.7371 0.8535 0.6678
C73_12 C 0.7524(2) 0.8754(2) 0.5876(3)
H28_12 H 0.7629 0.9178 0.6035
O35_10 O 0.58146(13) 0.79166(13) 0.75111(11)
O36_10 O 0.54166(13) 0.83146(13) 0.74889(11)
C74_17 C 0.8628(2) 1.0000 0.6372(2)
C76_14 C 0.7500 0.8449(3) 0.5949(3)
H31_12 H 0.7490 0.8171 0.6307
H32_12 H 0.7510 0.8807 0.5671
Zr9_7 Zr 0.55546(2) 0.75011(2) 0.75011(2)
C78_12 C 0.8520(3) 0.9934(3) 0.6081(2)
C80_14 C 0.7500 0.8210(3) 0.5710(3)
C82_12 C 0.8746(2) 0.9976(2) 0.5876(3)
H34_12 H 0.8322 0.9871 0.6035
O39_11 O 0.74889(11) 0.83146(13) 0.54166(13)
O40_11 O 0.75111(11) 0.79166(13) 0.58146(13)
C83_17 C 0.9051(3) 1.0000 0.5949(3)
H36_12 H 0.8693 0.9990 0.5671
Zr14_7 Zr 0.75011(2) 0.75011(2) 0.55546(2)
C84_17 C 0.9290(3) 1.0000 0.5710(3)
C1_18 C 0.0000 0.3210(3) 0.6790(3)
C2_18 C 0.0000 0.3449(3) 0.6551(3)
C3_13 C 0.0024(2) 0.3376(3) 0.6246(2)
H1_13 H 0.0010 0.3171 0.6193
C4_13 C 0.0066(3) 0.3581(2) 0.6020(3)
C5_18 C 0.0000 0.3872(2) 0.6128(2)
H2_13 H 0.0129 0.3535 0.5822
C6_18 C 0.0000 0.41095(19) 0.58905(19)
C7_13 C 0.02038(14) 0.41422(17) 0.56614(17)
H3_13 H 0.0361 0.3998 0.5655
C8_13 C 0.02094(14) 0.43592(16) 0.54371(15)
C9_18 C 0.0000 0.45718(9) 0.54282(9)
C10_18 C 0.0000 0.47868(7) 0.52132(7)
C15_13 C 0.04371(15) 0.43592(16) 0.52094(14)
C17_15 C 0.04282(9) 0.45718(9) 0.5000
C18_13 C 0.06614(17) 0.41422(17) 0.52038(14)
C22_15 C 0.02132(7) 0.47868(7) 0.5000
C23_13 C 0.06408(16) 0.45629(15) 0.47906(14)
C24_15 C 0.08905(19) 0.41095(19) 0.5000
H7_13 H 0.0655 0.3998 0.5361
C28_15 C 0.02132(7) 0.5000 0.47868(7)
C29_13 C 0.08578(17) 0.43386(17) 0.47962(14)
C30_13 C 0.06408(16) 0.47906(14) 0.45629(15)
C31_15 C 0.1128(2) 0.3872(2) 0.5000
C36_18 C 0.0000 0.52132(7) 0.47868(7)
C37_15 C 0.04282(9) 0.5000 0.45718(9)
H9_13 H 0.1002 0.4345 0.4639
C38_13 C 0.08578(17) 0.47962(14) 0.43386(17)
C39_13 C 0.1419(2) 0.3980(3) 0.4934(3)
C40_13 C 0.1020(3) 0.3581(2) 0.5066(3)
C45_18 C 0.0000 0.54282(9) 0.45718(9)
C46_13 C 0.04371(15) 0.52094(14) 0.43592(16)
C47_15 C 0.08905(19) 0.5000 0.41095(19)
H11_13 H 0.1002 0.4639 0.4345
C48_13 C 0.1624(3) 0.3754(2) 0.4976(2)
H12_13 H 0.1465 0.4178 0.4871
C49_13 C 0.1246(2) 0.3376(3) 0.5024(2)
H13_13 H 0.0822 0.3535 0.5129
C55_13 C 0.02094(14) 0.54371(15) 0.43592(16)
C56_13 C 0.06614(17) 0.52038(14) 0.41422(17)
C57_15 C 0.1128(2) 0.5000 0.3872(2)
C58_15 C 0.1551(3) 0.3449(3) 0.5000
H17_13 H 0.1829 0.3807 0.4990
H18_13 H 0.1193 0.3171 0.5010
C62_13 C 0.02038(14) 0.56614(17) 0.41422(17)
H22_13 H 0.0655 0.5361 0.3998
C63_13 C 0.1020(3) 0.5066(3) 0.3581(2)
C64_13 C 0.1419(2) 0.4934(3) 0.3980(3)
C65_15 C 0.1790(3) 0.3210(3) 0.5000
C69_18 C -0.0000 0.58905(19) 0.41095(19)
H24_13 H 0.0361 0.5655 0.3998
C70_13 C 0.1246(2) 0.5024(2) 0.3376(3)
H25_13 H 0.0822 0.5129 0.3535
C71_13 C 0.1624(3) 0.4976(2) 0.3754(2)
H26_13 H 0.1465 0.4871 0.4178
C74_18 C 0.0000 0.6128(2) 0.3872(2)
C75_15 C 0.1551(3) 0.5000 0.3449(3)
H29_13 H 0.1193 0.5010 0.3171
H30_13 H 0.1829 0.4990 0.3807
C77_13 C 0.0066(3) 0.6020(3) 0.3581(2)
C79_15 C 0.1790(3) 0.5000 0.3210(3)
C81_13 C 0.0024(2) 0.6246(2) 0.3376(3)
H33_13 H 0.0129 0.5822 0.3535
C83_18 C 0.0000 0.6551(3) 0.3449(3)
H35_13 H 0.0010 0.6193 0.3171
C84_18 C 0.0000 0.6790(3) 0.3210(3)
C1_19 C 1.0000 0.3210(3) 0.6790(3)
C2_19 C 1.0000 0.3449(3) 0.6551(3)
C5_19 C 1.0000 0.3872(2) 0.6128(2)
C6_19 C 1.0000 0.41095(19) 0.58905(19)
C9_19 C 1.0000 0.45718(9) 0.54282(9)
C10_19 C 1.0000 0.47868(7) 0.52132(7)
C11_13 C 0.9976(2) 0.3754(2) 0.6624(3)
H4_13 H 0.9990 0.3807 0.6829
C12_13 C 0.9934(3) 0.3980(3) 0.6419(2)
H5_13 H 0.9871 0.4178 0.6465
C13_13 C 0.97962(14) 0.43386(17) 0.58578(17)
H6_13 H 0.9639 0.4345 0.6002
C14_13 C 0.97906(14) 0.45629(15) 0.56408(16)
C16_13 C 0.95629(15) 0.47906(14) 0.56408(16)
C19_15 C 0.95718(9) 0.5000 0.54282(9)
C20_13 C 0.93386(17) 0.47962(14) 0.58578(17)
C21_15 C 0.97868(7) 0.5000 0.52132(7)
C25_13 C 0.93592(16) 0.52094(14) 0.54371(15)
C26_15 C 0.91095(19) 0.5000 0.58905(19)
H8_13 H 0.9345 0.4639 0.6002
C27_15 C 0.97868(7) 0.52132(7) 0.5000
C32_13 C 0.91422(17) 0.52038(14) 0.56614(17)
C33_13 C 0.93592(16) 0.54371(15) 0.52094(14)
C34_15 C 0.8872(2) 0.5000 0.6128(2)
C35_15 C 0.95718(9) 0.54282(9) 0.5000
C36_19 C 1.0000 0.52132(7) 0.47868(7)
H10_13 H 0.8998 0.5361 0.5655
C41_13 C 0.91422(17) 0.56614(17) 0.52038(14)
C42_13 C 0.8980(3) 0.4934(3) 0.6419(2)
C43_13 C 0.8581(2) 0.5066(3) 0.6020(3)
C44_13 C 0.95629(15) 0.56408(16) 0.47906(14)
C45_19 C 1.0000 0.54282(9) 0.45718(9)
C50_15 C 0.91095(19) 0.58905(19) 0.5000
H14_13 H 0.8998 0.5655 0.5361
C51_13 C 0.8754(2) 0.4976(2) 0.6624(3)
H15_13 H 0.9178 0.4871 0.6465
C52_13 C 0.8376(3) 0.5024(2) 0.6246(2)
H16_13 H 0.8535 0.5129 0.5822
C53_13 C 0.93386(17) 0.58578(17) 0.47962(14)
C54_13 C 0.97906(14) 0.56408(16) 0.45629(15)
C59_15 C 0.8872(2) 0.6128(2) 0.5000
C60_15 C 0.8449(3) 0.5000 0.6551(3)
H19_13 H 0.8807 0.4990 0.6829
H20_13 H 0.8171 0.5010 0.6193
H21_13 H 0.9345 0.6002 0.4639
C61_13 C 0.97962(14) 0.58578(17) 0.43386(17)
C66_13 C 0.8581(2) 0.6020(3) 0.5066(3)
C67_13 C 0.8980(3) 0.6419(2) 0.4934(3)
C68_15 C 0.8210(3) 0.5000 0.6790(3)
C69_19 C 1.0000 0.58905(19) 0.41095(19)
H23_13 H 0.9639 0.6002 0.4345
C72_13 C 0.8376(3) 0.6246(2) 0.5024(2)
H27_13 H 0.8535 0.5822 0.5129
C73_13 C 0.8754(2) 0.6624(3) 0.4976(2)
H28_13 H 0.9178 0.6465 0.4871
O35_11 O 0.79166(13) 0.49889(11) 0.66854(13)
O36_11 O 0.83146(13) 0.50111(11) 0.70834(13)
C74_19 C 1.0000 0.6128(2) 0.3872(2)
C76_15 C 0.8449(3) 0.6551(3) 0.5000
H31_13 H 0.8171 0.6193 0.5010
H32_13 H 0.8807 0.6829 0.4990
Zr10_8 Zr 0.80546(2) 0.50011(2) 0.74989(2)
C78_13 C 0.9934(3) 0.6419(2) 0.3980(3)
C80_15 C 0.8210(3) 0.6790(3) 0.5000
C82_13 C 0.9976(2) 0.6624(3) 0.3754(2)
H34_13 H 0.9871 0.6465 0.4178
O39_12 O 0.83146(13) 0.70834(13) 0.50111(11)
O40_12 O 0.79166(13) 0.66854(13) 0.49889(11)
C83_19 C 1.0000 0.6551(3) 0.3449(3)
H36_13 H 0.9990 0.6829 0.3807
Zr13_8 Zr 0.80546(2) 0.74989(2) 0.50011(2)
C84_19 C 1.0000 0.6790(3) 0.3210(3)
H56_10 H 0.981066 0.155521 0.702633
C1_20 C 0.0000 0.9290(3) 0.5710(3)
C2_20 C 0.0000 0.9051(3) 0.5949(3)
C3_14 C 0.0024(2) 0.9124(3) 0.6254(2)
H1_14 H 0.0010 0.9329 0.6307
C4_14 C 0.0066(3) 0.8919(2) 0.6480(3)
C5_20 C 0.0000 0.8628(2) 0.6372(2)
H2_14 H 0.0129 0.8965 0.6678
C6_20 C -0.0000 0.83905(19) 0.66095(19)
C7_14 C 0.02038(14) 0.83578(17) 0.68386(17)
H3_14 H 0.0361 0.8502 0.6845
C8_14 C 0.02094(14) 0.81408(16) 0.70629(15)
C9_20 C -0.0000 0.79282(9) 0.70718(9)
C10_20 C 0.0000 0.77132(7) 0.72868(7)
C15_14 C 0.04371(15) 0.81408(16) 0.72906(14)
C17_16 C 0.04282(9) 0.79282(9) 0.7500
C18_14 C 0.06614(17) 0.83578(17) 0.72962(14)
C22_16 C 0.02132(7) 0.77132(7) 0.7500
C23_14 C 0.06408(16) 0.79371(15) 0.77094(14)
C24_16 C 0.08905(19) 0.83905(19) 0.7500
H7_14 H 0.0655 0.8502 0.7139
C28_16 C 0.02132(7) 0.7500 0.77132(7)
C29_14 C 0.08578(17) 0.81614(17) 0.77038(14)
C30_14 C 0.06408(16) 0.77094(14) 0.79371(15)
C31_16 C 0.1128(2) 0.8628(2) 0.7500
C36_20 C 0.0000 0.72868(7) 0.77132(7)
C37_16 C 0.04282(9) 0.7500 0.79282(9)
H9_14 H 0.1002 0.8155 0.7861
C38_14 C 0.08578(17) 0.77038(14) 0.81614(17)
C39_14 C 0.1419(2) 0.8520(3) 0.7566(3)
C40_14 C 0.1020(3) 0.8919(2) 0.7434(3)
C45_20 C -0.0000 0.70718(9) 0.79282(9)
C46_14 C 0.04371(15) 0.72906(14) 0.81408(16)
C47_16 C 0.08905(19) 0.7500 0.83905(19)
H11_14 H 0.1002 0.7861 0.8155
C48_14 C 0.1624(3) 0.8746(2) 0.7524(2)
H12_14 H 0.1465 0.8322 0.7629
C49_14 C 0.1246(2) 0.9124(3) 0.7476(2)
H13_14 H 0.0822 0.8965 0.7371
C55_14 C 0.02094(14) 0.70629(15) 0.81408(16)
C56_14 C 0.06614(17) 0.72962(14) 0.83578(17)
C57_16 C 0.1128(2) 0.7500 0.8628(2)
C58_16 C 0.1551(3) 0.9051(3) 0.7500
H17_14 H 0.1829 0.8693 0.7510
H18_14 H 0.1193 0.9329 0.7490
C62_14 C 0.02038(14) 0.68386(17) 0.83578(17)
H22_14 H 0.0655 0.7139 0.8502
C63_14 C 0.1020(3) 0.7434(3) 0.8919(2)
C64_14 C 0.1419(2) 0.7566(3) 0.8520(3)
C65_16 C 0.1790(3) 0.9290(3) 0.7500
C69_20 C 0.0000 0.66095(19) 0.83905(19)
H24_14 H 0.0361 0.6845 0.8502
C70_14 C 0.1246(2) 0.7476(2) 0.9124(3)
H25_14 H 0.0822 0.7371 0.8965
C71_14 C 0.1624(3) 0.7524(2) 0.8746(2)
H26_14 H 0.1465 0.7629 0.8322
C74_20 C 0.0000 0.6372(2) 0.8628(2)
C75_16 C 0.1551(3) 0.7500 0.9051(3)
H29_14 H 0.1193 0.7490 0.9329
H30_14 H 0.1829 0.7510 0.8693
C77_14 C 0.0066(3) 0.6480(3) 0.8919(2)
C79_16 C 0.1790(3) 0.7500 0.9290(3)
C81_14 C 0.0024(2) 0.6254(2) 0.9124(3)
H33_14 H 0.0129 0.6678 0.8965
C83_20 C 0.0000 0.5949(3) 0.9051(3)
H35_14 H 0.0010 0.6307 0.9329
C84_20 C 0.0000 0.5710(3) 0.9290(3)
H39_11 H 0.102783 0.986746 0.541347
H50_11 H 0.896103 0.0117062 0.459486
H56_11 H 0.981066 0.0944792 0.547367
C1_21 C 1.0000 0.9290(3) 0.5710(3)
C2_21 C 1.0000 0.9051(3) 0.5949(3)
C5_21 C 1.0000 0.8628(2) 0.6372(2)
C6_21 C 1.0000 0.83905(19) 0.66095(19)
C9_21 C 1.0000 0.79282(9) 0.70718(9)
C10_21 C 1.0000 0.77132(7) 0.72868(7)
C11_14 C 0.9976(2) 0.8746(2) 0.5876(3)
H4_14 H 0.9990 0.8693 0.5671
C12_14 C 0.9934(3) 0.8520(3) 0.6081(2)
H5_14 H 0.9871 0.8322 0.6035
C13_14 C 0.97962(14) 0.81614(17) 0.66422(17)
H6_14 H 0.9639 0.8155 0.6498
C14_14 C 0.97906(14) 0.79371(15) 0.68592(16)
C16_14 C 0.95629(15) 0.77094(14) 0.68592(16)
C19_16 C 0.95718(9) 0.7500 0.70718(9)
C20_14 C 0.93386(17) 0.77038(14) 0.66422(17)
C21_16 C 0.97868(7) 0.7500 0.72868(7)
C25_14 C 0.93592(16) 0.72906(14) 0.70629(15)
C26_16 C 0.91095(19) 0.7500 0.66095(19)
H8_14 H 0.9345 0.7861 0.6498
C27_16 C 0.97868(7) 0.72868(7) 0.7500
C32_14 C 0.91422(17) 0.72962(14) 0.68386(17)
C33_14 C 0.93592(16) 0.70629(15) 0.72906(14)
C34_16 C 0.8872(2) 0.7500 0.6372(2)
C35_16 C 0.95718(9) 0.70718(9) 0.7500
C36_21 C 1.0000 0.72868(7) 0.77132(7)
H10_14 H 0.8998 0.7139 0.6845
C41_14 C 0.91422(17) 0.68386(17) 0.72962(14)
C42_14 C 0.8980(3) 0.7566(3) 0.6081(2)
C43_14 C 0.8581(2) 0.7434(3) 0.6480(3)
C44_14 C 0.95629(15) 0.68592(16) 0.77094(14)
C45_21 C 1.0000 0.70718(9) 0.79282(9)
C50_16 C 0.91095(19) 0.66095(19) 0.7500
H14_14 H 0.8998 0.6845 0.7139
C51_14 C 0.8754(2) 0.7524(2) 0.5876(3)
H15_14 H 0.9178 0.7629 0.6035
C52_14 C 0.8376(3) 0.7476(2) 0.6254(2)
H16_14 H 0.8535 0.7371 0.6678
C53_14 C 0.93386(17) 0.66422(17) 0.77038(14)
C54_14 C 0.97906(14) 0.68592(16) 0.79371(15)
C59_16 C 0.8872(2) 0.6372(2) 0.7500
C60_16 C 0.8449(3) 0.7500 0.5949(3)
H19_14 H 0.8807 0.7510 0.5671
H20_14 H 0.8171 0.7490 0.6307
H21_14 H 0.9345 0.6498 0.7861
C61_14 C 0.97962(14) 0.66422(17) 0.81614(17)
C66_14 C 0.8581(2) 0.6480(3) 0.7434(3)
C67_14 C 0.8980(3) 0.6081(2) 0.7566(3)
C68_16 C 0.8210(3) 0.7500 0.5710(3)
C69_21 C 1.0000 0.66095(19) 0.83905(19)
H23_14 H 0.9639 0.6498 0.8155
C72_14 C 0.8376(3) 0.6254(2) 0.7476(2)
H27_14 H 0.8535 0.6678 0.7371
C73_14 C 0.8754(2) 0.5876(3) 0.7524(2)
H28_14 H 0.9178 0.6035 0.7629
O35_12 O 0.79166(13) 0.75111(11) 0.58146(13)
O36_12 O 0.83146(13) 0.74889(11) 0.54166(13)
C74_21 C 1.0000 0.6372(2) 0.8628(2)
C76_16 C 0.8449(3) 0.5949(3) 0.7500
H31_14 H 0.8171 0.6307 0.7490
H32_14 H 0.8807 0.5671 0.7510
C78_14 C 0.9934(3) 0.6081(2) 0.8520(3)
C80_16 C 0.8210(3) 0.5710(3) 0.7500
C82_14 C 0.9976(2) 0.5876(3) 0.8746(2)
H34_14 H 0.9871 0.6035 0.8322
O39_13 O 0.83146(13) 0.54166(13) 0.74889(11)
O40_13 O 0.79166(13) 0.58146(13) 0.75111(11)
C83_21 C 1.0000 0.5949(3) 0.9051(3)
H36_14 H 0.9990 0.5671 0.8693
Zr14_8 Zr 0.75011(2) 0.55546(2) 0.75011(2)
C84_21 C 1.0000 0.5710(3) 0.9290(3)
C1_22 C 0.3210(3) 0.5710(3) 0.2500
C2_22 C 0.3449(3) 0.5949(3) 0.2500
C3_15 C 0.3376(3) 0.6254(2) 0.2476(2)
H1_15 H 0.3171 0.6307 0.2490
C4_15 C 0.3581(2) 0.6480(3) 0.2434(3)
C5_22 C 0.3872(2) 0.6372(2) 0.2500
H2_15 H 0.3535 0.6678 0.2371
C6_22 C 0.41095(19) 0.66095(19) 0.2500
C7_15 C 0.41422(17) 0.68386(17) 0.22962(14)
H3_15 H 0.3998 0.6845 0.2139
C8_15 C 0.43592(16) 0.70629(15) 0.22906(14)
C9_22 C 0.45718(9) 0.70718(9) 0.2500
C10_22 C 0.47868(7) 0.72868(7) 0.2500
C11_15 C 0.3754(2) 0.5876(3) 0.2524(2)
H4_15 H 0.3807 0.5671 0.2510
C12_15 C 0.3980(3) 0.6081(2) 0.2566(3)
H5_15 H 0.4178 0.6035 0.2629
C13_15 C 0.43386(17) 0.66422(17) 0.27038(14)
H6_15 H 0.4345 0.6498 0.2861
C14_15 C 0.45629(15) 0.68592(16) 0.27094(14)
C15_15 C 0.43592(16) 0.72906(14) 0.20629(15)
C16_15 C 0.47906(14) 0.68592(16) 0.29371(15)
C17_17 C 0.45718(9) 0.7500 0.20718(9)
C18_15 C 0.41422(17) 0.72962(14) 0.18386(17)
C19_17 C 0.5000 0.70718(9) 0.29282(9)
C20_15 C 0.47962(14) 0.66422(17) 0.31614(17)
C21_17 C 0.5000 0.72868(7) 0.27132(7)
C22_17 C 0.47868(7) 0.7500 0.22868(7)
C23_15 C 0.45629(15) 0.77094(14) 0.18592(16)
C24_17 C 0.41095(19) 0.7500 0.16095(19)
H7_15 H 0.3998 0.7139 0.1845
C25_15 C 0.52094(14) 0.70629(15) 0.31408(16)
C26_17 C 0.5000 0.66095(19) 0.33905(19)
H8_15 H 0.4639 0.6498 0.3155
C27_17 C 0.52132(7) 0.7500 0.27132(7)
C28_17 C 0.5000 0.77132(7) 0.22868(7)
C29_15 C 0.43386(17) 0.77038(14) 0.16422(17)
C30_15 C 0.47906(14) 0.79371(15) 0.18592(16)
C31_17 C 0.3872(2) 0.7500 0.1372(2)
C32_15 C 0.52038(14) 0.68386(17) 0.33578(17)
C33_15 C 0.54371(15) 0.72906(14) 0.31408(16)
C34_17 C 0.5000 0.6372(2) 0.3628(2)
C35_17 C 0.54282(9) 0.7500 0.29282(9)
C36_22 C 0.52132(7) 0.77132(7) 0.2500
C37_17 C 0.5000 0.79282(9) 0.20718(9)
H9_15 H 0.4345 0.7861 0.1498
C38_15 C 0.47962(14) 0.81614(17) 0.16422(17)
C39_15 C 0.3980(3) 0.7566(3) 0.1081(2)
C40_15 C 0.3581(2) 0.7434(3) 0.1480(3)
H10_15 H 0.5361 0.6845 0.3502
C41_15 C 0.56614(17) 0.72962(14) 0.33578(17)
C42_15 C 0.4934(3) 0.6081(2) 0.3520(3)
C43_15 C 0.5066(3) 0.6480(3) 0.3919(2)
C44_15 C 0.56408(16) 0.77094(14) 0.29371(15)
C45_22 C 0.54282(9) 0.79282(9) 0.2500
C46_15 C 0.52094(14) 0.81408(16) 0.20629(15)
C47_17 C 0.5000 0.83905(19) 0.16095(19)
H11_15 H 0.4639 0.8155 0.1498
C48_15 C 0.3754(2) 0.7524(2) 0.0876(3)
H12_15 H 0.4178 0.7629 0.1035
C49_15 C 0.3376(3) 0.7476(2) 0.1254(2)
H13_15 H 0.3535 0.7371 0.1678
C50_17 C 0.58905(19) 0.7500 0.33905(19)
H14_15 H 0.5655 0.7139 0.3502
C51_15 C 0.4976(2) 0.5876(3) 0.3746(2)
H15_15 H 0.4871 0.6035 0.3322
C52_15 C 0.5024(2) 0.6254(2) 0.4124(3)
H16_15 H 0.5129 0.6678 0.3965
C53_15 C 0.58578(17) 0.77038(14) 0.31614(17)
C54_15 C 0.56408(16) 0.79371(15) 0.27094(14)
C55_15 C 0.54371(15) 0.81408(16) 0.22906(14)
C56_15 C 0.52038(14) 0.83578(17) 0.18386(17)
C57_17 C 0.5000 0.8628(2) 0.1372(2)
C58_17 C 0.3449(3) 0.7500 0.0949(3)
H17_15 H 0.3807 0.7510 0.0671
H18_15 H 0.3171 0.7490 0.1307
C59_17 C 0.6128(2) 0.7500 0.3628(2)
C60_17 C 0.5000 0.5949(3) 0.4051(3)
H19_15 H 0.4990 0.5671 0.3693
H20_15 H 0.5010 0.6307 0.4329
H21_15 H 0.6002 0.7861 0.3155
C61_15 C 0.58578(17) 0.81614(17) 0.27038(14)
C62_15 C 0.56614(17) 0.83578(17) 0.22962(14)
H22_15 H 0.5361 0.8502 0.1845
C63_15 C 0.5066(3) 0.8919(2) 0.1480(3)
C64_15 C 0.4934(3) 0.8520(3) 0.1081(2)
C65_17 C 0.3210(3) 0.7500 0.0710(3)
C66_15 C 0.6020(3) 0.7434(3) 0.3919(2)
C67_15 C 0.6419(2) 0.7566(3) 0.3520(3)
C68_17 C 0.5000 0.5710(3) 0.4290(3)
C69_22 C 0.58905(19) 0.83905(19) 0.2500
H23_15 H 0.6002 0.8155 0.2861
H24_15 H 0.5655 0.8502 0.2139
C70_15 C 0.5024(2) 0.9124(3) 0.1254(2)
H25_15 H 0.5129 0.8965 0.1678
C71_15 C 0.4976(2) 0.8746(2) 0.0876(3)
H26_15 H 0.4871 0.8322 0.1035
C72_15 C 0.6246(2) 0.7476(2) 0.4124(3)
H27_15 H 0.5822 0.7371 0.3965
C73_15 C 0.6624(3) 0.7524(2) 0.3746(2)
H28_15 H 0.6465 0.7629 0.3322
O35_13 O 0.49889(11) 0.58146(13) 0.45834(13)
O36_13 O 0.50111(11) 0.54166(13) 0.41854(13)
C74_22 C 0.6128(2) 0.8628(2) 0.2500
C75_17 C 0.5000 0.9051(3) 0.0949(3)
H29_15 H 0.5010 0.9329 0.1307
H30_15 H 0.4990 0.8693 0.0671
C76_17 C 0.6551(3) 0.7500 0.4051(3)
H31_15 H 0.6193 0.7490 0.4329
H32_15 H 0.6829 0.7510 0.3693
C77_15 C 0.6020(3) 0.8919(2) 0.2434(3)
C78_15 C 0.6419(2) 0.8520(3) 0.2566(3)
C79_17 C 0.5000 0.9290(3) 0.0710(3)
C80_17 C 0.6790(3) 0.7500 0.4290(3)
C81_15 C 0.6246(2) 0.9124(3) 0.2476(2)
H33_15 H 0.5822 0.8965 0.2371
C82_15 C 0.6624(3) 0.8746(2) 0.2524(2)
H34_15 H 0.6465 0.8322 0.2629
O39_14 O 0.70834(13) 0.74889(11) 0.41854(13)
O40_14 O 0.66854(13) 0.75111(11) 0.45834(13)
C83_22 C 0.6551(3) 0.9051(3) 0.2500
H35_15 H 0.6193 0.9329 0.2490
H36_15 H 0.6829 0.8693 0.2510
C84_22 C 0.6790(3) 0.9290(3) 0.2500
H50_12 H 0.0117062 0.459486 0.896103
H56_12 H 0.0944792 0.547367 0.981066
C1_23 C 0.9290(3) 0.5710(3) 0.0000
C2_23 C 0.9051(3) 0.5949(3) 0.0000
C3_16 C 0.9124(3) 0.6254(2) 0.0024(2)
H1_16 H 0.9329 0.6307 0.0010
C4_16 C 0.8919(2) 0.6480(3) 0.0066(3)
C5_23 C 0.8628(2) 0.6372(2) 0.0000
H2_16 H 0.8965 0.6678 0.0129
C6_23 C 0.83905(19) 0.66095(19) 0.0000
C7_16 C 0.83578(17) 0.68386(17) 0.02038(14)
H3_16 H 0.8502 0.6845 0.0361
C8_16 C 0.81408(16) 0.70629(15) 0.02094(14)
C9_23 C 0.79282(9) 0.70718(9) 0.0000
C10_23 C 0.77132(7) 0.72868(7) 0.0000
C15_16 C 0.81408(16) 0.72906(14) 0.04371(15)
C17_18 C 0.79282(9) 0.7500 0.04282(9)
C18_16 C 0.83578(17) 0.72962(14) 0.06614(17)
C22_18 C 0.77132(7) 0.7500 0.02132(7)
C23_16 C 0.79371(15) 0.77094(14) 0.06408(16)
C24_18 C 0.83905(19) 0.7500 0.08905(19)
H7_16 H 0.8502 0.7139 0.0655
C28_18 C 0.7500 0.77132(7) 0.02132(7)
C29_16 C 0.81614(17) 0.77038(14) 0.08578(17)
C30_16 C 0.77094(14) 0.79371(15) 0.06408(16)
C31_18 C 0.8628(2) 0.7500 0.1128(2)
C36_23 C 0.72868(7) 0.77132(7) 0.0000
C37_18 C 0.7500 0.79282(9) 0.04282(9)
H9_16 H 0.8155 0.7861 0.1002
C38_16 C 0.77038(14) 0.81614(17) 0.08578(17)
C39_16 C 0.8520(3) 0.7566(3) 0.1419(2)
C40_16 C 0.8919(2) 0.7434(3) 0.1020(3)
C45_23 C 0.70718(9) 0.79282(9) 0.0000
C46_16 C 0.72906(14) 0.81408(16) 0.04371(15)
C47_18 C 0.7500 0.83905(19) 0.08905(19)
H11_16 H 0.7861 0.8155 0.1002
C48_16 C 0.8746(2) 0.7524(2) 0.1624(3)
H12_16 H 0.8322 0.7629 0.1465
C49_16 C 0.9124(3) 0.7476(2) 0.1246(2)
H13_16 H 0.8965 0.7371 0.0822
C55_16 C 0.70629(15) 0.81408(16) 0.02094(14)
C56_16 C 0.72962(14) 0.83578(17) 0.06614(17)
C57_18 C 0.7500 0.8628(2) 0.1128(2)
C58_18 C 0.9051(3) 0.7500 0.1551(3)
H17_16 H 0.8693 0.7510 0.1829
H18_16 H 0.9329 0.7490 0.1193
C62_16 C 0.68386(17) 0.83578(17) 0.02038(14)
H22_16 H 0.7139 0.8502 0.0655
C63_16 C 0.7434(3) 0.8919(2) 0.1020(3)
C64_16 C 0.7566(3) 0.8520(3) 0.1419(2)
C65_18 C 0.9290(3) 0.7500 0.1790(3)
C69_23 C 0.66095(19) 0.83905(19) 0.0000
H24_16 H 0.6845 0.8502 0.0361
C70_16 C 0.7476(2) 0.9124(3) 0.1246(2)
H25_16 H 0.7371 0.8965 0.0822
C71_16 C 0.7524(2) 0.8746(2) 0.1624(3)
H26_16 H 0.7629 0.8322 0.1465
C74_23 C 0.6372(2) 0.8628(2) 0.0000
C75_18 C 0.7500 0.9051(3) 0.1551(3)
H29_16 H 0.7490 0.9329 0.1193
H30_16 H 0.7510 0.8693 0.1829
C77_16 C 0.6480(3) 0.8919(2) 0.0066(3)
C79_18 C 0.7500 0.9290(3) 0.1790(3)
C81_16 C 0.6254(2) 0.9124(3) 0.0024(2)
H33_16 H 0.6678 0.8965 0.0129
C83_23 C 0.5949(3) 0.9051(3) 0.0000
H35_16 H 0.6307 0.9329 0.0010
C84_23 C 0.5710(3) 0.9290(3) 0.0000
H39_12 H 0.986746 0.541347 0.102783
C1_24 C 0.9290(3) 0.5710(3) 1.0000
C2_24 C 0.9051(3) 0.5949(3) 1.0000
C5_24 C 0.8628(2) 0.6372(2) 1.0000
C6_24 C 0.83905(19) 0.66095(19) 1.0000
C9_24 C 0.79282(9) 0.70718(9) 1.0000
C10_24 C 0.77132(7) 0.72868(7) 1.0000
C11_16 C 0.8746(2) 0.5876(3) 0.9976(2)
H4_16 H 0.8693 0.5671 0.9990
C12_16 C 0.8520(3) 0.6081(2) 0.9934(3)
H5_16 H 0.8322 0.6035 0.9871
C13_16 C 0.81614(17) 0.66422(17) 0.97962(14)
H6_16 H 0.8155 0.6498 0.9639
C14_16 C 0.79371(15) 0.68592(16) 0.97906(14)
C16_16 C 0.77094(14) 0.68592(16) 0.95629(15)
C19_18 C 0.7500 0.70718(9) 0.95718(9)
C20_16 C 0.77038(14) 0.66422(17) 0.93386(17)
C21_18 C 0.7500 0.72868(7) 0.97868(7)
C25_16 C 0.72906(14) 0.70629(15) 0.93592(16)
C26_18 C 0.7500 0.66095(19) 0.91095(19)
H8_16 H 0.7861 0.6498 0.9345
C27_18 C 0.72868(7) 0.7500 0.97868(7)
C32_16 C 0.72962(14) 0.68386(17) 0.91422(17)
C33_16 C 0.70629(15) 0.72906(14) 0.93592(16)
C34_18 C 0.7500 0.6372(2) 0.8872(2)
C35_18 C 0.70718(9) 0.7500 0.95718(9)
C36_24 C 0.72868(7) 0.77132(7) 1.0000
H10_16 H 0.7139 0.6845 0.8998
C41_16 C 0.68386(17) 0.72962(14) 0.91422(17)
C42_16 C 0.7566(3) 0.6081(2) 0.8980(3)
C43_16 C 0.7434(3) 0.6480(3) 0.8581(2)
C44_16 C 0.68592(16) 0.77094(14) 0.95629(15)
C45_24 C 0.70718(9) 0.79282(9) 1.0000
C50_18 C 0.66095(19) 0.7500 0.91095(19)
H14_16 H 0.6845 0.7139 0.8998
C51_16 C 0.7524(2) 0.5876(3) 0.8754(2)
H15_16 H 0.7629 0.6035 0.9178
C52_16 C 0.7476(2) 0.6254(2) 0.8376(3)
H16_16 H 0.7371 0.6678 0.8535
C53_16 C 0.66422(17) 0.77038(14) 0.93386(17)
C54_16 C 0.68592(16) 0.79371(15) 0.97906(14)
C59_18 C 0.6372(2) 0.7500 0.8872(2)
C60_18 C 0.7500 0.5949(3) 0.8449(3)
H19_16 H 0.7510 0.5671 0.8807
H20_16 H 0.7490 0.6307 0.8171
H21_16 H 0.6498 0.7861 0.9345
C61_16 C 0.66422(17) 0.81614(17) 0.97962(14)
C66_16 C 0.6480(3) 0.7434(3) 0.8581(2)
C67_16 C 0.6081(2) 0.7566(3) 0.8980(3)
C68_18 C 0.7500 0.5710(3) 0.8210(3)
C69_24 C 0.66095(19) 0.83905(19) 1.0000
H23_16 H 0.6498 0.8155 0.9639
C72_16 C 0.6254(2) 0.7476(2) 0.8376(3)
H27_16 H 0.6678 0.7371 0.8535
C73_16 C 0.5876(3) 0.7524(2) 0.8754(2)
H28_16 H 0.6035 0.7629 0.9178
O35_14 O 0.75111(11) 0.58146(13) 0.79166(13)
O36_14 O 0.74889(11) 0.54166(13) 0.83146(13)
C74_24 C 0.6372(2) 0.8628(2) 1.0000
C76_18 C 0.5949(3) 0.7500 0.8449(3)
H31_16 H 0.6307 0.7490 0.8171
H32_16 H 0.5671 0.7510 0.8807
C78_16 C 0.6081(2) 0.8520(3) 0.9934(3)
C80_18 C 0.5710(3) 0.7500 0.8210(3)
C82_16 C 0.5876(3) 0.8746(2) 0.9976(2)
H34_16 H 0.6035 0.8322 0.9871
O39_15 O 0.54166(13) 0.74889(11) 0.83146(13)
O40_15 O 0.58146(13) 0.75111(11) 0.79166(13)
C83_24 C 0.5949(3) 0.9051(3) 1.0000
H36_16 H 0.5671 0.8693 0.9990
C84_24 C 0.5710(3) 0.9290(3) 1.0000
H52_7 H 0.0189338 0.905521 0.452633
H53 H 0.0744715 0.994026 0.561006
H54 H 0.103897 0.988294 0.540514
H56_13 H 0.0189338 0.952633 0.405521
H59 H 0.0564388 0.983825 0.581443
H43 H 0.926087 0.00399629 0.438666
H57 H 0.95095 0.0193802 0.407894
O2_13 O 0.47134(9) 0.72346(14) 0.77866(9)
O3_13 O 0.46901(19) 0.78099(19) 0.78099(19)
O4_13 O 0.49869(11) 0.79352(14) 0.83612(13)
O5_13 O 0.52866(9) 0.72134(9) 0.77654(14)
O6_13 O 0.52654(14) 0.77866(9) 0.77866(9)
O7_13 O 0.45648(14) 0.75131(11) 0.83612(13)
O10_13 O 0.50131(11) 0.66388(13) 0.70648(14)
O11_13 O 0.54352(14) 0.66388(13) 0.74869(11)
O14_13 O 0.47346(14) 0.72134(9) 0.72134(9)
O15_13 O 0.53099(19) 0.71901(19) 0.71901(19)
O16_13 O 0.41388(13) 0.75131(11) 0.79352(14)
O17_13 O 0.41388(13) 0.79352(14) 0.75131(11)
O20_13 O 0.47134(9) 0.77866(9) 0.72346(14)
O22_13 O 0.52866(9) 0.77654(14) 0.72134(9)
O24_13 O 0.45648(14) 0.83612(13) 0.75131(11)
O25_13 O 0.49869(11) 0.83612(13) 0.79352(14)
O27_13 O 0.58612(13) 0.74869(11) 0.70648(14)
O28_13 O 0.58612(13) 0.70648(14) 0.74869(11)
O31_13 O 0.54352(14) 0.74869(11) 0.66388(13)
O32_13 O 0.50131(11) 0.70648(14) 0.66388(13)
O2_14 O 0.77866(9) 0.52654(14) 0.77866(9)
O3_14 O 0.78099(19) 0.46901(19) 0.78099(19)
O4_14 O 0.75131(11) 0.45648(14) 0.83612(13)
O5_14 O 0.72134(9) 0.52866(9) 0.77654(14)
O6_14 O 0.72346(14) 0.47134(9) 0.77866(9)
O7_14 O 0.79352(14) 0.49869(11) 0.83612(13)
O10_14 O 0.74869(11) 0.58612(13) 0.70648(14)
O11_14 O 0.70648(14) 0.58612(13) 0.74869(11)
O14_14 O 0.77654(14) 0.52866(9) 0.72134(9)
O15_14 O 0.71901(19) 0.53099(19) 0.71901(19)
O16_14 O 0.83612(13) 0.49869(11) 0.79352(14)
O17_14 O 0.83612(13) 0.45648(14) 0.75131(11)
O20_14 O 0.77866(9) 0.47134(9) 0.72346(14)
O22_14 O 0.72134(9) 0.47346(14) 0.72134(9)
O24_14 O 0.79352(14) 0.41388(13) 0.75131(11)
O25_14 O 0.75131(11) 0.41388(13) 0.79352(14)
O27_14 O 0.66388(13) 0.50131(11) 0.70648(14)
O28_14 O 0.66388(13) 0.54352(14) 0.74869(11)
O31_14 O 0.70648(14) 0.50131(11) 0.66388(13)
O32_14 O 0.74869(11) 0.54352(14) 0.66388(13)
H52_8 H 0.0189338 0.344479 0.797367
H56_14 H 0.0189338 0.297367 0.844479
H53_2 H 0.324472 0.811006 0.00597419
H54_2 H 0.353897 0.790514 0.0117062
H59_2 H 0.306439 0.831443 0.0161748
H43_2 H 0.176087 0.688666 0.996004
H57_2 H 0.20095 0.657894 0.98062
H43_3 H 0.323913 0.00399629 0.811334
H57_3 H 0.29905 0.0193802 0.842106
H53_3 H 0.175528 0.994026 0.688994
H54_3 H 0.146103 0.988294 0.709486
H59_3 H 0.193561 0.983825 0.668557
H50_13 H 0.0117062 0.290514 0.853897
H39_13 H 0.986746 0.208653 0.647217
H39_14 H 0.013254 0.397217 0.958653
H53_4 H 0.0610056 0.574472 0.994026
H54_4 H 0.0405138 0.603897 0.988294
H59_4 H 0.0814426 0.556439 0.983825
H43_4 H 0.938666 0.426087 0.00399629
H48_7 H 0.981066 0.547367 0.0944792
H50_14 H 0.988294 0.603897 0.0405138
H57_4 H 0.907894 0.45095 0.0193802
O2_15 O 0.52866(9) 0.52866(9) 0.47346(14)
O3_15 O 0.53099(19) 0.53099(19) 0.53099(19)
O4_15 O 0.50131(11) 0.58612(13) 0.54352(14)
O5_15 O 0.47134(9) 0.52654(14) 0.47134(9)
O6_15 O 0.47346(14) 0.52866(9) 0.52866(9)
O7_15 O 0.54352(14) 0.58612(13) 0.50131(11)
O10_15 O 0.49869(11) 0.45648(14) 0.41388(13)
O11_15 O 0.45648(14) 0.49869(11) 0.41388(13)
O14_15 O 0.52654(14) 0.47134(9) 0.47134(9)
O15_15 O 0.46901(19) 0.46901(19) 0.46901(19)
O16_15 O 0.58612(13) 0.54352(14) 0.50131(11)
O17_15 O 0.58612(13) 0.50131(11) 0.54352(14)
O20_15 O 0.52866(9) 0.47346(14) 0.52866(9)
O22_15 O 0.47134(9) 0.47134(9) 0.52654(14)
O24_15 O 0.54352(14) 0.50131(11) 0.58612(13)
O25_15 O 0.50131(11) 0.54352(14) 0.58612(13)
O27_15 O 0.41388(13) 0.45648(14) 0.49869(11)
O28_15 O 0.41388(13) 0.49869(11) 0.45648(14)
O31_15 O 0.45648(14) 0.41388(13) 0.49869(11)
O32_15 O 0.49869(11) 0.41388(13) 0.45648(14)
O2_16 O 0.72134(9) 0.72134(9) 0.47346(14)
O3_16 O 0.71901(19) 0.71901(19) 0.53099(19)
O4_16 O 0.74869(11) 0.66388(13) 0.54352(14)
O5_16 O 0.77866(9) 0.72346(14) 0.47134(9)
O6_16 O 0.77654(14) 0.72134(9) 0.52866(9)
O7_16 O 0.70648(14) 0.66388(13) 0.50131(11)
O10_16 O 0.75131(11) 0.79352(14) 0.41388(13)
O11_16 O 0.79352(14) 0.75131(11) 0.41388(13)
O14_16 O 0.72346(14) 0.77866(9) 0.47134(9)
O15_16 O 0.78099(19) 0.78099(19) 0.46901(19)
O16_16 O 0.66388(13) 0.70648(14) 0.50131(11)
O17_16 O 0.66388(13) 0.74869(11) 0.54352(14)
O20_16 O 0.72134(9) 0.77654(14) 0.52866(9)
O22_16 O 0.77866(9) 0.77866(9) 0.52654(14)
O24_16 O 0.70648(14) 0.74869(11) 0.58612(13)
O25_16 O 0.74869(11) 0.70648(14) 0.58612(13)
O27_16 O 0.83612(13) 0.79352(14) 0.49869(11)
O28_16 O 0.83612(13) 0.75131(11) 0.45648(14)
O31_16 O 0.79352(14) 0.83612(13) 0.49869(11)
O32_16 O 0.75131(11) 0.83612(13) 0.45648(14)
H39_15 H 0.013254 0.852783 0.291347
H48_8 H 0.981066 0.702633 0.155521
H50_15 H 0.988294 0.646103 0.209486
H43_5 H 0.311334 0.823913 0.00399629
H57_5 H 0.342106 0.79905 0.0193802
H53_5 H 0.188994 0.675528 0.994026
H54_5 H 0.209486 0.646103 0.988294
H59_5 H 0.168557 0.693561 0.983825
H56_15 H 0.981066 0.655521 0.202633
H43_6 H 0.0739131 0.561334 0.996004
H57_6 H 0.0490499 0.592106 0.98062
H53_6 H 0.925528 0.438994 0.00597419
H54_6 H 0.896103 0.459486 0.0117062
H56_16 H 0.981066 0.594479 0.0473674
H59_6 H 0.943561 0.418557 0.0161748
H53_7 H 0.311006 0.00597419 0.824472
H54_7 H 0.290514 0.0117062 0.853897
H59_7 H 0.331443 0.0161748 0.806439
H43_7 H 0.188666 0.996004 0.676087
H57_7 H 0.157894 0.98062 0.70095
H43_8 H 0.0613336 0.996004 0.573913
H50_16 H 0.0117062 0.959486 0.396103
H57_8 H 0.0921056 0.98062 0.54905
H39_16 H 0.986746 0.0413472 0.602783
H53_8 H 0.938994 0.00597419 0.425528
H54_8 H 0.959486 0.0117062 0.396103
H59_8 H 0.918557 0.0161748 0.443561
H53_9 H 0.00597419 0.324472 0.811006
H54_9 H 0.0117062 0.353897 0.790514
H59_9 H 0.0161748 0.306439 0.831443
H43_9 H 0.996004 0.176087 0.688666
H57_9 H 0.98062 0.20095 0.657894
H52_9 H 0.155521 0.981066 0.702633
H56_17 H 0.202633 0.981066 0.655521
H48_9 H 0.797367 0.0189338 0.344479
H50_17 H 0.853897 0.0117062 0.290514
H39_17 H 0.647217 0.986746 0.208653
H53_10 H 0.824472 0.311006 0.00597419
H54_10 H 0.853897 0.290514 0.0117062
H59_10 H 0.806439 0.331443 0.0161748
H43_10 H 0.676087 0.188666 0.996004
H57_10 H 0.70095 0.157894 0.98062
H52_10 H 0.452633 0.0189338 0.905521
H53_11 H 0.561006 0.0744715 0.994026
H54_11 H 0.540514 0.103897 0.988294
H56_18 H 0.405521 0.0189338 0.952633
H59_11 H 0.581443 0.0564388 0.983825
H43_11 H 0.438666 0.926087 0.00399629
H57_11 H 0.407894 0.95095 0.0193802
H43_12 H 0.00399629 0.938666 0.426087
H48_10 H 0.0944792 0.981066 0.547367
H50_18 H 0.0405138 0.988294 0.603897
H57_12 H 0.0193802 0.907894 0.45095
H39_18 H 0.958653 0.013254 0.397217
H53_12 H 0.994026 0.0610056 0.574472
H54_12 H 0.988294 0.0405138 0.603897
H59_12 H 0.983825 0.0814426 0.556439
H39_19 H 0.291347 0.013254 0.852783
H50_19 H 0.209486 0.988294 0.646103
H43_13 H 0.811334 0.323913 0.00399629
H57_13 H 0.842106 0.29905 0.0193802
H53_13 H 0.688994 0.175528 0.994026
H54_13 H 0.709486 0.146103 0.988294
H59_13 H 0.668557 0.193561 0.983825
H56_19 H 0.844479 0.0189338 0.297367
H43_14 H 0.00399629 0.311334 0.823913
H57_14 H 0.0193802 0.342106 0.79905
H53_14 H 0.994026 0.188994 0.675528
H54_14 H 0.988294 0.209486 0.646103
H59_14 H 0.983825 0.168557 0.693561
H53_15 H 0.00597419 0.925528 0.438994
H54_15 H 0.0117062 0.896103 0.459486
H56_20 H 0.0473674 0.981066 0.594479
H59_15 H 0.0161748 0.943561 0.418557
H43_15 H 0.996004 0.0739131 0.561334
H57_15 H 0.98062 0.0490499 0.592106
H43_16 H 0.573913 0.0613336 0.996004
H50_20 H 0.396103 0.0117062 0.959486
H57_16 H 0.54905 0.0921056 0.98062
H39_20 H 0.602783 0.986746 0.0413472
H53_16 H 0.425528 0.938994 0.00597419
H54_16 H 0.396103 0.959486 0.0117062
H59_16 H 0.443561 0.918557 0.0161748
H43_17 H 0.426087 0.00399629 0.938666
H48_11 H 0.547367 0.0944792 0.981066
H50_21 H 0.603897 0.0405138 0.988294
H57_17 H 0.45095 0.0193802 0.907894
H39_21 H 0.397217 0.958653 0.013254
H53_17 H 0.574472 0.994026 0.0610056
H54_17 H 0.603897 0.988294 0.0405138
H59_17 H 0.556439 0.983825 0.0814426
H53_18 H 0.00597419 0.824472 0.311006
H54_18 H 0.0117062 0.853897 0.290514
H59_18 H 0.0161748 0.806439 0.331443
H43_18 H 0.996004 0.676087 0.188666
H57_18 H 0.98062 0.70095 0.157894
H39_22 H 0.852783 0.291347 0.013254
H48_12 H 0.702633 0.155521 0.981066
H50_22 H 0.646103 0.209486 0.988294
H56_21 H 0.655521 0.202633 0.981066
H43_19 H 0.823913 0.00399629 0.311334
H57_19 H 0.79905 0.0193802 0.342106
H53_19 H 0.675528 0.994026 0.188994
H54_19 H 0.646103 0.988294 0.209486
H59_19 H 0.693561 0.983825 0.168557
H43_20 H 0.00399629 0.438666 0.926087
H57_20 H 0.0193802 0.407894 0.95095
H52_11 H 0.905521 0.452633 0.0189338
H53_20 H 0.994026 0.561006 0.0744715
H54_20 H 0.988294 0.540514 0.103897
H56_22 H 0.952633 0.405521 0.0189338
H59_20 H 0.983825 0.581443 0.0564388
H52_12 H 0.344479 0.797367 0.0189338
H56_23 H 0.297367 0.844479 0.0189338
H43_21 H 0.00399629 0.811334 0.323913
H57_21 H 0.0193802 0.842106 0.29905
H53_21 H 0.994026 0.688994 0.175528
H54_21 H 0.988294 0.709486 0.146103
H59_21 H 0.983825 0.668557 0.193561
H50_23 H 0.290514 0.853897 0.0117062
H39_23 H 0.208653 0.647217 0.986746
H39_24 H 0.0413472 0.602783 0.986746
H53_22 H 0.00597419 0.425528 0.938994
H54_22 H 0.0117062 0.396103 0.959486
H59_22 H 0.0161748 0.443561 0.918557
H43_22 H 0.996004 0.573913 0.0613336
H50_24 H 0.959486 0.396103 0.0117062
H57_22 H 0.98062 0.54905 0.0921056
H53_23 H 0.811006 0.00597419 0.324472
H54_23 H 0.790514 0.0117062 0.353897
H59_23 H 0.831443 0.0161748 0.306439
H43_23 H 0.688666 0.996004 0.176087
H57_23 H 0.657894 0.98062 0.20095
H53_24 H 0.438994 0.00597419 0.925528
H54_24 H 0.459486 0.0117062 0.896103
H56_24 H 0.594479 0.0473674 0.981066
H59_24 H 0.418557 0.0161748 0.943561
H43_24 H 0.561334 0.996004 0.0739131
H57_24 H 0.592106 0.98062 0.0490499
H39_25 H 0.102783 0.541347 0.986746
H39_26 H 0.647217 0.208653 0.986746
H39_27 H 0.852783 0.013254 0.291347
H39_28 H 0.013254 0.291347 0.852783
H39_29 H 0.986746 0.102783 0.541347
H39_30 H 0.541347 0.986746 0.102783
H39_31 H 0.986746 0.647217 0.208653
H39_32 H 0.208653 0.986746 0.647217
H39_33 H 0.291347 0.852783 0.013254
H39_34 H 0.458653 0.897217 0.013254
H39_35 H 0.897217 0.013254 0.458653
H39_36 H 0.013254 0.458653 0.897217
H43_25 H 0.0739131 0.996004 0.561334
H57_25 H 0.0490499 0.98062 0.592106
H53_25 H 0.925528 0.00597419 0.438994
H59_25 H 0.943561 0.0161748 0.418557
H43_26 H 0.823913 0.311334 0.00399629
H57_26 H 0.79905 0.342106 0.0193802
H53_26 H 0.675528 0.188994 0.994026
H59_26 H 0.693561 0.168557 0.983825
H53_27 H 0.824472 0.00597419 0.311006
H59_27 H 0.806439 0.0161748 0.331443
H43_27 H 0.676087 0.996004 0.188666
H57_27 H 0.70095 0.98062 0.157894
H39_37 H 0.013254 0.791347 0.352783
H43_28 H 0.0613336 0.573913 0.996004
H57_28 H 0.0921056 0.54905 0.98062
H39_38 H 0.986746 0.602783 0.0413472
H53_28 H 0.938994 0.425528 0.00597419
H59_28 H 0.918557 0.443561 0.0161748
H39_39 H 0.986746 0.147217 0.708653
H53_29 H 0.811006 0.324472 0.00597419
H59_29 H 0.831443 0.306439 0.0161748
H43_29 H 0.688666 0.176087 0.996004
H57_29 H 0.657894 0.20095 0.98062
H53_30 H 0.0744715 0.561006 0.994026
H59_30 H 0.0564388 0.581443 0.983825
H43_30 H 0.926087 0.438666 0.00399629
H57_30 H 0.95095 0.407894 0.0193802
H43_31 H 0.811334 0.00399629 0.323913
H57_31 H 0.842106 0.0193802 0.29905
H53_31 H 0.688994 0.994026 0.175528
H59_31 H 0.668557 0.983825 0.193561
H39_40 H 0.013254 0.958653 0.397217
H53_32 H 0.0610056 0.994026 0.574472
H59_32 H 0.0814426 0.983825 0.556439
H43_32 H 0.938666 0.00399629 0.426087
H57_32 H 0.907894 0.0193802 0.45095
H43_33 H 0.00399629 0.823913 0.311334
H57_33 H 0.0193802 0.79905 0.342106
H53_33 H 0.994026 0.675528 0.188994
H59_33 H 0.983825 0.693561 0.168557
H39_41 H 0.352783 0.013254 0.791347
H43_34 H 0.323913 0.811334 0.00399629
H57_34 H 0.29905 0.842106 0.0193802
H53_34 H 0.175528 0.688994 0.994026
H59_34 H 0.193561 0.668557 0.983825
H43_35 H 0.561334 0.0739131 0.996004
H57_35 H 0.592106 0.0490499 0.98062
H53_35 H 0.438994 0.925528 0.00597419
H59_35 H 0.418557 0.943561 0.0161748
H39_42 H 0.0413472 0.986746 0.602783
H53_36 H 0.00597419 0.938994 0.425528
H59_36 H 0.0161748 0.918557 0.443561
H43_36 H 0.996004 0.0613336 0.573913
H57_36 H 0.98062 0.0921056 0.54905
H39_43 H 0.708653 0.986746 0.147217
H53_37 H 0.311006 0.824472 0.00597419
H59_37 H 0.331443 0.806439 0.0161748
H43_37 H 0.188666 0.676087 0.996004
H57_37 H 0.157894 0.70095 0.98062
H53_38 H 0.00597419 0.811006 0.324472
H59_38 H 0.0161748 0.831443 0.306439
H43_38 H 0.996004 0.688666 0.176087
H57_38 H 0.98062 0.657894 0.20095
H43_39 H 0.00399629 0.926087 0.438666
H57_39 H 0.0193802 0.95095 0.407894
H53_39 H 0.994026 0.0744715 0.561006
H59_39 H 0.983825 0.0564388 0.581443
H39_44 H 0.397217 0.013254 0.958653
H53_40 H 0.574472 0.0610056 0.994026
H59_40 H 0.556439 0.0814426 0.983825
H43_40 H 0.426087 0.938666 0.00399629
H57_40 H 0.45095 0.907894 0.0193802
H39_45 H 0.602783 0.0413472 0.986746
H53_41 H 0.425528 0.00597419 0.938994
H59_41 H 0.443561 0.0161748 0.918557
H43_41 H 0.573913 0.996004 0.0613336
H57_41 H 0.54905 0.98062 0.0921056
H43_42 H 0.00399629 0.323913 0.811334
H57_42 H 0.0193802 0.29905 0.842106
H53_42 H 0.994026 0.175528 0.688994
H59_42 H 0.983825 0.193561 0.668557
H39_46 H 0.147217 0.708653 0.986746
H53_43 H 0.324472 0.00597419 0.811006
H59_43 H 0.306439 0.0161748 0.831443
H43_43 H 0.176087 0.996004 0.688666
H57_43 H 0.20095 0.98062 0.657894
H53_44 H 0.00597419 0.438994 0.925528
H59_44 H 0.0161748 0.418557 0.943561
H43_44 H 0.996004 0.561334 0.0739131
H57_44 H 0.98062 0.592106 0.0490499
H53_45 H 0.00597419 0.311006 0.824472
H59_45 H 0.0161748 0.331443 0.806439
H43_45 H 0.996004 0.188666 0.676087
H57_45 H 0.98062 0.157894 0.70095
H39_47 H 0.791347 0.352783 0.013254
H43_46 H 0.00399629 0.426087 0.938666
H57_46 H 0.0193802 0.45095 0.907894
H39_48 H 0.958653 0.397217 0.013254
H53_46 H 0.994026 0.574472 0.0610056
H59_46 H 0.983825 0.556439 0.0814426
H43_47 H 0.311334 0.00399629 0.823913
H57_47 H 0.342106 0.0193802 0.79905
H53_47 H 0.188994 0.994026 0.675528
H59_47 H 0.168557 0.983825 0.693561
H43_48 H 0.438666 0.00399629 0.926087
H57_48 H 0.407894 0.0193802 0.95095
H53_48 H 0.561006 0.994026 0.0744715
H59_48 H 0.581443 0.983825 0.0564388
loop_
_geom_bond_atom_site_label_1
_geom_bond_atom_site_label_2
_geom_bond_site_symmetry_1
_geom_bond_site_symmetry_2
C1 C2 1_555 1_555
C6 C5 1_555 1_555
C10 C9 1_555 1_555
O9 C1 1_555 1_555
O26 Zr5 1_555 1_555
C11 C2 1_555 1_555
H4 C11 1_555 1_555
C12 C5 1_555 1_555
H5 C12 1_555 1_555
C13 C6 1_555 1_555
H6 C13 1_555 1_555
C14 C9 1_555 1_555
C16 C14 1_555 1_555
C19 C16 1_555 1_555
C20 C16 1_555 1_555
C21 C10 1_555 1_555
C25 C19 1_555 1_555
C26 C20 1_555 1_555
H8 C20 1_555 1_555
C27 C21 1_555 1_555
C32 C25 1_555 1_555
C33 C25 1_555 1_555
C34 C26 1_555 1_555
C35 C27 1_555 1_555
C36 C27 1_555 1_555
H10 C32 1_555 1_555
C41 C33 1_555 1_555
C42 C34 1_555 1_555
C43 C34 1_555 1_555
C44 C35 1_555 1_555
C45 C36 1_555 1_555
C50 C41 1_555 1_555
H14 C41 1_555 1_555
C51 C42 1_555 1_555
H15 C42 1_555 1_555
C52 C43 1_555 1_555
H16 C43 1_555 1_555
C53 C44 1_555 1_555
C54 C44 1_555 1_555
C59 C50 1_555 1_555
C60 C51 1_555 1_555
H19 C51 1_555 1_555
H20 C52 1_555 1_555
H21 C53 1_555 1_555
C61 C54 1_555 1_555
C66 C59 1_555 1_555
C67 C59 1_555 1_555
C68 C60 1_555 1_555
C69 C61 1_555 1_555
H23 C61 1_555 1_555
C72 C66 1_555 1_555
H27 C66 1_555 1_555
C73 C67 1_555 1_555
H28 C67 1_555 1_555
O35 C68 1_555 1_555
O36 C68 1_555 1_555
C74 C69 1_555 1_555
C76 C72 1_555 1_555
H31 C72 1_555 1_555
H32 C73 1_555 1_555
Zr9 O35 1_555 1_555
Zr10 O36 1_555 1_555
C78 C74 1_555 1_555
C80 C76 1_555 1_555
C82 C78 1_555 1_555
H34 C78 1_555 1_555
O39 C80 1_555 1_555
O40 C80 1_555 1_555
H36 C82 1_555 1_555
Zr13 O39 1_555 1_555
Zr14 O40 1_555 1_555
C84 C83 1_555 1_555
O42 C84 1_555 1_555
Zr16 O42 1_555 1_555
O6 Zr5 1_555 1_555
Zr5 O9 1_555 1_555
C11 C12 1_555 1_555
C13 C14 1_555 1_555
C19 C21 1_555 1_555
C26 C32 1_555 1_555
C33 C35 1_555 1_555
C45 C54 1_555 1_555
C50 C53 1_555 1_555
C52 C60 1_555 1_555
C73 C76 1_555 1_555
C82 C83 1_555 1_555
O21 Zr4 1_555 1_555
O22 Zr4 1_555 1_555
O23 Zr4 1_555 1_555
O29 Zr6 1_555 1_555
O30 Zr6 1_555 1_555
Zr4 O20 1_555 1_555
O20 Zr6 1_555 1_555
O22 Zr6 1_555 1_555
Zr1 O1 1_555 1_555
O1 C1_2 1_555 1_555
O2 Zr1 1_555 1_555
C1_2 C2_2 1_555 1_555
C2_2 C3 1_555 1_555
C3 H1 1_555 1_555
C4 C3 1_555 1_555
C5_2 C4 1_555 1_555
H2 C4 1_555 1_555
C6_2 C5_2 1_555 1_555
C7 C6_2 1_555 1_555
H3 C7 1_555 1_555
C8 C7 1_555 1_555
C9_2 C8 1_555 1_555
C10_2 C9_2 1_555 1_555
O5 Zr1 1_555 1_555
O8 Zr1 1_555 1_555
Zr2 O2 1_555 1_555
O12 Zr2 1_555 1_555
O13 Zr2 1_555 1_555
C15 C8 1_555 1_555
C17 C15 1_555 1_555
C18 C15 1_555 1_555
C22 C10_2 1_555 1_555
C23 C17 1_555 1_555
C24 C18 1_555 1_555
H7 C18 1_555 1_555
C28 C22 1_555 1_555
C29 C23 1_555 1_555
C30 C23 1_555 1_555
C31 C24 1_555 1_555
C37 C28 1_555 1_555
H9 C29 1_555 1_555
C38 C30 1_555 1_555
C39 C31 1_555 1_555
C40 C31 1_555 1_555
C45_2 C36_2 1_555 1_555
C46 C37 1_555 1_555
C47 C38 1_555 1_555
H11 C38 1_555 1_555
C48 C39 1_555 1_555
H12 C39 1_555 1_555
C49 C40 1_555 1_555
H13 C40 1_555 1_555
C55 C45_2 1_555 1_555
C56 C46 1_555 1_555
C57 C47 1_555 1_555
C58 C48 1_555 1_555
H17 C48 1_555 1_555
H18 C49 1_555 1_555
C62 C55 1_555 1_555
H22 C56 1_555 1_555
C63 C57 1_555 1_555
C64 C57 1_555 1_555
C65 C58 1_555 1_555
H24 C62 1_555 1_555
C70 C63 1_555 1_555
H25 C63 1_555 1_555
C71 C64 1_555 1_555
H26 C64 1_555 1_555
O33 C65 1_555 1_555
O34 C65 1_555 1_555
C74_2 C69_2 1_555 1_555
C75 C70 1_555 1_555
H29 C70 1_555 1_555
H30 C71 1_555 1_555
Zr7 O33 1_555 1_555
Zr8 O34 1_555 1_555
C77 C74_2 1_555 1_555
C79 C75 1_555 1_555
C81 C77 1_555 1_555
H33 C77 1_555 1_555
O37 C79 1_555 1_555
O38 C79 1_555 1_555
C83_2 C81 1_555 1_555
H35 C81 1_555 1_555
Zr11 O37 1_555 1_555
Zr12 O38 1_555 1_555
C84_2 C83_2 1_555 1_555
O41 C84_2 1_555 1_555
Zr15 O41 1_555 1_555
O5 Zr2 1_555 1_555
C17 C22 1_555 1_555
C24 C29 1_555 1_555
C28 C36_2 1_555 1_555
C30 C37 1_555 1_555
C46 C55 1_555 1_555
C47 C56 1_555 1_555
C49 C58 1_555 1_555
C62 C69_2 1_555 1_555
C71 C75 1_555 1_555
O18 Zr3 1_555 1_555
O19 Zr3 1_555 1_555
Zr3 O14 1_555 1_555
Zr1_2 O1_2 1_555 1_555
O1_2 C1_3 1_555 1_555
O2_2 Zr1_2 1_555 1_555
O3_2 Zr1_2 1_555 1_555
O4_2 Zr1_2 1_555 1_555
C1_3 C2_3 1_555 1_555
C2_3 C3_2 1_555 1_555
C3_2 H1_2 1_555 1_555
C4_2 C3_2 1_555 1_555
C5_3 C4_2 1_555 1_555
H2_2 C4_2 1_555 1_555
C6_3 C5_3 1_555 1_555
C7_2 C6_3 1_555 1_555
H3_2 C7_2 1_555 1_555
C8_2 C7_2 1_555 1_555
C9_3 C8_2 1_555 1_555
C10_3 C9_3 1_555 1_555
O5_2 Zr1_2 1_555 1_555
O6_2 Zr1_2 1_555 1_555
O7_2 Zr1_2 1_555 1_555
O8_2 Zr1_2 1_555 1_555
Zr2_2 O2_2 1_555 1_555
Zr3_2 O2_2 1_555 1_555
Zr4_2 O3_2 1_555 1_555
Zr5_2 O5_2 1_555 1_555
O9_2 C1_3 1_555 1_555
O10_2 Zr2_2 1_555 1_555
O11_2 Zr2_2 1_555 1_555
O12_2 Zr2_2 1_555 1_555
O13_2 Zr2_2 1_555 1_555
O14_2 Zr2_2 1_555 1_555
O15_2 Zr2_2 1_555 1_555
O16_2 Zr3_2 1_555 1_555
O17_2 Zr3_2 1_555 1_555
O18_2 Zr3_2 1_555 1_555
O19_2 Zr3_2 1_555 1_555
O20_2 Zr3_2 1_555 1_555
O21_2 Zr4_2 1_555 1_555
O22_2 Zr4_2 1_555 1_555
O23_2 Zr4_2 1_555 1_555
O24_2 Zr4_2 1_555 1_555
O25_2 Zr4_2 1_555 1_555
O26_2 Zr5_2 1_555 1_555
O27_2 Zr5_2 1_555 1_555
O28_2 Zr5_2 1_555 1_555
C11_2 C2_3 1_555 1_555
Zr6_2 O14_2 1_555 1_555
H4_2 C11_2 1_555 1_555
C12_2 C5_3 1_555 1_555
O29_2 Zr6_2 1_555 1_555
O30_2 Zr6_2 1_555 1_555
O31_2 Zr6_2 1_555 1_555
O32_2 Zr6_2 1_555 1_555
H5_2 C12_2 1_555 1_555
C13_2 C6_3 1_555 1_555
H6_2 C13_2 1_555 1_555
C14_2 C9_3 1_555 1_555
C15_2 C8_2 1_555 1_555
C16_2 C14_2 1_555 1_555
C17_2 C15_2 1_555 1_555
C18_2 C15_2 1_555 1_555
C19_2 C16_2 1_555 1_555
C20_2 C16_2 1_555 1_555
C21_2 C10_3 1_555 1_555
C22_2 C10_3 1_555 1_555
C23_2 C17_2 1_555 1_555
C24_2 C18_2 1_555 1_555
H7_2 C18_2 1_555 1_555
C25_2 C19_2 1_555 1_555
C26_2 C20_2 1_555 1_555
H8_2 C20_2 1_555 1_555
C27_2 C21_2 1_555 1_555
C28_2 C22_2 1_555 1_555
C29_2 C23_2 1_555 1_555
C30_2 C23_2 1_555 1_555
C31_2 C24_2 1_555 1_555
C32_2 C25_2 1_555 1_555
C33_2 C25_2 1_555 1_555
C34_2 C26_2 1_555 1_555
C35_2 C27_2 1_555 1_555
C36_3 C27_2 1_555 1_555
C37_2 C28_2 1_555 1_555
H9_2 C29_2 1_555 1_555
C38_2 C30_2 1_555 1_555
C39_2 C31_2 1_555 1_555
C40_2 C31_2 1_555 1_555
H10_2 C32_2 1_555 1_555
C41_2 C33_2 1_555 1_555
C42_2 C34_2 1_555 1_555
C43_2 C34_2 1_555 1_555
C44_2 C35_2 1_555 1_555
C45_3 C36_3 1_555 1_555
C46_2 C37_2 1_555 1_555
C47_2 C38_2 1_555 1_555
H11_2 C38_2 1_555 1_555
C48_2 C39_2 1_555 1_555
H12_2 C39_2 1_555 1_555
C49_2 C40_2 1_555 1_555
H13_2 C40_2 1_555 1_555
C50_2 C41_2 1_555 1_555
H14_2 C41_2 1_555 1_555
C51_2 C42_2 1_555 1_555
H15_2 C42_2 1_555 1_555
C52_2 C43_2 1_555 1_555
H16_2 C43_2 1_555 1_555
C53_2 C44_2 1_555 1_555
C54_2 C44_2 1_555 1_555
C55_2 C45_3 1_555 1_555
C56_2 C46_2 1_555 1_555
C57_2 C47_2 1_555 1_555
C58_2 C48_2 1_555 1_555
H17_2 C48_2 1_555 1_555
H18_2 C49_2 1_555 1_555
C59_2 C50_2 1_555 1_555
C60_2 C51_2 1_555 1_555
H19_2 C51_2 1_555 1_555
H20_2 C52_2 1_555 1_555
H21_2 C53_2 1_555 1_555
C61_2 C54_2 1_555 1_555
C62_2 C55_2 1_555 1_555
H22_2 C56_2 1_555 1_555
C63_2 C57_2 1_555 1_555
C64_2 C57_2 1_555 1_555
C65_2 C58_2 1_555 1_555
C66_2 C59_2 1_555 1_555
C67_2 C59_2 1_555 1_555
C68_2 C60_2 1_555 1_555
C69_3 C61_2 1_555 1_555
H23_2 C61_2 1_555 1_555
H24_2 C62_2 1_555 1_555
C70_2 C63_2 1_555 1_555
H25_2 C63_2 1_555 1_555
C71_2 C64_2 1_555 1_555
H26_2 C64_2 1_555 1_555
O33_2 C65_2 1_555 1_555
O34_2 C65_2 1_555 1_555
C72_2 C66_2 1_555 1_555
H27_2 C66_2 1_555 1_555
C73_2 C67_2 1_555 1_555
H28_2 C67_2 1_555 1_555
O35_2 C68_2 1_555 1_555
O36_2 C68_2 1_555 1_555
C74_3 C69_3 1_555 1_555
C75_2 C70_2 1_555 1_555
H29_2 C70_2 1_555 1_555
H30_2 C71_2 1_555 1_555
Zr11 O33_2 1_555 1_555
Zr8_2 O34_2 1_555 1_555
C76_2 C72_2 1_555 1_555
H31_2 C72_2 1_555 1_555
H32_2 C73_2 1_555 1_555
Zr9_2 O35_2 1_555 1_555
Zr10_2 O36_2 1_555 1_555
C77_2 C74_3 1_555 1_555
C78_2 C74_3 1_555 1_555
C79_2 C75_2 1_555 1_555
C80_2 C76_2 1_555 1_555
C81_2 C77_2 1_555 1_555
H33_2 C77_2 1_555 1_555
C82_2 C78_2 1_555 1_555
H34_2 C78_2 1_555 1_555
O37_2 C79_2 1_555 1_555
O38_2 C79_2 1_555 1_555
O39_2 C80_2 1_555 1_555
O40_2 C80_2 1_555 1_555
C83_3 C81_2 1_555 1_555
H35_2 C81_2 1_555 1_555
H36_2 C82_2 1_555 1_555
Zr11_2 O37_2 1_555 1_555
Zr15 O38_2 1_555 1_555
Zr13_2 O39_2 1_555 1_555
Zr14_2 O40_2 1_555 1_555
C84_3 C83_3 1_555 1_555
O41_2 C84_3 1_555 1_555
O42_2 C84_3 1_555 1_555
Zr15_2 O41_2 1_555 1_555
Zr16_2 O42_2 1_555 1_555
O3_2 Zr3_2 1_555 1_555
O5_2 Zr2_2 1_555 1_555
O6_2 Zr4_2 1_555 1_555
O6_2 Zr5_2 1_555 1_555
Zr3_2 O14_2 1_555 1_555
Zr4_2 O20_2 1_555 1_555
Zr5_2 O9_2 1_555 1_555
Zr5_2 O15_2 1_555 1_555
Zr5_2 O22_2 1_555 1_555
O15_2 Zr6_2 1_555 1_555
O20_2 Zr6_2 1_555 1_555
O22_2 Zr6_2 1_555 1_555
C11_2 C12_2 1_555 1_555
C13_2 C14_2 1_555 1_555
C17_2 C22_2 1_555 1_555
C19_2 C21_2 1_555 1_555
C24_2 C29_2 1_555 1_555
C26_2 C32_2 1_555 1_555
C28_2 C36_3 1_555 1_555
C30_2 C37_2 1_555 1_555
C33_2 C35_2 1_555 1_555
C45_3 C54_2 1_555 1_555
C46_2 C55_2 1_555 1_555
C47_2 C56_2 1_555 1_555
C49_2 C58_2 1_555 1_555
C50_2 C53_2 1_555 1_555
C52_2 C60_2 1_555 1_555
C62_2 C69_3 1_555 1_555
C71_2 C75_2 1_555 1_555
C73_2 C76_2 1_555 1_555
C82_2 C83_3 1_555 1_555
C23_3 C17_3 1_555 1_555
C28_3 C22_3 1_555 1_555
C29_3 C23_3 1_555 1_555
C30_3 C23_3 1_555 1_555
C31_3 C24_3 1_555 1_555
C35_3 C27_3 1_555 1_555
C36_4 C27_3 1_555 1_555
C37_3 C28_3 1_555 1_555
H9_3 C29_3 1_555 1_555
C38_3 C30_3 1_555 1_555
C39_3 C31_3 1_555 1_555
C44_3 C35_3 1_555 1_555
C45_4 C36_4 1_555 1_555
C46_3 C37_3 1_555 1_555
C47_3 C38_3 1_555 1_555
H11_3 C38_3 1_555 1_555
C48_3 C39_3 1_555 1_555
H12_3 C39_3 1_555 1_555
C53_3 C44_3 1_555 1_555
C54_3 C44_3 1_555 1_555
C55_3 C45_4 1_555 1_555
C56_3 C46_3 1_555 1_555
C57_3 C47_3 1_555 1_555
C58_3 C48_3 1_555 1_555
H17_3 C48_3 1_555 1_555
C59_3 C50_3 1_555 1_555
H21_3 C53_3 1_555 1_555
C61_3 C54_3 1_555 1_555
C62_3 C55_3 1_555 1_555
H22_3 C56_3 1_555 1_555
C63_3 C57_3 1_555 1_555
C64_3 C57_3 1_555 1_555
C65_3 C58_3 1_555 1_555
C67_3 C59_3 1_555 1_555
C69_4 C61_3 1_555 1_555
H23_3 C61_3 1_555 1_555
H24_3 C62_3 1_555 1_555
C70_3 C63_3 1_555 1_555
H25_3 C63_3 1_555 1_555
C71_3 C64_3 1_555 1_555
H26_3 C64_3 1_555 1_555
O33_3 C65_3 1_555 1_555
C73_3 C67_3 1_555 1_555
H28_3 C67_3 1_555 1_555
C74_4 C69_4 1_555 1_555
C75_3 C70_3 1_555 1_555
H29_3 C70_3 1_555 1_555
H30_3 C71_3 1_555 1_555
Zr7_2 O33_3 1_555 1_555
H32_3 C73_3 1_555 1_555
C77_3 C74_4 1_555 1_555
C78_3 C74_4 1_555 1_555
C79_3 C75_3 1_555 1_555
C80_3 C76_3 1_555 1_555
C81_3 C77_3 1_555 1_555
H33_3 C77_3 1_555 1_555
C82_3 C78_3 1_555 1_555
H34_3 C78_3 1_555 1_555
O12_2 C79_3 1_555 1_555
O18_2 C79_3 1_555 1_555
O40_3 C80_3 1_555 1_555
C83_4 C81_3 1_555 1_555
H35_3 C81_3 1_555 1_555
H36_3 C82_3 1_555 1_555
Zr16 O40_3 1_555 1_555
C84_4 C83_4 1_555 1_555
O41_3 C84_4 1_555 1_555
O42_3 C84_4 1_555 1_555
Zr15_3 O41_3 1_555 1_555
Zr14 O42_3 1_555 1_555
C17_3 C22_3 1_555 1_555
C24_3 C29_3 1_555 1_555
C28_3 C36_4 1_555 1_555
C30_3 C37_3 1_555 1_555
C45_4 C54_3 1_555 1_555
C46_3 C55_3 1_555 1_555
C47_3 C56_3 1_555 1_555
C50_3 C53_3 1_555 1_555
C62_3 C69_4 1_555 1_555
C71_3 C75_3 1_555 1_555
C73_3 C76_3 1_555 1_555
C82_3 C83_4 1_555 1_555
Zr1_3 O1_3 1_555 1_555
O1_3 C1_4 1_555 1_555
O2_3 Zr1_3 1_555 1_555
O3_3 Zr1_3 1_555 1_555
O4_3 Zr1_3 1_555 1_555
C1_4 C2_4 1_555 1_555
C2_4 C3_3 1_555 1_555
C3_3 H1_3 1_555 1_555
C4_3 C3_3 1_555 1_555
C5_4 C4_3 1_555 1_555
H2_3 C4_3 1_555 1_555
C6_4 C5_4 1_555 1_555
C7_3 C6_4 1_555 1_555
H3_3 C7_3 1_555 1_555
C8_3 C7_3 1_555 1_555
C9_4 C8_3 1_555 1_555
C10_4 C9_4 1_555 1_555
O5_3 Zr1_3 1_555 1_555
O6_3 Zr1_3 1_555 1_555
O7_3 Zr1_3 1_555 1_555
O8_3 Zr1_3 1_555 1_555
Zr2_3 O2_3 1_555 1_555
Zr5_3 O5_3 1_555 1_555
O9_3 C1_4 1_555 1_555
O12_3 Zr2_3 1_555 1_555
O13_3 Zr2_3 1_555 1_555
O26_3 Zr5_3 1_555 1_555
C11_3 C2_4 1_555 1_555
H4_3 C11_3 1_555 1_555
C12_3 C5_4 1_555 1_555
H5_3 C12_3 1_555 1_555
C13_3 C6_4 1_555 1_555
H6_3 C13_3 1_555 1_555
C14_3 C9_4 1_555 1_555
C15_3 C8_3 1_555 1_555
C16_3 C14_3 1_555 1_555
C17_4 C15_3 1_555 1_555
C18_3 C15_3 1_555 1_555
C19_3 C16_3 1_555 1_555
C20_3 C16_3 1_555 1_555
C21_3 C10_4 1_555 1_555
C22_4 C10_4 1_555 1_555
C24_4 C18_3 1_555 1_555
H7_3 C18_3 1_555 1_555
C25_3 C19_3 1_555 1_555
C26_3 C20_3 1_555 1_555
H8_3 C20_3 1_555 1_555
C27_4 C21_3 1_555 1_555
C31_4 C24_4 1_555 1_555
C32_3 C25_3 1_555 1_555
C33_3 C25_3 1_555 1_555
C34_3 C26_3 1_555 1_555
C35_4 C27_4 1_555 1_555
C40_3 C31_4 1_555 1_555
H10_3 C32_3 1_555 1_555
C41_3 C33_3 1_555 1_555
C42_3 C34_3 1_555 1_555
C43_3 C34_3 1_555 1_555
C49_3 C40_3 1_555 1_555
H13_3 C40_3 1_555 1_555
C50_4 C41_3 1_555 1_555
H14_3 C41_3 1_555 1_555
C51_3 C42_3 1_555 1_555
H15_3 C42_3 1_555 1_555
C52_3 C43_3 1_555 1_555
H16_3 C43_3 1_555 1_555
H18_3 C49_3 1_555 1_555
C59_4 C50_4 1_555 1_555
C60_3 C51_3 1_555 1_555
H19_3 C51_3 1_555 1_555
H20_3 C52_3 1_555 1_555
C65_4 C58_4 1_555 1_555
C66_3 C59_4 1_555 1_555
C68_3 C60_3 1_555 1_555
O34_3 C65_4 1_555 1_555
C72_3 C66_3 1_555 1_555
H27_3 C66_3 1_555 1_555
O35_3 C68_3 1_555 1_555
O36_3 C68_3 1_555 1_555
Zr8_3 O34_3 1_555 1_555
C76_4 C72_3 1_555 1_555
H31_3 C72_3 1_555 1_555
Zr9_3 O35_3 1_555 1_555
Zr10_3 O36_3 1_555 1_555
C80_4 C76_4 1_555 1_555
O39_3 C80_4 1_555 1_555
Zr13_3 O39_3 1_555 1_555
O5_3 Zr2_3 1_555 1_555
O6_3 Zr5_3 1_555 1_555
Zr5_3 O9_3 1_555 1_555
C11_3 C12_3 1_555 1_555
C13_3 C14_3 1_555 1_555
C17_4 C22_4 1_555 1_555
C19_3 C21_3 1_555 1_555
C26_3 C32_3 1_555 1_555
C33_3 C35_4 1_555 1_555
C49_3 C58_4 1_555 1_555
C52_3 C60_3 1_555 1_555
O18_3 Zr3_3 1_555 1_555
O19_3 Zr3_3 1_555 1_555
O20_3 Zr3_3 1_555 1_555
O21_3 Zr4_3 1_555 1_555
O22_3 Zr4_3 1_555 1_555
O23_3 Zr4_3 1_555 1_555
Zr6_3 O14_3 1_555 1_555
O29_3 Zr6_3 1_555 1_555
O30_3 Zr6_3 1_555 1_555
O31_3 Zr6_3 1_555 1_555
O32_3 Zr6_3 1_555 1_555
Zr3_3 O14_3 1_555 1_555
Zr4_3 O20_3 1_555 1_555
O15_3 Zr6_3 1_555 1_555
O20_3 Zr6_3 1_555 1_555
O22_3 Zr6_3 1_555 1_555
Zr8_2 O1_4 1_555 1_555
O1_4 C1_5 1_555 1_555
O2_4 Zr8_2 1_555 1_555
C1_5 C2_5 1_555 1_555
C2_5 C3_4 1_555 1_555
C3_4 H1_4 1_555 1_555
C4_4 C3_4 1_555 1_555
C5_5 C4_4 1_555 1_555
H2_4 C4_4 1_555 1_555
C6_5 C5_5 1_555 1_555
C7_4 C6_5 1_555 1_555
H3_4 C7_4 1_555 1_555
C8_4 C7_4 1_555 1_555
C9_5 C8_4 1_555 1_555
C10_5 C9_5 1_555 1_555
O5_4 Zr8_2 1_555 1_555
Zr11 O2_4 1_555 1_555
Zr12 O2_4 1_555 1_555
O10_4 Zr11 1_555 1_555
O11_4 Zr11 1_555 1_555
O14_4 Zr11 1_555 1_555
O15_4 Zr11 1_555 1_555
O19_4 Zr12 1_555 1_555
C15_4 C8_4 1_555 1_555
C17_5 C15_4 1_555 1_555
C18_4 C15_4 1_555 1_555
C22_5 C10_5 1_555 1_555
C23_4 C17_5 1_555 1_555
C24_5 C18_4 1_555 1_555
H7_4 C18_4 1_555 1_555
C28_4 C22_5 1_555 1_555
C29_4 C23_4 1_555 1_555
C30_4 C23_4 1_555 1_555
C31_5 C24_5 1_555 1_555
C37_4 C28_4 1_555 1_555
H9_4 C29_4 1_555 1_555
C38_4 C30_4 1_555 1_555
C39_4 C31_5 1_555 1_555
C40_4 C31_5 1_555 1_555
C45_5 C36_5 1_555 1_555
C46_4 C37_4 1_555 1_555
C47_4 C38_4 1_555 1_555
H11_4 C38_4 1_555 1_555
C48_4 C39_4 1_555 1_555
H12_4 C39_4 1_555 1_555
C49_4 C40_4 1_555 1_555
H13_4 C40_4 1_555 1_555
C55_4 C45_5 1_555 1_555
C56_4 C46_4 1_555 1_555
C57_4 C47_4 1_555 1_555
C58_5 C48_4 1_555 1_555
H17_4 C48_4 1_555 1_555
H18_4 C49_4 1_555 1_555
C62_4 C55_4 1_555 1_555
H22_4 C56_4 1_555 1_555
C63_4 C57_4 1_555 1_555
C64_4 C57_4 1_555 1_555
C65_5 C58_5 1_555 1_555
H24_4 C62_4 1_555 1_555
C70_4 C63_4 1_555 1_555
H25_4 C63_4 1_555 1_555
C71_4 C64_4 1_555 1_555
H26_4 C64_4 1_555 1_555
O13_2 C65_5 1_555 1_555
O8_2 C65_5 1_555 1_555
C74_5 C69_5 1_555 1_555
C75_4 C70_4 1_555 1_555
H29_4 C70_4 1_555 1_555
H30_4 C71_4 1_555 1_555
C77_4 C74_5 1_555 1_555
C79_4 C75_4 1_555 1_555
C81_4 C77_4 1_555 1_555
H33_4 C77_4 1_555 1_555
O37_3 C79_4 1_555 1_555
O38_3 C79_4 1_555 1_555
C83_5 C81_4 1_555 1_555
H35_4 C81_4 1_555 1_555
Zr11_3 O37_3 1_555 1_555
Zr15_3 O38_3 1_555 1_555
C84_5 C83_5 1_555 1_555
O41_4 C84_5 1_555 1_555
Zr15_4 O41_4 1_555 1_555
O5_4 Zr11 1_555 1_555
Zr12 O14_4 1_555 1_555
C17_5 C22_5 1_555 1_555
C24_5 C29_4 1_555 1_555
C28_4 C36_5 1_555 1_555
C30_4 C37_4 1_555 1_555
C46_4 C55_4 1_555 1_555
C47_4 C56_4 1_555 1_555
C49_4 C58_5 1_555 1_555
C62_4 C69_5 1_555 1_555
C71_4 C75_4 1_555 1_555
C1_6 C2_6 1_555 1_555
C6_6 C5_6 1_555 1_555
C10_6 C9_6 1_555 1_555
Zr4_4 O3_4 1_555 1_555
O9_4 C1_6 1_555 1_555
O21_4 Zr4_4 1_555 1_555
O22_4 Zr4_4 1_555 1_555
O23_4 Zr4_4 1_555 1_555
O24_4 Zr4_4 1_555 1_555
O25_4 Zr4_4 1_555 1_555
O26_4 Zr5_4 1_555 1_555
C11_4 C2_6 1_555 1_555
H4_4 C11_4 1_555 1_555
C12_4 C5_6 1_555 1_555
O29_4 Zr6_4 1_555 1_555
O30_4 Zr6_4 1_555 1_555
H5_4 C12_4 1_555 1_555
C13_4 C6_6 1_555 1_555
H6_4 C13_4 1_555 1_555
C14_4 C9_6 1_555 1_555
C16_4 C14_4 1_555 1_555
C19_4 C16_4 1_555 1_555
C20_4 C16_4 1_555 1_555
C21_4 C10_6 1_555 1_555
C25_4 C19_4 1_555 1_555
C26_4 C20_4 1_555 1_555
H8_4 C20_4 1_555 1_555
C27_5 C21_4 1_555 1_555
C32_4 C25_4 1_555 1_555
C33_4 C25_4 1_555 1_555
C34_4 C26_4 1_555 1_555
C35_5 C27_5 1_555 1_555
C36_6 C27_5 1_555 1_555
H10_4 C32_4 1_555 1_555
C41_4 C33_4 1_555 1_555
C42_4 C34_4 1_555 1_555
C43_4 C34_4 1_555 1_555
C44_4 C35_5 1_555 1_555
C45_6 C36_6 1_555 1_555
C50_5 C41_4 1_555 1_555
H14_4 C41_4 1_555 1_555
C51_4 C42_4 1_555 1_555
H15_4 C42_4 1_555 1_555
C52_4 C43_4 1_555 1_555
H16_4 C43_4 1_555 1_555
C53_4 C44_4 1_555 1_555
C54_4 C44_4 1_555 1_555
C59_5 C50_5 1_555 1_555
C60_4 C51_4 1_555 1_555
H19_4 C51_4 1_555 1_555
H20_4 C52_4 1_555 1_555
H21_4 C53_4 1_555 1_555
C61_4 C54_4 1_555 1_555
C66_4 C59_5 1_555 1_555
C67_4 C59_5 1_555 1_555
C68_4 C60_4 1_555 1_555
C69_6 C61_4 1_555 1_555
H23_4 C61_4 1_555 1_555
C72_4 C66_4 1_555 1_555
H27_4 C66_4 1_555 1_555
C73_4 C67_4 1_555 1_555
H28_4 C67_4 1_555 1_555
O35_4 C68_4 1_555 1_555
O36_4 C68_4 1_555 1_555
C74_6 C69_6 1_555 1_555
C76_5 C72_4 1_555 1_555
H31_4 C72_4 1_555 1_555
H32_4 C73_4 1_555 1_555
Zr9_4 O35_4 1_555 1_555
Zr10_4 O36_4 1_555 1_555
C78_4 C74_6 1_555 1_555
C80_5 C76_5 1_555 1_555
C82_4 C78_4 1_555 1_555
H34_4 C78_4 1_555 1_555
O39_4 C80_5 1_555 1_555
O40_4 C80_5 1_555 1_555
H36_4 C82_4 1_555 1_555
Zr13_4 O39_4 1_555 1_555
Zr14_3 O40_4 1_555 1_555
C84_6 C83_6 1_555 1_555
O42_4 C84_6 1_555 1_555
Zr16_3 O42_4 1_555 1_555
O6_4 Zr4_4 1_555 1_555
O6_4 Zr5_4 1_555 1_555
Zr4_4 O20_4 1_555 1_555
Zr5_4 O9_4 1_555 1_555
Zr5_4 O22_4 1_555 1_555
O20_4 Zr6_4 1_555 1_555
O22_4 Zr6_4 1_555 1_555
C11_4 C12_4 1_555 1_555
C13_4 C14_4 1_555 1_555
C19_4 C21_4 1_555 1_555
C26_4 C32_4 1_555 1_555
C33_4 C35_5 1_555 1_555
C45_6 C54_4 1_555 1_555
C50_5 C53_4 1_555 1_555
C52_4 C60_4 1_555 1_555
C73_4 C76_5 1_555 1_555
C82_4 C83_6 1_555 1_555
O18_4 Zr3_4 1_555 1_555
O19_5 Zr3_4 1_555 1_555
O20_5 Zr3_4 1_555 1_555
O22_5 Zr15_4 1_555 1_555
O23_5 Zr15_4 1_555 1_555
Zr6_5 O14_5 1_555 1_555
O29_5 Zr6_5 1_555 1_555
O30_5 Zr6_5 1_555 1_555
O31_5 Zr6_5 1_555 1_555
O32_5 Zr6_5 1_555 1_555
Zr3_4 O14_5 1_555 1_555
Zr15_4 O20_5 1_555 1_555
O15_5 Zr6_5 1_555 1_555
O20_5 Zr6_5 1_555 1_555
O22_5 Zr6_5 1_555 1_555
Zr1_4 O1_5 1_555 1_555
O1_5 C1_7 1_555 1_555
O2_5 Zr1_4 1_555 1_555
O3_5 Zr1_4 1_555 1_555
O4_5 Zr1_4 1_555 1_555
C1_7 C2_7 1_555 1_555
C2_7 C3_5 1_555 1_555
C3_5 H1_5 1_555 1_555
C4_5 C3_5 1_555 1_555
C5_7 C4_5 1_555 1_555
H2_5 C4_5 1_555 1_555
C6_7 C5_7 1_555 1_555
C7_5 C6_7 1_555 1_555
H3_5 C7_5 1_555 1_555
C8_5 C7_5 1_555 1_555
C9_7 C8_5 1_555 1_555
C10_7 C9_7 1_555 1_555
O5_5 Zr1_4 1_555 1_555
O6_5 Zr1_4 1_555 1_555
O7_5 Zr1_4 1_555 1_555
O8_4 Zr1_4 1_555 1_555
Zr2_4 O2_5 1_555 1_555
Zr16_3 O5_5 1_555 1_555
O9_5 C1_7 1_555 1_555
O12_4 Zr2_4 1_555 1_555
O13_4 Zr2_4 1_555 1_555
C11_5 C2_7 1_555 1_555
H4_5 C11_5 1_555 1_555
C12_5 C5_7 1_555 1_555
H5_5 C12_5 1_555 1_555
C13_5 C6_7 1_555 1_555
H6_5 C13_5 1_555 1_555
C14_5 C9_7 1_555 1_555
C15_5 C8_5 1_555 1_555
C16_5 C14_5 1_555 1_555
C17_6 C15_5 1_555 1_555
C18_5 C15_5 1_555 1_555
C19_5 C16_5 1_555 1_555
C20_5 C16_5 1_555 1_555
C21_5 C10_7 1_555 1_555
C22_6 C10_7 1_555 1_555
C23_5 C17_6 1_555 1_555
C24_6 C18_5 1_555 1_555
H7_5 C18_5 1_555 1_555
C25_5 C19_5 1_555 1_555
C26_5 C20_5 1_555 1_555
H8_5 C20_5 1_555 1_555
C27_6 C21_5 1_555 1_555
C28_5 C22_6 1_555 1_555
C29_5 C23_5 1_555 1_555
C30_5 C23_5 1_555 1_555
C31_6 C24_6 1_555 1_555
C32_5 C25_5 1_555 1_555
C33_5 C25_5 1_555 1_555
C34_5 C26_5 1_555 1_555
C35_6 C27_6 1_555 1_555
C36_7 C27_6 1_555 1_555
C37_5 C28_5 1_555 1_555
H9_5 C29_5 1_555 1_555
C38_5 C30_5 1_555 1_555
C39_5 C31_6 1_555 1_555
C40_5 C31_6 1_555 1_555
H10_5 C32_5 1_555 1_555
C41_5 C33_5 1_555 1_555
C42_5 C34_5 1_555 1_555
C43_5 C34_5 1_555 1_555
C44_5 C35_6 1_555 1_555
C45_7 C36_7 1_555 1_555
C46_5 C37_5 1_555 1_555
C47_5 C38_5 1_555 1_555
H11_5 C38_5 1_555 1_555
C48_5 C39_5 1_555 1_555
H12_5 C39_5 1_555 1_555
C49_5 C40_5 1_555 1_555
H13_5 C40_5 1_555 1_555
C50_6 C41_5 1_555 1_555
H14_5 C41_5 1_555 1_555
C51_5 C42_5 1_555 1_555
H15_5 C42_5 1_555 1_555
C52_5 C43_5 1_555 1_555
H16_5 C43_5 1_555 1_555
C53_5 C44_5 1_555 1_555
C54_5 C44_5 1_555 1_555
C55_5 C45_7 1_555 1_555
C56_5 C46_5 1_555 1_555
C57_5 C47_5 1_555 1_555
C58_6 C48_5 1_555 1_555
H17_5 C48_5 1_555 1_555
H18_5 C49_5 1_555 1_555
C59_6 C50_6 1_555 1_555
C60_5 C51_5 1_555 1_555
H19_5 C51_5 1_555 1_555
H20_5 C52_5 1_555 1_555
H21_5 C53_5 1_555 1_555
C61_5 C54_5 1_555 1_555
C62_5 C55_5 1_555 1_555
H22_5 C56_5 1_555 1_555
C63_5 C57_5 1_555 1_555
C64_5 C57_5 1_555 1_555
C65_6 C58_6 1_555 1_555
C66_5 C59_6 1_555 1_555
C67_5 C59_6 1_555 1_555
C68_5 C60_5 1_555 1_555
C69_7 C61_5 1_555 1_555
H23_5 C61_5 1_555 1_555
H24_5 C62_5 1_555 1_555
C70_5 C63_5 1_555 1_555
H25_5 C63_5 1_555 1_555
C71_5 C64_5 1_555 1_555
H26_5 C64_5 1_555 1_555
O33_4 C65_6 1_555 1_555
O34_4 C65_6 1_555 1_555
C72_5 C66_5 1_555 1_555
H27_5 C66_5 1_555 1_555
C73_5 C67_5 1_555 1_555
H28_5 C67_5 1_555 1_555
O35_5 C68_5 1_555 1_555
O36_5 C68_5 1_555 1_555
C74_7 C69_7 1_555 1_555
C75_5 C70_5 1_555 1_555
H29_5 C70_5 1_555 1_555
H30_5 C71_5 1_555 1_555
Zr13_3 O33_4 1_555 1_555
Zr8_4 O34_4 1_555 1_555
C76_6 C72_5 1_555 1_555
H31_5 C72_5 1_555 1_555
H32_5 C73_5 1_555 1_555
Zr14_3 O35_5 1_555 1_555
Zr10_5 O36_5 1_555 1_555
C77_5 C74_7 1_555 1_555
C78_5 C74_7 1_555 1_555
C79_5 C75_5 1_555 1_555
C80_6 C76_6 1_555 1_555
C81_5 C77_5 1_555 1_555
H33_5 C77_5 1_555 1_555
C82_5 C78_5 1_555 1_555
H34_5 C78_5 1_555 1_555
O37_4 C79_5 1_555 1_555
O38_4 C79_5 1_555 1_555
O39_5 C80_6 1_555 1_555
O40_5 C80_6 1_555 1_555
C83_7 C81_5 1_555 1_555
H35_5 C81_5 1_555 1_555
H36_5 C82_5 1_555 1_555
Zr11_4 O37_4 1_555 1_555
Zr10_3 O38_4 1_555 1_555
Zr13_5 O39_5 1_555 1_555
Zr14_4 O40_5 1_555 1_555
C84_7 C83_7 1_555 1_555
O41_5 C84_7 1_555 1_555
O42_5 C84_7 1_555 1_555
Zr15_5 O41_5 1_555 1_555
Zr16_4 O42_5 1_555 1_555
O5_5 Zr2_4 1_555 1_555
O6_5 Zr16_3 1_555 1_555
Zr16_3 O9_5 1_555 1_555
C11_5 C12_5 1_555 1_555
C13_5 C14_5 1_555 1_555
C17_6 C22_6 1_555 1_555
C19_5 C21_5 1_555 1_555
C24_6 C29_5 1_555 1_555
C26_5 C32_5 1_555 1_555
C28_5 C36_7 1_555 1_555
C30_5 C37_5 1_555 1_555
C33_5 C35_6 1_555 1_555
C45_7 C54_5 1_555 1_555
C46_5 C55_5 1_555 1_555
C47_5 C56_5 1_555 1_555
C49_5 C58_6 1_555 1_555
C50_6 C53_5 1_555 1_555
C52_5 C60_5 1_555 1_555
C62_5 C69_7 1_555 1_555
C71_5 C75_5 1_555 1_555
C73_5 C76_6 1_555 1_555
C82_5 C83_7 1_555 1_555
C35_7 C27_7 1_555 1_555
C36_8 C27_7 1_555 1_555
C44_6 C35_7 1_555 1_555
C45_8 C36_8 1_555 1_555
C53_6 C44_6 1_555 1_555
C54_6 C44_6 1_555 1_555
C59_7 C50_7 1_555 1_555
H21_6 C53_6 1_555 1_555
C61_6 C54_6 1_555 1_555
C67_6 C59_7 1_555 1_555
C69_8 C61_6 1_555 1_555
H23_6 C61_6 1_555 1_555
C73_6 C67_6 1_555 1_555
H28_6 C67_6 1_555 1_555
C74_8 C69_8 1_555 1_555
H32_6 C73_6 1_555 1_555
C78_6 C74_8 1_555 1_555
C80_7 C76_7 1_555 1_555
C82_6 C78_6 1_555 1_555
H34_6 C78_6 1_555 1_555
O18_4 C80_7 1_555 1_555
H36_6 C82_6 1_555 1_555
C84_8 C83_8 1_555 1_555
O42_6 C84_8 1_555 1_555
Zr16_5 O42_6 1_555 1_555
C45_8 C54_6 1_555 1_555
C50_7 C53_6 1_555 1_555
C73_6 C76_7 1_555 1_555
C82_6 C83_8 1_555 1_555
C1_8 C2_8 1_555 1_555
C6_8 C5_8 1_555 1_555
C10_8 C9_8 1_555 1_555
Zr10_3 O3_6 1_555 1_555
O9_6 C1_8 1_555 1_555
O22_6 Zr10_3 1_555 1_555
O24_6 Zr10_3 1_555 1_555
O25_6 Zr10_3 1_555 1_555
C11_6 C2_8 1_555 1_555
H4_6 C11_6 1_555 1_555
C12_6 C5_8 1_555 1_555
O30_6 Zr11_4 1_555 1_555
H5_6 C12_6 1_555 1_555
C13_6 C6_8 1_555 1_555
H6_6 C13_6 1_555 1_555
C14_6 C9_8 1_555 1_555
C16_6 C14_6 1_555 1_555
C19_6 C16_6 1_555 1_555
C20_6 C16_6 1_555 1_555
C21_6 C10_8 1_555 1_555
C26_6 C20_6 1_555 1_555
H8_6 C20_6 1_555 1_555
C34_6 C26_6 1_555 1_555
C42_6 C34_6 1_555 1_555
C51_6 C42_6 1_555 1_555
H15_6 C42_6 1_555 1_555
C60_6 C51_6 1_555 1_555
H19_6 C51_6 1_555 1_555
C68_6 C60_6 1_555 1_555
O26_3 C68_6 1_555 1_555
O6_6 Zr10_3 1_555 1_555
O6_6 Zr9_3 1_555 1_555
Zr10_3 O20_6 1_555 1_555
Zr9_3 O9_6 1_555 1_555
Zr9_3 O22_6 1_555 1_555
O20_6 Zr11_4 1_555 1_555
O22_6 Zr11_4 1_555 1_555
C11_6 C12_6 1_555 1_555
C13_6 C14_6 1_555 1_555
C19_6 C21_6 1_555 1_555
C25_6 C19_7 1_555 1_555
C27_8 C21_7 1_555 1_555
C32_6 C25_6 1_555 1_555
C33_6 C25_6 1_555 1_555
C34_7 C26_7 1_555 1_555
C35_8 C27_8 1_555 1_555
H10_6 C32_6 1_555 1_555
C41_6 C33_6 1_555 1_555
C43_6 C34_7 1_555 1_555
C50_8 C41_6 1_555 1_555
H14_6 C41_6 1_555 1_555
C52_6 C43_6 1_555 1_555
H16_6 C43_6 1_555 1_555
C59_8 C50_8 1_555 1_555
H20_6 C52_6 1_555 1_555
C66_6 C59_8 1_555 1_555
C68_7 C60_7 1_555 1_555
C72_6 C66_6 1_555 1_555
H27_6 C66_6 1_555 1_555
O21_3 C68_7 1_555 1_555
C76_8 C72_6 1_555 1_555
H31_6 C72_6 1_555 1_555
C80_8 C76_8 1_555 1_555
O12_4 C80_8 1_555 1_555
C19_7 C21_7 1_555 1_555
C26_7 C32_6 1_555 1_555
C33_6 C35_8 1_555 1_555
C52_6 C60_7 1_555 1_555
C23_6 C17_7 1_555 1_555
C28_6 C22_7 1_555 1_555
C29_6 C23_6 1_555 1_555
C30_6 C23_6 1_555 1_555
C31_7 C24_7 1_555 1_555
C37_6 C28_6 1_555 1_555
H9_6 C29_6 1_555 1_555
C38_6 C30_6 1_555 1_555
C39_6 C31_7 1_555 1_555
C47_6 C38_6 1_555 1_555
H11_6 C38_6 1_555 1_555
C48_6 C39_6 1_555 1_555
H12_6 C39_6 1_555 1_555
C57_6 C47_6 1_555 1_555
C58_7 C48_6 1_555 1_555
H17_6 C48_6 1_555 1_555
C64_6 C57_6 1_555 1_555
C65_7 C58_7 1_555 1_555
C71_6 C64_6 1_555 1_555
H26_6 C64_6 1_555 1_555
O19_4 C65_7 1_555 1_555
H30_6 C71_6 1_555 1_555
C79_6 C75_6 1_555 1_555
O38_5 C79_6 1_555 1_555
Zr7 O38_5 1_555 1_555
C17_7 C22_7 1_555 1_555
C24_7 C29_6 1_555 1_555
C30_6 C37_6 1_555 1_555
C71_6 C75_6 1_555 1_555
C37_7 C28_7 1_555 1_555
C45_9 C36_9 1_555 1_555
C46_6 C37_7 1_555 1_555
C55_6 C45_9 1_555 1_555
C56_6 C46_6 1_555 1_555
C57_7 C47_7 1_555 1_555
C62_6 C55_6 1_555 1_555
H22_6 C56_6 1_555 1_555
C63_6 C57_7 1_555 1_555
H24_6 C62_6 1_555 1_555
C70_6 C63_6 1_555 1_555
H25_6 C63_6 1_555 1_555
C74_9 C69_9 1_555 1_555
C75_7 C70_6 1_555 1_555
H29_6 C70_6 1_555 1_555
C77_6 C74_9 1_555 1_555
C79_7 C75_7 1_555 1_555
C81_6 C77_6 1_555 1_555
H33_6 C77_6 1_555 1_555
O37_5 C79_7 1_555 1_555
C83_9 C81_6 1_555 1_555
H35_6 C81_6 1_555 1_555
Zr11_5 O37_5 1_555 1_555
C84_9 C83_9 1_555 1_555
O41_6 C84_9 1_555 1_555
Zr15_6 O41_6 1_555 1_555
C28_7 C36_9 1_555 1_555
C46_6 C55_6 1_555 1_555
C47_7 C56_6 1_555 1_555
C62_6 C69_9 1_555 1_555
Zr1_5 O1_6 1_555 1_555
O1_6 C1_9 1_555 1_555
O2_6 Zr1_5 1_555 1_555
C1_9 C2_9 1_555 1_555
C2_9 C3_6 1_555 1_555
C3_6 H1_6 1_555 1_555
C4_6 C3_6 1_555 1_555
C5_9 C4_6 1_555 1_555
H2_6 C4_6 1_555 1_555
C6_9 C5_9 1_555 1_555
C7_6 C6_9 1_555 1_555
H3_6 C7_6 1_555 1_555
C8_6 C7_6 1_555 1_555
C9_9 C8_6 1_555 1_555
C10_9 C9_9 1_555 1_555
O5_6 Zr1_5 1_555 1_555
O8_5 Zr1_5 1_555 1_555
Zr2_5 O2_6 1_555 1_555
Zr3_5 O2_6 1_555 1_555
O10_6 Zr2_5 1_555 1_555
O11_6 Zr2_5 1_555 1_555
O12_5 Zr2_5 1_555 1_555
O13_5 Zr2_5 1_555 1_555
O14_6 Zr2_5 1_555 1_555
O15_6 Zr2_5 1_555 1_555
O18_5 Zr3_5 1_555 1_555
O19_6 Zr3_5 1_555 1_555
C15_6 C8_6 1_555 1_555
C17_8 C15_6 1_555 1_555
C18_6 C15_6 1_555 1_555
C22_8 C10_9 1_555 1_555
C24_8 C18_6 1_555 1_555
H7_6 C18_6 1_555 1_555
C31_8 C24_8 1_555 1_555
C40_6 C31_8 1_555 1_555
C49_6 C40_6 1_555 1_555
H13_6 C40_6 1_555 1_555
H18_6 C49_6 1_555 1_555
C65_8 C58_8 1_555 1_555
O30_4 C65_8 1_555 1_555
O5_6 Zr2_5 1_555 1_555
Zr3_5 O14_6 1_555 1_555
C17_8 C22_8 1_555 1_555
C49_6 C58_8 1_555 1_555
Zr1_6 O1_7 1_555 1_555
O1_7 C1_10 1_555 1_555
O2_7 Zr1_6 1_555 1_555
O3_7 Zr1_6 1_555 1_555
O4_7 Zr1_6 1_555 1_555
C1_10 C2_10 1_555 1_555
C2_10 C3_7 1_555 1_555
C3_7 H1_7 1_555 1_555
C4_7 C3_7 1_555 1_555
C5_10 C4_7 1_555 1_555
H2_7 C4_7 1_555 1_555
C6_10 C5_10 1_555 1_555
C7_7 C6_10 1_555 1_555
H3_7 C7_7 1_555 1_555
C8_7 C7_7 1_555 1_555
C9_10 C8_7 1_555 1_555
C10_10 C9_10 1_555 1_555
O5_7 Zr1_6 1_555 1_555
O6_7 Zr1_6 1_555 1_555
O7_7 Zr1_6 1_555 1_555
O8_6 Zr1_6 1_555 1_555
Zr13 O2_7 1_555 1_555
Zr14 O2_7 1_555 1_555
Zr11_3 O3_7 1_555 1_555
Zr5_5 O5_7 1_555 1_555
O9_7 C1_10 1_555 1_555
O10_7 Zr13 1_555 1_555
O11_7 Zr13 1_555 1_555
O13_6 Zr13 1_555 1_555
O14_7 Zr13 1_555 1_555
O15_7 Zr13 1_555 1_555
O16_7 Zr14 1_555 1_555
O17_7 Zr14 1_555 1_555
O20_7 Zr14 1_555 1_555
O21_5 Zr11_3 1_555 1_555
O22_7 Zr11_3 1_555 1_555
O24_7 Zr11_3 1_555 1_555
O25_7 Zr11_3 1_555 1_555
O26_5 Zr5_5 1_555 1_555
O27_7 Zr5_5 1_555 1_555
O28_7 Zr5_5 1_555 1_555
C11_7 C2_10 1_555 1_555
Zr15_3 O14_7 1_555 1_555
H4_7 C11_7 1_555 1_555
C12_7 C5_10 1_555 1_555
O31_7 Zr15_3 1_555 1_555
O32_7 Zr15_3 1_555 1_555
H5_7 C12_7 1_555 1_555
C13_7 C6_10 1_555 1_555
H6_7 C13_7 1_555 1_555
C14_7 C9_10 1_555 1_555
C15_7 C8_7 1_555 1_555
C16_7 C14_7 1_555 1_555
C17_9 C15_7 1_555 1_555
C18_7 C15_7 1_555 1_555
C19_8 C16_7 1_555 1_555
C20_7 C16_7 1_555 1_555
C21_8 C10_10 1_555 1_555
C22_9 C10_10 1_555 1_555
C23_7 C17_9 1_555 1_555
C24_9 C18_7 1_555 1_555
H7_7 C18_7 1_555 1_555
C25_7 C19_8 1_555 1_555
C26_8 C20_7 1_555 1_555
H8_7 C20_7 1_555 1_555
C27_9 C21_8 1_555 1_555
C28_8 C22_9 1_555 1_555
C29_7 C23_7 1_555 1_555
C30_7 C23_7 1_555 1_555
C31_9 C24_9 1_555 1_555
C32_7 C25_7 1_555 1_555
C33_7 C25_7 1_555 1_555
C34_8 C26_8 1_555 1_555
C35_9 C27_9 1_555 1_555
C36_10 C27_9 1_555 1_555
C37_8 C28_8 1_555 1_555
H9_7 C29_7 1_555 1_555
C38_7 C30_7 1_555 1_555
C39_7 C31_9 1_555 1_555
C40_7 C31_9 1_555 1_555
H10_7 C32_7 1_555 1_555
C41_7 C33_7 1_555 1_555
C42_7 C34_8 1_555 1_555
C43_7 C34_8 1_555 1_555
C44_7 C35_9 1_555 1_555
C45_10 C36_10 1_555 1_555
C46_7 C37_8 1_555 1_555
C47_8 C38_7 1_555 1_555
H11_7 C38_7 1_555 1_555
C48_7 C39_7 1_555 1_555
H12_7 C39_7 1_555 1_555
C49_7 C40_7 1_555 1_555
H13_7 C40_7 1_555 1_555
C50_9 C41_7 1_555 1_555
H14_7 C41_7 1_555 1_555
C51_7 C42_7 1_555 1_555
H15_7 C42_7 1_555 1_555
C52_7 C43_7 1_555 1_555
H16_7 C43_7 1_555 1_555
C53_7 C44_7 1_555 1_555
C54_7 C44_7 1_555 1_555
C55_7 C45_10 1_555 1_555
C56_7 C46_7 1_555 1_555
C57_8 C47_8 1_555 1_555
C58_9 C48_7 1_555 1_555
H17_7 C48_7 1_555 1_555
H18_7 C49_7 1_555 1_555
C59_9 C50_9 1_555 1_555
C60_8 C51_7 1_555 1_555
H19_7 C51_7 1_555 1_555
H20_7 C52_7 1_555 1_555
H21_7 C53_7 1_555 1_555
C61_7 C54_7 1_555 1_555
C62_7 C55_7 1_555 1_555
H22_7 C56_7 1_555 1_555
C63_7 C57_8 1_555 1_555
C64_7 C57_8 1_555 1_555
C65_9 C58_9 1_555 1_555
C66_7 C59_9 1_555 1_555
C67_7 C59_9 1_555 1_555
C68_8 C60_8 1_555 1_555
C69_10 C61_7 1_555 1_555
H23_7 C61_7 1_555 1_555
H24_7 C62_7 1_555 1_555
C70_7 C63_7 1_555 1_555
H25_7 C63_7 1_555 1_555
C71_7 C64_7 1_555 1_555
H26_7 C64_7 1_555 1_555
O33_5 C65_9 1_555 1_555
O34_5 C65_9 1_555 1_555
C72_7 C66_7 1_555 1_555
H27_7 C66_7 1_555 1_555
C73_7 C67_7 1_555 1_555
H28_7 C67_7 1_555 1_555
O35_6 C68_8 1_555 1_555
O36_6 C68_8 1_555 1_555
C74_10 C69_10 1_555 1_555
C75_8 C70_7 1_555 1_555
H29_7 C70_7 1_555 1_555
H30_7 C71_7 1_555 1_555
Zr7_3 O33_5 1_555 1_555
Zr8_5 O34_5 1_555 1_555
C76_9 C72_7 1_555 1_555
H31_7 C72_7 1_555 1_555
H32_7 C73_7 1_555 1_555
Zr9_5 O35_6 1_555 1_555
Zr13_5 O36_6 1_555 1_555
C77_7 C74_10 1_555 1_555
C78_7 C74_10 1_555 1_555
C79_8 C75_8 1_555 1_555
C80_9 C76_9 1_555 1_555
C81_7 C77_7 1_555 1_555
H33_7 C77_7 1_555 1_555
C82_7 C78_7 1_555 1_555
H34_7 C78_7 1_555 1_555
O29 C79_8 1_555 1_555
O23 C79_8 1_555 1_555
O39_6 C80_9 1_555 1_555
O40_6 C80_9 1_555 1_555
C83_10 C81_7 1_555 1_555
H35_7 C81_7 1_555 1_555
H36_7 C82_7 1_555 1_555
Zr10_5 O39_6 1_555 1_555
Zr14_5 O40_6 1_555 1_555
C84_10 C83_10 1_555 1_555
O30_3 C84_10 1_555 1_555
O19_3 C84_10 1_555 1_555
O3_7 Zr14 1_555 1_555
O5_7 Zr13 1_555 1_555
O6_7 Zr11_3 1_555 1_555
O6_7 Zr5_5 1_555 1_555
Zr14 O14_7 1_555 1_555
Zr11_3 O20_7 1_555 1_555
Zr5_5 O9_7 1_555 1_555
Zr5_5 O15_7 1_555 1_555
Zr5_5 O22_7 1_555 1_555
O15_7 Zr15_3 1_555 1_555
O20_7 Zr15_3 1_555 1_555
O22_7 Zr15_3 1_555 1_555
C11_7 C12_7 1_555 1_555
C13_7 C14_7 1_555 1_555
C17_9 C22_9 1_555 1_555
C19_8 C21_8 1_555 1_555
C24_9 C29_7 1_555 1_555
C26_8 C32_7 1_555 1_555
C28_8 C36_10 1_555 1_555
C30_7 C37_8 1_555 1_555
C33_7 C35_9 1_555 1_555
C45_10 C54_7 1_555 1_555
C46_7 C55_7 1_555 1_555
C47_8 C56_7 1_555 1_555
C49_7 C58_9 1_555 1_555
C50_9 C53_7 1_555 1_555
C52_7 C60_8 1_555 1_555
C62_7 C69_10 1_555 1_555
C71_7 C75_8 1_555 1_555
C73_7 C76_9 1_555 1_555
C82_7 C83_10 1_555 1_555
O12_3 C1_11 1_555 1_555
C1_11 C2_11 1_555 1_555
C2_11 C3_8 1_555 1_555
C3_8 H1_8 1_555 1_555
C4_8 C3_8 1_555 1_555
C5_11 C4_8 1_555 1_555
H2_8 C4_8 1_555 1_555
C6_11 C5_11 1_555 1_555
C7_8 C6_11 1_555 1_555
H3_8 C7_8 1_555 1_555
C8_8 C7_8 1_555 1_555
C9_11 C8_8 1_555 1_555
C10_11 C9_11 1_555 1_555
C15_8 C8_8 1_555 1_555
C17_10 C15_8 1_555 1_555
C18_8 C15_8 1_555 1_555
C22_10 C10_11 1_555 1_555
C23_8 C17_10 1_555 1_555
C24_10 C18_8 1_555 1_555
H7_8 C18_8 1_555 1_555
C28_9 C22_10 1_555 1_555
C29_8 C23_8 1_555 1_555
C30_8 C23_8 1_555 1_555
C31_10 C24_10 1_555 1_555
C37_9 C28_9 1_555 1_555
H9_8 C29_8 1_555 1_555
C38_8 C30_8 1_555 1_555
C39_8 C31_10 1_555 1_555
C40_8 C31_10 1_555 1_555
C45_11 C36_11 1_555 1_555
C46_8 C37_9 1_555 1_555
C47_9 C38_8 1_555 1_555
H11_8 C38_8 1_555 1_555
C48_8 C39_8 1_555 1_555
H12_8 C39_8 1_555 1_555
C49_8 C40_8 1_555 1_555
H13_8 C40_8 1_555 1_555
C55_8 C45_11 1_555 1_555
C56_8 C46_8 1_555 1_555
C57_9 C47_9 1_555 1_555
C58_10 C48_8 1_555 1_555
H17_8 C48_8 1_555 1_555
H18_8 C49_8 1_555 1_555
C62_8 C55_8 1_555 1_555
H22_8 C56_8 1_555 1_555
C63_8 C57_9 1_555 1_555
C64_8 C57_9 1_555 1_555
C65_10 C58_10 1_555 1_555
H24_8 C62_8 1_555 1_555
C70_8 C63_8 1_555 1_555
H25_8 C63_8 1_555 1_555
C71_8 C64_8 1_555 1_555
H26_8 C64_8 1_555 1_555
O33_6 C65_10 1_555 1_555
O34_6 C65_10 1_555 1_555
C74_11 C69_11 1_555 1_555
C75_9 C70_8 1_555 1_555
H29_8 C70_8 1_555 1_555
H30_8 C71_8 1_555 1_555
Zr7_4 O33_6 1_555 1_555
Zr8_6 O34_6 1_555 1_555
C77_8 C74_11 1_555 1_555
C79_9 C75_9 1_555 1_555
C81_8 C77_8 1_555 1_555
H33_8 C77_8 1_555 1_555
O23_2 C79_9 1_555 1_555
O29_2 C79_9 1_555 1_555
C83_11 C81_8 1_555 1_555
H35_8 C81_8 1_555 1_555
C84_11 C83_11 1_555 1_555
O41_7 C84_11 1_555 1_555
Zr15_7 O41_7 1_555 1_555
C17_10 C22_10 1_555 1_555
C24_10 C29_8 1_555 1_555
C28_9 C36_11 1_555 1_555
C30_8 C37_9 1_555 1_555
C46_8 C55_8 1_555 1_555
C47_9 C56_8 1_555 1_555
C49_8 C58_10 1_555 1_555
C62_8 C69_11 1_555 1_555
C71_8 C75_9 1_555 1_555
C1_12 C2_12 1_555 1_555
C6_12 C5_12 1_555 1_555
C10_12 C9_12 1_555 1_555
O18_3 C1_12 1_555 1_555
C11_8 C2_12 1_555 1_555
H4_8 C11_8 1_555 1_555
C12_8 C5_12 1_555 1_555
H5_8 C12_8 1_555 1_555
C13_8 C6_12 1_555 1_555
H6_8 C13_8 1_555 1_555
C14_8 C9_12 1_555 1_555
C16_8 C14_8 1_555 1_555
C19_9 C16_8 1_555 1_555
C20_8 C16_8 1_555 1_555
C21_9 C10_12 1_555 1_555
C25_8 C19_9 1_555 1_555
C26_9 C20_8 1_555 1_555
H8_8 C20_8 1_555 1_555
C27_10 C21_9 1_555 1_555
C32_8 C25_8 1_555 1_555
C33_8 C25_8 1_555 1_555
C34_9 C26_9 1_555 1_555
C35_10 C27_10 1_555 1_555
C36_12 C27_10 1_555 1_555
H10_8 C32_8 1_555 1_555
C41_8 C33_8 1_555 1_555
C42_8 C34_9 1_555 1_555
C43_8 C34_9 1_555 1_555
C44_8 C35_10 1_555 1_555
C45_12 C36_12 1_555 1_555
C50_10 C41_8 1_555 1_555
H14_8 C41_8 1_555 1_555
C51_8 C42_8 1_555 1_555
H15_8 C42_8 1_555 1_555
C52_8 C43_8 1_555 1_555
H16_8 C43_8 1_555 1_555
C53_8 C44_8 1_555 1_555
C54_8 C44_8 1_555 1_555
C59_10 C50_10 1_555 1_555
C60_9 C51_8 1_555 1_555
H19_8 C51_8 1_555 1_555
H20_8 C52_8 1_555 1_555
H21_8 C53_8 1_555 1_555
C61_8 C54_8 1_555 1_555
C66_8 C59_10 1_555 1_555
C67_8 C59_10 1_555 1_555
C68_9 C60_9 1_555 1_555
C69_12 C61_8 1_555 1_555
H23_8 C61_8 1_555 1_555
C72_8 C66_8 1_555 1_555
H27_8 C66_8 1_555 1_555
C73_8 C67_8 1_555 1_555
H28_8 C67_8 1_555 1_555
O35_7 C68_9 1_555 1_555
O36_7 C68_9 1_555 1_555
C74_12 C69_12 1_555 1_555
C76_10 C72_8 1_555 1_555
H31_8 C72_8 1_555 1_555
H32_8 C73_8 1_555 1_555
Zr14_5 O35_7 1_555 1_555
Zr10_6 O36_7 1_555 1_555
C78_8 C74_12 1_555 1_555
C80_10 C76_10 1_555 1_555
C82_8 C78_8 1_555 1_555
H34_8 C78_8 1_555 1_555
O39_7 C80_10 1_555 1_555
O40_7 C80_10 1_555 1_555
H36_8 C82_8 1_555 1_555
Zr13_6 O39_7 1_555 1_555
Zr14_6 O40_7 1_555 1_555
C84_12 C83_12 1_555 1_555
O42_7 C84_12 1_555 1_555
Zr16_6 O42_7 1_555 1_555
C11_8 C12_8 1_555 1_555
C13_8 C14_8 1_555 1_555
C19_9 C21_9 1_555 1_555
C26_9 C32_8 1_555 1_555
C33_8 C35_10 1_555 1_555
C45_12 C54_8 1_555 1_555
C50_10 C53_8 1_555 1_555
C52_8 C60_9 1_555 1_555
C73_8 C76_10 1_555 1_555
C82_8 C83_12 1_555 1_555
Zr7_4 O1_8 1_555 1_555
O1_8 C1_13 1_555 1_555
O2_8 Zr7_4 1_555 1_555
O3_8 Zr7_4 1_555 1_555
O4_8 Zr7_4 1_555 1_555
C1_13 C2_13 1_555 1_555
C2_13 C3_9 1_555 1_555
C3_9 H1_9 1_555 1_555
C4_9 C3_9 1_555 1_555
C5_13 C4_9 1_555 1_555
H2_9 C4_9 1_555 1_555
C6_13 C5_13 1_555 1_555
C7_9 C6_13 1_555 1_555
H3_9 C7_9 1_555 1_555
C8_9 C7_9 1_555 1_555
C9_13 C8_9 1_555 1_555
C10_13 C9_13 1_555 1_555
O5_8 Zr7_4 1_555 1_555
O6_8 Zr7_4 1_555 1_555
O7_8 Zr7_4 1_555 1_555
Zr8_6 O2_8 1_555 1_555
Zr16_4 O2_8 1_555 1_555
Zr10 O3_8 1_555 1_555
Zr9 O5_8 1_555 1_555
O9_8 C1_13 1_555 1_555
O10_8 Zr8_6 1_555 1_555
O11_8 Zr8_6 1_555 1_555
O12_6 Zr8_6 1_555 1_555
O14_8 Zr8_6 1_555 1_555
O15_8 Zr8_6 1_555 1_555
O16_8 Zr16_4 1_555 1_555
O17_8 Zr16_4 1_555 1_555
O18_6 Zr16_4 1_555 1_555
O20_8 Zr16_4 1_555 1_555
O22_8 Zr10 1_555 1_555
O23_6 Zr10 1_555 1_555
O24_8 Zr10 1_555 1_555
O25_8 Zr10 1_555 1_555
O27_8 Zr9 1_555 1_555
O28_8 Zr9 1_555 1_555
C11_9 C2_13 1_555 1_555
Zr15_5 O14_8 1_555 1_555
H4_9 C11_9 1_555 1_555
C12_9 C5_13 1_555 1_555
O29_6 Zr15_5 1_555 1_555
O31_8 Zr15_5 1_555 1_555
O32_8 Zr15_5 1_555 1_555
H5_9 C12_9 1_555 1_555
C13_9 C6_13 1_555 1_555
H6_9 C13_9 1_555 1_555
C14_9 C9_13 1_555 1_555
C15_9 C8_9 1_555 1_555
C16_9 C14_9 1_555 1_555
C17_11 C15_9 1_555 1_555
C18_9 C15_9 1_555 1_555
C19_10 C16_9 1_555 1_555
C20_9 C16_9 1_555 1_555
C21_10 C10_13 1_555 1_555
C22_11 C10_13 1_555 1_555
C23_9 C17_11 1_555 1_555
C24_11 C18_9 1_555 1_555
H7_9 C18_9 1_555 1_555
C26_10 C20_9 1_555 1_555
H8_9 C20_9 1_555 1_555
C28_10 C22_11 1_555 1_555
C29_9 C23_9 1_555 1_555
C30_9 C23_9 1_555 1_555
C31_11 C24_11 1_555 1_555
C34_10 C26_10 1_555 1_555
C37_10 C28_10 1_555 1_555
H9_9 C29_9 1_555 1_555
C38_9 C30_9 1_555 1_555
C39_9 C31_11 1_555 1_555
C40_9 C31_11 1_555 1_555
C42_9 C34_10 1_555 1_555
C47_10 C38_9 1_555 1_555
H11_9 C38_9 1_555 1_555
C48_9 C39_9 1_555 1_555
H12_9 C39_9 1_555 1_555
C49_9 C40_9 1_555 1_555
H13_9 C40_9 1_555 1_555
C51_9 C42_9 1_555 1_555
H15_9 C42_9 1_555 1_555
C57_10 C47_10 1_555 1_555
C58_11 C48_9 1_555 1_555
H17_9 C48_9 1_555 1_555
H18_9 C49_9 1_555 1_555
C60_10 C51_9 1_555 1_555
H19_9 C51_9 1_555 1_555
C64_9 C57_10 1_555 1_555
C65_11 C58_11 1_555 1_555
C68_10 C60_10 1_555 1_555
C71_9 C64_9 1_555 1_555
H26_9 C64_9 1_555 1_555
O19_2 C65_11 1_555 1_555
O30_2 C65_11 1_555 1_555
O26 C68_10 1_555 1_555
H30_9 C71_9 1_555 1_555
C79_10 C75_10 1_555 1_555
O38_6 C79_10 1_555 1_555
Zr7_2 O38_6 1_555 1_555
O3_8 Zr16_4 1_555 1_555
O5_8 Zr8_6 1_555 1_555
O6_8 Zr10 1_555 1_555
O6_8 Zr9 1_555 1_555
Zr16_4 O14_8 1_555 1_555
Zr10 O20_8 1_555 1_555
Zr9 O9_8 1_555 1_555
Zr9 O15_8 1_555 1_555
Zr9 O22_8 1_555 1_555
O15_8 Zr15_5 1_555 1_555
O20_8 Zr15_5 1_555 1_555
O22_8 Zr15_5 1_555 1_555
C11_9 C12_9 1_555 1_555
C13_9 C14_9 1_555 1_555
C17_11 C22_11 1_555 1_555
C19_10 C21_10 1_555 1_555
C24_11 C29_9 1_555 1_555
C30_9 C37_10 1_555 1_555
C49_9 C58_11 1_555 1_555
C71_9 C75_10 1_555 1_555
C25_9 C19_11 1_555 1_555
C27_11 C21_11 1_555 1_555
C32_9 C25_9 1_555 1_555
C33_9 C25_9 1_555 1_555
C34_11 C26_11 1_555 1_555
C35_11 C27_11 1_555 1_555
C36_13 C27_11 1_555 1_555
C37_11 C28_11 1_555 1_555
H10_9 C32_9 1_555 1_555
C41_9 C33_9 1_555 1_555
C43_9 C34_11 1_555 1_555
C44_9 C35_11 1_555 1_555
C45_13 C36_13 1_555 1_555
C46_9 C37_11 1_555 1_555
C50_11 C41_9 1_555 1_555
H14_9 C41_9 1_555 1_555
C52_9 C43_9 1_555 1_555
H16_9 C43_9 1_555 1_555
C53_9 C44_9 1_555 1_555
C54_9 C44_9 1_555 1_555
C55_9 C45_13 1_555 1_555
C56_9 C46_9 1_555 1_555
C57_11 C47_11 1_555 1_555
C59_11 C50_11 1_555 1_555
H20_9 C52_9 1_555 1_555
H21_9 C53_9 1_555 1_555
C61_9 C54_9 1_555 1_555
C62_9 C55_9 1_555 1_555
H22_9 C56_9 1_555 1_555
C63_9 C57_11 1_555 1_555
C66_9 C59_11 1_555 1_555
C67_9 C59_11 1_555 1_555
C68_11 C60_11 1_555 1_555
C69_13 C61_9 1_555 1_555
H23_9 C61_9 1_555 1_555
H24_9 C62_9 1_555 1_555
C70_9 C63_9 1_555 1_555
H25_9 C63_9 1_555 1_555
C72_9 C66_9 1_555 1_555
H27_9 C66_9 1_555 1_555
C73_9 C67_9 1_555 1_555
H28_9 C67_9 1_555 1_555
O21 C68_11 1_555 1_555
C74_13 C69_13 1_555 1_555
C75_11 C70_9 1_555 1_555
H29_9 C70_9 1_555 1_555
C76_11 C72_9 1_555 1_555
H31_9 C72_9 1_555 1_555
H32_9 C73_9 1_555 1_555
C77_9 C74_13 1_555 1_555
C78_9 C74_13 1_555 1_555
C79_11 C75_11 1_555 1_555
C80_11 C76_11 1_555 1_555
C81_9 C77_9 1_555 1_555
H33_9 C77_9 1_555 1_555
C82_9 C78_9 1_555 1_555
H34_9 C78_9 1_555 1_555
O37_6 C79_11 1_555 1_555
O39_8 C80_11 1_555 1_555
O40_8 C80_11 1_555 1_555
C83_13 C81_9 1_555 1_555
H35_9 C81_9 1_555 1_555
H36_9 C82_9 1_555 1_555
Zr11_6 O37_6 1_555 1_555
Zr7_3 O39_8 1_555 1_555
Zr16_5 O40_8 1_555 1_555
C84_13 C83_13 1_555 1_555
O30_5 C84_13 1_555 1_555
O19_5 C84_13 1_555 1_555
C19_11 C21_11 1_555 1_555
C26_11 C32_9 1_555 1_555
C28_11 C36_13 1_555 1_555
C33_9 C35_11 1_555 1_555
C45_13 C54_9 1_555 1_555
C46_9 C55_9 1_555 1_555
C47_11 C56_9 1_555 1_555
C50_11 C53_9 1_555 1_555
C52_9 C60_11 1_555 1_555
C62_9 C69_13 1_555 1_555
C73_9 C76_11 1_555 1_555
C82_9 C83_13 1_555 1_555
O12_5 C1_14 1_555 1_555
C1_14 C2_14 1_555 1_555
C2_14 C3_10 1_555 1_555
C3_10 H1_10 1_555 1_555
C4_10 C3_10 1_555 1_555
C5_14 C4_10 1_555 1_555
H2_10 C4_10 1_555 1_555
C6_14 C5_14 1_555 1_555
C7_10 C6_14 1_555 1_555
H3_10 C7_10 1_555 1_555
C8_10 C7_10 1_555 1_555
C9_14 C8_10 1_555 1_555
C10_14 C9_14 1_555 1_555
O18_5 C1_14 1_555 1_555
C11_10 C2_14 1_555 1_555
H4_10 C11_10 1_555 1_555
C12_10 C5_14 1_555 1_555
H5_10 C12_10 1_555 1_555
C13_10 C6_14 1_555 1_555
H6_10 C13_10 1_555 1_555
C14_10 C9_14 1_555 1_555
C15_10 C8_10 1_555 1_555
C16_10 C14_10 1_555 1_555
C17_12 C15_10 1_555 1_555
C18_10 C15_10 1_555 1_555
C19_12 C16_10 1_555 1_555
C20_10 C16_10 1_555 1_555
C21_12 C10_14 1_555 1_555
C22_12 C10_14 1_555 1_555
C23_10 C17_12 1_555 1_555
C24_12 C18_10 1_555 1_555
H7_10 C18_10 1_555 1_555
C25_10 C19_12 1_555 1_555
C26_12 C20_10 1_555 1_555
H8_10 C20_10 1_555 1_555
C27_12 C21_12 1_555 1_555
C28_12 C22_12 1_555 1_555
C29_10 C23_10 1_555 1_555
C30_10 C23_10 1_555 1_555
C31_12 C24_12 1_555 1_555
C32_10 C25_10 1_555 1_555
C33_10 C25_10 1_555 1_555
C34_12 C26_12 1_555 1_555
C35_12 C27_12 1_555 1_555
C36_14 C27_12 1_555 1_555
C37_12 C28_12 1_555 1_555
H9_10 C29_10 1_555 1_555
C38_10 C30_10 1_555 1_555
C39_10 C31_12 1_555 1_555
C40_10 C31_12 1_555 1_555
H10_10 C32_10 1_555 1_555
C41_10 C33_10 1_555 1_555
C42_10 C34_12 1_555 1_555
C43_10 C34_12 1_555 1_555
C44_10 C35_12 1_555 1_555
C45_14 C36_14 1_555 1_555
C46_10 C37_12 1_555 1_555
C47_12 C38_10 1_555 1_555
H11_10 C38_10 1_555 1_555
C48_10 C39_10 1_555 1_555
H12_10 C39_10 1_555 1_555
C49_10 C40_10 1_555 1_555
H13_10 C40_10 1_555 1_555
C50_12 C41_10 1_555 1_555
H14_10 C41_10 1_555 1_555
C51_10 C42_10 1_555 1_555
H15_10 C42_10 1_555 1_555
C52_10 C43_10 1_555 1_555
H16_10 C43_10 1_555 1_555
C53_10 C44_10 1_555 1_555
C54_10 C44_10 1_555 1_555
C55_10 C45_14 1_555 1_555
C56_10 C46_10 1_555 1_555
C57_12 C47_12 1_555 1_555
C58_12 C48_10 1_555 1_555
H17_10 C48_10 1_555 1_555
H18_10 C49_10 1_555 1_555
C59_12 C50_12 1_555 1_555
C60_12 C51_10 1_555 1_555
H19_10 C51_10 1_555 1_555
H20_10 C52_10 1_555 1_555
H21_10 C53_10 1_555 1_555
C61_10 C54_10 1_555 1_555
C62_10 C55_10 1_555 1_555
H22_10 C56_10 1_555 1_555
C63_10 C57_12 1_555 1_555
C64_10 C57_12 1_555 1_555
C65_12 C58_12 1_555 1_555
C66_10 C59_12 1_555 1_555
C67_10 C59_12 1_555 1_555
C68_12 C60_12 1_555 1_555
C69_14 C61_10 1_555 1_555
H23_10 C61_10 1_555 1_555
H24_10 C62_10 1_555 1_555
C70_10 C63_10 1_555 1_555
H25_10 C63_10 1_555 1_555
C71_10 C64_10 1_555 1_555
H26_10 C64_10 1_555 1_555
O8 C65_12 1_555 1_555
O13 C65_12 1_555 1_555
C72_10 C66_10 1_555 1_555
H27_10 C66_10 1_555 1_555
C73_10 C67_10 1_555 1_555
H28_10 C67_10 1_555 1_555
O35_8 C68_12 1_555 1_555
O36_8 C68_12 1_555 1_555
C74_14 C69_14 1_555 1_555
C75_12 C70_10 1_555 1_555
H29_10 C70_10 1_555 1_555
H30_10 C71_10 1_555 1_555
C76_12 C72_10 1_555 1_555
H31_10 C72_10 1_555 1_555
H32_10 C73_10 1_555 1_555
Zr9_6 O35_8 1_555 1_555
Zr10_7 O36_8 1_555 1_555
C77_10 C74_14 1_555 1_555
C78_10 C74_14 1_555 1_555
C79_12 C75_12 1_555 1_555
C80_12 C76_12 1_555 1_555
C81_10 C77_10 1_555 1_555
H33_10 C77_10 1_555 1_555
C82_10 C78_10 1_555 1_555
H34_10 C78_10 1_555 1_555
O37_7 C79_12 1_555 1_555
O38_7 C79_12 1_555 1_555
O39_9 C80_12 1_555 1_555
O40_9 C80_12 1_555 1_555
C83_14 C81_10 1_555 1_555
H35_10 C81_10 1_555 1_555
H36_10 C82_10 1_555 1_555
Zr15_7 O37_7 1_555 1_555
Zr8 O38_7 1_555 1_555
Zr13_7 O39_9 1_555 1_555
Zr9_2 O40_9 1_555 1_555
C84_14 C83_14 1_555 1_555
O21_2 C84_14 1_555 1_555
O26_2 C84_14 1_555 1_555
C11_10 C12_10 1_555 1_555
C13_10 C14_10 1_555 1_555
C17_12 C22_12 1_555 1_555
C19_12 C21_12 1_555 1_555
C24_12 C29_10 1_555 1_555
C26_12 C32_10 1_555 1_555
C28_12 C36_14 1_555 1_555
C30_10 C37_12 1_555 1_555
C33_10 C35_12 1_555 1_555
C45_14 C54_10 1_555 1_555
C46_10 C55_10 1_555 1_555
C47_12 C56_10 1_555 1_555
C49_10 C58_12 1_555 1_555
C50_12 C53_10 1_555 1_555
C52_10 C60_12 1_555 1_555
C62_10 C69_14 1_555 1_555
C71_10 C75_12 1_555 1_555
C73_10 C76_12 1_555 1_555
C82_10 C83_14 1_555 1_555
O6_9 Zr16 1_555 1_555
O2_9 Zr13_3 1_555 1_555
O5_9 Zr13_3 1_555 1_555
Zr8_4 O2_9 1_555 1_555
O12_7 Zr8_4 1_555 1_555
O5_9 Zr8_4 1_555 1_555
O22_9 Zr15 1_555 1_555
O30_7 Zr11_2 1_555 1_555
Zr15 O20_9 1_555 1_555
O20_9 Zr11_2 1_555 1_555
O22_9 Zr11_2 1_555 1_555
O18_7 Zr3_6 1_555 1_555
O19_7 Zr3_6 1_555 1_555
Zr3_6 O14_9 1_555 1_555
O6_10 Zr7_2 1_555 1_555
O2_10 Zr11_6 1_555 1_555
O5_10 Zr11_6 1_555 1_555
O8_7 Zr11_6 1_555 1_555
Zr2_6 O2_10 1_555 1_555
O12_8 Zr2_6 1_555 1_555
O13_7 Zr2_6 1_555 1_555
O5_10 Zr2_6 1_555 1_555
O22_10 Zr8_3 1_555 1_555
O23_7 Zr8_3 1_555 1_555
O29_7 Zr6_6 1_555 1_555
O30_8 Zr6_6 1_555 1_555
Zr8_3 O20_10 1_555 1_555
O20_10 Zr6_6 1_555 1_555
O22_10 Zr6_6 1_555 1_555
O18_8 Zr3_7 1_555 1_555
O19_8 Zr3_7 1_555 1_555
Zr3_7 O14_10 1_555 1_555
Zr8 O3_11 1_555 1_555
O22_11 Zr8 1_555 1_555
O24_11 Zr8 1_555 1_555
O25_11 Zr8 1_555 1_555
O6_11 Zr8 1_555 1_555
O6_11 Zr7 1_555 1_555
Zr8 O20_11 1_555 1_555
Zr7 O22_11 1_555 1_555
O20_11 Zr15_7 1_555 1_555
O22_11 Zr15_7 1_555 1_555
O2_11 Zr11_5 1_555 1_555
O5_11 Zr11_5 1_555 1_555
O8_8 Zr11_5 1_555 1_555
Zr2_7 O2_11 1_555 1_555
Zr16_6 O2_11 1_555 1_555
O10_11 Zr2_7 1_555 1_555
O11_11 Zr2_7 1_555 1_555
O12_9 Zr2_7 1_555 1_555
O13_8 Zr2_7 1_555 1_555
O14_11 Zr2_7 1_555 1_555
O15_11 Zr2_7 1_555 1_555
O18_9 Zr16_6 1_555 1_555
O5_11 Zr2_7 1_555 1_555
Zr16_6 O14_11 1_555 1_555
O2_12 Zr7_3 1_555 1_555
O3_12 Zr7_3 1_555 1_555
O4_12 Zr7_3 1_555 1_555
O5_12 Zr7_3 1_555 1_555
O6_12 Zr7_3 1_555 1_555
O7_12 Zr7_3 1_555 1_555
Zr8_5 O2_12 1_555 1_555
Zr16_5 O5_12 1_555 1_555
O12_10 Zr8_5 1_555 1_555
O5_12 Zr8_5 1_555 1_555
O6_12 Zr16_5 1_555 1_555
O18_10 Zr16_2 1_555 1_555
O20_12 Zr16_2 1_555 1_555
O22_12 Zr15_6 1_555 1_555
O23_8 Zr15_6 1_555 1_555
Zr15_2 O14_12 1_555 1_555
O29_8 Zr15_2 1_555 1_555
O31_12 Zr15_2 1_555 1_555
O32_12 Zr15_2 1_555 1_555
Zr16_2 O14_12 1_555 1_555
Zr15_6 O20_12 1_555 1_555
O15_12 Zr15_2 1_555 1_555
O20_12 Zr15_2 1_555 1_555
O22_12 Zr15_2 1_555 1_555
O12_9 C1_15 1_555 1_555
C1_15 C2_15 1_555 1_555
C2_15 C3_11 1_555 1_555
C3_11 H1_11 1_555 1_555
C4_11 C3_11 1_555 1_555
C5_15 C4_11 1_555 1_555
H2_11 C4_11 1_555 1_555
C6_15 C5_15 1_555 1_555
C7_11 C6_15 1_555 1_555
H3_11 C7_11 1_555 1_555
C8_11 C7_11 1_555 1_555
C9_15 C8_11 1_555 1_555
C10_15 C9_15 1_555 1_555
O18_9 C1_15 1_555 1_555
C11_11 C2_15 1_555 1_555
H4_11 C11_11 1_555 1_555
C12_11 C5_15 1_555 1_555
H5_11 C12_11 1_555 1_555
C13_11 C6_15 1_555 1_555
H6_11 C13_11 1_555 1_555
C14_11 C9_15 1_555 1_555
C15_11 C8_11 1_555 1_555
C16_11 C14_11 1_555 1_555
C17_13 C15_11 1_555 1_555
C18_11 C15_11 1_555 1_555
C19_13 C16_11 1_555 1_555
C20_11 C16_11 1_555 1_555
C21_13 C10_15 1_555 1_555
C22_13 C10_15 1_555 1_555
C23_11 C17_13 1_555 1_555
C24_13 C18_11 1_555 1_555
H7_11 C18_11 1_555 1_555
C25_11 C19_13 1_555 1_555
C26_13 C20_11 1_555 1_555
H8_11 C20_11 1_555 1_555
C27_13 C21_13 1_555 1_555
C28_13 C22_13 1_555 1_555
C29_11 C23_11 1_555 1_555
C30_11 C23_11 1_555 1_555
C31_13 C24_13 1_555 1_555
C32_11 C25_11 1_555 1_555
C33_11 C25_11 1_555 1_555
C34_13 C26_13 1_555 1_555
C35_13 C27_13 1_555 1_555
C36_15 C27_13 1_555 1_555
C37_13 C28_13 1_555 1_555
H9_11 C29_11 1_555 1_555
C38_11 C30_11 1_555 1_555
C39_11 C31_13 1_555 1_555
C40_11 C31_13 1_555 1_555
H10_11 C32_11 1_555 1_555
C41_11 C33_11 1_555 1_555
C42_11 C34_13 1_555 1_555
C43_11 C34_13 1_555 1_555
C44_11 C35_13 1_555 1_555
C45_15 C36_15 1_555 1_555
C46_11 C37_13 1_555 1_555
C47_13 C38_11 1_555 1_555
H11_11 C38_11 1_555 1_555
C48_11 C39_11 1_555 1_555
H12_11 C39_11 1_555 1_555
C49_11 C40_11 1_555 1_555
H13_11 C40_11 1_555 1_555
C50_13 C41_11 1_555 1_555
H14_11 C41_11 1_555 1_555
C51_11 C42_11 1_555 1_555
H15_11 C42_11 1_555 1_555
C52_11 C43_11 1_555 1_555
H16_11 C43_11 1_555 1_555
C53_11 C44_11 1_555 1_555
C54_11 C44_11 1_555 1_555
C55_11 C45_15 1_555 1_555
C56_11 C46_11 1_555 1_555
C57_13 C47_13 1_555 1_555
C58_13 C48_11 1_555 1_555
H17_11 C48_11 1_555 1_555
H18_11 C49_11 1_555 1_555
C59_13 C50_13 1_555 1_555
C60_13 C51_11 1_555 1_555
H19_11 C51_11 1_555 1_555
H20_11 C52_11 1_555 1_555
H21_11 C53_11 1_555 1_555
C61_11 C54_11 1_555 1_555
C62_11 C55_11 1_555 1_555
H22_11 C56_11 1_555 1_555
C63_11 C57_13 1_555 1_555
C64_11 C57_13 1_555 1_555
C65_13 C58_13 1_555 1_555
C66_11 C59_13 1_555 1_555
C67_11 C59_13 1_555 1_555
C68_13 C60_13 1_555 1_555
C69_15 C61_11 1_555 1_555
H23_11 C61_11 1_555 1_555
H24_11 C62_11 1_555 1_555
C70_11 C63_11 1_555 1_555
H25_11 C63_11 1_555 1_555
C71_11 C64_11 1_555 1_555
H26_11 C64_11 1_555 1_555
O8_7 C65_13 1_555 1_555
O13_7 C65_13 1_555 1_555
C72_11 C66_11 1_555 1_555
H27_11 C66_11 1_555 1_555
C73_11 C67_11 1_555 1_555
H28_11 C67_11 1_555 1_555
O35_9 C68_13 1_555 1_555
O36_9 C68_13 1_555 1_555
C74_15 C69_15 1_555 1_555
C75_13 C70_11 1_555 1_555
H29_11 C70_11 1_555 1_555
H30_11 C71_11 1_555 1_555
C76_13 C72_11 1_555 1_555
H31_11 C72_11 1_555 1_555
H32_11 C73_11 1_555 1_555
Zr14_6 O35_9 1_555 1_555
Zr13_2 O36_9 1_555 1_555
C77_11 C74_15 1_555 1_555
C78_11 C74_15 1_555 1_555
C79_13 C75_13 1_555 1_555
C80_13 C76_13 1_555 1_555
C81_11 C77_11 1_555 1_555
H33_11 C77_11 1_555 1_555
C82_11 C78_11 1_555 1_555
H34_11 C78_11 1_555 1_555
O23_5 C79_13 1_555 1_555
O29_5 C79_13 1_555 1_555
O39_10 C80_13 1_555 1_555
O40_10 C80_13 1_555 1_555
C83_15 C81_11 1_555 1_555
H35_11 C81_11 1_555 1_555
H36_11 C82_11 1_555 1_555
Zr10_2 O39_10 1_555 1_555
Zr9_5 O40_10 1_555 1_555
C84_15 C83_15 1_555 1_555
O21_5 C84_15 1_555 1_555
O26_5 C84_15 1_555 1_555
C11_11 C12_11 1_555 1_555
C13_11 C14_11 1_555 1_555
C17_13 C22_13 1_555 1_555
C19_13 C21_13 1_555 1_555
C24_13 C29_11 1_555 1_555
C26_13 C32_11 1_555 1_555
C28_13 C36_15 1_555 1_555
C30_11 C37_13 1_555 1_555
C33_11 C35_13 1_555 1_555
C45_15 C54_11 1_555 1_555
C46_11 C55_11 1_555 1_555
C47_13 C56_11 1_555 1_555
C49_11 C58_13 1_555 1_555
C50_13 C53_11 1_555 1_555
C52_11 C60_13 1_555 1_555
C62_11 C69_15 1_555 1_555
C71_11 C75_13 1_555 1_555
C73_11 C76_13 1_555 1_555
C82_11 C83_15 1_555 1_555
O12_8 C1_16 1_555 1_555
C1_16 C2_16 1_555 1_555
C2_16 C3_12 1_555 1_555
C3_12 H1_12 1_555 1_555
C4_12 C3_12 1_555 1_555
C5_16 C4_12 1_555 1_555
H2_12 C4_12 1_555 1_555
C6_16 C5_16 1_555 1_555
C7_12 C6_16 1_555 1_555
H3_12 C7_12 1_555 1_555
C8_12 C7_12 1_555 1_555
C9_16 C8_12 1_555 1_555
C10_16 C9_16 1_555 1_555
C15_12 C8_12 1_555 1_555
C17_14 C15_12 1_555 1_555
C18_12 C15_12 1_555 1_555
C22_14 C10_16 1_555 1_555
C23_12 C17_14 1_555 1_555
C24_14 C18_12 1_555 1_555
H7_12 C18_12 1_555 1_555
C28_14 C22_14 1_555 1_555
C29_12 C23_12 1_555 1_555
C30_12 C23_12 1_555 1_555
C31_14 C24_14 1_555 1_555
C37_14 C28_14 1_555 1_555
H9_12 C29_12 1_555 1_555
C38_12 C30_12 1_555 1_555
C39_12 C31_14 1_555 1_555
C40_12 C31_14 1_555 1_555
C45_16 C36_16 1_555 1_555
C46_12 C37_14 1_555 1_555
C47_14 C38_12 1_555 1_555
H11_12 C38_12 1_555 1_555
C48_12 C39_12 1_555 1_555
H12_12 C39_12 1_555 1_555
C49_12 C40_12 1_555 1_555
H13_12 C40_12 1_555 1_555
C55_12 C45_16 1_555 1_555
C56_12 C46_12 1_555 1_555
C57_14 C47_14 1_555 1_555
C58_14 C48_12 1_555 1_555
H17_12 C48_12 1_555 1_555
H18_12 C49_12 1_555 1_555
C62_12 C55_12 1_555 1_555
H22_12 C56_12 1_555 1_555
C63_12 C57_14 1_555 1_555
C64_12 C57_14 1_555 1_555
C65_14 C58_14 1_555 1_555
H24_12 C62_12 1_555 1_555
C70_12 C63_12 1_555 1_555
H25_12 C63_12 1_555 1_555
C71_12 C64_12 1_555 1_555
H26_12 C64_12 1_555 1_555
O8_8 C65_14 1_555 1_555
O13_8 C65_14 1_555 1_555
C74_16 C69_16 1_555 1_555
C75_14 C70_12 1_555 1_555
H29_12 C70_12 1_555 1_555
H30_12 C71_12 1_555 1_555
C77_12 C74_16 1_555 1_555
C79_14 C75_14 1_555 1_555
C81_12 C77_12 1_555 1_555
H33_12 C77_12 1_555 1_555
O29_8 C79_14 1_555 1_555
O23_8 C79_14 1_555 1_555
C83_16 C81_12 1_555 1_555
H35_12 C81_12 1_555 1_555
C84_16 C83_16 1_555 1_555
O30_7 C84_16 1_555 1_555
C17_14 C22_14 1_555 1_555
C24_14 C29_12 1_555 1_555
C28_14 C36_16 1_555 1_555
C30_12 C37_14 1_555 1_555
C46_12 C55_12 1_555 1_555
C47_14 C56_12 1_555 1_555
C49_12 C58_14 1_555 1_555
C62_12 C69_16 1_555 1_555
C71_12 C75_14 1_555 1_555
C1_17 C2_17 1_555 1_555
C6_17 C5_17 1_555 1_555
C10_17 C9_17 1_555 1_555
O18_8 C1_17 1_555 1_555
C11_12 C2_17 1_555 1_555
H4_12 C11_12 1_555 1_555
C12_12 C5_17 1_555 1_555
H5_12 C12_12 1_555 1_555
C13_12 C6_17 1_555 1_555
H6_12 C13_12 1_555 1_555
C14_12 C9_17 1_555 1_555
C16_12 C14_12 1_555 1_555
C19_14 C16_12 1_555 1_555
C20_12 C16_12 1_555 1_555
C21_14 C10_17 1_555 1_555
C25_12 C19_14 1_555 1_555
C26_14 C20_12 1_555 1_555
H8_12 C20_12 1_555 1_555
C27_14 C21_14 1_555 1_555
C32_12 C25_12 1_555 1_555
C33_12 C25_12 1_555 1_555
C34_14 C26_14 1_555 1_555
C35_14 C27_14 1_555 1_555
C36_17 C27_14 1_555 1_555
H10_12 C32_12 1_555 1_555
C41_12 C33_12 1_555 1_555
C42_12 C34_14 1_555 1_555
C43_12 C34_14 1_555 1_555
C44_12 C35_14 1_555 1_555
C45_17 C36_17 1_555 1_555
C50_14 C41_12 1_555 1_555
H14_12 C41_12 1_555 1_555
C51_12 C42_12 1_555 1_555
H15_12 C42_12 1_555 1_555
C52_12 C43_12 1_555 1_555
H16_12 C43_12 1_555 1_555
C53_12 C44_12 1_555 1_555
C54_12 C44_12 1_555 1_555
C59_14 C50_14 1_555 1_555
C60_14 C51_12 1_555 1_555
H19_12 C51_12 1_555 1_555
H20_12 C52_12 1_555 1_555
H21_12 C53_12 1_555 1_555
C61_12 C54_12 1_555 1_555
C66_12 C59_14 1_555 1_555
C67_12 C59_14 1_555 1_555
C68_14 C60_14 1_555 1_555
C69_17 C61_12 1_555 1_555
H23_12 C61_12 1_555 1_555
C72_12 C66_12 1_555 1_555
H27_12 C66_12 1_555 1_555
C73_12 C67_12 1_555 1_555
H28_12 C67_12 1_555 1_555
O35_10 C68_14 1_555 1_555
O36_10 C68_14 1_555 1_555
C74_17 C69_17 1_555 1_555
C76_14 C72_12 1_555 1_555
H31_12 C72_12 1_555 1_555
H32_12 C73_12 1_555 1_555
Zr9_7 O35_10 1_555 1_555
Zr13_4 O36_10 1_555 1_555
C78_12 C74_17 1_555 1_555
C80_14 C76_14 1_555 1_555
C82_12 C78_12 1_555 1_555
H34_12 C78_12 1_555 1_555
O39_11 C80_14 1_555 1_555
O40_11 C80_14 1_555 1_555
H36_12 C82_12 1_555 1_555
Zr10_4 O39_11 1_555 1_555
Zr14_7 O40_11 1_555 1_555
C84_17 C83_17 1_555 1_555
O19_7 C84_17 1_555 1_555
C11_12 C12_12 1_555 1_555
C13_12 C14_12 1_555 1_555
C19_14 C21_14 1_555 1_555
C26_14 C32_12 1_555 1_555
C33_12 C35_14 1_555 1_555
C45_17 C54_12 1_555 1_555
C50_14 C53_12 1_555 1_555
C52_12 C60_14 1_555 1_555
C73_12 C76_14 1_555 1_555
C82_12 C83_17 1_555 1_555
O12_10 C1_18 1_555 1_555
C1_18 C2_18 1_555 1_555
C2_18 C3_13 1_555 1_555
C3_13 H1_13 1_555 1_555
C4_13 C3_13 1_555 1_555
C5_18 C4_13 1_555 1_555
H2_13 C4_13 1_555 1_555
C6_18 C5_18 1_555 1_555
C7_13 C6_18 1_555 1_555
H3_13 C7_13 1_555 1_555
C8_13 C7_13 1_555 1_555
C9_18 C8_13 1_555 1_555
C10_18 C9_18 1_555 1_555
C15_13 C8_13 1_555 1_555
C17_15 C15_13 1_555 1_555
C18_13 C15_13 1_555 1_555
C22_15 C10_18 1_555 1_555
C23_13 C17_15 1_555 1_555
C24_15 C18_13 1_555 1_555
H7_13 C18_13 1_555 1_555
C28_15 C22_15 1_555 1_555
C29_13 C23_13 1_555 1_555
C30_13 C23_13 1_555 1_555
C31_15 C24_15 1_555 1_555
C37_15 C28_15 1_555 1_555
H9_13 C29_13 1_555 1_555
C38_13 C30_13 1_555 1_555
C39_13 C31_15 1_555 1_555
C40_13 C31_15 1_555 1_555
C45_18 C36_18 1_555 1_555
C46_13 C37_15 1_555 1_555
C47_15 C38_13 1_555 1_555
H11_13 C38_13 1_555 1_555
C48_13 C39_13 1_555 1_555
H12_13 C39_13 1_555 1_555
C49_13 C40_13 1_555 1_555
H13_13 C40_13 1_555 1_555
C55_13 C45_18 1_555 1_555
C56_13 C46_13 1_555 1_555
C57_15 C47_15 1_555 1_555
C58_15 C48_13 1_555 1_555
H17_13 C48_13 1_555 1_555
H18_13 C49_13 1_555 1_555
C62_13 C55_13 1_555 1_555
H22_13 C56_13 1_555 1_555
C63_13 C57_15 1_555 1_555
C64_13 C57_15 1_555 1_555
C65_15 C58_15 1_555 1_555
H24_13 C62_13 1_555 1_555
C70_13 C63_13 1_555 1_555
H25_13 C63_13 1_555 1_555
C71_13 C64_13 1_555 1_555
H26_13 C64_13 1_555 1_555
O13_6 C65_15 1_555 1_555
O8_6 C65_15 1_555 1_555
C74_18 C69_18 1_555 1_555
C75_15 C70_13 1_555 1_555
H29_13 C70_13 1_555 1_555
H30_13 C71_13 1_555 1_555
C77_13 C74_18 1_555 1_555
C79_15 C75_15 1_555 1_555
C81_13 C77_13 1_555 1_555
H33_13 C77_13 1_555 1_555
O29_6 C79_15 1_555 1_555
O23_6 C79_15 1_555 1_555
C83_18 C81_13 1_555 1_555
H35_13 C81_13 1_555 1_555
C84_18 C83_18 1_555 1_555
O30_6 C84_18 1_555 1_555
C17_15 C22_15 1_555 1_555
C24_15 C29_13 1_555 1_555
C28_15 C36_18 1_555 1_555
C30_13 C37_15 1_555 1_555
C46_13 C55_13 1_555 1_555
C47_15 C56_13 1_555 1_555
C49_13 C58_15 1_555 1_555
C62_13 C69_18 1_555 1_555
C71_13 C75_15 1_555 1_555
C1_19 C2_19 1_555 1_555
C6_19 C5_19 1_555 1_555
C10_19 C9_19 1_555 1_555
O18_10 C1_19 1_555 1_555
C11_13 C2_19 1_555 1_555
H4_13 C11_13 1_555 1_555
C12_13 C5_19 1_555 1_555
H5_13 C12_13 1_555 1_555
C13_13 C6_19 1_555 1_555
H6_13 C13_13 1_555 1_555
C14_13 C9_19 1_555 1_555
C16_13 C14_13 1_555 1_555
C19_15 C16_13 1_555 1_555
C20_13 C16_13 1_555 1_555
C21_15 C10_19 1_555 1_555
C25_13 C19_15 1_555 1_555
C26_15 C20_13 1_555 1_555
H8_13 C20_13 1_555 1_555
C27_15 C21_15 1_555 1_555
C32_13 C25_13 1_555 1_555
C33_13 C25_13 1_555 1_555
C34_15 C26_15 1_555 1_555
C35_15 C27_15 1_555 1_555
C36_19 C27_15 1_555 1_555
H10_13 C32_13 1_555 1_555
C41_13 C33_13 1_555 1_555
C42_13 C34_15 1_555 1_555
C43_13 C34_15 1_555 1_555
C44_13 C35_15 1_555 1_555
C45_19 C36_19 1_555 1_555
C50_15 C41_13 1_555 1_555
H14_13 C41_13 1_555 1_555
C51_13 C42_13 1_555 1_555
H15_13 C42_13 1_555 1_555
C52_13 C43_13 1_555 1_555
H16_13 C43_13 1_555 1_555
C53_13 C44_13 1_555 1_555
C54_13 C44_13 1_555 1_555
C59_15 C50_15 1_555 1_555
C60_15 C51_13 1_555 1_555
H19_13 C51_13 1_555 1_555
H20_13 C52_13 1_555 1_555
H21_13 C53_13 1_555 1_555
C61_13 C54_13 1_555 1_555
C66_13 C59_15 1_555 1_555
C67_13 C59_15 1_555 1_555
C68_15 C60_15 1_555 1_555
C69_19 C61_13 1_555 1_555
H23_13 C61_13 1_555 1_555
C72_13 C66_13 1_555 1_555
H27_13 C66_13 1_555 1_555
C73_13 C67_13 1_555 1_555
H28_13 C67_13 1_555 1_555
O35_11 C68_15 1_555 1_555
O36_11 C68_15 1_555 1_555
C74_19 C69_19 1_555 1_555
C76_15 C72_13 1_555 1_555
H31_13 C72_13 1_555 1_555
H32_13 C73_13 1_555 1_555
Zr14_2 O35_11 1_555 1_555
Zr10_8 O36_11 1_555 1_555
C78_13 C74_19 1_555 1_555
C80_15 C76_15 1_555 1_555
C82_13 C78_13 1_555 1_555
H34_13 C78_13 1_555 1_555
O39_12 C80_15 1_555 1_555
O40_12 C80_15 1_555 1_555
H36_13 C82_13 1_555 1_555
Zr13_8 O39_12 1_555 1_555
Zr9_6 O40_12 1_555 1_555
C84_19 C83_19 1_555 1_555
O19_6 C84_19 1_555 1_555
C11_13 C12_13 1_555 1_555
C13_13 C14_13 1_555 1_555
C19_15 C21_15 1_555 1_555
C26_15 C32_13 1_555 1_555
C33_13 C35_15 1_555 1_555
C45_19 C54_13 1_555 1_555
C50_15 C53_13 1_555 1_555
C52_13 C60_15 1_555 1_555
C73_13 C76_15 1_555 1_555
C82_13 C83_19 1_555 1_555
O12_7 C1_20 1_555 1_555
C1_20 C2_20 1_555 1_555
C2_20 C3_14 1_555 1_555
C3_14 H1_14 1_555 1_555
C4_14 C3_14 1_555 1_555
C5_20 C4_14 1_555 1_555
H2_14 C4_14 1_555 1_555
C6_20 C5_20 1_555 1_555
C7_14 C6_20 1_555 1_555
H3_14 C7_14 1_555 1_555
C8_14 C7_14 1_555 1_555
C9_20 C8_14 1_555 1_555
C10_20 C9_20 1_555 1_555
C15_14 C8_14 1_555 1_555
C17_16 C15_14 1_555 1_555
C18_14 C15_14 1_555 1_555
C22_16 C10_20 1_555 1_555
C23_14 C17_16 1_555 1_555
C24_16 C18_14 1_555 1_555
H7_14 C18_14 1_555 1_555
C28_16 C22_16 1_555 1_555
C29_14 C23_14 1_555 1_555
C30_14 C23_14 1_555 1_555
C31_16 C24_16 1_555 1_555
C37_16 C28_16 1_555 1_555
H9_14 C29_14 1_555 1_555
C38_14 C30_14 1_555 1_555
C39_14 C31_16 1_555 1_555
C40_14 C31_16 1_555 1_555
C45_20 C36_20 1_555 1_555
C46_14 C37_16 1_555 1_555
C47_16 C38_14 1_555 1_555
H11_14 C38_14 1_555 1_555
C48_14 C39_14 1_555 1_555
H12_14 C39_14 1_555 1_555
C49_14 C40_14 1_555 1_555
H13_14 C40_14 1_555 1_555
C55_14 C45_20 1_555 1_555
C56_14 C46_14 1_555 1_555
C57_16 C47_16 1_555 1_555
C58_16 C48_14 1_555 1_555
H17_14 C48_14 1_555 1_555
H18_14 C49_14 1_555 1_555
C62_14 C55_14 1_555 1_555
H22_14 C56_14 1_555 1_555
C63_14 C57_16 1_555 1_555
C64_14 C57_16 1_555 1_555
C65_16 C58_16 1_555 1_555
H24_14 C62_14 1_555 1_555
C70_14 C63_14 1_555 1_555
H25_14 C63_14 1_555 1_555
C71_14 C64_14 1_555 1_555
H26_14 C64_14 1_555 1_555
O13_4 C65_16 1_555 1_555
O8_4 C65_16 1_555 1_555
C74_20 C69_20 1_555 1_555
C75_16 C70_14 1_555 1_555
H29_14 C70_14 1_555 1_555
H30_14 C71_14 1_555 1_555
C77_14 C74_20 1_555 1_555
C79_16 C75_16 1_555 1_555
C81_14 C77_14 1_555 1_555
H33_14 C77_14 1_555 1_555
O29_3 C79_16 1_555 1_555
O23_3 C79_16 1_555 1_555
C83_20 C81_14 1_555 1_555
H35_14 C81_14 1_555 1_555
C84_20 C83_20 1_555 1_555
O30 C84_20 1_555 1_555
C17_16 C22_16 1_555 1_555
C24_16 C29_14 1_555 1_555
C28_16 C36_20 1_555 1_555
C30_14 C37_16 1_555 1_555
C46_14 C55_14 1_555 1_555
C47_16 C56_14 1_555 1_555
C49_14 C58_16 1_555 1_555
C62_14 C69_20 1_555 1_555
C71_14 C75_16 1_555 1_555
C1_21 C2_21 1_555 1_555
C6_21 C5_21 1_555 1_555
C10_21 C9_21 1_555 1_555
O18_7 C1_21 1_555 1_555
C11_14 C2_21 1_555 1_555
H4_14 C11_14 1_555 1_555
C12_14 C5_21 1_555 1_555
H5_14 C12_14 1_555 1_555
C13_14 C6_21 1_555 1_555
H6_14 C13_14 1_555 1_555
C14_14 C9_21 1_555 1_555
C16_14 C14_14 1_555 1_555
C19_16 C16_14 1_555 1_555
C20_14 C16_14 1_555 1_555
C21_16 C10_21 1_555 1_555
C25_14 C19_16 1_555 1_555
C26_16 C20_14 1_555 1_555
H8_14 C20_14 1_555 1_555
C27_16 C21_16 1_555 1_555
C32_14 C25_14 1_555 1_555
C33_14 C25_14 1_555 1_555
C34_16 C26_16 1_555 1_555
C35_16 C27_16 1_555 1_555
C36_21 C27_16 1_555 1_555
H10_14 C32_14 1_555 1_555
C41_14 C33_14 1_555 1_555
C42_14 C34_16 1_555 1_555
C43_14 C34_16 1_555 1_555
C44_14 C35_16 1_555 1_555
C45_21 C36_21 1_555 1_555
C50_16 C41_14 1_555 1_555
H14_14 C41_14 1_555 1_555
C51_14 C42_14 1_555 1_555
H15_14 C42_14 1_555 1_555
C52_14 C43_14 1_555 1_555
H16_14 C43_14 1_555 1_555
C53_14 C44_14 1_555 1_555
C54_14 C44_14 1_555 1_555
C59_16 C50_16 1_555 1_555
C60_16 C51_14 1_555 1_555
H19_14 C51_14 1_555 1_555
H20_14 C52_14 1_555 1_555
H21_14 C53_14 1_555 1_555
C61_14 C54_14 1_555 1_555
C66_14 C59_16 1_555 1_555
C67_14 C59_16 1_555 1_555
C68_16 C60_16 1_555 1_555
C69_21 C61_14 1_555 1_555
H23_14 C61_14 1_555 1_555
C72_14 C66_14 1_555 1_555
H27_14 C66_14 1_555 1_555
C73_14 C67_14 1_555 1_555
H28_14 C67_14 1_555 1_555
O35_12 C68_16 1_555 1_555
O36_12 C68_16 1_555 1_555
C74_21 C69_21 1_555 1_555
C76_16 C72_14 1_555 1_555
H31_14 C72_14 1_555 1_555
H32_14 C73_14 1_555 1_555
Zr14_7 O35_12 1_555 1_555
Zr13_8 O36_12 1_555 1_555
C78_14 C74_21 1_555 1_555
C80_16 C76_16 1_555 1_555
C82_14 C78_14 1_555 1_555
H34_14 C78_14 1_555 1_555
O39_13 C80_16 1_555 1_555
O40_13 C80_16 1_555 1_555
H36_14 C82_14 1_555 1_555
Zr10_8 O39_13 1_555 1_555
Zr14_8 O40_13 1_555 1_555
C84_21 C83_21 1_555 1_555
O19 C84_21 1_555 1_555
C11_14 C12_14 1_555 1_555
C13_14 C14_14 1_555 1_555
C19_16 C21_16 1_555 1_555
C26_16 C32_14 1_555 1_555
C33_14 C35_16 1_555 1_555
C45_21 C54_14 1_555 1_555
C50_16 C53_14 1_555 1_555
C52_14 C60_16 1_555 1_555
C73_14 C76_16 1_555 1_555
C82_14 C83_21 1_555 1_555
O12_6 C1_22 1_555 1_555
C1_22 C2_22 1_555 1_555
C2_22 C3_15 1_555 1_555
C3_15 H1_15 1_555 1_555
C4_15 C3_15 1_555 1_555
C5_22 C4_15 1_555 1_555
H2_15 C4_15 1_555 1_555
C6_22 C5_22 1_555 1_555
C7_15 C6_22 1_555 1_555
H3_15 C7_15 1_555 1_555
C8_15 C7_15 1_555 1_555
C9_22 C8_15 1_555 1_555
C10_22 C9_22 1_555 1_555
O18_6 C1_22 1_555 1_555
C11_15 C2_22 1_555 1_555
H4_15 C11_15 1_555 1_555
C12_15 C5_22 1_555 1_555
H5_15 C12_15 1_555 1_555
C13_15 C6_22 1_555 1_555
H6_15 C13_15 1_555 1_555
C14_15 C9_22 1_555 1_555
C15_15 C8_15 1_555 1_555
C16_15 C14_15 1_555 1_555
C17_17 C15_15 1_555 1_555
C18_15 C15_15 1_555 1_555
C19_17 C16_15 1_555 1_555
C20_15 C16_15 1_555 1_555
C21_17 C10_22 1_555 1_555
C22_17 C10_22 1_555 1_555
C23_15 C17_17 1_555 1_555
C24_17 C18_15 1_555 1_555
H7_15 C18_15 1_555 1_555
C25_15 C19_17 1_555 1_555
C26_17 C20_15 1_555 1_555
H8_15 C20_15 1_555 1_555
C27_17 C21_17 1_555 1_555
C28_17 C22_17 1_555 1_555
C29_15 C23_15 1_555 1_555
C30_15 C23_15 1_555 1_555
C31_17 C24_17 1_555 1_555
C32_15 C25_15 1_555 1_555
C33_15 C25_15 1_555 1_555
C34_17 C26_17 1_555 1_555
C35_17 C27_17 1_555 1_555
C36_22 C27_17 1_555 1_555
C37_17 C28_17 1_555 1_555
H9_15 C29_15 1_555 1_555
C38_15 C30_15 1_555 1_555
C39_15 C31_17 1_555 1_555
C40_15 C31_17 1_555 1_555
H10_15 C32_15 1_555 1_555
C41_15 C33_15 1_555 1_555
C42_15 C34_17 1_555 1_555
C43_15 C34_17 1_555 1_555
C44_15 C35_17 1_555 1_555
C45_22 C36_22 1_555 1_555
C46_15 C37_17 1_555 1_555
C47_17 C38_15 1_555 1_555
H11_15 C38_15 1_555 1_555
C48_15 C39_15 1_555 1_555
H12_15 C39_15 1_555 1_555
C49_15 C40_15 1_555 1_555
H13_15 C40_15 1_555 1_555
C50_17 C41_15 1_555 1_555
H14_15 C41_15 1_555 1_555
C51_15 C42_15 1_555 1_555
H15_15 C42_15 1_555 1_555
C52_15 C43_15 1_555 1_555
H16_15 C43_15 1_555 1_555
C53_15 C44_15 1_555 1_555
C54_15 C44_15 1_555 1_555
C55_15 C45_22 1_555 1_555
C56_15 C46_15 1_555 1_555
C57_17 C47_17 1_555 1_555
C58_17 C48_15 1_555 1_555
H17_15 C48_15 1_555 1_555
H18_15 C49_15 1_555 1_555
C59_17 C50_17 1_555 1_555
C60_17 C51_15 1_555 1_555
H19_15 C51_15 1_555 1_555
H20_15 C52_15 1_555 1_555
H21_15 C53_15 1_555 1_555
C61_15 C54_15 1_555 1_555
C62_15 C55_15 1_555 1_555
H22_15 C56_15 1_555 1_555
C63_15 C57_17 1_555 1_555
C64_15 C57_17 1_555 1_555
C65_17 C58_17 1_555 1_555
C66_15 C59_17 1_555 1_555
C67_15 C59_17 1_555 1_555
C68_17 C60_17 1_555 1_555
C69_22 C61_15 1_555 1_555
H23_15 C61_15 1_555 1_555
H24_15 C62_15 1_555 1_555
C70_15 C63_15 1_555 1_555
H25_15 C63_15 1_555 1_555
C71_15 C64_15 1_555 1_555
H26_15 C64_15 1_555 1_555
O8_3 C65_17 1_555 1_555
O13_3 C65_17 1_555 1_555
C72_15 C66_15 1_555 1_555
H27_15 C66_15 1_555 1_555
C73_15 C67_15 1_555 1_555
H28_15 C67_15 1_555 1_555
O35_13 C68_17 1_555 1_555
O36_13 C68_17 1_555 1_555
C74_22 C69_22 1_555 1_555
C75_17 C70_15 1_555 1_555
H29_15 C70_15 1_555 1_555
H30_15 C71_15 1_555 1_555
C76_17 C72_15 1_555 1_555
H31_15 C72_15 1_555 1_555
H32_15 C73_15 1_555 1_555
Zr14_4 O35_13 1_555 1_555
Zr13_7 O36_13 1_555 1_555
C77_15 C74_22 1_555 1_555
C78_15 C74_22 1_555 1_555
C79_17 C75_17 1_555 1_555
C80_17 C76_17 1_555 1_555
C81_15 C77_15 1_555 1_555
H33_15 C77_15 1_555 1_555
C82_15 C78_15 1_555 1_555
H34_15 C78_15 1_555 1_555
O29_7 C79_17 1_555 1_555
O23_7 C79_17 1_555 1_555
O39_14 C80_17 1_555 1_555
O40_14 C80_17 1_555 1_555
C83_22 C81_15 1_555 1_555
H35_15 C81_15 1_555 1_555
H36_15 C82_15 1_555 1_555
Zr10_7 O39_14 1_555 1_555
Zr9_4 O40_14 1_555 1_555
C84_22 C83_22 1_555 1_555
O21_4 C84_22 1_555 1_555
O26_4 C84_22 1_555 1_555
C11_15 C12_15 1_555 1_555
C13_15 C14_15 1_555 1_555
C17_17 C22_17 1_555 1_555
C19_17 C21_17 1_555 1_555
C24_17 C29_15 1_555 1_555
C26_17 C32_15 1_555 1_555
C28_17 C36_22 1_555 1_555
C30_15 C37_17 1_555 1_555
C33_15 C35_17 1_555 1_555
C45_22 C54_15 1_555 1_555
C46_15 C55_15 1_555 1_555
C47_17 C56_15 1_555 1_555
C49_15 C58_17 1_555 1_555
C50_17 C53_15 1_555 1_555
C52_15 C60_17 1_555 1_555
C62_15 C69_22 1_555 1_555
C71_15 C75_17 1_555 1_555
C73_15 C76_17 1_555 1_555
C82_15 C83_22 1_555 1_555
O12 C1_23 1_555 1_555
C1_23 C2_23 1_555 1_555
C2_23 C3_16 1_555 1_555
C3_16 H1_16 1_555 1_555
C4_16 C3_16 1_555 1_555
C5_23 C4_16 1_555 1_555
H2_16 C4_16 1_555 1_555
C6_23 C5_23 1_555 1_555
C7_16 C6_23 1_555 1_555
H3_16 C7_16 1_555 1_555
C8_16 C7_16 1_555 1_555
C9_23 C8_16 1_555 1_555
C10_23 C9_23 1_555 1_555
C15_16 C8_16 1_555 1_555
C17_18 C15_16 1_555 1_555
C18_16 C15_16 1_555 1_555
C22_18 C10_23 1_555 1_555
C23_16 C17_18 1_555 1_555
C24_18 C18_16 1_555 1_555
H7_16 C18_16 1_555 1_555
C28_18 C22_18 1_555 1_555
C29_16 C23_16 1_555 1_555
C30_16 C23_16 1_555 1_555
C31_18 C24_18 1_555 1_555
C37_18 C28_18 1_555 1_555
H9_16 C29_16 1_555 1_555
C38_16 C30_16 1_555 1_555
C39_16 C31_18 1_555 1_555
C40_16 C31_18 1_555 1_555
C45_23 C36_23 1_555 1_555
C46_16 C37_18 1_555 1_555
C47_18 C38_16 1_555 1_555
H11_16 C38_16 1_555 1_555
C48_16 C39_16 1_555 1_555
H12_16 C39_16 1_555 1_555
C49_16 C40_16 1_555 1_555
H13_16 C40_16 1_555 1_555
C55_16 C45_23 1_555 1_555
C56_16 C46_16 1_555 1_555
C57_18 C47_18 1_555 1_555
C58_18 C48_16 1_555 1_555
H17_16 C48_16 1_555 1_555
H18_16 C49_16 1_555 1_555
C62_16 C55_16 1_555 1_555
H22_16 C56_16 1_555 1_555
C63_16 C57_18 1_555 1_555
C64_16 C57_18 1_555 1_555
C65_18 C58_18 1_555 1_555
H24_16 C62_16 1_555 1_555
C70_16 C63_16 1_555 1_555
H25_16 C63_16 1_555 1_555
C71_16 C64_16 1_555 1_555
H26_16 C64_16 1_555 1_555
O8_5 C65_18 1_555 1_555
O13_5 C65_18 1_555 1_555
C74_23 C69_23 1_555 1_555
C75_18 C70_16 1_555 1_555
H29_16 C70_16 1_555 1_555
H30_16 C71_16 1_555 1_555
C77_16 C74_23 1_555 1_555
C79_18 C75_18 1_555 1_555
C81_16 C77_16 1_555 1_555
H33_16 C77_16 1_555 1_555
O23_4 C79_18 1_555 1_555
O29_4 C79_18 1_555 1_555
C83_23 C81_16 1_555 1_555
H35_16 C81_16 1_555 1_555
C84_23 C83_23 1_555 1_555
O30_8 C84_23 1_555 1_555
C17_18 C22_18 1_555 1_555
C24_18 C29_16 1_555 1_555
C28_18 C36_23 1_555 1_555
C30_16 C37_18 1_555 1_555
C46_16 C55_16 1_555 1_555
C47_18 C56_16 1_555 1_555
C49_16 C58_18 1_555 1_555
C62_16 C69_23 1_555 1_555
C71_16 C75_18 1_555 1_555
C1_24 C2_24 1_555 1_555
C6_24 C5_24 1_555 1_555
C10_24 C9_24 1_555 1_555
O18 C1_24 1_555 1_555
C11_16 C2_24 1_555 1_555
H4_16 C11_16 1_555 1_555
C12_16 C5_24 1_555 1_555
H5_16 C12_16 1_555 1_555
C13_16 C6_24 1_555 1_555
H6_16 C13_16 1_555 1_555
C14_16 C9_24 1_555 1_555
C16_16 C14_16 1_555 1_555
C19_18 C16_16 1_555 1_555
C20_16 C16_16 1_555 1_555
C21_18 C10_24 1_555 1_555
C25_16 C19_18 1_555 1_555
C26_18 C20_16 1_555 1_555
H8_16 C20_16 1_555 1_555
C27_18 C21_18 1_555 1_555
C32_16 C25_16 1_555 1_555
C33_16 C25_16 1_555 1_555
C34_18 C26_18 1_555 1_555
C35_18 C27_18 1_555 1_555
C36_24 C27_18 1_555 1_555
H10_16 C32_16 1_555 1_555
C41_16 C33_16 1_555 1_555
C42_16 C34_18 1_555 1_555
C43_16 C34_18 1_555 1_555
C44_16 C35_18 1_555 1_555
C45_24 C36_24 1_555 1_555
C50_18 C41_16 1_555 1_555
H14_16 C41_16 1_555 1_555
C51_16 C42_16 1_555 1_555
H15_16 C42_16 1_555 1_555
C52_16 C43_16 1_555 1_555
H16_16 C43_16 1_555 1_555
C53_16 C44_16 1_555 1_555
C54_16 C44_16 1_555 1_555
C59_18 C50_18 1_555 1_555
C60_18 C51_16 1_555 1_555
H19_16 C51_16 1_555 1_555
H20_16 C52_16 1_555 1_555
H21_16 C53_16 1_555 1_555
C61_16 C54_16 1_555 1_555
C66_16 C59_18 1_555 1_555
C67_16 C59_18 1_555 1_555
C68_18 C60_18 1_555 1_555
C69_24 C61_16 1_555 1_555
H23_16 C61_16 1_555 1_555
C72_16 C66_16 1_555 1_555
H27_16 C66_16 1_555 1_555
C73_16 C67_16 1_555 1_555
H28_16 C67_16 1_555 1_555
O35_14 C68_18 1_555 1_555
O36_14 C68_18 1_555 1_555
C74_24 C69_24 1_555 1_555
C76_18 C72_16 1_555 1_555
H31_16 C72_16 1_555 1_555
H32_16 C73_16 1_555 1_555
Zr14_8 O35_14 1_555 1_555
Zr13_6 O36_14 1_555 1_555
C78_16 C74_24 1_555 1_555
C80_18 C76_18 1_555 1_555
C82_16 C78_16 1_555 1_555
H34_16 C78_16 1_555 1_555
O39_15 C80_18 1_555 1_555
O40_15 C80_18 1_555 1_555
H36_16 C82_16 1_555 1_555
Zr10_6 O39_15 1_555 1_555
Zr9_7 O40_15 1_555 1_555
C84_24 C83_24 1_555 1_555
O19_8 C84_24 1_555 1_555
C11_16 C12_16 1_555 1_555
C13_16 C14_16 1_555 1_555
C19_18 C21_18 1_555 1_555
C26_18 C32_16 1_555 1_555
C33_16 C35_18 1_555 1_555
C45_24 C54_16 1_555 1_555
C50_18 C53_16 1_555 1_555
C52_16 C60_18 1_555 1_555
C73_16 C76_18 1_555 1_555
C82_16 C83_24 1_555 1_555
O2_13 Zr10_6 1_555 1_555
O3_13 Zr10_6 1_555 1_555
O4_13 Zr10_6 1_555 1_555
O5_13 Zr10_6 1_555 1_555
O6_13 Zr10_6 1_555 1_555
O7_13 Zr10_6 1_555 1_555
Zr14_5 O2_13 1_555 1_555
Zr10_5 O2_13 1_555 1_555
Zr13_4 O3_13 1_555 1_555
Zr9_7 O5_13 1_555 1_555
O10_13 Zr14_5 1_555 1_555
O11_13 Zr14_5 1_555 1_555
O14_13 Zr14_5 1_555 1_555
O15_13 Zr14_5 1_555 1_555
O16_13 Zr10_5 1_555 1_555
O17_13 Zr10_5 1_555 1_555
O20_13 Zr10_5 1_555 1_555
O22_13 Zr13_4 1_555 1_555
O24_13 Zr13_4 1_555 1_555
O25_13 Zr13_4 1_555 1_555
O27_13 Zr9_7 1_555 1_555
O28_13 Zr9_7 1_555 1_555
Zr14_3 O14_13 1_555 1_555
O31_13 Zr14_3 1_555 1_555
O32_13 Zr14_3 1_555 1_555
O3_13 Zr10_5 1_555 1_555
O5_13 Zr14_5 1_555 1_555
O6_13 Zr13_4 1_555 1_555
O6_13 Zr9_7 1_555 1_555
Zr10_5 O14_13 1_555 1_555
Zr13_4 O20_13 1_555 1_555
Zr9_7 O15_13 1_555 1_555
Zr9_7 O22_13 1_555 1_555
O15_13 Zr14_3 1_555 1_555
O20_13 Zr14_3 1_555 1_555
O22_13 Zr14_3 1_555 1_555
O2_14 Zr13_6 1_555 1_555
O3_14 Zr13_6 1_555 1_555
O4_14 Zr13_6 1_555 1_555
O5_14 Zr13_6 1_555 1_555
O6_14 Zr13_6 1_555 1_555
O7_14 Zr13_6 1_555 1_555
Zr14_8 O2_14 1_555 1_555
Zr10_8 O2_14 1_555 1_555
Zr13_2 O3_14 1_555 1_555
Zr14_6 O5_14 1_555 1_555
O10_14 Zr14_8 1_555 1_555
O11_14 Zr14_8 1_555 1_555
O14_14 Zr14_8 1_555 1_555
O15_14 Zr14_8 1_555 1_555
O16_14 Zr10_8 1_555 1_555
O17_14 Zr10_8 1_555 1_555
O20_14 Zr10_8 1_555 1_555
O22_14 Zr13_2 1_555 1_555
O24_14 Zr13_2 1_555 1_555
O25_14 Zr13_2 1_555 1_555
O27_14 Zr14_6 1_555 1_555
O28_14 Zr14_6 1_555 1_555
Zr14_2 O14_14 1_555 1_555
O31_14 Zr14_2 1_555 1_555
O32_14 Zr14_2 1_555 1_555
O3_14 Zr10_8 1_555 1_555
O5_14 Zr14_8 1_555 1_555
O6_14 Zr13_2 1_555 1_555
O6_14 Zr14_6 1_555 1_555
Zr10_8 O14_14 1_555 1_555
Zr13_2 O20_14 1_555 1_555
Zr14_6 O15_14 1_555 1_555
Zr14_6 O22_14 1_555 1_555
O15_14 Zr14_2 1_555 1_555
O20_14 Zr14_2 1_555 1_555
O22_14 Zr14_2 1_555 1_555
O2_15 Zr14_4 1_555 1_555
O3_15 Zr14_4 1_555 1_555
O4_15 Zr14_4 1_555 1_555
O5_15 Zr14_4 1_555 1_555
O6_15 Zr14_4 1_555 1_555
O7_15 Zr14_4 1_555 1_555
Zr13_7 O2_15 1_555 1_555
Zr9_2 O2_15 1_555 1_555
Zr9_5 O3_15 1_555 1_555
Zr13_5 O5_15 1_555 1_555
O10_15 Zr13_7 1_555 1_555
O11_15 Zr13_7 1_555 1_555
O14_15 Zr13_7 1_555 1_555
O15_15 Zr13_7 1_555 1_555
O16_15 Zr9_2 1_555 1_555
O17_15 Zr9_2 1_555 1_555
O20_15 Zr9_2 1_555 1_555
O22_15 Zr9_5 1_555 1_555
O24_15 Zr9_5 1_555 1_555
O25_15 Zr9_5 1_555 1_555
O27_15 Zr13_5 1_555 1_555
O28_15 Zr13_5 1_555 1_555
Zr10_2 O14_15 1_555 1_555
O31_15 Zr10_2 1_555 1_555
O32_15 Zr10_2 1_555 1_555
O3_15 Zr9_2 1_555 1_555
O5_15 Zr13_7 1_555 1_555
O6_15 Zr9_5 1_555 1_555
O6_15 Zr13_5 1_555 1_555
Zr9_2 O14_15 1_555 1_555
Zr9_5 O20_15 1_555 1_555
Zr13_5 O15_15 1_555 1_555
Zr13_5 O22_15 1_555 1_555
O15_15 Zr10_2 1_555 1_555
O20_15 Zr10_2 1_555 1_555
O22_15 Zr10_2 1_555 1_555
O2_16 Zr9_6 1_555 1_555
O3_16 Zr9_6 1_555 1_555
O4_16 Zr9_6 1_555 1_555
O5_16 Zr9_6 1_555 1_555
O6_16 Zr9_6 1_555 1_555
O7_16 Zr9_6 1_555 1_555
Zr10_7 O2_16 1_555 1_555
Zr9_4 O2_16 1_555 1_555
Zr14_7 O3_16 1_555 1_555
Zr13_8 O5_16 1_555 1_555
O10_16 Zr10_7 1_555 1_555
O11_16 Zr10_7 1_555 1_555
O14_16 Zr10_7 1_555 1_555
O15_16 Zr10_7 1_555 1_555
O16_16 Zr9_4 1_555 1_555
O17_16 Zr9_4 1_555 1_555
O20_16 Zr9_4 1_555 1_555
O22_16 Zr14_7 1_555 1_555
O24_16 Zr14_7 1_555 1_555
O25_16 Zr14_7 1_555 1_555
O27_16 Zr13_8 1_555 1_555
O28_16 Zr13_8 1_555 1_555
Zr10_4 O14_16 1_555 1_555
O31_16 Zr10_4 1_555 1_555
O32_16 Zr10_4 1_555 1_555
O3_16 Zr9_4 1_555 1_555
O5_16 Zr10_7 1_555 1_555
O6_16 Zr14_7 1_555 1_555
O6_16 Zr13_8 1_555 1_555
Zr9_4 O14_16 1_555 1_555
Zr14_7 O20_16 1_555 1_555
Zr13_8 O15_16 1_555 1_555
Zr13_8 O22_16 1_555 1_555
O15_16 Zr10_4 1_555 1_555
O20_16 Zr10_4 1_555 1_555
O22_16 Zr10_4 1_555 1_555

#END
