
###############################################################################
#
# This file contains modified crystal structure data generated from the
# MOF subset of the Cambridge Structural Database (CSD) v543 
# hosted by the Cambridge Crystallographic Data Centre (CCDC).
#
# This work is licensed under the Creative Commons
# Attribution-NonCommercial-ShareAlike 4.0 International License.
# To view a copy of this license, visit
# http://creativecommons.org/licenses/by-nc-sa/4.0/
# or send a letter to
# Creative Commons, PO Box 1866, Mountain View, CA 94042, USA.
#
# CIF created using the CSD Python API on 29 September 2022
# The structure has been converted into the P1 space group
# The structure has a 3D framework
# The original CSD entry GIXGOK is in the cubic crystal system
# The framework has been calculated to contain at least 10.0% void space
# The void calculation uses a probe of radius 1.32A, grid spacing 0.4
#
###############################################################################

data_GIXGOK
_chemical_formula_moiety         '(C552 H312 Cd24 N192 O192)n'
_symmetry_cell_setting           triclinic
_symmetry_space_group_name_H-M   'P 1'
_symmetry_Int_Tables_number      1
_space_group_name_Hall           'P 1'
loop_
_symmetry_equiv_pos_site_id
_symmetry_equiv_pos_as_xyz
1 x,y,z
_cell_length_a                   30.1740(10)
_cell_length_b                   30.1740(10)
_cell_length_c                   30.1740(10)
_cell_angle_alpha                90
_cell_angle_beta                 90
_cell_angle_gamma                90
_cell_volume                     27472.5
loop_
_atom_site_label
_atom_site_type_symbol
_atom_site_fract_x
_atom_site_fract_y
_atom_site_fract_z
Cd1 Cd 0.10487(2) 0.2500 0.39513(2)
C1 C 0.0000 0.2290(4) 0.3825(4)
C2 C 0.0000 0.2755(4) 0.4031(3)
C3 C 0.0394(3) 0.3343(3) 0.4288(3)
H1 H 0.0663 0.3481 0.4350
C4 C 0.0000 0.3561(4) 0.4384(4)
H2 H 0.0000 0.3844 0.4508
C5 C 0.1636(3) 0.1636(3) 0.3760(3)
C6 C 0.1975(3) 0.1975(3) 0.3939(4)
C7 C 0.2118(3) 0.2680(3) 0.4148(3)
H3 H 0.2028 0.2971 0.4198
C8 C 0.2553(3) 0.2553(3) 0.4220(5)
H4 H 0.2761 0.2761 0.4316
N1 N 0.0393(2) 0.2934(2) 0.4106(2)
N2 N 0.1832(2) 0.2381(2) 0.4009(2)
O1 O 0.03698(16) 0.21146(16) 0.37510(17)
O2 O 0.12535(17) 0.17734(15) 0.36993(17)
Cd3 Cd 0.2500 0.10487(2) 0.39513(2)
C10 C 0.2680(3) 0.2118(3) 0.4148(3)
H6 H 0.2971 0.2028 0.4198
N3 N 0.0894(2) 0.2066(2) 0.4607(2)
N5 N 0.0991(2) 0.2619(2) 0.3168(2)
N6 N 0.2381(2) 0.1832(2) 0.4009(2)
O3 O 0.12490(17) 0.28854(16) 0.46302(16)
O5 O 0.13007(17) 0.32266(15) 0.37465(17)
O6 O 0.17734(15) 0.12535(17) 0.36993(17)
C1_2 C 1.0000 0.2290(4) 0.3825(4)
C2_2 C 1.0000 0.2755(4) 0.4031(3)
C4_2 C 1.0000 0.3561(4) 0.4384(4)
H2_2 H 1.0000 0.3844 0.4508
Cd2 Cd 0.89513(2) 0.2500 0.39513(2)
C9 C 0.9606(3) 0.3343(3) 0.4288(3)
H5 H 0.9337 0.3481 0.4350
N4 N 0.9607(2) 0.2934(2) 0.4106(2)
O4 O 0.96302(16) 0.21146(16) 0.37510(17)
Cd1_2 Cd 0.39513(2) 0.10487(2) 0.2500
C1_3 C 0.3825(4) 0.0000 0.2290(4)
C2_3 C 0.4031(3) 0.0000 0.2755(4)
C3_2 C 0.4288(3) 0.0394(3) 0.3343(3)
H1_2 H 0.4350 0.0663 0.3481
C4_3 C 0.4384(4) 0.0000 0.3561(4)
H2_3 H 0.4508 0.0000 0.3844
C5_2 C 0.3760(3) 0.1636(3) 0.1636(3)
C6_2 C 0.3939(4) 0.1975(3) 0.1975(3)
C7_2 C 0.4148(3) 0.2118(3) 0.2680(3)
H3_2 H 0.4198 0.2028 0.2971
C8_2 C 0.4220(5) 0.2553(3) 0.2553(3)
H4_2 H 0.4316 0.2761 0.2761
N1_2 N 0.4106(2) 0.0393(2) 0.2934(2)
N2_2 N 0.4009(2) 0.1832(2) 0.2381(2)
O1_2 O 0.37510(17) 0.03698(16) 0.21146(16)
O2_2 O 0.36993(17) 0.12535(17) 0.17734(15)
Cd3_2 Cd 0.39513(2) 0.2500 0.10487(2)
C10_2 C 0.4148(3) 0.2680(3) 0.2118(3)
H6_2 H 0.4198 0.2971 0.2028
N3_2 N 0.4607(2) 0.0894(2) 0.2066(2)
N5_2 N 0.3168(2) 0.0991(2) 0.2619(2)
N6_2 N 0.4009(2) 0.2381(2) 0.1832(2)
O3_2 O 0.46302(16) 0.12490(17) 0.28854(16)
O5_2 O 0.37465(17) 0.13007(17) 0.32266(15)
O6_2 O 0.36993(17) 0.17734(15) 0.12535(17)
C1_4 C 0.3825(4) 1.0000 0.2290(4)
C2_4 C 0.4031(3) 1.0000 0.2755(4)
C4_4 C 0.4384(4) 1.0000 0.3561(4)
H2_4 H 0.4508 1.0000 0.3844
Cd2_2 Cd 0.39513(2) 0.89513(2) 0.2500
C9_2 C 0.4288(3) 0.9606(3) 0.3343(3)
H5_2 H 0.4350 0.9337 0.3481
N4_2 N 0.4106(2) 0.9607(2) 0.2934(2)
O4_2 O 0.37510(17) 0.96302(16) 0.21146(16)
Cd1_3 Cd 0.2500 0.39513(2) 0.10487(2)
C1_5 C 0.2290(4) 0.3825(4) 0.0000
C2_5 C 0.2755(4) 0.4031(3) 0.0000
C3_3 C 0.3343(3) 0.4288(3) 0.0394(3)
H1_3 H 0.3481 0.4350 0.0663
C4_5 C 0.3561(4) 0.4384(4) 0.0000
H2_5 H 0.3844 0.4508 0.0000
C5_3 C 0.1636(3) 0.3760(3) 0.1636(3)
C6_3 C 0.1975(3) 0.3939(4) 0.1975(3)
C7_3 C 0.2680(3) 0.4148(3) 0.2118(3)
H3_3 H 0.2971 0.4198 0.2028
C8_3 C 0.2553(3) 0.4220(5) 0.2553(3)
H4_3 H 0.2761 0.4316 0.2761
N1_3 N 0.2934(2) 0.4106(2) 0.0393(2)
N2_3 N 0.2381(2) 0.4009(2) 0.1832(2)
O1_3 O 0.21146(16) 0.37510(17) 0.03698(16)
O2_3 O 0.17734(15) 0.36993(17) 0.12535(17)
Cd3_3 Cd 0.10487(2) 0.39513(2) 0.2500
C10_3 C 0.2118(3) 0.4148(3) 0.2680(3)
H6_3 H 0.2028 0.4198 0.2971
N3_3 N 0.2066(2) 0.4607(2) 0.0894(2)
N5_3 N 0.2619(2) 0.3168(2) 0.0991(2)
N6_3 N 0.1832(2) 0.4009(2) 0.2381(2)
O3_3 O 0.28854(16) 0.46302(16) 0.12490(17)
O5_3 O 0.32266(15) 0.37465(17) 0.13007(17)
O6_3 O 0.12535(17) 0.36993(17) 0.17734(15)
C1_6 C 0.2290(4) 0.3825(4) 1.0000
C2_6 C 0.2755(4) 0.4031(3) 1.0000
C4_6 C 0.3561(4) 0.4384(4) 1.0000
H2_6 H 0.3844 0.4508 1.0000
Cd2_3 Cd 0.2500 0.39513(2) 0.89513(2)
C9_3 C 0.3343(3) 0.4288(3) 0.9606(3)
H5_3 H 0.3481 0.4350 0.9337
N4_3 N 0.2934(2) 0.4106(2) 0.9607(2)
O4_3 O 0.21146(16) 0.37510(17) 0.96302(16)
Cd1_4 Cd 0.2500 0.10487(2) 0.60487(2)
C1_7 C 0.2290(4) -0.0000 0.6175(4)
C2_7 C 0.2755(4) 0.0000 0.5969(3)
C3_4 C 0.3343(3) 0.0394(3) 0.5712(3)
H1_4 H 0.3481 0.0663 0.5650
C4_7 C 0.3561(4) 0.0000 0.5616(4)
H2_7 H 0.3844 -0.0000 0.5492
C5_4 C 0.1636(3) 0.1636(3) 0.6240(3)
C6_4 C 0.1975(3) 0.1975(3) 0.6061(4)
C7_4 C 0.2680(3) 0.2118(3) 0.5852(3)
H3_4 H 0.2971 0.2028 0.5802
C8_4 C 0.2553(3) 0.2553(3) 0.5780(5)
H4_4 H 0.2761 0.2761 0.5684
N1_4 N 0.2934(2) 0.0393(2) 0.5894(2)
N2_4 N 0.2381(2) 0.1832(2) 0.5991(2)
O1_4 O 0.21146(16) 0.03698(16) 0.62490(17)
O2_4 O 0.17734(15) 0.12535(17) 0.63007(17)
Cd3_4 Cd 0.10487(2) 0.2500 0.60487(2)
C10_4 C 0.2118(3) 0.2680(3) 0.5852(3)
H6_4 H 0.2028 0.2971 0.5802
N3_4 N 0.2066(2) 0.0894(2) 0.5393(2)
N5_4 N 0.2619(2) 0.0991(2) 0.6832(2)
N6_4 N 0.1832(2) 0.2381(2) 0.5991(2)
O3_4 O 0.28854(16) 0.12490(17) 0.53698(16)
O5_4 O 0.32266(15) 0.13007(17) 0.62535(17)
O6_4 O 0.12535(17) 0.17734(15) 0.63007(17)
C1_8 C 0.2290(4) 1.0000 0.6175(4)
C2_8 C 0.2755(4) 1.0000 0.5969(3)
C4_8 C 0.3561(4) 1.0000 0.5616(4)
H2_8 H 0.3844 1.0000 0.5492
Cd2_4 Cd 0.2500 0.89513(2) 0.60487(2)
C9_4 C 0.3343(3) 0.9606(3) 0.5712(3)
H5_4 H 0.3481 0.9337 0.5650
N4_4 N 0.2934(2) 0.9607(2) 0.5894(2)
O4_4 O 0.21146(16) 0.96302(16) 0.62490(17)
C1_9 C 0.2290(4) 0.0000 0.3825(4)
C2_9 C 0.2755(4) -0.0000 0.4031(3)
C4_9 C 0.3561(4) -0.0000 0.4384(4)
H2_9 H 0.3844 -0.0000 0.4508
C9_5 C 0.3343(3) 0.0394(3) 0.4288(3)
H5_5 H 0.3481 0.0663 0.4350
N4_5 N 0.2934(2) 0.0393(2) 0.4106(2)
O4_5 O 0.21146(16) 0.03698(16) 0.37510(17)
Cd1_5 Cd 0.2500 0.89513(2) 0.39513(2)
C1_10 C 0.2290(4) 1.0000 0.3825(4)
C2_10 C 0.2755(4) 1.0000 0.4031(3)
C3_5 C 0.3343(3) 0.9606(3) 0.4288(3)
H1_5 H 0.3481 0.9337 0.4350
C4_10 C 0.3561(4) 1.0000 0.4384(4)
H2_10 H 0.3844 1.0000 0.4508
C5_5 C 0.1636(3) 0.8364(3) 0.3760(3)
C6_5 C 0.1975(3) 0.8025(3) 0.3939(4)
C7_5 C 0.2680(3) 0.7882(3) 0.4148(3)
H3_5 H 0.2971 0.7972 0.4198
C8_5 C 0.2553(3) 0.7447(3) 0.4220(5)
H4_5 H 0.2761 0.7239 0.4316
N1_5 N 0.2934(2) 0.9607(2) 0.4106(2)
N2_5 N 0.2381(2) 0.8168(2) 0.4009(2)
O1_5 O 0.21146(16) 0.96302(16) 0.37510(17)
O2_5 O 0.17734(15) 0.87465(17) 0.36993(17)
Cd3_5 Cd 0.10487(2) 0.7500 0.39513(2)
C10_5 C 0.2118(3) 0.7320(3) 0.4148(3)
H6_5 H 0.2028 0.7029 0.4198
N3_5 N 0.2066(2) 0.9106(2) 0.4607(2)
N5_5 N 0.2619(2) 0.9009(2) 0.3168(2)
N6_5 N 0.1832(2) 0.7619(2) 0.4009(2)
O3_5 O 0.28854(16) 0.87510(17) 0.46302(16)
O5_5 O 0.32266(15) 0.86993(17) 0.37465(17)
O6_5 O 0.12535(17) 0.82266(15) 0.36993(17)
Cd1_6 Cd 0.7500 0.10487(2) 0.39513(2)
C1_11 C 0.7710(4) 0.0000 0.3825(4)
C2_11 C 0.7245(4) 0.0000 0.4031(3)
C3_6 C 0.6657(3) 0.0394(3) 0.4288(3)
H1_6 H 0.6519 0.0663 0.4350
C4_11 C 0.6439(4) 0.0000 0.4384(4)
H2_11 H 0.6156 0.0000 0.4508
C5_6 C 0.8364(3) 0.1636(3) 0.3760(3)
C6_6 C 0.8025(3) 0.1975(3) 0.3939(4)
C7_6 C 0.7320(3) 0.2118(3) 0.4148(3)
H3_6 H 0.7029 0.2028 0.4198
C8_6 C 0.7447(3) 0.2553(3) 0.4220(5)
H4_6 H 0.7239 0.2761 0.4316
N1_6 N 0.7066(2) 0.0393(2) 0.4106(2)
N2_6 N 0.7619(2) 0.1832(2) 0.4009(2)
O1_6 O 0.78854(16) 0.03698(16) 0.37510(17)
O2_6 O 0.82266(15) 0.12535(17) 0.36993(17)
C10_6 C 0.7882(3) 0.2680(3) 0.4148(3)
H6_6 H 0.7972 0.2971 0.4198
N3_6 N 0.7934(2) 0.0894(2) 0.4607(2)
N5_6 N 0.7381(2) 0.0991(2) 0.3168(2)
N6_6 N 0.8168(2) 0.2381(2) 0.4009(2)
O3_6 O 0.71146(16) 0.12490(17) 0.46302(16)
O5_6 O 0.67734(15) 0.13007(17) 0.37465(17)
O6_6 O 0.87465(17) 0.17734(15) 0.36993(17)
C1_12 C 0.7710(4) 1.0000 0.3825(4)
C2_12 C 0.7245(4) 1.0000 0.4031(3)
C4_12 C 0.6439(4) 1.0000 0.4384(4)
H2_12 H 0.6156 1.0000 0.4508
Cd2_5 Cd 0.7500 0.89513(2) 0.39513(2)
C9_6 C 0.6657(3) 0.9606(3) 0.4288(3)
H5_6 H 0.6519 0.9337 0.4350
N4_6 N 0.7066(2) 0.9607(2) 0.4106(2)
O4_6 O 0.78854(16) 0.96302(16) 0.37510(17)
Cd1_7 Cd 0.10487(2) 0.39513(2) 0.7500
C1_13 C 0.0000 0.3825(4) 0.7710(4)
C2_13 C -0.0000 0.4031(3) 0.7245(4)
C3_7 C 0.0394(3) 0.4288(3) 0.6657(3)
H1_7 H 0.0663 0.4350 0.6519
C4_13 C 0.0000 0.4384(4) 0.6439(4)
H2_13 H 0.0000 0.4508 0.6156
C5_7 C 0.1636(3) 0.3760(3) 0.8364(3)
C6_7 C 0.1975(3) 0.3939(4) 0.8025(3)
C7_7 C 0.2118(3) 0.4148(3) 0.7320(3)
H3_7 H 0.2028 0.4198 0.7029
C8_7 C 0.2553(3) 0.4220(5) 0.7447(3)
H4_7 H 0.2761 0.4316 0.7239
N1_7 N 0.0393(2) 0.4106(2) 0.7066(2)
N2_7 N 0.1832(2) 0.4009(2) 0.7619(2)
O1_7 O 0.03698(16) 0.37510(17) 0.78854(16)
O2_7 O 0.12535(17) 0.36993(17) 0.82266(15)
C10_7 C 0.2680(3) 0.4148(3) 0.7882(3)
H6_7 H 0.2971 0.4198 0.7972
N3_7 N 0.0894(2) 0.4607(2) 0.7934(2)
N5_7 N 0.0991(2) 0.3168(2) 0.7381(2)
N6_7 N 0.2381(2) 0.4009(2) 0.8168(2)
O3_7 O 0.12490(17) 0.46302(16) 0.71146(16)
O5_7 O 0.13007(17) 0.37465(17) 0.67734(15)
O6_7 O 0.17734(15) 0.36993(17) 0.87465(17)
C1_14 C 1.0000 0.3825(4) 0.7710(4)
C2_14 C 1.0000 0.4031(3) 0.7245(4)
C4_14 C 1.0000 0.4384(4) 0.6439(4)
H2_14 H 1.0000 0.4508 0.6156
Cd2_6 Cd 0.89513(2) 0.39513(2) 0.7500
C9_7 C 0.9606(3) 0.4288(3) 0.6657(3)
H5_7 H 0.9337 0.4350 0.6519
N4_7 N 0.9607(2) 0.4106(2) 0.7066(2)
O4_7 O 0.96302(16) 0.37510(17) 0.78854(16)
C1_15 C -0.0000 0.3825(4) 0.2290(4)
C2_15 C -0.0000 0.4031(3) 0.2755(4)
C4_15 C -0.0000 0.4384(4) 0.3561(4)
H2_15 H 0.0000 0.4508 0.3844
C9_8 C 0.0394(3) 0.4288(3) 0.3343(3)
H5_8 H 0.0663 0.4350 0.3481
N4_8 N 0.0393(2) 0.4106(2) 0.2934(2)
O4_8 O 0.03698(16) 0.37510(17) 0.21146(16)
Cd1_8 Cd 0.89513(2) 0.39513(2) 0.2500
C1_16 C 1.0000 0.3825(4) 0.2290(4)
C2_16 C 1.0000 0.4031(3) 0.2755(4)
C3_8 C 0.9606(3) 0.4288(3) 0.3343(3)
H1_8 H 0.9337 0.4350 0.3481
C4_16 C 1.0000 0.4384(4) 0.3561(4)
H2_16 H 1.0000 0.4508 0.3844
C5_8 C 0.8364(3) 0.3760(3) 0.1636(3)
C6_8 C 0.8025(3) 0.3939(4) 0.1975(3)
C7_8 C 0.7882(3) 0.4148(3) 0.2680(3)
H3_8 H 0.7972 0.4198 0.2971
C8_8 C 0.7447(3) 0.4220(5) 0.2553(3)
H4_8 H 0.7239 0.4316 0.2761
N1_8 N 0.9607(2) 0.4106(2) 0.2934(2)
N2_8 N 0.8168(2) 0.4009(2) 0.2381(2)
O1_8 O 0.96302(16) 0.37510(17) 0.21146(16)
O2_8 O 0.87465(17) 0.36993(17) 0.17734(15)
Cd3_6 Cd 0.7500 0.39513(2) 0.10487(2)
C10_8 C 0.7320(3) 0.4148(3) 0.2118(3)
H6_8 H 0.7029 0.4198 0.2028
N3_8 N 0.9106(2) 0.4607(2) 0.2066(2)
N5_8 N 0.9009(2) 0.3168(2) 0.2619(2)
N6_8 N 0.7619(2) 0.4009(2) 0.1832(2)
O3_8 O 0.87510(17) 0.46302(16) 0.28854(16)
O5_8 O 0.86993(17) 0.37465(17) 0.32266(15)
O6_8 O 0.82266(15) 0.36993(17) 0.12535(17)
Cd1_9 Cd 0.10487(2) 0.60487(2) 0.2500
C1_17 C -0.0000 0.6175(4) 0.2290(4)
C2_17 C 0.0000 0.5969(3) 0.2755(4)
C3_9 C 0.0394(3) 0.5712(3) 0.3343(3)
H1_9 H 0.0663 0.5650 0.3481
C4_17 C -0.0000 0.5616(4) 0.3561(4)
H2_17 H 0.0000 0.5492 0.3844
C5_9 C 0.1636(3) 0.6240(3) 0.1636(3)
C6_9 C 0.1975(3) 0.6061(4) 0.1975(3)
C7_9 C 0.2118(3) 0.5852(3) 0.2680(3)
H3_9 H 0.2028 0.5802 0.2971
C8_9 C 0.2553(3) 0.5780(5) 0.2553(3)
H4_9 H 0.2761 0.5684 0.2761
N1_9 N 0.0393(2) 0.5894(2) 0.2934(2)
N2_9 N 0.1832(2) 0.5991(2) 0.2381(2)
O1_9 O 0.03698(16) 0.62490(17) 0.21146(16)
O2_9 O 0.12535(17) 0.63007(17) 0.17734(15)
Cd3_7 Cd 0.2500 0.60487(2) 0.10487(2)
C10_9 C 0.2680(3) 0.5852(3) 0.2118(3)
H6_9 H 0.2971 0.5802 0.2028
N3_9 N 0.0894(2) 0.5393(2) 0.2066(2)
N5_9 N 0.0991(2) 0.6832(2) 0.2619(2)
N6_9 N 0.2381(2) 0.5991(2) 0.1832(2)
O3_9 O 0.12490(17) 0.53698(16) 0.28854(16)
O5_9 O 0.13007(17) 0.62535(17) 0.32266(15)
O6_9 O 0.17734(15) 0.63007(17) 0.12535(17)
C1_18 C 1.0000 0.6175(4) 0.2290(4)
C2_18 C 1.0000 0.5969(3) 0.2755(4)
C4_18 C 1.0000 0.5616(4) 0.3561(4)
H2_18 H 1.0000 0.5492 0.3844
Cd2_7 Cd 0.89513(2) 0.60487(2) 0.2500
C9_9 C 0.9606(3) 0.5712(3) 0.3343(3)
H5_9 H 0.9337 0.5650 0.3481
N4_9 N 0.9607(2) 0.5894(2) 0.2934(2)
O4_9 O 0.96302(16) 0.62490(17) 0.21146(16)
C1_19 C 0.3825(4) 0.2290(4) -0.0000
C2_19 C 0.4031(3) 0.2755(4) -0.0000
C4_19 C 0.4384(4) 0.3561(4) -0.0000
H2_19 H 0.4508 0.3844 -0.0000
C9_10 C 0.4288(3) 0.3343(3) 0.0394(3)
H5_10 H 0.4350 0.3481 0.0663
N4_10 N 0.4106(2) 0.2934(2) 0.0393(2)
O4_10 O 0.37510(17) 0.21146(16) 0.03698(16)
Cd1_10 Cd 0.39513(2) 0.2500 0.89513(2)
C1_20 C 0.3825(4) 0.2290(4) 1.0000
C2_20 C 0.4031(3) 0.2755(4) 1.0000
C3_10 C 0.4288(3) 0.3343(3) 0.9606(3)
H1_10 H 0.4350 0.3481 0.9337
C4_20 C 0.4384(4) 0.3561(4) 1.0000
H2_20 H 0.4508 0.3844 1.0000
C5_10 C 0.3760(3) 0.1636(3) 0.8364(3)
C6_10 C 0.3939(4) 0.1975(3) 0.8025(3)
C7_10 C 0.4148(3) 0.2680(3) 0.7882(3)
H3_10 H 0.4198 0.2971 0.7972
C8_10 C 0.4220(5) 0.2553(3) 0.7447(3)
H4_10 H 0.4316 0.2761 0.7239
N1_10 N 0.4106(2) 0.2934(2) 0.9607(2)
N2_10 N 0.4009(2) 0.2381(2) 0.8168(2)
O1_10 O 0.37510(17) 0.21146(16) 0.96302(16)
O2_10 O 0.36993(17) 0.17734(15) 0.87465(17)
Cd3_8 Cd 0.39513(2) 0.10487(2) 0.7500
C10_10 C 0.4148(3) 0.2118(3) 0.7320(3)
H6_10 H 0.4198 0.2028 0.7029
N3_10 N 0.4607(2) 0.2066(2) 0.9106(2)
N5_10 N 0.3168(2) 0.2619(2) 0.9009(2)
N6_10 N 0.4009(2) 0.1832(2) 0.7619(2)
O3_10 O 0.46302(16) 0.28854(16) 0.87510(17)
O5_10 O 0.37465(17) 0.32266(15) 0.86993(17)
O6_10 O 0.36993(17) 0.12535(17) 0.82266(15)
Cd1_11 Cd 0.39513(2) 0.7500 0.10487(2)
C1_21 C 0.3825(4) 0.7710(4) 0.0000
C2_21 C 0.4031(3) 0.7245(4) 0.0000
C3_11 C 0.4288(3) 0.6657(3) 0.0394(3)
H1_11 H 0.4350 0.6519 0.0663
C4_21 C 0.4384(4) 0.6439(4) 0.0000
H2_21 H 0.4508 0.6156 0.0000
C5_11 C 0.3760(3) 0.8364(3) 0.1636(3)
C6_11 C 0.3939(4) 0.8025(3) 0.1975(3)
C7_11 C 0.4148(3) 0.7320(3) 0.2118(3)
H3_11 H 0.4198 0.7029 0.2028
C8_11 C 0.4220(5) 0.7447(3) 0.2553(3)
H4_11 H 0.4316 0.7239 0.2761
N1_11 N 0.4106(2) 0.7066(2) 0.0393(2)
N2_11 N 0.4009(2) 0.7619(2) 0.1832(2)
O1_11 O 0.37510(17) 0.78854(16) 0.03698(16)
O2_11 O 0.36993(17) 0.82266(15) 0.12535(17)
C10_11 C 0.4148(3) 0.7882(3) 0.2680(3)
H6_11 H 0.4198 0.7972 0.2971
N3_11 N 0.4607(2) 0.7934(2) 0.0894(2)
N5_11 N 0.3168(2) 0.7381(2) 0.0991(2)
N6_11 N 0.4009(2) 0.8168(2) 0.2381(2)
O3_11 O 0.46302(16) 0.71146(16) 0.12490(17)
O5_11 O 0.37465(17) 0.67734(15) 0.13007(17)
O6_11 O 0.36993(17) 0.87465(17) 0.17734(15)
C1_22 C 0.3825(4) 0.7710(4) 1.0000
C2_22 C 0.4031(3) 0.7245(4) 1.0000
C4_22 C 0.4384(4) 0.6439(4) 1.0000
H2_22 H 0.4508 0.6156 1.0000
Cd2_8 Cd 0.39513(2) 0.7500 0.89513(2)
C9_11 C 0.4288(3) 0.6657(3) 0.9606(3)
H5_11 H 0.4350 0.6519 0.9337
N4_11 N 0.4106(2) 0.7066(2) 0.9607(2)
O4_11 O 0.37510(17) 0.78854(16) 0.96302(16)
Cd1_12 Cd 0.60487(2) 0.2500 0.10487(2)
C1_23 C 0.6175(4) 0.2290(4) 0.0000
C2_23 C 0.5969(3) 0.2755(4) 0.0000
C3_12 C 0.5712(3) 0.3343(3) 0.0394(3)
H1_12 H 0.5650 0.3481 0.0663
C4_23 C 0.5616(4) 0.3561(4) 0.0000
H2_23 H 0.5492 0.3844 0.0000
C5_12 C 0.6240(3) 0.1636(3) 0.1636(3)
C6_12 C 0.6061(4) 0.1975(3) 0.1975(3)
C7_12 C 0.5852(3) 0.2680(3) 0.2118(3)
H3_12 H 0.5802 0.2971 0.2028
C8_12 C 0.5780(5) 0.2553(3) 0.2553(3)
H4_12 H 0.5684 0.2761 0.2761
N1_12 N 0.5894(2) 0.2934(2) 0.0393(2)
N2_12 N 0.5991(2) 0.2381(2) 0.1832(2)
O1_12 O 0.62490(17) 0.21146(16) 0.03698(16)
O2_12 O 0.63007(17) 0.17734(15) 0.12535(17)
Cd3_9 Cd 0.60487(2) 0.10487(2) 0.2500
C10_12 C 0.5852(3) 0.2118(3) 0.2680(3)
H6_12 H 0.5802 0.2028 0.2971
N3_12 N 0.5393(2) 0.2066(2) 0.0894(2)
N5_12 N 0.6832(2) 0.2619(2) 0.0991(2)
N6_12 N 0.5991(2) 0.1832(2) 0.2381(2)
O3_12 O 0.53698(16) 0.28854(16) 0.12490(17)
O5_12 O 0.62535(17) 0.32266(15) 0.13007(17)
O6_12 O 0.63007(17) 0.12535(17) 0.17734(15)
C1_24 C 0.6175(4) 0.2290(4) 1.0000
C2_24 C 0.5969(3) 0.2755(4) 1.0000
C4_24 C 0.5616(4) 0.3561(4) 1.0000
H2_24 H 0.5492 0.3844 1.0000
Cd2_9 Cd 0.60487(2) 0.2500 0.89513(2)
C9_12 C 0.5712(3) 0.3343(3) 0.9606(3)
H5_12 H 0.5650 0.3481 0.9337
N4_12 N 0.5894(2) 0.2934(2) 0.9607(2)
O4_12 O 0.62490(17) 0.21146(16) 0.96302(16)
Cd1_13 Cd 0.60487(2) 0.7500 0.89513(2)
C1_25 C 0.5000 0.7290(4) 0.8825(4)
C2_25 C 0.5000 0.7755(4) 0.9031(3)
C3_13 C 0.5394(3) 0.8343(3) 0.9288(3)
H1_13 H 0.5663 0.8481 0.9350
C4_25 C 0.5000 0.8561(4) 0.9384(4)
H2_25 H 0.5000 0.8844 0.9508
C5_13 C 0.6636(3) 0.6636(3) 0.8760(3)
C6_13 C 0.6975(3) 0.6975(3) 0.8939(4)
C7_13 C 0.7118(3) 0.7680(3) 0.9148(3)
H3_13 H 0.7028 0.7971 0.9198
C8_13 C 0.7553(3) 0.7553(3) 0.9220(5)
H4_13 H 0.7761 0.7761 0.9316
N1_13 N 0.5393(2) 0.7934(2) 0.9106(2)
N2_13 N 0.6832(2) 0.7381(2) 0.9009(2)
O1_13 O 0.53698(16) 0.71146(16) 0.87510(17)
O2_13 O 0.62535(17) 0.67734(15) 0.86993(17)
Cd3_10 Cd 0.7500 0.60487(2) 0.89513(2)
C9_13 C 0.4606(3) 0.8343(3) 0.9288(3)
H5_13 H 0.4337 0.8481 0.9350
C10_13 C 0.7680(3) 0.7118(3) 0.9148(3)
H6_13 H 0.7971 0.7028 0.9198
N3_13 N 0.5894(2) 0.7066(2) 0.9607(2)
N4_13 N 0.4607(2) 0.7934(2) 0.9106(2)
N5_13 N 0.5991(2) 0.7619(2) 0.8168(2)
N6_13 N 0.7381(2) 0.6832(2) 0.9009(2)
O3_13 O 0.62490(17) 0.78854(16) 0.96302(16)
O4_13 O 0.46302(16) 0.71146(16) 0.87510(17)
O5_13 O 0.63007(17) 0.82266(15) 0.87465(17)
O6_13 O 0.67734(15) 0.62535(17) 0.86993(17)
Cd1_14 Cd 0.89513(2) 0.60487(2) 0.7500
C1_26 C 0.8825(4) 0.5000 0.7290(4)
C2_26 C 0.9031(3) 0.5000 0.7755(4)
C3_14 C 0.9288(3) 0.5394(3) 0.8343(3)
H1_14 H 0.9350 0.5663 0.8481
C4_26 C 0.9384(4) 0.5000 0.8561(4)
H2_26 H 0.9508 0.5000 0.8844
C5_14 C 0.8760(3) 0.6636(3) 0.6636(3)
C6_14 C 0.8939(4) 0.6975(3) 0.6975(3)
C7_14 C 0.9148(3) 0.7118(3) 0.7680(3)
H3_14 H 0.9198 0.7028 0.7971
C8_14 C 0.9220(5) 0.7553(3) 0.7553(3)
H4_14 H 0.9316 0.7761 0.7761
N1_14 N 0.9106(2) 0.5393(2) 0.7934(2)
N2_14 N 0.9009(2) 0.6832(2) 0.7381(2)
O1_14 O 0.87510(17) 0.53698(16) 0.71146(16)
O2_14 O 0.86993(17) 0.62535(17) 0.67734(15)
Cd3_11 Cd 0.89513(2) 0.7500 0.60487(2)
C9_14 C 0.9288(3) 0.4606(3) 0.8343(3)
H5_14 H 0.9350 0.4337 0.8481
C10_14 C 0.9148(3) 0.7680(3) 0.7118(3)
H6_14 H 0.9198 0.7971 0.7028
N3_14 N 0.9607(2) 0.5894(2) 0.7066(2)
N4_14 N 0.9106(2) 0.4607(2) 0.7934(2)
N5_14 N 0.8168(2) 0.5991(2) 0.7619(2)
N6_14 N 0.9009(2) 0.7381(2) 0.6832(2)
O3_14 O 0.96302(16) 0.62490(17) 0.78854(16)
O4_14 O 0.87510(17) 0.46302(16) 0.71146(16)
O5_14 O 0.87465(17) 0.63007(17) 0.82266(15)
O6_14 O 0.86993(17) 0.67734(15) 0.62535(17)
Cd1_15 Cd 0.7500 0.89513(2) 0.60487(2)
C1_27 C 0.7290(4) 0.8825(4) 0.5000
C2_27 C 0.7755(4) 0.9031(3) 0.5000
C3_15 C 0.8343(3) 0.9288(3) 0.5394(3)
H1_15 H 0.8481 0.9350 0.5663
C4_27 C 0.8561(4) 0.9384(4) 0.5000
H2_27 H 0.8844 0.9508 0.5000
C5_15 C 0.6636(3) 0.8760(3) 0.6636(3)
C6_15 C 0.6975(3) 0.8939(4) 0.6975(3)
C7_15 C 0.7680(3) 0.9148(3) 0.7118(3)
H3_15 H 0.7971 0.9198 0.7028
C8_15 C 0.7553(3) 0.9220(5) 0.7553(3)
H4_15 H 0.7761 0.9316 0.7761
N1_15 N 0.7934(2) 0.9106(2) 0.5393(2)
N2_15 N 0.7381(2) 0.9009(2) 0.6832(2)
O1_15 O 0.71146(16) 0.87510(17) 0.53698(16)
O2_15 O 0.67734(15) 0.86993(17) 0.62535(17)
Cd3_12 Cd 0.60487(2) 0.89513(2) 0.7500
C9_15 C 0.8343(3) 0.9288(3) 0.4606(3)
H5_15 H 0.8481 0.9350 0.4337
C10_15 C 0.7118(3) 0.9148(3) 0.7680(3)
H6_15 H 0.7028 0.9198 0.7971
N3_15 N 0.7066(2) 0.9607(2) 0.5894(2)
N4_15 N 0.7934(2) 0.9106(2) 0.4607(2)
N5_15 N 0.7619(2) 0.8168(2) 0.5991(2)
N6_15 N 0.6832(2) 0.9009(2) 0.7381(2)
O3_15 O 0.78854(16) 0.96302(16) 0.62490(17)
O4_15 O 0.71146(16) 0.87510(17) 0.46302(16)
O5_15 O 0.82266(15) 0.87465(17) 0.63007(17)
O6_15 O 0.62535(17) 0.86993(17) 0.67734(15)
Cd1_16 Cd 0.7500 0.60487(2) 0.10487(2)
C1_28 C 0.7290(4) 0.5000 0.1175(4)
C2_28 C 0.7755(4) 0.5000 0.0969(3)
C3_16 C 0.8343(3) 0.5394(3) 0.0712(3)
H1_16 H 0.8481 0.5663 0.0650
C4_28 C 0.8561(4) 0.5000 0.0616(4)
H2_28 H 0.8844 0.5000 0.0492
C5_16 C 0.6636(3) 0.6636(3) 0.1240(3)
C6_16 C 0.6975(3) 0.6975(3) 0.1061(4)
C7_16 C 0.7680(3) 0.7118(3) 0.0852(3)
H3_16 H 0.7971 0.7028 0.0802
C8_16 C 0.7553(3) 0.7553(3) 0.0780(5)
H4_16 H 0.7761 0.7761 0.0684
N1_16 N 0.7934(2) 0.5393(2) 0.0894(2)
N2_16 N 0.7381(2) 0.6832(2) 0.0991(2)
O1_16 O 0.71146(16) 0.53698(16) 0.12490(17)
O2_16 O 0.67734(15) 0.62535(17) 0.13007(17)
Cd3_13 Cd 0.60487(2) 0.7500 0.10487(2)
C9_16 C 0.8343(3) 0.4606(3) 0.0712(3)
H5_16 H 0.8481 0.4337 0.0650
C10_16 C 0.7118(3) 0.7680(3) 0.0852(3)
H6_16 H 0.7028 0.7971 0.0802
N3_16 N 0.7066(2) 0.5894(2) 0.0393(2)
N4_16 N 0.7934(2) 0.4607(2) 0.0894(2)
N5_16 N 0.7619(2) 0.5991(2) 0.1832(2)
N6_16 N 0.6832(2) 0.7381(2) 0.0991(2)
O3_16 O 0.78854(16) 0.62490(17) 0.03698(16)
O4_16 O 0.71146(16) 0.46302(16) 0.12490(17)
O5_16 O 0.82266(15) 0.63007(17) 0.12535(17)
O6_16 O 0.62535(17) 0.67734(15) 0.13007(17)
Cd1_17 Cd 0.7500 0.39513(2) 0.89513(2)
C1_29 C 0.7290(4) 0.5000 0.8825(4)
C2_29 C 0.7755(4) 0.5000 0.9031(3)
C3_17 C 0.8343(3) 0.4606(3) 0.9288(3)
H1_17 H 0.8481 0.4337 0.9350
C4_29 C 0.8561(4) 0.5000 0.9384(4)
H2_29 H 0.8844 0.5000 0.9508
C5_17 C 0.6636(3) 0.3364(3) 0.8760(3)
C6_17 C 0.6975(3) 0.3025(3) 0.8939(4)
C7_17 C 0.7680(3) 0.2882(3) 0.9148(3)
H3_17 H 0.7971 0.2972 0.9198
C8_17 C 0.7553(3) 0.2447(3) 0.9220(5)
H4_17 H 0.7761 0.2239 0.9316
N1_17 N 0.7934(2) 0.4607(2) 0.9106(2)
N2_17 N 0.7381(2) 0.3168(2) 0.9009(2)
O1_17 O 0.71146(16) 0.46302(16) 0.87510(17)
O2_17 O 0.67734(15) 0.37465(17) 0.86993(17)
C9_17 C 0.8343(3) 0.5394(3) 0.9288(3)
H5_17 H 0.8481 0.5663 0.9350
C10_17 C 0.7118(3) 0.2320(3) 0.9148(3)
H6_17 H 0.7028 0.2029 0.9198
N3_17 N 0.7066(2) 0.4106(2) 0.9607(2)
N4_17 N 0.7934(2) 0.5393(2) 0.9106(2)
N5_17 N 0.7619(2) 0.4009(2) 0.8168(2)
N6_17 N 0.6832(2) 0.2619(2) 0.9009(2)
O3_17 O 0.78854(16) 0.37510(17) 0.96302(16)
O4_17 O 0.71146(16) 0.53698(16) 0.87510(17)
O5_17 O 0.82266(15) 0.36993(17) 0.87465(17)
O6_17 O 0.62535(17) 0.32266(15) 0.86993(17)
Cd1_18 Cd 0.2500 0.60487(2) 0.89513(2)
C1_30 C 0.2710(4) 0.5000 0.8825(4)
C2_30 C 0.2245(4) 0.5000 0.9031(3)
C3_18 C 0.1657(3) 0.5394(3) 0.9288(3)
H1_18 H 0.1519 0.5663 0.9350
C4_30 C 0.1439(4) 0.5000 0.9384(4)
H2_30 H 0.1156 0.5000 0.9508
C5_18 C 0.3364(3) 0.6636(3) 0.8760(3)
C6_18 C 0.3025(3) 0.6975(3) 0.8939(4)
C7_18 C 0.2320(3) 0.7118(3) 0.9148(3)
H3_18 H 0.2029 0.7028 0.9198
C8_18 C 0.2447(3) 0.7553(3) 0.9220(5)
H4_18 H 0.2239 0.7761 0.9316
N1_18 N 0.2066(2) 0.5393(2) 0.9106(2)
N2_18 N 0.2619(2) 0.6832(2) 0.9009(2)
O1_18 O 0.28854(16) 0.53698(16) 0.87510(17)
O2_18 O 0.32266(15) 0.62535(17) 0.86993(17)
C9_18 C 0.1657(3) 0.4606(3) 0.9288(3)
H5_18 H 0.1519 0.4337 0.9350
C10_18 C 0.2882(3) 0.7680(3) 0.9148(3)
H6_18 H 0.2972 0.7971 0.9198
N3_18 N 0.2934(2) 0.5894(2) 0.9607(2)
N4_18 N 0.2066(2) 0.4607(2) 0.9106(2)
N5_18 N 0.2381(2) 0.5991(2) 0.8168(2)
N6_18 N 0.3168(2) 0.7381(2) 0.9009(2)
O3_18 O 0.21146(16) 0.62490(17) 0.96302(16)
O4_18 O 0.28854(16) 0.46302(16) 0.87510(17)
O5_18 O 0.17734(15) 0.63007(17) 0.87465(17)
O6_18 O 0.37465(17) 0.67734(15) 0.86993(17)
Cd1_19 Cd 0.60487(2) 0.89513(2) 0.2500
C1_31 C 0.5000 0.8825(4) 0.2710(4)
C2_31 C 0.5000 0.9031(3) 0.2245(4)
C3_19 C 0.5394(3) 0.9288(3) 0.1657(3)
H1_19 H 0.5663 0.9350 0.1519
C4_31 C 0.5000 0.9384(4) 0.1439(4)
H2_31 H 0.5000 0.9508 0.1156
C5_19 C 0.6636(3) 0.8760(3) 0.3364(3)
C6_19 C 0.6975(3) 0.8939(4) 0.3025(3)
C7_19 C 0.7118(3) 0.9148(3) 0.2320(3)
H3_19 H 0.7028 0.9198 0.2029
C8_19 C 0.7553(3) 0.9220(5) 0.2447(3)
H4_19 H 0.7761 0.9316 0.2239
N1_19 N 0.5393(2) 0.9106(2) 0.2066(2)
N2_19 N 0.6832(2) 0.9009(2) 0.2619(2)
O1_19 O 0.53698(16) 0.87510(17) 0.28854(16)
O2_19 O 0.62535(17) 0.86993(17) 0.32266(15)
C9_19 C 0.4606(3) 0.9288(3) 0.1657(3)
H5_19 H 0.4337 0.9350 0.1519
C10_19 C 0.7680(3) 0.9148(3) 0.2882(3)
H6_19 H 0.7971 0.9198 0.2972
N3_19 N 0.5894(2) 0.9607(2) 0.2934(2)
N4_19 N 0.4607(2) 0.9106(2) 0.2066(2)
N5_19 N 0.5991(2) 0.8168(2) 0.2381(2)
N6_19 N 0.7381(2) 0.9009(2) 0.3168(2)
O3_19 O 0.62490(17) 0.96302(16) 0.21146(16)
O4_19 O 0.46302(16) 0.87510(17) 0.28854(16)
O5_19 O 0.63007(17) 0.87465(17) 0.17734(15)
O6_19 O 0.67734(15) 0.86993(17) 0.37465(17)
Cd1_20 Cd 0.39513(2) 0.89513(2) 0.7500
C1_32 C 0.5000 0.8825(4) 0.7290(4)
C2_32 C 0.5000 0.9031(3) 0.7755(4)
C3_20 C 0.4606(3) 0.9288(3) 0.8343(3)
H1_20 H 0.4337 0.9350 0.8481
C4_32 C 0.5000 0.9384(4) 0.8561(4)
H2_32 H 0.5000 0.9508 0.8844
C5_20 C 0.3364(3) 0.8760(3) 0.6636(3)
C6_20 C 0.3025(3) 0.8939(4) 0.6975(3)
C7_20 C 0.2882(3) 0.9148(3) 0.7680(3)
H3_20 H 0.2972 0.9198 0.7971
C8_20 C 0.2447(3) 0.9220(5) 0.7553(3)
H4_20 H 0.2239 0.9316 0.7761
N1_20 N 0.4607(2) 0.9106(2) 0.7934(2)
N2_20 N 0.3168(2) 0.9009(2) 0.7381(2)
O1_20 O 0.46302(16) 0.87510(17) 0.71146(16)
O2_20 O 0.37465(17) 0.86993(17) 0.67734(15)
C9_20 C 0.5394(3) 0.9288(3) 0.8343(3)
H5_20 H 0.5663 0.9350 0.8481
C10_20 C 0.2320(3) 0.9148(3) 0.7118(3)
H6_20 H 0.2029 0.9198 0.7028
N3_20 N 0.4106(2) 0.9607(2) 0.7066(2)
N4_20 N 0.5393(2) 0.9106(2) 0.7934(2)
N5_20 N 0.4009(2) 0.8168(2) 0.7619(2)
N6_20 N 0.2619(2) 0.9009(2) 0.6832(2)
O3_20 O 0.37510(17) 0.96302(16) 0.78854(16)
O4_20 O 0.53698(16) 0.87510(17) 0.71146(16)
O5_20 O 0.36993(17) 0.87465(17) 0.82266(15)
O6_20 O 0.32266(15) 0.86993(17) 0.62535(17)
Cd1_21 Cd 0.60487(2) 0.10487(2) 0.7500
C1_33 C 0.5000 0.1175(4) 0.7290(4)
C2_33 C 0.5000 0.0969(3) 0.7755(4)
C3_21 C 0.5394(3) 0.0712(3) 0.8343(3)
H1_21 H 0.5663 0.0650 0.8481
C4_33 C 0.5000 0.0616(4) 0.8561(4)
H2_33 H 0.5000 0.0492 0.8844
C5_21 C 0.6636(3) 0.1240(3) 0.6636(3)
C6_21 C 0.6975(3) 0.1061(4) 0.6975(3)
C7_21 C 0.7118(3) 0.0852(3) 0.7680(3)
H3_21 H 0.7028 0.0802 0.7971
C8_21 C 0.7553(3) 0.0780(5) 0.7553(3)
H4_21 H 0.7761 0.0684 0.7761
N1_21 N 0.5393(2) 0.0894(2) 0.7934(2)
N2_21 N 0.6832(2) 0.0991(2) 0.7381(2)
O1_21 O 0.53698(16) 0.12490(17) 0.71146(16)
O2_21 O 0.62535(17) 0.13007(17) 0.67734(15)
Cd3_14 Cd 0.7500 0.10487(2) 0.60487(2)
C9_21 C 0.4606(3) 0.0712(3) 0.8343(3)
H5_21 H 0.4337 0.0650 0.8481
C10_21 C 0.7680(3) 0.0852(3) 0.7118(3)
H6_21 H 0.7971 0.0802 0.7028
N3_21 N 0.5894(2) 0.0393(2) 0.7066(2)
N4_21 N 0.4607(2) 0.0894(2) 0.7934(2)
N5_21 N 0.5991(2) 0.1832(2) 0.7619(2)
N6_21 N 0.7381(2) 0.0991(2) 0.6832(2)
O3_21 O 0.62490(17) 0.03698(16) 0.78854(16)
O4_21 O 0.46302(16) 0.12490(17) 0.71146(16)
O5_21 O 0.63007(17) 0.12535(17) 0.82266(15)
O6_21 O 0.67734(15) 0.13007(17) 0.62535(17)
Cd1_22 Cd 0.89513(2) 0.7500 0.39513(2)
C1_34 C 0.8825(4) 0.7290(4) 0.5000
C2_34 C 0.9031(3) 0.7755(4) 0.5000
C3_22 C 0.9288(3) 0.8343(3) 0.4606(3)
H1_22 H 0.9350 0.8481 0.4337
C4_34 C 0.9384(4) 0.8561(4) 0.5000
H2_34 H 0.9508 0.8844 0.5000
C5_22 C 0.8760(3) 0.6636(3) 0.3364(3)
C6_22 C 0.8939(4) 0.6975(3) 0.3025(3)
C7_22 C 0.9148(3) 0.7680(3) 0.2882(3)
H3_22 H 0.9198 0.7971 0.2972
C8_22 C 0.9220(5) 0.7553(3) 0.2447(3)
H4_22 H 0.9316 0.7761 0.2239
N1_22 N 0.9106(2) 0.7934(2) 0.4607(2)
N2_22 N 0.9009(2) 0.7381(2) 0.3168(2)
O1_22 O 0.87510(17) 0.71146(16) 0.46302(16)
O2_22 O 0.86993(17) 0.67734(15) 0.37465(17)
C9_22 C 0.9288(3) 0.8343(3) 0.5394(3)
H5_22 H 0.9350 0.8481 0.5663
C10_22 C 0.9148(3) 0.7118(3) 0.2320(3)
H6_22 H 0.9198 0.7028 0.2029
N3_22 N 0.9607(2) 0.7066(2) 0.4106(2)
N4_22 N 0.9106(2) 0.7934(2) 0.5393(2)
N5_22 N 0.8168(2) 0.7619(2) 0.4009(2)
N6_22 N 0.9009(2) 0.6832(2) 0.2619(2)
O3_22 O 0.96302(16) 0.78854(16) 0.37510(17)
O4_22 O 0.87510(17) 0.71146(16) 0.53698(16)
O5_22 O 0.87465(17) 0.82266(15) 0.36993(17)
O6_22 O 0.86993(17) 0.62535(17) 0.32266(15)
Cd1_23 Cd 0.89513(2) 0.2500 0.60487(2)
C1_35 C 0.8825(4) 0.2710(4) 0.5000
C2_35 C 0.9031(3) 0.2245(4) 0.5000
C3_23 C 0.9288(3) 0.1657(3) 0.5394(3)
H1_23 H 0.9350 0.1519 0.5663
C4_35 C 0.9384(4) 0.1439(4) 0.5000
H2_35 H 0.9508 0.1156 0.5000
C5_23 C 0.8760(3) 0.3364(3) 0.6636(3)
C6_23 C 0.8939(4) 0.3025(3) 0.6975(3)
C7_23 C 0.9148(3) 0.2320(3) 0.7118(3)
H3_23 H 0.9198 0.2029 0.7028
C8_23 C 0.9220(5) 0.2447(3) 0.7553(3)
H4_23 H 0.9316 0.2239 0.7761
N1_23 N 0.9106(2) 0.2066(2) 0.5393(2)
N2_23 N 0.9009(2) 0.2619(2) 0.6832(2)
O1_23 O 0.87510(17) 0.28854(16) 0.53698(16)
O2_23 O 0.86993(17) 0.32266(15) 0.62535(17)
C9_23 C 0.9288(3) 0.1657(3) 0.4606(3)
H5_23 H 0.9350 0.1519 0.4337
C10_23 C 0.9148(3) 0.2882(3) 0.7680(3)
H6_23 H 0.9198 0.2972 0.7971
N3_23 N 0.9607(2) 0.2934(2) 0.5894(2)
N4_23 N 0.9106(2) 0.2066(2) 0.4607(2)
N5_23 N 0.8168(2) 0.2381(2) 0.5991(2)
N6_23 N 0.9009(2) 0.3168(2) 0.7381(2)
O3_23 O 0.96302(16) 0.21146(16) 0.62490(17)
O4_23 O 0.87510(17) 0.28854(16) 0.46302(16)
O5_23 O 0.87465(17) 0.17734(15) 0.63007(17)
O6_23 O 0.86993(17) 0.37465(17) 0.67734(15)
Cd1_24 Cd 0.10487(2) 0.7500 0.60487(2)
C1_36 C 0.1175(4) 0.7290(4) 0.5000
C2_36 C 0.0969(3) 0.7755(4) 0.5000
C3_24 C 0.0712(3) 0.8343(3) 0.5394(3)
H1_24 H 0.0650 0.8481 0.5663
C4_36 C 0.0616(4) 0.8561(4) 0.5000
H2_36 H 0.0492 0.8844 0.5000
C5_24 C 0.1240(3) 0.6636(3) 0.6636(3)
C6_24 C 0.1061(4) 0.6975(3) 0.6975(3)
C7_24 C 0.0852(3) 0.7680(3) 0.7118(3)
H3_24 H 0.0802 0.7971 0.7028
C8_24 C 0.0780(5) 0.7553(3) 0.7553(3)
H4_24 H 0.0684 0.7761 0.7761
N1_24 N 0.0894(2) 0.7934(2) 0.5393(2)
N2_24 N 0.0991(2) 0.7381(2) 0.6832(2)
O1_24 O 0.12490(17) 0.71146(16) 0.53698(16)
O2_24 O 0.13007(17) 0.67734(15) 0.62535(17)
Cd3_15 Cd 0.10487(2) 0.60487(2) 0.7500
C9_24 C 0.0712(3) 0.8343(3) 0.4606(3)
H5_24 H 0.0650 0.8481 0.4337
C10_24 C 0.0852(3) 0.7118(3) 0.7680(3)
H6_24 H 0.0802 0.7028 0.7971
N3_24 N 0.0393(2) 0.7066(2) 0.5894(2)
N4_24 N 0.0894(2) 0.7934(2) 0.4607(2)
N5_24 N 0.1832(2) 0.7619(2) 0.5991(2)
N6_24 N 0.0991(2) 0.6832(2) 0.7381(2)
O3_24 O 0.03698(16) 0.78854(16) 0.62490(17)
O4_24 O 0.12490(17) 0.71146(16) 0.46302(16)
O5_24 O 0.12535(17) 0.82266(15) 0.63007(17)
O6_24 O 0.13007(17) 0.62535(17) 0.67734(15)
C1_37 C 0.0000 0.7710(4) 0.3825(4)
C2_37 C -0.0000 0.7245(4) 0.4031(3)
C4_37 C -0.0000 0.6439(4) 0.4384(4)
H2_37 H -0.0000 0.6156 0.4508
C9_25 C 0.0394(3) 0.6657(3) 0.4288(3)
H5_25 H 0.0663 0.6519 0.4350
N4_25 N 0.0393(2) 0.7066(2) 0.4106(2)
O4_25 O 0.03698(16) 0.78854(16) 0.37510(17)
C1_38 C 1.0000 0.7710(4) 0.3825(4)
C2_38 C 1.0000 0.7245(4) 0.4031(3)
C3_25 C 0.9606(3) 0.6657(3) 0.4288(3)
H1_25 H 0.9337 0.6519 0.4350
C4_38 C 1.0000 0.6439(4) 0.4384(4)
H2_38 H 1.0000 0.6156 0.4508
C5_25 C 0.8364(3) 0.8364(3) 0.3760(3)
C6_25 C 0.8025(3) 0.8025(3) 0.3939(4)
C7_25 C 0.7882(3) 0.7320(3) 0.4148(3)
H3_25 H 0.7972 0.7029 0.4198
C8_25 C 0.7447(3) 0.7447(3) 0.4220(5)
H4_25 H 0.7239 0.7239 0.4316
C10_25 C 0.7320(3) 0.7882(3) 0.4148(3)
H6_25 H 0.7029 0.7972 0.4198
N6_25 N 0.7619(2) 0.8168(2) 0.4009(2)
O6_25 O 0.82266(15) 0.87465(17) 0.36993(17)
C1_39 C -0.0000 0.2290(4) 0.6175(4)
C2_39 C -0.0000 0.2755(4) 0.5969(3)
C4_39 C 0.0000 0.3561(4) 0.5616(4)
H2_39 H -0.0000 0.3844 0.5492
C9_26 C 0.0394(3) 0.3343(3) 0.5712(3)
H5_26 H 0.0663 0.3481 0.5650
N4_26 N 0.0393(2) 0.2934(2) 0.5894(2)
O4_26 O 0.03698(16) 0.21146(16) 0.62490(17)
C1_40 C 1.0000 0.2290(4) 0.6175(4)
C2_40 C 1.0000 0.2755(4) 0.5969(3)
C3_26 C 0.9606(3) 0.3343(3) 0.5712(3)
H1_26 H 0.9337 0.3481 0.5650
C4_40 C 1.0000 0.3561(4) 0.5616(4)
H2_40 H 1.0000 0.3844 0.5492
C5_26 C 0.8364(3) 0.1636(3) 0.6240(3)
C6_26 C 0.8025(3) 0.1975(3) 0.6061(4)
C7_26 C 0.7882(3) 0.2680(3) 0.5852(3)
H3_26 H 0.7972 0.2971 0.5802
C8_26 C 0.7447(3) 0.2553(3) 0.5780(5)
H4_26 H 0.7239 0.2761 0.5684
C10_26 C 0.7320(3) 0.2118(3) 0.5852(3)
H6_26 H 0.7029 0.2028 0.5802
N6_26 N 0.7619(2) 0.1832(2) 0.5991(2)
O6_26 O 0.82266(15) 0.12535(17) 0.63007(17)
C1_41 C 0.0000 0.7710(4) 0.6175(4)
C2_41 C 0.0000 0.7245(4) 0.5969(3)
C3_27 C 0.0394(3) 0.6657(3) 0.5712(3)
H1_27 H 0.0663 0.6519 0.5650
C4_41 C 0.0000 0.6439(4) 0.5616(4)
H2_41 H -0.0000 0.6156 0.5492
C5_27 C 0.1636(3) 0.8364(3) 0.6240(3)
C6_27 C 0.1975(3) 0.8025(3) 0.6061(4)
C7_27 C 0.2118(3) 0.7320(3) 0.5852(3)
H3_27 H 0.2028 0.7029 0.5802
C8_27 C 0.2553(3) 0.7447(3) 0.5780(5)
H4_27 H 0.2761 0.7239 0.5684
C10_27 C 0.2680(3) 0.7882(3) 0.5852(3)
H6_27 H 0.2971 0.7972 0.5802
N6_27 N 0.2381(2) 0.8168(2) 0.5991(2)
O6_27 O 0.17734(15) 0.87465(17) 0.63007(17)
C1_42 C 1.0000 0.7710(4) 0.6175(4)
C2_42 C 1.0000 0.7245(4) 0.5969(3)
C4_42 C 1.0000 0.6439(4) 0.5616(4)
H2_42 H 1.0000 0.6156 0.5492
C9_27 C 0.9606(3) 0.6657(3) 0.5712(3)
H5_27 H 0.9337 0.6519 0.5650
N4_27 N 0.9607(2) 0.7066(2) 0.5894(2)
O4_27 O 0.96302(16) 0.78854(16) 0.62490(17)
C1_43 C 0.3825(4) 0.0000 0.7710(4)
C2_43 C 0.4031(3) -0.0000 0.7245(4)
C4_43 C 0.4384(4) 0.0000 0.6439(4)
H2_43 H 0.4508 -0.0000 0.6156
C9_28 C 0.4288(3) 0.0394(3) 0.6657(3)
H5_28 H 0.4350 0.0663 0.6519
N4_28 N 0.4106(2) 0.0393(2) 0.7066(2)
O4_28 O 0.37510(17) 0.03698(16) 0.78854(16)
C1_44 C 0.3825(4) 1.0000 0.7710(4)
C2_44 C 0.4031(3) 1.0000 0.7245(4)
C3_28 C 0.4288(3) 0.9606(3) 0.6657(3)
H1_28 H 0.4350 0.9337 0.6519
C4_44 C 0.4384(4) 1.0000 0.6439(4)
H2_44 H 0.4508 1.0000 0.6156
C5_28 C 0.3760(3) 0.8364(3) 0.8364(3)
C6_28 C 0.3939(4) 0.8025(3) 0.8025(3)
C7_28 C 0.4148(3) 0.7882(3) 0.7320(3)
H3_28 H 0.4198 0.7972 0.7029
C8_28 C 0.4220(5) 0.7447(3) 0.7447(3)
H4_28 H 0.4316 0.7239 0.7239
C10_28 C 0.4148(3) 0.7320(3) 0.7882(3)
H6_28 H 0.4198 0.7029 0.7972
N6_28 N 0.4009(2) 0.7619(2) 0.8168(2)
O6_28 O 0.36993(17) 0.82266(15) 0.87465(17)
C1_45 C 0.6175(4) 0.0000 0.2290(4)
C2_45 C 0.5969(3) -0.0000 0.2755(4)
C4_45 C 0.5616(4) -0.0000 0.3561(4)
H2_45 H 0.5492 -0.0000 0.3844
C9_29 C 0.5712(3) 0.0394(3) 0.3343(3)
H5_29 H 0.5650 0.0663 0.3481
N4_29 N 0.5894(2) 0.0393(2) 0.2934(2)
O4_29 O 0.62490(17) 0.03698(16) 0.21146(16)
C1_46 C 0.6175(4) 1.0000 0.2290(4)
C2_46 C 0.5969(3) 1.0000 0.2755(4)
C3_29 C 0.5712(3) 0.9606(3) 0.3343(3)
H1_29 H 0.5650 0.9337 0.3481
C4_46 C 0.5616(4) 1.0000 0.3561(4)
H2_46 H 0.5492 1.0000 0.3844
C5_29 C 0.6240(3) 0.8364(3) 0.1636(3)
C6_29 C 0.6061(4) 0.8025(3) 0.1975(3)
C7_29 C 0.5852(3) 0.7882(3) 0.2680(3)
H3_29 H 0.5802 0.7972 0.2971
C8_29 C 0.5780(5) 0.7447(3) 0.2553(3)
H4_29 H 0.5684 0.7239 0.2761
C10_29 C 0.5852(3) 0.7320(3) 0.2118(3)
H6_29 H 0.5802 0.7029 0.2028
N6_29 N 0.5991(2) 0.7619(2) 0.1832(2)
O6_29 O 0.63007(17) 0.82266(15) 0.12535(17)
C1_47 C 0.6175(4) 0.0000 0.7710(4)
C2_47 C 0.5969(3) 0.0000 0.7245(4)
C3_30 C 0.5712(3) 0.0394(3) 0.6657(3)
H1_30 H 0.5650 0.0663 0.6519
C4_47 C 0.5616(4) 0.0000 0.6439(4)
H2_47 H 0.5492 -0.0000 0.6156
C5_30 C 0.6240(3) 0.1636(3) 0.8364(3)
C6_30 C 0.6061(4) 0.1975(3) 0.8025(3)
C7_30 C 0.5852(3) 0.2118(3) 0.7320(3)
H3_30 H 0.5802 0.2028 0.7029
C8_30 C 0.5780(5) 0.2553(3) 0.7447(3)
H4_30 H 0.5684 0.2761 0.7239
C10_30 C 0.5852(3) 0.2680(3) 0.7882(3)
H6_30 H 0.5802 0.2971 0.7972
N6_30 N 0.5991(2) 0.2381(2) 0.8168(2)
O6_30 O 0.63007(17) 0.17734(15) 0.87465(17)
C1_48 C 0.6175(4) 1.0000 0.7710(4)
C2_48 C 0.5969(3) 1.0000 0.7245(4)
C4_48 C 0.5616(4) 1.0000 0.6439(4)
H2_48 H 0.5492 1.0000 0.6156
C9_30 C 0.5712(3) 0.9606(3) 0.6657(3)
H5_30 H 0.5650 0.9337 0.6519
N4_30 N 0.5894(2) 0.9607(2) 0.7066(2)
O4_30 O 0.62490(17) 0.96302(16) 0.78854(16)
C1_49 C 0.7710(4) 0.3825(4) -0.0000
C2_49 C 0.7245(4) 0.4031(3) -0.0000
C4_49 C 0.6439(4) 0.4384(4) -0.0000
H2_49 H 0.6156 0.4508 -0.0000
C9_31 C 0.6657(3) 0.4288(3) 0.0394(3)
H5_31 H 0.6519 0.4350 0.0663
N4_31 N 0.7066(2) 0.4106(2) 0.0393(2)
O4_31 O 0.78854(16) 0.37510(17) 0.03698(16)
C1_50 C 0.7710(4) 0.3825(4) 1.0000
C2_50 C 0.7245(4) 0.4031(3) 1.0000
C3_31 C 0.6657(3) 0.4288(3) 0.9606(3)
H1_31 H 0.6519 0.4350 0.9337
C4_50 C 0.6439(4) 0.4384(4) 1.0000
H2_50 H 0.6156 0.4508 1.0000
C5_31 C 0.8364(3) 0.3760(3) 0.8364(3)
C6_31 C 0.8025(3) 0.3939(4) 0.8025(3)
C7_31 C 0.7320(3) 0.4148(3) 0.7882(3)
H3_31 H 0.7029 0.4198 0.7972
C8_31 C 0.7447(3) 0.4220(5) 0.7447(3)
H4_31 H 0.7239 0.4316 0.7239
C10_31 C 0.7882(3) 0.4148(3) 0.7320(3)
H6_31 H 0.7972 0.4198 0.7029
N6_31 N 0.8168(2) 0.4009(2) 0.7619(2)
O6_31 O 0.87465(17) 0.36993(17) 0.82266(15)
C1_51 C 0.2290(4) 0.6175(4) -0.0000
C2_51 C 0.2755(4) 0.5969(3) -0.0000
C4_51 C 0.3561(4) 0.5616(4) -0.0000
H2_51 H 0.3844 0.5492 -0.0000
C9_32 C 0.3343(3) 0.5712(3) 0.0394(3)
H5_32 H 0.3481 0.5650 0.0663
N4_32 N 0.2934(2) 0.5894(2) 0.0393(2)
O4_32 O 0.21146(16) 0.62490(17) 0.03698(16)
C1_52 C 0.2290(4) 0.6175(4) 1.0000
C2_52 C 0.2755(4) 0.5969(3) 1.0000
C3_32 C 0.3343(3) 0.5712(3) 0.9606(3)
H1_32 H 0.3481 0.5650 0.9337
C4_52 C 0.3561(4) 0.5616(4) 1.0000
H2_52 H 0.3844 0.5492 1.0000
C5_32 C 0.1636(3) 0.6240(3) 0.8364(3)
C6_32 C 0.1975(3) 0.6061(4) 0.8025(3)
C7_32 C 0.2680(3) 0.5852(3) 0.7882(3)
H3_32 H 0.2971 0.5802 0.7972
C8_32 C 0.2553(3) 0.5780(5) 0.7447(3)
H4_32 H 0.2761 0.5684 0.7239
C10_32 C 0.2118(3) 0.5852(3) 0.7320(3)
H6_32 H 0.2028 0.5802 0.7029
N6_32 N 0.1832(2) 0.5991(2) 0.7619(2)
O6_32 O 0.12535(17) 0.63007(17) 0.82266(15)
C1_53 C 0.7710(4) 0.6175(4) 0.0000
C2_53 C 0.7245(4) 0.5969(3) 0.0000
C3_33 C 0.6657(3) 0.5712(3) 0.0394(3)
H1_33 H 0.6519 0.5650 0.0663
C4_53 C 0.6439(4) 0.5616(4) 0.0000
H2_53 H 0.6156 0.5492 0.0000
C5_33 C 0.8364(3) 0.6240(3) 0.1636(3)
C6_33 C 0.8025(3) 0.6061(4) 0.1975(3)
C7_33 C 0.7320(3) 0.5852(3) 0.2118(3)
H3_33 H 0.7029 0.5802 0.2028
C8_33 C 0.7447(3) 0.5780(5) 0.2553(3)
H4_33 H 0.7239 0.5684 0.2761
C10_33 C 0.7882(3) 0.5852(3) 0.2680(3)
H6_33 H 0.7972 0.5802 0.2971
N6_33 N 0.8168(2) 0.5991(2) 0.2381(2)
O6_33 O 0.87465(17) 0.63007(17) 0.17734(15)
C1_54 C 0.7710(4) 0.6175(4) 1.0000
C2_54 C 0.7245(4) 0.5969(3) 1.0000
C4_54 C 0.6439(4) 0.5616(4) 1.0000
H2_54 H 0.6156 0.5492 1.0000
C9_33 C 0.6657(3) 0.5712(3) 0.9606(3)
H5_33 H 0.6519 0.5650 0.9337
N4_33 N 0.7066(2) 0.5894(2) 0.9607(2)
O4_33 O 0.78854(16) 0.62490(17) 0.96302(16)
C1_55 C 0.7710(4) -0.0000 0.6175(4)
C2_55 C 0.7245(4) -0.0000 0.5969(3)
C4_55 C 0.6439(4) 0.0000 0.5616(4)
H2_55 H 0.6156 -0.0000 0.5492
C9_34 C 0.6657(3) 0.0394(3) 0.5712(3)
H5_34 H 0.6519 0.0663 0.5650
N4_34 N 0.7066(2) 0.0393(2) 0.5894(2)
O4_34 O 0.78854(16) 0.03698(16) 0.62490(17)
C1_56 C 0.7710(4) 1.0000 0.6175(4)
C2_56 C 0.7245(4) 1.0000 0.5969(3)
C3_34 C 0.6657(3) 0.9606(3) 0.5712(3)
H1_34 H 0.6519 0.9337 0.5650
C4_56 C 0.6439(4) 1.0000 0.5616(4)
H2_56 H 0.6156 1.0000 0.5492
C5_34 C 0.8364(3) 0.8364(3) 0.6240(3)
C6_34 C 0.8025(3) 0.8025(3) 0.6061(4)
C7_34 C 0.7320(3) 0.7882(3) 0.5852(3)
H3_34 H 0.7029 0.7972 0.5802
C8_34 C 0.7447(3) 0.7447(3) 0.5780(5)
H4_34 H 0.7239 0.7239 0.5684
C10_34 C 0.7882(3) 0.7320(3) 0.5852(3)
H6_34 H 0.7972 0.7029 0.5802
N6_34 N 0.8168(2) 0.7619(2) 0.5991(2)
O6_34 O 0.87465(17) 0.82266(15) 0.63007(17)
C1_57 C 0.0000 0.6175(4) 0.7710(4)
C2_57 C -0.0000 0.5969(3) 0.7245(4)
C4_57 C 0.0000 0.5616(4) 0.6439(4)
H2_57 H -0.0000 0.5492 0.6156
C9_35 C 0.0394(3) 0.5712(3) 0.6657(3)
H5_35 H 0.0663 0.5650 0.6519
N4_35 N 0.0393(2) 0.5894(2) 0.7066(2)
O4_35 O 0.03698(16) 0.62490(17) 0.78854(16)
C1_58 C 1.0000 0.6175(4) 0.7710(4)
C2_58 C 1.0000 0.5969(3) 0.7245(4)
C3_35 C 0.9606(3) 0.5712(3) 0.6657(3)
H1_35 H 0.9337 0.5650 0.6519
C4_58 C 1.0000 0.5616(4) 0.6439(4)
H2_58 H 1.0000 0.5492 0.6156
C5_35 C 0.8364(3) 0.6240(3) 0.8364(3)
C6_35 C 0.8025(3) 0.6061(4) 0.8025(3)
C7_35 C 0.7882(3) 0.5852(3) 0.7320(3)
H3_35 H 0.7972 0.5802 0.7029
C8_35 C 0.7447(3) 0.5780(5) 0.7447(3)
H4_35 H 0.7239 0.5684 0.7239
C10_35 C 0.7320(3) 0.5852(3) 0.7882(3)
H6_35 H 0.7029 0.5802 0.7972
N6_35 N 0.7619(2) 0.5991(2) 0.8168(2)
O6_35 O 0.82266(15) 0.63007(17) 0.87465(17)
C1_59 C 0.6175(4) 0.7710(4) -0.0000
C2_59 C 0.5969(3) 0.7245(4) -0.0000
C4_59 C 0.5616(4) 0.6439(4) -0.0000
H2_59 H 0.5492 0.6156 -0.0000
C9_36 C 0.5712(3) 0.6657(3) 0.0394(3)
H5_36 H 0.5650 0.6519 0.0663
N4_36 N 0.5894(2) 0.7066(2) 0.0393(2)
O4_36 O 0.62490(17) 0.78854(16) 0.03698(16)
C1_60 C 0.6175(4) 0.7710(4) 1.0000
C2_60 C 0.5969(3) 0.7245(4) 1.0000
C3_36 C 0.5712(3) 0.6657(3) 0.9606(3)
H1_36 H 0.5650 0.6519 0.9337
C4_60 C 0.5616(4) 0.6439(4) 1.0000
H2_60 H 0.5492 0.6156 1.0000
C5_36 C 0.6240(3) 0.8364(3) 0.8364(3)
C6_36 C 0.6061(4) 0.8025(3) 0.8025(3)
C7_36 C 0.5852(3) 0.7320(3) 0.7882(3)
H3_36 H 0.5802 0.7029 0.7972
C8_36 C 0.5780(5) 0.7447(3) 0.7447(3)
H4_36 H 0.5684 0.7239 0.7239
C10_36 C 0.5852(3) 0.7882(3) 0.7320(3)
H6_36 H 0.5802 0.7972 0.7029
N6_36 N 0.5991(2) 0.8168(2) 0.7619(2)
O6_36 O 0.63007(17) 0.87465(17) 0.82266(15)
C1_61 C 0.5000 0.2710(4) 0.8825(4)
C2_61 C 0.5000 0.2245(4) 0.9031(3)
C3_37 C 0.4606(3) 0.1657(3) 0.9288(3)
H1_37 H 0.4337 0.1519 0.9350
C4_61 C 0.5000 0.1439(4) 0.9384(4)
H2_61 H 0.5000 0.1156 0.9508
C5_37 C 0.3364(3) 0.3364(3) 0.8760(3)
C6_37 C 0.3025(3) 0.3025(3) 0.8939(4)
C7_37 C 0.2882(3) 0.2320(3) 0.9148(3)
H3_37 H 0.2972 0.2029 0.9198
C8_37 C 0.2447(3) 0.2447(3) 0.9220(5)
H4_37 H 0.2239 0.2239 0.9316
C9_37 C 0.5394(3) 0.1657(3) 0.9288(3)
H5_37 H 0.5663 0.1519 0.9350
C10_37 C 0.2320(3) 0.2882(3) 0.9148(3)
H6_37 H 0.2029 0.2972 0.9198
N4_37 N 0.5393(2) 0.2066(2) 0.9106(2)
N6_37 N 0.2619(2) 0.3168(2) 0.9009(2)
O4_37 O 0.53698(16) 0.28854(16) 0.87510(17)
O6_37 O 0.32266(15) 0.37465(17) 0.86993(17)
C1_62 C 0.5000 0.7290(4) 0.1175(4)
C2_62 C 0.5000 0.7755(4) 0.0969(3)
C3_38 C 0.4606(3) 0.8343(3) 0.0712(3)
H1_38 H 0.4337 0.8481 0.0650
C4_62 C 0.5000 0.8561(4) 0.0616(4)
H2_62 H 0.5000 0.8844 0.0492
C5_38 C 0.3364(3) 0.6636(3) 0.1240(3)
C6_38 C 0.3025(3) 0.6975(3) 0.1061(4)
C7_38 C 0.2882(3) 0.7680(3) 0.0852(3)
H3_38 H 0.2972 0.7971 0.0802
C8_38 C 0.2447(3) 0.7553(3) 0.0780(5)
H4_38 H 0.2239 0.7761 0.0684
C9_38 C 0.5394(3) 0.8343(3) 0.0712(3)
H5_38 H 0.5663 0.8481 0.0650
C10_38 C 0.2320(3) 0.7118(3) 0.0852(3)
H6_38 H 0.2029 0.7028 0.0802
N4_38 N 0.5393(2) 0.7934(2) 0.0894(2)
N6_38 N 0.2619(2) 0.6832(2) 0.0991(2)
O4_38 O 0.53698(16) 0.71146(16) 0.12490(17)
O6_38 O 0.32266(15) 0.62535(17) 0.13007(17)
C1_63 C 0.5000 0.2710(4) 0.1175(4)
C2_63 C 0.5000 0.2245(4) 0.0969(3)
C3_39 C 0.5394(3) 0.1657(3) 0.0712(3)
H1_39 H 0.5663 0.1519 0.0650
C4_63 C 0.5000 0.1439(4) 0.0616(4)
H2_63 H 0.5000 0.1156 0.0492
C5_39 C 0.6636(3) 0.3364(3) 0.1240(3)
C6_39 C 0.6975(3) 0.3025(3) 0.1061(4)
C7_39 C 0.7118(3) 0.2320(3) 0.0852(3)
H3_39 H 0.7028 0.2029 0.0802
C8_39 C 0.7553(3) 0.2447(3) 0.0780(5)
H4_39 H 0.7761 0.2239 0.0684
C9_39 C 0.4606(3) 0.1657(3) 0.0712(3)
H5_39 H 0.4337 0.1519 0.0650
C10_39 C 0.7680(3) 0.2882(3) 0.0852(3)
H6_39 H 0.7971 0.2972 0.0802
N4_39 N 0.4607(2) 0.2066(2) 0.0894(2)
N6_39 N 0.7381(2) 0.3168(2) 0.0991(2)
O4_39 O 0.46302(16) 0.28854(16) 0.12490(17)
O6_39 O 0.67734(15) 0.37465(17) 0.13007(17)
C1_64 C 0.8825(4) 0.5000 0.2710(4)
C2_64 C 0.9031(3) 0.5000 0.2245(4)
C3_40 C 0.9288(3) 0.4606(3) 0.1657(3)
H1_40 H 0.9350 0.4337 0.1519
C4_64 C 0.9384(4) 0.5000 0.1439(4)
H2_64 H 0.9508 0.5000 0.1156
C5_40 C 0.8760(3) 0.3364(3) 0.3364(3)
C6_40 C 0.8939(4) 0.3025(3) 0.3025(3)
C7_40 C 0.9148(3) 0.2882(3) 0.2320(3)
H3_40 H 0.9198 0.2972 0.2029
C8_40 C 0.9220(5) 0.2447(3) 0.2447(3)
H4_40 H 0.9316 0.2239 0.2239
C9_40 C 0.9288(3) 0.5394(3) 0.1657(3)
H5_40 H 0.9350 0.5663 0.1519
C10_40 C 0.9148(3) 0.2320(3) 0.2882(3)
H6_40 H 0.9198 0.2029 0.2972
N4_40 N 0.9106(2) 0.5393(2) 0.2066(2)
N6_40 N 0.9009(2) 0.2619(2) 0.3168(2)
O4_40 O 0.87510(17) 0.53698(16) 0.28854(16)
O6_40 O 0.86993(17) 0.32266(15) 0.37465(17)
C1_65 C 0.1175(4) 0.5000 0.7290(4)
C2_65 C 0.0969(3) 0.5000 0.7755(4)
C3_41 C 0.0712(3) 0.4606(3) 0.8343(3)
H1_41 H 0.0650 0.4337 0.8481
C4_65 C 0.0616(4) 0.5000 0.8561(4)
H2_65 H 0.0492 0.5000 0.8844
C5_41 C 0.1240(3) 0.3364(3) 0.6636(3)
C6_41 C 0.1061(4) 0.3025(3) 0.6975(3)
C7_41 C 0.0852(3) 0.2882(3) 0.7680(3)
H3_41 H 0.0802 0.2972 0.7971
C8_41 C 0.0780(5) 0.2447(3) 0.7553(3)
H4_41 H 0.0684 0.2239 0.7761
C9_41 C 0.0712(3) 0.5394(3) 0.8343(3)
H5_41 H 0.0650 0.5663 0.8481
C10_41 C 0.0852(3) 0.2320(3) 0.7118(3)
H6_41 H 0.0802 0.2029 0.7028
N4_41 N 0.0894(2) 0.5393(2) 0.7934(2)
N6_41 N 0.0991(2) 0.2619(2) 0.6832(2)
O4_41 O 0.12490(17) 0.53698(16) 0.71146(16)
O6_41 O 0.13007(17) 0.32266(15) 0.62535(17)
C1_66 C 0.1175(4) 0.5000 0.2710(4)
C2_66 C 0.0969(3) 0.5000 0.2245(4)
C3_42 C 0.0712(3) 0.5394(3) 0.1657(3)
H1_42 H 0.0650 0.5663 0.1519
C4_66 C 0.0616(4) 0.5000 0.1439(4)
H2_66 H 0.0492 0.5000 0.1156
C5_42 C 0.1240(3) 0.6636(3) 0.3364(3)
C6_42 C 0.1061(4) 0.6975(3) 0.3025(3)
C7_42 C 0.0852(3) 0.7118(3) 0.2320(3)
H3_42 H 0.0802 0.7028 0.2029
C8_42 C 0.0780(5) 0.7553(3) 0.2447(3)
H4_42 H 0.0684 0.7761 0.2239
C9_42 C 0.0712(3) 0.4606(3) 0.1657(3)
H5_42 H 0.0650 0.4337 0.1519
C10_42 C 0.0852(3) 0.7680(3) 0.2882(3)
H6_42 H 0.0802 0.7971 0.2972
N4_42 N 0.0894(2) 0.4607(2) 0.2066(2)
N6_42 N 0.0991(2) 0.7381(2) 0.3168(2)
O4_42 O 0.12490(17) 0.46302(16) 0.28854(16)
O6_42 O 0.13007(17) 0.67734(15) 0.37465(17)
C1_67 C 0.2710(4) 0.8825(4) 0.5000
C2_67 C 0.2245(4) 0.9031(3) 0.5000
C3_43 C 0.1657(3) 0.9288(3) 0.4606(3)
H1_43 H 0.1519 0.9350 0.4337
C4_67 C 0.1439(4) 0.9384(4) 0.5000
H2_67 H 0.1156 0.9508 0.5000
C5_43 C 0.3364(3) 0.8760(3) 0.3364(3)
C6_43 C 0.3025(3) 0.8939(4) 0.3025(3)
C7_43 C 0.2320(3) 0.9148(3) 0.2882(3)
H3_43 H 0.2029 0.9198 0.2972
C8_43 C 0.2447(3) 0.9220(5) 0.2447(3)
H4_43 H 0.2239 0.9316 0.2239
C9_43 C 0.1657(3) 0.9288(3) 0.5394(3)
H5_43 H 0.1519 0.9350 0.5663
C10_43 C 0.2882(3) 0.9148(3) 0.2320(3)
H6_43 H 0.2972 0.9198 0.2029
N4_43 N 0.2066(2) 0.9106(2) 0.5393(2)
N6_43 N 0.3168(2) 0.9009(2) 0.2619(2)
O4_43 O 0.28854(16) 0.87510(17) 0.53698(16)
O6_43 O 0.37465(17) 0.86993(17) 0.32266(15)
C1_68 C 0.7290(4) 0.1175(4) 0.5000
C2_68 C 0.7755(4) 0.0969(3) 0.5000
C3_44 C 0.8343(3) 0.0712(3) 0.4606(3)
H1_44 H 0.8481 0.0650 0.4337
C4_68 C 0.8561(4) 0.0616(4) 0.5000
H2_68 H 0.8844 0.0492 0.5000
C5_44 C 0.6636(3) 0.1240(3) 0.3364(3)
C6_44 C 0.6975(3) 0.1061(4) 0.3025(3)
C7_44 C 0.7680(3) 0.0852(3) 0.2882(3)
H3_44 H 0.7971 0.0802 0.2972
C8_44 C 0.7553(3) 0.0780(5) 0.2447(3)
H4_44 H 0.7761 0.0684 0.2239
C9_44 C 0.8343(3) 0.0712(3) 0.5394(3)
H5_44 H 0.8481 0.0650 0.5663
C10_44 C 0.7118(3) 0.0852(3) 0.2320(3)
H6_44 H 0.7028 0.0802 0.2029
N4_44 N 0.7934(2) 0.0894(2) 0.5393(2)
N6_44 N 0.6832(2) 0.0991(2) 0.2619(2)
O4_44 O 0.71146(16) 0.12490(17) 0.53698(16)
O6_44 O 0.62535(17) 0.13007(17) 0.32266(15)
C1_69 C 0.2710(4) 0.1175(4) 0.5000
C2_69 C 0.2245(4) 0.0969(3) 0.5000
C3_45 C 0.1657(3) 0.0712(3) 0.5394(3)
H1_45 H 0.1519 0.0650 0.5663
C4_69 C 0.1439(4) 0.0616(4) 0.5000
H2_69 H 0.1156 0.0492 0.5000
C5_45 C 0.3364(3) 0.1240(3) 0.6636(3)
C6_45 C 0.3025(3) 0.1061(4) 0.6975(3)
C7_45 C 0.2320(3) 0.0852(3) 0.7118(3)
H3_45 H 0.2029 0.0802 0.7028
C8_45 C 0.2447(3) 0.0780(5) 0.7553(3)
H4_45 H 0.2239 0.0684 0.7761
C9_45 C 0.1657(3) 0.0712(3) 0.4606(3)
H5_45 H 0.1519 0.0650 0.4337
C10_45 C 0.2882(3) 0.0852(3) 0.7680(3)
H6_45 H 0.2972 0.0802 0.7971
N4_45 N 0.2066(2) 0.0894(2) 0.4607(2)
N6_45 N 0.3168(2) 0.0991(2) 0.7381(2)
O4_45 O 0.28854(16) 0.12490(17) 0.46302(16)
O6_45 O 0.37465(17) 0.13007(17) 0.67734(15)
C1_70 C 0.2710(4) 0.5000 0.1175(4)
C2_70 C 0.2245(4) 0.5000 0.0969(3)
C3_46 C 0.1657(3) 0.4606(3) 0.0712(3)
H1_46 H 0.1519 0.4337 0.0650
C4_70 C 0.1439(4) 0.5000 0.0616(4)
H2_70 H 0.1156 0.5000 0.0492
C5_46 C 0.3364(3) 0.3364(3) 0.1240(3)
C6_46 C 0.3025(3) 0.3025(3) 0.1061(4)
C7_46 C 0.2320(3) 0.2882(3) 0.0852(3)
H3_46 H 0.2029 0.2972 0.0802
C8_46 C 0.2447(3) 0.2447(3) 0.0780(5)
H4_46 H 0.2239 0.2239 0.0684
C9_46 C 0.1657(3) 0.5394(3) 0.0712(3)
H5_46 H 0.1519 0.5663 0.0650
C10_46 C 0.2882(3) 0.2320(3) 0.0852(3)
H6_46 H 0.2972 0.2029 0.0802
N4_46 N 0.2066(2) 0.5393(2) 0.0894(2)
N6_46 N 0.3168(2) 0.2619(2) 0.0991(2)
O4_46 O 0.28854(16) 0.53698(16) 0.12490(17)
O6_46 O 0.37465(17) 0.32266(15) 0.13007(17)
C1_71 C 0.5000 0.1175(4) 0.2710(4)
C2_71 C 0.5000 0.0969(3) 0.2245(4)
C3_47 C 0.4606(3) 0.0712(3) 0.1657(3)
H1_47 H 0.4337 0.0650 0.1519
C4_71 C 0.5000 0.0616(4) 0.1439(4)
H2_71 H 0.5000 0.0492 0.1156
C5_47 C 0.3364(3) 0.1240(3) 0.3364(3)
C6_47 C 0.3025(3) 0.1061(4) 0.3025(3)
C7_47 C 0.2882(3) 0.0852(3) 0.2320(3)
H3_47 H 0.2972 0.0802 0.2029
C8_47 C 0.2447(3) 0.0780(5) 0.2447(3)
H4_47 H 0.2239 0.0684 0.2239
C9_47 C 0.5394(3) 0.0712(3) 0.1657(3)
H5_47 H 0.5663 0.0650 0.1519
C10_47 C 0.2320(3) 0.0852(3) 0.2882(3)
H6_47 H 0.2029 0.0802 0.2972
N4_47 N 0.5393(2) 0.0894(2) 0.2066(2)
N6_47 N 0.2619(2) 0.0991(2) 0.3168(2)
O4_47 O 0.53698(16) 0.12490(17) 0.28854(16)
O6_47 O 0.32266(15) 0.13007(17) 0.37465(17)
C1_72 C 0.1175(4) 0.2710(4) 0.5000
C2_72 C 0.0969(3) 0.2245(4) 0.5000
C3_48 C 0.0712(3) 0.1657(3) 0.4606(3)
H1_48 H 0.0650 0.1519 0.4337
C4_72 C 0.0616(4) 0.1439(4) 0.5000
H2_72 H 0.0492 0.1156 0.5000
C5_48 C 0.1240(3) 0.3364(3) 0.3364(3)
C6_48 C 0.1061(4) 0.3025(3) 0.3025(3)
C7_48 C 0.0852(3) 0.2320(3) 0.2882(3)
H3_48 H 0.0802 0.2029 0.2972
C8_48 C 0.0780(5) 0.2447(3) 0.2447(3)
H4_48 H 0.0684 0.2239 0.2239
C9_48 C 0.0712(3) 0.1657(3) 0.5394(3)
H5_48 H 0.0650 0.1519 0.5663
C10_48 C 0.0852(3) 0.2882(3) 0.2320(3)
H6_48 H 0.0802 0.2972 0.2029
N4_48 N 0.0894(2) 0.2066(2) 0.5393(2)
N6_48 N 0.0991(2) 0.3168(2) 0.2619(2)
O4_48 O 0.12490(17) 0.28854(16) 0.53698(16)
O6_48 O 0.13007(17) 0.37465(17) 0.32266(15)
loop_
_geom_bond_atom_site_label_1
_geom_bond_atom_site_label_2
_geom_bond_site_symmetry_1
_geom_bond_site_symmetry_2
Cd1 N1 1_555 1_555
C1 C2 1_555 1_555
C2 N1 1_555 1_555
C3 H1 1_555 1_555
C4 C3 1_555 1_555
H2 C4 1_555 1_555
C5 C6 1_555 1_555
C6 N2 1_555 1_555
C7 H3 1_555 1_555
C8 C7 1_555 1_555
H4 C8 1_555 1_555
N1 C3 1_555 1_555
N2 Cd1 1_555 1_555
O1 Cd1 1_555 1_555
O2 Cd1 1_555 1_555
Cd3 N6 1_555 1_555
C10 C8 1_555 1_555
H6 C10 1_555 1_555
N3 Cd1 1_555 1_555
N5 Cd1 1_555 1_555
N6 C6 1_555 1_555
O3 Cd1 1_555 1_555
O5 Cd1 1_555 1_555
O6 C5 1_555 1_555
C1 O1 1_555 1_555
C5 O2 1_555 1_555
C7 N2 1_555 1_555
Cd3 O6 1_555 1_555
C10 N6 1_555 1_555
C1_2 C2_2 1_555 1_555
H2_2 C4_2 1_555 1_555
Cd2 N4 1_555 1_555
C9 C4_2 1_555 1_555
H5 C9 1_555 1_555
N4 C2_2 1_555 1_555
O4 C1_2 1_555 1_555
Cd2 O4 1_555 1_555
C9 N4 1_555 1_555
Cd1_2 N1_2 1_555 1_555
C1_3 C2_3 1_555 1_555
C2_3 N1_2 1_555 1_555
C3_2 H1_2 1_555 1_555
C4_3 C3_2 1_555 1_555
H2_3 C4_3 1_555 1_555
C5_2 C6_2 1_555 1_555
C6_2 N2_2 1_555 1_555
C7_2 H3_2 1_555 1_555
C8_2 C7_2 1_555 1_555
H4_2 C8_2 1_555 1_555
N1_2 C3_2 1_555 1_555
N2_2 Cd1_2 1_555 1_555
O1_2 Cd1_2 1_555 1_555
O2_2 Cd1_2 1_555 1_555
Cd3_2 N6_2 1_555 1_555
C10_2 C8_2 1_555 1_555
H6_2 C10_2 1_555 1_555
N3_2 Cd1_2 1_555 1_555
N5_2 Cd1_2 1_555 1_555
N6_2 C6_2 1_555 1_555
O3_2 Cd1_2 1_555 1_555
O5_2 Cd1_2 1_555 1_555
O6_2 C5_2 1_555 1_555
C1_3 O1_2 1_555 1_555
C5_2 O2_2 1_555 1_555
C7_2 N2_2 1_555 1_555
Cd3_2 O6_2 1_555 1_555
C10_2 N6_2 1_555 1_555
C1_4 C2_4 1_555 1_555
H2_4 C4_4 1_555 1_555
Cd2_2 N4_2 1_555 1_555
C9_2 C4_4 1_555 1_555
H5_2 C9_2 1_555 1_555
N4_2 C2_4 1_555 1_555
O4_2 C1_4 1_555 1_555
Cd2_2 O4_2 1_555 1_555
C9_2 N4_2 1_555 1_555
Cd1_3 N1_3 1_555 1_555
C1_5 C2_5 1_555 1_555
C2_5 N1_3 1_555 1_555
C3_3 H1_3 1_555 1_555
C4_5 C3_3 1_555 1_555
H2_5 C4_5 1_555 1_555
C5_3 C6_3 1_555 1_555
C6_3 N2_3 1_555 1_555
C7_3 H3_3 1_555 1_555
C8_3 C7_3 1_555 1_555
H4_3 C8_3 1_555 1_555
N1_3 C3_3 1_555 1_555
N2_3 Cd1_3 1_555 1_555
O1_3 Cd1_3 1_555 1_555
O2_3 Cd1_3 1_555 1_555
Cd3_3 N6_3 1_555 1_555
C10_3 C8_3 1_555 1_555
H6_3 C10_3 1_555 1_555
N3_3 Cd1_3 1_555 1_555
N5_3 Cd1_3 1_555 1_555
N6_3 C6_3 1_555 1_555
O3_3 Cd1_3 1_555 1_555
O5_3 Cd1_3 1_555 1_555
O6_3 C5_3 1_555 1_555
C1_5 O1_3 1_555 1_555
C5_3 O2_3 1_555 1_555
C7_3 N2_3 1_555 1_555
Cd3_3 O6_3 1_555 1_555
C10_3 N6_3 1_555 1_555
C1_6 C2_6 1_555 1_555
H2_6 C4_6 1_555 1_555
Cd2_3 N4_3 1_555 1_555
C9_3 C4_6 1_555 1_555
H5_3 C9_3 1_555 1_555
N4_3 C2_6 1_555 1_555
O4_3 C1_6 1_555 1_555
Cd2_3 O4_3 1_555 1_555
C9_3 N4_3 1_555 1_555
Cd1_4 N1_4 1_555 1_555
C1_7 C2_7 1_555 1_555
C2_7 N1_4 1_555 1_555
C3_4 H1_4 1_555 1_555
C4_7 C3_4 1_555 1_555
H2_7 C4_7 1_555 1_555
C5_4 C6_4 1_555 1_555
C6_4 N2_4 1_555 1_555
C7_4 H3_4 1_555 1_555
C8_4 C7_4 1_555 1_555
H4_4 C8_4 1_555 1_555
N1_4 C3_4 1_555 1_555
N2_4 Cd1_4 1_555 1_555
O1_4 Cd1_4 1_555 1_555
O2_4 Cd1_4 1_555 1_555
Cd3_4 N6_4 1_555 1_555
C10_4 C8_4 1_555 1_555
H6_4 C10_4 1_555 1_555
N3_4 Cd1_4 1_555 1_555
N5_4 Cd1_4 1_555 1_555
N6_4 C6_4 1_555 1_555
O3_4 Cd1_4 1_555 1_555
O5_4 Cd1_4 1_555 1_555
O6_4 C5_4 1_555 1_555
C1_7 O1_4 1_555 1_555
C5_4 O2_4 1_555 1_555
C7_4 N2_4 1_555 1_555
Cd3_4 O6_4 1_555 1_555
C10_4 N6_4 1_555 1_555
C1_8 C2_8 1_555 1_555
H2_8 C4_8 1_555 1_555
Cd2_4 N4_4 1_555 1_555
C9_4 C4_8 1_555 1_555
H5_4 C9_4 1_555 1_555
N4_4 C2_8 1_555 1_555
O4_4 C1_8 1_555 1_555
Cd2_4 O4_4 1_555 1_555
C9_4 N4_4 1_555 1_555
C1_9 C2_9 1_555 1_555
H2_9 C4_9 1_555 1_555
Cd3 N4_5 1_555 1_555
C9_5 C4_9 1_555 1_555
H5_5 C9_5 1_555 1_555
N4_5 C2_9 1_555 1_555
O4_5 C1_9 1_555 1_555
Cd3 O4_5 1_555 1_555
C9_5 N4_5 1_555 1_555
Cd1_5 N1_5 1_555 1_555
C1_10 C2_10 1_555 1_555
C2_10 N1_5 1_555 1_555
C3_5 H1_5 1_555 1_555
C4_10 C3_5 1_555 1_555
H2_10 C4_10 1_555 1_555
C5_5 C6_5 1_555 1_555
C6_5 N2_5 1_555 1_555
C7_5 H3_5 1_555 1_555
C8_5 C7_5 1_555 1_555
H4_5 C8_5 1_555 1_555
N1_5 C3_5 1_555 1_555
N2_5 Cd1_5 1_555 1_555
O1_5 Cd1_5 1_555 1_555
O2_5 Cd1_5 1_555 1_555
Cd3_5 N6_5 1_555 1_555
C10_5 C8_5 1_555 1_555
H6_5 C10_5 1_555 1_555
N3_5 Cd1_5 1_555 1_555
N5_5 Cd1_5 1_555 1_555
N6_5 C6_5 1_555 1_555
O3_5 Cd1_5 1_555 1_555
O5_5 Cd1_5 1_555 1_555
O6_5 C5_5 1_555 1_555
C1_10 O1_5 1_555 1_555
C5_5 O2_5 1_555 1_555
C7_5 N2_5 1_555 1_555
Cd3_5 O6_5 1_555 1_555
C10_5 N6_5 1_555 1_555
Cd1_6 N1_6 1_555 1_555
C1_11 C2_11 1_555 1_555
C2_11 N1_6 1_555 1_555
C3_6 H1_6 1_555 1_555
C4_11 C3_6 1_555 1_555
H2_11 C4_11 1_555 1_555
C5_6 C6_6 1_555 1_555
C6_6 N2_6 1_555 1_555
C7_6 H3_6 1_555 1_555
C8_6 C7_6 1_555 1_555
H4_6 C8_6 1_555 1_555
N1_6 C3_6 1_555 1_555
N2_6 Cd1_6 1_555 1_555
O1_6 Cd1_6 1_555 1_555
O2_6 Cd1_6 1_555 1_555
Cd2 N6_6 1_555 1_555
C10_6 C8_6 1_555 1_555
H6_6 C10_6 1_555 1_555
N3_6 Cd1_6 1_555 1_555
N5_6 Cd1_6 1_555 1_555
N6_6 C6_6 1_555 1_555
O3_6 Cd1_6 1_555 1_555
O5_6 Cd1_6 1_555 1_555
O6_6 C5_6 1_555 1_555
C1_11 O1_6 1_555 1_555
C5_6 O2_6 1_555 1_555
C7_6 N2_6 1_555 1_555
Cd2 O6_6 1_555 1_555
C10_6 N6_6 1_555 1_555
C1_12 C2_12 1_555 1_555
H2_12 C4_12 1_555 1_555
Cd2_5 N4_6 1_555 1_555
C9_6 C4_12 1_555 1_555
H5_6 C9_6 1_555 1_555
N4_6 C2_12 1_555 1_555
O4_6 C1_12 1_555 1_555
Cd2_5 O4_6 1_555 1_555
C9_6 N4_6 1_555 1_555
Cd1_7 N1_7 1_555 1_555
C1_13 C2_13 1_555 1_555
C2_13 N1_7 1_555 1_555
C3_7 H1_7 1_555 1_555
C4_13 C3_7 1_555 1_555
H2_13 C4_13 1_555 1_555
C5_7 C6_7 1_555 1_555
C6_7 N2_7 1_555 1_555
C7_7 H3_7 1_555 1_555
C8_7 C7_7 1_555 1_555
H4_7 C8_7 1_555 1_555
N1_7 C3_7 1_555 1_555
N2_7 Cd1_7 1_555 1_555
O1_7 Cd1_7 1_555 1_555
O2_7 Cd1_7 1_555 1_555
Cd2_3 N6_7 1_555 1_555
C10_7 C8_7 1_555 1_555
H6_7 C10_7 1_555 1_555
N3_7 Cd1_7 1_555 1_555
N5_7 Cd1_7 1_555 1_555
N6_7 C6_7 1_555 1_555
O3_7 Cd1_7 1_555 1_555
O5_7 Cd1_7 1_555 1_555
O6_7 C5_7 1_555 1_555
C1_13 O1_7 1_555 1_555
C5_7 O2_7 1_555 1_555
C7_7 N2_7 1_555 1_555
Cd2_3 O6_7 1_555 1_555
C10_7 N6_7 1_555 1_555
C1_14 C2_14 1_555 1_555
H2_14 C4_14 1_555 1_555
Cd2_6 N4_7 1_555 1_555
C9_7 C4_14 1_555 1_555
H5_7 C9_7 1_555 1_555
N4_7 C2_14 1_555 1_555
O4_7 C1_14 1_555 1_555
Cd2_6 O4_7 1_555 1_555
C9_7 N4_7 1_555 1_555
C1_15 C2_15 1_555 1_555
H2_15 C4_15 1_555 1_555
Cd3_3 N4_8 1_555 1_555
C9_8 C4_15 1_555 1_555
H5_8 C9_8 1_555 1_555
N4_8 C2_15 1_555 1_555
O4_8 C1_15 1_555 1_555
Cd3_3 O4_8 1_555 1_555
C9_8 N4_8 1_555 1_555
Cd1_8 N1_8 1_555 1_555
C1_16 C2_16 1_555 1_555
C2_16 N1_8 1_555 1_555
C3_8 H1_8 1_555 1_555
C4_16 C3_8 1_555 1_555
H2_16 C4_16 1_555 1_555
C5_8 C6_8 1_555 1_555
C6_8 N2_8 1_555 1_555
C7_8 H3_8 1_555 1_555
C8_8 C7_8 1_555 1_555
H4_8 C8_8 1_555 1_555
N1_8 C3_8 1_555 1_555
N2_8 Cd1_8 1_555 1_555
O1_8 Cd1_8 1_555 1_555
O2_8 Cd1_8 1_555 1_555
Cd3_6 N6_8 1_555 1_555
C10_8 C8_8 1_555 1_555
H6_8 C10_8 1_555 1_555
N3_8 Cd1_8 1_555 1_555
N5_8 Cd1_8 1_555 1_555
N6_8 C6_8 1_555 1_555
O3_8 Cd1_8 1_555 1_555
O5_8 Cd1_8 1_555 1_555
O6_8 C5_8 1_555 1_555
C1_16 O1_8 1_555 1_555
C5_8 O2_8 1_555 1_555
C7_8 N2_8 1_555 1_555
Cd3_6 O6_8 1_555 1_555
C10_8 N6_8 1_555 1_555
Cd1_9 N1_9 1_555 1_555
C1_17 C2_17 1_555 1_555
C2_17 N1_9 1_555 1_555
C3_9 H1_9 1_555 1_555
C4_17 C3_9 1_555 1_555
H2_17 C4_17 1_555 1_555
C5_9 C6_9 1_555 1_555
C6_9 N2_9 1_555 1_555
C7_9 H3_9 1_555 1_555
C8_9 C7_9 1_555 1_555
H4_9 C8_9 1_555 1_555
N1_9 C3_9 1_555 1_555
N2_9 Cd1_9 1_555 1_555
O1_9 Cd1_9 1_555 1_555
O2_9 Cd1_9 1_555 1_555
Cd3_7 N6_9 1_555 1_555
C10_9 C8_9 1_555 1_555
H6_9 C10_9 1_555 1_555
N3_9 Cd1_9 1_555 1_555
N5_9 Cd1_9 1_555 1_555
N6_9 C6_9 1_555 1_555
O3_9 Cd1_9 1_555 1_555
O5_9 Cd1_9 1_555 1_555
O6_9 C5_9 1_555 1_555
C1_17 O1_9 1_555 1_555
C5_9 O2_9 1_555 1_555
C7_9 N2_9 1_555 1_555
Cd3_7 O6_9 1_555 1_555
C10_9 N6_9 1_555 1_555
C1_18 C2_18 1_555 1_555
H2_18 C4_18 1_555 1_555
Cd2_7 N4_9 1_555 1_555
C9_9 C4_18 1_555 1_555
H5_9 C9_9 1_555 1_555
N4_9 C2_18 1_555 1_555
O4_9 C1_18 1_555 1_555
Cd2_7 O4_9 1_555 1_555
C9_9 N4_9 1_555 1_555
C1_19 C2_19 1_555 1_555
H2_19 C4_19 1_555 1_555
Cd3_2 N4_10 1_555 1_555
C9_10 C4_19 1_555 1_555
H5_10 C9_10 1_555 1_555
N4_10 C2_19 1_555 1_555
O4_10 C1_19 1_555 1_555
Cd3_2 O4_10 1_555 1_555
C9_10 N4_10 1_555 1_555
Cd1_10 N1_10 1_555 1_555
C1_20 C2_20 1_555 1_555
C2_20 N1_10 1_555 1_555
C3_10 H1_10 1_555 1_555
C4_20 C3_10 1_555 1_555
H2_20 C4_20 1_555 1_555
C5_10 C6_10 1_555 1_555
C6_10 N2_10 1_555 1_555
C7_10 H3_10 1_555 1_555
C8_10 C7_10 1_555 1_555
H4_10 C8_10 1_555 1_555
N1_10 C3_10 1_555 1_555
N2_10 Cd1_10 1_555 1_555
O1_10 Cd1_10 1_555 1_555
O2_10 Cd1_10 1_555 1_555
Cd3_8 N6_10 1_555 1_555
C10_10 C8_10 1_555 1_555
H6_10 C10_10 1_555 1_555
N3_10 Cd1_10 1_555 1_555
N5_10 Cd1_10 1_555 1_555
N6_10 C6_10 1_555 1_555
O3_10 Cd1_10 1_555 1_555
O5_10 Cd1_10 1_555 1_555
O6_10 C5_10 1_555 1_555
C1_20 O1_10 1_555 1_555
C5_10 O2_10 1_555 1_555
C7_10 N2_10 1_555 1_555
Cd3_8 O6_10 1_555 1_555
C10_10 N6_10 1_555 1_555
Cd1_11 N1_11 1_555 1_555
C1_21 C2_21 1_555 1_555
C2_21 N1_11 1_555 1_555
C3_11 H1_11 1_555 1_555
C4_21 C3_11 1_555 1_555
H2_21 C4_21 1_555 1_555
C5_11 C6_11 1_555 1_555
C6_11 N2_11 1_555 1_555
C7_11 H3_11 1_555 1_555
C8_11 C7_11 1_555 1_555
H4_11 C8_11 1_555 1_555
N1_11 C3_11 1_555 1_555
N2_11 Cd1_11 1_555 1_555
O1_11 Cd1_11 1_555 1_555
O2_11 Cd1_11 1_555 1_555
Cd2_2 N6_11 1_555 1_555
C10_11 C8_11 1_555 1_555
H6_11 C10_11 1_555 1_555
N3_11 Cd1_11 1_555 1_555
N5_11 Cd1_11 1_555 1_555
N6_11 C6_11 1_555 1_555
O3_11 Cd1_11 1_555 1_555
O5_11 Cd1_11 1_555 1_555
O6_11 C5_11 1_555 1_555
C1_21 O1_11 1_555 1_555
C5_11 O2_11 1_555 1_555
C7_11 N2_11 1_555 1_555
Cd2_2 O6_11 1_555 1_555
C10_11 N6_11 1_555 1_555
C1_22 C2_22 1_555 1_555
H2_22 C4_22 1_555 1_555
Cd2_8 N4_11 1_555 1_555
C9_11 C4_22 1_555 1_555
H5_11 C9_11 1_555 1_555
N4_11 C2_22 1_555 1_555
O4_11 C1_22 1_555 1_555
Cd2_8 O4_11 1_555 1_555
C9_11 N4_11 1_555 1_555
Cd1_12 N1_12 1_555 1_555
C1_23 C2_23 1_555 1_555
C2_23 N1_12 1_555 1_555
C3_12 H1_12 1_555 1_555
C4_23 C3_12 1_555 1_555
H2_23 C4_23 1_555 1_555
C5_12 C6_12 1_555 1_555
C6_12 N2_12 1_555 1_555
C7_12 H3_12 1_555 1_555
C8_12 C7_12 1_555 1_555
H4_12 C8_12 1_555 1_555
N1_12 C3_12 1_555 1_555
N2_12 Cd1_12 1_555 1_555
O1_12 Cd1_12 1_555 1_555
O2_12 Cd1_12 1_555 1_555
Cd3_9 N6_12 1_555 1_555
C10_12 C8_12 1_555 1_555
H6_12 C10_12 1_555 1_555
N3_12 Cd1_12 1_555 1_555
N5_12 Cd1_12 1_555 1_555
N6_12 C6_12 1_555 1_555
O3_12 Cd1_12 1_555 1_555
O5_12 Cd1_12 1_555 1_555
O6_12 C5_12 1_555 1_555
C1_23 O1_12 1_555 1_555
C5_12 O2_12 1_555 1_555
C7_12 N2_12 1_555 1_555
Cd3_9 O6_12 1_555 1_555
C10_12 N6_12 1_555 1_555
C1_24 C2_24 1_555 1_555
H2_24 C4_24 1_555 1_555
Cd2_9 N4_12 1_555 1_555
C9_12 C4_24 1_555 1_555
H5_12 C9_12 1_555 1_555
N4_12 C2_24 1_555 1_555
O4_12 C1_24 1_555 1_555
Cd2_9 O4_12 1_555 1_555
C9_12 N4_12 1_555 1_555
Cd1_13 N1_13 1_555 1_555
C1_25 C2_25 1_555 1_555
C2_25 N1_13 1_555 1_555
C3_13 H1_13 1_555 1_555
C4_25 C3_13 1_555 1_555
H2_25 C4_25 1_555 1_555
C5_13 C6_13 1_555 1_555
C6_13 N2_13 1_555 1_555
C7_13 H3_13 1_555 1_555
C8_13 C7_13 1_555 1_555
H4_13 C8_13 1_555 1_555
N1_13 C3_13 1_555 1_555
N2_13 Cd1_13 1_555 1_555
O1_13 Cd1_13 1_555 1_555
O2_13 Cd1_13 1_555 1_555
Cd2_8 N4_13 1_555 1_555
Cd3_10 N6_13 1_555 1_555
C9_13 C4_25 1_555 1_555
H5_13 C9_13 1_555 1_555
C10_13 C8_13 1_555 1_555
H6_13 C10_13 1_555 1_555
N3_13 Cd1_13 1_555 1_555
N4_13 C2_25 1_555 1_555
N5_13 Cd1_13 1_555 1_555
N6_13 C6_13 1_555 1_555
O3_13 Cd1_13 1_555 1_555
O4_13 C1_25 1_555 1_555
O5_13 Cd1_13 1_555 1_555
O6_13 C5_13 1_555 1_555
C1_25 O1_13 1_555 1_555
C5_13 O2_13 1_555 1_555
C7_13 N2_13 1_555 1_555
Cd2_8 O4_13 1_555 1_555
Cd3_10 O6_13 1_555 1_555
C9_13 N4_13 1_555 1_555
C10_13 N6_13 1_555 1_555
Cd1_14 N1_14 1_555 1_555
C1_26 C2_26 1_555 1_555
C2_26 N1_14 1_555 1_555
C3_14 H1_14 1_555 1_555
C4_26 C3_14 1_555 1_555
H2_26 C4_26 1_555 1_555
C5_14 C6_14 1_555 1_555
C6_14 N2_14 1_555 1_555
C7_14 H3_14 1_555 1_555
C8_14 C7_14 1_555 1_555
H4_14 C8_14 1_555 1_555
N1_14 C3_14 1_555 1_555
N2_14 Cd1_14 1_555 1_555
O1_14 Cd1_14 1_555 1_555
O2_14 Cd1_14 1_555 1_555
Cd2_6 N4_14 1_555 1_555
Cd3_11 N6_14 1_555 1_555
C9_14 C4_26 1_555 1_555
H5_14 C9_14 1_555 1_555
C10_14 C8_14 1_555 1_555
H6_14 C10_14 1_555 1_555
N3_14 Cd1_14 1_555 1_555
N4_14 C2_26 1_555 1_555
N5_14 Cd1_14 1_555 1_555
N6_14 C6_14 1_555 1_555
O3_14 Cd1_14 1_555 1_555
O4_14 C1_26 1_555 1_555
O5_14 Cd1_14 1_555 1_555
O6_14 C5_14 1_555 1_555
C1_26 O1_14 1_555 1_555
C5_14 O2_14 1_555 1_555
C7_14 N2_14 1_555 1_555
Cd2_6 O4_14 1_555 1_555
Cd3_11 O6_14 1_555 1_555
C9_14 N4_14 1_555 1_555
C10_14 N6_14 1_555 1_555
Cd1_15 N1_15 1_555 1_555
C1_27 C2_27 1_555 1_555
C2_27 N1_15 1_555 1_555
C3_15 H1_15 1_555 1_555
C4_27 C3_15 1_555 1_555
H2_27 C4_27 1_555 1_555
C5_15 C6_15 1_555 1_555
C6_15 N2_15 1_555 1_555
C7_15 H3_15 1_555 1_555
C8_15 C7_15 1_555 1_555
H4_15 C8_15 1_555 1_555
N1_15 C3_15 1_555 1_555
N2_15 Cd1_15 1_555 1_555
O1_15 Cd1_15 1_555 1_555
O2_15 Cd1_15 1_555 1_555
Cd2_5 N4_15 1_555 1_555
Cd3_12 N6_15 1_555 1_555
C9_15 C4_27 1_555 1_555
H5_15 C9_15 1_555 1_555
C10_15 C8_15 1_555 1_555
H6_15 C10_15 1_555 1_555
N3_15 Cd1_15 1_555 1_555
N4_15 C2_27 1_555 1_555
N5_15 Cd1_15 1_555 1_555
N6_15 C6_15 1_555 1_555
O3_15 Cd1_15 1_555 1_555
O4_15 C1_27 1_555 1_555
O5_15 Cd1_15 1_555 1_555
O6_15 C5_15 1_555 1_555
C1_27 O1_15 1_555 1_555
C5_15 O2_15 1_555 1_555
C7_15 N2_15 1_555 1_555
Cd2_5 O4_15 1_555 1_555
Cd3_12 O6_15 1_555 1_555
C9_15 N4_15 1_555 1_555
C10_15 N6_15 1_555 1_555
Cd1_16 N1_16 1_555 1_555
C1_28 C2_28 1_555 1_555
C2_28 N1_16 1_555 1_555
C3_16 H1_16 1_555 1_555
C4_28 C3_16 1_555 1_555
H2_28 C4_28 1_555 1_555
C5_16 C6_16 1_555 1_555
C6_16 N2_16 1_555 1_555
C7_16 H3_16 1_555 1_555
C8_16 C7_16 1_555 1_555
H4_16 C8_16 1_555 1_555
N1_16 C3_16 1_555 1_555
N2_16 Cd1_16 1_555 1_555
O1_16 Cd1_16 1_555 1_555
O2_16 Cd1_16 1_555 1_555
Cd3_6 N4_16 1_555 1_555
Cd3_13 N6_16 1_555 1_555
C9_16 C4_28 1_555 1_555
H5_16 C9_16 1_555 1_555
C10_16 C8_16 1_555 1_555
H6_16 C10_16 1_555 1_555
N3_16 Cd1_16 1_555 1_555
N4_16 C2_28 1_555 1_555
N5_16 Cd1_16 1_555 1_555
N6_16 C6_16 1_555 1_555
O3_16 Cd1_16 1_555 1_555
O4_16 C1_28 1_555 1_555
O5_16 Cd1_16 1_555 1_555
O6_16 C5_16 1_555 1_555
C1_28 O1_16 1_555 1_555
C5_16 O2_16 1_555 1_555
C7_16 N2_16 1_555 1_555
Cd3_6 O4_16 1_555 1_555
Cd3_13 O6_16 1_555 1_555
C9_16 N4_16 1_555 1_555
C10_16 N6_16 1_555 1_555
Cd1_17 N1_17 1_555 1_555
C1_29 C2_29 1_555 1_555
C2_29 N1_17 1_555 1_555
C3_17 H1_17 1_555 1_555
C4_29 C3_17 1_555 1_555
H2_29 C4_29 1_555 1_555
C5_17 C6_17 1_555 1_555
C6_17 N2_17 1_555 1_555
C7_17 H3_17 1_555 1_555
C8_17 C7_17 1_555 1_555
H4_17 C8_17 1_555 1_555
N1_17 C3_17 1_555 1_555
N2_17 Cd1_17 1_555 1_555
O1_17 Cd1_17 1_555 1_555
O2_17 Cd1_17 1_555 1_555
Cd3_10 N4_17 1_555 1_555
Cd2_9 N6_17 1_555 1_555
C9_17 C4_29 1_555 1_555
H5_17 C9_17 1_555 1_555
C10_17 C8_17 1_555 1_555
H6_17 C10_17 1_555 1_555
N3_17 Cd1_17 1_555 1_555
N4_17 C2_29 1_555 1_555
N5_17 Cd1_17 1_555 1_555
N6_17 C6_17 1_555 1_555
O3_17 Cd1_17 1_555 1_555
O4_17 C1_29 1_555 1_555
O5_17 Cd1_17 1_555 1_555
O6_17 C5_17 1_555 1_555
C1_29 O1_17 1_555 1_555
C5_17 O2_17 1_555 1_555
C7_17 N2_17 1_555 1_555
Cd3_10 O4_17 1_555 1_555
Cd2_9 O6_17 1_555 1_555
C9_17 N4_17 1_555 1_555
C10_17 N6_17 1_555 1_555
Cd1_18 N1_18 1_555 1_555
C1_30 C2_30 1_555 1_555
C2_30 N1_18 1_555 1_555
C3_18 H1_18 1_555 1_555
C4_30 C3_18 1_555 1_555
H2_30 C4_30 1_555 1_555
C5_18 C6_18 1_555 1_555
C6_18 N2_18 1_555 1_555
C7_18 H3_18 1_555 1_555
C8_18 C7_18 1_555 1_555
H4_18 C8_18 1_555 1_555
N1_18 C3_18 1_555 1_555
N2_18 Cd1_18 1_555 1_555
O1_18 Cd1_18 1_555 1_555
O2_18 Cd1_18 1_555 1_555
Cd2_3 N4_18 1_555 1_555
Cd2_8 N6_18 1_555 1_555
C9_18 C4_30 1_555 1_555
H5_18 C9_18 1_555 1_555
C10_18 C8_18 1_555 1_555
H6_18 C10_18 1_555 1_555
N3_18 Cd1_18 1_555 1_555
N4_18 C2_30 1_555 1_555
N5_18 Cd1_18 1_555 1_555
N6_18 C6_18 1_555 1_555
O3_18 Cd1_18 1_555 1_555
O4_18 C1_30 1_555 1_555
O5_18 Cd1_18 1_555 1_555
O6_18 C5_18 1_555 1_555
C1_30 O1_18 1_555 1_555
C5_18 O2_18 1_555 1_555
C7_18 N2_18 1_555 1_555
Cd2_3 O4_18 1_555 1_555
Cd2_8 O6_18 1_555 1_555
C9_18 N4_18 1_555 1_555
C10_18 N6_18 1_555 1_555
Cd1_19 N1_19 1_555 1_555
C1_31 C2_31 1_555 1_555
C2_31 N1_19 1_555 1_555
C3_19 H1_19 1_555 1_555
C4_31 C3_19 1_555 1_555
H2_31 C4_31 1_555 1_555
C5_19 C6_19 1_555 1_555
C6_19 N2_19 1_555 1_555
C7_19 H3_19 1_555 1_555
C8_19 C7_19 1_555 1_555
H4_19 C8_19 1_555 1_555
N1_19 C3_19 1_555 1_555
N2_19 Cd1_19 1_555 1_555
O1_19 Cd1_19 1_555 1_555
O2_19 Cd1_19 1_555 1_555
Cd2_2 N4_19 1_555 1_555
Cd2_5 N6_19 1_555 1_555
C9_19 C4_31 1_555 1_555
H5_19 C9_19 1_555 1_555
C10_19 C8_19 1_555 1_555
H6_19 C10_19 1_555 1_555
N3_19 Cd1_19 1_555 1_555
N4_19 C2_31 1_555 1_555
N5_19 Cd1_19 1_555 1_555
N6_19 C6_19 1_555 1_555
O3_19 Cd1_19 1_555 1_555
O4_19 C1_31 1_555 1_555
O5_19 Cd1_19 1_555 1_555
O6_19 C5_19 1_555 1_555
C1_31 O1_19 1_555 1_555
C5_19 O2_19 1_555 1_555
C7_19 N2_19 1_555 1_555
Cd2_2 O4_19 1_555 1_555
Cd2_5 O6_19 1_555 1_555
C9_19 N4_19 1_555 1_555
C10_19 N6_19 1_555 1_555
Cd1_20 N1_20 1_555 1_555
C1_32 C2_32 1_555 1_555
C2_32 N1_20 1_555 1_555
C3_20 H1_20 1_555 1_555
C4_32 C3_20 1_555 1_555
H2_32 C4_32 1_555 1_555
C5_20 C6_20 1_555 1_555
C6_20 N2_20 1_555 1_555
C7_20 H3_20 1_555 1_555
C8_20 C7_20 1_555 1_555
H4_20 C8_20 1_555 1_555
N1_20 C3_20 1_555 1_555
N2_20 Cd1_20 1_555 1_555
O1_20 Cd1_20 1_555 1_555
O2_20 Cd1_20 1_555 1_555
Cd3_12 N4_20 1_555 1_555
Cd2_4 N6_20 1_555 1_555
C9_20 C4_32 1_555 1_555
H5_20 C9_20 1_555 1_555
C10_20 C8_20 1_555 1_555
H6_20 C10_20 1_555 1_555
N3_20 Cd1_20 1_555 1_555
N4_20 C2_32 1_555 1_555
N5_20 Cd1_20 1_555 1_555
N6_20 C6_20 1_555 1_555
O3_20 Cd1_20 1_555 1_555
O4_20 C1_32 1_555 1_555
O5_20 Cd1_20 1_555 1_555
O6_20 C5_20 1_555 1_555
C1_32 O1_20 1_555 1_555
C5_20 O2_20 1_555 1_555
C7_20 N2_20 1_555 1_555
Cd3_12 O4_20 1_555 1_555
Cd2_4 O6_20 1_555 1_555
C9_20 N4_20 1_555 1_555
C10_20 N6_20 1_555 1_555
Cd1_21 N1_21 1_555 1_555
C1_33 C2_33 1_555 1_555
C2_33 N1_21 1_555 1_555
C3_21 H1_21 1_555 1_555
C4_33 C3_21 1_555 1_555
H2_33 C4_33 1_555 1_555
C5_21 C6_21 1_555 1_555
C6_21 N2_21 1_555 1_555
C7_21 H3_21 1_555 1_555
C8_21 C7_21 1_555 1_555
H4_21 C8_21 1_555 1_555
N1_21 C3_21 1_555 1_555
N2_21 Cd1_21 1_555 1_555
O1_21 Cd1_21 1_555 1_555
O2_21 Cd1_21 1_555 1_555
Cd3_8 N4_21 1_555 1_555
Cd3_14 N6_21 1_555 1_555
C9_21 C4_33 1_555 1_555
H5_21 C9_21 1_555 1_555
C10_21 C8_21 1_555 1_555
H6_21 C10_21 1_555 1_555
N3_21 Cd1_21 1_555 1_555
N4_21 C2_33 1_555 1_555
N5_21 Cd1_21 1_555 1_555
N6_21 C6_21 1_555 1_555
O3_21 Cd1_21 1_555 1_555
O4_21 C1_33 1_555 1_555
O5_21 Cd1_21 1_555 1_555
O6_21 C5_21 1_555 1_555
C1_33 O1_21 1_555 1_555
C5_21 O2_21 1_555 1_555
C7_21 N2_21 1_555 1_555
Cd3_8 O4_21 1_555 1_555
Cd3_14 O6_21 1_555 1_555
C9_21 N4_21 1_555 1_555
C10_21 N6_21 1_555 1_555
Cd1_22 N1_22 1_555 1_555
C1_34 C2_34 1_555 1_555
C2_34 N1_22 1_555 1_555
C3_22 H1_22 1_555 1_555
C4_34 C3_22 1_555 1_555
H2_34 C4_34 1_555 1_555
C5_22 C6_22 1_555 1_555
C6_22 N2_22 1_555 1_555
C7_22 H3_22 1_555 1_555
C8_22 C7_22 1_555 1_555
H4_22 C8_22 1_555 1_555
N1_22 C3_22 1_555 1_555
N2_22 Cd1_22 1_555 1_555
O1_22 Cd1_22 1_555 1_555
O2_22 Cd1_22 1_555 1_555
Cd3_11 N4_22 1_555 1_555
Cd2_7 N6_22 1_555 1_555
C9_22 C4_34 1_555 1_555
H5_22 C9_22 1_555 1_555
C10_22 C8_22 1_555 1_555
H6_22 C10_22 1_555 1_555
N3_22 Cd1_22 1_555 1_555
N4_22 C2_34 1_555 1_555
N5_22 Cd1_22 1_555 1_555
N6_22 C6_22 1_555 1_555
O3_22 Cd1_22 1_555 1_555
O4_22 C1_34 1_555 1_555
O5_22 Cd1_22 1_555 1_555
O6_22 C5_22 1_555 1_555
C1_34 O1_22 1_555 1_555
C5_22 O2_22 1_555 1_555
C7_22 N2_22 1_555 1_555
Cd3_11 O4_22 1_555 1_555
Cd2_7 O6_22 1_555 1_555
C9_22 N4_22 1_555 1_555
C10_22 N6_22 1_555 1_555
Cd1_23 N1_23 1_555 1_555
C1_35 C2_35 1_555 1_555
C2_35 N1_23 1_555 1_555
C3_23 H1_23 1_555 1_555
C4_35 C3_23 1_555 1_555
H2_35 C4_35 1_555 1_555
C5_23 C6_23 1_555 1_555
C6_23 N2_23 1_555 1_555
C7_23 H3_23 1_555 1_555
C8_23 C7_23 1_555 1_555
H4_23 C8_23 1_555 1_555
N1_23 C3_23 1_555 1_555
N2_23 Cd1_23 1_555 1_555
O1_23 Cd1_23 1_555 1_555
O2_23 Cd1_23 1_555 1_555
Cd2 N4_23 1_555 1_555
Cd2_6 N6_23 1_555 1_555
C9_23 C4_35 1_555 1_555
H5_23 C9_23 1_555 1_555
C10_23 C8_23 1_555 1_555
H6_23 C10_23 1_555 1_555
N3_23 Cd1_23 1_555 1_555
N4_23 C2_35 1_555 1_555
N5_23 Cd1_23 1_555 1_555
N6_23 C6_23 1_555 1_555
O3_23 Cd1_23 1_555 1_555
O4_23 C1_35 1_555 1_555
O5_23 Cd1_23 1_555 1_555
O6_23 C5_23 1_555 1_555
C1_35 O1_23 1_555 1_555
C5_23 O2_23 1_555 1_555
C7_23 N2_23 1_555 1_555
Cd2 O4_23 1_555 1_555
Cd2_6 O6_23 1_555 1_555
C9_23 N4_23 1_555 1_555
C10_23 N6_23 1_555 1_555
Cd1_24 N1_24 1_555 1_555
C1_36 C2_36 1_555 1_555
C2_36 N1_24 1_555 1_555
C3_24 H1_24 1_555 1_555
C4_36 C3_24 1_555 1_555
H2_36 C4_36 1_555 1_555
C5_24 C6_24 1_555 1_555
C6_24 N2_24 1_555 1_555
C7_24 H3_24 1_555 1_555
C8_24 C7_24 1_555 1_555
H4_24 C8_24 1_555 1_555
N1_24 C3_24 1_555 1_555
N2_24 Cd1_24 1_555 1_555
O1_24 Cd1_24 1_555 1_555
O2_24 Cd1_24 1_555 1_555
Cd3_5 N4_24 1_555 1_555
Cd3_15 N6_24 1_555 1_555
C9_24 C4_36 1_555 1_555
H5_24 C9_24 1_555 1_555
C10_24 C8_24 1_555 1_555
H6_24 C10_24 1_555 1_555
N3_24 Cd1_24 1_555 1_555
N4_24 C2_36 1_555 1_555
N5_24 Cd1_24 1_555 1_555
N6_24 C6_24 1_555 1_555
O3_24 Cd1_24 1_555 1_555
O4_24 C1_36 1_555 1_555
O5_24 Cd1_24 1_555 1_555
O6_24 C5_24 1_555 1_555
C1_36 O1_24 1_555 1_555
C5_24 O2_24 1_555 1_555
C7_24 N2_24 1_555 1_555
Cd3_5 O4_24 1_555 1_555
Cd3_15 O6_24 1_555 1_555
C9_24 N4_24 1_555 1_555
C10_24 N6_24 1_555 1_555
C1_37 C2_37 1_555 1_555
H2_37 C4_37 1_555 1_555
Cd3_5 N4_25 1_555 1_555
C9_25 C4_37 1_555 1_555
H5_25 C9_25 1_555 1_555
N4_25 C2_37 1_555 1_555
O4_25 C1_37 1_555 1_555
Cd3_5 O4_25 1_555 1_555
C9_25 N4_25 1_555 1_555
C1_38 C2_38 1_555 1_555
C2_38 N3_22 1_555 1_555
C3_25 H1_25 1_555 1_555
C4_38 C3_25 1_555 1_555
H2_38 C4_38 1_555 1_555
C5_25 C6_25 1_555 1_555
C6_25 N5_22 1_555 1_555
C7_25 H3_25 1_555 1_555
C8_25 C7_25 1_555 1_555
H4_25 C8_25 1_555 1_555
N3_22 C3_25 1_555 1_555
Cd2_5 N6_25 1_555 1_555
C10_25 C8_25 1_555 1_555
H6_25 C10_25 1_555 1_555
N6_25 C6_25 1_555 1_555
O6_25 C5_25 1_555 1_555
C1_38 O3_22 1_555 1_555
C5_25 O5_22 1_555 1_555
C7_25 N5_22 1_555 1_555
Cd2_5 O6_25 1_555 1_555
C10_25 N6_25 1_555 1_555
C1_39 C2_39 1_555 1_555
H2_39 C4_39 1_555 1_555
Cd3_4 N4_26 1_555 1_555
C9_26 C4_39 1_555 1_555
H5_26 C9_26 1_555 1_555
N4_26 C2_39 1_555 1_555
O4_26 C1_39 1_555 1_555
Cd3_4 O4_26 1_555 1_555
C9_26 N4_26 1_555 1_555
C1_40 C2_40 1_555 1_555
C2_40 N3_23 1_555 1_555
C3_26 H1_26 1_555 1_555
C4_40 C3_26 1_555 1_555
H2_40 C4_40 1_555 1_555
C5_26 C6_26 1_555 1_555
C6_26 N5_23 1_555 1_555
C7_26 H3_26 1_555 1_555
C8_26 C7_26 1_555 1_555
H4_26 C8_26 1_555 1_555
N3_23 C3_26 1_555 1_555
Cd3_14 N6_26 1_555 1_555
C10_26 C8_26 1_555 1_555
H6_26 C10_26 1_555 1_555
N6_26 C6_26 1_555 1_555
O6_26 C5_26 1_555 1_555
C1_40 O3_23 1_555 1_555
C5_26 O5_23 1_555 1_555
C7_26 N5_23 1_555 1_555
Cd3_14 O6_26 1_555 1_555
C10_26 N6_26 1_555 1_555
C1_41 C2_41 1_555 1_555
C2_41 N3_24 1_555 1_555
C3_27 H1_27 1_555 1_555
C4_41 C3_27 1_555 1_555
H2_41 C4_41 1_555 1_555
C5_27 C6_27 1_555 1_555
C6_27 N5_24 1_555 1_555
C7_27 H3_27 1_555 1_555
C8_27 C7_27 1_555 1_555
H4_27 C8_27 1_555 1_555
N3_24 C3_27 1_555 1_555
Cd2_4 N6_27 1_555 1_555
C10_27 C8_27 1_555 1_555
H6_27 C10_27 1_555 1_555
N6_27 C6_27 1_555 1_555
O6_27 C5_27 1_555 1_555
C1_41 O3_24 1_555 1_555
C5_27 O5_24 1_555 1_555
C7_27 N5_24 1_555 1_555
Cd2_4 O6_27 1_555 1_555
C10_27 N6_27 1_555 1_555
C1_42 C2_42 1_555 1_555
H2_42 C4_42 1_555 1_555
Cd3_11 N4_27 1_555 1_555
C9_27 C4_42 1_555 1_555
H5_27 C9_27 1_555 1_555
N4_27 C2_42 1_555 1_555
O4_27 C1_42 1_555 1_555
Cd3_11 O4_27 1_555 1_555
C9_27 N4_27 1_555 1_555
C1_43 C2_43 1_555 1_555
H2_43 C4_43 1_555 1_555
Cd3_8 N4_28 1_555 1_555
C9_28 C4_43 1_555 1_555
H5_28 C9_28 1_555 1_555
N4_28 C2_43 1_555 1_555
O4_28 C1_43 1_555 1_555
Cd3_8 O4_28 1_555 1_555
C9_28 N4_28 1_555 1_555
C1_44 C2_44 1_555 1_555
C2_44 N3_20 1_555 1_555
C3_28 H1_28 1_555 1_555
C4_44 C3_28 1_555 1_555
H2_44 C4_44 1_555 1_555
C5_28 C6_28 1_555 1_555
C6_28 N5_20 1_555 1_555
C7_28 H3_28 1_555 1_555
C8_28 C7_28 1_555 1_555
H4_28 C8_28 1_555 1_555
N3_20 C3_28 1_555 1_555
Cd2_8 N6_28 1_555 1_555
C10_28 C8_28 1_555 1_555
H6_28 C10_28 1_555 1_555
N6_28 C6_28 1_555 1_555
O6_28 C5_28 1_555 1_555
C1_44 O3_20 1_555 1_555
C5_28 O5_20 1_555 1_555
C7_28 N5_20 1_555 1_555
Cd2_8 O6_28 1_555 1_555
C10_28 N6_28 1_555 1_555
C1_45 C2_45 1_555 1_555
H2_45 C4_45 1_555 1_555
Cd3_9 N4_29 1_555 1_555
C9_29 C4_45 1_555 1_555
H5_29 C9_29 1_555 1_555
N4_29 C2_45 1_555 1_555
O4_29 C1_45 1_555 1_555
Cd3_9 O4_29 1_555 1_555
C9_29 N4_29 1_555 1_555
C1_46 C2_46 1_555 1_555
C2_46 N3_19 1_555 1_555
C3_29 H1_29 1_555 1_555
C4_46 C3_29 1_555 1_555
H2_46 C4_46 1_555 1_555
C5_29 C6_29 1_555 1_555
C6_29 N5_19 1_555 1_555
C7_29 H3_29 1_555 1_555
C8_29 C7_29 1_555 1_555
H4_29 C8_29 1_555 1_555
N3_19 C3_29 1_555 1_555
Cd3_13 N6_29 1_555 1_555
C10_29 C8_29 1_555 1_555
H6_29 C10_29 1_555 1_555
N6_29 C6_29 1_555 1_555
O6_29 C5_29 1_555 1_555
C1_46 O3_19 1_555 1_555
C5_29 O5_19 1_555 1_555
C7_29 N5_19 1_555 1_555
Cd3_13 O6_29 1_555 1_555
C10_29 N6_29 1_555 1_555
C1_47 C2_47 1_555 1_555
C2_47 N3_21 1_555 1_555
C3_30 H1_30 1_555 1_555
C4_47 C3_30 1_555 1_555
H2_47 C4_47 1_555 1_555
C5_30 C6_30 1_555 1_555
C6_30 N5_21 1_555 1_555
C7_30 H3_30 1_555 1_555
C8_30 C7_30 1_555 1_555
H4_30 C8_30 1_555 1_555
N3_21 C3_30 1_555 1_555
Cd2_9 N6_30 1_555 1_555
C10_30 C8_30 1_555 1_555
H6_30 C10_30 1_555 1_555
N6_30 C6_30 1_555 1_555
O6_30 C5_30 1_555 1_555
C1_47 O3_21 1_555 1_555
C5_30 O5_21 1_555 1_555
C7_30 N5_21 1_555 1_555
Cd2_9 O6_30 1_555 1_555
C10_30 N6_30 1_555 1_555
C1_48 C2_48 1_555 1_555
H2_48 C4_48 1_555 1_555
Cd3_12 N4_30 1_555 1_555
C9_30 C4_48 1_555 1_555
H5_30 C9_30 1_555 1_555
N4_30 C2_48 1_555 1_555
O4_30 C1_48 1_555 1_555
Cd3_12 O4_30 1_555 1_555
C9_30 N4_30 1_555 1_555
C1_49 C2_49 1_555 1_555
H2_49 C4_49 1_555 1_555
Cd3_6 N4_31 1_555 1_555
C9_31 C4_49 1_555 1_555
H5_31 C9_31 1_555 1_555
N4_31 C2_49 1_555 1_555
O4_31 C1_49 1_555 1_555
Cd3_6 O4_31 1_555 1_555
C9_31 N4_31 1_555 1_555
C1_50 C2_50 1_555 1_555
C2_50 N3_17 1_555 1_555
C3_31 H1_31 1_555 1_555
C4_50 C3_31 1_555 1_555
H2_50 C4_50 1_555 1_555
C5_31 C6_31 1_555 1_555
C6_31 N5_17 1_555 1_555
C7_31 H3_31 1_555 1_555
C8_31 C7_31 1_555 1_555
H4_31 C8_31 1_555 1_555
N3_17 C3_31 1_555 1_555
Cd2_6 N6_31 1_555 1_555
C10_31 C8_31 1_555 1_555
H6_31 C10_31 1_555 1_555
N6_31 C6_31 1_555 1_555
O6_31 C5_31 1_555 1_555
C1_50 O3_17 1_555 1_555
C5_31 O5_17 1_555 1_555
C7_31 N5_17 1_555 1_555
Cd2_6 O6_31 1_555 1_555
C10_31 N6_31 1_555 1_555
C1_51 C2_51 1_555 1_555
H2_51 C4_51 1_555 1_555
Cd3_7 N4_32 1_555 1_555
C9_32 C4_51 1_555 1_555
H5_32 C9_32 1_555 1_555
N4_32 C2_51 1_555 1_555
O4_32 C1_51 1_555 1_555
Cd3_7 O4_32 1_555 1_555
C9_32 N4_32 1_555 1_555
C1_52 C2_52 1_555 1_555
C2_52 N3_18 1_555 1_555
C3_32 H1_32 1_555 1_555
C4_52 C3_32 1_555 1_555
H2_52 C4_52 1_555 1_555
C5_32 C6_32 1_555 1_555
C6_32 N5_18 1_555 1_555
C7_32 H3_32 1_555 1_555
C8_32 C7_32 1_555 1_555
H4_32 C8_32 1_555 1_555
N3_18 C3_32 1_555 1_555
Cd3_15 N6_32 1_555 1_555
C10_32 C8_32 1_555 1_555
H6_32 C10_32 1_555 1_555
N6_32 C6_32 1_555 1_555
O6_32 C5_32 1_555 1_555
C1_52 O3_18 1_555 1_555
C5_32 O5_18 1_555 1_555
C7_32 N5_18 1_555 1_555
Cd3_15 O6_32 1_555 1_555
C10_32 N6_32 1_555 1_555
C1_53 C2_53 1_555 1_555
C2_53 N3_16 1_555 1_555
C3_33 H1_33 1_555 1_555
C4_53 C3_33 1_555 1_555
H2_53 C4_53 1_555 1_555
C5_33 C6_33 1_555 1_555
C6_33 N5_16 1_555 1_555
C7_33 H3_33 1_555 1_555
C8_33 C7_33 1_555 1_555
H4_33 C8_33 1_555 1_555
N3_16 C3_33 1_555 1_555
Cd2_7 N6_33 1_555 1_555
C10_33 C8_33 1_555 1_555
H6_33 C10_33 1_555 1_555
N6_33 C6_33 1_555 1_555
O6_33 C5_33 1_555 1_555
C1_53 O3_16 1_555 1_555
C5_33 O5_16 1_555 1_555
C7_33 N5_16 1_555 1_555
Cd2_7 O6_33 1_555 1_555
C10_33 N6_33 1_555 1_555
C1_54 C2_54 1_555 1_555
H2_54 C4_54 1_555 1_555
Cd3_10 N4_33 1_555 1_555
C9_33 C4_54 1_555 1_555
H5_33 C9_33 1_555 1_555
N4_33 C2_54 1_555 1_555
O4_33 C1_54 1_555 1_555
Cd3_10 O4_33 1_555 1_555
C9_33 N4_33 1_555 1_555
C1_55 C2_55 1_555 1_555
H2_55 C4_55 1_555 1_555
Cd3_14 N4_34 1_555 1_555
C9_34 C4_55 1_555 1_555
H5_34 C9_34 1_555 1_555
N4_34 C2_55 1_555 1_555
O4_34 C1_55 1_555 1_555
Cd3_14 O4_34 1_555 1_555
C9_34 N4_34 1_555 1_555
C1_56 C2_56 1_555 1_555
C2_56 N3_15 1_555 1_555
C3_34 H1_34 1_555 1_555
C4_56 C3_34 1_555 1_555
H2_56 C4_56 1_555 1_555
C5_34 C6_34 1_555 1_555
C6_34 N5_15 1_555 1_555
C7_34 H3_34 1_555 1_555
C8_34 C7_34 1_555 1_555
H4_34 C8_34 1_555 1_555
N3_15 C3_34 1_555 1_555
Cd3_11 N6_34 1_555 1_555
C10_34 C8_34 1_555 1_555
H6_34 C10_34 1_555 1_555
N6_34 C6_34 1_555 1_555
O6_34 C5_34 1_555 1_555
C1_56 O3_15 1_555 1_555
C5_34 O5_15 1_555 1_555
C7_34 N5_15 1_555 1_555
Cd3_11 O6_34 1_555 1_555
C10_34 N6_34 1_555 1_555
C1_57 C2_57 1_555 1_555
H2_57 C4_57 1_555 1_555
Cd3_15 N4_35 1_555 1_555
C9_35 C4_57 1_555 1_555
H5_35 C9_35 1_555 1_555
N4_35 C2_57 1_555 1_555
O4_35 C1_57 1_555 1_555
Cd3_15 O4_35 1_555 1_555
C9_35 N4_35 1_555 1_555
C1_58 C2_58 1_555 1_555
C2_58 N3_14 1_555 1_555
C3_35 H1_35 1_555 1_555
C4_58 C3_35 1_555 1_555
H2_58 C4_58 1_555 1_555
C5_35 C6_35 1_555 1_555
C6_35 N5_14 1_555 1_555
C7_35 H3_35 1_555 1_555
C8_35 C7_35 1_555 1_555
H4_35 C8_35 1_555 1_555
N3_14 C3_35 1_555 1_555
Cd3_10 N6_35 1_555 1_555
C10_35 C8_35 1_555 1_555
H6_35 C10_35 1_555 1_555
N6_35 C6_35 1_555 1_555
O6_35 C5_35 1_555 1_555
C1_58 O3_14 1_555 1_555
C5_35 O5_14 1_555 1_555
C7_35 N5_14 1_555 1_555
Cd3_10 O6_35 1_555 1_555
C10_35 N6_35 1_555 1_555
C1_59 C2_59 1_555 1_555
H2_59 C4_59 1_555 1_555
Cd3_13 N4_36 1_555 1_555
C9_36 C4_59 1_555 1_555
H5_36 C9_36 1_555 1_555
N4_36 C2_59 1_555 1_555
O4_36 C1_59 1_555 1_555
Cd3_13 O4_36 1_555 1_555
C9_36 N4_36 1_555 1_555
C1_60 C2_60 1_555 1_555
C2_60 N3_13 1_555 1_555
C3_36 H1_36 1_555 1_555
C4_60 C3_36 1_555 1_555
H2_60 C4_60 1_555 1_555
C5_36 C6_36 1_555 1_555
C6_36 N5_13 1_555 1_555
C7_36 H3_36 1_555 1_555
C8_36 C7_36 1_555 1_555
H4_36 C8_36 1_555 1_555
N3_13 C3_36 1_555 1_555
Cd3_12 N6_36 1_555 1_555
C10_36 C8_36 1_555 1_555
H6_36 C10_36 1_555 1_555
N6_36 C6_36 1_555 1_555
O6_36 C5_36 1_555 1_555
C1_60 O3_13 1_555 1_555
C5_36 O5_13 1_555 1_555
C7_36 N5_13 1_555 1_555
Cd3_12 O6_36 1_555 1_555
C10_36 N6_36 1_555 1_555
C1_61 C2_61 1_555 1_555
C2_61 N3_10 1_555 1_555
C3_37 H1_37 1_555 1_555
C4_61 C3_37 1_555 1_555
H2_61 C4_61 1_555 1_555
C5_37 C6_37 1_555 1_555
C6_37 N5_10 1_555 1_555
C7_37 H3_37 1_555 1_555
C8_37 C7_37 1_555 1_555
H4_37 C8_37 1_555 1_555
N3_10 C3_37 1_555 1_555
Cd2_9 N4_37 1_555 1_555
Cd2_3 N6_37 1_555 1_555
C9_37 C4_61 1_555 1_555
H5_37 C9_37 1_555 1_555
C10_37 C8_37 1_555 1_555
H6_37 C10_37 1_555 1_555
N4_37 C2_61 1_555 1_555
N6_37 C6_37 1_555 1_555
O4_37 C1_61 1_555 1_555
O6_37 C5_37 1_555 1_555
C1_61 O3_10 1_555 1_555
C5_37 O5_10 1_555 1_555
C7_37 N5_10 1_555 1_555
Cd2_9 O4_37 1_555 1_555
Cd2_3 O6_37 1_555 1_555
C9_37 N4_37 1_555 1_555
C10_37 N6_37 1_555 1_555
C1_62 C2_62 1_555 1_555
C2_62 N3_11 1_555 1_555
C3_38 H1_38 1_555 1_555
C4_62 C3_38 1_555 1_555
H2_62 C4_62 1_555 1_555
C5_38 C6_38 1_555 1_555
C6_38 N5_11 1_555 1_555
C7_38 H3_38 1_555 1_555
C8_38 C7_38 1_555 1_555
H4_38 C8_38 1_555 1_555
N3_11 C3_38 1_555 1_555
Cd3_13 N4_38 1_555 1_555
Cd3_7 N6_38 1_555 1_555
C9_38 C4_62 1_555 1_555
H5_38 C9_38 1_555 1_555
C10_38 C8_38 1_555 1_555
H6_38 C10_38 1_555 1_555
N4_38 C2_62 1_555 1_555
N6_38 C6_38 1_555 1_555
O4_38 C1_62 1_555 1_555
O6_38 C5_38 1_555 1_555
C1_62 O3_11 1_555 1_555
C5_38 O5_11 1_555 1_555
C7_38 N5_11 1_555 1_555
Cd3_13 O4_38 1_555 1_555
Cd3_7 O6_38 1_555 1_555
C9_38 N4_38 1_555 1_555
C10_38 N6_38 1_555 1_555
C1_63 C2_63 1_555 1_555
C2_63 N3_12 1_555 1_555
C3_39 H1_39 1_555 1_555
C4_63 C3_39 1_555 1_555
H2_63 C4_63 1_555 1_555
C5_39 C6_39 1_555 1_555
C6_39 N5_12 1_555 1_555
C7_39 H3_39 1_555 1_555
C8_39 C7_39 1_555 1_555
H4_39 C8_39 1_555 1_555
N3_12 C3_39 1_555 1_555
Cd3_2 N4_39 1_555 1_555
Cd3_6 N6_39 1_555 1_555
C9_39 C4_63 1_555 1_555
H5_39 C9_39 1_555 1_555
C10_39 C8_39 1_555 1_555
H6_39 C10_39 1_555 1_555
N4_39 C2_63 1_555 1_555
N6_39 C6_39 1_555 1_555
O4_39 C1_63 1_555 1_555
O6_39 C5_39 1_555 1_555
C1_63 O3_12 1_555 1_555
C5_39 O5_12 1_555 1_555
C7_39 N5_12 1_555 1_555
Cd3_2 O4_39 1_555 1_555
Cd3_6 O6_39 1_555 1_555
C9_39 N4_39 1_555 1_555
C10_39 N6_39 1_555 1_555
C1_64 C2_64 1_555 1_555
C2_64 N3_8 1_555 1_555
C3_40 H1_40 1_555 1_555
C4_64 C3_40 1_555 1_555
H2_64 C4_64 1_555 1_555
C5_40 C6_40 1_555 1_555
C6_40 N5_8 1_555 1_555
C7_40 H3_40 1_555 1_555
C8_40 C7_40 1_555 1_555
H4_40 C8_40 1_555 1_555
N3_8 C3_40 1_555 1_555
Cd2_7 N4_40 1_555 1_555
Cd2 N6_40 1_555 1_555
C9_40 C4_64 1_555 1_555
H5_40 C9_40 1_555 1_555
C10_40 C8_40 1_555 1_555
H6_40 C10_40 1_555 1_555
N4_40 C2_64 1_555 1_555
N6_40 C6_40 1_555 1_555
O4_40 C1_64 1_555 1_555
O6_40 C5_40 1_555 1_555
C1_64 O3_8 1_555 1_555
C5_40 O5_8 1_555 1_555
C7_40 N5_8 1_555 1_555
Cd2_7 O4_40 1_555 1_555
Cd2 O6_40 1_555 1_555
C9_40 N4_40 1_555 1_555
C10_40 N6_40 1_555 1_555
C1_65 C2_65 1_555 1_555
C2_65 N3_7 1_555 1_555
C3_41 H1_41 1_555 1_555
C4_65 C3_41 1_555 1_555
H2_65 C4_65 1_555 1_555
C5_41 C6_41 1_555 1_555
C6_41 N5_7 1_555 1_555
C7_41 H3_41 1_555 1_555
C8_41 C7_41 1_555 1_555
H4_41 C8_41 1_555 1_555
N3_7 C3_41 1_555 1_555
Cd3_15 N4_41 1_555 1_555
Cd3_4 N6_41 1_555 1_555
C9_41 C4_65 1_555 1_555
H5_41 C9_41 1_555 1_555
C10_41 C8_41 1_555 1_555
H6_41 C10_41 1_555 1_555
N4_41 C2_65 1_555 1_555
N6_41 C6_41 1_555 1_555
O4_41 C1_65 1_555 1_555
O6_41 C5_41 1_555 1_555
C1_65 O3_7 1_555 1_555
C5_41 O5_7 1_555 1_555
C7_41 N5_7 1_555 1_555
Cd3_15 O4_41 1_555 1_555
Cd3_4 O6_41 1_555 1_555
C9_41 N4_41 1_555 1_555
C10_41 N6_41 1_555 1_555
C1_66 C2_66 1_555 1_555
C2_66 N3_9 1_555 1_555
C3_42 H1_42 1_555 1_555
C4_66 C3_42 1_555 1_555
H2_66 C4_66 1_555 1_555
C5_42 C6_42 1_555 1_555
C6_42 N5_9 1_555 1_555
C7_42 H3_42 1_555 1_555
C8_42 C7_42 1_555 1_555
H4_42 C8_42 1_555 1_555
N3_9 C3_42 1_555 1_555
Cd3_3 N4_42 1_555 1_555
Cd3_5 N6_42 1_555 1_555
C9_42 C4_66 1_555 1_555
H5_42 C9_42 1_555 1_555
C10_42 C8_42 1_555 1_555
H6_42 C10_42 1_555 1_555
N4_42 C2_66 1_555 1_555
N6_42 C6_42 1_555 1_555
O4_42 C1_66 1_555 1_555
O6_42 C5_42 1_555 1_555
C1_66 O3_9 1_555 1_555
C5_42 O5_9 1_555 1_555
C7_42 N5_9 1_555 1_555
Cd3_3 O4_42 1_555 1_555
Cd3_5 O6_42 1_555 1_555
C9_42 N4_42 1_555 1_555
C10_42 N6_42 1_555 1_555
C1_67 C2_67 1_555 1_555
C2_67 N3_5 1_555 1_555
C3_43 H1_43 1_555 1_555
C4_67 C3_43 1_555 1_555
H2_67 C4_67 1_555 1_555
C5_43 C6_43 1_555 1_555
C6_43 N5_5 1_555 1_555
C7_43 H3_43 1_555 1_555
C8_43 C7_43 1_555 1_555
H4_43 C8_43 1_555 1_555
N3_5 C3_43 1_555 1_555
Cd2_4 N4_43 1_555 1_555
Cd2_2 N6_43 1_555 1_555
C9_43 C4_67 1_555 1_555
H5_43 C9_43 1_555 1_555
C10_43 C8_43 1_555 1_555
H6_43 C10_43 1_555 1_555
N4_43 C2_67 1_555 1_555
N6_43 C6_43 1_555 1_555
O4_43 C1_67 1_555 1_555
O6_43 C5_43 1_555 1_555
C1_67 O3_5 1_555 1_555
C5_43 O5_5 1_555 1_555
C7_43 N5_5 1_555 1_555
Cd2_4 O4_43 1_555 1_555
Cd2_2 O6_43 1_555 1_555
C9_43 N4_43 1_555 1_555
C10_43 N6_43 1_555 1_555
C1_68 C2_68 1_555 1_555
C2_68 N3_6 1_555 1_555
C3_44 H1_44 1_555 1_555
C4_68 C3_44 1_555 1_555
H2_68 C4_68 1_555 1_555
C5_44 C6_44 1_555 1_555
C6_44 N5_6 1_555 1_555
C7_44 H3_44 1_555 1_555
C8_44 C7_44 1_555 1_555
H4_44 C8_44 1_555 1_555
N3_6 C3_44 1_555 1_555
Cd3_14 N4_44 1_555 1_555
Cd3_9 N6_44 1_555 1_555
C9_44 C4_68 1_555 1_555
H5_44 C9_44 1_555 1_555
C10_44 C8_44 1_555 1_555
H6_44 C10_44 1_555 1_555
N4_44 C2_68 1_555 1_555
N6_44 C6_44 1_555 1_555
O4_44 C1_68 1_555 1_555
O6_44 C5_44 1_555 1_555
C1_68 O3_6 1_555 1_555
C5_44 O5_6 1_555 1_555
C7_44 N5_6 1_555 1_555
Cd3_14 O4_44 1_555 1_555
Cd3_9 O6_44 1_555 1_555
C9_44 N4_44 1_555 1_555
C10_44 N6_44 1_555 1_555
C1_69 C2_69 1_555 1_555
C2_69 N3_4 1_555 1_555
C3_45 H1_45 1_555 1_555
C4_69 C3_45 1_555 1_555
H2_69 C4_69 1_555 1_555
C5_45 C6_45 1_555 1_555
C6_45 N5_4 1_555 1_555
C7_45 H3_45 1_555 1_555
C8_45 C7_45 1_555 1_555
H4_45 C8_45 1_555 1_555
N3_4 C3_45 1_555 1_555
Cd3 N4_45 1_555 1_555
Cd3_8 N6_45 1_555 1_555
C9_45 C4_69 1_555 1_555
H5_45 C9_45 1_555 1_555
C10_45 C8_45 1_555 1_555
H6_45 C10_45 1_555 1_555
N4_45 C2_69 1_555 1_555
N6_45 C6_45 1_555 1_555
O4_45 C1_69 1_555 1_555
O6_45 C5_45 1_555 1_555
C1_69 O3_4 1_555 1_555
C5_45 O5_4 1_555 1_555
C7_45 N5_4 1_555 1_555
Cd3 O4_45 1_555 1_555
Cd3_8 O6_45 1_555 1_555
C9_45 N4_45 1_555 1_555
C10_45 N6_45 1_555 1_555
C1_70 C2_70 1_555 1_555
C2_70 N3_3 1_555 1_555
C3_46 H1_46 1_555 1_555
C4_70 C3_46 1_555 1_555
H2_70 C4_70 1_555 1_555
C5_46 C6_46 1_555 1_555
C6_46 N5_3 1_555 1_555
C7_46 H3_46 1_555 1_555
C8_46 C7_46 1_555 1_555
H4_46 C8_46 1_555 1_555
N3_3 C3_46 1_555 1_555
Cd3_7 N4_46 1_555 1_555
Cd3_2 N6_46 1_555 1_555
C9_46 C4_70 1_555 1_555
H5_46 C9_46 1_555 1_555
C10_46 C8_46 1_555 1_555
H6_46 C10_46 1_555 1_555
N4_46 C2_70 1_555 1_555
N6_46 C6_46 1_555 1_555
O4_46 C1_70 1_555 1_555
O6_46 C5_46 1_555 1_555
C1_70 O3_3 1_555 1_555
C5_46 O5_3 1_555 1_555
C7_46 N5_3 1_555 1_555
Cd3_7 O4_46 1_555 1_555
Cd3_2 O6_46 1_555 1_555
C9_46 N4_46 1_555 1_555
C10_46 N6_46 1_555 1_555
C1_71 C2_71 1_555 1_555
C2_71 N3_2 1_555 1_555
C3_47 H1_47 1_555 1_555
C4_71 C3_47 1_555 1_555
H2_71 C4_71 1_555 1_555
C5_47 C6_47 1_555 1_555
C6_47 N5_2 1_555 1_555
C7_47 H3_47 1_555 1_555
C8_47 C7_47 1_555 1_555
H4_47 C8_47 1_555 1_555
N3_2 C3_47 1_555 1_555
Cd3_9 N4_47 1_555 1_555
Cd3 N6_47 1_555 1_555
C9_47 C4_71 1_555 1_555
H5_47 C9_47 1_555 1_555
C10_47 C8_47 1_555 1_555
H6_47 C10_47 1_555 1_555
N4_47 C2_71 1_555 1_555
N6_47 C6_47 1_555 1_555
O4_47 C1_71 1_555 1_555
O6_47 C5_47 1_555 1_555
C1_71 O3_2 1_555 1_555
C5_47 O5_2 1_555 1_555
C7_47 N5_2 1_555 1_555
Cd3_9 O4_47 1_555 1_555
Cd3 O6_47 1_555 1_555
C9_47 N4_47 1_555 1_555
C10_47 N6_47 1_555 1_555
C1_72 C2_72 1_555 1_555
C2_72 N3 1_555 1_555
C3_48 H1_48 1_555 1_555
C4_72 C3_48 1_555 1_555
H2_72 C4_72 1_555 1_555
C5_48 C6_48 1_555 1_555
C6_48 N5 1_555 1_555
C7_48 H3_48 1_555 1_555
C8_48 C7_48 1_555 1_555
H4_48 C8_48 1_555 1_555
N3 C3_48 1_555 1_555
Cd3_4 N4_48 1_555 1_555
Cd3_3 N6_48 1_555 1_555
C9_48 C4_72 1_555 1_555
H5_48 C9_48 1_555 1_555
C10_48 C8_48 1_555 1_555
H6_48 C10_48 1_555 1_555
N4_48 C2_72 1_555 1_555
N6_48 C6_48 1_555 1_555
O4_48 C1_72 1_555 1_555
O6_48 C5_48 1_555 1_555
C1_72 O3 1_555 1_555
C5_48 O5 1_555 1_555
C7_48 N5 1_555 1_555
Cd3_4 O4_48 1_555 1_555
Cd3_3 O6_48 1_555 1_555
C9_48 N4_48 1_555 1_555
C10_48 N6_48 1_555 1_555

#END
