
###############################################################################
#
# This file contains modified crystal structure data generated from the
# MOF subset of the Cambridge Structural Database (CSD) v543 
# hosted by the Cambridge Crystallographic Data Centre (CCDC).
#
# This work is licensed under the Creative Commons
# Attribution-NonCommercial-ShareAlike 4.0 International License.
# To view a copy of this license, visit
# http://creativecommons.org/licenses/by-nc-sa/4.0/
# or send a letter to
# Creative Commons, PO Box 1866, Mountain View, CA 94042, USA.
#
# CIF created using the CSD Python API on 29 September 2022
# The structure has been converted into the P1 space group
# The structure has a 3D framework
# The original CSD entry GIXJEE is in the rhombohedral crystal system
# The framework has been calculated to contain at least 10.0% void space
# The void calculation uses a probe of radius 1.32A, grid spacing 0.4
#
###############################################################################

data_GIXJEE
_chemical_formula_moiety         '(C1170 H846 Co29 N72 O108)n'
_symmetry_cell_setting           triclinic
_symmetry_space_group_name_H-M   'P 1'
_symmetry_Int_Tables_number      1
_space_group_name_Hall           'P 1'
loop_
_symmetry_equiv_pos_site_id
_symmetry_equiv_pos_as_xyz
1 x,y,z
_cell_length_a                   53.8629(12)
_cell_length_b                   53.8629(12)
_cell_length_c                   14.0649(7)
_cell_angle_alpha                90
_cell_angle_beta                 90
_cell_angle_gamma                120
_cell_volume                     35338.4
loop_
_atom_site_label
_atom_site_type_symbol
_atom_site_fract_x
_atom_site_fract_y
_atom_site_fract_z
C122 C 0.71326(12) 0.01090(13) 0.1702(4)
H87 H 0.7313 0.0262 0.1503
C123 C 0.70031(14) 0.01347(14) 0.2474(5)
H88 H 0.7098 0.0309 0.2825
Co1 Co 0.50000 -0.00000 0.50000
O2 O 0.53114(5) 0.00812(6) 0.40328(16)
C10 C 0.56212(7) 0.00182(8) 0.3023(2)
C13 C 0.61402(9) 0.02591(11) 0.2057(3)
H9 H 0.6321 0.0344 0.1748
C14 C 0.60130(10) 0.04239(11) 0.2252(3)
H10 H 0.6101 0.0617 0.2041
C15 C 0.57555(9) 0.03025(10) 0.2758(3)
H11 H 0.5672 0.0416 0.292
C19 C 0.46133(7) 0.00369(8) 0.2281(2)
C20 C 0.47948(7) 0.00824(8) 0.3054(2)
H15 H 0.4994 0.0214 0.298
C21 C 0.51030(8) 0.04017(9) 0.0206(2)
C22 C 0.49948(7) 0.02436(8) 0.1035(2)
H16 H 0.51 0.0172 0.1362
C23 C 0.47306(7) 0.01910(8) 0.1383(2)
C24 C 0.45812(7) 0.02962(8) 0.0858(2)
H17 H 0.4402 0.0268 0.1075
C25 C 0.46995(7) 0.04421(8) 0.0015(2)
H18 H 0.5969 0.0459 0.0228
C27 C 0.55730(7) 0.04045(9) 0.0257(3)
H19 H 0.5508 0.0275 0.0779
H24 H 0.4183 0.0412 0.0177
C39 C 0.44282(8) 0.12856(8) 0.0854(2)
C40 C 0.42152(9) 0.12896(11) 0.1400(3)
H27 H 0.4094 0.1352 0.1127
C41 C 0.41794(9) 0.12029(11) 0.2345(3)
H28 H 0.4034 0.1206 0.2718
C42 C 0.43565(10) 0.11120(12) 0.2744(2)
H29 H 0.4332 0.1053 0.339
C43 C 0.45696(11) 0.11080(13) 0.2198(3)
H30 H 0.4691 0.1046 0.247
C44 C 0.46054(10) 0.11947(10) 0.1253(3)
H31 H 0.4751 0.1192 0.088
O7 O 0.51511(5) 0.04277(6) 0.51537(18)
C66 C 0.50734(9) 0.05408(10) 0.5790(3)
C67 C 0.48372(9) 0.03934(10) 0.6399(3)
H48 H 0.4803 0.0505 0.6846
C68 C 0.46482(7) 0.00996(9) 0.6411(2)
C69 C 0.52638(13) 0.08504(9) 0.5906(6)
C70 C 0.55559(13) 0.09665(16) 0.5747(8)
H49 H 0.5629 0.0846 0.5564
C71 C 0.57408(16) 0.12592(19) 0.5858(12)
H50 H 0.594 0.1339 0.575
C72 C 0.5634(3) 0.14360(12) 0.6126(14)
H51 H 0.576 0.1636 0.6201
C73 C 0.5341(3) 0.13199(12) 0.6284(13)
H52 H 0.5268 0.1441 0.6467
C74 C 0.51566(18) 0.10272(13) 0.6174(9)
H53 H 0.4957 0.0948 0.6282
C76 C 0.42516(8) 0.01413(10) 0.7208(3)
H54 H 0.4343 0.0338 0.7033
C77 C 0.39917(9) 0.00192(10) 0.7694(3)
H55 H 0.3908 0.0132 0.7851
N5 N 0.52969(6) 0.00500(7) 0.6107(2)
C81 C 0.55804(7) 0.02340(10) 0.6007(3)
H59 H 0.5649 0.0332 0.5419
C82 C 0.57715(8) 0.02847(10) 0.6722(3)
H60 H 0.597 0.0415 0.6627
C83 C 0.56751(7) 0.01454(9) 0.7587(3)
H61 H 0.5807 0.0176 0.8083
N2 N 0.49542(6) 0.04938(7) 0.9690(2)
N3 N 0.59515(11) 0.06925(8) 0.9176(2)
C26 C 0.58472(13) 0.05131(10) 0.9919(3)
C28 C 0.53918(8) 0.04861(9) 0.9825(3)
C29 C 0.54946(10) 0.06597(12) 0.9029(3)
H20 H 0.5375 0.0712 0.869
C30 C 0.57710(10) 0.07549(13) 0.8736(3)
H21 H 0.5837 0.0873 0.8185
N4 N 0.43366(7) 0.08614(7) 0.8444(2)
C31 C 0.45894(8) 0.08908(9) 0.8224(2)
H22 H 0.4693 0.1013 0.7708
C32 C 0.47092(8) 0.07561(9) 0.8696(2)
H23 H 0.4891 0.0785 0.8507
C33 C 0.45635(7) 0.05756(8) 0.9459(2)
C34 C 0.42942(8) 0.05364(8) 0.9676(3)
C35 C 0.41909(8) 0.06818(8) 0.9153(2)
H25 H 0.4006 0.0653 0.9304
Co2 Co 0.419475(12) 0.114501(11) 0.79153(3)
O3 O 0.42261(6) 0.12691(6) 0.93139(19)
C36 C 0.44561(12) 0.13945(14) 0.9765(4)
C37 C 0.47260(16) 0.15484(16) 0.9370(5)
H26 H 0.4885 0.1625 0.9793
C38 C 0.47857(14) 0.16012(13) 0.8385(5)
O4 O 0.46065(8) 0.14826(7) 0.7747(2)
C45 C 0.50699(13) 0.18178(18) 0.8087(4)
C46 C 0.52586(13) 0.20179(17) 0.8736(4)
H32 H 0.5202 0.2012 0.9379
C47 C 0.55304(15) 0.2227(2) 0.8444(5)
H33 H 0.5659 0.2364 0.8887
C48 C 0.56134(16) 0.2237(3) 0.7503(5)
H34 H 0.5799 0.238 0.7303
C49 C 0.54247(14) 0.20365(12) 0.6854(6)
H35 H 0.5481 0.2043 0.6211
C50 C 0.51530(13) 0.18271(11) 0.7146(5)
H36 H 0.5024 0.169 0.6703
O5 O 0.37807(6) 0.08053(5) 0.79400(16)
C51 C 0.36892(9) 0.05789(8) 0.7448(2)
C52 C 0.38430(10) 0.05496(9) 0.6668(3)
H37 H 0.3765 0.0365 0.6391
C53 C 0.40950(10) 0.07660(10) 0.6279(3)
O6 O 0.42204(7) 0.10237(6) 0.65602(18)
C54 C 0.34032(9) 0.03348(9) 0.7724(3)
C55 C 0.32623(10) 0.03623(10) 0.8506(3)
H38 H 0.335 0.0538 0.8849
C56 C 0.30018(11) 0.01447(11) 0.8799(4)
H39 H 0.2913 0.0168 0.9349
C59 C 0.32598(12) 0.00771(11) 0.7211(4)
H42 H 0.3343 0.005 0.6654
C60 C 0.42319(7) 0.07024(8) 0.5469(2)
C61 C 0.41283(8) 0.04302(8) 0.5086(2)
H43 H 0.3957 0.0273 0.5329
C62 C 0.42750(9) 0.03880(9) 0.4349(3)
H44 H 0.4204 0.0202 0.4087
C63 C 0.45253(10) 0.06181(12) 0.3994(3)
H45 H 0.4626 0.0589 0.349
C64 C 0.46289(10) 0.08903(10) 0.4376(3)
H46 H 0.48 0.1047 0.4133
C65 C 0.44822(8) 0.09324(8) 0.5114(2)
H47 H 0.4553 0.1118 0.5375
N10 N 0.40258(8) 0.14077(14) 0.7491(2)
Co5 Co 0.638307(16) 0.086142(12) 0.87514(3)
N2_2 N 0.95062(7) 0.44604(9) 0.9690(2)
N3_2 N 0.93075(8) 0.52590(14) 0.9176(2)
C26_2 C 0.94869(10) 0.53341(16) 0.9919(3)
C28_2 C 0.95139(9) 0.49057(12) 0.9825(3)
C29_2 C 0.93403(12) 0.48349(16) 0.9029(3)
H20_2 H 0.9288 0.4663 0.869
C30_2 C 0.92451(13) 0.50161(16) 0.8736(3)
H21_2 H 0.9127 0.4964 0.8185
N4_2 N 0.91386(7) 0.34752(10) 0.8444(2)
C31_2 C 0.91092(9) 0.36986(12) 0.8224(2)
H22_2 H 0.8987 0.3680 0.7708
C32_2 C 0.92439(9) 0.39531(12) 0.8696(2)
H23_2 H 0.9215 0.4106 0.8507
C33_2 C 0.94244(8) 0.39879(11) 0.9459(2)
C34_2 C 0.94636(8) 0.37578(11) 0.9676(3)
C35_2 C 0.93182(8) 0.35091(11) 0.9153(2)
H25_2 H 0.9347 0.3353 0.9304
Co2_2 Co 0.885499(11) 0.304974(16) 0.79153(3)
O3_2 O 0.87309(6) 0.29570(8) 0.93139(19)
C36_2 C 0.86055(14) 0.30616(18) 0.9765(4)
C37_2 C 0.84516(16) 0.31776(23) 0.9370(5)
H26_2 H 0.8375 0.3260 0.9793
C38_2 C 0.83988(13) 0.31845(19) 0.8385(5)
O4_2 O 0.85174(7) 0.31239(11) 0.7747(2)
C45_2 C 0.81822(18) 0.32521(22) 0.8087(4)
C46_2 C 0.79821(17) 0.32407(21) 0.8736(4)
H32_2 H 0.7988 0.3190 0.9379
C47_2 C 0.7773(2) 0.33034(25) 0.8444(5)
H33_2 H 0.7636 0.3295 0.8887
C48_2 C 0.7763(3) 0.33764(34) 0.7503(5)
H34_2 H 0.762 0.3419 0.7303
C49_2 C 0.79635(12) 0.33882(18) 0.6854(6)
H35_2 H 0.7957 0.3438 0.6211
C50_2 C 0.81729(11) 0.33259(17) 0.7146(5)
H36_2 H 0.831 0.3334 0.6703
O5_2 O 0.91947(5) 0.29754(8) 0.79400(16)
C51_2 C 0.94211(8) 0.31103(12) 0.7448(2)
C52_2 C 0.94504(9) 0.32934(13) 0.6668(3)
H37_2 H 0.9635 0.3400 0.6391
C53_2 C 0.92340(10) 0.33290(14) 0.6279(3)
O6_2 O 0.89763(6) 0.31967(9) 0.65602(18)
C54_2 C 0.96652(9) 0.30684(13) 0.7724(3)
C55_2 C 0.96377(10) 0.29000(14) 0.8506(3)
H38_2 H 0.9462 0.2812 0.8849
C56_2 C 0.98553(11) 0.28571(16) 0.8799(4)
H39_2 H 0.9832 0.2745 0.9349
C59_2 C 0.99229(11) 0.31827(16) 0.7211(4)
H42_2 H 0.995 0.3293 0.6654
C60_2 C 0.92976(8) 0.35295(11) 0.5469(2)
C61_2 C 0.95698(8) 0.36981(11) 0.5086(2)
H43_2 H 0.9727 0.3684 0.5329
C62_2 C 0.96120(9) 0.38870(13) 0.4349(3)
H44_2 H 0.9798 0.4002 0.4087
C63_2 C 0.93819(12) 0.39072(16) 0.3994(3)
H45_2 H 0.9411 0.4037 0.349
C64_2 C 0.91097(10) 0.37386(14) 0.4376(3)
H46_2 H 0.8953 0.3753 0.4133
C65_2 C 0.90676(8) 0.35498(11) 0.5114(2)
H47_2 H 0.8882 0.3435 0.5375
N10_2 N 0.85923(14) 0.26182(16) 0.7491(2)
Co5_2 Co 0.913858(12) 0.552166(20) 0.87514(3)
N2_3 N 0.55396(9) 0.50458(6) 0.9690(2)
N3_3 N 0.47410(14) 0.40485(11) 0.9176(2)
C26_3 C 0.46659(16) 0.41528(13) 0.9919(3)
C28_3 C 0.50943(12) 0.46082(8) 0.9825(3)
C29_3 C 0.51651(16) 0.45054(10) 0.9029(3)
H20_3 H 0.5337 0.4625 0.869
C30_3 C 0.49839(16) 0.42290(10) 0.8736(3)
H21_3 H 0.5036 0.4163 0.8185
N4_3 N 0.65248(10) 0.56634(7) 0.8444(2)
C31_3 C 0.63014(12) 0.54106(8) 0.8224(2)
H22_3 H 0.6320 0.5307 0.7708
C32_3 C 0.60469(12) 0.52908(8) 0.8696(2)
H23_3 H 0.5894 0.5109 0.8507
C33_3 C 0.60121(11) 0.54365(7) 0.9459(2)
C34_3 C 0.62422(11) 0.57058(8) 0.9676(3)
C35_3 C 0.64909(11) 0.58091(8) 0.9153(2)
H25_3 H 0.6647 0.5994 0.9304
Co2_3 Co 0.695026(16) 0.580525(12) 0.79153(3)
O3_3 O 0.70430(8) 0.57739(6) 0.93139(19)
C36_3 C 0.69384(18) 0.55439(12) 0.9765(4)
C37_3 C 0.68224(23) 0.52740(16) 0.9370(5)
H26_3 H 0.6740 0.5115 0.9793
C38_3 C 0.68155(19) 0.52143(14) 0.8385(5)
O4_3 O 0.68761(11) 0.53935(8) 0.7747(2)
C45_3 C 0.67479(22) 0.49301(13) 0.8087(4)
C46_3 C 0.67593(21) 0.47414(13) 0.8736(4)
H32_3 H 0.6810 0.4798 0.9379
C47_3 C 0.66966(25) 0.44696(15) 0.8444(5)
H33_3 H 0.6705 0.4341 0.8887
C48_3 C 0.66236(34) 0.43866(16) 0.7503(5)
H34_3 H 0.6581 0.4201 0.7303
C49_3 C 0.66118(18) 0.45753(14) 0.6854(6)
H35_3 H 0.6562 0.4519 0.6211
C50_3 C 0.66741(17) 0.48470(13) 0.7146(5)
H36_3 H 0.6666 0.4976 0.6703
O5_3 O 0.70246(8) 0.62193(6) 0.79400(16)
C51_3 C 0.68897(12) 0.63108(9) 0.7448(2)
C52_3 C 0.67066(13) 0.61570(10) 0.6668(3)
H37_3 H 0.6600 0.6235 0.6391
C53_3 C 0.66710(14) 0.59050(10) 0.6279(3)
O6_3 O 0.68033(9) 0.57796(7) 0.65602(18)
C54_3 C 0.69316(13) 0.65968(9) 0.7724(3)
C55_3 C 0.71000(14) 0.67377(10) 0.8506(3)
H38_3 H 0.7188 0.665 0.8849
C56_3 C 0.71429(16) 0.69982(11) 0.8799(4)
H39_3 H 0.7255 0.7087 0.9349
C57 C 0.70236(18) 0.71326(12) 0.8298(4)
H40 H 0.7051 0.7313 0.8497
C58 C 0.68684(20) 0.70031(14) 0.7526(5)
H41 H 0.6789 0.7098 0.7175
C59_3 C 0.68173(16) 0.67402(12) 0.7211(4)
H42_3 H 0.6707 0.6657 0.6654
C60_3 C 0.64705(11) 0.57681(7) 0.5469(2)
C61_3 C 0.63019(11) 0.58717(8) 0.5086(2)
H43_3 H 0.6316 0.6043 0.5329
C62_3 C 0.61130(13) 0.57250(9) 0.4349(3)
H44_3 H 0.5998 0.5796 0.4087
C63_3 C 0.60928(16) 0.54747(10) 0.3994(3)
H45_3 H 0.5963 0.5374 0.349
C64_3 C 0.62614(14) 0.53711(10) 0.4376(3)
H46_3 H 0.6247 0.52 0.4133
C65_3 C 0.64502(11) 0.55178(8) 0.5114(2)
H47_3 H 0.6565 0.5447 0.5375
N10_3 N 0.73818(16) 0.59742(8) 0.7491(2)
Co5_3 Co 0.447834(20) 0.361693(16) 0.87514(3)
Co1_2 Co 0.83333 0.66667 0.16667
O1 O 0.81822(5) 0.62390(6) 0.15130(18)
C1 C 0.82599(9) 0.61259(10) 0.0877(3)
C2 C 0.84961(9) 0.62733(10) 0.0268(3)
C3 C 0.86851(7) 0.65671(9) 0.0256(2)
O2_2 O 0.86447(5) 0.67479(6) 0.06995(16)
C4 C 0.80695(13) 0.58163(9) 0.0761(6)
C5 C 0.77774(13) 0.57002(16) 0.0920(8)
H2 H 0.7704 0.5821 0.1103
C6 C 0.75925(16) 0.54075(19) 0.0809(12)
H3 H 0.739333 0.5328 0.091667
C7 C 0.7699(3) 0.52307(12) 0.0541(14)
H4 H 0.757333 0.5031 0.0466
C8 C 0.7992(3) 0.53468(12) 0.0383(13)
H5 H 0.8065 0.5226 0.0200
C9 C 0.81767(18) 0.56395(13) 0.0493(9)
H6 H 0.8376 0.5719 0.0385
N1 N 0.80364(6) 0.66167(7) 0.0560(2)
C16 C 0.77529(7) 0.64327(10) 0.0660(3)
H12 H 0.7684 0.6335 0.1248
H13 H 0.736333 0.6252 0.0040
H29_2 H 0.7665 0.7720 0.005667
O7_2 O 0.84844(5) 0.70944(6) 0.18204(18)
C66_2 C 0.84067(9) 0.72075(10) 0.2457(3)
C67_2 C 0.81705(9) 0.70601(10) 0.3066(3)
H48_2 H 0.8136 0.7172 0.3513
C68_2 C 0.79815(7) 0.67663(9) 0.3078(2)
O8 O 0.80219(5) 0.65855(6) 0.26339(16)
C69_2 C 0.85971(13) 0.75171(9) 0.2573(6)
C70_2 C 0.88892(13) 0.76332(16) 0.2414(8)
H49_2 H 0.8962 0.7513 0.2231
C71_2 C 0.90741(16) 0.79259(19) 0.2525(12)
H50_2 H 0.927333 0.8006 0.241667
C72_2 C 0.8967(3) 0.81027(12) 0.2793(14)
H51_2 H 0.909333 0.8303 0.2868
C73_2 C 0.8674(3) 0.79866(12) 0.2951(13)
H52_2 H 0.8601 0.8108 0.3134
C74_2 C 0.84899(18) 0.76939(13) 0.2841(9)
H53_2 H 0.8290 0.7615 0.2949
C75 C 0.77121(7) 0.66485(8) 0.3644(2)
C76_2 C 0.75849(8) 0.68080(10) 0.3875(3)
H54_2 H 0.7676 0.7005 0.3700
C77_2 C 0.73250(9) 0.66859(10) 0.4361(3)
H55_2 H 0.7241 0.6799 0.4518
C78 C 0.71931(9) 0.64076(11) 0.4610(3)
H56 H 0.7012 0.6323 0.4919
C79 C 0.73203(10) 0.62428(11) 0.4415(3)
H57 H 0.7232 0.6050 0.4626
C80 C 0.75778(9) 0.63642(10) 0.3909(3)
H58 H 0.7661 0.6251 0.374667
N5_2 N 0.86302(6) 0.67167(7) 0.2774(2)
C81_2 C 0.89137(7) 0.69007(10) 0.2674(3)
H59_2 H 0.8982 0.6999 0.2086
C82_2 C 0.91048(8) 0.69514(10) 0.3389(3)
H60_2 H 0.930333 0.7082 0.3294
C83_2 C 0.90084(7) 0.68121(9) 0.4254(3)
H61_2 H 0.9140 0.6843 0.4750
C84 C 0.87200(7) 0.66298(8) 0.4386(2)
C85 C 0.85385(7) 0.65843(8) 0.3613(2)
H62 H 0.8339 0.6453 0.368667
N6 N 0.83791(6) 0.61729(7) 0.6977(2)
C86 C 0.82303(8) 0.62650(9) 0.6461(2)
C87 C 0.83385(7) 0.64231(8) 0.5632(2)
H63 H 0.823333 0.6495 0.5305
C88 C 0.86027(7) 0.64757(8) 0.5284(2)
C89 C 0.87521(7) 0.63705(8) 0.5809(2)
H64 H 0.8931 0.6399 0.5592
C90 C 0.86338(7) 0.62246(8) 0.6652(2)
C91 C 0.74861(13) 0.61536(10) 0.6748(3)
H65 H 0.7364 0.6208 0.6439
C92 C 0.77603(7) 0.62622(9) 0.6410(3)
H66 H 0.7825 0.6392 0.5888
C93 C 0.79415(8) 0.61806(9) 0.6842(3)
C94 C 0.78387(10) 0.60070(12) 0.7638(3)
H67 H 0.7958 0.5955 0.797667
C95 C 0.75623(10) 0.59118(13) 0.7931(3)
H68 H 0.7496 0.5794 0.8482
N8 N 0.89967(7) 0.58053(7) 0.8223(2)
C96 C 0.87439(8) 0.57759(9) 0.8443(2)
H69 H 0.8640 0.5654 0.8959
C97 C 0.86241(8) 0.59106(9) 0.7971(2)
H70 H 0.8442 0.5882 0.8160
C98 C 0.87698(7) 0.60911(8) 0.7208(2)
C99 C 0.90391(8) 0.61303(8) 0.6991(3)
H71 H 0.9150 0.6255 0.6490
C100 C 0.91424(8) 0.59849(8) 0.7514(2)
H72 H 0.9327 0.6014 0.7363
O9 O 0.91072(6) 0.53976(6) 0.73528(19)
C101 C 0.88772(12) 0.52722(14) 0.6902(4)
C102 C 0.86073(16) 0.51183(16) 0.7297(5)
H73 H 0.8448 0.5042 0.6874
C103 C 0.85476(14) 0.50655(13) 0.8282(5)
O10 O 0.87268(8) 0.51841(7) 0.8920(2)
C104 C 0.89051(8) 0.53811(8) 0.5813(2)
C105 C 0.91181(9) 0.53771(11) 0.5267(3)
H74 H 0.9239 0.5315 0.5540
C106 C 0.91539(9) 0.54638(11) 0.4322(3)
H75 H 0.9299 0.5461 0.3949
C107 C 0.89768(10) 0.55547(12) 0.3923(2)
H76 H 0.9001 0.5614 0.327667
C108 C 0.87637(11) 0.55587(13) 0.4469(3)
H77 H 0.8642 0.5621 0.419667
C109 C 0.87279(10) 0.54720(10) 0.5414(3)
H78 H 0.8582 0.5475 0.578667
C110 C 0.82634(13) 0.48489(18) 0.8580(4)
C111 C 0.80747(13) 0.46488(17) 0.7931(4)
H79 H 0.8131 0.4655 0.7288
C112 C 0.78029(15) 0.4440(2) 0.8223(5)
H80 H 0.7674 0.4303 0.7780
C113 C 0.77199(16) 0.4430(3) 0.9164(5)
H81 H 0.7534 0.428667 0.9364
C114 C 0.79086(14) 0.46302(12) 0.9813(6)
C115 C 0.81803(13) 0.48396(11) 0.9521(5)
H83 H 0.8309 0.497667 0.9964
O11 O 0.95526(6) 0.58614(5) 0.87267(16)
C116 C 0.96441(9) 0.60878(8) 0.9219(2)
C117 C 0.94903(10) 0.61171(9) 0.9999(3)
C119 C 0.99301(9) 0.63319(9) 0.8943(3)
H85 H 0.998333 0.6129 0.7818
Co1_3 Co 0.33333 0.16667 0.16667
O1_2 O 0.37610(6) 0.19433(8) 0.15130(18)
C1_2 C 0.38741(10) 0.21341(13) 0.0877(3)
C2_2 C 0.37267(10) 0.22229(13) 0.0268(3)
C3_2 C 0.34329(9) 0.21181(11) 0.0256(2)
O2_3 O 0.32521(6) 0.18969(8) 0.06995(16)
C4_2 C 0.41837(9) 0.22533(16) 0.0761(6)
C5_2 C 0.42998(16) 0.20773(21) 0.0920(8)
H2_2 H 0.4179 0.1884 0.1103
C6_2 C 0.45925(19) 0.21851(25) 0.0809(12)
H3_2 H 0.4672 0.2066 0.091667
C7_2 C 0.47693(12) 0.24687(32) 0.0541(14)
H4_2 H 0.4969 0.2543 0.0466
C8_2 C 0.46532(12) 0.26456(32) 0.0383(13)
H5_2 H 0.4774 0.2840 0.0200
C9_2 C 0.43605(13) 0.25373(22) 0.0493(9)
H6_2 H 0.4281 0.2658 0.0385
N1_2 N 0.33833(7) 0.14198(9) 0.0560(2)
C16_2 C 0.35673(10) 0.13203(12) 0.0660(3)
H12_2 H 0.3665 0.1350 0.1248
H13_2 H 0.3748 0.1112 0.0040
O7_3 O 0.29056(6) 0.13901(8) 0.18204(18)
C66_3 C 0.27925(10) 0.11993(13) 0.2457(3)
C67_3 C 0.29399(10) 0.11105(13) 0.3066(3)
H48_3 H 0.2828 0.0965 0.3513
C68_3 C 0.32337(9) 0.12153(11) 0.3078(2)
O8_2 O 0.34145(6) 0.14365(8) 0.26339(16)
C69_3 C 0.24829(9) 0.10801(16) 0.2573(6)
C70_3 C 0.23668(16) 0.12561(21) 0.2414(8)
H49_3 H 0.2487 0.1450 0.2231
C71_3 C 0.20741(19) 0.11483(25) 0.2525(12)
H50_3 H 0.1994 0.1268 0.241667
C72_3 C 0.18973(12) 0.08647(32) 0.2793(14)
H51_3 H 0.1697 0.0791 0.2868
C73_3 C 0.20134(12) 0.06878(32) 0.2951(13)
H52_3 H 0.1892 0.0494 0.3134
C74_3 C 0.23061(13) 0.07961(22) 0.2841(9)
H53_3 H 0.2385 0.0676 0.2949
C75_2 C 0.33515(8) 0.10637(11) 0.3644(2)
C76_3 C 0.31920(10) 0.07770(13) 0.3875(3)
H54_3 H 0.2995 0.0672 0.3700
C77_3 C 0.33141(10) 0.06392(13) 0.4361(3)
H55_3 H 0.3201 0.0443 0.4518
C78_2 C 0.35924(11) 0.07856(14) 0.4610(3)
H56_2 H 0.3677 0.0690 0.4919
C79_2 C 0.37572(11) 0.10776(15) 0.4415(3)
H57_2 H 0.3950 0.1183 0.4626
C80_2 C 0.36358(10) 0.12137(13) 0.3909(3)
H58_2 H 0.3749 0.1411 0.374667
N5_3 N 0.32833(7) 0.19136(9) 0.2774(2)
C81_3 C 0.30993(10) 0.20131(12) 0.2674(3)
H59_3 H 0.3001 0.1984 0.2086
C82_3 C 0.30486(10) 0.21535(13) 0.3389(3)
H60_3 H 0.2918 0.2222 0.3294
C83_3 C 0.31879(9) 0.21964(11) 0.4254(3)
H61_3 H 0.3157 0.2298 0.4750
C84_2 C 0.33702(8) 0.20903(11) 0.4386(2)
C85_2 C 0.34157(8) 0.19543(11) 0.3613(2)
H62_2 H 0.3547 0.1887 0.368667
N6_2 N 0.38271(7) 0.22063(9) 0.6977(2)
C86_2 C 0.37350(9) 0.19654(12) 0.6461(2)
C87_2 C 0.35769(8) 0.19155(11) 0.5632(2)
H63_2 H 0.3505 0.1739 0.5305
C88_2 C 0.35243(8) 0.21271(11) 0.5284(2)
C89_2 C 0.36295(8) 0.23817(11) 0.5809(2)
H64_2 H 0.3601 0.2533 0.5592
C90_2 C 0.37754(8) 0.24093(11) 0.6652(2)
C91_2 C 0.38464(10) 0.13326(16) 0.6748(3)
H65_2 H 0.3792 0.1157 0.6439
C92_2 C 0.37378(9) 0.14982(11) 0.6410(3)
H66_2 H 0.3608 0.1434 0.5888
C93_2 C 0.38194(9) 0.17610(12) 0.6842(3)
C94_2 C 0.39930(12) 0.18318(16) 0.7638(3)
H67_2 H 0.4045 0.2004 0.797667
C95_2 C 0.40882(13) 0.16506(16) 0.7931(3)
H68_2 H 0.4206 0.1703 0.8482
N8_2 N 0.41947(7) 0.31915(10) 0.8223(2)
C96_2 C 0.42241(9) 0.29681(12) 0.8443(2)
H69_2 H 0.4346 0.2987 0.8959
C97_2 C 0.40894(9) 0.27136(12) 0.7971(2)
H70_2 H 0.4118 0.2561 0.8160
C98_2 C 0.39089(8) 0.26788(11) 0.7208(2)
C99_2 C 0.38697(8) 0.29089(11) 0.6991(3)
H71_2 H 0.3745 0.2896 0.6490
C100_2 C 0.40151(8) 0.31576(11) 0.7514(2)
H72_2 H 0.3986 0.3314 0.7363
O9_2 O 0.46024(6) 0.37097(8) 0.73528(19)
C101_2 C 0.47278(14) 0.36051(18) 0.6902(4)
C102_2 C 0.48817(16) 0.34891(23) 0.7297(5)
H73_2 H 0.4958 0.3407 0.6874
C103_2 C 0.49345(13) 0.34822(19) 0.8282(5)
O10_2 O 0.48159(7) 0.35428(11) 0.8920(2)
C104_2 C 0.46189(8) 0.35241(11) 0.5813(2)
C105_2 C 0.46229(11) 0.37411(14) 0.5267(3)
H74_2 H 0.4685 0.3925 0.5540
C106_2 C 0.45362(11) 0.36902(14) 0.4322(3)
H75_2 H 0.4539 0.3839 0.3949
C107_2 C 0.44453(12) 0.34222(16) 0.3923(2)
H76_2 H 0.4386 0.3388 0.327667
C108_2 C 0.44413(13) 0.32051(17) 0.4469(3)
H77_2 H 0.4379 0.3022 0.419667
C109_2 C 0.45280(10) 0.32560(14) 0.5414(3)
H78_2 H 0.4525 0.3108 0.578667
C110_2 C 0.51511(18) 0.34146(22) 0.8580(4)
C111_2 C 0.53512(17) 0.34260(21) 0.7931(4)
H79_2 H 0.5345 0.3477 0.7288
C112_2 C 0.5560(2) 0.33633(25) 0.8223(5)
H80_2 H 0.5697 0.3372 0.7780
C113_2 C 0.5570(3) 0.32903(34) 0.9164(5)
H81_2 H 0.571333 0.3248 0.9364
C114_2 C 0.53698(12) 0.32785(18) 0.9813(6)
C115_2 C 0.51604(11) 0.33408(17) 0.9521(5)
H83_2 H 0.502333 0.3333 0.9964
O11_2 O 0.41386(5) 0.36913(8) 0.87267(16)
C116_2 C 0.39122(8) 0.35564(12) 0.9219(2)
C117_2 C 0.38829(9) 0.33733(13) 0.9999(3)
C119_2 C 0.36681(9) 0.35983(13) 0.8943(3)
C120 C 0.36956(10) 0.37667(14) 0.8161(3)
H85_2 H 0.3871 0.3855 0.7818
C121 C 0.34780(11) 0.38096(16) 0.7868(4)
H86 H 0.3501 0.3922 0.7318
C122_2 C 0.32243(13) 0.36903(18) 0.8369(4)
H87_2 H 0.3071 0.3718 0.8170
C123_2 C 0.31986(14) 0.35351(20) 0.9141(5)
H88_2 H 0.3024 0.3456 0.9492
C124 C 0.34104(11) 0.34840(16) 0.9456(4)
Co1_4 Co 0.83333 0.16667 0.16667
O1_3 O 0.80567(8) 0.18178(5) 0.15130(18)
C1_3 C 0.78659(13) 0.17401(9) 0.0877(3)
C2_3 C 0.77771(13) 0.15039(9) 0.0268(3)
C3_3 C 0.78819(11) 0.13149(7) 0.0256(2)
O2_4 O 0.81031(8) 0.13553(5) 0.06995(16)
C4_3 C 0.77467(16) 0.19305(13) 0.0761(6)
C5_3 C 0.79227(21) 0.22226(13) 0.0920(8)
H2_3 H 0.8116 0.2296 0.1103
C6_3 C 0.78149(25) 0.24075(16) 0.0809(12)
H3_3 H 0.7934 0.260667 0.091667
C7_3 C 0.75313(32) 0.2301(3) 0.0541(14)
H4_3 H 0.7457 0.242667 0.0466
C8_3 C 0.73544(32) 0.2008(3) 0.0383(13)
H5_3 H 0.7160 0.1935 0.0200
C9_3 C 0.74627(22) 0.18233(18) 0.0493(9)
H6_3 H 0.7342 0.1624 0.0385
N1_3 N 0.85802(9) 0.19636(6) 0.0560(2)
C16_3 C 0.86797(12) 0.22471(7) 0.0660(3)
H12_3 H 0.8650 0.2316 0.1248
H13_3 H 0.8888 0.263667 0.0040
O7_4 O 0.86099(8) 0.15156(5) 0.18204(18)
C66_4 C 0.88007(13) 0.15933(9) 0.2457(3)
C67_4 C 0.88895(13) 0.18295(9) 0.3066(3)
H48_4 H 0.9035 0.1864 0.3513
C68_4 C 0.87847(11) 0.20185(7) 0.3078(2)
O8_3 O 0.85635(8) 0.19781(5) 0.26339(16)
C69_4 C 0.89199(16) 0.14029(13) 0.2573(6)
C70_4 C 0.87439(21) 0.11108(13) 0.2414(8)
H49_4 H 0.8550 0.1038 0.2231
C71_4 C 0.88517(25) 0.09259(16) 0.2525(12)
H50_4 H 0.8732 0.072667 0.241667
C72_4 C 0.91353(32) 0.1033(3) 0.2793(14)
H51_4 H 0.9209 0.090667 0.2868
C73_4 C 0.93122(32) 0.1326(3) 0.2951(13)
H52_4 H 0.9506 0.1399 0.3134
C74_4 C 0.92039(22) 0.15101(18) 0.2841(9)
H53_4 H 0.9324 0.1710 0.2949
C75_3 C 0.89363(11) 0.22879(7) 0.3644(2)
C76_4 C 0.92230(13) 0.24151(8) 0.3875(3)
H54_4 H 0.9328 0.2324 0.3700
C77_4 C 0.93608(13) 0.26750(9) 0.4361(3)
H55_4 H 0.9557 0.2759 0.4518
C78_3 C 0.92144(14) 0.28069(9) 0.4610(3)
H56_3 H 0.9310 0.2988 0.4919
C79_3 C 0.89224(15) 0.26797(10) 0.4415(3)
H57_3 H 0.8817 0.2768 0.4626
C80_3 C 0.87863(13) 0.24222(9) 0.3909(3)
H58_3 H 0.8589 0.2339 0.374667
N5_4 N 0.80864(9) 0.13698(6) 0.2774(2)
C81_4 C 0.79869(12) 0.10863(7) 0.2674(3)
H59_4 H 0.8016 0.1018 0.2086
C82_4 C 0.78465(13) 0.08952(8) 0.3389(3)
H60_4 H 0.7778 0.069667 0.3294
C83_4 C 0.78036(11) 0.09916(7) 0.4254(3)
H61_4 H 0.7702 0.0860 0.4750
C84_3 C 0.79097(11) 0.12800(7) 0.4386(2)
C85_3 C 0.80457(11) 0.14615(7) 0.3613(2)
H62_3 H 0.8113 0.1661 0.368667
N6_3 N 0.77937(9) 0.16209(6) 0.6977(2)
C86_3 C 0.80346(12) 0.17697(8) 0.6461(2)
C87_3 C 0.80845(11) 0.16615(7) 0.5632(2)
H63_3 H 0.8261 0.176667 0.5305
C88_3 C 0.78729(11) 0.13973(7) 0.5284(2)
C89_3 C 0.76183(11) 0.12479(7) 0.5809(2)
H64_3 H 0.7467 0.1069 0.5592
C90_3 C 0.75907(11) 0.13662(7) 0.6652(2)
C91_3 C 0.86674(16) 0.25139(13) 0.6748(3)
H65_3 H 0.8843 0.2636 0.6439
C92_3 C 0.85018(11) 0.22397(7) 0.6410(3)
H66_3 H 0.8566 0.2175 0.5888
C93_3 C 0.82390(12) 0.20585(8) 0.6842(3)
C94_3 C 0.81682(16) 0.21613(10) 0.7638(3)
H67_3 H 0.7996 0.2042 0.797667
C95_3 C 0.83494(16) 0.24377(10) 0.7931(3)
H68_3 H 0.8297 0.2504 0.8482
N8_3 N 0.68085(10) 0.10033(7) 0.8223(2)
C96_3 C 0.70319(12) 0.12561(8) 0.8443(2)
H69_3 H 0.7013 0.1360 0.8959
C97_3 C 0.72864(12) 0.13759(8) 0.7971(2)
H70_3 H 0.7439 0.1558 0.8160
C98_3 C 0.73212(11) 0.12302(7) 0.7208(2)
C99_3 C 0.70911(11) 0.09609(8) 0.6991(3)
H71_3 H 0.7104 0.0850 0.6490
C100_3 C 0.68424(11) 0.08576(8) 0.7514(2)
H72_3 H 0.6686 0.0673 0.7363
O9_3 O 0.62903(8) 0.08928(6) 0.73528(19)
C101_3 C 0.63949(18) 0.11228(12) 0.6902(4)
C102_3 C 0.65109(23) 0.13927(16) 0.7297(5)
H73_3 H 0.6593 0.1552 0.6874
C103_3 C 0.65178(19) 0.14524(14) 0.8282(5)
O10_3 O 0.64572(11) 0.12732(8) 0.8920(2)
C104_3 C 0.64759(11) 0.10949(8) 0.5813(2)
C105_3 C 0.62589(14) 0.08819(9) 0.5267(3)
H74_3 H 0.6075 0.0761 0.5540
C106_3 C 0.63098(14) 0.08461(9) 0.4322(3)
H75_3 H 0.6161 0.0701 0.3949
C107_3 C 0.65778(16) 0.10232(10) 0.3923(2)
H76_3 H 0.6612 0.0999 0.327667
C108_3 C 0.67949(17) 0.12363(11) 0.4469(3)
H77_3 H 0.6978 0.1358 0.419667
C109_3 C 0.67440(14) 0.12721(10) 0.5414(3)
H78_3 H 0.6892 0.1418 0.578667
C110_3 C 0.65854(22) 0.17366(13) 0.8580(4)
C111_3 C 0.65740(21) 0.19253(13) 0.7931(4)
H79_3 H 0.6523 0.1869 0.7288
C112_3 C 0.66367(25) 0.21971(15) 0.8223(5)
H80_3 H 0.6628 0.2326 0.7780
C113_3 C 0.67097(34) 0.22801(16) 0.9164(5)
H81_3 H 0.6752 0.2466 0.9364
C114_3 C 0.67215(18) 0.20914(14) 0.9813(6)
C115_3 C 0.66592(17) 0.18197(13) 0.9521(5)
H83_3 H 0.6667 0.1691 0.9964
O11_3 O 0.63087(8) 0.04474(6) 0.87267(16)
C116_3 C 0.64436(12) 0.03559(9) 0.9219(2)
C117_3 C 0.66267(13) 0.05097(10) 0.9999(3)
C119_3 C 0.64017(13) 0.00699(9) 0.8943(3)
H85_3 H 0.6145 0.001667 0.7818
N6_4 N 0.50458(6) 0.95062(7) 0.0310(2)
N7 N 0.40485(11) 0.93075(8) 0.0824(2)
C91_4 C 0.41528(13) 0.94869(10) 0.0081(3)
C93_4 C 0.46082(8) 0.95139(9) 0.0175(3)
C94_4 C 0.45054(10) 0.93403(12) 0.0971(3)
H67_4 H 0.4625 0.9288 0.131
C95_4 C 0.42290(10) 0.92451(13) 0.1264(3)
H68_4 H 0.4163 0.9127 0.1815
N8_4 N 0.56634(7) 0.91386(7) 0.1556(2)
C96_4 C 0.54106(8) 0.91092(9) 0.1776(2)
H69_4 H 0.5307 0.8987 0.2292
C97_4 C 0.52908(8) 0.92439(9) 0.1304(2)
H70_4 H 0.5109 0.9215 0.1493
C98_4 C 0.54365(7) 0.94244(8) 0.0541(2)
C99_4 C 0.57058(8) 0.94636(8) 0.0324(3)
C100_4 C 0.58091(8) 0.93182(8) 0.0847(2)
H72_4 H 0.5994 0.9347 0.0696
Co3 Co 0.580525(12) 0.885499(11) 0.20847(3)
O9_4 O 0.57739(6) 0.87309(6) 0.06861(19)
C101_4 C 0.55439(12) 0.86055(14) 0.0235(4)
C102_4 C 0.52740(16) 0.84516(16) 0.0630(5)
H73_4 H 0.5115 0.8375 0.0207
C103_4 C 0.52143(14) 0.83988(13) 0.1615(5)
O10_4 O 0.53935(8) 0.85174(7) 0.2253(2)
C110_4 C 0.49301(13) 0.81822(18) 0.1913(4)
C111_4 C 0.47414(13) 0.79821(17) 0.1264(4)
H79_4 H 0.4798 0.7988 0.0621
C112_4 C 0.44696(15) 0.7773(2) 0.1556(5)
H80_4 H 0.4341 0.7636 0.1113
C113_4 C 0.43866(16) 0.7763(3) 0.2497(5)
H81_4 H 0.4201 0.762 0.2697
C114_4 C 0.45753(14) 0.79635(12) 0.3146(6)
H82 H 0.4519 0.7957 0.3789
C115_4 C 0.48470(13) 0.81729(11) 0.2854(5)
H83_4 H 0.4976 0.831 0.3297
O11_4 O 0.62193(6) 0.91947(5) 0.20600(16)
C116_4 C 0.63108(9) 0.94211(8) 0.2552(2)
C117_4 C 0.61570(10) 0.94504(9) 0.3332(3)
H84 H 0.6235 0.9635 0.3609
C118 C 0.59050(10) 0.92340(10) 0.3721(3)
O12 O 0.57796(7) 0.89763(6) 0.34398(18)
C119_4 C 0.65968(9) 0.96652(9) 0.2276(3)
C120_2 C 0.67377(10) 0.96377(10) 0.1494(3)
H85_4 H 0.665 0.9462 0.1151
C121_2 C 0.69982(11) 0.98553(11) 0.1201(4)
H86_2 H 0.7087 0.9832 0.0651
C124_2 C 0.67402(12) 0.99229(11) 0.2789(4)
H89 H 0.6657 0.995 0.3346
C125 C 0.57681(7) 0.92976(8) 0.4531(2)
C126 C 0.58717(8) 0.95698(8) 0.4914(2)
H90 H 0.6043 0.9727 0.4671
C127 C 0.57250(9) 0.96120(9) 0.5651(3)
H91 H 0.5796 0.9798 0.5913
C128 C 0.54747(10) 0.93819(12) 0.6006(3)
H92 H 0.5374 0.9411 0.651
C129 C 0.53711(10) 0.91097(10) 0.5624(3)
H93 H 0.52 0.8953 0.5867
C130 C 0.55178(8) 0.90676(8) 0.4886(2)
H94 H 0.5447 0.8882 0.4625
N9 N 0.59742(8) 0.85923(14) 0.2509(2)
Co4 Co 0.361693(16) 0.913858(12) 0.12486(3)
N6_5 N 0.04938(7) 0.55396(9) 0.0310(2)
N7_2 N 0.06925(8) 0.47410(14) 0.0824(2)
C91_5 C 0.05131(10) 0.46659(16) 0.0081(3)
C93_5 C 0.04861(9) 0.50943(12) 0.0175(3)
C94_5 C 0.06597(12) 0.51651(16) 0.0971(3)
H67_5 H 0.0712 0.5337 0.131
C95_5 C 0.07549(13) 0.49839(16) 0.1264(3)
H68_5 H 0.0873 0.5036 0.1815
N8_5 N 0.08614(7) 0.65248(10) 0.1556(2)
C96_5 C 0.08908(9) 0.63014(12) 0.1776(2)
H69_5 H 0.1013 0.6320 0.2292
C97_5 C 0.07561(9) 0.60469(12) 0.1304(2)
H70_5 H 0.0785 0.5894 0.1493
C98_5 C 0.05756(8) 0.60121(11) 0.0541(2)
C99_5 C 0.05364(8) 0.62422(11) 0.0324(3)
C100_5 C 0.06818(8) 0.64909(11) 0.0847(2)
H72_5 H 0.0653 0.6647 0.0696
Co3_2 Co 0.114501(11) 0.695026(16) 0.20847(3)
O9_5 O 0.12691(6) 0.70430(8) 0.06861(19)
C101_5 C 0.13945(14) 0.69384(18) 0.0235(4)
C102_5 C 0.15484(16) 0.68224(23) 0.0630(5)
H73_5 H 0.1625 0.6740 0.0207
C103_5 C 0.16012(13) 0.68155(19) 0.1615(5)
O10_5 O 0.14826(7) 0.68761(11) 0.2253(2)
C110_5 C 0.18178(18) 0.67479(22) 0.1913(4)
C111_5 C 0.20179(17) 0.67593(21) 0.1264(4)
H79_5 H 0.2012 0.6810 0.0621
C112_5 C 0.2227(2) 0.66966(25) 0.1556(5)
H80_5 H 0.2364 0.6705 0.1113
C113_5 C 0.2237(3) 0.66236(34) 0.2497(5)
H81_5 H 0.238 0.6581 0.2697
C114_5 C 0.20365(12) 0.66118(18) 0.3146(6)
H82_2 H 0.2043 0.6562 0.3789
C115_5 C 0.18271(11) 0.66741(17) 0.2854(5)
H83_5 H 0.169 0.6666 0.3297
O11_5 O 0.08053(5) 0.70246(8) 0.20600(16)
C116_5 C 0.05789(8) 0.68897(12) 0.2552(2)
C117_5 C 0.05496(9) 0.67066(13) 0.3332(3)
H84_2 H 0.0365 0.6600 0.3609
C118_2 C 0.07660(10) 0.66710(14) 0.3721(3)
O12_2 O 0.10237(6) 0.68033(9) 0.34398(18)
C119_5 C 0.03348(9) 0.69316(13) 0.2276(3)
C120_3 C 0.03623(10) 0.71000(14) 0.1494(3)
H85_5 H 0.0538 0.7188 0.1151
C121_3 C 0.01447(11) 0.71429(16) 0.1201(4)
H86_3 H 0.0168 0.7255 0.0651
C124_3 C 0.00771(11) 0.68173(16) 0.2789(4)
H89_2 H 0.005 0.6707 0.3346
C125_2 C 0.07024(8) 0.64705(11) 0.4531(2)
C126_2 C 0.04302(8) 0.63019(11) 0.4914(2)
H90_2 H 0.0273 0.6316 0.4671
C127_2 C 0.03880(9) 0.61130(13) 0.5651(3)
H91_2 H 0.0202 0.5998 0.5913
C128_2 C 0.06181(12) 0.60928(16) 0.6006(3)
H92_2 H 0.0589 0.5963 0.651
C129_2 C 0.08903(10) 0.62614(14) 0.5624(3)
H93_2 H 0.1047 0.6247 0.5867
C130_2 C 0.09324(8) 0.64502(11) 0.4886(2)
H94_2 H 0.1118 0.6565 0.4625
N9_2 N 0.14077(14) 0.73818(16) 0.2509(2)
Co4_2 Co 0.086142(12) 0.447834(20) 0.12486(3)
N6_6 N 0.44604(9) 0.49542(6) 0.0310(2)
N7_3 N 0.52590(14) 0.59515(11) 0.0824(2)
C91_6 C 0.53341(16) 0.58472(13) 0.0081(3)
C93_6 C 0.49057(12) 0.53918(8) 0.0175(3)
C94_6 C 0.48349(16) 0.54946(10) 0.0971(3)
H67_6 H 0.4663 0.5375 0.131
C95_6 C 0.50161(16) 0.57710(10) 0.1264(3)
H68_6 H 0.4964 0.5837 0.1815
N8_6 N 0.34752(10) 0.43366(7) 0.1556(2)
C96_6 C 0.36986(12) 0.45894(8) 0.1776(2)
H69_6 H 0.3680 0.4693 0.2292
C97_6 C 0.39531(12) 0.47092(8) 0.1304(2)
H70_6 H 0.4106 0.4891 0.1493
C98_6 C 0.39879(11) 0.45635(7) 0.0541(2)
C99_6 C 0.37578(11) 0.42942(8) 0.0324(3)
C100_6 C 0.35091(11) 0.41909(8) 0.0847(2)
H72_6 H 0.3353 0.4006 0.0696
Co3_3 Co 0.304974(16) 0.419475(12) 0.20847(3)
O9_6 O 0.29570(8) 0.42261(6) 0.06861(19)
C101_6 C 0.30616(18) 0.44561(12) 0.0235(4)
C102_6 C 0.31776(23) 0.47260(16) 0.0630(5)
H73_6 H 0.3260 0.4885 0.0207
C103_6 C 0.31845(19) 0.47857(14) 0.1615(5)
O10_6 O 0.31239(11) 0.46065(8) 0.2253(2)
C110_6 C 0.32521(22) 0.50699(13) 0.1913(4)
C111_6 C 0.32407(21) 0.52586(13) 0.1264(4)
H79_6 H 0.3190 0.5202 0.0621
C112_6 C 0.33034(25) 0.55304(15) 0.1556(5)
H80_6 H 0.3295 0.5659 0.1113
C113_6 C 0.33764(34) 0.56134(16) 0.2497(5)
H81_6 H 0.3419 0.5799 0.2697
C114_6 C 0.33882(18) 0.54247(14) 0.3146(6)
H82_3 H 0.3438 0.5481 0.3789
C115_6 C 0.33259(17) 0.51530(13) 0.2854(5)
H83_6 H 0.3334 0.5024 0.3297
O11_6 O 0.29754(8) 0.37807(6) 0.20600(16)
C116_6 C 0.31103(12) 0.36892(9) 0.2552(2)
C117_6 C 0.32934(13) 0.38430(10) 0.3332(3)
H84_3 H 0.3400 0.3765 0.3609
C118_3 C 0.33290(14) 0.40950(10) 0.3721(3)
O12_3 O 0.31967(9) 0.42204(7) 0.34398(18)
C119_6 C 0.30684(13) 0.34032(9) 0.2276(3)
C120_4 C 0.29000(14) 0.32623(10) 0.1494(3)
H85_6 H 0.2812 0.335 0.1151
C121_4 C 0.28571(16) 0.30018(11) 0.1201(4)
H86_4 H 0.2745 0.2913 0.0651
C122_3 C 0.29764(18) 0.28674(12) 0.1702(4)
H87_3 H 0.2949 0.2687 0.1503
C123_3 C 0.31316(20) 0.29969(14) 0.2474(5)
H88_3 H 0.3211 0.2902 0.2825
C124_4 C 0.31827(16) 0.32598(12) 0.2789(4)
H89_3 H 0.3293 0.3343 0.3346
C125_3 C 0.35295(11) 0.42319(7) 0.4531(2)
C126_3 C 0.36981(11) 0.41283(8) 0.4914(2)
H90_3 H 0.3684 0.3957 0.4671
C127_3 C 0.38870(13) 0.42750(9) 0.5651(3)
H91_3 H 0.4002 0.4204 0.5913
C128_3 C 0.39072(16) 0.45253(10) 0.6006(3)
H92_3 H 0.4037 0.4626 0.651
C129_3 C 0.37386(14) 0.46289(10) 0.5624(3)
H93_3 H 0.3753 0.48 0.5867
C130_3 C 0.35498(11) 0.44822(8) 0.4886(2)
H94_3 H 0.3435 0.4553 0.4625
N9_3 N 0.26182(16) 0.40258(8) 0.2509(2)
Co4_3 Co 0.552166(20) 0.638307(16) 0.12486(3)
Co1_5 Co 0.16667 0.33333 0.83333
O1_4 O 0.15156(5) 0.29056(6) 0.81796(18)
C1_4 C 0.15933(9) 0.27925(10) 0.7543(3)
C2_4 C 0.18295(9) 0.29399(10) 0.6934(3)
H1 H 0.1864 0.2828 0.6487
C3_4 C 0.20185(7) 0.32337(9) 0.6922(2)
O2_5 O 0.19781(5) 0.34145(6) 0.73661(16)
C4_4 C 0.14029(13) 0.24829(9) 0.7427(6)
C5_4 C 0.11108(13) 0.23668(16) 0.7586(8)
H2_4 H 0.1038 0.2487 0.7769
C6_4 C 0.09259(16) 0.20741(19) 0.7475(12)
H3_4 H 0.072667 0.1994 0.758333
C7_4 C 0.1033(3) 0.18973(12) 0.7207(14)
H4_4 H 0.090667 0.1697 0.7132
C8_4 C 0.1326(3) 0.20134(12) 0.7049(13)
H5_4 H 0.1399 0.1892 0.6866
C9_4 C 0.15101(18) 0.23061(13) 0.7159(9)
H6_4 H 0.1710 0.2385 0.7051
C10_2 C 0.22879(7) 0.33515(8) 0.6356(2)
C11 C 0.24151(8) 0.31920(10) 0.6125(3)
H7 H 0.2324 0.2995 0.6300
C12 C 0.26750(9) 0.33141(10) 0.5639(3)
H8 H 0.2759 0.3201 0.5482
C13_2 C 0.28069(9) 0.35924(11) 0.5390(3)
H9_2 H 0.2988 0.3677 0.5081
C14_2 C 0.26797(10) 0.37572(11) 0.5585(3)
H10_2 H 0.2768 0.3950 0.5374
C15_2 C 0.24222(9) 0.36358(10) 0.6091(3)
H11_2 H 0.2339 0.3749 0.625333
N1_4 N 0.13698(6) 0.32833(7) 0.7226(2)
C16_4 C 0.10863(7) 0.30993(10) 0.7326(3)
H12_4 H 0.1018 0.3001 0.7914
C17 C 0.08952(8) 0.30486(10) 0.6611(3)
H13_4 H 0.069667 0.2918 0.6706
C18 C 0.09916(7) 0.31879(9) 0.5746(3)
H14 H 0.0860 0.3157 0.5250
C19_2 C 0.12800(7) 0.33702(8) 0.5614(2)
C20_2 C 0.14615(7) 0.34157(8) 0.6387(2)
H15_2 H 0.1661 0.3547 0.631333
N2_4 N 0.16209(6) 0.38271(7) 0.3023(2)
C21_2 C 0.17697(8) 0.37350(9) 0.3539(2)
C22_2 C 0.16615(7) 0.35769(8) 0.4368(2)
H16_2 H 0.176667 0.3505 0.4695
C23_2 C 0.13973(7) 0.35243(8) 0.4716(2)
C24_2 C 0.12479(7) 0.36295(8) 0.4191(2)
H17_2 H 0.1069 0.3601 0.4408
C25_2 C 0.13662(7) 0.37754(8) 0.3348(2)
C26_4 C 0.25139(13) 0.38464(10) 0.3252(3)
H18_2 H 0.2636 0.3792 0.3561
C27_2 C 0.22397(7) 0.37378(9) 0.3590(3)
H19_2 H 0.2175 0.3608 0.4112
C28_4 C 0.20585(8) 0.38194(9) 0.3158(3)
C29_4 C 0.21613(10) 0.39930(12) 0.2362(3)
H20_4 H 0.2042 0.4045 0.202333
C30_4 C 0.24377(10) 0.40882(13) 0.2069(3)
H21_4 H 0.2504 0.4206 0.1518
N4_4 N 0.10033(7) 0.41947(7) 0.1777(2)
C31_4 C 0.12561(8) 0.42241(9) 0.1557(2)
H22_4 H 0.1360 0.4346 0.1041
C32_4 C 0.13759(8) 0.40894(9) 0.2029(2)
H23_4 H 0.1558 0.4118 0.1840
C33_4 C 0.12302(7) 0.39089(8) 0.2792(2)
C34_4 C 0.09609(8) 0.38697(8) 0.3009(3)
H24_2 H 0.0850 0.3745 0.3510
C35_4 C 0.08576(8) 0.40151(8) 0.2486(2)
H25_4 H 0.0673 0.3986 0.2637
O3_4 O 0.08928(6) 0.46024(6) 0.26472(19)
C36_4 C 0.11228(12) 0.47278(14) 0.3098(4)
C37_4 C 0.13927(16) 0.48817(16) 0.2703(5)
H26_4 H 0.1552 0.4958 0.3126
C38_4 C 0.14524(14) 0.49345(13) 0.1718(5)
O4_4 O 0.12732(8) 0.48159(7) 0.1080(2)
C39_2 C 0.10949(8) 0.46189(8) 0.4187(2)
C40_2 C 0.08819(9) 0.46229(11) 0.4733(3)
H27_2 H 0.0761 0.4685 0.4460
C41_2 C 0.08461(9) 0.45362(11) 0.5678(3)
H28_2 H 0.0701 0.4539 0.6051
C42_2 C 0.10232(10) 0.44453(12) 0.6077(2)
H29_3 H 0.0999 0.4386 0.672333
C43_2 C 0.12363(11) 0.44413(13) 0.5531(3)
H30_2 H 0.1358 0.4379 0.580333
C44_2 C 0.12721(10) 0.45280(10) 0.4586(3)
H31_2 H 0.1418 0.4525 0.421333
C45_4 C 0.17366(13) 0.51511(18) 0.1420(4)
C46_4 C 0.19253(13) 0.53512(17) 0.2069(4)
H32_4 H 0.1869 0.5345 0.2712
C47_4 C 0.21971(15) 0.5560(2) 0.1777(5)
H33_4 H 0.2326 0.5697 0.2220
C48_4 C 0.22801(16) 0.5570(3) 0.0836(5)
H34_4 H 0.2466 0.571333 0.0636
C49_4 C 0.20914(14) 0.53698(12) 0.0187(6)
C50_4 C 0.18197(13) 0.51604(11) 0.0479(5)
H36_4 H 0.1691 0.502333 0.0036
O5_4 O 0.04474(6) 0.41386(5) 0.12733(16)
C51_4 C 0.03559(9) 0.39122(8) 0.0781(2)
C52_4 C 0.05097(10) 0.38829(9) 0.0001(3)
C54_4 C 0.00699(9) 0.36681(9) 0.1057(3)
H38_4 H 0.001667 0.3871 0.2182
O7_5 O 0.18178(5) 0.37610(6) 0.84870(18)
C66_5 C 0.17401(9) 0.38741(10) 0.9123(3)
C67_5 C 0.15039(9) 0.37267(10) 0.9732(3)
C68_5 C 0.13149(7) 0.34329(9) 0.9744(2)
O8_4 O 0.13553(5) 0.32521(6) 0.93005(16)
C69_5 C 0.19305(13) 0.41837(9) 0.9239(6)
C70_5 C 0.22226(13) 0.42998(16) 0.9080(8)
H49_5 H 0.2296 0.4179 0.8897
C71_5 C 0.24075(16) 0.45925(19) 0.9191(12)
H50_5 H 0.260667 0.4672 0.908333
C72_5 C 0.2301(3) 0.47693(12) 0.9459(14)
H51_5 H 0.242667 0.4969 0.9534
C73_5 C 0.2008(3) 0.46532(12) 0.9617(13)
H52_5 H 0.1935 0.4774 0.9800
C74_5 C 0.18233(18) 0.43605(13) 0.9507(9)
H53_5 H 0.1624 0.4281 0.9615
N5_5 N 0.19636(6) 0.33833(7) 0.9440(2)
C81_5 C 0.22471(7) 0.35673(10) 0.9340(3)
H59_5 H 0.2316 0.3665 0.8752
H60_5 H 0.263667 0.3748 0.9960
H76_4 H 0.2335 0.2280 0.994333
Co1_6 Co 0.66667 0.83333 0.83333
O1_5 O 0.70944(6) 0.86099(8) 0.81796(18)
C1_5 C 0.72075(10) 0.88007(13) 0.7543(3)
C2_5 C 0.70601(10) 0.88895(13) 0.6934(3)
H1_2 H 0.7172 0.9035 0.6487
C3_5 C 0.67663(9) 0.87847(11) 0.6922(2)
O2_6 O 0.65855(6) 0.85635(8) 0.73661(16)
C4_5 C 0.75171(9) 0.89199(16) 0.7427(6)
C5_5 C 0.76332(16) 0.87439(21) 0.7586(8)
H2_5 H 0.7513 0.8550 0.7769
C6_5 C 0.79259(19) 0.88517(25) 0.7475(12)
H3_5 H 0.8006 0.8732 0.758333
C7_5 C 0.81027(12) 0.91353(32) 0.7207(14)
H4_5 H 0.8303 0.9209 0.7132
C8_5 C 0.79866(12) 0.93122(32) 0.7049(13)
H5_5 H 0.8108 0.9506 0.6866
C9_5 C 0.76939(13) 0.92039(22) 0.7159(9)
H6_5 H 0.7615 0.9324 0.7051
C10_3 C 0.66485(8) 0.89363(11) 0.6356(2)
C11_2 C 0.68080(10) 0.92230(13) 0.6125(3)
H7_2 H 0.7005 0.9328 0.6300
C12_2 C 0.66859(10) 0.93608(13) 0.5639(3)
H8_2 H 0.6799 0.9557 0.5482
C13_3 C 0.64076(11) 0.92144(14) 0.5390(3)
H9_3 H 0.6323 0.9310 0.5081
C14_3 C 0.62428(11) 0.89224(15) 0.5585(3)
H10_3 H 0.6050 0.8817 0.5374
C15_3 C 0.63642(10) 0.87863(13) 0.6091(3)
H11_3 H 0.6251 0.8589 0.625333
N1_5 N 0.67167(7) 0.80864(9) 0.7226(2)
C16_5 C 0.69007(10) 0.79869(12) 0.7326(3)
H12_5 H 0.6999 0.8016 0.7914
C17_2 C 0.69514(10) 0.78465(13) 0.6611(3)
H13_5 H 0.7082 0.7778 0.6706
C18_2 C 0.68121(9) 0.78036(11) 0.5746(3)
H14_2 H 0.6843 0.7702 0.5250
C19_3 C 0.66298(8) 0.79097(11) 0.5614(2)
C20_3 C 0.65843(8) 0.80457(11) 0.6387(2)
H15_3 H 0.6453 0.8113 0.631333
N2_5 N 0.61729(7) 0.77937(9) 0.3023(2)
C21_3 C 0.62650(9) 0.80346(12) 0.3539(2)
C22_3 C 0.64231(8) 0.80845(11) 0.4368(2)
H16_3 H 0.6495 0.8261 0.4695
C23_3 C 0.64757(8) 0.78729(11) 0.4716(2)
C24_3 C 0.63705(8) 0.76183(11) 0.4191(2)
H17_3 H 0.6399 0.7467 0.4408
C25_3 C 0.62246(8) 0.75907(11) 0.3348(2)
C26_5 C 0.61536(10) 0.86674(16) 0.3252(3)
H18_3 H 0.6208 0.8843 0.3561
C27_3 C 0.62622(9) 0.85018(11) 0.3590(3)
H19_3 H 0.6392 0.8566 0.4112
C28_5 C 0.61806(9) 0.82390(12) 0.3158(3)
C29_5 C 0.60070(12) 0.81682(16) 0.2362(3)
H20_5 H 0.5955 0.7996 0.202333
C30_5 C 0.59118(13) 0.83494(16) 0.2069(3)
H21_5 H 0.5794 0.8297 0.1518
N4_5 N 0.58053(7) 0.68085(10) 0.1777(2)
C31_5 C 0.57759(9) 0.70319(12) 0.1557(2)
H22_5 H 0.5654 0.7013 0.1041
C32_5 C 0.59106(9) 0.72864(12) 0.2029(2)
H23_5 H 0.5882 0.7439 0.1840
C33_5 C 0.60911(8) 0.73212(11) 0.2792(2)
C34_5 C 0.61303(8) 0.70911(11) 0.3009(3)
H24_3 H 0.6255 0.7104 0.3510
C35_5 C 0.59849(8) 0.68424(11) 0.2486(2)
H25_5 H 0.6014 0.6686 0.2637
O3_5 O 0.53976(6) 0.62903(8) 0.26472(19)
C36_5 C 0.52722(14) 0.63949(18) 0.3098(4)
C37_5 C 0.51183(16) 0.65109(23) 0.2703(5)
H26_5 H 0.5042 0.6593 0.3126
C38_5 C 0.50655(13) 0.65178(19) 0.1718(5)
O4_5 O 0.51841(7) 0.64572(11) 0.1080(2)
C39_3 C 0.53811(8) 0.64759(11) 0.4187(2)
C40_3 C 0.53771(11) 0.62589(14) 0.4733(3)
H27_3 H 0.5315 0.6075 0.4460
C41_3 C 0.54638(11) 0.63098(14) 0.5678(3)
H28_3 H 0.5461 0.6161 0.6051
C42_3 C 0.55547(12) 0.65778(16) 0.6077(2)
H29_4 H 0.5614 0.6612 0.672333
C43_3 C 0.55587(13) 0.67949(17) 0.5531(3)
H30_3 H 0.5621 0.6978 0.580333
C44_3 C 0.54720(10) 0.67440(14) 0.4586(3)
H31_3 H 0.5475 0.6892 0.421333
C45_5 C 0.48489(18) 0.65854(22) 0.1420(4)
C46_5 C 0.46488(17) 0.65740(21) 0.2069(4)
H32_5 H 0.4655 0.6523 0.2712
C47_5 C 0.4440(2) 0.66367(25) 0.1777(5)
H33_5 H 0.4303 0.6628 0.2220
C48_5 C 0.4430(3) 0.67097(34) 0.0836(5)
H34_5 H 0.428667 0.6752 0.0636
C49_5 C 0.46302(12) 0.67215(18) 0.0187(6)
C50_5 C 0.48396(11) 0.66592(17) 0.0479(5)
H36_5 H 0.497667 0.6667 0.0036
O5_5 O 0.58614(5) 0.63087(8) 0.12733(16)
C51_5 C 0.60878(8) 0.64436(12) 0.0781(2)
C52_5 C 0.61171(9) 0.66267(13) 0.0001(3)
C54_5 C 0.63319(9) 0.64017(13) 0.1057(3)
C55_4 C 0.63044(10) 0.62333(14) 0.1839(3)
H38_5 H 0.6129 0.6145 0.2182
C56_4 C 0.65220(11) 0.61904(16) 0.2132(4)
H39_4 H 0.6499 0.6078 0.2682
C57_2 C 0.67757(13) 0.63097(18) 0.1631(4)
H40_2 H 0.6929 0.6282 0.1830
C58_2 C 0.68014(14) 0.64649(20) 0.0859(5)
H41_2 H 0.6976 0.6544 0.0508
C59_4 C 0.65896(11) 0.65160(16) 0.0544(4)
O7_6 O 0.62390(6) 0.80567(8) 0.84870(18)
C66_6 C 0.61259(10) 0.78659(13) 0.9123(3)
C67_6 C 0.62733(10) 0.77771(13) 0.9732(3)
C68_6 C 0.65671(9) 0.78819(11) 0.9744(2)
O8_5 O 0.67479(6) 0.81031(8) 0.93005(16)
C69_6 C 0.58163(9) 0.77467(16) 0.9239(6)
C70_6 C 0.57002(16) 0.79227(21) 0.9080(8)
H49_6 H 0.5821 0.8116 0.8897
C71_6 C 0.54075(19) 0.78149(25) 0.9191(12)
H50_6 H 0.5328 0.7934 0.908333
C72_6 C 0.52307(12) 0.75313(32) 0.9459(14)
H51_6 H 0.5031 0.7457 0.9534
C73_6 C 0.53468(12) 0.73544(32) 0.9617(13)
H52_6 H 0.5226 0.7160 0.9800
C74_6 C 0.56395(13) 0.74627(22) 0.9507(9)
H53_6 H 0.5719 0.7342 0.9615
N5_6 N 0.66167(7) 0.85802(9) 0.9440(2)
C81_6 C 0.64327(10) 0.86797(12) 0.9340(3)
H59_6 H 0.6335 0.8650 0.8752
H60_6 H 0.6252 0.8888 0.9960
Co1_7 Co 0.16667 0.83333 0.83333
O1_6 O 0.13901(8) 0.84844(5) 0.81796(18)
C1_6 C 0.11993(13) 0.84067(9) 0.7543(3)
C2_6 C 0.11105(13) 0.81705(9) 0.6934(3)
H1_3 H 0.0965 0.8136 0.6487
C3_6 C 0.12153(11) 0.79815(7) 0.6922(2)
O2_7 O 0.14365(8) 0.80219(5) 0.73661(16)
C4_6 C 0.10801(16) 0.85971(13) 0.7427(6)
C5_6 C 0.12561(21) 0.88892(13) 0.7586(8)
H2_6 H 0.1450 0.8962 0.7769
C6_6 C 0.11483(25) 0.90741(16) 0.7475(12)
H3_6 H 0.1268 0.927333 0.758333
C7_6 C 0.08647(32) 0.8967(3) 0.7207(14)
H4_6 H 0.0791 0.909333 0.7132
C8_6 C 0.06878(32) 0.8674(3) 0.7049(13)
H5_6 H 0.0494 0.8601 0.6866
C9_6 C 0.07961(22) 0.84899(18) 0.7159(9)
H6_6 H 0.0676 0.8290 0.7051
C10_4 C 0.10637(11) 0.77121(7) 0.6356(2)
C11_3 C 0.07770(13) 0.75849(8) 0.6125(3)
H7_3 H 0.0672 0.7676 0.6300
C12_3 C 0.06392(13) 0.73250(9) 0.5639(3)
H8_3 H 0.0443 0.7241 0.5482
C13_4 C 0.07856(14) 0.71931(9) 0.5390(3)
H9_4 H 0.0690 0.7012 0.5081
C14_4 C 0.10776(15) 0.73203(10) 0.5585(3)
H10_4 H 0.1183 0.7232 0.5374
C15_4 C 0.12137(13) 0.75778(9) 0.6091(3)
H11_4 H 0.1411 0.7661 0.625333
N1_6 N 0.19136(9) 0.86302(6) 0.7226(2)
C16_6 C 0.20131(12) 0.89137(7) 0.7326(3)
H12_6 H 0.1984 0.8982 0.7914
C17_3 C 0.21535(13) 0.91048(8) 0.6611(3)
H13_6 H 0.2222 0.930333 0.6706
C18_3 C 0.21964(11) 0.90084(7) 0.5746(3)
H14_3 H 0.2298 0.9140 0.5250
C19_4 C 0.20903(11) 0.87200(7) 0.5614(2)
C20_4 C 0.19543(11) 0.85385(7) 0.6387(2)
H15_4 H 0.1887 0.8339 0.631333
N2_6 N 0.22063(9) 0.83791(6) 0.3023(2)
C21_4 C 0.19654(12) 0.82303(8) 0.3539(2)
C22_4 C 0.19155(11) 0.83385(7) 0.4368(2)
H16_4 H 0.1739 0.823333 0.4695
C23_4 C 0.21271(11) 0.86027(7) 0.4716(2)
C24_4 C 0.23817(11) 0.87521(7) 0.4191(2)
H17_4 H 0.2533 0.8931 0.4408
C25_4 C 0.24093(11) 0.86338(7) 0.3348(2)
C26_6 C 0.13326(16) 0.74861(13) 0.3252(3)
H18_4 H 0.1157 0.7364 0.3561
C27_4 C 0.14982(11) 0.77603(7) 0.3590(3)
H19_4 H 0.1434 0.7825 0.4112
C28_6 C 0.17610(12) 0.79415(8) 0.3158(3)
C29_6 C 0.18318(16) 0.78387(10) 0.2362(3)
H20_6 H 0.2004 0.7958 0.202333
C30_6 C 0.16506(16) 0.75623(10) 0.2069(3)
H21_6 H 0.1703 0.7496 0.1518
N4_6 N 0.31915(10) 0.89967(7) 0.1777(2)
C31_6 C 0.29681(12) 0.87439(8) 0.1557(2)
H22_6 H 0.2987 0.8640 0.1041
C32_6 C 0.27136(12) 0.86241(8) 0.2029(2)
H23_6 H 0.2561 0.8442 0.1840
C33_6 C 0.26788(11) 0.87698(7) 0.2792(2)
C34_6 C 0.29089(11) 0.90391(8) 0.3009(3)
H24_4 H 0.2896 0.9150 0.3510
C35_6 C 0.31576(11) 0.91424(8) 0.2486(2)
H25_6 H 0.3314 0.9327 0.2637
O3_6 O 0.37097(8) 0.91072(6) 0.26472(19)
C36_6 C 0.36051(18) 0.88772(12) 0.3098(4)
C37_6 C 0.34891(23) 0.86073(16) 0.2703(5)
H26_6 H 0.3407 0.8448 0.3126
C38_6 C 0.34822(19) 0.85476(14) 0.1718(5)
O4_6 O 0.35428(11) 0.87268(8) 0.1080(2)
C39_4 C 0.35241(11) 0.89051(8) 0.4187(2)
C40_4 C 0.37411(14) 0.91181(9) 0.4733(3)
H27_4 H 0.3925 0.9239 0.4460
C41_4 C 0.36902(14) 0.91539(9) 0.5678(3)
H28_4 H 0.3839 0.9299 0.6051
C42_4 C 0.34222(16) 0.89768(10) 0.6077(2)
H29_5 H 0.3388 0.9001 0.672333
C43_4 C 0.32051(17) 0.87637(11) 0.5531(3)
H30_4 H 0.3022 0.8642 0.580333
C44_4 C 0.32560(14) 0.87279(10) 0.4586(3)
H31_4 H 0.3108 0.8582 0.421333
C45_6 C 0.34146(22) 0.82634(13) 0.1420(4)
C46_6 C 0.34260(21) 0.80747(13) 0.2069(4)
H32_6 H 0.3477 0.8131 0.2712
C47_6 C 0.33633(25) 0.78029(15) 0.1777(5)
H33_6 H 0.3372 0.7674 0.2220
C48_6 C 0.32903(34) 0.77199(16) 0.0836(5)
H34_6 H 0.3248 0.7534 0.0636
C49_6 C 0.32785(18) 0.79086(14) 0.0187(6)
C50_6 C 0.33408(17) 0.81803(13) 0.0479(5)
H36_6 H 0.3333 0.8309 0.0036
O5_6 O 0.36913(8) 0.95526(6) 0.12733(16)
C51_6 C 0.35564(12) 0.96441(9) 0.0781(2)
C52_6 C 0.33733(13) 0.94903(10) 0.0001(3)
C54_6 C 0.35983(13) 0.99301(9) 0.1057(3)
H38_6 H 0.3855 0.998333 0.2182
O7_7 O 0.19433(8) 0.81822(5) 0.84870(18)
C66_7 C 0.21341(13) 0.82599(9) 0.9123(3)
C67_7 C 0.22229(13) 0.84961(9) 0.9732(3)
C68_7 C 0.21181(11) 0.86851(7) 0.9744(2)
O8_6 O 0.18969(8) 0.86447(5) 0.93005(16)
C69_7 C 0.22533(16) 0.80695(13) 0.9239(6)
C70_7 C 0.20773(21) 0.77774(13) 0.9080(8)
H49_7 H 0.1884 0.7704 0.8897
C71_7 C 0.21851(25) 0.75925(16) 0.9191(12)
H50_7 H 0.2066 0.739333 0.908333
C72_7 C 0.24687(32) 0.7699(3) 0.9459(14)
H51_7 H 0.2543 0.757333 0.9534
C73_7 C 0.26456(32) 0.7992(3) 0.9617(13)
H52_7 H 0.2840 0.8065 0.9800
C74_7 C 0.25373(22) 0.81767(18) 0.9507(9)
H53_7 H 0.2658 0.8376 0.9615
N5_7 N 0.14198(9) 0.80364(6) 0.9440(2)
C81_7 C 0.13203(12) 0.77529(7) 0.9340(3)
H59_7 H 0.1350 0.7684 0.8752
H60_7 H 0.1112 0.736333 0.9960
Co1_8 Co 0.50000 1.00000 0.50000
O1_7 O 0.48489(5) 0.95723(6) 0.48463(18)
C1_7 C 0.49266(9) 0.94592(10) 0.4210(3)
C2_7 C 0.51628(9) 0.96066(10) 0.3601(3)
H1_4 H 0.5197 0.9495 0.3154
C3_7 C 0.53518(7) 0.99004(9) 0.3589(2)
C4_7 C 0.47362(13) 0.91496(9) 0.4094(6)
C5_7 C 0.44441(13) 0.90335(16) 0.4253(8)
H2_7 H 0.4371 0.9154 0.4436
C6_7 C 0.42592(16) 0.87408(19) 0.4142(12)
H3_7 H 0.406 0.8661 0.425
C7_7 C 0.4366(3) 0.85640(12) 0.3874(14)
H4_7 H 0.424 0.8364 0.3799
C8_7 C 0.4659(3) 0.86801(12) 0.3716(13)
H5_7 H 0.4732 0.8559 0.3533
C9_7 C 0.48434(18) 0.89728(13) 0.3826(9)
H6_7 H 0.5043 0.9052 0.3718
C11_4 C 0.57484(8) 0.98587(10) 0.2792(3)
H7_4 H 0.5657 0.9662 0.2967
C12_4 C 0.60083(9) 0.99808(10) 0.2306(3)
H8_4 H 0.6092 0.9868 0.2149
N1_7 N 0.47031(6) 0.99500(7) 0.3893(2)
C16_7 C 0.44196(7) 0.97660(10) 0.3993(3)
H12_7 H 0.4351 0.9668 0.4581
C17_4 C 0.42285(8) 0.97153(10) 0.3278(3)
H13_7 H 0.403 0.9585 0.3373
C18_4 C 0.43249(7) 0.98546(9) 0.2413(3)
H14_4 H 0.4193 0.9824 0.1917
O8_7 O 0.46886(5) 0.99188(6) 0.59672(16)
C75_4 C 0.43788(7) 0.99818(8) 0.6977(2)
C78_4 C 0.38598(9) 0.97409(11) 0.7943(3)
H56_4 H 0.3679 0.9656 0.8252
C79_4 C 0.39870(10) 0.95761(11) 0.7748(3)
H57_4 H 0.3899 0.9383 0.7959
C80_4 C 0.42445(9) 0.96975(10) 0.7242(3)
H58_4 H 0.4328 0.9584 0.708
C84_4 C 0.53867(7) 0.99631(8) 0.7719(2)
C85_4 C 0.52052(7) 0.99176(8) 0.6946(2)
H62_4 H 0.5006 0.9786 0.702
C86_4 C 0.48970(8) 0.95983(9) 0.9794(2)
C87_4 C 0.50052(7) 0.97564(8) 0.8965(2)
H63_4 H 0.49 0.9828 0.8638
C88_4 C 0.52694(7) 0.98090(8) 0.8617(2)
C89_4 C 0.54188(7) 0.97038(8) 0.9142(2)
H64_4 H 0.5598 0.9732 0.8925
C90_4 C 0.53005(7) 0.95579(8) 0.9985(2)
H65_4 H 0.4031 0.9541 0.9772
C92_4 C 0.44270(7) 0.95955(9) 0.9743(3)
H66_4 H 0.4492 0.9725 0.9221
H71_4 H 0.5817 0.9588 0.9823
C104_4 C 0.55718(8) 0.87144(8) 0.9146(2)
C105_4 C 0.57848(9) 0.87104(11) 0.8600(3)
H74_4 H 0.5906 0.8648 0.8873
C106_4 C 0.58206(9) 0.87971(11) 0.7655(3)
H75_4 H 0.5966 0.8794 0.7282
C107_4 C 0.56435(10) 0.88880(12) 0.7256(2)
H76_5 H 0.5668 0.8947 0.661
C108_4 C 0.54304(11) 0.88920(13) 0.7802(3)
H77_4 H 0.5309 0.8954 0.753
C109_4 C 0.53946(10) 0.88053(10) 0.8747(3)
H78_4 H 0.5249 0.8808 0.912
C57_3 C 0.28674(12) 0.98910(13) 0.8298(4)
H40_3 H 0.2687 0.9738 0.8497
C58_3 C 0.29969(14) 0.98653(14) 0.7526(5)
H41_3 H 0.2902 0.9691 0.7175
Co1_9 Co 0.00000 0.50000 0.50000
O1_8 O 0.04277(6) 0.52766(8) 0.48463(18)
C1_8 C 0.05408(10) 0.54674(13) 0.4210(3)
C2_8 C 0.03934(10) 0.55562(13) 0.3601(3)
H1_5 H 0.0505 0.5702 0.3154
C3_8 C 0.00996(9) 0.54514(11) 0.3589(2)
C4_8 C 0.08504(9) 0.55866(16) 0.4094(6)
C5_8 C 0.09665(16) 0.54106(21) 0.4253(8)
H2_8 H 0.0846 0.5217 0.4436
C6_8 C 0.12592(19) 0.55184(25) 0.4142(12)
H3_8 H 0.1339 0.5399 0.425
C7_8 C 0.14360(12) 0.58020(32) 0.3874(14)
H4_8 H 0.1636 0.5876 0.3799
C8_8 C 0.13199(12) 0.59789(32) 0.3716(13)
H5_8 H 0.1441 0.6173 0.3533
C9_8 C 0.10272(13) 0.58706(22) 0.3826(9)
H6_8 H 0.0948 0.5991 0.3718
C11_5 C 0.01413(10) 0.58897(13) 0.2792(3)
H7_5 H 0.0338 0.5995 0.2967
C12_5 C 0.00192(10) 0.60275(13) 0.2306(3)
H8_5 H 0.0132 0.6224 0.2149
N1_8 N 0.00500(7) 0.47531(9) 0.3893(2)
C16_8 C 0.02340(10) 0.46536(12) 0.3993(3)
H12_8 H 0.0332 0.4683 0.4581
C17_5 C 0.02847(10) 0.45132(13) 0.3278(3)
H13_8 H 0.0415 0.4445 0.3373
C18_5 C 0.01454(9) 0.44703(11) 0.2413(3)
H14_5 H 0.0176 0.4369 0.1917
O8_8 O 0.00812(6) 0.47698(8) 0.59672(16)
C75_5 C 0.00182(8) 0.43970(11) 0.6977(2)
C78_5 C 0.02591(11) 0.41189(14) 0.7943(3)
H56_5 H 0.0344 0.4023 0.8252
C79_5 C 0.04239(11) 0.44109(15) 0.7748(3)
H57_5 H 0.0617 0.4516 0.7959
C80_5 C 0.03025(10) 0.45470(13) 0.7242(3)
H58_5 H 0.0416 0.4744 0.708
C84_5 C 0.00369(8) 0.54236(11) 0.7719(2)
C85_5 C 0.00824(8) 0.52876(11) 0.6946(2)
H62_5 H 0.0214 0.5220 0.702
C86_5 C 0.04017(9) 0.52987(12) 0.9794(2)
C87_5 C 0.02436(8) 0.52488(11) 0.8965(2)
H63_5 H 0.0172 0.5072 0.8638
C88_5 C 0.01910(8) 0.54604(11) 0.8617(2)
C89_5 C 0.02962(8) 0.57150(11) 0.9142(2)
H64_5 H 0.0268 0.5866 0.8925
C90_5 C 0.04421(8) 0.57426(11) 0.9985(2)
H65_5 H 0.0459 0.4490 0.9772
C92_5 C 0.04045(9) 0.48315(11) 0.9743(3)
H66_5 H 0.0275 0.4767 0.9221
H71_5 H 0.0412 0.6229 0.9823
C104_5 C 0.12856(8) 0.68574(11) 0.9146(2)
C105_5 C 0.12896(11) 0.70744(14) 0.8600(3)
H74_5 H 0.1352 0.7258 0.8873
C106_5 C 0.12029(11) 0.70235(14) 0.7655(3)
H75_5 H 0.1206 0.7172 0.7282
C107_5 C 0.11120(12) 0.67555(16) 0.7256(2)
H76_6 H 0.1053 0.6721 0.661
C108_5 C 0.11080(13) 0.65384(17) 0.7802(3)
H77_5 H 0.1046 0.6355 0.753
C109_5 C 0.11947(10) 0.65893(14) 0.8747(3)
H78_5 H 0.1192 0.6441 0.912
C57_4 C 0.01090(13) 0.29764(18) 0.8298(4)
H40_4 H 0.0262 0.2949 0.8497
C58_4 C 0.01347(14) 0.31316(20) 0.7526(5)
H41_4 H 0.0309 0.3211 0.7175
C122_4 C 0.98910(13) 0.70236(18) 0.1702(4)
H87_4 H 0.9738 0.7051 0.1503
C123_4 C 0.98653(14) 0.68684(20) 0.2474(5)
H88_4 H 0.9691 0.6789 0.2825
Co1_10 Co 1.00000 0.50000 0.50000
O2_8 O 0.99188(6) 0.52302(8) 0.40328(16)
C10_5 C 0.99818(8) 0.56030(11) 0.3023(2)
C13_5 C 0.97409(11) 0.58811(14) 0.2057(3)
H9_5 H 0.9656 0.5977 0.1748
C14_5 C 0.95761(11) 0.55891(15) 0.2252(3)
H10_5 H 0.9383 0.5484 0.2041
C15_5 C 0.96975(10) 0.54530(13) 0.2758(3)
H11_5 H 0.9584 0.5256 0.292
C19_5 C 0.99631(8) 0.45764(11) 0.2281(2)
C20_5 C 0.99176(8) 0.47124(11) 0.3054(2)
H15_5 H 0.9786 0.4780 0.298
C21_5 C 0.95983(9) 0.47013(12) 0.0206(2)
C22_5 C 0.97564(8) 0.47512(11) 0.1035(2)
H16_5 H 0.9828 0.4928 0.1362
C23_5 C 0.98090(8) 0.45396(11) 0.1383(2)
C24_5 C 0.97038(8) 0.42850(11) 0.0858(2)
H17_5 H 0.9732 0.4134 0.1075
C25_5 C 0.95579(8) 0.42574(11) 0.0015(2)
H18_5 H 0.9541 0.5510 0.0228
C27_5 C 0.95955(9) 0.51685(11) 0.0257(3)
H19_5 H 0.9725 0.5233 0.0779
H24_5 H 0.9588 0.3771 0.0177
C39_5 C 0.87144(8) 0.31426(11) 0.0854(2)
C40_5 C 0.87104(11) 0.29256(14) 0.1400(3)
H27_5 H 0.8648 0.2742 0.1127
C41_5 C 0.87971(11) 0.29765(14) 0.2345(3)
H28_5 H 0.8794 0.2828 0.2718
C42_5 C 0.88880(12) 0.32445(16) 0.2744(2)
H29_6 H 0.8947 0.3279 0.339
C43_5 C 0.88920(13) 0.34616(17) 0.2198(3)
H30_5 H 0.8954 0.3645 0.247
C44_5 C 0.88053(10) 0.34107(14) 0.1253(3)
H31_5 H 0.8808 0.3559 0.088
O7_8 O 0.95723(6) 0.47234(8) 0.51537(18)
C66_8 C 0.94592(10) 0.45326(13) 0.5790(3)
C67_8 C 0.96066(10) 0.44438(13) 0.6399(3)
H48_5 H 0.9495 0.4298 0.6846
C68_8 C 0.99004(9) 0.45486(11) 0.6411(2)
C69_8 C 0.91496(9) 0.44134(16) 0.5906(6)
C70_8 C 0.90335(16) 0.45894(21) 0.5747(8)
H49_8 H 0.9154 0.4783 0.5564
C71_8 C 0.87408(19) 0.44816(25) 0.5858(12)
H50_8 H 0.8661 0.4601 0.575
C72_8 C 0.85640(12) 0.41980(32) 0.6126(14)
H51_8 H 0.8364 0.4124 0.6201
C73_8 C 0.86801(12) 0.40211(32) 0.6284(13)
H52_8 H 0.8559 0.3827 0.6467
C74_8 C 0.89728(13) 0.41294(22) 0.6174(9)
H53_8 H 0.9052 0.4009 0.6282
C76_5 C 0.98587(10) 0.41103(13) 0.7208(3)
H54_5 H 0.9662 0.4005 0.7033
C77_5 C 0.99808(10) 0.39725(13) 0.7694(3)
H55_5 H 0.9868 0.3776 0.7851
N5_8 N 0.99500(7) 0.52469(9) 0.6107(2)
C81_8 C 0.97660(10) 0.53464(12) 0.6007(3)
H59_8 H 0.9668 0.5317 0.5419
C82_5 C 0.97153(10) 0.54868(13) 0.6722(3)
H60_8 H 0.9585 0.5555 0.6627
C83_5 C 0.98546(9) 0.55297(11) 0.7587(3)
H61_5 H 0.9824 0.5631 0.8083
Co1_11 Co 0.50000 0.50000 0.50000
O1_9 O 0.47234(8) 0.51511(5) 0.48463(18)
C1_9 C 0.45326(13) 0.50734(9) 0.4210(3)
C2_9 C 0.44438(13) 0.48372(9) 0.3601(3)
H1_6 H 0.4298 0.4803 0.3154
C3_9 C 0.45486(11) 0.46482(7) 0.3589(2)
O2_9 O 0.47698(8) 0.46886(5) 0.40328(16)
C4_9 C 0.44134(16) 0.52638(13) 0.4094(6)
C5_9 C 0.45894(21) 0.55559(13) 0.4253(8)
H2_9 H 0.4783 0.5629 0.4436
C6_9 C 0.44816(25) 0.57408(16) 0.4142(12)
H3_9 H 0.4601 0.594 0.425
C7_9 C 0.41980(32) 0.5634(3) 0.3874(14)
H4_9 H 0.4124 0.576 0.3799
C8_9 C 0.40211(32) 0.5341(3) 0.3716(13)
H5_9 H 0.3827 0.5268 0.3533
C9_9 C 0.41294(22) 0.51566(18) 0.3826(9)
H6_9 H 0.4009 0.4957 0.3718
C10_6 C 0.43970(11) 0.43788(7) 0.3023(2)
C11_6 C 0.41103(13) 0.42516(8) 0.2792(3)
H7_6 H 0.4005 0.4343 0.2967
C12_6 C 0.39725(13) 0.39917(9) 0.2306(3)
H8_6 H 0.3776 0.3908 0.2149
C13_6 C 0.41189(14) 0.38598(9) 0.2057(3)
H9_6 H 0.4023 0.3679 0.1748
C14_6 C 0.44109(15) 0.39870(10) 0.2252(3)
H10_6 H 0.4516 0.3899 0.2041
C15_6 C 0.45470(13) 0.42445(9) 0.2758(3)
H11_6 H 0.4744 0.4328 0.292
N1_9 N 0.52469(9) 0.52969(6) 0.3893(2)
C16_9 C 0.53464(12) 0.55804(7) 0.3993(3)
H12_9 H 0.5317 0.5649 0.4581
C17_6 C 0.54868(13) 0.57715(8) 0.3278(3)
H13_9 H 0.5555 0.597 0.3373
C18_6 C 0.55297(11) 0.56751(7) 0.2413(3)
H14_6 H 0.5631 0.5807 0.1917
C19_6 C 0.54236(11) 0.53867(7) 0.2281(2)
C20_6 C 0.52876(11) 0.52052(7) 0.3054(2)
H15_6 H 0.5220 0.5006 0.298
C21_6 C 0.52987(12) 0.48970(8) 0.0206(2)
C22_6 C 0.52488(11) 0.50052(7) 0.1035(2)
H16_6 H 0.5072 0.49 0.1362
C23_6 C 0.54604(11) 0.52694(7) 0.1383(2)
C24_6 C 0.57150(11) 0.54188(7) 0.0858(2)
H17_6 H 0.5866 0.5598 0.1075
C25_6 C 0.57426(11) 0.53005(7) 0.0015(2)
H18_6 H 0.4490 0.4031 0.0228
C27_6 C 0.48315(11) 0.44270(7) 0.0257(3)
H19_6 H 0.4767 0.4492 0.0779
H24_6 H 0.6229 0.5817 0.0177
C39_6 C 0.68574(11) 0.55718(8) 0.0854(2)
C40_6 C 0.70744(14) 0.57848(9) 0.1400(3)
H27_6 H 0.7258 0.5906 0.1127
C41_6 C 0.70235(14) 0.58206(9) 0.2345(3)
H28_6 H 0.7172 0.5966 0.2718
C42_6 C 0.67555(16) 0.56435(10) 0.2744(2)
H29_7 H 0.6721 0.5668 0.339
C43_6 C 0.65384(17) 0.54304(11) 0.2198(3)
H30_6 H 0.6355 0.5309 0.247
C44_6 C 0.65893(14) 0.53946(10) 0.1253(3)
H31_6 H 0.6441 0.5249 0.088
O7_9 O 0.52766(8) 0.48489(5) 0.51537(18)
C66_9 C 0.54674(13) 0.49266(9) 0.5790(3)
C67_9 C 0.55562(13) 0.51628(9) 0.6399(3)
H48_6 H 0.5702 0.5197 0.6846
C68_9 C 0.54514(11) 0.53518(7) 0.6411(2)
O8_9 O 0.52302(8) 0.53114(5) 0.59672(16)
C69_9 C 0.55866(16) 0.47362(13) 0.5906(6)
C70_9 C 0.54106(21) 0.44441(13) 0.5747(8)
H49_9 H 0.5217 0.4371 0.5564
C71_9 C 0.55184(25) 0.42592(16) 0.5858(12)
H50_9 H 0.5399 0.406 0.575
C72_9 C 0.58020(32) 0.4366(3) 0.6126(14)
H51_9 H 0.5876 0.424 0.6201
C73_9 C 0.59789(32) 0.4659(3) 0.6284(13)
H52_9 H 0.6173 0.4732 0.6467
C74_9 C 0.58706(22) 0.48434(18) 0.6174(9)
H53_9 H 0.5991 0.5043 0.6282
C75_6 C 0.56030(11) 0.56212(7) 0.6977(2)
C76_6 C 0.58897(13) 0.57484(8) 0.7208(3)
H54_6 H 0.5995 0.5657 0.7033
C77_6 C 0.60275(13) 0.60083(9) 0.7694(3)
H55_6 H 0.6224 0.6092 0.7851
C78_6 C 0.58811(14) 0.61402(9) 0.7943(3)
H56_6 H 0.5977 0.6321 0.8252
C79_6 C 0.55891(15) 0.60130(10) 0.7748(3)
H57_6 H 0.5484 0.6101 0.7959
C80_6 C 0.54530(13) 0.57555(9) 0.7242(3)
H58_6 H 0.5256 0.5672 0.708
N5_9 N 0.47531(9) 0.47031(6) 0.6107(2)
C81_9 C 0.46536(12) 0.44196(7) 0.6007(3)
H59_9 H 0.4683 0.4351 0.5419
C82_6 C 0.45132(13) 0.42285(8) 0.6722(3)
H60_9 H 0.4445 0.403 0.6627
C83_6 C 0.44703(11) 0.43249(7) 0.7587(3)
H61_6 H 0.4369 0.4193 0.8083
C84_6 C 0.45764(11) 0.46133(7) 0.7719(2)
C85_6 C 0.47124(11) 0.47948(7) 0.6946(2)
H62_6 H 0.4780 0.4994 0.702
C86_6 C 0.47013(12) 0.51030(8) 0.9794(2)
C87_6 C 0.47512(11) 0.49948(7) 0.8965(2)
H63_6 H 0.4928 0.51 0.8638
C88_6 C 0.45396(11) 0.47306(7) 0.8617(2)
C89_6 C 0.42850(11) 0.45812(7) 0.9142(2)
H64_6 H 0.4134 0.4402 0.8925
C90_6 C 0.42574(11) 0.46995(7) 0.9985(2)
H65_6 H 0.5510 0.5969 0.9772
C92_6 C 0.51685(11) 0.55730(7) 0.9743(3)
H66_6 H 0.5233 0.5508 0.9221
H71_6 H 0.3771 0.4183 0.9823
C104_6 C 0.31426(11) 0.44282(8) 0.9146(2)
C105_6 C 0.29256(14) 0.42152(9) 0.8600(3)
H74_6 H 0.2742 0.4094 0.8873
C106_6 C 0.29765(14) 0.41794(9) 0.7655(3)
H75_6 H 0.2828 0.4034 0.7282
C107_6 C 0.32445(16) 0.43565(10) 0.7256(2)
H76_7 H 0.3279 0.4332 0.661
C108_6 C 0.34616(17) 0.45696(11) 0.7802(3)
H77_6 H 0.3645 0.4691 0.753
C109_6 C 0.34107(14) 0.46054(10) 0.8747(3)
H78_6 H 0.3559 0.4751 0.912
H48_7 H 0.1470 0.3838 0.0179
C75_7 C 0.10455(7) 0.33151(8) 0.0310(2)
C76_7 C 0.09183(8) 0.34746(10) 0.0541(3)
H54_7 H 0.1010 0.3671 0.0366
C77_7 C 0.06584(9) 0.33525(10) 0.1027(3)
H55_7 H 0.0575 0.3465 0.1184
C78_7 C 0.05265(9) 0.30742(11) 0.1276(3)
H56_7 H 0.0346 0.2989 0.1585
C79_7 C 0.06537(10) 0.29094(11) 0.1081(3)
H57_7 H 0.0566 0.2716 0.1292
C80_7 C 0.09112(9) 0.30308(10) 0.0575(3)
H58_7 H 0.0995 0.2917 0.041333
C82_7 C 0.24382(8) 0.36180(10) 0.0055(3)
C83_7 C 0.23418(7) 0.34787(9) 0.0920(3)
H61_7 H 0.2474 0.3509 0.1416
C84_7 C 0.20534(7) 0.32964(8) 0.1052(2)
C85_7 C 0.18719(7) 0.32509(8) 0.0279(2)
H62_7 H 0.1673 0.3119 0.035333
N6_7 N 0.17125(6) 0.28395(7) 0.3643(2)
C86_7 C 0.15637(8) 0.29316(9) 0.3127(2)
C87_7 C 0.16719(7) 0.30897(8) 0.2298(2)
H63_7 H 0.156667 0.3161 0.1971
C88_7 C 0.19361(7) 0.31423(8) 0.1950(2)
C89_7 C 0.20855(7) 0.30371(8) 0.2475(2)
H64_7 H 0.2265 0.3065 0.2258
C90_7 C 0.19672(7) 0.28912(8) 0.3318(2)
N7_4 N 0.07152(11) 0.26408(8) 0.4157(2)
C91_7 C 0.08195(13) 0.28202(10) 0.3414(3)
H65_7 H 0.0698 0.2874 0.3105
C92_7 C 0.10937(7) 0.29288(9) 0.3076(3)
H66_7 H 0.1159 0.3058 0.2554
C93_7 C 0.12749(8) 0.28472(9) 0.3508(3)
C94_7 C 0.11721(10) 0.26736(12) 0.4304(3)
H67_7 H 0.1292 0.2621 0.464333
C95_7 C 0.08957(10) 0.25784(13) 0.4597(3)
H68_7 H 0.0830 0.2460 0.5148
N8_7 N 0.23301(7) 0.24719(7) 0.4889(2)
C96_7 C 0.20773(8) 0.24425(9) 0.5109(2)
H69_7 H 0.1974 0.2320 0.5625
C97_7 C 0.19575(8) 0.25772(9) 0.4637(2)
H70_7 H 0.1776 0.2548 0.4826
C98_7 C 0.21032(7) 0.27577(8) 0.3874(2)
C99_7 C 0.23725(8) 0.27969(8) 0.3657(3)
H71_7 H 0.2484 0.2921 0.3156
C100_7 C 0.24758(8) 0.26515(8) 0.4180(2)
H72_7 H 0.2661 0.2680 0.4029
Co3_4 Co 0.247192(12) 0.218832(11) 0.54180(3)
O9_7 O 0.24406(6) 0.20642(6) 0.40194(19)
C101_7 C 0.22106(12) 0.19388(14) 0.3568(4)
C102_7 C 0.19407(16) 0.17849(16) 0.3963(5)
H73_7 H 0.1782 0.1708 0.3540
C103_7 C 0.18810(14) 0.17321(13) 0.4948(5)
O10_7 O 0.20602(8) 0.18507(7) 0.5586(2)
C104_7 C 0.22385(8) 0.20477(8) 0.2479(2)
C105_7 C 0.24515(9) 0.20437(11) 0.1933(3)
H74_7 H 0.2573 0.1981 0.2206
C106_7 C 0.24873(9) 0.21304(11) 0.0988(3)
H75_7 H 0.2633 0.2127 0.0615
C107_7 C 0.23102(10) 0.22213(12) 0.0589(2)
C108_7 C 0.20971(11) 0.22253(13) 0.1135(3)
H77_7 H 0.1976 0.2287 0.086333
C109_7 C 0.20613(10) 0.21386(10) 0.2080(3)
H78_7 H 0.1916 0.2141 0.245333
C110_7 C 0.15968(13) 0.15155(18) 0.5246(4)
C111_7 C 0.14081(13) 0.13154(17) 0.4597(4)
H79_7 H 0.1465 0.1321 0.3954
C112_7 C 0.11363(15) 0.1106(2) 0.4889(5)
H80_7 H 0.1008 0.0969 0.4446
C113_7 C 0.10533(16) 0.1096(3) 0.5830(5)
H81_7 H 0.0868 0.095333 0.6030
C114_7 C 0.12420(14) 0.12968(12) 0.6479(6)
H82_4 H 0.1186 0.1290 0.7122
C115_7 C 0.15137(13) 0.15062(11) 0.6187(5)
H83_7 H 0.1643 0.164333 0.6630
O11_7 O 0.28860(6) 0.25280(5) 0.53933(16)
C116_7 C 0.29775(9) 0.27544(8) 0.5885(2)
C117_7 C 0.28237(10) 0.27837(9) 0.6665(3)
H84_4 H 0.2902 0.2968 0.6942
C118_4 C 0.25717(10) 0.25673(10) 0.7054(3)
O12_4 O 0.24463(7) 0.23096(6) 0.67731(18)
C119_7 C 0.32635(9) 0.29985(9) 0.5609(3)
C120_5 C 0.34044(10) 0.29710(10) 0.4827(3)
H85_7 H 0.331667 0.2795 0.4484
C121_5 C 0.36649(11) 0.31886(11) 0.4534(4)
H86_5 H 0.3754 0.3165 0.3984
C122_5 C 0.37993(12) 0.34423(13) 0.5035(4)
H87_5 H 0.3980 0.3595 0.4836
C123_5 C 0.36698(14) 0.34680(14) 0.5807(5)
H88_5 H 0.3765 0.3642 0.6158
C124_5 C 0.34069(12) 0.32562(11) 0.6122(4)
H89_4 H 0.3324 0.328333 0.6679
C125_4 C 0.24348(7) 0.26309(8) 0.7864(2)
C126_4 C 0.25384(8) 0.29031(8) 0.8247(2)
H90_4 H 0.2710 0.3060 0.8004
C127_4 C 0.23917(9) 0.29453(9) 0.8984(3)
H91_4 H 0.2463 0.3131 0.9246
C128_4 C 0.21414(10) 0.27152(12) 0.9339(3)
H92_4 H 0.2041 0.2744 0.984333
C129_4 C 0.20378(10) 0.24430(10) 0.8957(3)
H93_4 H 0.186667 0.2286 0.9200
C130_4 C 0.21845(8) 0.24009(8) 0.8219(2)
H94_4 H 0.2114 0.2215 0.7958
N9_4 N 0.26408(8) 0.19257(14) 0.5843(2)
Co4_4 Co 0.028359(16) 0.247192(12) 0.45820(3)
H1_7 H 0.3838 0.2369 0.9821
C10_7 C 0.33151(8) 0.22697(11) 0.9690(2)
C11_7 C 0.34746(10) 0.25564(13) 0.9459(3)
H7_7 H 0.3671 0.2662 0.9634
C12_7 C 0.33525(10) 0.26942(13) 0.8973(3)
H8_7 H 0.3465 0.2891 0.8816
C13_7 C 0.30742(11) 0.25478(14) 0.8724(3)
H9_7 H 0.2989 0.2644 0.8415
C14_7 C 0.29094(11) 0.22558(15) 0.8919(3)
H10_7 H 0.2716 0.2151 0.8708
C15_7 C 0.30308(10) 0.21197(13) 0.9425(3)
H11_7 H 0.2917 0.1923 0.958667
C17_7 C 0.36180(10) 0.11799(13) 0.9945(3)
C18_7 C 0.34787(9) 0.11370(11) 0.9080(3)
H14_7 H 0.3509 0.1036 0.8584
C19_7 C 0.32964(8) 0.12431(11) 0.8948(2)
C20_7 C 0.32509(8) 0.13791(11) 0.9721(2)
H15_7 H 0.3119 0.1447 0.964667
N2_7 N 0.28395(7) 0.11271(9) 0.6357(2)
C21_7 C 0.29316(9) 0.13680(12) 0.6873(2)
C22_7 C 0.30897(8) 0.14179(11) 0.7702(2)
H16_7 H 0.3161 0.1595 0.8029
C23_7 C 0.31423(8) 0.12063(11) 0.8050(2)
C24_7 C 0.30371(8) 0.09517(11) 0.7525(2)
H17_7 H 0.3065 0.0801 0.7742
C25_7 C 0.28912(8) 0.09241(11) 0.6682(2)
C26_7 C 0.28202(10) 0.20008(16) 0.6586(3)
H18_7 H 0.2874 0.2177 0.6895
C27_7 C 0.29288(9) 0.18352(11) 0.6924(3)
H19_7 H 0.3058 0.1900 0.7446
C28_7 C 0.28472(9) 0.15724(12) 0.6492(3)
C29_7 C 0.26736(12) 0.15016(16) 0.5696(3)
H20_7 H 0.2621 0.1330 0.535667
C30_7 C 0.25784(13) 0.16828(16) 0.5403(3)
H21_7 H 0.2460 0.1631 0.4852
N4_7 N 0.24719(7) 0.01419(10) 0.5111(2)
C31_7 C 0.24425(9) 0.03653(12) 0.4891(2)
H22_7 H 0.2320 0.0347 0.4375
C32_7 C 0.25772(9) 0.06198(12) 0.5363(2)
H23_7 H 0.2548 0.0773 0.5174
C33_7 C 0.27577(8) 0.06546(11) 0.6126(2)
C34_7 C 0.27969(8) 0.04245(11) 0.6343(3)
H24_7 H 0.2921 0.0438 0.6844
C35_7 C 0.26515(8) 0.01758(11) 0.5820(2)
H25_7 H 0.2680 0.0020 0.5971
C43_7 C 0.22253(13) 0.01283(17) 0.8865(3)
H30_7 H 0.2287 0.0312 0.913667
C44_7 C 0.21386(10) 0.00774(14) 0.7920(3)
H31_7 H 0.2141 0.0226 0.754667
C48_7 C 0.1096(3) 0.00431(34) 0.4170(5)
H34_7 H 0.095333 0.0086 0.3970
C49_7 C 0.12968(12) 0.00549(18) 0.3521(6)
H35_4 H 0.1290 0.0105 0.2878
H36_7 H 0.164333 0.0001 0.3370
H37_4 H 0.2968 0.0067 0.3058
C60_4 C 0.26309(8) 0.01962(11) 0.2136(2)
C61_4 C 0.29031(8) 0.03648(11) 0.1753(2)
H43_4 H 0.3060 0.0351 0.1996
C62_4 C 0.29453(9) 0.05537(13) 0.1016(3)
H44_4 H 0.3131 0.0669 0.0754
C63_4 C 0.27152(12) 0.05739(16) 0.0661(3)
H45_4 H 0.2744 0.0704 0.015667
C64_4 C 0.24430(10) 0.04053(14) 0.1043(3)
H46_4 H 0.2286 0.0420 0.0800
C65_4 C 0.24009(8) 0.02165(11) 0.1781(2)
H47_4 H 0.2215 0.0102 0.2042
O3_7 O 0.03763(8) 0.24406(6) 0.59806(19)
C36_7 C 0.02717(18) 0.22106(12) 0.6432(4)
C37_7 C 0.01557(23) 0.19407(16) 0.6037(5)
H26_7 H 0.0073 0.1782 0.6460
C38_7 C 0.01488(19) 0.18810(14) 0.5052(5)
O4_7 O 0.02094(11) 0.20602(8) 0.4414(2)
C39_7 C 0.01907(11) 0.22385(8) 0.7521(2)
C40_7 C 0.04077(14) 0.24515(9) 0.8067(3)
H27_7 H 0.0591 0.2573 0.7794
C41_7 C 0.03568(14) 0.24873(9) 0.9012(3)
H28_7 H 0.0505 0.2633 0.9385
C42_7 C 0.00888(16) 0.23102(10) 0.9411(2)
C45_7 C 0.00812(22) 0.15968(13) 0.4754(4)
C46_7 C 0.00926(21) 0.14081(13) 0.5403(4)
H32_7 H 0.0143 0.1465 0.6046
C47_7 C 0.00299(25) 0.11363(15) 0.5111(5)
H33_7 H 0.0038 0.1008 0.5554
C50_7 C 0.00074(17) 0.15137(13) 0.3813(5)
O5_7 O 0.03579(8) 0.28860(6) 0.46067(16)
C51_7 C 0.02230(12) 0.29775(9) 0.4115(2)
C52_7 C 0.00399(13) 0.28237(10) 0.3335(3)
C53_4 C 0.00043(14) 0.25717(10) 0.2946(3)
O6_4 O 0.01366(9) 0.24463(7) 0.32269(18)
C54_7 C 0.02649(13) 0.32635(9) 0.4391(3)
C55_5 C 0.04333(14) 0.34044(10) 0.5173(3)
H38_7 H 0.0521 0.331667 0.5516
C56_5 C 0.04762(16) 0.36649(11) 0.5466(4)
H39_5 H 0.0588 0.3754 0.6016
C57_5 C 0.03569(18) 0.37993(12) 0.4965(4)
H40_5 H 0.0384 0.3980 0.5164
C58_5 C 0.02017(20) 0.36698(14) 0.4193(5)
H41_5 H 0.0122 0.3765 0.3842
C59_5 C 0.01506(16) 0.34069(12) 0.3878(4)
H42_4 H 0.0040 0.3324 0.3321
H35_5 H 0.2148 0.5376 0.9544
H37_5 H 0.0432 0.3698 0.9724
C53_5 C 0.07617(10) 0.40993(10) 0.9612(3)
O6_5 O 0.08871(7) 0.43570(6) 0.98935(18)
H42_5 H 0.0010 0.338333 0.9987
C60_5 C 0.08986(7) 0.40357(8) 0.8802(2)
C61_5 C 0.07950(8) 0.37635(8) 0.8419(2)
H43_5 H 0.0624 0.3606 0.8662
C62_5 C 0.09417(9) 0.37213(9) 0.7682(3)
H44_5 H 0.0871 0.3535 0.7420
C63_5 C 0.11920(10) 0.39514(12) 0.7327(3)
H45_5 H 0.1293 0.3922 0.682333
C64_5 C 0.12956(10) 0.42236(10) 0.7709(3)
H46_5 H 0.146667 0.4380 0.7466
C65_5 C 0.11489(8) 0.42657(8) 0.8447(2)
H47_5 H 0.1220 0.4451 0.8708
C55_6 C 0.99290(10) 0.36956(10) 0.1839(3)
C56_6 C 0.96685(11) 0.34780(11) 0.2132(4)
H39_6 H 0.9580 0.3501 0.2682
C57_6 C 0.95341(12) 0.32243(13) 0.1631(4)
H40_6 H 0.9354 0.3071 0.1830
C58_6 C 0.96636(14) 0.31986(14) 0.0859(5)
H41_6 H 0.9569 0.3024 0.0508
C59_6 C 0.99265(12) 0.34104(11) 0.0544(4)
Co3_5 Co 0.781168(11) 0.028359(16) 0.54180(3)
O9_8 O 0.79358(6) 0.03763(8) 0.40194(19)
C101_8 C 0.80612(14) 0.02717(18) 0.3568(4)
C102_8 C 0.82151(16) 0.01557(23) 0.3963(5)
H73_8 H 0.8292 0.0073 0.3540
C103_8 C 0.82679(13) 0.01488(19) 0.4948(5)
O10_8 O 0.81493(7) 0.02094(11) 0.5586(2)
C104_8 C 0.79523(8) 0.01907(11) 0.2479(2)
C105_8 C 0.79563(11) 0.04077(14) 0.1933(3)
H74_8 H 0.8019 0.0591 0.2206
C106_8 C 0.78696(11) 0.03568(14) 0.0988(3)
H75_8 H 0.7873 0.0505 0.0615
C107_8 C 0.77787(12) 0.00888(16) 0.0589(2)
C110_8 C 0.84845(18) 0.00812(22) 0.5246(4)
C111_8 C 0.86846(17) 0.00926(21) 0.4597(4)
H79_8 H 0.8679 0.0143 0.3954
C112_8 C 0.8894(2) 0.00299(25) 0.4889(5)
H80_8 H 0.9031 0.0038 0.4446
C115_8 C 0.84938(11) 0.00074(17) 0.6187(5)
O11_8 O 0.74720(5) 0.03579(8) 0.53933(16)
C116_8 C 0.72456(8) 0.02230(12) 0.5885(2)
C117_8 C 0.72163(9) 0.00399(13) 0.6665(3)
C118_5 C 0.74327(10) 0.00043(14) 0.7054(3)
O12_5 O 0.76904(6) 0.01366(9) 0.67731(18)
C119_8 C 0.70015(9) 0.02649(13) 0.5609(3)
C120_6 C 0.70290(10) 0.04333(14) 0.4827(3)
H85_8 H 0.7205 0.0521 0.4484
C121_6 C 0.68114(11) 0.04762(16) 0.4534(4)
H86_6 H 0.6835 0.0588 0.3984
C122_6 C 0.65577(13) 0.03569(18) 0.5035(4)
H87_6 H 0.6405 0.0384 0.4836
C123_6 C 0.65320(14) 0.02017(20) 0.5807(5)
H88_6 H 0.6358 0.0122 0.6158
C124_6 C 0.67438(11) 0.01506(16) 0.6122(4)
H89_5 H 0.671667 0.0040 0.6679
N9_5 N 0.80743(14) 0.07152(16) 0.5843(2)
H1_8 H 0.7631 0.1470 0.9821
C10_8 C 0.77303(11) 0.10455(7) 0.9690(2)
C11_8 C 0.74436(13) 0.09183(8) 0.9459(3)
H7_8 H 0.7338 0.1010 0.9634
C12_8 C 0.73058(13) 0.06584(9) 0.8973(3)
H8_8 H 0.7109 0.0575 0.8816
C13_8 C 0.74522(14) 0.05265(9) 0.8724(3)
H9_8 H 0.7356 0.0346 0.8415
C14_8 C 0.77442(15) 0.06537(10) 0.8919(3)
H10_8 H 0.7849 0.0566 0.8708
C15_8 C 0.78803(13) 0.09112(9) 0.9425(3)
H11_8 H 0.8077 0.0995 0.958667
C17_8 C 0.88201(13) 0.24382(8) 0.9945(3)
C18_8 C 0.88630(11) 0.23418(7) 0.9080(3)
H14_8 H 0.8964 0.2474 0.8584
C19_8 C 0.87569(11) 0.20534(7) 0.8948(2)
C20_8 C 0.86209(11) 0.18719(7) 0.9721(2)
H15_8 H 0.8553 0.1673 0.964667
N2_8 N 0.88729(9) 0.17125(6) 0.6357(2)
C21_8 C 0.86320(12) 0.15637(8) 0.6873(2)
C22_8 C 0.85821(11) 0.16719(7) 0.7702(2)
H16_8 H 0.8405 0.156667 0.8029
C23_8 C 0.87937(11) 0.19361(7) 0.8050(2)
C24_8 C 0.90483(11) 0.20855(7) 0.7525(2)
H17_8 H 0.9199 0.2265 0.7742
C25_8 C 0.90759(11) 0.19672(7) 0.6682(2)
C26_8 C 0.79992(16) 0.08195(13) 0.6586(3)
H18_8 H 0.7823 0.0698 0.6895
C27_8 C 0.81648(11) 0.10937(7) 0.6924(3)
H19_8 H 0.8100 0.1159 0.7446
C28_8 C 0.84276(12) 0.12749(8) 0.6492(3)
C29_8 C 0.84984(16) 0.11721(10) 0.5696(3)
H20_8 H 0.8670 0.1292 0.535667
C30_8 C 0.83172(16) 0.08957(10) 0.5403(3)
H21_8 H 0.8369 0.0830 0.4852
N4_8 N 0.98581(10) 0.23301(7) 0.5111(2)
C31_8 C 0.96347(12) 0.20773(8) 0.4891(2)
H22_8 H 0.9653 0.1974 0.4375
C32_8 C 0.93802(12) 0.19575(8) 0.5363(2)
H23_8 H 0.9227 0.1776 0.5174
C33_8 C 0.93454(11) 0.21032(7) 0.6126(2)
C34_8 C 0.95755(11) 0.23725(8) 0.6343(3)
H24_8 H 0.9562 0.2484 0.6844
C35_8 C 0.98242(11) 0.24758(8) 0.5820(2)
H25_8 H 0.9980 0.2661 0.5971
C43_8 C 0.98717(17) 0.20971(11) 0.8865(3)
H30_8 H 0.9688 0.1976 0.913667
C44_8 C 0.99226(14) 0.20613(10) 0.7920(3)
H31_8 H 0.9774 0.1916 0.754667
C48_8 C 0.99569(34) 0.10533(16) 0.4170(5)
H34_8 H 0.9914 0.0868 0.3970
C49_8 C 0.99451(18) 0.12420(14) 0.3521(6)
H35_6 H 0.9895 0.1186 0.2878
H36_8 H 0.9999 0.1643 0.3370
H37_6 H 0.9933 0.2902 0.3058
C60_6 C 0.98038(11) 0.24348(7) 0.2136(2)
C61_6 C 0.96352(11) 0.25384(8) 0.1753(2)
H43_6 H 0.9649 0.2710 0.1996
C62_6 C 0.94463(13) 0.23917(9) 0.1016(3)
H44_6 H 0.9331 0.2463 0.0754
C63_6 C 0.94261(16) 0.21414(10) 0.0661(3)
H45_6 H 0.9296 0.2041 0.015667
C64_6 C 0.95947(14) 0.20378(10) 0.1043(3)
H46_6 H 0.9580 0.186667 0.0800
C65_6 C 0.97835(11) 0.21845(8) 0.1781(2)
H47_6 H 0.9898 0.2114 0.2042
H76_8 H 0.7720 0.0054 0.994333
H48_8 H 0.6162 0.7631 0.0179
C75_8 C 0.66849(8) 0.77303(11) 0.0310(2)
C76_8 C 0.65254(10) 0.74436(13) 0.0541(3)
H54_8 H 0.6329 0.7338 0.0366
C77_8 C 0.66475(10) 0.73058(13) 0.1027(3)
H55_8 H 0.6535 0.7109 0.1184
C78_8 C 0.69258(11) 0.74522(14) 0.1276(3)
H56_8 H 0.7011 0.7356 0.1585
C79_8 C 0.70906(11) 0.77442(15) 0.1081(3)
H57_8 H 0.7284 0.7849 0.1292
C80_8 C 0.69692(10) 0.78803(13) 0.0575(3)
H58_8 H 0.7083 0.8077 0.041333
C82_8 C 0.63820(10) 0.88201(13) 0.0055(3)
C83_8 C 0.65213(9) 0.88630(11) 0.0920(3)
H61_8 H 0.6491 0.8964 0.1416
C84_8 C 0.67036(8) 0.87569(11) 0.1052(2)
C85_8 C 0.67491(8) 0.86209(11) 0.0279(2)
H62_8 H 0.6881 0.8553 0.035333
N6_8 N 0.71605(7) 0.88729(9) 0.3643(2)
C86_8 C 0.70684(9) 0.86320(12) 0.3127(2)
C87_8 C 0.69103(8) 0.85821(11) 0.2298(2)
H63_8 H 0.6839 0.8405 0.1971
C88_8 C 0.68577(8) 0.87937(11) 0.1950(2)
C89_8 C 0.69629(8) 0.90483(11) 0.2475(2)
H64_8 H 0.6935 0.9199 0.2258
C90_8 C 0.71088(8) 0.90759(11) 0.3318(2)
N7_5 N 0.73592(8) 0.80743(14) 0.4157(2)
C91_8 C 0.71798(10) 0.79992(16) 0.3414(3)
H65_8 H 0.7126 0.7823 0.3105
C92_8 C 0.70712(9) 0.81648(11) 0.3076(3)
H66_8 H 0.6942 0.8100 0.2554
C93_8 C 0.71528(9) 0.84276(12) 0.3508(3)
C94_8 C 0.73264(12) 0.84984(16) 0.4304(3)
H67_8 H 0.7379 0.8670 0.464333
C95_8 C 0.74216(13) 0.83172(16) 0.4597(3)
H68_8 H 0.7540 0.8369 0.5148
N8_8 N 0.75281(7) 0.98581(10) 0.4889(2)
C96_8 C 0.75575(9) 0.96347(12) 0.5109(2)
H69_8 H 0.7680 0.9653 0.5625
C97_8 C 0.74228(9) 0.93802(12) 0.4637(2)
H70_8 H 0.7452 0.9227 0.4826
C98_8 C 0.72423(8) 0.93454(11) 0.3874(2)
C99_8 C 0.72031(8) 0.95755(11) 0.3657(3)
H71_8 H 0.7079 0.9562 0.3156
C100_8 C 0.73485(8) 0.98242(11) 0.4180(2)
H72_8 H 0.7320 0.9980 0.4029
C108_8 C 0.77747(13) 0.98717(17) 0.1135(3)
H77_8 H 0.7713 0.9688 0.086333
C109_8 C 0.78614(10) 0.99226(14) 0.2080(3)
H78_8 H 0.7859 0.9774 0.245333
C113_8 C 0.8904(3) 0.99569(34) 0.5830(5)
H81_8 H 0.904667 0.9914 0.6030
C114_8 C 0.87032(12) 0.99451(18) 0.6479(6)
H82_5 H 0.8710 0.9895 0.7122
H83_8 H 0.835667 0.9999 0.6630
H84_5 H 0.7032 0.9933 0.6942
C125_5 C 0.73691(8) 0.98038(11) 0.7864(2)
C126_5 C 0.70969(8) 0.96352(11) 0.8247(2)
H90_5 H 0.6940 0.9649 0.8004
C127_5 C 0.70547(9) 0.94463(13) 0.8984(3)
H91_5 H 0.6869 0.9331 0.9246
C128_5 C 0.72848(12) 0.94261(16) 0.9339(3)
H92_5 H 0.7256 0.9296 0.984333
C129_5 C 0.75570(10) 0.95947(14) 0.8957(3)
H93_5 H 0.7714 0.9580 0.9200
C130_5 C 0.75991(8) 0.97835(11) 0.8219(2)
H94_5 H 0.7785 0.9898 0.7958
Co4_5 Co 0.752808(12) 0.781168(20) 0.45820(3)
Co3_6 Co 0.971641(16) 0.752808(12) 0.54180(3)
O9_9 O 0.96237(8) 0.75594(6) 0.40194(19)
C101_9 C 0.97283(18) 0.77894(12) 0.3568(4)
C102_9 C 0.98443(23) 0.80593(16) 0.3963(5)
H73_9 H 0.9927 0.8218 0.3540
C103_9 C 0.98512(19) 0.81190(14) 0.4948(5)
O10_9 O 0.97906(11) 0.79398(8) 0.5586(2)
C104_9 C 0.98093(11) 0.77615(8) 0.2479(2)
C105_9 C 0.95923(14) 0.75485(9) 0.1933(3)
H74_9 H 0.9409 0.7427 0.2206
C106_9 C 0.96432(14) 0.75127(9) 0.0988(3)
H75_9 H 0.9495 0.7367 0.0615
C107_9 C 0.99112(16) 0.76898(10) 0.0589(2)
C110_9 C 0.99188(22) 0.84032(13) 0.5246(4)
C111_9 C 0.99074(21) 0.85919(13) 0.4597(4)
H79_9 H 0.9857 0.8535 0.3954
C112_9 C 0.99701(25) 0.88637(15) 0.4889(5)
H80_9 H 0.9962 0.8992 0.4446
C115_9 C 0.99926(17) 0.84863(13) 0.6187(5)
O11_9 O 0.96421(8) 0.71140(6) 0.53933(16)
C116_9 C 0.97770(12) 0.70225(9) 0.5885(2)
C117_9 C 0.99601(13) 0.71763(10) 0.6665(3)
C118_6 C 0.99957(14) 0.74283(10) 0.7054(3)
O12_6 O 0.98634(9) 0.75537(7) 0.67731(18)
C119_9 C 0.97351(13) 0.67365(9) 0.5609(3)
C120_7 C 0.95667(14) 0.65956(10) 0.4827(3)
H85_9 H 0.9479 0.668333 0.4484
C121_7 C 0.95238(16) 0.63351(11) 0.4534(4)
H86_7 H 0.9412 0.6246 0.3984
C122_7 C 0.96431(18) 0.62007(12) 0.5035(4)
H87_7 H 0.9616 0.6020 0.4836
C123_7 C 0.97983(20) 0.63302(14) 0.5807(5)
H88_7 H 0.9878 0.6235 0.6158
C124_7 C 0.98494(16) 0.65931(12) 0.6122(4)
H89_6 H 0.9960 0.6676 0.6679
N9_6 N 0.92848(16) 0.73592(8) 0.5843(2)
H1_9 H 0.8530 0.6162 0.9821
C10_9 C 0.89545(7) 0.66849(8) 0.9690(2)
C11_9 C 0.90817(8) 0.65254(10) 0.9459(3)
H7_9 H 0.8990 0.6329 0.9634
C12_9 C 0.93416(9) 0.66475(10) 0.8973(3)
H8_9 H 0.9425 0.6535 0.8816
C13_9 C 0.94735(9) 0.69258(11) 0.8724(3)
H9_9 H 0.9654 0.7011 0.8415
C14_9 C 0.93463(10) 0.70906(11) 0.8919(3)
H10_9 H 0.9434 0.7284 0.8708
C15_9 C 0.90888(9) 0.69692(10) 0.9425(3)
H11_9 H 0.9005 0.7083 0.958667
C17_9 C 0.75618(8) 0.63820(10) 0.9945(3)
C18_9 C 0.76582(7) 0.65213(9) 0.9080(3)
H14_9 H 0.7526 0.6491 0.8584
C19_9 C 0.79466(7) 0.67036(8) 0.8948(2)
C20_9 C 0.81281(7) 0.67491(8) 0.9721(2)
H15_9 H 0.8327 0.6881 0.964667
N2_9 N 0.82875(6) 0.71605(7) 0.6357(2)
C21_9 C 0.84363(8) 0.70684(9) 0.6873(2)
C22_9 C 0.83281(7) 0.69103(8) 0.7702(2)
H16_9 H 0.843333 0.6839 0.8029
C23_9 C 0.80639(7) 0.68577(8) 0.8050(2)
C24_9 C 0.79145(7) 0.69629(8) 0.7525(2)
H17_9 H 0.7735 0.6935 0.7742
C25_9 C 0.80328(7) 0.71088(8) 0.6682(2)
C26_9 C 0.91805(13) 0.71798(10) 0.6586(3)
H18_9 H 0.9302 0.7126 0.6895
C27_9 C 0.89063(7) 0.70712(9) 0.6924(3)
H19_9 H 0.8841 0.6942 0.7446
C28_9 C 0.87251(8) 0.71528(9) 0.6492(3)
C29_9 C 0.88279(10) 0.73264(12) 0.5696(3)
H20_9 H 0.8708 0.7379 0.535667
C30_9 C 0.91043(10) 0.74216(13) 0.5403(3)
H21_9 H 0.9170 0.7540 0.4852
N4_9 N 0.76699(7) 0.75281(7) 0.5111(2)
C31_9 C 0.79227(8) 0.75575(9) 0.4891(2)
H22_9 H 0.8026 0.7680 0.4375
C32_9 C 0.80425(8) 0.74228(9) 0.5363(2)
H23_9 H 0.8224 0.7452 0.5174
C33_9 C 0.78968(7) 0.72423(8) 0.6126(2)
C34_9 C 0.76275(8) 0.72031(8) 0.6343(3)
H24_9 H 0.7516 0.7079 0.6844
C35_9 C 0.75242(8) 0.73485(8) 0.5820(2)
H25_9 H 0.7339 0.7320 0.5971
O3_8 O 0.75594(6) 0.79358(6) 0.59806(19)
C36_8 C 0.77894(12) 0.80612(14) 0.6432(4)
C37_8 C 0.80593(16) 0.82151(16) 0.6037(5)
H26_8 H 0.8218 0.8292 0.6460
C38_8 C 0.81190(14) 0.82679(13) 0.5052(5)
O4_8 O 0.79398(8) 0.81493(7) 0.4414(2)
C39_8 C 0.77615(8) 0.79523(8) 0.7521(2)
C40_8 C 0.75485(9) 0.79563(11) 0.8067(3)
H27_8 H 0.7427 0.8019 0.7794
C41_8 C 0.75127(9) 0.78696(11) 0.9012(3)
H28_8 H 0.7367 0.7873 0.9385
C42_8 C 0.76898(10) 0.77787(12) 0.9411(2)
C43_9 C 0.79029(11) 0.77747(13) 0.8865(3)
H30_9 H 0.8024 0.7713 0.913667
C44_9 C 0.79387(10) 0.78614(10) 0.7920(3)
H31_9 H 0.8084 0.7859 0.754667
C45_8 C 0.84032(13) 0.84845(18) 0.4754(4)
C46_8 C 0.85919(13) 0.86846(17) 0.5403(4)
H32_8 H 0.8535 0.8679 0.6046
C47_8 C 0.88637(15) 0.8894(2) 0.5111(5)
H33_8 H 0.8992 0.9031 0.5554
C48_9 C 0.89467(16) 0.8904(3) 0.4170(5)
H34_9 H 0.9132 0.904667 0.3970
C49_9 C 0.87580(14) 0.87032(12) 0.3521(6)
H35_7 H 0.8814 0.8710 0.2878
C50_8 C 0.84863(13) 0.84938(11) 0.3813(5)
H36_9 H 0.8357 0.835667 0.3370
O5_8 O 0.71140(6) 0.74720(5) 0.46067(16)
C51_8 C 0.70225(9) 0.72456(8) 0.4115(2)
C52_8 C 0.71763(10) 0.72163(9) 0.3335(3)
H37_7 H 0.7098 0.7032 0.3058
C53_6 C 0.74283(10) 0.74327(10) 0.2946(3)
O6_6 O 0.75537(7) 0.76904(6) 0.32269(18)
C54_8 C 0.67365(9) 0.70015(9) 0.4391(3)
C55_7 C 0.65956(10) 0.70290(10) 0.5173(3)
H38_8 H 0.668333 0.7205 0.5516
C56_7 C 0.63351(11) 0.68114(11) 0.5466(4)
H39_7 H 0.6246 0.6835 0.6016
C57_7 C 0.62007(12) 0.65577(13) 0.4965(4)
H40_7 H 0.6020 0.6405 0.5164
C58_7 C 0.63302(14) 0.65320(14) 0.4193(5)
H41_7 H 0.6235 0.6358 0.3842
C59_7 C 0.65931(12) 0.67438(11) 0.3878(4)
H42_6 H 0.6676 0.671667 0.3321
C60_7 C 0.75652(7) 0.73691(8) 0.2136(2)
C61_7 C 0.74616(8) 0.70969(8) 0.1753(2)
H43_7 H 0.7290 0.6940 0.1996
C62_7 C 0.76083(9) 0.70547(9) 0.1016(3)
H44_7 H 0.7537 0.6869 0.0754
C63_7 C 0.78586(10) 0.72848(12) 0.0661(3)
H45_7 H 0.7959 0.7256 0.015667
C64_7 C 0.79622(10) 0.75570(10) 0.1043(3)
H46_7 H 0.813333 0.7714 0.0800
C65_7 C 0.78155(8) 0.75991(8) 0.1781(2)
H47_7 H 0.7886 0.7785 0.2042
H35_8 H 0.4624 0.6771 0.9544
H37_8 H 0.6302 0.6733 0.9724
C53_7 C 0.59007(10) 0.66623(14) 0.9612(3)
O6_7 O 0.56430(6) 0.65300(9) 0.98935(18)
H42_7 H 0.661667 0.6626 0.9987
C60_8 C 0.59643(8) 0.68628(11) 0.8802(2)
C61_8 C 0.62365(8) 0.70314(11) 0.8419(2)
H43_8 H 0.6394 0.7017 0.8662
C62_8 C 0.62787(9) 0.72203(13) 0.7682(3)
H44_8 H 0.6465 0.7335 0.7420
C63_8 C 0.60486(12) 0.72405(16) 0.7327(3)
H45_8 H 0.6078 0.7370 0.682333
C64_8 C 0.57764(10) 0.70719(14) 0.7709(3)
H46_8 H 0.5620 0.7086 0.7466
C65_8 C 0.57343(8) 0.68831(11) 0.8447(2)
H47_8 H 0.5549 0.6768 0.8708
C55_8 C 0.37667(14) 0.00710(10) 0.1839(3)
C56_8 C 0.38096(16) 0.03315(11) 0.2132(4)
H39_8 H 0.3922 0.0420 0.2682
C57_8 C 0.36903(18) 0.04659(12) 0.1631(4)
H40_8 H 0.3718 0.0646 0.1830
C58_8 C 0.35351(20) 0.03364(14) 0.0859(5)
H41_8 H 0.3456 0.0431 0.0508
C59_8 C 0.34840(16) 0.00735(12) 0.0544(4)
H48_9 H 0.2369 0.8530 0.0179
C75_9 C 0.22697(11) 0.89545(7) 0.0310(2)
C76_9 C 0.25564(13) 0.90817(8) 0.0541(3)
H54_9 H 0.2662 0.8990 0.0366
C77_9 C 0.26942(13) 0.93416(9) 0.1027(3)
H55_9 H 0.2891 0.9425 0.1184
C78_9 C 0.25478(14) 0.94735(9) 0.1276(3)
H56_9 H 0.2644 0.9654 0.1585
C79_9 C 0.22558(15) 0.93463(10) 0.1081(3)
H57_9 H 0.2151 0.9434 0.1292
C80_9 C 0.21197(13) 0.90888(9) 0.0575(3)
H58_9 H 0.1923 0.9005 0.041333
C82_9 C 0.11799(13) 0.75618(8) 0.0055(3)
C83_9 C 0.11370(11) 0.76582(7) 0.0920(3)
H61_9 H 0.1036 0.7526 0.1416
C84_9 C 0.12431(11) 0.79466(7) 0.1052(2)
C85_9 C 0.13791(11) 0.81281(7) 0.0279(2)
H62_9 H 0.1447 0.8327 0.035333
N6_9 N 0.11271(9) 0.82875(6) 0.3643(2)
C86_9 C 0.13680(12) 0.84363(8) 0.3127(2)
C87_9 C 0.14179(11) 0.83281(7) 0.2298(2)
H63_9 H 0.1595 0.843333 0.1971
C88_9 C 0.12063(11) 0.80639(7) 0.1950(2)
C89_9 C 0.09517(11) 0.79145(7) 0.2475(2)
H64_9 H 0.0801 0.7735 0.2258
C90_9 C 0.09241(11) 0.80328(7) 0.3318(2)
N7_6 N 0.19257(14) 0.92848(11) 0.4157(2)
C91_9 C 0.20008(16) 0.91805(13) 0.3414(3)
H65_9 H 0.2177 0.9302 0.3105
C92_9 C 0.18352(11) 0.89063(7) 0.3076(3)
H66_9 H 0.1900 0.8841 0.2554
C93_9 C 0.15724(12) 0.87251(8) 0.3508(3)
C94_9 C 0.15016(16) 0.88279(10) 0.4304(3)
H67_9 H 0.1330 0.8708 0.464333
C95_9 C 0.16828(16) 0.91043(10) 0.4597(3)
H68_9 H 0.1631 0.9170 0.5148
N8_9 N 0.01419(10) 0.76699(7) 0.4889(2)
C96_9 C 0.03653(12) 0.79227(8) 0.5109(2)
H69_9 H 0.0347 0.8026 0.5625
C97_9 C 0.06198(12) 0.80425(8) 0.4637(2)
H70_9 H 0.0773 0.8224 0.4826
C98_9 C 0.06546(11) 0.78968(7) 0.3874(2)
C99_9 C 0.04245(11) 0.76275(8) 0.3657(3)
H71_9 H 0.0438 0.7516 0.3156
C100_9 C 0.01758(11) 0.75242(8) 0.4180(2)
H72_9 H 0.0020 0.7339 0.4029
C108_9 C 0.01283(17) 0.79029(11) 0.1135(3)
H77_9 H 0.0312 0.8024 0.086333
C109_9 C 0.00774(14) 0.79387(10) 0.2080(3)
H78_9 H 0.0226 0.8084 0.245333
C113_9 C 0.00431(34) 0.89467(16) 0.5830(5)
H81_9 H 0.0086 0.9132 0.6030
C114_9 C 0.00549(18) 0.87580(14) 0.6479(6)
H82_6 H 0.0105 0.8814 0.7122
H83_9 H 0.0001 0.8357 0.6630
H84_6 H 0.0067 0.7098 0.6942
C125_6 C 0.01962(11) 0.75652(7) 0.7864(2)
C126_6 C 0.03648(11) 0.74616(8) 0.8247(2)
H90_6 H 0.0351 0.7290 0.8004
C127_6 C 0.05537(13) 0.76083(9) 0.8984(3)
H91_6 H 0.0669 0.7537 0.9246
C128_6 C 0.05739(16) 0.78586(10) 0.9339(3)
H92_6 H 0.0704 0.7959 0.984333
C129_6 C 0.04053(14) 0.79622(10) 0.8957(3)
H93_6 H 0.0420 0.813333 0.9200
C130_6 C 0.02165(11) 0.78155(8) 0.8219(2)
H94_6 H 0.0102 0.7886 0.7958
Co4_6 Co 0.218832(20) 0.971641(16) 0.45820(3)
O3_9 O 0.20642(6) 0.96237(8) 0.59806(19)
C36_9 C 0.19388(14) 0.97283(18) 0.6432(4)
C37_9 C 0.17849(16) 0.98443(23) 0.6037(5)
H26_9 H 0.1708 0.9927 0.6460
C38_9 C 0.17321(13) 0.98512(19) 0.5052(5)
O4_9 O 0.18507(7) 0.97906(11) 0.4414(2)
C39_9 C 0.20477(8) 0.98093(11) 0.7521(2)
C40_9 C 0.20437(11) 0.95923(14) 0.8067(3)
H27_9 H 0.1981 0.9409 0.7794
C41_9 C 0.21304(11) 0.96432(14) 0.9012(3)
H28_9 H 0.2127 0.9495 0.9385
C42_9 C 0.22213(12) 0.99112(16) 0.9411(2)
C45_9 C 0.15155(18) 0.99188(22) 0.4754(4)
C46_9 C 0.13154(17) 0.99074(21) 0.5403(4)
H32_9 H 0.1321 0.9857 0.6046
C47_9 C 0.1106(2) 0.99701(25) 0.5111(5)
H33_9 H 0.0969 0.9962 0.5554
C50_9 C 0.15062(11) 0.99926(17) 0.3813(5)
O5_9 O 0.25280(5) 0.96421(8) 0.46067(16)
C51_9 C 0.27544(8) 0.97770(12) 0.4115(2)
C52_9 C 0.27837(9) 0.99601(13) 0.3335(3)
C53_8 C 0.25673(10) 0.99957(14) 0.2946(3)
O6_8 O 0.23096(6) 0.98634(9) 0.32269(18)
C54_9 C 0.29985(9) 0.97351(13) 0.4391(3)
C55_9 C 0.29710(10) 0.95667(14) 0.5173(3)
H38_9 H 0.2795 0.9479 0.5516
C56_9 C 0.31886(11) 0.95238(16) 0.5466(4)
H39_9 H 0.3165 0.9412 0.6016
C57_9 C 0.34423(13) 0.96431(18) 0.4965(4)
H40_9 H 0.3595 0.9616 0.5164
C58_9 C 0.34680(14) 0.97983(20) 0.4193(5)
H41_9 H 0.3642 0.9878 0.3842
C59_9 C 0.32562(11) 0.98494(16) 0.3878(4)
H42_8 H 0.328333 0.9960 0.3321
H35_9 H 0.3229 0.7852 0.9544
H37_9 H 0.3267 0.9568 0.9724
C53_9 C 0.33377(14) 0.92383(10) 0.9612(3)
O6_9 O 0.34700(9) 0.91129(7) 0.98935(18)
H42_9 H 0.3374 0.9990 0.9987
C60_9 C 0.31372(11) 0.91014(7) 0.8802(2)
C61_9 C 0.29686(11) 0.92050(8) 0.8419(2)
H43_9 H 0.2983 0.9376 0.8662
C62_9 C 0.27797(13) 0.90583(9) 0.7682(3)
H44_9 H 0.2665 0.9129 0.7420
C63_9 C 0.27595(16) 0.88080(10) 0.7327(3)
H45_9 H 0.2630 0.8707 0.682333
C64_9 C 0.29281(14) 0.87044(10) 0.7709(3)
H46_9 H 0.2914 0.853333 0.7466
C65_9 C 0.31169(11) 0.88511(8) 0.8447(2)
H47_9 H 0.3232 0.8780 0.8708
H76_9 H 0.9946 0.7665 0.994333
C120_8 C 0.00710(10) 0.63044(10) 0.8161(3)
C121_8 C 0.03315(11) 0.65220(11) 0.7868(4)
H86_8 H 0.0420 0.6499 0.7318
C122_8 C 0.04659(12) 0.67757(13) 0.8369(4)
H87_8 H 0.0646 0.6929 0.8170
C123_8 C 0.03364(14) 0.68014(14) 0.9141(5)
H88_8 H 0.0431 0.6976 0.9492
C124_8 C 0.00735(12) 0.65896(11) 0.9456(4)
H82_7 H 0.7852 0.4624 0.0456
H84_7 H 0.9568 0.6302 0.0276
C118_7 C 0.92383(10) 0.59007(10) 0.0388(3)
O12_7 O 0.91129(7) 0.56430(6) 0.01065(18)
H89_7 H 0.9990 0.661667 0.0013
C125_7 C 0.91014(7) 0.59643(8) 0.1198(2)
C126_7 C 0.92050(8) 0.62365(8) 0.1581(2)
H90_7 H 0.9376 0.6394 0.1338
C127_7 C 0.90583(9) 0.62787(9) 0.2318(3)
H91_7 H 0.9129 0.6465 0.2580
C128_7 C 0.88080(10) 0.60486(12) 0.2673(3)
H92_7 H 0.8707 0.6078 0.317667
C129_7 C 0.87044(10) 0.57764(10) 0.2291(3)
H93_7 H 0.853333 0.5620 0.2534
C130_7 C 0.88511(8) 0.57343(8) 0.1553(2)
H94_7 H 0.8780 0.5549 0.1292
H82_8 H 0.5376 0.3229 0.0456
H84_8 H 0.3698 0.3267 0.0276
C118_8 C 0.40993(10) 0.33377(14) 0.0388(3)
O12_8 O 0.43570(6) 0.34700(9) 0.01065(18)
H89_8 H 0.338333 0.3374 0.0013
C125_8 C 0.40357(8) 0.31372(11) 0.1198(2)
C126_8 C 0.37635(8) 0.29686(11) 0.1581(2)
H90_8 H 0.3606 0.2983 0.1338
C127_8 C 0.37213(9) 0.27797(13) 0.2318(3)
H91_8 H 0.3535 0.2665 0.2580
C128_8 C 0.39514(12) 0.27595(16) 0.2673(3)
H92_8 H 0.3922 0.2630 0.317667
C129_8 C 0.42236(10) 0.29281(14) 0.2291(3)
H93_8 H 0.4380 0.2914 0.2534
C130_8 C 0.42657(8) 0.31169(11) 0.1553(2)
H94_8 H 0.4451 0.3232 0.1292
H29_8 H 0.2280 0.9946 0.005667
H29_9 H 0.0054 0.2335 0.005667
H82_9 H 0.6771 0.2148 0.0456
H84_9 H 0.6733 0.0432 0.0276
C118_9 C 0.66623(14) 0.07617(10) 0.0388(3)
O12_9 O 0.65300(9) 0.08871(7) 0.01065(18)
H89_9 H 0.6626 0.0010 0.0013
C125_9 C 0.68628(11) 0.08986(7) 0.1198(2)
C126_9 C 0.70314(11) 0.07950(8) 0.1581(2)
H90_9 H 0.7017 0.0624 0.1338
C127_9 C 0.72203(13) 0.09417(9) 0.2318(3)
H91_9 H 0.7335 0.0871 0.2580
C128_9 C 0.72405(16) 0.11920(10) 0.2673(3)
H92_9 H 0.7370 0.1293 0.317667
C129_9 C 0.70719(14) 0.12956(10) 0.2291(3)
H93_9 H 0.7086 0.146667 0.2534
C130_9 C 0.68831(11) 0.11489(8) 0.1553(2)
H94_9 H 0.6768 0.1220 0.1292
C120_9 C 0.62333(14) 0.99290(10) 0.8161(3)
C121_9 C 0.61904(16) 0.96685(11) 0.7868(4)
H86_9 H 0.6078 0.9580 0.7318
C122_9 C 0.63097(18) 0.95341(12) 0.8369(4)
H87_9 H 0.6282 0.9354 0.8170
C123_9 C 0.64649(20) 0.96636(14) 0.9141(5)
H88_9 H 0.6544 0.9569 0.9492
C124_9 C 0.65160(16) 0.99265(12) 0.9456(4)
loop_
_geom_bond_atom_site_label_1
_geom_bond_atom_site_label_2
_geom_bond_site_symmetry_1
_geom_bond_site_symmetry_2
H87 C122 1_555 1_555
C123 C122 1_555 1_555
H88 C123 1_555 1_555
O2 Co1 1_555 1_555
H9 C13 1_555 1_555
C14 C13 1_555 1_555
H10 C14 1_555 1_555
C15 C10 1_555 1_555
H11 C15 1_555 1_555
H15 C20 1_555 1_555
C21 C22 1_555 1_555
C22 H16 1_555 1_555
C23 C19 1_555 1_555
C24 C23 1_555 1_555
H17 C24 1_555 1_555
H19 C27 1_555 1_555
C40 C39 1_555 1_555
H27 C40 1_555 1_555
C41 C40 1_555 1_555
H28 C41 1_555 1_555
C42 C41 1_555 1_555
H29 C42 1_555 1_555
C43 C42 1_555 1_555
H30 C43 1_555 1_555
C44 C39 1_555 1_555
H31 C44 1_555 1_555
O7 Co1 1_555 1_555
C66 O7 1_555 1_555
C67 C66 1_555 1_555
H48 C67 1_555 1_555
C68 C67 1_555 1_555
C69 C66 1_555 1_555
C70 C69 1_555 1_555
H49 C70 1_555 1_555
C71 C70 1_555 1_555
H50 C71 1_555 1_555
C72 C71 1_555 1_555
H51 C72 1_555 1_555
C73 C72 1_555 1_555
H52 C73 1_555 1_555
C74 C69 1_555 1_555
H53 C74 1_555 1_555
H54 C76 1_555 1_555
C77 C76 1_555 1_555
H55 C77 1_555 1_555
N5 Co1 1_555 1_555
C81 N5 1_555 1_555
H59 C81 1_555 1_555
C82 C81 1_555 1_555
H60 C82 1_555 1_555
C83 C82 1_555 1_555
H61 C83 1_555 1_555
C14 C15 1_555 1_555
C19 C20 1_555 1_555
C22 C23 1_555 1_555
C24 C25 1_555 1_555
C43 C44 1_555 1_555
C73 C74 1_555 1_555
N3 C26 1_555 1_555
C29 C28 1_555 1_555
H20 C29 1_555 1_555
C30 N3 1_555 1_555
H21 C30 1_555 1_555
N4 C31 1_555 1_555
C31 H22 1_555 1_555
C32 C31 1_555 1_555
H23 C32 1_555 1_555
C34 C33 1_555 1_555
C35 N4 1_555 1_555
H25 C35 1_555 1_555
Co2 N4 1_555 1_555
O3 Co2 1_555 1_555
C36 O3 1_555 1_555
C37 C36 1_555 1_555
H26 C37 1_555 1_555
C38 C37 1_555 1_555
O4 Co2 1_555 1_555
C45 C38 1_555 1_555
C46 C45 1_555 1_555
H32 C46 1_555 1_555
C47 C46 1_555 1_555
H33 C47 1_555 1_555
C48 C47 1_555 1_555
H34 C48 1_555 1_555
C49 C48 1_555 1_555
H35 C49 1_555 1_555
C50 C45 1_555 1_555
H36 C50 1_555 1_555
O5 Co2 1_555 1_555
C51 O5 1_555 1_555
C52 C51 1_555 1_555
H37 C52 1_555 1_555
C53 C52 1_555 1_555
O6 Co2 1_555 1_555
C54 C51 1_555 1_555
C55 C54 1_555 1_555
H38 C55 1_555 1_555
C56 C55 1_555 1_555
H39 C56 1_555 1_555
C59 C54 1_555 1_555
H42 C59 1_555 1_555
C60 C53 1_555 1_555
C61 C60 1_555 1_555
H43 C61 1_555 1_555
C62 C61 1_555 1_555
H44 C62 1_555 1_555
C63 C62 1_555 1_555
H45 C63 1_555 1_555
C64 C63 1_555 1_555
H46 C64 1_555 1_555
C65 C60 1_555 1_555
H47 C65 1_555 1_555
N10 Co2 1_555 1_555
Co5 N3 1_555 1_555
C29 C30 1_555 1_555
C32 C33 1_555 1_555
C34 C35 1_555 1_555
C38 O4 1_555 1_555
C49 C50 1_555 1_555
C53 O6 1_555 1_555
C64 C65 1_555 1_555
N3_2 C26_2 1_555 1_555
C29_2 C28_2 1_555 1_555
H20_2 C29_2 1_555 1_555
C30_2 N3_2 1_555 1_555
H21_2 C30_2 1_555 1_555
N4_2 C31_2 1_555 1_555
C31_2 H22_2 1_555 1_555
C32_2 C31_2 1_555 1_555
H23_2 C32_2 1_555 1_555
C34_2 C33_2 1_555 1_555
C35_2 N4_2 1_555 1_555
H25_2 C35_2 1_555 1_555
Co2_2 N4_2 1_555 1_555
O3_2 Co2_2 1_555 1_555
C36_2 O3_2 1_555 1_555
C37_2 C36_2 1_555 1_555
H26_2 C37_2 1_555 1_555
C38_2 C37_2 1_555 1_555
O4_2 Co2_2 1_555 1_555
C45_2 C38_2 1_555 1_555
C46_2 C45_2 1_555 1_555
H32_2 C46_2 1_555 1_555
C47_2 C46_2 1_555 1_555
H33_2 C47_2 1_555 1_555
C48_2 C47_2 1_555 1_555
H34_2 C48_2 1_555 1_555
C49_2 C48_2 1_555 1_555
H35_2 C49_2 1_555 1_555
C50_2 C45_2 1_555 1_555
H36_2 C50_2 1_555 1_555
O5_2 Co2_2 1_555 1_555
C51_2 O5_2 1_555 1_555
C52_2 C51_2 1_555 1_555
H37_2 C52_2 1_555 1_555
C53_2 C52_2 1_555 1_555
O6_2 Co2_2 1_555 1_555
C54_2 C51_2 1_555 1_555
C55_2 C54_2 1_555 1_555
H38_2 C55_2 1_555 1_555
C56_2 C55_2 1_555 1_555
H39_2 C56_2 1_555 1_555
C59_2 C54_2 1_555 1_555
H42_2 C59_2 1_555 1_555
C60_2 C53_2 1_555 1_555
C61_2 C60_2 1_555 1_555
H43_2 C61_2 1_555 1_555
C62_2 C61_2 1_555 1_555
H44_2 C62_2 1_555 1_555
C63_2 C62_2 1_555 1_555
H45_2 C63_2 1_555 1_555
C64_2 C63_2 1_555 1_555
H46_2 C64_2 1_555 1_555
C65_2 C60_2 1_555 1_555
H47_2 C65_2 1_555 1_555
N10_2 Co2_2 1_555 1_555
Co5_2 N3_2 1_555 1_555
C29_2 C30_2 1_555 1_555
C32_2 C33_2 1_555 1_555
C34_2 C35_2 1_555 1_555
C38_2 O4_2 1_555 1_555
C49_2 C50_2 1_555 1_555
C53_2 O6_2 1_555 1_555
C64_2 C65_2 1_555 1_555
N3_3 C26_3 1_555 1_555
C29_3 C28_3 1_555 1_555
H20_3 C29_3 1_555 1_555
C30_3 N3_3 1_555 1_555
H21_3 C30_3 1_555 1_555
N4_3 C31_3 1_555 1_555
C31_3 H22_3 1_555 1_555
C32_3 C31_3 1_555 1_555
H23_3 C32_3 1_555 1_555
C34_3 C33_3 1_555 1_555
C35_3 N4_3 1_555 1_555
H25_3 C35_3 1_555 1_555
Co2_3 N4_3 1_555 1_555
O3_3 Co2_3 1_555 1_555
C36_3 O3_3 1_555 1_555
C37_3 C36_3 1_555 1_555
H26_3 C37_3 1_555 1_555
C38_3 C37_3 1_555 1_555
O4_3 Co2_3 1_555 1_555
C45_3 C38_3 1_555 1_555
C46_3 C45_3 1_555 1_555
H32_3 C46_3 1_555 1_555
C47_3 C46_3 1_555 1_555
H33_3 C47_3 1_555 1_555
C48_3 C47_3 1_555 1_555
H34_3 C48_3 1_555 1_555
C49_3 C48_3 1_555 1_555
H35_3 C49_3 1_555 1_555
C50_3 C45_3 1_555 1_555
H36_3 C50_3 1_555 1_555
O5_3 Co2_3 1_555 1_555
C51_3 O5_3 1_555 1_555
C52_3 C51_3 1_555 1_555
H37_3 C52_3 1_555 1_555
C53_3 C52_3 1_555 1_555
O6_3 Co2_3 1_555 1_555
C54_3 C51_3 1_555 1_555
C55_3 C54_3 1_555 1_555
H38_3 C55_3 1_555 1_555
C56_3 C55_3 1_555 1_555
H39_3 C56_3 1_555 1_555
C57 C56_3 1_555 1_555
H40 C57 1_555 1_555
C58 C57 1_555 1_555
H41 C58 1_555 1_555
C59_3 C54_3 1_555 1_555
H42_3 C59_3 1_555 1_555
C60_3 C53_3 1_555 1_555
C61_3 C60_3 1_555 1_555
H43_3 C61_3 1_555 1_555
C62_3 C61_3 1_555 1_555
H44_3 C62_3 1_555 1_555
C63_3 C62_3 1_555 1_555
H45_3 C63_3 1_555 1_555
C64_3 C63_3 1_555 1_555
H46_3 C64_3 1_555 1_555
C65_3 C60_3 1_555 1_555
H47_3 C65_3 1_555 1_555
N10_3 Co2_3 1_555 1_555
Co5_3 N3_3 1_555 1_555
C29_3 C30_3 1_555 1_555
C32_3 C33_3 1_555 1_555
C34_3 C35_3 1_555 1_555
C38_3 O4_3 1_555 1_555
C49_3 C50_3 1_555 1_555
C53_3 O6_3 1_555 1_555
C58 C59_3 1_555 1_555
C64_3 C65_3 1_555 1_555
Co1_2 O1 1_555 1_555
O1 C1 1_555 1_555
C1 C2 1_555 1_555
C3 C2 1_555 1_555
O2_2 Co1_2 1_555 1_555
C4 C1 1_555 1_555
C5 C4 1_555 1_555
H2 C5 1_555 1_555
C6 C5 1_555 1_555
H3 C6 1_555 1_555
C7 C6 1_555 1_555
H4 C7 1_555 1_555
C8 C7 1_555 1_555
H5 C8 1_555 1_555
C9 C4 1_555 1_555
H6 C9 1_555 1_555
N1 Co1_2 1_555 1_555
C16 N1 1_555 1_555
H12 C16 1_555 1_555
O7_2 Co1_2 1_555 1_555
C66_2 O7_2 1_555 1_555
C67_2 C66_2 1_555 1_555
H48_2 C67_2 1_555 1_555
C68_2 C67_2 1_555 1_555
O8 Co1_2 1_555 1_555
C69_2 C66_2 1_555 1_555
C70_2 C69_2 1_555 1_555
H49_2 C70_2 1_555 1_555
C71_2 C70_2 1_555 1_555
H50_2 C71_2 1_555 1_555
C72_2 C71_2 1_555 1_555
H51_2 C72_2 1_555 1_555
C73_2 C72_2 1_555 1_555
H52_2 C73_2 1_555 1_555
C74_2 C69_2 1_555 1_555
H53_2 C74_2 1_555 1_555
C75 C68_2 1_555 1_555
C76_2 C75 1_555 1_555
H54_2 C76_2 1_555 1_555
C77_2 C76_2 1_555 1_555
H55_2 C77_2 1_555 1_555
C78 C77_2 1_555 1_555
H56 C78 1_555 1_555
C79 C78 1_555 1_555
H57 C79 1_555 1_555
C80 C75 1_555 1_555
H58 C80 1_555 1_555
N5_2 Co1_2 1_555 1_555
C81_2 N5_2 1_555 1_555
H59_2 C81_2 1_555 1_555
C82_2 C81_2 1_555 1_555
H60_2 C82_2 1_555 1_555
C83_2 C82_2 1_555 1_555
H61_2 C83_2 1_555 1_555
C84 C83_2 1_555 1_555
C85 N5_2 1_555 1_555
H62 C85 1_555 1_555
N6 C86 1_555 1_555
C86 C87 1_555 1_555
C87 H63 1_555 1_555
C88 C84 1_555 1_555
C89 C88 1_555 1_555
H64 C89 1_555 1_555
C90 N6 1_555 1_555
N10_3 C91 1_555 1_555
C91 H65 1_555 1_555
C92 C91 1_555 1_555
H66 C92 1_555 1_555
C93 C86 1_555 1_555
C94 C93 1_555 1_555
H67 C94 1_555 1_555
C95 N10_3 1_555 1_555
H68 C95 1_555 1_555
N8 C96 1_555 1_555
C96 H69 1_555 1_555
C97 C96 1_555 1_555
H70 C97 1_555 1_555
C98 C90 1_555 1_555
C99 C98 1_555 1_555
H71 C99 1_555 1_555
C100 N8 1_555 1_555
H72 C100 1_555 1_555
Co5_2 N8 1_555 1_555
O9 Co5_2 1_555 1_555
C101 O9 1_555 1_555
C102 C101 1_555 1_555
H73 C102 1_555 1_555
C103 C102 1_555 1_555
O10 Co5_2 1_555 1_555
C104 C101 1_555 1_555
C105 C104 1_555 1_555
H74 C105 1_555 1_555
C106 C105 1_555 1_555
H75 C106 1_555 1_555
C107 C106 1_555 1_555
H76 C107 1_555 1_555
C108 C107 1_555 1_555
H77 C108 1_555 1_555
C109 C104 1_555 1_555
H78 C109 1_555 1_555
C110 C103 1_555 1_555
C111 C110 1_555 1_555
H79 C111 1_555 1_555
C112 C111 1_555 1_555
H80 C112 1_555 1_555
C113 C112 1_555 1_555
H81 C113 1_555 1_555
C114 C113 1_555 1_555
C115 C110 1_555 1_555
H83 C115 1_555 1_555
O11 Co5_2 1_555 1_555
C116 O11 1_555 1_555
C117 C116 1_555 1_555
C119 C116 1_555 1_555
C3 O2_2 1_555 1_555
C8 C9 1_555 1_555
C68_2 O8 1_555 1_555
C73_2 C74_2 1_555 1_555
C79 C80 1_555 1_555
C84 C85 1_555 1_555
C87 C88 1_555 1_555
C89 C90 1_555 1_555
C92 C93 1_555 1_555
C94 C95 1_555 1_555
C97 C98 1_555 1_555
C99 C100 1_555 1_555
C103 O10 1_555 1_555
C108 C109 1_555 1_555
C114 C115 1_555 1_555
Co1_3 O1_2 1_555 1_555
O1_2 C1_2 1_555 1_555
C1_2 C2_2 1_555 1_555
C3_2 C2_2 1_555 1_555
O2_3 Co1_3 1_555 1_555
C4_2 C1_2 1_555 1_555
C5_2 C4_2 1_555 1_555
H2_2 C5_2 1_555 1_555
C6_2 C5_2 1_555 1_555
H3_2 C6_2 1_555 1_555
C7_2 C6_2 1_555 1_555
H4_2 C7_2 1_555 1_555
C8_2 C7_2 1_555 1_555
H5_2 C8_2 1_555 1_555
C9_2 C4_2 1_555 1_555
H6_2 C9_2 1_555 1_555
N1_2 Co1_3 1_555 1_555
C16_2 N1_2 1_555 1_555
H12_2 C16_2 1_555 1_555
O7_3 Co1_3 1_555 1_555
C66_3 O7_3 1_555 1_555
C67_3 C66_3 1_555 1_555
H48_3 C67_3 1_555 1_555
C68_3 C67_3 1_555 1_555
O8_2 Co1_3 1_555 1_555
C69_3 C66_3 1_555 1_555
C70_3 C69_3 1_555 1_555
H49_3 C70_3 1_555 1_555
C71_3 C70_3 1_555 1_555
H50_3 C71_3 1_555 1_555
C72_3 C71_3 1_555 1_555
H51_3 C72_3 1_555 1_555
C73_3 C72_3 1_555 1_555
H52_3 C73_3 1_555 1_555
C74_3 C69_3 1_555 1_555
H53_3 C74_3 1_555 1_555
C75_2 C68_3 1_555 1_555
C76_3 C75_2 1_555 1_555
H54_3 C76_3 1_555 1_555
C77_3 C76_3 1_555 1_555
H55_3 C77_3 1_555 1_555
C78_2 C77_3 1_555 1_555
H56_2 C78_2 1_555 1_555
C79_2 C78_2 1_555 1_555
H57_2 C79_2 1_555 1_555
C80_2 C75_2 1_555 1_555
H58_2 C80_2 1_555 1_555
N5_3 Co1_3 1_555 1_555
C81_3 N5_3 1_555 1_555
H59_3 C81_3 1_555 1_555
C82_3 C81_3 1_555 1_555
H60_3 C82_3 1_555 1_555
C83_3 C82_3 1_555 1_555
H61_3 C83_3 1_555 1_555
C84_2 C83_3 1_555 1_555
C85_2 N5_3 1_555 1_555
H62_2 C85_2 1_555 1_555
N6_2 C86_2 1_555 1_555
C86_2 C87_2 1_555 1_555
C87_2 H63_2 1_555 1_555
C88_2 C84_2 1_555 1_555
C89_2 C88_2 1_555 1_555
H64_2 C89_2 1_555 1_555
C90_2 N6_2 1_555 1_555
N10 C91_2 1_555 1_555
C91_2 H65_2 1_555 1_555
C92_2 C91_2 1_555 1_555
H66_2 C92_2 1_555 1_555
C93_2 C86_2 1_555 1_555
C94_2 C93_2 1_555 1_555
H67_2 C94_2 1_555 1_555
C95_2 N10 1_555 1_555
H68_2 C95_2 1_555 1_555
N8_2 C96_2 1_555 1_555
C96_2 H69_2 1_555 1_555
C97_2 C96_2 1_555 1_555
H70_2 C97_2 1_555 1_555
C98_2 C90_2 1_555 1_555
C99_2 C98_2 1_555 1_555
H71_2 C99_2 1_555 1_555
C100_2 N8_2 1_555 1_555
H72_2 C100_2 1_555 1_555
Co5_3 N8_2 1_555 1_555
O9_2 Co5_3 1_555 1_555
C101_2 O9_2 1_555 1_555
C102_2 C101_2 1_555 1_555
H73_2 C102_2 1_555 1_555
C103_2 C102_2 1_555 1_555
O10_2 Co5_3 1_555 1_555
C104_2 C101_2 1_555 1_555
C105_2 C104_2 1_555 1_555
H74_2 C105_2 1_555 1_555
C106_2 C105_2 1_555 1_555
H75_2 C106_2 1_555 1_555
C107_2 C106_2 1_555 1_555
H76_2 C107_2 1_555 1_555
C108_2 C107_2 1_555 1_555
H77_2 C108_2 1_555 1_555
C109_2 C104_2 1_555 1_555
H78_2 C109_2 1_555 1_555
C110_2 C103_2 1_555 1_555
C111_2 C110_2 1_555 1_555
H79_2 C111_2 1_555 1_555
C112_2 C111_2 1_555 1_555
H80_2 C112_2 1_555 1_555
C113_2 C112_2 1_555 1_555
H81_2 C113_2 1_555 1_555
C114_2 C113_2 1_555 1_555
C115_2 C110_2 1_555 1_555
H83_2 C115_2 1_555 1_555
O11_2 Co5_3 1_555 1_555
C116_2 O11_2 1_555 1_555
C117_2 C116_2 1_555 1_555
C119_2 C116_2 1_555 1_555
C120 C119_2 1_555 1_555
H85_2 C120 1_555 1_555
C121 C120 1_555 1_555
H86 C121 1_555 1_555
C122_2 C121 1_555 1_555
H87_2 C122_2 1_555 1_555
C123_2 C122_2 1_555 1_555
H88_2 C123_2 1_555 1_555
C124 C119_2 1_555 1_555
C3_2 O2_3 1_555 1_555
C8_2 C9_2 1_555 1_555
C68_3 O8_2 1_555 1_555
C73_3 C74_3 1_555 1_555
C79_2 C80_2 1_555 1_555
C84_2 C85_2 1_555 1_555
C87_2 C88_2 1_555 1_555
C89_2 C90_2 1_555 1_555
C92_2 C93_2 1_555 1_555
C94_2 C95_2 1_555 1_555
C97_2 C98_2 1_555 1_555
C99_2 C100_2 1_555 1_555
C103_2 O10_2 1_555 1_555
C108_2 C109_2 1_555 1_555
C114_2 C115_2 1_555 1_555
C123_2 C124 1_555 1_555
Co1_4 O1_3 1_555 1_555
O1_3 C1_3 1_555 1_555
C1_3 C2_3 1_555 1_555
C3_3 C2_3 1_555 1_555
O2_4 Co1_4 1_555 1_555
C4_3 C1_3 1_555 1_555
C5_3 C4_3 1_555 1_555
H2_3 C5_3 1_555 1_555
C6_3 C5_3 1_555 1_555
H3_3 C6_3 1_555 1_555
C7_3 C6_3 1_555 1_555
H4_3 C7_3 1_555 1_555
C8_3 C7_3 1_555 1_555
H5_3 C8_3 1_555 1_555
C9_3 C4_3 1_555 1_555
H6_3 C9_3 1_555 1_555
N1_3 Co1_4 1_555 1_555
C16_3 N1_3 1_555 1_555
H12_3 C16_3 1_555 1_555
O7_4 Co1_4 1_555 1_555
C66_4 O7_4 1_555 1_555
C67_4 C66_4 1_555 1_555
H48_4 C67_4 1_555 1_555
C68_4 C67_4 1_555 1_555
O8_3 Co1_4 1_555 1_555
C69_4 C66_4 1_555 1_555
C70_4 C69_4 1_555 1_555
H49_4 C70_4 1_555 1_555
C71_4 C70_4 1_555 1_555
H50_4 C71_4 1_555 1_555
C72_4 C71_4 1_555 1_555
H51_4 C72_4 1_555 1_555
C73_4 C72_4 1_555 1_555
H52_4 C73_4 1_555 1_555
C74_4 C69_4 1_555 1_555
H53_4 C74_4 1_555 1_555
C75_3 C68_4 1_555 1_555
C76_4 C75_3 1_555 1_555
H54_4 C76_4 1_555 1_555
C77_4 C76_4 1_555 1_555
H55_4 C77_4 1_555 1_555
C78_3 C77_4 1_555 1_555
H56_3 C78_3 1_555 1_555
C79_3 C78_3 1_555 1_555
H57_3 C79_3 1_555 1_555
C80_3 C75_3 1_555 1_555
H58_3 C80_3 1_555 1_555
N5_4 Co1_4 1_555 1_555
C81_4 N5_4 1_555 1_555
H59_4 C81_4 1_555 1_555
C82_4 C81_4 1_555 1_555
H60_4 C82_4 1_555 1_555
C83_4 C82_4 1_555 1_555
H61_4 C83_4 1_555 1_555
C84_3 C83_4 1_555 1_555
C85_3 N5_4 1_555 1_555
H62_3 C85_3 1_555 1_555
N6_3 C86_3 1_555 1_555
C86_3 C87_3 1_555 1_555
C87_3 H63_3 1_555 1_555
C88_3 C84_3 1_555 1_555
C89_3 C88_3 1_555 1_555
H64_3 C89_3 1_555 1_555
C90_3 N6_3 1_555 1_555
N10_2 C91_3 1_555 1_555
C91_3 H65_3 1_555 1_555
C92_3 C91_3 1_555 1_555
H66_3 C92_3 1_555 1_555
C93_3 C86_3 1_555 1_555
C94_3 C93_3 1_555 1_555
H67_3 C94_3 1_555 1_555
C95_3 N10_2 1_555 1_555
H68_3 C95_3 1_555 1_555
N8_3 C96_3 1_555 1_555
C96_3 H69_3 1_555 1_555
C97_3 C96_3 1_555 1_555
H70_3 C97_3 1_555 1_555
C98_3 C90_3 1_555 1_555
C99_3 C98_3 1_555 1_555
H71_3 C99_3 1_555 1_555
C100_3 N8_3 1_555 1_555
H72_3 C100_3 1_555 1_555
Co5 N8_3 1_555 1_555
O9_3 Co5 1_555 1_555
C101_3 O9_3 1_555 1_555
C102_3 C101_3 1_555 1_555
H73_3 C102_3 1_555 1_555
C103_3 C102_3 1_555 1_555
O10_3 Co5 1_555 1_555
C104_3 C101_3 1_555 1_555
C105_3 C104_3 1_555 1_555
H74_3 C105_3 1_555 1_555
C106_3 C105_3 1_555 1_555
H75_3 C106_3 1_555 1_555
C107_3 C106_3 1_555 1_555
H76_3 C107_3 1_555 1_555
C108_3 C107_3 1_555 1_555
H77_3 C108_3 1_555 1_555
C109_3 C104_3 1_555 1_555
H78_3 C109_3 1_555 1_555
C110_3 C103_3 1_555 1_555
C111_3 C110_3 1_555 1_555
H79_3 C111_3 1_555 1_555
C112_3 C111_3 1_555 1_555
H80_3 C112_3 1_555 1_555
C113_3 C112_3 1_555 1_555
H81_3 C113_3 1_555 1_555
C114_3 C113_3 1_555 1_555
C115_3 C110_3 1_555 1_555
H83_3 C115_3 1_555 1_555
O11_3 Co5 1_555 1_555
C116_3 O11_3 1_555 1_555
C117_3 C116_3 1_555 1_555
C119_3 C116_3 1_555 1_555
C3_3 O2_4 1_555 1_555
C8_3 C9_3 1_555 1_555
C68_4 O8_3 1_555 1_555
C73_4 C74_4 1_555 1_555
C79_3 C80_3 1_555 1_555
C84_3 C85_3 1_555 1_555
C87_3 C88_3 1_555 1_555
C89_3 C90_3 1_555 1_555
C92_3 C93_3 1_555 1_555
C94_3 C95_3 1_555 1_555
C97_3 C98_3 1_555 1_555
C99_3 C100_3 1_555 1_555
C103_3 O10_3 1_555 1_555
C108_3 C109_3 1_555 1_555
C114_3 C115_3 1_555 1_555
N7 C91_4 1_555 1_555
C94_4 C93_4 1_555 1_555
H67_4 C94_4 1_555 1_555
C95_4 N7 1_555 1_555
H68_4 C95_4 1_555 1_555
N8_4 C96_4 1_555 1_555
C96_4 H69_4 1_555 1_555
C97_4 C96_4 1_555 1_555
H70_4 C97_4 1_555 1_555
C99_4 C98_4 1_555 1_555
C100_4 N8_4 1_555 1_555
H72_4 C100_4 1_555 1_555
Co3 N8_4 1_555 1_555
O9_4 Co3 1_555 1_555
C101_4 O9_4 1_555 1_555
C102_4 C101_4 1_555 1_555
H73_4 C102_4 1_555 1_555
C103_4 C102_4 1_555 1_555
O10_4 Co3 1_555 1_555
C110_4 C103_4 1_555 1_555
C111_4 C110_4 1_555 1_555
H79_4 C111_4 1_555 1_555
C112_4 C111_4 1_555 1_555
H80_4 C112_4 1_555 1_555
C113_4 C112_4 1_555 1_555
H81_4 C113_4 1_555 1_555
C114_4 C113_4 1_555 1_555
H82 C114_4 1_555 1_555
C115_4 C110_4 1_555 1_555
H83_4 C115_4 1_555 1_555
O11_4 Co3 1_555 1_555
C116_4 O11_4 1_555 1_555
C117_4 C116_4 1_555 1_555
H84 C117_4 1_555 1_555
C118 C117_4 1_555 1_555
O12 Co3 1_555 1_555
C119_4 C116_4 1_555 1_555
C120_2 C119_4 1_555 1_555
H85_4 C120_2 1_555 1_555
C121_2 C120_2 1_555 1_555
H86_2 C121_2 1_555 1_555
C124_2 C119_4 1_555 1_555
H89 C124_2 1_555 1_555
C125 C118 1_555 1_555
C126 C125 1_555 1_555
H90 C126 1_555 1_555
C127 C126 1_555 1_555
H91 C127 1_555 1_555
C128 C127 1_555 1_555
H92 C128 1_555 1_555
C129 C128 1_555 1_555
H93 C129 1_555 1_555
C130 C125 1_555 1_555
H94 C130 1_555 1_555
N9 Co3 1_555 1_555
Co4 N7 1_555 1_555
C94_4 C95_4 1_555 1_555
C97_4 C98_4 1_555 1_555
C99_4 C100_4 1_555 1_555
C103_4 O10_4 1_555 1_555
C114_4 C115_4 1_555 1_555
C118 O12 1_555 1_555
C129 C130 1_555 1_555
N7_2 C91_5 1_555 1_555
C94_5 C93_5 1_555 1_555
H67_5 C94_5 1_555 1_555
C95_5 N7_2 1_555 1_555
H68_5 C95_5 1_555 1_555
N8_5 C96_5 1_555 1_555
C96_5 H69_5 1_555 1_555
C97_5 C96_5 1_555 1_555
H70_5 C97_5 1_555 1_555
C99_5 C98_5 1_555 1_555
C100_5 N8_5 1_555 1_555
H72_5 C100_5 1_555 1_555
Co3_2 N8_5 1_555 1_555
O9_5 Co3_2 1_555 1_555
C101_5 O9_5 1_555 1_555
C102_5 C101_5 1_555 1_555
H73_5 C102_5 1_555 1_555
C103_5 C102_5 1_555 1_555
O10_5 Co3_2 1_555 1_555
C110_5 C103_5 1_555 1_555
C111_5 C110_5 1_555 1_555
H79_5 C111_5 1_555 1_555
C112_5 C111_5 1_555 1_555
H80_5 C112_5 1_555 1_555
C113_5 C112_5 1_555 1_555
H81_5 C113_5 1_555 1_555
C114_5 C113_5 1_555 1_555
H82_2 C114_5 1_555 1_555
C115_5 C110_5 1_555 1_555
H83_5 C115_5 1_555 1_555
O11_5 Co3_2 1_555 1_555
C116_5 O11_5 1_555 1_555
C117_5 C116_5 1_555 1_555
H84_2 C117_5 1_555 1_555
C118_2 C117_5 1_555 1_555
O12_2 Co3_2 1_555 1_555
C119_5 C116_5 1_555 1_555
C120_3 C119_5 1_555 1_555
H85_5 C120_3 1_555 1_555
C121_3 C120_3 1_555 1_555
H86_3 C121_3 1_555 1_555
C124_3 C119_5 1_555 1_555
H89_2 C124_3 1_555 1_555
C125_2 C118_2 1_555 1_555
C126_2 C125_2 1_555 1_555
H90_2 C126_2 1_555 1_555
C127_2 C126_2 1_555 1_555
H91_2 C127_2 1_555 1_555
C128_2 C127_2 1_555 1_555
H92_2 C128_2 1_555 1_555
C129_2 C128_2 1_555 1_555
H93_2 C129_2 1_555 1_555
C130_2 C125_2 1_555 1_555
H94_2 C130_2 1_555 1_555
N9_2 Co3_2 1_555 1_555
Co4_2 N7_2 1_555 1_555
C94_5 C95_5 1_555 1_555
C97_5 C98_5 1_555 1_555
C99_5 C100_5 1_555 1_555
C103_5 O10_5 1_555 1_555
C114_5 C115_5 1_555 1_555
C118_2 O12_2 1_555 1_555
C129_2 C130_2 1_555 1_555
N7_3 C91_6 1_555 1_555
C94_6 C93_6 1_555 1_555
H67_6 C94_6 1_555 1_555
C95_6 N7_3 1_555 1_555
H68_6 C95_6 1_555 1_555
N8_6 C96_6 1_555 1_555
C96_6 H69_6 1_555 1_555
C97_6 C96_6 1_555 1_555
H70_6 C97_6 1_555 1_555
C99_6 C98_6 1_555 1_555
C100_6 N8_6 1_555 1_555
H72_6 C100_6 1_555 1_555
Co3_3 N8_6 1_555 1_555
O9_6 Co3_3 1_555 1_555
C101_6 O9_6 1_555 1_555
C102_6 C101_6 1_555 1_555
H73_6 C102_6 1_555 1_555
C103_6 C102_6 1_555 1_555
O10_6 Co3_3 1_555 1_555
C110_6 C103_6 1_555 1_555
C111_6 C110_6 1_555 1_555
H79_6 C111_6 1_555 1_555
C112_6 C111_6 1_555 1_555
H80_6 C112_6 1_555 1_555
C113_6 C112_6 1_555 1_555
H81_6 C113_6 1_555 1_555
C114_6 C113_6 1_555 1_555
H82_3 C114_6 1_555 1_555
C115_6 C110_6 1_555 1_555
H83_6 C115_6 1_555 1_555
O11_6 Co3_3 1_555 1_555
C116_6 O11_6 1_555 1_555
C117_6 C116_6 1_555 1_555
H84_3 C117_6 1_555 1_555
C118_3 C117_6 1_555 1_555
O12_3 Co3_3 1_555 1_555
C119_6 C116_6 1_555 1_555
C120_4 C119_6 1_555 1_555
H85_6 C120_4 1_555 1_555
C121_4 C120_4 1_555 1_555
H86_4 C121_4 1_555 1_555
C122_3 C121_4 1_555 1_555
H87_3 C122_3 1_555 1_555
C123_3 C122_3 1_555 1_555
H88_3 C123_3 1_555 1_555
C124_4 C119_6 1_555 1_555
H89_3 C124_4 1_555 1_555
C125_3 C118_3 1_555 1_555
C126_3 C125_3 1_555 1_555
H90_3 C126_3 1_555 1_555
C127_3 C126_3 1_555 1_555
H91_3 C127_3 1_555 1_555
C128_3 C127_3 1_555 1_555
H92_3 C128_3 1_555 1_555
C129_3 C128_3 1_555 1_555
H93_3 C129_3 1_555 1_555
C130_3 C125_3 1_555 1_555
H94_3 C130_3 1_555 1_555
N9_3 Co3_3 1_555 1_555
Co4_3 N7_3 1_555 1_555
C94_6 C95_6 1_555 1_555
C97_6 C98_6 1_555 1_555
C99_6 C100_6 1_555 1_555
C103_6 O10_6 1_555 1_555
C114_6 C115_6 1_555 1_555
C118_3 O12_3 1_555 1_555
C123_3 C124_4 1_555 1_555
C129_3 C130_3 1_555 1_555
Co1_5 O1_4 1_555 1_555
O1_4 C1_4 1_555 1_555
C1_4 C2_4 1_555 1_555
C2_4 H1 1_555 1_555
C3_4 C2_4 1_555 1_555
O2_5 Co1_5 1_555 1_555
C4_4 C1_4 1_555 1_555
C5_4 C4_4 1_555 1_555
H2_4 C5_4 1_555 1_555
C6_4 C5_4 1_555 1_555
H3_4 C6_4 1_555 1_555
C7_4 C6_4 1_555 1_555
H4_4 C7_4 1_555 1_555
C8_4 C7_4 1_555 1_555
H5_4 C8_4 1_555 1_555
C9_4 C4_4 1_555 1_555
H6_4 C9_4 1_555 1_555
C10_2 C3_4 1_555 1_555
C11 C10_2 1_555 1_555
H7 C11 1_555 1_555
C12 C11 1_555 1_555
H8 C12 1_555 1_555
C13_2 C12 1_555 1_555
H9_2 C13_2 1_555 1_555
C14_2 C13_2 1_555 1_555
H10_2 C14_2 1_555 1_555
C15_2 C10_2 1_555 1_555
H11_2 C15_2 1_555 1_555
N1_4 Co1_5 1_555 1_555
C16_4 N1_4 1_555 1_555
H12_4 C16_4 1_555 1_555
C17 C16_4 1_555 1_555
H13_4 C17 1_555 1_555
C18 C17 1_555 1_555
H14 C18 1_555 1_555
C19_2 C18 1_555 1_555
C20_2 N1_4 1_555 1_555
H15_2 C20_2 1_555 1_555
N2_4 C21_2 1_555 1_555
C21_2 C22_2 1_555 1_555
C22_2 H16_2 1_555 1_555
C23_2 C19_2 1_555 1_555
C24_2 C23_2 1_555 1_555
H17_2 C24_2 1_555 1_555
C25_2 N2_4 1_555 1_555
N9_3 C26_4 1_555 1_555
C26_4 H18_2 1_555 1_555
C27_2 C26_4 1_555 1_555
H19_2 C27_2 1_555 1_555
C28_4 C21_2 1_555 1_555
C29_4 C28_4 1_555 1_555
H20_4 C29_4 1_555 1_555
C30_4 N9_3 1_555 1_555
H21_4 C30_4 1_555 1_555
N4_4 C31_4 1_555 1_555
C31_4 H22_4 1_555 1_555
C32_4 C31_4 1_555 1_555
H23_4 C32_4 1_555 1_555
C33_4 C25_2 1_555 1_555
C34_4 C33_4 1_555 1_555
H24_2 C34_4 1_555 1_555
C35_4 N4_4 1_555 1_555
H25_4 C35_4 1_555 1_555
Co4_2 N4_4 1_555 1_555
O3_4 Co4_2 1_555 1_555
C36_4 O3_4 1_555 1_555
C37_4 C36_4 1_555 1_555
H26_4 C37_4 1_555 1_555
C38_4 C37_4 1_555 1_555
O4_4 Co4_2 1_555 1_555
C39_2 C36_4 1_555 1_555
C40_2 C39_2 1_555 1_555
H27_2 C40_2 1_555 1_555
C41_2 C40_2 1_555 1_555
H28_2 C41_2 1_555 1_555
C42_2 C41_2 1_555 1_555
H29_3 C42_2 1_555 1_555
C43_2 C42_2 1_555 1_555
H30_2 C43_2 1_555 1_555
C44_2 C39_2 1_555 1_555
H31_2 C44_2 1_555 1_555
C45_4 C38_4 1_555 1_555
C46_4 C45_4 1_555 1_555
H32_4 C46_4 1_555 1_555
C47_4 C46_4 1_555 1_555
H33_4 C47_4 1_555 1_555
C48_4 C47_4 1_555 1_555
H34_4 C48_4 1_555 1_555
C49_4 C48_4 1_555 1_555
C50_4 C45_4 1_555 1_555
H36_4 C50_4 1_555 1_555
O5_4 Co4_2 1_555 1_555
C51_4 O5_4 1_555 1_555
C52_4 C51_4 1_555 1_555
C54_4 C51_4 1_555 1_555
O7_5 Co1_5 1_555 1_555
C66_5 O7_5 1_555 1_555
C67_5 C66_5 1_555 1_555
C68_5 C67_5 1_555 1_555
O8_4 Co1_5 1_555 1_555
C69_5 C66_5 1_555 1_555
C70_5 C69_5 1_555 1_555
H49_5 C70_5 1_555 1_555
C71_5 C70_5 1_555 1_555
H50_5 C71_5 1_555 1_555
C72_5 C71_5 1_555 1_555
H51_5 C72_5 1_555 1_555
C73_5 C72_5 1_555 1_555
H52_5 C73_5 1_555 1_555
C74_5 C69_5 1_555 1_555
H53_5 C74_5 1_555 1_555
N5_5 Co1_5 1_555 1_555
C81_5 N5_5 1_555 1_555
H59_5 C81_5 1_555 1_555
C3_4 O2_5 1_555 1_555
C8_4 C9_4 1_555 1_555
C14_2 C15_2 1_555 1_555
C19_2 C20_2 1_555 1_555
C22_2 C23_2 1_555 1_555
C24_2 C25_2 1_555 1_555
C27_2 C28_4 1_555 1_555
C29_4 C30_4 1_555 1_555
C32_4 C33_4 1_555 1_555
C34_4 C35_4 1_555 1_555
C38_4 O4_4 1_555 1_555
C43_2 C44_2 1_555 1_555
C49_4 C50_4 1_555 1_555
C68_5 O8_4 1_555 1_555
C73_5 C74_5 1_555 1_555
Co1_6 O1_5 1_555 1_555
O1_5 C1_5 1_555 1_555
C1_5 C2_5 1_555 1_555
C2_5 H1_2 1_555 1_555
C3_5 C2_5 1_555 1_555
O2_6 Co1_6 1_555 1_555
C4_5 C1_5 1_555 1_555
C5_5 C4_5 1_555 1_555
H2_5 C5_5 1_555 1_555
C6_5 C5_5 1_555 1_555
H3_5 C6_5 1_555 1_555
C7_5 C6_5 1_555 1_555
H4_5 C7_5 1_555 1_555
C8_5 C7_5 1_555 1_555
H5_5 C8_5 1_555 1_555
C9_5 C4_5 1_555 1_555
H6_5 C9_5 1_555 1_555
C10_3 C3_5 1_555 1_555
C11_2 C10_3 1_555 1_555
H7_2 C11_2 1_555 1_555
C12_2 C11_2 1_555 1_555
H8_2 C12_2 1_555 1_555
C13_3 C12_2 1_555 1_555
H9_3 C13_3 1_555 1_555
C14_3 C13_3 1_555 1_555
H10_3 C14_3 1_555 1_555
C15_3 C10_3 1_555 1_555
H11_3 C15_3 1_555 1_555
N1_5 Co1_6 1_555 1_555
C16_5 N1_5 1_555 1_555
H12_5 C16_5 1_555 1_555
C17_2 C16_5 1_555 1_555
H13_5 C17_2 1_555 1_555
C18_2 C17_2 1_555 1_555
H14_2 C18_2 1_555 1_555
C19_3 C18_2 1_555 1_555
C20_3 N1_5 1_555 1_555
H15_3 C20_3 1_555 1_555
N2_5 C21_3 1_555 1_555
C21_3 C22_3 1_555 1_555
C22_3 H16_3 1_555 1_555
C23_3 C19_3 1_555 1_555
C24_3 C23_3 1_555 1_555
H17_3 C24_3 1_555 1_555
C25_3 N2_5 1_555 1_555
N9 C26_5 1_555 1_555
C26_5 H18_3 1_555 1_555
C27_3 C26_5 1_555 1_555
H19_3 C27_3 1_555 1_555
C28_5 C21_3 1_555 1_555
C29_5 C28_5 1_555 1_555
H20_5 C29_5 1_555 1_555
C30_5 N9 1_555 1_555
H21_5 C30_5 1_555 1_555
N4_5 C31_5 1_555 1_555
C31_5 H22_5 1_555 1_555
C32_5 C31_5 1_555 1_555
H23_5 C32_5 1_555 1_555
C33_5 C25_3 1_555 1_555
C34_5 C33_5 1_555 1_555
H24_3 C34_5 1_555 1_555
C35_5 N4_5 1_555 1_555
H25_5 C35_5 1_555 1_555
Co4_3 N4_5 1_555 1_555
O3_5 Co4_3 1_555 1_555
C36_5 O3_5 1_555 1_555
C37_5 C36_5 1_555 1_555
H26_5 C37_5 1_555 1_555
C38_5 C37_5 1_555 1_555
O4_5 Co4_3 1_555 1_555
C39_3 C36_5 1_555 1_555
C40_3 C39_3 1_555 1_555
H27_3 C40_3 1_555 1_555
C41_3 C40_3 1_555 1_555
H28_3 C41_3 1_555 1_555
C42_3 C41_3 1_555 1_555
H29_4 C42_3 1_555 1_555
C43_3 C42_3 1_555 1_555
H30_3 C43_3 1_555 1_555
C44_3 C39_3 1_555 1_555
H31_3 C44_3 1_555 1_555
C45_5 C38_5 1_555 1_555
C46_5 C45_5 1_555 1_555
H32_5 C46_5 1_555 1_555
C47_5 C46_5 1_555 1_555
H33_5 C47_5 1_555 1_555
C48_5 C47_5 1_555 1_555
H34_5 C48_5 1_555 1_555
C49_5 C48_5 1_555 1_555
C50_5 C45_5 1_555 1_555
H36_5 C50_5 1_555 1_555
O5_5 Co4_3 1_555 1_555
C51_5 O5_5 1_555 1_555
C52_5 C51_5 1_555 1_555
C54_5 C51_5 1_555 1_555
C55_4 C54_5 1_555 1_555
H38_5 C55_4 1_555 1_555
C56_4 C55_4 1_555 1_555
H39_4 C56_4 1_555 1_555
C57_2 C56_4 1_555 1_555
H40_2 C57_2 1_555 1_555
C58_2 C57_2 1_555 1_555
H41_2 C58_2 1_555 1_555
C59_4 C54_5 1_555 1_555
O7_6 Co1_6 1_555 1_555
C66_6 O7_6 1_555 1_555
C67_6 C66_6 1_555 1_555
C68_6 C67_6 1_555 1_555
O8_5 Co1_6 1_555 1_555
C69_6 C66_6 1_555 1_555
C70_6 C69_6 1_555 1_555
H49_6 C70_6 1_555 1_555
C71_6 C70_6 1_555 1_555
H50_6 C71_6 1_555 1_555
C72_6 C71_6 1_555 1_555
H51_6 C72_6 1_555 1_555
C73_6 C72_6 1_555 1_555
H52_6 C73_6 1_555 1_555
C74_6 C69_6 1_555 1_555
H53_6 C74_6 1_555 1_555
N5_6 Co1_6 1_555 1_555
C81_6 N5_6 1_555 1_555
H59_6 C81_6 1_555 1_555
C3_5 O2_6 1_555 1_555
C8_5 C9_5 1_555 1_555
C14_3 C15_3 1_555 1_555
C19_3 C20_3 1_555 1_555
C22_3 C23_3 1_555 1_555
C24_3 C25_3 1_555 1_555
C27_3 C28_5 1_555 1_555
C29_5 C30_5 1_555 1_555
C32_5 C33_5 1_555 1_555
C34_5 C35_5 1_555 1_555
C38_5 O4_5 1_555 1_555
C43_3 C44_3 1_555 1_555
C49_5 C50_5 1_555 1_555
C58_2 C59_4 1_555 1_555
C68_6 O8_5 1_555 1_555
C73_6 C74_6 1_555 1_555
Co1_7 O1_6 1_555 1_555
O1_6 C1_6 1_555 1_555
C1_6 C2_6 1_555 1_555
C2_6 H1_3 1_555 1_555
C3_6 C2_6 1_555 1_555
O2_7 Co1_7 1_555 1_555
C4_6 C1_6 1_555 1_555
C5_6 C4_6 1_555 1_555
H2_6 C5_6 1_555 1_555
C6_6 C5_6 1_555 1_555
H3_6 C6_6 1_555 1_555
C7_6 C6_6 1_555 1_555
H4_6 C7_6 1_555 1_555
C8_6 C7_6 1_555 1_555
H5_6 C8_6 1_555 1_555
C9_6 C4_6 1_555 1_555
H6_6 C9_6 1_555 1_555
C10_4 C3_6 1_555 1_555
C11_3 C10_4 1_555 1_555
H7_3 C11_3 1_555 1_555
C12_3 C11_3 1_555 1_555
H8_3 C12_3 1_555 1_555
C13_4 C12_3 1_555 1_555
H9_4 C13_4 1_555 1_555
C14_4 C13_4 1_555 1_555
H10_4 C14_4 1_555 1_555
C15_4 C10_4 1_555 1_555
H11_4 C15_4 1_555 1_555
N1_6 Co1_7 1_555 1_555
C16_6 N1_6 1_555 1_555
H12_6 C16_6 1_555 1_555
C17_3 C16_6 1_555 1_555
H13_6 C17_3 1_555 1_555
C18_3 C17_3 1_555 1_555
H14_3 C18_3 1_555 1_555
C19_4 C18_3 1_555 1_555
C20_4 N1_6 1_555 1_555
H15_4 C20_4 1_555 1_555
N2_6 C21_4 1_555 1_555
C21_4 C22_4 1_555 1_555
C22_4 H16_4 1_555 1_555
C23_4 C19_4 1_555 1_555
C24_4 C23_4 1_555 1_555
H17_4 C24_4 1_555 1_555
C25_4 N2_6 1_555 1_555
N9_2 C26_6 1_555 1_555
C26_6 H18_4 1_555 1_555
C27_4 C26_6 1_555 1_555
H19_4 C27_4 1_555 1_555
C28_6 C21_4 1_555 1_555
C29_6 C28_6 1_555 1_555
H20_6 C29_6 1_555 1_555
C30_6 N9_2 1_555 1_555
H21_6 C30_6 1_555 1_555
N4_6 C31_6 1_555 1_555
C31_6 H22_6 1_555 1_555
C32_6 C31_6 1_555 1_555
H23_6 C32_6 1_555 1_555
C33_6 C25_4 1_555 1_555
C34_6 C33_6 1_555 1_555
H24_4 C34_6 1_555 1_555
C35_6 N4_6 1_555 1_555
H25_6 C35_6 1_555 1_555
Co4 N4_6 1_555 1_555
O3_6 Co4 1_555 1_555
C36_6 O3_6 1_555 1_555
C37_6 C36_6 1_555 1_555
H26_6 C37_6 1_555 1_555
C38_6 C37_6 1_555 1_555
O4_6 Co4 1_555 1_555
C39_4 C36_6 1_555 1_555
C40_4 C39_4 1_555 1_555
H27_4 C40_4 1_555 1_555
C41_4 C40_4 1_555 1_555
H28_4 C41_4 1_555 1_555
C42_4 C41_4 1_555 1_555
H29_5 C42_4 1_555 1_555
C43_4 C42_4 1_555 1_555
H30_4 C43_4 1_555 1_555
C44_4 C39_4 1_555 1_555
H31_4 C44_4 1_555 1_555
C45_6 C38_6 1_555 1_555
C46_6 C45_6 1_555 1_555
H32_6 C46_6 1_555 1_555
C47_6 C46_6 1_555 1_555
H33_6 C47_6 1_555 1_555
C48_6 C47_6 1_555 1_555
H34_6 C48_6 1_555 1_555
C49_6 C48_6 1_555 1_555
C50_6 C45_6 1_555 1_555
H36_6 C50_6 1_555 1_555
O5_6 Co4 1_555 1_555
C51_6 O5_6 1_555 1_555
C52_6 C51_6 1_555 1_555
C54_6 C51_6 1_555 1_555
O7_7 Co1_7 1_555 1_555
C66_7 O7_7 1_555 1_555
C67_7 C66_7 1_555 1_555
C68_7 C67_7 1_555 1_555
O8_6 Co1_7 1_555 1_555
C69_7 C66_7 1_555 1_555
C70_7 C69_7 1_555 1_555
H49_7 C70_7 1_555 1_555
C71_7 C70_7 1_555 1_555
H50_7 C71_7 1_555 1_555
C72_7 C71_7 1_555 1_555
H51_7 C72_7 1_555 1_555
C73_7 C72_7 1_555 1_555
H52_7 C73_7 1_555 1_555
C74_7 C69_7 1_555 1_555
H53_7 C74_7 1_555 1_555
N5_7 Co1_7 1_555 1_555
C81_7 N5_7 1_555 1_555
H59_7 C81_7 1_555 1_555
C3_6 O2_7 1_555 1_555
C8_6 C9_6 1_555 1_555
C14_4 C15_4 1_555 1_555
C19_4 C20_4 1_555 1_555
C22_4 C23_4 1_555 1_555
C24_4 C25_4 1_555 1_555
C27_4 C28_6 1_555 1_555
C29_6 C30_6 1_555 1_555
C32_6 C33_6 1_555 1_555
C34_6 C35_6 1_555 1_555
C38_6 O4_6 1_555 1_555
C43_4 C44_4 1_555 1_555
C49_6 C50_6 1_555 1_555
C68_7 O8_6 1_555 1_555
C73_7 C74_7 1_555 1_555
Co1_8 O1_7 1_555 1_555
O1_7 C1_7 1_555 1_555
C1_7 C2_7 1_555 1_555
C2_7 H1_4 1_555 1_555
C3_7 C2_7 1_555 1_555
C4_7 C1_7 1_555 1_555
C5_7 C4_7 1_555 1_555
H2_7 C5_7 1_555 1_555
C6_7 C5_7 1_555 1_555
H3_7 C6_7 1_555 1_555
C7_7 C6_7 1_555 1_555
H4_7 C7_7 1_555 1_555
C8_7 C7_7 1_555 1_555
H5_7 C8_7 1_555 1_555
C9_7 C4_7 1_555 1_555
H6_7 C9_7 1_555 1_555
H7_4 C11_4 1_555 1_555
C12_4 C11_4 1_555 1_555
H8_4 C12_4 1_555 1_555
N1_7 Co1_8 1_555 1_555
C16_7 N1_7 1_555 1_555
H12_7 C16_7 1_555 1_555
C17_4 C16_7 1_555 1_555
H13_7 C17_4 1_555 1_555
C18_4 C17_4 1_555 1_555
H14_4 C18_4 1_555 1_555
O8_7 Co1_8 1_555 1_555
H56_4 C78_4 1_555 1_555
C79_4 C78_4 1_555 1_555
H57_4 C79_4 1_555 1_555
C80_4 C75_4 1_555 1_555
H58_4 C80_4 1_555 1_555
H62_4 C85_4 1_555 1_555
C86_4 C87_4 1_555 1_555
C87_4 H63_4 1_555 1_555
C88_4 C84_4 1_555 1_555
C89_4 C88_4 1_555 1_555
H64_4 C89_4 1_555 1_555
H66_4 C92_4 1_555 1_555
C105_4 C104_4 1_555 1_555
H74_4 C105_4 1_555 1_555
C106_4 C105_4 1_555 1_555
H75_4 C106_4 1_555 1_555
C107_4 C106_4 1_555 1_555
H76_5 C107_4 1_555 1_555
C108_4 C107_4 1_555 1_555
H77_4 C108_4 1_555 1_555
C109_4 C104_4 1_555 1_555
H78_4 C109_4 1_555 1_555
C8_7 C9_7 1_555 1_555
C79_4 C80_4 1_555 1_555
C84_4 C85_4 1_555 1_555
C87_4 C88_4 1_555 1_555
C89_4 C90_4 1_555 1_555
C108_4 C109_4 1_555 1_555
H40_3 C57_3 1_555 1_555
C58_3 C57_3 1_555 1_555
H41_3 C58_3 1_555 1_555
Co1_9 O1_8 1_555 1_555
O1_8 C1_8 1_555 1_555
C1_8 C2_8 1_555 1_555
C2_8 H1_5 1_555 1_555
C3_8 C2_8 1_555 1_555
C4_8 C1_8 1_555 1_555
C5_8 C4_8 1_555 1_555
H2_8 C5_8 1_555 1_555
C6_8 C5_8 1_555 1_555
H3_8 C6_8 1_555 1_555
C7_8 C6_8 1_555 1_555
H4_8 C7_8 1_555 1_555
C8_8 C7_8 1_555 1_555
H5_8 C8_8 1_555 1_555
C9_8 C4_8 1_555 1_555
H6_8 C9_8 1_555 1_555
H7_5 C11_5 1_555 1_555
C12_5 C11_5 1_555 1_555
H8_5 C12_5 1_555 1_555
N1_8 Co1_9 1_555 1_555
C16_8 N1_8 1_555 1_555
H12_8 C16_8 1_555 1_555
C17_5 C16_8 1_555 1_555
H13_8 C17_5 1_555 1_555
C18_5 C17_5 1_555 1_555
H14_5 C18_5 1_555 1_555
O8_8 Co1_9 1_555 1_555
H56_5 C78_5 1_555 1_555
C79_5 C78_5 1_555 1_555
H57_5 C79_5 1_555 1_555
C80_5 C75_5 1_555 1_555
H58_5 C80_5 1_555 1_555
H62_5 C85_5 1_555 1_555
C86_5 C87_5 1_555 1_555
C87_5 H63_5 1_555 1_555
C88_5 C84_5 1_555 1_555
C89_5 C88_5 1_555 1_555
H64_5 C89_5 1_555 1_555
H66_5 C92_5 1_555 1_555
C105_5 C104_5 1_555 1_555
H74_5 C105_5 1_555 1_555
C106_5 C105_5 1_555 1_555
H75_5 C106_5 1_555 1_555
C107_5 C106_5 1_555 1_555
H76_6 C107_5 1_555 1_555
C108_5 C107_5 1_555 1_555
H77_5 C108_5 1_555 1_555
C109_5 C104_5 1_555 1_555
H78_5 C109_5 1_555 1_555
C8_8 C9_8 1_555 1_555
C79_5 C80_5 1_555 1_555
C84_5 C85_5 1_555 1_555
C87_5 C88_5 1_555 1_555
C89_5 C90_5 1_555 1_555
C108_5 C109_5 1_555 1_555
H40_4 C57_4 1_555 1_555
C58_4 C57_4 1_555 1_555
H41_4 C58_4 1_555 1_555
H87_4 C122_4 1_555 1_555
C123_4 C122_4 1_555 1_555
H88_4 C123_4 1_555 1_555
O2_8 Co1_10 1_555 1_555
H9_5 C13_5 1_555 1_555
C14_5 C13_5 1_555 1_555
H10_5 C14_5 1_555 1_555
C15_5 C10_5 1_555 1_555
H11_5 C15_5 1_555 1_555
H15_5 C20_5 1_555 1_555
C21_5 C22_5 1_555 1_555
C22_5 H16_5 1_555 1_555
C23_5 C19_5 1_555 1_555
C24_5 C23_5 1_555 1_555
H17_5 C24_5 1_555 1_555
H19_5 C27_5 1_555 1_555
C40_5 C39_5 1_555 1_555
H27_5 C40_5 1_555 1_555
C41_5 C40_5 1_555 1_555
H28_5 C41_5 1_555 1_555
C42_5 C41_5 1_555 1_555
H29_6 C42_5 1_555 1_555
C43_5 C42_5 1_555 1_555
H30_5 C43_5 1_555 1_555
C44_5 C39_5 1_555 1_555
H31_5 C44_5 1_555 1_555
O7_8 Co1_10 1_555 1_555
C66_8 O7_8 1_555 1_555
C67_8 C66_8 1_555 1_555
H48_5 C67_8 1_555 1_555
C68_8 C67_8 1_555 1_555
C69_8 C66_8 1_555 1_555
C70_8 C69_8 1_555 1_555
H49_8 C70_8 1_555 1_555
C71_8 C70_8 1_555 1_555
H50_8 C71_8 1_555 1_555
C72_8 C71_8 1_555 1_555
H51_8 C72_8 1_555 1_555
C73_8 C72_8 1_555 1_555
H52_8 C73_8 1_555 1_555
C74_8 C69_8 1_555 1_555
H53_8 C74_8 1_555 1_555
H54_5 C76_5 1_555 1_555
C77_5 C76_5 1_555 1_555
H55_5 C77_5 1_555 1_555
N5_8 Co1_10 1_555 1_555
C81_8 N5_8 1_555 1_555
H59_8 C81_8 1_555 1_555
C82_5 C81_8 1_555 1_555
H60_8 C82_5 1_555 1_555
C83_5 C82_5 1_555 1_555
H61_5 C83_5 1_555 1_555
C14_5 C15_5 1_555 1_555
C19_5 C20_5 1_555 1_555
C22_5 C23_5 1_555 1_555
C24_5 C25_5 1_555 1_555
C43_5 C44_5 1_555 1_555
C73_8 C74_8 1_555 1_555
Co1_11 O1_9 1_555 1_555
O1_9 C1_9 1_555 1_555
C1_9 C2_9 1_555 1_555
C2_9 H1_6 1_555 1_555
C3_9 C2_9 1_555 1_555
O2_9 Co1_11 1_555 1_555
C4_9 C1_9 1_555 1_555
C5_9 C4_9 1_555 1_555
H2_9 C5_9 1_555 1_555
C6_9 C5_9 1_555 1_555
H3_9 C6_9 1_555 1_555
C7_9 C6_9 1_555 1_555
H4_9 C7_9 1_555 1_555
C8_9 C7_9 1_555 1_555
H5_9 C8_9 1_555 1_555
C9_9 C4_9 1_555 1_555
H6_9 C9_9 1_555 1_555
C10_6 C3_9 1_555 1_555
C11_6 C10_6 1_555 1_555
H7_6 C11_6 1_555 1_555
C12_6 C11_6 1_555 1_555
H8_6 C12_6 1_555 1_555
C13_6 C12_6 1_555 1_555
H9_6 C13_6 1_555 1_555
C14_6 C13_6 1_555 1_555
H10_6 C14_6 1_555 1_555
C15_6 C10_6 1_555 1_555
H11_6 C15_6 1_555 1_555
N1_9 Co1_11 1_555 1_555
C16_9 N1_9 1_555 1_555
H12_9 C16_9 1_555 1_555
C17_6 C16_9 1_555 1_555
H13_9 C17_6 1_555 1_555
C18_6 C17_6 1_555 1_555
H14_6 C18_6 1_555 1_555
C19_6 C18_6 1_555 1_555
C20_6 N1_9 1_555 1_555
H15_6 C20_6 1_555 1_555
C21_6 C22_6 1_555 1_555
C22_6 H16_6 1_555 1_555
C23_6 C19_6 1_555 1_555
C24_6 C23_6 1_555 1_555
H17_6 C24_6 1_555 1_555
H19_6 C27_6 1_555 1_555
C40_6 C39_6 1_555 1_555
H27_6 C40_6 1_555 1_555
C41_6 C40_6 1_555 1_555
H28_6 C41_6 1_555 1_555
C42_6 C41_6 1_555 1_555
H29_7 C42_6 1_555 1_555
C43_6 C42_6 1_555 1_555
H30_6 C43_6 1_555 1_555
C44_6 C39_6 1_555 1_555
H31_6 C44_6 1_555 1_555
O7_9 Co1_11 1_555 1_555
C66_9 O7_9 1_555 1_555
C67_9 C66_9 1_555 1_555
H48_6 C67_9 1_555 1_555
C68_9 C67_9 1_555 1_555
O8_9 Co1_11 1_555 1_555
C69_9 C66_9 1_555 1_555
C70_9 C69_9 1_555 1_555
H49_9 C70_9 1_555 1_555
C71_9 C70_9 1_555 1_555
H50_9 C71_9 1_555 1_555
C72_9 C71_9 1_555 1_555
H51_9 C72_9 1_555 1_555
C73_9 C72_9 1_555 1_555
H52_9 C73_9 1_555 1_555
C74_9 C69_9 1_555 1_555
H53_9 C74_9 1_555 1_555
C75_6 C68_9 1_555 1_555
C76_6 C75_6 1_555 1_555
H54_6 C76_6 1_555 1_555
C77_6 C76_6 1_555 1_555
H55_6 C77_6 1_555 1_555
C78_6 C77_6 1_555 1_555
H56_6 C78_6 1_555 1_555
C79_6 C78_6 1_555 1_555
H57_6 C79_6 1_555 1_555
C80_6 C75_6 1_555 1_555
H58_6 C80_6 1_555 1_555
N5_9 Co1_11 1_555 1_555
C81_9 N5_9 1_555 1_555
H59_9 C81_9 1_555 1_555
C82_6 C81_9 1_555 1_555
H60_9 C82_6 1_555 1_555
C83_6 C82_6 1_555 1_555
H61_6 C83_6 1_555 1_555
C84_6 C83_6 1_555 1_555
C85_6 N5_9 1_555 1_555
H62_6 C85_6 1_555 1_555
C86_6 C87_6 1_555 1_555
C87_6 H63_6 1_555 1_555
C88_6 C84_6 1_555 1_555
C89_6 C88_6 1_555 1_555
H64_6 C89_6 1_555 1_555
H66_6 C92_6 1_555 1_555
C105_6 C104_6 1_555 1_555
H74_6 C105_6 1_555 1_555
C106_6 C105_6 1_555 1_555
H75_6 C106_6 1_555 1_555
C107_6 C106_6 1_555 1_555
H76_7 C107_6 1_555 1_555
C108_6 C107_6 1_555 1_555
H77_6 C108_6 1_555 1_555
C109_6 C104_6 1_555 1_555
H78_6 C109_6 1_555 1_555
C3_9 O2_9 1_555 1_555
C8_9 C9_9 1_555 1_555
C14_6 C15_6 1_555 1_555
C19_6 C20_6 1_555 1_555
C22_6 C23_6 1_555 1_555
C24_6 C25_6 1_555 1_555
C43_6 C44_6 1_555 1_555
C68_9 O8_9 1_555 1_555
C73_9 C74_9 1_555 1_555
C79_6 C80_6 1_555 1_555
C84_6 C85_6 1_555 1_555
C87_6 C88_6 1_555 1_555
C89_6 C90_6 1_555 1_555
C108_6 C109_6 1_555 1_555
C76_7 C75_7 1_555 1_555
H54_7 C76_7 1_555 1_555
C77_7 C76_7 1_555 1_555
H55_7 C77_7 1_555 1_555
C78_7 C77_7 1_555 1_555
H56_7 C78_7 1_555 1_555
C79_7 C78_7 1_555 1_555
H57_7 C79_7 1_555 1_555
C80_7 C75_7 1_555 1_555
H58_7 C80_7 1_555 1_555
C83_7 C82_7 1_555 1_555
H61_7 C83_7 1_555 1_555
C84_7 C83_7 1_555 1_555
H62_7 C85_7 1_555 1_555
N6_7 C86_7 1_555 1_555
C86_7 C87_7 1_555 1_555
C87_7 H63_7 1_555 1_555
C88_7 C84_7 1_555 1_555
C89_7 C88_7 1_555 1_555
H64_7 C89_7 1_555 1_555
C90_7 N6_7 1_555 1_555
N7_4 C91_7 1_555 1_555
C91_7 H65_7 1_555 1_555
C92_7 C91_7 1_555 1_555
H66_7 C92_7 1_555 1_555
C93_7 C86_7 1_555 1_555
C94_7 C93_7 1_555 1_555
H67_7 C94_7 1_555 1_555
C95_7 N7_4 1_555 1_555
H68_7 C95_7 1_555 1_555
N8_7 C96_7 1_555 1_555
C96_7 H69_7 1_555 1_555
C97_7 C96_7 1_555 1_555
H70_7 C97_7 1_555 1_555
C98_7 C90_7 1_555 1_555
C99_7 C98_7 1_555 1_555
H71_7 C99_7 1_555 1_555
C100_7 N8_7 1_555 1_555
H72_7 C100_7 1_555 1_555
Co3_4 N8_7 1_555 1_555
O9_7 Co3_4 1_555 1_555
C101_7 O9_7 1_555 1_555
C102_7 C101_7 1_555 1_555
H73_7 C102_7 1_555 1_555
C103_7 C102_7 1_555 1_555
O10_7 Co3_4 1_555 1_555
C104_7 C101_7 1_555 1_555
C105_7 C104_7 1_555 1_555
H74_7 C105_7 1_555 1_555
C106_7 C105_7 1_555 1_555
H75_7 C106_7 1_555 1_555
C107_7 C106_7 1_555 1_555
C108_7 C107_7 1_555 1_555
H77_7 C108_7 1_555 1_555
C109_7 C104_7 1_555 1_555
H78_7 C109_7 1_555 1_555
C110_7 C103_7 1_555 1_555
C111_7 C110_7 1_555 1_555
H79_7 C111_7 1_555 1_555
C112_7 C111_7 1_555 1_555
H80_7 C112_7 1_555 1_555
C113_7 C112_7 1_555 1_555
H81_7 C113_7 1_555 1_555
C114_7 C113_7 1_555 1_555
H82_4 C114_7 1_555 1_555
C115_7 C110_7 1_555 1_555
H83_7 C115_7 1_555 1_555
O11_7 Co3_4 1_555 1_555
C116_7 O11_7 1_555 1_555
C117_7 C116_7 1_555 1_555
H84_4 C117_7 1_555 1_555
C118_4 C117_7 1_555 1_555
O12_4 Co3_4 1_555 1_555
C119_7 C116_7 1_555 1_555
C120_5 C119_7 1_555 1_555
H85_7 C120_5 1_555 1_555
C121_5 C120_5 1_555 1_555
H86_5 C121_5 1_555 1_555
C122_5 C121_5 1_555 1_555
H87_5 C122_5 1_555 1_555
C123_5 C122_5 1_555 1_555
H88_5 C123_5 1_555 1_555
C124_5 C119_7 1_555 1_555
H89_4 C124_5 1_555 1_555
C125_4 C118_4 1_555 1_555
C126_4 C125_4 1_555 1_555
H90_4 C126_4 1_555 1_555
C127_4 C126_4 1_555 1_555
H91_4 C127_4 1_555 1_555
C128_4 C127_4 1_555 1_555
H92_4 C128_4 1_555 1_555
C129_4 C128_4 1_555 1_555
H93_4 C129_4 1_555 1_555
C130_4 C125_4 1_555 1_555
H94_4 C130_4 1_555 1_555
N9_4 Co3_4 1_555 1_555
Co4_4 N7_4 1_555 1_555
C79_7 C80_7 1_555 1_555
C84_7 C85_7 1_555 1_555
C87_7 C88_7 1_555 1_555
C89_7 C90_7 1_555 1_555
C92_7 C93_7 1_555 1_555
C94_7 C95_7 1_555 1_555
C97_7 C98_7 1_555 1_555
C99_7 C100_7 1_555 1_555
C103_7 O10_7 1_555 1_555
C108_7 C109_7 1_555 1_555
C114_7 C115_7 1_555 1_555
C118_4 O12_4 1_555 1_555
C123_5 C124_5 1_555 1_555
C129_4 C130_4 1_555 1_555
C11_7 C10_7 1_555 1_555
H7_7 C11_7 1_555 1_555
C12_7 C11_7 1_555 1_555
H8_7 C12_7 1_555 1_555
C13_7 C12_7 1_555 1_555
H9_7 C13_7 1_555 1_555
C14_7 C13_7 1_555 1_555
H10_7 C14_7 1_555 1_555
C15_7 C10_7 1_555 1_555
H11_7 C15_7 1_555 1_555
C18_7 C17_7 1_555 1_555
H14_7 C18_7 1_555 1_555
C19_7 C18_7 1_555 1_555
H15_7 C20_7 1_555 1_555
N2_7 C21_7 1_555 1_555
C21_7 C22_7 1_555 1_555
C22_7 H16_7 1_555 1_555
C23_7 C19_7 1_555 1_555
C24_7 C23_7 1_555 1_555
H17_7 C24_7 1_555 1_555
C25_7 N2_7 1_555 1_555
N9_4 C26_7 1_555 1_555
C26_7 H18_7 1_555 1_555
C27_7 C26_7 1_555 1_555
H19_7 C27_7 1_555 1_555
C28_7 C21_7 1_555 1_555
C29_7 C28_7 1_555 1_555
H20_7 C29_7 1_555 1_555
C30_7 N9_4 1_555 1_555
H21_7 C30_7 1_555 1_555
N4_7 C31_7 1_555 1_555
C31_7 H22_7 1_555 1_555
C32_7 C31_7 1_555 1_555
H23_7 C32_7 1_555 1_555
C33_7 C25_7 1_555 1_555
C34_7 C33_7 1_555 1_555
H24_7 C34_7 1_555 1_555
C35_7 N4_7 1_555 1_555
H25_7 C35_7 1_555 1_555
H30_7 C43_7 1_555 1_555
H31_7 C44_7 1_555 1_555
H34_7 C48_7 1_555 1_555
C49_7 C48_7 1_555 1_555
H35_4 C49_7 1_555 1_555
C61_4 C60_4 1_555 1_555
H43_4 C61_4 1_555 1_555
C62_4 C61_4 1_555 1_555
H44_4 C62_4 1_555 1_555
C63_4 C62_4 1_555 1_555
H45_4 C63_4 1_555 1_555
C64_4 C63_4 1_555 1_555
H46_4 C64_4 1_555 1_555
C65_4 C60_4 1_555 1_555
H47_4 C65_4 1_555 1_555
C14_7 C15_7 1_555 1_555
C19_7 C20_7 1_555 1_555
C22_7 C23_7 1_555 1_555
C24_7 C25_7 1_555 1_555
C27_7 C28_7 1_555 1_555
C29_7 C30_7 1_555 1_555
C32_7 C33_7 1_555 1_555
C34_7 C35_7 1_555 1_555
C43_7 C44_7 1_555 1_555
C64_4 C65_4 1_555 1_555
O3_7 Co4_4 1_555 1_555
C36_7 O3_7 1_555 1_555
C37_7 C36_7 1_555 1_555
H26_7 C37_7 1_555 1_555
C38_7 C37_7 1_555 1_555
O4_7 Co4_4 1_555 1_555
C39_7 C36_7 1_555 1_555
C40_7 C39_7 1_555 1_555
H27_7 C40_7 1_555 1_555
C41_7 C40_7 1_555 1_555
H28_7 C41_7 1_555 1_555
C42_7 C41_7 1_555 1_555
C45_7 C38_7 1_555 1_555
C46_7 C45_7 1_555 1_555
H32_7 C46_7 1_555 1_555
C47_7 C46_7 1_555 1_555
H33_7 C47_7 1_555 1_555
C50_7 C45_7 1_555 1_555
O5_7 Co4_4 1_555 1_555
C51_7 O5_7 1_555 1_555
C52_7 C51_7 1_555 1_555
C53_4 C52_7 1_555 1_555
O6_4 Co4_4 1_555 1_555
C54_7 C51_7 1_555 1_555
C55_5 C54_7 1_555 1_555
H38_7 C55_5 1_555 1_555
C56_5 C55_5 1_555 1_555
H39_5 C56_5 1_555 1_555
C57_5 C56_5 1_555 1_555
H40_5 C57_5 1_555 1_555
C58_5 C57_5 1_555 1_555
H41_5 C58_5 1_555 1_555
C59_5 C54_7 1_555 1_555
H42_4 C59_5 1_555 1_555
C38_7 O4_7 1_555 1_555
C53_4 O6_4 1_555 1_555
C58_5 C59_5 1_555 1_555
C60_5 C53_5 1_555 1_555
C61_5 C60_5 1_555 1_555
H43_5 C61_5 1_555 1_555
C62_5 C61_5 1_555 1_555
H44_5 C62_5 1_555 1_555
C63_5 C62_5 1_555 1_555
H45_5 C63_5 1_555 1_555
C64_5 C63_5 1_555 1_555
H46_5 C64_5 1_555 1_555
C65_5 C60_5 1_555 1_555
H47_5 C65_5 1_555 1_555
C53_5 O6_5 1_555 1_555
C64_5 C65_5 1_555 1_555
C56_6 C55_6 1_555 1_555
H39_6 C56_6 1_555 1_555
C57_6 C56_6 1_555 1_555
H40_6 C57_6 1_555 1_555
C58_6 C57_6 1_555 1_555
H41_6 C58_6 1_555 1_555
C58_6 C59_6 1_555 1_555
O9_8 Co3_5 1_555 1_555
C101_8 O9_8 1_555 1_555
C102_8 C101_8 1_555 1_555
H73_8 C102_8 1_555 1_555
C103_8 C102_8 1_555 1_555
O10_8 Co3_5 1_555 1_555
C104_8 C101_8 1_555 1_555
C105_8 C104_8 1_555 1_555
H74_8 C105_8 1_555 1_555
C106_8 C105_8 1_555 1_555
H75_8 C106_8 1_555 1_555
C107_8 C106_8 1_555 1_555
C110_8 C103_8 1_555 1_555
C111_8 C110_8 1_555 1_555
H79_8 C111_8 1_555 1_555
C112_8 C111_8 1_555 1_555
H80_8 C112_8 1_555 1_555
C115_8 C110_8 1_555 1_555
O11_8 Co3_5 1_555 1_555
C116_8 O11_8 1_555 1_555
C117_8 C116_8 1_555 1_555
C118_5 C117_8 1_555 1_555
O12_5 Co3_5 1_555 1_555
C119_8 C116_8 1_555 1_555
C120_6 C119_8 1_555 1_555
H85_8 C120_6 1_555 1_555
C121_6 C120_6 1_555 1_555
H86_6 C121_6 1_555 1_555
C122_6 C121_6 1_555 1_555
H87_6 C122_6 1_555 1_555
C123_6 C122_6 1_555 1_555
H88_6 C123_6 1_555 1_555
C124_6 C119_8 1_555 1_555
H89_5 C124_6 1_555 1_555
N9_5 Co3_5 1_555 1_555
C103_8 O10_8 1_555 1_555
C118_5 O12_5 1_555 1_555
C123_6 C124_6 1_555 1_555
C11_8 C10_8 1_555 1_555
H7_8 C11_8 1_555 1_555
C12_8 C11_8 1_555 1_555
H8_8 C12_8 1_555 1_555
C13_8 C12_8 1_555 1_555
H9_8 C13_8 1_555 1_555
C14_8 C13_8 1_555 1_555
H10_8 C14_8 1_555 1_555
C15_8 C10_8 1_555 1_555
H11_8 C15_8 1_555 1_555
C18_8 C17_8 1_555 1_555
H14_8 C18_8 1_555 1_555
C19_8 C18_8 1_555 1_555
H15_8 C20_8 1_555 1_555
N2_8 C21_8 1_555 1_555
C21_8 C22_8 1_555 1_555
C22_8 H16_8 1_555 1_555
C23_8 C19_8 1_555 1_555
C24_8 C23_8 1_555 1_555
H17_8 C24_8 1_555 1_555
C25_8 N2_8 1_555 1_555
N9_5 C26_8 1_555 1_555
C26_8 H18_8 1_555 1_555
C27_8 C26_8 1_555 1_555
H19_8 C27_8 1_555 1_555
C28_8 C21_8 1_555 1_555
C29_8 C28_8 1_555 1_555
H20_8 C29_8 1_555 1_555
C30_8 N9_5 1_555 1_555
H21_8 C30_8 1_555 1_555
N4_8 C31_8 1_555 1_555
C31_8 H22_8 1_555 1_555
C32_8 C31_8 1_555 1_555
H23_8 C32_8 1_555 1_555
C33_8 C25_8 1_555 1_555
C34_8 C33_8 1_555 1_555
H24_8 C34_8 1_555 1_555
C35_8 N4_8 1_555 1_555
H25_8 C35_8 1_555 1_555
H30_8 C43_8 1_555 1_555
H31_8 C44_8 1_555 1_555
H34_8 C48_8 1_555 1_555
C49_8 C48_8 1_555 1_555
H35_6 C49_8 1_555 1_555
C61_6 C60_6 1_555 1_555
H43_6 C61_6 1_555 1_555
C62_6 C61_6 1_555 1_555
H44_6 C62_6 1_555 1_555
C63_6 C62_6 1_555 1_555
H45_6 C63_6 1_555 1_555
C64_6 C63_6 1_555 1_555
H46_6 C64_6 1_555 1_555
C65_6 C60_6 1_555 1_555
H47_6 C65_6 1_555 1_555
C14_8 C15_8 1_555 1_555
C19_8 C20_8 1_555 1_555
C22_8 C23_8 1_555 1_555
C24_8 C25_8 1_555 1_555
C27_8 C28_8 1_555 1_555
C29_8 C30_8 1_555 1_555
C32_8 C33_8 1_555 1_555
C34_8 C35_8 1_555 1_555
C43_8 C44_8 1_555 1_555
C64_6 C65_6 1_555 1_555
C76_8 C75_8 1_555 1_555
H54_8 C76_8 1_555 1_555
C77_8 C76_8 1_555 1_555
H55_8 C77_8 1_555 1_555
C78_8 C77_8 1_555 1_555
H56_8 C78_8 1_555 1_555
C79_8 C78_8 1_555 1_555
H57_8 C79_8 1_555 1_555
C80_8 C75_8 1_555 1_555
H58_8 C80_8 1_555 1_555
C83_8 C82_8 1_555 1_555
H61_8 C83_8 1_555 1_555
C84_8 C83_8 1_555 1_555
H62_8 C85_8 1_555 1_555
N6_8 C86_8 1_555 1_555
C86_8 C87_8 1_555 1_555
C87_8 H63_8 1_555 1_555
C88_8 C84_8 1_555 1_555
C89_8 C88_8 1_555 1_555
H64_8 C89_8 1_555 1_555
C90_8 N6_8 1_555 1_555
N7_5 C91_8 1_555 1_555
C91_8 H65_8 1_555 1_555
C92_8 C91_8 1_555 1_555
H66_8 C92_8 1_555 1_555
C93_8 C86_8 1_555 1_555
C94_8 C93_8 1_555 1_555
H67_8 C94_8 1_555 1_555
C95_8 N7_5 1_555 1_555
H68_8 C95_8 1_555 1_555
N8_8 C96_8 1_555 1_555
C96_8 H69_8 1_555 1_555
C97_8 C96_8 1_555 1_555
H70_8 C97_8 1_555 1_555
C98_8 C90_8 1_555 1_555
C99_8 C98_8 1_555 1_555
H71_8 C99_8 1_555 1_555
C100_8 N8_8 1_555 1_555
H72_8 C100_8 1_555 1_555
H77_8 C108_8 1_555 1_555
H78_8 C109_8 1_555 1_555
H81_8 C113_8 1_555 1_555
C114_8 C113_8 1_555 1_555
H82_5 C114_8 1_555 1_555
C126_5 C125_5 1_555 1_555
H90_5 C126_5 1_555 1_555
C127_5 C126_5 1_555 1_555
H91_5 C127_5 1_555 1_555
C128_5 C127_5 1_555 1_555
H92_5 C128_5 1_555 1_555
C129_5 C128_5 1_555 1_555
H93_5 C129_5 1_555 1_555
C130_5 C125_5 1_555 1_555
H94_5 C130_5 1_555 1_555
Co4_5 N7_5 1_555 1_555
C79_8 C80_8 1_555 1_555
C84_8 C85_8 1_555 1_555
C87_8 C88_8 1_555 1_555
C89_8 C90_8 1_555 1_555
C92_8 C93_8 1_555 1_555
C94_8 C95_8 1_555 1_555
C97_8 C98_8 1_555 1_555
C99_8 C100_8 1_555 1_555
C108_8 C109_8 1_555 1_555
C129_5 C130_5 1_555 1_555
O9_9 Co3_6 1_555 1_555
C101_9 O9_9 1_555 1_555
C102_9 C101_9 1_555 1_555
H73_9 C102_9 1_555 1_555
C103_9 C102_9 1_555 1_555
O10_9 Co3_6 1_555 1_555
C104_9 C101_9 1_555 1_555
C105_9 C104_9 1_555 1_555
H74_9 C105_9 1_555 1_555
C106_9 C105_9 1_555 1_555
H75_9 C106_9 1_555 1_555
C107_9 C106_9 1_555 1_555
C110_9 C103_9 1_555 1_555
C111_9 C110_9 1_555 1_555
H79_9 C111_9 1_555 1_555
C112_9 C111_9 1_555 1_555
H80_9 C112_9 1_555 1_555
C115_9 C110_9 1_555 1_555
O11_9 Co3_6 1_555 1_555
C116_9 O11_9 1_555 1_555
C117_9 C116_9 1_555 1_555
C118_6 C117_9 1_555 1_555
O12_6 Co3_6 1_555 1_555
C119_9 C116_9 1_555 1_555
C120_7 C119_9 1_555 1_555
H85_9 C120_7 1_555 1_555
C121_7 C120_7 1_555 1_555
H86_7 C121_7 1_555 1_555
C122_7 C121_7 1_555 1_555
H87_7 C122_7 1_555 1_555
C123_7 C122_7 1_555 1_555
H88_7 C123_7 1_555 1_555
C124_7 C119_9 1_555 1_555
H89_6 C124_7 1_555 1_555
N9_6 Co3_6 1_555 1_555
C103_9 O10_9 1_555 1_555
C118_6 O12_6 1_555 1_555
C123_7 C124_7 1_555 1_555
C11_9 C10_9 1_555 1_555
H7_9 C11_9 1_555 1_555
C12_9 C11_9 1_555 1_555
H8_9 C12_9 1_555 1_555
C13_9 C12_9 1_555 1_555
H9_9 C13_9 1_555 1_555
C14_9 C13_9 1_555 1_555
H10_9 C14_9 1_555 1_555
C15_9 C10_9 1_555 1_555
H11_9 C15_9 1_555 1_555
C18_9 C17_9 1_555 1_555
H14_9 C18_9 1_555 1_555
C19_9 C18_9 1_555 1_555
H15_9 C20_9 1_555 1_555
N2_9 C21_9 1_555 1_555
C21_9 C22_9 1_555 1_555
C22_9 H16_9 1_555 1_555
C23_9 C19_9 1_555 1_555
C24_9 C23_9 1_555 1_555
H17_9 C24_9 1_555 1_555
C25_9 N2_9 1_555 1_555
N9_6 C26_9 1_555 1_555
C26_9 H18_9 1_555 1_555
C27_9 C26_9 1_555 1_555
H19_9 C27_9 1_555 1_555
C28_9 C21_9 1_555 1_555
C29_9 C28_9 1_555 1_555
H20_9 C29_9 1_555 1_555
C30_9 N9_6 1_555 1_555
H21_9 C30_9 1_555 1_555
N4_9 C31_9 1_555 1_555
C31_9 H22_9 1_555 1_555
C32_9 C31_9 1_555 1_555
H23_9 C32_9 1_555 1_555
C33_9 C25_9 1_555 1_555
C34_9 C33_9 1_555 1_555
H24_9 C34_9 1_555 1_555
C35_9 N4_9 1_555 1_555
H25_9 C35_9 1_555 1_555
Co4_5 N4_9 1_555 1_555
O3_8 Co4_5 1_555 1_555
C36_8 O3_8 1_555 1_555
C37_8 C36_8 1_555 1_555
H26_8 C37_8 1_555 1_555
C38_8 C37_8 1_555 1_555
O4_8 Co4_5 1_555 1_555
C39_8 C36_8 1_555 1_555
C40_8 C39_8 1_555 1_555
H27_8 C40_8 1_555 1_555
C41_8 C40_8 1_555 1_555
H28_8 C41_8 1_555 1_555
C42_8 C41_8 1_555 1_555
C43_9 C42_8 1_555 1_555
H30_9 C43_9 1_555 1_555
C44_9 C39_8 1_555 1_555
H31_9 C44_9 1_555 1_555
C45_8 C38_8 1_555 1_555
C46_8 C45_8 1_555 1_555
H32_8 C46_8 1_555 1_555
C47_8 C46_8 1_555 1_555
H33_8 C47_8 1_555 1_555
C48_9 C47_8 1_555 1_555
H34_9 C48_9 1_555 1_555
C49_9 C48_9 1_555 1_555
H35_7 C49_9 1_555 1_555
C50_8 C45_8 1_555 1_555
H36_9 C50_8 1_555 1_555
O5_8 Co4_5 1_555 1_555
C51_8 O5_8 1_555 1_555
C52_8 C51_8 1_555 1_555
H37_7 C52_8 1_555 1_555
C53_6 C52_8 1_555 1_555
O6_6 Co4_5 1_555 1_555
C54_8 C51_8 1_555 1_555
C55_7 C54_8 1_555 1_555
H38_8 C55_7 1_555 1_555
C56_7 C55_7 1_555 1_555
H39_7 C56_7 1_555 1_555
C57_7 C56_7 1_555 1_555
H40_7 C57_7 1_555 1_555
C58_7 C57_7 1_555 1_555
H41_7 C58_7 1_555 1_555
C59_7 C54_8 1_555 1_555
H42_6 C59_7 1_555 1_555
C60_7 C53_6 1_555 1_555
C61_7 C60_7 1_555 1_555
H43_7 C61_7 1_555 1_555
C62_7 C61_7 1_555 1_555
H44_7 C62_7 1_555 1_555
C63_7 C62_7 1_555 1_555
H45_7 C63_7 1_555 1_555
C64_7 C63_7 1_555 1_555
H46_7 C64_7 1_555 1_555
C65_7 C60_7 1_555 1_555
H47_7 C65_7 1_555 1_555
C14_9 C15_9 1_555 1_555
C19_9 C20_9 1_555 1_555
C22_9 C23_9 1_555 1_555
C24_9 C25_9 1_555 1_555
C27_9 C28_9 1_555 1_555
C29_9 C30_9 1_555 1_555
C32_9 C33_9 1_555 1_555
C34_9 C35_9 1_555 1_555
C38_8 O4_8 1_555 1_555
C43_9 C44_9 1_555 1_555
C49_9 C50_8 1_555 1_555
C53_6 O6_6 1_555 1_555
C58_7 C59_7 1_555 1_555
C64_7 C65_7 1_555 1_555
C60_8 C53_7 1_555 1_555
C61_8 C60_8 1_555 1_555
H43_8 C61_8 1_555 1_555
C62_8 C61_8 1_555 1_555
H44_8 C62_8 1_555 1_555
C63_8 C62_8 1_555 1_555
H45_8 C63_8 1_555 1_555
C64_8 C63_8 1_555 1_555
H46_8 C64_8 1_555 1_555
C65_8 C60_8 1_555 1_555
H47_8 C65_8 1_555 1_555
C53_7 O6_7 1_555 1_555
C64_8 C65_8 1_555 1_555
C56_8 C55_8 1_555 1_555
H39_8 C56_8 1_555 1_555
C57_8 C56_8 1_555 1_555
H40_8 C57_8 1_555 1_555
C58_8 C57_8 1_555 1_555
H41_8 C58_8 1_555 1_555
C58_8 C59_8 1_555 1_555
C76_9 C75_9 1_555 1_555
H54_9 C76_9 1_555 1_555
C77_9 C76_9 1_555 1_555
H55_9 C77_9 1_555 1_555
C78_9 C77_9 1_555 1_555
H56_9 C78_9 1_555 1_555
C79_9 C78_9 1_555 1_555
H57_9 C79_9 1_555 1_555
C80_9 C75_9 1_555 1_555
H58_9 C80_9 1_555 1_555
C83_9 C82_9 1_555 1_555
H61_9 C83_9 1_555 1_555
C84_9 C83_9 1_555 1_555
H62_9 C85_9 1_555 1_555
N6_9 C86_9 1_555 1_555
C86_9 C87_9 1_555 1_555
C87_9 H63_9 1_555 1_555
C88_9 C84_9 1_555 1_555
C89_9 C88_9 1_555 1_555
H64_9 C89_9 1_555 1_555
C90_9 N6_9 1_555 1_555
N7_6 C91_9 1_555 1_555
C91_9 H65_9 1_555 1_555
C92_9 C91_9 1_555 1_555
H66_9 C92_9 1_555 1_555
C93_9 C86_9 1_555 1_555
C94_9 C93_9 1_555 1_555
H67_9 C94_9 1_555 1_555
C95_9 N7_6 1_555 1_555
H68_9 C95_9 1_555 1_555
N8_9 C96_9 1_555 1_555
C96_9 H69_9 1_555 1_555
C97_9 C96_9 1_555 1_555
H70_9 C97_9 1_555 1_555
C98_9 C90_9 1_555 1_555
C99_9 C98_9 1_555 1_555
H71_9 C99_9 1_555 1_555
C100_9 N8_9 1_555 1_555
H72_9 C100_9 1_555 1_555
H77_9 C108_9 1_555 1_555
H78_9 C109_9 1_555 1_555
H81_9 C113_9 1_555 1_555
C114_9 C113_9 1_555 1_555
H82_6 C114_9 1_555 1_555
C126_6 C125_6 1_555 1_555
H90_6 C126_6 1_555 1_555
C127_6 C126_6 1_555 1_555
H91_6 C127_6 1_555 1_555
C128_6 C127_6 1_555 1_555
H92_6 C128_6 1_555 1_555
C129_6 C128_6 1_555 1_555
H93_6 C129_6 1_555 1_555
C130_6 C125_6 1_555 1_555
H94_6 C130_6 1_555 1_555
Co4_6 N7_6 1_555 1_555
C79_9 C80_9 1_555 1_555
C84_9 C85_9 1_555 1_555
C87_9 C88_9 1_555 1_555
C89_9 C90_9 1_555 1_555
C92_9 C93_9 1_555 1_555
C94_9 C95_9 1_555 1_555
C97_9 C98_9 1_555 1_555
C99_9 C100_9 1_555 1_555
C108_9 C109_9 1_555 1_555
C129_6 C130_6 1_555 1_555
O3_9 Co4_6 1_555 1_555
C36_9 O3_9 1_555 1_555
C37_9 C36_9 1_555 1_555
H26_9 C37_9 1_555 1_555
C38_9 C37_9 1_555 1_555
O4_9 Co4_6 1_555 1_555
C39_9 C36_9 1_555 1_555
C40_9 C39_9 1_555 1_555
H27_9 C40_9 1_555 1_555
C41_9 C40_9 1_555 1_555
H28_9 C41_9 1_555 1_555
C42_9 C41_9 1_555 1_555
C45_9 C38_9 1_555 1_555
C46_9 C45_9 1_555 1_555
H32_9 C46_9 1_555 1_555
C47_9 C46_9 1_555 1_555
H33_9 C47_9 1_555 1_555
C50_9 C45_9 1_555 1_555
O5_9 Co4_6 1_555 1_555
C51_9 O5_9 1_555 1_555
C52_9 C51_9 1_555 1_555
C53_8 C52_9 1_555 1_555
O6_8 Co4_6 1_555 1_555
C54_9 C51_9 1_555 1_555
C55_9 C54_9 1_555 1_555
H38_9 C55_9 1_555 1_555
C56_9 C55_9 1_555 1_555
H39_9 C56_9 1_555 1_555
C57_9 C56_9 1_555 1_555
H40_9 C57_9 1_555 1_555
C58_9 C57_9 1_555 1_555
H41_9 C58_9 1_555 1_555
C59_9 C54_9 1_555 1_555
H42_8 C59_9 1_555 1_555
C38_9 O4_9 1_555 1_555
C53_8 O6_8 1_555 1_555
C58_9 C59_9 1_555 1_555
C60_9 C53_9 1_555 1_555
C61_9 C60_9 1_555 1_555
H43_9 C61_9 1_555 1_555
C62_9 C61_9 1_555 1_555
H44_9 C62_9 1_555 1_555
C63_9 C62_9 1_555 1_555
H45_9 C63_9 1_555 1_555
C64_9 C63_9 1_555 1_555
H46_9 C64_9 1_555 1_555
C65_9 C60_9 1_555 1_555
H47_9 C65_9 1_555 1_555
C53_9 O6_9 1_555 1_555
C64_9 C65_9 1_555 1_555
C121_8 C120_8 1_555 1_555
H86_8 C121_8 1_555 1_555
C122_8 C121_8 1_555 1_555
H87_8 C122_8 1_555 1_555
C123_8 C122_8 1_555 1_555
H88_8 C123_8 1_555 1_555
C123_8 C124_8 1_555 1_555
C125_7 C118_7 1_555 1_555
C126_7 C125_7 1_555 1_555
H90_7 C126_7 1_555 1_555
C127_7 C126_7 1_555 1_555
H91_7 C127_7 1_555 1_555
C128_7 C127_7 1_555 1_555
H92_7 C128_7 1_555 1_555
C129_7 C128_7 1_555 1_555
H93_7 C129_7 1_555 1_555
C130_7 C125_7 1_555 1_555
H94_7 C130_7 1_555 1_555
C118_7 O12_7 1_555 1_555
C129_7 C130_7 1_555 1_555
C125_8 C118_8 1_555 1_555
C126_8 C125_8 1_555 1_555
H90_8 C126_8 1_555 1_555
C127_8 C126_8 1_555 1_555
H91_8 C127_8 1_555 1_555
C128_8 C127_8 1_555 1_555
H92_8 C128_8 1_555 1_555
C129_8 C128_8 1_555 1_555
H93_8 C129_8 1_555 1_555
C130_8 C125_8 1_555 1_555
H94_8 C130_8 1_555 1_555
C118_8 O12_8 1_555 1_555
C129_8 C130_8 1_555 1_555
C125_9 C118_9 1_555 1_555
C126_9 C125_9 1_555 1_555
H90_9 C126_9 1_555 1_555
C127_9 C126_9 1_555 1_555
H91_9 C127_9 1_555 1_555
C128_9 C127_9 1_555 1_555
H92_9 C128_9 1_555 1_555
C129_9 C128_9 1_555 1_555
H93_9 C129_9 1_555 1_555
C130_9 C125_9 1_555 1_555
H94_9 C130_9 1_555 1_555
C118_9 O12_9 1_555 1_555
C129_9 C130_9 1_555 1_555
C121_9 C120_9 1_555 1_555
H86_9 C121_9 1_555 1_555
C122_9 C121_9 1_555 1_555
H87_9 C122_9 1_555 1_555
C123_9 C122_9 1_555 1_555
H88_9 C123_9 1_555 1_555
C123_9 C124_9 1_555 1_555

#END
