
###############################################################################
#
# This file contains modified crystal structure data generated from the
# MOF subset of the Cambridge Structural Database (CSD) v543 
# hosted by the Cambridge Crystallographic Data Centre (CCDC).
#
# This work is licensed under the Creative Commons
# Attribution-NonCommercial-ShareAlike 4.0 International License.
# To view a copy of this license, visit
# http://creativecommons.org/licenses/by-nc-sa/4.0/
# or send a letter to
# Creative Commons, PO Box 1866, Mountain View, CA 94042, USA.
#
# CIF created using the CSD Python API on 29 September 2022
# The structure has been converted into the P1 space group
# The structure has a 3D framework
# The original CSD entry GIXMOR is in the tetragonal crystal system
# The original CSD entry GIXMOR is in a Sohncke space group
# The framework has been calculated to contain at least 10.0% void space
# The void calculation uses a probe of radius 1.32A, grid spacing 0.4
#
###############################################################################

data_GIXMOR
_chemical_formula_moiety         '(C112 H96 Cu8 N16 O40)n'
_symmetry_cell_setting           triclinic
_symmetry_space_group_name_H-M   'P 1'
_symmetry_Int_Tables_number      1
_space_group_name_Hall           'P 1'
loop_
_symmetry_equiv_pos_site_id
_symmetry_equiv_pos_as_xyz
1 x,y,z
_cell_length_a                   8.6027(2)
_cell_length_b                   8.6027(2)
_cell_length_c                   43.7712(10)
_cell_angle_alpha                90
_cell_angle_beta                 90
_cell_angle_gamma                90
_cell_volume                     3239.35
loop_
_atom_site_label
_atom_site_type_symbol
_atom_site_fract_x
_atom_site_fract_y
_atom_site_fract_z
Cu4 Cu 0.01466(5) 0.65045(5) 0.107561(9)
H6 H 0.2360 0.0010 0.2368
C13 C 0.3002(5) 0.0060(5) 0.29600(9)
H11 H 0.2427 0.0701 0.2824
C14 C 0.2858(5) 0.0261(5) 0.32730(9)
H12 H 0.2179 0.1044 0.3348
O7 O 0.5262(3) 0.0778(3) 0.14554(6)
Cu1 Cu 0.51466(5) 0.84955(5) 0.142439(9)
O1 O 0.5279(3) 0.6229(3) 0.14253(6)
O2 O 0.7603(3) 0.6244(3) 0.11993(7)
C1 C 0.6440(5) 0.5576(4) 0.12996(8)
C2 C 0.6306(5) 0.3798(4) 0.12789(9)
H1 H 0.5201 0.3554 0.1227
O3 O 0.7249(4) 0.3155(4) 0.10431(7)
H2 H 0.8129 0.3578 0.1046
C3 C 0.6636(6) 0.3069(4) 0.15885(9)
H3 H 0.7690 0.3371 0.1657
H4 H 0.5878 0.3461 0.1740
C4 C 0.6528(5) 0.1311(4) 0.15699(8)
O5 O 0.7616(4) 0.0464(4) 0.16514(8)
N1 N 0.4684(4) 0.8425(4) 0.18771(7)
C5 C 0.3506(5) 0.9255(5) 0.19896(9)
H5 H 0.2827 0.9760 0.1850
C6 C 0.3224(5) 0.9419(5) 0.22989(9)
C7 C 0.4224(5) 0.8705(5) 0.25106(9)
C8 C 0.5419(6) 0.7801(7) 0.23900(9)
H7 H 0.6110 0.7263 0.2522
C9 C 0.5597(6) 0.7689(7) 0.20752(9)
H8 H 0.6411 0.7056 0.1998
C10 C 0.4555(5) 0.8257(5) 0.33669(8)
H9 H 0.5086 0.7611 0.3509
C11 C 0.4758(5) 0.7986(5) 0.30561(8)
H10 H 0.5419 0.7171 0.2989
C12 C 0.3987(5) 0.8919(5) 0.28445(9)
N2 N 0.3647(4) 0.9386(4) 0.34731(7)
Cu3 Cu 0.34955(5) 0.98534(5) 0.392439(9)
O6 O 0.2603(3) 0.8756(3) 0.13007(7)
N3 N 0.5614(4) 0.8647(4) 0.09731(7)
Cu2 Cu 0.48534(5) 0.15045(5) 0.642439(9)
O1_2 O 0.4721(3) 0.3771(3) 0.64253(6)
O2_2 O 0.2397(3) 0.3756(3) 0.61993(7)
C1_2 C 0.3560(5) 0.4424(4) 0.62996(8)
C2_2 C 0.3694(5) 0.6202(4) 0.62789(9)
H1_2 H 0.4799 0.6446 0.6227
O3_2 O 0.2751(4) 0.6845(4) 0.60431(7)
H2_2 H 0.1871 0.6422 0.6046
C3_2 C 0.3364(6) 0.6931(4) 0.65885(9)
H3_2 H 0.2310 0.6629 0.6657
H4_2 H 0.4122 0.6539 0.6740
C4_2 C 0.3472(5) 0.8689(4) 0.65699(8)
O4 O 0.4738(3) 0.9222(3) 0.64554(6)
O5_2 O 0.2384(4) 0.9536(4) 0.66514(8)
N1_2 N 0.5316(4) 0.1575(4) 0.68771(7)
C5_2 C 0.6494(5) 0.0745(5) 0.69896(9)
H5_2 H 0.7173 0.0240 0.6850
C6_2 C 0.6776(5) 0.0581(5) 0.72989(9)
C7_2 C 0.5776(5) 0.1295(5) 0.75106(9)
C8_2 C 0.4581(6) 0.2199(7) 0.73900(9)
H7_2 H 0.3890 0.2737 0.7522
C9_2 C 0.4403(6) 0.2311(7) 0.70752(9)
H8_2 H 0.3589 0.2944 0.6998
C10_2 C 0.5445(5) 0.1743(5) 0.83669(8)
H9_2 H 0.4914 0.2389 0.8509
C11_2 C 0.5242(5) 0.2014(5) 0.80561(8)
H10_2 H 0.4581 0.2829 0.7989
C12_2 C 0.6013(5) 0.1081(5) 0.78445(9)
N2_2 N 0.6353(4) 0.0614(4) 0.84731(7)
Cu3_2 Cu 0.65045(5) 0.01466(5) 0.892439(9)
O6_2 O 0.7397(3) 0.1244(3) 0.63007(7)
N3_2 N 0.4386(4) 0.1353(4) 0.59731(7)
H6_2 H 0.7640 0.9990 0.7368
C13_2 C 0.6998(5) 0.9940(5) 0.79600(9)
H11_2 H 0.7573 0.9299 0.7824
C14_2 C 0.7142(5) 0.9739(5) 0.82730(9)
H12_2 H 0.7821 0.8956 0.8348
Cu4_2 Cu 0.98534(5) 0.34955(5) 0.607561(9)
C2_3 C 0.1202(4) 0.1306(5) 0.87789(9)
H1_3 H 0.1446 0.0201 0.8727
O3_3 O 0.1845(4) 0.2249(4) 0.85431(7)
H2_3 H 0.1422 0.3129 0.8546
C3_3 C 0.1931(4) 0.1636(6) 0.90885(9)
H3_3 H 0.1629 0.2690 0.9157
H4_3 H 0.1539 0.0878 0.9240
C4_3 C 0.3689(4) 0.1528(5) 0.90699(8)
O4_2 O 0.4222(3) 0.0262(3) 0.89554(6)
O5_3 O 0.4536(4) 0.2616(4) 0.91514(8)
O1_3 O 0.8771(3) 0.0279(3) 0.89253(6)
O2_3 O 0.8756(3) 0.2603(3) 0.86993(7)
C1_3 C 0.9424(4) 0.1440(5) 0.87996(8)
C8_3 C 0.7199(7) 0.0419(6) 0.98900(9)
C9_3 C 0.7311(7) 0.0597(6) 0.95752(9)
H8_3 H 0.7944 0.1411 0.9498
Cu4_3 Cu 0.84955(5) 0.51466(5) 0.857561(9)
C7_3 C 0.6295(5) 0.9224(5) 0.00106(9)
C10_3 C 0.6743(5) 0.9555(5) 0.08669(8)
C11_3 C 0.7014(5) 0.9758(5) 0.05561(8)
C12_3 C 0.6081(5) 0.8987(5) 0.03445(9)
C13_3 C 0.4940(5) 0.8002(5) 0.04600(9)
H11_3 H 0.4299 0.7427 0.0324
C14_3 C 0.4739(5) 0.7858(5) 0.07730(9)
H12_3 H 0.3956 0.7179 0.0848
N1_3 N 0.6575(4) 0.9684(4) 0.93771(7)
C5_3 C 0.5745(5) 0.8506(5) 0.94896(9)
H5_3 H 0.5240 0.7827 0.9350
C6_3 C 0.5581(5) 0.8224(5) 0.97989(9)
H6_3 H 0.4990 0.7360 0.9868
O6_3 O 0.6244(3) 0.7603(3) 0.88007(7)
N1_4 N 0.3425(4) 0.0316(4) 0.43771(7)
C5_4 C 0.4255(5) 0.1494(5) 0.44896(9)
H5_4 H 0.4760 0.2173 0.4350
C6_4 C 0.4419(5) 0.1776(5) 0.47989(9)
H6_4 H 0.5010 0.2640 0.4868
C7_4 C 0.3705(5) 0.0776(5) 0.50106(9)
C10_4 C 0.3257(5) 0.0445(5) 0.58669(8)
C11_4 C 0.2986(5) 0.0242(5) 0.55561(8)
C12_4 C 0.3919(5) 0.1013(5) 0.53445(9)
C13_4 C 0.5060(5) 0.1998(5) 0.54600(9)
H11_4 H 0.5701 0.2573 0.5324
C14_4 C 0.5261(5) 0.2142(5) 0.57730(9)
H12_4 H 0.6044 0.2821 0.5848
O6_4 O 0.3756(3) 0.2397(3) 0.38007(7)
O1_4 O 0.1229(3) 0.9721(3) 0.39253(6)
O2_4 O 0.1244(3) 0.7397(3) 0.36993(7)
C1_4 C 0.0576(4) 0.8560(5) 0.37996(8)
C8_4 C 0.2801(7) 0.9581(6) 0.48900(9)
H7_3 H 0.2263 0.8890 0.5022
C9_4 C 0.2689(7) 0.9403(6) 0.45752(9)
H8_4 H 0.2056 0.8589 0.4498
H9_3 H 0.2611 0.9914 0.6009
H10_3 H 0.2171 0.9581 0.5489
Cu4_4 Cu 0.15045(5) 0.48534(5) 0.357561(9)
O7_2 O 0.5778(3) 0.9738(3) 0.39554(6)
C2_4 C 0.8798(4) 0.8694(5) 0.37789(9)
H1_4 H 0.8554 0.9799 0.3727
O3_4 O 0.8155(4) 0.7751(4) 0.35431(7)
H2_4 H 0.8578 0.6871 0.3546
C3_4 C 0.8069(4) 0.8364(6) 0.40885(9)
H3_4 H 0.8371 0.7310 0.4157
H4_4 H 0.8461 0.9122 0.4240
C4_4 C 0.6311(4) 0.8472(5) 0.40699(8)
O5_4 O 0.5464(4) 0.7384(4) 0.41514(8)
N1_5 N 0.0316(4) 0.3425(4) 0.56229(7)
C5_5 C 0.1494(5) 0.4255(5) 0.55104(9)
H5_5 H 0.2173 0.4760 0.5650
C6_5 C 0.1776(5) 0.4419(5) 0.52011(9)
H6_5 H 0.2640 0.5010 0.5132
C7_5 C 0.0776(5) 0.3705(5) 0.49894(9)
C10_5 C 0.0445(5) 0.3257(5) 0.41331(8)
C11_5 C 0.0242(5) 0.2986(5) 0.44439(8)
C12_5 C 0.1013(5) 0.3919(5) 0.46555(9)
C13_5 C 0.1998(5) 0.5060(5) 0.45400(9)
H11_5 H 0.2573 0.5701 0.4676
C14_5 C 0.2142(5) 0.5261(5) 0.42270(9)
H12_5 H 0.2821 0.6044 0.4152
N2_3 N 0.1353(4) 0.4386(4) 0.40269(7)
O1_5 O 0.9721(3) 0.1229(3) 0.60747(6)
C1_5 C 0.8560(5) 0.0576(4) 0.62004(8)
C8_5 C 0.9581(6) 0.2801(7) 0.51100(9)
H7_4 H 0.8890 0.2263 0.4978
C9_5 C 0.9403(6) 0.2689(7) 0.54248(9)
H8_5 H 0.8589 0.2056 0.5502
H9_4 H 0.9914 0.2611 0.3991
H10_4 H 0.9581 0.2171 0.4511
O7_3 O 0.9738(3) 0.5778(3) 0.60446(6)
N3_3 N 0.9386(4) 0.3647(4) 0.65269(7)
C2_5 C 0.8694(5) 0.8798(4) 0.62211(9)
H1_5 H 0.9799 0.8554 0.6273
O3_5 O 0.7751(4) 0.8155(4) 0.64569(7)
H2_5 H 0.6871 0.8578 0.6454
C3_5 C 0.8364(6) 0.8069(4) 0.59115(9)
H3_5 H 0.7310 0.8371 0.5843
H4_5 H 0.9122 0.8461 0.5760
C4_5 C 0.8472(5) 0.6311(4) 0.59301(8)
O5_5 O 0.7384(4) 0.5464(4) 0.58486(8)
C2_6 C 0.1306(5) 0.1202(4) 0.12211(9)
H1_6 H 0.0201 0.1446 0.1273
O3_6 O 0.2249(4) 0.1845(4) 0.14569(7)
H2_6 H 0.3129 0.1422 0.1454
C3_6 C 0.1636(6) 0.1931(4) 0.09115(9)
H3_6 H 0.2690 0.1629 0.0843
H4_6 H 0.0878 0.1539 0.0760
C4_6 C 0.1528(5) 0.3689(4) 0.09301(8)
O4_3 O 0.0262(3) 0.4222(3) 0.10446(6)
O5_6 O 0.2616(4) 0.4536(4) 0.08486(8)
O1_6 O 0.0279(3) 0.8771(3) 0.10747(6)
C1_6 C 0.1440(5) 0.9424(4) 0.12004(8)
C8_6 C 0.0419(6) 0.7199(7) 0.01100(9)
C9_6 C 0.0597(6) 0.7311(7) 0.04248(9)
H8_6 H 0.1411 0.7944 0.0502
N3_4 N 0.0614(4) 0.6353(4) 0.15269(7)
N1_6 N 0.9684(4) 0.6575(4) 0.06229(7)
C5_6 C 0.8506(5) 0.5745(5) 0.05104(9)
H5_6 H 0.7827 0.5240 0.0650
C6_6 C 0.8224(5) 0.5581(5) 0.02011(9)
H6_6 H 0.7360 0.4990 0.0132
C7_6 C 0.9224(5) 0.6295(5) 0.99894(9)
C10_6 C 0.9555(5) 0.6743(5) 0.91331(8)
C11_6 C 0.9758(5) 0.7014(5) 0.94439(8)
C12_6 C 0.8987(5) 0.6081(5) 0.96555(9)
C13_6 C 0.8002(5) 0.4940(5) 0.95400(9)
H11_6 H 0.7427 0.4299 0.9676
C14_6 C 0.7858(5) 0.4739(5) 0.92270(9)
H12_6 H 0.7179 0.3956 0.9152
N2_4 N 0.8647(4) 0.5614(4) 0.90269(7)
H6_7 H 0.0010 0.2360 0.7632
C13_7 C 0.0060(5) 0.3002(5) 0.70400(9)
H11_7 H 0.0701 0.2427 0.7176
C14_7 C 0.0261(5) 0.2858(5) 0.67270(9)
H12_7 H 0.1044 0.2179 0.6652
O7_4 O 0.0778(3) 0.5262(3) 0.85446(6)
O1_7 O 0.6229(3) 0.5279(3) 0.85747(6)
C1_7 C 0.5576(4) 0.6440(5) 0.87004(8)
C2_7 C 0.3798(4) 0.6306(5) 0.87211(9)
H1_7 H 0.3554 0.5201 0.8773
O3_7 O 0.3155(4) 0.7249(4) 0.89569(7)
H2_7 H 0.3578 0.8129 0.8954
C3_7 C 0.3069(4) 0.6636(6) 0.84115(9)
H3_7 H 0.3371 0.7690 0.8343
H4_7 H 0.3461 0.5878 0.8260
C4_7 C 0.1311(4) 0.6528(5) 0.84301(8)
O5_7 O 0.0464(4) 0.7616(4) 0.83486(8)
N1_7 N 0.8425(4) 0.4684(4) 0.81229(7)
C5_7 C 0.9255(5) 0.3506(5) 0.80104(9)
H5_7 H 0.9760 0.2827 0.8150
C6_7 C 0.9419(5) 0.3224(5) 0.77011(9)
C7_7 C 0.8705(5) 0.4224(5) 0.74894(9)
C8_7 C 0.7801(7) 0.5419(6) 0.76100(9)
H7_5 H 0.7263 0.6110 0.7478
C9_7 C 0.7689(7) 0.5597(6) 0.79248(9)
H8_7 H 0.7056 0.6411 0.8002
C10_7 C 0.8257(5) 0.4555(5) 0.66331(8)
H9_5 H 0.7611 0.5086 0.6491
C11_7 C 0.7986(5) 0.4758(5) 0.69439(8)
H10_5 H 0.7171 0.5419 0.7011
C12_7 C 0.8919(5) 0.3987(5) 0.71555(9)
O1_8 O 0.3771(3) 0.4721(3) 0.35747(6)
C1_8 C 0.4424(4) 0.3560(5) 0.37004(8)
C2_8 C 0.6202(4) 0.3694(5) 0.37211(9)
H1_8 H 0.6446 0.4799 0.3773
O3_8 O 0.6845(4) 0.2751(4) 0.39569(7)
H2_8 H 0.6422 0.1871 0.3954
C3_8 C 0.6931(4) 0.3364(6) 0.34115(9)
H3_8 H 0.6629 0.2310 0.3343
H4_8 H 0.6539 0.4122 0.3260
C4_8 C 0.8689(4) 0.3472(5) 0.34301(8)
O4_4 O 0.9222(3) 0.4738(3) 0.35446(6)
O5_8 O 0.9536(4) 0.2384(4) 0.33486(8)
N1_8 N 0.1575(4) 0.5316(4) 0.31229(7)
C5_8 C 0.0745(5) 0.6494(5) 0.30104(9)
H5_8 H 0.0240 0.7173 0.3150
C6_8 C 0.0581(5) 0.6776(5) 0.27011(9)
C7_8 C 0.1295(5) 0.5776(5) 0.24894(9)
C8_8 C 0.2199(7) 0.4581(6) 0.26100(9)
H7_6 H 0.2737 0.3890 0.2478
C9_8 C 0.2311(7) 0.4403(6) 0.29248(9)
H8_8 H 0.2944 0.3589 0.3002
C10_8 C 0.1743(5) 0.5445(5) 0.16331(8)
H9_6 H 0.2389 0.4914 0.1491
C11_8 C 0.2014(5) 0.5242(5) 0.19439(8)
H10_6 H 0.2829 0.4581 0.2011
C12_8 C 0.1081(5) 0.6013(5) 0.21555(9)
H6_8 H 0.9990 0.7640 0.2632
C13_8 C 0.9940(5) 0.6998(5) 0.20400(9)
H11_8 H 0.9299 0.7573 0.2176
C14_8 C 0.9739(5) 0.7142(5) 0.17270(9)
H12_8 H 0.8956 0.7821 0.1652
H7_7 H 0.7737 0.1110 0.0022
H9_7 H 0.7389 0.0086 0.1009
H10_7 H 0.7829 0.0419 0.0489
H7_8 H 0.1110 0.7737 0.9978
H9_8 H 0.0086 0.7389 0.8991
H10_8 H 0.0419 0.7829 0.9511
loop_
_geom_bond_atom_site_label_1
_geom_bond_atom_site_label_2
_geom_bond_site_symmetry_1
_geom_bond_site_symmetry_2
H11 C13 1_555 1_555
C14 C13 1_555 1_555
H12 C14 1_555 1_555
Cu1 O1 1_555 1_555
O1 C1 1_555 1_555
O2 C1 1_555 1_555
C1 C2 1_555 1_555
C2 H1 1_555 1_555
O3 C2 1_555 1_555
H2 O3 1_555 1_555
C3 C2 1_555 1_555
H3 C3 1_555 1_555
H4 C3 1_555 1_555
C4 C3 1_555 1_555
O7 C4 1_555 1_555
O5 C4 1_555 1_555
N1 Cu1 1_555 1_555
C5 N1 1_555 1_555
H5 C5 1_555 1_555
C6 C5 1_555 1_555
C7 C6 1_555 1_555
C8 C7 1_555 1_555
H7 C8 1_555 1_555
C9 N1 1_555 1_555
H8 C9 1_555 1_555
C10 H9 1_555 1_555
C11 C10 1_555 1_555
H10 C11 1_555 1_555
C12 C7 1_555 1_555
N2 C10 1_555 1_555
Cu3 N2 1_555 1_555
O6 Cu1 1_555 1_555
N3 Cu1 1_555 1_555
C8 C9 1_555 1_555
C11 C12 1_555 1_555
Cu2 O1_2 1_555 1_555
O1_2 C1_2 1_555 1_555
O2_2 C1_2 1_555 1_555
C1_2 C2_2 1_555 1_555
C2_2 H1_2 1_555 1_555
O3_2 C2_2 1_555 1_555
H2_2 O3_2 1_555 1_555
C3_2 C2_2 1_555 1_555
H3_2 C3_2 1_555 1_555
H4_2 C3_2 1_555 1_555
C4_2 C3_2 1_555 1_555
O4 C4_2 1_555 1_555
O5_2 C4_2 1_555 1_555
N1_2 Cu2 1_555 1_555
C5_2 N1_2 1_555 1_555
H5_2 C5_2 1_555 1_555
C6_2 C5_2 1_555 1_555
C7_2 C6_2 1_555 1_555
C8_2 C7_2 1_555 1_555
H7_2 C8_2 1_555 1_555
C9_2 N1_2 1_555 1_555
H8_2 C9_2 1_555 1_555
C10_2 H9_2 1_555 1_555
C11_2 C10_2 1_555 1_555
H10_2 C11_2 1_555 1_555
C12_2 C7_2 1_555 1_555
N2_2 C10_2 1_555 1_555
Cu3_2 N2_2 1_555 1_555
O6_2 Cu2 1_555 1_555
N3_2 Cu2 1_555 1_555
C8_2 C9_2 1_555 1_555
C11_2 C12_2 1_555 1_555
H11_2 C13_2 1_555 1_555
C14_2 C13_2 1_555 1_555
H12_2 C14_2 1_555 1_555
C2_3 H1_3 1_555 1_555
O3_3 C2_3 1_555 1_555
H2_3 O3_3 1_555 1_555
C3_3 C2_3 1_555 1_555
H3_3 C3_3 1_555 1_555
H4_3 C3_3 1_555 1_555
C4_3 C3_3 1_555 1_555
O4_2 C4_3 1_555 1_555
O5_3 C4_3 1_555 1_555
Cu3_2 O4_2 1_555 1_555
Cu3_2 O1_3 1_555 1_555
O1_3 C1_3 1_555 1_555
O2_3 C1_3 1_555 1_555
H8_3 C9_3 1_555 1_555
Cu4_3 O2_3 1_555 1_555
C8_3 C9_3 1_555 1_555
C11_3 C10_3 1_555 1_555
C12_3 C7_3 1_555 1_555
C13_3 C12_3 1_555 1_555
H11_3 C13_3 1_555 1_555
C14_3 C13_3 1_555 1_555
H12_3 C14_3 1_555 1_555
N3 C10_3 1_555 1_555
C11_3 C12_3 1_555 1_555
C14_3 N3 1_555 1_555
C5_3 N1_3 1_555 1_555
H5_3 C5_3 1_555 1_555
C6_3 C5_3 1_555 1_555
H6_3 C6_3 1_555 1_555
C5_4 N1_4 1_555 1_555
H5_4 C5_4 1_555 1_555
C6_4 C5_4 1_555 1_555
H6_4 C6_4 1_555 1_555
C7_4 C6_4 1_555 1_555
C11_4 C10_4 1_555 1_555
C12_4 C7_4 1_555 1_555
C13_4 C12_4 1_555 1_555
H11_4 C13_4 1_555 1_555
C14_4 C13_4 1_555 1_555
H12_4 C14_4 1_555 1_555
N3_2 C10_4 1_555 1_555
C11_4 C12_4 1_555 1_555
C14_4 N3_2 1_555 1_555
Cu3 O1_4 1_555 1_555
O1_4 C1_4 1_555 1_555
O2_4 C1_4 1_555 1_555
H7_3 C8_4 1_555 1_555
H8_4 C9_4 1_555 1_555
Cu4_4 O2_4 1_555 1_555
O7_2 Cu3 1_555 1_555
C8_4 C9_4 1_555 1_555
C2_4 H1_4 1_555 1_555
O3_4 C2_4 1_555 1_555
H2_4 O3_4 1_555 1_555
C3_4 C2_4 1_555 1_555
H3_4 C3_4 1_555 1_555
H4_4 C3_4 1_555 1_555
C4_4 C3_4 1_555 1_555
O7_2 C4_4 1_555 1_555
O5_4 C4_4 1_555 1_555
C5_5 N1_5 1_555 1_555
H5_5 C5_5 1_555 1_555
C6_5 C5_5 1_555 1_555
H6_5 C6_5 1_555 1_555
C7_5 C6_5 1_555 1_555
C11_5 C10_5 1_555 1_555
C12_5 C7_5 1_555 1_555
C13_5 C12_5 1_555 1_555
H11_5 C13_5 1_555 1_555
C14_5 C13_5 1_555 1_555
H12_5 C14_5 1_555 1_555
N2_3 C10_5 1_555 1_555
Cu4_4 N2_3 1_555 1_555
C11_5 C12_5 1_555 1_555
C14_5 N2_3 1_555 1_555
Cu4_2 O1_5 1_555 1_555
O1_5 C1_5 1_555 1_555
O6_2 C1_5 1_555 1_555
H7_4 C8_5 1_555 1_555
H8_5 C9_5 1_555 1_555
O7_3 Cu4_2 1_555 1_555
N3_3 Cu4_2 1_555 1_555
C8_5 C9_5 1_555 1_555
C2_5 H1_5 1_555 1_555
O3_5 C2_5 1_555 1_555
H2_5 O3_5 1_555 1_555
C3_5 C2_5 1_555 1_555
H3_5 C3_5 1_555 1_555
H4_5 C3_5 1_555 1_555
C4_5 C3_5 1_555 1_555
O7_3 C4_5 1_555 1_555
O5_5 C4_5 1_555 1_555
C2_6 H1_6 1_555 1_555
O3_6 C2_6 1_555 1_555
H2_6 O3_6 1_555 1_555
C3_6 C2_6 1_555 1_555
H3_6 C3_6 1_555 1_555
H4_6 C3_6 1_555 1_555
C4_6 C3_6 1_555 1_555
O4_3 C4_6 1_555 1_555
O5_6 C4_6 1_555 1_555
Cu4 O4_3 1_555 1_555
Cu4 O1_6 1_555 1_555
O1_6 C1_6 1_555 1_555
O6 C1_6 1_555 1_555
H8_6 C9_6 1_555 1_555
N3_4 Cu4 1_555 1_555
C8_6 C9_6 1_555 1_555
C5_6 N1_6 1_555 1_555
H5_6 C5_6 1_555 1_555
C6_6 C5_6 1_555 1_555
H6_6 C6_6 1_555 1_555
C11_6 C10_6 1_555 1_555
C12_6 C7_6 1_555 1_555
C13_6 C12_6 1_555 1_555
H11_6 C13_6 1_555 1_555
C14_6 C13_6 1_555 1_555
H12_6 C14_6 1_555 1_555
N2_4 C10_6 1_555 1_555
Cu4_3 N2_4 1_555 1_555
C11_6 C12_6 1_555 1_555
C14_6 N2_4 1_555 1_555
H11_7 C13_7 1_555 1_555
C14_7 C13_7 1_555 1_555
H12_7 C14_7 1_555 1_555
Cu4_3 O1_7 1_555 1_555
O1_7 C1_7 1_555 1_555
O6_3 C1_7 1_555 1_555
C1_7 C2_7 1_555 1_555
C2_7 H1_7 1_555 1_555
O3_7 C2_7 1_555 1_555
H2_7 O3_7 1_555 1_555
C3_7 C2_7 1_555 1_555
H3_7 C3_7 1_555 1_555
H4_7 C3_7 1_555 1_555
C4_7 C3_7 1_555 1_555
O7_4 C4_7 1_555 1_555
O5_7 C4_7 1_555 1_555
N1_7 Cu4_3 1_555 1_555
C5_7 N1_7 1_555 1_555
H5_7 C5_7 1_555 1_555
C6_7 C5_7 1_555 1_555
C7_7 C6_7 1_555 1_555
C8_7 C7_7 1_555 1_555
H7_5 C8_7 1_555 1_555
C9_7 N1_7 1_555 1_555
H8_7 C9_7 1_555 1_555
C10_7 H9_5 1_555 1_555
C11_7 C10_7 1_555 1_555
H10_5 C11_7 1_555 1_555
C12_7 C7_7 1_555 1_555
N3_3 C10_7 1_555 1_555
C8_7 C9_7 1_555 1_555
C11_7 C12_7 1_555 1_555
Cu4_4 O1_8 1_555 1_555
O1_8 C1_8 1_555 1_555
O6_4 C1_8 1_555 1_555
C1_8 C2_8 1_555 1_555
C2_8 H1_8 1_555 1_555
O3_8 C2_8 1_555 1_555
H2_8 O3_8 1_555 1_555
C3_8 C2_8 1_555 1_555
H3_8 C3_8 1_555 1_555
H4_8 C3_8 1_555 1_555
C4_8 C3_8 1_555 1_555
O4_4 C4_8 1_555 1_555
O5_8 C4_8 1_555 1_555
N1_8 Cu4_4 1_555 1_555
C5_8 N1_8 1_555 1_555
H5_8 C5_8 1_555 1_555
C6_8 C5_8 1_555 1_555
C7_8 C6_8 1_555 1_555
C8_8 C7_8 1_555 1_555
H7_6 C8_8 1_555 1_555
C9_8 N1_8 1_555 1_555
H8_8 C9_8 1_555 1_555
C10_8 H9_6 1_555 1_555
C11_8 C10_8 1_555 1_555
H10_6 C11_8 1_555 1_555
C12_8 C7_8 1_555 1_555
N3_4 C10_8 1_555 1_555
C8_8 C9_8 1_555 1_555
C11_8 C12_8 1_555 1_555
H11_8 C13_8 1_555 1_555
C14_8 C13_8 1_555 1_555
H12_8 C14_8 1_555 1_555

#END
