
###############################################################################
#
# This file contains modified crystal structure data generated from the
# MOF subset of the Cambridge Structural Database (CSD) v543 
# hosted by the Cambridge Crystallographic Data Centre (CCDC).
#
# This work is licensed under the Creative Commons
# Attribution-NonCommercial-ShareAlike 4.0 International License.
# To view a copy of this license, visit
# http://creativecommons.org/licenses/by-nc-sa/4.0/
# or send a letter to
# Creative Commons, PO Box 1866, Mountain View, CA 94042, USA.
#
# CIF created using the CSD Python API on 29 September 2022
# The structure has been converted into the P1 space group
# The structure has a 3D framework
# The original CSD entry GIXMUX is in the orthorhombic crystal system
# The original CSD entry GIXMUX is in a Sohncke space group
# The framework has been calculated to contain at least 10.0% void space
# The void calculation uses a probe of radius 1.32A, grid spacing 0.4
#
###############################################################################

data_GIXMUX
_chemical_formula_moiety         '(C128 H112 Cu7 N16 O39)n'
_symmetry_cell_setting           triclinic
_symmetry_space_group_name_H-M   'P 1'
_symmetry_Int_Tables_number      1
_space_group_name_Hall           'P 1'
loop_
_symmetry_equiv_pos_site_id
_symmetry_equiv_pos_as_xyz
1 x,y,z
_cell_length_a                   8.5911(3)
_cell_length_b                   8.5872(3)
_cell_length_c                   52.7295(15)
_cell_angle_alpha                90
_cell_angle_beta                 90
_cell_angle_gamma                90
_cell_volume                     3890.04
loop_
_atom_site_label
_atom_site_type_symbol
_atom_site_fract_x
_atom_site_fract_y
_atom_site_fract_z
Cu2 Cu 0.18384(11) 0.15471(10) 0.487586(15)
C12 C 0.3190(9) 0.0722(8) 0.66085(12)
H11 H 0.2558 0.1539 0.6544
C13 C 0.3301(9) 0.0473(9) 0.68696(12)
H12 H 0.2722 0.1131 0.6979
C15 C 0.2963(8) 0.0902(9) 0.60465(12)
H14 H 0.2377 0.1601 0.6148
C16 C 0.2797(7) 0.1026(9) 0.57686(12)
C17 C 0.3708(7) 0.0252(8) 0.55939(12)
C18 C 0.3436(7) 0.0440(7) 0.53410(11)
C19 C 0.1460(8) 0.2155(8) 0.54151(13)
H17 H 0.0675 0.2831 0.5352
C20 C 0.1664(9) 0.2046(9) 0.56747(13)
H18 H 0.1046 0.2651 0.5787
N2 N 0.2312(5) 0.1359(6) 0.52499(8)
H19 H 0.5576 0.0129 0.7811
O12 O 0.3708(5) 0.1545(5) 0.74392(8)
O13 O 0.1861(5) 0.3813(4) 0.48886(8)
N5 N 0.1444(7) 0.1671(7) 0.44986(9)
Cu1 Cu 0.40519(10) 0.89784(11) 0.734822(15)
O1 O 0.1756(5) 0.8821(5) 0.73205(7)
O2 O 0.2014(6) 0.6499(6) 0.71399(10)
C1 C 0.1201(7) 0.7570(8) 0.72241(12)
O6 O 0.2010(5) 0.9262(5) 0.48469(7)
O7 O 0.4318(6) 0.9526(6) 0.46595(9)
C5 C 0.3245(7) 0.8718(6) 0.47429(10)
C6 C 0.3352(9) 0.6940(8) 0.47373(12)
H5 H 0.2604 0.6529 0.4611
H6 H 0.4412 0.6630 0.4683
C7 C 0.3008(8) 0.6234(7) 0.49929(11)
H7 H 0.1917 0.6515 0.5040
O8 O 0.4023(6) 0.6849(5) 0.51832(8)
H8 H 0.4503 0.6116 0.5254
C8 C 0.3107(9) 0.4479(7) 0.49762(11)
O10 O 0.4304(5) 0.3770(5) 0.50361(8)
N1 N 0.4171(7) 0.9367(6) 0.69721(9)
C9 C 0.5030(9) 0.8492(10) 0.68151(11)
H9 H 0.5719 0.7743 0.6885
C10 C 0.4948(10) 0.8639(11) 0.65554(12)
H10 H 0.5543 0.7960 0.6451
C11 C 0.4020(9) 0.9753(9) 0.64432(12)
C14 C 0.3896(10) 0.9857(10) 0.61673(13)
H13 H 0.4497 0.9161 0.6067
H15 H 0.4525 0.9589 0.5650
H16 H 0.4075 0.9892 0.5224
N3 N 0.3917(7) 0.8626(7) 0.77227(8)
C21 C 0.4832(8) 0.9430(8) 0.78807(12)
C22 C 0.4733(10) 0.9279(10) 0.81419(15)
H20 H 0.5397 0.9872 0.8249
C23 C 0.3641(9) 0.8240(12) 0.82484(15)
C24 C 0.2786(10) 0.7376(11) 0.80841(14)
H21 H 0.2077 0.6628 0.8149
C25 C 0.2916(8) 0.7554(9) 0.78229(12)
H22 H 0.2304 0.6926 0.7713
C26 C 0.3442(13) 0.7962(12) 0.85186(15)
H23 H 0.2675 0.7226 0.8568
C27 C 0.4231(12) 0.8641(12) 0.86969(16)
H24 H 0.5050 0.9319 0.8647
C28 C 0.3947(14) 0.8435(12) 0.89730(15)
C29 C 0.2819(12) 0.7480(11) 0.90817(14)
H25 H 0.2161 0.6867 0.8977
C30 C 0.2657(9) 0.7423(10) 0.93461(12)
H26 H 0.1910 0.6744 0.9420
C31 C 0.4644(9) 0.9218(8) 0.93913(12)
H27 H 0.5287 0.9834 0.9498
C32 C 0.4883(12) 0.9287(10) 0.91304(13)
H28 H 0.5688 0.9920 0.9062
N4 N 0.3556(7) 0.8329(7) 0.94986(9)
O11 O 0.6319(4) 0.8817(5) 0.73521(8)
Cu6 Cu 0.31616(11) 0.84529(10) 0.987586(15)
Cu7 Cu 0.68384(11) 0.34529(10) 0.512414(15)
O14 O 0.9304(5) 0.1230(5) 0.49639(8)
C2 C 0.9410(7) 0.7481(9) 0.72180(12)
H1 H 0.9002 0.8253 0.7096
H2 H 0.9084 0.6432 0.7161
C3 C 0.8733(6) 0.7807(8) 0.74818(11)
H3 H 0.8993 0.8906 0.7528
O3 O 0.9392(5) 0.6821(6) 0.76670(9)
H4 H 0.9002 0.7024 0.7809
C4 C 0.6953(7) 0.7668(7) 0.74677(10)
O5 O 0.6292(5) 0.6545(5) 0.75608(8)
Cu4 Cu 0.59481(10) 0.39784(11) 0.765178(15)
Cu3 Cu 0.09481(10) 0.10216(11) 0.234822(15)
O1_2 O 0.3244(5) 0.1179(5) 0.23205(7)
O2_2 O 0.2986(6) 0.3501(6) 0.21399(10)
C1_2 C 0.3799(7) 0.2430(8) 0.22241(12)
C2_2 C 0.5590(7) 0.2519(9) 0.22180(12)
H1_2 H 0.5998 0.1747 0.2096
H2_2 H 0.5916 0.3568 0.2161
C3_2 C 0.6267(6) 0.2193(8) 0.24818(11)
H3_2 H 0.6007 0.1094 0.2528
O3_2 O 0.5608(5) 0.3179(6) 0.26670(9)
H4_2 H 0.5998 0.2976 0.2809
C4_2 C 0.8047(7) 0.2332(7) 0.24677(10)
O4 O 0.8681(4) 0.1183(5) 0.23521(8)
O5_2 O 0.8708(5) 0.3455(5) 0.25608(8)
H7_2 H 0.3083 0.3485 0.0040
O8_2 O 0.0977(6) 0.3151(5) 0.01832(8)
H8_2 H 0.0497 0.3884 0.0254
O10_2 O 0.0696(5) 0.6230(5) 0.00361(8)
N1_2 N 0.0829(7) 0.0633(6) 0.19721(9)
C10_2 C 0.0052(10) 0.1361(11) 0.15554(12)
C11_2 C 0.0980(9) 0.0247(9) 0.14432(12)
C14_2 C 0.1104(10) 0.0143(10) 0.11673(13)
H13_2 H 0.0503 0.0839 0.1067
H15_2 H 0.0475 0.0411 0.0650
H16_2 H 0.0925 0.0108 0.0224
N3_2 N 0.1083(7) 0.1374(7) 0.27227(8)
C21_2 C 0.0168(8) 0.0570(8) 0.28807(12)
C22_2 C 0.0267(10) 0.0721(10) 0.31419(15)
C23_2 C 0.1359(9) 0.1760(12) 0.32484(15)
C24_2 C 0.2214(10) 0.2624(11) 0.30841(14)
H21_2 H 0.2923 0.3372 0.3149
C25_2 C 0.2084(8) 0.2446(9) 0.28229(12)
H22_2 H 0.2696 0.3074 0.2713
C26_2 C 0.1558(13) 0.2038(12) 0.35186(15)
H23_2 H 0.2325 0.2774 0.3568
C27_2 C 0.0769(12) 0.1359(12) 0.36969(16)
C28_2 C 0.1053(14) 0.1565(12) 0.39730(15)
C29_2 C 0.2181(12) 0.2520(11) 0.40817(14)
H25_2 H 0.2839 0.3133 0.3977
C30_2 C 0.2343(9) 0.2577(10) 0.43461(12)
H26_2 H 0.3090 0.3256 0.4420
C31_2 C 0.0356(9) 0.0782(8) 0.43913(12)
C32_2 C 0.0117(12) 0.0713(10) 0.41304(13)
Cu4_2 Cu 0.90519(10) 0.60216(11) 0.265178(15)
O6_2 O 0.2990(5) 0.0738(5) 0.98469(7)
O7_2 O 0.0682(6) 0.0474(6) 0.96595(9)
C5_2 C 0.1755(7) 0.1282(6) 0.97429(10)
C6_2 C 0.1648(9) 0.3060(8) 0.97373(12)
H5_2 H 0.2396 0.3471 0.9611
H6_2 H 0.0588 0.3370 0.9683
C7_2 C 0.1992(8) 0.3766(7) 0.99929(11)
C8_2 C 0.1893(9) 0.5521(7) 0.99762(11)
O9 O 0.3139(5) 0.6187(4) 0.98886(8)
C12_2 C 0.1810(9) 0.9278(8) 0.16085(12)
H11_2 H 0.2442 0.8461 0.1544
C13_2 C 0.1699(9) 0.9527(9) 0.18696(12)
H12_2 H 0.2278 0.8869 0.1979
C15_2 C 0.2037(8) 0.9098(9) 0.10465(12)
H14_2 H 0.2623 0.8399 0.1148
C16_2 C 0.2203(7) 0.8974(9) 0.07686(12)
C17_2 C 0.1292(7) 0.9748(8) 0.05939(12)
C18_2 C 0.1564(7) 0.9560(7) 0.03410(11)
C19_2 C 0.3540(8) 0.7845(8) 0.04151(13)
H17_2 H 0.4325 0.7169 0.0352
C20_2 C 0.3336(9) 0.7954(9) 0.06747(13)
H18_2 H 0.3954 0.7349 0.0787
N2_2 N 0.2688(5) 0.8641(6) 0.02499(8)
O12_2 O 0.1292(5) 0.8455(5) 0.24392(8)
O14_2 O 0.5696(5) 0.8770(5) 0.99639(8)
C9_2 C 0.9970(9) 0.1508(10) 0.18151(11)
H9_2 H 0.9281 0.2257 0.1885
H10_2 H 0.9457 0.2040 0.1451
H20_2 H 0.9603 0.0128 0.3249
H24_2 H 0.9950 0.0681 0.3647
H27_2 H 0.9713 0.0166 0.4498
H28_2 H 0.9312 0.0080 0.4062
Cu7_2 Cu 0.81616(11) 0.65471(10) 0.012414(15)
C2_3 C 0.0590(7) 0.2481(9) 0.77820(12)
H1_3 H 0.0998 0.3253 0.7904
H2_3 H 0.0916 0.1432 0.7839
C3_3 C 0.1267(6) 0.2807(8) 0.75182(11)
H3_3 H 0.1007 0.3906 0.7472
O3_3 O 0.0608(5) 0.1821(6) 0.73330(9)
H4_3 H 0.0998 0.2024 0.7191
C4_3 C 0.3047(7) 0.2668(7) 0.75323(10)
O4_2 O 0.3681(4) 0.3817(5) 0.76479(8)
O6_3 O 0.7990(5) 0.4262(5) 0.01531(7)
O7_3 O 0.5682(6) 0.4526(6) 0.03405(9)
C5_3 C 0.6755(7) 0.3718(6) 0.02571(10)
C6_3 C 0.6648(9) 0.1940(8) 0.02627(12)
H5_3 H 0.7396 0.1529 0.0389
H6_3 H 0.5588 0.1630 0.0317
C7_3 C 0.6992(8) 0.1234(7) 0.00071(11)
O13_2 O 0.8139(5) 0.8813(4) 0.01114(8)
N5_2 N 0.8556(7) 0.6671(7) 0.05014(9)
O1_3 O 0.8244(5) 0.3821(5) 0.76795(7)
O2_3 O 0.7986(6) 0.1499(6) 0.78601(10)
C1_3 C 0.8799(7) 0.2570(8) 0.77759(12)
H7_3 H 0.8083 0.1515 0.9960
O8_3 O 0.5977(6) 0.1849(5) 0.98168(8)
H8_3 H 0.5497 0.1116 0.9746
N1_3 N 0.5829(7) 0.4367(6) 0.80279(9)
C9_3 C 0.4970(9) 0.3492(10) 0.81849(11)
H9_3 H 0.4281 0.2743 0.8115
C10_3 C 0.5052(10) 0.3639(11) 0.84446(12)
H10_3 H 0.4457 0.2960 0.8549
C11_3 C 0.5980(9) 0.4753(9) 0.85568(12)
C12_3 C 0.6810(9) 0.5722(8) 0.83915(12)
H11_3 H 0.7442 0.6539 0.8456
C13_3 C 0.6699(9) 0.5473(9) 0.81304(12)
H12_3 H 0.7278 0.6131 0.8021
C14_3 C 0.6104(10) 0.4857(10) 0.88327(13)
H13_3 H 0.5503 0.4161 0.8933
C15_3 C 0.7037(8) 0.5902(9) 0.89535(12)
H14_3 H 0.7623 0.6601 0.8852
C16_3 C 0.7203(7) 0.6026(9) 0.92314(12)
C17_3 C 0.6292(7) 0.5252(8) 0.94061(12)
H15_3 H 0.5475 0.4589 0.9350
C18_3 C 0.6564(7) 0.5440(7) 0.96590(11)
H16_3 H 0.5925 0.4892 0.9776
C19_3 C 0.8540(8) 0.7155(8) 0.95849(13)
H17_3 H 0.9325 0.7831 0.9648
C20_3 C 0.8336(9) 0.7046(9) 0.93253(13)
H18_3 H 0.8954 0.7651 0.9213
N2_3 N 0.7688(5) 0.6359(6) 0.97501(8)
N3_3 N 0.6083(7) 0.3626(7) 0.72773(8)
C21_3 C 0.5168(8) 0.4430(8) 0.71193(12)
H19_2 H 0.4424 0.5129 0.7189
C22_3 C 0.5267(10) 0.4279(10) 0.68581(15)
H20_3 H 0.4603 0.4872 0.6751
C23_3 C 0.6359(9) 0.3240(12) 0.67516(15)
C24_3 C 0.7214(10) 0.2376(11) 0.69159(14)
H21_3 H 0.7923 0.1628 0.6851
C25_3 C 0.7084(8) 0.2554(9) 0.71771(12)
H22_3 H 0.7696 0.1926 0.7287
C26_3 C 0.6558(13) 0.2962(12) 0.64814(15)
H23_3 H 0.7325 0.2226 0.6432
C27_3 C 0.5769(12) 0.3641(12) 0.63031(16)
H24_3 H 0.4950 0.4319 0.6353
C28_3 C 0.6053(14) 0.3435(12) 0.60270(15)
C29_3 C 0.7181(12) 0.2480(11) 0.59183(14)
H25_3 H 0.7839 0.1867 0.6023
C30_3 C 0.7343(9) 0.2423(10) 0.56539(12)
H26_3 H 0.8090 0.1744 0.5580
C31_3 C 0.5356(9) 0.4218(8) 0.56087(12)
H27_3 H 0.4713 0.4834 0.5502
C32_3 C 0.5117(12) 0.4287(10) 0.58696(13)
H28_3 H 0.4312 0.4920 0.5938
N4_2 N 0.6444(7) 0.3329(7) 0.55014(9)
C8_3 C 0.6893(9) 0.9479(7) 0.00238(11)
C9_4 C 0.0030(9) 0.6508(10) 0.31849(11)
H9_4 H 0.0719 0.7257 0.3115
H10_4 H 0.0543 0.7040 0.3549
H19_3 H 0.0576 0.4871 0.2189
H20_4 H 0.0397 0.5128 0.1751
H24_4 H 0.0050 0.5681 0.1353
H27_4 H 0.0287 0.5166 0.0502
H28_4 H 0.0688 0.5080 0.0938
O11_2 O 0.1319(4) 0.6183(5) 0.26479(8)
C8_4 C 0.8107(9) 0.0521(7) 0.50238(11)
O9_2 O 0.6861(5) 0.1187(4) 0.51114(8)
O1_4 O 0.6756(5) 0.6179(5) 0.26795(7)
O2_4 O 0.7014(6) 0.8501(6) 0.28601(10)
C1_4 C 0.6201(7) 0.7430(8) 0.27759(12)
C2_4 C 0.4410(7) 0.7519(9) 0.27820(12)
H1_4 H 0.4002 0.6747 0.2904
H2_4 H 0.4084 0.8568 0.2839
C3_4 C 0.3733(6) 0.7193(8) 0.25182(11)
H3_4 H 0.3993 0.6094 0.2472
O3_4 O 0.4392(5) 0.8179(6) 0.23330(9)
H4_4 H 0.4002 0.7976 0.2191
C4_4 C 0.1953(7) 0.7332(7) 0.25323(10)
O6_4 O 0.7010(5) 0.5738(5) 0.51531(7)
O7_4 O 0.9318(6) 0.5474(6) 0.53405(9)
C5_4 C 0.8245(7) 0.6282(6) 0.52571(10)
C6_4 C 0.8352(9) 0.8060(8) 0.52627(12)
H5_4 H 0.7604 0.8471 0.5389
H6_4 H 0.9412 0.8370 0.5317
C7_4 C 0.8008(8) 0.8766(7) 0.50071(11)
H7_4 H 0.6917 0.8485 0.4960
O8_4 O 0.9023(6) 0.8151(5) 0.48168(8)
H8_4 H 0.9503 0.8884 0.4746
N1_4 N 0.9171(7) 0.5633(6) 0.30279(9)
C10_4 C 0.9948(10) 0.6361(11) 0.34446(12)
C11_4 C 0.9020(9) 0.5247(9) 0.35568(12)
C12_4 C 0.8190(9) 0.4278(8) 0.33915(12)
H11_4 H 0.7558 0.3461 0.3456
C13_4 C 0.8301(9) 0.4527(9) 0.31304(12)
H12_4 H 0.7722 0.3869 0.3021
C14_4 C 0.8896(10) 0.5143(10) 0.38327(13)
H13_4 H 0.9497 0.5839 0.3933
C15_4 C 0.7963(8) 0.4098(9) 0.39535(12)
H14_4 H 0.7377 0.3399 0.3852
C16_4 C 0.7797(7) 0.3974(9) 0.42314(12)
C17_4 C 0.8708(7) 0.4748(8) 0.44061(12)
H15_4 H 0.9525 0.5411 0.4350
C18_4 C 0.8436(7) 0.4560(7) 0.46590(11)
H16_4 H 0.9075 0.5108 0.4776
C19_4 C 0.6460(8) 0.2845(8) 0.45849(13)
H17_4 H 0.5675 0.2169 0.4648
C20_4 C 0.6664(9) 0.2954(9) 0.43253(13)
H18_4 H 0.6046 0.2349 0.4213
N2_4 N 0.7312(5) 0.3641(6) 0.47501(8)
N3_4 N 0.8917(7) 0.6374(7) 0.22773(8)
C21_4 C 0.9832(8) 0.5570(8) 0.21193(12)
C22_4 C 0.9733(10) 0.5721(10) 0.18581(15)
C23_4 C 0.8641(9) 0.6760(12) 0.17516(15)
C24_4 C 0.7786(10) 0.7624(11) 0.19159(14)
H21_4 H 0.7077 0.8372 0.1851
C25_4 C 0.7916(8) 0.7446(9) 0.21771(12)
H22_4 H 0.7304 0.8074 0.2287
C26_4 C 0.8442(13) 0.7038(12) 0.14814(15)
H23_4 H 0.7675 0.7774 0.1432
C27_4 C 0.9231(12) 0.6359(12) 0.13031(16)
C28_4 C 0.8947(14) 0.6565(12) 0.10270(15)
C29_4 C 0.7819(12) 0.7520(11) 0.09183(14)
H25_4 H 0.7161 0.8133 0.1023
C30_4 C 0.7657(9) 0.7577(10) 0.06539(12)
H26_4 H 0.6910 0.8256 0.0580
C31_4 C 0.9644(9) 0.5782(8) 0.06087(12)
C32_4 C 0.9883(12) 0.5713(10) 0.08696(13)
H19_4 H 0.9424 0.9871 0.2811
loop_
_geom_bond_atom_site_label_1
_geom_bond_atom_site_label_2
_geom_bond_site_symmetry_1
_geom_bond_site_symmetry_2
H11 C12 1_555 1_555
H12 C13 1_555 1_555
H14 C15 1_555 1_555
C16 C15 1_555 1_555
C17 C16 1_555 1_555
C18 C17 1_555 1_555
C19 H17 1_555 1_555
C20 C16 1_555 1_555
H18 C20 1_555 1_555
N2 Cu2 1_555 1_555
O13 Cu2 1_555 1_555
N5 Cu2 1_555 1_555
C12 C13 1_555 1_555
C18 N2 1_555 1_555
C19 C20 1_555 1_555
C19 N2 1_555 1_555
Cu1 O1 1_555 1_555
O1 C1 1_555 1_555
O2 C1 1_555 1_555
O6 C5 1_555 1_555
O7 C5 1_555 1_555
C5 C6 1_555 1_555
C6 H5 1_555 1_555
H6 C6 1_555 1_555
C7 C6 1_555 1_555
H7 C7 1_555 1_555
O8 C7 1_555 1_555
H8 O8 1_555 1_555
C8 C7 1_555 1_555
O13 C8 1_555 1_555
O10 C8 1_555 1_555
N1 Cu1 1_555 1_555
C9 N1 1_555 1_555
H9 C9 1_555 1_555
C10 C9 1_555 1_555
H10 C10 1_555 1_555
C11 C10 1_555 1_555
C14 C11 1_555 1_555
H13 C14 1_555 1_555
N3 Cu1 1_555 1_555
C21 N3 1_555 1_555
C22 C21 1_555 1_555
H20 C22 1_555 1_555
C23 C22 1_555 1_555
C24 C23 1_555 1_555
H21 C24 1_555 1_555
C25 N3 1_555 1_555
H22 C25 1_555 1_555
C26 C23 1_555 1_555
H23 C26 1_555 1_555
C27 C26 1_555 1_555
H24 C27 1_555 1_555
C28 C27 1_555 1_555
C29 C28 1_555 1_555
H25 C29 1_555 1_555
C30 C29 1_555 1_555
H26 C30 1_555 1_555
C31 H27 1_555 1_555
C32 C28 1_555 1_555
H28 C32 1_555 1_555
N4 C30 1_555 1_555
O11 Cu1 1_555 1_555
Cu6 N4 1_555 1_555
Cu7 O10 1_555 1_555
C24 C25 1_555 1_555
C31 C32 1_555 1_555
C31 N4 1_555 1_555
C2 H1 1_555 1_555
H2 C2 1_555 1_555
C3 C2 1_555 1_555
H3 C3 1_555 1_555
O3 C3 1_555 1_555
H4 O3 1_555 1_555
C4 C3 1_555 1_555
O11 C4 1_555 1_555
O5 C4 1_555 1_555
Cu4 O5 1_555 1_555
Cu3 O1_2 1_555 1_555
O1_2 C1_2 1_555 1_555
O2_2 C1_2 1_555 1_555
C1_2 C2_2 1_555 1_555
C2_2 H1_2 1_555 1_555
H2_2 C2_2 1_555 1_555
C3_2 C2_2 1_555 1_555
H3_2 C3_2 1_555 1_555
O3_2 C3_2 1_555 1_555
H4_2 O3_2 1_555 1_555
C4_2 C3_2 1_555 1_555
O4 C4_2 1_555 1_555
O5_2 C4_2 1_555 1_555
H8_2 O8_2 1_555 1_555
N1_2 Cu3 1_555 1_555
C11_2 C10_2 1_555 1_555
C14_2 C11_2 1_555 1_555
H13_2 C14_2 1_555 1_555
N3_2 Cu3 1_555 1_555
C21_2 N3_2 1_555 1_555
C22_2 C21_2 1_555 1_555
C23_2 C22_2 1_555 1_555
C24_2 C23_2 1_555 1_555
H21_2 C24_2 1_555 1_555
C25_2 N3_2 1_555 1_555
H22_2 C25_2 1_555 1_555
C26_2 C23_2 1_555 1_555
H23_2 C26_2 1_555 1_555
C27_2 C26_2 1_555 1_555
C28_2 C27_2 1_555 1_555
C29_2 C28_2 1_555 1_555
H25_2 C29_2 1_555 1_555
C30_2 C29_2 1_555 1_555
H26_2 C30_2 1_555 1_555
C32_2 C28_2 1_555 1_555
N5 C30_2 1_555 1_555
Cu4_2 O5_2 1_555 1_555
C24_2 C25_2 1_555 1_555
C31_2 C32_2 1_555 1_555
C31_2 N5 1_555 1_555
O6_2 C5_2 1_555 1_555
O7_2 C5_2 1_555 1_555
C5_2 C6_2 1_555 1_555
C6_2 H5_2 1_555 1_555
H6_2 C6_2 1_555 1_555
C7_2 C6_2 1_555 1_555
C8_2 C7_2 1_555 1_555
O9 C8_2 1_555 1_555
Cu6 O9 1_555 1_555
H11_2 C12_2 1_555 1_555
H12_2 C13_2 1_555 1_555
H14_2 C15_2 1_555 1_555
C16_2 C15_2 1_555 1_555
C17_2 C16_2 1_555 1_555
C18_2 C17_2 1_555 1_555
C19_2 H17_2 1_555 1_555
C20_2 C16_2 1_555 1_555
H18_2 C20_2 1_555 1_555
C12_2 C13_2 1_555 1_555
C18_2 N2_2 1_555 1_555
C19_2 C20_2 1_555 1_555
C19_2 N2_2 1_555 1_555
O14_2 Cu6 1_555 1_555
H9_2 C9_2 1_555 1_555
C2_3 H1_3 1_555 1_555
H2_3 C2_3 1_555 1_555
C3_3 C2_3 1_555 1_555
H3_3 C3_3 1_555 1_555
O3_3 C3_3 1_555 1_555
H4_3 O3_3 1_555 1_555
C4_3 C3_3 1_555 1_555
O4_2 C4_3 1_555 1_555
O12 C4_3 1_555 1_555
Cu4 O4_2 1_555 1_555
Cu7_2 O6_3 1_555 1_555
O6_3 C5_3 1_555 1_555
O7_3 C5_3 1_555 1_555
C5_3 C6_3 1_555 1_555
C6_3 H5_3 1_555 1_555
H6_3 C6_3 1_555 1_555
C7_3 C6_3 1_555 1_555
O13_2 Cu7_2 1_555 1_555
N5_2 Cu7_2 1_555 1_555
Cu4 O1_3 1_555 1_555
O1_3 C1_3 1_555 1_555
O2_3 C1_3 1_555 1_555
H8_3 O8_3 1_555 1_555
N1_3 Cu4 1_555 1_555
C9_3 N1_3 1_555 1_555
H9_3 C9_3 1_555 1_555
C10_3 C9_3 1_555 1_555
H10_3 C10_3 1_555 1_555
C11_3 C10_3 1_555 1_555
C12_3 C11_3 1_555 1_555
H11_3 C12_3 1_555 1_555
C13_3 N1_3 1_555 1_555
H12_3 C13_3 1_555 1_555
C14_3 C11_3 1_555 1_555
H13_3 C14_3 1_555 1_555
C15_3 C14_3 1_555 1_555
H14_3 C15_3 1_555 1_555
C16_3 C15_3 1_555 1_555
C17_3 C16_3 1_555 1_555
H15_3 C17_3 1_555 1_555
C18_3 C17_3 1_555 1_555
H16_3 C18_3 1_555 1_555
C19_3 H17_3 1_555 1_555
C20_3 C16_3 1_555 1_555
H18_3 C20_3 1_555 1_555
N3_3 Cu4 1_555 1_555
C21_3 N3_3 1_555 1_555
H19_2 C21_3 1_555 1_555
C22_3 C21_3 1_555 1_555
H20_3 C22_3 1_555 1_555
C23_3 C22_3 1_555 1_555
C24_3 C23_3 1_555 1_555
H21_3 C24_3 1_555 1_555
C25_3 N3_3 1_555 1_555
H22_3 C25_3 1_555 1_555
C26_3 C23_3 1_555 1_555
H23_3 C26_3 1_555 1_555
C27_3 C26_3 1_555 1_555
H24_3 C27_3 1_555 1_555
C28_3 C27_3 1_555 1_555
C29_3 C28_3 1_555 1_555
H25_3 C29_3 1_555 1_555
C30_3 C29_3 1_555 1_555
H26_3 C30_3 1_555 1_555
C31_3 H27_3 1_555 1_555
C32_3 C28_3 1_555 1_555
H28_3 C32_3 1_555 1_555
N4_2 C30_3 1_555 1_555
Cu7 N4_2 1_555 1_555
C12_3 C13_3 1_555 1_555
C18_3 N2_3 1_555 1_555
C19_3 C20_3 1_555 1_555
C19_3 N2_3 1_555 1_555
C24_3 C25_3 1_555 1_555
C31_3 C32_3 1_555 1_555
C31_3 N4_2 1_555 1_555
O13_2 C8_3 1_555 1_555
H9_4 C9_4 1_555 1_555
O9_2 C8_4 1_555 1_555
O14 C8_4 1_555 1_555
Cu7 O9_2 1_555 1_555
Cu4_2 O1_4 1_555 1_555
O1_4 C1_4 1_555 1_555
O2_4 C1_4 1_555 1_555
C1_4 C2_4 1_555 1_555
C2_4 H1_4 1_555 1_555
H2_4 C2_4 1_555 1_555
C3_4 C2_4 1_555 1_555
H3_4 C3_4 1_555 1_555
O3_4 C3_4 1_555 1_555
H4_4 O3_4 1_555 1_555
C4_4 C3_4 1_555 1_555
O11_2 C4_4 1_555 1_555
O12_2 C4_4 1_555 1_555
Cu7 O6_4 1_555 1_555
O6_4 C5_4 1_555 1_555
O7_4 C5_4 1_555 1_555
C5_4 C6_4 1_555 1_555
C6_4 H5_4 1_555 1_555
H6_4 C6_4 1_555 1_555
C7_4 C6_4 1_555 1_555
H7_4 C7_4 1_555 1_555
O8_4 C7_4 1_555 1_555
H8_4 O8_4 1_555 1_555
N1_4 Cu4_2 1_555 1_555
C11_4 C10_4 1_555 1_555
C12_4 C11_4 1_555 1_555
H11_4 C12_4 1_555 1_555
C13_4 N1_4 1_555 1_555
H12_4 C13_4 1_555 1_555
C14_4 C11_4 1_555 1_555
H13_4 C14_4 1_555 1_555
C15_4 C14_4 1_555 1_555
H14_4 C15_4 1_555 1_555
C16_4 C15_4 1_555 1_555
C17_4 C16_4 1_555 1_555
H15_4 C17_4 1_555 1_555
C18_4 C17_4 1_555 1_555
H16_4 C18_4 1_555 1_555
C19_4 H17_4 1_555 1_555
C20_4 C16_4 1_555 1_555
H18_4 C20_4 1_555 1_555
N2_4 Cu7 1_555 1_555
N3_4 Cu4_2 1_555 1_555
C21_4 N3_4 1_555 1_555
C22_4 C21_4 1_555 1_555
C23_4 C22_4 1_555 1_555
C24_4 C23_4 1_555 1_555
H21_4 C24_4 1_555 1_555
C25_4 N3_4 1_555 1_555
H22_4 C25_4 1_555 1_555
C26_4 C23_4 1_555 1_555
H23_4 C26_4 1_555 1_555
C27_4 C26_4 1_555 1_555
C28_4 C27_4 1_555 1_555
C29_4 C28_4 1_555 1_555
H25_4 C29_4 1_555 1_555
C30_4 C29_4 1_555 1_555
H26_4 C30_4 1_555 1_555
C32_4 C28_4 1_555 1_555
N5_2 C30_4 1_555 1_555
C12_4 C13_4 1_555 1_555
C18_4 N2_4 1_555 1_555
C19_4 C20_4 1_555 1_555
C19_4 N2_4 1_555 1_555
C24_4 C25_4 1_555 1_555
C31_4 C32_4 1_555 1_555
C31_4 N5_2 1_555 1_555

#END
