
###############################################################################
#
# This file contains modified crystal structure data generated from the
# MOF subset of the Cambridge Structural Database (CSD) v543 
# hosted by the Cambridge Crystallographic Data Centre (CCDC).
#
# This work is licensed under the Creative Commons
# Attribution-NonCommercial-ShareAlike 4.0 International License.
# To view a copy of this license, visit
# http://creativecommons.org/licenses/by-nc-sa/4.0/
# or send a letter to
# Creative Commons, PO Box 1866, Mountain View, CA 94042, USA.
#
# CIF created using the CSD Python API on 29 September 2022
# The structure has been converted into the P1 space group
# The structure has a 3D framework
# The original CSD entry GIXNAE is in the orthorhombic crystal system
# The original CSD entry GIXNAE is in a Sohncke space group
# The framework has been calculated to contain at least 10.0% void space
# The void calculation uses a probe of radius 1.32A, grid spacing 0.4
#
###############################################################################

data_GIXNAE
_chemical_formula_moiety         '(C56 H48 N8 Ni4 O20)n'
_symmetry_cell_setting           triclinic
_symmetry_space_group_name_H-M   'P 1'
_symmetry_Int_Tables_number      1
_space_group_name_Hall           'P 1'
loop_
_symmetry_equiv_pos_site_id
_symmetry_equiv_pos_as_xyz
1 x,y,z
_cell_length_a                   9.9916(7)
_cell_length_b                   16.3601(14)
_cell_length_c                   16.5344(14)
_cell_angle_alpha                90
_cell_angle_beta                 90
_cell_angle_gamma                90
_cell_volume                     2702.77
loop_
_atom_site_label
_atom_site_type_symbol
_atom_site_fract_x
_atom_site_fract_y
_atom_site_fract_z
Ni1 Ni 0.31089(12) 0.21375(8) 0.54656(8)
O1 O 0.4925(5) 0.2313(4) 0.4841(4)
O2 O 0.6293(6) 0.2920(4) 0.3944(4)
C1 C 0.5168(9) 0.2662(5) 0.4174(5)
C2 C 0.4061(9) 0.2847(9) 0.3563(7)
H1 H 0.4309 0.2611 0.3033
H2 H 0.3983 0.3447 0.3496
C3 C 0.2697(11) 0.2500(9) 0.3826(7)
H3 H 0.2017 0.2650 0.3408
O3 O 0.2348(5) 0.2915(5) 0.4583(4)
H4 H 0.135(2) 0.2955(15) 0.465(4)
C4 C 0.2712(12) 0.1598(10) 0.3909(8)
O4 O 0.2859(10) 0.1182(7) 0.3295(6)
O5 O 0.2618(7) 0.1297(4) 0.4612(5)
N1 N 0.6120(7) 0.6255(5) 0.8777(5)
N2 N 0.3616(8) 0.3119(5) 0.6219(5)
C5 C 0.6808(11) 0.5988(6) 0.8108(7)
H5 H 0.7672 0.6207 0.8005
C6 C 0.6297(12) 0.5415(7) 0.7580(7)
H6 H 0.6757 0.5291 0.7092
C7 C 0.5060(9) 0.5005(5) 0.7772(6)
C8 C 0.4468(11) 0.5207(6) 0.8490(7)
H7 H 0.3681 0.4930 0.8660
C9 C 0.5014(10) 0.5815(6) 0.8969(7)
H8 H 0.4583 0.5933 0.9468
C10 C 0.4516(9) 0.4363(5) 0.7224(6)
C11 C 0.3810(17) 0.3725(9) 0.7490(8)
H9 H 0.3623 0.3684 0.8052
C12 C 0.3358(17) 0.3142(8) 0.6994(8)
H10 H 0.2817 0.2721 0.7217
C13 C 0.4216(11) 0.3779(6) 0.5929(7)
H11 H 0.4317 0.3818 0.5359
C14 C 0.4717(11) 0.4431(6) 0.6403(6)
H12 H 0.5164 0.4886 0.6170
Ni2 Ni 0.68911(12) 0.71375(8) 0.95344(8)
Ni3 Ni 0.81089(12) 0.28625(8) 0.45344(8)
O6 O 0.1293(6) 0.2080(4) 0.6056(4)
N3 N 0.3880(7) 0.1255(5) 0.6223(5)
N1_2 N 0.8880(7) 0.3745(5) 0.3777(5)
C5_2 C 0.8192(11) 0.4012(6) 0.3108(7)
H5_2 H 0.7328 0.3793 0.3005
C6_2 C 0.8703(12) 0.4585(7) 0.2580(7)
H6_2 H 0.8243 0.4709 0.2092
C7_2 C 0.9940(9) 0.4995(5) 0.2772(6)
C9_2 C 0.9986(10) 0.4185(6) 0.3969(7)
H12_2 H 0.9836 0.5114 0.1170
O2_2 O 0.8707(6) 0.7080(4) 0.8944(4)
C1_2 C 0.9832(9) 0.7338(5) 0.9174(5)
C5_3 C 0.3192(11) 0.0988(6) 0.6892(7)
H5_3 H 0.2328 0.1207 0.6995
C6_3 C 0.3703(12) 0.0415(7) 0.7420(7)
H6_3 H 0.3243 0.0291 0.7908
C7_3 C 0.4940(9) 0.0005(5) 0.7228(6)
C8_2 C 0.5532(11) 0.0207(6) 0.6510(7)
C9_3 C 0.4986(10) 0.0815(6) 0.6031(7)
H8_2 H 0.5417 0.0933 0.5532
N2_2 N 0.6384(8) 0.8119(5) 0.8781(5)
H7_2 H 0.6319 0.9930 0.6340
C10_2 C 0.5484(9) 0.9363(5) 0.7776(6)
C11_2 C 0.6190(17) 0.8725(9) 0.7510(8)
H9_2 H 0.6377 0.8684 0.6948
C12_2 C 0.6642(17) 0.8142(8) 0.8006(8)
H10_2 H 0.7183 0.7721 0.7783
C13_2 C 0.5784(11) 0.8779(6) 0.9071(7)
H11_2 H 0.5683 0.8818 0.9641
C14_2 C 0.5283(11) 0.9431(6) 0.8597(6)
H12_3 H 0.4836 0.9886 0.8830
C1_3 C 0.0168(9) 0.2338(5) 0.5826(5)
H12_4 H 0.0164 0.0114 0.3830
O1_2 O 0.9925(5) 0.2687(4) 0.5159(4)
C2_2 C 0.9061(9) 0.2153(9) 0.6437(7)
H1_2 H 0.9309 0.2389 0.6967
H2_2 H 0.8983 0.1553 0.6504
C3_2 C 0.7697(11) 0.2500(9) 0.6174(7)
H3_2 H 0.7017 0.2350 0.6592
O3_2 O 0.7348(5) 0.2085(5) 0.5417(4)
H4_2 H 0.635(2) 0.2045(15) 0.535(4)
C4_2 C 0.7712(12) 0.3402(10) 0.6091(8)
O4_2 O 0.7859(10) 0.3818(7) 0.6705(6)
O5_2 O 0.7618(7) 0.3703(4) 0.5388(5)
N2_3 N 0.8616(8) 0.1881(5) 0.3781(5)
H7_3 H 0.8681 0.0070 0.1340
C10_3 C 0.9516(9) 0.0637(5) 0.2776(6)
C11_3 C 0.8810(17) 0.1275(9) 0.2510(8)
H9_3 H 0.8623 0.1316 0.1948
C12_3 C 0.8358(17) 0.1858(8) 0.3006(8)
H10_3 H 0.7817 0.2279 0.2783
C13_3 C 0.9216(11) 0.1221(6) 0.4071(7)
H11_3 H 0.9317 0.1182 0.4641
C14_3 C 0.9717(11) 0.0569(6) 0.3597(6)
Ni1_2 Ni 0.18911(12) 0.78625(8) 0.04656(8)
N2_4 N 0.1384(8) 0.6881(5) 0.1219(5)
C8_3 C 0.0532(11) 0.4793(6) 0.3490(7)
H7_4 H 0.1319 0.5070 0.3660
H8_3 H 0.0417 0.4067 0.4468
C10_4 C 0.0484(9) 0.5637(5) 0.2224(6)
C11_4 C 0.1190(17) 0.6275(9) 0.2490(8)
H9_4 H 0.1377 0.6316 0.3052
C12_4 C 0.1642(17) 0.6858(8) 0.1994(8)
H10_4 H 0.2183 0.7279 0.2217
C13_4 C 0.0784(11) 0.6221(6) 0.0929(7)
H11_4 H 0.0683 0.6182 0.0359
C14_4 C 0.0283(11) 0.5569(6) 0.1403(6)
O6_2 O 0.3707(6) 0.7920(4) 0.1056(4)
N3_2 N 0.1120(7) 0.8745(5) 0.1223(5)
O1_3 O 0.5075(5) 0.7313(4) 0.0159(4)
C1_4 C 0.4832(9) 0.7662(5) 0.0826(5)
C2_3 C 0.5939(9) 0.7847(9) 0.1437(7)
H1_3 H 0.5691 0.7611 0.1967
H2_3 H 0.6017 0.8447 0.1504
C3_3 C 0.7303(11) 0.7500(9) 0.1174(7)
H3_3 H 0.7983 0.7650 0.1592
O3_3 O 0.7652(5) 0.7915(5) 0.0417(4)
H4_3 H 0.865(2) 0.7955(15) 0.035(4)
C4_3 C 0.7288(12) 0.6598(10) 0.1091(8)
O4_3 O 0.7141(10) 0.6182(7) 0.1705(6)
O5_3 O 0.7382(7) 0.6297(4) 0.0388(5)
C5_4 C 0.1808(11) 0.9012(6) 0.1892(7)
H5_4 H 0.2672 0.8793 0.1995
C6_4 C 0.1297(12) 0.9585(7) 0.2420(7)
H6_4 H 0.1757 0.9709 0.2908
C7_4 C 0.0060(9) 0.9995(5) 0.2228(6)
C9_4 C 0.0014(10) 0.9185(6) 0.1031(7)
O1_4 O 0.0075(5) 0.7687(4) 0.9841(4)
C2_4 C 0.0939(9) 0.7153(9) 0.8563(7)
H1_4 H 0.0691 0.7389 0.8033
H2_4 H 0.1017 0.6553 0.8496
C3_4 C 0.2303(11) 0.7500(9) 0.8826(7)
H3_4 H 0.2983 0.7350 0.8408
O3_4 O 0.2652(5) 0.7085(5) 0.9583(4)
H4_4 H 0.365(2) 0.7045(15) 0.965(4)
C4_4 C 0.2288(12) 0.8402(10) 0.8909(8)
O4_4 O 0.2141(10) 0.8818(7) 0.8295(6)
O5_4 O 0.2382(7) 0.8703(4) 0.9612(5)
C8_4 C 0.9468(11) 0.9793(6) 0.1510(7)
H8_4 H 0.9583 0.9067 0.0532
loop_
_geom_bond_atom_site_label_1
_geom_bond_atom_site_label_2
_geom_bond_site_symmetry_1
_geom_bond_site_symmetry_2
Ni1 O1 1_555 1_555
O1 C1 1_555 1_555
O2 C1 1_555 1_555
C1 C2 1_555 1_555
C2 H1 1_555 1_555
H2 C2 1_555 1_555
C3 C2 1_555 1_555
H3 C3 1_555 1_555
O3 Ni1 1_555 1_555
H4 O3 1_555 1_555
C4 C3 1_555 1_555
O4 C4 1_555 1_555
O5 Ni1 1_555 1_555
N1 C5 1_555 1_555
N2 Ni1 1_555 1_555
C5 H5 1_555 1_555
C6 C5 1_555 1_555
H6 C6 1_555 1_555
C7 C6 1_555 1_555
C8 C7 1_555 1_555
H7 C8 1_555 1_555
C9 N1 1_555 1_555
H8 C9 1_555 1_555
C10 C7 1_555 1_555
C11 C10 1_555 1_555
H9 C11 1_555 1_555
C12 N2 1_555 1_555
H10 C12 1_555 1_555
C13 N2 1_555 1_555
H11 C13 1_555 1_555
C14 C10 1_555 1_555
H12 C14 1_555 1_555
Ni2 N1 1_555 1_555
Ni3 O2 1_555 1_555
O6 Ni1 1_555 1_555
N3 Ni1 1_555 1_555
C3 O3 1_555 1_555
C4 O5 1_555 1_555
C8 C9 1_555 1_555
C11 C12 1_555 1_555
C13 C14 1_555 1_555
N1_2 C5_2 1_555 1_555
C5_2 H5_2 1_555 1_555
C6_2 C5_2 1_555 1_555
H6_2 C6_2 1_555 1_555
C7_2 C6_2 1_555 1_555
C9_2 N1_2 1_555 1_555
Ni3 N1_2 1_555 1_555
O2_2 C1_2 1_555 1_555
Ni2 O2_2 1_555 1_555
N3 C5_3 1_555 1_555
C5_3 H5_3 1_555 1_555
C6_3 C5_3 1_555 1_555
H6_3 C6_3 1_555 1_555
C7_3 C6_3 1_555 1_555
C8_2 C7_3 1_555 1_555
C9_3 N3 1_555 1_555
H8_2 C9_3 1_555 1_555
C8_2 C9_3 1_555 1_555
N2_2 Ni2 1_555 1_555
C11_2 C10_2 1_555 1_555
H9_2 C11_2 1_555 1_555
C12_2 N2_2 1_555 1_555
H10_2 C12_2 1_555 1_555
C13_2 N2_2 1_555 1_555
H11_2 C13_2 1_555 1_555
C14_2 C10_2 1_555 1_555
H12_3 C14_2 1_555 1_555
C11_2 C12_2 1_555 1_555
C13_2 C14_2 1_555 1_555
O6 C1_3 1_555 1_555
Ni3 O1_2 1_555 1_555
C2_2 H1_2 1_555 1_555
H2_2 C2_2 1_555 1_555
C3_2 C2_2 1_555 1_555
H3_2 C3_2 1_555 1_555
O3_2 Ni3 1_555 1_555
H4_2 O3_2 1_555 1_555
C4_2 C3_2 1_555 1_555
O4_2 C4_2 1_555 1_555
O5_2 Ni3 1_555 1_555
N2_3 Ni3 1_555 1_555
C11_3 C10_3 1_555 1_555
H9_3 C11_3 1_555 1_555
C12_3 N2_3 1_555 1_555
H10_3 C12_3 1_555 1_555
C13_3 N2_3 1_555 1_555
H11_3 C13_3 1_555 1_555
C14_3 C10_3 1_555 1_555
C3_2 O3_2 1_555 1_555
C4_2 O5_2 1_555 1_555
C11_3 C12_3 1_555 1_555
C13_3 C14_3 1_555 1_555
N2_4 Ni1_2 1_555 1_555
H7_4 C8_3 1_555 1_555
C11_4 C10_4 1_555 1_555
H9_4 C11_4 1_555 1_555
C12_4 N2_4 1_555 1_555
H10_4 C12_4 1_555 1_555
C13_4 N2_4 1_555 1_555
H11_4 C13_4 1_555 1_555
C14_4 C10_4 1_555 1_555
O6_2 Ni1_2 1_555 1_555
N3_2 Ni1_2 1_555 1_555
C11_4 C12_4 1_555 1_555
C13_4 C14_4 1_555 1_555
O1_3 C1_4 1_555 1_555
O6_2 C1_4 1_555 1_555
C1_4 C2_3 1_555 1_555
C2_3 H1_3 1_555 1_555
H2_3 C2_3 1_555 1_555
C3_3 C2_3 1_555 1_555
H3_3 C3_3 1_555 1_555
H4_3 O3_3 1_555 1_555
C4_3 C3_3 1_555 1_555
O4_3 C4_3 1_555 1_555
C3_3 O3_3 1_555 1_555
C4_3 O5_3 1_555 1_555
N3_2 C5_4 1_555 1_555
C5_4 H5_4 1_555 1_555
C6_4 C5_4 1_555 1_555
H6_4 C6_4 1_555 1_555
C7_4 C6_4 1_555 1_555
C9_4 N3_2 1_555 1_555
C2_4 H1_4 1_555 1_555
H2_4 C2_4 1_555 1_555
C3_4 C2_4 1_555 1_555
H3_4 C3_4 1_555 1_555
H4_4 O3_4 1_555 1_555
C4_4 C3_4 1_555 1_555
O4_4 C4_4 1_555 1_555
C3_4 O3_4 1_555 1_555
C4_4 O5_4 1_555 1_555

#END
