
###############################################################################
#
# This file contains modified crystal structure data generated from the
# MOF subset of the Cambridge Structural Database (CSD) v543 
# hosted by the Cambridge Crystallographic Data Centre (CCDC).
#
# This work is licensed under the Creative Commons
# Attribution-NonCommercial-ShareAlike 4.0 International License.
# To view a copy of this license, visit
# http://creativecommons.org/licenses/by-nc-sa/4.0/
# or send a letter to
# Creative Commons, PO Box 1866, Mountain View, CA 94042, USA.
#
# CIF created using the CSD Python API on 29 September 2022
# The structure has been converted into the P1 space group
# The structure has a 3D framework
# The original CSD entry GIXTUF is in the hexagonal crystal system
# The framework has been calculated to contain at least 10.0% void space
# The void calculation uses a probe of radius 1.32A, grid spacing 0.4
# The framework is charged, counterions have been retained in the structure
#
###############################################################################

data_GIXTUF
_chemical_formula_moiety         '(C96 H36 Cd6 O36 S6 11-)n'
_symmetry_cell_setting           triclinic
_symmetry_space_group_name_H-M   'P 1'
_symmetry_Int_Tables_number      1
_space_group_name_Hall           'P 1'
loop_
_symmetry_equiv_pos_site_id
_symmetry_equiv_pos_as_xyz
1 x,y,z
_cell_length_a                   28.637(3)
_cell_length_b                   28.637(3)
_cell_length_c                   10.1757(11)
_cell_angle_alpha                90
_cell_angle_beta                 90
_cell_angle_gamma                120
_cell_volume                     7226.87
loop_
_atom_site_label
_atom_site_type_symbol
_atom_site_fract_x
_atom_site_fract_y
_atom_site_fract_z
Cd1 Cd 0.495417(16) 0.131587(15) 0.2500
C1 C 0.6461(2) 0.14038(19) 0.2500
C2 C 0.6938(2) 0.19196(19) 0.2500
H1 H 0.6908 0.2235 0.2500
C3 C 0.7422(2) 0.1967(2) 0.2500
C4 C 0.7482(2) 0.1507(2) 0.2500
H2 H 0.7831 0.1544 0.2500
C5 C 0.7032(2) 0.1008(2) 0.2500
C6 C 0.65251(19) 0.09570(18) 0.2500
H3 H 0.6215 0.0607 0.2500
C11 C 0.5931(2) 0.1354(2) 0.2500
C12 C 0.7929(3) 0.2516(5) 0.2500
O1 O 0.58971(15) 0.17831(15) 0.2500
O2 O 0.55071(15) 0.08988(15) 0.2500
O3 O 0.78479(17) 0.29119(26) 0.2500
O4 O 0.8375(2) 0.2558(3) 0.2500
S1 S 0.71449(6) 0.04556(6) 0.2500
Cd2 Cd 0.868413(15) 0.363830(22) 0.2500
O9 O 0.50640(31) 0.21521(17) 0.2500
O10 O 0.4183(4) 0.1625(2) 0.2500
O11 O 0.50258(12) 0.13894(12) 0.4999(4)
O12 O 0.50258(12) 0.13894(12) 0.0001(4)
O13 O 0.43478(13) 0.07189(12) 0.4024(3)
O14 O 0.43478(13) 0.07189(12) 0.0976(3)
C7 C 0.6465(2) 0.9886(2) 0.2500
C8 C 0.62173(18) 0.96877(15) 0.1313(4)
H4 H 0.6396 0.9837 0.0504
C9 C 0.56914(18) 0.92565(15) 0.1355(4)
C10 C 0.5439(3) 0.9040(2) 0.2500
H5 H 0.5084 0.8738 0.2500
C13 C 0.5421(2) 0.90293(17) 0.0049(4)
C14 C 0.62173(18) 0.96877(15) 0.3687(4)
H6 H 0.6396 0.9837 0.4496
C15 C 0.56914(18) 0.92565(15) 0.3645(4)
C16 C 0.5421(2) 0.90293(17) 0.4951(4)
O7 O 0.49742(12) 0.86106(12) 0.5001(4)
O8 O 0.56522(13) 0.92811(12) 0.5976(3)
Cd4 Cd 0.504583(16) 0.868413(15) 0.7500
O5 O 0.49742(12) 0.86106(12) 0.9999(4)
O6 O 0.56522(13) 0.92811(12) 0.9024(3)
O7_2 O 0.63636(17) 0.49742(12) 0.0001(4)
O8_2 O 0.63711(18) 0.56522(13) 0.0976(3)
Cd4_2 Cd 0.636170(22) 0.504583(16) 0.2500
Cd1_2 Cd 0.363830(22) 0.495417(16) 0.7500
C1_2 C 0.50572(28) 0.6461(2) 0.7500
C2_2 C 0.50184(28) 0.6938(2) 0.7500
H1_2 H 0.4673 0.6908 0.7500
C3_2 C 0.5455(3) 0.7422(2) 0.7500
C4_2 C 0.5975(3) 0.7482(2) 0.7500
H2_2 H 0.6287 0.7831 0.7500
C5_2 C 0.6024(3) 0.7032(2) 0.7500
C6_2 C 0.55681(26) 0.65251(19) 0.7500
H3_2 H 0.5608 0.6215 0.7500
C7_2 C 0.6579(3) 0.6465(2) 0.7500
C8_2 C 0.65296(23) 0.62173(18) 0.6313(4)
H4_2 H 0.6559 0.6396 0.5504
C9_2 C 0.64349(23) 0.56914(18) 0.6355(4)
C10_2 C 0.6399(4) 0.5439(3) 0.7500
H5_2 H 0.6346 0.5084 0.7500
C11_2 C 0.4577(3) 0.5931(2) 0.7500
C12_2 C 0.5413(6) 0.7929(3) 0.7500
C13_2 C 0.63917(26) 0.5421(2) 0.5049(4)
O1_2 O 0.41140(21) 0.58971(15) 0.7500
O2_2 O 0.46083(21) 0.55071(15) 0.7500
O3_2 O 0.49360(31) 0.78479(17) 0.7500
O4_2 O 0.5817(4) 0.8375(2) 0.7500
O5_2 O 0.63636(17) 0.49742(12) 0.4999(4)
O6_2 O 0.63711(18) 0.56522(13) 0.4024(3)
S1_2 S 0.66893(8) 0.71449(6) 0.7500
C14_2 C 0.65296(23) 0.62173(18) 0.8687(4)
H6_2 H 0.6559 0.6396 0.9496
C15_2 C 0.64349(23) 0.56914(18) 0.8645(4)
C16_2 C 0.63917(26) 0.5421(2) 0.9951(4)
O9_2 O 0.29119(35) 0.50640(31) 0.7500
O10_2 O 0.2558(4) 0.4183(4) 0.7500
O11_2 O 0.36364(17) 0.50258(12) 0.9999(4)
O12_2 O 0.36364(17) 0.50258(12) 0.5001(4)
O13_2 O 0.36289(18) 0.43478(13) 0.9024(3)
O14_2 O 0.36289(18) 0.43478(13) 0.5976(3)
Cd1_3 Cd 0.131587(15) 0.636170(22) 0.7500
C1_3 C 0.14038(19) 0.49428(28) 0.7500
C2_3 C 0.19196(19) 0.49816(28) 0.7500
H1_3 H 0.2235 0.5327 0.7500
C3_3 C 0.1967(2) 0.4545(3) 0.7500
C4_3 C 0.1507(2) 0.4025(3) 0.7500
H2_3 H 0.1544 0.3713 0.7500
C5_3 C 0.1008(2) 0.3976(3) 0.7500
C6_3 C 0.09570(18) 0.44319(26) 0.7500
H3_3 H 0.0607 0.4392 0.7500
C11_3 C 0.1354(2) 0.5423(3) 0.7500
C12_3 C 0.2516(5) 0.4587(6) 0.7500
O1_3 O 0.17831(15) 0.58860(21) 0.7500
O2_3 O 0.08988(15) 0.53917(21) 0.7500
S1_3 S 0.04556(6) 0.33107(8) 0.7500
O9_3 O 0.21521(17) 0.70881(35) 0.7500
O10_3 O 0.1625(2) 0.7442(4) 0.7500
O11_3 O 0.13894(12) 0.63636(17) 0.9999(4)
O12_3 O 0.13894(12) 0.63636(17) 0.5001(4)
O13_3 O 0.07189(12) 0.63711(18) 0.9024(3)
O14_3 O 0.07189(12) 0.63711(18) 0.5976(3)
O7_3 O 0.86106(12) 0.36364(17) 0.0001(4)
O8_3 O 0.92811(12) 0.36289(18) 0.0976(3)
C7_3 C 0.9886(2) 0.3421(3) 0.7500
C8_3 C 0.96877(15) 0.34704(23) 0.6313(4)
H4_3 H 0.9837 0.3441 0.5504
C9_3 C 0.92565(15) 0.35651(23) 0.6355(4)
C10_3 C 0.9040(2) 0.3601(4) 0.7500
H5_3 H 0.8738 0.3654 0.7500
C13_3 C 0.90293(17) 0.36083(26) 0.5049(4)
O5_3 O 0.86106(12) 0.36364(17) 0.4999(4)
O6_3 O 0.92811(12) 0.36289(18) 0.4024(3)
C14_3 C 0.96877(15) 0.34704(23) 0.8687(4)
H6_3 H 0.9837 0.3441 0.9496
C15_3 C 0.92565(15) 0.35651(23) 0.8645(4)
C16_3 C 0.90293(17) 0.36083(26) 0.9951(4)
C7_4 C 0.0114(2) 0.6579(3) 0.2500
C8_4 C 0.03123(15) 0.65296(23) 0.1313(4)
H4_4 H 0.0163 0.6559 0.0504
C9_4 C 0.07435(15) 0.64349(23) 0.1355(4)
C10_4 C 0.0960(2) 0.6399(4) 0.2500
H5_4 H 0.1262 0.6346 0.2500
C13_4 C 0.09707(17) 0.63917(26) 0.0049(4)
C14_4 C 0.03123(15) 0.65296(23) 0.3687(4)
H6_4 H 0.0163 0.6559 0.4496
C15_4 C 0.07435(15) 0.64349(23) 0.3645(4)
C16_4 C 0.09707(17) 0.63917(26) 0.4951(4)
C1_4 C 0.85962(19) 0.50572(28) 0.2500
C2_4 C 0.80804(19) 0.50184(28) 0.2500
H1_4 H 0.7765 0.4673 0.2500
C3_4 C 0.8033(2) 0.5455(3) 0.2500
C4_4 C 0.8493(2) 0.5975(3) 0.2500
H2_4 H 0.8456 0.6287 0.2500
C5_4 C 0.8992(2) 0.6024(3) 0.2500
C6_4 C 0.90430(18) 0.55681(26) 0.2500
H3_4 H 0.9393 0.5608 0.2500
C11_4 C 0.8646(2) 0.4577(3) 0.2500
C12_4 C 0.7484(5) 0.5413(6) 0.2500
O1_4 O 0.82169(15) 0.41140(21) 0.2500
O2_4 O 0.91012(15) 0.46083(21) 0.2500
O3_3 O 0.70881(26) 0.49360(31) 0.2500
O4_3 O 0.7442(3) 0.5817(4) 0.2500
S1_4 S 0.95444(6) 0.66893(8) 0.2500
C1_5 C 0.49428(28) 0.3539(2) 0.2500
C2_5 C 0.49816(28) 0.3062(2) 0.2500
H1_5 H 0.5327 0.3092 0.2500
C3_5 C 0.4545(3) 0.2578(2) 0.2500
C4_5 C 0.4025(3) 0.2518(2) 0.2500
H2_5 H 0.3713 0.2169 0.2500
C5_5 C 0.3976(3) 0.2968(2) 0.2500
C6_5 C 0.44319(26) 0.34749(19) 0.2500
H3_5 H 0.4392 0.3785 0.2500
C7_5 C 0.3421(3) 0.3535(2) 0.2500
C8_5 C 0.34704(23) 0.37827(18) 0.1313(4)
H4_5 H 0.3441 0.3604 0.0504
C9_5 C 0.35651(23) 0.43086(18) 0.1355(4)
C10_5 C 0.3601(4) 0.4561(3) 0.2500
H5_5 H 0.3654 0.4916 0.2500
C11_5 C 0.5423(3) 0.4069(2) 0.2500
C12_5 C 0.4587(6) 0.2071(3) 0.2500
C13_5 C 0.36083(26) 0.4579(2) 0.0049(4)
O1_5 O 0.58860(21) 0.41029(15) 0.2500
O2_5 O 0.53917(21) 0.44929(15) 0.2500
S1_5 S 0.33107(8) 0.28551(6) 0.2500
C14_5 C 0.34704(23) 0.37827(18) 0.3687(4)
H6_5 H 0.3441 0.3604 0.4496
C15_5 C 0.35651(23) 0.43086(18) 0.3645(4)
C16_5 C 0.36083(26) 0.4579(2) 0.4951(4)
C7_6 C 0.3535(2) 0.0114(2) 0.7500
C8_6 C 0.37827(18) 0.03123(15) 0.6313(4)
H4_6 H 0.3604 0.0163 0.5504
C9_6 C 0.43086(18) 0.07435(15) 0.6355(4)
C10_6 C 0.4561(3) 0.0960(2) 0.7500
H5_6 H 0.4916 0.1262 0.7500
C13_6 C 0.4579(2) 0.09707(17) 0.5049(4)
C14_6 C 0.37827(18) 0.03123(15) 0.8687(4)
H6_6 H 0.3604 0.0163 0.9496
C15_6 C 0.43086(18) 0.07435(15) 0.8645(4)
C16_6 C 0.4579(2) 0.09707(17) 0.9951(4)
C1_6 C 0.3539(2) 0.85962(19) 0.7500
C2_6 C 0.3062(2) 0.80804(19) 0.7500
H1_6 H 0.3092 0.7765 0.7500
C3_6 C 0.2578(2) 0.8033(2) 0.7500
C4_6 C 0.2518(2) 0.8493(2) 0.7500
H2_6 H 0.2169 0.8456 0.7500
C5_6 C 0.2968(2) 0.8992(2) 0.7500
C6_6 C 0.34749(19) 0.90430(18) 0.7500
H3_6 H 0.3785 0.9393 0.7500
C11_6 C 0.4069(2) 0.8646(2) 0.7500
C12_6 C 0.2071(3) 0.7484(5) 0.7500
O1_6 O 0.41029(15) 0.82169(15) 0.7500
O2_6 O 0.44929(15) 0.91012(15) 0.7500
S1_6 S 0.28551(6) 0.95444(6) 0.7500
loop_
_geom_bond_atom_site_label_1
_geom_bond_atom_site_label_2
_geom_bond_site_symmetry_1
_geom_bond_site_symmetry_2
Cd1 O1 1_555 1_555
C1 C2 1_555 1_555
C2 H1 1_555 1_555
C3 C2 1_555 1_555
C4 C3 1_555 1_555
H2 C4 1_555 1_555
C5 C4 1_555 1_555
C6 C1 1_555 1_555
H3 C6 1_555 1_555
C11 C1 1_555 1_555
C12 C3 1_555 1_555
O1 C11 1_555 1_555
O2 Cd1 1_555 1_555
O3 C12 1_555 1_555
O4 C12 1_555 1_555
S1 C5 1_555 1_555
Cd2 O3 1_555 1_555
O9 Cd1 1_555 1_555
O10 Cd1 1_555 1_555
O11 Cd1 1_555 1_555
O12 Cd1 1_555 1_555
O13 Cd1 1_555 1_555
O14 Cd1 1_555 1_555
C5 C6 1_555 1_555
C11 O2 1_555 1_555
O4 Cd2 1_555 1_555
C7 C8 1_555 1_555
C8 H4 1_555 1_555
C9 C8 1_555 1_555
C10 C9 1_555 1_555
H5 C10 1_555 1_555
C13 C9 1_555 1_555
C14 C7 1_555 1_555
H6 C14 1_555 1_555
C15 C10 1_555 1_555
C16 C15 1_555 1_555
O7 C16 1_555 1_555
O8 C16 1_555 1_555
Cd4 O7 1_555 1_555
C14 C15 1_555 1_555
O8 Cd4 1_555 1_555
Cd4 O5 1_555 1_555
O6 Cd4 1_555 1_555
Cd4_2 O7_2 1_555 1_555
O8_2 Cd4_2 1_555 1_555
Cd1_2 O1_2 1_555 1_555
C1_2 C2_2 1_555 1_555
C2_2 H1_2 1_555 1_555
C3_2 C2_2 1_555 1_555
C4_2 C3_2 1_555 1_555
H2_2 C4_2 1_555 1_555
C5_2 C4_2 1_555 1_555
C6_2 C1_2 1_555 1_555
H3_2 C6_2 1_555 1_555
C7_2 C8_2 1_555 1_555
C8_2 H4_2 1_555 1_555
C9_2 C8_2 1_555 1_555
C10_2 C9_2 1_555 1_555
H5_2 C10_2 1_555 1_555
C11_2 C1_2 1_555 1_555
C12_2 C3_2 1_555 1_555
C13_2 C9_2 1_555 1_555
O1_2 C11_2 1_555 1_555
O2_2 Cd1_2 1_555 1_555
O3_2 C12_2 1_555 1_555
O4_2 C12_2 1_555 1_555
O5_2 C13_2 1_555 1_555
O6_2 C13_2 1_555 1_555
S1_2 C5_2 1_555 1_555
C14_2 C7_2 1_555 1_555
H6_2 C14_2 1_555 1_555
C15_2 C10_2 1_555 1_555
C16_2 C15_2 1_555 1_555
Cd4 O3_2 1_555 1_555
Cd4_2 O5_2 1_555 1_555
O9_2 Cd1_2 1_555 1_555
O10_2 Cd1_2 1_555 1_555
O11_2 Cd1_2 1_555 1_555
O12_2 Cd1_2 1_555 1_555
O13_2 Cd1_2 1_555 1_555
O14_2 Cd1_2 1_555 1_555
C5_2 C6_2 1_555 1_555
C7_2 S1_2 1_555 1_555
C11_2 O2_2 1_555 1_555
O4_2 Cd4 1_555 1_555
O6_2 Cd4_2 1_555 1_555
C14_2 C15_2 1_555 1_555
Cd1_3 O1_3 1_555 1_555
C1_3 C2_3 1_555 1_555
C2_3 H1_3 1_555 1_555
C3_3 C2_3 1_555 1_555
C4_3 C3_3 1_555 1_555
H2_3 C4_3 1_555 1_555
C5_3 C4_3 1_555 1_555
C6_3 C1_3 1_555 1_555
H3_3 C6_3 1_555 1_555
C11_3 C1_3 1_555 1_555
C12_3 C3_3 1_555 1_555
O1_3 C11_3 1_555 1_555
O2_3 Cd1_3 1_555 1_555
O9_2 C12_3 1_555 1_555
O10_2 C12_3 1_555 1_555
S1_3 C5_3 1_555 1_555
O9_3 Cd1_3 1_555 1_555
O10_3 Cd1_3 1_555 1_555
O11_3 Cd1_3 1_555 1_555
O12_3 Cd1_3 1_555 1_555
O13_3 Cd1_3 1_555 1_555
O14_3 Cd1_3 1_555 1_555
C5_3 C6_3 1_555 1_555
C11_3 O2_3 1_555 1_555
Cd2 O7_3 1_555 1_555
O8_3 Cd2 1_555 1_555
C7_3 C8_3 1_555 1_555
C8_3 H4_3 1_555 1_555
C9_3 C8_3 1_555 1_555
C10_3 C9_3 1_555 1_555
H5_3 C10_3 1_555 1_555
C13_3 C9_3 1_555 1_555
O5_3 C13_3 1_555 1_555
O6_3 C13_3 1_555 1_555
C14_3 C7_3 1_555 1_555
H6_3 C14_3 1_555 1_555
C15_3 C10_3 1_555 1_555
C16_3 C15_3 1_555 1_555
Cd2 O5_3 1_555 1_555
O6_3 Cd2 1_555 1_555
C14_3 C15_3 1_555 1_555
C7_4 C8_4 1_555 1_555
C8_4 H4_4 1_555 1_555
C9_4 C8_4 1_555 1_555
C10_4 C9_4 1_555 1_555
H5_4 C10_4 1_555 1_555
C13_4 C9_4 1_555 1_555
C14_4 C7_4 1_555 1_555
H6_4 C14_4 1_555 1_555
C15_4 C10_4 1_555 1_555
C16_4 C15_4 1_555 1_555
O12_3 C16_4 1_555 1_555
O14_3 C16_4 1_555 1_555
C14_4 C15_4 1_555 1_555
Cd2 O1_4 1_555 1_555
C1_4 C2_4 1_555 1_555
C2_4 H1_4 1_555 1_555
C3_4 C2_4 1_555 1_555
C4_4 C3_4 1_555 1_555
H2_4 C4_4 1_555 1_555
C5_4 C4_4 1_555 1_555
C6_4 C1_4 1_555 1_555
H3_4 C6_4 1_555 1_555
C11_4 C1_4 1_555 1_555
C12_4 C3_4 1_555 1_555
O1_4 C11_4 1_555 1_555
O2_4 Cd2 1_555 1_555
O3_3 C12_4 1_555 1_555
O4_3 C12_4 1_555 1_555
S1_4 C5_4 1_555 1_555
Cd4_2 O3_3 1_555 1_555
C5_4 C6_4 1_555 1_555
C11_4 O2_4 1_555 1_555
O4_3 Cd4_2 1_555 1_555
Cd4_2 O1_5 1_555 1_555
C1_5 C2_5 1_555 1_555
C2_5 H1_5 1_555 1_555
C3_5 C2_5 1_555 1_555
C4_5 C3_5 1_555 1_555
H2_5 C4_5 1_555 1_555
C5_5 C4_5 1_555 1_555
C6_5 C1_5 1_555 1_555
H3_5 C6_5 1_555 1_555
C7_5 C8_5 1_555 1_555
C8_5 H4_5 1_555 1_555
C9_5 C8_5 1_555 1_555
C10_5 C9_5 1_555 1_555
H5_5 C10_5 1_555 1_555
C11_5 C1_5 1_555 1_555
C12_5 C3_5 1_555 1_555
C13_5 C9_5 1_555 1_555
O1_5 C11_5 1_555 1_555
O2_5 Cd4_2 1_555 1_555
O9 C12_5 1_555 1_555
O10 C12_5 1_555 1_555
S1_5 C5_5 1_555 1_555
C14_5 C7_5 1_555 1_555
H6_5 C14_5 1_555 1_555
C15_5 C10_5 1_555 1_555
C16_5 C15_5 1_555 1_555
O12_2 C16_5 1_555 1_555
O14_2 C16_5 1_555 1_555
C5_5 C6_5 1_555 1_555
C7_5 S1_5 1_555 1_555
C11_5 O2_5 1_555 1_555
C14_5 C15_5 1_555 1_555
C7_6 C8_6 1_555 1_555
C8_6 H4_6 1_555 1_555
C9_6 C8_6 1_555 1_555
C10_6 C9_6 1_555 1_555
H5_6 C10_6 1_555 1_555
C13_6 C9_6 1_555 1_555
O11 C13_6 1_555 1_555
O13 C13_6 1_555 1_555
C14_6 C7_6 1_555 1_555
H6_6 C14_6 1_555 1_555
C15_6 C10_6 1_555 1_555
C16_6 C15_6 1_555 1_555
C14_6 C15_6 1_555 1_555
Cd4 O1_6 1_555 1_555
C1_6 C2_6 1_555 1_555
C2_6 H1_6 1_555 1_555
C3_6 C2_6 1_555 1_555
C4_6 C3_6 1_555 1_555
H2_6 C4_6 1_555 1_555
C5_6 C4_6 1_555 1_555
C6_6 C1_6 1_555 1_555
H3_6 C6_6 1_555 1_555
C11_6 C1_6 1_555 1_555
C12_6 C3_6 1_555 1_555
O1_6 C11_6 1_555 1_555
O2_6 Cd4 1_555 1_555
O9_3 C12_6 1_555 1_555
O10_3 C12_6 1_555 1_555
S1_6 C5_6 1_555 1_555
C5_6 C6_6 1_555 1_555
C11_6 O2_6 1_555 1_555

#END
