
###############################################################################
#
# This file contains modified crystal structure data generated from the
# MOF subset of the Cambridge Structural Database (CSD) v543 
# hosted by the Cambridge Crystallographic Data Centre (CCDC).
#
# This work is licensed under the Creative Commons
# Attribution-NonCommercial-ShareAlike 4.0 International License.
# To view a copy of this license, visit
# http://creativecommons.org/licenses/by-nc-sa/4.0/
# or send a letter to
# Creative Commons, PO Box 1866, Mountain View, CA 94042, USA.
#
# CIF created using the CSD Python API on 29 September 2022
# The structure has been converted into the P1 space group
# The structure has a 3D framework
# The original CSD entry GIXVOB is in the monoclinic crystal system
# The framework has been calculated to contain at least 10.0% void space
# The void calculation uses a probe of radius 1.32A, grid spacing 0.4
# H atom positions have been added when not included in the experimental data
#
###############################################################################

data_GIXVOB
_chemical_formula_moiety         '(C278 H200 Eu8 O88)n'
_symmetry_cell_setting           triclinic
_symmetry_space_group_name_H-M   'P 1'
_symmetry_Int_Tables_number      1
_space_group_name_Hall           'P 1'
loop_
_symmetry_equiv_pos_site_id
_symmetry_equiv_pos_as_xyz
1 x,y,z
_cell_length_a                   31.0121(16)
_cell_length_b                   15.1325(6)
_cell_length_c                   28.6102(14)
_cell_angle_alpha                90
_cell_angle_beta                 119.298(7)
_cell_angle_gamma                90
_cell_volume                     11709.1
loop_
_atom_site_label
_atom_site_type_symbol
_atom_site_fract_x
_atom_site_fract_y
_atom_site_fract_z
Eu1 Eu 0.26900(2) 0.12198(2) 0.48919(2)
O1 O 0.20100(10) 0.2134(2) 0.44203(11)
O2 O 0.29598(11) 0.2386(2) 0.45601(10)
O3 O 0.25756(12) 0.36894(19) 0.44553(12)
O4 O 0.24513(14) 0.4723(2) 0.36961(11)
H1 H 0.2431 0.4541 0.3955
O5 O 0.17237(12) 0.5520(2) 0.03621(11)
O6 O 0.24839(12) 0.5757(2) 0.09994(11)
O7 O 0.27104(12) 0.5701(2) 0.19705(11)
O8 O 0.20340(15) 0.0204(3) 0.45844(15)
O9 O 0.15538(11) 0.3307(2) 0.43490(10)
O10 O 0.07057(13) 0.3528(3) 0.35404(13)
C1 C 0.21584(17) 0.5069(3) 0.22194(16)
C2 C 0.22604(16) 0.5347(3) 0.18230(16)
C3 C 0.19045(17) 0.5272(3) 0.12656(15)
C4 C 0.14406(18) 0.4958(3) 0.11165(16)
H2 H 0.1210 0.4906 0.0755
C5 C 0.13087(18) 0.4711(3) 0.15076(18)
C6 C 0.0822(2) 0.4406(5) 0.1350(2)
H3 H 0.0589 0.4366 0.0988
C7 C 0.0695(3) 0.4171(6) 0.1727(3)
H4 H 0.0377 0.3970 0.1623
C8 C 0.1048(2) 0.4235(5) 0.2278(2)
H5 H 0.0958 0.4078 0.2532
C9 C 0.1522(2) 0.4523(4) 0.2445(2)
H6 H 0.1749 0.4560 0.2809
C10 C 0.16665(18) 0.4766(3) 0.20583(17)
C11 C 0.25551(18) 0.5143(3) 0.28065(15)
H7 H 0.2834 0.5463 0.2825
H8 H 0.2423 0.5494 0.2991
C12 C 0.27446(17) 0.4280(3) 0.31073(15)
C13 C 0.30109(18) 0.3656(3) 0.29684(16)
C14 C 0.3126(2) 0.3803(3) 0.25527(18)
H9 H 0.3029 0.4327 0.2359
C15 C 0.3382(2) 0.3178(4) 0.2431(2)
H10 H 0.3458 0.3293 0.2160
C16 C 0.3524(3) 0.2391(4) 0.2703(2)
H11 H 0.3690 0.1974 0.2610
C17 C 0.3424(2) 0.2219(4) 0.3105(2)
H12 H 0.3522 0.1682 0.3285
C18 C 0.31745(17) 0.2843(3) 0.32565(16)
C19 C 0.30958(18) 0.2692(3) 0.36975(16)
H13 H 0.3203 0.2166 0.3889
C20 C 0.28630(16) 0.3312(3) 0.38469(14)
C21 C 0.26849(17) 0.4108(3) 0.35500(16)
C22 C 0.27990(16) 0.3108(3) 0.43236(15)
C23 C 0.20392(16) 0.5517(3) 0.08494(15)
C24 C 0.12520(15) 0.2347(3) 0.35988(14)
C25 C 0.08124(14) 0.2843(3) 0.33051(15)
C26 C 0.04726(15) 0.2642(3) 0.27798(14)
C27 C 0.05856(16) 0.1947(4) 0.25246(16)
C28 C 0.02803(18) 0.1757(5) 0.19671(18)
H14 H 0.0002 0.2102 0.1762
C29 C 0.0393(2) 0.1075(6) 0.1734(3)
H15 H 0.0195 0.0967 0.1369
C30 C 0.0807(2) 0.0530(6) 0.2042(3)
H16 H 0.0878 0.0060 0.1881
C31 C 0.1102(2) 0.0697(6) 0.2575(3)
H17 H 0.1366 0.0324 0.2779
C32 C 0.10108(18) 0.1426(4) 0.2820(2)
C33 C 0.13406(17) 0.1636(4) 0.33584(18)
H18 H 0.1621 0.1291 0.3554
C34 C 0.16270(15) 0.2596(3) 0.41536(14)
C35 C -0.0000 0.3169(5) 0.2500
Eu4 Eu 0.23100(2) 0.62198(2) 0.01081(2)
Eu5 Eu 0.23100(2) 0.37802(2) 0.51081(2)
O23 O 0.24244(12) 0.13106(19) 0.55447(12)
O26 O 0.32763(12) 0.0520(2) 0.46379(11)
O28 O 0.25161(12) 0.0757(2) 0.40006(11)
O29 O 0.34462(11) 0.1693(2) 0.56510(10)
H37 H 0.297151 0.525988 0.218045
H40 H 0.0971921 0.397832 0.366162
H41 H 0.184695 0.0212876 0.418656
H43 H 0.00213821 0.358449 0.220121
C35_2 C 1.0000 0.3169(5) 0.2500
O12 O 0.79900(10) 0.2134(2) 0.05797(11)
O13 O 0.84462(11) 0.3307(2) 0.06510(10)
O14 O 0.92943(13) 0.3528(3) 0.14596(13)
C36 C 0.87480(15) 0.2347(3) 0.14012(14)
C37 C 0.91876(14) 0.2843(3) 0.16949(15)
C38 C 0.95274(15) 0.2642(3) 0.22202(14)
C39 C 0.94144(16) 0.1947(4) 0.24754(16)
C40 C 0.97197(18) 0.1757(5) 0.30329(18)
H19 H 0.9998 0.2102 0.3238
C41 C 0.9607(2) 0.1075(6) 0.3266(3)
H20 H 0.9805 0.0967 0.3631
C42 C 0.9193(2) 0.0530(6) 0.2958(3)
H21 H 0.9122 0.0060 0.3119
C43 C 0.8898(2) 0.0697(6) 0.2425(3)
H22 H 0.8634 0.0324 0.2221
C44 C 0.89892(18) 0.1426(4) 0.2180(2)
C45 C 0.86594(17) 0.1636(4) 0.16416(18)
H23 H 0.8379 0.1291 0.1446
C46 C 0.83730(15) 0.2596(3) 0.08464(14)
Eu2 Eu 0.73100(2) 0.12198(2) 0.01081(2)
O15 O 0.70402(11) 0.2386(2) 0.04399(10)
O16 O 0.74244(12) 0.36894(19) 0.05447(12)
O17 O 0.75487(14) 0.4723(2) 0.13039(11)
H24 H 0.7569 0.4541 0.1045
O18 O 0.82763(12) 0.5520(2) 0.46379(11)
O19 O 0.75161(12) 0.5757(2) 0.40006(11)
O20 O 0.72896(12) 0.5701(2) 0.30295(11)
O21 O 0.79660(15) 0.0204(3) 0.04156(15)
C47 C 0.78416(17) 0.5069(3) 0.27806(16)
C48 C 0.77396(16) 0.5347(3) 0.31770(16)
C49 C 0.80955(17) 0.5272(3) 0.37344(15)
C50 C 0.85594(18) 0.4958(3) 0.38835(16)
H25 H 0.8790 0.4906 0.4245
C51 C 0.86913(18) 0.4711(3) 0.34924(18)
C52 C 0.9178(2) 0.4406(5) 0.3650(2)
H26 H 0.9411 0.4366 0.4012
C53 C 0.9305(3) 0.4171(6) 0.3273(3)
H27 H 0.9623 0.3970 0.3377
C54 C 0.8952(2) 0.4235(5) 0.2722(2)
H28 H 0.9042 0.4078 0.2468
C55 C 0.8478(2) 0.4523(4) 0.2555(2)
H29 H 0.8251 0.4560 0.2191
C56 C 0.83335(18) 0.4766(3) 0.29417(17)
C57 C 0.74449(18) 0.5143(3) 0.21935(15)
H30 H 0.7166 0.5463 0.2175
H31 H 0.7577 0.5494 0.2009
C58 C 0.72554(17) 0.4280(3) 0.18927(15)
C59 C 0.69891(18) 0.3656(3) 0.20316(16)
C60 C 0.6874(2) 0.3803(3) 0.24473(18)
H32 H 0.6971 0.4327 0.2641
C61 C 0.6618(2) 0.3178(4) 0.2569(2)
H33 H 0.6542 0.3293 0.2840
C62 C 0.6476(3) 0.2391(4) 0.2297(2)
H34 H 0.6310 0.1974 0.2390
C63 C 0.6576(2) 0.2219(4) 0.1895(2)
H35 H 0.6478 0.1682 0.1715
C64 C 0.68255(17) 0.2843(3) 0.17435(16)
C65 C 0.69042(18) 0.2692(3) 0.13025(16)
H36 H 0.6797 0.2166 0.1111
C66 C 0.71370(16) 0.3312(3) 0.11531(14)
C67 C 0.73151(17) 0.4108(3) 0.14500(16)
C68 C 0.72010(16) 0.3108(3) 0.06764(15)
C69 C 0.79608(16) 0.5517(3) 0.41506(15)
Eu3 Eu 0.76900(2) 0.62198(2) 0.48919(2)
O25 O 0.67237(12) 0.0520(2) 0.03621(11)
O27 O 0.74839(12) 0.0757(2) 0.09994(11)
H44 H 0.997862 0.358449 0.279879
H45 H 0.902808 0.397832 0.133838
H48 H 0.815305 0.0212876 0.0813443
H50 H 0.702849 0.525988 0.281955
Eu6 Eu 0.76900(2) 0.37802(2) 0.98919(2)
O24 O 0.75756(12) 0.13106(19) 0.94553(12)
O30 O 0.65538(11) 0.1693(2) 0.93490(10)
O7_2 O 0.77104(12) 0.0701(2) 0.19705(11)
C1_2 C 0.71584(17) 0.0069(3) 0.22194(16)
C2_2 C 0.72604(16) 0.0347(3) 0.18230(16)
C3_2 C 0.69045(17) 0.0272(3) 0.12656(15)
C11_2 C 0.75551(18) 0.0143(3) 0.28065(15)
H7_2 H 0.7834 0.0463 0.2825
H8_2 H 0.7423 0.0494 0.2991
C23_2 C 0.70392(16) 0.0517(3) 0.08494(15)
O20_2 O 0.22896(12) 0.0701(2) 0.30295(11)
C47_2 C 0.28416(17) 0.0069(3) 0.27806(16)
C48_2 C 0.27396(16) 0.0347(3) 0.31770(16)
C49_2 C 0.30955(17) 0.0272(3) 0.37344(15)
C57_2 C 0.24449(18) 0.0143(3) 0.21935(15)
H30_2 H 0.2166 0.0463 0.2175
H31_2 H 0.2577 0.0494 0.2009
C69_2 C 0.29608(16) 0.0517(3) 0.41506(15)
H37_2 H 0.797151 0.0259883 0.218045
H50_2 H 0.202849 0.0259883 0.281955
O1_2 O 0.70100(10) 0.7134(2) 0.44203(11)
O2_2 O 0.79598(11) 0.7386(2) 0.45601(10)
O3_2 O 0.75756(12) 0.86894(19) 0.44553(12)
O4_2 O 0.74513(14) 0.9723(2) 0.36961(11)
H1_2 H 0.7431 0.9541 0.3955
O8_2 O 0.70340(15) 0.5204(3) 0.45844(15)
O9_2 O 0.65538(11) 0.8307(2) 0.43490(10)
O10_2 O 0.57057(13) 0.8528(3) 0.35404(13)
O11 O 0.80396(18) 0.4963(3) 0.54606(15)
C4_2 C 0.64406(18) 0.9958(3) 0.11165(16)
H2_2 H 0.6210 0.9906 0.0755
C5_2 C 0.63087(18) 0.9711(3) 0.15076(18)
C6_2 C 0.5822(2) 0.9406(5) 0.1350(2)
H3_2 H 0.5589 0.9366 0.0988
C7_2 C 0.5695(3) 0.9171(6) 0.1727(3)
H4_2 H 0.5377 0.8970 0.1623
C8_2 C 0.6048(2) 0.9235(5) 0.2278(2)
H5_2 H 0.5958 0.9078 0.2532
C9_2 C 0.6522(2) 0.9523(4) 0.2445(2)
H6_2 H 0.6749 0.9560 0.2809
C10_2 C 0.66665(18) 0.9766(3) 0.20583(17)
C12_2 C 0.77446(17) 0.9280(3) 0.31073(15)
C13_2 C 0.80109(18) 0.8656(3) 0.29684(16)
C14_2 C 0.8126(2) 0.8803(3) 0.25527(18)
H9_2 H 0.8029 0.9327 0.2359
C15_2 C 0.8382(2) 0.8178(4) 0.2431(2)
H10_2 H 0.8458 0.8293 0.2160
C16_2 C 0.8524(3) 0.7391(4) 0.2703(2)
H11_2 H 0.8690 0.6974 0.2610
C17_2 C 0.8424(2) 0.7219(4) 0.3105(2)
H12_2 H 0.8522 0.6682 0.3285
C18_2 C 0.81745(17) 0.7843(3) 0.32565(16)
C19_2 C 0.80958(18) 0.7692(3) 0.36975(16)
H13_2 H 0.8203 0.7166 0.3889
C20_2 C 0.78630(16) 0.8312(3) 0.38469(14)
C21_2 C 0.76849(17) 0.9108(3) 0.35500(16)
C22_2 C 0.77990(16) 0.8108(3) 0.43236(15)
C24_2 C 0.62520(15) 0.7347(3) 0.35988(14)
C25_2 C 0.58124(14) 0.7843(3) 0.33051(15)
C26_2 C 0.54726(15) 0.7642(3) 0.27798(14)
C27_2 C 0.55856(16) 0.6947(4) 0.25246(16)
C28_2 C 0.52803(18) 0.6757(5) 0.19671(18)
H14_2 H 0.5002 0.7102 0.1762
C29_2 C 0.5393(2) 0.6075(6) 0.1734(3)
H15_2 H 0.5195 0.5967 0.1369
C30_2 C 0.5807(2) 0.5530(6) 0.2042(3)
H16_2 H 0.5878 0.5060 0.1881
C31_2 C 0.6102(2) 0.5697(6) 0.2575(3)
H17_2 H 0.6366 0.5324 0.2779
C32_2 C 0.60108(18) 0.6426(4) 0.2820(2)
C33_2 C 0.63406(17) 0.6636(4) 0.33584(18)
H18_2 H 0.6621 0.6291 0.3554
C34_2 C 0.66270(15) 0.7596(3) 0.41536(14)
C35_3 C 0.5000 0.8169(5) 0.2500
O12_2 O 0.29900(10) 0.7134(2) 0.05797(11)
O13_2 O 0.34462(11) 0.8307(2) 0.06510(10)
O14_2 O 0.42943(13) 0.8528(3) 0.14596(13)
C36_2 C 0.37480(15) 0.7347(3) 0.14012(14)
C37_2 C 0.41876(14) 0.7843(3) 0.16949(15)
C38_2 C 0.45274(15) 0.7642(3) 0.22202(14)
C39_2 C 0.44144(16) 0.6947(4) 0.24754(16)
C40_2 C 0.47197(18) 0.6757(5) 0.30329(18)
H19_2 H 0.4998 0.7102 0.3238
C41_2 C 0.4607(2) 0.6075(6) 0.3266(3)
H20_2 H 0.4805 0.5967 0.3631
C42_2 C 0.4193(2) 0.5530(6) 0.2958(3)
H21_2 H 0.4122 0.5060 0.3119
C43_2 C 0.3898(2) 0.5697(6) 0.2425(3)
H22_2 H 0.3634 0.5324 0.2221
C44_2 C 0.39892(18) 0.6426(4) 0.2180(2)
C45_2 C 0.36594(17) 0.6636(4) 0.16416(18)
H23_2 H 0.3379 0.6291 0.1446
C46_2 C 0.33730(15) 0.7596(3) 0.08464(14)
O15_2 O 0.20402(11) 0.7386(2) 0.04399(10)
O16_2 O 0.24244(12) 0.86894(19) 0.05447(12)
O17_2 O 0.25487(14) 0.9723(2) 0.13039(11)
H24_2 H 0.2569 0.9541 0.1045
O21_2 O 0.29660(15) 0.5204(3) 0.04156(15)
C50_2 C 0.35594(18) 0.9958(3) 0.38835(16)
H25_2 H 0.3790 0.9906 0.4245
C51_2 C 0.36913(18) 0.9711(3) 0.34924(18)
C52_2 C 0.4178(2) 0.9406(5) 0.3650(2)
H26_2 H 0.4411 0.9366 0.4012
C53_2 C 0.4305(3) 0.9171(6) 0.3273(3)
H27_2 H 0.4623 0.8970 0.3377
C54_2 C 0.3952(2) 0.9235(5) 0.2722(2)
H28_2 H 0.4042 0.9078 0.2468
C55_2 C 0.3478(2) 0.9523(4) 0.2555(2)
H29_2 H 0.3251 0.9560 0.2191
C56_2 C 0.33335(18) 0.9766(3) 0.29417(17)
C58_2 C 0.22554(17) 0.9280(3) 0.18927(15)
C59_2 C 0.19891(18) 0.8656(3) 0.20316(16)
C60_2 C 0.1874(2) 0.8803(3) 0.24473(18)
H32_2 H 0.1971 0.9327 0.2641
C61_2 C 0.1618(2) 0.8178(4) 0.2569(2)
H33_2 H 0.1542 0.8293 0.2840
C62_2 C 0.1476(3) 0.7391(4) 0.2297(2)
H34_2 H 0.1310 0.6974 0.2390
C63_2 C 0.1576(2) 0.7219(4) 0.1895(2)
H35_2 H 0.1478 0.6682 0.1715
C64_2 C 0.18255(17) 0.7843(3) 0.17435(16)
C65_2 C 0.19042(18) 0.7692(3) 0.13025(16)
H36_2 H 0.1797 0.7166 0.1111
C66_2 C 0.21370(16) 0.8312(3) 0.11531(14)
C67_2 C 0.23151(17) 0.9108(3) 0.14500(16)
C68_2 C 0.22010(16) 0.8108(3) 0.06764(15)
Eu5_2 Eu 0.73100(2) 0.87802(2) 0.51081(2)
O23_2 O 0.74244(12) 0.63106(19) 0.55447(12)
O29_2 O 0.84462(11) 0.6693(2) 0.56510(10)
H38 H 0.784498 0.442767 0.527709
H39 H 0.838704 0.488342 0.554088
H40_2 H 0.597192 0.897832 0.366162
H41_2 H 0.684695 0.521288 0.418656
H42 H 0.716766 0.460162 0.470994
H43_2 H 0.502138 0.858449 0.220121
H44_2 H 0.497862 0.858449 0.279879
H45_2 H 0.402808 0.897832 0.133838
H48_2 H 0.315305 0.521288 0.0813443
H49 H 0.283234 0.460162 0.0290058
O22 O 0.19604(18) 0.4963(3) 0.95394(15)
Eu6_2 Eu 0.26900(2) 0.87802(2) 0.98919(2)
O24_2 O 0.25756(12) 0.63106(19) 0.94553(12)
O30_2 O 0.15538(11) 0.6693(2) 0.93490(10)
H46 H 0.215502 0.442767 0.972291
H47 H 0.161296 0.488342 0.945912
C35_4 C 0.0000 0.6831(5) 0.7500
O12_3 O 0.20100(10) 0.7866(2) 0.94203(11)
O14_3 O 0.07057(13) 0.6472(3) 0.85404(13)
C36_3 C 0.12520(15) 0.7653(3) 0.85988(14)
C37_3 C 0.08124(14) 0.7157(3) 0.83051(15)
C38_3 C 0.04726(15) 0.7358(3) 0.77798(14)
C39_3 C 0.05856(16) 0.8053(4) 0.75246(16)
C40_3 C 0.02803(18) 0.8243(5) 0.69671(18)
H19_3 H 0.0002 0.7898 0.6762
C41_3 C 0.0393(2) 0.8925(6) 0.6734(3)
H20_3 H 0.0195 0.9033 0.6369
C42_3 C 0.0807(2) 0.9470(6) 0.7042(3)
H21_3 H 0.0878 0.9940 0.6881
C43_3 C 0.1102(2) 0.9303(6) 0.7575(3)
H22_3 H 0.1366 0.9676 0.7779
C44_3 C 0.10108(18) 0.8574(4) 0.7820(2)
C45_3 C 0.13406(17) 0.8364(4) 0.83584(18)
H23_3 H 0.1621 0.8709 0.8554
C46_3 C 0.16270(15) 0.7404(3) 0.91536(14)
O15_3 O 0.29598(11) 0.7614(2) 0.95601(10)
O17_3 O 0.24513(14) 0.5277(2) 0.86961(11)
H24_3 H 0.2431 0.5459 0.8955
O18_2 O 0.17237(12) 0.4480(2) 0.53621(11)
O19_2 O 0.24839(12) 0.4243(2) 0.59994(11)
O20_3 O 0.27104(12) 0.4299(2) 0.69705(11)
O21_3 O 0.20340(15) 0.9796(3) 0.95844(15)
C47_3 C 0.21584(17) 0.4931(3) 0.72194(16)
C48_3 C 0.22604(16) 0.4653(3) 0.68230(16)
C49_3 C 0.19045(17) 0.4728(3) 0.62656(15)
C50_3 C 0.14406(18) 0.5042(3) 0.61165(16)
H25_3 H 0.1210 0.5094 0.5755
C51_3 C 0.13087(18) 0.5289(3) 0.65076(18)
C52_3 C 0.0822(2) 0.5594(5) 0.6350(2)
H26_3 H 0.0589 0.5634 0.5988
C53_3 C 0.0695(3) 0.5829(6) 0.6727(3)
H27_3 H 0.0377 0.6030 0.6623
C54_3 C 0.1048(2) 0.5765(5) 0.7278(2)
H28_3 H 0.0958 0.5922 0.7532
C55_3 C 0.1522(2) 0.5477(4) 0.7445(2)
H29_3 H 0.1749 0.5440 0.7809
C56_3 C 0.16665(18) 0.5234(3) 0.70583(17)
C57_3 C 0.25551(18) 0.4857(3) 0.78065(15)
H30_3 H 0.2834 0.4537 0.7825
H31_3 H 0.2423 0.4506 0.7991
C58_3 C 0.27446(17) 0.5720(3) 0.81073(15)
C59_3 C 0.30109(18) 0.6344(3) 0.79684(16)
C60_3 C 0.3126(2) 0.6197(3) 0.75527(18)
H32_3 H 0.3029 0.5673 0.7359
C61_3 C 0.3382(2) 0.6822(4) 0.7431(2)
H33_3 H 0.3458 0.6707 0.7160
C62_3 C 0.3524(3) 0.7609(4) 0.7703(2)
H34_3 H 0.3690 0.8026 0.7610
C63_3 C 0.3424(2) 0.7781(4) 0.8105(2)
H35_3 H 0.3522 0.8318 0.8285
C64_3 C 0.31745(17) 0.7157(3) 0.82565(16)
C65_3 C 0.30958(18) 0.7308(3) 0.86975(16)
H36_3 H 0.3203 0.7834 0.8889
C66_3 C 0.28630(16) 0.6688(3) 0.88469(14)
C67_3 C 0.26849(17) 0.5892(3) 0.85500(16)
C68_3 C 0.27990(16) 0.6892(3) 0.93236(15)
C69_3 C 0.20392(16) 0.4483(3) 0.58494(15)
O25_2 O 0.32763(12) 0.9480(2) 0.96379(11)
O27_2 O 0.25161(12) 0.9243(2) 0.90006(11)
H44_3 H 0.00213821 0.641551 0.720121
H45_3 H 0.0971921 0.602168 0.866162
H48_3 H 0.184695 0.978712 0.918656
H50_3 H 0.297151 0.474012 0.718045
O1_3 O 0.79900(10) 0.7866(2) 0.55797(11)
O2_3 O 0.70402(11) 0.7614(2) 0.54399(10)
O4_3 O 0.75487(14) 0.5277(2) 0.63039(11)
H1_3 H 0.7569 0.5459 0.6045
O5_2 O 0.82763(12) 0.4480(2) 0.96379(11)
O6_2 O 0.75161(12) 0.4243(2) 0.90006(11)
O7_3 O 0.72896(12) 0.4299(2) 0.80295(11)
O8_3 O 0.79660(15) 0.9796(3) 0.54156(15)
O10_3 O 0.92943(13) 0.6472(3) 0.64596(13)
C1_3 C 0.78416(17) 0.4931(3) 0.77806(16)
C2_3 C 0.77396(16) 0.4653(3) 0.81770(16)
C3_3 C 0.80955(17) 0.4728(3) 0.87344(15)
C4_3 C 0.85594(18) 0.5042(3) 0.88835(16)
H2_3 H 0.8790 0.5094 0.9245
C5_3 C 0.86913(18) 0.5289(3) 0.84924(18)
C6_3 C 0.9178(2) 0.5594(5) 0.8650(2)
H3_3 H 0.9411 0.5634 0.9012
C7_3 C 0.9305(3) 0.5829(6) 0.8273(3)
H4_3 H 0.9623 0.6030 0.8377
C8_3 C 0.8952(2) 0.5765(5) 0.7722(2)
H5_3 H 0.9042 0.5922 0.7468
C9_3 C 0.8478(2) 0.5477(4) 0.7555(2)
H6_3 H 0.8251 0.5440 0.7191
C10_3 C 0.83335(18) 0.5234(3) 0.79417(17)
C11_3 C 0.74449(18) 0.4857(3) 0.71935(15)
H7_3 H 0.7166 0.4537 0.7175
H8_3 H 0.7577 0.4506 0.7009
C12_3 C 0.72554(17) 0.5720(3) 0.68927(15)
C13_3 C 0.69891(18) 0.6344(3) 0.70316(16)
C14_3 C 0.6874(2) 0.6197(3) 0.74473(18)
H9_3 H 0.6971 0.5673 0.7641
C15_3 C 0.6618(2) 0.6822(4) 0.7569(2)
H10_3 H 0.6542 0.6707 0.7840
C16_3 C 0.6476(3) 0.7609(4) 0.7297(2)
H11_3 H 0.6310 0.8026 0.7390
C17_3 C 0.6576(2) 0.7781(4) 0.6895(2)
H12_3 H 0.6478 0.8318 0.6715
C18_3 C 0.68255(17) 0.7157(3) 0.67435(16)
C19_3 C 0.69042(18) 0.7308(3) 0.63025(16)
H13_3 H 0.6797 0.7834 0.6111
C20_3 C 0.71370(16) 0.6688(3) 0.61531(14)
C21_3 C 0.73151(17) 0.5892(3) 0.64500(16)
C22_3 C 0.72010(16) 0.6892(3) 0.56764(15)
C23_3 C 0.79608(16) 0.4483(3) 0.91506(15)
C24_3 C 0.87480(15) 0.7653(3) 0.64012(14)
C25_3 C 0.91876(14) 0.7157(3) 0.66949(15)
C26_3 C 0.95274(15) 0.7358(3) 0.72202(14)
C27_3 C 0.94144(16) 0.8053(4) 0.74754(16)
C28_3 C 0.97197(18) 0.8243(5) 0.80329(18)
H14_3 H 0.9998 0.7898 0.8238
C29_3 C 0.9607(2) 0.8925(6) 0.8266(3)
H15_3 H 0.9805 0.9033 0.8631
C30_3 C 0.9193(2) 0.9470(6) 0.7958(3)
H16_3 H 0.9122 0.9940 0.8119
C31_3 C 0.8898(2) 0.9303(6) 0.7425(3)
H17_3 H 0.8634 0.9676 0.7221
C32_3 C 0.89892(18) 0.8574(4) 0.7180(2)
C33_3 C 0.86594(17) 0.8364(4) 0.66416(18)
H18_3 H 0.8379 0.8709 0.6446
C34_3 C 0.83730(15) 0.7404(3) 0.58464(14)
C35_5 C 1.0000 0.6831(5) 0.7500
O26_2 O 0.67237(12) 0.9480(2) 0.53621(11)
O28_2 O 0.74839(12) 0.9243(2) 0.59994(11)
H37_3 H 0.702849 0.474012 0.781955
H40_3 H 0.902808 0.602168 0.633838
H41_3 H 0.815305 0.978712 0.581344
H43_3 H 0.997862 0.641551 0.779879
O22_2 O 0.80396(18) 0.5037(3) 0.04606(15)
H46_2 H 0.784498 0.557233 0.0277091
H47_2 H 0.838704 0.511658 0.0540877
O1_4 O 0.29900(10) 0.2866(2) 0.55797(11)
O2_4 O 0.20402(11) 0.2614(2) 0.54399(10)
O4_4 O 0.25487(14) 0.0277(2) 0.63039(11)
H1_4 H 0.2569 0.0459 0.6045
O8_4 O 0.29660(15) 0.4796(3) 0.54156(15)
O10_4 O 0.42943(13) 0.1472(3) 0.64596(13)
O11_2 O 0.19604(18) 0.5037(3) 0.45394(15)
C4_4 C 0.35594(18) 0.0042(3) 0.88835(16)
H2_4 H 0.3790 0.0094 0.9245
C5_4 C 0.36913(18) 0.0289(3) 0.84924(18)
C6_4 C 0.4178(2) 0.0594(5) 0.8650(2)
H3_4 H 0.4411 0.0634 0.9012
C7_4 C 0.4305(3) 0.0829(6) 0.8273(3)
H4_4 H 0.4623 0.1030 0.8377
C8_4 C 0.3952(2) 0.0765(5) 0.7722(2)
H5_4 H 0.4042 0.0922 0.7468
C9_4 C 0.3478(2) 0.0477(4) 0.7555(2)
H6_4 H 0.3251 0.0440 0.7191
C10_4 C 0.33335(18) 0.0234(3) 0.79417(17)
C12_4 C 0.22554(17) 0.0720(3) 0.68927(15)
C13_4 C 0.19891(18) 0.1344(3) 0.70316(16)
C14_4 C 0.1874(2) 0.1197(3) 0.74473(18)
H9_4 H 0.1971 0.0673 0.7641
C15_4 C 0.1618(2) 0.1822(4) 0.7569(2)
H10_4 H 0.1542 0.1707 0.7840
C16_4 C 0.1476(3) 0.2609(4) 0.7297(2)
H11_4 H 0.1310 0.3026 0.7390
C17_4 C 0.1576(2) 0.2781(4) 0.6895(2)
H12_4 H 0.1478 0.3318 0.6715
C18_4 C 0.18255(17) 0.2157(3) 0.67435(16)
C19_4 C 0.19042(18) 0.2308(3) 0.63025(16)
H13_4 H 0.1797 0.2834 0.6111
C20_4 C 0.21370(16) 0.1688(3) 0.61531(14)
C21_4 C 0.23151(17) 0.0892(3) 0.64500(16)
C22_4 C 0.22010(16) 0.1892(3) 0.56764(15)
C24_4 C 0.37480(15) 0.2653(3) 0.64012(14)
C25_4 C 0.41876(14) 0.2157(3) 0.66949(15)
C26_4 C 0.45274(15) 0.2358(3) 0.72202(14)
C27_4 C 0.44144(16) 0.3053(4) 0.74754(16)
C28_4 C 0.47197(18) 0.3243(5) 0.80329(18)
H14_4 H 0.4998 0.2898 0.8238
C29_4 C 0.4607(2) 0.3925(6) 0.8266(3)
H15_4 H 0.4805 0.4033 0.8631
C30_4 C 0.4193(2) 0.4470(6) 0.7958(3)
H16_4 H 0.4122 0.4940 0.8119
C31_4 C 0.3898(2) 0.4303(6) 0.7425(3)
H17_4 H 0.3634 0.4676 0.7221
C32_4 C 0.39892(18) 0.3574(4) 0.7180(2)
C33_4 C 0.36594(17) 0.3364(4) 0.66416(18)
H18_4 H 0.3379 0.3709 0.6446
C34_4 C 0.33730(15) 0.2404(3) 0.58464(14)
C35_6 C 0.5000 0.1831(5) 0.7500
O12_4 O 0.70100(10) 0.2866(2) 0.94203(11)
O14_4 O 0.57057(13) 0.1472(3) 0.85404(13)
C36_4 C 0.62520(15) 0.2653(3) 0.85988(14)
C37_4 C 0.58124(14) 0.2157(3) 0.83051(15)
C38_4 C 0.54726(15) 0.2358(3) 0.77798(14)
C39_4 C 0.55856(16) 0.3053(4) 0.75246(16)
C40_4 C 0.52803(18) 0.3243(5) 0.69671(18)
H19_4 H 0.5002 0.2898 0.6762
C41_4 C 0.5393(2) 0.3925(6) 0.6734(3)
H20_4 H 0.5195 0.4033 0.6369
C42_4 C 0.5807(2) 0.4470(6) 0.7042(3)
H21_4 H 0.5878 0.4940 0.6881
C43_4 C 0.6102(2) 0.4303(6) 0.7575(3)
H22_4 H 0.6366 0.4676 0.7779
C44_4 C 0.60108(18) 0.3574(4) 0.7820(2)
C45_4 C 0.63406(17) 0.3364(4) 0.83584(18)
H23_4 H 0.6621 0.3709 0.8554
C46_4 C 0.66270(15) 0.2404(3) 0.91536(14)
O15_4 O 0.79598(11) 0.2614(2) 0.95601(10)
O17_4 O 0.74513(14) 0.0277(2) 0.86961(11)
H24_4 H 0.7431 0.0459 0.8955
O21_4 O 0.70340(15) 0.4796(3) 0.95844(15)
C50_4 C 0.64406(18) 0.0042(3) 0.61165(16)
H25_4 H 0.6210 0.0094 0.5755
C51_4 C 0.63087(18) 0.0289(3) 0.65076(18)
C52_4 C 0.5822(2) 0.0594(5) 0.6350(2)
H26_4 H 0.5589 0.0634 0.5988
C53_4 C 0.5695(3) 0.0829(6) 0.6727(3)
H27_4 H 0.5377 0.1030 0.6623
C54_4 C 0.6048(2) 0.0765(5) 0.7278(2)
H28_4 H 0.5958 0.0922 0.7532
C55_4 C 0.6522(2) 0.0477(4) 0.7445(2)
H29_4 H 0.6749 0.0440 0.7809
C56_4 C 0.66665(18) 0.0234(3) 0.70583(17)
C58_4 C 0.77446(17) 0.0720(3) 0.81073(15)
C59_4 C 0.80109(18) 0.1344(3) 0.79684(16)
C60_4 C 0.8126(2) 0.1197(3) 0.75527(18)
H32_4 H 0.8029 0.0673 0.7359
C61_4 C 0.8382(2) 0.1822(4) 0.7431(2)
H33_4 H 0.8458 0.1707 0.7160
C62_4 C 0.8524(3) 0.2609(4) 0.7703(2)
H34_4 H 0.8690 0.3026 0.7610
C63_4 C 0.8424(2) 0.2781(4) 0.8105(2)
H35_4 H 0.8522 0.3318 0.8285
C64_4 C 0.81745(17) 0.2157(3) 0.82565(16)
C65_4 C 0.80958(18) 0.2308(3) 0.86975(16)
H36_4 H 0.8203 0.2834 0.8889
C66_4 C 0.78630(16) 0.1688(3) 0.88469(14)
C67_4 C 0.76849(17) 0.0892(3) 0.85500(16)
C68_4 C 0.77990(16) 0.1892(3) 0.93236(15)
H38_2 H 0.215502 0.557233 0.472291
H39_2 H 0.161296 0.511658 0.445912
H40_4 H 0.402808 0.102168 0.633838
H41_4 H 0.315305 0.478712 0.581344
H42_2 H 0.283234 0.539838 0.529006
H43_4 H 0.497862 0.141551 0.779879
H44_4 H 0.502138 0.141551 0.720121
H45_4 H 0.597192 0.102168 0.866162
H48_4 H 0.684695 0.478712 0.918656
H49_2 H 0.716766 0.539838 0.970994
O7_4 O 0.22896(12) 0.9299(2) 0.80295(11)
C1_4 C 0.28416(17) 0.9931(3) 0.77806(16)
C2_4 C 0.27396(16) 0.9653(3) 0.81770(16)
C3_4 C 0.30955(17) 0.9728(3) 0.87344(15)
C11_4 C 0.24449(18) 0.9857(3) 0.71935(15)
H7_4 H 0.2166 0.9537 0.7175
H8_4 H 0.2577 0.9506 0.7009
C23_4 C 0.29608(16) 0.9483(3) 0.91506(15)
O20_4 O 0.77104(12) 0.9299(2) 0.69705(11)
C47_4 C 0.71584(17) 0.9931(3) 0.72194(16)
C48_4 C 0.72604(16) 0.9653(3) 0.68230(16)
C49_4 C 0.69045(17) 0.9728(3) 0.62656(15)
C57_4 C 0.75551(18) 0.9857(3) 0.78065(15)
H30_4 H 0.7834 0.9537 0.7825
H31_4 H 0.7423 0.9506 0.7991
C69_4 C 0.70392(16) 0.9483(3) 0.58494(15)
H37_4 H 0.202849 0.974012 0.781955
H50_4 H 0.797151 0.974012 0.718045
O11_3 O 0.30396(18) 0.9963(3) 0.54606(15)
H38_3 H 0.284498 0.942767 0.527709
H39_3 H 0.338704 0.988342 0.554088
H42_3 H 0.216766 0.960162 0.470994
H49_3 H 0.783234 0.960162 0.0290058
O22_3 O 0.69604(18) 0.9963(3) 0.95394(15)
H46_3 H 0.715502 0.942767 0.972291
H47_3 H 0.661296 0.988342 0.945912
O22_4 O 0.30396(18) 0.0037(3) 0.04606(15)
H46_4 H 0.284498 0.0572335 0.0277091
H47_4 H 0.338704 0.0116584 0.0540877
H49_4 H 0.216766 0.0398382 0.970994
O11_4 O 0.69604(18) 0.0037(3) 0.45394(15)
H38_4 H 0.715502 0.0572335 0.472291
H39_4 H 0.661296 0.0116584 0.445912
H42_4 H 0.783234 0.0398382 0.529006
loop_
_geom_bond_atom_site_label_1
_geom_bond_atom_site_label_2
_geom_bond_site_symmetry_1
_geom_bond_site_symmetry_2
Eu1 O1 1_555 1_555
O1 C34 1_555 1_555
O2 Eu1 1_555 1_555
O3 C22 1_555 1_555
O4 H1 1_555 1_555
O5 C23 1_555 1_555
O6 C23 1_555 1_555
O7 C2 1_555 1_555
O8 Eu1 1_555 1_555
O9 C34 1_555 1_555
O10 C25 1_555 1_555
C1 C2 1_555 1_555
C2 C3 1_555 1_555
C3 C4 1_555 1_555
C4 H2 1_555 1_555
C5 C4 1_555 1_555
C6 C5 1_555 1_555
H3 C6 1_555 1_555
C7 C6 1_555 1_555
H4 C7 1_555 1_555
C8 C7 1_555 1_555
H5 C8 1_555 1_555
C9 C8 1_555 1_555
H6 C9 1_555 1_555
C10 C1 1_555 1_555
C11 C1 1_555 1_555
H7 C11 1_555 1_555
H8 C11 1_555 1_555
C12 C11 1_555 1_555
C13 C12 1_555 1_555
C14 C13 1_555 1_555
H9 C14 1_555 1_555
C15 C14 1_555 1_555
H10 C15 1_555 1_555
C16 C15 1_555 1_555
H11 C16 1_555 1_555
C17 C16 1_555 1_555
H12 C17 1_555 1_555
C18 C13 1_555 1_555
C19 C18 1_555 1_555
H13 C19 1_555 1_555
C20 C19 1_555 1_555
C21 O4 1_555 1_555
C22 O2 1_555 1_555
C23 C3 1_555 1_555
C24 C25 1_555 1_555
C25 C26 1_555 1_555
C26 C27 1_555 1_555
C27 C28 1_555 1_555
C28 H14 1_555 1_555
C29 C28 1_555 1_555
H15 C29 1_555 1_555
C30 C29 1_555 1_555
H16 C30 1_555 1_555
C31 C30 1_555 1_555
H17 C31 1_555 1_555
C32 C27 1_555 1_555
C33 C24 1_555 1_555
H18 C33 1_555 1_555
C34 C24 1_555 1_555
C35 C26 1_555 1_555
Eu4 O5 1_555 1_555
Eu5 O3 1_555 1_555
O23 Eu1 1_555 1_555
O26 Eu1 1_555 1_555
O28 Eu1 1_555 1_555
O29 Eu1 1_555 1_555
O6 Eu4 1_555 1_555
O9 Eu5 1_555 1_555
C5 C10 1_555 1_555
C9 C10 1_555 1_555
C12 C21 1_555 1_555
C17 C18 1_555 1_555
C20 C21 1_555 1_555
C20 C22 1_555 1_555
C31 C32 1_555 1_555
C32 C33 1_555 1_555
O7 H37 1_555 1_555
O10 H40 1_555 1_555
O8 H41 1_555 1_555
C35 H43 1_555 1_555
O12 C46 1_555 1_555
O13 C46 1_555 1_555
O14 C37 1_555 1_555
C36 C37 1_555 1_555
C37 C38 1_555 1_555
C38 C35_2 1_555 1_555
C39 C38 1_555 1_555
C40 C39 1_555 1_555
H19 C40 1_555 1_555
C41 C40 1_555 1_555
H20 C41 1_555 1_555
C42 C41 1_555 1_555
H21 C42 1_555 1_555
C43 C42 1_555 1_555
H22 C43 1_555 1_555
C44 C39 1_555 1_555
C45 C36 1_555 1_555
H23 C45 1_555 1_555
C46 C36 1_555 1_555
Eu2 O12 1_555 1_555
O15 Eu2 1_555 1_555
O16 C68 1_555 1_555
O17 H24 1_555 1_555
O18 C69 1_555 1_555
O19 C69 1_555 1_555
O20 C48 1_555 1_555
O21 Eu2 1_555 1_555
C47 C48 1_555 1_555
C48 C49 1_555 1_555
C49 C50 1_555 1_555
C50 H25 1_555 1_555
C51 C50 1_555 1_555
C52 C51 1_555 1_555
H26 C52 1_555 1_555
C53 C52 1_555 1_555
H27 C53 1_555 1_555
C54 C53 1_555 1_555
H28 C54 1_555 1_555
C55 C54 1_555 1_555
H29 C55 1_555 1_555
C56 C47 1_555 1_555
C57 C47 1_555 1_555
H30 C57 1_555 1_555
H31 C57 1_555 1_555
C58 C57 1_555 1_555
C59 C58 1_555 1_555
C60 C59 1_555 1_555
H32 C60 1_555 1_555
C61 C60 1_555 1_555
H33 C61 1_555 1_555
C62 C61 1_555 1_555
H34 C62 1_555 1_555
C63 C62 1_555 1_555
H35 C63 1_555 1_555
C64 C59 1_555 1_555
C65 C64 1_555 1_555
H36 C65 1_555 1_555
C66 C65 1_555 1_555
C67 O17 1_555 1_555
C68 O15 1_555 1_555
C69 C49 1_555 1_555
Eu3 O18 1_555 1_555
O25 Eu2 1_555 1_555
O27 Eu2 1_555 1_555
C43 C44 1_555 1_555
C44 C45 1_555 1_555
O19 Eu3 1_555 1_555
C51 C56 1_555 1_555
C55 C56 1_555 1_555
C58 C67 1_555 1_555
C63 C64 1_555 1_555
C66 C67 1_555 1_555
C66 C68 1_555 1_555
C35_2 H44 1_555 1_555
O14 H45 1_555 1_555
O21 H48 1_555 1_555
O20 H50 1_555 1_555
O25 C23_2 1_555 1_555
O27 C23_2 1_555 1_555
O7_2 C2_2 1_555 1_555
C1_2 C2_2 1_555 1_555
C2_2 C3_2 1_555 1_555
C11_2 C1_2 1_555 1_555
H7_2 C11_2 1_555 1_555
H8_2 C11_2 1_555 1_555
C23_2 C3_2 1_555 1_555
O26 C69_2 1_555 1_555
O28 C69_2 1_555 1_555
O20_2 C48_2 1_555 1_555
C47_2 C48_2 1_555 1_555
C48_2 C49_2 1_555 1_555
C57_2 C47_2 1_555 1_555
H30_2 C57_2 1_555 1_555
H31_2 C57_2 1_555 1_555
C69_2 C49_2 1_555 1_555
O7_2 H37_2 1_555 1_555
O20_2 H50_2 1_555 1_555
Eu3 O1_2 1_555 1_555
O1_2 C34_2 1_555 1_555
O2_2 Eu3 1_555 1_555
O3_2 C22_2 1_555 1_555
O4_2 H1_2 1_555 1_555
O8_2 Eu3 1_555 1_555
O9_2 C34_2 1_555 1_555
O10_2 C25_2 1_555 1_555
O11 Eu3 1_555 1_555
C4_2 H2_2 1_555 1_555
C5_2 C4_2 1_555 1_555
C6_2 C5_2 1_555 1_555
H3_2 C6_2 1_555 1_555
C7_2 C6_2 1_555 1_555
H4_2 C7_2 1_555 1_555
C8_2 C7_2 1_555 1_555
H5_2 C8_2 1_555 1_555
C9_2 C8_2 1_555 1_555
H6_2 C9_2 1_555 1_555
C13_2 C12_2 1_555 1_555
C14_2 C13_2 1_555 1_555
H9_2 C14_2 1_555 1_555
C15_2 C14_2 1_555 1_555
H10_2 C15_2 1_555 1_555
C16_2 C15_2 1_555 1_555
H11_2 C16_2 1_555 1_555
C17_2 C16_2 1_555 1_555
H12_2 C17_2 1_555 1_555
C18_2 C13_2 1_555 1_555
C19_2 C18_2 1_555 1_555
H13_2 C19_2 1_555 1_555
C20_2 C19_2 1_555 1_555
C21_2 O4_2 1_555 1_555
C22_2 O2_2 1_555 1_555
C24_2 C25_2 1_555 1_555
C25_2 C26_2 1_555 1_555
C26_2 C27_2 1_555 1_555
C27_2 C28_2 1_555 1_555
C28_2 H14_2 1_555 1_555
C29_2 C28_2 1_555 1_555
H15_2 C29_2 1_555 1_555
C30_2 C29_2 1_555 1_555
H16_2 C30_2 1_555 1_555
C31_2 C30_2 1_555 1_555
H17_2 C31_2 1_555 1_555
C32_2 C27_2 1_555 1_555
C33_2 C24_2 1_555 1_555
H18_2 C33_2 1_555 1_555
C34_2 C24_2 1_555 1_555
C35_3 C26_2 1_555 1_555
O12_2 C46_2 1_555 1_555
O13_2 C46_2 1_555 1_555
O14_2 C37_2 1_555 1_555
C36_2 C37_2 1_555 1_555
C37_2 C38_2 1_555 1_555
C38_2 C35_3 1_555 1_555
C39_2 C38_2 1_555 1_555
C40_2 C39_2 1_555 1_555
H19_2 C40_2 1_555 1_555
C41_2 C40_2 1_555 1_555
H20_2 C41_2 1_555 1_555
C42_2 C41_2 1_555 1_555
H21_2 C42_2 1_555 1_555
C43_2 C42_2 1_555 1_555
H22_2 C43_2 1_555 1_555
C44_2 C39_2 1_555 1_555
C45_2 C36_2 1_555 1_555
H23_2 C45_2 1_555 1_555
C46_2 C36_2 1_555 1_555
Eu4 O12_2 1_555 1_555
O15_2 Eu4 1_555 1_555
O16_2 C68_2 1_555 1_555
O17_2 H24_2 1_555 1_555
O21_2 Eu4 1_555 1_555
C50_2 H25_2 1_555 1_555
C51_2 C50_2 1_555 1_555
C52_2 C51_2 1_555 1_555
H26_2 C52_2 1_555 1_555
C53_2 C52_2 1_555 1_555
H27_2 C53_2 1_555 1_555
C54_2 C53_2 1_555 1_555
H28_2 C54_2 1_555 1_555
C55_2 C54_2 1_555 1_555
H29_2 C55_2 1_555 1_555
C59_2 C58_2 1_555 1_555
C60_2 C59_2 1_555 1_555
H32_2 C60_2 1_555 1_555
C61_2 C60_2 1_555 1_555
H33_2 C61_2 1_555 1_555
C62_2 C61_2 1_555 1_555
H34_2 C62_2 1_555 1_555
C63_2 C62_2 1_555 1_555
H35_2 C63_2 1_555 1_555
C64_2 C59_2 1_555 1_555
C65_2 C64_2 1_555 1_555
H36_2 C65_2 1_555 1_555
C66_2 C65_2 1_555 1_555
C67_2 O17_2 1_555 1_555
C68_2 O15_2 1_555 1_555
Eu5_2 O3_2 1_555 1_555
O23_2 Eu3 1_555 1_555
O29_2 Eu3 1_555 1_555
O9_2 Eu5_2 1_555 1_555
C5_2 C10_2 1_555 1_555
C9_2 C10_2 1_555 1_555
C12_2 C21_2 1_555 1_555
C17_2 C18_2 1_555 1_555
C20_2 C21_2 1_555 1_555
C20_2 C22_2 1_555 1_555
C31_2 C32_2 1_555 1_555
C32_2 C33_2 1_555 1_555
C43_2 C44_2 1_555 1_555
C44_2 C45_2 1_555 1_555
C51_2 C56_2 1_555 1_555
C55_2 C56_2 1_555 1_555
C58_2 C67_2 1_555 1_555
C63_2 C64_2 1_555 1_555
C66_2 C67_2 1_555 1_555
C66_2 C68_2 1_555 1_555
O11 H38 1_555 1_555
O11 H39 1_555 1_555
O10_2 H40_2 1_555 1_555
O8_2 H41_2 1_555 1_555
O8_2 H42 1_555 1_555
C35_3 H43_2 1_555 1_555
C35_3 H44_2 1_555 1_555
O14_2 H45_2 1_555 1_555
O21_2 H48_2 1_555 1_555
O21_2 H49 1_555 1_555
O22 H46 1_555 1_555
O22 H47 1_555 1_555
O12_3 C46_3 1_555 1_555
O30_2 C46_3 1_555 1_555
O14_3 C37_3 1_555 1_555
C36_3 C37_3 1_555 1_555
C37_3 C38_3 1_555 1_555
C38_3 C35_4 1_555 1_555
C39_3 C38_3 1_555 1_555
C40_3 C39_3 1_555 1_555
H19_3 C40_3 1_555 1_555
C41_3 C40_3 1_555 1_555
H20_3 C41_3 1_555 1_555
C42_3 C41_3 1_555 1_555
H21_3 C42_3 1_555 1_555
C43_3 C42_3 1_555 1_555
H22_3 C43_3 1_555 1_555
C44_3 C39_3 1_555 1_555
C45_3 C36_3 1_555 1_555
H23_3 C45_3 1_555 1_555
C46_3 C36_3 1_555 1_555
Eu6_2 O12_3 1_555 1_555
O15_3 Eu6_2 1_555 1_555
O24_2 C68_3 1_555 1_555
O17_3 H24_3 1_555 1_555
O18_2 C69_3 1_555 1_555
O19_2 C69_3 1_555 1_555
O20_3 C48_3 1_555 1_555
O21_3 Eu6_2 1_555 1_555
C47_3 C48_3 1_555 1_555
C48_3 C49_3 1_555 1_555
C49_3 C50_3 1_555 1_555
C50_3 H25_3 1_555 1_555
C51_3 C50_3 1_555 1_555
C52_3 C51_3 1_555 1_555
H26_3 C52_3 1_555 1_555
C53_3 C52_3 1_555 1_555
H27_3 C53_3 1_555 1_555
C54_3 C53_3 1_555 1_555
H28_3 C54_3 1_555 1_555
C55_3 C54_3 1_555 1_555
H29_3 C55_3 1_555 1_555
C56_3 C47_3 1_555 1_555
C57_3 C47_3 1_555 1_555
H30_3 C57_3 1_555 1_555
H31_3 C57_3 1_555 1_555
C58_3 C57_3 1_555 1_555
C59_3 C58_3 1_555 1_555
C60_3 C59_3 1_555 1_555
H32_3 C60_3 1_555 1_555
C61_3 C60_3 1_555 1_555
H33_3 C61_3 1_555 1_555
C62_3 C61_3 1_555 1_555
H34_3 C62_3 1_555 1_555
C63_3 C62_3 1_555 1_555
H35_3 C63_3 1_555 1_555
C64_3 C59_3 1_555 1_555
C65_3 C64_3 1_555 1_555
H36_3 C65_3 1_555 1_555
C66_3 C65_3 1_555 1_555
C67_3 O17_3 1_555 1_555
C68_3 O15_3 1_555 1_555
C69_3 C49_3 1_555 1_555
Eu5 O18_2 1_555 1_555
O25_2 Eu6_2 1_555 1_555
O27_2 Eu6_2 1_555 1_555
C43_3 C44_3 1_555 1_555
C44_3 C45_3 1_555 1_555
O19_2 Eu5 1_555 1_555
C51_3 C56_3 1_555 1_555
C55_3 C56_3 1_555 1_555
C58_3 C67_3 1_555 1_555
C63_3 C64_3 1_555 1_555
C66_3 C67_3 1_555 1_555
C66_3 C68_3 1_555 1_555
C35_4 H44_3 1_555 1_555
O14_3 H45_3 1_555 1_555
O21_3 H48_3 1_555 1_555
O20_3 H50_3 1_555 1_555
Eu5_2 O1_3 1_555 1_555
O1_3 C34_3 1_555 1_555
O2_3 Eu5_2 1_555 1_555
O23_2 C22_3 1_555 1_555
O4_3 H1_3 1_555 1_555
O5_2 C23_3 1_555 1_555
O6_2 C23_3 1_555 1_555
O7_3 C2_3 1_555 1_555
O8_3 Eu5_2 1_555 1_555
O29_2 C34_3 1_555 1_555
O10_3 C25_3 1_555 1_555
C1_3 C2_3 1_555 1_555
C2_3 C3_3 1_555 1_555
C3_3 C4_3 1_555 1_555
C4_3 H2_3 1_555 1_555
C5_3 C4_3 1_555 1_555
C6_3 C5_3 1_555 1_555
H3_3 C6_3 1_555 1_555
C7_3 C6_3 1_555 1_555
H4_3 C7_3 1_555 1_555
C8_3 C7_3 1_555 1_555
H5_3 C8_3 1_555 1_555
C9_3 C8_3 1_555 1_555
H6_3 C9_3 1_555 1_555
C10_3 C1_3 1_555 1_555
C11_3 C1_3 1_555 1_555
H7_3 C11_3 1_555 1_555
H8_3 C11_3 1_555 1_555
C12_3 C11_3 1_555 1_555
C13_3 C12_3 1_555 1_555
C14_3 C13_3 1_555 1_555
H9_3 C14_3 1_555 1_555
C15_3 C14_3 1_555 1_555
H10_3 C15_3 1_555 1_555
C16_3 C15_3 1_555 1_555
H11_3 C16_3 1_555 1_555
C17_3 C16_3 1_555 1_555
H12_3 C17_3 1_555 1_555
C18_3 C13_3 1_555 1_555
C19_3 C18_3 1_555 1_555
H13_3 C19_3 1_555 1_555
C20_3 C19_3 1_555 1_555
C21_3 O4_3 1_555 1_555
C22_3 O2_3 1_555 1_555
C23_3 C3_3 1_555 1_555
C24_3 C25_3 1_555 1_555
C25_3 C26_3 1_555 1_555
C26_3 C27_3 1_555 1_555
C27_3 C28_3 1_555 1_555
C28_3 H14_3 1_555 1_555
C29_3 C28_3 1_555 1_555
H15_3 C29_3 1_555 1_555
C30_3 C29_3 1_555 1_555
H16_3 C30_3 1_555 1_555
C31_3 C30_3 1_555 1_555
H17_3 C31_3 1_555 1_555
C32_3 C27_3 1_555 1_555
C33_3 C24_3 1_555 1_555
H18_3 C33_3 1_555 1_555
C34_3 C24_3 1_555 1_555
C35_5 C26_3 1_555 1_555
Eu6 O5_2 1_555 1_555
O26_2 Eu5_2 1_555 1_555
O28_2 Eu5_2 1_555 1_555
O6_2 Eu6 1_555 1_555
C5_3 C10_3 1_555 1_555
C9_3 C10_3 1_555 1_555
C12_3 C21_3 1_555 1_555
C17_3 C18_3 1_555 1_555
C20_3 C21_3 1_555 1_555
C20_3 C22_3 1_555 1_555
C31_3 C32_3 1_555 1_555
C32_3 C33_3 1_555 1_555
O7_3 H37_3 1_555 1_555
O10_3 H40_3 1_555 1_555
O8_3 H41_3 1_555 1_555
C35_5 H43_3 1_555 1_555
O22_2 H46_2 1_555 1_555
O22_2 H47_2 1_555 1_555
Eu5 O1_4 1_555 1_555
O1_4 C34_4 1_555 1_555
O2_4 Eu5 1_555 1_555
O23 C22_4 1_555 1_555
O4_4 H1_4 1_555 1_555
O8_4 Eu5 1_555 1_555
O29 C34_4 1_555 1_555
O10_4 C25_4 1_555 1_555
O11_2 Eu5 1_555 1_555
C4_4 H2_4 1_555 1_555
C5_4 C4_4 1_555 1_555
C6_4 C5_4 1_555 1_555
H3_4 C6_4 1_555 1_555
C7_4 C6_4 1_555 1_555
H4_4 C7_4 1_555 1_555
C8_4 C7_4 1_555 1_555
H5_4 C8_4 1_555 1_555
C9_4 C8_4 1_555 1_555
H6_4 C9_4 1_555 1_555
C13_4 C12_4 1_555 1_555
C14_4 C13_4 1_555 1_555
H9_4 C14_4 1_555 1_555
C15_4 C14_4 1_555 1_555
H10_4 C15_4 1_555 1_555
C16_4 C15_4 1_555 1_555
H11_4 C16_4 1_555 1_555
C17_4 C16_4 1_555 1_555
H12_4 C17_4 1_555 1_555
C18_4 C13_4 1_555 1_555
C19_4 C18_4 1_555 1_555
H13_4 C19_4 1_555 1_555
C20_4 C19_4 1_555 1_555
C21_4 O4_4 1_555 1_555
C22_4 O2_4 1_555 1_555
C24_4 C25_4 1_555 1_555
C25_4 C26_4 1_555 1_555
C26_4 C27_4 1_555 1_555
C27_4 C28_4 1_555 1_555
C28_4 H14_4 1_555 1_555
C29_4 C28_4 1_555 1_555
H15_4 C29_4 1_555 1_555
C30_4 C29_4 1_555 1_555
H16_4 C30_4 1_555 1_555
C31_4 C30_4 1_555 1_555
H17_4 C31_4 1_555 1_555
C32_4 C27_4 1_555 1_555
C33_4 C24_4 1_555 1_555
H18_4 C33_4 1_555 1_555
C34_4 C24_4 1_555 1_555
C35_6 C26_4 1_555 1_555
O12_4 C46_4 1_555 1_555
O30 C46_4 1_555 1_555
O14_4 C37_4 1_555 1_555
C36_4 C37_4 1_555 1_555
C37_4 C38_4 1_555 1_555
C38_4 C35_6 1_555 1_555
C39_4 C38_4 1_555 1_555
C40_4 C39_4 1_555 1_555
H19_4 C40_4 1_555 1_555
C41_4 C40_4 1_555 1_555
H20_4 C41_4 1_555 1_555
C42_4 C41_4 1_555 1_555
H21_4 C42_4 1_555 1_555
C43_4 C42_4 1_555 1_555
H22_4 C43_4 1_555 1_555
C44_4 C39_4 1_555 1_555
C45_4 C36_4 1_555 1_555
H23_4 C45_4 1_555 1_555
C46_4 C36_4 1_555 1_555
Eu6 O12_4 1_555 1_555
O15_4 Eu6 1_555 1_555
O24 C68_4 1_555 1_555
O17_4 H24_4 1_555 1_555
O21_4 Eu6 1_555 1_555
C50_4 H25_4 1_555 1_555
C51_4 C50_4 1_555 1_555
C52_4 C51_4 1_555 1_555
H26_4 C52_4 1_555 1_555
C53_4 C52_4 1_555 1_555
H27_4 C53_4 1_555 1_555
C54_4 C53_4 1_555 1_555
H28_4 C54_4 1_555 1_555
C55_4 C54_4 1_555 1_555
H29_4 C55_4 1_555 1_555
C59_4 C58_4 1_555 1_555
C60_4 C59_4 1_555 1_555
H32_4 C60_4 1_555 1_555
C61_4 C60_4 1_555 1_555
H33_4 C61_4 1_555 1_555
C62_4 C61_4 1_555 1_555
H34_4 C62_4 1_555 1_555
C63_4 C62_4 1_555 1_555
H35_4 C63_4 1_555 1_555
C64_4 C59_4 1_555 1_555
C65_4 C64_4 1_555 1_555
H36_4 C65_4 1_555 1_555
C66_4 C65_4 1_555 1_555
C67_4 O17_4 1_555 1_555
C68_4 O15_4 1_555 1_555
C5_4 C10_4 1_555 1_555
C9_4 C10_4 1_555 1_555
C12_4 C21_4 1_555 1_555
C17_4 C18_4 1_555 1_555
C20_4 C21_4 1_555 1_555
C20_4 C22_4 1_555 1_555
C31_4 C32_4 1_555 1_555
C32_4 C33_4 1_555 1_555
C43_4 C44_4 1_555 1_555
C44_4 C45_4 1_555 1_555
C51_4 C56_4 1_555 1_555
C55_4 C56_4 1_555 1_555
C58_4 C67_4 1_555 1_555
C63_4 C64_4 1_555 1_555
C66_4 C67_4 1_555 1_555
C66_4 C68_4 1_555 1_555
O11_2 H38_2 1_555 1_555
O11_2 H39_2 1_555 1_555
O10_4 H40_4 1_555 1_555
O8_4 H41_4 1_555 1_555
O8_4 H42_2 1_555 1_555
C35_6 H43_4 1_555 1_555
C35_6 H44_4 1_555 1_555
O14_4 H45_4 1_555 1_555
O21_4 H48_4 1_555 1_555
O21_4 H49_2 1_555 1_555
O25_2 C23_4 1_555 1_555
O27_2 C23_4 1_555 1_555
O7_4 C2_4 1_555 1_555
C1_4 C2_4 1_555 1_555
C2_4 C3_4 1_555 1_555
C11_4 C1_4 1_555 1_555
H7_4 C11_4 1_555 1_555
H8_4 C11_4 1_555 1_555
C23_4 C3_4 1_555 1_555
O26_2 C69_4 1_555 1_555
O28_2 C69_4 1_555 1_555
O20_4 C48_4 1_555 1_555
C47_4 C48_4 1_555 1_555
C48_4 C49_4 1_555 1_555
C57_4 C47_4 1_555 1_555
H30_4 C57_4 1_555 1_555
H31_4 C57_4 1_555 1_555
C69_4 C49_4 1_555 1_555
O7_4 H37_4 1_555 1_555
O20_4 H50_4 1_555 1_555
O11_3 H38_3 1_555 1_555
O11_3 H39_3 1_555 1_555
O22_3 H46_3 1_555 1_555
O22_3 H47_3 1_555 1_555
O22_4 H46_4 1_555 1_555
O22_4 H47_4 1_555 1_555
O11_4 H38_4 1_555 1_555
O11_4 H39_4 1_555 1_555

#END
