
###############################################################################
#
# This file contains modified crystal structure data generated from the
# MOF subset of the Cambridge Structural Database (CSD) v543 
# hosted by the Cambridge Crystallographic Data Centre (CCDC).
#
# This work is licensed under the Creative Commons
# Attribution-NonCommercial-ShareAlike 4.0 International License.
# To view a copy of this license, visit
# http://creativecommons.org/licenses/by-nc-sa/4.0/
# or send a letter to
# Creative Commons, PO Box 1866, Mountain View, CA 94042, USA.
#
# CIF created using the CSD Python API on 29 September 2022
# The structure has been converted into the P1 space group
# The structure has a 3D framework
# The original CSD entry GIYJAB is in the monoclinic crystal system
# The framework has been calculated to contain at least 10.0% void space
# The void calculation uses a probe of radius 1.32A, grid spacing 0.4
#
###############################################################################

data_GIYJAB
_chemical_formula_moiety         '(C164 H120 Co8 N16 O32)n'
_symmetry_cell_setting           triclinic
_symmetry_space_group_name_H-M   'P 1'
_symmetry_Int_Tables_number      1
_space_group_name_Hall           'P 1'
loop_
_symmetry_equiv_pos_site_id
_symmetry_equiv_pos_as_xyz
1 x,y,z
_cell_length_a                   20.710(7)
_cell_length_b                   15.286(5)
_cell_length_c                   17.893(5)
_cell_angle_alpha                90
_cell_angle_beta                 102.560(5)
_cell_angle_gamma                90
_cell_volume                     5528.88
loop_
_atom_site_label
_atom_site_type_symbol
_atom_site_fract_x
_atom_site_fract_y
_atom_site_fract_z
O6 O 0.04008(17) 0.2870(2) 0.30349(19)
O8 O 0.4603(2) 0.1784(2) 0.6962(2)
C21 C 0.0380(4) 0.0157(4) 0.3099(4)
C22 C 0.0351(4) 0.1075(4) 0.3114(4)
H14 H 0.0573 0.1380 0.3543
C23 C 0.0000 0.1514(5) 0.2500
C24 C 0.0000 0.2497(5) 0.2500
H30 H 0.5789 0.0258 0.8330
C43 C 0.5000 0.0425(5) 0.7500
C44 C 0.5000 0.1415(5) 0.7500
O12 O 0.5397(2) 0.1784(2) 0.8038(2)
H38 H 0.4211 0.0258 0.6670
Co5 Co 0.05324(3) 0.41881(4) 0.31755(3)
Co10 Co 0.44743(3) 0.31008(4) 0.68139(4)
Co14 Co 0.55257(3) 0.31008(4) 0.81861(4)
N1 N 0.15483(17) 0.4179(3) 0.3536(2)
N2 N 0.1961(2) 0.4518(3) 0.3120(2)
H1 H 0.1833 0.4824 0.2711
N3 N 0.3890(2) 0.3125(3) 0.5730(2)
N4 N 0.4081(2) 0.2667(3) 0.5135(2)
H2 H 0.4420 0.2331 0.5180
O1 O 0.06812(17) 0.4163(2) 0.20013(18)
O5 O 0.04331(16) 0.5490(2) 0.30121(18)
O7 O 0.4595(2) 0.4420(2) 0.6970(2)
C1 C 0.0518(3) 0.4108(3) 0.1276(3)
C2 C 0.1067(2) 0.3963(3) 0.0850(3)
C3 C 0.1655(3) 0.3615(4) 0.1217(3)
H3 H 0.1716 0.3476 0.1734
C4 C 0.2173(3) 0.3460(5) 0.0843(3)
H4 H 0.2571 0.3228 0.1113
C5 C 0.2091(2) 0.3655(4) 0.0058(3)
C7 C 0.0982(2) 0.4172(3) 0.0078(3)
H7 H 0.3403 0.3636 0.0471
C15 C 0.0000 0.5890(5) 0.2500
C16 C 0.0000 0.6864(5) 0.2500
C17 C 0.0517(3) 0.7310(3) 0.2951(4)
H11 H 0.0859 0.7001 0.3261
C18 C 0.0533(3) 0.8226(4) 0.2950(4)
H12 H 0.0895 0.8517 0.3244
C19 C 0.0000 0.8719(5) 0.2500
C20 C 0.0000 0.9683(5) 0.2500
H13 H 0.0659 0.9862 0.3497
C25 C 0.1636(2) 0.3262(4) 0.4684(3)
H15 H 0.1165 0.3338 0.4553
H16 H 0.1808 0.3492 0.5187
H17 H 0.1740 0.2651 0.4675
C26 C 0.1940(2) 0.3736(3) 0.4118(3)
C27 C 0.2611(2) 0.3814(3) 0.4060(3)
C28 C 0.2617(3) 0.4315(4) 0.3433(3)
C29 C 0.3140(3) 0.4617(5) 0.3062(4)
H18 H 0.2949 0.4962 0.2621
H19 H 0.3363 0.4121 0.2907
H20 H 0.3450 0.4966 0.3416
C30 C 0.3053(3) 0.4200(4) 0.5896(3)
H21 H 0.3300 0.4190 0.6417
H22 H 0.2609 0.4005 0.5877
H23 H 0.3044 0.4786 0.5701
C31 C 0.3378(2) 0.3602(3) 0.5415(3)
C32 C 0.3172(2) 0.3431(4) 0.4612(3)
C33 C 0.3617(3) 0.2856(4) 0.4449(3)
C34 C 0.3670(5) 0.2349(7) 0.3734(4)
H24 H 0.3332 0.2544 0.3310
H25 H 0.3613 0.1736 0.3817
H26 H 0.4097 0.2447 0.3622
C35 C 0.5000 0.4785(4) 0.7500
C36 C 0.5000 0.5773(5) 0.7500
C37 C 0.5373(4) 0.6240(3) 0.8101(3)
H27 H 0.5633 0.5940 0.8510
C38 C 0.5368(3) 0.7144(4) 0.8109(3)
H28 H 0.5616 0.7440 0.8529
C39 C 0.5000 0.7619(4) 0.7500
C40 C 0.5000 0.8584(4) 0.7500
C41 C 0.5507(5) 0.9043(5) 0.7951(5)
H29 H 0.5870 0.8750 0.8240
C42 C 0.5472(5) 0.9959(5) 0.7973(5)
O11 O 0.5405(2) 0.4420(2) 0.8030(2)
C49 C 0.4627(4) 0.6240(3) 0.6899(3)
H35 H 0.4367 0.5940 0.6490
C50 C 0.4632(3) 0.7144(4) 0.6891(3)
H36 H 0.4384 0.7440 0.6471
C51 C 0.4493(5) 0.9043(5) 0.7049(5)
H37 H 0.4130 0.8750 0.6760
C52 C 0.4528(5) 0.9959(5) 0.7027(5)
O14 O 0.00760(16) 0.4164(2) 0.40925(19)
O18 O 0.5305(2) 0.3090(3) 0.6370(2)
O19 O 0.3875(2) 0.3092(3) 0.7572(2)
O3 O 0.4695(2) 0.3090(3) 0.8630(2)
C6 C 0.1478(2) 0.4032(4) 0.9698(3)
H5 H 0.1410 0.4189 0.9185
H6 H 0.0583 0.4411 0.9818
C8 C 0.2596(2) 0.3477(4) 0.9618(3)
C9 C 0.3272(3) 0.3519(5) 0.9950(3)
C10 C 0.3753(2) 0.3394(4) 0.9531(3)
H8 H 0.4196 0.3437 0.9774
C11 C 0.3586(2) 0.3205(4) 0.8758(3)
C12 C 0.2906(2) 0.3149(5) 0.8445(3)
H9 H 0.2771 0.3031 0.7925
C13 C 0.2429(3) 0.3256(5) 0.8855(3)
H10 H 0.1987 0.3179 0.8617
C14 C 0.4098(3) 0.3133(4) 0.8296(3)
C23_2 C 1.0000 0.1514(5) 0.2500
C24_2 C 1.0000 0.2497(5) 0.2500
O10 O 0.95992(17) 0.2870(2) 0.19651(19)
C47 C 0.9620(4) 0.0157(4) 0.1901(4)
C48 C 0.9649(4) 0.1075(4) 0.1886(4)
H34 H 0.9427 0.1380 0.1457
Co6 Co 0.94676(3) 0.41881(4) 0.18245(3)
O2 O 0.99240(16) 0.4164(2) 0.09075(19)
C15_2 C 1.0000 0.5890(5) 0.2500
C16_2 C 1.0000 0.6864(5) 0.2500
C19_2 C 1.0000 0.8719(5) 0.2500
C20_2 C 1.0000 0.9683(5) 0.2500
O9 O 0.95669(16) 0.5490(2) 0.19879(18)
C45 C 0.9483(3) 0.7310(3) 0.2049(4)
H31 H 0.9141 0.7001 0.1739
C46 C 0.9467(3) 0.8226(4) 0.2050(4)
H32 H 0.9105 0.8517 0.1756
H33 H 0.9341 0.9862 0.1503
N5 N 0.84517(17) 0.4179(3) 0.1464(2)
N6 N 0.8039(2) 0.4518(3) 0.1880(2)
H39 H 0.8167 0.4824 0.2289
O13 O 0.93188(17) 0.4163(2) 0.29987(18)
O16 O 0.6125(2) 0.3092(3) 0.7428(2)
C53 C 0.9482(3) 0.4108(3) 0.3724(3)
C54 C 0.8933(2) 0.3963(3) 0.4150(3)
C55 C 0.8345(3) 0.3615(4) 0.3783(3)
H41 H 0.8284 0.3476 0.3266
C56 C 0.7827(3) 0.3460(5) 0.4157(3)
H42 H 0.7429 0.3228 0.3887
C57 C 0.7909(2) 0.3655(4) 0.4942(3)
C58 C 0.8522(2) 0.4032(4) 0.5302(3)
H43 H 0.8590 0.4189 0.5815
C59 C 0.9018(2) 0.4172(3) 0.4922(3)
H44 H 0.9417 0.4411 0.5182
C60 C 0.7404(2) 0.3477(4) 0.5382(3)
C61 C 0.6728(3) 0.3519(5) 0.5050(3)
H45 H 0.6597 0.3636 0.4529
C62 C 0.6247(2) 0.3394(4) 0.5469(3)
H46 H 0.5804 0.3437 0.5226
C63 C 0.6414(2) 0.3205(4) 0.6242(3)
C64 C 0.7094(2) 0.3149(5) 0.6555(3)
H47 H 0.7229 0.3031 0.7075
C65 C 0.7571(3) 0.3256(5) 0.6145(3)
H48 H 0.8013 0.3179 0.6383
C66 C 0.5902(3) 0.3133(4) 0.6704(3)
C67 C 0.8364(2) 0.3262(4) 0.0316(3)
H49 H 0.8835 0.3338 0.0447
H51 H 0.8260 0.2651 0.0325
C68 C 0.8060(2) 0.3736(3) 0.0882(3)
C69 C 0.7389(2) 0.3814(3) 0.0940(3)
C70 C 0.7383(3) 0.4315(4) 0.1567(3)
C71 C 0.6860(3) 0.4617(5) 0.1938(4)
H52 H 0.7051 0.4962 0.2379
H53 H 0.6637 0.4121 0.2093
H54 H 0.6550 0.4966 0.1584
C74 C 0.6828(2) 0.3431(4) 0.0388(3)
C75 C 0.6383(3) 0.2856(4) 0.0551(3)
C76 C 0.6330(5) 0.2349(7) 0.1266(4)
H58 H 0.6668 0.2544 0.1690
H59 H 0.6387 0.1736 0.1183
H60 H 0.5903 0.2447 0.1378
N7 N 0.6110(2) 0.3125(3) 0.9270(2)
N8 N 0.5919(2) 0.2667(3) 0.9865(2)
H40 H 0.5580 0.2331 0.9820
H50 H 0.8192 0.3492 0.9813
C72 C 0.6947(3) 0.4200(4) 0.9104(3)
H55 H 0.6700 0.4190 0.8583
H56 H 0.7391 0.4005 0.9123
H57 H 0.6956 0.4786 0.9299
C73 C 0.6622(2) 0.3602(3) 0.9585(3)
Co4 Co 0.44743(3) 0.68992(4) 0.18139(4)
N7_2 N 0.3890(2) 0.6875(3) 0.0730(2)
N8_2 N 0.4081(2) 0.7333(3) 0.0135(2)
H40_2 H 0.4420 0.7669 0.0180
H50_2 H 0.1808 0.6508 0.0187
C72_2 C 0.3053(3) 0.5800(4) 0.0896(3)
H55_2 H 0.3300 0.5810 0.1417
H56_2 H 0.2609 0.5995 0.0877
H57_2 H 0.3044 0.5214 0.0701
C73_2 C 0.3378(2) 0.6398(3) 0.0415(3)
Co7 Co 0.55257(3) 0.68992(4) 0.31861(4)
O17 O 0.5305(2) 0.6910(3) 0.1370(2)
O20 O 0.3875(2) 0.6908(3) 0.2572(2)
O23 O 0.4595(2) 0.5580(2) 0.1970(2)
O25 O 0.4603(2) 0.8216(2) 0.1962(2)
O2_2 O 0.00760(16) 0.5836(2) 0.90925(19)
C15_3 C 0.0000 0.4110(5) 0.7500
C16_3 C 0.0000 0.3136(5) 0.7500
C19_3 C 0.0000 0.1281(5) 0.7500
C20_3 C 0.0000 0.0317(5) 0.7500
O9_2 O 0.04331(16) 0.4510(2) 0.80121(18)
C45_2 C 0.0517(3) 0.2690(3) 0.7951(4)
H31_2 H 0.0859 0.2999 0.8261
C46_2 C 0.0533(3) 0.1774(4) 0.7950(4)
H32_2 H 0.0895 0.1483 0.8244
H33_2 H 0.0659 0.0138 0.8497
Co3 Co 0.05324(3) 0.58119(4) 0.81755(3)
N5_2 N 0.15483(17) 0.5821(3) 0.8536(2)
N6_2 N 0.1961(2) 0.5482(3) 0.8120(2)
H39_2 H 0.1833 0.5176 0.7711
O13_2 O 0.06812(17) 0.5837(2) 0.70013(18)
O15 O 0.4695(2) 0.6910(3) 0.3630(2)
C53_2 C 0.0518(3) 0.5892(3) 0.6276(3)
C54_2 C 0.1067(2) 0.6037(3) 0.5850(3)
C55_2 C 0.1655(3) 0.6385(4) 0.6217(3)
H41_2 H 0.1716 0.6524 0.6734
C56_2 C 0.2173(3) 0.6540(5) 0.5843(3)
H42_2 H 0.2571 0.6772 0.6113
C57_2 C 0.2091(2) 0.6345(4) 0.5058(3)
C58_2 C 0.1478(2) 0.5968(4) 0.4698(3)
H43_2 H 0.1410 0.5811 0.4185
C59_2 C 0.0982(2) 0.5828(3) 0.5078(3)
H44_2 H 0.0583 0.5589 0.4818
C60_2 C 0.2596(2) 0.6523(4) 0.4618(3)
C61_2 C 0.3272(3) 0.6481(5) 0.4950(3)
H45_2 H 0.3403 0.6364 0.5471
C62_2 C 0.3753(2) 0.6606(4) 0.4531(3)
H46_2 H 0.4196 0.6563 0.4774
C63_2 C 0.3586(2) 0.6795(4) 0.3758(3)
C64_2 C 0.2906(2) 0.6851(5) 0.3445(3)
H47_2 H 0.2771 0.6969 0.2925
C65_2 C 0.2429(3) 0.6744(5) 0.3855(3)
H48_2 H 0.1987 0.6821 0.3617
C66_2 C 0.4098(3) 0.6867(4) 0.3296(3)
C67_2 C 0.1636(2) 0.6738(4) 0.9684(3)
H49_2 H 0.1165 0.6662 0.9553
H51_2 H 0.1740 0.7349 0.9675
C68_2 C 0.1940(2) 0.6264(3) 0.9118(3)
C69_2 C 0.2611(2) 0.6186(3) 0.9060(3)
C70_2 C 0.2617(3) 0.5685(4) 0.8433(3)
C71_2 C 0.3140(3) 0.5383(5) 0.8062(4)
H52_2 H 0.2949 0.5038 0.7621
H53_2 H 0.3363 0.5879 0.7907
H54_2 H 0.3450 0.5034 0.8416
C74_2 C 0.3172(2) 0.6569(4) 0.9612(3)
C75_2 C 0.3617(3) 0.7144(4) 0.9449(3)
C76_2 C 0.3670(5) 0.7651(7) 0.8734(4)
H58_2 H 0.3332 0.7456 0.8310
H59_2 H 0.3613 0.8264 0.8817
H60_2 H 0.4097 0.7553 0.8622
O22 O 0.04008(17) 0.7130(2) 0.80349(19)
C23_3 C 0.0000 0.8486(5) 0.7500
C24_3 C 0.0000 0.7503(5) 0.7500
C47_2 C 0.0380(4) 0.9843(4) 0.8099(4)
C48_2 C 0.0351(4) 0.8925(4) 0.8114(4)
H34_2 H 0.0573 0.8620 0.8543
O4 O 0.6125(2) 0.6908(3) 0.2428(2)
C6_2 C 0.8522(2) 0.5968(4) 0.0302(3)
H5_2 H 0.8590 0.5811 0.0815
H6_2 H 0.9417 0.5589 0.0182
C8_2 C 0.7404(2) 0.6523(4) 0.0382(3)
C9_2 C 0.6728(3) 0.6481(5) 0.0050(3)
C10_2 C 0.6247(2) 0.6606(4) 0.0469(3)
H8_2 H 0.5804 0.6563 0.0226
C11_2 C 0.6414(2) 0.6795(4) 0.1242(3)
C12_2 C 0.7094(2) 0.6851(5) 0.1555(3)
H9_2 H 0.7229 0.6969 0.2075
C13_2 C 0.7571(3) 0.6744(5) 0.1145(3)
H10_2 H 0.8013 0.6821 0.1383
C14_2 C 0.5902(3) 0.6867(4) 0.1704(3)
Co1 Co 0.94676(3) 0.58119(4) 0.68245(3)
N1_2 N 0.84517(17) 0.5821(3) 0.6464(2)
N2_2 N 0.8039(2) 0.5482(3) 0.6880(2)
H1_2 H 0.8167 0.5176 0.7289
N3_2 N 0.6110(2) 0.6875(3) 0.4270(2)
N4_2 N 0.5919(2) 0.7333(3) 0.4865(2)
H2_2 H 0.5580 0.7669 0.4820
O1_2 O 0.93188(17) 0.5837(2) 0.79987(18)
O5_2 O 0.95669(16) 0.4510(2) 0.69879(18)
O7_2 O 0.5405(2) 0.5580(2) 0.3030(2)
C1_2 C 0.9482(3) 0.5892(3) 0.8724(3)
C2_2 C 0.8933(2) 0.6037(3) 0.9150(3)
C3_2 C 0.8345(3) 0.6385(4) 0.8783(3)
H3_2 H 0.8284 0.6524 0.8266
C4_2 C 0.7827(3) 0.6540(5) 0.9157(3)
H4_2 H 0.7429 0.6772 0.8887
C5_2 C 0.7909(2) 0.6345(4) 0.9942(3)
C7_2 C 0.9018(2) 0.5828(3) 0.9922(3)
H7_2 H 0.6597 0.6364 0.9529
C15_4 C 1.0000 0.4110(5) 0.7500
C16_4 C 1.0000 0.3136(5) 0.7500
C17_2 C 0.9483(3) 0.2690(3) 0.7049(4)
H11_2 H 0.9141 0.2999 0.6739
C18_2 C 0.9467(3) 0.1774(4) 0.7050(4)
H12_2 H 0.9105 0.1483 0.6756
C19_4 C 1.0000 0.1281(5) 0.7500
C20_4 C 1.0000 0.0317(5) 0.7500
H13_2 H 0.9341 0.0138 0.6503
C25_2 C 0.8364(2) 0.6738(4) 0.5316(3)
H15_2 H 0.8835 0.6662 0.5447
H16_2 H 0.8192 0.6508 0.4813
H17_2 H 0.8260 0.7349 0.5325
C26_2 C 0.8060(2) 0.6264(3) 0.5882(3)
C27_2 C 0.7389(2) 0.6186(3) 0.5940(3)
C28_2 C 0.7383(3) 0.5685(4) 0.6567(3)
C29_2 C 0.6860(3) 0.5383(5) 0.6938(4)
H18_2 H 0.7051 0.5038 0.7379
H19_2 H 0.6637 0.5879 0.7093
H20_2 H 0.6550 0.5034 0.6584
C30_2 C 0.6947(3) 0.5800(4) 0.4104(3)
H21_2 H 0.6700 0.5810 0.3583
H22_2 H 0.7391 0.5995 0.4123
H23_2 H 0.6956 0.5214 0.4299
C31_2 C 0.6622(2) 0.6398(3) 0.4585(3)
C32_2 C 0.6828(2) 0.6569(4) 0.5388(3)
C33_2 C 0.6383(3) 0.7144(4) 0.5551(3)
C34_2 C 0.6330(5) 0.7651(7) 0.6266(4)
H24_2 H 0.6668 0.7456 0.6690
H25_2 H 0.6387 0.8264 0.6183
H26_2 H 0.5903 0.7553 0.6378
C35_2 C 0.5000 0.5215(4) 0.2500
C36_2 C 0.5000 0.4227(5) 0.2500
C37_2 C 0.4627(4) 0.3760(3) 0.1899(3)
H27_2 H 0.4367 0.4060 0.1490
C38_2 C 0.4632(3) 0.2856(4) 0.1891(3)
H28_2 H 0.4384 0.2560 0.1471
C39_2 C 0.5000 0.2381(4) 0.2500
C40_2 C 0.5000 0.1416(4) 0.2500
C41_2 C 0.4493(5) 0.0957(5) 0.2049(5)
H29_2 H 0.4130 0.1250 0.1760
C42_2 C 0.4528(5) 0.0041(5) 0.2027(5)
C49_2 C 0.5373(4) 0.3760(3) 0.3101(3)
H35_2 H 0.5633 0.4060 0.3510
C50_2 C 0.5368(3) 0.2856(4) 0.3109(3)
H36_2 H 0.5616 0.2560 0.3529
C51_2 C 0.5507(5) 0.0957(5) 0.2951(5)
H37_2 H 0.5870 0.1250 0.3240
C52_2 C 0.5472(5) 0.0041(5) 0.2973(5)
O14_2 O 0.99240(16) 0.5836(2) 0.59075(19)
O21 O 0.95992(17) 0.7130(2) 0.69651(19)
O24 O 0.5397(2) 0.8216(2) 0.3038(2)
C21_2 C 0.9620(4) 0.9843(4) 0.6901(4)
C22_2 C 0.9649(4) 0.8925(4) 0.6886(4)
H14_2 H 0.9427 0.8620 0.6457
C23_4 C 1.0000 0.8486(5) 0.7500
C24_4 C 1.0000 0.7503(5) 0.7500
H30_2 H 0.4211 0.9742 0.1670
C43_2 C 0.5000 0.9575(5) 0.2500
C44_2 C 0.5000 0.8585(5) 0.2500
H38_2 H 0.5789 0.9742 0.3330
loop_
_geom_bond_atom_site_label_1
_geom_bond_atom_site_label_2
_geom_bond_site_symmetry_1
_geom_bond_site_symmetry_2
O6 C24 1_555 1_555
O8 C44 1_555 1_555
C22 C21 1_555 1_555
H14 C22 1_555 1_555
C23 C22 1_555 1_555
C24 C23 1_555 1_555
C44 C43 1_555 1_555
O12 C44 1_555 1_555
Co5 O6 1_555 1_555
Co10 O8 1_555 1_555
Co14 O12 1_555 1_555
Co10 Co14 1_555 1_555
Co5 N1 1_555 1_555
Co10 N3 1_555 1_555
N1 N2 1_555 1_555
N2 H1 1_555 1_555
N3 N4 1_555 1_555
N4 H2 1_555 1_555
O1 Co5 1_555 1_555
O5 Co5 1_555 1_555
O7 Co10 1_555 1_555
C1 O1 1_555 1_555
C2 C1 1_555 1_555
C3 C2 1_555 1_555
H3 C3 1_555 1_555
C4 C3 1_555 1_555
H4 C4 1_555 1_555
C5 C4 1_555 1_555
C7 C2 1_555 1_555
C15 O5 1_555 1_555
C16 C15 1_555 1_555
C17 C16 1_555 1_555
H11 C17 1_555 1_555
C18 C17 1_555 1_555
H12 C18 1_555 1_555
C19 C18 1_555 1_555
C20 C19 1_555 1_555
C25 H15 1_555 1_555
H16 C25 1_555 1_555
H17 C25 1_555 1_555
C26 N1 1_555 1_555
C27 C26 1_555 1_555
C28 N2 1_555 1_555
C29 C28 1_555 1_555
H18 C29 1_555 1_555
H19 C29 1_555 1_555
H20 C29 1_555 1_555
C30 H21 1_555 1_555
H22 C30 1_555 1_555
H23 C30 1_555 1_555
C31 N3 1_555 1_555
C32 C27 1_555 1_555
C33 N4 1_555 1_555
C34 C33 1_555 1_555
H24 C34 1_555 1_555
H25 C34 1_555 1_555
H26 C34 1_555 1_555
C35 O7 1_555 1_555
C36 C35 1_555 1_555
C37 C36 1_555 1_555
H27 C37 1_555 1_555
C38 C37 1_555 1_555
H28 C38 1_555 1_555
C39 C38 1_555 1_555
C40 C39 1_555 1_555
C41 C40 1_555 1_555
H29 C41 1_555 1_555
C42 C41 1_555 1_555
O11 C35 1_555 1_555
C49 C36 1_555 1_555
H35 C49 1_555 1_555
C50 C39 1_555 1_555
H36 C50 1_555 1_555
C51 C40 1_555 1_555
H37 C51 1_555 1_555
O14 Co5 1_555 1_555
O18 Co10 1_555 1_555
O19 Co10 1_555 1_555
C25 C26 1_555 1_555
C27 C28 1_555 1_555
C30 C31 1_555 1_555
C31 C32 1_555 1_555
C32 C33 1_555 1_555
O11 Co14 1_555 1_555
C49 C50 1_555 1_555
C51 C52 1_555 1_555
O3 C14 1_555 1_555
O19 C14 1_555 1_555
H5 C6 1_555 1_555
C9 C8 1_555 1_555
C10 C9 1_555 1_555
H8 C10 1_555 1_555
C11 C10 1_555 1_555
C12 C11 1_555 1_555
H9 C12 1_555 1_555
C13 C8 1_555 1_555
H10 C13 1_555 1_555
C14 C11 1_555 1_555
Co14 O3 1_555 1_555
C12 C13 1_555 1_555
C24_2 C23_2 1_555 1_555
O10 C24_2 1_555 1_555
C48 C23_2 1_555 1_555
H34 C48 1_555 1_555
Co6 O10 1_555 1_555
C47 C48 1_555 1_555
C16_2 C15_2 1_555 1_555
C20_2 C19_2 1_555 1_555
O9 C15_2 1_555 1_555
C45 C16_2 1_555 1_555
H31 C45 1_555 1_555
C46 C19_2 1_555 1_555
H32 C46 1_555 1_555
N5 Co6 1_555 1_555
N6 N5 1_555 1_555
H39 N6 1_555 1_555
O13 Co6 1_555 1_555
O18 C66 1_555 1_555
O16 C66 1_555 1_555
C53 O13 1_555 1_555
C54 C53 1_555 1_555
C55 C54 1_555 1_555
H41 C55 1_555 1_555
C56 C55 1_555 1_555
H42 C56 1_555 1_555
C57 C56 1_555 1_555
C58 C57 1_555 1_555
H43 C58 1_555 1_555
C59 C54 1_555 1_555
H44 C59 1_555 1_555
C60 C57 1_555 1_555
C61 C60 1_555 1_555
H45 C61 1_555 1_555
C62 C61 1_555 1_555
H46 C62 1_555 1_555
C63 C62 1_555 1_555
C64 C63 1_555 1_555
H47 C64 1_555 1_555
C65 C60 1_555 1_555
H48 C65 1_555 1_555
C66 C63 1_555 1_555
C67 H49 1_555 1_555
H51 C67 1_555 1_555
C68 N5 1_555 1_555
C69 C68 1_555 1_555
C70 N6 1_555 1_555
C71 C70 1_555 1_555
H52 C71 1_555 1_555
H53 C71 1_555 1_555
H54 C71 1_555 1_555
C74 C69 1_555 1_555
C76 C75 1_555 1_555
H58 C76 1_555 1_555
H59 C76 1_555 1_555
H60 C76 1_555 1_555
Co14 O16 1_555 1_555
O2 Co6 1_555 1_555
O9 Co6 1_555 1_555
C45 C46 1_555 1_555
C58 C59 1_555 1_555
C64 C65 1_555 1_555
C67 C68 1_555 1_555
C69 C70 1_555 1_555
C74 C75 1_555 1_555
Co14 N7 1_555 1_555
N7 N8 1_555 1_555
N8 H40 1_555 1_555
C72 H55 1_555 1_555
H56 C72 1_555 1_555
H57 C72 1_555 1_555
C73 N7 1_555 1_555
C72 C73 1_555 1_555
Co4 N7_2 1_555 1_555
N7_2 N8_2 1_555 1_555
N8_2 H40_2 1_555 1_555
C72_2 H55_2 1_555 1_555
H56_2 C72_2 1_555 1_555
H57_2 C72_2 1_555 1_555
C73_2 N7_2 1_555 1_555
Co7 Co4 1_555 1_555
O17 Co4 1_555 1_555
O20 Co4 1_555 1_555
O23 Co4 1_555 1_555
O25 Co4 1_555 1_555
C72_2 C73_2 1_555 1_555
C16_3 C15_3 1_555 1_555
C20_3 C19_3 1_555 1_555
O9_2 C15_3 1_555 1_555
C45_2 C16_3 1_555 1_555
H31_2 C45_2 1_555 1_555
C46_2 C19_3 1_555 1_555
H32_2 C46_2 1_555 1_555
N5_2 Co3 1_555 1_555
N6_2 N5_2 1_555 1_555
H39_2 N6_2 1_555 1_555
O13_2 Co3 1_555 1_555
O15 C66_2 1_555 1_555
O20 C66_2 1_555 1_555
C53_2 O13_2 1_555 1_555
C54_2 C53_2 1_555 1_555
C55_2 C54_2 1_555 1_555
H41_2 C55_2 1_555 1_555
C56_2 C55_2 1_555 1_555
H42_2 C56_2 1_555 1_555
C57_2 C56_2 1_555 1_555
C58_2 C57_2 1_555 1_555
H43_2 C58_2 1_555 1_555
C59_2 C54_2 1_555 1_555
H44_2 C59_2 1_555 1_555
C60_2 C57_2 1_555 1_555
C61_2 C60_2 1_555 1_555
H45_2 C61_2 1_555 1_555
C62_2 C61_2 1_555 1_555
H46_2 C62_2 1_555 1_555
C63_2 C62_2 1_555 1_555
C64_2 C63_2 1_555 1_555
H47_2 C64_2 1_555 1_555
C65_2 C60_2 1_555 1_555
H48_2 C65_2 1_555 1_555
C66_2 C63_2 1_555 1_555
C67_2 H49_2 1_555 1_555
H51_2 C67_2 1_555 1_555
C68_2 N5_2 1_555 1_555
C69_2 C68_2 1_555 1_555
C70_2 N6_2 1_555 1_555
C71_2 C70_2 1_555 1_555
H52_2 C71_2 1_555 1_555
H53_2 C71_2 1_555 1_555
H54_2 C71_2 1_555 1_555
C74_2 C69_2 1_555 1_555
C76_2 C75_2 1_555 1_555
H58_2 C76_2 1_555 1_555
H59_2 C76_2 1_555 1_555
H60_2 C76_2 1_555 1_555
Co7 O15 1_555 1_555
O22 Co3 1_555 1_555
O2_2 Co3 1_555 1_555
O9_2 Co3 1_555 1_555
C45_2 C46_2 1_555 1_555
C58_2 C59_2 1_555 1_555
C64_2 C65_2 1_555 1_555
C67_2 C68_2 1_555 1_555
C69_2 C70_2 1_555 1_555
C74_2 C75_2 1_555 1_555
C24_3 C23_3 1_555 1_555
O22 C24_3 1_555 1_555
C48_2 C23_3 1_555 1_555
H34_2 C48_2 1_555 1_555
C47_2 C48_2 1_555 1_555
O17 C14_2 1_555 1_555
O4 C14_2 1_555 1_555
H5_2 C6_2 1_555 1_555
C9_2 C8_2 1_555 1_555
C10_2 C9_2 1_555 1_555
H8_2 C10_2 1_555 1_555
C11_2 C10_2 1_555 1_555
C12_2 C11_2 1_555 1_555
H9_2 C12_2 1_555 1_555
C13_2 C8_2 1_555 1_555
H10_2 C13_2 1_555 1_555
C14_2 C11_2 1_555 1_555
Co7 O4 1_555 1_555
C12_2 C13_2 1_555 1_555
Co1 N1_2 1_555 1_555
Co7 N3_2 1_555 1_555
N1_2 N2_2 1_555 1_555
N2_2 H1_2 1_555 1_555
N3_2 N4_2 1_555 1_555
N4_2 H2_2 1_555 1_555
O1_2 Co1 1_555 1_555
O5_2 Co1 1_555 1_555
O7_2 Co7 1_555 1_555
C1_2 O1_2 1_555 1_555
C2_2 C1_2 1_555 1_555
C3_2 C2_2 1_555 1_555
H3_2 C3_2 1_555 1_555
C4_2 C3_2 1_555 1_555
H4_2 C4_2 1_555 1_555
C5_2 C4_2 1_555 1_555
C7_2 C2_2 1_555 1_555
C15_4 O5_2 1_555 1_555
C16_4 C15_4 1_555 1_555
C17_2 C16_4 1_555 1_555
H11_2 C17_2 1_555 1_555
C18_2 C17_2 1_555 1_555
H12_2 C18_2 1_555 1_555
C19_4 C18_2 1_555 1_555
C20_4 C19_4 1_555 1_555
C25_2 H15_2 1_555 1_555
H16_2 C25_2 1_555 1_555
H17_2 C25_2 1_555 1_555
C26_2 N1_2 1_555 1_555
C27_2 C26_2 1_555 1_555
C28_2 N2_2 1_555 1_555
C29_2 C28_2 1_555 1_555
H18_2 C29_2 1_555 1_555
H19_2 C29_2 1_555 1_555
H20_2 C29_2 1_555 1_555
C30_2 H21_2 1_555 1_555
H22_2 C30_2 1_555 1_555
H23_2 C30_2 1_555 1_555
C31_2 N3_2 1_555 1_555
C32_2 C27_2 1_555 1_555
C33_2 N4_2 1_555 1_555
C34_2 C33_2 1_555 1_555
H24_2 C34_2 1_555 1_555
H25_2 C34_2 1_555 1_555
H26_2 C34_2 1_555 1_555
C35_2 O7_2 1_555 1_555
C36_2 C35_2 1_555 1_555
C37_2 C36_2 1_555 1_555
H27_2 C37_2 1_555 1_555
C38_2 C37_2 1_555 1_555
H28_2 C38_2 1_555 1_555
C39_2 C38_2 1_555 1_555
C40_2 C39_2 1_555 1_555
C41_2 C40_2 1_555 1_555
H29_2 C41_2 1_555 1_555
C42_2 C41_2 1_555 1_555
O23 C35_2 1_555 1_555
C49_2 C36_2 1_555 1_555
H35_2 C49_2 1_555 1_555
C50_2 C39_2 1_555 1_555
H36_2 C50_2 1_555 1_555
C51_2 C40_2 1_555 1_555
H37_2 C51_2 1_555 1_555
O14_2 Co1 1_555 1_555
O21 Co1 1_555 1_555
O24 Co7 1_555 1_555
C25_2 C26_2 1_555 1_555
C27_2 C28_2 1_555 1_555
C30_2 C31_2 1_555 1_555
C31_2 C32_2 1_555 1_555
C32_2 C33_2 1_555 1_555
C49_2 C50_2 1_555 1_555
C51_2 C52_2 1_555 1_555
O21 C24_4 1_555 1_555
O24 C44_2 1_555 1_555
C22_2 C21_2 1_555 1_555
H14_2 C22_2 1_555 1_555
C23_4 C22_2 1_555 1_555
C24_4 C23_4 1_555 1_555
C44_2 C43_2 1_555 1_555
O25 C44_2 1_555 1_555

#END
