
###############################################################################
#
# This file contains modified crystal structure data generated from the
# MOF subset of the Cambridge Structural Database (CSD) v543 
# hosted by the Cambridge Crystallographic Data Centre (CCDC).
#
# This work is licensed under the Creative Commons
# Attribution-NonCommercial-ShareAlike 4.0 International License.
# To view a copy of this license, visit
# http://creativecommons.org/licenses/by-nc-sa/4.0/
# or send a letter to
# Creative Commons, PO Box 1866, Mountain View, CA 94042, USA.
#
# CIF created using the CSD Python API on 29 September 2022
# The structure has been converted into the P1 space group
# The structure has a 3D framework
# The original CSD entry GIYSAJ is in the orthorhombic crystal system
# The framework has been calculated to contain at least 10.0% void space
# The void calculation uses a probe of radius 1.32A, grid spacing 0.4
#
###############################################################################

data_GIYSAJ
_chemical_formula_moiety         '(C206 H96 F72 La8 O47)n'
_symmetry_cell_setting           triclinic
_symmetry_space_group_name_H-M   'P 1'
_symmetry_Int_Tables_number      1
_space_group_name_Hall           'P 1'
loop_
_symmetry_equiv_pos_site_id
_symmetry_equiv_pos_as_xyz
1 x,y,z
_cell_length_a                   7.7910(9)
_cell_length_b                   21.372(3)
_cell_length_c                   36.997(3)
_cell_angle_alpha                90
_cell_angle_beta                 90
_cell_angle_gamma                90
_cell_volume                     6160.34
loop_
_atom_site_label
_atom_site_type_symbol
_atom_site_fract_x
_atom_site_fract_y
_atom_site_fract_z
C3 C 0.127(2) 0.3031(8) 0.3336(5)
H1 H 0.1856 0.3350 0.3217
C6 C 0.117(2) 0.1991(9) 0.3580(5)
C7 C 0.353(3) 0.1434(12) 0.3947(6)
C8 C 0.308(3) 0.1124(9) 0.3268(5)
C9 C 0.471(2) 0.0879(11) 0.3272(6)
H4 H 0.5378 0.0853 0.3479
C10 C 0.524(2) 0.0676(9) 0.2937(5)
H5 H 0.6299 0.0473 0.2931
C11 C 0.441(2) 0.0734(10) 0.2614(6)
C12 C 0.272(2) 0.0967(9) 0.2627(5)
H6 H 0.2049 0.0979 0.2419
C13 C 0.205(3) 0.1181(10) 0.2962(5)
H7 H 0.0951 0.1353 0.2977
C18 C 0.153(2) 0.6866(9) 0.4728(5)
C19 C 0.229(2) 0.6344(9) 0.4587(5)
H10 H 0.3417 0.6255 0.4653
C20 C 0.2500 0.7290(13) 0.5000
C21 C 0.5072(19) 0.0538(11) 0.2270(6)
C22 C 0.148(2) 0.5947(9) 0.4354(5)
H11 H 0.1989 0.5572 0.4284
C23 C 0.214(2) 0.2473(9) 0.3382(6)
H12 H 0.3244 0.2408 0.3295
C24 C 0.082(3) 0.0838(11) 0.3736(8)
C25 C 0.133(3) 0.7699(10) 0.5250(6)
C26 C 0.208(3) 0.1328(10) 0.3626(5)
F2 F 0.0190(17) 0.0916(9) 0.4079(4)
F3 F 0.2668(15) 0.1741(6) 0.4222(3)
F4 F 0.4738(16) 0.1811(8) 0.3840(4)
F5 F 0.1619(17) 0.0275(5) 0.3733(3)
F6 F 0.416(2) 0.0928(7) 0.4066(4)
F7 F 0.0580(18) 0.8133(8) 0.5038(4)
F8 F 0.2207(14) 0.7970(6) 0.5511(3)
F9 F 0.0031(9) 0.7341(9) 0.5387(4)
O3 O 0.4275(15) 0.0554(6) 0.1973(3)
O4 O 0.6629(15) 0.0328(6) 0.2260(3)
H16 H 0.0378 0.5853 0.1521
C36 C 0.024(2) 0.5676(9) 0.2063(5)
H17 H 0.1299 0.5473 0.2069
C40 C 0.606(2) 0.5702(9) 0.6050(5)
C41 C 0.5158(19) 0.6125(12) 0.5778(7)
C42 C 0.591(2) 0.6640(9) 0.5640(5)
H20 H 0.7015 0.6740 0.5715
C43 C 0.5119(19) 0.7022(12) 0.5396(7)
H21 H 0.5666 0.7381 0.5312
C44 C 0.347(2) 0.6866(9) 0.5272(5)
C45 C 0.271(2) 0.6344(9) 0.5413(5)
H22 H 0.1583 0.6255 0.5347
C46 C 0.0072(19) 0.5538(11) 0.2730(6)
C47 C 0.352(2) 0.5947(9) 0.5646(5)
H23 H 0.3011 0.5572 0.5716
C50 C 0.367(3) 0.7699(10) 0.4750(6)
F16 F 0.4420(18) 0.8133(8) 0.4962(4)
F17 F 0.2793(14) 0.7970(6) 0.4489(3)
F18 F 0.4969(9) 0.7341(9) 0.4613(4)
La3 La 0.20397(9) 0.50046(7) 0.33741(3)
La5 La 0.70397(9) 0.00046(7) 0.16259(3)
La6 La 0.29603(9) 0.50046(7) 0.66259(3)
La7 La 0.79603(9) 0.49954(7) 0.66259(3)
O8 O 0.5274(13) 0.5224(6) 0.6198(3)
O16 O 0.1629(15) 0.5328(6) 0.2740(3)
O19 O 0.7590(12) 0.5842(6) 0.6143(4)
La4 La 0.20397(9) 0.99954(7) 0.16259(3)
O10 O 0.4726(13) 0.0224(6) 0.1198(3)
O20 O 0.2410(12) 0.0842(6) 0.1143(4)
C1 C 0.891(2) 0.3781(9) 0.3409(6)
C2 C 0.965(2) 0.3155(11) 0.3449(7)
C4 C 0.876(2) 0.2694(9) 0.3635(5)
H2 H 0.7668 0.2784 0.3725
C5 C 0.944(2) 0.2098(10) 0.3692(5)
H3 H 0.8797 0.1782 0.3799
C14 C 0.894(2) 0.5702(9) 0.3950(5)
C15 C 0.9842(19) 0.6125(12) 0.4222(7)
C16 C 0.909(2) 0.6640(9) 0.4360(5)
H8 H 0.7985 0.6740 0.4285
C17 C 0.9881(19) 0.7022(12) 0.4604(7)
H9 H 0.9334 0.7381 0.4688
F1 F 0.9509(18) 0.0784(7) 0.3527(4)
La1 La 0.70397(9) 0.49954(7) 0.33741(3)
O1 O 0.7372(13) 0.3881(6) 0.3503(4)
O2 O 0.9726(13) 0.5224(6) 0.3802(3)
O5 O 0.7410(12) 0.5842(6) 0.3857(4)
O6 O 0.9768(13) 0.4232(8) 0.3260(4)
C27 C 0.391(2) 0.8781(9) 0.1591(6)
C28 C 0.465(2) 0.8155(11) 0.1551(7)
C29 C 0.627(2) 0.8031(8) 0.1664(5)
H13 H 0.6856 0.8350 0.1783
C30 C 0.376(2) 0.7694(9) 0.1365(5)
H14 H 0.2668 0.7784 0.1275
C31 C 0.444(2) 0.7098(10) 0.1308(5)
H15 H 0.3797 0.6782 0.1201
C32 C 0.617(2) 0.6991(9) 0.1420(5)
C33 C 0.853(3) 0.6434(12) 0.1053(6)
C34 C 0.808(3) 0.6124(9) 0.1732(5)
C35 C 0.971(2) 0.5879(11) 0.1728(6)
C37 C 0.941(2) 0.5734(10) 0.2386(6)
C38 C 0.772(2) 0.5967(9) 0.2373(5)
H18 H 0.7049 0.5979 0.2581
C39 C 0.705(3) 0.6181(10) 0.2038(5)
H19 H 0.5951 0.6353 0.2023
C48 C 0.714(2) 0.7473(9) 0.1618(6)
H24 H 0.8244 0.7408 0.1705
C49 C 0.582(3) 0.5838(11) 0.1264(8)
C51 C 0.708(3) 0.6328(10) 0.1374(5)
F10 F 0.4509(18) 0.5784(7) 0.1473(4)
F11 F 0.5190(17) 0.5916(9) 0.0921(4)
F12 F 0.7668(15) 0.6741(6) 0.0778(3)
F13 F 0.9738(16) 0.6811(8) 0.1160(4)
F14 F 0.6619(17) 0.5275(5) 0.1267(3)
F15 F 0.916(2) 0.5928(7) 0.0934(4)
O7 O 0.2372(13) 0.8881(6) 0.1497(4)
O9 O 0.4726(13) 0.4776(6) 0.3802(3)
O12 O 0.9275(15) 0.5554(6) 0.3027(3)
O13 O 0.4275(15) 0.4446(6) 0.3027(3)
O17 O 0.6629(15) 0.4672(6) 0.2740(3)
O18 O 0.1629(15) 0.9672(6) 0.2260(3)
O21 O 0.4768(13) 0.9232(8) 0.1740(4)
O22 O 0.4768(13) 0.5768(8) 0.3260(4)
O23 O 0.9768(13) 0.0768(8) 0.1740(4)
O11 O 0.9726(13) 0.9776(6) 0.1198(3)
O15 O 0.9275(15) 0.9446(6) 0.1973(3)
O10_2 O 0.0274(13) 0.0224(6) 0.8802(3)
O14 O 0.0725(15) 0.0554(6) 0.8027(3)
O20_2 O 0.2590(12) 0.0842(6) 0.8857(4)
O23_2 O 0.5232(13) 0.0768(8) 0.8260(4)
C27_2 C 0.109(2) 0.8781(9) 0.8409(6)
C28_2 C 0.035(2) 0.8155(11) 0.8449(7)
C30_2 C 0.124(2) 0.7694(9) 0.8635(5)
H14_2 H 0.2332 0.7784 0.8725
C31_2 C 0.056(2) 0.7098(10) 0.8692(5)
H15_2 H 0.1203 0.6782 0.8799
F10_2 F 0.0491(18) 0.5784(7) 0.8527(4)
La2 La 0.29603(9) 0.99954(7) 0.83741(3)
O7_2 O 0.2628(13) 0.8881(6) 0.8503(4)
O9_2 O 0.0274(13) 0.4776(6) 0.6198(3)
O11_2 O 0.5274(13) 0.9776(6) 0.8802(3)
O13_2 O 0.0725(15) 0.4446(6) 0.6973(3)
O15_2 O 0.5725(15) 0.9446(6) 0.8027(3)
O18_2 O 0.3371(15) 0.9672(6) 0.7740(3)
O21_2 O 0.0232(13) 0.9232(8) 0.8260(4)
O22_2 O 0.0232(13) 0.5768(8) 0.6740(4)
La8 La 0.79603(9) 0.00046(7) 0.83741(3)
C1_2 C 0.609(2) 0.3781(9) 0.6591(6)
C2_2 C 0.535(2) 0.3155(11) 0.6551(7)
C3_2 C 0.373(2) 0.3031(8) 0.6664(5)
H1_2 H 0.3144 0.3350 0.6783
C4_2 C 0.624(2) 0.2694(9) 0.6365(5)
H2_2 H 0.7332 0.2784 0.6275
C5_2 C 0.556(2) 0.2098(10) 0.6308(5)
H3_2 H 0.6203 0.1782 0.6201
C6_2 C 0.383(2) 0.1991(9) 0.6420(5)
C7_2 C 0.147(3) 0.1434(12) 0.6053(6)
C8_2 C 0.192(3) 0.1124(9) 0.6732(5)
C9_2 C 0.029(2) 0.0879(11) 0.6728(6)
C11_2 C 0.059(2) 0.0734(10) 0.7386(6)
C12_2 C 0.228(2) 0.0967(9) 0.7373(5)
H6_2 H 0.2951 0.0979 0.7581
C13_2 C 0.295(3) 0.1181(10) 0.7038(5)
H7_2 H 0.4049 0.1353 0.7023
C23_2 C 0.286(2) 0.2473(9) 0.6618(6)
H12_2 H 0.1756 0.2408 0.6705
C24_2 C 0.418(3) 0.0838(11) 0.6264(8)
C26_2 C 0.292(3) 0.1328(10) 0.6374(5)
F1_2 F 0.5491(18) 0.0784(7) 0.6473(4)
F2_2 F 0.4810(17) 0.0916(9) 0.5921(4)
F3_2 F 0.2332(15) 0.1741(6) 0.5778(3)
F4_2 F 0.0262(16) 0.1811(8) 0.6160(4)
F5_2 F 0.3381(17) 0.0275(5) 0.6267(3)
F6_2 F 0.084(2) 0.0928(7) 0.5934(4)
O1_2 O 0.7628(13) 0.3881(6) 0.6497(4)
O6_2 O 0.5232(13) 0.4232(8) 0.6740(4)
C29_2 C 0.873(2) 0.8031(8) 0.8336(5)
H13_2 H 0.8144 0.8350 0.8217
C32_2 C 0.883(2) 0.6991(9) 0.8580(5)
C33_2 C 0.647(3) 0.6434(12) 0.8947(6)
C34_2 C 0.692(3) 0.6124(9) 0.8268(5)
C35_2 C 0.529(2) 0.5879(11) 0.8272(6)
H16_2 H 0.4622 0.5853 0.8479
C36_2 C 0.476(2) 0.5676(9) 0.7937(5)
H17_2 H 0.3701 0.5473 0.7931
C37_2 C 0.559(2) 0.5734(10) 0.7614(6)
C38_2 C 0.728(2) 0.5967(9) 0.7627(5)
H18_2 H 0.7951 0.5979 0.7419
C39_2 C 0.795(3) 0.6181(10) 0.7962(5)
H19_2 H 0.9049 0.6353 0.7977
C46_2 C 0.4928(19) 0.5538(11) 0.7270(6)
C48_2 C 0.786(2) 0.7473(9) 0.8382(6)
H24_2 H 0.6756 0.7408 0.8295
C49_2 C 0.918(3) 0.5838(11) 0.8736(8)
C51_2 C 0.792(3) 0.6328(10) 0.8626(5)
F11_2 F 0.9810(17) 0.5916(9) 0.9079(4)
F12_2 F 0.7332(15) 0.6741(6) 0.9222(3)
F13_2 F 0.5262(16) 0.6811(8) 0.8840(4)
F14_2 F 0.8381(17) 0.5275(5) 0.8733(3)
F15_2 F 0.584(2) 0.5928(7) 0.9066(4)
O12_2 O 0.5725(15) 0.5554(6) 0.6973(3)
O16_2 O 0.3371(15) 0.5328(6) 0.7260(3)
O17_2 O 0.8371(15) 0.4672(6) 0.7260(3)
H4_2 H 0.9622 0.0853 0.6521
C10_2 C 0.976(2) 0.0676(9) 0.7063(5)
H5_2 H 0.8701 0.0473 0.7069
C21_2 C 0.9928(19) 0.0538(11) 0.7730(6)
O4_2 O 0.8371(15) 0.0328(6) 0.7740(3)
C27_3 C 0.109(2) 0.6219(9) 0.6591(6)
C28_3 C 0.035(2) 0.6845(11) 0.6551(7)
C30_3 C 0.124(2) 0.7306(9) 0.6365(5)
H14_3 H 0.2332 0.7216 0.6275
C31_3 C 0.056(2) 0.7902(10) 0.6308(5)
H15_3 H 0.1203 0.8218 0.6201
F10_3 F 0.0491(18) 0.9216(7) 0.6473(4)
O7_3 O 0.2628(13) 0.6119(6) 0.6497(4)
O20_3 O 0.2590(12) 0.4158(6) 0.6143(4)
C1_3 C 0.609(2) 0.1219(9) 0.8409(6)
C2_3 C 0.535(2) 0.1845(11) 0.8449(7)
C3_3 C 0.373(2) 0.1969(8) 0.8336(5)
H1_3 H 0.3144 0.1650 0.8217
C4_3 C 0.624(2) 0.2306(9) 0.8635(5)
H2_3 H 0.7332 0.2216 0.8725
C5_3 C 0.556(2) 0.2902(10) 0.8692(5)
H3_3 H 0.6203 0.3218 0.8799
C6_3 C 0.383(2) 0.3009(9) 0.8580(5)
C7_3 C 0.147(3) 0.3566(12) 0.8947(6)
C8_3 C 0.192(3) 0.3876(9) 0.8268(5)
C9_3 C 0.029(2) 0.4121(11) 0.8272(6)
C11_3 C 0.059(2) 0.4266(10) 0.7614(6)
C12_3 C 0.228(2) 0.4033(9) 0.7627(5)
H6_3 H 0.2951 0.4021 0.7419
C13_3 C 0.295(3) 0.3819(10) 0.7962(5)
H7_3 H 0.4049 0.3647 0.7977
C23_3 C 0.286(2) 0.2527(9) 0.8382(6)
H12_3 H 0.1756 0.2592 0.8295
C24_3 C 0.418(3) 0.4162(11) 0.8736(8)
C26_3 C 0.292(3) 0.3672(10) 0.8626(5)
F1_3 F 0.5491(18) 0.4216(7) 0.8527(4)
F2_3 F 0.4810(17) 0.4084(9) 0.9079(4)
F3_3 F 0.2332(15) 0.3259(6) 0.9222(3)
F4_3 F 0.0262(16) 0.3189(8) 0.8840(4)
F5_3 F 0.3381(17) 0.4725(5) 0.8733(3)
F6_3 F 0.084(2) 0.4072(7) 0.9066(4)
O1_3 O 0.7628(13) 0.1119(6) 0.8503(4)
C20_2 C 0.2500 0.7710(13) 0.0000
C25_2 C 0.367(3) 0.7301(10) 0.0250(6)
F7_2 F 0.4420(18) 0.6867(8) 0.0038(4)
F8_2 F 0.2793(14) 0.7030(6) 0.0511(3)
F9_2 F 0.4969(9) 0.7659(9) 0.0387(4)
C44_2 C 0.153(2) 0.8134(9) 0.0272(5)
C45_2 C 0.229(2) 0.8656(9) 0.0413(5)
H22_2 H 0.3417 0.8745 0.0347
C47_2 C 0.148(2) 0.9053(9) 0.0646(5)
H23_2 H 0.1989 0.9428 0.0716
C14_2 C 0.606(2) 0.9298(9) 0.8950(5)
C15_2 C 0.5158(19) 0.8875(12) 0.9222(7)
C16_2 C 0.591(2) 0.8360(9) 0.9360(5)
H8_2 H 0.7015 0.8260 0.9285
C17_2 C 0.5119(19) 0.7978(12) 0.9604(7)
H9_2 H 0.5666 0.7619 0.9688
C18_2 C 0.347(2) 0.8134(9) 0.9728(5)
C19_2 C 0.271(2) 0.8656(9) 0.9587(5)
H10_2 H 0.1583 0.8745 0.9653
C20_3 C 0.2500 0.7710(13) 1.0000
C22_2 C 0.352(2) 0.9053(9) 0.9354(5)
H11_2 H 0.3011 0.9428 0.9284
O5_2 O 0.7590(12) 0.9158(6) 0.8857(4)
C29_3 C 0.873(2) 0.6969(8) 0.6664(5)
H13_3 H 0.8144 0.6650 0.6783
C32_3 C 0.883(2) 0.8009(9) 0.6420(5)
C33_3 C 0.647(3) 0.8566(12) 0.6053(6)
C34_3 C 0.692(3) 0.8876(9) 0.6732(5)
C35_3 C 0.529(2) 0.9121(11) 0.6728(6)
H16_3 H 0.4622 0.9147 0.6521
C36_3 C 0.476(2) 0.9324(9) 0.7063(5)
H17_3 H 0.3701 0.9527 0.7069
C37_3 C 0.559(2) 0.9266(10) 0.7386(6)
C38_3 C 0.728(2) 0.9033(9) 0.7373(5)
H18_3 H 0.7951 0.9021 0.7581
C39_3 C 0.795(3) 0.8819(10) 0.7038(5)
H19_3 H 0.9049 0.8647 0.7023
C46_3 C 0.4928(19) 0.9462(11) 0.7730(6)
C48_3 C 0.786(2) 0.7527(9) 0.6618(6)
H24_3 H 0.6756 0.7592 0.6705
C49_3 C 0.918(3) 0.9162(11) 0.6264(8)
C50_2 C 0.133(3) 0.7301(10) 0.9750(6)
C51_3 C 0.792(3) 0.8672(10) 0.6374(5)
F11_3 F 0.9810(17) 0.9084(9) 0.5921(4)
F12_3 F 0.7332(15) 0.8259(6) 0.5778(3)
F13_3 F 0.5262(16) 0.8189(8) 0.6160(4)
F14_3 F 0.8381(17) 0.9725(5) 0.6267(3)
F15_3 F 0.584(2) 0.9072(7) 0.5934(4)
F16_2 F 0.0580(18) 0.6867(8) 0.9962(4)
F17_2 F 0.2207(14) 0.7030(6) 0.9489(3)
F18_2 F 0.0031(9) 0.7659(9) 0.9613(4)
H4_3 H 0.9622 0.4147 0.8479
C10_3 C 0.976(2) 0.4324(9) 0.7937(5)
H5_3 H 0.8701 0.4527 0.7931
C21_3 C 0.9928(19) 0.4462(11) 0.7270(6)
C40_2 C 0.894(2) 0.9298(9) 0.1050(5)
C41_2 C 0.9842(19) 0.8875(12) 0.0778(7)
C42_2 C 0.909(2) 0.8360(9) 0.0640(5)
H20_2 H 0.7985 0.8260 0.0715
C43_2 C 0.9881(19) 0.7978(12) 0.0396(7)
H21_2 H 0.9334 0.7619 0.0312
O19_2 O 0.7410(12) 0.9158(6) 0.1143(4)
C3_4 C 0.127(2) 0.1969(8) 0.1664(5)
H1_4 H 0.1856 0.1650 0.1783
C6_4 C 0.117(2) 0.3009(9) 0.1420(5)
C7_4 C 0.353(3) 0.3566(12) 0.1053(6)
C8_4 C 0.308(3) 0.3876(9) 0.1732(5)
C9_4 C 0.471(2) 0.4121(11) 0.1728(6)
H4_4 H 0.5378 0.4147 0.1521
C10_4 C 0.524(2) 0.4324(9) 0.2063(5)
H5_4 H 0.6299 0.4527 0.2069
C11_4 C 0.441(2) 0.4266(10) 0.2386(6)
C12_4 C 0.272(2) 0.4033(9) 0.2373(5)
H6_4 H 0.2049 0.4021 0.2581
C13_4 C 0.205(3) 0.3819(10) 0.2038(5)
H7_4 H 0.0951 0.3647 0.2023
C21_4 C 0.5072(19) 0.4462(11) 0.2730(6)
C23_4 C 0.214(2) 0.2527(9) 0.1618(6)
H12_4 H 0.3244 0.2592 0.1705
C24_4 C 0.082(3) 0.4162(11) 0.1264(8)
C26_4 C 0.208(3) 0.3672(10) 0.1374(5)
F2_4 F 0.0190(17) 0.4084(9) 0.0921(4)
F3_4 F 0.2668(15) 0.3259(6) 0.0778(3)
F4_4 F 0.4738(16) 0.3189(8) 0.1160(4)
F5_4 F 0.1619(17) 0.4725(5) 0.1267(3)
F6_4 F 0.416(2) 0.4072(7) 0.0934(4)
H16_4 H 0.0378 0.9147 0.3479
C36_4 C 0.024(2) 0.9324(9) 0.2937(5)
H17_4 H 0.1299 0.9527 0.2931
C46_4 C 0.0072(19) 0.9462(11) 0.2270(6)
C1_4 C 0.891(2) 0.1219(9) 0.1591(6)
C2_4 C 0.965(2) 0.1845(11) 0.1551(7)
C4_4 C 0.876(2) 0.2306(9) 0.1365(5)
H2_4 H 0.7668 0.2216 0.1275
C5_4 C 0.944(2) 0.2902(10) 0.1308(5)
H3_4 H 0.8797 0.3218 0.1201
F1_4 F 0.9509(18) 0.4216(7) 0.1473(4)
O1_4 O 0.7372(13) 0.1119(6) 0.1497(4)
C27_4 C 0.391(2) 0.6219(9) 0.3409(6)
C28_4 C 0.465(2) 0.6845(11) 0.3449(7)
C29_4 C 0.627(2) 0.6969(8) 0.3336(5)
H13_4 H 0.6856 0.6650 0.3217
C30_4 C 0.376(2) 0.7306(9) 0.3635(5)
H14_4 H 0.2668 0.7216 0.3725
C31_4 C 0.444(2) 0.7902(10) 0.3692(5)
H15_4 H 0.3797 0.8218 0.3799
C32_4 C 0.617(2) 0.8009(9) 0.3580(5)
C33_4 C 0.853(3) 0.8566(12) 0.3947(6)
C34_4 C 0.808(3) 0.8876(9) 0.3268(5)
C35_4 C 0.971(2) 0.9121(11) 0.3272(6)
C37_4 C 0.941(2) 0.9266(10) 0.2614(6)
C38_4 C 0.772(2) 0.9033(9) 0.2627(5)
H18_4 H 0.7049 0.9021 0.2419
C39_4 C 0.705(3) 0.8819(10) 0.2962(5)
H19_4 H 0.5951 0.8647 0.2977
C48_4 C 0.714(2) 0.7527(9) 0.3382(6)
H24_4 H 0.8244 0.7592 0.3295
C49_4 C 0.582(3) 0.9162(11) 0.3736(8)
C51_4 C 0.708(3) 0.8672(10) 0.3626(5)
F10_4 F 0.4509(18) 0.9216(7) 0.3527(4)
F11_4 F 0.5190(17) 0.9084(9) 0.4079(4)
F12_4 F 0.7668(15) 0.8259(6) 0.4222(3)
F13_4 F 0.9738(16) 0.8189(8) 0.3840(4)
F14_4 F 0.6619(17) 0.9725(5) 0.3733(3)
F15_4 F 0.916(2) 0.9072(7) 0.4066(4)
O7_4 O 0.2372(13) 0.6119(6) 0.3503(4)
O20_4 O 0.2410(12) 0.4158(6) 0.3857(4)
C14_3 C 0.106(2) 0.4298(9) 0.6050(5)
C15_3 C 0.0158(19) 0.3875(12) 0.5778(7)
C16_3 C 0.091(2) 0.3360(9) 0.5640(5)
H8_3 H 0.2015 0.3260 0.5715
C17_3 C 0.0119(19) 0.2978(12) 0.5396(7)
H9_3 H 0.0666 0.2619 0.5312
C18_3 C 0.847(2) 0.3134(9) 0.5272(5)
C19_3 C 0.771(2) 0.3656(9) 0.5413(5)
H10_3 H 0.6583 0.3745 0.5347
C20_4 C 0.7500 0.2710(13) 0.5000
C22_3 C 0.852(2) 0.4053(9) 0.5646(5)
H11_3 H 0.8011 0.4428 0.5716
C25_3 C 0.867(3) 0.2301(10) 0.4750(6)
F7_3 F 0.9420(18) 0.1867(8) 0.4962(4)
F8_3 F 0.7793(14) 0.2030(6) 0.4489(3)
F9_3 F 0.9969(9) 0.2659(9) 0.4613(4)
C40_3 C 0.394(2) 0.4298(9) 0.3950(5)
C41_3 C 0.4842(19) 0.3875(12) 0.4222(7)
C42_3 C 0.409(2) 0.3360(9) 0.4360(5)
H20_3 H 0.2985 0.3260 0.4285
C43_3 C 0.4881(19) 0.2978(12) 0.4604(7)
H21_3 H 0.4334 0.2619 0.4688
C44_3 C 0.653(2) 0.3134(9) 0.4728(5)
C45_3 C 0.729(2) 0.3656(9) 0.4587(5)
H22_3 H 0.8417 0.3745 0.4653
C47_3 C 0.648(2) 0.4053(9) 0.4354(5)
H23_3 H 0.6989 0.4428 0.4284
C50_3 C 0.633(3) 0.2301(10) 0.5250(6)
F16_3 F 0.5580(18) 0.1867(8) 0.5038(4)
F17_3 F 0.7207(14) 0.2030(6) 0.5511(3)
F18_3 F 0.5031(9) 0.2659(9) 0.5387(4)
C40_4 C 0.106(2) 0.0702(9) 0.8950(5)
C41_4 C 0.0158(19) 0.1125(12) 0.9222(7)
C42_4 C 0.091(2) 0.1640(9) 0.9360(5)
H20_4 H 0.2015 0.1740 0.9285
C43_4 C 0.0119(19) 0.2022(12) 0.9604(7)
H21_4 H 0.0666 0.2381 0.9688
C14_4 C 0.394(2) 0.0702(9) 0.1050(5)
C15_4 C 0.4842(19) 0.1125(12) 0.0778(7)
C16_4 C 0.409(2) 0.1640(9) 0.0640(5)
H8_4 H 0.2985 0.1740 0.0715
C17_4 C 0.4881(19) 0.2022(12) 0.0396(7)
H9_4 H 0.4334 0.2381 0.0312
C18_4 C 0.653(2) 0.1866(9) 0.0272(5)
C19_4 C 0.729(2) 0.1344(9) 0.0413(5)
H10_4 H 0.8417 0.1255 0.0347
C20_5 C 0.7500 0.2290(13) 0.0000
C22_4 C 0.648(2) 0.0947(9) 0.0646(5)
H11_4 H 0.6989 0.0572 0.0716
C50_4 C 0.867(3) 0.2699(10) 0.0250(6)
F16_4 F 0.9420(18) 0.3133(8) 0.0038(4)
F17_4 F 0.7793(14) 0.2970(6) 0.0511(3)
F18_4 F 0.9969(9) 0.2341(9) 0.0387(4)
C20_6 C 0.7500 0.2290(13) 1.0000
C25_4 C 0.633(3) 0.2699(10) 0.9750(6)
F7_4 F 0.5580(18) 0.3133(8) 0.9962(4)
F8_4 F 0.7207(14) 0.2970(6) 0.9489(3)
F9_4 F 0.5031(9) 0.2341(9) 0.9613(4)
C44_4 C 0.847(2) 0.1866(9) 0.9728(5)
C45_4 C 0.771(2) 0.1344(9) 0.9587(5)
H22_4 H 0.6583 0.1255 0.9653
C47_4 C 0.852(2) 0.0947(9) 0.9354(5)
H23_4 H 0.8011 0.0572 0.9284
loop_
_geom_bond_atom_site_label_1
_geom_bond_atom_site_label_2
_geom_bond_site_symmetry_1
_geom_bond_site_symmetry_2
C3 H1 1_555 1_555
C7 C26 1_555 1_555
C8 C9 1_555 1_555
C9 H4 1_555 1_555
C10 C9 1_555 1_555
H5 C10 1_555 1_555
C11 C10 1_555 1_555
C12 C11 1_555 1_555
H6 C12 1_555 1_555
C13 C8 1_555 1_555
H7 C13 1_555 1_555
C19 C18 1_555 1_555
H10 C19 1_555 1_555
C20 C18 1_555 1_555
C21 C11 1_555 1_555
H11 C22 1_555 1_555
C23 C3 1_555 1_555
H12 C23 1_555 1_555
C24 C26 1_555 1_555
C25 C20 1_555 1_555
C26 C6 1_555 1_555
F2 C24 1_555 1_555
F3 C7 1_555 1_555
F4 C7 1_555 1_555
F5 C24 1_555 1_555
F6 C7 1_555 1_555
F7 C25 1_555 1_555
F8 C25 1_555 1_555
F9 C25 1_555 1_555
O3 C21 1_555 1_555
O4 C21 1_555 1_555
H17 C36 1_555 1_555
C40 C41 1_555 1_555
C41 C42 1_555 1_555
C42 H20 1_555 1_555
C43 C42 1_555 1_555
H21 C43 1_555 1_555
C44 C20 1_555 1_555
C45 C44 1_555 1_555
H22 C45 1_555 1_555
C47 C41 1_555 1_555
H23 C47 1_555 1_555
C50 C20 1_555 1_555
F16 C50 1_555 1_555
F17 C50 1_555 1_555
F18 C50 1_555 1_555
La5 O3 1_555 1_555
La6 O8 1_555 1_555
La7 O8 1_555 1_555
O8 C40 1_555 1_555
O16 C46 1_555 1_555
O19 C40 1_555 1_555
C6 C23 1_555 1_555
C8 C26 1_555 1_555
C12 C13 1_555 1_555
C19 C22 1_555 1_555
O4 La5 1_555 1_555
C43 C44 1_555 1_555
C45 C47 1_555 1_555
La3 O16 1_555 1_555
La7 O19 1_555 1_555
La5 O10 1_555 1_555
C1 C2 1_555 1_555
C4 C2 1_555 1_555
H2 C4 1_555 1_555
C5 C4 1_555 1_555
H3 C5 1_555 1_555
C14 C15 1_555 1_555
C15 C16 1_555 1_555
C16 H8 1_555 1_555
C17 C16 1_555 1_555
H9 C17 1_555 1_555
La1 O1 1_555 1_555
O1 C1 1_555 1_555
O2 C14 1_555 1_555
O5 C14 1_555 1_555
O6 C1 1_555 1_555
C27 C28 1_555 1_555
C28 C29 1_555 1_555
C29 H13 1_555 1_555
C30 C28 1_555 1_555
H14 C30 1_555 1_555
C31 C30 1_555 1_555
H15 C31 1_555 1_555
C32 C31 1_555 1_555
C33 C51 1_555 1_555
C34 C35 1_555 1_555
C38 C37 1_555 1_555
H18 C38 1_555 1_555
C39 C34 1_555 1_555
H19 C39 1_555 1_555
C48 C29 1_555 1_555
H24 C48 1_555 1_555
C49 C51 1_555 1_555
C51 C32 1_555 1_555
F10 C49 1_555 1_555
F11 C49 1_555 1_555
F12 C33 1_555 1_555
F13 C33 1_555 1_555
F14 C49 1_555 1_555
F15 C33 1_555 1_555
La4 O7 1_555 1_555
O7 C27 1_555 1_555
O9 La1 1_555 1_555
O12 La1 1_555 1_555
O13 La1 1_555 1_555
O17 La1 1_555 1_555
O18 La4 1_555 1_555
O21 C27 1_555 1_555
O22 La1 1_555 1_555
La1 O2 1_555 1_555
La1 O5 1_555 1_555
La1 O6 1_555 1_555
C32 C48 1_555 1_555
C34 C51 1_555 1_555
C38 C39 1_555 1_555
La4 O21 1_555 1_555
C27_2 C28_2 1_555 1_555
C30_2 C28_2 1_555 1_555
H14_2 C30_2 1_555 1_555
C31_2 C30_2 1_555 1_555
H15_2 C31_2 1_555 1_555
La2 O7_2 1_555 1_555
O7_2 C27_2 1_555 1_555
O11_2 La2 1_555 1_555
O15_2 La2 1_555 1_555
O18_2 La2 1_555 1_555
O21_2 C27_2 1_555 1_555
La2 O21_2 1_555 1_555
C1_2 C2_2 1_555 1_555
C2_2 C3_2 1_555 1_555
C3_2 H1_2 1_555 1_555
C4_2 C2_2 1_555 1_555
H2_2 C4_2 1_555 1_555
C5_2 C4_2 1_555 1_555
H3_2 C5_2 1_555 1_555
C6_2 C5_2 1_555 1_555
C7_2 C26_2 1_555 1_555
C8_2 C9_2 1_555 1_555
C12_2 C11_2 1_555 1_555
H6_2 C12_2 1_555 1_555
C13_2 C8_2 1_555 1_555
H7_2 C13_2 1_555 1_555
C23_2 C3_2 1_555 1_555
H12_2 C23_2 1_555 1_555
C24_2 C26_2 1_555 1_555
C26_2 C6_2 1_555 1_555
F1_2 C24_2 1_555 1_555
F2_2 C24_2 1_555 1_555
F3_2 C7_2 1_555 1_555
F4_2 C7_2 1_555 1_555
F5_2 C24_2 1_555 1_555
F6_2 C7_2 1_555 1_555
La7 O1_2 1_555 1_555
O1_2 C1_2 1_555 1_555
O6_2 C1_2 1_555 1_555
C29_2 H13_2 1_555 1_555
C33_2 C51_2 1_555 1_555
C34_2 C35_2 1_555 1_555
C35_2 H16_2 1_555 1_555
C36_2 C35_2 1_555 1_555
H17_2 C36_2 1_555 1_555
C37_2 C36_2 1_555 1_555
C38_2 C37_2 1_555 1_555
H18_2 C38_2 1_555 1_555
C39_2 C34_2 1_555 1_555
H19_2 C39_2 1_555 1_555
C46_2 C37_2 1_555 1_555
C48_2 C29_2 1_555 1_555
H24_2 C48_2 1_555 1_555
C49_2 C51_2 1_555 1_555
C51_2 C32_2 1_555 1_555
F11_2 C49_2 1_555 1_555
F12_2 C33_2 1_555 1_555
F13_2 C33_2 1_555 1_555
F14_2 C49_2 1_555 1_555
F15_2 C33_2 1_555 1_555
O12_2 La7 1_555 1_555
O16_2 C46_2 1_555 1_555
O17_2 La7 1_555 1_555
C6_2 C23_2 1_555 1_555
C8_2 C26_2 1_555 1_555
C12_2 C13_2 1_555 1_555
La7 O6_2 1_555 1_555
O6_2 La6 1_555 1_555
C32_2 C48_2 1_555 1_555
C34_2 C51_2 1_555 1_555
C38_2 C39_2 1_555 1_555
C46_2 O12_2 1_555 1_555
La6 O12_2 1_555 1_555
La6 O16_2 1_555 1_555
H5_2 C10_2 1_555 1_555
O4_2 C21_2 1_555 1_555
O4_2 La8 1_555 1_555
C27_3 C28_3 1_555 1_555
C30_3 C28_3 1_555 1_555
H14_3 C30_3 1_555 1_555
C31_3 C30_3 1_555 1_555
H15_3 C31_3 1_555 1_555
La6 O7_3 1_555 1_555
O7_3 C27_3 1_555 1_555
O9_2 La6 1_555 1_555
O13_2 La6 1_555 1_555
O20_3 La6 1_555 1_555
O22_2 C27_3 1_555 1_555
La6 O22_2 1_555 1_555
C1_3 C2_3 1_555 1_555
C2_3 C3_3 1_555 1_555
C3_3 H1_3 1_555 1_555
C4_3 C2_3 1_555 1_555
H2_3 C4_3 1_555 1_555
C5_3 C4_3 1_555 1_555
H3_3 C5_3 1_555 1_555
C6_3 C5_3 1_555 1_555
C7_3 C26_3 1_555 1_555
C8_3 C9_3 1_555 1_555
C12_3 C11_3 1_555 1_555
H6_3 C12_3 1_555 1_555
C13_3 C8_3 1_555 1_555
H7_3 C13_3 1_555 1_555
C23_3 C3_3 1_555 1_555
H12_3 C23_3 1_555 1_555
C24_3 C26_3 1_555 1_555
C26_3 C6_3 1_555 1_555
F1_3 C24_3 1_555 1_555
F2_3 C24_3 1_555 1_555
F3_3 C7_3 1_555 1_555
F4_3 C7_3 1_555 1_555
F5_3 C24_3 1_555 1_555
F6_3 C7_3 1_555 1_555
La8 O1_3 1_555 1_555
O1_3 C1_3 1_555 1_555
O23_2 C1_3 1_555 1_555
C6_3 C23_3 1_555 1_555
C8_3 C26_3 1_555 1_555
C12_3 C13_3 1_555 1_555
La8 O23_2 1_555 1_555
C25_2 C20_2 1_555 1_555
F7_2 C25_2 1_555 1_555
F8_2 C25_2 1_555 1_555
F9_2 C25_2 1_555 1_555
C44_2 C20_2 1_555 1_555
C45_2 C44_2 1_555 1_555
H22_2 C45_2 1_555 1_555
H23_2 C47_2 1_555 1_555
C45_2 C47_2 1_555 1_555
C14_2 C15_2 1_555 1_555
C15_2 C16_2 1_555 1_555
C16_2 H8_2 1_555 1_555
C17_2 C16_2 1_555 1_555
H9_2 C17_2 1_555 1_555
C18_2 C17_2 1_555 1_555
C19_2 C18_2 1_555 1_555
H10_2 C19_2 1_555 1_555
C20_3 C18_2 1_555 1_555
C22_2 C15_2 1_555 1_555
H11_2 C22_2 1_555 1_555
O11_2 C14_2 1_555 1_555
O5_2 C14_2 1_555 1_555
C29_3 H13_3 1_555 1_555
C33_3 C51_3 1_555 1_555
C34_3 C35_3 1_555 1_555
C35_3 H16_3 1_555 1_555
C36_3 C35_3 1_555 1_555
H17_3 C36_3 1_555 1_555
C37_3 C36_3 1_555 1_555
C38_3 C37_3 1_555 1_555
H18_3 C38_3 1_555 1_555
C39_3 C34_3 1_555 1_555
H19_3 C39_3 1_555 1_555
C46_3 C37_3 1_555 1_555
C48_3 C29_3 1_555 1_555
H24_3 C48_3 1_555 1_555
C49_3 C51_3 1_555 1_555
C50_2 C20_3 1_555 1_555
C51_3 C32_3 1_555 1_555
F11_3 C49_3 1_555 1_555
F12_3 C33_3 1_555 1_555
F13_3 C33_3 1_555 1_555
F14_3 C49_3 1_555 1_555
F15_3 C33_3 1_555 1_555
F16_2 C50_2 1_555 1_555
F17_2 C50_2 1_555 1_555
F18_2 C50_2 1_555 1_555
O18_2 C46_3 1_555 1_555
C19_2 C22_2 1_555 1_555
C32_3 C48_3 1_555 1_555
C34_3 C51_3 1_555 1_555
C38_3 C39_3 1_555 1_555
C46_3 O15_2 1_555 1_555
H5_3 C10_3 1_555 1_555
O17_2 C21_3 1_555 1_555
C40_2 C41_2 1_555 1_555
C41_2 C42_2 1_555 1_555
C42_2 H20_2 1_555 1_555
C43_2 C42_2 1_555 1_555
H21_2 C43_2 1_555 1_555
O11 C40_2 1_555 1_555
O19_2 C40_2 1_555 1_555
C3_4 H1_4 1_555 1_555
C7_4 C26_4 1_555 1_555
C8_4 C9_4 1_555 1_555
C9_4 H4_4 1_555 1_555
C10_4 C9_4 1_555 1_555
H5_4 C10_4 1_555 1_555
C11_4 C10_4 1_555 1_555
C12_4 C11_4 1_555 1_555
H6_4 C12_4 1_555 1_555
C13_4 C8_4 1_555 1_555
H7_4 C13_4 1_555 1_555
C21_4 C11_4 1_555 1_555
C23_4 C3_4 1_555 1_555
H12_4 C23_4 1_555 1_555
C24_4 C26_4 1_555 1_555
C26_4 C6_4 1_555 1_555
F2_4 C24_4 1_555 1_555
F3_4 C7_4 1_555 1_555
F4_4 C7_4 1_555 1_555
F5_4 C24_4 1_555 1_555
F6_4 C7_4 1_555 1_555
O13 C21_4 1_555 1_555
O17 C21_4 1_555 1_555
La3 O13 1_555 1_555
C6_4 C23_4 1_555 1_555
C8_4 C26_4 1_555 1_555
C12_4 C13_4 1_555 1_555
H17_4 C36_4 1_555 1_555
O18 C46_4 1_555 1_555
C1_4 C2_4 1_555 1_555
C4_4 C2_4 1_555 1_555
H2_4 C4_4 1_555 1_555
C5_4 C4_4 1_555 1_555
H3_4 C5_4 1_555 1_555
La5 O1_4 1_555 1_555
O1_4 C1_4 1_555 1_555
O23 C1_4 1_555 1_555
La5 O23 1_555 1_555
C27_4 C28_4 1_555 1_555
C28_4 C29_4 1_555 1_555
C29_4 H13_4 1_555 1_555
C30_4 C28_4 1_555 1_555
H14_4 C30_4 1_555 1_555
C31_4 C30_4 1_555 1_555
H15_4 C31_4 1_555 1_555
C32_4 C31_4 1_555 1_555
C33_4 C51_4 1_555 1_555
C34_4 C35_4 1_555 1_555
C38_4 C37_4 1_555 1_555
H18_4 C38_4 1_555 1_555
C39_4 C34_4 1_555 1_555
H19_4 C39_4 1_555 1_555
C48_4 C29_4 1_555 1_555
H24_4 C48_4 1_555 1_555
C49_4 C51_4 1_555 1_555
C51_4 C32_4 1_555 1_555
F10_4 C49_4 1_555 1_555
F11_4 C49_4 1_555 1_555
F12_4 C33_4 1_555 1_555
F13_4 C33_4 1_555 1_555
F14_4 C49_4 1_555 1_555
F15_4 C33_4 1_555 1_555
La3 O7_4 1_555 1_555
O7_4 C27_4 1_555 1_555
O9 La3 1_555 1_555
O20_4 La3 1_555 1_555
O22 C27_4 1_555 1_555
C32_4 C48_4 1_555 1_555
C34_4 C51_4 1_555 1_555
C38_4 C39_4 1_555 1_555
La3 O22 1_555 1_555
C14_3 C15_3 1_555 1_555
C15_3 C16_3 1_555 1_555
C16_3 H8_3 1_555 1_555
C17_3 C16_3 1_555 1_555
H9_3 C17_3 1_555 1_555
O9_2 C14_3 1_555 1_555
O20_3 C14_3 1_555 1_555
C19_3 C18_3 1_555 1_555
H10_3 C19_3 1_555 1_555
C20_4 C18_3 1_555 1_555
H11_3 C22_3 1_555 1_555
C25_3 C20_4 1_555 1_555
F7_3 C25_3 1_555 1_555
F8_3 C25_3 1_555 1_555
F9_3 C25_3 1_555 1_555
C40_3 C41_3 1_555 1_555
C41_3 C42_3 1_555 1_555
C42_3 H20_3 1_555 1_555
C43_3 C42_3 1_555 1_555
H21_3 C43_3 1_555 1_555
C44_3 C20_4 1_555 1_555
C45_3 C44_3 1_555 1_555
H22_3 C45_3 1_555 1_555
C47_3 C41_3 1_555 1_555
H23_3 C47_3 1_555 1_555
C50_3 C20_4 1_555 1_555
F16_3 C50_3 1_555 1_555
F17_3 C50_3 1_555 1_555
F18_3 C50_3 1_555 1_555
O9 C40_3 1_555 1_555
O20_4 C40_3 1_555 1_555
C19_3 C22_3 1_555 1_555
C43_3 C44_3 1_555 1_555
C45_3 C47_3 1_555 1_555
C40_4 C41_4 1_555 1_555
C41_4 C42_4 1_555 1_555
C42_4 H20_4 1_555 1_555
C43_4 C42_4 1_555 1_555
H21_4 C43_4 1_555 1_555
O10_2 C40_4 1_555 1_555
O20_2 C40_4 1_555 1_555
C14_4 C15_4 1_555 1_555
C15_4 C16_4 1_555 1_555
C16_4 H8_4 1_555 1_555
C17_4 C16_4 1_555 1_555
H9_4 C17_4 1_555 1_555
C18_4 C17_4 1_555 1_555
C19_4 C18_4 1_555 1_555
H10_4 C19_4 1_555 1_555
C20_5 C18_4 1_555 1_555
C22_4 C15_4 1_555 1_555
H11_4 C22_4 1_555 1_555
O10 C14_4 1_555 1_555
O20 C14_4 1_555 1_555
C50_4 C20_5 1_555 1_555
F16_4 C50_4 1_555 1_555
F17_4 C50_4 1_555 1_555
F18_4 C50_4 1_555 1_555
C19_4 C22_4 1_555 1_555
C25_4 C20_6 1_555 1_555
F7_4 C25_4 1_555 1_555
F8_4 C25_4 1_555 1_555
F9_4 C25_4 1_555 1_555
C44_4 C20_6 1_555 1_555
C45_4 C44_4 1_555 1_555
H22_4 C45_4 1_555 1_555
H23_4 C47_4 1_555 1_555
C45_4 C47_4 1_555 1_555

#END
