
###############################################################################
#
# This file contains modified crystal structure data generated from the
# MOF subset of the Cambridge Structural Database (CSD) v543 
# hosted by the Cambridge Crystallographic Data Centre (CCDC).
#
# This work is licensed under the Creative Commons
# Attribution-NonCommercial-ShareAlike 4.0 International License.
# To view a copy of this license, visit
# http://creativecommons.org/licenses/by-nc-sa/4.0/
# or send a letter to
# Creative Commons, PO Box 1866, Mountain View, CA 94042, USA.
#
# CIF created using the CSD Python API on 29 September 2022
# The structure has been converted into the P1 space group
# The structure has a 3D framework
# The original CSD entry GIYTAK is in the triclinic crystal system
# The framework has been calculated to contain at least 10.0% void space
# The void calculation uses a probe of radius 1.32A, grid spacing 0.4
#
###############################################################################

data_GIYTAK
_chemical_formula_moiety         '(C36 H42 Cd5 N4 O12)n'
_symmetry_cell_setting           triclinic
_symmetry_space_group_name_H-M   'P 1'
_symmetry_Int_Tables_number      1
_space_group_name_Hall           'P 1'
loop_
_symmetry_equiv_pos_site_id
_symmetry_equiv_pos_as_xyz
1 x,y,z
_cell_length_a                   8.9436(14)
_cell_length_b                   9.4538(15)
_cell_length_c                   19.005(3)
_cell_angle_alpha                95.166(3)
_cell_angle_beta                 93.050(3)
_cell_angle_gamma                117.534(3)
_cell_volume                     1410.9
loop_
_atom_site_label
_atom_site_type_symbol
_atom_site_fract_x
_atom_site_fract_y
_atom_site_fract_z
Cd4 Cd 0.01638(4) 0.10181(4) 0.179222(16)
Cd9 Cd -0.0000 0.0000 0.0000
Cd9_2 Cd -0.0000 0.0000 1.0000
Cd9_3 Cd -0.0000 1.0000 0.0000
Cd9_4 Cd -0.0000 1.0000 1.0000
N1 N 0.1718(6) 0.2049(5) 0.2862(2)
O4 O 0.8021(4) 0.0135(4) 0.07139(18)
C10 C 0.2302(9) 0.3623(7) 0.3078(3)
H10 H 0.2024 0.4223 0.2785
C11 C 0.3286(9) 0.4387(7) 0.3707(3)
H11 H 0.3701 0.5490 0.3824
C12 C 0.3662(8) 0.3524(7) 0.4168(3)
C13 C 0.4697(9) 0.4239(8) 0.4863(3)
H12 H 0.4939 0.3572 0.5126
C14 C 0.3081(10) 0.1919(8) 0.3941(3)
H13 H 0.3351 0.1295 0.4221
C15 C 0.2110(9) 0.1239(7) 0.3305(3)
H14 H 0.1699 0.0141 0.3175
Cd6 Cd 0.98362(4) 0.89819(4) 0.820778(16)
Cd9_5 Cd 1.0000 0.0000 0.0000
N3 N 0.8282(6) 0.7951(5) 0.7138(2)
O17 O 0.1564(4) 0.3329(4) 0.13065(18)
O20 O 0.1378(4) 0.2674(3) 0.01373(18)
C28 C 0.7698(9) 0.6377(7) 0.6922(3)
H31 H 0.7976 0.5777 0.7215
C29 C 0.6714(9) 0.5613(7) 0.6293(3)
H32 H 0.6299 0.4510 0.6176
C30 C 0.6338(8) 0.6476(7) 0.5832(3)
C31 C 0.5303(9) 0.5761(8) 0.5137(3)
H33 H 0.5061 0.6428 0.4874
C32 C 0.6919(10) 0.8081(8) 0.6059(3)
H34 H 0.6649 0.8705 0.5779
C33 C 0.7890(9) 0.8761(7) 0.6695(3)
H35 H 0.8301 0.9859 0.6825
Cd9_6 Cd 1.0000 0.0000 1.0000
O12 O 0.2499(4) 0.1229(4) 0.83707(19)
O1 O 0.1383(4) 0.9976(4) 0.10409(17)
O2 O 0.1158(5) 0.8564(5) 0.1921(2)
O3 O 0.7501(4) 0.8771(4) 0.16293(19)
C1 C 0.1540(5) 0.8858(5) 0.1324(3)
C2 C 0.2322(5) 0.8008(5) 0.0881(2)
H1 H 0.2130 0.8094 0.0378
C3 C 0.1584(5) 0.6236(5) 0.0984(3)
H2 H 0.0387 0.5683 0.0812
H3 H 0.1691 0.6148 0.1487
C4 C 0.2495(5) 0.5421(5) 0.0585(2)
H4 H 0.2358 0.5496 0.0077
C5 C 0.4392(5) 0.6309(5) 0.0849(3)
H5 H 0.4543 0.6223 0.1350
H6 H 0.4968 0.5804 0.0594
C6 C 0.5184(5) 0.8077(5) 0.0744(2)
H7 H 0.5090 0.8155 0.0234
C7 C 0.4240(5) 0.8887(5) 0.1121(3)
H8 H 0.4421 0.8906 0.1630
H9 H 0.4709 0.9992 0.1022
C8 C 0.1748(5) 0.3657(5) 0.0688(2)
C9 C 0.7024(5) 0.9015(5) 0.1039(3)
Cd9_7 Cd 1.0000 1.0000 0.0000
Cd9_8 Cd 1.0000 1.0000 1.0000
N5 N 0.3038(10) 0.6591(11) 0.7976(4)
O15 O 0.1979(4) 0.9865(4) 0.92861(18)
O22 O 0.1447(5) 0.7768(5) 0.7752(2)
C34 C 0.1973(8) 0.7080(8) 0.8101(4)
H36 H 0.1530 0.6869 0.8534
C35 C 0.4270(19) 0.745(2) 0.7433(8)
H37 H 0.5401 0.8054 0.7669
H38 H 0.4237 0.6664 0.7066
H39 H 0.3938 0.8165 0.7225
C36 C 0.3591(18) 0.5736(19) 0.8431(7)
H40 H 0.3141 0.4638 0.8222
H41 H 0.4807 0.6235 0.8486
H42 H 0.3191 0.5770 0.8888
N2 N 0.6962(10) 0.3409(11) 0.2024(4)
O7 O 0.8553(5) 0.2232(5) 0.2248(2)
C16 C 0.8027(8) 0.2920(8) 0.1899(4)
H15 H 0.8470 0.3131 0.1466
C17 C 0.5730(19) 0.255(2) 0.2567(8)
H16 H 0.4599 0.1946 0.2331
H17 H 0.5763 0.3336 0.2934
H18 H 0.6062 0.1835 0.2775
C18 C 0.6409(18) 0.4264(19) 0.1569(7)
H19 H 0.6859 0.5362 0.1778
H20 H 0.5193 0.3765 0.1514
H21 H 0.6809 0.4230 0.1112
O8 O 0.8617(4) 0.0024(4) 0.89591(17)
O9 O 0.8842(5) 0.1436(5) 0.8079(2)
O16 O 0.8436(4) 0.6671(4) 0.86935(18)
O19 O 0.8622(4) 0.7326(3) 0.98627(18)
C19 C 0.8460(5) 0.1142(5) 0.8676(3)
C20 C 0.7678(5) 0.1992(5) 0.9119(2)
H22 H 0.7870 0.1906 0.9622
C21 C 0.8416(5) 0.3764(5) 0.9016(3)
H23 H 0.9613 0.4317 0.9188
H24 H 0.8309 0.3852 0.8513
C22 C 0.7505(5) 0.4579(5) 0.9415(2)
H25 H 0.7642 0.4504 0.9923
C23 C 0.5608(5) 0.3691(5) 0.9151(3)
H26 H 0.5457 0.3777 0.8650
H27 H 0.5032 0.4196 0.9406
C24 C 0.4816(5) 0.1923(5) 0.9256(2)
H28 H 0.4910 0.1845 0.9766
C25 C 0.5760(5) 0.1113(5) 0.8879(3)
H29 H 0.5579 0.1094 0.8370
H30 H 0.5291 0.0008 0.8978
C26 C 0.8252(5) 0.6343(5) 0.9312(2)
C27 C 0.2976(5) 0.0985(5) 0.8961(3)
loop_
_geom_bond_atom_site_label_1
_geom_bond_atom_site_label_2
_geom_bond_site_symmetry_1
_geom_bond_site_symmetry_2
Cd4 N1 1_555 1_555
N1 C10 1_555 1_555
C10 H10 1_555 1_555
C11 C10 1_555 1_555
H11 C11 1_555 1_555
C12 C11 1_555 1_555
C13 C12 1_555 1_555
H12 C13 1_555 1_555
C14 C12 1_555 1_555
H13 C14 1_555 1_555
C15 N1 1_555 1_555
H14 C15 1_555 1_555
Cd6 N3 1_555 1_555
Cd9_5 O4 1_555 1_555
N3 C28 1_555 1_555
O17 Cd4 1_555 1_555
O20 Cd9 1_555 1_555
C28 H31 1_555 1_555
C29 C28 1_555 1_555
H32 C29 1_555 1_555
C30 C29 1_555 1_555
C31 C13 1_555 1_555
H33 C31 1_555 1_555
C32 C30 1_555 1_555
H34 C32 1_555 1_555
C33 N3 1_555 1_555
H35 C33 1_555 1_555
C14 C15 1_555 1_555
C30 C31 1_555 1_555
C32 C33 1_555 1_555
Cd9_3 O1 1_555 1_555
O2 C1 1_555 1_555
O3 C9 1_555 1_555
O17 C8 1_555 1_555
O20 C8 1_555 1_555
C1 O1 1_555 1_555
C2 C1 1_555 1_555
H1 C2 1_555 1_555
C3 C2 1_555 1_555
H2 C3 1_555 1_555
H3 C3 1_555 1_555
C4 C3 1_555 1_555
H4 C4 1_555 1_555
C5 C4 1_555 1_555
H5 C5 1_555 1_555
H6 C5 1_555 1_555
C6 C5 1_555 1_555
H7 C6 1_555 1_555
C7 C2 1_555 1_555
H8 C7 1_555 1_555
H9 C7 1_555 1_555
C8 C4 1_555 1_555
C9 C6 1_555 1_555
C6 C7 1_555 1_555
N5 C34 1_555 1_555
O15 Cd9_4 1_555 1_555
C34 O22 1_555 1_555
H36 C34 1_555 1_555
C35 N5 1_555 1_555
H37 C35 1_555 1_555
H38 C35 1_555 1_555
H39 C35 1_555 1_555
C36 N5 1_555 1_555
H40 C36 1_555 1_555
H41 C36 1_555 1_555
H42 C36 1_555 1_555
N2 C16 1_555 1_555
C16 O7 1_555 1_555
H15 C16 1_555 1_555
C17 N2 1_555 1_555
H16 C17 1_555 1_555
H17 C17 1_555 1_555
H18 C17 1_555 1_555
C18 N2 1_555 1_555
H19 C18 1_555 1_555
H20 C18 1_555 1_555
H21 C18 1_555 1_555
Cd6 O16 1_555 1_555
Cd9_8 O19 1_555 1_555
O8 Cd9_6 1_555 1_555
O9 C19 1_555 1_555
O12 C27 1_555 1_555
O16 C26 1_555 1_555
O19 C26 1_555 1_555
C19 O8 1_555 1_555
C20 C19 1_555 1_555
H22 C20 1_555 1_555
C21 C20 1_555 1_555
H23 C21 1_555 1_555
H24 C21 1_555 1_555
C22 C21 1_555 1_555
H25 C22 1_555 1_555
C23 C22 1_555 1_555
H26 C23 1_555 1_555
H27 C23 1_555 1_555
C24 C23 1_555 1_555
H28 C24 1_555 1_555
C25 C20 1_555 1_555
H29 C25 1_555 1_555
H30 C25 1_555 1_555
C26 C22 1_555 1_555
C24 C25 1_555 1_555
C24 C27 1_555 1_555

#END
