
###############################################################################
#
# This file contains modified crystal structure data generated from the
# MOF subset of the Cambridge Structural Database (CSD) v543 
# hosted by the Cambridge Crystallographic Data Centre (CCDC).
#
# This work is licensed under the Creative Commons
# Attribution-NonCommercial-ShareAlike 4.0 International License.
# To view a copy of this license, visit
# http://creativecommons.org/licenses/by-nc-sa/4.0/
# or send a letter to
# Creative Commons, PO Box 1866, Mountain View, CA 94042, USA.
#
# CIF created using the CSD Python API on 29 September 2022
# The structure has been converted into the P1 space group
# The structure has a 3D framework
# The original CSD entry GIZVER is in the monoclinic crystal system
# The framework has been calculated to contain at least 10.0% void space
# The void calculation uses a probe of radius 1.32A, grid spacing 0.4
#
###############################################################################

data_GIZVER
_chemical_formula_moiety         '(C68 H60 Co12 O46)n'
_symmetry_cell_setting           triclinic
_symmetry_space_group_name_H-M   'P 1'
_symmetry_Int_Tables_number      1
_space_group_name_Hall           'P 1'
loop_
_symmetry_equiv_pos_site_id
_symmetry_equiv_pos_as_xyz
1 x,y,z
_cell_length_a                   9.9387(16)
_cell_length_b                   8.4653(14)
_cell_length_c                   25.115(4)
_cell_angle_alpha                90
_cell_angle_beta                 90.560(3)
_cell_angle_gamma                90
_cell_volume                     2112.93
loop_
_atom_site_label
_atom_site_type_symbol
_atom_site_fract_x
_atom_site_fract_y
_atom_site_fract_z
Co15 Co 0.0000 0.0000 0.5000
C24 C 0.0351(4) 0.8051(6) 0.88590(19)
Co7 Co 0.25494(7) 0.67333(8) 0.91237(3)
Co12 Co 0.18429(7) 0.79590(8) 0.59786(3)
Co15_2 Co 0.0000 1.0000 0.5000
O14 O 0.1375(3) 0.8491(4) 0.86076(13)
O17 O 0.0508(3) 0.7043(4) 0.92394(14)
O22 O 0.0160(4) 0.8646(4) 0.63211(14)
H16 H 0.9488 0.0100 0.8137
C20 C 0.7416(5) 0.0105(6) 0.81594(19)
C26 C 0.7191(5) 0.1310(6) 0.7712(2)
H19 H 0.7969 0.1997 0.7686
H20 H 0.6413 0.1958 0.7791
C27 C 0.6970(5) 0.0461(6) 0.71947(19)
C28 C 0.8039(5) 0.0007(6) 0.6890(2)
H21 H 0.8908 0.0193 0.7016
C32 C 0.5658(5) 0.0168(6) 0.6994(2)
H23 H 0.4913 0.0506 0.7184
Co8 Co 0.24506(7) 0.17333(8) 0.58763(3)
Co15_3 Co 1.0000 0.0000 0.5000
C1 C 0.1063(6) 0.1385(6) 0.1275(2)
C2 C 0.1248(5) 0.0326(6) 0.1688(2)
C4 C 0.3655(5) 0.0567(5) 0.15821(18)
H2 H 0.4529 0.0320 0.1689
C5 C 0.3435(5) 0.1630(6) 0.11549(19)
C6 C 0.2148(4) 0.2034(5) 0.10079(17)
H3 H 0.2002 0.2741 0.0730
C8 C 0.4610(4) 0.2439(6) 0.08950(18)
C12 C 0.2140(5) 0.0734(6) 0.3607(2)
C13 C 0.3410(4) 0.1059(6) 0.37869(18)
H7 H 0.3535 0.1572 0.4111
C14 C 0.4519(4) 0.0623(5) 0.34853(18)
C16 C 0.0927(5) 0.1167(6) 0.3926(2)
C17 C 0.5909(5) 0.1002(6) 0.36798(18)
Co1 Co 0.74506(7) 0.32667(8) 0.08763(3)
Co2 Co 0.68429(7) 0.70410(8) 0.09786(3)
Co3 Co 0.5000 0.5000 0.0000
O1 O 0.6806(4) 0.5138(4) 0.04284(14)
H9 H 0.7513 0.5351 0.0169
O4 O 0.4429(3) 0.2925(4) 0.04316(13)
O5 O 0.5667(3) 0.2570(4) 0.11703(14)
O7 O 0.1058(3) 0.1326(4) 0.44282(13)
O8 O 0.6075(3) 0.2157(4) 0.39800(13)
O9 O 0.6906(3) 0.0183(4) 0.35464(13)
O10 O 0.7127(4) 0.1836(4) 0.01879(14)
H11 H 0.6298 0.1597 0.0168
O11 O 0.6475(3) 0.8670(4) 0.04083(12)
H12 H 0.6418 0.8217 0.0107
H13 H 0.7116 0.9334 0.0405
O12 O 0.6857(3) 0.8833(4) 0.15785(13)
H14 H 0.7531 0.8687 0.1784
H15 H 0.6915 0.9739 0.1435
Co11 Co 0.81571(7) 0.20410(8) 0.40214(3)
O15 O 0.8625(3) 0.1509(4) 0.13924(13)
O18 O 0.9492(3) 0.2957(4) 0.07606(14)
O23 O 0.5160(4) 0.6354(4) 0.13211(14)
O27 O 0.3942(3) 0.6326(4) 0.05718(13)
O29 O 0.8925(3) 0.7157(4) 0.10200(13)
O32 O 0.8094(3) 0.5183(4) 0.14536(13)
H25 H 0.2717 0.7579 0.0080
Co3_2 Co 0.5000 0.5000 1.0000
H10 H 0.7283 0.2421 0.9920
C18 C 0.8937(6) 0.8615(6) 0.8725(2)
C19 C 0.8752(5) 0.9674(6) 0.8312(2)
C21 C 0.6345(5) 0.9433(5) 0.84179(18)
H17 H 0.5471 0.9680 0.8311
C22 C 0.6565(5) 0.8370(6) 0.88451(19)
C23 C 0.7852(4) 0.7966(5) 0.89921(17)
H18 H 0.7998 0.7259 0.9270
C25 C 0.5390(4) 0.7561(6) 0.91050(18)
C29 C 0.7860(5) 0.9266(6) 0.6393(2)
C30 C 0.6590(4) 0.8941(6) 0.62131(18)
H22 H 0.6465 0.8428 0.5889
C31 C 0.5481(4) 0.9377(5) 0.65147(18)
C33 C 0.9073(5) 0.8833(6) 0.6074(2)
C34 C 0.4091(5) 0.8998(6) 0.63202(18)
Co9 Co 0.31571(7) 0.29590(8) 0.90214(3)
Co15_4 Co 1.0000 1.0000 0.5000
O13 O 0.3194(4) 0.4862(4) 0.95716(14)
H24 H 0.2487 0.4649 0.9831
O20 O 0.5571(3) 0.7075(4) 0.95684(13)
O21 O 0.4333(3) 0.7430(4) 0.88297(14)
O24 O 0.4840(4) 0.3646(4) 0.86789(14)
O25 O 0.8942(3) 0.8674(4) 0.55718(13)
O26 O 0.6058(3) 0.3674(4) 0.94282(13)
O28 O 0.3925(3) 0.7843(4) 0.60200(13)
O30 O 0.1075(3) 0.2843(4) 0.89800(13)
O31 O 0.3094(3) 0.9817(4) 0.64536(13)
O33 O 0.1906(3) 0.4817(4) 0.85464(13)
O34 O 0.2873(4) 0.8164(4) 0.98121(14)
H26 H 0.3702 0.8403 0.9832
O35 O 0.3525(3) 0.1330(4) 0.95917(12)
H27 H 0.3582 0.1783 0.9893
H28 H 0.2884 0.0666 0.9595
O36 O 0.3143(3) 0.1167(4) 0.84215(13)
H29 H 0.2469 0.1313 0.8216
H30 H 0.3085 0.0261 0.8565
H1 H 0.0512 0.9900 0.1863
C3 C 0.2584(5) 0.9895(6) 0.18406(19)
C9 C 0.2809(5) 0.8690(6) 0.2288(2)
H4 H 0.2031 0.8003 0.2314
H5 H 0.3587 0.8042 0.2209
C10 C 0.3030(5) 0.9539(6) 0.28053(19)
C11 C 0.1961(5) 0.9993(6) 0.3110(2)
H6 H 0.1092 0.9807 0.2984
C15 C 0.4342(5) 0.9832(6) 0.3006(2)
H8 H 0.5087 0.9494 0.2816
Co6 Co 0.75494(7) 0.82667(8) 0.41237(3)
C7 C 0.9649(4) 0.1949(6) 0.11410(19)
O6 O 0.9840(4) 0.1354(4) 0.36789(14)
H23_2 H 0.0087 0.5506 0.7816
C34_2 C 0.0909(5) 0.3998(6) 0.86798(18)
O16 O 0.3625(3) 0.3491(4) 0.63924(13)
O19 O 0.4492(3) 0.2043(4) 0.57606(14)
O21_2 O 0.0667(3) 0.2430(4) 0.61703(14)
O34_2 O 0.2127(4) 0.3164(4) 0.51879(14)
H25_2 H 0.2283 0.2579 0.4920
H26_2 H 0.1298 0.3403 0.5168
C1_2 C 0.3937(6) 0.6385(6) 0.3725(2)
C2_2 C 0.3752(5) 0.5326(6) 0.3312(2)
H1_2 H 0.4488 0.4900 0.3137
C3_2 C 0.2416(5) 0.4895(6) 0.31594(19)
C4_2 C 0.1345(5) 0.5567(5) 0.34179(18)
H2_2 H 0.0471 0.5320 0.3311
C5_2 C 0.1565(5) 0.6630(6) 0.38451(19)
C6_2 C 0.2852(4) 0.7034(5) 0.39921(17)
H3_2 H 0.2998 0.7741 0.4270
C7_2 C 0.5351(4) 0.6949(6) 0.38590(19)
C8_2 C 0.0390(4) 0.7439(6) 0.41050(18)
C9_2 C 0.2191(5) 0.3690(6) 0.2712(2)
H4_2 H 0.2969 0.3003 0.2686
H5_2 H 0.1413 0.3042 0.2791
C10_2 C 0.1970(5) 0.4539(6) 0.21947(19)
C11_2 C 0.3039(5) 0.4993(6) 0.1890(2)
H6_2 H 0.3908 0.4807 0.2016
C12_2 C 0.2860(5) 0.5734(6) 0.1393(2)
C13_2 C 0.1590(4) 0.6059(6) 0.12131(18)
H7_2 H 0.1465 0.6572 0.0889
C14_2 C 0.0481(4) 0.5623(5) 0.15147(18)
C15_2 C 0.0658(5) 0.4832(6) 0.1994(2)
C16_2 C 0.4073(5) 0.6167(6) 0.1074(2)
O2 O 0.6375(3) 0.6509(4) 0.36076(13)
O3 O 0.5508(3) 0.7957(4) 0.42394(14)
O4_2 O 0.0571(3) 0.7925(4) 0.45684(13)
O13_2 O 0.1806(4) 0.9862(4) 0.54284(14)
H24_2 H 0.2513 0.9649 0.5169
O35_2 O 0.1475(3) 0.6330(4) 0.54083(12)
H27_2 H 0.1418 0.6783 0.5107
H28_2 H 0.2116 0.5666 0.5405
O36_2 O 0.1857(3) 0.6167(4) 0.65785(13)
H29_2 H 0.2531 0.6313 0.6784
H30_2 H 0.1915 0.5261 0.6435
O1_2 O 0.8194(4) 0.0138(4) 0.45716(14)
H9_2 H 0.7487 0.0351 0.4831
O11_2 O 0.8525(3) 0.3670(4) 0.45917(12)
H12_2 H 0.8582 0.3217 0.4893
H13_2 H 0.7884 0.4334 0.4595
O12_2 O 0.8143(3) 0.3833(4) 0.34215(13)
H14_2 H 0.7469 0.3687 0.3216
H15_2 H 0.8085 0.4739 0.3565
C18_2 C 0.6063(6) 0.3615(6) 0.6275(2)
C19_2 C 0.6248(5) 0.4674(6) 0.6688(2)
H16_2 H 0.5512 0.5100 0.6863
C20_2 C 0.7584(5) 0.5105(6) 0.68406(19)
C21_2 C 0.8655(5) 0.4433(5) 0.65821(18)
H17_2 H 0.9529 0.4680 0.6689
C22_2 C 0.8435(5) 0.3370(6) 0.61549(19)
C23_2 C 0.7148(4) 0.2966(5) 0.60079(17)
H18_2 H 0.7002 0.2259 0.5730
C24_2 C 0.4649(4) 0.3051(6) 0.61410(19)
C25_2 C 0.9610(4) 0.2561(6) 0.58950(18)
C26_2 C 0.7809(5) 0.6310(6) 0.7288(2)
H19_2 H 0.7031 0.6997 0.7314
H20_2 H 0.8587 0.6958 0.7209
C27_2 C 0.8030(5) 0.5461(6) 0.78053(19)
C28_2 C 0.6961(5) 0.5007(6) 0.8110(2)
H21_2 H 0.6092 0.5193 0.7984
C29_2 C 0.7140(5) 0.4266(6) 0.8607(2)
C30_2 C 0.8410(4) 0.3941(6) 0.87869(18)
H22_2 H 0.8535 0.3428 0.9111
C31_2 C 0.9519(4) 0.4377(5) 0.84853(18)
C32_2 C 0.9342(5) 0.5168(6) 0.8006(2)
C33_2 C 0.5927(5) 0.3833(6) 0.8926(2)
O20_2 O 0.9429(3) 0.2075(4) 0.54316(13)
H8_2 H 0.9913 0.4494 0.2184
C17_2 C 0.9091(5) 0.6002(6) 0.13202(18)
O5_2 O 0.9333(3) 0.7570(4) 0.38297(14)
O10_2 O 0.7873(4) 0.6836(4) 0.48121(14)
H10_2 H 0.7717 0.7421 0.5080
H11_2 H 0.8702 0.6597 0.4832
loop_
_geom_bond_atom_site_label_1
_geom_bond_atom_site_label_2
_geom_bond_site_symmetry_1
_geom_bond_site_symmetry_2
Co7 O14 1_555 1_555
Co12 O22 1_555 1_555
O14 C24 1_555 1_555
O17 C24 1_555 1_555
Co7 O17 1_555 1_555
C26 C20 1_555 1_555
H19 C26 1_555 1_555
H20 C26 1_555 1_555
C27 C26 1_555 1_555
C28 C27 1_555 1_555
H21 C28 1_555 1_555
C32 C27 1_555 1_555
H23 C32 1_555 1_555
C1 C2 1_555 1_555
H2 C4 1_555 1_555
C5 C4 1_555 1_555
C6 C1 1_555 1_555
H3 C6 1_555 1_555
C8 C5 1_555 1_555
C13 C12 1_555 1_555
H7 C13 1_555 1_555
C14 C13 1_555 1_555
C16 C12 1_555 1_555
C17 C14 1_555 1_555
Co1 O1 1_555 1_555
Co2 O1 1_555 1_555
Co3 O1 1_555 1_555
O1 H9 1_555 1_555
O4 C8 1_555 1_555
O5 C8 1_555 1_555
O7 C16 1_555 1_555
O8 C17 1_555 1_555
O9 C17 1_555 1_555
O10 Co1 1_555 1_555
H11 O10 1_555 1_555
O11 Co2 1_555 1_555
H12 O11 1_555 1_555
H13 O11 1_555 1_555
O12 Co2 1_555 1_555
H14 O12 1_555 1_555
H15 O12 1_555 1_555
Co11 O8 1_555 1_555
Co15 O7 1_555 1_555
O15 Co1 1_555 1_555
O18 Co1 1_555 1_555
O23 Co2 1_555 1_555
O27 Co3 1_555 1_555
O29 Co2 1_555 1_555
O32 Co1 1_555 1_555
C5 C6 1_555 1_555
Co1 O5 1_555 1_555
Co2 O32 1_555 1_555
Co3 O4 1_555 1_555
O9 Co11 1_555 1_555
C18 C19 1_555 1_555
H17 C21 1_555 1_555
C22 C21 1_555 1_555
C23 C18 1_555 1_555
H18 C23 1_555 1_555
C25 C22 1_555 1_555
C30 C29 1_555 1_555
H22 C30 1_555 1_555
C31 C30 1_555 1_555
C33 C29 1_555 1_555
C34 C31 1_555 1_555
Co7 O13 1_555 1_555
Co9 O13 1_555 1_555
Co12 O28 1_555 1_555
Co15_4 O25 1_555 1_555
O13 Co3_2 1_555 1_555
H24 O13 1_555 1_555
O20 Co3_2 1_555 1_555
O21 C25 1_555 1_555
O24 Co9 1_555 1_555
O25 C33 1_555 1_555
O26 Co3_2 1_555 1_555
O28 C34 1_555 1_555
O30 Co9 1_555 1_555
O31 C34 1_555 1_555
O33 Co7 1_555 1_555
O34 Co7 1_555 1_555
H26 O34 1_555 1_555
O35 Co9 1_555 1_555
H27 O35 1_555 1_555
H28 O35 1_555 1_555
O36 Co9 1_555 1_555
H29 O36 1_555 1_555
H30 O36 1_555 1_555
C22 C23 1_555 1_555
C25 O20 1_555 1_555
Co7 O21 1_555 1_555
Co9 O33 1_555 1_555
Co12 O31 1_555 1_555
C9 C3 1_555 1_555
H4 C9 1_555 1_555
H5 C9 1_555 1_555
C10 C9 1_555 1_555
C11 C10 1_555 1_555
H6 C11 1_555 1_555
C15 C10 1_555 1_555
H8 C15 1_555 1_555
O15 C7 1_555 1_555
O18 C7 1_555 1_555
Co11 O6 1_555 1_555
O16 Co8 1_555 1_555
O19 Co8 1_555 1_555
O30 C34_2 1_555 1_555
O33 C34_2 1_555 1_555
O34_2 Co8 1_555 1_555
H25_2 O34_2 1_555 1_555
H26_2 O34_2 1_555 1_555
Co8 O21_2 1_555 1_555
C1_2 C2_2 1_555 1_555
C2_2 H1_2 1_555 1_555
C3_2 C2_2 1_555 1_555
C4_2 C3_2 1_555 1_555
H2_2 C4_2 1_555 1_555
C5_2 C4_2 1_555 1_555
C6_2 C1_2 1_555 1_555
H3_2 C6_2 1_555 1_555
C7_2 C1_2 1_555 1_555
C8_2 C5_2 1_555 1_555
C9_2 C3_2 1_555 1_555
H4_2 C9_2 1_555 1_555
H5_2 C9_2 1_555 1_555
C10_2 C9_2 1_555 1_555
C11_2 C10_2 1_555 1_555
H6_2 C11_2 1_555 1_555
C12_2 C11_2 1_555 1_555
C13_2 C12_2 1_555 1_555
H7_2 C13_2 1_555 1_555
C14_2 C13_2 1_555 1_555
C15_2 C10_2 1_555 1_555
C16_2 C12_2 1_555 1_555
O2 C7_2 1_555 1_555
O3 C7_2 1_555 1_555
O4_2 C8_2 1_555 1_555
O23 C16_2 1_555 1_555
O27 C16_2 1_555 1_555
Co6 O2 1_555 1_555
Co12 O13_2 1_555 1_555
O13_2 Co15_2 1_555 1_555
H24_2 O13_2 1_555 1_555
O35_2 Co12 1_555 1_555
H27_2 O35_2 1_555 1_555
H28_2 O35_2 1_555 1_555
O36_2 Co12 1_555 1_555
H29_2 O36_2 1_555 1_555
H30_2 O36_2 1_555 1_555
C5_2 C6_2 1_555 1_555
C14_2 C15_2 1_555 1_555
Co15_2 O4_2 1_555 1_555
O3 Co6 1_555 1_555
Co11 O1_2 1_555 1_555
Co15_3 O1_2 1_555 1_555
O1_2 H9_2 1_555 1_555
O11_2 Co11 1_555 1_555
H12_2 O11_2 1_555 1_555
H13_2 O11_2 1_555 1_555
O12_2 Co11 1_555 1_555
H14_2 O12_2 1_555 1_555
H15_2 O12_2 1_555 1_555
C18_2 C19_2 1_555 1_555
C19_2 H16_2 1_555 1_555
C20_2 C19_2 1_555 1_555
C21_2 C20_2 1_555 1_555
H17_2 C21_2 1_555 1_555
C22_2 C21_2 1_555 1_555
C23_2 C18_2 1_555 1_555
H18_2 C23_2 1_555 1_555
C24_2 C18_2 1_555 1_555
C25_2 C22_2 1_555 1_555
C26_2 C20_2 1_555 1_555
H19_2 C26_2 1_555 1_555
H20_2 C26_2 1_555 1_555
C27_2 C26_2 1_555 1_555
C28_2 C27_2 1_555 1_555
H21_2 C28_2 1_555 1_555
C29_2 C28_2 1_555 1_555
C30_2 C29_2 1_555 1_555
H22_2 C30_2 1_555 1_555
C31_2 C30_2 1_555 1_555
C32_2 C27_2 1_555 1_555
C33_2 C29_2 1_555 1_555
O16 C24_2 1_555 1_555
O19 C24_2 1_555 1_555
O20_2 Co15_3 1_555 1_555
O24 C33_2 1_555 1_555
O26 C33_2 1_555 1_555
C22_2 C23_2 1_555 1_555
C25_2 O20_2 1_555 1_555
C31_2 C32_2 1_555 1_555
O29 C17_2 1_555 1_555
O32 C17_2 1_555 1_555
O10_2 Co6 1_555 1_555
H10_2 O10_2 1_555 1_555
H11_2 O10_2 1_555 1_555
Co6 O5_2 1_555 1_555

#END
