
###############################################################################
#
# This file contains modified crystal structure data generated from the
# MOF subset of the Cambridge Structural Database (CSD) v543 
# hosted by the Cambridge Crystallographic Data Centre (CCDC).
#
# This work is licensed under the Creative Commons
# Attribution-NonCommercial-ShareAlike 4.0 International License.
# To view a copy of this license, visit
# http://creativecommons.org/licenses/by-nc-sa/4.0/
# or send a letter to
# Creative Commons, PO Box 1866, Mountain View, CA 94042, USA.
#
# CIF created using the CSD Python API on 29 September 2022
# The structure has been converted into the P1 space group
# The structure has a 3D framework
# The original CSD entry GOBFUZ is in the cubic crystal system
# The framework has been calculated to contain at least 10.0% void space
# The void calculation uses a probe of radius 1.32A, grid spacing 0.4
# The framework is charged, counterions have been retained in the structure
#
###############################################################################

data_GOBFUZ
_chemical_formula_moiety         '(C216 H72 In19 K30 N72 Na30 O144 49+)n'
_symmetry_cell_setting           triclinic
_symmetry_space_group_name_H-M   'P 1'
_symmetry_Int_Tables_number      1
_space_group_name_Hall           'P 1'
loop_
_symmetry_equiv_pos_site_id
_symmetry_equiv_pos_as_xyz
1 x,y,z
_cell_length_a                   18.761(4)
_cell_length_b                   18.761(4)
_cell_length_c                   18.761(4)
_cell_angle_alpha                90
_cell_angle_beta                 90
_cell_angle_gamma                90
_cell_volume                     6603.41
loop_
_atom_site_label
_atom_site_type_symbol
_atom_site_fract_x
_atom_site_fract_y
_atom_site_fract_z
K1 K 0.0000 0.2189(5) 0.0000
K1_2 K 0.0000 0.2189(5) 1.0000
K1_3 K 1.0000 0.2189(5) 0.0000
K1_4 K 1.0000 0.2189(5) 1.0000
K1_5 K 0.0000 0.0000 0.2189(5)
K1_6 K 0.0000 1.0000 0.2189(5)
K1_7 K 1.0000 0.0000 0.2189(5)
K1_8 K 1.0000 1.0000 0.2189(5)
K1_9 K 0.2189(5) 0.0000 0.0000
K1_10 K 0.2189(5) 0.0000 1.0000
K1_11 K 0.2189(5) 1.0000 0.0000
K1_12 K 0.2189(5) 1.0000 1.0000
K1_13 K 0.7811(5) 0.0000 0.0000
K1_14 K 0.7811(5) 0.0000 1.0000
K1_15 K 0.7811(5) 1.0000 0.0000
K1_16 K 0.7811(5) 1.0000 1.0000
K1_17 K 0.0000 0.0000 0.7811(5)
K1_18 K 0.0000 1.0000 0.7811(5)
K1_19 K 1.0000 0.0000 0.7811(5)
K1_20 K 1.0000 1.0000 0.7811(5)
K1_21 K -0.0000 0.7811(5) 0.0000
K1_22 K 0.0000 0.7811(5) 1.0000
K1_23 K 1.0000 0.7811(5) 0.0000
K1_24 K 1.0000 0.7811(5) 1.0000
K1_25 K 0.5000 0.7189(5) 0.5000
K1_26 K 0.5000 0.5000 0.7189(5)
K1_27 K 0.7189(5) 0.5000 0.5000
K1_28 K 0.2811(5) 0.5000 0.5000
K1_29 K 0.5000 0.5000 0.2811(5)
K1_30 K 0.5000 0.2811(5) 0.5000
Na1 Na 0.0000 0.3202(18) 0.0000
Na1_2 Na 0.0000 0.3202(18) 1.0000
Na1_3 Na 1.0000 0.3202(18) 0.0000
Na1_4 Na 1.0000 0.3202(18) 1.0000
Na1_5 Na 0.0000 0.0000 0.3202(18)
Na1_6 Na 0.0000 1.0000 0.3202(18)
Na1_7 Na 1.0000 0.0000 0.3202(18)
Na1_8 Na 1.0000 1.0000 0.3202(18)
Na1_9 Na 0.3202(18) 0.0000 0.0000
Na1_10 Na 0.3202(18) 0.0000 1.0000
Na1_11 Na 0.3202(18) 1.0000 0.0000
Na1_12 Na 0.3202(18) 1.0000 1.0000
Na1_13 Na 0.6798(18) 0.0000 0.0000
Na1_14 Na 0.6798(18) 0.0000 1.0000
Na1_15 Na 0.6798(18) 1.0000 0.0000
Na1_16 Na 0.6798(18) 1.0000 1.0000
Na1_17 Na 0.0000 0.0000 0.6798(18)
Na1_18 Na 0.0000 1.0000 0.6798(18)
Na1_19 Na 1.0000 0.0000 0.6798(18)
Na1_20 Na 1.0000 1.0000 0.6798(18)
Na1_21 Na 0.0000 0.6798(18) 0.0000
Na1_22 Na 0.0000 0.6798(18) 1.0000
Na1_23 Na 1.0000 0.6798(18) 0.0000
Na1_24 Na 1.0000 0.6798(18) 1.0000
Na1_25 Na 0.5000 0.8202(18) 0.5000
Na1_26 Na 0.5000 0.5000 0.8202(18)
Na1_27 Na 0.8202(18) 0.5000 0.5000
Na1_28 Na 0.1798(18) 0.5000 0.5000
Na1_29 Na 0.5000 0.5000 0.1798(18)
Na1_30 Na 0.5000 0.1798(18) 0.5000
In1 In 0.2500 0.5000 0.0000
N1 N 0.2912(4) 0.3798(4) 0.0000
O1 O 0.1577(3) 0.4241(3) 0.0000
O2 O 0.1172(4) 0.3115(4) 0.0000
C1 C 0.3596(5) 0.3596(5) 0.0000
H1 H 0.3946 0.3946 0.0000
C2 C 0.2412(5) 0.3296(5) 0.0000
C3 C 0.2588(6) 0.2588(6) 0.0000
H2 H 0.2237 0.2237 0.0000
C4 C 0.1658(5) 0.3578(6) 0.0000
In2 In 0.5000 0.2500 0.0000
N2 N 0.3798(4) 0.2912(4) 0.0000
N5 N 0.2912(4) 0.6202(4) 0.0000
N6 N 0.2088(4) 0.5000 0.1202(4)
O4 O 0.1577(3) 0.5759(3) 0.0000
O5 O 0.3423(3) 0.5000 0.0759(3)
O6 O 0.4241(3) 0.1577(3) 0.0000
O9 O 0.3115(4) 0.1172(4) 0.0000
C6 C 0.3296(5) 0.2412(5) 0.0000
C11 C 0.3578(6) 0.1658(5) 0.0000
In1_2 In 0.2500 0.5000 1.0000
N1_2 N 0.2912(4) 0.3798(4) 1.0000
O1_2 O 0.1577(3) 0.4241(3) 1.0000
O2_2 O 0.1172(4) 0.3115(4) 1.0000
C1_2 C 0.3596(5) 0.3596(5) 1.0000
H1_2 H 0.3946 0.3946 1.0000
C2_2 C 0.2412(5) 0.3296(5) 1.0000
C3_2 C 0.2588(6) 0.2588(6) 1.0000
H2_2 H 0.2237 0.2237 1.0000
C4_2 C 0.1658(5) 0.3578(6) 1.0000
In2_2 In 0.5000 0.2500 1.0000
In3 In -0.0000 0.5000 0.7500
N2_2 N 0.3798(4) 0.2912(4) 1.0000
N3 N 0.2088(4) 0.5000 0.8798(4)
N4 N 0.1202(4) 0.5000 0.7912(4)
N5_2 N 0.2912(4) 0.6202(4) 1.0000
O3 O 0.3423(3) 0.5000 0.9241(3)
O4_2 O 0.1577(3) 0.5759(3) 1.0000
O6_2 O 0.4241(3) 0.1577(3) 1.0000
O7 O 0.0759(3) 0.5000 0.6577(3)
O8 O 0.3828(4) 0.5000 0.8115(4)
O9_2 O 0.3115(4) 0.1172(4) 1.0000
O10 O 0.1885(4) 0.5000 0.6172(4)
C5 C 0.1404(5) 0.5000 0.8596(5)
H3 H 0.1054 0.5000 0.8946
C6_2 C 0.3296(5) 0.2412(5) 1.0000
C7 C 0.2588(5) 0.5000 0.8296(5)
C8 C 0.1704(5) 0.5000 0.7412(5)
C9 C 0.2412(6) 0.5000 0.7588(6)
H4 H 0.2763 0.5000 0.7237
C10 C 0.3342(5) 0.5000 0.8578(6)
C11_2 C 0.3578(6) 0.1658(5) 1.0000
C12 C 0.1422(6) 0.5000 0.6658(5)
In3_2 In 1.0000 0.5000 0.7500
In1_3 In 0.0000 0.2500 0.5000
N1_3 N 0.0000 0.2912(4) 0.3798(4)
O1_3 O -0.0000 0.1577(3) 0.4241(3)
O2_3 O -0.0000 0.1172(4) 0.3115(4)
C1_3 C 0.0000 0.3596(5) 0.3596(5)
H1_3 H -0.0000 0.3946 0.3946
C2_3 C -0.0000 0.2412(5) 0.3296(5)
C3_3 C 0.0000 0.2588(6) 0.2588(6)
H2_3 H -0.0000 0.2237 0.2237
C4_3 C 0.0000 0.1658(5) 0.3578(6)
In2_3 In 0.0000 0.5000 0.2500
N2_3 N 0.0000 0.3798(4) 0.2912(4)
N5_3 N 0.0000 0.2912(4) 0.6202(4)
N6_2 N 0.1202(4) 0.2088(4) 0.5000
O4_3 O -0.0000 0.1577(3) 0.5759(3)
O5_2 O 0.0759(3) 0.3423(3) 0.5000
O6_3 O -0.0000 0.4241(3) 0.1577(3)
O9_3 O -0.0000 0.3115(4) 0.1172(4)
C6_3 C 0.0000 0.3296(5) 0.2412(5)
C11_3 C 0.0000 0.3578(6) 0.1658(5)
In1_4 In 1.0000 0.2500 0.5000
N1_4 N 1.0000 0.2912(4) 0.3798(4)
O1_4 O 1.0000 0.1577(3) 0.4241(3)
O2_4 O 1.0000 0.1172(4) 0.3115(4)
C1_4 C 1.0000 0.3596(5) 0.3596(5)
H1_4 H 1.0000 0.3946 0.3946
C2_4 C 1.0000 0.2412(5) 0.3296(5)
C3_4 C 1.0000 0.2588(6) 0.2588(6)
H2_4 H 1.0000 0.2237 0.2237
C4_4 C 1.0000 0.1658(5) 0.3578(6)
In2_4 In 1.0000 0.5000 0.2500
In3_3 In 0.7500 0.0000 0.5000
N2_4 N 1.0000 0.3798(4) 0.2912(4)
N3_2 N 0.8798(4) 0.2088(4) 0.5000
N4_2 N 0.7912(4) 0.1202(4) 0.5000
N5_4 N 1.0000 0.2912(4) 0.6202(4)
O3_2 O 0.9241(3) 0.3423(3) 0.5000
O4_4 O 1.0000 0.1577(3) 0.5759(3)
O6_4 O 1.0000 0.4241(3) 0.1577(3)
O7_2 O 0.6577(3) 0.0759(3) 0.5000
O8_2 O 0.8115(4) 0.3828(4) 0.5000
O9_4 O 1.0000 0.3115(4) 0.1172(4)
O10_2 O 0.6172(4) 0.1885(4) 0.5000
C5_2 C 0.8596(5) 0.1404(5) 0.5000
H3_2 H 0.8946 0.1054 0.5000
C6_4 C 1.0000 0.3296(5) 0.2412(5)
C7_2 C 0.8296(5) 0.2588(5) 0.5000
C8_2 C 0.7412(5) 0.1704(5) 0.5000
C9_2 C 0.7588(6) 0.2412(6) 0.5000
H4_2 H 0.7237 0.2763 0.5000
C10_2 C 0.8578(6) 0.3342(5) 0.5000
C11_4 C 1.0000 0.3578(6) 0.1658(5)
C12_2 C 0.6658(5) 0.1422(6) 0.5000
In3_4 In 0.7500 1.0000 0.5000
In1_5 In 0.5000 0.0000 0.2500
N1_5 N 0.3798(4) 0.0000 0.2912(4)
O1_5 O 0.4241(3) 0.0000 0.1577(3)
O2_5 O 0.3115(4) 0.0000 0.1172(4)
C1_5 C 0.3596(5) 0.0000 0.3596(5)
H1_5 H 0.3946 0.0000 0.3946
C2_5 C 0.3296(5) 0.0000 0.2412(5)
C3_5 C 0.2588(6) 0.0000 0.2588(6)
H2_5 H 0.2237 -0.0000 0.2237
C4_5 C 0.3578(6) 0.0000 0.1658(5)
In2_5 In 0.2500 0.0000 0.5000
N2_5 N 0.2912(4) 0.0000 0.3798(4)
N5_5 N 0.6202(4) 0.0000 0.2912(4)
N6_3 N 0.5000 0.1202(4) 0.2088(4)
O4_5 O 0.5759(3) 0.0000 0.1577(3)
O5_3 O 0.5000 0.0759(3) 0.3423(3)
O6_5 O 0.1577(3) -0.0000 0.4241(3)
O9_5 O 0.1172(4) 0.0000 0.3115(4)
C6_5 C 0.2412(5) -0.0000 0.3296(5)
C11_5 C 0.1658(5) 0.0000 0.3578(6)
In1_6 In 0.5000 1.0000 0.2500
N1_6 N 0.3798(4) 1.0000 0.2912(4)
O1_6 O 0.4241(3) 1.0000 0.1577(3)
O2_6 O 0.3115(4) 1.0000 0.1172(4)
C1_6 C 0.3596(5) 1.0000 0.3596(5)
H1_6 H 0.3946 1.0000 0.3946
C2_6 C 0.3296(5) 1.0000 0.2412(5)
C3_6 C 0.2588(6) 1.0000 0.2588(6)
H2_6 H 0.2237 1.0000 0.2237
C4_6 C 0.3578(6) 1.0000 0.1658(5)
In2_6 In 0.2500 1.0000 0.5000
In3_5 In 0.5000 0.7500 0.0000
N2_6 N 0.2912(4) 1.0000 0.3798(4)
N3_3 N 0.5000 0.8798(4) 0.2088(4)
N4_3 N 0.5000 0.7912(4) 0.1202(4)
N5_6 N 0.6202(4) 1.0000 0.2912(4)
O3_3 O 0.5000 0.9241(3) 0.3423(3)
O4_6 O 0.5759(3) 1.0000 0.1577(3)
O6_6 O 0.1577(3) 1.0000 0.4241(3)
O7_3 O 0.5000 0.6577(3) 0.0759(3)
O8_3 O 0.5000 0.8115(4) 0.3828(4)
O9_6 O 0.1172(4) 1.0000 0.3115(4)
O10_3 O 0.5000 0.6172(4) 0.1885(4)
C5_3 C 0.5000 0.8596(5) 0.1404(5)
H3_3 H 0.5000 0.8946 0.1054
C6_6 C 0.2412(5) 1.0000 0.3296(5)
C7_3 C 0.5000 0.8296(5) 0.2588(5)
C8_3 C 0.5000 0.7412(5) 0.1704(5)
C9_3 C 0.5000 0.7588(6) 0.2412(6)
H4_3 H 0.5000 0.7237 0.2763
C10_3 C 0.5000 0.8578(6) 0.3342(5)
C11_6 C 0.1658(5) 1.0000 0.3578(6)
C12_3 C 0.5000 0.6658(5) 0.1422(6)
In3_6 In 0.5000 0.7500 1.0000
N3_4 N 0.5000 0.2088(4) 0.1202(4)
N5_7 N 0.6202(4) 0.2912(4) 0.0000
O3_4 O 0.5000 0.3423(3) 0.0759(3)
O4_7 O 0.5759(3) 0.1577(3) 0.0000
O8_4 O 0.5000 0.3828(4) 0.1885(4)
O10_4 O 0.5000 0.1885(4) 0.3828(4)
C5_4 C 0.5000 0.1404(5) 0.1404(5)
H3_4 H 0.5000 0.1054 0.1054
C7_4 C 0.5000 0.2588(5) 0.1704(5)
C8_4 C 0.5000 0.1704(5) 0.2588(5)
C9_4 C 0.5000 0.2412(6) 0.2412(6)
H4_4 H 0.5000 0.2763 0.2763
C10_4 C 0.5000 0.3342(5) 0.1422(6)
C12_4 C 0.5000 0.1422(6) 0.3342(5)
N5_8 N 0.6202(4) 0.2912(4) 1.0000
N6_4 N 0.5000 0.2088(4) 0.8798(4)
O4_8 O 0.5759(3) 0.1577(3) 1.0000
O5_4 O 0.5000 0.3423(3) 0.9241(3)
In3_7 In 0.5000 0.0000 0.7500
N1_7 N 0.3798(4) 0.7088(4) 0.0000
O1_7 O 0.4241(3) 0.8423(3) 0.0000
O2_7 O 0.3115(4) 0.8828(4) 0.0000
C1_7 C 0.3596(5) 0.6404(5) 0.0000
H1_7 H 0.3946 0.6054 0.0000
C2_7 C 0.3296(5) 0.7588(5) 0.0000
C3_7 C 0.2588(6) 0.7412(6) 0.0000
H2_7 H 0.2237 0.7763 0.0000
C4_7 C 0.3578(6) 0.8342(5) 0.0000
N5_9 N 0.6202(4) 0.7088(4) 0.0000
O4_9 O 0.5759(3) 0.8423(3) 0.0000
O9_7 O 0.1172(4) 0.6885(4) 0.0000
C6_7 C 0.2412(5) 0.6704(5) 0.0000
C11_7 C 0.1658(5) 0.6422(6) 0.0000
N1_8 N 0.3798(4) 0.7088(4) 1.0000
O1_8 O 0.4241(3) 0.8423(3) 1.0000
O2_8 O 0.3115(4) 0.8828(4) 1.0000
C1_8 C 0.3596(5) 0.6404(5) 1.0000
H1_8 H 0.3946 0.6054 1.0000
C2_8 C 0.3296(5) 0.7588(5) 1.0000
C3_8 C 0.2588(6) 0.7412(6) 1.0000
H2_8 H 0.2237 0.7763 1.0000
C4_8 C 0.3578(6) 0.8342(5) 1.0000
In3_8 In 0.5000 1.0000 0.7500
N3_5 N 0.5000 0.7912(4) 0.8798(4)
N4_4 N 0.5000 0.8798(4) 0.7912(4)
N5_10 N 0.6202(4) 0.7088(4) 1.0000
O3_5 O 0.5000 0.6577(3) 0.9241(3)
O4_10 O 0.5759(3) 0.8423(3) 1.0000
O7_4 O 0.5000 0.9241(3) 0.6577(3)
O8_5 O 0.5000 0.6172(4) 0.8115(4)
O9_8 O 0.1172(4) 0.6885(4) 1.0000
O10_5 O 0.5000 0.8115(4) 0.6172(4)
C5_5 C 0.5000 0.8596(5) 0.8596(5)
H3_5 H 0.5000 0.8946 0.8946
C6_8 C 0.2412(5) 0.6704(5) 1.0000
C7_5 C 0.5000 0.7412(5) 0.8296(5)
C8_5 C 0.5000 0.8296(5) 0.7412(5)
C9_5 C 0.5000 0.7588(6) 0.7588(6)
H4_5 H 0.5000 0.7237 0.7237
C10_5 C 0.5000 0.6658(5) 0.8578(6)
C11_8 C 0.1658(5) 0.6422(6) 1.0000
C12_5 C 0.5000 0.8578(6) 0.6658(5)
O2_9 O 0.6885(4) 0.1172(4) 0.0000
C1_9 C 0.6404(5) 0.3596(5) 0.0000
H1_9 H 0.6054 0.3946 0.0000
C2_9 C 0.6704(5) 0.2412(5) 0.0000
C3_9 C 0.7412(6) 0.2588(6) 0.0000
H2_9 H 0.7763 0.2237 0.0000
C4_9 C 0.6422(6) 0.1658(5) 0.0000
In2_7 In 0.7500 0.5000 0.0000
N2_7 N 0.7088(4) 0.3798(4) 0.0000
O6_7 O 0.8423(3) 0.4241(3) 0.0000
O9_9 O 0.8828(4) 0.3115(4) 0.0000
C6_9 C 0.7588(5) 0.3296(5) 0.0000
C11_9 C 0.8342(5) 0.3578(6) 0.0000
O2_10 O 0.6885(4) 0.1172(4) 1.0000
C1_10 C 0.6404(5) 0.3596(5) 1.0000
H1_10 H 0.6054 0.3946 1.0000
C2_10 C 0.6704(5) 0.2412(5) 1.0000
C3_10 C 0.7412(6) 0.2588(6) 1.0000
H2_10 H 0.7763 0.2237 1.0000
C4_10 C 0.6422(6) 0.1658(5) 1.0000
In2_8 In 0.7500 0.5000 1.0000
N2_8 N 0.7088(4) 0.3798(4) 1.0000
N4_5 N 0.5000 0.1202(4) 0.7912(4)
O6_8 O 0.8423(3) 0.4241(3) 1.0000
O7_5 O 0.5000 0.0759(3) 0.6577(3)
O8_6 O 0.5000 0.3828(4) 0.8115(4)
O9_10 O 0.8828(4) 0.3115(4) 1.0000
O10_6 O 0.5000 0.1885(4) 0.6172(4)
C5_6 C 0.5000 0.1404(5) 0.8596(5)
H3_6 H 0.5000 0.1054 0.8946
C6_10 C 0.7588(5) 0.3296(5) 1.0000
C7_6 C 0.5000 0.2588(5) 0.8296(5)
C8_6 C 0.5000 0.1704(5) 0.7412(5)
C9_6 C 0.5000 0.2412(6) 0.7588(6)
H4_6 H 0.5000 0.2763 0.7237
C10_6 C 0.5000 0.3342(5) 0.8578(6)
C11_10 C 0.8342(5) 0.3578(6) 1.0000
C12_6 C 0.5000 0.1422(6) 0.6658(5)
N1_9 N 0.2912(4) 0.0000 0.6202(4)
O1_9 O 0.1577(3) -0.0000 0.5759(3)
O2_11 O 0.1172(4) 0.0000 0.6885(4)
C1_11 C 0.3596(5) 0.0000 0.6404(5)
H1_11 H 0.3946 0.0000 0.6054
C2_11 C 0.2412(5) -0.0000 0.6704(5)
C3_11 C 0.2588(6) 0.0000 0.7412(6)
H2_11 H 0.2237 0.0000 0.7763
C4_11 C 0.1658(5) 0.0000 0.6422(6)
N2_9 N 0.3798(4) 0.0000 0.7088(4)
N6_5 N 0.2088(4) 0.1202(4) 0.5000
O5_5 O 0.3423(3) 0.0759(3) 0.5000
O6_9 O 0.4241(3) 0.0000 0.8423(3)
O9_11 O 0.3115(4) 0.0000 0.8828(4)
C6_11 C 0.3296(5) 0.0000 0.7588(5)
C11_11 C 0.3578(6) -0.0000 0.8342(5)
N1_10 N 0.2912(4) 1.0000 0.6202(4)
O1_10 O 0.1577(3) 1.0000 0.5759(3)
O2_12 O 0.1172(4) 1.0000 0.6885(4)
C1_12 C 0.3596(5) 1.0000 0.6404(5)
H1_12 H 0.3946 1.0000 0.6054
C2_12 C 0.2412(5) 1.0000 0.6704(5)
C3_12 C 0.2588(6) 1.0000 0.7412(6)
H2_12 H 0.2237 1.0000 0.7763
C4_12 C 0.1658(5) 1.0000 0.6422(6)
In3_9 In -0.0000 0.7500 0.5000
N2_10 N 0.3798(4) 1.0000 0.7088(4)
N3_6 N 0.2088(4) 0.8798(4) 0.5000
N4_6 N 0.1202(4) 0.7912(4) 0.5000
O3_6 O 0.3423(3) 0.9241(3) 0.5000
O6_10 O 0.4241(3) 1.0000 0.8423(3)
O7_6 O 0.0759(3) 0.6577(3) 0.5000
O8_7 O 0.3828(4) 0.8115(4) 0.5000
O9_12 O 0.3115(4) 1.0000 0.8828(4)
O10_7 O 0.1885(4) 0.6172(4) 0.5000
C5_7 C 0.1404(5) 0.8596(5) 0.5000
H3_7 H 0.1054 0.8946 0.5000
C6_12 C 0.3296(5) 1.0000 0.7588(5)
C7_7 C 0.2588(5) 0.8296(5) 0.5000
C8_7 C 0.1704(5) 0.7412(5) 0.5000
C9_7 C 0.2412(6) 0.7588(6) 0.5000
H4_7 H 0.2763 0.7237 0.5000
C10_7 C 0.3342(5) 0.8578(6) 0.5000
C11_12 C 0.3578(6) 1.0000 0.8342(5)
C12_7 C 0.1422(6) 0.6658(5) 0.5000
In3_10 In 1.0000 0.7500 0.5000
N1_11 N 0.7088(4) 0.0000 0.3798(4)
O1_11 O 0.8423(3) -0.0000 0.4241(3)
O2_13 O 0.8828(4) 0.0000 0.3115(4)
C1_13 C 0.6404(5) 0.0000 0.3596(5)
H1_13 H 0.6054 0.0000 0.3946
C2_13 C 0.7588(5) -0.0000 0.3296(5)
C3_13 C 0.7412(6) 0.0000 0.2588(6)
H2_13 H 0.7763 -0.0000 0.2237
C4_13 C 0.8342(5) 0.0000 0.3578(6)
N5_11 N 0.7088(4) 0.0000 0.6202(4)
O4_11 O 0.8423(3) -0.0000 0.5759(3)
O9_13 O 0.6885(4) 0.0000 0.1172(4)
C6_13 C 0.6704(5) 0.0000 0.2412(5)
C11_13 C 0.6422(6) 0.0000 0.1658(5)
N1_12 N 0.7088(4) 1.0000 0.3798(4)
O1_12 O 0.8423(3) 1.0000 0.4241(3)
O2_14 O 0.8828(4) 1.0000 0.3115(4)
C1_14 C 0.6404(5) 1.0000 0.3596(5)
H1_14 H 0.6054 1.0000 0.3946
C2_14 C 0.7588(5) 1.0000 0.3296(5)
C3_14 C 0.7412(6) 1.0000 0.2588(6)
H2_14 H 0.7763 1.0000 0.2237
C4_14 C 0.8342(5) 1.0000 0.3578(6)
N3_7 N 0.7912(4) 0.8798(4) 0.5000
N4_7 N 0.8798(4) 0.7912(4) 0.5000
N5_12 N 0.7088(4) 1.0000 0.6202(4)
O3_7 O 0.6577(3) 0.9241(3) 0.5000
O4_12 O 0.8423(3) 1.0000 0.5759(3)
O7_7 O 0.9241(3) 0.6577(3) 0.5000
O8_8 O 0.6172(4) 0.8115(4) 0.5000
O9_14 O 0.6885(4) 1.0000 0.1172(4)
O10_8 O 0.8115(4) 0.6172(4) 0.5000
C5_8 C 0.8596(5) 0.8596(5) 0.5000
H3_8 H 0.8946 0.8946 0.5000
C6_14 C 0.6704(5) 1.0000 0.2412(5)
C7_8 C 0.7412(5) 0.8296(5) 0.5000
C8_8 C 0.8296(5) 0.7412(5) 0.5000
C9_8 C 0.7588(6) 0.7588(6) 0.5000
H4_8 H 0.7237 0.7237 0.5000
C10_8 C 0.6658(5) 0.8578(6) 0.5000
C11_14 C 0.6422(6) 1.0000 0.1658(5)
C12_8 C 0.8578(6) 0.6658(5) 0.5000
O8_9 O 0.3828(4) 0.1885(4) 0.5000
O10_9 O 0.1885(4) 0.3828(4) 0.5000
C5_9 C 0.1404(5) 0.1404(5) 0.5000
H3_9 H 0.1054 0.1054 0.5000
C7_9 C 0.2588(5) 0.1704(5) 0.5000
C8_9 C 0.1704(5) 0.2588(5) 0.5000
C9_9 C 0.2412(6) 0.2412(6) 0.5000
H4_9 H 0.2763 0.2763 0.5000
C10_9 C 0.3342(5) 0.1422(6) 0.5000
C12_9 C 0.1422(6) 0.3342(5) 0.5000
N1_13 N -0.0000 0.3798(4) 0.7088(4)
O1_13 O -0.0000 0.4241(3) 0.8423(3)
O2_15 O 0.0000 0.3115(4) 0.8828(4)
C1_15 C -0.0000 0.3596(5) 0.6404(5)
H1_15 H -0.0000 0.3946 0.6054
C2_15 C 0.0000 0.3296(5) 0.7588(5)
C3_15 C -0.0000 0.2588(6) 0.7412(6)
H2_15 H 0.0000 0.2237 0.7763
C4_15 C 0.0000 0.3578(6) 0.8342(5)
N5_13 N 0.0000 0.6202(4) 0.7088(4)
O4_13 O -0.0000 0.5759(3) 0.8423(3)
O9_15 O -0.0000 0.1172(4) 0.6885(4)
C6_15 C -0.0000 0.2412(5) 0.6704(5)
C11_15 C -0.0000 0.1658(5) 0.6422(6)
N1_14 N 1.0000 0.3798(4) 0.7088(4)
O1_14 O 1.0000 0.4241(3) 0.8423(3)
O2_16 O 1.0000 0.3115(4) 0.8828(4)
C1_16 C 1.0000 0.3596(5) 0.6404(5)
H1_16 H 1.0000 0.3946 0.6054
C2_16 C 1.0000 0.3296(5) 0.7588(5)
C3_16 C 1.0000 0.2588(6) 0.7412(6)
H2_16 H 1.0000 0.2237 0.7763
C4_16 C 1.0000 0.3578(6) 0.8342(5)
N3_8 N 0.8798(4) 0.5000 0.7912(4)
N4_8 N 0.7912(4) 0.5000 0.8798(4)
N5_14 N 1.0000 0.6202(4) 0.7088(4)
O3_8 O 0.9241(3) 0.5000 0.6577(3)
O4_14 O 1.0000 0.5759(3) 0.8423(3)
O7_8 O 0.6577(3) 0.5000 0.9241(3)
O8_10 O 0.8115(4) 0.5000 0.6172(4)
O9_16 O 1.0000 0.1172(4) 0.6885(4)
O10_10 O 0.6172(4) 0.5000 0.8115(4)
C5_10 C 0.8596(5) 0.5000 0.8596(5)
H3_10 H 0.8946 0.5000 0.8946
C6_16 C 1.0000 0.2412(5) 0.6704(5)
C7_10 C 0.8296(5) 0.5000 0.7412(5)
C8_10 C 0.7412(5) 0.5000 0.8296(5)
C9_10 C 0.7588(6) 0.5000 0.7588(6)
H4_10 H 0.7237 0.5000 0.7237
C10_10 C 0.8578(6) 0.5000 0.6658(5)
C11_16 C 1.0000 0.1658(5) 0.6422(6)
C12_10 C 0.6658(5) 0.5000 0.8578(6)
N1_15 N 0.0000 0.6202(4) 0.2912(4)
O1_15 O -0.0000 0.5759(3) 0.1577(3)
O2_17 O -0.0000 0.6885(4) 0.1172(4)
C1_17 C 0.0000 0.6404(5) 0.3596(5)
H1_17 H 0.0000 0.6054 0.3946
C2_17 C -0.0000 0.6704(5) 0.2412(5)
C3_17 C -0.0000 0.7412(6) 0.2588(6)
H2_17 H 0.0000 0.7763 0.2237
C4_17 C -0.0000 0.6422(6) 0.1658(5)
N2_11 N -0.0000 0.7088(4) 0.3798(4)
N6_6 N 0.1202(4) 0.5000 0.2088(4)
O5_6 O 0.0759(3) 0.5000 0.3423(3)
O6_11 O 0.0000 0.8423(3) 0.4241(3)
O9_17 O 0.0000 0.8828(4) 0.3115(4)
C6_17 C -0.0000 0.7588(5) 0.3296(5)
C11_17 C 0.0000 0.8342(5) 0.3578(6)
N1_16 N 1.0000 0.6202(4) 0.2912(4)
O1_16 O 1.0000 0.5759(3) 0.1577(3)
O2_18 O 1.0000 0.6885(4) 0.1172(4)
C1_18 C 1.0000 0.6404(5) 0.3596(5)
H1_18 H 1.0000 0.6054 0.3946
C2_18 C 1.0000 0.6704(5) 0.2412(5)
C3_18 C 1.0000 0.7412(6) 0.2588(6)
H2_18 H 1.0000 0.7763 0.2237
C4_18 C 1.0000 0.6422(6) 0.1658(5)
N2_12 N 1.0000 0.7088(4) 0.3798(4)
N3_9 N 0.8798(4) 0.5000 0.2088(4)
N4_9 N 0.7912(4) 0.5000 0.1202(4)
O3_9 O 0.9241(3) 0.5000 0.3423(3)
O6_12 O 1.0000 0.8423(3) 0.4241(3)
O7_9 O 0.6577(3) 0.5000 0.0759(3)
O8_11 O 0.8115(4) 0.5000 0.3828(4)
O9_18 O 1.0000 0.8828(4) 0.3115(4)
O10_11 O 0.6172(4) 0.5000 0.1885(4)
C5_11 C 0.8596(5) 0.5000 0.1404(5)
H3_11 H 0.8946 0.5000 0.1054
C6_18 C 1.0000 0.7588(5) 0.3296(5)
C7_11 C 0.8296(5) 0.5000 0.2588(5)
C8_11 C 0.7412(5) 0.5000 0.1704(5)
C9_11 C 0.7588(6) 0.5000 0.2412(6)
H4_11 H 0.7237 0.5000 0.2763
C10_11 C 0.8578(6) 0.5000 0.3342(5)
C11_18 C 1.0000 0.8342(5) 0.3578(6)
C12_11 C 0.6658(5) 0.5000 0.1422(6)
O8_12 O 0.1885(4) 0.5000 0.3828(4)
O10_12 O 0.3828(4) 0.5000 0.1885(4)
C5_12 C 0.1404(5) 0.5000 0.1404(5)
H3_12 H 0.1054 0.5000 0.1054
C7_12 C 0.1704(5) 0.5000 0.2588(5)
C8_12 C 0.2588(5) 0.5000 0.1704(5)
C9_12 C 0.2412(6) 0.5000 0.2412(6)
H4_12 H 0.2763 0.5000 0.2763
C10_12 C 0.1422(6) 0.5000 0.3342(5)
C12_12 C 0.3342(5) 0.5000 0.1422(6)
N3_10 N 0.0000 0.7088(4) 0.6202(4)
O3_10 O 0.0000 0.8423(3) 0.5759(3)
O8_13 O 0.0000 0.8828(4) 0.6885(4)
O10_13 O 0.0000 0.6885(4) 0.8828(4)
C5_13 C 0.0000 0.6404(5) 0.6404(5)
H3_13 H 0.0000 0.6054 0.6054
C7_13 C 0.0000 0.7588(5) 0.6704(5)
C8_13 C 0.0000 0.6704(5) 0.7588(5)
C9_13 C 0.0000 0.7412(6) 0.7412(6)
H4_13 H -0.0000 0.7763 0.7763
C10_13 C -0.0000 0.8342(5) 0.6422(6)
C12_13 C -0.0000 0.6422(6) 0.8342(5)
N3_11 N 1.0000 0.7088(4) 0.6202(4)
O3_11 O 1.0000 0.8423(3) 0.5759(3)
O8_14 O 1.0000 0.8828(4) 0.6885(4)
O10_14 O 1.0000 0.6885(4) 0.8828(4)
C5_14 C 1.0000 0.6404(5) 0.6404(5)
H3_14 H 1.0000 0.6054 0.6054
C7_14 C 1.0000 0.7588(5) 0.6704(5)
C8_14 C 1.0000 0.6704(5) 0.7588(5)
C9_14 C 1.0000 0.7412(6) 0.7412(6)
H4_14 H 1.0000 0.7763 0.7763
C10_14 C 1.0000 0.8342(5) 0.6422(6)
C12_14 C 1.0000 0.6422(6) 0.8342(5)
N6_7 N 0.7088(4) 0.6202(4) 0.0000
O5_7 O 0.8423(3) 0.5759(3) 0.0000
N6_8 N 0.7088(4) 0.6202(4) 1.0000
O5_8 O 0.8423(3) 0.5759(3) 1.0000
O8_15 O 0.8828(4) 0.6885(4) 0.0000
O10_15 O 0.6885(4) 0.8828(4) 0.0000
C5_15 C 0.6404(5) 0.6404(5) 0.0000
H3_15 H 0.6054 0.6054 0.0000
C7_15 C 0.7588(5) 0.6704(5) 0.0000
C8_15 C 0.6704(5) 0.7588(5) 0.0000
C9_15 C 0.7412(6) 0.7412(6) 0.0000
H4_15 H 0.7763 0.7763 0.0000
C10_15 C 0.8342(5) 0.6422(6) 0.0000
C12_15 C 0.6422(6) 0.8342(5) 0.0000
O8_16 O 0.8828(4) 0.6885(4) 1.0000
O10_16 O 0.6885(4) 0.8828(4) 1.0000
C5_16 C 0.6404(5) 0.6404(5) 1.0000
H3_16 H 0.6054 0.6054 1.0000
C7_16 C 0.7588(5) 0.6704(5) 1.0000
C8_16 C 0.6704(5) 0.7588(5) 1.0000
C9_16 C 0.7412(6) 0.7412(6) 1.0000
H4_16 H 0.7763 0.7763 1.0000
C10_16 C 0.8342(5) 0.6422(6) 1.0000
C12_16 C 0.6422(6) 0.8342(5) 1.0000
N6_9 N 0.6202(4) 0.0000 0.7088(4)
O5_9 O 0.5759(3) 0.0000 0.8423(3)
N6_10 N 0.6202(4) 1.0000 0.7088(4)
O5_10 O 0.5759(3) 1.0000 0.8423(3)
O8_17 O 0.6885(4) 0.0000 0.8828(4)
O10_17 O 0.8828(4) 0.0000 0.6885(4)
C5_17 C 0.6404(5) 0.0000 0.6404(5)
H3_17 H 0.6054 0.0000 0.6054
C7_17 C 0.6704(5) 0.0000 0.7588(5)
C8_17 C 0.7588(5) -0.0000 0.6704(5)
C9_17 C 0.7412(6) 0.0000 0.7412(6)
H4_17 H 0.7763 0.0000 0.7763
C10_17 C 0.6422(6) -0.0000 0.8342(5)
C12_17 C 0.8342(5) 0.0000 0.6422(6)
O8_18 O 0.6885(4) 1.0000 0.8828(4)
O10_18 O 0.8828(4) 1.0000 0.6885(4)
C5_18 C 0.6404(5) 1.0000 0.6404(5)
H3_18 H 0.6054 1.0000 0.6054
C7_18 C 0.6704(5) 1.0000 0.7588(5)
C8_18 C 0.7588(5) 1.0000 0.6704(5)
C9_18 C 0.7412(6) 1.0000 0.7412(6)
H4_18 H 0.7763 1.0000 0.7763
C10_18 C 0.6422(6) 1.0000 0.8342(5)
C12_18 C 0.8342(5) 1.0000 0.6422(6)
loop_
_geom_bond_atom_site_label_1
_geom_bond_atom_site_label_2
_geom_bond_site_symmetry_1
_geom_bond_site_symmetry_2
In1 N1 1_555 1_555
N1 C1 1_555 1_555
O1 In1 1_555 1_555
O2 C4 1_555 1_555
C1 H1 1_555 1_555
C2 N1 1_555 1_555
C3 C2 1_555 1_555
H2 C3 1_555 1_555
C4 O1 1_555 1_555
In2 N2 1_555 1_555
N2 C1 1_555 1_555
N5 In1 1_555 1_555
N6 In1 1_555 1_555
O4 In1 1_555 1_555
O5 In1 1_555 1_555
O6 In2 1_555 1_555
O9 C11 1_555 1_555
C6 C3 1_555 1_555
C11 O6 1_555 1_555
C2 C4 1_555 1_555
N2 C6 1_555 1_555
C6 C11 1_555 1_555
In1_2 N1_2 1_555 1_555
N1_2 C1_2 1_555 1_555
O1_2 In1_2 1_555 1_555
O2_2 C4_2 1_555 1_555
C1_2 H1_2 1_555 1_555
C2_2 N1_2 1_555 1_555
C3_2 C2_2 1_555 1_555
H2_2 C3_2 1_555 1_555
C4_2 O1_2 1_555 1_555
In2_2 N2_2 1_555 1_555
In3 N4 1_555 1_555
N2_2 C1_2 1_555 1_555
N3 In1_2 1_555 1_555
N4 C5 1_555 1_555
N5_2 In1_2 1_555 1_555
O3 In1_2 1_555 1_555
O4_2 In1_2 1_555 1_555
O6_2 In2_2 1_555 1_555
O7 In3 1_555 1_555
O8 C10 1_555 1_555
O9_2 C11_2 1_555 1_555
O10 C12 1_555 1_555
C5 N3 1_555 1_555
H3 C5 1_555 1_555
C6_2 C3_2 1_555 1_555
C7 N3 1_555 1_555
C8 N4 1_555 1_555
C9 C7 1_555 1_555
H4 C9 1_555 1_555
C10 O3 1_555 1_555
C11_2 O6_2 1_555 1_555
C12 O7 1_555 1_555
C2_2 C4_2 1_555 1_555
N2_2 C6_2 1_555 1_555
C6_2 C11_2 1_555 1_555
C7 C10 1_555 1_555
C8 C9 1_555 1_555
C8 C12 1_555 1_555
In1_3 N1_3 1_555 1_555
N1_3 C1_3 1_555 1_555
O1_3 In1_3 1_555 1_555
O2_3 C4_3 1_555 1_555
C1_3 H1_3 1_555 1_555
C2_3 N1_3 1_555 1_555
C3_3 C2_3 1_555 1_555
H2_3 C3_3 1_555 1_555
C4_3 O1_3 1_555 1_555
In2_3 N2_3 1_555 1_555
N2_3 C1_3 1_555 1_555
N5_3 In1_3 1_555 1_555
N6_2 In1_3 1_555 1_555
O4_3 In1_3 1_555 1_555
O5_2 In1_3 1_555 1_555
O6_3 In2_3 1_555 1_555
O9_3 C11_3 1_555 1_555
C6_3 C3_3 1_555 1_555
C11_3 O6_3 1_555 1_555
C2_3 C4_3 1_555 1_555
N2_3 C6_3 1_555 1_555
C6_3 C11_3 1_555 1_555
In1_4 N1_4 1_555 1_555
N1_4 C1_4 1_555 1_555
O1_4 In1_4 1_555 1_555
O2_4 C4_4 1_555 1_555
C1_4 H1_4 1_555 1_555
C2_4 N1_4 1_555 1_555
C3_4 C2_4 1_555 1_555
H2_4 C3_4 1_555 1_555
C4_4 O1_4 1_555 1_555
In2_4 N2_4 1_555 1_555
In3_3 N4_2 1_555 1_555
N2_4 C1_4 1_555 1_555
N3_2 In1_4 1_555 1_555
N4_2 C5_2 1_555 1_555
N5_4 In1_4 1_555 1_555
O3_2 In1_4 1_555 1_555
O4_4 In1_4 1_555 1_555
O6_4 In2_4 1_555 1_555
O7_2 In3_3 1_555 1_555
O8_2 C10_2 1_555 1_555
O9_4 C11_4 1_555 1_555
O10_2 C12_2 1_555 1_555
C5_2 N3_2 1_555 1_555
H3_2 C5_2 1_555 1_555
C6_4 C3_4 1_555 1_555
C7_2 N3_2 1_555 1_555
C8_2 N4_2 1_555 1_555
C9_2 C7_2 1_555 1_555
H4_2 C9_2 1_555 1_555
C10_2 O3_2 1_555 1_555
C11_4 O6_4 1_555 1_555
C12_2 O7_2 1_555 1_555
C2_4 C4_4 1_555 1_555
N2_4 C6_4 1_555 1_555
C6_4 C11_4 1_555 1_555
C7_2 C10_2 1_555 1_555
C8_2 C9_2 1_555 1_555
C8_2 C12_2 1_555 1_555
In1_5 N1_5 1_555 1_555
N1_5 C1_5 1_555 1_555
O1_5 In1_5 1_555 1_555
O2_5 C4_5 1_555 1_555
C1_5 H1_5 1_555 1_555
C2_5 N1_5 1_555 1_555
C3_5 C2_5 1_555 1_555
H2_5 C3_5 1_555 1_555
C4_5 O1_5 1_555 1_555
In2_5 N2_5 1_555 1_555
N2_5 C1_5 1_555 1_555
N5_5 In1_5 1_555 1_555
N6_3 In1_5 1_555 1_555
O4_5 In1_5 1_555 1_555
O5_3 In1_5 1_555 1_555
O6_5 In2_5 1_555 1_555
O9_5 C11_5 1_555 1_555
C6_5 C3_5 1_555 1_555
C11_5 O6_5 1_555 1_555
C2_5 C4_5 1_555 1_555
N2_5 C6_5 1_555 1_555
C6_5 C11_5 1_555 1_555
In1_6 N1_6 1_555 1_555
N1_6 C1_6 1_555 1_555
O1_6 In1_6 1_555 1_555
O2_6 C4_6 1_555 1_555
C1_6 H1_6 1_555 1_555
C2_6 N1_6 1_555 1_555
C3_6 C2_6 1_555 1_555
H2_6 C3_6 1_555 1_555
C4_6 O1_6 1_555 1_555
In2_6 N2_6 1_555 1_555
In3_5 N4_3 1_555 1_555
N2_6 C1_6 1_555 1_555
N3_3 In1_6 1_555 1_555
N4_3 C5_3 1_555 1_555
N5_6 In1_6 1_555 1_555
O3_3 In1_6 1_555 1_555
O4_6 In1_6 1_555 1_555
O6_6 In2_6 1_555 1_555
O7_3 In3_5 1_555 1_555
O8_3 C10_3 1_555 1_555
O9_6 C11_6 1_555 1_555
O10_3 C12_3 1_555 1_555
C5_3 N3_3 1_555 1_555
H3_3 C5_3 1_555 1_555
C6_6 C3_6 1_555 1_555
C7_3 N3_3 1_555 1_555
C8_3 N4_3 1_555 1_555
C9_3 C7_3 1_555 1_555
H4_3 C9_3 1_555 1_555
C10_3 O3_3 1_555 1_555
C11_6 O6_6 1_555 1_555
C12_3 O7_3 1_555 1_555
C2_6 C4_6 1_555 1_555
N2_6 C6_6 1_555 1_555
C6_6 C11_6 1_555 1_555
C7_3 C10_3 1_555 1_555
C8_3 C9_3 1_555 1_555
C8_3 C12_3 1_555 1_555
N3_4 In2 1_555 1_555
N6_3 C5_4 1_555 1_555
N5_7 In2 1_555 1_555
O3_4 In2 1_555 1_555
O4_7 In2 1_555 1_555
O8_4 C10_4 1_555 1_555
O10_4 C12_4 1_555 1_555
C5_4 N3_4 1_555 1_555
H3_4 C5_4 1_555 1_555
C7_4 N3_4 1_555 1_555
C8_4 N6_3 1_555 1_555
C9_4 C7_4 1_555 1_555
H4_4 C9_4 1_555 1_555
C10_4 O3_4 1_555 1_555
C12_4 O5_3 1_555 1_555
C7_4 C10_4 1_555 1_555
C8_4 C9_4 1_555 1_555
C8_4 C12_4 1_555 1_555
N5_8 In2_2 1_555 1_555
N6_4 In2_2 1_555 1_555
O4_8 In2_2 1_555 1_555
O5_4 In2_2 1_555 1_555
In3_5 N1_7 1_555 1_555
N1_7 C1_7 1_555 1_555
O1_7 In3_5 1_555 1_555
O2_7 C4_7 1_555 1_555
C1_7 H1_7 1_555 1_555
C2_7 N1_7 1_555 1_555
C3_7 C2_7 1_555 1_555
H2_7 C3_7 1_555 1_555
C4_7 O1_7 1_555 1_555
N5 C1_7 1_555 1_555
N5_9 In3_5 1_555 1_555
O4_9 In3_5 1_555 1_555
O9_7 C11_7 1_555 1_555
C6_7 C3_7 1_555 1_555
C11_7 O4 1_555 1_555
C2_7 C4_7 1_555 1_555
N5 C6_7 1_555 1_555
C6_7 C11_7 1_555 1_555
In3_6 N1_8 1_555 1_555
N1_8 C1_8 1_555 1_555
O1_8 In3_6 1_555 1_555
O2_8 C4_8 1_555 1_555
C1_8 H1_8 1_555 1_555
C2_8 N1_8 1_555 1_555
C3_8 C2_8 1_555 1_555
H2_8 C3_8 1_555 1_555
C4_8 O1_8 1_555 1_555
In3_8 N4_4 1_555 1_555
N5_2 C1_8 1_555 1_555
N3_5 In3_6 1_555 1_555
N4_4 C5_5 1_555 1_555
N5_10 In3_6 1_555 1_555
O3_5 In3_6 1_555 1_555
O4_10 In3_6 1_555 1_555
O7_4 In3_8 1_555 1_555
O8_5 C10_5 1_555 1_555
O9_8 C11_8 1_555 1_555
O10_5 C12_5 1_555 1_555
C5_5 N3_5 1_555 1_555
H3_5 C5_5 1_555 1_555
C6_8 C3_8 1_555 1_555
C7_5 N3_5 1_555 1_555
C8_5 N4_4 1_555 1_555
C9_5 C7_5 1_555 1_555
H4_5 C9_5 1_555 1_555
C10_5 O3_5 1_555 1_555
C11_8 O4_2 1_555 1_555
C12_5 O7_4 1_555 1_555
C2_8 C4_8 1_555 1_555
N5_2 C6_8 1_555 1_555
C6_8 C11_8 1_555 1_555
C7_5 C10_5 1_555 1_555
C8_5 C9_5 1_555 1_555
C8_5 C12_5 1_555 1_555
N5_7 C1_9 1_555 1_555
O2_9 C4_9 1_555 1_555
C1_9 H1_9 1_555 1_555
C2_9 N5_7 1_555 1_555
C3_9 C2_9 1_555 1_555
H2_9 C3_9 1_555 1_555
C4_9 O4_7 1_555 1_555
In2_7 N2_7 1_555 1_555
N2_7 C1_9 1_555 1_555
O6_7 In2_7 1_555 1_555
O9_9 C11_9 1_555 1_555
C6_9 C3_9 1_555 1_555
C11_9 O6_7 1_555 1_555
C2_9 C4_9 1_555 1_555
N2_7 C6_9 1_555 1_555
C6_9 C11_9 1_555 1_555
N5_8 C1_10 1_555 1_555
O2_10 C4_10 1_555 1_555
C1_10 H1_10 1_555 1_555
C2_10 N5_8 1_555 1_555
C3_10 C2_10 1_555 1_555
H2_10 C3_10 1_555 1_555
C4_10 O4_8 1_555 1_555
In2_8 N2_8 1_555 1_555
In3_7 N4_5 1_555 1_555
N2_8 C1_10 1_555 1_555
N4_5 C5_6 1_555 1_555
O6_8 In2_8 1_555 1_555
O7_5 In3_7 1_555 1_555
O8_6 C10_6 1_555 1_555
O9_10 C11_10 1_555 1_555
O10_6 C12_6 1_555 1_555
C5_6 N6_4 1_555 1_555
H3_6 C5_6 1_555 1_555
C6_10 C3_10 1_555 1_555
C7_6 N6_4 1_555 1_555
C8_6 N4_5 1_555 1_555
C9_6 C7_6 1_555 1_555
H4_6 C9_6 1_555 1_555
C10_6 O5_4 1_555 1_555
C11_10 O6_8 1_555 1_555
C12_6 O7_5 1_555 1_555
C2_10 C4_10 1_555 1_555
N2_8 C6_10 1_555 1_555
C6_10 C11_10 1_555 1_555
C7_6 C10_6 1_555 1_555
C8_6 C9_6 1_555 1_555
C8_6 C12_6 1_555 1_555
In2_5 N1_9 1_555 1_555
N1_9 C1_11 1_555 1_555
O1_9 In2_5 1_555 1_555
O2_11 C4_11 1_555 1_555
C1_11 H1_11 1_555 1_555
C2_11 N1_9 1_555 1_555
C3_11 C2_11 1_555 1_555
H2_11 C3_11 1_555 1_555
C4_11 O1_9 1_555 1_555
In3_7 N2_9 1_555 1_555
N2_9 C1_11 1_555 1_555
N6_5 In2_5 1_555 1_555
O5_5 In2_5 1_555 1_555
O6_9 In3_7 1_555 1_555
O9_11 C11_11 1_555 1_555
C6_11 C3_11 1_555 1_555
C11_11 O6_9 1_555 1_555
C2_11 C4_11 1_555 1_555
N2_9 C6_11 1_555 1_555
C6_11 C11_11 1_555 1_555
In2_6 N1_10 1_555 1_555
N1_10 C1_12 1_555 1_555
O1_10 In2_6 1_555 1_555
O2_12 C4_12 1_555 1_555
C1_12 H1_12 1_555 1_555
C2_12 N1_10 1_555 1_555
C3_12 C2_12 1_555 1_555
H2_12 C3_12 1_555 1_555
C4_12 O1_10 1_555 1_555
In3_8 N2_10 1_555 1_555
In3_9 N4_6 1_555 1_555
N2_10 C1_12 1_555 1_555
N3_6 In2_6 1_555 1_555
N4_6 C5_7 1_555 1_555
O3_6 In2_6 1_555 1_555
O6_10 In3_8 1_555 1_555
O7_6 In3_9 1_555 1_555
O8_7 C10_7 1_555 1_555
O9_12 C11_12 1_555 1_555
O10_7 C12_7 1_555 1_555
C5_7 N3_6 1_555 1_555
H3_7 C5_7 1_555 1_555
C6_12 C3_12 1_555 1_555
C7_7 N3_6 1_555 1_555
C8_7 N4_6 1_555 1_555
C9_7 C7_7 1_555 1_555
H4_7 C9_7 1_555 1_555
C10_7 O3_6 1_555 1_555
C11_12 O6_10 1_555 1_555
C12_7 O7_6 1_555 1_555
C2_12 C4_12 1_555 1_555
N2_10 C6_12 1_555 1_555
C6_12 C11_12 1_555 1_555
C7_7 C10_7 1_555 1_555
C8_7 C9_7 1_555 1_555
C8_7 C12_7 1_555 1_555
In3_3 N1_11 1_555 1_555
N1_11 C1_13 1_555 1_555
O1_11 In3_3 1_555 1_555
O2_13 C4_13 1_555 1_555
C1_13 H1_13 1_555 1_555
C2_13 N1_11 1_555 1_555
C3_13 C2_13 1_555 1_555
H2_13 C3_13 1_555 1_555
C4_13 O1_11 1_555 1_555
N5_5 C1_13 1_555 1_555
N5_11 In3_3 1_555 1_555
O4_11 In3_3 1_555 1_555
O9_13 C11_13 1_555 1_555
C6_13 C3_13 1_555 1_555
C11_13 O4_5 1_555 1_555
C2_13 C4_13 1_555 1_555
N5_5 C6_13 1_555 1_555
C6_13 C11_13 1_555 1_555
In3_4 N1_12 1_555 1_555
N1_12 C1_14 1_555 1_555
O1_12 In3_4 1_555 1_555
O2_14 C4_14 1_555 1_555
C1_14 H1_14 1_555 1_555
C2_14 N1_12 1_555 1_555
C3_14 C2_14 1_555 1_555
H2_14 C3_14 1_555 1_555
C4_14 O1_12 1_555 1_555
In3_10 N4_7 1_555 1_555
N5_6 C1_14 1_555 1_555
N3_7 In3_4 1_555 1_555
N4_7 C5_8 1_555 1_555
N5_12 In3_4 1_555 1_555
O3_7 In3_4 1_555 1_555
O4_12 In3_4 1_555 1_555
O7_7 In3_10 1_555 1_555
O8_8 C10_8 1_555 1_555
O9_14 C11_14 1_555 1_555
O10_8 C12_8 1_555 1_555
C5_8 N3_7 1_555 1_555
H3_8 C5_8 1_555 1_555
C6_14 C3_14 1_555 1_555
C7_8 N3_7 1_555 1_555
C8_8 N4_7 1_555 1_555
C9_8 C7_8 1_555 1_555
H4_8 C9_8 1_555 1_555
C10_8 O3_7 1_555 1_555
C11_14 O4_6 1_555 1_555
C12_8 O7_7 1_555 1_555
C2_14 C4_14 1_555 1_555
N5_6 C6_14 1_555 1_555
C6_14 C11_14 1_555 1_555
C7_8 C10_8 1_555 1_555
C8_8 C9_8 1_555 1_555
C8_8 C12_8 1_555 1_555
N6_2 C5_9 1_555 1_555
O8_9 C10_9 1_555 1_555
O10_9 C12_9 1_555 1_555
C5_9 N6_5 1_555 1_555
H3_9 C5_9 1_555 1_555
C7_9 N6_5 1_555 1_555
C8_9 N6_2 1_555 1_555
C9_9 C7_9 1_555 1_555
H4_9 C9_9 1_555 1_555
C10_9 O5_5 1_555 1_555
C12_9 O5_2 1_555 1_555
C7_9 C10_9 1_555 1_555
C8_9 C9_9 1_555 1_555
C8_9 C12_9 1_555 1_555
In3 N1_13 1_555 1_555
N1_13 C1_15 1_555 1_555
O1_13 In3 1_555 1_555
O2_15 C4_15 1_555 1_555
C1_15 H1_15 1_555 1_555
C2_15 N1_13 1_555 1_555
C3_15 C2_15 1_555 1_555
H2_15 C3_15 1_555 1_555
C4_15 O1_13 1_555 1_555
N5_3 C1_15 1_555 1_555
N5_13 In3 1_555 1_555
O4_13 In3 1_555 1_555
O9_15 C11_15 1_555 1_555
C6_15 C3_15 1_555 1_555
C11_15 O4_3 1_555 1_555
C2_15 C4_15 1_555 1_555
N5_3 C6_15 1_555 1_555
C6_15 C11_15 1_555 1_555
In3_2 N1_14 1_555 1_555
N1_14 C1_16 1_555 1_555
O1_14 In3_2 1_555 1_555
O2_16 C4_16 1_555 1_555
C1_16 H1_16 1_555 1_555
C2_16 N1_14 1_555 1_555
C3_16 C2_16 1_555 1_555
H2_16 C3_16 1_555 1_555
C4_16 O1_14 1_555 1_555
In2_8 N4_8 1_555 1_555
N5_4 C1_16 1_555 1_555
N3_8 In3_2 1_555 1_555
N4_8 C5_10 1_555 1_555
N5_14 In3_2 1_555 1_555
O3_8 In3_2 1_555 1_555
O4_14 In3_2 1_555 1_555
O7_8 In2_8 1_555 1_555
O8_10 C10_10 1_555 1_555
O9_16 C11_16 1_555 1_555
O10_10 C12_10 1_555 1_555
C5_10 N3_8 1_555 1_555
H3_10 C5_10 1_555 1_555
C6_16 C3_16 1_555 1_555
C7_10 N3_8 1_555 1_555
C8_10 N4_8 1_555 1_555
C9_10 C7_10 1_555 1_555
H4_10 C9_10 1_555 1_555
C10_10 O3_8 1_555 1_555
C11_16 O4_4 1_555 1_555
C12_10 O7_8 1_555 1_555
C2_16 C4_16 1_555 1_555
N5_4 C6_16 1_555 1_555
C6_16 C11_16 1_555 1_555
C7_10 C10_10 1_555 1_555
C8_10 C9_10 1_555 1_555
C8_10 C12_10 1_555 1_555
In2_3 N1_15 1_555 1_555
N1_15 C1_17 1_555 1_555
O1_15 In2_3 1_555 1_555
O2_17 C4_17 1_555 1_555
C1_17 H1_17 1_555 1_555
C2_17 N1_15 1_555 1_555
C3_17 C2_17 1_555 1_555
H2_17 C3_17 1_555 1_555
C4_17 O1_15 1_555 1_555
In3_9 N2_11 1_555 1_555
N2_11 C1_17 1_555 1_555
N6_6 In2_3 1_555 1_555
O5_6 In2_3 1_555 1_555
O6_11 In3_9 1_555 1_555
O9_17 C11_17 1_555 1_555
C6_17 C3_17 1_555 1_555
C11_17 O6_11 1_555 1_555
C2_17 C4_17 1_555 1_555
N2_11 C6_17 1_555 1_555
C6_17 C11_17 1_555 1_555
In2_4 N1_16 1_555 1_555
N1_16 C1_18 1_555 1_555
O1_16 In2_4 1_555 1_555
O2_18 C4_18 1_555 1_555
C1_18 H1_18 1_555 1_555
C2_18 N1_16 1_555 1_555
C3_18 C2_18 1_555 1_555
H2_18 C3_18 1_555 1_555
C4_18 O1_16 1_555 1_555
In3_10 N2_12 1_555 1_555
In2_7 N4_9 1_555 1_555
N2_12 C1_18 1_555 1_555
N3_9 In2_4 1_555 1_555
N4_9 C5_11 1_555 1_555
O3_9 In2_4 1_555 1_555
O6_12 In3_10 1_555 1_555
O7_9 In2_7 1_555 1_555
O8_11 C10_11 1_555 1_555
O9_18 C11_18 1_555 1_555
O10_11 C12_11 1_555 1_555
C5_11 N3_9 1_555 1_555
H3_11 C5_11 1_555 1_555
C6_18 C3_18 1_555 1_555
C7_11 N3_9 1_555 1_555
C8_11 N4_9 1_555 1_555
C9_11 C7_11 1_555 1_555
H4_11 C9_11 1_555 1_555
C10_11 O3_9 1_555 1_555
C11_18 O6_12 1_555 1_555
C12_11 O7_9 1_555 1_555
C2_18 C4_18 1_555 1_555
N2_12 C6_18 1_555 1_555
C6_18 C11_18 1_555 1_555
C7_11 C10_11 1_555 1_555
C8_11 C9_11 1_555 1_555
C8_11 C12_11 1_555 1_555
N6 C5_12 1_555 1_555
O8_12 C10_12 1_555 1_555
O10_12 C12_12 1_555 1_555
C5_12 N6_6 1_555 1_555
H3_12 C5_12 1_555 1_555
C7_12 N6_6 1_555 1_555
C8_12 N6 1_555 1_555
C9_12 C7_12 1_555 1_555
H4_12 C9_12 1_555 1_555
C10_12 O5_6 1_555 1_555
C12_12 O5 1_555 1_555
C7_12 C10_12 1_555 1_555
C8_12 C9_12 1_555 1_555
C8_12 C12_12 1_555 1_555
N3_10 In3_9 1_555 1_555
N5_13 C5_13 1_555 1_555
O3_10 In3_9 1_555 1_555
O8_13 C10_13 1_555 1_555
O10_13 C12_13 1_555 1_555
C5_13 N3_10 1_555 1_555
H3_13 C5_13 1_555 1_555
C7_13 N3_10 1_555 1_555
C8_13 N5_13 1_555 1_555
C9_13 C7_13 1_555 1_555
H4_13 C9_13 1_555 1_555
C10_13 O3_10 1_555 1_555
C12_13 O4_13 1_555 1_555
C7_13 C10_13 1_555 1_555
C8_13 C9_13 1_555 1_555
C8_13 C12_13 1_555 1_555
N3_11 In3_10 1_555 1_555
N5_14 C5_14 1_555 1_555
O3_11 In3_10 1_555 1_555
O8_14 C10_14 1_555 1_555
O10_14 C12_14 1_555 1_555
C5_14 N3_11 1_555 1_555
H3_14 C5_14 1_555 1_555
C7_14 N3_11 1_555 1_555
C8_14 N5_14 1_555 1_555
C9_14 C7_14 1_555 1_555
H4_14 C9_14 1_555 1_555
C10_14 O3_11 1_555 1_555
C12_14 O4_14 1_555 1_555
C7_14 C10_14 1_555 1_555
C8_14 C9_14 1_555 1_555
C8_14 C12_14 1_555 1_555
N6_7 In2_7 1_555 1_555
O5_7 In2_7 1_555 1_555
N6_8 In2_8 1_555 1_555
O5_8 In2_8 1_555 1_555
N5_9 C5_15 1_555 1_555
O8_15 C10_15 1_555 1_555
O10_15 C12_15 1_555 1_555
C5_15 N6_7 1_555 1_555
H3_15 C5_15 1_555 1_555
C7_15 N6_7 1_555 1_555
C8_15 N5_9 1_555 1_555
C9_15 C7_15 1_555 1_555
H4_15 C9_15 1_555 1_555
C10_15 O5_7 1_555 1_555
C12_15 O4_9 1_555 1_555
C7_15 C10_15 1_555 1_555
C8_15 C9_15 1_555 1_555
C8_15 C12_15 1_555 1_555
N5_10 C5_16 1_555 1_555
O8_16 C10_16 1_555 1_555
O10_16 C12_16 1_555 1_555
C5_16 N6_8 1_555 1_555
H3_16 C5_16 1_555 1_555
C7_16 N6_8 1_555 1_555
C8_16 N5_10 1_555 1_555
C9_16 C7_16 1_555 1_555
H4_16 C9_16 1_555 1_555
C10_16 O5_8 1_555 1_555
C12_16 O4_10 1_555 1_555
C7_16 C10_16 1_555 1_555
C8_16 C9_16 1_555 1_555
C8_16 C12_16 1_555 1_555
N6_9 In3_7 1_555 1_555
O5_9 In3_7 1_555 1_555
N6_10 In3_8 1_555 1_555
O5_10 In3_8 1_555 1_555
N5_11 C5_17 1_555 1_555
O8_17 C10_17 1_555 1_555
O10_17 C12_17 1_555 1_555
C5_17 N6_9 1_555 1_555
H3_17 C5_17 1_555 1_555
C7_17 N6_9 1_555 1_555
C8_17 N5_11 1_555 1_555
C9_17 C7_17 1_555 1_555
H4_17 C9_17 1_555 1_555
C10_17 O5_9 1_555 1_555
C12_17 O4_11 1_555 1_555
C7_17 C10_17 1_555 1_555
C8_17 C9_17 1_555 1_555
C8_17 C12_17 1_555 1_555
N5_12 C5_18 1_555 1_555
O8_18 C10_18 1_555 1_555
O10_18 C12_18 1_555 1_555
C5_18 N6_10 1_555 1_555
H3_18 C5_18 1_555 1_555
C7_18 N6_10 1_555 1_555
C8_18 N5_12 1_555 1_555
C9_18 C7_18 1_555 1_555
H4_18 C9_18 1_555 1_555
C10_18 O5_10 1_555 1_555
C12_18 O4_12 1_555 1_555
C7_18 C10_18 1_555 1_555
C8_18 C9_18 1_555 1_555
C8_18 C12_18 1_555 1_555

#END
