
###############################################################################
#
# This file contains modified crystal structure data generated from the
# MOF subset of the Cambridge Structural Database (CSD) v543 
# hosted by the Cambridge Crystallographic Data Centre (CCDC).
#
# This work is licensed under the Creative Commons
# Attribution-NonCommercial-ShareAlike 4.0 International License.
# To view a copy of this license, visit
# http://creativecommons.org/licenses/by-nc-sa/4.0/
# or send a letter to
# Creative Commons, PO Box 1866, Mountain View, CA 94042, USA.
#
# CIF created using the CSD Python API on 29 September 2022
# The structure has been converted into the P1 space group
# The structure has a 3D framework
# The original CSD entry GODDIP is in the rhombohedral crystal system
# The framework has been calculated to contain at least 10.0% void space
# The void calculation uses a probe of radius 1.32A, grid spacing 0.4
# The framework is charged, counterions have been retained in the structure
# H atom positions have been added when not included in the experimental data
# Generated hydrogen atom positions removed from atoms on special positions
#
###############################################################################

data_GODDIP
_chemical_formula_moiety         '(C612 H468 Cl30 N36 O422 Sc72 9+)n'
_symmetry_cell_setting           triclinic
_symmetry_space_group_name_H-M   'P 1'
_symmetry_Int_Tables_number      1
_space_group_name_Hall           'P 1'
loop_
_symmetry_equiv_pos_site_id
_symmetry_equiv_pos_as_xyz
1 x,y,z
_cell_length_a                   31.868(5)
_cell_length_b                   31.868(5)
_cell_length_c                   39.083(5)
_cell_angle_alpha                90
_cell_angle_beta                 90
_cell_angle_gamma                120
_cell_volume                     34373.8
loop_
_atom_site_label
_atom_site_type_symbol
_atom_site_fract_x
_atom_site_fract_y
_atom_site_fract_z
O31 O 0.0429(3) 0.0967(4) 0.2252(2)
O32 O 0.1170(2) 0.2405(4) 0.14064(17)
O33 O 0.0637(3) 0.2515(4) 0.11118(19)
C46 C 0.0399(4) 0.1563(6) 0.1726(2)
H17 H 0.0703 0.1678 0.1823
C47 C 0.0348(4) 0.1818(6) 0.1438(3)
C49 C 0.0021(4) 0.0864(6) 0.2145(3)
C50 C 0.0736(4) 0.2268(6) 0.1314(3)
O51 O 0.0693(5) 0.7804(4) 0.04584(16)
O52 O 0.0568(5) 0.7942(4) 0.09996(17)
C70 C 0.0428(7) 0.7813(6) 0.0689(3)
Sc14 Sc 0.14196(7) 0.79511(10) 0.04528(4)
Sc18 Sc 0.09695(10) 0.32068(7) 0.08677(5)
Sc25 Sc 0.11993(7) 0.81559(10) 0.13008(4)
Sc27 Sc 0.18441(10) 0.30434(7) 0.13008(4)
Sc32 Sc 0.00092(7) 0.93665(7) 0.26533(5)
Sc34 Sc 0.06335(7) 0.06426(10) 0.26533(5)
Sc19 Sc 0.01265(7) 0.44294(7) 0.75344(5)
Sc28 Sc 0.02899(7) 0.54674(7) 0.79675(4)
Sc4 Sc 0.66575(7) 0.39668(7) 0.06800(5)
O2 O 0.6667 0.3333 0.0682(3)
O5 O 0.2196(4) 0.2889(3) 0.04584(16)
O6 O 0.2058(4) 0.2626(3) 0.09996(17)
O7 O 0.0924(3) 0.0390(3) 0.2292(2)
O17 O 0.5691(3) 0.2893(3) 0.02975(19)
O18 O 0.6097(3) 0.3702(3) 0.03115(18)
O22 O 0.6639(3) 0.4637(3) 0.0676(2)
C2 C 0.2187(6) 0.2615(4) 0.0689(3)
C3 C 0.2319(4) 0.2235(4) 0.0599(3)
C4 C 0.2507(4) 0.2226(4) 0.0280(3)
H1 H 0.2544 0.2453 0.0116
C5 C 0.2639(4) 0.1886(4) 0.0202(3)
C6 C 0.2519(4) 0.1518(4) 0.0438(3)
H2 H 0.2569 0.1263 0.0382
C7 C 0.2326(5) 0.1519(4) 0.0757(3)
C8 C 0.2205(4) 0.1858(4) 0.0842(3)
H3 H 0.2055 0.1846 0.1048
C9 C 0.1713(5) 0.0514(5) 0.1407(3)
C10 C 0.1433(5) 0.0459(5) 0.1684(3)
H4 H 0.1426 0.0730 0.1764
C11 C 0.1141(5) 0.0002(4) 0.1865(3)
C14 C 0.1758(4) 0.0145(4) 0.1284(3)
H6 H 0.1968 0.0196 0.1103
C32 C 0.5767(4) 0.3317(6) 0.0199(3)
C33 C 0.1963(7) 0.0988(5) 0.1251(5)
O23 O 0.2124(8) 0.1408(6) 0.1439(5)
N1 N 0.2172(7) 0.1078(5) 0.0974(3)
Sc8 Sc 0.60332(7) 0.26907(10) 0.06800(5)
O30 O 0.9610(3) 0.0534(4) 0.2292(2)
O40 O 0.7107(3) 0.2798(4) 0.02975(19)
O41 O 0.6298(3) 0.2395(4) 0.03115(18)
O45 O 0.5363(3) 0.2002(4) 0.0676(2)
C37 C 0.7765(4) 0.0084(6) 0.0599(3)
C38 C 0.7774(4) 0.0281(6) 0.0280(3)
H13 H 0.7547 0.0091 0.0116
C39 C 0.8114(4) 0.0753(6) 0.0202(3)
C40 C 0.8482(4) 0.1001(6) 0.0438(3)
H14 H 0.8737 0.1306 0.0382
C41 C 0.8481(4) 0.0807(6) 0.0757(3)
C42 C 0.8142(4) 0.0347(6) 0.0842(3)
H15 H 0.8154 0.0209 0.1048
C43 C 0.9486(5) 0.1199(7) 0.1407(3)
C44 C 0.9541(5) 0.0974(7) 0.1684(3)
H16 H 0.9270 0.0696 0.1764
C45 C 0.9998(4) 0.1139(6) 0.1865(3)
C48 C 0.9855(4) 0.1613(6) 0.1284(3)
H18 H 0.9804 0.1772 0.1103
C66 C 0.6683(6) 0.2450(7) 0.0199(3)
C67 C 0.9012(5) 0.0975(9) 0.1251(5)
O46 O 0.8592(6) 0.0716(10) 0.1439(5)
N3 N 0.8922(5) 0.1094(9) 0.0974(3)
Sc12 Sc 0.73093(10) 0.33425(7) 0.06800(5)
O53 O 0.9466(4) 0.9076(3) 0.2292(2)
O54 O 0.9033(4) 0.9462(3) 0.2252(2)
O55 O 0.7595(4) 0.8765(3) 0.14064(17)
O56 O 0.7485(4) 0.8122(3) 0.11118(19)
O63 O 0.7202(4) 0.4309(3) 0.02975(19)
O64 O 0.7605(4) 0.3903(3) 0.03115(18)
O68 O 0.7998(4) 0.3361(3) 0.0676(2)
C71 C 0.9916(6) 0.7681(4) 0.0599(3)
C72 C 0.9719(6) 0.7493(4) 0.0280(3)
H25 H 0.9909 0.7456 0.0116
C73 C 0.9247(6) 0.7361(4) 0.0202(3)
C74 C 0.8999(6) 0.7481(4) 0.0438(3)
H26 H 0.8694 0.7431 0.0382
C75 C 0.9193(6) 0.7674(5) 0.0757(3)
C76 C 0.9653(6) 0.7795(4) 0.0842(3)
H27 H 0.9791 0.7945 0.1048
C77 C 0.8801(7) 0.8287(5) 0.1407(3)
C78 C 0.9026(7) 0.8567(5) 0.1684(3)
H28 H 0.9304 0.8574 0.1764
C79 C 0.8861(6) 0.8859(5) 0.1865(3)
C80 C 0.8437(6) 0.8836(4) 0.1726(2)
H29 H 0.8322 0.9025 0.1823
C81 C 0.8182(6) 0.8530(5) 0.1438(3)
C82 C 0.8387(6) 0.8242(4) 0.1284(3)
H30 H 0.8228 0.8032 0.1103
C83 C 0.9136(6) 0.9157(4) 0.2145(3)
C84 C 0.7732(6) 0.8468(4) 0.1314(3)
C100 C 0.7550(7) 0.4233(4) 0.0199(3)
C101 C 0.9025(9) 0.8037(7) 0.1251(5)
O69 O 0.9284(10) 0.7876(8) 0.1439(5)
N5 N 0.8906(9) 0.7828(7) 0.0974(3)
Sc15 Sc 0.20489(10) 0.34685(7) 0.04528(4)
Sc16 Sc 0.67932(7) 0.77627(7) 0.08677(5)
Sc23 Sc 0.69566(7) 0.88007(7) 0.13008(4)
Sc36 Sc 0.93574(10) 0.99908(7) 0.26533(5)
O77 O 0.5743(3) 0.2943(3) 0.1041(2)
O78 O 0.7057(3) 0.2799(4) 0.1041(2)
O79 O 0.7201(4) 0.4257(3) 0.1041(2)
O80 O 0.6129(3) 0.3762(3) 0.1081(2)
O81 O 0.6238(3) 0.2366(4) 0.1081(2)
O82 O 0.7634(4) 0.3871(3) 0.1081(2)
H43 H 0.343346 0.0951342 0.0112778
H47 H 0.904866 0.248212 0.0112778
H49 H 0.22489 0.0826202 0.0881882
H55 H 0.91738 0.14227 0.0881882
H62 H 0.768964 0.642585 0.0196093
H66 H 0.85773 0.77511 0.0881882
Sc1 Sc 0.34685(7) 0.14196(7) 0.95472(4)
Sc2 Sc 0.32068(7) 0.22373(7) 0.91323(5)
Sc3 Sc 0.30434(7) 0.11993(7) 0.86992(4)
O1 O 0.3233(2) 0.1616(2) 0.91248(14)
O3 O 0.3073(3) 0.1630(3) 0.98670(17)
O4 O 0.2867(3) 0.2122(3) 0.96229(19)
O11 O 0.7326(4) 0.6115(3) 0.92478(18)
O12 O 0.7432(4) 0.6351(3) 0.86937(17)
O13 O 0.5832(4) 0.5603(3) 0.80038(18)
O14 O 0.5156(4) 0.5041(3) 0.82808(18)
O15 O 0.4087(2) 0.2109(3) 0.96333(18)
O16 O 0.3872(4) 0.2595(3) 0.93739(19)
O19 O 0.3164(3) 0.2894(3) 0.9138(2)
O20 O 0.3716(3) 0.1208(3) 0.99867(18)
O21 O 0.2837(3) 0.0763(3) 0.82563(18)
C1 C 0.2868(4) 0.1881(4) 0.9873(3)
C17 C 0.7177(6) 0.6086(4) 0.8941(3)
C18 C 0.5631(6) 0.5345(4) 0.8249(3)
C19 C 0.5905(6) 0.5330(4) 0.8561(3)
C20 C 0.6404(6) 0.5703(4) 0.8589(3)
H7 H 0.6549 0.5930 0.8415
C21 C 0.6666(7) 0.5720(5) 0.8878(3)
C22 C 0.6422(6) 0.5339(4) 0.9134(3)
H8 H 0.6595 0.5331 0.9324
C23 C 0.5963(8) 0.5008(5) 0.9101(3)
C24 C 0.5684(6) 0.4985(4) 0.8805(3)
H9 H 0.5363 0.4742 0.8782
C25 C 0.5246(4) 0.3791(4) 0.9548(3)
C26 C 0.4784(5) 0.3381(6) 0.9487(3)
H10 H 0.4569 0.3411 0.9343
C27 C 0.4645(4) 0.2933(4) 0.9637(3)
C28 C 0.4977(4) 0.2920(4) 0.9861(3)
H11 H 0.4898 0.2625 0.9961
C29 C 0.5419(4) 0.3320(4) 0.9942(3)
C30 C 0.5550(4) 0.3750(5) 0.9768(3)
H12 H 0.5856 0.4017 0.9804
C31 C 0.4178(4) 0.2504(5) 0.9543(2)
N2 N 0.5791(10) 0.4599(6) 0.9365(6)
C34 C 0.5427(10) 0.4223(8) 0.9343(6)
O24 O 0.5056(10) 0.4276(9) 0.9271(7)
Sc5 Sc 0.85804(7) 0.20489(10) 0.95472(4)
Sc6 Sc 0.77627(7) 0.09695(10) 0.91323(5)
Sc7 Sc 0.88007(7) 0.18441(10) 0.86992(4)
O25 O 0.8384(2) 0.1617(3) 0.91248(14)
O26 O 0.8370(3) 0.1443(4) 0.98670(17)
O27 O 0.7878(3) 0.0745(4) 0.96229(19)
O34 O 0.3885(3) 0.1211(5) 0.92478(18)
O35 O 0.3649(3) 0.1081(5) 0.86937(17)
O36 O 0.4397(3) 0.0229(5) 0.80038(18)
O37 O 0.4959(3) 0.0115(5) 0.82808(18)
O38 O 0.7891(3) 0.1978(4) 0.96333(18)
O39 O 0.7405(3) 0.1277(5) 0.93739(19)
O42 O 0.7106(3) 0.0270(4) 0.9138(2)
O43 O 0.8792(3) 0.2508(4) 0.99867(18)
O44 O 0.9237(3) 0.2074(4) 0.82563(18)
C35 C 0.8119(4) 0.0987(6) 0.9873(3)
C51 C 0.3914(4) 0.1091(7) 0.8941(3)
C52 C 0.4655(4) 0.0286(7) 0.8249(3)
C53 C 0.4670(4) 0.0575(7) 0.8561(3)
C54 C 0.4297(4) 0.0701(7) 0.8589(3)
H19 H 0.4070 0.0619 0.8415
C55 C 0.4280(5) 0.0946(9) 0.8878(3)
C56 C 0.4661(4) 0.1083(7) 0.9134(3)
H20 H 0.4669 0.1264 0.9324
C57 C 0.4992(5) 0.0955(9) 0.9101(3)
C58 C 0.5015(4) 0.0699(7) 0.8805(3)
H21 H 0.5258 0.0621 0.8782
C59 C 0.6209(4) 0.1455(6) 0.9548(3)
C60 C 0.6619(6) 0.1403(8) 0.9487(3)
H22 H 0.6589 0.1158 0.9343
C61 C 0.7067(4) 0.1712(6) 0.9637(3)
C62 C 0.7080(4) 0.2057(6) 0.9861(3)
H23 H 0.7375 0.2273 0.9961
C63 C 0.6680(4) 0.2099(6) 0.9942(3)
C64 C 0.6250(5) 0.1800(6) 0.9768(3)
H24 H 0.5983 0.1839 0.9804
C65 C 0.7496(5) 0.1674(6) 0.9543(2)
N4 N 0.5401(6) 0.1192(12) 0.9365(6)
C68 C 0.5777(8) 0.1204(13) 0.9343(6)
O47 O 0.5724(9) 0.0780(13) 0.9271(7)
Sc9 Sc 0.79511(10) 0.65315(7) 0.95472(4)
Sc10 Sc 0.90305(10) 0.67932(7) 0.91323(5)
Sc11 Sc 0.81559(10) 0.69566(7) 0.86992(4)
O48 O 0.8383(3) 0.6767(2) 0.91248(14)
O49 O 0.8557(4) 0.6927(3) 0.98670(17)
O50 O 0.9255(4) 0.7133(3) 0.96229(19)
O57 O 0.8789(5) 0.2674(4) 0.92478(18)
O58 O 0.8919(5) 0.2568(4) 0.86937(17)
O59 O 0.9771(5) 0.4168(4) 0.80038(18)
O60 O 0.9885(5) 0.4844(4) 0.82808(18)
O61 O 0.8022(4) 0.5913(2) 0.96333(18)
O62 O 0.8723(5) 0.6128(4) 0.93739(19)
O65 O 0.9730(4) 0.6836(3) 0.9138(2)
O66 O 0.7492(4) 0.6284(3) 0.99867(18)
O67 O 0.7926(4) 0.7163(3) 0.82563(18)
C69 C 0.9013(6) 0.7132(4) 0.9873(3)
C85 C 0.8909(7) 0.2823(6) 0.8941(3)
C86 C 0.9714(7) 0.4369(6) 0.8249(3)
C87 C 0.9425(7) 0.4095(6) 0.8561(3)
C88 C 0.9299(7) 0.3596(6) 0.8589(3)
H31 H 0.9381 0.3451 0.8415
C89 C 0.9054(9) 0.3334(7) 0.8878(3)
C90 C 0.8917(7) 0.3578(6) 0.9134(3)
H32 H 0.8736 0.3405 0.9324
C91 C 0.9045(9) 0.4037(8) 0.9101(3)
C92 C 0.9301(7) 0.4316(6) 0.8805(3)
H33 H 0.9379 0.4637 0.8782
C93 C 0.8545(6) 0.4754(4) 0.9548(3)
C94 C 0.8597(8) 0.5216(5) 0.9487(3)
H34 H 0.8842 0.5431 0.9343
C95 C 0.8288(6) 0.5355(4) 0.9637(3)
C96 C 0.7943(6) 0.5023(4) 0.9861(3)
H35 H 0.7727 0.5102 0.9961
C97 C 0.7901(6) 0.4581(4) 0.9942(3)
C98 C 0.8200(6) 0.4450(4) 0.9768(3)
H36 H 0.8161 0.4144 0.9804
C99 C 0.8326(6) 0.5822(4) 0.9543(2)
N6 N 0.8808(12) 0.4209(10) 0.9365(6)
C102 C 0.8796(13) 0.4573(10) 0.9343(6)
O70 O 0.9220(13) 0.4944(10) 0.9271(7)
Sc20 Sc 0.55706(7) 0.56972(10) 0.75344(5)
Sc29 Sc 0.45326(7) 0.48226(10) 0.79675(4)
O71 O 0.7804(4) 0.7111(3) 0.95416(16)
O72 O 0.2889(3) 0.0693(5) 0.95416(16)
O73 O 0.9307(5) 0.2196(4) 0.95416(16)
O74 O 0.7942(4) 0.7374(3) 0.90004(17)
O75 O 0.2626(3) 0.0568(5) 0.90004(17)
O76 O 0.9432(5) 0.2058(4) 0.90004(17)
O83 O 0.8765(3) 0.1170(2) 0.85936(17)
O84 O 0.8830(2) 0.7595(4) 0.85936(17)
O85 O 0.2405(4) 0.1235(3) 0.85936(17)
O86 O 0.8122(3) 0.0637(3) 0.88882(19)
O87 O 0.9363(3) 0.7485(4) 0.88882(19)
O88 O 0.2515(4) 0.1878(3) 0.88882(19)
O89 O 0.7501(4) 0.1064(3) 0.86629(18)
O90 O 0.8936(3) 0.6438(5) 0.86629(18)
O91 O 0.3562(5) 0.2499(4) 0.86629(18)
O92 O 0.8177(4) 0.1626(3) 0.83859(18)
O93 O 0.8374(3) 0.6552(5) 0.83859(18)
O94 O 0.3448(5) 0.1823(4) 0.83859(18)
H37 H 0.292854 0.286691 0.931533
H38 H 0.348812 0.317476 0.919092
H39 H 0.279247 0.0439732 0.831398
H40 H 0.252801 0.0724546 0.816689
H44 H 0.393026 0.108154 0.991331
H45 H 0.713309 0.00616316 0.931533
H46 H 0.682524 0.031336 0.919092
H48 H 0.891846 0.284872 0.991331
H50 H 0.600384 0.46546 0.95727
H51 H 0.956027 0.235274 0.831398
H52 H 0.927545 0.180347 0.816689
H56 H 0.53454 0.134924 0.95727
H59 H 0.993837 0.707146 0.931533
H60 H 0.968664 0.651188 0.919092
H61 H 0.732792 0.592506 0.999899
H63 H 0.764726 0.720753 0.831398
H64 H 0.819653 0.747199 0.816689
H65 H 0.865076 0.399616 0.95727
O8 O 0.0538(3) 0.9571(3) 0.2252(2)
O9 O 0.1235(3) 0.8830(2) 0.14064(17)
O10 O 0.1878(3) 0.9363(3) 0.11118(19)
C12 C 0.1164(4) 0.9601(4) 0.1726(2)
H5 H 0.0975 0.9297 0.1823
C13 C 0.1470(5) 0.9652(4) 0.1438(3)
C15 C 0.0843(4) 0.9979(4) 0.2145(3)
C16 C 0.1532(4) 0.9264(4) 0.1314(3)
O28 O 0.7111(3) 0.9307(5) 0.04584(16)
O29 O 0.7374(3) 0.9432(5) 0.09996(17)
C36 C 0.7385(4) 0.9572(7) 0.0689(3)
Sc13 Sc 0.65315(7) 0.85804(7) 0.04528(4)
Sc17 Sc 0.22373(7) 0.90305(10) 0.08677(5)
Sc21 Sc 0.43028(10) 0.98735(7) 0.75344(5)
Sc30 Sc 0.51774(10) 0.97101(7) 0.79675(4)
H47_2 H 0.751788 0.656654 0.0112778
H62_2 H 0.357415 0.126379 0.0196093
H48_2 H 0.715128 0.606974 0.991331
H61_2 H 0.407494 0.140286 0.999899
H62_3 H 0.873621 0.231036 0.0196093
H61_3 H 0.859714 0.267208 0.999899
Sc10_2 Sc 0.56972(10) 0.01265(7) 0.24656(5)
Sc11_2 Sc 0.48226(10) 0.02899(7) 0.20325(4)
O48_2 O 0.5050(3) 0.0100(2) 0.24581(14)
O49_2 O 0.5224(4) 0.0260(3) 0.32003(17)
O50_2 O 0.5922(4) 0.0466(3) 0.29562(19)
O51_2 O 0.7360(5) 0.1137(4) 0.37917(16)
O52_2 O 0.7235(5) 0.1275(4) 0.43329(17)
O53_2 O 0.6133(4) 0.2409(3) 0.5625(2)
O54_2 O 0.5700(4) 0.2795(3) 0.5585(2)
O55_2 O 0.4262(4) 0.2098(3) 0.47397(17)
O56_2 O 0.4152(4) 0.1455(3) 0.44451(19)
O65_2 O 0.6397(4) 0.0169(3) 0.2471(2)
O67_2 O 0.4593(4) 0.0496(3) 0.15896(18)
C69_2 C 0.5680(6) 0.0465(4) 0.3206(3)
C70_2 C 0.7095(7) 0.1146(6) 0.4022(3)
C71_2 C 0.6583(6) 0.1014(4) 0.3932(3)
C72_2 C 0.6386(6) 0.0826(4) 0.3613(3)
H25_2 H 0.6576 0.0789 0.3449
C73_2 C 0.5914(6) 0.0694(4) 0.3535(3)
C74_2 C 0.5666(6) 0.0814(4) 0.3771(3)
H26_2 H 0.5361 0.0764 0.3715
C75_2 C 0.5860(6) 0.1007(5) 0.4090(3)
C76_2 C 0.6320(6) 0.1128(4) 0.4175(3)
H27_2 H 0.6458 0.1278 0.4381
C77_2 C 0.5468(7) 0.1620(5) 0.4740(3)
C78_2 C 0.5693(7) 0.1900(5) 0.5017(3)
H28_2 H 0.5971 0.1907 0.5097
C79_2 C 0.5528(6) 0.2192(5) 0.5198(3)
C80_2 C 0.5104(6) 0.2169(4) 0.5059(2)
H29_2 H 0.4989 0.2358 0.5156
C81_2 C 0.4849(6) 0.1863(5) 0.4771(3)
C82_2 C 0.5054(6) 0.1575(4) 0.4617(3)
H30_2 H 0.4895 0.1365 0.4436
C83_2 C 0.5803(6) 0.2490(4) 0.5478(3)
C84_2 C 0.4399(6) 0.1801(4) 0.4647(3)
C101_2 C 0.5692(9) 0.1370(7) 0.4584(5)
O69_2 O 0.5951(10) 0.1209(8) 0.4772(5)
N5_2 N 0.5573(9) 0.1161(7) 0.4307(3)
Sc14_2 Sc 0.80863(7) 0.12844(10) 0.37861(4)
Sc16_2 Sc 0.34599(7) 0.10960(7) 0.42010(5)
Sc23_2 Sc 0.36233(7) 0.21340(7) 0.46341(4)
Sc25_2 Sc 0.78660(7) 0.14892(10) 0.46341(4)
Sc32_2 Sc 0.66758(7) 0.26999(7) 0.59867(5)
Sc36_2 Sc 0.60240(10) 0.33242(7) 0.59867(5)
O71_2 O 0.4471(4) 0.0444(3) 0.28749(16)
O74_2 O 0.4609(4) 0.0707(3) 0.23337(17)
O84_2 O 0.5497(2) 0.0928(4) 0.19269(17)
O87_2 O 0.6030(3) 0.0818(4) 0.22215(19)
H59_2 H 0.660504 0.0404794 0.264866
H63_2 H 0.431393 0.0540865 0.164731
H64_2 H 0.48632 0.0805322 0.150023
H66_2 H 0.524397 0.108443 0.421522
Sc1_2 Sc 0.01352(7) 0.47529(7) 0.28805(4)
Sc4_2 Sc 0.33242(7) 0.73001(7) 0.40133(5)
O2_2 O 0.3334 0.6666 0.4015(3)
O11_2 O 0.3993(4) 0.9448(3) 0.25811(18)
O12_2 O 0.4099(4) 0.9684(3) 0.20270(17)
O13_2 O 0.2499(4) 0.8936(3) 0.13371(18)
O14_2 O 0.1823(4) 0.8374(3) 0.16141(18)
O15_2 O 0.0754(2) 0.5442(3) 0.29666(18)
O16_2 O 0.0539(4) 0.5928(3) 0.27072(19)
O17_2 O 0.2358(3) 0.6226(3) 0.36308(19)
O18_2 O 0.2764(3) 0.7035(3) 0.36448(18)
O20_2 O 0.0383(3) 0.4541(3) 0.33200(18)
O22_2 O 0.3306(3) 0.7970(3) 0.4009(2)
C17_2 C 0.3844(6) 0.9419(4) 0.2274(3)
C18_2 C 0.2298(6) 0.8678(4) 0.1582(3)
C19_2 C 0.2572(6) 0.8663(4) 0.1894(3)
C20_2 C 0.3071(6) 0.9036(4) 0.1922(3)
H7_2 H 0.3216 0.9263 0.1748
C21_2 C 0.3333(7) 0.9053(5) 0.2211(3)
C22_2 C 0.3089(6) 0.8672(4) 0.2467(3)
H8_2 H 0.3262 0.8664 0.2657
C23_2 C 0.2630(8) 0.8341(5) 0.2434(3)
C24_2 C 0.2351(6) 0.8318(4) 0.2138(3)
H9_2 H 0.2030 0.8075 0.2115
C25_2 C 0.1913(4) 0.7124(4) 0.2881(3)
C26_2 C 0.1451(5) 0.6714(6) 0.2820(3)
H10_2 H 0.1236 0.6744 0.2676
C27_2 C 0.1312(4) 0.6266(4) 0.2970(3)
C28_2 C 0.1644(4) 0.6253(4) 0.3194(3)
H11_2 H 0.1565 0.5958 0.3294
C29_2 C 0.2086(4) 0.6653(4) 0.3275(3)
C30_2 C 0.2217(4) 0.7083(5) 0.3101(3)
H12_2 H 0.2523 0.7350 0.3137
C31_2 C 0.0845(4) 0.5837(5) 0.2876(2)
C32_2 C 0.2434(4) 0.6650(6) 0.3532(3)
N2_2 N 0.2458(10) 0.7932(6) 0.2698(6)
C34_2 C 0.2094(10) 0.7556(8) 0.2676(6)
O24_2 O 0.1723(10) 0.7609(9) 0.2604(7)
Sc5_2 Sc 0.52471(7) 0.53822(10) 0.28805(4)
Sc6_2 Sc 0.44294(7) 0.43028(10) 0.24656(5)
Sc7_2 Sc 0.54674(7) 0.51774(10) 0.20325(4)
Sc8_2 Sc 0.26999(7) 0.60240(10) 0.40133(5)
O25_2 O 0.5051(2) 0.4950(3) 0.24581(14)
O26_2 O 0.5037(3) 0.4776(4) 0.32003(17)
O27_2 O 0.4545(3) 0.4078(4) 0.29562(19)
O28_2 O 0.3778(3) 0.2640(5) 0.37917(16)
O29_2 O 0.4041(3) 0.2765(5) 0.43329(17)
O30_2 O 0.6277(3) 0.3867(4) 0.5625(2)
O31_2 O 0.7096(3) 0.4300(4) 0.5585(2)
O32_2 O 0.7837(2) 0.5738(4) 0.47397(17)
O33_2 O 0.7304(3) 0.5848(4) 0.44451(19)
O34_2 O 0.0552(3) 0.4544(5) 0.25811(18)
O35_2 O 0.0316(3) 0.4414(5) 0.20270(17)
O36_2 O 0.1064(3) 0.3562(5) 0.13371(18)
O37_2 O 0.1626(3) 0.3448(5) 0.16141(18)
O38_2 O 0.4558(3) 0.5311(4) 0.29666(18)
O39_2 O 0.4072(3) 0.4610(5) 0.27072(19)
O40_2 O 0.3774(3) 0.6131(4) 0.36308(19)
O41_2 O 0.2965(3) 0.5728(4) 0.36448(18)
O42_2 O 0.3773(3) 0.3603(4) 0.2471(2)
O43_2 O 0.5459(3) 0.5841(4) 0.33200(18)
O44_2 O 0.5904(3) 0.5407(4) 0.15896(18)
O45_2 O 0.2030(3) 0.5335(4) 0.4009(2)
C35_2 C 0.4786(4) 0.4320(6) 0.3206(3)
C36_2 C 0.4052(4) 0.2905(7) 0.4022(3)
C37_2 C 0.4432(4) 0.3417(6) 0.3932(3)
C38_2 C 0.4441(4) 0.3614(6) 0.3613(3)
H13_2 H 0.4214 0.3424 0.3449
C39_2 C 0.4781(4) 0.4086(6) 0.3535(3)
C40_2 C 0.5149(4) 0.4334(6) 0.3771(3)
H14_2 H 0.5404 0.4639 0.3715
C41_2 C 0.5148(4) 0.4140(6) 0.4090(3)
C42_2 C 0.4809(4) 0.3680(6) 0.4175(3)
H15_2 H 0.4821 0.3542 0.4381
C43_2 C 0.6153(5) 0.4532(7) 0.4740(3)
C44_2 C 0.6208(5) 0.4307(7) 0.5017(3)
H16_2 H 0.5937 0.4029 0.5097
C45_2 C 0.6665(4) 0.4472(6) 0.5198(3)
C46_2 C 0.7066(4) 0.4896(6) 0.5059(2)
H17_2 H 0.7370 0.5011 0.5156
C47_2 C 0.7015(4) 0.5151(6) 0.4771(3)
C48_2 C 0.6522(4) 0.4946(6) 0.4617(3)
H18_2 H 0.6471 0.5105 0.4436
C49_2 C 0.6688(4) 0.4197(6) 0.5478(3)
C50_2 C 0.7403(4) 0.5601(6) 0.4647(3)
C51_2 C 0.0581(4) 0.4424(7) 0.2274(3)
C52_2 C 0.1322(4) 0.3619(7) 0.1582(3)
C53_2 C 0.1337(4) 0.3908(7) 0.1894(3)
C54_2 C 0.0964(4) 0.4034(7) 0.1922(3)
H19_2 H 0.0737 0.3952 0.1748
C55_2 C 0.0947(5) 0.4279(9) 0.2211(3)
C56_2 C 0.1328(4) 0.4416(7) 0.2467(3)
H20_2 H 0.1336 0.4597 0.2657
C57_2 C 0.1659(5) 0.4288(9) 0.2434(3)
C58_2 C 0.1682(4) 0.4032(7) 0.2138(3)
H21_2 H 0.1925 0.3954 0.2115
C59_2 C 0.2876(4) 0.4788(6) 0.2881(3)
C60_2 C 0.3286(6) 0.4736(8) 0.2820(3)
H22_2 H 0.3256 0.4491 0.2676
C61_2 C 0.3734(4) 0.5045(6) 0.2970(3)
C62_2 C 0.3747(4) 0.5390(6) 0.3194(3)
H23_2 H 0.4042 0.5606 0.3294
C63_2 C 0.3347(4) 0.5432(6) 0.3275(3)
C64_2 C 0.2917(5) 0.5133(6) 0.3101(3)
H24_2 H 0.2650 0.5172 0.3137
C65_2 C 0.4163(5) 0.5007(6) 0.2876(2)
C66_2 C 0.3350(6) 0.5783(7) 0.3532(3)
C67_2 C 0.5679(5) 0.4308(9) 0.4584(5)
O46_2 O 0.5259(6) 0.4049(10) 0.4772(5)
N3_2 N 0.5589(5) 0.4427(9) 0.4307(3)
N4_2 N 0.2068(6) 0.4525(12) 0.2698(6)
C68_2 C 0.2444(8) 0.4537(13) 0.2676(6)
O47_2 O 0.2391(9) 0.4113(13) 0.2604(7)
Sc9_2 Sc 0.46178(10) 0.98648(7) 0.28805(4)
Sc12_2 Sc 0.39760(10) 0.66758(7) 0.40133(5)
O57_2 O 0.5456(5) 0.6007(4) 0.25811(18)
O58_2 O 0.5586(5) 0.5901(4) 0.20270(17)
O59_2 O 0.6438(5) 0.7501(4) 0.13371(18)
O60_2 O 0.6552(5) 0.8177(4) 0.16141(18)
O61_2 O 0.4689(4) 0.9246(2) 0.29666(18)
O62_2 O 0.5390(5) 0.9461(4) 0.27072(19)
O63_2 O 0.3869(4) 0.7642(3) 0.36308(19)
O64_2 O 0.4272(4) 0.7236(3) 0.36448(18)
O66_2 O 0.4159(4) 0.9617(3) 0.33200(18)
O68_2 O 0.4665(4) 0.6694(3) 0.4009(2)
C85_2 C 0.5576(7) 0.6156(6) 0.2274(3)
C86_2 C 0.6381(7) 0.7702(6) 0.1582(3)
C87_2 C 0.6092(7) 0.7428(6) 0.1894(3)
C88_2 C 0.5966(7) 0.6929(6) 0.1922(3)
H31_2 H 0.6048 0.6784 0.1748
C89_2 C 0.5721(9) 0.6667(7) 0.2211(3)
C90_2 C 0.5584(7) 0.6911(6) 0.2467(3)
H32_2 H 0.5403 0.6738 0.2657
C91_2 C 0.5712(9) 0.7370(8) 0.2434(3)
C92_2 C 0.5968(7) 0.7649(6) 0.2138(3)
H33_2 H 0.6046 0.7970 0.2115
C93_2 C 0.5212(6) 0.8087(4) 0.2881(3)
C94_2 C 0.5264(8) 0.8549(5) 0.2820(3)
H34_2 H 0.5509 0.8764 0.2676
C95_2 C 0.4955(6) 0.8688(4) 0.2970(3)
C96_2 C 0.4610(6) 0.8356(4) 0.3194(3)
H35_2 H 0.4394 0.8435 0.3294
C97_2 C 0.4568(6) 0.7914(4) 0.3275(3)
C98_2 C 0.4867(6) 0.7783(4) 0.3101(3)
H36_2 H 0.4828 0.7477 0.3137
C99_2 C 0.4993(6) 0.9155(4) 0.2876(2)
C100_2 C 0.4217(7) 0.7566(4) 0.3532(3)
N6_2 N 0.5475(12) 0.7542(10) 0.2698(6)
C102_2 C 0.5463(13) 0.7906(10) 0.2676(6)
O70_2 O 0.5887(13) 0.8277(10) 0.2604(7)
Sc13_2 Sc 0.31982(7) 0.19137(7) 0.37861(4)
Sc18_2 Sc 0.76362(10) 0.65401(7) 0.42010(5)
Sc27_2 Sc 0.85108(10) 0.63767(7) 0.46341(4)
Sc34_2 Sc 0.73001(7) 0.39760(10) 0.59867(5)
O73_2 O 0.5974(5) 0.5529(4) 0.28749(16)
O76_2 O 0.6099(5) 0.5391(4) 0.23337(17)
O77_2 O 0.2409(3) 0.6277(3) 0.4375(2)
O78_2 O 0.3723(3) 0.6133(4) 0.4375(2)
O79_2 O 0.3867(4) 0.7591(3) 0.4375(2)
O80_2 O 0.2795(3) 0.7096(3) 0.4415(2)
O81_2 O 0.2904(3) 0.5700(4) 0.4415(2)
O82_2 O 0.4300(4) 0.7205(3) 0.4415(2)
O83_2 O 0.5432(3) 0.4503(2) 0.19269(17)
O86_2 O 0.4789(3) 0.3970(3) 0.22215(19)
O89_2 O 0.4168(4) 0.4397(3) 0.19962(18)
O90_2 O 0.5603(3) 0.9771(5) 0.19962(18)
O91_2 O 0.0229(5) 0.5832(4) 0.19962(18)
O92_2 O 0.4844(4) 0.4959(3) 0.17192(18)
O93_2 O 0.5041(3) 0.9885(5) 0.17192(18)
O94_2 O 0.0115(5) 0.5156(4) 0.17192(18)
H38_2 H 0.0154788 0.650809 0.252425
H45_2 H 0.379976 0.339496 0.264866
H46_2 H 0.349191 0.364669 0.252425
H50_2 H 0.26705 0.798793 0.290604
H51_2 H 0.622693 0.568607 0.164731
H52_2 H 0.594212 0.51368 0.150023
H55_2 H 0.584046 0.475603 0.421522
H56_2 H 0.201207 0.468258 0.290604
H60_2 H 0.635331 0.984521 0.252425
H65_2 H 0.531742 0.73295 0.290604
Sc2_2 Sc 0.98735(7) 0.55706(7) 0.24656(5)
Sc3_2 Sc 0.97101(7) 0.45326(7) 0.20325(4)
O1_2 O 0.9900(2) 0.4949(2) 0.24581(14)
O3_2 O 0.9740(3) 0.4963(3) 0.32003(17)
O4_2 O 0.9534(3) 0.5455(3) 0.29562(19)
O5_2 O 0.8863(4) 0.6222(3) 0.37917(16)
O6_2 O 0.8725(4) 0.5959(3) 0.43329(17)
O7_2 O 0.7591(3) 0.3723(3) 0.5625(2)
O8_2 O 0.7205(3) 0.2904(3) 0.5585(2)
O9_2 O 0.7902(3) 0.2163(2) 0.47397(17)
O10_2 O 0.8545(3) 0.2696(3) 0.44451(19)
O19_2 O 0.9831(3) 0.6227(3) 0.2471(2)
O21_2 O 0.9504(3) 0.4096(3) 0.15896(18)
C1_2 C 0.9535(4) 0.5214(4) 0.3206(3)
C2_2 C 0.8854(6) 0.5948(4) 0.4022(3)
C3_2 C 0.8986(4) 0.5568(4) 0.3932(3)
C4_2 C 0.9174(4) 0.5559(4) 0.3613(3)
H1_2 H 0.9211 0.5786 0.3449
C5_2 C 0.9306(4) 0.5219(4) 0.3535(3)
C6_2 C 0.9186(4) 0.4851(4) 0.3771(3)
H2_2 H 0.9236 0.4596 0.3715
C7_2 C 0.8993(5) 0.4852(4) 0.4090(3)
C8_2 C 0.8872(4) 0.5191(4) 0.4175(3)
H3_2 H 0.8722 0.5179 0.4381
C9_2 C 0.8380(5) 0.3847(5) 0.4740(3)
C10_2 C 0.8100(5) 0.3792(5) 0.5017(3)
H4_2 H 0.8093 0.4063 0.5097
C11_2 C 0.7808(5) 0.3335(4) 0.5198(3)
C12_2 C 0.7831(4) 0.2934(4) 0.5059(2)
H5_2 H 0.7642 0.2630 0.5156
C13_2 C 0.8137(5) 0.2985(4) 0.4771(3)
C14_2 C 0.8425(4) 0.3478(4) 0.4617(3)
H6_2 H 0.8635 0.3529 0.4436
C15_2 C 0.7510(4) 0.3312(4) 0.5478(3)
C16_2 C 0.8199(4) 0.2597(4) 0.4647(3)
C33_2 C 0.8630(7) 0.4321(5) 0.4584(5)
O23_2 O 0.8791(8) 0.4741(6) 0.4772(5)
N1_2 N 0.8839(7) 0.4411(5) 0.4307(3)
Sc15_2 Sc 0.87156(10) 0.68018(7) 0.37861(4)
Sc17_2 Sc 0.89040(7) 0.23638(10) 0.42010(5)
O72_2 O 0.9556(3) 0.4026(5) 0.28749(16)
O75_2 O 0.9293(3) 0.3901(5) 0.23337(17)
O85_2 O 0.9072(4) 0.4568(3) 0.19269(17)
O88_2 O 0.9182(4) 0.5211(3) 0.22215(19)
H37_2 H 0.959521 0.620024 0.264866
H39_2 H 0.945914 0.377307 0.164731
H40_2 H 0.919468 0.405788 0.150023
H49_2 H 0.891557 0.415954 0.421522
O11_3 O 0.0659(4) 0.2782(3) 0.59145(18)
O12_3 O 0.0765(4) 0.3018(3) 0.53604(17)
C17_3 C 0.0510(6) 0.2753(4) 0.5608(3)
Sc9_3 Sc 0.12844(10) 0.31982(7) 0.62139(4)
Sc10_3 Sc 0.23638(10) 0.34599(7) 0.57990(5)
Sc11_3 Sc 0.14892(10) 0.36233(7) 0.53659(4)
Sc12_3 Sc 0.06426(10) 0.00092(7) 0.73467(5)
O48_3 O 0.1716(3) 0.3434(2) 0.57915(14)
O49_3 O 0.1890(4) 0.3594(3) 0.65337(17)
O50_3 O 0.2588(4) 0.3800(3) 0.62896(19)
O51_3 O 0.4026(5) 0.4471(4) 0.71251(16)
O52_3 O 0.3901(5) 0.4609(4) 0.76663(17)
O53_3 O 0.2799(4) 0.5743(3) 0.8959(2)
O54_3 O 0.2366(4) 0.6129(3) 0.8919(2)
O55_3 O 0.0928(4) 0.5432(3) 0.80731(17)
O56_3 O 0.0818(4) 0.4789(3) 0.77785(19)
O59_3 O 0.3104(5) 0.0835(4) 0.46705(18)
O60_3 O 0.3218(5) 0.1511(4) 0.49475(18)
O61_3 O 0.1355(4) 0.2580(2) 0.63000(18)
O62_3 O 0.2056(5) 0.2795(4) 0.60406(19)
O63_3 O 0.0535(4) 0.0976(3) 0.69642(19)
O64_3 O 0.0938(4) 0.0570(3) 0.69782(18)
O65_3 O 0.3063(4) 0.3503(3) 0.5805(2)
O66_3 O 0.0825(4) 0.2951(3) 0.66534(18)
O67_3 O 0.1259(4) 0.3830(3) 0.49230(18)
O68_3 O 0.1331(4) 0.0028(3) 0.7343(2)
C69_3 C 0.2346(6) 0.3799(4) 0.6540(3)
C70_3 C 0.3761(7) 0.4480(6) 0.7356(3)
C71_3 C 0.3249(6) 0.4348(4) 0.7266(3)
C72_3 C 0.3052(6) 0.4160(4) 0.6947(3)
H25_3 H 0.3242 0.4123 0.6783
C73_3 C 0.2580(6) 0.4028(4) 0.6869(3)
C74_3 C 0.2332(6) 0.4148(4) 0.7105(3)
H26_3 H 0.2027 0.4098 0.7049
C75_3 C 0.2526(6) 0.4341(5) 0.7424(3)
C76_3 C 0.2986(6) 0.4462(4) 0.7509(3)
H27_3 H 0.3124 0.4612 0.7715
C77_3 C 0.2134(7) 0.4954(5) 0.8074(3)
C78_3 C 0.2359(7) 0.5234(5) 0.8351(3)
H28_3 H 0.2637 0.5241 0.8431
C79_3 C 0.2194(6) 0.5526(5) 0.8532(3)
C80_3 C 0.1770(6) 0.5503(4) 0.8393(2)
H29_3 H 0.1655 0.5692 0.8490
C81_3 C 0.1515(6) 0.5197(5) 0.8105(3)
C82_3 C 0.1720(6) 0.4909(4) 0.7951(3)
H30_3 H 0.1561 0.4699 0.7770
C83_3 C 0.2469(6) 0.5824(4) 0.8812(3)
C84_3 C 0.1065(6) 0.5135(4) 0.7981(3)
C86_3 C 0.3047(7) 0.1036(6) 0.4916(3)
C87_3 C 0.2758(7) 0.0762(6) 0.5228(3)
C88_3 C 0.2632(7) 0.0263(6) 0.5256(3)
H31_3 H 0.2714 0.0118 0.5082
C89_3 C 0.2387(9) 0.0001(7) 0.5545(3)
C90_3 C 0.2250(7) 0.0245(6) 0.5801(3)
H32_3 H 0.2069 0.0072 0.5991
C91_3 C 0.2378(9) 0.0704(8) 0.5768(3)
C92_3 C 0.2634(7) 0.0983(6) 0.5472(3)
H33_3 H 0.2712 0.1304 0.5449
C93_3 C 0.1878(6) 0.1421(4) 0.6215(3)
C94_3 C 0.1930(8) 0.1883(5) 0.6154(3)
H34_3 H 0.2175 0.2098 0.6010
C95_3 C 0.1621(6) 0.2022(4) 0.6304(3)
C96_3 C 0.1276(6) 0.1690(4) 0.6528(3)
H35_3 H 0.1060 0.1769 0.6628
C97_3 C 0.1234(6) 0.1248(4) 0.6609(3)
C98_3 C 0.1533(6) 0.1117(4) 0.6435(3)
H36_3 H 0.1494 0.0811 0.6471
C99_3 C 0.1659(6) 0.2489(4) 0.6210(2)
C100_3 C 0.0883(7) 0.0900(4) 0.6866(3)
C101_3 C 0.2358(9) 0.4704(7) 0.7918(5)
O69_3 O 0.2617(10) 0.4543(8) 0.8106(5)
N5_3 N 0.2239(9) 0.4495(7) 0.7641(3)
N6_3 N 0.2141(12) 0.0876(10) 0.6032(6)
C102_3 C 0.2129(13) 0.1240(10) 0.6010(6)
O70_3 O 0.2553(13) 0.1611(10) 0.5938(7)
Sc14_3 Sc 0.47529(7) 0.46178(10) 0.71195(4)
Sc32_3 Sc 0.33425(7) 0.60332(7) 0.93200(5)
Sc36_3 Sc 0.26907(10) 0.66575(7) 0.93200(5)
O71_3 O 0.1137(4) 0.3778(3) 0.62083(16)
O74_3 O 0.1275(4) 0.4041(3) 0.56671(17)
O79_3 O 0.0534(4) 0.0924(3) 0.7708(2)
O82_3 O 0.0967(4) 0.0538(3) 0.7748(2)
O84_3 O 0.2163(2) 0.4262(4) 0.52603(17)
O87_3 O 0.2696(3) 0.4152(4) 0.55549(19)
O90_3 O 0.2270(3) 0.3104(5) 0.53295(18)
O93_3 O 0.1708(3) 0.3218(5) 0.50525(18)
H42 H 0.0217609 0.153665 0.750533
H59_3 H 0.32717 0.373813 0.5982
H60_3 H 0.301997 0.317855 0.585759
H63_3 H 0.0980597 0.38742 0.498064
H64_3 H 0.152987 0.413866 0.483356
H65_3 H 0.198409 0.0662829 0.623937
H66_3 H 0.191063 0.441776 0.754855
O2_3 O 0.0000 1.0000 0.7349(3)
Sc5_3 Sc 0.19137(7) 0.87156(10) 0.62139(4)
Sc6_3 Sc 0.10960(7) 0.76362(10) 0.57990(5)
Sc7_3 Sc 0.21340(7) 0.85108(10) 0.53659(4)
O25_3 O 0.1717(2) 0.8284(3) 0.57915(14)
O26_3 O 0.1703(3) 0.8110(4) 0.65337(17)
O27_3 O 0.1211(3) 0.7412(4) 0.62896(19)
O28_3 O 0.0444(3) 0.5974(5) 0.71251(16)
O29_3 O 0.0707(3) 0.6099(5) 0.76663(17)
O30_3 O 0.2943(3) 0.7201(4) 0.8959(2)
O31_3 O 0.3762(3) 0.7634(4) 0.8919(2)
O32_3 O 0.4503(2) 0.9072(4) 0.80731(17)
O33_3 O 0.3970(3) 0.9182(4) 0.77785(19)
O38_3 O 0.1224(3) 0.8645(4) 0.63000(18)
O39_3 O 0.0738(3) 0.7944(5) 0.60406(19)
O40_3 O 0.0440(3) 0.9465(4) 0.69642(19)
O42_3 O 0.0439(3) 0.6937(4) 0.5805(2)
O43_3 O 0.2125(3) 0.9175(4) 0.66534(18)
O44_3 O 0.2570(3) 0.8741(4) 0.49230(18)
C35_3 C 0.1452(4) 0.7654(6) 0.6540(3)
C36_3 C 0.0718(4) 0.6239(7) 0.7356(3)
C37_3 C 0.1098(4) 0.6751(6) 0.7266(3)
C38_3 C 0.1107(4) 0.6948(6) 0.6947(3)
H13_3 H 0.0880 0.6758 0.6783
C39_3 C 0.1447(4) 0.7420(6) 0.6869(3)
C40_3 C 0.1815(4) 0.7668(6) 0.7105(3)
H14_3 H 0.2070 0.7973 0.7049
C41_3 C 0.1814(4) 0.7474(6) 0.7424(3)
C42_3 C 0.1475(4) 0.7014(6) 0.7509(3)
H15_3 H 0.1487 0.6876 0.7715
C43_3 C 0.2819(5) 0.7866(7) 0.8074(3)
C44_3 C 0.2874(5) 0.7641(7) 0.8351(3)
H16_3 H 0.2603 0.7363 0.8431
C45_3 C 0.3331(4) 0.7806(6) 0.8532(3)
C46_3 C 0.3732(4) 0.8230(6) 0.8393(2)
H17_3 H 0.4036 0.8345 0.8490
C47_3 C 0.3681(4) 0.8485(6) 0.8105(3)
C48_3 C 0.3188(4) 0.8280(6) 0.7951(3)
H18_3 H 0.3137 0.8439 0.7770
C49_3 C 0.3354(4) 0.7531(6) 0.8812(3)
C50_3 C 0.4069(4) 0.8935(6) 0.7981(3)
C61_3 C 0.0400(4) 0.8379(6) 0.6304(3)
C62_3 C 0.0413(4) 0.8724(6) 0.6528(3)
H23_3 H 0.0708 0.8940 0.6628
C63_3 C 0.0013(4) 0.8766(6) 0.6609(3)
C65_3 C 0.0829(5) 0.8341(6) 0.6210(2)
C66_3 C 0.0016(6) 0.9117(7) 0.6866(3)
C67_3 C 0.2345(5) 0.7642(9) 0.7918(5)
O46_3 O 0.1925(6) 0.7383(10) 0.8106(5)
N3_3 N 0.2255(5) 0.7761(9) 0.7641(3)
O57_3 O 0.2122(5) 0.9341(4) 0.59145(18)
O58_3 O 0.2252(5) 0.9235(4) 0.53604(17)
C85_3 C 0.2242(7) 0.9490(6) 0.5608(3)
Sc34_3 Sc 0.39668(7) 0.73093(10) 0.93200(5)
O73_3 O 0.2640(5) 0.8863(4) 0.62083(16)
O76_3 O 0.2765(5) 0.8725(4) 0.56671(17)
O78_3 O 0.0390(3) 0.9466(4) 0.7708(2)
O83_3 O 0.2098(3) 0.7837(2) 0.52603(17)
O86_3 O 0.1455(3) 0.7304(3) 0.55549(19)
O89_3 O 0.0835(4) 0.7730(3) 0.53295(18)
O92_3 O 0.1511(4) 0.8292(3) 0.50525(18)
H45_3 H 0.0466425 0.67283 0.5982
H46_3 H 0.0158572 0.698003 0.585759
H51_3 H 0.28936 0.90194 0.498064
H52_3 H 0.260879 0.847013 0.483356
H55_3 H 0.250713 0.808937 0.754855
Sc4_3 Sc 0.99908(7) 0.06335(7) 0.73467(5)
O13_3 O 0.9165(4) 0.2270(3) 0.46705(18)
O14_3 O 0.8489(4) 0.1708(3) 0.49475(18)
O18_3 O 0.9430(3) 0.0369(3) 0.69782(18)
O22_3 O 0.9972(3) 0.1304(3) 0.7343(2)
C18_3 C 0.8964(6) 0.2012(4) 0.4916(3)
C19_3 C 0.9238(6) 0.1997(4) 0.5228(3)
C20_3 C 0.9737(6) 0.2370(4) 0.5256(3)
H7_3 H 0.9882 0.2597 0.5082
C21_3 C 0.9999(7) 0.2387(5) 0.5545(3)
C22_3 C 0.9755(6) 0.2006(4) 0.5801(3)
H8_3 H 0.9928 0.1998 0.5991
C23_3 C 0.9296(8) 0.1675(5) 0.5768(3)
C24_3 C 0.9017(6) 0.1652(4) 0.5472(3)
H9_3 H 0.8696 0.1409 0.5449
C25_3 C 0.8579(4) 0.0458(4) 0.6215(3)
C26_3 C 0.8117(5) 0.0048(6) 0.6154(3)
H10_3 H 0.7902 0.0078 0.6010
C30_3 C 0.8883(4) 0.0417(5) 0.6435(3)
H12_3 H 0.9189 0.0684 0.6471
N2_3 N 0.9124(10) 0.1266(6) 0.6032(6)
C34_3 C 0.8760(10) 0.0890(8) 0.6010(6)
O24_3 O 0.8389(10) 0.0943(9) 0.5938(7)
Sc15_3 Sc 0.53822(10) 0.01352(7) 0.71195(4)
O80_3 O 0.9462(3) 0.0429(3) 0.7748(2)
H50_3 H 0.933717 0.132126 0.623937
Sc1_3 Sc 0.68018(7) 0.80863(7) 0.62139(4)
Sc2_3 Sc 0.65401(7) 0.89040(7) 0.57990(5)
Sc3_3 Sc 0.63767(7) 0.78660(7) 0.53659(4)
O1_3 O 0.6566(2) 0.8283(2) 0.57915(14)
O3_3 O 0.6406(3) 0.8297(3) 0.65337(17)
O4_3 O 0.6200(3) 0.8789(3) 0.62896(19)
O5_3 O 0.5529(4) 0.9556(3) 0.71251(16)
O6_3 O 0.5391(4) 0.9293(3) 0.76663(17)
O7_3 O 0.4257(3) 0.7057(3) 0.8959(2)
O8_3 O 0.3871(3) 0.6238(3) 0.8919(2)
O9_3 O 0.4568(3) 0.5497(2) 0.80731(17)
O10_3 O 0.5211(3) 0.6030(3) 0.77785(19)
O15_3 O 0.7420(2) 0.8776(3) 0.63000(18)
O16_3 O 0.7205(4) 0.9262(3) 0.60406(19)
O17_3 O 0.9024(3) 0.9560(3) 0.69642(19)
O19_3 O 0.6497(3) 0.9561(3) 0.5805(2)
O20_3 O 0.7049(3) 0.7875(3) 0.66534(18)
O21_3 O 0.6170(3) 0.7430(3) 0.49230(18)
C1_3 C 0.6201(4) 0.8548(4) 0.6540(3)
C2_3 C 0.5520(6) 0.9282(4) 0.7356(3)
C3_3 C 0.5652(4) 0.8902(4) 0.7266(3)
C4_3 C 0.5840(4) 0.8893(4) 0.6947(3)
H1_3 H 0.5877 0.9120 0.6783
C5_3 C 0.5972(4) 0.8553(4) 0.6869(3)
C6_3 C 0.5852(4) 0.8185(4) 0.7105(3)
H2_3 H 0.5902 0.7930 0.7049
C7_3 C 0.5659(5) 0.8186(4) 0.7424(3)
C8_3 C 0.5538(4) 0.8525(4) 0.7509(3)
H3_3 H 0.5388 0.8513 0.7715
C9_3 C 0.5046(5) 0.7181(5) 0.8074(3)
C10_3 C 0.4766(5) 0.7126(5) 0.8351(3)
H4_3 H 0.4759 0.7397 0.8431
C11_3 C 0.4474(5) 0.6669(4) 0.8532(3)
C12_3 C 0.4497(4) 0.6268(4) 0.8393(2)
H5_3 H 0.4308 0.5964 0.8490
C13_3 C 0.4803(5) 0.6319(4) 0.8105(3)
C14_3 C 0.5091(4) 0.6812(4) 0.7951(3)
H6_3 H 0.5301 0.6863 0.7770
C15_3 C 0.4176(4) 0.6646(4) 0.8812(3)
C16_3 C 0.4865(4) 0.5931(4) 0.7981(3)
C27_3 C 0.7978(4) 0.9600(4) 0.6304(3)
C28_3 C 0.8310(4) 0.9587(4) 0.6528(3)
H11_3 H 0.8231 0.9292 0.6628
C29_3 C 0.8752(4) 0.9987(4) 0.6609(3)
C31_3 C 0.7511(4) 0.9171(5) 0.6210(2)
C32_3 C 0.9100(4) 0.9984(6) 0.6866(3)
C33_3 C 0.5296(7) 0.7655(5) 0.7918(5)
O23_3 O 0.5457(8) 0.8075(6) 0.8106(5)
N1_3 N 0.5505(7) 0.7745(5) 0.7641(3)
Sc8_3 Sc 0.93665(7) 0.93574(10) 0.73467(5)
O34_3 O 0.7218(3) 0.7878(5) 0.59145(18)
O35_3 O 0.6982(3) 0.7748(5) 0.53604(17)
O36_3 O 0.7730(3) 0.6896(5) 0.46705(18)
O37_3 O 0.8292(3) 0.6782(5) 0.49475(18)
O41_3 O 0.9631(3) 0.9062(4) 0.69782(18)
O45_3 O 0.8696(3) 0.8669(4) 0.7343(2)
C51_3 C 0.7247(4) 0.7758(7) 0.5608(3)
C52_3 C 0.7988(4) 0.6953(7) 0.4916(3)
C53_3 C 0.8003(4) 0.7242(7) 0.5228(3)
C54_3 C 0.7630(4) 0.7368(7) 0.5256(3)
H19_3 H 0.7403 0.7286 0.5082
C55_3 C 0.7613(5) 0.7613(9) 0.5545(3)
C56_3 C 0.7994(4) 0.7750(7) 0.5801(3)
H20_3 H 0.8002 0.7931 0.5991
C57_3 C 0.8325(5) 0.7622(9) 0.5768(3)
C58_3 C 0.8348(4) 0.7366(7) 0.5472(3)
H21_3 H 0.8591 0.7288 0.5449
C59_3 C 0.9542(4) 0.8122(6) 0.6215(3)
C60_3 C 0.9952(6) 0.8070(8) 0.6154(3)
H22_3 H 0.9922 0.7825 0.6010
C64_3 C 0.9583(5) 0.8467(6) 0.6435(3)
H24_3 H 0.9316 0.8506 0.6471
N4_3 N 0.8734(6) 0.7859(12) 0.6032(6)
C68_3 C 0.9110(8) 0.7871(13) 0.6010(6)
O47_3 O 0.9057(9) 0.7447(13) 0.5938(7)
Sc13_3 Sc 0.98648(7) 0.52471(7) 0.71195(4)
O72_3 O 0.6222(3) 0.7360(5) 0.62083(16)
O75_3 O 0.5959(3) 0.7235(5) 0.56671(17)
O77_3 O 0.9076(3) 0.9610(3) 0.7708(2)
O81_3 O 0.9571(3) 0.9033(4) 0.7748(2)
O85_3 O 0.5738(4) 0.7902(3) 0.52603(17)
O88_3 O 0.5848(4) 0.8545(3) 0.55549(19)
O91_3 O 0.6896(5) 0.9165(4) 0.53295(18)
O94_3 O 0.6782(5) 0.8489(4) 0.50525(18)
H37_3 H 0.626187 0.953357 0.5982
H38_3 H 0.682145 0.984143 0.585759
H39_3 H 0.61258 0.71064 0.498064
H40_3 H 0.586134 0.739121 0.483356
H49_3 H 0.558224 0.749287 0.754855
H56_3 H 0.867874 0.801591 0.623937
O2_4 O 0.0000 0.0001 0.7349(3)
H42_2 H 0.131904 0.978239 0.750533
O2_5 O 0.9999 1.0000 0.7349(3)
C12_4 C 0.8836(4) 0.0399(4) 0.8274(2)
H5_4 H 0.9025 0.0703 0.8177
C13_4 C 0.8530(5) 0.0348(4) 0.8562(3)
C15_4 C 0.9157(4) 0.0021(4) 0.7855(3)
C16_4 C 0.8468(4) 0.0736(4) 0.8686(3)
C36_4 C 0.2615(4) 0.0428(7) 0.9311(3)
O1_4 O 0.6767(2) 0.8384(2) 0.08752(14)
O3_4 O 0.6927(3) 0.8370(3) 0.01330(17)
O4_4 O 0.7133(3) 0.7878(3) 0.03771(19)
O11_4 O 0.2674(4) 0.3885(3) 0.07522(18)
O12_4 O 0.2568(4) 0.3649(3) 0.13063(17)
O15_4 O 0.5913(2) 0.7891(3) 0.03667(18)
O16_4 O 0.6128(4) 0.7405(3) 0.06261(19)
O19_4 O 0.6836(3) 0.7106(3) 0.0862(2)
O20_4 O 0.6284(3) 0.8792(3) 0.00133(18)
O21_4 O 0.7163(3) 0.9237(3) 0.17437(18)
C1_4 C 0.7132(4) 0.8119(4) 0.0127(3)
C17_4 C 0.2823(6) 0.3914(4) 0.1059(3)
C18_4 C 0.4369(6) 0.4655(4) 0.1751(3)
C19_4 C 0.4095(6) 0.4670(4) 0.1439(3)
C20_4 C 0.3596(6) 0.4297(4) 0.1411(3)
H7_4 H 0.3451 0.4070 0.1585
C21_4 C 0.3334(7) 0.4280(5) 0.1122(3)
C22_4 C 0.3578(6) 0.4661(4) 0.0866(3)
H8_4 H 0.3405 0.4669 0.0676
C23_4 C 0.4037(8) 0.4992(5) 0.0899(3)
C24_4 C 0.4316(6) 0.5015(4) 0.1195(3)
H9_4 H 0.4637 0.5258 0.1218
C25_4 C 0.4754(4) 0.6209(4) 0.0452(3)
C26_4 C 0.5216(5) 0.6619(6) 0.0513(3)
H10_4 H 0.5431 0.6589 0.0657
C27_4 C 0.5355(4) 0.7067(4) 0.0363(3)
C28_4 C 0.5023(4) 0.7080(4) 0.0139(3)
H11_4 H 0.5102 0.7375 0.0039
C29_4 C 0.4581(4) 0.6680(4) 0.0058(3)
C30_4 C 0.4450(4) 0.6250(5) 0.0232(3)
H12_4 H 0.4144 0.5983 0.0196
C31_4 C 0.5822(4) 0.7496(5) 0.0457(2)
N2_4 N 0.4209(10) 0.5401(6) 0.0635(6)
C34_4 C 0.4573(10) 0.5777(8) 0.0657(6)
O24_4 O 0.4944(10) 0.5724(9) 0.0729(7)
O25_4 O 0.1616(2) 0.8383(3) 0.08752(14)
O26_4 O 0.1630(3) 0.8557(4) 0.01330(17)
O27_4 O 0.2122(3) 0.9255(4) 0.03771(19)
O34_4 O 0.6115(3) 0.8789(5) 0.07522(18)
O35_4 O 0.6351(3) 0.8919(5) 0.13063(17)
O38_4 O 0.2109(3) 0.8022(4) 0.03667(18)
O39_4 O 0.2595(3) 0.8723(5) 0.06261(19)
O42_4 O 0.2894(3) 0.9730(4) 0.0862(2)
O43_4 O 0.1208(3) 0.7492(4) 0.00133(18)
O44_4 O 0.0763(3) 0.7926(4) 0.17437(18)
C35_4 C 0.1881(4) 0.9013(6) 0.0127(3)
C51_4 C 0.6086(4) 0.8909(7) 0.1059(3)
C52_4 C 0.5345(4) 0.9714(7) 0.1751(3)
C53_4 C 0.5330(4) 0.9425(7) 0.1439(3)
C54_4 C 0.5703(4) 0.9299(7) 0.1411(3)
H19_4 H 0.5930 0.9381 0.1585
C55_4 C 0.5720(5) 0.9054(9) 0.1122(3)
C56_4 C 0.5339(4) 0.8917(7) 0.0866(3)
H20_4 H 0.5331 0.8736 0.0676
C57_4 C 0.5008(5) 0.9045(9) 0.0899(3)
C58_4 C 0.4985(4) 0.9301(7) 0.1195(3)
H21_4 H 0.4742 0.9379 0.1218
C59_4 C 0.3791(4) 0.8545(6) 0.0452(3)
C60_4 C 0.3381(6) 0.8597(8) 0.0513(3)
H22_4 H 0.3411 0.8842 0.0657
C61_4 C 0.2933(4) 0.8288(6) 0.0363(3)
C62_4 C 0.2920(4) 0.7943(6) 0.0139(3)
H23_4 H 0.2625 0.7727 0.0039
C63_4 C 0.3320(4) 0.7901(6) 0.0058(3)
C64_4 C 0.3750(5) 0.8200(6) 0.0232(3)
H24_4 H 0.4017 0.8161 0.0196
C65_4 C 0.2504(5) 0.8326(6) 0.0457(2)
N4_4 N 0.4599(6) 0.8808(12) 0.0635(6)
C68_4 C 0.4223(8) 0.8796(13) 0.0657(6)
O47_4 O 0.4276(9) 0.9220(13) 0.0729(7)
O48_4 O 0.1617(3) 0.3233(2) 0.08752(14)
O49_4 O 0.1443(4) 0.3073(3) 0.01330(17)
O50_4 O 0.0745(4) 0.2867(3) 0.03771(19)
O57_4 O 0.1211(5) 0.7326(4) 0.07522(18)
O58_4 O 0.1081(5) 0.7432(4) 0.13063(17)
O61_4 O 0.1978(4) 0.4087(2) 0.03667(18)
O62_4 O 0.1277(5) 0.3872(4) 0.06261(19)
O65_4 O 0.0270(4) 0.3164(3) 0.0862(2)
O66_4 O 0.2508(4) 0.3716(3) 0.00133(18)
O67_4 O 0.2074(4) 0.2837(3) 0.17437(18)
C69_4 C 0.0987(6) 0.2868(4) 0.0127(3)
C85_4 C 0.1091(7) 0.7177(6) 0.1059(3)
C86_4 C 0.0286(7) 0.5631(6) 0.1751(3)
C87_4 C 0.0575(7) 0.5905(6) 0.1439(3)
C88_4 C 0.0701(7) 0.6404(6) 0.1411(3)
H31_4 H 0.0619 0.6549 0.1585
C89_4 C 0.0946(9) 0.6666(7) 0.1122(3)
C90_4 C 0.1083(7) 0.6422(6) 0.0866(3)
H32_4 H 0.1264 0.6595 0.0676
C91_4 C 0.0955(9) 0.5963(8) 0.0899(3)
C92_4 C 0.0699(7) 0.5684(6) 0.1195(3)
H33_4 H 0.0621 0.5363 0.1218
C93_4 C 0.1455(6) 0.5246(4) 0.0452(3)
C94_4 C 0.1403(8) 0.4784(5) 0.0513(3)
H34_4 H 0.1158 0.4569 0.0657
C95_4 C 0.1712(6) 0.4645(4) 0.0363(3)
C96_4 C 0.2057(6) 0.4977(4) 0.0139(3)
H35_4 H 0.2273 0.4898 0.0039
C97_4 C 0.2099(6) 0.5419(4) 0.0058(3)
C98_4 C 0.1800(6) 0.5550(4) 0.0232(3)
H36_4 H 0.1839 0.5856 0.0196
C99_4 C 0.1674(6) 0.4178(4) 0.0457(2)
N6_4 N 0.1192(12) 0.5791(10) 0.0635(6)
C102_4 C 0.1204(13) 0.5427(10) 0.0657(6)
O70_4 O 0.0780(13) 0.5056(10) 0.0729(7)
H37_4 H 0.707146 0.713309 0.068467
H38_4 H 0.651188 0.682524 0.0809078
H39_4 H 0.720753 0.956027 0.168602
H40_4 H 0.747199 0.927545 0.183311
H44_2 H 0.606974 0.891846 0.00866888
H45_4 H 0.286691 0.993837 0.068467
H46_4 H 0.317476 0.968664 0.0809078
H48_3 H 0.108154 0.715128 0.00866888
H50_4 H 0.399616 0.53454 0.0427298
H51_4 H 0.0439732 0.764726 0.168602
H52_4 H 0.0724546 0.819653 0.183311
H56_4 H 0.46546 0.865076 0.0427298
H59_4 H 0.00616316 0.292854 0.068467
H60_4 H 0.031336 0.348812 0.0809078
H61_4 H 0.267208 0.407494 0.000100868
H63_4 H 0.235274 0.279247 0.168602
H64_4 H 0.180347 0.252801 0.183311
H65_4 H 0.134924 0.600384 0.0427298
O2_6 O 0.3333 0.6667 0.9318(3)
O17_4 O 0.4309(3) 0.7107(3) 0.97025(19)
O18_4 O 0.3903(3) 0.6298(3) 0.96885(18)
O22_4 O 0.3361(3) 0.5363(3) 0.9324(2)
C2_4 C 0.7813(6) 0.7385(4) 0.9311(3)
C3_4 C 0.7681(4) 0.7765(4) 0.9401(3)
C4_4 C 0.7493(4) 0.7774(4) 0.9720(3)
H1_4 H 0.7456 0.7547 0.9884
C5_4 C 0.7361(4) 0.8114(4) 0.9798(3)
C6_4 C 0.7481(4) 0.8482(4) 0.9562(3)
H2_4 H 0.7431 0.8737 0.9618
C7_4 C 0.7674(5) 0.8481(4) 0.9243(3)
C8_4 C 0.7795(4) 0.8142(4) 0.9158(3)
H3_4 H 0.7945 0.8154 0.8952
C9_4 C 0.8287(5) 0.9486(5) 0.8593(3)
C10_4 C 0.8567(5) 0.9541(5) 0.8316(3)
H4_4 H 0.8574 0.9270 0.8236
C11_4 C 0.8859(5) 0.9998(4) 0.8135(3)
C14_4 C 0.8242(4) 0.9855(4) 0.8716(3)
H6_4 H 0.8032 0.9804 0.8897
C32_4 C 0.4233(4) 0.6683(6) 0.9801(3)
C33_4 C 0.8037(7) 0.9012(5) 0.8749(5)
O23_4 O 0.7876(8) 0.8592(6) 0.8561(5)
N1_4 N 0.7828(7) 0.8922(5) 0.9026(3)
O40_4 O 0.2893(3) 0.7202(4) 0.97025(19)
O41_4 O 0.3702(3) 0.7605(4) 0.96885(18)
O45_4 O 0.4637(3) 0.7998(4) 0.9324(2)
C37_4 C 0.2235(4) 0.9916(6) 0.9401(3)
C38_4 C 0.2226(4) 0.9719(6) 0.9720(3)
H13_4 H 0.2453 0.9909 0.9884
C39_4 C 0.1886(4) 0.9247(6) 0.9798(3)
C40_4 C 0.1518(4) 0.8999(6) 0.9562(3)
H14_4 H 0.1263 0.8694 0.9618
C41_4 C 0.1519(4) 0.9193(6) 0.9243(3)
C42_4 C 0.1858(4) 0.9653(6) 0.9158(3)
H15_4 H 0.1846 0.9791 0.8952
C43_4 C 0.0514(5) 0.8801(7) 0.8593(3)
C44_4 C 0.0459(5) 0.9026(7) 0.8316(3)
H16_4 H 0.0730 0.9304 0.8236
C45_4 C 0.0002(4) 0.8861(6) 0.8135(3)
C48_4 C 0.0145(4) 0.8387(6) 0.8716(3)
H18_4 H 0.0196 0.8228 0.8897
C66_4 C 0.3317(6) 0.7550(7) 0.9801(3)
C67_4 C 0.0988(5) 0.9025(9) 0.8749(5)
O46_4 O 0.1408(6) 0.9284(10) 0.8561(5)
N3_4 N 0.1078(5) 0.8906(9) 0.9026(3)
O63_4 O 0.2798(4) 0.5691(3) 0.97025(19)
O64_4 O 0.2395(4) 0.6097(3) 0.96885(18)
O68_4 O 0.2002(4) 0.6639(3) 0.9324(2)
C71_4 C 0.0084(6) 0.2319(4) 0.9401(3)
C72_4 C 0.0281(6) 0.2507(4) 0.9720(3)
H25_4 H 0.0091 0.2544 0.9884
C73_4 C 0.0753(6) 0.2639(4) 0.9798(3)
C74_4 C 0.1001(6) 0.2519(4) 0.9562(3)
H26_4 H 0.1306 0.2569 0.9618
C75_4 C 0.0807(6) 0.2326(5) 0.9243(3)
C76_4 C 0.0347(6) 0.2205(4) 0.9158(3)
H27_4 H 0.0209 0.2055 0.8952
C77_4 C 0.1199(7) 0.1713(5) 0.8593(3)
C78_4 C 0.0974(7) 0.1433(5) 0.8316(3)
H28_4 H 0.0696 0.1426 0.8236
C79_4 C 0.1139(6) 0.1141(5) 0.8135(3)
C80_4 C 0.1563(6) 0.1164(4) 0.8274(2)
H29_4 H 0.1678 0.0975 0.8177
C81_4 C 0.1818(6) 0.1470(5) 0.8562(3)
C82_4 C 0.1613(6) 0.1758(4) 0.8716(3)
H30_4 H 0.1772 0.1968 0.8897
C83_4 C 0.0864(6) 0.0843(4) 0.7855(3)
C84_4 C 0.2268(6) 0.1532(4) 0.8686(3)
C100_4 C 0.2450(7) 0.5767(4) 0.9801(3)
C101_4 C 0.0975(9) 0.1963(7) 0.8749(5)
O69_4 O 0.0716(10) 0.2124(8) 0.8561(5)
N5_4 N 0.1094(9) 0.2172(7) 0.9026(3)
H43_2 H 0.656654 0.904866 0.988722
H47_3 H 0.0951342 0.751788 0.988722
H49_4 H 0.77511 0.91738 0.911812
H55_4 H 0.0826202 0.85773 0.911812
H62_4 H 0.231036 0.357415 0.980391
H66_4 H 0.14227 0.22489 0.911812
C46_4 C 0.9601(4) 0.8437(6) 0.8274(2)
H17_4 H 0.9297 0.8322 0.8177
C47_4 C 0.9652(4) 0.8182(6) 0.8562(3)
C49_4 C 0.9979(4) 0.9136(6) 0.7855(3)
C50_4 C 0.9264(4) 0.7732(6) 0.8686(3)
C70_4 C 0.9572(7) 0.2187(6) 0.9311(3)
H48_4 H 0.284872 0.393026 0.00866888
H61_5 H 0.592506 0.859714 0.000100868
H47_4 H 0.248212 0.343346 0.988722
H62_5 H 0.642585 0.873621 0.980391
H61_6 H 0.140286 0.732792 0.000100868
H62_6 H 0.126379 0.768964 0.980391
O1_5 O 0.0100(2) 0.5051(2) 0.75419(14)
O3_5 O 0.0260(3) 0.5037(3) 0.67997(17)
O4_5 O 0.0466(3) 0.4545(3) 0.70438(19)
O19_5 O 0.0169(3) 0.3773(3) 0.7529(2)
O21_5 O 0.0496(3) 0.5904(3) 0.84104(18)
C1_5 C 0.0465(4) 0.4786(4) 0.6794(3)
C2_5 C 0.1146(6) 0.4052(4) 0.5978(3)
C3_5 C 0.1014(4) 0.4432(4) 0.6068(3)
C4_5 C 0.0826(4) 0.4441(4) 0.6387(3)
H1_5 H 0.0789 0.4214 0.6551
C5_5 C 0.0694(4) 0.4781(4) 0.6465(3)
C6_5 C 0.0814(4) 0.5149(4) 0.6229(3)
H2_5 H 0.0764 0.5404 0.6285
C7_5 C 0.1007(5) 0.5148(4) 0.5910(3)
C8_5 C 0.1128(4) 0.4809(4) 0.5825(3)
H3_5 H 0.1278 0.4821 0.5619
C9_5 C 0.1620(5) 0.6153(5) 0.5260(3)
C10_5 C 0.1900(5) 0.6208(5) 0.4983(3)
H4_5 H 0.1907 0.5937 0.4903
C11_5 C 0.2192(5) 0.6665(4) 0.4802(3)
C12_5 C 0.2169(4) 0.7066(4) 0.4941(2)
H5_5 H 0.2358 0.7370 0.4844
C13_5 C 0.1863(5) 0.7015(4) 0.5229(3)
C14_5 C 0.1575(4) 0.6522(4) 0.5383(3)
H6_5 H 0.1365 0.6471 0.5564
C15_5 C 0.2490(4) 0.6688(4) 0.4522(3)
C16_5 C 0.1801(4) 0.7403(4) 0.5353(3)
C33_5 C 0.1370(7) 0.5679(5) 0.5416(5)
O23_5 O 0.1209(8) 0.5259(6) 0.5228(5)
N1_5 N 0.1161(7) 0.5589(5) 0.5693(3)
H37_5 H 0.0404794 0.379976 0.735134
H39_5 H 0.0540865 0.622693 0.835269
H40_5 H 0.0805322 0.594212 0.849977
H49_5 H 0.108443 0.584046 0.578478
O2_7 O 0.6666 0.3334 0.5985(3)
O11_5 O 0.6007(4) 0.0552(3) 0.74189(18)
O12_5 O 0.5901(4) 0.0316(3) 0.79730(17)
O15_5 O 0.9246(2) 0.4558(3) 0.70334(18)
O16_5 O 0.9461(4) 0.4072(3) 0.72928(19)
O17_5 O 0.7642(3) 0.3774(3) 0.63692(19)
O18_5 O 0.7236(3) 0.2965(3) 0.63552(18)
O20_5 O 0.9617(3) 0.5459(3) 0.66800(18)
O22_5 O 0.6694(3) 0.2030(3) 0.5991(2)
C17_5 C 0.6156(6) 0.0581(4) 0.7726(3)
C18_5 C 0.7702(6) 0.1322(4) 0.8418(3)
C19_5 C 0.7428(6) 0.1337(4) 0.8106(3)
C20_5 C 0.6929(6) 0.0964(4) 0.8078(3)
H7_5 H 0.6784 0.0737 0.8252
C21_5 C 0.6667(7) 0.0947(5) 0.7789(3)
C22_5 C 0.6911(6) 0.1328(4) 0.7533(3)
H8_5 H 0.6738 0.1336 0.7343
C23_5 C 0.7370(8) 0.1659(5) 0.7566(3)
C24_5 C 0.7649(6) 0.1682(4) 0.7862(3)
H9_5 H 0.7970 0.1925 0.7885
C25_5 C 0.8087(4) 0.2876(4) 0.7119(3)
C26_5 C 0.8549(5) 0.3286(6) 0.7180(3)
H10_5 H 0.8764 0.3256 0.7324
C27_5 C 0.8688(4) 0.3734(4) 0.7030(3)
C28_5 C 0.8356(4) 0.3747(4) 0.6806(3)
H11_5 H 0.8435 0.4042 0.6706
C29_5 C 0.7914(4) 0.3347(4) 0.6725(3)
C30_5 C 0.7783(4) 0.2917(5) 0.6899(3)
H12_5 H 0.7477 0.2650 0.6863
C31_5 C 0.9155(4) 0.4163(5) 0.7124(2)
C32_5 C 0.7566(4) 0.3350(6) 0.6468(3)
N2_5 N 0.7542(10) 0.2068(6) 0.7302(6)
C34_5 C 0.7906(10) 0.2444(8) 0.7324(6)
O24_5 O 0.8277(10) 0.2391(9) 0.7396(7)
O25_5 O 0.4949(2) 0.5050(3) 0.75419(14)
O26_5 O 0.4963(3) 0.5224(4) 0.67997(17)
O27_5 O 0.5455(3) 0.5922(4) 0.70438(19)
O34_5 O 0.9448(3) 0.5456(5) 0.74189(18)
O35_5 O 0.9684(3) 0.5586(5) 0.79730(17)
O38_5 O 0.5442(3) 0.4689(4) 0.70334(18)
O39_5 O 0.5928(3) 0.5390(5) 0.72928(19)
O40_5 O 0.6226(3) 0.3869(4) 0.63692(19)
O41_5 O 0.7035(3) 0.4272(4) 0.63552(18)
O42_5 O 0.6227(3) 0.6397(4) 0.7529(2)
O43_5 O 0.4541(3) 0.4159(4) 0.66800(18)
O44_5 O 0.4096(3) 0.4593(4) 0.84104(18)
O45_5 O 0.7970(3) 0.4665(4) 0.5991(2)
C35_5 C 0.5214(4) 0.5680(6) 0.6794(3)
C36_5 C 0.5948(4) 0.7095(7) 0.5978(3)
C37_5 C 0.5568(4) 0.6583(6) 0.6068(3)
C38_5 C 0.5559(4) 0.6386(6) 0.6387(3)
H13_5 H 0.5786 0.6576 0.6551
C39_5 C 0.5219(4) 0.5914(6) 0.6465(3)
C40_5 C 0.4851(4) 0.5666(6) 0.6229(3)
H14_5 H 0.4596 0.5361 0.6285
C41_5 C 0.4852(4) 0.5860(6) 0.5910(3)
C42_5 C 0.5191(4) 0.6320(6) 0.5825(3)
H15_5 H 0.5179 0.6458 0.5619
C43_5 C 0.3847(5) 0.5468(7) 0.5260(3)
C44_5 C 0.3792(5) 0.5693(7) 0.4983(3)
H16_5 H 0.4063 0.5971 0.4903
C45_5 C 0.3335(4) 0.5528(6) 0.4802(3)
C46_5 C 0.2934(4) 0.5104(6) 0.4941(2)
H17_5 H 0.2630 0.4989 0.4844
C47_5 C 0.2985(4) 0.4849(6) 0.5229(3)
C48_5 C 0.3478(4) 0.5054(6) 0.5383(3)
H18_5 H 0.3529 0.4895 0.5564
C49_5 C 0.3312(4) 0.5803(6) 0.4522(3)
C50_5 C 0.2597(4) 0.4399(6) 0.5353(3)
C51_5 C 0.9419(4) 0.5576(7) 0.7726(3)
C52_5 C 0.8678(4) 0.6381(7) 0.8418(3)
C53_5 C 0.8663(4) 0.6092(7) 0.8106(3)
C54_5 C 0.9036(4) 0.5966(7) 0.8078(3)
H19_5 H 0.9263 0.6048 0.8252
C55_5 C 0.9053(5) 0.5721(9) 0.7789(3)
C56_5 C 0.8672(4) 0.5584(7) 0.7533(3)
H20_5 H 0.8664 0.5403 0.7343
C57_5 C 0.8341(5) 0.5712(9) 0.7566(3)
C58_5 C 0.8318(4) 0.5968(7) 0.7862(3)
H21_5 H 0.8075 0.6046 0.7885
C59_5 C 0.7124(4) 0.5212(6) 0.7119(3)
C60_5 C 0.6714(6) 0.5264(8) 0.7180(3)
H22_5 H 0.6744 0.5509 0.7324
C61_5 C 0.6266(4) 0.4955(6) 0.7030(3)
C62_5 C 0.6253(4) 0.4610(6) 0.6806(3)
H23_5 H 0.5958 0.4394 0.6706
C63_5 C 0.6653(4) 0.4568(6) 0.6725(3)
C64_5 C 0.7083(5) 0.4867(6) 0.6899(3)
H24_5 H 0.7350 0.4828 0.6863
C65_5 C 0.5837(5) 0.4993(6) 0.7124(2)
C66_5 C 0.6650(6) 0.4217(7) 0.6468(3)
C67_5 C 0.4321(5) 0.5692(9) 0.5416(5)
O46_5 O 0.4741(6) 0.5951(10) 0.5228(5)
N3_5 N 0.4411(5) 0.5573(9) 0.5693(3)
N4_5 N 0.7932(6) 0.5475(12) 0.7302(6)
C68_5 C 0.7556(8) 0.5463(13) 0.7324(6)
O47_5 O 0.7609(9) 0.5887(13) 0.7396(7)
O57_5 O 0.4544(5) 0.3993(4) 0.74189(18)
O58_5 O 0.4414(5) 0.4099(4) 0.79730(17)
O61_5 O 0.5311(4) 0.0754(2) 0.70334(18)
O62_5 O 0.4610(5) 0.0539(4) 0.72928(19)
O63_5 O 0.6131(4) 0.2358(3) 0.63692(19)
O64_5 O 0.5728(4) 0.2764(3) 0.63552(18)
O66_5 O 0.5841(4) 0.0383(3) 0.66800(18)
O68_5 O 0.5335(4) 0.3306(3) 0.5991(2)
C85_5 C 0.4424(7) 0.3844(6) 0.7726(3)
C86_5 C 0.3619(7) 0.2298(6) 0.8418(3)
C87_5 C 0.3908(7) 0.2572(6) 0.8106(3)
C88_5 C 0.4034(7) 0.3071(6) 0.8078(3)
H31_5 H 0.3952 0.3216 0.8252
C89_5 C 0.4279(9) 0.3333(7) 0.7789(3)
C90_5 C 0.4416(7) 0.3089(6) 0.7533(3)
H32_5 H 0.4597 0.3262 0.7343
C91_5 C 0.4288(9) 0.2630(8) 0.7566(3)
C92_5 C 0.4032(7) 0.2351(6) 0.7862(3)
H33_5 H 0.3954 0.2030 0.7885
C93_5 C 0.4788(6) 0.1913(4) 0.7119(3)
C94_5 C 0.4736(8) 0.1451(5) 0.7180(3)
H34_5 H 0.4491 0.1236 0.7324
C95_5 C 0.5045(6) 0.1312(4) 0.7030(3)
C96_5 C 0.5390(6) 0.1644(4) 0.6806(3)
H35_5 H 0.5606 0.1565 0.6706
C97_5 C 0.5432(6) 0.2086(4) 0.6725(3)
C98_5 C 0.5133(6) 0.2217(4) 0.6899(3)
H36_5 H 0.5172 0.2523 0.6863
C99_5 C 0.5007(6) 0.0845(4) 0.7124(2)
C100_5 C 0.5783(7) 0.2434(4) 0.6468(3)
N6_5 N 0.4525(12) 0.2458(10) 0.7302(6)
C102_5 C 0.4537(13) 0.2094(10) 0.7324(6)
O70_5 O 0.4113(13) 0.1723(10) 0.7396(7)
H38_5 H 0.984521 0.349191 0.747575
H45_5 H 0.620024 0.660504 0.735134
H46_5 H 0.650809 0.635331 0.747575
H50_5 H 0.73295 0.201207 0.709396
H51_5 H 0.377307 0.431393 0.835269
H52_5 H 0.405788 0.48632 0.849977
H55_5 H 0.415954 0.524397 0.578478
H56_5 H 0.798793 0.531742 0.709396
H60_5 H 0.364669 0.0154788 0.747575
H65_5 H 0.468258 0.26705 0.709396
O48_5 O 0.4950(3) 0.9900(2) 0.75419(14)
O49_5 O 0.4776(4) 0.9740(3) 0.67997(17)
O50_5 O 0.4078(4) 0.9534(3) 0.70438(19)
O65_5 O 0.3603(4) 0.9831(3) 0.7529(2)
O67_5 O 0.5407(4) 0.9504(3) 0.84104(18)
C69_5 C 0.4320(6) 0.9535(4) 0.6794(3)
C70_5 C 0.2905(7) 0.8854(6) 0.5978(3)
C71_5 C 0.3417(6) 0.8986(4) 0.6068(3)
C72_5 C 0.3614(6) 0.9174(4) 0.6387(3)
H25_5 H 0.3424 0.9211 0.6551
C73_5 C 0.4086(6) 0.9306(4) 0.6465(3)
C74_5 C 0.4334(6) 0.9186(4) 0.6229(3)
H26_5 H 0.4639 0.9236 0.6285
C75_5 C 0.4140(6) 0.8993(5) 0.5910(3)
C76_5 C 0.3680(6) 0.8872(4) 0.5825(3)
H27_5 H 0.3542 0.8722 0.5619
C77_5 C 0.4532(7) 0.8380(5) 0.5260(3)
C78_5 C 0.4307(7) 0.8100(5) 0.4983(3)
H28_5 H 0.4029 0.8093 0.4903
C79_5 C 0.4472(6) 0.7808(5) 0.4802(3)
C80_5 C 0.4896(6) 0.7831(4) 0.4941(2)
H29_5 H 0.5011 0.7642 0.4844
C81_5 C 0.5151(6) 0.8137(5) 0.5229(3)
C82_5 C 0.4946(6) 0.8425(4) 0.5383(3)
H30_5 H 0.5105 0.8635 0.5564
C83_5 C 0.4197(6) 0.7510(4) 0.4522(3)
C84_5 C 0.5601(6) 0.8199(4) 0.5353(3)
C101_5 C 0.4308(9) 0.8630(7) 0.5416(5)
O69_5 O 0.4049(10) 0.8791(8) 0.5228(5)
N5_5 N 0.4427(9) 0.8839(7) 0.5693(3)
H59_5 H 0.339496 0.959521 0.735134
H63_5 H 0.568607 0.945914 0.835269
H64_5 H 0.51368 0.919468 0.849977
H66_5 H 0.475603 0.891557 0.578478
O1_6 O 0.3434(2) 0.1717(2) 0.42085(14)
O3_6 O 0.3594(3) 0.1703(3) 0.34663(17)
O4_6 O 0.3800(3) 0.1211(3) 0.37104(19)
O15_6 O 0.2580(2) 0.1224(3) 0.37000(18)
O16_6 O 0.2795(4) 0.0738(3) 0.39594(19)
O17_6 O 0.0976(3) 0.0440(3) 0.30358(19)
O19_6 O 0.3503(3) 0.0439(3) 0.4195(2)
O20_6 O 0.2951(3) 0.2125(3) 0.33466(18)
O21_6 O 0.3830(3) 0.2570(3) 0.50770(18)
C1_6 C 0.3799(4) 0.1452(4) 0.3460(3)
C2_6 C 0.4480(6) 0.0718(4) 0.2644(3)
C3_6 C 0.4348(4) 0.1098(4) 0.2734(3)
C4_6 C 0.4160(4) 0.1107(4) 0.3053(3)
H1_6 H 0.4123 0.0880 0.3217
C5_6 C 0.4028(4) 0.1447(4) 0.3131(3)
C6_6 C 0.4148(4) 0.1815(4) 0.2895(3)
H2_6 H 0.4098 0.2070 0.2951
C7_6 C 0.4341(5) 0.1814(4) 0.2576(3)
C8_6 C 0.4462(4) 0.1475(4) 0.2491(3)
H3_6 H 0.4612 0.1487 0.2285
C9_6 C 0.4954(5) 0.2819(5) 0.1926(3)
C10_6 C 0.5234(5) 0.2874(5) 0.1649(3)
H4_6 H 0.5241 0.2603 0.1569
C11_6 C 0.5526(5) 0.3331(4) 0.1468(3)
C12_6 C 0.5503(4) 0.3732(4) 0.1607(2)
H5_6 H 0.5692 0.4036 0.1510
C13_6 C 0.5197(5) 0.3681(4) 0.1895(3)
C14_6 C 0.4909(4) 0.3188(4) 0.2049(3)
H6_6 H 0.4699 0.3137 0.2230
C15_6 C 0.5824(4) 0.3354(4) 0.1188(3)
C16_6 C 0.5135(4) 0.4069(4) 0.2019(3)
C27_6 C 0.2022(4) 0.0400(4) 0.3696(3)
C28_6 C 0.1690(4) 0.0413(4) 0.3472(3)
H11_6 H 0.1769 0.0708 0.3372
C29_6 C 0.1248(4) 0.0013(4) 0.3391(3)
C31_6 C 0.2489(4) 0.0829(5) 0.3790(2)
C32_6 C 0.0900(4) 0.0016(6) 0.3134(3)
C33_6 C 0.4704(7) 0.2345(5) 0.2082(5)
O23_6 O 0.4543(8) 0.1925(6) 0.1894(5)
N1_6 N 0.4495(7) 0.2255(5) 0.2359(3)
O34_6 O 0.2782(3) 0.2122(5) 0.40855(18)
O35_6 O 0.3018(3) 0.2252(5) 0.46396(17)
O41_6 O 0.0369(3) 0.0938(4) 0.30218(18)
O45_6 O 0.1304(3) 0.1331(4) 0.2657(2)
C51_6 C 0.2753(4) 0.2242(7) 0.4392(3)
C52_6 C 0.2012(4) 0.3047(7) 0.5084(3)
C53_6 C 0.1997(4) 0.2758(7) 0.4772(3)
C54_6 C 0.2370(4) 0.2632(7) 0.4744(3)
H19_6 H 0.2597 0.2714 0.4918
C55_6 C 0.2387(5) 0.2387(9) 0.4455(3)
C56_6 C 0.2006(4) 0.2250(7) 0.4199(3)
H20_6 H 0.1998 0.2069 0.4009
C57_6 C 0.1675(5) 0.2378(9) 0.4232(3)
C58_6 C 0.1652(4) 0.2634(7) 0.4528(3)
H21_6 H 0.1409 0.2712 0.4551
C59_6 C 0.0458(4) 0.1878(6) 0.3785(3)
C60_6 C 0.0048(6) 0.1930(8) 0.3846(3)
H22_6 H 0.0078 0.2175 0.3990
C64_6 C 0.0417(5) 0.1533(6) 0.3565(3)
H24_6 H 0.0684 0.1494 0.3529
N4_6 N 0.1266(6) 0.2141(12) 0.3968(6)
C68_6 C 0.0890(8) 0.2129(13) 0.3990(6)
O47_6 O 0.0943(9) 0.2553(13) 0.4062(7)
H37_6 H 0.373813 0.0466425 0.4018
H38_6 H 0.317855 0.0158572 0.414241
H39_6 H 0.38742 0.28936 0.501936
H40_6 H 0.413866 0.260879 0.516644
H49_6 H 0.441776 0.250713 0.245145
H56_6 H 0.132126 0.198409 0.376063
O18_6 O 0.0570(3) 0.9631(3) 0.30218(18)
O22_6 O 0.0028(3) 0.8696(3) 0.2657(2)
C18_6 C 0.1036(6) 0.7988(4) 0.5084(3)
C19_6 C 0.0762(6) 0.8003(4) 0.4772(3)
C20_6 C 0.0263(6) 0.7630(4) 0.4744(3)
H7_6 H 0.0118 0.7403 0.4918
C21_6 C 0.0001(7) 0.7613(5) 0.4455(3)
C22_6 C 0.0245(6) 0.7994(4) 0.4199(3)
H8_6 H 0.0072 0.8002 0.4009
C23_6 C 0.0704(8) 0.8325(5) 0.4232(3)
C24_6 C 0.0983(6) 0.8348(4) 0.4528(3)
H9_6 H 0.1304 0.8591 0.4551
C25_6 C 0.1421(4) 0.9542(4) 0.3785(3)
C26_6 C 0.1883(5) 0.9952(6) 0.3846(3)
H10_6 H 0.2098 0.9922 0.3990
C30_6 C 0.1117(4) 0.9583(5) 0.3565(3)
H12_6 H 0.0811 0.9316 0.3529
N2_6 N 0.0876(10) 0.8734(6) 0.3968(6)
C34_6 C 0.1240(10) 0.9110(8) 0.3990(6)
O24_6 O 0.1611(10) 0.9057(9) 0.4062(7)
H50_6 H 0.0662829 0.867874 0.376063
O2_8 O 1.0000 0.0000 0.2651(3)
O25_6 O 0.8283(2) 0.1716(3) 0.42085(14)
O26_6 O 0.8297(3) 0.1890(4) 0.34663(17)
O27_6 O 0.8789(3) 0.2588(4) 0.37104(19)
O38_6 O 0.8776(3) 0.1355(4) 0.37000(18)
O39_6 O 0.9262(3) 0.2056(5) 0.39594(19)
O40_6 O 0.9560(3) 0.0535(4) 0.30358(19)
O42_6 O 0.9561(3) 0.3063(4) 0.4195(2)
O43_6 O 0.7875(3) 0.0825(4) 0.33466(18)
O44_6 O 0.7430(3) 0.1259(4) 0.50770(18)
C35_6 C 0.8548(4) 0.2346(6) 0.3460(3)
C36_6 C 0.9282(4) 0.3761(7) 0.2644(3)
C37_6 C 0.8902(4) 0.3249(6) 0.2734(3)
C38_6 C 0.8893(4) 0.3052(6) 0.3053(3)
H13_6 H 0.9120 0.3242 0.3217
C39_6 C 0.8553(4) 0.2580(6) 0.3131(3)
C40_6 C 0.8185(4) 0.2332(6) 0.2895(3)
H14_6 H 0.7930 0.2027 0.2951
C41_6 C 0.8186(4) 0.2526(6) 0.2576(3)
C42_6 C 0.8525(4) 0.2986(6) 0.2491(3)
H15_6 H 0.8513 0.3124 0.2285
C43_6 C 0.7181(5) 0.2134(7) 0.1926(3)
C44_6 C 0.7126(5) 0.2359(7) 0.1649(3)
H16_6 H 0.7397 0.2637 0.1569
C45_6 C 0.6669(4) 0.2194(6) 0.1468(3)
C46_6 C 0.6268(4) 0.1770(6) 0.1607(2)
H17_6 H 0.5964 0.1655 0.1510
C47_6 C 0.6319(4) 0.1515(6) 0.1895(3)
C48_6 C 0.6812(4) 0.1720(6) 0.2049(3)
H18_6 H 0.6863 0.1561 0.2230
C49_6 C 0.6646(4) 0.2469(6) 0.1188(3)
C50_6 C 0.5931(4) 0.1065(6) 0.2019(3)
C61_6 C 0.9600(4) 0.1621(6) 0.3696(3)
C62_6 C 0.9587(4) 0.1276(6) 0.3472(3)
H23_6 H 0.9292 0.1060 0.3372
C63_6 C 0.9987(4) 0.1234(6) 0.3391(3)
C65_6 C 0.9171(5) 0.1659(6) 0.3790(2)
C66_6 C 0.9984(6) 0.0883(7) 0.3134(3)
C67_6 C 0.7655(5) 0.2358(9) 0.2082(5)
O46_6 O 0.8075(6) 0.2617(10) 0.1894(5)
N3_6 N 0.7745(5) 0.2239(9) 0.2359(3)
O57_6 O 0.7878(5) 0.0659(4) 0.40855(18)
O58_6 O 0.7748(5) 0.0765(4) 0.46396(17)
C85_6 C 0.7758(7) 0.0510(6) 0.4392(3)
H45_6 H 0.953357 0.32717 0.4018
H46_6 H 0.984143 0.301997 0.414241
H51_6 H 0.71064 0.0980597 0.501936
H52_6 H 0.739121 0.152987 0.516644
H55_6 H 0.749287 0.191063 0.245145
O11_6 O 0.9341(4) 0.7218(3) 0.40855(18)
O12_6 O 0.9235(4) 0.6982(3) 0.46396(17)
C17_6 C 0.9490(6) 0.7247(4) 0.4392(3)
O48_6 O 0.8284(3) 0.6566(2) 0.42085(14)
O49_6 O 0.8110(4) 0.6406(3) 0.34663(17)
O50_6 O 0.7412(4) 0.6200(3) 0.37104(19)
O61_6 O 0.8645(4) 0.7420(2) 0.37000(18)
O62_6 O 0.7944(5) 0.7205(4) 0.39594(19)
O63_6 O 0.9465(4) 0.9024(3) 0.30358(19)
O64_6 O 0.9062(4) 0.9430(3) 0.30218(18)
O65_6 O 0.6937(4) 0.6497(3) 0.4195(2)
O66_6 O 0.9175(4) 0.7049(3) 0.33466(18)
O67_6 O 0.8741(4) 0.6170(3) 0.50770(18)
O68_6 O 0.8669(4) 0.9972(3) 0.2657(2)
C69_6 C 0.7654(6) 0.6201(4) 0.3460(3)
C70_6 C 0.6239(7) 0.5520(6) 0.2644(3)
C71_6 C 0.6751(6) 0.5652(4) 0.2734(3)
C72_6 C 0.6948(6) 0.5840(4) 0.3053(3)
H25_6 H 0.6758 0.5877 0.3217
C73_6 C 0.7420(6) 0.5972(4) 0.3131(3)
C74_6 C 0.7668(6) 0.5852(4) 0.2895(3)
H26_6 H 0.7973 0.5902 0.2951
C75_6 C 0.7474(6) 0.5659(5) 0.2576(3)
C76_6 C 0.7014(6) 0.5538(4) 0.2491(3)
H27_6 H 0.6876 0.5388 0.2285
C77_6 C 0.7866(7) 0.5046(5) 0.1926(3)
C78_6 C 0.7641(7) 0.4766(5) 0.1649(3)
H28_6 H 0.7363 0.4759 0.1569
C79_6 C 0.7806(6) 0.4474(5) 0.1468(3)
C80_6 C 0.8230(6) 0.4497(4) 0.1607(2)
H29_6 H 0.8345 0.4308 0.1510
C81_6 C 0.8485(6) 0.4803(5) 0.1895(3)
C82_6 C 0.8280(6) 0.5091(4) 0.2049(3)
H30_6 H 0.8439 0.5301 0.2230
C83_6 C 0.7531(6) 0.4176(4) 0.1188(3)
C84_6 C 0.8935(6) 0.4865(4) 0.2019(3)
C86_6 C 0.6953(7) 0.8964(6) 0.5084(3)
C87_6 C 0.7242(7) 0.9238(6) 0.4772(3)
C88_6 C 0.7368(7) 0.9737(6) 0.4744(3)
H31_6 H 0.7286 0.9882 0.4918
C89_6 C 0.7613(9) 0.9999(7) 0.4455(3)
C90_6 C 0.7750(7) 0.9755(6) 0.4199(3)
H32_6 H 0.7931 0.9928 0.4009
C91_6 C 0.7622(9) 0.9296(8) 0.4232(3)
C92_6 C 0.7366(7) 0.9017(6) 0.4528(3)
H33_6 H 0.7288 0.8696 0.4551
C93_6 C 0.8122(6) 0.8579(4) 0.3785(3)
C94_6 C 0.8070(8) 0.8117(5) 0.3846(3)
H34_6 H 0.7825 0.7902 0.3990
C95_6 C 0.8379(6) 0.7978(4) 0.3696(3)
C96_6 C 0.8724(6) 0.8310(4) 0.3472(3)
H35_6 H 0.8940 0.8231 0.3372
C97_6 C 0.8766(6) 0.8752(4) 0.3391(3)
C98_6 C 0.8467(6) 0.8883(4) 0.3565(3)
H36_6 H 0.8506 0.9189 0.3529
C99_6 C 0.8341(6) 0.7511(4) 0.3790(2)
C100_6 C 0.9117(7) 0.9100(4) 0.3134(3)
C101_6 C 0.7642(9) 0.5296(7) 0.2082(5)
O69_6 O 0.7383(10) 0.5457(8) 0.1894(5)
N5_6 N 0.7761(9) 0.5505(7) 0.2359(3)
N6_6 N 0.7859(12) 0.9124(10) 0.3968(6)
C102_6 C 0.7871(13) 0.8760(10) 0.3990(6)
O70_6 O 0.7447(13) 0.8389(10) 0.4062(7)
H42_3 H 0.978239 0.846335 0.249467
H59_6 H 0.67283 0.626187 0.4018
H60_6 H 0.698003 0.682145 0.414241
H63_6 H 0.90194 0.61258 0.501936
H64_6 H 0.847013 0.586134 0.516644
H65_6 H 0.801591 0.933717 0.376063
H66_6 H 0.808937 0.558224 0.245145
O2_9 O 1.0000 0.9999 0.2651(3)
O2_10 O 0.0001 0.0000 0.2651(3)
H42_4 H 0.868096 0.0217609 0.249467
Cl1 Cl 0.4142(2) 0.0859(2) 0.07962(17)
Cl1_2 Cl 0.9141(2) 0.3283(3) 0.07962(17)
Cl1_3 Cl 0.6717(3) 0.5858(2) 0.07962(17)
Cl1_4 Cl 0.0809(2) 0.4192(2) 0.41295(17)
Cl1_5 Cl 0.5808(2) 0.6616(3) 0.41295(17)
Cl1_6 Cl 0.3384(3) 0.9191(2) 0.41295(17)
Cl1_7 Cl 0.7475(2) 0.7526(2) 0.74629(17)
Cl1_8 Cl 0.2474(2) 0.9950(3) 0.74629(17)
Cl1_9 Cl 0.0050(3) 0.2525(2) 0.74629(17)
Cl1_10 Cl 0.5858(2) 0.9141(2) 0.92038(17)
Cl1_11 Cl 0.0859(2) 0.6717(3) 0.92038(17)
Cl1_12 Cl 0.3283(3) 0.4142(2) 0.92038(17)
Cl1_13 Cl 0.9191(2) 0.5808(2) 0.58705(17)
Cl1_14 Cl 0.4192(2) 0.3384(3) 0.58705(17)
Cl1_15 Cl 0.6616(3) 0.0809(2) 0.58705(17)
Cl1_16 Cl 0.2525(2) 0.2474(2) 0.25371(17)
Cl1_17 Cl 0.7526(2) 0.0050(3) 0.25371(17)
Cl1_18 Cl 0.9950(3) 0.7475(2) 0.25371(17)
Cl2 Cl 0.0000 0.0000 0.1423(8)
Cl2_2 Cl -0.0000 1.0000 0.1423(8)
Cl2_3 Cl 1.0000 0.0000 0.1423(8)
Cl2_4 Cl 1.0000 1.0000 0.1423(8)
Cl2_5 Cl 0.6667 0.3333 0.4756(8)
Cl2_6 Cl 0.3333 0.6667 0.8090(8)
Cl2_7 Cl 0.0000 0.0000 0.8577(8)
Cl2_8 Cl -0.0000 1.0000 0.8577(8)
Cl2_9 Cl 1.0000 0.0000 0.8577(8)
Cl2_10 Cl 1.0000 1.0000 0.8577(8)
Cl2_11 Cl 0.3333 0.6667 0.5244(8)
Cl2_12 Cl 0.6667 0.3333 0.1910(8)
loop_
_geom_bond_atom_site_label_1
_geom_bond_atom_site_label_2
_geom_bond_site_symmetry_1
_geom_bond_site_symmetry_2
O31 C49 1_555 1_555
O32 C50 1_555 1_555
O33 C50 1_555 1_555
H17 C46 1_555 1_555
C47 C46 1_555 1_555
C50 C47 1_555 1_555
O51 C70 1_555 1_555
O52 C70 1_555 1_555
Sc14 O51 1_555 1_555
Sc18 O33 1_555 1_555
Sc25 O52 1_555 1_555
Sc27 O32 1_555 1_555
Sc34 O31 1_555 1_555
Sc4 O2 1_555 1_555
O2 Sc8 1_555 1_555
O5 C2 1_555 1_555
O6 C2 1_555 1_555
O17 C32 1_555 1_555
O18 Sc4 1_555 1_555
O22 Sc4 1_555 1_555
C2 C3 1_555 1_555
C3 C4 1_555 1_555
C4 H1 1_555 1_555
C6 C5 1_555 1_555
H2 C6 1_555 1_555
C7 C6 1_555 1_555
C8 C3 1_555 1_555
H3 C8 1_555 1_555
C9 C10 1_555 1_555
C10 H4 1_555 1_555
C11 C10 1_555 1_555
C14 C9 1_555 1_555
H6 C14 1_555 1_555
C32 O18 1_555 1_555
C33 C9 1_555 1_555
O23 C33 1_555 1_555
N1 C7 1_555 1_555
Sc8 O17 1_555 1_555
O40 C66 1_555 1_555
O41 Sc8 1_555 1_555
O45 Sc8 1_555 1_555
C37 C38 1_555 1_555
C38 H13 1_555 1_555
C40 C39 1_555 1_555
H14 C40 1_555 1_555
C41 C40 1_555 1_555
C42 C37 1_555 1_555
H15 C42 1_555 1_555
C43 C44 1_555 1_555
C44 H16 1_555 1_555
C45 C44 1_555 1_555
C48 C43 1_555 1_555
H18 C48 1_555 1_555
C66 O41 1_555 1_555
C67 C43 1_555 1_555
O46 C67 1_555 1_555
N3 C41 1_555 1_555
Sc12 O2 1_555 1_555
O53 C83 1_555 1_555
O54 C83 1_555 1_555
O55 C84 1_555 1_555
O56 C84 1_555 1_555
O63 Sc4 1_555 1_555
O64 Sc12 1_555 1_555
O68 Sc12 1_555 1_555
C71 C72 1_555 1_555
C72 H25 1_555 1_555
C74 C73 1_555 1_555
H26 C74 1_555 1_555
C75 C74 1_555 1_555
C76 C71 1_555 1_555
H27 C76 1_555 1_555
C77 C78 1_555 1_555
C78 H28 1_555 1_555
C79 C78 1_555 1_555
C80 C79 1_555 1_555
H29 C80 1_555 1_555
C81 C80 1_555 1_555
C82 C77 1_555 1_555
H30 C82 1_555 1_555
C83 C79 1_555 1_555
C84 C81 1_555 1_555
C100 O63 1_555 1_555
C101 C77 1_555 1_555
O69 C101 1_555 1_555
N5 C75 1_555 1_555
Sc15 O5 1_555 1_555
Sc16 O56 1_555 1_555
Sc23 O55 1_555 1_555
Sc27 O6 1_555 1_555
Sc34 O7 1_555 1_555
Sc36 O54 1_555 1_555
O77 Sc8 1_555 1_555
O78 Sc12 1_555 1_555
O79 Sc4 1_555 1_555
O80 Sc4 1_555 1_555
O81 Sc8 1_555 1_555
O82 Sc12 1_555 1_555
C4 C5 1_555 1_555
C7 C8 1_555 1_555
C33 N1 1_555 1_555
O40 Sc12 1_555 1_555
C38 C39 1_555 1_555
C41 C42 1_555 1_555
C67 N3 1_555 1_555
O64 C100 1_555 1_555
C72 C73 1_555 1_555
C75 C76 1_555 1_555
C81 C82 1_555 1_555
C101 N5 1_555 1_555
N1 H49 1_555 1_555
N3 H55 1_555 1_555
N5 H66 1_555 1_555
Sc1 O1 1_555 1_555
Sc2 O1 1_555 1_555
Sc3 O1 1_555 1_555
O3 Sc1 1_555 1_555
O4 Sc2 1_555 1_555
O11 C17 1_555 1_555
O12 C17 1_555 1_555
O13 C18 1_555 1_555
O14 C18 1_555 1_555
O15 Sc1 1_555 1_555
O16 Sc2 1_555 1_555
O19 Sc2 1_555 1_555
O20 Sc1 1_555 1_555
O21 Sc3 1_555 1_555
C1 O3 1_555 1_555
C17 C21 1_555 1_555
C18 C19 1_555 1_555
C19 C20 1_555 1_555
C20 H7 1_555 1_555
C21 C20 1_555 1_555
C22 C21 1_555 1_555
H8 C22 1_555 1_555
C23 C22 1_555 1_555
C24 C19 1_555 1_555
H9 C24 1_555 1_555
C25 C26 1_555 1_555
C26 H10 1_555 1_555
C27 C26 1_555 1_555
C28 C27 1_555 1_555
H11 C28 1_555 1_555
C29 C28 1_555 1_555
C30 C25 1_555 1_555
H12 C30 1_555 1_555
C31 O15 1_555 1_555
N2 C23 1_555 1_555
C34 C25 1_555 1_555
O24 C34 1_555 1_555
Sc5 O25 1_555 1_555
Sc6 O25 1_555 1_555
Sc7 O25 1_555 1_555
O26 Sc5 1_555 1_555
O27 Sc6 1_555 1_555
O34 Sc1 1_555 1_555
O35 Sc3 1_555 1_555
O36 C52 1_555 1_555
O37 C52 1_555 1_555
O38 Sc5 1_555 1_555
O39 Sc6 1_555 1_555
O42 Sc6 1_555 1_555
O43 Sc5 1_555 1_555
O44 Sc7 1_555 1_555
C35 O26 1_555 1_555
C51 O34 1_555 1_555
C52 C53 1_555 1_555
C53 C54 1_555 1_555
C54 H19 1_555 1_555
C55 C51 1_555 1_555
C56 C55 1_555 1_555
H20 C56 1_555 1_555
C57 C56 1_555 1_555
C58 C53 1_555 1_555
H21 C58 1_555 1_555
C59 C60 1_555 1_555
C60 H22 1_555 1_555
C61 C60 1_555 1_555
C62 C61 1_555 1_555
H23 C62 1_555 1_555
C63 C62 1_555 1_555
C64 C59 1_555 1_555
H24 C64 1_555 1_555
C65 O38 1_555 1_555
N4 C57 1_555 1_555
C68 C59 1_555 1_555
O47 C68 1_555 1_555
Sc9 O11 1_555 1_555
Sc10 O48 1_555 1_555
Sc11 O12 1_555 1_555
O48 Sc9 1_555 1_555
O49 Sc9 1_555 1_555
O50 Sc10 1_555 1_555
O57 Sc5 1_555 1_555
O58 Sc7 1_555 1_555
O59 C86 1_555 1_555
O60 C86 1_555 1_555
O61 Sc9 1_555 1_555
O62 Sc10 1_555 1_555
O65 Sc10 1_555 1_555
O66 Sc9 1_555 1_555
O67 Sc11 1_555 1_555
C69 O49 1_555 1_555
C85 O57 1_555 1_555
C86 C87 1_555 1_555
C87 C88 1_555 1_555
C88 H31 1_555 1_555
C89 C85 1_555 1_555
C90 C89 1_555 1_555
H32 C90 1_555 1_555
C91 C90 1_555 1_555
C92 C87 1_555 1_555
H33 C92 1_555 1_555
C93 C94 1_555 1_555
C94 H34 1_555 1_555
C95 C94 1_555 1_555
C96 C95 1_555 1_555
H35 C96 1_555 1_555
C97 C96 1_555 1_555
C98 C93 1_555 1_555
H36 C98 1_555 1_555
C99 O61 1_555 1_555
N6 C91 1_555 1_555
C102 C93 1_555 1_555
O70 C102 1_555 1_555
Sc20 O13 1_555 1_555
Sc29 O14 1_555 1_555
O71 Sc9 1_555 1_555
O72 Sc1 1_555 1_555
O73 Sc5 1_555 1_555
O74 Sc11 1_555 1_555
O75 Sc3 1_555 1_555
O76 Sc7 1_555 1_555
O83 Sc7 1_555 1_555
O84 Sc11 1_555 1_555
O85 Sc3 1_555 1_555
O86 Sc6 1_555 1_555
O87 Sc10 1_555 1_555
O88 Sc2 1_555 1_555
O89 Sc6 1_555 1_555
O90 Sc10 1_555 1_555
O91 Sc2 1_555 1_555
O92 Sc7 1_555 1_555
O93 Sc11 1_555 1_555
O94 Sc3 1_555 1_555
O4 C1 1_555 1_555
O16 C31 1_555 1_555
C23 C24 1_555 1_555
C27 C31 1_555 1_555
C29 C30 1_555 1_555
N2 C34 1_555 1_555
O27 C35 1_555 1_555
O35 C51 1_555 1_555
O39 C65 1_555 1_555
C54 C55 1_555 1_555
C57 C58 1_555 1_555
C61 C65 1_555 1_555
C63 C64 1_555 1_555
N4 C68 1_555 1_555
Sc11 O48 1_555 1_555
O50 C69 1_555 1_555
O58 C85 1_555 1_555
O62 C99 1_555 1_555
C88 C89 1_555 1_555
C91 C92 1_555 1_555
C95 C99 1_555 1_555
C97 C98 1_555 1_555
N6 C102 1_555 1_555
O19 H37 1_555 1_555
O19 H38 1_555 1_555
O21 H39 1_555 1_555
O21 H40 1_555 1_555
O20 H44 1_555 1_555
O42 H45 1_555 1_555
O42 H46 1_555 1_555
O43 H48 1_555 1_555
N2 H50 1_555 1_555
O44 H51 1_555 1_555
O44 H52 1_555 1_555
N4 H56 1_555 1_555
O65 H59 1_555 1_555
O65 H60 1_555 1_555
O66 H61 1_555 1_555
O67 H63 1_555 1_555
O67 H64 1_555 1_555
N6 H65 1_555 1_555
O8 C15 1_555 1_555
O9 C16 1_555 1_555
O10 C16 1_555 1_555
H5 C12 1_555 1_555
C13 C12 1_555 1_555
C16 C13 1_555 1_555
O28 C36 1_555 1_555
O29 C36 1_555 1_555
Sc13 O28 1_555 1_555
Sc17 O10 1_555 1_555
Sc23 O29 1_555 1_555
Sc25 O9 1_555 1_555
Sc32 O8 1_555 1_555
O66 H48_2 1_555 1_555
O20 H61_2 1_555 1_555
O43 H61_3 1_555 1_555
Sc10_2 O48_2 1_555 1_555
O50_2 Sc10_2 1_555 1_555
O51_2 C70_2 1_555 1_555
O52_2 C70_2 1_555 1_555
O53_2 C83_2 1_555 1_555
O54_2 C83_2 1_555 1_555
O55_2 C84_2 1_555 1_555
O56_2 C84_2 1_555 1_555
O65_2 Sc10_2 1_555 1_555
O67_2 Sc11_2 1_555 1_555
C69_2 O49_2 1_555 1_555
C70_2 C71_2 1_555 1_555
C71_2 C72_2 1_555 1_555
C72_2 H25_2 1_555 1_555
C73_2 C69_2 1_555 1_555
C74_2 C73_2 1_555 1_555
H26_2 C74_2 1_555 1_555
C75_2 C74_2 1_555 1_555
C76_2 C71_2 1_555 1_555
H27_2 C76_2 1_555 1_555
C77_2 C78_2 1_555 1_555
C78_2 H28_2 1_555 1_555
C79_2 C78_2 1_555 1_555
C80_2 C79_2 1_555 1_555
H29_2 C80_2 1_555 1_555
C81_2 C80_2 1_555 1_555
C82_2 C77_2 1_555 1_555
H30_2 C82_2 1_555 1_555
C83_2 C79_2 1_555 1_555
C84_2 C81_2 1_555 1_555
C101_2 C77_2 1_555 1_555
O69_2 C101_2 1_555 1_555
N5_2 C75_2 1_555 1_555
Sc14_2 O51_2 1_555 1_555
Sc16_2 O56_2 1_555 1_555
Sc23_2 O55_2 1_555 1_555
Sc25_2 O52_2 1_555 1_555
Sc32_2 O53_2 1_555 1_555
Sc36_2 O54_2 1_555 1_555
O74_2 Sc11_2 1_555 1_555
O84_2 Sc11_2 1_555 1_555
O87_2 Sc10_2 1_555 1_555
Sc11_2 O48_2 1_555 1_555
O50_2 C69_2 1_555 1_555
C72_2 C73_2 1_555 1_555
C75_2 C76_2 1_555 1_555
C81_2 C82_2 1_555 1_555
C101_2 N5_2 1_555 1_555
O65_2 H59_2 1_555 1_555
O67_2 H63_2 1_555 1_555
O67_2 H64_2 1_555 1_555
N5_2 H66_2 1_555 1_555
Sc4_2 O2_2 1_555 1_555
O2_2 Sc8_2 1_555 1_555
O11_2 C17_2 1_555 1_555
O12_2 C17_2 1_555 1_555
O13_2 C18_2 1_555 1_555
O14_2 C18_2 1_555 1_555
O15_2 Sc1_2 1_555 1_555
O17_2 C32_2 1_555 1_555
O18_2 Sc4_2 1_555 1_555
O20_2 Sc1_2 1_555 1_555
O22_2 Sc4_2 1_555 1_555
C17_2 C21_2 1_555 1_555
C18_2 C19_2 1_555 1_555
C19_2 C20_2 1_555 1_555
C20_2 H7_2 1_555 1_555
C21_2 C20_2 1_555 1_555
C22_2 C21_2 1_555 1_555
H8_2 C22_2 1_555 1_555
C23_2 C22_2 1_555 1_555
C24_2 C19_2 1_555 1_555
H9_2 C24_2 1_555 1_555
C25_2 C26_2 1_555 1_555
C26_2 H10_2 1_555 1_555
C27_2 C26_2 1_555 1_555
C28_2 C27_2 1_555 1_555
H11_2 C28_2 1_555 1_555
C29_2 C28_2 1_555 1_555
C30_2 C25_2 1_555 1_555
H12_2 C30_2 1_555 1_555
C31_2 O15_2 1_555 1_555
C32_2 O18_2 1_555 1_555
N2_2 C23_2 1_555 1_555
C34_2 C25_2 1_555 1_555
O24_2 C34_2 1_555 1_555
Sc5_2 O25_2 1_555 1_555
Sc6_2 O25_2 1_555 1_555
Sc7_2 O25_2 1_555 1_555
Sc8_2 O17_2 1_555 1_555
O26_2 Sc5_2 1_555 1_555
O27_2 Sc6_2 1_555 1_555
O28_2 C36_2 1_555 1_555
O29_2 C36_2 1_555 1_555
O30_2 C49_2 1_555 1_555
O31_2 C49_2 1_555 1_555
O32_2 C50_2 1_555 1_555
O33_2 C50_2 1_555 1_555
O34_2 Sc1_2 1_555 1_555
O36_2 C52_2 1_555 1_555
O37_2 C52_2 1_555 1_555
O38_2 Sc5_2 1_555 1_555
O39_2 Sc6_2 1_555 1_555
O40_2 C66_2 1_555 1_555
O41_2 Sc8_2 1_555 1_555
O42_2 Sc6_2 1_555 1_555
O43_2 Sc5_2 1_555 1_555
O44_2 Sc7_2 1_555 1_555
O45_2 Sc8_2 1_555 1_555
C35_2 O26_2 1_555 1_555
C36_2 C37_2 1_555 1_555
C37_2 C38_2 1_555 1_555
C38_2 H13_2 1_555 1_555
C39_2 C35_2 1_555 1_555
C40_2 C39_2 1_555 1_555
H14_2 C40_2 1_555 1_555
C41_2 C40_2 1_555 1_555
C42_2 C37_2 1_555 1_555
H15_2 C42_2 1_555 1_555
C43_2 C44_2 1_555 1_555
C44_2 H16_2 1_555 1_555
C45_2 C44_2 1_555 1_555
C46_2 C45_2 1_555 1_555
H17_2 C46_2 1_555 1_555
C47_2 C46_2 1_555 1_555
C48_2 C43_2 1_555 1_555
H18_2 C48_2 1_555 1_555
C49_2 C45_2 1_555 1_555
C50_2 C47_2 1_555 1_555
C51_2 O34_2 1_555 1_555
C52_2 C53_2 1_555 1_555
C53_2 C54_2 1_555 1_555
C54_2 H19_2 1_555 1_555
C55_2 C51_2 1_555 1_555
C56_2 C55_2 1_555 1_555
H20_2 C56_2 1_555 1_555
C57_2 C56_2 1_555 1_555
C58_2 C53_2 1_555 1_555
H21_2 C58_2 1_555 1_555
C59_2 C60_2 1_555 1_555
C60_2 H22_2 1_555 1_555
C61_2 C60_2 1_555 1_555
C62_2 C61_2 1_555 1_555
H23_2 C62_2 1_555 1_555
C63_2 C62_2 1_555 1_555
C64_2 C59_2 1_555 1_555
H24_2 C64_2 1_555 1_555
C65_2 O38_2 1_555 1_555
C66_2 O41_2 1_555 1_555
C67_2 C43_2 1_555 1_555
O46_2 C67_2 1_555 1_555
N3_2 C41_2 1_555 1_555
N4_2 C57_2 1_555 1_555
C68_2 C59_2 1_555 1_555
O47_2 C68_2 1_555 1_555
Sc9_2 O11_2 1_555 1_555
Sc12_2 O2_2 1_555 1_555
O57_2 Sc5_2 1_555 1_555
O58_2 Sc7_2 1_555 1_555
O59_2 C86_2 1_555 1_555
O60_2 C86_2 1_555 1_555
O61_2 Sc9_2 1_555 1_555
O63_2 Sc4_2 1_555 1_555
O64_2 Sc12_2 1_555 1_555
O66_2 Sc9_2 1_555 1_555
O68_2 Sc12_2 1_555 1_555
C85_2 O57_2 1_555 1_555
C86_2 C87_2 1_555 1_555
C87_2 C88_2 1_555 1_555
C88_2 H31_2 1_555 1_555
C89_2 C85_2 1_555 1_555
C90_2 C89_2 1_555 1_555
H32_2 C90_2 1_555 1_555
C91_2 C90_2 1_555 1_555
C92_2 C87_2 1_555 1_555
H33_2 C92_2 1_555 1_555
C93_2 C94_2 1_555 1_555
C94_2 H34_2 1_555 1_555
C95_2 C94_2 1_555 1_555
C96_2 C95_2 1_555 1_555
H35_2 C96_2 1_555 1_555
C97_2 C96_2 1_555 1_555
C98_2 C93_2 1_555 1_555
H36_2 C98_2 1_555 1_555
C99_2 O61_2 1_555 1_555
C100_2 O63_2 1_555 1_555
N6_2 C91_2 1_555 1_555
C102_2 C93_2 1_555 1_555
O70_2 C102_2 1_555 1_555
Sc13_2 O28_2 1_555 1_555
Sc18_2 O33_2 1_555 1_555
Sc16 O59_2 1_555 1_555
Sc17 O13_2 1_555 1_555
Sc18 O36_2 1_555 1_555
Sc23_2 O29_2 1_555 1_555
Sc27_2 O32_2 1_555 1_555
Sc23 O60_2 1_555 1_555
Sc25 O14_2 1_555 1_555
Sc27 O37_2 1_555 1_555
Sc34_2 O31_2 1_555 1_555
Sc36_2 O30_2 1_555 1_555
O73_2 Sc5_2 1_555 1_555
O76_2 Sc7_2 1_555 1_555
O77_2 Sc8_2 1_555 1_555
O78_2 Sc12_2 1_555 1_555
O79_2 Sc4_2 1_555 1_555
O80_2 Sc4_2 1_555 1_555
O81_2 Sc8_2 1_555 1_555
O82_2 Sc12_2 1_555 1_555
O83_2 Sc7_2 1_555 1_555
O86_2 Sc6_2 1_555 1_555
O89_2 Sc6_2 1_555 1_555
O92_2 Sc7_2 1_555 1_555
O16_2 C31_2 1_555 1_555
C23_2 C24_2 1_555 1_555
C27_2 C31_2 1_555 1_555
C29_2 C30_2 1_555 1_555
C29_2 C32_2 1_555 1_555
N2_2 C34_2 1_555 1_555
O27_2 C35_2 1_555 1_555
O35_2 C51_2 1_555 1_555
O39_2 C65_2 1_555 1_555
O40_2 Sc12_2 1_555 1_555
C38_2 C39_2 1_555 1_555
C41_2 C42_2 1_555 1_555
C47_2 C48_2 1_555 1_555
C54_2 C55_2 1_555 1_555
C57_2 C58_2 1_555 1_555
C61_2 C65_2 1_555 1_555
C63_2 C64_2 1_555 1_555
C63_2 C66_2 1_555 1_555
C67_2 N3_2 1_555 1_555
N4_2 C68_2 1_555 1_555
O58_2 C85_2 1_555 1_555
O62_2 C99_2 1_555 1_555
O64_2 C100_2 1_555 1_555
C88_2 C89_2 1_555 1_555
C91_2 C92_2 1_555 1_555
C95_2 C99_2 1_555 1_555
C97_2 C98_2 1_555 1_555
C97_2 C100_2 1_555 1_555
N6_2 C102_2 1_555 1_555
O42_2 H45_2 1_555 1_555
O42_2 H46_2 1_555 1_555
N2_2 H50_2 1_555 1_555
O44_2 H51_2 1_555 1_555
O44_2 H52_2 1_555 1_555
N3_2 H55_2 1_555 1_555
N4_2 H56_2 1_555 1_555
N6_2 H65_2 1_555 1_555
Sc2_2 O1_2 1_555 1_555
Sc3_2 O1_2 1_555 1_555
O4_2 Sc2_2 1_555 1_555
O5_2 C2_2 1_555 1_555
O6_2 C2_2 1_555 1_555
O7_2 C15_2 1_555 1_555
O8_2 C15_2 1_555 1_555
O9_2 C16_2 1_555 1_555
O10_2 C16_2 1_555 1_555
O19_2 Sc2_2 1_555 1_555
O21_2 Sc3_2 1_555 1_555
C1_2 O3_2 1_555 1_555
C2_2 C3_2 1_555 1_555
C3_2 C4_2 1_555 1_555
C4_2 H1_2 1_555 1_555
C5_2 C1_2 1_555 1_555
C6_2 C5_2 1_555 1_555
H2_2 C6_2 1_555 1_555
C7_2 C6_2 1_555 1_555
C8_2 C3_2 1_555 1_555
H3_2 C8_2 1_555 1_555
C9_2 C10_2 1_555 1_555
C10_2 H4_2 1_555 1_555
C11_2 C10_2 1_555 1_555
C12_2 C11_2 1_555 1_555
H5_2 C12_2 1_555 1_555
C13_2 C12_2 1_555 1_555
C14_2 C9_2 1_555 1_555
H6_2 C14_2 1_555 1_555
C15_2 C11_2 1_555 1_555
C16_2 C13_2 1_555 1_555
C33_2 C9_2 1_555 1_555
O23_2 C33_2 1_555 1_555
N1_2 C7_2 1_555 1_555
Sc15_2 O5_2 1_555 1_555
Sc17_2 O10_2 1_555 1_555
Sc25_2 O9_2 1_555 1_555
Sc27_2 O6_2 1_555 1_555
Sc32_2 O8_2 1_555 1_555
Sc34_2 O7_2 1_555 1_555
O75_2 Sc3_2 1_555 1_555
O85_2 Sc3_2 1_555 1_555
O88_2 Sc2_2 1_555 1_555
O4_2 C1_2 1_555 1_555
C4_2 C5_2 1_555 1_555
C7_2 C8_2 1_555 1_555
C13_2 C14_2 1_555 1_555
C33_2 N1_2 1_555 1_555
O19_2 H37_2 1_555 1_555
O21_2 H39_2 1_555 1_555
O21_2 H40_2 1_555 1_555
N1_2 H49_2 1_555 1_555
O11_3 C17_3 1_555 1_555
O12_3 C17_3 1_555 1_555
Sc9_3 O11_3 1_555 1_555
Sc10_3 O48_3 1_555 1_555
Sc11_3 O12_3 1_555 1_555
O48_3 Sc9_3 1_555 1_555
O49_3 Sc9_3 1_555 1_555
O50_3 Sc10_3 1_555 1_555
O51_3 C70_3 1_555 1_555
O52_3 C70_3 1_555 1_555
O53_3 C83_3 1_555 1_555
O54_3 C83_3 1_555 1_555
O55_3 C84_3 1_555 1_555
O56_3 C84_3 1_555 1_555
O59_3 C86_3 1_555 1_555
O60_3 C86_3 1_555 1_555
O61_3 Sc9_3 1_555 1_555
O62_3 Sc10_3 1_555 1_555
O64_3 Sc12_3 1_555 1_555
O65_3 Sc10_3 1_555 1_555
O66_3 Sc9_3 1_555 1_555
O67_3 Sc11_3 1_555 1_555
O68_3 Sc12_3 1_555 1_555
C69_3 O49_3 1_555 1_555
C70_3 C71_3 1_555 1_555
C71_3 C72_3 1_555 1_555
C72_3 H25_3 1_555 1_555
C73_3 C69_3 1_555 1_555
C74_3 C73_3 1_555 1_555
H26_3 C74_3 1_555 1_555
C75_3 C74_3 1_555 1_555
C76_3 C71_3 1_555 1_555
H27_3 C76_3 1_555 1_555
C77_3 C78_3 1_555 1_555
C78_3 H28_3 1_555 1_555
C79_3 C78_3 1_555 1_555
C80_3 C79_3 1_555 1_555
H29_3 C80_3 1_555 1_555
C81_3 C80_3 1_555 1_555
C82_3 C77_3 1_555 1_555
H30_3 C82_3 1_555 1_555
C83_3 C79_3 1_555 1_555
C84_3 C81_3 1_555 1_555
C86_3 C87_3 1_555 1_555
C87_3 C88_3 1_555 1_555
C88_3 H31_3 1_555 1_555
C90_3 C89_3 1_555 1_555
H32_3 C90_3 1_555 1_555
C91_3 C90_3 1_555 1_555
C92_3 C87_3 1_555 1_555
H33_3 C92_3 1_555 1_555
C93_3 C94_3 1_555 1_555
C94_3 H34_3 1_555 1_555
C95_3 C94_3 1_555 1_555
C96_3 C95_3 1_555 1_555
H35_3 C96_3 1_555 1_555
C97_3 C96_3 1_555 1_555
C98_3 C93_3 1_555 1_555
H36_3 C98_3 1_555 1_555
C99_3 O61_3 1_555 1_555
C100_3 O63_3 1_555 1_555
C101_3 C77_3 1_555 1_555
O69_3 C101_3 1_555 1_555
N5_3 C75_3 1_555 1_555
N6_3 C91_3 1_555 1_555
C102_3 C93_3 1_555 1_555
O70_3 C102_3 1_555 1_555
Sc14_3 O51_3 1_555 1_555
Sc19 O56_3 1_555 1_555
Sc16_2 O59_3 1_555 1_555
Sc28 O55_3 1_555 1_555
Sc29 O52_3 1_555 1_555
Sc23_2 O60_3 1_555 1_555
Sc32_3 O53_3 1_555 1_555
Sc36_3 O54_3 1_555 1_555
O71_3 Sc9_3 1_555 1_555
O74_3 Sc11_3 1_555 1_555
O82_3 Sc12_3 1_555 1_555
O84_3 Sc11_3 1_555 1_555
O87_3 Sc10_3 1_555 1_555
O90_3 Sc10_3 1_555 1_555
O93_3 Sc11_3 1_555 1_555
Sc11_3 O48_3 1_555 1_555
O50_3 C69_3 1_555 1_555
O62_3 C99_3 1_555 1_555
O64_3 C100_3 1_555 1_555
C72_3 C73_3 1_555 1_555
C75_3 C76_3 1_555 1_555
C81_3 C82_3 1_555 1_555
C88_3 C89_3 1_555 1_555
C91_3 C92_3 1_555 1_555
C95_3 C99_3 1_555 1_555
C97_3 C98_3 1_555 1_555
C97_3 C100_3 1_555 1_555
C101_3 N5_3 1_555 1_555
N6_3 C102_3 1_555 1_555
O65_3 H59_3 1_555 1_555
O65_3 H60_3 1_555 1_555
O67_3 H63_3 1_555 1_555
O67_3 H64_3 1_555 1_555
N6_3 H65_3 1_555 1_555
N5_3 H66_3 1_555 1_555
Sc5_3 O25_3 1_555 1_555
Sc6_3 O25_3 1_555 1_555
Sc7_3 O25_3 1_555 1_555
O26_3 Sc5_3 1_555 1_555
O27_3 Sc6_3 1_555 1_555
O28_3 C36_3 1_555 1_555
O29_3 C36_3 1_555 1_555
O30_3 C49_3 1_555 1_555
O31_3 C49_3 1_555 1_555
O32_3 C50_3 1_555 1_555
O33_3 C50_3 1_555 1_555
O38_3 Sc5_3 1_555 1_555
O39_3 Sc6_3 1_555 1_555
O40_3 C66_3 1_555 1_555
O42_3 Sc6_3 1_555 1_555
O43_3 Sc5_3 1_555 1_555
O44_3 Sc7_3 1_555 1_555
C35_3 O26_3 1_555 1_555
C36_3 C37_3 1_555 1_555
C37_3 C38_3 1_555 1_555
C38_3 H13_3 1_555 1_555
C39_3 C35_3 1_555 1_555
C40_3 C39_3 1_555 1_555
H14_3 C40_3 1_555 1_555
C41_3 C40_3 1_555 1_555
C42_3 C37_3 1_555 1_555
H15_3 C42_3 1_555 1_555
C43_3 C44_3 1_555 1_555
C44_3 H16_3 1_555 1_555
C45_3 C44_3 1_555 1_555
C46_3 C45_3 1_555 1_555
H17_3 C46_3 1_555 1_555
C47_3 C46_3 1_555 1_555
C48_3 C43_3 1_555 1_555
H18_3 C48_3 1_555 1_555
C49_3 C45_3 1_555 1_555
C50_3 C47_3 1_555 1_555
C62_3 C61_3 1_555 1_555
H23_3 C62_3 1_555 1_555
C63_3 C62_3 1_555 1_555
C65_3 O38_3 1_555 1_555
C67_3 C43_3 1_555 1_555
O46_3 C67_3 1_555 1_555
N3_3 C41_3 1_555 1_555
O57_3 Sc5_3 1_555 1_555
O58_3 Sc7_3 1_555 1_555
C85_3 O57_3 1_555 1_555
Sc21 O33_3 1_555 1_555
Sc28 O29_3 1_555 1_555
Sc30 O32_3 1_555 1_555
Sc34_3 O31_3 1_555 1_555
Sc36_3 O30_3 1_555 1_555
O73_3 Sc5_3 1_555 1_555
O76_3 Sc7_3 1_555 1_555
O83_3 Sc7_3 1_555 1_555
O86_3 Sc6_3 1_555 1_555
O89_3 Sc6_3 1_555 1_555
O92_3 Sc7_3 1_555 1_555
O27_3 C35_3 1_555 1_555
O39_3 C65_3 1_555 1_555
C38_3 C39_3 1_555 1_555
C41_3 C42_3 1_555 1_555
C47_3 C48_3 1_555 1_555
C61_3 C65_3 1_555 1_555
C63_3 C66_3 1_555 1_555
C67_3 N3_3 1_555 1_555
O58_3 C85_3 1_555 1_555
O42_3 H45_3 1_555 1_555
O42_3 H46_3 1_555 1_555
O44_3 H51_3 1_555 1_555
O44_3 H52_3 1_555 1_555
N3_3 H55_3 1_555 1_555
O13_3 C18_3 1_555 1_555
O14_3 C18_3 1_555 1_555
O18_3 Sc4_3 1_555 1_555
O22_3 Sc4_3 1_555 1_555
C18_3 C19_3 1_555 1_555
C19_3 C20_3 1_555 1_555
C20_3 H7_3 1_555 1_555
C21_3 C20_3 1_555 1_555
C22_3 C21_3 1_555 1_555
H8_3 C22_3 1_555 1_555
C23_3 C22_3 1_555 1_555
C24_3 C19_3 1_555 1_555
H9_3 C24_3 1_555 1_555
C25_3 C26_3 1_555 1_555
C26_3 H10_3 1_555 1_555
C30_3 C25_3 1_555 1_555
H12_3 C30_3 1_555 1_555
N2_3 C23_3 1_555 1_555
C34_3 C25_3 1_555 1_555
O24_3 C34_3 1_555 1_555
Sc17_2 O13_3 1_555 1_555
Sc25_2 O14_3 1_555 1_555
O80_3 Sc4_3 1_555 1_555
C23_3 C24_3 1_555 1_555
N2_3 C34_3 1_555 1_555
N2_3 H50_3 1_555 1_555
Sc1_3 O1_3 1_555 1_555
Sc2_3 O1_3 1_555 1_555
Sc3_3 O1_3 1_555 1_555
O3_3 Sc1_3 1_555 1_555
O4_3 Sc2_3 1_555 1_555
O5_3 C2_3 1_555 1_555
O6_3 C2_3 1_555 1_555
O7_3 C15_3 1_555 1_555
O8_3 C15_3 1_555 1_555
O9_3 C16_3 1_555 1_555
O10_3 C16_3 1_555 1_555
O15_3 Sc1_3 1_555 1_555
O16_3 Sc2_3 1_555 1_555
O17_3 C32_3 1_555 1_555
O19_3 Sc2_3 1_555 1_555
O20_3 Sc1_3 1_555 1_555
O21_3 Sc3_3 1_555 1_555
C1_3 O3_3 1_555 1_555
C2_3 C3_3 1_555 1_555
C3_3 C4_3 1_555 1_555
C4_3 H1_3 1_555 1_555
C5_3 C1_3 1_555 1_555
C6_3 C5_3 1_555 1_555
H2_3 C6_3 1_555 1_555
C7_3 C6_3 1_555 1_555
C8_3 C3_3 1_555 1_555
H3_3 C8_3 1_555 1_555
C9_3 C10_3 1_555 1_555
C10_3 H4_3 1_555 1_555
C11_3 C10_3 1_555 1_555
C12_3 C11_3 1_555 1_555
H5_3 C12_3 1_555 1_555
C13_3 C12_3 1_555 1_555
C14_3 C9_3 1_555 1_555
H6_3 C14_3 1_555 1_555
C15_3 C11_3 1_555 1_555
C16_3 C13_3 1_555 1_555
C28_3 C27_3 1_555 1_555
H11_3 C28_3 1_555 1_555
C29_3 C28_3 1_555 1_555
C31_3 O15_3 1_555 1_555
C33_3 C9_3 1_555 1_555
O23_3 C33_3 1_555 1_555
N1_3 C7_3 1_555 1_555
Sc8_3 O17_3 1_555 1_555
O34_3 Sc1_3 1_555 1_555
O35_3 Sc3_3 1_555 1_555
O36_3 C52_3 1_555 1_555
O37_3 C52_3 1_555 1_555
O41_3 Sc8_3 1_555 1_555
O45_3 Sc8_3 1_555 1_555
C51_3 O34_3 1_555 1_555
C52_3 C53_3 1_555 1_555
C53_3 C54_3 1_555 1_555
C54_3 H19_3 1_555 1_555
C55_3 C51_3 1_555 1_555
C56_3 C55_3 1_555 1_555
H20_3 C56_3 1_555 1_555
C57_3 C56_3 1_555 1_555
C58_3 C53_3 1_555 1_555
H21_3 C58_3 1_555 1_555
C59_3 C60_3 1_555 1_555
C60_3 H22_3 1_555 1_555
C64_3 C59_3 1_555 1_555
H24_3 C64_3 1_555 1_555
N4_3 C57_3 1_555 1_555
C68_3 C59_3 1_555 1_555
O47_3 C68_3 1_555 1_555
Sc20 O10_3 1_555 1_555
Sc18_2 O36_3 1_555 1_555
Sc29 O9_3 1_555 1_555
Sc30 O6_3 1_555 1_555
Sc27_2 O37_3 1_555 1_555
Sc32_3 O8_3 1_555 1_555
Sc34_3 O7_3 1_555 1_555
O72_3 Sc1_3 1_555 1_555
O75_3 Sc3_3 1_555 1_555
O77_3 Sc8_3 1_555 1_555
O81_3 Sc8_3 1_555 1_555
O85_3 Sc3_3 1_555 1_555
O88_3 Sc2_3 1_555 1_555
O91_3 Sc2_3 1_555 1_555
O94_3 Sc3_3 1_555 1_555
O4_3 C1_3 1_555 1_555
O16_3 C31_3 1_555 1_555
C4_3 C5_3 1_555 1_555
C7_3 C8_3 1_555 1_555
C13_3 C14_3 1_555 1_555
C27_3 C31_3 1_555 1_555
C29_3 C32_3 1_555 1_555
C33_3 N1_3 1_555 1_555
O35_3 C51_3 1_555 1_555
C54_3 C55_3 1_555 1_555
C57_3 C58_3 1_555 1_555
N4_3 C68_3 1_555 1_555
O19_3 H37_3 1_555 1_555
O19_3 H38_3 1_555 1_555
O21_3 H39_3 1_555 1_555
O21_3 H40_3 1_555 1_555
N1_3 H49_3 1_555 1_555
N4_3 H56_3 1_555 1_555
O2_4 Sc12_3 1_555 1_555
Sc8_3 O2_5 1_555 1_555
O80_3 C15_4 1_555 1_555
O83 C16_4 1_555 1_555
O86 C16_4 1_555 1_555
H5_4 C12_4 1_555 1_555
C13_4 C12_4 1_555 1_555
C16_4 C13_4 1_555 1_555
O72 C36_4 1_555 1_555
O75 C36_4 1_555 1_555
Sc13 O1_4 1_555 1_555
Sc16 O1_4 1_555 1_555
Sc23 O1_4 1_555 1_555
O3_4 Sc13 1_555 1_555
O4_4 Sc16 1_555 1_555
O11_4 C17_4 1_555 1_555
O12_4 C17_4 1_555 1_555
O89_2 C18_4 1_555 1_555
O92_2 C18_4 1_555 1_555
O15_4 Sc13 1_555 1_555
O16_4 Sc16 1_555 1_555
O19_4 Sc16 1_555 1_555
O20_4 Sc13 1_555 1_555
O21_4 Sc23 1_555 1_555
C1_4 O3_4 1_555 1_555
C17_4 C21_4 1_555 1_555
C18_4 C19_4 1_555 1_555
C19_4 C20_4 1_555 1_555
C20_4 H7_4 1_555 1_555
C21_4 C20_4 1_555 1_555
C22_4 C21_4 1_555 1_555
H8_4 C22_4 1_555 1_555
C23_4 C22_4 1_555 1_555
C24_4 C19_4 1_555 1_555
H9_4 C24_4 1_555 1_555
C25_4 C26_4 1_555 1_555
C26_4 H10_4 1_555 1_555
C27_4 C26_4 1_555 1_555
C28_4 C27_4 1_555 1_555
H11_4 C28_4 1_555 1_555
C29_4 C28_4 1_555 1_555
C30_4 C25_4 1_555 1_555
H12_4 C30_4 1_555 1_555
C31_4 O15_4 1_555 1_555
N2_4 C23_4 1_555 1_555
C34_4 C25_4 1_555 1_555
O24_4 C34_4 1_555 1_555
Sc14 O25_4 1_555 1_555
Sc17 O25_4 1_555 1_555
Sc25 O25_4 1_555 1_555
O26_4 Sc14 1_555 1_555
O27_4 Sc17 1_555 1_555
O34_4 Sc13 1_555 1_555
O35_4 Sc23 1_555 1_555
O90_2 C52_4 1_555 1_555
O93_2 C52_4 1_555 1_555
O38_4 Sc14 1_555 1_555
O39_4 Sc17 1_555 1_555
O42_4 Sc17 1_555 1_555
O43_4 Sc14 1_555 1_555
O44_4 Sc25 1_555 1_555
C35_4 O26_4 1_555 1_555
C51_4 O34_4 1_555 1_555
C52_4 C53_4 1_555 1_555
C53_4 C54_4 1_555 1_555
C54_4 H19_4 1_555 1_555
C55_4 C51_4 1_555 1_555
C56_4 C55_4 1_555 1_555
H20_4 C56_4 1_555 1_555
C57_4 C56_4 1_555 1_555
C58_4 C53_4 1_555 1_555
H21_4 C58_4 1_555 1_555
C59_4 C60_4 1_555 1_555
C60_4 H22_4 1_555 1_555
C61_4 C60_4 1_555 1_555
C62_4 C61_4 1_555 1_555
H23_4 C62_4 1_555 1_555
C63_4 C62_4 1_555 1_555
C64_4 C59_4 1_555 1_555
H24_4 C64_4 1_555 1_555
C65_4 O38_4 1_555 1_555
N4_4 C57_4 1_555 1_555
C68_4 C59_4 1_555 1_555
O47_4 C68_4 1_555 1_555
Sc15 O11_4 1_555 1_555
Sc18 O48_4 1_555 1_555
Sc27 O12_4 1_555 1_555
O48_4 Sc15 1_555 1_555
O49_4 Sc15 1_555 1_555
O50_4 Sc18 1_555 1_555
O57_4 Sc14 1_555 1_555
O58_4 Sc25 1_555 1_555
O91_2 C86_4 1_555 1_555
O94_2 C86_4 1_555 1_555
O61_4 Sc15 1_555 1_555
O62_4 Sc18 1_555 1_555
O65_4 Sc18 1_555 1_555
O66_4 Sc15 1_555 1_555
O67_4 Sc27 1_555 1_555
C69_4 O49_4 1_555 1_555
C85_4 O57_4 1_555 1_555
C86_4 C87_4 1_555 1_555
C87_4 C88_4 1_555 1_555
C88_4 H31_4 1_555 1_555
C89_4 C85_4 1_555 1_555
C90_4 C89_4 1_555 1_555
H32_4 C90_4 1_555 1_555
C91_4 C90_4 1_555 1_555
C92_4 C87_4 1_555 1_555
H33_4 C92_4 1_555 1_555
C93_4 C94_4 1_555 1_555
C94_4 H34_4 1_555 1_555
C95_4 C94_4 1_555 1_555
C96_4 C95_4 1_555 1_555
H35_4 C96_4 1_555 1_555
C97_4 C96_4 1_555 1_555
C98_4 C93_4 1_555 1_555
H36_4 C98_4 1_555 1_555
C99_4 O61_4 1_555 1_555
N6_4 C91_4 1_555 1_555
C102_4 C93_4 1_555 1_555
O70_4 C102_4 1_555 1_555
O4_4 C1_4 1_555 1_555
O16_4 C31_4 1_555 1_555
C23_4 C24_4 1_555 1_555
C27_4 C31_4 1_555 1_555
C29_4 C30_4 1_555 1_555
N2_4 C34_4 1_555 1_555
O27_4 C35_4 1_555 1_555
O35_4 C51_4 1_555 1_555
O39_4 C65_4 1_555 1_555
C54_4 C55_4 1_555 1_555
C57_4 C58_4 1_555 1_555
C61_4 C65_4 1_555 1_555
C63_4 C64_4 1_555 1_555
N4_4 C68_4 1_555 1_555
Sc27 O48_4 1_555 1_555
O50_4 C69_4 1_555 1_555
O58_4 C85_4 1_555 1_555
O62_4 C99_4 1_555 1_555
C88_4 C89_4 1_555 1_555
C91_4 C92_4 1_555 1_555
C95_4 C99_4 1_555 1_555
C97_4 C98_4 1_555 1_555
N6_4 C102_4 1_555 1_555
O19_4 H37_4 1_555 1_555
O19_4 H38_4 1_555 1_555
O21_4 H39_4 1_555 1_555
O21_4 H40_4 1_555 1_555
O20_4 H44_2 1_555 1_555
O42_4 H45_4 1_555 1_555
O42_4 H46_4 1_555 1_555
O43_4 H48_3 1_555 1_555
N2_4 H50_4 1_555 1_555
O44_4 H51_4 1_555 1_555
O44_4 H52_4 1_555 1_555
N4_4 H56_4 1_555 1_555
O65_4 H59_4 1_555 1_555
O65_4 H60_4 1_555 1_555
O66_4 H61_4 1_555 1_555
O67_4 H63_4 1_555 1_555
O67_4 H64_4 1_555 1_555
N6_4 H65_4 1_555 1_555
Sc32_3 O2_6 1_555 1_555
O2_6 Sc34_3 1_555 1_555
O71 C2_4 1_555 1_555
O74 C2_4 1_555 1_555
O17_4 C32_4 1_555 1_555
O18_4 Sc32_3 1_555 1_555
O22_4 Sc32_3 1_555 1_555
C2_4 C3_4 1_555 1_555
C3_4 C4_4 1_555 1_555
C4_4 H1_4 1_555 1_555
C6_4 C5_4 1_555 1_555
H2_4 C6_4 1_555 1_555
C7_4 C6_4 1_555 1_555
C8_4 C3_4 1_555 1_555
H3_4 C8_4 1_555 1_555
C9_4 C10_4 1_555 1_555
C10_4 H4_4 1_555 1_555
C11_4 C10_4 1_555 1_555
C14_4 C9_4 1_555 1_555
H6_4 C14_4 1_555 1_555
C32_4 O18_4 1_555 1_555
C33_4 C9_4 1_555 1_555
O23_4 C33_4 1_555 1_555
N1_4 C7_4 1_555 1_555
Sc34_3 O17_4 1_555 1_555
O40_4 C66_4 1_555 1_555
O41_4 Sc34_3 1_555 1_555
O45_4 Sc34_3 1_555 1_555
C37_4 C38_4 1_555 1_555
C38_4 H13_4 1_555 1_555
C40_4 C39_4 1_555 1_555
H14_4 C40_4 1_555 1_555
C41_4 C40_4 1_555 1_555
C42_4 C37_4 1_555 1_555
H15_4 C42_4 1_555 1_555
C43_4 C44_4 1_555 1_555
C44_4 H16_4 1_555 1_555
C45_4 C44_4 1_555 1_555
C48_4 C43_4 1_555 1_555
H18_4 C48_4 1_555 1_555
C66_4 O41_4 1_555 1_555
C67_4 C43_4 1_555 1_555
O46_4 C67_4 1_555 1_555
N3_4 C41_4 1_555 1_555
Sc36_3 O2_6 1_555 1_555
O79_3 C83_4 1_555 1_555
O82_3 C83_4 1_555 1_555
O85 C84_4 1_555 1_555
O88 C84_4 1_555 1_555
O63_4 Sc32_3 1_555 1_555
O64_4 Sc36_3 1_555 1_555
O68_4 Sc36_3 1_555 1_555
C71_4 C72_4 1_555 1_555
C72_4 H25_4 1_555 1_555
C74_4 C73_4 1_555 1_555
H26_4 C74_4 1_555 1_555
C75_4 C74_4 1_555 1_555
C76_4 C71_4 1_555 1_555
H27_4 C76_4 1_555 1_555
C77_4 C78_4 1_555 1_555
C78_4 H28_4 1_555 1_555
C79_4 C78_4 1_555 1_555
C80_4 C79_4 1_555 1_555
H29_4 C80_4 1_555 1_555
C81_4 C80_4 1_555 1_555
C82_4 C77_4 1_555 1_555
H30_4 C82_4 1_555 1_555
C83_4 C79_4 1_555 1_555
C84_4 C81_4 1_555 1_555
C100_4 O63_4 1_555 1_555
C101_4 C77_4 1_555 1_555
O69_4 C101_4 1_555 1_555
N5_4 C75_4 1_555 1_555
C4_4 C5_4 1_555 1_555
C7_4 C8_4 1_555 1_555
C33_4 N1_4 1_555 1_555
O40_4 Sc36_3 1_555 1_555
C38_4 C39_4 1_555 1_555
C41_4 C42_4 1_555 1_555
C67_4 N3_4 1_555 1_555
O64_4 C100_4 1_555 1_555
C72_4 C73_4 1_555 1_555
C75_4 C76_4 1_555 1_555
C81_4 C82_4 1_555 1_555
C101_4 N5_4 1_555 1_555
N1_4 H49_4 1_555 1_555
N3_4 H55_4 1_555 1_555
N5_4 H66_4 1_555 1_555
O81_3 C49_4 1_555 1_555
O84 C50_4 1_555 1_555
O87 C50_4 1_555 1_555
H17_4 C46_4 1_555 1_555
C47_4 C46_4 1_555 1_555
C50_4 C47_4 1_555 1_555
O73 C70_4 1_555 1_555
O76 C70_4 1_555 1_555
O66_4 H48_4 1_555 1_555
O20_4 H61_5 1_555 1_555
O43_4 H61_6 1_555 1_555
Sc19 O1_5 1_555 1_555
Sc28 O1_5 1_555 1_555
O4_5 Sc19 1_555 1_555
O71_3 C2_5 1_555 1_555
O74_3 C2_5 1_555 1_555
O77_2 C15_5 1_555 1_555
O80_2 C15_5 1_555 1_555
O83_3 C16_5 1_555 1_555
O86_3 C16_5 1_555 1_555
O19_5 Sc19 1_555 1_555
O21_5 Sc28 1_555 1_555
C1_5 O3_5 1_555 1_555
C2_5 C3_5 1_555 1_555
C3_5 C4_5 1_555 1_555
C4_5 H1_5 1_555 1_555
C5_5 C1_5 1_555 1_555
C6_5 C5_5 1_555 1_555
H2_5 C6_5 1_555 1_555
C7_5 C6_5 1_555 1_555
C8_5 C3_5 1_555 1_555
H3_5 C8_5 1_555 1_555
C9_5 C10_5 1_555 1_555
C10_5 H4_5 1_555 1_555
C11_5 C10_5 1_555 1_555
C12_5 C11_5 1_555 1_555
H5_5 C12_5 1_555 1_555
C13_5 C12_5 1_555 1_555
C14_5 C9_5 1_555 1_555
H6_5 C14_5 1_555 1_555
C15_5 C11_5 1_555 1_555
C16_5 C13_5 1_555 1_555
C33_5 C9_5 1_555 1_555
O23_5 C33_5 1_555 1_555
N1_5 C7_5 1_555 1_555
O4_5 C1_5 1_555 1_555
C4_5 C5_5 1_555 1_555
C7_5 C8_5 1_555 1_555
C13_5 C14_5 1_555 1_555
C33_5 N1_5 1_555 1_555
O19_5 H37_5 1_555 1_555
O21_5 H39_5 1_555 1_555
O21_5 H40_5 1_555 1_555
N1_5 H49_5 1_555 1_555
Sc32_2 O2_7 1_555 1_555
O2_7 Sc34_2 1_555 1_555
O11_5 C17_5 1_555 1_555
O12_5 C17_5 1_555 1_555
O89 C18_5 1_555 1_555
O92 C18_5 1_555 1_555
O15_5 Sc13_3 1_555 1_555
O17_5 C32_5 1_555 1_555
O18_5 Sc32_2 1_555 1_555
O20_5 Sc13_3 1_555 1_555
O22_5 Sc32_2 1_555 1_555
C17_5 C21_5 1_555 1_555
C18_5 C19_5 1_555 1_555
C19_5 C20_5 1_555 1_555
C20_5 H7_5 1_555 1_555
C21_5 C20_5 1_555 1_555
C22_5 C21_5 1_555 1_555
H8_5 C22_5 1_555 1_555
C23_5 C22_5 1_555 1_555
C24_5 C19_5 1_555 1_555
H9_5 C24_5 1_555 1_555
C25_5 C26_5 1_555 1_555
C26_5 H10_5 1_555 1_555
C27_5 C26_5 1_555 1_555
C28_5 C27_5 1_555 1_555
H11_5 C28_5 1_555 1_555
C29_5 C28_5 1_555 1_555
C30_5 C25_5 1_555 1_555
H12_5 C30_5 1_555 1_555
C31_5 O15_5 1_555 1_555
C32_5 O18_5 1_555 1_555
N2_5 C23_5 1_555 1_555
C34_5 C25_5 1_555 1_555
O24_5 C34_5 1_555 1_555
Sc14_3 O25_5 1_555 1_555
Sc20 O25_5 1_555 1_555
Sc29 O25_5 1_555 1_555
Sc34_2 O17_5 1_555 1_555
O26_5 Sc14_3 1_555 1_555
O27_5 Sc20 1_555 1_555
O72_3 C36_5 1_555 1_555
O75_3 C36_5 1_555 1_555
O78_2 C49_5 1_555 1_555
O81_2 C49_5 1_555 1_555
O84_3 C50_5 1_555 1_555
O87_3 C50_5 1_555 1_555
O34_5 Sc13_3 1_555 1_555
O90 C52_5 1_555 1_555
O93 C52_5 1_555 1_555
O38_5 Sc14_3 1_555 1_555
O39_5 Sc20 1_555 1_555
O40_5 C66_5 1_555 1_555
O41_5 Sc34_2 1_555 1_555
O42_5 Sc20 1_555 1_555
O43_5 Sc14_3 1_555 1_555
O44_5 Sc29 1_555 1_555
O45_5 Sc34_2 1_555 1_555
C35_5 O26_5 1_555 1_555
C36_5 C37_5 1_555 1_555
C37_5 C38_5 1_555 1_555
C38_5 H13_5 1_555 1_555
C39_5 C35_5 1_555 1_555
C40_5 C39_5 1_555 1_555
H14_5 C40_5 1_555 1_555
C41_5 C40_5 1_555 1_555
C42_5 C37_5 1_555 1_555
H15_5 C42_5 1_555 1_555
C43_5 C44_5 1_555 1_555
C44_5 H16_5 1_555 1_555
C45_5 C44_5 1_555 1_555
C46_5 C45_5 1_555 1_555
H17_5 C46_5 1_555 1_555
C47_5 C46_5 1_555 1_555
C48_5 C43_5 1_555 1_555
H18_5 C48_5 1_555 1_555
C49_5 C45_5 1_555 1_555
C50_5 C47_5 1_555 1_555
C51_5 O34_5 1_555 1_555
C52_5 C53_5 1_555 1_555
C53_5 C54_5 1_555 1_555
C54_5 H19_5 1_555 1_555
C55_5 C51_5 1_555 1_555
C56_5 C55_5 1_555 1_555
H20_5 C56_5 1_555 1_555
C57_5 C56_5 1_555 1_555
C58_5 C53_5 1_555 1_555
H21_5 C58_5 1_555 1_555
C59_5 C60_5 1_555 1_555
C60_5 H22_5 1_555 1_555
C61_5 C60_5 1_555 1_555
C62_5 C61_5 1_555 1_555
H23_5 C62_5 1_555 1_555
C63_5 C62_5 1_555 1_555
C64_5 C59_5 1_555 1_555
H24_5 C64_5 1_555 1_555
C65_5 O38_5 1_555 1_555
C66_5 O41_5 1_555 1_555
C67_5 C43_5 1_555 1_555
O46_5 C67_5 1_555 1_555
N3_5 C41_5 1_555 1_555
N4_5 C57_5 1_555 1_555
C68_5 C59_5 1_555 1_555
O47_5 C68_5 1_555 1_555
Sc15_3 O11_5 1_555 1_555
Sc36_2 O2_7 1_555 1_555
O57_5 Sc14_3 1_555 1_555
O58_5 Sc29 1_555 1_555
O91 C86_5 1_555 1_555
O94 C86_5 1_555 1_555
O61_5 Sc15_3 1_555 1_555
O63_5 Sc32_2 1_555 1_555
O64_5 Sc36_2 1_555 1_555
O66_5 Sc15_3 1_555 1_555
O68_5 Sc36_2 1_555 1_555
C85_5 O57_5 1_555 1_555
C86_5 C87_5 1_555 1_555
C87_5 C88_5 1_555 1_555
C88_5 H31_5 1_555 1_555
C89_5 C85_5 1_555 1_555
C90_5 C89_5 1_555 1_555
H32_5 C90_5 1_555 1_555
C91_5 C90_5 1_555 1_555
C92_5 C87_5 1_555 1_555
H33_5 C92_5 1_555 1_555
C93_5 C94_5 1_555 1_555
C94_5 H34_5 1_555 1_555
C95_5 C94_5 1_555 1_555
C96_5 C95_5 1_555 1_555
H35_5 C96_5 1_555 1_555
C97_5 C96_5 1_555 1_555
C98_5 C93_5 1_555 1_555
H36_5 C98_5 1_555 1_555
C99_5 O61_5 1_555 1_555
C100_5 O63_5 1_555 1_555
N6_5 C91_5 1_555 1_555
C102_5 C93_5 1_555 1_555
O70_5 C102_5 1_555 1_555
O16_5 C31_5 1_555 1_555
C23_5 C24_5 1_555 1_555
C27_5 C31_5 1_555 1_555
C29_5 C30_5 1_555 1_555
C29_5 C32_5 1_555 1_555
N2_5 C34_5 1_555 1_555
O27_5 C35_5 1_555 1_555
O35_5 C51_5 1_555 1_555
O39_5 C65_5 1_555 1_555
O40_5 Sc36_2 1_555 1_555
C38_5 C39_5 1_555 1_555
C41_5 C42_5 1_555 1_555
C47_5 C48_5 1_555 1_555
C54_5 C55_5 1_555 1_555
C57_5 C58_5 1_555 1_555
C61_5 C65_5 1_555 1_555
C63_5 C64_5 1_555 1_555
C63_5 C66_5 1_555 1_555
C67_5 N3_5 1_555 1_555
N4_5 C68_5 1_555 1_555
O58_5 C85_5 1_555 1_555
O62_5 C99_5 1_555 1_555
O64_5 C100_5 1_555 1_555
C88_5 C89_5 1_555 1_555
C91_5 C92_5 1_555 1_555
C95_5 C99_5 1_555 1_555
C97_5 C98_5 1_555 1_555
C97_5 C100_5 1_555 1_555
N6_5 C102_5 1_555 1_555
O42_5 H45_5 1_555 1_555
O42_5 H46_5 1_555 1_555
N2_5 H50_5 1_555 1_555
O44_5 H51_5 1_555 1_555
O44_5 H52_5 1_555 1_555
N3_5 H55_5 1_555 1_555
N4_5 H56_5 1_555 1_555
N6_5 H65_5 1_555 1_555
Sc21 O48_5 1_555 1_555
O50_5 Sc21 1_555 1_555
O73_3 C70_5 1_555 1_555
O76_3 C70_5 1_555 1_555
O79_2 C83_5 1_555 1_555
O82_2 C83_5 1_555 1_555
O85_3 C84_5 1_555 1_555
O88_3 C84_5 1_555 1_555
O65_5 Sc21 1_555 1_555
O67_5 Sc30 1_555 1_555
C69_5 O49_5 1_555 1_555
C70_5 C71_5 1_555 1_555
C71_5 C72_5 1_555 1_555
C72_5 H25_5 1_555 1_555
C73_5 C69_5 1_555 1_555
C74_5 C73_5 1_555 1_555
H26_5 C74_5 1_555 1_555
C75_5 C74_5 1_555 1_555
C76_5 C71_5 1_555 1_555
H27_5 C76_5 1_555 1_555
C77_5 C78_5 1_555 1_555
C78_5 H28_5 1_555 1_555
C79_5 C78_5 1_555 1_555
C80_5 C79_5 1_555 1_555
H29_5 C80_5 1_555 1_555
C81_5 C80_5 1_555 1_555
C82_5 C77_5 1_555 1_555
H30_5 C82_5 1_555 1_555
C83_5 C79_5 1_555 1_555
C84_5 C81_5 1_555 1_555
C101_5 C77_5 1_555 1_555
O69_5 C101_5 1_555 1_555
N5_5 C75_5 1_555 1_555
Sc30 O48_5 1_555 1_555
O50_5 C69_5 1_555 1_555
C72_5 C73_5 1_555 1_555
C75_5 C76_5 1_555 1_555
C81_5 C82_5 1_555 1_555
C101_5 N5_5 1_555 1_555
O65_5 H59_5 1_555 1_555
O67_5 H63_5 1_555 1_555
O67_5 H64_5 1_555 1_555
N5_5 H66_5 1_555 1_555
Sc13_2 O1_6 1_555 1_555
Sc16_2 O1_6 1_555 1_555
Sc23_2 O1_6 1_555 1_555
O3_6 Sc13_2 1_555 1_555
O4_6 Sc16_2 1_555 1_555
O71_2 C2_6 1_555 1_555
O74_2 C2_6 1_555 1_555
O77 C15_6 1_555 1_555
O80 C15_6 1_555 1_555
O83_2 C16_6 1_555 1_555
O86_2 C16_6 1_555 1_555
O15_6 Sc13_2 1_555 1_555
O16_6 Sc16_2 1_555 1_555
O17_6 C32_6 1_555 1_555
O19_6 Sc16_2 1_555 1_555
O20_6 Sc13_2 1_555 1_555
O21_6 Sc23_2 1_555 1_555
C1_6 O3_6 1_555 1_555
C2_6 C3_6 1_555 1_555
C3_6 C4_6 1_555 1_555
C4_6 H1_6 1_555 1_555
C5_6 C1_6 1_555 1_555
C6_6 C5_6 1_555 1_555
H2_6 C6_6 1_555 1_555
C7_6 C6_6 1_555 1_555
C8_6 C3_6 1_555 1_555
H3_6 C8_6 1_555 1_555
C9_6 C10_6 1_555 1_555
C10_6 H4_6 1_555 1_555
C11_6 C10_6 1_555 1_555
C12_6 C11_6 1_555 1_555
H5_6 C12_6 1_555 1_555
C13_6 C12_6 1_555 1_555
C14_6 C9_6 1_555 1_555
H6_6 C14_6 1_555 1_555
C15_6 C11_6 1_555 1_555
C16_6 C13_6 1_555 1_555
C28_6 C27_6 1_555 1_555
H11_6 C28_6 1_555 1_555
C29_6 C28_6 1_555 1_555
C31_6 O15_6 1_555 1_555
C33_6 C9_6 1_555 1_555
O23_6 C33_6 1_555 1_555
N1_6 C7_6 1_555 1_555
Sc34 O17_6 1_555 1_555
O34_6 Sc13_2 1_555 1_555
O35_6 Sc23_2 1_555 1_555
O90_3 C52_6 1_555 1_555
O93_3 C52_6 1_555 1_555
O41_6 Sc34 1_555 1_555
O45_6 Sc34 1_555 1_555
C51_6 O34_6 1_555 1_555
C52_6 C53_6 1_555 1_555
C53_6 C54_6 1_555 1_555
C54_6 H19_6 1_555 1_555
C55_6 C51_6 1_555 1_555
C56_6 C55_6 1_555 1_555
H20_6 C56_6 1_555 1_555
C57_6 C56_6 1_555 1_555
C58_6 C53_6 1_555 1_555
H21_6 C58_6 1_555 1_555
C59_6 C60_6 1_555 1_555
C60_6 H22_6 1_555 1_555
C64_6 C59_6 1_555 1_555
H24_6 C64_6 1_555 1_555
N4_6 C57_6 1_555 1_555
C68_6 C59_6 1_555 1_555
O47_6 C68_6 1_555 1_555
O4_6 C1_6 1_555 1_555
O16_6 C31_6 1_555 1_555
C4_6 C5_6 1_555 1_555
C7_6 C8_6 1_555 1_555
C13_6 C14_6 1_555 1_555
C27_6 C31_6 1_555 1_555
C29_6 C32_6 1_555 1_555
C33_6 N1_6 1_555 1_555
O35_6 C51_6 1_555 1_555
C54_6 C55_6 1_555 1_555
C57_6 C58_6 1_555 1_555
N4_6 C68_6 1_555 1_555
O19_6 H37_6 1_555 1_555
O19_6 H38_6 1_555 1_555
O21_6 H39_6 1_555 1_555
O21_6 H40_6 1_555 1_555
N1_6 H49_6 1_555 1_555
N4_6 H56_6 1_555 1_555
O89_3 C18_6 1_555 1_555
O92_3 C18_6 1_555 1_555
O18_6 Sc32 1_555 1_555
O22_6 Sc32 1_555 1_555
C18_6 C19_6 1_555 1_555
C19_6 C20_6 1_555 1_555
C20_6 H7_6 1_555 1_555
C21_6 C20_6 1_555 1_555
C22_6 C21_6 1_555 1_555
H8_6 C22_6 1_555 1_555
C23_6 C22_6 1_555 1_555
C24_6 C19_6 1_555 1_555
H9_6 C24_6 1_555 1_555
C25_6 C26_6 1_555 1_555
C26_6 H10_6 1_555 1_555
C30_6 C25_6 1_555 1_555
H12_6 C30_6 1_555 1_555
N2_6 C23_6 1_555 1_555
C34_6 C25_6 1_555 1_555
O24_6 C34_6 1_555 1_555
C23_6 C24_6 1_555 1_555
N2_6 C34_6 1_555 1_555
N2_6 H50_6 1_555 1_555
Sc14_2 O25_6 1_555 1_555
Sc17_2 O25_6 1_555 1_555
Sc25_2 O25_6 1_555 1_555
O26_6 Sc14_2 1_555 1_555
O27_6 Sc17_2 1_555 1_555
O72_2 C36_6 1_555 1_555
O75_2 C36_6 1_555 1_555
O78 C49_6 1_555 1_555
O81 C49_6 1_555 1_555
O84_2 C50_6 1_555 1_555
O87_2 C50_6 1_555 1_555
O38_6 Sc14_2 1_555 1_555
O39_6 Sc17_2 1_555 1_555
O40_6 C66_6 1_555 1_555
O42_6 Sc17_2 1_555 1_555
O43_6 Sc14_2 1_555 1_555
O44_6 Sc25_2 1_555 1_555
C35_6 O26_6 1_555 1_555
C36_6 C37_6 1_555 1_555
C37_6 C38_6 1_555 1_555
C38_6 H13_6 1_555 1_555
C39_6 C35_6 1_555 1_555
C40_6 C39_6 1_555 1_555
H14_6 C40_6 1_555 1_555
C41_6 C40_6 1_555 1_555
C42_6 C37_6 1_555 1_555
H15_6 C42_6 1_555 1_555
C43_6 C44_6 1_555 1_555
C44_6 H16_6 1_555 1_555
C45_6 C44_6 1_555 1_555
C46_6 C45_6 1_555 1_555
H17_6 C46_6 1_555 1_555
C47_6 C46_6 1_555 1_555
C48_6 C43_6 1_555 1_555
H18_6 C48_6 1_555 1_555
C49_6 C45_6 1_555 1_555
C50_6 C47_6 1_555 1_555
C62_6 C61_6 1_555 1_555
H23_6 C62_6 1_555 1_555
C63_6 C62_6 1_555 1_555
C65_6 O38_6 1_555 1_555
C67_6 C43_6 1_555 1_555
O46_6 C67_6 1_555 1_555
N3_6 C41_6 1_555 1_555
O57_6 Sc14_2 1_555 1_555
O58_6 Sc25_2 1_555 1_555
C85_6 O57_6 1_555 1_555
O27_6 C35_6 1_555 1_555
O39_6 C65_6 1_555 1_555
C38_6 C39_6 1_555 1_555
C41_6 C42_6 1_555 1_555
C47_6 C48_6 1_555 1_555
C61_6 C65_6 1_555 1_555
C63_6 C66_6 1_555 1_555
C67_6 N3_6 1_555 1_555
O58_6 C85_6 1_555 1_555
O42_6 H45_6 1_555 1_555
O42_6 H46_6 1_555 1_555
O44_6 H51_6 1_555 1_555
O44_6 H52_6 1_555 1_555
N3_6 H55_6 1_555 1_555
O11_6 C17_6 1_555 1_555
O12_6 C17_6 1_555 1_555
Sc15_2 O11_6 1_555 1_555
Sc18_2 O48_6 1_555 1_555
Sc27_2 O12_6 1_555 1_555
O48_6 Sc15_2 1_555 1_555
O49_6 Sc15_2 1_555 1_555
O50_6 Sc18_2 1_555 1_555
O73_2 C70_6 1_555 1_555
O76_2 C70_6 1_555 1_555
O79 C83_6 1_555 1_555
O82 C83_6 1_555 1_555
O85_2 C84_6 1_555 1_555
O88_2 C84_6 1_555 1_555
O91_3 C86_6 1_555 1_555
O94_3 C86_6 1_555 1_555
O61_6 Sc15_2 1_555 1_555
O62_6 Sc18_2 1_555 1_555
O64_6 Sc36 1_555 1_555
O65_6 Sc18_2 1_555 1_555
O66_6 Sc15_2 1_555 1_555
O67_6 Sc27_2 1_555 1_555
O68_6 Sc36 1_555 1_555
C69_6 O49_6 1_555 1_555
C70_6 C71_6 1_555 1_555
C71_6 C72_6 1_555 1_555
C72_6 H25_6 1_555 1_555
C73_6 C69_6 1_555 1_555
C74_6 C73_6 1_555 1_555
H26_6 C74_6 1_555 1_555
C75_6 C74_6 1_555 1_555
C76_6 C71_6 1_555 1_555
H27_6 C76_6 1_555 1_555
C77_6 C78_6 1_555 1_555
C78_6 H28_6 1_555 1_555
C79_6 C78_6 1_555 1_555
C80_6 C79_6 1_555 1_555
H29_6 C80_6 1_555 1_555
C81_6 C80_6 1_555 1_555
C82_6 C77_6 1_555 1_555
H30_6 C82_6 1_555 1_555
C83_6 C79_6 1_555 1_555
C84_6 C81_6 1_555 1_555
C86_6 C87_6 1_555 1_555
C87_6 C88_6 1_555 1_555
C88_6 H31_6 1_555 1_555
C90_6 C89_6 1_555 1_555
H32_6 C90_6 1_555 1_555
C91_6 C90_6 1_555 1_555
C92_6 C87_6 1_555 1_555
H33_6 C92_6 1_555 1_555
C93_6 C94_6 1_555 1_555
C94_6 H34_6 1_555 1_555
C95_6 C94_6 1_555 1_555
C96_6 C95_6 1_555 1_555
H35_6 C96_6 1_555 1_555
C97_6 C96_6 1_555 1_555
C98_6 C93_6 1_555 1_555
H36_6 C98_6 1_555 1_555
C99_6 O61_6 1_555 1_555
C100_6 O63_6 1_555 1_555
C101_6 C77_6 1_555 1_555
O69_6 C101_6 1_555 1_555
N5_6 C75_6 1_555 1_555
N6_6 C91_6 1_555 1_555
C102_6 C93_6 1_555 1_555
O70_6 C102_6 1_555 1_555
Sc27_2 O48_6 1_555 1_555
O50_6 C69_6 1_555 1_555
O62_6 C99_6 1_555 1_555
O64_6 C100_6 1_555 1_555
C72_6 C73_6 1_555 1_555
C75_6 C76_6 1_555 1_555
C81_6 C82_6 1_555 1_555
C88_6 C89_6 1_555 1_555
C91_6 C92_6 1_555 1_555
C95_6 C99_6 1_555 1_555
C97_6 C98_6 1_555 1_555
C97_6 C100_6 1_555 1_555
C101_6 N5_6 1_555 1_555
N6_6 C102_6 1_555 1_555
O65_6 H59_6 1_555 1_555
O65_6 H60_6 1_555 1_555
O67_6 H63_6 1_555 1_555
O67_6 H64_6 1_555 1_555
N6_6 H65_6 1_555 1_555
N5_6 H66_6 1_555 1_555
O2_9 Sc36 1_555 1_555
Sc34 O2_10 1_555 1_555

#END
