
###############################################################################
#
# This file contains modified crystal structure data generated from the
# MOF subset of the Cambridge Structural Database (CSD) v543 
# hosted by the Cambridge Crystallographic Data Centre (CCDC).
#
# This work is licensed under the Creative Commons
# Attribution-NonCommercial-ShareAlike 4.0 International License.
# To view a copy of this license, visit
# http://creativecommons.org/licenses/by-nc-sa/4.0/
# or send a letter to
# Creative Commons, PO Box 1866, Mountain View, CA 94042, USA.
#
# CIF created using the CSD Python API on 29 September 2022
# The structure has been converted into the P1 space group
# The structure has a 3D framework
# The original CSD entry GODMUK is in the monoclinic crystal system
# The framework has been calculated to contain at least 10.0% void space
# The void calculation uses a probe of radius 1.32A, grid spacing 0.4
# The framework is charged, counterions have been retained in the structure
# H atom positions have been added when not included in the experimental data
#
###############################################################################

data_GODMUK
_chemical_formula_moiety         '(C196 H88 Cd4 N52 O20 S16 14-)n'
_symmetry_cell_setting           triclinic
_symmetry_space_group_name_H-M   'P 1'
_symmetry_Int_Tables_number      1
_space_group_name_Hall           'P 1'
loop_
_symmetry_equiv_pos_site_id
_symmetry_equiv_pos_as_xyz
1 x,y,z
_cell_length_a                   15.7117(19)
_cell_length_b                   19.697(2)
_cell_length_c                   15.8085(19)
_cell_angle_alpha                90
_cell_angle_beta                 105.896(3)
_cell_angle_gamma                90
_cell_volume                     4705.23
loop_
_atom_site_label
_atom_site_type_symbol
_atom_site_fract_x
_atom_site_fract_y
_atom_site_fract_z
N1 N 0.500000 0.5523(9) 0.000000
O2 O 0.500000 0.6165(8) 0.000000
O3 O 0.4610(7) 0.5236(5) 0.0467(7)
N1_2 N 0.500000 0.5523(9) 1.000000
O1 O 0.5390(7) 0.5236(5) 0.9533(7)
O2_2 O 0.500000 0.6165(8) 1.000000
N1_3 N 0.000000 0.0523(9) 0.000000
O2_3 O 0.000000 0.1165(8) 0.000000
N1_4 N 0.000000 0.0523(9) 1.000000
O1_2 O 0.0390(7) 0.0236(5) 0.9533(7)
O2_4 O 0.000000 0.1165(8) 1.000000
N1_5 N 1.000000 0.0523(9) 0.000000
O2_5 O 1.000000 0.1165(8) 0.000000
O3_2 O 0.9610(7) 0.0236(5) 0.0467(7)
N1_6 N 1.000000 0.0523(9) 1.000000
O2_6 O 1.000000 0.1165(8) 1.000000
N1_7 N 0.500000 0.4477(9) 0.000000
O1_3 O 0.4610(7) 0.4764(5) 0.0467(7)
O2_7 O 0.500000 0.3835(8) 0.000000
N1_8 N 0.500000 0.4477(9) 1.000000
O2_8 O 0.500000 0.3835(8) 1.000000
O3_3 O 0.5390(7) 0.4764(5) 0.9533(7)
N1_9 N 0.000000 0.9477(9) 0.000000
O2_9 O 0.000000 0.8835(8) 0.000000
N1_10 N 0.000000 0.9477(9) 1.000000
O2_10 O 0.000000 0.8835(8) 1.000000
O3_4 O 0.0390(7) 0.9764(5) 0.9533(7)
N1_11 N 1.000000 0.9477(9) 0.000000
O1_4 O 0.9610(7) 0.9764(5) 0.0467(7)
O2_11 O 1.000000 0.8835(8) 0.000000
N1_12 N 1.000000 0.9477(9) 1.000000
O2_12 O 1.000000 0.8835(8) 1.000000
N5 N 0.0441(17) 0.7496(10) 0.548(2)
N2 N 0.563(2) 0.7556(11) 0.2196(16)
N3 N 0.4559(17) 0.7504(10) 0.452(2)
C1 C 0.5115(18) 0.7506(7) 0.417(2)
C2 C 0.5854(14) 0.7504(5) 0.3851(15)
C3 C 0.572(2) 0.7534(7) 0.2939(16)
C4 C 0.6774(14) 0.7473(7) 0.4449(17)
C5 C 0.7505(15) 0.7467(8) 0.4154(19)
H1 H 0.743572 0.742656 0.354036
C6 C 0.8342(15) 0.7438(11) 0.468(3)
N4 N 0.937(2) 0.7444(11) 0.7804(16)
C7 C 0.9885(18) 0.7494(7) 0.583(2)
C8 C 0.9146(14) 0.7496(5) 0.6149(15)
C9 C 0.928(2) 0.7466(7) 0.7061(16)
C10 C 0.8226(14) 0.7527(7) 0.5551(17)
C11 C 0.7495(15) 0.7533(8) 0.5846(19)
H2 H 0.756428 0.757344 0.645964
C12 C 0.6658(15) 0.7562(11) 0.532(3)
H39 H 0.604588 0.763455 0.550554
H40 H 0.895412 0.736545 0.449446
N2_2 N 0.437(2) 0.7556(11) 0.7804(16)
N3_2 N 0.5441(17) 0.7504(10) 0.548(2)
C1_2 C 0.4885(18) 0.7506(7) 0.583(2)
C2_2 C 0.4146(14) 0.7504(5) 0.6149(15)
C3_2 C 0.428(2) 0.7534(7) 0.7061(16)
C4_2 C 0.3226(14) 0.7473(7) 0.5551(17)
C5_2 C 0.2495(15) 0.7467(8) 0.5846(19)
H1_2 H 0.256428 0.742656 0.645964
C6_2 C 0.1658(15) 0.7438(11) 0.532(3)
N4_2 N 0.063(2) 0.7444(11) 0.2196(16)
C7_2 C 0.0115(18) 0.7494(7) 0.417(2)
C8_2 C 0.0854(14) 0.7496(5) 0.3851(15)
C9_2 C 0.072(2) 0.7466(7) 0.2939(16)
C10_2 C 0.1774(14) 0.7527(7) 0.4449(17)
C11_2 C 0.2505(15) 0.7533(8) 0.4154(19)
H2_2 H 0.243572 0.757344 0.354036
C12_2 C 0.3342(15) 0.7562(11) 0.468(3)
H39_2 H 0.395412 0.763455 0.449446
H40_2 H 0.104588 0.736545 0.550554
N5_2 N 0.9559(17) 0.7496(10) 0.452(2)
N2_3 N 0.063(2) 0.2556(11) 0.2196(16)
C1_3 C 0.0115(18) 0.2506(7) 0.417(2)
C2_3 C 0.0854(14) 0.2504(5) 0.3851(15)
C3_3 C 0.072(2) 0.2534(7) 0.2939(16)
C4_3 C 0.1774(14) 0.2473(7) 0.4449(17)
C5_3 C 0.2505(15) 0.2467(8) 0.4154(19)
H1_3 H 0.243572 0.242656 0.354036
C6_3 C 0.3342(15) 0.2438(11) 0.468(3)
N4_3 N 0.437(2) 0.2444(11) 0.7804(16)
N5_3 N 0.5441(17) 0.2496(10) 0.548(2)
C7_3 C 0.4885(18) 0.2494(7) 0.583(2)
C8_3 C 0.4146(14) 0.2496(5) 0.6149(15)
C9_3 C 0.428(2) 0.2466(7) 0.7061(16)
C10_3 C 0.3226(14) 0.2527(7) 0.5551(17)
C11_3 C 0.2495(15) 0.2533(8) 0.5846(19)
H2_3 H 0.256428 0.257344 0.645964
C12_3 C 0.1658(15) 0.2562(11) 0.532(3)
H39_3 H 0.104588 0.263455 0.550554
H40_3 H 0.395412 0.236545 0.449446
N3_3 N 0.9559(17) 0.2504(10) 0.452(2)
N3_4 N 0.0441(17) 0.2504(10) 0.548(2)
N2_4 N 0.937(2) 0.2556(11) 0.7804(16)
C1_4 C 0.9885(18) 0.2506(7) 0.583(2)
C2_4 C 0.9146(14) 0.2504(5) 0.6149(15)
C3_4 C 0.928(2) 0.2534(7) 0.7061(16)
C4_4 C 0.8226(14) 0.2473(7) 0.5551(17)
C5_4 C 0.7495(15) 0.2467(8) 0.5846(19)
H1_4 H 0.756428 0.242656 0.645964
C6_4 C 0.6658(15) 0.2438(11) 0.532(3)
N4_4 N 0.563(2) 0.2444(11) 0.2196(16)
N5_4 N 0.4559(17) 0.2496(10) 0.452(2)
C7_4 C 0.5115(18) 0.2494(7) 0.417(2)
C8_4 C 0.5854(14) 0.2496(5) 0.3851(15)
C9_4 C 0.572(2) 0.2466(7) 0.2939(16)
C10_4 C 0.6774(14) 0.2527(7) 0.4449(17)
C11_4 C 0.7505(15) 0.2533(8) 0.4154(19)
H2_4 H 0.743572 0.257344 0.354036
C12_4 C 0.8342(15) 0.2562(11) 0.468(3)
H39_4 H 0.895412 0.263455 0.449446
H40_4 H 0.604588 0.236545 0.550554
C28 C 0.000000 0.6467(5) 0.000000
C29 C 0.000000 0.5715(5) 0.000000
C46 C 0.000000 0.3533(5) 0.000000
C47 C 0.000000 0.4285(5) 0.000000
Cd2 Cd 0.250000 0.750000 0.000000
Cd6 Cd 0.250000 0.250000 0.000000
N19 N 0.2058(4) 0.8277(3) 0.0938(3)
N21 N 0.3928(4) 0.7863(3) 0.0632(5)
N23 N 0.2776(4) 0.6688(3) 0.1122(3)
C28_2 C 0.000000 0.6467(5) 1.000000
C29_2 C 0.000000 0.5715(5) 1.000000
C30 C 0.0410(5) 0.5342(4) 0.9471(5)
H11 H 0.069020 0.557166 0.910934
N11 N 0.1072(4) 0.7137(3) 0.9368(5)
C43 C 0.0576(4) 0.6833(3) 0.9656(5)
N12 N 0.1072(4) 0.2863(3) 0.9368(5)
C45 C 0.0576(4) 0.3167(3) 0.9656(5)
C46_2 C 0.000000 0.3533(5) 1.000000
C47_2 C 0.000000 0.4285(5) 1.000000
C50 C 0.0410(5) 0.4658(4) 0.9471(5)
H22 H 0.069020 0.442834 0.910934
Cd2_2 Cd 0.250000 0.750000 1.000000
N14 N 0.2942(4) 0.6723(3) 0.9062(3)
S5 S 0.40172(12) 0.57434(8) 0.64445(10)
S6 S 0.38586(13) 0.57468(8) 0.43501(10)
C51 C 0.3420(5) 0.5811(3) 0.7911(4)
C52 C 0.3988(6) 0.500000 0.5834(6)
C53 C 0.3903(6) 0.500000 0.4949(6)
C54 C 0.3478(4) 0.5346(3) 0.3321(4)
C55 C 0.3223(4) 0.5792(3) 0.2541(4)
C56 C 0.3703(8) 0.5806(6) 0.1923(8)
H23 H 0.417918 0.551368 0.197356
C57 C 0.3469(8) 0.6253(6) 0.1241(8)
H24 H 0.380124 0.626063 0.083635
C58 C 0.2305(11) 0.6652(7) 0.1710(10)
H25 H 0.180936 0.692894 0.162721
C59 C 0.2511(10) 0.6236(7) 0.2416(9)
H26 H 0.217732 0.624691 0.281913
C60 C 0.3903(9) 0.5859(6) 0.8808(8)
H27 H 0.440897 0.560144 0.903901
C61 C 0.3594(10) 0.6299(7) 0.9317(8)
H28 H 0.388276 0.629507 0.991532
C62 C 0.2394(10) 0.6636(7) 0.8218(9)
H29 H 0.186183 0.687229 0.804280
C63 C 0.2636(9) 0.6196(7) 0.7629(9)
H30 H 0.228146 0.615731 0.705400
C64 C 0.3664(4) 0.5343(3) 0.7288(4)
N16 N 0.2942(4) 0.3277(3) 0.9062(3)
N17 N 0.2776(4) 0.3312(3) 0.1122(3)
S7 S 0.40172(12) 0.42566(8) 0.64445(10)
S8 S 0.38586(13) 0.42532(8) 0.43501(10)
C65 C 0.3420(5) 0.4189(3) 0.7911(4)
C66 C 0.3478(4) 0.4654(3) 0.3321(4)
C67 C 0.3223(4) 0.4208(3) 0.2541(4)
C68 C 0.3703(8) 0.4194(6) 0.1923(8)
H31 H 0.417918 0.448632 0.197356
C69 C 0.3469(8) 0.3747(6) 0.1241(8)
H32 H 0.380124 0.373937 0.083635
C70 C 0.2305(11) 0.3348(7) 0.1710(10)
H33 H 0.180936 0.307106 0.162721
C71 C 0.2511(10) 0.3764(7) 0.2416(9)
H34 H 0.217732 0.375309 0.281913
C72 C 0.3903(9) 0.4141(6) 0.8808(8)
H35 H 0.440897 0.439856 0.903901
C73 C 0.3594(10) 0.3701(7) 0.9317(8)
H36 H 0.388276 0.370493 0.991532
C74 C 0.2394(10) 0.3364(7) 0.8218(9)
H37 H 0.186183 0.312771 0.804280
C75 C 0.2636(9) 0.3804(7) 0.7629(9)
H38 H 0.228146 0.384269 0.705400
C76 C 0.3664(4) 0.4657(3) 0.7288(4)
Cd6_2 Cd 0.250000 0.250000 1.000000
N25 N 0.2224(4) 0.8312(3) 0.8878(3)
Cd3 Cd 0.750000 0.750000 0.000000
Cd8 Cd 0.750000 0.250000 0.000000
N6 N 0.7058(4) 0.6723(3) 0.0938(3)
N7 N 0.8928(4) 0.7137(3) 0.0632(5)
N8 N 0.7224(4) 0.6688(3) 0.8878(3)
S1 S 0.59828(12) 0.57434(8) 0.35555(10)
S2 S 0.61414(13) 0.57468(8) 0.56499(10)
C13 C 0.6580(5) 0.5811(3) 0.2089(4)
C14 C 0.6012(6) 0.500000 0.4166(6)
C15 C 0.6097(6) 0.500000 0.5051(6)
C16 C 0.6522(4) 0.5346(3) 0.6679(4)
C17 C 0.6777(4) 0.5792(3) 0.7459(4)
C18 C 0.6297(8) 0.5806(6) 0.8077(8)
H3 H 0.582082 0.551368 0.802644
C19 C 0.6531(8) 0.6253(6) 0.8759(8)
H4 H 0.619876 0.626063 0.916365
C20 C 0.7695(11) 0.6652(7) 0.8290(10)
H5 H 0.819064 0.692894 0.837279
C21 C 0.7489(10) 0.6236(7) 0.7584(9)
H6 H 0.782268 0.624691 0.718087
C22 C 0.6097(9) 0.5859(6) 0.1192(8)
H7 H 0.559103 0.560144 0.096099
C23 C 0.6406(10) 0.6299(7) 0.0683(8)
H8 H 0.611724 0.629507 0.008468
C24 C 0.7606(10) 0.6636(7) 0.1782(9)
H9 H 0.813817 0.687229 0.195720
C25 C 0.7364(9) 0.6196(7) 0.2371(9)
H10 H 0.771854 0.615731 0.294600
C26 C 0.6336(4) 0.5343(3) 0.2712(4)
C27 C 0.9424(4) 0.6833(3) 0.0344(5)
C28_3 C 1.000000 0.6467(5) 0.000000
C29_3 C 1.000000 0.5715(5) 0.000000
N9 N 0.7058(4) 0.3277(3) 0.0938(3)
N10 N 0.7224(4) 0.3312(3) 0.8878(3)
S3 S 0.59828(12) 0.42566(8) 0.35555(10)
S4 S 0.61414(13) 0.42532(8) 0.56499(10)
C31 C 0.6580(5) 0.4189(3) 0.2089(4)
C32 C 0.6522(4) 0.4654(3) 0.6679(4)
C33 C 0.6777(4) 0.4208(3) 0.7459(4)
C34 C 0.6297(8) 0.4194(6) 0.8077(8)
H12 H 0.582082 0.448632 0.802644
C35 C 0.6531(8) 0.3747(6) 0.8759(8)
H13 H 0.619876 0.373937 0.916365
C36 C 0.7695(11) 0.3348(7) 0.8290(10)
H14 H 0.819064 0.307106 0.837279
C37 C 0.7489(10) 0.3764(7) 0.7584(9)
H15 H 0.782268 0.375309 0.718087
C38 C 0.6097(9) 0.4141(6) 0.1192(8)
H16 H 0.559103 0.439856 0.096099
C39 C 0.6406(10) 0.3701(7) 0.0683(8)
H17 H 0.611724 0.370493 0.008468
C40 C 0.7606(10) 0.3364(7) 0.1782(9)
H18 H 0.813817 0.312771 0.195720
C41 C 0.7364(9) 0.3804(7) 0.2371(9)
H19 H 0.771854 0.384269 0.294600
C42 C 0.6336(4) 0.4657(3) 0.2712(4)
C44 C 0.9590(5) 0.5342(4) 0.0529(5)
H20 H 0.930980 0.557166 0.089066
C46_3 C 1.000000 0.3533(5) 0.000000
C47_3 C 1.000000 0.4285(5) 0.000000
C48 C 0.9590(5) 0.4658(4) 0.0529(5)
H21 H 0.930980 0.442834 0.089066
N13 N 0.8928(4) 0.2863(3) 0.0632(5)
C49 C 0.9424(4) 0.3167(3) 0.0344(5)
Cd3_2 Cd 0.750000 0.750000 1.000000
Cd8_2 Cd 0.750000 0.250000 1.000000
N24 N 0.7776(4) 0.8312(3) 0.1122(3)
C28_4 C 1.000000 0.6467(5) 1.000000
C29_4 C 1.000000 0.5715(5) 1.000000
C46_4 C 1.000000 0.3533(5) 1.000000
C47_4 C 1.000000 0.4285(5) 1.000000
N18 N 0.7942(4) 0.8277(3) 0.9062(3)
N20 N 0.6072(4) 0.7863(3) 0.9368(5)
N6_2 N 0.2058(4) 0.1723(3) 0.0938(3)
N7_2 N 0.3928(4) 0.2137(3) 0.0632(5)
N8_2 N 0.2224(4) 0.1688(3) 0.8878(3)
S1_2 S 0.09828(12) 0.07434(8) 0.35555(10)
S2_2 S 0.11414(13) 0.07468(8) 0.56499(10)
C13_2 C 0.1580(5) 0.0811(3) 0.2089(4)
C14_2 C 0.1012(6) 0.000000 0.4166(6)
C15_2 C 0.1097(6) -0.000000 0.5051(6)
C16_2 C 0.1522(4) 0.0346(3) 0.6679(4)
C17_2 C 0.1777(4) 0.0792(3) 0.7459(4)
C18_2 C 0.1297(8) 0.0806(6) 0.8077(8)
H3_2 H 0.082082 0.051368 0.802644
C19_2 C 0.1531(8) 0.1253(6) 0.8759(8)
H4_2 H 0.119876 0.126063 0.916365
C20_2 C 0.2695(11) 0.1652(7) 0.8290(10)
H5_2 H 0.319064 0.192894 0.837279
C21_2 C 0.2489(10) 0.1236(7) 0.7584(9)
H6_2 H 0.282268 0.124691 0.718087
C22_2 C 0.1097(9) 0.0859(6) 0.1192(8)
H7_2 H 0.059103 0.060144 0.096099
C23_2 C 0.1406(10) 0.1299(7) 0.0683(8)
H8_2 H 0.111724 0.129507 0.008468
C24_2 C 0.2606(10) 0.1636(7) 0.1782(9)
H9_2 H 0.313817 0.187229 0.195720
C25_2 C 0.2364(9) 0.1196(7) 0.2371(9)
H10_2 H 0.271854 0.115731 0.294600
C26_2 C 0.1336(4) 0.0343(3) 0.2712(4)
C27_2 C 0.4424(4) 0.1833(3) 0.0344(5)
C28_5 C 0.500000 0.1467(5) 0.000000
C29_5 C 0.500000 0.0715(5) 0.000000
C44_2 C 0.4590(5) 0.0342(4) 0.0529(5)
H20_2 H 0.430980 0.057166 0.089066
N23_2 N 0.7776(4) 0.1688(3) 0.1122(3)
C28_6 C 0.500000 0.1467(5) 1.000000
C29_6 C 0.500000 0.0715(5) 1.000000
C30_2 C 0.5410(5) 0.0342(4) 0.9471(5)
H11_2 H 0.569020 0.057166 0.910934
N11_2 N 0.6072(4) 0.2137(3) 0.9368(5)
C43_2 C 0.5576(4) 0.1833(3) 0.9656(5)
N14_2 N 0.7942(4) 0.1723(3) 0.9062(3)
S5_2 S 0.90172(12) 0.07434(8) 0.64445(10)
S6_2 S 0.88586(13) 0.07468(8) 0.43501(10)
C51_2 C 0.8420(5) 0.0811(3) 0.7911(4)
C52_2 C 0.8988(6) -0.000000 0.5834(6)
C53_2 C 0.8903(6) 0.000000 0.4949(6)
C54_2 C 0.8478(4) 0.0346(3) 0.3321(4)
C55_2 C 0.8223(4) 0.0792(3) 0.2541(4)
C56_2 C 0.8703(8) 0.0806(6) 0.1923(8)
H23_2 H 0.917918 0.051368 0.197356
C57_2 C 0.8469(8) 0.1253(6) 0.1241(8)
H24_2 H 0.880124 0.126063 0.083635
C58_2 C 0.7305(11) 0.1652(7) 0.1710(10)
H25_2 H 0.680936 0.192894 0.162721
C59_2 C 0.7511(10) 0.1236(7) 0.2416(9)
H26_2 H 0.717732 0.124691 0.281913
C60_2 C 0.8903(9) 0.0859(6) 0.8808(8)
H27_2 H 0.940897 0.060144 0.903901
C61_2 C 0.8594(10) 0.1299(7) 0.9317(8)
H28_2 H 0.888276 0.129507 0.991532
C62_2 C 0.7394(10) 0.1636(7) 0.8218(9)
H29_2 H 0.686183 0.187229 0.804280
C63_2 C 0.7636(9) 0.1196(7) 0.7629(9)
H30_2 H 0.728146 0.115731 0.705400
C64_2 C 0.8664(4) 0.0343(3) 0.7288(4)
C14_3 C 0.1012(6) 1.000000 0.4166(6)
C15_3 C 0.1097(6) 1.000000 0.5051(6)
S3_2 S 0.09828(12) 0.92566(8) 0.35555(10)
S4_2 S 0.11414(13) 0.92532(8) 0.56499(10)
C31_2 C 0.1580(5) 0.9189(3) 0.2089(4)
C32_2 C 0.1522(4) 0.9654(3) 0.6679(4)
C33_2 C 0.1777(4) 0.9208(3) 0.7459(4)
C34_2 C 0.1297(8) 0.9194(6) 0.8077(8)
H12_2 H 0.082082 0.948632 0.802644
C35_2 C 0.1531(8) 0.8747(6) 0.8759(8)
H13_2 H 0.119876 0.873937 0.916365
C36_2 C 0.2695(11) 0.8348(7) 0.8290(10)
H14_2 H 0.319064 0.807106 0.837279
C37_2 C 0.2489(10) 0.8764(7) 0.7584(9)
H15_2 H 0.282268 0.875309 0.718087
C38_2 C 0.1097(9) 0.9141(6) 0.1192(8)
H16_2 H 0.059103 0.939856 0.096099
C39_2 C 0.1406(10) 0.8701(7) 0.0683(8)
H17_2 H 0.111724 0.870493 0.008468
C40_2 C 0.2606(10) 0.8364(7) 0.1782(9)
H18_2 H 0.313817 0.812771 0.195720
C41_2 C 0.2364(9) 0.8804(7) 0.2371(9)
H19_2 H 0.271854 0.884269 0.294600
C42_2 C 0.1336(4) 0.9657(3) 0.2712(4)
C46_5 C 0.500000 0.8533(5) 0.000000
C47_5 C 0.500000 0.9285(5) 0.000000
C48_2 C 0.4590(5) 0.9658(4) 0.0529(5)
H21_2 H 0.430980 0.942834 0.089066
C49_2 C 0.4424(4) 0.8167(3) 0.0344(5)
C45_2 C 0.5576(4) 0.8167(3) 0.9656(5)
C46_6 C 0.500000 0.8533(5) 1.000000
C47_6 C 0.500000 0.9285(5) 1.000000
C50_2 C 0.5410(5) 0.9658(4) 0.9471(5)
H22_2 H 0.569020 0.942834 0.910934
C52_3 C 0.8988(6) 1.000000 0.5834(6)
C53_3 C 0.8903(6) 1.000000 0.4949(6)
S7_2 S 0.90172(12) 0.92566(8) 0.64445(10)
S8_2 S 0.88586(13) 0.92532(8) 0.43501(10)
C65_2 C 0.8420(5) 0.9189(3) 0.7911(4)
C66_2 C 0.8478(4) 0.9654(3) 0.3321(4)
C67_2 C 0.8223(4) 0.9208(3) 0.2541(4)
C68_2 C 0.8703(8) 0.9194(6) 0.1923(8)
H31_2 H 0.917918 0.948632 0.197356
C69_2 C 0.8469(8) 0.8747(6) 0.1241(8)
H32_2 H 0.880124 0.873937 0.083635
C70_2 C 0.7305(11) 0.8348(7) 0.1710(10)
H33_2 H 0.680936 0.807106 0.162721
C71_2 C 0.7511(10) 0.8764(7) 0.2416(9)
H34_2 H 0.717732 0.875309 0.281913
C72_2 C 0.8903(9) 0.9141(6) 0.8808(8)
H35_2 H 0.940897 0.939856 0.903901
C73_2 C 0.8594(10) 0.8701(7) 0.9317(8)
H36_2 H 0.888276 0.870493 0.991532
C74_2 C 0.7394(10) 0.8364(7) 0.8218(9)
H37_2 H 0.686183 0.812771 0.804280
C75_2 C 0.7636(9) 0.8804(7) 0.7629(9)
H38_2 H 0.728146 0.884269 0.705400
C76_2 C 0.8664(4) 0.9657(3) 0.7288(4)
loop_
_geom_bond_atom_site_label_1
_geom_bond_atom_site_label_2
_geom_bond_site_symmetry_1
_geom_bond_site_symmetry_2
O2 N1 1_555 1_555
O3 N1 1_555 1_555
N1_2 O1 1_555 1_555
O2_2 N1_2 1_555 1_555
O2_3 N1_3 1_555 1_555
N1_4 O1_2 1_555 1_555
O2_4 N1_4 1_555 1_555
O2_5 N1_5 1_555 1_555
O3_2 N1_5 1_555 1_555
O2_6 N1_6 1_555 1_555
N1_7 O1_3 1_555 1_555
O2_7 N1_7 1_555 1_555
O2_8 N1_8 1_555 1_555
O3_3 N1_8 1_555 1_555
O2_9 N1_9 1_555 1_555
O2_10 N1_10 1_555 1_555
O3_4 N1_10 1_555 1_555
N1_11 O1_4 1_555 1_555
O2_11 N1_11 1_555 1_555
O2_12 N1_12 1_555 1_555
N2 C3 1_555 1_555
N3 C1 1_555 1_555
C1 C2 1_555 1_555
C2 C3 1_555 1_555
C4 C2 1_555 1_555
C5 C4 1_555 1_555
H1 C5 1_555 1_555
C6 C5 1_555 1_555
N4 C9 1_555 1_555
C7 C8 1_555 1_555
C8 C9 1_555 1_555
C10 C6 1_555 1_555
C11 C10 1_555 1_555
H2 C11 1_555 1_555
C12 C4 1_555 1_555
C8 C10 1_555 1_555
C11 C12 1_555 1_555
C12 H39 1_555 1_555
C6 H40 1_555 1_555
N2_2 C3_2 1_555 1_555
N3_2 C1_2 1_555 1_555
C1_2 C2_2 1_555 1_555
C2_2 C3_2 1_555 1_555
C4_2 C2_2 1_555 1_555
C5_2 C4_2 1_555 1_555
H1_2 C5_2 1_555 1_555
C6_2 C5_2 1_555 1_555
N4_2 C9_2 1_555 1_555
C7_2 C8_2 1_555 1_555
C8_2 C9_2 1_555 1_555
C10_2 C6_2 1_555 1_555
C11_2 C10_2 1_555 1_555
H2_2 C11_2 1_555 1_555
C12_2 C4_2 1_555 1_555
C8_2 C10_2 1_555 1_555
C11_2 C12_2 1_555 1_555
C12_2 H39_2 1_555 1_555
C6_2 H40_2 1_555 1_555
N2_3 C3_3 1_555 1_555
C1_3 C2_3 1_555 1_555
C2_3 C3_3 1_555 1_555
C4_3 C2_3 1_555 1_555
C5_3 C4_3 1_555 1_555
H1_3 C5_3 1_555 1_555
C6_3 C5_3 1_555 1_555
N4_3 C9_3 1_555 1_555
N5_3 C7_3 1_555 1_555
C7_3 C8_3 1_555 1_555
C8_3 C9_3 1_555 1_555
C10_3 C6_3 1_555 1_555
C11_3 C10_3 1_555 1_555
H2_3 C11_3 1_555 1_555
C12_3 C4_3 1_555 1_555
C8_3 C10_3 1_555 1_555
C11_3 C12_3 1_555 1_555
C12_3 H39_3 1_555 1_555
C6_3 H40_3 1_555 1_555
N2_4 C3_4 1_555 1_555
C1_4 C2_4 1_555 1_555
C2_4 C3_4 1_555 1_555
C4_4 C2_4 1_555 1_555
C5_4 C4_4 1_555 1_555
H1_4 C5_4 1_555 1_555
C6_4 C5_4 1_555 1_555
N4_4 C9_4 1_555 1_555
N5_4 C7_4 1_555 1_555
C7_4 C8_4 1_555 1_555
C8_4 C9_4 1_555 1_555
C10_4 C6_4 1_555 1_555
C11_4 C10_4 1_555 1_555
H2_4 C11_4 1_555 1_555
C12_4 C4_4 1_555 1_555
C8_4 C10_4 1_555 1_555
C11_4 C12_4 1_555 1_555
C12_4 H39_4 1_555 1_555
C6_4 H40_4 1_555 1_555
C29 C28 1_555 1_555
C46 C47 1_555 1_555
N19 Cd2 1_555 1_555
N21 Cd2 1_555 1_555
N23 Cd2 1_555 1_555
C29_2 C28_2 1_555 1_555
C30 C29_2 1_555 1_555
H11 C30 1_555 1_555
N11 C43 1_555 1_555
C43 C28_2 1_555 1_555
N12 C45 1_555 1_555
C45 C46_2 1_555 1_555
C46_2 C47_2 1_555 1_555
C50 C30 1_555 1_555
H22 C50 1_555 1_555
Cd2_2 N11 1_555 1_555
N14 Cd2_2 1_555 1_555
N23 C57 1_555 1_555
S5 C52 1_555 1_555
S6 C53 1_555 1_555
C51 C60 1_555 1_555
C52 C53 1_555 1_555
C53 S8 1_555 1_555
C54 S6 1_555 1_555
C55 C54 1_555 1_555
C56 C55 1_555 1_555
H23 C56 1_555 1_555
C57 C56 1_555 1_555
H24 C57 1_555 1_555
C58 N23 1_555 1_555
H25 C58 1_555 1_555
C59 C55 1_555 1_555
H26 C59 1_555 1_555
C60 H27 1_555 1_555
C61 N14 1_555 1_555
H28 C61 1_555 1_555
C62 N14 1_555 1_555
H29 C62 1_555 1_555
C63 C51 1_555 1_555
H30 C63 1_555 1_555
C64 S5 1_555 1_555
N16 C73 1_555 1_555
N17 C69 1_555 1_555
S7 C52 1_555 1_555
S8 C66 1_555 1_555
C65 C72 1_555 1_555
C66 C54 1_555 1_555
C67 C66 1_555 1_555
C68 C67 1_555 1_555
H31 C68 1_555 1_555
C69 C68 1_555 1_555
H32 C69 1_555 1_555
C70 N17 1_555 1_555
H33 C70 1_555 1_555
C71 C67 1_555 1_555
H34 C71 1_555 1_555
C72 H35 1_555 1_555
C73 C72 1_555 1_555
H36 C73 1_555 1_555
C74 N16 1_555 1_555
H37 C74 1_555 1_555
C75 C65 1_555 1_555
H38 C75 1_555 1_555
C76 C64 1_555 1_555
Cd6 N17 1_555 1_555
Cd6_2 N12 1_555 1_555
N25 Cd2_2 1_555 1_555
C47_2 C50 1_555 1_555
C51 C64 1_555 1_555
C58 C59 1_555 1_555
C60 C61 1_555 1_555
C62 C63 1_555 1_555
N16 Cd6_2 1_555 1_555
S7 C76 1_555 1_555
C65 C76 1_555 1_555
C70 C71 1_555 1_555
C74 C75 1_555 1_555
Cd3 N6 1_555 1_555
N6 C23 1_555 1_555
N7 Cd3 1_555 1_555
N8 C19 1_555 1_555
S1 C14 1_555 1_555
S2 C15 1_555 1_555
C13 C22 1_555 1_555
C14 C15 1_555 1_555
C15 S4 1_555 1_555
C16 S2 1_555 1_555
C17 C16 1_555 1_555
C18 C17 1_555 1_555
H3 C18 1_555 1_555
C19 C18 1_555 1_555
H4 C19 1_555 1_555
C20 N8 1_555 1_555
H5 C20 1_555 1_555
C21 C17 1_555 1_555
H6 C21 1_555 1_555
C22 H7 1_555 1_555
C23 C22 1_555 1_555
H8 C23 1_555 1_555
C24 N6 1_555 1_555
H9 C24 1_555 1_555
C25 C13 1_555 1_555
H10 C25 1_555 1_555
C26 S1 1_555 1_555
C27 N7 1_555 1_555
C28_3 C27 1_555 1_555
C29_3 C28_3 1_555 1_555
N9 C39 1_555 1_555
N10 C35 1_555 1_555
S3 C14 1_555 1_555
S4 C32 1_555 1_555
C31 C38 1_555 1_555
C32 C16 1_555 1_555
C33 C32 1_555 1_555
C34 C33 1_555 1_555
H12 C34 1_555 1_555
C35 C34 1_555 1_555
H13 C35 1_555 1_555
C36 N10 1_555 1_555
H14 C36 1_555 1_555
C37 C33 1_555 1_555
H15 C37 1_555 1_555
C38 H16 1_555 1_555
C39 C38 1_555 1_555
H17 C39 1_555 1_555
C40 N9 1_555 1_555
H18 C40 1_555 1_555
C41 C31 1_555 1_555
H19 C41 1_555 1_555
C42 C26 1_555 1_555
C44 C29_3 1_555 1_555
H20 C44 1_555 1_555
C46_3 C47_3 1_555 1_555
C47_3 C48 1_555 1_555
C48 C44 1_555 1_555
H21 C48 1_555 1_555
N13 C49 1_555 1_555
C49 C46_3 1_555 1_555
Cd3_2 N8 1_555 1_555
Cd8 N9 1_555 1_555
Cd8_2 N10 1_555 1_555
N24 Cd3 1_555 1_555
C13 C26 1_555 1_555
C20 C21 1_555 1_555
C24 C25 1_555 1_555
S3 C42 1_555 1_555
C31 C42 1_555 1_555
C36 C37 1_555 1_555
C40 C41 1_555 1_555
N13 Cd8 1_555 1_555
C29_4 C28_4 1_555 1_555
C46_4 C47_4 1_555 1_555
N18 Cd3_2 1_555 1_555
N20 Cd3_2 1_555 1_555
Cd6 N6_2 1_555 1_555
N6_2 C23_2 1_555 1_555
N7_2 Cd6 1_555 1_555
N8_2 C19_2 1_555 1_555
S1_2 C14_2 1_555 1_555
S2_2 C15_2 1_555 1_555
C13_2 C22_2 1_555 1_555
C14_2 C15_2 1_555 1_555
C16_2 S2_2 1_555 1_555
C17_2 C16_2 1_555 1_555
C18_2 C17_2 1_555 1_555
H3_2 C18_2 1_555 1_555
C19_2 C18_2 1_555 1_555
H4_2 C19_2 1_555 1_555
C20_2 N8_2 1_555 1_555
H5_2 C20_2 1_555 1_555
C21_2 C17_2 1_555 1_555
H6_2 C21_2 1_555 1_555
C22_2 H7_2 1_555 1_555
C23_2 C22_2 1_555 1_555
H8_2 C23_2 1_555 1_555
C24_2 N6_2 1_555 1_555
H9_2 C24_2 1_555 1_555
C25_2 C13_2 1_555 1_555
H10_2 C25_2 1_555 1_555
C26_2 S1_2 1_555 1_555
C27_2 N7_2 1_555 1_555
C28_5 C27_2 1_555 1_555
C29_5 C28_5 1_555 1_555
C44_2 C29_5 1_555 1_555
H20_2 C44_2 1_555 1_555
Cd6_2 N8_2 1_555 1_555
N23_2 Cd8 1_555 1_555
C13_2 C26_2 1_555 1_555
C20_2 C21_2 1_555 1_555
C24_2 C25_2 1_555 1_555
C29_6 C28_6 1_555 1_555
C30_2 C29_6 1_555 1_555
H11_2 C30_2 1_555 1_555
N11_2 C43_2 1_555 1_555
C43_2 C28_6 1_555 1_555
Cd8_2 N11_2 1_555 1_555
N14_2 Cd8_2 1_555 1_555
N23_2 C57_2 1_555 1_555
S5_2 C52_2 1_555 1_555
S6_2 C53_2 1_555 1_555
C51_2 C60_2 1_555 1_555
C52_2 C53_2 1_555 1_555
C54_2 S6_2 1_555 1_555
C55_2 C54_2 1_555 1_555
C56_2 C55_2 1_555 1_555
H23_2 C56_2 1_555 1_555
C57_2 C56_2 1_555 1_555
H24_2 C57_2 1_555 1_555
C58_2 N23_2 1_555 1_555
H25_2 C58_2 1_555 1_555
C59_2 C55_2 1_555 1_555
H26_2 C59_2 1_555 1_555
C60_2 H27_2 1_555 1_555
C61_2 N14_2 1_555 1_555
H28_2 C61_2 1_555 1_555
C62_2 N14_2 1_555 1_555
H29_2 C62_2 1_555 1_555
C63_2 C51_2 1_555 1_555
H30_2 C63_2 1_555 1_555
C64_2 S5_2 1_555 1_555
C51_2 C64_2 1_555 1_555
C58_2 C59_2 1_555 1_555
C60_2 C61_2 1_555 1_555
C62_2 C63_2 1_555 1_555
C14_3 C15_3 1_555 1_555
C15_3 S4_2 1_555 1_555
N19 C39_2 1_555 1_555
N25 C35_2 1_555 1_555
S3_2 C14_3 1_555 1_555
S4_2 C32_2 1_555 1_555
C31_2 C38_2 1_555 1_555
C33_2 C32_2 1_555 1_555
C34_2 C33_2 1_555 1_555
H12_2 C34_2 1_555 1_555
C35_2 C34_2 1_555 1_555
H13_2 C35_2 1_555 1_555
C36_2 N25 1_555 1_555
H14_2 C36_2 1_555 1_555
C37_2 C33_2 1_555 1_555
H15_2 C37_2 1_555 1_555
C38_2 H16_2 1_555 1_555
C39_2 C38_2 1_555 1_555
H17_2 C39_2 1_555 1_555
C40_2 N19 1_555 1_555
H18_2 C40_2 1_555 1_555
C41_2 C31_2 1_555 1_555
H19_2 C41_2 1_555 1_555
C46_5 C47_5 1_555 1_555
C47_5 C48_2 1_555 1_555
H21_2 C48_2 1_555 1_555
N21 C49_2 1_555 1_555
C49_2 C46_5 1_555 1_555
S3_2 C42_2 1_555 1_555
C31_2 C42_2 1_555 1_555
C36_2 C37_2 1_555 1_555
C40_2 C41_2 1_555 1_555
N20 C45_2 1_555 1_555
C45_2 C46_6 1_555 1_555
C46_6 C47_6 1_555 1_555
H22_2 C50_2 1_555 1_555
C52_3 C53_3 1_555 1_555
C53_3 S8_2 1_555 1_555
N18 C73_2 1_555 1_555
N24 C69_2 1_555 1_555
S7_2 C52_3 1_555 1_555
S8_2 C66_2 1_555 1_555
C65_2 C72_2 1_555 1_555
C67_2 C66_2 1_555 1_555
C68_2 C67_2 1_555 1_555
H31_2 C68_2 1_555 1_555
C69_2 C68_2 1_555 1_555
H32_2 C69_2 1_555 1_555
C70_2 N24 1_555 1_555
H33_2 C70_2 1_555 1_555
C71_2 C67_2 1_555 1_555
H34_2 C71_2 1_555 1_555
C72_2 H35_2 1_555 1_555
C73_2 C72_2 1_555 1_555
H36_2 C73_2 1_555 1_555
C74_2 N18 1_555 1_555
H37_2 C74_2 1_555 1_555
C75_2 C65_2 1_555 1_555
H38_2 C75_2 1_555 1_555
C47_6 C50_2 1_555 1_555
S7_2 C76_2 1_555 1_555
C65_2 C76_2 1_555 1_555
C70_2 C71_2 1_555 1_555
C74_2 C75_2 1_555 1_555

#END
