
###############################################################################
#
# This file contains modified crystal structure data generated from the
# MOF subset of the Cambridge Structural Database (CSD) v543 
# hosted by the Cambridge Crystallographic Data Centre (CCDC).
#
# This work is licensed under the Creative Commons
# Attribution-NonCommercial-ShareAlike 4.0 International License.
# To view a copy of this license, visit
# http://creativecommons.org/licenses/by-nc-sa/4.0/
# or send a letter to
# Creative Commons, PO Box 1866, Mountain View, CA 94042, USA.
#
# CIF created using the CSD Python API on 29 September 2022
# The structure has been converted into the P1 space group
# The structure has a 3D framework
# The original CSD entry GODNAR is in the monoclinic crystal system
# The framework has been calculated to contain at least 10.0% void space
# The void calculation uses a probe of radius 1.32A, grid spacing 0.4
# The framework is charged, counterions have been retained in the structure
#
###############################################################################

data_GODNAR
_chemical_formula_moiety         '(C264 H144 Cd4 I24 N54 O14 S32 12-)n'
_symmetry_cell_setting           triclinic
_symmetry_space_group_name_H-M   'P 1'
_symmetry_Int_Tables_number      1
_space_group_name_Hall           'P 1'
loop_
_symmetry_equiv_pos_site_id
_symmetry_equiv_pos_as_xyz
1 x,y,z
_cell_length_a                   15.697(2)
_cell_length_b                   19.2806(16)
_cell_length_c                   30.7917(13)
_cell_angle_alpha                90
_cell_angle_beta                 103.770(3)
_cell_angle_gamma                90
_cell_volume                     9051.2
loop_
_atom_site_label
_atom_site_type_symbol
_atom_site_fract_x
_atom_site_fract_y
_atom_site_fract_z
I1 I 0.70761(4) 0.50391(2) 0.42402(2)
I2 I 0.81153(3) 0.51167(3) 0.51644(2)
I3 I 0.91958(3) 0.51915(3) 0.60803(2)
I1_2 I 0.29239(4) 0.50391(2) 0.07598(2)
I2_2 I 0.18847(3) 0.51167(3) 0.98356(2)
I3_2 I 0.08042(3) 0.51915(3) 0.89197(2)
I1_3 I 0.20761(4) 0.00391(2) 0.42402(2)
I2_3 I 0.31153(3) 0.01167(3) 0.51644(2)
I3_3 I 0.41958(3) 0.01915(3) 0.60803(2)
I1_4 I 0.79239(4) 0.00391(2) 0.07598(2)
I2_4 I 0.68847(3) 0.01167(3) 0.98356(2)
I3_4 I 0.58042(3) 0.01915(3) 0.89197(2)
I1_5 I 0.29239(4) 0.49609(2) 0.57598(2)
I2_5 I 0.18847(3) 0.48833(3) 0.48356(2)
I3_5 I 0.08042(3) 0.48085(3) 0.39197(2)
I2_6 I 0.81153(3) 0.48833(3) 0.01644(2)
I3_6 I 0.91958(3) 0.48085(3) 0.10803(2)
I1_6 I 0.70761(4) 0.49609(2) 0.92402(2)
I1_7 I 0.79239(4) 0.99609(2) 0.57598(2)
I2_7 I 0.68847(3) 0.98833(3) 0.48356(2)
I3_7 I 0.58042(3) 0.98085(3) 0.39197(2)
I2_8 I 0.31153(3) 0.98833(3) 0.01644(2)
I3_8 I 0.41958(3) 0.98085(3) 0.10803(2)
I1_8 I 0.20761(4) 0.99609(2) 0.92402(2)
Cd8 Cd 0.24878(4) 0.00013(2) 0.25121(2)
C40 C 0.1779(5) 0.5844(4) 0.1611(2)
C41 C 0.1262(5) 0.6295(3) 0.1319(2)
H22 H 0.133950 0.634379 0.102404
H23 H 0.221865 0.558764 0.151522
N18 N 0.1675(4) 0.5752(3) 0.2041(2)
C49 C 0.0622(5) 0.6684(4) 0.1454(2)
C51 C 0.0515(5) 0.6606(4) 0.1903(2)
C56 C 0.1935(5) 0.8610(3) 0.2021(3)
C57 C 0.1423(4) 0.8146(4) 0.1720(2)
N20 N 0.1629(4) 0.9276(3) 0.20632(19)
C59 C 0.0054(5) 0.7161(4) 0.1146(2)
C60 C 0.0304(5) 0.9022(3) 0.1520(2)
C61 C 0.0815(5) 0.9471(4) 0.1815(2)
C62 C 0.0043(5) 0.7870(4) 0.1160(2)
C63 C 0.1039(5) 0.6139(3) 0.2179(3)
H32 H 0.009270 0.687243 0.200527
H33 H 0.096571 0.607652 0.247357
H34 H 0.163175 0.769015 0.169003
C64 C 0.0609(5) 0.8350(4) 0.1465(2)
H35 H 0.249098 0.846965 0.219611
H36 H 0.060427 0.992476 0.184962
Cd7 Cd 0.25122(4) 0.50013(2) 0.24879(2)
C2 C -0.000000 0.6029(4) 0.750000
C3 C -0.000000 0.6807(4) 0.750000
C4 C 0.0642(5) 0.7164(4) 0.7777(3)
H1 H 0.108855 0.690435 0.797241
C5 C 0.0702(5) 0.7855(4) 0.7799(3)
H2 H 0.117665 0.807988 0.799858
C6 C -0.000000 0.8254(5) 0.750000
C7 C -0.000000 0.9000(5) 0.750000
C8 C 0.0790(5) 0.9362(4) 0.7671(3)
N3 N 0.1406(4) 0.9638(3) 0.7759(2)
N4 N 0.2291(4) 0.5749(3) 0.69480(19)
N5 N 0.1675(4) 0.4248(3) 0.7041(2)
C9 C 0.2495(5) 0.9452(4) 0.6580(2)
H3 H 0.272881 0.990078 0.655553
C12 C 0.2006(5) 0.6701(4) 0.6250(2)
C13 C 0.1847(5) 0.7159(4) 0.5864(2)
C14 C 0.2369(5) 0.9001(3) 0.6219(3)
C15 C 0.2021(5) 0.8342(4) 0.6257(2)
C16 C 0.2835(5) 0.6638(4) 0.6539(2)
H6 H 0.330685 0.691968 0.649936
C17 C 0.1322(5) 0.6284(3) 0.6319(3)
H7 H 0.075590 0.632052 0.612285
C18 C 0.2964(5) 0.6165(3) 0.6882(2)
C20 C 0.1461(5) 0.5821(4) 0.6667(2)
H8 H 0.251663 0.913730 0.594942
C22 C 0.1800(5) 0.8147(4) 0.6654(2)
C23 C 0.1951(5) 0.8606(3) 0.7009(2)
H9 H 0.182202 0.847048 0.728329
H10 H 0.154862 0.770536 0.667954
C24 C 0.1882(5) 0.7884(4) 0.5857(2)
H11 H 0.352840 0.612372 0.707832
H12 H 0.098848 0.554912 0.671649
C25 C 0.1033(5) 0.7513(3) 0.4585(3)
S1 S 0.07908(12) 0.82628(9) 0.42765(6)
C28 C 0.1456(5) 0.7506(3) 0.5033(3)
H13 H 0.025740 0.916476 0.364879
S2 S 0.17609(12) 0.82665(9) 0.53337(6)
S3 S 0.07191(12) 0.67451(9) 0.42869(6)
S4 S 0.16841(12) 0.67457(9) 0.53391(6)
C35 C 0.0805(5) 0.5635(4) 0.7630(3)
N7 N 0.1424(4) 0.5369(3) 0.7699(2)
Cd2 Cd 0.25122(4) 0.49987(2) 0.74879(2)
N9 N 0.2712(4) 0.4263(3) 0.8029(2)
Cd3 Cd 0.24878(4) 0.99987(2) 0.75121(2)
N12 N 0.3371(4) 0.5724(3) 0.79368(19)
N14 N 0.3594(4) 0.4638(3) 0.7241(2)
N16 N 0.2288(4) 0.9263(3) 0.6971(2)
Cd6 Cd 0.75122(4) 0.00013(2) 0.24879(2)
C1 C 0.9195(5) 0.5635(4) 0.7370(3)
C2_2 C 1.000000 0.6029(4) 0.750000
C3_2 C 1.000000 0.6807(4) 0.750000
C6_2 C 1.000000 0.8254(5) 0.750000
C7_2 C 1.000000 0.9000(5) 0.750000
Cd1 Cd 0.74878(4) 0.49987(2) 0.75121(2)
N1 N 0.7288(4) 0.4263(3) 0.6971(2)
N2 N 0.8576(4) 0.5369(3) 0.7301(2)
N6 N 0.6629(4) 0.5724(3) 0.70632(19)
C10 C 0.8221(5) 0.5844(4) 0.3389(2)
C11 C 0.8738(5) 0.6295(3) 0.3681(2)
H4 H 0.866050 0.634379 0.397596
H5 H 0.778135 0.558764 0.348478
C19 C 0.9378(5) 0.6684(4) 0.3546(2)
C21 C 0.9485(5) 0.6606(4) 0.3097(2)
C26 C 0.8065(5) 0.8610(3) 0.2979(3)
C27 C 0.8577(4) 0.8146(4) 0.3280(2)
C29 C 0.9946(5) 0.7161(4) 0.3854(2)
C30 C 0.9696(5) 0.9022(3) 0.3480(2)
C31 C 0.9185(5) 0.9471(4) 0.3185(2)
C32 C 0.9957(5) 0.7870(4) 0.3840(2)
C33 C 0.8961(5) 0.6139(3) 0.2821(3)
H14 H 0.990730 0.687243 0.299473
H15 H 0.903429 0.607652 0.252643
H16 H 0.836825 0.769015 0.330997
C34 C 0.9391(5) 0.8350(4) 0.3535(2)
H17 H 0.750902 0.846965 0.280389
H18 H 0.939573 0.992476 0.315038
C36 C 0.9358(5) 0.7164(4) 0.7223(3)
H19 H 0.891145 0.690435 0.702759
C37 C 0.9298(5) 0.7855(4) 0.7201(3)
H20 H 0.882335 0.807988 0.700142
C38 C 0.9210(5) 0.9362(4) 0.7329(3)
N8 N 0.8594(4) 0.9638(3) 0.7241(2)
Cd4 Cd 0.75122(4) 0.99987(2) 0.74879(2)
N10 N 0.7709(4) 0.5749(3) 0.80520(19)
N11 N 0.8325(4) 0.4248(3) 0.7959(2)
N13 N 0.6406(4) 0.4638(3) 0.7759(2)
N15 N 0.8325(4) 0.5752(3) 0.2959(2)
N17 N 0.8371(4) 0.9276(3) 0.29368(19)
Cd5 Cd 0.74878(4) 0.50013(2) 0.25121(2)
C39 C 0.7505(5) 0.9452(4) 0.8420(2)
H21 H 0.727119 0.990078 0.844447
C42 C 0.7994(5) 0.6701(4) 0.8750(2)
C43 C 0.8153(5) 0.7159(4) 0.9136(2)
C44 C 0.7631(5) 0.9001(3) 0.8781(3)
C45 C 0.7979(5) 0.8342(4) 0.8743(2)
C46 C 0.7165(5) 0.6638(4) 0.8461(2)
H24 H 0.669315 0.691968 0.850064
C47 C 0.8678(5) 0.6284(3) 0.8681(3)
H25 H 0.924410 0.632052 0.887715
C48 C 0.7036(5) 0.6165(3) 0.8118(2)
N19 N 0.7712(4) 0.9263(3) 0.8029(2)
C50 C 0.8539(5) 0.5821(4) 0.8333(2)
H26 H 0.748337 0.913730 0.905058
C52 C 0.8200(5) 0.8147(4) 0.8346(2)
C53 C 0.8049(5) 0.8606(3) 0.7991(2)
H27 H 0.817798 0.847048 0.771671
H28 H 0.845138 0.770536 0.832046
C54 C 0.8118(5) 0.7884(4) 0.9143(2)
H29 H 0.647160 0.612372 0.792168
H30 H 0.901152 0.554912 0.828351
C58 C 0.8544(5) 0.7506(3) 0.9967(3)
S6 S 0.82391(12) 0.82665(9) 0.96663(6)
S8 S 0.83159(12) 0.67457(9) 0.96609(6)
C40_2 C 0.6779(5) 0.0844(4) 0.1611(2)
C41_2 C 0.6262(5) 0.1295(3) 0.1319(2)
H22_2 H 0.633950 0.134379 0.102404
H23_2 H 0.721865 0.058764 0.151522
N18_2 N 0.6675(4) 0.0752(3) 0.2041(2)
C49_2 C 0.5622(5) 0.1684(4) 0.1454(2)
C51_2 C 0.5515(5) 0.1606(4) 0.1903(2)
C55 C 0.3967(5) 0.2513(3) 0.0415(3)
S5 S 0.42092(12) 0.32628(9) 0.07235(6)
C56_2 C 0.6935(5) 0.3610(3) 0.2021(3)
C57_2 C 0.6423(4) 0.3146(4) 0.1720(2)
N20_2 N 0.6629(4) 0.4276(3) 0.20632(19)
C59_2 C 0.5054(5) 0.2161(4) 0.1146(2)
C60_2 C 0.5304(5) 0.4022(3) 0.1520(2)
H31 H 0.474260 0.416476 0.135121
C61_2 C 0.5815(5) 0.4471(4) 0.1815(2)
S7 S 0.42809(12) 0.17451(9) 0.07131(6)
C62_2 C 0.5043(5) 0.2870(4) 0.1160(2)
C63_2 C 0.6039(5) 0.1139(3) 0.2179(3)
H32_2 H 0.509270 0.187243 0.200527
H33_2 H 0.596571 0.107652 0.247357
H34_2 H 0.663175 0.269015 0.169003
C64_2 C 0.5609(5) 0.3350(4) 0.1465(2)
H35_2 H 0.749098 0.346965 0.219611
H36_2 H 0.560427 0.492476 0.184962
C1_2 C 0.4195(5) 0.0635(4) 0.7370(3)
C2_3 C 0.500000 0.1029(4) 0.750000
C3_3 C 0.500000 0.1807(4) 0.750000
C4_2 C 0.5642(5) 0.2164(4) 0.7777(3)
H1_2 H 0.608855 0.190435 0.797241
C5_2 C 0.5702(5) 0.2855(4) 0.7799(3)
H2_2 H 0.617665 0.307988 0.799858
C6_3 C 0.500000 0.3254(5) 0.750000
C7_3 C 0.500000 0.4000(5) 0.750000
C8_2 C 0.5790(5) 0.4362(4) 0.7671(3)
N2_2 N 0.3576(4) 0.0369(3) 0.7301(2)
N4_2 N 0.7291(4) 0.0749(3) 0.69480(19)
N6_2 N 0.1629(4) 0.0724(3) 0.70632(19)
C9_2 C 0.7495(5) 0.4452(4) 0.6580(2)
H3_2 H 0.772881 0.490078 0.655553
C10_2 C 0.3221(5) 0.0844(4) 0.3389(2)
C11_2 C 0.3738(5) 0.1295(3) 0.3681(2)
H4_2 H 0.366050 0.134379 0.397596
C12_2 C 0.7006(5) 0.1701(4) 0.6250(2)
C13_2 C 0.6847(5) 0.2159(4) 0.5864(2)
C14_2 C 0.7369(5) 0.4001(3) 0.6219(3)
C15_2 C 0.7021(5) 0.3342(4) 0.6257(2)
H5_2 H 0.278135 0.058764 0.348478
C16_2 C 0.7835(5) 0.1638(4) 0.6539(2)
H6_2 H 0.830685 0.191968 0.649936
C17_2 C 0.6322(5) 0.1284(3) 0.6319(3)
H7_2 H 0.575590 0.132052 0.612285
C18_2 C 0.7964(5) 0.1165(3) 0.6882(2)
C19_2 C 0.4378(5) 0.1684(4) 0.3546(2)
C20_2 C 0.6461(5) 0.0821(4) 0.6667(2)
C21_2 C 0.4485(5) 0.1606(4) 0.3097(2)
H8_2 H 0.751663 0.413730 0.594942
C22_2 C 0.6800(5) 0.3147(4) 0.6654(2)
C23_2 C 0.6951(5) 0.3606(3) 0.7009(2)
H9_2 H 0.682202 0.347048 0.728329
H10_2 H 0.654862 0.270536 0.667954
C24_2 C 0.6882(5) 0.2884(4) 0.5857(2)
H11_2 H 0.852840 0.112372 0.707832
H12_2 H 0.598848 0.054912 0.671649
C25_2 C 0.6033(5) 0.2513(3) 0.4585(3)
S1_2 S 0.57908(12) 0.32628(9) 0.42765(6)
C26_2 C 0.3065(5) 0.3610(3) 0.2979(3)
C27_2 C 0.3577(4) 0.3146(4) 0.3280(2)
C28_2 C 0.6456(5) 0.2506(3) 0.5033(3)
C29_2 C 0.4946(5) 0.2161(4) 0.3854(2)
C30_2 C 0.4696(5) 0.4022(3) 0.3480(2)
H13_2 H 0.525740 0.416476 0.364879
C31_2 C 0.4185(5) 0.4471(4) 0.3185(2)
S2_2 S 0.67609(12) 0.32665(9) 0.53337(6)
S3_2 S 0.57191(12) 0.17451(9) 0.42869(6)
C32_2 C 0.4957(5) 0.2870(4) 0.3840(2)
S4_2 S 0.66841(12) 0.17457(9) 0.53391(6)
C33_2 C 0.3961(5) 0.1139(3) 0.2821(3)
H14_2 H 0.490730 0.187243 0.299473
H15_2 H 0.403429 0.107652 0.252643
H16_2 H 0.336825 0.269015 0.330997
C34_2 C 0.4391(5) 0.3350(4) 0.3535(2)
H17_2 H 0.250902 0.346965 0.280389
H18_2 H 0.439573 0.492476 0.315038
C35_2 C 0.5805(5) 0.0635(4) 0.7630(3)
C36_2 C 0.4358(5) 0.2164(4) 0.7223(3)
H19_2 H 0.391145 0.190435 0.702759
C37_2 C 0.4298(5) 0.2855(4) 0.7201(3)
H20_2 H 0.382335 0.307988 0.700142
C38_2 C 0.4210(5) 0.4362(4) 0.7329(3)
N7_2 N 0.6424(4) 0.0369(3) 0.7699(2)
N10_2 N 0.2709(4) 0.0749(3) 0.80520(19)
N12_2 N 0.8371(4) 0.0724(3) 0.79368(19)
N15_2 N 0.3325(4) 0.0752(3) 0.2959(2)
N17_2 N 0.3371(4) 0.4276(3) 0.29368(19)
C39_2 C 0.2505(5) 0.4452(4) 0.8420(2)
H21_2 H 0.227119 0.490078 0.844447
C42_2 C 0.2994(5) 0.1701(4) 0.8750(2)
C43_2 C 0.3153(5) 0.2159(4) 0.9136(2)
C44_2 C 0.2631(5) 0.4001(3) 0.8781(3)
C45_2 C 0.2979(5) 0.3342(4) 0.8743(2)
C46_2 C 0.2165(5) 0.1638(4) 0.8461(2)
H24_2 H 0.169315 0.191968 0.850064
C47_2 C 0.3678(5) 0.1284(3) 0.8681(3)
H25_2 H 0.424410 0.132052 0.887715
C48_2 C 0.2036(5) 0.1165(3) 0.8118(2)
C50_2 C 0.3539(5) 0.0821(4) 0.8333(2)
H26_2 H 0.248337 0.413730 0.905058
C52_2 C 0.3200(5) 0.3147(4) 0.8346(2)
C53_2 C 0.3049(5) 0.3606(3) 0.7991(2)
H27_2 H 0.317798 0.347048 0.771671
H28_2 H 0.345138 0.270536 0.832046
C54_2 C 0.3118(5) 0.2884(4) 0.9143(2)
H29_2 H 0.147160 0.112372 0.792168
H30_2 H 0.401152 0.054912 0.828351
C58_2 C 0.3544(5) 0.2506(3) 0.9967(3)
S6_2 S 0.32391(12) 0.32665(9) 0.96663(6)
S8_2 S 0.33159(12) 0.17457(9) 0.96609(6)
N5_2 N 0.6675(4) 0.9248(3) 0.7041(2)
N11_2 N 0.3325(4) 0.9248(3) 0.7959(2)
C1_3 C 0.0805(5) 0.4365(4) 0.2630(3)
C2_4 C -0.000000 0.3971(4) 0.250000
C3_4 C -0.000000 0.3193(4) 0.250000
C6_4 C -0.000000 0.1746(5) 0.250000
C7_4 C -0.000000 0.1000(5) 0.250000
N1_2 N 0.2712(4) 0.5737(3) 0.3029(2)
N2_3 N 0.1424(4) 0.4631(3) 0.2699(2)
C10_3 C 0.1779(5) 0.4156(4) 0.6611(2)
C11_3 C 0.1262(5) 0.3705(3) 0.6319(2)
H4_3 H 0.133950 0.365621 0.602404
H5_3 H 0.221865 0.441236 0.651522
C19_3 C 0.0622(5) 0.3316(4) 0.6454(2)
C21_3 C 0.0515(5) 0.3394(4) 0.6903(2)
C26_3 C 0.1935(5) 0.1390(3) 0.7021(3)
C27_3 C 0.1423(4) 0.1854(4) 0.6720(2)
C29_3 C 0.0054(5) 0.2839(4) 0.6146(2)
C30_3 C 0.0304(5) 0.0978(3) 0.6520(2)
C31_3 C 0.0815(5) 0.0529(4) 0.6815(2)
C32_3 C 0.0043(5) 0.2130(4) 0.6160(2)
C33_3 C 0.1039(5) 0.3861(3) 0.7179(3)
H14_3 H 0.009270 0.312757 0.700527
H15_3 H 0.096571 0.392348 0.747357
H16_3 H 0.163175 0.230985 0.669003
C34_3 C 0.0609(5) 0.1650(4) 0.6465(2)
H17_3 H 0.249098 0.153035 0.719611
H18_3 H 0.060427 0.007524 0.684962
C36_3 C 0.0642(5) 0.2836(4) 0.2777(3)
H19_3 H 0.108855 0.309565 0.297241
C37_3 C 0.0702(5) 0.2145(4) 0.2799(3)
H20_3 H 0.117665 0.192012 0.299858
C38_3 C 0.0790(5) 0.0638(4) 0.2671(3)
N8_2 N 0.1406(4) 0.0362(3) 0.2759(2)
N10_3 N 0.2291(4) 0.4251(3) 0.19480(19)
N13_2 N 0.3594(4) 0.5362(3) 0.2241(2)
C39_3 C 0.2495(5) 0.0548(4) 0.1580(2)
H21_3 H 0.272881 0.009922 0.155553
C42_3 C 0.2006(5) 0.3299(4) 0.1250(2)
C43_3 C 0.1847(5) 0.2841(4) 0.0864(2)
C44_3 C 0.2369(5) 0.0999(3) 0.1219(3)
C45_3 C 0.2021(5) 0.1658(4) 0.1257(2)
C46_3 C 0.2835(5) 0.3362(4) 0.1539(2)
H24_3 H 0.330685 0.308032 0.149936
C47_3 C 0.1322(5) 0.3716(3) 0.1319(3)
H25_3 H 0.075590 0.367948 0.112285
C48_3 C 0.2964(5) 0.3835(3) 0.1882(2)
N19_2 N 0.2288(4) 0.0737(3) 0.1971(2)
C50_3 C 0.1461(5) 0.4179(4) 0.1667(2)
H26_3 H 0.251663 0.086270 0.094942
C52_3 C 0.1800(5) 0.1853(4) 0.1654(2)
C53_3 C 0.1951(5) 0.1394(3) 0.2009(2)
H27_3 H 0.182202 0.152952 0.228329
H28_3 H 0.154862 0.229464 0.167954
C54_3 C 0.1882(5) 0.2116(4) 0.0857(2)
H29_3 H 0.352840 0.387628 0.207832
H30_3 H 0.098848 0.445088 0.171649
C58_3 C 0.1456(5) 0.2494(3) 0.0033(3)
S6_3 S 0.17609(12) 0.17335(9) 0.03337(6)
S8_3 S 0.16841(12) 0.32543(9) 0.03391(6)
C2_5 C 1.000000 0.3971(4) 0.250000
C3_5 C 1.000000 0.3193(4) 0.250000
C4_3 C 0.9358(5) 0.2836(4) 0.2223(3)
H1_3 H 0.891145 0.309565 0.202759
C5_3 C 0.9298(5) 0.2145(4) 0.2201(3)
H2_3 H 0.882335 0.192012 0.200142
C6_5 C 1.000000 0.1746(5) 0.250000
C7_5 C 1.000000 0.1000(5) 0.250000
C8_3 C 0.9210(5) 0.0638(4) 0.2329(3)
N3_2 N 0.8594(4) 0.0362(3) 0.2241(2)
N4_3 N 0.7709(4) 0.4251(3) 0.30520(19)
C9_3 C 0.7505(5) 0.0548(4) 0.3420(2)
H3_3 H 0.727119 0.009922 0.344447
C12_3 C 0.7994(5) 0.3299(4) 0.3750(2)
C13_3 C 0.8153(5) 0.2841(4) 0.4136(2)
C14_3 C 0.7631(5) 0.0999(3) 0.3781(3)
C15_3 C 0.7979(5) 0.1658(4) 0.3743(2)
C16_3 C 0.7165(5) 0.3362(4) 0.3461(2)
H6_3 H 0.669315 0.308032 0.350064
C17_3 C 0.8678(5) 0.3716(3) 0.3681(3)
H7_3 H 0.924410 0.367948 0.387715
C18_3 C 0.7036(5) 0.3835(3) 0.3118(2)
C20_3 C 0.8539(5) 0.4179(4) 0.3333(2)
H8_3 H 0.748337 0.086270 0.405058
C22_3 C 0.8200(5) 0.1853(4) 0.3346(2)
C23_3 C 0.8049(5) 0.1394(3) 0.2991(2)
H9_3 H 0.817798 0.152952 0.271671
H10_3 H 0.845138 0.229464 0.332046
C24_3 C 0.8118(5) 0.2116(4) 0.4143(2)
H11_3 H 0.647160 0.387628 0.292168
H12_3 H 0.901152 0.445088 0.328351
C25_3 C 0.8967(5) 0.2487(3) 0.5415(3)
S1_3 S 0.92092(12) 0.17372(9) 0.57235(6)
C28_3 C 0.8544(5) 0.2494(3) 0.4967(3)
H13_3 H 0.974260 0.083524 0.635121
S2_3 S 0.82391(12) 0.17335(9) 0.46663(6)
S3_3 S 0.92809(12) 0.32549(9) 0.57131(6)
S4_3 S 0.83159(12) 0.32543(9) 0.46609(6)
C35_3 C 0.9195(5) 0.4365(4) 0.2370(3)
N7_3 N 0.8576(4) 0.4631(3) 0.2301(2)
N9_2 N 0.7288(4) 0.5737(3) 0.1971(2)
N14_2 N 0.6406(4) 0.5362(3) 0.2759(2)
N16_2 N 0.7712(4) 0.0737(3) 0.3029(2)
C40_3 C 0.8221(5) 0.4156(4) 0.8389(2)
C41_3 C 0.8738(5) 0.3705(3) 0.8681(2)
H22_3 H 0.866050 0.365621 0.897596
H23_3 H 0.778135 0.441236 0.848478
C49_3 C 0.9378(5) 0.3316(4) 0.8546(2)
C51_3 C 0.9485(5) 0.3394(4) 0.8097(2)
C56_3 C 0.8065(5) 0.1390(3) 0.7979(3)
C57_3 C 0.8577(4) 0.1854(4) 0.8280(2)
C59_3 C 0.9946(5) 0.2839(4) 0.8854(2)
C60_3 C 0.9696(5) 0.0978(3) 0.8480(2)
C61_3 C 0.9185(5) 0.0529(4) 0.8185(2)
C62_3 C 0.9957(5) 0.2130(4) 0.8840(2)
C63_3 C 0.8961(5) 0.3861(3) 0.7821(3)
H32_3 H 0.990730 0.312757 0.799473
H33_3 H 0.903429 0.392348 0.752643
H34_3 H 0.836825 0.230985 0.830997
C64_3 C 0.9391(5) 0.1650(4) 0.8535(2)
H35_3 H 0.750902 0.153035 0.780389
H36_3 H 0.939573 0.007524 0.815038
C1_4 C 0.5805(5) 0.9365(4) 0.2630(3)
C2_6 C 0.500000 0.8971(4) 0.250000
C3_6 C 0.500000 0.8193(4) 0.250000
C4_4 C 0.4358(5) 0.7836(4) 0.2223(3)
H1_4 H 0.391145 0.809565 0.202759
C5_4 C 0.4298(5) 0.7145(4) 0.2201(3)
H2_4 H 0.382335 0.692012 0.200142
C6_6 C 0.500000 0.6746(5) 0.250000
C7_6 C 0.500000 0.6000(5) 0.250000
C8_4 C 0.4210(5) 0.5638(4) 0.2329(3)
N2_4 N 0.6424(4) 0.9631(3) 0.2699(2)
N4_4 N 0.2709(4) 0.9251(3) 0.30520(19)
C9_4 C 0.2505(5) 0.5548(4) 0.3420(2)
H3_4 H 0.227119 0.509922 0.344447
C10_4 C 0.6779(5) 0.9156(4) 0.6611(2)
C11_4 C 0.6262(5) 0.8705(3) 0.6319(2)
H4_4 H 0.633950 0.865621 0.602404
C12_4 C 0.2994(5) 0.8299(4) 0.3750(2)
C13_4 C 0.3153(5) 0.7841(4) 0.4136(2)
C14_4 C 0.2631(5) 0.5999(3) 0.3781(3)
C15_4 C 0.2979(5) 0.6658(4) 0.3743(2)
H5_4 H 0.721865 0.941236 0.651522
C16_4 C 0.2165(5) 0.8362(4) 0.3461(2)
H6_4 H 0.169315 0.808032 0.350064
C17_4 C 0.3678(5) 0.8716(3) 0.3681(3)
H7_4 H 0.424410 0.867948 0.387715
C18_4 C 0.2036(5) 0.8835(3) 0.3118(2)
C19_4 C 0.5622(5) 0.8316(4) 0.6454(2)
C20_4 C 0.3539(5) 0.9179(4) 0.3333(2)
C21_4 C 0.5515(5) 0.8394(4) 0.6903(2)
H8_4 H 0.248337 0.586270 0.405058
C22_4 C 0.3200(5) 0.6853(4) 0.3346(2)
C23_4 C 0.3049(5) 0.6394(3) 0.2991(2)
H9_4 H 0.317798 0.652952 0.271671
H10_4 H 0.345138 0.729464 0.332046
C24_4 C 0.3118(5) 0.7116(4) 0.4143(2)
H11_4 H 0.147160 0.887628 0.292168
H12_4 H 0.401152 0.945088 0.328351
C25_4 C 0.3967(5) 0.7487(3) 0.5415(3)
S1_4 S 0.42092(12) 0.67372(9) 0.57235(6)
C26_4 C 0.6935(5) 0.6390(3) 0.7021(3)
C27_4 C 0.6423(4) 0.6854(4) 0.6720(2)
C28_4 C 0.3544(5) 0.7494(3) 0.4967(3)
C29_4 C 0.5054(5) 0.7839(4) 0.6146(2)
C30_4 C 0.5304(5) 0.5978(3) 0.6520(2)
H13_4 H 0.474260 0.583524 0.635121
C31_4 C 0.5815(5) 0.5529(4) 0.6815(2)
S2_4 S 0.32391(12) 0.67335(9) 0.46663(6)
S3_4 S 0.42809(12) 0.82549(9) 0.57131(6)
C32_4 C 0.5043(5) 0.7130(4) 0.6160(2)
S4_4 S 0.33159(12) 0.82543(9) 0.46609(6)
C33_4 C 0.6039(5) 0.8861(3) 0.7179(3)
H14_4 H 0.509270 0.812757 0.700527
H15_4 H 0.596571 0.892348 0.747357
H16_4 H 0.663175 0.730985 0.669003
C34_4 C 0.5609(5) 0.6650(4) 0.6465(2)
H17_4 H 0.749098 0.653035 0.719611
H18_4 H 0.560427 0.507524 0.684962
C35_4 C 0.4195(5) 0.9365(4) 0.2370(3)
C36_4 C 0.5642(5) 0.7836(4) 0.2777(3)
H19_4 H 0.608855 0.809565 0.297241
C37_4 C 0.5702(5) 0.7145(4) 0.2799(3)
H20_4 H 0.617665 0.692012 0.299858
C38_4 C 0.5790(5) 0.5638(4) 0.2671(3)
N7_4 N 0.3576(4) 0.9631(3) 0.2301(2)
N10_4 N 0.7291(4) 0.9251(3) 0.19480(19)
C39_4 C 0.7495(5) 0.5548(4) 0.1580(2)
H21_4 H 0.772881 0.509922 0.155553
C42_4 C 0.7006(5) 0.8299(4) 0.1250(2)
C43_4 C 0.6847(5) 0.7841(4) 0.0864(2)
C44_4 C 0.7369(5) 0.5999(3) 0.1219(3)
C45_4 C 0.7021(5) 0.6658(4) 0.1257(2)
C46_4 C 0.7835(5) 0.8362(4) 0.1539(2)
H24_4 H 0.830685 0.808032 0.149936
C47_4 C 0.6322(5) 0.8716(3) 0.1319(3)
H25_4 H 0.575590 0.867948 0.112285
C48_4 C 0.7964(5) 0.8835(3) 0.1882(2)
C50_4 C 0.6461(5) 0.9179(4) 0.1667(2)
H26_4 H 0.751663 0.586270 0.094942
C52_4 C 0.6800(5) 0.6853(4) 0.1654(2)
C53_4 C 0.6951(5) 0.6394(3) 0.2009(2)
H27_4 H 0.682202 0.652952 0.228329
H28_4 H 0.654862 0.729464 0.167954
C54_4 C 0.6882(5) 0.7116(4) 0.0857(2)
H29_4 H 0.852840 0.887628 0.207832
H30_4 H 0.598848 0.945088 0.171649
C58_4 C 0.6456(5) 0.7494(3) 0.0033(3)
S6_4 S 0.67609(12) 0.67335(9) 0.03337(6)
S8_4 S 0.66841(12) 0.82543(9) 0.03391(6)
C40_4 C 0.3221(5) 0.9156(4) 0.8389(2)
C41_4 C 0.3738(5) 0.8705(3) 0.8681(2)
H22_4 H 0.366050 0.865621 0.897596
H23_4 H 0.278135 0.941236 0.848478
C49_4 C 0.4378(5) 0.8316(4) 0.8546(2)
C51_4 C 0.4485(5) 0.8394(4) 0.8097(2)
C55_2 C 0.6033(5) 0.7487(3) 0.9585(3)
S5_2 S 0.57908(12) 0.67372(9) 0.92765(6)
C56_4 C 0.3065(5) 0.6390(3) 0.7979(3)
C57_4 C 0.3577(4) 0.6854(4) 0.8280(2)
C59_4 C 0.4946(5) 0.7839(4) 0.8854(2)
C60_4 C 0.4696(5) 0.5978(3) 0.8480(2)
H31_2 H 0.525740 0.583524 0.864879
C61_4 C 0.4185(5) 0.5529(4) 0.8185(2)
S7_2 S 0.57191(12) 0.82549(9) 0.92869(6)
C62_4 C 0.4957(5) 0.7130(4) 0.8840(2)
C63_4 C 0.3961(5) 0.8861(3) 0.7821(3)
H32_4 H 0.490730 0.812757 0.799473
H33_4 H 0.403429 0.892348 0.752643
H34_4 H 0.336825 0.730985 0.830997
C64_4 C 0.4391(5) 0.6650(4) 0.8535(2)
H35_4 H 0.250902 0.653035 0.780389
H36_4 H 0.439573 0.507524 0.815038
C55_3 C 0.8967(5) 0.7513(3) 0.0415(3)
S5_3 S 0.92092(12) 0.82628(9) 0.07235(6)
H31_3 H 0.974260 0.916476 0.135121
S7_3 S 0.92809(12) 0.67451(9) 0.07131(6)
C55_4 C 0.1033(5) 0.2487(3) 0.9585(3)
S5_4 S 0.07908(12) 0.17372(9) 0.92765(6)
H31_4 H 0.025740 0.083524 0.864879
S7_4 S 0.07191(12) 0.32549(9) 0.92869(6)
N21 N 0.500000 0.3037(5) 0.250000
O1 O 0.500000 0.3674(3) 0.250000
O2 O 0.4341(3) 0.2706(3) 0.22621(17)
O3 O 0.5659(3) 0.2706(3) 0.27379(17)
N21_2 N -0.000000 0.8037(5) 0.250000
O1_2 O -0.000000 0.8674(3) 0.250000
O3_2 O 0.0659(3) 0.7706(3) 0.27379(17)
N21_3 N 1.000000 0.8037(5) 0.250000
O1_3 O 1.000000 0.8674(3) 0.250000
O2_2 O 0.9341(3) 0.7706(3) 0.22621(17)
N21_4 N 0.500000 0.6963(5) 0.750000
O1_4 O 0.500000 0.6326(3) 0.750000
O2_3 O 0.5659(3) 0.7294(3) 0.77379(17)
O3_3 O 0.4341(3) 0.7294(3) 0.72621(17)
N21_5 N -0.000000 0.1963(5) 0.750000
O1_5 O -0.000000 0.1326(3) 0.750000
O2_4 O 0.0659(3) 0.2294(3) 0.77379(17)
N21_6 N 1.000000 0.1963(5) 0.750000
O1_6 O 1.000000 0.1326(3) 0.750000
O3_4 O 0.9341(3) 0.2294(3) 0.72621(17)
loop_
_geom_bond_atom_site_label_1
_geom_bond_atom_site_label_2
_geom_bond_site_symmetry_1
_geom_bond_site_symmetry_2
I1 I2 1_555 1_555
I2 I3 1_555 1_555
I2_2 I3_2 1_555 1_555
I1_3 I2_3 1_555 1_555
I2_3 I3_3 1_555 1_555
I2_4 I3_4 1_555 1_555
I1_5 I2_5 1_555 1_555
I2_5 I3_5 1_555 1_555
I2_6 I3_6 1_555 1_555
I1_7 I2_7 1_555 1_555
I2_7 I3_7 1_555 1_555
I2_8 I3_8 1_555 1_555
C40 C41 1_555 1_555
C41 H22 1_555 1_555
H23 C40 1_555 1_555
N18 C40 1_555 1_555
C49 C41 1_555 1_555
C51 C49 1_555 1_555
C56 C57 1_555 1_555
C57 H34 1_555 1_555
N20 C56 1_555 1_555
C59 C49 1_555 1_555
C61 N20 1_555 1_555
C62 C59 1_555 1_555
C63 N18 1_555 1_555
H32 C51 1_555 1_555
H33 C63 1_555 1_555
C64 C57 1_555 1_555
H35 C56 1_555 1_555
H36 C61 1_555 1_555
Cd7 N18 1_555 1_555
C51 C63 1_555 1_555
C60 C61 1_555 1_555
C60 C64 1_555 1_555
C62 C64 1_555 1_555
C2 C3 1_555 1_555
C3 C4 1_555 1_555
C4 H1 1_555 1_555
C5 C4 1_555 1_555
H2 C5 1_555 1_555
C6 C5 1_555 1_555
C7 C6 1_555 1_555
C8 C7 1_555 1_555
N3 C8 1_555 1_555
N4 C18 1_555 1_555
N5 Cd2 1_555 1_555
C9 H3 1_555 1_555
C12 C13 1_555 1_555
C13 C24 1_555 1_555
C14 C9 1_555 1_555
C15 C14 1_555 1_555
C16 C12 1_555 1_555
H6 C16 1_555 1_555
C17 C12 1_555 1_555
H7 C17 1_555 1_555
C18 C16 1_555 1_555
C20 N4 1_555 1_555
H8 C14 1_555 1_555
C22 C15 1_555 1_555
C23 C22 1_555 1_555
H9 C23 1_555 1_555
H10 C22 1_555 1_555
C24 C15 1_555 1_555
H11 C18 1_555 1_555
H12 C20 1_555 1_555
C25 S1 1_555 1_555
C28 C25 1_555 1_555
S2 C24 1_555 1_555
S3 C25 1_555 1_555
S4 C13 1_555 1_555
C35 C2 1_555 1_555
N7 C35 1_555 1_555
Cd2 N4 1_555 1_555
N9 Cd2 1_555 1_555
Cd3 N3 1_555 1_555
N12 Cd2 1_555 1_555
N14 Cd2 1_555 1_555
N16 C9 1_555 1_555
C17 C20 1_555 1_555
C23 N16 1_555 1_555
C28 S2 1_555 1_555
C28 S4 1_555 1_555
N7 Cd2 1_555 1_555
Cd3 N16 1_555 1_555
C1 C2_2 1_555 1_555
C2_2 C3_2 1_555 1_555
C7_2 C6_2 1_555 1_555
Cd1 N1 1_555 1_555
N2 C1 1_555 1_555
N6 Cd1 1_555 1_555
C10 C11 1_555 1_555
C11 H4 1_555 1_555
H5 C10 1_555 1_555
C19 C11 1_555 1_555
C21 C19 1_555 1_555
C26 C27 1_555 1_555
C27 H16 1_555 1_555
C29 C19 1_555 1_555
C31 C30 1_555 1_555
C32 C29 1_555 1_555
C33 C21 1_555 1_555
H14 C21 1_555 1_555
H15 C33 1_555 1_555
C34 C27 1_555 1_555
H17 C26 1_555 1_555
H18 C31 1_555 1_555
C36 C3_2 1_555 1_555
H19 C36 1_555 1_555
C37 C6_2 1_555 1_555
H20 C37 1_555 1_555
C38 C7_2 1_555 1_555
N8 C38 1_555 1_555
Cd4 N8 1_555 1_555
N10 Cd1 1_555 1_555
N11 Cd1 1_555 1_555
N13 Cd1 1_555 1_555
N15 C10 1_555 1_555
N17 C26 1_555 1_555
Cd5 N15 1_555 1_555
C39 H21 1_555 1_555
C42 C43 1_555 1_555
C43 C54 1_555 1_555
C44 C39 1_555 1_555
C45 C44 1_555 1_555
C46 C42 1_555 1_555
H24 C46 1_555 1_555
C47 C42 1_555 1_555
H25 C47 1_555 1_555
C48 N10 1_555 1_555
N19 Cd4 1_555 1_555
C50 N10 1_555 1_555
H26 C44 1_555 1_555
C52 C45 1_555 1_555
C53 N19 1_555 1_555
H27 C53 1_555 1_555
H28 C52 1_555 1_555
C54 C45 1_555 1_555
H29 C48 1_555 1_555
H30 C50 1_555 1_555
S6 C54 1_555 1_555
S8 C43 1_555 1_555
Cd1 N2 1_555 1_555
C30 C34 1_555 1_555
C31 N17 1_555 1_555
C32 C34 1_555 1_555
C33 N15 1_555 1_555
C36 C37 1_555 1_555
C39 N19 1_555 1_555
C46 C48 1_555 1_555
C47 C50 1_555 1_555
C52 C53 1_555 1_555
C58 S6 1_555 1_555
C58 S8 1_555 1_555
C40_2 C41_2 1_555 1_555
C41_2 H22_2 1_555 1_555
H23_2 C40_2 1_555 1_555
N18_2 C40_2 1_555 1_555
C49_2 C41_2 1_555 1_555
C51_2 C49_2 1_555 1_555
C55 S5 1_555 1_555
S5 C62_2 1_555 1_555
C56_2 C57_2 1_555 1_555
C57_2 H34_2 1_555 1_555
N20_2 C56_2 1_555 1_555
C59_2 C49_2 1_555 1_555
C60_2 H31 1_555 1_555
C61_2 N20_2 1_555 1_555
S7 C55 1_555 1_555
C62_2 C59_2 1_555 1_555
C63_2 N18_2 1_555 1_555
H32_2 C51_2 1_555 1_555
H33_2 C63_2 1_555 1_555
C64_2 C57_2 1_555 1_555
H35_2 C56_2 1_555 1_555
H36_2 C61_2 1_555 1_555
Cd6 N18_2 1_555 1_555
Cd5 N20_2 1_555 1_555
C51_2 C63_2 1_555 1_555
C59_2 S7 1_555 1_555
C60_2 C61_2 1_555 1_555
C60_2 C64_2 1_555 1_555
C62_2 C64_2 1_555 1_555
C1_2 C2_3 1_555 1_555
C2_3 C3_3 1_555 1_555
C3_3 C4_2 1_555 1_555
C4_2 H1_2 1_555 1_555
C5_2 C4_2 1_555 1_555
H2_2 C5_2 1_555 1_555
C6_3 C5_2 1_555 1_555
C7_3 C6_3 1_555 1_555
C8_2 C7_3 1_555 1_555
N2_2 C1_2 1_555 1_555
N13 C8_2 1_555 1_555
N4_2 C18_2 1_555 1_555
C9_2 H3_2 1_555 1_555
C10_2 C11_2 1_555 1_555
C11_2 H4_2 1_555 1_555
C12_2 C13_2 1_555 1_555
C13_2 C24_2 1_555 1_555
C14_2 C9_2 1_555 1_555
C15_2 C14_2 1_555 1_555
H5_2 C10_2 1_555 1_555
C16_2 C12_2 1_555 1_555
H6_2 C16_2 1_555 1_555
C17_2 C12_2 1_555 1_555
H7_2 C17_2 1_555 1_555
C18_2 C16_2 1_555 1_555
C19_2 C11_2 1_555 1_555
C20_2 N4_2 1_555 1_555
C21_2 C19_2 1_555 1_555
H8_2 C14_2 1_555 1_555
C22_2 C15_2 1_555 1_555
C23_2 C22_2 1_555 1_555
H9_2 C23_2 1_555 1_555
H10_2 C22_2 1_555 1_555
C24_2 C15_2 1_555 1_555
H11_2 C18_2 1_555 1_555
H12_2 C20_2 1_555 1_555
C25_2 S1_2 1_555 1_555
S1_2 C32_2 1_555 1_555
C26_2 C27_2 1_555 1_555
C27_2 H16_2 1_555 1_555
C28_2 C25_2 1_555 1_555
C29_2 C19_2 1_555 1_555
C30_2 H13_2 1_555 1_555
C31_2 C30_2 1_555 1_555
S2_2 C24_2 1_555 1_555
S3_2 C25_2 1_555 1_555
C32_2 C29_2 1_555 1_555
S4_2 C13_2 1_555 1_555
C33_2 C21_2 1_555 1_555
H14_2 C21_2 1_555 1_555
H15_2 C33_2 1_555 1_555
C34_2 C27_2 1_555 1_555
H17_2 C26_2 1_555 1_555
H18_2 C31_2 1_555 1_555
C35_2 C2_3 1_555 1_555
C36_2 C3_3 1_555 1_555
H19_2 C36_2 1_555 1_555
C37_2 C6_3 1_555 1_555
H20_2 C37_2 1_555 1_555
C38_2 C7_3 1_555 1_555
N7_2 C35_2 1_555 1_555
N14 C38_2 1_555 1_555
N15_2 C10_2 1_555 1_555
N1 C9_2 1_555 1_555
N17_2 C26_2 1_555 1_555
Cd8 N15_2 1_555 1_555
Cd7 N17_2 1_555 1_555
C39_2 H21_2 1_555 1_555
C42_2 C43_2 1_555 1_555
C43_2 C54_2 1_555 1_555
C44_2 C39_2 1_555 1_555
C45_2 C44_2 1_555 1_555
C46_2 C42_2 1_555 1_555
H24_2 C46_2 1_555 1_555
C47_2 C42_2 1_555 1_555
H25_2 C47_2 1_555 1_555
C48_2 N10_2 1_555 1_555
C50_2 N10_2 1_555 1_555
H26_2 C44_2 1_555 1_555
C52_2 C45_2 1_555 1_555
C53_2 N9 1_555 1_555
H27_2 C53_2 1_555 1_555
H28_2 C52_2 1_555 1_555
C54_2 C45_2 1_555 1_555
H29_2 C48_2 1_555 1_555
H30_2 C50_2 1_555 1_555
S6_2 C54_2 1_555 1_555
S8_2 C43_2 1_555 1_555
C17_2 C20_2 1_555 1_555
C23_2 N1 1_555 1_555
C28_2 S2_2 1_555 1_555
C28_2 S4_2 1_555 1_555
C29_2 S3_2 1_555 1_555
C30_2 C34_2 1_555 1_555
C31_2 N17_2 1_555 1_555
C32_2 C34_2 1_555 1_555
C33_2 N15_2 1_555 1_555
C36_2 C37_2 1_555 1_555
C39_2 N9 1_555 1_555
C46_2 C48_2 1_555 1_555
C47_2 C50_2 1_555 1_555
C52_2 C53_2 1_555 1_555
C58_2 S6_2 1_555 1_555
C58_2 S8_2 1_555 1_555
N5_2 Cd4 1_555 1_555
N11_2 Cd3 1_555 1_555
C1_3 C2_4 1_555 1_555
C2_4 C3_4 1_555 1_555
C7_4 C6_4 1_555 1_555
Cd7 N1_2 1_555 1_555
N2_3 C1_3 1_555 1_555
C10_3 C11_3 1_555 1_555
C11_3 H4_3 1_555 1_555
H5_3 C10_3 1_555 1_555
C19_3 C11_3 1_555 1_555
C21_3 C19_3 1_555 1_555
C26_3 C27_3 1_555 1_555
C27_3 H16_3 1_555 1_555
C29_3 C19_3 1_555 1_555
C31_3 C30_3 1_555 1_555
C32_3 C29_3 1_555 1_555
C33_3 C21_3 1_555 1_555
H14_3 C21_3 1_555 1_555
H15_3 C33_3 1_555 1_555
C34_3 C27_3 1_555 1_555
H17_3 C26_3 1_555 1_555
H18_3 C31_3 1_555 1_555
C36_3 C3_4 1_555 1_555
H19_3 C36_3 1_555 1_555
C37_3 C6_4 1_555 1_555
H20_3 C37_3 1_555 1_555
C38_3 C7_4 1_555 1_555
N8_2 C38_3 1_555 1_555
Cd8 N8_2 1_555 1_555
N10_3 Cd7 1_555 1_555
N13_2 Cd7 1_555 1_555
N5 C10_3 1_555 1_555
N6_2 C26_3 1_555 1_555
C39_3 H21_3 1_555 1_555
C42_3 C43_3 1_555 1_555
C43_3 C54_3 1_555 1_555
C44_3 C39_3 1_555 1_555
C45_3 C44_3 1_555 1_555
C46_3 C42_3 1_555 1_555
H24_3 C46_3 1_555 1_555
C47_3 C42_3 1_555 1_555
H25_3 C47_3 1_555 1_555
C48_3 N10_3 1_555 1_555
N19_2 Cd8 1_555 1_555
C50_3 N10_3 1_555 1_555
H26_3 C44_3 1_555 1_555
C52_3 C45_3 1_555 1_555
C53_3 N19_2 1_555 1_555
H27_3 C53_3 1_555 1_555
H28_3 C52_3 1_555 1_555
C54_3 C45_3 1_555 1_555
H29_3 C48_3 1_555 1_555
H30_3 C50_3 1_555 1_555
S6_3 C54_3 1_555 1_555
S8_3 C43_3 1_555 1_555
Cd7 N2_3 1_555 1_555
C30_3 C34_3 1_555 1_555
C31_3 N6_2 1_555 1_555
C32_3 C34_3 1_555 1_555
C33_3 N5 1_555 1_555
C36_3 C37_3 1_555 1_555
C39_3 N19_2 1_555 1_555
C46_3 C48_3 1_555 1_555
C47_3 C50_3 1_555 1_555
C52_3 C53_3 1_555 1_555
C58_3 S6_3 1_555 1_555
C58_3 S8_3 1_555 1_555
C2_5 C3_5 1_555 1_555
C3_5 C4_3 1_555 1_555
C4_3 H1_3 1_555 1_555
C5_3 C4_3 1_555 1_555
H2_3 C5_3 1_555 1_555
C6_5 C5_3 1_555 1_555
C7_5 C6_5 1_555 1_555
C8_3 C7_5 1_555 1_555
N3_2 C8_3 1_555 1_555
N4_3 C18_3 1_555 1_555
C9_3 H3_3 1_555 1_555
C12_3 C13_3 1_555 1_555
C13_3 C24_3 1_555 1_555
C14_3 C9_3 1_555 1_555
C15_3 C14_3 1_555 1_555
C16_3 C12_3 1_555 1_555
H6_3 C16_3 1_555 1_555
C17_3 C12_3 1_555 1_555
H7_3 C17_3 1_555 1_555
C18_3 C16_3 1_555 1_555
C20_3 N4_3 1_555 1_555
H8_3 C14_3 1_555 1_555
C22_3 C15_3 1_555 1_555
C23_3 C22_3 1_555 1_555
H9_3 C23_3 1_555 1_555
H10_3 C22_3 1_555 1_555
C24_3 C15_3 1_555 1_555
H11_3 C18_3 1_555 1_555
H12_3 C20_3 1_555 1_555
C25_3 S1_3 1_555 1_555
C28_3 C25_3 1_555 1_555
S2_3 C24_3 1_555 1_555
S3_3 C25_3 1_555 1_555
S4_3 C13_3 1_555 1_555
C35_3 C2_5 1_555 1_555
N7_3 C35_3 1_555 1_555
Cd5 N4_3 1_555 1_555
N9_2 Cd5 1_555 1_555
Cd6 N3_2 1_555 1_555
N14_2 Cd5 1_555 1_555
N16_2 C9_3 1_555 1_555
C17_3 C20_3 1_555 1_555
C23_3 N16_2 1_555 1_555
C28_3 S2_3 1_555 1_555
C28_3 S4_3 1_555 1_555
N7_3 Cd5 1_555 1_555
Cd6 N16_2 1_555 1_555
C40_3 C41_3 1_555 1_555
C41_3 H22_3 1_555 1_555
H23_3 C40_3 1_555 1_555
N11 C40_3 1_555 1_555
C49_3 C41_3 1_555 1_555
C51_3 C49_3 1_555 1_555
C56_3 C57_3 1_555 1_555
C57_3 H34_3 1_555 1_555
N12_2 C56_3 1_555 1_555
C59_3 C49_3 1_555 1_555
C61_3 N12_2 1_555 1_555
C62_3 C59_3 1_555 1_555
C63_3 N11 1_555 1_555
H32_3 C51_3 1_555 1_555
H33_3 C63_3 1_555 1_555
C64_3 C57_3 1_555 1_555
H35_3 C56_3 1_555 1_555
H36_3 C61_3 1_555 1_555
C51_3 C63_3 1_555 1_555
C60_3 C61_3 1_555 1_555
C60_3 C64_3 1_555 1_555
C62_3 C64_3 1_555 1_555
C1_4 C2_6 1_555 1_555
C2_6 C3_6 1_555 1_555
C3_6 C4_4 1_555 1_555
C4_4 H1_4 1_555 1_555
C5_4 C4_4 1_555 1_555
H2_4 C5_4 1_555 1_555
C6_6 C5_4 1_555 1_555
C7_6 C6_6 1_555 1_555
C8_4 C7_6 1_555 1_555
N2_4 C1_4 1_555 1_555
N13_2 C8_4 1_555 1_555
N4_4 C18_4 1_555 1_555
C9_4 H3_4 1_555 1_555
C10_4 C11_4 1_555 1_555
C11_4 H4_4 1_555 1_555
C12_4 C13_4 1_555 1_555
C13_4 C24_4 1_555 1_555
C14_4 C9_4 1_555 1_555
C15_4 C14_4 1_555 1_555
H5_4 C10_4 1_555 1_555
C16_4 C12_4 1_555 1_555
H6_4 C16_4 1_555 1_555
C17_4 C12_4 1_555 1_555
H7_4 C17_4 1_555 1_555
C18_4 C16_4 1_555 1_555
C19_4 C11_4 1_555 1_555
C20_4 N4_4 1_555 1_555
C21_4 C19_4 1_555 1_555
H8_4 C14_4 1_555 1_555
C22_4 C15_4 1_555 1_555
C23_4 C22_4 1_555 1_555
H9_4 C23_4 1_555 1_555
H10_4 C22_4 1_555 1_555
C24_4 C15_4 1_555 1_555
H11_4 C18_4 1_555 1_555
H12_4 C20_4 1_555 1_555
C25_4 S1_4 1_555 1_555
S1_4 C32_4 1_555 1_555
C26_4 C27_4 1_555 1_555
C27_4 H16_4 1_555 1_555
C28_4 C25_4 1_555 1_555
C29_4 C19_4 1_555 1_555
C30_4 H13_4 1_555 1_555
C31_4 C30_4 1_555 1_555
S2_4 C24_4 1_555 1_555
S3_4 C25_4 1_555 1_555
C32_4 C29_4 1_555 1_555
S4_4 C13_4 1_555 1_555
C33_4 C21_4 1_555 1_555
H14_4 C21_4 1_555 1_555
H15_4 C33_4 1_555 1_555
C34_4 C27_4 1_555 1_555
H17_4 C26_4 1_555 1_555
H18_4 C31_4 1_555 1_555
C35_4 C2_6 1_555 1_555
C36_4 C3_6 1_555 1_555
H19_4 C36_4 1_555 1_555
C37_4 C6_6 1_555 1_555
H20_4 C37_4 1_555 1_555
C38_4 C7_6 1_555 1_555
N7_4 C35_4 1_555 1_555
N14_2 C38_4 1_555 1_555
N5_2 C10_4 1_555 1_555
N1_2 C9_4 1_555 1_555
N6 C26_4 1_555 1_555
C39_4 H21_4 1_555 1_555
C42_4 C43_4 1_555 1_555
C43_4 C54_4 1_555 1_555
C44_4 C39_4 1_555 1_555
C45_4 C44_4 1_555 1_555
C46_4 C42_4 1_555 1_555
H24_4 C46_4 1_555 1_555
C47_4 C42_4 1_555 1_555
H25_4 C47_4 1_555 1_555
C48_4 N10_4 1_555 1_555
C50_4 N10_4 1_555 1_555
H26_4 C44_4 1_555 1_555
C52_4 C45_4 1_555 1_555
C53_4 N9_2 1_555 1_555
H27_4 C53_4 1_555 1_555
H28_4 C52_4 1_555 1_555
C54_4 C45_4 1_555 1_555
H29_4 C48_4 1_555 1_555
H30_4 C50_4 1_555 1_555
S6_4 C54_4 1_555 1_555
S8_4 C43_4 1_555 1_555
C17_4 C20_4 1_555 1_555
C23_4 N1_2 1_555 1_555
C28_4 S2_4 1_555 1_555
C28_4 S4_4 1_555 1_555
C29_4 S3_4 1_555 1_555
C30_4 C34_4 1_555 1_555
C31_4 N6 1_555 1_555
C32_4 C34_4 1_555 1_555
C33_4 N5_2 1_555 1_555
C36_4 C37_4 1_555 1_555
C39_4 N9_2 1_555 1_555
C46_4 C48_4 1_555 1_555
C47_4 C50_4 1_555 1_555
C52_4 C53_4 1_555 1_555
C58_4 S6_4 1_555 1_555
C58_4 S8_4 1_555 1_555
C40_4 C41_4 1_555 1_555
C41_4 H22_4 1_555 1_555
H23_4 C40_4 1_555 1_555
N11_2 C40_4 1_555 1_555
C49_4 C41_4 1_555 1_555
C51_4 C49_4 1_555 1_555
C55_2 S5_2 1_555 1_555
S5_2 C62_4 1_555 1_555
C56_4 C57_4 1_555 1_555
C57_4 H34_4 1_555 1_555
N12 C56_4 1_555 1_555
C59_4 C49_4 1_555 1_555
C60_4 H31_2 1_555 1_555
C61_4 N12 1_555 1_555
S7_2 C55_2 1_555 1_555
C62_4 C59_4 1_555 1_555
C63_4 N11_2 1_555 1_555
H32_4 C51_4 1_555 1_555
H33_4 C63_4 1_555 1_555
C64_4 C57_4 1_555 1_555
H35_4 C56_4 1_555 1_555
H36_4 C61_4 1_555 1_555
C51_4 C63_4 1_555 1_555
C59_4 S7_2 1_555 1_555
C60_4 C61_4 1_555 1_555
C60_4 C64_4 1_555 1_555
C62_4 C64_4 1_555 1_555
C55_3 S5_3 1_555 1_555
S7_3 C55_3 1_555 1_555
C55_4 S5_4 1_555 1_555
S7_4 C55_4 1_555 1_555
N21 O1 1_555 1_555
O2 N21 1_555 1_555
O3 N21 1_555 1_555
N21_2 O1_2 1_555 1_555
O3_2 N21_2 1_555 1_555
N21_3 O1_3 1_555 1_555
O2_2 N21_3 1_555 1_555
N21_4 O1_4 1_555 1_555
O2_3 N21_4 1_555 1_555
O3_3 N21_4 1_555 1_555
N21_5 O1_5 1_555 1_555
O2_4 N21_5 1_555 1_555
N21_6 O1_6 1_555 1_555
O3_4 N21_6 1_555 1_555

#END
