
###############################################################################
#
# This file contains modified crystal structure data generated from the
# MOF subset of the Cambridge Structural Database (CSD) v543 
# hosted by the Cambridge Crystallographic Data Centre (CCDC).
#
# This work is licensed under the Creative Commons
# Attribution-NonCommercial-ShareAlike 4.0 International License.
# To view a copy of this license, visit
# http://creativecommons.org/licenses/by-nc-sa/4.0/
# or send a letter to
# Creative Commons, PO Box 1866, Mountain View, CA 94042, USA.
#
# CIF created using the CSD Python API on 29 September 2022
# The structure has been converted into the P1 space group
# The structure has a 3D framework
# The original CSD entry GODNIZ is in the monoclinic crystal system
# The framework has been calculated to contain at least 10.0% void space
# The void calculation uses a probe of radius 1.32A, grid spacing 0.4
# The framework is charged, counterions have been retained in the structure
#
###############################################################################

data_GODNIZ
_chemical_formula_moiety         '(C312 H160 Cd8 N70 O14 S32 4-)n'
_symmetry_cell_setting           triclinic
_symmetry_space_group_name_H-M   'P 1'
_symmetry_Int_Tables_number      1
_space_group_name_Hall           'P 1'
loop_
_symmetry_equiv_pos_site_id
_symmetry_equiv_pos_as_xyz
1 x,y,z
_cell_length_a                   15.8627(9)
_cell_length_b                   19.7621(9)
_cell_length_c                   31.3526(15)
_cell_angle_alpha                90
_cell_angle_beta                 103.6961(19)
_cell_angle_gamma                90
_cell_volume                     9548.95
loop_
_atom_site_label
_atom_site_type_symbol
_atom_site_fract_x
_atom_site_fract_y
_atom_site_fract_z
C5 C 0.0367(6) 0.0015(4) 0.0425(3)
H1 H 0.062081 0.001990 0.072453
C12 C 0.0913(6) 0.0060(4) 0.0158(3)
H4 H 0.150827 0.010249 0.027069
C7 C 0.1967(6) 0.0033(5) 0.9559(4)
C8 C 0.1059(7) 0.0063(5) 0.9399(4)
C9 C 0.0665(9) 0.0045(7) 0.8936(4)
C10 C 0.0548(6) 0.0041(4) 0.9694(3)
N4 N 0.2680(8) 0.0059(6) 0.9726(5)
N3 N 0.0442(6) 0.9983(5) 0.8577(3)
N1 N 0.9558(6) 0.0017(5) 0.1423(3)
C1 C 0.8033(6) 0.9967(5) 0.0441(4)
C2 C 0.8941(7) 0.9937(5) 0.0601(4)
C3 C 0.9335(9) 0.9955(7) 0.1064(4)
C4 C 0.9452(6) 0.9959(4) 0.0306(3)
N2 N 0.7320(8) 0.9941(6) 0.0274(5)
C6 C 0.9087(6) 0.9940(4) 0.9842(3)
H2 H 0.849173 0.989751 0.972931
C11 C 0.9633(6) 0.9985(4) 0.9575(3)
H3 H 0.937919 0.998010 0.927547
N1_2 N 0.0442(6) 0.0017(5) 0.3577(3)
C1_2 C 0.1967(6) 0.9967(5) 0.4559(4)
C2_2 C 0.1059(7) 0.9937(5) 0.4399(4)
C3_2 C 0.0665(9) 0.9955(7) 0.3936(4)
C4_2 C 0.0548(6) 0.9959(4) 0.4694(3)
C6_2 C 0.0913(6) 0.9940(4) 0.5158(3)
H2_2 H 0.150827 0.989751 0.527069
N2_2 N 0.2680(8) 0.9941(6) 0.4726(5)
C11_2 C 0.0367(6) 0.9985(4) 0.5425(3)
H3_2 H 0.062081 0.998010 0.572453
C5_2 C 0.9633(6) 0.0015(4) 0.4575(3)
H1_2 H 0.937919 0.001990 0.427547
C7_2 C 0.8033(6) 0.0033(5) 0.5441(4)
C8_2 C 0.8941(7) 0.0063(5) 0.5601(4)
C9_2 C 0.9335(9) 0.0045(7) 0.6064(4)
C10_2 C 0.9452(6) 0.0041(4) 0.5306(3)
C12_2 C 0.9087(6) 0.0060(4) 0.4842(3)
H4_2 H 0.849173 0.010249 0.472931
N4_2 N 0.7320(8) 0.0059(6) 0.5274(5)
N3_2 N 0.9558(6) 0.9983(5) 0.6423(3)
C1_3 C 0.3033(6) 0.4967(5) 0.0441(4)
C2_3 C 0.3941(7) 0.4937(5) 0.0601(4)
C3_3 C 0.4335(9) 0.4955(7) 0.1064(4)
C4_3 C 0.4452(6) 0.4959(4) 0.0306(3)
C5_3 C 0.5367(6) 0.5015(4) 0.0425(3)
H1_3 H 0.562081 0.501990 0.072453
N1_3 N 0.4558(6) 0.5017(5) 0.1423(3)
N2_3 N 0.2320(8) 0.4941(6) 0.0274(5)
C12_3 C 0.5913(6) 0.5060(4) 0.0158(3)
H4_3 H 0.650827 0.510249 0.027069
C6_3 C 0.4087(6) 0.4940(4) 0.9842(3)
H2_3 H 0.349173 0.489751 0.972931
C7_3 C 0.6967(6) 0.5033(5) 0.9559(4)
C8_3 C 0.6059(7) 0.5063(5) 0.9399(4)
C9_3 C 0.5665(9) 0.5045(7) 0.8936(4)
C10_3 C 0.5548(6) 0.5041(4) 0.9694(3)
C11_3 C 0.4633(6) 0.4985(4) 0.9575(3)
H3_3 H 0.437919 0.498010 0.927547
N3_3 N 0.5442(6) 0.4983(5) 0.8577(3)
N4_3 N 0.7680(8) 0.5059(6) 0.9726(5)
C1_4 C 0.6967(6) 0.4967(5) 0.4559(4)
C2_4 C 0.6059(7) 0.4937(5) 0.4399(4)
C3_4 C 0.5665(9) 0.4955(7) 0.3936(4)
C4_4 C 0.5548(6) 0.4959(4) 0.4694(3)
C5_4 C 0.4633(6) 0.5015(4) 0.4575(3)
H1_4 H 0.437919 0.501990 0.427547
C6_4 C 0.5913(6) 0.4940(4) 0.5158(3)
H2_4 H 0.650827 0.489751 0.527069
N1_4 N 0.5442(6) 0.5017(5) 0.3577(3)
N2_4 N 0.7680(8) 0.4941(6) 0.4726(5)
C7_4 C 0.3033(6) 0.5033(5) 0.5441(4)
C8_4 C 0.3941(7) 0.5063(5) 0.5601(4)
C9_4 C 0.4335(9) 0.5045(7) 0.6064(4)
C10_4 C 0.4452(6) 0.5041(4) 0.5306(3)
C11_4 C 0.5367(6) 0.4985(4) 0.5425(3)
H3_4 H 0.562081 0.498010 0.572453
C12_4 C 0.4087(6) 0.5060(4) 0.4842(3)
H4_4 H 0.349173 0.510249 0.472931
N3_4 N 0.4558(6) 0.4983(5) 0.6423(3)
N4_4 N 0.2320(8) 0.5059(6) 0.5274(5)
N5 N 0.000000 0.3011(3) 0.250000
O2 O 0.000000 0.3638(3) 0.250000
O3 O 0.06279(19) 0.27000(19) 0.27310(11)
N5_2 N 1.000000 0.3011(3) 0.250000
O1 O 0.93721(19) 0.27000(19) 0.22690(11)
O2_2 O 1.000000 0.3638(3) 0.250000
N5_3 N 0.500000 0.8011(3) 0.250000
O1_2 O 0.43721(19) 0.77000(19) 0.22690(11)
O2_3 O 0.500000 0.8638(3) 0.250000
O3_2 O 0.56279(19) 0.77000(19) 0.27310(11)
N5_4 N 0.000000 0.6989(3) 0.750000
O1_3 O 0.06279(19) 0.73000(19) 0.77310(11)
O2_4 O 0.000000 0.6362(3) 0.750000
N5_5 N 1.000000 0.6989(3) 0.750000
O2_5 O 1.000000 0.6362(3) 0.750000
O3_3 O 0.93721(19) 0.73000(19) 0.72690(11)
N5_6 N 0.500000 0.1989(3) 0.750000
O1_4 O 0.56279(19) 0.23000(19) 0.77310(11)
O2_6 O 0.500000 0.1362(3) 0.750000
O3_4 O 0.43721(19) 0.23000(19) 0.72690(11)
Cd8 Cd 0.74700(2) 0.00020(2) 0.25055(2)
C40 C 0.000000 0.1064(3) 0.750000
C41 C 0.000000 0.1802(3) 0.750000
C42 C 0.0697(3) 0.2175(3) 0.77452(17)
H21 H 0.117405 0.194558 0.791250
C43 C 0.0699(3) 0.2868(2) 0.77467(17)
H22 H 0.117327 0.310103 0.791413
C44 C 0.000000 0.3225(3) 0.750000
C45 C 0.000000 0.3980(3) 0.750000
C46 C 0.0749(3) 0.4346(2) 0.76810(14)
N11 N 0.1379(2) 0.46357(19) 0.78253(12)
C47 C 0.0760(3) 0.0687(2) 0.76457(14)
N12 N 0.1399(2) 0.03986(19) 0.77637(13)
Cd4 Cd 0.24700(2) 0.49980(2) 0.75055(2)
N18 N 0.2246(2) 0.08313(17) 0.69453(10)
N23 N 0.3462(2) 0.07598(16) 0.79643(9)
C64 C 0.3954(3) 0.74858(19) 0.04094(11)
C65 C 0.4977(2) 0.7835(2) 0.11446(11)
C66 C 0.5512(2) 0.8310(2) 0.14608(11)
C67 C 0.5213(2) 0.8947(2) 0.15311(12)
H33 H 0.465702 0.907790 0.138399
C68 C 0.5736(2) 0.9393(2) 0.18201(12)
H34 H 0.551508 0.981640 0.186411
C69 C 0.6828(3) 0.8625(2) 0.19733(14)
H35 H 0.738594 0.850887 0.212664
C70 C 0.6355(3) 0.8151(2) 0.16964(14)
H36 H 0.659137 0.772879 0.166543
C71 C 0.5031(2) 0.7160(2) 0.11292(11)
C72 C 0.5596(2) 0.66948(19) 0.14463(11)
C73 C 0.5507(2) 0.6624(2) 0.18807(11)
H37 H 0.509525 0.687295 0.198115
C74 C 0.6045(3) 0.6176(2) 0.21522(11)
H38 H 0.599102 0.613661 0.244012
C75 C 0.6720(2) 0.5870(2) 0.16133(12)
H39 H 0.714201 0.561703 0.152425
C76 C 0.6215(3) 0.6298(2) 0.13155(12)
H40 H 0.628533 0.632368 0.102967
N16 N 0.6637(2) 0.57971(17) 0.20293(10)
N17 N 0.6538(2) 0.92402(16) 0.20357(9)
S5 S 0.41779(6) 0.82205(5) 0.07217(3)
S6 S 0.43001(7) 0.67404(5) 0.07017(3)
Cd9 Cd 0.75300(2) 0.50020(2) 0.24945(2)
C51 C 0.2465(3) 0.9334(2) 0.84216(13)
H25 H 0.216554 0.973663 0.842802
C52 C 0.2577(3) 0.8912(2) 0.87760(13)
H26 H 0.236704 0.903595 0.901769
C53 C 0.3005(2) 0.82948(19) 0.87760(11)
C54 C 0.3328(3) 0.8158(2) 0.84100(13)
H27 H 0.363518 0.776118 0.839601
C55 C 0.3190(3) 0.8612(2) 0.80691(13)
H28 H 0.340416 0.850833 0.782535
C56 C 0.3141(3) 0.7836(2) 0.91575(12)
C57 C 0.3169(2) 0.7159(2) 0.91554(11)
C58 C 0.3040(2) 0.67075(19) 0.87725(11)
C59 C 0.2238(2) 0.6692(2) 0.84618(11)
H29 H 0.178941 0.697921 0.848968
C60 C 0.2128(2) 0.62469(19) 0.81167(11)
H30 H 0.159242 0.623349 0.791636
C61 C 0.3543(2) 0.5859(2) 0.83443(12)
H31 H 0.399797 0.559564 0.829595
C62 C 0.3676(3) 0.6273(2) 0.87086(12)
H32 H 0.420482 0.625762 0.891453
C63 C 0.3571(3) 0.74942(19) 0.99771(12)
Cd2 Cd 0.25300(2) 0.99980(2) 0.74945(2)
N14 N 0.2761(2) 0.91992(17) 0.80694(10)
N15 N 0.2754(2) 0.58313(17) 0.80547(10)
S7 S 0.32601(7) 0.82337(5) 0.96749(3)
S8 S 0.33413(7) 0.67444(5) 0.96651(3)
N20 N 0.1637(2) 0.92029(17) 0.70293(10)
N25 N 0.3621(2) 0.96357(19) 0.71747(12)
C39 C 0.9240(3) 0.0687(2) 0.73543(14)
C40_2 C 1.000000 0.1064(3) 0.750000
C41_2 C 1.000000 0.1802(3) 0.750000
C44_2 C 1.000000 0.3225(3) 0.750000
C45_2 C 1.000000 0.3980(3) 0.750000
N10 N 0.8601(2) 0.03986(19) 0.72363(13)
C48 C 0.9303(3) 0.2175(3) 0.72548(17)
H23 H 0.882595 0.194558 0.708750
C49 C 0.9301(3) 0.2868(2) 0.72533(17)
H24 H 0.882673 0.310103 0.708587
C50 C 0.9251(3) 0.4346(2) 0.73190(14)
N13 N 0.8621(2) 0.46357(19) 0.71747(12)
Cd6 Cd 0.75300(2) 0.49980(2) 0.74945(2)
Cd7 Cd 0.25300(2) 0.00020(2) 0.24945(2)
N19 N 0.7754(2) 0.08313(17) 0.80547(10)
N22 N 0.6538(2) 0.07598(16) 0.70357(9)
C13 C 0.7535(3) 0.9334(2) 0.65784(13)
H5 H 0.783446 0.973663 0.657198
C14 C 0.7423(3) 0.8912(2) 0.62240(13)
H6 H 0.763296 0.903595 0.598231
C15 C 0.6995(2) 0.82948(19) 0.62240(11)
C16 C 0.6672(3) 0.8158(2) 0.65900(13)
H7 H 0.636482 0.776118 0.660399
C17 C 0.6810(3) 0.8612(2) 0.69309(13)
H8 H 0.659584 0.850833 0.717465
C18 C 0.6859(3) 0.7836(2) 0.58425(12)
C19 C 0.6831(2) 0.7159(2) 0.58446(11)
C20 C 0.6960(2) 0.67075(19) 0.62275(11)
C21 C 0.7762(2) 0.6692(2) 0.65382(11)
H9 H 0.821059 0.697921 0.651032
C22 C 0.7872(2) 0.62469(19) 0.68833(11)
H10 H 0.840758 0.623349 0.708364
C23 C 0.6457(2) 0.5859(2) 0.66557(12)
H11 H 0.600203 0.559564 0.670405
C24 C 0.6324(3) 0.6273(2) 0.62914(12)
H12 H 0.579518 0.625762 0.608547
C25 C 0.6429(3) 0.74942(19) 0.50229(12)
C26 C 0.6046(3) 0.74858(19) 0.45906(11)
C27 C 0.5023(2) 0.7835(2) 0.38554(11)
C28 C 0.4488(2) 0.8310(2) 0.35392(11)
C29 C 0.4787(2) 0.8947(2) 0.34689(12)
H13 H 0.534298 0.907790 0.361601
C30 C 0.4264(2) 0.9393(2) 0.31799(12)
H14 H 0.448492 0.981640 0.313589
C31 C 0.3172(3) 0.8625(2) 0.30267(14)
H15 H 0.261406 0.850887 0.287336
C32 C 0.3645(3) 0.8151(2) 0.33036(14)
H16 H 0.340863 0.772879 0.333457
C33 C 0.4969(2) 0.7160(2) 0.38708(11)
C34 C 0.4404(2) 0.66948(19) 0.35537(11)
C35 C 0.4493(2) 0.6624(2) 0.31193(11)
H17 H 0.490475 0.687295 0.301885
C36 C 0.3955(3) 0.6176(2) 0.28478(11)
H18 H 0.400898 0.613661 0.255988
C37 C 0.3280(2) 0.5870(2) 0.33867(12)
H19 H 0.285799 0.561703 0.347575
C38 C 0.3785(3) 0.6298(2) 0.36845(12)
H20 H 0.371467 0.632368 0.397033
Cd1 Cd 0.74700(2) 0.99980(2) 0.75055(2)
N6 N 0.7239(2) 0.91992(17) 0.69306(10)
N7 N 0.7246(2) 0.58313(17) 0.69453(10)
N8 N 0.3363(2) 0.57971(17) 0.29707(10)
N9 N 0.3462(2) 0.92402(16) 0.29643(9)
S1 S 0.58221(6) 0.82205(5) 0.42783(3)
S2 S 0.56999(7) 0.67404(5) 0.42983(3)
S3 S 0.67399(7) 0.82337(5) 0.53251(3)
S4 S 0.66587(7) 0.67444(5) 0.53349(3)
Cd10 Cd 0.24700(2) 0.50020(2) 0.25055(2)
N21 N 0.8363(2) 0.92029(17) 0.79707(10)
N24 N 0.6379(2) 0.96357(19) 0.78253(12)
C66_2 C 0.0512(2) 0.3310(2) 0.14608(11)
C67_2 C 0.0213(2) 0.3947(2) 0.15311(12)
C68_2 C 0.0736(2) 0.4393(2) 0.18201(12)
H34_2 H 0.051508 0.481640 0.186411
C69_2 C 0.1828(3) 0.3625(2) 0.19733(14)
H35_2 H 0.238594 0.350887 0.212664
C70_2 C 0.1355(3) 0.3151(2) 0.16964(14)
H36_2 H 0.159137 0.272879 0.166543
C71_2 C 0.0031(2) 0.2160(2) 0.11292(11)
C72_2 C 0.0596(2) 0.16948(19) 0.14463(11)
C73_2 C 0.0507(2) 0.1624(2) 0.18807(11)
H37_2 H 0.009525 0.187295 0.198115
C74_2 C 0.1045(3) 0.1176(2) 0.21522(11)
H38_2 H 0.099102 0.113661 0.244012
C75_2 C 0.1720(2) 0.0870(2) 0.16133(12)
H39_2 H 0.214201 0.061703 0.152425
C76_2 C 0.1215(3) 0.1298(2) 0.13155(12)
H40_2 H 0.128533 0.132368 0.102967
N16_2 N 0.1637(2) 0.07971(17) 0.20293(10)
N17_2 N 0.1538(2) 0.42402(16) 0.20357(9)
C13_2 C 0.2535(3) 0.4334(2) 0.65784(13)
H5_2 H 0.283446 0.473663 0.657198
C14_2 C 0.2423(3) 0.3912(2) 0.62240(13)
H6_2 H 0.263296 0.403595 0.598231
C15_2 C 0.1995(2) 0.32948(19) 0.62240(11)
C16_2 C 0.1672(3) 0.3158(2) 0.65900(13)
H7_2 H 0.136482 0.276118 0.660399
C17_2 C 0.1810(3) 0.3612(2) 0.69309(13)
H8_2 H 0.159584 0.350833 0.717465
C18_2 C 0.1859(3) 0.2836(2) 0.58425(12)
C19_2 C 0.1831(2) 0.2159(2) 0.58446(11)
C20_2 C 0.1960(2) 0.17075(19) 0.62275(11)
C21_2 C 0.2762(2) 0.1692(2) 0.65382(11)
H9_2 H 0.321059 0.197921 0.651032
C22_2 C 0.2872(2) 0.12469(19) 0.68833(11)
H10_2 H 0.340758 0.123349 0.708364
C23_2 C 0.1457(2) 0.0859(2) 0.66557(12)
H11_2 H 0.100203 0.059564 0.670405
C24_2 C 0.1324(3) 0.1273(2) 0.62914(12)
H12_2 H 0.079518 0.125762 0.608547
C25_2 C 0.1429(3) 0.24942(19) 0.50229(12)
C26_2 C 0.1046(3) 0.24858(19) 0.45906(11)
C27_2 C 0.0023(2) 0.2835(2) 0.38554(11)
H13_2 H 0.034298 0.407790 0.361601
C39_2 C 0.4240(3) 0.5687(2) 0.73543(14)
C40_3 C 0.500000 0.6064(3) 0.750000
C41_3 C 0.500000 0.6802(3) 0.750000
C42_2 C 0.5697(3) 0.7175(3) 0.77452(17)
H21_2 H 0.617405 0.694558 0.791250
C43_2 C 0.5699(3) 0.7868(2) 0.77467(17)
H22_2 H 0.617327 0.810103 0.791413
C44_3 C 0.500000 0.8225(3) 0.750000
C45_3 C 0.500000 0.8980(3) 0.750000
C46_2 C 0.5749(3) 0.9346(2) 0.76810(14)
N6_2 N 0.2239(2) 0.41992(17) 0.69306(10)
N10_2 N 0.3601(2) 0.53986(19) 0.72363(13)
S1_2 S 0.08221(6) 0.32205(5) 0.42783(3)
S2_2 S 0.06999(7) 0.17404(5) 0.42983(3)
S3_2 S 0.17399(7) 0.32337(5) 0.53251(3)
S4_2 S 0.16587(7) 0.17444(5) 0.53349(3)
C47_2 C 0.5760(3) 0.5687(2) 0.76457(14)
C48_2 C 0.4303(3) 0.7175(3) 0.72548(17)
H23_2 H 0.382595 0.694558 0.708750
C49_2 C 0.4301(3) 0.7868(2) 0.72533(17)
H24_2 H 0.382673 0.810103 0.708587
C50_2 C 0.4251(3) 0.9346(2) 0.73190(14)
N12_2 N 0.6399(2) 0.53986(19) 0.77637(13)
C51_2 C 0.7465(3) 0.4334(2) 0.84216(13)
H25_2 H 0.716554 0.473663 0.842802
C52_2 C 0.7577(3) 0.3912(2) 0.87760(13)
H26_2 H 0.736704 0.403595 0.901769
C53_2 C 0.8005(2) 0.32948(19) 0.87760(11)
C54_2 C 0.8328(3) 0.3158(2) 0.84100(13)
H27_2 H 0.863518 0.276118 0.839601
C55_2 C 0.8190(3) 0.3612(2) 0.80691(13)
H28_2 H 0.840416 0.350833 0.782535
C56_2 C 0.8141(3) 0.2836(2) 0.91575(12)
C57_2 C 0.8169(2) 0.2159(2) 0.91554(11)
C58_2 C 0.8040(2) 0.17075(19) 0.87725(11)
C59_2 C 0.7238(2) 0.1692(2) 0.84618(11)
H29_2 H 0.678941 0.197921 0.848968
C60_2 C 0.7128(2) 0.12469(19) 0.81167(11)
H30_2 H 0.659242 0.123349 0.791636
C61_2 C 0.8543(2) 0.0859(2) 0.83443(12)
H31_2 H 0.899797 0.059564 0.829595
C62_2 C 0.8676(3) 0.1273(2) 0.87086(12)
H32_2 H 0.920482 0.125762 0.891453
C63_2 C 0.8571(3) 0.24942(19) 0.99771(12)
N14_2 N 0.7761(2) 0.41992(17) 0.80694(10)
S7_2 S 0.82601(7) 0.32337(5) 0.96749(3)
S8_2 S 0.83413(7) 0.17444(5) 0.96651(3)
N20_2 N 0.6637(2) 0.42029(17) 0.70293(10)
N21_2 N 0.3363(2) 0.42029(17) 0.79707(10)
N22_2 N 0.1538(2) 0.57598(16) 0.70357(9)
N23_2 N 0.8462(2) 0.57598(16) 0.79643(9)
C28_2 C 0.9488(2) 0.3310(2) 0.35392(11)
C29_2 C 0.9787(2) 0.3947(2) 0.34689(12)
C30_2 C 0.9264(2) 0.4393(2) 0.31799(12)
H14_2 H 0.948492 0.481640 0.313589
C31_2 C 0.8172(3) 0.3625(2) 0.30267(14)
H15_2 H 0.761406 0.350887 0.287336
C32_2 C 0.8645(3) 0.3151(2) 0.33036(14)
H16_2 H 0.840863 0.272879 0.333457
C33_2 C 0.9969(2) 0.2160(2) 0.38708(11)
C34_2 C 0.9404(2) 0.16948(19) 0.35537(11)
C35_2 C 0.9493(2) 0.1624(2) 0.31193(11)
H17_2 H 0.990475 0.187295 0.301885
C36_2 C 0.8955(3) 0.1176(2) 0.28478(11)
H18_2 H 0.900898 0.113661 0.255988
C37_2 C 0.8280(2) 0.0870(2) 0.33867(12)
H19_2 H 0.785799 0.061703 0.347575
C38_2 C 0.8785(3) 0.1298(2) 0.36845(12)
H20_2 H 0.871467 0.132368 0.397033
N8_2 N 0.8363(2) 0.07971(17) 0.29707(10)
N9_2 N 0.8462(2) 0.42402(16) 0.29643(9)
C13_3 C 0.2465(3) 0.0666(2) 0.34216(13)
H5_3 H 0.216554 0.026337 0.342802
C14_3 C 0.2577(3) 0.1088(2) 0.37760(13)
H6_3 H 0.236704 0.096405 0.401769
C15_3 C 0.3005(2) 0.17052(19) 0.37760(11)
C16_3 C 0.3328(3) 0.1842(2) 0.34100(13)
H7_3 H 0.363518 0.223882 0.339601
C17_3 C 0.3190(3) 0.1388(2) 0.30691(13)
H8_3 H 0.340416 0.149167 0.282535
C18_3 C 0.3141(3) 0.2164(2) 0.41575(12)
C19_3 C 0.3169(2) 0.2841(2) 0.41554(11)
C20_3 C 0.3040(2) 0.32925(19) 0.37725(11)
C21_3 C 0.2238(2) 0.3308(2) 0.34618(11)
H9_3 H 0.178941 0.302079 0.348968
C22_3 C 0.2128(2) 0.37531(19) 0.31167(11)
H10_3 H 0.159242 0.376651 0.291636
C23_3 C 0.3543(2) 0.4141(2) 0.33443(12)
H11_3 H 0.399797 0.440436 0.329595
C24_3 C 0.3676(3) 0.3727(2) 0.37086(12)
H12_3 H 0.420482 0.374238 0.391453
C25_3 C 0.3571(3) 0.25058(19) 0.49771(12)
C26_3 C 0.3954(3) 0.25142(19) 0.54094(11)
C27_3 C 0.4977(2) 0.2165(2) 0.61446(11)
C28_3 C 0.5512(2) 0.1690(2) 0.64608(11)
C29_3 C 0.5213(2) 0.1053(2) 0.65311(12)
H13_3 H 0.465702 0.092210 0.638399
C30_3 C 0.5736(2) 0.0607(2) 0.68201(12)
H14_3 H 0.551508 0.018360 0.686411
C31_3 C 0.6828(3) 0.1375(2) 0.69733(14)
H15_3 H 0.738594 0.149113 0.712664
C32_3 C 0.6355(3) 0.1849(2) 0.66964(14)
H16_3 H 0.659137 0.227121 0.666543
C33_3 C 0.5031(2) 0.2840(2) 0.61292(11)
C34_3 C 0.5596(2) 0.33052(19) 0.64463(11)
C35_3 C 0.5507(2) 0.3376(2) 0.68807(11)
H17_3 H 0.509525 0.312705 0.698115
C36_3 C 0.6045(3) 0.3824(2) 0.71522(11)
H18_3 H 0.599102 0.386339 0.744012
C37_3 C 0.6720(2) 0.4130(2) 0.66133(12)
H19_3 H 0.714201 0.438297 0.652425
C38_3 C 0.6215(3) 0.3702(2) 0.63155(12)
H20_3 H 0.628533 0.367632 0.602967
N6_3 N 0.2761(2) 0.08008(17) 0.30694(10)
N7_2 N 0.2754(2) 0.41687(17) 0.30547(10)
S1_3 S 0.41779(6) 0.17795(5) 0.57217(3)
S2_3 S 0.43001(7) 0.32596(5) 0.57017(3)
S3_3 S 0.32601(7) 0.17663(5) 0.46749(3)
S4_3 S 0.33413(7) 0.32556(5) 0.46651(3)
N24_2 N 0.3621(2) 0.03643(19) 0.21747(12)
C39_3 C 0.0760(3) 0.9313(2) 0.26457(14)
C40_4 C 0.000000 0.8936(3) 0.250000
C41_4 C 0.000000 0.8198(3) 0.250000
C44_4 C 0.000000 0.6775(3) 0.250000
C45_4 C 0.000000 0.6020(3) 0.250000
N10_3 N 0.1399(2) 0.96014(19) 0.27637(13)
C48_3 C 0.0697(3) 0.7825(3) 0.27452(17)
H23_3 H 0.117405 0.805442 0.291250
C49_3 C 0.0699(3) 0.7132(2) 0.27467(17)
H24_3 H 0.117327 0.689897 0.291413
C50_3 C 0.0749(3) 0.5654(2) 0.26810(14)
N13_2 N 0.1379(2) 0.53643(19) 0.28253(12)
N19_2 N 0.2246(2) 0.91687(17) 0.19453(10)
C51_3 C 0.7535(3) 0.0666(2) 0.15784(13)
H25_3 H 0.783446 0.026337 0.157198
C52_3 C 0.7423(3) 0.1088(2) 0.12240(13)
H26_3 H 0.763296 0.096405 0.098231
C53_3 C 0.6995(2) 0.17052(19) 0.12240(11)
C54_3 C 0.6672(3) 0.1842(2) 0.15900(13)
H27_3 H 0.636482 0.223882 0.160399
C55_3 C 0.6810(3) 0.1388(2) 0.19309(13)
H28_3 H 0.659584 0.149167 0.217465
C56_3 C 0.6859(3) 0.2164(2) 0.08425(12)
C57_3 C 0.6831(2) 0.2841(2) 0.08446(11)
C58_3 C 0.6960(2) 0.32925(19) 0.12275(11)
C59_3 C 0.7762(2) 0.3308(2) 0.15382(11)
H29_3 H 0.821059 0.302079 0.151032
C60_3 C 0.7872(2) 0.37531(19) 0.18833(11)
H30_3 H 0.840758 0.376651 0.208364
C61_3 C 0.6457(2) 0.4141(2) 0.16557(12)
H31_3 H 0.600203 0.440436 0.170405
C62_3 C 0.6324(3) 0.3727(2) 0.12914(12)
H32_3 H 0.579518 0.374238 0.108547
C63_3 C 0.6429(3) 0.25058(19) 0.00229(12)
N14_3 N 0.7239(2) 0.08008(17) 0.19306(10)
N15_2 N 0.7246(2) 0.41687(17) 0.19453(10)
S7_3 S 0.67399(7) 0.17663(5) 0.03251(3)
S8_3 S 0.66587(7) 0.32556(5) 0.03349(3)
N25_2 N 0.6379(2) 0.03643(19) 0.28253(12)
C64_2 C 0.6046(3) 0.25142(19) 0.95906(11)
C65_2 C 0.5023(2) 0.2165(2) 0.88554(11)
C66_3 C 0.4488(2) 0.1690(2) 0.85392(11)
C67_3 C 0.4787(2) 0.1053(2) 0.84689(12)
H33_2 H 0.534298 0.092210 0.861601
C68_3 C 0.4264(2) 0.0607(2) 0.81799(12)
H34_3 H 0.448492 0.018360 0.813589
C69_3 C 0.3172(3) 0.1375(2) 0.80267(14)
H35_3 H 0.261406 0.149113 0.787336
C70_3 C 0.3645(3) 0.1849(2) 0.83036(14)
H36_3 H 0.340863 0.227121 0.833457
C71_3 C 0.4969(2) 0.2840(2) 0.88708(11)
C72_3 C 0.4404(2) 0.33052(19) 0.85537(11)
C73_3 C 0.4493(2) 0.3376(2) 0.81193(11)
H37_3 H 0.490475 0.312705 0.801885
C74_3 C 0.3955(3) 0.3824(2) 0.78478(11)
H38_3 H 0.400898 0.386339 0.755988
C75_3 C 0.3280(2) 0.4130(2) 0.83867(12)
H39_3 H 0.285799 0.438297 0.847575
C76_3 C 0.3785(3) 0.3702(2) 0.86845(12)
H40_3 H 0.371467 0.367632 0.897033
S5_2 S 0.58221(6) 0.17795(5) 0.92783(3)
S6_2 S 0.56999(7) 0.32596(5) 0.92983(3)
C40_5 C 1.000000 0.8936(3) 0.250000
C41_5 C 1.000000 0.8198(3) 0.250000
C42_3 C 0.9303(3) 0.7825(3) 0.22548(17)
H21_3 H 0.882595 0.805442 0.208750
C43_3 C 0.9301(3) 0.7132(2) 0.22533(17)
H22_3 H 0.882673 0.689897 0.208587
C44_5 C 1.000000 0.6775(3) 0.250000
C45_5 C 1.000000 0.6020(3) 0.250000
C46_3 C 0.9251(3) 0.5654(2) 0.23190(14)
N11_2 N 0.8621(2) 0.53643(19) 0.21747(12)
C47_3 C 0.9240(3) 0.9313(2) 0.23543(14)
N12_3 N 0.8601(2) 0.96014(19) 0.22363(13)
N18_2 N 0.7754(2) 0.91687(17) 0.30547(10)
C28_4 C 0.0512(2) 0.6690(2) 0.64608(11)
C29_4 C 0.0213(2) 0.6053(2) 0.65311(12)
C30_4 C 0.0736(2) 0.5607(2) 0.68201(12)
H14_4 H 0.051508 0.518360 0.686411
C31_4 C 0.1828(3) 0.6375(2) 0.69733(14)
H15_4 H 0.238594 0.649113 0.712664
C32_4 C 0.1355(3) 0.6849(2) 0.66964(14)
H16_4 H 0.159137 0.727121 0.666543
C33_4 C 0.0031(2) 0.7840(2) 0.61292(11)
C34_4 C 0.0596(2) 0.83052(19) 0.64463(11)
C35_4 C 0.0507(2) 0.8376(2) 0.68807(11)
H17_4 H 0.009525 0.812705 0.698115
C36_4 C 0.1045(3) 0.8824(2) 0.71522(11)
H18_4 H 0.099102 0.886339 0.744012
C37_4 C 0.1720(2) 0.9130(2) 0.66133(12)
H19_4 H 0.214201 0.938297 0.652425
C38_4 C 0.1215(3) 0.8702(2) 0.63155(12)
H20_4 H 0.128533 0.867632 0.602967
C13_4 C 0.7465(3) 0.5666(2) 0.34216(13)
H5_4 H 0.716554 0.526337 0.342802
C14_4 C 0.7577(3) 0.6088(2) 0.37760(13)
H6_4 H 0.736704 0.596405 0.401769
C15_4 C 0.8005(2) 0.67052(19) 0.37760(11)
C16_4 C 0.8328(3) 0.6842(2) 0.34100(13)
H7_4 H 0.863518 0.723882 0.339601
C17_4 C 0.8190(3) 0.6388(2) 0.30691(13)
H8_4 H 0.840416 0.649167 0.282535
C18_4 C 0.8141(3) 0.7164(2) 0.41575(12)
C19_4 C 0.8169(2) 0.7841(2) 0.41554(11)
C20_4 C 0.8040(2) 0.82925(19) 0.37725(11)
C21_4 C 0.7238(2) 0.8308(2) 0.34618(11)
H9_4 H 0.678941 0.802079 0.348968
C22_4 C 0.7128(2) 0.87531(19) 0.31167(11)
H10_4 H 0.659242 0.876651 0.291636
C23_4 C 0.8543(2) 0.9141(2) 0.33443(12)
H11_4 H 0.899797 0.940436 0.329595
C24_4 C 0.8676(3) 0.8727(2) 0.37086(12)
H12_4 H 0.920482 0.874238 0.391453
C25_4 C 0.8571(3) 0.75058(19) 0.49771(12)
C26_4 C 0.8954(3) 0.75142(19) 0.54094(11)
C27_4 C 0.9977(2) 0.7165(2) 0.61446(11)
H13_4 H 0.965702 0.592210 0.638399
C39_4 C 0.5760(3) 0.4313(2) 0.26457(14)
C40_6 C 0.500000 0.3936(3) 0.250000
C41_6 C 0.500000 0.3198(3) 0.250000
C42_4 C 0.4303(3) 0.2825(3) 0.22548(17)
H21_4 H 0.382595 0.305442 0.208750
C43_4 C 0.4301(3) 0.2132(2) 0.22533(17)
H22_4 H 0.382673 0.189897 0.208587
C44_6 C 0.500000 0.1775(3) 0.250000
C45_6 C 0.500000 0.1020(3) 0.250000
C46_4 C 0.4251(3) 0.0654(2) 0.23190(14)
N6_4 N 0.7761(2) 0.58008(17) 0.30694(10)
N10_4 N 0.6399(2) 0.46014(19) 0.27637(13)
S1_4 S 0.91779(6) 0.67795(5) 0.57217(3)
S2_4 S 0.93001(7) 0.82596(5) 0.57017(3)
S3_4 S 0.82601(7) 0.67663(5) 0.46749(3)
S4_4 S 0.83413(7) 0.82556(5) 0.46651(3)
C47_4 C 0.4240(3) 0.4313(2) 0.23543(14)
C48_4 C 0.5697(3) 0.2825(3) 0.27452(17)
H23_4 H 0.617405 0.305442 0.291250
C49_4 C 0.5699(3) 0.2132(2) 0.27467(17)
H24_4 H 0.617327 0.189897 0.291413
C50_4 C 0.5749(3) 0.0654(2) 0.26810(14)
N12_4 N 0.3601(2) 0.46014(19) 0.22363(13)
C51_4 C 0.2535(3) 0.5666(2) 0.15784(13)
H25_4 H 0.283446 0.526337 0.157198
C52_4 C 0.2423(3) 0.6088(2) 0.12240(13)
H26_4 H 0.263296 0.596405 0.098231
C53_4 C 0.1995(2) 0.67052(19) 0.12240(11)
C54_4 C 0.1672(3) 0.6842(2) 0.15900(13)
H27_4 H 0.136482 0.723882 0.160399
C55_4 C 0.1810(3) 0.6388(2) 0.19309(13)
H28_4 H 0.159584 0.649167 0.217465
C56_4 C 0.1859(3) 0.7164(2) 0.08425(12)
C57_4 C 0.1831(2) 0.7841(2) 0.08446(11)
C58_4 C 0.1960(2) 0.82925(19) 0.12275(11)
C59_4 C 0.2762(2) 0.8308(2) 0.15382(11)
H29_4 H 0.321059 0.802079 0.151032
C60_4 C 0.2872(2) 0.87531(19) 0.18833(11)
H30_4 H 0.340758 0.876651 0.208364
C61_4 C 0.1457(2) 0.9141(2) 0.16557(12)
H31_4 H 0.100203 0.940436 0.170405
C62_4 C 0.1324(3) 0.8727(2) 0.12914(12)
H32_4 H 0.079518 0.874238 0.108547
C63_4 C 0.1429(3) 0.75058(19) 0.00229(12)
N14_4 N 0.2239(2) 0.58008(17) 0.19306(10)
S7_4 S 0.17399(7) 0.67663(5) 0.03251(3)
S8_4 S 0.16587(7) 0.82556(5) 0.03349(3)
C66_4 C 0.9488(2) 0.6690(2) 0.85392(11)
C67_4 C 0.9787(2) 0.6053(2) 0.84689(12)
C68_4 C 0.9264(2) 0.5607(2) 0.81799(12)
H34_4 H 0.948492 0.518360 0.813589
C69_4 C 0.8172(3) 0.6375(2) 0.80267(14)
H35_4 H 0.761406 0.649113 0.787336
C70_4 C 0.8645(3) 0.6849(2) 0.83036(14)
H36_4 H 0.840863 0.727121 0.833457
C71_4 C 0.9969(2) 0.7840(2) 0.88708(11)
C72_4 C 0.9404(2) 0.83052(19) 0.85537(11)
C73_4 C 0.9493(2) 0.8376(2) 0.81193(11)
H37_4 H 0.990475 0.812705 0.801885
C74_4 C 0.8955(3) 0.8824(2) 0.78478(11)
H38_4 H 0.900898 0.886339 0.755988
C75_4 C 0.8280(2) 0.9130(2) 0.83867(12)
H39_4 H 0.785799 0.938297 0.847575
C76_4 C 0.8785(3) 0.8702(2) 0.86845(12)
H40_4 H 0.871467 0.867632 0.897033
C64_3 C 0.8954(3) 0.24858(19) 0.04094(11)
C65_3 C 0.9977(2) 0.2835(2) 0.11446(11)
H33_3 H 0.965702 0.407790 0.138399
S5_3 S 0.91779(6) 0.32205(5) 0.07217(3)
S6_3 S 0.93001(7) 0.17404(5) 0.07017(3)
C64_4 C 0.1046(3) 0.75142(19) 0.95906(11)
C65_4 C 0.0023(2) 0.7165(2) 0.88554(11)
H33_4 H 0.034298 0.592210 0.861601
S5_4 S 0.08221(6) 0.67795(5) 0.92783(3)
S6_4 S 0.06999(7) 0.82596(5) 0.92983(3)
loop_
_geom_bond_atom_site_label_1
_geom_bond_atom_site_label_2
_geom_bond_site_symmetry_1
_geom_bond_site_symmetry_2
H1 C5 1_555 1_555
C12 C5 1_555 1_555
H4 C12 1_555 1_555
C7 C8 1_555 1_555
C8 C9 1_555 1_555
C10 C8 1_555 1_555
N4 C7 1_555 1_555
C1 C2 1_555 1_555
C2 C3 1_555 1_555
C4 C2 1_555 1_555
N2 C1 1_555 1_555
H2 C6 1_555 1_555
C11 C6 1_555 1_555
H3 C11 1_555 1_555
C1_2 C2_2 1_555 1_555
C2_2 C3_2 1_555 1_555
C4_2 C2_2 1_555 1_555
C6_2 C4_2 1_555 1_555
H2_2 C6_2 1_555 1_555
N2_2 C1_2 1_555 1_555
C11_2 C6_2 1_555 1_555
H3_2 C11_2 1_555 1_555
H1_2 C5_2 1_555 1_555
C7_2 C8_2 1_555 1_555
C8_2 C9_2 1_555 1_555
C10_2 C8_2 1_555 1_555
C12_2 C5_2 1_555 1_555
H4_2 C12_2 1_555 1_555
N4_2 C7_2 1_555 1_555
C10_2 C12_2 1_555 1_555
C1_3 C2_3 1_555 1_555
C2_3 C3_3 1_555 1_555
C3_3 N1_3 1_555 1_555
C4_3 C2_3 1_555 1_555
C5_3 C4_3 1_555 1_555
H1_3 C5_3 1_555 1_555
N2_3 C1_3 1_555 1_555
C12_3 C5_3 1_555 1_555
H4_3 C12_3 1_555 1_555
H2_3 C6_3 1_555 1_555
C7_3 C8_3 1_555 1_555
C8_3 C9_3 1_555 1_555
C9_3 N3_3 1_555 1_555
C10_3 C8_3 1_555 1_555
C11_3 C6_3 1_555 1_555
H3_3 C11_3 1_555 1_555
N4_3 C7_3 1_555 1_555
C10_3 C11_3 1_555 1_555
C1_4 C2_4 1_555 1_555
C2_4 C3_4 1_555 1_555
C3_4 N1_4 1_555 1_555
C4_4 C2_4 1_555 1_555
C5_4 C4_4 1_555 1_555
H1_4 C5_4 1_555 1_555
C6_4 C4_4 1_555 1_555
H2_4 C6_4 1_555 1_555
N2_4 C1_4 1_555 1_555
C7_4 C8_4 1_555 1_555
C8_4 C9_4 1_555 1_555
C9_4 N3_4 1_555 1_555
C10_4 C8_4 1_555 1_555
C11_4 C6_4 1_555 1_555
H3_4 C11_4 1_555 1_555
C12_4 C5_4 1_555 1_555
H4_4 C12_4 1_555 1_555
N4_4 C7_4 1_555 1_555
C10_4 C11_4 1_555 1_555
C10_4 C12_4 1_555 1_555
O2 N5 1_555 1_555
O3 N5 1_555 1_555
N5_2 O1 1_555 1_555
O2_2 N5_2 1_555 1_555
N5_3 O1_2 1_555 1_555
O2_3 N5_3 1_555 1_555
O3_2 N5_3 1_555 1_555
N5_4 O1_3 1_555 1_555
O2_4 N5_4 1_555 1_555
O2_5 N5_5 1_555 1_555
O3_3 N5_5 1_555 1_555
N5_6 O1_4 1_555 1_555
O2_6 N5_6 1_555 1_555
O3_4 N5_6 1_555 1_555
C40 C41 1_555 1_555
C41 C42 1_555 1_555
C42 H21 1_555 1_555
C43 C42 1_555 1_555
H22 C43 1_555 1_555
C44 C43 1_555 1_555
C45 C44 1_555 1_555
C46 C45 1_555 1_555
N11 C46 1_555 1_555
C47 C40 1_555 1_555
N12 C47 1_555 1_555
Cd4 N11 1_555 1_555
C64 S5 1_555 1_555
C65 C66 1_555 1_555
C66 C67 1_555 1_555
C67 H33 1_555 1_555
C68 C67 1_555 1_555
H34 C68 1_555 1_555
C69 H35 1_555 1_555
C70 C66 1_555 1_555
H36 C70 1_555 1_555
C71 C65 1_555 1_555
C72 C71 1_555 1_555
C73 C72 1_555 1_555
H37 C73 1_555 1_555
C74 C73 1_555 1_555
H38 C74 1_555 1_555
C75 H39 1_555 1_555
C76 C72 1_555 1_555
H40 C76 1_555 1_555
N16 C74 1_555 1_555
N17 C68 1_555 1_555
S5 C65 1_555 1_555
S6 C64 1_555 1_555
Cd9 N16 1_555 1_555
C69 C70 1_555 1_555
C69 N17 1_555 1_555
C71 S6 1_555 1_555
C75 C76 1_555 1_555
C75 N16 1_555 1_555
C51 H25 1_555 1_555
C52 C51 1_555 1_555
H26 C52 1_555 1_555
C53 C52 1_555 1_555
C54 C53 1_555 1_555
H27 C54 1_555 1_555
C55 C54 1_555 1_555
H28 C55 1_555 1_555
C56 C53 1_555 1_555
C57 C56 1_555 1_555
C58 C57 1_555 1_555
C59 C58 1_555 1_555
H29 C59 1_555 1_555
C60 C59 1_555 1_555
H30 C60 1_555 1_555
C61 H31 1_555 1_555
C62 C58 1_555 1_555
H32 C62 1_555 1_555
N14 C51 1_555 1_555
N15 C60 1_555 1_555
S7 C56 1_555 1_555
S8 C57 1_555 1_555
Cd4 N15 1_555 1_555
N20 Cd2 1_555 1_555
N25 Cd2 1_555 1_555
C55 N14 1_555 1_555
C61 C62 1_555 1_555
C61 N15 1_555 1_555
C63 S7 1_555 1_555
C63 S8 1_555 1_555
Cd2 N14 1_555 1_555
C39 C40_2 1_555 1_555
C40_2 C41_2 1_555 1_555
C45_2 C44_2 1_555 1_555
N10 C39 1_555 1_555
C48 C41_2 1_555 1_555
H23 C48 1_555 1_555
C49 C44_2 1_555 1_555
H24 C49 1_555 1_555
C50 C45_2 1_555 1_555
N13 C50 1_555 1_555
Cd6 N13 1_555 1_555
C48 C49 1_555 1_555
C13 H5 1_555 1_555
C14 C13 1_555 1_555
H6 C14 1_555 1_555
C15 C14 1_555 1_555
C16 C15 1_555 1_555
H7 C16 1_555 1_555
C17 C16 1_555 1_555
H8 C17 1_555 1_555
C18 C15 1_555 1_555
C19 C18 1_555 1_555
C20 C19 1_555 1_555
C21 C20 1_555 1_555
H9 C21 1_555 1_555
C22 C21 1_555 1_555
H10 C22 1_555 1_555
C23 H11 1_555 1_555
C24 C20 1_555 1_555
H12 C24 1_555 1_555
C25 C26 1_555 1_555
C26 S1 1_555 1_555
C27 C28 1_555 1_555
C28 C29 1_555 1_555
C29 H13 1_555 1_555
C30 C29 1_555 1_555
H14 C30 1_555 1_555
C31 H15 1_555 1_555
C32 C28 1_555 1_555
H16 C32 1_555 1_555
C33 C27 1_555 1_555
C34 C33 1_555 1_555
C35 C34 1_555 1_555
H17 C35 1_555 1_555
C36 C35 1_555 1_555
H18 C36 1_555 1_555
C37 H19 1_555 1_555
C38 C34 1_555 1_555
H20 C38 1_555 1_555
Cd1 N6 1_555 1_555
N6 C13 1_555 1_555
N7 C22 1_555 1_555
N8 C36 1_555 1_555
N9 C30 1_555 1_555
S1 C27 1_555 1_555
S2 C26 1_555 1_555
S3 C18 1_555 1_555
S4 C19 1_555 1_555
Cd6 N7 1_555 1_555
Cd10 N8 1_555 1_555
N21 Cd1 1_555 1_555
N24 Cd1 1_555 1_555
C17 N6 1_555 1_555
C23 C24 1_555 1_555
C23 N7 1_555 1_555
C25 S3 1_555 1_555
C25 S4 1_555 1_555
C31 C32 1_555 1_555
C31 N9 1_555 1_555
C33 S2 1_555 1_555
C37 C38 1_555 1_555
C37 N8 1_555 1_555
C66_2 C67_2 1_555 1_555
C68_2 C67_2 1_555 1_555
H34_2 C68_2 1_555 1_555
C69_2 H35_2 1_555 1_555
C70_2 C66_2 1_555 1_555
H36_2 C70_2 1_555 1_555
C72_2 C71_2 1_555 1_555
C73_2 C72_2 1_555 1_555
H37_2 C73_2 1_555 1_555
C74_2 C73_2 1_555 1_555
H38_2 C74_2 1_555 1_555
C75_2 H39_2 1_555 1_555
C76_2 C72_2 1_555 1_555
H40_2 C76_2 1_555 1_555
N16_2 C74_2 1_555 1_555
N17_2 C68_2 1_555 1_555
Cd10 N17_2 1_555 1_555
Cd7 N16_2 1_555 1_555
C69_2 C70_2 1_555 1_555
C69_2 N17_2 1_555 1_555
C75_2 C76_2 1_555 1_555
C75_2 N16_2 1_555 1_555
C13_2 H5_2 1_555 1_555
C14_2 C13_2 1_555 1_555
H6_2 C14_2 1_555 1_555
C15_2 C14_2 1_555 1_555
C16_2 C15_2 1_555 1_555
H7_2 C16_2 1_555 1_555
C17_2 C16_2 1_555 1_555
H8_2 C17_2 1_555 1_555
C18_2 C15_2 1_555 1_555
C19_2 C18_2 1_555 1_555
C20_2 C19_2 1_555 1_555
C21_2 C20_2 1_555 1_555
H9_2 C21_2 1_555 1_555
C22_2 C21_2 1_555 1_555
H10_2 C22_2 1_555 1_555
C23_2 H11_2 1_555 1_555
C24_2 C20_2 1_555 1_555
H12_2 C24_2 1_555 1_555
C25_2 C26_2 1_555 1_555
C26_2 S1_2 1_555 1_555
C39_2 C40_3 1_555 1_555
C40_3 C41_3 1_555 1_555
C41_3 C42_2 1_555 1_555
C42_2 H21_2 1_555 1_555
C43_2 C42_2 1_555 1_555
H22_2 C43_2 1_555 1_555
C44_3 C43_2 1_555 1_555
C45_3 C44_3 1_555 1_555
C46_2 C45_3 1_555 1_555
Cd4 N6_2 1_555 1_555
N6_2 C13_2 1_555 1_555
N18 C22_2 1_555 1_555
N10_2 C39_2 1_555 1_555
N24 C46_2 1_555 1_555
S1_2 C27_2 1_555 1_555
S2_2 C26_2 1_555 1_555
S3_2 C18_2 1_555 1_555
S4_2 C19_2 1_555 1_555
C47_2 C40_3 1_555 1_555
C48_2 C41_3 1_555 1_555
H23_2 C48_2 1_555 1_555
C49_2 C44_3 1_555 1_555
H24_2 C49_2 1_555 1_555
C50_2 C45_3 1_555 1_555
N12_2 C47_2 1_555 1_555
N25 C50_2 1_555 1_555
C51_2 H25_2 1_555 1_555
C52_2 C51_2 1_555 1_555
H26_2 C52_2 1_555 1_555
C53_2 C52_2 1_555 1_555
C54_2 C53_2 1_555 1_555
H27_2 C54_2 1_555 1_555
C55_2 C54_2 1_555 1_555
H28_2 C55_2 1_555 1_555
C56_2 C53_2 1_555 1_555
C57_2 C56_2 1_555 1_555
C58_2 C57_2 1_555 1_555
C59_2 C58_2 1_555 1_555
H29_2 C59_2 1_555 1_555
C60_2 C59_2 1_555 1_555
H30_2 C60_2 1_555 1_555
C61_2 H31_2 1_555 1_555
C62_2 C58_2 1_555 1_555
H32_2 C62_2 1_555 1_555
Cd6 N12_2 1_555 1_555
N14_2 C51_2 1_555 1_555
N19 C60_2 1_555 1_555
S7_2 C56_2 1_555 1_555
S8_2 C57_2 1_555 1_555
N20_2 Cd6 1_555 1_555
N21_2 Cd4 1_555 1_555
N22_2 Cd4 1_555 1_555
N23_2 Cd6 1_555 1_555
C17_2 N6_2 1_555 1_555
C23_2 C24_2 1_555 1_555
C23_2 N18 1_555 1_555
C25_2 S3_2 1_555 1_555
C25_2 S4_2 1_555 1_555
Cd4 N10_2 1_555 1_555
C48_2 C49_2 1_555 1_555
C55_2 N14_2 1_555 1_555
C61_2 C62_2 1_555 1_555
C61_2 N19 1_555 1_555
C63_2 S7_2 1_555 1_555
C63_2 S8_2 1_555 1_555
Cd6 N14_2 1_555 1_555
C28_2 C29_2 1_555 1_555
C30_2 C29_2 1_555 1_555
H14_2 C30_2 1_555 1_555
C31_2 H15_2 1_555 1_555
C32_2 C28_2 1_555 1_555
H16_2 C32_2 1_555 1_555
C34_2 C33_2 1_555 1_555
C35_2 C34_2 1_555 1_555
H17_2 C35_2 1_555 1_555
C36_2 C35_2 1_555 1_555
H18_2 C36_2 1_555 1_555
C37_2 H19_2 1_555 1_555
C38_2 C34_2 1_555 1_555
H20_2 C38_2 1_555 1_555
N8_2 C36_2 1_555 1_555
N9_2 C30_2 1_555 1_555
Cd9 N9_2 1_555 1_555
Cd8 N8_2 1_555 1_555
C31_2 C32_2 1_555 1_555
C31_2 N9_2 1_555 1_555
C37_2 C38_2 1_555 1_555
C37_2 N8_2 1_555 1_555
C13_3 H5_3 1_555 1_555
C14_3 C13_3 1_555 1_555
H6_3 C14_3 1_555 1_555
C15_3 C14_3 1_555 1_555
C16_3 C15_3 1_555 1_555
H7_3 C16_3 1_555 1_555
C17_3 C16_3 1_555 1_555
H8_3 C17_3 1_555 1_555
C18_3 C15_3 1_555 1_555
C19_3 C18_3 1_555 1_555
C20_3 C19_3 1_555 1_555
C21_3 C20_3 1_555 1_555
H9_3 C21_3 1_555 1_555
C22_3 C21_3 1_555 1_555
H10_3 C22_3 1_555 1_555
C23_3 H11_3 1_555 1_555
C24_3 C20_3 1_555 1_555
H12_3 C24_3 1_555 1_555
C25_3 C26_3 1_555 1_555
C26_3 S1_3 1_555 1_555
C27_3 C28_3 1_555 1_555
C28_3 C29_3 1_555 1_555
C29_3 H13_3 1_555 1_555
C30_3 C29_3 1_555 1_555
H14_3 C30_3 1_555 1_555
C31_3 H15_3 1_555 1_555
C32_3 C28_3 1_555 1_555
H16_3 C32_3 1_555 1_555
C33_3 C27_3 1_555 1_555
C34_3 C33_3 1_555 1_555
C35_3 C34_3 1_555 1_555
H17_3 C35_3 1_555 1_555
C36_3 C35_3 1_555 1_555
H18_3 C36_3 1_555 1_555
C37_3 H19_3 1_555 1_555
C38_3 C34_3 1_555 1_555
H20_3 C38_3 1_555 1_555
Cd7 N6_3 1_555 1_555
N6_3 C13_3 1_555 1_555
N7_2 C22_3 1_555 1_555
N20_2 C36_3 1_555 1_555
N22 C30_3 1_555 1_555
S1_3 C27_3 1_555 1_555
S2_3 C26_3 1_555 1_555
S3_3 C18_3 1_555 1_555
S4_3 C19_3 1_555 1_555
Cd10 N7_2 1_555 1_555
N24_2 Cd7 1_555 1_555
C17_3 N6_3 1_555 1_555
C23_3 C24_3 1_555 1_555
C23_3 N7_2 1_555 1_555
C25_3 S3_3 1_555 1_555
C25_3 S4_3 1_555 1_555
C31_3 C32_3 1_555 1_555
C31_3 N22 1_555 1_555
C33_3 S2_3 1_555 1_555
C37_3 C38_3 1_555 1_555
C37_3 N20_2 1_555 1_555
C39_3 C40_4 1_555 1_555
C40_4 C41_4 1_555 1_555
C45_4 C44_4 1_555 1_555
N10_3 C39_3 1_555 1_555
C48_3 C41_4 1_555 1_555
H23_3 C48_3 1_555 1_555
C49_3 C44_4 1_555 1_555
H24_3 C49_3 1_555 1_555
C50_3 C45_4 1_555 1_555
N13_2 C50_3 1_555 1_555
Cd10 N13_2 1_555 1_555
C48_3 C49_3 1_555 1_555
C51_3 H25_3 1_555 1_555
C52_3 C51_3 1_555 1_555
H26_3 C52_3 1_555 1_555
C53_3 C52_3 1_555 1_555
C54_3 C53_3 1_555 1_555
H27_3 C54_3 1_555 1_555
C55_3 C54_3 1_555 1_555
H28_3 C55_3 1_555 1_555
C56_3 C53_3 1_555 1_555
C57_3 C56_3 1_555 1_555
C58_3 C57_3 1_555 1_555
C59_3 C58_3 1_555 1_555
H29_3 C59_3 1_555 1_555
C60_3 C59_3 1_555 1_555
H30_3 C60_3 1_555 1_555
C61_3 H31_3 1_555 1_555
C62_3 C58_3 1_555 1_555
H32_3 C62_3 1_555 1_555
N14_3 C51_3 1_555 1_555
N15_2 C60_3 1_555 1_555
S7_3 C56_3 1_555 1_555
S8_3 C57_3 1_555 1_555
Cd9 N15_2 1_555 1_555
N25_2 Cd8 1_555 1_555
C55_3 N14_3 1_555 1_555
C61_3 C62_3 1_555 1_555
C61_3 N15_2 1_555 1_555
C63_3 S7_3 1_555 1_555
C63_3 S8_3 1_555 1_555
Cd8 N14_3 1_555 1_555
C64_2 S5_2 1_555 1_555
C65_2 C66_3 1_555 1_555
C66_3 C67_3 1_555 1_555
C67_3 H33_2 1_555 1_555
C68_3 C67_3 1_555 1_555
H34_3 C68_3 1_555 1_555
C69_3 H35_3 1_555 1_555
C70_3 C66_3 1_555 1_555
H36_3 C70_3 1_555 1_555
C71_3 C65_2 1_555 1_555
C72_3 C71_3 1_555 1_555
C73_3 C72_3 1_555 1_555
H37_3 C73_3 1_555 1_555
C74_3 C73_3 1_555 1_555
H38_3 C74_3 1_555 1_555
C75_3 H39_3 1_555 1_555
C76_3 C72_3 1_555 1_555
H40_3 C76_3 1_555 1_555
N21_2 C74_3 1_555 1_555
N23 C68_3 1_555 1_555
S5_2 C65_2 1_555 1_555
S6_2 C64_2 1_555 1_555
C69_3 C70_3 1_555 1_555
C69_3 N23 1_555 1_555
C71_3 S6_2 1_555 1_555
C75_3 C76_3 1_555 1_555
C75_3 N21_2 1_555 1_555
C40_5 C41_5 1_555 1_555
C41_5 C42_3 1_555 1_555
C42_3 H21_3 1_555 1_555
C43_3 C42_3 1_555 1_555
H22_3 C43_3 1_555 1_555
C44_5 C43_3 1_555 1_555
C45_5 C44_5 1_555 1_555
C46_3 C45_5 1_555 1_555
N11_2 C46_3 1_555 1_555
C47_3 C40_5 1_555 1_555
N12_3 C47_3 1_555 1_555
Cd9 N11_2 1_555 1_555
C28_4 C29_4 1_555 1_555
C30_4 C29_4 1_555 1_555
H14_4 C30_4 1_555 1_555
C31_4 H15_4 1_555 1_555
C32_4 C28_4 1_555 1_555
H16_4 C32_4 1_555 1_555
C34_4 C33_4 1_555 1_555
C35_4 C34_4 1_555 1_555
H17_4 C35_4 1_555 1_555
C36_4 C35_4 1_555 1_555
H18_4 C36_4 1_555 1_555
C37_4 H19_4 1_555 1_555
C38_4 C34_4 1_555 1_555
H20_4 C38_4 1_555 1_555
N20 C36_4 1_555 1_555
N22_2 C30_4 1_555 1_555
C31_4 C32_4 1_555 1_555
C31_4 N22_2 1_555 1_555
C37_4 C38_4 1_555 1_555
C37_4 N20 1_555 1_555
C13_4 H5_4 1_555 1_555
C14_4 C13_4 1_555 1_555
H6_4 C14_4 1_555 1_555
C15_4 C14_4 1_555 1_555
C16_4 C15_4 1_555 1_555
H7_4 C16_4 1_555 1_555
C17_4 C16_4 1_555 1_555
H8_4 C17_4 1_555 1_555
C18_4 C15_4 1_555 1_555
C19_4 C18_4 1_555 1_555
C20_4 C19_4 1_555 1_555
C21_4 C20_4 1_555 1_555
H9_4 C21_4 1_555 1_555
C22_4 C21_4 1_555 1_555
H10_4 C22_4 1_555 1_555
C23_4 H11_4 1_555 1_555
C24_4 C20_4 1_555 1_555
H12_4 C24_4 1_555 1_555
C25_4 C26_4 1_555 1_555
C26_4 S1_4 1_555 1_555
C39_4 C40_6 1_555 1_555
C40_6 C41_6 1_555 1_555
C41_6 C42_4 1_555 1_555
C42_4 H21_4 1_555 1_555
C43_4 C42_4 1_555 1_555
H22_4 C43_4 1_555 1_555
C44_6 C43_4 1_555 1_555
C45_6 C44_6 1_555 1_555
C46_4 C45_6 1_555 1_555
Cd9 N6_4 1_555 1_555
N6_4 C13_4 1_555 1_555
N18_2 C22_4 1_555 1_555
N10_4 C39_4 1_555 1_555
N24_2 C46_4 1_555 1_555
S1_4 C27_4 1_555 1_555
S2_4 C26_4 1_555 1_555
S3_4 C18_4 1_555 1_555
S4_4 C19_4 1_555 1_555
C47_4 C40_6 1_555 1_555
C48_4 C41_6 1_555 1_555
H23_4 C48_4 1_555 1_555
C49_4 C44_6 1_555 1_555
H24_4 C49_4 1_555 1_555
C50_4 C45_6 1_555 1_555
N12_4 C47_4 1_555 1_555
N25_2 C50_4 1_555 1_555
C51_4 H25_4 1_555 1_555
C52_4 C51_4 1_555 1_555
H26_4 C52_4 1_555 1_555
C53_4 C52_4 1_555 1_555
C54_4 C53_4 1_555 1_555
H27_4 C54_4 1_555 1_555
C55_4 C54_4 1_555 1_555
H28_4 C55_4 1_555 1_555
C56_4 C53_4 1_555 1_555
C57_4 C56_4 1_555 1_555
C58_4 C57_4 1_555 1_555
C59_4 C58_4 1_555 1_555
H29_4 C59_4 1_555 1_555
C60_4 C59_4 1_555 1_555
H30_4 C60_4 1_555 1_555
C61_4 H31_4 1_555 1_555
C62_4 C58_4 1_555 1_555
H32_4 C62_4 1_555 1_555
Cd10 N12_4 1_555 1_555
N14_4 C51_4 1_555 1_555
N19_2 C60_4 1_555 1_555
S7_4 C56_4 1_555 1_555
S8_4 C57_4 1_555 1_555
C17_4 N6_4 1_555 1_555
C23_4 C24_4 1_555 1_555
C23_4 N18_2 1_555 1_555
C25_4 S3_4 1_555 1_555
C25_4 S4_4 1_555 1_555
Cd9 N10_4 1_555 1_555
C48_4 C49_4 1_555 1_555
C55_4 N14_4 1_555 1_555
C61_4 C62_4 1_555 1_555
C61_4 N19_2 1_555 1_555
C63_4 S7_4 1_555 1_555
C63_4 S8_4 1_555 1_555
Cd10 N14_4 1_555 1_555
C66_4 C67_4 1_555 1_555
C68_4 C67_4 1_555 1_555
H34_4 C68_4 1_555 1_555
C69_4 H35_4 1_555 1_555
C70_4 C66_4 1_555 1_555
H36_4 C70_4 1_555 1_555
C72_4 C71_4 1_555 1_555
C73_4 C72_4 1_555 1_555
H37_4 C73_4 1_555 1_555
C74_4 C73_4 1_555 1_555
H38_4 C74_4 1_555 1_555
C75_4 H39_4 1_555 1_555
C76_4 C72_4 1_555 1_555
H40_4 C76_4 1_555 1_555
N21 C74_4 1_555 1_555
N23_2 C68_4 1_555 1_555
C69_4 C70_4 1_555 1_555
C69_4 N23_2 1_555 1_555
C75_4 C76_4 1_555 1_555
C75_4 N21 1_555 1_555
C64_3 S5_3 1_555 1_555
S5_3 C65_3 1_555 1_555
S6_3 C64_3 1_555 1_555
C64_4 S5_4 1_555 1_555
S5_4 C65_4 1_555 1_555
S6_4 C64_4 1_555 1_555

#END
