
###############################################################################
#
# This file contains modified crystal structure data generated from the
# MOF subset of the Cambridge Structural Database (CSD) v543 
# hosted by the Cambridge Crystallographic Data Centre (CCDC).
#
# This work is licensed under the Creative Commons
# Attribution-NonCommercial-ShareAlike 4.0 International License.
# To view a copy of this license, visit
# http://creativecommons.org/licenses/by-nc-sa/4.0/
# or send a letter to
# Creative Commons, PO Box 1866, Mountain View, CA 94042, USA.
#
# CIF created using the CSD Python API on 29 September 2022
# The structure has been converted into the P1 space group
# The structure has a 3D framework
# The original CSD entry GODPIB is in the tetragonal crystal system
# The original CSD entry GODPIB is in a Sohncke space group
# The framework has been calculated to contain at least 10.0% void space
# The void calculation uses a probe of radius 1.32A, grid spacing 0.4
#
###############################################################################

data_GODPIB
_chemical_formula_moiety         '(C432 H272 Cd8 O58)n'
_symmetry_cell_setting           triclinic
_symmetry_space_group_name_H-M   'P 1'
_symmetry_Int_Tables_number      1
_space_group_name_Hall           'P 1'
loop_
_symmetry_equiv_pos_site_id
_symmetry_equiv_pos_as_xyz
1 x,y,z
_cell_length_a                   22.1086(2)
_cell_length_b                   22.1086(2)
_cell_length_c                   31.6814(5)
_cell_angle_alpha                90
_cell_angle_beta                 90
_cell_angle_gamma                90
_cell_volume                     15485.6
loop_
_atom_site_label
_atom_site_type_symbol
_atom_site_fract_x
_atom_site_fract_y
_atom_site_fract_z
C1 C 0.1658(6) 0.1680(5) 0.1120(3)
C2 C 0.1677(5) 0.1696(5) 0.0239(2)
C3 C 0.0576(5) 0.1681(6) 0.1114(4)
C4 C 0.1117(5) 0.1659(6) 0.0901(3)
C5 C 0.2213(5) 0.1687(7) 0.0896(3)
C6 C 0.1130(4) 0.1681(5) 0.0463(3)
C7 C 0.3241(6) 0.1650(9) 0.1310(3)
C8 C 0.2775(5) 0.1660(9) 0.1130(4)
C9 C 0.2240(5) 0.1684(7) 0.0459(3)
C10 C 0.1683(6) 0.1621(8) 0.1595(3)
H1 H 0.1279 0.1623 0.1707
H2 H 0.1879 0.1249 0.1669
H3 H 0.1906 0.1955 0.1711
C11 C 0.3816(7) 0.1700(10) 0.1964(4)
H4 H 0.3464 0.1745 0.2121
C12 C 0.2794(7) 0.1646(11) 0.0235(3)
H6 H 0.3045 0.1984 0.0308
H7 H 0.2997 0.1277 0.0308
C14 C 0.3772(6) 0.1666(9) 0.1525(4)
C15 C 0.4844(6) 0.1736(12) 0.1526(4)
H8 H 0.5199 0.1800 0.1374
C16 C 0.0072(6) 0.1679(8) 0.1310(5)
C17 C 0.0522(5) 0.1685(8) 0.0214(4)
H10 H 0.0298 0.1324 0.0278
H11 H 0.0289 0.2033 0.0295
C19 C 0.4374(6) 0.1670(9) 0.2178(3)
H13 H 0.4388 0.1629 0.2470
C20 C 0.4332(6) 0.1688(11) 0.1308(4)
H14 H 0.4342 0.1668 0.1015
C21 C 0.4892(5) 0.1701(6) 0.1947(3)
C22 C 0.5487(5) 0.1690(7) 0.2155(4)
O1 O 0.5534(4) 0.1631(6) 0.2535(3)
O2 O 0.5987(3) 0.1727(4) 0.1949(3)
H22 H 0.1651 0.2714 0.0063
H26 H 0.1701 0.0604 0.0083
Cd3 Cd 0.66334(3) 0.16334(3) 0.2500
H5 H 0.2714 0.1651 0.9937
H9 H 0.0604 0.1701 0.9917
C28 C 0.1680(5) 0.1658(6) 0.8880(3)
C29 C 0.1696(5) 0.1677(5) 0.9761(2)
C30 C 0.1681(6) 0.0576(5) 0.8886(4)
C31 C 0.1659(6) 0.1117(5) 0.9099(3)
C32 C 0.1687(7) 0.2213(5) 0.9104(3)
C33 C 0.1681(5) 0.1130(4) 0.9537(3)
C34 C 0.1650(9) 0.3241(6) 0.8690(3)
C35 C 0.1660(9) 0.2775(5) 0.8870(4)
C36 C 0.1684(7) 0.2240(5) 0.9541(3)
C37 C 0.1621(8) 0.1683(6) 0.8405(3)
H18 H 0.1623 0.1279 0.8293
H19 H 0.1249 0.1879 0.8331
H20 H 0.1955 0.1906 0.8289
C38 C 0.1700(10) 0.3816(7) 0.8036(4)
H21 H 0.1745 0.3464 0.7879
C39 C 0.1646(11) 0.2794(7) 0.9765(3)
H23 H 0.1984 0.3045 0.9692
H24 H 0.1277 0.2997 0.9692
C41 C 0.1666(9) 0.3772(6) 0.8475(4)
C42 C 0.1736(12) 0.4844(6) 0.8474(4)
H25 H 0.1800 0.5199 0.8626
C43 C 0.1679(8) 0.0072(6) 0.8690(5)
C44 C 0.1685(8) 0.0522(5) 0.9786(4)
H27 H 0.1324 0.0298 0.9722
H28 H 0.2033 0.0289 0.9705
C46 C 0.1670(9) 0.4374(6) 0.7822(3)
H30 H 0.1629 0.4388 0.7530
C47 C 0.1688(11) 0.4332(6) 0.8692(4)
H31 H 0.1668 0.4342 0.8985
C48 C 0.1701(6) 0.4892(5) 0.8053(3)
C49 C 0.1690(7) 0.5487(5) 0.7845(4)
O7 O 0.1631(6) 0.5534(4) 0.7465(3)
O8 O 0.1727(4) 0.5987(3) 0.8051(3)
Cd4 Cd 0.16334(3) 0.66334(3) 0.7500
C40 C 0.1715(7) 0.9538(6) 0.8485(5)
C45 C 0.1694(9) 0.9465(7) 0.8066(6)
H29 H 0.1663 0.9813 0.7902
C50 C 0.1714(12) 0.8920(8) 0.7855(7)
H32 H 0.1758 0.8916 0.7563
C51 C 0.1668(11) 0.8367(8) 0.8076(8)
C52 C 0.1802(14) 0.8960(9) 0.8747(7)
H33 H 0.1831 0.8989 0.9039
C53 C 0.1837(14) 0.8425(8) 0.8567(9)
H34 H 0.1956 0.8087 0.8721
O5 O 0.1627(7) 0.7808(7) 0.7465(6)
C54 C 0.1644(11) 0.7601(10) 0.7856(7)
O6 O 0.1414(7) 0.7617(7) 0.8286(5)
O11 O 0.0534(4) 0.6631(6) 0.7535(3)
O15 O 0.0987(3) 0.6727(4) 0.6949(3)
O17 O 0.2808(7) 0.6627(7) 0.7535(6)
C13 C 0.9538(6) 0.1715(7) 0.1515(5)
C18 C 0.9465(7) 0.1694(9) 0.1934(6)
H12 H 0.9813 0.1663 0.2098
C23 C 0.8920(8) 0.1714(12) 0.2145(7)
H15 H 0.8916 0.1758 0.2437
C24 C 0.8367(8) 0.1668(11) 0.1924(8)
C25 C 0.8960(9) 0.1802(14) 0.1253(7)
H16 H 0.8989 0.1831 0.0961
C26 C 0.8425(8) 0.1837(14) 0.1433(9)
H17 H 0.8087 0.1956 0.1279
O3 O 0.7808(7) 0.1627(7) 0.2535(6)
C27 C 0.7601(10) 0.1644(11) 0.2144(7)
O4 O 0.7617(7) 0.1414(7) 0.1714(5)
O12 O 0.6631(6) 0.0534(4) 0.2465(3)
O16 O 0.6727(4) 0.0987(3) 0.3051(3)
O18 O 0.6627(7) 0.2808(7) 0.2465(6)
H8_2 H 0.0199 0.6800 0.6374
C22_2 C 0.0487(5) 0.6690(7) 0.7155(4)
H25_2 H 0.6800 0.0199 0.3626
C49_2 C 0.6690(7) 0.0487(5) 0.2845(4)
C1_2 C 0.6658(6) 0.6680(5) 0.6120(3)
C2_2 C 0.6677(5) 0.6696(5) 0.5239(2)
C3_2 C 0.5576(5) 0.6681(6) 0.6114(4)
C4_2 C 0.6117(5) 0.6659(6) 0.5901(3)
C5_2 C 0.7213(5) 0.6687(7) 0.5896(3)
C6_2 C 0.6130(4) 0.6681(5) 0.5463(3)
C7_2 C 0.8241(6) 0.6650(9) 0.6310(3)
C8_2 C 0.7775(5) 0.6660(9) 0.6130(4)
C9_2 C 0.7240(5) 0.6684(7) 0.5459(3)
C10_2 C 0.6683(6) 0.6621(8) 0.6595(3)
H1_2 H 0.6279 0.6623 0.6707
H2_2 H 0.6879 0.6249 0.6669
H3_2 H 0.6906 0.6955 0.6711
C11_2 C 0.8816(7) 0.6700(10) 0.6964(4)
H4_2 H 0.8464 0.6745 0.7121
C12_2 C 0.7794(7) 0.6646(11) 0.5235(3)
H5_2 H 0.7714 0.6651 0.4937
H6_2 H 0.8045 0.6984 0.5308
H7_2 H 0.7997 0.6277 0.5308
C13_2 C 0.4538(6) 0.6715(7) 0.6515(5)
C14_2 C 0.8772(6) 0.6666(9) 0.6525(4)
C15_2 C 0.9844(6) 0.6736(12) 0.6526(4)
C16_2 C 0.5072(6) 0.6679(8) 0.6310(5)
C17_2 C 0.5522(5) 0.6685(8) 0.5214(4)
H9_2 H 0.5604 0.6701 0.4917
H10_2 H 0.5298 0.6324 0.5278
H11_2 H 0.5289 0.7033 0.5295
C18_2 C 0.4465(7) 0.6694(9) 0.6934(6)
H12_2 H 0.4813 0.6663 0.7098
C19_2 C 0.9374(6) 0.6670(9) 0.7178(3)
H13_2 H 0.9388 0.6629 0.7470
C20_2 C 0.9332(6) 0.6688(11) 0.6308(4)
H14_2 H 0.9342 0.6668 0.6015
C21_2 C 0.9892(5) 0.6701(6) 0.6947(3)
C23_2 C 0.3920(8) 0.6714(12) 0.7145(7)
H15_2 H 0.3916 0.6758 0.7437
C24_2 C 0.3367(8) 0.6668(11) 0.6924(8)
C25_2 C 0.3960(9) 0.6802(14) 0.6253(7)
H16_2 H 0.3989 0.6831 0.5961
C26_2 C 0.3425(8) 0.6837(14) 0.6433(9)
H17_2 H 0.3087 0.6956 0.6279
C27_2 C 0.2601(10) 0.6644(11) 0.7144(7)
O4_2 O 0.2617(7) 0.6414(7) 0.6714(5)
C28_2 C 0.6680(5) 0.6658(6) 0.3880(3)
C29_2 C 0.6696(5) 0.6677(5) 0.4761(2)
C30_2 C 0.6681(6) 0.5576(5) 0.3886(4)
C31_2 C 0.6659(6) 0.6117(5) 0.4099(3)
C32_2 C 0.6687(7) 0.7213(5) 0.4104(3)
C33_2 C 0.6681(5) 0.6130(4) 0.4537(3)
C34_2 C 0.6650(9) 0.8241(6) 0.3690(3)
C35_2 C 0.6660(9) 0.7775(5) 0.3870(4)
C36_2 C 0.6684(7) 0.7240(5) 0.4541(3)
C37_2 C 0.6621(8) 0.6683(6) 0.3405(3)
H18_2 H 0.6623 0.6279 0.3293
H19_2 H 0.6249 0.6879 0.3331
H20_2 H 0.6955 0.6906 0.3289
C38_2 C 0.6700(10) 0.8816(7) 0.3036(4)
H21_2 H 0.6745 0.8464 0.2879
C39_2 C 0.6646(11) 0.7794(7) 0.4765(3)
H22_2 H 0.6651 0.7714 0.5063
H23_2 H 0.6984 0.8045 0.4692
H24_2 H 0.6277 0.7997 0.4692
C40_2 C 0.6715(7) 0.4538(6) 0.3485(5)
C41_2 C 0.6666(9) 0.8772(6) 0.3475(4)
C42_2 C 0.6736(12) 0.9844(6) 0.3474(4)
C43_2 C 0.6679(8) 0.5072(6) 0.3690(5)
C44_2 C 0.6685(8) 0.5522(5) 0.4786(4)
H26_2 H 0.6701 0.5604 0.5083
H27_2 H 0.6324 0.5298 0.4722
H28_2 H 0.7033 0.5289 0.4705
C45_2 C 0.6694(9) 0.4465(7) 0.3066(6)
H29_2 H 0.6663 0.4813 0.2902
C46_2 C 0.6670(9) 0.9374(6) 0.2822(3)
H30_2 H 0.6629 0.9388 0.2530
C47_2 C 0.6688(11) 0.9332(6) 0.3692(4)
H31_2 H 0.6668 0.9342 0.3985
C48_2 C 0.6701(6) 0.9892(5) 0.3053(3)
C50_2 C 0.6714(12) 0.3920(8) 0.2855(7)
H32_2 H 0.6758 0.3916 0.2563
C51_2 C 0.6668(11) 0.3367(8) 0.3076(8)
C52_2 C 0.6802(14) 0.3960(9) 0.3747(7)
H33_2 H 0.6831 0.3989 0.4039
C53_2 C 0.6837(14) 0.3425(8) 0.3567(9)
H34_2 H 0.6956 0.3087 0.3721
C54_2 C 0.6644(11) 0.2601(10) 0.2856(7)
O6_2 O 0.6414(7) 0.2617(7) 0.3286(5)
C40_3 C 0.0462(6) 0.6715(7) 0.0985(5)
C45_3 C 0.0535(7) 0.6694(9) 0.0566(6)
H29_3 H 0.0187 0.6663 0.0402
C50_3 C 0.1080(8) 0.6714(12) 0.0355(7)
H32_3 H 0.1084 0.6758 0.0063
C51_3 C 0.1633(8) 0.6668(11) 0.0576(8)
C52_3 C 0.1040(9) 0.6802(14) 0.1247(7)
H33_3 H 0.1011 0.6831 0.1539
C53_3 C 0.1575(8) 0.6837(14) 0.1067(9)
H34_3 H 0.1913 0.6956 0.1221
C54_3 C 0.2399(10) 0.6644(11) 0.0356(7)
O6_3 O 0.2383(7) 0.6414(7) 0.0786(5)
Cd2 Cd 0.33666(3) 0.66334(3) -0.0000
O11_2 O 0.3369(6) 0.5534(4) 0.0035(3)
O14 O 0.4013(3) 0.6727(4) 0.0551(3)
O17_2 O 0.3373(7) 0.7808(7) 0.0035(6)
O5_2 O 0.2192(7) 0.6627(7) 0.9965(6)
Cd2_2 Cd 0.33666(3) 0.66334(3) 1.0000
O10 O 0.4466(4) 0.6631(6) 0.9965(3)
O15_2 O 0.3273(4) 0.5987(3) 0.9449(3)
H8_3 H 0.8200 0.0199 0.3874
C22_3 C 0.8310(7) 0.0487(5) 0.4655(4)
O1_2 O 0.8369(6) 0.0534(4) 0.5035(3)
O2_2 O 0.8273(4) 0.0987(3) 0.4449(3)
Cd3_2 Cd 0.83666(3) 0.16334(3) 0.5000
C1_3 C 0.8320(5) 0.6658(6) 0.3620(3)
C2_3 C 0.8304(5) 0.6677(5) 0.2739(2)
C3_3 C 0.8319(6) 0.5576(5) 0.3614(4)
C4_3 C 0.8341(6) 0.6117(5) 0.3401(3)
C5_3 C 0.8313(7) 0.7213(5) 0.3396(3)
C6_3 C 0.8319(5) 0.6130(4) 0.2963(3)
C7_3 C 0.8350(9) 0.8241(6) 0.3810(3)
C8_3 C 0.8340(9) 0.7775(5) 0.3630(4)
C9_3 C 0.8316(7) 0.7240(5) 0.2959(3)
C10_3 C 0.8379(8) 0.6683(6) 0.4095(3)
H1_3 H 0.8377 0.6279 0.4207
H2_3 H 0.8751 0.6879 0.4169
H3_3 H 0.8045 0.6906 0.4211
C11_3 C 0.8300(10) 0.8816(7) 0.4464(4)
H4_3 H 0.8255 0.8464 0.4621
C12_3 C 0.8354(11) 0.7794(7) 0.2735(3)
H5_3 H 0.8349 0.7714 0.2437
H6_3 H 0.8016 0.8045 0.2808
H7_3 H 0.8723 0.7997 0.2808
C13_3 C 0.8285(7) 0.4538(6) 0.4015(5)
C14_3 C 0.8334(9) 0.8772(6) 0.4025(4)
C15_3 C 0.8264(12) 0.9844(6) 0.4026(4)
C16_3 C 0.8321(8) 0.5072(6) 0.3810(5)
C17_3 C 0.8315(8) 0.5522(5) 0.2714(4)
H9_3 H 0.8299 0.5604 0.2417
H10_3 H 0.8676 0.5298 0.2778
H11_3 H 0.7967 0.5289 0.2795
C18_3 C 0.8306(9) 0.4465(7) 0.4434(6)
H12_3 H 0.8337 0.4813 0.4598
C19_3 C 0.8330(9) 0.9374(6) 0.4678(3)
H13_3 H 0.8371 0.9388 0.4970
C20_3 C 0.8312(11) 0.9332(6) 0.3808(4)
H14_3 H 0.8332 0.9342 0.3515
C21_3 C 0.8299(6) 0.9892(5) 0.4447(3)
C23_3 C 0.8286(12) 0.3920(8) 0.4645(7)
H15_3 H 0.8242 0.3916 0.4937
C24_3 C 0.8332(11) 0.3367(8) 0.4424(8)
C25_3 C 0.8198(14) 0.3960(9) 0.3753(7)
H16_3 H 0.8169 0.3989 0.3461
C26_3 C 0.8163(14) 0.3425(8) 0.3933(9)
H17_3 H 0.8044 0.3087 0.3779
O3_2 O 0.8373(7) 0.2808(7) 0.5035(6)
C27_3 C 0.8356(11) 0.2601(10) 0.4644(7)
O4_3 O 0.8586(7) 0.2617(7) 0.4214(5)
C28_3 C 0.8342(6) 0.6680(5) 0.1380(3)
C29_3 C 0.8323(5) 0.6696(5) 0.2261(2)
C30_3 C 0.9424(5) 0.6681(6) 0.1386(4)
C31_3 C 0.8883(5) 0.6659(6) 0.1599(3)
C32_3 C 0.7787(5) 0.6687(7) 0.1604(3)
C33_3 C 0.8870(4) 0.6681(5) 0.2037(3)
C34_3 C 0.6759(6) 0.6650(9) 0.1190(3)
C35_3 C 0.7225(5) 0.6660(9) 0.1370(4)
C36_3 C 0.7760(5) 0.6684(7) 0.2041(3)
C37_3 C 0.8317(6) 0.6621(8) 0.0905(3)
H18_3 H 0.8721 0.6623 0.0793
H19_3 H 0.8121 0.6249 0.0831
H20_3 H 0.8094 0.6955 0.0789
C38_3 C 0.6184(7) 0.6700(10) 0.0536(4)
H21_3 H 0.6536 0.6745 0.0379
C39_3 C 0.7206(7) 0.6646(11) 0.2265(3)
H22_3 H 0.7286 0.6651 0.2563
H23_3 H 0.6955 0.6984 0.2192
H24_3 H 0.7003 0.6277 0.2192
C41_3 C 0.6228(6) 0.6666(9) 0.0975(4)
C42_3 C 0.5156(6) 0.6736(12) 0.0974(4)
H25_3 H 0.4801 0.6800 0.1126
C43_3 C 0.9928(6) 0.6679(8) 0.1190(5)
C44_3 C 0.9478(5) 0.6685(8) 0.2286(4)
H26_3 H 0.9396 0.6701 0.2583
H27_3 H 0.9702 0.6324 0.2222
H28_3 H 0.9711 0.7033 0.2205
C46_3 C 0.5626(6) 0.6670(9) 0.0322(3)
H30_3 H 0.5612 0.6629 0.0030
C47_3 C 0.5668(6) 0.6688(11) 0.1192(4)
H31_3 H 0.5658 0.6668 0.1485
C48_3 C 0.5108(5) 0.6701(6) 0.0553(3)
C49_3 C 0.4513(5) 0.6690(7) 0.0345(4)
O12_2 O 0.9466(4) 0.1631(6) 0.4965(3)
O16_2 O 0.9013(3) 0.1727(4) 0.5551(3)
O18_2 O 0.7192(7) 0.1627(7) 0.4965(6)
C1_4 C 0.3320(5) 0.1658(6) 0.8620(3)
C2_4 C 0.3304(5) 0.1677(5) 0.7739(2)
C3_4 C 0.3319(6) 0.0576(5) 0.8614(4)
C4_4 C 0.3341(6) 0.1117(5) 0.8401(3)
C5_4 C 0.3313(7) 0.2213(5) 0.8396(3)
C6_4 C 0.3319(5) 0.1130(4) 0.7963(3)
C7_4 C 0.3350(9) 0.3241(6) 0.8810(3)
C8_4 C 0.3340(9) 0.2775(5) 0.8630(4)
C9_4 C 0.3316(7) 0.2240(5) 0.7959(3)
C10_4 C 0.3379(8) 0.1683(6) 0.9095(3)
H1_4 H 0.3377 0.1279 0.9207
H2_4 H 0.3751 0.1879 0.9169
H3_4 H 0.3045 0.1906 0.9211
C11_4 C 0.3300(10) 0.3816(7) 0.9464(4)
H4_4 H 0.3255 0.3464 0.9621
C12_4 C 0.3354(11) 0.2794(7) 0.7735(3)
H5_4 H 0.3349 0.2714 0.7437
H6_4 H 0.3016 0.3045 0.7808
H7_4 H 0.3723 0.2997 0.7808
C14_4 C 0.3334(9) 0.3772(6) 0.9025(4)
C15_4 C 0.3264(12) 0.4844(6) 0.9026(4)
H8_4 H 0.3200 0.5199 0.8874
C16_4 C 0.3321(8) 0.0072(6) 0.8810(5)
C17_4 C 0.3315(8) 0.0522(5) 0.7714(4)
H9_4 H 0.3299 0.0604 0.7417
H10_4 H 0.3676 0.0298 0.7778
H11_4 H 0.2967 0.0289 0.7795
C19_4 C 0.3330(9) 0.4374(6) 0.9678(3)
H13_4 H 0.3371 0.4388 0.9970
C20_4 C 0.3312(11) 0.4332(6) 0.8808(4)
H14_4 H 0.3332 0.4342 0.8515
C21_4 C 0.3299(6) 0.4892(5) 0.9447(3)
C22_4 C 0.3310(7) 0.5487(5) 0.9655(4)
C28_4 C 0.3342(6) 0.1680(5) 0.6380(3)
C29_4 C 0.3323(5) 0.1696(5) 0.7261(2)
C30_4 C 0.4424(5) 0.1681(6) 0.6386(4)
C31_4 C 0.3883(5) 0.1659(6) 0.6599(3)
C32_4 C 0.2787(5) 0.1687(7) 0.6604(3)
C33_4 C 0.3870(4) 0.1681(5) 0.7037(3)
C34_4 C 0.1759(6) 0.1650(9) 0.6190(3)
C35_4 C 0.2225(5) 0.1660(9) 0.6370(4)
C36_4 C 0.2760(5) 0.1684(7) 0.7041(3)
C37_4 C 0.3317(6) 0.1621(8) 0.5905(3)
H18_4 H 0.3721 0.1623 0.5793
H19_4 H 0.3121 0.1249 0.5831
H20_4 H 0.3094 0.1955 0.5789
C38_4 C 0.1184(7) 0.1700(10) 0.5536(4)
H21_4 H 0.1536 0.1745 0.5379
C39_4 C 0.2206(7) 0.1646(11) 0.7265(3)
H22_4 H 0.2286 0.1651 0.7563
H23_4 H 0.1955 0.1984 0.7192
H24_4 H 0.2003 0.1277 0.7192
C40_4 C 0.5462(6) 0.1715(7) 0.5985(5)
C41_4 C 0.1228(6) 0.1666(9) 0.5975(4)
C42_4 C 0.0156(6) 0.1736(12) 0.5974(4)
C43_4 C 0.4928(6) 0.1679(8) 0.6190(5)
C44_4 C 0.4478(5) 0.1685(8) 0.7286(4)
H26_4 H 0.4396 0.1701 0.7583
H27_4 H 0.4702 0.1324 0.7222
H28_4 H 0.4711 0.2033 0.7205
C45_4 C 0.5535(7) 0.1694(9) 0.5566(6)
H29_4 H 0.5187 0.1663 0.5402
C46_4 C 0.0626(6) 0.1670(9) 0.5322(3)
H30_4 H 0.0612 0.1629 0.5030
C47_4 C 0.0668(6) 0.1688(11) 0.6192(4)
H31_4 H 0.0658 0.1668 0.6485
C48_4 C 0.0108(5) 0.1701(6) 0.5553(3)
C50_4 C 0.6080(8) 0.1714(12) 0.5355(7)
H32_4 H 0.6084 0.1758 0.5063
C51_4 C 0.6633(8) 0.1668(11) 0.5576(8)
C52_4 C 0.6040(9) 0.1802(14) 0.6247(7)
H33_4 H 0.6011 0.1831 0.6539
C53_4 C 0.6575(8) 0.1837(14) 0.6067(9)
H34_4 H 0.6913 0.1956 0.6221
C54_4 C 0.7399(10) 0.1644(11) 0.5356(7)
O6_4 O 0.7383(7) 0.1414(7) 0.5786(5)
C13_4 C 0.3285(7) 0.9538(6) 0.9015(5)
C18_4 C 0.3306(9) 0.9465(7) 0.9434(6)
H12_4 H 0.3337 0.9813 0.9598
C23_4 C 0.3286(12) 0.8920(8) 0.9645(7)
H15_4 H 0.3242 0.8916 0.9937
C24_4 C 0.3332(11) 0.8367(8) 0.9424(8)
C25_4 C 0.3198(14) 0.8960(9) 0.8753(7)
H16_4 H 0.3169 0.8989 0.8461
C26_4 C 0.3163(14) 0.8425(8) 0.8933(9)
H17_4 H 0.3044 0.8087 0.8779
C27_4 C 0.3356(11) 0.7601(10) 0.9644(7)
O4_4 O 0.3586(7) 0.7617(7) 0.9214(5)
H25_4 H 0.9801 0.1800 0.6126
C49_4 C 0.9513(5) 0.1690(7) 0.5345(4)
C13_5 C 0.0462(6) 0.8285(7) 0.1515(5)
C18_5 C 0.0535(7) 0.8306(9) 0.1934(6)
H12_5 H 0.0187 0.8337 0.2098
C23_5 C 0.1080(8) 0.8286(12) 0.2145(7)
H15_5 H 0.1084 0.8242 0.2437
C24_5 C 0.1633(8) 0.8332(11) 0.1924(8)
C25_5 C 0.1040(9) 0.8198(14) 0.1253(7)
H16_5 H 0.1011 0.8169 0.0961
C26_5 C 0.1575(8) 0.8163(14) 0.1433(9)
H17_5 H 0.1913 0.8044 0.1279
O3_3 O 0.2192(7) 0.8373(7) 0.2535(6)
C27_5 C 0.2399(10) 0.8356(11) 0.2144(7)
O4_5 O 0.2383(7) 0.8586(7) 0.1714(5)
Cd1 Cd 0.33666(3) 0.83666(3) 0.2500
O9 O 0.4466(4) 0.8369(6) 0.2535(3)
O12_3 O 0.3369(6) 0.9466(4) 0.2465(3)
O13 O 0.4013(3) 0.8273(4) 0.1949(3)
O16_3 O 0.3273(4) 0.9013(3) 0.3051(3)
O18_3 O 0.3373(7) 0.7192(7) 0.2465(6)
C40_5 C 0.8285(7) 0.0462(6) 0.8485(5)
C45_5 C 0.8306(9) 0.0535(7) 0.8066(6)
H29_5 H 0.8337 0.0187 0.7902
C50_5 C 0.8286(12) 0.1080(8) 0.7855(7)
H32_5 H 0.8242 0.1084 0.7563
C51_5 C 0.8332(11) 0.1633(8) 0.8076(8)
C52_5 C 0.8198(14) 0.1040(9) 0.8747(7)
H33_5 H 0.8169 0.1011 0.9039
C53_5 C 0.8163(14) 0.1575(8) 0.8567(9)
H34_5 H 0.8044 0.1913 0.8721
O5_3 O 0.8373(7) 0.2192(7) 0.7465(6)
C54_5 C 0.8356(11) 0.2399(10) 0.7856(7)
O6_5 O 0.8586(7) 0.2383(7) 0.8286(5)
Cd2_3 Cd 0.83666(3) 0.33666(3) 0.7500
O10_2 O 0.8369(6) 0.4466(4) 0.7465(3)
O11_3 O 0.9466(4) 0.3369(6) 0.7535(3)
O14_2 O 0.8273(4) 0.4013(3) 0.8051(3)
O15_3 O 0.9013(3) 0.3273(4) 0.6949(3)
O17_3 O 0.7192(7) 0.3373(7) 0.7535(6)
C1_5 C 0.8342(6) 0.8320(5) 0.1120(3)
C2_5 C 0.8323(5) 0.8304(5) 0.0239(2)
C3_5 C 0.9424(5) 0.8319(6) 0.1114(4)
C4_5 C 0.8883(5) 0.8341(6) 0.0901(3)
C5_5 C 0.7787(5) 0.8313(7) 0.0896(3)
C6_5 C 0.8870(4) 0.8319(5) 0.0463(3)
C7_5 C 0.6759(6) 0.8350(9) 0.1310(3)
C8_5 C 0.7225(5) 0.8340(9) 0.1130(4)
C9_5 C 0.7760(5) 0.8316(7) 0.0459(3)
C10_5 C 0.8317(6) 0.8379(8) 0.1595(3)
H1_5 H 0.8721 0.8377 0.1707
H2_5 H 0.8121 0.8751 0.1669
H3_5 H 0.8094 0.8045 0.1711
C11_5 C 0.6184(7) 0.8300(10) 0.1964(4)
H4_5 H 0.6536 0.8255 0.2121
C12_5 C 0.7206(7) 0.8354(11) 0.0235(3)
H6_5 H 0.6955 0.8016 0.0308
H7_5 H 0.7003 0.8723 0.0308
C14_5 C 0.6228(6) 0.8334(9) 0.1525(4)
C15_5 C 0.5156(6) 0.8264(12) 0.1526(4)
H8_5 H 0.4801 0.8200 0.1374
C16_5 C 0.9928(6) 0.8321(8) 0.1310(5)
C17_5 C 0.9478(5) 0.8315(8) 0.0214(4)
H10_5 H 0.9702 0.8676 0.0278
H11_5 H 0.9711 0.7967 0.0295
C19_5 C 0.5626(6) 0.8330(9) 0.2178(3)
H13_5 H 0.5612 0.8371 0.2470
C20_5 C 0.5668(6) 0.8312(11) 0.1308(4)
H14_5 H 0.5658 0.8332 0.1015
C21_5 C 0.5108(5) 0.8299(6) 0.1947(3)
C22_5 C 0.4513(5) 0.8310(7) 0.2155(4)
H22_5 H 0.8349 0.7286 0.0063
H26_5 H 0.8299 0.9396 0.0083
H5_5 H 0.7286 0.8349 0.9937
H9_5 H 0.9396 0.8299 0.9917
C28_5 C 0.8320(5) 0.8342(6) 0.8880(3)
C29_5 C 0.8304(5) 0.8323(5) 0.9761(2)
C30_5 C 0.8319(6) 0.9424(5) 0.8886(4)
C31_5 C 0.8341(6) 0.8883(5) 0.9099(3)
C32_5 C 0.8313(7) 0.7787(5) 0.9104(3)
C33_5 C 0.8319(5) 0.8870(4) 0.9537(3)
C34_5 C 0.8350(9) 0.6759(6) 0.8690(3)
C35_5 C 0.8340(9) 0.7225(5) 0.8870(4)
C36_5 C 0.8316(7) 0.7760(5) 0.9541(3)
C37_5 C 0.8379(8) 0.8317(6) 0.8405(3)
H18_5 H 0.8377 0.8721 0.8293
H19_5 H 0.8751 0.8121 0.8331
H20_5 H 0.8045 0.8094 0.8289
C38_5 C 0.8300(10) 0.6184(7) 0.8036(4)
H21_5 H 0.8255 0.6536 0.7879
C39_5 C 0.8354(11) 0.7206(7) 0.9765(3)
H23_5 H 0.8016 0.6955 0.9692
H24_5 H 0.8723 0.7003 0.9692
C41_5 C 0.8334(9) 0.6228(6) 0.8475(4)
C42_5 C 0.8264(12) 0.5156(6) 0.8474(4)
H25_5 H 0.8200 0.4801 0.8626
C43_5 C 0.8321(8) 0.9928(6) 0.8690(5)
C44_5 C 0.8315(8) 0.9478(5) 0.9786(4)
H27_5 H 0.8676 0.9702 0.9722
H28_5 H 0.7967 0.9711 0.9705
C46_5 C 0.8330(9) 0.5626(6) 0.7822(3)
H30_5 H 0.8371 0.5612 0.7530
C47_5 C 0.8312(11) 0.5668(6) 0.8692(4)
H31_5 H 0.8332 0.5658 0.8985
C48_5 C 0.8299(6) 0.5108(5) 0.8053(3)
C49_5 C 0.8310(7) 0.4513(5) 0.7845(4)
C1_6 C 0.3342(6) 0.3320(5) 0.6120(3)
C2_6 C 0.3323(5) 0.3304(5) 0.5239(2)
C3_6 C 0.4424(5) 0.3319(6) 0.6114(4)
C4_6 C 0.3883(5) 0.3341(6) 0.5901(3)
C5_6 C 0.2787(5) 0.3313(7) 0.5896(3)
C6_6 C 0.3870(4) 0.3319(5) 0.5463(3)
C7_6 C 0.1759(6) 0.3350(9) 0.6310(3)
C8_6 C 0.2225(5) 0.3340(9) 0.6130(4)
C9_6 C 0.2760(5) 0.3316(7) 0.5459(3)
C10_6 C 0.3317(6) 0.3379(8) 0.6595(3)
H1_6 H 0.3721 0.3377 0.6707
H2_6 H 0.3121 0.3751 0.6669
H3_6 H 0.3094 0.3045 0.6711
C11_6 C 0.1184(7) 0.3300(10) 0.6964(4)
H4_6 H 0.1536 0.3255 0.7121
C12_6 C 0.2206(7) 0.3354(11) 0.5235(3)
H5_6 H 0.2286 0.3349 0.4937
H6_6 H 0.1955 0.3016 0.5308
H7_6 H 0.2003 0.3723 0.5308
C13_6 C 0.5462(6) 0.3285(7) 0.6515(5)
C14_6 C 0.1228(6) 0.3334(9) 0.6525(4)
C15_6 C 0.0156(6) 0.3264(12) 0.6526(4)
C16_6 C 0.4928(6) 0.3321(8) 0.6310(5)
C17_6 C 0.4478(5) 0.3315(8) 0.5214(4)
H9_6 H 0.4396 0.3299 0.4917
H10_6 H 0.4702 0.3676 0.5278
H11_6 H 0.4711 0.2967 0.5295
C18_6 C 0.5535(7) 0.3306(9) 0.6934(6)
H12_6 H 0.5187 0.3337 0.7098
C19_6 C 0.0626(6) 0.3330(9) 0.7178(3)
H13_6 H 0.0612 0.3371 0.7470
C20_6 C 0.0668(6) 0.3312(11) 0.6308(4)
H14_6 H 0.0658 0.3332 0.6015
C21_6 C 0.0108(5) 0.3299(6) 0.6947(3)
C23_6 C 0.6080(8) 0.3286(12) 0.7145(7)
H15_6 H 0.6084 0.3242 0.7437
C24_6 C 0.6633(8) 0.3332(11) 0.6924(8)
C25_6 C 0.6040(9) 0.3198(14) 0.6253(7)
H16_6 H 0.6011 0.3169 0.5961
C26_6 C 0.6575(8) 0.3163(14) 0.6433(9)
H17_6 H 0.6913 0.3044 0.6279
C27_6 C 0.7399(10) 0.3356(11) 0.7144(7)
O4_6 O 0.7383(7) 0.3586(7) 0.6714(5)
C28_6 C 0.3320(5) 0.3342(6) 0.3880(3)
C29_6 C 0.3304(5) 0.3323(5) 0.4761(2)
C30_6 C 0.3319(6) 0.4424(5) 0.3886(4)
C31_6 C 0.3341(6) 0.3883(5) 0.4099(3)
C32_6 C 0.3313(7) 0.2787(5) 0.4104(3)
C33_6 C 0.3319(5) 0.3870(4) 0.4537(3)
C34_6 C 0.3350(9) 0.1759(6) 0.3690(3)
C35_6 C 0.3340(9) 0.2225(5) 0.3870(4)
C36_6 C 0.3316(7) 0.2760(5) 0.4541(3)
C37_6 C 0.3379(8) 0.3317(6) 0.3405(3)
H18_6 H 0.3377 0.3721 0.3293
H19_6 H 0.3751 0.3121 0.3331
H20_6 H 0.3045 0.3094 0.3289
C38_6 C 0.3300(10) 0.1184(7) 0.3036(4)
H21_6 H 0.3255 0.1536 0.2879
C39_6 C 0.3354(11) 0.2206(7) 0.4765(3)
H22_6 H 0.3349 0.2286 0.5063
H23_6 H 0.3016 0.1955 0.4692
H24_6 H 0.3723 0.2003 0.4692
C40_6 C 0.3285(7) 0.5462(6) 0.3485(5)
C41_6 C 0.3334(9) 0.1228(6) 0.3475(4)
C42_6 C 0.3264(12) 0.0156(6) 0.3474(4)
C43_6 C 0.3321(8) 0.4928(6) 0.3690(5)
C44_6 C 0.3315(8) 0.4478(5) 0.4786(4)
H26_6 H 0.3299 0.4396 0.5083
H27_6 H 0.3676 0.4702 0.4722
H28_6 H 0.2967 0.4711 0.4705
C45_6 C 0.3306(9) 0.5535(7) 0.3066(6)
H29_6 H 0.3337 0.5187 0.2902
C46_6 C 0.3330(9) 0.0626(6) 0.2822(3)
H30_6 H 0.3371 0.0612 0.2530
C47_6 C 0.3312(11) 0.0668(6) 0.3692(4)
H31_6 H 0.3332 0.0658 0.3985
C48_6 C 0.3299(6) 0.0108(5) 0.3053(3)
C50_6 C 0.3286(12) 0.6080(8) 0.2855(7)
H32_6 H 0.3242 0.6084 0.2563
C51_6 C 0.3332(11) 0.6633(8) 0.3076(8)
C52_6 C 0.3198(14) 0.6040(9) 0.3747(7)
H33_6 H 0.3169 0.6011 0.4039
C53_6 C 0.3163(14) 0.6575(8) 0.3567(9)
H34_6 H 0.3044 0.6913 0.3721
C54_6 C 0.3356(11) 0.7399(10) 0.2856(7)
O6_6 O 0.3586(7) 0.7383(7) 0.3286(5)
H25_6 H 0.3200 0.9801 0.3626
C49_6 C 0.3310(7) 0.9513(5) 0.2845(4)
H8_6 H 0.9801 0.3200 0.6374
C22_6 C 0.9513(5) 0.3310(7) 0.7155(4)
C1_7 C 0.1680(5) 0.3342(6) 0.3620(3)
C2_7 C 0.1696(5) 0.3323(5) 0.2739(2)
C3_7 C 0.1681(6) 0.4424(5) 0.3614(4)
C4_7 C 0.1659(6) 0.3883(5) 0.3401(3)
C5_7 C 0.1687(7) 0.2787(5) 0.3396(3)
C6_7 C 0.1681(5) 0.3870(4) 0.2963(3)
C7_7 C 0.1650(9) 0.1759(6) 0.3810(3)
C8_7 C 0.1660(9) 0.2225(5) 0.3630(4)
C9_7 C 0.1684(7) 0.2760(5) 0.2959(3)
C10_7 C 0.1621(8) 0.3317(6) 0.4095(3)
H1_7 H 0.1623 0.3721 0.4207
H2_7 H 0.1249 0.3121 0.4169
H3_7 H 0.1955 0.3094 0.4211
C11_7 C 0.1700(10) 0.1184(7) 0.4464(4)
H4_7 H 0.1745 0.1536 0.4621
C12_7 C 0.1646(11) 0.2206(7) 0.2735(3)
H5_7 H 0.1651 0.2286 0.2437
H6_7 H 0.1984 0.1955 0.2808
H7_7 H 0.1277 0.2003 0.2808
C13_7 C 0.1715(7) 0.5462(6) 0.4015(5)
C14_7 C 0.1666(9) 0.1228(6) 0.4025(4)
C15_7 C 0.1736(12) 0.0156(6) 0.4026(4)
C16_7 C 0.1679(8) 0.4928(6) 0.3810(5)
C17_7 C 0.1685(8) 0.4478(5) 0.2714(4)
H9_7 H 0.1701 0.4396 0.2417
H10_7 H 0.1324 0.4702 0.2778
H11_7 H 0.2033 0.4711 0.2795
C18_7 C 0.1694(9) 0.5535(7) 0.4434(6)
H12_7 H 0.1663 0.5187 0.4598
C19_7 C 0.1670(9) 0.0626(6) 0.4678(3)
H13_7 H 0.1629 0.0612 0.4970
C20_7 C 0.1688(11) 0.0668(6) 0.3808(4)
H14_7 H 0.1668 0.0658 0.3515
C21_7 C 0.1701(6) 0.0108(5) 0.4447(3)
C23_7 C 0.1714(12) 0.6080(8) 0.4645(7)
H15_7 H 0.1758 0.6084 0.4937
C24_7 C 0.1668(11) 0.6633(8) 0.4424(8)
C25_7 C 0.1802(14) 0.6040(9) 0.3753(7)
H16_7 H 0.1831 0.6011 0.3461
C26_7 C 0.1837(14) 0.6575(8) 0.3933(9)
H17_7 H 0.1956 0.6913 0.3779
O3_4 O 0.1627(7) 0.7192(7) 0.5035(6)
C27_7 C 0.1644(11) 0.7399(10) 0.4644(7)
O4_7 O 0.1414(7) 0.7383(7) 0.4214(5)
Cd1_2 Cd 0.16334(3) 0.83666(3) 0.5000
C28_7 C 0.1658(6) 0.3320(5) 0.1380(3)
C29_7 C 0.1677(5) 0.3304(5) 0.2261(2)
C30_7 C 0.0576(5) 0.3319(6) 0.1386(4)
C31_7 C 0.1117(5) 0.3341(6) 0.1599(3)
C32_7 C 0.2213(5) 0.3313(7) 0.1604(3)
C33_7 C 0.1130(4) 0.3319(5) 0.2037(3)
C34_7 C 0.3241(6) 0.3350(9) 0.1190(3)
C35_7 C 0.2775(5) 0.3340(9) 0.1370(4)
C36_7 C 0.2240(5) 0.3316(7) 0.2041(3)
C37_7 C 0.1683(6) 0.3379(8) 0.0905(3)
H18_7 H 0.1279 0.3377 0.0793
H19_7 H 0.1879 0.3751 0.0831
H20_7 H 0.1906 0.3045 0.0789
C38_7 C 0.3816(7) 0.3300(10) 0.0536(4)
H21_7 H 0.3464 0.3255 0.0379
C39_7 C 0.2794(7) 0.3354(11) 0.2265(3)
H22_7 H 0.2714 0.3349 0.2563
H23_7 H 0.3045 0.3016 0.2192
H24_7 H 0.2997 0.3723 0.2192
C41_7 C 0.3772(6) 0.3334(9) 0.0975(4)
C42_7 C 0.4844(6) 0.3264(12) 0.0974(4)
H25_7 H 0.5199 0.3200 0.1126
C43_7 C 0.0072(6) 0.3321(8) 0.1190(5)
C44_7 C 0.0522(5) 0.3315(8) 0.2286(4)
H26_7 H 0.0604 0.3299 0.2583
H27_7 H 0.0298 0.3676 0.2222
H28_7 H 0.0289 0.2967 0.2205
C46_7 C 0.4374(6) 0.3330(9) 0.0322(3)
H30_7 H 0.4388 0.3371 0.0030
C47_7 C 0.4332(6) 0.3312(11) 0.1192(4)
H31_7 H 0.4342 0.3332 0.1485
C48_7 C 0.4892(5) 0.3299(6) 0.0553(3)
C49_7 C 0.5487(5) 0.3310(7) 0.0345(4)
O8_2 O 0.5987(3) 0.3273(4) 0.0551(3)
O9_2 O 0.1631(6) 0.9466(4) 0.5035(3)
O12_4 O 0.0534(4) 0.8369(6) 0.4965(3)
O13_2 O 0.1727(4) 0.9013(3) 0.4449(3)
O16_4 O 0.0987(3) 0.8273(4) 0.5551(3)
O18_4 O 0.2808(7) 0.8373(7) 0.4965(6)
Cd4_2 Cd 0.66334(3) 0.33666(3) -0.0000
O7_2 O 0.5534(4) 0.3369(6) 0.9965(3)
Cd4_3 Cd 0.66334(3) 0.33666(3) 1.0000
H8_7 H 0.1800 0.9801 0.3874
C22_7 C 0.1690(7) 0.9513(5) 0.4655(4)
C40_7 C 0.9538(6) 0.3285(7) 0.0985(5)
C45_7 C 0.9465(7) 0.3306(9) 0.0566(6)
H29_7 H 0.9813 0.3337 0.0402
C50_7 C 0.8920(8) 0.3286(12) 0.0355(7)
H32_7 H 0.8916 0.3242 0.0063
C51_7 C 0.8367(8) 0.3332(11) 0.0576(8)
C52_7 C 0.8960(9) 0.3198(14) 0.1247(7)
H33_7 H 0.8989 0.3169 0.1539
C53_7 C 0.8425(8) 0.3163(14) 0.1067(9)
H34_7 H 0.8087 0.3044 0.1221
C54_7 C 0.7601(10) 0.3356(11) 0.0356(7)
O6_7 O 0.7617(7) 0.3586(7) 0.0786(5)
O11_4 O 0.6631(6) 0.4466(4) 0.0035(3)
O17_4 O 0.6627(7) 0.2192(7) 0.0035(6)
O5_4 O 0.7808(7) 0.3373(7) 0.9965(6)
O15_4 O 0.6727(4) 0.4013(3) 0.9449(3)
H25_8 H 0.0199 0.8200 0.6126
C49_8 C 0.0487(5) 0.8310(7) 0.5345(4)
C13_8 C 0.6715(7) 0.0462(6) 0.9015(5)
C18_8 C 0.6694(9) 0.0535(7) 0.9434(6)
H12_8 H 0.6663 0.0187 0.9598
C23_8 C 0.6714(12) 0.1080(8) 0.9645(7)
H15_8 H 0.6758 0.1084 0.9937
C24_8 C 0.6668(11) 0.1633(8) 0.9424(8)
C25_8 C 0.6802(14) 0.1040(9) 0.8753(7)
H16_8 H 0.6831 0.1011 0.8461
C26_8 C 0.6837(14) 0.1575(8) 0.8933(9)
H17_8 H 0.6956 0.1913 0.8779
C27_8 C 0.6644(11) 0.2399(10) 0.9644(7)
O4_8 O 0.6414(7) 0.2383(7) 0.9214(5)
C1_8 C 0.6680(5) 0.8342(6) 0.8620(3)
C2_8 C 0.6696(5) 0.8323(5) 0.7739(2)
C3_8 C 0.6681(6) 0.9424(5) 0.8614(4)
C4_8 C 0.6659(6) 0.8883(5) 0.8401(3)
C5_8 C 0.6687(7) 0.7787(5) 0.8396(3)
C6_8 C 0.6681(5) 0.8870(4) 0.7963(3)
C7_8 C 0.6650(9) 0.6759(6) 0.8810(3)
C8_8 C 0.6660(9) 0.7225(5) 0.8630(4)
C9_8 C 0.6684(7) 0.7760(5) 0.7959(3)
C10_8 C 0.6621(8) 0.8317(6) 0.9095(3)
H1_8 H 0.6623 0.8721 0.9207
H2_8 H 0.6249 0.8121 0.9169
H3_8 H 0.6955 0.8094 0.9211
C11_8 C 0.6700(10) 0.6184(7) 0.9464(4)
H4_8 H 0.6745 0.6536 0.9621
C12_8 C 0.6646(11) 0.7206(7) 0.7735(3)
H5_8 H 0.6651 0.7286 0.7437
H6_8 H 0.6984 0.6955 0.7808
H7_8 H 0.6277 0.7003 0.7808
C14_8 C 0.6666(9) 0.6228(6) 0.9025(4)
C15_8 C 0.6736(12) 0.5156(6) 0.9026(4)
H8_8 H 0.6800 0.4801 0.8874
C16_8 C 0.6679(8) 0.9928(6) 0.8810(5)
C17_8 C 0.6685(8) 0.9478(5) 0.7714(4)
H9_8 H 0.6701 0.9396 0.7417
H10_8 H 0.6324 0.9702 0.7778
H11_8 H 0.7033 0.9711 0.7795
C19_8 C 0.6670(9) 0.5626(6) 0.9678(3)
H13_8 H 0.6629 0.5612 0.9970
C20_8 C 0.6688(11) 0.5668(6) 0.8808(4)
H14_8 H 0.6668 0.5658 0.8515
C21_8 C 0.6701(6) 0.5108(5) 0.9447(3)
C22_8 C 0.6690(7) 0.4513(5) 0.9655(4)
C28_8 C 0.6658(6) 0.8320(5) 0.6380(3)
C29_8 C 0.6677(5) 0.8304(5) 0.7261(2)
C30_8 C 0.5576(5) 0.8319(6) 0.6386(4)
C31_8 C 0.6117(5) 0.8341(6) 0.6599(3)
C32_8 C 0.7213(5) 0.8313(7) 0.6604(3)
C33_8 C 0.6130(4) 0.8319(5) 0.7037(3)
C34_8 C 0.8241(6) 0.8350(9) 0.6190(3)
C35_8 C 0.7775(5) 0.8340(9) 0.6370(4)
C36_8 C 0.7240(5) 0.8316(7) 0.7041(3)
C37_8 C 0.6683(6) 0.8379(8) 0.5905(3)
H18_8 H 0.6279 0.8377 0.5793
H19_8 H 0.6879 0.8751 0.5831
H20_8 H 0.6906 0.8045 0.5789
C38_8 C 0.8816(7) 0.8300(10) 0.5536(4)
H21_8 H 0.8464 0.8255 0.5379
C39_8 C 0.7794(7) 0.8354(11) 0.7265(3)
H22_8 H 0.7714 0.8349 0.7563
H23_8 H 0.8045 0.8016 0.7192
H24_8 H 0.7997 0.8723 0.7192
C40_8 C 0.4538(6) 0.8285(7) 0.5985(5)
C41_8 C 0.8772(6) 0.8334(9) 0.5975(4)
C42_8 C 0.9844(6) 0.8264(12) 0.5974(4)
C43_8 C 0.5072(6) 0.8321(8) 0.6190(5)
C44_8 C 0.5522(5) 0.8315(8) 0.7286(4)
H26_8 H 0.5604 0.8299 0.7583
H27_8 H 0.5298 0.8676 0.7222
H28_8 H 0.5289 0.7967 0.7205
C45_8 C 0.4465(7) 0.8306(9) 0.5566(6)
H29_8 H 0.4813 0.8337 0.5402
C46_8 C 0.9374(6) 0.8330(9) 0.5322(3)
H30_8 H 0.9388 0.8371 0.5030
C47_8 C 0.9332(6) 0.8312(11) 0.6192(4)
H31_8 H 0.9342 0.8332 0.6485
C48_8 C 0.9892(5) 0.8299(6) 0.5553(3)
C50_8 C 0.3920(8) 0.8286(12) 0.5355(7)
H32_8 H 0.3916 0.8242 0.5063
C51_8 C 0.3367(8) 0.8332(11) 0.5576(8)
C52_8 C 0.3960(9) 0.8198(14) 0.6247(7)
H33_8 H 0.3989 0.8169 0.6539
C53_8 C 0.3425(8) 0.8163(14) 0.6067(9)
H34_8 H 0.3087 0.8044 0.6221
C54_8 C 0.2601(10) 0.8356(11) 0.5356(7)
O6_8 O 0.2617(7) 0.8586(7) 0.5786(5)
loop_
_geom_bond_atom_site_label_1
_geom_bond_atom_site_label_2
_geom_bond_site_symmetry_1
_geom_bond_site_symmetry_2
C1 C4 1_555 1_555
C2 C6 1_555 1_555
C3 C4 1_555 1_555
C4 C6 1_555 1_555
C5 C1 1_555 1_555
C6 C17 1_555 1_555
C7 C8 1_555 1_555
C8 C5 1_555 1_555
C9 C2 1_555 1_555
C10 C1 1_555 1_555
H1 C10 1_555 1_555
H2 C10 1_555 1_555
H3 C10 1_555 1_555
C11 H4 1_555 1_555
C12 C9 1_555 1_555
H6 C12 1_555 1_555
H7 C12 1_555 1_555
C14 C7 1_555 1_555
C15 H8 1_555 1_555
C16 C3 1_555 1_555
H10 C17 1_555 1_555
H11 C17 1_555 1_555
C19 C11 1_555 1_555
H13 C19 1_555 1_555
C20 C14 1_555 1_555
H14 C20 1_555 1_555
C21 C15 1_555 1_555
C22 C21 1_555 1_555
O1 C22 1_555 1_555
O2 C22 1_555 1_555
Cd3 O1 1_555 1_555
C5 C9 1_555 1_555
C11 C14 1_555 1_555
C15 C20 1_555 1_555
C19 C21 1_555 1_555
O2 Cd3 1_555 1_555
C28 C31 1_555 1_555
C30 C31 1_555 1_555
C31 C33 1_555 1_555
C32 C28 1_555 1_555
C33 C29 1_555 1_555
C34 C35 1_555 1_555
C35 C32 1_555 1_555
C36 C29 1_555 1_555
C37 C28 1_555 1_555
H18 C37 1_555 1_555
H19 C37 1_555 1_555
H20 C37 1_555 1_555
C38 H21 1_555 1_555
C39 C36 1_555 1_555
H23 C39 1_555 1_555
H24 C39 1_555 1_555
C41 C34 1_555 1_555
C42 H25 1_555 1_555
C43 C30 1_555 1_555
C44 C33 1_555 1_555
H27 C44 1_555 1_555
H28 C44 1_555 1_555
C46 C38 1_555 1_555
H30 C46 1_555 1_555
C47 C41 1_555 1_555
H31 C47 1_555 1_555
C48 C42 1_555 1_555
C49 C48 1_555 1_555
O7 C49 1_555 1_555
O8 C49 1_555 1_555
Cd4 O7 1_555 1_555
C32 C36 1_555 1_555
C38 C41 1_555 1_555
C42 C47 1_555 1_555
C46 C48 1_555 1_555
O8 Cd4 1_555 1_555
C45 C40 1_555 1_555
H29 C45 1_555 1_555
C50 C45 1_555 1_555
H32 C50 1_555 1_555
C51 C50 1_555 1_555
C52 C40 1_555 1_555
H33 C52 1_555 1_555
C53 C51 1_555 1_555
H34 C53 1_555 1_555
O5 C54 1_555 1_555
C54 C51 1_555 1_555
O6 C54 1_555 1_555
Cd4 O5 1_555 1_555
O11 Cd4 1_555 1_555
O15 Cd4 1_555 1_555
O17 Cd4 1_555 1_555
C52 C53 1_555 1_555
C18 C13 1_555 1_555
H12 C18 1_555 1_555
C23 C18 1_555 1_555
H15 C23 1_555 1_555
C24 C23 1_555 1_555
C25 C13 1_555 1_555
H16 C25 1_555 1_555
C26 C24 1_555 1_555
H17 C26 1_555 1_555
O3 C27 1_555 1_555
C27 C24 1_555 1_555
O4 C27 1_555 1_555
Cd3 O3 1_555 1_555
O12 Cd3 1_555 1_555
O16 Cd3 1_555 1_555
O18 Cd3 1_555 1_555
C25 C26 1_555 1_555
O11 C22_2 1_555 1_555
O15 C22_2 1_555 1_555
O12 C49_2 1_555 1_555
O16 C49_2 1_555 1_555
C1_2 C4_2 1_555 1_555
C2_2 C6_2 1_555 1_555
C3_2 C4_2 1_555 1_555
C4_2 C6_2 1_555 1_555
C5_2 C1_2 1_555 1_555
C6_2 C17_2 1_555 1_555
C7_2 C8_2 1_555 1_555
C8_2 C5_2 1_555 1_555
C9_2 C2_2 1_555 1_555
C10_2 C1_2 1_555 1_555
H1_2 C10_2 1_555 1_555
H2_2 C10_2 1_555 1_555
H3_2 C10_2 1_555 1_555
C11_2 H4_2 1_555 1_555
C12_2 C9_2 1_555 1_555
H5_2 C12_2 1_555 1_555
H6_2 C12_2 1_555 1_555
H7_2 C12_2 1_555 1_555
C13_2 C16_2 1_555 1_555
C14_2 C7_2 1_555 1_555
C16_2 C3_2 1_555 1_555
C17_2 H9_2 1_555 1_555
H10_2 C17_2 1_555 1_555
H11_2 C17_2 1_555 1_555
C18_2 C13_2 1_555 1_555
H12_2 C18_2 1_555 1_555
C19_2 C11_2 1_555 1_555
H13_2 C19_2 1_555 1_555
C20_2 C14_2 1_555 1_555
H14_2 C20_2 1_555 1_555
C21_2 C15_2 1_555 1_555
C23_2 C18_2 1_555 1_555
H15_2 C23_2 1_555 1_555
C24_2 C23_2 1_555 1_555
C25_2 C13_2 1_555 1_555
H16_2 C25_2 1_555 1_555
C26_2 C24_2 1_555 1_555
H17_2 C26_2 1_555 1_555
O17 C27_2 1_555 1_555
C27_2 C24_2 1_555 1_555
O4_2 C27_2 1_555 1_555
C28_2 C31_2 1_555 1_555
C29_2 C2_2 1_555 1_555
C30_2 C31_2 1_555 1_555
C31_2 C33_2 1_555 1_555
C32_2 C28_2 1_555 1_555
C33_2 C29_2 1_555 1_555
C34_2 C35_2 1_555 1_555
C35_2 C32_2 1_555 1_555
C36_2 C29_2 1_555 1_555
C37_2 C28_2 1_555 1_555
H18_2 C37_2 1_555 1_555
H19_2 C37_2 1_555 1_555
H20_2 C37_2 1_555 1_555
C38_2 H21_2 1_555 1_555
C39_2 C36_2 1_555 1_555
H22_2 C39_2 1_555 1_555
H23_2 C39_2 1_555 1_555
H24_2 C39_2 1_555 1_555
C40_2 C43_2 1_555 1_555
C41_2 C34_2 1_555 1_555
C43_2 C30_2 1_555 1_555
C44_2 C33_2 1_555 1_555
H26_2 C44_2 1_555 1_555
H27_2 C44_2 1_555 1_555
H28_2 C44_2 1_555 1_555
C45_2 C40_2 1_555 1_555
H29_2 C45_2 1_555 1_555
C46_2 C38_2 1_555 1_555
H30_2 C46_2 1_555 1_555
C47_2 C41_2 1_555 1_555
H31_2 C47_2 1_555 1_555
C48_2 C42_2 1_555 1_555
C50_2 C45_2 1_555 1_555
H32_2 C50_2 1_555 1_555
C51_2 C50_2 1_555 1_555
C52_2 C40_2 1_555 1_555
H33_2 C52_2 1_555 1_555
C53_2 C51_2 1_555 1_555
H34_2 C53_2 1_555 1_555
O18 C54_2 1_555 1_555
C54_2 C51_2 1_555 1_555
O6_2 C54_2 1_555 1_555
C5_2 C9_2 1_555 1_555
C11_2 C14_2 1_555 1_555
C15_2 C20_2 1_555 1_555
C19_2 C21_2 1_555 1_555
C25_2 C26_2 1_555 1_555
C32_2 C36_2 1_555 1_555
C38_2 C41_2 1_555 1_555
C42_2 C47_2 1_555 1_555
C46_2 C48_2 1_555 1_555
C52_2 C53_2 1_555 1_555
C45_3 C40_3 1_555 1_555
H29_3 C45_3 1_555 1_555
C50_3 C45_3 1_555 1_555
H32_3 C50_3 1_555 1_555
C51_3 C50_3 1_555 1_555
C52_3 C40_3 1_555 1_555
H33_3 C52_3 1_555 1_555
C53_3 C51_3 1_555 1_555
H34_3 C53_3 1_555 1_555
C54_3 C51_3 1_555 1_555
O6_3 C54_3 1_555 1_555
O11_2 Cd2 1_555 1_555
O14 Cd2 1_555 1_555
O17_2 Cd2 1_555 1_555
C52_3 C53_3 1_555 1_555
Cd2_2 O5_2 1_555 1_555
O10 Cd2_2 1_555 1_555
O15_2 Cd2_2 1_555 1_555
O1_2 C22_3 1_555 1_555
O2_2 C22_3 1_555 1_555
Cd3_2 O1_2 1_555 1_555
O2_2 Cd3_2 1_555 1_555
C1_3 C4_3 1_555 1_555
C2_3 C6_3 1_555 1_555
C3_3 C4_3 1_555 1_555
C4_3 C6_3 1_555 1_555
C5_3 C1_3 1_555 1_555
C6_3 C17_3 1_555 1_555
C7_3 C8_3 1_555 1_555
C8_3 C5_3 1_555 1_555
C9_3 C2_3 1_555 1_555
C10_3 C1_3 1_555 1_555
H1_3 C10_3 1_555 1_555
H2_3 C10_3 1_555 1_555
H3_3 C10_3 1_555 1_555
C11_3 H4_3 1_555 1_555
C12_3 C9_3 1_555 1_555
H5_3 C12_3 1_555 1_555
H6_3 C12_3 1_555 1_555
H7_3 C12_3 1_555 1_555
C13_3 C16_3 1_555 1_555
C14_3 C7_3 1_555 1_555
C16_3 C3_3 1_555 1_555
C17_3 H9_3 1_555 1_555
H10_3 C17_3 1_555 1_555
H11_3 C17_3 1_555 1_555
C18_3 C13_3 1_555 1_555
H12_3 C18_3 1_555 1_555
C19_3 C11_3 1_555 1_555
H13_3 C19_3 1_555 1_555
C20_3 C14_3 1_555 1_555
H14_3 C20_3 1_555 1_555
C21_3 C15_3 1_555 1_555
C23_3 C18_3 1_555 1_555
H15_3 C23_3 1_555 1_555
C24_3 C23_3 1_555 1_555
C25_3 C13_3 1_555 1_555
H16_3 C25_3 1_555 1_555
C26_3 C24_3 1_555 1_555
H17_3 C26_3 1_555 1_555
O3_2 C27_3 1_555 1_555
C27_3 C24_3 1_555 1_555
O4_3 C27_3 1_555 1_555
Cd3_2 O3_2 1_555 1_555
C28_3 C31_3 1_555 1_555
C29_3 C2_3 1_555 1_555
C30_3 C31_3 1_555 1_555
C31_3 C33_3 1_555 1_555
C32_3 C28_3 1_555 1_555
C33_3 C29_3 1_555 1_555
C34_3 C35_3 1_555 1_555
C35_3 C32_3 1_555 1_555
C36_3 C29_3 1_555 1_555
C37_3 C28_3 1_555 1_555
H18_3 C37_3 1_555 1_555
H19_3 C37_3 1_555 1_555
H20_3 C37_3 1_555 1_555
C38_3 H21_3 1_555 1_555
C39_3 C36_3 1_555 1_555
H22_3 C39_3 1_555 1_555
H23_3 C39_3 1_555 1_555
H24_3 C39_3 1_555 1_555
C41_3 C34_3 1_555 1_555
C42_3 H25_3 1_555 1_555
C43_3 C30_3 1_555 1_555
C44_3 C33_3 1_555 1_555
H26_3 C44_3 1_555 1_555
H27_3 C44_3 1_555 1_555
H28_3 C44_3 1_555 1_555
C46_3 C38_3 1_555 1_555
H30_3 C46_3 1_555 1_555
C47_3 C41_3 1_555 1_555
H31_3 C47_3 1_555 1_555
C48_3 C42_3 1_555 1_555
C49_3 C48_3 1_555 1_555
O14 C49_3 1_555 1_555
O12_2 Cd3_2 1_555 1_555
O16_2 Cd3_2 1_555 1_555
O18_2 Cd3_2 1_555 1_555
C5_3 C9_3 1_555 1_555
C11_3 C14_3 1_555 1_555
C15_3 C20_3 1_555 1_555
C19_3 C21_3 1_555 1_555
C25_3 C26_3 1_555 1_555
C32_3 C36_3 1_555 1_555
C38_3 C41_3 1_555 1_555
C42_3 C47_3 1_555 1_555
C46_3 C48_3 1_555 1_555
C1_4 C4_4 1_555 1_555
C2_4 C6_4 1_555 1_555
C3_4 C4_4 1_555 1_555
C4_4 C6_4 1_555 1_555
C5_4 C1_4 1_555 1_555
C6_4 C17_4 1_555 1_555
C7_4 C8_4 1_555 1_555
C8_4 C5_4 1_555 1_555
C9_4 C2_4 1_555 1_555
C10_4 C1_4 1_555 1_555
H1_4 C10_4 1_555 1_555
H2_4 C10_4 1_555 1_555
H3_4 C10_4 1_555 1_555
C11_4 H4_4 1_555 1_555
C12_4 C9_4 1_555 1_555
H5_4 C12_4 1_555 1_555
H6_4 C12_4 1_555 1_555
H7_4 C12_4 1_555 1_555
C14_4 C7_4 1_555 1_555
C15_4 H8_4 1_555 1_555
C16_4 C3_4 1_555 1_555
C17_4 H9_4 1_555 1_555
H10_4 C17_4 1_555 1_555
H11_4 C17_4 1_555 1_555
C19_4 C11_4 1_555 1_555
H13_4 C19_4 1_555 1_555
C20_4 C14_4 1_555 1_555
H14_4 C20_4 1_555 1_555
C21_4 C15_4 1_555 1_555
C22_4 C21_4 1_555 1_555
O15_2 C22_4 1_555 1_555
C28_4 C31_4 1_555 1_555
C29_4 C2_4 1_555 1_555
C30_4 C31_4 1_555 1_555
C31_4 C33_4 1_555 1_555
C32_4 C28_4 1_555 1_555
C33_4 C29_4 1_555 1_555
C34_4 C35_4 1_555 1_555
C35_4 C32_4 1_555 1_555
C36_4 C29_4 1_555 1_555
C37_4 C28_4 1_555 1_555
H18_4 C37_4 1_555 1_555
H19_4 C37_4 1_555 1_555
H20_4 C37_4 1_555 1_555
C38_4 H21_4 1_555 1_555
C39_4 C36_4 1_555 1_555
H22_4 C39_4 1_555 1_555
H23_4 C39_4 1_555 1_555
H24_4 C39_4 1_555 1_555
C40_4 C43_4 1_555 1_555
C41_4 C34_4 1_555 1_555
C43_4 C30_4 1_555 1_555
C44_4 C33_4 1_555 1_555
H26_4 C44_4 1_555 1_555
H27_4 C44_4 1_555 1_555
H28_4 C44_4 1_555 1_555
C45_4 C40_4 1_555 1_555
H29_4 C45_4 1_555 1_555
C46_4 C38_4 1_555 1_555
H30_4 C46_4 1_555 1_555
C47_4 C41_4 1_555 1_555
H31_4 C47_4 1_555 1_555
C48_4 C42_4 1_555 1_555
C50_4 C45_4 1_555 1_555
H32_4 C50_4 1_555 1_555
C51_4 C50_4 1_555 1_555
C52_4 C40_4 1_555 1_555
H33_4 C52_4 1_555 1_555
C53_4 C51_4 1_555 1_555
H34_4 C53_4 1_555 1_555
O18_2 C54_4 1_555 1_555
C54_4 C51_4 1_555 1_555
O6_4 C54_4 1_555 1_555
C5_4 C9_4 1_555 1_555
C11_4 C14_4 1_555 1_555
C15_4 C20_4 1_555 1_555
C19_4 C21_4 1_555 1_555
C32_4 C36_4 1_555 1_555
C38_4 C41_4 1_555 1_555
C42_4 C47_4 1_555 1_555
C46_4 C48_4 1_555 1_555
C52_4 C53_4 1_555 1_555
C18_4 C13_4 1_555 1_555
H12_4 C18_4 1_555 1_555
C23_4 C18_4 1_555 1_555
H15_4 C23_4 1_555 1_555
C24_4 C23_4 1_555 1_555
C25_4 C13_4 1_555 1_555
H16_4 C25_4 1_555 1_555
C26_4 C24_4 1_555 1_555
H17_4 C26_4 1_555 1_555
C27_4 C24_4 1_555 1_555
O4_4 C27_4 1_555 1_555
C25_4 C26_4 1_555 1_555
O12_2 C49_4 1_555 1_555
O16_2 C49_4 1_555 1_555
C18_5 C13_5 1_555 1_555
H12_5 C18_5 1_555 1_555
C23_5 C18_5 1_555 1_555
H15_5 C23_5 1_555 1_555
C24_5 C23_5 1_555 1_555
C25_5 C13_5 1_555 1_555
H16_5 C25_5 1_555 1_555
C26_5 C24_5 1_555 1_555
H17_5 C26_5 1_555 1_555
O3_3 C27_5 1_555 1_555
C27_5 C24_5 1_555 1_555
O4_5 C27_5 1_555 1_555
Cd1 O3_3 1_555 1_555
O9 Cd1 1_555 1_555
O12_3 Cd1 1_555 1_555
O13 Cd1 1_555 1_555
O16_3 Cd1 1_555 1_555
O18_3 Cd1 1_555 1_555
C25_5 C26_5 1_555 1_555
C45_5 C40_5 1_555 1_555
H29_5 C45_5 1_555 1_555
C50_5 C45_5 1_555 1_555
H32_5 C50_5 1_555 1_555
C51_5 C50_5 1_555 1_555
C52_5 C40_5 1_555 1_555
H33_5 C52_5 1_555 1_555
C53_5 C51_5 1_555 1_555
H34_5 C53_5 1_555 1_555
O5_3 C54_5 1_555 1_555
C54_5 C51_5 1_555 1_555
O6_5 C54_5 1_555 1_555
Cd2_3 O5_3 1_555 1_555
O10_2 Cd2_3 1_555 1_555
O11_3 Cd2_3 1_555 1_555
O14_2 Cd2_3 1_555 1_555
O15_3 Cd2_3 1_555 1_555
O17_3 Cd2_3 1_555 1_555
C52_5 C53_5 1_555 1_555
C1_5 C4_5 1_555 1_555
C2_5 C6_5 1_555 1_555
C3_5 C4_5 1_555 1_555
C4_5 C6_5 1_555 1_555
C5_5 C1_5 1_555 1_555
C6_5 C17_5 1_555 1_555
C7_5 C8_5 1_555 1_555
C8_5 C5_5 1_555 1_555
C9_5 C2_5 1_555 1_555
C10_5 C1_5 1_555 1_555
H1_5 C10_5 1_555 1_555
H2_5 C10_5 1_555 1_555
H3_5 C10_5 1_555 1_555
C11_5 H4_5 1_555 1_555
C12_5 C9_5 1_555 1_555
H6_5 C12_5 1_555 1_555
H7_5 C12_5 1_555 1_555
C14_5 C7_5 1_555 1_555
C15_5 H8_5 1_555 1_555
C16_5 C3_5 1_555 1_555
H10_5 C17_5 1_555 1_555
H11_5 C17_5 1_555 1_555
C19_5 C11_5 1_555 1_555
H13_5 C19_5 1_555 1_555
C20_5 C14_5 1_555 1_555
H14_5 C20_5 1_555 1_555
C21_5 C15_5 1_555 1_555
C22_5 C21_5 1_555 1_555
O9 C22_5 1_555 1_555
O13 C22_5 1_555 1_555
C5_5 C9_5 1_555 1_555
C11_5 C14_5 1_555 1_555
C15_5 C20_5 1_555 1_555
C19_5 C21_5 1_555 1_555
C28_5 C31_5 1_555 1_555
C30_5 C31_5 1_555 1_555
C31_5 C33_5 1_555 1_555
C32_5 C28_5 1_555 1_555
C33_5 C29_5 1_555 1_555
C34_5 C35_5 1_555 1_555
C35_5 C32_5 1_555 1_555
C36_5 C29_5 1_555 1_555
C37_5 C28_5 1_555 1_555
H18_5 C37_5 1_555 1_555
H19_5 C37_5 1_555 1_555
H20_5 C37_5 1_555 1_555
C38_5 H21_5 1_555 1_555
C39_5 C36_5 1_555 1_555
H23_5 C39_5 1_555 1_555
H24_5 C39_5 1_555 1_555
C41_5 C34_5 1_555 1_555
C42_5 H25_5 1_555 1_555
C43_5 C30_5 1_555 1_555
C44_5 C33_5 1_555 1_555
H27_5 C44_5 1_555 1_555
H28_5 C44_5 1_555 1_555
C46_5 C38_5 1_555 1_555
H30_5 C46_5 1_555 1_555
C47_5 C41_5 1_555 1_555
H31_5 C47_5 1_555 1_555
C48_5 C42_5 1_555 1_555
C49_5 C48_5 1_555 1_555
O10_2 C49_5 1_555 1_555
O14_2 C49_5 1_555 1_555
C32_5 C36_5 1_555 1_555
C38_5 C41_5 1_555 1_555
C42_5 C47_5 1_555 1_555
C46_5 C48_5 1_555 1_555
C1_6 C4_6 1_555 1_555
C2_6 C6_6 1_555 1_555
C3_6 C4_6 1_555 1_555
C4_6 C6_6 1_555 1_555
C5_6 C1_6 1_555 1_555
C6_6 C17_6 1_555 1_555
C7_6 C8_6 1_555 1_555
C8_6 C5_6 1_555 1_555
C9_6 C2_6 1_555 1_555
C10_6 C1_6 1_555 1_555
H1_6 C10_6 1_555 1_555
H2_6 C10_6 1_555 1_555
H3_6 C10_6 1_555 1_555
C11_6 H4_6 1_555 1_555
C12_6 C9_6 1_555 1_555
H5_6 C12_6 1_555 1_555
H6_6 C12_6 1_555 1_555
H7_6 C12_6 1_555 1_555
C13_6 C16_6 1_555 1_555
C14_6 C7_6 1_555 1_555
C16_6 C3_6 1_555 1_555
C17_6 H9_6 1_555 1_555
H10_6 C17_6 1_555 1_555
H11_6 C17_6 1_555 1_555
C18_6 C13_6 1_555 1_555
H12_6 C18_6 1_555 1_555
C19_6 C11_6 1_555 1_555
H13_6 C19_6 1_555 1_555
C20_6 C14_6 1_555 1_555
H14_6 C20_6 1_555 1_555
C21_6 C15_6 1_555 1_555
C23_6 C18_6 1_555 1_555
H15_6 C23_6 1_555 1_555
C24_6 C23_6 1_555 1_555
C25_6 C13_6 1_555 1_555
H16_6 C25_6 1_555 1_555
C26_6 C24_6 1_555 1_555
H17_6 C26_6 1_555 1_555
O17_3 C27_6 1_555 1_555
C27_6 C24_6 1_555 1_555
O4_6 C27_6 1_555 1_555
C28_6 C31_6 1_555 1_555
C29_6 C2_6 1_555 1_555
C30_6 C31_6 1_555 1_555
C31_6 C33_6 1_555 1_555
C32_6 C28_6 1_555 1_555
C33_6 C29_6 1_555 1_555
C34_6 C35_6 1_555 1_555
C35_6 C32_6 1_555 1_555
C36_6 C29_6 1_555 1_555
C37_6 C28_6 1_555 1_555
H18_6 C37_6 1_555 1_555
H19_6 C37_6 1_555 1_555
H20_6 C37_6 1_555 1_555
C38_6 H21_6 1_555 1_555
C39_6 C36_6 1_555 1_555
H22_6 C39_6 1_555 1_555
H23_6 C39_6 1_555 1_555
H24_6 C39_6 1_555 1_555
C40_6 C43_6 1_555 1_555
C41_6 C34_6 1_555 1_555
C43_6 C30_6 1_555 1_555
C44_6 C33_6 1_555 1_555
H26_6 C44_6 1_555 1_555
H27_6 C44_6 1_555 1_555
H28_6 C44_6 1_555 1_555
C45_6 C40_6 1_555 1_555
H29_6 C45_6 1_555 1_555
C46_6 C38_6 1_555 1_555
H30_6 C46_6 1_555 1_555
C47_6 C41_6 1_555 1_555
H31_6 C47_6 1_555 1_555
C48_6 C42_6 1_555 1_555
C50_6 C45_6 1_555 1_555
H32_6 C50_6 1_555 1_555
C51_6 C50_6 1_555 1_555
C52_6 C40_6 1_555 1_555
H33_6 C52_6 1_555 1_555
C53_6 C51_6 1_555 1_555
H34_6 C53_6 1_555 1_555
O18_3 C54_6 1_555 1_555
C54_6 C51_6 1_555 1_555
O6_6 C54_6 1_555 1_555
C5_6 C9_6 1_555 1_555
C11_6 C14_6 1_555 1_555
C15_6 C20_6 1_555 1_555
C19_6 C21_6 1_555 1_555
C25_6 C26_6 1_555 1_555
C32_6 C36_6 1_555 1_555
C38_6 C41_6 1_555 1_555
C42_6 C47_6 1_555 1_555
C46_6 C48_6 1_555 1_555
C52_6 C53_6 1_555 1_555
O12_3 C49_6 1_555 1_555
O16_3 C49_6 1_555 1_555
O11_3 C22_6 1_555 1_555
O15_3 C22_6 1_555 1_555
C1_7 C4_7 1_555 1_555
C2_7 C6_7 1_555 1_555
C3_7 C4_7 1_555 1_555
C4_7 C6_7 1_555 1_555
C5_7 C1_7 1_555 1_555
C6_7 C17_7 1_555 1_555
C7_7 C8_7 1_555 1_555
C8_7 C5_7 1_555 1_555
C9_7 C2_7 1_555 1_555
C10_7 C1_7 1_555 1_555
H1_7 C10_7 1_555 1_555
H2_7 C10_7 1_555 1_555
H3_7 C10_7 1_555 1_555
C11_7 H4_7 1_555 1_555
C12_7 C9_7 1_555 1_555
H5_7 C12_7 1_555 1_555
H6_7 C12_7 1_555 1_555
H7_7 C12_7 1_555 1_555
C13_7 C16_7 1_555 1_555
C14_7 C7_7 1_555 1_555
C16_7 C3_7 1_555 1_555
C17_7 H9_7 1_555 1_555
H10_7 C17_7 1_555 1_555
H11_7 C17_7 1_555 1_555
C18_7 C13_7 1_555 1_555
H12_7 C18_7 1_555 1_555
C19_7 C11_7 1_555 1_555
H13_7 C19_7 1_555 1_555
C20_7 C14_7 1_555 1_555
H14_7 C20_7 1_555 1_555
C21_7 C15_7 1_555 1_555
C23_7 C18_7 1_555 1_555
H15_7 C23_7 1_555 1_555
C24_7 C23_7 1_555 1_555
C25_7 C13_7 1_555 1_555
H16_7 C25_7 1_555 1_555
C26_7 C24_7 1_555 1_555
H17_7 C26_7 1_555 1_555
O3_4 C27_7 1_555 1_555
C27_7 C24_7 1_555 1_555
O4_7 C27_7 1_555 1_555
Cd1_2 O3_4 1_555 1_555
C28_7 C31_7 1_555 1_555
C29_7 C2_7 1_555 1_555
C30_7 C31_7 1_555 1_555
C31_7 C33_7 1_555 1_555
C32_7 C28_7 1_555 1_555
C33_7 C29_7 1_555 1_555
C34_7 C35_7 1_555 1_555
C35_7 C32_7 1_555 1_555
C36_7 C29_7 1_555 1_555
C37_7 C28_7 1_555 1_555
H18_7 C37_7 1_555 1_555
H19_7 C37_7 1_555 1_555
H20_7 C37_7 1_555 1_555
C38_7 H21_7 1_555 1_555
C39_7 C36_7 1_555 1_555
H22_7 C39_7 1_555 1_555
H23_7 C39_7 1_555 1_555
H24_7 C39_7 1_555 1_555
C41_7 C34_7 1_555 1_555
C42_7 H25_7 1_555 1_555
C43_7 C30_7 1_555 1_555
C44_7 C33_7 1_555 1_555
H26_7 C44_7 1_555 1_555
H27_7 C44_7 1_555 1_555
H28_7 C44_7 1_555 1_555
C46_7 C38_7 1_555 1_555
H30_7 C46_7 1_555 1_555
C47_7 C41_7 1_555 1_555
H31_7 C47_7 1_555 1_555
C48_7 C42_7 1_555 1_555
C49_7 C48_7 1_555 1_555
O8_2 C49_7 1_555 1_555
O9_2 Cd1_2 1_555 1_555
O12_4 Cd1_2 1_555 1_555
O13_2 Cd1_2 1_555 1_555
O16_4 Cd1_2 1_555 1_555
O18_4 Cd1_2 1_555 1_555
C5_7 C9_7 1_555 1_555
C11_7 C14_7 1_555 1_555
C15_7 C20_7 1_555 1_555
C19_7 C21_7 1_555 1_555
C25_7 C26_7 1_555 1_555
C32_7 C36_7 1_555 1_555
C38_7 C41_7 1_555 1_555
C42_7 C47_7 1_555 1_555
C46_7 C48_7 1_555 1_555
O8_2 Cd4_2 1_555 1_555
Cd4_3 O7_2 1_555 1_555
O9_2 C22_7 1_555 1_555
O13_2 C22_7 1_555 1_555
C45_7 C40_7 1_555 1_555
H29_7 C45_7 1_555 1_555
C50_7 C45_7 1_555 1_555
H32_7 C50_7 1_555 1_555
C51_7 C50_7 1_555 1_555
C52_7 C40_7 1_555 1_555
H33_7 C52_7 1_555 1_555
C53_7 C51_7 1_555 1_555
H34_7 C53_7 1_555 1_555
C54_7 C51_7 1_555 1_555
O6_7 C54_7 1_555 1_555
O11_4 Cd4_2 1_555 1_555
O17_4 Cd4_2 1_555 1_555
C52_7 C53_7 1_555 1_555
Cd4_3 O5_4 1_555 1_555
O15_4 Cd4_3 1_555 1_555
O12_4 C49_8 1_555 1_555
O16_4 C49_8 1_555 1_555
C18_8 C13_8 1_555 1_555
H12_8 C18_8 1_555 1_555
C23_8 C18_8 1_555 1_555
H15_8 C23_8 1_555 1_555
C24_8 C23_8 1_555 1_555
C25_8 C13_8 1_555 1_555
H16_8 C25_8 1_555 1_555
C26_8 C24_8 1_555 1_555
H17_8 C26_8 1_555 1_555
C27_8 C24_8 1_555 1_555
O4_8 C27_8 1_555 1_555
C25_8 C26_8 1_555 1_555
C1_8 C4_8 1_555 1_555
C2_8 C6_8 1_555 1_555
C3_8 C4_8 1_555 1_555
C4_8 C6_8 1_555 1_555
C5_8 C1_8 1_555 1_555
C6_8 C17_8 1_555 1_555
C7_8 C8_8 1_555 1_555
C8_8 C5_8 1_555 1_555
C9_8 C2_8 1_555 1_555
C10_8 C1_8 1_555 1_555
H1_8 C10_8 1_555 1_555
H2_8 C10_8 1_555 1_555
H3_8 C10_8 1_555 1_555
C11_8 H4_8 1_555 1_555
C12_8 C9_8 1_555 1_555
H5_8 C12_8 1_555 1_555
H6_8 C12_8 1_555 1_555
H7_8 C12_8 1_555 1_555
C14_8 C7_8 1_555 1_555
C15_8 H8_8 1_555 1_555
C16_8 C3_8 1_555 1_555
C17_8 H9_8 1_555 1_555
H10_8 C17_8 1_555 1_555
H11_8 C17_8 1_555 1_555
C19_8 C11_8 1_555 1_555
H13_8 C19_8 1_555 1_555
C20_8 C14_8 1_555 1_555
H14_8 C20_8 1_555 1_555
C21_8 C15_8 1_555 1_555
C22_8 C21_8 1_555 1_555
O15_4 C22_8 1_555 1_555
C28_8 C31_8 1_555 1_555
C29_8 C2_8 1_555 1_555
C30_8 C31_8 1_555 1_555
C31_8 C33_8 1_555 1_555
C32_8 C28_8 1_555 1_555
C33_8 C29_8 1_555 1_555
C34_8 C35_8 1_555 1_555
C35_8 C32_8 1_555 1_555
C36_8 C29_8 1_555 1_555
C37_8 C28_8 1_555 1_555
H18_8 C37_8 1_555 1_555
H19_8 C37_8 1_555 1_555
H20_8 C37_8 1_555 1_555
C38_8 H21_8 1_555 1_555
C39_8 C36_8 1_555 1_555
H22_8 C39_8 1_555 1_555
H23_8 C39_8 1_555 1_555
H24_8 C39_8 1_555 1_555
C40_8 C43_8 1_555 1_555
C41_8 C34_8 1_555 1_555
C43_8 C30_8 1_555 1_555
C44_8 C33_8 1_555 1_555
H26_8 C44_8 1_555 1_555
H27_8 C44_8 1_555 1_555
H28_8 C44_8 1_555 1_555
C45_8 C40_8 1_555 1_555
H29_8 C45_8 1_555 1_555
C46_8 C38_8 1_555 1_555
H30_8 C46_8 1_555 1_555
C47_8 C41_8 1_555 1_555
H31_8 C47_8 1_555 1_555
C48_8 C42_8 1_555 1_555
C50_8 C45_8 1_555 1_555
H32_8 C50_8 1_555 1_555
C51_8 C50_8 1_555 1_555
C52_8 C40_8 1_555 1_555
H33_8 C52_8 1_555 1_555
C53_8 C51_8 1_555 1_555
H34_8 C53_8 1_555 1_555
O18_4 C54_8 1_555 1_555
C54_8 C51_8 1_555 1_555
O6_8 C54_8 1_555 1_555
C5_8 C9_8 1_555 1_555
C11_8 C14_8 1_555 1_555
C15_8 C20_8 1_555 1_555
C19_8 C21_8 1_555 1_555
C32_8 C36_8 1_555 1_555
C38_8 C41_8 1_555 1_555
C42_8 C47_8 1_555 1_555
C46_8 C48_8 1_555 1_555
C52_8 C53_8 1_555 1_555

#END
