
###############################################################################
#
# This file contains modified crystal structure data generated from the
# MOF subset of the Cambridge Structural Database (CSD) v543 
# hosted by the Cambridge Crystallographic Data Centre (CCDC).
#
# This work is licensed under the Creative Commons
# Attribution-NonCommercial-ShareAlike 4.0 International License.
# To view a copy of this license, visit
# http://creativecommons.org/licenses/by-nc-sa/4.0/
# or send a letter to
# Creative Commons, PO Box 1866, Mountain View, CA 94042, USA.
#
# CIF created using the CSD Python API on 29 September 2022
# The structure has been converted into the P1 space group
# The structure has a 3D framework
# The original CSD entry GOFDAH is in the tetragonal crystal system
# The framework has been calculated to contain at least 10.0% void space
# The void calculation uses a probe of radius 1.32A, grid spacing 0.4
#
###############################################################################

data_GOFDAH
_chemical_formula_moiety         '(C176 H240 Li16 O30)n'
_symmetry_cell_setting           triclinic
_symmetry_space_group_name_H-M   'P 1'
_symmetry_Int_Tables_number      1
_space_group_name_Hall           'P 1'
loop_
_symmetry_equiv_pos_site_id
_symmetry_equiv_pos_as_xyz
1 x,y,z
_cell_length_a                   15.2748(10)
_cell_length_b                   15.2748(10)
_cell_length_c                   24.129(3)
_cell_angle_alpha                90
_cell_angle_beta                 90
_cell_angle_gamma                90
_cell_volume                     5629.77
loop_
_atom_site_label
_atom_site_type_symbol
_atom_site_fract_x
_atom_site_fract_y
_atom_site_fract_z
C8 C 0.36073(16) 0.0001(2) 0.01549(14)
H7 H 0.3490 0.0622 0.0084
H2 H 0.2634 0.0244 0.9244
H11 H 0.1361 0.0236 0.8673
C3 C 0.26246(14) 0.86640(17) 0.01261(10)
H1 H 0.2905 0.8469 0.0455
C7 C 0.17024(16) 0.73034(17) 0.01752(9)
H3 H 0.1122 0.7372 0.0342
H5 H 0.2130 0.7161 0.0464
H8 H 0.3624 0.9896 0.0555
C41 C 0.00688(14) 0.58230(15) 0.02456(8)
H51 H 0.0599 0.5753 0.0477
Li1 Li 0.0363(2) 0.6731(2) 0.91556(13)
C1 C 0.15291(12) 0.84176(13) 0.94041(8)
C2 C 0.19627(13) 0.81431(15) 0.98949(8)
C4 C 0.28848(14) 0.94479(16) 0.98959(11)
C5 C 0.24590(14) 0.97107(15) 0.94141(10)
C6 C 0.17917(13) 0.92304(13) 0.91704(8)
H4 H 0.1686 0.6830 0.9901
H6 H 0.4172 0.9840 0.9991
C9 C 0.13339(14) 0.95954(14) 0.86654(8)
H9 H 0.1623 0.9379 0.8330
H10 H 0.0720 0.9408 0.8666
H13 H 0.0160 0.3578 0.9696
Li5 Li 0.0769(2) 0.7863(2) 0.83444(13)
Li6 Li 0.4231(2) 0.7137(2) 0.66556(13)
O4 O 0.08900(8) 0.79306(9) 0.91708(5)
O5 O 0.04306(9) 0.66100(8) 0.83292(5)
O6 O 0.02969(9) 0.57106(10) 0.96696(5)
O8 O 0.17894(10) 0.77969(9) 0.78304(5)
O9 O 0.32106(10) 0.72031(9) 0.71696(5)
C12 C 0.09176(13) 0.59709(12) 0.80959(8)
C15 C 0.06431(15) 0.55373(13) 0.76051(8)
C18 C 0.11640(17) 0.48754(14) 0.73739(10)
H16 H 0.0969 0.4595 0.7045
C21 C 0.19479(16) 0.46152(14) 0.76041(11)
C24 C 0.22107(15) 0.50410(14) 0.80859(10)
H19 H 0.2744 0.4866 0.8256
C27 C 0.17304(13) 0.57083(13) 0.83296(8)
C31 C 0.01966(17) 0.92024(16) 0.73248(9)
H23 H 0.0128 0.8622 0.7158
H26 H 0.0670 0.9186 0.7599
H29 H 0.0339 0.9630 0.7036
C33 C 0.2501(2) 0.38927(16) 0.73451(14)
H31 H 0.2340 0.3328 0.7509
H34 H 0.3122 0.4010 0.7416
H37 H 0.2396 0.3876 0.6945
C36 C 0.20954(14) 0.61661(14) 0.88346(8)
H40 H 0.1879 0.5877 0.9170
H43 H 0.1908 0.6780 0.8834
H46 H 0.2736 0.6139 0.8827
C39 C 0.16770(15) 0.75688(14) 0.72544(8)
C40 C 0.33230(15) 0.74312(14) 0.77456(8)
H49 H 0.1747 0.8099 0.7023
H50 H 0.3253 0.6901 0.7977
H52 H 0.1078 0.7340 0.7196
H53 H 0.3922 0.7660 0.7804
C42 C 0.06120(13) 0.48358(15) 0.95778(9)
C43 C 0.23358(15) 0.68880(13) 0.70778(9)
C44 C 0.26642(15) 0.81120(13) 0.79222(9)
H55 H 0.2745 0.8248 0.8320
H56 H 0.2255 0.6752 0.6680
H57 H 0.0748 0.4755 0.9180
H58 H 0.2758 0.8657 0.7708
H59 H 0.2242 0.6343 0.7292
H60 H 0.1157 0.4742 0.9792
C19 C 0.88360(17) 0.01246(14) 0.73739(10)
H17 H 0.9031 0.0405 0.7045
C22 C 0.80521(16) 0.03848(14) 0.76041(11)
H20 H 0.7256 0.0134 0.8256
C34 C 0.7499(2) 0.11073(16) 0.73451(14)
H32 H 0.7660 0.1672 0.7509
H35 H 0.6878 0.0990 0.7416
H38 H 0.7604 0.1124 0.6945
O2 O 0.97031(9) 0.42894(10) 0.03304(5)
C11 C 0.93880(13) 0.51642(15) 0.04222(9)
H14 H 0.9252 0.5245 0.0820
H15 H 0.8843 0.5258 0.0208
Li2 Li 0.9637(2) 0.3269(2) 0.08444(13)
C20 C 0.73754(14) 0.63360(17) 0.01261(10)
H18 H 0.7095 0.6531 0.0455
C32 C 0.82976(16) 0.76966(17) 0.01752(9)
H24 H 0.8878 0.7628 0.0342
H30 H 0.7870 0.7839 0.0464
C35 C 0.63927(16) 0.4999(2) 0.01549(14)
H36 H 0.6510 0.4378 0.0084
H39 H 0.6376 0.5104 0.0555
H54 H 0.9840 0.6422 0.0304
O1 O 0.91100(8) 0.70694(9) 0.91708(5)
C10 C 0.99312(14) 0.41770(15) 0.97544(8)
H12 H 0.9401 0.4247 0.9523
Li3 Li 0.9231(2) 0.7137(2) 0.83444(13)
Li4 Li 0.9637(2) 0.8269(2) 0.91556(13)
O3 O 0.95694(9) 0.83900(8) 0.83292(5)
O7 O 0.82106(10) 0.72031(9) 0.78304(5)
O10 O 0.97031(9) 0.92894(10) 0.96696(5)
C13 C 0.90824(13) 0.90291(12) 0.80959(8)
C14 C 0.84709(12) 0.65824(13) 0.94041(8)
C16 C 0.93569(15) 0.94627(13) 0.76051(8)
C17 C 0.80373(13) 0.68569(15) 0.98949(8)
C23 C 0.71152(14) 0.55521(16) 0.98959(11)
C25 C 0.77893(15) 0.99590(14) 0.80859(10)
C26 C 0.75410(14) 0.52893(15) 0.94141(10)
H21 H 0.7366 0.4756 0.9244
C28 C 0.82696(13) 0.92917(13) 0.83296(8)
C29 C 0.82083(13) 0.57696(13) 0.91704(8)
C30 C 0.98034(17) 0.57976(16) 0.73248(9)
H22 H 0.9872 0.6378 0.7158
H25 H 0.9330 0.5814 0.7599
H27 H 0.8314 0.8170 0.9901
H28 H 0.9661 0.5370 0.7036
H33 H 0.5828 0.5160 0.9991
C37 C 0.79046(14) 0.88339(14) 0.88346(8)
C38 C 0.86661(14) 0.54046(14) 0.86654(8)
H41 H 0.8121 0.9123 0.9170
H42 H 0.8377 0.5621 0.8330
H44 H 0.8092 0.8220 0.8834
H45 H 0.9280 0.5592 0.8666
H47 H 0.7264 0.8861 0.8827
H48 H 0.8639 0.4764 0.8673
Li1_2 Li 0.0769(2) 0.2863(2) 0.16556(13)
O1_2 O 0.04306(9) 0.16100(8) 0.16708(5)
O2_2 O 0.32106(10) 0.22031(9) 0.28304(5)
C7_2 C 0.01966(17) 0.42024(16) 0.26752(9)
H3_2 H 0.0128 0.3622 0.2842
H4_2 H 0.0670 0.4186 0.2401
H5_2 H 0.0339 0.4630 0.2964
C10_2 C 0.33230(15) 0.24312(14) 0.22544(8)
H12_2 H 0.3253 0.1901 0.2023
H13_2 H 0.3922 0.2660 0.2196
C11_2 C 0.23358(15) 0.18880(13) 0.29222(9)
H14_2 H 0.2255 0.1752 0.3320
H15_2 H 0.2242 0.1343 0.2708
Li2_2 Li 0.4231(2) 0.2137(2) 0.33444(13)
Li3_2 Li 0.0363(2) 0.1731(2) 0.08444(13)
O5_2 O 0.08900(8) 0.29306(9) 0.08292(5)
O6_2 O 0.17894(10) 0.27969(9) 0.21696(5)
O7_2 O 0.02969(9) 0.07106(10) 0.03304(5)
C12_2 C 0.15291(12) 0.34176(13) 0.05959(8)
C14_2 C 0.09176(13) 0.09709(12) 0.19041(8)
C15_2 C 0.19627(13) 0.31431(15) 0.01051(8)
C17_2 C 0.06431(15) 0.05373(13) 0.23949(8)
C21_2 C 0.28848(14) 0.44479(16) 0.01041(11)
C24_2 C 0.24590(14) 0.47107(15) 0.05859(10)
C26_2 C 0.22107(15) 0.00410(14) 0.19141(10)
H19_2 H 0.2634 0.5244 0.0756
C27_2 C 0.17917(13) 0.42304(13) 0.08296(8)
C29_2 C 0.17304(13) 0.07083(13) 0.16704(8)
H25_2 H 0.1686 0.1830 0.0099
H31_2 H 0.4172 0.4840 0.0009
C36_2 C 0.13339(14) 0.45954(14) 0.13346(8)
C38_2 C 0.20954(14) 0.11661(14) 0.11654(8)
H40_2 H 0.1623 0.4379 0.1670
H42_2 H 0.1879 0.0877 0.0830
H43_2 H 0.0720 0.4408 0.1334
H45_2 H 0.1908 0.1780 0.1166
H46_2 H 0.1361 0.5236 0.1327
H48_2 H 0.2736 0.1139 0.1173
C41_2 C 0.16770(15) 0.25688(14) 0.27456(8)
H51_2 H 0.1747 0.3099 0.2977
H54_2 H 0.1078 0.2340 0.2804
C42_2 C 0.26642(15) 0.31120(13) 0.20778(9)
H57_2 H 0.2745 0.3248 0.1680
H60_2 H 0.2758 0.3657 0.2292
C18_2 C 0.26246(14) 0.36640(17) 0.98739(10)
H16_2 H 0.2905 0.3469 0.9545
C30_2 C 0.17024(16) 0.23034(17) 0.98248(9)
H22_2 H 0.1122 0.2372 0.9658
H28_2 H 0.2130 0.2161 0.9536
C33_2 C 0.36073(16) 0.5001(2) 0.98451(14)
H34_2 H 0.3490 0.5622 0.9916
H37_2 H 0.3624 0.4896 0.9445
C20_2 C 0.11640(17) 0.98754(14) 0.26261(10)
H18_2 H 0.0969 0.9595 0.2955
C23_2 C 0.19479(16) 0.96152(14) 0.23959(11)
H21_2 H 0.2744 0.9866 0.1744
C35_2 C 0.2501(2) 0.88927(16) 0.26549(14)
H33_2 H 0.2340 0.8328 0.2491
H36_2 H 0.3122 0.9010 0.2584
H39_2 H 0.2396 0.8876 0.3055
C1_2 C 0.90824(13) 0.40291(12) 0.19041(8)
C2_2 C 0.93569(15) 0.44627(13) 0.23949(8)
C3_2 C 0.88360(17) 0.51246(14) 0.26261(10)
H1_2 H 0.9031 0.5405 0.2955
C4_2 C 0.80521(16) 0.53848(14) 0.23959(11)
C5_2 C 0.77893(15) 0.49590(14) 0.19141(10)
H2_2 H 0.7256 0.5134 0.1744
C6_2 C 0.82696(13) 0.42917(13) 0.16704(8)
C8_2 C 0.7499(2) 0.61073(16) 0.26549(14)
H6_2 H 0.7660 0.6672 0.2491
H7_2 H 0.6878 0.5990 0.2584
H8_2 H 0.7604 0.6124 0.3055
C9_2 C 0.79046(14) 0.38339(14) 0.11654(8)
H9_2 H 0.8121 0.4123 0.0830
H10_2 H 0.8092 0.3220 0.1166
H11_2 H 0.7264 0.3861 0.1173
Li4_2 Li 0.9231(2) 0.2137(2) 0.16556(13)
O3_2 O 0.91100(8) 0.20694(9) 0.08292(5)
O4_2 O 0.95694(9) 0.33900(8) 0.16708(5)
O10_2 O 0.82106(10) 0.22031(9) 0.21696(5)
C13_2 C 0.84709(12) 0.15824(13) 0.05959(8)
C16_2 C 0.80373(13) 0.18569(15) 0.01051(8)
C22_2 C 0.71152(14) 0.05521(16) 0.01041(11)
C25_2 C 0.75410(14) 0.02893(15) 0.05859(10)
C28_2 C 0.82083(13) 0.07696(13) 0.08296(8)
C32_2 C 0.98034(17) 0.07976(16) 0.26752(9)
H24_2 H 0.9872 0.1378 0.2842
H26_2 H 0.8314 0.3170 0.0099
H27_2 H 0.9330 0.0814 0.2401
H30_2 H 0.9661 0.0370 0.2964
H32_2 H 0.5828 0.0160 0.0009
C37_2 C 0.86661(14) 0.04046(14) 0.13346(8)
H41_2 H 0.8377 0.0621 0.1670
H44_2 H 0.9280 0.0592 0.1334
C19_2 C 0.73754(14) 0.13360(17) 0.98739(10)
H17_2 H 0.7095 0.1531 0.9545
C31_2 C 0.82976(16) 0.26966(17) 0.98248(9)
H23_2 H 0.8878 0.2628 0.9658
H29_2 H 0.7870 0.2839 0.9536
H38_2 H 0.6376 0.0104 0.9445
H20_2 H 0.7366 0.9756 0.0756
H47_2 H 0.8639 0.9764 0.1327
C34_2 C 0.63927(16) 0.9999(2) 0.98451(14)
H35_2 H 0.6510 0.9378 0.9916
Li1_3 Li 0.5363(2) 0.1731(2) 0.41556(13)
O1_3 O 0.41100(8) 0.20694(9) 0.41708(5)
C1_3 C 0.65291(12) 0.34176(13) 0.44041(8)
C2_3 C 0.69627(13) 0.31431(15) 0.48949(8)
C3_3 C 0.76246(14) 0.36640(17) 0.51261(10)
H1_3 H 0.7905 0.3469 0.5455
C4_3 C 0.78848(14) 0.44479(16) 0.48959(11)
C5_3 C 0.74590(14) 0.47107(15) 0.44141(10)
H2_3 H 0.7634 0.5244 0.4244
C6_3 C 0.67917(13) 0.42304(13) 0.41704(8)
C7_3 C 0.67024(16) 0.23034(17) 0.51752(9)
H3_3 H 0.6122 0.2372 0.5342
H4_3 H 0.6686 0.1830 0.4901
H5_3 H 0.7130 0.2161 0.5464
C8_3 C 0.86073(16) 0.5001(2) 0.51549(14)
H6_3 H 0.9172 0.4840 0.4991
H7_3 H 0.8490 0.5622 0.5084
H8_3 H 0.8624 0.4896 0.5555
C9_3 C 0.63339(14) 0.45954(14) 0.36654(8)
H9_3 H 0.6623 0.4379 0.3330
H10_3 H 0.5720 0.4408 0.3666
H11_3 H 0.6361 0.5236 0.3673
C11_3 C 0.43880(13) 0.01642(15) 0.54222(9)
H14_3 H 0.4252 0.0245 0.5820
H15_3 H 0.3843 0.0258 0.5208
Li4_3 Li 0.4637(2) 0.3269(2) 0.41556(13)
Li5_2 Li 0.5769(2) 0.2863(2) 0.33444(13)
O3_3 O 0.45694(9) 0.33900(8) 0.33292(5)
O4_3 O 0.58900(8) 0.29306(9) 0.41708(5)
O5_3 O 0.54306(9) 0.16100(8) 0.33292(5)
O6_3 O 0.52969(9) 0.07106(10) 0.46696(5)
O8_2 O 0.67894(10) 0.27969(9) 0.28304(5)
O10_3 O 0.47031(9) 0.42894(10) 0.46696(5)
C12_3 C 0.59176(13) 0.09709(12) 0.30959(8)
C13_3 C 0.40824(13) 0.40291(12) 0.30959(8)
C14_3 C 0.34709(12) 0.15824(13) 0.44041(8)
C15_3 C 0.56431(15) 0.05373(13) 0.26051(8)
C16_3 C 0.43569(15) 0.44627(13) 0.26051(8)
C17_3 C 0.30373(13) 0.18569(15) 0.48949(8)
C19_3 C 0.38360(17) 0.51246(14) 0.23739(10)
C20_3 C 0.23754(14) 0.13360(17) 0.51261(10)
H17_3 H 0.4031 0.5405 0.2045
H18_3 H 0.2095 0.1531 0.5455
C22_3 C 0.30521(16) 0.53848(14) 0.26041(11)
C23_3 C 0.21152(14) 0.05521(16) 0.48959(11)
C24_3 C 0.72107(15) 0.00410(14) 0.30859(10)
C25_3 C 0.27893(15) 0.49590(14) 0.30859(10)
C26_3 C 0.25410(14) 0.02893(15) 0.44141(10)
H20_3 H 0.2256 0.5134 0.3256
C27_3 C 0.67304(13) 0.07083(13) 0.33296(8)
C28_3 C 0.32696(13) 0.42917(13) 0.33296(8)
C29_3 C 0.32083(13) 0.07696(13) 0.41704(8)
C30_3 C 0.48034(17) 0.07976(16) 0.23248(9)
C31_3 C 0.51966(17) 0.42024(16) 0.23248(9)
C32_3 C 0.32976(16) 0.26966(17) 0.51752(9)
H22_3 H 0.4872 0.1378 0.2158
H23_3 H 0.5128 0.3622 0.2158
H24_3 H 0.3878 0.2628 0.5342
H25_3 H 0.4330 0.0814 0.2599
H26_3 H 0.5670 0.4186 0.2599
H27_3 H 0.3314 0.3170 0.4901
H28_3 H 0.4661 0.0370 0.2036
H29_3 H 0.5339 0.4630 0.2036
H30_3 H 0.2870 0.2839 0.5464
C34_3 C 0.2499(2) 0.61073(16) 0.23451(14)
H32_3 H 0.2660 0.6672 0.2509
H33_3 H 0.0828 0.0160 0.4991
H35_3 H 0.1878 0.5990 0.2416
H38_3 H 0.2604 0.6124 0.1945
H39_3 H 0.1376 0.0104 0.5555
C36_3 C 0.70954(14) 0.11661(14) 0.38346(8)
C37_3 C 0.29046(14) 0.38339(14) 0.38346(8)
C38_3 C 0.36661(14) 0.04046(14) 0.36654(8)
H40_3 H 0.6879 0.0877 0.4170
H41_3 H 0.3121 0.4123 0.4170
H42_3 H 0.3377 0.0621 0.3330
H43_3 H 0.6908 0.1780 0.3834
H44_3 H 0.3092 0.3220 0.3834
H45_3 H 0.4280 0.0592 0.3666
H46_3 H 0.7736 0.1139 0.3827
H47_3 H 0.2264 0.3861 0.3827
C39_2 C 0.66770(15) 0.25688(14) 0.22544(8)
C40_2 C 0.83230(15) 0.24312(14) 0.27456(8)
C41_3 C 0.50688(14) 0.08230(15) 0.52456(8)
H49_2 H 0.6747 0.3099 0.2023
H50_2 H 0.8253 0.1901 0.2977
H51_3 H 0.5599 0.0753 0.5477
H52_2 H 0.6078 0.2340 0.2196
H53_2 H 0.8922 0.2660 0.2804
H54_3 H 0.4840 0.1422 0.5304
C43_2 C 0.73358(15) 0.18880(13) 0.20778(9)
C44_2 C 0.76642(15) 0.31120(13) 0.29222(9)
H55_2 H 0.7745 0.3248 0.3320
H56_2 H 0.7255 0.1752 0.1680
H58_2 H 0.7758 0.3657 0.2708
H59_2 H 0.7242 0.1343 0.2292
O2_3 O 0.47031(9) 0.92894(10) 0.53304(5)
C10_3 C 0.49312(14) 0.91770(15) 0.47544(8)
H12_3 H 0.4401 0.9247 0.4523
H13_3 H 0.5160 0.8578 0.4696
Li2_3 Li 0.4637(2) 0.8269(2) 0.58444(13)
C18_3 C 0.61640(17) 0.98754(14) 0.23739(10)
H16_3 H 0.5969 0.9595 0.2045
C21_3 C 0.69479(16) 0.96152(14) 0.26041(11)
H19_3 H 0.7744 0.9866 0.3256
H21_3 H 0.2366 0.9756 0.4244
C33_3 C 0.7501(2) 0.88927(16) 0.23451(14)
C35_3 C 0.13927(16) 0.9999(2) 0.51549(14)
H31_3 H 0.7340 0.8328 0.2509
H34_3 H 0.8122 0.9010 0.2416
H36_3 H 0.1510 0.9378 0.5084
H37_3 H 0.7396 0.8876 0.1945
H48_3 H 0.3639 0.9764 0.3673
C42_3 C 0.56120(13) 0.98358(15) 0.45778(9)
H57_3 H 0.5748 0.9755 0.4180
H60_3 H 0.6157 0.9742 0.4792
C3_4 C 0.38360(17) 0.01246(14) 0.76261(10)
H1_4 H 0.4031 0.0405 0.7955
C4_4 C 0.30521(16) 0.03848(14) 0.73959(11)
H2_4 H 0.2256 0.0134 0.6744
C8_4 C 0.2499(2) 0.11073(16) 0.76549(14)
H6_4 H 0.2660 0.1672 0.7491
H7_4 H 0.1878 0.0990 0.7584
H8_4 H 0.2604 0.1124 0.8055
H19_4 H 0.7634 0.0244 0.5756
C33_4 C 0.86073(16) 0.0001(2) 0.48451(14)
H34_4 H 0.8490 0.0622 0.4916
H46_4 H 0.6361 0.0236 0.6327
Li1_4 Li 0.5769(2) 0.7863(2) 0.66556(13)
O1_4 O 0.54306(9) 0.66100(8) 0.66708(5)
C1_4 C 0.40824(13) 0.90291(12) 0.69041(8)
C2_4 C 0.43569(15) 0.94627(13) 0.73949(8)
C5_4 C 0.27893(15) 0.99590(14) 0.69141(10)
C6_4 C 0.32696(13) 0.92917(13) 0.66704(8)
C7_4 C 0.51966(17) 0.92024(16) 0.76752(9)
H3_4 H 0.5128 0.8622 0.7842
H4_4 H 0.5670 0.9186 0.7401
H5_4 H 0.5339 0.9630 0.7964
C9_4 C 0.29046(14) 0.88339(14) 0.61654(8)
H9_4 H 0.3121 0.9123 0.5830
H10_4 H 0.3092 0.8220 0.6166
H11_4 H 0.2264 0.8861 0.6173
C10_4 C 0.83230(15) 0.74312(14) 0.72544(8)
H12_4 H 0.8253 0.6901 0.7023
H13_4 H 0.8922 0.7660 0.7196
C11_4 C 0.73358(15) 0.68880(13) 0.79222(9)
H14_4 H 0.7255 0.6752 0.8320
H15_4 H 0.7242 0.6343 0.7708
Li3_3 Li 0.5363(2) 0.6731(2) 0.58444(13)
O3_4 O 0.41100(8) 0.70694(9) 0.58292(5)
O4_4 O 0.45694(9) 0.83900(8) 0.66708(5)
O5_4 O 0.58900(8) 0.79306(9) 0.58292(5)
O6_4 O 0.67894(10) 0.77969(9) 0.71696(5)
O7_3 O 0.52969(9) 0.57106(10) 0.53304(5)
C12_4 C 0.65291(12) 0.84176(13) 0.55959(8)
C13_4 C 0.34709(12) 0.65824(13) 0.55959(8)
C14_4 C 0.59176(13) 0.59709(12) 0.69041(8)
C15_4 C 0.69627(13) 0.81431(15) 0.51051(8)
C16_4 C 0.30373(13) 0.68569(15) 0.51051(8)
C17_4 C 0.56431(15) 0.55373(13) 0.73949(8)
C18_4 C 0.76246(14) 0.86640(17) 0.48739(10)
C19_4 C 0.23754(14) 0.63360(17) 0.48739(10)
C20_4 C 0.61640(17) 0.48754(14) 0.76261(10)
H16_4 H 0.7905 0.8469 0.4545
H17_4 H 0.2095 0.6531 0.4545
H18_4 H 0.5969 0.4595 0.7955
C21_4 C 0.78848(14) 0.94479(16) 0.51041(11)
C22_4 C 0.21152(14) 0.55521(16) 0.51041(11)
C23_4 C 0.69479(16) 0.46152(14) 0.73959(11)
C24_4 C 0.74590(14) 0.97107(15) 0.55859(10)
C25_4 C 0.25410(14) 0.52893(15) 0.55859(10)
C26_4 C 0.72107(15) 0.50410(14) 0.69141(10)
H20_4 H 0.2366 0.4756 0.5756
H21_4 H 0.7744 0.4866 0.6744
C27_4 C 0.67917(13) 0.92304(13) 0.58296(8)
C28_4 C 0.32083(13) 0.57696(13) 0.58296(8)
C29_4 C 0.67304(13) 0.57083(13) 0.66704(8)
C30_4 C 0.67024(16) 0.73034(17) 0.48248(9)
C31_4 C 0.32976(16) 0.76966(17) 0.48248(9)
C32_4 C 0.48034(17) 0.57976(16) 0.76752(9)
H22_4 H 0.6122 0.7372 0.4658
H23_4 H 0.3878 0.7628 0.4658
H24_4 H 0.4872 0.6378 0.7842
H25_4 H 0.6686 0.6830 0.5099
H26_4 H 0.3314 0.8170 0.5099
H27_4 H 0.4330 0.5814 0.7401
H28_4 H 0.7130 0.7161 0.4536
H29_4 H 0.2870 0.7839 0.4536
H30_4 H 0.4661 0.5370 0.7964
C34_4 C 0.13927(16) 0.4999(2) 0.48451(14)
C35_4 C 0.7501(2) 0.38927(16) 0.76549(14)
H31_4 H 0.9172 0.9840 0.5009
H32_4 H 0.0828 0.5160 0.5009
H33_4 H 0.7340 0.3328 0.7491
H35_4 H 0.1510 0.4378 0.4916
H36_4 H 0.8122 0.4010 0.7584
H37_4 H 0.8624 0.9896 0.4445
H38_4 H 0.1376 0.5104 0.4445
H39_4 H 0.7396 0.3876 0.8055
C36_4 C 0.63339(14) 0.95954(14) 0.63346(8)
C37_4 C 0.36661(14) 0.54046(14) 0.63346(8)
C38_4 C 0.70954(14) 0.61661(14) 0.61654(8)
H40_4 H 0.6623 0.9379 0.6670
H41_4 H 0.3377 0.5621 0.6670
H42_4 H 0.6879 0.5877 0.5830
H43_4 H 0.5720 0.9408 0.6334
H44_4 H 0.4280 0.5592 0.6334
H45_4 H 0.6908 0.6780 0.6166
H47_4 H 0.3639 0.4764 0.6327
H48_4 H 0.7736 0.6139 0.6173
C41_4 C 0.66770(15) 0.75688(14) 0.77456(8)
H51_4 H 0.6747 0.8099 0.7977
H54_4 H 0.6078 0.7340 0.7804
C42_4 C 0.76642(15) 0.81120(13) 0.70778(9)
H57_4 H 0.7745 0.8248 0.6680
H60_4 H 0.7758 0.8657 0.7292
C39_3 C 0.00688(14) 0.08230(15) 0.97544(8)
H49_3 H 0.0599 0.0753 0.9523
H53_3 H 0.0160 0.8578 0.0304
C44_3 C 0.06120(13) 0.98358(15) 0.04222(9)
H55_3 H 0.0748 0.9755 0.0820
H58_3 H 0.1157 0.9742 0.0208
H52_3 H 0.9840 0.1422 0.9696
C43_3 C 0.93880(13) 0.01642(15) 0.95778(9)
H56_3 H 0.9252 0.0245 0.9180
H59_3 H 0.8843 0.0258 0.9792
C40_3 C 0.99312(14) 0.91770(15) 0.02456(8)
H50_3 H 0.9401 0.9247 0.0477
C10_5 C 0.50688(14) 0.58230(15) 0.47544(8)
H12_5 H 0.5599 0.5753 0.4523
H13_5 H 0.4840 0.6422 0.4696
C11_5 C 0.56120(13) 0.48358(15) 0.54222(9)
H14_5 H 0.5748 0.4755 0.5820
H15_5 H 0.6157 0.4742 0.5208
C41_5 C 0.49312(14) 0.41770(15) 0.52456(8)
H51_5 H 0.4401 0.4247 0.5477
H54_5 H 0.5160 0.3578 0.5304
C42_5 C 0.43880(13) 0.51642(15) 0.45778(9)
H57_5 H 0.4252 0.5245 0.4180
H60_5 H 0.3843 0.5258 0.4792
loop_
_geom_bond_atom_site_label_1
_geom_bond_atom_site_label_2
_geom_bond_site_symmetry_1
_geom_bond_site_symmetry_2
H7 C8 1_555 1_555
C3 H1 1_555 1_555
H3 C7 1_555 1_555
H5 C7 1_555 1_555
H51 C41 1_555 1_555
C1 C2 1_555 1_555
C5 C4 1_555 1_555
C6 C1 1_555 1_555
C9 C6 1_555 1_555
H9 C9 1_555 1_555
H10 C9 1_555 1_555
Li6 O9 1_555 1_555
O4 Li1 1_555 1_555
O5 Li1 1_555 1_555
O6 Li1 1_555 1_555
O8 Li5 1_555 1_555
O9 C40 1_555 1_555
C12 O5 1_555 1_555
C15 C12 1_555 1_555
C18 C15 1_555 1_555
H16 C18 1_555 1_555
C21 C18 1_555 1_555
C24 C21 1_555 1_555
H19 C24 1_555 1_555
C27 C12 1_555 1_555
H23 C31 1_555 1_555
H26 C31 1_555 1_555
H29 C31 1_555 1_555
C33 C21 1_555 1_555
H31 C33 1_555 1_555
H34 C33 1_555 1_555
H37 C33 1_555 1_555
C36 C27 1_555 1_555
H40 C36 1_555 1_555
H43 C36 1_555 1_555
H46 C36 1_555 1_555
C39 O8 1_555 1_555
C40 H50 1_555 1_555
H49 C39 1_555 1_555
H52 C39 1_555 1_555
H53 C40 1_555 1_555
C43 O9 1_555 1_555
C44 O8 1_555 1_555
H55 C44 1_555 1_555
H56 C43 1_555 1_555
H57 C42 1_555 1_555
H58 C44 1_555 1_555
H59 C43 1_555 1_555
H60 C42 1_555 1_555
C1 O4 1_555 1_555
C5 C6 1_555 1_555
Li5 O4 1_555 1_555
Li5 O5 1_555 1_555
O6 C42 1_555 1_555
C24 C27 1_555 1_555
C39 C43 1_555 1_555
C40 C44 1_555 1_555
H17 C19 1_555 1_555
C22 C19 1_555 1_555
C34 C22 1_555 1_555
H32 C34 1_555 1_555
H35 C34 1_555 1_555
H38 C34 1_555 1_555
C11 O2 1_555 1_555
H14 C11 1_555 1_555
H15 C11 1_555 1_555
Li2 O2 1_555 1_555
H18 C20 1_555 1_555
H24 C32 1_555 1_555
H30 C32 1_555 1_555
H36 C35 1_555 1_555
H39 C35 1_555 1_555
O1 Li3 1_555 1_555
C10 H12 1_555 1_555
Li3 O3 1_555 1_555
Li4 O1 1_555 1_555
O3 Li4 1_555 1_555
O7 Li3 1_555 1_555
O10 Li4 1_555 1_555
C13 O3 1_555 1_555
C14 O1 1_555 1_555
C16 C13 1_555 1_555
C17 C14 1_555 1_555
C26 C23 1_555 1_555
H21 C26 1_555 1_555
C28 C13 1_555 1_555
C29 C14 1_555 1_555
H22 C30 1_555 1_555
H25 C30 1_555 1_555
H28 C30 1_555 1_555
C37 C28 1_555 1_555
C38 C29 1_555 1_555
H41 C37 1_555 1_555
H42 C38 1_555 1_555
H44 C37 1_555 1_555
H45 C38 1_555 1_555
H47 C37 1_555 1_555
H48 C38 1_555 1_555
C25 C28 1_555 1_555
C26 C29 1_555 1_555
Li1_2 O1_2 1_555 1_555
O1_2 Li3_2 1_555 1_555
O2_2 C10_2 1_555 1_555
H3_2 C7_2 1_555 1_555
H4_2 C7_2 1_555 1_555
H5_2 C7_2 1_555 1_555
C10_2 H12_2 1_555 1_555
H13_2 C10_2 1_555 1_555
C11_2 O2_2 1_555 1_555
H14_2 C11_2 1_555 1_555
H15_2 C11_2 1_555 1_555
Li2_2 O2_2 1_555 1_555
O5_2 Li1_2 1_555 1_555
O6_2 Li1_2 1_555 1_555
O7_2 Li3_2 1_555 1_555
C12_2 O5_2 1_555 1_555
C14_2 O1_2 1_555 1_555
C15_2 C12_2 1_555 1_555
C17_2 C14_2 1_555 1_555
C24_2 C21_2 1_555 1_555
H19_2 C24_2 1_555 1_555
C27_2 C12_2 1_555 1_555
C29_2 C14_2 1_555 1_555
C36_2 C27_2 1_555 1_555
C38_2 C29_2 1_555 1_555
H40_2 C36_2 1_555 1_555
H42_2 C38_2 1_555 1_555
H43_2 C36_2 1_555 1_555
H45_2 C38_2 1_555 1_555
H46_2 C36_2 1_555 1_555
H48_2 C38_2 1_555 1_555
C41_2 C11_2 1_555 1_555
H51_2 C41_2 1_555 1_555
H54_2 C41_2 1_555 1_555
C42_2 C10_2 1_555 1_555
H57_2 C42_2 1_555 1_555
H60_2 C42_2 1_555 1_555
Li3_2 O5_2 1_555 1_555
O6_2 C41_2 1_555 1_555
O6_2 C42_2 1_555 1_555
C24_2 C27_2 1_555 1_555
C26_2 C29_2 1_555 1_555
H16_2 C18_2 1_555 1_555
H22_2 C30_2 1_555 1_555
H28_2 C30_2 1_555 1_555
H34_2 C33_2 1_555 1_555
H37_2 C33_2 1_555 1_555
H18_2 C20_2 1_555 1_555
C23_2 C20_2 1_555 1_555
C35_2 C23_2 1_555 1_555
H33_2 C35_2 1_555 1_555
H36_2 C35_2 1_555 1_555
H39_2 C35_2 1_555 1_555
C1_2 C2_2 1_555 1_555
C2_2 C3_2 1_555 1_555
C3_2 H1_2 1_555 1_555
C4_2 C3_2 1_555 1_555
C5_2 C4_2 1_555 1_555
H2_2 C5_2 1_555 1_555
C6_2 C1_2 1_555 1_555
C8_2 C4_2 1_555 1_555
H6_2 C8_2 1_555 1_555
H7_2 C8_2 1_555 1_555
H8_2 C8_2 1_555 1_555
C9_2 C6_2 1_555 1_555
H9_2 C9_2 1_555 1_555
H10_2 C9_2 1_555 1_555
H11_2 C9_2 1_555 1_555
Li2 O3_2 1_555 1_555
O3_2 Li4_2 1_555 1_555
O10_2 Li4_2 1_555 1_555
C13_2 O3_2 1_555 1_555
C16_2 C13_2 1_555 1_555
C25_2 C22_2 1_555 1_555
C28_2 C13_2 1_555 1_555
H24_2 C32_2 1_555 1_555
H27_2 C32_2 1_555 1_555
H30_2 C32_2 1_555 1_555
C37_2 C28_2 1_555 1_555
H41_2 C37_2 1_555 1_555
H44_2 C37_2 1_555 1_555
C1_2 O4_2 1_555 1_555
C5_2 C6_2 1_555 1_555
Li4_2 O4_2 1_555 1_555
Li2 O4_2 1_555 1_555
C25_2 C28_2 1_555 1_555
H17_2 C19_2 1_555 1_555
H23_2 C31_2 1_555 1_555
H29_2 C31_2 1_555 1_555
H35_2 C34_2 1_555 1_555
Li1_3 O1_3 1_555 1_555
O1_3 Li2_2 1_555 1_555
C1_3 C2_3 1_555 1_555
C2_3 C3_3 1_555 1_555
C3_3 H1_3 1_555 1_555
C4_3 C3_3 1_555 1_555
C5_3 C4_3 1_555 1_555
H2_3 C5_3 1_555 1_555
C6_3 C1_3 1_555 1_555
C7_3 C2_3 1_555 1_555
H3_3 C7_3 1_555 1_555
H4_3 C7_3 1_555 1_555
H5_3 C7_3 1_555 1_555
C8_3 C4_3 1_555 1_555
H6_3 C8_3 1_555 1_555
H7_3 C8_3 1_555 1_555
H8_3 C8_3 1_555 1_555
C9_3 C6_3 1_555 1_555
H9_3 C9_3 1_555 1_555
H10_3 C9_3 1_555 1_555
H11_3 C9_3 1_555 1_555
H14_3 C11_3 1_555 1_555
H15_3 C11_3 1_555 1_555
Li2_2 O3_3 1_555 1_555
Li4_3 O1_3 1_555 1_555
Li5_2 O3_3 1_555 1_555
O3_3 Li4_3 1_555 1_555
O4_3 Li1_3 1_555 1_555
O5_3 Li1_3 1_555 1_555
O6_3 Li1_3 1_555 1_555
O8_2 Li5_2 1_555 1_555
O10_2 C40_2 1_555 1_555
O10_3 Li4_3 1_555 1_555
C12_3 O5_3 1_555 1_555
C13_3 O3_3 1_555 1_555
C14_3 O1_3 1_555 1_555
C15_3 C12_3 1_555 1_555
C16_3 C13_3 1_555 1_555
C17_3 C14_3 1_555 1_555
C19_3 C16_3 1_555 1_555
C20_3 C17_3 1_555 1_555
H17_3 C19_3 1_555 1_555
H18_3 C20_3 1_555 1_555
C22_3 C19_3 1_555 1_555
C23_3 C20_3 1_555 1_555
C25_3 C22_3 1_555 1_555
C26_3 C23_3 1_555 1_555
H20_3 C25_3 1_555 1_555
C27_3 C12_3 1_555 1_555
C28_3 C13_3 1_555 1_555
C29_3 C14_3 1_555 1_555
C30_3 C15_3 1_555 1_555
C31_3 C16_3 1_555 1_555
C32_3 C17_3 1_555 1_555
H22_3 C30_3 1_555 1_555
H23_3 C31_3 1_555 1_555
H24_3 C32_3 1_555 1_555
H25_3 C30_3 1_555 1_555
H26_3 C31_3 1_555 1_555
H27_3 C32_3 1_555 1_555
H28_3 C30_3 1_555 1_555
H29_3 C31_3 1_555 1_555
H30_3 C32_3 1_555 1_555
C34_3 C22_3 1_555 1_555
H32_3 C34_3 1_555 1_555
H35_3 C34_3 1_555 1_555
H38_3 C34_3 1_555 1_555
C36_3 C27_3 1_555 1_555
C37_3 C28_3 1_555 1_555
C38_3 C29_3 1_555 1_555
H40_3 C36_3 1_555 1_555
H41_3 C37_3 1_555 1_555
H42_3 C38_3 1_555 1_555
H43_3 C36_3 1_555 1_555
H44_3 C37_3 1_555 1_555
H45_3 C38_3 1_555 1_555
H46_3 C36_3 1_555 1_555
H47_3 C37_3 1_555 1_555
C39_2 O8_2 1_555 1_555
C40_2 H50_2 1_555 1_555
C41_3 C11_3 1_555 1_555
H49_2 C39_2 1_555 1_555
H51_3 C41_3 1_555 1_555
H52_2 C39_2 1_555 1_555
H53_2 C40_2 1_555 1_555
H54_3 C41_3 1_555 1_555
C43_2 O10_2 1_555 1_555
C44_2 O8_2 1_555 1_555
H55_2 C44_2 1_555 1_555
H56_2 C43_2 1_555 1_555
H58_2 C44_2 1_555 1_555
H59_2 C43_2 1_555 1_555
C1_3 O4_3 1_555 1_555
C5_3 C6_3 1_555 1_555
Li2_2 O5_3 1_555 1_555
Li4_3 O4_3 1_555 1_555
Li5_2 O4_3 1_555 1_555
Li5_2 O5_3 1_555 1_555
O6_3 C41_3 1_555 1_555
C24_3 C27_3 1_555 1_555
C25_3 C28_3 1_555 1_555
C26_3 C29_3 1_555 1_555
C39_2 C43_2 1_555 1_555
C40_2 C44_2 1_555 1_555
O2_3 C10_3 1_555 1_555
C10_3 H12_3 1_555 1_555
H13_3 C10_3 1_555 1_555
Li2_3 O2_3 1_555 1_555
H16_3 C18_3 1_555 1_555
C21_3 C18_3 1_555 1_555
C33_3 C21_3 1_555 1_555
H31_3 C33_3 1_555 1_555
H34_3 C33_3 1_555 1_555
H36_3 C35_3 1_555 1_555
H37_3 C33_3 1_555 1_555
C42_3 C10_3 1_555 1_555
H57_3 C42_3 1_555 1_555
H60_3 C42_3 1_555 1_555
C3_4 H1_4 1_555 1_555
C4_4 C3_4 1_555 1_555
C8_4 C4_4 1_555 1_555
H6_4 C8_4 1_555 1_555
H7_4 C8_4 1_555 1_555
H8_4 C8_4 1_555 1_555
H34_4 C33_4 1_555 1_555
Li1_4 O1_4 1_555 1_555
O1_4 Li3_3 1_555 1_555
O7 C10_4 1_555 1_555
C1_4 C2_4 1_555 1_555
C6_4 C1_4 1_555 1_555
C7_4 C2_4 1_555 1_555
H3_4 C7_4 1_555 1_555
H4_4 C7_4 1_555 1_555
H5_4 C7_4 1_555 1_555
C9_4 C6_4 1_555 1_555
H9_4 C9_4 1_555 1_555
H10_4 C9_4 1_555 1_555
H11_4 C9_4 1_555 1_555
C10_4 H12_4 1_555 1_555
H13_4 C10_4 1_555 1_555
C11_4 O7 1_555 1_555
H14_4 C11_4 1_555 1_555
H15_4 C11_4 1_555 1_555
Li3_3 O3_4 1_555 1_555
Li6 O1_4 1_555 1_555
Li2_3 O3_4 1_555 1_555
O3_4 Li6 1_555 1_555
O4_4 Li1_4 1_555 1_555
O5_4 Li1_4 1_555 1_555
O6_4 Li1_4 1_555 1_555
O7_3 Li3_3 1_555 1_555
C12_4 O5_4 1_555 1_555
C13_4 O3_4 1_555 1_555
C14_4 O1_4 1_555 1_555
C15_4 C12_4 1_555 1_555
C16_4 C13_4 1_555 1_555
C17_4 C14_4 1_555 1_555
C18_4 C15_4 1_555 1_555
C19_4 C16_4 1_555 1_555
C20_4 C17_4 1_555 1_555
H16_4 C18_4 1_555 1_555
H17_4 C19_4 1_555 1_555
H18_4 C20_4 1_555 1_555
C21_4 C18_4 1_555 1_555
C22_4 C19_4 1_555 1_555
C23_4 C20_4 1_555 1_555
C24_4 C21_4 1_555 1_555
C25_4 C22_4 1_555 1_555
C26_4 C23_4 1_555 1_555
H20_4 C25_4 1_555 1_555
H21_4 C26_4 1_555 1_555
C27_4 C12_4 1_555 1_555
C28_4 C13_4 1_555 1_555
C29_4 C14_4 1_555 1_555
C30_4 C15_4 1_555 1_555
C31_4 C16_4 1_555 1_555
C32_4 C17_4 1_555 1_555
H22_4 C30_4 1_555 1_555
H23_4 C31_4 1_555 1_555
H24_4 C32_4 1_555 1_555
H25_4 C30_4 1_555 1_555
H26_4 C31_4 1_555 1_555
H27_4 C32_4 1_555 1_555
H28_4 C30_4 1_555 1_555
H29_4 C31_4 1_555 1_555
H30_4 C32_4 1_555 1_555
C34_4 C22_4 1_555 1_555
C35_4 C23_4 1_555 1_555
H32_4 C34_4 1_555 1_555
H33_4 C35_4 1_555 1_555
H35_4 C34_4 1_555 1_555
H36_4 C35_4 1_555 1_555
H38_4 C34_4 1_555 1_555
H39_4 C35_4 1_555 1_555
C36_4 C27_4 1_555 1_555
C37_4 C28_4 1_555 1_555
C38_4 C29_4 1_555 1_555
H40_4 C36_4 1_555 1_555
H41_4 C37_4 1_555 1_555
H42_4 C38_4 1_555 1_555
H43_4 C36_4 1_555 1_555
H44_4 C37_4 1_555 1_555
H45_4 C38_4 1_555 1_555
H47_4 C37_4 1_555 1_555
H48_4 C38_4 1_555 1_555
C41_4 C11_4 1_555 1_555
H51_4 C41_4 1_555 1_555
H54_4 C41_4 1_555 1_555
C42_4 C10_4 1_555 1_555
H57_4 C42_4 1_555 1_555
H60_4 C42_4 1_555 1_555
C1_4 O4_4 1_555 1_555
C5_4 C6_4 1_555 1_555
Li3_3 O5_4 1_555 1_555
Li6 O4_4 1_555 1_555
Li2_3 O4_4 1_555 1_555
Li2_3 O5_4 1_555 1_555
O6_4 C41_4 1_555 1_555
O6_4 C42_4 1_555 1_555
C24_4 C27_4 1_555 1_555
C25_4 C28_4 1_555 1_555
C26_4 C29_4 1_555 1_555
H49_3 C39_3 1_555 1_555
H55_3 C44_3 1_555 1_555
H58_3 C44_3 1_555 1_555
H56_3 C43_3 1_555 1_555
H59_3 C43_3 1_555 1_555
C40_3 H50_3 1_555 1_555
O7_3 C10_5 1_555 1_555
C10_5 H12_5 1_555 1_555
H13_5 C10_5 1_555 1_555
C11_5 O7_3 1_555 1_555
H14_5 C11_5 1_555 1_555
H15_5 C11_5 1_555 1_555
C41_5 C11_5 1_555 1_555
H51_5 C41_5 1_555 1_555
H54_5 C41_5 1_555 1_555
C42_5 C10_5 1_555 1_555
H57_5 C42_5 1_555 1_555
H60_5 C42_5 1_555 1_555
O10_3 C41_5 1_555 1_555
O10_3 C42_5 1_555 1_555

#END
