
###############################################################################
#
# This file contains modified crystal structure data generated from the
# MOF subset of the Cambridge Structural Database (CSD) v543 
# hosted by the Cambridge Crystallographic Data Centre (CCDC).
#
# This work is licensed under the Creative Commons
# Attribution-NonCommercial-ShareAlike 4.0 International License.
# To view a copy of this license, visit
# http://creativecommons.org/licenses/by-nc-sa/4.0/
# or send a letter to
# Creative Commons, PO Box 1866, Mountain View, CA 94042, USA.
#
# CIF created using the CSD Python API on 29 September 2022
# The structure has been converted into the P1 space group
# The structure has a 3D framework
# The original CSD entry GOGLIA is in the monoclinic crystal system
# The framework has been calculated to contain at least 10.0% void space
# The void calculation uses a probe of radius 1.32A, grid spacing 0.4
#
###############################################################################

data_GOGLIA
_chemical_formula_moiety         '(C256 H272 N32 Ni8 O32)n'
_symmetry_cell_setting           triclinic
_symmetry_space_group_name_H-M   'P 1'
_symmetry_Int_Tables_number      1
_space_group_name_Hall           'P 1'
loop_
_symmetry_equiv_pos_site_id
_symmetry_equiv_pos_as_xyz
1 x,y,z
_cell_length_a                   38.700(6)
_cell_length_b                   14.616(2)
_cell_length_c                   11.3995(19)
_cell_angle_alpha                90
_cell_angle_beta                 101.692(5)
_cell_angle_gamma                90
_cell_volume                     6314.22
loop_
_atom_site_label
_atom_site_type_symbol
_atom_site_fract_x
_atom_site_fract_y
_atom_site_fract_z
C1 C 0.40463(13) 0.6253(4) 0.0511(5)
C5 C 0.40035(14) 0.5345(4) 0.0828(5)
C9 C 0.42754(13) 0.6820(4) 0.1290(5)
H3 H 0.430608 0.742923 0.109616
C11 C 0.44579(14) 0.6450(5) 0.2369(5)
C12 C 0.41958(15) 0.4969(5) 0.1876(5)
H5 H 0.417173 0.435492 0.205520
H6 H 0.363530 0.380845 0.065796
C16 C 0.44221(15) 0.5524(5) 0.2639(5)
C23 C 0.46855(17) 0.7084(6) 0.3268(6)
H16 H 0.468730 0.768337 0.292588
H17 H 0.492208 0.684997 0.346196
H18 H 0.459065 0.711708 0.398223
C25 C 0.4634(2) 0.5113(7) 0.3782(6)
H21 H 0.487330 0.502357 0.369783
H22 H 0.453294 0.453528 0.393159
H23 H 0.462908 0.552006 0.443913
Ni1 Ni 0.36945(2) 0.24439(5) 0.33317(6)
O1 O 0.32525(9) 0.3085(3) 0.2390(3)
O2 O 0.42080(9) 0.1860(3) 0.3774(3)
O3 O 0.40576(9) 0.2753(3) 0.2203(3)
O4 O 0.33563(9) 0.1727(3) 0.1760(3)
N1 N 0.38244(10) 0.6428(3) 0.9402(4)
N2 N 0.37552(11) 0.4980(3) 0.9896(4)
N3 N 0.34908(11) 0.1649(3) 0.4494(4)
N4 N 0.35253(15) 0.0735(3) 0.6067(5)
C2 C 0.28223(13) 0.2467(4) 0.0795(5)
C3 C 0.36635(14) 0.5639(4) 0.9102(5)
H1 H 0.349969 0.555512 0.839101
C4 C 0.42856(14) 0.2286(4) 0.2900(5)
C6 C 0.46592(14) 0.2261(4) 0.2692(5)
C7 C 0.31689(13) 0.2415(4) 0.1693(5)
C8 C 0.22728(14) 0.3225(4) 0.0022(5)
H2 H 0.212263 0.371955 0.003835
C10 C 0.25958(14) 0.3181(4) 0.0828(5)
H4 H 0.265797 0.364263 0.139314
C13 C 0.36115(15) 0.4039(4) 0.9847(6)
H7 H 0.336178 0.405764 0.948996
C14 C 0.36956(16) 0.1222(4) 0.5370(5)
H8 H 0.394043 0.125263 0.549930
C15 C 0.31509(16) 0.1432(4) 0.4623(6)
C17 C 0.31707(18) 0.0862(4) 0.5605(6)
C18 C 0.37856(17) 0.3409(4) 0.9167(6)
H9 H 0.403550 0.338744 0.951999
H10 H 0.376004 0.363178 0.835228
C19 C 0.3634(2) 0.2457(4) 0.9143(6)
H11 H 0.337890 0.249710 0.892524
H12 H 0.369432 0.220093 0.994372
C20 C 0.28245(17) 0.1675(5) 0.3962(7)
H13 H 0.280999 0.204538 0.329126
C21 C 0.47220(16) 0.2272(6) 0.1569(6)
H14 H 0.453253 0.230775 0.092239
C22 C 0.50617(15) 0.2231(6) 0.1356(6)
H15 H 0.509931 0.218316 0.057801
C24 C 0.3612(2) 0.0866(5) 0.8274(6)
H19 H 0.335969 0.090506 0.823217
H20 H 0.371594 0.056067 0.901792
C26 C 0.3760(2) 0.1814(5) 0.8291(7)
H24 H 0.369814 0.206747 0.748945
H25 H 0.401548 0.177791 0.850470
C27 C 0.2875(2) 0.0525(5) 0.5973(8)
H26 H 0.289419 0.014195 0.663398
C28 C 0.3680(2) 0.0291(5) 0.7224(6)
H27 H 0.393229 0.021660 0.728680
C29 C 0.2550(2) 0.0786(6) 0.5311(9)
C30 C 0.25206(18) 0.1374(6) 0.4285(8)
C31 C 0.2209(2) 0.0440(7) 0.5678(10)
H29 H 0.208962 0.001946 0.508450
H30 H 0.205695 0.095015 0.573693
H31 H 0.226836 0.013664 0.643855
C32 C 0.21671(19) 0.1616(8) 0.3530(9)
H32 H 0.210928 0.223666 0.368991
H33 H 0.199041 0.121297 0.371946
H34 H 0.217578 0.155417 0.269805
O7 O 0.57920(9) 0.1860(3) 0.1226(3)
O8 O 0.59424(9) 0.2753(3) 0.2797(3)
C37 C 0.57144(14) 0.2286(4) 0.2100(5)
C38 C 0.53408(14) 0.2261(4) 0.2308(5)
C39 C 0.52780(16) 0.2272(6) 0.3431(6)
H37 H 0.546747 0.230775 0.407761
C40 C 0.49383(15) 0.2231(6) 0.3644(6)
H38 H 0.490069 0.218316 0.442199
Ni2 Ni 0.63055(2) 0.24439(5) 0.16683(6)
N7 N 0.65092(11) 0.1649(3) 0.0506(4)
C49 C 0.68491(16) 0.1432(4) 0.0377(6)
C54 C 0.71755(17) 0.1675(5) 0.1038(7)
H49 H 0.719001 0.204538 0.170874
C62 C 0.74794(18) 0.1374(6) 0.0715(8)
C64 C 0.78329(19) 0.1616(8) 0.1470(9)
H66 H 0.789072 0.223666 0.131009
H67 H 0.800959 0.121297 0.128054
H68 H 0.782422 0.155417 0.230195
Ni4 Ni 0.36945(2) 0.75561(5) 0.83317(6)
O9 O 0.67475(9) 0.3085(3) 0.2610(3)
O10 O 0.66437(9) 0.1727(3) 0.3240(3)
N9 N 0.61756(10) 0.3572(3) 0.0598(4)
N10 N 0.38244(10) 0.3572(3) 0.4402(4)
O5 O 0.17475(9) 0.1915(3) 0.7610(3)
O6 O 0.16437(9) 0.3273(3) 0.8240(3)
C33 C 0.21777(13) 0.2533(4) 0.9205(5)
C34 C 0.18311(13) 0.2585(4) 0.8307(5)
C35 C 0.27272(14) 0.1775(4) 0.9978(5)
H35 H 0.287737 0.128045 0.996165
C36 C 0.24042(14) 0.1819(4) 0.9172(5)
H36 H 0.234203 0.135737 0.860686
N5 N 0.61756(10) 0.6428(3) 0.5598(4)
N6 N 0.62448(11) 0.4980(3) 0.5104(4)
C41 C 0.59537(13) 0.6253(4) 0.4489(5)
N8 N 0.64747(15) 0.0735(3) 0.8933(5)
C42 C 0.63365(14) 0.5639(4) 0.5898(5)
H39 H 0.650031 0.555512 0.660899
C43 C 0.59965(14) 0.5345(4) 0.4172(5)
C44 C 0.57246(13) 0.6820(4) 0.3710(5)
H40 H 0.569392 0.742923 0.390384
C45 C 0.55421(14) 0.6450(5) 0.2631(5)
C46 C 0.58042(15) 0.4969(5) 0.3124(5)
H41 H 0.582827 0.435492 0.294480
C47 C 0.63885(15) 0.4039(4) 0.5153(6)
H42 H 0.636470 0.380845 0.434204
H43 H 0.663822 0.405764 0.551004
C48 C 0.63044(16) 0.1222(4) 0.9630(5)
H44 H 0.605957 0.125263 0.950070
C50 C 0.55779(15) 0.5524(5) 0.2361(5)
C51 C 0.68293(18) 0.0862(4) 0.9395(6)
C52 C 0.62144(17) 0.3409(4) 0.5833(6)
H45 H 0.596450 0.338744 0.548001
H46 H 0.623996 0.363178 0.664772
C53 C 0.6366(2) 0.2457(4) 0.5857(6)
H47 H 0.662110 0.249710 0.607476
H48 H 0.630568 0.220093 0.505628
C55 C 0.53145(17) 0.7084(6) 0.1732(6)
H50 H 0.531270 0.768337 0.207412
H51 H 0.507792 0.684997 0.153804
H52 H 0.540935 0.711708 0.101777
C56 C 0.6388(2) 0.0866(5) 0.6726(6)
H53 H 0.664031 0.090506 0.676783
H54 H 0.628406 0.056067 0.598208
C57 C 0.5366(2) 0.5113(7) 0.1218(6)
H55 H 0.512670 0.502357 0.130217
H56 H 0.546706 0.453528 0.106841
H57 H 0.537092 0.552006 0.056087
C58 C 0.6240(2) 0.1814(5) 0.6709(7)
H58 H 0.630186 0.206747 0.751055
H59 H 0.598452 0.177791 0.649530
C59 C 0.7125(2) 0.0525(5) 0.9027(8)
H60 H 0.710581 0.014195 0.836602
C60 C 0.6320(2) 0.0291(5) 0.7776(6)
H61 H 0.606771 0.021660 0.771320
C61 C 0.7450(2) 0.0786(6) 0.9689(9)
C63 C 0.7791(2) 0.0440(7) 0.9322(10)
H63 H 0.791038 0.001946 0.991550
H64 H 0.794305 0.095015 0.926307
H65 H 0.773164 0.013664 0.856145
Ni3 Ni 0.63055(2) 0.75561(5) 0.66683(6)
Ni5 Ni 0.13055(2) 0.25561(5) 0.66683(6)
C2_2 C 0.71777(13) 0.2467(4) 0.4205(5)
C7_2 C 0.68311(13) 0.2415(4) 0.3307(5)
C8_2 C 0.77272(14) 0.3225(4) 0.4978(5)
H2_2 H 0.787737 0.371955 0.496165
C10_2 C 0.74042(14) 0.3181(4) 0.4172(5)
H4_2 H 0.734203 0.364263 0.360686
O5_2 O 0.82525(9) 0.1915(3) 0.7390(3)
O6_2 O 0.83563(9) 0.3273(3) 0.6760(3)
C33_2 C 0.78223(13) 0.2533(4) 0.5795(5)
C34_2 C 0.81689(13) 0.2585(4) 0.6693(5)
C35_2 C 0.72728(14) 0.1775(4) 0.5022(5)
H35_2 H 0.712263 0.128045 0.503835
C36_2 C 0.75958(14) 0.1819(4) 0.5828(5)
H36_2 H 0.765797 0.135737 0.639314
Ni5_2 Ni 0.86945(2) 0.25561(5) 0.83317(6)
N5_2 N 0.11756(10) 0.1428(3) 0.5598(4)
C41_2 C 0.09537(13) 0.1253(4) 0.4489(5)
C42_2 C 0.13365(14) 0.0639(4) 0.5898(5)
H39_2 H 0.150031 0.055512 0.660899
C43_2 C 0.09965(14) 0.0345(4) 0.4172(5)
C44_2 C 0.07246(13) 0.1820(4) 0.3710(5)
H40_2 H 0.069392 0.242923 0.390384
C45_2 C 0.05421(14) 0.1450(5) 0.2631(5)
C50_2 C 0.05779(15) 0.0524(5) 0.2361(5)
C55_2 C 0.03145(17) 0.2084(6) 0.1732(6)
H50_2 H 0.031270 0.268337 0.207412
H51_2 H 0.007792 0.184997 0.153804
H52_2 H 0.040935 0.211708 0.101777
C57_2 C 0.0366(2) 0.0113(7) 0.1218(6)
H55_2 H 0.012670 0.002357 0.130217
H57_2 H 0.037092 0.052006 0.056087
C22_2 C 0.00617(15) 0.7231(6) 0.1356(6)
H15_2 H 0.009931 0.718316 0.057801
O7_2 O 0.07920(9) 0.6860(3) 0.1226(3)
O8_2 O 0.09424(9) 0.7753(3) 0.2797(3)
C37_2 C 0.07144(14) 0.7286(4) 0.2100(5)
C38_2 C 0.03408(14) 0.7261(4) 0.2308(5)
C39_2 C 0.02780(16) 0.7272(6) 0.3431(6)
H37_2 H 0.046747 0.730775 0.407761
Ni2_2 Ni 0.13055(2) 0.74439(5) 0.16683(6)
N7_2 N 0.15092(11) 0.6649(3) 0.0506(4)
C49_2 C 0.18491(16) 0.6432(4) 0.0377(6)
C54_2 C 0.21755(17) 0.6675(5) 0.1038(7)
H49_2 H 0.219001 0.704538 0.170874
C62_2 C 0.24794(18) 0.6374(6) 0.0715(8)
C64_2 C 0.28329(19) 0.6616(8) 0.1470(9)
H66_2 H 0.289072 0.723666 0.131009
H67_2 H 0.300959 0.621297 0.128054
H68_2 H 0.282422 0.655417 0.230195
O9_2 O 0.17475(9) 0.8085(3) 0.2610(3)
O10_2 O 0.16437(9) 0.6727(3) 0.3240(3)
N9_2 N 0.11756(10) 0.8572(3) 0.0598(4)
N1_2 N 0.88244(10) 0.1428(3) 0.9402(4)
C3_2 C 0.86635(14) 0.0639(4) 0.9102(5)
H1_2 H 0.849969 0.055512 0.839101
Ni1_2 Ni 0.86945(2) 0.74439(5) 0.33317(6)
O1_2 O 0.82525(9) 0.8085(3) 0.2390(3)
O2_2 O 0.92080(9) 0.6860(3) 0.3774(3)
O3_2 O 0.90576(9) 0.7753(3) 0.2203(3)
O4_2 O 0.83563(9) 0.6727(3) 0.1760(3)
N2_2 N 0.87552(11) 0.9980(3) 0.9896(4)
N3_2 N 0.84908(11) 0.6649(3) 0.4494(4)
N4_2 N 0.85253(15) 0.5735(3) 0.6067(5)
C2_3 C 0.78223(13) 0.7467(4) 0.0795(5)
C4_2 C 0.92856(14) 0.7286(4) 0.2900(5)
C6_2 C 0.96592(14) 0.7261(4) 0.2692(5)
C7_3 C 0.81689(13) 0.7415(4) 0.1693(5)
C8_3 C 0.72728(14) 0.8225(4) 0.0022(5)
H2_3 H 0.712263 0.871955 0.003835
C10_3 C 0.75958(14) 0.8181(4) 0.0828(5)
H4_3 H 0.765797 0.864263 0.139314
C13_2 C 0.86115(15) 0.9039(4) 0.9847(6)
H7_2 H 0.836178 0.905764 0.948996
C14_2 C 0.86956(16) 0.6222(4) 0.5370(5)
H8_2 H 0.894043 0.625263 0.549930
C15_2 C 0.81509(16) 0.6432(4) 0.4623(6)
C17_2 C 0.81707(18) 0.5862(4) 0.5605(6)
C18_2 C 0.87856(17) 0.8409(4) 0.9167(6)
H9_2 H 0.903550 0.838744 0.951999
H10_2 H 0.876004 0.863178 0.835228
C19_2 C 0.8634(2) 0.7457(4) 0.9143(6)
H11_2 H 0.837890 0.749710 0.892524
H12_2 H 0.869432 0.720093 0.994372
C20_2 C 0.78245(17) 0.6675(5) 0.3962(7)
H13_2 H 0.780999 0.704538 0.329126
C21_2 C 0.97220(16) 0.7272(6) 0.1569(6)
H14_2 H 0.953253 0.730775 0.092239
C24_2 C 0.8612(2) 0.5866(5) 0.8274(6)
H19_2 H 0.835969 0.590506 0.823217
H20_2 H 0.871594 0.556067 0.901792
C26_2 C 0.8760(2) 0.6814(5) 0.8291(7)
H24_2 H 0.869814 0.706747 0.748945
H25_2 H 0.901548 0.677791 0.850470
C27_2 C 0.7875(2) 0.5525(5) 0.5973(8)
H26_2 H 0.789419 0.514195 0.663398
C28_2 C 0.8680(2) 0.5291(5) 0.7224(6)
H27_2 H 0.893229 0.521660 0.728680
H28 H 0.857713 0.468848 0.725424
C29_2 C 0.7550(2) 0.5786(6) 0.5311(9)
C30_2 C 0.75206(18) 0.6374(6) 0.4285(8)
C31_2 C 0.7209(2) 0.5440(7) 0.5678(10)
H29_2 H 0.708962 0.501946 0.508450
H30_2 H 0.705695 0.595015 0.573693
H31_2 H 0.726836 0.513664 0.643855
C32_2 C 0.71671(19) 0.6616(8) 0.3530(9)
H32_2 H 0.710928 0.723666 0.368991
H33_2 H 0.699041 0.621297 0.371946
H34_2 H 0.717578 0.655417 0.269805
C40_2 C 0.99383(15) 0.7231(6) 0.3644(6)
H38_2 H 0.990069 0.718316 0.442199
N10_2 N 0.88244(10) 0.8572(3) 0.4402(4)
O5_3 O 0.67475(9) 0.6915(3) 0.7610(3)
O6_3 O 0.66437(9) 0.8273(3) 0.8240(3)
C33_3 C 0.71777(13) 0.7533(4) 0.9205(5)
C34_3 C 0.68311(13) 0.7585(4) 0.8307(5)
C35_3 C 0.77272(14) 0.6775(4) 0.9978(5)
H35_3 H 0.787737 0.628045 0.996165
C36_3 C 0.74042(14) 0.6819(4) 0.9172(5)
H36_3 H 0.734203 0.635737 0.860686
C2_4 C 0.21777(13) 0.7467(4) 0.4205(5)
C7_4 C 0.18311(13) 0.7415(4) 0.3307(5)
C8_4 C 0.27272(14) 0.8225(4) 0.4978(5)
H2_4 H 0.287737 0.871955 0.496165
C10_4 C 0.24042(14) 0.8181(4) 0.4172(5)
H4_4 H 0.234203 0.864263 0.360686
O5_4 O 0.32525(9) 0.6915(3) 0.7390(3)
O6_4 O 0.33563(9) 0.8273(3) 0.6760(3)
C33_4 C 0.28223(13) 0.7533(4) 0.5795(5)
C34_4 C 0.31689(13) 0.7585(4) 0.6693(5)
C35_4 C 0.22728(14) 0.6775(4) 0.5022(5)
H35_4 H 0.212263 0.628045 0.503835
C36_4 C 0.25958(14) 0.6819(4) 0.5828(5)
H36_4 H 0.265797 0.635737 0.639314
N6_2 N 0.37552(11) 0.5020(3) 0.4896(4)
C41_3 C 0.40463(13) 0.3747(4) 0.5511(5)
N8_2 N 0.35253(15) 0.9265(3) 0.1067(5)
C42_3 C 0.36635(14) 0.4361(4) 0.4102(5)
H39_3 H 0.349969 0.444488 0.339101
C43_3 C 0.40035(14) 0.4655(4) 0.5828(5)
C44_3 C 0.42754(13) 0.3180(4) 0.6290(5)
H40_3 H 0.430608 0.257077 0.609616
C45_3 C 0.44579(14) 0.3550(5) 0.7369(5)
C46_2 C 0.41958(15) 0.5031(5) 0.6876(5)
H41_2 H 0.417173 0.564508 0.705520
C47_2 C 0.36115(15) 0.5961(4) 0.4847(6)
H42_2 H 0.363530 0.619155 0.565796
H43_2 H 0.336178 0.594236 0.448996
C48_2 C 0.36956(16) 0.8778(4) 0.0370(5)
H44_2 H 0.394043 0.874737 0.049930
C50_3 C 0.44221(15) 0.4476(5) 0.7639(5)
C51_2 C 0.31707(18) 0.9138(4) 0.0605(6)
C52_2 C 0.37856(17) 0.6591(4) 0.4167(6)
H45_2 H 0.403550 0.661256 0.451999
H46_2 H 0.376004 0.636822 0.335228
C53_2 C 0.3634(2) 0.7543(4) 0.4143(6)
H47_2 H 0.337890 0.750290 0.392524
H48_2 H 0.369432 0.779907 0.494372
C55_3 C 0.46855(17) 0.2916(6) 0.8268(6)
H50_3 H 0.468730 0.231663 0.792588
H51_3 H 0.492208 0.315003 0.846196
H52_3 H 0.459065 0.288292 0.898223
C56_2 C 0.3612(2) 0.9134(5) 0.3274(6)
H53_2 H 0.335969 0.909494 0.323217
H54_2 H 0.371594 0.943933 0.401792
C57_3 C 0.4634(2) 0.4887(7) 0.8782(6)
H55_3 H 0.487330 0.497643 0.869783
H56_2 H 0.453294 0.546472 0.893159
H57_3 H 0.462908 0.447994 0.943913
C58_2 C 0.3760(2) 0.8186(5) 0.3291(7)
H58_2 H 0.369814 0.793253 0.248945
H59_2 H 0.401548 0.822209 0.350470
C59_2 C 0.2875(2) 0.9475(5) 0.0973(8)
H60_2 H 0.289419 0.985805 0.163398
C60_2 C 0.3680(2) 0.9709(5) 0.2224(6)
H61_2 H 0.393229 0.978340 0.228680
C61_2 C 0.2550(2) 0.9214(6) 0.0311(9)
C63_2 C 0.2209(2) 0.9560(7) 0.0678(10)
H63_2 H 0.208962 0.998054 0.008450
H64_2 H 0.205695 0.904985 0.073693
H65_2 H 0.226836 0.986336 0.143855
O2_3 O 0.57920(9) 0.8140(3) 0.6226(3)
O3_3 O 0.59424(9) 0.7247(3) 0.7797(3)
N2_3 N 0.62448(11) 0.5020(3) 0.0104(4)
N3_3 N 0.65092(11) 0.8351(3) 0.5506(4)
N4_3 N 0.64747(15) 0.9265(3) 0.3933(5)
C3_3 C 0.63365(14) 0.4361(4) 0.0898(5)
H1_3 H 0.650031 0.444488 0.160899
C4_3 C 0.57144(14) 0.7714(4) 0.7100(5)
C6_3 C 0.53408(14) 0.7739(4) 0.7308(5)
C13_3 C 0.63885(15) 0.5961(4) 0.0153(6)
H7_3 H 0.663822 0.594236 0.051004
C14_3 C 0.63044(16) 0.8778(4) 0.4630(5)
H8_3 H 0.605957 0.874737 0.450070
C15_3 C 0.68491(16) 0.8568(4) 0.5377(6)
C17_3 C 0.68293(18) 0.9138(4) 0.4395(6)
C18_3 C 0.62144(17) 0.6591(4) 0.0833(6)
H9_3 H 0.596450 0.661256 0.048001
H10_3 H 0.623996 0.636822 0.164772
C19_3 C 0.6366(2) 0.7543(4) 0.0857(6)
H11_3 H 0.662110 0.750290 0.107476
H12_3 H 0.630568 0.779907 0.005628
C20_3 C 0.71755(17) 0.8325(5) 0.6038(7)
H13_3 H 0.719001 0.795462 0.670874
C21_3 C 0.52780(16) 0.7728(6) 0.8431(6)
H14_3 H 0.546747 0.769225 0.907761
C22_3 C 0.49383(15) 0.7769(6) 0.8644(6)
H15_3 H 0.490069 0.781684 0.942199
C24_3 C 0.6388(2) 0.9134(5) 0.1726(6)
H19_3 H 0.664031 0.909494 0.176783
H20_3 H 0.628406 0.943933 0.098208
C26_3 C 0.6240(2) 0.8186(5) 0.1709(7)
H24_3 H 0.630186 0.793253 0.251055
H25_3 H 0.598452 0.822209 0.149530
C27_3 C 0.7125(2) 0.9475(5) 0.4027(8)
H26_3 H 0.710581 0.985805 0.336602
C28_3 C 0.6320(2) 0.9709(5) 0.2776(6)
H27_3 H 0.606771 0.978340 0.271320
C29_3 C 0.7450(2) 0.9214(6) 0.4689(9)
C30_3 C 0.74794(18) 0.8626(6) 0.5715(8)
C31_3 C 0.7791(2) 0.9560(7) 0.4322(10)
H29_3 H 0.791038 0.998054 0.491550
H30_3 H 0.794305 0.904985 0.426307
H31_3 H 0.773164 0.986336 0.356145
C32_3 C 0.78329(19) 0.8384(8) 0.6470(9)
H32_3 H 0.789072 0.776334 0.631009
H33_3 H 0.800959 0.878703 0.628054
H34_3 H 0.782422 0.844583 0.730195
O7_3 O 0.42080(9) 0.8140(3) 0.8774(3)
O8_3 O 0.40576(9) 0.7247(3) 0.7203(3)
C37_3 C 0.42856(14) 0.7714(4) 0.7900(5)
C38_3 C 0.46592(14) 0.7739(4) 0.7692(5)
C39_3 C 0.47220(16) 0.7728(6) 0.6569(6)
H37_3 H 0.453253 0.769225 0.592239
C40_3 C 0.50617(15) 0.7769(6) 0.6356(6)
H38_3 H 0.509931 0.781684 0.557801
N7_3 N 0.34908(11) 0.8351(3) 0.9494(4)
C49_3 C 0.31509(16) 0.8568(4) 0.9623(6)
C54_3 C 0.28245(17) 0.8325(5) 0.8962(7)
H49_3 H 0.280999 0.795462 0.829126
C62_3 C 0.25206(18) 0.8626(6) 0.9285(8)
C64_3 C 0.21671(19) 0.8384(8) 0.8530(9)
H66_3 H 0.210928 0.776334 0.868991
H67_3 H 0.199041 0.878703 0.871946
H68_3 H 0.217578 0.844583 0.769805
O2_4 O 0.07920(9) 0.3140(3) 0.6226(3)
O3_4 O 0.09424(9) 0.2247(3) 0.7797(3)
N2_4 N 0.12448(11) 0.0020(3) 0.0104(4)
N3_4 N 0.15092(11) 0.3351(3) 0.5506(4)
N4_4 N 0.14747(15) 0.4265(3) 0.3933(5)
C4_4 C 0.07144(14) 0.2714(4) 0.7100(5)
C6_4 C 0.03408(14) 0.2739(4) 0.7308(5)
C13_4 C 0.13885(15) 0.0961(4) 0.0153(6)
H7_4 H 0.163822 0.094236 0.051004
C14_4 C 0.13044(16) 0.3778(4) 0.4630(5)
H8_4 H 0.105957 0.374737 0.450070
C15_4 C 0.18491(16) 0.3568(4) 0.5377(6)
C17_4 C 0.18293(18) 0.4138(4) 0.4395(6)
C18_4 C 0.12144(17) 0.1591(4) 0.0833(6)
H9_4 H 0.096450 0.161256 0.048001
H10_4 H 0.123996 0.136822 0.164772
C19_4 C 0.1366(2) 0.2543(4) 0.0857(6)
H11_4 H 0.162110 0.250290 0.107476
H12_4 H 0.130568 0.279907 0.005628
C20_4 C 0.21755(17) 0.3325(5) 0.6038(7)
H13_4 H 0.219001 0.295462 0.670874
C21_4 C 0.02780(16) 0.2728(6) 0.8431(6)
H14_4 H 0.046747 0.269225 0.907761
C24_4 C 0.1388(2) 0.4134(5) 0.1726(6)
H19_4 H 0.164031 0.409494 0.176783
H20_4 H 0.128406 0.443933 0.098208
C26_4 C 0.1240(2) 0.3186(5) 0.1709(7)
H24_4 H 0.130186 0.293253 0.251055
H25_4 H 0.098452 0.322209 0.149530
C27_4 C 0.2125(2) 0.4475(5) 0.4027(8)
H26_4 H 0.210581 0.485805 0.336602
C28_4 C 0.1320(2) 0.4709(5) 0.2776(6)
H27_4 H 0.106771 0.478340 0.271320
H28_2 H 0.142287 0.531152 0.274576
C29_4 C 0.2450(2) 0.4214(6) 0.4689(9)
C30_4 C 0.24794(18) 0.3626(6) 0.5715(8)
C31_4 C 0.2791(2) 0.4560(7) 0.4322(10)
H29_4 H 0.291038 0.498054 0.491550
H30_4 H 0.294305 0.404985 0.426307
H31_4 H 0.273164 0.486336 0.356145
C32_4 C 0.28329(19) 0.3384(8) 0.6470(9)
H32_4 H 0.289072 0.276334 0.631009
H33_4 H 0.300959 0.378703 0.628054
H34_4 H 0.282422 0.344583 0.730195
C40_4 C 0.00617(15) 0.2769(6) 0.6356(6)
H38_4 H 0.009931 0.281684 0.557801
C3_4 C 0.13365(14) 0.9361(4) 0.0898(5)
H1_4 H 0.150031 0.944488 0.160899
C22_4 C 0.99383(15) 0.2769(6) 0.8644(6)
H15_4 H 0.990069 0.281684 0.942199
O7_4 O 0.92080(9) 0.3140(3) 0.8774(3)
O8_4 O 0.90576(9) 0.2247(3) 0.7203(3)
C37_4 C 0.92856(14) 0.2714(4) 0.7900(5)
C38_4 C 0.96592(14) 0.2739(4) 0.7692(5)
C39_4 C 0.97220(16) 0.2728(6) 0.6569(6)
H37_4 H 0.953253 0.269225 0.592239
N7_4 N 0.84908(11) 0.3351(3) 0.9494(4)
C49_4 C 0.81509(16) 0.3568(4) 0.9623(6)
C54_4 C 0.78245(17) 0.3325(5) 0.8962(7)
H49_4 H 0.780999 0.295462 0.829126
C62_4 C 0.75206(18) 0.3626(6) 0.9285(8)
C64_4 C 0.71671(19) 0.3384(8) 0.8530(9)
H66_4 H 0.710928 0.276334 0.868991
H67_4 H 0.699041 0.378703 0.871946
H68_4 H 0.717578 0.344583 0.769805
C41_4 C 0.90463(13) 0.8747(4) 0.5511(5)
C42_4 C 0.86635(14) 0.9361(4) 0.4102(5)
H39_4 H 0.849969 0.944488 0.339101
C43_4 C 0.90035(14) 0.9655(4) 0.5828(5)
C44_4 C 0.92754(13) 0.8180(4) 0.6290(5)
H40_4 H 0.930608 0.757077 0.609616
C45_4 C 0.94579(14) 0.8550(5) 0.7369(5)
C50_4 C 0.94221(15) 0.9476(5) 0.7639(5)
C55_4 C 0.96855(17) 0.7916(6) 0.8268(6)
H50_4 H 0.968730 0.731663 0.792588
H51_4 H 0.992208 0.815003 0.846196
H52_4 H 0.959065 0.788292 0.898223
C57_4 C 0.9634(2) 0.9887(7) 0.8782(6)
H55_4 H 0.987330 0.997643 0.869783
H57_4 H 0.962908 0.947994 0.943913
H28_3 H 0.357713 0.968848 0.725424
H62 H 0.642287 0.968848 0.774576
N6_3 N 0.12448(11) 0.9980(3) 0.5104(4)
N8_3 N 0.14747(15) 0.5735(3) 0.8933(5)
C46_3 C 0.08042(15) 0.9969(5) 0.3124(5)
H41_3 H 0.082827 0.935492 0.294480
C47_3 C 0.13885(15) 0.9039(4) 0.5153(6)
H42_3 H 0.136470 0.880845 0.434204
H43_3 H 0.163822 0.905764 0.551004
C48_3 C 0.13044(16) 0.6222(4) 0.9630(5)
H44_3 H 0.105957 0.625263 0.950070
C51_3 C 0.18293(18) 0.5862(4) 0.9395(6)
C52_3 C 0.12144(17) 0.8409(4) 0.5833(6)
H45_3 H 0.096450 0.838744 0.548001
H46_3 H 0.123996 0.863178 0.664772
C53_3 C 0.1366(2) 0.7457(4) 0.5857(6)
H47_3 H 0.162110 0.749710 0.607476
H48_3 H 0.130568 0.720093 0.505628
C56_3 C 0.1388(2) 0.5866(5) 0.6726(6)
H53_3 H 0.164031 0.590506 0.676783
H54_3 H 0.128406 0.556067 0.598208
H56_3 H 0.046706 0.953528 0.106841
C58_3 C 0.1240(2) 0.6814(5) 0.6709(7)
H58_3 H 0.130186 0.706747 0.751055
H59_3 H 0.098452 0.677791 0.649530
C59_3 C 0.2125(2) 0.5525(5) 0.9027(8)
H60_3 H 0.210581 0.514195 0.836602
C60_3 C 0.1320(2) 0.5291(5) 0.7776(6)
H61_3 H 0.106771 0.521660 0.771320
H62_2 H 0.142287 0.468848 0.774576
C61_3 C 0.2450(2) 0.5786(6) 0.9689(9)
C63_3 C 0.2791(2) 0.5440(7) 0.9322(10)
H63_3 H 0.291038 0.501946 0.991550
H64_3 H 0.294305 0.595015 0.926307
H65_3 H 0.273164 0.513664 0.856145
C1_2 C 0.90463(13) 0.1253(4) 0.0511(5)
C5_2 C 0.90035(14) 0.0345(4) 0.0828(5)
C9_2 C 0.92754(13) 0.1820(4) 0.1290(5)
H3_2 H 0.930608 0.242923 0.109616
C11_2 C 0.94579(14) 0.1450(5) 0.2369(5)
C16_2 C 0.94221(15) 0.0524(5) 0.2639(5)
C23_2 C 0.96855(17) 0.2084(6) 0.3268(6)
H16_2 H 0.968730 0.268337 0.292588
H17_2 H 0.992208 0.184997 0.346196
H18_2 H 0.959065 0.211708 0.398223
C25_2 C 0.9634(2) 0.0113(7) 0.3782(6)
H21_2 H 0.987330 0.002357 0.369783
H23_2 H 0.962908 0.052006 0.443913
C12_2 C 0.91958(15) 0.9969(5) 0.1876(5)
H5_2 H 0.917173 0.935492 0.205520
H6_2 H 0.863530 0.880845 0.065796
H22_2 H 0.953294 0.953528 0.393159
H62_3 H 0.357713 0.031152 0.225424
H28_4 H 0.642287 0.031152 0.274576
C1_3 C 0.59537(13) 0.3747(4) 0.9489(5)
C5_3 C 0.59965(14) 0.4655(4) 0.9172(5)
C9_3 C 0.57246(13) 0.3180(4) 0.8710(5)
H3_3 H 0.569392 0.257077 0.890384
C11_3 C 0.55421(14) 0.3550(5) 0.7631(5)
C12_3 C 0.58042(15) 0.5031(5) 0.8124(5)
H5_3 H 0.582827 0.564508 0.794480
H6_3 H 0.636470 0.619155 0.934204
C16_3 C 0.55779(15) 0.4476(5) 0.7361(5)
C23_3 C 0.53145(17) 0.2916(6) 0.6732(6)
H16_3 H 0.531270 0.231663 0.707412
H17_3 H 0.507792 0.315003 0.653804
H18_3 H 0.540935 0.288292 0.601777
C25_3 C 0.5366(2) 0.4887(7) 0.6218(6)
H21_3 H 0.512670 0.497643 0.630217
H22_3 H 0.546706 0.546472 0.606841
H23_3 H 0.537092 0.447994 0.556087
C12_4 C 0.08042(15) 0.0031(5) 0.8124(5)
H5_4 H 0.082827 0.064508 0.794480
H6_4 H 0.136470 0.119155 0.934204
H22_4 H 0.046706 0.046472 0.606841
C1_4 C 0.09537(13) 0.8747(4) 0.9489(5)
C5_4 C 0.09965(14) 0.9655(4) 0.9172(5)
C9_4 C 0.07246(13) 0.8180(4) 0.8710(5)
H3_4 H 0.069392 0.757077 0.890384
C11_4 C 0.05421(14) 0.8550(5) 0.7631(5)
C16_4 C 0.05779(15) 0.9476(5) 0.7361(5)
C23_4 C 0.03145(17) 0.7916(6) 0.6732(6)
H16_4 H 0.031270 0.731663 0.707412
H17_4 H 0.007792 0.815003 0.653804
H18_4 H 0.040935 0.788292 0.601777
C25_4 C 0.0366(2) 0.9887(7) 0.6218(6)
H21_4 H 0.012670 0.997643 0.630217
H23_4 H 0.037092 0.947994 0.556087
N6_4 N 0.87552(11) 0.0020(3) 0.4896(4)
N8_4 N 0.85253(15) 0.4265(3) 0.1067(5)
C46_4 C 0.91958(15) 0.0031(5) 0.6876(5)
H41_4 H 0.917173 0.064508 0.705520
C47_4 C 0.86115(15) 0.0961(4) 0.4847(6)
H42_4 H 0.863530 0.119155 0.565796
H43_4 H 0.836178 0.094236 0.448996
C48_4 C 0.86956(16) 0.3778(4) 0.0370(5)
H44_4 H 0.894043 0.374737 0.049930
C51_4 C 0.81707(18) 0.4138(4) 0.0605(6)
C52_4 C 0.87856(17) 0.1591(4) 0.4167(6)
H45_4 H 0.903550 0.161256 0.451999
H46_4 H 0.876004 0.136822 0.335228
C53_4 C 0.8634(2) 0.2543(4) 0.4143(6)
H47_4 H 0.837890 0.250290 0.392524
H48_4 H 0.869432 0.279907 0.494372
C56_4 C 0.8612(2) 0.4134(5) 0.3274(6)
H53_4 H 0.835969 0.409494 0.323217
H54_4 H 0.871594 0.443933 0.401792
H56_4 H 0.953294 0.046472 0.893159
C58_4 C 0.8760(2) 0.3186(5) 0.3291(7)
H58_4 H 0.869814 0.293253 0.248945
H59_4 H 0.901548 0.322209 0.350470
C59_4 C 0.7875(2) 0.4475(5) 0.0973(8)
H60_4 H 0.789419 0.485805 0.163398
C60_4 C 0.8680(2) 0.4709(5) 0.2224(6)
H61_4 H 0.893229 0.478340 0.228680
H62_4 H 0.857713 0.531152 0.225424
C61_4 C 0.7550(2) 0.4214(6) 0.0311(9)
C63_4 C 0.7209(2) 0.4560(7) 0.0678(10)
H63_4 H 0.708962 0.498054 0.008450
H64_4 H 0.705695 0.404985 0.073693
H65_4 H 0.726836 0.486336 0.143855
loop_
_geom_bond_atom_site_label_1
_geom_bond_atom_site_label_2
_geom_bond_site_symmetry_1
_geom_bond_site_symmetry_2
C1 C5 1_555 1_555
C9 C1 1_555 1_555
H3 C9 1_555 1_555
C11 C9 1_555 1_555
C12 C5 1_555 1_555
H5 C12 1_555 1_555
C16 C11 1_555 1_555
C23 C11 1_555 1_555
H16 C23 1_555 1_555
H17 C23 1_555 1_555
H18 C23 1_555 1_555
C25 C16 1_555 1_555
H21 C25 1_555 1_555
H22 C25 1_555 1_555
H23 C25 1_555 1_555
C12 C16 1_555 1_555
Ni1 O1 1_555 1_555
O1 C7 1_555 1_555
O2 Ni1 1_555 1_555
O3 Ni1 1_555 1_555
O4 Ni1 1_555 1_555
N2 C3 1_555 1_555
N3 Ni1 1_555 1_555
N4 C14 1_555 1_555
C2 C7 1_555 1_555
C3 N1 1_555 1_555
H1 C3 1_555 1_555
C4 O2 1_555 1_555
C6 C4 1_555 1_555
C7 O4 1_555 1_555
C8 H2 1_555 1_555
C10 C2 1_555 1_555
H4 C10 1_555 1_555
C13 N2 1_555 1_555
H7 C13 1_555 1_555
C14 N3 1_555 1_555
H8 C14 1_555 1_555
C15 N3 1_555 1_555
C17 N4 1_555 1_555
C18 C13 1_555 1_555
H9 C18 1_555 1_555
H10 C18 1_555 1_555
C19 C18 1_555 1_555
H11 C19 1_555 1_555
H12 C19 1_555 1_555
C20 C15 1_555 1_555
H13 C20 1_555 1_555
C21 C6 1_555 1_555
H14 C21 1_555 1_555
C22 C21 1_555 1_555
H15 C22 1_555 1_555
C24 H19 1_555 1_555
H20 C24 1_555 1_555
C26 C19 1_555 1_555
H24 C26 1_555 1_555
H25 C26 1_555 1_555
C27 C17 1_555 1_555
H26 C27 1_555 1_555
C28 N4 1_555 1_555
H27 C28 1_555 1_555
C29 C27 1_555 1_555
C30 C20 1_555 1_555
C31 C29 1_555 1_555
H29 C31 1_555 1_555
H30 C31 1_555 1_555
H31 C31 1_555 1_555
C32 C30 1_555 1_555
H32 C32 1_555 1_555
H33 C32 1_555 1_555
H34 C32 1_555 1_555
O7 C37 1_555 1_555
O8 C37 1_555 1_555
C37 C38 1_555 1_555
C38 C22 1_555 1_555
C39 C38 1_555 1_555
H37 C39 1_555 1_555
C40 C6 1_555 1_555
H38 C40 1_555 1_555
Ni2 O7 1_555 1_555
N7 Ni2 1_555 1_555
C49 N7 1_555 1_555
C54 C49 1_555 1_555
H49 C54 1_555 1_555
C62 C54 1_555 1_555
C64 C62 1_555 1_555
H66 C64 1_555 1_555
H67 C64 1_555 1_555
H68 C64 1_555 1_555
Ni4 N1 1_555 1_555
O9 Ni2 1_555 1_555
O10 Ni2 1_555 1_555
N9 Ni2 1_555 1_555
N10 Ni1 1_555 1_555
O3 C4 1_555 1_555
C8 C10 1_555 1_555
C15 C17 1_555 1_555
C24 C26 1_555 1_555
C24 C28 1_555 1_555
C29 C30 1_555 1_555
O8 Ni2 1_555 1_555
C39 C40 1_555 1_555
O5 C34 1_555 1_555
O6 C34 1_555 1_555
C34 C33 1_555 1_555
H35 C35 1_555 1_555
C36 C33 1_555 1_555
H36 C36 1_555 1_555
N5 C41 1_555 1_555
N6 C42 1_555 1_555
C41 C43 1_555 1_555
N8 C48 1_555 1_555
C42 N5 1_555 1_555
H39 C42 1_555 1_555
C43 N6 1_555 1_555
C44 C41 1_555 1_555
H40 C44 1_555 1_555
C45 C44 1_555 1_555
C46 C43 1_555 1_555
H41 C46 1_555 1_555
C47 N6 1_555 1_555
H42 C47 1_555 1_555
H43 C47 1_555 1_555
H44 C48 1_555 1_555
C50 C45 1_555 1_555
C51 N8 1_555 1_555
C52 C47 1_555 1_555
H45 C52 1_555 1_555
H46 C52 1_555 1_555
C53 C52 1_555 1_555
H47 C53 1_555 1_555
H48 C53 1_555 1_555
C55 C45 1_555 1_555
H50 C55 1_555 1_555
H51 C55 1_555 1_555
H52 C55 1_555 1_555
C56 H53 1_555 1_555
H54 C56 1_555 1_555
C57 C50 1_555 1_555
H55 C57 1_555 1_555
H56 C57 1_555 1_555
H57 C57 1_555 1_555
C58 C53 1_555 1_555
H58 C58 1_555 1_555
H59 C58 1_555 1_555
C59 C51 1_555 1_555
H60 C59 1_555 1_555
C60 N8 1_555 1_555
H61 C60 1_555 1_555
C61 C59 1_555 1_555
C63 C61 1_555 1_555
H63 C63 1_555 1_555
H64 C63 1_555 1_555
H65 C63 1_555 1_555
Ni3 N5 1_555 1_555
Ni5 O5 1_555 1_555
O6 Ni5 1_555 1_555
C35 C36 1_555 1_555
C46 C50 1_555 1_555
C56 C58 1_555 1_555
C56 C60 1_555 1_555
O9 C7_2 1_555 1_555
C2_2 C7_2 1_555 1_555
C7_2 O10 1_555 1_555
C8_2 H2_2 1_555 1_555
C10_2 C2_2 1_555 1_555
H4_2 C10_2 1_555 1_555
O5_2 C34_2 1_555 1_555
O6_2 C34_2 1_555 1_555
C33_2 C8_2 1_555 1_555
C34_2 C33_2 1_555 1_555
C35_2 C2_2 1_555 1_555
H35_2 C35_2 1_555 1_555
C36_2 C33_2 1_555 1_555
H36_2 C36_2 1_555 1_555
Ni5_2 O5_2 1_555 1_555
C8_2 C10_2 1_555 1_555
O6_2 Ni5_2 1_555 1_555
C35_2 C36_2 1_555 1_555
N5_2 C41_2 1_555 1_555
C41_2 C43_2 1_555 1_555
C42_2 N5_2 1_555 1_555
H39_2 C42_2 1_555 1_555
C44_2 C41_2 1_555 1_555
H40_2 C44_2 1_555 1_555
C45_2 C44_2 1_555 1_555
C50_2 C45_2 1_555 1_555
C55_2 C45_2 1_555 1_555
H50_2 C55_2 1_555 1_555
H51_2 C55_2 1_555 1_555
H52_2 C55_2 1_555 1_555
C57_2 C50_2 1_555 1_555
H55_2 C57_2 1_555 1_555
H57_2 C57_2 1_555 1_555
Ni5 N5_2 1_555 1_555
H15_2 C22_2 1_555 1_555
O7_2 C37_2 1_555 1_555
O8_2 C37_2 1_555 1_555
C37_2 C38_2 1_555 1_555
C38_2 C22_2 1_555 1_555
C39_2 C38_2 1_555 1_555
H37_2 C39_2 1_555 1_555
Ni2_2 O7_2 1_555 1_555
N7_2 Ni2_2 1_555 1_555
C49_2 N7_2 1_555 1_555
C54_2 C49_2 1_555 1_555
H49_2 C54_2 1_555 1_555
C62_2 C54_2 1_555 1_555
C64_2 C62_2 1_555 1_555
H66_2 C64_2 1_555 1_555
H67_2 C64_2 1_555 1_555
H68_2 C64_2 1_555 1_555
O9_2 Ni2_2 1_555 1_555
O10_2 Ni2_2 1_555 1_555
N9_2 Ni2_2 1_555 1_555
O8_2 Ni2_2 1_555 1_555
C3_2 N1_2 1_555 1_555
H1_2 C3_2 1_555 1_555
Ni5_2 N1_2 1_555 1_555
Ni1_2 O1_2 1_555 1_555
O1_2 C7_3 1_555 1_555
O2_2 Ni1_2 1_555 1_555
O3_2 Ni1_2 1_555 1_555
O4_2 Ni1_2 1_555 1_555
N3_2 Ni1_2 1_555 1_555
N4_2 C14_2 1_555 1_555
C2_3 C7_3 1_555 1_555
C4_2 O2_2 1_555 1_555
C6_2 C4_2 1_555 1_555
C7_3 O4_2 1_555 1_555
C8_3 H2_3 1_555 1_555
C10_3 C2_3 1_555 1_555
H4_3 C10_3 1_555 1_555
C13_2 N2_2 1_555 1_555
H7_2 C13_2 1_555 1_555
C14_2 N3_2 1_555 1_555
H8_2 C14_2 1_555 1_555
C15_2 N3_2 1_555 1_555
C17_2 N4_2 1_555 1_555
C18_2 C13_2 1_555 1_555
H9_2 C18_2 1_555 1_555
H10_2 C18_2 1_555 1_555
C19_2 C18_2 1_555 1_555
H11_2 C19_2 1_555 1_555
H12_2 C19_2 1_555 1_555
C20_2 C15_2 1_555 1_555
H13_2 C20_2 1_555 1_555
C21_2 C6_2 1_555 1_555
H14_2 C21_2 1_555 1_555
C24_2 H19_2 1_555 1_555
H20_2 C24_2 1_555 1_555
C26_2 C19_2 1_555 1_555
H24_2 C26_2 1_555 1_555
H25_2 C26_2 1_555 1_555
C27_2 C17_2 1_555 1_555
H26_2 C27_2 1_555 1_555
C28_2 N4_2 1_555 1_555
H27_2 C28_2 1_555 1_555
H28 C28_2 1_555 1_555
C29_2 C27_2 1_555 1_555
C30_2 C20_2 1_555 1_555
C31_2 C29_2 1_555 1_555
H29_2 C31_2 1_555 1_555
H30_2 C31_2 1_555 1_555
H31_2 C31_2 1_555 1_555
C32_2 C30_2 1_555 1_555
H32_2 C32_2 1_555 1_555
H33_2 C32_2 1_555 1_555
H34_2 C32_2 1_555 1_555
C40_2 C6_2 1_555 1_555
H38_2 C40_2 1_555 1_555
N10_2 Ni1_2 1_555 1_555
O3_2 C4_2 1_555 1_555
C8_3 C10_3 1_555 1_555
C15_2 C17_2 1_555 1_555
C24_2 C26_2 1_555 1_555
C24_2 C28_2 1_555 1_555
C29_2 C30_2 1_555 1_555
O5_3 C34_3 1_555 1_555
O6_3 C34_3 1_555 1_555
C34_3 C33_3 1_555 1_555
H35_3 C35_3 1_555 1_555
C36_3 C33_3 1_555 1_555
H36_3 C36_3 1_555 1_555
Ni3 O5_3 1_555 1_555
O6_3 Ni3 1_555 1_555
C35_3 C36_3 1_555 1_555
O9_2 C7_4 1_555 1_555
C2_4 C7_4 1_555 1_555
C7_4 O10_2 1_555 1_555
C8_4 H2_4 1_555 1_555
C10_4 C2_4 1_555 1_555
H4_4 C10_4 1_555 1_555
O5_4 C34_4 1_555 1_555
O6_4 C34_4 1_555 1_555
C33_4 C8_4 1_555 1_555
C34_4 C33_4 1_555 1_555
C35_4 C2_4 1_555 1_555
H35_4 C35_4 1_555 1_555
C36_4 C33_4 1_555 1_555
H36_4 C36_4 1_555 1_555
Ni4 O5_4 1_555 1_555
C8_4 C10_4 1_555 1_555
O6_4 Ni4 1_555 1_555
C35_4 C36_4 1_555 1_555
N10 C41_3 1_555 1_555
N6_2 C42_3 1_555 1_555
C41_3 C43_3 1_555 1_555
N8_2 C48_2 1_555 1_555
C42_3 N10 1_555 1_555
H39_3 C42_3 1_555 1_555
C43_3 N6_2 1_555 1_555
C44_3 C41_3 1_555 1_555
H40_3 C44_3 1_555 1_555
C45_3 C44_3 1_555 1_555
C46_2 C43_3 1_555 1_555
H41_2 C46_2 1_555 1_555
C47_2 N6_2 1_555 1_555
H42_2 C47_2 1_555 1_555
H43_2 C47_2 1_555 1_555
H44_2 C48_2 1_555 1_555
C50_3 C45_3 1_555 1_555
C51_2 N8_2 1_555 1_555
C52_2 C47_2 1_555 1_555
H45_2 C52_2 1_555 1_555
H46_2 C52_2 1_555 1_555
C53_2 C52_2 1_555 1_555
H47_2 C53_2 1_555 1_555
H48_2 C53_2 1_555 1_555
C55_3 C45_3 1_555 1_555
H50_3 C55_3 1_555 1_555
H51_3 C55_3 1_555 1_555
H52_3 C55_3 1_555 1_555
C56_2 H53_2 1_555 1_555
H54_2 C56_2 1_555 1_555
C57_3 C50_3 1_555 1_555
H55_3 C57_3 1_555 1_555
H56_2 C57_3 1_555 1_555
H57_3 C57_3 1_555 1_555
C58_2 C53_2 1_555 1_555
H58_2 C58_2 1_555 1_555
H59_2 C58_2 1_555 1_555
C59_2 C51_2 1_555 1_555
H60_2 C59_2 1_555 1_555
C60_2 N8_2 1_555 1_555
H61_2 C60_2 1_555 1_555
C61_2 C59_2 1_555 1_555
C63_2 C61_2 1_555 1_555
H63_2 C63_2 1_555 1_555
H64_2 C63_2 1_555 1_555
H65_2 C63_2 1_555 1_555
C46_2 C50_3 1_555 1_555
C56_2 C58_2 1_555 1_555
C56_2 C60_2 1_555 1_555
O2_3 Ni3 1_555 1_555
O3_3 Ni3 1_555 1_555
N2_3 C3_3 1_555 1_555
N3_3 Ni3 1_555 1_555
N4_3 C14_3 1_555 1_555
C3_3 N9 1_555 1_555
H1_3 C3_3 1_555 1_555
C4_3 O2_3 1_555 1_555
C6_3 C4_3 1_555 1_555
C13_3 N2_3 1_555 1_555
H7_3 C13_3 1_555 1_555
C14_3 N3_3 1_555 1_555
H8_3 C14_3 1_555 1_555
C15_3 N3_3 1_555 1_555
C17_3 N4_3 1_555 1_555
C18_3 C13_3 1_555 1_555
H9_3 C18_3 1_555 1_555
H10_3 C18_3 1_555 1_555
C19_3 C18_3 1_555 1_555
H11_3 C19_3 1_555 1_555
H12_3 C19_3 1_555 1_555
C20_3 C15_3 1_555 1_555
H13_3 C20_3 1_555 1_555
C21_3 C6_3 1_555 1_555
H14_3 C21_3 1_555 1_555
C22_3 C21_3 1_555 1_555
H15_3 C22_3 1_555 1_555
C24_3 H19_3 1_555 1_555
H20_3 C24_3 1_555 1_555
C26_3 C19_3 1_555 1_555
H24_3 C26_3 1_555 1_555
H25_3 C26_3 1_555 1_555
C27_3 C17_3 1_555 1_555
H26_3 C27_3 1_555 1_555
C28_3 N4_3 1_555 1_555
H27_3 C28_3 1_555 1_555
C29_3 C27_3 1_555 1_555
C30_3 C20_3 1_555 1_555
C31_3 C29_3 1_555 1_555
H29_3 C31_3 1_555 1_555
H30_3 C31_3 1_555 1_555
H31_3 C31_3 1_555 1_555
C32_3 C30_3 1_555 1_555
H32_3 C32_3 1_555 1_555
H33_3 C32_3 1_555 1_555
H34_3 C32_3 1_555 1_555
O7_3 C37_3 1_555 1_555
O8_3 C37_3 1_555 1_555
C37_3 C38_3 1_555 1_555
C38_3 C22_3 1_555 1_555
C39_3 C38_3 1_555 1_555
H37_3 C39_3 1_555 1_555
C40_3 C6_3 1_555 1_555
H38_3 C40_3 1_555 1_555
Ni4 O7_3 1_555 1_555
N7_3 Ni4 1_555 1_555
C49_3 N7_3 1_555 1_555
C54_3 C49_3 1_555 1_555
H49_3 C54_3 1_555 1_555
C62_3 C54_3 1_555 1_555
C64_3 C62_3 1_555 1_555
H66_3 C64_3 1_555 1_555
H67_3 C64_3 1_555 1_555
H68_3 C64_3 1_555 1_555
O3_3 C4_3 1_555 1_555
C15_3 C17_3 1_555 1_555
C24_3 C26_3 1_555 1_555
C24_3 C28_3 1_555 1_555
C29_3 C30_3 1_555 1_555
O8_3 Ni4 1_555 1_555
C39_3 C40_3 1_555 1_555
O2_4 Ni5 1_555 1_555
O3_4 Ni5 1_555 1_555
N3_4 Ni5 1_555 1_555
N4_4 C14_4 1_555 1_555
C4_4 O2_4 1_555 1_555
C6_4 C4_4 1_555 1_555
C13_4 N2_4 1_555 1_555
H7_4 C13_4 1_555 1_555
C14_4 N3_4 1_555 1_555
H8_4 C14_4 1_555 1_555
C15_4 N3_4 1_555 1_555
C17_4 N4_4 1_555 1_555
C18_4 C13_4 1_555 1_555
H9_4 C18_4 1_555 1_555
H10_4 C18_4 1_555 1_555
C19_4 C18_4 1_555 1_555
H11_4 C19_4 1_555 1_555
H12_4 C19_4 1_555 1_555
C20_4 C15_4 1_555 1_555
H13_4 C20_4 1_555 1_555
C21_4 C6_4 1_555 1_555
H14_4 C21_4 1_555 1_555
C24_4 H19_4 1_555 1_555
H20_4 C24_4 1_555 1_555
C26_4 C19_4 1_555 1_555
H24_4 C26_4 1_555 1_555
H25_4 C26_4 1_555 1_555
C27_4 C17_4 1_555 1_555
H26_4 C27_4 1_555 1_555
C28_4 N4_4 1_555 1_555
H27_4 C28_4 1_555 1_555
H28_2 C28_4 1_555 1_555
C29_4 C27_4 1_555 1_555
C30_4 C20_4 1_555 1_555
C31_4 C29_4 1_555 1_555
H29_4 C31_4 1_555 1_555
H30_4 C31_4 1_555 1_555
H31_4 C31_4 1_555 1_555
C32_4 C30_4 1_555 1_555
H32_4 C32_4 1_555 1_555
H33_4 C32_4 1_555 1_555
H34_4 C32_4 1_555 1_555
C40_4 C6_4 1_555 1_555
H38_4 C40_4 1_555 1_555
O3_4 C4_4 1_555 1_555
C15_4 C17_4 1_555 1_555
C24_4 C26_4 1_555 1_555
C24_4 C28_4 1_555 1_555
C29_4 C30_4 1_555 1_555
C3_4 N9_2 1_555 1_555
H1_4 C3_4 1_555 1_555
H15_4 C22_4 1_555 1_555
O7_4 C37_4 1_555 1_555
O8_4 C37_4 1_555 1_555
C37_4 C38_4 1_555 1_555
C38_4 C22_4 1_555 1_555
C39_4 C38_4 1_555 1_555
H37_4 C39_4 1_555 1_555
Ni5_2 O7_4 1_555 1_555
N7_4 Ni5_2 1_555 1_555
C49_4 N7_4 1_555 1_555
C54_4 C49_4 1_555 1_555
H49_4 C54_4 1_555 1_555
C62_4 C54_4 1_555 1_555
C64_4 C62_4 1_555 1_555
H66_4 C64_4 1_555 1_555
H67_4 C64_4 1_555 1_555
H68_4 C64_4 1_555 1_555
O8_4 Ni5_2 1_555 1_555
N10_2 C41_4 1_555 1_555
C41_4 C43_4 1_555 1_555
C42_4 N10_2 1_555 1_555
H39_4 C42_4 1_555 1_555
C44_4 C41_4 1_555 1_555
H40_4 C44_4 1_555 1_555
C45_4 C44_4 1_555 1_555
C50_4 C45_4 1_555 1_555
C55_4 C45_4 1_555 1_555
H50_4 C55_4 1_555 1_555
H51_4 C55_4 1_555 1_555
H52_4 C55_4 1_555 1_555
C57_4 C50_4 1_555 1_555
H55_4 C57_4 1_555 1_555
H57_4 C57_4 1_555 1_555
N8_3 C48_3 1_555 1_555
H41_3 C46_3 1_555 1_555
C47_3 N6_3 1_555 1_555
H42_3 C47_3 1_555 1_555
H43_3 C47_3 1_555 1_555
H44_3 C48_3 1_555 1_555
C51_3 N8_3 1_555 1_555
C52_3 C47_3 1_555 1_555
H45_3 C52_3 1_555 1_555
H46_3 C52_3 1_555 1_555
C53_3 C52_3 1_555 1_555
H47_3 C53_3 1_555 1_555
H48_3 C53_3 1_555 1_555
C56_3 H53_3 1_555 1_555
H54_3 C56_3 1_555 1_555
C58_3 C53_3 1_555 1_555
H58_3 C58_3 1_555 1_555
H59_3 C58_3 1_555 1_555
C59_3 C51_3 1_555 1_555
H60_3 C59_3 1_555 1_555
C60_3 N8_3 1_555 1_555
H61_3 C60_3 1_555 1_555
H62_2 C60_3 1_555 1_555
C61_3 C59_3 1_555 1_555
C63_3 C61_3 1_555 1_555
H63_3 C63_3 1_555 1_555
H64_3 C63_3 1_555 1_555
H65_3 C63_3 1_555 1_555
C56_3 C58_3 1_555 1_555
C56_3 C60_3 1_555 1_555
C1_2 C5_2 1_555 1_555
C9_2 C1_2 1_555 1_555
H3_2 C9_2 1_555 1_555
C11_2 C9_2 1_555 1_555
C16_2 C11_2 1_555 1_555
C23_2 C11_2 1_555 1_555
H16_2 C23_2 1_555 1_555
H17_2 C23_2 1_555 1_555
H18_2 C23_2 1_555 1_555
C25_2 C16_2 1_555 1_555
H21_2 C25_2 1_555 1_555
H23_2 C25_2 1_555 1_555
H5_2 C12_2 1_555 1_555
C1_3 C5_3 1_555 1_555
C9_3 C1_3 1_555 1_555
H3_3 C9_3 1_555 1_555
C11_3 C9_3 1_555 1_555
C12_3 C5_3 1_555 1_555
H5_3 C12_3 1_555 1_555
C16_3 C11_3 1_555 1_555
C23_3 C11_3 1_555 1_555
H16_3 C23_3 1_555 1_555
H17_3 C23_3 1_555 1_555
H18_3 C23_3 1_555 1_555
C25_3 C16_3 1_555 1_555
H21_3 C25_3 1_555 1_555
H22_3 C25_3 1_555 1_555
H23_3 C25_3 1_555 1_555
C12_3 C16_3 1_555 1_555
H5_4 C12_4 1_555 1_555
C1_4 C5_4 1_555 1_555
C9_4 C1_4 1_555 1_555
H3_4 C9_4 1_555 1_555
C11_4 C9_4 1_555 1_555
C16_4 C11_4 1_555 1_555
C23_4 C11_4 1_555 1_555
H16_4 C23_4 1_555 1_555
H17_4 C23_4 1_555 1_555
H18_4 C23_4 1_555 1_555
C25_4 C16_4 1_555 1_555
H21_4 C25_4 1_555 1_555
H23_4 C25_4 1_555 1_555
N8_4 C48_4 1_555 1_555
H41_4 C46_4 1_555 1_555
C47_4 N6_4 1_555 1_555
H42_4 C47_4 1_555 1_555
H43_4 C47_4 1_555 1_555
H44_4 C48_4 1_555 1_555
C51_4 N8_4 1_555 1_555
C52_4 C47_4 1_555 1_555
H45_4 C52_4 1_555 1_555
H46_4 C52_4 1_555 1_555
C53_4 C52_4 1_555 1_555
H47_4 C53_4 1_555 1_555
H48_4 C53_4 1_555 1_555
C56_4 H53_4 1_555 1_555
H54_4 C56_4 1_555 1_555
C58_4 C53_4 1_555 1_555
H58_4 C58_4 1_555 1_555
H59_4 C58_4 1_555 1_555
C59_4 C51_4 1_555 1_555
H60_4 C59_4 1_555 1_555
C60_4 N8_4 1_555 1_555
H61_4 C60_4 1_555 1_555
H62_4 C60_4 1_555 1_555
C61_4 C59_4 1_555 1_555
C63_4 C61_4 1_555 1_555
H63_4 C63_4 1_555 1_555
H64_4 C63_4 1_555 1_555
H65_4 C63_4 1_555 1_555
C56_4 C58_4 1_555 1_555
C56_4 C60_4 1_555 1_555

#END
