
###############################################################################
#
# This file contains modified crystal structure data generated from the
# MOF subset of the Cambridge Structural Database (CSD) v543 
# hosted by the Cambridge Crystallographic Data Centre (CCDC).
#
# This work is licensed under the Creative Commons
# Attribution-NonCommercial-ShareAlike 4.0 International License.
# To view a copy of this license, visit
# http://creativecommons.org/licenses/by-nc-sa/4.0/
# or send a letter to
# Creative Commons, PO Box 1866, Mountain View, CA 94042, USA.
#
# CIF created using the CSD Python API on 29 September 2022
# The structure has been converted into the P1 space group
# The structure has a 3D framework
# The original CSD entry GOKTEH is in the triclinic crystal system
# The framework has been calculated to contain at least 10.0% void space
# The void calculation uses a probe of radius 1.32A, grid spacing 0.4
#
###############################################################################

data_GOKTEH
_chemical_formula_moiety         '(C144 H116 Co6 N58 S12)n'
_symmetry_cell_setting           triclinic
_symmetry_space_group_name_H-M   'P 1'
_symmetry_Int_Tables_number      1
_space_group_name_Hall           'P 1'
loop_
_symmetry_equiv_pos_site_id
_symmetry_equiv_pos_as_xyz
1 x,y,z
_cell_length_a                   12.928(3)
_cell_length_b                   15.644(3)
_cell_length_c                   25.739(5)
_cell_angle_alpha                91.980(3)
_cell_angle_beta                 93.995(3)
_cell_angle_gamma                114.215(3)
_cell_volume                     4724.62
loop_
_atom_site_label
_atom_site_type_symbol
_atom_site_fract_x
_atom_site_fract_y
_atom_site_fract_z
_atom_site_U_iso_or_equiv
_atom_site_thermal_displace_type
N55 N 0.1479(8) 0.6715(6) 0.5795(4) 0.0475 Uani
C131 C 0.0415(11) 0.6486(10) 0.5845(7) 0.0979 Uani
H107 H 0.0183 0.6968 0.5904 0.1190 Uiso
C134 C 0.1019(11) 0.5088(9) 0.5666(6) 0.0719 Uani
H109 H 0.1276 0.4626 0.5593 0.0860 Uiso
C135 C 0.1762(11) 0.6003(8) 0.5723(6) 0.0665 Uani
H110 H 0.2531 0.6140 0.5710 0.0800 Uiso
Co10 Co 0.26479(13) 0.82211(10) 0.58558(6) 0.0438 Uani
N49 N 0.5428(11) 0.7696(8) 0.8869(4) 0.0696 Uani
N50 N 0.5090(12) 0.7678(9) 0.8342(5) 0.0806 Uani
N51 N 0.3299(8) 0.8208(6) 0.6647(4) 0.0497 Uani
N52 N 0.3861(8) 0.9699(7) 0.5820(4) 0.0550 Uani
N53 N 0.1460(8) 0.8659(7) 0.6134(4) 0.0525 Uani
N54 N 0.2009(7) 0.8290(6) 0.5092(3) 0.0420 Uani
H64 H 0.1533 0.7716 0.4963 0.0630 Uiso
H65 H 0.1641 0.8661 0.5097 0.0630 Uiso
H66 H 0.2584 0.8521 0.4892 0.0630 Uiso
N56 N 0.3856(8) 0.7820(7) 0.5585(4) 0.0489 Uani
S11 S 0.5464(4) 0.7120(4) 0.5402(2) 0.1075 Uani
C119 C 0.6151(14) 0.7615(10) 0.9902(6) 0.0789 Uani
H98 H 0.5470 0.7124 0.9771 0.0950 Uiso
C120 C 0.6825(15) 0.8292(10) 0.9575(5) 0.0681 Uani
C121 C 0.7847(13) 0.8970(11) 0.9781(5) 0.0728 Uani
H99 H 0.8311 0.9421 0.9574 0.0870 Uiso
C123 C 0.6418(14) 0.8267(11) 0.9028(5) 0.0708 Uani
H101 H 0.6888 0.8668 0.8801 0.0850 Uiso
C124 C 0.4682(12) 0.8263(11) 0.8200(5) 0.0693 Uani
H102 H 0.4695 0.8711 0.8450 0.0830 Uiso
C125 C 0.4198(11) 0.8273(10) 0.7671(5) 0.0596 Uani
C126 C 0.3895(11) 0.8956(9) 0.7513(5) 0.0597 Uani
H103 H 0.3994 0.9459 0.7744 0.0720 Uiso
C127 C 0.3442(11) 0.8906(9) 0.7010(5) 0.0637 Uani
H104 H 0.3221 0.9377 0.6912 0.0760 Uiso
C128 C 0.3598(10) 0.7544(8) 0.6800(4) 0.0454 Uani
H105 H 0.3512 0.7066 0.6553 0.0540 Uiso
C129 C 0.4018(11) 0.7501(9) 0.7284(5) 0.0630 Uani
H106 H 0.4190 0.7000 0.7372 0.0750 Uiso
C130 C 0.0845(11) 0.8853(8) 0.6331(5) 0.0546 Uani
C136 C 0.4527(11) 0.7536(8) 0.5520(5) 0.0474 Uani
C137 C 0.4993(10) 0.9910(9) 0.5855(5) 0.0564 Uani
H111 H 0.5227 0.9428 0.5906 0.0680 Uiso
S4 S 0.0070(4) 0.0869(3) 0.3360(2) 0.1143 Uani
S8 S 0.0839(5) 0.6307(6) 0.7220(3) 0.1576 Uani
S12 S 0.1904(4) 0.9232(4) 0.1285(2) 0.1187 Uani
C144 C 0.0651(14) 0.9118(11) 0.1318(5) 0.0702 Uani
N11 N 0.2907(8) 0.2912(6) 0.2745(4) 0.0491 Uani
C15 C 0.2432(12) 0.0048(10) 0.2702(6) 0.0672 Uani
C16 C 0.2614(10) 0.1023(8) 0.2725(5) 0.0462 Uani
C17 C 0.3348(11) 0.1670(9) 0.3097(5) 0.0563 Uani
H15 H 0.3763 0.1497 0.3349 0.0680 Uiso
C18 C 0.3463(10) 0.2593(8) 0.3094(5) 0.0483 Uani
H16 H 0.3962 0.3022 0.3353 0.0580 Uiso
C19 C 0.2218(11) 0.2284(8) 0.2375(5) 0.0499 Uani
H17 H 0.1829 0.2484 0.2124 0.0600 Uiso
C20 C 0.2046(11) 0.1352(8) 0.2340(5) 0.0546 Uani
H18 H 0.1564 0.0943 0.2069 0.0660 Uiso
Co7 Co 0.30796(14) 0.43501(10) 0.28321(6) 0.0433 Uani
Co3 Co 0.20276(15) 0.14813(12) 0.85303(6) 0.0551 Uani
N1 N 0.4821(10) 0.4809(7) 0.3018(4) 0.0618 Uani
N2 N 0.1366(10) 0.3865(7) 0.2659(4) 0.0545 Uani
N3 N 0.3374(9) 0.4566(7) 0.2014(4) 0.0525 Uani
N4 N 0.3242(8) 0.5790(6) 0.2917(3) 0.0453 Uani
N5 N 0.2831(9) 0.4173(6) 0.3657(4) 0.0513 Uani
N6 N 0.2079(14) 0.2787(11) 0.5396(5) 0.1061 Uani
N7 N 0.2136(17) 0.2509(14) 0.5915(6) 0.1403 Uani
N8 N 0.2673(12) 0.8784(8) 0.2994(5) 0.0823 Uani
N9 N 0.2948(12) 0.9758(7) 0.3035(6) 0.0874 Uani
N10 N 0.4941(12) 0.4873(8) 0.0260(4) 0.0863 Uani
N12 N 0.1604(10) 0.1459(7) 0.7685(4) 0.0622 Uani
N13 N 0.1925(10) 0.0063(7) 0.8488(4) 0.0575 Uani
N14 N 0.3783(11) 0.1925(8) 0.8410(4) 0.0686 Uani
N15 N 0.2462(10) 0.1631(7) 0.9376(4) 0.0564 Uani
N17 N 0.0295(12) 0.0974(8) 0.8655(4) 0.0709 Uani
S1 S 0.7051(4) 0.5125(4) 0.3313(2) 0.1171 Uani
S3 S 0.5630(6) 0.1495(6) 0.8416(3) 0.1690 Uani
C1 C 0.5759(13) 0.4941(8) 0.3151(5) 0.0541 Uani
C2 C 0.0505(14) 0.3786(10) 0.2710(6) 0.0694 Uani
C3 C 0.4025(12) 0.4215(9) 0.1788(5) 0.0595 Uani
H4 H 0.4263 0.3824 0.1980 0.0720 Uiso
C4 C 0.4376(12) 0.4384(10) 0.1292(5) 0.0658 Uani
H5 H 0.4863 0.4145 0.1160 0.0790 Uiso
C5 C 0.3962(13) 0.4935(9) 0.0997(5) 0.0685 Uani
C6 C 0.4227(14) 0.5141(9) 0.0440(5) 0.0750 Uani
H6 H 0.3882 0.5450 0.0239 0.0900 Uiso
C7 C 0.3239(14) 0.5283(11) 0.1226(5) 0.0813 Uani
H7 H 0.2950 0.5651 0.1043 0.0970 Uiso
C8 C 0.2967(14) 0.5063(11) 0.1736(5) 0.0798 Uani
H8 H 0.2476 0.5280 0.1883 0.0960 Uiso
C9 C 0.4194(12) 0.6531(8) 0.2838(5) 0.0650 Uani
H9 H 0.4835 0.6421 0.2784 0.0780 Uiso
C10 C 0.4305(12) 0.7439(8) 0.2829(6) 0.0670 Uani
H10 H 0.4993 0.7916 0.2761 0.0810 Uiso
C11 C 0.3420(12) 0.7635(9) 0.2918(5) 0.0562 Uani
C12 C 0.2440(11) 0.6884(8) 0.3015(5) 0.0609 Uani
H11 H 0.1802 0.6988 0.3082 0.0730 Uiso
C13 C 0.2379(11) 0.6001(8) 0.3016(5) 0.0545 Uani
H12 H 0.1700 0.5519 0.3089 0.0660 Uiso
C14 C 0.3514(14) 0.8588(9) 0.2929(6) 0.0715 Uani
H13 H 0.4215 0.9073 0.2886 0.0860 Uiso
H14 H 0.1930 0.9631 0.2439 0.0800 Uiso
C21 C 0.2083(11) 0.3358(8) 0.3806(5) 0.0499 Uani
H19 H 0.1592 0.2913 0.3551 0.0600 Uiso
C22 C 0.2010(12) 0.3147(10) 0.4321(5) 0.0683 Uani
H20 H 0.1465 0.2576 0.4409 0.0820 Uiso
C23 C 0.2772(12) 0.3806(11) 0.4719(5) 0.0612 Uani
C24 C 0.3508(12) 0.4641(10) 0.4560(5) 0.0631 Uani
H21 H 0.3992 0.5106 0.4807 0.0760 Uiso
C25 C 0.3545(10) 0.4802(9) 0.4051(5) 0.0535 Uani
H22 H 0.4084 0.5371 0.3958 0.0650 Uiso
C26 C 0.2734(14) 0.3576(13) 0.5264(5) 0.0813 Uani
H23 H 0.3209 0.4026 0.5520 0.0970 Uiso
C27 C 0.107(3) 0.2144(14) 0.6099(7) 0.2096 Uani
H24 H 0.0362 0.2058 0.5940 0.2530 Uiso
C28 C 0.1414(13) 0.1921(10) 0.6649(5) 0.0618 Uani
C29 C 0.2236(14) 0.1639(10) 0.6829(6) 0.0814 Uani
H25 H 0.2754 0.1613 0.6603 0.0970 Uiso
C30 C 0.2330(12) 0.1389(9) 0.7340(5) 0.0656 Uani
H26 H 0.2881 0.1176 0.7445 0.0790 Uiso
C31 C 0.0787(12) 0.1689(9) 0.7512(5) 0.0614 Uani
H27 H 0.0269 0.1713 0.7739 0.0730 Uiso
C32 C 0.0676(13) 0.1901(11) 0.6995(5) 0.0779 Uani
H28 H 0.0061 0.2034 0.6885 0.0930 Uiso
C33 C 0.4553(15) 0.1760(12) 0.8413(6) 0.0817 Uani
H32 H 0.3209 0.0272 0.9007 0.1090 Uiso
C46 C 0.3456(14) 0.2295(10) 0.9568(5) 0.0752 Uani
H39 H 0.3909 0.2715 0.9344 0.0900 Uiso
C50 C 0.1829(13) 0.1030(10) 0.9708(5) 0.0704 Uani
H42 H 0.1117 0.0581 0.9577 0.0850 Uiso
N61 N 0.2196(10) 0.2934(7) 0.8582(4) 0.0588 Uani
N18 N 0.2193(15) 0.7007(10) 0.8820(7) 0.1224 Uani
N19 N 0.207(2) 0.6074(13) 0.8924(9) 0.1928 Uani
C34 C 0.1176(14) 0.9375(10) 0.8161(6) 0.0812 Uani
H29 H 0.0703 0.9506 0.7919 0.0980 Uiso
C35 C 0.1090(17) 0.8429(11) 0.8180(7) 0.1045 Uani
H30 H 0.0581 0.7966 0.7939 0.1250 Uiso
C36 C 0.1723(18) 0.8195(11) 0.8535(8) 0.0953 Uani
C37 C 0.2516(14) 0.8905(10) 0.8857(6) 0.0798 Uani
H31 H 0.2983 0.8782 0.9107 0.0960 Uiso
C38 C 0.2613(16) 0.9796(12) 0.8805(6) 0.0906 Uani
C39 C 0.147(2) 0.7205(13) 0.8534(8) 0.1195 Uani
H33 H 0.0840 0.6747 0.8341 0.1420 Uiso
C40 C 0.1729(14) 0.3251(10) 0.8924(6) 0.0807 Uani
H34 H 0.1308 0.2847 0.9163 0.0970 Uiso
C41 C 0.1833(16) 0.4199(11) 0.8949(7) 0.0985 Uani
H35 H 0.1523 0.4408 0.9215 0.1180 Uiso
C42 C 0.2361(14) 0.4771(10) 0.8602(7) 0.0799 Uani
C43 C 0.2882(14) 0.4443(10) 0.8228(7) 0.0881 Uani
H36 H 0.3277 0.4830 0.7977 0.1050 Uiso
C44 C 0.2796(13) 0.3552(9) 0.8242(6) 0.0753 Uani
H37 H 0.3171 0.3351 0.8003 0.0900 Uiso
C45 C 0.2437(16) 0.5770(12) 0.8603(9) 0.1097 Uani
H38 H 0.2784 0.6145 0.8338 0.1320 Uiso
N45 N 0.7804(10) 0.7066(7) 0.1418(4) 0.0588 Uani
N47 N 0.7807(15) 0.2993(10) 0.1180(7) 0.1224 Uani
N48 N 0.793(2) 0.3926(13) 0.1076(9) 0.1928 Uani
C106 C 0.8824(14) 0.0625(10) 0.1839(6) 0.0812 Uani
H87 H 0.9297 0.0494 0.2081 0.0980 Uiso
C107 C 0.8910(17) 0.1571(11) 0.1820(7) 0.1045 Uani
H88 H 0.9419 0.2034 0.2061 0.1250 Uiso
C108 C 0.8277(18) 0.1805(11) 0.1465(8) 0.0953 Uani
C109 C 0.7484(14) 0.1095(10) 0.1143(6) 0.0798 Uani
H89 H 0.7017 0.1218 0.0893 0.0960 Uiso
C110 C 0.7387(16) 0.0204(12) 0.1195(6) 0.0906 Uani
C111 C 0.853(2) 0.2795(13) 0.1466(8) 0.1195 Uani
H91 H 0.9160 0.3253 0.1659 0.1420 Uiso
C112 C 0.8271(14) 0.6749(10) 0.1076(6) 0.0807 Uani
H92 H 0.8692 0.7153 0.0837 0.0970 Uiso
C113 C 0.8167(16) 0.5801(11) 0.1051(7) 0.0985 Uani
H93 H 0.8477 0.5592 0.0785 0.1180 Uiso
C114 C 0.7639(14) 0.5229(10) 0.1398(7) 0.0799 Uani
C115 C 0.7118(14) 0.5557(10) 0.1772(7) 0.0881 Uani
H94 H 0.6723 0.5170 0.2023 0.1050 Uiso
C116 C 0.7204(13) 0.6448(9) 0.1758(6) 0.0753 Uani
H95 H 0.6829 0.6649 0.1997 0.0900 Uiso
C117 C 0.7563(16) 0.4230(12) 0.1397(9) 0.1097 Uani
H96 H 0.7216 0.3855 0.1662 0.1320 Uiso
Co12 Co 0.79724(15) 0.85187(12) 0.14697(6) 0.0551 Uani
N30 N 0.6626(9) 0.5434(7) 0.7986(4) 0.0525 Uani
N31 N 0.5059(12) 0.5127(8) 0.9740(4) 0.0863 Uani
C73 C 0.5975(12) 0.5785(9) 0.8212(5) 0.0595 Uani
H59 H 0.5737 0.6176 0.8020 0.0720 Uiso
C74 C 0.5624(12) 0.5616(10) 0.8708(5) 0.0658 Uani
H60 H 0.5137 0.5855 0.8840 0.0790 Uiso
C75 C 0.6038(13) 0.5065(9) 0.9003(5) 0.0685 Uani
C76 C 0.5773(14) 0.4859(9) 0.9560(5) 0.0750 Uani
H61 H 0.6118 0.4550 0.9761 0.0900 Uiso
C77 C 0.6761(14) 0.4717(11) 0.8774(5) 0.0813 Uani
H62 H 0.7050 0.4349 0.8957 0.0970 Uiso
C78 C 0.7033(14) 0.4937(11) 0.8264(5) 0.0798 Uani
H63 H 0.7524 0.4720 0.8117 0.0960 Uiso
Co4 Co 0.69204(14) 0.56499(10) 0.71679(6) 0.0433 Uani
N32 N 0.5179(10) 0.5191(7) 0.6982(4) 0.0618 Uani
N33 N 0.8634(10) 0.6135(7) 0.7341(4) 0.0545 Uani
N34 N 0.6758(8) 0.4210(6) 0.7083(3) 0.0453 Uani
N35 N 0.7169(9) 0.5827(6) 0.6343(4) 0.0513 Uani
N36 N 0.7921(14) 0.7213(11) 0.4604(5) 0.1061 Uani
N37 N 0.7864(17) 0.7491(14) 0.4085(6) 0.1403 Uani
N38 N 0.7327(12) 0.1216(8) 0.7006(5) 0.0823 Uani
N39 N 0.7052(12) 0.0242(7) 0.6965(6) 0.0874 Uani
N41 N 0.8396(10) 0.8541(7) 0.2315(4) 0.0622 Uani
N42 N 0.8075(10) 0.9937(7) 0.1512(4) 0.0575 Uani
N43 N 0.6217(11) 0.8075(8) 0.1590(4) 0.0686 Uani
N44 N 0.7538(10) 0.8369(7) 0.0624(4) 0.0564 Uani
N46 N 0.9705(12) 0.9026(8) 0.1345(4) 0.0709 Uani
S7 S 0.2949(4) 0.4875(4) 0.6687(2) 0.1171 Uani
S9 S 0.4370(6) 0.8505(6) 0.1584(3) 0.1690 Uani
C79 C 0.4241(13) 0.5059(8) 0.6849(5) 0.0541 Uani
C80 C 0.9495(14) 0.6214(10) 0.7290(6) 0.0694 Uani
C81 C 0.5806(12) 0.3469(8) 0.7162(5) 0.0650 Uani
H67 H 0.5165 0.3579 0.7216 0.0780 Uiso
C82 C 0.5695(12) 0.2561(8) 0.7171(6) 0.0670 Uani
H68 H 0.5007 0.2084 0.7239 0.0810 Uiso
C83 C 0.6580(12) 0.2365(9) 0.7082(5) 0.0562 Uani
C84 C 0.7560(11) 0.3116(8) 0.6985(5) 0.0609 Uani
H69 H 0.8198 0.3012 0.6918 0.0730 Uiso
C85 C 0.7621(11) 0.3999(8) 0.6984(5) 0.0545 Uani
H70 H 0.8300 0.4481 0.6911 0.0660 Uiso
C86 C 0.6486(14) 0.1412(9) 0.7071(6) 0.0715 Uani
H71 H 0.5785 0.0927 0.7114 0.0860 Uiso
H72 H 0.8070 0.0369 0.7561 0.0800 Uiso
C93 C 0.7917(11) 0.6642(8) 0.6194(5) 0.0499 Uani
H77 H 0.8408 0.7087 0.6449 0.0600 Uiso
C94 C 0.7990(12) 0.6853(10) 0.5679(5) 0.0683 Uani
H78 H 0.8535 0.7424 0.5591 0.0820 Uiso
C95 C 0.7228(12) 0.6194(11) 0.5281(5) 0.0612 Uani
C96 C 0.6492(12) 0.5359(10) 0.5440(5) 0.0631 Uani
H79 H 0.6008 0.4894 0.5193 0.0760 Uiso
C97 C 0.6455(10) 0.5198(9) 0.5949(5) 0.0535 Uani
H80 H 0.5916 0.4629 0.6042 0.0650 Uiso
C98 C 0.7266(14) 0.6424(13) 0.4736(5) 0.0813 Uani
H81 H 0.6791 0.5974 0.4480 0.0970 Uiso
C99 C 0.893(3) 0.7856(14) 0.3901(7) 0.2096 Uani
H82 H 0.9638 0.7942 0.4060 0.2530 Uiso
C100 C 0.8586(13) 0.8079(10) 0.3351(5) 0.0618 Uani
C101 C 0.7764(14) 0.8361(10) 0.3171(6) 0.0814 Uani
H83 H 0.7246 0.8387 0.3397 0.0970 Uiso
C102 C 0.7670(12) 0.8611(9) 0.2660(5) 0.0656 Uani
H84 H 0.7119 0.8824 0.2555 0.0790 Uiso
C103 C 0.9213(12) 0.8311(9) 0.2488(5) 0.0614 Uani
H85 H 0.9731 0.8287 0.2261 0.0730 Uiso
C104 C 0.9324(13) 0.8099(11) 0.3005(5) 0.0779 Uani
H86 H 0.9939 0.7966 0.3115 0.0930 Uiso
C105 C 0.5447(15) 0.8240(12) 0.1587(6) 0.0817 Uani
H90 H 0.6791 0.9728 0.0993 0.1090 Uiso
C118 C 0.6544(14) 0.7705(10) 0.0432(5) 0.0752 Uani
H97 H 0.6091 0.7285 0.0656 0.0900 Uiso
C122 C 0.8171(13) 0.8970(10) 0.0292(5) 0.0704 Uani
H100 H 0.8883 0.9419 0.0423 0.0850 Uiso
N60 N 0.7093(8) 0.7088(6) 0.7255(4) 0.0491 Uani
C87 C 0.7568(12) 0.9952(10) 0.7298(6) 0.0672 Uani
C88 C 0.7386(10) 0.8977(8) 0.7275(5) 0.0462 Uani
C89 C 0.6652(11) 0.8330(9) 0.6903(5) 0.0563 Uani
H73 H 0.6237 0.8503 0.6651 0.0680 Uiso
C90 C 0.6537(10) 0.7407(8) 0.6906(5) 0.0483 Uani
H74 H 0.6038 0.6978 0.6647 0.0580 Uiso
C91 C 0.7782(11) 0.7716(8) 0.7625(5) 0.0499 Uani
H75 H 0.8171 0.7516 0.7876 0.0600 Uiso
C92 C 0.7954(11) 0.8648(8) 0.7660(5) 0.0546 Uani
H76 H 0.8436 0.9057 0.7931 0.0660 Uiso
N57 N 0.7350(9) 0.2703(6) 0.5687(4) 0.0551 Uani
N58 N 0.7993(9) 0.3671(7) 0.5708(4) 0.0579 Uani
C132 C 0.9608(13) 0.5585(10) 0.5817(8) 0.1014 Uani
H108 H 0.8856 0.5466 0.5866 0.1230 Uiso
C133 C 0.9908(11) 0.4850(7) 0.5715(4) 0.0490 Uani
C138 C 0.5817(11) 0.0809(9) 0.5817(6) 0.0678 Uani
H112 H 0.6587 0.0931 0.5836 0.0820 Uiso
C139 C 0.5446(11) 0.1536(8) 0.5747(4) 0.0487 Uani
C140 C 0.4306(12) 0.1303(9) 0.5715(5) 0.0635 Uani
H113 H 0.4039 0.1764 0.5659 0.0760 Uiso
C141 C 0.3566(11) 0.0419(9) 0.5763(5) 0.0562 Uani
H114 H 0.2797 0.0296 0.5755 0.0680 Uiso
C142 C 0.6333(12) 0.2523(8) 0.5737(4) 0.0576 Uani
H115 H 0.6114 0.3018 0.5768 0.0690 Uiso
C143 C 0.9040(12) 0.3869(9) 0.5697(5) 0.0577 Uani
H116 H 0.9275 0.3381 0.5676 0.0690 Uiso
Co2 Co 0.73521(13) 0.17789(10) 0.41442(6) 0.0438 Uani
N20 N 0.4572(11) 0.2304(8) 0.1131(4) 0.0696 Uani
N21 N 0.4910(12) 0.2322(9) 0.1658(5) 0.0806 Uani
N22 N 0.6701(8) 0.1792(6) 0.3353(4) 0.0497 Uani
N23 N 0.6139(8) 0.0301(7) 0.4180(4) 0.0550 Uani
N24 N 0.8540(8) 0.1341(7) 0.3866(4) 0.0525 Uani
N25 N 0.7991(7) 0.1710(6) 0.4908(3) 0.0420 Uani
H1 H 0.8467 0.2284 0.5037 0.0630 Uiso
H2 H 0.8359 0.1339 0.4903 0.0630 Uiso
H3 H 0.7416 0.1479 0.5108 0.0630 Uiso
N27 N 0.6144(8) 0.2180(7) 0.4415(4) 0.0489 Uani
S5 S 0.4536(4) 0.2880(4) 0.4598(2) 0.1075 Uani
C47 C 0.3849(14) 0.2385(10) 0.0098(6) 0.0789 Uani
H40 H 0.4530 0.2876 0.0229 0.0950 Uiso
C48 C 0.3175(15) 0.1708(10) 0.0425(5) 0.0681 Uani
C49 C 0.2153(13) 0.1030(11) 0.0219(5) 0.0728 Uani
H41 H 0.1689 0.0579 0.0426 0.0870 Uiso
C51 C 0.3582(14) 0.1733(11) 0.0972(5) 0.0708 Uani
H43 H 0.3112 0.1332 0.1199 0.0850 Uiso
C52 C 0.5318(12) 0.1737(11) 0.1800(5) 0.0693 Uani
H44 H 0.5305 0.1289 0.1550 0.0830 Uiso
C53 C 0.5802(11) 0.1727(10) 0.2329(5) 0.0596 Uani
C54 C 0.6105(11) 0.1044(9) 0.2487(5) 0.0597 Uani
H45 H 0.6006 0.0541 0.2256 0.0720 Uiso
C55 C 0.6558(11) 0.1094(9) 0.2990(5) 0.0637 Uani
H46 H 0.6779 0.0623 0.3088 0.0760 Uiso
C56 C 0.6402(10) 0.2456(8) 0.3200(4) 0.0454 Uani
H47 H 0.6488 0.2934 0.3447 0.0540 Uiso
C57 C 0.5982(11) 0.2499(9) 0.2716(5) 0.0630 Uani
H48 H 0.5810 0.3000 0.2628 0.0750 Uiso
C58 C 0.9155(11) 0.1147(8) 0.3669(5) 0.0546 Uani
C64 C 0.5473(11) 0.2464(8) 0.4480(5) 0.0474 Uani
C65 C 0.5007(10) 0.0090(9) 0.4145(5) 0.0564 Uani
H53 H 0.4773 0.0572 0.4094 0.0680 Uiso
N63 N 0.8521(8) 0.3285(6) 0.4205(4) 0.0475 Uani
C59 C 0.9585(11) 0.3514(10) 0.4155(7) 0.0979 Uani
H49 H 0.9817 0.3032 0.4096 0.1190 Uiso
C62 C 0.8981(11) 0.4912(9) 0.4334(6) 0.0719 Uani
H51 H 0.8724 0.5374 0.4407 0.0860 Uiso
C63 C 0.8238(11) 0.3997(8) 0.4277(6) 0.0665 Uani
H52 H 0.7469 0.3860 0.4290 0.0800 Uiso
N28 N 0.2650(9) 0.7297(6) 0.4313(4) 0.0551 Uani
N29 N 0.2007(9) 0.6329(7) 0.4292(4) 0.0579 Uani
C60 C 0.0392(13) 0.4415(10) 0.4183(8) 0.1014 Uani
H50 H 0.1144 0.4534 0.4134 0.1230 Uiso
C61 C 0.0092(11) 0.5150(7) 0.4285(4) 0.0490 Uani
C66 C 0.4183(11) 0.9191(9) 0.4183(6) 0.0678 Uani
H54 H 0.3413 0.9069 0.4164 0.0820 Uiso
C67 C 0.4554(11) 0.8464(8) 0.4253(4) 0.0487 Uani
C68 C 0.5694(12) 0.8697(9) 0.4285(5) 0.0635 Uani
H55 H 0.5961 0.8236 0.4341 0.0760 Uiso
C69 C 0.6434(11) 0.9581(9) 0.4237(5) 0.0562 Uani
H56 H 0.7203 0.9704 0.4245 0.0680 Uiso
C70 C 0.3667(12) 0.7477(8) 0.4263(4) 0.0576 Uani
H57 H 0.3886 0.6982 0.4232 0.0690 Uiso
C71 C 0.0960(12) 0.6131(9) 0.4303(5) 0.0577 Uani
H58 H 0.0725 0.6619 0.4324 0.0690 Uiso
S2 S 0.9161(5) 0.3693(6) 0.2780(3) 0.1576 Uani
S6 S 0.8096(4) 0.0768(4) 0.8715(2) 0.1187 Uani
C72 C 0.9349(14) 0.0882(11) 0.8682(5) 0.0702 Uani
S10 S 0.9930(4) 0.9131(3) 0.6640(2) 0.1143 Uani
loop_
_atom_site_aniso_label
_atom_site_aniso_U_11
_atom_site_aniso_U_22
_atom_site_aniso_U_33
_atom_site_aniso_U_23
_atom_site_aniso_U_13
_atom_site_aniso_U_12
N55 0.038 0.026 0.075 0.002 0.017 0.008
C131 0.038 0.052 0.2 -0.032 0.018 0.017
C134 0.041 0.039 0.126 0.004 0.02 0.005
C135 0.045 0.034 0.108 -0.001 0.008 0.004
Co10 0.0386 0.0352 0.0527 0.0019 0.0078 0.0099
N49 0.093 0.065 0.048 -0.005 -0.015 0.034
N50 0.109 0.067 0.063 -0.006 -0.003 0.036
N51 0.06 0.03 0.046 0.003 0.008 0.005
N52 0.048 0.047 0.063 0.008 0.014 0.011
N53 0.037 0.043 0.08 0.011 0.022 0.016
N54 0.042 0.045 0.043 0 0.006 0.022
N56 0.036 0.043 0.062 -0.001 0.017 0.009
S11 0.105 0.143 0.113 0.001 0.014 0.09
C119 0.095 0.053 0.084 -0.008 -0.019 0.031
C120 0.119 0.063 0.037 0.006 0.008 0.052
C121 0.076 0.08 0.046 0.005 -0.01 0.018
C123 0.082 0.077 0.053 0.005 0.002 0.033
C124 0.081 0.077 0.037 -0.015 0.012 0.02
C125 0.058 0.06 0.051 0.011 0.005 0.014
C126 0.082 0.043 0.05 -0.004 -0.005 0.024
C127 0.081 0.039 0.056 -0.005 0.001 0.011
C128 0.064 0.038 0.033 -0.008 -0.01 0.023
C129 0.076 0.048 0.064 0.012 0.019 0.022
C130 0.051 0.037 0.061 -0.009 0 0.005
C136 0.053 0.041 0.048 0.012 0.009 0.018
C137 0.038 0.048 0.083 -0.005 0.001 0.019
S4 0.077 0.095 0.163 -0.04 0.045 0.026
S8 0.077 0.241 0.164 0.014 0.03 0.072
S12 0.085 0.151 0.119 0.009 0.021 0.046
C144 0.074 0.077 0.05 0.011 -0.006 0.023
N11 0.052 0.039 0.06 0.012 0.023 0.019
C15 0.076 0.056 0.07 -0.003 0.003 0.029
C16 0.061 0.035 0.055 0.008 0.019 0.03
C17 0.07 0.047 0.059 0.01 0.012 0.03
C18 0.061 0.039 0.049 -0.004 0.001 0.026
C19 0.067 0.033 0.051 0.005 0.005 0.022
C20 0.066 0.036 0.055 -0.002 0.004 0.015
Co7 0.0571 0.0356 0.0435 0.0088 0.0152 0.0233
Co3 0.074 0.0453 0.0489 0.0059 0.003 0.0277
N1 0.063 0.054 0.07 0.012 0.027 0.022
N2 0.057 0.044 0.066 0.003 0.015 0.023
N3 0.065 0.062 0.044 0.009 0.014 0.038
N4 0.054 0.046 0.045 0.02 0.014 0.027
N5 0.067 0.031 0.066 0.008 0.033 0.026
N6 0.134 0.122 0.063 0.036 0.024 0.049
N7 0.173 0.19 0.057 0.023 -0.033 0.08
N8 0.106 0.053 0.086 -0.004 -0.006 0.034
N9 0.124 0.03 0.117 -0.006 -0.004 0.044
N10 0.123 0.074 0.055 0.009 0.057 0.026
N12 0.077 0.051 0.048 0.011 0.007 0.015
N13 0.078 0.046 0.047 -0.006 -0.015 0.028
N14 0.092 0.062 0.058 0.004 -0.005 0.04
N15 0.085 0.05 0.043 0.003 -0.002 0.038
N17 0.096 0.051 0.059 0.01 0.008 0.023
S1 0.073 0.112 0.154 -0.008 -0.026 0.033
S3 0.157 0.254 0.164 0.069 0.062 0.142
C1 0.072 0.038 0.057 0.002 0.022 0.025
C2 0.078 0.071 0.065 0.015 0.012 0.035
C3 0.085 0.056 0.052 0.01 0.014 0.042
C4 0.096 0.077 0.042 0.007 0.027 0.05
C5 0.101 0.055 0.05 0.004 0.031 0.029
C6 0.121 0.055 0.042 0.009 0.026 0.026
C7 0.13 0.089 0.055 0.025 0.022 0.072
C8 0.113 0.109 0.057 0.024 0.03 0.081
C9 0.074 0.033 0.096 0.021 0.021 0.027
C10 0.068 0.031 0.107 0.023 0.029 0.021
C11 0.075 0.045 0.043 -0.005 -0.008 0.022
C12 0.06 0.036 0.088 0.015 0.021 0.018
C13 0.056 0.043 0.071 0.018 0.024 0.023
C14 0.089 0.029 0.094 0.005 0.007 0.022
C21 0.069 0.041 0.047 0.014 0.02 0.027
C22 0.084 0.07 0.073 0.044 0.04 0.046
C23 0.076 0.09 0.035 0.005 0.011 0.051
C24 0.068 0.076 0.057 0.005 0.016 0.04
C25 0.048 0.055 0.054 0.001 0.011 0.017
C26 0.093 0.116 0.042 0.019 0.009 0.049
C27 0.4 0.099 0.08 0.029 0.16 0.03
C28 0.074 0.085 0.045 0.019 0.008 0.05
C29 0.092 0.087 0.069 0.01 0.024 0.038
C30 0.086 0.076 0.048 0.005 0.004 0.047
C31 0.068 0.071 0.055 0.018 0.009 0.037
C32 0.087 0.112 0.059 0.032 0.01 0.063
C33 0.081 0.105 0.078 0.035 0.01 0.055
C46 0.115 0.057 0.04 0.016 -0.012 0.024
C50 0.085 0.073 0.05 0.016 0.004 0.029
N61 0.084 0.044 0.057 0.015 0.008 0.034
N18 0.146 0.053 0.176 0.003 0.044 0.045
N19 0.32 0.084 0.21 0.028 0.16 0.097
C34 0.101 0.057 0.087 0.015 -0.014 0.037
C35 0.153 0.049 0.116 -0.014 0.005 0.049
C36 0.136 0.058 0.118 0.026 0.018 0.064
C37 0.11 0.041 0.096 -0.002 -0.014 0.043
C38 0.127 0.081 0.059 0 0.006 0.039
C39 0.16 0.076 0.149 0.013 -0.004 0.078
C40 0.12 0.056 0.078 0.022 0.029 0.044
C41 0.146 0.067 0.108 0.016 0.044 0.064
C42 0.083 0.034 0.119 0.008 0.005 0.021
C43 0.103 0.042 0.118 0.041 0.01 0.026
C44 0.093 0.048 0.076 0.003 0.003 0.021
C45 0.107 0.051 0.151 0.028 0.01 0.011
N45 0.084 0.044 0.057 0.015 0.008 0.034
N47 0.146 0.053 0.176 0.003 0.044 0.045
N48 0.32 0.084 0.21 0.028 0.16 0.097
C106 0.101 0.057 0.087 0.015 -0.014 0.037
C107 0.153 0.049 0.116 -0.014 0.005 0.049
C108 0.136 0.058 0.118 0.026 0.018 0.064
C109 0.11 0.041 0.096 -0.002 -0.014 0.043
C110 0.127 0.081 0.059 0 0.006 0.039
C111 0.16 0.076 0.149 0.013 -0.004 0.078
C112 0.12 0.056 0.078 0.022 0.029 0.044
C113 0.146 0.067 0.108 0.016 0.044 0.064
C114 0.083 0.034 0.119 0.008 0.005 0.021
C115 0.103 0.042 0.118 0.041 0.01 0.026
C116 0.093 0.048 0.076 0.003 0.003 0.021
C117 0.107 0.051 0.151 0.028 0.01 0.011
Co12 0.074 0.0453 0.0489 0.0059 0.003 0.0277
N30 0.065 0.062 0.044 0.009 0.014 0.038
N31 0.123 0.074 0.055 0.009 0.057 0.026
C73 0.085 0.056 0.052 0.01 0.014 0.042
C74 0.096 0.077 0.042 0.007 0.027 0.05
C75 0.101 0.055 0.05 0.004 0.031 0.029
C76 0.121 0.055 0.042 0.009 0.026 0.026
C77 0.13 0.089 0.055 0.025 0.022 0.072
C78 0.113 0.109 0.057 0.024 0.03 0.081
Co4 0.0571 0.0356 0.0435 0.0088 0.0152 0.0233
N32 0.063 0.054 0.07 0.012 0.027 0.022
N33 0.057 0.044 0.066 0.003 0.015 0.023
N34 0.054 0.046 0.045 0.02 0.014 0.027
N35 0.067 0.031 0.066 0.008 0.033 0.026
N36 0.134 0.122 0.063 0.036 0.024 0.049
N37 0.173 0.19 0.057 0.023 -0.033 0.08
N38 0.106 0.053 0.086 -0.004 -0.006 0.034
N39 0.124 0.03 0.117 -0.006 -0.004 0.044
N41 0.077 0.051 0.048 0.011 0.007 0.015
N42 0.078 0.046 0.047 -0.006 -0.015 0.028
N43 0.092 0.062 0.058 0.004 -0.005 0.04
N44 0.085 0.05 0.043 0.003 -0.002 0.038
N46 0.096 0.051 0.059 0.01 0.008 0.023
S7 0.073 0.112 0.154 -0.008 -0.026 0.033
S9 0.157 0.254 0.164 0.069 0.062 0.142
C79 0.072 0.038 0.057 0.002 0.022 0.025
C80 0.078 0.071 0.065 0.015 0.012 0.035
C81 0.074 0.033 0.096 0.021 0.021 0.027
C82 0.068 0.031 0.107 0.023 0.029 0.021
C83 0.075 0.045 0.043 -0.005 -0.008 0.022
C84 0.06 0.036 0.088 0.015 0.021 0.018
C85 0.056 0.043 0.071 0.018 0.024 0.023
C86 0.089 0.029 0.094 0.005 0.007 0.022
C93 0.069 0.041 0.047 0.014 0.02 0.027
C94 0.084 0.07 0.073 0.044 0.04 0.046
C95 0.076 0.09 0.035 0.005 0.011 0.051
C96 0.068 0.076 0.057 0.005 0.016 0.04
C97 0.048 0.055 0.054 0.001 0.011 0.017
C98 0.093 0.116 0.042 0.019 0.009 0.049
C99 0.4 0.099 0.08 0.029 0.16 0.03
C100 0.074 0.085 0.045 0.019 0.008 0.05
C101 0.092 0.087 0.069 0.01 0.024 0.038
C102 0.086 0.076 0.048 0.005 0.004 0.047
C103 0.068 0.071 0.055 0.018 0.009 0.037
C104 0.087 0.112 0.059 0.032 0.01 0.063
C105 0.081 0.105 0.078 0.035 0.01 0.055
C118 0.115 0.057 0.04 0.016 -0.012 0.024
C122 0.085 0.073 0.05 0.016 0.004 0.029
N60 0.052 0.039 0.06 0.012 0.023 0.019
C87 0.076 0.056 0.07 -0.003 0.003 0.029
C88 0.061 0.035 0.055 0.008 0.019 0.03
C89 0.07 0.047 0.059 0.01 0.012 0.03
C90 0.061 0.039 0.049 -0.004 0.001 0.026
C91 0.067 0.033 0.051 0.005 0.005 0.022
C92 0.066 0.036 0.055 -0.002 0.004 0.015
N57 0.05 0.02 0.083 0 0.021 0
N58 0.046 0.049 0.075 -0.005 0.017 0.015
C132 0.055 0.042 0.21 -0.006 0.012 0.024
C133 0.073 0.023 0.041 -0.003 0.006 0.01
C138 0.033 0.048 0.1 0.006 -0.005 -0.004
C139 0.051 0.04 0.035 0.006 0 -0.001
C140 0.058 0.037 0.082 0.005 -0.001 0.007
C141 0.052 0.048 0.071 0.009 0.017 0.021
C142 0.078 0.025 0.053 -0.004 0.012 0.004
C143 0.068 0.048 0.059 -0.011 0.006 0.027
Co2 0.0386 0.0352 0.0527 0.0019 0.0078 0.0099
N20 0.093 0.065 0.048 -0.005 -0.015 0.034
N21 0.109 0.067 0.063 -0.006 -0.003 0.036
N22 0.06 0.03 0.046 0.003 0.008 0.005
N23 0.048 0.047 0.063 0.008 0.014 0.011
N24 0.037 0.043 0.08 0.011 0.022 0.016
N25 0.042 0.045 0.043 0 0.006 0.022
N27 0.036 0.043 0.062 -0.001 0.017 0.009
S5 0.105 0.143 0.113 0.001 0.014 0.09
C47 0.095 0.053 0.084 -0.008 -0.019 0.031
C48 0.119 0.063 0.037 0.006 0.008 0.052
C49 0.076 0.08 0.046 0.005 -0.01 0.018
C51 0.082 0.077 0.053 0.005 0.002 0.033
C52 0.081 0.077 0.037 -0.015 0.012 0.02
C53 0.058 0.06 0.051 0.011 0.005 0.014
C54 0.082 0.043 0.05 -0.004 -0.005 0.024
C55 0.081 0.039 0.056 -0.005 0.001 0.011
C56 0.064 0.038 0.033 -0.008 -0.01 0.023
C57 0.076 0.048 0.064 0.012 0.019 0.022
C58 0.051 0.037 0.061 -0.009 0 0.005
C64 0.053 0.041 0.048 0.012 0.009 0.018
C65 0.038 0.048 0.083 -0.005 0.001 0.019
N63 0.038 0.026 0.075 0.002 0.017 0.008
C59 0.038 0.052 0.2 -0.032 0.018 0.017
C62 0.041 0.039 0.126 0.004 0.02 0.005
C63 0.045 0.034 0.108 -0.001 0.008 0.004
N28 0.05 0.02 0.083 0 0.021 0
N29 0.046 0.049 0.075 -0.005 0.017 0.015
C60 0.055 0.042 0.21 -0.006 0.012 0.024
C61 0.073 0.023 0.041 -0.003 0.006 0.01
C66 0.033 0.048 0.1 0.006 -0.005 -0.004
C67 0.051 0.04 0.035 0.006 0 -0.001
C68 0.058 0.037 0.082 0.005 -0.001 0.007
C69 0.052 0.048 0.071 0.009 0.017 0.021
C70 0.078 0.025 0.053 -0.004 0.012 0.004
C71 0.068 0.048 0.059 -0.011 0.006 0.027
S2 0.077 0.241 0.164 0.014 0.03 0.072
S6 0.085 0.151 0.119 0.009 0.021 0.046
C72 0.074 0.077 0.05 0.011 -0.006 0.023
S10 0.077 0.095 0.163 -0.04 0.045 0.026
loop_
_geom_bond_atom_site_label_1
_geom_bond_atom_site_label_2
_geom_bond_site_symmetry_1
_geom_bond_site_symmetry_2
N55 C131 1_555 1_555
C131 H107 1_555 1_555
H109 C134 1_555 1_555
C135 N55 1_555 1_555
H110 C135 1_555 1_555
Co10 N55 1_555 1_555
C134 C135 1_555 1_555
Co10 N51 1_555 1_555
N49 N50 1_555 1_555
N50 C124 1_555 1_555
N51 C127 1_555 1_555
N52 Co10 1_555 1_555
N53 Co10 1_555 1_555
N54 Co10 1_555 1_555
H64 N54 1_555 1_555
H65 N54 1_555 1_555
H66 N54 1_555 1_555
N56 Co10 1_555 1_555
S11 C136 1_555 1_555
H98 C119 1_555 1_555
C120 C119 1_555 1_555
C121 C120 1_555 1_555
H99 C121 1_555 1_555
C123 N49 1_555 1_555
H101 C123 1_555 1_555
C124 H102 1_555 1_555
C125 C124 1_555 1_555
C126 C125 1_555 1_555
H103 C126 1_555 1_555
C127 C126 1_555 1_555
H104 C127 1_555 1_555
C128 N51 1_555 1_555
H105 C128 1_555 1_555
C129 C125 1_555 1_555
H106 C129 1_555 1_555
C130 N53 1_555 1_555
C136 N56 1_555 1_555
C137 N52 1_555 1_555
H111 C137 1_555 1_555
C120 C123 1_555 1_555
C128 C129 1_555 1_555
S12 C144 1_555 1_555
N11 C18 1_555 1_555
C16 C15 1_555 1_555
C17 C16 1_555 1_555
H15 C17 1_555 1_555
C18 C17 1_555 1_555
H16 C18 1_555 1_555
C19 N11 1_555 1_555
H17 C19 1_555 1_555
C20 C16 1_555 1_555
H18 C20 1_555 1_555
Co7 N11 1_555 1_555
C19 C20 1_555 1_555
Co7 N1 1_555 1_555
Co3 N12 1_555 1_555
N1 C1 1_555 1_555
N2 Co7 1_555 1_555
N3 Co7 1_555 1_555
N4 Co7 1_555 1_555
N5 Co7 1_555 1_555
N6 N7 1_555 1_555
N7 C27 1_555 1_555
N8 N9 1_555 1_555
N10 C6 1_555 1_555
N12 C30 1_555 1_555
N13 Co3 1_555 1_555
N14 Co3 1_555 1_555
N15 Co3 1_555 1_555
N17 Co3 1_555 1_555
S1 C1 1_555 1_555
S3 C33 1_555 1_555
C2 N2 1_555 1_555
C3 N3 1_555 1_555
H4 C3 1_555 1_555
C4 C3 1_555 1_555
H5 C4 1_555 1_555
C5 C4 1_555 1_555
C6 C5 1_555 1_555
H6 C6 1_555 1_555
C7 C5 1_555 1_555
H7 C7 1_555 1_555
C8 N3 1_555 1_555
H8 C8 1_555 1_555
C9 N4 1_555 1_555
H9 C9 1_555 1_555
C10 C9 1_555 1_555
H10 C10 1_555 1_555
C11 C10 1_555 1_555
C12 C11 1_555 1_555
H11 C12 1_555 1_555
C13 N4 1_555 1_555
H12 C13 1_555 1_555
C14 N8 1_555 1_555
H13 C14 1_555 1_555
C21 N5 1_555 1_555
H19 C21 1_555 1_555
C22 C21 1_555 1_555
H20 C22 1_555 1_555
C23 C22 1_555 1_555
C24 C23 1_555 1_555
H21 C24 1_555 1_555
C25 N5 1_555 1_555
H22 C25 1_555 1_555
C26 N6 1_555 1_555
H23 C26 1_555 1_555
C27 H24 1_555 1_555
C28 C27 1_555 1_555
C29 C28 1_555 1_555
H25 C29 1_555 1_555
C30 C29 1_555 1_555
H26 C30 1_555 1_555
C31 N12 1_555 1_555
H27 C31 1_555 1_555
C32 C28 1_555 1_555
H28 C32 1_555 1_555
C33 N14 1_555 1_555
C46 N15 1_555 1_555
H39 C46 1_555 1_555
C50 N15 1_555 1_555
H42 C50 1_555 1_555
N61 Co3 1_555 1_555
C7 C8 1_555 1_555
C11 C14 1_555 1_555
C12 C13 1_555 1_555
C23 C26 1_555 1_555
C24 C25 1_555 1_555
C31 C32 1_555 1_555
N61 C40 1_555 1_555
N18 N19 1_555 1_555
N19 C45 1_555 1_555
H29 C34 1_555 1_555
C35 C34 1_555 1_555
H30 C35 1_555 1_555
C36 C35 1_555 1_555
C37 C36 1_555 1_555
H31 C37 1_555 1_555
C39 N18 1_555 1_555
H33 C39 1_555 1_555
C40 H34 1_555 1_555
C41 C40 1_555 1_555
H35 C41 1_555 1_555
C42 C41 1_555 1_555
C43 C42 1_555 1_555
H36 C43 1_555 1_555
C44 N61 1_555 1_555
H37 C44 1_555 1_555
C45 C42 1_555 1_555
H38 C45 1_555 1_555
C36 C39 1_555 1_555
C37 C38 1_555 1_555
C43 C44 1_555 1_555
N45 C112 1_555 1_555
N47 N48 1_555 1_555
N48 C117 1_555 1_555
H87 C106 1_555 1_555
C107 C106 1_555 1_555
H88 C107 1_555 1_555
C108 C107 1_555 1_555
C109 C108 1_555 1_555
H89 C109 1_555 1_555
C111 N47 1_555 1_555
H91 C111 1_555 1_555
C112 H92 1_555 1_555
C113 C112 1_555 1_555
H93 C113 1_555 1_555
C114 C113 1_555 1_555
C115 C114 1_555 1_555
H94 C115 1_555 1_555
C116 N45 1_555 1_555
H95 C116 1_555 1_555
C117 C114 1_555 1_555
H96 C117 1_555 1_555
Co12 N45 1_555 1_555
C108 C111 1_555 1_555
C109 C110 1_555 1_555
C115 C116 1_555 1_555
N30 C73 1_555 1_555
C73 H59 1_555 1_555
C74 C73 1_555 1_555
H60 C74 1_555 1_555
C75 C74 1_555 1_555
C76 N31 1_555 1_555
H61 C76 1_555 1_555
C77 C75 1_555 1_555
H62 C77 1_555 1_555
C78 N30 1_555 1_555
H63 C78 1_555 1_555
Co4 N30 1_555 1_555
Co12 N41 1_555 1_555
N32 Co4 1_555 1_555
N33 Co4 1_555 1_555
N34 Co4 1_555 1_555
N35 Co4 1_555 1_555
N36 N37 1_555 1_555
N37 C99 1_555 1_555
N38 N39 1_555 1_555
N41 C102 1_555 1_555
N42 Co12 1_555 1_555
N43 Co12 1_555 1_555
N44 Co12 1_555 1_555
N46 Co12 1_555 1_555
S7 C79 1_555 1_555
S9 C105 1_555 1_555
C79 N32 1_555 1_555
C80 N33 1_555 1_555
C81 N34 1_555 1_555
H67 C81 1_555 1_555
C82 C81 1_555 1_555
H68 C82 1_555 1_555
C83 C82 1_555 1_555
C84 C83 1_555 1_555
H69 C84 1_555 1_555
C85 N34 1_555 1_555
H70 C85 1_555 1_555
C86 N38 1_555 1_555
H71 C86 1_555 1_555
C93 N35 1_555 1_555
H77 C93 1_555 1_555
C94 C93 1_555 1_555
H78 C94 1_555 1_555
C95 C94 1_555 1_555
C96 C95 1_555 1_555
H79 C96 1_555 1_555
C97 N35 1_555 1_555
H80 C97 1_555 1_555
C98 N36 1_555 1_555
H81 C98 1_555 1_555
C99 H82 1_555 1_555
C100 C99 1_555 1_555
C101 C100 1_555 1_555
H83 C101 1_555 1_555
C102 C101 1_555 1_555
H84 C102 1_555 1_555
C103 N41 1_555 1_555
H85 C103 1_555 1_555
C104 C100 1_555 1_555
H86 C104 1_555 1_555
C105 N43 1_555 1_555
C118 N44 1_555 1_555
H97 C118 1_555 1_555
C122 N44 1_555 1_555
H100 C122 1_555 1_555
N60 Co4 1_555 1_555
C75 C76 1_555 1_555
C77 C78 1_555 1_555
C83 C86 1_555 1_555
C84 C85 1_555 1_555
C95 C98 1_555 1_555
C96 C97 1_555 1_555
C103 C104 1_555 1_555
N60 C90 1_555 1_555
C88 C87 1_555 1_555
C89 C88 1_555 1_555
H73 C89 1_555 1_555
C90 C89 1_555 1_555
H74 C90 1_555 1_555
C91 N60 1_555 1_555
H75 C91 1_555 1_555
C92 C88 1_555 1_555
H76 C92 1_555 1_555
C91 C92 1_555 1_555
N57 N58 1_555 1_555
N58 C143 1_555 1_555
H108 C132 1_555 1_555
C133 C132 1_555 1_555
H112 C138 1_555 1_555
C139 C138 1_555 1_555
C140 C139 1_555 1_555
H113 C140 1_555 1_555
H114 C141 1_555 1_555
C142 N57 1_555 1_555
H115 C142 1_555 1_555
C143 C133 1_555 1_555
H116 C143 1_555 1_555
C139 C142 1_555 1_555
C140 C141 1_555 1_555
Co2 N22 1_555 1_555
N20 N21 1_555 1_555
N21 C52 1_555 1_555
N22 C55 1_555 1_555
N23 Co2 1_555 1_555
N24 Co2 1_555 1_555
N25 Co2 1_555 1_555
H1 N25 1_555 1_555
H2 N25 1_555 1_555
H3 N25 1_555 1_555
N27 Co2 1_555 1_555
S5 C64 1_555 1_555
H40 C47 1_555 1_555
C48 C47 1_555 1_555
C49 C48 1_555 1_555
H41 C49 1_555 1_555
C51 N20 1_555 1_555
H43 C51 1_555 1_555
C52 H44 1_555 1_555
C53 C52 1_555 1_555
C54 C53 1_555 1_555
H45 C54 1_555 1_555
C55 C54 1_555 1_555
H46 C55 1_555 1_555
C56 N22 1_555 1_555
H47 C56 1_555 1_555
C57 C53 1_555 1_555
H48 C57 1_555 1_555
C58 N24 1_555 1_555
C64 N27 1_555 1_555
C65 N23 1_555 1_555
H53 C65 1_555 1_555
N63 Co2 1_555 1_555
C48 C51 1_555 1_555
C56 C57 1_555 1_555
N63 C59 1_555 1_555
C59 H49 1_555 1_555
H51 C62 1_555 1_555
C63 N63 1_555 1_555
H52 C63 1_555 1_555
C62 C63 1_555 1_555
N28 N29 1_555 1_555
N29 C71 1_555 1_555
H50 C60 1_555 1_555
C61 C60 1_555 1_555
H54 C66 1_555 1_555
C67 C66 1_555 1_555
C68 C67 1_555 1_555
H55 C68 1_555 1_555
H56 C69 1_555 1_555
C70 N28 1_555 1_555
H57 C70 1_555 1_555
C71 C61 1_555 1_555
H58 C71 1_555 1_555
C67 C70 1_555 1_555
C68 C69 1_555 1_555
S6 C72 1_555 1_555

#END
