
###############################################################################
#
# This file contains modified crystal structure data generated from the
# MOF subset of the Cambridge Structural Database (CSD) v543 
# hosted by the Cambridge Crystallographic Data Centre (CCDC).
#
# This work is licensed under the Creative Commons
# Attribution-NonCommercial-ShareAlike 4.0 International License.
# To view a copy of this license, visit
# http://creativecommons.org/licenses/by-nc-sa/4.0/
# or send a letter to
# Creative Commons, PO Box 1866, Mountain View, CA 94042, USA.
#
# CIF created using the CSD Python API on 29 September 2022
# The structure has been converted into the P1 space group
# The structure has a 3D framework
# The original CSD entry GOLYOX is in the triclinic crystal system
# The framework has been calculated to contain at least 10.0% void space
# The void calculation uses a probe of radius 1.32A, grid spacing 0.4
#
###############################################################################

data_GOLYOX
_chemical_formula_moiety         '(C148 H96 N8 Ni6 O40 S6)n'
_symmetry_cell_setting           triclinic
_symmetry_space_group_name_H-M   'P 1'
_symmetry_Int_Tables_number      1
_space_group_name_Hall           'P 1'
loop_
_symmetry_equiv_pos_site_id
_symmetry_equiv_pos_as_xyz
1 x,y,z
_cell_length_a                   14.0905(15)
_cell_length_b                   14.6762(17)
_cell_length_c                   21.5858(14)
_cell_angle_alpha                89.937(2)
_cell_angle_beta                 85.402(3)
_cell_angle_gamma                61.994(2)
_cell_volume                     3925.04
loop_
_atom_site_label
_atom_site_type_symbol
_atom_site_fract_x
_atom_site_fract_y
_atom_site_fract_z
H33 H 0.0204 0.8218 0.2747
C54 C 0.1185(3) 0.6498(3) 0.40174(16)
C55 C 0.0929(3) 0.6211(3) 0.45809(17)
H35 H 0.0500 0.5885 0.4622
C56 C 0.1339(3) 0.6428(3) 0.50882(17)
H36 H 0.1126 0.6286 0.5480
C57 C 0.2016(3) 0.6827(3) 0.50563(16)
C58 C 0.2320(3) 0.7071(3) 0.44652(16)
H37 H 0.2798 0.7343 0.4425
C59 C 0.1898(3) 0.6902(3) 0.39448(18)
H38 H 0.2091 0.7058 0.3552
C60 C 0.2478(3) 0.7029(3) 0.56220(16)
O10 O 0.0069(2) 0.57523(19) 0.35085(12)
O11 O 0.1247(2) 0.6261(2) 0.28055(11)
O12 O 0.2058(2) 0.6946(2) 0.61281(12)
O13 O 0.32286(19) 0.72475(18) 0.55333(11)
S2 S 0.05218(7) 0.64455(7) 0.33661(4)
Ni11 Ni 0.43163(4) 0.72880(3) 0.61099(2)
C65 C 0.8510(3) 0.4574(3) 0.98033(16)
C66 C 0.8578(3) 0.3680(3) 0.95344(18)
H41 H 0.8791 0.3514 0.9113
C67 C 0.8321(3) 0.3047(3) 0.99058(17)
H42 H 0.8357 0.2452 0.9731
C68 C 0.7506(3) 0.6204(3) 0.90709(16)
C69 C 0.6844(3) 0.7071(3) 0.94249(18)
H43 H 0.7079 0.7241 0.9776
C70 C 0.5802(3) 0.7703(3) 0.92544(16)
H44 H 0.5349 0.8303 0.9491
C71 C 0.5442(3) 0.7450(3) 0.87441(16)
C72 C 0.6132(3) 0.6565(3) 0.83773(16)
H45 H 0.5901 0.6405 0.8021
C73 C 0.7162(3) 0.5924(3) 0.85474(16)
H46 H 0.7617 0.5317 0.8317
C74 C 0.4301(3) 0.8126(3) 0.85781(16)
O16 O 0.90566(19) 0.60375(19) 0.97010(11)
O17 O 0.95016(19) 0.48152(19) 0.87952(11)
O18 O 0.37289(19) 0.88368(17) 0.89888(11)
O19 O 0.40129(19) 0.79341(19) 0.80691(11)
S3 S 0.87906(7) 0.54160(7) 0.93225(4)
Ni7 Ni 0.21228(4) 0.95469(3) 0.90203(2)
Ni9 Ni 0.27628(4) 0.78524(3) 0.77149(2)
H7 H 0.3568 0.9965 0.8020
C48 C 0.7859(3) 0.9758(3) 0.34712(16)
C49 C 0.7744(3) 0.9033(3) 0.38355(17)
H31 H 0.7131 0.9235 0.4111
C50 C 0.8541(3) 0.8000(3) 0.37916(17)
H32 H 0.8459 0.7513 0.4034
C51 C 0.9460(3) 0.7706(3) 0.33821(16)
C52 C 0.9586(3) 0.8422(3) 0.30185(17)
C53 C 0.8784(3) 0.9452(3) 0.30586(16)
H34 H 0.8865 0.9935 0.2811
N5 N 0.7794(2) 0.9221(2) 0.14837(13)
N7 N 0.8040(2) 0.9763(2) 0.00978(13)
O22 O 0.95048(19) 0.97531(18) 0.10642(11)
C18 C 0.9775(3) 0.7220(3) 0.82363(15)
C19 C 0.8699(3) 0.7889(2) 0.84189(15)
C20 C 0.7885(3) 0.7930(2) 0.80811(14)
H13 H 0.7168 0.8398 0.8199
C21 C 0.8152(3) 0.7264(3) 0.75646(16)
C22 C 0.9232(3) 0.6588(3) 0.73767(16)
H14 H 0.9410 0.6152 0.7026
C23 C 0.5532(3) 0.8162(3) 0.68715(16)
H15 H 0.4895 0.8778 0.6859
C24 C 0.6321(2) 0.8184(3) 0.71703(16)
H16 H 0.6212 0.8801 0.7356
C25 C 0.7290(3) 0.7303(3) 0.72052(15)
C26 C 0.7353(3) 0.6417(3) 0.69368(15)
H17 H 0.7968 0.5788 0.6966
C27 C 0.6523(3) 0.6453(3) 0.66296(16)
H18 H 0.6612 0.5846 0.6440
C28 C 0.9043(3) 0.9219(3) 0.98080(16)
H19 H 0.9620 0.9224 0.9988
C29 C 0.9236(3) 0.8689(3) 0.92874(17)
H20 H 0.9937 0.8376 0.9096
C30 C 0.8443(3) 0.8565(3) 0.90010(14)
C31 C 0.7406(3) 0.9190(3) 0.92655(17)
H21 H 0.6813 0.9225 0.9084
C32 C 0.7265(3) 0.9764(3) 0.98089(17)
N3 N 0.5589(2) 0.7316(2) 0.65875(13)
H22 H 0.3439 0.9818 0.0021
C46 C 0.0483(3) 0.9880(3) 0.84103(16)
O6 O 0.13537(18) 0.92614(18) 0.81024(11)
C1 C 0.7787(3) 0.6760(3) 0.25577(17)
C2 C 0.8401(3) 0.5735(3) 0.23541(17)
H1 H 0.8827 0.5572 0.1977
C3 C 0.8386(3) 0.4964(3) 0.27033(16)
C4 C 0.7792(3) 0.5155(3) 0.32708(15)
H2 H 0.7806 0.4613 0.3500
C5 C 0.7179(3) 0.6157(3) 0.34924(15)
C6 C 0.7185(3) 0.6967(3) 0.31277(15)
H3 H 0.6776 0.7648 0.3276
C7 C 0.8609(3) 0.8261(3) 0.14148(16)
H4 H 0.9196 0.8132 0.1133
C8 C 0.8618(3) 0.7436(3) 0.17501(17)
H5 H 0.9190 0.6773 0.1676
C9 C 0.7777(3) 0.7611(3) 0.21891(15)
C10 C 0.6949(3) 0.8598(3) 0.22627(16)
H6 H 0.6356 0.8751 0.2547
C11 C 0.6998(3) 0.9368(3) 0.19112(17)
C12 C 0.5662(3) 0.7488(3) 0.50229(17)
H8 H 0.5496 0.8097 0.5242
C13 C 0.6220(3) 0.7308(3) 0.44509(16)
H9 H 0.6378 0.7814 0.4288
C14 C 0.6551(3) 0.6416(3) 0.41142(16)
C15 C 0.6247(3) 0.5737(3) 0.43847(16)
H10 H 0.6394 0.5134 0.4165
C16 C 0.5724(3) 0.5932(3) 0.49803(15)
H11 H 0.5634 0.5410 0.5176
C17 C 0.9964(3) 0.3432(3) 0.22850(16)
H12 H 0.9684 0.2791 0.1539
C33 C 0.4445(3) 0.5710(3) 0.69667(17)
C34 C 0.4828(3) 0.4611(3) 0.71389(15)
C35 C 0.5500(3) 0.3817(3) 0.66997(16)
H23 H 0.5715 0.3969 0.6312
C36 C 0.5832(3) 0.2808(3) 0.68573(17)
H24 H 0.6260 0.2273 0.6568
C37 C 0.5542(3) 0.2585(3) 0.74284(18)
C38 C 0.4859(3) 0.3366(3) 0.78699(18)
H25 H 0.4658 0.3206 0.8259
C39 C 0.4490(3) 0.4391(3) 0.77080(16)
H26 H 0.4014 0.4925 0.7985
C40 C 0.7347(3) 0.0904(3) 0.78235(18)
C41 C 0.8236(3) 0.0136(3) 0.74684(17)
C43 C 0.9408(3) 0.0242(3) 0.81834(17)
C44 C 0.8521(3) 0.1004(3) 0.85361(17)
H29 H 0.8618 0.1290 0.8894
C45 C 0.7485(3) 0.1341(3) 0.83543(16)
H30 H 0.6891 0.1857 0.8588
C47 C 0.2955(3) 0.9144(3) 0.64575(16)
C61 C 0.2195(3) 0.7436(3) 0.90585(16)
C62 C 0.1986(3) 0.6717(3) 0.94721(16)
C63 C 0.2003(3) 0.5822(3) 0.92049(17)
H39 H 0.2200 0.5660 0.8782
C64 C 0.1732(3) 0.5202(3) 0.95668(16)
H40 H 0.1710 0.4635 0.9390
N2 N 0.5343(2) 0.6858(2) 0.52836(13)
O1 O 0.88853(19) 0.39523(18) 0.24748(11)
O2 O 0.46885(19) 0.58868(18) 0.64293(11)
O3 O 0.39177(19) 0.63850(18) 0.73937(11)
O4 O 0.6107(2) 0.06875(19) 0.70731(12)
O5 O 0.5416(2) 0.12286(19) 0.81730(12)
O8 O 0.3622(2) 0.88721(19) 0.60062(11)
O9 O 0.30555(18) 0.84557(18) 0.68257(10)
O14 O 0.2454(2) 0.71648(19) 0.84913(11)
O15 O 0.21275(19) 0.82191(18) 0.93132(11)
O20 O 0.16760(19) 0.76126(19) 0.72692(11)
H47 H 0.1859 0.6895 0.7274
H48 H 0.1688 0.7814 0.6846
S1 S 0.60264(7) 0.12772(7) 0.76270(4)
H27 H 0.1860 0.0152 0.2890
C42 C 0.0738(3) 0.0194(3) 0.23462(16)
H28 H 0.0144 0.0711 0.2578
C1_2 C 0.2213(3) 0.3240(3) 0.74423(17)
C2_2 C 0.1599(3) 0.4265(3) 0.76459(17)
H1_2 H 0.1173 0.4428 0.8023
C3_2 C 0.1614(3) 0.5036(3) 0.72967(16)
C4_2 C 0.2208(3) 0.4845(3) 0.67292(15)
H2_2 H 0.2194 0.5387 0.6500
C5_2 C 0.2821(3) 0.3843(3) 0.65076(15)
C6_2 C 0.2815(3) 0.3033(3) 0.68723(15)
H3_2 H 0.3224 0.2352 0.6724
C7_2 C 0.1391(3) 0.1739(3) 0.85852(16)
H4_2 H 0.0804 0.1868 0.8867
C8_2 C 0.1382(3) 0.2564(3) 0.82499(17)
H5_2 H 0.0810 0.3227 0.8324
C9_2 C 0.2223(3) 0.2389(3) 0.78109(15)
C10_2 C 0.3051(3) 0.1402(3) 0.77373(16)
H6_2 H 0.3644 0.1249 0.7453
C11_2 C 0.3002(3) 0.0632(3) 0.80888(17)
C12_2 C 0.4338(3) 0.2512(3) 0.49771(17)
H8_2 H 0.4504 0.1903 0.4758
C13_2 C 0.3780(3) 0.2692(3) 0.55491(16)
H9_2 H 0.3622 0.2186 0.5712
C14_2 C 0.3449(3) 0.3584(3) 0.58858(16)
C15_2 C 0.3753(3) 0.4263(3) 0.56153(16)
H10_2 H 0.3606 0.4866 0.5835
C16_2 C 0.4276(3) 0.4068(3) 0.50197(15)
H11_2 H 0.4366 0.4590 0.4824
C17_2 C 0.0036(3) 0.6568(3) 0.77150(16)
H12_2 H 0.0316 0.7209 0.8461
C33_2 C 0.5555(3) 0.4290(3) 0.30333(17)
C34_2 C 0.5172(3) 0.5389(3) 0.28611(15)
C35_2 C 0.4500(3) 0.6183(3) 0.33003(16)
H23_2 H 0.4285 0.6031 0.3688
C36_2 C 0.4168(3) 0.7192(3) 0.31427(17)
H24_2 H 0.3740 0.7727 0.3432
C37_2 C 0.4458(3) 0.7415(3) 0.25716(18)
C38_2 C 0.5141(3) 0.6634(3) 0.21301(18)
H25_2 H 0.5342 0.6794 0.1741
C39_2 C 0.5510(3) 0.5609(3) 0.22920(16)
H26_2 H 0.5986 0.5075 0.2015
C40_2 C 0.2653(3) 0.9096(3) 0.21765(18)
C41_2 C 0.1764(3) 0.9864(3) 0.25316(17)
C43_2 C 0.0592(3) 0.9758(3) 0.18166(17)
C44_2 C 0.1479(3) 0.8996(3) 0.14639(17)
H29_2 H 0.1382 0.8710 0.1106
C45_2 C 0.2515(3) 0.8659(3) 0.16457(16)
H30_2 H 0.3109 0.8143 0.1412
C47_2 C 0.7045(3) 0.0856(3) 0.35425(16)
C61_2 C 0.7805(3) 0.2564(3) 0.09415(16)
C62_2 C 0.8014(3) 0.3283(3) 0.05279(16)
C63_2 C 0.7997(3) 0.4178(3) 0.07951(17)
H39_2 H 0.7800 0.4340 0.1218
C64_2 C 0.8268(3) 0.4798(3) 0.04332(16)
H40_2 H 0.8290 0.5365 0.0610
N1 N 0.2206(2) 0.0779(2) 0.85163(13)
N2_2 N 0.4657(2) 0.3142(2) 0.47164(13)
Ni1 Ni 0.78772(4) 0.04531(3) 0.09797(2)
Ni2 Ni 0.72372(4) 0.21476(3) 0.22851(2)
O1_2 O 0.11147(19) 0.60477(18) 0.75252(11)
O2_2 O 0.53115(19) 0.41132(18) 0.35707(11)
O3_2 O 0.60823(19) 0.36150(18) 0.26063(11)
O4_2 O 0.3893(2) 0.93125(19) 0.29269(12)
O5_2 O 0.4584(2) 0.87714(19) 0.18270(12)
O8_2 O 0.6378(2) 0.11279(19) 0.39938(11)
O9_2 O 0.69445(18) 0.15443(18) 0.31743(10)
Ni3 Ni 0.56837(4) 0.27120(3) 0.38901(2)
O14_2 O 0.7546(2) 0.28352(19) 0.15087(11)
O15_2 O 0.78725(19) 0.17809(18) 0.06868(11)
O20_2 O 0.83240(19) 0.23874(19) 0.27308(11)
H47_2 H 0.8141 0.3105 0.2726
H48_2 H 0.8312 0.2186 0.3154
S1_2 S 0.39736(7) 0.87228(7) 0.23730(4)
N6 N 0.4411(2) 0.2684(2) 0.34125(13)
O21 O 0.86463(18) 0.07386(18) 0.18976(11)
O23 O 0.67714(19) 0.27525(18) 0.44667(11)
O24 O 0.62711(19) 0.11632(17) 0.10112(11)
O25 O 0.59871(19) 0.20659(19) 0.19309(11)
H22_2 H 0.6561 0.0182 0.9979
C46_2 C 0.9517(3) 0.0120(3) 0.15897(16)
C18_2 C 0.0225(3) 0.2780(3) 0.17637(15)
C19_2 C 0.1301(3) 0.2111(2) 0.15811(15)
C20_2 C 0.2115(3) 0.2070(2) 0.19189(14)
H13_2 H 0.2832 0.1602 0.1801
C21_2 C 0.1848(3) 0.2736(3) 0.24354(16)
C22_2 C 0.0768(3) 0.3412(3) 0.26233(16)
H14_2 H 0.0590 0.3848 0.2974
C23_2 C 0.4468(3) 0.1838(3) 0.31285(16)
H15_2 H 0.5105 0.1222 0.3141
C24_2 C 0.3679(2) 0.1816(3) 0.28297(16)
H16_2 H 0.3788 0.1199 0.2644
C25_2 C 0.2710(3) 0.2697(3) 0.27948(15)
C26_2 C 0.2647(3) 0.3583(3) 0.30632(15)
H17_2 H 0.2032 0.4212 0.3034
C27_2 C 0.3477(3) 0.3547(3) 0.33704(16)
H18_2 H 0.3388 0.4154 0.3560
C28_2 C 0.0957(3) 0.0781(3) 0.01920(16)
H19_2 H 0.0380 0.0776 0.0012
C29_2 C 0.0764(3) 0.1311(3) 0.07126(17)
H20_2 H 0.0063 0.1624 0.0904
C30_2 C 0.1557(3) 0.1435(3) 0.09990(14)
C31_2 C 0.2594(3) 0.0810(3) 0.07345(17)
H21_2 H 0.3187 0.0775 0.0916
C32_2 C 0.2735(3) 0.0236(3) 0.01911(17)
O7 O 0.04952(19) 0.02469(18) 0.89358(11)
N4 N 0.1960(2) 0.0237(2) 0.99022(13)
H7_2 H 0.6432 0.0035 0.1980
C48_2 C 0.2141(3) 0.0242(3) 0.65288(16)
C49_2 C 0.2256(3) 0.0967(3) 0.61645(17)
H31_2 H 0.2869 0.0765 0.5889
C50_2 C 0.1459(3) 0.2000(3) 0.62084(17)
H32_2 H 0.1541 0.2487 0.5966
C51_2 C 0.0540(3) 0.2294(3) 0.66179(16)
C52_2 C 0.0414(3) 0.1578(3) 0.69815(17)
C53_2 C 0.1216(3) 0.0548(3) 0.69414(16)
H34_2 H 0.1135 0.0065 0.7189
C65_2 C 0.1490(3) 0.5426(3) 0.01967(16)
C66_2 C 0.1422(3) 0.6320(3) 0.04656(18)
H41_2 H 0.1209 0.6486 0.0887
C67_2 C 0.1679(3) 0.6953(3) 0.00942(17)
H42_2 H 0.1643 0.7548 0.0269
C68_2 C 0.2494(3) 0.3796(3) 0.09291(16)
C69_2 C 0.3156(3) 0.2929(3) 0.05751(18)
H43_2 H 0.2921 0.2759 0.0224
C70_2 C 0.4198(3) 0.2297(3) 0.07456(16)
H44_2 H 0.4651 0.1697 0.0509
C71_2 C 0.4558(3) 0.2550(3) 0.12559(16)
C72_2 C 0.3868(3) 0.3435(3) 0.16227(16)
H45_2 H 0.4099 0.3595 0.1979
C73_2 C 0.2838(3) 0.4076(3) 0.14526(16)
H46_2 H 0.2383 0.4683 0.1683
C74_2 C 0.5699(3) 0.1874(3) 0.14219(16)
O16_2 O 0.09434(19) 0.39625(19) 0.02990(11)
O17_2 O 0.04984(19) 0.51848(19) 0.12048(11)
S3_2 S 0.12094(7) 0.45840(7) 0.06775(4)
H33_2 H 0.9796 0.1782 0.7253
C54_2 C 0.8815(3) 0.3502(3) 0.59826(16)
C55_2 C 0.9071(3) 0.3789(3) 0.54191(17)
H35_2 H 0.9500 0.4115 0.5378
C56_2 C 0.8661(3) 0.3572(3) 0.49118(17)
H36_2 H 0.8874 0.3714 0.4520
C57_2 C 0.7984(3) 0.3173(3) 0.49437(16)
C58_2 C 0.7680(3) 0.2929(3) 0.55348(16)
H37_2 H 0.7202 0.2657 0.5575
C59_2 C 0.8102(3) 0.3098(3) 0.60552(18)
H38_2 H 0.7909 0.2942 0.6448
C60_2 C 0.7522(3) 0.2971(3) 0.43780(16)
O10_2 O 0.9931(2) 0.42477(19) 0.64915(12)
O11_2 O 0.8753(2) 0.3739(2) 0.71945(11)
O12_2 O 0.7942(2) 0.3054(2) 0.38719(12)
S2_2 S 0.94782(7) 0.35545(7) 0.66339(4)
H27_2 H 0.8140 0.9848 0.7110
C42_2 C 0.9262(3) 0.9806(3) 0.76538(16)
H28_2 H 0.9856 0.9289 0.7422
loop_
_geom_bond_atom_site_label_1
_geom_bond_atom_site_label_2
_geom_bond_site_symmetry_1
_geom_bond_site_symmetry_2
C54 C55 1_555 1_555
C55 H35 1_555 1_555
C56 C55 1_555 1_555
H36 C56 1_555 1_555
C57 C56 1_555 1_555
C58 C57 1_555 1_555
H37 C58 1_555 1_555
C59 C54 1_555 1_555
H38 C59 1_555 1_555
C60 C57 1_555 1_555
O10 S2 1_555 1_555
O11 S2 1_555 1_555
O12 C60 1_555 1_555
O13 C60 1_555 1_555
Ni11 O13 1_555 1_555
C54 S2 1_555 1_555
C58 C59 1_555 1_555
C66 C65 1_555 1_555
H41 C66 1_555 1_555
H42 C67 1_555 1_555
C68 C69 1_555 1_555
C69 H43 1_555 1_555
C70 C69 1_555 1_555
H44 C70 1_555 1_555
C71 C70 1_555 1_555
C72 C71 1_555 1_555
H45 C72 1_555 1_555
C73 C68 1_555 1_555
H46 C73 1_555 1_555
C74 C71 1_555 1_555
O16 S3 1_555 1_555
O17 S3 1_555 1_555
O18 C74 1_555 1_555
O19 C74 1_555 1_555
S3 C65 1_555 1_555
Ni7 O18 1_555 1_555
Ni9 O19 1_555 1_555
C66 C67 1_555 1_555
C68 S3 1_555 1_555
C72 C73 1_555 1_555
C48 C49 1_555 1_555
C49 H31 1_555 1_555
C50 C49 1_555 1_555
H32 C50 1_555 1_555
C51 C50 1_555 1_555
C52 C51 1_555 1_555
C53 C48 1_555 1_555
H34 C53 1_555 1_555
C52 C53 1_555 1_555
C19 C18 1_555 1_555
C20 C19 1_555 1_555
H13 C20 1_555 1_555
C21 C20 1_555 1_555
H14 C22 1_555 1_555
C23 H15 1_555 1_555
C24 C23 1_555 1_555
H16 C24 1_555 1_555
C25 C21 1_555 1_555
C26 C25 1_555 1_555
H17 C26 1_555 1_555
C27 C26 1_555 1_555
H18 C27 1_555 1_555
C28 H19 1_555 1_555
C29 C28 1_555 1_555
H20 C29 1_555 1_555
C30 C19 1_555 1_555
C31 C30 1_555 1_555
H21 C31 1_555 1_555
C32 C31 1_555 1_555
N3 C23 1_555 1_555
Ni11 N3 1_555 1_555
C21 C22 1_555 1_555
C24 C25 1_555 1_555
C27 N3 1_555 1_555
C29 C30 1_555 1_555
O6 C46 1_555 1_555
Ni7 O6 1_555 1_555
Ni9 O6 1_555 1_555
C1 C2 1_555 1_555
C2 H1 1_555 1_555
C3 C2 1_555 1_555
C4 C3 1_555 1_555
H2 C4 1_555 1_555
C5 C4 1_555 1_555
C6 C1 1_555 1_555
H3 C6 1_555 1_555
C7 H4 1_555 1_555
C8 C7 1_555 1_555
H5 C8 1_555 1_555
C9 C1 1_555 1_555
C10 C9 1_555 1_555
H6 C10 1_555 1_555
C11 C10 1_555 1_555
C12 H8 1_555 1_555
C13 C12 1_555 1_555
H9 C13 1_555 1_555
C14 C5 1_555 1_555
C15 C14 1_555 1_555
H10 C15 1_555 1_555
C16 C15 1_555 1_555
H11 C16 1_555 1_555
C33 C34 1_555 1_555
C34 C35 1_555 1_555
C35 H23 1_555 1_555
C36 C35 1_555 1_555
H24 C36 1_555 1_555
C37 C36 1_555 1_555
C38 C37 1_555 1_555
H25 C38 1_555 1_555
C39 C34 1_555 1_555
H26 C39 1_555 1_555
C40 C41 1_555 1_555
C44 C43 1_555 1_555
H29 C44 1_555 1_555
C45 C40 1_555 1_555
H30 C45 1_555 1_555
C61 C62 1_555 1_555
C62 C63 1_555 1_555
C63 H39 1_555 1_555
C64 C63 1_555 1_555
H40 C64 1_555 1_555
N5 C7 1_555 1_555
N2 C12 1_555 1_555
Ni7 O15 1_555 1_555
Ni9 O3 1_555 1_555
O1 C3 1_555 1_555
O2 C33 1_555 1_555
O3 C33 1_555 1_555
O4 S1 1_555 1_555
O5 S1 1_555 1_555
O8 C47 1_555 1_555
O9 C47 1_555 1_555
Ni11 N2 1_555 1_555
O14 C61 1_555 1_555
O15 C61 1_555 1_555
O20 Ni9 1_555 1_555
H47 O20 1_555 1_555
H48 O20 1_555 1_555
S1 C37 1_555 1_555
C5 C6 1_555 1_555
C8 C9 1_555 1_555
C11 N5 1_555 1_555
C13 C14 1_555 1_555
C16 N2 1_555 1_555
C17 O1 1_555 1_555
C38 C39 1_555 1_555
C40 S1 1_555 1_555
C44 C45 1_555 1_555
Ni9 O9 1_555 1_555
Ni9 O14 1_555 1_555
O2 Ni11 1_555 1_555
O8 Ni11 1_555 1_555
O9 Ni11 1_555 1_555
H28 C42 1_555 1_555
C1_2 C2_2 1_555 1_555
C2_2 H1_2 1_555 1_555
C3_2 C2_2 1_555 1_555
C4_2 C3_2 1_555 1_555
H2_2 C4_2 1_555 1_555
C5_2 C4_2 1_555 1_555
C6_2 C1_2 1_555 1_555
H3_2 C6_2 1_555 1_555
C7_2 H4_2 1_555 1_555
C8_2 C7_2 1_555 1_555
H5_2 C8_2 1_555 1_555
C9_2 C1_2 1_555 1_555
C10_2 C9_2 1_555 1_555
H6_2 C10_2 1_555 1_555
C11_2 C10_2 1_555 1_555
C12_2 H8_2 1_555 1_555
C13_2 C12_2 1_555 1_555
H9_2 C13_2 1_555 1_555
C14_2 C5_2 1_555 1_555
C15_2 C14_2 1_555 1_555
H10_2 C15_2 1_555 1_555
C16_2 C15_2 1_555 1_555
H11_2 C16_2 1_555 1_555
C33_2 C34_2 1_555 1_555
C34_2 C35_2 1_555 1_555
C35_2 H23_2 1_555 1_555
C36_2 C35_2 1_555 1_555
H24_2 C36_2 1_555 1_555
C37_2 C36_2 1_555 1_555
C38_2 C37_2 1_555 1_555
H25_2 C38_2 1_555 1_555
C39_2 C34_2 1_555 1_555
H26_2 C39_2 1_555 1_555
C40_2 C41_2 1_555 1_555
C44_2 C43_2 1_555 1_555
H29_2 C44_2 1_555 1_555
C45_2 C40_2 1_555 1_555
H30_2 C45_2 1_555 1_555
C61_2 C62_2 1_555 1_555
C62_2 C63_2 1_555 1_555
C63_2 H39_2 1_555 1_555
C64_2 C63_2 1_555 1_555
H40_2 C64_2 1_555 1_555
N1 C7_2 1_555 1_555
N2_2 C12_2 1_555 1_555
Ni1 O15_2 1_555 1_555
Ni2 O3_2 1_555 1_555
O1_2 C3_2 1_555 1_555
O2_2 C33_2 1_555 1_555
O3_2 C33_2 1_555 1_555
O4_2 S1_2 1_555 1_555
O5_2 S1_2 1_555 1_555
O8_2 C47_2 1_555 1_555
O9_2 C47_2 1_555 1_555
Ni3 N2_2 1_555 1_555
O14_2 C61_2 1_555 1_555
O15_2 C61_2 1_555 1_555
O20_2 Ni2 1_555 1_555
H47_2 O20_2 1_555 1_555
H48_2 O20_2 1_555 1_555
S1_2 C37_2 1_555 1_555
N6 Ni3 1_555 1_555
O21 Ni1 1_555 1_555
O23 Ni3 1_555 1_555
O24 Ni1 1_555 1_555
O25 Ni2 1_555 1_555
C5_2 C6_2 1_555 1_555
C8_2 C9_2 1_555 1_555
C11_2 N1 1_555 1_555
C13_2 C14_2 1_555 1_555
C16_2 N2_2 1_555 1_555
C17_2 O1_2 1_555 1_555
C38_2 C39_2 1_555 1_555
C40_2 S1_2 1_555 1_555
C44_2 C45_2 1_555 1_555
Ni2 O9_2 1_555 1_555
Ni2 O14_2 1_555 1_555
Ni2 O21 1_555 1_555
O2_2 Ni3 1_555 1_555
O8_2 Ni3 1_555 1_555
O9_2 Ni3 1_555 1_555
O21 C46_2 1_555 1_555
C19_2 C18_2 1_555 1_555
C20_2 C19_2 1_555 1_555
H13_2 C20_2 1_555 1_555
C21_2 C20_2 1_555 1_555
H14_2 C22_2 1_555 1_555
C23_2 H15_2 1_555 1_555
C24_2 C23_2 1_555 1_555
H16_2 C24_2 1_555 1_555
C25_2 C21_2 1_555 1_555
C26_2 C25_2 1_555 1_555
H17_2 C26_2 1_555 1_555
C27_2 C26_2 1_555 1_555
H18_2 C27_2 1_555 1_555
C28_2 H19_2 1_555 1_555
C29_2 C28_2 1_555 1_555
H20_2 C29_2 1_555 1_555
C30_2 C19_2 1_555 1_555
C31_2 C30_2 1_555 1_555
H21_2 C31_2 1_555 1_555
C32_2 C31_2 1_555 1_555
N6 C23_2 1_555 1_555
C21_2 C22_2 1_555 1_555
C24_2 C25_2 1_555 1_555
C27_2 N6 1_555 1_555
C29_2 C30_2 1_555 1_555
C48_2 C49_2 1_555 1_555
C49_2 H31_2 1_555 1_555
C50_2 C49_2 1_555 1_555
H32_2 C50_2 1_555 1_555
C51_2 C50_2 1_555 1_555
C52_2 C51_2 1_555 1_555
C53_2 C48_2 1_555 1_555
H34_2 C53_2 1_555 1_555
C52_2 C53_2 1_555 1_555
C66_2 C65_2 1_555 1_555
H41_2 C66_2 1_555 1_555
H42_2 C67_2 1_555 1_555
C68_2 C69_2 1_555 1_555
C69_2 H43_2 1_555 1_555
C70_2 C69_2 1_555 1_555
H44_2 C70_2 1_555 1_555
C71_2 C70_2 1_555 1_555
C72_2 C71_2 1_555 1_555
H45_2 C72_2 1_555 1_555
C73_2 C68_2 1_555 1_555
H46_2 C73_2 1_555 1_555
C74_2 C71_2 1_555 1_555
O16_2 S3_2 1_555 1_555
O17_2 S3_2 1_555 1_555
O24 C74_2 1_555 1_555
O25 C74_2 1_555 1_555
S3_2 C65_2 1_555 1_555
C66_2 C67_2 1_555 1_555
C68_2 S3_2 1_555 1_555
C72_2 C73_2 1_555 1_555
C54_2 C55_2 1_555 1_555
C55_2 H35_2 1_555 1_555
C56_2 C55_2 1_555 1_555
H36_2 C56_2 1_555 1_555
C57_2 C56_2 1_555 1_555
C58_2 C57_2 1_555 1_555
H37_2 C58_2 1_555 1_555
C59_2 C54_2 1_555 1_555
H38_2 C59_2 1_555 1_555
C60_2 C57_2 1_555 1_555
O10_2 S2_2 1_555 1_555
O11_2 S2_2 1_555 1_555
O12_2 C60_2 1_555 1_555
O23 C60_2 1_555 1_555
C54_2 S2_2 1_555 1_555
C58_2 C59_2 1_555 1_555
H28_2 C42_2 1_555 1_555

#END
