
###############################################################################
#
# This file contains modified crystal structure data generated from the
# MOF subset of the Cambridge Structural Database (CSD) v543 
# hosted by the Cambridge Crystallographic Data Centre (CCDC).
#
# This work is licensed under the Creative Commons
# Attribution-NonCommercial-ShareAlike 4.0 International License.
# To view a copy of this license, visit
# http://creativecommons.org/licenses/by-nc-sa/4.0/
# or send a letter to
# Creative Commons, PO Box 1866, Mountain View, CA 94042, USA.
#
# CIF created using the CSD Python API on 29 September 2022
# The structure has been converted into the P1 space group
# The structure has a 3D framework
# The original CSD entry GOMFUL is in the monoclinic crystal system
# The framework has been calculated to contain at least 10.0% void space
# The void calculation uses a probe of radius 1.32A, grid spacing 0.4
#
###############################################################################

data_GOMFUL
_chemical_formula_moiety         '(C176 H100 K10 N16 O32 Pt4 S12)n'
_symmetry_cell_setting           triclinic
_symmetry_space_group_name_H-M   'P 1'
_symmetry_Int_Tables_number      1
_space_group_name_Hall           'P 1'
loop_
_symmetry_equiv_pos_site_id
_symmetry_equiv_pos_as_xyz
1 x,y,z
_cell_length_a                   22.666(5)
_cell_length_b                   34.027(7)
_cell_length_c                   8.3431(17)
_cell_angle_alpha                90
_cell_angle_beta                 97.11(3)
_cell_angle_gamma                90
_cell_volume                     6385.19
loop_
_atom_site_label
_atom_site_type_symbol
_atom_site_fract_x
_atom_site_fract_y
_atom_site_fract_z
O10 O 0.7018(5) 0.7536(5) 0.093(2)
O16 O 0.8560(5) 0.7575(7) 0.135(3)
K10 K 0.6795(5) 0.6752(4) 0.0761(18)
C4 C 0.2316(7) 0.7886(6) 0.018(2)
C5 C 0.2828(6) 0.8095(5) 0.115(2)
C6 C 0.3297(4) 0.7886(6) 0.1885(16)
C7 C 0.3801(7) 0.8089(5) 0.297(2)
H3 H 0.3851 0.8356 0.3292
C8 C 0.4146(5) 0.7780(5) 0.3307(13)
H4 H 0.4523 0.7819 0.3926
C9 C 0.4001(6) 0.7436(6) 0.285(2)
C10 C 0.4249(5) 0.7060(5) 0.2833(18)
C11 C 0.4044(7) 0.6715(5) 0.2411(19)
C12 C 0.4296(6) 0.6360(5) 0.2434(18)
H5 H 0.4711 0.6318 0.2706
C13 C 0.3908(7) 0.6067(5) 0.2037(19)
H6 H 0.3982 0.5792 0.2079
C14 C 0.3364(6) 0.6261(5) 0.154(2)
C15 C 0.2809(6) 0.6063(5) 0.1079(19)
C16 C 0.2270(7) 0.6270(6) 0.0644(19)
C17 C 0.1710(5) 0.6074(5) 0.026(2)
H7 H 0.1639 0.5802 0.0405
C21 C 0.2798(7) 0.8532(5) 0.1057(19)
C22 C 0.2351(6) 0.8743(6) 0.1663(16)
H9 H 0.2045 0.8606 0.2110
C23 C 0.2343(7) 0.9128(6) 0.163(2)
H10 H 0.2014 0.9262 0.1976
C24 C 0.2827(12) 0.9359(6) 0.107(3)
H11 H 0.2834 0.9638 0.1088
C25 C 0.3252(13) 0.9143(6) 0.055(3)
H12 H 0.3568 0.9276 0.0134
C26 C 0.3266(9) 0.8733(5) 0.058(3)
H13 H 0.3598 0.8596 0.0269
C27 C 0.4891(5) 0.7069(5) 0.3525(18)
C28 C 0.5327(4) 0.7285(5) 0.2705(14)
H14 H 0.5223 0.7413 0.1697
C29 C 0.5894(5) 0.7289(6) 0.349(2)
H15 H 0.6186 0.7450 0.3090
C30 C 0.6063(6) 0.7048(6) 0.496(2)
C31 C 0.5640(8) 0.6850(6) 0.570(3)
H16 H 0.5745 0.6707 0.6670
C32 C 0.5089(6) 0.6867(5) 0.502(2)
H17 H 0.4797 0.6735 0.5542
C33 C 0.2810(7) 0.5632(5) 0.105(2)
C34 C 0.3091(9) 0.5429(8) 0.009(3)
C36 C 0.2769(13) 0.4830(7) 0.097(5)
C37 C 0.2485(12) 0.5010(7) 0.214(4)
H20 H 0.2304 0.4862 0.2910
C38 C 0.2476(7) 0.5416(6) 0.213(2)
H21 H 0.2249 0.5554 0.2830
N1 N 0.2225(4) 0.7492(4) 0.0225(17)
N2 N 0.3392(4) 0.7502(5) 0.1865(14)
N3 N 0.3419(5) 0.6643(5) 0.1717(17)
N4 N 0.2207(5) 0.6660(4) 0.0425(14)
O1 O 0.7018(5) 0.7464(5) 0.593(2)
O2 O 0.7152(6) 0.6904(7) 0.4424(19)
O3 O 0.6939(6) 0.6813(4) 0.688(2)
O5 O 0.3258(13) 0.4188(8) 0.212(12)
O6 O 0.230(2) 0.4166(7) 0.176(8)
S1 S 0.68622(18) 0.7064(2) 0.5624(8)
S2 S 0.2759(9) 0.4282(3) 0.099(2)
K1 K 0.7845(3) 0.7415(5) 0.8724(12)
K2 K 0.7735(4) 0.6248(3) 0.5531(17)
K3 K 0.6795(5) 0.8248(4) 0.5761(18)
Pt1 Pt 0.28197(2) 0.707591(19) 0.10542(8)
O11 O 0.7152(6) 0.8096(7) 0.9424(19)
O12 O 0.6939(6) 0.8187(4) 0.188(2)
O13 O 0.770(2) 0.5834(7) 0.824(8)
O14 O 0.8785(4) 0.8058(7) 0.9566(18)
O15 O 0.8560(5) 0.7425(7) 0.635(3)
O17 O 0.8510(8) 0.6788(9) 0.752(5)
K6 K 0.7845(3) 0.7585(5) 0.3724(12)
K8 K 0.2265(4) 0.3752(3) 0.4469(17)
C41 C 0.9697(9) 0.7268(8) 0.849(3)
H23 H 0.9437 0.7399 0.9123
C42 C 0.9523(5) 0.7068(7) 0.714(3)
C43 C 0.9940(7) 0.6837(6) 0.643(2)
H24 H 0.9813 0.6670 0.5542
O7 O 0.8785(4) 0.6942(7) 0.4566(18)
S3 S 0.87900(19) 0.7029(3) 0.6330(9)
O7_2 O 0.1215(4) 0.1942(7) 0.0434(18)
K5 K 0.2155(3) 0.2585(5) 0.1276(12)
C41_2 C 0.0303(9) 0.2268(8) 0.651(3)
H23_2 H 0.0563 0.2399 0.5877
C42_2 C 0.0477(5) 0.2068(7) 0.786(3)
C43_2 C 0.0060(7) 0.1837(6) 0.857(2)
H24_2 H 0.0187 0.1670 0.9458
O8 O 0.1440(5) 0.2425(7) 0.865(3)
O9 O 0.1490(8) 0.1788(9) 0.748(5)
S3_2 S 0.12100(19) 0.2029(3) 0.8670(9)
K4 K 0.2155(3) 0.2415(5) 0.6276(12)
K7 K 0.2265(4) 0.1248(3) 0.9469(17)
C1 C 0.8298(5) 0.2426(5) 0.5590(18)
C2 C 0.8597(5) 0.2825(5) 0.618(4)
H1 H 0.8983 0.2877 0.6722
C3 C 0.8141(6) 0.3071(6) 0.5694(17)
H2 H 0.8142 0.3343 0.5943
C4_2 C 0.7684(7) 0.2886(6) 0.482(2)
C5_2 C 0.7172(6) 0.3095(5) 0.385(2)
C6_2 C 0.6703(4) 0.2886(6) 0.3115(16)
C7_2 C 0.6199(7) 0.3089(5) 0.203(2)
H3_2 H 0.6149 0.3356 0.1708
C8_2 C 0.5854(5) 0.2780(5) 0.1693(13)
H4_2 H 0.5477 0.2819 0.1074
C9_2 C 0.5999(6) 0.2436(6) 0.215(2)
C10_2 C 0.5751(5) 0.2060(5) 0.2167(18)
C11_2 C 0.5956(7) 0.1715(5) 0.2589(19)
C12_2 C 0.5704(6) 0.1360(5) 0.2566(18)
H5_2 H 0.5289 0.1318 0.2294
C13_2 C 0.6092(7) 0.1067(5) 0.2963(19)
H6_2 H 0.6018 0.0792 0.2921
C14_2 C 0.6636(6) 0.1261(5) 0.346(2)
C15_2 C 0.7191(6) 0.1063(5) 0.3921(19)
C16_2 C 0.7730(7) 0.1270(6) 0.4356(19)
C17_2 C 0.8290(5) 0.1074(5) 0.474(2)
H7_2 H 0.8361 0.0802 0.4595
C18 C 0.8683(7) 0.1330(6) 0.532(2)
H8 H 0.9088 0.1282 0.5716
C19 C 0.8352(6) 0.1732(5) 0.522(2)
C20 C 0.8625(6) 0.2089(6) 0.5849(17)
C21_2 C 0.7202(7) 0.3532(5) 0.3943(19)
C22_2 C 0.7649(6) 0.3743(6) 0.3337(16)
H9_2 H 0.7955 0.3606 0.2890
C23_2 C 0.7657(7) 0.4128(6) 0.337(2)
H10_2 H 0.7986 0.4262 0.3024
C24_2 C 0.7173(12) 0.4359(6) 0.393(3)
H11_2 H 0.7166 0.4638 0.3912
C25_2 C 0.6748(13) 0.4143(6) 0.445(3)
H12_2 H 0.6432 0.4276 0.4866
C26_2 C 0.6734(9) 0.3733(5) 0.442(3)
H13_2 H 0.6402 0.3596 0.4731
C27_2 C 0.5109(5) 0.2069(5) 0.1475(18)
C28_2 C 0.4673(4) 0.2285(5) 0.2295(14)
H14_2 H 0.4777 0.2413 0.3303
C29_2 C 0.4106(5) 0.2289(6) 0.151(2)
H15_2 H 0.3814 0.2450 0.1910
C30_2 C 0.3937(6) 0.2048(6) 0.004(2)
C33_2 C 0.7190(7) 0.0632(5) 0.395(2)
C34_2 C 0.6909(9) 0.0429(8) 0.491(3)
H18 H 0.6691 0.0573 0.5619
C35 C 0.6893(13) 0.0009(8) 0.503(3)
C37_2 C 0.7515(12) 0.0010(7) 0.286(4)
C38_2 C 0.7524(7) 0.0416(6) 0.287(2)
H21_2 H 0.7751 0.0554 0.2170
C39 C 0.9257(6) 0.2077(6) 0.660(2)
C40 C 0.9730(9) 0.2259(6) 0.6192(17)
H22 H 0.9608 0.2448 0.5380
C44 C 0.9427(6) 0.1856(6) 0.791(3)
H25 H 0.9141 0.1713 0.8414
N1_2 N 0.7775(4) 0.2492(4) 0.4775(17)
N2_2 N 0.6608(4) 0.2502(5) 0.3135(14)
N3_2 N 0.6581(5) 0.1643(5) 0.3283(17)
N4_2 N 0.7793(5) 0.1660(4) 0.4575(14)
O2_2 O 0.2848(6) 0.1904(7) 0.0576(19)
Pt1_2 Pt 0.71803(2) 0.207591(19) 0.39458(8)
O12_2 O 0.3061(6) 0.3187(4) 0.312(2)
K9 K 0.3205(5) 0.1752(4) 0.4239(18)
C31_2 C 0.4360(8) 0.1850(6) 0.930(3)
H16_2 H 0.4255 0.1707 0.8330
C32_2 C 0.4911(6) 0.1867(5) 0.998(2)
H17_2 H 0.5203 0.1735 0.9458
O1_2 O 0.2982(5) 0.2464(5) 0.907(2)
O3_2 O 0.3061(6) 0.1813(4) 0.812(2)
S1_2 S 0.31378(18) 0.2064(2) 0.9376(8)
K3_2 K 0.3205(5) 0.3248(4) 0.9239(18)
O10_2 O 0.2982(5) 0.2536(5) 0.407(2)
O11_2 O 0.2848(6) 0.3096(7) 0.5576(19)
O13_2 O 0.230(2) 0.0834(7) 0.676(8)
O14_2 O 0.1215(4) 0.3058(7) 0.5434(18)
O16_2 O 0.1440(5) 0.2575(7) 0.365(3)
H19 H 0.6668 0.9871 0.5737
C36_2 C 0.7231(13) 0.9830(7) 0.403(5)
H20_2 H 0.7696 0.9862 0.2090
O4 O 0.751(2) 0.9191(11) 0.576(6)
O5_2 O 0.6742(13) 0.9188(8) 0.288(12)
O6_2 O 0.770(2) 0.9166(7) 0.324(8)
S2_2 S 0.7241(9) 0.9282(3) 0.401(2)
K8_2 K 0.7735(4) 0.8752(3) 0.0531(17)
C41_3 C 0.0303(9) 0.2732(8) 0.151(3)
H23_3 H 0.0563 0.2601 0.0877
C42_3 C 0.0477(5) 0.2932(7) 0.286(3)
C43_3 C 0.0060(7) 0.3163(6) 0.357(2)
H24_3 H 0.0187 0.3330 0.4458
O9_2 O 0.1490(8) 0.3212(9) 0.248(5)
S3_3 S 0.12100(19) 0.2971(3) 0.3670(9)
C4_3 C 0.7684(7) 0.2114(6) 0.982(2)
C5_3 C 0.7172(6) 0.1905(5) 0.885(2)
C6_3 C 0.6703(4) 0.2114(6) 0.8115(16)
C7_3 C 0.6199(7) 0.1911(5) 0.703(2)
H3_3 H 0.6149 0.1644 0.6708
C8_3 C 0.5854(5) 0.2220(5) 0.6693(13)
H4_3 H 0.5477 0.2181 0.6074
C9_3 C 0.5999(6) 0.2564(6) 0.715(2)
C10_3 C 0.5751(5) 0.2940(5) 0.7167(18)
C11_3 C 0.5956(7) 0.3285(5) 0.7589(19)
C12_3 C 0.5704(6) 0.3640(5) 0.7566(18)
H5_3 H 0.5289 0.3682 0.7294
C13_3 C 0.6092(7) 0.3933(5) 0.7963(19)
H6_3 H 0.6018 0.4208 0.7921
C14_3 C 0.6636(6) 0.3739(5) 0.846(2)
C15_3 C 0.7191(6) 0.3937(5) 0.8921(19)
C16_3 C 0.7730(7) 0.3730(6) 0.9356(19)
C17_3 C 0.8290(5) 0.3926(5) 0.974(2)
H7_3 H 0.8361 0.4198 0.9595
C21_3 C 0.7202(7) 0.1468(5) 0.8943(19)
C22_3 C 0.7649(6) 0.1257(6) 0.8337(16)
H9_3 H 0.7955 0.1394 0.7890
C23_3 C 0.7657(7) 0.0872(6) 0.837(2)
H10_3 H 0.7986 0.0738 0.8024
C24_3 C 0.7173(12) 0.0641(6) 0.893(3)
H11_3 H 0.7166 0.0362 0.8912
C25_3 C 0.6748(13) 0.0857(6) 0.945(3)
H12_3 H 0.6432 0.0724 0.9866
C26_3 C 0.6734(9) 0.1267(5) 0.942(3)
H13_3 H 0.6402 0.1404 0.9731
C27_3 C 0.5109(5) 0.2931(5) 0.6475(18)
C28_3 C 0.4673(4) 0.2715(5) 0.7295(14)
H14_3 H 0.4777 0.2587 0.8303
C29_3 C 0.4106(5) 0.2711(6) 0.651(2)
H15_3 H 0.3814 0.2550 0.6910
C30_3 C 0.3937(6) 0.2952(6) 0.504(2)
C31_3 C 0.4360(8) 0.3150(6) 0.430(3)
H16_3 H 0.4255 0.3293 0.3330
C32_3 C 0.4911(6) 0.3133(5) 0.498(2)
H17_3 H 0.5203 0.3265 0.4458
C33_3 C 0.7190(7) 0.4368(5) 0.895(2)
C34_3 C 0.6909(9) 0.4571(8) 0.991(3)
C36_3 C 0.7231(13) 0.5170(7) 0.903(5)
C37_3 C 0.7515(12) 0.4990(7) 0.786(4)
H20_3 H 0.7696 0.5138 0.7090
C38_3 C 0.7524(7) 0.4584(6) 0.787(2)
H21_3 H 0.7751 0.4446 0.7170
N1_3 N 0.7775(4) 0.2508(4) 0.9775(17)
N2_3 N 0.6608(4) 0.2498(5) 0.8135(14)
N3_3 N 0.6581(5) 0.3357(5) 0.8283(17)
N4_3 N 0.7793(5) 0.3340(4) 0.9575(14)
O5_3 O 0.6742(13) 0.5812(8) 0.788(12)
S1_3 S 0.31378(18) 0.2936(2) 0.4376(8)
S2_3 S 0.7241(9) 0.5718(3) 0.901(2)
Pt1_3 Pt 0.71803(2) 0.292409(19) 0.89458(8)
H19_2 H 0.3332 0.0129 0.4263
C36_4 C 0.2769(13) 0.0170(7) 0.597(5)
H20_4 H 0.2304 0.0138 0.7910
O4_2 O 0.249(2) 0.0809(11) 0.424(6)
O5_4 O 0.3258(13) 0.0812(8) 0.712(12)
S2_4 S 0.2759(9) 0.0718(3) 0.599(2)
C31_4 C 0.5640(8) 0.8150(6) 0.070(3)
H16_4 H 0.5745 0.8293 0.1670
C32_4 C 0.5089(6) 0.8133(5) 0.002(2)
H17_4 H 0.4797 0.8265 0.0542
S1_4 S 0.68622(18) 0.7936(2) 0.0624(8)
O17_2 O 0.8510(8) 0.8212(9) 0.252(5)
C1_2 C 0.1702(5) 0.7574(5) 0.4410(18)
C2_2 C 0.1403(5) 0.7175(5) 0.382(4)
H1_2 H 0.1017 0.7123 0.3278
C3_2 C 0.1859(6) 0.6929(6) 0.4306(17)
H2_2 H 0.1858 0.6657 0.4057
C4_4 C 0.2316(7) 0.7114(6) 0.518(2)
C5_4 C 0.2828(6) 0.6905(5) 0.615(2)
C6_4 C 0.3297(4) 0.7114(6) 0.6885(16)
C7_4 C 0.3801(7) 0.6911(5) 0.797(2)
H3_4 H 0.3851 0.6644 0.8292
C8_4 C 0.4146(5) 0.7220(5) 0.8307(13)
H4_4 H 0.4523 0.7181 0.8926
C9_4 C 0.4001(6) 0.7564(6) 0.785(2)
C10_4 C 0.4249(5) 0.7940(5) 0.7833(18)
C11_4 C 0.4044(7) 0.8285(5) 0.7411(19)
C12_4 C 0.4296(6) 0.8640(5) 0.7434(18)
H5_4 H 0.4711 0.8682 0.7706
C13_4 C 0.3908(7) 0.8933(5) 0.7037(19)
H6_4 H 0.3982 0.9208 0.7079
C14_4 C 0.3364(6) 0.8739(5) 0.654(2)
C15_4 C 0.2809(6) 0.8937(5) 0.6079(19)
C16_4 C 0.2270(7) 0.8730(6) 0.5644(19)
C17_4 C 0.1710(5) 0.8926(5) 0.526(2)
H7_4 H 0.1639 0.9198 0.5405
C18_2 C 0.1317(7) 0.8670(6) 0.468(2)
H8_2 H 0.0912 0.8718 0.4284
C19_2 C 0.1648(6) 0.8268(5) 0.478(2)
C20_2 C 0.1375(6) 0.7911(6) 0.4151(17)
C21_4 C 0.2798(7) 0.6468(5) 0.6057(19)
C22_4 C 0.2351(6) 0.6257(6) 0.6663(16)
H9_4 H 0.2045 0.6394 0.7110
C23_4 C 0.2343(7) 0.5872(6) 0.663(2)
H10_4 H 0.2014 0.5738 0.6976
C24_4 C 0.2827(12) 0.5641(6) 0.607(3)
H11_4 H 0.2834 0.5362 0.6088
C25_4 C 0.3252(13) 0.5857(6) 0.555(3)
H12_4 H 0.3568 0.5724 0.5134
C26_4 C 0.3266(9) 0.6267(5) 0.558(3)
H13_4 H 0.3598 0.6404 0.5269
C27_4 C 0.4891(5) 0.7931(5) 0.8525(18)
C28_4 C 0.5327(4) 0.7715(5) 0.7705(14)
H14_4 H 0.5223 0.7587 0.6697
C29_4 C 0.5894(5) 0.7711(6) 0.849(2)
H15_4 H 0.6186 0.7550 0.8090
C30_4 C 0.6063(6) 0.7952(6) 0.996(2)
C33_4 C 0.2810(7) 0.9368(5) 0.605(2)
C34_4 C 0.3091(9) 0.9571(8) 0.509(3)
H18_2 H 0.3309 0.9427 0.4381
C35_2 C 0.3107(13) 0.9991(8) 0.497(3)
C37_4 C 0.2485(12) 0.9990(7) 0.714(4)
C38_4 C 0.2476(7) 0.9584(6) 0.713(2)
H21_4 H 0.2249 0.9446 0.7830
C39_2 C 0.0743(6) 0.7923(6) 0.340(2)
C40_2 C 0.0270(9) 0.7741(6) 0.3808(17)
H22_2 H 0.0392 0.7552 0.4620
C44_2 C 0.0573(6) 0.8144(6) 0.209(3)
H25_2 H 0.0859 0.8287 0.1586
N1_4 N 0.2225(4) 0.7508(4) 0.5225(17)
N2_4 N 0.3392(4) 0.7498(5) 0.6865(14)
N3_4 N 0.3419(5) 0.8357(5) 0.6717(17)
N4_4 N 0.2207(5) 0.8340(4) 0.5425(14)
Pt1_4 Pt 0.28197(2) 0.792409(19) 0.60542(8)
C41_4 C 0.9697(9) 0.7732(8) 0.349(3)
H23_4 H 0.9437 0.7601 0.4123
C42_4 C 0.9523(5) 0.7932(7) 0.214(3)
C43_4 C 0.9940(7) 0.8163(6) 0.143(2)
H24_4 H 0.9813 0.8330 0.0542
S3_4 S 0.87900(19) 0.7971(3) 0.1330(9)
C1_3 C 0.1702(5) 0.7426(5) 0.9410(18)
C2_3 C 0.1403(5) 0.7825(5) 0.882(4)
H1_3 H 0.1017 0.7877 0.8278
C3_3 C 0.1859(6) 0.8071(6) 0.9306(17)
H2_3 H 0.1858 0.8343 0.9057
C18_3 C 0.1317(7) 0.6330(6) 0.968(2)
H8_3 H 0.0912 0.6282 0.9284
C19_3 C 0.1648(6) 0.6732(5) 0.978(2)
C20_3 C 0.1375(6) 0.7089(6) 0.9151(17)
H18_3 H 0.3309 0.5573 0.9381
C35_3 C 0.3107(13) 0.5009(8) 0.997(3)
H19_3 H 0.3332 0.4871 0.9263
C39_3 C 0.0743(6) 0.7077(6) 0.840(2)
C40_3 C 0.0270(9) 0.7259(6) 0.8808(17)
H22_3 H 0.0392 0.7448 0.9620
C44_3 C 0.0573(6) 0.6856(6) 0.709(3)
H25_3 H 0.0859 0.6713 0.6586
O4_3 O 0.249(2) 0.4191(11) 0.924(6)
C1_4 C 0.8298(5) 0.2574(5) 0.0590(18)
C2_4 C 0.8597(5) 0.2175(5) 0.118(4)
H1_4 H 0.8983 0.2123 0.1722
C3_4 C 0.8141(6) 0.1929(6) 0.0694(17)
H2_4 H 0.8142 0.1657 0.0943
C18_4 C 0.8683(7) 0.3670(6) 0.032(2)
H8_4 H 0.9088 0.3718 0.0716
C19_4 C 0.8352(6) 0.3268(5) 0.022(2)
C20_4 C 0.8625(6) 0.2911(6) 0.0849(17)
H18_4 H 0.6691 0.4427 0.0619
C35_4 C 0.6893(13) 0.4991(8) 0.003(3)
H19_4 H 0.6668 0.5129 0.0737
C39_4 C 0.9257(6) 0.2923(6) 0.160(2)
C40_4 C 0.9730(9) 0.2741(6) 0.1192(17)
H22_4 H 0.9608 0.2552 0.0380
C44_4 C 0.9427(6) 0.3144(6) 0.291(3)
H25_4 H 0.9141 0.3287 0.3414
O4_4 O 0.751(2) 0.5809(11) 0.076(6)
loop_
_geom_bond_atom_site_label_1
_geom_bond_atom_site_label_2
_geom_bond_site_symmetry_1
_geom_bond_site_symmetry_2
O10 K10 1_555 1_555
C5 C4 1_555 1_555
C6 C5 1_555 1_555
C7 C6 1_555 1_555
H3 C7 1_555 1_555
C8 C7 1_555 1_555
H4 C8 1_555 1_555
C9 C8 1_555 1_555
C10 C9 1_555 1_555
C11 C10 1_555 1_555
C12 C11 1_555 1_555
H5 C12 1_555 1_555
C13 C12 1_555 1_555
H6 C13 1_555 1_555
C14 C13 1_555 1_555
C15 C14 1_555 1_555
C16 C15 1_555 1_555
C17 C16 1_555 1_555
H7 C17 1_555 1_555
C21 C5 1_555 1_555
C22 C21 1_555 1_555
H9 C22 1_555 1_555
C23 C22 1_555 1_555
H10 C23 1_555 1_555
C24 C23 1_555 1_555
H11 C24 1_555 1_555
C25 C24 1_555 1_555
H12 C25 1_555 1_555
C26 C21 1_555 1_555
H13 C26 1_555 1_555
C27 C10 1_555 1_555
C28 C27 1_555 1_555
H14 C28 1_555 1_555
C29 C28 1_555 1_555
H15 C29 1_555 1_555
C30 C29 1_555 1_555
C31 C30 1_555 1_555
H16 C31 1_555 1_555
C32 C27 1_555 1_555
H17 C32 1_555 1_555
C33 C15 1_555 1_555
C34 C33 1_555 1_555
C37 C36 1_555 1_555
H20 C37 1_555 1_555
C38 C33 1_555 1_555
H21 C38 1_555 1_555
N2 C6 1_555 1_555
N3 C11 1_555 1_555
N4 C16 1_555 1_555
O1 S1 1_555 1_555
O2 S1 1_555 1_555
O3 S1 1_555 1_555
O5 S2 1_555 1_555
O6 S2 1_555 1_555
S1 C30 1_555 1_555
S2 C36 1_555 1_555
K1 O1 1_555 1_555
K2 O2 1_555 1_555
K3 O1 1_555 1_555
Pt1 N1 1_555 1_555
O11 K1 1_555 1_555
O12 K3 1_555 1_555
O13 K2 1_555 1_555
O14 K1 1_555 1_555
O15 K1 1_555 1_555
O17 K1 1_555 1_555
K6 O1 1_555 1_555
K8 O6 1_555 1_555
K10 O2 1_555 1_555
C4 N1 1_555 1_555
C9 N2 1_555 1_555
C14 N3 1_555 1_555
C25 C26 1_555 1_555
C31 C32 1_555 1_555
C37 C38 1_555 1_555
N2 Pt1 1_555 1_555
N3 Pt1 1_555 1_555
N4 Pt1 1_555 1_555
O2 K6 1_555 1_555
O3 K1 1_555 1_555
O3 K2 1_555 1_555
K2 O17 1_555 1_555
K3 O11 1_555 1_555
O12 K6 1_555 1_555
O15 K6 1_555 1_555
H23 C41 1_555 1_555
C42 C41 1_555 1_555
C43 C42 1_555 1_555
H24 C43 1_555 1_555
O7 S3 1_555 1_555
O15 S3 1_555 1_555
O17 S3 1_555 1_555
S3 C42 1_555 1_555
K6 O7 1_555 1_555
K5 O7_2 1_555 1_555
H23_2 C41_2 1_555 1_555
C42_2 C41_2 1_555 1_555
C43_2 C42_2 1_555 1_555
H24_2 C43_2 1_555 1_555
O8 S3_2 1_555 1_555
O9 S3_2 1_555 1_555
S3_2 C42_2 1_555 1_555
K4 O8 1_555 1_555
K7 O9 1_555 1_555
O9 K4 1_555 1_555
C1 C2 1_555 1_555
C2 H1 1_555 1_555
C3 C2 1_555 1_555
H2 C3 1_555 1_555
C4_2 C3 1_555 1_555
C5_2 C4_2 1_555 1_555
C6_2 C5_2 1_555 1_555
C7_2 C6_2 1_555 1_555
H3_2 C7_2 1_555 1_555
C8_2 C7_2 1_555 1_555
H4_2 C8_2 1_555 1_555
C9_2 C8_2 1_555 1_555
C10_2 C9_2 1_555 1_555
C11_2 C10_2 1_555 1_555
C12_2 C11_2 1_555 1_555
H5_2 C12_2 1_555 1_555
C13_2 C12_2 1_555 1_555
H6_2 C13_2 1_555 1_555
C14_2 C13_2 1_555 1_555
C15_2 C14_2 1_555 1_555
C16_2 C15_2 1_555 1_555
C17_2 C16_2 1_555 1_555
H7_2 C17_2 1_555 1_555
C18 C17_2 1_555 1_555
H8 C18 1_555 1_555
C19 C18 1_555 1_555
C20 C1 1_555 1_555
C21_2 C5_2 1_555 1_555
C22_2 C21_2 1_555 1_555
H9_2 C22_2 1_555 1_555
C23_2 C22_2 1_555 1_555
H10_2 C23_2 1_555 1_555
C24_2 C23_2 1_555 1_555
H11_2 C24_2 1_555 1_555
C25_2 C24_2 1_555 1_555
H12_2 C25_2 1_555 1_555
C26_2 C21_2 1_555 1_555
H13_2 C26_2 1_555 1_555
C27_2 C10_2 1_555 1_555
C28_2 C27_2 1_555 1_555
H14_2 C28_2 1_555 1_555
C29_2 C28_2 1_555 1_555
H15_2 C29_2 1_555 1_555
C30_2 C29_2 1_555 1_555
C33_2 C15_2 1_555 1_555
C34_2 C33_2 1_555 1_555
H18 C34_2 1_555 1_555
C35 C34_2 1_555 1_555
C38_2 C33_2 1_555 1_555
H21_2 C38_2 1_555 1_555
C39 C20 1_555 1_555
C40 C39 1_555 1_555
H22 C40 1_555 1_555
C44 C39 1_555 1_555
H25 C44 1_555 1_555
N1_2 C1 1_555 1_555
N2_2 C6_2 1_555 1_555
N3_2 C11_2 1_555 1_555
N4_2 C16_2 1_555 1_555
Pt1_2 N1_2 1_555 1_555
K9 O2_2 1_555 1_555
C4_2 N1_2 1_555 1_555
C9_2 N2_2 1_555 1_555
C14_2 N3_2 1_555 1_555
C19 C20 1_555 1_555
C19 N4_2 1_555 1_555
C25_2 C26_2 1_555 1_555
C37_2 C38_2 1_555 1_555
N2_2 Pt1_2 1_555 1_555
N3_2 Pt1_2 1_555 1_555
N4_2 Pt1_2 1_555 1_555
O2_2 K5 1_555 1_555
O12_2 K5 1_555 1_555
H16_2 C31_2 1_555 1_555
H17_2 C32_2 1_555 1_555
O1_2 S1_2 1_555 1_555
O3_2 S1_2 1_555 1_555
K4 O1_2 1_555 1_555
K3_2 O1_2 1_555 1_555
O10_2 K4 1_555 1_555
O11_2 K4 1_555 1_555
O13_2 K7 1_555 1_555
O14_2 K4 1_555 1_555
O16_2 K4 1_555 1_555
K9 O3_2 1_555 1_555
C31_2 C32_2 1_555 1_555
O3_2 K4 1_555 1_555
O3_2 K7 1_555 1_555
K3_2 O11_2 1_555 1_555
O10_2 K9 1_555 1_555
O4 S2_2 1_555 1_555
O5_2 S2_2 1_555 1_555
O6_2 S2_2 1_555 1_555
S2_2 C36_2 1_555 1_555
K8_2 O6_2 1_555 1_555
H23_3 C41_3 1_555 1_555
C42_3 C41_3 1_555 1_555
C43_3 C42_3 1_555 1_555
H24_3 C43_3 1_555 1_555
O14_2 S3_3 1_555 1_555
O16_2 S3_3 1_555 1_555
O9_2 S3_3 1_555 1_555
S3_3 C42_3 1_555 1_555
K5 O16_2 1_555 1_555
K8 O9_2 1_555 1_555
O9_2 K5 1_555 1_555
C5_3 C4_3 1_555 1_555
C6_3 C5_3 1_555 1_555
C7_3 C6_3 1_555 1_555
H3_3 C7_3 1_555 1_555
C8_3 C7_3 1_555 1_555
H4_3 C8_3 1_555 1_555
C9_3 C8_3 1_555 1_555
C10_3 C9_3 1_555 1_555
C11_3 C10_3 1_555 1_555
C12_3 C11_3 1_555 1_555
H5_3 C12_3 1_555 1_555
C13_3 C12_3 1_555 1_555
H6_3 C13_3 1_555 1_555
C14_3 C13_3 1_555 1_555
C15_3 C14_3 1_555 1_555
C16_3 C15_3 1_555 1_555
C17_3 C16_3 1_555 1_555
H7_3 C17_3 1_555 1_555
C21_3 C5_3 1_555 1_555
C22_3 C21_3 1_555 1_555
H9_3 C22_3 1_555 1_555
C23_3 C22_3 1_555 1_555
H10_3 C23_3 1_555 1_555
C24_3 C23_3 1_555 1_555
H11_3 C24_3 1_555 1_555
C25_3 C24_3 1_555 1_555
H12_3 C25_3 1_555 1_555
C26_3 C21_3 1_555 1_555
H13_3 C26_3 1_555 1_555
C27_3 C10_3 1_555 1_555
C28_3 C27_3 1_555 1_555
H14_3 C28_3 1_555 1_555
C29_3 C28_3 1_555 1_555
H15_3 C29_3 1_555 1_555
C30_3 C29_3 1_555 1_555
C31_3 C30_3 1_555 1_555
H16_3 C31_3 1_555 1_555
C32_3 C27_3 1_555 1_555
H17_3 C32_3 1_555 1_555
C33_3 C15_3 1_555 1_555
C34_3 C33_3 1_555 1_555
C37_3 C36_3 1_555 1_555
H20_3 C37_3 1_555 1_555
C38_3 C33_3 1_555 1_555
H21_3 C38_3 1_555 1_555
N2_3 C6_3 1_555 1_555
N3_3 C11_3 1_555 1_555
N4_3 C16_3 1_555 1_555
O10_2 S1_3 1_555 1_555
O11_2 S1_3 1_555 1_555
O12_2 S1_3 1_555 1_555
O5_3 S2_3 1_555 1_555
O13 S2_3 1_555 1_555
S1_3 C30_3 1_555 1_555
S2_3 C36_3 1_555 1_555
K5 O10_2 1_555 1_555
K8 O11_2 1_555 1_555
Pt1_3 N1_3 1_555 1_555
C4_3 N1_3 1_555 1_555
C9_3 N2_3 1_555 1_555
C14_3 N3_3 1_555 1_555
C25_3 C26_3 1_555 1_555
C31_3 C32_3 1_555 1_555
C37_3 C38_3 1_555 1_555
N2_3 Pt1_3 1_555 1_555
N3_3 Pt1_3 1_555 1_555
N4_3 Pt1_3 1_555 1_555
O12_2 K8 1_555 1_555
O4_2 S2_4 1_555 1_555
O5_4 S2_4 1_555 1_555
O13_2 S2_4 1_555 1_555
S2_4 C36_4 1_555 1_555
H16_4 C31_4 1_555 1_555
H17_4 C32_4 1_555 1_555
O10 S1_4 1_555 1_555
O12 S1_4 1_555 1_555
K6 O10 1_555 1_555
O16 K6 1_555 1_555
O17_2 K6 1_555 1_555
C31_4 C32_4 1_555 1_555
O12 K8_2 1_555 1_555
K8_2 O17_2 1_555 1_555
C1_2 C2_2 1_555 1_555
C2_2 H1_2 1_555 1_555
C3_2 C2_2 1_555 1_555
H2_2 C3_2 1_555 1_555
C4_4 C3_2 1_555 1_555
C5_4 C4_4 1_555 1_555
C6_4 C5_4 1_555 1_555
C7_4 C6_4 1_555 1_555
H3_4 C7_4 1_555 1_555
C8_4 C7_4 1_555 1_555
H4_4 C8_4 1_555 1_555
C9_4 C8_4 1_555 1_555
C10_4 C9_4 1_555 1_555
C11_4 C10_4 1_555 1_555
C12_4 C11_4 1_555 1_555
H5_4 C12_4 1_555 1_555
C13_4 C12_4 1_555 1_555
H6_4 C13_4 1_555 1_555
C14_4 C13_4 1_555 1_555
C15_4 C14_4 1_555 1_555
C16_4 C15_4 1_555 1_555
C17_4 C16_4 1_555 1_555
H7_4 C17_4 1_555 1_555
C18_2 C17_4 1_555 1_555
H8_2 C18_2 1_555 1_555
C19_2 C18_2 1_555 1_555
C20_2 C1_2 1_555 1_555
C21_4 C5_4 1_555 1_555
C22_4 C21_4 1_555 1_555
H9_4 C22_4 1_555 1_555
C23_4 C22_4 1_555 1_555
H10_4 C23_4 1_555 1_555
C24_4 C23_4 1_555 1_555
H11_4 C24_4 1_555 1_555
C25_4 C24_4 1_555 1_555
H12_4 C25_4 1_555 1_555
C26_4 C21_4 1_555 1_555
H13_4 C26_4 1_555 1_555
C27_4 C10_4 1_555 1_555
C28_4 C27_4 1_555 1_555
H14_4 C28_4 1_555 1_555
C29_4 C28_4 1_555 1_555
H15_4 C29_4 1_555 1_555
C30_4 C29_4 1_555 1_555
C33_4 C15_4 1_555 1_555
C34_4 C33_4 1_555 1_555
H18_2 C34_4 1_555 1_555
C35_2 C34_4 1_555 1_555
C38_4 C33_4 1_555 1_555
H21_4 C38_4 1_555 1_555
C39_2 C20_2 1_555 1_555
C40_2 C39_2 1_555 1_555
H22_2 C40_2 1_555 1_555
C44_2 C39_2 1_555 1_555
H25_2 C44_2 1_555 1_555
N1_4 C1_2 1_555 1_555
N2_4 C6_4 1_555 1_555
N3_4 C11_4 1_555 1_555
N4_4 C16_4 1_555 1_555
Pt1_4 N1_4 1_555 1_555
C4_4 N1_4 1_555 1_555
C9_4 N2_4 1_555 1_555
C14_4 N3_4 1_555 1_555
C19_2 C20_2 1_555 1_555
C19_2 N4_4 1_555 1_555
C25_4 C26_4 1_555 1_555
C37_4 C38_4 1_555 1_555
N2_4 Pt1_4 1_555 1_555
N3_4 Pt1_4 1_555 1_555
N4_4 Pt1_4 1_555 1_555
H23_4 C41_4 1_555 1_555
C42_4 C41_4 1_555 1_555
C43_4 C42_4 1_555 1_555
H24_4 C43_4 1_555 1_555
O16 S3_4 1_555 1_555
O17_2 S3_4 1_555 1_555
S3_4 C42_4 1_555 1_555
C1_3 C2_3 1_555 1_555
C2_3 H1_3 1_555 1_555
C3_3 C2_3 1_555 1_555
H2_3 C3_3 1_555 1_555
H8_3 C18_3 1_555 1_555
C19_3 C18_3 1_555 1_555
C20_3 C1_3 1_555 1_555
H19_3 C35_3 1_555 1_555
C39_3 C20_3 1_555 1_555
C40_3 C39_3 1_555 1_555
H22_3 C40_3 1_555 1_555
C44_3 C39_3 1_555 1_555
H25_3 C44_3 1_555 1_555
C19_3 C20_3 1_555 1_555
C1_4 C2_4 1_555 1_555
C2_4 H1_4 1_555 1_555
C3_4 C2_4 1_555 1_555
H2_4 C3_4 1_555 1_555
H8_4 C18_4 1_555 1_555
C19_4 C18_4 1_555 1_555
C20_4 C1_4 1_555 1_555
H19_4 C35_4 1_555 1_555
C39_4 C20_4 1_555 1_555
C40_4 C39_4 1_555 1_555
H22_4 C40_4 1_555 1_555
C44_4 C39_4 1_555 1_555
H25_4 C44_4 1_555 1_555
C19_4 C20_4 1_555 1_555

#END
