
###############################################################################
#
# This file contains modified crystal structure data generated from the
# MOF subset of the Cambridge Structural Database (CSD) v543 
# hosted by the Cambridge Crystallographic Data Centre (CCDC).
#
# This work is licensed under the Creative Commons
# Attribution-NonCommercial-ShareAlike 4.0 International License.
# To view a copy of this license, visit
# http://creativecommons.org/licenses/by-nc-sa/4.0/
# or send a letter to
# Creative Commons, PO Box 1866, Mountain View, CA 94042, USA.
#
# CIF created using the CSD Python API on 29 September 2022
# The structure has been converted into the P1 space group
# The structure has a 3D framework
# The original CSD entry GOMFOF is in the tetragonal crystal system
# The framework has been calculated to contain at least 10.0% void space
# The void calculation uses a probe of radius 1.32A, grid spacing 0.4
#
###############################################################################

data_GOMFOF
_chemical_formula_moiety         '(C352 H192 K14 N32 Na20 O83 Pd12 S32)n'
_symmetry_cell_setting           triclinic
_symmetry_space_group_name_H-M   'P 1'
_symmetry_Int_Tables_number      1
_space_group_name_Hall           'P 1'
loop_
_symmetry_equiv_pos_site_id
_symmetry_equiv_pos_as_xyz
1 x,y,z
_cell_length_a                   45.708(7)
_cell_length_b                   45.708(7)
_cell_length_c                   7.9819(16)
_cell_angle_alpha                90
_cell_angle_beta                 90
_cell_angle_gamma                90
_cell_volume                     16676
loop_
_atom_site_label
_atom_site_type_symbol
_atom_site_fract_x
_atom_site_fract_y
_atom_site_fract_z
Pd1 Pd 0.5000 0.2500 0.1250
N1 N 0.5374(2) 0.2725(4) 0.1210(15)
C1 C 0.5404(5) 0.3042(4) 0.1171(19)
C2 C 0.5710(3) 0.3093(3) 0.0749(15)
H1 H 0.5793 0.3281 0.0586
C3 C 0.5859(3) 0.2838(4) 0.0619(16)
H2 H 0.6061 0.2817 0.0372
C4 C 0.5654(4) 0.2606(5) 0.0926(17)
C5 C 0.5742(4) 0.2310(5) 0.1063(18)
C6 C 0.6046(4) 0.2232(4) 0.092(3)
C7 C 0.6246(5) 0.2374(3) 0.1911(18)
H3 H 0.6181 0.2513 0.2720
C8 C 0.6543(5) 0.2315(4) 0.173(2)
H4 H 0.6683 0.2403 0.2448
C9 C 0.6624(3) 0.2130(5) 0.053(4)
S1 S 0.70142(13) 0.2058(2) 0.0028(16)
O1 O 0.7124(4) 0.1977(5) 0.157(3)
Na1 Na 0.7529(4) 0.1601(9) 0.257(6)
N2 N 0.4775(4) 0.2874(2) 0.1290(15)
C12 C 0.4458(4) 0.2904(5) 0.1329(19)
C13 C 0.4407(3) 0.3210(3) 0.1751(15)
H7 H 0.4219 0.3293 0.1914
C14 C 0.4662(4) 0.3359(3) 0.1881(16)
H8 H 0.4683 0.3561 0.2128
C15 C 0.4894(5) 0.3154(4) 0.1574(17)
C16 C 0.5190(5) 0.3242(4) 0.1437(18)
C17 C 0.5268(4) 0.3546(4) 0.158(3)
C18 C 0.5126(3) 0.3746(5) 0.0589(18)
C19 C 0.5185(4) 0.4043(5) 0.077(2)
H10 H 0.5097 0.4183 0.0052
C20 C 0.5370(5) 0.4124(3) 0.197(4)
C21 C 0.5527(3) 0.3932(6) 0.2947(19)
H11 H 0.5668 0.4002 0.3726
C22 C 0.5476(4) 0.3635(4) 0.276(2)
H12 H 0.5579 0.3495 0.3421
S2 S 0.5442(2) 0.45142(13) 0.2472(16)
O4 O 0.5523(5) 0.4624(4) 0.093(3)
O5 O 0.5175(5) 0.4634(3) 0.269(3)
O6 O 0.5643(6) 0.4540(3) 0.359(4)
N3 N 0.5225(4) 0.2126(2) 0.1290(15)
C23 C 0.5542(4) 0.2096(5) 0.1329(19)
C24 C 0.5593(3) 0.1790(3) 0.1751(15)
H13 H 0.5781 0.1707 0.1914
C25 C 0.5338(4) 0.1641(3) 0.1881(16)
H14 H 0.5317 0.1439 0.2128
C26 C 0.5106(5) 0.1846(4) 0.1574(17)
C27 C 0.4810(5) 0.1758(4) 0.1437(18)
C28 C 0.4732(4) 0.1454(4) 0.158(3)
C29 C 0.4874(3) 0.1254(5) 0.0589(18)
C30 C 0.4815(4) 0.0957(5) 0.077(2)
H16 H 0.4903 0.0817 0.0052
C31 C 0.4630(5) 0.0876(3) 0.197(4)
C32 C 0.4473(3) 0.1068(6) 0.2947(19)
H17 H 0.4332 0.0998 0.3726
C33 C 0.4524(4) 0.1365(4) 0.276(2)
H18 H 0.4421 0.1505 0.3421
S3 S 0.4558(2) 0.04858(13) 0.2472(16)
O7 O 0.4477(5) 0.0376(4) 0.093(3)
O8 O 0.4825(5) 0.0366(3) 0.269(3)
O9 O 0.4357(6) 0.0460(3) 0.359(4)
N4 N 0.4626(2) 0.2275(4) 0.1210(15)
C34 C 0.4596(5) 0.1958(4) 0.1171(19)
C35 C 0.4290(3) 0.1907(3) 0.0749(15)
H19 H 0.4207 0.1719 0.0586
C36 C 0.4141(3) 0.2162(4) 0.0619(16)
H20 H 0.3939 0.2183 0.0372
C37 C 0.4346(4) 0.2394(5) 0.0926(17)
C38 C 0.4258(4) 0.2690(5) 0.1063(18)
C39 C 0.3954(4) 0.2768(4) 0.092(3)
C40 C 0.3754(5) 0.2626(3) 0.1911(18)
H21 H 0.3819 0.2487 0.2720
C41 C 0.3457(5) 0.2685(4) 0.173(2)
H22 H 0.3317 0.2597 0.2448
C42 C 0.3376(3) 0.2870(5) 0.053(4)
S4 S 0.29858(13) 0.2942(2) 0.0028(16)
O10 O 0.2876(4) 0.3023(5) 0.157(3)
K2 K 0.7500 0.2500 0.2500
Na4 Na 0.5899(9) 0.4971(4) 0.507(6)
K3 K 0.5000 0.5000 0.5000
K4 K 0.5000 0.5000 0.0000
K6 K 0.5000 0.0000 0.5000
K7 K 0.2500 0.2500 0.2500
K8 K 0.5000 0.0000 0.0000
O14 O 0.5523(5) 0.5376(4) 0.407(3)
O15 O 0.7876(4) 0.3023(5) 0.343(3)
O17 O 0.7866(3) 0.2325(5) 0.019(3)
O19 O 0.7866(3) 0.2675(5) 0.519(3)
O21 O 0.7134(3) 0.2675(5) 0.481(3)
O22 O 0.7960(3) 0.1857(6) 0.109(4)
O23 O 0.5643(6) 0.5460(3) 0.141(4)
Na5 Na 0.2471(4) 0.3399(9) 0.257(6)
Na8 Na 0.4101(9) 0.0029(4) 0.507(6)
C10 C 0.6432(6) 0.1973(3) 0.9553(19)
H5 H 0.6502 0.1832 0.8774
C11 C 0.6135(4) 0.2024(4) 0.974(2)
H6 H 0.5995 0.1921 0.9079
K1 K 0.7500 0.2500 0.7500
O2 O 0.7134(3) 0.2325(5) 0.981(3)
O3 O 0.7040(3) 0.1857(6) 0.891(4)
H9 H 0.4987 0.3681 0.9780
H15 H 0.5013 0.1319 0.9780
C43 C 0.3568(6) 0.3027(3) 0.9553(19)
H23 H 0.3498 0.3168 0.8774
C44 C 0.3865(4) 0.2976(4) 0.974(2)
H24 H 0.4005 0.3079 0.9079
O11 O 0.2866(3) 0.2675(5) 0.981(3)
O12 O 0.2960(3) 0.3143(6) 0.891(4)
Na2 Na 0.7471(4) 0.1601(9) 0.743(6)
Na3 Na 0.5899(9) 0.5029(4) 0.993(6)
K4_2 K 0.5000 0.5000 1.0000
K5 K 0.2500 0.2500 0.7500
K8_2 K 0.5000 0.0000 1.0000
O13 O 0.7876(4) 0.1977(5) 0.843(3)
O16 O 0.7124(4) 0.3023(5) 0.657(3)
Na6 Na 0.2529(4) 0.3399(9) 0.743(6)
K6_2 K 0.5000 1.0000 0.5000
K8_3 K 0.5000 1.0000 0.0000
K8_4 K 0.5000 1.0000 1.0000
Na7 Na 0.4101(9) 0.9971(4) 0.993(6)
K6_3 K 0.0000 -0.0000 -0.0000
K6_4 K 0.0000 0.0000 1.0000
K8_5 K 0.0000 0.0000 0.5000
Na7_2 Na 0.0899(9) 0.0029(4) 0.493(6)
K3_2 K 0.0000 0.5000 -0.0000
K6_5 K 0.0000 1.0000 -0.0000
Na8_2 Na 0.0899(9) 0.9971(4) 0.007(6)
Pd1_2 Pd 0.0000 0.7500 0.6250
N2_2 N 0.0225(4) 0.7126(2) 0.6290(15)
C12_2 C 0.0542(4) 0.7096(5) 0.6329(19)
C13_2 C 0.0593(3) 0.6790(3) 0.6751(15)
H7_2 H 0.0781 0.6707 0.6914
C14_2 C 0.0338(4) 0.6641(3) 0.6881(16)
H8_2 H 0.0317 0.6439 0.7128
C15_2 C 0.0106(5) 0.6846(4) 0.6574(17)
H9_2 H 0.0013 0.6319 0.4780
C27_2 C 0.0190(5) 0.8242(4) 0.6437(18)
C28_2 C 0.0268(4) 0.8546(4) 0.658(3)
C29_2 C 0.0126(3) 0.8746(5) 0.5589(18)
C30_2 C 0.0185(4) 0.9043(5) 0.577(2)
H16_2 H 0.0097 0.9183 0.5052
C31_2 C 0.0370(5) 0.9124(3) 0.697(4)
C32_2 C 0.0527(3) 0.8932(6) 0.7947(19)
H17_2 H 0.0668 0.9002 0.8726
C33_2 C 0.0476(4) 0.8635(4) 0.776(2)
H18_2 H 0.0579 0.8495 0.8421
S3_2 S 0.0442(2) 0.95142(13) 0.7472(16)
O7_2 O 0.0523(5) 0.9624(4) 0.593(3)
O8_2 O 0.0175(5) 0.9634(3) 0.769(3)
O9_2 O 0.0643(6) 0.9540(3) 0.859(4)
N4_2 N 0.0374(2) 0.7725(4) 0.6210(15)
C34_2 C 0.0404(5) 0.8042(4) 0.6171(19)
C35_2 C 0.0710(3) 0.8093(3) 0.5749(15)
H19_2 H 0.0793 0.8281 0.5586
C36_2 C 0.0859(3) 0.7838(4) 0.5619(16)
H20_2 H 0.1061 0.7817 0.5372
C37_2 C 0.0654(4) 0.7606(5) 0.5926(17)
C38_2 C 0.0742(4) 0.7310(5) 0.6063(18)
C39_2 C 0.1046(4) 0.7232(4) 0.592(3)
C40_2 C 0.1246(5) 0.7374(3) 0.6911(18)
H21_2 H 0.1181 0.7513 0.7720
C41_2 C 0.1543(5) 0.7315(4) 0.673(2)
H22_2 H 0.1683 0.7403 0.7448
C42_2 C 0.1624(3) 0.7130(5) 0.553(4)
C43_2 C 0.1432(6) 0.6973(3) 0.4553(19)
H23_2 H 0.1502 0.6832 0.3774
C44_2 C 0.1135(4) 0.7024(4) 0.474(2)
H24_2 H 0.0995 0.6921 0.4079
S4_2 S 0.20142(13) 0.7058(2) 0.5028(16)
O10_2 O 0.2124(4) 0.6977(5) 0.657(3)
O11_2 O 0.2134(3) 0.7325(5) 0.481(3)
O12_2 O 0.2040(3) 0.6857(6) 0.391(4)
K3_3 K 0.0000 0.5000 1.0000
K4_3 K 0.0000 0.5000 0.5000
K5_2 K 0.2500 0.7500 0.2500
K6_6 K 0.0000 1.0000 1.0000
K7_2 K 0.2500 0.7500 0.7500
K8_6 K 0.0000 1.0000 0.5000
Na5_2 Na 0.2529(4) 0.6601(9) 0.757(6)
Na6_2 Na 0.2471(4) 0.6601(9) 0.243(6)
K6_7 K 1.0000 -0.0000 -0.0000
K6_8 K 1.0000 0.0000 1.0000
K8_7 K 1.0000 0.0000 0.5000
Na4_2 Na 0.9101(9) 0.5029(4) 0.007(6)
K3_4 K 1.0000 0.5000 -0.0000
K6_9 K 1.0000 1.0000 -0.0000
O19_2 O 0.7134(3) 0.7325(5) 0.019(3)
Pd1_3 Pd 1.0000 0.7500 0.6250
N1_2 N 0.9626(2) 0.7275(4) 0.6210(15)
C1_2 C 0.9596(5) 0.6958(4) 0.6171(19)
C2_2 C 0.9290(3) 0.6907(3) 0.5749(15)
H1_2 H 0.9207 0.6719 0.5586
C3_2 C 0.9141(3) 0.7162(4) 0.5619(16)
H2_2 H 0.8939 0.7183 0.5372
C4_2 C 0.9346(4) 0.7394(5) 0.5926(17)
C5_2 C 0.9258(4) 0.7690(5) 0.6063(18)
C6_2 C 0.8954(4) 0.7768(4) 0.592(3)
C7_2 C 0.8754(5) 0.7626(3) 0.6911(18)
H3_2 H 0.8819 0.7487 0.7720
C8_2 C 0.8457(5) 0.7685(4) 0.673(2)
H4_2 H 0.8317 0.7597 0.7448
C9_2 C 0.8376(3) 0.7870(5) 0.553(4)
C10_2 C 0.8568(6) 0.8027(3) 0.4553(19)
H5_2 H 0.8498 0.8168 0.3774
C11_2 C 0.8865(4) 0.7976(4) 0.474(2)
H6_2 H 0.9005 0.8079 0.4079
S1_2 S 0.79858(13) 0.7942(2) 0.5028(16)
K1_2 K 0.7500 0.7500 0.2500
O1_2 O 0.7876(4) 0.8023(5) 0.657(3)
O2_2 O 0.7866(3) 0.7675(5) 0.481(3)
O3_2 O 0.7960(3) 0.8143(6) 0.391(4)
Na1_2 Na 0.7471(4) 0.8399(9) 0.757(6)
C16_2 C 0.9810(5) 0.6758(4) 0.6437(18)
C17_2 C 0.9732(4) 0.6454(4) 0.658(3)
C18_2 C 0.9874(3) 0.6254(5) 0.5589(18)
C19_2 C 0.9815(4) 0.5957(5) 0.577(2)
H10_2 H 0.9903 0.5817 0.5052
C20_2 C 0.9630(5) 0.5876(3) 0.697(4)
C21_2 C 0.9473(3) 0.6068(6) 0.7947(19)
H11_2 H 0.9332 0.5998 0.8726
C22_2 C 0.9524(4) 0.6365(4) 0.776(2)
H12_2 H 0.9421 0.6505 0.8421
S2_2 S 0.9558(2) 0.54858(13) 0.7472(16)
O4_2 O 0.9477(5) 0.5376(4) 0.593(3)
O5_2 O 0.9825(5) 0.5366(3) 0.769(3)
O6_2 O 0.9357(6) 0.5460(3) 0.859(4)
N3_2 N 0.9775(4) 0.7874(2) 0.6290(15)
C23_2 C 0.9458(4) 0.7904(5) 0.6329(19)
C24_2 C 0.9407(3) 0.8210(3) 0.6751(15)
H13_2 H 0.9219 0.8293 0.6914
C25_2 C 0.9662(4) 0.8359(3) 0.6881(16)
H14_2 H 0.9683 0.8561 0.7128
C26_2 C 0.9894(5) 0.8154(4) 0.6574(17)
H15_2 H 0.9987 0.8681 0.4780
K2_2 K 0.7500 0.7500 0.7500
Na2_2 Na 0.7529(4) 0.8399(9) 0.243(6)
Na3_2 Na 0.9101(9) 0.4971(4) 0.493(6)
K3_5 K 1.0000 0.5000 1.0000
K4_4 K 1.0000 0.5000 0.5000
K6_10 K 1.0000 1.0000 1.0000
K8_8 K 1.0000 1.0000 0.5000
O13_2 O 0.7124(4) 0.8023(5) 0.343(3)
O14_2 O 0.9477(5) 0.4624(4) 0.907(3)
O15_2 O 0.7124(4) 0.6977(5) 0.843(3)
O16_2 O 0.7876(4) 0.6977(5) 0.157(3)
O17_2 O 0.7134(3) 0.7675(5) 0.519(3)
O21_2 O 0.7866(3) 0.7325(5) 0.981(3)
O22_2 O 0.7040(3) 0.8143(6) 0.609(4)
O23_2 O 0.9357(6) 0.4540(3) 0.641(4)
Pd1_4 Pd 0.0000 0.2500 0.3750
C5_3 C 0.0190(5) 0.3242(4) 0.3563(18)
C6_3 C 0.0268(4) 0.3546(4) 0.342(3)
C7_3 C 0.0126(3) 0.3746(5) 0.4411(18)
C8_3 C 0.0185(4) 0.4043(5) 0.423(2)
H4_3 H 0.0097 0.4183 0.4948
C9_3 C 0.0370(5) 0.4124(3) 0.303(4)
C10_3 C 0.0527(3) 0.3932(6) 0.2053(19)
H5_3 H 0.0668 0.4002 0.1274
C11_3 C 0.0476(4) 0.3635(4) 0.224(2)
H6_3 H 0.0579 0.3495 0.1579
S1_3 S 0.0442(2) 0.45142(13) 0.2528(16)
O1_3 O 0.0523(5) 0.4624(4) 0.407(3)
O2_3 O 0.0175(5) 0.4634(3) 0.231(3)
O3_3 O 0.0643(6) 0.4540(3) 0.141(4)
Na1_3 Na 0.0899(9) 0.5029(4) 0.507(6)
N3_3 N 0.0374(2) 0.2725(4) 0.3790(15)
C23_3 C 0.0404(5) 0.3042(4) 0.3829(19)
C24_3 C 0.0710(3) 0.3093(3) 0.4251(15)
H13_3 H 0.0793 0.3281 0.4414
C25_3 C 0.0859(3) 0.2838(4) 0.4381(16)
H14_3 H 0.1061 0.2817 0.4628
C26_3 C 0.0654(4) 0.2606(5) 0.4074(17)
C27_3 C 0.0742(4) 0.2310(5) 0.3937(18)
C28_3 C 0.1046(4) 0.2232(4) 0.408(3)
C29_3 C 0.1246(5) 0.2374(3) 0.3089(18)
H15_3 H 0.1181 0.2513 0.2280
C30_3 C 0.1543(5) 0.2315(4) 0.327(2)
H16_3 H 0.1683 0.2403 0.2552
C31_3 C 0.1624(3) 0.2130(5) 0.447(4)
C32_3 C 0.1432(6) 0.1973(3) 0.5447(19)
H17_3 H 0.1502 0.1832 0.6226
C33_3 C 0.1135(4) 0.2024(4) 0.526(2)
H18_3 H 0.0995 0.1921 0.5921
S3_3 S 0.20142(13) 0.2058(2) 0.4972(16)
O7_3 O 0.2124(4) 0.1977(5) 0.343(3)
O8_3 O 0.2134(3) 0.2325(5) 0.519(3)
O9_3 O 0.2040(3) 0.1857(6) 0.609(4)
N4_3 N 0.0225(4) 0.2126(2) 0.3710(15)
C34_3 C 0.0542(4) 0.2096(5) 0.3671(19)
C35_3 C 0.0593(3) 0.1790(3) 0.3249(15)
H19_3 H 0.0781 0.1707 0.3086
C36_3 C 0.0338(4) 0.1641(3) 0.3119(16)
H20_3 H 0.0317 0.1439 0.2872
C37_3 C 0.0106(5) 0.1846(4) 0.3426(17)
H21_3 H 0.0013 0.1319 0.5220
O13_3 O 0.0523(5) 0.5376(4) 0.093(3)
O17_3 O 0.0175(5) 0.5366(3) 0.269(3)
O22_3 O 0.0643(6) 0.5460(3) 0.359(4)
Na7_3 Na 0.2529(4) 0.1601(9) 0.243(6)
Na8_3 Na 0.2471(4) 0.1601(9) 0.757(6)
Na2_3 Na 0.0899(9) 0.4971(4) 0.993(6)
Pd1_5 Pd 1.0000 0.2500 0.3750
N1_3 N 0.9775(4) 0.2874(2) 0.3710(15)
C1_3 C 0.9458(4) 0.2904(5) 0.3671(19)
C2_3 C 0.9407(3) 0.3210(3) 0.3249(15)
H1_3 H 0.9219 0.3293 0.3086
C3_3 C 0.9662(4) 0.3359(3) 0.3119(16)
H2_3 H 0.9683 0.3561 0.2872
C4_3 C 0.9894(5) 0.3154(4) 0.3426(17)
H3_3 H 0.9987 0.3681 0.5220
N2_3 N 0.9626(2) 0.2275(4) 0.3790(15)
C12_3 C 0.9596(5) 0.1958(4) 0.3829(19)
C13_3 C 0.9290(3) 0.1907(3) 0.4251(15)
H7_3 H 0.9207 0.1719 0.4414
C14_3 C 0.9141(3) 0.2162(4) 0.4381(16)
H8_3 H 0.8939 0.2183 0.4628
C15_3 C 0.9346(4) 0.2394(5) 0.4074(17)
C16_3 C 0.9258(4) 0.2690(5) 0.3937(18)
C17_3 C 0.8954(4) 0.2768(4) 0.408(3)
C18_3 C 0.8754(5) 0.2626(3) 0.3089(18)
H9_3 H 0.8819 0.2487 0.2280
C19_3 C 0.8457(5) 0.2685(4) 0.327(2)
H10_3 H 0.8317 0.2597 0.2552
C20_3 C 0.8376(3) 0.2870(5) 0.447(4)
C21_3 C 0.8568(6) 0.3027(3) 0.5447(19)
H11_3 H 0.8498 0.3168 0.6226
C22_3 C 0.8865(4) 0.2976(4) 0.526(2)
H12_3 H 0.9005 0.3079 0.5921
S2_3 S 0.79858(13) 0.2942(2) 0.4972(16)
O6_3 O 0.7960(3) 0.3143(6) 0.609(4)
C38_3 C 0.9810(5) 0.1758(4) 0.3563(18)
C39_3 C 0.9732(4) 0.1454(4) 0.342(3)
C40_3 C 0.9874(3) 0.1254(5) 0.4411(18)
C41_3 C 0.9815(4) 0.0957(5) 0.423(2)
H22_3 H 0.9903 0.0817 0.4948
C42_3 C 0.9630(5) 0.0876(3) 0.303(4)
C43_3 C 0.9473(3) 0.1068(6) 0.2053(19)
H23_3 H 0.9332 0.0998 0.1274
C44_3 C 0.9524(4) 0.1365(4) 0.224(2)
H24_3 H 0.9421 0.1505 0.1579
S4_3 S 0.9558(2) 0.04858(13) 0.2528(16)
O10_3 O 0.9477(5) 0.0376(4) 0.407(3)
O11_3 O 0.9825(5) 0.0366(3) 0.231(3)
O12_3 O 0.9357(6) 0.0460(3) 0.141(4)
Na3_3 Na 0.7471(4) 0.3399(9) 0.243(6)
Na4_3 Na 0.7529(4) 0.3399(9) 0.757(6)
O21_3 O 0.9825(5) 0.4634(3) 0.731(3)
O23_3 O 0.7040(3) 0.3143(6) 0.391(4)
Na6_3 Na 0.9101(9) 0.0029(4) 0.993(6)
Na5_3 Na 0.9101(9) 0.9971(4) 0.507(6)
Na5_4 Na 0.5899(9) 0.0029(4) 0.007(6)
H3_4 H 0.5013 0.6319 0.0220
Na1_4 Na 0.4101(9) 0.4971(4) 0.007(6)
C21_4 C 0.6432(6) 0.6973(3) 0.0447(19)
H11_4 H 0.6502 0.6832 0.1226
C22_4 C 0.6135(4) 0.7024(4) 0.026(2)
H12_4 H 0.5995 0.6921 0.0921
O6_4 O 0.7040(3) 0.6857(6) 0.109(4)
C32_4 C 0.3568(6) 0.8027(3) 0.0447(19)
H17_4 H 0.3498 0.8168 0.1226
C33_4 C 0.3865(4) 0.7976(4) 0.026(2)
H18_4 H 0.4005 0.8079 0.0921
O8_4 O 0.2866(3) 0.7675(5) 0.019(3)
O9_4 O 0.2960(3) 0.8143(6) 0.109(4)
H21_4 H 0.4987 0.8681 0.0220
Na4_4 Na 0.7471(4) 0.6601(9) 0.257(6)
O21_4 O 0.5175(5) 0.5366(3) 0.231(3)
Na8_4 Na 0.2529(4) 0.8399(9) 0.257(6)
Pd1_6 Pd 0.5000 0.7500 0.8750
N1_4 N 0.5225(4) 0.7126(2) 0.8710(15)
C1_4 C 0.5542(4) 0.7096(5) 0.8671(19)
C2_4 C 0.5593(3) 0.6790(3) 0.8249(15)
H1_4 H 0.5781 0.6707 0.8086
C3_4 C 0.5338(4) 0.6641(3) 0.8119(16)
H2_4 H 0.5317 0.6439 0.7872
C4_4 C 0.5106(5) 0.6846(4) 0.8426(17)
C5_4 C 0.4810(5) 0.6758(4) 0.8563(18)
C6_4 C 0.4732(4) 0.6454(4) 0.842(3)
C7_4 C 0.4874(3) 0.6254(5) 0.9411(18)
C8_4 C 0.4815(4) 0.5957(5) 0.923(2)
H4_4 H 0.4903 0.5817 0.9948
C9_4 C 0.4630(5) 0.5876(3) 0.803(4)
C10_4 C 0.4473(3) 0.6068(6) 0.7053(19)
H5_4 H 0.4332 0.5998 0.6274
C11_4 C 0.4524(4) 0.6365(4) 0.724(2)
H6_4 H 0.4421 0.6505 0.6579
S1_4 S 0.4558(2) 0.54858(13) 0.7528(16)
O1_4 O 0.4477(5) 0.5376(4) 0.907(3)
O2_4 O 0.4825(5) 0.5366(3) 0.731(3)
O3_4 O 0.4357(6) 0.5460(3) 0.641(4)
N2_4 N 0.5374(2) 0.7725(4) 0.8790(15)
C12_4 C 0.5404(5) 0.8042(4) 0.8829(19)
C13_4 C 0.5710(3) 0.8093(3) 0.9251(15)
H7_4 H 0.5793 0.8281 0.9414
C14_4 C 0.5859(3) 0.7838(4) 0.9381(16)
H8_4 H 0.6061 0.7817 0.9628
C15_4 C 0.5654(4) 0.7606(5) 0.9074(17)
C16_4 C 0.5742(4) 0.7310(5) 0.8937(18)
C17_4 C 0.6046(4) 0.7232(4) 0.908(3)
C18_4 C 0.6246(5) 0.7374(3) 0.8089(18)
H9_4 H 0.6181 0.7513 0.7280
C19_4 C 0.6543(5) 0.7315(4) 0.827(2)
H10_4 H 0.6683 0.7403 0.7552
C20_4 C 0.6624(3) 0.7130(5) 0.947(4)
S2_4 S 0.70142(13) 0.7058(2) 0.9972(16)
N3_4 N 0.4626(2) 0.7275(4) 0.8790(15)
C23_4 C 0.4596(5) 0.6958(4) 0.8829(19)
C24_4 C 0.4290(3) 0.6907(3) 0.9251(15)
H13_4 H 0.4207 0.6719 0.9414
C25_4 C 0.4141(3) 0.7162(4) 0.9381(16)
H14_4 H 0.3939 0.7183 0.9628
C26_4 C 0.4346(4) 0.7394(5) 0.9074(17)
C27_4 C 0.4258(4) 0.7690(5) 0.8937(18)
C28_4 C 0.3954(4) 0.7768(4) 0.908(3)
C29_4 C 0.3754(5) 0.7626(3) 0.8089(18)
H15_4 H 0.3819 0.7487 0.7280
C30_4 C 0.3457(5) 0.7685(4) 0.827(2)
H16_4 H 0.3317 0.7597 0.7552
C31_4 C 0.3376(3) 0.7870(5) 0.947(4)
S3_4 S 0.29858(13) 0.7942(2) 0.9972(16)
O7_4 O 0.2876(4) 0.8023(5) 0.843(3)
N4_4 N 0.4775(4) 0.7874(2) 0.8710(15)
C34_4 C 0.4458(4) 0.7904(5) 0.8671(19)
C35_4 C 0.4407(3) 0.8210(3) 0.8249(15)
H19_4 H 0.4219 0.8293 0.8086
C36_4 C 0.4662(4) 0.8359(3) 0.8119(16)
H20_4 H 0.4683 0.8561 0.7872
C37_4 C 0.4894(5) 0.8154(4) 0.8426(17)
C38_4 C 0.5190(5) 0.8242(4) 0.8563(18)
C39_4 C 0.5268(4) 0.8546(4) 0.842(3)
C40_4 C 0.5126(3) 0.8746(5) 0.9411(18)
C41_4 C 0.5185(4) 0.9043(5) 0.923(2)
H22_4 H 0.5097 0.9183 0.9948
C42_4 C 0.5370(5) 0.9124(3) 0.803(4)
C43_4 C 0.5527(3) 0.8932(6) 0.7053(19)
H23_4 H 0.5668 0.9002 0.6274
C44_4 C 0.5476(4) 0.8635(4) 0.724(2)
H24_4 H 0.5579 0.8495 0.6579
S4_4 S 0.5442(2) 0.95142(13) 0.7528(16)
O10_4 O 0.5523(5) 0.9624(4) 0.907(3)
O11_4 O 0.5175(5) 0.9634(3) 0.731(3)
O12_4 O 0.5643(6) 0.9540(3) 0.641(4)
Na2_4 Na 0.4101(9) 0.5029(4) 0.493(6)
Na3_4 Na 0.7529(4) 0.6601(9) 0.743(6)
O13_4 O 0.4477(5) 0.4624(4) 0.593(3)
O17_4 O 0.4825(5) 0.4634(3) 0.769(3)
O22_4 O 0.4357(6) 0.4540(3) 0.859(4)
O23_4 O 0.7960(3) 0.6857(6) 0.891(4)
Na6_4 Na 0.5899(9) 0.9971(4) 0.493(6)
Na7_4 Na 0.2471(4) 0.8399(9) 0.743(6)
H9_5 H 0.0013 0.3681 0.0220
C43_5 C 0.1432(6) 0.3027(3) 0.0447(19)
H23_5 H 0.1502 0.3168 0.1226
C44_5 C 0.1135(4) 0.2976(4) 0.026(2)
H24_5 H 0.0995 0.3079 0.0921
O11_5 O 0.2134(3) 0.2675(5) 0.019(3)
O12_5 O 0.2040(3) 0.3143(6) 0.109(4)
Pd1_7 Pd 0.0000 0.2500 0.8750
N2_5 N 0.0225(4) 0.2874(2) 0.8710(15)
C12_5 C 0.0542(4) 0.2904(5) 0.8671(19)
C13_5 C 0.0593(3) 0.3210(3) 0.8249(15)
H7_5 H 0.0781 0.3293 0.8086
C14_5 C 0.0338(4) 0.3359(3) 0.8119(16)
H8_5 H 0.0317 0.3561 0.7872
C15_5 C 0.0106(5) 0.3154(4) 0.8426(17)
C27_5 C 0.0190(5) 0.1758(4) 0.8563(18)
C28_5 C 0.0268(4) 0.1454(4) 0.842(3)
C29_5 C 0.0126(3) 0.1254(5) 0.9411(18)
C30_5 C 0.0185(4) 0.0957(5) 0.923(2)
H16_5 H 0.0097 0.0817 0.9948
C31_5 C 0.0370(5) 0.0876(3) 0.803(4)
C32_5 C 0.0527(3) 0.1068(6) 0.7053(19)
H17_5 H 0.0668 0.0998 0.6274
C33_5 C 0.0476(4) 0.1365(4) 0.724(2)
H18_5 H 0.0579 0.1505 0.6579
S3_5 S 0.0442(2) 0.04858(13) 0.7528(16)
O7_5 O 0.0523(5) 0.0376(4) 0.907(3)
O8_5 O 0.0175(5) 0.0366(3) 0.731(3)
O9_5 O 0.0643(6) 0.0460(3) 0.641(4)
N4_5 N 0.0374(2) 0.2275(4) 0.8790(15)
C34_5 C 0.0404(5) 0.1958(4) 0.8829(19)
C35_5 C 0.0710(3) 0.1907(3) 0.9251(15)
H19_5 H 0.0793 0.1719 0.9414
C36_5 C 0.0859(3) 0.2162(4) 0.9381(16)
H20_5 H 0.1061 0.2183 0.9628
C37_5 C 0.0654(4) 0.2394(5) 0.9074(17)
C38_5 C 0.0742(4) 0.2690(5) 0.8937(18)
C39_5 C 0.1046(4) 0.2768(4) 0.908(3)
C40_5 C 0.1246(5) 0.2626(3) 0.8089(18)
H21_5 H 0.1181 0.2487 0.7280
C41_5 C 0.1543(5) 0.2685(4) 0.827(2)
H22_5 H 0.1683 0.2597 0.7552
C42_5 C 0.1624(3) 0.2870(5) 0.947(4)
S4_5 S 0.20142(13) 0.2942(2) 0.9972(16)
O10_5 O 0.2124(4) 0.3023(5) 0.843(3)
C10_5 C 0.8568(6) 0.1973(3) 0.0447(19)
H5_5 H 0.8498 0.1832 0.1226
C11_5 C 0.8865(4) 0.2024(4) 0.026(2)
H6_5 H 0.9005 0.1921 0.0921
H15_5 H 0.9987 0.1319 0.0220
Pd1_8 Pd 1.0000 0.2500 0.8750
N1_5 N 0.9626(2) 0.2725(4) 0.8790(15)
C1_5 C 0.9596(5) 0.3042(4) 0.8829(19)
C2_5 C 0.9290(3) 0.3093(3) 0.9251(15)
H1_5 H 0.9207 0.3281 0.9414
C3_5 C 0.9141(3) 0.2838(4) 0.9381(16)
H2_5 H 0.8939 0.2817 0.9628
C4_5 C 0.9346(4) 0.2606(5) 0.9074(17)
C5_5 C 0.9258(4) 0.2310(5) 0.8937(18)
C6_5 C 0.8954(4) 0.2232(4) 0.908(3)
C7_5 C 0.8754(5) 0.2374(3) 0.8089(18)
H3_5 H 0.8819 0.2513 0.7280
C8_5 C 0.8457(5) 0.2315(4) 0.827(2)
H4_5 H 0.8317 0.2403 0.7552
C9_5 C 0.8376(3) 0.2130(5) 0.947(4)
S1_5 S 0.79858(13) 0.2058(2) 0.9972(16)
C16_5 C 0.9810(5) 0.3242(4) 0.8563(18)
C17_5 C 0.9732(4) 0.3546(4) 0.842(3)
C18_5 C 0.9874(3) 0.3746(5) 0.9411(18)
C19_5 C 0.9815(4) 0.4043(5) 0.923(2)
H10_5 H 0.9903 0.4183 0.9948
C20_5 C 0.9630(5) 0.4124(3) 0.803(4)
C21_5 C 0.9473(3) 0.3932(6) 0.7053(19)
H11_5 H 0.9332 0.4002 0.6274
C22_5 C 0.9524(4) 0.3635(4) 0.724(2)
H12_5 H 0.9421 0.3495 0.6579
S2_5 S 0.9558(2) 0.45142(13) 0.7528(16)
N3_5 N 0.9775(4) 0.2126(2) 0.8710(15)
C23_5 C 0.9458(4) 0.2096(5) 0.8671(19)
C24_5 C 0.9407(3) 0.1790(3) 0.8249(15)
H13_5 H 0.9219 0.1707 0.8086
C25_5 C 0.9662(4) 0.1641(3) 0.8119(16)
H14_5 H 0.9683 0.1439 0.7872
C26_5 C 0.9894(5) 0.1846(4) 0.8426(17)
Pd1_9 Pd 0.5000 0.7500 0.3750
N1_6 N 0.5374(2) 0.7275(4) 0.3790(15)
C1_6 C 0.5404(5) 0.6958(4) 0.3829(19)
C2_6 C 0.5710(3) 0.6907(3) 0.4251(15)
H1_6 H 0.5793 0.6719 0.4414
C3_6 C 0.5859(3) 0.7162(4) 0.4381(16)
H2_6 H 0.6061 0.7183 0.4628
C4_6 C 0.5654(4) 0.7394(5) 0.4074(17)
C5_6 C 0.5742(4) 0.7690(5) 0.3937(18)
C6_6 C 0.6046(4) 0.7768(4) 0.408(3)
C7_6 C 0.6246(5) 0.7626(3) 0.3089(18)
H3_6 H 0.6181 0.7487 0.2280
C8_6 C 0.6543(5) 0.7685(4) 0.327(2)
H4_6 H 0.6683 0.7597 0.2552
C9_6 C 0.6624(3) 0.7870(5) 0.447(4)
C10_6 C 0.6432(6) 0.8027(3) 0.5447(19)
H5_6 H 0.6502 0.8168 0.6226
C11_6 C 0.6135(4) 0.7976(4) 0.526(2)
H6_6 H 0.5995 0.8079 0.5921
S1_6 S 0.70142(13) 0.7942(2) 0.4972(16)
N2_6 N 0.4775(4) 0.7126(2) 0.3710(15)
C12_6 C 0.4458(4) 0.7096(5) 0.3671(19)
C13_6 C 0.4407(3) 0.6790(3) 0.3249(15)
H7_6 H 0.4219 0.6707 0.3086
C14_6 C 0.4662(4) 0.6641(3) 0.3119(16)
H8_6 H 0.4683 0.6439 0.2872
C15_6 C 0.4894(5) 0.6846(4) 0.3426(17)
C16_6 C 0.5190(5) 0.6758(4) 0.3563(18)
C17_6 C 0.5268(4) 0.6454(4) 0.342(3)
C18_6 C 0.5126(3) 0.6254(5) 0.4411(18)
H9_6 H 0.4987 0.6319 0.5220
C19_6 C 0.5185(4) 0.5957(5) 0.423(2)
H10_6 H 0.5097 0.5817 0.4948
C20_6 C 0.5370(5) 0.5876(3) 0.303(4)
C21_6 C 0.5527(3) 0.6068(6) 0.2053(19)
H11_6 H 0.5668 0.5998 0.1274
C22_6 C 0.5476(4) 0.6365(4) 0.224(2)
H12_6 H 0.5579 0.6505 0.1579
S2_6 S 0.5442(2) 0.54858(13) 0.2528(16)
N3_6 N 0.5225(4) 0.7874(2) 0.3710(15)
C23_6 C 0.5542(4) 0.7904(5) 0.3671(19)
C24_6 C 0.5593(3) 0.8210(3) 0.3249(15)
H13_6 H 0.5781 0.8293 0.3086
C25_6 C 0.5338(4) 0.8359(3) 0.3119(16)
H14_6 H 0.5317 0.8561 0.2872
C26_6 C 0.5106(5) 0.8154(4) 0.3426(17)
C27_6 C 0.4810(5) 0.8242(4) 0.3563(18)
C28_6 C 0.4732(4) 0.8546(4) 0.342(3)
C29_6 C 0.4874(3) 0.8746(5) 0.4411(18)
H15_6 H 0.5013 0.8681 0.5220
C30_6 C 0.4815(4) 0.9043(5) 0.423(2)
H16_6 H 0.4903 0.9183 0.4948
C31_6 C 0.4630(5) 0.9124(3) 0.303(4)
C32_6 C 0.4473(3) 0.8932(6) 0.2053(19)
H17_6 H 0.4332 0.9002 0.1274
C33_6 C 0.4524(4) 0.8635(4) 0.224(2)
H18_6 H 0.4421 0.8495 0.1579
S3_6 S 0.4558(2) 0.95142(13) 0.2528(16)
O7_6 O 0.4477(5) 0.9624(4) 0.407(3)
O8_6 O 0.4825(5) 0.9634(3) 0.231(3)
O9_6 O 0.4357(6) 0.9540(3) 0.141(4)
N4_6 N 0.4626(2) 0.7725(4) 0.3790(15)
C34_6 C 0.4596(5) 0.8042(4) 0.3829(19)
C35_6 C 0.4290(3) 0.8093(3) 0.4251(15)
H19_6 H 0.4207 0.8281 0.4414
C36_6 C 0.4141(3) 0.7838(4) 0.4381(16)
H20_6 H 0.3939 0.7817 0.4628
C37_6 C 0.4346(4) 0.7606(5) 0.4074(17)
C38_6 C 0.4258(4) 0.7310(5) 0.3937(18)
C39_6 C 0.3954(4) 0.7232(4) 0.408(3)
C40_6 C 0.3754(5) 0.7374(3) 0.3089(18)
H21_6 H 0.3819 0.7513 0.2280
C41_6 C 0.3457(5) 0.7315(4) 0.327(2)
H22_6 H 0.3317 0.7403 0.2552
C42_6 C 0.3376(3) 0.7130(5) 0.447(4)
C43_6 C 0.3568(6) 0.6973(3) 0.5447(19)
H23_6 H 0.3498 0.6832 0.6226
C44_6 C 0.3865(4) 0.7024(4) 0.526(2)
H24_6 H 0.4005 0.6921 0.5921
S4_6 S 0.29858(13) 0.7058(2) 0.4972(16)
O10_6 O 0.2876(4) 0.6977(5) 0.343(3)
O11_6 O 0.2866(3) 0.7325(5) 0.519(3)
O12_6 O 0.2960(3) 0.6857(6) 0.609(4)
Pd1_10 Pd 0.5000 0.2500 0.6250
N1_7 N 0.5225(4) 0.2874(2) 0.6290(15)
C1_7 C 0.5542(4) 0.2904(5) 0.6329(19)
C2_7 C 0.5593(3) 0.3210(3) 0.6751(15)
H1_7 H 0.5781 0.3293 0.6914
C3_7 C 0.5338(4) 0.3359(3) 0.6881(16)
H2_7 H 0.5317 0.3561 0.7128
C4_7 C 0.5106(5) 0.3154(4) 0.6574(17)
C5_7 C 0.4810(5) 0.3242(4) 0.6437(18)
C6_7 C 0.4732(4) 0.3546(4) 0.658(3)
C7_7 C 0.4874(3) 0.3746(5) 0.5589(18)
H3_7 H 0.5013 0.3681 0.4780
C8_7 C 0.4815(4) 0.4043(5) 0.577(2)
H4_7 H 0.4903 0.4183 0.5052
C9_7 C 0.4630(5) 0.4124(3) 0.697(4)
C10_7 C 0.4473(3) 0.3932(6) 0.7947(19)
H5_7 H 0.4332 0.4002 0.8726
C11_7 C 0.4524(4) 0.3635(4) 0.776(2)
H6_7 H 0.4421 0.3495 0.8421
S1_7 S 0.4558(2) 0.45142(13) 0.7472(16)
N2_7 N 0.5374(2) 0.2275(4) 0.6210(15)
C12_7 C 0.5404(5) 0.1958(4) 0.6171(19)
C13_7 C 0.5710(3) 0.1907(3) 0.5749(15)
H7_7 H 0.5793 0.1719 0.5586
C14_7 C 0.5859(3) 0.2162(4) 0.5619(16)
H8_7 H 0.6061 0.2183 0.5372
C15_7 C 0.5654(4) 0.2394(5) 0.5926(17)
C16_7 C 0.5742(4) 0.2690(5) 0.6063(18)
C17_7 C 0.6046(4) 0.2768(4) 0.592(3)
C18_7 C 0.6246(5) 0.2626(3) 0.6911(18)
H9_7 H 0.6181 0.2487 0.7720
C19_7 C 0.6543(5) 0.2685(4) 0.673(2)
H10_7 H 0.6683 0.2597 0.7448
C20_7 C 0.6624(3) 0.2870(5) 0.553(4)
C21_7 C 0.6432(6) 0.3027(3) 0.4553(19)
H11_7 H 0.6502 0.3168 0.3774
C22_7 C 0.6135(4) 0.2976(4) 0.474(2)
H12_7 H 0.5995 0.3079 0.4079
S2_7 S 0.70142(13) 0.2942(2) 0.5028(16)
N3_7 N 0.4626(2) 0.2725(4) 0.6210(15)
C23_7 C 0.4596(5) 0.3042(4) 0.6171(19)
C24_7 C 0.4290(3) 0.3093(3) 0.5749(15)
H13_7 H 0.4207 0.3281 0.5586
C25_7 C 0.4141(3) 0.2838(4) 0.5619(16)
H14_7 H 0.3939 0.2817 0.5372
C26_7 C 0.4346(4) 0.2606(5) 0.5926(17)
C27_7 C 0.4258(4) 0.2310(5) 0.6063(18)
C28_7 C 0.3954(4) 0.2232(4) 0.592(3)
C29_7 C 0.3754(5) 0.2374(3) 0.6911(18)
H15_7 H 0.3819 0.2513 0.7720
C30_7 C 0.3457(5) 0.2315(4) 0.673(2)
H16_7 H 0.3317 0.2403 0.7448
C31_7 C 0.3376(3) 0.2130(5) 0.553(4)
C32_7 C 0.3568(6) 0.1973(3) 0.4553(19)
H17_7 H 0.3498 0.1832 0.3774
C33_7 C 0.3865(4) 0.2024(4) 0.474(2)
H18_7 H 0.4005 0.1921 0.4079
S3_7 S 0.29858(13) 0.2058(2) 0.5028(16)
O7_7 O 0.2876(4) 0.1977(5) 0.657(3)
O8_7 O 0.2866(3) 0.2325(5) 0.481(3)
O9_7 O 0.2960(3) 0.1857(6) 0.391(4)
N4_7 N 0.4775(4) 0.2126(2) 0.6290(15)
C34_7 C 0.4458(4) 0.2096(5) 0.6329(19)
C35_7 C 0.4407(3) 0.1790(3) 0.6751(15)
H19_7 H 0.4219 0.1707 0.6914
C36_7 C 0.4662(4) 0.1641(3) 0.6881(16)
H20_7 H 0.4683 0.1439 0.7128
C37_7 C 0.4894(5) 0.1846(4) 0.6574(17)
C38_7 C 0.5190(5) 0.1758(4) 0.6437(18)
C39_7 C 0.5268(4) 0.1454(4) 0.658(3)
C40_7 C 0.5126(3) 0.1254(5) 0.5589(18)
H21_7 H 0.4987 0.1319 0.4780
C41_7 C 0.5185(4) 0.0957(5) 0.577(2)
H22_7 H 0.5097 0.0817 0.5052
C42_7 C 0.5370(5) 0.0876(3) 0.697(4)
C43_7 C 0.5527(3) 0.1068(6) 0.7947(19)
H23_7 H 0.5668 0.0998 0.8726
C44_7 C 0.5476(4) 0.1365(4) 0.776(2)
H24_7 H 0.5579 0.1505 0.8421
S4_7 S 0.5442(2) 0.04858(13) 0.7472(16)
O10_7 O 0.5523(5) 0.0376(4) 0.593(3)
O11_7 O 0.5175(5) 0.0366(3) 0.769(3)
O12_7 O 0.5643(6) 0.0460(3) 0.859(4)
Pd1_11 Pd 0.0000 0.7500 0.1250
C5_8 C 0.0190(5) 0.6758(4) 0.1437(18)
C6_8 C 0.0268(4) 0.6454(4) 0.158(3)
C7_8 C 0.0126(3) 0.6254(5) 0.0589(18)
C8_8 C 0.0185(4) 0.5957(5) 0.077(2)
H4_8 H 0.0097 0.5817 0.0052
C9_8 C 0.0370(5) 0.5876(3) 0.197(4)
C10_8 C 0.0527(3) 0.6068(6) 0.2947(19)
H5_8 H 0.0668 0.5998 0.3726
C11_8 C 0.0476(4) 0.6365(4) 0.276(2)
H6_8 H 0.0579 0.6505 0.3421
S1_8 S 0.0442(2) 0.54858(13) 0.2472(16)
N3_8 N 0.0374(2) 0.7275(4) 0.1210(15)
C23_8 C 0.0404(5) 0.6958(4) 0.1171(19)
C24_8 C 0.0710(3) 0.6907(3) 0.0749(15)
H13_8 H 0.0793 0.6719 0.0586
C25_8 C 0.0859(3) 0.7162(4) 0.0619(16)
H14_8 H 0.1061 0.7183 0.0372
C26_8 C 0.0654(4) 0.7394(5) 0.0926(17)
C27_8 C 0.0742(4) 0.7690(5) 0.1063(18)
C28_8 C 0.1046(4) 0.7768(4) 0.092(3)
C29_8 C 0.1246(5) 0.7626(3) 0.1911(18)
H15_8 H 0.1181 0.7487 0.2720
C30_8 C 0.1543(5) 0.7685(4) 0.173(2)
H16_8 H 0.1683 0.7597 0.2448
C31_8 C 0.1624(3) 0.7870(5) 0.053(4)
S3_8 S 0.20142(13) 0.7942(2) 0.0028(16)
O7_8 O 0.2124(4) 0.8023(5) 0.157(3)
N4_8 N 0.0225(4) 0.7874(2) 0.1290(15)
C34_8 C 0.0542(4) 0.7904(5) 0.1329(19)
C35_8 C 0.0593(3) 0.8210(3) 0.1751(15)
H19_8 H 0.0781 0.8293 0.1914
C36_8 C 0.0338(4) 0.8359(3) 0.1881(16)
H20_8 H 0.0317 0.8561 0.2128
C37_8 C 0.0106(5) 0.8154(4) 0.1574(17)
C32_8 C 0.1432(6) 0.8027(3) 0.9553(19)
H17_8 H 0.1502 0.8168 0.8774
C33_8 C 0.1135(4) 0.7976(4) 0.974(2)
H18_8 H 0.0995 0.8079 0.9079
O8_8 O 0.2134(3) 0.7675(5) 0.981(3)
O9_8 O 0.2040(3) 0.8143(6) 0.891(4)
H21_8 H 0.0013 0.8681 0.9780
Pd1_12 Pd 1.0000 0.7500 0.1250
N1_8 N 0.9775(4) 0.7126(2) 0.1290(15)
C1_8 C 0.9458(4) 0.7096(5) 0.1329(19)
C2_8 C 0.9407(3) 0.6790(3) 0.1751(15)
H1_8 H 0.9219 0.6707 0.1914
C3_8 C 0.9662(4) 0.6641(3) 0.1881(16)
H2_8 H 0.9683 0.6439 0.2128
C4_8 C 0.9894(5) 0.6846(4) 0.1574(17)
N2_8 N 0.9626(2) 0.7725(4) 0.1210(15)
C12_8 C 0.9596(5) 0.8042(4) 0.1171(19)
C13_8 C 0.9290(3) 0.8093(3) 0.0749(15)
H7_8 H 0.9207 0.8281 0.0586
C14_8 C 0.9141(3) 0.7838(4) 0.0619(16)
H8_8 H 0.8939 0.7817 0.0372
C15_8 C 0.9346(4) 0.7606(5) 0.0926(17)
C16_8 C 0.9258(4) 0.7310(5) 0.1063(18)
C17_8 C 0.8954(4) 0.7232(4) 0.092(3)
C18_8 C 0.8754(5) 0.7374(3) 0.1911(18)
H9_8 H 0.8819 0.7513 0.2720
C19_8 C 0.8457(5) 0.7315(4) 0.173(2)
H10_8 H 0.8317 0.7403 0.2448
C20_8 C 0.8376(3) 0.7130(5) 0.053(4)
S2_8 S 0.79858(13) 0.7058(2) 0.0028(16)
C38_8 C 0.9810(5) 0.8242(4) 0.1437(18)
C39_8 C 0.9732(4) 0.8546(4) 0.158(3)
C40_8 C 0.9874(3) 0.8746(5) 0.0589(18)
C41_8 C 0.9815(4) 0.9043(5) 0.077(2)
H22_8 H 0.9903 0.9183 0.0052
C42_8 C 0.9630(5) 0.9124(3) 0.197(4)
C43_8 C 0.9473(3) 0.8932(6) 0.2947(19)
H23_8 H 0.9332 0.9002 0.3726
C44_8 C 0.9524(4) 0.8635(4) 0.276(2)
H24_8 H 0.9421 0.8495 0.3421
S4_8 S 0.9558(2) 0.95142(13) 0.2472(16)
O10_8 O 0.9477(5) 0.9624(4) 0.093(3)
O11_8 O 0.9825(5) 0.9634(3) 0.269(3)
O12_8 O 0.9357(6) 0.9540(3) 0.359(4)
H3_8 H 0.9987 0.6319 0.9780
C21_8 C 0.8568(6) 0.6973(3) 0.9553(19)
H11_8 H 0.8498 0.6832 0.8774
C22_8 C 0.8865(4) 0.7024(4) 0.974(2)
H12_8 H 0.9005 0.6921 0.9079
loop_
_geom_bond_atom_site_label_1
_geom_bond_atom_site_label_2
_geom_bond_site_symmetry_1
_geom_bond_site_symmetry_2
Pd1 N1 1_555 1_555
N1 C1 1_555 1_555
C1 C2 1_555 1_555
C2 H1 1_555 1_555
C3 C2 1_555 1_555
H2 C3 1_555 1_555
C4 N1 1_555 1_555
C5 C4 1_555 1_555
C6 C5 1_555 1_555
C7 C6 1_555 1_555
H3 C7 1_555 1_555
C8 C7 1_555 1_555
H4 C8 1_555 1_555
C9 C8 1_555 1_555
S1 C9 1_555 1_555
O1 S1 1_555 1_555
Na1 O1 1_555 1_555
N2 Pd1 1_555 1_555
C12 N2 1_555 1_555
C13 C12 1_555 1_555
H7 C13 1_555 1_555
C14 C13 1_555 1_555
H8 C14 1_555 1_555
C15 N2 1_555 1_555
C16 C1 1_555 1_555
C17 C16 1_555 1_555
C18 C17 1_555 1_555
C19 C18 1_555 1_555
H10 C19 1_555 1_555
C20 C19 1_555 1_555
C21 C20 1_555 1_555
H11 C21 1_555 1_555
C22 C17 1_555 1_555
H12 C22 1_555 1_555
S2 C20 1_555 1_555
O4 S2 1_555 1_555
O5 S2 1_555 1_555
O6 S2 1_555 1_555
N3 Pd1 1_555 1_555
C23 C5 1_555 1_555
C24 C23 1_555 1_555
H13 C24 1_555 1_555
C25 C24 1_555 1_555
H14 C25 1_555 1_555
C26 N3 1_555 1_555
C27 C26 1_555 1_555
C28 C27 1_555 1_555
C29 C28 1_555 1_555
C30 C29 1_555 1_555
H16 C30 1_555 1_555
C31 C30 1_555 1_555
C32 C31 1_555 1_555
H17 C32 1_555 1_555
C33 C28 1_555 1_555
H18 C33 1_555 1_555
S3 C31 1_555 1_555
O7 S3 1_555 1_555
O8 S3 1_555 1_555
O9 S3 1_555 1_555
N4 Pd1 1_555 1_555
C34 C27 1_555 1_555
C35 C34 1_555 1_555
H19 C35 1_555 1_555
C36 C35 1_555 1_555
H20 C36 1_555 1_555
C37 N4 1_555 1_555
C38 C12 1_555 1_555
C39 C38 1_555 1_555
C40 C39 1_555 1_555
H21 C40 1_555 1_555
C41 C40 1_555 1_555
H22 C41 1_555 1_555
C42 C41 1_555 1_555
S4 C42 1_555 1_555
O10 S4 1_555 1_555
K2 O1 1_555 1_555
Na4 O6 1_555 1_555
K3 O5 1_555 1_555
K4 O4 1_555 1_555
K6 O8 1_555 1_555
K7 O10 1_555 1_555
K8 O7 1_555 1_555
O14 Na4 1_555 1_555
O15 K2 1_555 1_555
O19 K2 1_555 1_555
O21 K2 1_555 1_555
O22 Na1 1_555 1_555
Na5 O10 1_555 1_555
Na8 O9 1_555 1_555
C3 C4 1_555 1_555
C14 C15 1_555 1_555
C15 C16 1_555 1_555
C21 C22 1_555 1_555
O5 K4 1_555 1_555
N3 C23 1_555 1_555
C25 C26 1_555 1_555
C32 C33 1_555 1_555
O8 K8 1_555 1_555
N4 C34 1_555 1_555
C36 C37 1_555 1_555
C37 C38 1_555 1_555
K2 O17 1_555 1_555
K3 O14 1_555 1_555
H5 C10 1_555 1_555
H6 C11 1_555 1_555
K1 O2 1_555 1_555
H23 C43 1_555 1_555
H24 C44 1_555 1_555
Na2 O3 1_555 1_555
K5 O11 1_555 1_555
O13 K1 1_555 1_555
O16 K1 1_555 1_555
O19 K1 1_555 1_555
O21 K1 1_555 1_555
Na6 O12 1_555 1_555
C10 C11 1_555 1_555
C43 C44 1_555 1_555
Na2 O13 1_555 1_555
N2_2 Pd1_2 1_555 1_555
C12_2 N2_2 1_555 1_555
C13_2 C12_2 1_555 1_555
H7_2 C13_2 1_555 1_555
C14_2 C13_2 1_555 1_555
H8_2 C14_2 1_555 1_555
C15_2 N2_2 1_555 1_555
C28_2 C27_2 1_555 1_555
C29_2 C28_2 1_555 1_555
C30_2 C29_2 1_555 1_555
H16_2 C30_2 1_555 1_555
C31_2 C30_2 1_555 1_555
C32_2 C31_2 1_555 1_555
H17_2 C32_2 1_555 1_555
C33_2 C28_2 1_555 1_555
H18_2 C33_2 1_555 1_555
S3_2 C31_2 1_555 1_555
O7_2 S3_2 1_555 1_555
O8_2 S3_2 1_555 1_555
O9_2 S3_2 1_555 1_555
N4_2 Pd1_2 1_555 1_555
C34_2 C27_2 1_555 1_555
C35_2 C34_2 1_555 1_555
H19_2 C35_2 1_555 1_555
C36_2 C35_2 1_555 1_555
H20_2 C36_2 1_555 1_555
C37_2 N4_2 1_555 1_555
C38_2 C12_2 1_555 1_555
C39_2 C38_2 1_555 1_555
C40_2 C39_2 1_555 1_555
H21_2 C40_2 1_555 1_555
C41_2 C40_2 1_555 1_555
H22_2 C41_2 1_555 1_555
C42_2 C41_2 1_555 1_555
C43_2 C42_2 1_555 1_555
H23_2 C43_2 1_555 1_555
C44_2 C39_2 1_555 1_555
H24_2 C44_2 1_555 1_555
S4_2 C42_2 1_555 1_555
O10_2 S4_2 1_555 1_555
O11_2 S4_2 1_555 1_555
O12_2 S4_2 1_555 1_555
K5_2 O11_2 1_555 1_555
K6_6 O8_2 1_555 1_555
K7_2 O10_2 1_555 1_555
K8_6 O7_2 1_555 1_555
Na5_2 O10_2 1_555 1_555
Na6_2 O12_2 1_555 1_555
C14_2 C15_2 1_555 1_555
C32_2 C33_2 1_555 1_555
O8_2 K8_6 1_555 1_555
N4_2 C34_2 1_555 1_555
C36_2 C37_2 1_555 1_555
C37_2 C38_2 1_555 1_555
C43_2 C44_2 1_555 1_555
O11_2 K7_2 1_555 1_555
Pd1_3 N1_2 1_555 1_555
N1_2 C1_2 1_555 1_555
C1_2 C2_2 1_555 1_555
C2_2 H1_2 1_555 1_555
C3_2 C2_2 1_555 1_555
H2_2 C3_2 1_555 1_555
C4_2 N1_2 1_555 1_555
C5_2 C4_2 1_555 1_555
C6_2 C5_2 1_555 1_555
C7_2 C6_2 1_555 1_555
H3_2 C7_2 1_555 1_555
C8_2 C7_2 1_555 1_555
H4_2 C8_2 1_555 1_555
C9_2 C8_2 1_555 1_555
C10_2 C9_2 1_555 1_555
H5_2 C10_2 1_555 1_555
C11_2 C6_2 1_555 1_555
H6_2 C11_2 1_555 1_555
S1_2 C9_2 1_555 1_555
K1_2 O2_2 1_555 1_555
O1_2 S1_2 1_555 1_555
O2_2 S1_2 1_555 1_555
O3_2 S1_2 1_555 1_555
Na1_2 O1_2 1_555 1_555
C16_2 C1_2 1_555 1_555
C17_2 C16_2 1_555 1_555
C18_2 C17_2 1_555 1_555
C19_2 C18_2 1_555 1_555
H10_2 C19_2 1_555 1_555
C20_2 C19_2 1_555 1_555
C21_2 C20_2 1_555 1_555
H11_2 C21_2 1_555 1_555
C22_2 C17_2 1_555 1_555
H12_2 C22_2 1_555 1_555
S2_2 C20_2 1_555 1_555
O4_2 S2_2 1_555 1_555
O5_2 S2_2 1_555 1_555
O6_2 S2_2 1_555 1_555
N3_2 Pd1_3 1_555 1_555
C23_2 C5_2 1_555 1_555
C24_2 C23_2 1_555 1_555
H13_2 C24_2 1_555 1_555
C25_2 C24_2 1_555 1_555
H14_2 C25_2 1_555 1_555
C26_2 N3_2 1_555 1_555
K2_2 O1_2 1_555 1_555
Na2_2 O3_2 1_555 1_555
Na3_2 O4_2 1_555 1_555
K3_5 O5_2 1_555 1_555
K4_4 O4_2 1_555 1_555
O13_2 K1_2 1_555 1_555
O15_2 K2_2 1_555 1_555
O16_2 K1_2 1_555 1_555
O17_2 K1_2 1_555 1_555
O19_2 K1_2 1_555 1_555
O21_2 K2_2 1_555 1_555
O22_2 Na1_2 1_555 1_555
O23_2 Na3_2 1_555 1_555
C3_2 C4_2 1_555 1_555
C10_2 C11_2 1_555 1_555
O2_2 K2_2 1_555 1_555
C21_2 C22_2 1_555 1_555
O5_2 K4_4 1_555 1_555
N3_2 C23_2 1_555 1_555
C25_2 C26_2 1_555 1_555
K2_2 O17_2 1_555 1_555
Na2_2 O13_2 1_555 1_555
K3_5 O14_2 1_555 1_555
C6_3 C5_3 1_555 1_555
C7_3 C6_3 1_555 1_555
C8_3 C7_3 1_555 1_555
H4_3 C8_3 1_555 1_555
C9_3 C8_3 1_555 1_555
C10_3 C9_3 1_555 1_555
H5_3 C10_3 1_555 1_555
C11_3 C6_3 1_555 1_555
H6_3 C11_3 1_555 1_555
S1_3 C9_3 1_555 1_555
K3_2 O2_3 1_555 1_555
O1_3 S1_3 1_555 1_555
O2_3 S1_3 1_555 1_555
O3_3 S1_3 1_555 1_555
Na1_3 O1_3 1_555 1_555
N3_3 Pd1_4 1_555 1_555
C23_3 C5_3 1_555 1_555
C24_3 C23_3 1_555 1_555
H13_3 C24_3 1_555 1_555
C25_3 C24_3 1_555 1_555
H14_3 C25_3 1_555 1_555
C26_3 N3_3 1_555 1_555
C27_3 C26_3 1_555 1_555
C28_3 C27_3 1_555 1_555
C29_3 C28_3 1_555 1_555
H15_3 C29_3 1_555 1_555
C30_3 C29_3 1_555 1_555
H16_3 C30_3 1_555 1_555
C31_3 C30_3 1_555 1_555
C32_3 C31_3 1_555 1_555
H17_3 C32_3 1_555 1_555
C33_3 C28_3 1_555 1_555
H18_3 C33_3 1_555 1_555
S3_3 C31_3 1_555 1_555
O7_3 S3_3 1_555 1_555
O8_3 S3_3 1_555 1_555
O9_3 S3_3 1_555 1_555
N4_3 Pd1_4 1_555 1_555
C34_3 C27_3 1_555 1_555
C35_3 C34_3 1_555 1_555
H19_3 C35_3 1_555 1_555
C36_3 C35_3 1_555 1_555
H20_3 C36_3 1_555 1_555
C37_3 N4_3 1_555 1_555
K4_3 O1_3 1_555 1_555
K5 O8_3 1_555 1_555
K7 O7_3 1_555 1_555
O13_3 K3_2 1_555 1_555
O17_3 K3_2 1_555 1_555
O22_3 Na1_3 1_555 1_555
Na7_3 O7_3 1_555 1_555
Na8_3 O9_3 1_555 1_555
C10_3 C11_3 1_555 1_555
O2_3 K4_3 1_555 1_555
N3_3 C23_3 1_555 1_555
C25_3 C26_3 1_555 1_555
C32_3 C33_3 1_555 1_555
O8_3 K7 1_555 1_555
N4_3 C34_3 1_555 1_555
C36_3 C37_3 1_555 1_555
K4_3 O17_3 1_555 1_555
Pd1_5 N1_3 1_555 1_555
N1_3 C1_3 1_555 1_555
C1_3 C2_3 1_555 1_555
C2_3 H1_3 1_555 1_555
C3_3 C2_3 1_555 1_555
H2_3 C3_3 1_555 1_555
C4_3 N1_3 1_555 1_555
N2_3 Pd1_5 1_555 1_555
C12_3 N2_3 1_555 1_555
C13_3 C12_3 1_555 1_555
H7_3 C13_3 1_555 1_555
C14_3 C13_3 1_555 1_555
H8_3 C14_3 1_555 1_555
C15_3 N2_3 1_555 1_555
C16_3 C1_3 1_555 1_555
C17_3 C16_3 1_555 1_555
C18_3 C17_3 1_555 1_555
H9_3 C18_3 1_555 1_555
C19_3 C18_3 1_555 1_555
H10_3 C19_3 1_555 1_555
C20_3 C19_3 1_555 1_555
C21_3 C20_3 1_555 1_555
H11_3 C21_3 1_555 1_555
C22_3 C17_3 1_555 1_555
H12_3 C22_3 1_555 1_555
S2_3 C20_3 1_555 1_555
O15 S2_3 1_555 1_555
O19 S2_3 1_555 1_555
O6_3 S2_3 1_555 1_555
C38_3 C12_3 1_555 1_555
C39_3 C38_3 1_555 1_555
C40_3 C39_3 1_555 1_555
C41_3 C40_3 1_555 1_555
H22_3 C41_3 1_555 1_555
C42_3 C41_3 1_555 1_555
C43_3 C42_3 1_555 1_555
H23_3 C43_3 1_555 1_555
C44_3 C39_3 1_555 1_555
H24_3 C44_3 1_555 1_555
S4_3 C42_3 1_555 1_555
O10_3 S4_3 1_555 1_555
O11_3 S4_3 1_555 1_555
O12_3 S4_3 1_555 1_555
Na3_3 O15 1_555 1_555
Na4_3 O6_3 1_555 1_555
K6_7 O11_3 1_555 1_555
K8_7 O10_3 1_555 1_555
O16 Na4_3 1_555 1_555
O21_3 K4_4 1_555 1_555
O23_3 Na3_3 1_555 1_555
C3_3 C4_3 1_555 1_555
C14_3 C15_3 1_555 1_555
C15_3 C16_3 1_555 1_555
C21_3 C22_3 1_555 1_555
C43_3 C44_3 1_555 1_555
O11_3 K8_7 1_555 1_555
O21_3 K3_5 1_555 1_555
H11_4 C21_4 1_555 1_555
H12_4 C22_4 1_555 1_555
H17_4 C32_4 1_555 1_555
H18_4 C33_4 1_555 1_555
Na4_4 O6_4 1_555 1_555
K5_2 O8_4 1_555 1_555
O16_2 Na4_4 1_555 1_555
O21_4 K4 1_555 1_555
Na8_4 O9_4 1_555 1_555
C21_4 C22_4 1_555 1_555
C32_4 C33_4 1_555 1_555
Pd1_6 N1_4 1_555 1_555
N1_4 C1_4 1_555 1_555
C1_4 C2_4 1_555 1_555
C2_4 H1_4 1_555 1_555
C3_4 C2_4 1_555 1_555
H2_4 C3_4 1_555 1_555
C4_4 N1_4 1_555 1_555
C5_4 C4_4 1_555 1_555
C6_4 C5_4 1_555 1_555
C7_4 C6_4 1_555 1_555
C8_4 C7_4 1_555 1_555
H4_4 C8_4 1_555 1_555
C9_4 C8_4 1_555 1_555
C10_4 C9_4 1_555 1_555
H5_4 C10_4 1_555 1_555
C11_4 C6_4 1_555 1_555
H6_4 C11_4 1_555 1_555
S1_4 C9_4 1_555 1_555
K3 O2_4 1_555 1_555
O1_4 S1_4 1_555 1_555
O2_4 S1_4 1_555 1_555
O3_4 S1_4 1_555 1_555
N2_4 Pd1_6 1_555 1_555
C12_4 N2_4 1_555 1_555
C13_4 C12_4 1_555 1_555
H7_4 C13_4 1_555 1_555
C14_4 C13_4 1_555 1_555
H8_4 C14_4 1_555 1_555
C15_4 N2_4 1_555 1_555
C16_4 C1_4 1_555 1_555
C17_4 C16_4 1_555 1_555
C18_4 C17_4 1_555 1_555
H9_4 C18_4 1_555 1_555
C19_4 C18_4 1_555 1_555
H10_4 C19_4 1_555 1_555
C20_4 C19_4 1_555 1_555
S2_4 C20_4 1_555 1_555
O15_2 S2_4 1_555 1_555
N3_4 Pd1_6 1_555 1_555
C23_4 C5_4 1_555 1_555
C24_4 C23_4 1_555 1_555
H13_4 C24_4 1_555 1_555
C25_4 C24_4 1_555 1_555
H14_4 C25_4 1_555 1_555
C26_4 N3_4 1_555 1_555
C27_4 C26_4 1_555 1_555
C28_4 C27_4 1_555 1_555
C29_4 C28_4 1_555 1_555
H15_4 C29_4 1_555 1_555
C30_4 C29_4 1_555 1_555
H16_4 C30_4 1_555 1_555
C31_4 C30_4 1_555 1_555
S3_4 C31_4 1_555 1_555
O7_4 S3_4 1_555 1_555
N4_4 Pd1_6 1_555 1_555
C34_4 C27_4 1_555 1_555
C35_4 C34_4 1_555 1_555
H19_4 C35_4 1_555 1_555
C36_4 C35_4 1_555 1_555
H20_4 C36_4 1_555 1_555
C37_4 N4_4 1_555 1_555
C38_4 C12_4 1_555 1_555
C39_4 C38_4 1_555 1_555
C40_4 C39_4 1_555 1_555
C41_4 C40_4 1_555 1_555
H22_4 C41_4 1_555 1_555
C42_4 C41_4 1_555 1_555
C43_4 C42_4 1_555 1_555
H23_4 C43_4 1_555 1_555
C44_4 C39_4 1_555 1_555
H24_4 C44_4 1_555 1_555
S4_4 C42_4 1_555 1_555
O10_4 S4_4 1_555 1_555
O11_4 S4_4 1_555 1_555
O12_4 S4_4 1_555 1_555
K4_2 O1_4 1_555 1_555
Na2_4 O3_4 1_555 1_555
Na3_4 O15_2 1_555 1_555
K6_2 O11_4 1_555 1_555
K8_4 O10_4 1_555 1_555
K7_2 O7_4 1_555 1_555
O13_4 K3 1_555 1_555
O17_4 K3 1_555 1_555
O21_4 K3 1_555 1_555
O23_4 Na3_4 1_555 1_555
Na6_4 O12_4 1_555 1_555
Na7_4 O7_4 1_555 1_555
C3_4 C4_4 1_555 1_555
C10_4 C11_4 1_555 1_555
O2_4 K4_2 1_555 1_555
C14_4 C15_4 1_555 1_555
C15_4 C16_4 1_555 1_555
N3_4 C23_4 1_555 1_555
C25_4 C26_4 1_555 1_555
N4_4 C34_4 1_555 1_555
C36_4 C37_4 1_555 1_555
C37_4 C38_4 1_555 1_555
C43_4 C44_4 1_555 1_555
O11_4 K8_4 1_555 1_555
K4_2 O17_4 1_555 1_555
Na2_4 O13_4 1_555 1_555
H23_5 C43_5 1_555 1_555
H24_5 C44_5 1_555 1_555
K7 O11_5 1_555 1_555
Na5 O12_5 1_555 1_555
C43_5 C44_5 1_555 1_555
N2_5 Pd1_7 1_555 1_555
C12_5 N2_5 1_555 1_555
C13_5 C12_5 1_555 1_555
H7_5 C13_5 1_555 1_555
C14_5 C13_5 1_555 1_555
H8_5 C14_5 1_555 1_555
C15_5 N2_5 1_555 1_555
C28_5 C27_5 1_555 1_555
C29_5 C28_5 1_555 1_555
C30_5 C29_5 1_555 1_555
H16_5 C30_5 1_555 1_555
C31_5 C30_5 1_555 1_555
C32_5 C31_5 1_555 1_555
H17_5 C32_5 1_555 1_555
C33_5 C28_5 1_555 1_555
H18_5 C33_5 1_555 1_555
S3_5 C31_5 1_555 1_555
O7_5 S3_5 1_555 1_555
O8_5 S3_5 1_555 1_555
O9_5 S3_5 1_555 1_555
N4_5 Pd1_7 1_555 1_555
C34_5 C27_5 1_555 1_555
C35_5 C34_5 1_555 1_555
H19_5 C35_5 1_555 1_555
C36_5 C35_5 1_555 1_555
H20_5 C36_5 1_555 1_555
C37_5 N4_5 1_555 1_555
C38_5 C12_5 1_555 1_555
C39_5 C38_5 1_555 1_555
C40_5 C39_5 1_555 1_555
H21_5 C40_5 1_555 1_555
C41_5 C40_5 1_555 1_555
H22_5 C41_5 1_555 1_555
C42_5 C41_5 1_555 1_555
S4_5 C42_5 1_555 1_555
O10_5 S4_5 1_555 1_555
K8_5 O8_5 1_555 1_555
K5 O10_5 1_555 1_555
K6_4 O7_5 1_555 1_555
Na6 O10_5 1_555 1_555
Na7_2 O9_5 1_555 1_555
C14_5 C15_5 1_555 1_555
C32_5 C33_5 1_555 1_555
O8_5 K6_4 1_555 1_555
N4_5 C34_5 1_555 1_555
C36_5 C37_5 1_555 1_555
C37_5 C38_5 1_555 1_555
H5_5 C10_5 1_555 1_555
H6_5 C11_5 1_555 1_555
C10_5 C11_5 1_555 1_555
Pd1_8 N1_5 1_555 1_555
N1_5 C1_5 1_555 1_555
C1_5 C2_5 1_555 1_555
C2_5 H1_5 1_555 1_555
C3_5 C2_5 1_555 1_555
H2_5 C3_5 1_555 1_555
C4_5 N1_5 1_555 1_555
C5_5 C4_5 1_555 1_555
C6_5 C5_5 1_555 1_555
C7_5 C6_5 1_555 1_555
H3_5 C7_5 1_555 1_555
C8_5 C7_5 1_555 1_555
H4_5 C8_5 1_555 1_555
C9_5 C8_5 1_555 1_555
S1_5 C9_5 1_555 1_555
O13 S1_5 1_555 1_555
C16_5 C1_5 1_555 1_555
C17_5 C16_5 1_555 1_555
C18_5 C17_5 1_555 1_555
C19_5 C18_5 1_555 1_555
H10_5 C19_5 1_555 1_555
C20_5 C19_5 1_555 1_555
C21_5 C20_5 1_555 1_555
H11_5 C21_5 1_555 1_555
C22_5 C17_5 1_555 1_555
H12_5 C22_5 1_555 1_555
S2_5 C20_5 1_555 1_555
O14_2 S2_5 1_555 1_555
O21_3 S2_5 1_555 1_555
O23_2 S2_5 1_555 1_555
N3_5 Pd1_8 1_555 1_555
C23_5 C5_5 1_555 1_555
C24_5 C23_5 1_555 1_555
H13_5 C24_5 1_555 1_555
C25_5 C24_5 1_555 1_555
H14_5 C25_5 1_555 1_555
C26_5 N3_5 1_555 1_555
C3_5 C4_5 1_555 1_555
C21_5 C22_5 1_555 1_555
N3_5 C23_5 1_555 1_555
C25_5 C26_5 1_555 1_555
Pd1_9 N1_6 1_555 1_555
N1_6 C1_6 1_555 1_555
C1_6 C2_6 1_555 1_555
C2_6 H1_6 1_555 1_555
C3_6 C2_6 1_555 1_555
H2_6 C3_6 1_555 1_555
C4_6 N1_6 1_555 1_555
C5_6 C4_6 1_555 1_555
C6_6 C5_6 1_555 1_555
C7_6 C6_6 1_555 1_555
H3_6 C7_6 1_555 1_555
C8_6 C7_6 1_555 1_555
H4_6 C8_6 1_555 1_555
C9_6 C8_6 1_555 1_555
C10_6 C9_6 1_555 1_555
H5_6 C10_6 1_555 1_555
C11_6 C6_6 1_555 1_555
H6_6 C11_6 1_555 1_555
S1_6 C9_6 1_555 1_555
O13_2 S1_6 1_555 1_555
O17_2 S1_6 1_555 1_555
O22_2 S1_6 1_555 1_555
N2_6 Pd1_9 1_555 1_555
C12_6 N2_6 1_555 1_555
C13_6 C12_6 1_555 1_555
H7_6 C13_6 1_555 1_555
C14_6 C13_6 1_555 1_555
H8_6 C14_6 1_555 1_555
C15_6 N2_6 1_555 1_555
C16_6 C1_6 1_555 1_555
C17_6 C16_6 1_555 1_555
C18_6 C17_6 1_555 1_555
H9_6 C18_6 1_555 1_555
C19_6 C18_6 1_555 1_555
H10_6 C19_6 1_555 1_555
C20_6 C19_6 1_555 1_555
C21_6 C20_6 1_555 1_555
H11_6 C21_6 1_555 1_555
C22_6 C17_6 1_555 1_555
H12_6 C22_6 1_555 1_555
S2_6 C20_6 1_555 1_555
O14 S2_6 1_555 1_555
O21_4 S2_6 1_555 1_555
O23 S2_6 1_555 1_555
N3_6 Pd1_9 1_555 1_555
C23_6 C5_6 1_555 1_555
C24_6 C23_6 1_555 1_555
H13_6 C24_6 1_555 1_555
C25_6 C24_6 1_555 1_555
H14_6 C25_6 1_555 1_555
C26_6 N3_6 1_555 1_555
C27_6 C26_6 1_555 1_555
C28_6 C27_6 1_555 1_555
C29_6 C28_6 1_555 1_555
H15_6 C29_6 1_555 1_555
C30_6 C29_6 1_555 1_555
H16_6 C30_6 1_555 1_555
C31_6 C30_6 1_555 1_555
C32_6 C31_6 1_555 1_555
H17_6 C32_6 1_555 1_555
C33_6 C28_6 1_555 1_555
H18_6 C33_6 1_555 1_555
S3_6 C31_6 1_555 1_555
O7_6 S3_6 1_555 1_555
O8_6 S3_6 1_555 1_555
O9_6 S3_6 1_555 1_555
N4_6 Pd1_9 1_555 1_555
C34_6 C27_6 1_555 1_555
C35_6 C34_6 1_555 1_555
H19_6 C35_6 1_555 1_555
C36_6 C35_6 1_555 1_555
H20_6 C36_6 1_555 1_555
C37_6 N4_6 1_555 1_555
C38_6 C12_6 1_555 1_555
C39_6 C38_6 1_555 1_555
C40_6 C39_6 1_555 1_555
H21_6 C40_6 1_555 1_555
C41_6 C40_6 1_555 1_555
H22_6 C41_6 1_555 1_555
C42_6 C41_6 1_555 1_555
C43_6 C42_6 1_555 1_555
H23_6 C43_6 1_555 1_555
C44_6 C39_6 1_555 1_555
H24_6 C44_6 1_555 1_555
S4_6 C42_6 1_555 1_555
O10_6 S4_6 1_555 1_555
O11_6 S4_6 1_555 1_555
O12_6 S4_6 1_555 1_555
K7_2 O11_6 1_555 1_555
K8_3 O8_6 1_555 1_555
K5_2 O10_6 1_555 1_555
K6_2 O7_6 1_555 1_555
Na6_2 O10_6 1_555 1_555
Na5_2 O12_6 1_555 1_555
C3_6 C4_6 1_555 1_555
C10_6 C11_6 1_555 1_555
C14_6 C15_6 1_555 1_555
C15_6 C16_6 1_555 1_555
C21_6 C22_6 1_555 1_555
N3_6 C23_6 1_555 1_555
C25_6 C26_6 1_555 1_555
C32_6 C33_6 1_555 1_555
O8_6 K6_2 1_555 1_555
N4_6 C34_6 1_555 1_555
C36_6 C37_6 1_555 1_555
C37_6 C38_6 1_555 1_555
C43_6 C44_6 1_555 1_555
O11_6 K5_2 1_555 1_555
Pd1_10 N1_7 1_555 1_555
N1_7 C1_7 1_555 1_555
C1_7 C2_7 1_555 1_555
C2_7 H1_7 1_555 1_555
C3_7 C2_7 1_555 1_555
H2_7 C3_7 1_555 1_555
C4_7 N1_7 1_555 1_555
C5_7 C4_7 1_555 1_555
C6_7 C5_7 1_555 1_555
C7_7 C6_7 1_555 1_555
H3_7 C7_7 1_555 1_555
C8_7 C7_7 1_555 1_555
H4_7 C8_7 1_555 1_555
C9_7 C8_7 1_555 1_555
C10_7 C9_7 1_555 1_555
H5_7 C10_7 1_555 1_555
C11_7 C6_7 1_555 1_555
H6_7 C11_7 1_555 1_555
S1_7 C9_7 1_555 1_555
O13_4 S1_7 1_555 1_555
O17_4 S1_7 1_555 1_555
O22_4 S1_7 1_555 1_555
N2_7 Pd1_10 1_555 1_555
C12_7 N2_7 1_555 1_555
C13_7 C12_7 1_555 1_555
H7_7 C13_7 1_555 1_555
C14_7 C13_7 1_555 1_555
H8_7 C14_7 1_555 1_555
C15_7 N2_7 1_555 1_555
C16_7 C1_7 1_555 1_555
C17_7 C16_7 1_555 1_555
C18_7 C17_7 1_555 1_555
H9_7 C18_7 1_555 1_555
C19_7 C18_7 1_555 1_555
H10_7 C19_7 1_555 1_555
C20_7 C19_7 1_555 1_555
C21_7 C20_7 1_555 1_555
H11_7 C21_7 1_555 1_555
C22_7 C17_7 1_555 1_555
H12_7 C22_7 1_555 1_555
S2_7 C20_7 1_555 1_555
O16 S2_7 1_555 1_555
O21 S2_7 1_555 1_555
O23_3 S2_7 1_555 1_555
N3_7 Pd1_10 1_555 1_555
C23_7 C5_7 1_555 1_555
C24_7 C23_7 1_555 1_555
H13_7 C24_7 1_555 1_555
C25_7 C24_7 1_555 1_555
H14_7 C25_7 1_555 1_555
C26_7 N3_7 1_555 1_555
C27_7 C26_7 1_555 1_555
C28_7 C27_7 1_555 1_555
C29_7 C28_7 1_555 1_555
H15_7 C29_7 1_555 1_555
C30_7 C29_7 1_555 1_555
H16_7 C30_7 1_555 1_555
C31_7 C30_7 1_555 1_555
C32_7 C31_7 1_555 1_555
H17_7 C32_7 1_555 1_555
C33_7 C28_7 1_555 1_555
H18_7 C33_7 1_555 1_555
S3_7 C31_7 1_555 1_555
O7_7 S3_7 1_555 1_555
O8_7 S3_7 1_555 1_555
O9_7 S3_7 1_555 1_555
N4_7 Pd1_10 1_555 1_555
C34_7 C27_7 1_555 1_555
C35_7 C34_7 1_555 1_555
H19_7 C35_7 1_555 1_555
C36_7 C35_7 1_555 1_555
H20_7 C36_7 1_555 1_555
C37_7 N4_7 1_555 1_555
C38_7 C12_7 1_555 1_555
C39_7 C38_7 1_555 1_555
C40_7 C39_7 1_555 1_555
H21_7 C40_7 1_555 1_555
C41_7 C40_7 1_555 1_555
H22_7 C41_7 1_555 1_555
C42_7 C41_7 1_555 1_555
C43_7 C42_7 1_555 1_555
H23_7 C43_7 1_555 1_555
C44_7 C39_7 1_555 1_555
H24_7 C44_7 1_555 1_555
S4_7 C42_7 1_555 1_555
O10_7 S4_7 1_555 1_555
O11_7 S4_7 1_555 1_555
O12_7 S4_7 1_555 1_555
K8_2 O11_7 1_555 1_555
K7 O8_7 1_555 1_555
K6 O10_7 1_555 1_555
K5 O7_7 1_555 1_555
Na8_3 O7_7 1_555 1_555
Na7_3 O9_7 1_555 1_555
C3_7 C4_7 1_555 1_555
C10_7 C11_7 1_555 1_555
C14_7 C15_7 1_555 1_555
C15_7 C16_7 1_555 1_555
C21_7 C22_7 1_555 1_555
N3_7 C23_7 1_555 1_555
C25_7 C26_7 1_555 1_555
C32_7 C33_7 1_555 1_555
O8_7 K5 1_555 1_555
N4_7 C34_7 1_555 1_555
C36_7 C37_7 1_555 1_555
C37_7 C38_7 1_555 1_555
C43_7 C44_7 1_555 1_555
O11_7 K6 1_555 1_555
C6_8 C5_8 1_555 1_555
C7_8 C6_8 1_555 1_555
C8_8 C7_8 1_555 1_555
H4_8 C8_8 1_555 1_555
C9_8 C8_8 1_555 1_555
C10_8 C9_8 1_555 1_555
H5_8 C10_8 1_555 1_555
C11_8 C6_8 1_555 1_555
H6_8 C11_8 1_555 1_555
S1_8 C9_8 1_555 1_555
O13_3 S1_8 1_555 1_555
O17_3 S1_8 1_555 1_555
O22_3 S1_8 1_555 1_555
N3_8 Pd1_11 1_555 1_555
C23_8 C5_8 1_555 1_555
C24_8 C23_8 1_555 1_555
H13_8 C24_8 1_555 1_555
C25_8 C24_8 1_555 1_555
H14_8 C25_8 1_555 1_555
C26_8 N3_8 1_555 1_555
C27_8 C26_8 1_555 1_555
C28_8 C27_8 1_555 1_555
C29_8 C28_8 1_555 1_555
H15_8 C29_8 1_555 1_555
C30_8 C29_8 1_555 1_555
H16_8 C30_8 1_555 1_555
C31_8 C30_8 1_555 1_555
S3_8 C31_8 1_555 1_555
O7_8 S3_8 1_555 1_555
N4_8 Pd1_11 1_555 1_555
C34_8 C27_8 1_555 1_555
C35_8 C34_8 1_555 1_555
H19_8 C35_8 1_555 1_555
C36_8 C35_8 1_555 1_555
H20_8 C36_8 1_555 1_555
C37_8 N4_8 1_555 1_555
K5_2 O7_8 1_555 1_555
Na8_4 O7_8 1_555 1_555
C10_8 C11_8 1_555 1_555
N3_8 C23_8 1_555 1_555
C25_8 C26_8 1_555 1_555
N4_8 C34_8 1_555 1_555
C36_8 C37_8 1_555 1_555
H17_8 C32_8 1_555 1_555
H18_8 C33_8 1_555 1_555
K7_2 O8_8 1_555 1_555
Na7_4 O9_8 1_555 1_555
C32_8 C33_8 1_555 1_555
Pd1_12 N1_8 1_555 1_555
N1_8 C1_8 1_555 1_555
C1_8 C2_8 1_555 1_555
C2_8 H1_8 1_555 1_555
C3_8 C2_8 1_555 1_555
H2_8 C3_8 1_555 1_555
C4_8 N1_8 1_555 1_555
N2_8 Pd1_12 1_555 1_555
C12_8 N2_8 1_555 1_555
C13_8 C12_8 1_555 1_555
H7_8 C13_8 1_555 1_555
C14_8 C13_8 1_555 1_555
H8_8 C14_8 1_555 1_555
C15_8 N2_8 1_555 1_555
C16_8 C1_8 1_555 1_555
C17_8 C16_8 1_555 1_555
C18_8 C17_8 1_555 1_555
H9_8 C18_8 1_555 1_555
C19_8 C18_8 1_555 1_555
H10_8 C19_8 1_555 1_555
C20_8 C19_8 1_555 1_555
S2_8 C20_8 1_555 1_555
O16_2 S2_8 1_555 1_555
C38_8 C12_8 1_555 1_555
C39_8 C38_8 1_555 1_555
C40_8 C39_8 1_555 1_555
C41_8 C40_8 1_555 1_555
H22_8 C41_8 1_555 1_555
C42_8 C41_8 1_555 1_555
C43_8 C42_8 1_555 1_555
H23_8 C43_8 1_555 1_555
C44_8 C39_8 1_555 1_555
H24_8 C44_8 1_555 1_555
S4_8 C42_8 1_555 1_555
O10_8 S4_8 1_555 1_555
O11_8 S4_8 1_555 1_555
O12_8 S4_8 1_555 1_555
K8_8 O11_8 1_555 1_555
K6_9 O10_8 1_555 1_555
Na5_3 O12_8 1_555 1_555
C3_8 C4_8 1_555 1_555
C14_8 C15_8 1_555 1_555
C15_8 C16_8 1_555 1_555
C43_8 C44_8 1_555 1_555
O11_8 K6_9 1_555 1_555
H11_8 C21_8 1_555 1_555
H12_8 C22_8 1_555 1_555
C21_8 C22_8 1_555 1_555

#END
