
###############################################################################
#
# This file contains modified crystal structure data generated from the
# MOF subset of the Cambridge Structural Database (CSD) v543 
# hosted by the Cambridge Crystallographic Data Centre (CCDC).
#
# This work is licensed under the Creative Commons
# Attribution-NonCommercial-ShareAlike 4.0 International License.
# To view a copy of this license, visit
# http://creativecommons.org/licenses/by-nc-sa/4.0/
# or send a letter to
# Creative Commons, PO Box 1866, Mountain View, CA 94042, USA.
#
# CIF created using the CSD Python API on 29 September 2022
# The structure has been converted into the P1 space group
# The structure has a 3D framework
# The original CSD entry GOMQUX is in the hexagonal crystal system
# The original CSD entry GOMQUX is in a Sohncke space group
# The framework has been calculated to contain at least 10.0% void space
# The void calculation uses a probe of radius 1.32A, grid spacing 0.4
# H atom positions have been added when not included in the experimental data
# Generated hydrogen atom positions removed from atoms on special positions
#
###############################################################################

data_GOMQUX
_chemical_formula_moiety         '(C96 H96 O86 Zn30)n'
_symmetry_cell_setting           triclinic
_symmetry_space_group_name_H-M   'P 1'
_symmetry_Int_Tables_number      1
_space_group_name_Hall           'P 1'
loop_
_symmetry_equiv_pos_site_id
_symmetry_equiv_pos_as_xyz
1 x,y,z
_cell_length_a                   22.026(4)
_cell_length_b                   22.026(4)
_cell_length_c                   12.068(2)
_cell_angle_alpha                90
_cell_angle_beta                 90
_cell_angle_gamma                120
_cell_volume                     5070.34
loop_
_atom_site_label
_atom_site_type_symbol
_atom_site_fract_x
_atom_site_fract_y
_atom_site_fract_z
O3 O 0.00159(18) 0.57383(14) 0.5846(2)
Zn6 Zn 0.00000(4) 0.53120(3) 0.833334
Zn8 Zn 0.04417(3) 0.63195(2) 0.43713(3)
Zn13 Zn 0.08020(3) 0.54010(2) 0.583334
O11 O 0.57383(14) 0.00159(18) 0.7487(2)
Zn5 Zn 0.53120(3) -0.00000(4) 0.500000
Zn10 Zn 0.63195(2) 0.04417(3) 0.89621(3)
Zn11 Zn 0.54010(2) 0.08020(3) 0.750000
Zn1 Zn 0.46880(3) 0.46880(3) 0.166667
Zn2 Zn 0.63195(2) 0.58778(2) 0.27046(3)
Zn3 Zn 0.54010(2) 0.45990(2) 0.416667
O1 O 0.55351(11) 0.48466(11) 0.2498(2)
O2 O 0.92829(26) 0.5170(2) 0.7193(3)
O4 O 0.70977(14) 0.58394(18) 0.3428(2)
O5 O 0.64201(13) 0.48883(16) 0.4503(3)
O6 O 0.94571(11) 0.60248(14) 0.3970(2)
C1 C 0.88246(18) 0.5481(3) 0.5664(4)
C2 C 0.88793(16) 0.57570(19) 0.4591(3)
C3 C 0.82713(17) 0.5728(2) 0.4134(3)
H1 H 0.829523 0.591188 0.343170
C4 C 0.76501(19) 0.5435(3) 0.4703(3)
C5 C 0.7600(2) 0.5172(4) 0.5758(4)
H2 H 0.718108 0.498752 0.615077
C6 C 0.8175(2) 0.5188(4) 0.6218(4)
H3 H 0.813630 0.499847 0.692051
C7 C 0.9420(3) 0.5477(2) 0.6267(4)
C8 C 0.70073(18) 0.5391(2) 0.4168(3)
H4 H 0.5595(11) 0.4513(7) 0.236(4)
O7 O 0.3736(7) 0.3736(7) 0.166667
O8 O 0.7396(14) 0.7082(10) 0.3118(19)
Zn4 Zn 0.58778(2) 0.63195(2) 0.06287(3)
O9 O 0.48466(11) 0.55351(11) 0.0835(2)
H8 H 0.4513(7) 0.5595(11) 0.097(4)
O15 O 0.7082(10) 0.7396(14) 0.0215(19)
Zn6_2 Zn 1.00000(4) 0.53120(3) 0.833334
Zn7 Zn 0.58778(2) 0.95583(3) 0.10379(3)
Zn9 Zn 0.95583(3) 0.58778(2) 0.22954(3)
O16 O 0.51534(11) 0.44649(11) 0.5835(2)
O17 O 0.4830(2) 0.41129(33) 0.0526(3)
O18 O 0.41129(33) 0.4830(2) 0.2807(3)
O19 O 0.57383(14) 0.57224(23) 0.4179(2)
O20 O 0.42776(23) 0.42617(14) 0.4154(2)
O22 O 0.51117(16) 0.35799(13) 0.3830(3)
O23 O 0.60248(14) 0.65677(18) 0.2303(2)
O24 O 0.65677(18) 0.60248(14) 0.1030(2)
H11 H 0.781837 0.710865 0.277461
H12 H 0.73211 0.745686 0.280696
H13 H 0.710865 0.781837 0.0558724
H14 H 0.745686 0.73211 0.0526373
O10 O 0.5170(2) 0.92829(26) 0.6140(3)
O12 O 0.58394(18) 0.70977(14) 0.9905(2)
O13 O 0.48883(16) 0.64201(13) 0.8830(3)
O14 O 0.60248(14) 0.94571(11) 0.9363(2)
C9 C 0.5481(3) 0.88246(18) 0.7669(4)
C10 C 0.57570(19) 0.88793(16) 0.8742(3)
C11 C 0.5728(2) 0.82713(17) 0.9199(3)
H5 H 0.591188 0.829523 0.990163
C12 C 0.5435(3) 0.76501(19) 0.8630(3)
C13 C 0.5172(4) 0.7600(2) 0.7575(4)
H6 H 0.498752 0.718108 0.718256
C14 C 0.5188(4) 0.8175(2) 0.7115(4)
H7 H 0.499847 0.813630 0.641282
C15 C 0.5477(2) 0.9420(3) 0.7066(4)
C16 C 0.5391(2) 0.70073(18) 0.9165(3)
Zn5_2 Zn 0.53120(3) 1.00000(4) 0.500000
Zn12 Zn 0.45990(2) 0.54010(2) 0.916667
O21 O 0.57224(23) 0.57383(14) 0.9154(2)
H3_2 H 0.500153 0.313783 0.025384
Zn2_2 Zn 0.41222(2) 0.04417(3) 0.60379(3)
O1_2 O 0.51534(11) 0.06885(16) 0.5831(2)
O3_2 O 0.42617(14) 0.42776(23) 0.9179(2)
O4_2 O 0.41606(18) 0.12583(23) 0.6761(2)
O5_2 O 0.51117(16) 0.15318(21) 0.7836(3)
O6_2 O 0.39752(14) 0.34323(18) 0.7303(2)
C1_2 C 0.4519(3) 0.33436(35) 0.8997(4)
C2_2 C 0.42430(19) 0.31223(25) 0.7924(3)
C3_2 C 0.4272(2) 0.25433(26) 0.7467(3)
H1_2 H 0.408812 0.238335 0.676503
C4_2 C 0.4565(3) 0.22151(36) 0.8036(3)
C5_2 C 0.4828(4) 0.2428(4) 0.9091(4)
H2_2 H 0.501248 0.219356 0.948410
C6_2 C 0.4812(4) 0.2987(4) 0.9551(4)
C7_2 C 0.4523(2) 0.3943(4) 0.9600(4)
C8_2 C 0.4609(2) 0.16163(27) 0.7501(3)
H4_2 H 0.5487(7) 0.1082(13) 0.569(4)
O7_2 O 0.6264(7) -0.0000(10) 0.500000
O8_2 O 0.2918(10) 0.0314(17) 0.6451(19)
Zn8_2 Zn 0.36805(2) 0.41222(4) 0.77046(3)
Zn9_2 Zn 0.41222(2) 0.36805(4) 0.56287(3)
O16_2 O 0.55351(11) 0.06885(16) 0.9169(2)
O17_2 O 0.58871(33) 0.07171(39) 0.3860(3)
O19_2 O 0.42776(23) 0.00159(27) 0.7513(2)
O22_2 O 0.64201(13) 0.15318(21) 0.7164(3)
O24_2 O 0.39752(14) 0.05429(23) 0.4363(2)
H11_2 H 0.289135 0.0709721 0.610794
H14_2 H 0.26789 0.0135759 0.385971
O7_3 O 0.6264(7) 1.0000(10) 0.500000
Zn4_2 Zn 0.36805(2) 0.95583(3) 0.39621(3)
O9_2 O 0.44649(11) 0.93115(16) 0.4169(2)
O12_2 O 0.29023(14) 0.87417(23) 0.3239(2)
O13_2 O 0.35799(13) 0.84682(21) 0.2164(3)
O14_2 O 0.05429(11) 0.65677(18) 0.2697(2)
C9_2 C 0.11754(18) 0.66564(35) 0.1003(4)
C10_2 C 0.11207(16) 0.68777(25) 0.2076(3)
C11_2 C 0.17287(17) 0.74567(26) 0.2533(3)
H5_2 H 0.170477 0.761665 0.323497
C12_2 C 0.23499(19) 0.77849(36) 0.1964(3)
C13_2 C 0.2400(2) 0.7572(4) 0.0909(4)
H6_2 H 0.281892 0.780644 0.051590
C14_2 C 0.1825(2) 0.7013(4) 0.0449(4)
C15_2 C 0.0580(3) 0.6057(4) 0.0400(4)
C16_2 C 0.29927(18) 0.83837(27) 0.2499(3)
H8_2 H 0.4405(11) 0.8918(13) 0.431(4)
O15_2 O 0.2604(14) 0.9686(17) 0.3549(19)
Zn12_2 Zn 0.45990(2) 0.91980(3) 0.250000
O21_2 O 0.42617(14) 0.99841(27) 0.2487(2)
O23_2 O 0.34323(18) 0.94571(23) 0.5637(2)
H9 H 0.638277 0.993699 0.576936
H10 H 0.621927 0.960998 0.452907
H12_2 H 0.254314 0.986424 0.614029
H13_2 H 0.218163 0.929028 0.389206
O10_2 O 0.07171(26) 0.58871(33) 0.9474(3)
H7_2 H 0.186370 0.686217 0.974616
O11_2 O 0.99841(18) 0.57224(23) 0.0821(2)
Zn11_2 Zn 0.91980(3) 0.45990(4) 0.083334
O7_4 O -0.0000(10) 0.6264(7) 0.833334
Zn4_3 Zn 0.04417(3) 0.41222(2) 0.72954(3)
O9_3 O 0.06885(16) 0.51534(11) 0.7502(2)
O12_3 O 0.12583(23) 0.41606(18) 0.6572(2)
O13_3 O 0.15318(21) 0.51117(16) 0.5497(3)
O14_3 O 0.34323(18) 0.39752(14) 0.6030(2)
C9_3 C 0.33436(35) 0.4519(3) 0.4336(4)
C10_3 C 0.31223(25) 0.42430(19) 0.5409(3)
C11_3 C 0.25433(26) 0.4272(2) 0.5866(3)
H5_3 H 0.238335 0.408812 0.656830
C12_3 C 0.22151(36) 0.4565(3) 0.5297(3)
C13_3 C 0.2428(4) 0.4828(4) 0.4242(4)
H6_3 H 0.219356 0.501248 0.384923
C14_3 C 0.2987(4) 0.4812(4) 0.3782(4)
H7_3 H 0.313783 0.500153 0.307949
C15_3 C 0.3943(4) 0.4523(2) 0.3733(4)
C16_3 C 0.16163(27) 0.4609(2) 0.5832(3)
H8_3 H 0.1082(13) 0.5487(7) 0.764(4)
O15_3 O 0.0314(17) 0.2918(10) 0.6882(19)
O21_3 O 0.00159(27) 0.42776(23) 0.5821(2)
O23_3 O 0.05429(23) 0.39752(14) 0.8970(2)
H9_2 H 0.00630122 0.644578 0.910269
H10_2 H 0.0390024 0.660929 0.78624
H12_3 H 0.0135759 0.26789 0.947363
H13_3 H 0.0709721 0.289135 0.722539
O4_3 O 0.87417(23) 0.29023(14) 0.0095(2)
O5_3 O 0.84682(21) 0.35799(13) 0.1170(3)
O6_3 O 0.65677(18) 0.05429(11) 0.0637(2)
C1_3 C 0.66564(35) 0.11754(18) 0.2331(4)
C2_3 C 0.68777(25) 0.11207(16) 0.1258(3)
C3_3 C 0.74567(26) 0.17287(17) 0.0801(3)
H1_3 H 0.761665 0.170477 0.009837
C4_3 C 0.77849(36) 0.23499(19) 0.1370(3)
C5_3 C 0.7572(4) 0.2400(2) 0.2425(4)
H2_3 H 0.780644 0.281892 0.281744
C6_3 C 0.7013(4) 0.1825(2) 0.2885(4)
H3_3 H 0.686217 0.186370 0.358718
C7_3 C 0.6057(4) 0.0580(3) 0.2934(4)
C8_3 C 0.83837(27) 0.29927(18) 0.0835(3)
O16_3 O 0.93115(16) 0.48466(11) 0.2502(2)
O19_3 O 0.99841(27) 0.42617(14) 0.0846(2)
O22_3 O 0.84682(21) 0.48883(16) 0.0497(3)
Zn2_3 Zn 0.95583(3) 0.36805(2) 0.93713(3)
O1_3 O 0.93115(16) 0.44649(11) 0.9165(2)
H4_3 H 0.8918(13) 0.4405(11) 0.903(4)
O7_5 O 1.0000(10) 0.6264(7) 0.833334
O8_3 O 0.9686(17) 0.2604(14) 0.9785(19)
O24_3 O 0.94571(23) 0.34323(18) 0.7697(2)
H11_3 H 0.929028 0.218163 0.944128
H14_3 H 0.986424 0.254314 0.719304
O3_3 O 0.57224(23) 0.99841(18) 0.2513(2)
O2_2 O 0.07171(26) 0.4830(2) 0.2193(3)
C1_4 C 0.11754(18) 0.4519(3) 0.0664(4)
C5_4 C 0.2400(2) 0.4828(4) 0.0758(4)
H2_4 H 0.281892 0.501248 0.115077
C6_4 C 0.1825(2) 0.4812(4) 0.1218(4)
H3_4 H 0.186370 0.500153 0.192051
C7_4 C 0.0580(3) 0.4523(2) 0.1267(4)
Zn6_3 Zn -0.00000(4) 0.46880(3) 0.333334
Zn1_2 Zn 0.53120(3) 0.53120(3) 0.666667
O1_4 O 0.44649(11) 0.51534(11) 0.7498(2)
O4_4 O 0.29023(14) 0.41606(18) 0.8428(2)
O5_4 O 0.35799(13) 0.51117(16) 0.9503(3)
C2_4 C 0.11207(16) 0.42430(19) 0.9591(3)
C3_4 C 0.17287(17) 0.4272(2) 0.9134(3)
H1_4 H 0.170477 0.408812 0.843170
C4_4 C 0.23499(19) 0.4565(3) 0.9703(3)
C8_4 C 0.29927(18) 0.4609(2) 0.9168(3)
H4_4 H 0.4405(11) 0.5487(7) 0.736(4)
O7_6 O 0.6264(7) 0.6264(7) 0.666667
O8_4 O 0.2604(14) 0.2918(10) 0.8118(19)
O10_3 O 0.4830(2) 0.07171(26) 0.1140(3)
O12_4 O 0.41606(18) 0.29023(14) 0.4905(2)
C9_4 C 0.4519(3) 0.11754(18) 0.2669(4)
C10_4 C 0.42430(19) 0.11207(16) 0.3742(3)
C11_4 C 0.4272(2) 0.17287(17) 0.4199(3)
H5_4 H 0.408812 0.170477 0.490163
C12_4 C 0.4565(3) 0.23499(19) 0.3630(3)
C13_4 C 0.4828(4) 0.2400(2) 0.2575(4)
H6_4 H 0.501248 0.281892 0.218256
C14_4 C 0.4812(4) 0.1825(2) 0.2115(4)
H7_4 H 0.500153 0.186370 0.141282
C15_4 C 0.4523(2) 0.0580(3) 0.2066(4)
C16_4 C 0.4609(2) 0.29927(18) 0.4165(3)
H8_4 H 0.5487(7) 0.4405(11) 0.597(4)
O15_4 O 0.2918(10) 0.2604(14) 0.5215(19)
Zn5_3 Zn 0.46880(3) 0.00000(4) 0.000000
O17_3 O 0.5170(2) 0.58871(33) 0.5526(3)
O18_2 O 0.58871(33) 0.5170(2) 0.7807(3)
H11_4 H 0.218163 0.289135 0.777461
H12_4 H 0.26789 0.254314 0.780696
H13_4 H 0.289135 0.218163 0.555872
H14_4 H 0.254314 0.26789 0.552637
Zn5_4 Zn 0.46880(3) 0.00000(4) 1.000000
Zn5_5 Zn 0.46880(3) 1.00000(4) 0.000000
Zn5_6 Zn 0.46880(3) 1.00000(4) 1.000000
Zn6_4 Zn 1.00000(4) 0.46880(3) 0.333334
O7_7 O 0.3736(7) -0.0000(10) 0.000000
H9_3 H 0.361723 0.00630122 0.0769362
H12_5 H 0.745686 0.0135759 0.114029
O7_8 O 0.3736(7) -0.0000(10) 1.000000
O10_4 O 0.92829(26) 0.41129(33) 0.4474(3)
O12_5 O 0.70977(14) 0.12583(23) 0.8239(2)
C9_5 C 0.88246(18) 0.33436(35) 0.6003(4)
C10_5 C 0.88793(16) 0.31223(25) 0.7076(3)
C11_5 C 0.82713(17) 0.25433(26) 0.7533(3)
H5_5 H 0.829523 0.238335 0.823497
C12_5 C 0.76501(19) 0.22151(36) 0.6964(3)
C13_5 C 0.7600(2) 0.2428(4) 0.5909(4)
H6_5 H 0.718108 0.219356 0.551590
C14_5 C 0.8175(2) 0.2987(4) 0.5449(4)
H7_5 H 0.813630 0.313783 0.474616
C15_5 C 0.9420(3) 0.3943(4) 0.5400(4)
C16_5 C 0.70073(18) 0.16163(27) 0.7499(3)
H8_5 H 0.5595(11) 0.1082(13) 0.931(4)
O15_5 O 0.7396(14) 0.0314(17) 0.8549(19)
H10_3 H 0.378073 0.0390024 0.952907
H13_5 H 0.781837 0.0709721 0.889206
O1_5 O 0.48466(11) 0.93115(16) 0.0831(2)
O4_5 O 0.58394(18) 0.87417(23) 0.1761(2)
O5_5 O 0.48883(16) 0.84682(21) 0.2836(3)
C1_5 C 0.5481(3) 0.66564(35) 0.3997(4)
C2_5 C 0.57570(19) 0.68777(25) 0.2924(3)
C3_5 C 0.5728(2) 0.74567(26) 0.2467(3)
H1_5 H 0.591188 0.761665 0.176503
C4_5 C 0.5435(3) 0.77849(36) 0.3036(3)
C5_5 C 0.5172(4) 0.7572(4) 0.4091(4)
H2_5 H 0.498752 0.780644 0.448410
C6_5 C 0.5188(4) 0.7013(4) 0.4551(4)
H3_5 H 0.499847 0.686217 0.525384
C7_5 C 0.5477(2) 0.6057(4) 0.4600(4)
C8_5 C 0.5391(2) 0.83837(27) 0.2501(3)
H4_5 H 0.4513(7) 0.8918(13) 0.069(4)
O7_9 O 0.3736(7) 1.0000(10) 0.000000
O8_5 O 0.7082(10) 0.9686(17) 0.1451(19)
H11_5 H 0.710865 0.929028 0.110794
O7_10 O 0.3736(7) 1.0000(10) 1.000000
O17_4 O 0.41129(33) 0.92829(39) 0.8860(3)
H14_5 H 0.73211 0.986424 0.885971
O1_6 O 0.06885(16) 0.55351(11) 0.4165(2)
O4_6 O 0.12583(23) 0.70977(14) 0.5095(2)
O5_6 O 0.15318(21) 0.64201(13) 0.6170(3)
C1_6 C 0.33436(35) 0.88246(18) 0.7331(4)
C2_6 C 0.31223(25) 0.88793(16) 0.6258(3)
C3_6 C 0.25433(26) 0.82713(17) 0.5801(3)
H1_6 H 0.238335 0.829523 0.509837
C4_6 C 0.22151(36) 0.76501(19) 0.6370(3)
C5_6 C 0.2428(4) 0.7600(2) 0.7425(4)
H2_6 H 0.219356 0.718108 0.781744
C6_6 C 0.2987(4) 0.8175(2) 0.7885(4)
H3_6 H 0.313783 0.813630 0.858718
C7_6 C 0.3943(4) 0.9420(3) 0.7934(4)
C8_6 C 0.16163(27) 0.70073(18) 0.5835(3)
H4_6 H 0.1082(13) 0.5595(11) 0.403(4)
O7_11 O -0.0000(10) 0.3736(7) 0.333334
O8_6 O 0.0314(17) 0.7396(14) 0.4785(19)
H11_6 H 0.0709721 0.781837 0.444128
H14_6 H 0.0135759 0.745686 0.219304
O7_12 O 1.0000(10) 0.3736(7) 0.333334
O12_6 O 0.87417(23) 0.58394(18) 0.1572(2)
C10_6 C 0.68777(25) 0.57570(19) 0.0409(3)
C11_6 C 0.74567(26) 0.5728(2) 0.0866(3)
H5_6 H 0.761665 0.591188 0.156830
C12_6 C 0.77849(36) 0.5435(3) 0.0297(3)
C16_6 C 0.83837(27) 0.5391(2) 0.0832(3)
H8_6 H 0.8918(13) 0.4513(7) 0.264(4)
O15_6 O 0.9686(17) 0.7082(10) 0.1882(19)
H9_4 H 0.993699 0.355422 0.410269
H10_4 H 0.960998 0.339071 0.28624
H12_6 H 0.986424 0.73211 0.447363
H13_6 H 0.929028 0.710865 0.222539
C9_6 C 0.66564(35) 0.5481(3) 0.9336(4)
C13_6 C 0.7572(4) 0.5172(4) 0.9242(4)
H6_6 H 0.780644 0.498752 0.884923
C14_6 C 0.7013(4) 0.5188(4) 0.8782(4)
H7_6 H 0.686217 0.499847 0.807949
C15_6 C 0.6057(4) 0.5477(2) 0.8733(4)
H9_5 H 0.993699 0.638277 0.756397
H10_5 H 0.960998 0.621927 0.880426
H9_6 H 0.644578 0.00630122 0.423064
H10_6 H 0.660929 0.0390024 0.547093
H9_7 H 0.00630122 0.361723 0.256397
H10_7 H 0.0390024 0.378073 0.380426
H10_8 H 0.339071 0.960998 0.0470931
H9_8 H 0.355422 0.993699 0.923064
loop_
_geom_bond_atom_site_label_1
_geom_bond_atom_site_label_2
_geom_bond_site_symmetry_1
_geom_bond_site_symmetry_2
Zn8 O3 1_555 1_555
Zn13 O3 1_555 1_555
Zn10 O11 1_555 1_555
Zn11 O11 1_555 1_555
Zn1 O1 1_555 1_555
Zn2 O1 1_555 1_555
Zn3 O1 1_555 1_555
O1 H4 1_555 1_555
O2 C7 1_555 1_555
O4 Zn2 1_555 1_555
O5 Zn3 1_555 1_555
O6 C2 1_555 1_555
C1 C2 1_555 1_555
C2 C3 1_555 1_555
C3 H1 1_555 1_555
C4 C3 1_555 1_555
C5 C4 1_555 1_555
H2 C5 1_555 1_555
C6 C1 1_555 1_555
H3 C6 1_555 1_555
C7 C1 1_555 1_555
C8 O4 1_555 1_555
O7 Zn1 1_555 1_555
O8 Zn2 1_555 1_555
Zn4 O9 1_555 1_555
O9 Zn1 1_555 1_555
H8 O9 1_555 1_555
O15 Zn4 1_555 1_555
Zn6_2 O2 1_555 1_555
Zn9 O6 1_555 1_555
O16 Zn3 1_555 1_555
O17 Zn1 1_555 1_555
O18 Zn1 1_555 1_555
O19 Zn2 1_555 1_555
O20 Zn3 1_555 1_555
O22 Zn3 1_555 1_555
O23 Zn2 1_555 1_555
O24 Zn2 1_555 1_555
Zn3 O19 1_555 1_555
O5 C8 1_555 1_555
C4 C8 1_555 1_555
C5 C6 1_555 1_555
Zn4 O23 1_555 1_555
Zn4 O24 1_555 1_555
O8 H11 1_555 1_555
O8 H12 1_555 1_555
O15 H13 1_555 1_555
O15 H14 1_555 1_555
O10 C15 1_555 1_555
O13 C16 1_555 1_555
O14 C10 1_555 1_555
C9 C10 1_555 1_555
C10 C11 1_555 1_555
C11 H5 1_555 1_555
C12 C11 1_555 1_555
C13 C12 1_555 1_555
H6 C13 1_555 1_555
C14 C9 1_555 1_555
H7 C14 1_555 1_555
C15 C9 1_555 1_555
C16 O12 1_555 1_555
Zn5_2 O10 1_555 1_555
O13 Zn12 1_555 1_555
C12 C16 1_555 1_555
C13 C14 1_555 1_555
Zn12 O21 1_555 1_555
Zn5 O1_2 1_555 1_555
Zn2_2 O1_2 1_555 1_555
Zn11 O1_2 1_555 1_555
O1_2 H4_2 1_555 1_555
O3_2 C7_2 1_555 1_555
O4_2 Zn2_2 1_555 1_555
O5_2 Zn11 1_555 1_555
O6_2 C2_2 1_555 1_555
C1_2 C2_2 1_555 1_555
C2_2 C3_2 1_555 1_555
C3_2 H1_2 1_555 1_555
C4_2 C3_2 1_555 1_555
C5_2 C4_2 1_555 1_555
H2_2 C5_2 1_555 1_555
C6_2 C1_2 1_555 1_555
C7_2 C1_2 1_555 1_555
C8_2 O4_2 1_555 1_555
O7_2 Zn5 1_555 1_555
O8_2 Zn2_2 1_555 1_555
Zn8_2 O3_2 1_555 1_555
Zn9_2 O6_2 1_555 1_555
Zn12 O3_2 1_555 1_555
O16_2 Zn11 1_555 1_555
O17_2 Zn5 1_555 1_555
O19_2 Zn2_2 1_555 1_555
O22_2 Zn11 1_555 1_555
O24_2 Zn2_2 1_555 1_555
Zn11 O19_2 1_555 1_555
O5_2 C8_2 1_555 1_555
O6_2 Zn8_2 1_555 1_555
C4_2 C8_2 1_555 1_555
C5_2 C6_2 1_555 1_555
O8_2 H11_2 1_555 1_555
O7_3 Zn5_2 1_555 1_555
Zn4_2 O9_2 1_555 1_555
O9_2 Zn5_2 1_555 1_555
O12_2 Zn4_2 1_555 1_555
O13_2 C16_2 1_555 1_555
O14_2 C10_2 1_555 1_555
C9_2 C10_2 1_555 1_555
C10_2 C11_2 1_555 1_555
C11_2 H5_2 1_555 1_555
C12_2 C11_2 1_555 1_555
C13_2 C12_2 1_555 1_555
H6_2 C13_2 1_555 1_555
C14_2 C9_2 1_555 1_555
C15_2 C9_2 1_555 1_555
C16_2 O12_2 1_555 1_555
H8_2 O9_2 1_555 1_555
O15_2 Zn4_2 1_555 1_555
Zn8 O14_2 1_555 1_555
Zn12_2 O9_2 1_555 1_555
O21_2 Zn4_2 1_555 1_555
Zn4_2 O23_2 1_555 1_555
O13_2 Zn12_2 1_555 1_555
C12_2 C16_2 1_555 1_555
C13_2 C14_2 1_555 1_555
Zn12_2 O21_2 1_555 1_555
O7_3 H9 1_555 1_555
O7_3 H10 1_555 1_555
O15_2 H13_2 1_555 1_555
Zn6 O10_2 1_555 1_555
Zn9 O11_2 1_555 1_555
Zn11_2 O11_2 1_555 1_555
O7_4 Zn6 1_555 1_555
Zn4_3 O9_3 1_555 1_555
O9_3 Zn6 1_555 1_555
O18 C15_3 1_555 1_555
O20 C15_3 1_555 1_555
O12_3 Zn4_3 1_555 1_555
O13_3 C16_3 1_555 1_555
O14_3 C10_3 1_555 1_555
C9_3 C10_3 1_555 1_555
C10_3 C11_3 1_555 1_555
C11_3 H5_3 1_555 1_555
C12_3 C11_3 1_555 1_555
C13_3 C12_3 1_555 1_555
H6_3 C13_3 1_555 1_555
C14_3 C9_3 1_555 1_555
H7_3 C14_3 1_555 1_555
C15_3 C9_3 1_555 1_555
C16_3 O12_3 1_555 1_555
H8_3 O9_3 1_555 1_555
O15_3 Zn4_3 1_555 1_555
Zn8_2 O14_3 1_555 1_555
Zn9_2 O20 1_555 1_555
Zn13 O9_3 1_555 1_555
O21_3 Zn4_3 1_555 1_555
Zn4_3 O23_3 1_555 1_555
O13_3 Zn13 1_555 1_555
O14_3 Zn9_2 1_555 1_555
C12_3 C16_3 1_555 1_555
C13_3 C14_3 1_555 1_555
Zn13 O21_3 1_555 1_555
O7_4 H9_2 1_555 1_555
O7_4 H10_2 1_555 1_555
O15_3 H13_3 1_555 1_555
O17_2 C7_3 1_555 1_555
O5_3 Zn11_2 1_555 1_555
O6_3 C2_3 1_555 1_555
C1_3 C2_3 1_555 1_555
C2_3 C3_3 1_555 1_555
C3_3 H1_3 1_555 1_555
C4_3 C3_3 1_555 1_555
C5_3 C4_3 1_555 1_555
H2_3 C5_3 1_555 1_555
C6_3 C1_3 1_555 1_555
H3_3 C6_3 1_555 1_555
C7_3 C1_3 1_555 1_555
C8_3 O4_3 1_555 1_555
O16_3 Zn11_2 1_555 1_555
O22_3 Zn11_2 1_555 1_555
Zn11_2 O19_3 1_555 1_555
O5_3 C8_3 1_555 1_555
C4_3 C8_3 1_555 1_555
C5_3 C6_3 1_555 1_555
Zn6_2 O1_3 1_555 1_555
Zn2_3 O1_3 1_555 1_555
O1_3 H4_3 1_555 1_555
O7_5 Zn6_2 1_555 1_555
O8_3 Zn2_3 1_555 1_555
O24_3 Zn2_3 1_555 1_555
O8_3 H11_3 1_555 1_555
Zn7 O3_3 1_555 1_555
Zn12_2 O3_3 1_555 1_555
O2_2 C7_4 1_555 1_555
H2_4 C5_4 1_555 1_555
C6_4 C1_4 1_555 1_555
H3_4 C6_4 1_555 1_555
C7_4 C1_4 1_555 1_555
Zn6_3 O2_2 1_555 1_555
C5_4 C6_4 1_555 1_555
Zn1_2 O1_4 1_555 1_555
Zn8_2 O1_4 1_555 1_555
Zn12 O1_4 1_555 1_555
O1_4 H4_4 1_555 1_555
O4_4 Zn8_2 1_555 1_555
O5_4 Zn12 1_555 1_555
O23_3 C2_4 1_555 1_555
C2_4 C3_4 1_555 1_555
C3_4 H1_4 1_555 1_555
C4_4 C3_4 1_555 1_555
C8_4 O4_4 1_555 1_555
O7_6 Zn1_2 1_555 1_555
O8_4 Zn8_2 1_555 1_555
Zn9_2 O16 1_555 1_555
O16 Zn1_2 1_555 1_555
O10_3 C15_4 1_555 1_555
O12_4 Zn9_2 1_555 1_555
O22 C16_4 1_555 1_555
O24_2 C10_4 1_555 1_555
C9_4 C10_4 1_555 1_555
C10_4 C11_4 1_555 1_555
C11_4 H5_4 1_555 1_555
C12_4 C11_4 1_555 1_555
C13_4 C12_4 1_555 1_555
H6_4 C13_4 1_555 1_555
C14_4 C9_4 1_555 1_555
H7_4 C14_4 1_555 1_555
C15_4 C9_4 1_555 1_555
C16_4 O12_4 1_555 1_555
H8_4 O16 1_555 1_555
O15_4 Zn9_2 1_555 1_555
Zn5_3 O10_3 1_555 1_555
O17_3 Zn1_2 1_555 1_555
O18_2 Zn1_2 1_555 1_555
O5_4 C8_4 1_555 1_555
C4_4 C8_4 1_555 1_555
C12_4 C16_4 1_555 1_555
C13_4 C14_4 1_555 1_555
O8_4 H11_4 1_555 1_555
O8_4 H12_4 1_555 1_555
O15_4 H13_4 1_555 1_555
O15_4 H14_4 1_555 1_555
O7_7 Zn5_3 1_555 1_555
O7_7 H9_3 1_555 1_555
O7_8 Zn5_4 1_555 1_555
Zn10 O16_2 1_555 1_555
O16_2 Zn5_4 1_555 1_555
O10_4 C15_5 1_555 1_555
O12_5 Zn10 1_555 1_555
O22_2 C16_5 1_555 1_555
O24_3 C10_5 1_555 1_555
C9_5 C10_5 1_555 1_555
C10_5 C11_5 1_555 1_555
C11_5 H5_5 1_555 1_555
C12_5 C11_5 1_555 1_555
C13_5 C12_5 1_555 1_555
H6_5 C13_5 1_555 1_555
C14_5 C9_5 1_555 1_555
H7_5 C14_5 1_555 1_555
C15_5 C9_5 1_555 1_555
C16_5 O12_5 1_555 1_555
H8_5 O16_2 1_555 1_555
O15_5 Zn10 1_555 1_555
Zn6_4 O10_4 1_555 1_555
C12_5 C16_5 1_555 1_555
C13_5 C14_5 1_555 1_555
O7_8 H10_3 1_555 1_555
O15_5 H13_5 1_555 1_555
Zn5_5 O1_5 1_555 1_555
Zn7 O1_5 1_555 1_555
Zn12_2 O1_5 1_555 1_555
O1_5 H4_5 1_555 1_555
O17_3 C7_5 1_555 1_555
O19 C7_5 1_555 1_555
O4_5 Zn7 1_555 1_555
O5_5 Zn12_2 1_555 1_555
O23 C2_5 1_555 1_555
C1_5 C2_5 1_555 1_555
C2_5 C3_5 1_555 1_555
C3_5 H1_5 1_555 1_555
C4_5 C3_5 1_555 1_555
C5_5 C4_5 1_555 1_555
H2_5 C5_5 1_555 1_555
C6_5 C1_5 1_555 1_555
H3_5 C6_5 1_555 1_555
C7_5 C1_5 1_555 1_555
C8_5 O4_5 1_555 1_555
O7_9 Zn5_5 1_555 1_555
O8_5 Zn7 1_555 1_555
O5_5 C8_5 1_555 1_555
C4_5 C8_5 1_555 1_555
C5_5 C6_5 1_555 1_555
O8_5 H11_5 1_555 1_555
O7_10 Zn5_6 1_555 1_555
O17_4 Zn5_6 1_555 1_555
Zn6_3 O1_6 1_555 1_555
Zn8 O1_6 1_555 1_555
Zn13 O1_6 1_555 1_555
O1_6 H4_6 1_555 1_555
O17_4 C7_6 1_555 1_555
O4_6 Zn8 1_555 1_555
O5_6 Zn13 1_555 1_555
O23_2 C2_6 1_555 1_555
C1_6 C2_6 1_555 1_555
C2_6 C3_6 1_555 1_555
C3_6 H1_6 1_555 1_555
C4_6 C3_6 1_555 1_555
C5_6 C4_6 1_555 1_555
H2_6 C5_6 1_555 1_555
C6_6 C1_6 1_555 1_555
H3_6 C6_6 1_555 1_555
C7_6 C1_6 1_555 1_555
C8_6 O4_6 1_555 1_555
O7_11 Zn6_3 1_555 1_555
O8_6 Zn8 1_555 1_555
O5_6 C8_6 1_555 1_555
C4_6 C8_6 1_555 1_555
C5_6 C6_6 1_555 1_555
O8_6 H11_6 1_555 1_555
O7_12 Zn6_4 1_555 1_555
Zn9 O16_3 1_555 1_555
O16_3 Zn6_4 1_555 1_555
O12_6 Zn9 1_555 1_555
O22_3 C16_6 1_555 1_555
O24 C10_6 1_555 1_555
C10_6 C11_6 1_555 1_555
C11_6 H5_6 1_555 1_555
C12_6 C11_6 1_555 1_555
C16_6 O12_6 1_555 1_555
H8_6 O16_3 1_555 1_555
O15_6 Zn9 1_555 1_555
C12_6 C16_6 1_555 1_555
O7_12 H9_4 1_555 1_555
O7_12 H10_4 1_555 1_555
O15_6 H13_6 1_555 1_555
O18_2 C15_6 1_555 1_555
O21 C15_6 1_555 1_555
H6_6 C13_6 1_555 1_555
C14_6 C9_6 1_555 1_555
H7_6 C14_6 1_555 1_555
C15_6 C9_6 1_555 1_555
C13_6 C14_6 1_555 1_555
O7_5 H9_5 1_555 1_555
O7_5 H10_5 1_555 1_555
O7_2 H9_6 1_555 1_555
O7_2 H10_6 1_555 1_555
O7_11 H9_7 1_555 1_555
O7_11 H10_7 1_555 1_555
O7_9 H10_8 1_555 1_555
O7_10 H9_8 1_555 1_555

#END
