
###############################################################################
#
# This file contains modified crystal structure data generated from the
# MOF subset of the Cambridge Structural Database (CSD) v543 
# hosted by the Cambridge Crystallographic Data Centre (CCDC).
#
# This work is licensed under the Creative Commons
# Attribution-NonCommercial-ShareAlike 4.0 International License.
# To view a copy of this license, visit
# http://creativecommons.org/licenses/by-nc-sa/4.0/
# or send a letter to
# Creative Commons, PO Box 1866, Mountain View, CA 94042, USA.
#
# CIF created using the CSD Python API on 29 September 2022
# The structure has been converted into the P1 space group
# The structure has a 3D framework
# The original CSD entry GOMRAE is in the orthorhombic crystal system
# The framework has been calculated to contain at least 10.0% void space
# The void calculation uses a probe of radius 1.32A, grid spacing 0.4
# H atom positions have been added when not included in the experimental data
#
###############################################################################

data_GOMRAE
_chemical_formula_moiety         '(C448 H320 O208 Zn56)n'
_symmetry_cell_setting           triclinic
_symmetry_space_group_name_H-M   'P 1'
_symmetry_Int_Tables_number      1
_space_group_name_Hall           'P 1'
loop_
_symmetry_equiv_pos_site_id
_symmetry_equiv_pos_as_xyz
1 x,y,z
_cell_length_a                   11.987(3)
_cell_length_b                   39.230(8)
_cell_length_c                   47.618(11)
_cell_angle_alpha                90
_cell_angle_beta                 90
_cell_angle_gamma                90
_cell_volume                     22392.4
loop_
_atom_site_label
_atom_site_type_symbol
_atom_site_fract_x
_atom_site_fract_y
_atom_site_fract_z
Zn14 Zn 0.125000 0.625000 0.40856(2)
O9 O 0.1221(4) 0.08299(14) 0.37261(11)
O12 O 0.3075(4) 0.05316(13) 0.39648(10)
C15 C 0.1209(6) 0.0524(2) 0.41612(16)
C16 C 0.2363(5) 0.04399(18) 0.41692(15)
C17 C 0.2762(6) 0.0260(2) 0.44006(17)
H9 H 0.352136 0.021444 0.441343
C18 C 0.2054(7) 0.0146(3) 0.46141(19)
C19 C 0.0905(7) 0.0218(3) 0.4597(2)
H10 H 0.042188 0.014085 0.473623
C20 C 0.0504(6) 0.0401(3) 0.43734(19)
C21 C 0.0690(5) 0.07428(18) 0.39430(15)
C26 C 0.3415(8) 0.0074(3) 0.5004(2)
H14 H 0.376034 0.027385 0.494450
Zn6 Zn 0.47808(7) 0.06102(2) 0.39402(2)
Zn9 Zn 0.27192(7) 0.06102(2) 0.35598(2)
Zn13 Zn 0.125000 0.125000 0.34144(2)
H19 H 0.389634 0.000763799 0.609276
H20 H 0.491823 0.00563999 0.631225
Zn1 Zn 0.875000 0.63888(3) 0.375000
Zn2 Zn 0.22808(7) 0.81102(2) 0.60598(2)
Zn3 Zn 0.375000 0.875000 0.59144(2)
O1 O 0.7910(3) 0.61293(12) 0.34688(10)
H1 H 0.826(4) 0.6116(15) 0.3322(7)
O2 O 0.7799(4) 0.66584(16) 0.39889(12)
O3 O 0.6279(4) 0.66701(14) 0.37261(11)
O4 O 0.2945(5) 0.79498(17) 0.57157(14)
O5 O 0.4100(5) 0.83848(15) 0.56209(11)
O6 O 0.4425(4) 0.69684(13) 0.39648(10)
C1 C 0.6291(6) 0.6976(2) 0.41612(16)
C2 C 0.5137(5) 0.70601(18) 0.41692(15)
C3 C 0.4738(6) 0.7240(2) 0.44006(17)
H2 H 0.397864 0.728556 0.441343
C4 C 0.5446(7) 0.7354(3) 0.46141(19)
C5 C 0.6595(7) 0.7282(3) 0.4597(2)
H3 H 0.707812 0.735915 0.473623
C6 C 0.6996(6) 0.7099(3) 0.43734(19)
H4 H 0.775703 0.705449 0.436232
C7 C 0.6810(5) 0.67572(18) 0.39430(15)
C8 C 0.4178(6) 0.7895(2) 0.53285(19)
C9 C 0.5107(7) 0.8015(3) 0.5188(2)
H5 H 0.545376 0.821388 0.524743
C10 C 0.5526(7) 0.7840(3) 0.4959(2)
H6 H 0.616197 0.791946 0.486823
C11 C 0.5005(6) 0.7545(3) 0.48630(19)
C12 C 0.4085(8) 0.7426(3) 0.5004(2)
H7 H 0.373966 0.722615 0.494450
C13 C 0.3662(8) 0.7601(3) 0.5238(2)
H8 H 0.303539 0.751855 0.533117
C14 C 0.3700(6) 0.8094(2) 0.55754(18)
O7 O 0.2787(15) 0.7519(5) 0.6120(4)
Zn4 Zn 0.52192(7) 0.93898(2) 0.60598(2)
O10 O 0.4555(5) 0.95502(17) 0.57157(14)
O11 O 0.3400(5) 0.91152(15) 0.56209(11)
C22 C 0.3322(6) 0.9605(2) 0.53285(19)
C23 C 0.2393(7) 0.9485(3) 0.5188(2)
H12 H 0.204624 0.928612 0.524743
C24 C 0.1974(7) 0.9660(3) 0.4959(2)
H13 H 0.133803 0.958054 0.486823
C25 C 0.2495(6) 0.9955(3) 0.48630(19)
C27 C 0.3838(8) 0.9899(3) 0.5238(2)
H15 H 0.446461 0.998145 0.533117
C28 C 0.3800(6) 0.9406(2) 0.55754(18)
O13 O 0.4713(15) 0.9981(5) 0.6120(4)
O14 O 0.9590(3) 0.61293(12) 0.40312(10)
H16 H 0.924(4) 0.6116(15) 0.4178(7)
Zn7 Zn 0.47808(7) 0.68898(2) 0.35598(2)
Zn8 Zn 0.77192(7) 0.56102(2) 0.35598(2)
Zn10 Zn 0.27192(7) 0.68898(2) 0.39402(2)
Zn11 Zn 0.97808(7) 0.56102(2) 0.39402(2)
Zn12 Zn 0.625000 0.625000 0.34144(2)
O15 O 0.2090(3) 0.86293(12) 0.59688(10)
O16 O 0.5410(3) 0.88707(12) 0.59688(10)
O17 O 0.9701(4) 0.66584(16) 0.35111(12)
O18 O 0.3721(4) 0.91701(14) 0.62261(11)
O19 O 0.3779(4) 0.83299(14) 0.62261(11)
O20 O 0.6925(4) 0.94684(13) 0.60352(10)
O21 O 0.5575(4) 0.94684(13) 0.64648(10)
O22 O 0.0575(4) 0.80316(13) 0.60352(10)
O23 O 0.1925(4) 0.80316(13) 0.64648(10)
H17 H 0.360366 0.749236 0.609276
H18 H 0.258177 0.74436 0.631225
O8 O 0.9701(4) 0.08416(16) 0.39889(12)
H11 H 0.974297 0.044551 0.436232
Zn5 Zn 0.875000 0.11112(3) 0.375000
O1_2 O 0.9590(3) 0.13707(12) 0.34688(10)
H1_2 H 0.924(4) 0.1384(15) 0.3322(7)
O14_2 O 0.7910(3) 0.13707(12) 0.40312(10)
H16_2 H 0.826(4) 0.1384(15) 0.4178(7)
Zn8_2 Zn 0.97808(7) 0.18898(2) 0.35598(2)
Zn11_2 Zn 0.77192(7) 0.18898(2) 0.39402(2)
Zn14_2 Zn 0.625000 0.125000 0.40856(2)
O17_2 O 0.7799(4) 0.08416(16) 0.35111(12)
O9_2 O 0.6279(4) 0.08299(14) 0.37739(11)
O12_2 O 0.4425(4) 0.05316(13) 0.35352(10)
C15_2 C 0.6291(6) 0.0524(2) 0.33388(16)
C16_2 C 0.5137(5) 0.04399(18) 0.33308(15)
C17_2 C 0.4738(6) 0.0260(2) 0.30994(17)
H9_2 H 0.397864 0.021444 0.308657
C18_2 C 0.5446(7) 0.0146(3) 0.28859(19)
C19_2 C 0.6595(7) 0.0218(3) 0.2903(2)
H10_2 H 0.707812 0.014085 0.276377
C20_2 C 0.6996(6) 0.0401(3) 0.31266(19)
H11_2 H 0.775703 0.044551 0.313768
C21_2 C 0.6810(5) 0.07428(18) 0.35570(15)
C26_2 C 0.4085(8) 0.0074(3) 0.2496(2)
H14_2 H 0.373966 0.027385 0.255550
H19_2 H 0.360366 0.000763799 0.140724
H20_2 H 0.258177 0.00563999 0.118775
Zn2_2 Zn 0.52192(7) 0.81102(2) 0.14402(2)
Zn3_2 Zn 0.375000 0.875000 0.15856(2)
O3_2 O 0.1221(4) 0.66701(14) 0.37739(11)
O4_2 O 0.4555(5) 0.79498(17) 0.17843(14)
O5_2 O 0.3400(5) 0.83848(15) 0.18791(11)
O6_2 O 0.3075(4) 0.69684(13) 0.35352(10)
C1_2 C 0.1209(6) 0.6976(2) 0.33388(16)
C2_2 C 0.2363(5) 0.70601(18) 0.33308(15)
C3_2 C 0.2762(6) 0.7240(2) 0.30994(17)
H2_2 H 0.352136 0.728556 0.308657
C4_2 C 0.2054(7) 0.7354(3) 0.28859(19)
C5_2 C 0.0905(7) 0.7282(3) 0.2903(2)
H3_2 H 0.042188 0.735915 0.276377
C6_2 C 0.0504(6) 0.7099(3) 0.31266(19)
C7_2 C 0.0690(5) 0.67572(18) 0.35570(15)
C8_2 C 0.3322(6) 0.7895(2) 0.21715(19)
C9_2 C 0.2393(7) 0.8015(3) 0.2312(2)
H5_2 H 0.204624 0.821388 0.225257
C10_2 C 0.1974(7) 0.7840(3) 0.2541(2)
H6_2 H 0.133803 0.791946 0.263177
C11_2 C 0.2495(6) 0.7545(3) 0.26370(19)
C12_2 C 0.3415(8) 0.7426(3) 0.2496(2)
H7_2 H 0.376034 0.722615 0.255550
C13_2 C 0.3838(8) 0.7601(3) 0.2262(2)
H8_2 H 0.446461 0.751855 0.216883
C14_2 C 0.3800(6) 0.8094(2) 0.19246(18)
O7_2 O 0.4713(15) 0.7519(5) 0.1380(4)
Zn4_2 Zn 0.22808(7) 0.93898(2) 0.14402(2)
O10_2 O 0.2945(5) 0.95502(17) 0.17843(14)
O11_2 O 0.4100(5) 0.91152(15) 0.18791(11)
C22_2 C 0.4178(6) 0.9605(2) 0.21715(19)
C23_2 C 0.5107(7) 0.9485(3) 0.2312(2)
H12_2 H 0.545376 0.928612 0.225257
C24_2 C 0.5526(7) 0.9660(3) 0.2541(2)
H13_2 H 0.616197 0.958054 0.263177
C25_2 C 0.5005(6) 0.9955(3) 0.26370(19)
C27_2 C 0.3662(8) 0.9899(3) 0.2262(2)
H15_2 H 0.303539 0.998145 0.216883
C28_2 C 0.3700(6) 0.9406(2) 0.19246(18)
O13_2 O 0.2787(15) 0.9981(5) 0.1380(4)
O15_2 O 0.5410(3) 0.86293(12) 0.15312(10)
O16_2 O 0.2090(3) 0.88707(12) 0.15312(10)
O18_2 O 0.3779(4) 0.91701(14) 0.12739(11)
O19_2 O 0.3721(4) 0.83299(14) 0.12739(11)
O20_2 O 0.0575(4) 0.94684(13) 0.14648(10)
O21_2 O 0.1925(4) 0.94684(13) 0.10352(10)
O22_2 O 0.6925(4) 0.80316(13) 0.14648(10)
O23_2 O 0.5575(4) 0.80316(13) 0.10352(10)
H17_2 H 0.389634 0.749236 0.140724
H18_2 H 0.491823 0.74436 0.118775
H4_2 H 0.974297 0.705449 0.313768
Zn14_3 Zn 0.125000 0.125000 0.90856(2)
Zn2_3 Zn 0.22808(7) 0.31102(2) 0.10598(2)
Zn3_3 Zn 0.375000 0.375000 0.09144(2)
O4_3 O 0.2945(5) 0.29498(17) 0.07157(14)
O5_3 O 0.4100(5) 0.33848(15) 0.06209(11)
C8_3 C 0.4178(6) 0.2895(2) 0.03285(19)
C9_3 C 0.5107(7) 0.3015(3) 0.0188(2)
H5_3 H 0.545376 0.321388 0.024743
C12_3 C 0.4085(8) 0.2426(3) 0.0004(2)
C13_3 C 0.3662(8) 0.2601(3) 0.0238(2)
H8_3 H 0.303539 0.251855 0.033117
C14_3 C 0.3700(6) 0.3094(2) 0.05754(18)
O7_3 O 0.2787(15) 0.2519(5) 0.1120(4)
Zn4_3 Zn 0.52192(7) 0.43898(2) 0.10598(2)
O10_3 O 0.4555(5) 0.45502(17) 0.07157(14)
O11_3 O 0.3400(5) 0.41152(15) 0.06209(11)
C22_3 C 0.3322(6) 0.4605(2) 0.03285(19)
C23_3 C 0.2393(7) 0.4485(3) 0.0188(2)
H12_3 H 0.204624 0.428612 0.024743
C26_3 C 0.3415(8) 0.5074(3) 0.0004(2)
C27_3 C 0.3838(8) 0.4899(3) 0.0238(2)
H15_3 H 0.446461 0.498145 0.033117
C28_3 C 0.3800(6) 0.4406(2) 0.05754(18)
O13_3 O 0.4713(15) 0.4981(5) 0.1120(4)
O15_3 O 0.2090(3) 0.36293(12) 0.09688(10)
O16_3 O 0.5410(3) 0.38707(12) 0.09688(10)
O18_3 O 0.3721(4) 0.41701(14) 0.12261(11)
O19_3 O 0.3779(4) 0.33299(14) 0.12261(11)
O20_3 O 0.6925(4) 0.44684(13) 0.10352(10)
O21_3 O 0.5575(4) 0.44684(13) 0.14648(10)
O22_3 O 0.0575(4) 0.30316(13) 0.10352(10)
O23_3 O 0.1925(4) 0.30316(13) 0.14648(10)
H17_3 H 0.360366 0.249236 0.109276
H18_3 H 0.258177 0.24436 0.131225
H19_3 H 0.389634 0.500764 0.109276
H20_3 H 0.491823 0.50564 0.131225
Zn1_2 Zn 0.875000 0.13888(3) 0.875000
O1_3 O 0.7910(3) 0.11293(12) 0.84688(10)
H1_3 H 0.826(4) 0.1116(15) 0.8322(7)
O2_2 O 0.7799(4) 0.16584(16) 0.89889(12)
O3_3 O 0.6279(4) 0.16701(14) 0.87261(11)
O6_3 O 0.4425(4) 0.19684(13) 0.89648(10)
C1_3 C 0.6291(6) 0.1976(2) 0.91612(16)
C2_3 C 0.5137(5) 0.20601(18) 0.91692(15)
C3_3 C 0.4738(6) 0.2240(2) 0.94006(17)
H2_3 H 0.397864 0.228556 0.941343
C4_3 C 0.5446(7) 0.2354(3) 0.96141(19)
C5_3 C 0.6595(7) 0.2282(3) 0.9597(2)
H3_3 H 0.707812 0.235915 0.973623
C6_3 C 0.6996(6) 0.2099(3) 0.93734(19)
H4_3 H 0.775703 0.205449 0.936232
C7_3 C 0.6810(5) 0.17572(18) 0.89430(15)
C10_3 C 0.5526(7) 0.2840(3) 0.9959(2)
H6_3 H 0.616197 0.291946 0.986823
C11_3 C 0.5005(6) 0.2545(3) 0.98630(19)
H7_3 H 0.373966 0.222615 0.994450
O9_3 O 0.1221(4) 0.58299(14) 0.87261(11)
O12_3 O 0.3075(4) 0.55316(13) 0.89648(10)
C15_3 C 0.1209(6) 0.5524(2) 0.91612(16)
C16_3 C 0.2363(5) 0.54399(18) 0.91692(15)
C17_3 C 0.2762(6) 0.5260(2) 0.94006(17)
H9_3 H 0.352136 0.521444 0.941343
C18_3 C 0.2054(7) 0.5146(3) 0.96141(19)
C19_3 C 0.0905(7) 0.5218(3) 0.9597(2)
H10_3 H 0.042188 0.514085 0.973623
C20_3 C 0.0504(6) 0.5401(3) 0.93734(19)
C21_3 C 0.0690(5) 0.57428(18) 0.89430(15)
C24_3 C 0.1974(7) 0.4660(3) 0.9959(2)
H13_3 H 0.133803 0.458054 0.986823
C25_3 C 0.2495(6) 0.4955(3) 0.98630(19)
H14_3 H 0.376034 0.527385 0.994450
O14_3 O 0.9590(3) 0.11293(12) 0.90312(10)
H16_3 H 0.924(4) 0.1116(15) 0.9178(7)
Zn6_2 Zn 0.47808(7) 0.56102(2) 0.89402(2)
Zn7_2 Zn 0.47808(7) 0.18898(2) 0.85598(2)
Zn8_3 Zn 0.77192(7) 0.06102(2) 0.85598(2)
Zn9_2 Zn 0.27192(7) 0.56102(2) 0.85598(2)
Zn10_2 Zn 0.27192(7) 0.18898(2) 0.89402(2)
Zn11_3 Zn 0.97808(7) 0.06102(2) 0.89402(2)
Zn12_2 Zn 0.625000 0.125000 0.84144(2)
Zn13_2 Zn 0.125000 0.625000 0.84144(2)
O17_3 O 0.9701(4) 0.16584(16) 0.85111(12)
O8_2 O 0.9701(4) 0.58416(16) 0.89889(12)
H11_3 H 0.974297 0.544551 0.936232
Zn5_2 Zn 0.875000 0.61112(3) 0.875000
O1_4 O 0.9590(3) 0.63707(12) 0.84688(10)
H1_4 H 0.924(4) 0.6384(15) 0.8322(7)
O14_4 O 0.7910(3) 0.63707(12) 0.90312(10)
H16_4 H 0.826(4) 0.6384(15) 0.9178(7)
Zn8_4 Zn 0.97808(7) 0.68898(2) 0.85598(2)
Zn11_4 Zn 0.77192(7) 0.68898(2) 0.89402(2)
Zn14_4 Zn 0.625000 0.625000 0.90856(2)
O17_4 O 0.7799(4) 0.58416(16) 0.85111(12)
Zn2_4 Zn 0.52192(7) 0.31102(2) 0.64402(2)
Zn3_4 Zn 0.375000 0.375000 0.65856(2)
O3_4 O 0.1221(4) 0.16701(14) 0.87739(11)
O4_4 O 0.4555(5) 0.29498(17) 0.67843(14)
O5_4 O 0.3400(5) 0.33848(15) 0.68791(11)
O6_4 O 0.3075(4) 0.19684(13) 0.85352(10)
C1_4 C 0.1209(6) 0.1976(2) 0.83388(16)
C2_4 C 0.2363(5) 0.20601(18) 0.83308(15)
C3_4 C 0.2762(6) 0.2240(2) 0.80994(17)
H2_4 H 0.352136 0.228556 0.808657
C4_4 C 0.2054(7) 0.2354(3) 0.78859(19)
C5_4 C 0.0905(7) 0.2282(3) 0.7903(2)
H3_4 H 0.042188 0.235915 0.776377
C6_4 C 0.0504(6) 0.2099(3) 0.81266(19)
C7_4 C 0.0690(5) 0.17572(18) 0.85570(15)
C8_4 C 0.3322(6) 0.2895(2) 0.71715(19)
C9_4 C 0.2393(7) 0.3015(3) 0.7312(2)
H5_4 H 0.204624 0.321388 0.725257
C10_4 C 0.1974(7) 0.2840(3) 0.7541(2)
H6_4 H 0.133803 0.291946 0.763177
C11_4 C 0.2495(6) 0.2545(3) 0.76370(19)
C12_4 C 0.3415(8) 0.2426(3) 0.7496(2)
H7_4 H 0.376034 0.222615 0.755550
C13_4 C 0.3838(8) 0.2601(3) 0.7262(2)
H8_4 H 0.446461 0.251855 0.716883
C14_4 C 0.3800(6) 0.3094(2) 0.69246(18)
O7_4 O 0.4713(15) 0.2519(5) 0.6380(4)
Zn4_4 Zn 0.22808(7) 0.43898(2) 0.64402(2)
O9_4 O 0.6279(4) 0.58299(14) 0.87739(11)
O10_4 O 0.2945(5) 0.45502(17) 0.67843(14)
O11_4 O 0.4100(5) 0.41152(15) 0.68791(11)
O12_4 O 0.4425(4) 0.55316(13) 0.85352(10)
C15_4 C 0.6291(6) 0.5524(2) 0.83388(16)
C16_4 C 0.5137(5) 0.54399(18) 0.83308(15)
C17_4 C 0.4738(6) 0.5260(2) 0.80994(17)
H9_4 H 0.397864 0.521444 0.808657
C18_4 C 0.5446(7) 0.5146(3) 0.78859(19)
C19_4 C 0.6595(7) 0.5218(3) 0.7903(2)
H10_4 H 0.707812 0.514085 0.776377
C20_4 C 0.6996(6) 0.5401(3) 0.81266(19)
H11_4 H 0.775703 0.544551 0.813768
C21_4 C 0.6810(5) 0.57428(18) 0.85570(15)
C22_4 C 0.4178(6) 0.4605(2) 0.71715(19)
C23_4 C 0.5107(7) 0.4485(3) 0.7312(2)
H12_4 H 0.545376 0.428612 0.725257
C24_4 C 0.5526(7) 0.4660(3) 0.7541(2)
H13_4 H 0.616197 0.458054 0.763177
C25_4 C 0.5005(6) 0.4955(3) 0.76370(19)
C26_4 C 0.4085(8) 0.5074(3) 0.7496(2)
H14_4 H 0.373966 0.527385 0.755550
C27_4 C 0.3662(8) 0.4899(3) 0.7262(2)
H15_4 H 0.303539 0.498145 0.716883
C28_4 C 0.3700(6) 0.4406(2) 0.69246(18)
O13_4 O 0.2787(15) 0.4981(5) 0.6380(4)
O15_4 O 0.5410(3) 0.36293(12) 0.65312(10)
O16_4 O 0.2090(3) 0.38707(12) 0.65312(10)
O18_4 O 0.3779(4) 0.41701(14) 0.62739(11)
O19_4 O 0.3721(4) 0.33299(14) 0.62739(11)
O20_4 O 0.0575(4) 0.44684(13) 0.64648(10)
O21_4 O 0.1925(4) 0.44684(13) 0.60352(10)
O22_4 O 0.6925(4) 0.30316(13) 0.64648(10)
O23_4 O 0.5575(4) 0.30316(13) 0.60352(10)
H17_4 H 0.389634 0.249236 0.640724
H18_4 H 0.491823 0.24436 0.618775
H19_4 H 0.360366 0.500764 0.640724
H20_4 H 0.258177 0.50564 0.618775
H4_4 H 0.974297 0.205449 0.813768
C9_5 C 0.0107(7) 0.8015(3) 0.0188(2)
H5_5 H 0.045376 0.821388 0.024743
Zn4_5 Zn 0.02192(7) 0.93898(2) 0.10598(2)
O16_5 O 0.0410(3) 0.88707(12) 0.09688(10)
Zn1_3 Zn 0.375000 0.63888(3) 0.875000
O1_5 O 0.2910(3) 0.61293(12) 0.84688(10)
H1_5 H 0.326(4) 0.6116(15) 0.8322(7)
O2_3 O 0.2799(4) 0.66584(16) 0.89889(12)
O3_5 O 0.1279(4) 0.66701(14) 0.87261(11)
C1_5 C 0.1291(6) 0.6976(2) 0.91612(16)
C2_5 C 0.0137(5) 0.70601(18) 0.91692(15)
C4_5 C 0.0446(7) 0.7354(3) 0.96141(19)
C5_5 C 0.1595(7) 0.7282(3) 0.9597(2)
H3_5 H 0.207812 0.735915 0.973623
C6_5 C 0.1996(6) 0.7099(3) 0.93734(19)
H4_5 H 0.275703 0.705449 0.936232
C7_5 C 0.1810(5) 0.67572(18) 0.89430(15)
C10_5 C 0.0526(7) 0.7840(3) 0.9959(2)
H6_5 H 0.116197 0.791946 0.986823
C11_5 C 0.0005(6) 0.7545(3) 0.98630(19)
O14_5 O 0.4590(3) 0.61293(12) 0.90312(10)
H16_5 H 0.424(4) 0.6116(15) 0.9178(7)
O17_5 O 0.4701(4) 0.66584(16) 0.85111(12)
O8_3 O 0.4701(4) 0.08416(16) 0.89889(12)
O9_5 O 0.6221(4) 0.08299(14) 0.87261(11)
O12_5 O 0.8075(4) 0.05316(13) 0.89648(10)
C15_5 C 0.6209(6) 0.0524(2) 0.91612(16)
C16_5 C 0.7363(5) 0.04399(18) 0.91692(15)
C17_5 C 0.7762(6) 0.0260(2) 0.94006(17)
H9_5 H 0.852136 0.021444 0.941343
C18_5 C 0.7054(7) 0.0146(3) 0.96141(19)
C19_5 C 0.5905(7) 0.0218(3) 0.9597(2)
H10_5 H 0.542188 0.014085 0.973623
C20_5 C 0.5504(6) 0.0401(3) 0.93734(19)
H11_5 H 0.474297 0.044551 0.936232
C21_5 C 0.5690(5) 0.07428(18) 0.89430(15)
H14_5 H 0.876034 0.027385 0.994450
Zn5_3 Zn 0.375000 0.11112(3) 0.875000
Zn2_5 Zn 0.72808(7) 0.81102(2) 0.10598(2)
Zn3_5 Zn 0.875000 0.875000 0.09144(2)
O4_5 O 0.7945(5) 0.79498(17) 0.07157(14)
O5_5 O 0.9100(5) 0.83848(15) 0.06209(11)
C8_5 C 0.9178(6) 0.7895(2) 0.03285(19)
C12_5 C 0.9085(8) 0.7426(3) 0.0004(2)
C13_5 C 0.8662(8) 0.7601(3) 0.0238(2)
H8_5 H 0.803539 0.751855 0.033117
C14_5 C 0.8700(6) 0.8094(2) 0.05754(18)
O7_5 O 0.7787(15) 0.7519(5) 0.1120(4)
O10_5 O 0.9555(5) 0.95502(17) 0.07157(14)
O11_5 O 0.8400(5) 0.91152(15) 0.06209(11)
C22_5 C 0.8322(6) 0.9605(2) 0.03285(19)
C23_5 C 0.7393(7) 0.9485(3) 0.0188(2)
H12_5 H 0.704624 0.928612 0.024743
C27_5 C 0.8838(8) 0.9899(3) 0.0238(2)
H15_5 H 0.946461 0.998145 0.033117
C28_5 C 0.8800(6) 0.9406(2) 0.05754(18)
O13_5 O 0.9713(15) 0.9981(5) 0.1120(4)
O15_5 O 0.7090(3) 0.86293(12) 0.09688(10)
O18_5 O 0.8721(4) 0.91701(14) 0.12261(11)
O19_5 O 0.8779(4) 0.83299(14) 0.12261(11)
H17_5 H 0.860366 0.749236 0.109276
H18_5 H 0.758177 0.74436 0.131225
O6_5 O 0.9425(4) 0.69684(13) 0.89648(10)
C3_5 C 0.9738(6) 0.7240(2) 0.94006(17)
H2_5 H 0.897864 0.728556 0.941343
H7_5 H 0.873966 0.722615 0.994450
C24_5 C 0.6974(7) 0.9660(3) 0.9959(2)
H13_5 H 0.633803 0.958054 0.986823
C25_5 C 0.7495(6) 0.9955(3) 0.98630(19)
O1_6 O 0.4590(3) 0.13707(12) 0.84688(10)
H1_6 H 0.424(4) 0.1384(15) 0.8322(7)
O14_6 O 0.2910(3) 0.13707(12) 0.90312(10)
H16_6 H 0.326(4) 0.1384(15) 0.9178(7)
O17_6 O 0.2799(4) 0.08416(16) 0.85111(12)
O9_6 O 0.1279(4) 0.08299(14) 0.87739(11)
C15_6 C 0.1291(6) 0.0524(2) 0.83388(16)
C16_6 C 0.0137(5) 0.04399(18) 0.83308(15)
C18_6 C 0.0446(7) 0.0146(3) 0.78859(19)
C19_6 C 0.1595(7) 0.0218(3) 0.7903(2)
H10_6 H 0.207812 0.014085 0.776377
C20_6 C 0.1996(6) 0.0401(3) 0.81266(19)
H11_6 H 0.275703 0.044551 0.813768
C21_6 C 0.1810(5) 0.07428(18) 0.85570(15)
Zn2_6 Zn 0.02192(7) 0.81102(2) 0.64402(2)
C23_6 C 0.0107(7) 0.9485(3) 0.7312(2)
H12_6 H 0.045376 0.928612 0.725257
C24_6 C 0.0526(7) 0.9660(3) 0.7541(2)
H13_6 H 0.116197 0.958054 0.763177
C25_6 C 0.0005(6) 0.9955(3) 0.76370(19)
O15_6 O 0.0410(3) 0.86293(12) 0.65312(10)
O12_6 O 0.9425(4) 0.05316(13) 0.85352(10)
C17_6 C 0.9738(6) 0.0260(2) 0.80994(17)
H9_6 H 0.897864 0.021444 0.808657
C26_5 C 0.9085(8) 0.0074(3) 0.7496(2)
H14_6 H 0.873966 0.027385 0.755550
H19_5 H 0.860366 0.000763799 0.640724
H20_5 H 0.758177 0.00563999 0.618775
Zn3_6 Zn 0.875000 0.875000 0.65856(2)
O3_6 O 0.6221(4) 0.66701(14) 0.87739(11)
O4_6 O 0.9555(5) 0.79498(17) 0.67843(14)
O5_6 O 0.8400(5) 0.83848(15) 0.68791(11)
O6_6 O 0.8075(4) 0.69684(13) 0.85352(10)
C1_6 C 0.6209(6) 0.6976(2) 0.83388(16)
C2_6 C 0.7363(5) 0.70601(18) 0.83308(15)
C3_6 C 0.7762(6) 0.7240(2) 0.80994(17)
H2_6 H 0.852136 0.728556 0.808657
C4_6 C 0.7054(7) 0.7354(3) 0.78859(19)
C5_6 C 0.5905(7) 0.7282(3) 0.7903(2)
H3_6 H 0.542188 0.735915 0.776377
C6_6 C 0.5504(6) 0.7099(3) 0.81266(19)
H4_6 H 0.474297 0.705449 0.813768
C7_6 C 0.5690(5) 0.67572(18) 0.85570(15)
C8_6 C 0.8322(6) 0.7895(2) 0.71715(19)
C9_6 C 0.7393(7) 0.8015(3) 0.7312(2)
H5_6 H 0.704624 0.821388 0.725257
C10_6 C 0.6974(7) 0.7840(3) 0.7541(2)
H6_6 H 0.633803 0.791946 0.763177
C11_6 C 0.7495(6) 0.7545(3) 0.76370(19)
C12_6 C 0.8415(8) 0.7426(3) 0.7496(2)
H7_6 H 0.876034 0.722615 0.755550
C13_6 C 0.8838(8) 0.7601(3) 0.7262(2)
H8_6 H 0.946461 0.751855 0.716883
C14_6 C 0.8800(6) 0.8094(2) 0.69246(18)
O7_6 O 0.9713(15) 0.7519(5) 0.6380(4)
Zn4_6 Zn 0.72808(7) 0.93898(2) 0.64402(2)
O10_6 O 0.7945(5) 0.95502(17) 0.67843(14)
O11_6 O 0.9100(5) 0.91152(15) 0.68791(11)
C22_6 C 0.9178(6) 0.9605(2) 0.71715(19)
C27_6 C 0.8662(8) 0.9899(3) 0.7262(2)
H15_6 H 0.803539 0.998145 0.716883
C28_6 C 0.8700(6) 0.9406(2) 0.69246(18)
O13_6 O 0.7787(15) 0.9981(5) 0.6380(4)
O16_6 O 0.7090(3) 0.88707(12) 0.65312(10)
O18_6 O 0.8779(4) 0.91701(14) 0.62739(11)
O19_6 O 0.8721(4) 0.83299(14) 0.62739(11)
H17_6 H 0.889634 0.749236 0.640724
H18_6 H 0.991823 0.74436 0.618775
Zn1_4 Zn 0.375000 0.13888(3) 0.375000
O1_7 O 0.2910(3) 0.11293(12) 0.34688(10)
H1_7 H 0.326(4) 0.1116(15) 0.3322(7)
O2_4 O 0.2799(4) 0.16584(16) 0.39889(12)
O3_7 O 0.1279(4) 0.16701(14) 0.37261(11)
C1_7 C 0.1291(6) 0.1976(2) 0.41612(16)
C2_7 C 0.0137(5) 0.20601(18) 0.41692(15)
C4_7 C 0.0446(7) 0.2354(3) 0.46141(19)
C5_7 C 0.1595(7) 0.2282(3) 0.4597(2)
H3_7 H 0.207812 0.235915 0.473623
C6_7 C 0.1996(6) 0.2099(3) 0.43734(19)
H4_7 H 0.275703 0.205449 0.436232
C7_7 C 0.1810(5) 0.17572(18) 0.39430(15)
C9_7 C 0.0107(7) 0.3015(3) 0.5188(2)
H5_7 H 0.045376 0.321388 0.524743
C10_7 C 0.0526(7) 0.2840(3) 0.4959(2)
H6_7 H 0.116197 0.291946 0.486823
C11_7 C 0.0005(6) 0.2545(3) 0.48630(19)
Zn4_7 Zn 0.02192(7) 0.43898(2) 0.60598(2)
O14_7 O 0.4590(3) 0.11293(12) 0.40312(10)
H16_7 H 0.424(4) 0.1116(15) 0.4178(7)
O16_7 O 0.0410(3) 0.38707(12) 0.59688(10)
O17_7 O 0.4701(4) 0.16584(16) 0.35111(12)
Zn2_7 Zn 0.72808(7) 0.31102(2) 0.60598(2)
Zn3_7 Zn 0.875000 0.375000 0.59144(2)
O4_7 O 0.7945(5) 0.29498(17) 0.57157(14)
O5_7 O 0.9100(5) 0.33848(15) 0.56209(11)
O6_7 O 0.9425(4) 0.19684(13) 0.39648(10)
C3_7 C 0.9738(6) 0.2240(2) 0.44006(17)
H2_7 H 0.897864 0.228556 0.441343
C8_7 C 0.9178(6) 0.2895(2) 0.53285(19)
C12_7 C 0.9085(8) 0.2426(3) 0.5004(2)
H7_7 H 0.873966 0.222615 0.494450
C13_7 C 0.8662(8) 0.2601(3) 0.5238(2)
H8_7 H 0.803539 0.251855 0.533117
C14_7 C 0.8700(6) 0.3094(2) 0.55754(18)
O7_7 O 0.7787(15) 0.2519(5) 0.6120(4)
O8_4 O 0.4701(4) 0.58416(16) 0.39889(12)
O9_7 O 0.6221(4) 0.58299(14) 0.37261(11)
O10_7 O 0.9555(5) 0.45502(17) 0.57157(14)
O11_7 O 0.8400(5) 0.41152(15) 0.56209(11)
O12_7 O 0.8075(4) 0.55316(13) 0.39648(10)
C15_7 C 0.6209(6) 0.5524(2) 0.41612(16)
C16_7 C 0.7363(5) 0.54399(18) 0.41692(15)
C17_7 C 0.7762(6) 0.5260(2) 0.44006(17)
H9_7 H 0.852136 0.521444 0.441343
C18_7 C 0.7054(7) 0.5146(3) 0.46141(19)
C19_7 C 0.5905(7) 0.5218(3) 0.4597(2)
H10_7 H 0.542188 0.514085 0.473623
C20_7 C 0.5504(6) 0.5401(3) 0.43734(19)
H11_7 H 0.474297 0.544551 0.436232
C21_7 C 0.5690(5) 0.57428(18) 0.39430(15)
C22_7 C 0.8322(6) 0.4605(2) 0.53285(19)
C23_7 C 0.7393(7) 0.4485(3) 0.5188(2)
H12_7 H 0.704624 0.428612 0.524743
C24_7 C 0.6974(7) 0.4660(3) 0.4959(2)
H13_7 H 0.633803 0.458054 0.486823
C25_7 C 0.7495(6) 0.4955(3) 0.48630(19)
C26_6 C 0.8415(8) 0.5074(3) 0.5004(2)
H14_7 H 0.876034 0.527385 0.494450
C27_7 C 0.8838(8) 0.4899(3) 0.5238(2)
H15_7 H 0.946461 0.498145 0.533117
C28_7 C 0.8800(6) 0.4406(2) 0.55754(18)
O13_7 O 0.9713(15) 0.4981(5) 0.6120(4)
Zn5_4 Zn 0.375000 0.61112(3) 0.375000
O15_7 O 0.7090(3) 0.36293(12) 0.59688(10)
O18_7 O 0.8721(4) 0.41701(14) 0.62261(11)
O19_7 O 0.8779(4) 0.33299(14) 0.62261(11)
H17_7 H 0.860366 0.249236 0.609276
H18_7 H 0.758177 0.24436 0.631225
H19_6 H 0.889634 0.500764 0.609276
H20_6 H 0.991823 0.50564 0.631225
O1_8 O 0.4590(3) 0.63707(12) 0.34688(10)
H1_8 H 0.424(4) 0.6384(15) 0.3322(7)
O14_8 O 0.2910(3) 0.63707(12) 0.40312(10)
H16_8 H 0.326(4) 0.6384(15) 0.4178(7)
O17_8 O 0.2799(4) 0.58416(16) 0.35111(12)
Zn2_8 Zn 0.02192(7) 0.31102(2) 0.14402(2)
O9_8 O 0.1279(4) 0.58299(14) 0.37739(11)
C15_8 C 0.1291(6) 0.5524(2) 0.33388(16)
C16_8 C 0.0137(5) 0.54399(18) 0.33308(15)
C18_8 C 0.0446(7) 0.5146(3) 0.28859(19)
C19_8 C 0.1595(7) 0.5218(3) 0.2903(2)
H10_8 H 0.207812 0.514085 0.276377
C20_8 C 0.1996(6) 0.5401(3) 0.31266(19)
H11_8 H 0.275703 0.544551 0.313768
C21_8 C 0.1810(5) 0.57428(18) 0.35570(15)
C23_8 C 0.0107(7) 0.4485(3) 0.2312(2)
H12_8 H 0.045376 0.428612 0.225257
C24_8 C 0.0526(7) 0.4660(3) 0.2541(2)
H13_8 H 0.116197 0.458054 0.263177
C25_8 C 0.0005(6) 0.4955(3) 0.26370(19)
O15_8 O 0.0410(3) 0.36293(12) 0.15312(10)
Zn3_8 Zn 0.875000 0.375000 0.15856(2)
O3_8 O 0.6221(4) 0.16701(14) 0.37739(11)
O4_8 O 0.9555(5) 0.29498(17) 0.17843(14)
O5_8 O 0.8400(5) 0.33848(15) 0.18791(11)
O6_8 O 0.8075(4) 0.19684(13) 0.35352(10)
C1_8 C 0.6209(6) 0.1976(2) 0.33388(16)
C2_8 C 0.7363(5) 0.20601(18) 0.33308(15)
C3_8 C 0.7762(6) 0.2240(2) 0.30994(17)
H2_8 H 0.852136 0.228556 0.308657
C4_8 C 0.7054(7) 0.2354(3) 0.28859(19)
C5_8 C 0.5905(7) 0.2282(3) 0.2903(2)
H3_8 H 0.542188 0.235915 0.276377
C6_8 C 0.5504(6) 0.2099(3) 0.31266(19)
H4_8 H 0.474297 0.205449 0.313768
C7_8 C 0.5690(5) 0.17572(18) 0.35570(15)
C8_8 C 0.8322(6) 0.2895(2) 0.21715(19)
C9_8 C 0.7393(7) 0.3015(3) 0.2312(2)
H5_8 H 0.704624 0.321388 0.225257
C10_8 C 0.6974(7) 0.2840(3) 0.2541(2)
H6_8 H 0.633803 0.291946 0.263177
C11_8 C 0.7495(6) 0.2545(3) 0.26370(19)
C12_8 C 0.8415(8) 0.2426(3) 0.2496(2)
H7_8 H 0.876034 0.222615 0.255550
C13_8 C 0.8838(8) 0.2601(3) 0.2262(2)
H8_8 H 0.946461 0.251855 0.216883
C14_8 C 0.8800(6) 0.3094(2) 0.19246(18)
O7_8 O 0.9713(15) 0.2519(5) 0.1380(4)
Zn4_8 Zn 0.72808(7) 0.43898(2) 0.14402(2)
O10_8 O 0.7945(5) 0.45502(17) 0.17843(14)
O11_8 O 0.9100(5) 0.41152(15) 0.18791(11)
O12_8 O 0.9425(4) 0.55316(13) 0.35352(10)
C17_8 C 0.9738(6) 0.5260(2) 0.30994(17)
H9_8 H 0.897864 0.521444 0.308657
C22_8 C 0.9178(6) 0.4605(2) 0.21715(19)
C26_7 C 0.9085(8) 0.5074(3) 0.2496(2)
H14_8 H 0.873966 0.527385 0.255550
C27_8 C 0.8662(8) 0.4899(3) 0.2262(2)
H15_8 H 0.803539 0.498145 0.216883
C28_8 C 0.8700(6) 0.4406(2) 0.19246(18)
O13_8 O 0.7787(15) 0.4981(5) 0.1380(4)
O16_8 O 0.7090(3) 0.38707(12) 0.15312(10)
O18_8 O 0.8779(4) 0.41701(14) 0.12739(11)
O19_8 O 0.8721(4) 0.33299(14) 0.12739(11)
H17_8 H 0.889634 0.249236 0.140724
H18_8 H 0.991823 0.24436 0.118775
H19_7 H 0.860366 0.500764 0.140724
H20_7 H 0.758177 0.50564 0.118775
O8_5 O 0.0299(4) 0.91584(16) 0.60111(12)
H11_9 H 0.025703 0.955449 0.563768
Zn5_5 Zn 0.125000 0.88888(3) 0.625000
Zn1_5 Zn 0.125000 0.36112(3) 0.625000
H1_9 H 0.174(4) 0.3884(15) 0.6678(7)
O2_5 O 0.2201(4) 0.33416(16) 0.60111(12)
O4_9 O 0.7055(5) 0.20502(17) 0.42843(14)
O5_9 O 0.5900(5) 0.16152(15) 0.43791(11)
C1_9 C 0.3709(6) 0.3024(2) 0.58388(16)
C2_9 C 0.4863(5) 0.29399(18) 0.58308(15)
C3_9 C 0.5262(6) 0.2760(2) 0.55994(17)
H2_9 H 0.602136 0.271444 0.558657
C4_9 C 0.4554(7) 0.2646(3) 0.53859(19)
C5_9 C 0.3405(7) 0.2718(3) 0.5403(2)
H3_9 H 0.292188 0.264085 0.526377
C6_9 C 0.3004(6) 0.2901(3) 0.56266(19)
H4_9 H 0.224297 0.294551 0.563768
C7_9 C 0.3190(5) 0.32428(18) 0.60570(15)
C8_9 C 0.5822(6) 0.2105(2) 0.46715(19)
C9_9 C 0.4893(7) 0.1985(3) 0.4812(2)
H5_9 H 0.454624 0.178612 0.475257
C10_9 C 0.4474(7) 0.2160(3) 0.5041(2)
H6_9 H 0.383803 0.208054 0.513177
C11_9 C 0.4995(6) 0.2455(3) 0.51370(19)
C12_9 C 0.5915(8) 0.2574(3) 0.4996(2)
H7_9 H 0.626034 0.277385 0.505550
C13_9 C 0.6338(8) 0.2399(3) 0.4762(2)
H8_9 H 0.696461 0.248145 0.466883
C14_9 C 0.6300(6) 0.1906(2) 0.44246(18)
O7_9 O 0.7213(15) 0.2481(5) 0.3880(4)
O10_9 O 0.5445(5) 0.04498(17) 0.42843(14)
O11_9 O 0.6600(5) 0.08848(15) 0.43791(11)
C22_9 C 0.6678(6) 0.0395(2) 0.46715(19)
C23_9 C 0.7607(7) 0.0515(3) 0.4812(2)
H12_9 H 0.795376 0.071388 0.475257
C24_9 C 0.8026(7) 0.0340(3) 0.5041(2)
H13_9 H 0.866197 0.041946 0.513177
C25_9 C 0.7505(6) 0.0045(3) 0.51370(19)
C27_9 C 0.6162(8) 0.0101(3) 0.4762(2)
H15_9 H 0.553539 0.001855 0.466883
C28_9 C 0.6200(6) 0.0594(2) 0.44246(18)
O13_9 O 0.5287(15) 0.0019(5) 0.3880(4)
H16_9 H 0.076(4) 0.3884(15) 0.5822(7)
O17_9 O 0.0299(4) 0.33416(16) 0.64889(12)
H17_9 H 0.639634 0.250764 0.390724
H18_9 H 0.741823 0.25564 0.368775
C15_9 C 0.8791(6) 0.9476(2) 0.58388(16)
C16_9 C 0.7637(5) 0.95601(18) 0.58308(15)
C17_9 C 0.7238(6) 0.9740(2) 0.55994(17)
H9_9 H 0.647864 0.978556 0.558657
C18_9 C 0.7946(7) 0.9854(3) 0.53859(19)
C19_9 C 0.9095(7) 0.9782(3) 0.5403(2)
H10_9 H 0.957812 0.985915 0.526377
C20_9 C 0.9496(6) 0.9599(3) 0.56266(19)
C21_9 C 0.9310(5) 0.92572(18) 0.60570(15)
C26_8 C 0.6585(8) 0.9926(3) 0.4996(2)
H14_9 H 0.623966 0.972615 0.505550
H19_8 H 0.610366 0.999236 0.390724
H20_8 H 0.508177 0.99436 0.368775
H1_10 H 0.076(4) 0.8616(15) 0.6678(7)
H16_10 H 0.174(4) 0.8616(15) 0.5822(7)
O17_10 O 0.2201(4) 0.91584(16) 0.64889(12)
H4_10 H 0.025703 0.294551 0.686232
O4_10 O 0.5445(5) 0.20502(17) 0.82157(14)
O5_10 O 0.6600(5) 0.16152(15) 0.81209(11)
C1_10 C 0.8791(6) 0.3024(2) 0.66612(16)
C2_10 C 0.7637(5) 0.29399(18) 0.66692(15)
C3_10 C 0.7238(6) 0.2760(2) 0.69006(17)
H2_10 H 0.647864 0.271444 0.691343
C4_10 C 0.7946(7) 0.2646(3) 0.71141(19)
C5_10 C 0.9095(7) 0.2718(3) 0.7097(2)
H3_10 H 0.957812 0.264085 0.723623
C6_10 C 0.9496(6) 0.2901(3) 0.68734(19)
C7_10 C 0.9310(5) 0.32428(18) 0.64430(15)
C8_10 C 0.6678(6) 0.2105(2) 0.78285(19)
C9_10 C 0.7607(7) 0.1985(3) 0.7688(2)
H5_10 H 0.795376 0.178612 0.774743
C10_10 C 0.8026(7) 0.2160(3) 0.7459(2)
H6_10 H 0.866197 0.208054 0.736823
C11_10 C 0.7505(6) 0.2455(3) 0.73630(19)
C12_10 C 0.6585(8) 0.2574(3) 0.7504(2)
H7_10 H 0.623966 0.277385 0.744450
C13_10 C 0.6162(8) 0.2399(3) 0.7738(2)
H8_10 H 0.553539 0.248145 0.783117
C14_10 C 0.6200(6) 0.1906(2) 0.80754(18)
O7_10 O 0.5287(15) 0.2481(5) 0.8620(4)
O10_10 O 0.7055(5) 0.04498(17) 0.82157(14)
O11_10 O 0.5900(5) 0.08848(15) 0.81209(11)
C22_10 C 0.5822(6) 0.0395(2) 0.78285(19)
C23_10 C 0.4893(7) 0.0515(3) 0.7688(2)
H12_10 H 0.454624 0.071388 0.774743
C24_10 C 0.4474(7) 0.0340(3) 0.7459(2)
H13_10 H 0.383803 0.041946 0.736823
C25_10 C 0.4995(6) 0.0045(3) 0.73630(19)
C27_10 C 0.6338(8) 0.0101(3) 0.7738(2)
H15_10 H 0.696461 0.001855 0.783117
C28_10 C 0.6300(6) 0.0594(2) 0.80754(18)
O13_10 O 0.7213(15) 0.0019(5) 0.8620(4)
H17_10 H 0.610366 0.250764 0.859276
H18_10 H 0.508177 0.25564 0.881225
C15_10 C 0.3709(6) 0.9476(2) 0.66612(16)
C16_10 C 0.4863(5) 0.95601(18) 0.66692(15)
C17_10 C 0.5262(6) 0.9740(2) 0.69006(17)
H9_10 H 0.602136 0.978556 0.691343
C18_10 C 0.4554(7) 0.9854(3) 0.71141(19)
C19_10 C 0.3405(7) 0.9782(3) 0.7097(2)
H10_10 H 0.292188 0.985915 0.723623
C20_10 C 0.3004(6) 0.9599(3) 0.68734(19)
H11_10 H 0.224297 0.955449 0.686232
C21_10 C 0.3190(5) 0.92572(18) 0.64430(15)
C26_9 C 0.5915(8) 0.9926(3) 0.7504(2)
H14_10 H 0.626034 0.972615 0.744450
H19_9 H 0.639634 0.999236 0.859276
H20_9 H 0.741823 0.99436 0.881225
O8_6 O 0.0299(4) 0.41584(16) 0.10111(12)
H11_11 H 0.025703 0.455449 0.063768
Zn5_6 Zn 0.125000 0.38888(3) 0.125000
Zn1_6 Zn 0.125000 0.86112(3) 0.125000
H1_11 H 0.174(4) 0.8884(15) 0.1678(7)
O2_6 O 0.2201(4) 0.83416(16) 0.10111(12)
C1_11 C 0.3709(6) 0.8024(2) 0.08388(16)
C2_11 C 0.4863(5) 0.79399(18) 0.08308(15)
C3_11 C 0.5262(6) 0.7760(2) 0.05994(17)
H2_11 H 0.602136 0.771444 0.058657
C4_11 C 0.4554(7) 0.7646(3) 0.03859(19)
C5_11 C 0.3405(7) 0.7718(3) 0.0403(2)
H3_11 H 0.292188 0.764085 0.026377
C6_11 C 0.3004(6) 0.7901(3) 0.06266(19)
H4_11 H 0.224297 0.794551 0.063768
C7_11 C 0.3190(5) 0.82428(18) 0.10570(15)
C10_11 C 0.4474(7) 0.7160(3) 0.0041(2)
H6_11 H 0.383803 0.708054 0.013177
C11_11 C 0.4995(6) 0.7455(3) 0.01370(19)
H7_11 H 0.626034 0.777385 0.005550
C15_11 C 0.8791(6) 0.4476(2) 0.08388(16)
C16_11 C 0.7637(5) 0.45601(18) 0.08308(15)
C17_11 C 0.7238(6) 0.4740(2) 0.05994(17)
H9_11 H 0.647864 0.478556 0.058657
C18_11 C 0.7946(7) 0.4854(3) 0.03859(19)
C19_11 C 0.9095(7) 0.4782(3) 0.0403(2)
H10_11 H 0.957812 0.485915 0.026377
C20_11 C 0.9496(6) 0.4599(3) 0.06266(19)
C21_11 C 0.9310(5) 0.42572(18) 0.10570(15)
C24_11 C 0.8026(7) 0.5340(3) 0.0041(2)
H13_11 H 0.866197 0.541946 0.013177
C25_11 C 0.7505(6) 0.5045(3) 0.01370(19)
H14_11 H 0.623966 0.472615 0.005550
H16_11 H 0.076(4) 0.8884(15) 0.0822(7)
O17_11 O 0.0299(4) 0.83416(16) 0.14889(12)
O4_11 O 0.7055(5) 0.70502(17) 0.92843(14)
O5_11 O 0.5900(5) 0.66152(15) 0.93791(11)
C8_11 C 0.5822(6) 0.7105(2) 0.96715(19)
C9_11 C 0.4893(7) 0.6985(3) 0.9812(2)
H5_11 H 0.454624 0.678612 0.975257
C12_11 C 0.5915(8) 0.7574(3) 0.9996(2)
C13_11 C 0.6338(8) 0.7399(3) 0.9762(2)
H8_11 H 0.696461 0.748145 0.966883
C14_11 C 0.6300(6) 0.6906(2) 0.94246(18)
O7_11 O 0.7213(15) 0.7481(5) 0.8880(4)
O10_11 O 0.5445(5) 0.54498(17) 0.92843(14)
O11_11 O 0.6600(5) 0.58848(15) 0.93791(11)
C22_11 C 0.6678(6) 0.5395(2) 0.96715(19)
C23_11 C 0.7607(7) 0.5515(3) 0.9812(2)
H12_11 H 0.795376 0.571388 0.975257
C26_10 C 0.6585(8) 0.4926(3) 0.9996(2)
C27_11 C 0.6162(8) 0.5101(3) 0.9762(2)
H15_11 H 0.553539 0.501855 0.966883
C28_11 C 0.6200(6) 0.5594(2) 0.94246(18)
O13_11 O 0.5287(15) 0.5019(5) 0.8880(4)
H17_11 H 0.639634 0.750764 0.890724
H18_11 H 0.741823 0.75564 0.868775
H19_10 H 0.610366 0.499236 0.890724
H20_10 H 0.508177 0.49436 0.868775
H1_12 H 0.076(4) 0.3616(15) 0.1678(7)
H16_12 H 0.174(4) 0.3616(15) 0.0822(7)
O17_12 O 0.2201(4) 0.41584(16) 0.14889(12)
H4_12 H 0.025703 0.794551 0.186232
O4_12 O 0.5445(5) 0.70502(17) 0.32157(14)
O5_12 O 0.6600(5) 0.66152(15) 0.31209(11)
C1_12 C 0.8791(6) 0.8024(2) 0.16612(16)
C2_12 C 0.7637(5) 0.79399(18) 0.16692(15)
C3_12 C 0.7238(6) 0.7760(2) 0.19006(17)
H2_12 H 0.647864 0.771444 0.191343
C4_12 C 0.7946(7) 0.7646(3) 0.21141(19)
C5_12 C 0.9095(7) 0.7718(3) 0.2097(2)
H3_12 H 0.957812 0.764085 0.223623
C6_12 C 0.9496(6) 0.7901(3) 0.18734(19)
C7_12 C 0.9310(5) 0.82428(18) 0.14430(15)
C8_12 C 0.6678(6) 0.7105(2) 0.28285(19)
C9_12 C 0.7607(7) 0.6985(3) 0.2688(2)
H5_12 H 0.795376 0.678612 0.274743
C10_12 C 0.8026(7) 0.7160(3) 0.2459(2)
H6_12 H 0.866197 0.708054 0.236823
C11_12 C 0.7505(6) 0.7455(3) 0.23630(19)
C12_12 C 0.6585(8) 0.7574(3) 0.2504(2)
H7_12 H 0.623966 0.777385 0.244450
C13_12 C 0.6162(8) 0.7399(3) 0.2738(2)
H8_12 H 0.553539 0.748145 0.283117
C14_12 C 0.6200(6) 0.6906(2) 0.30754(18)
O7_12 O 0.5287(15) 0.7481(5) 0.3620(4)
O10_12 O 0.7055(5) 0.54498(17) 0.32157(14)
O11_12 O 0.5900(5) 0.58848(15) 0.31209(11)
C15_12 C 0.3709(6) 0.4476(2) 0.16612(16)
C16_12 C 0.4863(5) 0.45601(18) 0.16692(15)
C17_12 C 0.5262(6) 0.4740(2) 0.19006(17)
H9_12 H 0.602136 0.478556 0.191343
C18_12 C 0.4554(7) 0.4854(3) 0.21141(19)
C19_12 C 0.3405(7) 0.4782(3) 0.2097(2)
H10_12 H 0.292188 0.485915 0.223623
C20_12 C 0.3004(6) 0.4599(3) 0.18734(19)
H11_12 H 0.224297 0.455449 0.186232
C21_12 C 0.3190(5) 0.42572(18) 0.14430(15)
C22_12 C 0.5822(6) 0.5395(2) 0.28285(19)
C23_12 C 0.4893(7) 0.5515(3) 0.2688(2)
H12_12 H 0.454624 0.571388 0.274743
C24_12 C 0.4474(7) 0.5340(3) 0.2459(2)
H13_12 H 0.383803 0.541946 0.236823
C25_12 C 0.4995(6) 0.5045(3) 0.23630(19)
C26_11 C 0.5915(8) 0.4926(3) 0.2504(2)
H14_12 H 0.626034 0.472615 0.244450
C27_12 C 0.6338(8) 0.5101(3) 0.2738(2)
H15_12 H 0.696461 0.501855 0.283117
C28_12 C 0.6300(6) 0.5594(2) 0.30754(18)
O13_12 O 0.7213(15) 0.5019(5) 0.3620(4)
H17_12 H 0.610366 0.750764 0.359276
H18_12 H 0.508177 0.75564 0.381225
H19_11 H 0.639634 0.499236 0.359276
H20_11 H 0.741823 0.49436 0.381225
C3_13 C 0.0262(6) 0.2760(2) 0.05994(17)
H2_13 H 0.102136 0.271444 0.058657
H7_13 H 0.126034 0.277385 0.005550
C24_13 C 0.3026(7) 0.0340(3) 0.0041(2)
H13_13 H 0.366197 0.041946 0.013177
C25_13 C 0.2505(6) 0.0045(3) 0.01370(19)
O4_13 O 0.2055(5) 0.20502(17) 0.92843(14)
O5_13 O 0.0900(5) 0.16152(15) 0.93791(11)
C8_13 C 0.0822(6) 0.2105(2) 0.96715(19)
C12_13 C 0.0915(8) 0.2574(3) 0.9996(2)
C13_13 C 0.1338(8) 0.2399(3) 0.9762(2)
H8_13 H 0.196461 0.248145 0.966883
C14_13 C 0.1300(6) 0.1906(2) 0.94246(18)
O7_13 O 0.2213(15) 0.2481(5) 0.8880(4)
O10_13 O 0.0445(5) 0.04498(17) 0.92843(14)
O11_13 O 0.1600(5) 0.08848(15) 0.93791(11)
C22_13 C 0.1678(6) 0.0395(2) 0.96715(19)
C23_13 C 0.2607(7) 0.0515(3) 0.9812(2)
H12_13 H 0.295376 0.071388 0.975257
C27_13 C 0.1162(8) 0.0101(3) 0.9762(2)
H15_13 H 0.053539 0.001855 0.966883
C28_13 C 0.1200(6) 0.0594(2) 0.94246(18)
O13_13 O 0.0287(15) 0.0019(5) 0.8880(4)
H17_13 H 0.139634 0.250764 0.890724
H18_13 H 0.241823 0.25564 0.868775
O8_7 O 0.5299(4) 0.91584(16) 0.10111(12)
C15_13 C 0.3791(6) 0.9476(2) 0.08388(16)
C16_13 C 0.2637(5) 0.95601(18) 0.08308(15)
C17_13 C 0.2238(6) 0.9740(2) 0.05994(17)
H9_13 H 0.147864 0.978556 0.058657
C18_13 C 0.2946(7) 0.9854(3) 0.03859(19)
C19_13 C 0.4095(7) 0.9782(3) 0.0403(2)
H10_13 H 0.457812 0.985915 0.026377
C20_13 C 0.4496(6) 0.9599(3) 0.06266(19)
H11_13 H 0.525703 0.955449 0.063768
C21_13 C 0.4310(5) 0.92572(18) 0.10570(15)
H14_13 H 0.123966 0.972615 0.005550
Zn5_7 Zn 0.625000 0.88888(3) 0.125000
Zn1_7 Zn 0.625000 0.36112(3) 0.125000
H1_13 H 0.674(4) 0.3884(15) 0.1678(7)
O2_7 O 0.7201(4) 0.33416(16) 0.10111(12)
C1_13 C 0.8709(6) 0.3024(2) 0.08388(16)
C2_13 C 0.9863(5) 0.29399(18) 0.08308(15)
C4_13 C 0.9554(7) 0.2646(3) 0.03859(19)
C5_13 C 0.8405(7) 0.2718(3) 0.0403(2)
H3_13 H 0.792188 0.264085 0.026377
C6_13 C 0.8004(6) 0.2901(3) 0.06266(19)
H4_13 H 0.724297 0.294551 0.063768
C7_13 C 0.8190(5) 0.32428(18) 0.10570(15)
C10_13 C 0.9474(7) 0.2160(3) 0.0041(2)
H6_13 H 0.883803 0.208054 0.013177
C11_13 C 0.9995(6) 0.2455(3) 0.01370(19)
H16_13 H 0.576(4) 0.3884(15) 0.0822(7)
O17_13 O 0.5299(4) 0.33416(16) 0.14889(12)
C9_13 C 0.9893(7) 0.1985(3) 0.9812(2)
H5_13 H 0.954624 0.178612 0.975257
H1_14 H 0.576(4) 0.8616(15) 0.1678(7)
H16_14 H 0.674(4) 0.8616(15) 0.0822(7)
O17_14 O 0.7201(4) 0.91584(16) 0.14889(12)
O4_14 O 0.0445(5) 0.20502(17) 0.32157(14)
O5_14 O 0.1600(5) 0.16152(15) 0.31209(11)
C1_14 C 0.3791(6) 0.3024(2) 0.16612(16)
C2_14 C 0.2637(5) 0.29399(18) 0.16692(15)
C3_14 C 0.2238(6) 0.2760(2) 0.19006(17)
H2_14 H 0.147864 0.271444 0.191343
C4_14 C 0.2946(7) 0.2646(3) 0.21141(19)
C5_14 C 0.4095(7) 0.2718(3) 0.2097(2)
H3_14 H 0.457812 0.264085 0.223623
C6_14 C 0.4496(6) 0.2901(3) 0.18734(19)
H4_14 H 0.525703 0.294551 0.186232
C7_14 C 0.4310(5) 0.32428(18) 0.14430(15)
C8_14 C 0.1678(6) 0.2105(2) 0.28285(19)
C9_14 C 0.2607(7) 0.1985(3) 0.2688(2)
H5_14 H 0.295376 0.178612 0.274743
C10_14 C 0.3026(7) 0.2160(3) 0.2459(2)
H6_14 H 0.366197 0.208054 0.236823
C11_14 C 0.2505(6) 0.2455(3) 0.23630(19)
C12_14 C 0.1585(8) 0.2574(3) 0.2504(2)
H7_14 H 0.123966 0.277385 0.244450
C13_14 C 0.1162(8) 0.2399(3) 0.2738(2)
H8_14 H 0.053539 0.248145 0.283117
C14_14 C 0.1200(6) 0.1906(2) 0.30754(18)
O7_14 O 0.0287(15) 0.2481(5) 0.3620(4)
O10_14 O 0.2055(5) 0.04498(17) 0.32157(14)
O11_14 O 0.0900(5) 0.08848(15) 0.31209(11)
C22_14 C 0.0822(6) 0.0395(2) 0.28285(19)
C27_14 C 0.1338(8) 0.0101(3) 0.2738(2)
H15_14 H 0.196461 0.001855 0.283117
C28_14 C 0.1300(6) 0.0594(2) 0.30754(18)
O13_14 O 0.2213(15) 0.0019(5) 0.3620(4)
H17_14 H 0.110366 0.250764 0.359276
H18_14 H 0.00817661 0.25564 0.381225
C17_14 C 0.0262(6) 0.9740(2) 0.19006(17)
H9_14 H 0.102136 0.978556 0.191343
C26_12 C 0.0915(8) 0.9926(3) 0.2504(2)
H14_14 H 0.126034 0.972615 0.244450
H19_12 H 0.139634 0.999236 0.359276
H20_12 H 0.241823 0.99436 0.381225
C23_14 C 0.9893(7) 0.0515(3) 0.2688(2)
H12_14 H 0.954624 0.071388 0.274743
C24_14 C 0.9474(7) 0.0340(3) 0.2459(2)
H13_14 H 0.883803 0.041946 0.236823
C25_14 C 0.9995(6) 0.0045(3) 0.23630(19)
C15_14 C 0.8709(6) 0.9476(2) 0.16612(16)
C16_14 C 0.9863(5) 0.95601(18) 0.16692(15)
C18_14 C 0.9554(7) 0.9854(3) 0.21141(19)
C19_14 C 0.8405(7) 0.9782(3) 0.2097(2)
H10_14 H 0.792188 0.985915 0.223623
C20_14 C 0.8004(6) 0.9599(3) 0.18734(19)
H11_14 H 0.724297 0.955449 0.186232
C21_14 C 0.8190(5) 0.92572(18) 0.14430(15)
O4_15 O 0.2055(5) 0.70502(17) 0.42843(14)
O5_15 O 0.0900(5) 0.66152(15) 0.43791(11)
C3_15 C 0.0262(6) 0.7760(2) 0.55994(17)
H2_15 H 0.102136 0.771444 0.558657
C8_15 C 0.0822(6) 0.7105(2) 0.46715(19)
C12_15 C 0.0915(8) 0.7574(3) 0.4996(2)
H7_15 H 0.126034 0.777385 0.505550
C13_15 C 0.1338(8) 0.7399(3) 0.4762(2)
H8_15 H 0.196461 0.748145 0.466883
C14_15 C 0.1300(6) 0.6906(2) 0.44246(18)
O7_15 O 0.2213(15) 0.7481(5) 0.3880(4)
O8_8 O 0.5299(4) 0.41584(16) 0.60111(12)
O10_15 O 0.0445(5) 0.54498(17) 0.42843(14)
O11_15 O 0.1600(5) 0.58848(15) 0.43791(11)
C15_15 C 0.3791(6) 0.4476(2) 0.58388(16)
C16_15 C 0.2637(5) 0.45601(18) 0.58308(15)
C17_15 C 0.2238(6) 0.4740(2) 0.55994(17)
H9_15 H 0.147864 0.478556 0.558657
C18_15 C 0.2946(7) 0.4854(3) 0.53859(19)
C19_15 C 0.4095(7) 0.4782(3) 0.5403(2)
H10_15 H 0.457812 0.485915 0.526377
C20_15 C 0.4496(6) 0.4599(3) 0.56266(19)
H11_15 H 0.525703 0.455449 0.563768
C21_15 C 0.4310(5) 0.42572(18) 0.60570(15)
C22_15 C 0.1678(6) 0.5395(2) 0.46715(19)
C23_15 C 0.2607(7) 0.5515(3) 0.4812(2)
H12_15 H 0.295376 0.571388 0.475257
C24_15 C 0.3026(7) 0.5340(3) 0.5041(2)
H13_15 H 0.366197 0.541946 0.513177
C25_15 C 0.2505(6) 0.5045(3) 0.51370(19)
C26_13 C 0.1585(8) 0.4926(3) 0.4996(2)
H14_15 H 0.123966 0.472615 0.505550
C27_15 C 0.1162(8) 0.5101(3) 0.4762(2)
H15_15 H 0.053539 0.501855 0.466883
C28_15 C 0.1200(6) 0.5594(2) 0.44246(18)
O13_15 O 0.0287(15) 0.5019(5) 0.3880(4)
Zn5_8 Zn 0.625000 0.38888(3) 0.625000
H17_15 H 0.139634 0.750764 0.390724
H18_15 H 0.241823 0.75564 0.368775
H19_13 H 0.110366 0.499236 0.390724
H20_13 H 0.00817661 0.49436 0.368775
Zn1_8 Zn 0.625000 0.86112(3) 0.625000
H1_15 H 0.674(4) 0.8884(15) 0.6678(7)
O2_8 O 0.7201(4) 0.83416(16) 0.60111(12)
C1_15 C 0.8709(6) 0.8024(2) 0.58388(16)
C2_15 C 0.9863(5) 0.79399(18) 0.58308(15)
C4_15 C 0.9554(7) 0.7646(3) 0.53859(19)
C5_15 C 0.8405(7) 0.7718(3) 0.5403(2)
H3_15 H 0.792188 0.764085 0.526377
C6_15 C 0.8004(6) 0.7901(3) 0.56266(19)
H4_15 H 0.724297 0.794551 0.563768
C7_15 C 0.8190(5) 0.82428(18) 0.60570(15)
C9_15 C 0.9893(7) 0.6985(3) 0.4812(2)
H5_15 H 0.954624 0.678612 0.475257
C10_15 C 0.9474(7) 0.7160(3) 0.5041(2)
H6_15 H 0.883803 0.708054 0.513177
C11_15 C 0.9995(6) 0.7455(3) 0.51370(19)
H16_15 H 0.576(4) 0.8884(15) 0.5822(7)
O17_15 O 0.5299(4) 0.83416(16) 0.64889(12)
H1_16 H 0.576(4) 0.3616(15) 0.6678(7)
H16_16 H 0.674(4) 0.3616(15) 0.5822(7)
O17_16 O 0.7201(4) 0.41584(16) 0.64889(12)
O4_16 O 0.0445(5) 0.70502(17) 0.82157(14)
O5_16 O 0.1600(5) 0.66152(15) 0.81209(11)
C1_16 C 0.3791(6) 0.8024(2) 0.66612(16)
C2_16 C 0.2637(5) 0.79399(18) 0.66692(15)
C3_16 C 0.2238(6) 0.7760(2) 0.69006(17)
H2_16 H 0.147864 0.771444 0.691343
C4_16 C 0.2946(7) 0.7646(3) 0.71141(19)
C5_16 C 0.4095(7) 0.7718(3) 0.7097(2)
H3_16 H 0.457812 0.764085 0.723623
C6_16 C 0.4496(6) 0.7901(3) 0.68734(19)
H4_16 H 0.525703 0.794551 0.686232
C7_16 C 0.4310(5) 0.82428(18) 0.64430(15)
C8_16 C 0.1678(6) 0.7105(2) 0.78285(19)
C9_16 C 0.2607(7) 0.6985(3) 0.7688(2)
H5_16 H 0.295376 0.678612 0.774743
C10_16 C 0.3026(7) 0.7160(3) 0.7459(2)
H6_16 H 0.366197 0.708054 0.736823
C11_16 C 0.2505(6) 0.7455(3) 0.73630(19)
C12_16 C 0.1585(8) 0.7574(3) 0.7504(2)
H7_16 H 0.123966 0.777385 0.744450
C13_16 C 0.1162(8) 0.7399(3) 0.7738(2)
H8_16 H 0.053539 0.748145 0.783117
C14_16 C 0.1200(6) 0.6906(2) 0.80754(18)
O7_16 O 0.0287(15) 0.7481(5) 0.8620(4)
O10_16 O 0.2055(5) 0.54498(17) 0.82157(14)
O11_16 O 0.0900(5) 0.58848(15) 0.81209(11)
C17_16 C 0.0262(6) 0.4740(2) 0.69006(17)
H9_16 H 0.102136 0.478556 0.691343
C22_16 C 0.0822(6) 0.5395(2) 0.78285(19)
C26_14 C 0.0915(8) 0.4926(3) 0.7504(2)
H14_16 H 0.126034 0.472615 0.744450
C27_16 C 0.1338(8) 0.5101(3) 0.7738(2)
H15_16 H 0.196461 0.501855 0.783117
C28_16 C 0.1300(6) 0.5594(2) 0.80754(18)
O13_16 O 0.2213(15) 0.5019(5) 0.8620(4)
H17_16 H 0.110366 0.750764 0.859276
H18_16 H 0.00817661 0.75564 0.881225
H19_14 H 0.139634 0.499236 0.859276
H20_14 H 0.241823 0.49436 0.881225
C15_16 C 0.8709(6) 0.4476(2) 0.66612(16)
C16_16 C 0.9863(5) 0.45601(18) 0.66692(15)
C18_16 C 0.9554(7) 0.4854(3) 0.71141(19)
C19_16 C 0.8405(7) 0.4782(3) 0.7097(2)
H10_16 H 0.792188 0.485915 0.723623
C20_16 C 0.8004(6) 0.4599(3) 0.68734(19)
H11_16 H 0.724297 0.455449 0.686232
C21_16 C 0.8190(5) 0.42572(18) 0.64430(15)
C23_16 C 0.9893(7) 0.5515(3) 0.7688(2)
H12_16 H 0.954624 0.571388 0.774743
C24_16 C 0.9474(7) 0.5340(3) 0.7459(2)
H13_16 H 0.883803 0.541946 0.736823
C25_16 C 0.9995(6) 0.5045(3) 0.73630(19)
C26_15 C 0.8415(8) 0.0074(3) 0.0004(2)
H19_15 H 0.889634 0.000763799 0.109276
H20_15 H 0.991823 0.00563999 0.131225
C26_16 C 0.1585(8) 0.9926(3) 0.9996(2)
H19_16 H 0.110366 0.999236 0.890724
H20_16 H 0.00817661 0.99436 0.868775
loop_
_geom_bond_atom_site_label_1
_geom_bond_atom_site_label_2
_geom_bond_site_symmetry_1
_geom_bond_site_symmetry_2
O9 C21 1_555 1_555
O12 C16 1_555 1_555
C15 C16 1_555 1_555
C16 C17 1_555 1_555
C17 H9 1_555 1_555
C18 C17 1_555 1_555
C19 C18 1_555 1_555
H10 C19 1_555 1_555
C20 C15 1_555 1_555
C21 C15 1_555 1_555
H14 C26 1_555 1_555
Zn6 O12 1_555 1_555
Zn9 O9 1_555 1_555
Zn13 O9 1_555 1_555
O12 Zn9 1_555 1_555
C19 C20 1_555 1_555
Zn1 O1 1_555 1_555
Zn2 O4 1_555 1_555
Zn3 O5 1_555 1_555
O1 H1 1_555 1_555
O2 Zn1 1_555 1_555
O3 C7 1_555 1_555
O4 C14 1_555 1_555
O5 C14 1_555 1_555
O6 C2 1_555 1_555
C1 C2 1_555 1_555
C2 C3 1_555 1_555
C3 H2 1_555 1_555
C4 C3 1_555 1_555
C5 C4 1_555 1_555
H3 C5 1_555 1_555
C6 C1 1_555 1_555
H4 C6 1_555 1_555
C7 O2 1_555 1_555
C8 C9 1_555 1_555
C9 H5 1_555 1_555
C10 C9 1_555 1_555
H6 C10 1_555 1_555
C11 C4 1_555 1_555
C12 C11 1_555 1_555
H7 C12 1_555 1_555
C13 C8 1_555 1_555
H8 C13 1_555 1_555
C14 C8 1_555 1_555
O7 Zn2 1_555 1_555
Zn4 O10 1_555 1_555
O10 C28 1_555 1_555
O11 Zn3 1_555 1_555
C22 C23 1_555 1_555
C23 H12 1_555 1_555
C24 C23 1_555 1_555
H13 C24 1_555 1_555
C27 C22 1_555 1_555
H15 C27 1_555 1_555
C28 O11 1_555 1_555
O13 Zn4 1_555 1_555
O14 Zn1 1_555 1_555
H16 O14 1_555 1_555
Zn7 O3 1_555 1_555
Zn8 O1 1_555 1_555
Zn10 O6 1_555 1_555
Zn11 O14 1_555 1_555
Zn12 O1 1_555 1_555
O15 Zn2 1_555 1_555
O16 Zn3 1_555 1_555
O17 Zn1 1_555 1_555
O18 Zn3 1_555 1_555
O19 Zn2 1_555 1_555
O20 Zn4 1_555 1_555
O21 Zn4 1_555 1_555
O22 Zn2 1_555 1_555
O23 Zn2 1_555 1_555
Zn3 O15 1_555 1_555
Zn3 O19 1_555 1_555
O3 Zn12 1_555 1_555
O6 Zn7 1_555 1_555
C1 C7 1_555 1_555
C5 C6 1_555 1_555
C10 C11 1_555 1_555
C12 C13 1_555 1_555
Zn4 O16 1_555 1_555
Zn4 O18 1_555 1_555
C22 C28 1_555 1_555
C24 C25 1_555 1_555
O7 H17 1_555 1_555
O7 H18 1_555 1_555
Zn5 O8 1_555 1_555
Zn5 O1_2 1_555 1_555
O1_2 H1_2 1_555 1_555
O14_2 Zn5 1_555 1_555
H16_2 O14_2 1_555 1_555
Zn8_2 O1_2 1_555 1_555
Zn11_2 O14_2 1_555 1_555
Zn14_2 O14_2 1_555 1_555
O17_2 Zn5 1_555 1_555
O17_2 C21_2 1_555 1_555
O9_2 C21_2 1_555 1_555
O12_2 C16_2 1_555 1_555
C15_2 C16_2 1_555 1_555
C16_2 C17_2 1_555 1_555
C17_2 H9_2 1_555 1_555
C18_2 C17_2 1_555 1_555
C19_2 C18_2 1_555 1_555
H10_2 C19_2 1_555 1_555
C20_2 C15_2 1_555 1_555
H11_2 C20_2 1_555 1_555
C21_2 C15_2 1_555 1_555
H14_2 C26_2 1_555 1_555
Zn9 O12_2 1_555 1_555
Zn6 O9_2 1_555 1_555
Zn14_2 O9_2 1_555 1_555
O12_2 Zn6 1_555 1_555
C19_2 C20_2 1_555 1_555
Zn2_2 O4_2 1_555 1_555
Zn3_2 O5_2 1_555 1_555
O3_2 C7_2 1_555 1_555
O4_2 C14_2 1_555 1_555
O5_2 C14_2 1_555 1_555
O6_2 C2_2 1_555 1_555
C1_2 C2_2 1_555 1_555
C2_2 C3_2 1_555 1_555
C3_2 H2_2 1_555 1_555
C4_2 C3_2 1_555 1_555
C5_2 C4_2 1_555 1_555
H3_2 C5_2 1_555 1_555
C6_2 C1_2 1_555 1_555
C8_2 C9_2 1_555 1_555
C9_2 H5_2 1_555 1_555
C10_2 C9_2 1_555 1_555
H6_2 C10_2 1_555 1_555
C11_2 C4_2 1_555 1_555
C12_2 C11_2 1_555 1_555
H7_2 C12_2 1_555 1_555
C13_2 C8_2 1_555 1_555
H8_2 C13_2 1_555 1_555
C14_2 C8_2 1_555 1_555
O7_2 Zn2_2 1_555 1_555
Zn4_2 O10_2 1_555 1_555
O10_2 C28_2 1_555 1_555
O11_2 Zn3_2 1_555 1_555
C22_2 C23_2 1_555 1_555
C23_2 H12_2 1_555 1_555
C24_2 C23_2 1_555 1_555
H13_2 C24_2 1_555 1_555
C27_2 C22_2 1_555 1_555
H15_2 C27_2 1_555 1_555
C28_2 O11_2 1_555 1_555
O13_2 Zn4_2 1_555 1_555
Zn10 O3_2 1_555 1_555
Zn7 O6_2 1_555 1_555
O15_2 Zn2_2 1_555 1_555
O16_2 Zn3_2 1_555 1_555
O18_2 Zn3_2 1_555 1_555
O19_2 Zn2_2 1_555 1_555
O20_2 Zn4_2 1_555 1_555
O21_2 Zn4_2 1_555 1_555
O22_2 Zn2_2 1_555 1_555
O23_2 Zn2_2 1_555 1_555
Zn3_2 O15_2 1_555 1_555
Zn3_2 O19_2 1_555 1_555
O3_2 Zn14 1_555 1_555
O6_2 Zn10 1_555 1_555
C1_2 C7_2 1_555 1_555
C5_2 C6_2 1_555 1_555
C10_2 C11_2 1_555 1_555
C12_2 C13_2 1_555 1_555
Zn4_2 O16_2 1_555 1_555
Zn4_2 O18_2 1_555 1_555
C22_2 C28_2 1_555 1_555
C24_2 C25_2 1_555 1_555
O7_2 H17_2 1_555 1_555
O7_2 H18_2 1_555 1_555
Zn2_3 O4_3 1_555 1_555
Zn3_3 O5_3 1_555 1_555
O4_3 C14_3 1_555 1_555
O5_3 C14_3 1_555 1_555
C8_3 C9_3 1_555 1_555
C9_3 H5_3 1_555 1_555
C13_3 C8_3 1_555 1_555
H8_3 C13_3 1_555 1_555
C14_3 C8_3 1_555 1_555
O7_3 Zn2_3 1_555 1_555
Zn4_3 O10_3 1_555 1_555
O10_3 C28_3 1_555 1_555
O11_3 Zn3_3 1_555 1_555
C22_3 C23_3 1_555 1_555
C23_3 H12_3 1_555 1_555
C27_3 C22_3 1_555 1_555
H15_3 C27_3 1_555 1_555
C28_3 O11_3 1_555 1_555
O13_3 Zn4_3 1_555 1_555
O15_3 Zn2_3 1_555 1_555
O16_3 Zn3_3 1_555 1_555
O18_3 Zn3_3 1_555 1_555
O19_3 Zn2_3 1_555 1_555
O20_3 Zn4_3 1_555 1_555
O21_3 Zn4_3 1_555 1_555
O22_3 Zn2_3 1_555 1_555
O23_3 Zn2_3 1_555 1_555
Zn3_3 O15_3 1_555 1_555
Zn3_3 O19_3 1_555 1_555
C12_3 C13_3 1_555 1_555
Zn4_3 O16_3 1_555 1_555
Zn4_3 O18_3 1_555 1_555
C22_3 C28_3 1_555 1_555
C26_3 C27_3 1_555 1_555
O7_3 H17_3 1_555 1_555
O7_3 H18_3 1_555 1_555
O13_3 H19_3 1_555 1_555
O13_3 H20_3 1_555 1_555
Zn1_2 O1_3 1_555 1_555
O1_3 H1_3 1_555 1_555
O2_2 Zn1_2 1_555 1_555
O3_3 C7_3 1_555 1_555
O6_3 C2_3 1_555 1_555
C1_3 C2_3 1_555 1_555
C2_3 C3_3 1_555 1_555
C3_3 H2_3 1_555 1_555
C4_3 C3_3 1_555 1_555
C5_3 C4_3 1_555 1_555
H3_3 C5_3 1_555 1_555
C6_3 C1_3 1_555 1_555
H4_3 C6_3 1_555 1_555
C7_3 O2_2 1_555 1_555
H6_3 C10_3 1_555 1_555
C11_3 C4_3 1_555 1_555
O9_3 C21_3 1_555 1_555
O12_3 C16_3 1_555 1_555
C15_3 C16_3 1_555 1_555
C16_3 C17_3 1_555 1_555
C17_3 H9_3 1_555 1_555
C18_3 C17_3 1_555 1_555
C19_3 C18_3 1_555 1_555
H10_3 C19_3 1_555 1_555
C20_3 C15_3 1_555 1_555
C21_3 C15_3 1_555 1_555
H13_3 C24_3 1_555 1_555
C25_3 C18_3 1_555 1_555
O14_3 Zn1_2 1_555 1_555
H16_3 O14_3 1_555 1_555
Zn6_2 O12_3 1_555 1_555
Zn7_2 O3_3 1_555 1_555
Zn8_3 O1_3 1_555 1_555
Zn9_2 O9_3 1_555 1_555
Zn10_2 O6_3 1_555 1_555
Zn11_3 O14_3 1_555 1_555
Zn12_2 O1_3 1_555 1_555
Zn13_2 O9_3 1_555 1_555
O17_3 Zn1_2 1_555 1_555
O3_3 Zn12_2 1_555 1_555
O6_3 Zn7_2 1_555 1_555
C1_3 C7_3 1_555 1_555
C5_3 C6_3 1_555 1_555
C10_3 C11_3 1_555 1_555
O12_3 Zn9_2 1_555 1_555
C19_3 C20_3 1_555 1_555
C24_3 C25_3 1_555 1_555
Zn5_2 O8_2 1_555 1_555
Zn5_2 O1_4 1_555 1_555
O1_4 H1_4 1_555 1_555
O14_4 Zn5_2 1_555 1_555
H16_4 O14_4 1_555 1_555
Zn8_4 O1_4 1_555 1_555
Zn11_4 O14_4 1_555 1_555
Zn14_4 O14_4 1_555 1_555
O17_4 Zn5_2 1_555 1_555
Zn2_4 O4_4 1_555 1_555
Zn3_4 O5_4 1_555 1_555
O3_4 C7_4 1_555 1_555
O4_4 C14_4 1_555 1_555
O5_4 C14_4 1_555 1_555
O6_4 C2_4 1_555 1_555
C1_4 C2_4 1_555 1_555
C2_4 C3_4 1_555 1_555
C3_4 H2_4 1_555 1_555
C4_4 C3_4 1_555 1_555
C5_4 C4_4 1_555 1_555
H3_4 C5_4 1_555 1_555
C6_4 C1_4 1_555 1_555
C8_4 C9_4 1_555 1_555
C9_4 H5_4 1_555 1_555
C10_4 C9_4 1_555 1_555
H6_4 C10_4 1_555 1_555
C11_4 C4_4 1_555 1_555
C12_4 C11_4 1_555 1_555
H7_4 C12_4 1_555 1_555
C13_4 C8_4 1_555 1_555
H8_4 C13_4 1_555 1_555
C14_4 C8_4 1_555 1_555
O7_4 Zn2_4 1_555 1_555
Zn4_4 O10_4 1_555 1_555
O17_4 C21_4 1_555 1_555
O9_4 C21_4 1_555 1_555
O10_4 C28_4 1_555 1_555
O11_4 Zn3_4 1_555 1_555
O12_4 C16_4 1_555 1_555
C15_4 C16_4 1_555 1_555
C16_4 C17_4 1_555 1_555
C17_4 H9_4 1_555 1_555
C18_4 C17_4 1_555 1_555
C19_4 C18_4 1_555 1_555
H10_4 C19_4 1_555 1_555
C20_4 C15_4 1_555 1_555
H11_4 C20_4 1_555 1_555
C21_4 C15_4 1_555 1_555
C22_4 C23_4 1_555 1_555
C23_4 H12_4 1_555 1_555
C24_4 C23_4 1_555 1_555
H13_4 C24_4 1_555 1_555
C25_4 C18_4 1_555 1_555
C26_4 C25_4 1_555 1_555
H14_4 C26_4 1_555 1_555
C27_4 C22_4 1_555 1_555
H15_4 C27_4 1_555 1_555
C28_4 O11_4 1_555 1_555
O13_4 Zn4_4 1_555 1_555
Zn9_2 O12_4 1_555 1_555
Zn10_2 O3_4 1_555 1_555
Zn6_2 O9_4 1_555 1_555
Zn7_2 O6_4 1_555 1_555
Zn14_4 O9_4 1_555 1_555
O15_4 Zn2_4 1_555 1_555
O16_4 Zn3_4 1_555 1_555
O18_4 Zn3_4 1_555 1_555
O19_4 Zn2_4 1_555 1_555
O20_4 Zn4_4 1_555 1_555
O21_4 Zn4_4 1_555 1_555
O22_4 Zn2_4 1_555 1_555
O23_4 Zn2_4 1_555 1_555
Zn3_4 O15_4 1_555 1_555
Zn3_4 O19_4 1_555 1_555
O3_4 Zn14_3 1_555 1_555
O6_4 Zn10_2 1_555 1_555
C1_4 C7_4 1_555 1_555
C5_4 C6_4 1_555 1_555
C10_4 C11_4 1_555 1_555
C12_4 C13_4 1_555 1_555
Zn4_4 O16_4 1_555 1_555
Zn4_4 O18_4 1_555 1_555
O12_4 Zn6_2 1_555 1_555
C19_4 C20_4 1_555 1_555
C22_4 C28_4 1_555 1_555
C24_4 C25_4 1_555 1_555
C26_4 C27_4 1_555 1_555
O7_4 H17_4 1_555 1_555
O7_4 H18_4 1_555 1_555
O13_4 H19_4 1_555 1_555
O13_4 H20_4 1_555 1_555
C9_5 H5_5 1_555 1_555
O21_2 Zn4_5 1_555 1_555
O20_2 Zn4_5 1_555 1_555
Zn4_5 O16_5 1_555 1_555
Zn1_3 O1_5 1_555 1_555
O1_5 H1_5 1_555 1_555
O2_3 Zn1_3 1_555 1_555
O3_5 C7_5 1_555 1_555
C1_5 C2_5 1_555 1_555
C5_5 C4_5 1_555 1_555
H3_5 C5_5 1_555 1_555
C6_5 C1_5 1_555 1_555
H4_5 C6_5 1_555 1_555
C7_5 O2_3 1_555 1_555
H6_5 C10_5 1_555 1_555
C11_5 C4_5 1_555 1_555
O14_5 Zn1_3 1_555 1_555
H16_5 O14_5 1_555 1_555
Zn9_2 O1_5 1_555 1_555
Zn6_2 O14_5 1_555 1_555
Zn13_2 O1_5 1_555 1_555
Zn14_4 O14_5 1_555 1_555
O17_5 Zn1_3 1_555 1_555
O3_5 Zn13_2 1_555 1_555
C1_5 C7_5 1_555 1_555
C5_5 C6_5 1_555 1_555
C10_5 C11_5 1_555 1_555
O8_3 C21_5 1_555 1_555
O9_5 C21_5 1_555 1_555
O12_5 C16_5 1_555 1_555
C15_5 C16_5 1_555 1_555
C16_5 C17_5 1_555 1_555
C17_5 H9_5 1_555 1_555
C18_5 C17_5 1_555 1_555
C19_5 C18_5 1_555 1_555
H10_5 C19_5 1_555 1_555
C20_5 C15_5 1_555 1_555
H11_5 C20_5 1_555 1_555
C21_5 C15_5 1_555 1_555
Zn5_3 O8_3 1_555 1_555
Zn11_3 O12_5 1_555 1_555
Zn8_3 O9_5 1_555 1_555
Zn12_2 O9_5 1_555 1_555
O12_5 Zn8_3 1_555 1_555
C19_5 C20_5 1_555 1_555
Zn2_5 O4_5 1_555 1_555
Zn3_5 O5_5 1_555 1_555
O4_5 C14_5 1_555 1_555
O5_5 C14_5 1_555 1_555
C13_5 C8_5 1_555 1_555
H8_5 C13_5 1_555 1_555
C14_5 C8_5 1_555 1_555
O7_5 Zn2_5 1_555 1_555
O10_5 C28_5 1_555 1_555
O11_5 Zn3_5 1_555 1_555
C22_5 C23_5 1_555 1_555
C23_5 H12_5 1_555 1_555
C27_5 C22_5 1_555 1_555
H15_5 C27_5 1_555 1_555
C28_5 O11_5 1_555 1_555
O15_5 Zn2_5 1_555 1_555
O18_5 Zn3_5 1_555 1_555
O19_5 Zn2_5 1_555 1_555
O23_2 Zn2_5 1_555 1_555
O22_2 Zn2_5 1_555 1_555
Zn3_5 O15_5 1_555 1_555
Zn3_5 O19_5 1_555 1_555
C12_5 C13_5 1_555 1_555
C22_5 C28_5 1_555 1_555
O7_5 H17_5 1_555 1_555
O7_5 H18_5 1_555 1_555
C3_5 H2_5 1_555 1_555
H13_5 C24_5 1_555 1_555
Zn11_4 O6_5 1_555 1_555
O6_5 Zn8_4 1_555 1_555
C24_5 C25_5 1_555 1_555
Zn5_3 O1_6 1_555 1_555
O1_6 H1_6 1_555 1_555
O14_6 Zn5_3 1_555 1_555
H16_6 O14_6 1_555 1_555
Zn7_2 O1_6 1_555 1_555
Zn10_2 O14_6 1_555 1_555
Zn12_2 O1_6 1_555 1_555
Zn14_3 O14_6 1_555 1_555
O17_6 Zn5_3 1_555 1_555
O17_6 C21_6 1_555 1_555
O9_6 C21_6 1_555 1_555
C15_6 C16_6 1_555 1_555
C19_6 C18_6 1_555 1_555
H10_6 C19_6 1_555 1_555
C20_6 C15_6 1_555 1_555
H11_6 C20_6 1_555 1_555
C21_6 C15_6 1_555 1_555
Zn14_3 O9_6 1_555 1_555
C19_6 C20_6 1_555 1_555
C23_6 H12_6 1_555 1_555
C24_6 C23_6 1_555 1_555
H13_6 C24_6 1_555 1_555
O15_6 Zn2_6 1_555 1_555
O23 Zn2_6 1_555 1_555
O22 Zn2_6 1_555 1_555
C24_6 C25_6 1_555 1_555
C17_6 H9_6 1_555 1_555
H14_6 C26_5 1_555 1_555
Zn8_3 O12_6 1_555 1_555
O12_6 Zn11_3 1_555 1_555
Zn3_6 O5_6 1_555 1_555
O3_6 C7_6 1_555 1_555
O4_6 C14_6 1_555 1_555
O5_6 C14_6 1_555 1_555
O6_6 C2_6 1_555 1_555
C1_6 C2_6 1_555 1_555
C2_6 C3_6 1_555 1_555
C3_6 H2_6 1_555 1_555
C4_6 C3_6 1_555 1_555
C5_6 C4_6 1_555 1_555
H3_6 C5_6 1_555 1_555
C6_6 C1_6 1_555 1_555
H4_6 C6_6 1_555 1_555
C7_6 O17_5 1_555 1_555
C8_6 C9_6 1_555 1_555
C9_6 H5_6 1_555 1_555
C10_6 C9_6 1_555 1_555
H6_6 C10_6 1_555 1_555
C11_6 C4_6 1_555 1_555
C12_6 C11_6 1_555 1_555
H7_6 C12_6 1_555 1_555
C13_6 C8_6 1_555 1_555
H8_6 C13_6 1_555 1_555
C14_6 C8_6 1_555 1_555
Zn4_6 O10_6 1_555 1_555
O10_6 C28_6 1_555 1_555
O11_6 Zn3_6 1_555 1_555
C27_6 C22_6 1_555 1_555
H15_6 C27_6 1_555 1_555
C28_6 O11_6 1_555 1_555
O13_6 Zn4_6 1_555 1_555
Zn11_4 O3_6 1_555 1_555
Zn8_4 O6_6 1_555 1_555
O16_6 Zn3_6 1_555 1_555
O18_6 Zn3_6 1_555 1_555
O21 Zn4_6 1_555 1_555
O20 Zn4_6 1_555 1_555
Zn3_6 O19_6 1_555 1_555
O3_6 Zn14_4 1_555 1_555
O6_6 Zn11_4 1_555 1_555
C1_6 C7_6 1_555 1_555
C5_6 C6_6 1_555 1_555
C10_6 C11_6 1_555 1_555
C12_6 C13_6 1_555 1_555
Zn4_6 O16_6 1_555 1_555
Zn4_6 O18_6 1_555 1_555
C22_6 C28_6 1_555 1_555
O7_6 H17_6 1_555 1_555
O7_6 H18_6 1_555 1_555
Zn1_4 O1_7 1_555 1_555
O1_7 H1_7 1_555 1_555
O2_4 Zn1_4 1_555 1_555
O3_7 C7_7 1_555 1_555
C1_7 C2_7 1_555 1_555
C5_7 C4_7 1_555 1_555
H3_7 C5_7 1_555 1_555
C6_7 C1_7 1_555 1_555
H4_7 C6_7 1_555 1_555
C7_7 O2_4 1_555 1_555
C9_7 H5_7 1_555 1_555
C10_7 C9_7 1_555 1_555
H6_7 C10_7 1_555 1_555
C11_7 C4_7 1_555 1_555
O14_7 Zn1_4 1_555 1_555
H16_7 O14_7 1_555 1_555
Zn9 O1_7 1_555 1_555
Zn6 O14_7 1_555 1_555
Zn13 O1_7 1_555 1_555
Zn14_2 O14_7 1_555 1_555
O17_7 Zn1_4 1_555 1_555
O21_4 Zn4_7 1_555 1_555
O20_4 Zn4_7 1_555 1_555
O3_7 Zn13 1_555 1_555
C1_7 C7_7 1_555 1_555
C5_7 C6_7 1_555 1_555
C10_7 C11_7 1_555 1_555
Zn4_7 O16_7 1_555 1_555
Zn2_7 O4_7 1_555 1_555
Zn3_7 O5_7 1_555 1_555
O4_7 C14_7 1_555 1_555
O5_7 C14_7 1_555 1_555
C3_7 H2_7 1_555 1_555
H7_7 C12_7 1_555 1_555
C13_7 C8_7 1_555 1_555
H8_7 C13_7 1_555 1_555
C14_7 C8_7 1_555 1_555
O7_7 Zn2_7 1_555 1_555
O8_4 C21_7 1_555 1_555
O9_7 C21_7 1_555 1_555
O10_7 C28_7 1_555 1_555
O11_7 Zn3_7 1_555 1_555
O12_7 C16_7 1_555 1_555
C15_7 C16_7 1_555 1_555
C16_7 C17_7 1_555 1_555
C17_7 H9_7 1_555 1_555
C18_7 C17_7 1_555 1_555
C19_7 C18_7 1_555 1_555
H10_7 C19_7 1_555 1_555
C20_7 C15_7 1_555 1_555
H11_7 C20_7 1_555 1_555
C21_7 C15_7 1_555 1_555
C22_7 C23_7 1_555 1_555
C23_7 H12_7 1_555 1_555
C24_7 C23_7 1_555 1_555
H13_7 C24_7 1_555 1_555
C25_7 C18_7 1_555 1_555
C26_6 C25_7 1_555 1_555
H14_7 C26_6 1_555 1_555
C27_7 C22_7 1_555 1_555
H15_7 C27_7 1_555 1_555
C28_7 O11_7 1_555 1_555
Zn5_4 O8_4 1_555 1_555
Zn11 O12_7 1_555 1_555
Zn8 O9_7 1_555 1_555
Zn11_2 O6_7 1_555 1_555
Zn12 O9_7 1_555 1_555
O15_7 Zn2_7 1_555 1_555
O18_7 Zn3_7 1_555 1_555
O19_7 Zn2_7 1_555 1_555
O23_4 Zn2_7 1_555 1_555
O22_4 Zn2_7 1_555 1_555
Zn3_7 O15_7 1_555 1_555
Zn3_7 O19_7 1_555 1_555
O6_7 Zn8_2 1_555 1_555
C12_7 C13_7 1_555 1_555
O12_7 Zn8 1_555 1_555
C19_7 C20_7 1_555 1_555
C22_7 C28_7 1_555 1_555
C24_7 C25_7 1_555 1_555
C26_6 C27_7 1_555 1_555
O7_7 H17_7 1_555 1_555
O7_7 H18_7 1_555 1_555
O13_7 H19_6 1_555 1_555
O13_7 H20_6 1_555 1_555
Zn5_4 O1_8 1_555 1_555
O1_8 H1_8 1_555 1_555
O14_8 Zn5_4 1_555 1_555
H16_8 O14_8 1_555 1_555
Zn7 O1_8 1_555 1_555
Zn10 O14_8 1_555 1_555
Zn12 O1_8 1_555 1_555
Zn14 O14_8 1_555 1_555
O17_8 Zn5_4 1_555 1_555
O17_8 C21_8 1_555 1_555
O9_8 C21_8 1_555 1_555
C15_8 C16_8 1_555 1_555
C19_8 C18_8 1_555 1_555
H10_8 C19_8 1_555 1_555
C20_8 C15_8 1_555 1_555
H11_8 C20_8 1_555 1_555
C21_8 C15_8 1_555 1_555
C23_8 H12_8 1_555 1_555
C24_8 C23_8 1_555 1_555
H13_8 C24_8 1_555 1_555
C25_8 C18_8 1_555 1_555
Zn14 O9_8 1_555 1_555
O15_8 Zn2_8 1_555 1_555
O23_3 Zn2_8 1_555 1_555
O22_3 Zn2_8 1_555 1_555
C19_8 C20_8 1_555 1_555
C24_8 C25_8 1_555 1_555
Zn3_8 O5_8 1_555 1_555
O3_8 C7_8 1_555 1_555
O4_8 C14_8 1_555 1_555
O5_8 C14_8 1_555 1_555
O6_8 C2_8 1_555 1_555
C1_8 C2_8 1_555 1_555
C2_8 C3_8 1_555 1_555
C3_8 H2_8 1_555 1_555
C4_8 C3_8 1_555 1_555
C5_8 C4_8 1_555 1_555
H3_8 C5_8 1_555 1_555
C6_8 C1_8 1_555 1_555
H4_8 C6_8 1_555 1_555
C7_8 O17_7 1_555 1_555
C8_8 C9_8 1_555 1_555
C9_8 H5_8 1_555 1_555
C10_8 C9_8 1_555 1_555
H6_8 C10_8 1_555 1_555
C11_8 C4_8 1_555 1_555
C12_8 C11_8 1_555 1_555
H7_8 C12_8 1_555 1_555
C13_8 C8_8 1_555 1_555
H8_8 C13_8 1_555 1_555
C14_8 C8_8 1_555 1_555
Zn4_8 O10_8 1_555 1_555
O10_8 C28_8 1_555 1_555
O11_8 Zn3_8 1_555 1_555
C17_8 H9_8 1_555 1_555
H14_8 C26_7 1_555 1_555
C27_8 C22_8 1_555 1_555
H15_8 C27_8 1_555 1_555
C28_8 O11_8 1_555 1_555
O13_8 Zn4_8 1_555 1_555
Zn8 O12_8 1_555 1_555
Zn11_2 O3_8 1_555 1_555
Zn8_2 O6_8 1_555 1_555
O16_8 Zn3_8 1_555 1_555
O18_8 Zn3_8 1_555 1_555
O21_3 Zn4_8 1_555 1_555
O20_3 Zn4_8 1_555 1_555
Zn3_8 O19_8 1_555 1_555
O3_8 Zn14_2 1_555 1_555
O6_8 Zn11_2 1_555 1_555
C1_8 C7_8 1_555 1_555
C5_8 C6_8 1_555 1_555
C10_8 C11_8 1_555 1_555
C12_8 C13_8 1_555 1_555
Zn4_8 O16_8 1_555 1_555
Zn4_8 O18_8 1_555 1_555
O12_8 Zn11 1_555 1_555
C22_8 C28_8 1_555 1_555
C26_7 C27_8 1_555 1_555
O7_8 H17_8 1_555 1_555
O7_8 H18_8 1_555 1_555
O13_8 H19_7 1_555 1_555
O13_8 H20_7 1_555 1_555
Zn5_5 O8_5 1_555 1_555
Zn1_5 O16_4 1_555 1_555
Zn11_2 O4_9 1_555 1_555
Zn14_2 O5_9 1_555 1_555
O16_4 H1_9 1_555 1_555
O2_5 Zn1_5 1_555 1_555
O19_4 C7_9 1_555 1_555
O4_9 C14_9 1_555 1_555
O5_9 C14_9 1_555 1_555
O23_4 C2_9 1_555 1_555
C1_9 C2_9 1_555 1_555
C2_9 C3_9 1_555 1_555
C3_9 H2_9 1_555 1_555
C4_9 C3_9 1_555 1_555
C5_9 C4_9 1_555 1_555
H3_9 C5_9 1_555 1_555
C6_9 C1_9 1_555 1_555
H4_9 C6_9 1_555 1_555
C7_9 O2_5 1_555 1_555
C8_9 C9_9 1_555 1_555
C9_9 H5_9 1_555 1_555
C10_9 C9_9 1_555 1_555
H6_9 C10_9 1_555 1_555
C11_9 C4_9 1_555 1_555
C12_9 C11_9 1_555 1_555
H7_9 C12_9 1_555 1_555
C13_9 C8_9 1_555 1_555
H8_9 C13_9 1_555 1_555
C14_9 C8_9 1_555 1_555
O7_9 Zn11_2 1_555 1_555
Zn6 O10_9 1_555 1_555
O10_9 C28_9 1_555 1_555
O11_9 Zn14_2 1_555 1_555
C22_9 C23_9 1_555 1_555
C23_9 H12_9 1_555 1_555
C24_9 C23_9 1_555 1_555
H13_9 C24_9 1_555 1_555
C27_9 C22_9 1_555 1_555
H15_9 C27_9 1_555 1_555
C28_9 O11_9 1_555 1_555
O13_9 Zn6 1_555 1_555
O16_7 Zn1_5 1_555 1_555
H16_9 O16_7 1_555 1_555
O17_9 Zn1_5 1_555 1_555
C1_9 C7_9 1_555 1_555
C5_9 C6_9 1_555 1_555
C10_9 C11_9 1_555 1_555
C12_9 C13_9 1_555 1_555
C22_9 C28_9 1_555 1_555
C24_9 C25_9 1_555 1_555
O7_9 H17_9 1_555 1_555
O7_9 H18_9 1_555 1_555
O18_6 C21_9 1_555 1_555
O20 C16_9 1_555 1_555
C15_9 C16_9 1_555 1_555
C16_9 C17_9 1_555 1_555
C17_9 H9_9 1_555 1_555
C18_9 C17_9 1_555 1_555
C19_9 C18_9 1_555 1_555
H10_9 C19_9 1_555 1_555
C20_9 C15_9 1_555 1_555
C21_9 C15_9 1_555 1_555
H14_9 C26_8 1_555 1_555
C19_9 C20_9 1_555 1_555
Zn5_5 O15_6 1_555 1_555
O15_6 H1_10 1_555 1_555
O15 Zn5_5 1_555 1_555
H16_10 O15 1_555 1_555
O17_10 Zn5_5 1_555 1_555
Zn7_2 O4_10 1_555 1_555
Zn12_2 O5_10 1_555 1_555
O19_7 C7_10 1_555 1_555
O4_10 C14_10 1_555 1_555
O5_10 C14_10 1_555 1_555
O22_4 C2_10 1_555 1_555
C1_10 C2_10 1_555 1_555
C2_10 C3_10 1_555 1_555
C3_10 H2_10 1_555 1_555
C4_10 C3_10 1_555 1_555
C5_10 C4_10 1_555 1_555
H3_10 C5_10 1_555 1_555
C6_10 C1_10 1_555 1_555
C8_10 C9_10 1_555 1_555
C9_10 H5_10 1_555 1_555
C10_10 C9_10 1_555 1_555
H6_10 C10_10 1_555 1_555
C11_10 C4_10 1_555 1_555
C12_10 C11_10 1_555 1_555
H7_10 C12_10 1_555 1_555
C13_10 C8_10 1_555 1_555
H8_10 C13_10 1_555 1_555
C14_10 C8_10 1_555 1_555
O7_10 Zn7_2 1_555 1_555
Zn8_3 O10_10 1_555 1_555
O10_10 C28_10 1_555 1_555
O11_10 Zn12_2 1_555 1_555
C22_10 C23_10 1_555 1_555
C23_10 H12_10 1_555 1_555
C24_10 C23_10 1_555 1_555
H13_10 C24_10 1_555 1_555
C27_10 C22_10 1_555 1_555
H15_10 C27_10 1_555 1_555
C28_10 O11_10 1_555 1_555
O13_10 Zn8_3 1_555 1_555
C1_10 C7_10 1_555 1_555
C5_10 C6_10 1_555 1_555
C10_10 C11_10 1_555 1_555
C12_10 C13_10 1_555 1_555
C22_10 C28_10 1_555 1_555
C24_10 C25_10 1_555 1_555
O7_10 H17_10 1_555 1_555
O7_10 H18_10 1_555 1_555
O17_10 C21_10 1_555 1_555
O18 C21_10 1_555 1_555
O21 C16_10 1_555 1_555
C15_10 C16_10 1_555 1_555
C16_10 C17_10 1_555 1_555
C17_10 H9_10 1_555 1_555
C18_10 C17_10 1_555 1_555
C19_10 C18_10 1_555 1_555
H10_10 C19_10 1_555 1_555
C20_10 C15_10 1_555 1_555
H11_10 C20_10 1_555 1_555
C21_10 C15_10 1_555 1_555
H14_10 C26_9 1_555 1_555
C19_10 C20_10 1_555 1_555
Zn5_6 O8_6 1_555 1_555
Zn1_6 O16_2 1_555 1_555
O16_2 H1_11 1_555 1_555
O2_6 Zn1_6 1_555 1_555
O19_2 C7_11 1_555 1_555
O23_2 C2_11 1_555 1_555
C1_11 C2_11 1_555 1_555
C2_11 C3_11 1_555 1_555
C3_11 H2_11 1_555 1_555
C4_11 C3_11 1_555 1_555
C5_11 C4_11 1_555 1_555
H3_11 C5_11 1_555 1_555
C6_11 C1_11 1_555 1_555
H4_11 C6_11 1_555 1_555
C7_11 O2_6 1_555 1_555
H6_11 C10_11 1_555 1_555
C11_11 C4_11 1_555 1_555
O18_8 C21_11 1_555 1_555
O20_3 C16_11 1_555 1_555
C15_11 C16_11 1_555 1_555
C16_11 C17_11 1_555 1_555
C17_11 H9_11 1_555 1_555
C18_11 C17_11 1_555 1_555
C19_11 C18_11 1_555 1_555
H10_11 C19_11 1_555 1_555
C20_11 C15_11 1_555 1_555
C21_11 C15_11 1_555 1_555
H13_11 C24_11 1_555 1_555
C25_11 C18_11 1_555 1_555
O16_5 Zn1_6 1_555 1_555
H16_11 O16_5 1_555 1_555
O17_11 Zn1_6 1_555 1_555
C1_11 C7_11 1_555 1_555
C5_11 C6_11 1_555 1_555
C10_11 C11_11 1_555 1_555
C19_11 C20_11 1_555 1_555
C24_11 C25_11 1_555 1_555
Zn11_4 O4_11 1_555 1_555
Zn14_4 O5_11 1_555 1_555
O4_11 C14_11 1_555 1_555
O5_11 C14_11 1_555 1_555
C8_11 C9_11 1_555 1_555
C9_11 H5_11 1_555 1_555
C13_11 C8_11 1_555 1_555
H8_11 C13_11 1_555 1_555
C14_11 C8_11 1_555 1_555
O7_11 Zn11_4 1_555 1_555
Zn6_2 O10_11 1_555 1_555
O10_11 C28_11 1_555 1_555
O11_11 Zn14_4 1_555 1_555
C22_11 C23_11 1_555 1_555
C23_11 H12_11 1_555 1_555
C27_11 C22_11 1_555 1_555
H15_11 C27_11 1_555 1_555
C28_11 O11_11 1_555 1_555
O13_11 Zn6_2 1_555 1_555
C12_11 C13_11 1_555 1_555
C22_11 C28_11 1_555 1_555
C26_10 C27_11 1_555 1_555
O7_11 H17_11 1_555 1_555
O7_11 H18_11 1_555 1_555
O13_11 H19_10 1_555 1_555
O13_11 H20_10 1_555 1_555
Zn5_6 O15_8 1_555 1_555
O15_8 H1_12 1_555 1_555
O15_3 Zn5_6 1_555 1_555
H16_12 O15_3 1_555 1_555
O17_12 Zn5_6 1_555 1_555
Zn7 O4_12 1_555 1_555
Zn12 O5_12 1_555 1_555
O19_5 C7_12 1_555 1_555
O4_12 C14_12 1_555 1_555
O5_12 C14_12 1_555 1_555
O22_2 C2_12 1_555 1_555
C1_12 C2_12 1_555 1_555
C2_12 C3_12 1_555 1_555
C3_12 H2_12 1_555 1_555
C4_12 C3_12 1_555 1_555
C5_12 C4_12 1_555 1_555
H3_12 C5_12 1_555 1_555
C6_12 C1_12 1_555 1_555
C8_12 C9_12 1_555 1_555
C9_12 H5_12 1_555 1_555
C10_12 C9_12 1_555 1_555
H6_12 C10_12 1_555 1_555
C11_12 C4_12 1_555 1_555
C12_12 C11_12 1_555 1_555
H7_12 C12_12 1_555 1_555
C13_12 C8_12 1_555 1_555
H8_12 C13_12 1_555 1_555
C14_12 C8_12 1_555 1_555
O7_12 Zn7 1_555 1_555
Zn8 O10_12 1_555 1_555
O17_12 C21_12 1_555 1_555
O18_3 C21_12 1_555 1_555
O10_12 C28_12 1_555 1_555
O11_12 Zn12 1_555 1_555
O21_3 C16_12 1_555 1_555
C15_12 C16_12 1_555 1_555
C16_12 C17_12 1_555 1_555
C17_12 H9_12 1_555 1_555
C18_12 C17_12 1_555 1_555
C19_12 C18_12 1_555 1_555
H10_12 C19_12 1_555 1_555
C20_12 C15_12 1_555 1_555
H11_12 C20_12 1_555 1_555
C21_12 C15_12 1_555 1_555
C22_12 C23_12 1_555 1_555
C23_12 H12_12 1_555 1_555
C24_12 C23_12 1_555 1_555
H13_12 C24_12 1_555 1_555
C25_12 C18_12 1_555 1_555
C26_11 C25_12 1_555 1_555
H14_12 C26_11 1_555 1_555
C27_12 C22_12 1_555 1_555
H15_12 C27_12 1_555 1_555
C28_12 O11_12 1_555 1_555
O13_12 Zn8 1_555 1_555
C1_12 C7_12 1_555 1_555
C5_12 C6_12 1_555 1_555
C10_12 C11_12 1_555 1_555
C12_12 C13_12 1_555 1_555
C19_12 C20_12 1_555 1_555
C22_12 C28_12 1_555 1_555
C24_12 C25_12 1_555 1_555
C26_11 C27_12 1_555 1_555
O7_12 H17_12 1_555 1_555
O7_12 H18_12 1_555 1_555
O13_12 H19_11 1_555 1_555
O13_12 H20_11 1_555 1_555
C3_13 H2_13 1_555 1_555
H13_13 C24_13 1_555 1_555
C24_13 C25_13 1_555 1_555
Zn10_2 O4_13 1_555 1_555
Zn14_3 O5_13 1_555 1_555
O4_13 C14_13 1_555 1_555
O5_13 C14_13 1_555 1_555
C13_13 C8_13 1_555 1_555
H8_13 C13_13 1_555 1_555
C14_13 C8_13 1_555 1_555
O7_13 Zn10_2 1_555 1_555
O10_13 C28_13 1_555 1_555
O11_13 Zn14_3 1_555 1_555
C22_13 C23_13 1_555 1_555
C23_13 H12_13 1_555 1_555
C27_13 C22_13 1_555 1_555
H15_13 C27_13 1_555 1_555
C28_13 O11_13 1_555 1_555
C12_13 C13_13 1_555 1_555
C22_13 C28_13 1_555 1_555
O7_13 H17_13 1_555 1_555
O7_13 H18_13 1_555 1_555
O8_7 C21_13 1_555 1_555
O18_2 C21_13 1_555 1_555
O21_2 C16_13 1_555 1_555
C15_13 C16_13 1_555 1_555
C16_13 C17_13 1_555 1_555
C17_13 H9_13 1_555 1_555
C18_13 C17_13 1_555 1_555
C19_13 C18_13 1_555 1_555
H10_13 C19_13 1_555 1_555
C20_13 C15_13 1_555 1_555
H11_13 C20_13 1_555 1_555
C21_13 C15_13 1_555 1_555
Zn5_7 O8_7 1_555 1_555
C19_13 C20_13 1_555 1_555
Zn1_7 O16_8 1_555 1_555
O16_8 H1_13 1_555 1_555
O2_7 Zn1_7 1_555 1_555
O19_8 C7_13 1_555 1_555
C1_13 C2_13 1_555 1_555
C5_13 C4_13 1_555 1_555
H3_13 C5_13 1_555 1_555
C6_13 C1_13 1_555 1_555
H4_13 C6_13 1_555 1_555
C7_13 O2_7 1_555 1_555
H6_13 C10_13 1_555 1_555
C11_13 C4_13 1_555 1_555
O16_3 Zn1_7 1_555 1_555
H16_13 O16_3 1_555 1_555
O17_13 Zn1_7 1_555 1_555
C1_13 C7_13 1_555 1_555
C5_13 C6_13 1_555 1_555
C10_13 C11_13 1_555 1_555
C9_13 H5_13 1_555 1_555
Zn5_7 O15_2 1_555 1_555
O15_2 H1_14 1_555 1_555
O15_5 Zn5_7 1_555 1_555
H16_14 O15_5 1_555 1_555
O17_14 Zn5_7 1_555 1_555
Zn13 O5_14 1_555 1_555
O19_3 C7_14 1_555 1_555
O4_14 C14_14 1_555 1_555
O5_14 C14_14 1_555 1_555
O23_3 C2_14 1_555 1_555
C1_14 C2_14 1_555 1_555
C2_14 C3_14 1_555 1_555
C3_14 H2_14 1_555 1_555
C4_14 C3_14 1_555 1_555
C5_14 C4_14 1_555 1_555
H3_14 C5_14 1_555 1_555
C6_14 C1_14 1_555 1_555
H4_14 C6_14 1_555 1_555
C7_14 O17_13 1_555 1_555
C8_14 C9_14 1_555 1_555
C9_14 H5_14 1_555 1_555
C10_14 C9_14 1_555 1_555
H6_14 C10_14 1_555 1_555
C11_14 C4_14 1_555 1_555
C12_14 C11_14 1_555 1_555
H7_14 C12_14 1_555 1_555
C13_14 C8_14 1_555 1_555
H8_14 C13_14 1_555 1_555
C14_14 C8_14 1_555 1_555
Zn9 O10_14 1_555 1_555
O10_14 C28_14 1_555 1_555
O11_14 Zn13 1_555 1_555
C27_14 C22_14 1_555 1_555
H15_14 C27_14 1_555 1_555
C28_14 O11_14 1_555 1_555
O13_14 Zn9 1_555 1_555
C1_14 C7_14 1_555 1_555
C5_14 C6_14 1_555 1_555
C10_14 C11_14 1_555 1_555
C12_14 C13_14 1_555 1_555
C22_14 C28_14 1_555 1_555
O7_14 H17_14 1_555 1_555
O7_14 H18_14 1_555 1_555
C17_14 H9_14 1_555 1_555
H14_14 C26_12 1_555 1_555
C23_14 H12_14 1_555 1_555
C24_14 C23_14 1_555 1_555
H13_14 C24_14 1_555 1_555
C24_14 C25_14 1_555 1_555
O17_14 C21_14 1_555 1_555
O18_5 C21_14 1_555 1_555
C15_14 C16_14 1_555 1_555
C19_14 C18_14 1_555 1_555
H10_14 C19_14 1_555 1_555
C20_14 C15_14 1_555 1_555
H11_14 C20_14 1_555 1_555
C21_14 C15_14 1_555 1_555
C19_14 C20_14 1_555 1_555
Zn10 O4_15 1_555 1_555
Zn14 O5_15 1_555 1_555
O4_15 C14_15 1_555 1_555
O5_15 C14_15 1_555 1_555
C3_15 H2_15 1_555 1_555
H7_15 C12_15 1_555 1_555
C13_15 C8_15 1_555 1_555
H8_15 C13_15 1_555 1_555
C14_15 C8_15 1_555 1_555
O7_15 Zn10 1_555 1_555
O8_8 C21_15 1_555 1_555
O18_4 C21_15 1_555 1_555
O10_15 C28_15 1_555 1_555
O11_15 Zn14 1_555 1_555
O21_4 C16_15 1_555 1_555
C15_15 C16_15 1_555 1_555
C16_15 C17_15 1_555 1_555
C17_15 H9_15 1_555 1_555
C18_15 C17_15 1_555 1_555
C19_15 C18_15 1_555 1_555
H10_15 C19_15 1_555 1_555
C20_15 C15_15 1_555 1_555
H11_15 C20_15 1_555 1_555
C21_15 C15_15 1_555 1_555
C22_15 C23_15 1_555 1_555
C23_15 H12_15 1_555 1_555
C24_15 C23_15 1_555 1_555
H13_15 C24_15 1_555 1_555
C25_15 C18_15 1_555 1_555
C26_13 C25_15 1_555 1_555
H14_15 C26_13 1_555 1_555
C27_15 C22_15 1_555 1_555
H15_15 C27_15 1_555 1_555
C28_15 O11_15 1_555 1_555
Zn5_8 O8_8 1_555 1_555
C12_15 C13_15 1_555 1_555
C19_15 C20_15 1_555 1_555
C22_15 C28_15 1_555 1_555
C24_15 C25_15 1_555 1_555
C26_13 C27_15 1_555 1_555
O7_15 H17_15 1_555 1_555
O7_15 H18_15 1_555 1_555
O13_15 H19_13 1_555 1_555
O13_15 H20_13 1_555 1_555
Zn1_8 O16_6 1_555 1_555
O16_6 H1_15 1_555 1_555
O2_8 Zn1_8 1_555 1_555
O19_6 C7_15 1_555 1_555
C1_15 C2_15 1_555 1_555
C5_15 C4_15 1_555 1_555
H3_15 C5_15 1_555 1_555
C6_15 C1_15 1_555 1_555
H4_15 C6_15 1_555 1_555
C7_15 O2_8 1_555 1_555
C9_15 H5_15 1_555 1_555
C10_15 C9_15 1_555 1_555
H6_15 C10_15 1_555 1_555
C11_15 C4_15 1_555 1_555
O16 Zn1_8 1_555 1_555
H16_15 O16 1_555 1_555
O17_15 Zn1_8 1_555 1_555
C1_15 C7_15 1_555 1_555
C5_15 C6_15 1_555 1_555
C10_15 C11_15 1_555 1_555
Zn5_8 O15_4 1_555 1_555
O15_4 H1_16 1_555 1_555
O15_7 Zn5_8 1_555 1_555
H16_16 O15_7 1_555 1_555
O17_16 Zn5_8 1_555 1_555
Zn13_2 O5_16 1_555 1_555
O19 C7_16 1_555 1_555
O4_16 C14_16 1_555 1_555
O5_16 C14_16 1_555 1_555
O23 C2_16 1_555 1_555
C1_16 C2_16 1_555 1_555
C2_16 C3_16 1_555 1_555
C3_16 H2_16 1_555 1_555
C4_16 C3_16 1_555 1_555
C5_16 C4_16 1_555 1_555
H3_16 C5_16 1_555 1_555
C6_16 C1_16 1_555 1_555
H4_16 C6_16 1_555 1_555
C7_16 O17_15 1_555 1_555
C8_16 C9_16 1_555 1_555
C9_16 H5_16 1_555 1_555
C10_16 C9_16 1_555 1_555
H6_16 C10_16 1_555 1_555
C11_16 C4_16 1_555 1_555
C12_16 C11_16 1_555 1_555
H7_16 C12_16 1_555 1_555
C13_16 C8_16 1_555 1_555
H8_16 C13_16 1_555 1_555
C14_16 C8_16 1_555 1_555
Zn9_2 O10_16 1_555 1_555
O10_16 C28_16 1_555 1_555
O11_16 Zn13_2 1_555 1_555
C17_16 H9_16 1_555 1_555
H14_16 C26_14 1_555 1_555
C27_16 C22_16 1_555 1_555
H15_16 C27_16 1_555 1_555
C28_16 O11_16 1_555 1_555
O13_16 Zn9_2 1_555 1_555
C1_16 C7_16 1_555 1_555
C5_16 C6_16 1_555 1_555
C10_16 C11_16 1_555 1_555
C12_16 C13_16 1_555 1_555
C22_16 C28_16 1_555 1_555
C26_14 C27_16 1_555 1_555
O7_16 H17_16 1_555 1_555
O7_16 H18_16 1_555 1_555
O13_16 H19_14 1_555 1_555
O13_16 H20_14 1_555 1_555
O17_16 C21_16 1_555 1_555
O18_7 C21_16 1_555 1_555
C15_16 C16_16 1_555 1_555
C19_16 C18_16 1_555 1_555
H10_16 C19_16 1_555 1_555
C20_16 C15_16 1_555 1_555
H11_16 C20_16 1_555 1_555
C21_16 C15_16 1_555 1_555
C23_16 H12_16 1_555 1_555
C24_16 C23_16 1_555 1_555
H13_16 C24_16 1_555 1_555
C25_16 C18_16 1_555 1_555
C19_16 C20_16 1_555 1_555
C24_16 C25_16 1_555 1_555

#END
