
###############################################################################
#
# This file contains modified crystal structure data generated from the
# MOF subset of the Cambridge Structural Database (CSD) v543 
# hosted by the Cambridge Crystallographic Data Centre (CCDC).
#
# This work is licensed under the Creative Commons
# Attribution-NonCommercial-ShareAlike 4.0 International License.
# To view a copy of this license, visit
# http://creativecommons.org/licenses/by-nc-sa/4.0/
# or send a letter to
# Creative Commons, PO Box 1866, Mountain View, CA 94042, USA.
#
# CIF created using the CSD Python API on 29 September 2022
# The structure has been converted into the P1 space group
# The structure has a 3D framework
# The original CSD entry GONNAA is in the monoclinic crystal system
# The framework has been calculated to contain at least 10.0% void space
# The void calculation uses a probe of radius 1.32A, grid spacing 0.4
#
###############################################################################

data_GONNAA
_chemical_formula_moiety         '(C104 H160 Cl8 N78 O16 Zn12)n'
_symmetry_cell_setting           triclinic
_symmetry_space_group_name_H-M   'P 1'
_symmetry_Int_Tables_number      1
_space_group_name_Hall           'P 1'
loop_
_symmetry_equiv_pos_site_id
_symmetry_equiv_pos_as_xyz
1 x,y,z
_cell_length_a                   15.7345(5)
_cell_length_b                   20.5801(4)
_cell_length_c                   15.7442(4)
_cell_angle_alpha                90
_cell_angle_beta                 112.1180(10)
_cell_angle_gamma                90
_cell_volume                     4723.07
loop_
_atom_site_label
_atom_site_type_symbol
_atom_site_fract_x
_atom_site_fract_y
_atom_site_fract_z
N7 N 0.2068(3) 0.20518(16) 0.0587(3)
N8 N 0.2968(3) 0.21847(17) 0.0776(3)
N9 N 0.5808(3) 0.02101(15) 0.1623(3)
N12 N 0.6709(3) 0.02415(16) 0.0825(3)
N13 N 0.7041(3) 0.31501(17) 0.1257(3)
N14 N 0.7362(3) 0.35746(16) 0.1933(3)
N15 N 0.6818(3) 0.35951(16) 0.2397(3)
N16 N 0.6120(3) 0.31828(17) 0.2029(3)
C4 C 0.4131(3) 0.18408(19) 0.0131(3)
C5 C 0.4591(3) 0.11950(17) 0.0553(3)
H3 H 0.4228 0.0828 0.0189
H4 H 0.4606 0.1156 0.1185
C6 C 0.5584(2) 0.11597(14) 0.0573(2)
C7 C 0.6143(2) 0.17293(14) 0.1146(2)
H5 H 0.6776 0.1714 0.1158
H6 H 0.6175 0.1691 0.1785
C8 C 0.5692(2) 0.23825(14) 0.0733(2)
C10 C 0.4704(3) 0.24034(18) 0.0714(3)
H9 H 0.4719 0.2370 0.1347
H10 H 0.4415 0.2823 0.0454
C12 C 0.3168(3) 0.18576(19) 0.0152(3)
C13 C 0.6026(2) 0.05343(15) 0.0995(2)
C14 C 0.6269(3) 0.29159(15) 0.1321(3)
H39 H 0.7959 0.3015 0.0168
H40 H 0.8560 0.3600 0.0024
Zn5 Zn 0.85371(4) 0.40826(2) 0.21213(4)
Zn7 Zn 0.70349(4) 0.41050(2) 0.35605(3)
Zn8 Zn 0.12763(3) 0.24481(2) 0.13653(3)
Zn1 Zn 0.35371(4) 0.09174(2) 0.71213(4)
Zn2 Zn 0.20349(4) 0.08950(2) 0.85605(3)
Zn3 Zn 0.62763(3) 0.25519(2) 0.63653(3)
Cl1 Cl 0.33995(10) 0.02717(5) 0.59744(9)
Cl2 Cl 0.08897(9) 0.02506(5) 0.85109(10)
O1 O 0.7420(2) 0.19672(15) 0.7070(2)
O2 O 0.5773(2) 0.18118(16) 0.5420(2)
O3 O 0.5108(3) 0.31068(17) 0.5682(3)
O4 O 0.6793(2) 0.32585(16) 0.7366(2)
N1 N 0.4555(3) 0.15764(17) 0.7488(2)
N2 N 0.4827(3) 0.17388(18) 0.6797(3)
N3 N 0.5505(3) 0.21437(16) 0.7120(3)
N4 N 0.5714(3) 0.22649(16) 0.8016(3)
N5 N 0.2432(2) 0.15257(16) 0.9604(2)
N6 N 0.1734(3) 0.16609(18) 0.9889(3)
N17 N 0.8635(3) 0.1398(2) 0.7001(3)
N18 N 0.5209(3) 0.13155(19) 0.4054(3)
N19 N 0.4118(3) 0.3899(2) 0.4911(3)
N20 N 0.7474(3) 0.3381(2) 0.8905(3)
C1 C 0.5100(3) 0.19142(19) 0.8222(3)
C2 C 0.5101(3) 0.18704(19) 0.9168(3)
C3 C 0.4109(2) 0.18979(15) 0.9156(2)
H1 H 0.3816 0.2313 0.8882
H2 H 0.3741 0.1538 0.8777
C9 C 0.5660(3) 0.24361(19) 0.9751(3)
H7 H 0.6291 0.2426 0.9757
H8 H 0.5375 0.2854 0.9479
C11 C 0.5555(3) 0.12213(18) 0.9597(3)
H11 H 0.5202 0.0854 0.9222
H12 H 0.6186 0.1202 0.9604
C15 C 0.7759(4) 0.1554(2) 0.6689(3)
H13 H 0.7359 0.1346 0.6147
C16 C 0.9288(4) 0.1716(3) 0.7790(4)
H14 H 0.9411 0.2153 0.7621
H15 H 0.9859 0.1465 0.8015
H16 H 0.9038 0.1745 0.8273
C17 C 0.8980(4) 0.0922(3) 0.6525(4)
H17 H 0.8464 0.0724 0.6027
H18 H 0.9321 0.0583 0.6957
H19 H 0.9388 0.1137 0.6271
C18 C 0.5642(3) 0.1792(2) 0.4602(3)
H20 H 0.5866 0.2141 0.4349
C19 C 0.4879(5) 0.0753(3) 0.4399(4)
H21 H 0.5008 0.0811 0.5053
H22 H 0.5191 0.0362 0.4311
H23 H 0.4216 0.0707 0.4064
C20 C 0.5103(5) 0.1320(3) 0.3110(4)
H24 H 0.5410 0.1703 0.2990
H25 H 0.4449 0.1335 0.2722
H26 H 0.5377 0.0926 0.2974
C21 C 0.4939(4) 0.3611(2) 0.5242(3)
H27 H 0.5427 0.3815 0.5128
C22 C 0.3316(5) 0.3651(3) 0.5070(6)
H28 H 0.2861 0.3489 0.4492
H29 H 0.3045 0.4001 0.5307
H30 H 0.3505 0.3296 0.5517
C23 C 0.3966(5) 0.4474(3) 0.4343(5)
H31 H 0.3756 0.4830 0.4628
H32 H 0.3499 0.4382 0.3735
H33 H 0.4540 0.4600 0.4280
C24 C 0.7400(4) 0.3122(2) 0.8113(4)
H34 H 0.7845 0.2809 0.8117
C25 C 0.6766(4) 0.3829(3) 0.8933(4)
H35 H 0.7019 0.4270 0.9059
H36 H 0.6555 0.3696 0.9419
H37 H 0.6248 0.3823 0.8342
C26 C 0.8211(4) 0.3209(3) 0.9745(4)
H38 H 0.8616 0.2896 0.9616
N21 N 0.7068(3) 0.29482(16) 0.5587(3)
N22 N 0.3612(3) 0.02945(16) 0.8157(3)
N23 N 0.3084(3) 0.02743(16) 0.8630(3)
N24 N 0.2362(3) 0.14254(16) 0.6933(3)
N25 N 0.1818(3) 0.14049(16) 0.7397(3)
N10 N 0.6388(3) 0.97055(16) 0.1843(3)
N11 N 0.6916(3) 0.97257(16) 0.1370(3)
Zn4 Zn 0.64629(4) 0.90826(2) 0.28787(4)
Zn6 Zn 0.79651(4) 0.91050(2) 0.14395(3)
Zn1_2 Zn 0.14629(4) 0.59174(2) 0.78787(4)
Zn2_2 Zn 0.29651(4) 0.58950(2) 0.64395(3)
Cl1_2 Cl 0.16005(10) 0.52717(5) 0.90256(9)
Cl2_2 Cl 0.41103(9) 0.52506(5) 0.64891(10)
N1_2 N 0.0445(3) 0.65764(17) 0.7512(2)
N2_2 N 0.0173(3) 0.67388(18) 0.8203(3)
N5_2 N 0.2568(2) 0.65257(16) 0.5396(2)
N6_2 N 0.3266(3) 0.66609(18) 0.5111(3)
N7_2 N 0.2932(3) 0.70518(16) 0.4413(3)
N8_2 N 0.2032(3) 0.71847(17) 0.4224(3)
C3_2 C 0.0891(2) 0.68979(15) 0.5844(2)
H1_2 H 0.1184 0.7313 0.6118
H2_2 H 0.1259 0.6538 0.6223
C4_2 C 0.0869(3) 0.68408(19) 0.4869(3)
C5_2 C 0.0409(3) 0.61950(17) 0.4447(3)
H3_2 H 0.0772 0.5828 0.4811
H4_2 H 0.0394 0.6156 0.3815
C10_2 C 0.0296(3) 0.74034(18) 0.4286(3)
H9_2 H 0.0281 0.7370 0.3653
H10_2 H 0.0585 0.7823 0.4546
C12_2 C 0.1832(3) 0.68576(19) 0.4848(3)
C21_2 C 0.0061(4) 0.8611(2) 0.9758(3)
C22_2 C 0.1684(5) 0.8651(3) 0.9930(6)
H29_2 H 0.1955 0.9001 0.9693
H30_2 H 0.1495 0.8296 0.9483
Zn8_2 Zn 0.37237(3) 0.74481(2) 0.36347(3)
N22_2 N 0.1388(3) 0.52945(16) 0.6843(3)
N23_2 N 0.1916(3) 0.52743(16) 0.6370(3)
N24_2 N 0.2638(3) 0.64254(16) 0.8067(3)
N25_2 N 0.3182(3) 0.64049(16) 0.7603(3)
Zn3_2 Zn 0.87237(3) 0.75519(2) 0.86347(3)
O1_2 O 0.7580(2) 0.69672(15) 0.7930(2)
O2_2 O 0.9227(2) 0.68118(16) 0.9580(2)
O3_2 O 0.9892(3) 0.81068(17) 0.9318(3)
O4_2 O 0.8207(2) 0.82585(16) 0.7634(2)
N3_2 N 0.9495(3) 0.71437(16) 0.7880(3)
N4_2 N 0.9286(3) 0.72649(16) 0.6984(3)
N9_2 N 0.9192(3) 0.52101(15) 0.3377(3)
N10_2 N 0.8612(3) 0.47055(16) 0.3157(3)
N11_2 N 0.8084(3) 0.47257(16) 0.3630(3)
N12_2 N 0.8291(3) 0.52415(16) 0.4175(3)
N13_2 N 0.7959(3) 0.81501(17) 0.3743(3)
N14_2 N 0.7638(3) 0.85746(16) 0.3067(3)
N15_2 N 0.8182(3) 0.85951(16) 0.2603(3)
N16_2 N 0.8880(3) 0.81828(17) 0.2971(3)
N17_2 N 0.6365(3) 0.6398(2) 0.7999(3)
N20_2 N 0.7526(3) 0.8381(2) 0.6095(3)
C1_2 C 0.9900(3) 0.69142(19) 0.6778(3)
C2_2 C 0.9899(3) 0.68704(19) 0.5832(3)
C6_2 C 0.9416(2) 0.61597(14) 0.4427(2)
C7_2 C 0.8857(2) 0.67293(14) 0.3854(2)
H5_2 H 0.8224 0.6714 0.3842
H6_2 H 0.8825 0.6691 0.3215
C8_2 C 0.9308(2) 0.73825(14) 0.4267(2)
C9_2 C 0.9340(3) 0.74361(19) 0.5249(3)
H7_2 H 0.8709 0.7426 0.5243
H8_2 H 0.9625 0.7854 0.5521
C11_2 C 0.9445(3) 0.62213(18) 0.5403(3)
H11_2 H 0.9798 0.5854 0.5778
H12_2 H 0.8814 0.6202 0.5396
C13_2 C 0.8974(2) 0.55343(15) 0.4005(2)
C14_2 C 0.8731(3) 0.79159(15) 0.3679(3)
C15_2 C 0.7241(4) 0.6554(2) 0.8311(3)
H13_2 H 0.7641 0.6346 0.8853
C16_2 C 0.5712(4) 0.6716(3) 0.7210(4)
H14_2 H 0.5589 0.7153 0.7379
H15_2 H 0.5141 0.6465 0.6985
H16_2 H 0.5962 0.6745 0.6727
C17_2 C 0.6020(4) 0.5922(3) 0.8475(4)
H17_2 H 0.6536 0.5724 0.8973
H18_2 H 0.5679 0.5583 0.8043
H19_2 H 0.5612 0.6137 0.8729
H21_2 H 0.9992 0.5811 0.9947
H27_2 H 0.9573 0.8815 0.9872
C24_2 C 0.7600(4) 0.8122(2) 0.6887(4)
H34_2 H 0.7155 0.7809 0.6883
C25_2 C 0.8234(4) 0.8829(3) 0.6067(4)
H35_2 H 0.7981 0.9270 0.5941
H36_2 H 0.8445 0.8696 0.5581
H37_2 H 0.8752 0.8823 0.6658
C26_2 C 0.6789(4) 0.8209(3) 0.5255(4)
H38_2 H 0.6384 0.7896 0.5384
H39_2 H 0.7041 0.8015 0.4832
H40_2 H 0.6440 0.8600 0.4976
N21_2 N 0.7932(3) 0.79482(16) 0.9413(3)
Cl1_3 Cl 0.66005(10) 0.97283(5) 0.40256(9)
Cl2_3 Cl 0.91103(9) 0.97494(5) 0.14891(10)
O1_3 O 0.2580(2) 0.80328(15) 0.2930(2)
O2_3 O 0.4227(2) 0.81882(16) 0.4580(2)
O3_3 O 0.4892(3) 0.68932(17) 0.4318(3)
O4_3 O 0.3207(2) 0.67415(16) 0.2634(2)
N1_3 N 0.5445(3) 0.84236(17) 0.2512(2)
N2_3 N 0.5173(3) 0.82612(18) 0.3203(3)
N3_3 N 0.4495(3) 0.78563(16) 0.2880(3)
N4_3 N 0.4286(3) 0.77351(16) 0.1984(3)
N5_3 N 0.7568(2) 0.84743(16) 0.0396(2)
N6_3 N 0.8266(3) 0.83391(18) 0.0111(3)
N17_3 N 0.1365(3) 0.8602(2) 0.2999(3)
N18_2 N 0.4791(3) 0.86845(19) 0.5946(3)
N19_2 N 0.5882(3) 0.6101(2) 0.5089(3)
N20_3 N 0.2526(3) 0.6619(2) 0.1095(3)
C1_3 C 0.4900(3) 0.80858(19) 0.1778(3)
C2_3 C 0.4899(3) 0.81296(19) 0.0832(3)
C3_3 C 0.5891(2) 0.81021(15) 0.0844(2)
H1_3 H 0.6184 0.7687 0.1118
H2_3 H 0.6259 0.8462 0.1223
C9_3 C 0.4340(3) 0.75639(19) 0.0249(3)
H7_3 H 0.3709 0.7574 0.0243
H8_3 H 0.4625 0.7146 0.0521
C11_3 C 0.4445(3) 0.87787(18) 0.0403(3)
H11_3 H 0.4798 0.9146 0.0778
H12_3 H 0.3814 0.8798 0.0396
C15_3 C 0.2241(4) 0.8446(2) 0.3311(3)
H13_3 H 0.2641 0.8654 0.3853
C16_3 C 0.0712(4) 0.8284(3) 0.2210(4)
H14_3 H 0.0589 0.7847 0.2379
H15_3 H 0.0141 0.8535 0.1985
H16_3 H 0.0962 0.8255 0.1727
C17_3 C 0.1020(4) 0.9078(3) 0.3475(4)
H17_3 H 0.1536 0.9276 0.3973
H18_3 H 0.0679 0.9417 0.3043
H19_3 H 0.0612 0.8863 0.3729
C18_2 C 0.4358(3) 0.8208(2) 0.5398(3)
H20_2 H 0.4134 0.7859 0.5651
C19_2 C 0.5121(5) 0.9247(3) 0.5601(4)
H21_3 H 0.4992 0.9189 0.4947
H22_2 H 0.4809 0.9638 0.5689
H23_2 H 0.5784 0.9293 0.5936
C20_2 C 0.4897(5) 0.8680(3) 0.6890(4)
H24_2 H 0.4590 0.8297 0.7010
H25_2 H 0.5551 0.8665 0.7278
H26_2 H 0.4623 0.9074 0.7026
C21_3 C 0.5061(4) 0.6389(2) 0.4758(3)
H27_3 H 0.4573 0.6185 0.4872
C22_3 C 0.6684(5) 0.6349(3) 0.4930(6)
H28_2 H 0.7139 0.6511 0.5508
H29_3 H 0.6955 0.5999 0.4693
H30_3 H 0.6495 0.6704 0.4483
C23_2 C 0.6034(5) 0.5526(3) 0.5657(5)
H31_2 H 0.6244 0.5170 0.5372
H32_2 H 0.6501 0.5618 0.6265
H33_2 H 0.5460 0.5400 0.5720
C24_3 C 0.2600(4) 0.6878(2) 0.1887(4)
H34_3 H 0.2155 0.7191 0.1883
C25_3 C 0.3234(4) 0.6171(3) 0.1067(4)
H35_3 H 0.2981 0.5730 0.0941
H36_3 H 0.3445 0.6304 0.0581
H37_3 H 0.3752 0.6177 0.1658
C26_3 C 0.1789(4) 0.6791(3) 0.0255(4)
H38_3 H 0.1384 0.7104 0.0384
N8_3 N 0.7032(3) 0.78153(17) 0.9224(3)
N9_3 N 0.4192(3) 0.97899(15) 0.8377(3)
N12_3 N 0.3291(3) 0.97585(16) 0.9175(3)
N13_3 N 0.2959(3) 0.68499(17) 0.8743(3)
N16_3 N 0.3880(3) 0.68172(17) 0.7971(3)
C4_3 C 0.5869(3) 0.81592(19) 0.9869(3)
C5_3 C 0.5409(3) 0.88050(17) 0.9447(3)
H3_3 H 0.5772 0.9172 0.9811
H4_3 H 0.5394 0.8844 0.8815
C6_3 C 0.4416(2) 0.88403(14) 0.9427(2)
C7_3 C 0.3857(2) 0.82707(14) 0.8854(2)
H5_3 H 0.3224 0.8286 0.8842
H6_3 H 0.3825 0.8309 0.8215
C8_3 C 0.4308(2) 0.76175(14) 0.9267(2)
C10_3 C 0.5296(3) 0.75966(18) 0.9286(3)
H9_3 H 0.5281 0.7630 0.8653
H10_3 H 0.5585 0.7177 0.9546
C12_3 C 0.6832(3) 0.81424(19) 0.9848(3)
C13_3 C 0.3974(2) 0.94657(15) 0.9005(2)
C14_3 C 0.3731(3) 0.70841(15) 0.8679(3)
H39_3 H 0.2041 0.6985 0.9832
H40_3 H 0.1440 0.6400 0.9976
O1_4 O 0.2420(2) 0.30328(15) 0.2070(2)
O2_4 O 0.0773(2) 0.31882(16) 0.0420(2)
O3_4 O 0.0108(3) 0.18932(17) 0.0682(3)
O4_4 O 0.1793(2) 0.17415(16) 0.2366(2)
N3_4 N 0.0505(3) 0.28563(16) 0.2120(3)
N4_4 N 0.0714(3) 0.27351(16) 0.3016(3)
N9_4 N 0.0808(3) 0.47899(15) 0.6623(3)
N12_4 N 0.1709(3) 0.47585(16) 0.5825(3)
N13_4 N 0.2041(3) 0.18499(17) 0.6257(3)
N16_4 N 0.1120(3) 0.18172(17) 0.7029(3)
N17_4 N 0.3635(3) 0.3602(2) 0.2001(3)
N20_4 N 0.2474(3) 0.1619(2) 0.3905(3)
C1_4 C 0.0100(3) 0.30858(19) 0.3222(3)
C2_4 C 0.0101(3) 0.31296(19) 0.4168(3)
C6_4 C 0.0584(2) 0.38403(14) 0.5573(2)
C7_4 C 0.1143(2) 0.32707(14) 0.6146(2)
H5_4 H 0.1776 0.3286 0.6158
H6_4 H 0.1175 0.3309 0.6785
C8_4 C 0.0692(2) 0.26175(14) 0.5733(2)
C9_4 C 0.0660(3) 0.25639(19) 0.4751(3)
H7_4 H 0.1291 0.2574 0.4757
H8_4 H 0.0375 0.2146 0.4479
C11_4 C 0.0555(3) 0.37787(18) 0.4597(3)
H11_4 H 0.0202 0.4146 0.4222
H12_4 H 0.1186 0.3798 0.4604
C13_4 C 0.1026(2) 0.44657(15) 0.5995(2)
C14_4 C 0.1269(3) 0.20841(15) 0.6321(3)
C15_4 C 0.2759(4) 0.3446(2) 0.1689(3)
H13_4 H 0.2359 0.3654 0.1147
C16_4 C 0.4288(4) 0.3284(3) 0.2790(4)
H14_4 H 0.4411 0.2847 0.2621
H15_4 H 0.4859 0.3535 0.3015
H16_4 H 0.4038 0.3255 0.3273
C17_4 C 0.3980(4) 0.4078(3) 0.1525(4)
H17_4 H 0.3464 0.4276 0.1027
H18_4 H 0.4321 0.4417 0.1957
H19_4 H 0.4388 0.3863 0.1271
H21_4 H 0.0008 0.4189 0.0053
H27_4 H 0.0427 0.1185 0.0128
C24_4 C 0.2400(4) 0.1878(2) 0.3113(4)
H34_4 H 0.2845 0.2191 0.3117
C25_4 C 0.1766(4) 0.1171(3) 0.3933(4)
H35_4 H 0.2019 0.0730 0.4059
H36_4 H 0.1555 0.1304 0.4419
H37_4 H 0.1248 0.1177 0.3342
C26_4 C 0.3211(4) 0.1791(3) 0.4745(4)
H38_4 H 0.3616 0.2104 0.4616
H39_4 H 0.2959 0.1985 0.5168
H40_4 H 0.3560 0.1400 0.5024
Cl1_4 Cl 0.83995(10) 0.47283(5) 0.09744(9)
Cl2_4 Cl 0.58897(9) 0.47494(5) 0.35109(10)
N1_4 N 0.9555(3) 0.34236(17) 0.2488(2)
N2_4 N 0.9827(3) 0.32612(18) 0.1797(3)
N5_4 N 0.7432(2) 0.34743(16) 0.4604(2)
N6_4 N 0.6734(3) 0.33391(18) 0.4889(3)
N8_4 N 0.7968(3) 0.28153(17) 0.5776(3)
C3_4 C 0.9109(2) 0.31021(15) 0.4156(2)
H1_4 H 0.8816 0.2687 0.3882
H2_4 H 0.8741 0.3462 0.3777
C4_4 C 0.9131(3) 0.31592(19) 0.5131(3)
C5_4 C 0.9591(3) 0.38050(17) 0.5553(3)
H3_4 H 0.9228 0.4172 0.5189
H4_4 H 0.9606 0.3844 0.6185
C10_4 C 0.9704(3) 0.25966(18) 0.5714(3)
H9_4 H 0.9719 0.2630 0.6347
H10_4 H 0.9415 0.2177 0.5454
C12_4 C 0.8168(3) 0.31424(19) 0.5152(3)
C21_4 C 0.9939(4) 0.1389(2) 0.0242(3)
C22_4 C 0.8316(5) 0.1349(3) 0.0070(6)
H29_4 H 0.8045 0.0999 0.0307
H30_4 H 0.8505 0.1704 0.0517
N19_3 N 0.0882(3) 0.8899(2) 0.0089(3)
C19_3 C 0.0121(5) 0.5753(3) 0.0601(4)
H23_3 H 0.0784 0.5707 0.0936
H25_3 H 0.0551 0.6335 0.2278
H28_3 H 0.2139 0.8489 0.0508
C23_3 C 0.1034(5) 0.9474(3) 0.0657(5)
H31_3 H 0.1244 0.9830 0.0372
H32_3 H 0.1501 0.9382 0.1265
H33_3 H 0.0460 0.9600 0.0720
N18_3 N 0.9791(3) 0.63155(19) 0.0946(3)
C18_3 C 0.9358(3) 0.6792(2) 0.0398(3)
H20_3 H 0.9134 0.7141 0.0651
H22_3 H 0.9809 0.5362 0.0689
C20_3 C 0.9897(5) 0.6320(3) 0.1890(4)
H24_3 H 0.9590 0.6703 0.2010
H26_3 H 0.9623 0.5926 0.2026
N18_4 N 0.0209(3) 0.36845(19) 0.9054(3)
C18_4 C 0.0642(3) 0.3208(2) 0.9602(3)
H20_4 H 0.0866 0.2859 0.9349
H22_4 H 0.0191 0.4638 0.9311
C20_4 C 0.0103(5) 0.3680(3) 0.8110(4)
H24_4 H 0.0410 0.3297 0.7990
H26_4 H 0.0377 0.4074 0.7974
N19_4 N 0.9118(3) 0.1101(2) 0.9911(3)
C19_4 C 0.9879(5) 0.4247(3) 0.9399(4)
H23_4 H 0.9216 0.4293 0.9064
H25_4 H 0.9449 0.3665 0.7722
H28_4 H 0.7861 0.1511 0.9492
C23_4 C 0.8966(5) 0.0526(3) 0.9343(5)
H31_4 H 0.8756 0.0170 0.9628
H32_4 H 0.8499 0.0618 0.8735
H33_4 H 0.9540 0.0400 0.9280
loop_
_geom_bond_atom_site_label_1
_geom_bond_atom_site_label_2
_geom_bond_site_symmetry_1
_geom_bond_site_symmetry_2
N8 N7 1_555 1_555
N12 C13 1_555 1_555
N13 N14 1_555 1_555
N14 N15 1_555 1_555
N15 N16 1_555 1_555
N16 C14 1_555 1_555
C5 C4 1_555 1_555
H3 C5 1_555 1_555
H4 C5 1_555 1_555
C6 C5 1_555 1_555
C7 C6 1_555 1_555
H5 C7 1_555 1_555
H6 C7 1_555 1_555
C8 C7 1_555 1_555
C10 C4 1_555 1_555
H9 C10 1_555 1_555
H10 C10 1_555 1_555
C13 N9 1_555 1_555
C14 N13 1_555 1_555
Zn5 N14 1_555 1_555
Zn7 N15 1_555 1_555
Zn8 N7 1_555 1_555
N8 C12 1_555 1_555
C4 C12 1_555 1_555
C6 C13 1_555 1_555
C8 C10 1_555 1_555
C8 C14 1_555 1_555
Zn1 Cl1 1_555 1_555
Zn2 Cl2 1_555 1_555
Zn3 O1 1_555 1_555
O1 C15 1_555 1_555
O2 Zn3 1_555 1_555
O3 Zn3 1_555 1_555
O4 Zn3 1_555 1_555
N1 Zn1 1_555 1_555
N2 N1 1_555 1_555
N3 Zn3 1_555 1_555
N4 N3 1_555 1_555
N5 Zn2 1_555 1_555
N6 N5 1_555 1_555
N17 C15 1_555 1_555
N18 C18 1_555 1_555
N19 C21 1_555 1_555
N20 C24 1_555 1_555
C1 N1 1_555 1_555
C2 C1 1_555 1_555
C3 C2 1_555 1_555
H1 C3 1_555 1_555
H2 C3 1_555 1_555
C9 C2 1_555 1_555
H7 C9 1_555 1_555
H8 C9 1_555 1_555
C11 C2 1_555 1_555
H11 C11 1_555 1_555
H12 C11 1_555 1_555
C15 H13 1_555 1_555
C16 N17 1_555 1_555
H14 C16 1_555 1_555
H15 C16 1_555 1_555
H16 C16 1_555 1_555
C17 N17 1_555 1_555
H17 C17 1_555 1_555
H18 C17 1_555 1_555
H19 C17 1_555 1_555
C18 O2 1_555 1_555
H20 C18 1_555 1_555
C19 N18 1_555 1_555
H21 C19 1_555 1_555
H22 C19 1_555 1_555
H23 C19 1_555 1_555
C20 N18 1_555 1_555
H24 C20 1_555 1_555
H25 C20 1_555 1_555
H26 C20 1_555 1_555
C21 O3 1_555 1_555
H27 C21 1_555 1_555
C22 N19 1_555 1_555
H28 C22 1_555 1_555
H29 C22 1_555 1_555
H30 C22 1_555 1_555
C23 N19 1_555 1_555
H31 C23 1_555 1_555
H32 C23 1_555 1_555
H33 C23 1_555 1_555
C24 O4 1_555 1_555
H34 C24 1_555 1_555
C25 N20 1_555 1_555
H35 C25 1_555 1_555
H36 C25 1_555 1_555
H37 C25 1_555 1_555
C26 N20 1_555 1_555
H38 C26 1_555 1_555
N21 Zn3 1_555 1_555
N22 Zn1 1_555 1_555
N23 Zn2 1_555 1_555
N24 Zn1 1_555 1_555
N25 Zn2 1_555 1_555
N2 N3 1_555 1_555
N4 C1 1_555 1_555
N22 N23 1_555 1_555
N24 N25 1_555 1_555
N10 N11 1_555 1_555
Zn4 N10 1_555 1_555
Zn6 N11 1_555 1_555
Zn1_2 Cl1_2 1_555 1_555
Zn2_2 Cl2_2 1_555 1_555
N1_2 Zn1_2 1_555 1_555
N2_2 N1_2 1_555 1_555
N5_2 Zn2_2 1_555 1_555
N6_2 N5_2 1_555 1_555
N7_2 N6_2 1_555 1_555
N8_2 N7_2 1_555 1_555
H1_2 C3_2 1_555 1_555
H2_2 C3_2 1_555 1_555
C4_2 C3_2 1_555 1_555
C5_2 C4_2 1_555 1_555
H3_2 C5_2 1_555 1_555
H4_2 C5_2 1_555 1_555
C10_2 C4_2 1_555 1_555
H9_2 C10_2 1_555 1_555
H10_2 C10_2 1_555 1_555
C12_2 N5_2 1_555 1_555
H29_2 C22_2 1_555 1_555
H30_2 C22_2 1_555 1_555
Zn8_2 N7_2 1_555 1_555
N22_2 Zn1_2 1_555 1_555
N23_2 Zn2_2 1_555 1_555
N24_2 Zn1_2 1_555 1_555
N25_2 Zn2_2 1_555 1_555
N8_2 C12_2 1_555 1_555
C4_2 C12_2 1_555 1_555
N22_2 N23_2 1_555 1_555
N24_2 N25_2 1_555 1_555
Zn3_2 O1_2 1_555 1_555
O1_2 C15_2 1_555 1_555
O2_2 Zn3_2 1_555 1_555
O3_2 Zn3_2 1_555 1_555
O4_2 Zn3_2 1_555 1_555
N3_2 Zn3_2 1_555 1_555
N4_2 N3_2 1_555 1_555
N9_2 N10_2 1_555 1_555
N10_2 N11_2 1_555 1_555
N11_2 N12_2 1_555 1_555
N12_2 C13_2 1_555 1_555
N13_2 N14_2 1_555 1_555
N14_2 N15_2 1_555 1_555
N15_2 N16_2 1_555 1_555
N16_2 C14_2 1_555 1_555
N17_2 C15_2 1_555 1_555
N20_2 C24_2 1_555 1_555
C2_2 C1_2 1_555 1_555
C7_2 C6_2 1_555 1_555
H5_2 C7_2 1_555 1_555
H6_2 C7_2 1_555 1_555
C8_2 C7_2 1_555 1_555
C9_2 C2_2 1_555 1_555
H7_2 C9_2 1_555 1_555
H8_2 C9_2 1_555 1_555
C11_2 C2_2 1_555 1_555
H11_2 C11_2 1_555 1_555
H12_2 C11_2 1_555 1_555
C13_2 N9_2 1_555 1_555
C14_2 N13_2 1_555 1_555
C15_2 H13_2 1_555 1_555
C16_2 N17_2 1_555 1_555
H14_2 C16_2 1_555 1_555
H15_2 C16_2 1_555 1_555
H16_2 C16_2 1_555 1_555
C17_2 N17_2 1_555 1_555
H17_2 C17_2 1_555 1_555
H18_2 C17_2 1_555 1_555
H19_2 C17_2 1_555 1_555
C24_2 O4_2 1_555 1_555
H34_2 C24_2 1_555 1_555
C25_2 N20_2 1_555 1_555
H35_2 C25_2 1_555 1_555
H36_2 C25_2 1_555 1_555
H37_2 C25_2 1_555 1_555
C26_2 N20_2 1_555 1_555
H38_2 C26_2 1_555 1_555
H39_2 C26_2 1_555 1_555
H40_2 C26_2 1_555 1_555
Zn5 N10_2 1_555 1_555
Zn4 N14_2 1_555 1_555
Zn7 N11_2 1_555 1_555
Zn6 N15_2 1_555 1_555
N21_2 Zn3_2 1_555 1_555
N4_2 C1_2 1_555 1_555
C6_2 C11_2 1_555 1_555
C6_2 C13_2 1_555 1_555
C8_2 C9_2 1_555 1_555
C8_2 C14_2 1_555 1_555
Zn4 Cl1_3 1_555 1_555
Zn6 Cl2_3 1_555 1_555
Zn8_2 O1_3 1_555 1_555
O1_3 C15_3 1_555 1_555
O2_3 Zn8_2 1_555 1_555
O3_3 Zn8_2 1_555 1_555
O4_3 Zn8_2 1_555 1_555
N1_3 Zn4 1_555 1_555
N2_3 N1_3 1_555 1_555
N3_3 Zn8_2 1_555 1_555
N4_3 N3_3 1_555 1_555
N5_3 Zn6 1_555 1_555
N6_3 N5_3 1_555 1_555
N17_3 C15_3 1_555 1_555
N18_2 C18_2 1_555 1_555
N19_2 C21_3 1_555 1_555
N20_3 C24_3 1_555 1_555
C1_3 N1_3 1_555 1_555
C2_3 C1_3 1_555 1_555
C3_3 C2_3 1_555 1_555
H1_3 C3_3 1_555 1_555
H2_3 C3_3 1_555 1_555
C9_3 C2_3 1_555 1_555
H7_3 C9_3 1_555 1_555
H8_3 C9_3 1_555 1_555
C11_3 C2_3 1_555 1_555
H11_3 C11_3 1_555 1_555
H12_3 C11_3 1_555 1_555
C15_3 H13_3 1_555 1_555
C16_3 N17_3 1_555 1_555
H14_3 C16_3 1_555 1_555
H15_3 C16_3 1_555 1_555
H16_3 C16_3 1_555 1_555
C17_3 N17_3 1_555 1_555
H17_3 C17_3 1_555 1_555
H18_3 C17_3 1_555 1_555
H19_3 C17_3 1_555 1_555
C18_2 O2_3 1_555 1_555
H20_2 C18_2 1_555 1_555
C19_2 N18_2 1_555 1_555
H21_3 C19_2 1_555 1_555
H22_2 C19_2 1_555 1_555
H23_2 C19_2 1_555 1_555
C20_2 N18_2 1_555 1_555
H24_2 C20_2 1_555 1_555
H25_2 C20_2 1_555 1_555
H26_2 C20_2 1_555 1_555
C21_3 O3_3 1_555 1_555
H27_3 C21_3 1_555 1_555
C22_3 N19_2 1_555 1_555
H28_2 C22_3 1_555 1_555
H29_3 C22_3 1_555 1_555
H30_3 C22_3 1_555 1_555
C23_2 N19_2 1_555 1_555
H31_2 C23_2 1_555 1_555
H32_2 C23_2 1_555 1_555
H33_2 C23_2 1_555 1_555
C24_3 O4_3 1_555 1_555
H34_3 C24_3 1_555 1_555
C25_3 N20_3 1_555 1_555
H35_3 C25_3 1_555 1_555
H36_3 C25_3 1_555 1_555
H37_3 C25_3 1_555 1_555
C26_3 N20_3 1_555 1_555
H38_3 C26_3 1_555 1_555
N2_3 N3_3 1_555 1_555
N4_3 C1_3 1_555 1_555
N8_3 N21_2 1_555 1_555
N12_3 C13_3 1_555 1_555
N13_3 N24_2 1_555 1_555
N25_2 N16_3 1_555 1_555
N16_3 C14_3 1_555 1_555
C5_3 C4_3 1_555 1_555
H3_3 C5_3 1_555 1_555
H4_3 C5_3 1_555 1_555
C6_3 C5_3 1_555 1_555
C7_3 C6_3 1_555 1_555
H5_3 C7_3 1_555 1_555
H6_3 C7_3 1_555 1_555
C8_3 C7_3 1_555 1_555
C10_3 C4_3 1_555 1_555
H9_3 C10_3 1_555 1_555
H10_3 C10_3 1_555 1_555
C13_3 N9_3 1_555 1_555
C14_3 N13_3 1_555 1_555
N8_3 C12_3 1_555 1_555
C4_3 C12_3 1_555 1_555
C6_3 C13_3 1_555 1_555
C8_3 C10_3 1_555 1_555
C8_3 C14_3 1_555 1_555
Zn8 O1_4 1_555 1_555
O1_4 C15_4 1_555 1_555
O2_4 Zn8 1_555 1_555
O3_4 Zn8 1_555 1_555
O4_4 Zn8 1_555 1_555
N3_4 Zn8 1_555 1_555
N4_4 N3_4 1_555 1_555
N9_4 N22_2 1_555 1_555
N23_2 N12_4 1_555 1_555
N12_4 C13_4 1_555 1_555
N13_4 N24 1_555 1_555
N25 N16_4 1_555 1_555
N16_4 C14_4 1_555 1_555
N17_4 C15_4 1_555 1_555
N20_4 C24_4 1_555 1_555
C2_4 C1_4 1_555 1_555
C7_4 C6_4 1_555 1_555
H5_4 C7_4 1_555 1_555
H6_4 C7_4 1_555 1_555
C8_4 C7_4 1_555 1_555
C9_4 C2_4 1_555 1_555
H7_4 C9_4 1_555 1_555
H8_4 C9_4 1_555 1_555
C11_4 C2_4 1_555 1_555
H11_4 C11_4 1_555 1_555
H12_4 C11_4 1_555 1_555
C13_4 N9_4 1_555 1_555
C14_4 N13_4 1_555 1_555
C15_4 H13_4 1_555 1_555
C16_4 N17_4 1_555 1_555
H14_4 C16_4 1_555 1_555
H15_4 C16_4 1_555 1_555
H16_4 C16_4 1_555 1_555
C17_4 N17_4 1_555 1_555
H17_4 C17_4 1_555 1_555
H18_4 C17_4 1_555 1_555
H19_4 C17_4 1_555 1_555
C24_4 O4_4 1_555 1_555
H34_4 C24_4 1_555 1_555
C25_4 N20_4 1_555 1_555
H35_4 C25_4 1_555 1_555
H36_4 C25_4 1_555 1_555
H37_4 C25_4 1_555 1_555
C26_4 N20_4 1_555 1_555
H38_4 C26_4 1_555 1_555
H39_4 C26_4 1_555 1_555
H40_4 C26_4 1_555 1_555
N4_4 C1_4 1_555 1_555
C6_4 C11_4 1_555 1_555
C6_4 C13_4 1_555 1_555
C8_4 C9_4 1_555 1_555
C8_4 C14_4 1_555 1_555
Zn5 Cl1_4 1_555 1_555
Zn7 Cl2_4 1_555 1_555
N1_4 Zn5 1_555 1_555
N2_4 N1_4 1_555 1_555
N5_4 Zn7 1_555 1_555
N6_4 N5_4 1_555 1_555
N21 N6_4 1_555 1_555
N8_4 N21 1_555 1_555
H1_4 C3_4 1_555 1_555
H2_4 C3_4 1_555 1_555
C4_4 C3_4 1_555 1_555
C5_4 C4_4 1_555 1_555
H3_4 C5_4 1_555 1_555
H4_4 C5_4 1_555 1_555
C10_4 C4_4 1_555 1_555
H9_4 C10_4 1_555 1_555
H10_4 C10_4 1_555 1_555
C12_4 N5_4 1_555 1_555
H29_4 C22_4 1_555 1_555
H30_4 C22_4 1_555 1_555
N8_4 C12_4 1_555 1_555
C4_4 C12_4 1_555 1_555
H23_3 C19_3 1_555 1_555
C23_3 N19_3 1_555 1_555
H31_3 C23_3 1_555 1_555
H32_3 C23_3 1_555 1_555
H33_3 C23_3 1_555 1_555
N18_3 C18_3 1_555 1_555
H20_3 C18_3 1_555 1_555
C20_3 N18_3 1_555 1_555
H24_3 C20_3 1_555 1_555
H26_3 C20_3 1_555 1_555
N18_4 C18_4 1_555 1_555
H20_4 C18_4 1_555 1_555
C20_4 N18_4 1_555 1_555
H24_4 C20_4 1_555 1_555
H26_4 C20_4 1_555 1_555
H23_4 C19_4 1_555 1_555
C23_4 N19_4 1_555 1_555
H31_4 C23_4 1_555 1_555
H32_4 C23_4 1_555 1_555
H33_4 C23_4 1_555 1_555

#END
