
###############################################################################
#
# This file contains modified crystal structure data generated from the
# MOF subset of the Cambridge Structural Database (CSD) v543 
# hosted by the Cambridge Crystallographic Data Centre (CCDC).
#
# This work is licensed under the Creative Commons
# Attribution-NonCommercial-ShareAlike 4.0 International License.
# To view a copy of this license, visit
# http://creativecommons.org/licenses/by-nc-sa/4.0/
# or send a letter to
# Creative Commons, PO Box 1866, Mountain View, CA 94042, USA.
#
# CIF created using the CSD Python API on 29 September 2022
# The structure has been converted into the P1 space group
# The structure has a 3D framework
# The original CSD entry GOQSIQ is in the orthorhombic crystal system
# The original CSD entry GOQSIQ is in a Sohncke space group
# The framework has been calculated to contain at least 10.0% void space
# The void calculation uses a probe of radius 1.32A, grid spacing 0.4
#
###############################################################################

data_GOQSIQ
_chemical_formula_moiety         '(C240 H240 N160 Zn40)n'
_symmetry_cell_setting           triclinic
_symmetry_space_group_name_H-M   'P 1'
_symmetry_Int_Tables_number      1
_space_group_name_Hall           'P 1'
loop_
_symmetry_equiv_pos_site_id
_symmetry_equiv_pos_as_xyz
1 x,y,z
_cell_length_a                   9.5161(2)
_cell_length_b                   30.1575(5)
_cell_length_c                   45.9367(8)
_cell_angle_alpha                90
_cell_angle_beta                 90
_cell_angle_gamma                90
_cell_volume                     13183
loop_
_atom_site_label
_atom_site_type_symbol
_atom_site_fract_x
_atom_site_fract_y
_atom_site_fract_z
Zn3 Zn 0.08599(8) 0.14231(2) 0.024756(17)
C2 C 0.5954(12) 0.0334(4) 0.0749(2)
H2 H 0.6218 0.0539 0.0602
C3 C 0.4860(12) 0.0381(3) 0.0934(2)
H3 H 0.4274 0.0636 0.0947
C8 C 0.1054(11) 0.0427(3) 0.0127(2)
C9 C 0.0427(10) 0.0047(3) 0.0220(2)
N1 N 0.4731(6) 0.00114(19) 0.10947(13)
N6 N 0.0493(6) 0.07738(18) 0.02744(13)
N42 N 0.2796(6) 0.15456(19) 0.04004(12)
N45 N 0.2778(6) 0.05946(18) 0.14997(13)
Zn4 Zn 0.08772(8) 0.26259(2) 0.924811(16)
H8 H 0.1767 0.0447 0.9983
C10 C 0.0903(8) 0.2015(2) 0.97411(15)
H10 H 0.1245 0.2248 0.9861
C11 C 0.0240(8) 0.1649(2) 0.93647(16)
H11 H 0.0011 0.1567 0.9171
C12 C 0.0197(9) 0.1378(2) 0.96018(17)
H15 H 0.0682 0.3677 0.9321
C16 C 0.3419(7) 0.3034(2) 0.95261(15)
H16 H 0.3095 0.2962 0.9716
C17 C 0.4659(8) 0.3298(3) 0.91820(16)
H17 H 0.5382 0.3445 0.9077
C18 C 0.3554(9) 0.3078(3) 0.90621(16)
H18 H 0.3361 0.3051 0.8860
C20 C 0.0149(8) 0.2399(2) 0.83634(15)
H20 H 0.0205 0.2241 0.8185
C21 C 0.0729(8) 0.2271(2) 0.86227(16)
H21 H 0.1275 0.2012 0.8654
C23 C 0.1185(8) 0.3255(3) 0.78137(16)
H23 H 0.1717 0.3163 0.7978
C24 C 0.1704(8) 0.3361(3) 0.75553(18)
H24 H 0.2671 0.3350 0.7505
N7 N 0.0602(6) 0.16076(17) 0.98400(12)
N8 N 0.0670(6) 0.20577(17) 0.94544(12)
N11 N 0.2769(6) 0.29035(19) 0.92843(12)
N12 N 0.4560(6) 0.32741(19) 0.94762(12)
N13 N 0.0395(5) 0.25763(18) 0.88266(12)
N16 N 0.0648(6) 0.34879(17) 0.73716(12)
Zn16 Zn 0.58599(8) 0.35769(2) 0.975244(17)
Zn18 Zn 0.07208(8) 0.36846(2) 0.695980(16)
Zn1 Zn 0.33586(8) 0.99645(2) 0.142042(17)
C1 C 0.5850(8) 0.9784(3) 0.10203(15)
H1 H 0.6090 0.9516 0.1117
C4 C 0.0973(8) 0.9771(2) 0.10444(16)
H4 H 0.1361 0.9969 0.0905
C6 C 0.0695(8) 0.9386(2) 0.14267(18)
H6 H 0.0833 0.9254 0.1612
H9 H 0.0619 0.9758 0.0148
N2 N 0.6621(7) 0.99408(19) 0.08088(14)
N3 N 0.1627(6) 0.96648(18) 0.12901(13)
Zn13 Zn 0.84489(9) 0.97074(2) 0.067229(18)
N48 N 0.4382(6) 0.97301(18) 0.17655(13)
C7 C 0.9576(7) 0.0589(2) 0.04579(16)
H7 H 0.9033 0.0753 0.0594
N5 N 0.9501(6) 0.01429(19) 0.04294(13)
N43 N 0.9560(6) 0.17259(19) 0.05238(12)
Zn5 Zn 0.84202(8) 0.31689(2) 0.812509(16)
Zn6 Zn 0.49646(8) 0.17173(2) 0.763214(18)
H12 H 0.9925 0.1075 0.9600
C13 C 0.8328(7) 0.3060(2) 0.95366(14)
H13 H 0.7861 0.2787 0.9572
C14 C 0.8731(7) 0.3756(2) 0.95150(15)
H14 H 0.8628 0.4069 0.9532
C15 C 0.9865(8) 0.3540(2) 0.93993(16)
C19 C 0.9659(7) 0.2882(2) 0.86892(15)
H19 H 0.9299 0.3139 0.8782
C22 C 0.9513(7) 0.3450(2) 0.75406(15)
H22 H 0.8597 0.3526 0.7475
C25 C 0.8315(7) 0.4123(2) 0.83128(15)
H25 H 0.9012 0.4206 0.8175
C26 C 0.6824(10) 0.4154(3) 0.8656(2)
H26 H 0.6256 0.4256 0.8813
C27 C 0.6842(10) 0.3738(3) 0.85453(19)
H27 H 0.6263 0.3501 0.8609
C28 C 0.6705(7) 0.2434(2) 0.78879(16)
H28 H 0.7516 0.2251 0.7876
C29 C 0.5386(8) 0.2986(3) 0.7971(2)
H29 H 0.5046 0.3267 0.8031
C30 C 0.4577(7) 0.2649(2) 0.7862(2)
H30 H 0.3595 0.2662 0.7826
C31 C 0.2475(7) 0.1146(2) 0.76232(15)
H31 H 0.2819 0.1008 0.7451
C32 C 0.1177(8) 0.1311(3) 0.79892(19)
H32 H 0.0427 0.1318 0.8126
C33 C 0.2284(8) 0.1585(3) 0.79841(18)
H33 H 0.2468 0.1812 0.8123
C34 C 0.5314(7) 0.2221(2) 0.70837(16)
H34 H 0.5337 0.2491 0.7190
C35 C 0.5287(9) 0.1757(2) 0.67321(17)
H35 H 0.5294 0.1630 0.6543
C36 C 0.5156(9) 0.1527(2) 0.69823(17)
H36 H 0.5059 0.1215 0.6999
C37 C 0.7494(7) 0.1133(2) 0.76410(18)
H37 H 0.7924 0.1303 0.7491
C38 C 0.6089(10) 0.0930(4) 0.7958(2)
H38 H 0.5311 0.0914 0.8087
C39 C 0.7174(9) 0.0640(4) 0.7954(2)
H39 H 0.7278 0.0387 0.8074
H42 H 0.1051 0.0209 0.8268
C43 C 0.1005(8) 0.0311(3) 0.70426(16)
H43 H 0.1933 0.0251 0.7108
N9 N 0.9622(5) 0.30956(18) 0.94158(12)
N10 N 0.7796(6) 0.34544(19) 0.95996(12)
N14 N 0.9469(6) 0.27954(18) 0.84066(11)
N15 N 0.9764(5) 0.33004(17) 0.78053(11)
N17 N 0.7813(6) 0.37114(18) 0.83293(12)
N18 N 0.7778(6) 0.44054(18) 0.85003(13)
N19 N 0.6740(6) 0.28549(18) 0.79786(12)
N20 N 0.5423(5) 0.22954(19) 0.78157(13)
N21 N 0.3101(5) 0.14891(18) 0.77508(13)
N22 N 0.1317(6) 0.10166(18) 0.77614(13)
N23 N 0.5186(6) 0.18237(18) 0.72070(13)
N24 N 0.5409(6) 0.21976(19) 0.67904(13)
N25 N 0.6271(5) 0.12411(19) 0.77541(13)
N26 N 0.8079(6) 0.07768(18) 0.77477(13)
N27 N 0.0220(6) 0.0002(2) 0.78837(13)
N30 N 0.0618(6) 0.02699(18) 0.67655(13)
Zn11 Zn 0.16414(8) 0.00355(2) 0.642042(17)
Zn12 Zn 0.83586(8) 0.50355(2) 0.857958(17)
Zn17 Zn 0.99855(8) 0.05440(2) 0.764644(18)
Zn20 Zn 0.57038(8) 0.27058(3) 0.652710(17)
C5 C 0.9540(8) 0.9330(3) 0.12547(19)
H5 H 0.8746 0.9151 0.1299
H55 H 0.1441 0.7659 0.0125
H59 H 0.2075 0.6421 0.0050
N4 N 0.9727(6) 0.95759(18) 0.10093(13)
N50 N 0.4637(9) 0.7344(3) 0.00458(15)
N51 N 0.8166(7) 0.9168(2) 0.04404(15)
Zn9 Zn 0.42962(8) 0.77058(3) 0.847290(17)
Zn10 Zn 0.34825(11) 0.71838(3) 0.97008(2)
C41 C 0.0419(13) 0.9556(3) 0.8259(2)
H41 H 0.0606 0.9454 0.8451
C42 C 0.0648(14) 0.9974(3) 0.8158(2)
C46 C 0.1813(7) 0.8207(3) 0.82583(16)
H46 H 0.2361 0.8321 0.8102
C47 C 0.0107(12) 0.8079(4) 0.8531(2)
C48 C 0.1247(9) 0.7850(4) 0.8630(2)
H48 H 0.1263 0.7662 0.8796
C52 C 0.4073(8) 0.7328(3) 0.90708(17)
H52 H 0.3374 0.7119 0.9015
C53 C 0.5503(11) 0.7719(3) 0.9329(2)
H53 H 0.6000 0.7844 0.9489
C54 C 0.5704(10) 0.7826(3) 0.90472(18)
H54 H 0.6368 0.8034 0.8975
C55 C 0.0930(13) 0.7595(4) 0.9952(2)
C56 C 0.0522(15) 0.7301(5) 0.9564(3)
H56 H 0.0592 0.7128 0.9392
C58 C 0.3484(10) 0.6232(3) 0.95020(19)
H58 H 0.3947 0.6304 0.9325
C59 C 0.2441(19) 0.6306(5) 0.9874(4)
C60 C 0.2263(19) 0.5872(5) 0.9786(3)
H60 H 0.1653 0.5654 0.9865
N31 N 0.0494(6) 0.83095(19) 0.82940(12)
N32 N 0.2331(6) 0.79322(19) 0.84552(13)
N35 N 0.4765(6) 0.7579(2) 0.88821(13)
N36 N 0.4465(7) 0.7399(2) 0.93515(13)
N37 N 0.1624(9) 0.7449(2) 0.97282(15)
N39 N 0.3169(8) 0.6542(2) 0.96878(15)
N40 N 0.3166(7) 0.5832(2) 0.95596(15)
Zn14 Zn 0.34489(9) 0.52926(2) 0.932771(18)
N46 N 0.4591(6) 0.71976(19) 0.82096(13)
N49 N 0.5475(6) 0.8214(2) 0.83506(13)
C44 C 0.9128(12) 0.0350(4) 0.6775(2)
H44 H 0.8485 0.0325 0.6617
C45 C 0.8817(13) 0.0472(5) 0.7058(3)
H45 H 0.7921 0.0561 0.7127
N29 N 0.9994(6) 0.04420(18) 0.72191(13)
Zn21 Zn 0.84825(11) 0.78162(3) 0.02992(2)
Zn8 Zn 0.92792(8) 0.86846(2) 0.804020(16)
C40 C 0.9770(7) 0.9595(2) 0.78291(15)
H40 H 0.9386 0.9516 0.7645
H47 H 0.9195 0.8076 0.8615
C49 C 0.6687(8) 0.8205(2) 0.81994(16)
H49 H 0.7034 0.7946 0.8107
C50 C 0.6515(8) 0.8870(3) 0.83504(17)
H50 H 0.6705 0.9175 0.8387
C51 C 0.5388(8) 0.8651(3) 0.84471(18)
H51 H 0.4653 0.8773 0.8562
C57 C 0.9305(16) 0.7443(5) 0.9690(3)
H57 H 0.8388 0.7406 0.9612
N28 N 0.9882(6) 0.93112(18) 0.80399(12)
N33 N 0.7354(6) 0.85931(19) 0.81919(13)
N38 N 0.9637(9) 0.7656(3) 0.99542(15)
N44 N 0.9352(6) 0.84879(17) 0.76284(12)
H51_2 H 0.0347 0.1227 0.3562
Zn19 Zn 0.07038(8) 0.22942(3) 0.347290(17)
Zn8_2 Zn 0.57208(8) 0.13154(2) 0.304020(16)
Zn10_2 Zn 0.15175(11) 0.28162(3) 0.47008(2)
C40_2 C 0.5230(7) 0.0405(2) 0.28291(15)
H40_2 H 0.5614 0.0484 0.2645
C41_2 C 0.4581(13) 0.0444(3) 0.3259(2)
H41_2 H 0.4394 0.0546 0.3451
C42_2 C 0.4352(14) 0.0026(3) 0.3158(2)
C46_2 C 0.3187(7) 0.1793(3) 0.32583(16)
H46_2 H 0.2639 0.1679 0.3102
C47_2 C 0.4893(12) 0.1921(4) 0.3531(2)
H47_2 H 0.5805 0.1924 0.3615
C48_2 C 0.3753(9) 0.2150(4) 0.3630(2)
H48_2 H 0.3737 0.2338 0.3796
C49_2 C 0.8313(8) 0.1795(2) 0.31994(16)
H49_2 H 0.7966 0.2054 0.3107
C50_2 C 0.8485(8) 0.1130(3) 0.33504(17)
H50_2 H 0.8295 0.0825 0.3387
C51_2 C 0.9612(8) 0.1349(3) 0.34471(18)
C52_2 C 0.0927(8) 0.2672(3) 0.40708(17)
H52_2 H 0.1626 0.2881 0.4015
C55_2 C 0.4070(13) 0.2405(4) 0.4952(2)
H55_2 H 0.3559 0.2341 0.5125
C56_2 C 0.4478(15) 0.2699(5) 0.4564(3)
H56_2 H 0.4408 0.2872 0.4392
C57_2 C 0.5695(16) 0.2557(5) 0.4690(3)
H57_2 H 0.6612 0.2594 0.4612
C58_2 C 0.1516(10) 0.3768(3) 0.45020(19)
H58_2 H 0.1053 0.3696 0.4325
C59_2 C 0.2559(19) 0.3694(5) 0.4874(4)
H59_2 H 0.2925 0.3579 0.5050
C60_2 C 0.2737(19) 0.4128(5) 0.4786(3)
H60_2 H 0.3347 0.4346 0.4865
N28_2 N 0.5118(6) 0.06888(18) 0.30399(12)
N31_2 N 0.4506(6) 0.16905(19) 0.32940(12)
N32_2 N 0.2669(6) 0.20678(19) 0.34552(13)
N33_2 N 0.7646(6) 0.14069(19) 0.31919(13)
N34 N 0.9525(6) 0.1786(2) 0.33506(13)
N35_2 N 0.0235(6) 0.2421(2) 0.38821(13)
N36_2 N 0.0535(7) 0.2601(2) 0.43515(13)
N37_2 N 0.3376(9) 0.2551(2) 0.47282(15)
N38_2 N 0.5363(9) 0.2344(3) 0.49542(15)
N39_2 N 0.1831(8) 0.3458(2) 0.46878(15)
N40_2 N 0.1834(7) 0.4168(2) 0.45596(15)
Zn14_2 Zn 0.15511(9) 0.47074(2) 0.432771(18)
Zn21_2 Zn 0.65175(11) 0.21838(3) 0.52992(2)
N44_2 N 0.5648(6) 0.15121(17) 0.26284(12)
N46_2 N 0.0409(6) 0.28024(19) 0.32096(13)
N50_2 N 0.0363(9) 0.2656(3) 0.50458(15)
Zn6_2 Zn 0.00354(8) 0.82827(2) 0.263214(18)
Zn7 Zn 0.50145(8) 0.94560(2) 0.264644(18)
C30_2 C 0.0423(7) 0.7351(2) 0.2862(2)
H30_2 H 0.1405 0.7338 0.2826
C31_2 C 0.2525(7) 0.8854(2) 0.26232(15)
H31_2 H 0.2181 0.8992 0.2451
C32_2 C 0.3823(8) 0.8689(3) 0.29892(19)
H32_2 H 0.4573 0.8682 0.3126
C33_2 C 0.2716(8) 0.8415(3) 0.29841(18)
H33_2 H 0.2532 0.8188 0.3123
H42_2 H 0.3949 0.9791 0.3268
C43_2 C 0.3995(8) 0.9689(3) 0.20426(16)
H43_2 H 0.3067 0.9749 0.2108
C44_2 C 0.5872(12) 0.9650(4) 0.1775(2)
H44_2 H 0.6515 0.9675 0.1617
C45_2 C 0.6183(13) 0.9528(5) 0.2058(3)
H45_2 H 0.7079 0.9439 0.2127
N21_2 N 0.1899(5) 0.85109(18) 0.27508(13)
N22_2 N 0.3683(6) 0.89834(18) 0.27614(13)
N27_2 N 0.4780(6) 0.9998(2) 0.28837(13)
N29_2 N 0.5006(6) 0.95580(18) 0.22191(13)
N47 N 0.6921(6) 0.92232(18) 0.27477(13)
Zn2 Zn 0.65511(9) 0.02926(2) 0.567229(18)
C4_2 C 0.4027(8) 0.0229(2) 0.60444(16)
H4_2 H 0.3639 0.0031 0.5905
C5_2 C 0.5460(8) 0.0670(3) 0.62547(19)
H5_2 H 0.6254 0.0849 0.6299
C6_2 C 0.4305(8) 0.0614(2) 0.64267(18)
H6_2 H 0.4167 0.0746 0.6612
H9_2 H 0.4381 0.0242 0.5148
C53_2 C 0.9497(11) 0.2281(3) 0.4329(2)
H53_2 H 0.9000 0.2156 0.4489
C54_2 C 0.9296(10) 0.2174(3) 0.40472(18)
H54_2 H 0.8632 0.1966 0.3975
N3_2 N 0.3373(6) 0.03352(18) 0.62901(13)
N4_2 N 0.5273(6) 0.04241(18) 0.60093(13)
N41 N 0.8379(7) 0.00592(19) 0.58088(14)
N51_2 N 0.6834(7) 0.0832(2) 0.54404(15)
Zn3_2 Zn 0.41401(8) 0.85769(2) 0.524756(17)
Zn4_2 Zn 0.41228(8) 0.73741(2) 0.424811(16)
Zn5_2 Zn 0.65798(8) 0.68311(2) 0.312509(16)
C3_2 C 0.0140(12) 0.9619(3) 0.5934(2)
H3_2 H 0.0726 0.9364 0.5947
C7_2 C 0.5424(7) 0.9411(2) 0.54579(16)
H7_2 H 0.5967 0.9247 0.5594
C8_2 C 0.3946(11) 0.9573(3) 0.5127(2)
H8_2 H 0.3233 0.9553 0.4983
C9_2 C 0.4573(10) 0.9953(3) 0.5220(2)
C10_2 C 0.4097(8) 0.7985(2) 0.47411(15)
H10_2 H 0.3755 0.7752 0.4861
C11_2 C 0.4760(8) 0.8351(2) 0.43647(16)
H11_2 H 0.4989 0.8433 0.4171
C12_2 C 0.4803(9) 0.8622(2) 0.46018(17)
H12_2 H 0.5075 0.8925 0.4600
C13_2 C 0.6672(7) 0.6940(2) 0.45366(14)
H13_2 H 0.7139 0.7213 0.4572
C14_2 C 0.6269(7) 0.6244(2) 0.45150(15)
H14_2 H 0.6372 0.5931 0.4532
C15_2 C 0.5135(8) 0.6460(2) 0.43993(16)
H15_2 H 0.4318 0.6323 0.4321
C16_2 C 0.1581(7) 0.6966(2) 0.45261(15)
H16_2 H 0.1905 0.7038 0.4716
C17_2 C 0.0341(8) 0.6702(3) 0.41820(16)
C18_2 C 0.1446(9) 0.6922(3) 0.40621(16)
H18_2 H 0.1639 0.6949 0.3860
C19_2 C 0.5341(7) 0.7118(2) 0.36892(15)
H19_2 H 0.5701 0.6861 0.3782
C20_2 C 0.4851(8) 0.7601(2) 0.33634(15)
H20_2 H 0.4795 0.7759 0.3185
C21_2 C 0.4271(8) 0.7729(2) 0.36227(16)
H21_2 H 0.3725 0.7988 0.3654
C22_2 C 0.5487(7) 0.6550(2) 0.25406(15)
H22_2 H 0.6403 0.6474 0.2475
C23_2 C 0.3815(8) 0.6745(3) 0.28137(16)
H23_2 H 0.3283 0.6837 0.2978
C24_2 C 0.3296(8) 0.6639(3) 0.25553(18)
H24_2 H 0.2329 0.6650 0.2505
C25_2 C 0.6685(7) 0.5877(2) 0.33128(15)
H25_2 H 0.5988 0.5794 0.3175
C26_2 C 0.8176(10) 0.5846(3) 0.3656(2)
H26_2 H 0.8744 0.5744 0.3813
C27_2 C 0.8158(10) 0.6262(3) 0.35453(19)
H27_2 H 0.8737 0.6499 0.3609
C28_2 C 0.8295(7) 0.7566(2) 0.28879(16)
H28_2 H 0.7484 0.7749 0.2876
C29_2 C 0.9614(8) 0.7014(3) 0.2971(2)
H29_2 H 0.9954 0.6733 0.3031
C34_2 C 0.9686(7) 0.7779(2) 0.20837(16)
H34_2 H 0.9663 0.7509 0.2190
C35_2 C 0.9713(9) 0.8243(2) 0.17321(17)
H35_2 H 0.9706 0.8370 0.1543
C36_2 C 0.9844(9) 0.8473(2) 0.19823(17)
H36_2 H 0.9941 0.8785 0.1999
C37_2 C 0.7506(7) 0.8867(2) 0.26410(18)
H37_2 H 0.7076 0.8697 0.2491
C38_2 C 0.8911(10) 0.9070(4) 0.2958(2)
H38_2 H 0.9689 0.9086 0.3087
C39_2 C 0.7826(9) 0.9360(4) 0.2954(2)
H39_2 H 0.7722 0.9613 0.3074
N1_2 N 0.0269(6) 0.99886(19) 0.60947(13)
N5_2 N 0.5499(6) 0.98571(19) 0.54294(13)
N6_2 N 0.4507(6) 0.92262(18) 0.52744(13)
N7_2 N 0.4398(6) 0.83924(17) 0.48400(12)
N8_2 N 0.4330(6) 0.79423(17) 0.44544(12)
N9_2 N 0.5378(5) 0.69044(18) 0.44158(12)
N10_2 N 0.7204(6) 0.65456(19) 0.45996(12)
N11_2 N 0.2231(6) 0.70965(19) 0.42843(12)
N12_2 N 0.0440(6) 0.67259(19) 0.44762(12)
N13_2 N 0.4605(5) 0.74237(18) 0.38266(12)
N14_2 N 0.5531(6) 0.72046(18) 0.34066(11)
N15_2 N 0.5236(5) 0.66996(17) 0.28053(11)
N16_2 N 0.4352(6) 0.65121(17) 0.23716(12)
N17_2 N 0.7187(6) 0.62886(18) 0.33293(12)
N18_2 N 0.7222(6) 0.55946(18) 0.35003(13)
N19_2 N 0.8260(6) 0.71451(18) 0.29786(12)
N20_2 N 0.9577(5) 0.77046(19) 0.28157(13)
N23_2 N 0.9814(6) 0.81763(18) 0.22070(13)
N24_2 N 0.9591(6) 0.78024(19) 0.17904(13)
N25_2 N 0.8729(5) 0.87589(19) 0.27541(13)
Zn12_2 Zn 0.66414(8) 0.49645(2) 0.357958(17)
Zn15 Zn 0.91401(8) 0.64231(2) 0.475244(17)
Zn18_2 Zn 0.42792(8) 0.63154(2) 0.195980(16)
Zn20_2 Zn 0.92962(8) 0.72942(3) 0.152710(17)
N42_2 N 0.2204(6) 0.84544(19) 0.54004(12)
N43_2 N 0.5440(6) 0.82741(19) 0.55238(12)
N45_2 N 0.2222(6) 0.94054(18) 0.64997(13)
C1_2 C 0.9150(8) 0.0216(3) 0.60203(15)
H1_2 H 0.8910 0.0484 0.6117
C2_2 C 0.9046(12) 0.9666(4) 0.5749(2)
H2_2 H 0.8782 0.9461 0.5602
H17_2 H 0.9618 0.6555 0.4077
Zn7_2 Zn 0.00145(8) 0.55440(2) 0.735356(18)
C40_3 C 0.0230(7) 0.4595(2) 0.71709(15)
H40_3 H 0.0614 0.4516 0.7355
C44_3 C 0.0872(12) 0.5350(4) 0.8225(2)
H44_3 H 0.1515 0.5325 0.8383
C45_3 C 0.1183(13) 0.5472(5) 0.7942(3)
H45_3 H 0.2079 0.5561 0.7873
H47_3 H 0.0805 0.3076 0.6385
C49_3 C 0.3313(8) 0.3205(2) 0.68006(16)
H49_3 H 0.2966 0.2946 0.6893
C50_3 C 0.3485(8) 0.3870(3) 0.66496(17)
H50_3 H 0.3295 0.4175 0.6613
C51_3 C 0.4612(8) 0.3651(3) 0.65529(18)
H51_3 H 0.5347 0.3773 0.6438
C57_3 C 0.0695(16) 0.2443(5) 0.5310(3)
H57_3 H 0.1612 0.2406 0.5388
N28_3 N 0.0118(6) 0.43112(18) 0.69601(12)
N29_3 N 0.0006(6) 0.54420(18) 0.77809(13)
N33_3 N 0.2646(6) 0.35931(19) 0.68081(13)
N34_2 N 0.4525(6) 0.3214(2) 0.66494(13)
N47_2 N 0.1921(6) 0.57768(18) 0.72523(13)
Zn5_3 Zn 0.15798(8) 0.81689(2) 0.687491(16)
Zn6_3 Zn 0.50354(8) 0.67173(2) 0.736786(18)
C5_3 C 0.0460(8) 0.4330(3) 0.37453(19)
H5_3 H 0.1254 0.4151 0.3701
C7_3 C 0.0424(7) 0.5589(2) 0.45421(16)
H7_3 H 0.0967 0.5753 0.4406
H12_3 H 0.0075 0.6075 0.5400
C13_3 C 0.1672(7) 0.8060(2) 0.54634(14)
H13_3 H 0.2139 0.7787 0.5428
C14_3 C 0.1269(7) 0.8756(2) 0.54850(15)
H14_3 H 0.1372 0.9069 0.5468
C15_3 C 0.0135(8) 0.8540(2) 0.56007(16)
C19_3 C 0.0341(7) 0.7882(2) 0.63108(15)
H19_3 H 0.0701 0.8139 0.6218
C22_3 C 0.0487(7) 0.8450(2) 0.74594(15)
H22_3 H 0.1403 0.8526 0.7525
C25_3 C 0.1685(7) 0.9123(2) 0.66872(15)
H25_3 H 0.0988 0.9206 0.6825
C26_3 C 0.3176(10) 0.9154(3) 0.6344(2)
H26_3 H 0.3744 0.9256 0.6187
C27_3 C 0.3158(10) 0.8738(3) 0.64547(19)
H27_3 H 0.3737 0.8501 0.6391
C28_3 C 0.3295(7) 0.7434(2) 0.71121(16)
H28_3 H 0.2484 0.7251 0.7124
C29_3 C 0.4614(8) 0.7986(3) 0.7029(2)
H29_3 H 0.4954 0.8267 0.6969
C30_3 C 0.5423(7) 0.7649(2) 0.7138(2)
H30_3 H 0.6405 0.7662 0.7174
C31_3 C 0.7525(7) 0.6146(2) 0.73768(15)
H31_3 H 0.7181 0.6008 0.7549
C32_3 C 0.8823(8) 0.6311(3) 0.70108(19)
H32_3 H 0.9573 0.6318 0.6874
C33_3 C 0.7716(8) 0.6585(3) 0.70159(18)
H33_3 H 0.7532 0.6812 0.6877
C34_3 C 0.4686(7) 0.7221(2) 0.79163(16)
H34_3 H 0.4663 0.7491 0.7810
C35_3 C 0.4713(9) 0.6757(2) 0.82679(17)
H35_3 H 0.4706 0.6630 0.8457
C36_3 C 0.4844(9) 0.6527(2) 0.80177(17)
H36_3 H 0.4941 0.6215 0.8001
C37_3 C 0.2506(7) 0.6133(2) 0.73590(18)
H37_3 H 0.2076 0.6303 0.7509
C38_3 C 0.3911(10) 0.5930(4) 0.7042(2)
H38_3 H 0.4689 0.5914 0.6913
C39_3 C 0.2826(9) 0.5640(4) 0.7046(2)
H39_3 H 0.2722 0.5387 0.6926
C41_3 C 0.9581(13) 0.4556(3) 0.6741(2)
H41_3 H 0.9394 0.4454 0.6549
C42_3 C 0.9352(14) 0.4974(3) 0.6842(2)
H42_3 H 0.8949 0.5209 0.6732
C43_3 C 0.8995(8) 0.5311(3) 0.79574(16)
H43_3 H 0.8067 0.5251 0.7892
C46_3 C 0.8187(7) 0.3207(3) 0.67417(16)
H46_3 H 0.7639 0.3321 0.6898
C47_3 C 0.9893(12) 0.3079(4) 0.6469(2)
C48_3 C 0.8753(9) 0.2850(4) 0.6370(2)
H48_3 H 0.8737 0.2662 0.6204
C52_3 C 0.5927(8) 0.2328(3) 0.59292(17)
H52_3 H 0.6626 0.2119 0.5985
C53_3 C 0.4497(11) 0.2719(3) 0.5671(2)
H53_3 H 0.4000 0.2844 0.5511
C54_3 C 0.4296(10) 0.2826(3) 0.59528(18)
H54_3 H 0.3632 0.3034 0.6025
C55_3 C 0.9070(13) 0.2595(4) 0.5048(2)
H55_3 H 0.8559 0.2659 0.4875
C56_3 C 0.9478(15) 0.2301(5) 0.5436(3)
H56_3 H 0.9408 0.2128 0.5608
C58_3 C 0.6516(10) 0.1232(3) 0.54980(19)
H58_3 H 0.6053 0.1304 0.5675
C59_3 C 0.7559(19) 0.1306(5) 0.5126(4)
H59_3 H 0.7925 0.1421 0.4950
C60_3 C 0.7737(19) 0.0872(5) 0.5214(3)
H60_3 H 0.8347 0.0654 0.5135
N4_3 N 0.0273(6) 0.45759(18) 0.39907(13)
N5_3 N 0.0499(6) 0.51429(19) 0.45706(13)
N9_3 N 0.0378(5) 0.80956(18) 0.55842(12)
N14_3 N 0.0531(6) 0.77954(18) 0.65934(11)
N15_3 N 0.0236(5) 0.83004(17) 0.71947(11)
N17_3 N 0.2187(6) 0.87114(18) 0.66707(12)
N19_3 N 0.3260(6) 0.78549(18) 0.70214(12)
N20_3 N 0.4577(5) 0.72954(19) 0.71843(13)
N21_3 N 0.6899(5) 0.64891(18) 0.72492(13)
N22_3 N 0.8683(6) 0.60166(18) 0.72386(13)
N23_3 N 0.4814(6) 0.68237(18) 0.77930(13)
N25_3 N 0.3729(5) 0.62411(19) 0.72459(13)
N27_3 N 0.9780(6) 0.5002(2) 0.71163(13)
N30_2 N 0.9382(6) 0.52699(18) 0.82345(13)
N31_3 N 0.9506(6) 0.33095(19) 0.67060(12)
N32_3 N 0.7669(6) 0.29322(19) 0.65448(13)
N35_3 N 0.5235(6) 0.2579(2) 0.61179(13)
N36_3 N 0.5535(7) 0.2399(2) 0.56485(13)
N37_3 N 0.8376(9) 0.2449(2) 0.52718(15)
N39_3 N 0.6831(8) 0.1542(2) 0.53122(15)
N41_2 N 0.3379(7) 0.49408(19) 0.41912(14)
Zn4_3 Zn 0.91228(8) 0.76259(2) 0.575189(16)
C1_3 C 0.4150(8) 0.4784(3) 0.39797(15)
H1_3 H 0.3910 0.4516 0.3883
C2_3 C 0.4046(12) 0.5334(4) 0.4251(2)
H2_3 H 0.3782 0.5539 0.4398
C3_3 C 0.5140(12) 0.5381(3) 0.4066(2)
H3_3 H 0.5726 0.5636 0.4053
C4_3 C 0.9027(8) 0.4771(2) 0.39556(16)
H4_3 H 0.8639 0.4969 0.4095
C6_3 C 0.9305(8) 0.4386(2) 0.35733(18)
H6_3 H 0.9167 0.4254 0.3388
C8_3 C 0.8946(11) 0.5427(3) 0.4873(2)
H8_3 H 0.8233 0.5447 0.5017
C9_3 C 0.9573(10) 0.5047(3) 0.4780(2)
H9_3 H 0.9381 0.4758 0.4852
C10_3 C 0.9097(8) 0.7015(2) 0.52589(15)
H10_3 H 0.8755 0.7248 0.5139
C11_3 C 0.9760(8) 0.6649(2) 0.56353(16)
H11_3 H 0.9989 0.6567 0.5829
C12_3 C 0.9803(9) 0.6378(2) 0.53982(17)
H15_3 H 0.9318 0.8677 0.5679
C16_3 C 0.6581(7) 0.8034(2) 0.54739(15)
H16_3 H 0.6905 0.7962 0.5284
C17_3 C 0.5341(8) 0.8298(3) 0.58180(16)
H17_3 H 0.4618 0.8445 0.5923
C18_3 C 0.6446(9) 0.8078(3) 0.59379(16)
H18_3 H 0.6639 0.8051 0.6140
C20_3 C 0.9851(8) 0.7399(2) 0.66366(15)
H20_3 H 0.9795 0.7241 0.6815
C21_3 C 0.9271(8) 0.7271(2) 0.63773(16)
H21_3 H 0.8725 0.7012 0.6346
C23_3 C 0.8815(8) 0.8255(3) 0.71863(16)
H23_3 H 0.8283 0.8163 0.7022
C24_3 C 0.8296(8) 0.8361(3) 0.74447(18)
H24_3 H 0.7329 0.8350 0.7495
N1_3 N 0.5269(6) 0.50114(19) 0.39053(13)
N3_3 N 0.8373(6) 0.46648(18) 0.37099(13)
N6_3 N 0.9507(6) 0.57738(18) 0.47256(13)
N7_3 N 0.9398(6) 0.66076(17) 0.51600(12)
N8_3 N 0.9330(6) 0.70577(17) 0.55456(12)
N11_3 N 0.7231(6) 0.79035(19) 0.57157(12)
N13_3 N 0.9605(5) 0.75763(18) 0.61734(12)
N48_2 N 0.5618(6) 0.47301(18) 0.32345(13)
H17_4 H 0.0382 0.1555 0.0923
C1_4 C 0.0850(8) 0.5216(3) 0.89797(15)
H1_4 H 0.1090 0.5484 0.8883
C2_4 C 0.0954(12) 0.4666(4) 0.9251(2)
H2_4 H 0.1218 0.4461 0.9398
N2_2 N 0.1621(7) 0.50592(19) 0.91912(14)
Zn4_4 Zn 0.58772(8) 0.23741(2) 0.075189(16)
Zn5_4 Zn 0.34202(8) 0.18311(2) 0.187491(16)
H8_4 H 0.6767 0.4553 0.0017
C10_4 C 0.5903(8) 0.2985(2) 0.02589(15)
H10_4 H 0.6245 0.2752 0.0139
C11_4 C 0.5240(8) 0.3351(2) 0.06353(16)
H11_4 H 0.5011 0.3433 0.0829
C12_4 C 0.5197(9) 0.3622(2) 0.03982(17)
H12_4 H 0.4925 0.3925 0.0400
C13_4 C 0.3328(7) 0.1940(2) 0.04634(14)
H13_4 H 0.2861 0.2213 0.0428
C14_4 C 0.3731(7) 0.1244(2) 0.04850(15)
H14_4 H 0.3628 0.0931 0.0468
C15_4 C 0.4865(8) 0.1460(2) 0.06007(16)
H15_4 H 0.5682 0.1323 0.0679
C16_4 C 0.8419(7) 0.1966(2) 0.04739(15)
H16_4 H 0.8095 0.2038 0.0284
C17_4 C 0.9659(8) 0.1702(3) 0.08180(16)
C18_4 C 0.8554(9) 0.1922(3) 0.09379(16)
H18_4 H 0.8361 0.1949 0.1140
C19_4 C 0.4659(7) 0.2118(2) 0.13108(15)
H19_4 H 0.4299 0.1861 0.1218
C20_4 C 0.5149(8) 0.2601(2) 0.16366(15)
H20_4 H 0.5205 0.2759 0.1815
C21_4 C 0.5729(8) 0.2729(2) 0.13773(16)
H21_4 H 0.6275 0.2988 0.1346
C22_4 C 0.4513(7) 0.1550(2) 0.24594(15)
H22_4 H 0.3597 0.1474 0.2525
C23_4 C 0.6185(8) 0.1745(3) 0.21863(16)
H23_4 H 0.6717 0.1837 0.2022
C24_4 C 0.6704(8) 0.1639(3) 0.24447(18)
H24_4 H 0.7671 0.1650 0.2495
C25_4 C 0.3315(7) 0.0877(2) 0.16872(15)
H25_4 H 0.4012 0.0794 0.1825
C26_4 C 0.1824(10) 0.0846(3) 0.1344(2)
H26_4 H 0.1256 0.0744 0.1187
C27_4 C 0.1842(10) 0.1262(3) 0.14547(19)
H27_4 H 0.1263 0.1499 0.1391
C28_4 C 0.1705(7) 0.2566(2) 0.21121(16)
H28_4 H 0.2516 0.2749 0.2124
C29_4 C 0.0386(8) 0.2014(3) 0.2029(2)
H29_4 H 0.0046 0.1733 0.1969
C34_4 C 0.0314(7) 0.2779(2) 0.29163(16)
H34_4 H 0.0337 0.2509 0.2810
C35_4 C 0.0287(9) 0.3243(2) 0.32679(17)
H35_4 H 0.0294 0.3370 0.3457
C36_4 C 0.0156(9) 0.3473(2) 0.30177(17)
H36_4 H 0.0059 0.3785 0.3001
C37_4 C 0.2494(7) 0.3867(2) 0.23590(18)
H37_4 H 0.2924 0.3697 0.2509
C38_4 C 0.1089(10) 0.4070(4) 0.2042(2)
H38_4 H 0.0311 0.4086 0.1913
C39_4 C 0.2174(9) 0.4360(4) 0.2046(2)
H39_4 H 0.2278 0.4613 0.1926
C53_4 C 0.0503(11) 0.7281(3) 0.0671(2)
H53_4 H 0.1000 0.7156 0.0511
C54_4 C 0.0704(10) 0.7174(3) 0.09528(18)
H54_4 H 0.1368 0.6966 0.1025
N7_4 N 0.5602(6) 0.33924(17) 0.01600(12)
N8_4 N 0.5670(6) 0.29423(17) 0.05456(12)
N9_4 N 0.4622(5) 0.19044(18) 0.05842(12)
N11_4 N 0.7769(6) 0.20965(19) 0.07157(12)
N13_4 N 0.5395(5) 0.24237(18) 0.11734(12)
N14_4 N 0.4469(6) 0.22046(18) 0.15934(11)
N15_4 N 0.4764(5) 0.16996(17) 0.21947(11)
N17_4 N 0.2813(6) 0.12886(18) 0.16707(12)
N19_4 N 0.1740(6) 0.21451(18) 0.20214(12)
N20_4 N 0.0423(5) 0.27046(19) 0.21843(13)
N23_4 N 0.0186(6) 0.31763(18) 0.27930(13)
N25_4 N 0.1271(5) 0.37589(19) 0.22459(13)
N26_2 N 0.3079(6) 0.42232(18) 0.22523(13)
Zn17_2 Zn 0.49855(8) 0.44560(2) 0.235356(18)
N49_2 N 0.0475(6) 0.6786(2) 0.16494(13)
C3_4 C 0.9860(12) 0.4619(3) 0.9066(2)
H3_4 H 0.9274 0.4364 0.9053
C4_4 C 0.5973(8) 0.5229(2) 0.89556(16)
H4_4 H 0.6361 0.5031 0.9095
C5_4 C 0.4540(8) 0.5670(3) 0.87453(19)
H5_4 H 0.3746 0.5849 0.8701
C6_4 C 0.5695(8) 0.5614(2) 0.85733(18)
H6_4 H 0.5833 0.5746 0.8388
C7_4 C 0.4576(7) 0.4411(2) 0.95421(16)
H7_4 H 0.4033 0.4247 0.9406
C8_4 C 0.6054(11) 0.4573(3) 0.9873(2)
C9_4 C 0.5427(10) 0.4953(3) 0.9780(2)
H9_4 H 0.5619 0.5242 0.9852
N1_4 N 0.9731(6) 0.49886(19) 0.89053(13)
N3_4 N 0.6627(6) 0.53352(18) 0.87099(13)
N4_4 N 0.4727(6) 0.54241(18) 0.89907(13)
N5_4 N 0.4501(6) 0.48571(19) 0.95706(13)
N6_4 N 0.5493(6) 0.42262(18) 0.97256(13)
Zn6_4 Zn 0.99646(8) 0.32827(2) 0.236786(18)
C30_4 C 0.9577(7) 0.2351(2) 0.2138(2)
H30_4 H 0.8595 0.2338 0.2174
C31_4 C 0.7475(7) 0.3854(2) 0.23768(15)
H31_4 H 0.7819 0.3992 0.2549
C32_4 C 0.6177(8) 0.3689(3) 0.20108(19)
H32_4 H 0.5427 0.3682 0.1874
C33_4 C 0.7284(8) 0.3415(3) 0.20159(18)
H33_4 H 0.7468 0.3188 0.1877
C40_4 C 0.4770(7) 0.5405(2) 0.21709(15)
H40_4 H 0.4386 0.5484 0.2355
C41_4 C 0.5419(13) 0.5444(3) 0.1741(2)
H41_4 H 0.5606 0.5546 0.1549
C42_4 C 0.5648(14) 0.5026(3) 0.1842(2)
H42_4 H 0.6051 0.4791 0.1732
C43_4 C 0.6005(8) 0.4689(3) 0.29574(16)
H43_4 H 0.6933 0.4749 0.2892
C44_4 C 0.4128(12) 0.4650(4) 0.3225(2)
H44_4 H 0.3485 0.4675 0.3383
C45_4 C 0.3817(13) 0.4528(5) 0.2942(3)
H45_4 H 0.2921 0.4439 0.2873
C46_4 C 0.6813(7) 0.6793(3) 0.17417(16)
H46_4 H 0.7361 0.6679 0.1898
C47_4 C 0.5107(12) 0.6921(4) 0.1469(2)
H47_4 H 0.4195 0.6924 0.1385
C48_4 C 0.6247(9) 0.7150(4) 0.1370(2)
H48_4 H 0.6263 0.7338 0.1204
C49_4 C 0.1687(8) 0.6795(2) 0.18006(16)
H49_4 H 0.2034 0.7054 0.1893
C50_4 C 0.1515(8) 0.6130(3) 0.16496(17)
H50_4 H 0.1705 0.5825 0.1613
C51_4 C 0.0388(8) 0.6349(3) 0.15529(18)
C52_4 C 0.9073(8) 0.7672(3) 0.09292(17)
H52_4 H 0.8374 0.7881 0.0985
C55_4 C 0.5930(13) 0.7405(4) 0.0048(2)
C56_4 C 0.5522(15) 0.7699(5) 0.0436(3)
H56_4 H 0.5592 0.7872 0.0608
C57_4 C 0.4305(16) 0.7557(5) 0.0310(3)
H57_4 H 0.3388 0.7594 0.0388
C58_4 C 0.8484(10) 0.8768(3) 0.04980(19)
H58_4 H 0.8947 0.8696 0.0675
C59_4 C 0.7441(19) 0.8694(5) 0.0126(4)
C60_4 C 0.7263(19) 0.9128(5) 0.0214(3)
H60_4 H 0.6653 0.9346 0.0135
N21_4 N 0.8101(5) 0.35109(18) 0.22492(13)
N22_4 N 0.6317(6) 0.39834(18) 0.22386(13)
N27_4 N 0.5220(6) 0.4998(2) 0.21163(13)
N28_4 N 0.4882(6) 0.56888(18) 0.19601(12)
N29_4 N 0.4994(6) 0.45580(18) 0.27809(13)
N31_4 N 0.5494(6) 0.66905(19) 0.17060(12)
N32_4 N 0.7331(6) 0.70678(19) 0.15448(13)
N33_4 N 0.2354(6) 0.64069(19) 0.18081(13)
N35_4 N 0.9765(6) 0.7421(2) 0.11179(13)
N36_4 N 0.9465(7) 0.7601(2) 0.06485(13)
N37_4 N 0.6624(9) 0.7551(2) 0.02718(15)
N39_4 N 0.8169(8) 0.8458(2) 0.03122(15)
H55_4 H 0.6441 0.7341 0.9875
H59_4 H 0.7075 0.8579 0.9950
H51_4 H 0.9653 0.6227 0.1438
loop_
_geom_bond_atom_site_label_1
_geom_bond_atom_site_label_2
_geom_bond_site_symmetry_1
_geom_bond_site_symmetry_2
Zn3 N6 1_555 1_555
C2 H2 1_555 1_555
C3 C2 1_555 1_555
H3 C3 1_555 1_555
C9 C8 1_555 1_555
N42 Zn3 1_555 1_555
C3 N1 1_555 1_555
C8 N6 1_555 1_555
Zn4 N8 1_555 1_555
C10 H10 1_555 1_555
C11 H11 1_555 1_555
C12 C11 1_555 1_555
C16 H16 1_555 1_555
C17 H17 1_555 1_555
C18 C17 1_555 1_555
H18 C18 1_555 1_555
C20 H20 1_555 1_555
C21 C20 1_555 1_555
H21 C21 1_555 1_555
C23 H23 1_555 1_555
C24 C23 1_555 1_555
H24 C24 1_555 1_555
N8 C10 1_555 1_555
N11 Zn4 1_555 1_555
N12 C16 1_555 1_555
N13 Zn4 1_555 1_555
Zn16 N12 1_555 1_555
Zn18 N16 1_555 1_555
C10 N7 1_555 1_555
C11 N8 1_555 1_555
C12 N7 1_555 1_555
C16 N11 1_555 1_555
C17 N12 1_555 1_555
C18 N11 1_555 1_555
C21 N13 1_555 1_555
C24 N16 1_555 1_555
C1 H1 1_555 1_555
C4 H4 1_555 1_555
H6 C6 1_555 1_555
N2 C1 1_555 1_555
N3 Zn1 1_555 1_555
Zn13 N2 1_555 1_555
N48 Zn1 1_555 1_555
C4 N3 1_555 1_555
C6 N3 1_555 1_555
C7 H7 1_555 1_555
C7 N5 1_555 1_555
Zn5 N14 1_555 1_555
Zn6 N20 1_555 1_555
C13 H13 1_555 1_555
C14 H14 1_555 1_555
C15 C14 1_555 1_555
C19 H19 1_555 1_555
C22 H22 1_555 1_555
C25 H25 1_555 1_555
C26 H26 1_555 1_555
C27 C26 1_555 1_555
H27 C27 1_555 1_555
C28 H28 1_555 1_555
C29 H29 1_555 1_555
C30 C29 1_555 1_555
H30 C30 1_555 1_555
C31 H31 1_555 1_555
C32 H32 1_555 1_555
C33 C32 1_555 1_555
H33 C33 1_555 1_555
C34 H34 1_555 1_555
C35 H35 1_555 1_555
C36 C35 1_555 1_555
H36 C36 1_555 1_555
C37 H37 1_555 1_555
C38 H38 1_555 1_555
C39 C38 1_555 1_555
H39 C39 1_555 1_555
C43 H43 1_555 1_555
N10 C13 1_555 1_555
N14 C19 1_555 1_555
N15 Zn5 1_555 1_555
N17 Zn5 1_555 1_555
N18 C25 1_555 1_555
N19 Zn5 1_555 1_555
N20 C28 1_555 1_555
N21 Zn6 1_555 1_555
N22 C31 1_555 1_555
N23 Zn6 1_555 1_555
N24 C34 1_555 1_555
N25 Zn6 1_555 1_555
N26 C37 1_555 1_555
N30 C43 1_555 1_555
Zn11 N30 1_555 1_555
Zn12 N18 1_555 1_555
Zn16 N10 1_555 1_555
Zn17 N26 1_555 1_555
Zn20 N24 1_555 1_555
C13 N9 1_555 1_555
C14 N10 1_555 1_555
C15 N9 1_555 1_555
C22 N15 1_555 1_555
C25 N17 1_555 1_555
C26 N18 1_555 1_555
C27 N17 1_555 1_555
C28 N19 1_555 1_555
C29 N19 1_555 1_555
C30 N20 1_555 1_555
C31 N21 1_555 1_555
C32 N22 1_555 1_555
C33 N21 1_555 1_555
C34 N23 1_555 1_555
C35 N24 1_555 1_555
C36 N23 1_555 1_555
C37 N25 1_555 1_555
C38 N25 1_555 1_555
C39 N26 1_555 1_555
Zn13 N4 1_555 1_555
C5 H5 1_555 1_555
N51 Zn13 1_555 1_555
C5 N4 1_555 1_555
Zn9 N32 1_555 1_555
Zn10 N36 1_555 1_555
C41 H41 1_555 1_555
C42 C41 1_555 1_555
C46 H46 1_555 1_555
C48 C47 1_555 1_555
H48 C48 1_555 1_555
C52 H52 1_555 1_555
C53 H53 1_555 1_555
C54 C53 1_555 1_555
H54 C54 1_555 1_555
C56 H56 1_555 1_555
C58 H58 1_555 1_555
C60 C59 1_555 1_555
H60 C60 1_555 1_555
N32 C46 1_555 1_555
N35 Zn9 1_555 1_555
N36 C52 1_555 1_555
N37 Zn10 1_555 1_555
N39 Zn10 1_555 1_555
N40 C58 1_555 1_555
Zn14 N40 1_555 1_555
N46 Zn9 1_555 1_555
N49 Zn9 1_555 1_555
C46 N31 1_555 1_555
C47 N31 1_555 1_555
C48 N32 1_555 1_555
C52 N35 1_555 1_555
C53 N36 1_555 1_555
C54 N35 1_555 1_555
C55 N37 1_555 1_555
C56 N37 1_555 1_555
C58 N39 1_555 1_555
C59 N39 1_555 1_555
C60 N40 1_555 1_555
C44 H44 1_555 1_555
C45 C44 1_555 1_555
H45 C45 1_555 1_555
N29 Zn17 1_555 1_555
C45 N29 1_555 1_555
Zn8 N28 1_555 1_555
C40 H40 1_555 1_555
C49 H49 1_555 1_555
C50 H50 1_555 1_555
C51 C50 1_555 1_555
H51 C51 1_555 1_555
H57 C57 1_555 1_555
N28 C40 1_555 1_555
N33 Zn8 1_555 1_555
N49 C49 1_555 1_555
N44 Zn8 1_555 1_555
C49 N33 1_555 1_555
C50 N33 1_555 1_555
C51 N49 1_555 1_555
C57 N38 1_555 1_555
Zn8_2 N28_2 1_555 1_555
Zn19 N32_2 1_555 1_555
Zn10_2 N36_2 1_555 1_555
C40_2 H40_2 1_555 1_555
C41_2 H41_2 1_555 1_555
C42_2 C41_2 1_555 1_555
C46_2 H46_2 1_555 1_555
C47_2 H47_2 1_555 1_555
C48_2 C47_2 1_555 1_555
H48_2 C48_2 1_555 1_555
C49_2 H49_2 1_555 1_555
C50_2 H50_2 1_555 1_555
C51_2 C50_2 1_555 1_555
C52_2 H52_2 1_555 1_555
C55_2 H55_2 1_555 1_555
C56_2 H56_2 1_555 1_555
C57_2 C56_2 1_555 1_555
H57_2 C57_2 1_555 1_555
C58_2 H58_2 1_555 1_555
C59_2 H59_2 1_555 1_555
C60_2 C59_2 1_555 1_555
H60_2 C60_2 1_555 1_555
N28_2 C40_2 1_555 1_555
N31_2 Zn8_2 1_555 1_555
N32_2 C46_2 1_555 1_555
N33_2 Zn8_2 1_555 1_555
N34 C49_2 1_555 1_555
N35_2 Zn19 1_555 1_555
N36_2 C52_2 1_555 1_555
N37_2 Zn10_2 1_555 1_555
N38_2 C55_2 1_555 1_555
N39_2 Zn10_2 1_555 1_555
N40_2 C58_2 1_555 1_555
Zn14_2 N40_2 1_555 1_555
Zn21_2 N38_2 1_555 1_555
N44_2 Zn8_2 1_555 1_555
N46_2 Zn19 1_555 1_555
N50_2 Zn10_2 1_555 1_555
C41_2 N28_2 1_555 1_555
C46_2 N31_2 1_555 1_555
C47_2 N31_2 1_555 1_555
C48_2 N32_2 1_555 1_555
C49_2 N33_2 1_555 1_555
C50_2 N33_2 1_555 1_555
C51_2 N34 1_555 1_555
C52_2 N35_2 1_555 1_555
C55_2 N37_2 1_555 1_555
C56_2 N37_2 1_555 1_555
C57_2 N38_2 1_555 1_555
C58_2 N39_2 1_555 1_555
C59_2 N39_2 1_555 1_555
C60_2 N40_2 1_555 1_555
Zn7 N22_2 1_555 1_555
H30_2 C30_2 1_555 1_555
C31_2 H31_2 1_555 1_555
C32_2 H32_2 1_555 1_555
C33_2 C32_2 1_555 1_555
H33_2 C33_2 1_555 1_555
C43_2 H43_2 1_555 1_555
C44_2 H44_2 1_555 1_555
C45_2 C44_2 1_555 1_555
H45_2 C45_2 1_555 1_555
N21_2 Zn6_2 1_555 1_555
N22_2 C31_2 1_555 1_555
N27_2 Zn7 1_555 1_555
N29_2 Zn7 1_555 1_555
N48 C43_2 1_555 1_555
N47 Zn7 1_555 1_555
C31_2 N21_2 1_555 1_555
C32_2 N22_2 1_555 1_555
C33_2 N21_2 1_555 1_555
C43_2 N29_2 1_555 1_555
C44_2 N48 1_555 1_555
C45_2 N29_2 1_555 1_555
Zn2 N4_2 1_555 1_555
C4_2 H4_2 1_555 1_555
C5_2 H5_2 1_555 1_555
C6_2 C5_2 1_555 1_555
H6_2 C6_2 1_555 1_555
C53_2 H53_2 1_555 1_555
C54_2 C53_2 1_555 1_555
H54_2 C54_2 1_555 1_555
N3_2 Zn11 1_555 1_555
N4_2 C4_2 1_555 1_555
N41 Zn2 1_555 1_555
N51_2 Zn2 1_555 1_555
C4_2 N3_2 1_555 1_555
C5_2 N4_2 1_555 1_555
C6_2 N3_2 1_555 1_555
Zn3_2 N6_2 1_555 1_555
Zn4_2 N8_2 1_555 1_555
Zn5_2 N14_2 1_555 1_555
H3_2 C3_2 1_555 1_555
C7_2 H7_2 1_555 1_555
C8_2 H8_2 1_555 1_555
C9_2 C8_2 1_555 1_555
C10_2 H10_2 1_555 1_555
C11_2 H11_2 1_555 1_555
C12_2 C11_2 1_555 1_555
H12_2 C12_2 1_555 1_555
C13_2 H13_2 1_555 1_555
C14_2 H14_2 1_555 1_555
C15_2 C14_2 1_555 1_555
H15_2 C15_2 1_555 1_555
C16_2 H16_2 1_555 1_555
C18_2 C17_2 1_555 1_555
H18_2 C18_2 1_555 1_555
C19_2 H19_2 1_555 1_555
C20_2 H20_2 1_555 1_555
C21_2 C20_2 1_555 1_555
H21_2 C21_2 1_555 1_555
C22_2 H22_2 1_555 1_555
C23_2 H23_2 1_555 1_555
C24_2 C23_2 1_555 1_555
H24_2 C24_2 1_555 1_555
C25_2 H25_2 1_555 1_555
C26_2 H26_2 1_555 1_555
C27_2 C26_2 1_555 1_555
H27_2 C27_2 1_555 1_555
C28_2 H28_2 1_555 1_555
C29_2 H29_2 1_555 1_555
C34_2 H34_2 1_555 1_555
C35_2 H35_2 1_555 1_555
C36_2 C35_2 1_555 1_555
H36_2 C36_2 1_555 1_555
C37_2 H37_2 1_555 1_555
C38_2 H38_2 1_555 1_555
C39_2 C38_2 1_555 1_555
H39_2 C39_2 1_555 1_555
N6_2 C7_2 1_555 1_555
N7_2 Zn3_2 1_555 1_555
N8_2 C10_2 1_555 1_555
N9_2 Zn4_2 1_555 1_555
N10_2 C13_2 1_555 1_555
N11_2 Zn4_2 1_555 1_555
N12_2 C16_2 1_555 1_555
N13_2 Zn4_2 1_555 1_555
N14_2 C19_2 1_555 1_555
N15_2 Zn5_2 1_555 1_555
N16_2 C22_2 1_555 1_555
N17_2 Zn5_2 1_555 1_555
N18_2 C25_2 1_555 1_555
N19_2 Zn5_2 1_555 1_555
N20_2 C28_2 1_555 1_555
N24_2 C34_2 1_555 1_555
N47 C37_2 1_555 1_555
Zn12_2 N18_2 1_555 1_555
Zn15 N10_2 1_555 1_555
Zn18_2 N16_2 1_555 1_555
Zn20_2 N24_2 1_555 1_555
N42_2 Zn3_2 1_555 1_555
N43_2 Zn3_2 1_555 1_555
C3_2 N1_2 1_555 1_555
C7_2 N5_2 1_555 1_555
C8_2 N6_2 1_555 1_555
C9_2 N5_2 1_555 1_555
C10_2 N7_2 1_555 1_555
C11_2 N8_2 1_555 1_555
C12_2 N7_2 1_555 1_555
C13_2 N9_2 1_555 1_555
C14_2 N10_2 1_555 1_555
C15_2 N9_2 1_555 1_555
C16_2 N11_2 1_555 1_555
C17_2 N12_2 1_555 1_555
C18_2 N11_2 1_555 1_555
C19_2 N13_2 1_555 1_555
C20_2 N14_2 1_555 1_555
C21_2 N13_2 1_555 1_555
C22_2 N15_2 1_555 1_555
C23_2 N15_2 1_555 1_555
C24_2 N16_2 1_555 1_555
C25_2 N17_2 1_555 1_555
C26_2 N18_2 1_555 1_555
C27_2 N17_2 1_555 1_555
C28_2 N19_2 1_555 1_555
C29_2 N19_2 1_555 1_555
C34_2 N23_2 1_555 1_555
C35_2 N24_2 1_555 1_555
C36_2 N23_2 1_555 1_555
C37_2 N25_2 1_555 1_555
C38_2 N25_2 1_555 1_555
C39_2 N47 1_555 1_555
C1_2 H1_2 1_555 1_555
N41 C1_2 1_555 1_555
C2_2 H2_2 1_555 1_555
Zn18 N28_3 1_555 1_555
C40_3 H40_3 1_555 1_555
C44_3 H44_3 1_555 1_555
C45_3 C44_3 1_555 1_555
H45_3 C45_3 1_555 1_555
C49_3 H49_3 1_555 1_555
C50_3 H50_3 1_555 1_555
C51_3 C50_3 1_555 1_555
H51_3 C51_3 1_555 1_555
H57_3 C57_3 1_555 1_555
N28_3 C40_3 1_555 1_555
N29_3 Zn7_2 1_555 1_555
N33_3 Zn18 1_555 1_555
N34_2 C49_3 1_555 1_555
Zn20 N34_2 1_555 1_555
N47_2 Zn7_2 1_555 1_555
C45_3 N29_3 1_555 1_555
C49_3 N33_3 1_555 1_555
C50_3 N33_3 1_555 1_555
C51_3 N34_2 1_555 1_555
C57_3 N50_2 1_555 1_555
Zn14_2 N4_3 1_555 1_555
Zn5_3 N14_3 1_555 1_555
Zn6_3 N20_3 1_555 1_555
Zn20 N32_3 1_555 1_555
Zn21_2 N36_3 1_555 1_555
C5_3 H5_3 1_555 1_555
C7_3 H7_3 1_555 1_555
C13_3 H13_3 1_555 1_555
C14_3 H14_3 1_555 1_555
C15_3 C14_3 1_555 1_555
C19_3 H19_3 1_555 1_555
C22_3 H22_3 1_555 1_555
C25_3 H25_3 1_555 1_555
C26_3 H26_3 1_555 1_555
C27_3 C26_3 1_555 1_555
H27_3 C27_3 1_555 1_555
C28_3 H28_3 1_555 1_555
C29_3 H29_3 1_555 1_555
C30_3 C29_3 1_555 1_555
H30_3 C30_3 1_555 1_555
C31_3 H31_3 1_555 1_555
C32_3 H32_3 1_555 1_555
C33_3 C32_3 1_555 1_555
H33_3 C33_3 1_555 1_555
C34_3 H34_3 1_555 1_555
C35_3 H35_3 1_555 1_555
C36_3 C35_3 1_555 1_555
H36_3 C36_3 1_555 1_555
C37_3 H37_3 1_555 1_555
C38_3 H38_3 1_555 1_555
C39_3 C38_3 1_555 1_555
H39_3 C39_3 1_555 1_555
C41_3 H41_3 1_555 1_555
C42_3 C41_3 1_555 1_555
H42_3 C42_3 1_555 1_555
C43_3 H43_3 1_555 1_555
C46_3 H46_3 1_555 1_555
C48_3 C47_3 1_555 1_555
H48_3 C48_3 1_555 1_555
C52_3 H52_3 1_555 1_555
C53_3 H53_3 1_555 1_555
C54_3 C53_3 1_555 1_555
H54_3 C54_3 1_555 1_555
C55_3 H55_3 1_555 1_555
C56_3 H56_3 1_555 1_555
C58_3 H58_3 1_555 1_555
C59_3 H59_3 1_555 1_555
C60_3 C59_3 1_555 1_555
H60_3 C60_3 1_555 1_555
N5_3 Zn14_2 1_555 1_555
N42_2 C13_3 1_555 1_555
N14_3 C19_3 1_555 1_555
N15_3 Zn5_3 1_555 1_555
N17_3 Zn5_3 1_555 1_555
N45_2 C25_3 1_555 1_555
N19_3 Zn5_3 1_555 1_555
N20_3 C28_3 1_555 1_555
N21_3 Zn6_3 1_555 1_555
N22_3 C31_3 1_555 1_555
N23_3 Zn6_3 1_555 1_555
N46 C34_3 1_555 1_555
N25_3 Zn6_3 1_555 1_555
N47_2 C37_3 1_555 1_555
N30_2 C43_3 1_555 1_555
N32_3 C46_3 1_555 1_555
N35_3 Zn20 1_555 1_555
N36_3 C52_3 1_555 1_555
N37_3 Zn21_2 1_555 1_555
N39_3 Zn21_2 1_555 1_555
N51_2 C58_3 1_555 1_555
Zn12 N30_2 1_555 1_555
N41_2 Zn14_2 1_555 1_555
C5_3 N4_3 1_555 1_555
C7_3 N5_3 1_555 1_555
C13_3 N9_3 1_555 1_555
C14_3 N42_2 1_555 1_555
C15_3 N9_3 1_555 1_555
C22_3 N15_3 1_555 1_555
C25_3 N17_3 1_555 1_555
C26_3 N45_2 1_555 1_555
C27_3 N17_3 1_555 1_555
C28_3 N19_3 1_555 1_555
C29_3 N19_3 1_555 1_555
C30_3 N20_3 1_555 1_555
C31_3 N21_3 1_555 1_555
C32_3 N22_3 1_555 1_555
C33_3 N21_3 1_555 1_555
C34_3 N23_3 1_555 1_555
C35_3 N46 1_555 1_555
C36_3 N23_3 1_555 1_555
C37_3 N25_3 1_555 1_555
C38_3 N25_3 1_555 1_555
C39_3 N47_2 1_555 1_555
C42_3 N27_3 1_555 1_555
C46_3 N31_3 1_555 1_555
C47_3 N31_3 1_555 1_555
C48_3 N32_3 1_555 1_555
C52_3 N35_3 1_555 1_555
C53_3 N36_3 1_555 1_555
C54_3 N35_3 1_555 1_555
C55_3 N37_3 1_555 1_555
C56_3 N37_3 1_555 1_555
C58_3 N39_3 1_555 1_555
C59_3 N39_3 1_555 1_555
C60_3 N51_2 1_555 1_555
Zn12_2 N1_3 1_555 1_555
Zn15 N6_3 1_555 1_555
Zn4_3 N8_3 1_555 1_555
C1_3 H1_3 1_555 1_555
C2_3 H2_3 1_555 1_555
C3_3 C2_3 1_555 1_555
H3_3 C3_3 1_555 1_555
C4_3 H4_3 1_555 1_555
H6_3 C6_3 1_555 1_555
C8_3 H8_3 1_555 1_555
C9_3 C8_3 1_555 1_555
H9_3 C9_3 1_555 1_555
C10_3 H10_3 1_555 1_555
C11_3 H11_3 1_555 1_555
C12_3 C11_3 1_555 1_555
C16_3 H16_3 1_555 1_555
C17_3 H17_3 1_555 1_555
C18_3 C17_3 1_555 1_555
H18_3 C18_3 1_555 1_555
C20_3 H20_3 1_555 1_555
C21_3 C20_3 1_555 1_555
H21_3 C21_3 1_555 1_555
C23_3 H23_3 1_555 1_555
C24_3 C23_3 1_555 1_555
H24_3 C24_3 1_555 1_555
N1_3 C1_3 1_555 1_555
N41_2 C1_3 1_555 1_555
N3_3 Zn12_2 1_555 1_555
N7_3 Zn15 1_555 1_555
N8_3 C10_3 1_555 1_555
N11_3 Zn4_3 1_555 1_555
N43_2 C16_3 1_555 1_555
N13_3 Zn4_3 1_555 1_555
N48_2 Zn12_2 1_555 1_555
C2_3 N41_2 1_555 1_555
C3_3 N1_3 1_555 1_555
C4_3 N3_3 1_555 1_555
C6_3 N3_3 1_555 1_555
C8_3 N6_3 1_555 1_555
C10_3 N7_3 1_555 1_555
C11_3 N8_3 1_555 1_555
C12_3 N7_3 1_555 1_555
C16_3 N11_3 1_555 1_555
C17_3 N43_2 1_555 1_555
C18_3 N11_3 1_555 1_555
C21_3 N13_3 1_555 1_555
C24_3 N44 1_555 1_555
C1_4 H1_4 1_555 1_555
C2_4 H2_4 1_555 1_555
N2_2 C1_4 1_555 1_555
Zn14 N2_2 1_555 1_555
C2_4 N2_2 1_555 1_555
Zn4_4 N8_4 1_555 1_555
Zn5_4 N14_4 1_555 1_555
C10_4 H10_4 1_555 1_555
C11_4 H11_4 1_555 1_555
C12_4 C11_4 1_555 1_555
H12_4 C12_4 1_555 1_555
C13_4 H13_4 1_555 1_555
C14_4 H14_4 1_555 1_555
C15_4 C14_4 1_555 1_555
H15_4 C15_4 1_555 1_555
C16_4 H16_4 1_555 1_555
C18_4 C17_4 1_555 1_555
H18_4 C18_4 1_555 1_555
C19_4 H19_4 1_555 1_555
C20_4 H20_4 1_555 1_555
C21_4 C20_4 1_555 1_555
H21_4 C21_4 1_555 1_555
C22_4 H22_4 1_555 1_555
C23_4 H23_4 1_555 1_555
C24_4 C23_4 1_555 1_555
H24_4 C24_4 1_555 1_555
C25_4 H25_4 1_555 1_555
C26_4 H26_4 1_555 1_555
C27_4 C26_4 1_555 1_555
H27_4 C27_4 1_555 1_555
C28_4 H28_4 1_555 1_555
C29_4 H29_4 1_555 1_555
C34_4 H34_4 1_555 1_555
C35_4 H35_4 1_555 1_555
C36_4 C35_4 1_555 1_555
H36_4 C36_4 1_555 1_555
C37_4 H37_4 1_555 1_555
C38_4 H38_4 1_555 1_555
C39_4 C38_4 1_555 1_555
H39_4 C39_4 1_555 1_555
C53_4 H53_4 1_555 1_555
C54_4 C53_4 1_555 1_555
H54_4 C54_4 1_555 1_555
N8_4 C10_4 1_555 1_555
N9_4 Zn4_4 1_555 1_555
N42 C13_4 1_555 1_555
N11_4 Zn4_4 1_555 1_555
N43 C16_4 1_555 1_555
N13_4 Zn4_4 1_555 1_555
N14_4 C19_4 1_555 1_555
N15_4 Zn5_4 1_555 1_555
N44_2 C22_4 1_555 1_555
N17_4 Zn5_4 1_555 1_555
N45 C25_4 1_555 1_555
N19_4 Zn5_4 1_555 1_555
N20_4 C28_4 1_555 1_555
N46_2 C34_4 1_555 1_555
N26_2 C37_4 1_555 1_555
Zn17_2 N26_2 1_555 1_555
C10_4 N7_4 1_555 1_555
C11_4 N8_4 1_555 1_555
C12_4 N7_4 1_555 1_555
C13_4 N9_4 1_555 1_555
C14_4 N42 1_555 1_555
C15_4 N9_4 1_555 1_555
C16_4 N11_4 1_555 1_555
C17_4 N43 1_555 1_555
C18_4 N11_4 1_555 1_555
C19_4 N13_4 1_555 1_555
C20_4 N14_4 1_555 1_555
C21_4 N13_4 1_555 1_555
C22_4 N15_4 1_555 1_555
C23_4 N15_4 1_555 1_555
C24_4 N44_2 1_555 1_555
C25_4 N17_4 1_555 1_555
C26_4 N45 1_555 1_555
C27_4 N17_4 1_555 1_555
C28_4 N19_4 1_555 1_555
C29_4 N19_4 1_555 1_555
C34_4 N23_4 1_555 1_555
C35_4 N46_2 1_555 1_555
C36_4 N23_4 1_555 1_555
C37_4 N25_4 1_555 1_555
C38_4 N25_4 1_555 1_555
C39_4 N26_2 1_555 1_555
Zn12 N1_4 1_555 1_555
Zn14 N4_4 1_555 1_555
Zn16 N6_4 1_555 1_555
H3_4 C3_4 1_555 1_555
C4_4 H4_4 1_555 1_555
C5_4 H5_4 1_555 1_555
C6_4 C5_4 1_555 1_555
H6_4 C6_4 1_555 1_555
C7_4 H7_4 1_555 1_555
C9_4 C8_4 1_555 1_555
H9_4 C9_4 1_555 1_555
N3_4 Zn12 1_555 1_555
N4_4 C4_4 1_555 1_555
N5_4 Zn14 1_555 1_555
N6_4 C7_4 1_555 1_555
C3_4 N1_4 1_555 1_555
C4_4 N3_4 1_555 1_555
C5_4 N4_4 1_555 1_555
C6_4 N3_4 1_555 1_555
C7_4 N5_4 1_555 1_555
C8_4 N6_4 1_555 1_555
C9_4 N5_4 1_555 1_555
Zn17_2 N22_4 1_555 1_555
Zn18_2 N28_4 1_555 1_555
Zn20_2 N32_4 1_555 1_555
Zn21 N36_4 1_555 1_555
H30_4 C30_4 1_555 1_555
C31_4 H31_4 1_555 1_555
C32_4 H32_4 1_555 1_555
C33_4 C32_4 1_555 1_555
H33_4 C33_4 1_555 1_555
C40_4 H40_4 1_555 1_555
C41_4 H41_4 1_555 1_555
C42_4 C41_4 1_555 1_555
H42_4 C42_4 1_555 1_555
C43_4 H43_4 1_555 1_555
C44_4 H44_4 1_555 1_555
C45_4 C44_4 1_555 1_555
H45_4 C45_4 1_555 1_555
C46_4 H46_4 1_555 1_555
C47_4 H47_4 1_555 1_555
C48_4 C47_4 1_555 1_555
H48_4 C48_4 1_555 1_555
C49_4 H49_4 1_555 1_555
C50_4 H50_4 1_555 1_555
C51_4 C50_4 1_555 1_555
C52_4 H52_4 1_555 1_555
C56_4 H56_4 1_555 1_555
C57_4 C56_4 1_555 1_555
H57_4 C57_4 1_555 1_555
C58_4 H58_4 1_555 1_555
C60_4 C59_4 1_555 1_555
H60_4 C60_4 1_555 1_555
N21_4 Zn6_4 1_555 1_555
N22_4 C31_4 1_555 1_555
N27_4 Zn17_2 1_555 1_555
N28_4 C40_4 1_555 1_555
N29_4 Zn17_2 1_555 1_555
N48_2 C43_4 1_555 1_555
N31_4 Zn18_2 1_555 1_555
N32_4 C46_4 1_555 1_555
N33_4 Zn18_2 1_555 1_555
N49_2 C49_4 1_555 1_555
N35_4 Zn20_2 1_555 1_555
N36_4 C52_4 1_555 1_555
N37_4 Zn21 1_555 1_555
N50 C55_4 1_555 1_555
N39_4 Zn21 1_555 1_555
N51 C58_4 1_555 1_555
C31_4 N21_4 1_555 1_555
C32_4 N22_4 1_555 1_555
C33_4 N21_4 1_555 1_555
C40_4 N27_4 1_555 1_555
C41_4 N28_4 1_555 1_555
C42_4 N27_4 1_555 1_555
C43_4 N29_4 1_555 1_555
C44_4 N48_2 1_555 1_555
C45_4 N29_4 1_555 1_555
C46_4 N31_4 1_555 1_555
C47_4 N31_4 1_555 1_555
C48_4 N32_4 1_555 1_555
C49_4 N33_4 1_555 1_555
C50_4 N33_4 1_555 1_555
C51_4 N49_2 1_555 1_555
C52_4 N35_4 1_555 1_555
C55_4 N37_4 1_555 1_555
C56_4 N37_4 1_555 1_555
C57_4 N50 1_555 1_555
C58_4 N39_4 1_555 1_555
C59_4 N39_4 1_555 1_555
C60_4 N51 1_555 1_555

#END
