
###############################################################################
#
# This file contains modified crystal structure data generated from the
# MOF subset of the Cambridge Structural Database (CSD) v543 
# hosted by the Cambridge Crystallographic Data Centre (CCDC).
#
# This work is licensed under the Creative Commons
# Attribution-NonCommercial-ShareAlike 4.0 International License.
# To view a copy of this license, visit
# http://creativecommons.org/licenses/by-nc-sa/4.0/
# or send a letter to
# Creative Commons, PO Box 1866, Mountain View, CA 94042, USA.
#
# CIF created using the CSD Python API on 29 September 2022
# The structure has been converted into the P1 space group
# The structure has a 3D framework
# The original CSD entry GOQXAN is in the orthorhombic crystal system
# The original CSD entry GOQXAN is in a Sohncke space group
# The framework has been calculated to contain at least 10.0% void space
# The void calculation uses a probe of radius 1.32A, grid spacing 0.4
#
###############################################################################

data_GOQXAN
_chemical_formula_moiety         '(C44 H56 Cd4 N8 O19)n'
_symmetry_cell_setting           triclinic
_symmetry_space_group_name_H-M   'P 1'
_symmetry_Int_Tables_number      1
_space_group_name_Hall           'P 1'
loop_
_symmetry_equiv_pos_site_id
_symmetry_equiv_pos_as_xyz
1 x,y,z
_cell_length_a                   6.1983(5)
_cell_length_b                   15.0070(15)
_cell_length_c                   16.5317(16)
_cell_angle_alpha                90
_cell_angle_beta                 90
_cell_angle_gamma                90
_cell_volume                     1537.74
loop_
_atom_site_label
_atom_site_type_symbol
_atom_site_fract_x
_atom_site_fract_y
_atom_site_fract_z
O3 O 0.0538(8) 0.6358(4) 0.4065(3)
H5 H 0.087(11) 0.656(5) 0.4531(13)
Cd1 Cd 0.09273(7) 0.29166(3) 0.14465(3)
O1 O 0.6398(8) 0.7605(3) 0.4653(3)
N1 N 0.2980(10) 0.4184(4) 0.1710(4)
C1 C 0.4966(11) 0.4275(4) 0.1417(5)
H1 H 0.5445 0.3871 0.1030
C2 C 0.6353(12) 0.4947(5) 0.1665(4)
H2 H 0.7740 0.4979 0.1452
C3 C 0.2316(12) 0.4792(5) 0.2247(5)
H3 H 0.0927 0.4739 0.2454
C4 C 0.5680(11) 0.5571(4) 0.2227(4)
C5 C 0.3579(11) 0.5499(5) 0.2516(4)
H4 H 0.3032 0.5914 0.2880
O2 O 0.5502(8) 0.6389(3) 0.5347(3)
C6 C 0.6099(11) 0.6787(4) 0.4722(4)
C8 C 0.8816(12) 0.5742(4) 0.4126(4)
H6 H 0.8814 0.5478 0.4662
H7 H 0.9021 0.5267 0.3735
N2 N 0.6683(9) 0.6763(4) 0.3251(3)
H8 H 0.5354 0.7013 0.3195
C9 C 0.7181(11) 0.6321(4) 0.2487(4)
H9 H 0.8632 0.6081 0.2523
H10 H 0.7189 0.6768 0.2063
C10 C 0.6607(11) 0.6205(4) 0.3970(4)
H11 H 0.5482 0.5752 0.3906
Cd2 Cd 0.40727(7) 0.70834(3) 0.64465(3)
Cd3 Cd 0.90727(7) 0.79166(3) 0.35535(3)
O6 O 0.3602(8) 0.2605(3) 0.0347(3)
N3 N 0.3317(9) 0.1763(4) 0.1749(3)
N1_2 N 0.2020(10) 0.5816(4) 0.6710(4)
C1_2 C 0.0034(11) 0.5725(4) 0.6417(5)
C3_2 C 0.2684(12) 0.5208(5) 0.7247(5)
H3_2 H 0.4073 0.5261 0.7454
C5_2 C 0.1421(11) 0.4501(5) 0.7516(4)
H4_2 H 0.1968 0.4086 0.7880
O4 O 0.7434(9) 0.7294(4) 0.7037(3)
O5 O 0.5052(9) 0.6791(4) 0.7877(4)
C7 C 0.6938(12) 0.7020(6) 0.7728(4)
C11 C 0.8657(15) 0.6942(7) 0.8362(6)
H13 H 0.8806 0.6329 0.8519
H14 H 0.8265 0.7293 0.8824
O6_2 O 0.1398(8) 0.7395(3) 0.5347(3)
O8 O 0.5538(8) 0.8642(4) 0.5935(3)
N3_2 N 0.1683(9) 0.8237(4) 0.6749(3)
C4_2 C 0.0680(11) 0.9429(4) 0.7773(4)
O2_2 O 0.0502(8) 0.8611(3) 0.4653(3)
H5_2 H 0.587(11) 0.844(5) 0.5469(13)
C6_2 C 0.1099(11) 0.8213(4) 0.5278(4)
C8_2 C 0.3816(12) 0.9258(4) 0.5874(4)
H6_2 H 0.3814 0.9522 0.5338
H7_2 H 0.4021 0.9733 0.6265
H8_2 H 0.0354 0.7987 0.6805
C9_2 C 0.2181(11) 0.8679(4) 0.7513(4)
H9_2 H 0.3632 0.8919 0.7477
H10_2 H 0.2189 0.8232 0.7937
C10_2 C 0.1607(11) 0.8795(4) 0.6030(4)
H11_2 H 0.0482 0.9248 0.6094
C5_3 C 0.8579(11) 0.9501(5) 0.7484(4)
H4_3 H 0.8032 0.9086 0.7120
O4_2 O 0.2434(9) 0.7706(4) 0.2963(3)
O5_2 O 0.0052(9) 0.8209(4) 0.2123(4)
C7_2 C 0.1938(12) 0.7980(6) 0.2272(4)
C11_2 C 0.3657(15) 0.8058(7) 0.1638(6)
H12 H 0.5002 0.7847 0.1853
H13_2 H 0.3806 0.8671 0.1481
H14_2 H 0.3265 0.7707 0.1176
C4_3 C 0.4320(11) 0.0571(4) 0.2773(4)
C5_4 C 0.6421(11) 0.0499(5) 0.2484(4)
H4_4 H 0.6968 0.0914 0.2120
C6_3 C 0.3901(11) 0.1787(4) 0.0278(4)
C8_3 C 0.1184(12) 0.0742(4) 0.0874(4)
H6_3 H 0.1186 0.0478 0.0338
H7_3 H 0.0979 0.0267 0.1265
H8_3 H 0.4646 0.2013 0.1805
C9_3 C 0.2819(11) 0.1321(4) 0.2513(4)
H9_3 H 0.1368 0.1081 0.2477
H10_3 H 0.2811 0.1768 0.2937
C10_3 C 0.3393(11) 0.1205(4) 0.1030(4)
H11_3 H 0.4518 0.0752 0.1094
N1_3 N 0.7020(10) 0.9184(4) 0.3290(4)
C1_3 C 0.5034(11) 0.9275(4) 0.3583(5)
H1_2 H 0.4555 0.8871 0.3970
C2_2 C 0.3647(12) 0.9947(5) 0.3335(4)
H2_2 H 0.2260 0.9979 0.3548
C3_3 C 0.7684(12) 0.9792(5) 0.2753(5)
H3_3 H 0.9073 0.9739 0.2546
O4_3 O 0.7566(9) 0.2706(4) 0.2037(3)
O5_3 O 0.9948(9) 0.3209(4) 0.2877(4)
C7_3 C 0.8062(12) 0.2980(6) 0.2728(4)
C11_3 C 0.6343(15) 0.3058(7) 0.3362(6)
H12_2 H 0.4998 0.2847 0.3147
H13_3 H 0.6194 0.3671 0.3519
H14_3 H 0.6735 0.2707 0.3824
O7 O 0.9498(8) 0.3611(3) 0.0347(3)
O8_2 O 0.9462(8) 0.1358(4) 0.0935(3)
H5_3 H 0.913(11) 0.156(5) 0.0469(13)
H12_3 H 0.0002 0.7153 0.8147
O1_2 O 0.8602(8) 0.2395(3) 0.9653(3)
H1_3 H 0.9555 0.6129 0.6030
C2_3 C 0.8647(12) 0.5053(5) 0.6665(4)
H2_3 H 0.7260 0.5021 0.6452
C4_4 C 0.9320(11) 0.4429(4) 0.7227(4)
O3_2 O 0.4462(8) 0.3642(4) 0.9065(3)
H5_4 H 0.413(11) 0.344(5) 0.9531(13)
C6_4 C 0.8901(11) 0.3213(4) 0.9722(4)
C8_4 C 0.6184(12) 0.4258(4) 0.9126(4)
H6_4 H 0.6186 0.4522 0.9662
H7_4 H 0.5979 0.4733 0.8735
N2_2 N 0.8317(9) 0.3237(4) 0.8251(3)
H8_4 H 0.9646 0.2987 0.8195
C9_4 C 0.7819(11) 0.3679(4) 0.7487(4)
H9_4 H 0.6368 0.3919 0.7523
H10_4 H 0.7811 0.3232 0.7063
C10_4 C 0.8393(11) 0.3795(4) 0.8970(4)
H11_4 H 0.9518 0.4248 0.8906
Cd3_2 Cd 0.59273(7) 0.20834(3) 0.85535(3)
N1_4 N 0.7980(10) 0.0816(4) 0.8290(4)
C1_4 C 0.9966(11) 0.0725(4) 0.8583(5)
C3_4 C 0.7316(12) 0.0208(5) 0.7753(5)
H3_4 H 0.5927 0.0261 0.7546
O4_4 O 0.2566(9) 0.2294(4) 0.7963(3)
O5_4 O 0.4948(9) 0.1791(4) 0.7123(4)
C7_4 C 0.3062(12) 0.2020(6) 0.7272(4)
C11_4 C 0.1343(15) 0.1942(7) 0.6638(6)
H13_4 H 0.1194 0.1329 0.6481
H14_4 H 0.1735 0.2293 0.6176
O7_2 O 0.4498(8) 0.1389(3) 0.9653(3)
H1_4 H 0.0445 0.1129 0.8970
C2_4 C 0.1353(12) 0.0053(5) 0.8335(4)
H2_4 H 0.2740 0.0021 0.8548
H12_4 H 0.9998 0.2153 0.6853
loop_
_geom_bond_atom_site_label_1
_geom_bond_atom_site_label_2
_geom_bond_site_symmetry_1
_geom_bond_site_symmetry_2
O3 H5 1_555 1_555
Cd1 N1 1_555 1_555
O1 C6 1_555 1_555
N1 C1 1_555 1_555
C1 H1 1_555 1_555
C2 C1 1_555 1_555
H2 C2 1_555 1_555
C3 N1 1_555 1_555
H3 C3 1_555 1_555
C4 C2 1_555 1_555
C5 C3 1_555 1_555
H4 C5 1_555 1_555
O2 C6 1_555 1_555
C6 C10 1_555 1_555
H6 C8 1_555 1_555
H7 C8 1_555 1_555
N2 H8 1_555 1_555
C9 C4 1_555 1_555
H9 C9 1_555 1_555
H10 C9 1_555 1_555
C10 C8 1_555 1_555
H11 C10 1_555 1_555
Cd2 O2 1_555 1_555
Cd3 O1 1_555 1_555
O6 Cd1 1_555 1_555
N3 Cd1 1_555 1_555
C4 C5 1_555 1_555
N2 C9 1_555 1_555
N2 C10 1_555 1_555
N2 Cd3 1_555 1_555
Cd2 N1_2 1_555 1_555
N1_2 C1_2 1_555 1_555
C3_2 N1_2 1_555 1_555
H3_2 C3_2 1_555 1_555
C5_2 C3_2 1_555 1_555
H4_2 C5_2 1_555 1_555
O4 Cd2 1_555 1_555
O5 Cd2 1_555 1_555
C7 O4 1_555 1_555
C11 C7 1_555 1_555
H13 C11 1_555 1_555
H14 C11 1_555 1_555
O6_2 Cd2 1_555 1_555
O8 Cd2 1_555 1_555
N3_2 Cd2 1_555 1_555
O5 C7 1_555 1_555
O6_2 C6_2 1_555 1_555
O2_2 C6_2 1_555 1_555
O8 H5_2 1_555 1_555
C6_2 C10_2 1_555 1_555
C8_2 O8 1_555 1_555
H6_2 C8_2 1_555 1_555
H7_2 C8_2 1_555 1_555
N3_2 H8_2 1_555 1_555
C9_2 C4_2 1_555 1_555
H9_2 C9_2 1_555 1_555
H10_2 C9_2 1_555 1_555
C10_2 C8_2 1_555 1_555
H11_2 C10_2 1_555 1_555
N3_2 C9_2 1_555 1_555
N3_2 C10_2 1_555 1_555
H4_3 C5_3 1_555 1_555
C7_2 O4_2 1_555 1_555
C11_2 C7_2 1_555 1_555
H12 C11_2 1_555 1_555
H13_2 C11_2 1_555 1_555
H14_2 C11_2 1_555 1_555
O5_2 C7_2 1_555 1_555
O6 C6_3 1_555 1_555
H4_4 C5_4 1_555 1_555
C6_3 C10_3 1_555 1_555
H6_3 C8_3 1_555 1_555
H7_3 C8_3 1_555 1_555
N3 H8_3 1_555 1_555
C9_3 C4_3 1_555 1_555
H9_3 C9_3 1_555 1_555
H10_3 C9_3 1_555 1_555
C10_3 C8_3 1_555 1_555
H11_3 C10_3 1_555 1_555
C4_3 C5_4 1_555 1_555
N3 C9_3 1_555 1_555
N3 C10_3 1_555 1_555
Cd3 N1_3 1_555 1_555
N1_3 C1_3 1_555 1_555
C1_3 H1_2 1_555 1_555
C2_2 C1_3 1_555 1_555
H2_2 C2_2 1_555 1_555
C3_3 N1_3 1_555 1_555
H3_3 C3_3 1_555 1_555
C7_3 O4_3 1_555 1_555
C11_3 C7_3 1_555 1_555
H12_2 C11_3 1_555 1_555
H13_3 C11_3 1_555 1_555
H14_3 C11_3 1_555 1_555
O5_3 C7_3 1_555 1_555
O8_2 H5_3 1_555 1_555
O1_2 C6_4 1_555 1_555
H2_3 C2_3 1_555 1_555
C4_4 C2_3 1_555 1_555
O3_2 H5_4 1_555 1_555
C6_4 C10_4 1_555 1_555
C8_4 O3_2 1_555 1_555
H6_4 C8_4 1_555 1_555
H7_4 C8_4 1_555 1_555
N2_2 H8_4 1_555 1_555
C9_4 C4_4 1_555 1_555
H9_4 C9_4 1_555 1_555
H10_4 C9_4 1_555 1_555
C10_4 C8_4 1_555 1_555
H11_4 C10_4 1_555 1_555
Cd3_2 O1_2 1_555 1_555
O3_2 Cd3_2 1_555 1_555
N2_2 C9_4 1_555 1_555
N2_2 C10_4 1_555 1_555
N2_2 Cd3_2 1_555 1_555
Cd3_2 N1_4 1_555 1_555
N1_4 C1_4 1_555 1_555
C3_4 N1_4 1_555 1_555
H3_4 C3_4 1_555 1_555
O4_4 Cd3_2 1_555 1_555
O5_4 Cd3_2 1_555 1_555
C7_4 O4_4 1_555 1_555
C11_4 C7_4 1_555 1_555
H13_4 C11_4 1_555 1_555
H14_4 C11_4 1_555 1_555
O7_2 Cd3_2 1_555 1_555
O5_4 C7_4 1_555 1_555
H2_4 C2_4 1_555 1_555

#END
