
###############################################################################
#
# This file contains modified crystal structure data generated from the
# MOF subset of the Cambridge Structural Database (CSD) v543 
# hosted by the Cambridge Crystallographic Data Centre (CCDC).
#
# This work is licensed under the Creative Commons
# Attribution-NonCommercial-ShareAlike 4.0 International License.
# To view a copy of this license, visit
# http://creativecommons.org/licenses/by-nc-sa/4.0/
# or send a letter to
# Creative Commons, PO Box 1866, Mountain View, CA 94042, USA.
#
# CIF created using the CSD Python API on 29 September 2022
# The structure has been converted into the P1 space group
# The structure has a 3D framework
# The original CSD entry GORBOH is in the cubic crystal system
# The framework has been calculated to contain at least 10.0% void space
# The void calculation uses a probe of radius 1.32A, grid spacing 0.4
#
###############################################################################

data_GORBOH
_chemical_formula_moiety         '(C144 Ce33 O160)n'
_symmetry_cell_setting           triclinic
_symmetry_space_group_name_H-M   'P 1'
_symmetry_Int_Tables_number      1
_space_group_name_Hall           'P 1'
loop_
_symmetry_equiv_pos_site_id
_symmetry_equiv_pos_as_xyz
1 x,y,z
_cell_length_a                   19.1733(5)
_cell_length_b                   19.1733(5)
_cell_length_c                   19.1733(5)
_cell_angle_alpha                90
_cell_angle_beta                 90
_cell_angle_gamma                90
_cell_volume                     7048.4
loop_
_atom_site_label
_atom_site_type_symbol
_atom_site_fract_x
_atom_site_fract_y
_atom_site_fract_z
_atom_site_U_iso_or_equiv
_atom_site_thermal_displace_type
Ce8 Ce -0.000 0.86381(19) 0.000 0.0320 Uiso
Ce10 Ce -0.000 0.13619(19) 0.000 0.0320 Uiso
Ce8_2 Ce -0.000 0.86381(19) 1.000 0.0320 Uiso
Ce10_2 Ce -0.000 0.13619(19) 1.000 0.0320 Uiso
Ce7 Ce 0.86381(19) 0.000 0.000 0.0320 Uiso
Ce7_2 Ce 0.86381(19) -0.000 1.000 0.0320 Uiso
Ce1 Ce 0.63619(19) 0.500 0.000 0.0320 Uiso
O2 O 0.6892(8) 0.3938(9) 0.000 0.0320 Uiso
C1 C 0.669(2) 0.331(2) 0.000 0.0320 Uiso
C2 C 0.7260(18) 0.2740(18) 0.000 0.0320 Uiso
O3 O 0.6062(9) 0.3108(8) 0.000 0.0320 Uiso
O4 O 0.8108(8) 0.1062(9) 0.000 0.0320 Uiso
C3 C 0.831(2) 0.169(2) 0.000 0.0320 Uiso
C4 C 0.7740(18) 0.2260(18) 0.000 0.0320 Uiso
O5 O 0.8938(9) 0.1892(8) 0.000 0.0320 Uiso
Ce2 Ce 0.500 0.36381(19) 0.000 0.0320 Uiso
O6 O 0.5740(9) 0.4260(9) 0.0740(9) 0.0320 Uiso
Ce3 Ce 0.500 0.63619(19) 0.000 0.0320 Uiso
O7 O 0.5740(9) 0.5740(9) 0.0740(9) 0.0320 Uiso
O8 O 0.6062(9) 0.6892(8) 0.000 0.0320 Uiso
C5 C 0.669(2) 0.669(2) 0.000 0.0320 Uiso
C6 C 0.7260(18) 0.7260(18) 0.000 0.0320 Uiso
O9 O 0.6892(8) 0.6062(9) 0.000 0.0320 Uiso
O10 O 0.8938(9) 0.8108(8) 0.000 0.0320 Uiso
C7 C 0.831(2) 0.831(2) 0.000 0.0320 Uiso
C8 C 0.7740(18) 0.7740(18) 0.000 0.0320 Uiso
O11 O 0.8108(8) 0.8938(9) 0.000 0.0320 Uiso
O13 O 0.3938(9) 0.3108(8) 0.000 0.0320 Uiso
C9 C 0.331(2) 0.331(2) 0.000 0.0320 Uiso
C10 C 0.2740(18) 0.2740(18) 0.000 0.0320 Uiso
O14 O 0.3108(8) 0.3938(9) 0.000 0.0320 Uiso
O15 O 0.1062(9) 0.1892(8) 0.000 0.0320 Uiso
C11 C 0.169(2) 0.169(2) 0.000 0.0320 Uiso
C12 C 0.2260(18) 0.2260(18) 0.000 0.0320 Uiso
O16 O 0.1892(8) 0.1062(9) 0.000 0.0320 Uiso
Ce4 Ce 0.36381(19) 0.500 0.000 0.0320 Uiso
Ce5 Ce 0.13619(19) 0.000 0.000 0.0320 Uiso
Ce7_3 Ce 0.86381(19) 1.000 0.000 0.0320 Uiso
Ce8_3 Ce 1.000 0.86381(19) 0.000 0.0320 Uiso
Ce10_3 Ce 1.000 0.13619(19) 0.000 0.0320 Uiso
Ce12 Ce 0.500 0.500 0.13619(19) 0.0320 Uiso
O18 O 0.4260(9) 0.4260(9) 0.0740(9) 0.0320 Uiso
O20 O 0.4260(9) 0.5740(9) 0.0740(9) 0.0320 Uiso
O21 O 0.3938(9) 0.6892(8) 0.000 0.0320 Uiso
O22 O 0.500 0.3108(8) 0.1062(9) 0.0320 Uiso
O24 O 0.500 0.6892(8) 0.1062(9) 0.0320 Uiso
O26 O 0.6892(8) 0.500 0.1062(9) 0.0320 Uiso
Ce1_2 Ce 0.63619(19) 0.500 1.000 0.0320 Uiso
O1 O 0.5740(9) 0.4260(9) 0.9260(9) 0.0320 Uiso
O2_2 O 0.6892(8) 0.3938(9) 1.000 0.0320 Uiso
C1_2 C 0.669(2) 0.331(2) 1.000 0.0320 Uiso
C2_2 C 0.7260(18) 0.2740(18) 1.000 0.0320 Uiso
O3_2 O 0.6062(9) 0.3108(8) 1.000 0.0320 Uiso
O4_2 O 0.8108(8) 0.1062(9) 1.000 0.0320 Uiso
C3_2 C 0.831(2) 0.169(2) 1.000 0.0320 Uiso
C4_2 C 0.7740(18) 0.2260(18) 1.000 0.0320 Uiso
O5_2 O 0.8938(9) 0.1892(8) 1.000 0.0320 Uiso
Ce2_2 Ce 0.500 0.36381(19) 1.000 0.0320 Uiso
Ce3_2 Ce 0.500 0.63619(19) 1.000 0.0320 Uiso
O8_2 O 0.6062(9) 0.6892(8) 1.000 0.0320 Uiso
C5_2 C 0.669(2) 0.669(2) 1.000 0.0320 Uiso
C6_2 C 0.7260(18) 0.7260(18) 1.000 0.0320 Uiso
O9_2 O 0.6892(8) 0.6062(9) 1.000 0.0320 Uiso
O10_2 O 0.8938(9) 0.8108(8) 1.000 0.0320 Uiso
C7_2 C 0.831(2) 0.831(2) 1.000 0.0320 Uiso
C8_2 C 0.7740(18) 0.7740(18) 1.000 0.0320 Uiso
O11_2 O 0.8108(8) 0.8938(9) 1.000 0.0320 Uiso
O12 O 0.5740(9) 0.5740(9) 0.9260(9) 0.0320 Uiso
O13_2 O 0.3938(9) 0.3108(8) 1.000 0.0320 Uiso
C9_2 C 0.331(2) 0.331(2) 1.000 0.0320 Uiso
C10_2 C 0.2740(18) 0.2740(18) 1.000 0.0320 Uiso
O14_2 O 0.3108(8) 0.3938(9) 1.000 0.0320 Uiso
O15_2 O 0.1062(9) 0.1892(8) 1.000 0.0320 Uiso
C11_2 C 0.169(2) 0.169(2) 1.000 0.0320 Uiso
C12_2 C 0.2260(18) 0.2260(18) 1.000 0.0320 Uiso
O16_2 O 0.1892(8) 0.1062(9) 1.000 0.0320 Uiso
Ce4_2 Ce 0.36381(19) 0.500 1.000 0.0320 Uiso
Ce5_2 Ce 0.13619(19) -0.000 1.000 0.0320 Uiso
Ce7_4 Ce 0.86381(19) 1.000 1.000 0.0320 Uiso
Ce8_4 Ce 1.000 0.86381(19) 1.000 0.0320 Uiso
Ce10_4 Ce 1.000 0.13619(19) 1.000 0.0320 Uiso
Ce11 Ce 0.500 0.500 0.86381(19) 0.0320 Uiso
O17 O 0.4260(9) 0.5740(9) 0.9260(9) 0.0320 Uiso
O19 O 0.4260(9) 0.4260(9) 0.9260(9) 0.0320 Uiso
O21_2 O 0.3938(9) 0.6892(8) 1.000 0.0320 Uiso
O23 O 0.500 0.3108(8) 0.8938(9) 0.0320 Uiso
O25 O 0.500 0.6892(8) 0.8938(9) 0.0320 Uiso
O27 O 0.6892(8) 0.500 0.8938(9) 0.0320 Uiso
Ce5_3 Ce 0.13619(19) 1.000 0.000 0.0320 Uiso
Ce5_4 Ce 0.13619(19) 1.000 1.000 0.0320 Uiso
O2_3 O 0.3108(8) 0.6062(9) 0.000 0.0320 Uiso
C1_3 C 0.331(2) 0.669(2) 0.000 0.0320 Uiso
C2_3 C 0.2740(18) 0.7260(18) 0.000 0.0320 Uiso
O4_3 O 0.1892(8) 0.8938(9) 0.000 0.0320 Uiso
C3_3 C 0.169(2) 0.831(2) 0.000 0.0320 Uiso
C4_3 C 0.2260(18) 0.7740(18) 0.000 0.0320 Uiso
O5_3 O 0.1062(9) 0.8108(8) 0.000 0.0320 Uiso
O26_2 O 0.3108(8) 0.500 0.1062(9) 0.0320 Uiso
O2_4 O 0.3108(8) 0.6062(9) 1.000 0.0320 Uiso
C1_4 C 0.331(2) 0.669(2) 1.000 0.0320 Uiso
C2_4 C 0.2740(18) 0.7260(18) 1.000 0.0320 Uiso
O4_4 O 0.1892(8) 0.8938(9) 1.000 0.0320 Uiso
C3_4 C 0.169(2) 0.831(2) 1.000 0.0320 Uiso
C4_4 C 0.2260(18) 0.7740(18) 1.000 0.0320 Uiso
O5_4 O 0.1062(9) 0.8108(8) 1.000 0.0320 Uiso
O27_2 O 0.3108(8) 0.500 0.8938(9) 0.0320 Uiso
Ce9 Ce -0.000 -0.000 0.86381(19) 0.0320 Uiso
Ce9_2 Ce -0.000 1.000 0.86381(19) 0.0320 Uiso
Ce1_3 Ce 0.36381(19) -0.000 0.500 0.0320 Uiso
O1_2 O 0.4260(9) 0.0740(9) 0.5740(9) 0.0320 Uiso
O2_5 O 0.3108(8) 0.000 0.6062(9) 0.0320 Uiso
C1_5 C 0.331(2) -0.000 0.669(2) 0.0320 Uiso
C2_5 C 0.2740(18) -0.000 0.7260(18) 0.0320 Uiso
O3_3 O 0.3938(9) 0.000 0.6892(8) 0.0320 Uiso
O4_5 O 0.1892(8) 0.000 0.8938(9) 0.0320 Uiso
C3_5 C 0.169(2) -0.000 0.831(2) 0.0320 Uiso
C4_5 C 0.2260(18) -0.000 0.7740(18) 0.0320 Uiso
O5_5 O 0.1062(9) 0.000 0.8108(8) 0.0320 Uiso
Ce2_3 Ce 0.500 0.000 0.63619(19) 0.0320 Uiso
Ce3_3 Ce 0.500 0.000 0.36381(19) 0.0320 Uiso
O8_3 O 0.3938(9) -0.000 0.3108(8) 0.0320 Uiso
C5_3 C 0.331(2) -0.000 0.331(2) 0.0320 Uiso
C6_3 C 0.2740(18) 0.000 0.2740(18) 0.0320 Uiso
O9_3 O 0.3108(8) -0.000 0.3938(9) 0.0320 Uiso
O10_3 O 0.1062(9) 0.000 0.1892(8) 0.0320 Uiso
C7_3 C 0.169(2) -0.000 0.169(2) 0.0320 Uiso
C8_3 C 0.2260(18) 0.000 0.2260(18) 0.0320 Uiso
O11_3 O 0.1892(8) -0.000 0.1062(9) 0.0320 Uiso
O12_2 O 0.4260(9) 0.0740(9) 0.4260(9) 0.0320 Uiso
O13_3 O 0.6062(9) 0.000 0.6892(8) 0.0320 Uiso
C9_3 C 0.669(2) -0.000 0.669(2) 0.0320 Uiso
C10_3 C 0.7260(18) -0.000 0.7260(18) 0.0320 Uiso
O14_3 O 0.6892(8) 0.000 0.6062(9) 0.0320 Uiso
O15_3 O 0.8938(9) 0.000 0.8108(8) 0.0320 Uiso
C11_3 C 0.831(2) -0.000 0.831(2) 0.0320 Uiso
C12_3 C 0.7740(18) -0.000 0.7740(18) 0.0320 Uiso
O16_3 O 0.8108(8) 0.000 0.8938(9) 0.0320 Uiso
Ce4_3 Ce 0.63619(19) -0.000 0.500 0.0320 Uiso
Ce8_5 Ce 0.000 0.000 0.13619(19) 0.0320 Uiso
Ce9_3 Ce 1.000 -0.000 0.86381(19) 0.0320 Uiso
Ce11_2 Ce 0.500 0.13619(19) 0.500 0.0320 Uiso
O17_2 O 0.5740(9) 0.0740(9) 0.4260(9) 0.0320 Uiso
O19_2 O 0.5740(9) 0.0740(9) 0.5740(9) 0.0320 Uiso
O21_3 O 0.6062(9) -0.000 0.3108(8) 0.0320 Uiso
O23_2 O 0.500 0.1062(9) 0.6892(8) 0.0320 Uiso
O25_2 O 0.500 0.1062(9) 0.3108(8) 0.0320 Uiso
O27_3 O 0.3108(8) 0.1062(9) 0.500 0.0320 Uiso
Ce1_4 Ce 0.36381(19) 1.000 0.500 0.0320 Uiso
O2_6 O 0.3108(8) 1.000 0.6062(9) 0.0320 Uiso
C1_6 C 0.331(2) 1.000 0.669(2) 0.0320 Uiso
C2_6 C 0.2740(18) 1.000 0.7260(18) 0.0320 Uiso
O3_4 O 0.3938(9) 1.000 0.6892(8) 0.0320 Uiso
O4_6 O 0.1892(8) 1.000 0.8938(9) 0.0320 Uiso
C3_6 C 0.169(2) 1.000 0.831(2) 0.0320 Uiso
C4_6 C 0.2260(18) 1.000 0.7740(18) 0.0320 Uiso
O5_6 O 0.1062(9) 1.000 0.8108(8) 0.0320 Uiso
Ce2_4 Ce 0.500 1.000 0.63619(19) 0.0320 Uiso
O6_2 O 0.4260(9) 0.9260(9) 0.5740(9) 0.0320 Uiso
Ce3_4 Ce 0.500 1.000 0.36381(19) 0.0320 Uiso
O7_2 O 0.4260(9) 0.9260(9) 0.4260(9) 0.0320 Uiso
O8_4 O 0.3938(9) 1.000 0.3108(8) 0.0320 Uiso
C5_4 C 0.331(2) 1.000 0.331(2) 0.0320 Uiso
C6_4 C 0.2740(18) 1.000 0.2740(18) 0.0320 Uiso
O9_4 O 0.3108(8) 1.000 0.3938(9) 0.0320 Uiso
O10_4 O 0.1062(9) 1.000 0.1892(8) 0.0320 Uiso
C7_4 C 0.169(2) 1.000 0.169(2) 0.0320 Uiso
C8_4 C 0.2260(18) 1.000 0.2260(18) 0.0320 Uiso
O11_4 O 0.1892(8) 1.000 0.1062(9) 0.0320 Uiso
O13_4 O 0.6062(9) 1.000 0.6892(8) 0.0320 Uiso
C9_4 C 0.669(2) 1.000 0.669(2) 0.0320 Uiso
C10_4 C 0.7260(18) 1.000 0.7260(18) 0.0320 Uiso
O14_4 O 0.6892(8) 1.000 0.6062(9) 0.0320 Uiso
O15_4 O 0.8938(9) 1.000 0.8108(8) 0.0320 Uiso
C11_4 C 0.831(2) 1.000 0.831(2) 0.0320 Uiso
C12_4 C 0.7740(18) 1.000 0.7740(18) 0.0320 Uiso
O16_4 O 0.8108(8) 1.000 0.8938(9) 0.0320 Uiso
Ce4_4 Ce 0.63619(19) 1.000 0.500 0.0320 Uiso
Ce8_6 Ce 0.000 1.000 0.13619(19) 0.0320 Uiso
Ce9_4 Ce 1.000 1.000 0.86381(19) 0.0320 Uiso
Ce12_2 Ce 0.500 0.86381(19) 0.500 0.0320 Uiso
O18_2 O 0.5740(9) 0.9260(9) 0.5740(9) 0.0320 Uiso
O20_2 O 0.5740(9) 0.9260(9) 0.4260(9) 0.0320 Uiso
O21_4 O 0.6062(9) 1.000 0.3108(8) 0.0320 Uiso
O22_2 O 0.500 0.8938(9) 0.6892(8) 0.0320 Uiso
O24_2 O 0.500 0.8938(9) 0.3108(8) 0.0320 Uiso
O26_3 O 0.3108(8) 0.8938(9) 0.500 0.0320 Uiso
Ce8_7 Ce 1.000 0.000 0.13619(19) 0.0320 Uiso
Ce8_8 Ce 1.000 1.000 0.13619(19) 0.0320 Uiso
C9_5 C 0.669(2) -0.000 0.331(2) 0.0320 Uiso
C10_5 C 0.7260(18) 0.000 0.2740(18) 0.0320 Uiso
O14_5 O 0.6892(8) -0.000 0.3938(9) 0.0320 Uiso
O15_5 O 0.8938(9) -0.000 0.1892(8) 0.0320 Uiso
C11_5 C 0.831(2) 0.000 0.169(2) 0.0320 Uiso
C12_5 C 0.7740(18) 0.000 0.2260(18) 0.0320 Uiso
O16_5 O 0.8108(8) 0.000 0.1062(9) 0.0320 Uiso
C9_6 C 0.669(2) 1.000 0.331(2) 0.0320 Uiso
C10_6 C 0.7260(18) 1.000 0.2740(18) 0.0320 Uiso
O14_6 O 0.6892(8) 1.000 0.3938(9) 0.0320 Uiso
O15_6 O 0.8938(9) 1.000 0.1892(8) 0.0320 Uiso
C11_6 C 0.831(2) 1.000 0.169(2) 0.0320 Uiso
C12_6 C 0.7740(18) 1.000 0.2260(18) 0.0320 Uiso
O16_6 O 0.8108(8) 1.000 0.1062(9) 0.0320 Uiso
O23_3 O 0.6892(8) 0.1062(9) 0.500 0.0320 Uiso
O22_3 O 0.6892(8) 0.8938(9) 0.500 0.0320 Uiso
Ce1_5 Ce 0.000 0.36381(19) 0.500 0.0320 Uiso
O1_3 O 0.0740(9) 0.4260(9) 0.4260(9) 0.0320 Uiso
O2_7 O -0.000 0.3108(8) 0.3938(9) 0.0320 Uiso
C1_7 C -0.000 0.331(2) 0.331(2) 0.0320 Uiso
C2_7 C 0.000 0.2740(18) 0.2740(18) 0.0320 Uiso
O3_5 O -0.000 0.3938(9) 0.3108(8) 0.0320 Uiso
O4_7 O 0.000 0.1892(8) 0.1062(9) 0.0320 Uiso
C3_7 C 0.000 0.169(2) 0.169(2) 0.0320 Uiso
C4_7 C 0.000 0.2260(18) 0.2260(18) 0.0320 Uiso
O5_7 O -0.000 0.1062(9) 0.1892(8) 0.0320 Uiso
Ce2_5 Ce 0.000 0.500 0.36381(19) 0.0320 Uiso
Ce3_5 Ce -0.000 0.500 0.63619(19) 0.0320 Uiso
O8_5 O -0.000 0.3938(9) 0.6892(8) 0.0320 Uiso
C5_5 C -0.000 0.331(2) 0.669(2) 0.0320 Uiso
C6_5 C -0.000 0.2740(18) 0.7260(18) 0.0320 Uiso
O9_5 O 0.000 0.3108(8) 0.6062(9) 0.0320 Uiso
O10_5 O 0.000 0.1062(9) 0.8108(8) 0.0320 Uiso
C7_5 C -0.000 0.169(2) 0.831(2) 0.0320 Uiso
C8_5 C -0.000 0.2260(18) 0.7740(18) 0.0320 Uiso
O11_5 O 0.000 0.1892(8) 0.8938(9) 0.0320 Uiso
O12_3 O 0.0740(9) 0.4260(9) 0.5740(9) 0.0320 Uiso
O13_5 O 0.000 0.6062(9) 0.3108(8) 0.0320 Uiso
C9_7 C -0.000 0.669(2) 0.331(2) 0.0320 Uiso
C10_7 C -0.000 0.7260(18) 0.2740(18) 0.0320 Uiso
O14_7 O -0.000 0.6892(8) 0.3938(9) 0.0320 Uiso
O15_7 O 0.000 0.8938(9) 0.1892(8) 0.0320 Uiso
C11_7 C -0.000 0.831(2) 0.169(2) 0.0320 Uiso
C12_7 C -0.000 0.7740(18) 0.2260(18) 0.0320 Uiso
O16_7 O 0.000 0.8108(8) 0.1062(9) 0.0320 Uiso
Ce4_5 Ce -0.000 0.63619(19) 0.500 0.0320 Uiso
Ce11_3 Ce 0.13619(19) 0.500 0.500 0.0320 Uiso
O17_3 O 0.0740(9) 0.5740(9) 0.5740(9) 0.0320 Uiso
O19_3 O 0.0740(9) 0.5740(9) 0.4260(9) 0.0320 Uiso
O21_5 O 0.000 0.6062(9) 0.6892(8) 0.0320 Uiso
O23_4 O 0.1062(9) 0.500 0.3108(8) 0.0320 Uiso
O25_3 O 0.1062(9) 0.500 0.6892(8) 0.0320 Uiso
O27_4 O 0.1062(9) 0.3108(8) 0.500 0.0320 Uiso
Ce1_6 Ce 1.000 0.36381(19) 0.500 0.0320 Uiso
O2_8 O 1.000 0.3108(8) 0.3938(9) 0.0320 Uiso
C1_8 C 1.000 0.331(2) 0.331(2) 0.0320 Uiso
C2_8 C 1.000 0.2740(18) 0.2740(18) 0.0320 Uiso
O3_6 O 1.000 0.3938(9) 0.3108(8) 0.0320 Uiso
O4_8 O 1.000 0.1892(8) 0.1062(9) 0.0320 Uiso
C3_8 C 1.000 0.169(2) 0.169(2) 0.0320 Uiso
C4_8 C 1.000 0.2260(18) 0.2260(18) 0.0320 Uiso
O5_8 O 1.000 0.1062(9) 0.1892(8) 0.0320 Uiso
Ce2_6 Ce 1.000 0.500 0.36381(19) 0.0320 Uiso
O6_3 O 0.9260(9) 0.4260(9) 0.4260(9) 0.0320 Uiso
Ce3_6 Ce 1.000 0.500 0.63619(19) 0.0320 Uiso
O7_3 O 0.9260(9) 0.4260(9) 0.5740(9) 0.0320 Uiso
O8_6 O 1.000 0.3938(9) 0.6892(8) 0.0320 Uiso
C5_6 C 1.000 0.331(2) 0.669(2) 0.0320 Uiso
C6_6 C 1.000 0.2740(18) 0.7260(18) 0.0320 Uiso
O9_6 O 1.000 0.3108(8) 0.6062(9) 0.0320 Uiso
O10_6 O 1.000 0.1062(9) 0.8108(8) 0.0320 Uiso
C7_6 C 1.000 0.169(2) 0.831(2) 0.0320 Uiso
C8_6 C 1.000 0.2260(18) 0.7740(18) 0.0320 Uiso
O11_6 O 1.000 0.1892(8) 0.8938(9) 0.0320 Uiso
O13_6 O 1.000 0.6062(9) 0.3108(8) 0.0320 Uiso
C9_8 C 1.000 0.669(2) 0.331(2) 0.0320 Uiso
C10_8 C 1.000 0.7260(18) 0.2740(18) 0.0320 Uiso
O14_8 O 1.000 0.6892(8) 0.3938(9) 0.0320 Uiso
O15_8 O 1.000 0.8938(9) 0.1892(8) 0.0320 Uiso
C11_8 C 1.000 0.831(2) 0.169(2) 0.0320 Uiso
C12_8 C 1.000 0.7740(18) 0.2260(18) 0.0320 Uiso
O16_8 O 1.000 0.8108(8) 0.1062(9) 0.0320 Uiso
Ce4_6 Ce 1.000 0.63619(19) 0.500 0.0320 Uiso
Ce12_3 Ce 0.86381(19) 0.500 0.500 0.0320 Uiso
O18_3 O 0.9260(9) 0.5740(9) 0.4260(9) 0.0320 Uiso
O20_3 O 0.9260(9) 0.5740(9) 0.5740(9) 0.0320 Uiso
O21_6 O 1.000 0.6062(9) 0.6892(8) 0.0320 Uiso
O22_4 O 0.8938(9) 0.500 0.3108(8) 0.0320 Uiso
O24_3 O 0.8938(9) 0.500 0.6892(8) 0.0320 Uiso
O26_4 O 0.8938(9) 0.3108(8) 0.500 0.0320 Uiso
O13_7 O 0.000 0.6892(8) 0.6062(9) 0.0320 Uiso
C9_9 C -0.000 0.669(2) 0.669(2) 0.0320 Uiso
C10_9 C -0.000 0.7260(18) 0.7260(18) 0.0320 Uiso
O15_9 O -0.000 0.8108(8) 0.8938(9) 0.0320 Uiso
C11_9 C -0.000 0.831(2) 0.831(2) 0.0320 Uiso
C12_9 C -0.000 0.7740(18) 0.7740(18) 0.0320 Uiso
O16_9 O -0.000 0.8938(9) 0.8108(8) 0.0320 Uiso
O23_5 O 0.1062(9) 0.6892(8) 0.500 0.0320 Uiso
O13_8 O 1.000 0.6892(8) 0.6062(9) 0.0320 Uiso
C9_10 C 1.000 0.669(2) 0.669(2) 0.0320 Uiso
C10_10 C 1.000 0.7260(18) 0.7260(18) 0.0320 Uiso
O15_10 O 1.000 0.8108(8) 0.8938(9) 0.0320 Uiso
C11_10 C 1.000 0.831(2) 0.831(2) 0.0320 Uiso
C12_10 C 1.000 0.7740(18) 0.7740(18) 0.0320 Uiso
O16_10 O 1.000 0.8938(9) 0.8108(8) 0.0320 Uiso
O22_5 O 0.8938(9) 0.6892(8) 0.500 0.0320 Uiso
O7_4 O 0.0740(9) 0.0740(9) 0.0740(9) 0.0320 Uiso
O12_4 O 0.0740(9) 0.0740(9) 0.9260(9) 0.0320 Uiso
O6_4 O 0.0740(9) 0.9260(9) 0.0740(9) 0.0320 Uiso
O1_4 O 0.0740(9) 0.9260(9) 0.9260(9) 0.0320 Uiso
O20_4 O 0.9260(9) 0.0740(9) 0.0740(9) 0.0320 Uiso
O17_4 O 0.9260(9) 0.0740(9) 0.9260(9) 0.0320 Uiso
O18_4 O 0.9260(9) 0.9260(9) 0.0740(9) 0.0320 Uiso
O19_4 O 0.9260(9) 0.9260(9) 0.9260(9) 0.0320 Uiso
C9_11 C 0.169(2) 0.500 0.669(2) 0.0320 Uiso
C10_11 C 0.2260(18) 0.500 0.7260(18) 0.0320 Uiso
O14_9 O 0.1892(8) 0.500 0.6062(9) 0.0320 Uiso
O15_11 O 0.3938(9) 0.500 0.8108(8) 0.0320 Uiso
C11_11 C 0.331(2) 0.500 0.831(2) 0.0320 Uiso
C12_11 C 0.2740(18) 0.500 0.7740(18) 0.0320 Uiso
O2_9 O 0.8108(8) 0.500 0.6062(9) 0.0320 Uiso
C1_9 C 0.831(2) 0.500 0.669(2) 0.0320 Uiso
C2_9 C 0.7740(18) 0.500 0.7260(18) 0.0320 Uiso
C3_9 C 0.669(2) 0.500 0.831(2) 0.0320 Uiso
C4_9 C 0.7260(18) 0.500 0.7740(18) 0.0320 Uiso
O5_9 O 0.6062(9) 0.500 0.8108(8) 0.0320 Uiso
C5_7 C 0.831(2) 0.500 0.331(2) 0.0320 Uiso
C6_7 C 0.7740(18) 0.500 0.2740(18) 0.0320 Uiso
O9_7 O 0.8108(8) 0.500 0.3938(9) 0.0320 Uiso
O10_7 O 0.6062(9) 0.500 0.1892(8) 0.0320 Uiso
C7_7 C 0.669(2) 0.500 0.169(2) 0.0320 Uiso
C8_7 C 0.7260(18) 0.500 0.2260(18) 0.0320 Uiso
O26_5 O 0.8108(8) 0.3938(9) 0.500 0.0320 Uiso
O27_5 O 0.8108(8) 0.6062(9) 0.500 0.0320 Uiso
C9_12 C 0.169(2) 0.500 0.331(2) 0.0320 Uiso
C10_12 C 0.2260(18) 0.500 0.2740(18) 0.0320 Uiso
O14_10 O 0.1892(8) 0.500 0.3938(9) 0.0320 Uiso
O15_12 O 0.3938(9) 0.500 0.1892(8) 0.0320 Uiso
C11_12 C 0.331(2) 0.500 0.169(2) 0.0320 Uiso
C12_12 C 0.2740(18) 0.500 0.2260(18) 0.0320 Uiso
O22_6 O 0.1892(8) 0.3938(9) 0.500 0.0320 Uiso
O23_6 O 0.1892(8) 0.6062(9) 0.500 0.0320 Uiso
C9_13 C 0.500 0.169(2) 0.331(2) 0.0320 Uiso
C10_13 C 0.500 0.2260(18) 0.2740(18) 0.0320 Uiso
O14_11 O 0.500 0.1892(8) 0.3938(9) 0.0320 Uiso
O15_13 O 0.500 0.3938(9) 0.1892(8) 0.0320 Uiso
C11_13 C 0.500 0.331(2) 0.169(2) 0.0320 Uiso
C12_13 C 0.500 0.2740(18) 0.2260(18) 0.0320 Uiso
O2_10 O 0.500 0.8108(8) 0.3938(9) 0.0320 Uiso
C1_10 C 0.500 0.831(2) 0.331(2) 0.0320 Uiso
C2_10 C 0.500 0.7740(18) 0.2740(18) 0.0320 Uiso
C3_10 C 0.500 0.669(2) 0.169(2) 0.0320 Uiso
C4_10 C 0.500 0.7260(18) 0.2260(18) 0.0320 Uiso
O5_10 O 0.500 0.6062(9) 0.1892(8) 0.0320 Uiso
C5_8 C 0.500 0.831(2) 0.669(2) 0.0320 Uiso
C6_8 C 0.500 0.7740(18) 0.7260(18) 0.0320 Uiso
O9_8 O 0.500 0.8108(8) 0.6062(9) 0.0320 Uiso
O10_8 O 0.500 0.6062(9) 0.8108(8) 0.0320 Uiso
C7_8 C 0.500 0.669(2) 0.831(2) 0.0320 Uiso
C8_8 C 0.500 0.7260(18) 0.7740(18) 0.0320 Uiso
O26_6 O 0.3938(9) 0.8108(8) 0.500 0.0320 Uiso
O27_6 O 0.6062(9) 0.8108(8) 0.500 0.0320 Uiso
O13_9 O 0.500 0.1892(8) 0.6062(9) 0.0320 Uiso
C9_14 C 0.500 0.169(2) 0.669(2) 0.0320 Uiso
C10_14 C 0.500 0.2260(18) 0.7260(18) 0.0320 Uiso
C11_14 C 0.500 0.331(2) 0.831(2) 0.0320 Uiso
C12_14 C 0.500 0.2740(18) 0.7740(18) 0.0320 Uiso
O16_11 O 0.500 0.3938(9) 0.8108(8) 0.0320 Uiso
O22_7 O 0.3938(9) 0.1892(8) 0.500 0.0320 Uiso
O23_7 O 0.6062(9) 0.1892(8) 0.500 0.0320 Uiso
C1_11 C 0.169(2) 0.331(2) 0.500 0.0320 Uiso
C2_11 C 0.2260(18) 0.2740(18) 0.500 0.0320 Uiso
C3_11 C 0.331(2) 0.169(2) 0.500 0.0320 Uiso
C4_11 C 0.2740(18) 0.2260(18) 0.500 0.0320 Uiso
C5_9 C 0.169(2) 0.669(2) 0.500 0.0320 Uiso
C6_9 C 0.2260(18) 0.7260(18) 0.500 0.0320 Uiso
C7_9 C 0.331(2) 0.831(2) 0.500 0.0320 Uiso
C8_9 C 0.2740(18) 0.7740(18) 0.500 0.0320 Uiso
C9_15 C 0.831(2) 0.331(2) 0.500 0.0320 Uiso
C10_15 C 0.7740(18) 0.2740(18) 0.500 0.0320 Uiso
C11_15 C 0.669(2) 0.169(2) 0.500 0.0320 Uiso
C12_15 C 0.7260(18) 0.2260(18) 0.500 0.0320 Uiso
C1_12 C 0.831(2) 0.669(2) 0.500 0.0320 Uiso
C2_12 C 0.7740(18) 0.7260(18) 0.500 0.0320 Uiso
C3_12 C 0.669(2) 0.831(2) 0.500 0.0320 Uiso
C4_12 C 0.7260(18) 0.7740(18) 0.500 0.0320 Uiso
loop_
_geom_bond_atom_site_label_1
_geom_bond_atom_site_label_2
_geom_bond_site_symmetry_1
_geom_bond_site_symmetry_2
O2 Ce1 1_555 1_555
C1 O2 1_555 1_555
C2 C1 1_555 1_555
O3 C1 1_555 1_555
O4 C3 1_555 1_555
C3 C4 1_555 1_555
C4 C2 1_555 1_555
O5 C3 1_555 1_555
Ce2 O3 1_555 1_555
O6 Ce1 1_555 1_555
Ce3 O7 1_555 1_555
O7 Ce1 1_555 1_555
O8 Ce3 1_555 1_555
C5 O8 1_555 1_555
C6 C5 1_555 1_555
O9 Ce1 1_555 1_555
O10 C7 1_555 1_555
C7 C8 1_555 1_555
C8 C6 1_555 1_555
O11 C7 1_555 1_555
O13 Ce2 1_555 1_555
C9 O13 1_555 1_555
C10 C9 1_555 1_555
O14 C9 1_555 1_555
O15 C11 1_555 1_555
C11 C12 1_555 1_555
C12 C10 1_555 1_555
O16 C11 1_555 1_555
Ce4 O14 1_555 1_555
Ce5 O16 1_555 1_555
Ce7 O4 1_555 1_555
Ce7_3 O11 1_555 1_555
Ce8_3 O10 1_555 1_555
Ce10 O15 1_555 1_555
Ce10_3 O5 1_555 1_555
Ce12 O6 1_555 1_555
O18 Ce2 1_555 1_555
O20 Ce3 1_555 1_555
O21 Ce3 1_555 1_555
O22 Ce2 1_555 1_555
O24 Ce3 1_555 1_555
O26 Ce1 1_555 1_555
Ce2 O6 1_555 1_555
O7 Ce12 1_555 1_555
C5 O9 1_555 1_555
Ce4 O18 1_555 1_555
Ce4 O20 1_555 1_555
Ce12 O18 1_555 1_555
Ce12 O20 1_555 1_555
Ce1_2 O1 1_555 1_555
O1 Ce2_2 1_555 1_555
O2_2 Ce1_2 1_555 1_555
C1_2 O2_2 1_555 1_555
C2_2 C1_2 1_555 1_555
O3_2 C1_2 1_555 1_555
O4_2 C3_2 1_555 1_555
C3_2 C4_2 1_555 1_555
C4_2 C2_2 1_555 1_555
O5_2 C3_2 1_555 1_555
Ce2_2 O3_2 1_555 1_555
O8_2 Ce3_2 1_555 1_555
C5_2 O8_2 1_555 1_555
C6_2 C5_2 1_555 1_555
O9_2 Ce1_2 1_555 1_555
O10_2 C7_2 1_555 1_555
C7_2 C8_2 1_555 1_555
C8_2 C6_2 1_555 1_555
O11_2 C7_2 1_555 1_555
O12 Ce1_2 1_555 1_555
O13_2 Ce2_2 1_555 1_555
C9_2 O13_2 1_555 1_555
C10_2 C9_2 1_555 1_555
O14_2 C9_2 1_555 1_555
O15_2 C11_2 1_555 1_555
C11_2 C12_2 1_555 1_555
C12_2 C10_2 1_555 1_555
O16_2 C11_2 1_555 1_555
Ce4_2 O14_2 1_555 1_555
Ce5_2 O16_2 1_555 1_555
Ce7_2 O4_2 1_555 1_555
Ce7_4 O11_2 1_555 1_555
Ce8_4 O10_2 1_555 1_555
Ce10_2 O15_2 1_555 1_555
Ce10_4 O5_2 1_555 1_555
Ce11 O1 1_555 1_555
O17 Ce3_2 1_555 1_555
O19 Ce2_2 1_555 1_555
O21_2 Ce3_2 1_555 1_555
O23 Ce2_2 1_555 1_555
O25 Ce3_2 1_555 1_555
O27 Ce1_2 1_555 1_555
Ce3_2 O12 1_555 1_555
C5_2 O9_2 1_555 1_555
O12 Ce11 1_555 1_555
Ce4_2 O17 1_555 1_555
Ce4_2 O19 1_555 1_555
Ce11 O17 1_555 1_555
Ce11 O19 1_555 1_555
O2_3 Ce4 1_555 1_555
C1_3 O2_3 1_555 1_555
C2_3 C1_3 1_555 1_555
O21 C1_3 1_555 1_555
O4_3 C3_3 1_555 1_555
C3_3 C4_3 1_555 1_555
C4_3 C2_3 1_555 1_555
O5_3 C3_3 1_555 1_555
Ce5_3 O4_3 1_555 1_555
Ce8 O5_3 1_555 1_555
O26_2 Ce4 1_555 1_555
O2_4 Ce4_2 1_555 1_555
C1_4 O2_4 1_555 1_555
C2_4 C1_4 1_555 1_555
O21_2 C1_4 1_555 1_555
O4_4 C3_4 1_555 1_555
C3_4 C4_4 1_555 1_555
C4_4 C2_4 1_555 1_555
O5_4 C3_4 1_555 1_555
Ce5_4 O4_4 1_555 1_555
Ce8_2 O5_4 1_555 1_555
O27_2 Ce4_2 1_555 1_555
Ce1_3 O1_2 1_555 1_555
O1_2 Ce2_3 1_555 1_555
O2_5 Ce1_3 1_555 1_555
C1_5 O2_5 1_555 1_555
C2_5 C1_5 1_555 1_555
O3_3 C1_5 1_555 1_555
O4_5 C3_5 1_555 1_555
C3_5 C4_5 1_555 1_555
C4_5 C2_5 1_555 1_555
O5_5 C3_5 1_555 1_555
Ce2_3 O3_3 1_555 1_555
O8_3 Ce3_3 1_555 1_555
C5_3 O8_3 1_555 1_555
C6_3 C5_3 1_555 1_555
O9_3 Ce1_3 1_555 1_555
O10_3 C7_3 1_555 1_555
C7_3 C8_3 1_555 1_555
C8_3 C6_3 1_555 1_555
O11_3 C7_3 1_555 1_555
O12_2 Ce1_3 1_555 1_555
O13_3 Ce2_3 1_555 1_555
C9_3 O13_3 1_555 1_555
C10_3 C9_3 1_555 1_555
O14_3 C9_3 1_555 1_555
O15_3 C11_3 1_555 1_555
C11_3 C12_3 1_555 1_555
C12_3 C10_3 1_555 1_555
O16_3 C11_3 1_555 1_555
Ce4_3 O14_3 1_555 1_555
Ce7_2 O16_3 1_555 1_555
Ce5_2 O4_5 1_555 1_555
Ce5 O11_3 1_555 1_555
Ce8_5 O10_3 1_555 1_555
Ce9_3 O15_3 1_555 1_555
Ce9 O5_5 1_555 1_555
Ce11_2 O1_2 1_555 1_555
O17_2 Ce3_3 1_555 1_555
O19_2 Ce2_3 1_555 1_555
O21_3 Ce3_3 1_555 1_555
O23_2 Ce2_3 1_555 1_555
O25_2 Ce3_3 1_555 1_555
O27_3 Ce1_3 1_555 1_555
Ce3_3 O12_2 1_555 1_555
C5_3 O9_3 1_555 1_555
O12_2 Ce11_2 1_555 1_555
Ce4_3 O17_2 1_555 1_555
Ce4_3 O19_2 1_555 1_555
Ce11_2 O17_2 1_555 1_555
Ce11_2 O19_2 1_555 1_555
O2_6 Ce1_4 1_555 1_555
C1_6 O2_6 1_555 1_555
C2_6 C1_6 1_555 1_555
O3_4 C1_6 1_555 1_555
O4_6 C3_6 1_555 1_555
C3_6 C4_6 1_555 1_555
C4_6 C2_6 1_555 1_555
O5_6 C3_6 1_555 1_555
Ce2_4 O3_4 1_555 1_555
O6_2 Ce1_4 1_555 1_555
Ce3_4 O7_2 1_555 1_555
O7_2 Ce1_4 1_555 1_555
O8_4 Ce3_4 1_555 1_555
C5_4 O8_4 1_555 1_555
C6_4 C5_4 1_555 1_555
O9_4 Ce1_4 1_555 1_555
O10_4 C7_4 1_555 1_555
C7_4 C8_4 1_555 1_555
C8_4 C6_4 1_555 1_555
O11_4 C7_4 1_555 1_555
O13_4 Ce2_4 1_555 1_555
C9_4 O13_4 1_555 1_555
C10_4 C9_4 1_555 1_555
O14_4 C9_4 1_555 1_555
O15_4 C11_4 1_555 1_555
C11_4 C12_4 1_555 1_555
C12_4 C10_4 1_555 1_555
O16_4 C11_4 1_555 1_555
Ce4_4 O14_4 1_555 1_555
Ce7_4 O16_4 1_555 1_555
Ce5_4 O4_6 1_555 1_555
Ce5_3 O11_4 1_555 1_555
Ce8_6 O10_4 1_555 1_555
Ce9_4 O15_4 1_555 1_555
Ce9_2 O5_6 1_555 1_555
Ce12_2 O6_2 1_555 1_555
O18_2 Ce2_4 1_555 1_555
O20_2 Ce3_4 1_555 1_555
O21_4 Ce3_4 1_555 1_555
O22_2 Ce2_4 1_555 1_555
O24_2 Ce3_4 1_555 1_555
O26_3 Ce1_4 1_555 1_555
Ce2_4 O6_2 1_555 1_555
O7_2 Ce12_2 1_555 1_555
C5_4 O9_4 1_555 1_555
Ce4_4 O18_2 1_555 1_555
Ce4_4 O20_2 1_555 1_555
Ce12_2 O18_2 1_555 1_555
Ce12_2 O20_2 1_555 1_555
C9_5 O21_3 1_555 1_555
C10_5 C9_5 1_555 1_555
O14_5 C9_5 1_555 1_555
O15_5 C11_5 1_555 1_555
C11_5 C12_5 1_555 1_555
C12_5 C10_5 1_555 1_555
O16_5 C11_5 1_555 1_555
Ce4_3 O14_5 1_555 1_555
Ce7 O16_5 1_555 1_555
Ce8_7 O15_5 1_555 1_555
C9_6 O21_4 1_555 1_555
C10_6 C9_6 1_555 1_555
O14_6 C9_6 1_555 1_555
O15_6 C11_6 1_555 1_555
C11_6 C12_6 1_555 1_555
C12_6 C10_6 1_555 1_555
O16_6 C11_6 1_555 1_555
Ce4_4 O14_6 1_555 1_555
Ce7_3 O16_6 1_555 1_555
Ce8_8 O15_6 1_555 1_555
O23_3 Ce4_3 1_555 1_555
O22_3 Ce4_4 1_555 1_555
Ce1_5 O1_3 1_555 1_555
O1_3 Ce2_5 1_555 1_555
O2_7 Ce1_5 1_555 1_555
C1_7 O2_7 1_555 1_555
C2_7 C1_7 1_555 1_555
O3_5 C1_7 1_555 1_555
O4_7 C3_7 1_555 1_555
C3_7 C4_7 1_555 1_555
C4_7 C2_7 1_555 1_555
O5_7 C3_7 1_555 1_555
Ce2_5 O3_5 1_555 1_555
O8_5 Ce3_5 1_555 1_555
C5_5 O8_5 1_555 1_555
C6_5 C5_5 1_555 1_555
O9_5 Ce1_5 1_555 1_555
O10_5 C7_5 1_555 1_555
C7_5 C8_5 1_555 1_555
C8_5 C6_5 1_555 1_555
O11_5 C7_5 1_555 1_555
O12_3 Ce1_5 1_555 1_555
O13_5 Ce2_5 1_555 1_555
C9_7 O13_5 1_555 1_555
C10_7 C9_7 1_555 1_555
O14_7 C9_7 1_555 1_555
O15_7 C11_7 1_555 1_555
C11_7 C12_7 1_555 1_555
C12_7 C10_7 1_555 1_555
O16_7 C11_7 1_555 1_555
Ce4_5 O14_7 1_555 1_555
Ce8 O16_7 1_555 1_555
Ce10 O4_7 1_555 1_555
Ce10_2 O11_5 1_555 1_555
Ce9 O10_5 1_555 1_555
Ce8_6 O15_7 1_555 1_555
Ce8_5 O5_7 1_555 1_555
Ce11_3 O1_3 1_555 1_555
O17_3 Ce3_5 1_555 1_555
O19_3 Ce2_5 1_555 1_555
O21_5 Ce3_5 1_555 1_555
O23_4 Ce2_5 1_555 1_555
O25_3 Ce3_5 1_555 1_555
O27_4 Ce1_5 1_555 1_555
Ce3_5 O12_3 1_555 1_555
C5_5 O9_5 1_555 1_555
O12_3 Ce11_3 1_555 1_555
Ce4_5 O17_3 1_555 1_555
Ce4_5 O19_3 1_555 1_555
Ce11_3 O17_3 1_555 1_555
Ce11_3 O19_3 1_555 1_555
O2_8 Ce1_6 1_555 1_555
C1_8 O2_8 1_555 1_555
C2_8 C1_8 1_555 1_555
O3_6 C1_8 1_555 1_555
O4_8 C3_8 1_555 1_555
C3_8 C4_8 1_555 1_555
C4_8 C2_8 1_555 1_555
O5_8 C3_8 1_555 1_555
Ce2_6 O3_6 1_555 1_555
O6_3 Ce1_6 1_555 1_555
Ce3_6 O7_3 1_555 1_555
O7_3 Ce1_6 1_555 1_555
O8_6 Ce3_6 1_555 1_555
C5_6 O8_6 1_555 1_555
C6_6 C5_6 1_555 1_555
O9_6 Ce1_6 1_555 1_555
O10_6 C7_6 1_555 1_555
C7_6 C8_6 1_555 1_555
C8_6 C6_6 1_555 1_555
O11_6 C7_6 1_555 1_555
O13_6 Ce2_6 1_555 1_555
C9_8 O13_6 1_555 1_555
C10_8 C9_8 1_555 1_555
O14_8 C9_8 1_555 1_555
O15_8 C11_8 1_555 1_555
C11_8 C12_8 1_555 1_555
C12_8 C10_8 1_555 1_555
O16_8 C11_8 1_555 1_555
Ce4_6 O14_8 1_555 1_555
Ce8_3 O16_8 1_555 1_555
Ce10_3 O4_8 1_555 1_555
Ce10_4 O11_6 1_555 1_555
Ce9_3 O10_6 1_555 1_555
Ce8_8 O15_8 1_555 1_555
Ce8_7 O5_8 1_555 1_555
Ce12_3 O6_3 1_555 1_555
O18_3 Ce2_6 1_555 1_555
O20_3 Ce3_6 1_555 1_555
O21_6 Ce3_6 1_555 1_555
O22_4 Ce2_6 1_555 1_555
O24_3 Ce3_6 1_555 1_555
O26_4 Ce1_6 1_555 1_555
Ce2_6 O6_3 1_555 1_555
O7_3 Ce12_3 1_555 1_555
C5_6 O9_6 1_555 1_555
Ce4_6 O18_3 1_555 1_555
Ce4_6 O20_3 1_555 1_555
Ce12_3 O18_3 1_555 1_555
Ce12_3 O20_3 1_555 1_555
O13_7 Ce4_5 1_555 1_555
C9_9 O13_7 1_555 1_555
C10_9 C9_9 1_555 1_555
O21_5 C9_9 1_555 1_555
O15_9 C11_9 1_555 1_555
C11_9 C12_9 1_555 1_555
C12_9 C10_9 1_555 1_555
O16_9 C11_9 1_555 1_555
Ce9_2 O16_9 1_555 1_555
Ce8_2 O15_9 1_555 1_555
O23_5 Ce4_5 1_555 1_555
O13_8 Ce4_6 1_555 1_555
C9_10 O13_8 1_555 1_555
C10_10 C9_10 1_555 1_555
O21_6 C9_10 1_555 1_555
O15_10 C11_10 1_555 1_555
C11_10 C12_10 1_555 1_555
C12_10 C10_10 1_555 1_555
O16_10 C11_10 1_555 1_555
Ce9_4 O16_10 1_555 1_555
Ce8_4 O15_10 1_555 1_555
O22_5 Ce4_6 1_555 1_555
Ce10 O7_4 1_555 1_555
O7_4 Ce5 1_555 1_555
O7_4 Ce8_5 1_555 1_555
O12_4 Ce5_2 1_555 1_555
Ce10_2 O12_4 1_555 1_555
O12_4 Ce9 1_555 1_555
O6_4 Ce5_3 1_555 1_555
Ce8_6 O6_4 1_555 1_555
Ce8 O6_4 1_555 1_555
Ce5_4 O1_4 1_555 1_555
O1_4 Ce8_2 1_555 1_555
Ce9_2 O1_4 1_555 1_555
O20_4 Ce10_3 1_555 1_555
Ce7 O20_4 1_555 1_555
Ce8_7 O20_4 1_555 1_555
O17_4 Ce10_4 1_555 1_555
Ce7_2 O17_4 1_555 1_555
Ce9_3 O17_4 1_555 1_555
O18_4 Ce8_3 1_555 1_555
Ce7_3 O18_4 1_555 1_555
Ce8_8 O18_4 1_555 1_555
O19_4 Ce8_4 1_555 1_555
Ce7_4 O19_4 1_555 1_555
Ce9_4 O19_4 1_555 1_555
C9_11 O25_3 1_555 1_555
C10_11 C9_11 1_555 1_555
O14_9 C9_11 1_555 1_555
O15_11 C11_11 1_555 1_555
C11_11 C12_11 1_555 1_555
C12_11 C10_11 1_555 1_555
O27_2 C11_11 1_555 1_555
Ce11_3 O14_9 1_555 1_555
Ce11 O15_11 1_555 1_555
O2_9 Ce12_3 1_555 1_555
C1_9 O2_9 1_555 1_555
C2_9 C1_9 1_555 1_555
O24_3 C1_9 1_555 1_555
O27 C3_9 1_555 1_555
C3_9 C4_9 1_555 1_555
C4_9 C2_9 1_555 1_555
O5_9 C3_9 1_555 1_555
C5_7 O22_4 1_555 1_555
C6_7 C5_7 1_555 1_555
O9_7 Ce12_3 1_555 1_555
O10_7 C7_7 1_555 1_555
C7_7 C8_7 1_555 1_555
C8_7 C6_7 1_555 1_555
O26 C7_7 1_555 1_555
Ce12 O10_7 1_555 1_555
Ce11 O5_9 1_555 1_555
O26_5 Ce12_3 1_555 1_555
O27_5 Ce12_3 1_555 1_555
C5_7 O9_7 1_555 1_555
C9_12 O23_4 1_555 1_555
C10_12 C9_12 1_555 1_555
O14_10 C9_12 1_555 1_555
O15_12 C11_12 1_555 1_555
C11_12 C12_12 1_555 1_555
C12_12 C10_12 1_555 1_555
O26_2 C11_12 1_555 1_555
Ce11_3 O14_10 1_555 1_555
Ce12 O15_12 1_555 1_555
O22_6 Ce11_3 1_555 1_555
O23_6 Ce11_3 1_555 1_555
C9_13 O25_2 1_555 1_555
C10_13 C9_13 1_555 1_555
O14_11 C9_13 1_555 1_555
O15_13 C11_13 1_555 1_555
C11_13 C12_13 1_555 1_555
C12_13 C10_13 1_555 1_555
O22 C11_13 1_555 1_555
Ce11_2 O14_11 1_555 1_555
Ce12 O15_13 1_555 1_555
O2_10 Ce12_2 1_555 1_555
C1_10 O2_10 1_555 1_555
C2_10 C1_10 1_555 1_555
O24_2 C1_10 1_555 1_555
O24 C3_10 1_555 1_555
C3_10 C4_10 1_555 1_555
C4_10 C2_10 1_555 1_555
O5_10 C3_10 1_555 1_555
C5_8 O22_2 1_555 1_555
C6_8 C5_8 1_555 1_555
O9_8 Ce12_2 1_555 1_555
O10_8 C7_8 1_555 1_555
C7_8 C8_8 1_555 1_555
C8_8 C6_8 1_555 1_555
O25 C7_8 1_555 1_555
Ce11 O10_8 1_555 1_555
Ce12 O5_10 1_555 1_555
O26_6 Ce12_2 1_555 1_555
O27_6 Ce12_2 1_555 1_555
C5_8 O9_8 1_555 1_555
O13_9 Ce11_2 1_555 1_555
C9_14 O13_9 1_555 1_555
C10_14 C9_14 1_555 1_555
O23_2 C9_14 1_555 1_555
O23 C11_14 1_555 1_555
C11_14 C12_14 1_555 1_555
C12_14 C10_14 1_555 1_555
O16_11 C11_14 1_555 1_555
Ce11 O16_11 1_555 1_555
O22_7 Ce11_2 1_555 1_555
O23_7 Ce11_2 1_555 1_555
C1_11 O22_6 1_555 1_555
C2_11 C1_11 1_555 1_555
O27_4 C1_11 1_555 1_555
O27_3 C3_11 1_555 1_555
C3_11 C4_11 1_555 1_555
C4_11 C2_11 1_555 1_555
O22_7 C3_11 1_555 1_555
C5_9 O23_5 1_555 1_555
C6_9 C5_9 1_555 1_555
O26_6 C7_9 1_555 1_555
C7_9 C8_9 1_555 1_555
C8_9 C6_9 1_555 1_555
O26_3 C7_9 1_555 1_555
C5_9 O23_6 1_555 1_555
C9_15 O26_4 1_555 1_555
C10_15 C9_15 1_555 1_555
O26_5 C9_15 1_555 1_555
O23_7 C11_15 1_555 1_555
C11_15 C12_15 1_555 1_555
C12_15 C10_15 1_555 1_555
O23_3 C11_15 1_555 1_555
C1_12 O27_5 1_555 1_555
C2_12 C1_12 1_555 1_555
O22_5 C1_12 1_555 1_555
O22_3 C3_12 1_555 1_555
C3_12 C4_12 1_555 1_555
C4_12 C2_12 1_555 1_555
O27_6 C3_12 1_555 1_555

#END
