
###############################################################################
#
# This file contains modified crystal structure data generated from the
# MOF subset of the Cambridge Structural Database (CSD) v543 
# hosted by the Cambridge Crystallographic Data Centre (CCDC).
#
# This work is licensed under the Creative Commons
# Attribution-NonCommercial-ShareAlike 4.0 International License.
# To view a copy of this license, visit
# http://creativecommons.org/licenses/by-nc-sa/4.0/
# or send a letter to
# Creative Commons, PO Box 1866, Mountain View, CA 94042, USA.
#
# CIF created using the CSD Python API on 29 September 2022
# The structure has been converted into the P1 space group
# The structure has a 3D framework
# The original CSD entry GORJEE is in the tetragonal crystal system
# The framework has been calculated to contain at least 10.0% void space
# The void calculation uses a probe of radius 1.32A, grid spacing 0.4
#
###############################################################################

data_GORJEE
_chemical_formula_moiety         '(C80 H48 N48 O32 S12 Zn16)n'
_symmetry_cell_setting           triclinic
_symmetry_space_group_name_H-M   'P 1'
_symmetry_Int_Tables_number      1
_space_group_name_Hall           'P 1'
loop_
_symmetry_equiv_pos_site_id
_symmetry_equiv_pos_as_xyz
1 x,y,z
_cell_length_a                   13.518(5)
_cell_length_b                   13.518(5)
_cell_length_c                   26.420(5)
_cell_angle_alpha                90
_cell_angle_beta                 90
_cell_angle_gamma                90
_cell_volume                     4827.89
loop_
_atom_site_label
_atom_site_type_symbol
_atom_site_fract_x
_atom_site_fract_y
_atom_site_fract_z
Zn1 Zn 0.65982(6) 0.77207(6) 0.30357(3)
S1 S 0.6316(3) 0.7321(3) 0.5000
N1 N 0.3713(4) 0.7891(4) 0.2471(2)
N2 N 0.3585(4) 0.7239(4) 0.2861(2)
N3 N 0.5154(4) 0.7650(4) 0.2852(2)
O1 O 0.6148(7) 0.7068(7) 0.3884(2)
O2 O 0.7065(6) 0.8308(5) 0.3675(2)
C1 C 0.4669(5) 0.8140(6) 0.2487(3)
H1 H 0.4962 0.8598 0.2271
C2 C 0.4428(5) 0.7083(6) 0.3074(3)
H2 H 0.4532 0.6647 0.3341
C3 C 0.6682(8) 0.7772(8) 0.3995(3)
C4 C 0.6917(9) 0.8000(8) 0.4542(3)
C5 C 0.7727(17) 0.8504(17) 0.4718(9)
H3 H 0.8205 0.8802 0.4516
O3 O 0.6148(7) 0.7068(7) 0.6116(2)
O4 O 0.7065(6) 0.8308(5) 0.6325(2)
C6 C 0.6682(8) 0.7772(8) 0.6005(3)
C7 C 0.6917(9) 0.8000(8) 0.5458(3)
C8 C 0.7727(17) 0.8504(17) 0.5282(9)
H4 H 0.8205 0.8802 0.5484
Zn2 Zn 0.22793(6) 0.65982(6) 0.30357(3)
N4 N 0.2109(4) 0.3713(4) 0.2471(2)
N5 N 0.2761(4) 0.3585(4) 0.2861(2)
N6 N 0.2350(4) 0.5154(4) 0.2852(2)
C9 C 0.1860(6) 0.4669(5) 0.2487(3)
H5 H 0.1402 0.4962 0.2271
C10 C 0.2917(6) 0.4428(5) 0.3074(3)
H6 H 0.3353 0.4532 0.3341
Zn3 Zn 0.34018(6) 0.22793(6) 0.30357(3)
Zn4 Zn 0.65982(6) 0.77207(6) 0.69643(3)
Zn5 Zn 0.15982(6) 0.27207(6) 0.19643(3)
Zn6 Zn 0.27207(6) 0.84018(6) 0.19643(3)
N7 N 0.1287(4) 0.7109(4) 0.2529(2)
N8 N 0.7109(4) 0.8713(4) 0.2529(2)
N9 N 0.7239(4) 0.6415(4) 0.2861(2)
O5 O 0.2932(7) 0.6148(7) 0.3884(2)
O6 O 0.1692(5) 0.7065(6) 0.3675(2)
S1_2 S 0.3684(3) 0.2679(3) 0.5000
N1_2 N 0.6287(4) 0.2109(4) 0.2471(2)
N2_2 N 0.6415(4) 0.2761(4) 0.2861(2)
N3_2 N 0.4846(4) 0.2350(4) 0.2852(2)
O1_2 O 0.3852(7) 0.2932(7) 0.3884(2)
O2_2 O 0.2935(6) 0.1692(5) 0.3675(2)
C1_2 C 0.5331(5) 0.1860(6) 0.2487(3)
H1_2 H 0.5038 0.1402 0.2271
C2_2 C 0.5572(5) 0.2917(6) 0.3074(3)
H2_2 H 0.5468 0.3353 0.3341
C3_2 C 0.3318(8) 0.2228(8) 0.3995(3)
C4_2 C 0.3083(9) 0.2000(8) 0.4542(3)
C5_2 C 0.2273(17) 0.1496(17) 0.4718(9)
H3_2 H 0.1795 0.1198 0.4516
O3_2 O 0.3852(7) 0.2932(7) 0.6116(2)
O4_2 O 0.2935(6) 0.1692(5) 0.6325(2)
C6_2 C 0.3318(8) 0.2228(8) 0.6005(3)
C7_2 C 0.3083(9) 0.2000(8) 0.5458(3)
C8_2 C 0.2273(17) 0.1496(17) 0.5282(9)
H4_2 H 0.1795 0.1198 0.5484
Zn2_2 Zn 0.77207(6) 0.34018(6) 0.30357(3)
N4_2 N 0.7891(4) 0.6287(4) 0.2471(2)
N6_2 N 0.7650(4) 0.4846(4) 0.2852(2)
C9_2 C 0.8140(6) 0.5331(5) 0.2487(3)
H5_2 H 0.8598 0.5038 0.2271
C10_2 C 0.7083(6) 0.5572(5) 0.3074(3)
H6_2 H 0.6647 0.5468 0.3341
Zn4_2 Zn 0.34018(6) 0.22793(6) 0.69643(3)
Zn5_2 Zn 0.84018(6) 0.72793(6) 0.19643(3)
Zn6_2 Zn 0.72793(6) 0.15982(6) 0.19643(3)
N7_2 N 0.8713(4) 0.2891(4) 0.2529(2)
N8_2 N 0.2891(4) 0.1287(4) 0.2529(2)
O5_2 O 0.7068(7) 0.3852(7) 0.3884(2)
O6_2 O 0.8308(5) 0.2935(6) 0.3675(2)
S1_3 S 0.2679(3) 0.6316(3) 0.5000
C3_3 C 0.2228(8) 0.6682(8) 0.3995(3)
C4_3 C 0.2000(8) 0.6917(9) 0.4542(3)
C5_3 C 0.1496(17) 0.7727(17) 0.4718(9)
H3_3 H 0.1198 0.8205 0.4516
O3_3 O 0.2932(7) 0.6148(7) 0.6116(2)
O4_3 O 0.1692(5) 0.7065(6) 0.6325(2)
C6_3 C 0.2228(8) 0.6682(8) 0.6005(3)
C7_3 C 0.2000(8) 0.6917(9) 0.5458(3)
C8_3 C 0.1496(17) 0.7727(17) 0.5282(9)
H4_3 H 0.1198 0.8205 0.5484
Zn4_3 Zn 0.22793(6) 0.65982(6) 0.69643(3)
S1_4 S 0.7321(3) 0.3684(3) 0.5000
C3_4 C 0.7772(8) 0.3318(8) 0.3995(3)
C4_4 C 0.8000(8) 0.3083(9) 0.4542(3)
C5_4 C 0.8504(17) 0.2273(17) 0.4718(9)
H3_4 H 0.8802 0.1795 0.4516
O3_4 O 0.7068(7) 0.3852(7) 0.6116(2)
O4_4 O 0.8308(5) 0.2935(6) 0.6325(2)
C6_4 C 0.7772(8) 0.3318(8) 0.6005(3)
C7_4 C 0.8000(8) 0.3083(9) 0.5458(3)
C8_4 C 0.8504(17) 0.2273(17) 0.5282(9)
H4_4 H 0.8802 0.1795 0.5484
Zn4_4 Zn 0.77207(6) 0.34018(6) 0.69643(3)
S1_5 S 0.1316(3) 0.2321(3) -0.0000
O3_5 O 0.1148(7) 0.2068(7) 0.1116(2)
O4_5 O 0.2065(6) 0.3308(5) 0.1325(2)
C6_5 C 0.1682(8) 0.2772(8) 0.1005(3)
C7_5 C 0.1917(9) 0.3000(8) 0.0458(3)
C8_5 C 0.2727(17) 0.3504(17) 0.0282(9)
H4_5 H 0.3205 0.3802 0.0484
Zn1_2 Zn 0.15982(6) 0.27207(6) 0.80357(3)
S1_6 S 0.1316(3) 0.2321(3) 1.0000
N3_3 N 0.0154(4) 0.2650(4) 0.7852(2)
O1_3 O 0.1148(7) 0.2068(7) 0.8884(2)
O2_3 O 0.2065(6) 0.3308(5) 0.8675(2)
C3_5 C 0.1682(8) 0.2772(8) 0.8995(3)
C4_5 C 0.1917(9) 0.3000(8) 0.9542(3)
C5_5 C 0.2727(17) 0.3504(17) 0.9718(9)
H3_5 H 0.3205 0.3802 0.9516
N8_3 N 0.2109(4) 0.3713(4) 0.7529(2)
N9_2 N 0.2239(4) 0.1415(4) 0.7861(2)
N1_3 N 0.8713(4) 0.2891(4) 0.7471(2)
N2_3 N 0.8585(4) 0.2239(4) 0.7861(2)
C1_3 C 0.9669(5) 0.3140(6) 0.7487(3)
H1_3 H 0.9962 0.3598 0.7271
C2_3 C 0.9428(5) 0.2083(6) 0.8074(3)
H2_3 H 0.9532 0.1647 0.8341
Zn2_3 Zn 0.72793(6) 0.15982(6) 0.80357(3)
N6_3 N 0.7350(4) 0.0154(4) 0.7852(2)
N7_3 N 0.6287(4) 0.2109(4) 0.7529(2)
O5_3 O 0.7932(7) 0.1148(7) 0.8884(2)
O6_3 O 0.6692(5) 0.2065(6) 0.8675(2)
N4_3 N 0.7109(4) 0.8713(4) 0.7471(2)
N5_2 N 0.7761(4) 0.8585(4) 0.7861(2)
C9_3 C 0.6860(6) 0.9669(5) 0.7487(3)
H5_3 H 0.6402 0.9962 0.7271
C10_3 C 0.7917(6) 0.9428(5) 0.8074(3)
H6_3 H 0.8353 0.9532 0.8341
Zn3_2 Zn 0.84018(6) 0.72793(6) 0.80357(3)
N4_4 N 0.2891(4) 0.1287(4) 0.7471(2)
C9_4 C 0.3140(6) 0.0331(5) 0.7487(3)
H5_4 H 0.3598 0.0038 0.7271
C10_4 C 0.2083(6) 0.0572(5) 0.8074(3)
H6_4 H 0.1647 0.0468 0.8341
N1_4 N 0.1287(4) 0.7109(4) 0.7471(2)
N2_4 N 0.1415(4) 0.7761(4) 0.7861(2)
C1_4 C 0.0331(5) 0.6860(6) 0.7487(3)
H1_4 H 0.0038 0.6402 0.7271
C2_4 C 0.0572(5) 0.7917(6) 0.8074(3)
H2_4 H 0.0468 0.8353 0.8341
Zn2_4 Zn 0.27207(6) 0.84018(6) 0.80357(3)
N6_4 N 0.2650(4) 0.9846(4) 0.7852(2)
N7_4 N 0.3713(4) 0.7891(4) 0.7529(2)
O5_4 O 0.2068(7) 0.8852(7) 0.8884(2)
O6_4 O 0.3308(5) 0.7935(6) 0.8675(2)
S1_7 S 0.8684(3) 0.7679(3) -0.0000
O3_6 O 0.8852(7) 0.7932(7) 0.1116(2)
O4_6 O 0.7935(6) 0.6692(5) 0.1325(2)
C6_6 C 0.8318(8) 0.7228(8) 0.1005(3)
C7_6 C 0.8083(9) 0.7000(8) 0.0458(3)
C8_6 C 0.7273(17) 0.6496(17) 0.0282(9)
H4_6 H 0.6795 0.6198 0.0484
S1_8 S 0.8684(3) 0.7679(3) 1.0000
N3_4 N 0.9846(4) 0.7350(4) 0.7852(2)
O1_4 O 0.8852(7) 0.7932(7) 0.8884(2)
O2_4 O 0.7935(6) 0.6692(5) 0.8675(2)
C3_6 C 0.8318(8) 0.7228(8) 0.8995(3)
C4_6 C 0.8083(9) 0.7000(8) 0.9542(3)
C5_6 C 0.7273(17) 0.6496(17) 0.9718(9)
H3_6 H 0.6795 0.6198 0.9516
N8_4 N 0.7891(4) 0.6287(4) 0.7529(2)
S1_9 S 0.7679(3) 0.1316(3) -0.0000
O3_7 O 0.7932(7) 0.1148(7) 0.1116(2)
O4_7 O 0.6692(5) 0.2065(6) 0.1325(2)
C6_7 C 0.7228(8) 0.1682(8) 0.1005(3)
C7_7 C 0.7000(8) 0.1917(9) 0.0458(3)
C8_7 C 0.6496(17) 0.2727(17) 0.0282(9)
H4_7 H 0.6198 0.3205 0.0484
S1_10 S 0.7679(3) 0.1316(3) 1.0000
C3_7 C 0.7228(8) 0.1682(8) 0.8995(3)
C4_7 C 0.7000(8) 0.1917(9) 0.9542(3)
C5_7 C 0.6496(17) 0.2727(17) 0.9718(9)
H3_7 H 0.6198 0.3205 0.9516
S1_11 S 0.2321(3) 0.8684(3) -0.0000
O3_8 O 0.2068(7) 0.8852(7) 0.1116(2)
O4_8 O 0.3308(5) 0.7935(6) 0.1325(2)
C6_8 C 0.2772(8) 0.8318(8) 0.1005(3)
C7_8 C 0.3000(8) 0.8083(9) 0.0458(3)
C8_8 C 0.3504(17) 0.7273(17) 0.0282(9)
H4_8 H 0.3802 0.6795 0.0484
S1_12 S 0.2321(3) 0.8684(3) 1.0000
C3_8 C 0.2772(8) 0.8318(8) 0.8995(3)
C4_8 C 0.3000(8) 0.8083(9) 0.9542(3)
C5_8 C 0.3504(17) 0.7273(17) 0.9718(9)
H3_8 H 0.3802 0.6795 0.9516
N2_5 N 0.6415(4) 0.2761(4) 0.7139(2)
N3_5 N 0.4846(4) 0.2350(4) 0.7148(2)
C1_5 C 0.5331(5) 0.1860(6) 0.7513(3)
H1_5 H 0.5038 0.1402 0.7729
C2_5 C 0.5572(5) 0.2917(6) 0.6926(3)
H2_5 H 0.5468 0.3353 0.6659
N5_3 N 0.7239(4) 0.6415(4) 0.7139(2)
N6_5 N 0.7650(4) 0.4846(4) 0.7148(2)
C9_5 C 0.8140(6) 0.5331(5) 0.7513(3)
H5_5 H 0.8598 0.5038 0.7729
C10_5 C 0.7083(6) 0.5572(5) 0.6926(3)
H6_5 H 0.6647 0.5468 0.6659
N9_3 N 0.2761(4) 0.3585(4) 0.7139(2)
N2_6 N 0.3585(4) 0.7239(4) 0.7139(2)
N3_6 N 0.5154(4) 0.7650(4) 0.7148(2)
C1_6 C 0.4669(5) 0.8140(6) 0.7513(3)
H1_6 H 0.4962 0.8598 0.7729
C2_6 C 0.4428(5) 0.7083(6) 0.6926(3)
H2_6 H 0.4532 0.6647 0.6659
N6_6 N 0.2350(4) 0.5154(4) 0.7148(2)
C9_6 C 0.1860(6) 0.4669(5) 0.7513(3)
H5_6 H 0.1402 0.4962 0.7729
C10_6 C 0.2917(6) 0.4428(5) 0.6926(3)
H6_6 H 0.3353 0.4532 0.6659
N5_4 N 0.2239(4) 0.1415(4) 0.2139(2)
C9_7 C 0.3140(6) 0.0331(5) 0.2513(3)
H5_7 H 0.3598 0.0038 0.2729
C10_7 C 0.2083(6) 0.0572(5) 0.1926(3)
H6_7 H 0.1647 0.0468 0.1659
N2_7 N 0.1415(4) 0.7761(4) 0.2139(2)
C1_7 C 0.0331(5) 0.6860(6) 0.2513(3)
H1_7 H 0.0038 0.6402 0.2729
C2_7 C 0.0572(5) 0.7917(6) 0.1926(3)
H2_7 H 0.0468 0.8353 0.1659
N6_7 N 0.2650(4) 0.9846(4) 0.2148(2)
N3_7 N 0.9846(4) 0.7350(4) 0.2148(2)
N9_4 N 0.7761(4) 0.8585(4) 0.2139(2)
N3_8 N 0.0154(4) 0.2650(4) 0.2148(2)
N2_8 N 0.8585(4) 0.2239(4) 0.2139(2)
C1_8 C 0.9669(5) 0.3140(6) 0.2513(3)
H1_8 H 0.9962 0.3598 0.2729
C2_8 C 0.9428(5) 0.2083(6) 0.1926(3)
H2_8 H 0.9532 0.1647 0.1659
N6_8 N 0.7350(4) 0.0154(4) 0.2148(2)
C9_8 C 0.6860(6) 0.9669(5) 0.2513(3)
H5_8 H 0.6402 0.9962 0.2729
C10_8 C 0.7917(6) 0.9428(5) 0.1926(3)
H6_8 H 0.8353 0.9532 0.1659
loop_
_geom_bond_atom_site_label_1
_geom_bond_atom_site_label_2
_geom_bond_site_symmetry_1
_geom_bond_site_symmetry_2
Zn1 N3 1_555 1_555
S1 C4 1_555 1_555
N1 N2 1_555 1_555
N2 C2 1_555 1_555
N3 C1 1_555 1_555
O1 Zn1 1_555 1_555
O2 Zn1 1_555 1_555
C1 N1 1_555 1_555
H1 C1 1_555 1_555
C2 N3 1_555 1_555
H2 C2 1_555 1_555
C3 O1 1_555 1_555
C4 C3 1_555 1_555
C5 C4 1_555 1_555
H3 C5 1_555 1_555
O3 C6 1_555 1_555
O4 C6 1_555 1_555
C6 C7 1_555 1_555
C7 S1 1_555 1_555
C8 C5 1_555 1_555
H4 C8 1_555 1_555
Zn2 N2 1_555 1_555
N4 N5 1_555 1_555
N5 C10 1_555 1_555
N6 Zn2 1_555 1_555
C9 N4 1_555 1_555
H5 C9 1_555 1_555
C10 N6 1_555 1_555
H6 C10 1_555 1_555
Zn3 N5 1_555 1_555
Zn4 O3 1_555 1_555
Zn5 N4 1_555 1_555
Zn6 N1 1_555 1_555
N7 Zn2 1_555 1_555
N8 Zn1 1_555 1_555
N9 Zn1 1_555 1_555
O5 Zn2 1_555 1_555
O6 Zn2 1_555 1_555
O2 C3 1_555 1_555
O4 Zn4 1_555 1_555
C7 C8 1_555 1_555
N6 C9 1_555 1_555
Zn3 N3_2 1_555 1_555
S1_2 C4_2 1_555 1_555
N1_2 N2_2 1_555 1_555
N2_2 C2_2 1_555 1_555
N3_2 C1_2 1_555 1_555
O1_2 Zn3 1_555 1_555
O2_2 Zn3 1_555 1_555
C1_2 N1_2 1_555 1_555
H1_2 C1_2 1_555 1_555
C2_2 N3_2 1_555 1_555
H2_2 C2_2 1_555 1_555
C3_2 O1_2 1_555 1_555
C4_2 C3_2 1_555 1_555
C5_2 C4_2 1_555 1_555
H3_2 C5_2 1_555 1_555
O3_2 C6_2 1_555 1_555
O4_2 C6_2 1_555 1_555
C6_2 C7_2 1_555 1_555
C7_2 S1_2 1_555 1_555
C8_2 C5_2 1_555 1_555
H4_2 C8_2 1_555 1_555
Zn2_2 N2_2 1_555 1_555
N4_2 N9 1_555 1_555
N9 C10_2 1_555 1_555
N6_2 Zn2_2 1_555 1_555
C9_2 N4_2 1_555 1_555
H5_2 C9_2 1_555 1_555
C10_2 N6_2 1_555 1_555
H6_2 C10_2 1_555 1_555
Zn4_2 O3_2 1_555 1_555
Zn5_2 N4_2 1_555 1_555
Zn6_2 N1_2 1_555 1_555
N7_2 Zn2_2 1_555 1_555
N8_2 Zn3 1_555 1_555
O5_2 Zn2_2 1_555 1_555
O6_2 Zn2_2 1_555 1_555
O2_2 C3_2 1_555 1_555
O4_2 Zn4_2 1_555 1_555
C7_2 C8_2 1_555 1_555
N6_2 C9_2 1_555 1_555
S1_3 C4_3 1_555 1_555
C3_3 O5 1_555 1_555
C4_3 C3_3 1_555 1_555
C5_3 C4_3 1_555 1_555
H3_3 C5_3 1_555 1_555
O3_3 C6_3 1_555 1_555
O4_3 C6_3 1_555 1_555
C6_3 C7_3 1_555 1_555
C7_3 S1_3 1_555 1_555
C8_3 C5_3 1_555 1_555
H4_3 C8_3 1_555 1_555
Zn4_3 O3_3 1_555 1_555
O6 C3_3 1_555 1_555
O4_3 Zn4_3 1_555 1_555
C7_3 C8_3 1_555 1_555
S1_4 C4_4 1_555 1_555
C3_4 O5_2 1_555 1_555
C4_4 C3_4 1_555 1_555
C5_4 C4_4 1_555 1_555
H3_4 C5_4 1_555 1_555
O3_4 C6_4 1_555 1_555
O4_4 C6_4 1_555 1_555
C6_4 C7_4 1_555 1_555
C7_4 S1_4 1_555 1_555
C8_4 C5_4 1_555 1_555
H4_4 C8_4 1_555 1_555
Zn4_4 O3_4 1_555 1_555
O6_2 C3_4 1_555 1_555
O4_4 Zn4_4 1_555 1_555
C7_4 C8_4 1_555 1_555
O3_5 C6_5 1_555 1_555
O4_5 C6_5 1_555 1_555
C6_5 C7_5 1_555 1_555
C7_5 S1_5 1_555 1_555
H4_5 C8_5 1_555 1_555
Zn5 O3_5 1_555 1_555
O4_5 Zn5 1_555 1_555
C7_5 C8_5 1_555 1_555
Zn1_2 N3_3 1_555 1_555
S1_6 C4_5 1_555 1_555
O1_3 Zn1_2 1_555 1_555
O2_3 Zn1_2 1_555 1_555
C3_5 O1_3 1_555 1_555
C4_5 C3_5 1_555 1_555
C5_5 C4_5 1_555 1_555
H3_5 C5_5 1_555 1_555
N8_3 Zn1_2 1_555 1_555
N9_2 Zn1_2 1_555 1_555
O2_3 C3_5 1_555 1_555
N1_3 N2_3 1_555 1_555
N2_3 C2_3 1_555 1_555
C1_3 N1_3 1_555 1_555
H1_3 C1_3 1_555 1_555
H2_3 C2_3 1_555 1_555
Zn2_3 N2_3 1_555 1_555
N6_3 Zn2_3 1_555 1_555
Zn4_4 N1_3 1_555 1_555
N7_3 Zn2_3 1_555 1_555
O5_3 Zn2_3 1_555 1_555
O6_3 Zn2_3 1_555 1_555
N4_3 N5_2 1_555 1_555
N5_2 C10_3 1_555 1_555
C9_3 N4_3 1_555 1_555
H5_3 C9_3 1_555 1_555
H6_3 C10_3 1_555 1_555
Zn3_2 N5_2 1_555 1_555
Zn4 N4_3 1_555 1_555
N4_4 N9_2 1_555 1_555
N9_2 C10_4 1_555 1_555
C9_4 N4_4 1_555 1_555
H5_4 C9_4 1_555 1_555
H6_4 C10_4 1_555 1_555
Zn4_2 N4_4 1_555 1_555
N1_4 N2_4 1_555 1_555
N2_4 C2_4 1_555 1_555
C1_4 N1_4 1_555 1_555
H1_4 C1_4 1_555 1_555
H2_4 C2_4 1_555 1_555
Zn2_4 N2_4 1_555 1_555
N6_4 Zn2_4 1_555 1_555
Zn4_3 N1_4 1_555 1_555
N7_4 Zn2_4 1_555 1_555
O5_4 Zn2_4 1_555 1_555
O6_4 Zn2_4 1_555 1_555
O3_6 C6_6 1_555 1_555
O4_6 C6_6 1_555 1_555
C6_6 C7_6 1_555 1_555
C7_6 S1_7 1_555 1_555
H4_6 C8_6 1_555 1_555
Zn5_2 O3_6 1_555 1_555
O4_6 Zn5_2 1_555 1_555
C7_6 C8_6 1_555 1_555
Zn3_2 N3_4 1_555 1_555
S1_8 C4_6 1_555 1_555
O1_4 Zn3_2 1_555 1_555
O2_4 Zn3_2 1_555 1_555
C3_6 O1_4 1_555 1_555
C4_6 C3_6 1_555 1_555
C5_6 C4_6 1_555 1_555
H3_6 C5_6 1_555 1_555
N8_4 Zn3_2 1_555 1_555
O2_4 C3_6 1_555 1_555
O3_7 C6_7 1_555 1_555
O4_7 C6_7 1_555 1_555
C6_7 C7_7 1_555 1_555
C7_7 S1_9 1_555 1_555
H4_7 C8_7 1_555 1_555
Zn6_2 O3_7 1_555 1_555
O4_7 Zn6_2 1_555 1_555
C7_7 C8_7 1_555 1_555
S1_10 C4_7 1_555 1_555
C3_7 O5_3 1_555 1_555
C4_7 C3_7 1_555 1_555
C5_7 C4_7 1_555 1_555
H3_7 C5_7 1_555 1_555
O6_3 C3_7 1_555 1_555
O3_8 C6_8 1_555 1_555
O4_8 C6_8 1_555 1_555
C6_8 C7_8 1_555 1_555
C7_8 S1_11 1_555 1_555
H4_8 C8_8 1_555 1_555
Zn6 O3_8 1_555 1_555
O4_8 Zn6 1_555 1_555
C7_8 C8_8 1_555 1_555
S1_12 C4_8 1_555 1_555
C3_8 O5_4 1_555 1_555
C4_8 C3_8 1_555 1_555
C5_8 C4_8 1_555 1_555
H3_8 C5_8 1_555 1_555
O6_4 C3_8 1_555 1_555
Zn4_2 N3_5 1_555 1_555
N7_3 N2_5 1_555 1_555
N2_5 C2_5 1_555 1_555
N3_5 C1_5 1_555 1_555
C1_5 N7_3 1_555 1_555
H1_5 C1_5 1_555 1_555
C2_5 N3_5 1_555 1_555
H2_5 C2_5 1_555 1_555
Zn4_4 N2_5 1_555 1_555
N8_4 N5_3 1_555 1_555
N5_3 C10_5 1_555 1_555
N6_5 Zn4_4 1_555 1_555
C9_5 N8_4 1_555 1_555
H5_5 C9_5 1_555 1_555
C10_5 N6_5 1_555 1_555
H6_5 C10_5 1_555 1_555
Zn4 N5_3 1_555 1_555
N9_3 Zn4_2 1_555 1_555
N6_5 C9_5 1_555 1_555
Zn4 N3_6 1_555 1_555
N7_4 N2_6 1_555 1_555
N2_6 C2_6 1_555 1_555
N3_6 C1_6 1_555 1_555
C1_6 N7_4 1_555 1_555
H1_6 C1_6 1_555 1_555
C2_6 N3_6 1_555 1_555
H2_6 C2_6 1_555 1_555
Zn4_3 N2_6 1_555 1_555
N8_3 N9_3 1_555 1_555
N9_3 C10_6 1_555 1_555
N6_6 Zn4_3 1_555 1_555
C9_6 N8_3 1_555 1_555
H5_6 C9_6 1_555 1_555
C10_6 N6_6 1_555 1_555
H6_6 C10_6 1_555 1_555
N6_6 C9_6 1_555 1_555
N8_2 N5_4 1_555 1_555
N5_4 C10_7 1_555 1_555
C9_7 N8_2 1_555 1_555
H5_7 C9_7 1_555 1_555
H6_7 C10_7 1_555 1_555
Zn5 N5_4 1_555 1_555
N7 N2_7 1_555 1_555
N2_7 C2_7 1_555 1_555
C1_7 N7 1_555 1_555
H1_7 C1_7 1_555 1_555
H2_7 C2_7 1_555 1_555
Zn6 N2_7 1_555 1_555
N6_7 Zn6 1_555 1_555
Zn5_2 N3_7 1_555 1_555
N9_4 Zn5_2 1_555 1_555
Zn5 N3_8 1_555 1_555
N7_2 N2_8 1_555 1_555
N2_8 C2_8 1_555 1_555
C1_8 N7_2 1_555 1_555
H1_8 C1_8 1_555 1_555
H2_8 C2_8 1_555 1_555
Zn6_2 N2_8 1_555 1_555
N6_8 Zn6_2 1_555 1_555
N8 N9_4 1_555 1_555
N9_4 C10_8 1_555 1_555
C9_8 N8 1_555 1_555
H5_8 C9_8 1_555 1_555
H6_8 C10_8 1_555 1_555

#END
