
###############################################################################
#
# This file contains modified crystal structure data generated from the
# MOF subset of the Cambridge Structural Database (CSD) v543 
# hosted by the Cambridge Crystallographic Data Centre (CCDC).
#
# This work is licensed under the Creative Commons
# Attribution-NonCommercial-ShareAlike 4.0 International License.
# To view a copy of this license, visit
# http://creativecommons.org/licenses/by-nc-sa/4.0/
# or send a letter to
# Creative Commons, PO Box 1866, Mountain View, CA 94042, USA.
#
# CIF created using the CSD Python API on 29 September 2022
# The structure has been converted into the P1 space group
# The structure has a 3D framework
# The original CSD entry GOSDID is in the triclinic crystal system
# The framework has been calculated to contain at least 10.0% void space
# The void calculation uses a probe of radius 1.32A, grid spacing 0.4
# H atom positions have been added when not included in the experimental data
# Generated hydrogen atom positions removed from atoms on special positions
#
###############################################################################

data_GOSDID
_chemical_formula_moiety         '(C236 H154 O72 Zn14)n'
_symmetry_cell_setting           triclinic
_symmetry_space_group_name_H-M   'P 1'
_symmetry_Int_Tables_number      1
_space_group_name_Hall           'P 1'
loop_
_symmetry_equiv_pos_site_id
_symmetry_equiv_pos_as_xyz
1 x,y,z
_cell_length_a                   15.8225(5)
_cell_length_b                   16.8196(5)
_cell_length_c                   28.4760(11)
_cell_angle_alpha                96.700(2)
_cell_angle_beta                 100.221(3)
_cell_angle_gamma                109.597(2)
_cell_volume                     6897.96
loop_
_atom_site_label
_atom_site_type_symbol
_atom_site_fract_x
_atom_site_fract_y
_atom_site_fract_z
O1 O 0.1644(5) 0.8712(4) 0.2583(2)
O2 O 0.0362(6) 0.8083(5) 0.2683(3)
O3 O 0.0154(10) 0.4733(15) 0.0467(7)
O4 O 0.0102(9) 0.5827(12) 0.0144(7)
C1 C 0.0736(8) 0.7407(8) 0.1974(5)
C4 C 0.0413(11) 0.6195(13) 0.1020(7)
C5 C 0.1148(12) 0.6385(11) 0.1426(6)
H3 H 0.1558 0.6088 0.1399
C6 C 0.1363(13) 0.6993(11) 0.1890(6)
H4 H 0.1911 0.7105 0.2129
C7 C 0.0905(11) 0.8107(9) 0.2437(4)
C8 C 0.0248(13) 0.5552(15) 0.0545(8)
Zn2 Zn 0.17202(6) 0.97452(5) 0.31032(3)
C2 C 0.9883(10) 0.7062(11) 0.1615(4)
H1 H 0.9389 0.7226 0.1679
C3 C 0.9710(13) 0.6460(13) 0.1145(6)
H2 H 0.9119 0.6254 0.0928
Zn1 Zn 0.92688(8) 0.74062(6) 0.28924(3)
H127 H 0.94647 0.548658 0.995288
H127_2 H 0.0535295 0.451342 0.00471153
C2_2 C 0.0117(10) 0.2938(11) 0.8385(4)
H1_2 H 0.0611 0.2774 0.8321
C3_2 C 0.0290(13) 0.3540(13) 0.8855(6)
H2_2 H 0.0881 0.3746 0.9072
Zn1_2 Zn 0.07312(8) 0.25938(6) 0.71076(3)
O1_2 O 0.8356(5) 0.1288(4) 0.7417(2)
O2_2 O 0.9638(6) 0.1917(5) 0.7317(3)
O3_2 O 0.9846(10) 0.5267(15) 0.9533(7)
O4_2 O 0.9898(9) 0.4173(12) 0.9856(7)
C1_2 C 0.9264(8) 0.2593(8) 0.8026(5)
C4_2 C 0.9587(11) 0.3805(13) 0.8980(7)
C5_2 C 0.8852(12) 0.3615(11) 0.8574(6)
H3_2 H 0.8442 0.3912 0.8601
C6_2 C 0.8637(13) 0.3007(11) 0.8110(6)
H4_2 H 0.8089 0.2895 0.7871
C7_2 C 0.9095(11) 0.1893(9) 0.7563(4)
C8_2 C 0.9752(13) 0.4448(15) 0.9455(8)
Zn2_2 Zn 0.82798(6) 0.02548(5) 0.68968(3)
O12 O 0.2917(4) 0.2960(4) 0.0857(2)
O13 O 0.4138(3) 0.3577(3) 0.0611(2)
C33 C 0.3441(5) 0.0241(4) 0.0009(2)
C35 C 0.4164(5) 0.1842(4) 0.0195(2)
H20 H 0.4653 0.2328 0.0159
C36 C 0.3530(4) 0.1999(4) 0.0438(2)
C37 C 0.2846(6) 0.1235(5) 0.0454(3)
H21 H 0.2371 0.1265 0.0610
C38 C 0.2815(6) 0.0393(4) 0.0247(3)
C42 C 0.3550(5) 0.2901(5) 0.0636(3)
Zn17 Zn 0.28817(7) 0.40817(5) 0.11744(3)
O8 O 0.4172(9) 0.1488(7) 0.7950(4)
O9 O 0.2891(8) 0.1568(7) 0.8099(3)
C23 C 0.2769(9) 0.0556(7) 0.8660(3)
H12 H 0.2379 0.0880 0.8630
C24 C 0.3468(8) 0.0666(6) 0.8421(3)
C25 C 0.4102(8) 0.0276(6) 0.8457(3)
H13 H 0.4594 0.0417 0.8296
C34 C 0.4146(5) 0.0995(4) 0.9991(2)
H19 H 0.4626 0.0959 0.9842
C40 C 0.3509(16) 0.1289(9) 0.8134(4)
Zn25 Zn 0.27459(14) 0.23506(9) 0.77448(4)
O5 O 0.2847(4) 0.4899(3) 0.08321(18)
Zn4 Zn 0.35296(9) 0.59493(7) 0.21057(4)
O7 O 0.3606(4) 0.6170(4) 0.1481(2)
C14 C 0.3310(5) 0.8734(4) 0.0006(2)
H6 H 0.3365 0.8882 0.0345
C15 C 0.3153(5) 0.7255(4) 0.0096(2)
C17 C 0.2519(5) 0.5911(4) 0.0275(3)
H8 H 0.2110 0.5329 0.0212
C18 C 0.3197(5) 0.6283(4) 0.0715(2)
C19 C 0.3847(6) 0.7152(5) 0.0852(3)
H9 H 0.4266 0.7347 0.1161
C20 C 0.3851(5) 0.7645(5) 0.0558(2)
H10 H 0.4270 0.8224 0.0625
O34 O 0.3721(9) 0.7233(9) 0.2457(4)
O35 O 0.3367(13) 0.5698(14) 0.2764(5)
H22 H 0.2319 0.9908 0.0278
C39 C 0.3241(5) 0.5747(5) 0.1045(3)
O78 O 0.3673(6) 0.4538(6) 0.1835(3)
O80 O 0.4780(7) 0.5862(6) 0.2289(3)
O82 O 0.1778(4) 0.3780(3) 0.1398(2)
O84 O 0.2154(5) 0.5205(4) 0.1870(3)
C9 C 0.3180(5) 0.7825(4) 0.9789(2)
C10 C 0.3054(5) 0.7496(4) 0.9292(2)
C11 C 0.3120(6) 0.8109(4) 0.9037(2)
H5 H 0.3071 0.7975 0.8697
Zn6 Zn 0.07312(8) 0.25938(6) 0.71076(3)
C12 C 0.3262(5) 0.8971(4) 0.9252(2)
O10 O 0.1488(6) 0.3467(4) 0.7766(2)
C13 C 0.3345(4) 0.9296(4) 0.9752(2)
O11 O 0.2866(6) 0.3539(4) 0.8112(2)
C16 C 0.2487(5) 0.6401(4) 0.9966(2)
H7 H 0.2043 0.6206 0.9665
C21 C 0.3284(6) 0.9552(5) 0.8963(2)
C22 C 0.2679(8) 0.9971(5) 0.8931(3)
H11 H 0.2201 0.9841 0.9102
C26 C 0.3986(7) 0.9720(5) 0.8719(3)
H14 H 0.4387 0.9407 0.8751
C27 C 0.2863(5) 0.6553(4) 0.9004(2)
C28 C 0.1960(5) 0.5965(4) 0.8705(2)
H15 H 0.1448 0.6142 0.8695
C29 C 0.1802(5) 0.5104(4) 0.8416(2)
H16 H 0.1203 0.4776 0.8220
C30 C 0.2465(6) 0.4776(4) 0.8421(2)
C31 C 0.3368(7) 0.5348(6) 0.8695(4)
H17 H 0.3872 0.5162 0.8696
C32 C 0.3552(7) 0.6216(6) 0.8978(4)
H18 H 0.4166 0.6556 0.9149
O36 O 0.3676(7) 0.2558(7) 0.7382(6)
C41 C 0.2291(7) 0.3869(5) 0.8083(3)
H29 H 0.0110 0.4362 0.3954
H30 H 0.0373 0.5527 0.3571
H34 H 0.0070 0.0189 0.3988
C112 C 0.0117(10) 0.2938(11) 0.8385(4)
H59 H 0.0611 0.2774 0.8321
C113 C 0.0290(13) 0.3540(13) 0.8855(6)
H60 H 0.0881 0.3746 0.9072
O38 O 0.3707(11) 0.2290(13) 0.4821(7)
Zn14 Zn 0.25754(7) 0.17382(5) 0.40692(4)
O47 O 0.2222(4) 0.0741(3) 0.43095(17)
O50 O 0.0474(6) 0.1404(4) 0.6583(3)
O51 O 0.1620(6) 0.1716(5) 0.7182(3)
O54 O 0.0694(4) 0.0103(4) 0.2917(2)
O55 O 0.1653(4) 0.1465(4) 0.3451(3)
H84 H 0.2568 0.0355 0.5043
C174 C 0.1182(5) 0.0349(4) 0.6510(3)
C175 C 0.1953(6) 0.0190(5) 0.6679(3)
H93 H 0.2424 0.0564 0.6946
C185 C 0.1115(7) 0.1233(6) 0.6774(4)
C195 C 0.0476(5) 0.2234(4) 0.3141(3)
H102 H 0.1068 0.2563 0.3344
C196 C 0.0187(4) 0.1276(4) 0.2955(3)
C207 C 0.0576(5) 0.4672(4) 0.2194(2)
H110 H 0.0959 0.5264 0.2277
C208 C 0.0780(5) 0.4048(5) 0.1874(3)
C209 C 0.0209(5) 0.3119(4) 0.1712(3)
H111 H 0.0357 0.2754 0.1486
C217 C 0.0894(5) 0.0911(6) 0.3120(3)
C219 C 0.1665(6) 0.4393(5) 0.1710(3)
Zn29 Zn 0.82798(6) 0.02548(5) 0.68968(3)
O70 O 0.0047(9) 0.3428(5) 0.6790(2)
O72 O 0.1469(8) 0.3428(5) 0.6766(3)
O74 O 0.2927(5) 0.3145(4) 0.4306(3)
O76 O 0.1759(6) 0.2351(5) 0.4450(3)
O86 O 0.2968(4) 0.0529(4) 0.3126(2)
O88 O 0.3601(3) 0.1747(4) 0.3773(2)
O24 O 0.6327(6) 0.5462(6) 0.8165(3)
O25 O 0.5220(7) 0.4138(6) 0.7711(3)
O28 O 0.7032(4) 0.9471(4) 0.6874(2)
O29 O 0.6399(3) 0.8253(4) 0.6227(2)
C77 C 0.3223(4) 0.7496(4) 0.7336(2)
C78 C 0.3043(5) 0.6792(4) 0.7523(2)
C79 C 0.2225(5) 0.6504(4) 0.7647(2)
H41 H 0.2084 0.5994 0.7779
C80 C 0.1566(4) 0.6889(4) 0.7599(2)
C81 C 0.1741(4) 0.7583(4) 0.7409(2)
C82 C 0.2576(4) 0.7883(4) 0.7292(2)
H42 H 0.2725 0.8402 0.7169
C83 C 0.1045(4) 0.7971(4) 0.7296(2)
C84 C 0.0146(4) 0.7408(4) 0.6996(2)
H43 H 0.0006 0.6810 0.6900
C87 C 0.0677(4) 0.9265(4) 0.7335(3)
H45 H 0.0818 0.9862 0.7439
C88 C 0.1301(4) 0.8888(4) 0.7457(3)
H46 H 0.1902 0.9224 0.7647
C89 C 0.3703(5) 0.6357(5) 0.7612(2)
C90 C 0.3348(7) 0.5363(6) 0.7441(3)
H47 H 0.2726 0.5051 0.7271
C91 C 0.3942(7) 0.4957(7) 0.7540(3)
H48 H 0.3758 0.4353 0.7440
C92 C 0.4873(6) 0.5481(5) 0.7806(3)
C93 C 0.5141(9) 0.6316(8) 0.8027(4)
H49 H 0.5723 0.6577 0.8251
C94 C 0.4568(8) 0.6820(7) 0.7932(4)
H50 H 0.4759 0.7411 0.8073
C95 C 0.0747(4) 0.6579(4) 0.7782(2)
C96 C 0.0193(4) 0.5647(4) 0.7635(2)
H51 H 0.0372 0.5282 0.7426
C100 C 0.0523(5) 0.7174(4) 0.8098(2)
H54 H 0.0893 0.7769 0.8170
C101 C 0.4063(4) 0.7811(4) 0.7162(2)
C102 C 0.4279(6) 0.7187(6) 0.6854(3)
H55 H 0.3918 0.6591 0.6788
C103 C 0.5014(6) 0.7505(7) 0.6669(3)
H56 H 0.5165 0.7138 0.6446
C104 C 0.5595(4) 0.8428(4) 0.6814(3)
C105 C 0.5501(9) 0.8915(10) 0.7213(4)
H57 H 0.5967 0.9451 0.7372
C106 C 0.4705(8) 0.8587(9) 0.7367(4)
H58 H 0.4604 0.8921 0.7629
C108 C 0.5491(7) 0.4987(6) 0.7899(4)
C110 C 0.6392(4) 0.8721(4) 0.6613(3)
Zn13 Zn 0.17202(6) 0.97452(5) 0.31032(3)
O46 O 0.1795(4) 0.9468(3) 0.36795(18)
C153 C 0.1540(5) 0.7677(4) 0.5309(2)
C154 C 0.1388(5) 0.7869(4) 0.5763(2)
C155 C 0.1262(5) 0.7222(4) 0.5971(2)
H81 H 0.1103 0.7268 0.6277
C156 C 0.1343(5) 0.6406(4) 0.5775(2)
C157 C 0.1550(5) 0.6226(4) 0.5322(2)
C158 C 0.1659(5) 0.6887(4) 0.5113(2)
H82 H 0.1829 0.6857 0.4809
C159 C 0.1639(5) 0.8311(4) 0.5031(2)
C160 C 0.2169(6) 0.9222(5) 0.5227(2)
H83 H 0.2446 0.9416 0.5565
C161 C 0.2253(5) 0.9753(4) 0.4939(3)
C162 C 0.1828(5) 0.9354(4) 0.4443(2)
C163 C 0.1261(5) 0.8428(5) 0.4233(3)
H85 H 0.0982 0.8236 0.3896
C164 C 0.1173(6) 0.7923(5) 0.4523(3)
H86 H 0.0826 0.7325 0.4421
C165 C 0.1170(5) 0.5729(4) 0.6011(2)
C166 C 0.0351(6) 0.5399(4) 0.6123(2)
C167 C 0.0199(7) 0.4730(5) 0.6345(3)
C168 C 0.0914(8) 0.4417(5) 0.6449(3)
C169 C 0.1730(7) 0.4747(6) 0.6336(3)
H89 H 0.2197 0.4518 0.6422
C170 C 0.1872(6) 0.5375(5) 0.6112(3)
H90 H 0.2435 0.5604 0.6014
C171 C 0.1300(5) 0.8731(4) 0.6022(2)
C172 C 0.0524(5) 0.8909(4) 0.5868(3)
H91 H 0.0034 0.8533 0.5610
C173 C 0.0480(5) 0.9705(4) 0.6118(3)
C176 C 0.2025(6) 0.9383(5) 0.6420(3)
H94 H 0.2581 0.9286 0.6521
C177 C 0.1725(5) 0.5432(4) 0.5090(2)
C178 C 0.1058(5) 0.4562(4) 0.4985(2)
H95 H 0.0474 0.4467 0.5059
C179 C 0.1249(5) 0.3808(4) 0.4766(3)
H96 H 0.0785 0.3252 0.4709
C180 C 0.2027(6) 0.3889(4) 0.4652(3)
C181 C 0.2722(6) 0.4783(6) 0.4740(4)
H97 H 0.3290 0.4873 0.4648
C182 C 0.2546(6) 0.5528(5) 0.4966(3)
H98 H 0.3011 0.6084 0.5027
C183 C 0.1961(5) 0.9927(5) 0.4123(3)
C184 C 0.0795(10) 0.3676(7) 0.6686(3)
C186 C 0.2260(7) 0.3104(7) 0.4446(3)
Zn20 Zn 0.71183(7) 0.59183(5) 0.88256(3)
Zn24 Zn 0.64704(9) 0.40507(7) 0.78943(4)
Zn32 Zn 0.74246(7) 0.82618(5) 0.59308(4)
O89 O 0.1644(5) 0.8712(4) 0.2583(2)
O90 O 0.0362(6) 0.8083(5) 0.2683(3)
O14 O 0.8205(4) 0.0532(3) 0.63205(18)
O16 O 0.9953(9) 0.6572(5) 0.3210(2)
O17 O 0.8531(8) 0.6572(5) 0.3234(3)
O20 O 0.7073(5) 0.6855(4) 0.5694(3)
O21 O 0.8241(6) 0.7649(5) 0.5550(3)
O30 O 0.8356(5) 0.1288(4) 0.7417(2)
O31 O 0.9638(6) 0.1917(5) 0.7317(3)
O32 O 0.9846(10) 0.5267(15) 0.9533(7)
O33 O 0.9898(9) 0.4173(12) 0.9856(7)
C43 C 0.8460(5) 0.2323(4) 0.4691(2)
C44 C 0.8612(5) 0.2131(4) 0.4237(2)
C45 C 0.8738(5) 0.2778(4) 0.4029(2)
H23 H 0.8897 0.2732 0.3723
C46 C 0.8657(5) 0.3594(4) 0.4225(2)
C47 C 0.8450(5) 0.3774(4) 0.4678(2)
C48 C 0.8341(5) 0.3113(4) 0.4887(2)
H24 H 0.8171 0.3143 0.5191
C49 C 0.8361(5) 0.1689(4) 0.4969(2)
C50 C 0.7831(6) 0.0778(5) 0.4773(2)
H25 H 0.7554 0.0584 0.4435
C51 C 0.7747(5) 0.0247(4) 0.5061(3)
C52 C 0.8172(5) 0.0646(4) 0.5557(2)
C53 C 0.8739(5) 0.1572(5) 0.5767(3)
H27 H 0.9018 0.1764 0.6104
C54 C 0.8827(6) 0.2077(5) 0.5477(3)
H28 H 0.9174 0.2675 0.5579
C55 C 0.8830(5) 0.4271(4) 0.3989(2)
C56 C 0.9649(6) 0.4601(4) 0.3877(2)
C57 C 0.9801(7) 0.5270(5) 0.3655(3)
C58 C 0.9086(8) 0.5583(5) 0.3551(3)
C59 C 0.8270(7) 0.5253(6) 0.3664(3)
H31 H 0.7803 0.5482 0.3578
C60 C 0.8128(6) 0.4625(5) 0.3888(3)
H32 H 0.7565 0.4396 0.3986
C61 C 0.8700(5) 0.1269(4) 0.3978(2)
C62 C 0.9476(5) 0.1091(4) 0.4132(3)
H33 H 0.9966 0.1467 0.4390
C63 C 0.9520(5) 0.0295(4) 0.3882(3)
C66 C 0.7975(6) 0.0617(5) 0.3580(3)
H36 H 0.7419 0.0714 0.3479
C67 C 0.8275(5) 0.4568(4) 0.4910(2)
C68 C 0.8942(5) 0.5438(4) 0.5015(2)
H37 H 0.9526 0.5533 0.4941
C69 C 0.8751(5) 0.6192(4) 0.5234(3)
H38 H 0.9215 0.6748 0.5291
C70 C 0.7973(6) 0.6111(4) 0.5348(3)
C71 C 0.7278(6) 0.5217(6) 0.5260(4)
H39 H 0.6710 0.5127 0.5352
C72 C 0.7454(6) 0.4472(5) 0.5034(3)
H40 H 0.6989 0.3916 0.4973
C73 C 0.8039(5) 0.0073(5) 0.5877(3)
C74 C 0.9205(10) 0.6324(7) 0.3314(3)
C76 C 0.7740(7) 0.6896(7) 0.5554(3)
C111 C 0.9264(8) 0.2593(8) 0.8026(5)
C114 C 0.9587(11) 0.3805(13) 0.8980(7)
C115 C 0.8852(12) 0.3615(11) 0.8574(6)
H61 H 0.8442 0.3912 0.8601
C116 C 0.8637(13) 0.3007(11) 0.8110(6)
H62 H 0.8089 0.2895 0.7871
C117 C 0.9095(11) 0.1893(9) 0.7563(4)
C118 C 0.9752(13) 0.4448(15) 0.9455(8)
C187 C 0.6777(4) 0.2504(4) 0.2664(2)
C188 C 0.6957(5) 0.3208(4) 0.2477(2)
C189 C 0.7775(5) 0.3496(4) 0.2353(2)
H99 H 0.7916 0.4006 0.2221
C190 C 0.8434(4) 0.3111(4) 0.2401(2)
C191 C 0.8259(4) 0.2417(4) 0.2591(2)
C192 C 0.7424(4) 0.2117(4) 0.2708(2)
H100 H 0.7275 0.1598 0.2831
C193 C 0.8955(4) 0.2029(4) 0.2704(2)
C194 C 0.9854(4) 0.2592(4) 0.3004(2)
H101 H 0.9994 0.3190 0.3100
C197 C 0.9323(4) 0.0735(4) 0.2665(3)
H103 H 0.9182 0.0138 0.2561
C198 C 0.8699(4) 0.1112(4) 0.2543(3)
H104 H 0.8098 0.0776 0.2353
C199 C 0.6297(5) 0.3643(5) 0.2388(2)
C200 C 0.6652(7) 0.4637(6) 0.2559(3)
H105 H 0.7274 0.4949 0.2729
C201 C 0.6058(7) 0.5043(7) 0.2460(3)
H106 H 0.6242 0.5647 0.2560
C202 C 0.5127(6) 0.4519(5) 0.2194(3)
C203 C 0.4859(9) 0.3684(8) 0.1973(4)
H107 H 0.4277 0.3423 0.1749
C204 C 0.5432(8) 0.3180(7) 0.2068(4)
H108 H 0.5241 0.2589 0.1927
C205 C 0.9253(4) 0.3421(4) 0.2218(2)
C206 C 0.9807(4) 0.4353(4) 0.2365(2)
H109 H 0.9628 0.4718 0.2574
C210 C 0.9477(5) 0.2826(4) 0.1902(2)
H112 H 0.9107 0.2231 0.1830
C211 C 0.5937(4) 0.2189(4) 0.2838(2)
C212 C 0.5721(6) 0.2813(6) 0.3146(3)
H113 H 0.6082 0.3409 0.3212
C213 C 0.4986(6) 0.2495(7) 0.3331(3)
H114 H 0.4835 0.2862 0.3554
C214 C 0.4405(4) 0.1572(4) 0.3186(3)
C215 C 0.4499(9) 0.1085(10) 0.2787(4)
H115 H 0.4033 0.0549 0.2628
C216 C 0.5295(8) 0.1413(9) 0.2633(4)
H116 H 0.5396 0.1079 0.2371
C218 C 0.4509(7) 0.5013(6) 0.2101(4)
C220 C 0.3608(4) 0.1279(4) 0.3387(3)
Zn28 Zn 0.92688(8) 0.74062(6) 0.28924(3)
O6 O 0.6293(11) 0.7710(13) 0.5179(7)
O15 O 0.7778(4) 0.9259(3) 0.56905(17)
O18 O 0.9526(6) 0.8596(4) 0.3417(3)
O19 O 0.8380(6) 0.8284(5) 0.2818(3)
O22 O 0.9306(4) 0.9897(4) 0.7083(2)
O23 O 0.8347(4) 0.8535(4) 0.6549(3)
O26 O 0.8222(4) 0.6220(3) 0.8602(2)
O27 O 0.7846(5) 0.4795(4) 0.8130(3)
H26 H 0.7432 0.9645 0.4957
C64 C 0.8818(5) 0.9651(4) 0.3490(3)
C65 C 0.8047(6) 0.9810(5) 0.3321(3)
H35 H 0.7576 0.9436 0.3054
C75 C 0.8885(7) 0.8767(6) 0.3226(4)
C85 C 0.9524(5) 0.7766(4) 0.6859(3)
H44 H 0.8932 0.7437 0.6656
C86 C 0.9813(4) 0.8724(4) 0.7045(3)
C97 C 0.9424(5) 0.5328(4) 0.7806(2)
H52 H 0.9041 0.4736 0.7723
C98 C 0.9220(5) 0.5952(5) 0.8126(3)
C99 C 0.9791(5) 0.6881(4) 0.8288(3)
H53 H 0.9643 0.7246 0.8514
C107 C 0.9106(5) 0.9089(6) 0.6880(3)
C109 C 0.8335(6) 0.5607(5) 0.8290(3)
C119 C 0.6820(5) 0.2175(4) 0.0211(2)
C120 C 0.6946(5) 0.2504(4) 0.0708(2)
Zn11 Zn 0.72541(14) 0.76494(9) 0.22552(4)
C121 C 0.6880(6) 0.1891(4) 0.0963(2)
H63 H 0.6929 0.2025 0.1303
C122 C 0.6738(5) 0.1029(4) 0.0748(2)
O42 O 0.8512(6) 0.6533(4) 0.2234(2)
C123 C 0.6655(4) 0.0704(4) 0.0248(2)
O43 O 0.7134(6) 0.6461(4) 0.1888(2)
C126 C 0.7513(5) 0.3599(4) 0.0034(2)
H65 H 0.7957 0.3794 0.0335
C131 C 0.6716(6) 0.0448(5) 0.1037(2)
C132 C 0.7321(8) 0.0029(5) 0.1069(3)
H69 H 0.7799 0.0159 0.0898
C136 C 0.6014(7) 0.0280(5) 0.1281(3)
H72 H 0.5613 0.0593 0.1249
C137 C 0.7137(5) 0.3447(4) 0.0996(2)
C138 C 0.8040(5) 0.4035(4) 0.1295(2)
H73 H 0.8552 0.3858 0.1305
C139 C 0.8198(5) 0.4896(4) 0.1584(2)
H74 H 0.8797 0.5224 0.1780
C140 C 0.7535(6) 0.5224(4) 0.1579(2)
C141 C 0.6632(7) 0.4652(6) 0.1305(4)
H75 H 0.6128 0.4838 0.1304
C142 C 0.6448(7) 0.3784(6) 0.1022(4)
H76 H 0.5834 0.3444 0.0851
O64 O 0.6324(7) 0.7442(7) 0.2618(6)
C151 C 0.7709(7) 0.6131(5) 0.1917(3)
H87 H 0.9890 0.5638 0.6046
H88 H 0.9627 0.4473 0.6429
H92 H 0.9930 0.9811 0.6012
O66 O 0.7109(8) 0.8432(7) 0.1901(3)
O37 O 0.7153(4) 0.5101(3) 0.91679(18)
O39 O 0.6394(4) 0.3830(4) 0.8519(2)
C124 C 0.6690(5) 0.1266(4) 0.9994(2)
H64 H 0.6635 0.1118 0.9655
C125 C 0.6847(5) 0.2745(4) 0.9904(2)
C127 C 0.7481(5) 0.4089(4) 0.9725(3)
H66 H 0.7890 0.4671 0.9788
C128 C 0.6803(5) 0.3717(4) 0.9285(2)
C129 C 0.6153(6) 0.2848(5) 0.9148(3)
H67 H 0.5734 0.2653 0.8839
C130 C 0.6149(5) 0.2355(5) 0.9442(2)
H68 H 0.5730 0.1776 0.9375
O62 O 0.6279(9) 0.2767(9) 0.7543(4)
O63 O 0.6633(13) 0.4302(14) 0.7236(5)
H80 H 0.7681 0.0092 0.9722
C149 C 0.6759(5) 0.4253(5) 0.8955(3)
O68 O 0.7083(4) 0.7040(4) 0.9143(2)
O40 O 0.5828(9) 0.8512(7) 0.2050(4)
C133 C 0.7231(9) 0.9444(7) 0.1340(3)
H70 H 0.7621 0.9120 0.1370
C134 C 0.6532(8) 0.9334(6) 0.1579(3)
C135 C 0.5898(8) 0.9724(6) 0.1543(3)
H71 H 0.5406 0.9583 0.1704
C144 C 0.5854(5) 0.9005(4) 0.0009(2)
H77 H 0.5374 0.9041 0.0158
C150 C 0.6491(16) 0.8711(9) 0.1866(4)
O45 O 0.5862(3) 0.6423(3) 0.9389(2)
C143 C 0.6559(5) 0.9759(4) 0.9991(2)
C145 C 0.5836(5) 0.8158(4) 0.9805(2)
H78 H 0.5347 0.7672 0.9841
C146 C 0.6470(4) 0.8001(4) 0.9562(2)
C147 C 0.7154(6) 0.8765(5) 0.9546(3)
H79 H 0.7629 0.8735 0.9390
C148 C 0.7185(6) 0.9607(4) 0.9753(3)
C152 C 0.6450(5) 0.7099(5) 0.9364(3)
O32_2 O 0.0154(10) 0.4733(15) 0.0467(7)
O33_2 O 0.0102(9) 0.5827(12) 0.0144(7)
C111_2 C 0.0736(8) 0.7407(8) 0.1974(5)
C114_2 C 0.0413(11) 0.6195(13) 0.1020(7)
C115_2 C 0.1148(12) 0.6385(11) 0.1426(6)
H61_2 H 0.1558 0.6088 0.1399
C116_2 C 0.1363(13) 0.6993(11) 0.1890(6)
H62_2 H 0.1911 0.7105 0.2129
C117_2 C 0.0905(11) 0.8107(9) 0.2437(4)
C118_2 C 0.0248(13) 0.5552(15) 0.0545(8)
C112_2 C 0.9883(10) 0.7062(11) 0.1615(4)
H59_2 H 0.9389 0.7226 0.1679
C113_2 C 0.9710(13) 0.6460(13) 0.1145(6)
H60_2 H 0.9119 0.6254 0.0928
H128 H 0.945021 0.423682 0.00476832
H128_2 H 0.054979 0.576318 0.995232
loop_
_geom_bond_atom_site_label_1
_geom_bond_atom_site_label_2
_geom_bond_site_symmetry_1
_geom_bond_site_symmetry_2
O1 C7 1_555 1_555
O2 C7 1_555 1_555
O3 C8 1_555 1_555
O4 C8 1_555 1_555
C5 C4 1_555 1_555
H3 C5 1_555 1_555
C6 C1 1_555 1_555
H4 C6 1_555 1_555
C7 C1 1_555 1_555
C8 C4 1_555 1_555
Zn2 O1 1_555 1_555
C5 C6 1_555 1_555
C2 H1 1_555 1_555
C3 C2 1_555 1_555
H2 C3 1_555 1_555
C2_2 H1_2 1_555 1_555
C3_2 C2_2 1_555 1_555
H2_2 C3_2 1_555 1_555
O1_2 C7_2 1_555 1_555
O2_2 C7_2 1_555 1_555
O3_2 C8_2 1_555 1_555
O4_2 C8_2 1_555 1_555
C5_2 C4_2 1_555 1_555
H3_2 C5_2 1_555 1_555
C6_2 C1_2 1_555 1_555
H4_2 C6_2 1_555 1_555
C7_2 C1_2 1_555 1_555
C8_2 C4_2 1_555 1_555
Zn2_2 O1_2 1_555 1_555
C5_2 C6_2 1_555 1_555
O12 C42 1_555 1_555
O13 C42 1_555 1_555
H20 C35 1_555 1_555
C36 C35 1_555 1_555
C37 C36 1_555 1_555
H21 C37 1_555 1_555
C38 C33 1_555 1_555
C42 C36 1_555 1_555
Zn17 O12 1_555 1_555
C37 C38 1_555 1_555
O8 C40 1_555 1_555
O9 C40 1_555 1_555
H12 C23 1_555 1_555
C24 C23 1_555 1_555
C25 C24 1_555 1_555
H13 C25 1_555 1_555
H19 C34 1_555 1_555
C40 C24 1_555 1_555
Zn25 O9 1_555 1_555
Zn17 O5 1_555 1_555
O5 C39 1_555 1_555
Zn4 O7 1_555 1_555
O7 C39 1_555 1_555
H6 C14 1_555 1_555
H8 C17 1_555 1_555
C18 C17 1_555 1_555
C19 C18 1_555 1_555
H9 C19 1_555 1_555
C20 C15 1_555 1_555
H10 C20 1_555 1_555
O34 Zn4 1_555 1_555
O35 Zn4 1_555 1_555
C39 C18 1_555 1_555
O78 Zn17 1_555 1_555
O80 Zn4 1_555 1_555
O82 Zn17 1_555 1_555
O84 Zn4 1_555 1_555
Zn4 O78 1_555 1_555
C19 C20 1_555 1_555
C9 C10 1_555 1_555
C10 C11 1_555 1_555
Zn25 O11 1_555 1_555
C11 H5 1_555 1_555
Zn6 O10 1_555 1_555
C12 C11 1_555 1_555
O10 C41 1_555 1_555
C13 C12 1_555 1_555
O11 C41 1_555 1_555
H7 C16 1_555 1_555
C21 C12 1_555 1_555
C22 C21 1_555 1_555
H11 C22 1_555 1_555
C26 C21 1_555 1_555
H14 C26 1_555 1_555
C27 C10 1_555 1_555
C28 C27 1_555 1_555
H15 C28 1_555 1_555
C29 C28 1_555 1_555
H16 C29 1_555 1_555
C30 C29 1_555 1_555
C31 C30 1_555 1_555
H17 C31 1_555 1_555
C32 C27 1_555 1_555
H18 C32 1_555 1_555
O36 Zn25 1_555 1_555
C41 C30 1_555 1_555
C112 H59 1_555 1_555
C113 C112 1_555 1_555
H60 C113 1_555 1_555
O38 Zn14 1_555 1_555
Zn14 O47 1_555 1_555
O50 Zn6 1_555 1_555
O51 Zn25 1_555 1_555
O55 Zn14 1_555 1_555
O82 C219 1_555 1_555
O84 C219 1_555 1_555
C175 C174 1_555 1_555
H93 C175 1_555 1_555
C185 O50 1_555 1_555
H102 C195 1_555 1_555
C196 C195 1_555 1_555
H110 C207 1_555 1_555
C208 C207 1_555 1_555
C209 C208 1_555 1_555
H111 C209 1_555 1_555
C217 O54 1_555 1_555
C219 C208 1_555 1_555
O70 Zn6 1_555 1_555
O72 Zn6 1_555 1_555
O74 Zn14 1_555 1_555
O76 Zn14 1_555 1_555
O88 Zn14 1_555 1_555
Zn6 O51 1_555 1_555
C31 C32 1_555 1_555
O51 C185 1_555 1_555
O55 C217 1_555 1_555
C174 C185 1_555 1_555
C196 C217 1_555 1_555
O24 C108 1_555 1_555
O25 C108 1_555 1_555
O28 C110 1_555 1_555
O29 C110 1_555 1_555
C77 C78 1_555 1_555
C78 C79 1_555 1_555
C79 H41 1_555 1_555
C80 C79 1_555 1_555
C81 C80 1_555 1_555
C82 C77 1_555 1_555
H42 C82 1_555 1_555
C83 C81 1_555 1_555
C84 C83 1_555 1_555
H43 C84 1_555 1_555
H45 C87 1_555 1_555
C88 C83 1_555 1_555
H46 C88 1_555 1_555
C89 C78 1_555 1_555
C90 C89 1_555 1_555
H47 C90 1_555 1_555
C91 C90 1_555 1_555
H48 C91 1_555 1_555
C92 C91 1_555 1_555
C93 C92 1_555 1_555
H49 C93 1_555 1_555
C94 C89 1_555 1_555
H50 C94 1_555 1_555
C95 C80 1_555 1_555
C96 C95 1_555 1_555
H51 C96 1_555 1_555
C100 C95 1_555 1_555
H54 C100 1_555 1_555
C101 C77 1_555 1_555
C102 C101 1_555 1_555
H55 C102 1_555 1_555
C103 C102 1_555 1_555
H56 C103 1_555 1_555
C104 C103 1_555 1_555
C105 C104 1_555 1_555
H57 C105 1_555 1_555
C106 C101 1_555 1_555
H58 C106 1_555 1_555
C108 C92 1_555 1_555
C110 C104 1_555 1_555
Zn13 O46 1_555 1_555
O46 C183 1_555 1_555
O70 C184 1_555 1_555
O72 C184 1_555 1_555
O74 C186 1_555 1_555
O76 C186 1_555 1_555
C153 C154 1_555 1_555
C154 C155 1_555 1_555
C155 H81 1_555 1_555
C156 C155 1_555 1_555
C157 C156 1_555 1_555
C158 C153 1_555 1_555
H82 C158 1_555 1_555
C159 C153 1_555 1_555
C160 C159 1_555 1_555
H83 C160 1_555 1_555
C161 C160 1_555 1_555
C162 C161 1_555 1_555
C163 C162 1_555 1_555
H85 C163 1_555 1_555
C164 C159 1_555 1_555
H86 C164 1_555 1_555
C165 C156 1_555 1_555
C166 C165 1_555 1_555
C167 C166 1_555 1_555
C168 C167 1_555 1_555
C169 C168 1_555 1_555
H89 C169 1_555 1_555
C170 C165 1_555 1_555
H90 C170 1_555 1_555
C171 C154 1_555 1_555
C172 C171 1_555 1_555
H91 C172 1_555 1_555
C173 C172 1_555 1_555
C176 C171 1_555 1_555
H94 C176 1_555 1_555
C177 C157 1_555 1_555
C178 C177 1_555 1_555
H95 C178 1_555 1_555
C179 C178 1_555 1_555
H96 C179 1_555 1_555
C180 C179 1_555 1_555
C181 C180 1_555 1_555
H97 C181 1_555 1_555
C182 C177 1_555 1_555
H98 C182 1_555 1_555
C183 C162 1_555 1_555
C184 C168 1_555 1_555
C186 C180 1_555 1_555
Zn20 O24 1_555 1_555
Zn24 O24 1_555 1_555
Zn32 O29 1_555 1_555
O89 Zn13 1_555 1_555
O25 Zn24 1_555 1_555
C81 C82 1_555 1_555
C87 C88 1_555 1_555
C93 C94 1_555 1_555
C105 C106 1_555 1_555
C157 C158 1_555 1_555
C163 C164 1_555 1_555
C169 C170 1_555 1_555
C181 C182 1_555 1_555
Zn29 O14 1_555 1_555
O14 C73 1_555 1_555
O16 C74 1_555 1_555
O17 C74 1_555 1_555
O20 C76 1_555 1_555
O21 C76 1_555 1_555
O30 Zn29 1_555 1_555
O32 C118 1_555 1_555
O33 C118 1_555 1_555
C43 C44 1_555 1_555
C44 C45 1_555 1_555
C45 H23 1_555 1_555
C46 C45 1_555 1_555
C47 C46 1_555 1_555
C48 C43 1_555 1_555
H24 C48 1_555 1_555
C49 C43 1_555 1_555
C50 C49 1_555 1_555
H25 C50 1_555 1_555
C51 C50 1_555 1_555
C52 C51 1_555 1_555
C53 C52 1_555 1_555
H27 C53 1_555 1_555
C54 C49 1_555 1_555
H28 C54 1_555 1_555
C55 C46 1_555 1_555
C56 C55 1_555 1_555
C57 C56 1_555 1_555
C58 C57 1_555 1_555
C59 C58 1_555 1_555
H31 C59 1_555 1_555
C60 C55 1_555 1_555
H32 C60 1_555 1_555
C61 C44 1_555 1_555
C62 C61 1_555 1_555
H33 C62 1_555 1_555
C63 C62 1_555 1_555
C66 C61 1_555 1_555
H36 C66 1_555 1_555
C67 C47 1_555 1_555
C68 C67 1_555 1_555
H37 C68 1_555 1_555
C69 C68 1_555 1_555
H38 C69 1_555 1_555
C70 C69 1_555 1_555
C71 C70 1_555 1_555
H39 C71 1_555 1_555
C72 C67 1_555 1_555
H40 C72 1_555 1_555
C73 C52 1_555 1_555
C74 C58 1_555 1_555
C76 C70 1_555 1_555
C115 C114 1_555 1_555
H61 C115 1_555 1_555
C116 C111 1_555 1_555
H62 C116 1_555 1_555
C117 O30 1_555 1_555
C118 C114 1_555 1_555
O78 C218 1_555 1_555
O80 C218 1_555 1_555
O86 C220 1_555 1_555
O88 C220 1_555 1_555
C187 C188 1_555 1_555
C188 C189 1_555 1_555
C189 H99 1_555 1_555
C190 C189 1_555 1_555
C191 C190 1_555 1_555
C192 C187 1_555 1_555
H100 C192 1_555 1_555
C193 C191 1_555 1_555
C194 C193 1_555 1_555
H101 C194 1_555 1_555
H103 C197 1_555 1_555
C198 C193 1_555 1_555
H104 C198 1_555 1_555
C199 C188 1_555 1_555
C200 C199 1_555 1_555
H105 C200 1_555 1_555
C201 C200 1_555 1_555
H106 C201 1_555 1_555
C202 C201 1_555 1_555
C203 C202 1_555 1_555
H107 C203 1_555 1_555
C204 C199 1_555 1_555
H108 C204 1_555 1_555
C205 C190 1_555 1_555
C206 C205 1_555 1_555
H109 C206 1_555 1_555
C210 C205 1_555 1_555
H112 C210 1_555 1_555
C211 C187 1_555 1_555
C212 C211 1_555 1_555
H113 C212 1_555 1_555
C213 C212 1_555 1_555
H114 C213 1_555 1_555
C214 C213 1_555 1_555
C215 C214 1_555 1_555
H115 C215 1_555 1_555
C216 C211 1_555 1_555
H116 C216 1_555 1_555
C218 C202 1_555 1_555
C220 C214 1_555 1_555
Zn28 O16 1_555 1_555
Zn32 O20 1_555 1_555
O17 Zn28 1_555 1_555
O21 Zn32 1_555 1_555
O31 C117 1_555 1_555
C47 C48 1_555 1_555
C53 C54 1_555 1_555
C59 C60 1_555 1_555
C71 C72 1_555 1_555
C111 C117 1_555 1_555
C115 C116 1_555 1_555
C191 C192 1_555 1_555
C197 C198 1_555 1_555
C203 C204 1_555 1_555
C215 C216 1_555 1_555
O6 Zn32 1_555 1_555
Zn32 O15 1_555 1_555
O18 C75 1_555 1_555
O19 C75 1_555 1_555
O23 Zn32 1_555 1_555
O26 C109 1_555 1_555
O27 C109 1_555 1_555
C65 C64 1_555 1_555
H35 C65 1_555 1_555
C75 C64 1_555 1_555
H44 C85 1_555 1_555
C86 C85 1_555 1_555
H52 C97 1_555 1_555
C98 C97 1_555 1_555
C99 C98 1_555 1_555
H53 C99 1_555 1_555
C107 O22 1_555 1_555
C109 C98 1_555 1_555
C119 C120 1_555 1_555
C120 C121 1_555 1_555
Zn11 O19 1_555 1_555
C121 H63 1_555 1_555
Zn28 O18 1_555 1_555
C122 C121 1_555 1_555
O42 Zn28 1_555 1_555
C123 C122 1_555 1_555
O43 Zn11 1_555 1_555
H65 C126 1_555 1_555
C131 C122 1_555 1_555
C132 C131 1_555 1_555
H69 C132 1_555 1_555
C136 C131 1_555 1_555
H72 C136 1_555 1_555
C137 C120 1_555 1_555
C138 C137 1_555 1_555
H73 C138 1_555 1_555
C139 C138 1_555 1_555
H74 C139 1_555 1_555
C140 C139 1_555 1_555
C141 C140 1_555 1_555
H75 C141 1_555 1_555
C142 C137 1_555 1_555
H76 C142 1_555 1_555
O64 Zn11 1_555 1_555
C151 O42 1_555 1_555
Zn20 O26 1_555 1_555
Zn24 O27 1_555 1_555
O66 Zn11 1_555 1_555
O19 Zn28 1_555 1_555
O23 C107 1_555 1_555
C86 C107 1_555 1_555
O43 C151 1_555 1_555
C140 C151 1_555 1_555
C141 C142 1_555 1_555
Zn20 O37 1_555 1_555
O37 C149 1_555 1_555
Zn24 O39 1_555 1_555
O39 C149 1_555 1_555
H64 C124 1_555 1_555
H66 C127 1_555 1_555
C128 C127 1_555 1_555
C129 C128 1_555 1_555
H67 C129 1_555 1_555
C130 C125 1_555 1_555
H68 C130 1_555 1_555
O62 Zn24 1_555 1_555
O63 Zn24 1_555 1_555
C149 C128 1_555 1_555
O68 Zn20 1_555 1_555
C129 C130 1_555 1_555
O40 C150 1_555 1_555
O66 C150 1_555 1_555
H70 C133 1_555 1_555
C134 C133 1_555 1_555
C135 C134 1_555 1_555
H71 C135 1_555 1_555
H77 C144 1_555 1_555
C150 C134 1_555 1_555
O68 C152 1_555 1_555
O45 C152 1_555 1_555
H78 C145 1_555 1_555
C146 C145 1_555 1_555
C147 C146 1_555 1_555
H79 C147 1_555 1_555
C148 C143 1_555 1_555
C152 C146 1_555 1_555
C147 C148 1_555 1_555
O32_2 C118_2 1_555 1_555
O33_2 C118_2 1_555 1_555
C115_2 C114_2 1_555 1_555
H61_2 C115_2 1_555 1_555
C116_2 C111_2 1_555 1_555
H62_2 C116_2 1_555 1_555
C117_2 O89 1_555 1_555
C118_2 C114_2 1_555 1_555
O90 C117_2 1_555 1_555
C111_2 C117_2 1_555 1_555
C115_2 C116_2 1_555 1_555
C112_2 H59_2 1_555 1_555
C113_2 C112_2 1_555 1_555
H60_2 C113_2 1_555 1_555

#END
