
###############################################################################
#
# This file contains modified crystal structure data generated from the
# MOF subset of the Cambridge Structural Database (CSD) v543 
# hosted by the Cambridge Crystallographic Data Centre (CCDC).
#
# This work is licensed under the Creative Commons
# Attribution-NonCommercial-ShareAlike 4.0 International License.
# To view a copy of this license, visit
# http://creativecommons.org/licenses/by-nc-sa/4.0/
# or send a letter to
# Creative Commons, PO Box 1866, Mountain View, CA 94042, USA.
#
# CIF created using the CSD Python API on 29 September 2022
# The structure has been converted into the P1 space group
# The structure has a 3D framework
# The original CSD entry GOSDEZ is in the orthorhombic crystal system
# The original CSD entry GOSDEZ is in a Sohncke space group
# The framework has been calculated to contain at least 10.0% void space
# The void calculation uses a probe of radius 1.32A, grid spacing 0.4
# H atom positions have been added when not included in the experimental data
# Generated hydrogen atom positions removed from atoms on special positions
#
###############################################################################

data_GOSDEZ
_chemical_formula_moiety         '(C272 H176 Cd12 O72)n'
_symmetry_cell_setting           triclinic
_symmetry_space_group_name_H-M   'P 1'
_symmetry_Int_Tables_number      1
_space_group_name_Hall           'P 1'
loop_
_symmetry_equiv_pos_site_id
_symmetry_equiv_pos_as_xyz
1 x,y,z
_cell_length_a                   28.677(2)
_cell_length_b                   15.8555(11)
_cell_length_c                   21.4018(15)
_cell_angle_alpha                90
_cell_angle_beta                 90
_cell_angle_gamma                90
_cell_volume                     9731.15
loop_
_atom_site_label
_atom_site_type_symbol
_atom_site_fract_x
_atom_site_fract_y
_atom_site_fract_z
C110 C 0.10140(13) 0.0244(3) 0.1091(2)
H56 H 0.0842 0.0707 0.1225
C114 C 0.14537(14) 0.0082(3) 0.1352(2)
H60 H 0.1577 0.0453 0.1645
O11 O 0.23826(10) 0.0190(2) 0.82900(16)
O12 O 0.22973(11) 0.1552(2) 0.84910(16)
C29 C 0.08336(13) 0.0291(3) 0.93683(19)
C33 C 0.03752(12) 0.0127(3) 0.96849(19)
C47 C 0.11004(14) 0.0990(3) 0.9545(2)
H21 H 0.0990 0.1350 0.9855
C51 C 0.17034(13) 0.0618(3) 0.8820(2)
C54 C 0.15229(13) 0.1153(3) 0.9268(2)
H26 H 0.1690 0.1631 0.9384
C55 C 0.21653(13) 0.0814(3) 0.8512(2)
C69 C 0.11923(11) 0.2971(2) 0.7453(2)
C70 C 0.05382(11) 0.1651(2) 0.7494(2)
C71 C 0.02402(10) 0.08865(19) 0.74859(18)
C72 C 0.04746(11) 0.0106(2) 0.7460(2)
H37 H 0.0798 0.0107 0.7429
O19 O 0.14628(10) 0.43140(19) 0.71404(18)
C75 C 0.15513(12) 0.3639(2) 0.7428(2)
C76 C 0.04798(12) 0.2320(2) 0.70737(18)
H38 H 0.0223 0.2327 0.6808
O20 O 0.19436(10) 0.35104(18) 0.76845(15)
C77 C 0.12287(12) 0.2324(2) 0.78887(19)
H39 H 0.1474 0.2325 0.8172
C78 C 0.09083(12) 0.1687(2) 0.7906(2)
H40 H 0.0941 0.1264 0.8204
C79 C 0.08020(13) 0.2971(2) 0.7050(2)
H41 H 0.0761 0.3411 0.6767
Cd11 Cd 0.295373(8) 0.028447(15) 0.760103(15)
Cd16 Cd 0.208624(8) 0.513909(15) 0.743128(14)
Cd19 Cd 0.246736(9) 0.239104(16) 0.762630(14)
O29 O 0.23826(10) 0.9810(2) 0.17100(16)
O30 O 0.22973(11) 0.8448(2) 0.15090(16)
C106 C 0.08336(13) 0.9709(3) 0.06317(19)
C108 C 0.03752(12) 0.9873(3) 0.03151(19)
C113 C 0.11004(14) 0.9010(3) 0.0455(2)
H59 H 0.0990 0.8650 0.0145
C115 C 0.17034(13) 0.9382(3) 0.1180(2)
C116 C 0.15229(13) 0.8847(3) 0.0732(2)
H61 H 0.1690 0.8369 0.0616
C117 C 0.21653(13) 0.9186(3) 0.1488(2)
Cd8 Cd 0.295373(8) 0.971553(15) 0.239897(15)
Cd17 Cd 0.246736(9) 0.760896(16) 0.237370(14)
C40 C 0.10140(13) 0.9756(3) 0.8909(2)
H14 H 0.0842 0.9293 0.8775
C48 C 0.14537(14) 0.9918(3) 0.8648(2)
H22 H 0.1577 0.9547 0.8355
C73 C 0.02462(11) 0.9337(2) 0.74797(19)
C74 C 0.05279(12) 0.8546(2) 0.7465(2)
O21 O 0.16625(12) 0.6244(2) 0.6994(2)
O22 O 0.14590(14) 0.5936(3) 0.7944(2)
C80 C 0.14321(14) 0.6387(2) 0.7456(3)
C81 C 0.10973(13) 0.7109(3) 0.7460(3)
C82 C 0.04895(14) 0.7947(3) 0.7948(2)
H42 H 0.0273 0.8019 0.8267
C83 C 0.07845(15) 0.7238(3) 0.7938(2)
H43 H 0.0768 0.6848 0.8262
C84 C 0.11125(16) 0.7700(3) 0.6974(3)
H44 H 0.1316 0.7616 0.6641
C85 C 0.08313(15) 0.8407(3) 0.6981(3)
H45 H 0.0848 0.8793 0.6654
Cd7 Cd 0.704627(8) 0.028447(15) 0.739897(15)
C111 C 0.87353(13) 0.0364(3) 0.0697(2)
H57 H 0.8763 0.0853 0.0460
C112 C 0.83408(13) 0.0243(3) 0.1061(2)
H58 H 0.8112 0.0658 0.1081
O38 O 0.64314(11) 0.04995(19) 0.21030(17)
O41 O 0.67610(10) 0.09830(19) 0.29631(17)
Cd2 Cd 0.791376(8) 0.513909(15) 0.756872(14)
Cd3 Cd 0.753264(9) 0.239104(16) 0.737370(14)
C1 C 0.88077(11) 0.2971(2) 0.7547(2)
C2 C 0.94618(11) 0.1651(2) 0.7506(2)
C3 C 0.97598(10) 0.08865(19) 0.75141(18)
C4 C 0.95254(11) 0.0106(2) 0.7540(2)
H1 H 0.9202 0.0107 0.7571
O1 O 0.64314(11) 0.95005(19) 0.78970(17)
O2 O 0.75533(11) 0.0094(2) 0.81814(16)
O3 O 0.85372(10) 0.43140(19) 0.78596(18)
C7 C 0.61326(13) 0.8221(2) 0.7473(2)
O4 O 0.67610(10) 0.90170(19) 0.70369(17)
C8 C 0.64586(13) 0.8965(2) 0.7475(2)
C9 C 0.84487(12) 0.3639(2) 0.7572(2)
C10 C 0.95202(12) 0.2320(2) 0.79263(18)
H2 H 0.9777 0.2327 0.8192
O5 O 0.80564(10) 0.35104(18) 0.73155(15)
C11 C 0.57869(14) 0.8150(2) 0.7922(2)
H3 H 0.5757 0.8560 0.8230
O6 O 0.78785(11) 0.1317(2) 0.78757(17)
C12 C 0.78687(13) 0.0656(2) 0.81844(19)
C13 C 0.61809(13) 0.7592(3) 0.7024(2)
H4 H 0.6411 0.7636 0.6720
C14 C 0.87713(12) 0.2324(2) 0.71113(19)
H5 H 0.8526 0.2325 0.6828
C15 C 0.90917(12) 0.1687(2) 0.7094(2)
H6 H 0.9059 0.1264 0.6796
C16 C 0.82901(14) 0.0504(3) 0.8603(2)
C17 C 0.91980(13) 0.2971(2) 0.7950(2)
H7 H 0.9239 0.3411 0.8233
O7 O 0.68316(9) 0.16375(17) 0.75760(18)
O8 O 0.74029(10) 0.48845(18) 0.68084(15)
O9 O 0.25683(11) 0.4657(2) 0.66444(16)
O10 O 0.71484(11) 0.3228(2) 0.67097(16)
C18 C 0.54850(13) 0.7462(3) 0.7910(2)
H8 H 0.5246 0.7432 0.8203
C19 C 0.52416(10) 0.4502(2) 0.74752(18)
C20 C 0.54785(11) 0.52703(19) 0.74643(17)
H9 H 0.5803 0.5267 0.7446
C21 C 0.52448(10) 0.6047(2) 0.74801(18)
C22 C 0.55300(12) 0.6823(2) 0.7476(2)
C23 C 0.33147(12) 0.5197(3) 0.6335(2)
C24 C 0.28598(13) 0.5260(3) 0.6694(2)
O14 O 0.63662(11) 0.1038(2) 0.68737(18)
C26 C 0.58874(13) 0.6904(2) 0.7029(2)
H10 H 0.5926 0.6484 0.6730
C27 C 0.90901(13) 0.0234(3) 0.93197(19)
O16 O 0.74385(10) 0.62315(19) 0.65408(16)
C28 C 0.55310(11) 0.3723(2) 0.74377(19)
C30 C 0.41558(12) 0.5094(3) 0.56850(18)
C31 C 0.46063(12) 0.5072(3) 0.53257(19)
C32 C 0.95313(12) 0.0105(3) 0.96782(19)
C34 C 0.99523(12) 0.0213(2) 0.9375(2)
H11 H 0.9953 0.0348 0.8952
C35 C 0.57331(13) 0.2399(3) 0.6948(2)
H12 H 0.5666 0.1970 0.6666
C37 C 0.67683(12) 0.5438(2) 0.62546(19)
C38 C 0.61375(13) 0.2357(2) 0.7308(2)
C39 C 0.64649(13) 0.4817(3) 0.64416(19)
H13 H 0.6547 0.4457 0.6766
C42 C 0.38268(13) 0.4480(3) 0.56284(19)
H16 H 0.3886 0.4021 0.5370
C43 C 0.54266(12) 0.3081(2) 0.7009(2)
H17 H 0.5157 0.3109 0.6767
C46 C 0.66356(12) 0.5981(2) 0.5769(2)
H20 H 0.6833 0.6413 0.5642
C49 C 0.59261(13) 0.3659(3) 0.7808(2)
H23 H 0.5988 0.4072 0.8106
C50 C 0.72345(13) 0.5542(3) 0.6554(2)
C52 C 0.34074(13) 0.4521(3) 0.59451(19)
H24 H 0.3188 0.4095 0.5896
C53 C 0.40643(13) 0.5785(3) 0.6079(2)
H25 H 0.4281 0.6217 0.6119
O17 O 0.74059(15) 0.2962(3) 0.83264(19)
C58 C 0.86349(15) 0.1093(3) 0.8627(2)
H29 H 0.8601 0.1590 0.8401
C59 C 0.90294(14) 0.0973(3) 0.8975(2)
H30 H 0.9259 0.1387 0.8981
C60 C 0.62327(13) 0.2982(3) 0.7738(2)
H31 H 0.6501 0.2953 0.7981
C61 C 0.64594(13) 0.1630(2) 0.7234(2)
C62 C 0.36485(14) 0.5817(3) 0.6407(2)
H32 H 0.3593 0.6262 0.6680
C64 C 0.50356(13) 0.5159(2) 0.5634(2)
H34 H 0.5039 0.5264 0.6061
C65 C 0.54546(12) 0.5092(3) 0.53169(18)
C66 C 0.58985(12) 0.5240(3) 0.56583(18)
C67 C 0.62006(14) 0.5864(3) 0.5476(2)
H35 H 0.6116 0.6220 0.5150
C68 C 0.60292(13) 0.4724(3) 0.6144(2)
H36 H 0.5826 0.4305 0.6278
O18 O 0.27894(11) 0.5864(2) 0.70268(18)
O23 O 0.35686(11) 0.95005(19) 0.71030(17)
C86 C 0.38674(13) 0.8221(2) 0.7527(2)
O24 O 0.32390(10) 0.90170(19) 0.79631(17)
C87 C 0.35414(13) 0.8965(2) 0.7525(2)
C88 C 0.42131(14) 0.8150(2) 0.7078(2)
H46 H 0.4243 0.8560 0.6770
C89 C 0.38191(13) 0.7592(3) 0.7976(2)
H47 H 0.3589 0.7636 0.8280
O25 O 0.31684(9) 0.16375(17) 0.74240(18)
C90 C 0.45150(13) 0.7462(3) 0.7090(2)
H48 H 0.4754 0.7432 0.6797
C91 C 0.47584(10) 0.4502(2) 0.75248(18)
C92 C 0.45215(11) 0.52703(19) 0.75357(17)
H49 H 0.4197 0.5267 0.7554
C93 C 0.47552(10) 0.6047(2) 0.75199(18)
C94 C 0.44700(12) 0.6823(2) 0.7524(2)
O26 O 0.36338(11) 0.1038(2) 0.81263(18)
C95 C 0.41126(13) 0.6904(2) 0.7971(2)
H50 H 0.4074 0.6484 0.8270
C96 C 0.44690(11) 0.3723(2) 0.75623(19)
C97 C 0.42669(13) 0.2399(3) 0.8052(2)
H51 H 0.4334 0.1970 0.8334
C98 C 0.38625(13) 0.2357(2) 0.7692(2)
C99 C 0.45734(12) 0.3081(2) 0.7991(2)
H52 H 0.4843 0.3109 0.8233
C100 C 0.40739(13) 0.3659(3) 0.7192(2)
H53 H 0.4012 0.4072 0.6894
C101 C 0.37673(13) 0.2982(3) 0.7262(2)
H54 H 0.3499 0.2953 0.7019
C102 C 0.35406(13) 0.1630(2) 0.7766(2)
O31 O 0.74029(10) 0.51155(18) 0.31916(15)
O32 O 0.25683(11) 0.5343(2) 0.33556(16)
C120 C 0.33147(12) 0.4803(3) 0.3665(2)
C121 C 0.28598(13) 0.4740(3) 0.3306(2)
O33 O 0.74385(10) 0.37685(19) 0.34592(16)
C122 C 0.41558(12) 0.4906(3) 0.43150(18)
C123 C 0.46063(12) 0.4928(3) 0.46743(19)
C124 C 0.67683(12) 0.4562(2) 0.37454(19)
C125 C 0.64649(13) 0.5183(3) 0.35584(19)
H64 H 0.6547 0.5543 0.3234
C126 C 0.38268(13) 0.5520(3) 0.43716(19)
H65 H 0.3886 0.5979 0.4630
C127 C 0.66356(12) 0.4019(2) 0.4231(2)
H66 H 0.6833 0.3587 0.4358
C128 C 0.72345(13) 0.4458(3) 0.3446(2)
C129 C 0.34074(13) 0.5479(3) 0.40549(19)
H67 H 0.3188 0.5905 0.4104
C130 C 0.40643(13) 0.4215(3) 0.3921(2)
H68 H 0.4281 0.3783 0.3881
C131 C 0.36485(14) 0.4183(3) 0.3593(2)
H69 H 0.3593 0.3738 0.3320
C132 C 0.50356(13) 0.4841(2) 0.4366(2)
H70 H 0.5039 0.4736 0.3939
C133 C 0.54546(12) 0.4908(3) 0.46831(18)
C134 C 0.58985(12) 0.4760(3) 0.43417(18)
C135 C 0.62006(14) 0.4136(3) 0.4524(2)
H71 H 0.6116 0.3780 0.4850
C136 C 0.60292(13) 0.5276(3) 0.3856(2)
H72 H 0.5826 0.5695 0.3722
O34 O 0.27894(11) 0.4136(2) 0.29732(18)
Cd13 Cd 0.208624(8) 0.486091(15) 0.256872(14)
Cd14 Cd 0.791376(8) 0.486091(15) 0.243128(14)
O45 O 0.25971(10) 0.48845(18) 0.81916(15)
O46 O 0.74317(11) 0.4657(2) 0.83556(16)
O48 O 0.76174(10) 0.0190(2) 0.67100(16)
O50 O 0.77027(11) 0.1552(2) 0.65090(16)
O51 O 0.83375(12) 0.6244(2) 0.8006(2)
O54 O 0.85410(14) 0.5936(3) 0.7056(2)
O56 O 0.72106(11) 0.5864(2) 0.79732(18)
O27 O 0.75533(11) 0.9906(2) 0.18186(16)
O28 O 0.78785(11) 0.8683(2) 0.21243(17)
C103 C 0.78687(13) 0.9344(2) 0.18156(19)
C104 C 0.82901(14) 0.9496(3) 0.1397(2)
C105 C 0.90901(13) 0.9766(3) 0.06803(19)
C107 C 0.95313(12) 0.9895(3) 0.03218(19)
C109 C 0.99523(12) 0.9787(2) 0.0625(2)
H55 H 0.9953 0.9652 0.1048
C118 C 0.86349(15) 0.8907(3) 0.1373(2)
H62 H 0.8601 0.8410 0.1599
C119 C 0.90294(14) 0.9027(3) 0.1025(2)
H63 H 0.9259 0.8613 0.1019
Cd4 Cd 0.704627(8) 0.971553(15) 0.260103(15)
Cd5 Cd 0.753264(9) 0.760896(16) 0.262630(14)
O35 O 0.71484(11) 0.6772(2) 0.32903(16)
O36 O 0.74059(15) 0.7038(3) 0.16736(19)
O42 O 0.80564(10) 0.64896(18) 0.26845(15)
O44 O 0.68316(9) 0.83625(17) 0.24240(18)
O47 O 0.76174(10) 0.9810(2) 0.32900(16)
O49 O 0.77027(11) 0.8448(2) 0.34910(16)
O53 O 0.63662(11) 0.8962(2) 0.31263(18)
C5 C 0.97538(11) 0.9337(2) 0.75203(19)
C6 C 0.94721(12) 0.8546(2) 0.7535(2)
C25 C 0.85679(14) 0.6387(2) 0.7544(3)
C36 C 0.89027(13) 0.7109(3) 0.7540(3)
C41 C 0.87353(13) 0.9636(3) 0.9303(2)
H15 H 0.8763 0.9147 0.9540
C44 C 0.83408(13) 0.9757(3) 0.8939(2)
H18 H 0.8112 0.9342 0.8919
C45 C 0.95105(14) 0.7947(3) 0.7052(2)
H19 H 0.9727 0.8019 0.6733
C56 C 0.92155(15) 0.7238(3) 0.7062(2)
H27 H 0.9232 0.6848 0.6738
C57 C 0.88875(16) 0.7700(3) 0.8026(3)
H28 H 0.8684 0.7616 0.8359
C63 C 0.91687(15) 0.8407(3) 0.8019(3)
H33 H 0.9152 0.8793 0.8346
C5_2 C 0.02462(11) 0.0663(2) 0.25203(19)
C6_2 C 0.05279(12) 0.1454(2) 0.2535(2)
O13 O 0.16625(12) 0.3756(2) 0.3006(2)
O15 O 0.14590(14) 0.4064(3) 0.2056(2)
C25_2 C 0.14321(14) 0.3613(2) 0.2544(3)
C36_2 C 0.10973(13) 0.2891(3) 0.2540(3)
C41_2 C 0.12647(13) 0.0364(3) 0.4303(2)
H15_2 H 0.1237 0.0853 0.4540
C44_2 C 0.16592(13) 0.0243(3) 0.3939(2)
H18_2 H 0.1888 0.0658 0.3919
C45_2 C 0.04895(14) 0.2053(3) 0.2052(2)
H19_2 H 0.0273 0.1981 0.1733
C56_2 C 0.07845(15) 0.2762(3) 0.2062(2)
H27_2 H 0.0768 0.3152 0.1738
C57_2 C 0.11125(16) 0.2300(3) 0.3026(3)
H28_2 H 0.1316 0.2384 0.3359
C63_2 C 0.08313(15) 0.1593(3) 0.3019(3)
H33_2 H 0.0848 0.1207 0.3346
O27_2 O 0.24467(11) 0.0094(2) 0.68186(16)
O28_2 O 0.21215(11) 0.1317(2) 0.71243(17)
C103_2 C 0.21313(13) 0.0656(2) 0.68156(19)
C104_2 C 0.17099(14) 0.0504(3) 0.6397(2)
C105_2 C 0.09099(13) 0.0234(3) 0.56803(19)
C107_2 C 0.04687(12) 0.0105(3) 0.53218(19)
C109_2 C 0.00477(12) 0.0213(2) 0.5625(2)
H55_2 H 0.0047 0.0348 0.6048
C118_2 C 0.13651(15) 0.1093(3) 0.6373(2)
H62_2 H 0.1399 0.1590 0.6599
C119_2 C 0.09706(14) 0.0973(3) 0.6025(2)
H63_2 H 0.0741 0.1387 0.6019
O35_2 O 0.28516(11) 0.3228(2) 0.82903(16)
O36_2 O 0.25941(15) 0.2962(3) 0.66736(19)
O37 O 0.35686(11) 0.04995(19) 0.28970(17)
O40 O 0.32390(10) 0.09830(19) 0.20369(17)
C1_2 C 0.11923(11) 0.7029(2) 0.2547(2)
C2_2 C 0.05382(11) 0.8349(2) 0.2506(2)
C3_2 C 0.02402(10) 0.91135(19) 0.25141(18)
C4_2 C 0.04746(11) 0.9894(2) 0.2540(2)
H1_2 H 0.0798 0.9893 0.2571
O2_2 O 0.24467(11) 0.9906(2) 0.31814(16)
O3_2 O 0.14628(10) 0.56860(19) 0.28596(18)
C7_2 C 0.38674(13) 0.1779(2) 0.2473(2)
C8_2 C 0.35414(13) 0.1035(2) 0.2475(2)
C9_2 C 0.15513(12) 0.6361(2) 0.2572(2)
C10_2 C 0.04798(12) 0.7680(2) 0.29263(18)
H2_2 H 0.0223 0.7673 0.3192
O5_2 O 0.19436(10) 0.64896(18) 0.23155(15)
C11_2 C 0.42131(14) 0.1850(2) 0.2922(2)
H3_2 H 0.4243 0.1440 0.3230
O6_2 O 0.21215(11) 0.8683(2) 0.28757(17)
C12_2 C 0.21313(13) 0.9344(2) 0.31844(19)
C13_2 C 0.38191(13) 0.2408(3) 0.2024(2)
H4_2 H 0.3589 0.2364 0.1720
C14_2 C 0.12287(12) 0.7676(2) 0.21113(19)
H5_2 H 0.1474 0.7675 0.1828
C15_2 C 0.09083(12) 0.8313(2) 0.2094(2)
H6_2 H 0.0941 0.8736 0.1796
C16_2 C 0.17099(14) 0.9496(3) 0.3603(2)
C17_2 C 0.08020(13) 0.7029(2) 0.2950(2)
H7_2 H 0.0761 0.6589 0.3233
O7_2 O 0.31684(9) 0.83625(17) 0.25760(18)
O8_2 O 0.25971(10) 0.51155(18) 0.18084(15)
O9_2 O 0.74317(11) 0.5343(2) 0.16444(16)
O10_2 O 0.28516(11) 0.6772(2) 0.17097(16)
C18_2 C 0.45150(13) 0.2538(3) 0.2910(2)
H8_2 H 0.4754 0.2568 0.3203
C19_2 C 0.47584(10) 0.5498(2) 0.24752(18)
C20_2 C 0.45215(11) 0.47297(19) 0.24643(17)
H9_2 H 0.4197 0.4733 0.2446
C21_2 C 0.47552(10) 0.3953(2) 0.24801(18)
C22_2 C 0.44700(12) 0.3177(2) 0.2476(2)
C23_2 C 0.66853(12) 0.4803(3) 0.1335(2)
C24_2 C 0.71402(13) 0.4740(3) 0.1694(2)
O14_2 O 0.36338(11) 0.8962(2) 0.18737(18)
C26_2 C 0.41126(13) 0.3096(2) 0.2029(2)
H10_2 H 0.4074 0.3516 0.1730
C27_2 C 0.09099(13) 0.9766(3) 0.43197(19)
O16_2 O 0.25615(10) 0.37685(19) 0.15408(16)
C28_2 C 0.44690(11) 0.6277(2) 0.24377(19)
C30_2 C 0.58442(12) 0.4906(3) 0.06850(18)
C31_2 C 0.53937(12) 0.4928(3) 0.03257(19)
C32_2 C 0.04687(12) 0.9895(3) 0.46782(19)
C34_2 C 0.00477(12) 0.9787(2) 0.4375(2)
H11_2 H 0.0047 0.9652 0.3952
C35_2 C 0.42669(13) 0.7601(3) 0.1948(2)
H12_2 H 0.4334 0.8030 0.1666
C37_2 C 0.32317(12) 0.4562(2) 0.12546(19)
C38_2 C 0.38625(13) 0.7643(2) 0.2308(2)
C39_2 C 0.35351(13) 0.5183(3) 0.14416(19)
H13_2 H 0.3453 0.5543 0.1766
C42_2 C 0.61732(13) 0.5520(3) 0.06284(19)
H16_2 H 0.6114 0.5979 0.0370
C43_2 C 0.45734(12) 0.6919(2) 0.2009(2)
H17_2 H 0.4843 0.6891 0.1767
C46_2 C 0.33644(12) 0.4019(2) 0.0769(2)
H20_2 H 0.3167 0.3587 0.0642
C49_2 C 0.40739(13) 0.6341(3) 0.2808(2)
H23_2 H 0.4012 0.5928 0.3106
C50_2 C 0.27655(13) 0.4458(3) 0.1554(2)
C52_2 C 0.65926(13) 0.5479(3) 0.09451(19)
H24_2 H 0.6812 0.5905 0.0896
C53_2 C 0.59357(13) 0.4215(3) 0.1079(2)
H25_2 H 0.5719 0.3783 0.1119
O17_2 O 0.25941(15) 0.7038(3) 0.33264(19)
C58_2 C 0.13651(15) 0.8907(3) 0.3627(2)
H29_2 H 0.1399 0.8410 0.3401
C59_2 C 0.09706(14) 0.9027(3) 0.3975(2)
H30_2 H 0.0741 0.8613 0.3981
C60_2 C 0.37673(13) 0.7018(3) 0.2738(2)
H31_2 H 0.3499 0.7047 0.2981
C61_2 C 0.35406(13) 0.8370(2) 0.2234(2)
C62_2 C 0.63515(14) 0.4183(3) 0.1407(2)
H32_2 H 0.6407 0.3738 0.1680
C64_2 C 0.49644(13) 0.4841(2) 0.0634(2)
H34_2 H 0.4961 0.4736 0.1061
C65_2 C 0.45454(12) 0.4908(3) 0.03169(18)
C66_2 C 0.41015(12) 0.4760(3) 0.06583(18)
C67_2 C 0.37994(14) 0.4136(3) 0.0476(2)
H35_2 H 0.3884 0.3780 0.0150
C68_2 C 0.39708(13) 0.5276(3) 0.1144(2)
H36_2 H 0.4174 0.5695 0.1278
O18_2 O 0.72106(11) 0.4136(2) 0.20268(18)
C86_2 C 0.61326(13) 0.1779(2) 0.2527(2)
C87_2 C 0.64586(13) 0.1035(2) 0.2525(2)
C88_2 C 0.57869(14) 0.1850(2) 0.2078(2)
H46_2 H 0.5757 0.1440 0.1770
C89_2 C 0.61809(13) 0.2408(3) 0.2976(2)
H47_2 H 0.6411 0.2364 0.3280
C90_2 C 0.54850(13) 0.2538(3) 0.2090(2)
H48_2 H 0.5246 0.2568 0.1797
C91_2 C 0.52416(10) 0.5498(2) 0.25248(18)
C92_2 C 0.54785(11) 0.47297(19) 0.25357(17)
H49_2 H 0.5803 0.4733 0.2554
C93_2 C 0.52448(10) 0.3953(2) 0.25199(18)
C94_2 C 0.55300(12) 0.3177(2) 0.2524(2)
C95_2 C 0.58874(13) 0.3096(2) 0.2971(2)
H50_2 H 0.5926 0.3516 0.3270
C96_2 C 0.55310(11) 0.6277(2) 0.25623(19)
C97_2 C 0.57331(13) 0.7601(3) 0.3052(2)
H51_2 H 0.5666 0.8030 0.3334
C98_2 C 0.61375(13) 0.7643(2) 0.2692(2)
C99_2 C 0.54266(12) 0.6919(2) 0.2991(2)
H52_2 H 0.5157 0.6891 0.3233
C100_2 C 0.59261(13) 0.6341(3) 0.2192(2)
H53_2 H 0.5988 0.5928 0.1894
C101_2 C 0.62327(13) 0.7018(3) 0.2262(2)
H54_2 H 0.6501 0.7047 0.2019
C102_2 C 0.64594(13) 0.8370(2) 0.2766(2)
C111_2 C 0.12647(13) 0.9636(3) 0.5697(2)
H57_2 H 0.1237 0.9147 0.5460
C112_2 C 0.16592(13) 0.9757(3) 0.6061(2)
H58_2 H 0.1888 0.9342 0.6081
O39 O 0.85372(10) 0.56860(19) 0.21404(18)
O52 O 0.83375(12) 0.3756(2) 0.1994(2)
O55 O 0.85410(14) 0.4064(3) 0.2944(2)
C120_2 C 0.66853(12) 0.5197(3) 0.8665(2)
C121_2 C 0.71402(13) 0.5260(3) 0.8306(2)
O33_2 O 0.25615(10) 0.62315(19) 0.84592(16)
C122_2 C 0.58442(12) 0.5094(3) 0.93150(18)
C123_2 C 0.53937(12) 0.5072(3) 0.96743(19)
C124_2 C 0.32317(12) 0.5438(2) 0.87454(19)
C125_2 C 0.35351(13) 0.4817(3) 0.85584(19)
H64_2 H 0.3453 0.4457 0.8234
C126_2 C 0.61732(13) 0.4480(3) 0.93716(19)
H65_2 H 0.6114 0.4021 0.9630
C127_2 C 0.33644(12) 0.5981(2) 0.9231(2)
H66_2 H 0.3167 0.6413 0.9358
C128_2 C 0.27655(13) 0.5542(3) 0.8446(2)
C129_2 C 0.65926(13) 0.4521(3) 0.90549(19)
H67_2 H 0.6812 0.4095 0.9104
C130_2 C 0.59357(13) 0.5785(3) 0.8921(2)
H68_2 H 0.5719 0.6217 0.8881
C131_2 C 0.63515(14) 0.5817(3) 0.8593(2)
H69_2 H 0.6407 0.6262 0.8320
C132_2 C 0.49644(13) 0.5159(2) 0.9366(2)
H70_2 H 0.4961 0.5264 0.8939
C133_2 C 0.45454(12) 0.5092(3) 0.96831(18)
C134_2 C 0.41015(12) 0.5240(3) 0.93417(18)
C135_2 C 0.37994(14) 0.5864(3) 0.9524(2)
H71_2 H 0.3884 0.6220 0.9850
C136_2 C 0.39708(13) 0.4724(3) 0.8856(2)
H72_2 H 0.4174 0.4305 0.8722
C40_2 C 0.89860(13) 0.0244(3) 0.3909(2)
H14_2 H 0.9158 0.0707 0.3775
C48_2 C 0.85463(14) 0.0082(3) 0.3648(2)
H22_2 H 0.8423 0.0453 0.3355
C73_2 C 0.97538(11) 0.0663(2) 0.24797(19)
C74_2 C 0.94721(12) 0.1454(2) 0.2465(2)
C80_2 C 0.85679(14) 0.3613(2) 0.2456(3)
C81_2 C 0.89027(13) 0.2891(3) 0.2460(3)
C82_2 C 0.95105(14) 0.2053(3) 0.2948(2)
H42_2 H 0.9727 0.1981 0.3267
C83_2 C 0.92155(15) 0.2762(3) 0.2938(2)
H43_2 H 0.9232 0.3152 0.3262
C84_2 C 0.88875(16) 0.2300(3) 0.1974(3)
H44_2 H 0.8684 0.2384 0.1641
C85_2 C 0.91687(15) 0.1593(3) 0.1981(3)
H45_2 H 0.9152 0.1207 0.1654
C106_2 C 0.91664(13) 0.0291(3) 0.56317(19)
C108_2 C 0.96248(12) 0.0127(3) 0.53151(19)
C113_2 C 0.88996(14) 0.0990(3) 0.5455(2)
H59_2 H 0.9010 0.1350 0.5145
C115_2 C 0.82966(13) 0.0618(3) 0.6180(2)
C116_2 C 0.84771(13) 0.1153(3) 0.5732(2)
H61_2 H 0.8310 0.1631 0.5616
C117_2 C 0.78347(13) 0.0814(3) 0.6488(2)
C29_2 C 0.91664(13) 0.9709(3) 0.43683(19)
C33_2 C 0.96248(12) 0.9873(3) 0.46849(19)
C47_2 C 0.88996(14) 0.9010(3) 0.4545(2)
H21_2 H 0.9010 0.8650 0.4855
C51_2 C 0.82966(13) 0.9382(3) 0.3820(2)
C54_2 C 0.84771(13) 0.8847(3) 0.4268(2)
H26_2 H 0.8310 0.8369 0.4384
C55_2 C 0.78347(13) 0.9186(3) 0.3512(2)
C69_2 C 0.88077(11) 0.7029(2) 0.2453(2)
C70_2 C 0.94618(11) 0.8349(2) 0.2494(2)
C71_2 C 0.97598(10) 0.91135(19) 0.24859(18)
C72_2 C 0.95254(11) 0.9894(2) 0.2460(2)
H37_2 H 0.9202 0.9893 0.2429
C75_2 C 0.84487(12) 0.6361(2) 0.2428(2)
C76_2 C 0.95202(12) 0.7680(2) 0.20737(18)
H38_2 H 0.9777 0.7673 0.1808
C77_2 C 0.87713(12) 0.7676(2) 0.28887(19)
H39_2 H 0.8526 0.7675 0.3172
C78_2 C 0.90917(12) 0.8313(2) 0.2906(2)
H40_2 H 0.9059 0.8736 0.3204
C79_2 C 0.91980(13) 0.7029(2) 0.2050(2)
H41_2 H 0.9239 0.6589 0.1767
C110_2 C 0.89860(13) 0.9756(3) 0.6091(2)
H56_2 H 0.9158 0.9293 0.6225
C114_2 C 0.85463(14) 0.9918(3) 0.6352(2)
H60_2 H 0.8423 0.9547 0.6645
loop_
_geom_bond_atom_site_label_1
_geom_bond_atom_site_label_2
_geom_bond_site_symmetry_1
_geom_bond_site_symmetry_2
H56 C110 1_555 1_555
C114 C110 1_555 1_555
H60 C114 1_555 1_555
O11 C55 1_555 1_555
O12 C55 1_555 1_555
C29 C33 1_555 1_555
C47 C29 1_555 1_555
H21 C47 1_555 1_555
C54 C47 1_555 1_555
H26 C54 1_555 1_555
C55 C51 1_555 1_555
C69 C75 1_555 1_555
C70 C71 1_555 1_555
C72 C71 1_555 1_555
H37 C72 1_555 1_555
O19 C75 1_555 1_555
C75 O20 1_555 1_555
C76 C70 1_555 1_555
H38 C76 1_555 1_555
O20 Cd16 1_555 1_555
C77 C69 1_555 1_555
H39 C77 1_555 1_555
C78 C70 1_555 1_555
H40 C78 1_555 1_555
C79 C69 1_555 1_555
H41 C79 1_555 1_555
Cd11 O11 1_555 1_555
Cd16 O19 1_555 1_555
Cd19 O12 1_555 1_555
C51 C54 1_555 1_555
C76 C79 1_555 1_555
O20 Cd19 1_555 1_555
C77 C78 1_555 1_555
O29 C117 1_555 1_555
O30 C117 1_555 1_555
C106 C108 1_555 1_555
C113 C106 1_555 1_555
H59 C113 1_555 1_555
C116 C113 1_555 1_555
H61 C116 1_555 1_555
C117 C115 1_555 1_555
Cd8 O29 1_555 1_555
Cd17 O30 1_555 1_555
C115 C116 1_555 1_555
H14 C40 1_555 1_555
C48 C40 1_555 1_555
H22 C48 1_555 1_555
C74 C73 1_555 1_555
O21 C80 1_555 1_555
O22 C80 1_555 1_555
C80 C81 1_555 1_555
C81 C83 1_555 1_555
C82 C74 1_555 1_555
H42 C82 1_555 1_555
C83 C82 1_555 1_555
H43 C83 1_555 1_555
C84 C81 1_555 1_555
H44 C84 1_555 1_555
C85 C74 1_555 1_555
H45 C85 1_555 1_555
Cd16 O21 1_555 1_555
O22 Cd16 1_555 1_555
C84 C85 1_555 1_555
H57 C111 1_555 1_555
C112 C111 1_555 1_555
H58 C112 1_555 1_555
Cd7 O2 1_555 1_555
Cd2 O3 1_555 1_555
Cd3 O5 1_555 1_555
C1 C9 1_555 1_555
C2 C3 1_555 1_555
C3 C4 1_555 1_555
C4 H1 1_555 1_555
O1 C8 1_555 1_555
O2 C12 1_555 1_555
O3 C9 1_555 1_555
C7 C8 1_555 1_555
O4 C8 1_555 1_555
C9 O5 1_555 1_555
C10 C2 1_555 1_555
H2 C10 1_555 1_555
O5 Cd2 1_555 1_555
C11 C7 1_555 1_555
H3 C11 1_555 1_555
O6 Cd3 1_555 1_555
C12 O6 1_555 1_555
C13 C7 1_555 1_555
H4 C13 1_555 1_555
C14 C1 1_555 1_555
H5 C14 1_555 1_555
C15 C2 1_555 1_555
H6 C15 1_555 1_555
C16 C12 1_555 1_555
C17 C1 1_555 1_555
H7 C17 1_555 1_555
O7 Cd7 1_555 1_555
O8 Cd2 1_555 1_555
O9 C24 1_555 1_555
O10 Cd3 1_555 1_555
C18 C11 1_555 1_555
H8 C18 1_555 1_555
C19 C20 1_555 1_555
C20 H9 1_555 1_555
C21 C20 1_555 1_555
C22 C18 1_555 1_555
C23 C24 1_555 1_555
C24 O18 1_555 1_555
O14 Cd7 1_555 1_555
C26 C13 1_555 1_555
H10 C26 1_555 1_555
C27 C32 1_555 1_555
O16 C50 1_555 1_555
C28 C19 1_555 1_555
C30 C31 1_555 1_555
C31 C64 1_555 1_555
C32 C34 1_555 1_555
C34 H11 1_555 1_555
C35 H12 1_555 1_555
C37 C39 1_555 1_555
C38 C35 1_555 1_555
C39 H13 1_555 1_555
C42 C30 1_555 1_555
H16 C42 1_555 1_555
C43 C28 1_555 1_555
H17 C43 1_555 1_555
C46 C37 1_555 1_555
H20 C46 1_555 1_555
C49 C28 1_555 1_555
H23 C49 1_555 1_555
C50 O8 1_555 1_555
C52 C23 1_555 1_555
H24 C52 1_555 1_555
C53 C30 1_555 1_555
H25 C53 1_555 1_555
O17 Cd3 1_555 1_555
C58 C16 1_555 1_555
H29 C58 1_555 1_555
C59 C27 1_555 1_555
H30 C59 1_555 1_555
C60 C38 1_555 1_555
H31 C60 1_555 1_555
C61 O7 1_555 1_555
C62 C23 1_555 1_555
H32 C62 1_555 1_555
C64 H34 1_555 1_555
C65 C64 1_555 1_555
C66 C65 1_555 1_555
C67 C46 1_555 1_555
H35 C67 1_555 1_555
C68 C39 1_555 1_555
H36 C68 1_555 1_555
O18 Cd16 1_555 1_555
O23 C87 1_555 1_555
C86 C87 1_555 1_555
O24 C87 1_555 1_555
C88 C86 1_555 1_555
H46 C88 1_555 1_555
C89 C86 1_555 1_555
H47 C89 1_555 1_555
O25 C102 1_555 1_555
C90 C88 1_555 1_555
H48 C90 1_555 1_555
C91 C19 1_555 1_555
C92 C91 1_555 1_555
H49 C92 1_555 1_555
C93 C21 1_555 1_555
C94 C90 1_555 1_555
O26 C102 1_555 1_555
C95 C89 1_555 1_555
H50 C95 1_555 1_555
C96 C91 1_555 1_555
C97 H51 1_555 1_555
C98 C97 1_555 1_555
C99 C96 1_555 1_555
H52 C99 1_555 1_555
C100 C96 1_555 1_555
H53 C100 1_555 1_555
C101 C98 1_555 1_555
H54 C101 1_555 1_555
C102 C98 1_555 1_555
O31 C128 1_555 1_555
O32 C121 1_555 1_555
C120 C121 1_555 1_555
C121 O34 1_555 1_555
O33 C128 1_555 1_555
C122 C123 1_555 1_555
C123 C31 1_555 1_555
C124 C125 1_555 1_555
C125 H64 1_555 1_555
C126 C122 1_555 1_555
H65 C126 1_555 1_555
C127 C124 1_555 1_555
H66 C127 1_555 1_555
C128 C124 1_555 1_555
C129 C120 1_555 1_555
H67 C129 1_555 1_555
C130 C122 1_555 1_555
H68 C130 1_555 1_555
C131 C120 1_555 1_555
H69 C131 1_555 1_555
C132 C123 1_555 1_555
H70 C132 1_555 1_555
C133 C65 1_555 1_555
C134 C133 1_555 1_555
C135 C127 1_555 1_555
H71 C135 1_555 1_555
C136 C125 1_555 1_555
H72 C136 1_555 1_555
O34 Cd13 1_555 1_555
Cd16 O9 1_555 1_555
Cd11 O25 1_555 1_555
Cd13 O32 1_555 1_555
Cd14 O31 1_555 1_555
Cd19 O25 1_555 1_555
O45 Cd16 1_555 1_555
O46 Cd2 1_555 1_555
O48 Cd7 1_555 1_555
O50 Cd3 1_555 1_555
O51 Cd2 1_555 1_555
O54 Cd2 1_555 1_555
O56 Cd2 1_555 1_555
Cd3 O7 1_555 1_555
C10 C17 1_555 1_555
C14 C15 1_555 1_555
C21 C22 1_555 1_555
C22 C26 1_555 1_555
O14 C61 1_555 1_555
C35 C43 1_555 1_555
C37 C50 1_555 1_555
C38 C61 1_555 1_555
C42 C52 1_555 1_555
C49 C60 1_555 1_555
C53 C62 1_555 1_555
C58 C59 1_555 1_555
C66 C67 1_555 1_555
C66 C68 1_555 1_555
C92 C93 1_555 1_555
C93 C94 1_555 1_555
C94 C95 1_555 1_555
O26 Cd11 1_555 1_555
C97 C99 1_555 1_555
C100 C101 1_555 1_555
C126 C129 1_555 1_555
C130 C131 1_555 1_555
C132 C133 1_555 1_555
C134 C135 1_555 1_555
C134 C136 1_555 1_555
O27 C103 1_555 1_555
O28 C103 1_555 1_555
C103 C104 1_555 1_555
C105 C107 1_555 1_555
C109 C107 1_555 1_555
H55 C109 1_555 1_555
C118 C104 1_555 1_555
H62 C118 1_555 1_555
C119 C105 1_555 1_555
H63 C119 1_555 1_555
Cd4 O27 1_555 1_555
Cd5 O28 1_555 1_555
O35 Cd5 1_555 1_555
O36 Cd5 1_555 1_555
O42 Cd5 1_555 1_555
O44 Cd4 1_555 1_555
O47 Cd4 1_555 1_555
O49 Cd5 1_555 1_555
O53 Cd4 1_555 1_555
C118 C119 1_555 1_555
Cd5 O44 1_555 1_555
C6 C5 1_555 1_555
O51 C25 1_555 1_555
O54 C25 1_555 1_555
C25 C36 1_555 1_555
C36 C56 1_555 1_555
H15 C41 1_555 1_555
H18 C44 1_555 1_555
C45 C6 1_555 1_555
H19 C45 1_555 1_555
C56 C45 1_555 1_555
H27 C56 1_555 1_555
C57 C36 1_555 1_555
H28 C57 1_555 1_555
C63 C6 1_555 1_555
H33 C63 1_555 1_555
C41 C44 1_555 1_555
C57 C63 1_555 1_555
C6_2 C5_2 1_555 1_555
O13 C25_2 1_555 1_555
O15 C25_2 1_555 1_555
C25_2 C36_2 1_555 1_555
C36_2 C56_2 1_555 1_555
H15_2 C41_2 1_555 1_555
H18_2 C44_2 1_555 1_555
C45_2 C6_2 1_555 1_555
H19_2 C45_2 1_555 1_555
C56_2 C45_2 1_555 1_555
H27_2 C56_2 1_555 1_555
C57_2 C36_2 1_555 1_555
H28_2 C57_2 1_555 1_555
C63_2 C6_2 1_555 1_555
H33_2 C63_2 1_555 1_555
O27_2 C103_2 1_555 1_555
O28_2 C103_2 1_555 1_555
C103_2 C104_2 1_555 1_555
C105_2 C107_2 1_555 1_555
C109_2 C107_2 1_555 1_555
H55_2 C109_2 1_555 1_555
C118_2 C104_2 1_555 1_555
H62_2 C118_2 1_555 1_555
C119_2 C105_2 1_555 1_555
H63_2 C119_2 1_555 1_555
Cd11 O27_2 1_555 1_555
Cd19 O28_2 1_555 1_555
O35_2 Cd19 1_555 1_555
O36_2 Cd19 1_555 1_555
Cd13 O13 1_555 1_555
O15 Cd13 1_555 1_555
C41_2 C44_2 1_555 1_555
C57_2 C63_2 1_555 1_555
C118_2 C119_2 1_555 1_555
Cd8 O2_2 1_555 1_555
Cd13 O3_2 1_555 1_555
Cd17 O5_2 1_555 1_555
C1_2 C9_2 1_555 1_555
C2_2 C3_2 1_555 1_555
C3_2 C4_2 1_555 1_555
C4_2 H1_2 1_555 1_555
O37 C8_2 1_555 1_555
O2_2 C12_2 1_555 1_555
O3_2 C9_2 1_555 1_555
C7_2 C8_2 1_555 1_555
O40 C8_2 1_555 1_555
C9_2 O5_2 1_555 1_555
C10_2 C2_2 1_555 1_555
H2_2 C10_2 1_555 1_555
O5_2 Cd13 1_555 1_555
C11_2 C7_2 1_555 1_555
H3_2 C11_2 1_555 1_555
O6_2 Cd17 1_555 1_555
C12_2 O6_2 1_555 1_555
C13_2 C7_2 1_555 1_555
H4_2 C13_2 1_555 1_555
C14_2 C1_2 1_555 1_555
H5_2 C14_2 1_555 1_555
C15_2 C2_2 1_555 1_555
H6_2 C15_2 1_555 1_555
C16_2 C12_2 1_555 1_555
C17_2 C1_2 1_555 1_555
H7_2 C17_2 1_555 1_555
O7_2 Cd8 1_555 1_555
O8_2 Cd13 1_555 1_555
O9_2 C24_2 1_555 1_555
O10_2 Cd17 1_555 1_555
C18_2 C11_2 1_555 1_555
H8_2 C18_2 1_555 1_555
C19_2 C20_2 1_555 1_555
C20_2 H9_2 1_555 1_555
C21_2 C20_2 1_555 1_555
C22_2 C18_2 1_555 1_555
C23_2 C24_2 1_555 1_555
C24_2 O18_2 1_555 1_555
O14_2 Cd8 1_555 1_555
C26_2 C13_2 1_555 1_555
H10_2 C26_2 1_555 1_555
C27_2 C32_2 1_555 1_555
O16_2 C50_2 1_555 1_555
C28_2 C19_2 1_555 1_555
C30_2 C31_2 1_555 1_555
C31_2 C64_2 1_555 1_555
C32_2 C34_2 1_555 1_555
C34_2 H11_2 1_555 1_555
C35_2 H12_2 1_555 1_555
C37_2 C39_2 1_555 1_555
C38_2 C35_2 1_555 1_555
C39_2 H13_2 1_555 1_555
C42_2 C30_2 1_555 1_555
H16_2 C42_2 1_555 1_555
C43_2 C28_2 1_555 1_555
H17_2 C43_2 1_555 1_555
C46_2 C37_2 1_555 1_555
H20_2 C46_2 1_555 1_555
C49_2 C28_2 1_555 1_555
H23_2 C49_2 1_555 1_555
C50_2 O8_2 1_555 1_555
C52_2 C23_2 1_555 1_555
H24_2 C52_2 1_555 1_555
C53_2 C30_2 1_555 1_555
H25_2 C53_2 1_555 1_555
O17_2 Cd17 1_555 1_555
C58_2 C16_2 1_555 1_555
H29_2 C58_2 1_555 1_555
C59_2 C27_2 1_555 1_555
H30_2 C59_2 1_555 1_555
C60_2 C38_2 1_555 1_555
H31_2 C60_2 1_555 1_555
C61_2 O7_2 1_555 1_555
C62_2 C23_2 1_555 1_555
H32_2 C62_2 1_555 1_555
C64_2 H34_2 1_555 1_555
C65_2 C64_2 1_555 1_555
C66_2 C65_2 1_555 1_555
C67_2 C46_2 1_555 1_555
H35_2 C67_2 1_555 1_555
C68_2 C39_2 1_555 1_555
H36_2 C68_2 1_555 1_555
O18_2 Cd14 1_555 1_555
O38 C87_2 1_555 1_555
C86_2 C87_2 1_555 1_555
O41 C87_2 1_555 1_555
C88_2 C86_2 1_555 1_555
H46_2 C88_2 1_555 1_555
C89_2 C86_2 1_555 1_555
H47_2 C89_2 1_555 1_555
O44 C102_2 1_555 1_555
C90_2 C88_2 1_555 1_555
H48_2 C90_2 1_555 1_555
C91_2 C19_2 1_555 1_555
C92_2 C91_2 1_555 1_555
H49_2 C92_2 1_555 1_555
C93_2 C21_2 1_555 1_555
C94_2 C90_2 1_555 1_555
O53 C102_2 1_555 1_555
C95_2 C89_2 1_555 1_555
H50_2 C95_2 1_555 1_555
C96_2 C91_2 1_555 1_555
C97_2 H51_2 1_555 1_555
C98_2 C97_2 1_555 1_555
C99_2 C96_2 1_555 1_555
H52_2 C99_2 1_555 1_555
C100_2 C96_2 1_555 1_555
H53_2 C100_2 1_555 1_555
C101_2 C98_2 1_555 1_555
H54_2 C101_2 1_555 1_555
C102_2 C98_2 1_555 1_555
H57_2 C111_2 1_555 1_555
C112_2 C111_2 1_555 1_555
H58_2 C112_2 1_555 1_555
Cd14 O9_2 1_555 1_555
O39 Cd14 1_555 1_555
O42 Cd14 1_555 1_555
O52 Cd14 1_555 1_555
O55 Cd14 1_555 1_555
Cd17 O7_2 1_555 1_555
C10_2 C17_2 1_555 1_555
C14_2 C15_2 1_555 1_555
C21_2 C22_2 1_555 1_555
C22_2 C26_2 1_555 1_555
O14_2 C61_2 1_555 1_555
C35_2 C43_2 1_555 1_555
C37_2 C50_2 1_555 1_555
C38_2 C61_2 1_555 1_555
C42_2 C52_2 1_555 1_555
C49_2 C60_2 1_555 1_555
C53_2 C62_2 1_555 1_555
C58_2 C59_2 1_555 1_555
C66_2 C67_2 1_555 1_555
C66_2 C68_2 1_555 1_555
C92_2 C93_2 1_555 1_555
C93_2 C94_2 1_555 1_555
C94_2 C95_2 1_555 1_555
C97_2 C99_2 1_555 1_555
C100_2 C101_2 1_555 1_555
O45 C128_2 1_555 1_555
O46 C121_2 1_555 1_555
C120_2 C121_2 1_555 1_555
C121_2 O56 1_555 1_555
O33_2 C128_2 1_555 1_555
C122_2 C123_2 1_555 1_555
C124_2 C125_2 1_555 1_555
C125_2 H64_2 1_555 1_555
C126_2 C122_2 1_555 1_555
H65_2 C126_2 1_555 1_555
C127_2 C124_2 1_555 1_555
H66_2 C127_2 1_555 1_555
C128_2 C124_2 1_555 1_555
C129_2 C120_2 1_555 1_555
H67_2 C129_2 1_555 1_555
C130_2 C122_2 1_555 1_555
H68_2 C130_2 1_555 1_555
C131_2 C120_2 1_555 1_555
H69_2 C131_2 1_555 1_555
C132_2 C123_2 1_555 1_555
H70_2 C132_2 1_555 1_555
C134_2 C133_2 1_555 1_555
C135_2 C127_2 1_555 1_555
H71_2 C135_2 1_555 1_555
C136_2 C125_2 1_555 1_555
H72_2 C136_2 1_555 1_555
C126_2 C129_2 1_555 1_555
C130_2 C131_2 1_555 1_555
C132_2 C133_2 1_555 1_555
C134_2 C135_2 1_555 1_555
C134_2 C136_2 1_555 1_555
H14_2 C40_2 1_555 1_555
C48_2 C40_2 1_555 1_555
H22_2 C48_2 1_555 1_555
C74_2 C73_2 1_555 1_555
O52 C80_2 1_555 1_555
O55 C80_2 1_555 1_555
C80_2 C81_2 1_555 1_555
C81_2 C83_2 1_555 1_555
C82_2 C74_2 1_555 1_555
H42_2 C82_2 1_555 1_555
C83_2 C82_2 1_555 1_555
H43_2 C83_2 1_555 1_555
C84_2 C81_2 1_555 1_555
H44_2 C84_2 1_555 1_555
C85_2 C74_2 1_555 1_555
H45_2 C85_2 1_555 1_555
O48 C117_2 1_555 1_555
O50 C117_2 1_555 1_555
C106_2 C108_2 1_555 1_555
C113_2 C106_2 1_555 1_555
H59_2 C113_2 1_555 1_555
C116_2 C113_2 1_555 1_555
H61_2 C116_2 1_555 1_555
C117_2 C115_2 1_555 1_555
C84_2 C85_2 1_555 1_555
C115_2 C116_2 1_555 1_555
O47 C55_2 1_555 1_555
O49 C55_2 1_555 1_555
C29_2 C33_2 1_555 1_555
C47_2 C29_2 1_555 1_555
H21_2 C47_2 1_555 1_555
C54_2 C47_2 1_555 1_555
H26_2 C54_2 1_555 1_555
C55_2 C51_2 1_555 1_555
C69_2 C75_2 1_555 1_555
C70_2 C71_2 1_555 1_555
C72_2 C71_2 1_555 1_555
H37_2 C72_2 1_555 1_555
O39 C75_2 1_555 1_555
C75_2 O42 1_555 1_555
C76_2 C70_2 1_555 1_555
H38_2 C76_2 1_555 1_555
C77_2 C69_2 1_555 1_555
H39_2 C77_2 1_555 1_555
C78_2 C70_2 1_555 1_555
H40_2 C78_2 1_555 1_555
C79_2 C69_2 1_555 1_555
H41_2 C79_2 1_555 1_555
H56_2 C110_2 1_555 1_555
C114_2 C110_2 1_555 1_555
H60_2 C114_2 1_555 1_555
C51_2 C54_2 1_555 1_555
C76_2 C79_2 1_555 1_555
C77_2 C78_2 1_555 1_555

#END
