
###############################################################################
#
# This file contains modified crystal structure data generated from the
# MOF subset of the Cambridge Structural Database (CSD) v543 
# hosted by the Cambridge Crystallographic Data Centre (CCDC).
#
# This work is licensed under the Creative Commons
# Attribution-NonCommercial-ShareAlike 4.0 International License.
# To view a copy of this license, visit
# http://creativecommons.org/licenses/by-nc-sa/4.0/
# or send a letter to
# Creative Commons, PO Box 1866, Mountain View, CA 94042, USA.
#
# CIF created using the CSD Python API on 29 September 2022
# The structure has been converted into the P1 space group
# The structure has a 3D framework
# The original CSD entry GOSKEG is in the triclinic crystal system
# The framework has been calculated to contain at least 10.0% void space
# The void calculation uses a probe of radius 1.32A, grid spacing 0.4
#
###############################################################################

data_GOSKEG
_chemical_formula_moiety         '(C272 H188 N20 O50 Zn12)n'
_symmetry_cell_setting           triclinic
_symmetry_space_group_name_H-M   'P 1'
_symmetry_Int_Tables_number      1
_space_group_name_Hall           'P 1'
loop_
_symmetry_equiv_pos_site_id
_symmetry_equiv_pos_as_xyz
1 x,y,z
_cell_length_a                   10.117(5)
_cell_length_b                   29.539(5)
_cell_length_c                   29.556(5)
_cell_angle_alpha                91.446(5)
_cell_angle_beta                 93.321(5)
_cell_angle_gamma                91.615(5)
_cell_volume                     8811.16
loop_
_atom_site_label
_atom_site_type_symbol
_atom_site_fract_x
_atom_site_fract_y
_atom_site_fract_z
C64 C 0.7024(6) 0.27613(17) 0.2403(2)
C65 C 0.7164(6) 0.27795(17) 0.1953(2)
C66 C 0.7070(6) 0.23368(18) 0.2663(2)
C67 C 0.8095(7) 0.2038(2) 0.2617(3)
H39 H 0.8773 0.2108 0.2419
C68 C 0.8148(7) 0.1644(2) 0.2851(3)
H40 H 0.8825 0.1437 0.2794
C69 C 0.7246(6) 0.15399(19) 0.3168(2)
C70 C 0.6263(8) 0.1833(2) 0.3215(2)
H41 H 0.5604 0.1769 0.3422
C71 C 0.6190(7) 0.2231(2) 0.2962(3)
H42 H 0.5487 0.2431 0.3008
C72 C 0.8343(6) 0.0419(2) 0.3618(2)
H43 H 0.9094 0.0236 0.3596
C73 C 0.8338(7) 0.0836(2) 0.3399(3)
H44 H 0.9063 0.0919 0.3225
C74 C 0.7351(6) 0.11112(18) 0.3430(2)
C75 C 0.6368(7) 0.0979(2) 0.3707(2)
H45 H 0.5669 0.1177 0.3763
C76 C 0.6395(7) 0.0564(2) 0.3902(2)
H46 H 0.5691 0.0478 0.4084
C77 C 0.6775(9) 0.3983(2) 0.3207(2)
C78 C 0.7702(9) 0.3652(2) 0.3316(3)
H47 H 0.8325 0.3704 0.3566
C79 C 0.7720(9) 0.3253(2) 0.3065(3)
H48 H 0.8336 0.3030 0.3153
C80 C 0.6879(7) 0.31667(18) 0.2692(2)
C81 C 0.5918(6) 0.3483(2) 0.2597(2)
H49 H 0.5276 0.3422 0.2354
C82 C 0.5874(7) 0.3883(2) 0.2847(2)
H50 H 0.5210 0.4093 0.2770
C83 C 0.6668(9) 0.5237(2) 0.3418(2)
H51 H 0.6426 0.5495 0.3250
C84 C 0.6476(9) 0.4818(2) 0.3210(2)
H52 H 0.6082 0.4793 0.2911
C85 C 0.6858(8) 0.4429(2) 0.3437(2)
C86 C 0.7306(11) 0.4513(3) 0.3866(3)
H53 H 0.7509 0.4265 0.4054
C87 C 0.7490(10) 0.4963(3) 0.4051(3)
H54 H 0.7875 0.5003 0.4350
C88 C 0.7328(6) 0.32063(17) 0.1708(2)
C89 C 0.8073(6) 0.35780(18) 0.1891(2)
H55 H 0.8517 0.3554 0.2181
C90 C 0.8189(6) 0.39762(19) 0.1667(2)
H56 H 0.8684 0.4224 0.1809
C91 C 0.7601(6) 0.40257(17) 0.1239(2)
C92 C 0.6915(6) 0.36485(19) 0.1036(2)
H57 H 0.6526 0.3666 0.0737
C93 C 0.6801(6) 0.32448(19) 0.1273(2)
H58 H 0.6344 0.2991 0.1128
C94 C 0.8318(10) 0.5241(3) 0.0954(3)
H59 H 0.8815 0.5487 0.1098
C95 C 0.8374(9) 0.4806(3) 0.1162(3)
H60 H 0.8965 0.4769 0.1419
C96 C 0.7634(6) 0.44618(18) 0.1006(2)
C97 C 0.6916(9) 0.4553(2) 0.0611(2)
H61 H 0.6389 0.4316 0.0463
C98 C 0.6930(9) 0.4975(2) 0.0420(2)
H62 H 0.6393 0.5019 0.0151
C99 C 0.7139(6) 0.23537(18) 0.1666(2)
C100 C 0.6122(6) 0.20260(19) 0.1696(2)
H63 H 0.5401 0.2085 0.1879
C101 C 0.6160(7) 0.1621(2) 0.1463(3)
H64 H 0.5470 0.1402 0.1496
C102 C 0.7143(6) 0.15176(18) 0.1185(2)
C103 C 0.8085(6) 0.18518(18) 0.1118(2)
H65 H 0.8739 0.1801 0.0906
C104 C 0.8087(6) 0.22653(18) 0.13599(19)
H66 H 0.8753 0.2490 0.1313
C105 C 0.6684(6) 0.02547(17) 0.10288(18)
H67 H 0.6200 0.0020 0.1165
C106 C 0.6575(6) 0.06853(18) 0.1179(2)
H68 H 0.6033 0.0746 0.1424
C107 C 0.7243(6) 0.10469(18) 0.09817(19)
C108 C 0.7993(6) 0.09336(17) 0.06355(19)
H69 H 0.8450 0.1165 0.0484
C109 C 0.8110(6) 0.04852(17) 0.04970(18)
H70 H 0.8666 0.0416 0.0258
N7 N 0.7373(5) 0.02736(15) 0.38480(15)
N8 N 0.7463(4) 0.01490(13) 0.06901(14)
N9 N 0.7649(4) 0.53133(15) 0.05937(15)
N10 N 0.7171(5) 0.53027(15) 0.38379(16)
Zn11 Zn 0.76400(6) 0.595315(19) 0.037753(19)
Zn15 Zn 0.74132(7) 0.59400(2) 0.40641(2)
C9 C 0.1563(5) 0.62729(17) 0.07336(16)
C10 C 0.2723(5) 0.61198(17) 0.05669(16)
H4 H 0.2680 0.5899 0.0327
C11 C 0.3948(5) 0.62831(16) 0.07446(16)
C12 C 0.3991(5) 0.66010(17) 0.10964(17)
H5 H 0.4826 0.6714 0.1222
C13 C 0.2837(5) 0.67602(16) 0.12711(16)
C14 C 0.1636(6) 0.65937(17) 0.10821(17)
H6 H 0.0841 0.6703 0.1195
C15 C 0.0272(5) 0.60809(19) 0.05370(18)
C16 C 0.5163(5) 0.61123(18) 0.05522(17)
C17 C 0.2872(7) 0.70988(17) 0.16674(18)
O8 O 0.0227(4) 0.57770(13) 0.02382(12)
O9 O 0.5081(3) 0.58014(12) 0.02541(12)
O10 O 0.6278(3) 0.62952(11) 0.06956(11)
O11 O 0.3977(4) 0.72330(11) 0.18350(11)
O12 O 0.1766(4) 0.72194(12) 0.17869(11)
Zn7 Zn 0.10060(6) 0.767944(18) 0.224255(18)
Zn8 Zn 0.39529(6) 0.772337(18) 0.233517(18)
Zn5 Zn 0.75233(6) 0.948250(19) 0.051120(19)
C1 C 0.1180(6) 0.62371(17) 0.37162(18)
C2 C 0.1177(6) 0.65635(17) 0.33843(17)
H1 H 0.0355 0.6666 0.3260
C3 C 0.2318(6) 0.67370(18) 0.32344(18)
C4 C 0.3510(6) 0.65871(18) 0.34109(17)
H2 H 0.4315 0.6709 0.3308
C5 C 0.3545(6) 0.62528(18) 0.37451(17)
C6 C 0.2366(6) 0.60899(18) 0.38902(18)
H3 H 0.2374 0.5869 0.4118
C8 C 0.2328(7) 0.70924(17) 0.28789(17)
C110 C 0.1044(5) 0.92390(17) 0.37101(17)
C111 C 0.2228(5) 0.94170(16) 0.38720(17)
H71 H 0.2263 0.9654 0.4096
C112 C 0.3400(5) 0.92538(16) 0.37124(16)
C113 C 0.3339(5) 0.89122(16) 0.34001(16)
H72 H 0.4140 0.8800 0.3295
C114 C 0.2141(6) 0.87194(17) 0.32276(17)
C115 C 0.0975(5) 0.88872(16) 0.33881(17)
H73 H 0.0140 0.8762 0.3278
C117 C 0.4717(5) 0.94621(18) 0.38977(19)
C118 C 0.2095(7) 0.83281(18) 0.28866(17)
C119 C 0.2582(5) 0.86678(15) 0.13438(16)
C120 C 0.3765(6) 0.88163(16) 0.11728(17)
H74 H 0.4580 0.8696 0.1283
C121 C 0.3754(5) 0.91450(16) 0.08372(16)
C122 C 0.2556(5) 0.93112(17) 0.06923(17)
H75 H 0.2541 0.9535 0.0467
C123 C 0.1368(5) 0.91696(16) 0.08578(16)
C124 C 0.1393(5) 0.88387(16) 0.11801(16)
H76 H 0.0586 0.8727 0.1290
C125 C 0.2593(6) 0.83065(16) 0.17015(17)
C126 C 0.5000(6) 0.93088(18) 0.06419(18)
C127 C 0.7351(12) 0.8302(3) 0.3169(4)
H77 H 0.6594 0.8413 0.2986
H78 H 0.8169 0.8451 0.3079
H79 H 0.7238 0.8370 0.3490
C128 C 0.8532(8) 0.7592(4) 0.3345(3)
H80 H 0.8525 0.7266 0.3275
H81 H 0.8445 0.7643 0.3671
H82 H 0.9368 0.7732 0.3259
C129 C 0.6569(8) 0.7625(3) 0.2775(3)
C130 C 0.6689(9) 0.7083(3) 0.2714(3)
H83 H 0.6037 0.6969 0.2477
H84 H 0.6520 0.6939 0.3000
H85 H 0.7582 0.7014 0.2626
C135 C 0.0101(6) 0.93642(19) 0.06860(17)
C136 C 0.4822(6) 0.60874(19) 0.39363(19)
N1 N 0.7433(6) 0.7795(3) 0.3095(2)
O3 O 0.1224(4) 0.72127(12) 0.27200(12)
O4 O 0.3452(4) 0.72336(12) 0.27721(11)
O5 O 0.5875(4) 0.62537(12) 0.37829(12)
O6 O 0.4865(4) 0.58104(14) 0.42402(14)
O15 O 0.4740(4) 0.97602(12) 0.42072(12)
O16 O 0.5745(3) 0.93192(12) 0.37263(12)
O17 O 0.3200(4) 0.81932(12) 0.27814(12)
O18 O 0.0997(4) 0.81771(12) 0.27351(12)
O19 O 0.1487(4) 0.81633(11) 0.18136(11)
O20 O 0.3708(4) 0.81810(12) 0.18525(12)
O21 O 0.6087(4) 0.91648(12) 0.08169(12)
O22 O 0.4934(4) 0.95724(12) 0.03188(13)
O24 O 0.0131(4) 0.96955(12) 0.04266(12)
O26 O 0.5807(4) 0.78218(14) 0.25226(14)
Zn9 Zn 0.73282(6) 0.961429(19) 0.40323(2)
O32 O 0.9042(3) 0.91784(11) 0.08190(11)
N11 N 0.7551(4) 0.93235(14) 0.98432(14)
O7 O 0.9233(4) 0.62469(12) 0.06860(12)
C7 C 0.9912(6) 0.60537(19) 0.38897(19)
C18 C 0.8370(6) 0.9002(2) 0.97352(19)
H7 H 0.8894 0.8870 0.9972
C19 C 0.8500(6) 0.8849(2) 0.9299(2)
H8 H 0.9104 0.8616 0.9242
C20 C 0.7756(6) 0.90296(19) 0.89323(19)
C21 C 0.6930(6) 0.9370(2) 0.90507(19)
H9 H 0.6419 0.9517 0.8821
C22 C 0.6832(6) 0.95050(17) 0.95069(17)
H10 H 0.6230 0.9734 0.9578
C23 C 0.8857(7) 0.8321(3) 0.7968(2)
H11 H 0.9576 0.8131 0.7912
C24 C 0.8868(7) 0.8559(3) 0.8376(2)
H12 H 0.9595 0.8534 0.8591
C25 C 0.7841(6) 0.8832(2) 0.84738(18)
C26 C 0.6879(6) 0.88958(19) 0.81300(18)
H13 H 0.6211 0.9109 0.8176
C27 C 0.6870(6) 0.86534(19) 0.77168(19)
H14 H 0.6190 0.8700 0.7489
C28 C 0.6671(7) 0.6418(2) 0.9580(2)
H15 H 0.5965 0.6472 0.9771
C29 C 0.6674(7) 0.6638(3) 0.9176(2)
H16 H 0.5981 0.6837 0.9097
C30 C 0.7673(6) 0.6574(2) 0.88828(18)
C31 C 0.8572(7) 0.6270(2) 0.9021(2)
H17 H 0.9256 0.6194 0.8828
C32 C 0.8523(7) 0.6066(2) 0.9437(2)
H18 H 0.9205 0.5866 0.9523
C33 C 0.8801(8) 0.7025(2) 0.7787(2)
H19 H 0.9489 0.6968 0.7590
C34 C 0.8743(7) 0.6775(2) 0.8178(2)
H20 H 0.9395 0.6557 0.8245
C35 C 0.7753(6) 0.6840(2) 0.84635(18)
C36 C 0.6806(8) 0.7162(3) 0.8352(2)
H21 H 0.6106 0.7214 0.8546
C37 C 0.6889(8) 0.7405(3) 0.7957(2)
H22 H 0.6220 0.7614 0.7881
C38 C 0.7833(6) 0.8349(2) 0.76369(18)
C39 C 0.7911(6) 0.7353(2) 0.76727(18)
C40 C 0.7952(6) 0.7603(2) 0.72413(18)
C41 C 0.7818(6) 0.8050(2) 0.72218(17)
C42 C 0.7639(6) 0.8287(2) 0.67845(17)
C43 C 0.6898(6) 0.81097(19) 0.63997(19)
H23 H 0.6454 0.7824 0.6420
C44 C 0.6788(6) 0.83271(19) 0.60021(18)
H24 H 0.6287 0.8190 0.5751
C45 C 0.7417(5) 0.87588(19) 0.59584(17)
C46 C 0.8069(6) 0.8954(2) 0.63391(19)
H25 H 0.8460 0.9250 0.6325
C47 C 0.8162(6) 0.8725(2) 0.67415(18)
H26 H 0.8600 0.8872 0.7000
C48 C 0.7114(10) 0.8962(3) 0.4723(3)
H27 H 0.7062 0.8762 0.4465
C49 C 0.6934(10) 0.8784(3) 0.5152(3)
H28 H 0.6479 0.8499 0.5167
C50 C 0.7348(6) 0.8983(2) 0.55210(18)
C51 C 0.7848(11) 0.9382(3) 0.5454(3)
H29 H 0.8190 0.9557 0.5711
C52 C 0.7915(11) 0.9572(3) 0.5020(3)
H30 H 0.8405 0.9848 0.4994
C53 C 0.8076(7) 0.7303(2) 0.68394(18)
C54 C 0.7189(8) 0.6944(2) 0.6750(2)
H31 H 0.6552 0.6873 0.6963
C55 C 0.7213(9) 0.6686(3) 0.6356(3)
H32 H 0.6589 0.6442 0.6303
C56 C 0.8127(8) 0.6775(2) 0.6036(2)
C57 C 0.9037(7) 0.7110(3) 0.6130(2)
H33 H 0.9689 0.7172 0.5920
C58 C 0.9040(7) 0.7374(2) 0.6541(2)
H34 H 0.9715 0.7600 0.6607
C59 C 0.7306(11) 0.5977(3) 0.5027(3)
H35 H 0.6855 0.5691 0.4988
C60 C 0.7448(11) 0.6168(4) 0.5483(3)
H36 H 0.7056 0.6008 0.5718
C61 C 0.8073(8) 0.6543(3) 0.5587(2)
C62 C 0.8393(9) 0.6791(3) 0.5195(3)
H37 H 0.8689 0.7099 0.5224
C63 C 0.8262(10) 0.6571(3) 0.4770(3)
H38 H 0.8577 0.6724 0.4517
C116 C 0.9796(6) 0.94321(18) 0.38836(19)
C131 C 0.7492(9) 0.7107(3) 0.1474(3)
H86 H 0.8242 0.6993 0.1658
H87 H 0.7577 0.7020 0.1155
H88 H 0.6663 0.6977 0.1577
C132 C 0.6399(9) 0.7865(4) 0.1261(3)
H89 H 0.6487 0.8193 0.1322
H90 H 0.5536 0.7754 0.1353
H91 H 0.6469 0.7802 0.0936
C133 C 0.8326(7) 0.7826(2) 0.1817(2)
C134 C 0.8354(9) 0.8332(3) 0.1886(3)
H92 H 0.9053 0.8422 0.2117
H93 H 0.7496 0.8427 0.1987
H94 H 0.8531 0.8477 0.1600
N2 N 0.7480(6) 0.7631(2) 0.1525(2)
N3 N 0.7587(5) 0.61349(14) 0.97202(14)
N5 N 0.7349(5) 0.93898(15) 0.46654(15)
N6 N 0.7696(6) 0.61420(17) 0.47023(17)
O1 O 0.8851(4) 0.62364(13) 0.37475(13)
O2 O 0.9949(4) 0.57444(14) 0.41638(14)
O13 O 0.9909(4) 0.97215(12) 0.42068(13)
O14 O 0.8693(4) 0.92917(11) 0.36985(11)
O25 O 0.9105(4) 0.75813(13) 0.20580(13)
Zn3 Zn 0.26718(6) 0.038571(19) 0.59677(2)
Zn6 Zn 0.25868(7) 0.40600(2) 0.59359(2)
C7_2 C 0.0088(6) 0.39463(19) 0.61103(19)
C18_2 C 0.1630(6) 0.0998(2) 0.02648(19)
H7_2 H 0.1106 0.1130 0.0028
C19_2 C 0.1500(6) 0.1151(2) 0.0701(2)
H8_2 H 0.0896 0.1384 0.0758
C20_2 C 0.2244(6) 0.09704(19) 0.10677(19)
C21_2 C 0.3070(6) 0.0630(2) 0.09493(19)
H9_2 H 0.3581 0.0483 0.1179
C22_2 C 0.3168(6) 0.04950(17) 0.04931(17)
H10_2 H 0.3770 0.0266 0.0422
C23_2 C 0.1143(7) 0.1679(3) 0.2032(2)
H11_2 H 0.0424 0.1869 0.2088
C24_2 C 0.1132(7) 0.1441(3) 0.1624(2)
H12_2 H 0.0405 0.1466 0.1409
C25_2 C 0.2159(6) 0.1168(2) 0.15262(18)
C26_2 C 0.3121(6) 0.11042(19) 0.18700(18)
H13_2 H 0.3789 0.0891 0.1824
C27_2 C 0.3130(6) 0.13466(19) 0.22832(19)
H14_2 H 0.3810 0.1300 0.2511
C28_2 C 0.3329(7) 0.3582(2) 0.0420(2)
H15_2 H 0.4035 0.3528 0.0229
C29_2 C 0.3326(7) 0.3362(3) 0.0824(2)
H16_2 H 0.4019 0.3163 0.0903
C30_2 C 0.2327(6) 0.3426(2) 0.11172(18)
C31_2 C 0.1428(7) 0.3730(2) 0.0979(2)
H17_2 H 0.0744 0.3806 0.1172
C32_2 C 0.1477(7) 0.3934(2) 0.0563(2)
H18_2 H 0.0795 0.4134 0.0477
C33_2 C 0.1199(8) 0.2975(2) 0.2213(2)
H19_2 H 0.0511 0.3032 0.2410
C34_2 C 0.1257(7) 0.3225(2) 0.1822(2)
H20_2 H 0.0605 0.3443 0.1755
C35_2 C 0.2247(6) 0.3160(2) 0.15365(18)
C36_2 C 0.3194(8) 0.2838(3) 0.1648(2)
H21_2 H 0.3894 0.2786 0.1454
C37_2 C 0.3111(8) 0.2595(3) 0.2043(2)
H22_2 H 0.3780 0.2386 0.2119
C38_2 C 0.2167(6) 0.1651(2) 0.23631(18)
C39_2 C 0.2089(6) 0.2647(2) 0.23273(18)
C40_2 C 0.2048(6) 0.2397(2) 0.27587(18)
C41_2 C 0.2182(6) 0.1950(2) 0.27782(17)
C42_2 C 0.2361(6) 0.1713(2) 0.32155(17)
C43_2 C 0.3102(6) 0.18903(19) 0.36003(19)
H23_2 H 0.3546 0.2176 0.3580
C44_2 C 0.3212(6) 0.16729(19) 0.39979(18)
H24_2 H 0.3713 0.1810 0.4249
C45_2 C 0.2583(5) 0.12412(19) 0.40416(17)
C46_2 C 0.1931(6) 0.1046(2) 0.36609(19)
H25_2 H 0.1540 0.0750 0.3675
C47_2 C 0.1838(6) 0.1275(2) 0.32585(18)
H26_2 H 0.1400 0.1128 0.3000
C48_2 C 0.2886(10) 0.1038(3) 0.5277(3)
H27_2 H 0.2938 0.1238 0.5535
C49_2 C 0.3066(10) 0.1216(3) 0.4848(3)
H28_2 H 0.3521 0.1501 0.4833
C50_2 C 0.2652(6) 0.1017(2) 0.44790(18)
C51_2 C 0.2152(11) 0.0618(3) 0.4546(3)
H29_2 H 0.1810 0.0443 0.4289
C52_2 C 0.2085(11) 0.0428(3) 0.4980(3)
H30_2 H 0.1595 0.0152 0.5006
C53_2 C 0.1924(7) 0.2697(2) 0.31606(18)
C54_2 C 0.2811(8) 0.3056(2) 0.3250(2)
H31_2 H 0.3448 0.3127 0.3037
C55_2 C 0.2787(9) 0.3314(3) 0.3644(3)
H32_2 H 0.3411 0.3558 0.3697
C56_2 C 0.1873(8) 0.3225(2) 0.3964(2)
C57_2 C 0.0963(7) 0.2890(3) 0.3870(2)
H33_2 H 0.0311 0.2828 0.4080
C58_2 C 0.0960(7) 0.2626(2) 0.3459(2)
H34_2 H 0.0285 0.2400 0.3393
C59_2 C 0.2694(11) 0.4023(3) 0.4973(3)
H35_2 H 0.3145 0.4309 0.5012
C60_2 C 0.2552(11) 0.3832(4) 0.4517(3)
H36_2 H 0.2944 0.3992 0.4282
C61_2 C 0.1927(8) 0.3457(3) 0.4413(2)
C62_2 C 0.1607(9) 0.3209(3) 0.4805(3)
H37_2 H 0.1311 0.2901 0.4776
C63_2 C 0.1738(10) 0.3429(3) 0.5230(3)
H38_2 H 0.1423 0.3276 0.5483
C116_2 C 0.0204(6) 0.05679(18) 0.61164(19)
C131_2 C 0.2508(9) 0.2893(3) 0.8526(3)
H86_2 H 0.1758 0.3007 0.8342
H87_2 H 0.2423 0.2980 0.8845
H88_2 H 0.3337 0.3023 0.8423
C132_2 C 0.3601(9) 0.2135(4) 0.8739(3)
H89_2 H 0.3513 0.1807 0.8678
H90_2 H 0.4464 0.2246 0.8647
H91_2 H 0.3531 0.2198 0.9064
C133_2 C 0.1674(7) 0.2174(2) 0.8183(2)
C134_2 C 0.1646(9) 0.1668(3) 0.8114(3)
H92_2 H 0.0947 0.1578 0.7883
H93_2 H 0.2504 0.1573 0.8013
H94_2 H 0.1469 0.1523 0.8400
N2_2 N 0.2520(6) 0.2369(2) 0.8475(2)
N3_2 N 0.2413(5) 0.38651(14) 0.02798(14)
N4 N 0.2449(4) 0.06765(14) 0.01568(14)
N5_2 N 0.2651(5) 0.06102(15) 0.53346(15)
N6_2 N 0.2304(6) 0.38580(17) 0.52977(17)
O1_2 O 0.1149(4) 0.37636(13) 0.62525(13)
O2_2 O 0.0051(4) 0.42556(14) 0.58362(14)
O13_2 O 0.0091(4) 0.02785(12) 0.57932(13)
O14_2 O 0.1307(4) 0.07083(11) 0.63015(11)
O23 O 0.0958(3) 0.08216(11) 0.91810(11)
O25_2 O 0.0895(4) 0.24187(13) 0.79420(13)
Zn12 Zn 0.24767(6) 0.051750(19) 0.948880(19)
N14 N 0.2829(5) 0.46973(15) 0.61621(16)
O27 O 0.4125(4) 0.37463(12) 0.62171(12)
O31 O 0.4255(3) 0.06808(12) 0.62737(12)
Zn4 Zn 0.23600(6) 0.404685(19) 0.962247(19)
O7_2 O 0.0767(4) 0.37531(12) 0.93140(12)
N13 N 0.2351(4) 0.46867(15) 0.94063(15)
O28 O 0.3722(3) 0.37048(11) 0.93044(11)
N12 N 0.2627(5) 0.97264(15) 0.61520(15)
Zn1 Zn 0.89940(6) 0.232056(18) 0.775745(18)
Zn2 Zn 0.60471(6) 0.227663(18) 0.766483(18)
C1_2 C 0.8820(6) 0.37629(17) 0.62838(18)
C2_2 C 0.8823(6) 0.34365(17) 0.66157(17)
H1_2 H 0.9645 0.3334 0.6740
C3_2 C 0.7682(6) 0.32630(18) 0.67656(18)
C4_2 C 0.6490(6) 0.34129(18) 0.65891(17)
H2_2 H 0.5685 0.3291 0.6692
C5_2 C 0.6455(6) 0.37472(18) 0.62549(17)
C6_2 C 0.7634(6) 0.39101(18) 0.61098(18)
H3_2 H 0.7626 0.4131 0.5882
C8_2 C 0.7672(7) 0.29076(17) 0.71211(17)
C110_2 C 0.8956(5) 0.07610(17) 0.62899(17)
C111_2 C 0.7772(5) 0.05830(16) 0.61280(17)
H71_2 H 0.7737 0.0346 0.5904
C112_2 C 0.6600(5) 0.07462(16) 0.62876(16)
C113_2 C 0.6661(5) 0.10878(16) 0.65999(16)
H72_2 H 0.5860 0.1200 0.6705
C114_2 C 0.7859(6) 0.12806(17) 0.67724(17)
C115_2 C 0.9025(5) 0.11128(16) 0.66119(17)
H73_2 H 0.9860 0.1238 0.6722
C117_2 C 0.5283(5) 0.05379(18) 0.61023(19)
C118_2 C 0.7905(7) 0.16719(18) 0.71134(17)
C119_2 C 0.7418(5) 0.13322(15) 0.86562(16)
C120_2 C 0.6235(6) 0.11837(16) 0.88272(17)
H74_2 H 0.5420 0.1304 0.8717
C121_2 C 0.6246(5) 0.08550(16) 0.91628(16)
C122_2 C 0.7444(5) 0.06888(17) 0.93077(17)
H75_2 H 0.7459 0.0465 0.9533
C123_2 C 0.8632(5) 0.08304(16) 0.91422(16)
C124_2 C 0.8607(5) 0.11613(16) 0.88199(16)
H76_2 H 0.9414 0.1273 0.8710
C125_2 C 0.7407(6) 0.16935(16) 0.82985(17)
C126_2 C 0.5000(6) 0.06912(18) 0.93581(18)
C127_2 C 0.2649(12) 0.1698(3) 0.6831(4)
H77_2 H 0.3406 0.1587 0.7014
H78_2 H 0.1831 0.1549 0.6921
H79_2 H 0.2762 0.1630 0.6510
C128_2 C 0.1468(8) 0.2408(4) 0.6655(3)
H80_2 H 0.1475 0.2734 0.6725
H81_2 H 0.1555 0.2357 0.6329
H82_2 H 0.0632 0.2268 0.6741
C129_2 C 0.3431(8) 0.2375(3) 0.7225(3)
C130_2 C 0.3311(9) 0.2917(3) 0.7286(3)
H83_2 H 0.3963 0.3031 0.7523
H84_2 H 0.3480 0.3061 0.7000
H85_2 H 0.2418 0.2986 0.7374
C135_2 C 0.9899(6) 0.06358(19) 0.93140(17)
C136_2 C 0.5178(6) 0.39126(19) 0.60637(19)
N1_2 N 0.2567(6) 0.2205(3) 0.6905(2)
O3_2 O 0.8776(4) 0.27873(12) 0.72800(12)
O4_2 O 0.6548(4) 0.27664(12) 0.72279(11)
O6_2 O 0.5135(4) 0.41896(14) 0.57598(14)
O15_2 O 0.5260(4) 0.02398(12) 0.57928(12)
O17_2 O 0.6800(4) 0.18068(12) 0.72186(12)
O18_2 O 0.9003(4) 0.18229(12) 0.72649(12)
O19_2 O 0.8513(4) 0.18367(11) 0.81864(11)
O20_2 O 0.6292(4) 0.18190(12) 0.81475(12)
O21_2 O 0.3913(4) 0.08352(12) 0.91831(12)
O22_2 O 0.5066(4) 0.04276(12) 0.96812(13)
O24_2 O 0.9869(4) 0.03045(12) 0.95734(12)
O26_2 O 0.4193(4) 0.21782(14) 0.74774(14)
O29 O 0.6023(4) 0.27670(11) 0.81650(11)
O30 O 0.8234(4) 0.27806(12) 0.82131(11)
C9_2 C 0.8437(5) 0.37271(17) 0.92664(16)
C10_2 C 0.7277(5) 0.38802(17) 0.94331(16)
H4_2 H 0.7320 0.4101 0.9673
C11_2 C 0.6052(5) 0.37169(16) 0.92554(16)
C12_2 C 0.6009(5) 0.33990(17) 0.89036(17)
H5_2 H 0.5174 0.3286 0.8778
C13_2 C 0.7163(5) 0.32398(16) 0.87289(16)
C14_2 C 0.8364(6) 0.34063(17) 0.89179(17)
H6_2 H 0.9159 0.3297 0.8805
C15_2 C 0.9728(5) 0.39191(19) 0.94630(18)
C16_2 C 0.4837(5) 0.38877(18) 0.94478(17)
C17_2 C 0.7128(7) 0.29012(17) 0.83326(18)
O8_2 O 0.9773(4) 0.42230(13) 0.97618(12)
O9_2 O 0.4919(3) 0.41986(12) 0.97459(12)
C64_2 C 0.2976(6) 0.72387(17) 0.7597(2)
C65_2 C 0.2836(6) 0.72205(17) 0.8047(2)
C66_2 C 0.2930(6) 0.76632(18) 0.7337(2)
C67_2 C 0.1905(7) 0.7962(2) 0.7383(3)
H39_2 H 0.1227 0.7892 0.7581
C68_2 C 0.1852(7) 0.8356(2) 0.7149(3)
H40_2 H 0.1175 0.8563 0.7206
C69_2 C 0.2754(6) 0.84601(19) 0.6832(2)
C70_2 C 0.3737(8) 0.8167(2) 0.6785(2)
H41_2 H 0.4396 0.8231 0.6578
C71_2 C 0.3810(7) 0.7769(2) 0.7038(3)
H42_2 H 0.4513 0.7569 0.6992
C72_2 C 0.1657(6) 0.9581(2) 0.6382(2)
H43_2 H 0.0906 0.9764 0.6404
C73_2 C 0.1662(7) 0.9164(2) 0.6601(3)
H44_2 H 0.0937 0.9081 0.6775
C74_2 C 0.2649(6) 0.88888(18) 0.6570(2)
C75_2 C 0.3632(7) 0.9021(2) 0.6293(2)
H45_2 H 0.4331 0.8823 0.6237
C76_2 C 0.3605(7) 0.9436(2) 0.6098(2)
H46_2 H 0.4309 0.9522 0.5916
C77_2 C 0.3225(9) 0.6017(2) 0.6793(2)
C78_2 C 0.2298(9) 0.6348(2) 0.6684(3)
H47_2 H 0.1675 0.6296 0.6434
C79_2 C 0.2280(9) 0.6747(2) 0.6935(3)
H48_2 H 0.1664 0.6970 0.6847
C80_2 C 0.3121(7) 0.68333(18) 0.7308(2)
C81_2 C 0.4082(6) 0.6517(2) 0.7403(2)
H49_2 H 0.4724 0.6578 0.7646
C82_2 C 0.4126(7) 0.6117(2) 0.7153(2)
H50_2 H 0.4790 0.5907 0.7230
C83_2 C 0.3332(9) 0.4763(2) 0.6582(2)
H51_2 H 0.3574 0.4505 0.6750
C84_2 C 0.3524(9) 0.5182(2) 0.6790(2)
H52_2 H 0.3918 0.5207 0.7089
C85_2 C 0.3142(8) 0.5571(2) 0.6563(2)
C86_2 C 0.2694(11) 0.5487(3) 0.6134(3)
H53_2 H 0.2491 0.5735 0.5946
C87_2 C 0.2510(10) 0.5037(3) 0.5949(3)
H54_2 H 0.2125 0.4997 0.5650
C88_2 C 0.2672(6) 0.67937(17) 0.8292(2)
C89_2 C 0.1927(6) 0.64220(18) 0.8109(2)
H55_2 H 0.1483 0.6446 0.7819
C90_2 C 0.1811(6) 0.60238(19) 0.8333(2)
H56_2 H 0.1316 0.5776 0.8191
C91_2 C 0.2399(6) 0.59743(17) 0.8761(2)
C92_2 C 0.3085(6) 0.63515(19) 0.8964(2)
H57_2 H 0.3474 0.6334 0.9263
C93_2 C 0.3199(6) 0.67552(19) 0.8727(2)
H58_2 H 0.3656 0.7009 0.8872
C94_2 C 0.1682(10) 0.4759(3) 0.9046(3)
H59_2 H 0.1185 0.4513 0.8902
C95_2 C 0.1626(9) 0.5194(3) 0.8838(3)
H60_2 H 0.1035 0.5231 0.8581
C96_2 C 0.2366(6) 0.55382(18) 0.8994(2)
C97_2 C 0.3084(9) 0.5447(2) 0.9389(2)
H61_2 H 0.3611 0.5684 0.9537
C98_2 C 0.3070(9) 0.5025(2) 0.9580(2)
H62_2 H 0.3607 0.4981 0.9849
C99_2 C 0.2861(6) 0.76463(18) 0.8334(2)
C100_2 C 0.3878(6) 0.79740(19) 0.8304(2)
H63_2 H 0.4599 0.7915 0.8121
C101_2 C 0.3840(7) 0.8379(2) 0.8537(3)
H64_2 H 0.4530 0.8598 0.8504
C102_2 C 0.2857(6) 0.84824(18) 0.8815(2)
C103_2 C 0.1915(6) 0.81482(18) 0.8882(2)
H65_2 H 0.1261 0.8199 0.9094
C104_2 C 0.1913(6) 0.77347(18) 0.86401(19)
H66_2 H 0.1247 0.7510 0.8687
C105_2 C 0.3316(6) 0.97453(17) 0.89712(18)
H67_2 H 0.3800 0.9980 0.8835
C106_2 C 0.3425(6) 0.93147(18) 0.8821(2)
H68_2 H 0.3967 0.9254 0.8576
C107_2 C 0.2757(6) 0.89531(18) 0.90183(19)
C108_2 C 0.2007(6) 0.90664(17) 0.93645(19)
H69_2 H 0.1550 0.8835 0.9516
C109_2 C 0.1890(6) 0.95148(17) 0.95030(18)
H70_2 H 0.1334 0.9584 0.9742
N8_2 N 0.2537(4) 0.98510(13) 0.93099(14)
loop_
_geom_bond_atom_site_label_1
_geom_bond_atom_site_label_2
_geom_bond_site_symmetry_1
_geom_bond_site_symmetry_2
C64 C65 1_555 1_555
C65 C88 1_555 1_555
C66 C64 1_555 1_555
C67 C66 1_555 1_555
H39 C67 1_555 1_555
C68 C67 1_555 1_555
H40 C68 1_555 1_555
C69 C68 1_555 1_555
C70 C69 1_555 1_555
H41 C70 1_555 1_555
C71 C66 1_555 1_555
H42 C71 1_555 1_555
C72 H43 1_555 1_555
C73 C72 1_555 1_555
H44 C73 1_555 1_555
C74 C69 1_555 1_555
C75 C74 1_555 1_555
H45 C75 1_555 1_555
C76 C75 1_555 1_555
H46 C76 1_555 1_555
C77 C78 1_555 1_555
C78 H47 1_555 1_555
C79 C78 1_555 1_555
H48 C79 1_555 1_555
C80 C64 1_555 1_555
C81 C80 1_555 1_555
H49 C81 1_555 1_555
C82 C77 1_555 1_555
H50 C82 1_555 1_555
C83 H51 1_555 1_555
C84 C83 1_555 1_555
H52 C84 1_555 1_555
C85 C77 1_555 1_555
C86 C85 1_555 1_555
H53 C86 1_555 1_555
C87 C86 1_555 1_555
H54 C87 1_555 1_555
C88 C89 1_555 1_555
C89 H55 1_555 1_555
C90 C89 1_555 1_555
H56 C90 1_555 1_555
C91 C90 1_555 1_555
C92 C91 1_555 1_555
H57 C92 1_555 1_555
C93 C88 1_555 1_555
H58 C93 1_555 1_555
C94 H59 1_555 1_555
C95 C94 1_555 1_555
H60 C95 1_555 1_555
C96 C91 1_555 1_555
C97 C96 1_555 1_555
H61 C97 1_555 1_555
C98 C97 1_555 1_555
H62 C98 1_555 1_555
C99 C65 1_555 1_555
C100 C99 1_555 1_555
H63 C100 1_555 1_555
C101 C100 1_555 1_555
H64 C101 1_555 1_555
C102 C101 1_555 1_555
C103 C102 1_555 1_555
H65 C103 1_555 1_555
C104 C99 1_555 1_555
H66 C104 1_555 1_555
C105 H67 1_555 1_555
C106 C105 1_555 1_555
H68 C106 1_555 1_555
C107 C102 1_555 1_555
C108 C107 1_555 1_555
H69 C108 1_555 1_555
C109 C108 1_555 1_555
H70 C109 1_555 1_555
N7 C72 1_555 1_555
N8 C105 1_555 1_555
N9 C94 1_555 1_555
N10 C83 1_555 1_555
Zn11 N9 1_555 1_555
Zn15 N10 1_555 1_555
C70 C71 1_555 1_555
C73 C74 1_555 1_555
C76 N7 1_555 1_555
C79 C80 1_555 1_555
C81 C82 1_555 1_555
C84 C85 1_555 1_555
C87 N10 1_555 1_555
C92 C93 1_555 1_555
C95 C96 1_555 1_555
C98 N9 1_555 1_555
C103 C104 1_555 1_555
C106 C107 1_555 1_555
C109 N8 1_555 1_555
C9 C10 1_555 1_555
C10 H4 1_555 1_555
C11 C10 1_555 1_555
C12 C11 1_555 1_555
H5 C12 1_555 1_555
C13 C12 1_555 1_555
C14 C9 1_555 1_555
H6 C14 1_555 1_555
C15 C9 1_555 1_555
C16 C11 1_555 1_555
C17 C13 1_555 1_555
O8 C15 1_555 1_555
O9 C16 1_555 1_555
O10 C16 1_555 1_555
O11 C17 1_555 1_555
O12 C17 1_555 1_555
Zn7 O12 1_555 1_555
Zn8 O11 1_555 1_555
Zn11 O10 1_555 1_555
C13 C14 1_555 1_555
Zn7 O3 1_555 1_555
Zn8 O4 1_555 1_555
C1 C2 1_555 1_555
C2 H1 1_555 1_555
C3 C2 1_555 1_555
C4 C3 1_555 1_555
H2 C4 1_555 1_555
C5 C4 1_555 1_555
C6 C1 1_555 1_555
H3 C6 1_555 1_555
C8 C3 1_555 1_555
C110 C111 1_555 1_555
C111 H71 1_555 1_555
C112 C111 1_555 1_555
C113 C112 1_555 1_555
H72 C113 1_555 1_555
C114 C113 1_555 1_555
C115 C110 1_555 1_555
H73 C115 1_555 1_555
C117 C112 1_555 1_555
C118 C114 1_555 1_555
C119 C120 1_555 1_555
C120 H74 1_555 1_555
C121 C120 1_555 1_555
C122 C121 1_555 1_555
H75 C122 1_555 1_555
C123 C122 1_555 1_555
C124 C119 1_555 1_555
H76 C124 1_555 1_555
C125 C119 1_555 1_555
C126 C121 1_555 1_555
C127 H77 1_555 1_555
H78 C127 1_555 1_555
H79 C127 1_555 1_555
C128 H80 1_555 1_555
H81 C128 1_555 1_555
H82 C128 1_555 1_555
C129 C130 1_555 1_555
C130 H83 1_555 1_555
H84 C130 1_555 1_555
H85 C130 1_555 1_555
C135 C123 1_555 1_555
C136 C5 1_555 1_555
N1 C127 1_555 1_555
O3 C8 1_555 1_555
O4 C8 1_555 1_555
O5 C136 1_555 1_555
O6 C136 1_555 1_555
O15 C117 1_555 1_555
O16 C117 1_555 1_555
O17 Zn8 1_555 1_555
O18 Zn7 1_555 1_555
O19 Zn7 1_555 1_555
O20 Zn8 1_555 1_555
O21 Zn5 1_555 1_555
O22 C126 1_555 1_555
O24 C135 1_555 1_555
O26 Zn8 1_555 1_555
Zn15 O5 1_555 1_555
O32 Zn5 1_555 1_555
C5 C6 1_555 1_555
C114 C115 1_555 1_555
C118 O17 1_555 1_555
C118 O18 1_555 1_555
C123 C124 1_555 1_555
C125 O19 1_555 1_555
C125 O20 1_555 1_555
C126 O21 1_555 1_555
C128 N1 1_555 1_555
C129 N1 1_555 1_555
C129 O26 1_555 1_555
O16 Zn9 1_555 1_555
O7 Zn11 1_555 1_555
Zn9 N5 1_555 1_555
Zn15 N6 1_555 1_555
C18 H7 1_555 1_555
C19 C18 1_555 1_555
H8 C19 1_555 1_555
C20 C19 1_555 1_555
C21 C20 1_555 1_555
H9 C21 1_555 1_555
C22 C21 1_555 1_555
H10 C22 1_555 1_555
C23 H11 1_555 1_555
C24 C23 1_555 1_555
H12 C24 1_555 1_555
C25 C20 1_555 1_555
C26 C25 1_555 1_555
H13 C26 1_555 1_555
C27 C26 1_555 1_555
H14 C27 1_555 1_555
C28 H15 1_555 1_555
C29 C28 1_555 1_555
H16 C29 1_555 1_555
C30 C29 1_555 1_555
C31 C30 1_555 1_555
H17 C31 1_555 1_555
C32 C31 1_555 1_555
H18 C32 1_555 1_555
C33 H19 1_555 1_555
C34 C33 1_555 1_555
H20 C34 1_555 1_555
C35 C30 1_555 1_555
C36 C35 1_555 1_555
H21 C36 1_555 1_555
C37 C36 1_555 1_555
H22 C37 1_555 1_555
C38 C23 1_555 1_555
C39 C33 1_555 1_555
C40 C39 1_555 1_555
C41 C38 1_555 1_555
C42 C41 1_555 1_555
C43 C42 1_555 1_555
H23 C43 1_555 1_555
C44 C43 1_555 1_555
H24 C44 1_555 1_555
C45 C44 1_555 1_555
C46 C45 1_555 1_555
H25 C46 1_555 1_555
C47 C42 1_555 1_555
H26 C47 1_555 1_555
C48 H27 1_555 1_555
C49 C48 1_555 1_555
H28 C49 1_555 1_555
C50 C45 1_555 1_555
C51 C50 1_555 1_555
H29 C51 1_555 1_555
C52 C51 1_555 1_555
H30 C52 1_555 1_555
C53 C40 1_555 1_555
C54 C53 1_555 1_555
H31 C54 1_555 1_555
C55 C54 1_555 1_555
H32 C55 1_555 1_555
C56 C55 1_555 1_555
C57 C56 1_555 1_555
H33 C57 1_555 1_555
C58 C53 1_555 1_555
H34 C58 1_555 1_555
C59 H35 1_555 1_555
C60 C59 1_555 1_555
H36 C60 1_555 1_555
C61 C56 1_555 1_555
C62 C61 1_555 1_555
H37 C62 1_555 1_555
C63 C62 1_555 1_555
H38 C63 1_555 1_555
C131 H86 1_555 1_555
H87 C131 1_555 1_555
H88 C131 1_555 1_555
C132 H89 1_555 1_555
H90 C132 1_555 1_555
H91 C132 1_555 1_555
C133 C134 1_555 1_555
C134 H92 1_555 1_555
H93 C134 1_555 1_555
H94 C134 1_555 1_555
N2 C131 1_555 1_555
N3 C28 1_555 1_555
N11 C18 1_555 1_555
N5 C48 1_555 1_555
N6 C59 1_555 1_555
O1 Zn15 1_555 1_555
O2 C7 1_555 1_555
O13 C116 1_555 1_555
O14 Zn9 1_555 1_555
C7 O1 1_555 1_555
C22 N11 1_555 1_555
C24 C25 1_555 1_555
C27 C38 1_555 1_555
C32 N3 1_555 1_555
C34 C35 1_555 1_555
C37 C39 1_555 1_555
C40 C41 1_555 1_555
C46 C47 1_555 1_555
C49 C50 1_555 1_555
C52 N5 1_555 1_555
C57 C58 1_555 1_555
C60 C61 1_555 1_555
C63 N6 1_555 1_555
C116 O14 1_555 1_555
C132 N2 1_555 1_555
C133 N2 1_555 1_555
C133 O25 1_555 1_555
Zn3 N5_2 1_555 1_555
Zn6 N6_2 1_555 1_555
C18_2 H7_2 1_555 1_555
C19_2 C18_2 1_555 1_555
H8_2 C19_2 1_555 1_555
C20_2 C19_2 1_555 1_555
C21_2 C20_2 1_555 1_555
H9_2 C21_2 1_555 1_555
C22_2 C21_2 1_555 1_555
H10_2 C22_2 1_555 1_555
C23_2 H11_2 1_555 1_555
C24_2 C23_2 1_555 1_555
H12_2 C24_2 1_555 1_555
C25_2 C20_2 1_555 1_555
C26_2 C25_2 1_555 1_555
H13_2 C26_2 1_555 1_555
C27_2 C26_2 1_555 1_555
H14_2 C27_2 1_555 1_555
C28_2 H15_2 1_555 1_555
C29_2 C28_2 1_555 1_555
H16_2 C29_2 1_555 1_555
C30_2 C29_2 1_555 1_555
C31_2 C30_2 1_555 1_555
H17_2 C31_2 1_555 1_555
C32_2 C31_2 1_555 1_555
H18_2 C32_2 1_555 1_555
C33_2 H19_2 1_555 1_555
C34_2 C33_2 1_555 1_555
H20_2 C34_2 1_555 1_555
C35_2 C30_2 1_555 1_555
C36_2 C35_2 1_555 1_555
H21_2 C36_2 1_555 1_555
C37_2 C36_2 1_555 1_555
H22_2 C37_2 1_555 1_555
C38_2 C23_2 1_555 1_555
C39_2 C33_2 1_555 1_555
C40_2 C39_2 1_555 1_555
C41_2 C38_2 1_555 1_555
C42_2 C41_2 1_555 1_555
C43_2 C42_2 1_555 1_555
H23_2 C43_2 1_555 1_555
C44_2 C43_2 1_555 1_555
H24_2 C44_2 1_555 1_555
C45_2 C44_2 1_555 1_555
C46_2 C45_2 1_555 1_555
H25_2 C46_2 1_555 1_555
C47_2 C42_2 1_555 1_555
H26_2 C47_2 1_555 1_555
C48_2 H27_2 1_555 1_555
C49_2 C48_2 1_555 1_555
H28_2 C49_2 1_555 1_555
C50_2 C45_2 1_555 1_555
C51_2 C50_2 1_555 1_555
H29_2 C51_2 1_555 1_555
C52_2 C51_2 1_555 1_555
H30_2 C52_2 1_555 1_555
C53_2 C40_2 1_555 1_555
C54_2 C53_2 1_555 1_555
H31_2 C54_2 1_555 1_555
C55_2 C54_2 1_555 1_555
H32_2 C55_2 1_555 1_555
C56_2 C55_2 1_555 1_555
C57_2 C56_2 1_555 1_555
H33_2 C57_2 1_555 1_555
C58_2 C53_2 1_555 1_555
H34_2 C58_2 1_555 1_555
C59_2 H35_2 1_555 1_555
C60_2 C59_2 1_555 1_555
H36_2 C60_2 1_555 1_555
C61_2 C56_2 1_555 1_555
C62_2 C61_2 1_555 1_555
H37_2 C62_2 1_555 1_555
C63_2 C62_2 1_555 1_555
H38_2 C63_2 1_555 1_555
C131_2 H86_2 1_555 1_555
H87_2 C131_2 1_555 1_555
H88_2 C131_2 1_555 1_555
C132_2 H89_2 1_555 1_555
H90_2 C132_2 1_555 1_555
H91_2 C132_2 1_555 1_555
C133_2 C134_2 1_555 1_555
C134_2 H92_2 1_555 1_555
H93_2 C134_2 1_555 1_555
H94_2 C134_2 1_555 1_555
N2_2 C131_2 1_555 1_555
N3_2 C28_2 1_555 1_555
N4 C18_2 1_555 1_555
N5_2 C48_2 1_555 1_555
N6_2 C59_2 1_555 1_555
O1_2 Zn6 1_555 1_555
O2_2 C7_2 1_555 1_555
O13_2 C116_2 1_555 1_555
O14_2 Zn3 1_555 1_555
Zn12 O23 1_555 1_555
N14 Zn6 1_555 1_555
O27 Zn6 1_555 1_555
O31 Zn3 1_555 1_555
C7_2 O1_2 1_555 1_555
C22_2 N4 1_555 1_555
C24_2 C25_2 1_555 1_555
C27_2 C38_2 1_555 1_555
C32_2 N3_2 1_555 1_555
C34_2 C35_2 1_555 1_555
C37_2 C39_2 1_555 1_555
C40_2 C41_2 1_555 1_555
C46_2 C47_2 1_555 1_555
C49_2 C50_2 1_555 1_555
C52_2 N5_2 1_555 1_555
C57_2 C58_2 1_555 1_555
C60_2 C61_2 1_555 1_555
C63_2 N6_2 1_555 1_555
C116_2 O14_2 1_555 1_555
C132_2 N2_2 1_555 1_555
C133_2 N2_2 1_555 1_555
C133_2 O25_2 1_555 1_555
O7_2 Zn4 1_555 1_555
N13 Zn4 1_555 1_555
O28 Zn4 1_555 1_555
Zn1 O3_2 1_555 1_555
Zn2 O4_2 1_555 1_555
C1_2 C2_2 1_555 1_555
C2_2 H1_2 1_555 1_555
C3_2 C2_2 1_555 1_555
C4_2 C3_2 1_555 1_555
H2_2 C4_2 1_555 1_555
C5_2 C4_2 1_555 1_555
C6_2 C1_2 1_555 1_555
H3_2 C6_2 1_555 1_555
C8_2 C3_2 1_555 1_555
C110_2 C111_2 1_555 1_555
C111_2 H71_2 1_555 1_555
C112_2 C111_2 1_555 1_555
C113_2 C112_2 1_555 1_555
H72_2 C113_2 1_555 1_555
C114_2 C113_2 1_555 1_555
C115_2 C110_2 1_555 1_555
H73_2 C115_2 1_555 1_555
C117_2 C112_2 1_555 1_555
C118_2 C114_2 1_555 1_555
C119_2 C120_2 1_555 1_555
C120_2 H74_2 1_555 1_555
C121_2 C120_2 1_555 1_555
C122_2 C121_2 1_555 1_555
H75_2 C122_2 1_555 1_555
C123_2 C122_2 1_555 1_555
C124_2 C119_2 1_555 1_555
H76_2 C124_2 1_555 1_555
C125_2 C119_2 1_555 1_555
C126_2 C121_2 1_555 1_555
C127_2 H77_2 1_555 1_555
H78_2 C127_2 1_555 1_555
H79_2 C127_2 1_555 1_555
C128_2 H80_2 1_555 1_555
H81_2 C128_2 1_555 1_555
H82_2 C128_2 1_555 1_555
C129_2 C130_2 1_555 1_555
C130_2 H83_2 1_555 1_555
H84_2 C130_2 1_555 1_555
H85_2 C130_2 1_555 1_555
C135_2 C123_2 1_555 1_555
C136_2 C5_2 1_555 1_555
N1_2 C127_2 1_555 1_555
O3_2 C8_2 1_555 1_555
O4_2 C8_2 1_555 1_555
O27 C136_2 1_555 1_555
O6_2 C136_2 1_555 1_555
O15_2 C117_2 1_555 1_555
O31 C117_2 1_555 1_555
O17_2 Zn2 1_555 1_555
O18_2 Zn1 1_555 1_555
O19_2 Zn1 1_555 1_555
O20_2 Zn2 1_555 1_555
O21_2 Zn12 1_555 1_555
O22_2 C126_2 1_555 1_555
O24_2 C135_2 1_555 1_555
O26_2 Zn2 1_555 1_555
O29 Zn2 1_555 1_555
O30 Zn1 1_555 1_555
C5_2 C6_2 1_555 1_555
C114_2 C115_2 1_555 1_555
C118_2 O17_2 1_555 1_555
C118_2 O18_2 1_555 1_555
C123_2 C124_2 1_555 1_555
C125_2 O19_2 1_555 1_555
C125_2 O20_2 1_555 1_555
C126_2 O21_2 1_555 1_555
C128_2 N1_2 1_555 1_555
C129_2 N1_2 1_555 1_555
C129_2 O26_2 1_555 1_555
C9_2 C10_2 1_555 1_555
C10_2 H4_2 1_555 1_555
C11_2 C10_2 1_555 1_555
C12_2 C11_2 1_555 1_555
H5_2 C12_2 1_555 1_555
C13_2 C12_2 1_555 1_555
C14_2 C9_2 1_555 1_555
H6_2 C14_2 1_555 1_555
C15_2 C9_2 1_555 1_555
C16_2 C11_2 1_555 1_555
C17_2 C13_2 1_555 1_555
O8_2 C15_2 1_555 1_555
O9_2 C16_2 1_555 1_555
O28 C16_2 1_555 1_555
O29 C17_2 1_555 1_555
O30 C17_2 1_555 1_555
C13_2 C14_2 1_555 1_555
C64_2 C65_2 1_555 1_555
C65_2 C88_2 1_555 1_555
C66_2 C64_2 1_555 1_555
C67_2 C66_2 1_555 1_555
H39_2 C67_2 1_555 1_555
C68_2 C67_2 1_555 1_555
H40_2 C68_2 1_555 1_555
C69_2 C68_2 1_555 1_555
C70_2 C69_2 1_555 1_555
H41_2 C70_2 1_555 1_555
C71_2 C66_2 1_555 1_555
H42_2 C71_2 1_555 1_555
C72_2 H43_2 1_555 1_555
C73_2 C72_2 1_555 1_555
H44_2 C73_2 1_555 1_555
C74_2 C69_2 1_555 1_555
C75_2 C74_2 1_555 1_555
H45_2 C75_2 1_555 1_555
C76_2 C75_2 1_555 1_555
H46_2 C76_2 1_555 1_555
C77_2 C78_2 1_555 1_555
C78_2 H47_2 1_555 1_555
C79_2 C78_2 1_555 1_555
H48_2 C79_2 1_555 1_555
C80_2 C64_2 1_555 1_555
C81_2 C80_2 1_555 1_555
H49_2 C81_2 1_555 1_555
C82_2 C77_2 1_555 1_555
H50_2 C82_2 1_555 1_555
C83_2 H51_2 1_555 1_555
C84_2 C83_2 1_555 1_555
H52_2 C84_2 1_555 1_555
C85_2 C77_2 1_555 1_555
C86_2 C85_2 1_555 1_555
H53_2 C86_2 1_555 1_555
C87_2 C86_2 1_555 1_555
H54_2 C87_2 1_555 1_555
C88_2 C89_2 1_555 1_555
C89_2 H55_2 1_555 1_555
C90_2 C89_2 1_555 1_555
H56_2 C90_2 1_555 1_555
C91_2 C90_2 1_555 1_555
C92_2 C91_2 1_555 1_555
H57_2 C92_2 1_555 1_555
C93_2 C88_2 1_555 1_555
H58_2 C93_2 1_555 1_555
C94_2 H59_2 1_555 1_555
C95_2 C94_2 1_555 1_555
H60_2 C95_2 1_555 1_555
C96_2 C91_2 1_555 1_555
C97_2 C96_2 1_555 1_555
H61_2 C97_2 1_555 1_555
C98_2 C97_2 1_555 1_555
H62_2 C98_2 1_555 1_555
C99_2 C65_2 1_555 1_555
C100_2 C99_2 1_555 1_555
H63_2 C100_2 1_555 1_555
C101_2 C100_2 1_555 1_555
H64_2 C101_2 1_555 1_555
C102_2 C101_2 1_555 1_555
C103_2 C102_2 1_555 1_555
H65_2 C103_2 1_555 1_555
C104_2 C99_2 1_555 1_555
H66_2 C104_2 1_555 1_555
C105_2 H67_2 1_555 1_555
C106_2 C105_2 1_555 1_555
H68_2 C106_2 1_555 1_555
C107_2 C102_2 1_555 1_555
C108_2 C107_2 1_555 1_555
H69_2 C108_2 1_555 1_555
C109_2 C108_2 1_555 1_555
H70_2 C109_2 1_555 1_555
N12 C72_2 1_555 1_555
N8_2 C105_2 1_555 1_555
N13 C94_2 1_555 1_555
N14 C83_2 1_555 1_555
C70_2 C71_2 1_555 1_555
C73_2 C74_2 1_555 1_555
C76_2 N12 1_555 1_555
C79_2 C80_2 1_555 1_555
C81_2 C82_2 1_555 1_555
C84_2 C85_2 1_555 1_555
C87_2 N14 1_555 1_555
C92_2 C93_2 1_555 1_555
C95_2 C96_2 1_555 1_555
C98_2 N13 1_555 1_555
C103_2 C104_2 1_555 1_555
C106_2 C107_2 1_555 1_555
C109_2 N8_2 1_555 1_555

#END
