
###############################################################################
#
# This file contains modified crystal structure data generated from the
# MOF subset of the Cambridge Structural Database (CSD) v543 
# hosted by the Cambridge Crystallographic Data Centre (CCDC).
#
# This work is licensed under the Creative Commons
# Attribution-NonCommercial-ShareAlike 4.0 International License.
# To view a copy of this license, visit
# http://creativecommons.org/licenses/by-nc-sa/4.0/
# or send a letter to
# Creative Commons, PO Box 1866, Mountain View, CA 94042, USA.
#
# CIF created using the CSD Python API on 29 September 2022
# The structure has been converted into the P1 space group
# The structure has a 3D framework
# The original CSD entry GOSPOW is in the orthorhombic crystal system
# The framework has been calculated to contain at least 10.0% void space
# The void calculation uses a probe of radius 1.32A, grid spacing 0.4
#
###############################################################################

data_GOSPOW
_chemical_formula_moiety         '(C248 H224 N32 O64 Zn16)n'
_symmetry_cell_setting           triclinic
_symmetry_space_group_name_H-M   'P 1'
_symmetry_Int_Tables_number      1
_space_group_name_Hall           'P 1'
loop_
_symmetry_equiv_pos_site_id
_symmetry_equiv_pos_as_xyz
1 x,y,z
_cell_length_a                   20.2980(7)
_cell_length_b                   12.2836(12)
_cell_length_c                   33.0207(12)
_cell_angle_alpha                90
_cell_angle_beta                 90
_cell_angle_gamma                90
_cell_volume                     8233.13
loop_
_atom_site_label
_atom_site_type_symbol
_atom_site_fract_x
_atom_site_fract_y
_atom_site_fract_z
Zn2 Zn 0.00696(3) 0.28117(6) 0.60816(2)
O3 O 0.0462(2) 0.1527(4) 0.58041(13)
O4 O 0.1140(2) 0.2877(4) 0.56988(14)
O7 O 0.4443(3) 0.2421(6) 0.17225(16)
O8 O 0.4685(2) 0.0890(5) 0.14333(13)
N4 N 0.4625(2) 0.1281(4) 0.43776(13)
C11 C 0.4579(3) 0.0201(6) 0.43543(17)
C13 C 0.4054(3) 0.0114(8) 0.49911(19)
C14 C 0.4104(3) 0.1200(8) 0.5016(2)
H19 H 0.394633 0.156526 0.524260
C15 C 0.4390(2) 0.1769(6) 0.47027(18)
H20 H 0.441826 0.252341 0.472111
C18 C 0.2304(2) 0.0907(5) 0.49476(15)
H21 H 0.267834 0.118471 0.482164
C19 C 0.1954(2) 0.1549(5) 0.52198(16)
H22 H 0.210071 0.224894 0.527815
C20 C 0.1403(3) 0.1169(5) 0.54006(17)
C21 C 0.1204(3) 0.0119(6) 0.5328(2)
C23 C 0.0976(3) 0.1923(6) 0.56558(17)
C28 C 0.4253(3) 0.0810(7) 0.21025(17)
C29 C 0.4058(4) 0.1336(7) 0.2437(2)
H27 H 0.404294 0.209268 0.243670
C30 C 0.3879(3) 0.0778(6) 0.27838(19)
H28 H 0.372941 0.116307 0.300828
C31 C 0.4467(3) 0.1434(8) 0.1731(2)
Zn3 Zn 0.49304(3) 0.21883(6) 0.10816(2)
Zn4 Zn 0.50696(3) 0.21883(6) 0.39184(2)
O9 O 0.0557(3) 0.2579(6) 0.67225(16)
O10 O 0.0315(2) 0.4110(5) 0.64333(13)
Zn1 Zn 0.32946(3) 0.86828(5) 0.39361(2)
O1 O 0.28179(17) 0.9650(3) 0.43060(11)
O2 O 0.2322(3) 0.8189(4) 0.45448(14)
O5 O 0.34825(19) 0.9584(4) 0.34645(11)
O6 O 0.3928(3) 0.8118(5) 0.32224(16)
N1 N 0.0801(2) 0.7822(5) 0.36776(14)
N2 N 0.2929(2) 0.7138(4) 0.38507(14)
H1 H 0.265221 0.698391 0.408713
N3 N 0.4081(2) 0.7946(4) 0.42155(14)
H2 H 0.447037 0.803892 0.404340
C1 C 0.1371(3) 0.7281(5) 0.37015(18)
H3 H 0.139778 0.668348 0.387358
C2 C 0.1925(3) 0.7575(6) 0.3480(2)
C3 C 0.1878(4) 0.8466(7) 0.3235(2)
H4 H 0.224043 0.868696 0.308288
C4 C 0.1312(4) 0.9025(7) 0.3212(3)
H5 H 0.127818 0.963132 0.304434
C5 C 0.0774(3) 0.8682(7) 0.3443(2)
H6 H 0.038340 0.907613 0.342958
C6 C 0.2533(3) 0.6869(6) 0.3500(2)
H7 H 0.240330 0.610928 0.351292
H8 H 0.279207 0.697136 0.325581
C7 C 0.3517(3) 0.6419(5) 0.3890(2)
H9 H 0.377815 0.645859 0.364457
H10 H 0.337567 0.567063 0.392566
C8 C 0.4534(4) 0.6025(8) 0.4274(3)
H11 H 0.439715 0.528524 0.431566
H12 H 0.480191 0.625540 0.449799
H13 H 0.478435 0.607400 0.402817
C9 C 0.3929(3) 0.6755(6) 0.4244(2)
H14 H 0.366619 0.664262 0.448898
C10 C 0.4237(4) 0.8367(7) 0.4624(2)
H15 H 0.464931 0.804550 0.471194
H16 H 0.389661 0.812756 0.480916
H17 H 0.474578 0.985633 0.412547
C12 C 0.4295(3) 0.9567(6) 0.46534(18)
H18 H 0.385832 0.972484 0.520053
C16 C 0.2441(3) 0.9159(5) 0.45545(15)
C17 C 0.2100(2) 0.9865(4) 0.48643(15)
H23 H 0.082916 0.984769 0.545477
C22 C 0.1562(3) 0.9461(5) 0.5067(2)
H24 H 0.143708 0.874054 0.502853
C24 C 0.3767(3) 0.9085(6) 0.31846(18)
C25 C 0.3918(3) 0.9676(5) 0.28009(17)
C26 C 0.4130(4) 0.9148(7) 0.24608(19)
H25 H 0.416334 0.839283 0.246351
C27 C 0.4294(4) 0.9708(8) 0.21146(18)
H26 H 0.443488 0.932833 0.188678
N5 N 0.9199(2) 0.2178(5) 0.63224(14)
N6 N 0.9625(2) 0.3719(4) 0.56224(13)
Zn5 Zn 0.99304(3) 0.71883(6) 0.39184(2)
O3_2 O 0.4538(2) 0.3473(4) 0.08041(13)
O4_2 O 0.3860(2) 0.2123(4) 0.06988(14)
H18_2 H 0.114168 0.527516 0.020053
C14_2 C 0.0896(3) 0.3800(8) 0.0016(2)
H19_2 H 0.105367 0.343474 0.024260
C19_2 C 0.3046(2) 0.3451(5) 0.02198(16)
H22_2 H 0.289929 0.275106 0.027815
C20_2 C 0.3597(3) 0.3831(5) 0.04006(17)
C21_2 C 0.3796(3) 0.4881(6) 0.0328(2)
H23_2 H 0.417084 0.515231 0.045477
C22_2 C 0.3438(3) 0.5539(5) 0.0067(2)
H24_2 H 0.356292 0.625946 0.002853
C23_2 C 0.4024(3) 0.3077(6) 0.06558(17)
N5_2 N 0.5801(2) 0.2822(5) 0.13224(14)
N6_2 N 0.5375(2) 0.1281(4) 0.06224(13)
Zn1_2 Zn 0.17054(3) 0.63172(5) 0.89361(2)
O1_2 O 0.21821(17) 0.5350(3) 0.93060(11)
O2_2 O 0.2678(3) 0.6811(4) 0.95448(14)
O5_2 O 0.15175(19) 0.5416(4) 0.84645(11)
O6_2 O 0.1072(3) 0.6882(5) 0.82224(16)
N1_2 N 0.4199(2) 0.7178(5) 0.86776(14)
N2_2 N 0.2071(2) 0.7862(4) 0.88507(14)
H1_2 H 0.234779 0.801609 0.908713
N3_2 N 0.0919(2) 0.7054(4) 0.92155(14)
H2_2 H 0.052963 0.696108 0.904340
N4_2 N 0.0375(2) 0.3719(4) 0.93776(13)
C1_2 C 0.3629(3) 0.7719(5) 0.87015(18)
H3_2 H 0.360222 0.831652 0.887358
C2_2 C 0.3075(3) 0.7425(6) 0.8480(2)
C3_2 C 0.3122(4) 0.6534(7) 0.8235(2)
H4_2 H 0.275957 0.631304 0.808288
C4_2 C 0.3688(4) 0.5975(7) 0.8212(3)
H5_2 H 0.372182 0.536868 0.804434
C5_2 C 0.4226(3) 0.6318(7) 0.8443(2)
H6_2 H 0.461660 0.592387 0.842958
C6_2 C 0.2467(3) 0.8131(6) 0.8500(2)
H7_2 H 0.259670 0.889072 0.851292
H8_2 H 0.220793 0.802864 0.825581
C7_2 C 0.1483(3) 0.8581(5) 0.8890(2)
H9_2 H 0.122185 0.854141 0.864457
H10_2 H 0.162433 0.932937 0.892566
C8_2 C 0.0466(4) 0.8975(8) 0.9274(3)
H11_2 H 0.060285 0.971476 0.931566
H12_2 H 0.019809 0.874460 0.949799
H13_2 H 0.021565 0.892600 0.902817
C9_2 C 0.1071(3) 0.8245(6) 0.9244(2)
H14_2 H 0.133381 0.835738 0.948898
C10_2 C 0.0763(4) 0.6633(7) 0.9624(2)
H15_2 H 0.035069 0.695450 0.971194
H16_2 H 0.110339 0.687244 0.980916
C11_2 C 0.0421(3) 0.4799(6) 0.93543(17)
H17_2 H 0.025422 0.514367 0.912547
C12_2 C 0.0705(3) 0.5433(6) 0.96534(18)
C13_2 C 0.0946(3) 0.4886(8) 0.99911(19)
C15_2 C 0.0610(2) 0.3231(6) 0.97027(18)
H20_2 H 0.058174 0.247659 0.972111
C16_2 C 0.2559(3) 0.5841(5) 0.95545(15)
C17_2 C 0.2900(2) 0.5135(4) 0.98643(15)
C18_2 C 0.2696(2) 0.4093(5) 0.99476(15)
H21_2 H 0.232166 0.381529 0.982164
C24_2 C 0.1233(3) 0.5915(6) 0.81846(18)
C25_2 C 0.1082(3) 0.5324(5) 0.78009(17)
C26_2 C 0.0870(4) 0.5852(7) 0.74608(19)
H25_2 H 0.083666 0.660717 0.746351
C27_2 C 0.0706(4) 0.5292(8) 0.71146(18)
H26_2 H 0.056512 0.567167 0.688678
C28_2 C 0.0747(3) 0.4190(7) 0.71025(17)
C29_2 C 0.0942(4) 0.3664(7) 0.7437(2)
H27_2 H 0.095706 0.290732 0.743670
C30_2 C 0.1121(3) 0.4222(6) 0.77838(19)
H28_2 H 0.127059 0.383693 0.800828
C31_2 C 0.0533(3) 0.3566(8) 0.6731(2)
Zn5_2 Zn 0.50696(3) 0.78117(6) 0.89184(2)
Zn4_2 Zn 0.99304(3) 0.28117(6) 0.89184(2)
Zn1_3 Zn 0.82946(3) 0.63172(5) 0.60639(2)
O1_3 O 0.78179(17) 0.5350(3) 0.56940(11)
O2_3 O 0.7322(3) 0.6811(4) 0.54552(14)
O3_3 O 0.5462(2) 0.3473(4) 0.41959(13)
O4_3 O 0.6140(2) 0.2123(4) 0.43012(14)
O5_3 O 0.84825(19) 0.5416(4) 0.65355(11)
O6_3 O 0.8928(3) 0.6882(5) 0.67776(16)
O7_2 O 0.9443(3) 0.2579(6) 0.82775(16)
O8_2 O 0.9685(2) 0.4110(5) 0.85667(13)
N1_3 N 0.5801(2) 0.7178(5) 0.63224(14)
N2_3 N 0.7929(2) 0.7862(4) 0.61493(14)
H1_3 H 0.765221 0.801609 0.591287
N3_3 N 0.9081(2) 0.7054(4) 0.57845(14)
H2_3 H 0.947037 0.696108 0.595660
C1_3 C 0.6371(3) 0.7719(5) 0.62985(18)
H3_3 H 0.639778 0.831652 0.612642
C2_3 C 0.6925(3) 0.7425(6) 0.6520(2)
C3_3 C 0.6878(4) 0.6534(7) 0.6765(2)
H4_3 H 0.724043 0.631304 0.691712
C4_3 C 0.6312(4) 0.5975(7) 0.6788(3)
H5_3 H 0.627818 0.536868 0.695566
C5_3 C 0.5774(3) 0.6318(7) 0.6557(2)
H6_3 H 0.538340 0.592387 0.657042
C6_3 C 0.7533(3) 0.8131(6) 0.6500(2)
H7_3 H 0.740330 0.889072 0.648708
H8_3 H 0.779207 0.802864 0.674419
C7_3 C 0.8517(3) 0.8581(5) 0.6110(2)
H9_3 H 0.877815 0.854141 0.635543
H10_3 H 0.837567 0.932937 0.607434
C8_3 C 0.9534(4) 0.8975(8) 0.5726(3)
H11_3 H 0.939715 0.971476 0.568434
H12_3 H 0.980191 0.874460 0.550201
H13_3 H 0.978435 0.892600 0.597183
C9_3 C 0.8929(3) 0.8245(6) 0.5756(2)
H14_3 H 0.866619 0.835738 0.551102
C10_3 C 0.9237(4) 0.6633(7) 0.5376(2)
H15_3 H 0.964931 0.695450 0.528806
H16_3 H 0.889661 0.687244 0.519084
C11_3 C 0.9579(3) 0.4799(6) 0.56457(17)
H17_3 H 0.974578 0.514367 0.587453
C12_3 C 0.9295(3) 0.5433(6) 0.53466(18)
C13_3 C 0.9054(3) 0.4886(8) 0.50089(19)
H18_3 H 0.885832 0.527516 0.479947
C14_3 C 0.9104(3) 0.3800(8) 0.4984(2)
H19_3 H 0.894633 0.343474 0.475740
C15_3 C 0.9390(2) 0.3231(6) 0.52973(18)
H20_3 H 0.941826 0.247659 0.527889
C16_3 C 0.7441(3) 0.5841(5) 0.54455(15)
C17_3 C 0.7100(2) 0.5135(4) 0.51357(15)
C18_3 C 0.7304(2) 0.4093(5) 0.50524(15)
H21_3 H 0.767834 0.381529 0.517836
C19_3 C 0.6954(2) 0.3451(5) 0.47802(16)
H22_3 H 0.710071 0.275106 0.472185
C20_3 C 0.6403(3) 0.3831(5) 0.45994(17)
C21_3 C 0.6204(3) 0.4881(6) 0.4672(2)
H23_3 H 0.582916 0.515231 0.454523
C22_3 C 0.6562(3) 0.5539(5) 0.4933(2)
H24_3 H 0.643708 0.625946 0.497147
C23_3 C 0.5976(3) 0.3077(6) 0.43442(17)
C24_3 C 0.8767(3) 0.5915(6) 0.68154(18)
C25_3 C 0.8918(3) 0.5324(5) 0.71991(17)
C26_3 C 0.9130(4) 0.5852(7) 0.75392(19)
H25_3 H 0.916334 0.660717 0.753649
C27_3 C 0.9294(4) 0.5292(8) 0.78854(18)
H26_3 H 0.943488 0.567167 0.811322
C28_3 C 0.9253(3) 0.4190(7) 0.78975(17)
C29_3 C 0.9058(4) 0.3664(7) 0.7563(2)
H27_3 H 0.904294 0.290732 0.756330
C30_3 C 0.8879(3) 0.4222(6) 0.72162(19)
H28_3 H 0.872941 0.383693 0.699172
C31_3 C 0.9467(3) 0.3566(8) 0.8269(2)
Zn5_3 Zn 0.49304(3) 0.78117(6) 0.60816(2)
O9_2 O 0.5557(3) 0.2421(6) 0.32775(16)
O10_2 O 0.5315(2) 0.0890(5) 0.35667(13)
N5_3 N 0.4199(2) 0.2822(5) 0.36776(14)
N5_4 N 0.0801(2) 0.2178(5) 0.86776(14)
Zn5_4 Zn 0.00696(3) 0.71883(6) 0.10816(2)
C11_4 C 0.5421(3) 0.0201(6) 0.06457(17)
C13_4 C 0.5946(3) 0.0114(8) 0.00089(19)
C15_4 C 0.5610(2) 0.1769(6) 0.02973(18)
H20_4 H 0.558174 0.252341 0.027889
C18_4 C 0.7696(2) 0.0907(5) 0.00524(15)
H21_4 H 0.732166 0.118471 0.017836
C28_4 C 0.5747(3) 0.0810(7) 0.28975(17)
C29_4 C 0.5942(4) 0.1336(7) 0.2563(2)
H27_4 H 0.595706 0.209268 0.256330
C30_4 C 0.6121(3) 0.0778(6) 0.22162(19)
H28_4 H 0.627059 0.116307 0.199172
C31_4 C 0.5533(3) 0.1434(8) 0.3269(2)
O3_4 O 0.9538(2) 0.1527(4) 0.91959(13)
O4_4 O 0.8860(2) 0.2877(4) 0.93012(14)
C14_4 C 0.5896(3) 0.1200(8) 0.9984(2)
H19_4 H 0.605367 0.156526 0.975740
C19_4 C 0.8046(2) 0.1549(5) 0.97802(16)
H22_4 H 0.789929 0.224894 0.972185
C20_4 C 0.8597(3) 0.1169(5) 0.95994(17)
C21_4 C 0.8796(3) 0.0119(6) 0.9672(2)
C23_4 C 0.9024(3) 0.1923(6) 0.93442(17)
Zn1_4 Zn 0.67054(3) 0.86828(5) 0.10639(2)
O1_4 O 0.71821(17) 0.9650(3) 0.06940(11)
O2_4 O 0.7678(3) 0.8189(4) 0.04552(14)
O5_4 O 0.65175(19) 0.9584(4) 0.15355(11)
O6_4 O 0.6072(3) 0.8118(5) 0.17776(16)
N1_4 N 0.9199(2) 0.7822(5) 0.13224(14)
N2_4 N 0.7071(2) 0.7138(4) 0.11493(14)
H1_4 H 0.734779 0.698391 0.091287
N3_4 N 0.5919(2) 0.7946(4) 0.07845(14)
H2_4 H 0.552963 0.803892 0.095660
C1_4 C 0.8629(3) 0.7281(5) 0.12985(18)
H3_4 H 0.860222 0.668348 0.112642
C2_4 C 0.8075(3) 0.7575(6) 0.1520(2)
C3_4 C 0.8122(4) 0.8466(7) 0.1765(2)
H4_4 H 0.775957 0.868696 0.191712
C4_4 C 0.8688(4) 0.9025(7) 0.1788(3)
H5_4 H 0.872182 0.963132 0.195566
C5_4 C 0.9226(3) 0.8682(7) 0.1557(2)
H6_4 H 0.961660 0.907613 0.157042
C6_4 C 0.7467(3) 0.6869(6) 0.1500(2)
H7_4 H 0.759670 0.610928 0.148708
H8_4 H 0.720793 0.697136 0.174419
C7_4 C 0.6483(3) 0.6419(5) 0.1110(2)
H9_4 H 0.622185 0.645859 0.135543
H10_4 H 0.662433 0.567063 0.107434
C8_4 C 0.5466(4) 0.6025(8) 0.0726(3)
H11_4 H 0.560285 0.528524 0.068434
H12_4 H 0.519809 0.625540 0.050201
H13_4 H 0.521565 0.607400 0.097183
C9_4 C 0.6071(3) 0.6755(6) 0.0756(2)
H14_4 H 0.633381 0.664262 0.051102
C10_4 C 0.5763(4) 0.8367(7) 0.0376(2)
H15_4 H 0.535069 0.804550 0.028806
H16_4 H 0.610339 0.812756 0.019084
H17_4 H 0.525422 0.985633 0.087453
C12_4 C 0.5705(3) 0.9567(6) 0.03466(18)
C16_4 C 0.7559(3) 0.9159(5) 0.04455(15)
C17_4 C 0.7900(2) 0.9865(4) 0.01357(15)
C24_4 C 0.6233(3) 0.9085(6) 0.18154(18)
C25_4 C 0.6082(3) 0.9676(5) 0.21991(17)
C26_4 C 0.5870(4) 0.9148(7) 0.25392(19)
H25_4 H 0.583666 0.839283 0.253649
C27_4 C 0.5706(4) 0.9708(8) 0.28854(18)
H26_4 H 0.556512 0.932833 0.311322
N6_3 N 0.0375(2) 0.6281(4) 0.43776(13)
Zn1_5 Zn 0.67054(3) 0.13172(5) 0.60639(2)
O1_5 O 0.71821(17) 0.0350(3) 0.56940(11)
O2_5 O 0.7678(3) 0.1811(4) 0.54552(14)
O5_5 O 0.65175(19) 0.0416(4) 0.65355(11)
O6_5 O 0.6072(3) 0.1882(5) 0.67776(16)
N2_5 N 0.7071(2) 0.2862(4) 0.61493(14)
H1_5 H 0.734779 0.301609 0.591287
N3_5 N 0.5919(2) 0.2054(4) 0.57845(14)
H2_5 H 0.552963 0.196108 0.595660
C1_5 C 0.8629(3) 0.2719(5) 0.62985(18)
H3_5 H 0.860222 0.331652 0.612642
C2_5 C 0.8075(3) 0.2425(6) 0.6520(2)
C3_5 C 0.8122(4) 0.1534(7) 0.6765(2)
H4_5 H 0.775957 0.131304 0.691712
C4_5 C 0.8688(4) 0.0975(7) 0.6788(3)
H5_5 H 0.872182 0.036868 0.695566
C5_5 C 0.9226(3) 0.1318(7) 0.6557(2)
H6_5 H 0.961660 0.092387 0.657042
C6_5 C 0.7467(3) 0.3131(6) 0.6500(2)
H7_5 H 0.759670 0.389072 0.648708
H8_5 H 0.720793 0.302864 0.674419
C7_5 C 0.6483(3) 0.3581(5) 0.6110(2)
H9_5 H 0.622185 0.354141 0.635543
H10_5 H 0.662433 0.432937 0.607434
C8_5 C 0.5466(4) 0.3975(8) 0.5726(3)
H11_5 H 0.560285 0.471476 0.568434
H12_5 H 0.519809 0.374460 0.550201
H13_5 H 0.521565 0.392600 0.597183
C9_5 C 0.6071(3) 0.3245(6) 0.5756(2)
H14_5 H 0.633381 0.335738 0.551102
C10_5 C 0.5763(4) 0.1633(7) 0.5376(2)
H15_5 H 0.535069 0.195450 0.528806
H16_5 H 0.610339 0.187244 0.519084
H17_5 H 0.525422 0.014367 0.587453
C12_5 C 0.5705(3) 0.0433(6) 0.53466(18)
H18_4 H 0.614168 0.027516 0.479947
C16_5 C 0.7559(3) 0.0841(5) 0.54455(15)
C17_5 C 0.7900(2) 0.0135(4) 0.51357(15)
H23_4 H 0.917084 0.015231 0.454523
C22_4 C 0.8438(3) 0.0539(5) 0.4933(2)
H24_4 H 0.856292 0.125946 0.497147
C24_5 C 0.6233(3) 0.0915(6) 0.68154(18)
C25_5 C 0.6082(3) 0.0324(5) 0.71991(17)
C26_5 C 0.5870(4) 0.0852(7) 0.75392(19)
H25_5 H 0.583666 0.160717 0.753649
C27_5 C 0.5706(4) 0.0292(8) 0.78854(18)
H26_5 H 0.556512 0.067167 0.811322
O3_5 O 0.9538(2) 0.8473(4) 0.41959(13)
O4_5 O 0.8860(2) 0.7123(4) 0.43012(14)
O7_3 O 0.5557(3) 0.7579(6) 0.82775(16)
O8_3 O 0.5315(2) 0.9110(5) 0.85667(13)
N4_3 N 0.5375(2) 0.8719(4) 0.56224(13)
C11_5 C 0.5421(3) 0.9799(6) 0.56457(17)
C13_5 C 0.5946(3) 0.9886(8) 0.50089(19)
C14_5 C 0.5896(3) 0.8800(8) 0.4984(2)
H19_5 H 0.605367 0.843474 0.475740
C15_5 C 0.5610(2) 0.8231(6) 0.52973(18)
H20_5 H 0.558174 0.747659 0.527889
C18_5 C 0.7696(2) 0.9093(5) 0.50524(15)
H21_5 H 0.732166 0.881529 0.517836
C19_5 C 0.8046(2) 0.8451(5) 0.47802(16)
H22_5 H 0.789929 0.775106 0.472185
C20_5 C 0.8597(3) 0.8831(5) 0.45994(17)
C21_5 C 0.8796(3) 0.9881(6) 0.4672(2)
C23_5 C 0.9024(3) 0.8077(6) 0.43442(17)
C28_5 C 0.5747(3) 0.9190(7) 0.78975(17)
C29_5 C 0.5942(4) 0.8664(7) 0.7563(2)
H27_5 H 0.595706 0.790732 0.756330
C30_5 C 0.6121(3) 0.9222(6) 0.72162(19)
H28_5 H 0.627059 0.883693 0.699172
C31_5 C 0.5533(3) 0.8566(8) 0.8269(2)
O9_3 O 0.9443(3) 0.7421(6) 0.32775(16)
O10_3 O 0.9685(2) 0.5890(5) 0.35667(13)
Zn1_6 Zn 0.82946(3) 0.36828(5) 0.10639(2)
O1_6 O 0.78179(17) 0.4650(3) 0.06940(11)
O2_6 O 0.7322(3) 0.3189(4) 0.04552(14)
O5_6 O 0.84825(19) 0.4584(4) 0.15355(11)
O6_6 O 0.8928(3) 0.3118(5) 0.17776(16)
N2_6 N 0.7929(2) 0.2138(4) 0.11493(14)
H1_6 H 0.765221 0.198391 0.091287
N3_6 N 0.9081(2) 0.2946(4) 0.07845(14)
H2_6 H 0.947037 0.303892 0.095660
N4_4 N 0.9625(2) 0.6281(4) 0.06224(13)
C1_6 C 0.6371(3) 0.2281(5) 0.12985(18)
H3_6 H 0.639778 0.168348 0.112642
C2_6 C 0.6925(3) 0.2575(6) 0.1520(2)
C3_6 C 0.6878(4) 0.3466(7) 0.1765(2)
H4_6 H 0.724043 0.368696 0.191712
C4_6 C 0.6312(4) 0.4025(7) 0.1788(3)
H5_6 H 0.627818 0.463132 0.195566
C5_6 C 0.5774(3) 0.3682(7) 0.1557(2)
H6_6 H 0.538340 0.407613 0.157042
C6_6 C 0.7533(3) 0.1869(6) 0.1500(2)
H7_6 H 0.740330 0.110928 0.148708
H8_6 H 0.779207 0.197136 0.174419
C7_6 C 0.8517(3) 0.1419(5) 0.1110(2)
H9_6 H 0.877815 0.145859 0.135543
H10_6 H 0.837567 0.067063 0.107434
C8_6 C 0.9534(4) 0.1025(8) 0.0726(3)
H11_6 H 0.939715 0.028524 0.068434
H12_6 H 0.980191 0.125540 0.050201
H13_6 H 0.978435 0.107400 0.097183
C9_6 C 0.8929(3) 0.1755(6) 0.0756(2)
H14_6 H 0.866619 0.164262 0.051102
C10_6 C 0.9237(4) 0.3367(7) 0.0376(2)
H15_6 H 0.964931 0.304550 0.028806
H16_6 H 0.889661 0.312756 0.019084
C11_6 C 0.9579(3) 0.5201(6) 0.06457(17)
H17_6 H 0.974578 0.485633 0.087453
C12_6 C 0.9295(3) 0.4567(6) 0.03466(18)
C13_6 C 0.9054(3) 0.5114(8) 0.00089(19)
C15_6 C 0.9390(2) 0.6769(6) 0.02973(18)
H20_6 H 0.941826 0.752341 0.027889
C16_6 C 0.7441(3) 0.4159(5) 0.04455(15)
C17_6 C 0.7100(2) 0.4865(4) 0.01357(15)
C18_6 C 0.7304(2) 0.5907(5) 0.00524(15)
H21_6 H 0.767834 0.618471 0.017836
C24_6 C 0.8767(3) 0.4085(6) 0.18154(18)
C25_6 C 0.8918(3) 0.4676(5) 0.21991(17)
C26_6 C 0.9130(4) 0.4148(7) 0.25392(19)
H25_6 H 0.916334 0.339283 0.253649
C27_6 C 0.9294(4) 0.4708(8) 0.28854(18)
H26_6 H 0.943488 0.432833 0.311322
C28_6 C 0.9253(3) 0.5810(7) 0.28975(17)
C29_6 C 0.9058(4) 0.6336(7) 0.2563(2)
H27_6 H 0.904294 0.709268 0.256330
C30_6 C 0.8879(3) 0.5778(6) 0.22162(19)
H28_6 H 0.872941 0.616307 0.199172
C31_6 C 0.9467(3) 0.6434(8) 0.3269(2)
O3_6 O 0.5462(2) 0.6527(4) 0.91959(13)
O4_6 O 0.6140(2) 0.7877(4) 0.93012(14)
H18_5 H 0.885832 0.472484 0.979947
C14_6 C 0.9104(3) 0.6200(8) 0.9984(2)
H19_6 H 0.894633 0.656526 0.975740
C19_6 C 0.6954(2) 0.6549(5) 0.97802(16)
H22_6 H 0.710071 0.724894 0.972185
C20_6 C 0.6403(3) 0.6169(5) 0.95994(17)
C21_6 C 0.6204(3) 0.5119(6) 0.9672(2)
H23_5 H 0.582916 0.484769 0.954523
C22_5 C 0.6562(3) 0.4461(5) 0.9933(2)
H24_5 H 0.643708 0.374054 0.997147
C23_6 C 0.5976(3) 0.6923(6) 0.93442(17)
N6_4 N 0.4625(2) 0.8719(4) 0.93776(13)
Zn1_7 Zn 0.17054(3) 0.36828(5) 0.39361(2)
O1_7 O 0.21821(17) 0.4650(3) 0.43060(11)
O2_7 O 0.2678(3) 0.3189(4) 0.45448(14)
O3_7 O 0.4538(2) 0.6527(4) 0.58041(13)
O4_7 O 0.3860(2) 0.7877(4) 0.56988(14)
O5_7 O 0.15175(19) 0.4584(4) 0.34645(11)
O6_7 O 0.1072(3) 0.3118(5) 0.32224(16)
O7_4 O 0.0557(3) 0.7421(6) 0.17225(16)
O8_4 O 0.0315(2) 0.5890(5) 0.14333(13)
N2_7 N 0.2071(2) 0.2138(4) 0.38507(14)
H1_7 H 0.234779 0.198391 0.408713
N3_7 N 0.0919(2) 0.2946(4) 0.42155(14)
H2_7 H 0.052963 0.303892 0.404340
C1_7 C 0.3629(3) 0.2281(5) 0.37015(18)
H3_7 H 0.360222 0.168348 0.387358
C2_7 C 0.3075(3) 0.2575(6) 0.3480(2)
C3_7 C 0.3122(4) 0.3466(7) 0.3235(2)
H4_7 H 0.275957 0.368696 0.308288
C4_7 C 0.3688(4) 0.4025(7) 0.3212(3)
H5_7 H 0.372182 0.463132 0.304434
C5_7 C 0.4226(3) 0.3682(7) 0.3443(2)
H6_7 H 0.461660 0.407613 0.342958
C6_7 C 0.2467(3) 0.1869(6) 0.3500(2)
H7_7 H 0.259670 0.110928 0.351292
H8_7 H 0.220793 0.197136 0.325581
C7_7 C 0.1483(3) 0.1419(5) 0.3890(2)
H9_7 H 0.122185 0.145859 0.364457
H10_7 H 0.162433 0.067063 0.392566
C8_7 C 0.0466(4) 0.1025(8) 0.4274(3)
H11_7 H 0.060285 0.028524 0.431566
H12_7 H 0.019809 0.125540 0.449799
H13_7 H 0.021565 0.107400 0.402817
C9_7 C 0.1071(3) 0.1755(6) 0.4244(2)
H14_7 H 0.133381 0.164262 0.448898
C10_7 C 0.0763(4) 0.3367(7) 0.4624(2)
H15_7 H 0.035069 0.304550 0.471194
H16_7 H 0.110339 0.312756 0.480916
C11_7 C 0.0421(3) 0.5201(6) 0.43543(17)
H17_7 H 0.025422 0.485633 0.412547
C12_7 C 0.0705(3) 0.4567(6) 0.46534(18)
C13_7 C 0.0946(3) 0.5114(8) 0.49911(19)
H18_6 H 0.114168 0.472484 0.520053
C14_7 C 0.0896(3) 0.6200(8) 0.5016(2)
H19_7 H 0.105367 0.656526 0.524260
C15_7 C 0.0610(2) 0.6769(6) 0.47027(18)
H20_7 H 0.058174 0.752341 0.472111
C16_7 C 0.2559(3) 0.4159(5) 0.45545(15)
C17_7 C 0.2900(2) 0.4865(4) 0.48643(15)
C18_7 C 0.2696(2) 0.5907(5) 0.49476(15)
H21_7 H 0.232166 0.618471 0.482164
C19_7 C 0.3046(2) 0.6549(5) 0.52198(16)
H22_7 H 0.289929 0.724894 0.527815
C20_7 C 0.3597(3) 0.6169(5) 0.54006(17)
C21_7 C 0.3796(3) 0.5119(6) 0.5328(2)
H23_6 H 0.417084 0.484769 0.545477
C22_6 C 0.3438(3) 0.4461(5) 0.5067(2)
H24_6 H 0.356292 0.374054 0.502853
C23_7 C 0.4024(3) 0.6923(6) 0.56558(17)
C24_7 C 0.1233(3) 0.4085(6) 0.31846(18)
C25_7 C 0.1082(3) 0.4676(5) 0.28009(17)
C26_7 C 0.0870(4) 0.4148(7) 0.24608(19)
H25_7 H 0.083666 0.339283 0.246351
C27_7 C 0.0706(4) 0.4708(8) 0.21146(18)
H26_7 H 0.056512 0.432833 0.188678
C28_7 C 0.0747(3) 0.5810(7) 0.21025(17)
C29_7 C 0.0942(4) 0.6336(7) 0.2437(2)
H27_7 H 0.095706 0.709268 0.243670
C30_7 C 0.1121(3) 0.5778(6) 0.27838(19)
H28_7 H 0.127059 0.616307 0.300828
C31_7 C 0.0533(3) 0.6434(8) 0.1731(2)
O9_4 O 0.4443(3) 0.7579(6) 0.67225(16)
O10_4 O 0.4685(2) 0.9110(5) 0.64333(13)
Zn1_8 Zn 0.32946(3) 0.13172(5) 0.89361(2)
O1_8 O 0.28179(17) 0.0350(3) 0.93060(11)
O2_8 O 0.2322(3) 0.1811(4) 0.95448(14)
O5_8 O 0.34825(19) 0.0416(4) 0.84645(11)
O6_8 O 0.3928(3) 0.1882(5) 0.82224(16)
N2_8 N 0.2929(2) 0.2862(4) 0.88507(14)
H1_8 H 0.265221 0.301609 0.908713
N3_8 N 0.4081(2) 0.2054(4) 0.92155(14)
H2_8 H 0.447037 0.196108 0.904340
C1_8 C 0.1371(3) 0.2719(5) 0.87015(18)
H3_8 H 0.139778 0.331652 0.887358
C2_8 C 0.1925(3) 0.2425(6) 0.8480(2)
C3_8 C 0.1878(4) 0.1534(7) 0.8235(2)
H4_8 H 0.224043 0.131304 0.808288
C4_8 C 0.1312(4) 0.0975(7) 0.8212(3)
H5_8 H 0.127818 0.036868 0.804434
C5_8 C 0.0774(3) 0.1318(7) 0.8443(2)
H6_8 H 0.038340 0.092387 0.842958
C6_8 C 0.2533(3) 0.3131(6) 0.8500(2)
H7_8 H 0.240330 0.389072 0.851292
H8_8 H 0.279207 0.302864 0.825581
C7_8 C 0.3517(3) 0.3581(5) 0.8890(2)
H9_8 H 0.377815 0.354141 0.864457
H10_8 H 0.337567 0.432937 0.892566
C8_8 C 0.4534(4) 0.3975(8) 0.9274(3)
H11_8 H 0.439715 0.471476 0.931566
H12_8 H 0.480191 0.374460 0.949799
H13_8 H 0.478435 0.392600 0.902817
C9_8 C 0.3929(3) 0.3245(6) 0.9244(2)
H14_8 H 0.366619 0.335738 0.948898
C10_8 C 0.4237(4) 0.1633(7) 0.9624(2)
H15_8 H 0.464931 0.195450 0.971194
H16_8 H 0.389661 0.187244 0.980916
H17_8 H 0.474578 0.014367 0.912547
C12_8 C 0.4295(3) 0.0433(6) 0.96534(18)
C16_8 C 0.2441(3) 0.0841(5) 0.95545(15)
C17_8 C 0.2100(2) 0.0135(4) 0.98643(15)
C24_8 C 0.3767(3) 0.0915(6) 0.81846(18)
C25_8 C 0.3918(3) 0.0324(5) 0.78009(17)
C26_8 C 0.4130(4) 0.0852(7) 0.74608(19)
H25_8 H 0.416334 0.160717 0.746351
C27_8 C 0.4294(4) 0.0292(8) 0.71146(18)
H26_8 H 0.443488 0.067167 0.688678
O3_8 O 0.0462(2) 0.8473(4) 0.08041(13)
O4_8 O 0.1140(2) 0.7123(4) 0.06988(14)
C14_8 C 0.4104(3) 0.8800(8) 0.0016(2)
H19_8 H 0.394633 0.843474 0.024260
C19_8 C 0.1954(2) 0.8451(5) 0.02198(16)
H22_8 H 0.210071 0.775106 0.027815
C20_8 C 0.1403(3) 0.8831(5) 0.04006(17)
C21_8 C 0.1204(3) 0.9881(6) 0.0328(2)
C23_8 C 0.0976(3) 0.8077(6) 0.06558(17)
C11_8 C 0.4579(3) 0.9799(6) 0.93543(17)
C13_8 C 0.4054(3) 0.9886(8) 0.99911(19)
C15_8 C 0.4390(2) 0.8231(6) 0.97027(18)
H20_8 H 0.441826 0.747659 0.972111
C18_8 C 0.2304(2) 0.9093(5) 0.99476(15)
H21_8 H 0.267834 0.881529 0.982164
C28_8 C 0.4253(3) 0.9190(7) 0.71025(17)
C29_8 C 0.4058(4) 0.8664(7) 0.7437(2)
H27_8 H 0.404294 0.790732 0.743670
C30_8 C 0.3879(3) 0.9222(6) 0.77838(19)
H28_8 H 0.372941 0.883693 0.800828
C31_8 C 0.4467(3) 0.8566(8) 0.6731(2)
H18_7 H 0.614168 0.972484 0.979947
H23_7 H 0.917084 0.984769 0.954523
C22_7 C 0.8438(3) 0.9461(5) 0.9933(2)
H24_7 H 0.856292 0.874054 0.997147
H18_8 H 0.385832 0.027516 0.020053
H23_8 H 0.082916 0.015231 0.045477
C22_8 C 0.1562(3) 0.0539(5) 0.0067(2)
H24_8 H 0.143708 0.125946 0.002853
loop_
_geom_bond_atom_site_label_1
_geom_bond_atom_site_label_2
_geom_bond_site_symmetry_1
_geom_bond_site_symmetry_2
Zn2 O3 1_555 1_555
O3 C23 1_555 1_555
O4 Zn2 1_555 1_555
O7 C31 1_555 1_555
O8 C31 1_555 1_555
N4 C11 1_555 1_555
C14 C13 1_555 1_555
H19 C14 1_555 1_555
C15 N4 1_555 1_555
H20 C15 1_555 1_555
C18 H21 1_555 1_555
C19 C18 1_555 1_555
H22 C19 1_555 1_555
C20 C19 1_555 1_555
C21 C20 1_555 1_555
C23 O4 1_555 1_555
C29 C28 1_555 1_555
H27 C29 1_555 1_555
H28 C30 1_555 1_555
C31 C28 1_555 1_555
Zn3 O7 1_555 1_555
Zn4 N4 1_555 1_555
O9 Zn2 1_555 1_555
O10 Zn2 1_555 1_555
O8 Zn3 1_555 1_555
C14 C15 1_555 1_555
C20 C23 1_555 1_555
C29 C30 1_555 1_555
Zn1 O1 1_555 1_555
O1 C16 1_555 1_555
O2 C16 1_555 1_555
O5 Zn1 1_555 1_555
O6 C24 1_555 1_555
N1 C1 1_555 1_555
N2 Zn1 1_555 1_555
H1 N2 1_555 1_555
N3 Zn1 1_555 1_555
H2 N3 1_555 1_555
C1 H3 1_555 1_555
C2 C1 1_555 1_555
C3 C2 1_555 1_555
H4 C3 1_555 1_555
C4 C3 1_555 1_555
H5 C4 1_555 1_555
C5 N1 1_555 1_555
H6 C5 1_555 1_555
C6 N2 1_555 1_555
H7 C6 1_555 1_555
H8 C6 1_555 1_555
C7 N2 1_555 1_555
H9 C7 1_555 1_555
H10 C7 1_555 1_555
C8 H11 1_555 1_555
H12 C8 1_555 1_555
H13 C8 1_555 1_555
C9 N3 1_555 1_555
H14 C9 1_555 1_555
C10 N3 1_555 1_555
H15 C10 1_555 1_555
H16 C10 1_555 1_555
C12 C10 1_555 1_555
C16 C17 1_555 1_555
C22 C17 1_555 1_555
H24 C22 1_555 1_555
C24 O5 1_555 1_555
C25 C24 1_555 1_555
C26 C25 1_555 1_555
H25 C26 1_555 1_555
C27 C26 1_555 1_555
H26 C27 1_555 1_555
C2 C6 1_555 1_555
C4 C5 1_555 1_555
C7 C9 1_555 1_555
C8 C9 1_555 1_555
Zn3 O3_2 1_555 1_555
O3_2 C23_2 1_555 1_555
O4_2 Zn3 1_555 1_555
H19_2 C14_2 1_555 1_555
H22_2 C19_2 1_555 1_555
C20_2 C19_2 1_555 1_555
C21_2 C20_2 1_555 1_555
H23_2 C21_2 1_555 1_555
H24_2 C22_2 1_555 1_555
C23_2 O4_2 1_555 1_555
N5_2 Zn3 1_555 1_555
N6_2 Zn3 1_555 1_555
C20_2 C23_2 1_555 1_555
C21_2 C22_2 1_555 1_555
Zn1_2 O1_2 1_555 1_555
O1_2 C16_2 1_555 1_555
O2_2 C16_2 1_555 1_555
O5_2 Zn1_2 1_555 1_555
O6_2 C24_2 1_555 1_555
O9 C31_2 1_555 1_555
O10 C31_2 1_555 1_555
N1_2 C1_2 1_555 1_555
N2_2 Zn1_2 1_555 1_555
H1_2 N2_2 1_555 1_555
N3_2 Zn1_2 1_555 1_555
H2_2 N3_2 1_555 1_555
N4_2 C11_2 1_555 1_555
C1_2 H3_2 1_555 1_555
C2_2 C1_2 1_555 1_555
C3_2 C2_2 1_555 1_555
H4_2 C3_2 1_555 1_555
C4_2 C3_2 1_555 1_555
H5_2 C4_2 1_555 1_555
C5_2 N1_2 1_555 1_555
H6_2 C5_2 1_555 1_555
C6_2 N2_2 1_555 1_555
H7_2 C6_2 1_555 1_555
H8_2 C6_2 1_555 1_555
C7_2 N2_2 1_555 1_555
H9_2 C7_2 1_555 1_555
H10_2 C7_2 1_555 1_555
C8_2 H11_2 1_555 1_555
H12_2 C8_2 1_555 1_555
H13_2 C8_2 1_555 1_555
C9_2 N3_2 1_555 1_555
H14_2 C9_2 1_555 1_555
C10_2 N3_2 1_555 1_555
H15_2 C10_2 1_555 1_555
H16_2 C10_2 1_555 1_555
C11_2 H17_2 1_555 1_555
C12_2 C10_2 1_555 1_555
C13_2 C12_2 1_555 1_555
C15_2 N4_2 1_555 1_555
H20_2 C15_2 1_555 1_555
C16_2 C17_2 1_555 1_555
C17_2 C18_2 1_555 1_555
C18_2 H21_2 1_555 1_555
C24_2 O5_2 1_555 1_555
C25_2 C24_2 1_555 1_555
C26_2 C25_2 1_555 1_555
H25_2 C26_2 1_555 1_555
C27_2 C26_2 1_555 1_555
H26_2 C27_2 1_555 1_555
C28_2 C27_2 1_555 1_555
C29_2 C28_2 1_555 1_555
H27_2 C29_2 1_555 1_555
C30_2 C25_2 1_555 1_555
H28_2 C30_2 1_555 1_555
C31_2 C28_2 1_555 1_555
Zn5_2 N1_2 1_555 1_555
C2_2 C6_2 1_555 1_555
C4_2 C5_2 1_555 1_555
C7_2 C9_2 1_555 1_555
C8_2 C9_2 1_555 1_555
C11_2 C12_2 1_555 1_555
C29_2 C30_2 1_555 1_555
Zn1_3 O1_3 1_555 1_555
Zn4 O3_3 1_555 1_555
O1_3 C16_3 1_555 1_555
O2_3 C16_3 1_555 1_555
O3_3 C23_3 1_555 1_555
O4_3 Zn4 1_555 1_555
O5_3 Zn1_3 1_555 1_555
O6_3 C24_3 1_555 1_555
O7_2 C31_3 1_555 1_555
O8_2 C31_3 1_555 1_555
N1_3 C1_3 1_555 1_555
N2_3 Zn1_3 1_555 1_555
H1_3 N2_3 1_555 1_555
N3_3 Zn1_3 1_555 1_555
H2_3 N3_3 1_555 1_555
N6 C11_3 1_555 1_555
C1_3 H3_3 1_555 1_555
C2_3 C1_3 1_555 1_555
C3_3 C2_3 1_555 1_555
H4_3 C3_3 1_555 1_555
C4_3 C3_3 1_555 1_555
H5_3 C4_3 1_555 1_555
C5_3 N1_3 1_555 1_555
H6_3 C5_3 1_555 1_555
C6_3 N2_3 1_555 1_555
H7_3 C6_3 1_555 1_555
H8_3 C6_3 1_555 1_555
C7_3 N2_3 1_555 1_555
H9_3 C7_3 1_555 1_555
H10_3 C7_3 1_555 1_555
C8_3 H11_3 1_555 1_555
H12_3 C8_3 1_555 1_555
H13_3 C8_3 1_555 1_555
C9_3 N3_3 1_555 1_555
H14_3 C9_3 1_555 1_555
C10_3 N3_3 1_555 1_555
H15_3 C10_3 1_555 1_555
H16_3 C10_3 1_555 1_555
C11_3 H17_3 1_555 1_555
C12_3 C10_3 1_555 1_555
C13_3 C12_3 1_555 1_555
H18_3 C13_3 1_555 1_555
C14_3 C13_3 1_555 1_555
H19_3 C14_3 1_555 1_555
C15_3 N6 1_555 1_555
H20_3 C15_3 1_555 1_555
C16_3 C17_3 1_555 1_555
C17_3 C18_3 1_555 1_555
C18_3 H21_3 1_555 1_555
C19_3 C18_3 1_555 1_555
H22_3 C19_3 1_555 1_555
C20_3 C19_3 1_555 1_555
C21_3 C20_3 1_555 1_555
H23_3 C21_3 1_555 1_555
C22_3 C17_3 1_555 1_555
H24_3 C22_3 1_555 1_555
C23_3 O4_3 1_555 1_555
C24_3 O5_3 1_555 1_555
C25_3 C24_3 1_555 1_555
C26_3 C25_3 1_555 1_555
H25_3 C26_3 1_555 1_555
C27_3 C26_3 1_555 1_555
H26_3 C27_3 1_555 1_555
C28_3 C27_3 1_555 1_555
C29_3 C28_3 1_555 1_555
H27_3 C29_3 1_555 1_555
C30_3 C25_3 1_555 1_555
H28_3 C30_3 1_555 1_555
C31_3 C28_3 1_555 1_555
Zn4_2 O7_2 1_555 1_555
Zn5_3 N1_3 1_555 1_555
O9_2 Zn4 1_555 1_555
O10_2 Zn4 1_555 1_555
N5_3 Zn4 1_555 1_555
O8_2 Zn4_2 1_555 1_555
C2_3 C6_3 1_555 1_555
C4_3 C5_3 1_555 1_555
C7_3 C9_3 1_555 1_555
C8_3 C9_3 1_555 1_555
C11_3 C12_3 1_555 1_555
C14_3 C15_3 1_555 1_555
C20_3 C23_3 1_555 1_555
C21_3 C22_3 1_555 1_555
C29_3 C30_3 1_555 1_555
O9_2 C31_4 1_555 1_555
O10_2 C31_4 1_555 1_555
N6_2 C11_4 1_555 1_555
C15_4 N6_2 1_555 1_555
H20_4 C15_4 1_555 1_555
C18_4 H21_4 1_555 1_555
C29_4 C28_4 1_555 1_555
H27_4 C29_4 1_555 1_555
H28_4 C30_4 1_555 1_555
C31_4 C28_4 1_555 1_555
C29_4 C30_4 1_555 1_555
Zn4_2 O3_4 1_555 1_555
O3_4 C23_4 1_555 1_555
O4_4 Zn4_2 1_555 1_555
H19_4 C14_4 1_555 1_555
H22_4 C19_4 1_555 1_555
C20_4 C19_4 1_555 1_555
C21_4 C20_4 1_555 1_555
C23_4 O4_4 1_555 1_555
C20_4 C23_4 1_555 1_555
Zn1_4 O1_4 1_555 1_555
O1_4 C16_4 1_555 1_555
O2_4 C16_4 1_555 1_555
O5_4 Zn1_4 1_555 1_555
O6_4 C24_4 1_555 1_555
N1_4 C1_4 1_555 1_555
N2_4 Zn1_4 1_555 1_555
H1_4 N2_4 1_555 1_555
N3_4 Zn1_4 1_555 1_555
H2_4 N3_4 1_555 1_555
C1_4 H3_4 1_555 1_555
C2_4 C1_4 1_555 1_555
C3_4 C2_4 1_555 1_555
H4_4 C3_4 1_555 1_555
C4_4 C3_4 1_555 1_555
H5_4 C4_4 1_555 1_555
C5_4 N1_4 1_555 1_555
H6_4 C5_4 1_555 1_555
C6_4 N2_4 1_555 1_555
H7_4 C6_4 1_555 1_555
H8_4 C6_4 1_555 1_555
C7_4 N2_4 1_555 1_555
H9_4 C7_4 1_555 1_555
H10_4 C7_4 1_555 1_555
C8_4 H11_4 1_555 1_555
H12_4 C8_4 1_555 1_555
H13_4 C8_4 1_555 1_555
C9_4 N3_4 1_555 1_555
H14_4 C9_4 1_555 1_555
C10_4 N3_4 1_555 1_555
H15_4 C10_4 1_555 1_555
H16_4 C10_4 1_555 1_555
C12_4 C10_4 1_555 1_555
C16_4 C17_4 1_555 1_555
C24_4 O5_4 1_555 1_555
C25_4 C24_4 1_555 1_555
C26_4 C25_4 1_555 1_555
H25_4 C26_4 1_555 1_555
C27_4 C26_4 1_555 1_555
H26_4 C27_4 1_555 1_555
C2_4 C6_4 1_555 1_555
C4_4 C5_4 1_555 1_555
C7_4 C9_4 1_555 1_555
C8_4 C9_4 1_555 1_555
Zn1_5 O1_5 1_555 1_555
O1_5 C16_5 1_555 1_555
O2_5 C16_5 1_555 1_555
O5_5 Zn1_5 1_555 1_555
O6_5 C24_5 1_555 1_555
N5 C1_5 1_555 1_555
N2_5 Zn1_5 1_555 1_555
H1_5 N2_5 1_555 1_555
N3_5 Zn1_5 1_555 1_555
H2_5 N3_5 1_555 1_555
C1_5 H3_5 1_555 1_555
C2_5 C1_5 1_555 1_555
C3_5 C2_5 1_555 1_555
H4_5 C3_5 1_555 1_555
C4_5 C3_5 1_555 1_555
H5_5 C4_5 1_555 1_555
C5_5 N5 1_555 1_555
H6_5 C5_5 1_555 1_555
C6_5 N2_5 1_555 1_555
H7_5 C6_5 1_555 1_555
H8_5 C6_5 1_555 1_555
C7_5 N2_5 1_555 1_555
H9_5 C7_5 1_555 1_555
H10_5 C7_5 1_555 1_555
C8_5 H11_5 1_555 1_555
H12_5 C8_5 1_555 1_555
H13_5 C8_5 1_555 1_555
C9_5 N3_5 1_555 1_555
H14_5 C9_5 1_555 1_555
C10_5 N3_5 1_555 1_555
H15_5 C10_5 1_555 1_555
H16_5 C10_5 1_555 1_555
C12_5 C10_5 1_555 1_555
C16_5 C17_5 1_555 1_555
C22_4 C17_5 1_555 1_555
H24_4 C22_4 1_555 1_555
C24_5 O5_5 1_555 1_555
C25_5 C24_5 1_555 1_555
C26_5 C25_5 1_555 1_555
H25_5 C26_5 1_555 1_555
C27_5 C26_5 1_555 1_555
H26_5 C27_5 1_555 1_555
C2_5 C6_5 1_555 1_555
C4_5 C5_5 1_555 1_555
C7_5 C9_5 1_555 1_555
C8_5 C9_5 1_555 1_555
Zn5 O3_5 1_555 1_555
O3_5 C23_5 1_555 1_555
O4_5 Zn5 1_555 1_555
O7_3 C31_5 1_555 1_555
O8_3 C31_5 1_555 1_555
N4_3 C11_5 1_555 1_555
C14_5 C13_5 1_555 1_555
H19_5 C14_5 1_555 1_555
C15_5 N4_3 1_555 1_555
H20_5 C15_5 1_555 1_555
C18_5 H21_5 1_555 1_555
C19_5 C18_5 1_555 1_555
H22_5 C19_5 1_555 1_555
C20_5 C19_5 1_555 1_555
C21_5 C20_5 1_555 1_555
C23_5 O4_5 1_555 1_555
C29_5 C28_5 1_555 1_555
H27_5 C29_5 1_555 1_555
H28_5 C30_5 1_555 1_555
C31_5 C28_5 1_555 1_555
Zn5_2 O7_3 1_555 1_555
Zn5_3 N4_3 1_555 1_555
O9_3 Zn5 1_555 1_555
O10_3 Zn5 1_555 1_555
O8_3 Zn5_2 1_555 1_555
C14_5 C15_5 1_555 1_555
C20_5 C23_5 1_555 1_555
C29_5 C30_5 1_555 1_555
Zn1_6 O1_6 1_555 1_555
O1_6 C16_6 1_555 1_555
O2_6 C16_6 1_555 1_555
O5_6 Zn1_6 1_555 1_555
O6_6 C24_6 1_555 1_555
O9_3 C31_6 1_555 1_555
O10_3 C31_6 1_555 1_555
N5_2 C1_6 1_555 1_555
N2_6 Zn1_6 1_555 1_555
H1_6 N2_6 1_555 1_555
N3_6 Zn1_6 1_555 1_555
H2_6 N3_6 1_555 1_555
N4_4 C11_6 1_555 1_555
C1_6 H3_6 1_555 1_555
C2_6 C1_6 1_555 1_555
C3_6 C2_6 1_555 1_555
H4_6 C3_6 1_555 1_555
C4_6 C3_6 1_555 1_555
H5_6 C4_6 1_555 1_555
C5_6 N5_2 1_555 1_555
H6_6 C5_6 1_555 1_555
C6_6 N2_6 1_555 1_555
H7_6 C6_6 1_555 1_555
H8_6 C6_6 1_555 1_555
C7_6 N2_6 1_555 1_555
H9_6 C7_6 1_555 1_555
H10_6 C7_6 1_555 1_555
C8_6 H11_6 1_555 1_555
H12_6 C8_6 1_555 1_555
H13_6 C8_6 1_555 1_555
C9_6 N3_6 1_555 1_555
H14_6 C9_6 1_555 1_555
C10_6 N3_6 1_555 1_555
H15_6 C10_6 1_555 1_555
H16_6 C10_6 1_555 1_555
C11_6 H17_6 1_555 1_555
C12_6 C10_6 1_555 1_555
C13_6 C12_6 1_555 1_555
C15_6 N4_4 1_555 1_555
H20_6 C15_6 1_555 1_555
C16_6 C17_6 1_555 1_555
C17_6 C18_6 1_555 1_555
C18_6 H21_6 1_555 1_555
C24_6 O5_6 1_555 1_555
C25_6 C24_6 1_555 1_555
C26_6 C25_6 1_555 1_555
H25_6 C26_6 1_555 1_555
C27_6 C26_6 1_555 1_555
H26_6 C27_6 1_555 1_555
C28_6 C27_6 1_555 1_555
C29_6 C28_6 1_555 1_555
H27_6 C29_6 1_555 1_555
C30_6 C25_6 1_555 1_555
H28_6 C30_6 1_555 1_555
C31_6 C28_6 1_555 1_555
C2_6 C6_6 1_555 1_555
C4_6 C5_6 1_555 1_555
C7_6 C9_6 1_555 1_555
C8_6 C9_6 1_555 1_555
C11_6 C12_6 1_555 1_555
C29_6 C30_6 1_555 1_555
Zn5_2 O3_6 1_555 1_555
O3_6 C23_6 1_555 1_555
O4_6 Zn5_2 1_555 1_555
H19_6 C14_6 1_555 1_555
H22_6 C19_6 1_555 1_555
C20_6 C19_6 1_555 1_555
C21_6 C20_6 1_555 1_555
H23_5 C21_6 1_555 1_555
H24_5 C22_5 1_555 1_555
C23_6 O4_6 1_555 1_555
N6_4 Zn5_2 1_555 1_555
C20_6 C23_6 1_555 1_555
C21_6 C22_5 1_555 1_555
Zn1_7 O1_7 1_555 1_555
Zn5_3 O3_7 1_555 1_555
O1_7 C16_7 1_555 1_555
O2_7 C16_7 1_555 1_555
O3_7 C23_7 1_555 1_555
O4_7 Zn5_3 1_555 1_555
O5_7 Zn1_7 1_555 1_555
O6_7 C24_7 1_555 1_555
O7_4 C31_7 1_555 1_555
O8_4 C31_7 1_555 1_555
N5_3 C1_7 1_555 1_555
N2_7 Zn1_7 1_555 1_555
H1_7 N2_7 1_555 1_555
N3_7 Zn1_7 1_555 1_555
H2_7 N3_7 1_555 1_555
N6_3 C11_7 1_555 1_555
C1_7 H3_7 1_555 1_555
C2_7 C1_7 1_555 1_555
C3_7 C2_7 1_555 1_555
H4_7 C3_7 1_555 1_555
C4_7 C3_7 1_555 1_555
H5_7 C4_7 1_555 1_555
C5_7 N5_3 1_555 1_555
H6_7 C5_7 1_555 1_555
C6_7 N2_7 1_555 1_555
H7_7 C6_7 1_555 1_555
H8_7 C6_7 1_555 1_555
C7_7 N2_7 1_555 1_555
H9_7 C7_7 1_555 1_555
H10_7 C7_7 1_555 1_555
C8_7 H11_7 1_555 1_555
H12_7 C8_7 1_555 1_555
H13_7 C8_7 1_555 1_555
C9_7 N3_7 1_555 1_555
H14_7 C9_7 1_555 1_555
C10_7 N3_7 1_555 1_555
H15_7 C10_7 1_555 1_555
H16_7 C10_7 1_555 1_555
C11_7 H17_7 1_555 1_555
C12_7 C10_7 1_555 1_555
C13_7 C12_7 1_555 1_555
H18_6 C13_7 1_555 1_555
C14_7 C13_7 1_555 1_555
H19_7 C14_7 1_555 1_555
C15_7 N6_3 1_555 1_555
H20_7 C15_7 1_555 1_555
C16_7 C17_7 1_555 1_555
C17_7 C18_7 1_555 1_555
C18_7 H21_7 1_555 1_555
C19_7 C18_7 1_555 1_555
H22_7 C19_7 1_555 1_555
C20_7 C19_7 1_555 1_555
C21_7 C20_7 1_555 1_555
H23_6 C21_7 1_555 1_555
C22_6 C17_7 1_555 1_555
H24_6 C22_6 1_555 1_555
C23_7 O4_7 1_555 1_555
C24_7 O5_7 1_555 1_555
C25_7 C24_7 1_555 1_555
C26_7 C25_7 1_555 1_555
H25_7 C26_7 1_555 1_555
C27_7 C26_7 1_555 1_555
H26_7 C27_7 1_555 1_555
C28_7 C27_7 1_555 1_555
C29_7 C28_7 1_555 1_555
H27_7 C29_7 1_555 1_555
C30_7 C25_7 1_555 1_555
H28_7 C30_7 1_555 1_555
C31_7 C28_7 1_555 1_555
Zn5_4 O7_4 1_555 1_555
O9_4 Zn5_3 1_555 1_555
O10_4 Zn5_3 1_555 1_555
O8_4 Zn5_4 1_555 1_555
C2_7 C6_7 1_555 1_555
C4_7 C5_7 1_555 1_555
C7_7 C9_7 1_555 1_555
C8_7 C9_7 1_555 1_555
C11_7 C12_7 1_555 1_555
C14_7 C15_7 1_555 1_555
C20_7 C23_7 1_555 1_555
C21_7 C22_6 1_555 1_555
C29_7 C30_7 1_555 1_555
Zn1_8 O1_8 1_555 1_555
O1_8 C16_8 1_555 1_555
O2_8 C16_8 1_555 1_555
O5_8 Zn1_8 1_555 1_555
O6_8 C24_8 1_555 1_555
N5_4 C1_8 1_555 1_555
N2_8 Zn1_8 1_555 1_555
H1_8 N2_8 1_555 1_555
N3_8 Zn1_8 1_555 1_555
H2_8 N3_8 1_555 1_555
C1_8 H3_8 1_555 1_555
C2_8 C1_8 1_555 1_555
C3_8 C2_8 1_555 1_555
H4_8 C3_8 1_555 1_555
C4_8 C3_8 1_555 1_555
H5_8 C4_8 1_555 1_555
C5_8 N5_4 1_555 1_555
H6_8 C5_8 1_555 1_555
C6_8 N2_8 1_555 1_555
H7_8 C6_8 1_555 1_555
H8_8 C6_8 1_555 1_555
C7_8 N2_8 1_555 1_555
H9_8 C7_8 1_555 1_555
H10_8 C7_8 1_555 1_555
C8_8 H11_8 1_555 1_555
H12_8 C8_8 1_555 1_555
H13_8 C8_8 1_555 1_555
C9_8 N3_8 1_555 1_555
H14_8 C9_8 1_555 1_555
C10_8 N3_8 1_555 1_555
H15_8 C10_8 1_555 1_555
H16_8 C10_8 1_555 1_555
C12_8 C10_8 1_555 1_555
C16_8 C17_8 1_555 1_555
C24_8 O5_8 1_555 1_555
C25_8 C24_8 1_555 1_555
C26_8 C25_8 1_555 1_555
H25_8 C26_8 1_555 1_555
C27_8 C26_8 1_555 1_555
H26_8 C27_8 1_555 1_555
C2_8 C6_8 1_555 1_555
C4_8 C5_8 1_555 1_555
C7_8 C9_8 1_555 1_555
C8_8 C9_8 1_555 1_555
Zn5_4 O3_8 1_555 1_555
O3_8 C23_8 1_555 1_555
O4_8 Zn5_4 1_555 1_555
H19_8 C14_8 1_555 1_555
H22_8 C19_8 1_555 1_555
C20_8 C19_8 1_555 1_555
C21_8 C20_8 1_555 1_555
C23_8 O4_8 1_555 1_555
C20_8 C23_8 1_555 1_555
O9_4 C31_8 1_555 1_555
O10_4 C31_8 1_555 1_555
N6_4 C11_8 1_555 1_555
C15_8 N6_4 1_555 1_555
H20_8 C15_8 1_555 1_555
C18_8 H21_8 1_555 1_555
C29_8 C28_8 1_555 1_555
H27_8 C29_8 1_555 1_555
H28_8 C30_8 1_555 1_555
C31_8 C28_8 1_555 1_555
C29_8 C30_8 1_555 1_555
H24_7 C22_7 1_555 1_555
H24_8 C22_8 1_555 1_555

#END
