
###############################################################################
#
# This file contains modified crystal structure data generated from the
# MOF subset of the Cambridge Structural Database (CSD) v543 
# hosted by the Cambridge Crystallographic Data Centre (CCDC).
#
# This work is licensed under the Creative Commons
# Attribution-NonCommercial-ShareAlike 4.0 International License.
# To view a copy of this license, visit
# http://creativecommons.org/licenses/by-nc-sa/4.0/
# or send a letter to
# Creative Commons, PO Box 1866, Mountain View, CA 94042, USA.
#
# CIF created using the CSD Python API on 29 September 2022
# The structure has been converted into the P1 space group
# The structure has a 3D framework
# The original CSD entry GOSVOC is in the monoclinic crystal system
# The framework has been calculated to contain at least 10.0% void space
# The void calculation uses a probe of radius 1.32A, grid spacing 0.4
#
###############################################################################

data_GOSVOC
_chemical_formula_moiety         '(C544 H384 Co16 N62 O94)n'
_symmetry_cell_setting           triclinic
_symmetry_space_group_name_H-M   'P 1'
_symmetry_Int_Tables_number      1
_space_group_name_Hall           'P 1'
loop_
_symmetry_equiv_pos_site_id
_symmetry_equiv_pos_as_xyz
1 x,y,z
_cell_length_a                   12.3635(3)
_cell_length_b                   55.7700(11)
_cell_length_c                   19.2732(4)
_cell_angle_alpha                90
_cell_angle_beta                 92.4270(10)
_cell_angle_gamma                90
_cell_volume                     13277.2
loop_
_atom_site_label
_atom_site_type_symbol
_atom_site_fract_x
_atom_site_fract_y
_atom_site_fract_z
C1 C 0.6275(3) 0.00923(7) 0.3216(2)
H5 H 0.6569 0.0247 0.3135
H6 H 0.5490 0.0009 0.2278
C36 C 0.0011(3) 0.00082(7) 0.3072(2)
H30 H 0.0537 0.0069 0.2773
Co5 Co 0.75756(4) 0.00565(2) 0.46057(3)
Co1 Co 0.74244(4) 0.50565(2) 0.03943(3)
N1 N 0.6393(2) 0.99682(5) 0.38311(16)
N2 N 0.5417(2) 0.97527(5) 0.30747(16)
N7 N 0.4993(3) 0.81604(6) 0.08268(17)
N8 N 0.5981(2) 0.79237(5) 0.02006(16)
O11 O 0.8952(2) 0.55593(5) 0.01117(16)
O12 O 0.7463(2) 0.54221(4) 0.06139(13)
C2 C 0.5683(3) 0.99637(8) 0.2742(2)
C3 C 0.5876(3) 0.97652(6) 0.37244(19)
H7 H 0.5830 0.9642 0.4062
C4 C 0.4784(3) 0.95584(7) 0.27935(19)
C5 C 0.4147(3) 0.94283(7) 0.3228(2)
H8 H 0.4117 0.9470 0.3705
C6 C 0.3552(3) 0.92369(7) 0.29641(19)
H9 H 0.3122 0.9146 0.3264
C7 C 0.3575(3) 0.91758(6) 0.22671(18)
C8 C 0.4220(3) 0.93087(7) 0.1841(2)
H10 H 0.4254 0.9267 0.1364
C9 C 0.4817(3) 0.95022(7) 0.2098(2)
H11 H 0.5243 0.9595 0.1799
C10 C 0.2925(3) 0.89695(7) 0.19857(17)
C11 C 0.3552(3) 0.87721(6) 0.16655(19)
C12 C 0.4359(3) 0.86531(8) 0.2049(2)
H12 H 0.4573 0.8709 0.2500
C13 C 0.4857(3) 0.84521(8) 0.1774(2)
H13 H 0.5396 0.8367 0.2041
C14 C 0.4558(3) 0.83779(7) 0.1112(2)
C15 C 0.3812(3) 0.85042(7) 0.0711(2)
H14 H 0.3640 0.8456 0.0246
C16 C 0.3312(3) 0.87016(7) 0.09876(19)
H15 H 0.2798 0.8790 0.0710
C17 C 0.4473(4) 0.79430(8) 0.0782(3)
H16 H 0.3809 0.7901 0.0981
C18 C 0.5094(4) 0.78006(8) 0.0398(2)
H17 H 0.4937 0.7638 0.0282
C19 C 0.5889(3) 0.81417(7) 0.0464(2)
H18 H 0.6392 0.8268 0.0404
C20 C 0.1837(3) 0.89618(6) 0.20250(17)
C21 C 0.1170(3) 0.87500(6) 0.18075(18)
C22 C 0.0229(3) 0.87832(7) 0.13962(18)
H19 H 0.0003 0.8941 0.1279
C25 C 0.0858(3) 0.83218(7) 0.17550(19)
H21 H 0.1071 0.8163 0.1880
C26 C 0.1456(3) 0.85164(7) 0.19982(19)
H22 H 0.2073 0.8490 0.2300
C30 C 0.1228(3) 0.91708(6) 0.22935(17)
C31 C 0.1289(3) 0.93961(7) 0.19808(18)
H26 H 0.1697 0.9415 0.1578
C32 C 0.0765(3) 0.95920(7) 0.22485(18)
H27 H 0.0790 0.9743 0.2023
C33 C 0.0199(3) 0.95656(6) 0.28515(18)
C34 C 0.0105(3) 0.93427(7) 0.31552(19)
C35 C 0.0594(3) 0.91454(7) 0.28680(19)
H29 H 0.0496 0.8991 0.3065
H41 H 0.7303 0.7022 0.0141
H42 H 0.6907 0.6613 0.0064
C65 C 0.7353(3) 0.57921(6) 0.00106(18)
C66 C 0.6232(3) 0.58010(6) 0.00658(19)
H47 H 0.5866 0.5676 0.0293
C68 C 0.7977(3) 0.55747(6) 0.02704(19)
N9 N 0.8607(2) 0.49682(5) 0.11689(16)
N10 N 0.6269(2) 0.49878(5) 0.11491(15)
N11 N 0.8421(2) 0.79278(5) 0.03225(16)
O13 O 0.74051(19) 0.46951(4) 0.00657(13)
Co2 Co 0.72372(5) 0.78204(2) 0.96210(3)
O1 O 0.9305(2) 0.96434(5) 0.53446(14)
O2 O 0.75949(19) 0.96951(4) 0.49343(13)
O3 O 0.61244(19) 0.51407(4) 0.96652(13)
H1 H 0.5543 0.5210 0.9797
H2 H 0.5791 0.5009 0.9550
O4 O 0.6874(3) 0.84841(5) 0.55067(15)
O5 O 0.8521(2) 0.51136(5) 0.95987(13)
H3 H 0.8450 0.5275 0.9432
H4 H 0.8360 0.5004 0.9224
O6 O 0.7205(3) 0.82291(5) 0.91864(15)
O7 O 0.7611(2) 0.78990(5) 0.86357(13)
O8 O 0.7381(2) 0.74617(4) 0.97286(13)
O9 O 0.5926(2) 0.75280(4) 0.90507(13)
O10 O 0.4614(3) 0.63411(5) 0.89256(19)
C39 C 0.7424(3) 0.81261(7) 0.8642(2)
C40 C 0.7427(3) 0.82586(7) 0.79690(19)
C41 C 0.7202(3) 0.85043(7) 0.7945(2)
H33 H 0.7084 0.8590 0.8361
C42 C 0.7152(3) 0.86229(7) 0.7315(2)
H34 H 0.7008 0.8790 0.7302
C43 C 0.7309(3) 0.85012(7) 0.6703(2)
C44 C 0.7534(3) 0.82532(7) 0.6730(2)
H35 H 0.7632 0.8166 0.6313
C45 C 0.7609(3) 0.81386(7) 0.7355(2)
H36 H 0.7790 0.7973 0.7371
C46 C 0.7183(3) 0.86091(7) 0.5996(2)
C47 C 0.7453(3) 0.88656(6) 0.58640(19)
C48 C 0.8240(3) 0.89919(6) 0.62522(19)
H37 H 0.8568 0.8923 0.6659
C49 C 0.8546(3) 0.92205(7) 0.60417(19)
H38 H 0.9103 0.9304 0.6296
C50 C 0.8041(3) 0.93262(6) 0.54628(19)
C51 C 0.7236(3) 0.92012(7) 0.5086(2)
H39 H 0.6874 0.9275 0.4697
C52 C 0.6962(3) 0.89713(7) 0.5277(2)
H40 H 0.6436 0.8885 0.5006
C53 C 0.8355(3) 0.95735(6) 0.52336(18)
C54 C 0.6588(3) 0.73874(6) 0.93530(18)
C55 C 0.6418(3) 0.71210(6) 0.92750(18)
C56 C 0.6846(3) 0.69637(6) 0.97702(19)
C57 C 0.6609(3) 0.67209(6) 0.97254(19)
C58 C 0.5936(3) 0.66347(6) 0.91868(19)
C59 C 0.5535(3) 0.67919(6) 0.86784(19)
H43 H 0.5094 0.6733 0.8301
C60 C 0.5776(3) 0.70332(6) 0.87206(18)
H44 H 0.5504 0.7140 0.8370
C61 C 0.5516(3) 0.63814(7) 0.9171(2)
C62 C 0.6187(3) 0.61816(6) 0.94728(18)
C63 C 0.7300(3) 0.61730(6) 0.94177(19)
H45 H 0.7667 0.6301 0.9204
C64 C 0.7877(3) 0.59761(6) 0.96767(19)
H46 H 0.8637 0.5968 0.9624
C67 C 0.5655(3) 0.59934(6) 0.97875(19)
H48 H 0.4889 0.5997 0.9812
C37 C 0.9399(3) 0.01358(7) 0.35007(19)
H31 H 0.9428 0.0305 0.3552
N3 N 0.9721(2) 0.97719(5) 0.31562(15)
N4 N 0.8731(2) 0.99878(5) 0.38509(15)
N5 N 0.9353(2) 0.81589(5) 0.10553(15)
C23 C 0.9615(3) 0.85899(7) 0.11527(18)
H20 H 0.8976 0.8615 0.0871
C24 C 0.9949(3) 0.83605(7) 0.13282(18)
C27 C 0.9159(3) 0.79469(7) 0.1399(2)
H23 H 0.9381 0.7907 0.1862
C28 C 0.8590(3) 0.78096(7) 0.0943(2)
H24 H 0.8339 0.7652 0.1037
C29 C 0.8885(3) 0.81392(7) 0.0414(2)
H25 H 0.8889 0.8262 0.0072
H28 H 0.9705 0.9325 0.3562
C38 C 0.8949(3) 0.97694(7) 0.36322(19)
H32 H 0.8607 0.9628 0.3790
N3_2 N 0.5279(2) 0.47719(5) 0.18438(15)
N5_2 N 0.5647(2) 0.31589(5) 0.39447(15)
N6 N 0.6579(2) 0.29278(5) 0.46775(16)
N7_2 N 0.0007(3) 0.31604(6) 0.41732(17)
O10_2 O 0.0386(3) 0.13411(5) 0.60744(19)
C4_2 C 0.0216(3) 0.45584(7) 0.22065(19)
C5_2 C 0.0853(3) 0.44283(7) 0.1772(2)
H8_2 H 0.0883 0.4470 0.1295
C6_2 C 0.1448(3) 0.42369(7) 0.20359(19)
H9_2 H 0.1878 0.4146 0.1736
C7_2 C 0.1425(3) 0.41758(6) 0.27329(18)
C8_2 C 0.0780(3) 0.43087(7) 0.3159(2)
H10_2 H 0.0746 0.4267 0.3636
C9_2 C 0.0183(3) 0.45022(7) 0.2902(2)
C10_2 C 0.2075(3) 0.39695(7) 0.30143(17)
C11_2 C 0.1448(3) 0.37721(6) 0.33345(19)
C12_2 C 0.0641(3) 0.36531(8) 0.2951(2)
H12_2 H 0.0427 0.3709 0.2500
C13_2 C 0.0143(3) 0.34521(8) 0.3226(2)
C14_2 C 0.0442(3) 0.33779(7) 0.3888(2)
C15_2 C 0.1188(3) 0.35042(7) 0.4289(2)
H14_2 H 0.1360 0.3456 0.4754
C16_2 C 0.1688(3) 0.37016(7) 0.40124(19)
H15_2 H 0.2202 0.3790 0.4290
C17_2 C 0.0527(4) 0.29430(8) 0.4218(3)
H16_2 H 0.1191 0.2901 0.4019
H17_2 H 0.0063 0.2638 0.4718
C20_2 C 0.3163(3) 0.39618(6) 0.29750(17)
C21_2 C 0.3830(3) 0.37500(6) 0.31925(18)
C22_2 C 0.4771(3) 0.37832(7) 0.36038(18)
H19_2 H 0.4997 0.3941 0.3721
C23_2 C 0.5385(3) 0.35899(7) 0.38473(18)
H20_2 H 0.6024 0.3615 0.4129
C24_2 C 0.5051(3) 0.33605(7) 0.36718(18)
C25_2 C 0.4142(3) 0.33218(7) 0.32450(19)
H21_2 H 0.3929 0.3163 0.3120
C26_2 C 0.3544(3) 0.35164(7) 0.30018(19)
H22_2 H 0.2927 0.3490 0.2700
C27_2 C 0.5841(3) 0.29469(7) 0.3601(2)
H23_2 H 0.5619 0.2907 0.3138
C28_2 C 0.6410(3) 0.28096(7) 0.4057(2)
H24_2 H 0.6661 0.2652 0.3963
C29_2 C 0.6115(3) 0.31392(7) 0.4586(2)
H25_2 H 0.6111 0.3262 0.4928
C30_2 C 0.3772(3) 0.41708(6) 0.27065(17)
C31_2 C 0.3711(3) 0.43961(7) 0.30192(18)
H26_2 H 0.3303 0.4415 0.3422
C32_2 C 0.4235(3) 0.45920(7) 0.27515(18)
H27_2 H 0.4210 0.4743 0.2977
C33_2 C 0.4801(3) 0.45656(6) 0.21485(18)
C34_2 C 0.4895(3) 0.43427(7) 0.18448(19)
H28_2 H 0.5295 0.4325 0.1438
C35_2 C 0.4406(3) 0.41454(7) 0.21320(19)
H29_2 H 0.4504 0.3991 0.1935
C36_2 C 0.4989(3) 0.50082(7) 0.1928(2)
H30_2 H 0.4463 0.5069 0.2227
C37_2 C 0.5601(3) 0.51358(7) 0.14993(19)
H31_2 H 0.5572 0.5305 0.1448
C38_2 C 0.6051(3) 0.47694(7) 0.13678(19)
H32_2 H 0.6393 0.4628 0.1210
H48_2 H 0.0111 0.0997 0.5188
Co6 Co 0.77628(5) 0.28204(2) 0.53790(3)
H39_2 H 0.8126 0.4275 0.0303
N2_2 N 0.9583(2) 0.47527(5) 0.19253(16)
N8_2 N 0.9019(2) 0.29237(5) 0.47994(16)
O1_2 O 0.5695(2) 0.46434(5) 0.96554(14)
O3_2 O 0.88756(19) 0.01407(4) 0.53348(13)
H1_2 H 0.9457 0.0210 0.5203
H2_2 H 0.9209 0.0009 0.5450
O4_2 O 0.8126(3) 0.34841(5) 0.94933(15)
O5_2 O 0.6479(2) 0.01136(5) 0.54013(13)
H3_2 H 0.6550 0.0275 0.5568
H4_2 H 0.6640 0.0004 0.5776
O6_2 O 0.7795(3) 0.32291(5) 0.58136(15)
O7_2 O 0.7389(2) 0.28990(5) 0.63643(13)
O8_2 O 0.7619(2) 0.24617(4) 0.52714(13)
O9_2 O 0.9074(2) 0.25280(4) 0.59493(13)
O11_2 O 0.6048(2) 0.05593(5) 0.48883(16)
O12_2 O 0.7537(2) 0.04221(4) 0.43861(13)
C1_2 C 0.8725(3) 0.50923(7) 0.1784(2)
H5_2 H 0.8431 0.5247 0.1865
C2_2 C 0.9317(3) 0.49637(8) 0.2258(2)
H6_2 H 0.9510 0.5009 0.2722
C3_2 C 0.9124(3) 0.47652(6) 0.12756(19)
H7_2 H 0.9170 0.4642 0.0938
H11_2 H 0.9757 0.4595 0.3201
H13_2 H 0.9604 0.3367 0.2959
C18_2 C 0.9906(4) 0.28006(8) 0.4602(2)
C19_2 C 0.9111(3) 0.31417(7) 0.4536(2)
H18_2 H 0.8608 0.3268 0.4596
C39_2 C 0.7576(3) 0.31261(7) 0.6358(2)
C40_2 C 0.7573(3) 0.32586(7) 0.70310(19)
C41_2 C 0.7798(3) 0.35043(7) 0.7055(2)
H33_2 H 0.7916 0.3590 0.6639
C42_2 C 0.7848(3) 0.36229(7) 0.7685(2)
H34_2 H 0.7992 0.3790 0.7698
C43_2 C 0.7691(3) 0.35012(7) 0.8297(2)
C44_2 C 0.7466(3) 0.32532(7) 0.8270(2)
H35_2 H 0.7368 0.3166 0.8687
C45_2 C 0.7391(3) 0.31386(7) 0.7645(2)
H36_2 H 0.7210 0.2973 0.7629
C46_2 C 0.7817(3) 0.36091(7) 0.9004(2)
C47_2 C 0.7547(3) 0.38656(6) 0.91360(19)
C48_2 C 0.6760(3) 0.39919(6) 0.87478(19)
H37_2 H 0.6432 0.3923 0.8341
C49_2 C 0.6454(3) 0.42205(7) 0.89583(19)
H38_2 H 0.5897 0.4304 0.8704
C50_2 C 0.6959(3) 0.43262(6) 0.95372(19)
C51_2 C 0.7764(3) 0.42012(7) 0.9914(2)
C52_2 C 0.8038(3) 0.39713(7) 0.9723(2)
H40_2 H 0.8564 0.3885 0.9994
C53_2 C 0.6645(3) 0.45735(6) 0.97664(18)
C54_2 C 0.8412(3) 0.23874(6) 0.56470(18)
C55_2 C 0.8582(3) 0.21210(6) 0.57250(18)
C56_2 C 0.8154(3) 0.19637(6) 0.52298(19)
H41_2 H 0.7697 0.2022 0.4859
C57_2 C 0.8391(3) 0.17209(6) 0.52746(19)
H42_2 H 0.8093 0.1613 0.4936
C58_2 C 0.9064(3) 0.16347(6) 0.58132(19)
C59_2 C 0.9465(3) 0.17919(6) 0.63216(19)
H43_2 H 0.9906 0.1733 0.6699
C60_2 C 0.9224(3) 0.20332(6) 0.62794(18)
H44_2 H 0.9496 0.2140 0.6630
C61_2 C 0.9484(3) 0.13814(7) 0.5829(2)
C62_2 C 0.8813(3) 0.11816(6) 0.55272(18)
C63_2 C 0.7700(3) 0.11730(6) 0.55823(19)
H45_2 H 0.7333 0.1301 0.5796
C64_2 C 0.7123(3) 0.09761(6) 0.53233(19)
H46_2 H 0.6363 0.0968 0.5376
C65_2 C 0.7647(3) 0.07921(6) 0.49894(18)
C66_2 C 0.8768(3) 0.08010(6) 0.49342(19)
H47_2 H 0.9134 0.0676 0.4707
C67_2 C 0.9345(3) 0.09934(6) 0.52125(19)
C68_2 C 0.7023(3) 0.05747(6) 0.47296(19)
Co6_2 Co 0.27628(5) 0.21796(2) 0.03790(3)
N3_3 N 0.0279(2) 0.02281(5) 0.68438(15)
N4_2 N 0.1269(2) 0.00122(5) 0.61491(15)
N5_3 N 0.0647(2) 0.18411(5) 0.89447(15)
N6_2 N 0.1579(2) 0.20722(5) 0.96775(16)
C23_3 C 0.0385(3) 0.14101(7) 0.88473(18)
H20_3 H 0.1024 0.1385 0.9129
C24_3 C 0.0051(3) 0.16395(7) 0.86718(18)
C27_3 C 0.0841(3) 0.20531(7) 0.8601(2)
H23_3 H 0.0619 0.2093 0.8138
C28_3 C 0.1410(3) 0.21904(7) 0.9057(2)
H24_3 H 0.1661 0.2348 0.8963
C29_3 C 0.1115(3) 0.18608(7) 0.9586(2)
H25_3 H 0.1111 0.1738 0.9928
H28_3 H 0.0295 0.0675 0.6438
C38_3 C 0.1051(3) 0.02306(7) 0.63678(19)
H32_3 H 0.1393 0.0372 0.6210
C37_3 C 0.0601(3) 0.98642(7) 0.64993(19)
H31_3 H 0.0572 0.9695 0.6448
Co3 Co 0.24244(4) 0.99435(2) 0.53943(3)
O1_3 O 0.0695(2) 0.03566(5) 0.46554(14)
O2_2 O 0.24051(19) 0.03049(4) 0.50657(13)
O3_3 O 0.38756(19) 0.48593(4) 0.03348(13)
H1_3 H 0.4457 0.4790 0.0203
H2_3 H 0.4209 0.4991 0.0450
O4_3 O 0.3126(3) 0.15159(5) 0.44933(15)
O5_3 O 0.1479(2) 0.48864(5) 0.04013(13)
H3_3 H 0.1550 0.4725 0.0568
H4_3 H 0.1640 0.4996 0.0776
O6_3 O 0.2795(3) 0.17709(5) 0.08136(15)
O7_3 O 0.2389(2) 0.21010(5) 0.13643(13)
O8_3 O 0.2619(2) 0.25383(4) 0.02714(13)
O9_3 O 0.4074(2) 0.24720(4) 0.09493(13)
O10_3 O 0.5386(3) 0.36589(5) 0.10744(19)
C39_3 C 0.2576(3) 0.18739(7) 0.1358(2)
C40_3 C 0.2573(3) 0.17414(7) 0.20310(19)
C41_3 C 0.2798(3) 0.14957(7) 0.2055(2)
H33_3 H 0.2916 0.1410 0.1639
C42_3 C 0.2848(3) 0.13771(7) 0.2685(2)
H34_3 H 0.2992 0.1210 0.2698
C43_3 C 0.2691(3) 0.14988(7) 0.3297(2)
C44_3 C 0.2466(3) 0.17468(7) 0.3270(2)
H35_3 H 0.2368 0.1834 0.3687
C45_3 C 0.2391(3) 0.18614(7) 0.2645(2)
H36_3 H 0.2210 0.2027 0.2629
C46_3 C 0.2817(3) 0.13909(7) 0.4004(2)
C47_3 C 0.2547(3) 0.11344(6) 0.41360(19)
C48_3 C 0.1760(3) 0.10081(6) 0.37478(19)
H37_3 H 0.1432 0.1077 0.3341
C49_3 C 0.1454(3) 0.07795(7) 0.39583(19)
H38_3 H 0.0897 0.0696 0.3704
C50_3 C 0.1959(3) 0.06738(6) 0.45372(19)
C51_3 C 0.2764(3) 0.07988(7) 0.4914(2)
H39_3 H 0.3126 0.0725 0.5303
C52_3 C 0.3038(3) 0.10287(7) 0.4723(2)
H40_3 H 0.3564 0.1115 0.4994
C53_3 C 0.1645(3) 0.04265(6) 0.47664(18)
C54_3 C 0.3412(3) 0.26126(6) 0.06470(18)
C55_3 C 0.3582(3) 0.28790(6) 0.07250(18)
C56_3 C 0.3154(3) 0.30363(6) 0.02298(19)
C57_3 C 0.3391(3) 0.32791(6) 0.02746(19)
C58_3 C 0.4064(3) 0.33653(6) 0.08132(19)
C59_3 C 0.4465(3) 0.32081(6) 0.13216(19)
H43_3 H 0.4906 0.3267 0.1699
C60_3 C 0.4224(3) 0.29668(6) 0.12794(18)
H44_3 H 0.4496 0.2860 0.1630
C61_3 C 0.4484(3) 0.36186(7) 0.0829(2)
C62_3 C 0.3813(3) 0.38184(6) 0.05272(18)
C63_3 C 0.2700(3) 0.38270(6) 0.05823(19)
H45_3 H 0.2333 0.3699 0.0796
C64_3 C 0.2123(3) 0.40239(6) 0.03233(19)
H46_3 H 0.1363 0.4032 0.0376
C67_3 C 0.4345(3) 0.40066(6) 0.02125(19)
H48_3 H 0.5111 0.4003 0.0188
Co1_2 Co 0.25756(4) 0.49435(2) 0.96057(3)
N1_2 N 0.3607(2) 0.00318(5) 0.61689(16)
N2_3 N 0.4583(2) 0.02473(5) 0.69253(16)
N7_3 N 0.5007(3) 0.18396(6) 0.91732(17)
N8_3 N 0.4019(2) 0.20763(5) 0.97994(16)
O11_3 O 0.1048(2) 0.44407(5) 0.98883(16)
O12_3 O 0.2537(2) 0.45779(4) 0.93861(13)
C2_3 C 0.4317(3) 0.00363(8) 0.7258(2)
C3_3 C 0.4124(3) 0.02348(6) 0.62756(19)
H7_3 H 0.4170 0.0358 0.5938
C4_3 C 0.5216(3) 0.04416(7) 0.72065(19)
C5_3 C 0.5853(3) 0.05717(7) 0.6772(2)
H8_3 H 0.5883 0.0530 0.6295
C6_3 C 0.6448(3) 0.07631(7) 0.70359(19)
H9_3 H 0.6878 0.0854 0.6736
C7_3 C 0.6425(3) 0.08242(6) 0.77329(18)
C8_3 C 0.5780(3) 0.06913(7) 0.8159(2)
H10_3 H 0.5746 0.0733 0.8636
C9_3 C 0.5183(3) 0.04978(7) 0.7902(2)
H11_3 H 0.4757 0.0405 0.8201
C10_3 C 0.7075(3) 0.10305(7) 0.80143(17)
C11_3 C 0.6448(3) 0.12279(6) 0.83345(19)
C12_3 C 0.5641(3) 0.13469(8) 0.7951(2)
H12_3 H 0.5427 0.1291 0.7500
C13_3 C 0.5143(3) 0.15479(8) 0.8226(2)
H13_3 H 0.4604 0.1633 0.7959
C14_3 C 0.5442(3) 0.16221(7) 0.8888(2)
C15_3 C 0.6188(3) 0.14958(7) 0.9289(2)
H14_3 H 0.6360 0.1544 0.9754
C16_3 C 0.6688(3) 0.12984(7) 0.90124(19)
H15_3 H 0.7202 0.1210 0.9290
C17_3 C 0.5527(4) 0.20570(8) 0.9218(3)
H16_3 H 0.6191 0.2099 0.9019
C18_3 C 0.4906(4) 0.21994(8) 0.9602(2)
H17_3 H 0.5063 0.2362 0.9718
C19_3 C 0.4111(3) 0.18583(7) 0.9536(2)
H18_3 H 0.3608 0.1732 0.9596
C20_3 C 0.8163(3) 0.10382(6) 0.79750(17)
C21_3 C 0.8830(3) 0.12500(6) 0.81925(18)
C22_3 C 0.9771(3) 0.12168(7) 0.86038(18)
H19_3 H 0.9997 0.1059 0.8721
C25_3 C 0.9142(3) 0.16782(7) 0.82450(19)
H21_3 H 0.8929 0.1837 0.8120
C26_3 C 0.8544(3) 0.14836(7) 0.80018(19)
H22_3 H 0.7927 0.1510 0.7700
C30_3 C 0.8772(3) 0.08292(6) 0.77065(17)
C31_3 C 0.8711(3) 0.06039(7) 0.80192(18)
H26_3 H 0.8303 0.0585 0.8422
C32_3 C 0.9235(3) 0.04080(7) 0.77515(18)
H27_3 H 0.9210 0.0257 0.7977
C33_3 C 0.9801(3) 0.04344(6) 0.71485(18)
C34_3 C 0.9895(3) 0.06573(7) 0.68448(19)
C35_3 C 0.9406(3) 0.08546(7) 0.71320(19)
H29_3 H 0.9504 0.1009 0.6935
H41_3 H 0.2697 0.2978 0.9859
H42_3 H 0.3093 0.3387 0.9936
C65_3 C 0.2647(3) 0.42079(6) 0.99894(18)
C66_3 C 0.3768(3) 0.41990(6) 0.99342(19)
H47_3 H 0.4134 0.4324 0.9707
C68_3 C 0.2023(3) 0.44253(6) 0.97296(19)
N9_2 N 0.1393(2) 0.50318(5) 0.88311(16)
N10_2 N 0.3731(2) 0.50122(5) 0.88509(15)
O13_2 O 0.25949(19) 0.53049(4) 0.99343(13)
C1_3 C 0.3725(3) 0.99077(7) 0.6784(2)
H5_3 H 0.3431 0.9753 0.6865
H6_3 H 0.4510 0.9991 0.7722
C36_3 C 0.9989(3) 0.99918(7) 0.6928(2)
H30_3 H 0.9463 0.9931 0.7227
Co2_2 Co 0.22372(5) 0.71796(2) 0.46210(3)
N2_4 N 0.0417(2) 0.52473(5) 0.80747(16)
N8_4 N 0.0981(2) 0.70763(5) 0.52006(16)
O1_4 O 0.4305(2) 0.53566(5) 0.03446(14)
O3_4 O 0.11244(19) 0.98593(4) 0.46652(13)
H1_4 H 0.0543 0.9790 0.4797
H2_4 H 0.0791 0.9991 0.4550
O4_4 O 0.1874(3) 0.65159(5) 0.05067(15)
O5_4 O 0.3521(2) 0.98864(5) 0.45987(13)
H3_4 H 0.3450 0.9725 0.4432
H4_4 H 0.3360 0.9996 0.4224
O6_4 O 0.2205(3) 0.67709(5) 0.41864(15)
O7_4 O 0.2611(2) 0.71010(5) 0.36357(13)
O8_4 O 0.2381(2) 0.75383(4) 0.47286(13)
O9_4 O 0.0926(2) 0.74720(4) 0.40507(13)
O11_4 O 0.3952(2) 0.94407(5) 0.51117(16)
O12_4 O 0.2463(2) 0.95779(4) 0.56139(13)
C1_4 C 0.1275(3) 0.49077(7) 0.8216(2)
H5_4 H 0.1569 0.4753 0.8135
C2_4 C 0.0683(3) 0.50363(8) 0.7742(2)
H6_4 H 0.0490 0.4991 0.7278
C3_4 C 0.0876(3) 0.52348(6) 0.87244(19)
H7_4 H 0.0830 0.5358 0.9062
H11_4 H 0.0243 0.5405 0.6799
H13_4 H 0.0396 0.6633 0.7041
C18_4 C 0.0094(4) 0.71994(8) 0.5398(2)
C19_4 C 0.0889(3) 0.68583(7) 0.5464(2)
H18_4 H 0.1392 0.6732 0.5404
C39_4 C 0.2424(3) 0.68739(7) 0.3642(2)
C40_4 C 0.2427(3) 0.67414(7) 0.29690(19)
C41_4 C 0.2202(3) 0.64957(7) 0.2945(2)
H33_4 H 0.2084 0.6410 0.3361
C42_4 C 0.2152(3) 0.63771(7) 0.2315(2)
H34_4 H 0.2008 0.6210 0.2302
C43_4 C 0.2309(3) 0.64988(7) 0.1703(2)
C44_4 C 0.2534(3) 0.67468(7) 0.1730(2)
H35_4 H 0.2632 0.6834 0.1313
C45_4 C 0.2609(3) 0.68614(7) 0.2355(2)
H36_4 H 0.2790 0.7027 0.2371
C46_4 C 0.2183(3) 0.63909(7) 0.0996(2)
C47_4 C 0.2453(3) 0.61344(6) 0.08640(19)
C48_4 C 0.3240(3) 0.60081(6) 0.12522(19)
H37_4 H 0.3568 0.6077 0.1659
C49_4 C 0.3546(3) 0.57795(7) 0.10417(19)
H38_4 H 0.4103 0.5696 0.1296
C50_4 C 0.3041(3) 0.56738(6) 0.04628(19)
C51_4 C 0.2236(3) 0.57988(7) 0.0086(2)
C52_4 C 0.1962(3) 0.60287(7) 0.0277(2)
H40_4 H 0.1436 0.6115 0.0006
C53_4 C 0.3355(3) 0.54265(6) 0.02336(18)
C54_4 C 0.1588(3) 0.76126(6) 0.43530(18)
C55_4 C 0.1418(3) 0.78790(6) 0.42750(18)
C56_4 C 0.1846(3) 0.80363(6) 0.47702(19)
H41_4 H 0.2303 0.7978 0.5141
C57_4 C 0.1609(3) 0.82791(6) 0.47254(19)
H42_4 H 0.1907 0.8387 0.5064
C58_4 C 0.0936(3) 0.83653(6) 0.41868(19)
C59_4 C 0.0535(3) 0.82081(6) 0.36784(19)
H43_4 H 0.0094 0.8267 0.3301
C60_4 C 0.0776(3) 0.79668(6) 0.37206(18)
H44_4 H 0.0504 0.7860 0.3370
C61_4 C 0.0516(3) 0.86186(7) 0.4171(2)
C62_4 C 0.1187(3) 0.88184(6) 0.44728(18)
C63_4 C 0.2300(3) 0.88270(6) 0.44177(19)
H45_4 H 0.2667 0.8699 0.4204
C64_4 C 0.2877(3) 0.90239(6) 0.46767(19)
H46_4 H 0.3637 0.9032 0.4624
C65_4 C 0.2353(3) 0.92079(6) 0.50106(18)
C66_4 C 0.1232(3) 0.91990(6) 0.50658(19)
H47_4 H 0.0866 0.9324 0.5293
C67_4 C 0.0655(3) 0.90066(6) 0.47875(19)
C68_4 C 0.2977(3) 0.94253(6) 0.52704(19)
N11_2 N 0.3421(2) 0.70722(5) 0.53225(16)
H39_4 H 0.1874 0.5725 0.9697
N3_4 N 0.4721(2) 0.52281(5) 0.81562(15)
N5_4 N 0.4353(2) 0.68411(5) 0.60553(15)
N7_4 N 0.9993(3) 0.68396(6) 0.58268(17)
O10_4 O 0.9614(3) 0.86589(5) 0.39256(19)
C4_4 C 0.9784(3) 0.54416(7) 0.77935(19)
C5_4 C 0.9147(3) 0.55717(7) 0.8228(2)
H8_4 H 0.9117 0.5530 0.8705
C6_4 C 0.8552(3) 0.57631(7) 0.79641(19)
H9_4 H 0.8122 0.5854 0.8264
C7_4 C 0.8575(3) 0.58242(6) 0.72671(18)
C8_4 C 0.9220(3) 0.56913(7) 0.6841(2)
H10_4 H 0.9254 0.5733 0.6364
C9_4 C 0.9817(3) 0.54978(7) 0.7098(2)
C10_4 C 0.7925(3) 0.60305(7) 0.69857(17)
C11_4 C 0.8552(3) 0.62279(6) 0.66655(19)
C12_4 C 0.9359(3) 0.63469(8) 0.7049(2)
H12_4 H 0.9573 0.6291 0.7500
C13_4 C 0.9857(3) 0.65479(8) 0.6774(2)
C14_4 C 0.9558(3) 0.66221(7) 0.6112(2)
C15_4 C 0.8812(3) 0.64958(7) 0.5711(2)
H14_4 H 0.8640 0.6544 0.5246
C16_4 C 0.8312(3) 0.62984(7) 0.59876(19)
H15_4 H 0.7798 0.6210 0.5710
C17_4 C 0.9473(4) 0.70570(8) 0.5782(3)
H16_4 H 0.8809 0.7099 0.5981
H17_4 H 0.9937 0.7362 0.5282
C20_4 C 0.6837(3) 0.60382(6) 0.70250(17)
C21_4 C 0.6170(3) 0.62500(6) 0.68075(18)
C22_4 C 0.5229(3) 0.62168(7) 0.63962(18)
H19_4 H 0.5003 0.6059 0.6279
C23_4 C 0.4615(3) 0.64101(7) 0.61527(18)
H20_4 H 0.3976 0.6385 0.5871
C24_4 C 0.4949(3) 0.66395(7) 0.63282(18)
C25_4 C 0.5858(3) 0.66782(7) 0.67550(19)
H21_4 H 0.6071 0.6837 0.6880
C26_4 C 0.6456(3) 0.64836(7) 0.69982(19)
H22_4 H 0.7073 0.6510 0.7300
C27_4 C 0.4159(3) 0.70531(7) 0.6399(2)
H23_4 H 0.4381 0.7093 0.6862
C28_4 C 0.3590(3) 0.71904(7) 0.5943(2)
H24_4 H 0.3339 0.7348 0.6037
C29_4 C 0.3885(3) 0.68608(7) 0.5414(2)
H25_4 H 0.3889 0.6738 0.5072
C30_4 C 0.6228(3) 0.58292(6) 0.72935(17)
C31_4 C 0.6289(3) 0.56039(7) 0.69808(18)
H26_4 H 0.6697 0.5585 0.6578
C32_4 C 0.5765(3) 0.54080(7) 0.72485(18)
H27_4 H 0.5790 0.5257 0.7023
C33_4 C 0.5199(3) 0.54344(6) 0.78515(18)
C34_4 C 0.5105(3) 0.56573(7) 0.81552(19)
H28_4 H 0.4705 0.5675 0.8562
C35_4 C 0.5594(3) 0.58546(7) 0.78680(19)
H29_4 H 0.5496 0.6009 0.8065
C36_4 C 0.5011(3) 0.49918(7) 0.8072(2)
H30_4 H 0.5537 0.4931 0.7773
C37_4 C 0.4399(3) 0.48642(7) 0.85007(19)
H31_4 H 0.4428 0.4695 0.8552
C38_4 C 0.3949(3) 0.52306(7) 0.86322(19)
H32_4 H 0.3607 0.5372 0.8790
H48_4 H 0.9889 0.9003 0.4812
H80 H 0.5817 0.3105 0.0102
Co10 Co 0.75392(5) 0.26570(2) 0.06198(3)
Co8 Co 0.72395(6) 0.49170(2) 0.56718(3)
N12 N 0.6476(2) 0.27920(5) 0.98156(15)
N13 N 0.5457(2) 0.30124(5) 0.90946(15)
N14 N 0.4702(2) 0.45803(5) 0.66557(16)
N15 N 0.5817(3) 0.48032(5) 0.60701(16)
O14 O 0.9056(6) 0.49945(13) 0.5370(4)
H49 H 0.9057 0.5120 0.5028
H50 H 0.9356 0.4851 0.5180
O15 O 0.6308(2) 0.25605(4) 0.12938(13)
H51 H 0.6342 0.2674 0.1598
H52 H 0.5683 0.2541 0.1092
O16 O 0.723(3) 0.4470(3) 0.5284(5)
O17 O 0.7252(3) 0.48184(5) 0.46712(16)
O18 O 0.8197(3) 0.42057(5) 0.16290(15)
O19 O 0.7773(2) 0.29771(4) 0.11358(13)
O20 O 0.6663(2) 0.29571(5) 0.20194(13)
O21 O 0.8265(3) 0.53916(6) 0.5116(2)
O22 O 0.6761(3) 0.52573(5) 0.55515(14)
O23 O 0.4113(2) 0.62413(5) 0.40451(16)
O24 O 0.6358(2) 0.73817(4) 0.37981(13)
O25 O 0.7396(2) 0.72985(4) 0.47259(13)
C70 C 0.0152(4) 0.27435(8) 0.9256(3)
H54 H 0.0691 0.2690 0.8955
C72 C 0.0286(3) 0.31827(7) 0.9048(2)
C73 C 0.0192(3) 0.32069(7) 0.8337(2)
C74 C 0.0637(3) 0.34061(7) 0.8028(2)
H57 H 0.0549 0.3428 0.7540
C75 C 0.1209(3) 0.35737(6) 0.84240(19)
C76 C 0.1267(3) 0.35490(7) 0.9138(2)
H58 H 0.1632 0.3667 0.9415
C77 C 0.0800(3) 0.33545(7) 0.9455(2)
H59 H 0.0834 0.3340 0.9947
C78 C 0.1749(3) 0.37808(7) 0.80882(19)
C79 C 0.0975(3) 0.39705(7) 0.7827(2)
C80 C 0.0970(3) 0.40541(7) 0.7156(2)
H60 H 0.1417 0.3979 0.6830
C81 C 0.0315(3) 0.42487(8) 0.6946(2)
H61 H 0.0327 0.4310 0.6486
C84 C 0.0261(3) 0.40717(7) 0.8280(2)
H63 H 0.0228 0.4009 0.8737
C88 C 0.2833(3) 0.37924(6) 0.80580(18)
C89 C 0.3402(3) 0.40026(6) 0.77690(18)
C90 C 0.4294(3) 0.39710(6) 0.73640(18)
H67 H 0.4599 0.3815 0.7326
C91 C 0.4752(3) 0.41603(6) 0.70129(19)
H68 H 0.5367 0.4135 0.6743
C92 C 0.4304(3) 0.43861(7) 0.7061(2)
C93 C 0.3461(3) 0.44279(7) 0.7499(2)
H69 H 0.3178 0.4585 0.7548
C94 C 0.3037(3) 0.42397(7) 0.7863(2)
H70 H 0.2490 0.4270 0.8182
C95 C 0.4103(3) 0.47670(7) 0.6365(2)
H71 H 0.3350 0.4795 0.6406
C96 C 0.4798(3) 0.49002(7) 0.6013(2)
H72 H 0.4611 0.5042 0.5761
C97 C 0.5725(3) 0.46089(7) 0.64590(19)
H73 H 0.6305 0.4504 0.6583
C98 C 0.3537(3) 0.35886(6) 0.83061(17)
C99 C 0.4397(3) 0.36279(6) 0.87853(18)
H74 H 0.4548 0.3787 0.8938
C100 C 0.5037(3) 0.34413(6) 0.90442(18)
H75 H 0.5614 0.3472 0.9373
C101 C 0.4824(3) 0.32088(6) 0.88177(18)
C102 C 0.4002(3) 0.31657(7) 0.83266(19)
H76 H 0.3868 0.3007 0.8165
C103 C 0.3371(3) 0.33545(7) 0.80675(19)
H77 H 0.2817 0.3324 0.7722
C104 C 0.5769(3) 0.28122(6) 0.8727(2)
H78 H 0.5578 0.2775 0.8256
C105 C 0.6396(3) 0.26805(7) 0.91679(19)
H79 H 0.6734 0.2533 0.9055
C106 C 0.5904(3) 0.29910(7) 0.97424(18)
C107 C 0.7304(3) 0.30673(7) 0.16471(18)
C108 C 0.7532(3) 0.33285(6) 0.18018(18)
C109 C 0.8250(3) 0.34594(7) 0.1414(2)
H81 H 0.8640 0.3382 0.1063
C110 C 0.8400(3) 0.37025(7) 0.15381(19)
H82 H 0.8893 0.3791 0.1272
C111 C 0.7833(3) 0.38182(7) 0.20485(18)
C112 C 0.7125(3) 0.36850(7) 0.2441(2)
H83 H 0.6737 0.3761 0.2795
C113 C 0.6988(3) 0.34440(7) 0.23191(19)
H84 H 0.6510 0.3355 0.2594
C114 C 0.7947(3) 0.40864(7) 0.2126(2)
C115 C 0.7761(3) 0.42046(7) 0.28049(19)
C116 C 0.7447(3) 0.44463(7) 0.2790(2)
H85 H 0.7332 0.4526 0.2357
C117 C 0.7305(3) 0.45692(7) 0.3398(2)
H86 H 0.7075 0.4732 0.3379
C118 C 0.7491(3) 0.44599(7) 0.4035(2)
C119 C 0.7804(3) 0.42204(7) 0.4049(2)
H87 H 0.7930 0.4142 0.4483
C120 C 0.7934(3) 0.40947(7) 0.3441(2)
H88 H 0.8146 0.3931 0.3461
C121 C 0.7390(3) 0.45943(7) 0.4698(2)
C122 C 0.7309(3) 0.54128(7) 0.5243(2)
C123 C 0.6717(3) 0.56392(6) 0.50170(18)
C124 C 0.7283(3) 0.58262(7) 0.4721(2)
H89 H 0.8039 0.5811 0.4664
C125 C 0.6757(3) 0.60349(6) 0.45080(19)
H90 H 0.7157 0.6163 0.4317
C126 C 0.5646(3) 0.60575(6) 0.45726(18)
C127 C 0.5074(3) 0.58680(6) 0.48648(19)
H91 H 0.4314 0.5881 0.4909
C128 C 0.5603(3) 0.56626(6) 0.50892(18)
H92 H 0.5208 0.5537 0.5293
C129 C 0.5041(3) 0.62674(6) 0.42829(19)
C130 C 0.5551(3) 0.65095(6) 0.42622(19)
C131 C 0.6228(3) 0.65928(6) 0.48038(19)
H93 H 0.6440 0.6489 0.5175
C132 C 0.6593(3) 0.68288(6) 0.48015(19)
H94 H 0.7033 0.6887 0.5181
C133 C 0.6317(3) 0.69794(6) 0.42473(18)
C134 C 0.5669(3) 0.68935(7) 0.3697(2)
H95 H 0.5496 0.6994 0.3310
C135 C 0.5272(3) 0.66613(6) 0.37090(19)
H96 H 0.4808 0.6605 0.3339
C136 C 0.6714(3) 0.72358(6) 0.42530(19)
Co11 Co 0.74608(5) 0.76570(2) 0.43802(3)
N21 N 0.8148(3) 0.48206(6) 0.6537(2)
N22 N 0.8847(2) 0.27469(5) 0.00191(16)
O26 O 0.8642(2) 0.23817(4) 0.12019(13)
O27 O 0.7604(2) 0.22985(4) 0.02741(13)
H55 H 0.8719 0.3106 0.0008
N16 N 0.8997(3) 0.45569(6) 0.7219(2)
N18 N 0.9852(3) 0.29742(5) 0.93677(17)
C69 C 0.9532(4) 0.26055(8) 0.9656(3)
H53 H 0.9566 0.2436 0.9682
C71 C 0.9068(3) 0.29677(7) 0.98347(19)
H56 H 0.9826 0.3088 0.8062
C82 C 0.9646(3) 0.43494(7) 0.7431(2)
C83 C 0.9594(3) 0.42616(8) 0.8084(2)
H62 H 0.9111 0.4329 0.8402
C85 C 0.8523(4) 0.47199(8) 0.7655(3)
H64 H 0.8553 0.4719 0.8148
C86 C 0.8008(3) 0.48807(8) 0.7231(3)
H65 H 0.7609 0.5015 0.7383
C87 C 0.8739(3) 0.46255(7) 0.6563(2)
H66 H 0.8960 0.4542 0.6164
N14_2 N 0.0298(2) 0.95803(5) 0.83443(16)
N16_2 N 0.6003(3) 0.95569(6) 0.7781(2)
N17 N 0.6852(3) 0.98206(6) 0.8463(2)
N18_2 N 0.5148(3) 0.79742(5) 0.56323(17)
N19 N 0.6153(2) 0.77469(5) 0.49809(16)
C69_2 C 0.5468(4) 0.76055(8) 0.5344(3)
H53_2 H 0.5434 0.7436 0.5318
C70_2 C 0.4848(4) 0.77435(8) 0.5744(3)
H54_2 H 0.4309 0.7690 0.6045
C71_2 C 0.5932(3) 0.79677(7) 0.51653(19)
H55_2 H 0.6281 0.8106 0.4992
C72_2 C 0.4714(3) 0.81827(7) 0.5952(2)
C73_2 C 0.4808(3) 0.82069(7) 0.6663(2)
H56_2 H 0.5174 0.8088 0.6938
C74_2 C 0.4363(3) 0.84061(7) 0.6972(2)
H57_2 H 0.4451 0.8428 0.7460
C75_2 C 0.3791(3) 0.85737(6) 0.65760(19)
C76_2 C 0.3733(3) 0.85490(7) 0.5862(2)
H58_2 H 0.3368 0.8667 0.5585
C77_2 C 0.4200(3) 0.83545(7) 0.5545(2)
H59_2 H 0.4166 0.8340 0.5053
C78_2 C 0.3251(3) 0.87808(7) 0.69118(19)
C79_2 C 0.4025(3) 0.89705(7) 0.7173(2)
C80_2 C 0.4030(3) 0.90541(7) 0.7844(2)
H60_2 H 0.3583 0.8979 0.8170
C81_2 C 0.4685(3) 0.92487(8) 0.8054(2)
H61_2 H 0.4673 0.9310 0.8514
C82_2 C 0.5354(3) 0.93494(7) 0.7569(2)
C83_2 C 0.5406(3) 0.92616(8) 0.6916(2)
H62_2 H 0.5889 0.9329 0.6598
C84_2 C 0.4739(3) 0.90717(7) 0.6720(2)
H63_2 H 0.4772 0.9009 0.6263
C85_2 C 0.6477(4) 0.97199(8) 0.7345(3)
H64_2 H 0.6447 0.9719 0.6852
C86_2 C 0.6992(3) 0.98807(8) 0.7769(3)
C87_2 C 0.6261(3) 0.96255(7) 0.8437(2)
H66_2 H 0.6040 0.9542 0.8836
C88_2 C 0.2167(3) 0.87924(6) 0.69420(18)
C89_2 C 0.1598(3) 0.90026(6) 0.72310(18)
C90_2 C 0.0706(3) 0.89710(6) 0.76360(18)
H67_2 H 0.0401 0.8815 0.7674
C91_2 C 0.0248(3) 0.91603(6) 0.79871(19)
C92_2 C 0.0696(3) 0.93861(7) 0.7939(2)
C93_2 C 0.1539(3) 0.94279(7) 0.7501(2)
H69_2 H 0.1822 0.9585 0.7452
C94_2 C 0.1963(3) 0.92397(7) 0.7137(2)
H70_2 H 0.2510 0.9270 0.6818
C95_2 C 0.0897(3) 0.97670(7) 0.8635(2)
H71_2 H 0.1650 0.9795 0.8594
C96_2 C 0.0202(3) 0.99002(7) 0.8987(2)
C98_2 C 0.1463(3) 0.85886(6) 0.66939(17)
C99_2 C 0.0603(3) 0.86279(6) 0.62147(18)
H74_2 H 0.0452 0.8787 0.6062
C101_2 C 0.0176(3) 0.82088(6) 0.61823(18)
C102_2 C 0.0998(3) 0.81657(7) 0.66734(19)
H76_2 H 0.1132 0.8007 0.6835
C103_2 C 0.1629(3) 0.83545(7) 0.69325(19)
H77_2 H 0.2183 0.8324 0.7278
Co12 Co 0.77605(6) 0.99170(2) 0.93282(3)
C124_2 C 0.7717(3) 0.08262(7) 0.0279(2)
H89_2 H 0.6961 0.0811 0.0336
C125_2 C 0.8243(3) 0.10349(6) 0.04920(19)
H90_2 H 0.7843 0.1163 0.0683
C126_2 C 0.9354(3) 0.10575(6) 0.04274(18)
C127_2 C 0.9926(3) 0.08680(6) 0.01352(19)
C129_2 C 0.9959(3) 0.12674(6) 0.07171(19)
C130_2 C 0.9449(3) 0.15095(6) 0.07378(19)
C131_2 C 0.8772(3) 0.15928(6) 0.01962(19)
C132_2 C 0.8407(3) 0.18288(6) 0.01985(19)
C133_2 C 0.8683(3) 0.19794(6) 0.07527(18)
C134_2 C 0.9331(3) 0.18935(7) 0.1303(2)
H95_2 H 0.9504 0.1994 0.1690
C135_2 C 0.9728(3) 0.16613(6) 0.12910(19)
C136_2 C 0.8286(3) 0.22358(6) 0.07470(19)
O15_2 O 0.8692(2) 0.75605(4) 0.37062(13)
H51_2 H 0.8658 0.7674 0.3402
H52_2 H 0.9317 0.7541 0.3908
O17_2 O 0.7748(3) 0.98184(5) 0.03288(16)
O18_2 O 0.6803(3) 0.92057(5) 0.33710(15)
O19_2 O 0.7227(2) 0.79771(4) 0.38642(13)
O20_2 O 0.8337(2) 0.79571(5) 0.29806(13)
C107_2 C 0.7696(3) 0.80673(7) 0.33529(18)
C108_2 C 0.7468(3) 0.83285(6) 0.31982(18)
C109_2 C 0.6750(3) 0.84594(7) 0.3586(2)
H81_2 H 0.6360 0.8382 0.3937
C110_2 C 0.6600(3) 0.87025(7) 0.34619(19)
H82_2 H 0.6107 0.8791 0.3728
C111_2 C 0.7167(3) 0.88182(7) 0.29515(18)
C112_2 C 0.7875(3) 0.86850(7) 0.2559(2)
H83_2 H 0.8263 0.8761 0.2205
C113_2 C 0.8012(3) 0.84440(7) 0.26809(19)
H84_2 H 0.8490 0.8355 0.2406
C114_2 C 0.7053(3) 0.90864(7) 0.2874(2)
C115_2 C 0.7239(3) 0.92046(7) 0.21951(19)
C116_2 C 0.7553(3) 0.94463(7) 0.2210(2)
H85_2 H 0.7668 0.9526 0.2643
C117_2 C 0.7695(3) 0.95692(7) 0.1602(2)
H86_2 H 0.7925 0.9732 0.1621
C118_2 C 0.7509(3) 0.94599(7) 0.0965(2)
C119_2 C 0.7196(3) 0.92204(7) 0.0951(2)
H87_2 H 0.7070 0.9142 0.0517
C120_2 C 0.7066(3) 0.90947(7) 0.1559(2)
H88_2 H 0.6854 0.8931 0.1539
C121_2 C 0.7610(3) 0.95943(7) 0.0302(2)
N20 N 0.8524(2) 0.77920(5) 0.51844(15)
N13_2 N 0.9543(2) 0.80124(5) 0.59054(15)
N15_2 N 0.9183(3) 0.98032(5) 0.89299(16)
O14_2 O 0.5944(6) 0.99945(13) 0.9630(4)
H50_2 H 0.5644 0.9851 0.9820
O16_2 O 0.777(3) 0.9470(3) 0.9716(5)
H68_2 H 0.9633 0.9135 0.8257
C97_2 C 0.9275(3) 0.96089(7) 0.85410(19)
H73_2 H 0.8695 0.9504 0.8417
C100_2 C 0.9963(3) 0.84413(6) 0.59558(18)
H75_2 H 0.9386 0.8472 0.5627
C104_2 C 0.9231(3) 0.78122(6) 0.6273(2)
H78_2 H 0.9422 0.7775 0.6744
C105_2 C 0.8604(3) 0.76805(7) 0.58321(19)
H79_2 H 0.8266 0.7533 0.5945
C106_2 C 0.9096(3) 0.79910(7) 0.52576(18)
H80_2 H 0.9183 0.8105 0.4898
O23_2 O 0.0887(2) 0.12413(5) 0.09549(16)
H91_2 H 0.0686 0.0881 0.0091
H96_2 H 0.0192 0.1605 0.1661
H65_2 H 0.7391 0.0015 0.7617
H72_2 H 0.0389 0.0042 0.9239
H49_2 H 0.5943 0.0120 0.9972
O21_2 O 0.6735(3) 0.03916(6) 0.9884(2)
O22_2 O 0.8239(3) 0.02573(5) 0.94485(14)
C122_2 C 0.7691(3) 0.04128(7) 0.9757(2)
C123_2 C 0.8283(3) 0.06392(6) 0.99830(18)
C128_2 C 0.9397(3) 0.06626(6) 0.99108(18)
H92_2 H 0.9792 0.0537 0.9707
H93_2 H 0.8560 0.1489 0.9825
H94_2 H 0.7967 0.1887 0.9819
N16_3 N 0.1003(3) 0.54431(6) 0.2781(2)
N17_2 N 0.1852(3) 0.51794(6) 0.3463(2)
N18_3 N 0.0148(3) 0.70258(5) 0.06323(17)
C69_3 C 0.0468(4) 0.73945(8) 0.0344(3)
H53_3 H 0.0434 0.7564 0.0318
C71_3 C 0.0932(3) 0.70323(7) 0.01653(19)
H56_3 H 0.0174 0.6912 0.1938
C82_3 C 0.0354(3) 0.56506(7) 0.2569(2)
C83_3 C 0.0406(3) 0.57384(8) 0.1916(2)
H62_3 H 0.0889 0.5671 0.1598
C85_3 C 0.1477(4) 0.52801(8) 0.2345(3)
H64_3 H 0.1447 0.5281 0.1852
C86_3 C 0.1992(3) 0.51193(8) 0.2769(3)
H65_3 H 0.2391 0.4985 0.2617
C87_3 C 0.1261(3) 0.53745(7) 0.3437(2)
H66_3 H 0.1040 0.5458 0.3836
Co12_2 Co 0.27605(6) 0.50830(2) 0.43282(3)
N19_2 N 0.1153(2) 0.72531(5) 0.99809(16)
H55_3 H 0.1281 0.6894 0.9992
Co9 Co 0.24608(5) 0.73430(2) 0.93802(3)
N20_2 N 0.3524(2) 0.72080(5) 0.01844(15)
N13_3 N 0.4543(2) 0.69876(5) 0.09054(15)
N14_3 N 0.5298(2) 0.54197(5) 0.33443(16)
N15_3 N 0.4183(3) 0.51968(5) 0.39299(16)
O14_3 O 0.0944(6) 0.50055(13) 0.4630(4)
H49_3 H 0.0943 0.4880 0.4972
H50_3 H 0.0644 0.5149 0.4820
O15_3 O 0.3692(2) 0.74395(4) 0.87062(13)
H51_3 H 0.3658 0.7326 0.8402
H52_3 H 0.4317 0.7459 0.8908
O16_3 O 0.277(3) 0.5530(3) 0.4716(5)
O17_3 O 0.2748(3) 0.51816(5) 0.53288(16)
O18_3 O 0.1803(3) 0.57943(5) 0.83710(15)
O19_3 O 0.2227(2) 0.70229(4) 0.88642(13)
O20_3 O 0.3337(2) 0.70429(5) 0.79806(13)
O21_3 O 0.1735(3) 0.46084(6) 0.4884(2)
O22_3 O 0.3239(3) 0.47427(5) 0.44485(14)
O23_3 O 0.5887(2) 0.37587(5) 0.59549(16)
O24_2 O 0.3642(2) 0.26183(4) 0.62019(13)
O25_2 O 0.2604(2) 0.27015(4) 0.52741(13)
C70_3 C 0.9848(4) 0.72565(8) 0.0744(3)
H54_3 H 0.9309 0.7310 0.1045
C72_3 C 0.9714(3) 0.68173(7) 0.0952(2)
C73_3 C 0.9808(3) 0.67931(7) 0.1663(2)
C74_3 C 0.9363(3) 0.65939(7) 0.1972(2)
H57_3 H 0.9451 0.6572 0.2460
C75_3 C 0.8791(3) 0.64263(6) 0.15760(19)
C76_3 C 0.8733(3) 0.64510(7) 0.0862(2)
H58_3 H 0.8368 0.6333 0.0585
C77_3 C 0.9200(3) 0.66455(7) 0.0545(2)
H59_3 H 0.9166 0.6660 0.0053
C78_3 C 0.8251(3) 0.62192(7) 0.19118(19)
C79_3 C 0.9025(3) 0.60295(7) 0.2173(2)
C80_3 C 0.9030(3) 0.59459(7) 0.2844(2)
H60_3 H 0.8583 0.6021 0.3170
C81_3 C 0.9685(3) 0.57513(8) 0.3054(2)
H61_3 H 0.9673 0.5690 0.3514
C84_3 C 0.9739(3) 0.59283(7) 0.1720(2)
H63_3 H 0.9772 0.5991 0.1263
C88_3 C 0.7167(3) 0.62076(6) 0.19420(18)
C89_3 C 0.6598(3) 0.59974(6) 0.22310(18)
C90_3 C 0.5706(3) 0.60290(6) 0.26360(18)
H67_3 H 0.5401 0.6185 0.2674
C91_3 C 0.5248(3) 0.58397(6) 0.29871(19)
H68_3 H 0.4633 0.5865 0.3257
C92_3 C 0.5696(3) 0.56139(7) 0.2939(2)
C93_3 C 0.6539(3) 0.55721(7) 0.2501(2)
H69_3 H 0.6822 0.5415 0.2452
C94_3 C 0.6963(3) 0.57603(7) 0.2137(2)
H70_3 H 0.7510 0.5730 0.1818
C95_3 C 0.5897(3) 0.52330(7) 0.3635(2)
H71_3 H 0.6650 0.5205 0.3594
C96_3 C 0.5202(3) 0.50998(7) 0.3987(2)
H72_3 H 0.5389 0.4958 0.4239
C97_3 C 0.4275(3) 0.53911(7) 0.35410(19)
H73_3 H 0.3695 0.5496 0.3417
C98_3 C 0.6463(3) 0.64114(6) 0.16939(17)
C99_3 C 0.5603(3) 0.63721(6) 0.12147(18)
H74_3 H 0.5452 0.6213 0.1062
C100_3 C 0.4963(3) 0.65587(6) 0.09558(18)
H75_3 H 0.4386 0.6528 0.0627
C101_3 C 0.5176(3) 0.67912(6) 0.11823(18)
C102_3 C 0.5998(3) 0.68343(7) 0.16734(19)
H76_3 H 0.6132 0.6993 0.1835
C103_3 C 0.6629(3) 0.66455(7) 0.19325(19)
H77_3 H 0.7183 0.6676 0.2278
C104_3 C 0.4231(3) 0.71878(6) 0.1273(2)
H78_3 H 0.4422 0.7225 0.1744
C105_3 C 0.3604(3) 0.73195(7) 0.08321(19)
H79_3 H 0.3266 0.7467 0.0945
C106_3 C 0.4096(3) 0.70090(7) 0.02576(18)
C107_3 C 0.2696(3) 0.69327(7) 0.83529(18)
C108_3 C 0.2468(3) 0.66715(6) 0.81982(18)
C109_3 C 0.1750(3) 0.65406(7) 0.8586(2)
H81_3 H 0.1360 0.6618 0.8937
C110_3 C 0.1600(3) 0.62975(7) 0.84619(19)
H82_3 H 0.1107 0.6209 0.8728
C111_3 C 0.2167(3) 0.61818(7) 0.79515(18)
C112_3 C 0.2875(3) 0.63150(7) 0.7559(2)
H83_3 H 0.3263 0.6239 0.7205
C113_3 C 0.3012(3) 0.65560(7) 0.76809(19)
H84_3 H 0.3490 0.6645 0.7406
C114_3 C 0.2053(3) 0.59136(7) 0.7874(2)
C115_3 C 0.2239(3) 0.57954(7) 0.71951(19)
C116_3 C 0.2553(3) 0.55537(7) 0.7210(2)
H85_3 H 0.2668 0.5474 0.7643
C117_3 C 0.2695(3) 0.54308(7) 0.6602(2)
H86_3 H 0.2925 0.5268 0.6621
C118_3 C 0.2509(3) 0.55401(7) 0.5965(2)
C119_3 C 0.2196(3) 0.57796(7) 0.5951(2)
H87_3 H 0.2070 0.5858 0.5517
C120_3 C 0.2066(3) 0.59053(7) 0.6559(2)
H88_3 H 0.1854 0.6069 0.6539
C121_3 C 0.2610(3) 0.54057(7) 0.5302(2)
C122_3 C 0.2691(3) 0.45872(7) 0.4757(2)
C123_3 C 0.3283(3) 0.43608(6) 0.49830(18)
C124_3 C 0.2717(3) 0.41738(7) 0.5279(2)
H89_3 H 0.1961 0.4189 0.5336
C125_3 C 0.3243(3) 0.39651(6) 0.54920(19)
H90_3 H 0.2843 0.3837 0.5683
C126_3 C 0.4354(3) 0.39425(6) 0.54274(18)
C127_3 C 0.4926(3) 0.41320(6) 0.51352(19)
H91_3 H 0.5686 0.4119 0.5091
C128_3 C 0.4397(3) 0.43374(6) 0.49108(18)
H92_3 H 0.4792 0.4463 0.4707
C129_3 C 0.4959(3) 0.37326(6) 0.57171(19)
C130_3 C 0.4449(3) 0.34905(6) 0.57378(19)
C131_3 C 0.3772(3) 0.34072(6) 0.51962(19)
H93_3 H 0.3560 0.3511 0.4825
C132_3 C 0.3407(3) 0.31712(6) 0.51985(19)
H94_3 H 0.2967 0.3113 0.4819
C133_3 C 0.3683(3) 0.30206(6) 0.57527(18)
C134_3 C 0.4331(3) 0.31065(7) 0.6303(2)
H95_3 H 0.4504 0.3006 0.6690
C135_3 C 0.4728(3) 0.33387(6) 0.62910(19)
H96_3 H 0.5192 0.3395 0.6661
C136_3 C 0.3286(3) 0.27642(6) 0.57470(19)
Co11_2 Co 0.25392(5) 0.23430(2) 0.56198(3)
O26_2 O 0.1358(2) 0.76183(4) 0.87981(13)
O27_2 O 0.2396(2) 0.77015(4) 0.97259(13)
H80_3 H 0.4183 0.6895 0.9898
Co8_2 Co 0.22395(6) 0.00830(2) 0.06718(3)
N12_2 N 0.1476(2) 0.22080(5) 0.48156(15)
N13_4 N 0.0457(2) 0.19876(5) 0.40946(15)
N15_4 N 0.0817(3) 0.01968(5) 0.10701(16)
O14_4 O 0.4056(6) 0.00055(13) 0.0370(4)
H50_4 H 0.4356 0.0149 0.0180
O16_4 O 0.223(3) 0.0530(3) 0.0284(5)
H68_4 H 0.0367 0.0865 0.1743
C97_4 C 0.0725(3) 0.03911(7) 0.14590(19)
H73_4 H 0.1305 0.0496 0.1583
C100_4 C 0.0037(3) 0.15587(6) 0.40442(18)
H75_4 H 0.0614 0.1528 0.4373
C104_4 C 0.0769(3) 0.21878(6) 0.3727(2)
H78_4 H 0.0578 0.2225 0.3256
C105_4 C 0.1396(3) 0.23195(7) 0.41679(19)
H79_4 H 0.1734 0.2467 0.4055
C106_4 C 0.0904(3) 0.20090(7) 0.47424(18)
H80_4 H 0.0817 0.1895 0.5102
N21_2 N 0.3148(3) 0.01794(6) 0.1537(2)
O15_4 O 0.1308(2) 0.24395(4) 0.62938(13)
H51_4 H 0.1342 0.2326 0.6598
H52_4 H 0.0683 0.2459 0.6092
O17_4 O 0.2252(3) 0.01816(5) 0.96712(16)
O18_4 O 0.3197(3) 0.07943(5) 0.66290(15)
O19_4 O 0.2773(2) 0.20229(4) 0.61358(13)
O20_4 O 0.1663(2) 0.20429(5) 0.70194(13)
C107_4 C 0.2304(3) 0.19327(7) 0.66471(18)
C108_4 C 0.2532(3) 0.16715(6) 0.68018(18)
C109_4 C 0.3250(3) 0.15406(7) 0.6414(2)
H81_4 H 0.3640 0.1618 0.6063
C110_4 C 0.3400(3) 0.12975(7) 0.65381(19)
H82_4 H 0.3893 0.1209 0.6272
C111_4 C 0.2833(3) 0.11818(7) 0.70485(18)
C112_4 C 0.2125(3) 0.13150(7) 0.7441(2)
H83_4 H 0.1737 0.1239 0.7795
C113_4 C 0.1988(3) 0.15560(7) 0.73191(19)
H84_4 H 0.1510 0.1645 0.7594
C114_4 C 0.2947(3) 0.09136(7) 0.7126(2)
C115_4 C 0.2761(3) 0.07954(7) 0.78049(19)
C116_4 C 0.2447(3) 0.05537(7) 0.7790(2)
H85_4 H 0.2332 0.0474 0.7357
C117_4 C 0.2305(3) 0.04308(7) 0.8398(2)
H86_4 H 0.2075 0.0268 0.8379
C118_4 C 0.2491(3) 0.05401(7) 0.9035(2)
C119_4 C 0.2804(3) 0.07796(7) 0.9049(2)
H87_4 H 0.2930 0.0858 0.9483
C120_4 C 0.2934(3) 0.09053(7) 0.8441(2)
H88_4 H 0.3146 0.1069 0.8461
C121_4 C 0.2390(3) 0.04057(7) 0.9698(2)
N22_2 N 0.3847(2) 0.22531(5) 0.50191(16)
C124_4 C 0.2283(3) 0.91738(7) 0.9721(2)
H89_4 H 0.3039 0.9189 0.9664
C125_4 C 0.1757(3) 0.89651(6) 0.95080(19)
H90_4 H 0.2157 0.8837 0.9317
C126_4 C 0.0646(3) 0.89425(6) 0.95726(18)
C127_4 C 0.0074(3) 0.91320(6) 0.98648(19)
C129_4 C 0.0041(3) 0.87326(6) 0.92829(19)
C130_4 C 0.0551(3) 0.84905(6) 0.92622(19)
C131_4 C 0.1228(3) 0.84072(6) 0.98038(19)
C132_4 C 0.1593(3) 0.81712(6) 0.98015(19)
C133_4 C 0.1317(3) 0.80206(6) 0.92473(18)
C134_4 C 0.0669(3) 0.81065(7) 0.8697(2)
H95_4 H 0.0496 0.8006 0.8310
C135_4 C 0.0272(3) 0.83387(6) 0.87090(19)
C136_4 C 0.1714(3) 0.77642(6) 0.92530(19)
N14_4 N 0.9702(2) 0.04197(5) 0.16557(16)
N16_4 N 0.3997(3) 0.04431(6) 0.2219(2)
N18_4 N 0.4852(3) 0.20258(5) 0.43677(17)
C69_4 C 0.4532(4) 0.23945(8) 0.4656(3)
H53_4 H 0.4566 0.2564 0.4682
C70_4 C 0.5152(4) 0.22565(8) 0.4256(3)
H54_4 H 0.5691 0.2310 0.3955
C71_4 C 0.4068(3) 0.20323(7) 0.48347(19)
H55_4 H 0.3719 0.1894 0.5008
C72_4 C 0.5286(3) 0.18173(7) 0.4048(2)
C73_4 C 0.5192(3) 0.17931(7) 0.3337(2)
H56_4 H 0.4826 0.1912 0.3062
C74_4 C 0.5637(3) 0.15939(7) 0.3028(2)
H57_4 H 0.5549 0.1572 0.2540
C75_4 C 0.6209(3) 0.14263(6) 0.34240(19)
C76_4 C 0.6267(3) 0.14510(7) 0.4138(2)
H58_4 H 0.6632 0.1333 0.4415
C77_4 C 0.5800(3) 0.16455(7) 0.4455(2)
H59_4 H 0.5834 0.1660 0.4947
C78_4 C 0.6749(3) 0.12192(7) 0.30882(19)
C79_4 C 0.5975(3) 0.10295(7) 0.2827(2)
C80_4 C 0.5970(3) 0.09459(7) 0.2156(2)
H60_4 H 0.6417 0.1021 0.1830
C81_4 C 0.5315(3) 0.07513(8) 0.1946(2)
H61_4 H 0.5327 0.0690 0.1486
C82_4 C 0.4646(3) 0.06506(7) 0.2431(2)
C83_4 C 0.4594(3) 0.07384(8) 0.3084(2)
H62_4 H 0.4111 0.0671 0.3402
C84_4 C 0.5261(3) 0.09283(7) 0.3280(2)
H63_4 H 0.5228 0.0991 0.3737
C85_4 C 0.3523(4) 0.02801(8) 0.2655(3)
H64_4 H 0.3553 0.0281 0.3148
C86_4 C 0.3008(3) 0.01193(8) 0.2231(3)
C87_4 C 0.3739(3) 0.03745(7) 0.1563(2)
H66_4 H 0.3960 0.0458 0.1164
C88_4 C 0.7833(3) 0.12076(6) 0.30580(18)
C89_4 C 0.8402(3) 0.09974(6) 0.27690(18)
C90_4 C 0.9294(3) 0.10290(6) 0.23640(18)
H67_4 H 0.9599 0.1185 0.2326
C91_4 C 0.9752(3) 0.08397(6) 0.20129(19)
C92_4 C 0.9304(3) 0.06139(7) 0.2061(2)
C93_4 C 0.8461(3) 0.05721(7) 0.2499(2)
H69_4 H 0.8178 0.0415 0.2548
C94_4 C 0.8037(3) 0.07603(7) 0.2863(2)
H70_4 H 0.7490 0.0730 0.3182
C95_4 C 0.9103(3) 0.02330(7) 0.1365(2)
H71_4 H 0.8350 0.0205 0.1406
C96_4 C 0.9798(3) 0.00998(7) 0.1013(2)
C98_4 C 0.8537(3) 0.14114(6) 0.33061(17)
C99_4 C 0.9397(3) 0.13721(6) 0.37853(18)
H74_4 H 0.9548 0.1213 0.3938
C101_4 C 0.9824(3) 0.17912(6) 0.38177(18)
C102_4 C 0.9002(3) 0.18343(7) 0.33266(19)
H76_4 H 0.8868 0.1993 0.3165
C103_4 C 0.8371(3) 0.16455(7) 0.30675(19)
H77_4 H 0.7817 0.1676 0.2722
H49_4 H 0.4057 0.9880 0.0028
O21_4 O 0.3265(3) 0.96084(6) 0.0116(2)
O22_4 O 0.1761(3) 0.97427(5) 0.05515(14)
C122_4 C 0.2309(3) 0.95872(7) 0.0243(2)
C123_4 C 0.1717(3) 0.93608(6) 0.00170(18)
C128_4 C 0.0603(3) 0.93374(6) 0.00892(18)
H92_4 H 0.0208 0.9463 0.0293
H93_4 H 0.1440 0.8511 0.0175
H94_4 H 0.2033 0.8113 0.0181
H65_4 H 0.2609 0.9985 0.2383
H72_4 H 0.9611 0.9958 0.0761
O23_4 O 0.9113(2) 0.87587(5) 0.90451(16)
H91_4 H 0.9314 0.9119 0.9909
H96_4 H 0.9808 0.8395 0.8339
loop_
_geom_bond_atom_site_label_1
_geom_bond_atom_site_label_2
_geom_bond_site_symmetry_1
_geom_bond_site_symmetry_2
C1 H5 1_555 1_555
H30 C36 1_555 1_555
N2 C2 1_555 1_555
N7 C14 1_555 1_555
N8 C18 1_555 1_555
O11 C68 1_555 1_555
O12 Co1 1_555 1_555
C3 N1 1_555 1_555
H7 C3 1_555 1_555
C4 N2 1_555 1_555
C5 C4 1_555 1_555
H8 C5 1_555 1_555
C6 C5 1_555 1_555
H9 C6 1_555 1_555
C7 C6 1_555 1_555
C8 C7 1_555 1_555
H10 C8 1_555 1_555
C9 C4 1_555 1_555
H11 C9 1_555 1_555
C10 C7 1_555 1_555
C11 C10 1_555 1_555
C12 C11 1_555 1_555
H12 C12 1_555 1_555
C13 C12 1_555 1_555
H13 C13 1_555 1_555
C14 C13 1_555 1_555
C15 C14 1_555 1_555
H14 C15 1_555 1_555
C16 C11 1_555 1_555
H15 C16 1_555 1_555
C17 N7 1_555 1_555
H16 C17 1_555 1_555
C18 C17 1_555 1_555
H17 C18 1_555 1_555
C19 N7 1_555 1_555
H18 C19 1_555 1_555
C20 C10 1_555 1_555
C21 C20 1_555 1_555
C22 C21 1_555 1_555
H19 C22 1_555 1_555
H21 C25 1_555 1_555
C26 C21 1_555 1_555
H22 C26 1_555 1_555
C30 C20 1_555 1_555
C31 C30 1_555 1_555
H26 C31 1_555 1_555
C32 C31 1_555 1_555
H27 C32 1_555 1_555
C33 C32 1_555 1_555
C34 C33 1_555 1_555
C35 C30 1_555 1_555
H29 C35 1_555 1_555
C66 C65 1_555 1_555
H47 C66 1_555 1_555
C68 O12 1_555 1_555
N9 Co1 1_555 1_555
N10 Co1 1_555 1_555
O13 Co1 1_555 1_555
N2 C3 1_555 1_555
N8 C19 1_555 1_555
C8 C9 1_555 1_555
C15 C16 1_555 1_555
C25 C26 1_555 1_555
C34 C35 1_555 1_555
C65 C68 1_555 1_555
O1 C53 1_555 1_555
O2 C53 1_555 1_555
O3 H1 1_555 1_555
H2 O3 1_555 1_555
O4 C46 1_555 1_555
H3 O5 1_555 1_555
H4 O5 1_555 1_555
O6 Co2 1_555 1_555
O7 Co2 1_555 1_555
O8 Co2 1_555 1_555
O9 C54 1_555 1_555
O10 C61 1_555 1_555
C39 O6 1_555 1_555
C40 C39 1_555 1_555
C41 C40 1_555 1_555
H33 C41 1_555 1_555
C42 C41 1_555 1_555
H34 C42 1_555 1_555
C43 C42 1_555 1_555
C44 C43 1_555 1_555
H35 C44 1_555 1_555
C45 C40 1_555 1_555
H36 C45 1_555 1_555
C46 C43 1_555 1_555
C47 C46 1_555 1_555
C48 C47 1_555 1_555
H37 C48 1_555 1_555
C49 C48 1_555 1_555
H38 C49 1_555 1_555
C50 C49 1_555 1_555
C51 C50 1_555 1_555
H39 C51 1_555 1_555
C52 C47 1_555 1_555
H40 C52 1_555 1_555
C53 C50 1_555 1_555
C54 O8 1_555 1_555
C55 C54 1_555 1_555
C56 C55 1_555 1_555
C57 C56 1_555 1_555
C58 C57 1_555 1_555
C59 C58 1_555 1_555
H43 C59 1_555 1_555
C60 C55 1_555 1_555
H44 C60 1_555 1_555
C61 C58 1_555 1_555
C62 C61 1_555 1_555
C63 C62 1_555 1_555
H45 C63 1_555 1_555
C64 C63 1_555 1_555
H46 C64 1_555 1_555
C67 C62 1_555 1_555
H48 C67 1_555 1_555
O7 C39 1_555 1_555
C44 C45 1_555 1_555
C51 C52 1_555 1_555
C59 C60 1_555 1_555
H31 C37 1_555 1_555
N5 C24 1_555 1_555
N11 C28 1_555 1_555
H20 C23 1_555 1_555
C24 C23 1_555 1_555
C27 N5 1_555 1_555
H23 C27 1_555 1_555
C28 C27 1_555 1_555
H24 C28 1_555 1_555
C29 N5 1_555 1_555
H25 C29 1_555 1_555
C38 N3 1_555 1_555
H32 C38 1_555 1_555
N4 C38 1_555 1_555
N11 C29 1_555 1_555
N3_2 C33_2 1_555 1_555
N10 C37_2 1_555 1_555
N5_2 C24_2 1_555 1_555
N6 C28_2 1_555 1_555
N7_2 C14_2 1_555 1_555
C5_2 C4_2 1_555 1_555
H8_2 C5_2 1_555 1_555
C6_2 C5_2 1_555 1_555
H9_2 C6_2 1_555 1_555
C7_2 C6_2 1_555 1_555
C8_2 C7_2 1_555 1_555
H10_2 C8_2 1_555 1_555
C9_2 C4_2 1_555 1_555
C10_2 C7_2 1_555 1_555
C11_2 C10_2 1_555 1_555
C12_2 C11_2 1_555 1_555
H12_2 C12_2 1_555 1_555
C13_2 C12_2 1_555 1_555
C14_2 C13_2 1_555 1_555
C15_2 C14_2 1_555 1_555
H14_2 C15_2 1_555 1_555
C16_2 C11_2 1_555 1_555
H15_2 C16_2 1_555 1_555
C17_2 N7_2 1_555 1_555
H16_2 C17_2 1_555 1_555
C20_2 C10_2 1_555 1_555
C21_2 C20_2 1_555 1_555
C22_2 C21_2 1_555 1_555
H19_2 C22_2 1_555 1_555
C23_2 C22_2 1_555 1_555
H20_2 C23_2 1_555 1_555
C24_2 C23_2 1_555 1_555
C25_2 C24_2 1_555 1_555
H21_2 C25_2 1_555 1_555
C26_2 C21_2 1_555 1_555
H22_2 C26_2 1_555 1_555
C27_2 N5_2 1_555 1_555
H23_2 C27_2 1_555 1_555
C28_2 C27_2 1_555 1_555
H24_2 C28_2 1_555 1_555
C29_2 N5_2 1_555 1_555
H25_2 C29_2 1_555 1_555
C30_2 C20_2 1_555 1_555
C31_2 C30_2 1_555 1_555
H26_2 C31_2 1_555 1_555
C32_2 C31_2 1_555 1_555
H27_2 C32_2 1_555 1_555
C33_2 C32_2 1_555 1_555
C34_2 C33_2 1_555 1_555
H28_2 C34_2 1_555 1_555
C35_2 C30_2 1_555 1_555
H29_2 C35_2 1_555 1_555
C36_2 N3_2 1_555 1_555
H30_2 C36_2 1_555 1_555
C37_2 C36_2 1_555 1_555
H31_2 C37_2 1_555 1_555
C38_2 N3_2 1_555 1_555
H32_2 C38_2 1_555 1_555
Co6 N6 1_555 1_555
N10 C38_2 1_555 1_555
N6 C29_2 1_555 1_555
C8_2 C9_2 1_555 1_555
C15_2 C16_2 1_555 1_555
C25_2 C26_2 1_555 1_555
C34_2 C35_2 1_555 1_555
Co5 O3_2 1_555 1_555
Co6 N8_2 1_555 1_555
N9 C1_2 1_555 1_555
N2_2 C2_2 1_555 1_555
N8_2 C18_2 1_555 1_555
O1_2 C53_2 1_555 1_555
O3_2 H1_2 1_555 1_555
H2_2 O3_2 1_555 1_555
O4_2 C46_2 1_555 1_555
O5_2 Co5 1_555 1_555
H3_2 O5_2 1_555 1_555
H4_2 O5_2 1_555 1_555
O6_2 Co6 1_555 1_555
O7_2 Co6 1_555 1_555
O8_2 Co6 1_555 1_555
O9_2 C54_2 1_555 1_555
O11_2 C68_2 1_555 1_555
O12_2 Co5 1_555 1_555
C1_2 H5_2 1_555 1_555
C2_2 C1_2 1_555 1_555
H6_2 C2_2 1_555 1_555
C3_2 N9 1_555 1_555
H7_2 C3_2 1_555 1_555
H18_2 C19_2 1_555 1_555
C39_2 O6_2 1_555 1_555
C40_2 C39_2 1_555 1_555
C41_2 C40_2 1_555 1_555
H33_2 C41_2 1_555 1_555
C42_2 C41_2 1_555 1_555
H34_2 C42_2 1_555 1_555
C43_2 C42_2 1_555 1_555
C44_2 C43_2 1_555 1_555
H35_2 C44_2 1_555 1_555
C45_2 C40_2 1_555 1_555
H36_2 C45_2 1_555 1_555
C46_2 C43_2 1_555 1_555
C47_2 C46_2 1_555 1_555
C48_2 C47_2 1_555 1_555
H37_2 C48_2 1_555 1_555
C49_2 C48_2 1_555 1_555
H38_2 C49_2 1_555 1_555
C50_2 C49_2 1_555 1_555
C51_2 C50_2 1_555 1_555
C52_2 C47_2 1_555 1_555
H40_2 C52_2 1_555 1_555
C53_2 C50_2 1_555 1_555
C54_2 O8_2 1_555 1_555
C55_2 C54_2 1_555 1_555
C56_2 C55_2 1_555 1_555
H41_2 C56_2 1_555 1_555
C57_2 C56_2 1_555 1_555
H42_2 C57_2 1_555 1_555
C58_2 C57_2 1_555 1_555
C59_2 C58_2 1_555 1_555
H43_2 C59_2 1_555 1_555
C60_2 C55_2 1_555 1_555
H44_2 C60_2 1_555 1_555
C61_2 C58_2 1_555 1_555
C62_2 C61_2 1_555 1_555
C63_2 C62_2 1_555 1_555
H45_2 C63_2 1_555 1_555
C64_2 C63_2 1_555 1_555
H46_2 C64_2 1_555 1_555
C65_2 C64_2 1_555 1_555
C66_2 C65_2 1_555 1_555
H47_2 C66_2 1_555 1_555
C67_2 C62_2 1_555 1_555
C68_2 O12_2 1_555 1_555
N2_2 C3_2 1_555 1_555
N8_2 C19_2 1_555 1_555
O7_2 C39_2 1_555 1_555
C44_2 C45_2 1_555 1_555
C51_2 C52_2 1_555 1_555
C59_2 C60_2 1_555 1_555
C65_2 C68_2 1_555 1_555
C66_2 C67_2 1_555 1_555
N5_3 C24_3 1_555 1_555
N6_2 C28_3 1_555 1_555
H20_3 C23_3 1_555 1_555
C24_3 C23_3 1_555 1_555
C27_3 N5_3 1_555 1_555
H23_3 C27_3 1_555 1_555
C28_3 C27_3 1_555 1_555
H24_3 C28_3 1_555 1_555
C29_3 N5_3 1_555 1_555
H25_3 C29_3 1_555 1_555
C38_3 N3_3 1_555 1_555
H32_3 C38_3 1_555 1_555
N4_2 C38_3 1_555 1_555
N6_2 C29_3 1_555 1_555
H31_3 C37_3 1_555 1_555
O1_3 C53_3 1_555 1_555
O2_2 C53_3 1_555 1_555
O3_3 H1_3 1_555 1_555
H2_3 O3_3 1_555 1_555
O4_3 C46_3 1_555 1_555
H3_3 O5_3 1_555 1_555
H4_3 O5_3 1_555 1_555
O6_3 Co6_2 1_555 1_555
O7_3 Co6_2 1_555 1_555
O8_3 Co6_2 1_555 1_555
O9_3 C54_3 1_555 1_555
O10_3 C61_3 1_555 1_555
C39_3 O6_3 1_555 1_555
C40_3 C39_3 1_555 1_555
C41_3 C40_3 1_555 1_555
H33_3 C41_3 1_555 1_555
C42_3 C41_3 1_555 1_555
H34_3 C42_3 1_555 1_555
C43_3 C42_3 1_555 1_555
C44_3 C43_3 1_555 1_555
H35_3 C44_3 1_555 1_555
C45_3 C40_3 1_555 1_555
H36_3 C45_3 1_555 1_555
C46_3 C43_3 1_555 1_555
C47_3 C46_3 1_555 1_555
C48_3 C47_3 1_555 1_555
H37_3 C48_3 1_555 1_555
C49_3 C48_3 1_555 1_555
H38_3 C49_3 1_555 1_555
C50_3 C49_3 1_555 1_555
C51_3 C50_3 1_555 1_555
H39_3 C51_3 1_555 1_555
C52_3 C47_3 1_555 1_555
H40_3 C52_3 1_555 1_555
C53_3 C50_3 1_555 1_555
C54_3 O8_3 1_555 1_555
C55_3 C54_3 1_555 1_555
C56_3 C55_3 1_555 1_555
C57_3 C56_3 1_555 1_555
C58_3 C57_3 1_555 1_555
C59_3 C58_3 1_555 1_555
H43_3 C59_3 1_555 1_555
C60_3 C55_3 1_555 1_555
H44_3 C60_3 1_555 1_555
C61_3 C58_3 1_555 1_555
C62_3 C61_3 1_555 1_555
C63_3 C62_3 1_555 1_555
H45_3 C63_3 1_555 1_555
C64_3 C63_3 1_555 1_555
H46_3 C64_3 1_555 1_555
C67_3 C62_3 1_555 1_555
H48_3 C67_3 1_555 1_555
O7_3 C39_3 1_555 1_555
C44_3 C45_3 1_555 1_555
C51_3 C52_3 1_555 1_555
C59_3 C60_3 1_555 1_555
N2_3 C2_3 1_555 1_555
N7_3 C14_3 1_555 1_555
N8_3 C18_3 1_555 1_555
O11_3 C68_3 1_555 1_555
O12_3 Co1_2 1_555 1_555
C3_3 N1_2 1_555 1_555
H7_3 C3_3 1_555 1_555
C4_3 N2_3 1_555 1_555
C5_3 C4_3 1_555 1_555
H8_3 C5_3 1_555 1_555
C6_3 C5_3 1_555 1_555
H9_3 C6_3 1_555 1_555
C7_3 C6_3 1_555 1_555
C8_3 C7_3 1_555 1_555
H10_3 C8_3 1_555 1_555
C9_3 C4_3 1_555 1_555
H11_3 C9_3 1_555 1_555
C10_3 C7_3 1_555 1_555
C11_3 C10_3 1_555 1_555
C12_3 C11_3 1_555 1_555
H12_3 C12_3 1_555 1_555
C13_3 C12_3 1_555 1_555
H13_3 C13_3 1_555 1_555
C14_3 C13_3 1_555 1_555
C15_3 C14_3 1_555 1_555
H14_3 C15_3 1_555 1_555
C16_3 C11_3 1_555 1_555
H15_3 C16_3 1_555 1_555
C17_3 N7_3 1_555 1_555
H16_3 C17_3 1_555 1_555
C18_3 C17_3 1_555 1_555
H17_3 C18_3 1_555 1_555
C19_3 N7_3 1_555 1_555
H18_3 C19_3 1_555 1_555
C20_3 C10_3 1_555 1_555
C21_3 C20_3 1_555 1_555
C22_3 C21_3 1_555 1_555
H19_3 C22_3 1_555 1_555
H21_3 C25_3 1_555 1_555
C26_3 C21_3 1_555 1_555
H22_3 C26_3 1_555 1_555
C30_3 C20_3 1_555 1_555
C31_3 C30_3 1_555 1_555
H26_3 C31_3 1_555 1_555
C32_3 C31_3 1_555 1_555
H27_3 C32_3 1_555 1_555
C33_3 C32_3 1_555 1_555
C34_3 C33_3 1_555 1_555
C35_3 C30_3 1_555 1_555
H29_3 C35_3 1_555 1_555
C66_3 C65_3 1_555 1_555
H47_3 C66_3 1_555 1_555
C68_3 O12_3 1_555 1_555
N9_2 Co1_2 1_555 1_555
N10_2 Co1_2 1_555 1_555
O13_2 Co1_2 1_555 1_555
N2_3 C3_3 1_555 1_555
N8_3 C19_3 1_555 1_555
C8_3 C9_3 1_555 1_555
C15_3 C16_3 1_555 1_555
C25_3 C26_3 1_555 1_555
C34_3 C35_3 1_555 1_555
C65_3 C68_3 1_555 1_555
C1_3 H5_3 1_555 1_555
H30_3 C36_3 1_555 1_555
Co3 O3_4 1_555 1_555
Co2_2 N8_4 1_555 1_555
N9_2 C1_4 1_555 1_555
N2_4 C2_4 1_555 1_555
N8_4 C18_4 1_555 1_555
O1_4 C53_4 1_555 1_555
O3_4 H1_4 1_555 1_555
H2_4 O3_4 1_555 1_555
O4_4 C46_4 1_555 1_555
O5_4 Co3 1_555 1_555
H3_4 O5_4 1_555 1_555
H4_4 O5_4 1_555 1_555
O6_4 Co2_2 1_555 1_555
O7_4 Co2_2 1_555 1_555
O8_4 Co2_2 1_555 1_555
O9_4 C54_4 1_555 1_555
O11_4 C68_4 1_555 1_555
O12_4 Co3 1_555 1_555
C1_4 H5_4 1_555 1_555
C2_4 C1_4 1_555 1_555
H6_4 C2_4 1_555 1_555
C3_4 N9_2 1_555 1_555
H7_4 C3_4 1_555 1_555
H18_4 C19_4 1_555 1_555
C39_4 O6_4 1_555 1_555
C40_4 C39_4 1_555 1_555
C41_4 C40_4 1_555 1_555
H33_4 C41_4 1_555 1_555
C42_4 C41_4 1_555 1_555
H34_4 C42_4 1_555 1_555
C43_4 C42_4 1_555 1_555
C44_4 C43_4 1_555 1_555
H35_4 C44_4 1_555 1_555
C45_4 C40_4 1_555 1_555
H36_4 C45_4 1_555 1_555
C46_4 C43_4 1_555 1_555
C47_4 C46_4 1_555 1_555
C48_4 C47_4 1_555 1_555
H37_4 C48_4 1_555 1_555
C49_4 C48_4 1_555 1_555
H38_4 C49_4 1_555 1_555
C50_4 C49_4 1_555 1_555
C51_4 C50_4 1_555 1_555
C52_4 C47_4 1_555 1_555
H40_4 C52_4 1_555 1_555
C53_4 C50_4 1_555 1_555
C54_4 O8_4 1_555 1_555
C55_4 C54_4 1_555 1_555
C56_4 C55_4 1_555 1_555
H41_4 C56_4 1_555 1_555
C57_4 C56_4 1_555 1_555
H42_4 C57_4 1_555 1_555
C58_4 C57_4 1_555 1_555
C59_4 C58_4 1_555 1_555
H43_4 C59_4 1_555 1_555
C60_4 C55_4 1_555 1_555
H44_4 C60_4 1_555 1_555
C61_4 C58_4 1_555 1_555
C62_4 C61_4 1_555 1_555
C63_4 C62_4 1_555 1_555
H45_4 C63_4 1_555 1_555
C64_4 C63_4 1_555 1_555
H46_4 C64_4 1_555 1_555
C65_4 C64_4 1_555 1_555
C66_4 C65_4 1_555 1_555
H47_4 C66_4 1_555 1_555
C67_4 C62_4 1_555 1_555
C68_4 O12_4 1_555 1_555
N11_2 Co2_2 1_555 1_555
N2_4 C3_4 1_555 1_555
N8_4 C19_4 1_555 1_555
O7_4 C39_4 1_555 1_555
C44_4 C45_4 1_555 1_555
C51_4 C52_4 1_555 1_555
C59_4 C60_4 1_555 1_555
C65_4 C68_4 1_555 1_555
C66_4 C67_4 1_555 1_555
N3_4 C33_4 1_555 1_555
N10_2 C37_4 1_555 1_555
N5_4 C24_4 1_555 1_555
N11_2 C28_4 1_555 1_555
N7_4 C14_4 1_555 1_555
C5_4 C4_4 1_555 1_555
H8_4 C5_4 1_555 1_555
C6_4 C5_4 1_555 1_555
H9_4 C6_4 1_555 1_555
C7_4 C6_4 1_555 1_555
C8_4 C7_4 1_555 1_555
H10_4 C8_4 1_555 1_555
C9_4 C4_4 1_555 1_555
C10_4 C7_4 1_555 1_555
C11_4 C10_4 1_555 1_555
C12_4 C11_4 1_555 1_555
H12_4 C12_4 1_555 1_555
C13_4 C12_4 1_555 1_555
C14_4 C13_4 1_555 1_555
C15_4 C14_4 1_555 1_555
H14_4 C15_4 1_555 1_555
C16_4 C11_4 1_555 1_555
H15_4 C16_4 1_555 1_555
C17_4 N7_4 1_555 1_555
H16_4 C17_4 1_555 1_555
C20_4 C10_4 1_555 1_555
C21_4 C20_4 1_555 1_555
C22_4 C21_4 1_555 1_555
H19_4 C22_4 1_555 1_555
C23_4 C22_4 1_555 1_555
H20_4 C23_4 1_555 1_555
C24_4 C23_4 1_555 1_555
C25_4 C24_4 1_555 1_555
H21_4 C25_4 1_555 1_555
C26_4 C21_4 1_555 1_555
H22_4 C26_4 1_555 1_555
C27_4 N5_4 1_555 1_555
H23_4 C27_4 1_555 1_555
C28_4 C27_4 1_555 1_555
H24_4 C28_4 1_555 1_555
C29_4 N5_4 1_555 1_555
H25_4 C29_4 1_555 1_555
C30_4 C20_4 1_555 1_555
C31_4 C30_4 1_555 1_555
H26_4 C31_4 1_555 1_555
C32_4 C31_4 1_555 1_555
H27_4 C32_4 1_555 1_555
C33_4 C32_4 1_555 1_555
C34_4 C33_4 1_555 1_555
H28_4 C34_4 1_555 1_555
C35_4 C30_4 1_555 1_555
H29_4 C35_4 1_555 1_555
C36_4 N3_4 1_555 1_555
H30_4 C36_4 1_555 1_555
C37_4 C36_4 1_555 1_555
H31_4 C37_4 1_555 1_555
C38_4 N3_4 1_555 1_555
H32_4 C38_4 1_555 1_555
N10_2 C38_4 1_555 1_555
N11_2 C29_4 1_555 1_555
C8_4 C9_4 1_555 1_555
C15_4 C16_4 1_555 1_555
C25_4 C26_4 1_555 1_555
C34_4 C35_4 1_555 1_555
Co10 O15 1_555 1_555
Co8 N15 1_555 1_555
N12 C105 1_555 1_555
N13 C101 1_555 1_555
N14 C92 1_555 1_555
N15 C96 1_555 1_555
O14 Co8 1_555 1_555
H49 O14 1_555 1_555
H50 O14 1_555 1_555
O15 H51 1_555 1_555
H52 O15 1_555 1_555
O16 C121 1_555 1_555
O17 Co8 1_555 1_555
O18 C114 1_555 1_555
O19 Co10 1_555 1_555
O20 C107 1_555 1_555
O21 C122 1_555 1_555
O22 Co8 1_555 1_555
O23 C129 1_555 1_555
O24 C136 1_555 1_555
O25 C136 1_555 1_555
H54 C70 1_555 1_555
C73 C72 1_555 1_555
C74 C73 1_555 1_555
H57 C74 1_555 1_555
C75 C74 1_555 1_555
C76 C75 1_555 1_555
H58 C76 1_555 1_555
C77 C72 1_555 1_555
H59 C77 1_555 1_555
C78 C75 1_555 1_555
C79 C78 1_555 1_555
C80 C79 1_555 1_555
H60 C80 1_555 1_555
C81 C80 1_555 1_555
H61 C81 1_555 1_555
C84 C79 1_555 1_555
H63 C84 1_555 1_555
C88 C78 1_555 1_555
C89 C88 1_555 1_555
C90 C89 1_555 1_555
H67 C90 1_555 1_555
C91 C90 1_555 1_555
H68 C91 1_555 1_555
C92 C91 1_555 1_555
C93 C92 1_555 1_555
H69 C93 1_555 1_555
C94 C89 1_555 1_555
H70 C94 1_555 1_555
C95 N14 1_555 1_555
H71 C95 1_555 1_555
C96 C95 1_555 1_555
H72 C96 1_555 1_555
C97 N14 1_555 1_555
H73 C97 1_555 1_555
C98 C88 1_555 1_555
C99 C98 1_555 1_555
H74 C99 1_555 1_555
C100 C99 1_555 1_555
H75 C100 1_555 1_555
C101 C100 1_555 1_555
C102 C101 1_555 1_555
H76 C102 1_555 1_555
C103 C98 1_555 1_555
H77 C103 1_555 1_555
C104 N13 1_555 1_555
H78 C104 1_555 1_555
C105 C104 1_555 1_555
H79 C105 1_555 1_555
C106 N12 1_555 1_555
C107 O19 1_555 1_555
C108 C107 1_555 1_555
C109 C108 1_555 1_555
H81 C109 1_555 1_555
C110 C109 1_555 1_555
H82 C110 1_555 1_555
C111 C110 1_555 1_555
C112 C111 1_555 1_555
H83 C112 1_555 1_555
C113 C108 1_555 1_555
H84 C113 1_555 1_555
C114 C111 1_555 1_555
C115 C114 1_555 1_555
C116 C115 1_555 1_555
H85 C116 1_555 1_555
C117 C116 1_555 1_555
H86 C117 1_555 1_555
C118 C117 1_555 1_555
C119 C118 1_555 1_555
H87 C119 1_555 1_555
C120 C115 1_555 1_555
H88 C120 1_555 1_555
C121 O17 1_555 1_555
C122 O22 1_555 1_555
C123 C122 1_555 1_555
C124 C123 1_555 1_555
H89 C124 1_555 1_555
C125 C124 1_555 1_555
H90 C125 1_555 1_555
C126 C125 1_555 1_555
C127 C126 1_555 1_555
H91 C127 1_555 1_555
C128 C123 1_555 1_555
H92 C128 1_555 1_555
C129 C126 1_555 1_555
C130 C129 1_555 1_555
C131 C130 1_555 1_555
H93 C131 1_555 1_555
C132 C131 1_555 1_555
H94 C132 1_555 1_555
C133 C132 1_555 1_555
C134 C133 1_555 1_555
H95 C134 1_555 1_555
C135 C130 1_555 1_555
H96 C135 1_555 1_555
C136 C133 1_555 1_555
Co11 O24 1_555 1_555
N21 Co8 1_555 1_555
N22 Co10 1_555 1_555
O26 Co10 1_555 1_555
O27 Co10 1_555 1_555
N13 C106 1_555 1_555
N15 C97 1_555 1_555
O25 Co11 1_555 1_555
C76 C77 1_555 1_555
C93 C94 1_555 1_555
C102 C103 1_555 1_555
C112 C113 1_555 1_555
C118 C121 1_555 1_555
C119 C120 1_555 1_555
C127 C128 1_555 1_555
C134 C135 1_555 1_555
N16 C82 1_555 1_555
N21 C86 1_555 1_555
C69 H53 1_555 1_555
C71 N18 1_555 1_555
C83 C82 1_555 1_555
H62 C83 1_555 1_555
C85 N16 1_555 1_555
H64 C85 1_555 1_555
C86 C85 1_555 1_555
H65 C86 1_555 1_555
C87 N16 1_555 1_555
H66 C87 1_555 1_555
N21 C87 1_555 1_555
N14_2 C92_2 1_555 1_555
N16_2 C82_2 1_555 1_555
N17 C86_2 1_555 1_555
N18_2 C70_2 1_555 1_555
N19 C69_2 1_555 1_555
C69_2 H53_2 1_555 1_555
C70_2 C69_2 1_555 1_555
H54_2 C70_2 1_555 1_555
C71_2 N18_2 1_555 1_555
H55_2 C71_2 1_555 1_555
C72_2 N18_2 1_555 1_555
C73_2 C72_2 1_555 1_555
H56_2 C73_2 1_555 1_555
C74_2 C73_2 1_555 1_555
H57_2 C74_2 1_555 1_555
C75_2 C74_2 1_555 1_555
C76_2 C75_2 1_555 1_555
H58_2 C76_2 1_555 1_555
C77_2 C72_2 1_555 1_555
H59_2 C77_2 1_555 1_555
C78_2 C75_2 1_555 1_555
C79_2 C78_2 1_555 1_555
C80_2 C79_2 1_555 1_555
H60_2 C80_2 1_555 1_555
C81_2 C80_2 1_555 1_555
H61_2 C81_2 1_555 1_555
C82_2 C81_2 1_555 1_555
C83_2 C82_2 1_555 1_555
H62_2 C83_2 1_555 1_555
C84_2 C79_2 1_555 1_555
H63_2 C84_2 1_555 1_555
C85_2 N16_2 1_555 1_555
H64_2 C85_2 1_555 1_555
C86_2 C85_2 1_555 1_555
C87_2 N16_2 1_555 1_555
H66_2 C87_2 1_555 1_555
C88_2 C78_2 1_555 1_555
C89_2 C88_2 1_555 1_555
C90_2 C89_2 1_555 1_555
H67_2 C90_2 1_555 1_555
C91_2 C90_2 1_555 1_555
C92_2 C91_2 1_555 1_555
C93_2 C92_2 1_555 1_555
H69_2 C93_2 1_555 1_555
C94_2 C89_2 1_555 1_555
H70_2 C94_2 1_555 1_555
C95_2 N14_2 1_555 1_555
H71_2 C95_2 1_555 1_555
C96_2 C95_2 1_555 1_555
C98_2 C88_2 1_555 1_555
C99_2 C98_2 1_555 1_555
H74_2 C99_2 1_555 1_555
C102_2 C101_2 1_555 1_555
H76_2 C102_2 1_555 1_555
C103_2 C98_2 1_555 1_555
H77_2 C103_2 1_555 1_555
Co11 N19 1_555 1_555
Co12 N17 1_555 1_555
N17 C87_2 1_555 1_555
N19 C71_2 1_555 1_555
C76_2 C77_2 1_555 1_555
C83_2 C84_2 1_555 1_555
C93_2 C94_2 1_555 1_555
C102_2 C103_2 1_555 1_555
O26 C136_2 1_555 1_555
O27 C136_2 1_555 1_555
H89_2 C124_2 1_555 1_555
C125_2 C124_2 1_555 1_555
H90_2 C125_2 1_555 1_555
C126_2 C125_2 1_555 1_555
C127_2 C126_2 1_555 1_555
C129_2 C126_2 1_555 1_555
C130_2 C129_2 1_555 1_555
C131_2 C130_2 1_555 1_555
C132_2 C131_2 1_555 1_555
C133_2 C132_2 1_555 1_555
C134_2 C133_2 1_555 1_555
H95_2 C134_2 1_555 1_555
C135_2 C130_2 1_555 1_555
C136_2 C133_2 1_555 1_555
C134_2 C135_2 1_555 1_555
Co11 O15_2 1_555 1_555
O15_2 H51_2 1_555 1_555
H52_2 O15_2 1_555 1_555
O18_2 C114_2 1_555 1_555
O19_2 Co11 1_555 1_555
O20_2 C107_2 1_555 1_555
C107_2 O19_2 1_555 1_555
C108_2 C107_2 1_555 1_555
C109_2 C108_2 1_555 1_555
H81_2 C109_2 1_555 1_555
C110_2 C109_2 1_555 1_555
H82_2 C110_2 1_555 1_555
C111_2 C110_2 1_555 1_555
C112_2 C111_2 1_555 1_555
H83_2 C112_2 1_555 1_555
C113_2 C108_2 1_555 1_555
H84_2 C113_2 1_555 1_555
C114_2 C111_2 1_555 1_555
C115_2 C114_2 1_555 1_555
C116_2 C115_2 1_555 1_555
H85_2 C116_2 1_555 1_555
C117_2 C116_2 1_555 1_555
H86_2 C117_2 1_555 1_555
C118_2 C117_2 1_555 1_555
C119_2 C118_2 1_555 1_555
H87_2 C119_2 1_555 1_555
C120_2 C115_2 1_555 1_555
H88_2 C120_2 1_555 1_555
C121_2 O17_2 1_555 1_555
N20 Co11 1_555 1_555
C112_2 C113_2 1_555 1_555
C118_2 C121_2 1_555 1_555
C119_2 C120_2 1_555 1_555
Co12 N15_2 1_555 1_555
N20 C105_2 1_555 1_555
O14_2 Co12 1_555 1_555
H50_2 O14_2 1_555 1_555
H73_2 C97_2 1_555 1_555
H75_2 C100_2 1_555 1_555
C104_2 N13_2 1_555 1_555
H78_2 C104_2 1_555 1_555
C105_2 C104_2 1_555 1_555
H79_2 C105_2 1_555 1_555
C106_2 N20 1_555 1_555
H80_2 C106_2 1_555 1_555
N13_2 C106_2 1_555 1_555
N15_2 C97_2 1_555 1_555
O21_2 C122_2 1_555 1_555
C122_2 O22_2 1_555 1_555
C123_2 C122_2 1_555 1_555
C128_2 C123_2 1_555 1_555
H92_2 C128_2 1_555 1_555
N16_3 C82_3 1_555 1_555
N17_2 C86_3 1_555 1_555
C69_3 H53_3 1_555 1_555
C71_3 N18_3 1_555 1_555
C83_3 C82_3 1_555 1_555
H62_3 C83_3 1_555 1_555
C85_3 N16_3 1_555 1_555
H64_3 C85_3 1_555 1_555
C86_3 C85_3 1_555 1_555
H65_3 C86_3 1_555 1_555
C87_3 N16_3 1_555 1_555
H66_3 C87_3 1_555 1_555
Co12_2 N17_2 1_555 1_555
N17_2 C87_3 1_555 1_555
Co9 N19_2 1_555 1_555
Co9 O15_3 1_555 1_555
Co12_2 N15_3 1_555 1_555
N20_2 C105_3 1_555 1_555
N13_3 C101_3 1_555 1_555
N14_3 C92_3 1_555 1_555
N15_3 C96_3 1_555 1_555
O14_3 Co12_2 1_555 1_555
H49_3 O14_3 1_555 1_555
H50_3 O14_3 1_555 1_555
O15_3 H51_3 1_555 1_555
H52_3 O15_3 1_555 1_555
O16_3 C121_3 1_555 1_555
O17_3 Co12_2 1_555 1_555
O18_3 C114_3 1_555 1_555
O19_3 Co9 1_555 1_555
O20_3 C107_3 1_555 1_555
O21_3 C122_3 1_555 1_555
O22_3 Co12_2 1_555 1_555
O23_3 C129_3 1_555 1_555
O24_2 C136_3 1_555 1_555
O25_2 C136_3 1_555 1_555
H54_3 C70_3 1_555 1_555
C73_3 C72_3 1_555 1_555
C74_3 C73_3 1_555 1_555
H57_3 C74_3 1_555 1_555
C75_3 C74_3 1_555 1_555
C76_3 C75_3 1_555 1_555
H58_3 C76_3 1_555 1_555
C77_3 C72_3 1_555 1_555
H59_3 C77_3 1_555 1_555
C78_3 C75_3 1_555 1_555
C79_3 C78_3 1_555 1_555
C80_3 C79_3 1_555 1_555
H60_3 C80_3 1_555 1_555
C81_3 C80_3 1_555 1_555
H61_3 C81_3 1_555 1_555
C84_3 C79_3 1_555 1_555
H63_3 C84_3 1_555 1_555
C88_3 C78_3 1_555 1_555
C89_3 C88_3 1_555 1_555
C90_3 C89_3 1_555 1_555
H67_3 C90_3 1_555 1_555
C91_3 C90_3 1_555 1_555
H68_3 C91_3 1_555 1_555
C92_3 C91_3 1_555 1_555
C93_3 C92_3 1_555 1_555
H69_3 C93_3 1_555 1_555
C94_3 C89_3 1_555 1_555
H70_3 C94_3 1_555 1_555
C95_3 N14_3 1_555 1_555
H71_3 C95_3 1_555 1_555
C96_3 C95_3 1_555 1_555
H72_3 C96_3 1_555 1_555
C97_3 N14_3 1_555 1_555
H73_3 C97_3 1_555 1_555
C98_3 C88_3 1_555 1_555
C99_3 C98_3 1_555 1_555
H74_3 C99_3 1_555 1_555
C100_3 C99_3 1_555 1_555
H75_3 C100_3 1_555 1_555
C101_3 C100_3 1_555 1_555
C102_3 C101_3 1_555 1_555
H76_3 C102_3 1_555 1_555
C103_3 C98_3 1_555 1_555
H77_3 C103_3 1_555 1_555
C104_3 N13_3 1_555 1_555
H78_3 C104_3 1_555 1_555
C105_3 C104_3 1_555 1_555
H79_3 C105_3 1_555 1_555
C106_3 N20_2 1_555 1_555
C107_3 O19_3 1_555 1_555
C108_3 C107_3 1_555 1_555
C109_3 C108_3 1_555 1_555
H81_3 C109_3 1_555 1_555
C110_3 C109_3 1_555 1_555
H82_3 C110_3 1_555 1_555
C111_3 C110_3 1_555 1_555
C112_3 C111_3 1_555 1_555
H83_3 C112_3 1_555 1_555
C113_3 C108_3 1_555 1_555
H84_3 C113_3 1_555 1_555
C114_3 C111_3 1_555 1_555
C115_3 C114_3 1_555 1_555
C116_3 C115_3 1_555 1_555
H85_3 C116_3 1_555 1_555
C117_3 C116_3 1_555 1_555
H86_3 C117_3 1_555 1_555
C118_3 C117_3 1_555 1_555
C119_3 C118_3 1_555 1_555
H87_3 C119_3 1_555 1_555
C120_3 C115_3 1_555 1_555
H88_3 C120_3 1_555 1_555
C121_3 O17_3 1_555 1_555
C122_3 O22_3 1_555 1_555
C123_3 C122_3 1_555 1_555
C124_3 C123_3 1_555 1_555
H89_3 C124_3 1_555 1_555
C125_3 C124_3 1_555 1_555
H90_3 C125_3 1_555 1_555
C126_3 C125_3 1_555 1_555
C127_3 C126_3 1_555 1_555
H91_3 C127_3 1_555 1_555
C128_3 C123_3 1_555 1_555
H92_3 C128_3 1_555 1_555
C129_3 C126_3 1_555 1_555
C130_3 C129_3 1_555 1_555
C131_3 C130_3 1_555 1_555
H93_3 C131_3 1_555 1_555
C132_3 C131_3 1_555 1_555
H94_3 C132_3 1_555 1_555
C133_3 C132_3 1_555 1_555
C134_3 C133_3 1_555 1_555
H95_3 C134_3 1_555 1_555
C135_3 C130_3 1_555 1_555
H96_3 C135_3 1_555 1_555
C136_3 C133_3 1_555 1_555
Co11_2 O24_2 1_555 1_555
O26_2 Co9 1_555 1_555
O27_2 Co9 1_555 1_555
N13_3 C106_3 1_555 1_555
N15_3 C97_3 1_555 1_555
O25_2 Co11_2 1_555 1_555
C76_3 C77_3 1_555 1_555
C93_3 C94_3 1_555 1_555
C102_3 C103_3 1_555 1_555
C112_3 C113_3 1_555 1_555
C118_3 C121_3 1_555 1_555
C119_3 C120_3 1_555 1_555
C127_3 C128_3 1_555 1_555
C134_3 C135_3 1_555 1_555
Co8_2 N15_4 1_555 1_555
N12_2 C105_4 1_555 1_555
O14_4 Co8_2 1_555 1_555
H50_4 O14_4 1_555 1_555
H73_4 C97_4 1_555 1_555
H75_4 C100_4 1_555 1_555
C104_4 N13_4 1_555 1_555
H78_4 C104_4 1_555 1_555
C105_4 C104_4 1_555 1_555
H79_4 C105_4 1_555 1_555
C106_4 N12_2 1_555 1_555
H80_4 C106_4 1_555 1_555
Co11_2 N12_2 1_555 1_555
N21_2 Co8_2 1_555 1_555
N13_4 C106_4 1_555 1_555
N15_4 C97_4 1_555 1_555
Co11_2 O15_4 1_555 1_555
O15_4 H51_4 1_555 1_555
H52_4 O15_4 1_555 1_555
O18_4 C114_4 1_555 1_555
O19_4 Co11_2 1_555 1_555
O20_4 C107_4 1_555 1_555
C107_4 O19_4 1_555 1_555
C108_4 C107_4 1_555 1_555
C109_4 C108_4 1_555 1_555
H81_4 C109_4 1_555 1_555
C110_4 C109_4 1_555 1_555
H82_4 C110_4 1_555 1_555
C111_4 C110_4 1_555 1_555
C112_4 C111_4 1_555 1_555
H83_4 C112_4 1_555 1_555
C113_4 C108_4 1_555 1_555
H84_4 C113_4 1_555 1_555
C114_4 C111_4 1_555 1_555
C115_4 C114_4 1_555 1_555
C116_4 C115_4 1_555 1_555
H85_4 C116_4 1_555 1_555
C117_4 C116_4 1_555 1_555
H86_4 C117_4 1_555 1_555
C118_4 C117_4 1_555 1_555
C119_4 C118_4 1_555 1_555
H87_4 C119_4 1_555 1_555
C120_4 C115_4 1_555 1_555
H88_4 C120_4 1_555 1_555
C121_4 O17_4 1_555 1_555
N22_2 Co11_2 1_555 1_555
C112_4 C113_4 1_555 1_555
C118_4 C121_4 1_555 1_555
C119_4 C120_4 1_555 1_555
O26_2 C136_4 1_555 1_555
O27_2 C136_4 1_555 1_555
H89_4 C124_4 1_555 1_555
C125_4 C124_4 1_555 1_555
H90_4 C125_4 1_555 1_555
C126_4 C125_4 1_555 1_555
C127_4 C126_4 1_555 1_555
C129_4 C126_4 1_555 1_555
C130_4 C129_4 1_555 1_555
C131_4 C130_4 1_555 1_555
C132_4 C131_4 1_555 1_555
C133_4 C132_4 1_555 1_555
C134_4 C133_4 1_555 1_555
H95_4 C134_4 1_555 1_555
C135_4 C130_4 1_555 1_555
C136_4 C133_4 1_555 1_555
C134_4 C135_4 1_555 1_555
N14_4 C92_4 1_555 1_555
N16_4 C82_4 1_555 1_555
N21_2 C86_4 1_555 1_555
N18_4 C70_4 1_555 1_555
N22_2 C69_4 1_555 1_555
C69_4 H53_4 1_555 1_555
C70_4 C69_4 1_555 1_555
H54_4 C70_4 1_555 1_555
C71_4 N18_4 1_555 1_555
H55_4 C71_4 1_555 1_555
C72_4 N18_4 1_555 1_555
C73_4 C72_4 1_555 1_555
H56_4 C73_4 1_555 1_555
C74_4 C73_4 1_555 1_555
H57_4 C74_4 1_555 1_555
C75_4 C74_4 1_555 1_555
C76_4 C75_4 1_555 1_555
H58_4 C76_4 1_555 1_555
C77_4 C72_4 1_555 1_555
H59_4 C77_4 1_555 1_555
C78_4 C75_4 1_555 1_555
C79_4 C78_4 1_555 1_555
C80_4 C79_4 1_555 1_555
H60_4 C80_4 1_555 1_555
C81_4 C80_4 1_555 1_555
H61_4 C81_4 1_555 1_555
C82_4 C81_4 1_555 1_555
C83_4 C82_4 1_555 1_555
H62_4 C83_4 1_555 1_555
C84_4 C79_4 1_555 1_555
H63_4 C84_4 1_555 1_555
C85_4 N16_4 1_555 1_555
H64_4 C85_4 1_555 1_555
C86_4 C85_4 1_555 1_555
C87_4 N16_4 1_555 1_555
H66_4 C87_4 1_555 1_555
C88_4 C78_4 1_555 1_555
C89_4 C88_4 1_555 1_555
C90_4 C89_4 1_555 1_555
H67_4 C90_4 1_555 1_555
C91_4 C90_4 1_555 1_555
C92_4 C91_4 1_555 1_555
C93_4 C92_4 1_555 1_555
H69_4 C93_4 1_555 1_555
C94_4 C89_4 1_555 1_555
H70_4 C94_4 1_555 1_555
C95_4 N14_4 1_555 1_555
H71_4 C95_4 1_555 1_555
C96_4 C95_4 1_555 1_555
C98_4 C88_4 1_555 1_555
C99_4 C98_4 1_555 1_555
H74_4 C99_4 1_555 1_555
C102_4 C101_4 1_555 1_555
H76_4 C102_4 1_555 1_555
C103_4 C98_4 1_555 1_555
H77_4 C103_4 1_555 1_555
N21_2 C87_4 1_555 1_555
N22_2 C71_4 1_555 1_555
C76_4 C77_4 1_555 1_555
C83_4 C84_4 1_555 1_555
C93_4 C94_4 1_555 1_555
C102_4 C103_4 1_555 1_555
O21_4 C122_4 1_555 1_555
C122_4 O22_4 1_555 1_555
C123_4 C122_4 1_555 1_555
C128_4 C123_4 1_555 1_555
H92_4 C128_4 1_555 1_555

#END
