
###############################################################################
#
# This file contains modified crystal structure data generated from the
# MOF subset of the Cambridge Structural Database (CSD) v543 
# hosted by the Cambridge Crystallographic Data Centre (CCDC).
#
# This work is licensed under the Creative Commons
# Attribution-NonCommercial-ShareAlike 4.0 International License.
# To view a copy of this license, visit
# http://creativecommons.org/licenses/by-nc-sa/4.0/
# or send a letter to
# Creative Commons, PO Box 1866, Mountain View, CA 94042, USA.
#
# CIF created using the CSD Python API on 29 September 2022
# The structure has been converted into the P1 space group
# The structure has a 3D framework
# The original CSD entry GOSVIW is in the triclinic crystal system
# The framework has been calculated to contain at least 10.0% void space
# The void calculation uses a probe of radius 1.32A, grid spacing 0.4
#
###############################################################################

data_GOSVIW
_chemical_formula_moiety         '(C264 H176 Cd8 N28 O38)n'
_symmetry_cell_setting           triclinic
_symmetry_space_group_name_H-M   'P 1'
_symmetry_Int_Tables_number      1
_space_group_name_Hall           'P 1'
loop_
_symmetry_equiv_pos_site_id
_symmetry_equiv_pos_as_xyz
1 x,y,z
_cell_length_a                   10.106(3)
_cell_length_b                   23.323(8)
_cell_length_c                   26.521(8)
_cell_angle_alpha                90.103(5)
_cell_angle_beta                 98.342(6)
_cell_angle_gamma                90.546(6)
_cell_volume                     6184.61
loop_
_atom_site_label
_atom_site_type_symbol
_atom_site_fract_x
_atom_site_fract_y
_atom_site_fract_z
C53 C 0.0523(14) 0.3348(6) 0.3290(5)
C54 C 0.1136(12) 0.2973(5) 0.3727(4)
C55 C 0.1113(14) 0.2386(5) 0.3700(4)
H37 H 0.0681 0.2200 0.3401
C56 C 0.1718(13) 0.2059(5) 0.4107(4)
H38 H 0.1691 0.1653 0.4089
C57 C 0.2364(12) 0.2335(5) 0.4541(4)
C58 C 0.2400(12) 0.2941(5) 0.4572(4)
H39 H 0.2843 0.3133 0.4867
C59 C 0.1785(13) 0.3240(5) 0.4169(5)
H40 H 0.1794 0.3647 0.4187
C60 C 0.3345(15) 0.2228(6) 0.5412(4)
C61 C 0.2424(14) 0.2473(5) 0.5667(6)
H41 H 0.1506 0.2481 0.5525
C62 C 0.2861(13) 0.2710(6) 0.6134(5)
H42 H 0.2232 0.2878 0.6321
C63 C 0.4164(13) 0.2708(5) 0.6333(5)
C64 C 0.5053(17) 0.2450(9) 0.6082(6)
H43 H 0.5963 0.2427 0.6233
C65 C 0.4648(17) 0.2217(8) 0.5603(6)
H44 H 0.5280 0.2052 0.5415
C66 C 0.4660(15) 0.3052(6) 0.6817(4)
H45 H 0.0644 0.4822 0.3503
C70 C 0.0241(12) 0.5881(5) 0.3910(4)
C71 C 0.1603(13) 0.5909(6) 0.3999(5)
H48 H 0.2109 0.5729 0.3768
C72 C 0.2249(12) 0.6194(5) 0.4416(5)
H49 H 0.3198 0.6192 0.4486
C73 C 0.1519(11) 0.6486(5) 0.4739(4)
C74 C 0.0128(12) 0.6459(6) 0.4633(5)
C76 C 0.2222(12) 0.6794(5) 0.5198(4)
C77 C 0.2163(11) 0.7351(5) 0.5266(4)
C78 C 0.1480(11) 0.7755(5) 0.4882(4)
C79 C 0.1620(12) 0.7705(5) 0.4370(4)
H52 H 0.2200 0.7420 0.4272
C80 C 0.0971(13) 0.8043(5) 0.4007(5)
H53 H 0.1095 0.7998 0.3661
C81 C 0.0124(11) 0.8453(5) 0.4145(4)
C83 C 0.0657(12) 0.8195(5) 0.5019(4)
H55 H 0.0561 0.8255 0.5366
H56 H 0.0762 0.8977 0.3261
C87 C 0.2836(10) 0.7618(4) 0.5761(4)
C88 C 0.2566(12) 0.7432(6) 0.6217(4)
H59 H 0.1822 0.7183 0.6227
C89 C 0.3332(13) 0.7593(6) 0.6668(5)
H60 H 0.3154 0.7440 0.6983
C90 C 0.4370(11) 0.7981(5) 0.6651(4)
C91 C 0.4636(12) 0.8184(5) 0.6200(4)
H61 H 0.5363 0.8444 0.6189
C92 C 0.3856(12) 0.8016(5) 0.5755(4)
H62 H 0.4021 0.8174 0.5440
C93 C 0.6439(15) 0.8368(7) 0.7142(5)
H63 H 0.6807 0.8506 0.6855
C94 C 0.5045(15) 0.7998(7) 0.7608(4)
H64 H 0.4282 0.7822 0.7716
C95 C 0.6141(16) 0.8179(7) 0.7900(6)
H65 H 0.6276 0.8157 0.8262
C96 C 0.3017(11) 0.6401(5) 0.5568(4)
C97 C 0.2414(13) 0.5952(6) 0.5776(5)
H66 H 0.1477 0.5894 0.5688
C98 C 0.3145(12) 0.5578(5) 0.6115(5)
H67 H 0.2716 0.5271 0.6264
C99 C 0.4496(11) 0.5663(5) 0.6229(4)
C100 C 0.5116(12) 0.6115(5) 0.6035(5)
H68 H 0.6049 0.6178 0.6129
C101 C 0.4375(12) 0.6479(6) 0.5701(5)
H69 H 0.4808 0.6790 0.5559
C102 C 0.4995(13) 0.4737(6) 0.6686(5)
H70 H 0.4238 0.4530 0.6523
C103 C 0.6446(12) 0.5423(6) 0.6892(5)
H71 H 0.6910 0.5780 0.6907
C104 C 0.6781(13) 0.4955(6) 0.7168(5)
H72 H 0.7548 0.4925 0.7420
N11 N 0.5278(9) 0.5276(4) 0.6578(3)
N12 N 0.5869(11) 0.4528(4) 0.7039(4)
N15 N 0.5238(10) 0.8120(5) 0.7109(3)
N16 N 0.7070(12) 0.8403(5) 0.7616(4)
O7 O 0.0923(14) 0.3853(5) 0.3280(4)
O8 O 0.2941(10) 0.1989(4) 0.4923(3)
O9 O 0.5850(11) 0.3027(6) 0.7004(4)
O10 O 0.3867(10) 0.3344(4) 0.7008(4)
Cd5 Cd 0.55923(9) 0.37735(4) 0.75810(3)
Cd10 Cd 0.92107(11) 0.86620(4) 0.78032(3)
O22 O 0.0903(14) 0.4473(6) 0.2099(4)
H2 H 0.4017 0.4367 0.0048
C8 C 0.2094(14) 0.4980(6) 0.0398(5)
C9 C 0.1320(18) 0.4483(7) 0.0352(5)
H5 H 0.1134 0.4298 0.0030
C10 C 0.0839(17) 0.4263(6) 0.0743(5)
H6 H 0.0274 0.3933 0.0695
C11 C 0.1146(12) 0.4506(5) 0.1227(4)
C12 C 0.1907(17) 0.4997(6) 0.1276(5)
H7 H 0.2101 0.5177 0.1600
C13 C 0.2392(17) 0.5234(7) 0.0870(5)
H8 H 0.2931 0.5572 0.0912
C14 C 0.0543(13) 0.4264(6) 0.1675(5)
C1 C 0.4531(14) 0.4145(6) 0.8388(4)
C2 C 0.3923(14) 0.4408(6) 0.8827(4)
C3 C 0.4268(15) 0.4221(7) 0.9308(5)
H1 H 0.4844 0.3902 0.9375
C4 C 0.3773(16) 0.4498(6) 0.9709(5)
C5 C 0.2933(14) 0.4959(6) 0.9614(5)
C6 C 0.2620(17) 0.5160(8) 0.9128(5)
H3 H 0.2056 0.5483 0.9061
C7 C 0.3118(16) 0.4897(7) 0.8744(5)
H4 H 0.2920 0.5046 0.8409
C15 C 0.8341(12) 0.3581(5) 0.8301(4)
H9 H 0.7836 0.3507 0.8570
C16 C 0.8902(19) 0.3801(8) 0.7589(8)
H10 H 0.8855 0.3910 0.7242
C17 C 0.9994(18) 0.3681(8) 0.7888(7)
H15 H 0.9722 0.3719 0.9317
H16 H 0.9992 0.1685 0.9653
C28 C 0.9838(13) 0.1109(7) 0.9094(5)
H17 H 0.8890 0.1120 0.9022
C33 C 0.8895(16) 0.0536(7) 0.8024(6)
H21 H 0.8595 0.0913 0.7935
C34 C 0.8489(16) 0.0060(7) 0.7788(6)
H22 H 0.7817 0.0031 0.7499
C125 C 0.9909(15) 0.9519(7) 0.6135(5)
H84 H 0.8975 0.9532 0.6148
N1 N 0.7812(10) 0.3746(5) 0.7849(4)
N2 N 0.9651(10) 0.3525(4) 0.8348(4)
N3 N 0.9843(11) 0.0386(5) 0.8429(4)
O1 O 0.5354(11) 0.3788(5) 0.8466(3)
O2 O 0.4185(13) 0.4337(6) 0.7952(5)
O3 O 0.2512(11) 0.5273(4) 0.9988(3)
O14 O 0.9552(12) 0.7898(6) 0.8370(5)
O17 O 0.8909(12) 0.8927(5) 0.6913(4)
N17 N 0.9188(11) 0.9608(5) 0.8025(4)
C130 C 0.3772(15) 0.0243(7) 0.4296(6)
H87 H 0.4100 0.0531 0.4092
C131 C 0.3288(13) 0.0409(5) 0.4721(6)
H88 H 0.3264 0.0803 0.4809
O18 O 0.2334(12) 0.0195(4) 0.5453(4)
Cd2 Cd 0.94197(10) 0.40130(4) 0.25168(3)
Cd3 Cd 0.55459(10) 0.92341(4) 0.28722(3)
C24 C 0.2563(11) 0.2369(5) 0.0011(4)
C25 C 0.2589(11) 0.1795(5) 0.0023(4)
C35 C 0.3287(11) 0.2720(5) 0.0442(4)
C36 C 0.4365(12) 0.3058(5) 0.0381(4)
H23 H 0.4618 0.3089 0.0051
C37 C 0.5095(13) 0.3355(6) 0.0773(5)
H24 H 0.5864 0.3572 0.0719
C38 C 0.4685(12) 0.3332(6) 0.1251(5)
C39 C 0.3540(12) 0.3025(5) 0.1323(4)
H25 H 0.3240 0.3020 0.1646
C40 C 0.2844(12) 0.2727(5) 0.0913(5)
H26 H 0.2049 0.2523 0.0956
C41 C 0.6784(13) 0.3624(5) 0.1772(4)
H27 H 0.7348 0.3483 0.1544
C42 C 0.5010(18) 0.3893(8) 0.2094(7)
H28 H 0.4114 0.3972 0.2138
C43 C 0.6100(18) 0.4029(8) 0.2398(7)
H29 H 0.6109 0.4221 0.2715
C44 C 0.3330(12) 0.1464(5) 0.0454(4)
C45 C 0.4709(12) 0.1533(6) 0.0598(5)
H30 H 0.5180 0.1804 0.0422
C46 C 0.5387(13) 0.1229(6) 0.0978(5)
H31 H 0.6327 0.1279 0.1064
C47 C 0.4708(12) 0.0842(6) 0.1244(4)
C48 C 0.3331(13) 0.0771(6) 0.1122(5)
H32 H 0.2858 0.0515 0.1311
C49 C 0.2668(12) 0.1075(5) 0.0723(5)
H33 H 0.1733 0.1018 0.0630
C50 C 0.6634(15) 0.0700(8) 0.1934(7)
H34 H 0.7178 0.1018 0.1868
C51 C 0.6877(15) 0.0310(7) 0.2304(5)
H35 H 0.7653 0.0313 0.2554
C52 C 0.5002(14) 0.0065(6) 0.1890(5)
C67 C 0.9905(13) 0.5034(5) 0.3340(5)
C68 C 0.8187(13) 0.5269(6) 0.2817(5)
H46 H 0.7475 0.5254 0.2540
C69 C 0.8463(12) 0.5721(6) 0.3146(5)
H47 H 0.7998 0.6073 0.3146
H50 H 0.9605 0.6648 0.4852
C75 C 0.9495(13) 0.6156(6) 0.4209(5)
H51 H 0.8547 0.6145 0.4135
C82 C 0.9997(11) 0.8535(4) 0.4649(4)
H54 H 0.9442 0.8833 0.4740
C84 C 0.9864(16) 0.8990(6) 0.3327(6)
C85 C 0.8837(17) 0.9204(9) 0.3033(6)
H57 H 0.8874 0.9384 0.2715
C86 C 0.8058(13) 0.8887(5) 0.3677(5)
H58 H 0.7475 0.8788 0.3915
C105 C 0.4638(17) 0.8436(6) 0.2170(5)
C106 C 0.4108(14) 0.8022(6) 0.1732(5)
C107 C 0.5005(15) 0.7731(7) 0.1512(5)
H73 H 0.5925 0.7743 0.1652
C108 C 0.4569(15) 0.7407(7) 0.1071(6)
H74 H 0.5195 0.7206 0.0904
C109 C 0.3260(14) 0.7384(6) 0.0889(5)
C110 C 0.2356(14) 0.7646(6) 0.1134(5)
H75 H 0.1428 0.7608 0.1014
C111 C 0.2793(14) 0.7969(5) 0.1562(5)
H76 H 0.2163 0.8154 0.1738
C112 C 0.2273(13) 0.7358(6) 0.0018(5)
H77 H 0.2893 0.8158 0.0215
N5 N 0.5396(11) 0.0533(5) 0.1664(4)
N7 N 0.5469(10) 0.3599(5) 0.1676(4)
N8 N 0.7239(11) 0.3861(5) 0.2210(4)
N9 N 0.9079(11) 0.4848(5) 0.2944(4)
N10 N 0.9583(10) 0.5549(5) 0.3483(4)
N13 N 0.7674(12) 0.9128(5) 0.3255(4)
N14 N 0.9371(11) 0.8788(5) 0.3753(4)
O6 O 0.9687(12) 0.3148(5) 0.2949(4)
O11 O 0.5813(11) 0.8426(5) 0.2359(4)
O12 O 0.3819(11) 0.8765(5) 0.2317(4)
O13 O 0.2845(10) 0.7054(4) 0.0450(3)
N18 N 0.5875(12) 0.9906(5) 0.2281(4)
O21 O 0.9732(11) 0.3880(5) 0.1612(4)
O25 O 0.4577(14) 0.8982(5) 0.3600(4)
O26 O 0.4541(12) 0.9871(5) 0.3351(4)
H11 H 0.0875 0.3699 0.7803
C18 C 0.0508(12) 0.3277(5) 0.8749(4)
C19 C 0.1349(13) 0.2855(7) 0.8671(4)
H12 H 0.1473 0.2760 0.8332
C20 C 0.2031(12) 0.2560(5) 0.9069(4)
H13 H 0.2599 0.2255 0.9004
C21 C 0.1904(11) 0.2700(4) 0.9564(4)
C22 C 0.1076(12) 0.3152(5) 0.9654(4)
H14 H 0.1025 0.3269 0.9994
C23 C 0.0337(13) 0.3430(5) 0.9257(5)
C26 C 0.1859(12) 0.1428(5) 0.9598(4)
C27 C 0.0493(12) 0.1437(5) 0.9470(5)
C29 C 0.0547(13) 0.0756(5) 0.8814(5)
C30 C 0.1932(14) 0.0745(6) 0.8926(6)
H18 H 0.2429 0.0509 0.8731
C31 C 0.2596(14) 0.1078(5) 0.9321(6)
H19 H 0.3543 0.1065 0.9400
C113 C 0.2386(13) 0.7929(6) 0.9958(5)
C114 C 0.1751(13) 0.8172(5) 0.9519(4)
H78 H 0.1784 0.8577 0.9485
C115 C 0.1067(13) 0.7854(6) 0.9125(5)
C116 C 0.1035(13) 0.7262(5) 0.9187(5)
H79 H 0.0581 0.7030 0.8920
C117 C 0.1641(13) 0.7006(6) 0.9621(5)
H80 H 0.1636 0.6601 0.9654
C118 C 0.0430(15) 0.8136(6) 0.8656(5)
C119 C 0.0076(16) 0.8929(5) 0.6914(5)
C120 C 0.0712(14) 0.9206(5) 0.6478(5)
C121 C 0.2033(14) 0.9183(6) 0.6467(5)
H81 H 0.2584 0.8952 0.6705
C122 C 0.2583(16) 0.9497(7) 0.6110(6)
H82 H 0.3517 0.9481 0.6098
C123 C 0.1798(15) 0.9828(6) 0.5779(5)
C124 C 0.0441(16) 0.9812(6) 0.5775(5)
C126 C 0.2827(13) 0.9993(5) 0.5027(5)
C127 C 0.2858(14) 0.9421(5) 0.4882(5)
H85 H 0.2531 0.9132 0.5085
C128 C 0.3349(13) 0.9277(5) 0.4457(5)
H86 H 0.3376 0.8882 0.4368
C129 C 0.3817(13) 0.9678(5) 0.4143(5)
C132 C 0.4350(14) 0.9516(6) 0.3682(6)
O15 O 0.0844(16) 0.8629(6) 0.8555(5)
O16 O 0.0856(13) 0.8715(5) 0.7272(4)
H36 H 0.4183 0.9868 0.1781
C32 C 0.0049(15) 0.9810(5) 0.8396(6)
H20 H 0.0705 0.9595 0.8607
H83 H 0.9872 0.0009 0.5517
O4 O 0.0268(11) 0.6120(5) 0.8388(4)
Cd6 Cd 0.05803(10) 0.59870(4) 0.74832(3)
H36_2 H 0.5817 0.0132 0.8219
N6 N 0.4125(12) 0.0094(5) 0.7719(4)
Cd7 Cd 0.44541(10) 0.07659(4) 0.71278(3)
H11_2 H 0.9125 0.6301 0.2197
C18_2 C 0.9492(12) 0.6723(5) 0.1251(4)
C19_2 C 0.8651(13) 0.7145(7) 0.1329(4)
H12_2 H 0.8527 0.7240 0.1668
C20_2 C 0.7969(12) 0.7440(5) 0.0931(4)
H13_2 H 0.7401 0.7745 0.0996
C21_2 C 0.8096(11) 0.7300(4) 0.0436(4)
C22_2 C 0.8924(12) 0.6848(5) 0.0346(4)
H14_2 H 0.8975 0.6731 0.0006
C23_2 C 0.9663(13) 0.6570(5) 0.0743(5)
C26_2 C 0.8141(12) 0.8572(5) 0.0402(4)
C27_2 C 0.9507(12) 0.8563(5) 0.0530(5)
C29_2 C 0.9453(13) 0.9244(5) 0.1186(5)
C30_2 C 0.8068(14) 0.9255(6) 0.1074(6)
H18_2 H 0.7571 0.9491 0.1269
C31_2 C 0.7404(14) 0.8922(5) 0.0679(6)
H19_2 H 0.6457 0.8935 0.0600
C113_2 C 0.7614(13) 0.2071(6) 0.0042(5)
C114_2 C 0.8249(13) 0.1828(5) 0.0481(4)
H78_2 H 0.8216 0.1423 0.0515
C115_2 C 0.8933(13) 0.2146(6) 0.0875(5)
C116_2 C 0.8965(13) 0.2738(5) 0.0813(5)
H79_2 H 0.9419 0.2970 0.1080
C117_2 C 0.8359(13) 0.2994(6) 0.0379(5)
H80_2 H 0.8364 0.3399 0.0346
C118_2 C 0.9570(15) 0.1864(6) 0.1344(5)
C119_2 C 0.9924(16) 0.1071(5) 0.3086(5)
C120_2 C 0.9288(14) 0.0794(5) 0.3522(5)
C121_2 C 0.7967(14) 0.0817(6) 0.3533(5)
H81_2 H 0.7416 0.1048 0.3295
C122_2 C 0.7417(16) 0.0503(7) 0.3890(6)
H82_2 H 0.6483 0.0519 0.3902
C123_2 C 0.8202(15) 0.0172(6) 0.4221(5)
C124_2 C 0.9559(16) 0.0188(6) 0.4225(5)
C126_2 C 0.7173(13) 0.0007(5) 0.4973(5)
C127_2 C 0.7142(14) 0.0579(5) 0.5118(5)
H85_2 H 0.7469 0.0868 0.4915
C128_2 C 0.6651(13) 0.0723(5) 0.5543(5)
H86_2 H 0.6624 0.1118 0.5632
C129_2 C 0.6183(13) 0.0322(5) 0.5857(5)
C132_2 C 0.5650(14) 0.0484(6) 0.6318(6)
O15_2 O 0.9156(16) 0.1371(6) 0.1445(5)
O16_2 O 0.9144(13) 0.1285(5) 0.2728(4)
O19 O 0.5423(14) 0.1018(5) 0.6400(4)
O20 O 0.5459(12) 0.0129(5) 0.6649(4)
C24_2 C 0.7437(11) 0.7631(5) 0.9989(4)
C25_2 C 0.7411(11) 0.8205(5) 0.9977(4)
C35_2 C 0.6713(11) 0.7280(5) 0.9558(4)
C36_2 C 0.5635(12) 0.6942(5) 0.9619(4)
H23_2 H 0.5382 0.6911 0.9949
C37_2 C 0.4905(13) 0.6645(6) 0.9227(5)
H24_2 H 0.4136 0.6428 0.9281
C38_2 C 0.5315(12) 0.6668(6) 0.8749(5)
C39_2 C 0.6460(12) 0.6975(5) 0.8677(4)
H25_2 H 0.6760 0.6980 0.8354
C40_2 C 0.7156(12) 0.7273(5) 0.9087(5)
H26_2 H 0.7951 0.7477 0.9044
C41_2 C 0.3216(13) 0.6376(5) 0.8228(4)
H27_2 H 0.2652 0.6517 0.8456
C42_2 C 0.4990(18) 0.6107(8) 0.7906(7)
H28_2 H 0.5886 0.6028 0.7862
C43_2 C 0.3900(18) 0.5971(8) 0.7602(7)
H29_2 H 0.3891 0.5779 0.7285
C44_2 C 0.6670(12) 0.8536(5) 0.9546(4)
C45_2 C 0.5291(12) 0.8467(6) 0.9402(5)
H30_2 H 0.4820 0.8196 0.9578
C46_2 C 0.4613(13) 0.8771(6) 0.9022(5)
H31_2 H 0.3673 0.8721 0.8936
C47_2 C 0.5292(12) 0.9158(6) 0.8756(4)
C48_2 C 0.6669(13) 0.9229(6) 0.8878(5)
H32_2 H 0.7142 0.9485 0.8689
C49_2 C 0.7332(12) 0.8925(5) 0.9277(5)
H33_2 H 0.8267 0.8982 0.9370
C50_2 C 0.3366(15) 0.9300(8) 0.8066(7)
H34_2 H 0.2822 0.8982 0.8132
C51_2 C 0.3123(15) 0.9690(7) 0.7696(5)
H35_2 H 0.2347 0.9687 0.7446
C52_2 C 0.4998(14) 0.9935(6) 0.8110(5)
C67_2 C 0.0095(13) 0.4966(5) 0.6660(5)
C68_2 C 0.1813(13) 0.4731(6) 0.7183(5)
H46_2 H 0.2525 0.4746 0.7460
C69_2 C 0.1537(12) 0.4279(6) 0.6854(5)
H47_2 H 0.2002 0.3927 0.6854
H50_2 H 0.0395 0.3352 0.5148
C75_2 C 0.0505(13) 0.3844(6) 0.5791(5)
H51_2 H 0.1453 0.3855 0.5865
C82_2 C 0.0003(11) 0.1465(4) 0.5351(4)
H54_2 H 0.0558 0.1167 0.5260
C84_2 C 0.0136(16) 0.1010(6) 0.6673(6)
C85_2 C 0.1163(17) 0.0796(9) 0.6967(6)
H57_2 H 0.1126 0.0616 0.7285
C86_2 C 0.1942(13) 0.1113(5) 0.6323(5)
H58_2 H 0.2525 0.1212 0.6085
C105_2 C 0.5362(17) 0.1564(6) 0.7830(5)
C106_2 C 0.5892(14) 0.1978(6) 0.8268(5)
C107_2 C 0.4995(15) 0.2269(7) 0.8488(5)
H73_2 H 0.4075 0.2257 0.8348
C108_2 C 0.5431(15) 0.2593(7) 0.8929(6)
H74_2 H 0.4805 0.2794 0.9096
C109_2 C 0.6740(14) 0.2616(6) 0.9111(5)
C110_2 C 0.7644(14) 0.2354(6) 0.8866(5)
H75_2 H 0.8572 0.2392 0.8986
C111_2 C 0.7207(14) 0.2031(5) 0.8438(5)
H76_2 H 0.7837 0.1846 0.8262
C112_2 C 0.7727(13) 0.2642(6) 0.9982(5)
H77_2 H 0.7107 0.1842 0.9785
N5_2 N 0.4604(11) 0.9467(5) 0.8336(4)
N7_2 N 0.4531(10) 0.6401(5) 0.8324(4)
N8_2 N 0.2761(11) 0.6139(5) 0.7790(4)
N9_2 N 0.0921(11) 0.5152(5) 0.7056(4)
N10_2 N 0.0417(10) 0.4451(5) 0.6517(4)
N13_2 N 0.2326(12) 0.0872(5) 0.6745(4)
N14_2 N 0.0629(11) 0.1212(5) 0.6247(4)
O6_2 O 0.0313(12) 0.6852(5) 0.7051(4)
O11_2 O 0.4187(11) 0.1574(5) 0.7641(4)
O12_2 O 0.6181(11) 0.1235(5) 0.7683(4)
O13_2 O 0.7155(10) 0.2946(4) 0.9550(3)
N4 N 0.0812(11) 0.0392(5) 0.1975(4)
Cd9 Cd 0.07893(11) 0.13380(4) 0.21968(3)
Cd1 Cd 0.44077(9) 0.62265(4) 0.24190(3)
C1_2 C 0.5469(14) 0.5855(6) 0.1612(4)
C2_2 C 0.6077(14) 0.5592(6) 0.1173(4)
C3_2 C 0.5732(15) 0.5779(7) 0.0692(5)
H1_2 H 0.5156 0.6098 0.0625
C4_2 C 0.6227(16) 0.5502(6) 0.0291(5)
C5_2 C 0.7067(14) 0.5041(6) 0.0386(5)
C6_2 C 0.7380(17) 0.4840(8) 0.0872(5)
H3_2 H 0.7944 0.4517 0.0939
C7_2 C 0.6882(16) 0.5103(7) 0.1256(5)
H4_2 H 0.7080 0.4954 0.1591
C15_2 C 0.1659(12) 0.6419(5) 0.1699(4)
H9_2 H 0.2164 0.6493 0.1430
C16_2 C 0.1098(19) 0.6199(8) 0.2411(8)
H10_2 H 0.1145 0.6090 0.2758
C17_2 C 0.0006(18) 0.6319(8) 0.2112(7)
H15_2 H 0.0278 0.6281 0.0683
H16_2 H 0.0008 0.8315 0.0347
C28_2 C 0.0162(13) 0.8891(7) 0.0906(5)
H17_2 H 0.1110 0.8880 0.0978
C33_2 C 0.1105(16) 0.9464(7) 0.1976(6)
H21_2 H 0.1405 0.9087 0.2065
C34_2 C 0.1511(16) 0.9940(7) 0.2212(6)
H22_2 H 0.2183 0.9969 0.2501
C125_2 C 0.0091(15) 0.0481(7) 0.3865(5)
H84_2 H 0.1025 0.0468 0.3852
N1_2 N 0.2188(10) 0.6254(5) 0.2151(4)
N2_2 N 0.0349(10) 0.6475(4) 0.1652(4)
N3_2 N 0.0157(11) 0.9614(5) 0.1571(4)
O1_2 O 0.4646(11) 0.6212(5) 0.1534(3)
O2_2 O 0.5815(13) 0.5663(6) 0.2048(5)
O3_2 O 0.7488(11) 0.4727(4) 0.0012(3)
O14_2 O 0.0448(12) 0.2102(6) 0.1630(5)
O17_2 O 0.1091(12) 0.1073(5) 0.3087(4)
N19 N 0.4131(11) 0.5472(4) 0.2961(4)
N20 N 0.2930(12) 0.1597(5) 0.2384(4)
O23 O 0.4150(11) 0.6973(6) 0.2996(4)
O24 O 0.6133(10) 0.6656(4) 0.2992(4)
H2_2 H 0.5983 0.5633 0.9952
C8_2 C 0.7906(14) 0.5020(6) 0.9602(5)
C9_2 C 0.8680(18) 0.5517(7) 0.9648(5)
H5_2 H 0.8866 0.5702 0.9970
C10_2 C 0.9161(17) 0.5737(6) 0.9257(5)
H6_2 H 0.9726 0.6067 0.9305
C11_2 C 0.8854(12) 0.5494(5) 0.8773(4)
C12_2 C 0.8093(17) 0.5003(6) 0.8724(5)
H7_2 H 0.7899 0.4823 0.8400
C13_2 C 0.7608(17) 0.4766(7) 0.9130(5)
H8_2 H 0.7069 0.4428 0.9088
C14_2 C 0.9457(13) 0.5736(6) 0.8325(5)
O5 O 0.9097(14) 0.5527(6) 0.7901(4)
C53_2 C 0.9477(14) 0.6652(6) 0.6710(5)
C54_2 C 0.8864(12) 0.7027(5) 0.6273(4)
C55_2 C 0.8887(14) 0.7614(5) 0.6300(4)
H37_2 H 0.9319 0.7800 0.6599
C56_2 C 0.8282(13) 0.7941(5) 0.5893(4)
H38_2 H 0.8309 0.8347 0.5911
C57_2 C 0.7636(12) 0.7665(5) 0.5459(4)
C58_2 C 0.7600(12) 0.7059(5) 0.5428(4)
H39_2 H 0.7157 0.6867 0.5133
C59_2 C 0.8215(13) 0.6760(5) 0.5831(5)
H40_2 H 0.8206 0.6353 0.5813
C60_2 C 0.6655(15) 0.7772(6) 0.4588(4)
C61_2 C 0.7576(14) 0.7527(5) 0.4333(6)
H41_2 H 0.8494 0.7519 0.4475
C62_2 C 0.7139(13) 0.7290(6) 0.3866(5)
H42_2 H 0.7768 0.7122 0.3679
C63_2 C 0.5836(13) 0.7292(5) 0.3667(5)
C64_2 C 0.4947(17) 0.7550(9) 0.3918(6)
H43_2 H 0.4037 0.7573 0.3767
C65_2 C 0.5352(17) 0.7783(8) 0.4397(6)
H44_2 H 0.4720 0.7948 0.4585
C66_2 C 0.5340(15) 0.6948(6) 0.3183(4)
H45_2 H 0.9356 0.5178 0.6497
C70_2 C 0.9759(12) 0.4119(5) 0.6090(4)
C71_2 C 0.8397(13) 0.4091(6) 0.6001(5)
H48_2 H 0.7891 0.4271 0.6232
C72_2 C 0.7751(12) 0.3806(5) 0.5584(5)
H49_2 H 0.6802 0.3808 0.5514
C73_2 C 0.8481(11) 0.3514(5) 0.5261(4)
C74_2 C 0.9872(12) 0.3541(6) 0.5367(5)
C76_2 C 0.7778(12) 0.3206(5) 0.4802(4)
C77_2 C 0.7837(11) 0.2649(5) 0.4734(4)
C78_2 C 0.8520(11) 0.2245(5) 0.5118(4)
C79_2 C 0.8380(12) 0.2295(5) 0.5630(4)
H52_2 H 0.7800 0.2580 0.5728
C80_2 C 0.9029(13) 0.1957(5) 0.5993(5)
H53_2 H 0.8905 0.2002 0.6339
C81_2 C 0.9876(11) 0.1547(5) 0.5855(4)
C83_2 C 0.9343(12) 0.1805(5) 0.4981(4)
H55_2 H 0.9439 0.1745 0.4634
H56_2 H 0.9238 0.1023 0.6739
C87_2 C 0.7164(10) 0.2382(4) 0.4239(4)
C88_2 C 0.7434(12) 0.2568(6) 0.3783(4)
H59_2 H 0.8178 0.2817 0.3773
C89_2 C 0.6668(13) 0.2407(6) 0.3332(5)
H60_2 H 0.6846 0.2560 0.3017
C90_2 C 0.5630(11) 0.2019(5) 0.3349(4)
C91_2 C 0.5364(12) 0.1816(5) 0.3800(4)
H61_2 H 0.4637 0.1556 0.3811
C92_2 C 0.6144(12) 0.1984(5) 0.4245(4)
H62_2 H 0.5979 0.1826 0.4560
C93_2 C 0.3561(15) 0.1632(7) 0.2858(5)
H63_2 H 0.3193 0.1494 0.3145
C94_2 C 0.4955(15) 0.2002(7) 0.2392(4)
H64_2 H 0.5718 0.2178 0.2284
C95_2 C 0.3859(16) 0.1821(7) 0.2100(6)
H65_2 H 0.3724 0.1843 0.1738
C96_2 C 0.6983(11) 0.3599(5) 0.4432(4)
C97_2 C 0.7586(13) 0.4048(6) 0.4224(5)
H66_2 H 0.8523 0.4106 0.4312
C98_2 C 0.6855(12) 0.4422(5) 0.3885(5)
H67_2 H 0.7284 0.4729 0.3736
C99_2 C 0.5504(11) 0.4337(5) 0.3771(4)
C100_2 C 0.4884(12) 0.3885(5) 0.3965(5)
H68_2 H 0.3951 0.3822 0.3871
C101_2 C 0.5625(12) 0.3521(6) 0.4299(5)
H69_2 H 0.5192 0.3210 0.4441
C102_2 C 0.5005(13) 0.5263(6) 0.3314(5)
H70_2 H 0.5762 0.5470 0.3477
C103_2 C 0.3554(12) 0.4577(6) 0.3108(5)
H71_2 H 0.3090 0.4220 0.3093
C104_2 C 0.3219(13) 0.5045(6) 0.2832(5)
H72_2 H 0.2452 0.5075 0.2580
N11_2 N 0.4722(9) 0.4724(4) 0.3422(3)
N15_2 N 0.4762(10) 0.1880(5) 0.2891(3)
O7_2 O 0.9077(14) 0.6147(5) 0.6720(4)
O8_2 O 0.7059(10) 0.8011(4) 0.5077(3)
H83_2 H 0.0128 0.9991 0.4483
C32_2 C 0.9951(15) 0.0190(5) 0.1604(6)
H20_2 H 0.9295 0.0405 0.1393
C130_2 C 0.6228(15) 0.9757(7) 0.5704(6)
H87_2 H 0.5900 0.9469 0.5908
C131_2 C 0.6712(13) 0.9591(5) 0.5279(6)
H88_2 H 0.6736 0.9197 0.5191
O18_2 O 0.7666(12) 0.9805(4) 0.4547(4)
loop_
_geom_bond_atom_site_label_1
_geom_bond_atom_site_label_2
_geom_bond_site_symmetry_1
_geom_bond_site_symmetry_2
C53 C54 1_555 1_555
C54 C55 1_555 1_555
C55 H37 1_555 1_555
C56 C55 1_555 1_555
H38 C56 1_555 1_555
C57 C56 1_555 1_555
C58 C57 1_555 1_555
H39 C58 1_555 1_555
C59 C54 1_555 1_555
H40 C59 1_555 1_555
C60 C61 1_555 1_555
C61 H41 1_555 1_555
C62 C61 1_555 1_555
H42 C62 1_555 1_555
C63 C62 1_555 1_555
C64 C63 1_555 1_555
H43 C64 1_555 1_555
C65 C60 1_555 1_555
H44 C65 1_555 1_555
C66 C63 1_555 1_555
C70 C71 1_555 1_555
C71 H48 1_555 1_555
C72 C71 1_555 1_555
H49 C72 1_555 1_555
C73 C72 1_555 1_555
C74 C73 1_555 1_555
C76 C73 1_555 1_555
C77 C76 1_555 1_555
C78 C77 1_555 1_555
C79 C78 1_555 1_555
H52 C79 1_555 1_555
C80 C79 1_555 1_555
H53 C80 1_555 1_555
C81 C80 1_555 1_555
C83 C78 1_555 1_555
H55 C83 1_555 1_555
C87 C77 1_555 1_555
C88 C87 1_555 1_555
H59 C88 1_555 1_555
C89 C88 1_555 1_555
H60 C89 1_555 1_555
C90 C89 1_555 1_555
C91 C90 1_555 1_555
H61 C91 1_555 1_555
C92 C87 1_555 1_555
H62 C92 1_555 1_555
C93 H63 1_555 1_555
C94 H64 1_555 1_555
C95 C94 1_555 1_555
H65 C95 1_555 1_555
C96 C76 1_555 1_555
C97 C96 1_555 1_555
H66 C97 1_555 1_555
C98 C97 1_555 1_555
H67 C98 1_555 1_555
C99 C98 1_555 1_555
C100 C99 1_555 1_555
H68 C100 1_555 1_555
C101 C96 1_555 1_555
H69 C101 1_555 1_555
C102 H70 1_555 1_555
C103 H71 1_555 1_555
C104 C103 1_555 1_555
H72 C104 1_555 1_555
N11 C99 1_555 1_555
N12 C102 1_555 1_555
N15 C90 1_555 1_555
N16 C93 1_555 1_555
O8 C57 1_555 1_555
O9 C66 1_555 1_555
O10 C66 1_555 1_555
Cd5 N12 1_555 1_555
Cd10 N16 1_555 1_555
C53 O7 1_555 1_555
C58 C59 1_555 1_555
C60 O8 1_555 1_555
C64 C65 1_555 1_555
C91 C92 1_555 1_555
C93 N15 1_555 1_555
C94 N15 1_555 1_555
C95 N16 1_555 1_555
C100 C101 1_555 1_555
C102 N11 1_555 1_555
C103 N11 1_555 1_555
C104 N12 1_555 1_555
O9 Cd5 1_555 1_555
O10 Cd5 1_555 1_555
C8 C9 1_555 1_555
C9 H5 1_555 1_555
C10 C9 1_555 1_555
H6 C10 1_555 1_555
C11 C10 1_555 1_555
C12 C11 1_555 1_555
H7 C12 1_555 1_555
C13 C8 1_555 1_555
H8 C13 1_555 1_555
C14 C11 1_555 1_555
O22 C14 1_555 1_555
C12 C13 1_555 1_555
Cd5 N1 1_555 1_555
Cd10 O14 1_555 1_555
C1 C2 1_555 1_555
C2 C3 1_555 1_555
C3 H1 1_555 1_555
C4 C3 1_555 1_555
C5 C4 1_555 1_555
C6 C5 1_555 1_555
H3 C6 1_555 1_555
C7 C2 1_555 1_555
H4 C7 1_555 1_555
C15 H9 1_555 1_555
C16 H10 1_555 1_555
C17 C16 1_555 1_555
H17 C28 1_555 1_555
C33 H21 1_555 1_555
C34 C33 1_555 1_555
H22 C34 1_555 1_555
H84 C125 1_555 1_555
N1 C15 1_555 1_555
N2 C15 1_555 1_555
O1 Cd5 1_555 1_555
O2 Cd5 1_555 1_555
O3 C5 1_555 1_555
O17 Cd10 1_555 1_555
N17 Cd10 1_555 1_555
C1 O1 1_555 1_555
C1 O2 1_555 1_555
C6 C7 1_555 1_555
C16 N1 1_555 1_555
C17 N2 1_555 1_555
C33 N3 1_555 1_555
H87 C130 1_555 1_555
H88 C131 1_555 1_555
C130 C131 1_555 1_555
Cd2 N8 1_555 1_555
Cd3 N13 1_555 1_555
C25 C24 1_555 1_555
C35 C24 1_555 1_555
C36 C35 1_555 1_555
H23 C36 1_555 1_555
C37 C36 1_555 1_555
H24 C37 1_555 1_555
C38 C37 1_555 1_555
C39 C38 1_555 1_555
H25 C39 1_555 1_555
C40 C35 1_555 1_555
H26 C40 1_555 1_555
C41 H27 1_555 1_555
C42 H28 1_555 1_555
C43 C42 1_555 1_555
H29 C43 1_555 1_555
C44 C25 1_555 1_555
C45 C44 1_555 1_555
H30 C45 1_555 1_555
C46 C45 1_555 1_555
H31 C46 1_555 1_555
C47 C46 1_555 1_555
C48 C47 1_555 1_555
H32 C48 1_555 1_555
C49 C44 1_555 1_555
H33 C49 1_555 1_555
C50 H34 1_555 1_555
C51 C50 1_555 1_555
H35 C51 1_555 1_555
C68 H46 1_555 1_555
C69 C68 1_555 1_555
H47 C69 1_555 1_555
H51 C75 1_555 1_555
H54 C82 1_555 1_555
C85 C84 1_555 1_555
H57 C85 1_555 1_555
C86 H58 1_555 1_555
C105 C106 1_555 1_555
C106 C107 1_555 1_555
C107 H73 1_555 1_555
C108 C107 1_555 1_555
H74 C108 1_555 1_555
C109 C108 1_555 1_555
C110 C109 1_555 1_555
H75 C110 1_555 1_555
C111 C106 1_555 1_555
H76 C111 1_555 1_555
N5 C47 1_555 1_555
N7 C38 1_555 1_555
N8 C41 1_555 1_555
N9 Cd2 1_555 1_555
N10 C67 1_555 1_555
N13 C85 1_555 1_555
O6 Cd2 1_555 1_555
O11 Cd3 1_555 1_555
O12 Cd3 1_555 1_555
O13 C109 1_555 1_555
N18 Cd3 1_555 1_555
O21 Cd2 1_555 1_555
O25 Cd3 1_555 1_555
O26 Cd3 1_555 1_555
C39 C40 1_555 1_555
C41 N7 1_555 1_555
C42 N7 1_555 1_555
C43 N8 1_555 1_555
C48 C49 1_555 1_555
C50 N5 1_555 1_555
C52 N5 1_555 1_555
C67 N9 1_555 1_555
C68 N9 1_555 1_555
C69 N10 1_555 1_555
C84 N14 1_555 1_555
C86 N13 1_555 1_555
C86 N14 1_555 1_555
C105 O11 1_555 1_555
C105 O12 1_555 1_555
C110 C111 1_555 1_555
C112 O13 1_555 1_555
C18 C19 1_555 1_555
C19 H12 1_555 1_555
C20 C19 1_555 1_555
H13 C20 1_555 1_555
C21 C20 1_555 1_555
C22 C21 1_555 1_555
H14 C22 1_555 1_555
C23 C18 1_555 1_555
C27 C26 1_555 1_555
C30 C29 1_555 1_555
H18 C30 1_555 1_555
C31 C26 1_555 1_555
H19 C31 1_555 1_555
C114 C113 1_555 1_555
H78 C114 1_555 1_555
C115 C114 1_555 1_555
C116 C115 1_555 1_555
H79 C116 1_555 1_555
H80 C117 1_555 1_555
C118 C115 1_555 1_555
C119 C120 1_555 1_555
C120 C121 1_555 1_555
C121 H81 1_555 1_555
C122 C121 1_555 1_555
H82 C122 1_555 1_555
C123 C122 1_555 1_555
C124 C123 1_555 1_555
C126 C127 1_555 1_555
C127 H85 1_555 1_555
C128 C127 1_555 1_555
H86 C128 1_555 1_555
C129 C128 1_555 1_555
C132 C129 1_555 1_555
O25 C132 1_555 1_555
O26 C132 1_555 1_555
C22 C23 1_555 1_555
C30 C31 1_555 1_555
C116 C117 1_555 1_555
C118 O15 1_555 1_555
C119 O16 1_555 1_555
C32 H20 1_555 1_555
Cd6 O4 1_555 1_555
Cd7 N6 1_555 1_555
C18_2 C19_2 1_555 1_555
C19_2 H12_2 1_555 1_555
C20_2 C19_2 1_555 1_555
H13_2 C20_2 1_555 1_555
C21_2 C20_2 1_555 1_555
C22_2 C21_2 1_555 1_555
H14_2 C22_2 1_555 1_555
C23_2 C18_2 1_555 1_555
C27_2 C26_2 1_555 1_555
C30_2 C29_2 1_555 1_555
H18_2 C30_2 1_555 1_555
C31_2 C26_2 1_555 1_555
H19_2 C31_2 1_555 1_555
C114_2 C113_2 1_555 1_555
H78_2 C114_2 1_555 1_555
C115_2 C114_2 1_555 1_555
C116_2 C115_2 1_555 1_555
H79_2 C116_2 1_555 1_555
H80_2 C117_2 1_555 1_555
C118_2 C115_2 1_555 1_555
C119_2 C120_2 1_555 1_555
C120_2 C121_2 1_555 1_555
C121_2 H81_2 1_555 1_555
C122_2 C121_2 1_555 1_555
H82_2 C122_2 1_555 1_555
C123_2 C122_2 1_555 1_555
C124_2 C123_2 1_555 1_555
C126_2 C127_2 1_555 1_555
C127_2 H85_2 1_555 1_555
C128_2 C127_2 1_555 1_555
H86_2 C128_2 1_555 1_555
C129_2 C128_2 1_555 1_555
C132_2 C129_2 1_555 1_555
O19 C132_2 1_555 1_555
O20 C132_2 1_555 1_555
Cd7 O19 1_555 1_555
C22_2 C23_2 1_555 1_555
C30_2 C31_2 1_555 1_555
C116_2 C117_2 1_555 1_555
C118_2 O15_2 1_555 1_555
C119_2 O16_2 1_555 1_555
O20 Cd7 1_555 1_555
Cd6 N8_2 1_555 1_555
Cd7 N13_2 1_555 1_555
C25_2 C24_2 1_555 1_555
C35_2 C24_2 1_555 1_555
C36_2 C35_2 1_555 1_555
H23_2 C36_2 1_555 1_555
C37_2 C36_2 1_555 1_555
H24_2 C37_2 1_555 1_555
C38_2 C37_2 1_555 1_555
C39_2 C38_2 1_555 1_555
H25_2 C39_2 1_555 1_555
C40_2 C35_2 1_555 1_555
H26_2 C40_2 1_555 1_555
C41_2 H27_2 1_555 1_555
C42_2 H28_2 1_555 1_555
C43_2 C42_2 1_555 1_555
H29_2 C43_2 1_555 1_555
C44_2 C25_2 1_555 1_555
C45_2 C44_2 1_555 1_555
H30_2 C45_2 1_555 1_555
C46_2 C45_2 1_555 1_555
H31_2 C46_2 1_555 1_555
C47_2 C46_2 1_555 1_555
C48_2 C47_2 1_555 1_555
H32_2 C48_2 1_555 1_555
C49_2 C44_2 1_555 1_555
H33_2 C49_2 1_555 1_555
C50_2 H34_2 1_555 1_555
C51_2 C50_2 1_555 1_555
H35_2 C51_2 1_555 1_555
C68_2 H46_2 1_555 1_555
C69_2 C68_2 1_555 1_555
H47_2 C69_2 1_555 1_555
H51_2 C75_2 1_555 1_555
H54_2 C82_2 1_555 1_555
C85_2 C84_2 1_555 1_555
H57_2 C85_2 1_555 1_555
C86_2 H58_2 1_555 1_555
C105_2 C106_2 1_555 1_555
C106_2 C107_2 1_555 1_555
C107_2 H73_2 1_555 1_555
C108_2 C107_2 1_555 1_555
H74_2 C108_2 1_555 1_555
C109_2 C108_2 1_555 1_555
C110_2 C109_2 1_555 1_555
H75_2 C110_2 1_555 1_555
C111_2 C106_2 1_555 1_555
H76_2 C111_2 1_555 1_555
N5_2 C47_2 1_555 1_555
N7_2 C38_2 1_555 1_555
N8_2 C41_2 1_555 1_555
N9_2 Cd6 1_555 1_555
N10_2 C67_2 1_555 1_555
N13_2 C85_2 1_555 1_555
O6_2 Cd6 1_555 1_555
O11_2 Cd7 1_555 1_555
O12_2 Cd7 1_555 1_555
O13_2 C109_2 1_555 1_555
C39_2 C40_2 1_555 1_555
C41_2 N7_2 1_555 1_555
C42_2 N7_2 1_555 1_555
C43_2 N8_2 1_555 1_555
C48_2 C49_2 1_555 1_555
C50_2 N5_2 1_555 1_555
C52_2 N5_2 1_555 1_555
C67_2 N9_2 1_555 1_555
C68_2 N9_2 1_555 1_555
C69_2 N10_2 1_555 1_555
C84_2 N14_2 1_555 1_555
C86_2 N13_2 1_555 1_555
C86_2 N14_2 1_555 1_555
C105_2 O11_2 1_555 1_555
C105_2 O12_2 1_555 1_555
C110_2 C111_2 1_555 1_555
C112_2 O13_2 1_555 1_555
Cd9 N4 1_555 1_555
Cd1 N1_2 1_555 1_555
Cd9 O14_2 1_555 1_555
C1_2 C2_2 1_555 1_555
C2_2 C3_2 1_555 1_555
C3_2 H1_2 1_555 1_555
C4_2 C3_2 1_555 1_555
C5_2 C4_2 1_555 1_555
C6_2 C5_2 1_555 1_555
H3_2 C6_2 1_555 1_555
C7_2 C2_2 1_555 1_555
H4_2 C7_2 1_555 1_555
C15_2 H9_2 1_555 1_555
C16_2 H10_2 1_555 1_555
C17_2 C16_2 1_555 1_555
H17_2 C28_2 1_555 1_555
C33_2 H21_2 1_555 1_555
C34_2 C33_2 1_555 1_555
H22_2 C34_2 1_555 1_555
H84_2 C125_2 1_555 1_555
N1_2 C15_2 1_555 1_555
N2_2 C15_2 1_555 1_555
O1_2 Cd1 1_555 1_555
O2_2 Cd1 1_555 1_555
O3_2 C5_2 1_555 1_555
O17_2 Cd9 1_555 1_555
N19 Cd1 1_555 1_555
N20 Cd9 1_555 1_555
O23 Cd1 1_555 1_555
O24 Cd1 1_555 1_555
C1_2 O1_2 1_555 1_555
C1_2 O2_2 1_555 1_555
C6_2 C7_2 1_555 1_555
C16_2 N1_2 1_555 1_555
C17_2 N2_2 1_555 1_555
C33_2 N3_2 1_555 1_555
C8_2 C9_2 1_555 1_555
C9_2 H5_2 1_555 1_555
C10_2 C9_2 1_555 1_555
H6_2 C10_2 1_555 1_555
C11_2 C10_2 1_555 1_555
C12_2 C11_2 1_555 1_555
H7_2 C12_2 1_555 1_555
C13_2 C8_2 1_555 1_555
H8_2 C13_2 1_555 1_555
C14_2 C11_2 1_555 1_555
O5 C14_2 1_555 1_555
C12_2 C13_2 1_555 1_555
C53_2 C54_2 1_555 1_555
C54_2 C55_2 1_555 1_555
C55_2 H37_2 1_555 1_555
C56_2 C55_2 1_555 1_555
H38_2 C56_2 1_555 1_555
C57_2 C56_2 1_555 1_555
C58_2 C57_2 1_555 1_555
H39_2 C58_2 1_555 1_555
C59_2 C54_2 1_555 1_555
H40_2 C59_2 1_555 1_555
C60_2 C61_2 1_555 1_555
C61_2 H41_2 1_555 1_555
C62_2 C61_2 1_555 1_555
H42_2 C62_2 1_555 1_555
C63_2 C62_2 1_555 1_555
C64_2 C63_2 1_555 1_555
H43_2 C64_2 1_555 1_555
C65_2 C60_2 1_555 1_555
H44_2 C65_2 1_555 1_555
C66_2 C63_2 1_555 1_555
C70_2 C71_2 1_555 1_555
C71_2 H48_2 1_555 1_555
C72_2 C71_2 1_555 1_555
H49_2 C72_2 1_555 1_555
C73_2 C72_2 1_555 1_555
C74_2 C73_2 1_555 1_555
C76_2 C73_2 1_555 1_555
C77_2 C76_2 1_555 1_555
C78_2 C77_2 1_555 1_555
C79_2 C78_2 1_555 1_555
H52_2 C79_2 1_555 1_555
C80_2 C79_2 1_555 1_555
H53_2 C80_2 1_555 1_555
C81_2 C80_2 1_555 1_555
C83_2 C78_2 1_555 1_555
H55_2 C83_2 1_555 1_555
C87_2 C77_2 1_555 1_555
C88_2 C87_2 1_555 1_555
H59_2 C88_2 1_555 1_555
C89_2 C88_2 1_555 1_555
H60_2 C89_2 1_555 1_555
C90_2 C89_2 1_555 1_555
C91_2 C90_2 1_555 1_555
H61_2 C91_2 1_555 1_555
C92_2 C87_2 1_555 1_555
H62_2 C92_2 1_555 1_555
C93_2 H63_2 1_555 1_555
C94_2 H64_2 1_555 1_555
C95_2 C94_2 1_555 1_555
H65_2 C95_2 1_555 1_555
C96_2 C76_2 1_555 1_555
C97_2 C96_2 1_555 1_555
H66_2 C97_2 1_555 1_555
C98_2 C97_2 1_555 1_555
H67_2 C98_2 1_555 1_555
C99_2 C98_2 1_555 1_555
C100_2 C99_2 1_555 1_555
H68_2 C100_2 1_555 1_555
C101_2 C96_2 1_555 1_555
H69_2 C101_2 1_555 1_555
C102_2 H70_2 1_555 1_555
C103_2 H71_2 1_555 1_555
C104_2 C103_2 1_555 1_555
H72_2 C104_2 1_555 1_555
N11_2 C99_2 1_555 1_555
N19 C102_2 1_555 1_555
N15_2 C90_2 1_555 1_555
N20 C93_2 1_555 1_555
O8_2 C57_2 1_555 1_555
O23 C66_2 1_555 1_555
O24 C66_2 1_555 1_555
C53_2 O7_2 1_555 1_555
C58_2 C59_2 1_555 1_555
C60_2 O8_2 1_555 1_555
C64_2 C65_2 1_555 1_555
C91_2 C92_2 1_555 1_555
C93_2 N15_2 1_555 1_555
C94_2 N15_2 1_555 1_555
C95_2 N20 1_555 1_555
C100_2 C101_2 1_555 1_555
C102_2 N11_2 1_555 1_555
C103_2 N11_2 1_555 1_555
C104_2 N19 1_555 1_555
C32_2 H20_2 1_555 1_555
H87_2 C130_2 1_555 1_555
H88_2 C131_2 1_555 1_555
C130_2 C131_2 1_555 1_555

#END
