
###############################################################################
#
# This file contains modified crystal structure data generated from the
# MOF subset of the Cambridge Structural Database (CSD) v543 
# hosted by the Cambridge Crystallographic Data Centre (CCDC).
#
# This work is licensed under the Creative Commons
# Attribution-NonCommercial-ShareAlike 4.0 International License.
# To view a copy of this license, visit
# http://creativecommons.org/licenses/by-nc-sa/4.0/
# or send a letter to
# Creative Commons, PO Box 1866, Mountain View, CA 94042, USA.
#
# CIF created using the CSD Python API on 29 September 2022
# The structure has been converted into the P1 space group
# The structure has a 3D framework
# The original CSD entry GOTFAZ is in the monoclinic crystal system
# The framework has been calculated to contain at least 10.0% void space
# The void calculation uses a probe of radius 1.32A, grid spacing 0.4
#
###############################################################################

data_GOTFAZ
_chemical_formula_moiety         '(C528 H384 Cd16 Cl12 N112 O32)n'
_symmetry_cell_setting           triclinic
_symmetry_space_group_name_H-M   'P 1'
_symmetry_Int_Tables_number      1
_space_group_name_Hall           'P 1'
loop_
_symmetry_equiv_pos_site_id
_symmetry_equiv_pos_as_xyz
1 x,y,z
_cell_length_a                   27.8363(3)
_cell_length_b                   15.0306(2)
_cell_length_c                   34.7041(5)
_cell_angle_alpha                90
_cell_angle_beta                 104.2010(10)
_cell_angle_gamma                90
_cell_volume                     14076.3
loop_
_atom_site_label
_atom_site_type_symbol
_atom_site_fract_x
_atom_site_fract_y
_atom_site_fract_z
O3 O 0.12490(8) 0.59636(18) 0.71572(8)
O4 O 0.16685(8) 0.48358(16) 0.70133(7)
C6 C 0.04247(15) 0.5406(3) 0.65464(13)
H4 H 0.0423 0.5975 0.6651
C7 C 0.08269(13) 0.4904(3) 0.66598(12)
C8 C 0.08410(16) 0.4043(3) 0.65046(15)
H5 H 0.1129 0.3704 0.6579
C9 C 0.04304(17) 0.3702(3) 0.62434(17)
H6 H 0.0435 0.3123 0.6150
C10 C 0.00136(14) 0.4214(3) 0.61197(12)
C12 C 0.12885(13) 0.5253(2) 0.69646(9)
Cd6 Cd 0.20785(2) 0.59990(2) 0.75317(2)
N8 N 0.06606(9) 0.06679(18) 0.84120(9)
N11 N 0.15953(10) 0.39309(17) 0.82713(7)
N12 N 0.19078(10) 0.50365(18) 0.79984(7)
C40 C 0.01555(11) 0.0575(2) 0.82108(9)
C49 C 0.09048(11) 0.1490(2) 0.83788(9)
C50 C 0.12024(12) 0.1897(2) 0.87064(10)
H35 H 0.1249 0.1629 0.8954
C51 C 0.14343(11) 0.2698(2) 0.86732(9)
H36 H 0.1637 0.2964 0.8897
C52 C 0.13629(11) 0.3098(2) 0.83067(9)
C53 C 0.10661(14) 0.2691(2) 0.79747(10)
H37 H 0.1019 0.2957 0.7726
C54 C 0.08405(14) 0.1891(2) 0.80121(10)
H38 H 0.0643 0.1618 0.7788
C55 C 0.17109(13) 0.4242(2) 0.79409(9)
H39 H 0.1658 0.3931 0.7702
C56 C 0.17422(13) 0.4567(2) 0.85578(9)
H40 H 0.1716 0.4542 0.8820
C57 C 0.19304(14) 0.5233(2) 0.83860(10)
H41 H 0.2059 0.5757 0.8513
H45 H 0.1598 0.0263 0.8501
Cl2 Cl 0.22209(6) 0.72838(7) 0.80219(3)
N6 N 0.19503(8) 0.80527(15) 0.66033(7)
N7 N 0.21805(10) 0.69712(19) 0.70364(8)
N8_2 N 0.56606(9) 0.56679(18) 0.84120(9)
N9 N 0.36412(9) 0.52573(17) 0.76515(7)
N10 N 0.28328(9) 0.54099(17) 0.75312(8)
N11_2 N 0.65953(10) 0.89309(17) 0.82713(7)
N13 N 0.67461(12) 0.2721(2) 0.91699(9)
N14 N 0.70140(19) 0.1660(2) 0.96167(12)
C14 C 0.01149(10) 0.99274(18) 0.55022(8)
H7 H 0.0328 0.9447 0.5510
C32 C 0.09486(10) 0.96977(19) 0.62711(8)
H21 H 0.0651 0.9857 0.6329
C33 C 0.12223(11) 0.9006(2) 0.64722(9)
H22 H 0.1106 0.8691 0.6662
C34 C 0.16699(10) 0.87754(18) 0.63935(8)
C35 C 0.18334(11) 0.9227(2) 0.61032(10)
H23 H 0.2133 0.9070 0.6048
C36 C 0.15540(11) 0.9911(2) 0.58953(10)
C37 C 0.18749(16) 0.7626(3) 0.69217(13)
H25 H 0.1629 0.7783 0.7048
C38 C 0.23418(13) 0.7638(2) 0.65212(10)
H26 H 0.2489 0.7776 0.6316
C39 C 0.24803(13) 0.6986(2) 0.67922(10)
H27 H 0.2746 0.6603 0.6806
C40_2 C 0.51555(11) 0.5575(2) 0.82108(9)
C41 C 0.49810(11) 0.4800(2) 0.80094(9)
H28 H 0.5200 0.4338 0.8000
C42 C 0.44841(11) 0.4703(2) 0.78220(9)
H29 H 0.4371 0.4174 0.7692
C43 C 0.41580(10) 0.5387(2) 0.78281(9)
C44 C 0.43296(12) 0.6176(2) 0.80176(11)
H30 H 0.4112 0.6646 0.8015
C45 C 0.48230(11) 0.6267(2) 0.82101(11)
H31 H 0.4935 0.6796 0.8341
C46 C 0.32628(11) 0.5734(2) 0.77167(10)
H32 H 0.3302 0.6240 0.7876
C47 C 0.34309(15) 0.4583(3) 0.74064(15)
H33 H 0.3597 0.4134 0.7308
C48 C 0.29353(14) 0.4689(3) 0.73339(15)
H34 H 0.2701 0.4321 0.7173
C49_2 C 0.59048(11) 0.6490(2) 0.83788(9)
C50_2 C 0.62024(12) 0.6897(2) 0.87064(10)
H35_2 H 0.6249 0.6629 0.8954
C51_2 C 0.64343(11) 0.7698(2) 0.86732(9)
H36_2 H 0.6637 0.7964 0.8897
C52_2 C 0.63629(11) 0.8098(2) 0.83067(9)
C53_2 C 0.60661(14) 0.7691(2) 0.79747(10)
H37_2 H 0.6019 0.7957 0.7726
C54_2 C 0.58405(14) 0.6891(2) 0.80121(10)
H38_2 H 0.5643 0.6618 0.7788
C55_2 C 0.67109(13) 0.9242(2) 0.79409(9)
H39_2 H 0.6658 0.8931 0.7702
C56_2 C 0.67422(13) 0.9567(2) 0.85578(9)
H40_2 H 0.6716 0.9542 0.8820
C58 C 0.59362(11) 0.4934(2) 0.86027(10)
C59 C 0.57122(11) 0.4281(2) 0.87862(9)
H42 H 0.5381 0.4341 0.8789
C60 C 0.59748(13) 0.3551(2) 0.89622(10)
H43 H 0.5816 0.3111 0.9073
C61 C 0.64700(12) 0.3470(2) 0.89746(10)
C62 C 0.67000(13) 0.4112(3) 0.88070(13)
H44 H 0.7037 0.4062 0.8820
C63 C 0.64377(13) 0.4837(2) 0.86182(12)
H45_2 H 0.6598 0.5263 0.8501
C64 C 0.6699(2) 0.2312(3) 0.95109(14)
H46 H 0.6468 0.2479 0.9651
C65 C 0.7112(2) 0.2282(4) 0.90647(15)
H47 H 0.7239 0.2399 0.8846
C66 C 0.7260(2) 0.1639(4) 0.93370(15)
H48 H 0.7507 0.1227 0.9329
C41_2 C 0.00190(11) 0.0200(2) 0.19906(9)
C42_2 C 0.05159(11) 0.0297(2) 0.21780(9)
H29_2 H 0.0629 0.0826 0.2308
C47_2 C 0.15691(15) 0.0417(3) 0.25936(15)
H33_2 H 0.1403 0.0866 0.2692
C48_2 C 0.20647(14) 0.0311(3) 0.26661(15)
H34_2 H 0.2299 0.0679 0.2827
O6 O 0.33315(8) 0.01642(16) 0.29867(7)
Cd1 Cd 0.77697(2) 0.36577(2) 0.49902(2)
Cd2 Cd 0.29215(2) 0.90010(2) 0.24683(2)
Cl1 Cl 0.75223(3) 0.24126(5) 0.44901(2)
Cl2_2 Cl 0.27791(6) 0.77162(7) 0.19781(3)
O1 O 0.82998(8) 0.44246(15) 0.54691(6)
O2 O 0.86873(7) 0.32808(15) 0.52844(6)
N1 N 0.41739(8) 0.41281(15) 0.42327(8)
N2 N 0.62352(8) 0.46412(15) 0.47824(7)
N3 N 0.70377(8) 0.43870(16) 0.49289(8)
N4 N 0.32625(9) 0.07940(15) 0.42841(7)
N6_2 N 0.30497(8) 0.69473(15) 0.33967(7)
N7_2 N 0.28195(10) 0.80288(19) 0.29636(8)
N9_2 N 0.13588(9) 0.97427(17) 0.23485(7)
N10_2 N 0.21672(9) 0.95901(17) 0.24688(8)
C1 C 0.95705(14) 0.3848(3) 0.58444(13)
H1 H 0.9576 0.3275 0.5744
C2 C 0.91606(11) 0.4338(2) 0.57384(10)
C3 C 0.91648(16) 0.5211(3) 0.58858(13)
H2 H 0.8879 0.5552 0.5807
C4 C 0.95671(16) 0.5579(3) 0.61375(16)
H3 H 0.9560 0.6162 0.6226
C5 C 0.99799(14) 0.5073(2) 0.62571(11)
C11 C 0.86878(11) 0.3969(2) 0.54747(9)
C13 C 0.46909(9) 0.42427(17) 0.43779(8)
C14_2 C 0.48851(10) 0.50726(18) 0.44978(8)
H7_2 H 0.4672 0.5553 0.4490
C15 C 0.53888(10) 0.51995(18) 0.46294(8)
H8 H 0.5512 0.5766 0.4703
C16 C 0.57129(9) 0.44986(18) 0.46540(8)
C17 C 0.55272(11) 0.3663(2) 0.45409(11)
H9 H 0.5741 0.3182 0.4557
C18 C 0.50228(11) 0.35433(19) 0.44038(11)
H10 H 0.4902 0.2977 0.4327
C19 C 0.65948(10) 0.4021(2) 0.48371(9)
H11 H 0.6537 0.3411 0.4813
C20 C 0.64713(11) 0.5452(2) 0.48416(10)
H12 H 0.6322 0.6009 0.4825
C21 C 0.69627(11) 0.5282(2) 0.49287(10)
H13 H 0.7211 0.5710 0.4980
C22 C 0.39415(9) 0.32921(18) 0.42475(8)
C23 C 0.35770(11) 0.2995(2) 0.39272(9)
H14 H 0.3485 0.3346 0.3700
C24 C 0.33459(11) 0.2183(2) 0.39387(9)
H15 H 0.3096 0.1996 0.3723
C25 C 0.34886(10) 0.16517(18) 0.42716(8)
C26 C 0.38549(10) 0.19361(18) 0.45917(8)
H16 H 0.3954 0.1574 0.4814
C27 C 0.40747(10) 0.27566(18) 0.45832(8)
H17 H 0.4314 0.2952 0.4804
C28 C 0.31702(11) 0.04060(19) 0.46078(9)
H18 H 0.3236 0.0667 0.4858
C29 C 0.31155(12) 0.0202(2) 0.39755(9)
H19 H 0.3133 0.0281 0.3713
C31 C 0.38869(10) 0.48397(17) 0.40188(9)
C32_2 C 0.40514(10) 0.53023(19) 0.37289(8)
H21_2 H 0.4349 0.5143 0.3671
C33_2 C 0.37777(11) 0.5994(2) 0.35278(9)
H22_2 H 0.3894 0.6309 0.3338
C34_2 C 0.33301(10) 0.62246(18) 0.36065(8)
C35_2 C 0.31666(11) 0.5773(2) 0.38968(10)
H23_2 H 0.2867 0.5930 0.3952
C36_2 C 0.34460(11) 0.5089(2) 0.41047(10)
H24 H 0.3337 0.4795 0.4303
C37_2 C 0.31251(16) 0.7374(3) 0.30783(13)
H25_2 H 0.3371 0.7217 0.2952
C38_2 C 0.26582(13) 0.7362(2) 0.34788(10)
H26_2 H 0.2511 0.7224 0.3684
C39_2 C 0.25197(13) 0.8014(2) 0.32078(10)
H27_2 H 0.2254 0.8397 0.3194
C43_2 C 0.08420(10) 0.9613(2) 0.21719(9)
C44_2 C 0.06704(12) 0.8824(2) 0.19824(11)
H30_2 H 0.0888 0.8354 0.1985
C45_2 C 0.01770(11) 0.8733(2) 0.17899(11)
H31_2 H 0.0065 0.8204 0.1659
C46_2 C 0.17372(11) 0.9266(2) 0.22833(10)
H32_2 H 0.1698 0.8760 0.2124
Cd4 Cd 0.72303(2) 0.13423(2) 0.50098(2)
Cl3 Cl 0.74777(3) 0.25874(5) 0.55099(2)
O5 O 0.37510(8) 0.90364(18) 0.28428(8)
N15 N 0.79756(9) 0.46100(16) 0.45251(7)
N16 N 0.30922(10) 0.99635(18) 0.20016(7)
N1_2 N 0.91739(8) 0.91281(15) 0.42327(8)
N4_2 N 0.82625(9) 0.57940(15) 0.42841(7)
C13_2 C 0.96909(9) 0.92427(17) 0.43779(8)
H10_2 H 0.9902 0.7977 0.4327
C22_2 C 0.89415(9) 0.82921(18) 0.42475(8)
C23_2 C 0.85770(11) 0.7995(2) 0.39272(9)
H14_2 H 0.8485 0.8346 0.3700
C24_2 C 0.83459(11) 0.7183(2) 0.39387(9)
H15_2 H 0.8096 0.6996 0.3723
C25_2 C 0.84886(10) 0.66517(18) 0.42716(8)
C26_2 C 0.88549(10) 0.69361(18) 0.45917(8)
H16_2 H 0.8954 0.6574 0.4814
C27_2 C 0.90747(10) 0.77566(18) 0.45832(8)
H17_2 H 0.9314 0.7952 0.4804
C28_2 C 0.81702(11) 0.54060(19) 0.46078(9)
H18_2 H 0.8236 0.5667 0.4858
C29_2 C 0.81155(12) 0.5202(2) 0.39755(9)
H19_2 H 0.8133 0.5281 0.3713
C30 C 0.79410(12) 0.4483(2) 0.41298(9)
H20 H 0.7815 0.3975 0.3988
C31_2 C 0.88869(10) 0.98397(17) 0.40188(9)
H24_2 H 0.8337 0.9795 0.4303
C57_2 C 0.30696(14) 0.9767(2) 0.16140(10)
H41_2 H 0.2941 0.9243 0.1487
N5 N 0.70244(9) 0.03900(16) 0.54749(7)
C30_2 C 0.70590(12) 0.0517(2) 0.58702(9)
H20_2 H 0.7185 0.1025 0.6012
O1_2 O 0.67002(8) 0.05754(15) 0.45309(6)
O2_2 O 0.63127(7) 0.17192(15) 0.47156(6)
N2_2 N 0.87648(8) 0.03588(15) 0.52176(7)
N3_2 N 0.79623(8) 0.06130(16) 0.50711(8)
C1_2 C 0.54295(14) 0.1152(3) 0.41556(13)
H1_2 H 0.5424 0.1725 0.4256
C2_2 C 0.58394(11) 0.0662(2) 0.42616(10)
C7_2 C 0.41731(13) 0.0096(3) 0.33402(12)
C8_2 C 0.41590(16) 0.0957(3) 0.34954(15)
H5_2 H 0.3871 0.1296 0.3421
C9_2 C 0.45696(17) 0.1298(3) 0.37566(17)
H6_2 H 0.4565 0.1877 0.3850
C10_2 C 0.49864(14) 0.0786(3) 0.38803(12)
C11_2 C 0.63122(11) 0.1031(2) 0.45253(9)
C16_2 C 0.92871(9) 0.05014(18) 0.53460(8)
C17_2 C 0.94728(11) 0.1337(2) 0.54591(11)
H9_2 H 0.9259 0.1818 0.5443
C18_2 C 0.99772(11) 0.14567(19) 0.55962(11)
C19_2 C 0.84052(10) 0.0979(2) 0.51629(9)
H11_2 H 0.8463 0.1589 0.5187
C3_2 C 0.58352(16) 0.9789(3) 0.41142(13)
H2_2 H 0.6121 0.9448 0.4193
C4_2 C 0.54329(16) 0.9421(3) 0.38625(16)
H3_2 H 0.5440 0.8838 0.3774
C5_2 C 0.50201(14) 0.9927(2) 0.37429(11)
C6_2 C 0.45753(15) 0.9594(3) 0.34536(13)
H4_2 H 0.4577 0.9025 0.3349
C12_2 C 0.37115(13) 0.9747(2) 0.30354(9)
C15_2 C 0.96112(10) 0.98005(18) 0.53706(8)
H8_2 H 0.9488 0.9234 0.5297
C20_2 C 0.85287(11) 0.9548(2) 0.51584(10)
H12_2 H 0.8678 0.8991 0.5175
C21_2 C 0.80373(11) 0.9718(2) 0.50713(10)
H13_2 H 0.7789 0.9290 0.5020
N5_2 N 0.29756(9) 0.96100(16) 0.45251(7)
C30_3 C 0.29410(12) 0.9483(2) 0.41298(9)
H20_3 H 0.2815 0.8975 0.3988
Cd3 Cd 0.27697(2) 0.86577(2) 0.49902(2)
O3_2 O 0.62490(8) 0.09636(18) 0.71572(8)
C3_3 C 0.41648(16) 0.0211(3) 0.58858(13)
H2_3 H 0.3879 0.0552 0.5807
C4_3 C 0.45671(16) 0.0579(3) 0.61375(16)
H3_3 H 0.4560 0.1162 0.6226
C5_3 C 0.49799(14) 0.0073(2) 0.62571(11)
C6_3 C 0.54247(15) 0.0406(3) 0.65464(13)
H4_3 H 0.5423 0.0975 0.6651
C12_3 C 0.62885(13) 0.0253(2) 0.69646(9)
C15_3 C 0.03888(10) 0.01995(18) 0.46294(8)
H8_3 H 0.0512 0.0766 0.4703
C20_3 C 0.14713(11) 0.0452(2) 0.48416(10)
H12_3 H 0.1322 0.1009 0.4825
C21_3 C 0.19627(11) 0.0282(2) 0.49287(10)
H13_3 H 0.2211 0.0710 0.4980
Cd6_2 Cd 0.70785(2) 0.09990(2) 0.75317(2)
Cl1_2 Cl 0.25223(3) 0.74126(5) 0.44901(2)
O1_3 O 0.32998(8) 0.94246(15) 0.54691(6)
O2_3 O 0.36873(7) 0.82808(15) 0.52844(6)
O4_2 O 0.66685(8) 0.98358(16) 0.70133(7)
N2_3 N 0.12352(8) 0.96412(15) 0.47824(7)
N3_3 N 0.20377(8) 0.93870(16) 0.49289(8)
C1_3 C 0.45705(14) 0.8848(3) 0.58444(13)
H1_3 H 0.4576 0.8275 0.5744
C2_3 C 0.41606(11) 0.9338(2) 0.57384(10)
C7_3 C 0.58269(13) 0.9904(3) 0.66598(12)
C8_3 C 0.58410(16) 0.9043(3) 0.65046(15)
H5_3 H 0.6129 0.8704 0.6579
C9_3 C 0.54304(17) 0.8702(3) 0.62434(17)
H6_3 H 0.5435 0.8123 0.6150
C10_3 C 0.50136(14) 0.9214(3) 0.61197(12)
C11_3 C 0.36878(11) 0.8969(2) 0.54747(9)
C16_3 C 0.07129(9) 0.94986(18) 0.46540(8)
C17_3 C 0.05272(11) 0.8663(2) 0.45409(11)
H9_3 H 0.0741 0.8182 0.4557
C18_3 C 0.00228(11) 0.85433(19) 0.44038(11)
C19_3 C 0.15948(10) 0.9021(2) 0.48371(9)
H11_3 H 0.1537 0.8411 0.4813
Cd4_2 Cd 0.22303(2) 0.63423(2) 0.50098(2)
Cl3_2 Cl 0.24777(3) 0.75874(5) 0.55099(2)
Cl2_3 Cl 0.72209(6) 0.22838(7) 0.80219(3)
O1_4 O 0.17002(8) 0.55754(15) 0.45309(6)
O2_4 O 0.13127(7) 0.67192(15) 0.47156(6)
N1_3 N 0.58261(8) 0.58719(15) 0.57673(8)
N2_4 N 0.37648(8) 0.53588(15) 0.52176(7)
N3_4 N 0.29623(8) 0.56130(16) 0.50711(8)
N4_3 N 0.67375(9) 0.92060(15) 0.57159(7)
N6_3 N 0.69503(8) 0.30527(15) 0.66033(7)
N7_3 N 0.71805(10) 0.19712(19) 0.70364(8)
N9_3 N 0.86412(9) 0.02573(17) 0.76515(7)
N10_3 N 0.78328(9) 0.04099(17) 0.75312(8)
C1_4 C 0.04295(14) 0.6152(3) 0.41556(13)
H1_4 H 0.0424 0.6725 0.4256
C2_4 C 0.08394(11) 0.5662(2) 0.42616(10)
C3_4 C 0.08352(16) 0.4789(3) 0.41142(13)
H2_4 H 0.1121 0.4448 0.4193
C4_4 C 0.04329(16) 0.4421(3) 0.38625(16)
H3_4 H 0.0440 0.3838 0.3774
C5_4 C 0.00201(14) 0.4927(2) 0.37429(11)
C11_4 C 0.13122(11) 0.6031(2) 0.45253(9)
C13_3 C 0.53091(9) 0.57573(17) 0.56221(8)
C14_3 C 0.51149(10) 0.49274(18) 0.55022(8)
H7_3 H 0.5328 0.4447 0.5510
C15_4 C 0.46112(10) 0.48005(18) 0.53706(8)
H8_4 H 0.4488 0.4234 0.5297
C16_4 C 0.42871(9) 0.55014(18) 0.53460(8)
C17_4 C 0.44728(11) 0.6337(2) 0.54591(11)
H9_4 H 0.4259 0.6818 0.5443
C18_4 C 0.49772(11) 0.64567(19) 0.55962(11)
H10_3 H 0.5098 0.7023 0.5673
C19_4 C 0.34052(10) 0.5979(2) 0.51629(9)
H11_4 H 0.3463 0.6589 0.5187
C20_4 C 0.35287(11) 0.4548(2) 0.51584(10)
H12_4 H 0.3678 0.3991 0.5175
C21_4 C 0.30373(11) 0.4718(2) 0.50713(10)
H13_4 H 0.2789 0.4290 0.5020
C22_3 C 0.60585(9) 0.67079(18) 0.57525(8)
C23_3 C 0.64230(11) 0.7005(2) 0.60728(9)
H14_3 H 0.6515 0.6654 0.6300
C24_3 C 0.66541(11) 0.7817(2) 0.60613(9)
H15_3 H 0.6904 0.8004 0.6277
C25_3 C 0.65114(10) 0.83483(18) 0.57284(8)
C26_3 C 0.61451(10) 0.80639(18) 0.54083(8)
H16_3 H 0.6046 0.8426 0.5186
C27_3 C 0.59253(10) 0.72434(18) 0.54168(8)
H17_3 H 0.5686 0.7048 0.5196
C28_3 C 0.68298(11) 0.95940(19) 0.53922(9)
H18_3 H 0.6764 0.9333 0.5142
C29_3 C 0.68845(12) 0.9798(2) 0.60245(9)
H19_3 H 0.6867 0.9719 0.6287
C31_3 C 0.61131(10) 0.51603(17) 0.59812(9)
C32_3 C 0.59486(10) 0.46977(19) 0.62711(8)
H21_3 H 0.5651 0.4857 0.6329
C33_3 C 0.62223(11) 0.4006(2) 0.64722(9)
H22_3 H 0.6106 0.3691 0.6662
C34_3 C 0.66699(10) 0.37754(18) 0.63935(8)
C35_3 C 0.68334(11) 0.4227(2) 0.61032(10)
H23_3 H 0.7133 0.4070 0.6048
C36_3 C 0.65540(11) 0.4911(2) 0.58953(10)
H24_3 H 0.6663 0.5205 0.5697
C37_3 C 0.68749(16) 0.2626(3) 0.69217(13)
H25_3 H 0.6629 0.2783 0.7048
C38_3 C 0.73418(13) 0.2638(2) 0.65212(10)
H26_3 H 0.7489 0.2776 0.6316
C39_3 C 0.74803(13) 0.1986(2) 0.67922(10)
H27_3 H 0.7746 0.1603 0.6806
C43_3 C 0.91580(10) 0.0387(2) 0.78281(9)
C44_3 C 0.93296(12) 0.1176(2) 0.80176(11)
H30_3 H 0.9112 0.1646 0.8015
C45_3 C 0.98230(11) 0.1267(2) 0.82101(11)
H31_3 H 0.9935 0.1796 0.8341
C46_3 C 0.82628(11) 0.0734(2) 0.77167(10)
H32_3 H 0.8302 0.1240 0.7876
N15_2 N 0.20244(9) 0.53900(16) 0.54749(7)
N16_2 N 0.69078(10) 0.00365(18) 0.79984(7)
C41_3 C 0.99810(11) 0.9800(2) 0.80094(9)
C42_3 C 0.94841(11) 0.9703(2) 0.78220(9)
H29_3 H 0.9371 0.9174 0.7692
C47_3 C 0.84309(15) 0.9583(3) 0.74064(15)
H33_3 H 0.8597 0.9134 0.7308
C48_3 C 0.79353(14) 0.9689(3) 0.73339(15)
H34_3 H 0.7701 0.9321 0.7173
N1_4 N 0.08261(8) 0.08719(15) 0.57673(8)
N4_4 N 0.17375(9) 0.42060(15) 0.57159(7)
C13_4 C 0.03091(9) 0.07573(17) 0.56221(8)
H10_4 H 0.0098 0.2023 0.5673
C22_4 C 0.10585(9) 0.17079(18) 0.57525(8)
C23_4 C 0.14230(11) 0.2005(2) 0.60728(9)
H14_4 H 0.1515 0.1654 0.6300
C24_4 C 0.16541(11) 0.2817(2) 0.60613(9)
H15_4 H 0.1904 0.3004 0.6277
C25_4 C 0.15114(10) 0.33483(18) 0.57284(8)
C26_4 C 0.11451(10) 0.30639(18) 0.54083(8)
H16_4 H 0.1046 0.3426 0.5186
C27_4 C 0.09253(10) 0.22434(18) 0.54168(8)
H17_4 H 0.0686 0.2048 0.5196
C28_4 C 0.18298(11) 0.45940(19) 0.53922(9)
H18_4 H 0.1764 0.4333 0.5142
C29_4 C 0.18845(12) 0.4798(2) 0.60245(9)
H19_4 H 0.1867 0.4719 0.6287
C30_4 C 0.20590(12) 0.5517(2) 0.58702(9)
H20_4 H 0.2185 0.6025 0.6012
C31_4 C 0.11131(10) 0.01603(17) 0.59812(9)
H24_4 H 0.1663 0.0205 0.5697
C57_3 C 0.69304(14) 0.0233(2) 0.83860(10)
H41_3 H 0.7059 0.0757 0.8513
N13_2 N 0.82539(12) 0.2279(2) 0.08301(9)
N14_2 N 0.79860(19) 0.3340(2) 0.03833(12)
H28_2 H 0.9800 0.0662 0.2000
C58_2 C 0.90638(11) 0.0066(2) 0.13973(10)
C59_2 C 0.92878(11) 0.0719(2) 0.12138(9)
H42_2 H 0.9619 0.0659 0.1211
C60_2 C 0.90252(13) 0.1449(2) 0.10378(10)
H43_2 H 0.9184 0.1889 0.0927
C61_2 C 0.85300(12) 0.1530(2) 0.10254(10)
C62_2 C 0.83000(13) 0.0888(3) 0.11930(13)
H44_2 H 0.7963 0.0938 0.1180
C63_2 C 0.85623(13) 0.0163(2) 0.13818(12)
C64_2 C 0.8301(2) 0.2688(3) 0.04891(14)
H46_2 H 0.8532 0.2521 0.0349
C65_2 C 0.7888(2) 0.2718(4) 0.09353(15)
H47_2 H 0.7761 0.2601 0.1154
C66_2 C 0.7740(2) 0.3361(4) 0.06630(15)
H48_2 H 0.7493 0.3773 0.0671
N8_3 N 0.93394(9) 0.93321(18) 0.15880(9)
N11_3 N 0.84047(10) 0.60691(17) 0.17287(7)
N12_2 N 0.80922(10) 0.49635(18) 0.20016(7)
C40_3 C 0.98445(11) 0.9425(2) 0.17892(9)
C49_3 C 0.90952(11) 0.8510(2) 0.16212(9)
C50_3 C 0.87976(12) 0.8103(2) 0.12936(10)
H35_3 H 0.8751 0.8371 0.1046
C51_3 C 0.85657(11) 0.7302(2) 0.13268(9)
H36_3 H 0.8363 0.7036 0.1103
C52_3 C 0.86371(11) 0.6902(2) 0.16933(9)
C53_3 C 0.89339(14) 0.7309(2) 0.20253(10)
H37_3 H 0.8981 0.7043 0.2274
C54_3 C 0.91595(14) 0.8109(2) 0.19879(10)
H38_3 H 0.9357 0.8382 0.2212
C55_3 C 0.82891(13) 0.5758(2) 0.20591(9)
H39_3 H 0.8342 0.6069 0.2298
C56_3 C 0.82578(13) 0.5433(2) 0.14422(9)
H40_3 H 0.8284 0.5458 0.1180
C57_4 C 0.80696(14) 0.4767(2) 0.16140(10)
H41_4 H 0.7941 0.4243 0.1487
H45_3 H 0.8402 0.9737 0.1499
Cd5 Cd 0.79215(2) 0.40010(2) 0.24683(2)
Cl2_4 Cl 0.77791(6) 0.27162(7) 0.19781(3)
N6_4 N 0.80497(8) 0.19473(15) 0.33967(7)
N7_4 N 0.78195(10) 0.30288(19) 0.29636(8)
N8_4 N 0.43394(9) 0.43321(18) 0.15880(9)
N9_4 N 0.63588(9) 0.47427(17) 0.23485(7)
N10_4 N 0.71672(9) 0.45901(17) 0.24688(8)
N11_4 N 0.34047(10) 0.10691(17) 0.17287(7)
N13_3 N 0.32539(12) 0.7279(2) 0.08301(9)
N14_3 N 0.29860(19) 0.8340(2) 0.03833(12)
C14_4 C 0.98851(10) 0.00726(18) 0.44978(8)
H7_4 H 0.9672 0.0553 0.4490
C32_4 C 0.90514(10) 0.03023(19) 0.37289(8)
H21_4 H 0.9349 0.0143 0.3671
C33_4 C 0.87777(11) 0.0994(2) 0.35278(9)
H22_4 H 0.8894 0.1309 0.3338
C34_4 C 0.83301(10) 0.12246(18) 0.36065(8)
C35_4 C 0.81666(11) 0.0773(2) 0.38968(10)
H23_4 H 0.7867 0.0930 0.3952
C36_4 C 0.84460(11) 0.0089(2) 0.41047(10)
C37_4 C 0.81251(16) 0.2374(3) 0.30783(13)
H25_4 H 0.8371 0.2217 0.2952
C38_4 C 0.76582(13) 0.2362(2) 0.34788(10)
H26_4 H 0.7511 0.2224 0.3684
C39_4 C 0.75197(13) 0.3014(2) 0.32078(10)
H27_4 H 0.7254 0.3397 0.3194
C40_4 C 0.48445(11) 0.4425(2) 0.17892(9)
C41_4 C 0.50190(11) 0.5200(2) 0.19906(9)
H28_3 H 0.4800 0.5662 0.2000
C42_4 C 0.55159(11) 0.5297(2) 0.21780(9)
H29_4 H 0.5629 0.5826 0.2308
C43_4 C 0.58420(10) 0.4613(2) 0.21719(9)
C44_4 C 0.56704(12) 0.3824(2) 0.19824(11)
H30_4 H 0.5888 0.3354 0.1985
C45_4 C 0.51770(11) 0.3733(2) 0.17899(11)
H31_4 H 0.5065 0.3204 0.1659
C46_4 C 0.67372(11) 0.4266(2) 0.22833(10)
H32_4 H 0.6698 0.3760 0.2124
C47_4 C 0.65691(15) 0.5417(3) 0.25936(15)
H33_4 H 0.6403 0.5866 0.2692
C48_4 C 0.70647(14) 0.5311(3) 0.26661(15)
H34_4 H 0.7299 0.5679 0.2827
C49_4 C 0.40952(11) 0.3510(2) 0.16212(9)
C50_4 C 0.37976(12) 0.3103(2) 0.12936(10)
H35_4 H 0.3751 0.3371 0.1046
C51_4 C 0.35657(11) 0.2302(2) 0.13268(9)
H36_4 H 0.3363 0.2036 0.1103
C52_4 C 0.36371(11) 0.1902(2) 0.16933(9)
C53_4 C 0.39339(14) 0.2309(2) 0.20253(10)
H37_4 H 0.3981 0.2043 0.2274
C54_4 C 0.41595(14) 0.3109(2) 0.19879(10)
H38_4 H 0.4357 0.3382 0.2212
C55_4 C 0.32891(13) 0.0758(2) 0.20591(9)
H39_4 H 0.3342 0.1069 0.2298
C56_4 C 0.32578(13) 0.0433(2) 0.14422(9)
H40_4 H 0.3284 0.0458 0.1180
C58_3 C 0.40638(11) 0.5066(2) 0.13973(10)
C59_3 C 0.42878(11) 0.5719(2) 0.12138(9)
H42_3 H 0.4619 0.5659 0.1211
C60_3 C 0.40252(13) 0.6449(2) 0.10378(10)
H43_3 H 0.4184 0.6889 0.0927
C61_3 C 0.35300(12) 0.6530(2) 0.10254(10)
C62_3 C 0.33000(13) 0.5888(3) 0.11930(13)
H44_3 H 0.2963 0.5938 0.1180
C63_3 C 0.35623(13) 0.5163(2) 0.13818(12)
H45_4 H 0.3402 0.4737 0.1499
C64_3 C 0.3301(2) 0.7688(3) 0.04891(14)
H46_3 H 0.3532 0.7521 0.0349
C65_3 C 0.2888(2) 0.7718(4) 0.09353(15)
H47_3 H 0.2761 0.7601 0.1154
C66_3 C 0.2740(2) 0.8361(4) 0.06630(15)
H48_3 H 0.2493 0.8773 0.0671
O5_2 O 0.87510(8) 0.40364(18) 0.28428(8)
O6_2 O 0.83315(8) 0.51642(16) 0.29867(7)
C6_4 C 0.95753(15) 0.4594(3) 0.34536(13)
H4_4 H 0.9577 0.4025 0.3349
C7_4 C 0.91731(13) 0.5096(3) 0.33402(12)
C8_4 C 0.91590(16) 0.5957(3) 0.34954(15)
H5_4 H 0.8871 0.6296 0.3421
C9_4 C 0.95696(17) 0.6298(3) 0.37566(17)
H6_4 H 0.9565 0.6877 0.3850
C10_4 C 0.99864(14) 0.5786(3) 0.38803(12)
C12_4 C 0.87115(13) 0.4747(2) 0.30354(9)
N13_4 N 0.17461(12) 0.2279(2) 0.41699(9)
N14_4 N 0.20140(19) 0.3340(2) 0.46167(12)
H28_4 H 0.0200 0.0662 0.3000
C58_4 C 0.09362(11) 0.0066(2) 0.36027(10)
C59_4 C 0.07122(11) 0.0719(2) 0.37862(9)
H42_4 H 0.0381 0.0659 0.3789
C60_4 C 0.09748(13) 0.1449(2) 0.39622(10)
H43_4 H 0.0816 0.1889 0.4073
C61_4 C 0.14700(12) 0.1530(2) 0.39746(10)
C62_4 C 0.17000(13) 0.0888(3) 0.38070(13)
H44_4 H 0.2037 0.0938 0.3820
C63_4 C 0.14377(13) 0.0163(2) 0.36182(12)
C64_4 C 0.1699(2) 0.2688(3) 0.45109(14)
H46_4 H 0.1468 0.2521 0.4651
C65_4 C 0.2112(2) 0.2718(4) 0.40647(15)
H47_4 H 0.2239 0.2601 0.3846
C66_4 C 0.2260(2) 0.3361(4) 0.43370(15)
H48_4 H 0.2507 0.3773 0.4329
N8_5 N 0.06606(9) 0.93321(18) 0.34120(9)
N11_5 N 0.15953(10) 0.60691(17) 0.32713(7)
N12_3 N 0.19078(10) 0.49635(18) 0.29984(7)
C40_5 C 0.01555(11) 0.9425(2) 0.32108(9)
C49_5 C 0.09048(11) 0.8510(2) 0.33788(9)
C50_5 C 0.12024(12) 0.8103(2) 0.37064(10)
H35_5 H 0.1249 0.8371 0.3954
C51_5 C 0.14343(11) 0.7302(2) 0.36732(9)
H36_5 H 0.1637 0.7036 0.3897
C52_5 C 0.13629(11) 0.6902(2) 0.33067(9)
C53_5 C 0.10661(14) 0.7309(2) 0.29747(10)
H37_5 H 0.1019 0.7043 0.2726
C54_5 C 0.08405(14) 0.8109(2) 0.30121(10)
H38_5 H 0.0643 0.8382 0.2788
C55_5 C 0.17109(13) 0.5758(2) 0.29409(9)
H39_5 H 0.1658 0.6069 0.2702
C56_5 C 0.17422(13) 0.5433(2) 0.35578(9)
H40_5 H 0.1716 0.5458 0.3820
C57_5 C 0.19304(14) 0.4767(2) 0.33860(10)
H41_5 H 0.2059 0.4243 0.3513
H45_5 H 0.1598 0.9737 0.3501
Cd5_2 Cd 0.20785(2) 0.40010(2) 0.25317(2)
Cl2_5 Cl 0.22209(6) 0.27162(7) 0.30219(3)
N6_5 N 0.19503(8) 0.19473(15) 0.16033(7)
N7_5 N 0.21805(10) 0.30288(19) 0.20364(8)
N8_6 N 0.56606(9) 0.43321(18) 0.34120(9)
N9_5 N 0.36412(9) 0.47427(17) 0.26515(7)
N10_5 N 0.28328(9) 0.45901(17) 0.25312(8)
N11_6 N 0.65953(10) 0.10691(17) 0.32713(7)
N13_5 N 0.67461(12) 0.7279(2) 0.41699(9)
N14_5 N 0.70140(19) 0.8340(2) 0.46167(12)
C14_5 C 0.01149(10) 0.00726(18) 0.05022(8)
H7_5 H 0.0328 0.0553 0.0510
C32_5 C 0.09486(10) 0.03023(19) 0.12711(8)
H21_5 H 0.0651 0.0143 0.1329
C33_5 C 0.12223(11) 0.0994(2) 0.14722(9)
H22_5 H 0.1106 0.1309 0.1662
C34_5 C 0.16699(10) 0.12246(18) 0.13935(8)
C35_5 C 0.18334(11) 0.0773(2) 0.11032(10)
H23_5 H 0.2133 0.0930 0.1048
C36_5 C 0.15540(11) 0.0089(2) 0.08953(10)
C37_5 C 0.18749(16) 0.2374(3) 0.19217(13)
H25_5 H 0.1629 0.2217 0.2048
C38_5 C 0.23418(13) 0.2362(2) 0.15212(10)
H26_5 H 0.2489 0.2224 0.1316
C39_5 C 0.24803(13) 0.3014(2) 0.17922(10)
H27_5 H 0.2746 0.3397 0.1806
C40_6 C 0.51555(11) 0.4425(2) 0.32108(9)
C41_5 C 0.49810(11) 0.5200(2) 0.30094(9)
H28_5 H 0.5200 0.5662 0.3000
C42_5 C 0.44841(11) 0.5297(2) 0.28220(9)
H29_5 H 0.4371 0.5826 0.2692
C43_5 C 0.41580(10) 0.4613(2) 0.28281(9)
C44_5 C 0.43296(12) 0.3824(2) 0.30176(11)
H30_5 H 0.4112 0.3354 0.3015
C45_5 C 0.48230(11) 0.3733(2) 0.32101(11)
H31_5 H 0.4935 0.3204 0.3341
C46_5 C 0.32628(11) 0.4266(2) 0.27167(10)
H32_5 H 0.3302 0.3760 0.2876
C47_5 C 0.34309(15) 0.5417(3) 0.24064(15)
H33_5 H 0.3597 0.5866 0.2308
C48_5 C 0.29353(14) 0.5311(3) 0.23339(15)
H34_5 H 0.2701 0.5679 0.2173
C49_6 C 0.59048(11) 0.3510(2) 0.33788(9)
C50_6 C 0.62024(12) 0.3103(2) 0.37064(10)
H35_6 H 0.6249 0.3371 0.3954
C51_6 C 0.64343(11) 0.2302(2) 0.36732(9)
H36_6 H 0.6637 0.2036 0.3897
C52_6 C 0.63629(11) 0.1902(2) 0.33067(9)
C53_6 C 0.60661(14) 0.2309(2) 0.29747(10)
H37_6 H 0.6019 0.2043 0.2726
C54_6 C 0.58405(14) 0.3109(2) 0.30121(10)
H38_6 H 0.5643 0.3382 0.2788
C55_6 C 0.67109(13) 0.0758(2) 0.29409(9)
H39_6 H 0.6658 0.1069 0.2702
C56_6 C 0.67422(13) 0.0433(2) 0.35578(9)
H40_6 H 0.6716 0.0458 0.3820
C58_5 C 0.59362(11) 0.5066(2) 0.36027(10)
C59_5 C 0.57122(11) 0.5719(2) 0.37862(9)
H42_5 H 0.5381 0.5659 0.3789
C60_5 C 0.59748(13) 0.6449(2) 0.39622(10)
H43_5 H 0.5816 0.6889 0.4073
C61_5 C 0.64700(12) 0.6530(2) 0.39746(10)
C62_5 C 0.67000(13) 0.5888(3) 0.38070(13)
H44_5 H 0.7037 0.5938 0.3820
C63_5 C 0.64377(13) 0.5163(2) 0.36182(12)
H45_6 H 0.6598 0.4737 0.3501
C64_5 C 0.6699(2) 0.7688(3) 0.45109(14)
H46_5 H 0.6468 0.7521 0.4651
C65_5 C 0.7112(2) 0.7718(4) 0.40647(15)
H47_5 H 0.7239 0.7601 0.3846
C66_5 C 0.7260(2) 0.8361(4) 0.43370(15)
H48_5 H 0.7507 0.8773 0.4329
O5_3 O 0.12490(8) 0.40364(18) 0.21572(8)
O6_3 O 0.16685(8) 0.51642(16) 0.20133(7)
C6_5 C 0.04247(15) 0.4594(3) 0.15464(13)
H4_5 H 0.0423 0.4025 0.1651
C7_5 C 0.08269(13) 0.5096(3) 0.16598(12)
C8_5 C 0.08410(16) 0.5957(3) 0.15046(15)
H5_5 H 0.1129 0.6296 0.1579
C9_5 C 0.04304(17) 0.6298(3) 0.12434(17)
H6_5 H 0.0435 0.6877 0.1150
C10_5 C 0.00136(14) 0.5786(3) 0.11197(12)
C12_5 C 0.12885(13) 0.4747(2) 0.19646(9)
C41_6 C 0.99810(11) 0.0200(2) 0.30094(9)
C42_6 C 0.94841(11) 0.0297(2) 0.28220(9)
H29_6 H 0.9371 0.0826 0.2692
C47_6 C 0.84309(15) 0.0417(3) 0.24064(15)
H33_6 H 0.8597 0.0866 0.2308
C48_6 C 0.79353(14) 0.0311(3) 0.23339(15)
H34_6 H 0.7701 0.0679 0.2173
O6_4 O 0.66685(8) 0.01642(16) 0.20133(7)
Cd1_2 Cd 0.22303(2) 0.36577(2) 0.00098(2)
Cd2_2 Cd 0.70785(2) 0.90010(2) 0.25317(2)
Cl1_3 Cl 0.24777(3) 0.24126(5) 0.05099(2)
Cl2_6 Cl 0.72209(6) 0.77162(7) 0.30219(3)
N1_5 N 0.58261(8) 0.41281(15) 0.07673(8)
N2_5 N 0.37648(8) 0.46412(15) 0.02176(7)
N3_5 N 0.29623(8) 0.43870(16) 0.00711(8)
N4_5 N 0.67375(9) 0.07940(15) 0.07159(7)
N6_6 N 0.69503(8) 0.69473(15) 0.16033(7)
N7_6 N 0.71805(10) 0.80288(19) 0.20364(8)
N9_6 N 0.86412(9) 0.97427(17) 0.26515(7)
N10_6 N 0.78328(9) 0.95901(17) 0.25312(8)
C13_5 C 0.53091(9) 0.42427(17) 0.06221(8)
C14_6 C 0.51149(10) 0.50726(18) 0.05022(8)
H7_6 H 0.5328 0.5553 0.0510
C15_5 C 0.46112(10) 0.51995(18) 0.03706(8)
H8_5 H 0.4488 0.5766 0.0297
C16_5 C 0.42871(9) 0.44986(18) 0.03460(8)
C17_5 C 0.44728(11) 0.3663(2) 0.04591(11)
H9_5 H 0.4259 0.3182 0.0443
C18_5 C 0.49772(11) 0.35433(19) 0.05962(11)
H10_5 H 0.5098 0.2977 0.0673
C19_5 C 0.34052(10) 0.4021(2) 0.01629(9)
H11_5 H 0.3463 0.3411 0.0187
C20_5 C 0.35287(11) 0.5452(2) 0.01584(10)
H12_5 H 0.3678 0.6009 0.0175
C21_5 C 0.30373(11) 0.5282(2) 0.00713(10)
H13_5 H 0.2789 0.5710 0.0020
C22_5 C 0.60585(9) 0.32921(18) 0.07525(8)
C23_5 C 0.64230(11) 0.2995(2) 0.10728(9)
H14_5 H 0.6515 0.3346 0.1300
C24_5 C 0.66541(11) 0.2183(2) 0.10613(9)
H15_5 H 0.6904 0.1996 0.1277
C25_5 C 0.65114(10) 0.16517(18) 0.07284(8)
C26_5 C 0.61451(10) 0.19361(18) 0.04083(8)
H16_5 H 0.6046 0.1574 0.0186
C27_5 C 0.59253(10) 0.27566(18) 0.04168(8)
H17_5 H 0.5686 0.2952 0.0196
C28_5 C 0.68298(11) 0.04060(19) 0.03922(9)
H18_5 H 0.6764 0.0667 0.0142
C29_5 C 0.68845(12) 0.0202(2) 0.10245(9)
H19_5 H 0.6867 0.0281 0.1287
C31_5 C 0.61131(10) 0.48397(17) 0.09812(9)
C32_6 C 0.59486(10) 0.53023(19) 0.12711(8)
H21_6 H 0.5651 0.5143 0.1329
C33_6 C 0.62223(11) 0.5994(2) 0.14722(9)
H22_6 H 0.6106 0.6309 0.1662
C34_6 C 0.66699(10) 0.62246(18) 0.13935(8)
C35_6 C 0.68334(11) 0.5773(2) 0.11032(10)
H23_6 H 0.7133 0.5930 0.1048
C36_6 C 0.65540(11) 0.5089(2) 0.08953(10)
H24_5 H 0.6663 0.4795 0.0697
C37_6 C 0.68749(16) 0.7374(3) 0.19217(13)
H25_6 H 0.6629 0.7217 0.2048
C38_6 C 0.73418(13) 0.7362(2) 0.15212(10)
H26_6 H 0.7489 0.7224 0.1316
C39_6 C 0.74803(13) 0.8014(2) 0.17922(10)
H27_6 H 0.7746 0.8397 0.1806
C43_6 C 0.91580(10) 0.9613(2) 0.28281(9)
C44_6 C 0.93296(12) 0.8824(2) 0.30176(11)
H30_6 H 0.9112 0.8354 0.3015
C45_6 C 0.98230(11) 0.8733(2) 0.32101(11)
H31_6 H 0.9935 0.8204 0.3341
C46_6 C 0.82628(11) 0.9266(2) 0.27167(10)
H32_6 H 0.8302 0.8760 0.2876
O5_4 O 0.62490(8) 0.90364(18) 0.21572(8)
N15_3 N 0.20244(9) 0.46100(16) 0.04749(7)
N16_3 N 0.69078(10) 0.99635(18) 0.29984(7)
N1_6 N 0.08261(8) 0.91281(15) 0.07673(8)
N4_6 N 0.17375(9) 0.57940(15) 0.07159(7)
C13_6 C 0.03091(9) 0.92427(17) 0.06221(8)
H10_6 H 0.0098 0.7977 0.0673
C22_6 C 0.10585(9) 0.82921(18) 0.07525(8)
C23_6 C 0.14230(11) 0.7995(2) 0.10728(9)
H14_6 H 0.1515 0.8346 0.1300
C24_6 C 0.16541(11) 0.7183(2) 0.10613(9)
H15_6 H 0.1904 0.6996 0.1277
C25_6 C 0.15114(10) 0.66517(18) 0.07284(8)
C26_6 C 0.11451(10) 0.69361(18) 0.04083(8)
H16_6 H 0.1046 0.6574 0.0186
C27_6 C 0.09253(10) 0.77566(18) 0.04168(8)
H17_6 H 0.0686 0.7952 0.0196
C28_6 C 0.18298(11) 0.54060(19) 0.03922(9)
H18_6 H 0.1764 0.5667 0.0142
C29_6 C 0.18845(12) 0.5202(2) 0.10245(9)
H19_6 H 0.1867 0.5281 0.1287
C30_5 C 0.20590(12) 0.4483(2) 0.08702(9)
H20_5 H 0.2185 0.3975 0.1012
C31_6 C 0.11131(10) 0.98397(17) 0.09812(9)
H24_6 H 0.1663 0.9795 0.0697
C57_6 C 0.69304(14) 0.9767(2) 0.33860(10)
H41_6 H 0.7059 0.9243 0.3513
O1_5 O 0.32998(8) 0.05754(15) 0.04691(6)
O2_5 O 0.36873(7) 0.17192(15) 0.02844(6)
C1_5 C 0.45705(14) 0.1152(3) 0.08444(13)
H1_5 H 0.4576 0.1725 0.0744
C2_5 C 0.41606(11) 0.0662(2) 0.07384(10)
C7_6 C 0.58269(13) 0.0096(3) 0.16598(12)
C8_6 C 0.58410(16) 0.0957(3) 0.15046(15)
H5_6 H 0.6129 0.1296 0.1579
C9_6 C 0.54304(17) 0.1298(3) 0.12434(17)
H6_6 H 0.5435 0.1877 0.1150
C10_6 C 0.50136(14) 0.0786(3) 0.11197(12)
C11_5 C 0.36878(11) 0.1031(2) 0.04747(9)
C3_5 C 0.41648(16) 0.9789(3) 0.08858(13)
H2_5 H 0.3879 0.9448 0.0807
C4_5 C 0.45671(16) 0.9421(3) 0.11375(16)
H3_5 H 0.4560 0.8838 0.1226
C5_5 C 0.49799(14) 0.9927(2) 0.12571(11)
C6_6 C 0.54247(15) 0.9594(3) 0.15464(13)
H4_6 H 0.5423 0.9025 0.1651
C12_6 C 0.62885(13) 0.9747(2) 0.19646(9)
O1_6 O 0.17002(8) 0.44246(15) 0.95309(6)
O2_6 O 0.13127(7) 0.32808(15) 0.97156(6)
C1_6 C 0.04295(14) 0.3848(3) 0.91556(13)
H1_6 H 0.0424 0.3275 0.9256
C2_6 C 0.08394(11) 0.4338(2) 0.92616(10)
C3_6 C 0.08352(16) 0.5211(3) 0.91142(13)
H2_6 H 0.1121 0.5552 0.9193
C4_6 C 0.04329(16) 0.5579(3) 0.88625(16)
H3_6 H 0.0440 0.6162 0.8774
C5_6 C 0.00201(14) 0.5073(2) 0.87429(11)
C11_6 C 0.13122(11) 0.3969(2) 0.95253(9)
Cd4_3 Cd 0.27697(2) 0.13423(2) 0.99902(2)
Cl3_3 Cl 0.25223(3) 0.25874(5) 0.94901(2)
N5_3 N 0.29756(9) 0.03900(16) 0.95251(7)
C30_6 C 0.29410(12) 0.0517(2) 0.91298(9)
H20_6 H 0.2815 0.1025 0.8988
N2_6 N 0.12352(8) 0.03588(15) 0.97824(7)
N3_6 N 0.20377(8) 0.06130(16) 0.99289(8)
C16_6 C 0.07129(9) 0.05014(18) 0.96540(8)
C17_6 C 0.05272(11) 0.1337(2) 0.95409(11)
H9_6 H 0.0741 0.1818 0.9557
C18_6 C 0.00228(11) 0.14567(19) 0.94038(11)
C19_6 C 0.15948(10) 0.0979(2) 0.98371(9)
H11_6 H 0.1537 0.1589 0.9813
N5_4 N 0.70244(9) 0.96100(16) 0.04749(7)
C30_7 C 0.70590(12) 0.9483(2) 0.08702(9)
H20_7 H 0.7185 0.8975 0.1012
Cd3_2 Cd 0.72303(2) 0.86577(2) 0.00098(2)
Cl1_4 Cl 0.74777(3) 0.74126(5) 0.05099(2)
N2_7 N 0.87648(8) 0.96412(15) 0.02176(7)
N3_7 N 0.79623(8) 0.93870(16) 0.00711(8)
C16_7 C 0.92871(9) 0.94986(18) 0.03460(8)
C17_7 C 0.94728(11) 0.8663(2) 0.04591(11)
H9_7 H 0.9259 0.8182 0.0443
C18_7 C 0.99772(11) 0.85433(19) 0.05962(11)
C19_7 C 0.84052(10) 0.9021(2) 0.01629(9)
H11_7 H 0.8463 0.8411 0.0187
O1_7 O 0.82998(8) 0.55754(15) 0.04691(6)
O2_7 O 0.86873(7) 0.67192(15) 0.02844(6)
C1_7 C 0.95705(14) 0.6152(3) 0.08444(13)
H1_7 H 0.9576 0.6725 0.0744
C2_7 C 0.91606(11) 0.5662(2) 0.07384(10)
C3_7 C 0.91648(16) 0.4789(3) 0.08858(13)
H2_7 H 0.8879 0.4448 0.0807
C4_7 C 0.95671(16) 0.4421(3) 0.11375(16)
H3_7 H 0.9560 0.3838 0.1226
C5_7 C 0.99799(14) 0.4927(2) 0.12571(11)
C11_7 C 0.86878(11) 0.6031(2) 0.04747(9)
O3_3 O 0.87510(8) 0.59636(18) 0.78428(8)
O4_3 O 0.83315(8) 0.48358(16) 0.79867(7)
C6_7 C 0.95753(15) 0.5406(3) 0.84536(13)
H4_7 H 0.9577 0.5975 0.8349
C7_7 C 0.91731(13) 0.4904(3) 0.83402(12)
C8_7 C 0.91590(16) 0.4043(3) 0.84954(15)
H5_7 H 0.8871 0.3704 0.8421
C9_7 C 0.95696(17) 0.3702(3) 0.87566(17)
H6_7 H 0.9565 0.3123 0.8850
C10_7 C 0.99864(14) 0.4214(3) 0.88803(12)
C12_7 C 0.87115(13) 0.5253(2) 0.80354(9)
Cd6_3 Cd 0.79215(2) 0.59990(2) 0.74683(2)
N8_7 N 0.93394(9) 0.06679(18) 0.65880(9)
N11_7 N 0.84047(10) 0.39309(17) 0.67287(7)
N12_4 N 0.80922(10) 0.50365(18) 0.70016(7)
C40_7 C 0.98445(11) 0.0575(2) 0.67892(9)
C49_7 C 0.90952(11) 0.1490(2) 0.66212(9)
C50_7 C 0.87976(12) 0.1897(2) 0.62936(10)
H35_7 H 0.8751 0.1629 0.6046
C51_7 C 0.85657(11) 0.2698(2) 0.63268(9)
H36_7 H 0.8363 0.2964 0.6103
C52_7 C 0.86371(11) 0.3098(2) 0.66933(9)
C53_7 C 0.89339(14) 0.2691(2) 0.70253(10)
H37_7 H 0.8981 0.2957 0.7274
C54_7 C 0.91595(14) 0.1891(2) 0.69879(10)
H38_7 H 0.9357 0.1618 0.7212
C55_7 C 0.82891(13) 0.4242(2) 0.70591(9)
H39_7 H 0.8342 0.3931 0.7298
C56_7 C 0.82578(13) 0.4567(2) 0.64422(9)
H40_7 H 0.8284 0.4542 0.6180
C57_7 C 0.80696(14) 0.5233(2) 0.66140(10)
H41_7 H 0.7941 0.5757 0.6487
H45_7 H 0.8402 0.0263 0.6499
Cl2_7 Cl 0.77791(6) 0.72838(7) 0.69781(3)
N6_7 N 0.80497(8) 0.80527(15) 0.83967(7)
N7_7 N 0.78195(10) 0.69712(19) 0.79636(8)
N8_8 N 0.43394(9) 0.56679(18) 0.65880(9)
N9_7 N 0.63588(9) 0.52573(17) 0.73485(7)
N10_7 N 0.71672(9) 0.54099(17) 0.74688(8)
N11_8 N 0.34047(10) 0.89309(17) 0.67287(7)
N13_6 N 0.32539(12) 0.2721(2) 0.58301(9)
N14_6 N 0.29860(19) 0.1660(2) 0.53833(12)
C14_7 C 0.98851(10) 0.99274(18) 0.94978(8)
H7_7 H 0.9672 0.9447 0.9490
C32_7 C 0.90514(10) 0.96977(19) 0.87289(8)
H21_7 H 0.9349 0.9857 0.8671
C33_7 C 0.87777(11) 0.9006(2) 0.85278(9)
H22_7 H 0.8894 0.8691 0.8338
C34_7 C 0.83301(10) 0.87754(18) 0.86065(8)
C35_7 C 0.81666(11) 0.9227(2) 0.88968(10)
H23_7 H 0.7867 0.9070 0.8952
C36_7 C 0.84460(11) 0.9911(2) 0.91047(10)
C37_7 C 0.81251(16) 0.7626(3) 0.80783(13)
H25_7 H 0.8371 0.7783 0.7952
C38_7 C 0.76582(13) 0.7638(2) 0.84788(10)
H26_7 H 0.7511 0.7776 0.8684
C39_7 C 0.75197(13) 0.6986(2) 0.82078(10)
H27_7 H 0.7254 0.6603 0.8194
C40_8 C 0.48445(11) 0.5575(2) 0.67892(9)
C41_7 C 0.50190(11) 0.4800(2) 0.69906(9)
H28_6 H 0.4800 0.4338 0.7000
C42_7 C 0.55159(11) 0.4703(2) 0.71780(9)
H29_7 H 0.5629 0.4174 0.7308
C43_7 C 0.58420(10) 0.5387(2) 0.71719(9)
C44_7 C 0.56704(12) 0.6176(2) 0.69824(11)
H30_7 H 0.5888 0.6646 0.6985
C45_7 C 0.51770(11) 0.6267(2) 0.67899(11)
H31_7 H 0.5065 0.6796 0.6659
C46_7 C 0.67372(11) 0.5734(2) 0.72833(10)
H32_7 H 0.6698 0.6240 0.7124
C47_7 C 0.65691(15) 0.4583(3) 0.75936(15)
H33_7 H 0.6403 0.4134 0.7692
C48_7 C 0.70647(14) 0.4689(3) 0.76661(15)
H34_7 H 0.7299 0.4321 0.7827
C49_8 C 0.40952(11) 0.6490(2) 0.66212(9)
C50_8 C 0.37976(12) 0.6897(2) 0.62936(10)
H35_8 H 0.3751 0.6629 0.6046
C51_8 C 0.35657(11) 0.7698(2) 0.63268(9)
H36_8 H 0.3363 0.7964 0.6103
C52_8 C 0.36371(11) 0.8098(2) 0.66933(9)
C53_8 C 0.39339(14) 0.7691(2) 0.70253(10)
H37_8 H 0.3981 0.7957 0.7274
C54_8 C 0.41595(14) 0.6891(2) 0.69879(10)
H38_8 H 0.4357 0.6618 0.7212
C55_8 C 0.32891(13) 0.9242(2) 0.70591(9)
H39_8 H 0.3342 0.8931 0.7298
C56_8 C 0.32578(13) 0.9567(2) 0.64422(9)
H40_8 H 0.3284 0.9542 0.6180
C58_6 C 0.40638(11) 0.4934(2) 0.63973(10)
C59_6 C 0.42878(11) 0.4281(2) 0.62138(9)
H42_6 H 0.4619 0.4341 0.6211
C60_6 C 0.40252(13) 0.3551(2) 0.60378(10)
H43_6 H 0.4184 0.3111 0.5927
C61_6 C 0.35300(12) 0.3470(2) 0.60254(10)
C62_6 C 0.33000(13) 0.4112(3) 0.61930(13)
H44_6 H 0.2963 0.4062 0.6180
C63_6 C 0.35623(13) 0.4837(2) 0.63818(12)
H45_8 H 0.3402 0.5263 0.6499
C64_6 C 0.3301(2) 0.2312(3) 0.54891(14)
H46_6 H 0.3532 0.2479 0.5349
C65_6 C 0.2888(2) 0.2282(4) 0.59353(15)
H47_6 H 0.2761 0.2399 0.6154
C66_6 C 0.2740(2) 0.1639(4) 0.56630(15)
H48_6 H 0.2493 0.1227 0.5671
C15_6 C 0.96112(10) 0.01995(18) 0.03706(8)
H8_6 H 0.9488 0.0766 0.0297
C20_6 C 0.85287(11) 0.0452(2) 0.01584(10)
H12_6 H 0.8678 0.1009 0.0175
C21_6 C 0.80373(11) 0.0282(2) 0.00713(10)
H13_6 H 0.7789 0.0710 0.0020
O3_4 O 0.37510(8) 0.09636(18) 0.78428(8)
C3_8 C 0.58352(16) 0.0211(3) 0.91142(13)
H2_8 H 0.6121 0.0552 0.9193
C4_8 C 0.54329(16) 0.0579(3) 0.88625(16)
H3_8 H 0.5440 0.1162 0.8774
C5_8 C 0.50201(14) 0.0073(2) 0.87429(11)
C6_8 C 0.45753(15) 0.0406(3) 0.84536(13)
H4_8 H 0.4577 0.0975 0.8349
C12_8 C 0.37115(13) 0.0253(2) 0.80354(9)
Cd6_4 Cd 0.29215(2) 0.09990(2) 0.74683(2)
O1_8 O 0.67002(8) 0.94246(15) 0.95309(6)
O2_8 O 0.63127(7) 0.82808(15) 0.97156(6)
O4_4 O 0.33315(8) 0.98358(16) 0.79867(7)
C1_8 C 0.54295(14) 0.8848(3) 0.91556(13)
H1_8 H 0.5424 0.8275 0.9256
C2_8 C 0.58394(11) 0.9338(2) 0.92616(10)
C7_8 C 0.41731(13) 0.9904(3) 0.83402(12)
C8_8 C 0.41590(16) 0.9043(3) 0.84954(15)
H5_8 H 0.3871 0.8704 0.8421
C9_8 C 0.45696(17) 0.8702(3) 0.87566(17)
H6_8 H 0.4565 0.8123 0.8850
C10_8 C 0.49864(14) 0.9214(3) 0.88803(12)
C11_8 C 0.63122(11) 0.8969(2) 0.95253(9)
Cd4_4 Cd 0.77697(2) 0.63423(2) 0.99902(2)
Cl3_4 Cl 0.75223(3) 0.75874(5) 0.94901(2)
Cl2_8 Cl 0.27791(6) 0.22838(7) 0.69781(3)
N1_7 N 0.41739(8) 0.58719(15) 0.92327(8)
N2_8 N 0.62352(8) 0.53588(15) 0.97824(7)
N3_8 N 0.70377(8) 0.56130(16) 0.99289(8)
N4_7 N 0.32625(9) 0.92060(15) 0.92841(7)
N6_8 N 0.30497(8) 0.30527(15) 0.83967(7)
N7_8 N 0.28195(10) 0.19712(19) 0.79636(8)
N9_8 N 0.13588(9) 0.02573(17) 0.73485(7)
N10_8 N 0.21672(9) 0.04099(17) 0.74688(8)
C13_7 C 0.46909(9) 0.57573(17) 0.93779(8)
C14_8 C 0.48851(10) 0.49274(18) 0.94978(8)
H7_8 H 0.4672 0.4447 0.9490
C15_7 C 0.53888(10) 0.48005(18) 0.96294(8)
H8_7 H 0.5512 0.4234 0.9703
C16_8 C 0.57129(9) 0.55014(18) 0.96540(8)
C17_8 C 0.55272(11) 0.6337(2) 0.95409(11)
H9_8 H 0.5741 0.6818 0.9557
C18_8 C 0.50228(11) 0.64567(19) 0.94038(11)
H10_7 H 0.4902 0.7023 0.9327
C19_8 C 0.65948(10) 0.5979(2) 0.98371(9)
H11_8 H 0.6537 0.6589 0.9813
C20_7 C 0.64713(11) 0.4548(2) 0.98416(10)
H12_7 H 0.6322 0.3991 0.9825
C21_7 C 0.69627(11) 0.4718(2) 0.99287(10)
H13_7 H 0.7211 0.4290 0.9980
C22_7 C 0.39415(9) 0.67079(18) 0.92475(8)
C23_7 C 0.35770(11) 0.7005(2) 0.89272(9)
H14_7 H 0.3485 0.6654 0.8700
C24_7 C 0.33459(11) 0.7817(2) 0.89387(9)
H15_7 H 0.3096 0.8004 0.8723
C25_7 C 0.34886(10) 0.83483(18) 0.92716(8)
C26_7 C 0.38549(10) 0.80639(18) 0.95917(8)
H16_7 H 0.3954 0.8426 0.9814
C27_7 C 0.40747(10) 0.72434(18) 0.95832(8)
H17_7 H 0.4314 0.7048 0.9804
C28_7 C 0.31702(11) 0.95940(19) 0.96078(9)
H18_7 H 0.3236 0.9333 0.9858
C29_7 C 0.31155(12) 0.9798(2) 0.89755(9)
H19_7 H 0.3133 0.9719 0.8713
C31_7 C 0.38869(10) 0.51603(17) 0.90188(9)
C32_8 C 0.40514(10) 0.46977(19) 0.87289(8)
H21_8 H 0.4349 0.4857 0.8671
C33_8 C 0.37777(11) 0.4006(2) 0.85278(9)
H22_8 H 0.3894 0.3691 0.8338
C34_8 C 0.33301(10) 0.37754(18) 0.86065(8)
C35_8 C 0.31666(11) 0.4227(2) 0.88968(10)
H23_8 H 0.2867 0.4070 0.8952
C36_8 C 0.34460(11) 0.4911(2) 0.91047(10)
H24_7 H 0.3337 0.5205 0.9303
C37_8 C 0.31251(16) 0.2626(3) 0.80783(13)
H25_8 H 0.3371 0.2783 0.7952
C38_8 C 0.26582(13) 0.2638(2) 0.84788(10)
H26_8 H 0.2511 0.2776 0.8684
C39_8 C 0.25197(13) 0.1986(2) 0.82078(10)
H27_8 H 0.2254 0.1603 0.8194
C43_8 C 0.08420(10) 0.0387(2) 0.71719(9)
C44_8 C 0.06704(12) 0.1176(2) 0.69824(11)
H30_8 H 0.0888 0.1646 0.6985
C45_8 C 0.01770(11) 0.1267(2) 0.67899(11)
H31_8 H 0.0065 0.1796 0.6659
C46_8 C 0.17372(11) 0.0734(2) 0.72833(10)
H32_8 H 0.1698 0.1240 0.7124
N15_4 N 0.79756(9) 0.53900(16) 0.95251(7)
N16_4 N 0.30922(10) 0.00365(18) 0.70016(7)
C41_8 C 0.00190(11) 0.9800(2) 0.69906(9)
C42_8 C 0.05159(11) 0.9703(2) 0.71780(9)
H29_8 H 0.0629 0.9174 0.7308
C47_8 C 0.15691(15) 0.9583(3) 0.75936(15)
H33_8 H 0.1403 0.9134 0.7692
C48_8 C 0.20647(14) 0.9689(3) 0.76661(15)
H34_8 H 0.2299 0.9321 0.7827
N1_8 N 0.91739(8) 0.08719(15) 0.92327(8)
N4_8 N 0.82625(9) 0.42060(15) 0.92841(7)
C13_8 C 0.96909(9) 0.07573(17) 0.93779(8)
H10_8 H 0.9902 0.2023 0.9327
C22_8 C 0.89415(9) 0.17079(18) 0.92475(8)
C23_8 C 0.85770(11) 0.2005(2) 0.89272(9)
H14_8 H 0.8485 0.1654 0.8700
C24_8 C 0.83459(11) 0.2817(2) 0.89387(9)
H15_8 H 0.8096 0.3004 0.8723
C25_8 C 0.84886(10) 0.33483(18) 0.92716(8)
C26_8 C 0.88549(10) 0.30639(18) 0.95917(8)
H16_8 H 0.8954 0.3426 0.9814
C27_8 C 0.90747(10) 0.22434(18) 0.95832(8)
H17_8 H 0.9314 0.2048 0.9804
C28_8 C 0.81702(11) 0.45940(19) 0.96078(9)
H18_8 H 0.8236 0.4333 0.9858
C29_8 C 0.81155(12) 0.4798(2) 0.89755(9)
H19_8 H 0.8133 0.4719 0.8713
C30_8 C 0.79410(12) 0.5517(2) 0.91298(9)
H20_8 H 0.7815 0.6025 0.8988
C31_8 C 0.88869(10) 0.01603(17) 0.90188(9)
H24_8 H 0.8337 0.0205 0.9303
C57_8 C 0.30696(14) 0.0233(2) 0.66140(10)
H41_8 H 0.2941 0.0757 0.6487
N13_7 N 0.17461(12) 0.7721(2) 0.91699(9)
N14_7 N 0.20140(19) 0.6660(2) 0.96167(12)
H28_7 H 0.0200 0.9338 0.8000
C58_7 C 0.09362(11) 0.9934(2) 0.86027(10)
C59_7 C 0.07122(11) 0.9281(2) 0.87862(9)
H42_7 H 0.0381 0.9341 0.8789
C60_7 C 0.09748(13) 0.8551(2) 0.89622(10)
H43_7 H 0.0816 0.8111 0.9073
C61_7 C 0.14700(12) 0.8470(2) 0.89746(10)
C62_7 C 0.17000(13) 0.9112(3) 0.88070(13)
H44_7 H 0.2037 0.9062 0.8820
C63_7 C 0.14377(13) 0.9837(2) 0.86182(12)
C64_7 C 0.1699(2) 0.7312(3) 0.95109(14)
H46_7 H 0.1468 0.7479 0.9651
C65_7 C 0.2112(2) 0.7282(4) 0.90647(15)
H47_7 H 0.2239 0.7399 0.8846
C66_7 C 0.2260(2) 0.6639(4) 0.93370(15)
H48_7 H 0.2507 0.6227 0.9329
N13_8 N 0.82539(12) 0.7721(2) 0.58301(9)
N14_8 N 0.79860(19) 0.6660(2) 0.53833(12)
H28_8 H 0.9800 0.9338 0.7000
C58_8 C 0.90638(11) 0.9934(2) 0.63973(10)
C59_8 C 0.92878(11) 0.9281(2) 0.62138(9)
H42_8 H 0.9619 0.9341 0.6211
C60_8 C 0.90252(13) 0.8551(2) 0.60378(10)
H43_8 H 0.9184 0.8111 0.5927
C61_8 C 0.85300(12) 0.8470(2) 0.60254(10)
C62_8 C 0.83000(13) 0.9112(3) 0.61930(13)
H44_8 H 0.7963 0.9062 0.6180
C63_8 C 0.85623(13) 0.9837(2) 0.63818(12)
C64_8 C 0.8301(2) 0.7312(3) 0.54891(14)
H46_8 H 0.8532 0.7479 0.5349
C65_8 C 0.7888(2) 0.7282(4) 0.59353(15)
H47_8 H 0.7761 0.7399 0.6154
C66_8 C 0.7740(2) 0.6639(4) 0.56630(15)
H48_8 H 0.7493 0.6227 0.5671
C15_8 C 0.03888(10) 0.98005(18) 0.96294(8)
H8_8 H 0.0512 0.9234 0.9703
C20_8 C 0.14713(11) 0.9548(2) 0.98416(10)
H12_8 H 0.1322 0.8991 0.9825
C21_8 C 0.19627(11) 0.9718(2) 0.99287(10)
H13_8 H 0.2211 0.9290 0.9980
loop_
_geom_bond_atom_site_label_1
_geom_bond_atom_site_label_2
_geom_bond_site_symmetry_1
_geom_bond_site_symmetry_2
O3 C12 1_555 1_555
O4 C12 1_555 1_555
H4 C6 1_555 1_555
C7 C6 1_555 1_555
C8 C7 1_555 1_555
H5 C8 1_555 1_555
C9 C8 1_555 1_555
H6 C9 1_555 1_555
C12 C7 1_555 1_555
Cd6 O3 1_555 1_555
O4 Cd6 1_555 1_555
C9 C10 1_555 1_555
N8 C40 1_555 1_555
N11 C52 1_555 1_555
N12 C55 1_555 1_555
C49 N8 1_555 1_555
C50 C49 1_555 1_555
H35 C50 1_555 1_555
C51 C50 1_555 1_555
H36 C51 1_555 1_555
C52 C51 1_555 1_555
C53 C52 1_555 1_555
H37 C53 1_555 1_555
C54 C49 1_555 1_555
H38 C54 1_555 1_555
C55 N11 1_555 1_555
H39 C55 1_555 1_555
C56 N11 1_555 1_555
H40 C56 1_555 1_555
C57 N12 1_555 1_555
H41 C57 1_555 1_555
Cd6 N12 1_555 1_555
C53 C54 1_555 1_555
C56 C57 1_555 1_555
Cd6 Cl2 1_555 1_555
N6 C34 1_555 1_555
N7 Cd6 1_555 1_555
N8_2 C40_2 1_555 1_555
N9 C43 1_555 1_555
N10 Cd6 1_555 1_555
N11_2 C52_2 1_555 1_555
N13 C61 1_555 1_555
N14 C64 1_555 1_555
C14 H7 1_555 1_555
H21 C32 1_555 1_555
C33 C32 1_555 1_555
H22 C33 1_555 1_555
C34 C33 1_555 1_555
C35 C34 1_555 1_555
H23 C35 1_555 1_555
C37 N6 1_555 1_555
H25 C37 1_555 1_555
C38 N6 1_555 1_555
H26 C38 1_555 1_555
C39 N7 1_555 1_555
H27 C39 1_555 1_555
C40_2 C41 1_555 1_555
C41 H28 1_555 1_555
C42 C41 1_555 1_555
H29 C42 1_555 1_555
C43 C42 1_555 1_555
C44 C43 1_555 1_555
H30 C44 1_555 1_555
C45 C40_2 1_555 1_555
H31 C45 1_555 1_555
C46 N9 1_555 1_555
H32 C46 1_555 1_555
C47 N9 1_555 1_555
H33 C47 1_555 1_555
C48 N10 1_555 1_555
H34 C48 1_555 1_555
C49_2 N8_2 1_555 1_555
C50_2 C49_2 1_555 1_555
H35_2 C50_2 1_555 1_555
C51_2 C50_2 1_555 1_555
H36_2 C51_2 1_555 1_555
C52_2 C51_2 1_555 1_555
C53_2 C52_2 1_555 1_555
H37_2 C53_2 1_555 1_555
C54_2 C49_2 1_555 1_555
H38_2 C54_2 1_555 1_555
C55_2 N11_2 1_555 1_555
H39_2 C55_2 1_555 1_555
C56_2 N11_2 1_555 1_555
H40_2 C56_2 1_555 1_555
C58 N8_2 1_555 1_555
C59 C58 1_555 1_555
H42 C59 1_555 1_555
C60 C59 1_555 1_555
H43 C60 1_555 1_555
C61 C60 1_555 1_555
C62 C61 1_555 1_555
H44 C62 1_555 1_555
C63 C58 1_555 1_555
H45_2 C63 1_555 1_555
C64 N13 1_555 1_555
H46 C64 1_555 1_555
C65 N13 1_555 1_555
H47 C65 1_555 1_555
C66 N14 1_555 1_555
H48 C66 1_555 1_555
N7 C37 1_555 1_555
N10 C46 1_555 1_555
C35 C36 1_555 1_555
C38 C39 1_555 1_555
C44 C45 1_555 1_555
C47 C48 1_555 1_555
C53_2 C54_2 1_555 1_555
C62 C63 1_555 1_555
C65 C66 1_555 1_555
C42_2 C41_2 1_555 1_555
H29_2 C42_2 1_555 1_555
H33_2 C47_2 1_555 1_555
H34_2 C48_2 1_555 1_555
C47_2 C48_2 1_555 1_555
Cd1 Cl1 1_555 1_555
Cd2 Cl2_2 1_555 1_555
Cl1 Cd4 1_555 1_555
O1 Cd1 1_555 1_555
O2 Cd1 1_555 1_555
N1 C13 1_555 1_555
N2 C16 1_555 1_555
N3 Cd1 1_555 1_555
N4 C25 1_555 1_555
N6_2 C34_2 1_555 1_555
N7_2 Cd2 1_555 1_555
N9_2 C43_2 1_555 1_555
N10_2 Cd2 1_555 1_555
C1 H1 1_555 1_555
C2 C1 1_555 1_555
C3 C2 1_555 1_555
H2 C3 1_555 1_555
C4 C3 1_555 1_555
H3 C4 1_555 1_555
C5 C4 1_555 1_555
C11 O1 1_555 1_555
C13 C14_2 1_555 1_555
C14_2 H7_2 1_555 1_555
C15 C14_2 1_555 1_555
H8 C15 1_555 1_555
C16 C15 1_555 1_555
C17 C16 1_555 1_555
H9 C17 1_555 1_555
C18 C13 1_555 1_555
H10 C18 1_555 1_555
C19 N2 1_555 1_555
H11 C19 1_555 1_555
C20 N2 1_555 1_555
H12 C20 1_555 1_555
C21 N3 1_555 1_555
H13 C21 1_555 1_555
C22 N1 1_555 1_555
C23 C22 1_555 1_555
H14 C23 1_555 1_555
C24 C23 1_555 1_555
H15 C24 1_555 1_555
C25 C24 1_555 1_555
C26 C25 1_555 1_555
H16 C26 1_555 1_555
C27 C22 1_555 1_555
H17 C27 1_555 1_555
C28 N4 1_555 1_555
H18 C28 1_555 1_555
C29 N4 1_555 1_555
H19 C29 1_555 1_555
C31 N1 1_555 1_555
C32_2 C31 1_555 1_555
H21_2 C32_2 1_555 1_555
C33_2 C32_2 1_555 1_555
H22_2 C33_2 1_555 1_555
C34_2 C33_2 1_555 1_555
C35_2 C34_2 1_555 1_555
H23_2 C35_2 1_555 1_555
C36_2 C31 1_555 1_555
H24 C36_2 1_555 1_555
C37_2 N6_2 1_555 1_555
H25_2 C37_2 1_555 1_555
C38_2 N6_2 1_555 1_555
H26_2 C38_2 1_555 1_555
C39_2 N7_2 1_555 1_555
H27_2 C39_2 1_555 1_555
C44_2 C43_2 1_555 1_555
H30_2 C44_2 1_555 1_555
H31_2 C45_2 1_555 1_555
C46_2 N9_2 1_555 1_555
H32_2 C46_2 1_555 1_555
Cd4 Cl3 1_555 1_555
Cl3 Cd1 1_555 1_555
O5 Cd2 1_555 1_555
N15 Cd1 1_555 1_555
N16 Cd2 1_555 1_555
O2 C11 1_555 1_555
N3 C19 1_555 1_555
N7_2 C37_2 1_555 1_555
N10_2 C46_2 1_555 1_555
C2 C11 1_555 1_555
C17 C18 1_555 1_555
C20 C21 1_555 1_555
C26 C27 1_555 1_555
C35_2 C36_2 1_555 1_555
C38_2 C39_2 1_555 1_555
C44_2 C45_2 1_555 1_555
N1_2 C13_2 1_555 1_555
N4_2 C25_2 1_555 1_555
N15 C28_2 1_555 1_555
C22_2 N1_2 1_555 1_555
C23_2 C22_2 1_555 1_555
H14_2 C23_2 1_555 1_555
C24_2 C23_2 1_555 1_555
H15_2 C24_2 1_555 1_555
C25_2 C24_2 1_555 1_555
C26_2 C25_2 1_555 1_555
H16_2 C26_2 1_555 1_555
C27_2 C22_2 1_555 1_555
H17_2 C27_2 1_555 1_555
C28_2 N4_2 1_555 1_555
H18_2 C28_2 1_555 1_555
C29_2 N4_2 1_555 1_555
H19_2 C29_2 1_555 1_555
C30 N15 1_555 1_555
H20 C30 1_555 1_555
C31_2 N1_2 1_555 1_555
C57_2 N16 1_555 1_555
H41_2 C57_2 1_555 1_555
C26_2 C27_2 1_555 1_555
C29_2 C30 1_555 1_555
C30_2 N5 1_555 1_555
H20_2 C30_2 1_555 1_555
Cd4 N5 1_555 1_555
O1_2 Cd4 1_555 1_555
O2_2 Cd4 1_555 1_555
N2_2 C16_2 1_555 1_555
N3_2 Cd4 1_555 1_555
C1_2 H1_2 1_555 1_555
C2_2 C1_2 1_555 1_555
C8_2 C7_2 1_555 1_555
H5_2 C8_2 1_555 1_555
C9_2 C8_2 1_555 1_555
H6_2 C9_2 1_555 1_555
C10_2 C1_2 1_555 1_555
C11_2 O1_2 1_555 1_555
C17_2 C16_2 1_555 1_555
H9_2 C17_2 1_555 1_555
C19_2 N2_2 1_555 1_555
H11_2 C19_2 1_555 1_555
O2_2 C11_2 1_555 1_555
N3_2 C19_2 1_555 1_555
C2_2 C11_2 1_555 1_555
C9_2 C10_2 1_555 1_555
C17_2 C18_2 1_555 1_555
O5 C12_2 1_555 1_555
H2_2 C3_2 1_555 1_555
C4_2 C3_2 1_555 1_555
H3_2 C4_2 1_555 1_555
C5_2 C4_2 1_555 1_555
C6_2 C5_2 1_555 1_555
H4_2 C6_2 1_555 1_555
H8_2 C15_2 1_555 1_555
H12_2 C20_2 1_555 1_555
H13_2 C21_2 1_555 1_555
C20_2 C21_2 1_555 1_555
C30_3 N5_2 1_555 1_555
H20_3 C30_3 1_555 1_555
Cd3 N5_2 1_555 1_555
O3_2 C12_3 1_555 1_555
H2_3 C3_3 1_555 1_555
C4_3 C3_3 1_555 1_555
H3_3 C4_3 1_555 1_555
C5_3 C4_3 1_555 1_555
C6_3 C5_3 1_555 1_555
H4_3 C6_3 1_555 1_555
H8_3 C15_3 1_555 1_555
H12_3 C20_3 1_555 1_555
H13_3 C21_3 1_555 1_555
Cd6_2 O3_2 1_555 1_555
C20_3 C21_3 1_555 1_555
Cd3 Cl1_2 1_555 1_555
Cl1_2 Cd4_2 1_555 1_555
O1_3 Cd3 1_555 1_555
O2_3 Cd3 1_555 1_555
N2_3 C16_3 1_555 1_555
N3_3 Cd3 1_555 1_555
C1_3 H1_3 1_555 1_555
C2_3 C1_3 1_555 1_555
C8_3 C7_3 1_555 1_555
H5_3 C8_3 1_555 1_555
C9_3 C8_3 1_555 1_555
H6_3 C9_3 1_555 1_555
C10_3 C1_3 1_555 1_555
C11_3 O1_3 1_555 1_555
C17_3 C16_3 1_555 1_555
H9_3 C17_3 1_555 1_555
C19_3 N2_3 1_555 1_555
H11_3 C19_3 1_555 1_555
Cd4_2 Cl3_2 1_555 1_555
Cl3_2 Cd3 1_555 1_555
O2_3 C11_3 1_555 1_555
N3_3 C19_3 1_555 1_555
C2_3 C11_3 1_555 1_555
C9_3 C10_3 1_555 1_555
C17_3 C18_3 1_555 1_555
Cd6_2 Cl2_3 1_555 1_555
O1_4 Cd4_2 1_555 1_555
O2_4 Cd4_2 1_555 1_555
N1_3 C13_3 1_555 1_555
N2_4 C16_4 1_555 1_555
N3_4 Cd4_2 1_555 1_555
N4_3 C25_3 1_555 1_555
N6_3 C34_3 1_555 1_555
N7_3 Cd6_2 1_555 1_555
N9_3 C43_3 1_555 1_555
N10_3 Cd6_2 1_555 1_555
C1_4 H1_4 1_555 1_555
C2_4 C1_4 1_555 1_555
C3_4 C2_4 1_555 1_555
H2_4 C3_4 1_555 1_555
C4_4 C3_4 1_555 1_555
H3_4 C4_4 1_555 1_555
C5_4 C4_4 1_555 1_555
C11_4 O1_4 1_555 1_555
C13_3 C14_3 1_555 1_555
C14_3 H7_3 1_555 1_555
C15_4 C14_3 1_555 1_555
H8_4 C15_4 1_555 1_555
C16_4 C15_4 1_555 1_555
C17_4 C16_4 1_555 1_555
H9_4 C17_4 1_555 1_555
C18_4 C13_3 1_555 1_555
H10_3 C18_4 1_555 1_555
C19_4 N2_4 1_555 1_555
H11_4 C19_4 1_555 1_555
C20_4 N2_4 1_555 1_555
H12_4 C20_4 1_555 1_555
C21_4 N3_4 1_555 1_555
H13_4 C21_4 1_555 1_555
C22_3 N1_3 1_555 1_555
C23_3 C22_3 1_555 1_555
H14_3 C23_3 1_555 1_555
C24_3 C23_3 1_555 1_555
H15_3 C24_3 1_555 1_555
C25_3 C24_3 1_555 1_555
C26_3 C25_3 1_555 1_555
H16_3 C26_3 1_555 1_555
C27_3 C22_3 1_555 1_555
H17_3 C27_3 1_555 1_555
C28_3 N4_3 1_555 1_555
H18_3 C28_3 1_555 1_555
C29_3 N4_3 1_555 1_555
H19_3 C29_3 1_555 1_555
C31_3 N1_3 1_555 1_555
C32_3 C31_3 1_555 1_555
H21_3 C32_3 1_555 1_555
C33_3 C32_3 1_555 1_555
H22_3 C33_3 1_555 1_555
C34_3 C33_3 1_555 1_555
C35_3 C34_3 1_555 1_555
H23_3 C35_3 1_555 1_555
C36_3 C31_3 1_555 1_555
H24_3 C36_3 1_555 1_555
C37_3 N6_3 1_555 1_555
H25_3 C37_3 1_555 1_555
C38_3 N6_3 1_555 1_555
H26_3 C38_3 1_555 1_555
C39_3 N7_3 1_555 1_555
H27_3 C39_3 1_555 1_555
C44_3 C43_3 1_555 1_555
H30_3 C44_3 1_555 1_555
H31_3 C45_3 1_555 1_555
C46_3 N9_3 1_555 1_555
H32_3 C46_3 1_555 1_555
N15_2 Cd4_2 1_555 1_555
N16_2 Cd6_2 1_555 1_555
O2_4 C11_4 1_555 1_555
N3_4 C19_4 1_555 1_555
N7_3 C37_3 1_555 1_555
N10_3 C46_3 1_555 1_555
C2_4 C11_4 1_555 1_555
C17_4 C18_4 1_555 1_555
C20_4 C21_4 1_555 1_555
C26_3 C27_3 1_555 1_555
C35_3 C36_3 1_555 1_555
C38_3 C39_3 1_555 1_555
C44_3 C45_3 1_555 1_555
C42_3 C41_3 1_555 1_555
H29_3 C42_3 1_555 1_555
H33_3 C47_3 1_555 1_555
H34_3 C48_3 1_555 1_555
C47_3 C48_3 1_555 1_555
N1_4 C13_4 1_555 1_555
N4_4 C25_4 1_555 1_555
N15_2 C28_4 1_555 1_555
C22_4 N1_4 1_555 1_555
C23_4 C22_4 1_555 1_555
H14_4 C23_4 1_555 1_555
C24_4 C23_4 1_555 1_555
H15_4 C24_4 1_555 1_555
C25_4 C24_4 1_555 1_555
C26_4 C25_4 1_555 1_555
H16_4 C26_4 1_555 1_555
C27_4 C22_4 1_555 1_555
H17_4 C27_4 1_555 1_555
C28_4 N4_4 1_555 1_555
H18_4 C28_4 1_555 1_555
C29_4 N4_4 1_555 1_555
H19_4 C29_4 1_555 1_555
C30_4 N15_2 1_555 1_555
H20_4 C30_4 1_555 1_555
C31_4 N1_4 1_555 1_555
C57_3 N16_2 1_555 1_555
H41_3 C57_3 1_555 1_555
C26_4 C27_4 1_555 1_555
C29_4 C30_4 1_555 1_555
N13_2 C61_2 1_555 1_555
N14_2 C64_2 1_555 1_555
C59_2 C58_2 1_555 1_555
H42_2 C59_2 1_555 1_555
C60_2 C59_2 1_555 1_555
H43_2 C60_2 1_555 1_555
C61_2 C60_2 1_555 1_555
C62_2 C61_2 1_555 1_555
H44_2 C62_2 1_555 1_555
C63_2 C58_2 1_555 1_555
C64_2 N13_2 1_555 1_555
H46_2 C64_2 1_555 1_555
C65_2 N13_2 1_555 1_555
H47_2 C65_2 1_555 1_555
C66_2 N14_2 1_555 1_555
H48_2 C66_2 1_555 1_555
C62_2 C63_2 1_555 1_555
C65_2 C66_2 1_555 1_555
N8_3 C40_3 1_555 1_555
N11_3 C52_3 1_555 1_555
N12_2 C55_3 1_555 1_555
C49_3 N8_3 1_555 1_555
C50_3 C49_3 1_555 1_555
H35_3 C50_3 1_555 1_555
C51_3 C50_3 1_555 1_555
H36_3 C51_3 1_555 1_555
C52_3 C51_3 1_555 1_555
C53_3 C52_3 1_555 1_555
H37_3 C53_3 1_555 1_555
C54_3 C49_3 1_555 1_555
H38_3 C54_3 1_555 1_555
C55_3 N11_3 1_555 1_555
H39_3 C55_3 1_555 1_555
C56_3 N11_3 1_555 1_555
H40_3 C56_3 1_555 1_555
C57_4 N12_2 1_555 1_555
H41_4 C57_4 1_555 1_555
Cd5 N12_2 1_555 1_555
C53_3 C54_3 1_555 1_555
C56_3 C57_4 1_555 1_555
Cd5 Cl2_4 1_555 1_555
N6_4 C34_4 1_555 1_555
N7_4 Cd5 1_555 1_555
N8_4 C40_4 1_555 1_555
N9_4 C43_4 1_555 1_555
N10_4 Cd5 1_555 1_555
N11_4 C52_4 1_555 1_555
N13_3 C61_3 1_555 1_555
N14_3 C64_3 1_555 1_555
C14_4 H7_4 1_555 1_555
H21_4 C32_4 1_555 1_555
C33_4 C32_4 1_555 1_555
H22_4 C33_4 1_555 1_555
C34_4 C33_4 1_555 1_555
C35_4 C34_4 1_555 1_555
H23_4 C35_4 1_555 1_555
C37_4 N6_4 1_555 1_555
H25_4 C37_4 1_555 1_555
C38_4 N6_4 1_555 1_555
H26_4 C38_4 1_555 1_555
C39_4 N7_4 1_555 1_555
H27_4 C39_4 1_555 1_555
C40_4 C41_4 1_555 1_555
C41_4 H28_3 1_555 1_555
C42_4 C41_4 1_555 1_555
H29_4 C42_4 1_555 1_555
C43_4 C42_4 1_555 1_555
C44_4 C43_4 1_555 1_555
H30_4 C44_4 1_555 1_555
C45_4 C40_4 1_555 1_555
H31_4 C45_4 1_555 1_555
C46_4 N9_4 1_555 1_555
H32_4 C46_4 1_555 1_555
C47_4 N9_4 1_555 1_555
H33_4 C47_4 1_555 1_555
C48_4 N10_4 1_555 1_555
H34_4 C48_4 1_555 1_555
C49_4 N8_4 1_555 1_555
C50_4 C49_4 1_555 1_555
H35_4 C50_4 1_555 1_555
C51_4 C50_4 1_555 1_555
H36_4 C51_4 1_555 1_555
C52_4 C51_4 1_555 1_555
C53_4 C52_4 1_555 1_555
H37_4 C53_4 1_555 1_555
C54_4 C49_4 1_555 1_555
H38_4 C54_4 1_555 1_555
C55_4 N11_4 1_555 1_555
H39_4 C55_4 1_555 1_555
C56_4 N11_4 1_555 1_555
H40_4 C56_4 1_555 1_555
C58_3 N8_4 1_555 1_555
C59_3 C58_3 1_555 1_555
H42_3 C59_3 1_555 1_555
C60_3 C59_3 1_555 1_555
H43_3 C60_3 1_555 1_555
C61_3 C60_3 1_555 1_555
C62_3 C61_3 1_555 1_555
H44_3 C62_3 1_555 1_555
C63_3 C58_3 1_555 1_555
H45_4 C63_3 1_555 1_555
C64_3 N13_3 1_555 1_555
H46_3 C64_3 1_555 1_555
C65_3 N13_3 1_555 1_555
H47_3 C65_3 1_555 1_555
C66_3 N14_3 1_555 1_555
H48_3 C66_3 1_555 1_555
O5_2 Cd5 1_555 1_555
O6_2 Cd5 1_555 1_555
N7_4 C37_4 1_555 1_555
N10_4 C46_4 1_555 1_555
C35_4 C36_4 1_555 1_555
C38_4 C39_4 1_555 1_555
C44_4 C45_4 1_555 1_555
C47_4 C48_4 1_555 1_555
C53_4 C54_4 1_555 1_555
C62_3 C63_3 1_555 1_555
C65_3 C66_3 1_555 1_555
O5_2 C12_4 1_555 1_555
O6_2 C12_4 1_555 1_555
H4_4 C6_4 1_555 1_555
C7_4 C6_4 1_555 1_555
C8_4 C7_4 1_555 1_555
H5_4 C8_4 1_555 1_555
C9_4 C8_4 1_555 1_555
H6_4 C9_4 1_555 1_555
C12_4 C7_4 1_555 1_555
C9_4 C10_4 1_555 1_555
N13_4 C61_4 1_555 1_555
N14_4 C64_4 1_555 1_555
C59_4 C58_4 1_555 1_555
H42_4 C59_4 1_555 1_555
C60_4 C59_4 1_555 1_555
H43_4 C60_4 1_555 1_555
C61_4 C60_4 1_555 1_555
C62_4 C61_4 1_555 1_555
H44_4 C62_4 1_555 1_555
C63_4 C58_4 1_555 1_555
C64_4 N13_4 1_555 1_555
H46_4 C64_4 1_555 1_555
C65_4 N13_4 1_555 1_555
H47_4 C65_4 1_555 1_555
C66_4 N14_4 1_555 1_555
H48_4 C66_4 1_555 1_555
C62_4 C63_4 1_555 1_555
C65_4 C66_4 1_555 1_555
N8_5 C40_5 1_555 1_555
N11_5 C52_5 1_555 1_555
N12_3 C55_5 1_555 1_555
C49_5 N8_5 1_555 1_555
C50_5 C49_5 1_555 1_555
H35_5 C50_5 1_555 1_555
C51_5 C50_5 1_555 1_555
H36_5 C51_5 1_555 1_555
C52_5 C51_5 1_555 1_555
C53_5 C52_5 1_555 1_555
H37_5 C53_5 1_555 1_555
C54_5 C49_5 1_555 1_555
H38_5 C54_5 1_555 1_555
C55_5 N11_5 1_555 1_555
H39_5 C55_5 1_555 1_555
C56_5 N11_5 1_555 1_555
H40_5 C56_5 1_555 1_555
C57_5 N12_3 1_555 1_555
H41_5 C57_5 1_555 1_555
Cd5_2 N12_3 1_555 1_555
C53_5 C54_5 1_555 1_555
C56_5 C57_5 1_555 1_555
Cd5_2 Cl2_5 1_555 1_555
N6_5 C34_5 1_555 1_555
N7_5 Cd5_2 1_555 1_555
N8_6 C40_6 1_555 1_555
N9_5 C43_5 1_555 1_555
N10_5 Cd5_2 1_555 1_555
N11_6 C52_6 1_555 1_555
N13_5 C61_5 1_555 1_555
N14_5 C64_5 1_555 1_555
C14_5 H7_5 1_555 1_555
H21_5 C32_5 1_555 1_555
C33_5 C32_5 1_555 1_555
H22_5 C33_5 1_555 1_555
C34_5 C33_5 1_555 1_555
C35_5 C34_5 1_555 1_555
H23_5 C35_5 1_555 1_555
C37_5 N6_5 1_555 1_555
H25_5 C37_5 1_555 1_555
C38_5 N6_5 1_555 1_555
H26_5 C38_5 1_555 1_555
C39_5 N7_5 1_555 1_555
H27_5 C39_5 1_555 1_555
C40_6 C41_5 1_555 1_555
C41_5 H28_5 1_555 1_555
C42_5 C41_5 1_555 1_555
H29_5 C42_5 1_555 1_555
C43_5 C42_5 1_555 1_555
C44_5 C43_5 1_555 1_555
H30_5 C44_5 1_555 1_555
C45_5 C40_6 1_555 1_555
H31_5 C45_5 1_555 1_555
C46_5 N9_5 1_555 1_555
H32_5 C46_5 1_555 1_555
C47_5 N9_5 1_555 1_555
H33_5 C47_5 1_555 1_555
C48_5 N10_5 1_555 1_555
H34_5 C48_5 1_555 1_555
C49_6 N8_6 1_555 1_555
C50_6 C49_6 1_555 1_555
H35_6 C50_6 1_555 1_555
C51_6 C50_6 1_555 1_555
H36_6 C51_6 1_555 1_555
C52_6 C51_6 1_555 1_555
C53_6 C52_6 1_555 1_555
H37_6 C53_6 1_555 1_555
C54_6 C49_6 1_555 1_555
H38_6 C54_6 1_555 1_555
C55_6 N11_6 1_555 1_555
H39_6 C55_6 1_555 1_555
C56_6 N11_6 1_555 1_555
H40_6 C56_6 1_555 1_555
C58_5 N8_6 1_555 1_555
C59_5 C58_5 1_555 1_555
H42_5 C59_5 1_555 1_555
C60_5 C59_5 1_555 1_555
H43_5 C60_5 1_555 1_555
C61_5 C60_5 1_555 1_555
C62_5 C61_5 1_555 1_555
H44_5 C62_5 1_555 1_555
C63_5 C58_5 1_555 1_555
H45_6 C63_5 1_555 1_555
C64_5 N13_5 1_555 1_555
H46_5 C64_5 1_555 1_555
C65_5 N13_5 1_555 1_555
H47_5 C65_5 1_555 1_555
C66_5 N14_5 1_555 1_555
H48_5 C66_5 1_555 1_555
O5_3 Cd5_2 1_555 1_555
O6_3 Cd5_2 1_555 1_555
N7_5 C37_5 1_555 1_555
N10_5 C46_5 1_555 1_555
C35_5 C36_5 1_555 1_555
C38_5 C39_5 1_555 1_555
C44_5 C45_5 1_555 1_555
C47_5 C48_5 1_555 1_555
C53_6 C54_6 1_555 1_555
C62_5 C63_5 1_555 1_555
C65_5 C66_5 1_555 1_555
O5_3 C12_5 1_555 1_555
O6_3 C12_5 1_555 1_555
H4_5 C6_5 1_555 1_555
C7_5 C6_5 1_555 1_555
C8_5 C7_5 1_555 1_555
H5_5 C8_5 1_555 1_555
C9_5 C8_5 1_555 1_555
H6_5 C9_5 1_555 1_555
C12_5 C7_5 1_555 1_555
C9_5 C10_5 1_555 1_555
C42_6 C41_6 1_555 1_555
H29_6 C42_6 1_555 1_555
H33_6 C47_6 1_555 1_555
H34_6 C48_6 1_555 1_555
C47_6 C48_6 1_555 1_555
Cd1_2 Cl1_3 1_555 1_555
Cd2_2 Cl2_6 1_555 1_555
N1_5 C13_5 1_555 1_555
N2_5 C16_5 1_555 1_555
N3_5 Cd1_2 1_555 1_555
N4_5 C25_5 1_555 1_555
N6_6 C34_6 1_555 1_555
N7_6 Cd2_2 1_555 1_555
N9_6 C43_6 1_555 1_555
N10_6 Cd2_2 1_555 1_555
C13_5 C14_6 1_555 1_555
C14_6 H7_6 1_555 1_555
C15_5 C14_6 1_555 1_555
H8_5 C15_5 1_555 1_555
C16_5 C15_5 1_555 1_555
C17_5 C16_5 1_555 1_555
H9_5 C17_5 1_555 1_555
C18_5 C13_5 1_555 1_555
H10_5 C18_5 1_555 1_555
C19_5 N2_5 1_555 1_555
H11_5 C19_5 1_555 1_555
C20_5 N2_5 1_555 1_555
H12_5 C20_5 1_555 1_555
C21_5 N3_5 1_555 1_555
H13_5 C21_5 1_555 1_555
C22_5 N1_5 1_555 1_555
C23_5 C22_5 1_555 1_555
H14_5 C23_5 1_555 1_555
C24_5 C23_5 1_555 1_555
H15_5 C24_5 1_555 1_555
C25_5 C24_5 1_555 1_555
C26_5 C25_5 1_555 1_555
H16_5 C26_5 1_555 1_555
C27_5 C22_5 1_555 1_555
H17_5 C27_5 1_555 1_555
C28_5 N4_5 1_555 1_555
H18_5 C28_5 1_555 1_555
C29_5 N4_5 1_555 1_555
H19_5 C29_5 1_555 1_555
C31_5 N1_5 1_555 1_555
C32_6 C31_5 1_555 1_555
H21_6 C32_6 1_555 1_555
C33_6 C32_6 1_555 1_555
H22_6 C33_6 1_555 1_555
C34_6 C33_6 1_555 1_555
C35_6 C34_6 1_555 1_555
H23_6 C35_6 1_555 1_555
C36_6 C31_5 1_555 1_555
H24_5 C36_6 1_555 1_555
C37_6 N6_6 1_555 1_555
H25_6 C37_6 1_555 1_555
C38_6 N6_6 1_555 1_555
H26_6 C38_6 1_555 1_555
C39_6 N7_6 1_555 1_555
H27_6 C39_6 1_555 1_555
C44_6 C43_6 1_555 1_555
H30_6 C44_6 1_555 1_555
H31_6 C45_6 1_555 1_555
C46_6 N9_6 1_555 1_555
H32_6 C46_6 1_555 1_555
O5_4 Cd2_2 1_555 1_555
N15_3 Cd1_2 1_555 1_555
N16_3 Cd2_2 1_555 1_555
N3_5 C19_5 1_555 1_555
N7_6 C37_6 1_555 1_555
N10_6 C46_6 1_555 1_555
C17_5 C18_5 1_555 1_555
C20_5 C21_5 1_555 1_555
C26_5 C27_5 1_555 1_555
C35_6 C36_6 1_555 1_555
C38_6 C39_6 1_555 1_555
C44_6 C45_6 1_555 1_555
N1_6 C13_6 1_555 1_555
N4_6 C25_6 1_555 1_555
N15_3 C28_6 1_555 1_555
C22_6 N1_6 1_555 1_555
C23_6 C22_6 1_555 1_555
H14_6 C23_6 1_555 1_555
C24_6 C23_6 1_555 1_555
H15_6 C24_6 1_555 1_555
C25_6 C24_6 1_555 1_555
C26_6 C25_6 1_555 1_555
H16_6 C26_6 1_555 1_555
C27_6 C22_6 1_555 1_555
H17_6 C27_6 1_555 1_555
C28_6 N4_6 1_555 1_555
H18_6 C28_6 1_555 1_555
C29_6 N4_6 1_555 1_555
H19_6 C29_6 1_555 1_555
C30_5 N15_3 1_555 1_555
H20_5 C30_5 1_555 1_555
C31_6 N1_6 1_555 1_555
C57_6 N16_3 1_555 1_555
H41_6 C57_6 1_555 1_555
C26_6 C27_6 1_555 1_555
C29_6 C30_5 1_555 1_555
C1_5 H1_5 1_555 1_555
C2_5 C1_5 1_555 1_555
C8_6 C7_6 1_555 1_555
H5_6 C8_6 1_555 1_555
C9_6 C8_6 1_555 1_555
H6_6 C9_6 1_555 1_555
C10_6 C1_5 1_555 1_555
C11_5 O1_5 1_555 1_555
O2_5 C11_5 1_555 1_555
C2_5 C11_5 1_555 1_555
C9_6 C10_6 1_555 1_555
O5_4 C12_6 1_555 1_555
H2_5 C3_5 1_555 1_555
C4_5 C3_5 1_555 1_555
H3_5 C4_5 1_555 1_555
C5_5 C4_5 1_555 1_555
C6_6 C5_5 1_555 1_555
H4_6 C6_6 1_555 1_555
C1_6 H1_6 1_555 1_555
C2_6 C1_6 1_555 1_555
C3_6 C2_6 1_555 1_555
H2_6 C3_6 1_555 1_555
C4_6 C3_6 1_555 1_555
H3_6 C4_6 1_555 1_555
C5_6 C4_6 1_555 1_555
C11_6 O1_6 1_555 1_555
Cd4_3 Cl3_3 1_555 1_555
O2_6 C11_6 1_555 1_555
C2_6 C11_6 1_555 1_555
C30_6 N5_3 1_555 1_555
H20_6 C30_6 1_555 1_555
Cd4_3 N5_3 1_555 1_555
N2_6 C16_6 1_555 1_555
N3_6 Cd4_3 1_555 1_555
C17_6 C16_6 1_555 1_555
H9_6 C17_6 1_555 1_555
C19_6 N2_6 1_555 1_555
H11_6 C19_6 1_555 1_555
N3_6 C19_6 1_555 1_555
C17_6 C18_6 1_555 1_555
C30_7 N5_4 1_555 1_555
H20_7 C30_7 1_555 1_555
Cd3_2 N5_4 1_555 1_555
Cd3_2 Cl1_4 1_555 1_555
N2_7 C16_7 1_555 1_555
N3_7 Cd3_2 1_555 1_555
C17_7 C16_7 1_555 1_555
H9_7 C17_7 1_555 1_555
C19_7 N2_7 1_555 1_555
H11_7 C19_7 1_555 1_555
N3_7 C19_7 1_555 1_555
C17_7 C18_7 1_555 1_555
C1_7 H1_7 1_555 1_555
C2_7 C1_7 1_555 1_555
C3_7 C2_7 1_555 1_555
H2_7 C3_7 1_555 1_555
C4_7 C3_7 1_555 1_555
H3_7 C4_7 1_555 1_555
C5_7 C4_7 1_555 1_555
C11_7 O1_7 1_555 1_555
O2_7 C11_7 1_555 1_555
C2_7 C11_7 1_555 1_555
O3_3 C12_7 1_555 1_555
O4_3 C12_7 1_555 1_555
H4_7 C6_7 1_555 1_555
C7_7 C6_7 1_555 1_555
C8_7 C7_7 1_555 1_555
H5_7 C8_7 1_555 1_555
C9_7 C8_7 1_555 1_555
H6_7 C9_7 1_555 1_555
C12_7 C7_7 1_555 1_555
Cd6_3 O3_3 1_555 1_555
O4_3 Cd6_3 1_555 1_555
C9_7 C10_7 1_555 1_555
N8_7 C40_7 1_555 1_555
N11_7 C52_7 1_555 1_555
N12_4 C55_7 1_555 1_555
C49_7 N8_7 1_555 1_555
C50_7 C49_7 1_555 1_555
H35_7 C50_7 1_555 1_555
C51_7 C50_7 1_555 1_555
H36_7 C51_7 1_555 1_555
C52_7 C51_7 1_555 1_555
C53_7 C52_7 1_555 1_555
H37_7 C53_7 1_555 1_555
C54_7 C49_7 1_555 1_555
H38_7 C54_7 1_555 1_555
C55_7 N11_7 1_555 1_555
H39_7 C55_7 1_555 1_555
C56_7 N11_7 1_555 1_555
H40_7 C56_7 1_555 1_555
C57_7 N12_4 1_555 1_555
H41_7 C57_7 1_555 1_555
Cd6_3 N12_4 1_555 1_555
C53_7 C54_7 1_555 1_555
C56_7 C57_7 1_555 1_555
Cd6_3 Cl2_7 1_555 1_555
N6_7 C34_7 1_555 1_555
N7_7 Cd6_3 1_555 1_555
N8_8 C40_8 1_555 1_555
N9_7 C43_7 1_555 1_555
N10_7 Cd6_3 1_555 1_555
N11_8 C52_8 1_555 1_555
N13_6 C61_6 1_555 1_555
N14_6 C64_6 1_555 1_555
C14_7 H7_7 1_555 1_555
H21_7 C32_7 1_555 1_555
C33_7 C32_7 1_555 1_555
H22_7 C33_7 1_555 1_555
C34_7 C33_7 1_555 1_555
C35_7 C34_7 1_555 1_555
H23_7 C35_7 1_555 1_555
C37_7 N6_7 1_555 1_555
H25_7 C37_7 1_555 1_555
C38_7 N6_7 1_555 1_555
H26_7 C38_7 1_555 1_555
C39_7 N7_7 1_555 1_555
H27_7 C39_7 1_555 1_555
C40_8 C41_7 1_555 1_555
C41_7 H28_6 1_555 1_555
C42_7 C41_7 1_555 1_555
H29_7 C42_7 1_555 1_555
C43_7 C42_7 1_555 1_555
C44_7 C43_7 1_555 1_555
H30_7 C44_7 1_555 1_555
C45_7 C40_8 1_555 1_555
H31_7 C45_7 1_555 1_555
C46_7 N9_7 1_555 1_555
H32_7 C46_7 1_555 1_555
C47_7 N9_7 1_555 1_555
H33_7 C47_7 1_555 1_555
C48_7 N10_7 1_555 1_555
H34_7 C48_7 1_555 1_555
C49_8 N8_8 1_555 1_555
C50_8 C49_8 1_555 1_555
H35_8 C50_8 1_555 1_555
C51_8 C50_8 1_555 1_555
H36_8 C51_8 1_555 1_555
C52_8 C51_8 1_555 1_555
C53_8 C52_8 1_555 1_555
H37_8 C53_8 1_555 1_555
C54_8 C49_8 1_555 1_555
H38_8 C54_8 1_555 1_555
C55_8 N11_8 1_555 1_555
H39_8 C55_8 1_555 1_555
C56_8 N11_8 1_555 1_555
H40_8 C56_8 1_555 1_555
C58_6 N8_8 1_555 1_555
C59_6 C58_6 1_555 1_555
H42_6 C59_6 1_555 1_555
C60_6 C59_6 1_555 1_555
H43_6 C60_6 1_555 1_555
C61_6 C60_6 1_555 1_555
C62_6 C61_6 1_555 1_555
H44_6 C62_6 1_555 1_555
C63_6 C58_6 1_555 1_555
H45_8 C63_6 1_555 1_555
C64_6 N13_6 1_555 1_555
H46_6 C64_6 1_555 1_555
C65_6 N13_6 1_555 1_555
H47_6 C65_6 1_555 1_555
C66_6 N14_6 1_555 1_555
H48_6 C66_6 1_555 1_555
N7_7 C37_7 1_555 1_555
N10_7 C46_7 1_555 1_555
C35_7 C36_7 1_555 1_555
C38_7 C39_7 1_555 1_555
C44_7 C45_7 1_555 1_555
C47_7 C48_7 1_555 1_555
C53_8 C54_8 1_555 1_555
C62_6 C63_6 1_555 1_555
C65_6 C66_6 1_555 1_555
H8_6 C15_6 1_555 1_555
H12_6 C20_6 1_555 1_555
H13_6 C21_6 1_555 1_555
C20_6 C21_6 1_555 1_555
O3_4 C12_8 1_555 1_555
H2_8 C3_8 1_555 1_555
C4_8 C3_8 1_555 1_555
H3_8 C4_8 1_555 1_555
C5_8 C4_8 1_555 1_555
C6_8 C5_8 1_555 1_555
H4_8 C6_8 1_555 1_555
Cd6_4 O3_4 1_555 1_555
C1_8 H1_8 1_555 1_555
C2_8 C1_8 1_555 1_555
C8_8 C7_8 1_555 1_555
H5_8 C8_8 1_555 1_555
C9_8 C8_8 1_555 1_555
H6_8 C9_8 1_555 1_555
C10_8 C1_8 1_555 1_555
C11_8 O1_8 1_555 1_555
Cd4_4 Cl3_4 1_555 1_555
O2_8 C11_8 1_555 1_555
C2_8 C11_8 1_555 1_555
C9_8 C10_8 1_555 1_555
Cd6_4 Cl2_8 1_555 1_555
N1_7 C13_7 1_555 1_555
N2_8 C16_8 1_555 1_555
N3_8 Cd4_4 1_555 1_555
N4_7 C25_7 1_555 1_555
N6_8 C34_8 1_555 1_555
N7_8 Cd6_4 1_555 1_555
N9_8 C43_8 1_555 1_555
N10_8 Cd6_4 1_555 1_555
C13_7 C14_8 1_555 1_555
C14_8 H7_8 1_555 1_555
C15_7 C14_8 1_555 1_555
H8_7 C15_7 1_555 1_555
C16_8 C15_7 1_555 1_555
C17_8 C16_8 1_555 1_555
H9_8 C17_8 1_555 1_555
C18_8 C13_7 1_555 1_555
H10_7 C18_8 1_555 1_555
C19_8 N2_8 1_555 1_555
H11_8 C19_8 1_555 1_555
C20_7 N2_8 1_555 1_555
H12_7 C20_7 1_555 1_555
C21_7 N3_8 1_555 1_555
H13_7 C21_7 1_555 1_555
C22_7 N1_7 1_555 1_555
C23_7 C22_7 1_555 1_555
H14_7 C23_7 1_555 1_555
C24_7 C23_7 1_555 1_555
H15_7 C24_7 1_555 1_555
C25_7 C24_7 1_555 1_555
C26_7 C25_7 1_555 1_555
H16_7 C26_7 1_555 1_555
C27_7 C22_7 1_555 1_555
H17_7 C27_7 1_555 1_555
C28_7 N4_7 1_555 1_555
H18_7 C28_7 1_555 1_555
C29_7 N4_7 1_555 1_555
H19_7 C29_7 1_555 1_555
C31_7 N1_7 1_555 1_555
C32_8 C31_7 1_555 1_555
H21_8 C32_8 1_555 1_555
C33_8 C32_8 1_555 1_555
H22_8 C33_8 1_555 1_555
C34_8 C33_8 1_555 1_555
C35_8 C34_8 1_555 1_555
H23_8 C35_8 1_555 1_555
C36_8 C31_7 1_555 1_555
H24_7 C36_8 1_555 1_555
C37_8 N6_8 1_555 1_555
H25_8 C37_8 1_555 1_555
C38_8 N6_8 1_555 1_555
H26_8 C38_8 1_555 1_555
C39_8 N7_8 1_555 1_555
H27_8 C39_8 1_555 1_555
C44_8 C43_8 1_555 1_555
H30_8 C44_8 1_555 1_555
H31_8 C45_8 1_555 1_555
C46_8 N9_8 1_555 1_555
H32_8 C46_8 1_555 1_555
N15_4 Cd4_4 1_555 1_555
N16_4 Cd6_4 1_555 1_555
N3_8 C19_8 1_555 1_555
N7_8 C37_8 1_555 1_555
N10_8 C46_8 1_555 1_555
C17_8 C18_8 1_555 1_555
C20_7 C21_7 1_555 1_555
C26_7 C27_7 1_555 1_555
C35_8 C36_8 1_555 1_555
C38_8 C39_8 1_555 1_555
C44_8 C45_8 1_555 1_555
C42_8 C41_8 1_555 1_555
H29_8 C42_8 1_555 1_555
H33_8 C47_8 1_555 1_555
H34_8 C48_8 1_555 1_555
C47_8 C48_8 1_555 1_555
N1_8 C13_8 1_555 1_555
N4_8 C25_8 1_555 1_555
N15_4 C28_8 1_555 1_555
C22_8 N1_8 1_555 1_555
C23_8 C22_8 1_555 1_555
H14_8 C23_8 1_555 1_555
C24_8 C23_8 1_555 1_555
H15_8 C24_8 1_555 1_555
C25_8 C24_8 1_555 1_555
C26_8 C25_8 1_555 1_555
H16_8 C26_8 1_555 1_555
C27_8 C22_8 1_555 1_555
H17_8 C27_8 1_555 1_555
C28_8 N4_8 1_555 1_555
H18_8 C28_8 1_555 1_555
C29_8 N4_8 1_555 1_555
H19_8 C29_8 1_555 1_555
C30_8 N15_4 1_555 1_555
H20_8 C30_8 1_555 1_555
C31_8 N1_8 1_555 1_555
C57_8 N16_4 1_555 1_555
H41_8 C57_8 1_555 1_555
C26_8 C27_8 1_555 1_555
C29_8 C30_8 1_555 1_555
N13_7 C61_7 1_555 1_555
N14_7 C64_7 1_555 1_555
C59_7 C58_7 1_555 1_555
H42_7 C59_7 1_555 1_555
C60_7 C59_7 1_555 1_555
H43_7 C60_7 1_555 1_555
C61_7 C60_7 1_555 1_555
C62_7 C61_7 1_555 1_555
H44_7 C62_7 1_555 1_555
C63_7 C58_7 1_555 1_555
C64_7 N13_7 1_555 1_555
H46_7 C64_7 1_555 1_555
C65_7 N13_7 1_555 1_555
H47_7 C65_7 1_555 1_555
C66_7 N14_7 1_555 1_555
H48_7 C66_7 1_555 1_555
C62_7 C63_7 1_555 1_555
C65_7 C66_7 1_555 1_555
N13_8 C61_8 1_555 1_555
N14_8 C64_8 1_555 1_555
C59_8 C58_8 1_555 1_555
H42_8 C59_8 1_555 1_555
C60_8 C59_8 1_555 1_555
H43_8 C60_8 1_555 1_555
C61_8 C60_8 1_555 1_555
C62_8 C61_8 1_555 1_555
H44_8 C62_8 1_555 1_555
C63_8 C58_8 1_555 1_555
C64_8 N13_8 1_555 1_555
H46_8 C64_8 1_555 1_555
C65_8 N13_8 1_555 1_555
H47_8 C65_8 1_555 1_555
C66_8 N14_8 1_555 1_555
H48_8 C66_8 1_555 1_555
C62_8 C63_8 1_555 1_555
C65_8 C66_8 1_555 1_555
H8_8 C15_8 1_555 1_555
H12_8 C20_8 1_555 1_555
H13_8 C21_8 1_555 1_555
C20_8 C21_8 1_555 1_555

#END
