
###############################################################################
#
# This file contains modified crystal structure data generated from the
# MOF subset of the Cambridge Structural Database (CSD) v543 
# hosted by the Cambridge Crystallographic Data Centre (CCDC).
#
# This work is licensed under the Creative Commons
# Attribution-NonCommercial-ShareAlike 4.0 International License.
# To view a copy of this license, visit
# http://creativecommons.org/licenses/by-nc-sa/4.0/
# or send a letter to
# Creative Commons, PO Box 1866, Mountain View, CA 94042, USA.
#
# CIF created using the CSD Python API on 29 September 2022
# The structure has been converted into the P1 space group
# The structure has a 3D framework
# The original CSD entry GOVHIL is in the orthorhombic crystal system
# The framework has been calculated to contain at least 10.0% void space
# The void calculation uses a probe of radius 1.32A, grid spacing 0.4
# H atom positions have been added when not included in the experimental data
# Generated hydrogen atom positions removed from atoms on special positions
#
###############################################################################

data_GOVHIL
_chemical_formula_moiety         '(C268 H220 Cu26 O124)n'
_symmetry_cell_setting           triclinic
_symmetry_space_group_name_H-M   'P 1'
_symmetry_Int_Tables_number      1
_space_group_name_Hall           'P 1'
loop_
_symmetry_equiv_pos_site_id
_symmetry_equiv_pos_as_xyz
1 x,y,z
_cell_length_a                   24.9038(10)
_cell_length_b                   33.4493(12)
_cell_length_c                   18.3388(7)
_cell_angle_alpha                90
_cell_angle_beta                 90
_cell_angle_gamma                90
_cell_volume                     15276.5
loop_
_atom_site_label
_atom_site_type_symbol
_atom_site_fract_x
_atom_site_fract_y
_atom_site_fract_z
Cu1 Cu 0.20319(3) 0.73918(2) 0.62048(3)
Cu2 Cu 0.28150(3) 0.77407(2) 0.54545(3)
Cu3 Cu 0.5000 0.63985(2) 0.34453(5)
Cu4 Cu 0.5000 0.43890(2) 0.85355(5)
O1 O 0.24502(15) 0.69086(8) 0.6004(2)
O2 O 0.31089(15) 0.71983(8) 0.5370(2)
O3 O 0.44482(19) 0.63800(9) 0.4189(3)
O4 O 0.44329(15) 0.57163(9) 0.42660(19)
O5 O 0.44379(14) 0.43637(8) 0.77663(19)
O6 O 0.4449(2) 0.36955(10) 0.7721(3)
O7 O 0.32481(15) 0.29401(9) 0.6290(2)
O8 O 0.25815(17) 0.32295(9) 0.5668(2)
O9 O 0.16820(16) 0.73277(10) 0.52512(17)
O10 O 0.23480(17) 0.76257(10) 0.46339(18)
O11 O 0.24966(17) 0.74965(11) 0.20376(18)
O12 O 0.18305(18) 0.72098(11) 0.14073(19)
O13 O 0.1421(2) 0.7092(2) 0.6815(3)
O14 O 0.3435(2) 0.80873(18) 0.4924(3)
O15 O 0.5000 0.70383(15) 0.3334(4)
O16 O 0.5000 0.50239(15) 0.8646(4)
C1 C 0.2752(2) 0.54121(15) 0.5795(3)
C2 C 0.3032(2) 0.50686(12) 0.5986(3)
H1 H 0.3413 0.5075 0.5975
C3 C 0.2779(2) 0.47168(13) 0.6192(3)
C4 C 0.2211(2) 0.47157(15) 0.6188(4)
H2 H 0.2022 0.4478 0.6311
C5 C 0.1935(2) 0.50505(17) 0.6012(4)
H3 H 0.1554 0.5045 0.6028
C6 C 0.2198(2) 0.54098(16) 0.5804(4)
H4 H 0.1998 0.5641 0.5674
C7 C 0.3048(2) 0.57755(13) 0.5566(3)
C8 C 0.2852(2) 0.61558(14) 0.5729(3)
H5 H 0.2537 0.6182 0.6016
C9 C 0.3110(2) 0.64960(11) 0.5479(3)
C10 C 0.3578(2) 0.64629(13) 0.5078(2)
H6 H 0.3759 0.6697 0.4916
C11 C 0.3783(2) 0.60900(13) 0.4914(3)
C12 C 0.3525(2) 0.57525(13) 0.5164(3)
H7 H 0.3674 0.5497 0.5060
C13 C 0.2864(2) 0.69101(13) 0.5631(2)
C14 C 0.4265(2) 0.60565(12) 0.4427(3)
C15 C 0.3078(2) 0.43558(13) 0.6378(3)
C16 C 0.3542(2) 0.43692(13) 0.6839(3)
H8 H 0.3666 0.4619 0.7018
C17 C 0.3807(2) 0.40299(12) 0.7022(3)
C18 C 0.3647(2) 0.36623(12) 0.6744(3)
H9 H 0.3840 0.3427 0.6868
C19 C 0.3200(2) 0.36394(13) 0.6281(3)
C20 C 0.2927(2) 0.39801(13) 0.6096(3)
H10 H 0.2630 0.3963 0.5772
C21 C 0.4271(2) 0.40303(12) 0.7557(3)
C22 C 0.3005(2) 0.32330(14) 0.6055(2)
C23 C 0.1666(2) 0.73063(12) 0.3973(3)
C24 C 0.1947(2) 0.73849(13) 0.3334(3)
H11 H 0.2272 0.7534 0.3352
C25 C 0.1753(2) 0.72455(13) 0.2660(3)
C26 C 0.1273(2) 0.70208(14) 0.2651(3)
H12 H 0.1135 0.6926 0.2200
C27 C 0.1000(2) 0.69369(13) 0.3292(3)
C28 C 0.1194(2) 0.70847(13) 0.3947(2)
H13 H 0.1002 0.7034 0.4385
C29 C 0.1913(2) 0.74284(13) 0.4684(2)
C30 C 0.2049(2) 0.73244(13) 0.1982(3)
C31 C 0.0492(2) 0.67150(14) 0.3222(3)
C32 C 0.0000 0.68966(19) 0.3394(3)
H14 H 0.0000 0.7149 0.3632
C33 C 0.0486(3) 0.63410(19) 0.2872(3)
H15 H 0.0813 0.6212 0.2745
C34 C 0.0000 0.6164(3) 0.2715(6)
H16 H 0.0000 0.5908 0.2489
Cu8 Cu 0.29681(3) 0.76082(2) 0.12048(3)
Cu10 Cu 0.29681(3) 0.23918(2) 0.62048(3)
Cu12 Cu 0.21850(3) 0.72593(2) 0.04545(3)
Cu14 Cu 0.21850(3) 0.27407(2) 0.54545(3)
Cu17 Cu 0.5000 0.36015(2) 0.84453(5)
Cu20 Cu 0.5000 0.56110(2) 0.35355(5)
O31 O 0.55518(19) 0.63800(9) 0.4189(3)
O32 O 0.55671(15) 0.42837(9) 0.92660(19)
O33 O 0.44329(15) 0.42837(9) 0.92660(19)
O34 O 0.55621(14) 0.43637(8) 0.77663(19)
O35 O 0.5551(2) 0.63045(10) 0.2721(3)
O36 O 0.4449(2) 0.63045(10) 0.2721(3)
O38 O 0.17519(15) 0.79401(9) 0.6290(2)
O40 O 0.24185(17) 0.82295(9) 0.5668(2)
O41 O 0.25034(17) 0.75035(11) 0.70376(18)
O43 O 0.31695(18) 0.77902(11) 0.64073(19)
C32_2 C 1.0000 0.68966(19) 0.3394(3)
H14_2 H 1.0000 0.7149 0.3632
C34_2 C 1.0000 0.6164(3) 0.2715(6)
H16_2 H 1.0000 0.5908 0.2489
O17 O 0.83180(16) 0.73277(10) 0.52512(17)
O18 O 0.76520(17) 0.76257(10) 0.46339(18)
O19 O 0.75034(17) 0.74965(11) 0.20376(18)
O20 O 0.81695(18) 0.72098(11) 0.14073(19)
C35 C 0.8334(2) 0.73063(12) 0.3973(3)
C36 C 0.8053(2) 0.73849(13) 0.3334(3)
H17 H 0.7728 0.7534 0.3352
C37 C 0.8247(2) 0.72455(13) 0.2660(3)
C38 C 0.8727(2) 0.70208(14) 0.2651(3)
H18 H 0.8865 0.6926 0.2200
C39 C 0.9000(2) 0.69369(13) 0.3292(3)
C40 C 0.8806(2) 0.70847(13) 0.3947(2)
H19 H 0.8998 0.7034 0.4385
C41 C 0.8087(2) 0.74284(13) 0.4684(2)
C42 C 0.7951(2) 0.73244(13) 0.1982(3)
C43 C 0.9508(2) 0.67150(14) 0.3222(3)
C44 C 0.9514(3) 0.63410(19) 0.2872(3)
H20 H 0.9187 0.6212 0.2745
Cu5 Cu 0.79681(3) 0.73918(2) 0.62048(3)
Cu6 Cu 0.71850(3) 0.77407(2) 0.54545(3)
O21 O 0.75498(15) 0.69086(8) 0.6004(2)
O22 O 0.68911(15) 0.71983(8) 0.5370(2)
O24 O 0.55671(15) 0.57163(9) 0.42660(19)
O26 O 0.5551(2) 0.36955(10) 0.7721(3)
O27 O 0.67519(15) 0.29401(9) 0.6290(2)
O28 O 0.74185(17) 0.32295(9) 0.5668(2)
O29 O 0.8579(2) 0.7092(2) 0.6815(3)
O30 O 0.6565(2) 0.80873(18) 0.4924(3)
C45 C 0.7248(2) 0.54121(15) 0.5795(3)
C46 C 0.6968(2) 0.50686(12) 0.5986(3)
H21 H 0.6587 0.5075 0.5975
C47 C 0.7221(2) 0.47168(13) 0.6192(3)
C48 C 0.7789(2) 0.47157(15) 0.6188(4)
H22 H 0.7978 0.4478 0.6311
C49 C 0.8065(2) 0.50505(17) 0.6012(4)
H23 H 0.8446 0.5045 0.6028
C50 C 0.7802(2) 0.54098(16) 0.5804(4)
H24 H 0.8002 0.5641 0.5674
C51 C 0.6952(2) 0.57755(13) 0.5566(3)
C52 C 0.7148(2) 0.61558(14) 0.5729(3)
H25 H 0.7463 0.6182 0.6016
C53 C 0.6890(2) 0.64960(11) 0.5479(3)
C54 C 0.6422(2) 0.64629(13) 0.5078(2)
H26 H 0.6241 0.6697 0.4916
C55 C 0.6217(2) 0.60900(13) 0.4914(3)
C56 C 0.6475(2) 0.57525(13) 0.5164(3)
H27 H 0.6326 0.5497 0.5060
C57 C 0.7136(2) 0.69101(13) 0.5631(2)
C58 C 0.5735(2) 0.60565(12) 0.4427(3)
C59 C 0.6922(2) 0.43558(13) 0.6378(3)
C60 C 0.6458(2) 0.43692(13) 0.6839(3)
H28 H 0.6334 0.4619 0.7018
C61 C 0.6193(2) 0.40299(12) 0.7022(3)
C62 C 0.6353(2) 0.36623(12) 0.6744(3)
H29 H 0.6160 0.3427 0.6868
C63 C 0.6800(2) 0.36394(13) 0.6281(3)
C64 C 0.7073(2) 0.39801(13) 0.6096(3)
H30 H 0.7370 0.3963 0.5772
C65 C 0.5729(2) 0.40303(12) 0.7557(3)
C66 C 0.6995(2) 0.32330(14) 0.6055(2)
Cu7 Cu 0.70319(3) 0.23918(2) 0.62048(3)
Cu9 Cu 0.70319(3) 0.76082(2) 0.12048(3)
Cu11 Cu 0.78150(3) 0.27407(2) 0.54545(3)
Cu13 Cu 0.78150(3) 0.72593(2) 0.04545(3)
O37 O 0.82481(15) 0.79401(9) 0.6290(2)
O39 O 0.75815(17) 0.82295(9) 0.5668(2)
O42 O 0.74966(17) 0.75035(11) 0.70376(18)
O44 O 0.68305(18) 0.77902(11) 0.64073(19)
O17_2 O 0.16820(16) 0.26723(10) 0.02512(17)
Cu5_2 Cu 0.20319(3) 0.26082(2) 0.12048(3)
Cu6_2 Cu 0.28150(3) 0.22593(2) 0.04545(3)
O21_2 O 0.24502(15) 0.30914(8) 0.1004(2)
O22_2 O 0.31089(15) 0.28017(8) 0.0370(2)
O25 O 0.44379(14) 0.56363(8) 0.27663(19)
O27_2 O 0.32481(15) 0.70599(9) 0.1290(2)
O28_2 O 0.25815(17) 0.67705(9) 0.0668(2)
O29_2 O 0.1421(2) 0.2908(2) 0.1815(3)
C45_2 C 0.2752(2) 0.45879(15) 0.0795(3)
C46_2 C 0.3032(2) 0.49314(12) 0.0986(3)
H21_2 H 0.3413 0.4925 0.0975
C47_2 C 0.2779(2) 0.52832(13) 0.1192(3)
C48_2 C 0.2211(2) 0.52843(15) 0.1188(4)
H22_2 H 0.2022 0.5522 0.1311
C49_2 C 0.1935(2) 0.49495(17) 0.1012(4)
H23_2 H 0.1554 0.4955 0.1028
C50_2 C 0.2198(2) 0.45902(16) 0.0804(4)
H24_2 H 0.1998 0.4359 0.0674
C51_2 C 0.3048(2) 0.42245(13) 0.0566(3)
C52_2 C 0.2852(2) 0.38442(14) 0.0729(3)
H25_2 H 0.2537 0.3818 0.1016
C53_2 C 0.3110(2) 0.35040(11) 0.0479(3)
C54_2 C 0.3578(2) 0.35371(13) 0.0078(2)
C56_2 C 0.3525(2) 0.42475(13) 0.0164(3)
H27_2 H 0.3674 0.4503 0.0060
C57_2 C 0.2864(2) 0.30899(13) 0.0631(2)
C59_2 C 0.3078(2) 0.56442(13) 0.1378(3)
C60_2 C 0.3542(2) 0.56308(13) 0.1839(3)
H28_2 H 0.3666 0.5381 0.2018
C61_2 C 0.3807(2) 0.59701(12) 0.2022(3)
C62_2 C 0.3647(2) 0.63377(12) 0.1744(3)
H29_2 H 0.3840 0.6573 0.1868
C63_2 C 0.3200(2) 0.63606(13) 0.1281(3)
C64_2 C 0.2927(2) 0.60199(13) 0.1096(3)
H30_2 H 0.2630 0.6037 0.0772
C65_2 C 0.4271(2) 0.59697(12) 0.2557(3)
C66_2 C 0.3005(2) 0.67670(14) 0.1055(2)
O37_2 O 0.17519(15) 0.20599(9) 0.1290(2)
O39_2 O 0.24185(17) 0.17705(9) 0.0668(2)
O42_2 O 0.25034(17) 0.24965(11) 0.20376(18)
O44_2 O 0.31695(18) 0.22098(11) 0.14073(19)
H40 H 0.370857 0.183148 0.0289017
C32_3 C -0.0000 0.31034(19) 0.8394(3)
H14_3 H -0.0000 0.2851 0.8632
C34_3 C -0.0000 0.3836(3) 0.7715(6)
H16_3 H -0.0000 0.4092 0.7489
O18_2 O 0.23480(17) 0.23743(10) 0.96339(18)
O19_2 O 0.24966(17) 0.25035(11) 0.70376(18)
O20_2 O 0.18305(18) 0.27902(11) 0.64073(19)
C35_2 C 0.1666(2) 0.26937(12) 0.8973(3)
C36_2 C 0.1947(2) 0.26151(13) 0.8334(3)
H17_2 H 0.2272 0.2466 0.8352
C37_2 C 0.1753(2) 0.27545(13) 0.7660(3)
C38_2 C 0.1273(2) 0.29792(14) 0.7651(3)
H18_2 H 0.1135 0.3074 0.7200
C39_2 C 0.1000(2) 0.30631(13) 0.8292(3)
C40_2 C 0.1194(2) 0.29153(13) 0.8947(2)
H19_2 H 0.1002 0.2966 0.9385
C41_2 C 0.1913(2) 0.25716(13) 0.9684(2)
C42_2 C 0.2049(2) 0.26756(13) 0.6982(3)
C43_2 C 0.0492(2) 0.32850(14) 0.8222(3)
C44_2 C 0.0486(3) 0.36590(19) 0.7872(3)
H20_2 H 0.0813 0.3788 0.7745
O23 O 0.44482(19) 0.36200(9) 0.9189(3)
O30_2 O 0.3435(2) 0.19127(18) 0.9924(3)
H26_2 H 0.3759 0.3303 0.9916
C55_2 C 0.3783(2) 0.39100(13) 0.9914(3)
C58_2 C 0.4265(2) 0.39435(12) 0.9427(3)
Cu1_2 Cu 0.79681(3) 0.26082(2) 0.12048(3)
Cu2_2 Cu 0.71850(3) 0.22593(2) 0.04545(3)
O1_2 O 0.75498(15) 0.30914(8) 0.1004(2)
O2_2 O 0.68911(15) 0.28017(8) 0.0370(2)
O5_2 O 0.55621(14) 0.56363(8) 0.27663(19)
O7_2 O 0.67519(15) 0.70599(9) 0.1290(2)
O8_2 O 0.74185(17) 0.67705(9) 0.0668(2)
O9_2 O 0.83180(16) 0.26723(10) 0.02512(17)
O13_2 O 0.8579(2) 0.2908(2) 0.1815(3)
O16_2 O 0.5000 0.49761(15) 0.3646(4)
C1_2 C 0.7248(2) 0.45879(15) 0.0795(3)
C2_2 C 0.6968(2) 0.49314(12) 0.0986(3)
H1_2 H 0.6587 0.4925 0.0975
C3_2 C 0.7221(2) 0.52832(13) 0.1192(3)
C4_2 C 0.7789(2) 0.52843(15) 0.1188(4)
H2_2 H 0.7978 0.5522 0.1311
C5_2 C 0.8065(2) 0.49495(17) 0.1012(4)
H3_2 H 0.8446 0.4955 0.1028
C6_2 C 0.7802(2) 0.45902(16) 0.0804(4)
H4_2 H 0.8002 0.4359 0.0674
C7_2 C 0.6952(2) 0.42245(13) 0.0566(3)
C8_2 C 0.7148(2) 0.38442(14) 0.0729(3)
H5_2 H 0.7463 0.3818 0.1016
C9_2 C 0.6890(2) 0.35040(11) 0.0479(3)
C10_2 C 0.6422(2) 0.35371(13) 0.0078(2)
C12_2 C 0.6475(2) 0.42475(13) 0.0164(3)
H7_2 H 0.6326 0.4503 0.0060
C13_2 C 0.7136(2) 0.30899(13) 0.0631(2)
C15_2 C 0.6922(2) 0.56442(13) 0.1378(3)
C16_2 C 0.6458(2) 0.56308(13) 0.1839(3)
H8_2 H 0.6334 0.5381 0.2018
C17_2 C 0.6193(2) 0.59701(12) 0.2022(3)
C18_2 C 0.6353(2) 0.63377(12) 0.1744(3)
H9_2 H 0.6160 0.6573 0.1868
C19_2 C 0.6800(2) 0.63606(13) 0.1281(3)
C20_2 C 0.7073(2) 0.60199(13) 0.1096(3)
H10_2 H 0.7370 0.6037 0.0772
C21_2 C 0.5729(2) 0.59697(12) 0.2557(3)
C22_2 C 0.6995(2) 0.67670(14) 0.1055(2)
O38_2 O 0.82481(15) 0.20599(9) 0.1290(2)
O40_2 O 0.75815(17) 0.17705(9) 0.0668(2)
O41_2 O 0.74966(17) 0.24965(11) 0.20376(18)
O43_2 O 0.68305(18) 0.22098(11) 0.14073(19)
O3_2 O 0.55518(19) 0.36200(9) 0.9189(3)
O10_2 O 0.76520(17) 0.23743(10) 0.96339(18)
O11_2 O 0.75034(17) 0.25035(11) 0.70376(18)
O12_2 O 0.81695(18) 0.27902(11) 0.64073(19)
O14_2 O 0.6565(2) 0.19127(18) 0.9924(3)
O15_2 O 0.5000 0.29617(15) 0.8334(4)
H6_2 H 0.6241 0.3303 0.9916
C11_2 C 0.6217(2) 0.39100(13) 0.9914(3)
C14_2 C 0.5735(2) 0.39435(12) 0.9427(3)
C23_2 C 0.8334(2) 0.26937(12) 0.8973(3)
C24_2 C 0.8053(2) 0.26151(13) 0.8334(3)
H11_2 H 0.7728 0.2466 0.8352
C25_2 C 0.8247(2) 0.27545(13) 0.7660(3)
C26_2 C 0.8727(2) 0.29792(14) 0.7651(3)
H12_2 H 0.8865 0.3074 0.7200
C27_2 C 0.9000(2) 0.30631(13) 0.8292(3)
C28_2 C 0.8806(2) 0.29153(13) 0.8947(2)
H13_2 H 0.8998 0.2966 0.9385
C29_2 C 0.8087(2) 0.25716(13) 0.9684(2)
C30_2 C 0.7951(2) 0.26756(13) 0.6982(3)
C31_2 C 0.9508(2) 0.32850(14) 0.8222(3)
C32_4 C 1.0000 0.31034(19) 0.8394(3)
H14_4 H 1.0000 0.2851 0.8632
C33_2 C 0.9514(3) 0.36590(19) 0.7872(3)
H15_2 H 0.9187 0.3788 0.7745
C34_4 C 1.0000 0.3836(3) 0.7715(6)
H16_4 H 1.0000 0.4092 0.7489
H40_2 H 0.629143 0.183148 0.0289017
Cu3_2 Cu -0.0000 0.13985(2) 0.34453(5)
O15_3 O -0.0000 0.20383(15) 0.3334(4)
O16_3 O 0.0000 0.00239(15) 0.8646(4)
Cu20_2 Cu -0.0000 0.06110(2) 0.35355(5)
O31_2 O 0.05518(19) 0.13800(9) 0.4189(3)
O35_2 O 0.0551(2) 0.13045(10) 0.2721(3)
H35 H 0.00943147 0.216253 0.380881
H36 H 0.0267995 0.211817 0.296047
H38 H 0.0266169 0.0103633 0.902203
Cu4_2 Cu 0.0000 0.93890(2) 0.85355(5)
Cu17_2 Cu -0.0000 0.86015(2) 0.84453(5)
O32_2 O 0.05671(15) 0.92837(9) 0.92660(19)
O34_2 O 0.05621(14) 0.93637(8) 0.77663(19)
Cu3_3 Cu 1.0000 0.13985(2) 0.34453(5)
O1_3 O 0.74502(15) 0.19086(8) 0.6004(2)
O2_3 O 0.81089(15) 0.21983(8) 0.5370(2)
O3_3 O 0.94482(19) 0.13800(9) 0.4189(3)
O4_2 O 0.94329(15) 0.07163(9) 0.42660(19)
O9_3 O 0.66820(16) 0.23277(10) 0.52512(17)
O10_3 O 0.73480(17) 0.26257(10) 0.46339(18)
O13_3 O 0.6421(2) 0.2092(2) 0.6815(3)
O14_3 O 0.8435(2) 0.30873(18) 0.4924(3)
O15_4 O 1.0000 0.20383(15) 0.3334(4)
O16_4 O 1.0000 0.00239(15) 0.8646(4)
C1_3 C 0.7752(2) 0.04121(15) 0.5795(3)
C2_3 C 0.8032(2) 0.00686(12) 0.5986(3)
H1_3 H 0.8413 0.0075 0.5975
C5_3 C 0.6935(2) 0.00505(17) 0.6012(4)
H3_3 H 0.6554 0.0045 0.6028
C6_3 C 0.7198(2) 0.04098(16) 0.5804(4)
H4_3 H 0.6998 0.0641 0.5674
C7_3 C 0.8048(2) 0.07755(13) 0.5566(3)
C8_3 C 0.7852(2) 0.11558(14) 0.5729(3)
H5_3 H 0.7537 0.1182 0.6016
C9_3 C 0.8110(2) 0.14960(11) 0.5479(3)
C10_3 C 0.8578(2) 0.14629(13) 0.5078(2)
H6_3 H 0.8759 0.1697 0.4916
C11_3 C 0.8783(2) 0.10900(13) 0.4914(3)
C12_3 C 0.8525(2) 0.07525(13) 0.5164(3)
H7_3 H 0.8674 0.0497 0.5060
C13_3 C 0.7864(2) 0.19101(13) 0.5631(2)
C14_3 C 0.9265(2) 0.10565(12) 0.4427(3)
C23_3 C 0.6666(2) 0.23063(12) 0.3973(3)
C24_3 C 0.6947(2) 0.23849(13) 0.3334(3)
H11_3 H 0.7272 0.2534 0.3352
C25_3 C 0.6753(2) 0.22455(13) 0.2660(3)
C26_3 C 0.6273(2) 0.20208(14) 0.2651(3)
H12_3 H 0.6135 0.1926 0.2200
C27_3 C 0.6000(2) 0.19369(13) 0.3292(3)
C28_3 C 0.6194(2) 0.20847(13) 0.3947(2)
H13_3 H 0.6002 0.2034 0.4385
C29_3 C 0.6913(2) 0.24284(13) 0.4684(2)
C30_3 C 0.7049(2) 0.23244(13) 0.1982(3)
C31_3 C 0.5492(2) 0.17150(14) 0.3222(3)
C32_5 C 0.5000 0.18966(19) 0.3394(3)
H14_5 H 0.5000 0.2149 0.3632
C33_3 C 0.5486(3) 0.13410(19) 0.2872(3)
H15_3 H 0.5813 0.1212 0.2745
C34_5 C 0.5000 0.1164(3) 0.2715(6)
H16_5 H 0.5000 0.0908 0.2489
O17_3 O 0.33180(16) 0.23277(10) 0.52512(17)
O18_3 O 0.26520(17) 0.26257(10) 0.46339(18)
C35_3 C 0.3334(2) 0.23063(12) 0.3973(3)
C36_3 C 0.3053(2) 0.23849(13) 0.3334(3)
H17_3 H 0.2728 0.2534 0.3352
C37_3 C 0.3247(2) 0.22455(13) 0.2660(3)
C38_3 C 0.3727(2) 0.20208(14) 0.2651(3)
H18_3 H 0.3865 0.1926 0.2200
C39_3 C 0.4000(2) 0.19369(13) 0.3292(3)
C40_3 C 0.3806(2) 0.20847(13) 0.3947(2)
H19_3 H 0.3998 0.2034 0.4385
C41_3 C 0.3087(2) 0.24284(13) 0.4684(2)
C42_3 C 0.2951(2) 0.23244(13) 0.1982(3)
C43_3 C 0.4508(2) 0.17150(14) 0.3222(3)
C44_3 C 0.4514(3) 0.13410(19) 0.2872(3)
H20_3 H 0.4187 0.1212 0.2745
O21_3 O 0.25498(15) 0.19086(8) 0.6004(2)
O22_3 O 0.18911(15) 0.21983(8) 0.5370(2)
O24_2 O 0.05671(15) 0.07163(9) 0.42660(19)
O29_3 O 0.3579(2) 0.2092(2) 0.6815(3)
O30_3 O 0.1565(2) 0.30873(18) 0.4924(3)
C45_3 C 0.2248(2) 0.04121(15) 0.5795(3)
C46_3 C 0.1968(2) 0.00686(12) 0.5986(3)
H21_3 H 0.1587 0.0075 0.5975
C49_3 C 0.3065(2) 0.00505(17) 0.6012(4)
H23_3 H 0.3446 0.0045 0.6028
C50_3 C 0.2802(2) 0.04098(16) 0.5804(4)
H24_3 H 0.3002 0.0641 0.5674
C51_3 C 0.1952(2) 0.07755(13) 0.5566(3)
C52_3 C 0.2148(2) 0.11558(14) 0.5729(3)
H25_3 H 0.2463 0.1182 0.6016
C53_3 C 0.1890(2) 0.14960(11) 0.5479(3)
C54_3 C 0.1422(2) 0.14629(13) 0.5078(2)
H26_3 H 0.1241 0.1697 0.4916
C55_3 C 0.1217(2) 0.10900(13) 0.4914(3)
C56_3 C 0.1475(2) 0.07525(13) 0.5164(3)
H27_3 H 0.1326 0.0497 0.5060
C57_3 C 0.2136(2) 0.19101(13) 0.5631(2)
C58_3 C 0.0735(2) 0.10565(12) 0.4427(3)
Cu20_3 Cu 1.0000 0.06110(2) 0.35355(5)
O36_2 O 0.9449(2) 0.13045(10) 0.2721(3)
H37 H 0.963701 0.0115494 0.879532
Cu4_3 Cu 1.0000 0.93890(2) 0.85355(5)
O5_3 O 0.94379(14) 0.93637(8) 0.77663(19)
O6_2 O 0.9449(2) 0.86955(10) 0.7721(3)
C3_3 C 0.7779(2) 0.97168(13) 0.6192(3)
C4_3 C 0.7211(2) 0.97157(15) 0.6188(4)
H2_3 H 0.7022 0.9478 0.6311
C15_3 C 0.8078(2) 0.93558(13) 0.6378(3)
C16_3 C 0.8542(2) 0.93692(13) 0.6839(3)
H8_3 H 0.8666 0.9619 0.7018
C17_3 C 0.8807(2) 0.90299(12) 0.7022(3)
C18_3 C 0.8647(2) 0.86623(12) 0.6744(3)
H9_3 H 0.8840 0.8427 0.6868
C19_3 C 0.8200(2) 0.86394(13) 0.6281(3)
C20_3 C 0.7927(2) 0.89801(13) 0.6096(3)
H10_3 H 0.7630 0.8963 0.5772
C21_3 C 0.9271(2) 0.90303(12) 0.7557(3)
C22_3 C 0.8005(2) 0.82330(14) 0.6055(2)
O26_2 O 0.0551(2) 0.86955(10) 0.7721(3)
C47_3 C 0.2221(2) 0.97168(13) 0.6192(3)
C48_3 C 0.2789(2) 0.97157(15) 0.6188(4)
H22_3 H 0.2978 0.9478 0.6311
C59_3 C 0.1922(2) 0.93558(13) 0.6378(3)
C60_3 C 0.1458(2) 0.93692(13) 0.6839(3)
H28_3 H 0.1334 0.9619 0.7018
C61_3 C 0.1193(2) 0.90299(12) 0.7022(3)
C62_3 C 0.1353(2) 0.86623(12) 0.6744(3)
H29_3 H 0.1160 0.8427 0.6868
C63_3 C 0.1800(2) 0.86394(13) 0.6281(3)
C64_3 C 0.2073(2) 0.89801(13) 0.6096(3)
H30_3 H 0.2370 0.8963 0.5772
C65_3 C 0.0729(2) 0.90303(12) 0.7557(3)
C66_3 C 0.1995(2) 0.82330(14) 0.6055(2)
Cu17_3 Cu 1.0000 0.86015(2) 0.84453(5)
O33_2 O 0.94329(15) 0.92837(9) 0.92660(19)
O5_4 O 0.05621(14) 0.06363(8) 0.27663(19)
C3_4 C 0.2221(2) 0.02832(13) 0.1192(3)
C4_4 C 0.2789(2) 0.02843(15) 0.1188(4)
H2_4 H 0.2978 0.0522 0.1311
C15_4 C 0.1922(2) 0.06442(13) 0.1378(3)
C16_4 C 0.1458(2) 0.06308(13) 0.1839(3)
H8_4 H 0.1334 0.0381 0.2018
C17_4 C 0.1193(2) 0.09701(12) 0.2022(3)
C18_4 C 0.1353(2) 0.13377(12) 0.1744(3)
H9_4 H 0.1160 0.1573 0.1868
C19_4 C 0.1800(2) 0.13606(13) 0.1281(3)
C20_4 C 0.2073(2) 0.10199(13) 0.1096(3)
H10_4 H 0.2370 0.1037 0.0772
C21_4 C 0.0729(2) 0.09697(12) 0.2557(3)
C22_4 C 0.1995(2) 0.17670(14) 0.1055(2)
O25_2 O 0.94379(14) 0.06363(8) 0.27663(19)
C47_4 C 0.7779(2) 0.02832(13) 0.1192(3)
C48_4 C 0.7211(2) 0.02843(15) 0.1188(4)
H22_4 H 0.7022 0.0522 0.1311
C59_4 C 0.8078(2) 0.06442(13) 0.1378(3)
C60_4 C 0.8542(2) 0.06308(13) 0.1839(3)
H28_4 H 0.8666 0.0381 0.2018
C61_4 C 0.8807(2) 0.09701(12) 0.2022(3)
C62_4 C 0.8647(2) 0.13377(12) 0.1744(3)
H29_4 H 0.8840 0.1573 0.1868
C63_4 C 0.8200(2) 0.13606(13) 0.1281(3)
C64_4 C 0.7927(2) 0.10199(13) 0.1096(3)
H30_4 H 0.7630 0.1037 0.0772
C65_4 C 0.9271(2) 0.09697(12) 0.2557(3)
C66_4 C 0.8005(2) 0.17670(14) 0.1055(2)
O1_4 O 0.25498(15) 0.80914(8) 0.1004(2)
O2_4 O 0.18911(15) 0.78017(8) 0.0370(2)
O9_4 O 0.33180(16) 0.76723(10) 0.02512(17)
O13_4 O 0.3579(2) 0.7908(2) 0.1815(3)
O16_5 O -0.0000 0.99761(15) 0.3646(4)
C1_4 C 0.2248(2) 0.95879(15) 0.0795(3)
C2_4 C 0.1968(2) 0.99314(12) 0.0986(3)
H1_4 H 0.1587 0.9925 0.0975
C5_4 C 0.3065(2) 0.99495(17) 0.1012(4)
H3_4 H 0.3446 0.9955 0.1028
C6_4 C 0.2802(2) 0.95902(16) 0.0804(4)
H4_4 H 0.3002 0.9359 0.0674
C7_4 C 0.1952(2) 0.92245(13) 0.0566(3)
C8_4 C 0.2148(2) 0.88442(14) 0.0729(3)
H5_4 H 0.2463 0.8818 0.1016
C9_4 C 0.1890(2) 0.85040(11) 0.0479(3)
C10_4 C 0.1422(2) 0.85371(13) 0.0078(2)
C12_4 C 0.1475(2) 0.92475(13) 0.0164(3)
H7_4 H 0.1326 0.9503 0.0060
C13_4 C 0.2136(2) 0.80899(13) 0.0631(2)
O17_4 O 0.66820(16) 0.76723(10) 0.02512(17)
O21_4 O 0.74502(15) 0.80914(8) 0.1004(2)
O22_4 O 0.81089(15) 0.78017(8) 0.0370(2)
O29_4 O 0.6421(2) 0.7908(2) 0.1815(3)
C45_4 C 0.7752(2) 0.95879(15) 0.0795(3)
C46_4 C 0.8032(2) 0.99314(12) 0.0986(3)
H21_4 H 0.8413 0.9925 0.0975
C49_4 C 0.6935(2) 0.99495(17) 0.1012(4)
H23_4 H 0.6554 0.9955 0.1028
C50_4 C 0.7198(2) 0.95902(16) 0.0804(4)
H24_4 H 0.6998 0.9359 0.0674
C51_4 C 0.8048(2) 0.92245(13) 0.0566(3)
C52_4 C 0.7852(2) 0.88442(14) 0.0729(3)
H25_4 H 0.7537 0.8818 0.1016
C53_4 C 0.8110(2) 0.85040(11) 0.0479(3)
C54_4 C 0.8578(2) 0.85371(13) 0.0078(2)
C56_4 C 0.8525(2) 0.92475(13) 0.0164(3)
H27_4 H 0.8674 0.9503 0.0060
C57_4 C 0.7864(2) 0.80899(13) 0.0631(2)
H37_2 H 0.0362994 0.988451 0.379532
H40_3 H 0.870857 0.683148 0.0289017
O3_4 O 0.05518(19) 0.86200(9) 0.9189(3)
O10_4 O 0.26520(17) 0.73743(10) 0.96339(18)
O14_4 O 0.1565(2) 0.69127(18) 0.9924(3)
O15_5 O 0.0000 0.79617(15) 0.8334(4)
H6_4 H 0.1241 0.8303 0.9916
C11_4 C 0.1217(2) 0.89100(13) 0.9914(3)
C14_4 C 0.0735(2) 0.89435(12) 0.9427(3)
C23_4 C 0.3334(2) 0.76937(12) 0.8973(3)
C24_4 C 0.3053(2) 0.76151(13) 0.8334(3)
H11_4 H 0.2728 0.7466 0.8352
C25_4 C 0.3247(2) 0.77545(13) 0.7660(3)
C26_4 C 0.3727(2) 0.79792(14) 0.7651(3)
H12_4 H 0.3865 0.8074 0.7200
C27_4 C 0.4000(2) 0.80631(13) 0.8292(3)
C28_4 C 0.3806(2) 0.79153(13) 0.8947(2)
H13_4 H 0.3998 0.7966 0.9385
C29_4 C 0.3087(2) 0.75716(13) 0.9684(2)
C30_4 C 0.2951(2) 0.76756(13) 0.6982(3)
C31_4 C 0.4508(2) 0.82850(14) 0.8222(3)
C32_6 C 0.5000 0.81034(19) 0.8394(3)
H14_6 H 0.5000 0.7851 0.8632
C33_4 C 0.4514(3) 0.86590(19) 0.7872(3)
H15_4 H 0.4187 0.8788 0.7745
C34_6 C 0.5000 0.8836(3) 0.7715(6)
H16_6 H 0.5000 0.9092 0.7489
O18_4 O 0.73480(17) 0.73743(10) 0.96339(18)
C35_4 C 0.6666(2) 0.76937(12) 0.8973(3)
C36_4 C 0.6947(2) 0.76151(13) 0.8334(3)
H17_4 H 0.7272 0.7466 0.8352
C37_4 C 0.6753(2) 0.77545(13) 0.7660(3)
C38_4 C 0.6273(2) 0.79792(14) 0.7651(3)
H18_4 H 0.6135 0.8074 0.7200
C39_4 C 0.6000(2) 0.80631(13) 0.8292(3)
C40_4 C 0.6194(2) 0.79153(13) 0.8947(2)
H19_4 H 0.6002 0.7966 0.9385
C41_4 C 0.6913(2) 0.75716(13) 0.9684(2)
C42_4 C 0.7049(2) 0.76756(13) 0.6982(3)
C43_4 C 0.5492(2) 0.82850(14) 0.8222(3)
C44_4 C 0.5486(3) 0.86590(19) 0.7872(3)
H20_4 H 0.5813 0.8788 0.7745
O23_2 O 0.94482(19) 0.86200(9) 0.9189(3)
O30_4 O 0.8435(2) 0.69127(18) 0.9924(3)
H26_4 H 0.8759 0.8303 0.9916
C55_4 C 0.8783(2) 0.89100(13) 0.9914(3)
C58_4 C 0.9265(2) 0.89435(12) 0.9427(3)
O16_6 O 1.0000 0.99761(15) 0.3646(4)
H38_2 H 0.973383 0.989637 0.402203
O15_6 O 1.0000 0.79617(15) 0.8334(4)
H35_2 H 0.990569 0.783747 0.880881
H36_2 H 0.9732 0.788183 0.796047
H38_3 H 0.0266169 0.989637 0.402203
H35_3 H 0.00943147 0.783747 0.880881
H36_3 H 0.0267995 0.788183 0.796047
H37_3 H 0.963701 0.988451 0.379532
H40_4 H 0.129143 0.683148 0.0289017
H37_4 H 0.0362994 0.0115494 0.879532
H35_4 H 0.990569 0.216253 0.380881
H36_4 H 0.9732 0.211817 0.296047
H38_4 H 0.973383 0.0103633 0.902203
loop_
_geom_bond_atom_site_label_1
_geom_bond_atom_site_label_2
_geom_bond_site_symmetry_1
_geom_bond_site_symmetry_2
Cu1 O1 1_555 1_555
Cu2 O2 1_555 1_555
Cu3 O3 1_555 1_555
Cu4 O5 1_555 1_555
O1 C13 1_555 1_555
O2 C13 1_555 1_555
O3 C14 1_555 1_555
O4 C14 1_555 1_555
O5 C21 1_555 1_555
O6 C21 1_555 1_555
O7 C22 1_555 1_555
O8 C22 1_555 1_555
O9 Cu1 1_555 1_555
O10 Cu2 1_555 1_555
O11 C30 1_555 1_555
O12 C30 1_555 1_555
O13 Cu1 1_555 1_555
O14 Cu2 1_555 1_555
O15 Cu3 1_555 1_555
O16 Cu4 1_555 1_555
C1 C2 1_555 1_555
C2 H1 1_555 1_555
C3 C2 1_555 1_555
C4 C3 1_555 1_555
H2 C4 1_555 1_555
C5 C4 1_555 1_555
H3 C5 1_555 1_555
C6 C1 1_555 1_555
H4 C6 1_555 1_555
C7 C1 1_555 1_555
C8 C7 1_555 1_555
H5 C8 1_555 1_555
C9 C8 1_555 1_555
C10 C9 1_555 1_555
H6 C10 1_555 1_555
C11 C10 1_555 1_555
C12 C7 1_555 1_555
H7 C12 1_555 1_555
C13 C9 1_555 1_555
C14 C11 1_555 1_555
C15 C3 1_555 1_555
C16 C15 1_555 1_555
H8 C16 1_555 1_555
C17 C16 1_555 1_555
C18 C17 1_555 1_555
H9 C18 1_555 1_555
C19 C18 1_555 1_555
C20 C15 1_555 1_555
H10 C20 1_555 1_555
C21 C17 1_555 1_555
C22 C19 1_555 1_555
C23 C24 1_555 1_555
C24 H11 1_555 1_555
C25 C24 1_555 1_555
C26 C25 1_555 1_555
H12 C26 1_555 1_555
C27 C26 1_555 1_555
C28 C23 1_555 1_555
H13 C28 1_555 1_555
C29 O9 1_555 1_555
C30 C25 1_555 1_555
C31 C27 1_555 1_555
C32 C31 1_555 1_555
H14 C32 1_555 1_555
C33 C31 1_555 1_555
H15 C33 1_555 1_555
C34 C33 1_555 1_555
H16 C34 1_555 1_555
Cu8 O11 1_555 1_555
Cu10 O7 1_555 1_555
Cu12 O12 1_555 1_555
Cu14 O8 1_555 1_555
Cu17 O6 1_555 1_555
Cu20 O4 1_555 1_555
O31 Cu3 1_555 1_555
O32 Cu4 1_555 1_555
O33 Cu4 1_555 1_555
O34 Cu4 1_555 1_555
O35 Cu3 1_555 1_555
O36 Cu3 1_555 1_555
O38 Cu1 1_555 1_555
O40 Cu2 1_555 1_555
O41 Cu1 1_555 1_555
O43 Cu2 1_555 1_555
O10 C29 1_555 1_555
C5 C6 1_555 1_555
C11 C12 1_555 1_555
C19 C20 1_555 1_555
C23 C29 1_555 1_555
C27 C28 1_555 1_555
H14_2 C32_2 1_555 1_555
H16_2 C34_2 1_555 1_555
O17 C41 1_555 1_555
O18 C41 1_555 1_555
O19 C42 1_555 1_555
O20 C42 1_555 1_555
C35 C36 1_555 1_555
C36 H17 1_555 1_555
C37 C36 1_555 1_555
C38 C37 1_555 1_555
H18 C38 1_555 1_555
C39 C38 1_555 1_555
C40 C35 1_555 1_555
H19 C40 1_555 1_555
C41 C35 1_555 1_555
C42 C37 1_555 1_555
C43 C32_2 1_555 1_555
C44 C34_2 1_555 1_555
H20 C44 1_555 1_555
Cu5 O17 1_555 1_555
Cu6 O18 1_555 1_555
O21 Cu5 1_555 1_555
O22 Cu6 1_555 1_555
O31 C58 1_555 1_555
O24 C58 1_555 1_555
O34 C65 1_555 1_555
O26 C65 1_555 1_555
O27 C66 1_555 1_555
O28 C66 1_555 1_555
O29 Cu5 1_555 1_555
O30 Cu6 1_555 1_555
C45 C46 1_555 1_555
C46 H21 1_555 1_555
C47 C46 1_555 1_555
C48 C47 1_555 1_555
H22 C48 1_555 1_555
C49 C48 1_555 1_555
H23 C49 1_555 1_555
C50 C45 1_555 1_555
H24 C50 1_555 1_555
C51 C45 1_555 1_555
C52 C51 1_555 1_555
H25 C52 1_555 1_555
C53 C52 1_555 1_555
C54 C53 1_555 1_555
H26 C54 1_555 1_555
C55 C54 1_555 1_555
C56 C51 1_555 1_555
H27 C56 1_555 1_555
C57 O21 1_555 1_555
C58 C55 1_555 1_555
C59 C47 1_555 1_555
C60 C59 1_555 1_555
H28 C60 1_555 1_555
C61 C60 1_555 1_555
C62 C61 1_555 1_555
H29 C62 1_555 1_555
C63 C62 1_555 1_555
C64 C59 1_555 1_555
H30 C64 1_555 1_555
C65 C61 1_555 1_555
C66 C63 1_555 1_555
Cu7 O27 1_555 1_555
Cu9 O19 1_555 1_555
Cu11 O28 1_555 1_555
Cu13 O20 1_555 1_555
Cu17 O26 1_555 1_555
Cu20 O24 1_555 1_555
O37 Cu5 1_555 1_555
O39 Cu6 1_555 1_555
O42 Cu5 1_555 1_555
O44 Cu6 1_555 1_555
C39 C40 1_555 1_555
C39 C43 1_555 1_555
C43 C44 1_555 1_555
O22 C57 1_555 1_555
C49 C50 1_555 1_555
C53 C57 1_555 1_555
C55 C56 1_555 1_555
C63 C64 1_555 1_555
Cu5_2 O17_2 1_555 1_555
O21_2 Cu5_2 1_555 1_555
O22_2 Cu6_2 1_555 1_555
O25 C65_2 1_555 1_555
O36 C65_2 1_555 1_555
O27_2 C66_2 1_555 1_555
O28_2 C66_2 1_555 1_555
O29_2 Cu5_2 1_555 1_555
C45_2 C46_2 1_555 1_555
C46_2 H21_2 1_555 1_555
C47_2 C46_2 1_555 1_555
C48_2 C47_2 1_555 1_555
H22_2 C48_2 1_555 1_555
C49_2 C48_2 1_555 1_555
H23_2 C49_2 1_555 1_555
C50_2 C45_2 1_555 1_555
H24_2 C50_2 1_555 1_555
C51_2 C45_2 1_555 1_555
C52_2 C51_2 1_555 1_555
H25_2 C52_2 1_555 1_555
C53_2 C52_2 1_555 1_555
C54_2 C53_2 1_555 1_555
C56_2 C51_2 1_555 1_555
H27_2 C56_2 1_555 1_555
C57_2 O21_2 1_555 1_555
C59_2 C47_2 1_555 1_555
C60_2 C59_2 1_555 1_555
H28_2 C60_2 1_555 1_555
C61_2 C60_2 1_555 1_555
C62_2 C61_2 1_555 1_555
H29_2 C62_2 1_555 1_555
C63_2 C62_2 1_555 1_555
C64_2 C59_2 1_555 1_555
H30_2 C64_2 1_555 1_555
C65_2 C61_2 1_555 1_555
C66_2 C63_2 1_555 1_555
Cu8 O27_2 1_555 1_555
Cu12 O28_2 1_555 1_555
Cu20 O25 1_555 1_555
O37_2 Cu5_2 1_555 1_555
O39_2 Cu6_2 1_555 1_555
O42_2 Cu5_2 1_555 1_555
O44_2 Cu6_2 1_555 1_555
O22_2 C57_2 1_555 1_555
C49_2 C50_2 1_555 1_555
C53_2 C57_2 1_555 1_555
C63_2 C64_2 1_555 1_555
H14_3 C32_3 1_555 1_555
H16_3 C34_3 1_555 1_555
O18_2 C41_2 1_555 1_555
O19_2 C42_2 1_555 1_555
O20_2 C42_2 1_555 1_555
C35_2 C36_2 1_555 1_555
C36_2 H17_2 1_555 1_555
C37_2 C36_2 1_555 1_555
C38_2 C37_2 1_555 1_555
H18_2 C38_2 1_555 1_555
C39_2 C38_2 1_555 1_555
C40_2 C35_2 1_555 1_555
H19_2 C40_2 1_555 1_555
C41_2 C35_2 1_555 1_555
C42_2 C37_2 1_555 1_555
C43_2 C32_3 1_555 1_555
C44_2 C34_3 1_555 1_555
H20_2 C44_2 1_555 1_555
O23 C58_2 1_555 1_555
O33 C58_2 1_555 1_555
C58_2 C55_2 1_555 1_555
Cu10 O19_2 1_555 1_555
Cu14 O20_2 1_555 1_555
Cu17 O23 1_555 1_555
C39_2 C40_2 1_555 1_555
C39_2 C43_2 1_555 1_555
C43_2 C44_2 1_555 1_555
Cu1_2 O1_2 1_555 1_555
Cu2_2 O2_2 1_555 1_555
Cu20 O5_2 1_555 1_555
O1_2 C13_2 1_555 1_555
O2_2 C13_2 1_555 1_555
O5_2 C21_2 1_555 1_555
O35 C21_2 1_555 1_555
O7_2 C22_2 1_555 1_555
O8_2 C22_2 1_555 1_555
O9_2 Cu1_2 1_555 1_555
O13_2 Cu1_2 1_555 1_555
O16_2 Cu20 1_555 1_555
C1_2 C2_2 1_555 1_555
C2_2 H1_2 1_555 1_555
C3_2 C2_2 1_555 1_555
C4_2 C3_2 1_555 1_555
H2_2 C4_2 1_555 1_555
C5_2 C4_2 1_555 1_555
H3_2 C5_2 1_555 1_555
C6_2 C1_2 1_555 1_555
H4_2 C6_2 1_555 1_555
C7_2 C1_2 1_555 1_555
C8_2 C7_2 1_555 1_555
H5_2 C8_2 1_555 1_555
C9_2 C8_2 1_555 1_555
C10_2 C9_2 1_555 1_555
C12_2 C7_2 1_555 1_555
H7_2 C12_2 1_555 1_555
C13_2 C9_2 1_555 1_555
C15_2 C3_2 1_555 1_555
C16_2 C15_2 1_555 1_555
H8_2 C16_2 1_555 1_555
C17_2 C16_2 1_555 1_555
C18_2 C17_2 1_555 1_555
H9_2 C18_2 1_555 1_555
C19_2 C18_2 1_555 1_555
C20_2 C15_2 1_555 1_555
H10_2 C20_2 1_555 1_555
C21_2 C17_2 1_555 1_555
C22_2 C19_2 1_555 1_555
Cu9 O7_2 1_555 1_555
Cu13 O8_2 1_555 1_555
O38_2 Cu1_2 1_555 1_555
O40_2 Cu2_2 1_555 1_555
O41_2 Cu1_2 1_555 1_555
O43_2 Cu2_2 1_555 1_555
C5_2 C6_2 1_555 1_555
C19_2 C20_2 1_555 1_555
Cu17 O3_2 1_555 1_555
O3_2 C14_2 1_555 1_555
O32 C14_2 1_555 1_555
O11_2 C30_2 1_555 1_555
O12_2 C30_2 1_555 1_555
O15_2 Cu17 1_555 1_555
C14_2 C11_2 1_555 1_555
C23_2 C24_2 1_555 1_555
C24_2 H11_2 1_555 1_555
C25_2 C24_2 1_555 1_555
C26_2 C25_2 1_555 1_555
H12_2 C26_2 1_555 1_555
C27_2 C26_2 1_555 1_555
C28_2 C23_2 1_555 1_555
H13_2 C28_2 1_555 1_555
C30_2 C25_2 1_555 1_555
C31_2 C27_2 1_555 1_555
C32_4 C31_2 1_555 1_555
H14_4 C32_4 1_555 1_555
C33_2 C31_2 1_555 1_555
H15_2 C33_2 1_555 1_555
C34_4 C33_2 1_555 1_555
H16_4 C34_4 1_555 1_555
Cu7 O11_2 1_555 1_555
Cu11 O12_2 1_555 1_555
O10_2 C29_2 1_555 1_555
C23_2 C29_2 1_555 1_555
C27_2 C28_2 1_555 1_555
O15_3 Cu3_2 1_555 1_555
O31_2 Cu3_2 1_555 1_555
O35_2 Cu3_2 1_555 1_555
O15_3 H35 1_555 1_555
O15_3 H36 1_555 1_555
O16_3 H38 1_555 1_555
O32_2 Cu4_2 1_555 1_555
O34_2 Cu4_2 1_555 1_555
Cu7 O1_3 1_555 1_555
Cu11 O2_3 1_555 1_555
Cu3_3 O3_3 1_555 1_555
O1_3 C13_3 1_555 1_555
O2_3 C13_3 1_555 1_555
O3_3 C14_3 1_555 1_555
O4_2 C14_3 1_555 1_555
O9_3 Cu7 1_555 1_555
O10_3 Cu11 1_555 1_555
O41_2 C30_3 1_555 1_555
O43_2 C30_3 1_555 1_555
O13_3 Cu7 1_555 1_555
O14_3 Cu11 1_555 1_555
O15_4 Cu3_3 1_555 1_555
C1_3 C2_3 1_555 1_555
C2_3 H1_3 1_555 1_555
H3_3 C5_3 1_555 1_555
C6_3 C1_3 1_555 1_555
H4_3 C6_3 1_555 1_555
C7_3 C1_3 1_555 1_555
C8_3 C7_3 1_555 1_555
H5_3 C8_3 1_555 1_555
C9_3 C8_3 1_555 1_555
C10_3 C9_3 1_555 1_555
H6_3 C10_3 1_555 1_555
C11_3 C10_3 1_555 1_555
C12_3 C7_3 1_555 1_555
H7_3 C12_3 1_555 1_555
C13_3 C9_3 1_555 1_555
C14_3 C11_3 1_555 1_555
C23_3 C24_3 1_555 1_555
C24_3 H11_3 1_555 1_555
C25_3 C24_3 1_555 1_555
C26_3 C25_3 1_555 1_555
H12_3 C26_3 1_555 1_555
C27_3 C26_3 1_555 1_555
C28_3 C23_3 1_555 1_555
H13_3 C28_3 1_555 1_555
C29_3 O9_3 1_555 1_555
C30_3 C25_3 1_555 1_555
C31_3 C27_3 1_555 1_555
C32_5 C31_3 1_555 1_555
H14_5 C32_5 1_555 1_555
C33_3 C31_3 1_555 1_555
H15_3 C33_3 1_555 1_555
C34_5 C33_3 1_555 1_555
H16_5 C34_5 1_555 1_555
O17_3 C41_3 1_555 1_555
O18_3 C41_3 1_555 1_555
O42_2 C42_3 1_555 1_555
O44_2 C42_3 1_555 1_555
C35_3 C36_3 1_555 1_555
C36_3 H17_3 1_555 1_555
C37_3 C36_3 1_555 1_555
C38_3 C37_3 1_555 1_555
H18_3 C38_3 1_555 1_555
C39_3 C38_3 1_555 1_555
C40_3 C35_3 1_555 1_555
H19_3 C40_3 1_555 1_555
C41_3 C35_3 1_555 1_555
C42_3 C37_3 1_555 1_555
C43_3 C32_5 1_555 1_555
C44_3 C34_5 1_555 1_555
H20_3 C44_3 1_555 1_555
Cu10 O17_3 1_555 1_555
Cu14 O18_3 1_555 1_555
O21_3 Cu10 1_555 1_555
O22_3 Cu14 1_555 1_555
O31_2 C58_3 1_555 1_555
O24_2 C58_3 1_555 1_555
O29_3 Cu10 1_555 1_555
O30_3 Cu14 1_555 1_555
C45_3 C46_3 1_555 1_555
C46_3 H21_3 1_555 1_555
H23_3 C49_3 1_555 1_555
C50_3 C45_3 1_555 1_555
H24_3 C50_3 1_555 1_555
C51_3 C45_3 1_555 1_555
C52_3 C51_3 1_555 1_555
H25_3 C52_3 1_555 1_555
C53_3 C52_3 1_555 1_555
C54_3 C53_3 1_555 1_555
H26_3 C54_3 1_555 1_555
C55_3 C54_3 1_555 1_555
C56_3 C51_3 1_555 1_555
H27_3 C56_3 1_555 1_555
C57_3 O21_3 1_555 1_555
C58_3 C55_3 1_555 1_555
Cu20_2 O24_2 1_555 1_555
Cu20_3 O4_2 1_555 1_555
O36_2 Cu3_3 1_555 1_555
O10_3 C29_3 1_555 1_555
C5_3 C6_3 1_555 1_555
C11_3 C12_3 1_555 1_555
C23_3 C29_3 1_555 1_555
C27_3 C28_3 1_555 1_555
C39_3 C40_3 1_555 1_555
C39_3 C43_3 1_555 1_555
C43_3 C44_3 1_555 1_555
O22_3 C57_3 1_555 1_555
C49_3 C50_3 1_555 1_555
C53_3 C57_3 1_555 1_555
C55_3 C56_3 1_555 1_555
O16_4 H37 1_555 1_555
Cu4_3 O5_3 1_555 1_555
O5_3 C21_3 1_555 1_555
O6_2 C21_3 1_555 1_555
O37 C22_3 1_555 1_555
O39 C22_3 1_555 1_555
C4_3 C3_3 1_555 1_555
H2_3 C4_3 1_555 1_555
C15_3 C3_3 1_555 1_555
C16_3 C15_3 1_555 1_555
H8_3 C16_3 1_555 1_555
C17_3 C16_3 1_555 1_555
C18_3 C17_3 1_555 1_555
H9_3 C18_3 1_555 1_555
C19_3 C18_3 1_555 1_555
C20_3 C15_3 1_555 1_555
H10_3 C20_3 1_555 1_555
C21_3 C17_3 1_555 1_555
C22_3 C19_3 1_555 1_555
O34_2 C65_3 1_555 1_555
O26_2 C65_3 1_555 1_555
O38 C66_3 1_555 1_555
O40 C66_3 1_555 1_555
C48_3 C47_3 1_555 1_555
H22_3 C48_3 1_555 1_555
C59_3 C47_3 1_555 1_555
C60_3 C59_3 1_555 1_555
H28_3 C60_3 1_555 1_555
C61_3 C60_3 1_555 1_555
C62_3 C61_3 1_555 1_555
H29_3 C62_3 1_555 1_555
C63_3 C62_3 1_555 1_555
C64_3 C59_3 1_555 1_555
H30_3 C64_3 1_555 1_555
C65_3 C61_3 1_555 1_555
C66_3 C63_3 1_555 1_555
Cu17_2 O26_2 1_555 1_555
Cu17_3 O6_2 1_555 1_555
O33_2 Cu4_3 1_555 1_555
C19_3 C20_3 1_555 1_555
C63_3 C64_3 1_555 1_555
Cu20_2 O5_4 1_555 1_555
O5_4 C21_4 1_555 1_555
O35_2 C21_4 1_555 1_555
O37_2 C22_4 1_555 1_555
O39_2 C22_4 1_555 1_555
C4_4 C3_4 1_555 1_555
H2_4 C4_4 1_555 1_555
C15_4 C3_4 1_555 1_555
C16_4 C15_4 1_555 1_555
H8_4 C16_4 1_555 1_555
C17_4 C16_4 1_555 1_555
C18_4 C17_4 1_555 1_555
H9_4 C18_4 1_555 1_555
C19_4 C18_4 1_555 1_555
C20_4 C15_4 1_555 1_555
H10_4 C20_4 1_555 1_555
C21_4 C17_4 1_555 1_555
C22_4 C19_4 1_555 1_555
O25_2 C65_4 1_555 1_555
O36_2 C65_4 1_555 1_555
O38_2 C66_4 1_555 1_555
O40_2 C66_4 1_555 1_555
C48_4 C47_4 1_555 1_555
H22_4 C48_4 1_555 1_555
C59_4 C47_4 1_555 1_555
C60_4 C59_4 1_555 1_555
H28_4 C60_4 1_555 1_555
C61_4 C60_4 1_555 1_555
C62_4 C61_4 1_555 1_555
H29_4 C62_4 1_555 1_555
C63_4 C62_4 1_555 1_555
C64_4 C59_4 1_555 1_555
H30_4 C64_4 1_555 1_555
C65_4 C61_4 1_555 1_555
C66_4 C63_4 1_555 1_555
Cu20_3 O25_2 1_555 1_555
C19_4 C20_4 1_555 1_555
C63_4 C64_4 1_555 1_555
Cu8 O1_4 1_555 1_555
Cu12 O2_4 1_555 1_555
O1_4 C13_4 1_555 1_555
O2_4 C13_4 1_555 1_555
O9_4 Cu8 1_555 1_555
O13_4 Cu8 1_555 1_555
C1_4 C2_4 1_555 1_555
C2_4 H1_4 1_555 1_555
H3_4 C5_4 1_555 1_555
C6_4 C1_4 1_555 1_555
H4_4 C6_4 1_555 1_555
C7_4 C1_4 1_555 1_555
C8_4 C7_4 1_555 1_555
H5_4 C8_4 1_555 1_555
C9_4 C8_4 1_555 1_555
C10_4 C9_4 1_555 1_555
C12_4 C7_4 1_555 1_555
H7_4 C12_4 1_555 1_555
C13_4 C9_4 1_555 1_555
Cu9 O17_4 1_555 1_555
O21_4 Cu9 1_555 1_555
O22_4 Cu13 1_555 1_555
O29_4 Cu9 1_555 1_555
C45_4 C46_4 1_555 1_555
C46_4 H21_4 1_555 1_555
H23_4 C49_4 1_555 1_555
C50_4 C45_4 1_555 1_555
H24_4 C50_4 1_555 1_555
C51_4 C45_4 1_555 1_555
C52_4 C51_4 1_555 1_555
H25_4 C52_4 1_555 1_555
C53_4 C52_4 1_555 1_555
C54_4 C53_4 1_555 1_555
C56_4 C51_4 1_555 1_555
H27_4 C56_4 1_555 1_555
C57_4 O21_4 1_555 1_555
C5_4 C6_4 1_555 1_555
O22_4 C57_4 1_555 1_555
C49_4 C50_4 1_555 1_555
C53_4 C57_4 1_555 1_555
O16_5 H37_2 1_555 1_555
Cu17_2 O3_4 1_555 1_555
O3_4 C14_4 1_555 1_555
O32_2 C14_4 1_555 1_555
O41 C30_4 1_555 1_555
O43 C30_4 1_555 1_555
O15_5 Cu17_2 1_555 1_555
C14_4 C11_4 1_555 1_555
C23_4 C24_4 1_555 1_555
C24_4 H11_4 1_555 1_555
C25_4 C24_4 1_555 1_555
C26_4 C25_4 1_555 1_555
H12_4 C26_4 1_555 1_555
C27_4 C26_4 1_555 1_555
C28_4 C23_4 1_555 1_555
H13_4 C28_4 1_555 1_555
C30_4 C25_4 1_555 1_555
C31_4 C27_4 1_555 1_555
C32_6 C31_4 1_555 1_555
H14_6 C32_6 1_555 1_555
C33_4 C31_4 1_555 1_555
H15_4 C33_4 1_555 1_555
C34_6 C33_4 1_555 1_555
H16_6 C34_6 1_555 1_555
O18_4 C41_4 1_555 1_555
O42 C42_4 1_555 1_555
O44 C42_4 1_555 1_555
C35_4 C36_4 1_555 1_555
C36_4 H17_4 1_555 1_555
C37_4 C36_4 1_555 1_555
C38_4 C37_4 1_555 1_555
H18_4 C38_4 1_555 1_555
C39_4 C38_4 1_555 1_555
C40_4 C35_4 1_555 1_555
H19_4 C40_4 1_555 1_555
C41_4 C35_4 1_555 1_555
C42_4 C37_4 1_555 1_555
C43_4 C32_6 1_555 1_555
C44_4 C34_6 1_555 1_555
H20_4 C44_4 1_555 1_555
O23_2 C58_4 1_555 1_555
O33_2 C58_4 1_555 1_555
C58_4 C55_4 1_555 1_555
Cu17_3 O23_2 1_555 1_555
O10_4 C29_4 1_555 1_555
C23_4 C29_4 1_555 1_555
C27_4 C28_4 1_555 1_555
C39_4 C40_4 1_555 1_555
C39_4 C43_4 1_555 1_555
C43_4 C44_4 1_555 1_555
O16_6 H38_2 1_555 1_555
O15_6 Cu17_3 1_555 1_555
O15_6 H35_2 1_555 1_555
O15_6 H36_2 1_555 1_555
O16_5 H38_3 1_555 1_555
O15_5 H35_3 1_555 1_555
O15_5 H36_3 1_555 1_555
O16_6 H37_3 1_555 1_555
O16_3 H37_4 1_555 1_555
O15_4 H35_4 1_555 1_555
O15_4 H36_4 1_555 1_555
O16_4 H38_4 1_555 1_555

#END
