
###############################################################################
#
# This file contains modified crystal structure data generated from the
# MOF subset of the Cambridge Structural Database (CSD) v543 
# hosted by the Cambridge Crystallographic Data Centre (CCDC).
#
# This work is licensed under the Creative Commons
# Attribution-NonCommercial-ShareAlike 4.0 International License.
# To view a copy of this license, visit
# http://creativecommons.org/licenses/by-nc-sa/4.0/
# or send a letter to
# Creative Commons, PO Box 1866, Mountain View, CA 94042, USA.
#
# CIF created using the CSD Python API on 29 September 2022
# The structure has been converted into the P1 space group
# The structure has a 3D framework
# The original CSD entry GOVJIN is in the cubic crystal system
# The framework has been calculated to contain at least 10.0% void space
# The void calculation uses a probe of radius 1.32A, grid spacing 0.4
# H atom positions have been added when not included in the experimental data
# Generated hydrogen atom positions removed from atoms on special positions
#
###############################################################################

data_GOVJIN
_chemical_formula_moiety         '(C312 H264 Cu24 O144)n'
_symmetry_cell_setting           triclinic
_symmetry_space_group_name_H-M   'P 1'
_symmetry_Int_Tables_number      1
_space_group_name_Hall           'P 1'
loop_
_symmetry_equiv_pos_site_id
_symmetry_equiv_pos_as_xyz
1 x,y,z
_cell_length_a                   25.3148(4)
_cell_length_b                   25.3148(4)
_cell_length_c                   25.3148(4)
_cell_angle_alpha                90
_cell_angle_beta                 90
_cell_angle_gamma                90
_cell_volume                     16222.7
loop_
_atom_site_label
_atom_site_type_symbol
_atom_site_fract_x
_atom_site_fract_y
_atom_site_fract_z
Cu1 Cu 0.5000 0.18655(5) 0.22366(5)
Cu2 Cu 0.5000 0.26494(5) 0.29367(5)
O1 O 0.5000 0.1228(5) 0.1679(5)
O2 O 0.4455(3) 0.2291(2) 0.1889(3)
O3 O 0.4449(3) 0.2950(3) 0.2489(3)
O4 O 0.5000 0.3265(7) 0.3496(8)
O5 O 0.3285(3) 0.4441(3) 0.2238(2)
O6 O 0.2681(2) 0.4437(3) 0.1572(2)
O7 O 0.3439(4) 0.3550(4) 0.0000
C1 C 0.3878(4) 0.3002(4) 0.1749(3)
C2 C 0.3701(3) 0.3504(3) 0.1913(4)
H1 H 0.3841 0.3669 0.2220
C3 C 0.3304(3) 0.3757(3) 0.1604(3)
C4 C 0.3129(3) 0.3525(4) 0.1150(3)
H2 H 0.2877 0.3704 0.0938
C5 C 0.3308(4) 0.3040(4) 0.0995(4)
C6 C 0.3677(4) 0.2780(3) 0.1305(3)
H3 H 0.3793 0.2438 0.1203
C7 C 0.4298(3) 0.2723(3) 0.2053(4)
C8 C 0.3062(4) 0.4244(3) 0.1820(3)
C9 C 0.3134(4) 0.2782(4) 0.0489(4)
C10 C 0.3220(5) 0.3044(4) 0.0000
C11 C 0.2914(5) 0.2289(4) 0.0458(5)
H4 H 0.2809 0.2123 0.0777
C12 C 0.2837(7) 0.2025(6) 0.0000
H5 H 0.2733 0.1665 0.0000
C13 C 0.3939(8) 0.3590(7) 0.0000
H6 H 0.4044 0.3955 0.0000
H7 H 0.4076 0.3419 0.0310
Cu4 Cu 0.22366(5) 0.5000 0.18655(5)
Cu7 Cu 0.29367(5) 0.5000 0.26494(5)
O12 O 0.5545(3) 0.2291(2) 0.1889(3)
O13 O 0.5551(3) 0.2950(3) 0.2489(3)
O14 O 0.4441(3) 0.2238(2) 0.3285(3)
O15 O 0.5559(3) 0.2238(2) 0.3285(3)
O16 O 0.4437(3) 0.1572(2) 0.2681(2)
O17 O 0.5563(3) 0.1572(2) 0.2681(2)
O7_2 O 0.3439(4) 0.3550(4) 1.0000
C10_2 C 0.3220(5) 0.3044(4) 1.0000
C12_2 C 0.2837(7) 0.2025(6) 1.0000
H5_2 H 0.2733 0.1665 1.0000
C13_2 C 0.3939(8) 0.3590(7) 1.0000
H6_2 H 0.4044 0.3955 1.0000
O8 O 0.4455(3) 0.2291(2) 0.8111(3)
O9 O 0.4449(3) 0.2950(3) 0.7511(3)
O10 O 0.3285(3) 0.4441(3) 0.7762(2)
O11 O 0.2681(2) 0.4437(3) 0.8428(2)
C14 C 0.3878(4) 0.3002(4) 0.8251(3)
C15 C 0.3701(3) 0.3504(3) 0.8087(4)
H8 H 0.3841 0.3669 0.7780
C16 C 0.3304(3) 0.3757(3) 0.8396(3)
C17 C 0.3129(3) 0.3525(4) 0.8850(3)
H9 H 0.2877 0.3704 0.9062
C18 C 0.3308(4) 0.3040(4) 0.9005(4)
C19 C 0.3677(4) 0.2780(3) 0.8695(3)
H10 H 0.3793 0.2438 0.8797
C20 C 0.4298(3) 0.2723(3) 0.7947(4)
C21 C 0.3062(4) 0.4244(3) 0.8180(3)
C22 C 0.3134(4) 0.2782(4) 0.9511(4)
C23 C 0.2914(5) 0.2289(4) 0.9542(5)
H11 H 0.2809 0.2123 0.9223
H12 H 0.4076 0.3419 0.9690
Cu3 Cu 0.5000 0.18655(5) 0.77634(5)
Cu5 Cu 0.22366(5) 0.5000 0.81345(5)
Cu6 Cu 0.5000 0.26494(5) 0.70633(5)
Cu8 Cu 0.29367(5) 0.5000 0.73506(5)
Cu1_2 Cu 0.5000 0.81345(5) 0.22366(5)
Cu2_2 Cu 0.5000 0.73506(5) 0.29367(5)
O1_2 O 0.5000 0.8772(5) 0.1679(5)
O2_2 O 0.5545(3) 0.7709(2) 0.1889(3)
O3_2 O 0.5551(3) 0.7050(3) 0.2489(3)
O4_2 O 0.5000 0.6735(7) 0.3496(8)
O5_2 O 0.6715(3) 0.5559(3) 0.2238(2)
O6_2 O 0.7319(2) 0.5563(3) 0.1572(2)
O7_3 O 0.6561(4) 0.6450(4) 0.0000
C1_2 C 0.6122(4) 0.6998(4) 0.1749(3)
C2_2 C 0.6299(3) 0.6496(3) 0.1913(4)
H1_2 H 0.6159 0.6331 0.2220
C3_2 C 0.6696(3) 0.6243(3) 0.1604(3)
C4_2 C 0.6871(3) 0.6475(4) 0.1150(3)
H2_2 H 0.7123 0.6296 0.0938
C5_2 C 0.6692(4) 0.6960(4) 0.0995(4)
C6_2 C 0.6323(4) 0.7220(3) 0.1305(3)
H3_2 H 0.6207 0.7562 0.1203
C7_2 C 0.5702(3) 0.7277(3) 0.2053(4)
C8_2 C 0.6938(4) 0.5756(3) 0.1820(3)
C9_2 C 0.6866(4) 0.7218(4) 0.0489(4)
C10_3 C 0.6780(5) 0.6956(4) 0.0000
C11_2 C 0.7086(5) 0.7711(4) 0.0458(5)
H4_2 H 0.7191 0.7877 0.0777
C12_3 C 0.7163(7) 0.7975(6) 0.0000
H5_3 H 0.7267 0.8335 0.0000
C13_3 C 0.6061(8) 0.6410(7) 0.0000
H6_3 H 0.5956 0.6045 0.0000
H7_2 H 0.5924 0.6581 0.0310
Cu4_2 Cu 0.77634(5) 0.5000 0.18655(5)
Cu7_2 Cu 0.70633(5) 0.5000 0.26494(5)
O12_2 O 0.4455(3) 0.7709(2) 0.1889(3)
O13_2 O 0.4449(3) 0.7050(3) 0.2489(3)
O14_2 O 0.5559(3) 0.7762(2) 0.3285(3)
O15_2 O 0.4441(3) 0.7762(2) 0.3285(3)
O16_2 O 0.5563(3) 0.8428(2) 0.2681(2)
O17_2 O 0.4437(3) 0.8428(2) 0.2681(2)
O7_4 O 0.6561(4) 0.6450(4) 1.0000
C10_4 C 0.6780(5) 0.6956(4) 1.0000
C12_4 C 0.7163(7) 0.7975(6) 1.0000
H5_4 H 0.7267 0.8335 1.0000
C13_4 C 0.6061(8) 0.6410(7) 1.0000
H6_4 H 0.5956 0.6045 1.0000
O8_2 O 0.5545(3) 0.7709(2) 0.8111(3)
O9_2 O 0.5551(3) 0.7050(3) 0.7511(3)
O10_2 O 0.6715(3) 0.5559(3) 0.7762(2)
O11_2 O 0.7319(2) 0.5563(3) 0.8428(2)
C14_2 C 0.6122(4) 0.6998(4) 0.8251(3)
C15_2 C 0.6299(3) 0.6496(3) 0.8087(4)
H8_2 H 0.6159 0.6331 0.7780
C16_2 C 0.6696(3) 0.6243(3) 0.8396(3)
C17_2 C 0.6871(3) 0.6475(4) 0.8850(3)
H9_2 H 0.7123 0.6296 0.9062
C18_2 C 0.6692(4) 0.6960(4) 0.9005(4)
C19_2 C 0.6323(4) 0.7220(3) 0.8695(3)
H10_2 H 0.6207 0.7562 0.8797
C20_2 C 0.5702(3) 0.7277(3) 0.7947(4)
C21_2 C 0.6938(4) 0.5756(3) 0.8180(3)
C22_2 C 0.6866(4) 0.7218(4) 0.9511(4)
C23_2 C 0.7086(5) 0.7711(4) 0.9542(5)
H11_2 H 0.7191 0.7877 0.9223
H12_2 H 0.5924 0.6581 0.9690
Cu3_2 Cu 0.5000 0.81345(5) 0.77634(5)
Cu5_2 Cu 0.77634(5) 0.5000 0.81345(5)
Cu6_2 Cu 0.5000 0.73506(5) 0.70633(5)
Cu8_2 Cu 0.70633(5) 0.5000 0.73506(5)
O7_5 O 0.3439(4) 0.6450(4) 0.0000
C10_5 C 0.3220(5) 0.6956(4) 0.0000
C12_5 C 0.2837(7) 0.7975(6) 0.0000
H5_5 H 0.2733 0.8335 0.0000
C13_5 C 0.3939(8) 0.6410(7) 0.0000
H6_5 H 0.4044 0.6045 0.0000
O10_3 O 0.3285(3) 0.5559(3) 0.2238(2)
O11_3 O 0.2681(2) 0.5563(3) 0.1572(2)
C14_3 C 0.3878(4) 0.6998(4) 0.1749(3)
C15_3 C 0.3701(3) 0.6496(3) 0.1913(4)
H8_3 H 0.3841 0.6331 0.2220
C16_3 C 0.3304(3) 0.6243(3) 0.1604(3)
C17_3 C 0.3129(3) 0.6475(4) 0.1150(3)
H9_3 H 0.2877 0.6296 0.0938
C18_3 C 0.3308(4) 0.6960(4) 0.0995(4)
C19_3 C 0.3677(4) 0.7220(3) 0.1305(3)
H10_3 H 0.3793 0.7562 0.1203
C20_3 C 0.4298(3) 0.7277(3) 0.2053(4)
C21_3 C 0.3062(4) 0.5756(3) 0.1820(3)
C22_3 C 0.3134(4) 0.7218(4) 0.0489(4)
C23_3 C 0.2914(5) 0.7711(4) 0.0458(5)
H11_3 H 0.2809 0.7877 0.0777
H12_3 H 0.4076 0.6581 0.0310
O1_3 O 0.5000 0.8772(5) 0.8321(5)
O2_3 O 0.4455(3) 0.7709(2) 0.8111(3)
O3_3 O 0.4449(3) 0.7050(3) 0.7511(3)
O4_3 O 0.5000 0.6735(7) 0.6504(8)
O5_3 O 0.3285(3) 0.5559(3) 0.7762(2)
O6_3 O 0.2681(2) 0.5563(3) 0.8428(2)
O7_6 O 0.3439(4) 0.6450(4) 1.0000
C1_3 C 0.3878(4) 0.6998(4) 0.8251(3)
C2_3 C 0.3701(3) 0.6496(3) 0.8087(4)
H1_3 H 0.3841 0.6331 0.7780
C3_3 C 0.3304(3) 0.6243(3) 0.8396(3)
C4_3 C 0.3129(3) 0.6475(4) 0.8850(3)
H2_3 H 0.2877 0.6296 0.9062
C5_3 C 0.3308(4) 0.6960(4) 0.9005(4)
C6_3 C 0.3677(4) 0.7220(3) 0.8695(3)
H3_3 H 0.3793 0.7562 0.8797
C7_3 C 0.4298(3) 0.7277(3) 0.7947(4)
C8_3 C 0.3062(4) 0.5756(3) 0.8180(3)
C9_3 C 0.3134(4) 0.7218(4) 0.9511(4)
C10_6 C 0.3220(5) 0.6956(4) 1.0000
C11_3 C 0.2914(5) 0.7711(4) 0.9542(5)
H4_3 H 0.2809 0.7877 0.9223
C12_6 C 0.2837(7) 0.7975(6) 1.0000
H5_6 H 0.2733 0.8335 1.0000
C13_6 C 0.3939(8) 0.6410(7) 1.0000
H6_6 H 0.4044 0.6045 1.0000
H7_3 H 0.4076 0.6581 0.9690
O14_3 O 0.4441(3) 0.7762(2) 0.6715(3)
O15_3 O 0.5559(3) 0.7762(2) 0.6715(3)
O16_3 O 0.4437(3) 0.8428(2) 0.7319(2)
O17_3 O 0.5563(3) 0.8428(2) 0.7319(2)
O7_7 O 0.6561(4) 0.3550(4) 0.0000
C10_7 C 0.6780(5) 0.3044(4) 0.0000
C12_7 C 0.7163(7) 0.2025(6) 0.0000
H5_7 H 0.7267 0.1665 0.0000
C13_7 C 0.6061(8) 0.3590(7) 0.0000
H6_7 H 0.5956 0.3955 0.0000
O10_4 O 0.6715(3) 0.4441(3) 0.2238(2)
O11_4 O 0.7319(2) 0.4437(3) 0.1572(2)
C14_4 C 0.6122(4) 0.3002(4) 0.1749(3)
C15_4 C 0.6299(3) 0.3504(3) 0.1913(4)
H8_4 H 0.6159 0.3669 0.2220
C16_4 C 0.6696(3) 0.3757(3) 0.1604(3)
C17_4 C 0.6871(3) 0.3525(4) 0.1150(3)
H9_4 H 0.7123 0.3704 0.0938
C18_4 C 0.6692(4) 0.3040(4) 0.0995(4)
C19_4 C 0.6323(4) 0.2780(3) 0.1305(3)
H10_4 H 0.6207 0.2438 0.1203
C20_4 C 0.5702(3) 0.2723(3) 0.2053(4)
C21_4 C 0.6938(4) 0.4244(3) 0.1820(3)
C22_4 C 0.6866(4) 0.2782(4) 0.0489(4)
C23_4 C 0.7086(5) 0.2289(4) 0.0458(5)
H11_4 H 0.7191 0.2123 0.0777
H12_4 H 0.5924 0.3419 0.0310
O1_4 O 0.5000 0.1228(5) 0.8321(5)
O2_4 O 0.5545(3) 0.2291(2) 0.8111(3)
O3_4 O 0.5551(3) 0.2950(3) 0.7511(3)
O4_4 O 0.5000 0.3265(7) 0.6504(8)
O5_4 O 0.6715(3) 0.4441(3) 0.7762(2)
O6_4 O 0.7319(2) 0.4437(3) 0.8428(2)
O7_8 O 0.6561(4) 0.3550(4) 1.0000
C1_4 C 0.6122(4) 0.3002(4) 0.8251(3)
C2_4 C 0.6299(3) 0.3504(3) 0.8087(4)
H1_4 H 0.6159 0.3669 0.7780
C3_4 C 0.6696(3) 0.3757(3) 0.8396(3)
C4_4 C 0.6871(3) 0.3525(4) 0.8850(3)
H2_4 H 0.7123 0.3704 0.9062
C5_4 C 0.6692(4) 0.3040(4) 0.9005(4)
C6_4 C 0.6323(4) 0.2780(3) 0.8695(3)
H3_4 H 0.6207 0.2438 0.8797
C7_4 C 0.5702(3) 0.2723(3) 0.7947(4)
C8_4 C 0.6938(4) 0.4244(3) 0.8180(3)
C9_4 C 0.6866(4) 0.2782(4) 0.9511(4)
C10_8 C 0.6780(5) 0.3044(4) 1.0000
C11_4 C 0.7086(5) 0.2289(4) 0.9542(5)
H4_4 H 0.7191 0.2123 0.9223
C12_8 C 0.7163(7) 0.2025(6) 1.0000
H5_8 H 0.7267 0.1665 1.0000
C13_8 C 0.6061(8) 0.3590(7) 1.0000
H6_8 H 0.5956 0.3955 1.0000
H7_4 H 0.5924 0.3419 0.9690
O14_4 O 0.5559(3) 0.2238(2) 0.6715(3)
O15_4 O 0.4441(3) 0.2238(2) 0.6715(3)
O16_4 O 0.5563(3) 0.1572(2) 0.7319(2)
O17_4 O 0.4437(3) 0.1572(2) 0.7319(2)
O1_5 O 0.1679(5) 0.5000 0.1228(5)
O2_5 O 0.1889(3) 0.4455(3) 0.2291(2)
O3_5 O 0.2489(3) 0.4449(3) 0.2950(3)
O4_5 O 0.3496(8) 0.5000 0.3265(7)
O5_5 O 0.2238(2) 0.3285(3) 0.4441(3)
O6_5 O 0.1572(2) 0.2681(2) 0.4437(3)
O7_9 O -0.0000 0.3439(4) 0.3550(4)
C1_5 C 0.1749(3) 0.3878(4) 0.3002(4)
C2_5 C 0.1913(4) 0.3701(3) 0.3504(3)
H1_5 H 0.2220 0.3841 0.3669
C3_5 C 0.1604(3) 0.3304(3) 0.3757(3)
C4_5 C 0.1150(3) 0.3129(3) 0.3525(4)
H2_5 H 0.0938 0.2877 0.3704
C5_5 C 0.0995(4) 0.3308(4) 0.3040(4)
C6_5 C 0.1305(3) 0.3677(4) 0.2780(3)
H3_5 H 0.1203 0.3793 0.2438
C7_5 C 0.2053(4) 0.4298(3) 0.2723(3)
C8_5 C 0.1820(3) 0.3062(4) 0.4244(3)
C9_5 C 0.0489(4) 0.3134(4) 0.2782(4)
C10_9 C 0.0000 0.3220(5) 0.3044(4)
C11_5 C 0.0458(5) 0.2914(5) 0.2289(4)
H4_5 H 0.0777 0.2809 0.2123
C12_9 C 0.0000 0.2837(7) 0.2025(6)
H5_9 H 0.0000 0.2733 0.1665
C13_9 C -0.0000 0.3939(8) 0.3590(7)
H6_9 H -0.0000 0.4044 0.3955
H7_5 H 0.0310 0.4076 0.3419
Cu4_3 Cu 0.18655(5) 0.22366(5) 0.5000
Cu7_3 Cu 0.26494(5) 0.29367(5) 0.5000
O12_3 O 0.1889(3) 0.5545(3) 0.2291(2)
O13_3 O 0.2489(3) 0.5551(3) 0.2950(3)
O7_10 O 1.0000 0.3439(4) 0.3550(4)
C10_10 C 1.0000 0.3220(5) 0.3044(4)
C12_10 C 1.0000 0.2837(7) 0.2025(6)
H5_10 H 1.0000 0.2733 0.1665
C13_10 C 1.0000 0.3939(8) 0.3590(7)
H6_10 H 1.0000 0.4044 0.3955
O8_3 O 0.8111(3) 0.4455(3) 0.2291(2)
O9_3 O 0.7511(3) 0.4449(3) 0.2950(3)
O10_5 O 0.7762(2) 0.3285(3) 0.4441(3)
O11_5 O 0.8428(2) 0.2681(2) 0.4437(3)
C14_5 C 0.8251(3) 0.3878(4) 0.3002(4)
C15_5 C 0.8087(4) 0.3701(3) 0.3504(3)
H8_5 H 0.7780 0.3841 0.3669
C16_5 C 0.8396(3) 0.3304(3) 0.3757(3)
C17_5 C 0.8850(3) 0.3129(3) 0.3525(4)
H9_5 H 0.9062 0.2877 0.3704
C18_5 C 0.9005(4) 0.3308(4) 0.3040(4)
C19_5 C 0.8695(3) 0.3677(4) 0.2780(3)
H10_5 H 0.8797 0.3793 0.2438
C20_5 C 0.7947(4) 0.4298(3) 0.2723(3)
C21_5 C 0.8180(3) 0.3062(4) 0.4244(3)
C22_5 C 0.9511(4) 0.3134(4) 0.2782(4)
C23_5 C 0.9542(5) 0.2914(5) 0.2289(4)
H11_5 H 0.9223 0.2809 0.2123
H12_5 H 0.9690 0.4076 0.3419
Cu5_3 Cu 0.81345(5) 0.22366(5) 0.5000
Cu8_3 Cu 0.73506(5) 0.29367(5) 0.5000
O7_11 O -0.0000 0.6561(4) 0.3550(4)
C10_11 C -0.0000 0.6780(5) 0.3044(4)
C12_11 C -0.0000 0.7163(7) 0.2025(6)
H5_11 H -0.0000 0.7267 0.1665
C13_11 C -0.0000 0.6061(8) 0.3590(7)
H6_11 H -0.0000 0.5956 0.3955
O10_6 O 0.2238(2) 0.6715(3) 0.4441(3)
O11_6 O 0.1572(2) 0.7319(2) 0.4437(3)
C14_6 C 0.1749(3) 0.6122(4) 0.3002(4)
C15_6 C 0.1913(4) 0.6299(3) 0.3504(3)
H8_6 H 0.2220 0.6159 0.3669
C16_6 C 0.1604(3) 0.6696(3) 0.3757(3)
C17_6 C 0.1150(3) 0.6871(3) 0.3525(4)
H9_6 H 0.0938 0.7123 0.3704
C18_6 C 0.0995(4) 0.6692(4) 0.3040(4)
C19_6 C 0.1305(3) 0.6323(4) 0.2780(3)
H10_6 H 0.1203 0.6207 0.2438
C20_6 C 0.2053(4) 0.5702(3) 0.2723(3)
C21_6 C 0.1820(3) 0.6938(4) 0.4244(3)
C22_6 C 0.0489(4) 0.6866(4) 0.2782(4)
C23_6 C 0.0458(5) 0.7086(5) 0.2289(4)
H11_6 H 0.0777 0.7191 0.2123
H12_6 H 0.0310 0.5924 0.3419
Cu5_4 Cu 0.18655(5) 0.77634(5) 0.5000
Cu8_4 Cu 0.26494(5) 0.70633(5) 0.5000
O1_6 O 0.8321(5) 0.5000 0.1228(5)
O2_6 O 0.8111(3) 0.5545(3) 0.2291(2)
O3_6 O 0.7511(3) 0.5551(3) 0.2950(3)
O4_6 O 0.6504(8) 0.5000 0.3265(7)
O5_6 O 0.7762(2) 0.6715(3) 0.4441(3)
O6_6 O 0.8428(2) 0.7319(2) 0.4437(3)
O7_12 O 1.0000 0.6561(4) 0.3550(4)
C1_6 C 0.8251(3) 0.6122(4) 0.3002(4)
C2_6 C 0.8087(4) 0.6299(3) 0.3504(3)
H1_6 H 0.7780 0.6159 0.3669
C3_6 C 0.8396(3) 0.6696(3) 0.3757(3)
C4_6 C 0.8850(3) 0.6871(3) 0.3525(4)
H2_6 H 0.9062 0.7123 0.3704
C5_6 C 0.9005(4) 0.6692(4) 0.3040(4)
C6_6 C 0.8695(3) 0.6323(4) 0.2780(3)
H3_6 H 0.8797 0.6207 0.2438
C7_6 C 0.7947(4) 0.5702(3) 0.2723(3)
C8_6 C 0.8180(3) 0.6938(4) 0.4244(3)
C9_6 C 0.9511(4) 0.6866(4) 0.2782(4)
C10_12 C 1.0000 0.6780(5) 0.3044(4)
C11_6 C 0.9542(5) 0.7086(5) 0.2289(4)
H4_6 H 0.9223 0.7191 0.2123
C12_12 C 1.0000 0.7163(7) 0.2025(6)
H5_12 H 1.0000 0.7267 0.1665
C13_12 C 1.0000 0.6061(8) 0.3590(7)
H6_12 H 1.0000 0.5956 0.3955
H7_6 H 0.9690 0.5924 0.3419
Cu4_4 Cu 0.81345(5) 0.77634(5) 0.5000
Cu7_4 Cu 0.73506(5) 0.70633(5) 0.5000
O1_7 O 0.1679(5) 0.5000 0.8772(5)
O2_7 O 0.1889(3) 0.5545(3) 0.7709(2)
O3_7 O 0.2489(3) 0.5551(3) 0.7050(3)
O4_7 O 0.3496(8) 0.5000 0.6735(7)
O5_7 O 0.2238(2) 0.6715(3) 0.5559(3)
O6_7 O 0.1572(2) 0.7319(2) 0.5563(3)
O7_13 O -0.0000 0.6561(4) 0.6450(4)
C1_7 C 0.1749(3) 0.6122(4) 0.6998(4)
C2_7 C 0.1913(4) 0.6299(3) 0.6496(3)
H1_7 H 0.2220 0.6159 0.6331
C3_7 C 0.1604(3) 0.6696(3) 0.6243(3)
C4_7 C 0.1150(3) 0.6871(3) 0.6475(4)
H2_7 H 0.0938 0.7123 0.6296
C5_7 C 0.0995(4) 0.6692(4) 0.6960(4)
C6_7 C 0.1305(3) 0.6323(4) 0.7220(3)
H3_7 H 0.1203 0.6207 0.7562
C7_7 C 0.2053(4) 0.5702(3) 0.7277(3)
C8_7 C 0.1820(3) 0.6938(4) 0.5756(3)
C9_7 C 0.0489(4) 0.6866(4) 0.7218(4)
C10_13 C -0.0000 0.6780(5) 0.6956(4)
C11_7 C 0.0458(5) 0.7086(5) 0.7711(4)
H4_7 H 0.0777 0.7191 0.7877
C12_13 C -0.0000 0.7163(7) 0.7975(6)
H5_13 H -0.0000 0.7267 0.8335
C13_13 C -0.0000 0.6061(8) 0.6410(7)
H6_13 H 0.0000 0.5956 0.6045
H7_7 H 0.0310 0.5924 0.6581
O12_4 O 0.1889(3) 0.4455(3) 0.7709(2)
O13_4 O 0.2489(3) 0.4449(3) 0.7050(3)
O7_14 O 1.0000 0.6561(4) 0.6450(4)
C10_14 C 1.0000 0.6780(5) 0.6956(4)
C12_14 C 1.0000 0.7163(7) 0.7975(6)
H5_14 H 1.0000 0.7267 0.8335
C13_14 C 1.0000 0.6061(8) 0.6410(7)
H6_14 H 1.0000 0.5956 0.6045
O8_4 O 0.8111(3) 0.5545(3) 0.7709(2)
O9_4 O 0.7511(3) 0.5551(3) 0.7050(3)
O10_7 O 0.7762(2) 0.6715(3) 0.5559(3)
O11_7 O 0.8428(2) 0.7319(2) 0.5563(3)
C14_7 C 0.8251(3) 0.6122(4) 0.6998(4)
C15_7 C 0.8087(4) 0.6299(3) 0.6496(3)
H8_7 H 0.7780 0.6159 0.6331
C16_7 C 0.8396(3) 0.6696(3) 0.6243(3)
C17_7 C 0.8850(3) 0.6871(3) 0.6475(4)
H9_7 H 0.9062 0.7123 0.6296
C18_7 C 0.9005(4) 0.6692(4) 0.6960(4)
C19_7 C 0.8695(3) 0.6323(4) 0.7220(3)
H10_7 H 0.8797 0.6207 0.7562
C20_7 C 0.7947(4) 0.5702(3) 0.7277(3)
C21_7 C 0.8180(3) 0.6938(4) 0.5756(3)
C22_7 C 0.9511(4) 0.6866(4) 0.7218(4)
C23_7 C 0.9542(5) 0.7086(5) 0.7711(4)
H11_7 H 0.9223 0.7191 0.7877
H12_7 H 0.9690 0.5924 0.6581
O7_15 O 0.0000 0.3439(4) 0.6450(4)
C10_15 C -0.0000 0.3220(5) 0.6956(4)
C12_15 C -0.0000 0.2837(7) 0.7975(6)
H5_15 H -0.0000 0.2733 0.8335
C13_15 C -0.0000 0.3939(8) 0.6410(7)
H6_15 H -0.0000 0.4044 0.6045
O10_8 O 0.2238(2) 0.3285(3) 0.5559(3)
O11_8 O 0.1572(2) 0.2681(2) 0.5563(3)
C14_8 C 0.1749(3) 0.3878(4) 0.6998(4)
C15_8 C 0.1913(4) 0.3701(3) 0.6496(3)
H8_8 H 0.2220 0.3841 0.6331
C16_8 C 0.1604(3) 0.3304(3) 0.6243(3)
C17_8 C 0.1150(3) 0.3129(3) 0.6475(4)
H9_8 H 0.0938 0.2877 0.6296
C18_8 C 0.0995(4) 0.3308(4) 0.6960(4)
C19_8 C 0.1305(3) 0.3677(4) 0.7220(3)
H10_8 H 0.1203 0.3793 0.7562
C20_8 C 0.2053(4) 0.4298(3) 0.7277(3)
C21_8 C 0.1820(3) 0.3062(4) 0.5756(3)
C22_8 C 0.0489(4) 0.3134(4) 0.7218(4)
C23_8 C 0.0458(5) 0.2914(5) 0.7711(4)
H11_8 H 0.0777 0.2809 0.7877
H12_8 H 0.0310 0.4076 0.6581
O1_8 O 0.8321(5) 0.5000 0.8772(5)
O2_8 O 0.8111(3) 0.4455(3) 0.7709(2)
O3_8 O 0.7511(3) 0.4449(3) 0.7050(3)
O4_8 O 0.6504(8) 0.5000 0.6735(7)
O5_8 O 0.7762(2) 0.3285(3) 0.5559(3)
O6_8 O 0.8428(2) 0.2681(2) 0.5563(3)
O7_16 O 1.0000 0.3439(4) 0.6450(4)
C1_8 C 0.8251(3) 0.3878(4) 0.6998(4)
C2_8 C 0.8087(4) 0.3701(3) 0.6496(3)
H1_8 H 0.7780 0.3841 0.6331
C3_8 C 0.8396(3) 0.3304(3) 0.6243(3)
C4_8 C 0.8850(3) 0.3129(3) 0.6475(4)
H2_8 H 0.9062 0.2877 0.6296
C5_8 C 0.9005(4) 0.3308(4) 0.6960(4)
C6_8 C 0.8695(3) 0.3677(4) 0.7220(3)
H3_8 H 0.8797 0.3793 0.7562
C7_8 C 0.7947(4) 0.4298(3) 0.7277(3)
C8_8 C 0.8180(3) 0.3062(4) 0.5756(3)
C9_8 C 0.9511(4) 0.3134(4) 0.7218(4)
C10_16 C 1.0000 0.3220(5) 0.6956(4)
C11_8 C 0.9542(5) 0.2914(5) 0.7711(4)
H4_8 H 0.9223 0.2809 0.7877
C12_16 C 1.0000 0.2837(7) 0.7975(6)
H5_16 H 1.0000 0.2733 0.8335
C13_16 C 1.0000 0.3939(8) 0.6410(7)
H6_16 H 1.0000 0.4044 0.6045
H7_8 H 0.9690 0.4076 0.6581
O1_9 O 0.1228(5) 0.1679(5) 0.5000
O2_9 O 0.2291(2) 0.1889(3) 0.4455(3)
O3_9 O 0.2950(3) 0.2489(3) 0.4449(3)
O4_9 O 0.3265(7) 0.3496(8) 0.5000
O7_17 O 0.3550(4) -0.0000 0.3439(4)
C1_9 C 0.3002(4) 0.1749(3) 0.3878(4)
C2_9 C 0.3504(3) 0.1913(4) 0.3701(3)
H1_9 H 0.3669 0.2220 0.3841
C3_9 C 0.3757(3) 0.1604(3) 0.3304(3)
C4_9 C 0.3525(4) 0.1150(3) 0.3129(3)
H2_9 H 0.3704 0.0938 0.2877
C5_9 C 0.3040(4) 0.0995(4) 0.3308(4)
C6_9 C 0.2780(3) 0.1305(3) 0.3677(4)
H3_9 H 0.2438 0.1203 0.3793
C7_9 C 0.2723(3) 0.2053(4) 0.4298(3)
C8_9 C 0.4244(3) 0.1820(3) 0.3062(4)
C9_9 C 0.2782(4) 0.0489(4) 0.3134(4)
C10_17 C 0.3044(4) -0.0000 0.3220(5)
C11_9 C 0.2289(4) 0.0458(5) 0.2914(5)
H4_9 H 0.2123 0.0777 0.2809
C12_17 C 0.2025(6) 0.0000 0.2837(7)
H5_17 H 0.1665 0.0000 0.2733
C13_17 C 0.3590(7) -0.0000 0.3939(8)
H6_17 H 0.3955 -0.0000 0.4044
H7_9 H 0.3419 0.0310 0.4076
O12_5 O 0.2291(2) 0.1889(3) 0.5545(3)
O13_5 O 0.2950(3) 0.2489(3) 0.5551(3)
O7_18 O 0.3550(4) 1.0000 0.3439(4)
C10_18 C 0.3044(4) 1.0000 0.3220(5)
C12_18 C 0.2025(6) 1.0000 0.2837(7)
H5_18 H 0.1665 1.0000 0.2733
C13_18 C 0.3590(7) 1.0000 0.3939(8)
H6_18 H 0.3955 1.0000 0.4044
O8_5 O 0.2291(2) 0.8111(3) 0.4455(3)
O9_5 O 0.2950(3) 0.7511(3) 0.4449(3)
C14_9 C 0.3002(4) 0.8251(3) 0.3878(4)
C15_9 C 0.3504(3) 0.8087(4) 0.3701(3)
H8_9 H 0.3669 0.7780 0.3841
C16_9 C 0.3757(3) 0.8396(3) 0.3304(3)
C17_9 C 0.3525(4) 0.8850(3) 0.3129(3)
H9_9 H 0.3704 0.9062 0.2877
C18_9 C 0.3040(4) 0.9005(4) 0.3308(4)
C19_9 C 0.2780(3) 0.8695(3) 0.3677(4)
H10_9 H 0.2438 0.8797 0.3793
C20_9 C 0.2723(3) 0.7947(4) 0.4298(3)
C21_9 C 0.4244(3) 0.8180(3) 0.3062(4)
C22_9 C 0.2782(4) 0.9511(4) 0.3134(4)
C23_9 C 0.2289(4) 0.9542(5) 0.2914(5)
H11_9 H 0.2123 0.9223 0.2809
H12_9 H 0.3419 0.9690 0.4076
O7_19 O 0.3550(4) 0.0000 0.6561(4)
C10_19 C 0.3044(4) -0.0000 0.6780(5)
C12_19 C 0.2025(6) 0.0000 0.7163(7)
H5_19 H 0.1665 -0.0000 0.7267
C13_19 C 0.3590(7) -0.0000 0.6061(8)
H6_19 H 0.3955 0.0000 0.5956
C14_10 C 0.3002(4) 0.1749(3) 0.6122(4)
C15_10 C 0.3504(3) 0.1913(4) 0.6299(3)
H8_10 H 0.3669 0.2220 0.6159
C16_10 C 0.3757(3) 0.1604(3) 0.6696(3)
C17_10 C 0.3525(4) 0.1150(3) 0.6871(3)
H9_10 H 0.3704 0.0938 0.7123
C18_10 C 0.3040(4) 0.0995(4) 0.6692(4)
C19_10 C 0.2780(3) 0.1305(3) 0.6323(4)
H10_10 H 0.2438 0.1203 0.6207
C20_10 C 0.2723(3) 0.2053(4) 0.5702(3)
C21_10 C 0.4244(3) 0.1820(3) 0.6938(4)
C22_10 C 0.2782(4) 0.0489(4) 0.6866(4)
C23_10 C 0.2289(4) 0.0458(5) 0.7086(5)
H11_10 H 0.2123 0.0777 0.7191
H12_10 H 0.3419 0.0310 0.5924
O1_10 O 0.1228(5) 0.8321(5) 0.5000
O2_10 O 0.2291(2) 0.8111(3) 0.5545(3)
O3_10 O 0.2950(3) 0.7511(3) 0.5551(3)
O4_10 O 0.3265(7) 0.6504(8) 0.5000
O7_20 O 0.3550(4) 1.0000 0.6561(4)
C1_10 C 0.3002(4) 0.8251(3) 0.6122(4)
C2_10 C 0.3504(3) 0.8087(4) 0.6299(3)
H1_10 H 0.3669 0.7780 0.6159
C3_10 C 0.3757(3) 0.8396(3) 0.6696(3)
C4_10 C 0.3525(4) 0.8850(3) 0.6871(3)
H2_10 H 0.3704 0.9062 0.7123
C5_10 C 0.3040(4) 0.9005(4) 0.6692(4)
C6_10 C 0.2780(3) 0.8695(3) 0.6323(4)
H3_10 H 0.2438 0.8797 0.6207
C7_10 C 0.2723(3) 0.7947(4) 0.5702(3)
C8_10 C 0.4244(3) 0.8180(3) 0.6938(4)
C9_10 C 0.2782(4) 0.9511(4) 0.6866(4)
C10_20 C 0.3044(4) 1.0000 0.6780(5)
C11_10 C 0.2289(4) 0.9542(5) 0.7086(5)
H4_10 H 0.2123 0.9223 0.7191
C12_20 C 0.2025(6) 1.0000 0.7163(7)
H5_20 H 0.1665 1.0000 0.7267
C13_20 C 0.3590(7) 1.0000 0.6061(8)
H6_20 H 0.3955 1.0000 0.5956
H7_10 H 0.3419 0.9690 0.5924
O1_11 O 0.8772(5) 0.1679(5) 0.5000
O2_11 O 0.7709(2) 0.1889(3) 0.5545(3)
O3_11 O 0.7050(3) 0.2489(3) 0.5551(3)
O4_11 O 0.6735(7) 0.3496(8) 0.5000
O7_21 O 0.6450(4) 0.0000 0.6561(4)
C1_11 C 0.6998(4) 0.1749(3) 0.6122(4)
C2_11 C 0.6496(3) 0.1913(4) 0.6299(3)
H1_11 H 0.6331 0.2220 0.6159
C3_11 C 0.6243(3) 0.1604(3) 0.6696(3)
C4_11 C 0.6475(4) 0.1150(3) 0.6871(3)
H2_11 H 0.6296 0.0938 0.7123
C5_11 C 0.6960(4) 0.0995(4) 0.6692(4)
C6_11 C 0.7220(3) 0.1305(3) 0.6323(4)
H3_11 H 0.7562 0.1203 0.6207
C7_11 C 0.7277(3) 0.2053(4) 0.5702(3)
C8_11 C 0.5756(3) 0.1820(3) 0.6938(4)
C9_11 C 0.7218(4) 0.0489(4) 0.6866(4)
C10_21 C 0.6956(4) -0.0000 0.6780(5)
C11_11 C 0.7711(4) 0.0458(5) 0.7086(5)
H4_11 H 0.7877 0.0777 0.7191
C12_21 C 0.7975(6) 0.0000 0.7163(7)
H5_21 H 0.8335 -0.0000 0.7267
C13_21 C 0.6410(7) -0.0000 0.6061(8)
H6_21 H 0.6045 0.0000 0.5956
H7_11 H 0.6581 0.0310 0.5924
O12_6 O 0.7709(2) 0.1889(3) 0.4455(3)
O13_6 O 0.7050(3) 0.2489(3) 0.4449(3)
O7_22 O 0.6450(4) 1.0000 0.6561(4)
C10_22 C 0.6956(4) 1.0000 0.6780(5)
C12_22 C 0.7975(6) 1.0000 0.7163(7)
H5_22 H 0.8335 1.0000 0.7267
C13_22 C 0.6410(7) 1.0000 0.6061(8)
H6_22 H 0.6045 1.0000 0.5956
O8_6 O 0.7709(2) 0.8111(3) 0.5545(3)
O9_6 O 0.7050(3) 0.7511(3) 0.5551(3)
C14_11 C 0.6998(4) 0.8251(3) 0.6122(4)
C15_11 C 0.6496(3) 0.8087(4) 0.6299(3)
H8_11 H 0.6331 0.7780 0.6159
C16_11 C 0.6243(3) 0.8396(3) 0.6696(3)
C17_11 C 0.6475(4) 0.8850(3) 0.6871(3)
H9_11 H 0.6296 0.9062 0.7123
C18_11 C 0.6960(4) 0.9005(4) 0.6692(4)
C19_11 C 0.7220(3) 0.8695(3) 0.6323(4)
H10_11 H 0.7562 0.8797 0.6207
C20_11 C 0.7277(3) 0.7947(4) 0.5702(3)
C21_11 C 0.5756(3) 0.8180(3) 0.6938(4)
C22_11 C 0.7218(4) 0.9511(4) 0.6866(4)
C23_11 C 0.7711(4) 0.9542(5) 0.7086(5)
H11_11 H 0.7877 0.9223 0.7191
H12_11 H 0.6581 0.9690 0.5924
O7_23 O 0.6450(4) -0.0000 0.3439(4)
C10_23 C 0.6956(4) -0.0000 0.3220(5)
C12_23 C 0.7975(6) 0.0000 0.2837(7)
H5_23 H 0.8335 0.0000 0.2733
C13_23 C 0.6410(7) -0.0000 0.3939(8)
H6_23 H 0.6045 -0.0000 0.4044
C14_12 C 0.6998(4) 0.1749(3) 0.3878(4)
C15_12 C 0.6496(3) 0.1913(4) 0.3701(3)
H8_12 H 0.6331 0.2220 0.3841
C16_12 C 0.6243(3) 0.1604(3) 0.3304(3)
C17_12 C 0.6475(4) 0.1150(3) 0.3129(3)
H9_12 H 0.6296 0.0938 0.2877
C18_12 C 0.6960(4) 0.0995(4) 0.3308(4)
C19_12 C 0.7220(3) 0.1305(3) 0.3677(4)
H10_12 H 0.7562 0.1203 0.3793
C20_12 C 0.7277(3) 0.2053(4) 0.4298(3)
C21_12 C 0.5756(3) 0.1820(3) 0.3062(4)
C22_12 C 0.7218(4) 0.0489(4) 0.3134(4)
C23_12 C 0.7711(4) 0.0458(5) 0.2914(5)
H11_12 H 0.7877 0.0777 0.2809
H12_12 H 0.6581 0.0310 0.4076
O1_12 O 0.8772(5) 0.8321(5) 0.5000
O2_12 O 0.7709(2) 0.8111(3) 0.4455(3)
O3_12 O 0.7050(3) 0.7511(3) 0.4449(3)
O4_12 O 0.6735(7) 0.6504(8) 0.5000
O7_24 O 0.6450(4) 1.0000 0.3439(4)
C1_12 C 0.6998(4) 0.8251(3) 0.3878(4)
C2_12 C 0.6496(3) 0.8087(4) 0.3701(3)
H1_12 H 0.6331 0.7780 0.3841
C3_12 C 0.6243(3) 0.8396(3) 0.3304(3)
C4_12 C 0.6475(4) 0.8850(3) 0.3129(3)
H2_12 H 0.6296 0.9062 0.2877
C5_12 C 0.6960(4) 0.9005(4) 0.3308(4)
C6_12 C 0.7220(3) 0.8695(3) 0.3677(4)
H3_12 H 0.7562 0.8797 0.3793
C7_12 C 0.7277(3) 0.7947(4) 0.4298(3)
C8_12 C 0.5756(3) 0.8180(3) 0.3062(4)
C9_12 C 0.7218(4) 0.9511(4) 0.3134(4)
C10_24 C 0.6956(4) 1.0000 0.3220(5)
C11_12 C 0.7711(4) 0.9542(5) 0.2914(5)
H4_12 H 0.7877 0.9223 0.2809
C12_24 C 0.7975(6) 1.0000 0.2837(7)
H5_24 H 0.8335 1.0000 0.2733
C13_24 C 0.6410(7) 1.0000 0.3939(8)
H6_24 H 0.6045 1.0000 0.4044
H7_12 H 0.6581 0.9690 0.4076
loop_
_geom_bond_atom_site_label_1
_geom_bond_atom_site_label_2
_geom_bond_site_symmetry_1
_geom_bond_site_symmetry_2
Cu1 O1 1_555 1_555
Cu2 O3 1_555 1_555
O2 Cu1 1_555 1_555
O3 C7 1_555 1_555
O4 Cu2 1_555 1_555
O5 C8 1_555 1_555
O6 C8 1_555 1_555
O7 C10 1_555 1_555
C1 C2 1_555 1_555
C2 H1 1_555 1_555
C3 C2 1_555 1_555
C4 C3 1_555 1_555
H2 C4 1_555 1_555
C5 C4 1_555 1_555
C6 C1 1_555 1_555
H3 C6 1_555 1_555
C7 O2 1_555 1_555
C8 C3 1_555 1_555
C9 C5 1_555 1_555
C10 C9 1_555 1_555
C11 C9 1_555 1_555
H4 C11 1_555 1_555
C12 C11 1_555 1_555
H5 C12 1_555 1_555
C13 O7 1_555 1_555
H6 C13 1_555 1_555
H7 C13 1_555 1_555
Cu4 O6 1_555 1_555
Cu7 O5 1_555 1_555
O12 Cu1 1_555 1_555
O13 Cu2 1_555 1_555
O14 Cu2 1_555 1_555
O15 Cu2 1_555 1_555
O16 Cu1 1_555 1_555
O17 Cu1 1_555 1_555
C1 C7 1_555 1_555
C5 C6 1_555 1_555
O7_2 C10_2 1_555 1_555
H5_2 C12_2 1_555 1_555
C13_2 O7_2 1_555 1_555
H6_2 C13_2 1_555 1_555
O8 C20 1_555 1_555
O9 C20 1_555 1_555
O10 C21 1_555 1_555
O11 C21 1_555 1_555
C14 C15 1_555 1_555
C15 H8 1_555 1_555
C16 C15 1_555 1_555
C17 C16 1_555 1_555
H9 C17 1_555 1_555
C18 C17 1_555 1_555
C19 C14 1_555 1_555
H10 C19 1_555 1_555
C20 C14 1_555 1_555
C21 C16 1_555 1_555
C22 C10_2 1_555 1_555
C23 C12_2 1_555 1_555
H11 C23 1_555 1_555
H12 C13_2 1_555 1_555
Cu3 O8 1_555 1_555
Cu5 O11 1_555 1_555
Cu6 O9 1_555 1_555
Cu8 O10 1_555 1_555
C18 C19 1_555 1_555
C18 C22 1_555 1_555
C22 C23 1_555 1_555
Cu1_2 O1_2 1_555 1_555
Cu2_2 O3_2 1_555 1_555
O2_2 Cu1_2 1_555 1_555
O3_2 C7_2 1_555 1_555
O4_2 Cu2_2 1_555 1_555
O5_2 C8_2 1_555 1_555
O6_2 C8_2 1_555 1_555
O7_3 C10_3 1_555 1_555
C1_2 C2_2 1_555 1_555
C2_2 H1_2 1_555 1_555
C3_2 C2_2 1_555 1_555
C4_2 C3_2 1_555 1_555
H2_2 C4_2 1_555 1_555
C5_2 C4_2 1_555 1_555
C6_2 C1_2 1_555 1_555
H3_2 C6_2 1_555 1_555
C7_2 O2_2 1_555 1_555
C8_2 C3_2 1_555 1_555
C9_2 C5_2 1_555 1_555
C10_3 C9_2 1_555 1_555
C11_2 C9_2 1_555 1_555
H4_2 C11_2 1_555 1_555
C12_3 C11_2 1_555 1_555
H5_3 C12_3 1_555 1_555
C13_3 O7_3 1_555 1_555
H6_3 C13_3 1_555 1_555
H7_2 C13_3 1_555 1_555
Cu4_2 O6_2 1_555 1_555
Cu7_2 O5_2 1_555 1_555
O12_2 Cu1_2 1_555 1_555
O13_2 Cu2_2 1_555 1_555
O14_2 Cu2_2 1_555 1_555
O15_2 Cu2_2 1_555 1_555
O16_2 Cu1_2 1_555 1_555
O17_2 Cu1_2 1_555 1_555
C1_2 C7_2 1_555 1_555
C5_2 C6_2 1_555 1_555
O7_4 C10_4 1_555 1_555
H5_4 C12_4 1_555 1_555
C13_4 O7_4 1_555 1_555
H6_4 C13_4 1_555 1_555
O8_2 C20_2 1_555 1_555
O9_2 C20_2 1_555 1_555
O10_2 C21_2 1_555 1_555
O11_2 C21_2 1_555 1_555
C14_2 C15_2 1_555 1_555
C15_2 H8_2 1_555 1_555
C16_2 C15_2 1_555 1_555
C17_2 C16_2 1_555 1_555
H9_2 C17_2 1_555 1_555
C18_2 C17_2 1_555 1_555
C19_2 C14_2 1_555 1_555
H10_2 C19_2 1_555 1_555
C20_2 C14_2 1_555 1_555
C21_2 C16_2 1_555 1_555
C22_2 C10_4 1_555 1_555
C23_2 C12_4 1_555 1_555
H11_2 C23_2 1_555 1_555
H12_2 C13_4 1_555 1_555
Cu3_2 O8_2 1_555 1_555
Cu5_2 O11_2 1_555 1_555
Cu6_2 O9_2 1_555 1_555
Cu8_2 O10_2 1_555 1_555
C18_2 C19_2 1_555 1_555
C18_2 C22_2 1_555 1_555
C22_2 C23_2 1_555 1_555
O7_5 C10_5 1_555 1_555
H5_5 C12_5 1_555 1_555
C13_5 O7_5 1_555 1_555
H6_5 C13_5 1_555 1_555
O12_2 C20_3 1_555 1_555
O13_2 C20_3 1_555 1_555
O10_3 C21_3 1_555 1_555
O11_3 C21_3 1_555 1_555
C14_3 C15_3 1_555 1_555
C15_3 H8_3 1_555 1_555
C16_3 C15_3 1_555 1_555
C17_3 C16_3 1_555 1_555
H9_3 C17_3 1_555 1_555
C18_3 C17_3 1_555 1_555
C19_3 C14_3 1_555 1_555
H10_3 C19_3 1_555 1_555
C20_3 C14_3 1_555 1_555
C21_3 C16_3 1_555 1_555
C22_3 C10_5 1_555 1_555
C23_3 C12_5 1_555 1_555
H11_3 C23_3 1_555 1_555
H12_3 C13_5 1_555 1_555
Cu4 O11_3 1_555 1_555
Cu7 O10_3 1_555 1_555
C18_3 C19_3 1_555 1_555
C18_3 C22_3 1_555 1_555
C22_3 C23_3 1_555 1_555
Cu3_2 O1_3 1_555 1_555
Cu6_2 O3_3 1_555 1_555
O2_3 Cu3_2 1_555 1_555
O3_3 C7_3 1_555 1_555
O4_3 Cu6_2 1_555 1_555
O5_3 C8_3 1_555 1_555
O6_3 C8_3 1_555 1_555
O7_6 C10_6 1_555 1_555
C1_3 C2_3 1_555 1_555
C2_3 H1_3 1_555 1_555
C3_3 C2_3 1_555 1_555
C4_3 C3_3 1_555 1_555
H2_3 C4_3 1_555 1_555
C5_3 C4_3 1_555 1_555
C6_3 C1_3 1_555 1_555
H3_3 C6_3 1_555 1_555
C7_3 O2_3 1_555 1_555
C8_3 C3_3 1_555 1_555
C9_3 C5_3 1_555 1_555
C10_6 C9_3 1_555 1_555
C11_3 C9_3 1_555 1_555
H4_3 C11_3 1_555 1_555
C12_6 C11_3 1_555 1_555
H5_6 C12_6 1_555 1_555
C13_6 O7_6 1_555 1_555
H6_6 C13_6 1_555 1_555
H7_3 C13_6 1_555 1_555
Cu5 O6_3 1_555 1_555
Cu8 O5_3 1_555 1_555
O14_3 Cu6_2 1_555 1_555
O15_3 Cu6_2 1_555 1_555
O16_3 Cu3_2 1_555 1_555
O17_3 Cu3_2 1_555 1_555
C1_3 C7_3 1_555 1_555
C5_3 C6_3 1_555 1_555
O7_7 C10_7 1_555 1_555
H5_7 C12_7 1_555 1_555
C13_7 O7_7 1_555 1_555
H6_7 C13_7 1_555 1_555
O12 C20_4 1_555 1_555
O13 C20_4 1_555 1_555
O10_4 C21_4 1_555 1_555
O11_4 C21_4 1_555 1_555
C14_4 C15_4 1_555 1_555
C15_4 H8_4 1_555 1_555
C16_4 C15_4 1_555 1_555
C17_4 C16_4 1_555 1_555
H9_4 C17_4 1_555 1_555
C18_4 C17_4 1_555 1_555
C19_4 C14_4 1_555 1_555
H10_4 C19_4 1_555 1_555
C20_4 C14_4 1_555 1_555
C21_4 C16_4 1_555 1_555
C22_4 C10_7 1_555 1_555
C23_4 C12_7 1_555 1_555
H11_4 C23_4 1_555 1_555
H12_4 C13_7 1_555 1_555
Cu4_2 O11_4 1_555 1_555
Cu7_2 O10_4 1_555 1_555
C18_4 C19_4 1_555 1_555
C18_4 C22_4 1_555 1_555
C22_4 C23_4 1_555 1_555
Cu3 O1_4 1_555 1_555
Cu6 O3_4 1_555 1_555
O2_4 Cu3 1_555 1_555
O3_4 C7_4 1_555 1_555
O4_4 Cu6 1_555 1_555
O5_4 C8_4 1_555 1_555
O6_4 C8_4 1_555 1_555
O7_8 C10_8 1_555 1_555
C1_4 C2_4 1_555 1_555
C2_4 H1_4 1_555 1_555
C3_4 C2_4 1_555 1_555
C4_4 C3_4 1_555 1_555
H2_4 C4_4 1_555 1_555
C5_4 C4_4 1_555 1_555
C6_4 C1_4 1_555 1_555
H3_4 C6_4 1_555 1_555
C7_4 O2_4 1_555 1_555
C8_4 C3_4 1_555 1_555
C9_4 C5_4 1_555 1_555
C10_8 C9_4 1_555 1_555
C11_4 C9_4 1_555 1_555
H4_4 C11_4 1_555 1_555
C12_8 C11_4 1_555 1_555
H5_8 C12_8 1_555 1_555
C13_8 O7_8 1_555 1_555
H6_8 C13_8 1_555 1_555
H7_4 C13_8 1_555 1_555
Cu5_2 O6_4 1_555 1_555
Cu8_2 O5_4 1_555 1_555
O14_4 Cu6 1_555 1_555
O15_4 Cu6 1_555 1_555
O16_4 Cu3 1_555 1_555
O17_4 Cu3 1_555 1_555
C1_4 C7_4 1_555 1_555
C5_4 C6_4 1_555 1_555
Cu4 O1_5 1_555 1_555
Cu7 O3_5 1_555 1_555
O2_5 Cu4 1_555 1_555
O3_5 C7_5 1_555 1_555
O4_5 Cu7 1_555 1_555
O5_5 C8_5 1_555 1_555
O6_5 C8_5 1_555 1_555
O7_9 C10_9 1_555 1_555
C1_5 C2_5 1_555 1_555
C2_5 H1_5 1_555 1_555
C3_5 C2_5 1_555 1_555
C4_5 C3_5 1_555 1_555
H2_5 C4_5 1_555 1_555
C5_5 C4_5 1_555 1_555
C6_5 C1_5 1_555 1_555
H3_5 C6_5 1_555 1_555
C7_5 O2_5 1_555 1_555
C8_5 C3_5 1_555 1_555
C9_5 C5_5 1_555 1_555
C10_9 C9_5 1_555 1_555
C11_5 C9_5 1_555 1_555
H4_5 C11_5 1_555 1_555
C12_9 C11_5 1_555 1_555
H5_9 C12_9 1_555 1_555
C13_9 O7_9 1_555 1_555
H6_9 C13_9 1_555 1_555
H7_5 C13_9 1_555 1_555
Cu4_3 O6_5 1_555 1_555
Cu7_3 O5_5 1_555 1_555
O12_3 Cu4 1_555 1_555
O13_3 Cu7 1_555 1_555
C1_5 C7_5 1_555 1_555
C5_5 C6_5 1_555 1_555
O7_10 C10_10 1_555 1_555
H5_10 C12_10 1_555 1_555
C13_10 O7_10 1_555 1_555
H6_10 C13_10 1_555 1_555
O8_3 C20_5 1_555 1_555
O9_3 C20_5 1_555 1_555
O10_5 C21_5 1_555 1_555
O11_5 C21_5 1_555 1_555
C14_5 C15_5 1_555 1_555
C15_5 H8_5 1_555 1_555
C16_5 C15_5 1_555 1_555
C17_5 C16_5 1_555 1_555
H9_5 C17_5 1_555 1_555
C18_5 C17_5 1_555 1_555
C19_5 C14_5 1_555 1_555
H10_5 C19_5 1_555 1_555
C20_5 C14_5 1_555 1_555
C21_5 C16_5 1_555 1_555
C22_5 C10_10 1_555 1_555
C23_5 C12_10 1_555 1_555
H11_5 C23_5 1_555 1_555
H12_5 C13_10 1_555 1_555
Cu4_2 O8_3 1_555 1_555
Cu5_3 O11_5 1_555 1_555
Cu7_2 O9_3 1_555 1_555
Cu8_3 O10_5 1_555 1_555
C18_5 C19_5 1_555 1_555
C18_5 C22_5 1_555 1_555
C22_5 C23_5 1_555 1_555
O7_11 C10_11 1_555 1_555
H5_11 C12_11 1_555 1_555
C13_11 O7_11 1_555 1_555
H6_11 C13_11 1_555 1_555
O12_3 C20_6 1_555 1_555
O13_3 C20_6 1_555 1_555
O10_6 C21_6 1_555 1_555
O11_6 C21_6 1_555 1_555
C14_6 C15_6 1_555 1_555
C15_6 H8_6 1_555 1_555
C16_6 C15_6 1_555 1_555
C17_6 C16_6 1_555 1_555
H9_6 C17_6 1_555 1_555
C18_6 C17_6 1_555 1_555
C19_6 C14_6 1_555 1_555
H10_6 C19_6 1_555 1_555
C20_6 C14_6 1_555 1_555
C21_6 C16_6 1_555 1_555
C22_6 C10_11 1_555 1_555
C23_6 C12_11 1_555 1_555
H11_6 C23_6 1_555 1_555
H12_6 C13_11 1_555 1_555
Cu5_4 O11_6 1_555 1_555
Cu8_4 O10_6 1_555 1_555
C18_6 C19_6 1_555 1_555
C18_6 C22_6 1_555 1_555
C22_6 C23_6 1_555 1_555
Cu4_2 O1_6 1_555 1_555
Cu7_2 O3_6 1_555 1_555
O2_6 Cu4_2 1_555 1_555
O3_6 C7_6 1_555 1_555
O4_6 Cu7_2 1_555 1_555
O5_6 C8_6 1_555 1_555
O6_6 C8_6 1_555 1_555
O7_12 C10_12 1_555 1_555
C1_6 C2_6 1_555 1_555
C2_6 H1_6 1_555 1_555
C3_6 C2_6 1_555 1_555
C4_6 C3_6 1_555 1_555
H2_6 C4_6 1_555 1_555
C5_6 C4_6 1_555 1_555
C6_6 C1_6 1_555 1_555
H3_6 C6_6 1_555 1_555
C7_6 O2_6 1_555 1_555
C8_6 C3_6 1_555 1_555
C9_6 C5_6 1_555 1_555
C10_12 C9_6 1_555 1_555
C11_6 C9_6 1_555 1_555
H4_6 C11_6 1_555 1_555
C12_12 C11_6 1_555 1_555
H5_12 C12_12 1_555 1_555
C13_12 O7_12 1_555 1_555
H6_12 C13_12 1_555 1_555
H7_6 C13_12 1_555 1_555
Cu4_4 O6_6 1_555 1_555
Cu7_4 O5_6 1_555 1_555
C1_6 C7_6 1_555 1_555
C5_6 C6_6 1_555 1_555
Cu5 O1_7 1_555 1_555
Cu8 O3_7 1_555 1_555
O2_7 Cu5 1_555 1_555
O3_7 C7_7 1_555 1_555
O4_7 Cu8 1_555 1_555
O5_7 C8_7 1_555 1_555
O6_7 C8_7 1_555 1_555
O7_13 C10_13 1_555 1_555
C1_7 C2_7 1_555 1_555
C2_7 H1_7 1_555 1_555
C3_7 C2_7 1_555 1_555
C4_7 C3_7 1_555 1_555
H2_7 C4_7 1_555 1_555
C5_7 C4_7 1_555 1_555
C6_7 C1_7 1_555 1_555
H3_7 C6_7 1_555 1_555
C7_7 O2_7 1_555 1_555
C8_7 C3_7 1_555 1_555
C9_7 C5_7 1_555 1_555
C10_13 C9_7 1_555 1_555
C11_7 C9_7 1_555 1_555
H4_7 C11_7 1_555 1_555
C12_13 C11_7 1_555 1_555
H5_13 C12_13 1_555 1_555
C13_13 O7_13 1_555 1_555
H6_13 C13_13 1_555 1_555
H7_7 C13_13 1_555 1_555
Cu5_4 O6_7 1_555 1_555
Cu8_4 O5_7 1_555 1_555
O12_4 Cu5 1_555 1_555
O13_4 Cu8 1_555 1_555
C1_7 C7_7 1_555 1_555
C5_7 C6_7 1_555 1_555
O7_14 C10_14 1_555 1_555
H5_14 C12_14 1_555 1_555
C13_14 O7_14 1_555 1_555
H6_14 C13_14 1_555 1_555
O8_4 C20_7 1_555 1_555
O9_4 C20_7 1_555 1_555
O10_7 C21_7 1_555 1_555
O11_7 C21_7 1_555 1_555
C14_7 C15_7 1_555 1_555
C15_7 H8_7 1_555 1_555
C16_7 C15_7 1_555 1_555
C17_7 C16_7 1_555 1_555
H9_7 C17_7 1_555 1_555
C18_7 C17_7 1_555 1_555
C19_7 C14_7 1_555 1_555
H10_7 C19_7 1_555 1_555
C20_7 C14_7 1_555 1_555
C21_7 C16_7 1_555 1_555
C22_7 C10_14 1_555 1_555
C23_7 C12_14 1_555 1_555
H11_7 C23_7 1_555 1_555
H12_7 C13_14 1_555 1_555
Cu5_2 O8_4 1_555 1_555
Cu4_4 O11_7 1_555 1_555
Cu8_2 O9_4 1_555 1_555
Cu7_4 O10_7 1_555 1_555
C18_7 C19_7 1_555 1_555
C18_7 C22_7 1_555 1_555
C22_7 C23_7 1_555 1_555
O7_15 C10_15 1_555 1_555
H5_15 C12_15 1_555 1_555
C13_15 O7_15 1_555 1_555
H6_15 C13_15 1_555 1_555
O12_4 C20_8 1_555 1_555
O13_4 C20_8 1_555 1_555
O10_8 C21_8 1_555 1_555
O11_8 C21_8 1_555 1_555
C14_8 C15_8 1_555 1_555
C15_8 H8_8 1_555 1_555
C16_8 C15_8 1_555 1_555
C17_8 C16_8 1_555 1_555
H9_8 C17_8 1_555 1_555
C18_8 C17_8 1_555 1_555
C19_8 C14_8 1_555 1_555
H10_8 C19_8 1_555 1_555
C20_8 C14_8 1_555 1_555
C21_8 C16_8 1_555 1_555
C22_8 C10_15 1_555 1_555
C23_8 C12_15 1_555 1_555
H11_8 C23_8 1_555 1_555
H12_8 C13_15 1_555 1_555
Cu4_3 O11_8 1_555 1_555
Cu7_3 O10_8 1_555 1_555
C18_8 C19_8 1_555 1_555
C18_8 C22_8 1_555 1_555
C22_8 C23_8 1_555 1_555
Cu5_2 O1_8 1_555 1_555
Cu8_2 O3_8 1_555 1_555
O2_8 Cu5_2 1_555 1_555
O3_8 C7_8 1_555 1_555
O4_8 Cu8_2 1_555 1_555
O5_8 C8_8 1_555 1_555
O6_8 C8_8 1_555 1_555
O7_16 C10_16 1_555 1_555
C1_8 C2_8 1_555 1_555
C2_8 H1_8 1_555 1_555
C3_8 C2_8 1_555 1_555
C4_8 C3_8 1_555 1_555
H2_8 C4_8 1_555 1_555
C5_8 C4_8 1_555 1_555
C6_8 C1_8 1_555 1_555
H3_8 C6_8 1_555 1_555
C7_8 O2_8 1_555 1_555
C8_8 C3_8 1_555 1_555
C9_8 C5_8 1_555 1_555
C10_16 C9_8 1_555 1_555
C11_8 C9_8 1_555 1_555
H4_8 C11_8 1_555 1_555
C12_16 C11_8 1_555 1_555
H5_16 C12_16 1_555 1_555
C13_16 O7_16 1_555 1_555
H6_16 C13_16 1_555 1_555
H7_8 C13_16 1_555 1_555
Cu5_3 O6_8 1_555 1_555
Cu8_3 O5_8 1_555 1_555
C1_8 C7_8 1_555 1_555
C5_8 C6_8 1_555 1_555
Cu4_3 O1_9 1_555 1_555
Cu7_3 O3_9 1_555 1_555
O2_9 Cu4_3 1_555 1_555
O3_9 C7_9 1_555 1_555
O4_9 Cu7_3 1_555 1_555
O14 C8_9 1_555 1_555
O16 C8_9 1_555 1_555
O7_17 C10_17 1_555 1_555
C1_9 C2_9 1_555 1_555
C2_9 H1_9 1_555 1_555
C3_9 C2_9 1_555 1_555
C4_9 C3_9 1_555 1_555
H2_9 C4_9 1_555 1_555
C5_9 C4_9 1_555 1_555
C6_9 C1_9 1_555 1_555
H3_9 C6_9 1_555 1_555
C7_9 O2_9 1_555 1_555
C8_9 C3_9 1_555 1_555
C9_9 C5_9 1_555 1_555
C10_17 C9_9 1_555 1_555
C11_9 C9_9 1_555 1_555
H4_9 C11_9 1_555 1_555
C12_17 C11_9 1_555 1_555
H5_17 C12_17 1_555 1_555
C13_17 O7_17 1_555 1_555
H6_17 C13_17 1_555 1_555
H7_9 C13_17 1_555 1_555
O12_5 Cu4_3 1_555 1_555
O13_5 Cu7_3 1_555 1_555
C1_9 C7_9 1_555 1_555
C5_9 C6_9 1_555 1_555
O7_18 C10_18 1_555 1_555
H5_18 C12_18 1_555 1_555
C13_18 O7_18 1_555 1_555
H6_18 C13_18 1_555 1_555
O8_5 C20_9 1_555 1_555
O9_5 C20_9 1_555 1_555
O15_2 C21_9 1_555 1_555
O17_2 C21_9 1_555 1_555
C14_9 C15_9 1_555 1_555
C15_9 H8_9 1_555 1_555
C16_9 C15_9 1_555 1_555
C17_9 C16_9 1_555 1_555
H9_9 C17_9 1_555 1_555
C18_9 C17_9 1_555 1_555
C19_9 C14_9 1_555 1_555
H10_9 C19_9 1_555 1_555
C20_9 C14_9 1_555 1_555
C21_9 C16_9 1_555 1_555
C22_9 C10_18 1_555 1_555
C23_9 C12_18 1_555 1_555
H11_9 C23_9 1_555 1_555
H12_9 C13_18 1_555 1_555
Cu5_4 O8_5 1_555 1_555
Cu8_4 O9_5 1_555 1_555
C18_9 C19_9 1_555 1_555
C18_9 C22_9 1_555 1_555
C22_9 C23_9 1_555 1_555
O7_19 C10_19 1_555 1_555
H5_19 C12_19 1_555 1_555
C13_19 O7_19 1_555 1_555
H6_19 C13_19 1_555 1_555
O12_5 C20_10 1_555 1_555
O13_5 C20_10 1_555 1_555
O15_4 C21_10 1_555 1_555
O17_4 C21_10 1_555 1_555
C14_10 C15_10 1_555 1_555
C15_10 H8_10 1_555 1_555
C16_10 C15_10 1_555 1_555
C17_10 C16_10 1_555 1_555
H9_10 C17_10 1_555 1_555
C18_10 C17_10 1_555 1_555
C19_10 C14_10 1_555 1_555
H10_10 C19_10 1_555 1_555
C20_10 C14_10 1_555 1_555
C21_10 C16_10 1_555 1_555
C22_10 C10_19 1_555 1_555
C23_10 C12_19 1_555 1_555
H11_10 C23_10 1_555 1_555
H12_10 C13_19 1_555 1_555
C18_10 C19_10 1_555 1_555
C18_10 C22_10 1_555 1_555
C22_10 C23_10 1_555 1_555
Cu5_4 O1_10 1_555 1_555
Cu8_4 O3_10 1_555 1_555
O2_10 Cu5_4 1_555 1_555
O3_10 C7_10 1_555 1_555
O4_10 Cu8_4 1_555 1_555
O14_3 C8_10 1_555 1_555
O16_3 C8_10 1_555 1_555
O7_20 C10_20 1_555 1_555
C1_10 C2_10 1_555 1_555
C2_10 H1_10 1_555 1_555
C3_10 C2_10 1_555 1_555
C4_10 C3_10 1_555 1_555
H2_10 C4_10 1_555 1_555
C5_10 C4_10 1_555 1_555
C6_10 C1_10 1_555 1_555
H3_10 C6_10 1_555 1_555
C7_10 O2_10 1_555 1_555
C8_10 C3_10 1_555 1_555
C9_10 C5_10 1_555 1_555
C10_20 C9_10 1_555 1_555
C11_10 C9_10 1_555 1_555
H4_10 C11_10 1_555 1_555
C12_20 C11_10 1_555 1_555
H5_20 C12_20 1_555 1_555
C13_20 O7_20 1_555 1_555
H6_20 C13_20 1_555 1_555
H7_10 C13_20 1_555 1_555
C1_10 C7_10 1_555 1_555
C5_10 C6_10 1_555 1_555
Cu5_3 O1_11 1_555 1_555
Cu8_3 O3_11 1_555 1_555
O2_11 Cu5_3 1_555 1_555
O3_11 C7_11 1_555 1_555
O4_11 Cu8_3 1_555 1_555
O14_4 C8_11 1_555 1_555
O16_4 C8_11 1_555 1_555
O7_21 C10_21 1_555 1_555
C1_11 C2_11 1_555 1_555
C2_11 H1_11 1_555 1_555
C3_11 C2_11 1_555 1_555
C4_11 C3_11 1_555 1_555
H2_11 C4_11 1_555 1_555
C5_11 C4_11 1_555 1_555
C6_11 C1_11 1_555 1_555
H3_11 C6_11 1_555 1_555
C7_11 O2_11 1_555 1_555
C8_11 C3_11 1_555 1_555
C9_11 C5_11 1_555 1_555
C10_21 C9_11 1_555 1_555
C11_11 C9_11 1_555 1_555
H4_11 C11_11 1_555 1_555
C12_21 C11_11 1_555 1_555
H5_21 C12_21 1_555 1_555
C13_21 O7_21 1_555 1_555
H6_21 C13_21 1_555 1_555
H7_11 C13_21 1_555 1_555
O12_6 Cu5_3 1_555 1_555
O13_6 Cu8_3 1_555 1_555
C1_11 C7_11 1_555 1_555
C5_11 C6_11 1_555 1_555
O7_22 C10_22 1_555 1_555
H5_22 C12_22 1_555 1_555
C13_22 O7_22 1_555 1_555
H6_22 C13_22 1_555 1_555
O8_6 C20_11 1_555 1_555
O9_6 C20_11 1_555 1_555
O15_3 C21_11 1_555 1_555
O17_3 C21_11 1_555 1_555
C14_11 C15_11 1_555 1_555
C15_11 H8_11 1_555 1_555
C16_11 C15_11 1_555 1_555
C17_11 C16_11 1_555 1_555
H9_11 C17_11 1_555 1_555
C18_11 C17_11 1_555 1_555
C19_11 C14_11 1_555 1_555
H10_11 C19_11 1_555 1_555
C20_11 C14_11 1_555 1_555
C21_11 C16_11 1_555 1_555
C22_11 C10_22 1_555 1_555
C23_11 C12_22 1_555 1_555
H11_11 C23_11 1_555 1_555
H12_11 C13_22 1_555 1_555
Cu4_4 O8_6 1_555 1_555
Cu7_4 O9_6 1_555 1_555
C18_11 C19_11 1_555 1_555
C18_11 C22_11 1_555 1_555
C22_11 C23_11 1_555 1_555
O7_23 C10_23 1_555 1_555
H5_23 C12_23 1_555 1_555
C13_23 O7_23 1_555 1_555
H6_23 C13_23 1_555 1_555
O12_6 C20_12 1_555 1_555
O13_6 C20_12 1_555 1_555
O15 C21_12 1_555 1_555
O17 C21_12 1_555 1_555
C14_12 C15_12 1_555 1_555
C15_12 H8_12 1_555 1_555
C16_12 C15_12 1_555 1_555
C17_12 C16_12 1_555 1_555
H9_12 C17_12 1_555 1_555
C18_12 C17_12 1_555 1_555
C19_12 C14_12 1_555 1_555
H10_12 C19_12 1_555 1_555
C20_12 C14_12 1_555 1_555
C21_12 C16_12 1_555 1_555
C22_12 C10_23 1_555 1_555
C23_12 C12_23 1_555 1_555
H11_12 C23_12 1_555 1_555
H12_12 C13_23 1_555 1_555
C18_12 C19_12 1_555 1_555
C18_12 C22_12 1_555 1_555
C22_12 C23_12 1_555 1_555
Cu4_4 O1_12 1_555 1_555
Cu7_4 O3_12 1_555 1_555
O2_12 Cu4_4 1_555 1_555
O3_12 C7_12 1_555 1_555
O4_12 Cu7_4 1_555 1_555
O14_2 C8_12 1_555 1_555
O16_2 C8_12 1_555 1_555
O7_24 C10_24 1_555 1_555
C1_12 C2_12 1_555 1_555
C2_12 H1_12 1_555 1_555
C3_12 C2_12 1_555 1_555
C4_12 C3_12 1_555 1_555
H2_12 C4_12 1_555 1_555
C5_12 C4_12 1_555 1_555
C6_12 C1_12 1_555 1_555
H3_12 C6_12 1_555 1_555
C7_12 O2_12 1_555 1_555
C8_12 C3_12 1_555 1_555
C9_12 C5_12 1_555 1_555
C10_24 C9_12 1_555 1_555
C11_12 C9_12 1_555 1_555
H4_12 C11_12 1_555 1_555
C12_24 C11_12 1_555 1_555
H5_24 C12_24 1_555 1_555
C13_24 O7_24 1_555 1_555
H6_24 C13_24 1_555 1_555
H7_12 C13_24 1_555 1_555
C1_12 C7_12 1_555 1_555
C5_12 C6_12 1_555 1_555

#END
