
###############################################################################
#
# This file contains modified crystal structure data generated from the
# MOF subset of the Cambridge Structural Database (CSD) v543 
# hosted by the Cambridge Crystallographic Data Centre (CCDC).
#
# This work is licensed under the Creative Commons
# Attribution-NonCommercial-ShareAlike 4.0 International License.
# To view a copy of this license, visit
# http://creativecommons.org/licenses/by-nc-sa/4.0/
# or send a letter to
# Creative Commons, PO Box 1866, Mountain View, CA 94042, USA.
#
# CIF created using the CSD Python API on 29 September 2022
# The structure has been converted into the P1 space group
# The structure has a 3D framework
# The original CSD entry GOVKOU is in the tetragonal crystal system
# The framework has been calculated to contain at least 10.0% void space
# The void calculation uses a probe of radius 1.32A, grid spacing 0.4
# The framework is charged, counterions have been retained in the structure
# H atom positions have been added when not included in the experimental data
#
###############################################################################

data_GOVKOU
_chemical_formula_moiety         '(C96 H384 N48 O144 P32 Zn24 16+)n'
_symmetry_cell_setting           triclinic
_symmetry_space_group_name_H-M   'P 1'
_symmetry_Int_Tables_number      1
_space_group_name_Hall           'P 1'
loop_
_symmetry_equiv_pos_site_id
_symmetry_equiv_pos_as_xyz
1 x,y,z
_cell_length_a                   22.3019(17)
_cell_length_b                   22.3019(17)
_cell_length_c                   17.7384(11)
_cell_angle_alpha                90
_cell_angle_beta                 90
_cell_angle_gamma                90
_cell_volume                     8822.63
loop_
_atom_site_label
_atom_site_type_symbol
_atom_site_fract_x
_atom_site_fract_y
_atom_site_fract_z
C1 C 0.3057(3) 0.2338(3) 0.1694(4)
C2 C 0.3031(3) 0.3018(3) 0.1788(4)
H1 H 0.3076 0.3205 0.1285
H2 H 0.2628 0.3127 0.1980
C3 C 0.3495(3) 0.3285(3) 0.2308(4)
H3 H 0.3896 0.3252 0.2073
H4 H 0.3501 0.3058 0.2787
O1 O 0.3853(2) 0.4313(2) 0.2956(3)
O2 O 0.3270(2) 0.4381(2) 0.1739(3)
O3 O 0.2658(3) 0.2133(2) 0.1256(3)
O4 O 0.2738(2) 0.4093(2) 0.2917(3)
O5 O 0.3410(3) 0.2026(2) 0.2047(4)
P1 P 0.33333(7) 0.40607(7) 0.24981(10)
Zn1 Zn 0.24965(4) 0.12812(3) 0.11433(4)
O6 O 0.1813(2) 0.1353(2) 0.0456(3)
O7 O 0.3119(2) 0.0770(2) 0.0761(3)
O8 O 0.2262(2) 0.0907(2) 0.2083(3)
Zn2 Zn 0.25035(4) 0.37188(3) 0.38567(4)
Zn3 Zn 0.37812(3) 0.49965(4) 0.36433(4)
Zn4 Zn 0.37812(3) 0.50035(4) 0.13567(4)
C1_2 C 0.6943(3) 0.2662(3) 0.1694(4)
C2_2 C 0.6969(3) 0.1982(3) 0.1788(4)
H1_2 H 0.6924 0.1795 0.1285
H2_2 H 0.7372 0.1873 0.1980
C3_2 C 0.6505(3) 0.1715(3) 0.2308(4)
H3_2 H 0.6104 0.1748 0.2073
H4_2 H 0.6499 0.1942 0.2787
O1_2 O 0.6147(2) 0.0687(2) 0.2956(3)
O2_2 O 0.6730(2) 0.0619(2) 0.1739(3)
O3_2 O 0.7342(3) 0.2867(2) 0.1256(3)
O4_2 O 0.7262(2) 0.0907(2) 0.2917(3)
O5_2 O 0.6590(3) 0.2974(2) 0.2047(4)
P1_2 P 0.66667(7) 0.09393(7) 0.24981(10)
Zn1_2 Zn 0.75035(4) 0.37188(3) 0.11433(4)
O6_2 O 0.8187(2) 0.3647(2) 0.0456(3)
O7_2 O 0.6881(2) 0.4230(2) 0.0761(3)
O8_2 O 0.7738(2) 0.4093(2) 0.2083(3)
Zn2_2 Zn 0.74965(4) 0.12812(3) 0.38567(4)
Zn3_2 Zn 0.62188(3) 0.00035(4) 0.36433(4)
Zn4_2 Zn 0.62188(3) 0.99965(4) 0.13567(4)
C1_3 C 0.3057(3) 0.7662(3) 0.3306(4)
C2_3 C 0.3031(3) 0.6982(3) 0.3212(4)
H1_3 H 0.3076 0.6795 0.3715
H2_3 H 0.2628 0.6873 0.3020
C3_3 C 0.3495(3) 0.6715(3) 0.2692(4)
H3_3 H 0.3896 0.6748 0.2927
H4_3 H 0.3501 0.6942 0.2213
O1_3 O 0.3853(2) 0.5687(2) 0.2044(3)
O2_3 O 0.3270(2) 0.5619(2) 0.3261(3)
O3_3 O 0.2658(3) 0.7867(2) 0.3744(3)
O4_3 O 0.2738(2) 0.5907(2) 0.2083(3)
O5_3 O 0.3410(3) 0.7974(2) 0.2953(4)
P1_3 P 0.33333(7) 0.59393(7) 0.25019(10)
Zn1_3 Zn 0.24965(4) 0.87188(3) 0.38567(4)
O6_3 O 0.1813(2) 0.8647(2) 0.4544(3)
O7_3 O 0.3119(2) 0.9230(2) 0.4239(3)
O8_3 O 0.2262(2) 0.9093(2) 0.2917(3)
Zn2_3 Zn 0.25035(4) 0.62812(3) 0.11433(4)
C1_4 C 0.1943(3) 0.2338(3) 0.8306(4)
C2_4 C 0.1969(3) 0.3018(3) 0.8212(4)
H1_4 H 0.1924 0.3205 0.8715
H2_4 H 0.2372 0.3127 0.8020
C3_4 C 0.1505(3) 0.3285(3) 0.7692(4)
H3_4 H 0.1104 0.3252 0.7927
H4_4 H 0.1499 0.3058 0.7213
O1_4 O 0.1147(2) 0.4313(2) 0.7044(3)
O2_4 O 0.1730(2) 0.4381(2) 0.8261(3)
O3_4 O 0.2342(3) 0.2133(2) 0.8744(3)
O4_4 O 0.2262(2) 0.4093(2) 0.7083(3)
O5_4 O 0.1590(3) 0.2026(2) 0.7953(4)
P1_4 P 0.16667(7) 0.40607(7) 0.75019(10)
Zn1_4 Zn 0.25035(4) 0.12812(3) 0.88567(4)
O6_4 O 0.3187(2) 0.1353(2) 0.9544(3)
O7_4 O 0.1881(2) 0.0770(2) 0.9239(3)
O8_4 O 0.2738(2) 0.0907(2) 0.7917(3)
Zn2_4 Zn 0.24965(4) 0.37188(3) 0.61433(4)
Zn3_3 Zn 0.12188(3) 0.49965(4) 0.63567(4)
Zn4_3 Zn 0.12188(3) 0.50035(4) 0.86433(4)
Zn1_5 Zn 0.12188(3) 0.00035(4) 0.13567(4)
O6_5 O 0.1147(2) 0.0687(2) 0.2044(3)
O8_5 O 0.1593(2) 0.0238(2) 0.0417(3)
C1_5 C 0.0162(3) 0.9443(3) 0.0806(4)
O3_5 O 0.0367(2) 0.9842(3) 0.1244(3)
O5_5 O 0.0474(2) 0.9090(3) 0.0453(4)
O7_5 O 0.1730(2) 0.9381(2) 0.1739(3)
C2_5 C 0.9482(3) 0.9469(3) 0.0712(4)
H1_5 H 0.9295 0.9424 0.1215
H2_5 H 0.9373 0.9872 0.0520
C3_5 C 0.9215(3) 0.9005(3) 0.0192(4)
H3_5 H 0.9248 0.8604 0.0427
O2_5 O 0.8119(2) 0.9230(2) 0.0761(3)
P1_5 P 0.84393(7) 0.91667(7) 0.00019(10)
Zn4_4 Zn 0.74965(4) 0.87188(3) 0.11433(4)
H4_5 H 0.9442 0.8999 0.9713
O1_5 O 0.8187(2) 0.8647(2) 0.9544(3)
O4_5 O 0.8407(2) 0.9762(2) 0.9583(3)
Zn2_5 Zn 0.87812(3) 0.99965(4) 0.86433(4)
Zn3_4 Zn 0.75035(4) 0.87188(3) 0.88567(4)
C2_6 C 0.0518(3) 0.5531(3) 0.0712(4)
H1_6 H 0.0705 0.5576 0.1215
H2_6 H 0.0627 0.5128 0.0520
C3_6 C 0.0785(3) 0.5995(3) 0.0192(4)
H3_6 H 0.0752 0.6396 0.0427
O2_6 O 0.1881(2) 0.5770(2) 0.0761(3)
P1_6 P 0.15607(7) 0.58333(7) 0.00019(10)
H4_6 H 0.0558 0.6001 0.9713
O1_6 O 0.1813(2) 0.6353(2) 0.9544(3)
O4_6 O 0.1593(2) 0.5238(2) 0.9583(3)
Zn3_5 Zn 0.24965(4) 0.62812(3) 0.88567(4)
C1_6 C 0.9838(3) 0.5557(3) 0.0806(4)
O3_6 O 0.9633(2) 0.5158(3) 0.1244(3)
O5_6 O 0.9526(2) 0.5910(3) 0.0453(4)
Zn1_6 Zn 0.87812(3) 0.49965(4) 0.13567(4)
O6_6 O 0.8853(2) 0.4313(2) 0.2044(3)
O7_6 O 0.8270(2) 0.5619(2) 0.1739(3)
O8_6 O 0.8407(2) 0.4762(2) 0.0417(3)
Zn1_7 Zn 0.37812(3) 0.00035(4) 0.86433(4)
O6_7 O 0.3853(2) 0.0687(2) 0.7956(3)
O8_7 O 0.3407(2) 0.0238(2) 0.9583(3)
H4_7 H 0.5558 0.8999 0.0287
O1_7 O 0.6813(2) 0.8647(2) 0.0456(3)
O4_7 O 0.6593(2) 0.9762(2) 0.0417(3)
C1_7 C 0.4838(3) 0.9443(3) 0.9194(4)
C2_7 C 0.5518(3) 0.9469(3) 0.9288(4)
H1_7 H 0.5705 0.9424 0.8785
H2_7 H 0.5627 0.9872 0.9480
C3_7 C 0.5785(3) 0.9005(3) 0.9808(4)
H3_7 H 0.5752 0.8604 0.9573
O2_7 O 0.6881(2) 0.9230(2) 0.9239(3)
O3_7 O 0.4633(2) 0.9842(3) 0.8756(3)
O5_7 O 0.4526(2) 0.9090(3) 0.9547(4)
P1_7 P 0.65607(7) 0.91667(7) 0.99981(10)
O7_7 O 0.3270(2) 0.9381(2) 0.8261(3)
C1_8 C 0.0162(3) 0.0557(3) 0.4194(4)
O3_8 O 0.0367(2) 0.0158(3) 0.3756(3)
O5_8 O 0.0474(2) 0.0910(3) 0.4547(4)
O7_8 O 0.1730(2) 0.0619(2) 0.3261(3)
Zn1_8 Zn 0.12188(3) 0.99965(4) 0.36433(4)
O6_8 O 0.1147(2) 0.9313(2) 0.2956(3)
O8_8 O 0.1593(2) 0.9762(2) 0.4583(3)
C2_8 C 0.9482(3) 0.0531(3) 0.4288(4)
H1_8 H 0.9295 0.0576 0.3785
H2_8 H 0.9373 0.0128 0.4480
C3_8 C 0.9215(3) 0.0995(3) 0.4808(4)
H3_8 H 0.9248 0.1396 0.4573
H4_8 H 0.9442 0.1001 0.5287
O1_8 O 0.8187(2) 0.1353(2) 0.5456(3)
O2_8 O 0.8119(2) 0.0770(2) 0.4239(3)
O4_8 O 0.8407(2) 0.0238(2) 0.5417(3)
P1_8 P 0.84393(7) 0.08333(7) 0.49981(10)
Zn2_6 Zn 0.87812(3) 0.00035(4) 0.63567(4)
Zn3_6 Zn 0.75035(4) 0.12812(3) 0.61433(4)
C1_9 C 0.8057(3) 0.7338(3) 0.6694(4)
C2_9 C 0.8031(3) 0.8018(3) 0.6788(4)
H1_9 H 0.8076 0.8205 0.6285
H2_9 H 0.7628 0.8127 0.6980
C3_9 C 0.8495(3) 0.8285(3) 0.7308(4)
H3_9 H 0.8896 0.8252 0.7073
H4_9 H 0.8501 0.8058 0.7787
O1_9 O 0.8853(2) 0.9313(2) 0.7956(3)
O2_9 O 0.8270(2) 0.9381(2) 0.6739(3)
O3_9 O 0.7658(3) 0.7133(2) 0.6256(3)
O4_9 O 0.7738(2) 0.9093(2) 0.7917(3)
O5_9 O 0.8410(3) 0.7026(2) 0.7047(4)
P1_9 P 0.83333(7) 0.90607(7) 0.74981(10)
Zn1_9 Zn 0.74965(4) 0.62812(3) 0.61433(4)
O6_9 O 0.6813(2) 0.6353(2) 0.5456(3)
O7_9 O 0.8119(2) 0.5770(2) 0.5761(3)
O8_9 O 0.7262(2) 0.5907(2) 0.7083(3)
C1_10 C 0.1943(3) 0.7662(3) 0.6694(4)
C2_10 C 0.1969(3) 0.6982(3) 0.6788(4)
H1_10 H 0.1924 0.6795 0.6285
H2_10 H 0.2372 0.6873 0.6980
C3_10 C 0.1505(3) 0.6715(3) 0.7308(4)
H3_10 H 0.1104 0.6748 0.7073
H4_10 H 0.1499 0.6942 0.7787
O1_10 O 0.1147(2) 0.5687(2) 0.7956(3)
O2_10 O 0.1730(2) 0.5619(2) 0.6739(3)
O3_10 O 0.2342(3) 0.7867(2) 0.6256(3)
O4_10 O 0.2262(2) 0.5907(2) 0.7917(3)
O5_10 O 0.1590(3) 0.7974(2) 0.7047(4)
P1_10 P 0.16667(7) 0.59393(7) 0.74981(10)
Zn1_10 Zn 0.25035(4) 0.87188(3) 0.61433(4)
O6_10 O 0.3187(2) 0.8647(2) 0.5456(3)
O7_10 O 0.1881(2) 0.9230(2) 0.5761(3)
O8_10 O 0.2738(2) 0.9093(2) 0.7083(3)
C1_11 C 0.8057(3) 0.2662(3) 0.8306(4)
C2_11 C 0.8031(3) 0.1982(3) 0.8212(4)
H1_11 H 0.8076 0.1795 0.8715
H2_11 H 0.7628 0.1873 0.8020
C3_11 C 0.8495(3) 0.1715(3) 0.7692(4)
H3_11 H 0.8896 0.1748 0.7927
H4_11 H 0.8501 0.1942 0.7213
O1_11 O 0.8853(2) 0.0687(2) 0.7044(3)
O2_11 O 0.8270(2) 0.0619(2) 0.8261(3)
O3_11 O 0.7658(3) 0.2867(2) 0.8744(3)
O4_11 O 0.7738(2) 0.0907(2) 0.7083(3)
O5_11 O 0.8410(3) 0.2974(2) 0.7953(4)
P1_11 P 0.83333(7) 0.09393(7) 0.75019(10)
Zn1_11 Zn 0.74965(4) 0.37188(3) 0.88567(4)
O6_11 O 0.6813(2) 0.3647(2) 0.9544(3)
O7_11 O 0.8119(2) 0.4230(2) 0.9239(3)
O8_11 O 0.7262(2) 0.4093(2) 0.7917(3)
C1_12 C 0.6943(3) 0.7338(3) 0.3306(4)
C2_12 C 0.6969(3) 0.8018(3) 0.3212(4)
H1_12 H 0.6924 0.8205 0.3715
H2_12 H 0.7372 0.8127 0.3020
C3_12 C 0.6505(3) 0.8285(3) 0.2692(4)
H3_12 H 0.6104 0.8252 0.2927
H4_12 H 0.6499 0.8058 0.2213
O1_12 O 0.6147(2) 0.9313(2) 0.2044(3)
O2_12 O 0.6730(2) 0.9381(2) 0.3261(3)
O3_12 O 0.7342(3) 0.7133(2) 0.3744(3)
O4_12 O 0.7262(2) 0.9093(2) 0.2083(3)
O5_12 O 0.6590(3) 0.7026(2) 0.2953(4)
P1_12 P 0.66667(7) 0.90607(7) 0.25019(10)
Zn1_12 Zn 0.75035(4) 0.62812(3) 0.38567(4)
O6_12 O 0.8187(2) 0.6353(2) 0.4544(3)
O7_12 O 0.6881(2) 0.5770(2) 0.4239(3)
O8_12 O 0.7738(2) 0.5907(2) 0.2917(3)
C1_13 C 0.5162(3) 0.4443(3) 0.5806(4)
C2_13 C 0.4482(3) 0.4469(3) 0.5712(4)
H1_13 H 0.4295 0.4424 0.6215
H2_13 H 0.4373 0.4872 0.5520
C3_13 C 0.4215(3) 0.4005(3) 0.5192(4)
H3_13 H 0.4248 0.3604 0.5427
H4_13 H 0.4442 0.3999 0.4713
O1_13 O 0.3187(2) 0.3647(2) 0.4544(3)
O2_13 O 0.3119(2) 0.4230(2) 0.5761(3)
O3_13 O 0.5367(2) 0.4842(3) 0.6244(3)
O4_13 O 0.3407(2) 0.4762(2) 0.4583(3)
O5_13 O 0.5474(2) 0.4090(3) 0.5453(4)
P1_13 P 0.34393(7) 0.41667(7) 0.50019(10)
Zn1_13 Zn 0.62188(3) 0.50035(4) 0.63567(4)
O6_13 O 0.6147(2) 0.5687(2) 0.7044(3)
O7_13 O 0.6730(2) 0.4381(2) 0.6739(3)
O8_13 O 0.6593(2) 0.5238(2) 0.5417(3)
C1_14 C 0.4838(3) 0.0557(3) 0.5806(4)
C2_14 C 0.5518(3) 0.0531(3) 0.5712(4)
H1_14 H 0.5705 0.0576 0.6215
H2_14 H 0.5627 0.0128 0.5520
C3_14 C 0.5785(3) 0.0995(3) 0.5192(4)
H3_14 H 0.5752 0.1396 0.5427
H4_14 H 0.5558 0.1001 0.4713
O1_14 O 0.6813(2) 0.1353(2) 0.4544(3)
O2_14 O 0.6881(2) 0.0770(2) 0.5761(3)
O3_14 O 0.4633(2) 0.0158(3) 0.6244(3)
O4_14 O 0.6593(2) 0.0238(2) 0.4583(3)
O5_14 O 0.4526(2) 0.0910(3) 0.5453(4)
P1_14 P 0.65607(7) 0.08333(7) 0.50019(10)
O7_14 O 0.3270(2) 0.0619(2) 0.6739(3)
Zn1_14 Zn 0.37812(3) 0.99965(4) 0.63567(4)
O6_14 O 0.3853(2) 0.9313(2) 0.7044(3)
O8_14 O 0.3407(2) 0.9762(2) 0.5417(3)
C2_15 C 0.0518(3) 0.4469(3) 0.4288(4)
H1_15 H 0.0705 0.4424 0.3785
H2_15 H 0.0627 0.4872 0.4480
C3_15 C 0.0785(3) 0.4005(3) 0.4808(4)
H3_15 H 0.0752 0.3604 0.4573
H4_15 H 0.0558 0.3999 0.5287
O1_15 O 0.1813(2) 0.3647(2) 0.5456(3)
O2_15 O 0.1881(2) 0.4230(2) 0.4239(3)
O4_15 O 0.1593(2) 0.4762(2) 0.5417(3)
P1_15 P 0.15607(7) 0.41667(7) 0.49981(10)
C1_15 C 0.9838(3) 0.4443(3) 0.4194(4)
O3_15 O 0.9633(2) 0.4842(3) 0.3756(3)
O5_15 O 0.9526(2) 0.4090(3) 0.4547(4)
Zn1_15 Zn 0.87812(3) 0.50035(4) 0.36433(4)
O6_15 O 0.8853(2) 0.5687(2) 0.2956(3)
O7_15 O 0.8270(2) 0.4381(2) 0.3261(3)
O8_15 O 0.8407(2) 0.5238(2) 0.4583(3)
H4_16 H 0.4442 0.6001 0.0287
O1_16 O 0.3187(2) 0.6353(2) 0.0456(3)
O4_16 O 0.3407(2) 0.5238(2) 0.0417(3)
C1_16 C 0.5162(3) 0.5557(3) 0.9194(4)
C2_16 C 0.4482(3) 0.5531(3) 0.9288(4)
H1_16 H 0.4295 0.5576 0.8785
H2_16 H 0.4373 0.5128 0.9480
C3_16 C 0.4215(3) 0.5995(3) 0.9808(4)
H3_16 H 0.4248 0.6396 0.9573
O2_16 O 0.3119(2) 0.5770(2) 0.9239(3)
O3_16 O 0.5367(2) 0.5158(3) 0.8756(3)
O5_16 O 0.5474(2) 0.5910(3) 0.9547(4)
P1_16 P 0.34393(7) 0.58333(7) 0.99981(10)
Zn1_16 Zn 0.62188(3) 0.49965(4) 0.86433(4)
O6_16 O 0.6147(2) 0.4313(2) 0.7956(3)
O7_16 O 0.6730(2) 0.5619(2) 0.8261(3)
O8_16 O 0.6593(2) 0.4762(2) 0.9583(3)
C1_17 C 0.6943(3) 0.7662(3) 0.8306(4)
C2_17 C 0.6969(3) 0.6982(3) 0.8212(4)
H1_17 H 0.6924 0.6795 0.8715
H2_17 H 0.7372 0.6873 0.8020
C3_17 C 0.6505(3) 0.6715(3) 0.7692(4)
H3_17 H 0.6104 0.6748 0.7927
H4_17 H 0.6499 0.6942 0.7213
O3_17 O 0.7342(3) 0.7867(2) 0.8744(3)
O5_17 O 0.6590(3) 0.7974(2) 0.7953(4)
P1_17 P 0.66667(7) 0.59393(7) 0.75019(10)
C1_18 C 0.3057(3) 0.7338(3) 0.8306(4)
C2_18 C 0.3031(3) 0.8018(3) 0.8212(4)
H1_18 H 0.3076 0.8205 0.8715
H2_18 H 0.2628 0.8127 0.8020
C3_18 C 0.3495(3) 0.8285(3) 0.7692(4)
H3_18 H 0.3896 0.8252 0.7927
H4_18 H 0.3501 0.8058 0.7213
O3_18 O 0.2658(3) 0.7133(2) 0.8744(3)
O5_18 O 0.3410(3) 0.7026(2) 0.7953(4)
P1_18 P 0.33333(7) 0.90607(7) 0.75019(10)
C1_19 C 0.6943(3) 0.2338(3) 0.6694(4)
C2_19 C 0.6969(3) 0.3018(3) 0.6788(4)
H1_19 H 0.6924 0.3205 0.6285
H2_19 H 0.7372 0.3127 0.6980
C3_19 C 0.6505(3) 0.3285(3) 0.7308(4)
H3_19 H 0.6104 0.3252 0.7073
H4_19 H 0.6499 0.3058 0.7787
O3_19 O 0.7342(3) 0.2133(2) 0.6256(3)
O5_19 O 0.6590(3) 0.2026(2) 0.7047(4)
P1_19 P 0.66667(7) 0.40607(7) 0.74981(10)
C1_20 C 0.8057(3) 0.7662(3) 0.1694(4)
C2_20 C 0.8031(3) 0.6982(3) 0.1788(4)
H1_20 H 0.8076 0.6795 0.1285
H2_20 H 0.7628 0.6873 0.1980
C3_20 C 0.8495(3) 0.6715(3) 0.2308(4)
H3_20 H 0.8896 0.6748 0.2073
H4_20 H 0.8501 0.6942 0.2787
O3_20 O 0.7658(3) 0.7867(2) 0.1256(3)
O5_20 O 0.8410(3) 0.7974(2) 0.2047(4)
P1_20 P 0.83333(7) 0.59393(7) 0.24981(10)
H4_21 H 0.0558 0.1001 0.0287
C2_21 C 0.0518(3) 0.0531(3) 0.9288(4)
H1_21 H 0.0705 0.0576 0.8785
H2_21 H 0.0627 0.0128 0.9480
C3_21 C 0.0785(3) 0.0995(3) 0.9808(4)
H3_21 H 0.0752 0.1396 0.9573
P1_21 P 0.15607(7) 0.08333(7) 0.99981(10)
C1_21 C 0.9838(3) 0.0557(3) 0.9194(4)
O3_21 O 0.9633(2) 0.0158(3) 0.8756(3)
O5_21 O 0.9526(2) 0.0910(3) 0.9547(4)
C1_22 C 0.0162(3) 0.4443(3) 0.9194(4)
O3_22 O 0.0367(2) 0.4842(3) 0.8756(3)
O5_22 O 0.0474(2) 0.4090(3) 0.9547(4)
H4_22 H 0.9442 0.3999 0.0287
C2_22 C 0.9482(3) 0.4469(3) 0.9288(4)
H1_22 H 0.9295 0.4424 0.8785
H2_22 H 0.9373 0.4872 0.9480
C3_22 C 0.9215(3) 0.4005(3) 0.9808(4)
H3_22 H 0.9248 0.3604 0.9573
P1_22 P 0.84393(7) 0.41667(7) 0.99981(10)
C1_23 C 0.5162(3) 0.0557(3) 0.0806(4)
C2_23 C 0.4482(3) 0.0531(3) 0.0712(4)
H1_23 H 0.4295 0.0576 0.1215
H2_23 H 0.4373 0.0128 0.0520
C3_23 C 0.4215(3) 0.0995(3) 0.0192(4)
H3_23 H 0.4248 0.1396 0.0427
O3_23 O 0.5367(2) 0.0158(3) 0.1244(3)
O5_23 O 0.5474(2) 0.0910(3) 0.0453(4)
P1_23 P 0.34393(7) 0.08333(7) 0.00019(10)
H4_23 H 0.4442 0.1001 0.9713
C2_24 C 0.0518(3) 0.9469(3) 0.5712(4)
H1_24 H 0.0705 0.9424 0.6215
H2_24 H 0.0627 0.9872 0.5520
C3_24 C 0.0785(3) 0.9005(3) 0.5192(4)
H3_24 H 0.0752 0.8604 0.5427
H4_24 H 0.0558 0.8999 0.4713
P1_24 P 0.15607(7) 0.91667(7) 0.50019(10)
C1_24 C 0.9838(3) 0.9443(3) 0.5806(4)
O3_24 O 0.9633(2) 0.9842(3) 0.6244(3)
O5_24 O 0.9526(2) 0.9090(3) 0.5453(4)
C1_25 C 0.1943(3) 0.2662(3) 0.3306(4)
C2_25 C 0.1969(3) 0.1982(3) 0.3212(4)
H1_25 H 0.1924 0.1795 0.3715
H2_25 H 0.2372 0.1873 0.3020
C3_25 C 0.1505(3) 0.1715(3) 0.2692(4)
H3_25 H 0.1104 0.1748 0.2927
H4_25 H 0.1499 0.1942 0.2213
O3_25 O 0.2342(3) 0.2867(2) 0.3744(3)
O5_25 O 0.1590(3) 0.2974(2) 0.2953(4)
P1_25 P 0.16667(7) 0.09393(7) 0.25019(10)
C1_26 C 0.8057(3) 0.2338(3) 0.3306(4)
C2_26 C 0.8031(3) 0.3018(3) 0.3212(4)
H1_26 H 0.8076 0.3205 0.3715
H2_26 H 0.7628 0.3127 0.3020
C3_26 C 0.8495(3) 0.3285(3) 0.2692(4)
H3_26 H 0.8896 0.3252 0.2927
H4_26 H 0.8501 0.3058 0.2213
O3_26 O 0.7658(3) 0.2133(2) 0.3744(3)
O5_26 O 0.8410(3) 0.2026(2) 0.2953(4)
P1_26 P 0.83333(7) 0.40607(7) 0.25019(10)
C1_27 C 0.1943(3) 0.7338(3) 0.1694(4)
C2_27 C 0.1969(3) 0.8018(3) 0.1788(4)
H1_27 H 0.1924 0.8205 0.1285
H2_27 H 0.2372 0.8127 0.1980
C3_27 C 0.1505(3) 0.8285(3) 0.2308(4)
H3_27 H 0.1104 0.8252 0.2073
H4_27 H 0.1499 0.8058 0.2787
O3_27 O 0.2342(3) 0.7133(2) 0.1256(3)
O5_27 O 0.1590(3) 0.7026(2) 0.2047(4)
P1_27 P 0.16667(7) 0.90607(7) 0.24981(10)
C1_28 C 0.3057(3) 0.2662(3) 0.6694(4)
C2_28 C 0.3031(3) 0.1982(3) 0.6788(4)
H1_28 H 0.3076 0.1795 0.6285
H2_28 H 0.2628 0.1873 0.6980
C3_28 C 0.3495(3) 0.1715(3) 0.7308(4)
H3_28 H 0.3896 0.1748 0.7073
H4_28 H 0.3501 0.1942 0.7787
O3_28 O 0.2658(3) 0.2867(2) 0.6256(3)
O5_28 O 0.3410(3) 0.2974(2) 0.7047(4)
P1_28 P 0.33333(7) 0.09393(7) 0.74981(10)
C1_29 C 0.4838(3) 0.5557(3) 0.4194(4)
C2_29 C 0.5518(3) 0.5531(3) 0.4288(4)
H1_29 H 0.5705 0.5576 0.3785
H2_29 H 0.5627 0.5128 0.4480
C3_29 C 0.5785(3) 0.5995(3) 0.4808(4)
H3_29 H 0.5752 0.6396 0.4573
H4_29 H 0.5558 0.6001 0.5287
O3_29 O 0.4633(2) 0.5158(3) 0.3756(3)
O5_29 O 0.4526(2) 0.5910(3) 0.4547(4)
P1_29 P 0.65607(7) 0.58333(7) 0.49981(10)
C1_30 C 0.5162(3) 0.9443(3) 0.4194(4)
C2_30 C 0.4482(3) 0.9469(3) 0.4288(4)
H1_30 H 0.4295 0.9424 0.3785
H2_30 H 0.4373 0.9872 0.4480
C3_30 C 0.4215(3) 0.9005(3) 0.4808(4)
H3_30 H 0.4248 0.8604 0.4573
H4_30 H 0.4442 0.8999 0.5287
O3_30 O 0.5367(2) 0.9842(3) 0.3756(3)
O5_30 O 0.5474(2) 0.9090(3) 0.4547(4)
P1_30 P 0.34393(7) 0.91667(7) 0.49981(10)
C1_31 C 0.0162(3) 0.5557(3) 0.5806(4)
O3_31 O 0.0367(2) 0.5158(3) 0.6244(3)
O5_31 O 0.0474(2) 0.5910(3) 0.5453(4)
C2_31 C 0.9482(3) 0.5531(3) 0.5712(4)
H1_31 H 0.9295 0.5576 0.6215
H2_31 H 0.9373 0.5128 0.5520
C3_31 C 0.9215(3) 0.5995(3) 0.5192(4)
H3_31 H 0.9248 0.6396 0.5427
H4_31 H 0.9442 0.6001 0.4713
P1_31 P 0.84393(7) 0.58333(7) 0.50019(10)
C1_32 C 0.4838(3) 0.4443(3) 0.0806(4)
C2_32 C 0.5518(3) 0.4469(3) 0.0712(4)
H1_32 H 0.5705 0.4424 0.1215
H2_32 H 0.5627 0.4872 0.0520
C3_32 C 0.5785(3) 0.4005(3) 0.0192(4)
H3_32 H 0.5752 0.3604 0.0427
O3_32 O 0.4633(2) 0.4842(3) 0.1244(3)
O5_32 O 0.4526(2) 0.4090(3) 0.0453(4)
P1_32 P 0.65607(7) 0.41667(7) 0.00019(10)
H4_32 H 0.5558 0.3999 0.9713
N1 N 0.4672(14) 0.2285(15) 0.2062(18)
H5 H 0.512712 0.2285 0.2062
H6 H 0.452029 0.26566 0.179226
H7 H 0.452029 0.19134 0.179226
H8 H 0.452029 0.2285 0.260148
N1_2 N 0.5328(14) 0.2715(15) 0.2062(18)
H5_2 H 0.487288 0.2715 0.2062
H6_2 H 0.547971 0.23434 0.179226
H7_2 H 0.547971 0.30866 0.179226
H8_2 H 0.547971 0.2715 0.260148
N1_3 N 0.4672(14) 0.7715(15) 0.2938(18)
H5_3 H 0.512712 0.7715 0.2938
H6_3 H 0.452029 0.73434 0.320774
H7_3 H 0.452029 0.80866 0.320774
H8_3 H 0.452029 0.7715 0.239852
N1_4 N 0.0328(14) 0.2285(15) 0.7938(18)
H6_4 H 0.0479706 0.26566 0.820774
H7_4 H 0.0479706 0.19134 0.820774
H8_4 H 0.0479706 0.2285 0.739852
H5_4 H 0.987288 0.2285 0.7938
N1_5 N 0.0215(15) 0.7828(14) 0.0438(18)
H5_5 H 0.0215 0.737288 0.0438
H7_5 H 0.0586602 0.797971 0.070774
H8_5 H 0.0215 0.797971 0.989852
H6_5 H 0.98434 0.797971 0.070774
H6_6 H 0.0156602 0.702029 0.070774
N1_6 N 0.9785(15) 0.7172(14) 0.0438(18)
H5_6 H 0.9785 0.762712 0.0438
H7_6 H 0.94134 0.702029 0.070774
H8_6 H 0.9785 0.702029 0.989852
H8_7 H 0.4785 0.797971 0.010148
N1_7 N 0.4785(15) 0.7828(14) 0.9562(18)
H5_7 H 0.4785 0.737288 0.9562
H6_7 H 0.51566 0.797971 0.929226
H7_7 H 0.44134 0.797971 0.929226
N1_8 N 0.0215(15) 0.2172(14) 0.4562(18)
H5_8 H 0.0215 0.262712 0.4562
H7_8 H 0.0586602 0.202029 0.429226
H8_8 H 0.0215 0.202029 0.510148
H6_8 H 0.98434 0.202029 0.429226
H5_9 H 0.0127118 0.7285 0.7062
N1_9 N 0.9672(14) 0.7285(15) 0.7062(18)
H6_9 H 0.952029 0.76566 0.679226
H7_9 H 0.952029 0.69134 0.679226
H8_9 H 0.952029 0.7285 0.760148
N1_10 N 0.0328(14) 0.7715(15) 0.7062(18)
H6_10 H 0.0479706 0.73434 0.679226
H7_10 H 0.0479706 0.80866 0.679226
H8_10 H 0.0479706 0.7715 0.760148
H5_10 H 0.987288 0.7715 0.7062
H5_11 H 0.0127118 0.2715 0.7938
N1_11 N 0.9672(14) 0.2715(15) 0.7938(18)
H6_11 H 0.952029 0.23434 0.820774
H7_11 H 0.952029 0.30866 0.820774
H8_11 H 0.952029 0.2715 0.739852
N1_12 N 0.5328(14) 0.7285(15) 0.2938(18)
H5_12 H 0.487288 0.7285 0.2938
H6_12 H 0.547971 0.76566 0.320774
H7_12 H 0.547971 0.69134 0.320774
H8_12 H 0.547971 0.7285 0.239852
N1_13 N 0.5215(15) 0.2828(14) 0.5438(18)
H5_13 H 0.5215 0.237288 0.5438
H6_13 H 0.48434 0.297971 0.570774
H7_13 H 0.55866 0.297971 0.570774
H8_13 H 0.5215 0.297971 0.489852
N1_14 N 0.4785(15) 0.2172(14) 0.5438(18)
H5_14 H 0.4785 0.262712 0.5438
H6_14 H 0.51566 0.202029 0.570774
H7_14 H 0.44134 0.202029 0.570774
H8_14 H 0.4785 0.202029 0.489852
H6_15 H 0.0156602 0.297971 0.429226
N1_15 N 0.9785(15) 0.2828(14) 0.4562(18)
H5_15 H 0.9785 0.237288 0.4562
H7_15 H 0.94134 0.297971 0.429226
H8_15 H 0.9785 0.297971 0.510148
H8_16 H 0.5215 0.702029 0.010148
N1_16 N 0.5215(15) 0.7172(14) 0.9562(18)
H5_16 H 0.5215 0.762712 0.9562
H6_16 H 0.48434 0.702029 0.929226
H7_16 H 0.55866 0.702029 0.929226
N1_17 N 0.5328(14) 0.7715(15) 0.7938(18)
H5_17 H 0.487288 0.7715 0.7938
H6_17 H 0.547971 0.73434 0.820774
H7_17 H 0.547971 0.80866 0.820774
H8_17 H 0.547971 0.7715 0.739852
N1_18 N 0.4672(14) 0.7285(15) 0.7938(18)
H5_18 H 0.512712 0.7285 0.7938
H6_18 H 0.452029 0.76566 0.820774
H7_18 H 0.452029 0.69134 0.820774
H8_18 H 0.452029 0.7285 0.739852
N1_19 N 0.5328(14) 0.2285(15) 0.7062(18)
H5_19 H 0.487288 0.2285 0.7062
H6_19 H 0.547971 0.26566 0.679226
H7_19 H 0.547971 0.19134 0.679226
H8_19 H 0.547971 0.2285 0.760148
H5_20 H 0.0127118 0.7715 0.2062
N1_20 N 0.9672(14) 0.7715(15) 0.2062(18)
H6_20 H 0.952029 0.73434 0.179226
H7_20 H 0.952029 0.80866 0.179226
H8_20 H 0.952029 0.7715 0.260148
H6_21 H 0.0156602 0.202029 0.929226
H8_21 H 0.9785 0.202029 0.010148
N1_21 N 0.9785(15) 0.2172(14) 0.9562(18)
H5_21 H 0.9785 0.262712 0.9562
H7_21 H 0.94134 0.202029 0.929226
H8_22 H 0.0215 0.297971 0.010148
N1_22 N 0.0215(15) 0.2828(14) 0.9562(18)
H5_22 H 0.0215 0.237288 0.9562
H7_22 H 0.0586602 0.297971 0.929226
H6_22 H 0.98434 0.297971 0.929226
N1_23 N 0.5215(15) 0.2172(14) 0.0438(18)
H5_23 H 0.5215 0.262712 0.0438
H6_23 H 0.48434 0.202029 0.070774
H7_23 H 0.55866 0.202029 0.070774
H8_23 H 0.5215 0.202029 0.989852
H6_24 H 0.0156602 0.797971 0.570774
N1_24 N 0.9785(15) 0.7828(14) 0.5438(18)
H5_24 H 0.9785 0.737288 0.5438
H7_24 H 0.94134 0.797971 0.570774
H8_24 H 0.9785 0.797971 0.489852
N1_25 N 0.0328(14) 0.2715(15) 0.2938(18)
H6_25 H 0.0479706 0.23434 0.320774
H7_25 H 0.0479706 0.30866 0.320774
H8_25 H 0.0479706 0.2715 0.239852
H5_25 H 0.987288 0.2715 0.2938
H5_26 H 0.0127118 0.2285 0.2938
N1_26 N 0.9672(14) 0.2285(15) 0.2938(18)
H6_26 H 0.952029 0.26566 0.320774
H7_26 H 0.952029 0.19134 0.320774
H8_26 H 0.952029 0.2285 0.239852
N1_27 N 0.0328(14) 0.7285(15) 0.2062(18)
H6_27 H 0.0479706 0.76566 0.179226
H7_27 H 0.0479706 0.69134 0.179226
H8_27 H 0.0479706 0.7285 0.260148
H5_27 H 0.987288 0.7285 0.2062
N1_28 N 0.4672(14) 0.2715(15) 0.7062(18)
H5_28 H 0.512712 0.2715 0.7062
H6_28 H 0.452029 0.23434 0.679226
H7_28 H 0.452029 0.30866 0.679226
H8_28 H 0.452029 0.2715 0.760148
N1_29 N 0.4785(15) 0.7172(14) 0.4562(18)
H5_29 H 0.4785 0.762712 0.4562
H6_29 H 0.51566 0.702029 0.429226
H7_29 H 0.44134 0.702029 0.429226
H8_29 H 0.4785 0.702029 0.510148
N1_30 N 0.5215(15) 0.7828(14) 0.4562(18)
H5_30 H 0.5215 0.737288 0.4562
H6_30 H 0.48434 0.797971 0.429226
H7_30 H 0.55866 0.797971 0.429226
H8_30 H 0.5215 0.797971 0.510148
N1_31 N 0.0215(15) 0.7172(14) 0.5438(18)
H5_31 H 0.0215 0.762712 0.5438
H7_31 H 0.0586602 0.702029 0.570774
H8_31 H 0.0215 0.702029 0.489852
H6_31 H 0.98434 0.702029 0.570774
N1_32 N 0.4785(15) 0.2828(14) 0.0438(18)
H5_32 H 0.4785 0.237288 0.0438
H6_32 H 0.51566 0.297971 0.070774
H7_32 H 0.44134 0.297971 0.070774
H8_32 H 0.4785 0.297971 0.989852
N2 N 0.2923(6) 0.9577(6) 0.1250
H9 H 0.337812 0.9577 0.125
H10 H 0.277129 0.99486 0.098026
H11 H 0.277129 0.92054 0.098026
H12 H 0.277129 0.9577 0.178948
H9_2 H 0.2923 0.912188 0.125
H10_2 H 0.25514 0.972871 0.151974
H11_2 H 0.32946 0.972871 0.151974
H12_2 H 0.2923 0.972871 0.071052
N2_2 N 0.7077(6) 0.5423(6) 0.1250
H9_3 H 0.662188 0.5423 0.125
H10_3 H 0.722871 0.50514 0.098026
H11_3 H 0.722871 0.57946 0.098026
H12_3 H 0.722871 0.5423 0.178948
H9_4 H 0.7077 0.587812 0.125
H10_4 H 0.74486 0.527129 0.151974
H11_4 H 0.67054 0.527129 0.151974
H12_4 H 0.7077 0.527129 0.071052
N2_3 N 0.2923(6) 0.0423(6) 0.3750
H9_5 H 0.337812 0.0423 0.375
H10_5 H 0.277129 0.00513976 0.401974
H11_5 H 0.277129 0.0794602 0.401974
H12_5 H 0.277129 0.0423 0.321052
H9_6 H 0.2923 0.0878118 0.375
H10_6 H 0.25514 0.0271294 0.348026
H11_6 H 0.32946 0.0271294 0.348026
H12_6 H 0.2923 0.0271294 0.428948
N2_4 N 0.2077(6) 0.9577(6) 0.8750
H9_7 H 0.162188 0.9577 0.875
H10_7 H 0.222871 0.99486 0.901974
H11_7 H 0.222871 0.92054 0.901974
H12_7 H 0.222871 0.9577 0.821052
H9_8 H 0.2077 0.912188 0.875
H10_8 H 0.24486 0.972871 0.848026
H11_8 H 0.17054 0.972871 0.848026
H12_8 H 0.2077 0.972871 0.928948
N2_5 N 0.7923(6) 0.4577(6) 0.6250
H9_9 H 0.837812 0.4577 0.625
H10_9 H 0.777129 0.49486 0.598026
H11_9 H 0.777129 0.42054 0.598026
H12_9 H 0.777129 0.4577 0.678948
H9_10 H 0.7923 0.412188 0.625
H10_10 H 0.75514 0.472871 0.651974
H11_10 H 0.82946 0.472871 0.651974
H12_10 H 0.7923 0.472871 0.571052
N2_6 N 0.2077(6) 0.0423(6) 0.6250
H9_11 H 0.162188 0.0423 0.625
H10_11 H 0.222871 0.00513976 0.598026
H11_11 H 0.222871 0.0794602 0.598026
H12_11 H 0.222871 0.0423 0.678948
H9_12 H 0.2077 0.0878118 0.625
H10_12 H 0.24486 0.0271294 0.651974
H11_12 H 0.17054 0.0271294 0.651974
H12_12 H 0.2077 0.0271294 0.571052
N2_7 N 0.7923(6) 0.5423(6) 0.8750
H9_13 H 0.837812 0.5423 0.875
H10_13 H 0.777129 0.50514 0.901974
H11_13 H 0.777129 0.57946 0.901974
H12_13 H 0.777129 0.5423 0.821052
H9_14 H 0.7923 0.587812 0.875
H10_14 H 0.75514 0.527129 0.848026
H11_14 H 0.82946 0.527129 0.848026
H12_14 H 0.7923 0.527129 0.928948
N2_8 N 0.7077(6) 0.4577(6) 0.3750
H9_15 H 0.662188 0.4577 0.375
H10_15 H 0.722871 0.49486 0.401974
H11_15 H 0.722871 0.42054 0.401974
H12_15 H 0.722871 0.4577 0.321052
H9_16 H 0.7077 0.412188 0.375
H10_16 H 0.74486 0.472871 0.348026
H11_16 H 0.67054 0.472871 0.348026
H12_16 H 0.7077 0.472871 0.428948
N2_9 N 0.7077(6) 0.0423(6) 0.8750
H9_17 H 0.662188 0.0423 0.875
H10_17 H 0.722871 0.00513976 0.901974
H11_17 H 0.722871 0.0794602 0.901974
H12_17 H 0.722871 0.0423 0.821052
H9_18 H 0.7077 0.0878118 0.875
H10_18 H 0.74486 0.0271294 0.848026
H11_18 H 0.67054 0.0271294 0.848026
H12_18 H 0.7077 0.0271294 0.928948
N2_10 N 0.2923(6) 0.4577(6) 0.8750
H9_19 H 0.337812 0.4577 0.875
H10_19 H 0.277129 0.49486 0.901974
H11_19 H 0.277129 0.42054 0.901974
H12_19 H 0.277129 0.4577 0.821052
H9_20 H 0.2923 0.412188 0.875
H10_20 H 0.25514 0.472871 0.848026
H11_20 H 0.32946 0.472871 0.848026
H12_20 H 0.2923 0.472871 0.928948
N2_11 N 0.7077(6) 0.9577(6) 0.6250
H9_21 H 0.662188 0.9577 0.625
H10_21 H 0.722871 0.99486 0.598026
H11_21 H 0.722871 0.92054 0.598026
H12_21 H 0.722871 0.9577 0.678948
H9_22 H 0.7077 0.912188 0.625
H10_22 H 0.74486 0.972871 0.651974
H11_22 H 0.67054 0.972871 0.651974
H12_22 H 0.7077 0.972871 0.571052
N2_12 N 0.7923(6) 0.0423(6) 0.1250
H9_23 H 0.837812 0.0423 0.125
H10_23 H 0.777129 0.00513976 0.098026
H11_23 H 0.777129 0.0794602 0.098026
H12_23 H 0.777129 0.0423 0.178948
H9_24 H 0.7923 0.0878118 0.125
H10_24 H 0.75514 0.0271294 0.151974
H11_24 H 0.82946 0.0271294 0.151974
H12_24 H 0.7923 0.0271294 0.071052
N2_13 N 0.2077(6) 0.5423(6) 0.3750
H9_25 H 0.162188 0.5423 0.375
H10_25 H 0.222871 0.50514 0.401974
H11_25 H 0.222871 0.57946 0.401974
H12_25 H 0.222871 0.5423 0.321052
H9_26 H 0.2077 0.587812 0.375
H10_26 H 0.24486 0.527129 0.348026
H11_26 H 0.17054 0.527129 0.348026
H12_26 H 0.2077 0.527129 0.428948
N2_14 N 0.7923(6) 0.9577(6) 0.3750
H9_27 H 0.837812 0.9577 0.375
H10_27 H 0.777129 0.99486 0.401974
H11_27 H 0.777129 0.92054 0.401974
H12_27 H 0.777129 0.9577 0.321052
H9_28 H 0.7923 0.912188 0.375
H10_28 H 0.75514 0.972871 0.348026
H11_28 H 0.82946 0.972871 0.348026
H12_28 H 0.7923 0.972871 0.428948
N2_15 N 0.2077(6) 0.4577(6) 0.1250
H9_29 H 0.162188 0.4577 0.125
H10_29 H 0.222871 0.49486 0.098026
H11_29 H 0.222871 0.42054 0.098026
H12_29 H 0.222871 0.4577 0.178948
H9_30 H 0.2077 0.412188 0.125
H10_30 H 0.24486 0.472871 0.151974
H11_30 H 0.17054 0.472871 0.151974
H12_30 H 0.2077 0.472871 0.071052
N2_16 N 0.2923(6) 0.5423(6) 0.6250
H9_31 H 0.337812 0.5423 0.625
H10_31 H 0.277129 0.50514 0.598026
H11_31 H 0.277129 0.57946 0.598026
H12_31 H 0.277129 0.5423 0.678948
H9_32 H 0.2923 0.587812 0.625
H10_32 H 0.25514 0.527129 0.651974
H11_32 H 0.32946 0.527129 0.651974
H12_32 H 0.2923 0.527129 0.571052
loop_
_geom_bond_atom_site_label_1
_geom_bond_atom_site_label_2
_geom_bond_site_symmetry_1
_geom_bond_site_symmetry_2
C1 C2 1_555 1_555
C2 H1 1_555 1_555
H2 C2 1_555 1_555
C3 C2 1_555 1_555
H3 C3 1_555 1_555
H4 C3 1_555 1_555
O1 P1 1_555 1_555
O2 P1 1_555 1_555
O3 C1 1_555 1_555
O4 P1 1_555 1_555
O5 C1 1_555 1_555
P1 C3 1_555 1_555
Zn1 O3 1_555 1_555
O6 Zn1 1_555 1_555
O7 Zn1 1_555 1_555
O8 Zn1 1_555 1_555
Zn2 O4 1_555 1_555
Zn3 O1 1_555 1_555
Zn4 O2 1_555 1_555
C1_2 C2_2 1_555 1_555
C2_2 H1_2 1_555 1_555
H2_2 C2_2 1_555 1_555
C3_2 C2_2 1_555 1_555
H3_2 C3_2 1_555 1_555
H4_2 C3_2 1_555 1_555
O1_2 P1_2 1_555 1_555
O2_2 P1_2 1_555 1_555
O3_2 C1_2 1_555 1_555
O4_2 P1_2 1_555 1_555
O5_2 C1_2 1_555 1_555
P1_2 C3_2 1_555 1_555
Zn1_2 O3_2 1_555 1_555
O6_2 Zn1_2 1_555 1_555
O7_2 Zn1_2 1_555 1_555
O8_2 Zn1_2 1_555 1_555
Zn2_2 O4_2 1_555 1_555
Zn3_2 O1_2 1_555 1_555
C1_3 C2_3 1_555 1_555
C2_3 H1_3 1_555 1_555
H2_3 C2_3 1_555 1_555
C3_3 C2_3 1_555 1_555
H3_3 C3_3 1_555 1_555
H4_3 C3_3 1_555 1_555
O1_3 P1_3 1_555 1_555
O2_3 P1_3 1_555 1_555
O3_3 C1_3 1_555 1_555
O4_3 P1_3 1_555 1_555
O5_3 C1_3 1_555 1_555
P1_3 C3_3 1_555 1_555
Zn1_3 O3_3 1_555 1_555
O6_3 Zn1_3 1_555 1_555
O7_3 Zn1_3 1_555 1_555
O8_3 Zn1_3 1_555 1_555
Zn2_3 O4_3 1_555 1_555
Zn4 O1_3 1_555 1_555
Zn3 O2_3 1_555 1_555
C1_4 C2_4 1_555 1_555
C2_4 H1_4 1_555 1_555
H2_4 C2_4 1_555 1_555
C3_4 C2_4 1_555 1_555
H3_4 C3_4 1_555 1_555
H4_4 C3_4 1_555 1_555
O1_4 P1_4 1_555 1_555
O2_4 P1_4 1_555 1_555
O3_4 C1_4 1_555 1_555
O4_4 P1_4 1_555 1_555
O5_4 C1_4 1_555 1_555
P1_4 C3_4 1_555 1_555
Zn1_4 O3_4 1_555 1_555
O6_4 Zn1_4 1_555 1_555
O7_4 Zn1_4 1_555 1_555
O8_4 Zn1_4 1_555 1_555
Zn2_4 O4_4 1_555 1_555
Zn3_3 O1_4 1_555 1_555
Zn4_3 O2_4 1_555 1_555
O6_5 Zn1_5 1_555 1_555
O8_5 Zn1_5 1_555 1_555
O3_5 C1_5 1_555 1_555
O5_5 C1_5 1_555 1_555
C2_5 H1_5 1_555 1_555
H2_5 C2_5 1_555 1_555
C3_5 C2_5 1_555 1_555
H3_5 C3_5 1_555 1_555
O2_5 P1_5 1_555 1_555
P1_5 C3_5 1_555 1_555
Zn4_4 O2_5 1_555 1_555
Zn2_5 O4_5 1_555 1_555
Zn3_4 O1_5 1_555 1_555
C2_6 H1_6 1_555 1_555
H2_6 C2_6 1_555 1_555
C3_6 C2_6 1_555 1_555
H3_6 C3_6 1_555 1_555
O2_6 P1_6 1_555 1_555
P1_6 C3_6 1_555 1_555
Zn2_3 O2_6 1_555 1_555
Zn4_3 O4_6 1_555 1_555
Zn3_5 O1_6 1_555 1_555
O3_6 C1_6 1_555 1_555
O5_6 C1_6 1_555 1_555
Zn1_6 O3_6 1_555 1_555
O6_6 Zn1_6 1_555 1_555
O7_6 Zn1_6 1_555 1_555
O8_6 Zn1_6 1_555 1_555
O6_7 Zn1_7 1_555 1_555
O8_7 Zn1_7 1_555 1_555
Zn4_2 O4_7 1_555 1_555
Zn4_4 O1_7 1_555 1_555
C1_7 C2_7 1_555 1_555
C2_7 H1_7 1_555 1_555
H2_7 C2_7 1_555 1_555
C3_7 C2_7 1_555 1_555
H3_7 C3_7 1_555 1_555
O2_7 P1_7 1_555 1_555
O3_7 C1_7 1_555 1_555
O5_7 C1_7 1_555 1_555
P1_7 C3_7 1_555 1_555
Zn3_4 O2_7 1_555 1_555
O3_8 C1_8 1_555 1_555
O5_8 C1_8 1_555 1_555
O6_8 Zn1_8 1_555 1_555
O8_8 Zn1_8 1_555 1_555
C2_8 H1_8 1_555 1_555
H2_8 C2_8 1_555 1_555
C3_8 C2_8 1_555 1_555
H3_8 C3_8 1_555 1_555
H4_8 C3_8 1_555 1_555
O1_8 P1_8 1_555 1_555
O2_8 P1_8 1_555 1_555
O4_8 P1_8 1_555 1_555
P1_8 C3_8 1_555 1_555
Zn2_6 O4_8 1_555 1_555
Zn3_6 O1_8 1_555 1_555
Zn2_2 O2_8 1_555 1_555
C1_9 C2_9 1_555 1_555
C2_9 H1_9 1_555 1_555
H2_9 C2_9 1_555 1_555
C3_9 C2_9 1_555 1_555
H3_9 C3_9 1_555 1_555
H4_9 C3_9 1_555 1_555
O1_9 P1_9 1_555 1_555
O2_9 P1_9 1_555 1_555
O3_9 C1_9 1_555 1_555
O4_9 P1_9 1_555 1_555
O5_9 C1_9 1_555 1_555
P1_9 C3_9 1_555 1_555
Zn1_9 O3_9 1_555 1_555
O6_9 Zn1_9 1_555 1_555
O7_9 Zn1_9 1_555 1_555
O8_9 Zn1_9 1_555 1_555
Zn3_4 O4_9 1_555 1_555
Zn2_5 O1_9 1_555 1_555
C1_10 C2_10 1_555 1_555
C2_10 H1_10 1_555 1_555
H2_10 C2_10 1_555 1_555
C3_10 C2_10 1_555 1_555
H3_10 C3_10 1_555 1_555
H4_10 C3_10 1_555 1_555
O1_10 P1_10 1_555 1_555
O2_10 P1_10 1_555 1_555
O3_10 C1_10 1_555 1_555
O4_10 P1_10 1_555 1_555
O5_10 C1_10 1_555 1_555
P1_10 C3_10 1_555 1_555
Zn1_10 O3_10 1_555 1_555
O6_10 Zn1_10 1_555 1_555
O7_10 Zn1_10 1_555 1_555
O8_10 Zn1_10 1_555 1_555
Zn3_5 O4_10 1_555 1_555
Zn4_3 O1_10 1_555 1_555
Zn3_3 O2_10 1_555 1_555
C1_11 C2_11 1_555 1_555
C2_11 H1_11 1_555 1_555
H2_11 C2_11 1_555 1_555
C3_11 C2_11 1_555 1_555
H3_11 C3_11 1_555 1_555
H4_11 C3_11 1_555 1_555
O1_11 P1_11 1_555 1_555
O2_11 P1_11 1_555 1_555
O3_11 C1_11 1_555 1_555
O4_11 P1_11 1_555 1_555
O5_11 C1_11 1_555 1_555
P1_11 C3_11 1_555 1_555
Zn1_11 O3_11 1_555 1_555
O6_11 Zn1_11 1_555 1_555
O7_11 Zn1_11 1_555 1_555
O8_11 Zn1_11 1_555 1_555
Zn3_6 O4_11 1_555 1_555
Zn2_6 O1_11 1_555 1_555
C1_12 C2_12 1_555 1_555
C2_12 H1_12 1_555 1_555
H2_12 C2_12 1_555 1_555
C3_12 C2_12 1_555 1_555
H3_12 C3_12 1_555 1_555
H4_12 C3_12 1_555 1_555
O1_12 P1_12 1_555 1_555
O2_12 P1_12 1_555 1_555
O3_12 C1_12 1_555 1_555
O4_12 P1_12 1_555 1_555
O5_12 C1_12 1_555 1_555
P1_12 C3_12 1_555 1_555
Zn1_12 O3_12 1_555 1_555
O6_12 Zn1_12 1_555 1_555
O7_12 Zn1_12 1_555 1_555
O8_12 Zn1_12 1_555 1_555
Zn4_4 O4_12 1_555 1_555
Zn4_2 O1_12 1_555 1_555
C1_13 C2_13 1_555 1_555
C2_13 H1_13 1_555 1_555
H2_13 C2_13 1_555 1_555
C3_13 C2_13 1_555 1_555
H3_13 C3_13 1_555 1_555
H4_13 C3_13 1_555 1_555
O1_13 P1_13 1_555 1_555
O2_13 P1_13 1_555 1_555
O3_13 C1_13 1_555 1_555
O4_13 P1_13 1_555 1_555
O5_13 C1_13 1_555 1_555
P1_13 C3_13 1_555 1_555
Zn1_13 O3_13 1_555 1_555
O6_13 Zn1_13 1_555 1_555
O7_13 Zn1_13 1_555 1_555
O8_13 Zn1_13 1_555 1_555
Zn3 O4_13 1_555 1_555
Zn2 O1_13 1_555 1_555
Zn2_4 O2_13 1_555 1_555
C1_14 C2_14 1_555 1_555
C2_14 H1_14 1_555 1_555
H2_14 C2_14 1_555 1_555
C3_14 C2_14 1_555 1_555
H3_14 C3_14 1_555 1_555
H4_14 C3_14 1_555 1_555
O1_14 P1_14 1_555 1_555
O2_14 P1_14 1_555 1_555
O3_14 C1_14 1_555 1_555
O4_14 P1_14 1_555 1_555
O5_14 C1_14 1_555 1_555
P1_14 C3_14 1_555 1_555
Zn3_2 O4_14 1_555 1_555
Zn2_2 O1_14 1_555 1_555
Zn3_6 O2_14 1_555 1_555
O6_14 Zn1_14 1_555 1_555
O8_14 Zn1_14 1_555 1_555
C2_15 H1_15 1_555 1_555
H2_15 C2_15 1_555 1_555
C3_15 C2_15 1_555 1_555
H3_15 C3_15 1_555 1_555
H4_15 C3_15 1_555 1_555
O1_15 P1_15 1_555 1_555
O2_15 P1_15 1_555 1_555
O4_15 P1_15 1_555 1_555
P1_15 C3_15 1_555 1_555
Zn3_3 O4_15 1_555 1_555
Zn2_4 O1_15 1_555 1_555
Zn2 O2_15 1_555 1_555
O3_15 C1_15 1_555 1_555
O5_15 C1_15 1_555 1_555
Zn1_15 O3_15 1_555 1_555
O6_15 Zn1_15 1_555 1_555
O7_15 Zn1_15 1_555 1_555
O8_15 Zn1_15 1_555 1_555
Zn4 O4_16 1_555 1_555
Zn2_3 O1_16 1_555 1_555
C1_16 C2_16 1_555 1_555
C2_16 H1_16 1_555 1_555
H2_16 C2_16 1_555 1_555
C3_16 C2_16 1_555 1_555
H3_16 C3_16 1_555 1_555
O2_16 P1_16 1_555 1_555
O3_16 C1_16 1_555 1_555
O5_16 C1_16 1_555 1_555
P1_16 C3_16 1_555 1_555
Zn1_16 O3_16 1_555 1_555
O6_16 Zn1_16 1_555 1_555
O7_16 Zn1_16 1_555 1_555
O8_16 Zn1_16 1_555 1_555
Zn3_5 O2_16 1_555 1_555
C1_17 C2_17 1_555 1_555
C2_17 H1_17 1_555 1_555
H2_17 C2_17 1_555 1_555
C3_17 C2_17 1_555 1_555
H3_17 C3_17 1_555 1_555
H4_17 C3_17 1_555 1_555
O6_13 P1_17 1_555 1_555
O7_16 P1_17 1_555 1_555
O3_17 C1_17 1_555 1_555
O8_9 P1_17 1_555 1_555
O5_17 C1_17 1_555 1_555
P1_17 C3_17 1_555 1_555
Zn3_4 O3_17 1_555 1_555
C1_18 C2_18 1_555 1_555
C2_18 H1_18 1_555 1_555
H2_18 C2_18 1_555 1_555
C3_18 C2_18 1_555 1_555
H3_18 C3_18 1_555 1_555
H4_18 C3_18 1_555 1_555
O6_14 P1_18 1_555 1_555
O7_7 P1_18 1_555 1_555
O3_18 C1_18 1_555 1_555
O8_10 P1_18 1_555 1_555
O5_18 C1_18 1_555 1_555
P1_18 C3_18 1_555 1_555
Zn3_5 O3_18 1_555 1_555
C1_19 C2_19 1_555 1_555
C2_19 H1_19 1_555 1_555
H2_19 C2_19 1_555 1_555
C3_19 C2_19 1_555 1_555
H3_19 C3_19 1_555 1_555
H4_19 C3_19 1_555 1_555
O6_16 P1_19 1_555 1_555
O7_13 P1_19 1_555 1_555
O3_19 C1_19 1_555 1_555
O8_11 P1_19 1_555 1_555
O5_19 C1_19 1_555 1_555
P1_19 C3_19 1_555 1_555
Zn3_6 O3_19 1_555 1_555
C1_20 C2_20 1_555 1_555
C2_20 H1_20 1_555 1_555
H2_20 C2_20 1_555 1_555
C3_20 C2_20 1_555 1_555
H3_20 C3_20 1_555 1_555
H4_20 C3_20 1_555 1_555
O6_15 P1_20 1_555 1_555
O7_6 P1_20 1_555 1_555
O3_20 C1_20 1_555 1_555
O8_12 P1_20 1_555 1_555
O5_20 C1_20 1_555 1_555
P1_20 C3_20 1_555 1_555
Zn4_4 O3_20 1_555 1_555
C2_21 H1_21 1_555 1_555
H2_21 C2_21 1_555 1_555
C3_21 C2_21 1_555 1_555
H3_21 C3_21 1_555 1_555
O7_4 P1_21 1_555 1_555
P1_21 C3_21 1_555 1_555
O3_21 C1_21 1_555 1_555
O5_21 C1_21 1_555 1_555
O3_22 C1_22 1_555 1_555
O5_22 C1_22 1_555 1_555
Zn4_3 O3_22 1_555 1_555
C2_22 H1_22 1_555 1_555
H2_22 C2_22 1_555 1_555
C3_22 C2_22 1_555 1_555
H3_22 C3_22 1_555 1_555
O7_11 P1_22 1_555 1_555
P1_22 C3_22 1_555 1_555
C1_23 C2_23 1_555 1_555
C2_23 H1_23 1_555 1_555
H2_23 C2_23 1_555 1_555
C3_23 C2_23 1_555 1_555
H3_23 C3_23 1_555 1_555
O7 P1_23 1_555 1_555
O3_23 C1_23 1_555 1_555
O5_23 C1_23 1_555 1_555
P1_23 C3_23 1_555 1_555
C2_24 H1_24 1_555 1_555
H2_24 C2_24 1_555 1_555
C3_24 C2_24 1_555 1_555
H3_24 C3_24 1_555 1_555
H4_24 C3_24 1_555 1_555
O6_3 P1_24 1_555 1_555
O7_10 P1_24 1_555 1_555
O8_8 P1_24 1_555 1_555
P1_24 C3_24 1_555 1_555
O3_24 C1_24 1_555 1_555
O5_24 C1_24 1_555 1_555
C1_25 C2_25 1_555 1_555
C2_25 H1_25 1_555 1_555
H2_25 C2_25 1_555 1_555
C3_25 C2_25 1_555 1_555
H3_25 C3_25 1_555 1_555
H4_25 C3_25 1_555 1_555
O6_5 P1_25 1_555 1_555
O7_8 P1_25 1_555 1_555
O3_25 C1_25 1_555 1_555
O8 P1_25 1_555 1_555
O5_25 C1_25 1_555 1_555
P1_25 C3_25 1_555 1_555
Zn2 O3_25 1_555 1_555
C1_26 C2_26 1_555 1_555
C2_26 H1_26 1_555 1_555
H2_26 C2_26 1_555 1_555
C3_26 C2_26 1_555 1_555
H3_26 C3_26 1_555 1_555
H4_26 C3_26 1_555 1_555
O6_6 P1_26 1_555 1_555
O7_15 P1_26 1_555 1_555
O3_26 C1_26 1_555 1_555
O8_2 P1_26 1_555 1_555
O5_26 C1_26 1_555 1_555
P1_26 C3_26 1_555 1_555
Zn2_2 O3_26 1_555 1_555
C1_27 C2_27 1_555 1_555
C2_27 H1_27 1_555 1_555
H2_27 C2_27 1_555 1_555
C3_27 C2_27 1_555 1_555
H3_27 C3_27 1_555 1_555
H4_27 C3_27 1_555 1_555
O6_8 P1_27 1_555 1_555
O7_5 P1_27 1_555 1_555
O3_27 C1_27 1_555 1_555
O8_3 P1_27 1_555 1_555
O5_27 C1_27 1_555 1_555
P1_27 C3_27 1_555 1_555
Zn2_3 O3_27 1_555 1_555
C1_28 C2_28 1_555 1_555
C2_28 H1_28 1_555 1_555
H2_28 C2_28 1_555 1_555
C3_28 C2_28 1_555 1_555
H3_28 C3_28 1_555 1_555
H4_28 C3_28 1_555 1_555
O6_7 P1_28 1_555 1_555
O7_14 P1_28 1_555 1_555
O3_28 C1_28 1_555 1_555
O8_4 P1_28 1_555 1_555
O5_28 C1_28 1_555 1_555
P1_28 C3_28 1_555 1_555
Zn2_4 O3_28 1_555 1_555
C1_29 C2_29 1_555 1_555
C2_29 H1_29 1_555 1_555
H2_29 C2_29 1_555 1_555
C3_29 C2_29 1_555 1_555
H3_29 C3_29 1_555 1_555
H4_29 C3_29 1_555 1_555
O6_9 P1_29 1_555 1_555
O7_12 P1_29 1_555 1_555
O3_29 C1_29 1_555 1_555
O8_13 P1_29 1_555 1_555
O5_29 C1_29 1_555 1_555
P1_29 C3_29 1_555 1_555
Zn3 O3_29 1_555 1_555
C1_30 C2_30 1_555 1_555
C2_30 H1_30 1_555 1_555
H2_30 C2_30 1_555 1_555
C3_30 C2_30 1_555 1_555
H3_30 C3_30 1_555 1_555
H4_30 C3_30 1_555 1_555
O6_10 P1_30 1_555 1_555
O7_3 P1_30 1_555 1_555
O3_30 C1_30 1_555 1_555
O8_14 P1_30 1_555 1_555
O5_30 C1_30 1_555 1_555
P1_30 C3_30 1_555 1_555
O3_31 C1_31 1_555 1_555
O5_31 C1_31 1_555 1_555
Zn3_3 O3_31 1_555 1_555
C2_31 H1_31 1_555 1_555
H2_31 C2_31 1_555 1_555
C3_31 C2_31 1_555 1_555
H3_31 C3_31 1_555 1_555
H4_31 C3_31 1_555 1_555
O6_12 P1_31 1_555 1_555
O7_9 P1_31 1_555 1_555
O8_15 P1_31 1_555 1_555
P1_31 C3_31 1_555 1_555
C1_32 C2_32 1_555 1_555
C2_32 H1_32 1_555 1_555
H2_32 C2_32 1_555 1_555
C3_32 C2_32 1_555 1_555
H3_32 C3_32 1_555 1_555
O7_2 P1_32 1_555 1_555
O3_32 C1_32 1_555 1_555
O5_32 C1_32 1_555 1_555
P1_32 C3_32 1_555 1_555
Zn4 O3_32 1_555 1_555
N1 H5 1_555 1_555
N1 H6 1_555 1_555
N1 H7 1_555 1_555
N1 H8 1_555 1_555
N1_2 H5_2 1_555 1_555
N1_2 H6_2 1_555 1_555
N1_2 H7_2 1_555 1_555
N1_2 H8_2 1_555 1_555
N1_3 H5_3 1_555 1_555
N1_3 H6_3 1_555 1_555
N1_3 H7_3 1_555 1_555
N1_3 H8_3 1_555 1_555
N1_4 H6_4 1_555 1_555
N1_4 H7_4 1_555 1_555
N1_4 H8_4 1_555 1_555
N1_5 H5_5 1_555 1_555
N1_5 H7_5 1_555 1_555
N1_6 H5_6 1_555 1_555
N1_6 H7_6 1_555 1_555
N1_7 H5_7 1_555 1_555
N1_7 H6_7 1_555 1_555
N1_7 H7_7 1_555 1_555
N1_8 H5_8 1_555 1_555
N1_8 H7_8 1_555 1_555
N1_8 H8_8 1_555 1_555
N1_9 H6_9 1_555 1_555
N1_9 H7_9 1_555 1_555
N1_9 H8_9 1_555 1_555
N1_10 H6_10 1_555 1_555
N1_10 H7_10 1_555 1_555
N1_10 H8_10 1_555 1_555
N1_11 H6_11 1_555 1_555
N1_11 H7_11 1_555 1_555
N1_11 H8_11 1_555 1_555
N1_12 H5_12 1_555 1_555
N1_12 H6_12 1_555 1_555
N1_12 H7_12 1_555 1_555
N1_12 H8_12 1_555 1_555
N1_13 H5_13 1_555 1_555
N1_13 H6_13 1_555 1_555
N1_13 H7_13 1_555 1_555
N1_13 H8_13 1_555 1_555
N1_14 H5_14 1_555 1_555
N1_14 H6_14 1_555 1_555
N1_14 H7_14 1_555 1_555
N1_14 H8_14 1_555 1_555
N1_15 H5_15 1_555 1_555
N1_15 H7_15 1_555 1_555
N1_15 H8_15 1_555 1_555
N1_16 H5_16 1_555 1_555
N1_16 H6_16 1_555 1_555
N1_16 H7_16 1_555 1_555
N1_17 H5_17 1_555 1_555
N1_17 H6_17 1_555 1_555
N1_17 H7_17 1_555 1_555
N1_17 H8_17 1_555 1_555
N1_18 H5_18 1_555 1_555
N1_18 H6_18 1_555 1_555
N1_18 H7_18 1_555 1_555
N1_18 H8_18 1_555 1_555
N1_19 H5_19 1_555 1_555
N1_19 H6_19 1_555 1_555
N1_19 H7_19 1_555 1_555
N1_19 H8_19 1_555 1_555
N1_20 H6_20 1_555 1_555
N1_20 H7_20 1_555 1_555
N1_20 H8_20 1_555 1_555
N1_21 H5_21 1_555 1_555
N1_21 H7_21 1_555 1_555
N1_22 H5_22 1_555 1_555
N1_22 H7_22 1_555 1_555
N1_23 H5_23 1_555 1_555
N1_23 H6_23 1_555 1_555
N1_23 H7_23 1_555 1_555
N1_24 H5_24 1_555 1_555
N1_24 H7_24 1_555 1_555
N1_24 H8_24 1_555 1_555
N1_25 H6_25 1_555 1_555
N1_25 H7_25 1_555 1_555
N1_25 H8_25 1_555 1_555
N1_26 H6_26 1_555 1_555
N1_26 H7_26 1_555 1_555
N1_26 H8_26 1_555 1_555
N1_27 H6_27 1_555 1_555
N1_27 H7_27 1_555 1_555
N1_27 H8_27 1_555 1_555
N1_28 H5_28 1_555 1_555
N1_28 H6_28 1_555 1_555
N1_28 H7_28 1_555 1_555
N1_28 H8_28 1_555 1_555
N1_29 H5_29 1_555 1_555
N1_29 H6_29 1_555 1_555
N1_29 H7_29 1_555 1_555
N1_29 H8_29 1_555 1_555
N1_30 H5_30 1_555 1_555
N1_30 H6_30 1_555 1_555
N1_30 H7_30 1_555 1_555
N1_30 H8_30 1_555 1_555
N1_31 H5_31 1_555 1_555
N1_31 H7_31 1_555 1_555
N1_31 H8_31 1_555 1_555
N1_32 H5_32 1_555 1_555
N1_32 H6_32 1_555 1_555
N1_32 H7_32 1_555 1_555
N2 H9 1_555 1_555
N2 H10 1_555 1_555
N2 H11 1_555 1_555
N2 H12 1_555 1_555
N2 H9_2 1_555 1_555
N2 H10_2 1_555 1_555
N2 H11_2 1_555 1_555
N2 H12_2 1_555 1_555
N2_2 H9_3 1_555 1_555
N2_2 H10_3 1_555 1_555
N2_2 H11_3 1_555 1_555
N2_2 H12_3 1_555 1_555
N2_2 H9_4 1_555 1_555
N2_2 H10_4 1_555 1_555
N2_2 H11_4 1_555 1_555
N2_2 H12_4 1_555 1_555
N2_3 H9_5 1_555 1_555
N2_3 H10_5 1_555 1_555
N2_3 H11_5 1_555 1_555
N2_3 H12_5 1_555 1_555
N2_3 H9_6 1_555 1_555
N2_3 H10_6 1_555 1_555
N2_3 H11_6 1_555 1_555
N2_3 H12_6 1_555 1_555
N2_4 H9_7 1_555 1_555
N2_4 H10_7 1_555 1_555
N2_4 H11_7 1_555 1_555
N2_4 H12_7 1_555 1_555
N2_4 H9_8 1_555 1_555
N2_4 H10_8 1_555 1_555
N2_4 H11_8 1_555 1_555
N2_4 H12_8 1_555 1_555
N2_5 H9_9 1_555 1_555
N2_5 H10_9 1_555 1_555
N2_5 H11_9 1_555 1_555
N2_5 H12_9 1_555 1_555
N2_5 H9_10 1_555 1_555
N2_5 H10_10 1_555 1_555
N2_5 H11_10 1_555 1_555
N2_5 H12_10 1_555 1_555
N2_6 H9_11 1_555 1_555
N2_6 H10_11 1_555 1_555
N2_6 H11_11 1_555 1_555
N2_6 H12_11 1_555 1_555
N2_6 H9_12 1_555 1_555
N2_6 H10_12 1_555 1_555
N2_6 H11_12 1_555 1_555
N2_6 H12_12 1_555 1_555
N2_7 H9_13 1_555 1_555
N2_7 H10_13 1_555 1_555
N2_7 H11_13 1_555 1_555
N2_7 H12_13 1_555 1_555
N2_7 H9_14 1_555 1_555
N2_7 H10_14 1_555 1_555
N2_7 H11_14 1_555 1_555
N2_7 H12_14 1_555 1_555
N2_8 H9_15 1_555 1_555
N2_8 H10_15 1_555 1_555
N2_8 H11_15 1_555 1_555
N2_8 H12_15 1_555 1_555
N2_8 H9_16 1_555 1_555
N2_8 H10_16 1_555 1_555
N2_8 H11_16 1_555 1_555
N2_8 H12_16 1_555 1_555
N2_9 H9_17 1_555 1_555
N2_9 H10_17 1_555 1_555
N2_9 H11_17 1_555 1_555
N2_9 H12_17 1_555 1_555
N2_9 H9_18 1_555 1_555
N2_9 H10_18 1_555 1_555
N2_9 H11_18 1_555 1_555
N2_9 H12_18 1_555 1_555
N2_10 H9_19 1_555 1_555
N2_10 H10_19 1_555 1_555
N2_10 H11_19 1_555 1_555
N2_10 H12_19 1_555 1_555
N2_10 H9_20 1_555 1_555
N2_10 H10_20 1_555 1_555
N2_10 H11_20 1_555 1_555
N2_10 H12_20 1_555 1_555
N2_11 H9_21 1_555 1_555
N2_11 H10_21 1_555 1_555
N2_11 H11_21 1_555 1_555
N2_11 H12_21 1_555 1_555
N2_11 H9_22 1_555 1_555
N2_11 H10_22 1_555 1_555
N2_11 H11_22 1_555 1_555
N2_11 H12_22 1_555 1_555
N2_12 H9_23 1_555 1_555
N2_12 H10_23 1_555 1_555
N2_12 H11_23 1_555 1_555
N2_12 H12_23 1_555 1_555
N2_12 H9_24 1_555 1_555
N2_12 H10_24 1_555 1_555
N2_12 H11_24 1_555 1_555
N2_12 H12_24 1_555 1_555
N2_13 H9_25 1_555 1_555
N2_13 H10_25 1_555 1_555
N2_13 H11_25 1_555 1_555
N2_13 H12_25 1_555 1_555
N2_13 H9_26 1_555 1_555
N2_13 H10_26 1_555 1_555
N2_13 H11_26 1_555 1_555
N2_13 H12_26 1_555 1_555
N2_14 H9_27 1_555 1_555
N2_14 H10_27 1_555 1_555
N2_14 H11_27 1_555 1_555
N2_14 H12_27 1_555 1_555
N2_14 H9_28 1_555 1_555
N2_14 H10_28 1_555 1_555
N2_14 H11_28 1_555 1_555
N2_14 H12_28 1_555 1_555
N2_15 H9_29 1_555 1_555
N2_15 H10_29 1_555 1_555
N2_15 H11_29 1_555 1_555
N2_15 H12_29 1_555 1_555
N2_15 H9_30 1_555 1_555
N2_15 H10_30 1_555 1_555
N2_15 H11_30 1_555 1_555
N2_15 H12_30 1_555 1_555
N2_16 H9_31 1_555 1_555
N2_16 H10_31 1_555 1_555
N2_16 H11_31 1_555 1_555
N2_16 H12_31 1_555 1_555
N2_16 H9_32 1_555 1_555
N2_16 H10_32 1_555 1_555
N2_16 H11_32 1_555 1_555
N2_16 H12_32 1_555 1_555

#END
