
###############################################################################
#
# This file contains modified crystal structure data generated from the
# MOF subset of the Cambridge Structural Database (CSD) v543 
# hosted by the Cambridge Crystallographic Data Centre (CCDC).
#
# This work is licensed under the Creative Commons
# Attribution-NonCommercial-ShareAlike 4.0 International License.
# To view a copy of this license, visit
# http://creativecommons.org/licenses/by-nc-sa/4.0/
# or send a letter to
# Creative Commons, PO Box 1866, Mountain View, CA 94042, USA.
#
# CIF created using the CSD Python API on 29 September 2022
# The structure has been converted into the P1 space group
# The structure has a 3D framework
# The original CSD entry GOVSER is in the monoclinic crystal system
# The framework has been calculated to contain at least 10.0% void space
# The void calculation uses a probe of radius 1.32A, grid spacing 0.4
#
###############################################################################

data_GOVSER
_chemical_formula_moiety         '(C440 H256 O58 Zn12)n'
_symmetry_cell_setting           triclinic
_symmetry_space_group_name_H-M   'P 1'
_symmetry_Int_Tables_number      1
_space_group_name_Hall           'P 1'
loop_
_symmetry_equiv_pos_site_id
_symmetry_equiv_pos_as_xyz
1 x,y,z
_cell_length_a                   36.929(5)
_cell_length_b                   31.080(4)
_cell_length_c                   11.8533(17)
_cell_angle_alpha                90
_cell_angle_beta                 99.228(2)
_cell_angle_gamma                90
_cell_volume                     13428.6
loop_
_atom_site_label
_atom_site_type_symbol
_atom_site_fract_x
_atom_site_fract_y
_atom_site_fract_z
O6 O 0.30240(14) 0.22909(19) 0.0454(6)
H17 H 0.3605 0.1913 0.0580
H18 H 0.4072 0.1449 0.0126
Zn8 Zn 0.26942(2) 0.24847(3) 0.13500(13)
Zn1 Zn 0.23058(2) 0.25153(3) 0.86500(13)
C15 C -0.0000 0.0238(3) 0.2500
C16 C 0.03309(18) 0.0496(2) 0.3069(7)
C17 C 0.0245(2) 0.0845(2) 0.3753(7)
C18 C 0.05364(19) 0.1091(2) 0.4305(7)
H10 H 0.0486 0.1326 0.4766
C19 C 0.0897(2) 0.1003(2) 0.4203(7)
C20 C 0.09594(18) 0.0650(2) 0.3556(7)
H11 H 0.1204 0.0572 0.3487
C21 C 0.06722(18) 0.0409(2) 0.3010(6)
H12 H 0.0725 0.0169 0.2569
C22 C 0.1195(2) 0.1277(2) 0.4805(7)
C23 C 0.1551(2) 0.1253(3) 0.4563(8)
H13 H 0.1602 0.1045 0.4023
C24 C 0.1838(2) 0.1516(3) 0.5063(11)
H14 H 0.2070 0.1512 0.4814
C25 C 0.1768(3) 0.1794(3) 0.5973(10)
C26 C 0.1407(2) 0.1784(2) 0.6306(8)
H15 H 0.1366 0.1952 0.6943
C27 C 0.1121(2) 0.1544(2) 0.5747(7)
H16 H 0.0885 0.1553 0.5966
C28 C 0.2064(2) 0.2057(2) 0.6642(8)
O3 O 0.19647(14) 0.22904(16) 0.7316(5)
O4 O 0.23582(13) 0.20393(16) 0.6346(6)
O5 O 0.26104(13) 0.19975(16) 0.8937(6)
C29 C 0.2959(2) 0.2028(3) 0.9535(8)
C30 C 0.32429(18) 0.1751(2) 0.9251(8)
C31 C 0.3561(2) 0.1740(3) 0.9913(8)
C32 C 0.3844(2) 0.1466(3) 0.9629(8)
C33 C 0.3788(2) 0.1232(3) 0.8662(8)
C34 C 0.3461(2) 0.1260(3) 0.7963(9)
H19 H 0.3423 0.1116 0.7247
C35 C 0.3184(2) 0.1501(2) 0.8302(7)
H20 H 0.2946 0.1492 0.7859
C36 C 0.4106(2) 0.0985(3) 0.8372(9)
C37 C 0.4478(2) 0.1085(2) 0.8780(10)
H21 H 0.4534 0.1326 0.9271
C38 C 0.4759(2) 0.0841(2) 0.8480(8)
H22 H 0.5005 0.0929 0.8738
C39 C 0.4699(2) 0.0464(2) 0.7804(8)
C40 C 0.4315(2) 0.0373(2) 0.7310(9)
H23 H 0.4261 0.0144 0.6779
C41 C 0.4028(2) 0.0618(3) 0.7611(9)
H24 H 0.3782 0.0544 0.7317
C42 C 0.5000 0.0228(3) 0.7500
H41 H 0.0001 0.0908 0.1169
O13 O 0.73896(13) 0.19975(16) 0.6063(6)
O14 O 0.69760(14) 0.22909(19) 0.4546(6)
C83 C 0.7041(2) 0.2028(3) 0.5465(8)
C84 C 0.67571(18) 0.1751(2) 0.5749(8)
C85 C 0.6439(2) 0.1740(3) 0.5087(8)
H49 H 0.6395 0.1913 0.4420
C86 C 0.6156(2) 0.1466(3) 0.5371(8)
H50 H 0.5928 0.1449 0.4874
C87 C 0.6212(2) 0.1232(3) 0.6338(8)
C88 C 0.6539(2) 0.1260(3) 0.7037(9)
H51 H 0.6577 0.1116 0.7753
C89 C 0.6816(2) 0.1501(2) 0.6698(7)
H52 H 0.7054 0.1492 0.7141
C90 C 0.5894(2) 0.0985(3) 0.6628(9)
C91 C 0.5522(2) 0.1085(2) 0.6220(10)
H53 H 0.5466 0.1326 0.5729
C92 C 0.5241(2) 0.0841(2) 0.6520(8)
H54 H 0.4995 0.0929 0.6262
C93 C 0.5301(2) 0.0464(2) 0.7196(8)
C94 C 0.5685(2) 0.0373(2) 0.7690(9)
H55 H 0.5739 0.0144 0.8221
C95 C 0.5972(2) 0.0618(3) 0.7389(9)
H56 H 0.6218 0.0544 0.7683
Zn5 Zn 0.76942(2) 0.25153(3) 0.63500(13)
Zn9 Zn 0.73058(2) 0.24847(3) 0.36500(13)
Zn12 Zn 0.27013(2) 0.25148(3) 0.63453(13)
O17 O 0.26689(13) 0.29828(16) 0.8684(7)
O23 O 0.19760(14) 0.27091(19) 0.9546(6)
Zn2 Zn 0.27013(2) 0.74852(3) 0.13453(13)
C54 C 0.3544(2) 0.8347(3) 0.0142(9)
H31 H 0.3570 0.8211 0.0869
H32 H 0.4013 0.8714 0.0478
O7 O 0.30378(14) 0.77129(19) 0.0493(6)
O19 O 0.30429(12) 0.72384(15) 0.2635(5)
O21 O 0.23582(13) 0.79607(16) 0.1346(6)
O27 O 0.23784(13) 0.69851(16) 0.1028(6)
C14 C -0.0000 0.9810(3) 0.2500
C43 C 0.5000 0.9777(3) 0.7500
C44 C 0.4719(2) 0.9524(2) 0.7922(8)
C45 C 0.4611(2) 0.9570(2) 0.8946(9)
H25 H 0.4737 0.9763 0.9493
C46 C 0.4302(2) 0.9324(3) 0.9215(9)
H26 H 0.4216 0.9379 0.9915
C47 C 0.4133(3) 0.9023(3) 0.8513(9)
C48 C 0.4242(3) 0.8990(3) 0.7426(10)
H27 H 0.4110 0.8802 0.6876
C49 C 0.4516(3) 0.9209(3) 0.7148(9)
H28 H 0.4586 0.9162 0.6421
C50 C 0.3813(2) 0.8789(3) 0.8828(9)
C51 C 0.3510(3) 0.8677(3) 0.7958(9)
H29 H 0.3507 0.8759 0.7185
C52 C 0.3224(2) 0.8450(3) 0.8273(8)
H30 H 0.3004 0.8416 0.7743
C53 C 0.3251(2) 0.8268(2) 0.9367(7)
C55 C 0.3820(2) 0.8632(3) 0.9888(8)
C56 C 0.2953(2) 0.7986(3) 0.9584(8)
O8 O 0.26216(13) 0.80149(16) 0.8972(6)
O9 O 0.23311(13) 0.79828(16) 0.6316(7)
C57 C 0.2055(2) 0.7984(2) 0.6654(8)
O10 O 0.19571(12) 0.77616(15) 0.7365(5)
C58 C 0.1756(2) 0.8284(3) 0.6013(9)
C59 C 0.1452(2) 0.8377(3) 0.6560(9)
H33 H 0.1444 0.8265 0.7301
C60 C 0.1166(3) 0.8629(4) 0.6031(9)
H34 H 0.0959 0.8687 0.6390
C61 C 0.1192(2) 0.8801(2) 0.4919(7)
C62 C 0.1496(2) 0.8714(3) 0.4456(8)
H35 H 0.1516 0.8845 0.3745
C63 C 0.1786(2) 0.8443(3) 0.4946(8)
H36 H 0.1988 0.8376 0.4570
C64 C 0.0884(2) 0.9075(2) 0.4319(8)
C65 C 0.06829(18) 0.93518(19) 0.4918(7)
H37 H 0.0737 0.9369 0.5728
C66 C 0.04161(18) 0.9590(2) 0.4346(7)
H38 H 0.0293 0.9796 0.4742
C67 C 0.03110(19) 0.9539(2) 0.3119(7)
C68 C 0.0482(2) 0.9257(2) 0.2577(8)
H39 H 0.0411 0.9216 0.1778
C69 C 0.0776(2) 0.9012(3) 0.3191(8)
H40 H 0.0897 0.8802 0.2800
C96 C 0.5281(2) 0.9524(2) 0.7078(8)
C97 C 0.5389(2) 0.9570(2) 0.6054(9)
H57 H 0.5263 0.9763 0.5507
C98 C 0.5698(2) 0.9324(3) 0.5785(9)
H58 H 0.5784 0.9379 0.5085
C99 C 0.5867(3) 0.9023(3) 0.6487(9)
C100 C 0.5758(3) 0.8990(3) 0.7574(10)
H59 H 0.5890 0.8802 0.8124
C101 C 0.5484(3) 0.9209(3) 0.7852(9)
H60 H 0.5414 0.9162 0.8579
C102 C 0.6187(2) 0.8789(3) 0.6172(9)
C103 C 0.6490(3) 0.8677(3) 0.7042(9)
H61 H 0.6493 0.8759 0.7815
C104 C 0.6776(2) 0.8450(3) 0.6727(8)
H62 H 0.6996 0.8416 0.7257
C105 C 0.6749(2) 0.8268(2) 0.5633(7)
C106 C 0.6456(2) 0.8347(3) 0.4858(9)
H63 H 0.6430 0.8211 0.4131
C107 C 0.6180(2) 0.8632(3) 0.5112(8)
H64 H 0.5987 0.8714 0.4522
C108 C 0.7047(2) 0.7986(3) 0.5416(8)
O15 O 0.69622(14) 0.77129(19) 0.4507(6)
O16 O 0.73784(13) 0.80149(16) 0.6028(6)
Zn7 Zn 0.26942(2) 0.75153(3) 0.63500(13)
Zn10 Zn 0.72987(2) 0.74852(3) 0.36547(13)
Zn13 Zn 0.22987(2) 0.75148(3) 0.86547(13)
Zn14 Zn 0.77013(2) 0.75148(3) 0.63453(13)
C15_2 C 1.0000 0.0238(3) 0.2500
H9 H 0.9999 0.0908 0.3831
C70 C 0.96691(18) 0.0496(2) 0.1931(7)
C71 C 0.9755(2) 0.0845(2) 0.1247(7)
C72 C 0.94636(19) 0.1091(2) 0.0695(7)
H42 H 0.9514 0.1326 0.0234
C73 C 0.9103(2) 0.1003(2) 0.0797(7)
C74 C 0.90406(18) 0.0650(2) 0.1444(7)
H43 H 0.8796 0.0572 0.1513
C75 C 0.93278(18) 0.0409(2) 0.1990(6)
H44 H 0.9275 0.0169 0.2431
C76 C 0.8805(2) 0.1277(2) 0.0195(7)
C77 C 0.8449(2) 0.1253(3) 0.0437(8)
H45 H 0.8398 0.1045 0.0977
H46 H 0.7930 0.1512 0.0186
C78 C 0.8162(2) 0.1516(3) 0.9937(11)
C79 C 0.8232(3) 0.1794(3) 0.9027(10)
C80 C 0.8593(2) 0.1784(2) 0.8694(8)
H47 H 0.8634 0.1952 0.8057
C81 C 0.8879(2) 0.1544(2) 0.9253(7)
H48 H 0.9115 0.1553 0.9034
C82 C 0.7936(2) 0.2057(2) 0.8358(8)
O11 O 0.80353(14) 0.22904(16) 0.7684(5)
O12 O 0.76418(13) 0.20393(16) 0.8654(6)
Zn11 Zn 0.72987(2) 0.25148(3) 0.86547(13)
O18 O 0.73311(13) 0.29828(16) 0.6316(7)
O24 O 0.80240(14) 0.27091(19) 0.5454(6)
C5 C 0.8808(2) 0.8801(2) 0.0081(7)
C6 C 0.8504(2) 0.8714(3) 0.0544(8)
H3 H 0.8484 0.8845 0.1255
C7 C 0.8214(2) 0.8443(3) 0.0054(8)
H4 H 0.8012 0.8376 0.0430
C8 C 0.9116(2) 0.9075(2) 0.0681(8)
C9 C 0.93171(18) 0.93518(19) 0.0082(7)
C10 C 0.95839(18) 0.9590(2) 0.0654(7)
H6 H 0.9707 0.9796 0.0258
C11 C 0.96890(19) 0.9539(2) 0.1881(7)
C12 C 0.9518(2) 0.9257(2) 0.2423(8)
H7 H 0.9589 0.9216 0.3222
C13 C 0.9224(2) 0.9012(3) 0.1809(8)
H8 H 0.9103 0.8802 0.2200
C14_2 C 1.0000 0.9810(3) 0.2500
O1 O 0.76689(13) 0.79828(16) 0.8684(7)
C1 C 0.7945(2) 0.7984(2) 0.8346(8)
O2 O 0.80429(12) 0.77616(15) 0.7635(5)
C2 C 0.8244(2) 0.8284(3) 0.8987(9)
C3 C 0.8548(2) 0.8377(3) 0.8440(9)
H1 H 0.8556 0.8265 0.7699
C4 C 0.8834(3) 0.8629(4) 0.8969(9)
H2 H 0.9041 0.8687 0.8610
H5 H 0.9263 0.9369 0.9272
Zn6 Zn 0.73058(2) 0.75153(3) 0.86500(13)
O20 O 0.73582(13) 0.70393(16) 0.6346(6)
O25 O 0.80378(14) 0.72871(19) 0.5493(6)
O20_2 O 0.26418(13) 0.70393(16) 0.8654(6)
O25_2 O 0.19622(14) 0.72871(19) 0.9507(6)
O19_2 O 0.69571(12) 0.72384(15) 0.2365(5)
O21_2 O 0.76418(13) 0.79607(16) 0.3654(6)
O27_2 O 0.76216(13) 0.69851(16) 0.3972(6)
H22_2 H 0.0005 0.5929 0.8738
C42_2 C 0.0000 0.5228(3) 0.7500
C43_2 C 0.0000 0.4777(3) 0.7500
O13_2 O 0.23896(13) 0.69975(16) 0.6063(6)
O14_2 O 0.19760(14) 0.72909(19) 0.4546(6)
C83_2 C 0.2041(2) 0.7028(3) 0.5465(8)
C84_2 C 0.17571(18) 0.6751(2) 0.5749(8)
C85_2 C 0.1439(2) 0.6740(3) 0.5087(8)
H49_2 H 0.1395 0.6913 0.4420
C86_2 C 0.1156(2) 0.6466(3) 0.5371(8)
H50_2 H 0.0928 0.6449 0.4874
C87_2 C 0.1212(2) 0.6232(3) 0.6338(8)
C88_2 C 0.1539(2) 0.6260(3) 0.7037(9)
H51_2 H 0.1577 0.6116 0.7753
C89_2 C 0.1816(2) 0.6501(2) 0.6698(7)
H52_2 H 0.2054 0.6492 0.7141
C90_2 C 0.0894(2) 0.5985(3) 0.6628(9)
C91_2 C 0.0522(2) 0.6085(2) 0.6220(10)
H53_2 H 0.0466 0.6326 0.5729
C92_2 C 0.0241(2) 0.5841(2) 0.6520(8)
C93_2 C 0.0301(2) 0.5464(2) 0.7196(8)
C94_2 C 0.0685(2) 0.5373(2) 0.7690(9)
H55_2 H 0.0739 0.5144 0.8221
C95_2 C 0.0972(2) 0.5618(3) 0.7389(9)
H56_2 H 0.1218 0.5544 0.7683
C96_2 C 0.0281(2) 0.4524(2) 0.7078(8)
C97_2 C 0.0389(2) 0.4570(2) 0.6054(9)
H57_2 H 0.0263 0.4763 0.5507
C98_2 C 0.0698(2) 0.4324(3) 0.5785(9)
H58_2 H 0.0784 0.4379 0.5085
C99_2 C 0.0867(3) 0.4023(3) 0.6487(9)
C100_2 C 0.0758(3) 0.3990(3) 0.7574(10)
H59_2 H 0.0890 0.3802 0.8124
C101_2 C 0.0484(3) 0.4209(3) 0.7852(9)
H60_2 H 0.0414 0.4162 0.8579
C102_2 C 0.1187(2) 0.3789(3) 0.6172(9)
C103_2 C 0.1490(3) 0.3677(3) 0.7042(9)
H61_2 H 0.1493 0.3759 0.7815
C104_2 C 0.1776(2) 0.3450(3) 0.6727(8)
H62_2 H 0.1996 0.3416 0.7257
C105_2 C 0.1749(2) 0.3268(2) 0.5633(7)
C106_2 C 0.1456(2) 0.3347(3) 0.4858(9)
H63_2 H 0.1430 0.3211 0.4131
C107_2 C 0.1180(2) 0.3632(3) 0.5112(8)
H64_2 H 0.0987 0.3714 0.4522
C108_2 C 0.2047(2) 0.2986(3) 0.5416(8)
O15_2 O 0.19622(14) 0.27129(19) 0.4507(6)
O16_2 O 0.23784(13) 0.30149(16) 0.6028(6)
Zn9_2 Zn 0.23058(2) 0.74847(3) 0.36500(13)
Zn10_2 Zn 0.22987(2) 0.24852(3) 0.36547(13)
Zn2_2 Zn 0.77013(2) 0.24852(3) 0.13453(13)
O6_2 O 0.80240(14) 0.72909(19) 0.0454(6)
H17_2 H 0.8605 0.6913 0.0580
H18_2 H 0.9072 0.6449 0.0126
C54_2 C 0.8544(2) 0.3347(3) 0.0142(9)
H31_2 H 0.8570 0.3211 0.0869
H32_2 H 0.9013 0.3714 0.0478
O7_2 O 0.80378(14) 0.27129(19) 0.0493(6)
Zn8_2 Zn 0.76942(2) 0.74847(3) 0.13500(13)
O19_3 O 0.80429(12) 0.22384(15) 0.2635(5)
O21_3 O 0.73582(13) 0.29607(16) 0.1346(6)
O27_3 O 0.73784(13) 0.19851(16) 0.1028(6)
C5_2 C 0.3808(2) 0.3801(2) 0.0081(7)
C6_2 C 0.3504(2) 0.3714(3) 0.0544(8)
H3_2 H 0.3484 0.3845 0.1255
C7_2 C 0.3214(2) 0.3443(3) 0.0054(8)
H4_2 H 0.3012 0.3376 0.0430
C8_2 C 0.4116(2) 0.4075(2) 0.0681(8)
C9_2 C 0.43171(18) 0.43518(19) 0.0082(7)
C10_2 C 0.45839(18) 0.4590(2) 0.0654(7)
H6_2 H 0.4707 0.4796 0.0258
C11_2 C 0.46890(19) 0.4539(2) 0.1881(7)
C12_2 C 0.4518(2) 0.4257(2) 0.2423(8)
H7_2 H 0.4589 0.4216 0.3222
C13_2 C 0.4224(2) 0.4012(3) 0.1809(8)
H8_2 H 0.4103 0.3802 0.2200
C14_3 C 0.5000 0.4810(3) 0.2500
C15_3 C 0.5000 0.5238(3) 0.2500
C16_2 C 0.53309(18) 0.5496(2) 0.3069(7)
C17_2 C 0.5245(2) 0.5845(2) 0.3753(7)
H9_2 H 0.4999 0.5908 0.3831
C18_2 C 0.55364(19) 0.6091(2) 0.4305(7)
H10_2 H 0.5486 0.6326 0.4766
C19_2 C 0.5897(2) 0.6003(2) 0.4203(7)
C20_2 C 0.59594(18) 0.5650(2) 0.3556(7)
H11_2 H 0.6204 0.5572 0.3487
C21_2 C 0.56722(18) 0.5409(2) 0.3010(6)
H12_2 H 0.5725 0.5169 0.2569
C22_2 C 0.6195(2) 0.6277(2) 0.4805(7)
C23_2 C 0.6551(2) 0.6253(3) 0.4563(8)
H13_2 H 0.6602 0.6045 0.4023
C24_2 C 0.6838(2) 0.6516(3) 0.5063(11)
H14_2 H 0.7070 0.6512 0.4814
C25_2 C 0.6768(3) 0.6794(3) 0.5973(10)
C26_2 C 0.6407(2) 0.6784(2) 0.6306(8)
H15_2 H 0.6366 0.6952 0.6943
C27_2 C 0.6121(2) 0.6544(2) 0.5747(7)
H16_2 H 0.5885 0.6553 0.5966
C28_2 C 0.7064(2) 0.7057(2) 0.6642(8)
O3_2 O 0.69647(14) 0.72904(16) 0.7316(5)
O5_2 O 0.76104(13) 0.69975(16) 0.8937(6)
C29_2 C 0.7959(2) 0.7028(3) 0.9535(8)
C30_2 C 0.82429(18) 0.6751(2) 0.9251(8)
C31_2 C 0.8561(2) 0.6740(3) 0.9913(8)
C32_2 C 0.8844(2) 0.6466(3) 0.9629(8)
C33_2 C 0.8788(2) 0.6232(3) 0.8662(8)
C34_2 C 0.8461(2) 0.6260(3) 0.7963(9)
H19_2 H 0.8423 0.6116 0.7247
C35_2 C 0.8184(2) 0.6501(2) 0.8302(7)
H20_2 H 0.7946 0.6492 0.7859
C36_2 C 0.9106(2) 0.5985(3) 0.8372(9)
C37_2 C 0.9478(2) 0.6085(2) 0.8780(10)
H21_2 H 0.9534 0.6326 0.9271
C38_2 C 0.9759(2) 0.5841(2) 0.8480(8)
C39_2 C 0.9699(2) 0.5464(2) 0.7804(8)
C40_2 C 0.9315(2) 0.5373(2) 0.7310(9)
H23_2 H 0.9261 0.5144 0.6779
C41_2 C 0.9028(2) 0.5618(3) 0.7611(9)
H24_2 H 0.8782 0.5544 0.7317
C42_3 C 1.0000 0.5228(3) 0.7500
C43_3 C 1.0000 0.4777(3) 0.7500
C44_2 C 0.9719(2) 0.4524(2) 0.7922(8)
C45_2 C 0.9611(2) 0.4570(2) 0.8946(9)
H25_2 H 0.9737 0.4763 0.9493
C46_2 C 0.9302(2) 0.4324(3) 0.9215(9)
H26_2 H 0.9216 0.4379 0.9915
C47_2 C 0.9133(3) 0.4023(3) 0.8513(9)
C48_2 C 0.9242(3) 0.3990(3) 0.7426(10)
H27_2 H 0.9110 0.3802 0.6876
C49_2 C 0.9516(3) 0.4209(3) 0.7148(9)
H28_2 H 0.9586 0.4162 0.6421
C50_2 C 0.8813(2) 0.3789(3) 0.8828(9)
C51_2 C 0.8510(3) 0.3677(3) 0.7958(9)
H29_2 H 0.8507 0.3759 0.7185
C52_2 C 0.8224(2) 0.3450(3) 0.8273(8)
H30_2 H 0.8004 0.3416 0.7743
C53_2 C 0.8251(2) 0.3268(2) 0.9367(7)
C55_2 C 0.8820(2) 0.3632(3) 0.9888(8)
C56_2 C 0.7953(2) 0.2986(3) 0.9584(8)
O8_2 O 0.76216(13) 0.30149(16) 0.8972(6)
C57_2 C 0.7055(2) 0.2984(2) 0.6654(8)
O10_2 O 0.69571(12) 0.27616(15) 0.7365(5)
C58_2 C 0.6756(2) 0.3284(3) 0.6013(9)
C59_2 C 0.6452(2) 0.3377(3) 0.6560(9)
H33_2 H 0.6444 0.3265 0.7301
C60_2 C 0.6166(3) 0.3629(4) 0.6031(9)
H34_2 H 0.5959 0.3687 0.6390
C61_2 C 0.6192(2) 0.3801(2) 0.4919(7)
C62_2 C 0.6496(2) 0.3714(3) 0.4456(8)
H35_2 H 0.6516 0.3845 0.3745
C63_2 C 0.6786(2) 0.3443(3) 0.4946(8)
H36_2 H 0.6988 0.3376 0.4570
C64_2 C 0.5884(2) 0.4075(2) 0.4319(8)
C65_2 C 0.56829(18) 0.43518(19) 0.4918(7)
H37_2 H 0.5737 0.4369 0.5728
C66_2 C 0.54161(18) 0.4590(2) 0.4346(7)
H38_2 H 0.5293 0.4796 0.4742
C67_2 C 0.53110(19) 0.4539(2) 0.3119(7)
C68_2 C 0.5482(2) 0.4257(2) 0.2577(8)
H39_2 H 0.5411 0.4216 0.1778
C69_2 C 0.5776(2) 0.4012(3) 0.3191(8)
H40_2 H 0.5897 0.3802 0.2800
C70_2 C 0.46691(18) 0.5496(2) 0.1931(7)
C71_2 C 0.4755(2) 0.5845(2) 0.1247(7)
H41_2 H 0.5001 0.5908 0.1169
C72_2 C 0.44636(19) 0.6091(2) 0.0695(7)
H42_2 H 0.4514 0.6326 0.0234
C73_2 C 0.4103(2) 0.6003(2) 0.0797(7)
C74_2 C 0.40406(18) 0.5650(2) 0.1444(7)
H43_2 H 0.3796 0.5572 0.1513
C75_2 C 0.43278(18) 0.5409(2) 0.1990(6)
H44_2 H 0.4275 0.5169 0.2431
C76_2 C 0.3805(2) 0.6277(2) 0.0195(7)
C77_2 C 0.3449(2) 0.6253(3) 0.0437(8)
H45_2 H 0.3398 0.6045 0.0977
H46_2 H 0.2930 0.6512 0.0186
H54_2 H 0.9995 0.5929 0.6262
O23_2 O 0.69760(14) 0.77091(19) 0.9546(6)
C1_2 C 0.2945(2) 0.2984(2) 0.8346(8)
O2_2 O 0.30429(12) 0.27616(15) 0.7635(5)
C2_2 C 0.3244(2) 0.3284(3) 0.8987(9)
C3_2 C 0.3548(2) 0.3377(3) 0.8440(9)
H1_2 H 0.3556 0.3265 0.7699
C4_2 C 0.3834(3) 0.3629(4) 0.8969(9)
H2_2 H 0.4041 0.3687 0.8610
H5_2 H 0.4263 0.4369 0.9272
C78_2 C 0.3162(2) 0.6516(3) 0.9937(11)
C79_2 C 0.3232(3) 0.6794(3) 0.9027(10)
C80_2 C 0.3593(2) 0.6784(2) 0.8694(8)
H47_2 H 0.3634 0.6952 0.8057
C81_2 C 0.3879(2) 0.6544(2) 0.9253(7)
H48_2 H 0.4115 0.6553 0.9034
C82_2 C 0.2936(2) 0.7057(2) 0.8358(8)
O11_2 O 0.30353(14) 0.72904(16) 0.7684(5)
O24_2 O 0.30240(14) 0.77091(19) 0.5454(6)
O25_3 O 0.30378(14) 0.22871(19) 0.5493(6)
O25_4 O 0.69622(14) 0.22871(19) 0.9507(6)
O19_4 O 0.19571(12) 0.22384(15) 0.2365(5)
O21_4 O 0.26418(13) 0.29607(16) 0.3654(6)
O27_4 O 0.26216(13) 0.19851(16) 0.3972(6)
O1_2 O 0.23311(13) 0.20172(16) 0.1316(7)
C1_3 C 0.2055(2) 0.2016(2) 0.1654(8)
C2_3 C 0.1756(2) 0.1716(3) 0.1013(9)
C3_3 C 0.1452(2) 0.1623(3) 0.1560(9)
H1_3 H 0.1444 0.1735 0.2301
C4_3 C 0.1166(3) 0.1371(4) 0.1031(9)
H2_3 H 0.0959 0.1313 0.1390
H5_3 H 0.0737 0.0631 0.0728
C5_3 C 0.1192(2) 0.1199(2) 0.9919(7)
C6_3 C 0.1496(2) 0.1286(3) 0.9456(8)
H3_3 H 0.1516 0.1155 0.8745
C7_3 C 0.1786(2) 0.1557(3) 0.9946(8)
H4_3 H 0.1988 0.1624 0.9570
C8_3 C 0.0884(2) 0.0925(2) 0.9319(8)
C9_3 C 0.06829(18) 0.06482(19) 0.9918(7)
C10_3 C 0.04161(18) 0.0410(2) 0.9346(7)
H6_3 H 0.0293 0.0204 0.9742
C11_3 C 0.03110(19) 0.0461(2) 0.8119(7)
C12_3 C 0.0482(2) 0.0743(2) 0.7577(8)
H7_3 H 0.0411 0.0784 0.6778
C13_3 C 0.0776(2) 0.0988(3) 0.8191(8)
H8_3 H 0.0897 0.1198 0.7800
C14_4 C 0.0000 0.0190(3) 0.7500
C78_3 C 0.1838(2) 0.8484(3) 0.0063(11)
C79_3 C 0.1768(3) 0.8206(3) 0.0973(10)
C80_3 C 0.1407(2) 0.8216(2) 0.1306(8)
H47_3 H 0.1366 0.8048 0.1943
C81_3 C 0.1121(2) 0.8456(2) 0.0747(7)
H48_3 H 0.0885 0.8447 0.0966
C82_3 C 0.2064(2) 0.7943(2) 0.1642(8)
O11_3 O 0.19647(14) 0.77096(16) 0.2316(5)
O18_2 O 0.26689(13) 0.70172(16) 0.3684(7)
O22 O 0.26104(13) 0.80025(16) 0.3937(6)
C15_4 C 0.0000 0.9762(3) 0.7500
H9_3 H 0.0001 0.9092 0.6169
C70_3 C 0.03309(18) 0.9504(2) 0.8069(7)
C71_3 C 0.0245(2) 0.9155(2) 0.8753(7)
C72_3 C 0.05364(19) 0.8909(2) 0.9305(7)
H42_3 H 0.0486 0.8674 0.9766
C73_3 C 0.0897(2) 0.8997(2) 0.9203(7)
C74_3 C 0.09594(18) 0.9350(2) 0.8556(7)
H43_3 H 0.1204 0.9428 0.8487
C75_3 C 0.06722(18) 0.9591(2) 0.8010(6)
H44_3 H 0.0725 0.9831 0.7569
C76_3 C 0.1195(2) 0.8723(2) 0.9805(7)
C77_3 C 0.1551(2) 0.8747(3) 0.9563(8)
H45_3 H 0.1602 0.8955 0.9023
H46_3 H 0.2070 0.8488 0.9814
C14_5 C 1.0000 0.0190(3) 0.7500
C43_4 C 0.5000 0.0223(3) 0.2500
C44_3 C 0.5281(2) 0.0476(2) 0.2078(8)
C45_3 C 0.5389(2) 0.0430(2) 0.1054(9)
H25_3 H 0.5263 0.0237 0.0507
C46_3 C 0.5698(2) 0.0676(3) 0.0785(9)
H26_3 H 0.5784 0.0621 0.0085
C47_3 C 0.5867(3) 0.0977(3) 0.1487(9)
C48_3 C 0.5758(3) 0.1010(3) 0.2574(10)
H27_3 H 0.5890 0.1198 0.3124
C49_3 C 0.5484(3) 0.0791(3) 0.2852(9)
H28_3 H 0.5414 0.0838 0.3579
C50_3 C 0.6187(2) 0.1211(3) 0.1172(9)
C51_3 C 0.6490(3) 0.1323(3) 0.2042(9)
H29_3 H 0.6493 0.1241 0.2815
C52_3 C 0.6776(2) 0.1550(3) 0.1727(8)
H30_3 H 0.6996 0.1584 0.2257
C53_3 C 0.6749(2) 0.1732(2) 0.0633(7)
C55_3 C 0.6180(2) 0.1368(3) 0.0112(8)
C56_3 C 0.7047(2) 0.2014(3) 0.0416(8)
O9_2 O 0.76689(13) 0.20172(16) 0.3684(7)
C57_3 C 0.7945(2) 0.2016(2) 0.3346(8)
C58_3 C 0.8244(2) 0.1716(3) 0.3987(9)
C59_3 C 0.8548(2) 0.1623(3) 0.3440(9)
H33_3 H 0.8556 0.1735 0.2699
C60_3 C 0.8834(3) 0.1371(4) 0.3969(9)
H34_3 H 0.9041 0.1313 0.3610
C61_3 C 0.8808(2) 0.1199(2) 0.5081(7)
C62_3 C 0.8504(2) 0.1286(3) 0.5544(8)
H35_3 H 0.8484 0.1155 0.6255
C63_3 C 0.8214(2) 0.1557(3) 0.5054(8)
H36_3 H 0.8012 0.1624 0.5430
C64_3 C 0.9116(2) 0.0925(2) 0.5681(8)
C65_3 C 0.93171(18) 0.06482(19) 0.5082(7)
H37_3 H 0.9263 0.0631 0.4272
C66_3 C 0.95839(18) 0.0410(2) 0.5654(7)
H38_3 H 0.9707 0.0204 0.5258
C67_3 C 0.96890(19) 0.0461(2) 0.6881(7)
C68_3 C 0.9518(2) 0.0743(2) 0.7423(8)
H39_3 H 0.9589 0.0784 0.8222
C69_3 C 0.9224(2) 0.0988(3) 0.6809(8)
H40_3 H 0.9103 0.1198 0.7200
C96_3 C 0.4719(2) 0.0476(2) 0.2922(8)
C97_3 C 0.4611(2) 0.0430(2) 0.3946(9)
H57_3 H 0.4737 0.0237 0.4493
C98_3 C 0.4302(2) 0.0676(3) 0.4215(9)
H58_3 H 0.4216 0.0621 0.4915
C99_3 C 0.4133(3) 0.0977(3) 0.3513(9)
C100_3 C 0.4242(3) 0.1010(3) 0.2426(10)
H59_3 H 0.4110 0.1198 0.1876
C101_3 C 0.4516(3) 0.0791(3) 0.2148(9)
H60_3 H 0.4586 0.0838 0.1421
C102_3 C 0.3813(2) 0.1211(3) 0.3828(9)
C103_3 C 0.3510(3) 0.1323(3) 0.2958(9)
H61_3 H 0.3507 0.1241 0.2185
C104_3 C 0.3224(2) 0.1550(3) 0.3273(8)
H62_3 H 0.3004 0.1584 0.2743
C105_3 C 0.3251(2) 0.1732(2) 0.4367(7)
C106_3 C 0.3544(2) 0.1653(3) 0.5142(9)
H63_3 H 0.3570 0.1789 0.5869
C107_3 C 0.3820(2) 0.1368(3) 0.4888(8)
H64_3 H 0.4013 0.1286 0.5478
C108_3 C 0.2953(2) 0.2014(3) 0.4584(8)
C54_3 C 0.6456(2) 0.1653(3) 0.9858(9)
H31_3 H 0.6430 0.1789 0.9131
H32_3 H 0.5987 0.1286 0.9522
C15_5 C 1.0000 0.9762(3) 0.7500
C16_3 C 0.96691(18) 0.9504(2) 0.6931(7)
C17_3 C 0.9755(2) 0.9155(2) 0.6247(7)
C18_3 C 0.94636(19) 0.8909(2) 0.5695(7)
H10_3 H 0.9514 0.8674 0.5234
C19_3 C 0.9103(2) 0.8997(2) 0.5797(7)
C20_3 C 0.90406(18) 0.9350(2) 0.6444(7)
H11_3 H 0.8796 0.9428 0.6513
C21_3 C 0.93278(18) 0.9591(2) 0.6990(6)
H12_3 H 0.9275 0.9831 0.7431
C22_3 C 0.8805(2) 0.8723(2) 0.5195(7)
C23_3 C 0.8449(2) 0.8747(3) 0.5437(8)
H13_3 H 0.8398 0.8955 0.5977
C24_3 C 0.8162(2) 0.8484(3) 0.4937(11)
H14_3 H 0.7930 0.8488 0.5186
C25_3 C 0.8232(3) 0.8206(3) 0.4027(10)
C26_3 C 0.8593(2) 0.8216(2) 0.3694(8)
H15_3 H 0.8634 0.8048 0.3057
C27_3 C 0.8879(2) 0.8456(2) 0.4253(7)
H16_3 H 0.9115 0.8447 0.4034
C28_3 C 0.7936(2) 0.7943(2) 0.3358(8)
O3_3 O 0.80353(14) 0.77096(16) 0.2684(5)
O5_3 O 0.73896(13) 0.80025(16) 0.1063(6)
C29_3 C 0.7041(2) 0.7972(3) 0.0465(8)
C30_3 C 0.67571(18) 0.8249(2) 0.0749(8)
C31_3 C 0.6439(2) 0.8260(3) 0.0087(8)
C32_3 C 0.6156(2) 0.8534(3) 0.0371(8)
C33_3 C 0.6212(2) 0.8768(3) 0.1338(8)
C34_3 C 0.6539(2) 0.8740(3) 0.2037(9)
H19_3 H 0.6577 0.8884 0.2753
C35_3 C 0.6816(2) 0.8499(2) 0.1698(7)
H20_3 H 0.7054 0.8508 0.2141
C36_3 C 0.5894(2) 0.9015(3) 0.1628(9)
C37_3 C 0.5522(2) 0.8915(2) 0.1220(10)
H21_3 H 0.5466 0.8674 0.0729
C38_3 C 0.5241(2) 0.9159(2) 0.1520(8)
H22_3 H 0.4995 0.9071 0.1262
C39_3 C 0.5301(2) 0.9536(2) 0.2196(8)
C40_3 C 0.5685(2) 0.9627(2) 0.2690(9)
H23_3 H 0.5739 0.9856 0.3221
C41_3 C 0.5972(2) 0.9382(3) 0.2389(9)
H24_3 H 0.6218 0.9456 0.2683
C42_4 C 0.5000 0.9772(3) 0.2500
H41_3 H 0.9999 0.9092 0.8831
C83_3 C 0.2959(2) 0.7972(3) 0.4535(8)
C84_3 C 0.32429(18) 0.8249(2) 0.4251(8)
C85_3 C 0.3561(2) 0.8260(3) 0.4913(8)
H49_3 H 0.3605 0.8087 0.5580
C86_3 C 0.3844(2) 0.8534(3) 0.4629(8)
H50_3 H 0.4072 0.8551 0.5126
C87_3 C 0.3788(2) 0.8768(3) 0.3662(8)
C88_3 C 0.3461(2) 0.8740(3) 0.2963(9)
H51_3 H 0.3423 0.8884 0.2247
C89_3 C 0.3184(2) 0.8499(2) 0.3302(7)
H52_3 H 0.2946 0.8508 0.2859
C90_3 C 0.4106(2) 0.9015(3) 0.3372(9)
C91_3 C 0.4478(2) 0.8915(2) 0.3780(10)
H53_3 H 0.4534 0.8674 0.4271
C92_3 C 0.4759(2) 0.9159(2) 0.3480(8)
H54_3 H 0.5005 0.9071 0.3738
C93_3 C 0.4699(2) 0.9536(2) 0.2804(8)
C94_3 C 0.4315(2) 0.9627(2) 0.2310(9)
H55_3 H 0.4261 0.9856 0.1779
C95_3 C 0.4028(2) 0.9382(3) 0.2611(9)
H56_3 H 0.3782 0.9456 0.2317
O17_2 O 0.73311(13) 0.70172(16) 0.1316(7)
H17_3 H 0.6395 0.8087 0.9420
H18_3 H 0.5928 0.8551 0.9874
C1_4 C 0.7055(2) 0.7016(2) 0.1654(8)
C2_4 C 0.6756(2) 0.6716(3) 0.1013(9)
C3_4 C 0.6452(2) 0.6623(3) 0.1560(9)
H1_4 H 0.6444 0.6735 0.2301
C4_4 C 0.6166(3) 0.6371(4) 0.1031(9)
H2_4 H 0.5959 0.6313 0.1390
H5_4 H 0.5737 0.5631 0.0728
C78_4 C 0.6838(2) 0.3484(3) 0.0063(11)
C79_4 C 0.6768(3) 0.3206(3) 0.0973(10)
C80_4 C 0.6407(2) 0.3216(2) 0.1306(8)
H47_4 H 0.6366 0.3048 0.1943
C81_4 C 0.6121(2) 0.3456(2) 0.0747(7)
H48_4 H 0.5885 0.3447 0.0966
C82_4 C 0.7064(2) 0.2943(2) 0.1642(8)
O11_4 O 0.69647(14) 0.27096(16) 0.2316(5)
O22_2 O 0.76104(13) 0.30025(16) 0.3937(6)
C5_4 C 0.6192(2) 0.6199(2) 0.9919(7)
C6_4 C 0.6496(2) 0.6286(3) 0.9456(8)
H3_4 H 0.6516 0.6155 0.8745
C7_4 C 0.6786(2) 0.6557(3) 0.9946(8)
H4_4 H 0.6988 0.6624 0.9570
C8_4 C 0.5884(2) 0.5925(2) 0.9319(8)
C9_4 C 0.56829(18) 0.56482(19) 0.9918(7)
C10_4 C 0.54161(18) 0.5410(2) 0.9346(7)
H6_4 H 0.5293 0.5204 0.9742
C11_4 C 0.53110(19) 0.5461(2) 0.8119(7)
C12_4 C 0.5482(2) 0.5743(2) 0.7577(8)
H7_4 H 0.5411 0.5784 0.6778
C13_4 C 0.5776(2) 0.5988(3) 0.8191(8)
H8_4 H 0.5897 0.6198 0.7800
C14_6 C 0.5000 0.5190(3) 0.7500
C15_6 C 0.5000 0.4762(3) 0.7500
C16_4 C 0.46691(18) 0.4504(2) 0.6931(7)
C17_4 C 0.4755(2) 0.4155(2) 0.6247(7)
H9_4 H 0.5001 0.4092 0.6169
C18_4 C 0.44636(19) 0.3909(2) 0.5695(7)
H10_4 H 0.4514 0.3674 0.5234
C19_4 C 0.4103(2) 0.3997(2) 0.5797(7)
C20_4 C 0.40406(18) 0.4350(2) 0.6444(7)
H11_4 H 0.3796 0.4428 0.6513
C21_4 C 0.43278(18) 0.4591(2) 0.6990(6)
H12_4 H 0.4275 0.4831 0.7431
C22_4 C 0.3805(2) 0.3723(2) 0.5195(7)
C23_4 C 0.3449(2) 0.3747(3) 0.5437(8)
H13_4 H 0.3398 0.3955 0.5977
C24_4 C 0.3162(2) 0.3484(3) 0.4937(11)
H14_4 H 0.2930 0.3488 0.5186
C25_4 C 0.3232(3) 0.3206(3) 0.4027(10)
C26_4 C 0.3593(2) 0.3216(2) 0.3694(8)
H15_4 H 0.3634 0.3048 0.3057
C27_4 C 0.3879(2) 0.3456(2) 0.4253(7)
H16_4 H 0.4115 0.3447 0.4034
C28_4 C 0.2936(2) 0.2943(2) 0.3358(8)
O3_4 O 0.30353(14) 0.27096(16) 0.2684(5)
O5_4 O 0.23896(13) 0.30025(16) 0.1063(6)
C29_4 C 0.2041(2) 0.2972(3) 0.0465(8)
C30_4 C 0.17571(18) 0.3249(2) 0.0749(8)
C31_4 C 0.1439(2) 0.3260(3) 0.0087(8)
C32_4 C 0.1156(2) 0.3534(3) 0.0371(8)
C33_4 C 0.1212(2) 0.3768(3) 0.1338(8)
C34_4 C 0.1539(2) 0.3740(3) 0.2037(9)
H19_4 H 0.1577 0.3884 0.2753
C35_4 C 0.1816(2) 0.3499(2) 0.1698(7)
H20_4 H 0.2054 0.3508 0.2141
C36_4 C 0.0894(2) 0.4015(3) 0.1628(9)
C37_4 C 0.0522(2) 0.3915(2) 0.1220(10)
H21_4 H 0.0466 0.3674 0.0729
C38_4 C 0.0241(2) 0.4159(2) 0.1520(8)
C39_4 C 0.0301(2) 0.4536(2) 0.2196(8)
C40_4 C 0.0685(2) 0.4627(2) 0.2690(9)
H23_4 H 0.0739 0.4856 0.3221
C41_4 C 0.0972(2) 0.4382(3) 0.2389(9)
H24_4 H 0.1218 0.4456 0.2683
C42_5 C 0.0000 0.4772(3) 0.2500
C43_5 C -0.0000 0.5223(3) 0.2500
C44_4 C 0.0281(2) 0.5476(2) 0.2078(8)
C45_4 C 0.0389(2) 0.5430(2) 0.1054(9)
H25_4 H 0.0263 0.5237 0.0507
C46_4 C 0.0698(2) 0.5676(3) 0.0785(9)
H26_4 H 0.0784 0.5621 0.0085
C47_4 C 0.0867(3) 0.5977(3) 0.1487(9)
C48_4 C 0.0758(3) 0.6010(3) 0.2574(10)
H27_4 H 0.0890 0.6198 0.3124
C49_4 C 0.0484(3) 0.5791(3) 0.2852(9)
H28_4 H 0.0414 0.5838 0.3579
C50_4 C 0.1187(2) 0.6211(3) 0.1172(9)
C51_4 C 0.1490(3) 0.6323(3) 0.2042(9)
H29_4 H 0.1493 0.6241 0.2815
C52_4 C 0.1776(2) 0.6550(3) 0.1727(8)
H30_4 H 0.1996 0.6584 0.2257
C53_4 C 0.1749(2) 0.6732(2) 0.0633(7)
C55_4 C 0.1180(2) 0.6368(3) 0.0112(8)
C56_4 C 0.2047(2) 0.7014(3) 0.0416(8)
C57_4 C 0.2945(2) 0.7016(2) 0.3346(8)
C58_4 C 0.3244(2) 0.6716(3) 0.3987(9)
C59_4 C 0.3548(2) 0.6623(3) 0.3440(9)
H33_4 H 0.3556 0.6735 0.2699
C60_4 C 0.3834(3) 0.6371(4) 0.3969(9)
H34_4 H 0.4041 0.6313 0.3610
C61_4 C 0.3808(2) 0.6199(2) 0.5081(7)
C62_4 C 0.3504(2) 0.6286(3) 0.5544(8)
H35_4 H 0.3484 0.6155 0.6255
C63_4 C 0.3214(2) 0.6557(3) 0.5054(8)
H36_4 H 0.3012 0.6624 0.5430
C64_4 C 0.4116(2) 0.5925(2) 0.5681(8)
C65_4 C 0.43171(18) 0.56482(19) 0.5082(7)
H37_4 H 0.4263 0.5631 0.4272
C66_4 C 0.45839(18) 0.5410(2) 0.5654(7)
H38_4 H 0.4707 0.5204 0.5258
C67_4 C 0.46890(19) 0.5461(2) 0.6881(7)
C68_4 C 0.4518(2) 0.5743(2) 0.7423(8)
H39_4 H 0.4589 0.5784 0.8222
C69_4 C 0.4224(2) 0.5988(3) 0.6809(8)
H40_4 H 0.4103 0.6198 0.7200
C70_4 C 0.53309(18) 0.4504(2) 0.8069(7)
C71_4 C 0.5245(2) 0.4155(2) 0.8753(7)
H41_4 H 0.4999 0.4092 0.8831
C72_4 C 0.55364(19) 0.3909(2) 0.9305(7)
H42_4 H 0.5486 0.3674 0.9766
C73_4 C 0.5897(2) 0.3997(2) 0.9203(7)
C74_4 C 0.59594(18) 0.4350(2) 0.8556(7)
H43_4 H 0.6204 0.4428 0.8487
C75_4 C 0.56722(18) 0.4591(2) 0.8010(6)
H44_4 H 0.5725 0.4831 0.7569
C76_4 C 0.6195(2) 0.3723(2) 0.9805(7)
C77_4 C 0.6551(2) 0.3747(3) 0.9563(8)
H45_4 H 0.6602 0.3955 0.9023
H46_4 H 0.7070 0.3488 0.9814
H54_4 H 0.0005 0.4071 0.3738
H17_4 H 0.1395 0.3087 0.9420
H18_4 H 0.0928 0.3551 0.9874
C54_4 C 0.1456(2) 0.6653(3) 0.9858(9)
H31_4 H 0.1430 0.6789 0.9131
H32_4 H 0.0987 0.6286 0.9522
H22_4 H 0.9995 0.4071 0.1262
C42_6 C 1.0000 0.4772(3) 0.2500
C43_6 C 1.0000 0.5223(3) 0.2500
C83_4 C 0.7959(2) 0.2972(3) 0.4535(8)
C84_4 C 0.82429(18) 0.3249(2) 0.4251(8)
C85_4 C 0.8561(2) 0.3260(3) 0.4913(8)
H49_4 H 0.8605 0.3087 0.5580
C86_4 C 0.8844(2) 0.3534(3) 0.4629(8)
H50_4 H 0.9072 0.3551 0.5126
C87_4 C 0.8788(2) 0.3768(3) 0.3662(8)
C88_4 C 0.8461(2) 0.3740(3) 0.2963(9)
H51_4 H 0.8423 0.3884 0.2247
C89_4 C 0.8184(2) 0.3499(2) 0.3302(7)
H52_4 H 0.7946 0.3508 0.2859
C90_4 C 0.9106(2) 0.4015(3) 0.3372(9)
C91_4 C 0.9478(2) 0.3915(2) 0.3780(10)
H53_4 H 0.9534 0.3674 0.4271
C92_4 C 0.9759(2) 0.4159(2) 0.3480(8)
C93_4 C 0.9699(2) 0.4536(2) 0.2804(8)
C94_4 C 0.9315(2) 0.4627(2) 0.2310(9)
H55_4 H 0.9261 0.4856 0.1779
C95_4 C 0.9028(2) 0.4382(3) 0.2611(9)
H56_4 H 0.8782 0.4456 0.2317
C96_4 C 0.9719(2) 0.5476(2) 0.2922(8)
C97_4 C 0.9611(2) 0.5430(2) 0.3946(9)
H57_4 H 0.9737 0.5237 0.4493
C98_4 C 0.9302(2) 0.5676(3) 0.4215(9)
H58_4 H 0.9216 0.5621 0.4915
C99_4 C 0.9133(3) 0.5977(3) 0.3513(9)
C100_4 C 0.9242(3) 0.6010(3) 0.2426(10)
H59_4 H 0.9110 0.6198 0.1876
C101_4 C 0.9516(3) 0.5791(3) 0.2148(9)
H60_4 H 0.9586 0.5838 0.1421
C102_4 C 0.8813(2) 0.6211(3) 0.3828(9)
C103_4 C 0.8510(3) 0.6323(3) 0.2958(9)
H61_4 H 0.8507 0.6241 0.2185
C104_4 C 0.8224(2) 0.6550(3) 0.3273(8)
H62_4 H 0.8004 0.6584 0.2743
C105_4 C 0.8251(2) 0.6732(2) 0.4367(7)
C106_4 C 0.8544(2) 0.6653(3) 0.5142(9)
H63_4 H 0.8570 0.6789 0.5869
C107_4 C 0.8820(2) 0.6368(3) 0.4888(8)
H64_4 H 0.9013 0.6286 0.5478
C108_4 C 0.7953(2) 0.7014(3) 0.4584(8)
loop_
_geom_bond_atom_site_label_1
_geom_bond_atom_site_label_2
_geom_bond_site_symmetry_1
_geom_bond_site_symmetry_2
Zn8 O6 1_555 1_555
Zn1 O3 1_555 1_555
C16 C15 1_555 1_555
C17 C16 1_555 1_555
C18 C17 1_555 1_555
H10 C18 1_555 1_555
C19 C18 1_555 1_555
C20 C19 1_555 1_555
H11 C20 1_555 1_555
C21 C16 1_555 1_555
H12 C21 1_555 1_555
C22 C19 1_555 1_555
C23 C22 1_555 1_555
H13 C23 1_555 1_555
C24 C23 1_555 1_555
H14 C24 1_555 1_555
C25 C24 1_555 1_555
C26 C25 1_555 1_555
H15 C26 1_555 1_555
C27 C22 1_555 1_555
H16 C27 1_555 1_555
C28 C25 1_555 1_555
O3 C28 1_555 1_555
O4 C28 1_555 1_555
O5 Zn1 1_555 1_555
C29 O5 1_555 1_555
C30 C29 1_555 1_555
C31 C30 1_555 1_555
C32 C31 1_555 1_555
C33 C32 1_555 1_555
C34 C33 1_555 1_555
H19 C34 1_555 1_555
C35 C30 1_555 1_555
H20 C35 1_555 1_555
C36 C33 1_555 1_555
C37 C36 1_555 1_555
H21 C37 1_555 1_555
C38 C37 1_555 1_555
H22 C38 1_555 1_555
C39 C38 1_555 1_555
C40 C39 1_555 1_555
H23 C40 1_555 1_555
C41 C36 1_555 1_555
H24 C41 1_555 1_555
C42 C39 1_555 1_555
O13 C83 1_555 1_555
O14 C83 1_555 1_555
C83 C84 1_555 1_555
C84 C85 1_555 1_555
C85 H49 1_555 1_555
C86 C85 1_555 1_555
H50 C86 1_555 1_555
C87 C86 1_555 1_555
C88 C87 1_555 1_555
H51 C88 1_555 1_555
C89 C84 1_555 1_555
H52 C89 1_555 1_555
C90 C87 1_555 1_555
C91 C90 1_555 1_555
H53 C91 1_555 1_555
C92 C91 1_555 1_555
H54 C92 1_555 1_555
C93 C42 1_555 1_555
C94 C93 1_555 1_555
H55 C94 1_555 1_555
C95 C90 1_555 1_555
H56 C95 1_555 1_555
Zn5 O13 1_555 1_555
Zn9 O14 1_555 1_555
Zn12 O4 1_555 1_555
O17 Zn1 1_555 1_555
O23 Zn1 1_555 1_555
C20 C21 1_555 1_555
C26 C27 1_555 1_555
C34 C35 1_555 1_555
C40 C41 1_555 1_555
C88 C89 1_555 1_555
C92 C93 1_555 1_555
C94 C95 1_555 1_555
Zn2 O7 1_555 1_555
H31 C54 1_555 1_555
O19 Zn2 1_555 1_555
O21 Zn2 1_555 1_555
O27 Zn2 1_555 1_555
C44 C43 1_555 1_555
C45 C44 1_555 1_555
H25 C45 1_555 1_555
C46 C45 1_555 1_555
H26 C46 1_555 1_555
C47 C46 1_555 1_555
C48 C47 1_555 1_555
H27 C48 1_555 1_555
C49 C44 1_555 1_555
H28 C49 1_555 1_555
C50 C47 1_555 1_555
C51 C50 1_555 1_555
H29 C51 1_555 1_555
C52 C51 1_555 1_555
H30 C52 1_555 1_555
C53 C52 1_555 1_555
C55 C50 1_555 1_555
C56 C53 1_555 1_555
O8 C56 1_555 1_555
O9 C57 1_555 1_555
C57 O10 1_555 1_555
O10 Zn13 1_555 1_555
C58 C57 1_555 1_555
C59 C58 1_555 1_555
H33 C59 1_555 1_555
C60 C59 1_555 1_555
H34 C60 1_555 1_555
C61 C60 1_555 1_555
C62 C61 1_555 1_555
H35 C62 1_555 1_555
C63 C58 1_555 1_555
H36 C63 1_555 1_555
C64 C61 1_555 1_555
C65 C64 1_555 1_555
H37 C65 1_555 1_555
C66 C65 1_555 1_555
H38 C66 1_555 1_555
C67 C14 1_555 1_555
C68 C67 1_555 1_555
H39 C68 1_555 1_555
C69 C64 1_555 1_555
H40 C69 1_555 1_555
C96 C43 1_555 1_555
C97 C96 1_555 1_555
H57 C97 1_555 1_555
C98 C97 1_555 1_555
H58 C98 1_555 1_555
C99 C98 1_555 1_555
C100 C99 1_555 1_555
H59 C100 1_555 1_555
C101 C96 1_555 1_555
H60 C101 1_555 1_555
C102 C99 1_555 1_555
C103 C102 1_555 1_555
H61 C103 1_555 1_555
C104 C103 1_555 1_555
H62 C104 1_555 1_555
C105 C104 1_555 1_555
C106 C105 1_555 1_555
H63 C106 1_555 1_555
C107 C102 1_555 1_555
H64 C107 1_555 1_555
C108 C105 1_555 1_555
O15 C108 1_555 1_555
O16 C108 1_555 1_555
Zn7 O9 1_555 1_555
Zn10 O15 1_555 1_555
Zn13 O8 1_555 1_555
Zn14 O16 1_555 1_555
C48 C49 1_555 1_555
C62 C63 1_555 1_555
C66 C67 1_555 1_555
C68 C69 1_555 1_555
C100 C101 1_555 1_555
C106 C107 1_555 1_555
C70 C15_2 1_555 1_555
C71 C70 1_555 1_555
C72 C71 1_555 1_555
H42 C72 1_555 1_555
C73 C72 1_555 1_555
C74 C73 1_555 1_555
H43 C74 1_555 1_555
C75 C70 1_555 1_555
H44 C75 1_555 1_555
C76 C73 1_555 1_555
C77 C76 1_555 1_555
H45 C77 1_555 1_555
C74 C75 1_555 1_555
C79 C78 1_555 1_555
C80 C79 1_555 1_555
H47 C80 1_555 1_555
H48 C81 1_555 1_555
C82 C79 1_555 1_555
O11 C82 1_555 1_555
O12 C82 1_555 1_555
Zn5 O11 1_555 1_555
Zn11 O12 1_555 1_555
O18 Zn5 1_555 1_555
O24 Zn5 1_555 1_555
C80 C81 1_555 1_555
C6 C5 1_555 1_555
H3 C6 1_555 1_555
H4 C7 1_555 1_555
C8 C5 1_555 1_555
C9 C8 1_555 1_555
C10 C9 1_555 1_555
H6 C10 1_555 1_555
C11 C10 1_555 1_555
C12 C11 1_555 1_555
H7 C12 1_555 1_555
C13 C8 1_555 1_555
H8 C13 1_555 1_555
C14_2 C11 1_555 1_555
C6 C7 1_555 1_555
C12 C13 1_555 1_555
O1 C1 1_555 1_555
C1 O2 1_555 1_555
O2 Zn14 1_555 1_555
C2 C1 1_555 1_555
C3 C2 1_555 1_555
H1 C3 1_555 1_555
C4 C3 1_555 1_555
H2 C4 1_555 1_555
Zn14 O20 1_555 1_555
Zn6 O1 1_555 1_555
O25 Zn14 1_555 1_555
Zn13 O20_2 1_555 1_555
O25_2 Zn13 1_555 1_555
O19_2 Zn10 1_555 1_555
O21_2 Zn10 1_555 1_555
O27_2 Zn10 1_555 1_555
C43_2 C42_2 1_555 1_555
O13_2 C83_2 1_555 1_555
O14_2 C83_2 1_555 1_555
C83_2 C84_2 1_555 1_555
C84_2 C85_2 1_555 1_555
C85_2 H49_2 1_555 1_555
C86_2 C85_2 1_555 1_555
H50_2 C86_2 1_555 1_555
C87_2 C86_2 1_555 1_555
C88_2 C87_2 1_555 1_555
H51_2 C88_2 1_555 1_555
C89_2 C84_2 1_555 1_555
H52_2 C89_2 1_555 1_555
C90_2 C87_2 1_555 1_555
C91_2 C90_2 1_555 1_555
H53_2 C91_2 1_555 1_555
C92_2 C91_2 1_555 1_555
C93_2 C42_2 1_555 1_555
C94_2 C93_2 1_555 1_555
H55_2 C94_2 1_555 1_555
C95_2 C90_2 1_555 1_555
H56_2 C95_2 1_555 1_555
C96_2 C43_2 1_555 1_555
C97_2 C96_2 1_555 1_555
H57_2 C97_2 1_555 1_555
C98_2 C97_2 1_555 1_555
H58_2 C98_2 1_555 1_555
C99_2 C98_2 1_555 1_555
C100_2 C99_2 1_555 1_555
H59_2 C100_2 1_555 1_555
C101_2 C96_2 1_555 1_555
H60_2 C101_2 1_555 1_555
C102_2 C99_2 1_555 1_555
C103_2 C102_2 1_555 1_555
H61_2 C103_2 1_555 1_555
C104_2 C103_2 1_555 1_555
H62_2 C104_2 1_555 1_555
C105_2 C104_2 1_555 1_555
C106_2 C105_2 1_555 1_555
H63_2 C106_2 1_555 1_555
C107_2 C102_2 1_555 1_555
H64_2 C107_2 1_555 1_555
C108_2 C105_2 1_555 1_555
O15_2 C108_2 1_555 1_555
O16_2 C108_2 1_555 1_555
Zn7 O13_2 1_555 1_555
Zn9_2 O14_2 1_555 1_555
Zn10_2 O15_2 1_555 1_555
Zn12 O16_2 1_555 1_555
C88_2 C89_2 1_555 1_555
C92_2 C93_2 1_555 1_555
C94_2 C95_2 1_555 1_555
C100_2 C101_2 1_555 1_555
C106_2 C107_2 1_555 1_555
Zn2_2 O7_2 1_555 1_555
H31_2 C54_2 1_555 1_555
Zn8_2 O6_2 1_555 1_555
O19_3 Zn2_2 1_555 1_555
O21_3 Zn2_2 1_555 1_555
O27_3 Zn2_2 1_555 1_555
Zn6 O3_2 1_555 1_555
C6_2 C5_2 1_555 1_555
H3_2 C6_2 1_555 1_555
H4_2 C7_2 1_555 1_555
C8_2 C5_2 1_555 1_555
C9_2 C8_2 1_555 1_555
C10_2 C9_2 1_555 1_555
H6_2 C10_2 1_555 1_555
C11_2 C10_2 1_555 1_555
C12_2 C11_2 1_555 1_555
H7_2 C12_2 1_555 1_555
C13_2 C8_2 1_555 1_555
H8_2 C13_2 1_555 1_555
C14_3 C11_2 1_555 1_555
C15_3 C14_3 1_555 1_555
C16_2 C15_3 1_555 1_555
C17_2 C16_2 1_555 1_555
H9_2 C17_2 1_555 1_555
C18_2 C17_2 1_555 1_555
H10_2 C18_2 1_555 1_555
C19_2 C18_2 1_555 1_555
C20_2 C19_2 1_555 1_555
H11_2 C20_2 1_555 1_555
C21_2 C16_2 1_555 1_555
H12_2 C21_2 1_555 1_555
C22_2 C19_2 1_555 1_555
C23_2 C22_2 1_555 1_555
H13_2 C23_2 1_555 1_555
C24_2 C23_2 1_555 1_555
H14_2 C24_2 1_555 1_555
C25_2 C24_2 1_555 1_555
C26_2 C25_2 1_555 1_555
H15_2 C26_2 1_555 1_555
C27_2 C22_2 1_555 1_555
H16_2 C27_2 1_555 1_555
C28_2 C25_2 1_555 1_555
O3_2 C28_2 1_555 1_555
O20 C28_2 1_555 1_555
O5_2 Zn6 1_555 1_555
C29_2 O5_2 1_555 1_555
C30_2 C29_2 1_555 1_555
C31_2 C30_2 1_555 1_555
C32_2 C31_2 1_555 1_555
C33_2 C32_2 1_555 1_555
C34_2 C33_2 1_555 1_555
H19_2 C34_2 1_555 1_555
C35_2 C30_2 1_555 1_555
H20_2 C35_2 1_555 1_555
C36_2 C33_2 1_555 1_555
C37_2 C36_2 1_555 1_555
H21_2 C37_2 1_555 1_555
C38_2 C37_2 1_555 1_555
C39_2 C38_2 1_555 1_555
C40_2 C39_2 1_555 1_555
H23_2 C40_2 1_555 1_555
C41_2 C36_2 1_555 1_555
H24_2 C41_2 1_555 1_555
C42_3 C39_2 1_555 1_555
C43_3 C42_3 1_555 1_555
C44_2 C43_3 1_555 1_555
C45_2 C44_2 1_555 1_555
H25_2 C45_2 1_555 1_555
C46_2 C45_2 1_555 1_555
H26_2 C46_2 1_555 1_555
C47_2 C46_2 1_555 1_555
C48_2 C47_2 1_555 1_555
H27_2 C48_2 1_555 1_555
C49_2 C44_2 1_555 1_555
H28_2 C49_2 1_555 1_555
C50_2 C47_2 1_555 1_555
C51_2 C50_2 1_555 1_555
H29_2 C51_2 1_555 1_555
C52_2 C51_2 1_555 1_555
H30_2 C52_2 1_555 1_555
C53_2 C52_2 1_555 1_555
C55_2 C50_2 1_555 1_555
C56_2 C53_2 1_555 1_555
O8_2 C56_2 1_555 1_555
O18 C57_2 1_555 1_555
C57_2 O10_2 1_555 1_555
O10_2 Zn11 1_555 1_555
C58_2 C57_2 1_555 1_555
C59_2 C58_2 1_555 1_555
H33_2 C59_2 1_555 1_555
C60_2 C59_2 1_555 1_555
H34_2 C60_2 1_555 1_555
C61_2 C60_2 1_555 1_555
C62_2 C61_2 1_555 1_555
H35_2 C62_2 1_555 1_555
C63_2 C58_2 1_555 1_555
H36_2 C63_2 1_555 1_555
C64_2 C61_2 1_555 1_555
C65_2 C64_2 1_555 1_555
H37_2 C65_2 1_555 1_555
C66_2 C65_2 1_555 1_555
H38_2 C66_2 1_555 1_555
C67_2 C14_3 1_555 1_555
C68_2 C67_2 1_555 1_555
H39_2 C68_2 1_555 1_555
C69_2 C64_2 1_555 1_555
H40_2 C69_2 1_555 1_555
C70_2 C15_3 1_555 1_555
C71_2 C70_2 1_555 1_555
H41_2 C71_2 1_555 1_555
C72_2 C71_2 1_555 1_555
H42_2 C72_2 1_555 1_555
C73_2 C72_2 1_555 1_555
C74_2 C73_2 1_555 1_555
H43_2 C74_2 1_555 1_555
C75_2 C70_2 1_555 1_555
H44_2 C75_2 1_555 1_555
C76_2 C73_2 1_555 1_555
C77_2 C76_2 1_555 1_555
H45_2 C77_2 1_555 1_555
Zn11 O8_2 1_555 1_555
O23_2 Zn6 1_555 1_555
C6_2 C7_2 1_555 1_555
C12_2 C13_2 1_555 1_555
C20_2 C21_2 1_555 1_555
C26_2 C27_2 1_555 1_555
C34_2 C35_2 1_555 1_555
C40_2 C41_2 1_555 1_555
C48_2 C49_2 1_555 1_555
C62_2 C63_2 1_555 1_555
C66_2 C67_2 1_555 1_555
C68_2 C69_2 1_555 1_555
C74_2 C75_2 1_555 1_555
O17 C1_2 1_555 1_555
C1_2 O2_2 1_555 1_555
O2_2 Zn12 1_555 1_555
C2_2 C1_2 1_555 1_555
C3_2 C2_2 1_555 1_555
H1_2 C3_2 1_555 1_555
C4_2 C3_2 1_555 1_555
H2_2 C4_2 1_555 1_555
C79_2 C78_2 1_555 1_555
C80_2 C79_2 1_555 1_555
H47_2 C80_2 1_555 1_555
H48_2 C81_2 1_555 1_555
C82_2 C79_2 1_555 1_555
O11_2 C82_2 1_555 1_555
O20_2 C82_2 1_555 1_555
Zn7 O11_2 1_555 1_555
O24_2 Zn7 1_555 1_555
O25_3 Zn12 1_555 1_555
C80_2 C81_2 1_555 1_555
O25_4 Zn11 1_555 1_555
O19_4 Zn10_2 1_555 1_555
O21_4 Zn10_2 1_555 1_555
O27_4 Zn10_2 1_555 1_555
O1_2 C1_3 1_555 1_555
C1_3 O19_4 1_555 1_555
C2_3 C1_3 1_555 1_555
C3_3 C2_3 1_555 1_555
H1_3 C3_3 1_555 1_555
C4_3 C3_3 1_555 1_555
H2_3 C4_3 1_555 1_555
Zn8 O1_2 1_555 1_555
C6_3 C5_3 1_555 1_555
H3_3 C6_3 1_555 1_555
H4_3 C7_3 1_555 1_555
C8_3 C5_3 1_555 1_555
C9_3 C8_3 1_555 1_555
C10_3 C9_3 1_555 1_555
H6_3 C10_3 1_555 1_555
C11_3 C10_3 1_555 1_555
C12_3 C11_3 1_555 1_555
H7_3 C12_3 1_555 1_555
C13_3 C8_3 1_555 1_555
H8_3 C13_3 1_555 1_555
C14_4 C11_3 1_555 1_555
C6_3 C7_3 1_555 1_555
C12_3 C13_3 1_555 1_555
C79_3 C78_3 1_555 1_555
C80_3 C79_3 1_555 1_555
H47_3 C80_3 1_555 1_555
H48_3 C81_3 1_555 1_555
C82_3 C79_3 1_555 1_555
O11_3 C82_3 1_555 1_555
O21 C82_3 1_555 1_555
Zn9_2 O11_3 1_555 1_555
O18_2 Zn9_2 1_555 1_555
O22 Zn9_2 1_555 1_555
C80_3 C81_3 1_555 1_555
C70_3 C15_4 1_555 1_555
C71_3 C70_3 1_555 1_555
C72_3 C71_3 1_555 1_555
H42_3 C72_3 1_555 1_555
C73_3 C72_3 1_555 1_555
C74_3 C73_3 1_555 1_555
H43_3 C74_3 1_555 1_555
C75_3 C70_3 1_555 1_555
H44_3 C75_3 1_555 1_555
C76_3 C73_3 1_555 1_555
C77_3 C76_3 1_555 1_555
H45_3 C77_3 1_555 1_555
C74_3 C75_3 1_555 1_555
C44_3 C43_4 1_555 1_555
C45_3 C44_3 1_555 1_555
H25_3 C45_3 1_555 1_555
C46_3 C45_3 1_555 1_555
H26_3 C46_3 1_555 1_555
C47_3 C46_3 1_555 1_555
C48_3 C47_3 1_555 1_555
H27_3 C48_3 1_555 1_555
C49_3 C44_3 1_555 1_555
H28_3 C49_3 1_555 1_555
C50_3 C47_3 1_555 1_555
C51_3 C50_3 1_555 1_555
H29_3 C51_3 1_555 1_555
C52_3 C51_3 1_555 1_555
H30_3 C52_3 1_555 1_555
C53_3 C52_3 1_555 1_555
C55_3 C50_3 1_555 1_555
C56_3 C53_3 1_555 1_555
O27_3 C56_3 1_555 1_555
O9_2 C57_3 1_555 1_555
C57_3 O19_3 1_555 1_555
C58_3 C57_3 1_555 1_555
C59_3 C58_3 1_555 1_555
H33_3 C59_3 1_555 1_555
C60_3 C59_3 1_555 1_555
H34_3 C60_3 1_555 1_555
C61_3 C60_3 1_555 1_555
C62_3 C61_3 1_555 1_555
H35_3 C62_3 1_555 1_555
C63_3 C58_3 1_555 1_555
H36_3 C63_3 1_555 1_555
C64_3 C61_3 1_555 1_555
C65_3 C64_3 1_555 1_555
H37_3 C65_3 1_555 1_555
C66_3 C65_3 1_555 1_555
H38_3 C66_3 1_555 1_555
C67_3 C14_5 1_555 1_555
C68_3 C67_3 1_555 1_555
H39_3 C68_3 1_555 1_555
C69_3 C64_3 1_555 1_555
H40_3 C69_3 1_555 1_555
C96_3 C43_4 1_555 1_555
C97_3 C96_3 1_555 1_555
H57_3 C97_3 1_555 1_555
C98_3 C97_3 1_555 1_555
H58_3 C98_3 1_555 1_555
C99_3 C98_3 1_555 1_555
C100_3 C99_3 1_555 1_555
H59_3 C100_3 1_555 1_555
C101_3 C96_3 1_555 1_555
H60_3 C101_3 1_555 1_555
C102_3 C99_3 1_555 1_555
C103_3 C102_3 1_555 1_555
H61_3 C103_3 1_555 1_555
C104_3 C103_3 1_555 1_555
H62_3 C104_3 1_555 1_555
C105_3 C104_3 1_555 1_555
C106_3 C105_3 1_555 1_555
H63_3 C106_3 1_555 1_555
C107_3 C102_3 1_555 1_555
H64_3 C107_3 1_555 1_555
C108_3 C105_3 1_555 1_555
O25_3 C108_3 1_555 1_555
O27_4 C108_3 1_555 1_555
Zn9 O9_2 1_555 1_555
C48_3 C49_3 1_555 1_555
C62_3 C63_3 1_555 1_555
C66_3 C67_3 1_555 1_555
C68_3 C69_3 1_555 1_555
C100_3 C101_3 1_555 1_555
C106_3 C107_3 1_555 1_555
H31_3 C54_3 1_555 1_555
Zn8_2 O3_3 1_555 1_555
C16_3 C15_5 1_555 1_555
C17_3 C16_3 1_555 1_555
C18_3 C17_3 1_555 1_555
H10_3 C18_3 1_555 1_555
C19_3 C18_3 1_555 1_555
C20_3 C19_3 1_555 1_555
H11_3 C20_3 1_555 1_555
C21_3 C16_3 1_555 1_555
H12_3 C21_3 1_555 1_555
C22_3 C19_3 1_555 1_555
C23_3 C22_3 1_555 1_555
H13_3 C23_3 1_555 1_555
C24_3 C23_3 1_555 1_555
H14_3 C24_3 1_555 1_555
C25_3 C24_3 1_555 1_555
C26_3 C25_3 1_555 1_555
H15_3 C26_3 1_555 1_555
C27_3 C22_3 1_555 1_555
H16_3 C27_3 1_555 1_555
C28_3 C25_3 1_555 1_555
O3_3 C28_3 1_555 1_555
O21_2 C28_3 1_555 1_555
O5_3 Zn8_2 1_555 1_555
C29_3 O5_3 1_555 1_555
C30_3 C29_3 1_555 1_555
C31_3 C30_3 1_555 1_555
C32_3 C31_3 1_555 1_555
C33_3 C32_3 1_555 1_555
C34_3 C33_3 1_555 1_555
H19_3 C34_3 1_555 1_555
C35_3 C30_3 1_555 1_555
H20_3 C35_3 1_555 1_555
C36_3 C33_3 1_555 1_555
C37_3 C36_3 1_555 1_555
H21_3 C37_3 1_555 1_555
C38_3 C37_3 1_555 1_555
H22_3 C38_3 1_555 1_555
C39_3 C38_3 1_555 1_555
C40_3 C39_3 1_555 1_555
H23_3 C40_3 1_555 1_555
C41_3 C36_3 1_555 1_555
H24_3 C41_3 1_555 1_555
C42_4 C39_3 1_555 1_555
O22 C83_3 1_555 1_555
O24_2 C83_3 1_555 1_555
C83_3 C84_3 1_555 1_555
C84_3 C85_3 1_555 1_555
C85_3 H49_3 1_555 1_555
C86_3 C85_3 1_555 1_555
H50_3 C86_3 1_555 1_555
C87_3 C86_3 1_555 1_555
C88_3 C87_3 1_555 1_555
H51_3 C88_3 1_555 1_555
C89_3 C84_3 1_555 1_555
H52_3 C89_3 1_555 1_555
C90_3 C87_3 1_555 1_555
C91_3 C90_3 1_555 1_555
H53_3 C91_3 1_555 1_555
C92_3 C91_3 1_555 1_555
H54_3 C92_3 1_555 1_555
C93_3 C42_4 1_555 1_555
C94_3 C93_3 1_555 1_555
H55_3 C94_3 1_555 1_555
C95_3 C90_3 1_555 1_555
H56_3 C95_3 1_555 1_555
O17_2 Zn8_2 1_555 1_555
C20_3 C21_3 1_555 1_555
C26_3 C27_3 1_555 1_555
C34_3 C35_3 1_555 1_555
C40_3 C41_3 1_555 1_555
C88_3 C89_3 1_555 1_555
C92_3 C93_3 1_555 1_555
C94_3 C95_3 1_555 1_555
O17_2 C1_4 1_555 1_555
C1_4 O19_2 1_555 1_555
C2_4 C1_4 1_555 1_555
C3_4 C2_4 1_555 1_555
H1_4 C3_4 1_555 1_555
C4_4 C3_4 1_555 1_555
H2_4 C4_4 1_555 1_555
C79_4 C78_4 1_555 1_555
C80_4 C79_4 1_555 1_555
H47_4 C80_4 1_555 1_555
H48_4 C81_4 1_555 1_555
C82_4 C79_4 1_555 1_555
O11_4 C82_4 1_555 1_555
O21_3 C82_4 1_555 1_555
Zn9 O11_4 1_555 1_555
O22_2 Zn9 1_555 1_555
C80_4 C81_4 1_555 1_555
Zn8 O3_4 1_555 1_555
C6_4 C5_4 1_555 1_555
H3_4 C6_4 1_555 1_555
H4_4 C7_4 1_555 1_555
C8_4 C5_4 1_555 1_555
C9_4 C8_4 1_555 1_555
C10_4 C9_4 1_555 1_555
H6_4 C10_4 1_555 1_555
C11_4 C10_4 1_555 1_555
C12_4 C11_4 1_555 1_555
H7_4 C12_4 1_555 1_555
C13_4 C8_4 1_555 1_555
H8_4 C13_4 1_555 1_555
C14_6 C11_4 1_555 1_555
C15_6 C14_6 1_555 1_555
C16_4 C15_6 1_555 1_555
C17_4 C16_4 1_555 1_555
H9_4 C17_4 1_555 1_555
C18_4 C17_4 1_555 1_555
H10_4 C18_4 1_555 1_555
C19_4 C18_4 1_555 1_555
C20_4 C19_4 1_555 1_555
H11_4 C20_4 1_555 1_555
C21_4 C16_4 1_555 1_555
H12_4 C21_4 1_555 1_555
C22_4 C19_4 1_555 1_555
C23_4 C22_4 1_555 1_555
H13_4 C23_4 1_555 1_555
C24_4 C23_4 1_555 1_555
H14_4 C24_4 1_555 1_555
C25_4 C24_4 1_555 1_555
C26_4 C25_4 1_555 1_555
H15_4 C26_4 1_555 1_555
C27_4 C22_4 1_555 1_555
H16_4 C27_4 1_555 1_555
C28_4 C25_4 1_555 1_555
O3_4 C28_4 1_555 1_555
O21_4 C28_4 1_555 1_555
O5_4 Zn8 1_555 1_555
C29_4 O5_4 1_555 1_555
C30_4 C29_4 1_555 1_555
C31_4 C30_4 1_555 1_555
C32_4 C31_4 1_555 1_555
C33_4 C32_4 1_555 1_555
C34_4 C33_4 1_555 1_555
H19_4 C34_4 1_555 1_555
C35_4 C30_4 1_555 1_555
H20_4 C35_4 1_555 1_555
C36_4 C33_4 1_555 1_555
C37_4 C36_4 1_555 1_555
H21_4 C37_4 1_555 1_555
C38_4 C37_4 1_555 1_555
C39_4 C38_4 1_555 1_555
C40_4 C39_4 1_555 1_555
H23_4 C40_4 1_555 1_555
C41_4 C36_4 1_555 1_555
H24_4 C41_4 1_555 1_555
C42_5 C39_4 1_555 1_555
C43_5 C42_5 1_555 1_555
C44_4 C43_5 1_555 1_555
C45_4 C44_4 1_555 1_555
H25_4 C45_4 1_555 1_555
C46_4 C45_4 1_555 1_555
H26_4 C46_4 1_555 1_555
C47_4 C46_4 1_555 1_555
C48_4 C47_4 1_555 1_555
H27_4 C48_4 1_555 1_555
C49_4 C44_4 1_555 1_555
H28_4 C49_4 1_555 1_555
C50_4 C47_4 1_555 1_555
C51_4 C50_4 1_555 1_555
H29_4 C51_4 1_555 1_555
C52_4 C51_4 1_555 1_555
H30_4 C52_4 1_555 1_555
C53_4 C52_4 1_555 1_555
C55_4 C50_4 1_555 1_555
C56_4 C53_4 1_555 1_555
O27 C56_4 1_555 1_555
O18_2 C57_4 1_555 1_555
C57_4 O19 1_555 1_555
C58_4 C57_4 1_555 1_555
C59_4 C58_4 1_555 1_555
H33_4 C59_4 1_555 1_555
C60_4 C59_4 1_555 1_555
H34_4 C60_4 1_555 1_555
C61_4 C60_4 1_555 1_555
C62_4 C61_4 1_555 1_555
H35_4 C62_4 1_555 1_555
C63_4 C58_4 1_555 1_555
H36_4 C63_4 1_555 1_555
C64_4 C61_4 1_555 1_555
C65_4 C64_4 1_555 1_555
H37_4 C65_4 1_555 1_555
C66_4 C65_4 1_555 1_555
H38_4 C66_4 1_555 1_555
C67_4 C14_6 1_555 1_555
C68_4 C67_4 1_555 1_555
H39_4 C68_4 1_555 1_555
C69_4 C64_4 1_555 1_555
H40_4 C69_4 1_555 1_555
C70_4 C15_6 1_555 1_555
C71_4 C70_4 1_555 1_555
H41_4 C71_4 1_555 1_555
C72_4 C71_4 1_555 1_555
H42_4 C72_4 1_555 1_555
C73_4 C72_4 1_555 1_555
C74_4 C73_4 1_555 1_555
H43_4 C74_4 1_555 1_555
C75_4 C70_4 1_555 1_555
H44_4 C75_4 1_555 1_555
C76_4 C73_4 1_555 1_555
C77_4 C76_4 1_555 1_555
H45_4 C77_4 1_555 1_555
C6_4 C7_4 1_555 1_555
C12_4 C13_4 1_555 1_555
C20_4 C21_4 1_555 1_555
C26_4 C27_4 1_555 1_555
C34_4 C35_4 1_555 1_555
C40_4 C41_4 1_555 1_555
C48_4 C49_4 1_555 1_555
C62_4 C63_4 1_555 1_555
C66_4 C67_4 1_555 1_555
C68_4 C69_4 1_555 1_555
C74_4 C75_4 1_555 1_555
H31_4 C54_4 1_555 1_555
C43_6 C42_6 1_555 1_555
O22_2 C83_4 1_555 1_555
O24 C83_4 1_555 1_555
C83_4 C84_4 1_555 1_555
C84_4 C85_4 1_555 1_555
C85_4 H49_4 1_555 1_555
C86_4 C85_4 1_555 1_555
H50_4 C86_4 1_555 1_555
C87_4 C86_4 1_555 1_555
C88_4 C87_4 1_555 1_555
H51_4 C88_4 1_555 1_555
C89_4 C84_4 1_555 1_555
H52_4 C89_4 1_555 1_555
C90_4 C87_4 1_555 1_555
C91_4 C90_4 1_555 1_555
H53_4 C91_4 1_555 1_555
C92_4 C91_4 1_555 1_555
C93_4 C42_6 1_555 1_555
C94_4 C93_4 1_555 1_555
H55_4 C94_4 1_555 1_555
C95_4 C90_4 1_555 1_555
H56_4 C95_4 1_555 1_555
C96_4 C43_6 1_555 1_555
C97_4 C96_4 1_555 1_555
H57_4 C97_4 1_555 1_555
C98_4 C97_4 1_555 1_555
H58_4 C98_4 1_555 1_555
C99_4 C98_4 1_555 1_555
C100_4 C99_4 1_555 1_555
H59_4 C100_4 1_555 1_555
C101_4 C96_4 1_555 1_555
H60_4 C101_4 1_555 1_555
C102_4 C99_4 1_555 1_555
C103_4 C102_4 1_555 1_555
H61_4 C103_4 1_555 1_555
C104_4 C103_4 1_555 1_555
H62_4 C104_4 1_555 1_555
C105_4 C104_4 1_555 1_555
C106_4 C105_4 1_555 1_555
H63_4 C106_4 1_555 1_555
C107_4 C102_4 1_555 1_555
H64_4 C107_4 1_555 1_555
C108_4 C105_4 1_555 1_555
O25 C108_4 1_555 1_555
O27_2 C108_4 1_555 1_555
C88_4 C89_4 1_555 1_555
C92_4 C93_4 1_555 1_555
C94_4 C95_4 1_555 1_555
C100_4 C101_4 1_555 1_555
C106_4 C107_4 1_555 1_555

#END
