
###############################################################################
#
# This file contains modified crystal structure data generated from the
# MOF subset of the Cambridge Structural Database (CSD) v543 
# hosted by the Cambridge Crystallographic Data Centre (CCDC).
#
# This work is licensed under the Creative Commons
# Attribution-NonCommercial-ShareAlike 4.0 International License.
# To view a copy of this license, visit
# http://creativecommons.org/licenses/by-nc-sa/4.0/
# or send a letter to
# Creative Commons, PO Box 1866, Mountain View, CA 94042, USA.
#
# CIF created using the CSD Python API on 29 September 2022
# The structure has been converted into the P1 space group
# The structure has a 3D framework
# The original CSD entry GOVXIA is in the monoclinic crystal system
# The framework has been calculated to contain at least 10.0% void space
# The void calculation uses a probe of radius 1.32A, grid spacing 0.4
#
###############################################################################

data_GOVXIA
_chemical_formula_moiety         '(C184 H152 Co8 N16 O48)n'
_symmetry_cell_setting           triclinic
_symmetry_space_group_name_H-M   'P 1'
_symmetry_Int_Tables_number      1
_space_group_name_Hall           'P 1'
loop_
_symmetry_equiv_pos_site_id
_symmetry_equiv_pos_as_xyz
1 x,y,z
_cell_length_a                   13.6257(7)
_cell_length_b                   25.2675(12)
_cell_length_c                   16.8185(8)
_cell_angle_alpha                90
_cell_angle_beta                 105.815(2)
_cell_angle_gamma                90
_cell_volume                     5571.21
loop_
_atom_site_label
_atom_site_type_symbol
_atom_site_fract_x
_atom_site_fract_y
_atom_site_fract_z
Co1 Co 0.10481(2) 0.281760(13) 0.090942(18)
Co2 Co 0.25295(2) 0.244250(12) 0.260472(18)
O3 O 0.16714(12) 0.21257(6) 0.13306(9)
O4 O 0.00394(12) 0.20045(7) 0.12490(10)
O8 O 0.35007(12) 0.17504(6) 0.26578(10)
O9 O 0.21001(12) 0.17393(6) 0.30650(10)
C19 C 0.08936(17) 0.18146(9) 0.12960(12)
C20 C 0.10511(17) 0.12352(9) 0.12658(13)
C21 C 0.02857(19) 0.08992(10) 0.13649(17)
C22 C 0.0376(2) 0.03571(10) 0.13002(18)
C23 C 0.12329(19) 0.01517(9) 0.11173(15)
C24 C 0.20082(19) 0.04796(10) 0.10141(15)
H25 H 0.2592 0.0335 0.0889
C25 C 0.19138(18) 0.10212(9) 0.10964(15)
H26 H 0.2444 0.1249 0.1037
C33 C 0.28816(17) 0.15044(9) 0.29633(13)
C34 C 0.30645(17) 0.09407(9) 0.32209(13)
C35 C 0.24012(17) 0.06797(9) 0.35925(15)
H31 H 0.1811 0.0857 0.3653
C36 C 0.25961(18) 0.01667(9) 0.38732(15)
C38 C 0.41131(18) 0.01538(9) 0.33878(15)
C39 C 0.39084(18) 0.06729(9) 0.31156(14)
H34 H 0.4354 0.0846 0.2853
O13 O 0.03366(13) 0.32404(7) 0.15362(10)
O14 O 0.14025(12) 0.29601(6) 0.27187(10)
O15 O 0.22727(12) 0.32277(6) 0.08689(10)
O16 O 0.33328(12) 0.28853(6) 0.20169(10)
N5 N 0.33595(14) 0.26697(7) 0.38117(11)
O5 O 0.13573(15) 0.96147(7) 0.10044(12)
O10 O 0.36134(14) 0.94045(7) 0.41064(12)
O11 O 0.77273(12) 0.82277(6) 0.41311(10)
O12 O 0.66672(12) 0.78853(6) 0.29831(10)
C26 C 0.08461(19) 0.92770(9) 0.14149(15)
C30 C 0.0725(2) 0.88723(10) 0.26634(15)
H29 H 0.0978 0.8825 0.3244
C31 C 0.1220(2) 0.92137(10) 0.22578(16)
H30 H 0.1810 0.9402 0.2556
H32 H 0.2145 0.9991 0.4128
C37 C 0.34629(18) 0.99083(9) 0.37785(14)
H33 H 0.4688 0.9971 0.3307
C40 C 0.44246(19) 0.91091(9) 0.39756(16)
C41 C 0.4300(2) 0.88445(11) 0.32420(17)
H35 H 0.3679 0.8873 0.2816
C42 C 0.5091(2) 0.85362(11) 0.31330(16)
H36 H 0.5013 0.8349 0.2629
C43 C 0.59973(18) 0.84975(9) 0.37520(14)
C44 C 0.6093(2) 0.87564(11) 0.44940(17)
H37 H 0.6706 0.8724 0.4927
C45 C 0.5299(2) 0.90637(11) 0.46102(17)
H38 H 0.5360 0.9240 0.5121
C46 C 0.68617(17) 0.81806(9) 0.36138(13)
Co4 Co 0.89519(2) 0.781760(13) 0.409058(18)
Co6 Co 0.74705(2) 0.744250(12) 0.239528(18)
O6 O 0.96634(13) 0.82404(7) 0.34638(10)
O7 O 0.85975(12) 0.79601(6) 0.22813(10)
C27 C 0.9995(2) 0.90087(10) 0.09653(15)
H27 H 0.9749 0.9057 0.0385
C28 C 0.9502(2) 0.86671(10) 0.13773(15)
H28 H 0.8915 0.8479 0.1075
C29 C 0.98587(17) 0.85979(9) 0.22266(14)
C32 C 0.93306(17) 0.82387(9) 0.26823(14)
O1 O 0.25994(14) 0.70592(8) 0.78590(10)
N2 N 0.12736(15) 0.76282(8) 0.77981(12)
H1 H 0.1014 0.7832 0.8114
C1 C 0.05722(18) 0.74257(10) 0.55463(14)
H3 H 0.0763 0.7214 0.5145
C2 C 0.11233(17) 0.73721(10) 0.63608(14)
H4 H 0.1683 0.7134 0.6513
C3 C 0.08413(17) 0.76750(9) 0.69581(13)
C4 C 0.00277(18) 0.80292(9) 0.66916(14)
C6 C 0.20662(18) 0.73004(10) 0.82061(14)
C7 C 0.21704(19) 0.72752(11) 0.91224(14)
H7 H 0.1486 0.7215 0.9204
H8 H 0.2417 0.7623 0.9370
C8 C 0.2886(2) 0.68485(11) 0.95838(14)
H9 H 0.3583 0.6913 0.9533
H10 H 0.2657 0.6498 0.9338
H23 H 0.0306 0.6044 0.3522
H24 H 0.0142 0.5128 0.3620
C27_2 C 0.0005(2) 0.40087(10) 0.40347(15)
H27_2 H 0.0251 0.4057 0.4615
C28_2 C 0.0498(2) 0.36671(10) 0.36227(15)
H28_2 H 0.1085 0.3479 0.3925
C29_2 C 0.01413(17) 0.35979(9) 0.27734(14)
C32_2 C 0.06694(17) 0.32387(9) 0.23177(14)
O3_2 O 0.83286(12) 0.71257(6) 0.36694(9)
O4_2 O 0.99606(12) 0.70045(7) 0.37510(10)
O5_2 O 0.86427(15) 0.46147(7) 0.39956(12)
O8_2 O 0.64993(12) 0.67504(6) 0.23422(10)
O9_2 O 0.78999(12) 0.67393(6) 0.19350(10)
O10_2 O 0.63866(14) 0.44045(7) 0.08936(12)
N1 N 0.97793(14) 0.77599(8) 0.52847(11)
H5 H 0.9826 0.8248 0.7078
C5 C 0.95242(18) 0.80571(9) 0.58652(14)
H6 H 0.8970 0.8297 0.5694
C19_2 C 0.91064(17) 0.68146(9) 0.37040(12)
C20_2 C 0.89489(17) 0.62352(9) 0.37342(13)
C21_2 C 0.97143(19) 0.58992(10) 0.36351(17)
C22_2 C 0.9624(2) 0.53571(10) 0.36998(18)
C23_2 C 0.87671(19) 0.51517(9) 0.38827(15)
C24_2 C 0.79918(19) 0.54796(10) 0.39859(15)
H25_2 H 0.7408 0.5335 0.4111
C25_2 C 0.80862(18) 0.60212(9) 0.39036(15)
H26_2 H 0.7556 0.6249 0.3963
C26_2 C 0.91539(19) 0.42770(9) 0.35851(15)
C30_2 C 0.9275(2) 0.38723(10) 0.23366(15)
H29_2 H 0.9022 0.3825 0.1756
C31_2 C 0.8780(2) 0.42137(10) 0.27422(16)
H30_2 H 0.8190 0.4402 0.2444
C33_2 C 0.71184(17) 0.65044(9) 0.20367(13)
C34_2 C 0.69355(17) 0.59407(9) 0.17791(13)
C35_2 C 0.75988(17) 0.56797(9) 0.14075(15)
H31_2 H 0.8189 0.5857 0.1347
C36_2 C 0.74039(18) 0.51667(9) 0.11268(15)
H32_2 H 0.7855 0.4991 0.0872
C37_2 C 0.65371(18) 0.49083(9) 0.12215(14)
C38_2 C 0.58869(18) 0.51538(9) 0.16122(15)
H33_2 H 0.5312 0.4971 0.1693
C39_2 C 0.60916(18) 0.56729(9) 0.18844(14)
H34_2 H 0.5646 0.5846 0.2147
C40_2 C 0.55754(19) 0.41091(9) 0.10244(16)
C41_2 C 0.5700(2) 0.38445(11) 0.17580(17)
H35_2 H 0.6321 0.3873 0.2184
C42_2 C 0.4909(2) 0.35362(11) 0.18670(16)
H36_2 H 0.4987 0.3349 0.2371
C43_2 C 0.40027(18) 0.34975(9) 0.12480(14)
C44_2 C 0.3907(2) 0.37564(11) 0.05060(17)
H37_2 H 0.3294 0.3724 0.0073
C45_2 C 0.4701(2) 0.40637(11) 0.03898(17)
C46_2 C 0.31383(17) 0.31806(9) 0.13862(13)
N5_2 N 0.66405(14) 0.76697(7) 0.11883(11)
C15 C 0.51096(19) 0.78519(11) 0.01085(15)
C16 C 0.56309(19) 0.77456(11) 0.09213(15)
H20 H 0.5248 0.7725 0.1315
C17 C 0.71643(17) 0.77031(9) 0.06217(14)
H21 H 0.7881 0.7649 0.0796
O2 O 0.63580(14) 0.32208(9) 0.63712(11)
N3 N 0.47511(16) 0.29589(9) 0.63235(12)
H2 H 0.4332 0.2911 0.6634
C9 C 0.7100(2) 0.31515(11) 0.95056(15)
H11 H 0.7810 0.3184 0.9466
H12 H 0.6830 0.2807 0.9259
C10 C 0.6462(2) 0.35949(12) 0.90001(16)
H13 H 0.5751 0.3565 0.9036
H14 H 0.6733 0.3940 0.9240
C11 C 0.6464(2) 0.35791(11) 0.80878(15)
H15 H 0.7176 0.3592 0.8051
H16 H 0.6103 0.3894 0.7801
C12 C 0.5948(2) 0.30804(12) 0.76599(15)
H17 H 0.5299 0.3027 0.7807
H18 H 0.6392 0.2772 0.7869
C13 C 0.57265(19) 0.30991(11) 0.67318(14)
C14 C 0.43332(18) 0.28813(9) 0.54739(14)
C15_2 C 0.48904(19) 0.28519(11) 0.48915(15)
H19 H 0.5608 0.2904 0.5049
C16_2 C 0.43691(19) 0.27456(11) 0.40787(15)
H20_2 H 0.4752 0.2725 0.3685
C17_2 C 0.28357(17) 0.27031(9) 0.43783(14)
H21_2 H 0.2119 0.2649 0.4204
C18 C 0.32805(17) 0.28122(9) 0.51995(14)
H22 H 0.2874 0.2840 0.5575
N1_2 N 0.02207(14) 0.27599(8) 0.97153(11)
H5_2 H 0.0174 0.3248 0.7922
C5_2 C 0.04758(18) 0.30571(9) 0.91348(14)
H6_2 H 0.1030 0.3297 0.9306
H23_2 H 0.9694 0.1044 0.1478
H24_2 H 0.9858 0.0128 0.1380
O1_2 O 0.74006(14) 0.20592(8) 0.71410(10)
O2_2 O 0.63580(14) 0.17792(9) 0.13712(11)
N2_2 N 0.87264(15) 0.26282(8) 0.72019(12)
H1_2 H 0.8986 0.2832 0.6886
N3_2 N 0.47511(16) 0.20411(9) 0.13235(12)
H2_2 H 0.4332 0.2089 0.1634
C1_2 C 0.94278(18) 0.24257(10) 0.94537(14)
H3_2 H 0.9237 0.2214 0.9855
C2_2 C 0.88767(17) 0.23721(10) 0.86392(14)
H4_2 H 0.8317 0.2134 0.8487
C3_2 C 0.91587(17) 0.26750(9) 0.80419(13)
C4_2 C 0.99723(18) 0.30292(9) 0.83084(14)
C6_2 C 0.79338(18) 0.23004(10) 0.67939(14)
C7_2 C 0.78296(19) 0.22752(11) 0.58776(14)
H7_2 H 0.8514 0.2215 0.5796
H8_2 H 0.7583 0.2623 0.5630
C8_2 C 0.7114(2) 0.18485(11) 0.54162(14)
H9_2 H 0.6417 0.1913 0.5467
H10_2 H 0.7343 0.1498 0.5662
C9_2 C 0.7100(2) 0.18485(11) 0.45056(15)
H11_2 H 0.7810 0.1816 0.4466
H12_2 H 0.6830 0.2193 0.4259
C10_2 C 0.6462(2) 0.14051(12) 0.40001(16)
H13_2 H 0.5751 0.1435 0.4036
H14_2 H 0.6733 0.1060 0.4240
C11_2 C 0.6464(2) 0.14209(11) 0.30878(15)
H15_2 H 0.7176 0.1408 0.3051
H16_2 H 0.6103 0.1106 0.2801
C12_2 C 0.5948(2) 0.19196(12) 0.26599(15)
H17_2 H 0.5299 0.1973 0.2807
H18_2 H 0.6392 0.2228 0.2869
C13_2 C 0.57265(19) 0.19009(11) 0.17318(14)
C14_2 C 0.43332(18) 0.21187(9) 0.04739(14)
H19_2 H 0.5608 0.2096 0.0049
C18_2 C 0.32805(17) 0.21878(9) 0.01995(14)
H22_2 H 0.2874 0.2160 0.0575
N4 N 0.33595(14) 0.23303(7) 0.88117(11)
C15_3 C 0.48904(19) 0.21481(11) 0.98915(15)
C16_3 C 0.43691(19) 0.22544(11) 0.90787(15)
H20_3 H 0.4752 0.2275 0.8685
C17_3 C 0.28357(17) 0.22969(9) 0.93783(14)
H21_3 H 0.2119 0.2351 0.9204
Co7 Co 0.25295(2) 0.255750(12) 0.760472(18)
O2_3 O 0.36420(14) 0.67792(9) 0.36288(11)
N3_3 N 0.52489(16) 0.70411(9) 0.36765(12)
H2_3 H 0.5668 0.7089 0.3366
N4_2 N 0.66405(14) 0.73303(7) 0.61883(11)
C9_3 C 0.2900(2) 0.68485(11) 0.04944(15)
H11_3 H 0.2190 0.6816 0.0534
H12_3 H 0.3170 0.7193 0.0741
C10_3 C 0.3538(2) 0.64051(12) 0.09999(16)
H13_3 H 0.4249 0.6435 0.0964
H14_3 H 0.3267 0.6060 0.0760
C11_3 C 0.3536(2) 0.64209(11) 0.19122(15)
H15_3 H 0.2824 0.6408 0.1949
H16_3 H 0.3897 0.6106 0.2199
C12_3 C 0.4052(2) 0.69196(12) 0.23401(15)
H17_3 H 0.4701 0.6973 0.2193
H18_3 H 0.3608 0.7228 0.2131
C13_3 C 0.42735(19) 0.69009(11) 0.32682(14)
C14_3 C 0.56668(18) 0.71187(9) 0.45261(14)
C15_4 C 0.51096(19) 0.71481(11) 0.51085(15)
H19_3 H 0.4392 0.7096 0.4951
C16_4 C 0.56309(19) 0.72544(11) 0.59213(15)
H20_4 H 0.5248 0.7275 0.6315
C17_4 C 0.71643(17) 0.72969(9) 0.56217(14)
H21_4 H 0.7881 0.7351 0.5796
C18_3 C 0.67195(17) 0.71878(9) 0.48005(14)
H22_3 H 0.7126 0.7160 0.4425
Co7_2 Co 0.74705(2) 0.755750(12) 0.739528(18)
O6_2 O 0.03366(13) 0.17596(7) 0.65362(10)
O7_2 O 0.14025(12) 0.20399(6) 0.77187(10)
C27_3 C 0.0005(2) 0.09913(10) 0.90347(15)
H27_3 H 0.0251 0.0943 0.9615
C28_3 C 0.0498(2) 0.13329(10) 0.86227(15)
H28_3 H 0.1085 0.1521 0.8925
C29_3 C 0.01413(17) 0.14021(9) 0.77734(14)
C32_3 C 0.06694(17) 0.17613(9) 0.73177(14)
Co3 Co 0.10481(2) 0.218240(13) 0.590942(18)
O5_3 O 0.86427(15) 0.03853(7) 0.89956(12)
O10_3 O 0.63866(14) 0.05955(7) 0.58936(12)
O11_2 O 0.22727(12) 0.17723(6) 0.58689(10)
O12_2 O 0.33328(12) 0.21147(6) 0.70169(10)
C26_3 C 0.91539(19) 0.07230(9) 0.85851(15)
C30_3 C 0.9275(2) 0.11277(10) 0.73366(15)
H29_3 H 0.9022 0.1175 0.6756
C31_3 C 0.8780(2) 0.07863(10) 0.77422(16)
H30_3 H 0.8190 0.0598 0.7444
H32_3 H 0.7855 0.0009 0.5872
C37_3 C 0.65371(18) 0.00917(9) 0.62215(14)
H33_3 H 0.5312 0.0029 0.6693
C40_3 C 0.55754(19) 0.08909(9) 0.60244(16)
C41_3 C 0.5700(2) 0.11555(11) 0.67580(17)
H35_3 H 0.6321 0.1127 0.7184
C42_3 C 0.4909(2) 0.14638(11) 0.68670(16)
H36_3 H 0.4987 0.1651 0.7371
C43_3 C 0.40027(18) 0.15025(9) 0.62480(14)
C44_3 C 0.3907(2) 0.12436(11) 0.55060(17)
H37_3 H 0.3294 0.1276 0.5073
C45_3 C 0.4701(2) 0.09363(11) 0.53898(17)
H38_2 H 0.4640 0.0760 0.4879
C46_3 C 0.31383(17) 0.18194(9) 0.63862(13)
Co1_2 Co 0.89519(2) 0.718240(13) 0.909058(18)
O3_3 O 0.83286(12) 0.78743(6) 0.86694(9)
O4_3 O 0.99606(12) 0.79955(7) 0.87510(10)
O8_3 O 0.64993(12) 0.82496(6) 0.73422(10)
O9_3 O 0.78999(12) 0.82607(6) 0.69350(10)
C19_3 C 0.91064(17) 0.81854(9) 0.87040(12)
C20_3 C 0.89489(17) 0.87648(9) 0.87342(13)
C21_3 C 0.97143(19) 0.91008(10) 0.86351(17)
C22_3 C 0.9624(2) 0.96429(10) 0.86998(18)
C23_3 C 0.87671(19) 0.98483(9) 0.88827(15)
C24_3 C 0.79918(19) 0.95204(10) 0.89859(15)
H25_3 H 0.7408 0.9665 0.9111
C25_3 C 0.80862(18) 0.89788(9) 0.89036(15)
H26_3 H 0.7556 0.8751 0.8963
C33_3 C 0.71184(17) 0.84956(9) 0.70367(13)
C34_3 C 0.69355(17) 0.90593(9) 0.67791(13)
C35_3 C 0.75988(17) 0.93203(9) 0.64075(15)
H31_3 H 0.8189 0.9143 0.6347
C36_3 C 0.74039(18) 0.98333(9) 0.61268(15)
C38_3 C 0.58869(18) 0.98462(9) 0.66122(15)
C39_3 C 0.60916(18) 0.93271(9) 0.68844(14)
H34_3 H 0.5646 0.9154 0.7147
O13_2 O 0.96634(13) 0.67596(7) 0.84638(10)
O14_2 O 0.85975(12) 0.70399(6) 0.72813(10)
O15_2 O 0.77273(12) 0.67723(6) 0.91311(10)
O16_2 O 0.66672(12) 0.71147(6) 0.79831(10)
O3_4 O 0.16714(12) 0.28743(6) 0.63306(9)
O4_4 O 0.00394(12) 0.29955(7) 0.62490(10)
O5_4 O 0.13573(15) 0.53853(7) 0.60044(12)
O8_4 O 0.35007(12) 0.32496(6) 0.76578(10)
O9_4 O 0.21001(12) 0.32607(6) 0.80650(10)
O10_4 O 0.36134(14) 0.55955(7) 0.91064(12)
N1_3 N 0.02207(14) 0.22401(8) 0.47153(11)
H5_3 H 0.0174 0.1752 0.2922
C5_3 C 0.04758(18) 0.19429(9) 0.41348(14)
H6_3 H 0.1030 0.1703 0.4306
C19_4 C 0.08936(17) 0.31854(9) 0.62960(12)
C20_4 C 0.10511(17) 0.37648(9) 0.62658(13)
C21_4 C 0.02857(19) 0.41008(10) 0.63649(17)
C22_4 C 0.0376(2) 0.46429(10) 0.63002(18)
C23_4 C 0.12329(19) 0.48483(9) 0.61173(15)
C24_4 C 0.20082(19) 0.45204(10) 0.60141(15)
H25_4 H 0.2592 0.4665 0.5889
C25_4 C 0.19138(18) 0.39788(9) 0.60964(15)
H26_4 H 0.2444 0.3751 0.6037
C26_4 C 0.08461(19) 0.57230(9) 0.64149(15)
C30_4 C 0.0725(2) 0.61277(10) 0.76634(15)
H29_4 H 0.0978 0.6175 0.8244
C31_4 C 0.1220(2) 0.57863(10) 0.72578(16)
H30_4 H 0.1810 0.5598 0.7556
C33_4 C 0.28816(17) 0.34956(9) 0.79633(13)
C34_4 C 0.30645(17) 0.40593(9) 0.82209(13)
C35_4 C 0.24012(17) 0.43203(9) 0.85925(15)
H31_4 H 0.1811 0.4143 0.8653
C36_4 C 0.25961(18) 0.48333(9) 0.88732(15)
H32_4 H 0.2145 0.5009 0.9128
C37_4 C 0.34629(18) 0.50917(9) 0.87785(14)
C38_4 C 0.41131(18) 0.48462(9) 0.83878(15)
H33_4 H 0.4688 0.5029 0.8307
C39_4 C 0.39084(18) 0.43271(9) 0.81156(14)
H34_4 H 0.4354 0.4154 0.7853
C40_4 C 0.44246(19) 0.58909(9) 0.89756(16)
C41_4 C 0.4300(2) 0.61555(11) 0.82420(17)
H35_4 H 0.3679 0.6127 0.7816
C42_4 C 0.5091(2) 0.64638(11) 0.81330(16)
H36_4 H 0.5013 0.6651 0.7629
C43_4 C 0.59973(18) 0.65025(9) 0.87520(14)
C44_4 C 0.6093(2) 0.62436(11) 0.94940(17)
H37_4 H 0.6706 0.6276 0.9927
C45_4 C 0.5299(2) 0.59363(11) 0.96102(17)
C46_4 C 0.68617(17) 0.68194(9) 0.86138(13)
O1_3 O 0.74006(14) 0.29408(8) 0.21410(10)
N2_3 N 0.87264(15) 0.23718(8) 0.22019(12)
H1_3 H 0.8986 0.2168 0.1886
C1_3 C 0.94278(18) 0.25743(10) 0.44537(14)
H3_3 H 0.9237 0.2786 0.4855
C2_3 C 0.88767(17) 0.26279(10) 0.36392(14)
H4_3 H 0.8317 0.2866 0.3487
C3_3 C 0.91587(17) 0.23250(9) 0.30419(13)
C4_3 C 0.99723(18) 0.19708(9) 0.33084(14)
C6_3 C 0.79338(18) 0.26996(10) 0.17939(14)
C7_3 C 0.78296(19) 0.27248(11) 0.08776(14)
H7_3 H 0.8514 0.2785 0.0796
H8_3 H 0.7583 0.2377 0.0630
C8_3 C 0.7114(2) 0.31515(11) 0.04162(14)
H9_3 H 0.6417 0.3087 0.0467
H10_3 H 0.7343 0.3502 0.0662
H23_3 H 0.9694 0.3956 0.6478
H24_3 H 0.9858 0.4872 0.6380
C27_4 C 0.9995(2) 0.59913(10) 0.59653(15)
H27_4 H 0.9749 0.5943 0.5385
C28_4 C 0.9502(2) 0.63329(10) 0.63773(15)
H28_4 H 0.8915 0.6521 0.6075
C29_4 C 0.98587(17) 0.64021(9) 0.72266(14)
C32_4 C 0.93306(17) 0.67613(9) 0.76823(14)
H38_3 H 0.4640 0.4240 0.9879
O1_4 O 0.25994(14) 0.79408(8) 0.28590(10)
O2_4 O 0.36420(14) 0.82208(9) 0.86288(11)
N2_4 N 0.12736(15) 0.73718(8) 0.27981(12)
H1_4 H 0.1014 0.7168 0.3114
N3_4 N 0.52489(16) 0.79589(9) 0.86765(12)
H2_4 H 0.5668 0.7911 0.8366
C1_4 C 0.05722(18) 0.75743(10) 0.05463(14)
H3_4 H 0.0763 0.7786 0.0145
C2_4 C 0.11233(17) 0.76279(10) 0.13608(14)
H4_4 H 0.1683 0.7866 0.1513
C3_4 C 0.08413(17) 0.73250(9) 0.19581(13)
C4_4 C 0.00277(18) 0.69708(9) 0.16916(14)
C6_4 C 0.20662(18) 0.76996(10) 0.32061(14)
C7_4 C 0.21704(19) 0.77248(11) 0.41224(14)
H7_4 H 0.1486 0.7785 0.4204
H8_4 H 0.2417 0.7377 0.4370
C8_4 C 0.2886(2) 0.81515(11) 0.45838(14)
H9_4 H 0.3583 0.8087 0.4533
H10_4 H 0.2657 0.8502 0.4338
C9_4 C 0.2900(2) 0.81515(11) 0.54944(15)
H11_4 H 0.2190 0.8184 0.5534
H12_4 H 0.3170 0.7807 0.5741
C10_4 C 0.3538(2) 0.85949(12) 0.59999(16)
H13_4 H 0.4249 0.8565 0.5964
H14_4 H 0.3267 0.8940 0.5760
C11_4 C 0.3536(2) 0.85791(11) 0.69122(15)
H15_4 H 0.2824 0.8592 0.6949
H16_4 H 0.3897 0.8894 0.7199
C12_4 C 0.4052(2) 0.80804(12) 0.73401(15)
H17_4 H 0.4701 0.8027 0.7193
H18_4 H 0.3608 0.7772 0.7131
C13_4 C 0.42735(19) 0.80991(11) 0.82682(14)
C14_4 C 0.56668(18) 0.78813(9) 0.95261(14)
H19_4 H 0.4392 0.7904 0.9951
C18_4 C 0.67195(17) 0.78122(9) 0.98005(14)
H22_4 H 0.7126 0.7840 0.9425
H23_4 H 0.0306 0.8956 0.8522
H24_4 H 0.0142 0.9872 0.8620
N1_4 N 0.97793(14) 0.72401(8) 0.02847(11)
H5_4 H 0.9826 0.6752 0.2078
C5_4 C 0.95242(18) 0.69429(9) 0.08652(14)
H6_4 H 0.8970 0.6703 0.0694
H38_4 H 0.5360 0.5760 0.0121
loop_
_geom_bond_atom_site_label_1
_geom_bond_atom_site_label_2
_geom_bond_site_symmetry_1
_geom_bond_site_symmetry_2
Co1 O3 1_555 1_555
Co2 O3 1_555 1_555
O3 C19 1_555 1_555
O4 C19 1_555 1_555
O8 Co2 1_555 1_555
O9 Co2 1_555 1_555
C19 C20 1_555 1_555
C20 C21 1_555 1_555
C22 C21 1_555 1_555
C23 C22 1_555 1_555
C24 C23 1_555 1_555
H25 C24 1_555 1_555
C25 C20 1_555 1_555
H26 C25 1_555 1_555
C33 O8 1_555 1_555
C34 C33 1_555 1_555
C35 C34 1_555 1_555
H31 C35 1_555 1_555
C36 C35 1_555 1_555
C39 C34 1_555 1_555
H34 C39 1_555 1_555
O13 Co1 1_555 1_555
O14 Co2 1_555 1_555
O15 Co1 1_555 1_555
O16 Co2 1_555 1_555
N5 Co2 1_555 1_555
O9 C33 1_555 1_555
C24 C25 1_555 1_555
C38 C39 1_555 1_555
O10 C37 1_555 1_555
O11 C46 1_555 1_555
O12 C46 1_555 1_555
C26 O5 1_555 1_555
H29 C30 1_555 1_555
C31 C26 1_555 1_555
H30 C31 1_555 1_555
C40 O10 1_555 1_555
C41 C40 1_555 1_555
H35 C41 1_555 1_555
C42 C41 1_555 1_555
H36 C42 1_555 1_555
C43 C42 1_555 1_555
C44 C43 1_555 1_555
H37 C44 1_555 1_555
C45 C40 1_555 1_555
H38 C45 1_555 1_555
C46 C43 1_555 1_555
Co4 O11 1_555 1_555
Co6 O12 1_555 1_555
C30 C31 1_555 1_555
C44 C45 1_555 1_555
O6 C32 1_555 1_555
O7 C32 1_555 1_555
H27 C27 1_555 1_555
C28 C27 1_555 1_555
H28 C28 1_555 1_555
C29 C28 1_555 1_555
C32 C29 1_555 1_555
Co4 O6 1_555 1_555
Co6 O7 1_555 1_555
O1 C6 1_555 1_555
O13 C32_2 1_555 1_555
O14 C32_2 1_555 1_555
N2 H1 1_555 1_555
H3 C1 1_555 1_555
C2 C1 1_555 1_555
H4 C2 1_555 1_555
C3 N2 1_555 1_555
C4 C3 1_555 1_555
C6 N2 1_555 1_555
C7 C6 1_555 1_555
H7 C7 1_555 1_555
H8 C7 1_555 1_555
C8 C7 1_555 1_555
H9 C8 1_555 1_555
H10 C8 1_555 1_555
H27_2 C27_2 1_555 1_555
C28_2 C27_2 1_555 1_555
H28_2 C28_2 1_555 1_555
C29_2 C28_2 1_555 1_555
C32_2 C29_2 1_555 1_555
C2 C3 1_555 1_555
Co4 O3_2 1_555 1_555
Co6 O3_2 1_555 1_555
O3_2 C19_2 1_555 1_555
O4_2 C19_2 1_555 1_555
O5_2 C23_2 1_555 1_555
O8_2 Co6 1_555 1_555
O9_2 Co6 1_555 1_555
O10_2 C37_2 1_555 1_555
O15 C46_2 1_555 1_555
O16 C46_2 1_555 1_555
N1 Co4 1_555 1_555
C5 N1 1_555 1_555
H6 C5 1_555 1_555
C19_2 C20_2 1_555 1_555
C20_2 C21_2 1_555 1_555
C22_2 C21_2 1_555 1_555
C23_2 C22_2 1_555 1_555
C24_2 C23_2 1_555 1_555
H25_2 C24_2 1_555 1_555
C25_2 C20_2 1_555 1_555
H26_2 C25_2 1_555 1_555
C26_2 O5_2 1_555 1_555
H29_2 C30_2 1_555 1_555
C31_2 C26_2 1_555 1_555
H30_2 C31_2 1_555 1_555
C33_2 O8_2 1_555 1_555
C34_2 C33_2 1_555 1_555
C35_2 C34_2 1_555 1_555
H31_2 C35_2 1_555 1_555
C36_2 C35_2 1_555 1_555
H32_2 C36_2 1_555 1_555
C37_2 C36_2 1_555 1_555
C38_2 C37_2 1_555 1_555
H33_2 C38_2 1_555 1_555
C39_2 C34_2 1_555 1_555
H34_2 C39_2 1_555 1_555
C40_2 O10_2 1_555 1_555
C41_2 C40_2 1_555 1_555
H35_2 C41_2 1_555 1_555
C42_2 C41_2 1_555 1_555
H36_2 C42_2 1_555 1_555
C43_2 C42_2 1_555 1_555
C44_2 C43_2 1_555 1_555
H37_2 C44_2 1_555 1_555
C45_2 C40_2 1_555 1_555
C46_2 C43_2 1_555 1_555
N5_2 Co6 1_555 1_555
O9_2 C33_2 1_555 1_555
C24_2 C25_2 1_555 1_555
C30_2 C31_2 1_555 1_555
C38_2 C39_2 1_555 1_555
C44_2 C45_2 1_555 1_555
N5_2 C16 1_555 1_555
C16 C15 1_555 1_555
H20 C16 1_555 1_555
C17 N5_2 1_555 1_555
H21 C17 1_555 1_555
O2 C13 1_555 1_555
N3 H2 1_555 1_555
N5 C16_2 1_555 1_555
H11 C9 1_555 1_555
H12 C9 1_555 1_555
C10 C9 1_555 1_555
H13 C10 1_555 1_555
H14 C10 1_555 1_555
C11 C10 1_555 1_555
H15 C11 1_555 1_555
H16 C11 1_555 1_555
C12 C11 1_555 1_555
H17 C12 1_555 1_555
H18 C12 1_555 1_555
C13 N3 1_555 1_555
C14 N3 1_555 1_555
C15_2 C14 1_555 1_555
H19 C15_2 1_555 1_555
C16_2 C15_2 1_555 1_555
H20_2 C16_2 1_555 1_555
C17_2 N5 1_555 1_555
H21_2 C17_2 1_555 1_555
C18 C14 1_555 1_555
H22 C18 1_555 1_555
C12 C13 1_555 1_555
C17_2 C18 1_555 1_555
C5_2 N1_2 1_555 1_555
H6_2 C5_2 1_555 1_555
O1_2 C6_2 1_555 1_555
O2_2 C13_2 1_555 1_555
N2_2 H1_2 1_555 1_555
N3_2 H2_2 1_555 1_555
H3_2 C1_2 1_555 1_555
C2_2 C1_2 1_555 1_555
H4_2 C2_2 1_555 1_555
C3_2 N2_2 1_555 1_555
C4_2 C3_2 1_555 1_555
C6_2 N2_2 1_555 1_555
C7_2 C6_2 1_555 1_555
H7_2 C7_2 1_555 1_555
H8_2 C7_2 1_555 1_555
C8_2 C7_2 1_555 1_555
H9_2 C8_2 1_555 1_555
H10_2 C8_2 1_555 1_555
C9_2 C8_2 1_555 1_555
H11_2 C9_2 1_555 1_555
H12_2 C9_2 1_555 1_555
C10_2 C9_2 1_555 1_555
H13_2 C10_2 1_555 1_555
H14_2 C10_2 1_555 1_555
C11_2 C10_2 1_555 1_555
H15_2 C11_2 1_555 1_555
H16_2 C11_2 1_555 1_555
C12_2 C11_2 1_555 1_555
H17_2 C12_2 1_555 1_555
H18_2 C12_2 1_555 1_555
C13_2 N3_2 1_555 1_555
C14_2 N3_2 1_555 1_555
C18_2 C14_2 1_555 1_555
H22_2 C18_2 1_555 1_555
C2_2 C3_2 1_555 1_555
C12_2 C13_2 1_555 1_555
N4 C16_3 1_555 1_555
C16_3 C15_3 1_555 1_555
H20_3 C16_3 1_555 1_555
C17_3 N4 1_555 1_555
H21_3 C17_3 1_555 1_555
Co7 N4 1_555 1_555
O2_3 C13_3 1_555 1_555
N3_3 H2_3 1_555 1_555
N4_2 C16_4 1_555 1_555
H11_3 C9_3 1_555 1_555
H12_3 C9_3 1_555 1_555
C10_3 C9_3 1_555 1_555
H13_3 C10_3 1_555 1_555
H14_3 C10_3 1_555 1_555
C11_3 C10_3 1_555 1_555
H15_3 C11_3 1_555 1_555
H16_3 C11_3 1_555 1_555
C12_3 C11_3 1_555 1_555
H17_3 C12_3 1_555 1_555
H18_3 C12_3 1_555 1_555
C13_3 N3_3 1_555 1_555
C14_3 N3_3 1_555 1_555
C15_4 C14_3 1_555 1_555
H19_3 C15_4 1_555 1_555
C16_4 C15_4 1_555 1_555
H20_4 C16_4 1_555 1_555
C17_4 N4_2 1_555 1_555
H21_4 C17_4 1_555 1_555
C18_3 C14_3 1_555 1_555
H22_3 C18_3 1_555 1_555
Co7_2 N4_2 1_555 1_555
C12_3 C13_3 1_555 1_555
C17_4 C18_3 1_555 1_555
O6_2 C32_3 1_555 1_555
O7_2 C32_3 1_555 1_555
H27_3 C27_3 1_555 1_555
C28_3 C27_3 1_555 1_555
H28_3 C28_3 1_555 1_555
C29_3 C28_3 1_555 1_555
C32_3 C29_3 1_555 1_555
Co3 O6_2 1_555 1_555
Co7 O7_2 1_555 1_555
O10_3 C37_3 1_555 1_555
O11_2 C46_3 1_555 1_555
O12_2 C46_3 1_555 1_555
C26_3 O5_3 1_555 1_555
H29_3 C30_3 1_555 1_555
C31_3 C26_3 1_555 1_555
H30_3 C31_3 1_555 1_555
C40_3 O10_3 1_555 1_555
C41_3 C40_3 1_555 1_555
H35_3 C41_3 1_555 1_555
C42_3 C41_3 1_555 1_555
H36_3 C42_3 1_555 1_555
C43_3 C42_3 1_555 1_555
C44_3 C43_3 1_555 1_555
H37_3 C44_3 1_555 1_555
C45_3 C40_3 1_555 1_555
H38_2 C45_3 1_555 1_555
C46_3 C43_3 1_555 1_555
Co3 O11_2 1_555 1_555
Co7 O12_2 1_555 1_555
C30_3 C31_3 1_555 1_555
C44_3 C45_3 1_555 1_555
Co1_2 O3_3 1_555 1_555
Co7_2 O3_3 1_555 1_555
O3_3 C19_3 1_555 1_555
O4_3 C19_3 1_555 1_555
O8_3 Co7_2 1_555 1_555
O9_3 Co7_2 1_555 1_555
C19_3 C20_3 1_555 1_555
C20_3 C21_3 1_555 1_555
C22_3 C21_3 1_555 1_555
C23_3 C22_3 1_555 1_555
C24_3 C23_3 1_555 1_555
H25_3 C24_3 1_555 1_555
C25_3 C20_3 1_555 1_555
H26_3 C25_3 1_555 1_555
C33_3 O8_3 1_555 1_555
C34_3 C33_3 1_555 1_555
C35_3 C34_3 1_555 1_555
H31_3 C35_3 1_555 1_555
C36_3 C35_3 1_555 1_555
C39_3 C34_3 1_555 1_555
H34_3 C39_3 1_555 1_555
O13_2 Co1_2 1_555 1_555
O14_2 Co7_2 1_555 1_555
O15_2 Co1_2 1_555 1_555
O16_2 Co7_2 1_555 1_555
O9_3 C33_3 1_555 1_555
C24_3 C25_3 1_555 1_555
C38_3 C39_3 1_555 1_555
Co3 O3_4 1_555 1_555
Co7 O3_4 1_555 1_555
O3_4 C19_4 1_555 1_555
O4_4 C19_4 1_555 1_555
O5_4 C23_4 1_555 1_555
O8_4 Co7 1_555 1_555
O9_4 Co7 1_555 1_555
O10_4 C37_4 1_555 1_555
O15_2 C46_4 1_555 1_555
O16_2 C46_4 1_555 1_555
N1_3 Co3 1_555 1_555
C5_3 N1_3 1_555 1_555
H6_3 C5_3 1_555 1_555
C19_4 C20_4 1_555 1_555
C20_4 C21_4 1_555 1_555
C22_4 C21_4 1_555 1_555
C23_4 C22_4 1_555 1_555
C24_4 C23_4 1_555 1_555
H25_4 C24_4 1_555 1_555
C25_4 C20_4 1_555 1_555
H26_4 C25_4 1_555 1_555
C26_4 O5_4 1_555 1_555
H29_4 C30_4 1_555 1_555
C31_4 C26_4 1_555 1_555
H30_4 C31_4 1_555 1_555
C33_4 O8_4 1_555 1_555
C34_4 C33_4 1_555 1_555
C35_4 C34_4 1_555 1_555
H31_4 C35_4 1_555 1_555
C36_4 C35_4 1_555 1_555
H32_4 C36_4 1_555 1_555
C37_4 C36_4 1_555 1_555
C38_4 C37_4 1_555 1_555
H33_4 C38_4 1_555 1_555
C39_4 C34_4 1_555 1_555
H34_4 C39_4 1_555 1_555
C40_4 O10_4 1_555 1_555
C41_4 C40_4 1_555 1_555
H35_4 C41_4 1_555 1_555
C42_4 C41_4 1_555 1_555
H36_4 C42_4 1_555 1_555
C43_4 C42_4 1_555 1_555
C44_4 C43_4 1_555 1_555
H37_4 C44_4 1_555 1_555
C45_4 C40_4 1_555 1_555
C46_4 C43_4 1_555 1_555
O9_4 C33_4 1_555 1_555
C24_4 C25_4 1_555 1_555
C30_4 C31_4 1_555 1_555
C38_4 C39_4 1_555 1_555
C44_4 C45_4 1_555 1_555
O1_3 C6_3 1_555 1_555
O13_2 C32_4 1_555 1_555
O14_2 C32_4 1_555 1_555
N2_3 H1_3 1_555 1_555
H3_3 C1_3 1_555 1_555
C2_3 C1_3 1_555 1_555
H4_3 C2_3 1_555 1_555
C3_3 N2_3 1_555 1_555
C4_3 C3_3 1_555 1_555
C6_3 N2_3 1_555 1_555
C7_3 C6_3 1_555 1_555
H7_3 C7_3 1_555 1_555
H8_3 C7_3 1_555 1_555
C8_3 C7_3 1_555 1_555
H9_3 C8_3 1_555 1_555
H10_3 C8_3 1_555 1_555
H27_4 C27_4 1_555 1_555
C28_4 C27_4 1_555 1_555
H28_4 C28_4 1_555 1_555
C29_4 C28_4 1_555 1_555
C32_4 C29_4 1_555 1_555
C2_3 C3_3 1_555 1_555
O1_4 C6_4 1_555 1_555
O2_4 C13_4 1_555 1_555
N2_4 H1_4 1_555 1_555
N3_4 H2_4 1_555 1_555
H3_4 C1_4 1_555 1_555
C2_4 C1_4 1_555 1_555
H4_4 C2_4 1_555 1_555
C3_4 N2_4 1_555 1_555
C4_4 C3_4 1_555 1_555
C6_4 N2_4 1_555 1_555
C7_4 C6_4 1_555 1_555
H7_4 C7_4 1_555 1_555
H8_4 C7_4 1_555 1_555
C8_4 C7_4 1_555 1_555
H9_4 C8_4 1_555 1_555
H10_4 C8_4 1_555 1_555
C9_4 C8_4 1_555 1_555
H11_4 C9_4 1_555 1_555
H12_4 C9_4 1_555 1_555
C10_4 C9_4 1_555 1_555
H13_4 C10_4 1_555 1_555
H14_4 C10_4 1_555 1_555
C11_4 C10_4 1_555 1_555
H15_4 C11_4 1_555 1_555
H16_4 C11_4 1_555 1_555
C12_4 C11_4 1_555 1_555
H17_4 C12_4 1_555 1_555
H18_4 C12_4 1_555 1_555
C13_4 N3_4 1_555 1_555
C14_4 N3_4 1_555 1_555
C18_4 C14_4 1_555 1_555
H22_4 C18_4 1_555 1_555
C2_4 C3_4 1_555 1_555
C12_4 C13_4 1_555 1_555
C5_4 N1_4 1_555 1_555
H6_4 C5_4 1_555 1_555

#END
