
###############################################################################
#
# This file contains modified crystal structure data generated from the
# MOF subset of the Cambridge Structural Database (CSD) v543 
# hosted by the Cambridge Crystallographic Data Centre (CCDC).
#
# This work is licensed under the Creative Commons
# Attribution-NonCommercial-ShareAlike 4.0 International License.
# To view a copy of this license, visit
# http://creativecommons.org/licenses/by-nc-sa/4.0/
# or send a letter to
# Creative Commons, PO Box 1866, Mountain View, CA 94042, USA.
#
# CIF created using the CSD Python API on 29 September 2022
# The structure has been converted into the P1 space group
# The structure has a 3D framework
# The original CSD entry GOXHEJ is in the orthorhombic crystal system
# The framework has been calculated to contain at least 10.0% void space
# The void calculation uses a probe of radius 1.32A, grid spacing 0.4
# The framework is charged, counterions have been retained in the structure
#
###############################################################################

data_GOXHEJ
_chemical_formula_moiety         '(C144 H136 N40 O28 Zn8)n'
_symmetry_cell_setting           triclinic
_symmetry_space_group_name_H-M   'P 1'
_symmetry_Int_Tables_number      1
_space_group_name_Hall           'P 1'
loop_
_symmetry_equiv_pos_site_id
_symmetry_equiv_pos_as_xyz
1 x,y,z
_cell_length_a                   18.900(4)
_cell_length_b                   24.784(5)
_cell_length_c                   10.058(2)
_cell_angle_alpha                90
_cell_angle_beta                 90
_cell_angle_gamma                90
_cell_volume                     4711.34
loop_
_atom_site_label
_atom_site_type_symbol
_atom_site_fract_x
_atom_site_fract_y
_atom_site_fract_z
Zn1 Zn 0.163194(14) 0.908498(10) 0.26537(3)
O1 O 0.07526(9) 0.86977(7) 0.27701(18)
O2 O 0.02548(9) 0.92463(7) 0.42708(18)
N1 N 0.21279(11) 0.88373(8) 0.0997(2)
C14 C 0.02626(12) 0.88315(9) 0.3573(2)
N4 N 0.24250(16) 0.83484(9) 0.0878(3)
O10 O 0.18939(10) 0.98509(7) 0.29342(18)
N9 N 0.22260(11) 0.88225(8) 0.4209(2)
N2 N 0.27740(11) 0.88225(8) 0.9209(2)
N3 N 0.28103(16) 0.83376(9) 0.9813(2)
C16 C 0.23441(14) 0.91130(10) 0.9954(2)
H9 H 0.2214(16) 0.9467(13) 0.975(3)
Zn5 Zn 0.336806(14) 0.908498(10) 0.76537(3)
O7 O 0.61424(11) 0.01086(7) 0.3743(2)
O8 O 0.68939(10) 0.01491(7) 0.20658(18)
Zn3 Zn 0.663194(14) 0.091502(10) 0.23463(3)
C1 C 0.76082(12) 0.64852(9) 0.2438(2)
H1 H 0.7256 0.6640 0.1916
O3 O 0.88576(11) 0.48914(7) 0.3743(2)
O4 O 0.81061(10) 0.48509(7) 0.20658(18)
C2 C 0.85465(12) 0.81403(9) 0.4551(2)
H2 H 0.8201 0.8171 0.5205
C3 C 0.90126(12) 0.76945(9) 0.2626(2)
H3 H 0.8985 0.7424 0.1987
C4 C 0.91245(12) 0.84846(9) 0.4575(2)
H4 H 0.9164 0.8743 0.5242
C5 C 0.84728(11) 0.77488(9) 0.3563(2)
C6 C 0.78310(11) 0.73952(8) 0.3487(2)
C7 C 0.96445(12) 0.84451(9) 0.3607(2)
C8 C 0.86595(13) 0.60218(9) 0.3972(3)
H5 H 0.9013 0.5867 0.4490
C9 C 0.85097(12) 0.65642(9) 0.4106(2)
H6 H 0.8768 0.6772 0.4703
C10 C 0.95884(12) 0.80397(9) 0.2641(2)
H7 H 0.9942 0.8002 0.2004
C11 C 0.82873(12) 0.57034(9) 0.3072(2)
C12 C 0.79749(11) 0.68042(9) 0.3356(2)
C13 C 0.77632(12) 0.59413(9) 0.2297(2)
H8 H 0.7516 0.5734 0.1681
C15 C 0.84414(13) 0.51108(10) 0.2962(3)
O5 O 0.42474(9) 0.63023(7) 0.27701(18)
O6 O 0.47452(9) 0.57537(7) 0.42708(18)
C17 C 0.64535(12) 0.68597(9) 0.4551(2)
H10 H 0.6799 0.6829 0.5205
C18 C 0.59874(12) 0.73055(9) 0.2626(2)
H11 H 0.6015 0.7576 0.1987
C19 C 0.58755(12) 0.65154(9) 0.4575(2)
H12 H 0.5836 0.6257 0.5242
C20 C 0.65272(11) 0.72512(9) 0.3563(2)
C21 C 0.71690(11) 0.76048(8) 0.3487(2)
C22 C 0.53555(12) 0.65549(9) 0.3607(2)
C23 C 0.54116(12) 0.69603(9) 0.2641(2)
H13 H 0.5058 0.6998 0.2004
C24 C 0.47374(12) 0.61685(9) 0.3573(2)
C25 C 0.73918(12) 0.85148(9) 0.2438(2)
H14 H 0.7744 0.8360 0.1916
C26 C 0.63405(13) 0.89782(9) 0.3972(3)
H15 H 0.5987 0.9133 0.4490
C27 C 0.64903(12) 0.84358(9) 0.4106(2)
H16 H 0.6232 0.8228 0.4703
C28 C 0.67127(12) 0.92966(9) 0.3072(2)
C29 C 0.70251(11) 0.81958(9) 0.3356(2)
C30 C 0.72368(12) 0.90587(9) 0.2297(2)
H17 H 0.7484 0.9266 0.1681
C31 C 0.65586(13) 0.98892(10) 0.2962(3)
Zn2 Zn 0.336806(14) 0.591502(10) 0.26537(3)
N5 N 0.28721(11) 0.61627(8) 0.0997(2)
N8 N 0.25750(16) 0.66516(9) 0.0878(3)
Zn4 Zn 0.836806(14) 0.408498(10) 0.23463(3)
O9 O 0.31061(10) 0.51491(7) 0.29342(18)
N10 N 0.27740(11) 0.61775(8) 0.4209(2)
N6 N 0.22260(11) 0.61775(8) 0.9209(2)
N7 N 0.21897(16) 0.66624(9) 0.9813(2)
C32 C 0.26559(14) 0.58870(10) 0.9954(2)
H18 H 0.2786(16) 0.5533(13) 0.975(3)
Zn6 Zn 0.163194(14) 0.591502(10) 0.76537(3)
O1_2 O 0.57526(9) 0.13023(7) 0.22299(18)
C1_2 C 0.26082(12) 0.35148(9) 0.2562(2)
H1_2 H 0.2256 0.3360 0.3084
O2_2 O 0.52548(9) 0.07537(7) 0.07292(18)
O3_2 O 0.38576(11) 0.51086(7) 0.1257(2)
N1_2 N 0.71279(11) 0.11627(8) 0.4003(2)
C2_2 C 0.35465(12) 0.18597(9) 0.0449(2)
C3_2 C 0.40126(12) 0.23055(9) 0.2374(2)
H3_2 H 0.3985 0.2576 0.3013
N2_2 N 0.77740(11) 0.11775(8) 0.5791(2)
C4_2 C 0.41245(12) 0.15154(9) 0.0425(2)
C5_2 C 0.34728(11) 0.22512(9) 0.1437(2)
C6_2 C 0.28310(11) 0.26048(8) 0.1513(2)
C7_2 C 0.46445(12) 0.15549(9) 0.1393(2)
C8_2 C 0.36595(13) 0.39782(9) 0.1028(3)
H5_2 H 0.4013 0.4133 0.0510
C9_2 C 0.35097(12) 0.34358(9) 0.0894(2)
H6_2 H 0.3768 0.3228 0.0297
C10_2 C 0.45884(12) 0.19603(9) 0.2359(2)
H7_2 H 0.4942 0.1998 0.2996
C11_2 C 0.32873(12) 0.42966(9) 0.1928(2)
C12_2 C 0.29749(11) 0.31958(9) 0.1644(2)
C13_2 C 0.27632(12) 0.40587(9) 0.2703(2)
H8_2 H 0.2516 0.4266 0.3319
C14_2 C 0.52626(12) 0.11685(9) 0.1427(2)
N3_2 N 0.78103(16) 0.16624(9) 0.5187(2)
C15_2 C 0.34414(13) 0.48892(10) 0.2038(3)
C16_2 C 0.73441(14) 0.08870(10) 0.5046(2)
N4_2 N 0.74250(16) 0.16516(9) 0.4122(3)
H9_2 H 0.7214(16) 0.0533(13) 0.525(3)
C17_2 C 0.14535(12) 0.31403(9) 0.0449(2)
C18_2 C 0.09874(12) 0.26945(9) 0.2374(2)
H11_2 H 0.1015 0.2424 0.3013
C19_2 C 0.08755(12) 0.34846(9) 0.0425(2)
C20_2 C 0.15272(11) 0.27488(9) 0.1437(2)
C21_2 C 0.21690(11) 0.23952(8) 0.1513(2)
C22_2 C 0.03555(12) 0.34451(9) 0.1393(2)
C23_2 C 0.04116(12) 0.30397(9) 0.2359(2)
H13_2 H 0.0058 0.3002 0.2996
C25_2 C 0.23918(12) 0.14852(9) 0.2562(2)
H14_2 H 0.2744 0.1640 0.3084
C26_2 C 0.13405(13) 0.10218(9) 0.1028(3)
H15_2 H 0.0987 0.0867 0.0510
C27_2 C 0.14903(12) 0.15642(9) 0.0894(2)
H16_2 H 0.1232 0.1772 0.0297
C28_2 C 0.17127(12) 0.07034(9) 0.1928(2)
C29_2 C 0.20251(11) 0.18042(9) 0.1644(2)
C30_2 C 0.22368(12) 0.09413(9) 0.2703(2)
H17_2 H 0.2484 0.0734 0.3319
C31_2 C 0.15586(13) 0.01108(10) 0.2038(3)
Zn5_2 Zn 0.836806(14) 0.091502(10) 0.73463(3)
N9_2 N 0.72260(11) 0.11775(8) 0.0791(2)
O7_2 O 0.11424(11) 0.98914(7) 0.1257(2)
O5_2 O 0.92474(9) 0.36977(7) 0.22299(18)
O6_2 O 0.97452(9) 0.42463(7) 0.07292(18)
C24_2 C 0.97374(12) 0.38315(9) 0.1427(2)
N5_2 N 0.78721(11) 0.38373(8) 0.4003(2)
N6_2 N 0.72260(11) 0.38225(8) 0.5791(2)
N7_2 N 0.71897(16) 0.33376(9) 0.5187(2)
C32_2 C 0.76559(14) 0.41130(10) 0.5046(2)
N8_2 N 0.75750(16) 0.33484(9) 0.4122(3)
H18_2 H 0.7786(16) 0.4467(13) 0.525(3)
Zn6_2 Zn 0.663194(14) 0.408498(10) 0.73463(3)
N10_2 N 0.77740(11) 0.38225(8) 0.0791(2)
N7_3 N 0.78103(16) 0.33376(9) 0.0187(2)
C32_3 C 0.73441(14) 0.41130(10) 0.0046(2)
H18_3 H 0.7214(16) 0.4467(13) 0.025(3)
C1_3 C 0.23918(12) 0.35148(9) 0.7562(2)
H1_3 H 0.2744 0.3360 0.8084
O3_3 O 0.11424(11) 0.51086(7) 0.6257(2)
O4_2 O 0.18939(10) 0.51491(7) 0.79342(18)
C2_3 C 0.14535(12) 0.18597(9) 0.5449(2)
H2_2 H 0.1799 0.1829 0.4795
C3_3 C 0.09874(12) 0.23055(9) 0.7374(2)
H3_3 H 0.1015 0.2576 0.8013
C4_3 C 0.08755(12) 0.15154(9) 0.5425(2)
H4_2 H 0.0836 0.1257 0.4758
C5_3 C 0.15272(11) 0.22512(9) 0.6437(2)
C6_3 C 0.21690(11) 0.26048(8) 0.6513(2)
C7_3 C 0.03555(12) 0.15549(9) 0.6393(2)
C8_3 C 0.13405(13) 0.39782(9) 0.6028(3)
H5_3 H 0.0987 0.4133 0.5510
C9_3 C 0.14903(12) 0.34358(9) 0.5894(2)
H6_3 H 0.1232 0.3228 0.5297
C10_3 C 0.04116(12) 0.19603(9) 0.7359(2)
H7_3 H 0.0058 0.1998 0.7996
C11_3 C 0.17127(12) 0.42966(9) 0.6928(2)
C12_3 C 0.20251(11) 0.31958(9) 0.6644(2)
C13_3 C 0.22368(12) 0.40587(9) 0.7703(2)
H8_3 H 0.2484 0.4266 0.8319
C15_3 C 0.15586(13) 0.48892(10) 0.7038(3)
O5_3 O 0.57526(9) 0.36977(7) 0.72299(18)
O6_3 O 0.52548(9) 0.42463(7) 0.57292(18)
C17_3 C 0.35465(12) 0.31403(9) 0.5449(2)
H10_2 H 0.3201 0.3171 0.4795
C18_3 C 0.40126(12) 0.26945(9) 0.7374(2)
H11_3 H 0.3985 0.2424 0.8013
C19_3 C 0.41245(12) 0.34846(9) 0.5425(2)
H12_2 H 0.4164 0.3743 0.4758
C20_3 C 0.34728(11) 0.27488(9) 0.6437(2)
C21_3 C 0.28310(11) 0.23952(8) 0.6513(2)
C22_3 C 0.46445(12) 0.34451(9) 0.6393(2)
C23_3 C 0.45884(12) 0.30397(9) 0.7359(2)
H13_3 H 0.4942 0.3002 0.7996
C24_3 C 0.52626(12) 0.38315(9) 0.6427(2)
C25_3 C 0.26082(12) 0.14852(9) 0.7562(2)
H14_3 H 0.2256 0.1640 0.8084
C26_3 C 0.36595(13) 0.10218(9) 0.6028(3)
H15_3 H 0.4013 0.0867 0.5510
C27_3 C 0.35097(12) 0.15642(9) 0.5894(2)
H16_3 H 0.3768 0.1772 0.5297
C28_3 C 0.32873(12) 0.07034(9) 0.6928(2)
C29_3 C 0.29749(11) 0.18042(9) 0.6644(2)
C30_3 C 0.27632(12) 0.09413(9) 0.7703(2)
H17_3 H 0.2516 0.0734 0.8319
C31_3 C 0.34414(13) 0.01108(10) 0.7038(3)
N5_3 N 0.71279(11) 0.38373(8) 0.9003(2)
N8_3 N 0.74250(16) 0.33484(9) 0.9122(3)
O9_2 O 0.68939(10) 0.48509(7) 0.70658(18)
O7_3 O 0.38576(11) 0.98914(7) 0.6257(2)
O8_2 O 0.31061(10) 0.98509(7) 0.79342(18)
N3_3 N 0.71897(16) 0.16624(9) 0.0187(2)
C16_3 C 0.76559(14) 0.08870(10) 0.0046(2)
H9_3 H 0.7786(16) 0.0533(13) 0.025(3)
O1_3 O 0.92474(9) 0.13023(7) 0.72299(18)
O2_3 O 0.97452(9) 0.07537(7) 0.57292(18)
N1_3 N 0.78721(11) 0.11627(8) 0.9003(2)
C14_3 C 0.97374(12) 0.11685(9) 0.6427(2)
N4_3 N 0.75750(16) 0.16516(9) 0.9122(3)
O10_2 O 0.81061(10) 0.01491(7) 0.70658(18)
O5_4 O 0.07526(9) 0.63023(7) 0.77701(18)
O6_4 O 0.02548(9) 0.57537(7) 0.92708(18)
C24_4 C 0.02626(12) 0.61685(9) 0.8573(2)
N5_4 N 0.21279(11) 0.61627(8) 0.5997(2)
N7_4 N 0.28103(16) 0.66624(9) 0.4813(2)
C32_4 C 0.23441(14) 0.58870(10) 0.4954(2)
N8_4 N 0.24250(16) 0.66516(9) 0.5878(3)
H18_4 H 0.2214(16) 0.5533(13) 0.475(3)
O7_4 O 0.88576(11) 0.01086(7) 0.8743(2)
O1_4 O 0.42474(9) 0.86977(7) 0.77701(18)
C1_4 C 0.73918(12) 0.64852(9) 0.7438(2)
H1_4 H 0.7744 0.6640 0.6916
O2_4 O 0.47452(9) 0.92463(7) 0.92708(18)
O3_4 O 0.61424(11) 0.48914(7) 0.8743(2)
N1_4 N 0.28721(11) 0.88373(8) 0.5997(2)
C2_4 C 0.64535(12) 0.81403(9) 0.9551(2)
C3_4 C 0.59874(12) 0.76945(9) 0.7626(2)
H3_4 H 0.6015 0.7424 0.6987
C4_4 C 0.58755(12) 0.84846(9) 0.9575(2)
C5_4 C 0.65272(11) 0.77488(9) 0.8563(2)
C6_4 C 0.71690(11) 0.73952(8) 0.8487(2)
C7_4 C 0.53555(12) 0.84451(9) 0.8607(2)
C8_4 C 0.63405(13) 0.60218(9) 0.8972(3)
H5_4 H 0.5987 0.5867 0.9490
C9_4 C 0.64903(12) 0.65642(9) 0.9106(2)
H6_4 H 0.6232 0.6772 0.9703
C10_4 C 0.54116(12) 0.80397(9) 0.7641(2)
H7_4 H 0.5058 0.8002 0.7004
C11_4 C 0.67127(12) 0.57034(9) 0.8072(2)
C12_4 C 0.70251(11) 0.68042(9) 0.8356(2)
C13_4 C 0.72368(12) 0.59413(9) 0.7297(2)
H8_4 H 0.7484 0.5734 0.6681
C14_4 C 0.47374(12) 0.88315(9) 0.8573(2)
N3_4 N 0.21897(16) 0.83376(9) 0.4813(2)
C15_4 C 0.65586(13) 0.51108(10) 0.7962(3)
C16_4 C 0.26559(14) 0.91130(10) 0.4954(2)
N4_4 N 0.25750(16) 0.83484(9) 0.5878(3)
H9_4 H 0.2786(16) 0.9467(13) 0.475(3)
C17_4 C 0.85465(12) 0.68597(9) 0.9551(2)
C18_4 C 0.90126(12) 0.73055(9) 0.7626(2)
H11_4 H 0.8985 0.7576 0.6987
C19_4 C 0.91245(12) 0.65154(9) 0.9575(2)
C20_4 C 0.84728(11) 0.72512(9) 0.8563(2)
C21_4 C 0.78310(11) 0.76048(8) 0.8487(2)
C22_4 C 0.96445(12) 0.65549(9) 0.8607(2)
C23_4 C 0.95884(12) 0.69603(9) 0.7641(2)
H13_4 H 0.9942 0.6998 0.7004
C25_4 C 0.76082(12) 0.85148(9) 0.7438(2)
H14_4 H 0.7256 0.8360 0.6916
C26_4 C 0.86595(13) 0.89782(9) 0.8972(3)
H15_4 H 0.9013 0.9133 0.9490
C27_4 C 0.85097(12) 0.84358(9) 0.9106(2)
H16_4 H 0.8768 0.8228 0.9703
C28_4 C 0.82873(12) 0.92966(9) 0.8072(2)
C29_4 C 0.79749(11) 0.81958(9) 0.8356(2)
C30_4 C 0.77632(12) 0.90587(9) 0.7297(2)
H17_4 H 0.7516 0.9266 0.6681
C31_4 C 0.84414(13) 0.98892(10) 0.7962(3)
H2_3 H 0.3201 0.1829 0.9795
H4_3 H 0.4164 0.1257 0.9758
H10_3 H 0.1799 0.3171 0.9795
H12_3 H 0.0836 0.3743 0.9758
H2_4 H 0.6799 0.8171 0.0205
H4_4 H 0.5836 0.8743 0.0242
H10_4 H 0.8201 0.6829 0.0205
H12_4 H 0.9164 0.6257 0.0242
N11 N 0.94116(13) 0.00740(12) 0.3149(3)
H21 H 0.9118 0.0086 0.1226
C34 C 0.87158(17) 0.00283(15) 0.3784(3)
H22 H 0.8377 0.0237 0.3292
H23 H 0.8743 0.0161 0.4678
H26 H 0.953(2) 0.0465(17) 0.308(4)
C33 C 0.94103(19) 0.98616(18) 0.1776(3)
H19 H 0.9228 0.9500 0.1776
H20 H 0.9885 0.9861 0.1435
H24 H 0.8572 0.9657 0.3796
H25 H 0.9730(19) 0.9870(15) 0.366(4)
N11_2 N 0.55884(13) 0.49260(12) 0.3149(3)
C33_2 C 0.55897(19) 0.51384(18) 0.1776(3)
H19_2 H 0.5772 0.5500 0.1776
H20_2 H 0.5115 0.5139 0.1435
H21_2 H 0.5882 0.4914 0.1226
C34_2 C 0.62842(17) 0.49717(15) 0.3784(3)
H22_2 H 0.6623 0.4763 0.3292
H23_2 H 0.6257 0.4839 0.4678
H24_2 H 0.6428 0.5343 0.3796
H25_2 H 0.5270(19) 0.5130(15) 0.366(4)
H26_2 H 0.547(2) 0.4535(17) 0.308(4)
C33_3 C 0.44103(19) 0.01384(18) 0.3224(3)
H19_3 H 0.4228 0.0500 0.3224
H20_3 H 0.4885 0.0139 0.3565
H24_3 H 0.3572 0.0343 0.1204
H25_3 H 0.4730(19) 0.0130(15) 0.134(4)
N11_3 N 0.44116(13) 0.99260(12) 0.1851(3)
H21_3 H 0.4118 0.9914 0.3774
C34_3 C 0.37158(17) 0.99717(15) 0.1216(3)
H22_3 H 0.3377 0.9763 0.1708
H23_3 H 0.3743 0.9839 0.0322
H26_3 H 0.453(2) 0.9535(17) 0.192(4)
N11_4 N 0.05884(13) 0.50740(12) 0.1851(3)
C33_4 C 0.05897(19) 0.48616(18) 0.3224(3)
H19_4 H 0.0772 0.4500 0.3224
H20_4 H 0.0115 0.4861 0.3565
H21_4 H 0.0882 0.5086 0.3774
C34_4 C 0.12842(17) 0.50283(15) 0.1216(3)
H22_4 H 0.1623 0.5237 0.1708
H23_4 H 0.1257 0.5161 0.0322
H24_4 H 0.1428 0.4657 0.1204
H25_4 H 0.0270(19) 0.4870(15) 0.134(4)
H26_4 H 0.047(2) 0.5465(17) 0.192(4)
C33_5 C 0.05897(19) 0.01384(18) 0.8224(3)
H19_5 H 0.0772 0.0500 0.8224
H20_5 H 0.0115 0.0139 0.8565
H24_5 H 0.1428 0.0343 0.6204
H25_5 H 0.0270(19) 0.0130(15) 0.634(4)
N11_5 N 0.05884(13) 0.99260(12) 0.6851(3)
H21_5 H 0.0882 0.9914 0.8774
C34_5 C 0.12842(17) 0.99717(15) 0.6216(3)
H22_5 H 0.1623 0.9763 0.6708
H23_5 H 0.1257 0.9839 0.5322
H26_5 H 0.047(2) 0.9535(17) 0.692(4)
N11_6 N 0.44116(13) 0.50740(12) 0.6851(3)
C33_6 C 0.44103(19) 0.48616(18) 0.8224(3)
H19_6 H 0.4228 0.4500 0.8224
H20_6 H 0.4885 0.4861 0.8565
H21_6 H 0.4118 0.5086 0.8774
C34_6 C 0.37158(17) 0.50283(15) 0.6216(3)
H22_6 H 0.3377 0.5237 0.6708
H23_6 H 0.3743 0.5161 0.5322
H24_6 H 0.3572 0.4657 0.6204
H25_6 H 0.4730(19) 0.4870(15) 0.634(4)
H26_6 H 0.453(2) 0.5465(17) 0.692(4)
N11_7 N 0.55884(13) 0.00740(12) 0.8149(3)
H21_7 H 0.5882 0.0086 0.6226
C34_7 C 0.62842(17) 0.00283(15) 0.8784(3)
H22_7 H 0.6623 0.0237 0.8292
H23_7 H 0.6257 0.0161 0.9678
H26_7 H 0.547(2) 0.0465(17) 0.808(4)
C33_7 C 0.55897(19) 0.98616(18) 0.6776(3)
H19_7 H 0.5772 0.9500 0.6776
H20_7 H 0.5115 0.9861 0.6435
H24_7 H 0.6428 0.9657 0.8796
H25_7 H 0.5270(19) 0.9870(15) 0.866(4)
N11_8 N 0.94116(13) 0.49260(12) 0.8149(3)
C33_8 C 0.94103(19) 0.51384(18) 0.6776(3)
H19_8 H 0.9228 0.5500 0.6776
H20_8 H 0.9885 0.5139 0.6435
H21_8 H 0.9118 0.4914 0.6226
C34_8 C 0.87158(17) 0.49717(15) 0.8784(3)
H22_8 H 0.8377 0.4763 0.8292
H23_8 H 0.8743 0.4839 0.9678
H24_8 H 0.8572 0.5343 0.8796
H25_8 H 0.9730(19) 0.5130(15) 0.866(4)
H26_8 H 0.953(2) 0.4535(17) 0.808(4)
loop_
_geom_bond_atom_site_label_1
_geom_bond_atom_site_label_2
_geom_bond_site_symmetry_1
_geom_bond_site_symmetry_2
Zn1 O1 1_555 1_555
O1 C14 1_555 1_555
O2 C14 1_555 1_555
N1 Zn1 1_555 1_555
N4 N1 1_555 1_555
O10 Zn1 1_555 1_555
N9 Zn1 1_555 1_555
N2 N3 1_555 1_555
H9 C16 1_555 1_555
Zn5 N2 1_555 1_555
N2 C16 1_555 1_555
Zn3 O8 1_555 1_555
C1 H1 1_555 1_555
O3 C15 1_555 1_555
O4 C15 1_555 1_555
C2 H2 1_555 1_555
C3 H3 1_555 1_555
C4 C2 1_555 1_555
H4 C4 1_555 1_555
C5 C2 1_555 1_555
C6 C5 1_555 1_555
C7 C4 1_555 1_555
C8 H5 1_555 1_555
C9 C8 1_555 1_555
H6 C9 1_555 1_555
C10 C3 1_555 1_555
H7 C10 1_555 1_555
C11 C8 1_555 1_555
C12 C1 1_555 1_555
C13 C1 1_555 1_555
H8 C13 1_555 1_555
C15 C11 1_555 1_555
O5 C24 1_555 1_555
O6 C24 1_555 1_555
C17 H10 1_555 1_555
C18 H11 1_555 1_555
C19 C17 1_555 1_555
H12 C19 1_555 1_555
C20 C17 1_555 1_555
C21 C6 1_555 1_555
C22 C19 1_555 1_555
C23 C18 1_555 1_555
H13 C23 1_555 1_555
C24 C22 1_555 1_555
C25 H14 1_555 1_555
C26 H15 1_555 1_555
C27 C26 1_555 1_555
H16 C27 1_555 1_555
C28 C26 1_555 1_555
C29 C21 1_555 1_555
C30 C25 1_555 1_555
H17 C30 1_555 1_555
C31 C28 1_555 1_555
Zn2 O5 1_555 1_555
N5 Zn2 1_555 1_555
N8 N5 1_555 1_555
Zn4 O4 1_555 1_555
O9 Zn2 1_555 1_555
N10 Zn2 1_555 1_555
C3 C5 1_555 1_555
C6 C12 1_555 1_555
C7 C10 1_555 1_555
C9 C12 1_555 1_555
C11 C13 1_555 1_555
C18 C20 1_555 1_555
C20 C21 1_555 1_555
C22 C23 1_555 1_555
C25 C29 1_555 1_555
C27 C29 1_555 1_555
C28 C30 1_555 1_555
N6 N7 1_555 1_555
H18 C32 1_555 1_555
Zn6 N6 1_555 1_555
N6 C32 1_555 1_555
Zn3 O1_2 1_555 1_555
O1_2 C14_2 1_555 1_555
C1_2 H1_2 1_555 1_555
O2_2 C14_2 1_555 1_555
O3_2 C15_2 1_555 1_555
O9 C15_2 1_555 1_555
N1_2 Zn3 1_555 1_555
C3_2 H3_2 1_555 1_555
N2_2 N3_2 1_555 1_555
C4_2 C2_2 1_555 1_555
C5_2 C2_2 1_555 1_555
C6_2 C5_2 1_555 1_555
C7_2 C4_2 1_555 1_555
C8_2 H5_2 1_555 1_555
C9_2 C8_2 1_555 1_555
H6_2 C9_2 1_555 1_555
C10_2 C3_2 1_555 1_555
H7_2 C10_2 1_555 1_555
C11_2 C8_2 1_555 1_555
C12_2 C1_2 1_555 1_555
C13_2 C1_2 1_555 1_555
H8_2 C13_2 1_555 1_555
C14_2 C7_2 1_555 1_555
N3_2 N4_2 1_555 1_555
C15_2 C11_2 1_555 1_555
C16_2 N1_2 1_555 1_555
N4_2 N1_2 1_555 1_555
H9_2 C16_2 1_555 1_555
C18_2 H11_2 1_555 1_555
C19_2 C17_2 1_555 1_555
C20_2 C17_2 1_555 1_555
C21_2 C6_2 1_555 1_555
C22_2 C19_2 1_555 1_555
C23_2 C18_2 1_555 1_555
H13_2 C23_2 1_555 1_555
C25_2 H14_2 1_555 1_555
C26_2 H15_2 1_555 1_555
C27_2 C26_2 1_555 1_555
H16_2 C27_2 1_555 1_555
C28_2 C26_2 1_555 1_555
C29_2 C21_2 1_555 1_555
C30_2 C25_2 1_555 1_555
H17_2 C30_2 1_555 1_555
C31_2 C28_2 1_555 1_555
Zn5_2 N2_2 1_555 1_555
N9_2 Zn3 1_555 1_555
C3_2 C5_2 1_555 1_555
N2_2 C16_2 1_555 1_555
C6_2 C12_2 1_555 1_555
C7_2 C10_2 1_555 1_555
C9_2 C12_2 1_555 1_555
C11_2 C13_2 1_555 1_555
C18_2 C20_2 1_555 1_555
C20_2 C21_2 1_555 1_555
C22_2 C23_2 1_555 1_555
C25_2 C29_2 1_555 1_555
C27_2 C29_2 1_555 1_555
C28_2 C30_2 1_555 1_555
O5_2 C24_2 1_555 1_555
O6_2 C24_2 1_555 1_555
Zn4 O5_2 1_555 1_555
N5_2 Zn4 1_555 1_555
N6_2 N7_2 1_555 1_555
N7_2 N8_2 1_555 1_555
C32_2 N5_2 1_555 1_555
N8_2 N5_2 1_555 1_555
H18_2 C32_2 1_555 1_555
Zn6_2 N6_2 1_555 1_555
N10_2 Zn4 1_555 1_555
N6_2 C32_2 1_555 1_555
N10_2 N7_3 1_555 1_555
H18_3 C32_3 1_555 1_555
N10_2 C32_3 1_555 1_555
C1_3 H1_3 1_555 1_555
O3_3 C15_3 1_555 1_555
O4_2 C15_3 1_555 1_555
C2_3 H2_2 1_555 1_555
C3_3 H3_3 1_555 1_555
C4_3 C2_3 1_555 1_555
H4_2 C4_3 1_555 1_555
C5_3 C2_3 1_555 1_555
C6_3 C5_3 1_555 1_555
C7_3 C4_3 1_555 1_555
C8_3 H5_3 1_555 1_555
C9_3 C8_3 1_555 1_555
H6_3 C9_3 1_555 1_555
C10_3 C3_3 1_555 1_555
H7_3 C10_3 1_555 1_555
C11_3 C8_3 1_555 1_555
C12_3 C1_3 1_555 1_555
C13_3 C1_3 1_555 1_555
H8_3 C13_3 1_555 1_555
C15_3 C11_3 1_555 1_555
O5_3 C24_3 1_555 1_555
O6_3 C24_3 1_555 1_555
C17_3 H10_2 1_555 1_555
C18_3 H11_3 1_555 1_555
C19_3 C17_3 1_555 1_555
H12_2 C19_3 1_555 1_555
C20_3 C17_3 1_555 1_555
C21_3 C6_3 1_555 1_555
C22_3 C19_3 1_555 1_555
C23_3 C18_3 1_555 1_555
H13_3 C23_3 1_555 1_555
C24_3 C22_3 1_555 1_555
C25_3 H14_3 1_555 1_555
C26_3 H15_3 1_555 1_555
C27_3 C26_3 1_555 1_555
H16_3 C27_3 1_555 1_555
C28_3 C26_3 1_555 1_555
C29_3 C21_3 1_555 1_555
C30_3 C25_3 1_555 1_555
H17_3 C30_3 1_555 1_555
C31_3 C28_3 1_555 1_555
Zn6_2 O5_3 1_555 1_555
N5_3 Zn6_2 1_555 1_555
N8_3 N5_3 1_555 1_555
Zn6 O4_2 1_555 1_555
O9_2 Zn6_2 1_555 1_555
C3_3 C5_3 1_555 1_555
C6_3 C12_3 1_555 1_555
C7_3 C10_3 1_555 1_555
C9_3 C12_3 1_555 1_555
C11_3 C13_3 1_555 1_555
C18_3 C20_3 1_555 1_555
C20_3 C21_3 1_555 1_555
C22_3 C23_3 1_555 1_555
C25_3 C29_3 1_555 1_555
C27_3 C29_3 1_555 1_555
C28_3 C30_3 1_555 1_555
Zn5 O8_2 1_555 1_555
N9_2 N3_3 1_555 1_555
H9_3 C16_3 1_555 1_555
N9_2 C16_3 1_555 1_555
Zn5_2 O1_3 1_555 1_555
O1_3 C14_3 1_555 1_555
O2_3 C14_3 1_555 1_555
N1_3 Zn5_2 1_555 1_555
N4_3 N1_3 1_555 1_555
O10_2 Zn5_2 1_555 1_555
O5_4 C24_4 1_555 1_555
O6_4 C24_4 1_555 1_555
Zn6 O5_4 1_555 1_555
N5_4 Zn6 1_555 1_555
N10 N7_4 1_555 1_555
N7_4 N8_4 1_555 1_555
C32_4 N5_4 1_555 1_555
N8_4 N5_4 1_555 1_555
H18_4 C32_4 1_555 1_555
N10 C32_4 1_555 1_555
Zn5 O1_4 1_555 1_555
O1_4 C14_4 1_555 1_555
C1_4 H1_4 1_555 1_555
O2_4 C14_4 1_555 1_555
O3_4 C15_4 1_555 1_555
O9_2 C15_4 1_555 1_555
N1_4 Zn5 1_555 1_555
C3_4 H3_4 1_555 1_555
N9 N3_4 1_555 1_555
C4_4 C2_4 1_555 1_555
C5_4 C2_4 1_555 1_555
C6_4 C5_4 1_555 1_555
C7_4 C4_4 1_555 1_555
C8_4 H5_4 1_555 1_555
C9_4 C8_4 1_555 1_555
H6_4 C9_4 1_555 1_555
C10_4 C3_4 1_555 1_555
H7_4 C10_4 1_555 1_555
C11_4 C8_4 1_555 1_555
C12_4 C1_4 1_555 1_555
C13_4 C1_4 1_555 1_555
H8_4 C13_4 1_555 1_555
C14_4 C7_4 1_555 1_555
N3_4 N4_4 1_555 1_555
C15_4 C11_4 1_555 1_555
C16_4 N1_4 1_555 1_555
N4_4 N1_4 1_555 1_555
H9_4 C16_4 1_555 1_555
C18_4 H11_4 1_555 1_555
C19_4 C17_4 1_555 1_555
C20_4 C17_4 1_555 1_555
C21_4 C6_4 1_555 1_555
C22_4 C19_4 1_555 1_555
C23_4 C18_4 1_555 1_555
H13_4 C23_4 1_555 1_555
C25_4 H14_4 1_555 1_555
C26_4 H15_4 1_555 1_555
C27_4 C26_4 1_555 1_555
H16_4 C27_4 1_555 1_555
C28_4 C26_4 1_555 1_555
C29_4 C21_4 1_555 1_555
C30_4 C25_4 1_555 1_555
H17_4 C30_4 1_555 1_555
C31_4 C28_4 1_555 1_555
C3_4 C5_4 1_555 1_555
N9 C16_4 1_555 1_555
C6_4 C12_4 1_555 1_555
C7_4 C10_4 1_555 1_555
C9_4 C12_4 1_555 1_555
C11_4 C13_4 1_555 1_555
C18_4 C20_4 1_555 1_555
C20_4 C21_4 1_555 1_555
C22_4 C23_4 1_555 1_555
C25_4 C29_4 1_555 1_555
C27_4 C29_4 1_555 1_555
C28_4 C30_4 1_555 1_555
C34 N11 1_555 1_555
H22 C34 1_555 1_555
H23 C34 1_555 1_555
H26 N11 1_555 1_555
C33 H19 1_555 1_555
H20 C33 1_555 1_555
N11_2 C33_2 1_555 1_555
C33_2 H19_2 1_555 1_555
H20_2 C33_2 1_555 1_555
H21_2 C33_2 1_555 1_555
C34_2 N11_2 1_555 1_555
H22_2 C34_2 1_555 1_555
H23_2 C34_2 1_555 1_555
H24_2 C34_2 1_555 1_555
H25_2 N11_2 1_555 1_555
H26_2 N11_2 1_555 1_555
C33_3 H19_3 1_555 1_555
H20_3 C33_3 1_555 1_555
C34_3 N11_3 1_555 1_555
H22_3 C34_3 1_555 1_555
H23_3 C34_3 1_555 1_555
H26_3 N11_3 1_555 1_555
N11_4 C33_4 1_555 1_555
C33_4 H19_4 1_555 1_555
H20_4 C33_4 1_555 1_555
H21_4 C33_4 1_555 1_555
C34_4 N11_4 1_555 1_555
H22_4 C34_4 1_555 1_555
H23_4 C34_4 1_555 1_555
H24_4 C34_4 1_555 1_555
H25_4 N11_4 1_555 1_555
H26_4 N11_4 1_555 1_555
C33_5 H19_5 1_555 1_555
H20_5 C33_5 1_555 1_555
C34_5 N11_5 1_555 1_555
H22_5 C34_5 1_555 1_555
H23_5 C34_5 1_555 1_555
H26_5 N11_5 1_555 1_555
N11_6 C33_6 1_555 1_555
C33_6 H19_6 1_555 1_555
H20_6 C33_6 1_555 1_555
H21_6 C33_6 1_555 1_555
C34_6 N11_6 1_555 1_555
H22_6 C34_6 1_555 1_555
H23_6 C34_6 1_555 1_555
H24_6 C34_6 1_555 1_555
H25_6 N11_6 1_555 1_555
H26_6 N11_6 1_555 1_555
C34_7 N11_7 1_555 1_555
H22_7 C34_7 1_555 1_555
H23_7 C34_7 1_555 1_555
H26_7 N11_7 1_555 1_555
C33_7 H19_7 1_555 1_555
H20_7 C33_7 1_555 1_555
N11_8 C33_8 1_555 1_555
C33_8 H19_8 1_555 1_555
H20_8 C33_8 1_555 1_555
H21_8 C33_8 1_555 1_555
C34_8 N11_8 1_555 1_555
H22_8 C34_8 1_555 1_555
H23_8 C34_8 1_555 1_555
H24_8 C34_8 1_555 1_555
H25_8 N11_8 1_555 1_555
H26_8 N11_8 1_555 1_555

#END
