
###############################################################################
#
# This file contains modified crystal structure data generated from the
# MOF subset of the Cambridge Structural Database (CSD) v543 
# hosted by the Cambridge Crystallographic Data Centre (CCDC).
#
# This work is licensed under the Creative Commons
# Attribution-NonCommercial-ShareAlike 4.0 International License.
# To view a copy of this license, visit
# http://creativecommons.org/licenses/by-nc-sa/4.0/
# or send a letter to
# Creative Commons, PO Box 1866, Mountain View, CA 94042, USA.
#
# CIF created using the CSD Python API on 29 September 2022
# The structure has been converted into the P1 space group
# The structure has a 3D framework
# The original CSD entry GOXMEN is in the monoclinic crystal system
# The framework has been calculated to contain at least 10.0% void space
# The void calculation uses a probe of radius 1.32A, grid spacing 0.4
#
###############################################################################

data_GOXMEN
_chemical_formula_moiety         '(C204 H132 Co7 N48 O22)n'
_symmetry_cell_setting           triclinic
_symmetry_space_group_name_H-M   'P 1'
_symmetry_Int_Tables_number      1
_space_group_name_Hall           'P 1'
loop_
_symmetry_equiv_pos_site_id
_symmetry_equiv_pos_as_xyz
1 x,y,z
_cell_length_a                   16.373(5)
_cell_length_b                   29.948(5)
_cell_length_c                   10.402(5)
_cell_angle_alpha                90
_cell_angle_beta                 95.595(5)
_cell_angle_gamma                90
_cell_volume                     5076.2
loop_
_atom_site_label
_atom_site_type_symbol
_atom_site_fract_x
_atom_site_fract_y
_atom_site_fract_z
O4 O 0.6403(9) 0.0245(4) 0.3909(15)
N5 N 0.3158(10) 0.1516(5) 0.1042(16)
N6 N 0.4066(9) 0.1272(6) 0.2740(14)
N11 N 0.3671(10) 0.0771(5) 0.7144(14)
N12 N 0.2917(9) 0.1087(5) 0.8555(13)
C18 C 0.5926(10) 0.0154(5) 0.4752(18)
C19 C 0.5199(12) 0.0475(6) 0.4835(17)
C20 C 0.4759(8) 0.0477(4) 0.5978(13)
H12 H 0.4930 0.0296 0.6680
C21 C 0.4124(9) 0.0733(5) 0.6011(13)
C22 C 0.3258(10) 0.1150(5) 0.7460(13)
H13 H 0.3222 0.1412 0.6977
C23 C 0.3281(11) 0.0670(5) 0.9017(15)
H14 H 0.3227 0.0551 0.9830
C24 C 0.3726(10) 0.0468(6) 0.8083(18)
H15 H 0.3990 0.0193 0.8114
C25 C 0.3835(12) 0.1029(7) 0.4879(17)
H16 H 0.3377 0.1212 0.4885
C26 C 0.4293(10) 0.1011(5) 0.3839(16)
C27 C 0.4959(12) 0.0723(6) 0.3792(17)
H17 H 0.5232 0.0703 0.3051
C28 C 0.3232(12) 0.1246(7) 0.2013(18)
H18 H 0.2817 0.1058 0.2235
C29 C 0.3850(12) 0.1811(8) 0.127(2)
C30 C 0.4080(11) 0.2198(6) 0.0602(19)
C31 C 0.4879(15) 0.2352(10) 0.093(4)
H20 H 0.5102 0.2580 0.0466
C32 C 0.5351(17) 0.2136(6) 0.203(2)
H21 H 0.5657 0.2309 0.2644
C33 C 0.5342(9) 0.1637(5) 0.2165(18)
H22 H 0.5760 0.1426 0.2213
C34 C 0.4461(9) 0.1596(9) 0.220(3)
Co5 Co 0.21986(19) 0.15061(4) 0.9536(3)
O8 O 0.8027(6) 0.0244(3) 0.5277(10)
H19 H 0.3720 0.2341 0.9987
O2 O 0.6865(7) 0.7139(4) 0.0358(10)
O5 O 0.3300(7) 0.4863(4) 0.3535(10)
O6 O 0.3027(6) 0.5244(3) 0.5277(10)
N1 N 0.6493(8) 0.6043(4) 0.0530(14)
N2 N 0.5661(8) 0.5802(4) 0.1920(12)
N3 N 0.5435(8) 0.6271(5) 0.6305(13)
N4 N 0.6161(9) 0.6517(5) 0.7997(13)
N7 N 0.6681(10) 0.8797(4) 0.1625(14)
N8 N 0.6718(9) 0.9253(4) 0.3234(13)
C3 C 0.6906(11) 0.8072(6) 0.0484(18)
H1 H 0.6669 0.7919 0.1131
C4 C 0.6928(11) 0.8563(5) 0.0536(14)
C5 C 0.7024(12) 0.9141(6) 0.2167(18)
H2 H 0.7449 0.9296 0.1834
C6 C 0.6088(9) 0.8941(5) 0.3330(18)
C7 C 0.5565(8) 0.8969(5) 0.4214(15)
H3 H 0.5597 0.9182 0.4868
C8 C 0.4934(12) 0.8628(7) 0.404(2)
H4 H 0.4541 0.8611 0.4632
C9 C 0.4904(11) 0.8328(6) 0.302(2)
H5 H 0.4487 0.8116 0.2916
C10 C 0.5504(10) 0.8347(5) 0.2152(17)
H6 H 0.5518 0.8160 0.1441
C11 C 0.6034(10) 0.8655(6) 0.2460(17)
C35 C 0.3444(10) 0.5189(5) 0.4331(15)
C36 C 0.4190(9) 0.5459(5) 0.4197(15)
C37 C 0.4460(9) 0.5736(6) 0.5269(15)
H23 H 0.4185 0.5741 0.6010
C38 C 0.5155(11) 0.6000(7) 0.5166(18)
C39 C 0.6111(8) 0.6245(5) 0.6993(14)
H24 H 0.6532 0.6053 0.6813
C40 C 0.5347(14) 0.6665(8) 0.813(2)
C41 C 0.5056(9) 0.6904(7) 0.9025(16)
H25 H 0.5398 0.7018 0.9714
C42 C 0.4207(11) 0.6984(6) 0.892(2)
H26 H 0.3938 0.7100 0.9588
C43 C 0.3788(13) 0.6873(8) 0.7683(16)
H27 H 0.3224 0.6826 0.7617
C44 C 0.4230(12) 0.6829(7) 0.6503(19)
H28 H 0.4105 0.6952 0.5686
C45 C 0.4889(13) 0.6552(9) 0.696(3)
C46 C 0.5530(9) 0.6021(5) 0.4076(15)
H29 H 0.6004 0.6190 0.4054
C47 C 0.5236(13) 0.5807(6) 0.3060(19)
C48 C 0.6224(11) 0.6123(5) 0.1628(18)
H30 H 0.6385 0.6365 0.2155
C49 C 0.6231(13) 0.5634(6) 0.0082(18)
C50 C 0.5655(14) 0.5502(6) 0.0874(16)
H32 H 0.5314 0.5255 0.0742
C51 C 0.4535(11) 0.5490(7) 0.3134(18)
H33 H 0.4349 0.5318 0.2422
Co3 Co 0.71986(19) 0.65061(4) 0.9536(3)
Co6 Co 0.72034(18) 0.97340(4) 0.4541(3)
Co7 Co 0.22034(18) 0.47340(4) 0.4541(3)
N14 N 0.8158(10) 0.6516(5) 0.1042(16)
O1 O 0.7573(8) 0.7139(3) 0.8630(11)
O3 O 0.6117(8) 0.9875(4) 0.5594(12)
N9 N 0.7727(8) 0.8764(4) 0.7451(13)
N10 N 0.7704(8) 0.9286(4) 0.5854(12)
C1 C 0.7136(11) 0.7346(3) 0.958(2)
C2 C 0.7193(15) 0.7848(3) 0.960(2)
C12 C 0.7213(14) 0.8775(3) 0.946(2)
H7 H 0.7219 0.9085 0.9405
C13 C 0.7483(11) 0.8521(6) 0.8466(19)
C14 C 0.7364(10) 0.9158(5) 0.6886(15)
H8 H 0.6932 0.9308 0.7212
C15 C 0.8292(11) 0.8980(5) 0.5635(16)
H9 H 0.8605 0.8971 0.4936
C16 C 0.8332(11) 0.8657(7) 0.6761(17)
H10 H 0.8709 0.8427 0.6931
C17 C 0.7465(11) 0.8078(5) 0.8450(13)
H11 H 0.7617 0.7917 0.7746
H31 H 0.6406 0.5478 0.9387
O7 O 0.8300(7) 0.9863(4) 0.3535(10)
N16 N 0.7917(9) 0.6087(5) 0.8555(13)
O2_2 O 0.1865(7) 0.2139(4) 0.0358(10)
N1_2 N 0.1493(8) 0.1043(4) 0.0530(14)
N2_2 N 0.0661(8) 0.0802(4) 0.1920(12)
N3_2 N 0.0435(8) 0.1271(5) 0.6305(13)
N4_2 N 0.1161(9) 0.1517(5) 0.7997(13)
N7_2 N 0.1681(10) 0.3797(4) 0.1625(14)
N8_2 N 0.1718(9) 0.4253(4) 0.3234(13)
C3_2 C 0.1906(11) 0.3072(6) 0.0484(18)
H1_2 H 0.1669 0.2919 0.1131
C4_2 C 0.1928(11) 0.3563(5) 0.0536(14)
C5_2 C 0.2024(12) 0.4141(6) 0.2167(18)
H2_2 H 0.2449 0.4296 0.1834
C6_2 C 0.1088(9) 0.3941(5) 0.3330(18)
C7_2 C 0.0565(8) 0.3969(5) 0.4214(15)
H3_2 H 0.0597 0.4182 0.4868
C10_2 C 0.0504(10) 0.3347(5) 0.2152(17)
H6_2 H 0.0518 0.3160 0.1441
C11_2 C 0.1034(10) 0.3655(6) 0.2460(17)
C38_2 C 0.0155(11) 0.1000(7) 0.5166(18)
C39_2 C 0.1111(8) 0.1245(5) 0.6993(14)
H24_2 H 0.1532 0.1053 0.6813
C40_2 C 0.0347(14) 0.1665(8) 0.813(2)
C41_2 C 0.0056(9) 0.1904(7) 0.9025(16)
H25_2 H 0.0398 0.2018 0.9714
C46_2 C 0.0530(9) 0.1021(5) 0.4076(15)
H29_2 H 0.1004 0.1190 0.4054
C47_2 C 0.0236(13) 0.0807(6) 0.3060(19)
C48_2 C 0.1224(11) 0.1123(5) 0.1628(18)
H30_2 H 0.1385 0.1365 0.2155
C49_2 C 0.1231(13) 0.0634(6) 0.0082(18)
C50_2 C 0.0655(14) 0.0502(6) 0.0874(16)
H32_2 H 0.0314 0.0255 0.0742
O1_2 O 0.2573(8) 0.2139(3) 0.8630(11)
O3_2 O 0.1117(8) 0.4875(4) 0.5594(12)
O4_2 O 0.1403(9) 0.5245(4) 0.3909(15)
N9_2 N 0.2727(8) 0.3764(4) 0.7451(13)
N10_2 N 0.2704(8) 0.4286(4) 0.5854(12)
C1_2 C 0.2136(11) 0.2346(3) 0.958(2)
C2_2 C 0.2193(15) 0.2848(3) 0.960(2)
C12_2 C 0.2213(14) 0.3775(3) 0.946(2)
H7_2 H 0.2219 0.4085 0.9405
C13_2 C 0.2483(11) 0.3521(6) 0.8466(19)
C14_2 C 0.2364(10) 0.4158(5) 0.6886(15)
H8_2 H 0.1932 0.4308 0.7212
C15_2 C 0.3292(11) 0.3980(5) 0.5635(16)
H9_2 H 0.3605 0.3971 0.4936
C16_2 C 0.3332(11) 0.3657(7) 0.6761(17)
H10_2 H 0.3709 0.3427 0.6931
C17_2 C 0.2465(11) 0.3078(5) 0.8450(13)
H11_2 H 0.2617 0.2917 0.7746
C18_2 C 0.0926(10) 0.5154(5) 0.4752(18)
C19_2 C 0.0199(12) 0.5475(6) 0.4835(17)
H17_2 H 0.0232 0.5703 0.3051
H20_2 H 0.0102 0.7580 0.0466
C32_2 C 0.0351(17) 0.7136(6) 0.203(2)
H21_2 H 0.0657 0.7309 0.2644
C33_2 C 0.0342(9) 0.6637(5) 0.2165(18)
H22_2 H 0.0760 0.6426 0.2213
H31_2 H 0.1406 0.0478 0.9387
C8_2 C 0.9934(12) 0.3628(7) 0.404(2)
H4_2 H 0.9541 0.3611 0.4632
C9_2 C 0.9904(11) 0.3328(6) 0.302(2)
H5_2 H 0.9487 0.3116 0.2916
C35_2 C 0.8444(10) 0.0189(5) 0.4331(15)
C36_2 C 0.9190(9) 0.0459(5) 0.4197(15)
C37_2 C 0.9460(9) 0.0736(6) 0.5269(15)
H23_2 H 0.9185 0.0741 0.6010
C42_2 C 0.9207(11) 0.1984(6) 0.892(2)
H26_2 H 0.8938 0.2100 0.9588
C43_2 C 0.8788(13) 0.1873(8) 0.7683(16)
H27_2 H 0.8224 0.1826 0.7617
C44_2 C 0.9230(12) 0.1829(7) 0.6503(19)
H28_2 H 0.9105 0.1952 0.5686
C45_2 C 0.9889(13) 0.1552(9) 0.696(3)
C51_2 C 0.9535(11) 0.0490(7) 0.3134(18)
H33_2 H 0.9349 0.0318 0.2422
N6_2 N 0.9066(9) 0.6272(6) 0.2740(14)
N11_2 N 0.8671(10) 0.5771(5) 0.7144(14)
C20_2 C 0.9759(8) 0.5477(4) 0.5978(13)
H12_2 H 0.9930 0.5296 0.6680
C21_2 C 0.9124(9) 0.5733(5) 0.6011(13)
C22_2 C 0.8258(10) 0.6150(5) 0.7460(13)
H13_2 H 0.8222 0.6412 0.6977
C23_2 C 0.8281(11) 0.5670(5) 0.9017(15)
H14_2 H 0.8227 0.5551 0.9830
C24_2 C 0.8726(10) 0.5468(6) 0.8083(18)
H15_2 H 0.8990 0.5193 0.8114
C25_2 C 0.8835(12) 0.6029(7) 0.4879(17)
H16_2 H 0.8377 0.6212 0.4885
C26_2 C 0.9293(10) 0.6011(5) 0.3839(16)
C27_2 C 0.9959(12) 0.5723(6) 0.3792(17)
C28_2 C 0.8232(12) 0.6246(7) 0.2013(18)
H18_2 H 0.7817 0.6058 0.2235
C29_2 C 0.8850(12) 0.6811(8) 0.127(2)
C30_2 C 0.9080(11) 0.7198(6) 0.0602(19)
C31_2 C 0.9879(15) 0.7352(10) 0.093(4)
C34_2 C 0.9461(9) 0.6596(9) 0.220(3)
H19_2 H 0.8720 0.7341 0.9987
O6_2 O 0.3027(6) 0.4756(3) 0.0277(10)
N3_3 N 0.5435(8) 0.3729(5) 0.1305(13)
N4_3 N 0.6161(9) 0.3483(5) 0.2997(13)
C37_3 C 0.4460(9) 0.4264(6) 0.0269(15)
H23_3 H 0.4185 0.4259 0.1010
C38_3 C 0.5155(11) 0.4000(7) 0.0166(18)
C39_3 C 0.6111(8) 0.3755(5) 0.1993(14)
H24_3 H 0.6532 0.3947 0.1813
C40_3 C 0.5347(14) 0.3335(8) 0.313(2)
C41_3 C 0.5056(9) 0.3096(7) 0.4025(16)
H25_3 H 0.5398 0.2982 0.4714
C42_3 C 0.4207(11) 0.3016(6) 0.392(2)
H26_3 H 0.3938 0.2900 0.4588
C43_3 C 0.3788(13) 0.3127(8) 0.2683(16)
H27_3 H 0.3224 0.3174 0.2617
C44_3 C 0.4230(12) 0.3171(7) 0.1503(19)
H28_3 H 0.4105 0.3048 0.0686
C45_3 C 0.4889(13) 0.3448(9) 0.196(3)
Co3_2 Co 0.71986(19) 0.34939(4) 0.4536(3)
O1_3 O 0.7573(8) 0.2861(3) 0.3630(11)
O2_3 O 0.6865(7) 0.2861(4) 0.5358(10)
O3_3 O 0.6117(8) 0.0125(4) 0.0594(12)
O5_2 O 0.3300(7) 0.5137(4) 0.8535(10)
N1_3 N 0.6493(8) 0.3957(4) 0.5530(14)
N2_3 N 0.5661(8) 0.4198(4) 0.6920(12)
N7_3 N 0.6681(10) 0.1203(4) 0.6625(14)
N8_3 N 0.6718(9) 0.0747(4) 0.8234(13)
N9_3 N 0.7727(8) 0.1236(4) 0.2451(13)
N10_3 N 0.7704(8) 0.0714(4) 0.0854(12)
C1_3 C 0.7136(11) 0.2654(3) 0.458(2)
C2_3 C 0.7193(15) 0.2152(3) 0.460(2)
C3_3 C 0.6906(11) 0.1928(6) 0.5484(18)
H1_3 H 0.6669 0.2081 0.6131
C4_3 C 0.6928(11) 0.1437(5) 0.5536(14)
C5_3 C 0.7024(12) 0.0859(6) 0.7167(18)
H2_3 H 0.7449 0.0704 0.6834
C6_3 C 0.6088(9) 0.1059(5) 0.8330(18)
C7_3 C 0.5565(8) 0.1031(5) 0.9214(15)
H3_3 H 0.5597 0.0818 0.9868
C8_3 C 0.4934(12) 0.1372(7) 0.904(2)
H4_3 H 0.4541 0.1389 0.9632
C9_3 C 0.4904(11) 0.1672(6) 0.802(2)
H5_3 H 0.4487 0.1884 0.7916
C10_3 C 0.5504(10) 0.1653(5) 0.7152(17)
H6_3 H 0.5518 0.1840 0.6441
C11_3 C 0.6034(10) 0.1345(6) 0.7460(17)
C12_3 C 0.7213(14) 0.1225(3) 0.446(2)
H7_3 H 0.7219 0.0915 0.4405
C13_3 C 0.7483(11) 0.1479(6) 0.3466(19)
C14_3 C 0.7364(10) 0.0842(5) 0.1886(15)
H8_3 H 0.6932 0.0692 0.2212
C15_3 C 0.8292(11) 0.1020(5) 0.0635(16)
C16_3 C 0.8332(11) 0.1343(7) 0.1761(17)
H10_3 H 0.8709 0.1573 0.1931
C17_3 C 0.7465(11) 0.1922(5) 0.3450(13)
H11_3 H 0.7617 0.2083 0.2746
C35_3 C 0.3444(10) 0.4811(5) 0.9331(15)
C36_3 C 0.4190(9) 0.4541(5) 0.9197(15)
C46_3 C 0.5530(9) 0.3979(5) 0.9076(15)
H29_3 H 0.6004 0.3810 0.9054
C47_3 C 0.5236(13) 0.4193(6) 0.8060(19)
C48_3 C 0.6224(11) 0.3877(5) 0.6628(18)
H30_3 H 0.6385 0.3635 0.7155
C49_3 C 0.6231(13) 0.4366(6) 0.5082(18)
H31_3 H 0.6406 0.4522 0.4387
C50_3 C 0.5655(14) 0.4498(6) 0.5874(16)
H32_3 H 0.5314 0.4745 0.5742
C51_3 C 0.4535(11) 0.4510(7) 0.8134(18)
H33_3 H 0.4349 0.4682 0.7422
Co6_2 Co 0.72034(18) 0.02660(4) 0.9541(3)
Co7_2 Co 0.22034(18) 0.52660(4) 0.9541(3)
N14_2 N 0.8158(10) 0.3484(5) 0.6042(16)
N16_2 N 0.7917(9) 0.3913(5) 0.3555(13)
H9_3 H 0.8605 0.1029 0.9936
O7_2 O 0.8300(7) 0.0137(4) 0.8535(10)
N11_3 N 0.3671(10) 0.9229(5) 0.2144(14)
N12_2 N 0.2917(9) 0.8913(5) 0.3555(13)
C20_3 C 0.4759(8) 0.9523(4) 0.0978(13)
H12_3 H 0.4930 0.9704 0.1680
C21_3 C 0.4124(9) 0.9267(5) 0.1011(13)
C22_3 C 0.3258(10) 0.8850(5) 0.2460(13)
H13_3 H 0.3222 0.8588 0.1977
C23_3 C 0.3281(11) 0.9330(5) 0.4017(15)
H14_3 H 0.3227 0.9449 0.4830
C24_3 C 0.3726(10) 0.9532(6) 0.3083(18)
H15_3 H 0.3990 0.9807 0.3114
Co5_2 Co 0.21986(19) 0.84939(4) 0.4536(3)
O8_2 O 0.8027(6) 0.9756(3) 0.0277(10)
O4_3 O 0.6403(9) 0.9755(4) 0.8909(15)
N5_2 N 0.3158(10) 0.8484(5) 0.6042(16)
N6_3 N 0.4066(9) 0.8728(6) 0.7740(14)
C18_3 C 0.5926(10) 0.9846(5) 0.9752(18)
C19_3 C 0.5199(12) 0.9525(6) 0.9835(17)
C25_3 C 0.3835(12) 0.8971(7) 0.9879(17)
H16_3 H 0.3377 0.8788 0.9885
C26_3 C 0.4293(10) 0.8989(5) 0.8839(16)
C27_3 C 0.4959(12) 0.9277(6) 0.8792(17)
H17_3 H 0.5232 0.9297 0.8051
C28_3 C 0.3232(12) 0.8754(7) 0.7013(18)
H18_3 H 0.2817 0.8942 0.7235
C29_3 C 0.3850(12) 0.8189(8) 0.627(2)
C30_3 C 0.4080(11) 0.7802(6) 0.5602(19)
H19_3 H 0.3720 0.7659 0.4987
C31_3 C 0.4879(15) 0.7648(10) 0.593(4)
H20_3 H 0.5102 0.7420 0.5466
C32_3 C 0.5351(17) 0.7864(6) 0.703(2)
H21_3 H 0.5657 0.7691 0.7644
C33_3 C 0.5342(9) 0.8363(5) 0.7165(18)
H22_3 H 0.5760 0.8574 0.7213
C34_3 C 0.4461(9) 0.8404(9) 0.720(3)
N3_4 N 0.0435(8) 0.8729(5) 0.1305(13)
N4_4 N 0.1161(9) 0.8483(5) 0.2997(13)
C38_4 C 0.0155(11) 0.9000(7) 0.0166(18)
C39_4 C 0.1111(8) 0.8755(5) 0.1993(14)
H24_4 H 0.1532 0.8947 0.1813
C40_4 C 0.0347(14) 0.8335(8) 0.313(2)
C41_4 C 0.0056(9) 0.8096(7) 0.4025(16)
H25_4 H 0.0398 0.7982 0.4714
O1_4 O 0.2573(8) 0.7861(3) 0.3630(11)
O2_4 O 0.1865(7) 0.7861(4) 0.5358(10)
O3_4 O 0.1117(8) 0.5125(4) 0.0594(12)
N1_4 N 0.1493(8) 0.8957(4) 0.5530(14)
N2_4 N 0.0661(8) 0.9198(4) 0.6920(12)
N7_4 N 0.1681(10) 0.6203(4) 0.6625(14)
N8_4 N 0.1718(9) 0.5747(4) 0.8234(13)
N9_4 N 0.2727(8) 0.6236(4) 0.2451(13)
N10_4 N 0.2704(8) 0.5714(4) 0.0854(12)
C1_4 C 0.2136(11) 0.7654(3) 0.458(2)
C2_4 C 0.2193(15) 0.7152(3) 0.460(2)
C3_4 C 0.1906(11) 0.6928(6) 0.5484(18)
H1_4 H 0.1669 0.7081 0.6131
C4_4 C 0.1928(11) 0.6437(5) 0.5536(14)
C5_4 C 0.2024(12) 0.5859(6) 0.7167(18)
H2_4 H 0.2449 0.5704 0.6834
C6_4 C 0.1088(9) 0.6059(5) 0.8330(18)
C7_4 C 0.0565(8) 0.6031(5) 0.9214(15)
H3_4 H 0.0597 0.5818 0.9868
C10_4 C 0.0504(10) 0.6653(5) 0.7152(17)
H6_4 H 0.0518 0.6840 0.6441
C11_4 C 0.1034(10) 0.6345(6) 0.7460(17)
C12_4 C 0.2213(14) 0.6225(3) 0.446(2)
H7_4 H 0.2219 0.5915 0.4405
C13_4 C 0.2483(11) 0.6479(6) 0.3466(19)
C14_4 C 0.2364(10) 0.5842(5) 0.1886(15)
H8_4 H 0.1932 0.5692 0.2212
C15_4 C 0.3292(11) 0.6020(5) 0.0635(16)
C16_4 C 0.3332(11) 0.6343(7) 0.1761(17)
H10_4 H 0.3709 0.6573 0.1931
C17_4 C 0.2465(11) 0.6922(5) 0.3450(13)
H11_4 H 0.2617 0.7083 0.2746
C46_4 C 0.0530(9) 0.8979(5) 0.9076(15)
H29_4 H 0.1004 0.8810 0.9054
C47_4 C 0.0236(13) 0.9193(6) 0.8060(19)
C48_4 C 0.1224(11) 0.8877(5) 0.6628(18)
H30_4 H 0.1385 0.8635 0.7155
C49_4 C 0.1231(13) 0.9366(6) 0.5082(18)
H31_4 H 0.1406 0.9522 0.4387
C50_4 C 0.0655(14) 0.9498(6) 0.5874(16)
H32_4 H 0.0314 0.9745 0.5742
O4_4 O 0.1403(9) 0.4755(4) 0.8909(15)
H9_4 H 0.3605 0.6029 0.9936
C18_4 C 0.0926(10) 0.4846(5) 0.9752(18)
C19_4 C 0.0199(12) 0.4525(6) 0.9835(17)
H17_4 H 0.0232 0.4297 0.8051
H20_4 H 0.0102 0.2420 0.5466
C32_4 C 0.0351(17) 0.2864(6) 0.703(2)
H21_4 H 0.0657 0.2691 0.7644
C33_4 C 0.0342(9) 0.3363(5) 0.7165(18)
H22_4 H 0.0760 0.3574 0.7213
C37_4 C 0.9460(9) 0.9264(6) 0.0269(15)
H23_4 H 0.9185 0.9259 0.1010
C42_4 C 0.9207(11) 0.8016(6) 0.392(2)
H26_4 H 0.8938 0.7900 0.4588
C43_4 C 0.8788(13) 0.8127(8) 0.2683(16)
H27_4 H 0.8224 0.8174 0.2617
C44_4 C 0.9230(12) 0.8171(7) 0.1503(19)
H28_4 H 0.9105 0.8048 0.0686
C45_4 C 0.9889(13) 0.8448(9) 0.196(3)
N11_4 N 0.8671(10) 0.4229(5) 0.2144(14)
C8_4 C 0.9934(12) 0.6372(7) 0.904(2)
H4_4 H 0.9541 0.6389 0.9632
C9_4 C 0.9904(11) 0.6672(6) 0.802(2)
H5_4 H 0.9487 0.6884 0.7916
C20_4 C 0.9759(8) 0.4523(4) 0.0978(13)
H12_4 H 0.9930 0.4704 0.1680
C21_4 C 0.9124(9) 0.4267(5) 0.1011(13)
C22_4 C 0.8258(10) 0.3850(5) 0.2460(13)
H13_4 H 0.8222 0.3588 0.1977
C23_4 C 0.8281(11) 0.4330(5) 0.4017(15)
H14_4 H 0.8227 0.4449 0.4830
C24_4 C 0.8726(10) 0.4532(6) 0.3083(18)
H15_4 H 0.8990 0.4807 0.3114
C35_4 C 0.8444(10) 0.9811(5) 0.9331(15)
C36_4 C 0.9190(9) 0.9541(5) 0.9197(15)
C51_4 C 0.9535(11) 0.9510(7) 0.8134(18)
H33_4 H 0.9349 0.9682 0.7422
N6_4 N 0.9066(9) 0.3728(6) 0.7740(14)
C25_4 C 0.8835(12) 0.3971(7) 0.9879(17)
H16_4 H 0.8377 0.3788 0.9885
C26_4 C 0.9293(10) 0.3989(5) 0.8839(16)
C27_4 C 0.9959(12) 0.4277(6) 0.8792(17)
C28_4 C 0.8232(12) 0.3754(7) 0.7013(18)
H18_4 H 0.7817 0.3942 0.7235
C29_4 C 0.8850(12) 0.3189(8) 0.627(2)
C30_4 C 0.9080(11) 0.2802(6) 0.5602(19)
H19_4 H 0.8720 0.2659 0.4987
C31_4 C 0.9879(15) 0.2648(10) 0.593(4)
C34_4 C 0.9461(9) 0.3404(9) 0.720(3)
loop_
_geom_bond_atom_site_label_1
_geom_bond_atom_site_label_2
_geom_bond_site_symmetry_1
_geom_bond_site_symmetry_2
N5 C28 1_555 1_555
N6 C26 1_555 1_555
N11 C21 1_555 1_555
N12 C22 1_555 1_555
C18 O4 1_555 1_555
C19 C18 1_555 1_555
C20 C19 1_555 1_555
H12 C20 1_555 1_555
C21 C20 1_555 1_555
C22 N11 1_555 1_555
H13 C22 1_555 1_555
C23 N12 1_555 1_555
H14 C23 1_555 1_555
C24 N11 1_555 1_555
H15 C24 1_555 1_555
C25 C21 1_555 1_555
H16 C25 1_555 1_555
C26 C25 1_555 1_555
C27 C19 1_555 1_555
H17 C27 1_555 1_555
C28 N6 1_555 1_555
H18 C28 1_555 1_555
C29 N5 1_555 1_555
C30 C29 1_555 1_555
C31 C30 1_555 1_555
H20 C31 1_555 1_555
C32 C31 1_555 1_555
H21 C32 1_555 1_555
C33 C32 1_555 1_555
H22 C33 1_555 1_555
C34 N6 1_555 1_555
Co5 N12 1_555 1_555
C23 C24 1_555 1_555
C26 C27 1_555 1_555
C29 C34 1_555 1_555
C33 C34 1_555 1_555
O5 C35 1_555 1_555
O6 C35 1_555 1_555
N2 C47 1_555 1_555
N3 C38 1_555 1_555
N4 C39 1_555 1_555
N7 C4 1_555 1_555
N8 C5 1_555 1_555
H1 C3 1_555 1_555
C4 C3 1_555 1_555
C5 N7 1_555 1_555
H2 C5 1_555 1_555
C6 N8 1_555 1_555
C7 C6 1_555 1_555
H3 C7 1_555 1_555
C8 C7 1_555 1_555
H4 C8 1_555 1_555
C9 C8 1_555 1_555
H5 C9 1_555 1_555
C10 C9 1_555 1_555
H6 C10 1_555 1_555
C11 N7 1_555 1_555
C35 C36 1_555 1_555
C36 C37 1_555 1_555
C37 H23 1_555 1_555
C38 C37 1_555 1_555
C39 N3 1_555 1_555
H24 C39 1_555 1_555
C40 N4 1_555 1_555
C41 C40 1_555 1_555
H25 C41 1_555 1_555
C42 C41 1_555 1_555
H26 C42 1_555 1_555
C43 C42 1_555 1_555
H27 C43 1_555 1_555
C44 C43 1_555 1_555
H28 C44 1_555 1_555
C45 N3 1_555 1_555
C46 C38 1_555 1_555
H29 C46 1_555 1_555
C47 C46 1_555 1_555
C48 N1 1_555 1_555
H30 C48 1_555 1_555
C49 N1 1_555 1_555
C50 N2 1_555 1_555
H32 C50 1_555 1_555
C51 C36 1_555 1_555
H33 C51 1_555 1_555
Co3 N4 1_555 1_555
Co6 N8 1_555 1_555
Co7 O5 1_555 1_555
O6 Co7 1_555 1_555
N2 C48 1_555 1_555
C6 C11 1_555 1_555
C10 C11 1_555 1_555
C40 C45 1_555 1_555
C44 C45 1_555 1_555
C47 C51 1_555 1_555
C49 C50 1_555 1_555
Co3 O1 1_555 1_555
Co6 O3 1_555 1_555
O1 C1 1_555 1_555
N9 C13 1_555 1_555
N10 Co6 1_555 1_555
C2 C1 1_555 1_555
H7 C12 1_555 1_555
C13 C12 1_555 1_555
C14 N9 1_555 1_555
H8 C14 1_555 1_555
C15 N10 1_555 1_555
H9 C15 1_555 1_555
C16 N9 1_555 1_555
H10 C16 1_555 1_555
C17 C2 1_555 1_555
H11 C17 1_555 1_555
O7 Co6 1_555 1_555
N16 Co3 1_555 1_555
N10 C14 1_555 1_555
C13 C17 1_555 1_555
C15 C16 1_555 1_555
N2_2 C47_2 1_555 1_555
N3_2 C38_2 1_555 1_555
N4_2 C39_2 1_555 1_555
N7_2 C4_2 1_555 1_555
N8_2 C5_2 1_555 1_555
H1_2 C3_2 1_555 1_555
C4_2 C3_2 1_555 1_555
C5_2 N7_2 1_555 1_555
H2_2 C5_2 1_555 1_555
C6_2 N8_2 1_555 1_555
C7_2 C6_2 1_555 1_555
H3_2 C7_2 1_555 1_555
H6_2 C10_2 1_555 1_555
C11_2 N7_2 1_555 1_555
C39_2 N3_2 1_555 1_555
H24_2 C39_2 1_555 1_555
C40_2 N4_2 1_555 1_555
C41_2 C40_2 1_555 1_555
H25_2 C41_2 1_555 1_555
C46_2 C38_2 1_555 1_555
H29_2 C46_2 1_555 1_555
C47_2 C46_2 1_555 1_555
C48_2 N1_2 1_555 1_555
H30_2 C48_2 1_555 1_555
C49_2 N1_2 1_555 1_555
C50_2 N2_2 1_555 1_555
H32_2 C50_2 1_555 1_555
Co5 N4_2 1_555 1_555
Co7 N8_2 1_555 1_555
N2_2 C48_2 1_555 1_555
C6_2 C11_2 1_555 1_555
C10_2 C11_2 1_555 1_555
C49_2 C50_2 1_555 1_555
Co5 O1_2 1_555 1_555
Co7 O3_2 1_555 1_555
O1_2 C1_2 1_555 1_555
O3_2 C18_2 1_555 1_555
O4_2 Co7 1_555 1_555
N9_2 C13_2 1_555 1_555
N10_2 Co7 1_555 1_555
C2_2 C1_2 1_555 1_555
H7_2 C12_2 1_555 1_555
C13_2 C12_2 1_555 1_555
C14_2 N9_2 1_555 1_555
H8_2 C14_2 1_555 1_555
C15_2 N10_2 1_555 1_555
H9_2 C15_2 1_555 1_555
C16_2 N9_2 1_555 1_555
H10_2 C16_2 1_555 1_555
C17_2 C2_2 1_555 1_555
H11_2 C17_2 1_555 1_555
C18_2 O4_2 1_555 1_555
C19_2 C18_2 1_555 1_555
H21_2 C32_2 1_555 1_555
C33_2 C32_2 1_555 1_555
H22_2 C33_2 1_555 1_555
N10_2 C14_2 1_555 1_555
C13_2 C17_2 1_555 1_555
C15_2 C16_2 1_555 1_555
O8 C35_2 1_555 1_555
H4_2 C8_2 1_555 1_555
C9_2 C8_2 1_555 1_555
H5_2 C9_2 1_555 1_555
C35_2 C36_2 1_555 1_555
C36_2 C37_2 1_555 1_555
C37_2 H23_2 1_555 1_555
H26_2 C42_2 1_555 1_555
C43_2 C42_2 1_555 1_555
H27_2 C43_2 1_555 1_555
C44_2 C43_2 1_555 1_555
H28_2 C44_2 1_555 1_555
C51_2 C36_2 1_555 1_555
H33_2 C51_2 1_555 1_555
C44_2 C45_2 1_555 1_555
N14 C28_2 1_555 1_555
N6_2 C26_2 1_555 1_555
N11_2 C21_2 1_555 1_555
N16 C22_2 1_555 1_555
H12_2 C20_2 1_555 1_555
C21_2 C20_2 1_555 1_555
C22_2 N11_2 1_555 1_555
H13_2 C22_2 1_555 1_555
C23_2 N16 1_555 1_555
H14_2 C23_2 1_555 1_555
C24_2 N11_2 1_555 1_555
H15_2 C24_2 1_555 1_555
C25_2 C21_2 1_555 1_555
H16_2 C25_2 1_555 1_555
C26_2 C25_2 1_555 1_555
C28_2 N6_2 1_555 1_555
H18_2 C28_2 1_555 1_555
C29_2 N14 1_555 1_555
C30_2 C29_2 1_555 1_555
C31_2 C30_2 1_555 1_555
C34_2 N6_2 1_555 1_555
C23_2 C24_2 1_555 1_555
C26_2 C27_2 1_555 1_555
C29_2 C34_2 1_555 1_555
N3_3 C38_3 1_555 1_555
N4_3 C39_3 1_555 1_555
C37_3 H23_3 1_555 1_555
C38_3 C37_3 1_555 1_555
C39_3 N3_3 1_555 1_555
H24_3 C39_3 1_555 1_555
C40_3 N4_3 1_555 1_555
C41_3 C40_3 1_555 1_555
H25_3 C41_3 1_555 1_555
C42_3 C41_3 1_555 1_555
H26_3 C42_3 1_555 1_555
C43_3 C42_3 1_555 1_555
H27_3 C43_3 1_555 1_555
C44_3 C43_3 1_555 1_555
H28_3 C44_3 1_555 1_555
C45_3 N3_3 1_555 1_555
Co3_2 N4_3 1_555 1_555
C40_3 C45_3 1_555 1_555
C44_3 C45_3 1_555 1_555
Co3_2 O1_3 1_555 1_555
O1_3 C1_3 1_555 1_555
O2_3 Co3_2 1_555 1_555
O5_2 C35_3 1_555 1_555
N1_3 Co3_2 1_555 1_555
N2_3 C47_3 1_555 1_555
N7_3 C4_3 1_555 1_555
N8_3 C5_3 1_555 1_555
N9_3 C13_3 1_555 1_555
C1_3 O2_3 1_555 1_555
C2_3 C1_3 1_555 1_555
C3_3 C2_3 1_555 1_555
H1_3 C3_3 1_555 1_555
C4_3 C3_3 1_555 1_555
C5_3 N7_3 1_555 1_555
H2_3 C5_3 1_555 1_555
C6_3 N8_3 1_555 1_555
C7_3 C6_3 1_555 1_555
H3_3 C7_3 1_555 1_555
C8_3 C7_3 1_555 1_555
H4_3 C8_3 1_555 1_555
C9_3 C8_3 1_555 1_555
H5_3 C9_3 1_555 1_555
C10_3 C9_3 1_555 1_555
H6_3 C10_3 1_555 1_555
C11_3 N7_3 1_555 1_555
C12_3 C4_3 1_555 1_555
H7_3 C12_3 1_555 1_555
C13_3 C12_3 1_555 1_555
C14_3 N9_3 1_555 1_555
H8_3 C14_3 1_555 1_555
C15_3 N10_3 1_555 1_555
C16_3 N9_3 1_555 1_555
H10_3 C16_3 1_555 1_555
C17_3 C2_3 1_555 1_555
H11_3 C17_3 1_555 1_555
C35_3 C36_3 1_555 1_555
H29_3 C46_3 1_555 1_555
C47_3 C46_3 1_555 1_555
C48_3 N1_3 1_555 1_555
H30_3 C48_3 1_555 1_555
C49_3 N1_3 1_555 1_555
H31_3 C49_3 1_555 1_555
C50_3 N2_3 1_555 1_555
H32_3 C50_3 1_555 1_555
C51_3 C36_3 1_555 1_555
H33_3 C51_3 1_555 1_555
Co6_2 N8_3 1_555 1_555
Co7_2 O5_2 1_555 1_555
N14_2 Co3_2 1_555 1_555
N16_2 Co3_2 1_555 1_555
N2_3 C48_3 1_555 1_555
N10_3 C14_3 1_555 1_555
C6_3 C11_3 1_555 1_555
C10_3 C11_3 1_555 1_555
C13_3 C17_3 1_555 1_555
C15_3 C16_3 1_555 1_555
C47_3 C51_3 1_555 1_555
C49_3 C50_3 1_555 1_555
O7_2 Co6_2 1_555 1_555
N11_3 C21_3 1_555 1_555
N12_2 C22_3 1_555 1_555
H12_3 C20_3 1_555 1_555
C21_3 C20_3 1_555 1_555
C22_3 N11_3 1_555 1_555
H13_3 C22_3 1_555 1_555
C23_3 N12_2 1_555 1_555
H14_3 C23_3 1_555 1_555
C24_3 N11_3 1_555 1_555
H15_3 C24_3 1_555 1_555
Co5_2 N12_2 1_555 1_555
C23_3 C24_3 1_555 1_555
N5_2 C28_3 1_555 1_555
N6_3 C26_3 1_555 1_555
C18_3 O4_3 1_555 1_555
C19_3 C18_3 1_555 1_555
H16_3 C25_3 1_555 1_555
C26_3 C25_3 1_555 1_555
C27_3 C19_3 1_555 1_555
H17_3 C27_3 1_555 1_555
C28_3 N6_3 1_555 1_555
H18_3 C28_3 1_555 1_555
C29_3 N5_2 1_555 1_555
C30_3 C29_3 1_555 1_555
H19_3 C30_3 1_555 1_555
C31_3 C30_3 1_555 1_555
H20_3 C31_3 1_555 1_555
C32_3 C31_3 1_555 1_555
H21_3 C32_3 1_555 1_555
C33_3 C32_3 1_555 1_555
H22_3 C33_3 1_555 1_555
C34_3 N6_3 1_555 1_555
Co5_2 N5_2 1_555 1_555
C26_3 C27_3 1_555 1_555
C29_3 C34_3 1_555 1_555
C33_3 C34_3 1_555 1_555
N3_4 C38_4 1_555 1_555
N4_4 C39_4 1_555 1_555
C39_4 N3_4 1_555 1_555
H24_4 C39_4 1_555 1_555
C40_4 N4_4 1_555 1_555
C41_4 C40_4 1_555 1_555
H25_4 C41_4 1_555 1_555
Co5_2 N4_4 1_555 1_555
Co5_2 O1_4 1_555 1_555
O1_4 C1_4 1_555 1_555
O2_4 Co5_2 1_555 1_555
N1_4 Co5_2 1_555 1_555
N2_4 C47_4 1_555 1_555
N7_4 C4_4 1_555 1_555
N8_4 C5_4 1_555 1_555
N9_4 C13_4 1_555 1_555
C1_4 O2_4 1_555 1_555
C2_4 C1_4 1_555 1_555
C3_4 C2_4 1_555 1_555
H1_4 C3_4 1_555 1_555
C4_4 C3_4 1_555 1_555
C5_4 N7_4 1_555 1_555
H2_4 C5_4 1_555 1_555
C6_4 N8_4 1_555 1_555
C7_4 C6_4 1_555 1_555
H3_4 C7_4 1_555 1_555
H6_4 C10_4 1_555 1_555
C11_4 N7_4 1_555 1_555
C12_4 C4_4 1_555 1_555
H7_4 C12_4 1_555 1_555
C13_4 C12_4 1_555 1_555
C14_4 N9_4 1_555 1_555
H8_4 C14_4 1_555 1_555
C15_4 N10_4 1_555 1_555
C16_4 N9_4 1_555 1_555
H10_4 C16_4 1_555 1_555
C17_4 C2_4 1_555 1_555
H11_4 C17_4 1_555 1_555
H29_4 C46_4 1_555 1_555
C47_4 C46_4 1_555 1_555
C48_4 N1_4 1_555 1_555
H30_4 C48_4 1_555 1_555
C49_4 N1_4 1_555 1_555
H31_4 C49_4 1_555 1_555
C50_4 N2_4 1_555 1_555
H32_4 C50_4 1_555 1_555
Co7_2 N8_4 1_555 1_555
N2_4 C48_4 1_555 1_555
N10_4 C14_4 1_555 1_555
C6_4 C11_4 1_555 1_555
C10_4 C11_4 1_555 1_555
C13_4 C17_4 1_555 1_555
C15_4 C16_4 1_555 1_555
C49_4 C50_4 1_555 1_555
O4_4 Co7_2 1_555 1_555
C18_4 O4_4 1_555 1_555
C19_4 C18_4 1_555 1_555
H21_4 C32_4 1_555 1_555
C33_4 C32_4 1_555 1_555
H22_4 C33_4 1_555 1_555
C37_4 H23_4 1_555 1_555
H26_4 C42_4 1_555 1_555
C43_4 C42_4 1_555 1_555
H27_4 C43_4 1_555 1_555
C44_4 C43_4 1_555 1_555
H28_4 C44_4 1_555 1_555
C44_4 C45_4 1_555 1_555
N11_4 C21_4 1_555 1_555
N16_2 C22_4 1_555 1_555
H4_4 C8_4 1_555 1_555
C9_4 C8_4 1_555 1_555
H5_4 C9_4 1_555 1_555
H12_4 C20_4 1_555 1_555
C21_4 C20_4 1_555 1_555
C22_4 N11_4 1_555 1_555
H13_4 C22_4 1_555 1_555
C23_4 N16_2 1_555 1_555
H14_4 C23_4 1_555 1_555
C24_4 N11_4 1_555 1_555
H15_4 C24_4 1_555 1_555
C35_4 C36_4 1_555 1_555
C51_4 C36_4 1_555 1_555
H33_4 C51_4 1_555 1_555
C23_4 C24_4 1_555 1_555
N14_2 C28_4 1_555 1_555
N6_4 C26_4 1_555 1_555
H16_4 C25_4 1_555 1_555
C26_4 C25_4 1_555 1_555
C28_4 N6_4 1_555 1_555
H18_4 C28_4 1_555 1_555
C29_4 N14_2 1_555 1_555
C30_4 C29_4 1_555 1_555
H19_4 C30_4 1_555 1_555
C31_4 C30_4 1_555 1_555
C34_4 N6_4 1_555 1_555
C26_4 C27_4 1_555 1_555
C29_4 C34_4 1_555 1_555

#END
