
###############################################################################
#
# This file contains modified crystal structure data generated from the
# MOF subset of the Cambridge Structural Database (CSD) v543 
# hosted by the Cambridge Crystallographic Data Centre (CCDC).
#
# This work is licensed under the Creative Commons
# Attribution-NonCommercial-ShareAlike 4.0 International License.
# To view a copy of this license, visit
# http://creativecommons.org/licenses/by-nc-sa/4.0/
# or send a letter to
# Creative Commons, PO Box 1866, Mountain View, CA 94042, USA.
#
# CIF created using the CSD Python API on 29 September 2022
# The structure has been converted into the P1 space group
# The structure has a 3D framework
# The original CSD entry GOXYAV is in the triclinic crystal system
# The framework has been calculated to contain at least 10.0% void space
# The void calculation uses a probe of radius 1.32A, grid spacing 0.4
#
###############################################################################

data_GOXYAV
_chemical_formula_moiety         '(C8 H12 N16 O8 S2 Zn4)n'
_symmetry_cell_setting           triclinic
_symmetry_space_group_name_H-M   'P 1'
_symmetry_Int_Tables_number      1
_space_group_name_Hall           'P 1'
loop_
_symmetry_equiv_pos_site_id
_symmetry_equiv_pos_as_xyz
1 x,y,z
_cell_length_a                   9.38(2)
_cell_length_b                   9.77(2)
_cell_length_c                   9.93(2)
_cell_angle_alpha                95.818(7)
_cell_angle_beta                 117.348(11)
_cell_angle_gamma                113.550(19)
_cell_volume                     694.136
loop_
_atom_site_label
_atom_site_type_symbol
_atom_site_fract_x
_atom_site_fract_y
_atom_site_fract_z
Zn4 Zn 0.70393(11) 0.68178(10) 0.06075(10)
O5 O 0.3332(8) 0.1587(6) 0.0380(6)
N9 N 0.4024(8) 0.5115(7) 0.1187(7)
Zn1 Zn 0.29607(11) 0.31822(10) 0.93925(10)
N1 N 0.4208(8) 0.3564(7) 0.8194(7)
N2 N 0.5976(8) 0.4885(7) 0.8813(7)
N3 N 0.5063(8) 0.3231(7) 0.6474(7)
N4 N 0.8013(10) 0.5676(8) 0.7895(9)
H1 H 0.8805 0.6556 0.8707
H2 H 0.8228 0.5454 0.7172
N5 N 0.0195(8) 0.2053(7) 0.7914(7)
C1 C 0.6418(11) 0.4635(9) 0.7753(9)
C2 C 0.3747(10) 0.2639(9) 0.6841(9)
H5 H 0.2635 0.1675 0.6192
Zn5 Zn 0.51905(11) 0.19018(10) 0.48973(10)
S1 S 0.5189(3) 0.2141(2) 0.1904(2)
O2 O 0.5180(8) 0.2923(7) 0.3309(6)
O3 O 0.5369(8) 0.0741(7) 0.2121(7)
O4 O 0.6700(8) 0.3360(7) 0.1857(7)
N6 N 0.7400(9) 0.1649(7) 0.6118(7)
N7 N 0.7187(8) 0.0196(7) 0.6334(7)
C3 C 0.8913(10) 0.0525(8) 0.7436(8)
C4 C 0.9183(10) 0.2706(9) 0.7070(8)
H6 H 0.9696 0.3771 0.7159
N8 N 0.9291(9) 0.9395(8) 0.7964(8)
H4 H 0.8401 0.8432 0.7608
Zn6 Zn 0.48095(11) 0.80982(10) 0.51027(10)
N11 N 0.2813(8) 0.9804(7) 0.3666(7)
N8_2 N 0.0709(9) 0.0605(8) 0.2036(8)
H4_2 H 0.1599 0.1568 0.2392
S1_2 S 0.4811(3) 0.7859(2) 0.8096(2)
O1 O 0.6668(8) 0.8413(6) 0.9620(6)
O2_2 O 0.4820(8) 0.7077(7) 0.6691(6)
O3_2 O 0.4631(8) 0.9259(7) 0.7879(7)
O4_2 O 0.3300(8) 0.6640(7) 0.8143(7)
N6_2 N 0.2600(9) 0.8351(7) 0.3882(7)
C3_2 C 0.1087(10) 0.9475(8) 0.2564(8)
C4_2 C 0.0817(10) 0.7294(9) 0.2930(8)
H6_2 H 0.0304 0.6229 0.2841
N10 N 0.4937(8) 0.6769(7) 0.3526(7)
N1_2 N 0.5792(8) 0.6436(7) 0.1806(7)
N4_2 N 0.1987(10) 0.4324(8) 0.2105(9)
H1_2 H 0.1195 0.3444 0.1293
H2_2 H 0.1772 0.4546 0.2828
N5_2 N 0.9805(8) 0.7947(7) 0.2086(7)
C1_2 C 0.3582(11) 0.5365(9) 0.2247(9)
C2_2 C 0.6253(10) 0.7361(9) 0.3159(9)
H5_2 H 0.7365 0.8325 0.3808
H3 H 0.0418 0.9647 0.8652
H3_2 H 0.9582 0.0353 0.1348
loop_
_geom_bond_atom_site_label_1
_geom_bond_atom_site_label_2
_geom_bond_site_symmetry_1
_geom_bond_site_symmetry_2
Zn1 N1 1_555 1_555
N1 N2 1_555 1_555
N2 C1 1_555 1_555
N3 C1 1_555 1_555
N4 H1 1_555 1_555
H2 N4 1_555 1_555
N5 Zn1 1_555 1_555
C1 N4 1_555 1_555
C2 N1 1_555 1_555
H5 C2 1_555 1_555
Zn5 N3 1_555 1_555
N3 C2 1_555 1_555
Zn5 O2 1_555 1_555
S1 O5 1_555 1_555
O2 S1 1_555 1_555
O3 S1 1_555 1_555
O4 S1 1_555 1_555
N6 Zn5 1_555 1_555
N7 N6 1_555 1_555
H6 C4 1_555 1_555
N6 C4 1_555 1_555
N7 C3 1_555 1_555
H4 N8 1_555 1_555
H4_2 N8_2 1_555 1_555
Zn6 O2_2 1_555 1_555
S1_2 O1 1_555 1_555
O2_2 S1_2 1_555 1_555
O3_2 S1_2 1_555 1_555
O4_2 S1_2 1_555 1_555
N6_2 Zn6 1_555 1_555
N11 N6_2 1_555 1_555
H6_2 C4_2 1_555 1_555
N10 Zn6 1_555 1_555
N6_2 C4_2 1_555 1_555
N11 C3_2 1_555 1_555
Zn4 N1_2 1_555 1_555
N1_2 N9 1_555 1_555
N9 C1_2 1_555 1_555
N10 C1_2 1_555 1_555
N4_2 H1_2 1_555 1_555
H2_2 N4_2 1_555 1_555
N5_2 Zn4 1_555 1_555
C1_2 N4_2 1_555 1_555
C2_2 N1_2 1_555 1_555
H5_2 C2_2 1_555 1_555
N10 C2_2 1_555 1_555

#END
