
###############################################################################
#
# This file contains modified crystal structure data generated from the
# MOF subset of the Cambridge Structural Database (CSD) v543 
# hosted by the Cambridge Crystallographic Data Centre (CCDC).
#
# This work is licensed under the Creative Commons
# Attribution-NonCommercial-ShareAlike 4.0 International License.
# To view a copy of this license, visit
# http://creativecommons.org/licenses/by-nc-sa/4.0/
# or send a letter to
# Creative Commons, PO Box 1866, Mountain View, CA 94042, USA.
#
# CIF created using the CSD Python API on 29 September 2022
# The structure has been converted into the P1 space group
# The structure has a 3D framework
# The original CSD entry GOYXID is in the monoclinic crystal system
# The framework has been calculated to contain at least 10.0% void space
# The void calculation uses a probe of radius 1.32A, grid spacing 0.4
#
###############################################################################

data_GOYXID
_chemical_formula_moiety         '(C112 H64 Ag8 Gd8 N16 O58)n'
_symmetry_cell_setting           triclinic
_symmetry_space_group_name_H-M   'P 1'
_symmetry_Int_Tables_number      1
_space_group_name_Hall           'P 1'
loop_
_symmetry_equiv_pos_site_id
_symmetry_equiv_pos_as_xyz
1 x,y,z
_cell_length_a                   22.130(4)
_cell_length_b                   9.5164(19)
_cell_length_c                   16.828(3)
_cell_angle_alpha                90
_cell_angle_beta                 97.086(2)
_cell_angle_gamma                90
_cell_volume                     3516.87
loop_
_atom_site_label
_atom_site_type_symbol
_atom_site_fract_x
_atom_site_fract_y
_atom_site_fract_z
O1 O 0.0598(2) 0.2715(5) 0.1929(3)
C12 C 0.0352(3) 0.2571(7) 0.2554(4)
O7 O 0.0615(2) 0.2424(5) 0.3250(3)
O12 O 0.0575(2) 0.0911(5) 0.0594(3)
Gd3 Gd 0.004538(13) 0.29997(3) 0.434324(18)
O19 O 0.0850(2) 0.4159(5) 0.0464(3)
C2 C 0.0649(3) 0.2919(7) 0.8152(4)
O2 O 0.0091(2) 0.2648(6) 0.9266(3)
C4 C 0.0282(3) 0.3505(7) 0.8786(4)
C6 C 0.0679(3) 0.1481(7) 0.8010(4)
H2 H 0.0500 0.0835 0.8323
C9 C 0.0955(3) 0.3813(8) 0.7705(4)
H5 H 0.0957 0.4775 0.7802
C11 C 0.1262(4) 0.3263(9) 0.7103(5)
H7 H 0.1474 0.3877 0.6808
C13 C 0.0985(4) 0.1051(8) 0.7381(5)
H8 H 0.0993 0.0096 0.7267
N1 N 0.1267(3) 0.1918(7) 0.6932(4)
O6 O 0.0203(2) 0.4800(5) 0.8778(3)
Ag2 Ag 0.15892(3) 0.12067(10) 0.58332(4)
C17 C 0.3071(4) 0.5783(12) 0.5485(6)
H9 H 0.3486 0.5977 0.5527
C19 C 0.1189(3) 0.4919(7) 0.5244(4)
O14 O 0.1027(2) 0.3762(5) 0.4944(3)
C21 C 0.1852(3) 0.5242(7) 0.5364(4)
C23 C 0.2242(3) 0.4513(8) 0.4924(5)
H11 H 0.2080 0.3809 0.4579
C24 C 0.2104(4) 0.6280(9) 0.5881(5)
H12 H 0.1859 0.6803 0.6183
C26 C 0.2719(4) 0.6525(12) 0.5941(6)
H14 H 0.2895 0.7202 0.6295
N4 N 0.2841(3) 0.4778(8) 0.4975(4)
O15 O 0.0850(2) 0.5841(5) 0.5464(3)
Gd5 Gd 0.004538(13) 0.70003(3) 0.934324(18)
Ag5 Ag 0.34108(3) 0.37933(10) 0.41668(4)
O18 O 0.0637(2) 0.0965(5) 0.4822(3)
N6 N 0.2159(3) 0.0222(8) 0.5025(4)
O22 O 0.0203(2) 0.5200(5) 0.3778(3)
C16 C 0.0346(3) 0.9987(6) 0.0116(4)
Ag3 Ag 0.15892(3) 0.87933(10) 0.08332(4)
O11 O 0.0637(2) 0.9035(5) 0.9822(3)
Gd1 Gd 0.995462(13) 0.29997(3) 0.065676(18)
O3 O 0.9363(2) 0.0965(5) 0.0178(3)
O4 O 0.8973(2) 0.3762(5) 0.0056(3)
C7 C 0.7758(3) 0.4513(8) 0.0076(5)
H3 H 0.7920 0.3809 0.0421
N2 N 0.7159(3) 0.4778(8) 0.0025(4)
O9 O 0.9402(2) 0.2715(5) 0.3071(3)
C15 C 0.9648(3) 0.2571(7) 0.2446(4)
O10 O 0.9385(2) 0.2424(5) 0.1750(3)
Ag4 Ag 0.65892(3) 0.37933(10) 0.08332(4)
O21 O 0.9797(2) 0.5200(5) 0.1222(3)
Ag1 Ag 0.84108(3) 0.12067(10) 0.91668(4)
C1 C 0.6929(4) 0.5783(12) 0.9515(6)
H1 H 0.6514 0.5977 0.9473
C3 C 0.8811(3) 0.4919(7) 0.9756(4)
C5 C 0.8148(3) 0.5242(7) 0.9636(4)
C8 C 0.7896(4) 0.6280(9) 0.9119(5)
H4 H 0.8141 0.6803 0.8817
C10 C 0.7281(4) 0.6525(12) 0.9059(6)
H6 H 0.7105 0.7202 0.8705
O5 O 0.9150(2) 0.5841(5) 0.9536(3)
C14 C 0.9654(3) 0.0013(6) 0.9884(4)
C18 C 0.9351(3) 0.2919(7) 0.6848(4)
O13 O 0.9909(2) 0.2648(6) 0.5734(3)
C20 C 0.9718(3) 0.3505(7) 0.6214(4)
C22 C 0.9321(3) 0.1481(7) 0.6990(4)
H10 H 0.9500 0.0835 0.6677
C25 C 0.9045(3) 0.3813(8) 0.7295(4)
H13 H 0.9043 0.4775 0.7198
C27 C 0.8738(4) 0.3263(9) 0.7897(5)
H15 H 0.8526 0.3877 0.8192
C28 C 0.9015(4) 0.1051(8) 0.7619(5)
H16 H 0.9007 0.0096 0.7733
N3 N 0.8733(3) 0.1918(7) 0.8068(4)
O16 O 0.9797(2) 0.4800(5) 0.6222(3)
Gd6 Gd 0.995462(13) 0.70003(3) 0.565676(18)
N5 N 0.7841(3) 0.0222(8) 0.9975(4)
O20 O 0.9150(2) 0.4159(5) 0.4536(3)
O24 O 0.9425(2) 0.0911(5) 0.4406(3)
O8 O 0.9425(2) 0.9089(5) 0.9406(3)
C14_2 C 0.0346(3) 0.0013(6) 0.5116(4)
O8_2 O 0.0575(2) 0.9089(5) 0.5594(3)
O11_2 O 0.9363(2) 0.9035(5) 0.5178(3)
C16_2 C 0.9654(3) 0.9987(6) 0.4884(4)
Ag3_2 Ag 0.84108(3) 0.87933(10) 0.41668(4)
O21_2 O 0.4797(2) 0.0200(5) 0.1222(3)
C1_2 C 0.1929(4) 0.0783(12) 0.9515(6)
H1_2 H 0.1514 0.0977 0.9473
C5_2 C 0.3148(3) 0.0242(7) 0.9636(4)
C8_2 C 0.2896(4) 0.1280(9) 0.9119(5)
H4_2 H 0.3141 0.1803 0.8817
C10_2 C 0.2281(4) 0.1525(12) 0.9059(6)
H6_2 H 0.2105 0.2202 0.8705
O5_2 O 0.4150(2) 0.0841(5) 0.9536(3)
C17_2 C 0.8071(4) 0.0783(12) 0.5485(6)
H9_2 H 0.8486 0.0977 0.5527
C21_2 C 0.6852(3) 0.0242(7) 0.5364(4)
C24_2 C 0.7104(4) 0.1280(9) 0.5881(5)
H12_2 H 0.6859 0.1803 0.6183
C26_2 C 0.7719(4) 0.1525(12) 0.5941(6)
H14_2 H 0.7895 0.2202 0.6295
O15_2 O 0.5850(2) 0.0841(5) 0.5464(3)
Gd5_2 Gd 0.504538(13) 0.20003(3) 0.934324(18)
Gd6_2 Gd 0.495462(13) 0.20003(3) 0.565676(18)
O22_2 O 0.5203(2) 0.0200(5) 0.3778(3)
Gd1_2 Gd 0.495462(13) 0.79997(3) 0.065676(18)
O1_2 O 0.5598(2) 0.7715(5) 0.1929(3)
O3_2 O 0.4363(2) 0.5965(5) 0.0178(3)
O4_2 O 0.3973(2) 0.8762(5) 0.0056(3)
C7_2 C 0.2758(3) 0.9513(8) 0.0076(5)
H3_2 H 0.2920 0.8809 0.0421
C12_2 C 0.5352(3) 0.7571(7) 0.2554(4)
N2_2 N 0.2159(3) 0.9778(8) 0.0025(4)
O7_2 O 0.5615(2) 0.7424(5) 0.3250(3)
O9_2 O 0.4402(2) 0.7715(5) 0.3071(3)
C15_2 C 0.4648(3) 0.7571(7) 0.2446(4)
O10_2 O 0.4385(2) 0.7424(5) 0.1750(3)
O12_2 O 0.5575(2) 0.5911(5) 0.0594(3)
C16_3 C 0.5346(3) 0.4987(6) 0.0116(4)
Gd3_2 Gd 0.504538(13) 0.79997(3) 0.434324(18)
O19_2 O 0.5850(2) 0.9159(5) 0.0464(3)
Ag1_2 Ag 0.34108(3) 0.62067(10) 0.91668(4)
C2_2 C 0.5649(3) 0.7919(7) 0.8152(4)
O2_2 O 0.5091(2) 0.7648(6) 0.9266(3)
C3_2 C 0.3811(3) 0.9919(7) 0.9756(4)
C4_2 C 0.5282(3) 0.8505(7) 0.8786(4)
C6_2 C 0.5679(3) 0.6481(7) 0.8010(4)
H2_2 H 0.5500 0.5835 0.8323
C9_2 C 0.5955(3) 0.8813(8) 0.7705(4)
H5_2 H 0.5957 0.9775 0.7802
C11_2 C 0.6262(4) 0.8263(9) 0.7103(5)
H7_2 H 0.6474 0.8877 0.6808
C13_2 C 0.5985(4) 0.6051(8) 0.7381(5)
H8_2 H 0.5993 0.5096 0.7267
N1_2 N 0.6267(3) 0.6918(7) 0.6932(4)
O6_2 O 0.5203(2) 0.9800(5) 0.8778(3)
O8_3 O 0.4425(2) 0.4089(5) 0.9406(3)
C14_3 C 0.4654(3) 0.5013(6) 0.9884(4)
O11_3 O 0.5637(2) 0.4035(5) 0.9822(3)
Ag2_2 Ag 0.65892(3) 0.62067(10) 0.58332(4)
C18_2 C 0.4351(3) 0.7919(7) 0.6848(4)
O13_2 O 0.4909(2) 0.7648(6) 0.5734(3)
C19_2 C 0.6189(3) 0.9919(7) 0.5244(4)
O14_2 O 0.6027(2) 0.8762(5) 0.4944(3)
C20_2 C 0.4718(3) 0.8505(7) 0.6214(4)
C22_2 C 0.4321(3) 0.6481(7) 0.6990(4)
H10_2 H 0.4500 0.5835 0.6677
C23_2 C 0.7242(3) 0.9513(8) 0.4924(5)
H11_2 H 0.7080 0.8809 0.4579
C25_2 C 0.4045(3) 0.8813(8) 0.7295(4)
H13_2 H 0.4043 0.9775 0.7198
C27_2 C 0.3738(4) 0.8263(9) 0.7897(5)
H15_2 H 0.3526 0.8877 0.8192
C28_2 C 0.4015(4) 0.6051(8) 0.7619(5)
H16_2 H 0.4007 0.5096 0.7733
N3_2 N 0.3733(3) 0.6918(7) 0.8068(4)
N4_2 N 0.7841(3) 0.9778(8) 0.4975(4)
O16_2 O 0.4797(2) 0.9800(5) 0.6222(3)
O18_2 O 0.5637(2) 0.5965(5) 0.4822(3)
N5_2 N 0.2841(3) 0.5222(8) 0.9975(4)
N6_2 N 0.7159(3) 0.5222(8) 0.5025(4)
O20_2 O 0.4150(2) 0.9159(5) 0.4536(3)
O24_2 O 0.4425(2) 0.5911(5) 0.4406(3)
O8_4 O 0.5575(2) 0.4089(5) 0.5594(3)
C14_4 C 0.5346(3) 0.5013(6) 0.5116(4)
O11_4 O 0.4363(2) 0.4035(5) 0.5178(3)
C16_4 C 0.4654(3) 0.4987(6) 0.4884(4)
C1_3 C 0.3071(4) 0.4217(12) 0.0485(6)
H1_3 H 0.3486 0.4023 0.0527
C3_3 C 0.1189(3) 0.5081(7) 0.0244(4)
C5_3 C 0.1852(3) 0.4758(7) 0.0364(4)
C8_3 C 0.2104(4) 0.3720(9) 0.0881(5)
H4_3 H 0.1859 0.3197 0.1183
C10_3 C 0.2719(4) 0.3475(12) 0.0941(6)
H6_3 H 0.2895 0.2798 0.1295
C18_3 C 0.0649(3) 0.7081(7) 0.3152(4)
O13_3 O 0.0091(2) 0.7352(6) 0.4266(3)
C20_3 C 0.0282(3) 0.6495(7) 0.3786(4)
C22_3 C 0.0679(3) 0.8519(7) 0.3010(4)
H10_3 H 0.0500 0.9165 0.3323
C25_3 C 0.0955(3) 0.6187(8) 0.2705(4)
H13_3 H 0.0957 0.5225 0.2802
C27_3 C 0.1262(4) 0.6737(9) 0.2103(5)
H15_3 H 0.1474 0.6123 0.1808
C28_3 C 0.0985(4) 0.8949(8) 0.2381(5)
H16_3 H 0.0993 0.9904 0.2267
N3_3 N 0.1267(3) 0.8082(7) 0.1932(4)
O17 O 0.0598(2) 0.7285(5) 0.6929(3)
O4_3 O 0.1027(2) 0.6238(5) 0.9944(3)
C7_3 C 0.2242(3) 0.5487(8) 0.9924(5)
H3_3 H 0.2080 0.6191 0.9579
C15_3 C 0.0352(3) 0.7429(7) 0.7554(4)
O10_3 O 0.0615(2) 0.7576(5) 0.8250(3)
C2_3 C 0.9351(3) 0.7081(7) 0.1848(4)
O2_3 O 0.9909(2) 0.7352(6) 0.0734(3)
C4_3 C 0.9718(3) 0.6495(7) 0.1214(4)
C6_3 C 0.9321(3) 0.8519(7) 0.1990(4)
H2_3 H 0.9500 0.9165 0.1677
C9_3 C 0.9045(3) 0.6187(8) 0.2295(4)
H5_3 H 0.9043 0.5225 0.2198
C11_3 C 0.8738(4) 0.6737(9) 0.2897(5)
H7_3 H 0.8526 0.6123 0.3192
C13_3 C 0.9015(4) 0.8949(8) 0.2619(5)
H8_3 H 0.9007 0.9904 0.2733
N1_3 N 0.8733(3) 0.8082(7) 0.3068(4)
C17_3 C 0.6929(4) 0.4217(12) 0.4515(6)
H9_3 H 0.6514 0.4023 0.4473
C19_3 C 0.8811(3) 0.5081(7) 0.4756(4)
O14_3 O 0.8973(2) 0.6238(5) 0.5056(3)
C21_3 C 0.8148(3) 0.4758(7) 0.4636(4)
C23_3 C 0.7758(3) 0.5487(8) 0.5076(5)
H11_3 H 0.7920 0.6191 0.5421
C24_3 C 0.7896(4) 0.3720(9) 0.4119(5)
H12_3 H 0.8141 0.3197 0.3817
C26_3 C 0.7281(4) 0.3475(12) 0.4059(6)
H14_3 H 0.7105 0.2798 0.3705
O23 O 0.9385(2) 0.7576(5) 0.6750(3)
O1_3 O 0.9402(2) 0.7285(5) 0.8071(3)
C12_3 C 0.9648(3) 0.7429(7) 0.7446(4)
C2_4 C 0.4351(3) 0.2081(7) 0.1848(4)
O2_4 O 0.4909(2) 0.2352(6) 0.0734(3)
C3_4 C 0.6189(3) 0.0081(7) 0.0244(4)
C4_4 C 0.4718(3) 0.1495(7) 0.1214(4)
C6_4 C 0.4321(3) 0.3519(7) 0.1990(4)
H2_4 H 0.4500 0.4165 0.1677
C9_4 C 0.4045(3) 0.1187(8) 0.2295(4)
H5_4 H 0.4043 0.0225 0.2198
C11_4 C 0.3738(4) 0.1737(9) 0.2897(5)
H7_4 H 0.3526 0.1123 0.3192
C13_4 C 0.4015(4) 0.3949(8) 0.2619(5)
H8_4 H 0.4007 0.4904 0.2733
N1_4 N 0.3733(3) 0.3082(7) 0.3068(4)
C18_4 C 0.5649(3) 0.2081(7) 0.3152(4)
O13_4 O 0.5091(2) 0.2352(6) 0.4266(3)
C19_4 C 0.3811(3) 0.0081(7) 0.4756(4)
O14_4 O 0.3973(2) 0.1238(5) 0.5056(3)
C20_4 C 0.5282(3) 0.1495(7) 0.3786(4)
C22_4 C 0.5679(3) 0.3519(7) 0.3010(4)
H10_4 H 0.5500 0.4165 0.3323
C23_4 C 0.2758(3) 0.0487(8) 0.5076(5)
H11_4 H 0.2920 0.1191 0.5421
C25_4 C 0.5955(3) 0.1187(8) 0.2705(4)
H13_4 H 0.5957 0.0225 0.2802
C27_4 C 0.6262(4) 0.1737(9) 0.2103(5)
H15_4 H 0.6474 0.1123 0.1808
C28_4 C 0.5985(4) 0.3949(8) 0.2381(5)
H16_4 H 0.5993 0.4904 0.2267
N3_4 N 0.6267(3) 0.3082(7) 0.1932(4)
O17_2 O 0.5598(2) 0.2285(5) 0.6929(3)
O23_2 O 0.4385(2) 0.2576(5) 0.6750(3)
O1_4 O 0.4402(2) 0.2285(5) 0.8071(3)
O4_4 O 0.6027(2) 0.1238(5) 0.9944(3)
C7_4 C 0.7242(3) 0.0487(8) 0.9924(5)
H3_4 H 0.7080 0.1191 0.9579
C12_4 C 0.4648(3) 0.2429(7) 0.7446(4)
C15_4 C 0.5352(3) 0.2429(7) 0.7554(4)
O10_4 O 0.5615(2) 0.2576(5) 0.8250(3)
C1_4 C 0.8071(4) 0.9217(12) 0.0485(6)
H1_4 H 0.8486 0.9023 0.0527
C5_4 C 0.6852(3) 0.9758(7) 0.0364(4)
C8_4 C 0.7104(4) 0.8720(9) 0.0881(5)
H4_4 H 0.6859 0.8197 0.1183
C10_4 C 0.7719(4) 0.8475(12) 0.0941(6)
H6_4 H 0.7895 0.7798 0.1295
C17_4 C 0.1929(4) 0.9217(12) 0.4515(6)
H9_4 H 0.1514 0.9023 0.4473
C21_4 C 0.3148(3) 0.9758(7) 0.4636(4)
C24_4 C 0.2896(4) 0.8720(9) 0.4119(5)
H12_4 H 0.3141 0.8197 0.3817
C26_4 C 0.2281(4) 0.8475(12) 0.4059(6)
H14_4 H 0.2105 0.7798 0.3705
loop_
_geom_bond_atom_site_label_1
_geom_bond_atom_site_label_2
_geom_bond_site_symmetry_1
_geom_bond_site_symmetry_2
O1 C12 1_555 1_555
C12 O7 1_555 1_555
O7 Gd3 1_555 1_555
C2 C4 1_555 1_555
C4 O2 1_555 1_555
C6 C2 1_555 1_555
H2 C6 1_555 1_555
C9 C2 1_555 1_555
H5 C9 1_555 1_555
C11 C9 1_555 1_555
H7 C11 1_555 1_555
C13 C6 1_555 1_555
H8 C13 1_555 1_555
N1 C11 1_555 1_555
O6 C4 1_555 1_555
Ag2 N1 1_555 1_555
C17 H9 1_555 1_555
C19 O14 1_555 1_555
O14 Gd3 1_555 1_555
C21 C19 1_555 1_555
C23 C21 1_555 1_555
H11 C23 1_555 1_555
C24 C21 1_555 1_555
H12 C24 1_555 1_555
C26 C17 1_555 1_555
H14 C26 1_555 1_555
N4 C17 1_555 1_555
O15 C19 1_555 1_555
Ag5 N4 1_555 1_555
O18 Gd3 1_555 1_555
N6 Ag2 1_555 1_555
O22 Gd3 1_555 1_555
C13 N1 1_555 1_555
O6 Gd5 1_555 1_555
Ag2 O18 1_555 1_555
C23 N4 1_555 1_555
C24 C26 1_555 1_555
O11 Gd5 1_555 1_555
O3 Gd1 1_555 1_555
O4 Gd1 1_555 1_555
H3 C7 1_555 1_555
O9 C15 1_555 1_555
O10 Gd1 1_555 1_555
Ag4 N2 1_555 1_555
O21 Gd1 1_555 1_555
C7 N2 1_555 1_555
C15 O10 1_555 1_555
C1 H1 1_555 1_555
C5 C3 1_555 1_555
C8 C5 1_555 1_555
H4 C8 1_555 1_555
C10 C1 1_555 1_555
H6 C10 1_555 1_555
O5 C3 1_555 1_555
C18 C20 1_555 1_555
O13 C20 1_555 1_555
C20 O16 1_555 1_555
C22 C18 1_555 1_555
H10 C22 1_555 1_555
C25 C18 1_555 1_555
H13 C25 1_555 1_555
C27 C25 1_555 1_555
H15 C27 1_555 1_555
C28 C22 1_555 1_555
H16 C28 1_555 1_555
N3 Ag1 1_555 1_555
O16 Gd6 1_555 1_555
N5 Ag1 1_555 1_555
C8 C10 1_555 1_555
C27 N3 1_555 1_555
C28 N3 1_555 1_555
C14_2 O18 1_555 1_555
O11_2 C16_2 1_555 1_555
Ag3_2 O11_2 1_555 1_555
O11_2 Gd6 1_555 1_555
C1_2 H1_2 1_555 1_555
C8_2 C5_2 1_555 1_555
H4_2 C8_2 1_555 1_555
C10_2 C1_2 1_555 1_555
H6_2 C10_2 1_555 1_555
C17_2 H9_2 1_555 1_555
C24_2 C21_2 1_555 1_555
H12_2 C24_2 1_555 1_555
C26_2 C17_2 1_555 1_555
H14_2 C26_2 1_555 1_555
Gd5_2 O5_2 1_555 1_555
Gd6_2 O15_2 1_555 1_555
C8_2 C10_2 1_555 1_555
C24_2 C26_2 1_555 1_555
Gd1_2 O1_2 1_555 1_555
O1_2 C12_2 1_555 1_555
O3_2 Gd1_2 1_555 1_555
O4_2 Gd1_2 1_555 1_555
H3_2 C7_2 1_555 1_555
C12_2 O7_2 1_555 1_555
O7_2 Gd3_2 1_555 1_555
O9_2 C15_2 1_555 1_555
C15_2 C12_2 1_555 1_555
O10_2 Gd1_2 1_555 1_555
O12_2 Gd1_2 1_555 1_555
Gd3_2 O9_2 1_555 1_555
Ag3 N2_2 1_555 1_555
O19_2 Gd1_2 1_555 1_555
C7_2 N2_2 1_555 1_555
C15_2 O10_2 1_555 1_555
O12_2 C16_3 1_555 1_555
C2_2 C4_2 1_555 1_555
C4_2 O2_2 1_555 1_555
C6_2 C2_2 1_555 1_555
H2_2 C6_2 1_555 1_555
C9_2 C2_2 1_555 1_555
H5_2 C9_2 1_555 1_555
C11_2 C9_2 1_555 1_555
H7_2 C11_2 1_555 1_555
C13_2 C6_2 1_555 1_555
H8_2 C13_2 1_555 1_555
N1_2 C11_2 1_555 1_555
O6_2 C4_2 1_555 1_555
O8_3 C14_3 1_555 1_555
Gd3_2 O13_2 1_555 1_555
Ag2_2 N1_2 1_555 1_555
C18_2 C20_2 1_555 1_555
O13_2 C20_2 1_555 1_555
C19_2 O14_2 1_555 1_555
O14_2 Gd3_2 1_555 1_555
C20_2 O16_2 1_555 1_555
C22_2 C18_2 1_555 1_555
H10_2 C22_2 1_555 1_555
H11_2 C23_2 1_555 1_555
C25_2 C18_2 1_555 1_555
H13_2 C25_2 1_555 1_555
C27_2 C25_2 1_555 1_555
H15_2 C27_2 1_555 1_555
C28_2 C22_2 1_555 1_555
H16_2 C28_2 1_555 1_555
N3_2 Ag1_2 1_555 1_555
Gd5_2 O8_3 1_555 1_555
Ag3_2 N4_2 1_555 1_555
O18_2 Gd3_2 1_555 1_555
N5_2 Ag1_2 1_555 1_555
N6_2 Ag2_2 1_555 1_555
O20_2 Gd3_2 1_555 1_555
O24_2 Gd3_2 1_555 1_555
C13_2 N1_2 1_555 1_555
O11_3 Gd5_2 1_555 1_555
Ag2_2 O18_2 1_555 1_555
C23_2 N4_2 1_555 1_555
C27_2 N3_2 1_555 1_555
C28_2 N3_2 1_555 1_555
O8_4 C14_4 1_555 1_555
C14_4 O18_2 1_555 1_555
O11_4 C16_4 1_555 1_555
C16_4 C14_4 1_555 1_555
Gd6_2 O8_4 1_555 1_555
Ag5 O11_4 1_555 1_555
O11_4 Gd6_2 1_555 1_555
O24_2 C16_4 1_555 1_555
C1_3 H1_3 1_555 1_555
C5_3 C3_3 1_555 1_555
C8_3 C5_3 1_555 1_555
H4_3 C8_3 1_555 1_555
C10_3 C1_3 1_555 1_555
H6_3 C10_3 1_555 1_555
O19 C3_3 1_555 1_555
C18_3 C20_3 1_555 1_555
O13_3 C20_3 1_555 1_555
C20_3 O22 1_555 1_555
C22_3 C18_3 1_555 1_555
H10_3 C22_3 1_555 1_555
C25_3 C18_3 1_555 1_555
H13_3 C25_3 1_555 1_555
C27_3 C25_3 1_555 1_555
H15_3 C27_3 1_555 1_555
C28_3 C22_3 1_555 1_555
H16_3 C28_3 1_555 1_555
N3_3 Ag3 1_555 1_555
C8_3 C10_3 1_555 1_555
C27_3 N3_3 1_555 1_555
C28_3 N3_3 1_555 1_555
O4_3 Gd5 1_555 1_555
H3_3 C7_3 1_555 1_555
O17 C15_3 1_555 1_555
O10_3 Gd5 1_555 1_555
C7_3 N5_2 1_555 1_555
C15_3 O10_3 1_555 1_555
C2_3 C4_3 1_555 1_555
C4_3 O2_3 1_555 1_555
C6_3 C2_3 1_555 1_555
H2_3 C6_3 1_555 1_555
C9_3 C2_3 1_555 1_555
H5_3 C9_3 1_555 1_555
C11_3 C9_3 1_555 1_555
H7_3 C11_3 1_555 1_555
C13_3 C6_3 1_555 1_555
H8_3 C13_3 1_555 1_555
N1_3 C11_3 1_555 1_555
O21 C4_3 1_555 1_555
Ag3_2 N1_3 1_555 1_555
C17_3 H9_3 1_555 1_555
C19_3 O14_3 1_555 1_555
O14_3 Gd6 1_555 1_555
C21_3 C19_3 1_555 1_555
C23_3 C21_3 1_555 1_555
H11_3 C23_3 1_555 1_555
C24_3 C21_3 1_555 1_555
H12_3 C24_3 1_555 1_555
C26_3 C17_3 1_555 1_555
H14_3 C26_3 1_555 1_555
N6_2 C17_3 1_555 1_555
O20 C19_3 1_555 1_555
O23 Gd6 1_555 1_555
C13_3 N1_3 1_555 1_555
C23_3 N6_2 1_555 1_555
C24_3 C26_3 1_555 1_555
O1_3 C12_3 1_555 1_555
C12_3 O23 1_555 1_555
C2_4 C4_4 1_555 1_555
C4_4 O2_4 1_555 1_555
C6_4 C2_4 1_555 1_555
H2_4 C6_4 1_555 1_555
C9_4 C2_4 1_555 1_555
H5_4 C9_4 1_555 1_555
C11_4 C9_4 1_555 1_555
H7_4 C11_4 1_555 1_555
C13_4 C6_4 1_555 1_555
H8_4 C13_4 1_555 1_555
N1_4 C11_4 1_555 1_555
O21_2 C4_4 1_555 1_555
Gd6_2 O13_4 1_555 1_555
Ag5 N1_4 1_555 1_555
C18_4 C20_4 1_555 1_555
O13_4 C20_4 1_555 1_555
C19_4 O14_4 1_555 1_555
O14_4 Gd6_2 1_555 1_555
C20_4 O22_2 1_555 1_555
C22_4 C18_4 1_555 1_555
H10_4 C22_4 1_555 1_555
H11_4 C23_4 1_555 1_555
C25_4 C18_4 1_555 1_555
H13_4 C25_4 1_555 1_555
C27_4 C25_4 1_555 1_555
H15_4 C27_4 1_555 1_555
C28_4 C22_4 1_555 1_555
H16_4 C28_4 1_555 1_555
N3_4 Ag4 1_555 1_555
O17_2 Gd6_2 1_555 1_555
O23_2 Gd6_2 1_555 1_555
C13_4 N1_4 1_555 1_555
C23_4 N6 1_555 1_555
C27_4 N3_4 1_555 1_555
C28_4 N3_4 1_555 1_555
Gd5_2 O1_4 1_555 1_555
O1_4 C12_4 1_555 1_555
O4_4 Gd5_2 1_555 1_555
H3_4 C7_4 1_555 1_555
C12_4 O23_2 1_555 1_555
O17_2 C15_4 1_555 1_555
C15_4 C12_4 1_555 1_555
O10_4 Gd5_2 1_555 1_555
C7_4 N5 1_555 1_555
C15_4 O10_4 1_555 1_555
C1_4 H1_4 1_555 1_555
C8_4 C5_4 1_555 1_555
H4_4 C8_4 1_555 1_555
C10_4 C1_4 1_555 1_555
H6_4 C10_4 1_555 1_555
C17_4 H9_4 1_555 1_555
C24_4 C21_4 1_555 1_555
H12_4 C24_4 1_555 1_555
C26_4 C17_4 1_555 1_555
H14_4 C26_4 1_555 1_555
C8_4 C10_4 1_555 1_555
C24_4 C26_4 1_555 1_555

#END
