
###############################################################################
#
# This file contains modified crystal structure data generated from the
# MOF subset of the Cambridge Structural Database (CSD) v543 
# hosted by the Cambridge Crystallographic Data Centre (CCDC).
#
# This work is licensed under the Creative Commons
# Attribution-NonCommercial-ShareAlike 4.0 International License.
# To view a copy of this license, visit
# http://creativecommons.org/licenses/by-nc-sa/4.0/
# or send a letter to
# Creative Commons, PO Box 1866, Mountain View, CA 94042, USA.
#
# CIF created using the CSD Python API on 29 September 2022
# The structure has been converted into the P1 space group
# The structure has a 3D framework
# The original CSD entry GOYXUP is in the monoclinic crystal system
# The framework has been calculated to contain at least 10.0% void space
# The void calculation uses a probe of radius 1.32A, grid spacing 0.4
#
###############################################################################

data_GOYXUP
_chemical_formula_moiety         '(C112 H64 Ag4 Dy8 N16 O58)n'
_symmetry_cell_setting           triclinic
_symmetry_space_group_name_H-M   'P 1'
_symmetry_Int_Tables_number      1
_space_group_name_Hall           'P 1'
loop_
_symmetry_equiv_pos_site_id
_symmetry_equiv_pos_as_xyz
1 x,y,z
_cell_length_a                   22.200(8)
_cell_length_b                   9.490(3)
_cell_length_c                   16.783(6)
_cell_angle_alpha                90
_cell_angle_beta                 96.537(4)
_cell_angle_gamma                90
_cell_volume                     3512.82
loop_
_atom_site_label
_atom_site_type_symbol
_atom_site_fract_x
_atom_site_fract_y
_atom_site_fract_z
C6 C 0.0349(3) 0.0008(8) 0.0105(4)
Ag1 Ag 0.15769(4) 0.12534(11) 0.07953(5)
N5 N 0.1262(3) 0.1925(9) 0.1918(4)
O8 O 0.0629(2) 0.0968(5) 0.9793(3)
Dy4 Dy 0.004675(15) 0.29917(3) 0.934071(19)
N7 N 0.2161(3) 0.0258(10) 0.9994(5)
O1 O 0.0575(2) 0.9076(5) 0.0575(3)
O3 O 0.0595(2) 0.7306(6) 0.1914(3)
C3 C 0.1180(3) 0.4929(8) 0.0234(4)
O5 O 0.0834(3) 0.5863(6) 0.0449(3)
C5 C 0.1842(4) 0.5246(9) 0.0363(4)
O6 O 0.0615(3) 0.7567(7) 0.3244(3)
C9 C 0.2084(4) 0.6308(11) 0.0871(6)
H4 H 0.1833 0.6860 0.1150
N2 N 0.2839(3) 0.4742(10) 0.0006(5)
C12 C 0.3060(4) 0.5754(14) 0.0509(6)
H7 H 0.3474 0.5939 0.0561
C13 C 0.2697(5) 0.6534(14) 0.0955(7)
H8 H 0.2867 0.7212 0.1312
C14 C 0.0352(4) 0.7427(8) 0.2543(4)
Dy2 Dy 0.004675(15) 0.70083(3) 0.434071(19)
O19 O 0.1013(3) 0.6234(6) 0.4917(3)
O21 O 0.0188(3) 0.4819(6) 0.3774(3)
O23 O 0.0629(2) 0.9032(5) 0.4793(3)
C1 C 0.0946(4) 0.6170(9) 0.7695(5)
H1 H 0.0940 0.5203 0.7785
O2 O 0.1013(3) 0.3766(6) 0.9917(3)
C2 C 0.0644(3) 0.7074(8) 0.8152(4)
O4 O 0.0070(3) 0.7343(6) 0.9274(3)
C4 C 0.0274(4) 0.6476(8) 0.8783(4)
C7 C 0.0669(4) 0.8497(9) 0.8001(5)
H2 H 0.0480 0.9137 0.8311
C8 C 0.2242(4) 0.4493(10) 0.9944(5)
H3 H 0.2086 0.3777 0.9603
O7 O 0.0188(3) 0.5181(6) 0.8774(3)
N1 N 0.1262(3) 0.8075(9) 0.6918(4)
C10 C 0.0982(4) 0.8965(10) 0.7378(5)
H5 H 0.0998 0.9927 0.7278
C11 C 0.1256(4) 0.6715(10) 0.7101(5)
H6 H 0.1474 0.6097 0.6813
Ag2 Ag 0.15769(4) 0.87466(11) 0.57953(5)
N6 N 0.2161(3) 0.9742(10) 0.4994(5)
Ag5 Ag 0.34231(4) 0.37466(11) 0.92047(5)
O9 O 0.9425(2) 0.0924(5) 0.9425(3)
Dy1 Dy 0.995325(15) 0.70083(3) 0.065929(19)
O10 O 0.9371(2) 0.9032(5) 0.0207(3)
O11 O 0.9405(2) 0.7306(6) 0.3086(3)
O12 O 0.9385(3) 0.7567(7) 0.1756(3)
C16 C 0.9648(4) 0.7427(8) 0.2457(4)
C17 C 0.9054(4) 0.6170(9) 0.7305(5)
H9 H 0.9060 0.5203 0.7215
O13 O 0.8987(3) 0.3766(6) 0.5083(3)
C18 C 0.9356(3) 0.7074(8) 0.6848(4)
O14 O 0.9930(3) 0.7343(6) 0.5726(3)
C19 C 0.8820(3) 0.4929(8) 0.4766(4)
O15 O 0.9166(3) 0.5863(6) 0.4551(3)
C20 C 0.9726(4) 0.6476(8) 0.6217(4)
C21 C 0.8158(4) 0.5246(9) 0.4637(4)
C22 C 0.9331(4) 0.8497(9) 0.6999(5)
H10 H 0.9520 0.9137 0.6689
C23 C 0.7758(4) 0.4493(10) 0.5056(5)
H11 H 0.7914 0.3777 0.5397
C24 C 0.7916(4) 0.6308(11) 0.4129(6)
H12 H 0.8167 0.6860 0.3850
O16 O 0.9812(3) 0.5181(6) 0.6226(3)
N3 N 0.8738(3) 0.8075(9) 0.8082(4)
C25 C 0.9018(4) 0.8965(10) 0.7622(5)
H13 H 0.9002 0.9927 0.7722
C26 C 0.8744(4) 0.6715(10) 0.7899(5)
H14 H 0.8526 0.6097 0.8187
N4 N 0.7161(3) 0.4742(10) 0.4994(5)
C27 C 0.6940(4) 0.5754(14) 0.4491(6)
H15 H 0.6526 0.5939 0.4439
C28 C 0.7303(5) 0.6534(14) 0.4045(7)
H16 H 0.7133 0.7212 0.3688
Dy5 Dy 0.995325(15) 0.29917(3) 0.565929(19)
O17 O 0.9425(2) 0.9076(5) 0.4425(3)
O18 O 0.8987(3) 0.6234(6) 0.0083(3)
O20 O 0.9812(3) 0.4819(6) 0.1226(3)
Ag4 Ag 0.84231(4) 0.87466(11) 0.92047(5)
Ag6 Ag 0.65769(4) 0.37466(11) 0.57953(5)
C15 C 0.9651(3) 0.9992(8) 0.9895(4)
O9_2 O 0.0575(2) 0.0924(5) 0.5575(3)
C15_2 C 0.0349(3) 0.9992(8) 0.5105(4)
C6_2 C 0.9651(3) 0.0008(8) 0.4895(4)
O8_2 O 0.9371(2) 0.0968(5) 0.5207(3)
Ag1_2 Ag 0.84231(4) 0.12534(11) 0.42047(5)
N5_2 N 0.8738(3) 0.1925(9) 0.3082(4)
N7_2 N 0.7839(3) 0.0258(10) 0.5006(5)
N6_2 N 0.7839(3) 0.9742(10) 0.0006(5)
Dy1_2 Dy 0.495325(15) 0.20083(3) 0.065929(19)
O1_2 O 0.5575(2) 0.4076(5) 0.0575(3)
O3_2 O 0.5595(2) 0.2306(6) 0.1914(3)
O5_2 O 0.5834(3) 0.0863(6) 0.0449(3)
C5_2 C 0.6842(4) 0.0246(9) 0.0363(4)
C6_3 C 0.5349(3) 0.5008(8) 0.0105(4)
O6_2 O 0.5615(3) 0.2567(7) 0.3244(3)
C9_2 C 0.7084(4) 0.1308(11) 0.0871(6)
H4_2 H 0.6833 0.1860 0.1150
C12_2 C 0.8060(4) 0.0754(14) 0.0509(6)
H7_2 H 0.8474 0.0939 0.0561
C13_2 C 0.7697(5) 0.1534(14) 0.0955(7)
H8_2 H 0.7867 0.2212 0.1312
C14_2 C 0.5352(4) 0.2427(8) 0.2543(4)
Ag1_3 Ag 0.65769(4) 0.62534(11) 0.07953(5)
O10_2 O 0.4371(2) 0.4032(5) 0.0207(3)
O11_2 O 0.4405(2) 0.2306(6) 0.3086(3)
O12_2 O 0.4385(3) 0.2567(7) 0.1756(3)
C16_2 C 0.4648(4) 0.2427(8) 0.2457(4)
Dy2_2 Dy 0.504675(15) 0.20083(3) 0.434071(19)
C17_2 C 0.4054(4) 0.1170(9) 0.7305(5)
H9_2 H 0.4060 0.0203 0.7215
C18_2 C 0.4356(3) 0.2074(8) 0.6848(4)
O14_2 O 0.4930(3) 0.2343(6) 0.5726(3)
O15_2 O 0.4166(3) 0.0863(6) 0.4551(3)
C20_2 C 0.4726(4) 0.1476(8) 0.6217(4)
C21_2 C 0.3158(4) 0.0246(9) 0.4637(4)
C22_2 C 0.4331(4) 0.3497(9) 0.6999(5)
H10_2 H 0.4520 0.4137 0.6689
C24_2 C 0.2916(4) 0.1308(11) 0.4129(6)
H12_2 H 0.3167 0.1860 0.3850
O16_2 O 0.4812(3) 0.0181(6) 0.6226(3)
N3_2 N 0.3738(3) 0.3075(9) 0.8082(4)
C25_2 C 0.4018(4) 0.3965(10) 0.7622(5)
H13_2 H 0.4002 0.4927 0.7722
C26_2 C 0.3744(4) 0.1715(10) 0.7899(5)
H14_2 H 0.3526 0.1097 0.8187
C27_2 C 0.1940(4) 0.0754(14) 0.4491(6)
H15_2 H 0.1526 0.0939 0.4439
C28_2 C 0.2303(5) 0.1534(14) 0.4045(7)
H16_2 H 0.2133 0.2212 0.3688
O17_2 O 0.4425(2) 0.4076(5) 0.4425(3)
O18_2 O 0.3987(3) 0.1234(6) 0.0083(3)
O19_2 O 0.6013(3) 0.1234(6) 0.4917(3)
N5_3 N 0.6262(3) 0.6925(9) 0.1918(4)
O23_2 O 0.5629(2) 0.4032(5) 0.4793(3)
C1_2 C 0.5946(4) 0.1170(9) 0.7695(5)
H1_2 H 0.5940 0.0203 0.7785
C2_2 C 0.5644(3) 0.2074(8) 0.8152(4)
O4_2 O 0.5070(3) 0.2343(6) 0.9274(3)
C4_2 C 0.5274(4) 0.1476(8) 0.8783(4)
C7_2 C 0.5669(4) 0.3497(9) 0.8001(5)
H2_2 H 0.5480 0.4137 0.8311
O7_2 O 0.5188(3) 0.0181(6) 0.8774(3)
N1_2 N 0.6262(3) 0.3075(9) 0.6918(4)
C10_2 C 0.5982(4) 0.3965(10) 0.7378(5)
H5_2 H 0.5998 0.4927 0.7278
C11_2 C 0.6256(4) 0.1715(10) 0.7101(5)
H6_2 H 0.6474 0.1097 0.6813
O8_3 O 0.5629(2) 0.5968(5) 0.9793(3)
O9_3 O 0.4425(2) 0.5924(5) 0.9425(3)
C15_3 C 0.4651(3) 0.4992(8) 0.9895(4)
Dy4_2 Dy 0.504675(15) 0.79917(3) 0.934071(19)
N7_3 N 0.7161(3) 0.5258(10) 0.9994(5)
C3_2 C 0.6180(3) 0.9929(8) 0.0234(4)
O13_2 O 0.3987(3) 0.8766(6) 0.5083(3)
C19_2 C 0.3820(3) 0.9929(8) 0.4766(4)
C23_2 C 0.2758(4) 0.9493(10) 0.5056(5)
H11_2 H 0.2914 0.8777 0.5397
Dy5_2 Dy 0.495325(15) 0.79917(3) 0.565929(19)
O20_2 O 0.4812(3) 0.9819(6) 0.1226(3)
O21_2 O 0.5188(3) 0.9819(6) 0.3774(3)
O2_2 O 0.6013(3) 0.8766(6) 0.9917(3)
C8_2 C 0.7242(4) 0.9493(10) 0.9944(5)
H3_2 H 0.7086 0.8777 0.9603
C6_4 C 0.4651(3) 0.5008(8) 0.4895(4)
O8_4 O 0.4371(2) 0.5968(5) 0.5207(3)
Ag1_4 Ag 0.34231(4) 0.62534(11) 0.42047(5)
O9_4 O 0.5575(2) 0.5924(5) 0.5575(3)
C15_4 C 0.5349(3) 0.4992(8) 0.5105(4)
N5_4 N 0.3738(3) 0.6925(9) 0.3082(4)
N7_4 N 0.2839(3) 0.5258(10) 0.5006(5)
O11_3 O 0.0595(2) 0.2694(6) 0.6914(3)
O12_3 O 0.0615(3) 0.2433(7) 0.8244(3)
C16_3 C 0.0352(4) 0.2573(8) 0.7543(4)
C17_3 C 0.0946(4) 0.3830(9) 0.2695(5)
H9_3 H 0.0940 0.4797 0.2785
C18_3 C 0.0644(3) 0.2926(8) 0.3152(4)
O14_3 O 0.0070(3) 0.2657(6) 0.4274(3)
C19_3 C 0.1180(3) 0.5071(8) 0.5234(4)
O15_3 O 0.0834(3) 0.4137(6) 0.5449(3)
C20_3 C 0.0274(4) 0.3524(8) 0.3783(4)
C21_3 C 0.1842(4) 0.4754(9) 0.5363(4)
C22_3 C 0.0669(4) 0.1503(9) 0.3001(5)
H10_3 H 0.0480 0.0863 0.3311
C23_3 C 0.2242(4) 0.5507(10) 0.4944(5)
H11_3 H 0.2086 0.6223 0.4603
C24_3 C 0.2084(4) 0.3692(11) 0.5871(6)
H12_3 H 0.1833 0.3140 0.6150
C25_3 C 0.0982(4) 0.1035(10) 0.2378(5)
H13_3 H 0.0998 0.0073 0.2278
C26_3 C 0.1256(4) 0.3285(10) 0.2101(5)
H14_3 H 0.1474 0.3903 0.1813
C27_3 C 0.3060(4) 0.4246(14) 0.5509(6)
H15_3 H 0.3474 0.4061 0.5561
C28_3 C 0.2697(5) 0.3466(14) 0.5955(7)
H16_3 H 0.2867 0.2788 0.6312
C1_3 C 0.9054(4) 0.3830(9) 0.2305(5)
H1_3 H 0.9060 0.4797 0.2215
C2_3 C 0.9356(3) 0.2926(8) 0.1848(4)
O4_3 O 0.9930(3) 0.2657(6) 0.0726(3)
C4_3 C 0.9726(4) 0.3524(8) 0.1217(4)
C7_3 C 0.9331(4) 0.1503(9) 0.1999(5)
H2_3 H 0.9520 0.0863 0.1689
C8_3 C 0.7758(4) 0.5507(10) 0.0056(5)
H3_3 H 0.7914 0.6223 0.0397
C10_3 C 0.9018(4) 0.1035(10) 0.2622(5)
H5_3 H 0.9002 0.0073 0.2722
C11_3 C 0.8744(4) 0.3285(10) 0.2899(5)
H6_3 H 0.8526 0.3903 0.3187
O3_3 O 0.9405(2) 0.2694(6) 0.8086(3)
C3_3 C 0.8820(3) 0.5071(8) 0.9766(4)
O5_3 O 0.9166(3) 0.4137(6) 0.9551(3)
C5_3 C 0.8158(4) 0.4754(9) 0.9637(4)
O6_3 O 0.9385(3) 0.2433(7) 0.6756(3)
C9_3 C 0.7916(4) 0.3692(11) 0.9129(6)
H4_3 H 0.8167 0.3140 0.8850
C12_3 C 0.6940(4) 0.4246(14) 0.9491(6)
H7_3 H 0.6526 0.4061 0.9439
C13_3 C 0.7303(5) 0.3466(14) 0.9045(7)
H8_3 H 0.7133 0.2788 0.8688
C14_3 C 0.9648(4) 0.2573(8) 0.7457(4)
C8_4 C 0.2758(4) 0.0507(10) 0.0056(5)
H3_4 H 0.2914 0.1223 0.0397
C3_4 C 0.3820(3) 0.0071(8) 0.9766(4)
C19_4 C 0.6180(3) 0.0071(8) 0.5234(4)
C23_4 C 0.7242(4) 0.0507(10) 0.4944(5)
H11_4 H 0.7086 0.1223 0.4603
C1_4 C 0.4054(4) 0.8830(9) 0.2305(5)
H1_4 H 0.4060 0.9797 0.2215
C2_4 C 0.4356(3) 0.7926(8) 0.1848(4)
O4_4 O 0.4930(3) 0.7657(6) 0.0726(3)
C4_4 C 0.4726(4) 0.8524(8) 0.1217(4)
C7_4 C 0.4331(4) 0.6503(9) 0.1999(5)
H2_4 H 0.4520 0.5863 0.1689
C10_4 C 0.4018(4) 0.6035(10) 0.2622(5)
H5_4 H 0.4002 0.5073 0.2722
C11_4 C 0.3744(4) 0.8285(10) 0.2899(5)
H6_4 H 0.3526 0.8903 0.3187
O3_4 O 0.4405(2) 0.7694(6) 0.8086(3)
O5_4 O 0.4166(3) 0.9137(6) 0.9551(3)
C5_4 C 0.3158(4) 0.9754(9) 0.9637(4)
O6_4 O 0.4385(3) 0.7433(7) 0.6756(3)
C9_4 C 0.2916(4) 0.8692(11) 0.9129(6)
H4_4 H 0.3167 0.8140 0.8850
C12_4 C 0.1940(4) 0.9246(14) 0.9491(6)
H7_4 H 0.1526 0.9061 0.9439
C13_4 C 0.2303(5) 0.8466(14) 0.9045(7)
H8_4 H 0.2133 0.7788 0.8688
C14_4 C 0.4648(4) 0.7573(8) 0.7457(4)
O11_4 O 0.5595(2) 0.7694(6) 0.6914(3)
O12_4 O 0.5615(3) 0.7433(7) 0.8244(3)
C16_4 C 0.5352(4) 0.7573(8) 0.7543(4)
C17_4 C 0.5946(4) 0.8830(9) 0.2695(5)
H9_4 H 0.5940 0.9797 0.2785
C18_4 C 0.5644(3) 0.7926(8) 0.3152(4)
O14_4 O 0.5070(3) 0.7657(6) 0.4274(3)
O15_4 O 0.5834(3) 0.9137(6) 0.5449(3)
C20_4 C 0.5274(4) 0.8524(8) 0.3783(4)
C21_4 C 0.6842(4) 0.9754(9) 0.5363(4)
C22_4 C 0.5669(4) 0.6503(9) 0.3001(5)
H10_4 H 0.5480 0.5863 0.3311
C24_4 C 0.7084(4) 0.8692(11) 0.5871(6)
H12_4 H 0.6833 0.8140 0.6150
C25_4 C 0.5982(4) 0.6035(10) 0.2378(5)
H13_4 H 0.5998 0.5073 0.2278
C26_4 C 0.6256(4) 0.8285(10) 0.2101(5)
H14_4 H 0.6474 0.8903 0.1813
C27_4 C 0.8060(4) 0.9246(14) 0.5509(6)
H15_4 H 0.8474 0.9061 0.5561
C28_4 C 0.7697(5) 0.8466(14) 0.5955(7)
H16_4 H 0.7867 0.7788 0.6312
loop_
_geom_bond_atom_site_label_1
_geom_bond_atom_site_label_2
_geom_bond_site_symmetry_1
_geom_bond_site_symmetry_2
Ag1 N5 1_555 1_555
Dy4 O8 1_555 1_555
C3 O5 1_555 1_555
C5 C3 1_555 1_555
O6 C14 1_555 1_555
C9 C5 1_555 1_555
H4 C9 1_555 1_555
C12 N2 1_555 1_555
H7 C12 1_555 1_555
C13 C9 1_555 1_555
H8 C13 1_555 1_555
C14 O3 1_555 1_555
Dy2 O6 1_555 1_555
O19 Dy2 1_555 1_555
O21 Dy2 1_555 1_555
O23 Dy2 1_555 1_555
C12 C13 1_555 1_555
C1 H1 1_555 1_555
C2 C1 1_555 1_555
C4 C2 1_555 1_555
C7 C2 1_555 1_555
H2 C7 1_555 1_555
H3 C8 1_555 1_555
O7 C4 1_555 1_555
N1 C10 1_555 1_555
C10 C7 1_555 1_555
H5 C10 1_555 1_555
C11 C1 1_555 1_555
H6 C11 1_555 1_555
Ag2 N1 1_555 1_555
Dy4 O2 1_555 1_555
N6 Ag2 1_555 1_555
O23 Ag2 1_555 1_555
O4 C4 1_555 1_555
O7 Dy4 1_555 1_555
N1 C11 1_555 1_555
O10 Dy1 1_555 1_555
O11 C16 1_555 1_555
O12 Dy1 1_555 1_555
C17 H9 1_555 1_555
O13 C19 1_555 1_555
C18 C17 1_555 1_555
C19 O15 1_555 1_555
C20 C18 1_555 1_555
C21 C19 1_555 1_555
C22 C18 1_555 1_555
H10 C22 1_555 1_555
C23 C21 1_555 1_555
H11 C23 1_555 1_555
C24 C21 1_555 1_555
H12 C24 1_555 1_555
O16 C20 1_555 1_555
N3 C25 1_555 1_555
C25 C22 1_555 1_555
H13 C25 1_555 1_555
C26 C17 1_555 1_555
H14 C26 1_555 1_555
N4 C23 1_555 1_555
C27 N4 1_555 1_555
H15 C27 1_555 1_555
C28 C24 1_555 1_555
H16 C28 1_555 1_555
Dy5 O13 1_555 1_555
O18 Dy1 1_555 1_555
O20 Dy1 1_555 1_555
Ag4 N3 1_555 1_555
Ag6 N4 1_555 1_555
O12 C16 1_555 1_555
O14 C20 1_555 1_555
O16 Dy5 1_555 1_555
N3 C26 1_555 1_555
C27 C28 1_555 1_555
C15_2 O23 1_555 1_555
C6_2 O8_2 1_555 1_555
O8_2 Ag1_2 1_555 1_555
Ag1_2 N5_2 1_555 1_555
Dy5 O8_2 1_555 1_555
N7_2 Ag1_2 1_555 1_555
Dy1_2 O1_2 1_555 1_555
O1_2 C6_3 1_555 1_555
O3_2 Dy1_2 1_555 1_555
O5_2 Dy1_2 1_555 1_555
O6_2 C14_2 1_555 1_555
C9_2 C5_2 1_555 1_555
H4_2 C9_2 1_555 1_555
H7_2 C12_2 1_555 1_555
C13_2 C9_2 1_555 1_555
H8_2 C13_2 1_555 1_555
C14_2 O3_2 1_555 1_555
Ag1_3 N5_3 1_555 1_555
O10_2 Dy1_2 1_555 1_555
O11_2 C16_2 1_555 1_555
O12_2 Dy1_2 1_555 1_555
C16_2 C14_2 1_555 1_555
Dy2_2 O6_2 1_555 1_555
C17_2 H9_2 1_555 1_555
C18_2 C17_2 1_555 1_555
O14_2 Dy2_2 1_555 1_555
O15_2 Dy2_2 1_555 1_555
C20_2 C18_2 1_555 1_555
C22_2 C18_2 1_555 1_555
H10_2 C22_2 1_555 1_555
C24_2 C21_2 1_555 1_555
H12_2 C24_2 1_555 1_555
O16_2 C20_2 1_555 1_555
N3_2 C25_2 1_555 1_555
C25_2 C22_2 1_555 1_555
H13_2 C25_2 1_555 1_555
C26_2 C17_2 1_555 1_555
H14_2 C26_2 1_555 1_555
H15_2 C27_2 1_555 1_555
C28_2 C24_2 1_555 1_555
H16_2 C28_2 1_555 1_555
O17_2 Dy2_2 1_555 1_555
O18_2 Dy1_2 1_555 1_555
O19_2 Dy2_2 1_555 1_555
O23_2 Dy2_2 1_555 1_555
Ag5 N3_2 1_555 1_555
C12_2 C13_2 1_555 1_555
O11_2 Dy2_2 1_555 1_555
O12_2 C16_2 1_555 1_555
O14_2 C20_2 1_555 1_555
N3_2 C26_2 1_555 1_555
C27_2 C28_2 1_555 1_555
C1_2 H1_2 1_555 1_555
C2_2 C1_2 1_555 1_555
C4_2 C2_2 1_555 1_555
C7_2 C2_2 1_555 1_555
H2_2 C7_2 1_555 1_555
O7_2 C4_2 1_555 1_555
N1_2 C10_2 1_555 1_555
C10_2 C7_2 1_555 1_555
H5_2 C10_2 1_555 1_555
C11_2 C1_2 1_555 1_555
H6_2 C11_2 1_555 1_555
O9_3 C15_3 1_555 1_555
Ag6 N1_2 1_555 1_555
Dy4_2 O8_3 1_555 1_555
O23_2 Ag6 1_555 1_555
O4_2 C4_2 1_555 1_555
N1_2 C11_2 1_555 1_555
O9_3 Dy4_2 1_555 1_555
O13_2 C19_2 1_555 1_555
H11_2 C23_2 1_555 1_555
N6 C23_2 1_555 1_555
Dy5_2 O13_2 1_555 1_555
H3_2 C8_2 1_555 1_555
Dy4_2 O2_2 1_555 1_555
O17_2 C6_4 1_555 1_555
C6_4 O8_4 1_555 1_555
O8_4 Ag1_4 1_555 1_555
Ag1_4 N5_4 1_555 1_555
O9_4 C15_4 1_555 1_555
C15_4 C6_4 1_555 1_555
Dy5_2 O8_4 1_555 1_555
N7_4 Ag1_4 1_555 1_555
O9_4 Dy5_2 1_555 1_555
C15_4 O23_2 1_555 1_555
O11_3 C16_3 1_555 1_555
O12_3 Dy4 1_555 1_555
C17_3 H9_3 1_555 1_555
O19 C19_3 1_555 1_555
C18_3 C17_3 1_555 1_555
C19_3 O15_3 1_555 1_555
C20_3 C18_3 1_555 1_555
C21_3 C19_3 1_555 1_555
C22_3 C18_3 1_555 1_555
H10_3 C22_3 1_555 1_555
C23_3 C21_3 1_555 1_555
H11_3 C23_3 1_555 1_555
C24_3 C21_3 1_555 1_555
H12_3 C24_3 1_555 1_555
O21 C20_3 1_555 1_555
N5 C25_3 1_555 1_555
C25_3 C22_3 1_555 1_555
H13_3 C25_3 1_555 1_555
C26_3 C17_3 1_555 1_555
H14_3 C26_3 1_555 1_555
N7_4 C23_3 1_555 1_555
C27_3 N7_4 1_555 1_555
H15_3 C27_3 1_555 1_555
C28_3 C24_3 1_555 1_555
H16_3 C28_3 1_555 1_555
O12_3 C16_3 1_555 1_555
O14_3 C20_3 1_555 1_555
N5 C26_3 1_555 1_555
C27_3 C28_3 1_555 1_555
C1_3 H1_3 1_555 1_555
C2_3 C1_3 1_555 1_555
C4_3 C2_3 1_555 1_555
C7_3 C2_3 1_555 1_555
H2_3 C7_3 1_555 1_555
H3_3 C8_3 1_555 1_555
O20 C4_3 1_555 1_555
N5_2 C10_3 1_555 1_555
C10_3 C7_3 1_555 1_555
H5_3 C10_3 1_555 1_555
C11_3 C1_3 1_555 1_555
H6_3 C11_3 1_555 1_555
O4_3 C4_3 1_555 1_555
N5_2 C11_3 1_555 1_555
C3_3 O5_3 1_555 1_555
C5_3 C3_3 1_555 1_555
O6_3 C14_3 1_555 1_555
C9_3 C5_3 1_555 1_555
H4_3 C9_3 1_555 1_555
C12_3 N7_3 1_555 1_555
H7_3 C12_3 1_555 1_555
C13_3 C9_3 1_555 1_555
H8_3 C13_3 1_555 1_555
C14_3 O3_3 1_555 1_555
Dy5 O6_3 1_555 1_555
C12_3 C13_3 1_555 1_555
H3_4 C8_4 1_555 1_555
O19_2 C19_4 1_555 1_555
H11_4 C23_4 1_555 1_555
N7_2 C23_4 1_555 1_555
C1_4 H1_4 1_555 1_555
C2_4 C1_4 1_555 1_555
C4_4 C2_4 1_555 1_555
C7_4 C2_4 1_555 1_555
H2_4 C7_4 1_555 1_555
O20_2 C4_4 1_555 1_555
N5_4 C10_4 1_555 1_555
C10_4 C7_4 1_555 1_555
H5_4 C10_4 1_555 1_555
C11_4 C1_4 1_555 1_555
H6_4 C11_4 1_555 1_555
O4_4 C4_4 1_555 1_555
N5_4 C11_4 1_555 1_555
O3_4 Dy4_2 1_555 1_555
O5_4 Dy4_2 1_555 1_555
O6_4 C14_4 1_555 1_555
C9_4 C5_4 1_555 1_555
H4_4 C9_4 1_555 1_555
H7_4 C12_4 1_555 1_555
C13_4 C9_4 1_555 1_555
H8_4 C13_4 1_555 1_555
C14_4 O3_4 1_555 1_555
O11_4 C16_4 1_555 1_555
O12_4 Dy4_2 1_555 1_555
C16_4 C14_4 1_555 1_555
Dy5_2 O6_4 1_555 1_555
C17_4 H9_4 1_555 1_555
C18_4 C17_4 1_555 1_555
O14_4 Dy5_2 1_555 1_555
O15_4 Dy5_2 1_555 1_555
C20_4 C18_4 1_555 1_555
C22_4 C18_4 1_555 1_555
H10_4 C22_4 1_555 1_555
C24_4 C21_4 1_555 1_555
H12_4 C24_4 1_555 1_555
O21_2 C20_4 1_555 1_555
N5_3 C25_4 1_555 1_555
C25_4 C22_4 1_555 1_555
H13_4 C25_4 1_555 1_555
C26_4 C17_4 1_555 1_555
H14_4 C26_4 1_555 1_555
H15_4 C27_4 1_555 1_555
C28_4 C24_4 1_555 1_555
H16_4 C28_4 1_555 1_555
C12_4 C13_4 1_555 1_555
O11_4 Dy5_2 1_555 1_555
O12_4 C16_4 1_555 1_555
O14_4 C20_4 1_555 1_555
N5_3 C26_4 1_555 1_555
C27_4 C28_4 1_555 1_555

#END
