
###############################################################################
#
# This file contains modified crystal structure data generated from the
# MOF subset of the Cambridge Structural Database (CSD) v543 
# hosted by the Cambridge Crystallographic Data Centre (CCDC).
#
# This work is licensed under the Creative Commons
# Attribution-NonCommercial-ShareAlike 4.0 International License.
# To view a copy of this license, visit
# http://creativecommons.org/licenses/by-nc-sa/4.0/
# or send a letter to
# Creative Commons, PO Box 1866, Mountain View, CA 94042, USA.
#
# CIF created using the CSD Python API on 29 September 2022
# The structure has been converted into the P1 space group
# The structure has a 3D framework
# The original CSD entry GOYXEZ is in the monoclinic crystal system
# The framework has been calculated to contain at least 10.0% void space
# The void calculation uses a probe of radius 1.32A, grid spacing 0.4
#
###############################################################################

data_GOYXEZ
_chemical_formula_moiety         '(C112 H64 Ag8 Eu6 N16 O56)n'
_symmetry_cell_setting           triclinic
_symmetry_space_group_name_H-M   'P 1'
_symmetry_Int_Tables_number      1
_space_group_name_Hall           'P 1'
loop_
_symmetry_equiv_pos_site_id
_symmetry_equiv_pos_as_xyz
1 x,y,z
_cell_length_a                   22.117(3)
_cell_length_b                   9.5250(13)
_cell_length_c                   16.865(2)
_cell_angle_alpha                90
_cell_angle_beta                 97.126(2)
_cell_angle_gamma                90
_cell_volume                     3525.41
loop_
_atom_site_label
_atom_site_type_symbol
_atom_site_fract_x
_atom_site_fract_y
_atom_site_fract_z
Eu1 Eu 0.495502(12) 0.19966(3) 0.565754(16)
Ag1 Ag 0.34134(3) 0.37953(8) 0.41641(4)
O1 O 0.5616(2) 0.2573(5) 0.8249(2)
O2 O 0.5855(2) 0.0830(5) 0.5473(3)
O3 O 0.5602(2) 0.2296(5) 0.6934(2)
C1 C 0.5646(3) 0.2086(6) 0.3151(4)
O4 O 0.5099(2) 0.2364(5) 0.4264(2)
O5 O 0.43648(18) 0.4035(4) 0.5178(2)
C3 C 0.5287(3) 0.1505(7) 0.3785(4)
C4 C 0.5683(3) 0.3517(6) 0.3008(4)
H1 H 0.5509 0.4164 0.3325
C5 C 0.6864(3) 0.0228(7) 0.5364(4)
C7 C 0.5353(3) 0.2428(6) 0.7555(3)
C8 C 0.5953(3) 0.1189(7) 0.2698(4)
H3 H 0.5956 0.0227 0.2793
C9 C 0.5986(3) 0.3958(8) 0.2383(4)
H4 H 0.5994 0.4913 0.2272
C10 C 0.7107(3) 0.1269(8) 0.5877(4)
H5 H 0.6858 0.1787 0.6173
C11 C 0.8078(4) 0.0788(10) 0.5478(5)
H6 H 0.8492 0.0989 0.5515
C12 C 0.7719(4) 0.1526(10) 0.5943(5)
H7 H 0.7893 0.2199 0.6301
O7 O 0.5209(2) 0.0218(4) 0.3780(3)
N2 N 0.6267(3) 0.3091(6) 0.1933(3)
C13 C 0.6257(3) 0.1744(8) 0.2103(4)
H8 H 0.6465 0.1130 0.1805
C14 C 0.4653(3) 0.4989(6) 0.4883(3)
O8 O 0.44285(19) 0.5907(4) 0.4401(3)
O9 O 0.4384(2) 0.2573(5) 0.6751(2)
O10 O 0.4398(2) 0.2296(5) 0.8066(2)
C15 C 0.4647(3) 0.2428(6) 0.7445(3)
O11 O 0.56352(18) 0.5965(4) 0.4822(2)
C16 C 0.5347(3) 0.5011(6) 0.5117(3)
O12 O 0.55715(19) 0.4093(4) 0.5599(3)
Ag2 Ag 0.65866(3) 0.37953(8) 0.08359(4)
C17 C 0.4354(3) 0.2086(6) 0.1849(4)
O14 O 0.4901(2) 0.2364(5) 0.0736(2)
C19 C 0.4713(3) 0.1505(7) 0.1215(4)
C20 C 0.4317(3) 0.3517(6) 0.1992(4)
H9 H 0.4491 0.4164 0.1675
C23 C 0.4047(3) 0.1189(7) 0.2302(4)
H11 H 0.4044 0.0227 0.2207
C24 C 0.4014(3) 0.3958(8) 0.2617(4)
H12 H 0.4006 0.4913 0.2728
O16 O 0.4791(2) 0.0218(4) 0.1220(3)
N4 N 0.3733(3) 0.3091(6) 0.3067(3)
C28 C 0.3743(3) 0.1744(8) 0.2897(4)
H16 H 0.3535 0.1130 0.3195
Eu3 Eu 0.504498(12) 0.19966(3) 0.934246(16)
Eu5 Eu 0.504498(12) 0.80034(3) 0.434246(16)
Ag5 Ag 0.65866(3) 0.62047(8) 0.58359(4)
N5 N 0.2842(3) 0.4774(7) 0.4966(4)
N6 N 0.7158(3) 0.4774(7) 0.0034(4)
O20 O 0.39672(19) 0.1241(5) 0.5055(3)
O13 O 0.4145(2) 0.0830(5) 0.9527(3)
C21 C 0.3136(3) 0.0228(7) 0.9636(4)
C25 C 0.2893(3) 0.1269(8) 0.9123(4)
H13 H 0.3142 0.1787 0.8827
C26 C 0.1922(4) 0.0788(10) 0.9522(5)
H14 H 0.1508 0.0989 0.9485
C27 C 0.2281(4) 0.1526(10) 0.9057(5)
H15 H 0.2107 0.2199 0.8699
O19 O 0.56352(18) 0.4035(4) 0.9822(2)
O21 O 0.60328(19) 0.1241(5) 0.9945(3)
O24 O 0.44285(19) 0.4093(4) 0.9401(3)
C2 C 0.6194(3) 0.9920(6) 0.5246(3)
C6 C 0.7246(3) 0.9520(7) 0.4922(4)
H2 H 0.7081 0.8825 0.4572
N1 N 0.7842(3) 0.9774(7) 0.4966(4)
O6 O 0.60328(19) 0.8759(5) 0.4945(3)
C22 C 0.2754(3) 0.9520(7) 0.0078(4)
H10 H 0.2919 0.8825 0.0428
N3 N 0.2158(3) 0.9774(7) 0.0034(4)
O15 O 0.39672(19) 0.8759(5) 0.0055(3)
Eu6 Eu 0.495502(12) 0.80034(3) 0.065754(16)
Ag3 Ag 0.84134(3) 0.87953(8) 0.41641(4)
Ag4 Ag 0.15866(3) 0.87953(8) 0.08359(4)
O22 O 0.4791(2) 0.9782(4) 0.6220(3)
C18 C 0.3806(3) 0.9920(6) 0.9754(3)
O23 O 0.5209(2) 0.9782(4) 0.8780(3)
C14_2 C 0.5347(3) 0.4989(6) 0.0117(3)
O8_2 O 0.55715(19) 0.5907(4) 0.0599(3)
O11_2 O 0.43648(18) 0.5965(4) 0.0178(2)
C16_2 C 0.4653(3) 0.5011(6) 0.9883(3)
Ag5_2 Ag 0.34134(3) 0.62047(8) 0.91641(4)
O11_3 O 0.06352(18) 0.0965(4) 0.4822(2)
C16_3 C 0.0347(3) 0.0011(6) 0.5117(3)
Eu5_2 Eu 0.004498(12) 0.30034(3) 0.434246(16)
Ag5_3 Ag 0.15866(3) 0.12047(8) 0.58359(4)
O1_2 O 0.0616(2) 0.7573(5) 0.8249(2)
O2_2 O 0.0855(2) 0.5830(5) 0.5473(3)
O3_2 O 0.0602(2) 0.7296(5) 0.6934(2)
C1_2 C 0.0646(3) 0.7086(6) 0.3151(4)
O4_2 O 0.0099(2) 0.7364(5) 0.4264(2)
C2_2 C 0.1194(3) 0.4920(6) 0.5246(3)
C3_2 C 0.0287(3) 0.6505(7) 0.3785(4)
C4_2 C 0.0683(3) 0.8517(6) 0.3008(4)
H1_2 H 0.0509 0.9164 0.3325
C5_2 C 0.1864(3) 0.5228(7) 0.5364(4)
C6_2 C 0.2246(3) 0.4520(7) 0.4922(4)
H2_2 H 0.2081 0.3825 0.4572
C7_2 C 0.0353(3) 0.7428(6) 0.7555(3)
C8_2 C 0.0953(3) 0.6189(7) 0.2698(4)
H3_2 H 0.0956 0.5227 0.2793
C9_2 C 0.0986(3) 0.8958(8) 0.2383(4)
H4_2 H 0.0994 0.9913 0.2272
C10_2 C 0.2107(3) 0.6269(8) 0.5877(4)
H5_2 H 0.1858 0.6787 0.6173
C11_2 C 0.3078(4) 0.5788(10) 0.5478(5)
H6_2 H 0.3492 0.5989 0.5515
C12_2 C 0.2719(4) 0.6526(10) 0.5943(5)
H7_2 H 0.2893 0.7199 0.6301
O6_2 O 0.10328(19) 0.3759(5) 0.4945(3)
O7_2 O 0.0209(2) 0.5218(4) 0.3780(3)
N2_2 N 0.1267(3) 0.8091(6) 0.1933(3)
C13_2 C 0.1257(3) 0.6744(8) 0.2103(4)
H8_2 H 0.1465 0.6130 0.1805
O12_2 O 0.05715(19) 0.9093(4) 0.5599(3)
Eu3_2 Eu 0.004498(12) 0.69966(3) 0.934246(16)
O19_2 O 0.06352(18) 0.9035(4) 0.9822(2)
O21_2 O 0.10328(19) 0.6241(5) 0.9945(3)
O23_2 O 0.0209(2) 0.4782(4) 0.8780(3)
O8_3 O 0.94285(19) 0.0907(4) 0.4401(3)
Eu1_2 Eu 0.995502(12) 0.69966(3) 0.565754(16)
O5_2 O 0.93648(18) 0.9035(4) 0.5178(2)
C14_3 C 0.9653(3) 0.9989(6) 0.4883(3)
O9_2 O 0.9384(2) 0.7573(5) 0.6751(2)
O10_2 O 0.9398(2) 0.7296(5) 0.8066(2)
C15_2 C 0.9647(3) 0.7428(6) 0.7445(3)
C17_2 C 0.9354(3) 0.7086(6) 0.1849(4)
O14_2 O 0.9901(2) 0.7364(5) 0.0736(2)
C19_2 C 0.9713(3) 0.6505(7) 0.1215(4)
C20_2 C 0.9317(3) 0.8517(6) 0.1992(4)
H9_2 H 0.9491 0.9164 0.1675
C22_2 C 0.7754(3) 0.4520(7) 0.0078(4)
H10_2 H 0.7919 0.3825 0.0428
C23_2 C 0.9047(3) 0.6189(7) 0.2302(4)
H11_2 H 0.9044 0.5227 0.2207
C24_2 C 0.9014(3) 0.8958(8) 0.2617(4)
H12_2 H 0.9006 0.9913 0.2728
O15_2 O 0.89672(19) 0.3759(5) 0.0055(3)
O16_2 O 0.9791(2) 0.5218(4) 0.1220(3)
N4_2 N 0.8733(3) 0.8091(6) 0.3067(3)
C28_2 C 0.8743(3) 0.6744(8) 0.2897(4)
H16_2 H 0.8535 0.6130 0.3195
Eu6_2 Eu 0.995502(12) 0.30034(3) 0.065754(16)
O20_2 O 0.89672(19) 0.6241(5) 0.5055(3)
O22_2 O 0.9791(2) 0.4782(4) 0.6220(3)
O13_2 O 0.9145(2) 0.5830(5) 0.9527(3)
C18_2 C 0.8806(3) 0.4920(6) 0.9754(3)
C21_2 C 0.8136(3) 0.5228(7) 0.9636(4)
C25_2 C 0.7893(3) 0.6269(8) 0.9123(4)
H13_2 H 0.8142 0.6787 0.8827
C26_2 C 0.6922(4) 0.5788(10) 0.9522(5)
H14_2 H 0.6508 0.5989 0.9485
C27_2 C 0.7281(4) 0.6526(10) 0.9057(5)
H15_2 H 0.7107 0.7199 0.8699
O24_2 O 0.94285(19) 0.9093(4) 0.9401(3)
O8_4 O 0.05715(19) 0.0907(4) 0.0599(3)
C14_4 C 0.0347(3) 0.9989(6) 0.0117(3)
O11_4 O 0.93648(18) 0.0965(4) 0.0178(2)
C16_4 C 0.9653(3) 0.0011(6) 0.9883(3)
Ag5_4 Ag 0.84134(3) 0.12047(8) 0.91641(4)
C18_3 C 0.6194(3) 0.0080(6) 0.0246(3)
C2_3 C 0.3806(3) 0.0080(6) 0.4754(3)
C6_3 C 0.2754(3) 0.0480(7) 0.5078(4)
H2_3 H 0.2919 0.1175 0.5428
N1_2 N 0.2158(3) 0.0226(7) 0.5034(4)
C22_3 C 0.7246(3) 0.0480(7) 0.9922(4)
H10_3 H 0.7081 0.1175 0.9572
N3_2 N 0.7842(3) 0.0226(7) 0.9966(4)
O13_3 O 0.5855(2) 0.9170(5) 0.0473(3)
C21_3 C 0.6864(3) 0.9772(7) 0.0364(4)
C25_3 C 0.7107(3) 0.8731(8) 0.0877(4)
H13_3 H 0.6858 0.8213 0.1173
C26_3 C 0.8078(4) 0.9212(10) 0.0478(5)
H14_3 H 0.8492 0.9011 0.0515
C27_3 C 0.7719(4) 0.8474(10) 0.0943(5)
H15_3 H 0.7893 0.7801 0.1301
O17 O 0.4384(2) 0.7427(5) 0.1751(2)
O18 O 0.5602(2) 0.7704(5) 0.1934(2)
O2_3 O 0.4145(2) 0.9170(5) 0.4527(3)
O3_3 O 0.4398(2) 0.7704(5) 0.3066(2)
C1_3 C 0.4354(3) 0.7914(6) 0.6849(4)
O4_3 O 0.4901(2) 0.7636(5) 0.5736(2)
C3_3 C 0.4713(3) 0.8495(7) 0.6215(4)
C4_3 C 0.4317(3) 0.6483(6) 0.6992(4)
H1_3 H 0.4491 0.5836 0.6675
C5_3 C 0.3136(3) 0.9772(7) 0.4636(4)
C7_3 C 0.4647(3) 0.7572(6) 0.2445(3)
C8_3 C 0.4047(3) 0.8811(7) 0.7302(4)
H3_3 H 0.4044 0.9773 0.7207
C9_3 C 0.4014(3) 0.6042(8) 0.7617(4)
H4_3 H 0.4006 0.5087 0.7728
C10_3 C 0.2893(3) 0.8731(8) 0.4123(4)
H5_3 H 0.3142 0.8213 0.3827
C11_3 C 0.1922(4) 0.9212(10) 0.4522(5)
H6_3 H 0.1508 0.9011 0.4485
C12_3 C 0.2281(4) 0.8474(10) 0.4057(5)
H7_3 H 0.2107 0.7801 0.3699
N2_3 N 0.3733(3) 0.6909(6) 0.8067(3)
C13_3 C 0.3743(3) 0.8256(8) 0.7897(4)
H8_3 H 0.3535 0.8870 0.8195
O9_3 O 0.5616(2) 0.7427(5) 0.3249(2)
C15_3 C 0.5353(3) 0.7572(6) 0.2555(3)
C17_3 C 0.5646(3) 0.7914(6) 0.8151(4)
O14_3 O 0.5099(2) 0.7636(5) 0.9264(2)
C19_3 C 0.5287(3) 0.8495(7) 0.8785(4)
C20_3 C 0.5683(3) 0.6483(6) 0.8008(4)
H9_3 H 0.5509 0.5836 0.8325
C23_3 C 0.5953(3) 0.8811(7) 0.7698(4)
H11_3 H 0.5956 0.9773 0.7793
C24_3 C 0.5986(3) 0.6042(8) 0.7383(4)
H12_3 H 0.5994 0.5087 0.7272
N4_3 N 0.6267(3) 0.6909(6) 0.6933(3)
C28_3 C 0.6257(3) 0.8256(8) 0.7103(4)
H16_3 H 0.6465 0.8870 0.6805
N5_2 N 0.7158(3) 0.5226(7) 0.5034(4)
N6_2 N 0.2842(3) 0.5226(7) 0.9966(4)
O13_4 O 0.0855(2) 0.4170(5) 0.0473(3)
C18_4 C 0.1194(3) 0.5080(6) 0.0246(3)
C21_4 C 0.1864(3) 0.4772(7) 0.0364(4)
C25_4 C 0.2107(3) 0.3731(8) 0.0877(4)
H13_4 H 0.1858 0.3213 0.1173
C26_4 C 0.3078(4) 0.4212(10) 0.0478(5)
H14_4 H 0.3492 0.4011 0.0515
C27_4 C 0.2719(4) 0.3474(10) 0.0943(5)
H15_4 H 0.2893 0.2801 0.1301
O18_2 O 0.0602(2) 0.2704(5) 0.1934(2)
O9_4 O 0.0616(2) 0.2427(5) 0.3249(2)
C15_4 C 0.0353(3) 0.2572(6) 0.2555(3)
C17_4 C 0.0646(3) 0.2914(6) 0.8151(4)
O14_4 O 0.0099(2) 0.2636(5) 0.9264(2)
C19_4 C 0.0287(3) 0.3495(7) 0.8785(4)
C20_4 C 0.0683(3) 0.1483(6) 0.8008(4)
H9_4 H 0.0509 0.0836 0.8325
C22_4 C 0.2246(3) 0.5480(7) 0.9922(4)
H10_4 H 0.2081 0.6175 0.9572
C23_4 C 0.0953(3) 0.3811(7) 0.7698(4)
H11_4 H 0.0956 0.4773 0.7793
C24_4 C 0.0986(3) 0.1042(8) 0.7383(4)
H12_4 H 0.0994 0.0087 0.7272
N4_4 N 0.1267(3) 0.1909(6) 0.6933(3)
C28_4 C 0.1257(3) 0.3256(8) 0.7103(4)
H16_4 H 0.1465 0.3870 0.6805
O17_2 O 0.9384(2) 0.2427(5) 0.1751(2)
O2_4 O 0.9145(2) 0.4170(5) 0.4527(3)
O3_4 O 0.9398(2) 0.2704(5) 0.3066(2)
C1_4 C 0.9354(3) 0.2914(6) 0.6849(4)
O4_4 O 0.9901(2) 0.2636(5) 0.5736(2)
C2_4 C 0.8806(3) 0.5080(6) 0.4754(3)
C3_4 C 0.9713(3) 0.3495(7) 0.6215(4)
C4_4 C 0.9317(3) 0.1483(6) 0.6992(4)
H1_4 H 0.9491 0.0836 0.6675
C5_4 C 0.8136(3) 0.4772(7) 0.4636(4)
C6_4 C 0.7754(3) 0.5480(7) 0.5078(4)
H2_4 H 0.7919 0.6175 0.5428
C7_4 C 0.9647(3) 0.2572(6) 0.2445(3)
C8_4 C 0.9047(3) 0.3811(7) 0.7302(4)
H3_4 H 0.9044 0.4773 0.7207
C9_4 C 0.9014(3) 0.1042(8) 0.7617(4)
H4_4 H 0.9006 0.0087 0.7728
C10_4 C 0.7893(3) 0.3731(8) 0.4123(4)
H5_4 H 0.8142 0.3213 0.3827
C11_4 C 0.6922(4) 0.4212(10) 0.4522(5)
H6_4 H 0.6508 0.4011 0.4485
C12_4 C 0.7281(4) 0.3474(10) 0.4057(5)
H7_4 H 0.7107 0.2801 0.3699
N2_4 N 0.8733(3) 0.1909(6) 0.8067(3)
C13_4 C 0.8743(3) 0.3256(8) 0.7897(4)
H8_4 H 0.8535 0.3870 0.8195
loop_
_geom_bond_atom_site_label_1
_geom_bond_atom_site_label_2
_geom_bond_site_symmetry_1
_geom_bond_site_symmetry_2
Eu1 O2 1_555 1_555
Ag1 O5 1_555 1_555
O1 C7 1_555 1_555
O3 Eu1 1_555 1_555
C1 C3 1_555 1_555
O4 Eu1 1_555 1_555
O5 Eu1 1_555 1_555
C3 O4 1_555 1_555
C4 C1 1_555 1_555
H1 C4 1_555 1_555
C7 O3 1_555 1_555
C8 C1 1_555 1_555
H3 C8 1_555 1_555
C9 C4 1_555 1_555
H4 C9 1_555 1_555
C10 C5 1_555 1_555
H5 C10 1_555 1_555
H6 C11 1_555 1_555
C12 C10 1_555 1_555
H7 C12 1_555 1_555
O7 C3 1_555 1_555
N2 C9 1_555 1_555
C13 C8 1_555 1_555
H8 C13 1_555 1_555
C14 O5 1_555 1_555
O8 C14 1_555 1_555
O9 Eu1 1_555 1_555
O10 C15 1_555 1_555
C15 C7 1_555 1_555
O11 C16 1_555 1_555
C16 C14 1_555 1_555
O12 Eu1 1_555 1_555
Ag2 N2 1_555 1_555
C17 C19 1_555 1_555
C19 O14 1_555 1_555
C20 C17 1_555 1_555
H9 C20 1_555 1_555
C23 C17 1_555 1_555
H11 C23 1_555 1_555
C24 C20 1_555 1_555
H12 C24 1_555 1_555
O16 C19 1_555 1_555
N4 Ag1 1_555 1_555
C28 C23 1_555 1_555
H16 C28 1_555 1_555
Eu3 O1 1_555 1_555
Eu5 O8 1_555 1_555
Ag5 O11 1_555 1_555
N5 Ag1 1_555 1_555
N6 Ag2 1_555 1_555
O20 Eu1 1_555 1_555
C11 C12 1_555 1_555
N2 C13 1_555 1_555
O9 C15 1_555 1_555
O10 Eu3 1_555 1_555
O11 Eu5 1_555 1_555
C16 O12 1_555 1_555
C24 N4 1_555 1_555
N4 C28 1_555 1_555
Eu3 O13 1_555 1_555
C25 C21 1_555 1_555
H13 C25 1_555 1_555
H14 C26 1_555 1_555
C27 C25 1_555 1_555
H15 C27 1_555 1_555
O19 Eu3 1_555 1_555
O21 Eu3 1_555 1_555
O24 Eu3 1_555 1_555
C26 C27 1_555 1_555
C6 H2 1_555 1_555
N1 C6 1_555 1_555
O6 C2 1_555 1_555
C22 H10 1_555 1_555
N3 C22 1_555 1_555
Eu5 O6 1_555 1_555
Eu6 O15 1_555 1_555
Ag3 N1 1_555 1_555
Ag4 N3 1_555 1_555
O8_2 C14_2 1_555 1_555
Eu6 O8_2 1_555 1_555
O11_2 Eu6 1_555 1_555
C16_2 O24 1_555 1_555
O11_3 C16_3 1_555 1_555
Ag5_3 O11_3 1_555 1_555
O11_3 Eu5_2 1_555 1_555
O1_2 C7_2 1_555 1_555
O2_2 C2_2 1_555 1_555
C1_2 C3_2 1_555 1_555
C2_2 C5_2 1_555 1_555
C3_2 O4_2 1_555 1_555
C4_2 C1_2 1_555 1_555
H1_2 C4_2 1_555 1_555
C5_2 C6_2 1_555 1_555
C6_2 H2_2 1_555 1_555
C7_2 O3_2 1_555 1_555
C8_2 C1_2 1_555 1_555
H3_2 C8_2 1_555 1_555
C9_2 C4_2 1_555 1_555
H4_2 C9_2 1_555 1_555
C10_2 C5_2 1_555 1_555
H5_2 C10_2 1_555 1_555
N5 C6_2 1_555 1_555
C11_2 N5 1_555 1_555
H6_2 C11_2 1_555 1_555
C12_2 C10_2 1_555 1_555
H7_2 C12_2 1_555 1_555
O6_2 C2_2 1_555 1_555
O7_2 C3_2 1_555 1_555
N2_2 C9_2 1_555 1_555
C13_2 C8_2 1_555 1_555
H8_2 C13_2 1_555 1_555
Ag4 N2_2 1_555 1_555
Eu3_2 O1_2 1_555 1_555
Eu5_2 O6_2 1_555 1_555
C11_2 C12_2 1_555 1_555
O7_2 Eu5_2 1_555 1_555
N2_2 C13_2 1_555 1_555
O19_2 Eu3_2 1_555 1_555
O21_2 Eu3_2 1_555 1_555
O23_2 Eu3_2 1_555 1_555
Ag3 O5_2 1_555 1_555
O5_2 Eu1_2 1_555 1_555
C14_3 O5_2 1_555 1_555
O9_2 Eu1_2 1_555 1_555
O10_2 C15_2 1_555 1_555
C17_2 C19_2 1_555 1_555
C19_2 O14_2 1_555 1_555
C20_2 C17_2 1_555 1_555
H9_2 C20_2 1_555 1_555
C22_2 H10_2 1_555 1_555
C23_2 C17_2 1_555 1_555
H11_2 C23_2 1_555 1_555
C24_2 C20_2 1_555 1_555
H12_2 C24_2 1_555 1_555
N6 C22_2 1_555 1_555
O16_2 C19_2 1_555 1_555
N4_2 Ag3 1_555 1_555
C28_2 C23_2 1_555 1_555
H16_2 C28_2 1_555 1_555
Eu6_2 O15_2 1_555 1_555
O20_2 Eu1_2 1_555 1_555
O22_2 Eu1_2 1_555 1_555
O9_2 C15_2 1_555 1_555
C24_2 N4_2 1_555 1_555
O16_2 Eu6_2 1_555 1_555
N4_2 C28_2 1_555 1_555
O13_2 C18_2 1_555 1_555
C18_2 C21_2 1_555 1_555
C25_2 C21_2 1_555 1_555
H13_2 C25_2 1_555 1_555
H14_2 C26_2 1_555 1_555
C27_2 C25_2 1_555 1_555
H15_2 C27_2 1_555 1_555
C26_2 C27_2 1_555 1_555
O11_4 Eu6_2 1_555 1_555
C6_3 H2_3 1_555 1_555
N1_2 C6_3 1_555 1_555
O20 C2_3 1_555 1_555
C22_3 H10_3 1_555 1_555
N3_2 C22_3 1_555 1_555
Ag5_3 N1_2 1_555 1_555
Ag5_4 N3_2 1_555 1_555
Eu6 O13_3 1_555 1_555
C25_3 C21_3 1_555 1_555
H13_3 C25_3 1_555 1_555
H14_3 C26_3 1_555 1_555
C27_3 C25_3 1_555 1_555
H15_3 C27_3 1_555 1_555
O17 Eu6 1_555 1_555
O18 Eu6 1_555 1_555
C26_3 C27_3 1_555 1_555
Eu5 O2_3 1_555 1_555
O17 C7_3 1_555 1_555
O3_3 Eu5 1_555 1_555
C1_3 C3_3 1_555 1_555
O4_3 Eu5 1_555 1_555
C3_3 O4_3 1_555 1_555
C4_3 C1_3 1_555 1_555
H1_3 C4_3 1_555 1_555
C7_3 O3_3 1_555 1_555
C8_3 C1_3 1_555 1_555
H3_3 C8_3 1_555 1_555
C9_3 C4_3 1_555 1_555
H4_3 C9_3 1_555 1_555
C10_3 C5_3 1_555 1_555
H5_3 C10_3 1_555 1_555
H6_3 C11_3 1_555 1_555
C12_3 C10_3 1_555 1_555
H7_3 C12_3 1_555 1_555
O22 C3_3 1_555 1_555
N2_3 C9_3 1_555 1_555
C13_3 C8_3 1_555 1_555
H8_3 C13_3 1_555 1_555
O9_3 Eu5 1_555 1_555
O18 C15_3 1_555 1_555
C15_3 C7_3 1_555 1_555
Ag5_2 N2_3 1_555 1_555
C17_3 C19_3 1_555 1_555
C19_3 O14_3 1_555 1_555
C20_3 C17_3 1_555 1_555
H9_3 C20_3 1_555 1_555
C23_3 C17_3 1_555 1_555
H11_3 C23_3 1_555 1_555
C24_3 C20_3 1_555 1_555
H12_3 C24_3 1_555 1_555
O23 C19_3 1_555 1_555
N4_3 Ag5 1_555 1_555
C28_3 C23_3 1_555 1_555
H16_3 C28_3 1_555 1_555
N5_2 Ag5 1_555 1_555
N6_2 Ag5_2 1_555 1_555
C11_3 C12_3 1_555 1_555
N2_3 C13_3 1_555 1_555
O9_3 C15_3 1_555 1_555
C24_3 N4_3 1_555 1_555
N4_3 C28_3 1_555 1_555
O13_4 C18_4 1_555 1_555
C18_4 C21_4 1_555 1_555
C25_4 C21_4 1_555 1_555
H13_4 C25_4 1_555 1_555
H14_4 C26_4 1_555 1_555
C27_4 C25_4 1_555 1_555
H15_4 C27_4 1_555 1_555
C26_4 C27_4 1_555 1_555
O9_4 Eu5_2 1_555 1_555
O18_2 C15_4 1_555 1_555
C17_4 C19_4 1_555 1_555
C19_4 O14_4 1_555 1_555
C20_4 C17_4 1_555 1_555
H9_4 C20_4 1_555 1_555
C22_4 H10_4 1_555 1_555
C23_4 C17_4 1_555 1_555
H11_4 C23_4 1_555 1_555
C24_4 C20_4 1_555 1_555
H12_4 C24_4 1_555 1_555
N6_2 C22_4 1_555 1_555
O23_2 C19_4 1_555 1_555
N4_4 Ag5_3 1_555 1_555
C28_4 C23_4 1_555 1_555
H16_4 C28_4 1_555 1_555
O9_4 C15_4 1_555 1_555
C24_4 N4_4 1_555 1_555
N4_4 C28_4 1_555 1_555
O17_2 Eu6_2 1_555 1_555
O17_2 C7_4 1_555 1_555
O2_4 C2_4 1_555 1_555
C1_4 C3_4 1_555 1_555
C2_4 C5_4 1_555 1_555
C3_4 O4_4 1_555 1_555
C4_4 C1_4 1_555 1_555
H1_4 C4_4 1_555 1_555
C5_4 C6_4 1_555 1_555
C6_4 H2_4 1_555 1_555
C7_4 O3_4 1_555 1_555
C8_4 C1_4 1_555 1_555
H3_4 C8_4 1_555 1_555
C9_4 C4_4 1_555 1_555
H4_4 C9_4 1_555 1_555
C10_4 C5_4 1_555 1_555
H5_4 C10_4 1_555 1_555
N5_2 C6_4 1_555 1_555
C11_4 N5_2 1_555 1_555
H6_4 C11_4 1_555 1_555
C12_4 C10_4 1_555 1_555
H7_4 C12_4 1_555 1_555
O20_2 C2_4 1_555 1_555
O22_2 C3_4 1_555 1_555
N2_4 C9_4 1_555 1_555
C13_4 C8_4 1_555 1_555
H8_4 C13_4 1_555 1_555
Ag5_4 N2_4 1_555 1_555
C11_4 C12_4 1_555 1_555
N2_4 C13_4 1_555 1_555

#END
