
###############################################################################
#
# This file contains modified crystal structure data generated from the
# MOF subset of the Cambridge Structural Database (CSD) v543 
# hosted by the Cambridge Crystallographic Data Centre (CCDC).
#
# This work is licensed under the Creative Commons
# Attribution-NonCommercial-ShareAlike 4.0 International License.
# To view a copy of this license, visit
# http://creativecommons.org/licenses/by-nc-sa/4.0/
# or send a letter to
# Creative Commons, PO Box 1866, Mountain View, CA 94042, USA.
#
# CIF created using the CSD Python API on 29 September 2022
# The structure has been converted into the P1 space group
# The structure has a 3D framework
# The original CSD entry GOYXOJ is in the monoclinic crystal system
# The framework has been calculated to contain at least 10.0% void space
# The void calculation uses a probe of radius 1.32A, grid spacing 0.4
#
###############################################################################

data_GOYXOJ
_chemical_formula_moiety         '(C112 H64 Ag6 N16 O56 Tb8)n'
_symmetry_cell_setting           triclinic
_symmetry_space_group_name_H-M   'P 1'
_symmetry_Int_Tables_number      1
_space_group_name_Hall           'P 1'
loop_
_symmetry_equiv_pos_site_id
_symmetry_equiv_pos_as_xyz
1 x,y,z
_cell_length_a                   22.137(4)
_cell_length_b                   9.5064(18)
_cell_length_c                   16.788(3)
_cell_angle_alpha                90
_cell_angle_beta                 96.953(2)
_cell_angle_gamma                90
_cell_volume                     3506.94
loop_
_atom_site_label
_atom_site_type_symbol
_atom_site_fract_x
_atom_site_fract_y
_atom_site_fract_z
O4 O 0.0575(2) 0.0921(4) 0.5585(3)
Tb1 Tb 0.004584(12) 0.70033(3) 0.434333(17)
Ag1 Ag 0.15887(3) 0.87871(10) 0.58239(4)
C1 C 0.2096(3) 0.3703(9) 0.5883(5)
H1 H 0.1848 0.3180 0.6181
O2 O 0.06338(19) 0.9027(4) 0.4811(3)
C3 C 0.1184(3) 0.5073(7) 0.5244(4)
O3 O 0.1022(2) 0.6227(5) 0.4932(3)
C6 C 0.1852(3) 0.4755(7) 0.5359(4)
C7 C 0.2242(3) 0.5494(8) 0.4930(5)
H3 H 0.2082 0.6207 0.4589
C9 C 0.0351(3) 0.9992(6) 0.5113(4)
N2 N 0.2842(3) 0.5231(8) 0.4983(4)
C12 C 0.3064(4) 0.4215(12) 0.5495(6)
H7 H 0.3479 0.4020 0.5541
C13 C 0.2714(4) 0.3463(11) 0.5948(6)
H8 H 0.2890 0.2785 0.6302
O6 O 0.0841(2) 0.4147(5) 0.5460(3)
O7 O 0.0614(2) 0.7573(5) 0.3249(3)
C14 C 0.0351(3) 0.7434(6) 0.2550(4)
O8 O 0.0597(2) 0.7299(5) 0.1924(3)
Ag5 Ag 0.34113(3) 0.62129(10) 0.41761(4)
O19 O 0.0575(2) 0.9079(4) 0.0585(3)
O20 O 0.0196(2) 0.4816(5) 0.3773(3)
N5 N 0.1268(3) 0.8089(7) 0.6934(4)
N6 N 0.2158(3) 0.9769(8) 0.5017(4)
O23 O 0.0841(2) 0.5853(5) 0.0460(3)
C18 C 0.0645(3) 0.7067(6) 0.8154(4)
O13 O 0.0082(2) 0.7336(5) 0.9267(3)
C20 C 0.0276(3) 0.6492(7) 0.8787(4)
C21 C 0.0675(3) 0.8504(7) 0.8007(4)
H10 H 0.0490 0.9145 0.8319
C24 C 0.0986(3) 0.8961(8) 0.7386(5)
H12 H 0.0998 0.9921 0.7281
C25 C 0.0953(3) 0.6176(7) 0.7702(4)
H13 H 0.0954 0.5212 0.7795
O15 O 0.0196(2) 0.5184(5) 0.8773(3)
C26 C 0.1263(3) 0.6733(8) 0.7105(4)
H14 H 0.1477 0.6122 0.6810
Tb5 Tb 0.004584(12) 0.29967(3) 0.934333(17)
O9 O 0.93662(19) 0.0973(4) 0.5189(3)
C15 C 0.9649(3) 0.0008(6) 0.4887(4)
Tb4 Tb 0.995416(12) 0.29967(3) 0.565667(17)
Ag4 Ag 0.84113(3) 0.12129(10) 0.41761(4)
O18 O 0.93662(19) 0.9027(4) 0.0189(3)
C2 C 0.9355(3) 0.7067(6) 0.6846(4)
O1 O 0.9918(2) 0.7336(5) 0.5733(3)
C4 C 0.9724(3) 0.6492(7) 0.6213(4)
C5 C 0.9325(3) 0.8504(7) 0.6993(4)
H2 H 0.9510 0.9145 0.6681
C8 C 0.9014(3) 0.8961(8) 0.7614(5)
H4 H 0.9002 0.9921 0.7719
C10 C 0.9047(3) 0.6176(7) 0.7298(4)
H5 H 0.9046 0.5212 0.7205
O5 O 0.9804(2) 0.5184(5) 0.6227(3)
N1 N 0.8732(3) 0.8089(7) 0.8066(4)
C11 C 0.8737(3) 0.6733(8) 0.7895(4)
H6 H 0.8523 0.6122 0.8190
O10 O 0.9425(2) 0.9079(4) 0.4415(3)
O11 O 0.9386(2) 0.7573(5) 0.1751(3)
C16 C 0.9649(3) 0.7434(6) 0.2450(4)
O12 O 0.9403(2) 0.7299(5) 0.3076(3)
Tb2 Tb 0.995416(12) 0.70033(3) 0.065667(17)
O14 O 0.8978(2) 0.6227(5) 0.0068(3)
C23 C 0.7758(3) 0.5494(8) 0.0070(5)
H11 H 0.7918 0.6207 0.0411
N4 N 0.7158(3) 0.5231(8) 0.0017(4)
Ag2 Ag 0.84113(3) 0.87871(10) 0.91761(4)
Ag6 Ag 0.65887(3) 0.62129(10) 0.08239(4)
O21 O 0.9804(2) 0.4816(5) 0.1227(3)
N7 N 0.7842(3) 0.9769(8) 0.9983(4)
O22 O 0.9159(2) 0.5853(5) 0.4540(3)
C17 C 0.7904(3) 0.3703(9) 0.9117(5)
H9 H 0.8152 0.3180 0.8819
C19 C 0.8816(3) 0.5073(7) 0.9756(4)
C22 C 0.8148(3) 0.4755(7) 0.9641(4)
C27 C 0.6936(4) 0.4215(12) 0.9505(6)
H15 H 0.6521 0.4020 0.9459
C28 C 0.7286(4) 0.3463(11) 0.9052(6)
H16 H 0.7110 0.2785 0.8698
O16 O 0.9159(2) 0.4147(5) 0.9540(3)
C15_2 C 0.0351(3) 0.0008(6) 0.0113(4)
Ag4_2 Ag 0.15887(3) 0.12129(10) 0.08239(4)
O9_2 O 0.06338(19) 0.0973(4) 0.9811(3)
O4_2 O 0.9425(2) 0.0921(4) 0.9415(3)
C9_2 C 0.9649(3) 0.9992(6) 0.9887(4)
O18_2 O 0.43662(19) 0.4027(4) 0.0189(3)
Tb1_2 Tb 0.504584(12) 0.20033(3) 0.434333(17)
Ag1_2 Ag 0.65887(3) 0.37871(10) 0.58239(4)
C2_2 C 0.4355(3) 0.2067(6) 0.6846(4)
O1_2 O 0.4918(2) 0.2336(5) 0.5733(3)
O2_2 O 0.56338(19) 0.4027(4) 0.4811(3)
C3_2 C 0.6184(3) 0.0073(7) 0.5244(4)
O3_2 O 0.6022(2) 0.1227(5) 0.4932(3)
C4_2 C 0.4724(3) 0.1492(7) 0.6213(4)
C5_2 C 0.4325(3) 0.3504(7) 0.6993(4)
H2_2 H 0.4510 0.4145 0.6681
C7_2 C 0.7242(3) 0.0494(8) 0.4930(5)
H3_2 H 0.7082 0.1207 0.4589
C8_2 C 0.4014(3) 0.3961(8) 0.7614(5)
H4_2 H 0.4002 0.4921 0.7719
C9_3 C 0.5351(3) 0.4992(6) 0.5113(4)
C10_2 C 0.4047(3) 0.1176(7) 0.7298(4)
H5_2 H 0.4046 0.0212 0.7205
O4_3 O 0.5575(2) 0.5921(4) 0.5585(3)
O5_2 O 0.4804(2) 0.0184(5) 0.6227(3)
N1_2 N 0.3732(3) 0.3089(7) 0.8066(4)
C11_2 C 0.3737(3) 0.1733(8) 0.7895(4)
H6_2 H 0.3523 0.1122 0.8190
N2_2 N 0.7842(3) 0.0231(8) 0.4983(4)
O7_2 O 0.5614(2) 0.2573(5) 0.3249(3)
C14_2 C 0.5351(3) 0.2434(6) 0.2550(4)
O8_2 O 0.5597(2) 0.2299(5) 0.1924(3)
O9_3 O 0.43662(19) 0.5973(4) 0.5189(3)
C15_3 C 0.4649(3) 0.5008(6) 0.4887(4)
O10_2 O 0.4425(2) 0.4079(4) 0.4415(3)
O11_2 O 0.4386(2) 0.2573(5) 0.1751(3)
C16_2 C 0.4649(3) 0.2434(6) 0.2450(4)
O12_2 O 0.4403(2) 0.2299(5) 0.3076(3)
Tb2_2 Tb 0.495416(12) 0.20033(3) 0.065667(17)
O14_2 O 0.3978(2) 0.1227(5) 0.0068(3)
C23_2 C 0.2758(3) 0.0494(8) 0.0070(5)
H11_2 H 0.2918 0.1207 0.0411
N4_2 N 0.2158(3) 0.0231(8) 0.0017(4)
Ag2_2 Ag 0.34113(3) 0.37871(10) 0.91761(4)
Tb4_2 Tb 0.495416(12) 0.79967(3) 0.565667(17)
O19_2 O 0.5575(2) 0.4079(4) 0.0585(3)
N5_2 N 0.6268(3) 0.3089(7) 0.6934(4)
N6_2 N 0.7158(3) 0.4769(8) 0.5017(4)
N7_2 N 0.2842(3) 0.4769(8) 0.9983(4)
O22_2 O 0.4159(2) 0.0853(5) 0.4540(3)
O23_2 O 0.5841(2) 0.0853(5) 0.0460(3)
C18_2 C 0.5645(3) 0.2067(6) 0.8154(4)
O13_2 O 0.5082(2) 0.2336(5) 0.9267(3)
C19_2 C 0.3816(3) 0.0073(7) 0.9756(4)
C20_2 C 0.5276(3) 0.1492(7) 0.8787(4)
C21_2 C 0.5675(3) 0.3504(7) 0.8007(4)
H10_2 H 0.5490 0.4145 0.8319
C24_2 C 0.5986(3) 0.3961(8) 0.7386(5)
H12_2 H 0.5998 0.4921 0.7281
C25_2 C 0.5953(3) 0.1176(7) 0.7702(4)
H13_2 H 0.5954 0.0212 0.7795
O15_2 O 0.5196(2) 0.0184(5) 0.8773(3)
C26_2 C 0.6263(3) 0.1733(8) 0.7105(4)
H14_2 H 0.6477 0.1122 0.6810
C1_2 C 0.7096(3) 0.8703(9) 0.5883(5)
H1_2 H 0.6848 0.8180 0.6181
C6_2 C 0.6852(3) 0.9755(7) 0.5359(4)
C12_2 C 0.8064(4) 0.9215(12) 0.5495(6)
H7_2 H 0.8479 0.9020 0.5541
C13_2 C 0.7714(4) 0.8463(11) 0.5948(6)
H8_2 H 0.7890 0.7785 0.6302
O6_2 O 0.5841(2) 0.9147(5) 0.5460(3)
O20_2 O 0.5196(2) 0.9816(5) 0.3773(3)
O21_2 O 0.4804(2) 0.9816(5) 0.1227(3)
C17_2 C 0.2904(3) 0.8703(9) 0.9117(5)
H9_2 H 0.3152 0.8180 0.8819
C22_2 C 0.3148(3) 0.9755(7) 0.9641(4)
C27_2 C 0.1936(4) 0.9215(12) 0.9505(6)
H15_2 H 0.1521 0.9020 0.9459
C28_2 C 0.2286(4) 0.8463(11) 0.9052(6)
H16_2 H 0.2110 0.7785 0.8698
O16_2 O 0.4159(2) 0.9147(5) 0.9540(3)
Tb5_2 Tb 0.504584(12) 0.79967(3) 0.934333(17)
C15_4 C 0.5351(3) 0.5008(6) 0.0113(4)
C9_4 C 0.4649(3) 0.4992(6) 0.9887(4)
O4_4 O 0.4425(2) 0.5921(4) 0.9415(3)
O9_4 O 0.56338(19) 0.5973(4) 0.9811(3)
C17_3 C 0.2096(3) 0.6297(9) 0.0883(5)
H9_3 H 0.1848 0.6820 0.1181
C19_3 C 0.1184(3) 0.4927(7) 0.0244(4)
C22_3 C 0.1852(3) 0.5245(7) 0.0359(4)
C27_3 C 0.3064(4) 0.5785(12) 0.0495(6)
H15_3 H 0.3479 0.5980 0.0541
C28_3 C 0.2714(4) 0.6537(11) 0.0948(6)
H16_3 H 0.2890 0.7215 0.1302
C2_3 C 0.0645(3) 0.2933(6) 0.3154(4)
O1_3 O 0.0082(2) 0.2664(5) 0.4267(3)
C4_3 C 0.0276(3) 0.3508(7) 0.3787(4)
C5_3 C 0.0675(3) 0.1496(7) 0.3007(4)
H2_3 H 0.0490 0.0855 0.3319
C8_3 C 0.0986(3) 0.1039(8) 0.2386(5)
H4_3 H 0.0998 0.0079 0.2281
C10_3 C 0.0953(3) 0.3824(7) 0.2702(4)
H5_3 H 0.0954 0.4788 0.2795
N1_3 N 0.1268(3) 0.1911(7) 0.1934(4)
C11_3 C 0.1263(3) 0.3267(8) 0.2105(4)
H6_3 H 0.1477 0.3878 0.1810
O11_3 O 0.0614(2) 0.2427(5) 0.8249(3)
C16_3 C 0.0351(3) 0.2566(6) 0.7550(4)
O12_3 O 0.0597(2) 0.2701(5) 0.6924(3)
O14_3 O 0.1022(2) 0.3773(5) 0.9932(3)
C23_3 C 0.2242(3) 0.4506(8) 0.9930(5)
H11_3 H 0.2082 0.3793 0.9589
C18_3 C 0.9355(3) 0.2933(6) 0.1846(4)
O13_3 O 0.9918(2) 0.2664(5) 0.0733(3)
C20_3 C 0.9724(3) 0.3508(7) 0.1213(4)
C21_3 C 0.9325(3) 0.1496(7) 0.1993(4)
H10_3 H 0.9510 0.0855 0.1681
C24_3 C 0.9014(3) 0.1039(8) 0.2614(5)
H12_3 H 0.9002 0.0079 0.2719
C25_3 C 0.9047(3) 0.3824(7) 0.2298(4)
H13_3 H 0.9046 0.4788 0.2205
N3 N 0.8732(3) 0.1911(7) 0.3066(4)
C26_3 C 0.8737(3) 0.3267(8) 0.2895(4)
H14_3 H 0.8523 0.3878 0.3190
C1_3 C 0.7904(3) 0.6297(9) 0.4117(5)
H1_3 H 0.8152 0.6820 0.3819
C3_3 C 0.8816(3) 0.4927(7) 0.4756(4)
O3_3 O 0.8978(2) 0.3773(5) 0.5068(3)
C6_3 C 0.8148(3) 0.5245(7) 0.4641(4)
C7_3 C 0.7758(3) 0.4506(8) 0.5070(5)
H3_3 H 0.7918 0.3793 0.5411
C12_3 C 0.6936(4) 0.5785(12) 0.4505(6)
H7_3 H 0.6521 0.5980 0.4459
C13_3 C 0.7286(4) 0.6537(11) 0.4052(6)
H8_3 H 0.7110 0.7215 0.3698
O7_3 O 0.9386(2) 0.2427(5) 0.6751(3)
C14_3 C 0.9649(3) 0.2566(6) 0.7450(4)
O8_3 O 0.9403(2) 0.2701(5) 0.8076(3)
C17_4 C 0.7096(3) 0.1297(9) 0.0883(5)
H9_4 H 0.6848 0.1820 0.1181
C22_4 C 0.6852(3) 0.0245(7) 0.0359(4)
C27_4 C 0.8064(4) 0.0785(12) 0.0495(6)
H15_4 H 0.8479 0.0980 0.0541
C28_4 C 0.7714(4) 0.1537(11) 0.0948(6)
H16_4 H 0.7890 0.2215 0.1302
C1_4 C 0.2904(3) 0.1297(9) 0.4117(5)
H1_4 H 0.3152 0.1820 0.3819
C6_4 C 0.3148(3) 0.0245(7) 0.4641(4)
C12_4 C 0.1936(4) 0.0785(12) 0.4505(6)
H7_4 H 0.1521 0.0980 0.4459
C13_4 C 0.2286(4) 0.1537(11) 0.4052(6)
H8_4 H 0.2110 0.2215 0.3698
C18_4 C 0.4355(3) 0.7933(6) 0.1846(4)
O13_4 O 0.4918(2) 0.7664(5) 0.0733(3)
C19_4 C 0.6184(3) 0.9927(7) 0.0244(4)
C20_4 C 0.4724(3) 0.8508(7) 0.1213(4)
C21_4 C 0.4325(3) 0.6496(7) 0.1993(4)
H10_4 H 0.4510 0.5855 0.1681
C24_4 C 0.4014(3) 0.6039(8) 0.2614(5)
H12_4 H 0.4002 0.5079 0.2719
C25_4 C 0.4047(3) 0.8824(7) 0.2298(4)
H13_4 H 0.4046 0.9788 0.2205
N3_2 N 0.3732(3) 0.6911(7) 0.3066(4)
C26_4 C 0.3737(3) 0.8267(8) 0.2895(4)
H14_4 H 0.3523 0.8878 0.3190
C2_4 C 0.5645(3) 0.7933(6) 0.3154(4)
O1_4 O 0.5082(2) 0.7664(5) 0.4267(3)
C3_4 C 0.3816(3) 0.9927(7) 0.4756(4)
O3_4 O 0.3978(2) 0.8773(5) 0.5068(3)
C4_4 C 0.5276(3) 0.8508(7) 0.3787(4)
C5_4 C 0.5675(3) 0.6496(7) 0.3007(4)
H2_4 H 0.5490 0.5855 0.3319
C7_4 C 0.2758(3) 0.9506(8) 0.5070(5)
H3_4 H 0.2918 0.8793 0.5411
C8_4 C 0.5986(3) 0.6039(8) 0.2386(5)
H4_4 H 0.5998 0.5079 0.2281
C10_4 C 0.5953(3) 0.8824(7) 0.2702(4)
H5_4 H 0.5954 0.9788 0.2795
N1_4 N 0.6268(3) 0.6911(7) 0.1934(4)
C11_4 C 0.6263(3) 0.8267(8) 0.2105(4)
H6_4 H 0.6477 0.8878 0.1810
O7_4 O 0.4386(2) 0.7427(5) 0.6751(3)
C14_4 C 0.4649(3) 0.7566(6) 0.7450(4)
O8_4 O 0.4403(2) 0.7701(5) 0.8076(3)
O11_4 O 0.5614(2) 0.7427(5) 0.8249(3)
C16_4 C 0.5351(3) 0.7566(6) 0.7550(4)
O12_4 O 0.5597(2) 0.7701(5) 0.6924(3)
O14_4 O 0.6022(2) 0.8773(5) 0.9932(3)
C23_4 C 0.7242(3) 0.9506(8) 0.9930(5)
H11_4 H 0.7082 0.8793 0.9589
loop_
_geom_bond_atom_site_label_1
_geom_bond_atom_site_label_2
_geom_bond_site_symmetry_1
_geom_bond_site_symmetry_2
Ag1 O2 1_555 1_555
C1 H1 1_555 1_555
O2 Tb1 1_555 1_555
C3 O3 1_555 1_555
O3 Tb1 1_555 1_555
C6 C1 1_555 1_555
C7 C6 1_555 1_555
H3 C7 1_555 1_555
C9 O2 1_555 1_555
N2 C7 1_555 1_555
C12 N2 1_555 1_555
H7 C12 1_555 1_555
C13 C1 1_555 1_555
H8 C13 1_555 1_555
O6 C3 1_555 1_555
O7 Tb1 1_555 1_555
C14 O7 1_555 1_555
O8 C14 1_555 1_555
Ag5 N2 1_555 1_555
O20 Tb1 1_555 1_555
N5 Ag1 1_555 1_555
N6 Ag1 1_555 1_555
C3 C6 1_555 1_555
C12 C13 1_555 1_555
C18 C20 1_555 1_555
C20 O13 1_555 1_555
C21 C18 1_555 1_555
H10 C21 1_555 1_555
C24 C21 1_555 1_555
H12 C24 1_555 1_555
C25 C18 1_555 1_555
H13 C25 1_555 1_555
O15 C20 1_555 1_555
N5 C24 1_555 1_555
C26 C25 1_555 1_555
H14 C26 1_555 1_555
Tb5 O15 1_555 1_555
N5 C26 1_555 1_555
O9 C15 1_555 1_555
Ag4 O9 1_555 1_555
O9 Tb4 1_555 1_555
C2 C4 1_555 1_555
O1 C4 1_555 1_555
C4 O5 1_555 1_555
C5 C2 1_555 1_555
H2 C5 1_555 1_555
C8 C5 1_555 1_555
H4 C8 1_555 1_555
C10 C2 1_555 1_555
H5 C10 1_555 1_555
O5 Tb4 1_555 1_555
N1 C8 1_555 1_555
C11 C10 1_555 1_555
H6 C11 1_555 1_555
O11 C16 1_555 1_555
O14 Tb2 1_555 1_555
H11 C23 1_555 1_555
N4 C23 1_555 1_555
Ag2 N1 1_555 1_555
Ag6 N4 1_555 1_555
O18 Tb2 1_555 1_555
O21 Tb2 1_555 1_555
N7 Ag2 1_555 1_555
N1 C11 1_555 1_555
O11 Tb2 1_555 1_555
C16 O12 1_555 1_555
C17 H9 1_555 1_555
C22 C17 1_555 1_555
H15 C27 1_555 1_555
C28 C17 1_555 1_555
H16 C28 1_555 1_555
O16 C19 1_555 1_555
C19 C22 1_555 1_555
C27 C28 1_555 1_555
O9_2 Tb5 1_555 1_555
Tb1_2 O1_2 1_555 1_555
Ag1_2 O2_2 1_555 1_555
C2_2 C4_2 1_555 1_555
O1_2 C4_2 1_555 1_555
O2_2 Tb1_2 1_555 1_555
C3_2 O3_2 1_555 1_555
O3_2 Tb1_2 1_555 1_555
C4_2 O5_2 1_555 1_555
C5_2 C2_2 1_555 1_555
H2_2 C5_2 1_555 1_555
H3_2 C7_2 1_555 1_555
C8_2 C5_2 1_555 1_555
H4_2 C8_2 1_555 1_555
C9_3 O2_2 1_555 1_555
C10_2 C2_2 1_555 1_555
H5_2 C10_2 1_555 1_555
O4_3 C9_3 1_555 1_555
N1_2 C8_2 1_555 1_555
C11_2 C10_2 1_555 1_555
H6_2 C11_2 1_555 1_555
N2_2 C7_2 1_555 1_555
O7_2 Tb1_2 1_555 1_555
C14_2 O7_2 1_555 1_555
O8_2 C14_2 1_555 1_555
O9_3 C15_3 1_555 1_555
C15_3 C9_3 1_555 1_555
O10_2 Tb1_2 1_555 1_555
O11_2 C16_2 1_555 1_555
C16_2 C14_2 1_555 1_555
O12_2 Tb1_2 1_555 1_555
Tb2_2 O8_2 1_555 1_555
O14_2 Tb2_2 1_555 1_555
H11_2 C23_2 1_555 1_555
N4_2 C23_2 1_555 1_555
Ag2_2 N1_2 1_555 1_555
Tb4_2 O4_3 1_555 1_555
Ag5 O9_3 1_555 1_555
Ag4 N2_2 1_555 1_555
Ag4_2 N4_2 1_555 1_555
O18_2 Tb2_2 1_555 1_555
O19_2 Tb2_2 1_555 1_555
N5_2 Ag1_2 1_555 1_555
N6_2 Ag1_2 1_555 1_555
N7_2 Ag2_2 1_555 1_555
O22_2 Tb1_2 1_555 1_555
O23_2 Tb2_2 1_555 1_555
N1_2 C11_2 1_555 1_555
O9_3 Tb4_2 1_555 1_555
C15_3 O10_2 1_555 1_555
O11_2 Tb2_2 1_555 1_555
C16_2 O12_2 1_555 1_555
C18_2 C20_2 1_555 1_555
C20_2 O13_2 1_555 1_555
C21_2 C18_2 1_555 1_555
H10_2 C21_2 1_555 1_555
C24_2 C21_2 1_555 1_555
H12_2 C24_2 1_555 1_555
C25_2 C18_2 1_555 1_555
H13_2 C25_2 1_555 1_555
O15_2 C20_2 1_555 1_555
N5_2 C24_2 1_555 1_555
C26_2 C25_2 1_555 1_555
H14_2 C26_2 1_555 1_555
N5_2 C26_2 1_555 1_555
C1_2 H1_2 1_555 1_555
C6_2 C1_2 1_555 1_555
H7_2 C12_2 1_555 1_555
C13_2 C1_2 1_555 1_555
H8_2 C13_2 1_555 1_555
Tb4_2 O6_2 1_555 1_555
C12_2 C13_2 1_555 1_555
C17_2 H9_2 1_555 1_555
C22_2 C17_2 1_555 1_555
H15_2 C27_2 1_555 1_555
C28_2 C17_2 1_555 1_555
H16_2 C28_2 1_555 1_555
C27_2 C28_2 1_555 1_555
O16_2 Tb5_2 1_555 1_555
C15_4 O19_2 1_555 1_555
O4_4 C9_4 1_555 1_555
Tb5_2 O4_4 1_555 1_555
O9_4 Tb5_2 1_555 1_555
C17_3 H9_3 1_555 1_555
C22_3 C17_3 1_555 1_555
H15_3 C27_3 1_555 1_555
C28_3 C17_3 1_555 1_555
H16_3 C28_3 1_555 1_555
O23 C19_3 1_555 1_555
C19_3 C22_3 1_555 1_555
C27_3 C28_3 1_555 1_555
C2_3 C4_3 1_555 1_555
O1_3 C4_3 1_555 1_555
C4_3 O20 1_555 1_555
C5_3 C2_3 1_555 1_555
H2_3 C5_3 1_555 1_555
C8_3 C5_3 1_555 1_555
H4_3 C8_3 1_555 1_555
C10_3 C2_3 1_555 1_555
H5_3 C10_3 1_555 1_555
N1_3 C8_3 1_555 1_555
C11_3 C10_3 1_555 1_555
H6_3 C11_3 1_555 1_555
O11_3 C16_3 1_555 1_555
O14_3 Tb5 1_555 1_555
H11_3 C23_3 1_555 1_555
N7_2 C23_3 1_555 1_555
Ag4_2 N1_3 1_555 1_555
N1_3 C11_3 1_555 1_555
O11_3 Tb5 1_555 1_555
C16_3 O12_3 1_555 1_555
C18_3 C20_3 1_555 1_555
C20_3 O13_3 1_555 1_555
C21_3 C18_3 1_555 1_555
H10_3 C21_3 1_555 1_555
C24_3 C21_3 1_555 1_555
H12_3 C24_3 1_555 1_555
C25_3 C18_3 1_555 1_555
H13_3 C25_3 1_555 1_555
O21 C20_3 1_555 1_555
N3 C24_3 1_555 1_555
C26_3 C25_3 1_555 1_555
H14_3 C26_3 1_555 1_555
Ag4 N3 1_555 1_555
N3 C26_3 1_555 1_555
C1_3 H1_3 1_555 1_555
C3_3 O3_3 1_555 1_555
O3_3 Tb4 1_555 1_555
C6_3 C1_3 1_555 1_555
C7_3 C6_3 1_555 1_555
H3_3 C7_3 1_555 1_555
N6_2 C7_3 1_555 1_555
C12_3 N6_2 1_555 1_555
H7_3 C12_3 1_555 1_555
C13_3 C1_3 1_555 1_555
H8_3 C13_3 1_555 1_555
O22 C3_3 1_555 1_555
O7_3 Tb4 1_555 1_555
C14_3 O7_3 1_555 1_555
O8_3 C14_3 1_555 1_555
C3_3 C6_3 1_555 1_555
C12_3 C13_3 1_555 1_555
C17_4 H9_4 1_555 1_555
C22_4 C17_4 1_555 1_555
H15_4 C27_4 1_555 1_555
C28_4 C17_4 1_555 1_555
H16_4 C28_4 1_555 1_555
C27_4 C28_4 1_555 1_555
C1_4 H1_4 1_555 1_555
C6_4 C1_4 1_555 1_555
H7_4 C12_4 1_555 1_555
C13_4 C1_4 1_555 1_555
H8_4 C13_4 1_555 1_555
C12_4 C13_4 1_555 1_555
C18_4 C20_4 1_555 1_555
C20_4 O13_4 1_555 1_555
C21_4 C18_4 1_555 1_555
H10_4 C21_4 1_555 1_555
C24_4 C21_4 1_555 1_555
H12_4 C24_4 1_555 1_555
C25_4 C18_4 1_555 1_555
H13_4 C25_4 1_555 1_555
O21_2 C20_4 1_555 1_555
N3_2 C24_4 1_555 1_555
C26_4 C25_4 1_555 1_555
H14_4 C26_4 1_555 1_555
Ag5 N3_2 1_555 1_555
N3_2 C26_4 1_555 1_555
Tb4_2 O1_4 1_555 1_555
C2_4 C4_4 1_555 1_555
O1_4 C4_4 1_555 1_555
C3_4 O3_4 1_555 1_555
O3_4 Tb4_2 1_555 1_555
C4_4 O20_2 1_555 1_555
C5_4 C2_4 1_555 1_555
H2_4 C5_4 1_555 1_555
H3_4 C7_4 1_555 1_555
C8_4 C5_4 1_555 1_555
H4_4 C8_4 1_555 1_555
C10_4 C2_4 1_555 1_555
H5_4 C10_4 1_555 1_555
N1_4 C8_4 1_555 1_555
C11_4 C10_4 1_555 1_555
H6_4 C11_4 1_555 1_555
N6 C7_4 1_555 1_555
O7_4 Tb4_2 1_555 1_555
C14_4 O7_4 1_555 1_555
O8_4 C14_4 1_555 1_555
O11_4 C16_4 1_555 1_555
C16_4 C14_4 1_555 1_555
O12_4 Tb4_2 1_555 1_555
Tb5_2 O8_4 1_555 1_555
O14_4 Tb5_2 1_555 1_555
H11_4 C23_4 1_555 1_555
N7 C23_4 1_555 1_555
Ag6 N1_4 1_555 1_555
N1_4 C11_4 1_555 1_555
O11_4 Tb5_2 1_555 1_555
C16_4 O12_4 1_555 1_555

#END
