
###############################################################################
#
# This file contains modified crystal structure data generated from the
# MOF subset of the Cambridge Structural Database (CSD) v543 
# hosted by the Cambridge Crystallographic Data Centre (CCDC).
#
# This work is licensed under the Creative Commons
# Attribution-NonCommercial-ShareAlike 4.0 International License.
# To view a copy of this license, visit
# http://creativecommons.org/licenses/by-nc-sa/4.0/
# or send a letter to
# Creative Commons, PO Box 1866, Mountain View, CA 94042, USA.
#
# CIF created using the CSD Python API on 29 September 2022
# The structure has been converted into the P1 space group
# The structure has a 3D framework
# The original CSD entry GOYXAV is in the monoclinic crystal system
# The framework has been calculated to contain at least 10.0% void space
# The void calculation uses a probe of radius 1.32A, grid spacing 0.4
#
###############################################################################

data_GOYXAV
_chemical_formula_moiety         '(C112 H64 Ag8 N16 O59 Sm8)n'
_symmetry_cell_setting           triclinic
_symmetry_space_group_name_H-M   'P 1'
_symmetry_Int_Tables_number      1
_space_group_name_Hall           'P 1'
loop_
_symmetry_equiv_pos_site_id
_symmetry_equiv_pos_as_xyz
1 x,y,z
_cell_length_a                   22.052(7)
_cell_length_b                   9.528(3)
_cell_length_c                   16.899(6)
_cell_angle_alpha                90
_cell_angle_beta                 96.897(4)
_cell_angle_gamma                90
_cell_volume                     3524.98
loop_
_atom_site_label
_atom_site_type_symbol
_atom_site_fract_x
_atom_site_fract_y
_atom_site_fract_z
O1 O 0.0597(3) 0.2286(8) 0.1930(4)
C5 C 0.0352(4) 0.2421(10) 0.2549(5)
O7 O 0.0613(3) 0.2566(8) 0.3243(4)
C16 C 0.0349(4) 0.5015(10) 0.0123(5)
O12 O 0.0569(3) 0.4103(7) 0.0597(4)
Sm3 Sm 0.00457(2) 0.19903(5) 0.43421(2)
Ag3 Ag 0.15803(4) 0.61903(14) 0.08362(6)
O21 O 0.0857(3) 0.0806(8) 0.0475(4)
C2 C 0.0641(4) 0.2095(9) 0.8157(5)
O2 O 0.0109(3) 0.2366(8) 0.9264(4)
O5 O 0.0216(3) 0.0219(7) 0.8787(4)
C3 C 0.0676(5) 0.3519(11) 0.8008(6)
H2 H 0.0497 0.4165 0.8321
C6 C 0.0946(5) 0.1194(12) 0.7697(6)
H3 H 0.0952 0.0233 0.7794
C7 C 0.1242(5) 0.1751(13) 0.7090(6)
H4 H 0.1441 0.1138 0.6779
C8 C 0.0978(5) 0.3964(13) 0.7393(7)
H5 H 0.0988 0.4923 0.7294
N1 N 0.1259(4) 0.3120(11) 0.6929(5)
C9 C 0.0290(4) 0.1518(11) 0.8783(5)
O11 O 0.0637(3) 0.5964(7) 0.9816(4)
Ag2 Ag 0.15803(4) 0.38097(14) 0.58362(6)
O14 O 0.1042(3) 0.1238(7) 0.4944(4)
N4 N 0.2852(4) 0.0201(12) 0.4967(6)
C27 C 0.2253(4) 0.0486(13) 0.4923(6)
H16 H 0.2095 0.1203 0.4586
C28 C 0.1199(4) 0.0085(11) 0.5253(5)
Sm5 Sm 0.00457(2) 0.80097(5) 0.93421(2)
Ag5 Ag 0.34197(4) 0.11903(14) 0.41638(6)
O18 O 0.0637(3) 0.4036(7) 0.4816(4)
N6 N 0.2148(4) 0.4799(12) 0.5033(6)
C17 C 0.2722(6) 0.8483(18) 0.5934(8)
H9 H 0.2898 0.7809 0.6288
C20 C 0.1860(4) 0.9762(11) 0.5355(6)
C25 C 0.2111(6) 0.8740(14) 0.5881(7)
H14 H 0.1866 0.8239 0.6192
C26 C 0.3077(6) 0.9220(17) 0.5465(7)
H15 H 0.3492 0.9017 0.5500
O16 O 0.0857(3) 0.9194(8) 0.5475(4)
O20 O 0.0216(3) 0.9781(7) 0.3787(4)
Sm1 Sm 0.99543(2) 0.19903(5) 0.06579(2)
O3 O 0.9363(3) 0.4036(7) 0.0184(4)
O4 O 0.8958(3) 0.1238(7) 0.0056(4)
N2 N 0.7148(4) 0.0201(12) 0.0033(6)
C12 C 0.7747(4) 0.0486(13) 0.0077(6)
H8 H 0.7905 0.1203 0.0414
O9 O 0.9403(3) 0.2286(8) 0.3070(4)
C15 C 0.9648(4) 0.2421(10) 0.2451(5)
O10 O 0.9387(3) 0.2566(8) 0.1757(4)
Ag4 Ag 0.65803(4) 0.11903(14) 0.08362(6)
Ag1 Ag 0.84197(4) 0.38097(14) 0.91638(6)
C13 C 0.8801(4) 0.0085(11) 0.9747(5)
C14 C 0.9651(4) 0.4985(10) 0.9877(5)
O8 O 0.9431(3) 0.5897(7) 0.9403(4)
C18 C 0.9359(4) 0.2095(9) 0.6843(5)
O13 O 0.9891(3) 0.2366(8) 0.5736(4)
O15 O 0.9784(3) 0.0219(7) 0.6213(4)
C19 C 0.9324(5) 0.3519(11) 0.6992(6)
H10 H 0.9503 0.4165 0.6679
C21 C 0.9054(5) 0.1194(12) 0.7303(6)
H11 H 0.9048 0.0233 0.7206
C22 C 0.8758(5) 0.1751(13) 0.7910(6)
H12 H 0.8559 0.1138 0.8221
C23 C 0.9022(5) 0.3964(13) 0.7607(7)
H13 H 0.9012 0.4923 0.7706
N3 N 0.8741(4) 0.3120(11) 0.8071(5)
C24 C 0.9710(4) 0.1518(11) 0.6217(5)
N5 N 0.7852(4) 0.4799(12) 0.9967(6)
O22 O 0.9143(3) 0.0806(8) 0.4525(4)
O24 O 0.9431(3) 0.4103(7) 0.4403(4)
O19 O 0.9784(3) 0.9781(7) 0.1213(4)
C1 C 0.7278(6) 0.8483(18) 0.9066(8)
H1 H 0.7102 0.7809 0.8712
C4 C 0.8140(4) 0.9762(11) 0.9645(6)
C10 C 0.7889(6) 0.8740(14) 0.9119(7)
H6 H 0.8134 0.8239 0.8808
C11 C 0.6923(6) 0.9220(17) 0.9535(7)
H7 H 0.6508 0.9017 0.9500
O6 O 0.9143(3) 0.9194(8) 0.9525(4)
Sm6 Sm 0.99543(2) 0.80097(5) 0.56579(2)
C14_2 C 0.0349(4) 0.4985(10) 0.5123(5)
O8_2 O 0.0569(3) 0.5897(7) 0.5597(4)
O11_2 O 0.9363(3) 0.5964(7) 0.5184(4)
C16_2 C 0.9651(4) 0.5015(10) 0.4877(5)
Ag3_2 Ag 0.84197(4) 0.61903(14) 0.41638(6)
C16_3 C 0.5349(4) 0.0015(10) 0.0123(5)
O8_3 O 0.4431(3) 0.0897(7) 0.9403(4)
O11_3 O 0.5637(3) 0.0964(7) 0.9816(4)
Sm5_2 Sm 0.50457(2) 0.30097(5) 0.93421(2)
Sm1_2 Sm 0.49543(2) 0.69903(5) 0.06579(2)
O1_2 O 0.5597(3) 0.7286(8) 0.1930(4)
O3_2 O 0.4363(3) 0.9036(7) 0.0184(4)
O4_2 O 0.3958(3) 0.6238(7) 0.0056(4)
C5_2 C 0.5352(4) 0.7421(10) 0.2549(5)
N2_2 N 0.2148(4) 0.5201(12) 0.0033(6)
C12_2 C 0.2747(4) 0.5486(13) 0.0077(6)
H8_2 H 0.2905 0.6203 0.0414
O7_2 O 0.5613(3) 0.7566(8) 0.3243(4)
O9_2 O 0.4403(3) 0.7286(8) 0.3070(4)
C15_2 C 0.4648(4) 0.7421(10) 0.2451(5)
O10_2 O 0.4387(3) 0.7566(8) 0.1757(4)
O12_2 O 0.5569(3) 0.9103(7) 0.0597(4)
Sm3_2 Sm 0.50457(2) 0.69903(5) 0.43421(2)
O19_2 O 0.4784(3) 0.4781(7) 0.1213(4)
O21_2 O 0.5857(3) 0.5806(8) 0.0475(4)
Ag1_2 Ag 0.34197(4) 0.88097(14) 0.91638(6)
C1_2 C 0.2278(6) 0.3483(18) 0.9066(8)
H1_2 H 0.2102 0.2809 0.8712
C2_2 C 0.5641(4) 0.7095(9) 0.8157(5)
O2_2 O 0.5109(3) 0.7366(8) 0.9264(4)
O5_2 O 0.5216(3) 0.5219(7) 0.8787(4)
C3_2 C 0.5676(5) 0.8519(11) 0.8008(6)
H2_2 H 0.5497 0.9165 0.8321
C4_2 C 0.3140(4) 0.4762(11) 0.9645(6)
C6_2 C 0.5946(5) 0.6194(12) 0.7697(6)
H3_2 H 0.5952 0.5233 0.7794
C7_2 C 0.6242(5) 0.6751(13) 0.7090(6)
H4_2 H 0.6441 0.6138 0.6779
C8_2 C 0.5978(5) 0.8964(13) 0.7393(7)
H5_2 H 0.5988 0.9923 0.7294
N1_2 N 0.6259(4) 0.8120(11) 0.6929(5)
C9_2 C 0.5290(4) 0.6518(11) 0.8783(5)
C10_2 C 0.2889(6) 0.3740(14) 0.9119(7)
H6_2 H 0.3134 0.3239 0.8808
C11_2 C 0.1923(6) 0.4220(17) 0.9535(7)
H7_2 H 0.1508 0.4017 0.9500
C13_2 C 0.3801(4) 0.5085(11) 0.9747(5)
O6_2 O 0.4143(3) 0.4194(8) 0.9525(4)
C14_3 C 0.4651(4) 0.9985(10) 0.9877(5)
Ag2_2 Ag 0.65803(4) 0.88097(14) 0.58362(6)
C17_2 C 0.7722(6) 0.3483(18) 0.5934(8)
H9_2 H 0.7898 0.2809 0.6288
C18_2 C 0.4359(4) 0.7095(9) 0.6843(5)
O13_2 O 0.4891(3) 0.7366(8) 0.5736(4)
O14_2 O 0.6042(3) 0.6238(7) 0.4944(4)
O15_2 O 0.4784(3) 0.5219(7) 0.6213(4)
C19_2 C 0.4324(5) 0.8519(11) 0.6992(6)
H10_2 H 0.4503 0.9165 0.6679
C20_2 C 0.6860(4) 0.4762(11) 0.5355(6)
C21_2 C 0.4054(5) 0.6194(12) 0.7303(6)
H11_2 H 0.4048 0.5233 0.7206
C22_2 C 0.3758(5) 0.6751(13) 0.7910(6)
H12_2 H 0.3559 0.6138 0.8221
C23_2 C 0.4022(5) 0.8964(13) 0.7607(7)
H13_2 H 0.4012 0.9923 0.7706
N3_2 N 0.3741(4) 0.8120(11) 0.8071(5)
C24_2 C 0.4710(4) 0.6518(11) 0.6217(5)
C25_2 C 0.7111(6) 0.3740(14) 0.5881(7)
H14_2 H 0.6866 0.3239 0.6192
C26_2 C 0.8077(6) 0.4220(17) 0.5465(7)
H15_2 H 0.8492 0.4017 0.5500
N4_2 N 0.7852(4) 0.5201(12) 0.4967(6)
C27_2 C 0.7253(4) 0.5486(13) 0.4923(6)
H16_2 H 0.7095 0.6203 0.4586
C28_2 C 0.6199(4) 0.5085(11) 0.5253(5)
O16_2 O 0.5857(3) 0.4194(8) 0.5475(4)
Sm6_2 Sm 0.49543(2) 0.30097(5) 0.56579(2)
O18_2 O 0.5637(3) 0.9036(7) 0.4816(4)
O20_2 O 0.5216(3) 0.4781(7) 0.3787(4)
N5_2 N 0.2852(4) 0.9799(12) 0.9967(6)
N6_2 N 0.7148(4) 0.9799(12) 0.5033(6)
O22_2 O 0.4143(3) 0.5806(8) 0.4525(4)
O24_2 O 0.4431(3) 0.9103(7) 0.4403(4)
O8_4 O 0.5569(3) 0.0897(7) 0.5597(4)
O11_4 O 0.4363(3) 0.0964(7) 0.5184(4)
C16_4 C 0.4651(4) 0.0015(10) 0.4877(5)
C14_4 C 0.5349(4) 0.9985(10) 0.5123(5)
C1_3 C 0.2722(6) 0.1517(18) 0.0934(8)
H1_3 H 0.2898 0.2191 0.1288
C4_3 C 0.1860(4) 0.0238(11) 0.0355(6)
C10_3 C 0.2111(6) 0.1260(14) 0.0881(7)
H6_3 H 0.1866 0.1761 0.1192
C11_3 C 0.3077(6) 0.0780(17) 0.0465(7)
H7_3 H 0.3492 0.0983 0.0500
C13_3 C 0.1199(4) 0.9915(11) 0.0253(5)
C18_3 C 0.0641(4) 0.7905(9) 0.3157(5)
O13_3 O 0.0109(3) 0.7634(8) 0.4264(4)
C19_3 C 0.0676(5) 0.6481(11) 0.3008(6)
H10_3 H 0.0497 0.5835 0.3321
C21_3 C 0.0946(5) 0.8806(12) 0.2697(6)
H11_3 H 0.0952 0.9767 0.2794
C22_3 C 0.1242(5) 0.8249(13) 0.2090(6)
H12_3 H 0.1441 0.8862 0.1779
C23_3 C 0.0978(5) 0.6036(13) 0.2393(7)
H13_3 H 0.0988 0.5077 0.2294
N3_3 N 0.1259(4) 0.6880(11) 0.1929(5)
C24_3 C 0.0290(4) 0.8482(11) 0.3783(5)
O17 O 0.0597(3) 0.7714(8) 0.6930(4)
O4_3 O 0.1042(3) 0.8762(7) 0.9944(4)
C12_3 C 0.2253(4) 0.9514(13) 0.9923(6)
H8_3 H 0.2095 0.8797 0.9586
C15_3 C 0.0352(4) 0.7579(10) 0.7549(5)
O10_3 O 0.0613(3) 0.7434(8) 0.8243(4)
C17_3 C 0.7278(6) 0.1517(18) 0.4066(8)
H9_3 H 0.7102 0.2191 0.3712
C20_3 C 0.8140(4) 0.0238(11) 0.4645(6)
C25_3 C 0.7889(6) 0.1260(14) 0.4119(7)
H14_3 H 0.8134 0.1761 0.3808
C26_3 C 0.6923(6) 0.0780(17) 0.4535(7)
H15_3 H 0.6508 0.0983 0.4500
C2_3 C 0.9359(4) 0.7905(9) 0.1843(5)
O2_3 O 0.9891(3) 0.7634(8) 0.0736(4)
C3_3 C 0.9324(5) 0.6481(11) 0.1992(6)
H2_3 H 0.9503 0.5835 0.1679
C6_3 C 0.9054(5) 0.8806(12) 0.2303(6)
H3_3 H 0.9048 0.9767 0.2206
C7_3 C 0.8758(5) 0.8249(13) 0.2910(6)
H4_3 H 0.8559 0.8862 0.3221
C8_3 C 0.9022(5) 0.6036(13) 0.2607(7)
H5_3 H 0.9012 0.5077 0.2706
N1_3 N 0.8741(4) 0.6880(11) 0.3071(5)
C9_3 C 0.9710(4) 0.8482(11) 0.1217(5)
O14_3 O 0.8958(3) 0.8762(7) 0.5056(4)
C27_3 C 0.7747(4) 0.9514(13) 0.5077(6)
H16_3 H 0.7905 0.8797 0.5414
C28_3 C 0.8801(4) 0.9915(11) 0.4747(5)
O23 O 0.9387(3) 0.7434(8) 0.6757(4)
O1_3 O 0.9403(3) 0.7714(8) 0.8070(4)
C5_3 C 0.9648(4) 0.7579(10) 0.7451(5)
C1_4 C 0.7722(6) 0.6517(18) 0.0934(8)
H1_4 H 0.7898 0.7191 0.1288
C2_4 C 0.4359(4) 0.2905(9) 0.1843(5)
O2_4 O 0.4891(3) 0.2634(8) 0.0736(4)
C3_4 C 0.4324(5) 0.1481(11) 0.1992(6)
H2_4 H 0.4503 0.0835 0.1679
C4_4 C 0.6860(4) 0.5238(11) 0.0355(6)
C6_4 C 0.4054(5) 0.3806(12) 0.2303(6)
H3_4 H 0.4048 0.4767 0.2206
C7_4 C 0.3758(5) 0.3249(13) 0.2910(6)
H4_4 H 0.3559 0.3862 0.3221
C8_4 C 0.4022(5) 0.1036(13) 0.2607(7)
H5_4 H 0.4012 0.0077 0.2706
N1_4 N 0.3741(4) 0.1880(11) 0.3071(5)
C9_4 C 0.4710(4) 0.3482(11) 0.1217(5)
C10_4 C 0.7111(6) 0.6260(14) 0.0881(7)
H6_4 H 0.6866 0.6761 0.1192
C11_4 C 0.8077(6) 0.5780(17) 0.0465(7)
H7_4 H 0.8492 0.5983 0.0500
C13_4 C 0.6199(4) 0.4915(11) 0.0253(5)
C17_4 C 0.2278(6) 0.6517(18) 0.4066(8)
H9_4 H 0.2102 0.7191 0.3712
C18_4 C 0.5641(4) 0.2905(9) 0.3157(5)
O13_4 O 0.5109(3) 0.2634(8) 0.4264(4)
O14_4 O 0.3958(3) 0.3762(7) 0.5056(4)
C19_4 C 0.5676(5) 0.1481(11) 0.3008(6)
H10_4 H 0.5497 0.0835 0.3321
C20_4 C 0.3140(4) 0.5238(11) 0.4645(6)
C21_4 C 0.5946(5) 0.3806(12) 0.2697(6)
H11_4 H 0.5952 0.4767 0.2794
C22_4 C 0.6242(5) 0.3249(13) 0.2090(6)
H12_4 H 0.6441 0.3862 0.1779
C23_4 C 0.5978(5) 0.1036(13) 0.2393(7)
H13_4 H 0.5988 0.0077 0.2294
N3_4 N 0.6259(4) 0.1880(11) 0.1929(5)
C24_4 C 0.5290(4) 0.3482(11) 0.3783(5)
C25_4 C 0.2889(6) 0.6260(14) 0.4119(7)
H14_4 H 0.3134 0.6761 0.3808
C26_4 C 0.1923(6) 0.5780(17) 0.4535(7)
H15_4 H 0.1508 0.5983 0.4500
C27_4 C 0.2747(4) 0.4514(13) 0.5077(6)
H16_4 H 0.2905 0.3797 0.5414
C28_4 C 0.3801(4) 0.4915(11) 0.4747(5)
O17_2 O 0.5597(3) 0.2714(8) 0.6930(4)
O23_2 O 0.4387(3) 0.2434(8) 0.6757(4)
O1_4 O 0.4403(3) 0.2714(8) 0.8070(4)
O4_4 O 0.6042(3) 0.3762(7) 0.9944(4)
C5_4 C 0.4648(4) 0.2579(10) 0.7451(5)
C12_4 C 0.7253(4) 0.4514(13) 0.9923(6)
H8_4 H 0.7095 0.3797 0.9586
C15_4 C 0.5352(4) 0.2579(10) 0.7549(5)
O10_4 O 0.5613(3) 0.2434(8) 0.8243(4)
loop_
_geom_bond_atom_site_label_1
_geom_bond_atom_site_label_2
_geom_bond_site_symmetry_1
_geom_bond_site_symmetry_2
O1 C5 1_555 1_555
C5 O7 1_555 1_555
O7 Sm3 1_555 1_555
C16 O12 1_555 1_555
C2 C3 1_555 1_555
O5 C9 1_555 1_555
C3 H2 1_555 1_555
C6 C2 1_555 1_555
H3 C6 1_555 1_555
C7 C6 1_555 1_555
H4 C7 1_555 1_555
C8 C3 1_555 1_555
H5 C8 1_555 1_555
N1 C7 1_555 1_555
C9 C2 1_555 1_555
Ag2 N1 1_555 1_555
O14 Sm3 1_555 1_555
H16 C27 1_555 1_555
C28 O14 1_555 1_555
Ag5 N4 1_555 1_555
O18 Sm3 1_555 1_555
N6 Ag2 1_555 1_555
O2 C9 1_555 1_555
C8 N1 1_555 1_555
O11 Sm5 1_555 1_555
Ag2 O18 1_555 1_555
N4 C27 1_555 1_555
C17 H9 1_555 1_555
C20 C25 1_555 1_555
C25 C17 1_555 1_555
H14 C25 1_555 1_555
C26 C17 1_555 1_555
H15 C26 1_555 1_555
O3 Sm1 1_555 1_555
O4 Sm1 1_555 1_555
H8 C12 1_555 1_555
O9 C15 1_555 1_555
O10 Sm1 1_555 1_555
Ag4 N2 1_555 1_555
N2 C12 1_555 1_555
C15 O10 1_555 1_555
O8 C14 1_555 1_555
C18 C19 1_555 1_555
O13 C24 1_555 1_555
O15 C24 1_555 1_555
C19 H10 1_555 1_555
C21 C18 1_555 1_555
H11 C21 1_555 1_555
C22 C21 1_555 1_555
H12 C22 1_555 1_555
C23 C19 1_555 1_555
H13 C23 1_555 1_555
N3 Ag1 1_555 1_555
C24 C18 1_555 1_555
N5 Ag1 1_555 1_555
C22 N3 1_555 1_555
C23 N3 1_555 1_555
C1 H1 1_555 1_555
C4 C10 1_555 1_555
C10 C1 1_555 1_555
H6 C10 1_555 1_555
C11 C1 1_555 1_555
H7 C11 1_555 1_555
C14_2 O18 1_555 1_555
O8_2 C14_2 1_555 1_555
O11_2 C16_2 1_555 1_555
Ag3_2 O11_2 1_555 1_555
O11_2 Sm6 1_555 1_555
C16_2 O24 1_555 1_555
Sm5_2 O8_3 1_555 1_555
O11_3 Sm5_2 1_555 1_555
Sm1_2 O1_2 1_555 1_555
O1_2 C5_2 1_555 1_555
O3_2 Sm1_2 1_555 1_555
O4_2 Sm1_2 1_555 1_555
C5_2 O7_2 1_555 1_555
H8_2 C12_2 1_555 1_555
O7_2 Sm3_2 1_555 1_555
O9_2 C15_2 1_555 1_555
C15_2 C5_2 1_555 1_555
O10_2 Sm1_2 1_555 1_555
O12_2 Sm1_2 1_555 1_555
Sm3_2 O9_2 1_555 1_555
Ag3 N2_2 1_555 1_555
O19_2 Sm1_2 1_555 1_555
O21_2 Sm1_2 1_555 1_555
N2_2 C12_2 1_555 1_555
C15_2 O10_2 1_555 1_555
C1_2 H1_2 1_555 1_555
C2_2 C3_2 1_555 1_555
O5_2 C9_2 1_555 1_555
C3_2 H2_2 1_555 1_555
C4_2 C10_2 1_555 1_555
C6_2 C2_2 1_555 1_555
H3_2 C6_2 1_555 1_555
C7_2 C6_2 1_555 1_555
H4_2 C7_2 1_555 1_555
C8_2 C3_2 1_555 1_555
H5_2 C8_2 1_555 1_555
N1_2 C7_2 1_555 1_555
C9_2 C2_2 1_555 1_555
C10_2 C1_2 1_555 1_555
H6_2 C10_2 1_555 1_555
C11_2 C1_2 1_555 1_555
H7_2 C11_2 1_555 1_555
O6_2 C13_2 1_555 1_555
Sm3_2 O13_2 1_555 1_555
Ag2_2 N1_2 1_555 1_555
C17_2 H9_2 1_555 1_555
C18_2 C19_2 1_555 1_555
O13_2 C24_2 1_555 1_555
O14_2 Sm3_2 1_555 1_555
O15_2 C24_2 1_555 1_555
C19_2 H10_2 1_555 1_555
C20_2 C25_2 1_555 1_555
C21_2 C18_2 1_555 1_555
H11_2 C21_2 1_555 1_555
C22_2 C21_2 1_555 1_555
H12_2 C22_2 1_555 1_555
C23_2 C19_2 1_555 1_555
H13_2 C23_2 1_555 1_555
N3_2 Ag1_2 1_555 1_555
C24_2 C18_2 1_555 1_555
C25_2 C17_2 1_555 1_555
H14_2 C25_2 1_555 1_555
C26_2 C17_2 1_555 1_555
H15_2 C26_2 1_555 1_555
N4_2 C26_2 1_555 1_555
C27_2 C20_2 1_555 1_555
H16_2 C27_2 1_555 1_555
C28_2 O14_2 1_555 1_555
O16_2 C28_2 1_555 1_555
Sm5_2 O5_2 1_555 1_555
Sm6_2 O15_2 1_555 1_555
Ag3_2 N4_2 1_555 1_555
O18_2 Sm3_2 1_555 1_555
O20_2 Sm3_2 1_555 1_555
N5_2 Ag1_2 1_555 1_555
N6_2 Ag2_2 1_555 1_555
O22_2 Sm3_2 1_555 1_555
O24_2 Sm3_2 1_555 1_555
O2_2 C9_2 1_555 1_555
C4_2 C13_2 1_555 1_555
C8_2 N1_2 1_555 1_555
O6_2 Sm5_2 1_555 1_555
Ag2_2 O18_2 1_555 1_555
C20_2 C28_2 1_555 1_555
C22_2 N3_2 1_555 1_555
C23_2 N3_2 1_555 1_555
N4_2 C27_2 1_555 1_555
O16_2 Sm6_2 1_555 1_555
O11_4 C16_4 1_555 1_555
Sm6_2 O8_4 1_555 1_555
Ag5 O11_4 1_555 1_555
O11_4 Sm6_2 1_555 1_555
C14_4 O18_2 1_555 1_555
C1_3 H1_3 1_555 1_555
C4_3 C10_3 1_555 1_555
C10_3 C1_3 1_555 1_555
H6_3 C10_3 1_555 1_555
C11_3 C1_3 1_555 1_555
H7_3 C11_3 1_555 1_555
C18_3 C19_3 1_555 1_555
O13_3 C24_3 1_555 1_555
O20 C24_3 1_555 1_555
C19_3 H10_3 1_555 1_555
C21_3 C18_3 1_555 1_555
H11_3 C21_3 1_555 1_555
C22_3 C21_3 1_555 1_555
H12_3 C22_3 1_555 1_555
C23_3 C19_3 1_555 1_555
H13_3 C23_3 1_555 1_555
N3_3 Ag3 1_555 1_555
C24_3 C18_3 1_555 1_555
C22_3 N3_3 1_555 1_555
C23_3 N3_3 1_555 1_555
O4_3 Sm5 1_555 1_555
H8_3 C12_3 1_555 1_555
O17 C15_3 1_555 1_555
O10_3 Sm5 1_555 1_555
N5_2 C12_3 1_555 1_555
C15_3 O10_3 1_555 1_555
C17_3 H9_3 1_555 1_555
C20_3 C25_3 1_555 1_555
C25_3 C17_3 1_555 1_555
H14_3 C25_3 1_555 1_555
C26_3 C17_3 1_555 1_555
H15_3 C26_3 1_555 1_555
C2_3 C3_3 1_555 1_555
O19 C9_3 1_555 1_555
C3_3 H2_3 1_555 1_555
C6_3 C2_3 1_555 1_555
H3_3 C6_3 1_555 1_555
C7_3 C6_3 1_555 1_555
H4_3 C7_3 1_555 1_555
C8_3 C3_3 1_555 1_555
H5_3 C8_3 1_555 1_555
N1_3 C7_3 1_555 1_555
C9_3 C2_3 1_555 1_555
Ag3_2 N1_3 1_555 1_555
O14_3 Sm6 1_555 1_555
H16_3 C27_3 1_555 1_555
C28_3 O14_3 1_555 1_555
O23 Sm6 1_555 1_555
O2_3 C9_3 1_555 1_555
C8_3 N1_3 1_555 1_555
N6_2 C27_3 1_555 1_555
O1_3 C5_3 1_555 1_555
C5_3 O23 1_555 1_555
C1_4 H1_4 1_555 1_555
C2_4 C3_4 1_555 1_555
O19_2 C9_4 1_555 1_555
C3_4 H2_4 1_555 1_555
C4_4 C10_4 1_555 1_555
C6_4 C2_4 1_555 1_555
H3_4 C6_4 1_555 1_555
C7_4 C6_4 1_555 1_555
H4_4 C7_4 1_555 1_555
C8_4 C3_4 1_555 1_555
H5_4 C8_4 1_555 1_555
N1_4 C7_4 1_555 1_555
C9_4 C2_4 1_555 1_555
C10_4 C1_4 1_555 1_555
H6_4 C10_4 1_555 1_555
C11_4 C1_4 1_555 1_555
H7_4 C11_4 1_555 1_555
O21_2 C13_4 1_555 1_555
Sm6_2 O13_4 1_555 1_555
Ag5 N1_4 1_555 1_555
C17_4 H9_4 1_555 1_555
C18_4 C19_4 1_555 1_555
O13_4 C24_4 1_555 1_555
O14_4 Sm6_2 1_555 1_555
O20_2 C24_4 1_555 1_555
C19_4 H10_4 1_555 1_555
C20_4 C25_4 1_555 1_555
C21_4 C18_4 1_555 1_555
H11_4 C21_4 1_555 1_555
C22_4 C21_4 1_555 1_555
H12_4 C22_4 1_555 1_555
C23_4 C19_4 1_555 1_555
H13_4 C23_4 1_555 1_555
N3_4 Ag4 1_555 1_555
C24_4 C18_4 1_555 1_555
C25_4 C17_4 1_555 1_555
H14_4 C25_4 1_555 1_555
C26_4 C17_4 1_555 1_555
H15_4 C26_4 1_555 1_555
N6 C26_4 1_555 1_555
C27_4 C20_4 1_555 1_555
H16_4 C27_4 1_555 1_555
C28_4 O14_4 1_555 1_555
O22_2 C28_4 1_555 1_555
O17_2 Sm6_2 1_555 1_555
O23_2 Sm6_2 1_555 1_555
O2_4 C9_4 1_555 1_555
C4_4 C13_4 1_555 1_555
C8_4 N1_4 1_555 1_555
C20_4 C28_4 1_555 1_555
C22_4 N3_4 1_555 1_555
C23_4 N3_4 1_555 1_555
N6 C27_4 1_555 1_555
Sm5_2 O1_4 1_555 1_555
O1_4 C5_4 1_555 1_555
O4_4 Sm5_2 1_555 1_555
C5_4 O23_2 1_555 1_555
H8_4 C12_4 1_555 1_555
O17_2 C15_4 1_555 1_555
C15_4 C5_4 1_555 1_555
O10_4 Sm5_2 1_555 1_555
N5 C12_4 1_555 1_555
C15_4 O10_4 1_555 1_555

#END
