
###############################################################################
#
# This file contains modified crystal structure data generated from the
# MOF subset of the Cambridge Structural Database (CSD) v543 
# hosted by the Cambridge Crystallographic Data Centre (CCDC).
#
# This work is licensed under the Creative Commons
# Attribution-NonCommercial-ShareAlike 4.0 International License.
# To view a copy of this license, visit
# http://creativecommons.org/licenses/by-nc-sa/4.0/
# or send a letter to
# Creative Commons, PO Box 1866, Mountain View, CA 94042, USA.
#
# CIF created using the CSD Python API on 29 September 2022
# The structure has been converted into the P1 space group
# The structure has a 3D framework
# The original CSD entry GOYYEA is in the monoclinic crystal system
# The framework has been calculated to contain at least 10.0% void space
# The void calculation uses a probe of radius 1.32A, grid spacing 0.4
#
###############################################################################

data_GOYYEA
_chemical_formula_moiety         '(C112 H64 Ag4 N16 O57 Y8)n'
_symmetry_cell_setting           triclinic
_symmetry_space_group_name_H-M   'P 1'
_symmetry_Int_Tables_number      1
_space_group_name_Hall           'P 1'
loop_
_symmetry_equiv_pos_site_id
_symmetry_equiv_pos_as_xyz
1 x,y,z
_cell_length_a                   22.075(7)
_cell_length_b                   9.446(3)
_cell_length_c                   16.685(5)
_cell_angle_alpha                90
_cell_angle_beta                 96.828(4)
_cell_angle_gamma                90
_cell_volume                     3454.49
loop_
_atom_site_label
_atom_site_type_symbol
_atom_site_fract_x
_atom_site_fract_y
_atom_site_fract_z
Ag1 Ag 0.15893(3) 0.12394(10) 0.08118(4)
N5 N 0.1272(3) 0.1944(9) 0.1928(4)
N7 N 0.2168(3) 0.0255(9) 0.0005(4)
O6 O 0.0637(2) 0.0984(5) 0.9806(3)
Y4 Y 0.00450(3) 0.29856(7) 0.93404(4)
O1 O 0.0596(2) 0.7308(6) 0.1916(3)
O2 O 0.0576(2) 0.9068(5) 0.0578(3)
C3 C 0.0344(3) 0.9991(7) 0.0107(4)
C5 C 0.0348(3) 0.7431(8) 0.2548(4)
O4 O 0.0616(2) 0.7569(6) 0.3258(3)
O7 O 0.0834(2) 0.5876(6) 0.0458(3)
C9 C 0.1173(3) 0.4933(8) 0.0240(4)
C10 C 0.1838(3) 0.5245(9) 0.0367(4)
C12 C 0.2089(4) 0.6310(10) 0.0879(5)
H6 H 0.1838 0.6857 0.1166
C13 C 0.3051(4) 0.5765(13) 0.0494(6)
H7 H 0.3467 0.5959 0.0530
C14 C 0.2705(4) 0.6552(10) 0.0962(6)
H8 H 0.2883 0.7227 0.1322
Y2 Y 0.00450(3) 0.70144(7) 0.43404(4)
O19 O 0.0184(2) 0.4843(6) 0.3776(3)
O21 O 0.0637(2) 0.9016(5) 0.4806(3)
O23 O 0.1005(2) 0.6222(6) 0.4930(3)
C1 C 0.0642(3) 0.7052(8) 0.8155(4)
O3 O 0.0071(2) 0.7315(6) 0.9266(3)
C2 C 0.0669(3) 0.8498(9) 0.7999(4)
H1 H 0.0480 0.9146 0.8307
C4 C 0.0958(4) 0.6148(9) 0.7706(5)
H2 H 0.0962 0.5179 0.7805
C6 C 0.0981(4) 0.8945(10) 0.7379(5)
H3 H 0.0990 0.9909 0.7268
C7 C 0.0261(3) 0.6469(9) 0.8789(4)
C8 C 0.1267(4) 0.6701(10) 0.7112(5)
H4 H 0.1486 0.6082 0.6823
N1 N 0.1272(3) 0.8056(9) 0.6928(4)
O5 O 0.0184(2) 0.5157(6) 0.8776(3)
O8 O 0.1005(2) 0.3778(6) 0.9930(3)
C11 C 0.2235(3) 0.4482(9) 0.9932(5)
H5 H 0.2076 0.3766 0.9586
N2 N 0.2832(3) 0.4745(9) 0.9995(4)
Ag2 Ag 0.15893(3) 0.87606(10) 0.58118(4)
Ag5 Ag 0.34107(3) 0.37606(10) 0.91882(4)
N6 N 0.2168(3) 0.9745(9) 0.5005(4)
O11 O 0.9424(2) 0.0932(5) 0.9422(3)
C16 C 0.9656(3) 0.0009(7) 0.9893(4)
Y1 Y 0.99550(3) 0.70144(7) 0.06596(4)
O9 O 0.9404(2) 0.7308(6) 0.3084(3)
C15 C 0.9652(3) 0.7431(8) 0.2452(4)
O10 O 0.9384(2) 0.7569(6) 0.1742(3)
O12 O 0.9363(2) 0.9016(5) 0.0194(3)
C17 C 0.9358(3) 0.7052(8) 0.6845(4)
O13 O 0.9929(2) 0.7315(6) 0.5734(3)
C18 C 0.9331(3) 0.8498(9) 0.7001(4)
H9 H 0.9520 0.9146 0.6693
C19 C 0.9042(4) 0.6148(9) 0.7294(5)
H10 H 0.9038 0.5179 0.7195
C20 C 0.9019(4) 0.8945(10) 0.7621(5)
H11 H 0.9010 0.9909 0.7732
C21 C 0.9739(3) 0.6469(9) 0.6211(4)
C22 C 0.8733(4) 0.6701(10) 0.7888(5)
H12 H 0.8514 0.6082 0.8177
N3 N 0.8728(3) 0.8056(9) 0.8072(4)
O14 O 0.9816(2) 0.5157(6) 0.6224(3)
O15 O 0.9166(2) 0.5876(6) 0.4542(3)
C23 C 0.8827(3) 0.4933(8) 0.4760(4)
O16 O 0.8995(2) 0.3778(6) 0.5070(3)
C24 C 0.8162(3) 0.5245(9) 0.4633(4)
C25 C 0.7765(3) 0.4482(9) 0.5068(5)
H13 H 0.7924 0.3766 0.5414
N4 N 0.7168(3) 0.4745(9) 0.5005(4)
C26 C 0.7911(4) 0.6310(10) 0.4121(5)
H14 H 0.8162 0.6857 0.3834
C27 C 0.6949(4) 0.5765(13) 0.4506(6)
H15 H 0.6533 0.5959 0.4470
C28 C 0.7295(4) 0.6552(10) 0.4038(6)
H16 H 0.7117 0.7227 0.3678
Y5 Y 0.99550(3) 0.29856(7) 0.56596(4)
O17 O 0.9424(2) 0.9068(5) 0.4422(3)
Ag4 Ag 0.84107(3) 0.87606(10) 0.91882(4)
Ag6 Ag 0.65893(3) 0.37606(10) 0.58118(4)
O18 O 0.9816(2) 0.4843(6) 0.1224(3)
O22 O 0.8995(2) 0.6222(6) 0.0070(3)
O11_2 O 0.0576(2) 0.0932(5) 0.5578(3)
C16_2 C 0.0344(3) 0.0009(7) 0.5107(4)
Ag1_2 Ag 0.84107(3) 0.12394(10) 0.41882(4)
O6_2 O 0.9363(2) 0.0984(5) 0.5194(3)
N5_2 N 0.8728(3) 0.1944(9) 0.3072(4)
N7_2 N 0.7832(3) 0.0255(9) 0.4995(4)
C3_2 C 0.9656(3) 0.9991(7) 0.4893(4)
N6_2 N 0.7832(3) 0.9745(9) 0.9995(4)
Y1_2 Y 0.49550(3) 0.20144(7) 0.06596(4)
O1_2 O 0.5596(2) 0.2308(6) 0.1916(3)
O2_2 O 0.5576(2) 0.4068(5) 0.0578(3)
C3_3 C 0.5344(3) 0.4991(7) 0.0107(4)
C5_2 C 0.5348(3) 0.2431(8) 0.2548(4)
O4_2 O 0.5616(2) 0.2569(6) 0.3258(3)
Ag1_3 Ag 0.65893(3) 0.62394(10) 0.08118(4)
O7_2 O 0.5834(2) 0.0876(6) 0.0458(3)
C10_2 C 0.6838(3) 0.0245(9) 0.0367(4)
C12_2 C 0.7089(4) 0.1310(10) 0.0879(5)
H6_2 H 0.6838 0.1857 0.1166
C13_2 C 0.8051(4) 0.0765(13) 0.0494(6)
H7_2 H 0.8467 0.0959 0.0530
C14_2 C 0.7705(4) 0.1552(10) 0.0962(6)
H8_2 H 0.7883 0.2227 0.1322
O9_2 O 0.4404(2) 0.2308(6) 0.3084(3)
C15_2 C 0.4652(3) 0.2431(8) 0.2452(4)
O10_2 O 0.4384(2) 0.2569(6) 0.1742(3)
O12_2 O 0.4363(2) 0.4016(5) 0.0194(3)
Y2_2 Y 0.50450(3) 0.20144(7) 0.43404(4)
C17_2 C 0.4358(3) 0.2052(8) 0.6845(4)
O13_2 O 0.4929(2) 0.2315(6) 0.5734(3)
C18_2 C 0.4331(3) 0.3498(9) 0.7001(4)
H9_2 H 0.4520 0.4146 0.6693
C19_2 C 0.4042(4) 0.1148(9) 0.7294(5)
H10_2 H 0.4038 0.0179 0.7195
C20_2 C 0.4019(4) 0.3945(10) 0.7621(5)
H11_2 H 0.4010 0.4909 0.7732
C21_2 C 0.4739(3) 0.1469(9) 0.6211(4)
C22_2 C 0.3733(4) 0.1701(10) 0.7888(5)
H12_2 H 0.3514 0.1082 0.8177
N3_2 N 0.3728(3) 0.3056(9) 0.8072(4)
O14_2 O 0.4816(2) 0.0157(6) 0.6224(3)
O15_2 O 0.4166(2) 0.0876(6) 0.4542(3)
C24_2 C 0.3162(3) 0.0245(9) 0.4633(4)
C26_2 C 0.2911(4) 0.1310(10) 0.4121(5)
H14_2 H 0.3162 0.1857 0.3834
C27_2 C 0.1949(4) 0.0765(13) 0.4506(6)
H15_2 H 0.1533 0.0959 0.4470
C28_2 C 0.2295(4) 0.1552(10) 0.4038(6)
H16_2 H 0.2117 0.2227 0.3678
O17_2 O 0.4424(2) 0.4068(5) 0.4422(3)
N5_3 N 0.6272(3) 0.6944(9) 0.1928(4)
O21_2 O 0.5637(2) 0.4016(5) 0.4806(3)
O22_2 O 0.3995(2) 0.1222(6) 0.0070(3)
O23_2 O 0.6005(2) 0.1222(6) 0.4930(3)
N7_3 N 0.7168(3) 0.5255(9) 0.0005(4)
C1_2 C 0.5642(3) 0.2052(8) 0.8155(4)
O3_2 O 0.5071(2) 0.2315(6) 0.9266(3)
C2_2 C 0.5669(3) 0.3498(9) 0.7999(4)
H1_2 H 0.5480 0.4146 0.8307
C4_2 C 0.5958(4) 0.1148(9) 0.7706(5)
H2_2 H 0.5962 0.0179 0.7805
C6_2 C 0.5981(4) 0.3945(10) 0.7379(5)
H3_2 H 0.5990 0.4909 0.7268
C7_2 C 0.5261(3) 0.1469(9) 0.8789(4)
C8_2 C 0.6267(4) 0.1701(10) 0.7112(5)
H4_2 H 0.6486 0.1082 0.6823
N1_2 N 0.6272(3) 0.3056(9) 0.6928(4)
O5_2 O 0.5184(2) 0.0157(6) 0.8776(3)
O6_3 O 0.5637(2) 0.5984(5) 0.9806(3)
O11_3 O 0.4424(2) 0.5932(5) 0.9422(3)
C16_3 C 0.4656(3) 0.5009(7) 0.9893(4)
Y4_2 Y 0.50450(3) 0.79856(7) 0.93404(4)
C9_2 C 0.6173(3) 0.9933(8) 0.0240(4)
C23_2 C 0.3827(3) 0.9933(8) 0.4760(4)
O16_2 O 0.3995(2) 0.8778(6) 0.5070(3)
C25_2 C 0.2765(3) 0.9482(9) 0.5068(5)
H13_2 H 0.2924 0.8766 0.5414
Y5_2 Y 0.49550(3) 0.79856(7) 0.56596(4)
O18_2 O 0.4816(2) 0.9843(6) 0.1224(3)
O19_2 O 0.5184(2) 0.9843(6) 0.3776(3)
O8_2 O 0.6005(2) 0.8778(6) 0.9930(3)
C11_2 C 0.7235(3) 0.9482(9) 0.9932(5)
H5_2 H 0.7076 0.8766 0.9586
C3_4 C 0.4656(3) 0.4991(7) 0.4893(4)
Ag1_4 Ag 0.34107(3) 0.62394(10) 0.41882(4)
O6_4 O 0.4363(2) 0.5984(5) 0.5194(3)
O11_4 O 0.5576(2) 0.5932(5) 0.5578(3)
C16_4 C 0.5344(3) 0.5009(7) 0.5107(4)
N5_4 N 0.3728(3) 0.6944(9) 0.3072(4)
N7_4 N 0.2832(3) 0.5255(9) 0.4995(4)
O9_3 O 0.0596(2) 0.2692(6) 0.6916(3)
C15_3 C 0.0348(3) 0.2569(8) 0.7548(4)
O10_3 O 0.0616(2) 0.2431(6) 0.8258(3)
C17_3 C 0.0642(3) 0.2948(8) 0.3155(4)
O13_3 O 0.0071(2) 0.2685(6) 0.4266(3)
C18_3 C 0.0669(3) 0.1502(9) 0.2999(4)
H9_3 H 0.0480 0.0854 0.3307
C19_3 C 0.0958(4) 0.3852(9) 0.2706(5)
H10_3 H 0.0962 0.4821 0.2805
C20_3 C 0.0981(4) 0.1055(10) 0.2379(5)
H11_3 H 0.0990 0.0091 0.2268
C21_3 C 0.0261(3) 0.3531(9) 0.3789(4)
C22_3 C 0.1267(4) 0.3299(10) 0.2112(5)
H12_3 H 0.1486 0.3918 0.1823
O15_3 O 0.0834(2) 0.4124(6) 0.5458(3)
C23_3 C 0.1173(3) 0.5067(8) 0.5240(4)
C24_3 C 0.1838(3) 0.4755(9) 0.5367(4)
C25_3 C 0.2235(3) 0.5518(9) 0.4932(5)
H13_3 H 0.2076 0.6234 0.4586
C26_3 C 0.2089(4) 0.3690(10) 0.5879(5)
H14_3 H 0.1838 0.3143 0.6166
C27_3 C 0.3051(4) 0.4235(13) 0.5494(6)
H15_3 H 0.3467 0.4041 0.5530
C28_3 C 0.2705(4) 0.3448(10) 0.5962(6)
H16_3 H 0.2883 0.2773 0.6322
C1_3 C 0.9358(3) 0.2948(8) 0.1845(4)
O3_3 O 0.9929(2) 0.2685(6) 0.0734(3)
C2_3 C 0.9331(3) 0.1502(9) 0.2001(4)
H1_3 H 0.9520 0.0854 0.1693
C4_3 C 0.9042(4) 0.3852(9) 0.2294(5)
H2_3 H 0.9038 0.4821 0.2195
C6_3 C 0.9019(4) 0.1055(10) 0.2621(5)
H3_3 H 0.9010 0.0091 0.2732
C7_3 C 0.9739(3) 0.3531(9) 0.1211(4)
C8_3 C 0.8733(4) 0.3299(10) 0.2888(5)
H4_3 H 0.8514 0.3918 0.3177
C11_3 C 0.7765(3) 0.5518(9) 0.0068(5)
H5_3 H 0.7924 0.6234 0.0414
O1_3 O 0.9404(2) 0.2692(6) 0.8084(3)
C5_3 C 0.9652(3) 0.2569(8) 0.7452(4)
O4_3 O 0.9384(2) 0.2431(6) 0.6742(3)
O7_3 O 0.9166(2) 0.4124(6) 0.9542(3)
C9_3 C 0.8827(3) 0.5067(8) 0.9760(4)
C10_3 C 0.8162(3) 0.4755(9) 0.9633(4)
C12_3 C 0.7911(4) 0.3690(10) 0.9121(5)
H6_3 H 0.8162 0.3143 0.8834
C13_3 C 0.6949(4) 0.4235(13) 0.9506(6)
H7_3 H 0.6533 0.4041 0.9470
C14_3 C 0.7295(4) 0.3448(10) 0.9038(6)
H8_3 H 0.7117 0.2773 0.8678
C11_4 C 0.2765(3) 0.0518(9) 0.0068(5)
H5_4 H 0.2924 0.1234 0.0414
C9_4 C 0.3827(3) 0.0067(8) 0.9760(4)
C23_4 C 0.6173(3) 0.0067(8) 0.5240(4)
C25_4 C 0.7235(3) 0.0518(9) 0.4932(5)
H13_4 H 0.7076 0.1234 0.4586
C1_4 C 0.4358(3) 0.7948(8) 0.1845(4)
O3_4 O 0.4929(2) 0.7685(6) 0.0734(3)
C2_4 C 0.4331(3) 0.6502(9) 0.2001(4)
H1_4 H 0.4520 0.5854 0.1693
C4_4 C 0.4042(4) 0.8852(9) 0.2294(5)
H2_4 H 0.4038 0.9821 0.2195
C6_4 C 0.4019(4) 0.6055(10) 0.2621(5)
H3_4 H 0.4010 0.5091 0.2732
C7_4 C 0.4739(3) 0.8531(9) 0.1211(4)
C8_4 C 0.3733(4) 0.8299(10) 0.2888(5)
H4_4 H 0.3514 0.8918 0.3177
O1_4 O 0.4404(2) 0.7692(6) 0.8084(3)
C5_4 C 0.4652(3) 0.7569(8) 0.7452(4)
O4_4 O 0.4384(2) 0.7431(6) 0.6742(3)
O7_4 O 0.4166(2) 0.9124(6) 0.9542(3)
C10_4 C 0.3162(3) 0.9755(9) 0.9633(4)
C12_4 C 0.2911(4) 0.8690(10) 0.9121(5)
H6_4 H 0.3162 0.8143 0.8834
C13_4 C 0.1949(4) 0.9235(13) 0.9506(6)
H7_4 H 0.1533 0.9041 0.9470
C14_4 C 0.2295(4) 0.8448(10) 0.9038(6)
H8_4 H 0.2117 0.7773 0.8678
O9_4 O 0.5596(2) 0.7692(6) 0.6916(3)
C15_4 C 0.5348(3) 0.7569(8) 0.7548(4)
O10_4 O 0.5616(2) 0.7431(6) 0.8258(3)
C17_4 C 0.5642(3) 0.7948(8) 0.3155(4)
O13_4 O 0.5071(2) 0.7685(6) 0.4266(3)
C18_4 C 0.5669(3) 0.6502(9) 0.2999(4)
H9_4 H 0.5480 0.5854 0.3307
C19_4 C 0.5958(4) 0.8852(9) 0.2706(5)
H10_4 H 0.5962 0.9821 0.2805
C20_4 C 0.5981(4) 0.6055(10) 0.2379(5)
H11_4 H 0.5990 0.5091 0.2268
C21_4 C 0.5261(3) 0.8531(9) 0.3789(4)
C22_4 C 0.6267(4) 0.8299(10) 0.2112(5)
H12_4 H 0.6486 0.8918 0.1823
O15_4 O 0.5834(2) 0.9124(6) 0.5458(3)
C24_4 C 0.6838(3) 0.9755(9) 0.5367(4)
C26_4 C 0.7089(4) 0.8690(10) 0.5879(5)
H14_4 H 0.6838 0.8143 0.6166
C27_4 C 0.8051(4) 0.9235(13) 0.5494(6)
H15_4 H 0.8467 0.9041 0.5530
C28_4 C 0.7705(4) 0.8448(10) 0.5962(6)
H16_4 H 0.7883 0.7773 0.6322
loop_
_geom_bond_atom_site_label_1
_geom_bond_atom_site_label_2
_geom_bond_site_symmetry_1
_geom_bond_site_symmetry_2
N5 Ag1 1_555 1_555
N7 Ag1 1_555 1_555
Y4 O6 1_555 1_555
O1 C5 1_555 1_555
C3 O2 1_555 1_555
C5 O4 1_555 1_555
O4 Y2 1_555 1_555
C9 O7 1_555 1_555
C10 C9 1_555 1_555
C12 C10 1_555 1_555
H6 C12 1_555 1_555
H7 C13 1_555 1_555
C14 C12 1_555 1_555
H8 C14 1_555 1_555
O19 Y2 1_555 1_555
O21 Y2 1_555 1_555
O23 Y2 1_555 1_555
C13 C14 1_555 1_555
C1 C2 1_555 1_555
C2 H1 1_555 1_555
C4 C1 1_555 1_555
H2 C4 1_555 1_555
C6 C2 1_555 1_555
H3 C6 1_555 1_555
C7 C1 1_555 1_555
C8 C4 1_555 1_555
H4 C8 1_555 1_555
N1 C6 1_555 1_555
O5 C7 1_555 1_555
H5 C11 1_555 1_555
N2 C11 1_555 1_555
Ag2 N1 1_555 1_555
Y4 O5 1_555 1_555
Ag5 N2 1_555 1_555
O21 Ag2 1_555 1_555
N6 Ag2 1_555 1_555
O3 C7 1_555 1_555
C8 N1 1_555 1_555
O8 Y4 1_555 1_555
O11 C16 1_555 1_555
O9 C15 1_555 1_555
O10 Y1 1_555 1_555
O12 Y1 1_555 1_555
C17 C18 1_555 1_555
C18 H9 1_555 1_555
C19 C17 1_555 1_555
H10 C19 1_555 1_555
C20 C18 1_555 1_555
H11 C20 1_555 1_555
C21 C17 1_555 1_555
C22 C19 1_555 1_555
H12 C22 1_555 1_555
N3 C20 1_555 1_555
O14 C21 1_555 1_555
C23 O15 1_555 1_555
O16 C23 1_555 1_555
C24 C23 1_555 1_555
C25 C24 1_555 1_555
H13 C25 1_555 1_555
N4 C25 1_555 1_555
C26 C24 1_555 1_555
H14 C26 1_555 1_555
C27 N4 1_555 1_555
H15 C27 1_555 1_555
C28 C26 1_555 1_555
H16 C28 1_555 1_555
Y5 O14 1_555 1_555
Ag4 N3 1_555 1_555
Ag6 N4 1_555 1_555
O18 Y1 1_555 1_555
O22 Y1 1_555 1_555
C15 O10 1_555 1_555
O13 C21 1_555 1_555
C22 N3 1_555 1_555
O16 Y5 1_555 1_555
C27 C28 1_555 1_555
O11_2 C16_2 1_555 1_555
Ag1_2 O6_2 1_555 1_555
Y5 O6_2 1_555 1_555
N5_2 Ag1_2 1_555 1_555
N7_2 Ag1_2 1_555 1_555
C3_2 O17 1_555 1_555
N6_2 Ag4 1_555 1_555
Y1_2 O1_2 1_555 1_555
O1_2 C5_2 1_555 1_555
O2_2 Y1_2 1_555 1_555
C3_3 O2_2 1_555 1_555
C5_2 O4_2 1_555 1_555
O4_2 Y2_2 1_555 1_555
O7_2 Y1_2 1_555 1_555
C12_2 C10_2 1_555 1_555
H6_2 C12_2 1_555 1_555
H7_2 C13_2 1_555 1_555
C14_2 C12_2 1_555 1_555
H8_2 C14_2 1_555 1_555
O9_2 C15_2 1_555 1_555
C15_2 C5_2 1_555 1_555
O10_2 Y1_2 1_555 1_555
O12_2 Y1_2 1_555 1_555
Y2_2 O9_2 1_555 1_555
C17_2 C18_2 1_555 1_555
O13_2 Y2_2 1_555 1_555
C18_2 H9_2 1_555 1_555
C19_2 C17_2 1_555 1_555
H10_2 C19_2 1_555 1_555
C20_2 C18_2 1_555 1_555
H11_2 C20_2 1_555 1_555
C21_2 C17_2 1_555 1_555
C22_2 C19_2 1_555 1_555
H12_2 C22_2 1_555 1_555
N3_2 C20_2 1_555 1_555
O14_2 C21_2 1_555 1_555
O15_2 Y2_2 1_555 1_555
C26_2 C24_2 1_555 1_555
H14_2 C26_2 1_555 1_555
H15_2 C27_2 1_555 1_555
C28_2 C26_2 1_555 1_555
H16_2 C28_2 1_555 1_555
O17_2 Y2_2 1_555 1_555
Ag5 N3_2 1_555 1_555
N5_3 Ag1_3 1_555 1_555
O21_2 Y2_2 1_555 1_555
O22_2 Y1_2 1_555 1_555
O23_2 Y2_2 1_555 1_555
N7_3 Ag1_3 1_555 1_555
C13_2 C14_2 1_555 1_555
C15_2 O10_2 1_555 1_555
O13_2 C21_2 1_555 1_555
C22_2 N3_2 1_555 1_555
C27_2 C28_2 1_555 1_555
C1_2 C2_2 1_555 1_555
C2_2 H1_2 1_555 1_555
C4_2 C1_2 1_555 1_555
H2_2 C4_2 1_555 1_555
C6_2 C2_2 1_555 1_555
H3_2 C6_2 1_555 1_555
C7_2 C1_2 1_555 1_555
C8_2 C4_2 1_555 1_555
H4_2 C8_2 1_555 1_555
N1_2 C6_2 1_555 1_555
O5_2 C7_2 1_555 1_555
O11_3 C16_3 1_555 1_555
Ag6 N1_2 1_555 1_555
Y4_2 O6_3 1_555 1_555
O21_2 Ag6 1_555 1_555
O3_2 C7_2 1_555 1_555
C8_2 N1_2 1_555 1_555
O11_3 Y4_2 1_555 1_555
O16_2 C23_2 1_555 1_555
H13_2 C25_2 1_555 1_555
N6 C25_2 1_555 1_555
O16_2 Y5_2 1_555 1_555
H5_2 C11_2 1_555 1_555
N6_2 C11_2 1_555 1_555
O8_2 Y4_2 1_555 1_555
C3_4 O17_2 1_555 1_555
Ag1_4 O6_4 1_555 1_555
O6_4 C3_4 1_555 1_555
O11_4 C16_4 1_555 1_555
C16_4 C3_4 1_555 1_555
Y5_2 O6_4 1_555 1_555
N5_4 Ag1_4 1_555 1_555
N7_4 Ag1_4 1_555 1_555
O11_4 Y5_2 1_555 1_555
C16_4 O21_2 1_555 1_555
O9_3 C15_3 1_555 1_555
O10_3 Y4 1_555 1_555
C17_3 C18_3 1_555 1_555
C18_3 H9_3 1_555 1_555
C19_3 C17_3 1_555 1_555
H10_3 C19_3 1_555 1_555
C20_3 C18_3 1_555 1_555
H11_3 C20_3 1_555 1_555
C21_3 C17_3 1_555 1_555
C22_3 C19_3 1_555 1_555
H12_3 C22_3 1_555 1_555
N5 C20_3 1_555 1_555
O19 C21_3 1_555 1_555
C23_3 O15_3 1_555 1_555
O23 C23_3 1_555 1_555
C24_3 C23_3 1_555 1_555
C25_3 C24_3 1_555 1_555
H13_3 C25_3 1_555 1_555
N7_4 C25_3 1_555 1_555
C26_3 C24_3 1_555 1_555
H14_3 C26_3 1_555 1_555
C27_3 N7_4 1_555 1_555
H15_3 C27_3 1_555 1_555
C28_3 C26_3 1_555 1_555
H16_3 C28_3 1_555 1_555
C15_3 O10_3 1_555 1_555
O13_3 C21_3 1_555 1_555
C22_3 N5 1_555 1_555
C27_3 C28_3 1_555 1_555
C1_3 C2_3 1_555 1_555
C2_3 H1_3 1_555 1_555
C4_3 C1_3 1_555 1_555
H2_3 C4_3 1_555 1_555
C6_3 C2_3 1_555 1_555
H3_3 C6_3 1_555 1_555
C7_3 C1_3 1_555 1_555
C8_3 C4_3 1_555 1_555
H4_3 C8_3 1_555 1_555
N5_2 C6_3 1_555 1_555
O18 C7_3 1_555 1_555
H5_3 C11_3 1_555 1_555
N7_3 C11_3 1_555 1_555
O3_3 C7_3 1_555 1_555
C8_3 N5_2 1_555 1_555
O1_3 C5_3 1_555 1_555
C5_3 O4_3 1_555 1_555
O4_3 Y5 1_555 1_555
C9_3 O7_3 1_555 1_555
C10_3 C9_3 1_555 1_555
C12_3 C10_3 1_555 1_555
H6_3 C12_3 1_555 1_555
H7_3 C13_3 1_555 1_555
C14_3 C12_3 1_555 1_555
H8_3 C14_3 1_555 1_555
C13_3 C14_3 1_555 1_555
H5_4 C11_4 1_555 1_555
N7 C11_4 1_555 1_555
O23_2 C23_4 1_555 1_555
H13_4 C25_4 1_555 1_555
N7_2 C25_4 1_555 1_555
C1_4 C2_4 1_555 1_555
C2_4 H1_4 1_555 1_555
C4_4 C1_4 1_555 1_555
H2_4 C4_4 1_555 1_555
C6_4 C2_4 1_555 1_555
H3_4 C6_4 1_555 1_555
C7_4 C1_4 1_555 1_555
C8_4 C4_4 1_555 1_555
H4_4 C8_4 1_555 1_555
N5_4 C6_4 1_555 1_555
O18_2 C7_4 1_555 1_555
O3_4 C7_4 1_555 1_555
C8_4 N5_4 1_555 1_555
Y4_2 O1_4 1_555 1_555
O1_4 C5_4 1_555 1_555
C5_4 O4_4 1_555 1_555
O4_4 Y5_2 1_555 1_555
O7_4 Y4_2 1_555 1_555
C12_4 C10_4 1_555 1_555
H6_4 C12_4 1_555 1_555
H7_4 C13_4 1_555 1_555
C14_4 C12_4 1_555 1_555
H8_4 C14_4 1_555 1_555
O9_4 C15_4 1_555 1_555
C15_4 C5_4 1_555 1_555
O10_4 Y4_2 1_555 1_555
Y5_2 O9_4 1_555 1_555
C17_4 C18_4 1_555 1_555
O13_4 Y5_2 1_555 1_555
C18_4 H9_4 1_555 1_555
C19_4 C17_4 1_555 1_555
H10_4 C19_4 1_555 1_555
C20_4 C18_4 1_555 1_555
H11_4 C20_4 1_555 1_555
C21_4 C17_4 1_555 1_555
C22_4 C19_4 1_555 1_555
H12_4 C22_4 1_555 1_555
N5_3 C20_4 1_555 1_555
O19_2 C21_4 1_555 1_555
O15_4 Y5_2 1_555 1_555
C26_4 C24_4 1_555 1_555
H14_4 C26_4 1_555 1_555
H15_4 C27_4 1_555 1_555
C28_4 C26_4 1_555 1_555
H16_4 C28_4 1_555 1_555
C13_4 C14_4 1_555 1_555
C15_4 O10_4 1_555 1_555
O13_4 C21_4 1_555 1_555
C22_4 N5_3 1_555 1_555
C27_4 C28_4 1_555 1_555

#END
