
###############################################################################
#
# This file contains modified crystal structure data generated from the
# MOF subset of the Cambridge Structural Database (CSD) v543 
# hosted by the Cambridge Crystallographic Data Centre (CCDC).
#
# This work is licensed under the Creative Commons
# Attribution-NonCommercial-ShareAlike 4.0 International License.
# To view a copy of this license, visit
# http://creativecommons.org/licenses/by-nc-sa/4.0/
# or send a letter to
# Creative Commons, PO Box 1866, Mountain View, CA 94042, USA.
#
# CIF created using the CSD Python API on 29 September 2022
# The structure has been converted into the P1 space group
# The structure has a 3D framework
# The original CSD entry GOYYIE is in the monoclinic crystal system
# The framework has been calculated to contain at least 10.0% void space
# The void calculation uses a probe of radius 1.32A, grid spacing 0.4
#
###############################################################################

data_GOYYIE
_chemical_formula_moiety         '(C112 H64 Ag4 N16 O53 Yb8)n'
_symmetry_cell_setting           triclinic
_symmetry_space_group_name_H-M   'P 1'
_symmetry_Int_Tables_number      1
_space_group_name_Hall           'P 1'
loop_
_symmetry_equiv_pos_site_id
_symmetry_equiv_pos_as_xyz
1 x,y,z
_cell_length_a                   22.090(10)
_cell_length_b                   9.378(4)
_cell_length_c                   16.508(7)
_cell_angle_alpha                90
_cell_angle_beta                 96.735(6)
_cell_angle_gamma                90
_cell_volume                     3396.2
loop_
_atom_site_label
_atom_site_type_symbol
_atom_site_fract_x
_atom_site_fract_y
_atom_site_fract_z
Yb1 Yb 0.504701(12) 0.29790(3) 0.434098(15)
O1 O 0.4817(2) 0.4859(5) 0.6240(3)
C1 C 0.3167(3) 0.4743(8) 0.4639(4)
C2 C 0.4357(3) 0.2960(8) 0.6837(4)
O2 O 0.4011(2) 0.6239(5) 0.5085(3)
O3 O 0.4192(2) 0.4102(5) 0.4551(3)
O4 O 0.4952(2) 0.2716(5) 0.5725(2)
C3 C 0.4738(3) 0.3560(6) 0.6212(4)
O5 O 0.4416(2) 0.0966(5) 0.4443(3)
C4 C 0.4326(4) 0.1484(8) 0.6997(5)
H1 H 0.4508 0.0825 0.6681
C5 C 0.3833(2) 0.5037(6) 0.4762(3)
C6 C 0.2766(3) 0.5512(8) 0.5054(4)
H2 H 0.2923 0.6250 0.5392
C7 C 0.1946(4) 0.4261(10) 0.4467(5)
H3 H 0.1527 0.4111 0.4387
N1 N 0.2171(3) 0.5259(8) 0.4999(4)
C8 C 0.2325(4) 0.3433(9) 0.4027(5)
H4 H 0.2157 0.2736 0.3667
C9 C 0.2929(4) 0.3652(9) 0.4127(5)
H5 H 0.3186 0.3081 0.3858
C10 C 0.3728(3) 0.3307(8) 0.7885(4)
H6 H 0.3499 0.3932 0.8163
N2 N 0.3727(3) 0.1928(7) 0.8076(4)
C12 C 0.4022(3) 0.1049(9) 0.7627(4)
H7 H 0.4021 0.0081 0.7750
O7 O 0.5613(2) 0.2424(5) 0.3258(3)
C13 C 0.4053(3) 0.3847(8) 0.7291(4)
H8 H 0.4063 0.4826 0.7203
O8 O 0.5594(2) 0.2672(5) 0.1907(3)
C14 C 0.5348(3) 0.2594(7) 0.2551(4)
O10 O 0.5631(2) 0.0986(5) 0.4792(3)
C15 C 0.5338(3) 0.0006(7) 0.5100(4)
O11 O 0.4387(2) 0.2424(5) 0.1742(3)
O12 O 0.4406(2) 0.2672(5) 0.3093(3)
C16 C 0.4652(3) 0.2594(7) 0.2449(4)
Yb2 Yb 0.495299(12) 0.29790(3) 0.065902(15)
C17 C 0.6833(3) 0.4743(8) 0.0361(4)
O15 O 0.5808(2) 0.4102(5) 0.0449(3)
C21 C 0.6167(2) 0.5037(6) 0.0238(3)
C23 C 0.8054(4) 0.4261(10) 0.0533(5)
H11 H 0.8473 0.4111 0.0613
N3 N 0.7829(3) 0.5259(8) 0.0001(4)
C24 C 0.7675(4) 0.3433(9) 0.0973(5)
H12 H 0.7843 0.2736 0.1333
C25 C 0.7071(4) 0.3652(9) 0.0873(5)
H13 H 0.6814 0.3081 0.1142
Ag2 Ag 0.15902(3) 0.62523(9) 0.57925(4)
Yb4 Yb 0.495299(12) 0.70210(3) 0.565902(15)
O17 O 0.5183(2) 0.5141(5) 0.3760(3)
O18 O 0.4817(2) 0.5141(5) 0.1240(3)
O19 O 0.5989(2) 0.3761(5) 0.4915(3)
O20 O 0.4011(2) 0.3761(5) 0.0085(3)
O21 O 0.5584(2) 0.0966(5) 0.0557(3)
N6 N 0.1273(3) 0.6928(7) 0.6924(4)
O22 O 0.4369(2) 0.0986(5) 0.0208(3)
O23 O 0.0631(2) 0.5986(5) 0.4792(3)
Ag4 Ag 0.65902(3) 0.12523(9) 0.57925(4)
Ag5 Ag 0.34098(3) 0.12523(9) 0.92075(4)
O13 O 0.5183(2) 0.4859(5) 0.8760(3)
C18 C 0.5643(3) 0.2960(8) 0.8163(4)
O14 O 0.5989(2) 0.6239(5) 0.9915(3)
O16 O 0.5048(2) 0.2716(5) 0.9275(2)
C19 C 0.5262(3) 0.3560(6) 0.8788(4)
C20 C 0.5674(4) 0.1484(8) 0.8003(5)
H9 H 0.5492 0.0825 0.8319
C22 C 0.7234(3) 0.5512(8) 0.9946(4)
H10 H 0.7077 0.6250 0.9608
C26 C 0.6272(3) 0.3307(8) 0.7115(4)
H14 H 0.6501 0.3932 0.6837
N4 N 0.6273(3) 0.1928(7) 0.6924(4)
C27 C 0.5978(3) 0.1049(9) 0.7373(4)
H15 H 0.5979 0.0081 0.7250
C28 C 0.5947(3) 0.3847(8) 0.7709(4)
H16 H 0.5937 0.4826 0.7797
Yb5 Yb 0.504701(12) 0.70210(3) 0.934098(15)
Ag6 Ag 0.84098(3) 0.62523(9) 0.92075(4)
O6 O 0.4369(2) 0.9014(5) 0.5208(3)
C11 C 0.4662(3) 0.9994(7) 0.4900(4)
Ag1 Ag 0.34098(3) 0.87477(9) 0.42075(4)
O9 O 0.5584(2) 0.9034(5) 0.5557(3)
N5 N 0.2829(3) 0.9741(8) 0.5001(4)
N7 N 0.3727(3) 0.8072(7) 0.3076(4)
O23_2 O 0.9369(2) 0.5986(5) 0.0208(3)
C15_2 C 0.4662(3) 0.0006(7) 0.9900(4)
N6_2 N 0.8727(3) 0.6928(7) 0.8076(4)
C11_2 C 0.5338(3) 0.9994(7) 0.0100(4)
Ag1_2 Ag 0.65902(3) 0.87477(9) 0.07925(4)
N7_2 N 0.6273(3) 0.8072(7) 0.1924(4)
O6_2 O 0.5631(2) 0.9014(5) 0.9792(3)
O9_2 O 0.4416(2) 0.9034(5) 0.9443(3)
N5_2 N 0.7171(3) 0.9741(8) 0.9999(4)
C21_2 C 0.1167(2) 0.0037(6) 0.0238(3)
N3_2 N 0.2829(3) 0.0259(8) 0.0001(4)
O17_2 O 0.0183(2) 0.0141(5) 0.3760(3)
O14_2 O 0.0989(2) 0.1239(5) 0.9915(3)
C22_2 C 0.2234(3) 0.0512(8) 0.9946(4)
H10_2 H 0.2077 0.1250 0.9608
Yb5_2 Yb 0.004701(12) 0.20210(3) 0.934098(15)
Yb1_2 Yb 0.004701(12) 0.79790(3) 0.434098(15)
O7_2 O 0.0613(2) 0.7424(5) 0.3258(3)
O8_2 O 0.0594(2) 0.7672(5) 0.1907(3)
C14_2 C 0.0348(3) 0.7594(7) 0.2551(4)
O9_3 O 0.0584(2) 0.4034(5) 0.5557(3)
C15_3 C 0.0338(3) 0.5006(7) 0.5100(4)
C17_2 C 0.1833(3) 0.9743(8) 0.0361(4)
O15_2 O 0.0808(2) 0.9102(5) 0.0449(3)
C23_2 C 0.3054(4) 0.9261(10) 0.0533(5)
H11_2 H 0.3473 0.9111 0.0613
C24_2 C 0.2675(4) 0.8433(9) 0.0973(5)
H12_2 H 0.2843 0.7736 0.1333
C25_2 C 0.2071(4) 0.8652(9) 0.0873(5)
H13_2 H 0.1814 0.8081 0.1142
O19_2 O 0.0989(2) 0.8761(5) 0.4915(3)
O21_2 O 0.0584(2) 0.5966(5) 0.0557(3)
O13_2 O 0.0183(2) 0.9859(5) 0.8760(3)
C18_2 C 0.0643(3) 0.7960(8) 0.8163(4)
O16_2 O 0.0048(2) 0.7716(5) 0.9275(2)
C19_2 C 0.0262(3) 0.8560(6) 0.8788(4)
C20_2 C 0.0674(4) 0.6484(8) 0.8003(5)
H9_2 H 0.0492 0.5825 0.8319
C26_2 C 0.1272(3) 0.8307(8) 0.7115(4)
H14_2 H 0.1501 0.8932 0.6837
C27_2 C 0.0978(3) 0.6049(9) 0.7373(4)
H15_2 H 0.0979 0.5081 0.7250
C28_2 C 0.0947(3) 0.8847(8) 0.7709(4)
H16_2 H 0.0937 0.9826 0.7797
O2_2 O 0.9011(2) 0.1239(5) 0.5085(3)
C5_2 C 0.8833(2) 0.0037(6) 0.4762(3)
C6_2 C 0.7766(3) 0.0512(8) 0.5054(4)
H2_2 H 0.7923 0.1250 0.5392
N1_2 N 0.7171(3) 0.0259(8) 0.4999(4)
Yb4_2 Yb 0.995299(12) 0.20210(3) 0.565902(15)
O18_2 O 0.9817(2) 0.0141(5) 0.1240(3)
O1_2 O 0.9817(2) 0.9859(5) 0.6240(3)
C1_2 C 0.8167(3) 0.9743(8) 0.4639(4)
C2_2 C 0.9357(3) 0.7960(8) 0.6837(4)
O3_2 O 0.9192(2) 0.9102(5) 0.4551(3)
O4_2 O 0.9952(2) 0.7716(5) 0.5725(2)
C3_2 C 0.9738(3) 0.8560(6) 0.6212(4)
O5_2 O 0.9416(2) 0.5966(5) 0.4443(3)
C4_2 C 0.9326(4) 0.6484(8) 0.6997(5)
H1_2 H 0.9508 0.5825 0.6681
C7_2 C 0.6946(4) 0.9261(10) 0.4467(5)
H3_2 H 0.6527 0.9111 0.4387
C8_2 C 0.7325(4) 0.8433(9) 0.4027(5)
H4_2 H 0.7157 0.7736 0.3667
C9_2 C 0.7929(4) 0.8652(9) 0.4127(5)
H5_2 H 0.8186 0.8081 0.3858
C10_2 C 0.8728(3) 0.8307(8) 0.7885(4)
H6_2 H 0.8499 0.8932 0.8163
O6_3 O 0.9369(2) 0.4014(5) 0.5208(3)
C11_3 C 0.9662(3) 0.4994(7) 0.4900(4)
C12_2 C 0.9022(3) 0.6049(9) 0.7627(4)
H7_2 H 0.9021 0.5081 0.7750
C13_2 C 0.9053(3) 0.8847(8) 0.7291(4)
H8_2 H 0.9063 0.9826 0.7203
Ag1_3 Ag 0.84098(3) 0.37477(9) 0.42075(4)
O11_2 O 0.9387(2) 0.7424(5) 0.1742(3)
O12_2 O 0.9406(2) 0.7672(5) 0.3093(3)
C16_2 C 0.9652(3) 0.7594(7) 0.2449(4)
Yb2_2 Yb 0.995299(12) 0.79790(3) 0.065902(15)
O20_2 O 0.9011(2) 0.8761(5) 0.0085(3)
N5_3 N 0.7829(3) 0.4741(8) 0.5001(4)
N7_3 N 0.8727(3) 0.3072(7) 0.3076(4)
C11_4 C 0.0338(3) 0.4994(7) 0.0100(4)
Ag1_4 Ag 0.15902(3) 0.37477(9) 0.07925(4)
N7_4 N 0.1273(3) 0.3072(7) 0.1924(4)
O6_4 O 0.0631(2) 0.4014(5) 0.9792(3)
N5_4 N 0.2171(3) 0.4741(8) 0.9999(4)
O9_4 O 0.9416(2) 0.4034(5) 0.9443(3)
C15_4 C 0.9662(3) 0.5006(7) 0.9900(4)
C18_3 C 0.4357(3) 0.7040(8) 0.1837(4)
O16_3 O 0.4952(2) 0.7284(5) 0.0725(2)
C19_3 C 0.4738(3) 0.6440(6) 0.1212(4)
C20_3 C 0.4326(4) 0.8516(8) 0.1997(5)
H9_3 H 0.4508 0.9175 0.1681
C22_3 C 0.2766(3) 0.4488(8) 0.0054(4)
H10_3 H 0.2923 0.3750 0.0392
C26_3 C 0.3728(3) 0.6693(8) 0.2885(4)
H14_3 H 0.3499 0.6068 0.3163
C27_3 C 0.4022(3) 0.8951(9) 0.2627(4)
H15_3 H 0.4021 0.9919 0.2750
C28_3 C 0.4053(3) 0.6153(8) 0.2291(4)
H16_3 H 0.4063 0.5174 0.2203
C1_3 C 0.6833(3) 0.5257(8) 0.5361(4)
C2_3 C 0.5643(3) 0.7040(8) 0.3163(4)
O3_3 O 0.5808(2) 0.5898(5) 0.5449(3)
O4_3 O 0.5048(2) 0.7284(5) 0.4275(2)
C3_3 C 0.5262(3) 0.6440(6) 0.3788(4)
C4_3 C 0.5674(4) 0.8516(8) 0.3003(5)
H1_3 H 0.5492 0.9175 0.3319
C5_3 C 0.6167(2) 0.4963(6) 0.5238(3)
C6_3 C 0.7234(3) 0.4488(8) 0.4946(4)
H2_3 H 0.7077 0.3750 0.4608
C7_3 C 0.8054(4) 0.5739(10) 0.5533(5)
H3_3 H 0.8473 0.5889 0.5613
C8_3 C 0.7675(4) 0.6567(9) 0.5973(5)
H4_3 H 0.7843 0.7264 0.6333
C9_3 C 0.7071(4) 0.6348(9) 0.5873(5)
H5_3 H 0.6814 0.6919 0.6142
C10_3 C 0.6272(3) 0.6693(8) 0.2115(4)
H6_3 H 0.6501 0.6068 0.1837
C12_3 C 0.5978(3) 0.8951(9) 0.2373(4)
H7_3 H 0.5979 0.9919 0.2250
O7_3 O 0.4387(2) 0.7576(5) 0.6742(3)
C13_3 C 0.5947(3) 0.6153(8) 0.2709(4)
H8_3 H 0.5937 0.5174 0.2797
O8_3 O 0.4406(2) 0.7328(5) 0.8093(3)
C14_3 C 0.4652(3) 0.7406(7) 0.7449(4)
O11_3 O 0.5613(2) 0.7576(5) 0.8258(3)
O12_3 O 0.5594(2) 0.7328(5) 0.6907(3)
C16_3 C 0.5348(3) 0.7406(7) 0.7551(4)
C17_3 C 0.3167(3) 0.5257(8) 0.9639(4)
O15_3 O 0.4192(2) 0.5898(5) 0.9551(3)
C21_3 C 0.3833(2) 0.4963(6) 0.9762(3)
C23_3 C 0.1946(4) 0.5739(10) 0.9467(5)
H11_3 H 0.1527 0.5889 0.9387
C24_3 C 0.2325(4) 0.6567(9) 0.9027(5)
H12_3 H 0.2157 0.7264 0.8667
C25_3 C 0.2929(4) 0.6348(9) 0.9127(5)
H13_3 H 0.3186 0.6919 0.8858
C1_4 C 0.1833(3) 0.0257(8) 0.5361(4)
C2_4 C 0.0643(3) 0.2040(8) 0.3163(4)
O3_4 O 0.0808(2) 0.0898(5) 0.5449(3)
O4_4 O 0.0048(2) 0.2284(5) 0.4275(2)
C3_4 C 0.0262(3) 0.1440(6) 0.3788(4)
C4_4 C 0.0674(4) 0.3516(8) 0.3003(5)
H1_4 H 0.0492 0.4175 0.3319
C7_4 C 0.3054(4) 0.0739(10) 0.5533(5)
H3_4 H 0.3473 0.0889 0.5613
C8_4 C 0.2675(4) 0.1567(9) 0.5973(5)
H4_4 H 0.2843 0.2264 0.6333
C9_4 C 0.2071(4) 0.1348(9) 0.5873(5)
H5_4 H 0.1814 0.1919 0.6142
C10_4 C 0.1272(3) 0.1693(8) 0.2115(4)
H6_4 H 0.1501 0.1068 0.1837
C12_4 C 0.0978(3) 0.3951(9) 0.2373(4)
H7_4 H 0.0979 0.4919 0.2250
C13_4 C 0.0947(3) 0.1153(8) 0.2709(4)
H8_4 H 0.0937 0.0174 0.2797
O11_4 O 0.0613(2) 0.2576(5) 0.8258(3)
O12_4 O 0.0594(2) 0.2328(5) 0.6907(3)
C16_4 C 0.0348(3) 0.2406(7) 0.7551(4)
C5_4 C 0.1167(2) 0.9963(6) 0.5238(3)
C6_4 C 0.2234(3) 0.9488(8) 0.4946(4)
H2_4 H 0.2077 0.8750 0.4608
C18_4 C 0.9357(3) 0.2040(8) 0.1837(4)
O16_4 O 0.9952(2) 0.2284(5) 0.0725(2)
C19_4 C 0.9738(3) 0.1440(6) 0.1212(4)
C20_4 C 0.9326(4) 0.3516(8) 0.1997(5)
H9_4 H 0.9508 0.4175 0.1681
C26_4 C 0.8728(3) 0.1693(8) 0.2885(4)
H14_4 H 0.8499 0.1068 0.3163
C27_4 C 0.9022(3) 0.3951(9) 0.2627(4)
H15_4 H 0.9021 0.4919 0.2750
C28_4 C 0.9053(3) 0.1153(8) 0.2291(4)
H16_4 H 0.9063 0.0174 0.2203
O7_4 O 0.9387(2) 0.2576(5) 0.6742(3)
O8_4 O 0.9406(2) 0.2328(5) 0.8093(3)
C14_4 C 0.9652(3) 0.2406(7) 0.7449(4)
C17_4 C 0.8167(3) 0.0257(8) 0.9639(4)
O15_4 O 0.9192(2) 0.0898(5) 0.9551(3)
C23_4 C 0.6946(4) 0.0739(10) 0.9467(5)
H11_4 H 0.6527 0.0889 0.9387
C24_4 C 0.7325(4) 0.1567(9) 0.9027(5)
H12_4 H 0.7157 0.2264 0.8667
C25_4 C 0.7929(4) 0.1348(9) 0.9127(5)
H13_4 H 0.8186 0.1919 0.8858
C22_4 C 0.7766(3) 0.9488(8) 0.0054(4)
H10_4 H 0.7923 0.8750 0.0392
C21_4 C 0.8833(2) 0.9963(6) 0.9762(3)
loop_
_geom_bond_atom_site_label_1
_geom_bond_atom_site_label_2
_geom_bond_site_symmetry_1
_geom_bond_site_symmetry_2
Yb1 O3 1_555 1_555
O1 C3 1_555 1_555
C1 C5 1_555 1_555
C2 C3 1_555 1_555
O2 C5 1_555 1_555
O3 C5 1_555 1_555
O4 Yb1 1_555 1_555
C3 O4 1_555 1_555
O5 Yb1 1_555 1_555
C4 C2 1_555 1_555
H1 C4 1_555 1_555
C6 C1 1_555 1_555
H2 C6 1_555 1_555
C7 H3 1_555 1_555
N1 C6 1_555 1_555
C8 C7 1_555 1_555
H4 C8 1_555 1_555
C9 C1 1_555 1_555
H5 C9 1_555 1_555
C10 H6 1_555 1_555
N2 C10 1_555 1_555
C12 C4 1_555 1_555
H7 C12 1_555 1_555
O7 Yb1 1_555 1_555
C13 C2 1_555 1_555
H8 C13 1_555 1_555
O8 C14 1_555 1_555
C14 O7 1_555 1_555
O10 Yb1 1_555 1_555
O11 C16 1_555 1_555
O12 Yb1 1_555 1_555
C16 C14 1_555 1_555
Yb2 O8 1_555 1_555
C17 C21 1_555 1_555
O15 Yb2 1_555 1_555
C21 O15 1_555 1_555
C23 H11 1_555 1_555
C24 C23 1_555 1_555
H12 C24 1_555 1_555
C25 C17 1_555 1_555
H13 C25 1_555 1_555
Ag2 N1 1_555 1_555
Yb4 O1 1_555 1_555
O17 Yb1 1_555 1_555
O18 Yb2 1_555 1_555
O19 Yb1 1_555 1_555
O20 Yb2 1_555 1_555
O21 Yb2 1_555 1_555
N6 Ag2 1_555 1_555
O22 Yb2 1_555 1_555
O23 Ag2 1_555 1_555
Ag4 O10 1_555 1_555
Ag5 N2 1_555 1_555
O2 Yb4 1_555 1_555
C7 N1 1_555 1_555
C8 C9 1_555 1_555
C10 C13 1_555 1_555
N2 C12 1_555 1_555
O10 C15 1_555 1_555
O11 Yb2 1_555 1_555
O12 C16 1_555 1_555
C23 N3 1_555 1_555
C24 C25 1_555 1_555
O13 C19 1_555 1_555
C18 C19 1_555 1_555
C19 O16 1_555 1_555
C20 C18 1_555 1_555
H9 C20 1_555 1_555
H10 C22 1_555 1_555
C26 H14 1_555 1_555
N4 C26 1_555 1_555
C27 C20 1_555 1_555
H15 C27 1_555 1_555
C28 C18 1_555 1_555
H16 C28 1_555 1_555
Yb5 O13 1_555 1_555
Ag4 N4 1_555 1_555
O14 Yb5 1_555 1_555
C26 C28 1_555 1_555
N4 C27 1_555 1_555
O6 C11 1_555 1_555
Ag1 O6 1_555 1_555
Yb4 O6 1_555 1_555
N5 Ag1 1_555 1_555
N7 Ag1 1_555 1_555
O9 Yb4 1_555 1_555
N6_2 Ag6 1_555 1_555
N7_2 Ag1_2 1_555 1_555
Yb5 O6_2 1_555 1_555
O9_2 Yb5 1_555 1_555
H10_2 C22_2 1_555 1_555
O14_2 Yb5_2 1_555 1_555
O7_2 Yb1_2 1_555 1_555
O8_2 C14_2 1_555 1_555
C14_2 O7_2 1_555 1_555
O9_3 C15_3 1_555 1_555
O23 Yb1_2 1_555 1_555
C23_2 H11_2 1_555 1_555
C24_2 C23_2 1_555 1_555
H12_2 C24_2 1_555 1_555
C25_2 C17_2 1_555 1_555
H13_2 C25_2 1_555 1_555
O19_2 Yb1_2 1_555 1_555
O23 C15_3 1_555 1_555
C24_2 C25_2 1_555 1_555
O13_2 C19_2 1_555 1_555
C18_2 C19_2 1_555 1_555
C19_2 O16_2 1_555 1_555
C20_2 C18_2 1_555 1_555
H9_2 C20_2 1_555 1_555
C26_2 H14_2 1_555 1_555
N6 C26_2 1_555 1_555
C27_2 C20_2 1_555 1_555
H15_2 C27_2 1_555 1_555
C28_2 C18_2 1_555 1_555
H16_2 C28_2 1_555 1_555
C26_2 C28_2 1_555 1_555
N6 C27_2 1_555 1_555
O2_2 C5_2 1_555 1_555
H2_2 C6_2 1_555 1_555
N1_2 C6_2 1_555 1_555
Ag4 N1_2 1_555 1_555
O2_2 Yb4_2 1_555 1_555
O1_2 C3_2 1_555 1_555
C2_2 C3_2 1_555 1_555
C3_2 O4_2 1_555 1_555
C4_2 C2_2 1_555 1_555
H1_2 C4_2 1_555 1_555
C7_2 H3_2 1_555 1_555
C8_2 C7_2 1_555 1_555
H4_2 C8_2 1_555 1_555
C9_2 C1_2 1_555 1_555
H5_2 C9_2 1_555 1_555
C10_2 H6_2 1_555 1_555
N6_2 C10_2 1_555 1_555
O6_3 C11_3 1_555 1_555
C11_3 O5_2 1_555 1_555
C12_2 C4_2 1_555 1_555
H7_2 C12_2 1_555 1_555
C13_2 C2_2 1_555 1_555
H8_2 C13_2 1_555 1_555
Ag1_3 O6_3 1_555 1_555
O11_2 C16_2 1_555 1_555
Yb4_2 O6_3 1_555 1_555
O20_2 Yb2_2 1_555 1_555
N5_3 Ag1_3 1_555 1_555
N7_3 Ag1_3 1_555 1_555
O23_2 Yb2_2 1_555 1_555
C8_2 C9_2 1_555 1_555
C10_2 C13_2 1_555 1_555
N6_2 C12_2 1_555 1_555
O11_2 Yb2_2 1_555 1_555
O12_2 C16_2 1_555 1_555
C11_4 O21_2 1_555 1_555
N7_4 Ag1_4 1_555 1_555
Yb5_2 O6_4 1_555 1_555
O9_4 C15_4 1_555 1_555
O18 C19_3 1_555 1_555
C18_3 C19_3 1_555 1_555
C19_3 O16_3 1_555 1_555
C20_3 C18_3 1_555 1_555
H9_3 C20_3 1_555 1_555
H10_3 C22_3 1_555 1_555
C26_3 H14_3 1_555 1_555
N7 C26_3 1_555 1_555
C27_3 C20_3 1_555 1_555
H15_3 C27_3 1_555 1_555
C28_3 C18_3 1_555 1_555
H16_3 C28_3 1_555 1_555
C26_3 C28_3 1_555 1_555
N7 C27_3 1_555 1_555
Yb4 O3_3 1_555 1_555
O17 C3_3 1_555 1_555
C1_3 C5_3 1_555 1_555
C2_3 C3_3 1_555 1_555
O19 C5_3 1_555 1_555
O3_3 C5_3 1_555 1_555
O4_3 Yb4 1_555 1_555
C3_3 O4_3 1_555 1_555
C4_3 C2_3 1_555 1_555
H1_3 C4_3 1_555 1_555
C6_3 C1_3 1_555 1_555
H2_3 C6_3 1_555 1_555
C7_3 H3_3 1_555 1_555
N5_3 C6_3 1_555 1_555
C8_3 C7_3 1_555 1_555
H4_3 C8_3 1_555 1_555
C9_3 C1_3 1_555 1_555
H5_3 C9_3 1_555 1_555
C10_3 H6_3 1_555 1_555
N7_2 C10_3 1_555 1_555
C12_3 C4_3 1_555 1_555
H7_3 C12_3 1_555 1_555
O7_3 Yb4 1_555 1_555
C13_3 C2_3 1_555 1_555
H8_3 C13_3 1_555 1_555
O8_3 C14_3 1_555 1_555
C14_3 O7_3 1_555 1_555
O11_3 C16_3 1_555 1_555
O12_3 Yb4 1_555 1_555
C16_3 C14_3 1_555 1_555
Yb5 O8_3 1_555 1_555
C17_3 C21_3 1_555 1_555
O15_3 Yb5 1_555 1_555
C21_3 O15_3 1_555 1_555
C23_3 H11_3 1_555 1_555
C24_3 C23_3 1_555 1_555
H12_3 C24_3 1_555 1_555
C25_3 C17_3 1_555 1_555
H13_3 C25_3 1_555 1_555
C7_3 N5_3 1_555 1_555
C8_3 C9_3 1_555 1_555
C10_3 C13_3 1_555 1_555
N7_2 C12_3 1_555 1_555
O11_3 Yb5 1_555 1_555
O12_3 C16_3 1_555 1_555
C23_3 N5_4 1_555 1_555
C24_3 C25_3 1_555 1_555
O17_2 C3_4 1_555 1_555
C2_4 C3_4 1_555 1_555
C3_4 O4_4 1_555 1_555
C4_4 C2_4 1_555 1_555
H1_4 C4_4 1_555 1_555
C7_4 H3_4 1_555 1_555
C8_4 C7_4 1_555 1_555
H4_4 C8_4 1_555 1_555
C9_4 C1_4 1_555 1_555
H5_4 C9_4 1_555 1_555
C10_4 H6_4 1_555 1_555
N7_4 C10_4 1_555 1_555
C12_4 C4_4 1_555 1_555
H7_4 C12_4 1_555 1_555
C13_4 C2_4 1_555 1_555
H8_4 C13_4 1_555 1_555
O11_4 C16_4 1_555 1_555
C8_4 C9_4 1_555 1_555
C10_4 C13_4 1_555 1_555
N7_4 C12_4 1_555 1_555
O11_4 Yb5_2 1_555 1_555
O12_4 C16_4 1_555 1_555
O19_2 C5_4 1_555 1_555
H2_4 C6_4 1_555 1_555
N5 C6_4 1_555 1_555
O18_2 C19_4 1_555 1_555
C18_4 C19_4 1_555 1_555
C19_4 O16_4 1_555 1_555
C20_4 C18_4 1_555 1_555
H9_4 C20_4 1_555 1_555
C26_4 H14_4 1_555 1_555
N7_3 C26_4 1_555 1_555
C27_4 C20_4 1_555 1_555
H15_4 C27_4 1_555 1_555
C28_4 C18_4 1_555 1_555
H16_4 C28_4 1_555 1_555
C26_4 C28_4 1_555 1_555
N7_3 C27_4 1_555 1_555
O7_4 Yb4_2 1_555 1_555
O8_4 C14_4 1_555 1_555
C14_4 O7_4 1_555 1_555
C23_4 H11_4 1_555 1_555
C24_4 C23_4 1_555 1_555
H12_4 C24_4 1_555 1_555
C25_4 C17_4 1_555 1_555
H13_4 C25_4 1_555 1_555
C24_4 C25_4 1_555 1_555
H10_4 C22_4 1_555 1_555

#END
