
###############################################################################
#
# This file contains modified crystal structure data generated from the
# MOF subset of the Cambridge Structural Database (CSD) v543 
# hosted by the Cambridge Crystallographic Data Centre (CCDC).
#
# This work is licensed under the Creative Commons
# Attribution-NonCommercial-ShareAlike 4.0 International License.
# To view a copy of this license, visit
# http://creativecommons.org/licenses/by-nc-sa/4.0/
# or send a letter to
# Creative Commons, PO Box 1866, Mountain View, CA 94042, USA.
#
# CIF created using the CSD Python API on 29 September 2022
# The structure has been converted into the P1 space group
# The structure has a 3D framework
# The original CSD entry GUBJEV is in the monoclinic crystal system
# The framework has been calculated to contain at least 10.0% void space
# The void calculation uses a probe of radius 1.32A, grid spacing 0.4
#
###############################################################################

data_GUBJEV
_chemical_formula_moiety         '(C208 H128 N24 O48 Zn14)n'
_symmetry_cell_setting           triclinic
_symmetry_space_group_name_H-M   'P 1'
_symmetry_Int_Tables_number      1
_space_group_name_Hall           'P 1'
loop_
_symmetry_equiv_pos_site_id
_symmetry_equiv_pos_as_xyz
1 x,y,z
_cell_length_a                   24.0983(13)
_cell_length_b                   13.5396(4)
_cell_length_c                   22.9142(12)
_cell_angle_alpha                90
_cell_angle_beta                 127.451(8)
_cell_angle_gamma                90
_cell_volume                     5935.38
loop_
_atom_site_label
_atom_site_type_symbol
_atom_site_fract_x
_atom_site_fract_y
_atom_site_fract_z
C1 C 0.34529(11) 0.06882(16) 0.08651(12)
C22 C 0.36925(12) 0.1017(2) 0.30430(12)
H13 H 0.321805 0.089283 0.268989
C23 C 0.40412(12) 0.05411(19) 0.37087(12)
H14 H 0.381043 0.009638 0.380306
C24 C 0.47449(11) 0.07410(17) 0.42351(11)
C25 C 0.50750(12) 0.14008(16) 0.40812(11)
H15 H 0.554553 0.155140 0.443197
C26 C 0.46886(12) 0.18365(17) 0.33894(12)
H16 H 0.491070 0.226937 0.327666
N2 N 0.40083(9) 0.16527(14) 0.28818(9)
N3 N 0.51658(10) 0.03036(14) 0.49556(9)
O1 O 0.31938(8) 0.13015(11) 0.03600(9)
O2 O 0.35590(9) 0.08219(12) 0.14727(9)
Zn1 Zn 0.250000 0.250000 0.000000
Zn2 Zn 0.34455(2) 0.20782(2) 0.17964(2)
H21 H 0.657437 0.003443 0.022729
H22 H 0.617220 0.151087 0.033947
H27 H 0.523232 0.394680 0.014712
H28 H 0.420718 0.392736 0.002337
O14 O 0.25235(8) 0.21436(13) 0.15747(8)
O16 O 0.19714(8) 0.18900(11) 0.03723(8)
O17 O 0.42115(9) 0.30791(14) 0.19705(10)
O19 O 0.31374(8) 0.32335(12) 0.10007(8)
Zn6 Zn 0.750000 0.750000 0.000000
Zn1_2 Zn 0.250000 0.250000 1.000000
C33 C 0.63247(11) 0.02949(16) 0.92296(12)
C34 C 0.63763(13) 0.04980(17) 0.98509(13)
C35 C 0.61363(14) 0.13841(17) 0.99187(14)
C36 C 0.58439(12) 0.20824(16) 0.93682(14)
C37 C 0.58074(16) 0.18936(19) 0.87543(16)
H23 H 0.562508 0.236820 0.838691
C38 C 0.60400(16) 0.10039(19) 0.86822(15)
H24 H 0.600516 0.087919 0.826192
C39 C 0.30186(11) 0.29743(16) 0.90828(12)
C40 C 0.36976(11) 0.29475(16) 0.91954(12)
C41 C 0.37799(13) 0.23344(18) 0.87668(14)
H25 H 0.341065 0.193568 0.841152
C42 C 0.44036(13) 0.23097(18) 0.88619(15)
H26 H 0.445920 0.187642 0.858605
C43 C 0.49442(12) 0.29292(16) 0.93672(14)
C44 C 0.48673(13) 0.35355(18) 0.98006(14)
C45 C 0.42496(13) 0.35321(18) 0.97205(13)
C46 C 0.62371(12) 0.64607(16) 0.86072(12)
C47 C 0.60524(11) 0.55681(16) 0.88241(11)
C48 C 0.53614(12) 0.53395(17) 0.85017(12)
H29 H 0.500726 0.575440 0.814406
C49 C 0.51945(12) 0.44994(17) 0.87076(13)
H30 H 0.473030 0.435776 0.849725
C50 C 0.57215(12) 0.38669(16) 0.92293(13)
C51 C 0.64142(12) 0.40927(18) 0.95493(14)
H31 H 0.676836 0.366835 0.989596
C52 C 0.65779(12) 0.49443(18) 0.93540(13)
H32 H 0.704314 0.510109 0.957891
N6 N 0.55769(11) 0.29802(13) 0.94408(13)
O9 O 0.24765(8) 0.28564(13) 0.84253(8)
O10 O 0.30286(8) 0.31100(11) 0.96277(8)
O11 O 0.57885(9) 0.69209(14) 0.80295(10)
O12 O 0.68626(8) 0.67665(12) 0.89993(8)
O13 O 0.18062(8) 0.36985(11) 0.96400(9)
O21 O 0.18626(8) 0.17665(12) 0.89993(8)
Zn6_2 Zn 0.750000 0.750000 1.000000
Zn10 Zn 0.65545(2) 0.79218(2) 0.82036(2)
Zn11 Zn 0.15545(2) 0.29218(2) 0.82036(2)
C2 C 0.36753(11) 0.97051(16) 0.07704(12)
C3 C 0.36237(13) 0.95020(17) 0.01491(13)
C4 C 0.38637(14) 0.86159(17) 0.00813(14)
C5 C 0.41561(12) 0.79176(16) 0.06318(14)
C6 C 0.41926(16) 0.81064(19) 0.12457(16)
H3 H 0.437492 0.763180 0.161309
C7 C 0.39600(16) 0.89961(19) 0.13178(15)
H4 H 0.399484 0.912081 0.173808
C8 C 0.69814(11) 0.70257(16) 0.09172(12)
C9 C 0.63024(11) 0.70525(16) 0.08046(12)
C10 C 0.62201(13) 0.76656(18) 0.12332(14)
H5 H 0.658935 0.806432 0.158848
C11 C 0.55964(13) 0.76903(18) 0.11381(15)
H6 H 0.554080 0.812358 0.141395
C12 C 0.50558(12) 0.70708(16) 0.06328(14)
C13 C 0.51327(13) 0.64645(18) 0.01994(14)
C14 C 0.57504(13) 0.64679(18) 0.02795(13)
C15 C 0.37629(12) 0.35393(16) 0.13928(12)
C16 C 0.39476(11) 0.44319(16) 0.11759(11)
C17 C 0.46386(12) 0.46605(17) 0.14983(12)
H9 H 0.499274 0.424560 0.185594
C18 C 0.48055(12) 0.55006(17) 0.12924(13)
H10 H 0.526970 0.564224 0.150275
C19 C 0.42785(12) 0.61331(16) 0.07707(13)
C20 C 0.35858(12) 0.59073(18) 0.04507(14)
H11 H 0.323164 0.633165 0.010404
C21 C 0.34221(12) 0.50557(18) 0.06460(13)
H12 H 0.295686 0.489891 0.042109
N1 N 0.44231(11) 0.70198(13) 0.05592(13)
O3 O 0.75235(8) 0.71436(13) 0.15747(8)
O4 O 0.69714(8) 0.68900(11) 0.03723(8)
C27 C 0.63075(12) 0.8983(2) 0.69570(12)
H17 H 0.678195 0.910717 0.731011
C28 C 0.59588(12) 0.94589(19) 0.62913(12)
H18 H 0.618957 0.990362 0.619694
C29 C 0.52551(11) 0.92590(17) 0.57649(11)
C30 C 0.49250(12) 0.85992(16) 0.59188(11)
H19 H 0.445447 0.844860 0.556803
C31 C 0.53114(12) 0.81635(17) 0.66106(12)
H20 H 0.508930 0.773063 0.672334
N4 N 0.59917(9) 0.83473(14) 0.71182(9)
N5 N 0.48342(10) 0.96964(14) 0.50444(9)
Zn8 Zn 0.84455(2) 0.70782(2) 0.17964(2)
H1 H 0.342563 0.996557 0.977271
H2 H 0.382780 0.848913 0.966053
H7 H 0.476768 0.605320 0.985288
H8 H 0.579282 0.607264 0.997663
C32 C 0.65471(11) 0.93118(16) 0.91349(12)
O7 O 0.68062(8) 0.86985(11) 0.96400(9)
O8 O 0.64410(9) 0.91781(12) 0.85273(9)
O15 O 0.74765(8) 0.78564(13) 0.84253(8)
C46_2 C 0.12371(12) 0.14607(16) 0.86072(12)
C47_2 C 0.10524(11) 0.05681(16) 0.88241(11)
C48_2 C 0.03614(12) 0.03395(17) 0.85017(12)
H29_2 H 0.000726 0.075440 0.814406
H32_2 H 0.204314 0.010109 0.957891
O11_2 O 0.07885(9) 0.19209(14) 0.80295(10)
C8_2 C 0.19814(11) 0.20257(16) 0.09172(12)
C9_2 C 0.13024(11) 0.20525(16) 0.08046(12)
C10_2 C 0.12201(13) 0.26656(18) 0.12332(14)
H5_2 H 0.158935 0.306432 0.158848
C11_2 C 0.05964(13) 0.26903(18) 0.11381(15)
H6_2 H 0.054080 0.312358 0.141395
C12_2 C 0.00558(12) 0.20708(16) 0.06328(14)
C13_2 C 0.01327(13) 0.14645(18) 0.01994(14)
C14_2 C 0.07504(13) 0.14679(18) 0.02795(13)
H10_2 H 0.026970 0.064224 0.150275
C25_2 C 0.00750(12) 0.64008(16) 0.40812(11)
H15_2 H 0.054553 0.655140 0.443197
N3_2 N 0.01658(10) 0.53036(14) 0.49556(9)
C27_2 C 0.13075(12) 0.3983(2) 0.69570(12)
H17_2 H 0.178195 0.410717 0.731011
C28_2 C 0.09588(12) 0.44589(19) 0.62913(12)
H18_2 H 0.118957 0.490362 0.619694
C29_2 C 0.02551(11) 0.42590(17) 0.57649(11)
C31_2 C 0.03114(12) 0.31635(17) 0.66106(12)
H20_2 H 0.008930 0.273063 0.672334
N4_2 N 0.09917(9) 0.33473(14) 0.71182(9)
H21_2 H 0.157437 0.503443 0.022729
H22_2 H 0.117220 0.651087 0.033947
H27_2 H 0.023232 0.894680 0.014712
H8_2 H 0.079282 0.107264 0.997663
C32_2 C 0.15471(11) 0.43118(16) 0.91349(12)
C33_2 C 0.13247(11) 0.52949(16) 0.92296(12)
C34_2 C 0.13763(13) 0.54980(17) 0.98509(13)
C35_2 C 0.11363(14) 0.63841(17) 0.99187(14)
C36_2 C 0.08439(12) 0.70824(16) 0.93682(14)
C37_2 C 0.08074(16) 0.68936(19) 0.87543(16)
H23_2 H 0.062508 0.736820 0.838691
C38_2 C 0.10400(16) 0.60039(19) 0.86822(15)
H24_2 H 0.100516 0.587919 0.826192
C49_2 C 0.01945(12) 0.94994(17) 0.87076(13)
C50_2 C 0.07215(12) 0.88669(16) 0.92293(13)
C51_2 C 0.14142(12) 0.90927(18) 0.95493(14)
H31_2 H 0.176836 0.866835 0.989596
C52_2 C 0.15779(12) 0.99443(18) 0.93540(13)
N6_2 N 0.05769(11) 0.79802(13) 0.94408(13)
O8_2 O 0.14410(9) 0.41781(12) 0.85273(9)
C1_2 C 0.84529(11) 0.56882(16) 0.08651(12)
C2_2 C 0.86753(11) 0.47051(16) 0.07704(12)
C3_2 C 0.86237(13) 0.45020(17) 0.01491(13)
C4_2 C 0.88637(14) 0.36159(17) 0.00813(14)
C5_2 C 0.91561(12) 0.29176(16) 0.06318(14)
C6_2 C 0.91926(16) 0.31064(19) 0.12457(16)
H3_2 H 0.937492 0.263180 0.161309
C7_2 C 0.89600(16) 0.39961(19) 0.13178(15)
H4_2 H 0.899484 0.412081 0.173808
C18_2 C 0.98055(12) 0.05006(17) 0.12924(13)
C19_2 C 0.92785(12) 0.11331(16) 0.07707(13)
C20_2 C 0.85858(12) 0.09073(18) 0.04507(14)
H11_2 H 0.823164 0.133165 0.010404
C21_2 C 0.84221(12) 0.00557(18) 0.06460(13)
C22_2 C 0.86925(12) 0.6017(2) 0.30430(12)
H13_2 H 0.821805 0.589283 0.268989
C23_2 C 0.90412(12) 0.55411(19) 0.37087(12)
H14_2 H 0.881043 0.509638 0.380306
C24_2 C 0.97449(11) 0.57410(17) 0.42351(11)
C26_2 C 0.96886(12) 0.68365(17) 0.33894(12)
H16_2 H 0.991070 0.726937 0.327666
N1_2 N 0.94231(11) 0.20198(13) 0.05592(13)
N2_2 N 0.90083(9) 0.66527(14) 0.28818(9)
O1_2 O 0.81938(8) 0.63015(11) 0.03600(9)
O2_2 O 0.85590(9) 0.58219(12) 0.14727(9)
C30_2 C 0.99250(12) 0.35992(16) 0.59188(11)
H19_2 H 0.945447 0.344860 0.556803
N5_2 N 0.98342(10) 0.46964(14) 0.50444(9)
H28_2 H 0.920718 0.892736 0.002337
O17_2 O 0.92115(9) 0.80791(14) 0.19705(10)
O19_2 O 0.81374(8) 0.82335(12) 0.10007(8)
H1_2 H 0.842563 0.496557 0.977271
H2_2 H 0.882780 0.348913 0.966053
H7_2 H 0.976768 0.105320 0.985288
C39_2 C 0.80186(11) 0.79743(16) 0.90828(12)
C40_2 C 0.86976(11) 0.79475(16) 0.91954(12)
C41_2 C 0.87799(13) 0.73344(18) 0.87668(14)
H25_2 H 0.841065 0.693568 0.841152
C42_2 C 0.94036(13) 0.73097(18) 0.88619(15)
H26_2 H 0.945920 0.687642 0.858605
C43_2 C 0.99442(12) 0.79292(16) 0.93672(14)
C44_2 C 0.98673(13) 0.85355(18) 0.98006(14)
C45_2 C 0.92496(13) 0.85321(18) 0.97205(13)
H30_2 H 0.973030 0.935776 0.849725
O10_2 O 0.80286(8) 0.81100(11) 0.96277(8)
C15_2 C 0.87629(12) 0.85393(16) 0.13928(12)
C16_2 C 0.89476(11) 0.94319(16) 0.11759(11)
C17_2 C 0.96386(12) 0.96605(17) 0.14983(12)
H9_2 H 0.999274 0.924560 0.185594
H12_2 H 0.795686 0.989891 0.042109
C1_3 C 0.65471(11) 0.06882(16) 0.41349(12)
C22_3 C 0.63075(12) 0.1017(2) 0.19570(12)
H13_3 H 0.678195 0.089283 0.231011
C23_3 C 0.59588(12) 0.05411(19) 0.12913(12)
H14_3 H 0.618957 0.009638 0.119694
C24_3 C 0.52551(11) 0.07410(17) 0.07649(11)
C25_3 C 0.49250(12) 0.14008(16) 0.09188(11)
H15_3 H 0.445447 0.155140 0.056803
C26_3 C 0.53114(12) 0.18365(17) 0.16106(12)
H16_3 H 0.508930 0.226937 0.172334
N2_3 N 0.59917(9) 0.16527(14) 0.21182(9)
N3_3 N 0.48342(10) 0.03036(14) 0.00444(9)
O1_3 O 0.68062(8) 0.13015(11) 0.46400(9)
O2_3 O 0.64410(9) 0.08219(12) 0.35273(9)
Zn1_3 Zn 0.750000 0.250000 0.500000
Zn2_2 Zn 0.65545(2) 0.20782(2) 0.32036(2)
C33_3 C 0.36753(11) 0.02949(16) 0.57704(12)
C34_3 C 0.36237(13) 0.04980(17) 0.51491(13)
H21_3 H 0.342563 0.003443 0.477271
C35_3 C 0.38637(14) 0.13841(17) 0.50813(14)
H22_3 H 0.382780 0.151087 0.466053
C36_3 C 0.41561(12) 0.20824(16) 0.56318(14)
C37_3 C 0.41926(16) 0.18936(19) 0.62457(16)
H23_3 H 0.437492 0.236820 0.661309
C38_3 C 0.39600(16) 0.10039(19) 0.63178(15)
H24_3 H 0.399484 0.087919 0.673808
C39_3 C 0.69814(11) 0.29743(16) 0.59172(12)
C40_3 C 0.63024(11) 0.29475(16) 0.58046(12)
C41_3 C 0.62201(13) 0.23344(18) 0.62332(14)
H25_3 H 0.658935 0.193568 0.658848
C42_3 C 0.55964(13) 0.23097(18) 0.61381(15)
H26_3 H 0.554080 0.187642 0.641395
C43_3 C 0.50558(12) 0.29292(16) 0.56328(14)
C44_3 C 0.51327(13) 0.35355(18) 0.51994(14)
H27_3 H 0.476768 0.394680 0.485288
C45_3 C 0.57504(13) 0.35321(18) 0.52795(13)
H28_3 H 0.579282 0.392736 0.497663
C46_3 C 0.37629(12) 0.64607(16) 0.63928(12)
C47_3 C 0.39476(11) 0.55681(16) 0.61759(11)
C48_3 C 0.46386(12) 0.53395(17) 0.64983(12)
H29_3 H 0.499274 0.575440 0.685594
C49_3 C 0.48055(12) 0.44994(17) 0.62924(13)
H30_3 H 0.526970 0.435776 0.650275
C50_3 C 0.42785(12) 0.38669(16) 0.57707(13)
C51_3 C 0.35858(12) 0.40927(18) 0.54507(14)
H31_3 H 0.323164 0.366835 0.510404
C52_3 C 0.34221(12) 0.49443(18) 0.56460(13)
H32_3 H 0.295686 0.510109 0.542109
N6_3 N 0.44231(11) 0.29802(13) 0.55592(13)
O9_2 O 0.75235(8) 0.28564(13) 0.65747(8)
O10_3 O 0.69714(8) 0.31100(11) 0.53723(8)
O11_3 O 0.42115(9) 0.69209(14) 0.69705(10)
O12_2 O 0.31374(8) 0.67665(12) 0.60007(8)
O13_2 O 0.81938(8) 0.36985(11) 0.53600(9)
O14_2 O 0.74765(8) 0.21436(13) 0.34253(8)
O16_2 O 0.80286(8) 0.18900(11) 0.46277(8)
O17_3 O 0.57885(9) 0.30791(14) 0.30295(10)
O19_3 O 0.68626(8) 0.32335(12) 0.39993(8)
O21_2 O 0.81374(8) 0.17665(12) 0.60007(8)
Zn6_3 Zn 0.250000 0.750000 0.500000
Zn10_2 Zn 0.34455(2) 0.79218(2) 0.67964(2)
Zn11_2 Zn 0.84455(2) 0.29218(2) 0.67964(2)
C2_3 C 0.63247(11) 0.97051(16) 0.42296(12)
C3_3 C 0.63763(13) 0.95020(17) 0.48509(13)
H1_3 H 0.657437 0.996557 0.522729
C4_3 C 0.61363(14) 0.86159(17) 0.49187(14)
H2_3 H 0.617220 0.848913 0.533947
C5_3 C 0.58439(12) 0.79176(16) 0.43682(14)
C6_3 C 0.58074(16) 0.81064(19) 0.37543(16)
H3_3 H 0.562508 0.763180 0.338691
C7_3 C 0.60400(16) 0.89961(19) 0.36822(15)
H4_3 H 0.600516 0.912081 0.326192
C8_3 C 0.30186(11) 0.70257(16) 0.40828(12)
C9_3 C 0.36976(11) 0.70525(16) 0.41954(12)
C10_3 C 0.37799(13) 0.76656(18) 0.37668(14)
H5_3 H 0.341065 0.806432 0.341152
C11_3 C 0.44036(13) 0.76903(18) 0.38619(15)
H6_3 H 0.445920 0.812358 0.358605
C12_3 C 0.49442(12) 0.70708(16) 0.43672(14)
C13_3 C 0.48673(13) 0.64645(18) 0.48006(14)
H7_3 H 0.523232 0.605320 0.514712
C14_3 C 0.42496(13) 0.64679(18) 0.47205(13)
H8_3 H 0.420718 0.607264 0.502337
C15_3 C 0.62371(12) 0.35393(16) 0.36072(12)
C16_3 C 0.60524(11) 0.44319(16) 0.38241(11)
C17_3 C 0.53614(12) 0.46605(17) 0.35017(12)
H9_3 H 0.500726 0.424560 0.314406
C18_3 C 0.51945(12) 0.55006(17) 0.37076(13)
H10_3 H 0.473030 0.564224 0.349725
C19_3 C 0.57215(12) 0.61331(16) 0.42293(13)
C20_3 C 0.64142(12) 0.59073(18) 0.45493(14)
H11_3 H 0.676836 0.633165 0.489596
C21_3 C 0.65779(12) 0.50557(18) 0.43540(13)
H12_3 H 0.704314 0.489891 0.457891
N1_3 N 0.55769(11) 0.70198(13) 0.44408(13)
O3_2 O 0.24765(8) 0.71436(13) 0.34253(8)
O4_2 O 0.30286(8) 0.68900(11) 0.46277(8)
C32_3 C 0.34529(11) 0.93118(16) 0.58651(12)
O7_2 O 0.31938(8) 0.86985(11) 0.53600(9)
O8_3 O 0.35590(9) 0.91781(12) 0.64727(9)
N7 N 0.40083(9) 0.83473(14) 0.78818(9)
O15_2 O 0.25235(8) 0.78564(13) 0.65747(8)
Zn8_2 Zn 0.15545(2) 0.70782(2) 0.32036(2)
C27_3 C 0.36925(12) 0.8983(2) 0.80430(12)
H17_3 H 0.321805 0.910717 0.768989
C28_3 C 0.40412(12) 0.94589(19) 0.87087(12)
H18_3 H 0.381043 0.990362 0.880306
C29_3 C 0.47449(11) 0.92590(17) 0.92351(11)
C30_3 C 0.50750(12) 0.85992(16) 0.90812(11)
H19_3 H 0.554553 0.844860 0.943197
C31_3 C 0.46886(12) 0.81635(17) 0.83894(12)
H20_3 H 0.491070 0.773063 0.827666
N5_3 N 0.51658(10) 0.96964(14) 0.99556(9)
C1_4 C 0.15471(11) 0.56882(16) 0.41349(12)
C2_4 C 0.13247(11) 0.47051(16) 0.42296(12)
C3_4 C 0.13763(13) 0.45020(17) 0.48509(13)
H1_4 H 0.157437 0.496557 0.522729
C4_4 C 0.11363(14) 0.36159(17) 0.49187(14)
H2_4 H 0.117220 0.348913 0.533947
C5_4 C 0.08439(12) 0.29176(16) 0.43682(14)
C6_4 C 0.08074(16) 0.31064(19) 0.37543(16)
H3_4 H 0.062508 0.263180 0.338691
C7_4 C 0.10400(16) 0.39961(19) 0.36822(15)
H4_4 H 0.100516 0.412081 0.326192
H7_4 H 0.023232 0.105320 0.514712
C18_4 C 0.01945(12) 0.05006(17) 0.37076(13)
C19_4 C 0.07215(12) 0.11331(16) 0.42293(13)
C20_4 C 0.14142(12) 0.09073(18) 0.45493(14)
H11_4 H 0.176836 0.133165 0.489596
C21_4 C 0.15779(12) 0.00557(18) 0.43540(13)
C22_4 C 0.13075(12) 0.6017(2) 0.19570(12)
H13_4 H 0.178195 0.589283 0.231011
C23_4 C 0.09588(12) 0.55411(19) 0.12913(12)
H14_4 H 0.118957 0.509638 0.119694
C24_4 C 0.02551(11) 0.57410(17) 0.07649(11)
C26_4 C 0.03114(12) 0.68365(17) 0.16106(12)
H16_4 H 0.008930 0.726937 0.172334
N1_4 N 0.05769(11) 0.20198(13) 0.44408(13)
N2_4 N 0.09917(9) 0.66527(14) 0.21182(9)
O1_4 O 0.18062(8) 0.63015(11) 0.46400(9)
O2_4 O 0.14410(9) 0.58219(12) 0.35273(9)
C39_4 C 0.19814(11) 0.79743(16) 0.59172(12)
C40_4 C 0.13024(11) 0.79475(16) 0.58046(12)
C41_4 C 0.12201(13) 0.73344(18) 0.62332(14)
H25_4 H 0.158935 0.693568 0.658848
C42_4 C 0.05964(13) 0.73097(18) 0.61381(15)
H26_4 H 0.054080 0.687642 0.641395
C43_4 C 0.00558(12) 0.79292(16) 0.56328(14)
C44_4 C 0.01327(13) 0.85355(18) 0.51994(14)
C45_4 C 0.07504(13) 0.85321(18) 0.52795(13)
H28_4 H 0.079282 0.892736 0.497663
H30_4 H 0.026970 0.935776 0.650275
O10_4 O 0.19714(8) 0.81100(11) 0.53723(8)
O17_4 O 0.07885(9) 0.80791(14) 0.30295(10)
O19_4 O 0.18626(8) 0.82335(12) 0.39993(8)
C30_4 C 0.00750(12) 0.35992(16) 0.90812(11)
H19_4 H 0.054553 0.344860 0.943197
N5_4 N 0.01658(10) 0.46964(14) 0.99556(9)
C15_4 C 0.12371(12) 0.85393(16) 0.36072(12)
C16_4 C 0.10524(11) 0.94319(16) 0.38241(11)
C17_4 C 0.03614(12) 0.96605(17) 0.35017(12)
H9_4 H 0.000726 0.924560 0.314406
H12_4 H 0.204314 0.989891 0.457891
C46_4 C 0.87629(12) 0.14607(16) 0.63928(12)
C47_4 C 0.89476(11) 0.05681(16) 0.61759(11)
C48_4 C 0.96386(12) 0.03395(17) 0.64983(12)
H29_4 H 0.999274 0.075440 0.685594
H32_4 H 0.795686 0.010109 0.542109
O11_4 O 0.92115(9) 0.19209(14) 0.69705(10)
C8_4 C 0.80186(11) 0.20257(16) 0.40828(12)
C9_4 C 0.86976(11) 0.20525(16) 0.41954(12)
C10_4 C 0.87799(13) 0.26656(18) 0.37668(14)
H5_4 H 0.841065 0.306432 0.341152
C11_4 C 0.94036(13) 0.26903(18) 0.38619(15)
H6_4 H 0.945920 0.312358 0.358605
C12_4 C 0.99442(12) 0.20708(16) 0.43672(14)
C13_4 C 0.98673(13) 0.14645(18) 0.48006(14)
C14_4 C 0.92496(13) 0.14679(18) 0.47205(13)
H8_4 H 0.920718 0.107264 0.502337
H10_4 H 0.973030 0.064224 0.349725
C25_4 C 0.99250(12) 0.64008(16) 0.09188(11)
H15_4 H 0.945447 0.655140 0.056803
N3_4 N 0.98342(10) 0.53036(14) 0.00444(9)
C32_4 C 0.84529(11) 0.43118(16) 0.58651(12)
C33_4 C 0.86753(11) 0.52949(16) 0.57704(12)
C34_4 C 0.86237(13) 0.54980(17) 0.51491(13)
H21_4 H 0.842563 0.503443 0.477271
C35_4 C 0.88637(14) 0.63841(17) 0.50813(14)
H22_4 H 0.882780 0.651087 0.466053
C36_4 C 0.91561(12) 0.70824(16) 0.56318(14)
C37_4 C 0.91926(16) 0.68936(19) 0.62457(16)
H23_4 H 0.937492 0.736820 0.661309
C38_4 C 0.89600(16) 0.60039(19) 0.63178(15)
H24_4 H 0.899484 0.587919 0.673808
H27_4 H 0.976768 0.894680 0.485288
C49_4 C 0.98055(12) 0.94994(17) 0.62924(13)
C50_4 C 0.92785(12) 0.88669(16) 0.57707(13)
C51_4 C 0.85858(12) 0.90927(18) 0.54507(14)
H31_4 H 0.823164 0.866835 0.510404
C52_4 C 0.84221(12) 0.99443(18) 0.56460(13)
N6_4 N 0.94231(11) 0.79802(13) 0.55592(13)
O8_4 O 0.85590(9) 0.41781(12) 0.64727(9)
N7_2 N 0.90083(9) 0.33473(14) 0.78818(9)
C27_4 C 0.86925(12) 0.3983(2) 0.80430(12)
H17_4 H 0.821805 0.410717 0.768989
C28_4 C 0.90412(12) 0.44589(19) 0.87087(12)
H18_4 H 0.881043 0.490362 0.880306
C29_4 C 0.97449(11) 0.42590(17) 0.92351(11)
C31_4 C 0.96886(12) 0.31635(17) 0.83894(12)
H20_4 H 0.991070 0.273063 0.827666
loop_
_geom_bond_atom_site_label_1
_geom_bond_atom_site_label_2
_geom_bond_site_symmetry_1
_geom_bond_site_symmetry_2
C22 H13 1_555 1_555
C23 C22 1_555 1_555
H14 C23 1_555 1_555
C24 C23 1_555 1_555
C25 C24 1_555 1_555
H15 C25 1_555 1_555
C26 C25 1_555 1_555
H16 C26 1_555 1_555
N2 C22 1_555 1_555
N3 C24 1_555 1_555
O1 C1 1_555 1_555
O2 C1 1_555 1_555
Zn1 O1 1_555 1_555
Zn2 N2 1_555 1_555
O14 Zn2 1_555 1_555
O16 Zn1 1_555 1_555
O17 Zn2 1_555 1_555
O19 Zn1 1_555 1_555
C26 N2 1_555 1_555
O2 Zn2 1_555 1_555
Zn2 O19 1_555 1_555
C33 C34 1_555 1_555
C35 C34 1_555 1_555
C36 C35 1_555 1_555
C37 C36 1_555 1_555
H23 C37 1_555 1_555
C38 C33 1_555 1_555
H24 C38 1_555 1_555
C39 C40 1_555 1_555
C40 C41 1_555 1_555
C41 H25 1_555 1_555
C42 C41 1_555 1_555
H26 C42 1_555 1_555
C43 C42 1_555 1_555
C44 C43 1_555 1_555
C45 C40 1_555 1_555
C46 C47 1_555 1_555
C47 C48 1_555 1_555
C48 H29 1_555 1_555
C49 C48 1_555 1_555
H30 C49 1_555 1_555
C50 C49 1_555 1_555
C51 C50 1_555 1_555
H31 C51 1_555 1_555
C52 C47 1_555 1_555
H32 C52 1_555 1_555
N6 C36 1_555 1_555
O9 C39 1_555 1_555
O10 Zn1_2 1_555 1_555
O11 C46 1_555 1_555
O12 C46 1_555 1_555
O13 Zn1_2 1_555 1_555
O21 Zn1_2 1_555 1_555
Zn6_2 O12 1_555 1_555
Zn10 O11 1_555 1_555
Zn11 O9 1_555 1_555
C37 C38 1_555 1_555
C39 O10 1_555 1_555
C43 N6 1_555 1_555
C44 C45 1_555 1_555
C50 N6 1_555 1_555
C51 C52 1_555 1_555
O12 Zn10 1_555 1_555
O21 Zn11 1_555 1_555
C2 C3 1_555 1_555
C4 C3 1_555 1_555
C5 C4 1_555 1_555
C6 C5 1_555 1_555
H3 C6 1_555 1_555
C7 C2 1_555 1_555
H4 C7 1_555 1_555
C8 C9 1_555 1_555
C9 C10 1_555 1_555
C10 H5 1_555 1_555
C11 C10 1_555 1_555
H6 C11 1_555 1_555
C12 C11 1_555 1_555
C13 C12 1_555 1_555
C14 C9 1_555 1_555
C15 C16 1_555 1_555
C16 C17 1_555 1_555
C17 H9 1_555 1_555
C18 C17 1_555 1_555
H10 C18 1_555 1_555
C19 C18 1_555 1_555
C20 C19 1_555 1_555
H11 C20 1_555 1_555
C21 C16 1_555 1_555
H12 C21 1_555 1_555
N1 C5 1_555 1_555
O3 C8 1_555 1_555
O4 C8 1_555 1_555
O17 C15 1_555 1_555
O19 C15 1_555 1_555
C27 H17 1_555 1_555
C28 C27 1_555 1_555
H18 C28 1_555 1_555
C29 C28 1_555 1_555
C30 C29 1_555 1_555
H19 C30 1_555 1_555
C31 C30 1_555 1_555
H20 C31 1_555 1_555
N4 C27 1_555 1_555
Zn6 O4 1_555 1_555
Zn8 O3 1_555 1_555
Zn10 N4 1_555 1_555
C6 C7 1_555 1_555
C12 N1 1_555 1_555
C13 C14 1_555 1_555
C19 N1 1_555 1_555
C20 C21 1_555 1_555
C29 N5 1_555 1_555
C31 N4 1_555 1_555
O7 C32 1_555 1_555
O8 C32 1_555 1_555
Zn10 O8 1_555 1_555
O15 Zn10 1_555 1_555
O7 Zn6_2 1_555 1_555
C46_2 C47_2 1_555 1_555
C47_2 C48_2 1_555 1_555
C48_2 H29_2 1_555 1_555
O11_2 C46_2 1_555 1_555
O21 C46_2 1_555 1_555
Zn11 O11_2 1_555 1_555
C8_2 C9_2 1_555 1_555
C9_2 C10_2 1_555 1_555
C10_2 H5_2 1_555 1_555
C11_2 C10_2 1_555 1_555
H6_2 C11_2 1_555 1_555
C12_2 C11_2 1_555 1_555
C13_2 C12_2 1_555 1_555
C14_2 C9_2 1_555 1_555
H15_2 C25_2 1_555 1_555
O14 C8_2 1_555 1_555
O16 C8_2 1_555 1_555
C27_2 H17_2 1_555 1_555
C28_2 C27_2 1_555 1_555
H18_2 C28_2 1_555 1_555
C29_2 C28_2 1_555 1_555
H20_2 C31_2 1_555 1_555
N4_2 C27_2 1_555 1_555
Zn11 N4_2 1_555 1_555
C13_2 C14_2 1_555 1_555
C31_2 N4_2 1_555 1_555
C32_2 C33_2 1_555 1_555
C33_2 C34_2 1_555 1_555
C35_2 C34_2 1_555 1_555
C36_2 C35_2 1_555 1_555
C37_2 C36_2 1_555 1_555
H23_2 C37_2 1_555 1_555
C38_2 C33_2 1_555 1_555
H24_2 C38_2 1_555 1_555
C50_2 C49_2 1_555 1_555
C51_2 C50_2 1_555 1_555
H31_2 C51_2 1_555 1_555
N6_2 C36_2 1_555 1_555
O13 C32_2 1_555 1_555
O8_2 C32_2 1_555 1_555
Zn11 O8_2 1_555 1_555
C37_2 C38_2 1_555 1_555
C50_2 N6_2 1_555 1_555
C51_2 C52_2 1_555 1_555
C1_2 C2_2 1_555 1_555
C2_2 C3_2 1_555 1_555
C4_2 C3_2 1_555 1_555
C5_2 C4_2 1_555 1_555
C6_2 C5_2 1_555 1_555
H3_2 C6_2 1_555 1_555
C7_2 C2_2 1_555 1_555
H4_2 C7_2 1_555 1_555
C19_2 C18_2 1_555 1_555
C20_2 C19_2 1_555 1_555
H11_2 C20_2 1_555 1_555
C22_2 H13_2 1_555 1_555
C23_2 C22_2 1_555 1_555
H14_2 C23_2 1_555 1_555
C24_2 C23_2 1_555 1_555
H16_2 C26_2 1_555 1_555
N1_2 C5_2 1_555 1_555
N2_2 C22_2 1_555 1_555
O1_2 C1_2 1_555 1_555
O2_2 C1_2 1_555 1_555
Zn6 O1_2 1_555 1_555
Zn8 N2_2 1_555 1_555
H19_2 C30_2 1_555 1_555
O17_2 Zn8 1_555 1_555
O19_2 Zn6 1_555 1_555
C6_2 C7_2 1_555 1_555
C19_2 N1_2 1_555 1_555
C20_2 C21_2 1_555 1_555
C26_2 N2_2 1_555 1_555
O2_2 Zn8 1_555 1_555
Zn8 O19_2 1_555 1_555
C39_2 C40_2 1_555 1_555
C40_2 C41_2 1_555 1_555
C41_2 H25_2 1_555 1_555
C42_2 C41_2 1_555 1_555
H26_2 C42_2 1_555 1_555
C43_2 C42_2 1_555 1_555
C44_2 C43_2 1_555 1_555
C45_2 C40_2 1_555 1_555
O15 C39_2 1_555 1_555
O10_2 Zn6_2 1_555 1_555
C39_2 O10_2 1_555 1_555
C44_2 C45_2 1_555 1_555
C15_2 C16_2 1_555 1_555
C16_2 C17_2 1_555 1_555
C17_2 H9_2 1_555 1_555
O17_2 C15_2 1_555 1_555
O19_2 C15_2 1_555 1_555
C22_3 H13_3 1_555 1_555
C23_3 C22_3 1_555 1_555
H14_3 C23_3 1_555 1_555
C24_3 C23_3 1_555 1_555
C25_3 C24_3 1_555 1_555
H15_3 C25_3 1_555 1_555
C26_3 C25_3 1_555 1_555
H16_3 C26_3 1_555 1_555
N2_3 C22_3 1_555 1_555
N3_3 C24_3 1_555 1_555
O1_3 C1_3 1_555 1_555
O2_3 C1_3 1_555 1_555
Zn1_3 O1_3 1_555 1_555
Zn2_2 N2_3 1_555 1_555
C33_3 C34_3 1_555 1_555
C34_3 H21_3 1_555 1_555
C35_3 C34_3 1_555 1_555
H22_3 C35_3 1_555 1_555
C36_3 C35_3 1_555 1_555
C37_3 C36_3 1_555 1_555
H23_3 C37_3 1_555 1_555
C38_3 C33_3 1_555 1_555
H24_3 C38_3 1_555 1_555
C39_3 C40_3 1_555 1_555
C40_3 C41_3 1_555 1_555
C41_3 H25_3 1_555 1_555
C42_3 C41_3 1_555 1_555
H26_3 C42_3 1_555 1_555
C43_3 C42_3 1_555 1_555
C44_3 C43_3 1_555 1_555
H27_3 C44_3 1_555 1_555
C45_3 C40_3 1_555 1_555
H28_3 C45_3 1_555 1_555
C46_3 C47_3 1_555 1_555
C47_3 C48_3 1_555 1_555
C48_3 H29_3 1_555 1_555
C49_3 C48_3 1_555 1_555
H30_3 C49_3 1_555 1_555
C50_3 C49_3 1_555 1_555
C51_3 C50_3 1_555 1_555
H31_3 C51_3 1_555 1_555
C52_3 C47_3 1_555 1_555
H32_3 C52_3 1_555 1_555
N6_3 C36_3 1_555 1_555
O9_2 C39_3 1_555 1_555
O10_3 Zn1_3 1_555 1_555
O11_3 C46_3 1_555 1_555
O12_2 C46_3 1_555 1_555
O13_2 Zn1_3 1_555 1_555
O14_2 Zn2_2 1_555 1_555
O16_2 Zn1_3 1_555 1_555
O17_3 Zn2_2 1_555 1_555
O19_3 Zn1_3 1_555 1_555
O21_2 Zn1_3 1_555 1_555
Zn6_3 O12_2 1_555 1_555
Zn10_2 O11_3 1_555 1_555
Zn11_2 O9_2 1_555 1_555
C26_3 N2_3 1_555 1_555
O2_3 Zn2_2 1_555 1_555
Zn2_2 O19_3 1_555 1_555
C37_3 C38_3 1_555 1_555
C39_3 O10_3 1_555 1_555
C43_3 N6_3 1_555 1_555
C44_3 C45_3 1_555 1_555
C50_3 N6_3 1_555 1_555
C51_3 C52_3 1_555 1_555
O12_2 Zn10_2 1_555 1_555
O21_2 Zn11_2 1_555 1_555
C2_3 C3_3 1_555 1_555
C3_3 H1_3 1_555 1_555
C4_3 C3_3 1_555 1_555
H2_3 C4_3 1_555 1_555
C5_3 C4_3 1_555 1_555
C6_3 C5_3 1_555 1_555
H3_3 C6_3 1_555 1_555
C7_3 C2_3 1_555 1_555
H4_3 C7_3 1_555 1_555
C8_3 C9_3 1_555 1_555
C9_3 C10_3 1_555 1_555
C10_3 H5_3 1_555 1_555
C11_3 C10_3 1_555 1_555
H6_3 C11_3 1_555 1_555
C12_3 C11_3 1_555 1_555
C13_3 C12_3 1_555 1_555
H7_3 C13_3 1_555 1_555
C14_3 C9_3 1_555 1_555
H8_3 C14_3 1_555 1_555
C15_3 C16_3 1_555 1_555
C16_3 C17_3 1_555 1_555
C17_3 H9_3 1_555 1_555
C18_3 C17_3 1_555 1_555
H10_3 C18_3 1_555 1_555
C19_3 C18_3 1_555 1_555
C20_3 C19_3 1_555 1_555
H11_3 C20_3 1_555 1_555
C21_3 C16_3 1_555 1_555
H12_3 C21_3 1_555 1_555
N1_3 C5_3 1_555 1_555
O3_2 C8_3 1_555 1_555
O4_2 C8_3 1_555 1_555
O17_3 C15_3 1_555 1_555
O19_3 C15_3 1_555 1_555
O7_2 C32_3 1_555 1_555
O8_3 C32_3 1_555 1_555
Zn10_2 O8_3 1_555 1_555
N7 Zn10_2 1_555 1_555
O15_2 Zn10_2 1_555 1_555
Zn6_3 O4_2 1_555 1_555
Zn8_2 O3_2 1_555 1_555
C6_3 C7_3 1_555 1_555
C12_3 N1_3 1_555 1_555
C13_3 C14_3 1_555 1_555
C19_3 N1_3 1_555 1_555
C20_3 C21_3 1_555 1_555
O7_2 Zn6_3 1_555 1_555
C27_3 H17_3 1_555 1_555
C28_3 C27_3 1_555 1_555
H18_3 C28_3 1_555 1_555
C29_3 C28_3 1_555 1_555
C30_3 C29_3 1_555 1_555
H19_3 C30_3 1_555 1_555
C31_3 C30_3 1_555 1_555
H20_3 C31_3 1_555 1_555
N7 C27_3 1_555 1_555
C29_3 N5_3 1_555 1_555
C31_3 N7 1_555 1_555
C1_4 C2_4 1_555 1_555
C2_4 C3_4 1_555 1_555
C3_4 H1_4 1_555 1_555
C4_4 C3_4 1_555 1_555
H2_4 C4_4 1_555 1_555
C5_4 C4_4 1_555 1_555
C6_4 C5_4 1_555 1_555
H3_4 C6_4 1_555 1_555
C7_4 C2_4 1_555 1_555
H4_4 C7_4 1_555 1_555
C19_4 C18_4 1_555 1_555
C20_4 C19_4 1_555 1_555
H11_4 C20_4 1_555 1_555
C22_4 H13_4 1_555 1_555
C23_4 C22_4 1_555 1_555
H14_4 C23_4 1_555 1_555
C24_4 C23_4 1_555 1_555
H16_4 C26_4 1_555 1_555
N1_4 C5_4 1_555 1_555
N2_4 C22_4 1_555 1_555
O1_4 C1_4 1_555 1_555
O2_4 C1_4 1_555 1_555
Zn6_3 O1_4 1_555 1_555
Zn8_2 N2_4 1_555 1_555
C39_4 C40_4 1_555 1_555
C40_4 C41_4 1_555 1_555
C41_4 H25_4 1_555 1_555
C42_4 C41_4 1_555 1_555
H26_4 C42_4 1_555 1_555
C43_4 C42_4 1_555 1_555
C44_4 C43_4 1_555 1_555
C45_4 C40_4 1_555 1_555
H28_4 C45_4 1_555 1_555
O15_2 C39_4 1_555 1_555
O10_4 Zn6_3 1_555 1_555
O17_4 Zn8_2 1_555 1_555
O19_4 Zn6_3 1_555 1_555
C6_4 C7_4 1_555 1_555
C19_4 N1_4 1_555 1_555
C20_4 C21_4 1_555 1_555
C26_4 N2_4 1_555 1_555
O2_4 Zn8_2 1_555 1_555
Zn8_2 O19_4 1_555 1_555
C39_4 O10_4 1_555 1_555
C44_4 C45_4 1_555 1_555
H19_4 C30_4 1_555 1_555
C15_4 C16_4 1_555 1_555
C16_4 C17_4 1_555 1_555
C17_4 H9_4 1_555 1_555
O17_4 C15_4 1_555 1_555
O19_4 C15_4 1_555 1_555
C46_4 C47_4 1_555 1_555
C47_4 C48_4 1_555 1_555
C48_4 H29_4 1_555 1_555
O11_4 C46_4 1_555 1_555
O21_2 C46_4 1_555 1_555
Zn11_2 O11_4 1_555 1_555
C8_4 C9_4 1_555 1_555
C9_4 C10_4 1_555 1_555
C10_4 H5_4 1_555 1_555
C11_4 C10_4 1_555 1_555
H6_4 C11_4 1_555 1_555
C12_4 C11_4 1_555 1_555
C13_4 C12_4 1_555 1_555
C14_4 C9_4 1_555 1_555
H8_4 C14_4 1_555 1_555
H15_4 C25_4 1_555 1_555
O14_2 C8_4 1_555 1_555
O16_2 C8_4 1_555 1_555
C32_4 C33_4 1_555 1_555
C33_4 C34_4 1_555 1_555
C34_4 H21_4 1_555 1_555
C35_4 C34_4 1_555 1_555
H22_4 C35_4 1_555 1_555
C36_4 C35_4 1_555 1_555
C37_4 C36_4 1_555 1_555
H23_4 C37_4 1_555 1_555
C38_4 C33_4 1_555 1_555
H24_4 C38_4 1_555 1_555
C50_4 C49_4 1_555 1_555
C51_4 C50_4 1_555 1_555
H31_4 C51_4 1_555 1_555
N6_4 C36_4 1_555 1_555
O13_2 C32_4 1_555 1_555
O8_4 C32_4 1_555 1_555
Zn11_2 O8_4 1_555 1_555
N7_2 Zn11_2 1_555 1_555
C13_4 C14_4 1_555 1_555
C37_4 C38_4 1_555 1_555
C50_4 N6_4 1_555 1_555
C51_4 C52_4 1_555 1_555
C27_4 H17_4 1_555 1_555
C28_4 C27_4 1_555 1_555
H18_4 C28_4 1_555 1_555
C29_4 C28_4 1_555 1_555
H20_4 C31_4 1_555 1_555
N7_2 C27_4 1_555 1_555
C31_4 N7_2 1_555 1_555

#END
