
###############################################################################
#
# This file contains modified crystal structure data generated from the
# MOF subset of the Cambridge Structural Database (CSD) v543 
# hosted by the Cambridge Crystallographic Data Centre (CCDC).
#
# This work is licensed under the Creative Commons
# Attribution-NonCommercial-ShareAlike 4.0 International License.
# To view a copy of this license, visit
# http://creativecommons.org/licenses/by-nc-sa/4.0/
# or send a letter to
# Creative Commons, PO Box 1866, Mountain View, CA 94042, USA.
#
# CIF created using the CSD Python API on 29 September 2022
# The structure has been converted into the P1 space group
# The structure has a 3D framework
# The original CSD entry GUBJAR is in the monoclinic crystal system
# The framework has been calculated to contain at least 10.0% void space
# The void calculation uses a probe of radius 1.32A, grid spacing 0.4
#
###############################################################################

data_GUBJAR
_chemical_formula_moiety         '(C208 H128 N24 O48 Zn14)n'
_symmetry_cell_setting           triclinic
_symmetry_space_group_name_H-M   'P 1'
_symmetry_Int_Tables_number      1
_space_group_name_Hall           'P 1'
loop_
_symmetry_equiv_pos_site_id
_symmetry_equiv_pos_as_xyz
1 x,y,z
_cell_length_a                   24.3603(11)
_cell_length_b                   13.3966(3)
_cell_length_c                   22.8922(11)
_cell_angle_alpha                90
_cell_angle_beta                 127.056(7)
_cell_angle_gamma                90
_cell_volume                     5962.02
loop_
_atom_site_label
_atom_site_type_symbol
_atom_site_fract_x
_atom_site_fract_y
_atom_site_fract_z
O3 O 0.31527(9) 0.17691(13) 0.60044(10)
O4 O 0.42234(11) 0.20185(17) 0.69157(12)
C15 C 0.37816(12) 0.15147(18) 0.63685(13)
C16 C 0.39725(12) 0.06162(18) 0.61572(14)
C17 C 0.46573(13) 0.03973(19) 0.64842(15)
H11 H 0.500100 0.082537 0.683540
H14 H 0.300060 0.012278 0.541197
Zn4 Zn 0.250000 0.250000 0.500000
Zn7 Zn 0.34366(2) 0.29200(2) 0.67977(2)
C27 C 0.53244(13) 0.6794(2) 0.16432(14)
H17 H 0.510895 0.722312 0.176682
C28 C 0.49398(13) 0.63756(19) 0.09497(13)
H18 H 0.447612 0.652963 0.060957
C29 C 0.52601(12) 0.57249(19) 0.07745(12)
C30 C 0.59528(14) 0.5513(2) 0.12898(14)
H19 H 0.617763 0.507330 0.118433
C31 C 0.62975(14) 0.5971(2) 0.19603(14)
H20 H 0.676363 0.583742 0.230683
N4 N 0.59909(11) 0.66033(17) 0.21381(11)
N5 N 0.48421(11) 0.53023(17) 0.00538(11)
Zn10 Zn 0.65634(2) 0.70800(2) 0.32023(2)
O1 O 0.69812(9) 0.81021(14) 0.53853(10)
O2 O 0.75226(10) 0.78272(17) 0.65799(10)
O5 O 0.35016(11) 0.42003(15) 0.64313(11)
O6 O 0.31601(9) 0.37203(14) 0.53262(10)
C1 C 0.34225(12) 0.43322(18) 0.58394(13)
C2 C 0.36749(12) 0.53017(18) 0.57660(14)
C3 C 0.56122(16) 0.7277(2) 0.61421(19)
H1 H 0.555062 0.683222 0.641003
C4 C 0.62313(15) 0.7292(2) 0.62347(18)
H2 H 0.658889 0.687535 0.657898
C5 C 0.46756(13) 0.3206(2) 0.83568(14)
H3 H 0.489105 0.277688 0.823318
C6 C 0.50602(13) 0.36244(19) 0.90503(13)
H4 H 0.552388 0.347037 0.939043
C7 C 0.47399(12) 0.42751(19) 0.92255(12)
C8 C 0.40472(14) 0.4487(2) 0.87102(14)
H5 H 0.382237 0.492670 0.881567
C9 C 0.37025(14) 0.4029(2) 0.80397(14)
H6 H 0.323637 0.416258 0.769317
N1 N 0.44683(14) 0.79786(16) 0.55841(18)
N2 N 0.40091(11) 0.33967(17) 0.78619(11)
N3 N 0.51579(11) 0.46977(17) 0.99462(11)
C10 C 0.36389(16) 0.5502(2) 0.51542(17)
H7 H 0.343983 0.503882 0.477557
C11 C 0.38985(18) 0.6394(2) 0.50972(19)
H8 H 0.386989 0.652180 0.468041
C12 C 0.41945(14) 0.70803(19) 0.56495(18)
C13 C 0.4220(2) 0.6895(2) 0.6258(2)
H9 H 0.440996 0.736672 0.663025
C14 C 0.3963(2) 0.6006(2) 0.63180(19)
H10 H 0.398458 0.588473 0.673159
C18 C 0.48300(13) 0.9541(2) 0.62877(17)
H12 H 0.528809 0.940690 0.649439
C19 C 0.43173(14) 0.88810(19) 0.57808(17)
C20 C 0.36320(14) 0.9102(2) 0.54619(19)
H13 H 0.328816 0.866045 0.512701
C21 C 0.34603(13) 0.9969(2) 0.56393(16)
C22 C 0.69907(13) 0.79536(18) 0.59277(14)
C23 C 0.63189(13) 0.79225(18) 0.58192(14)
C24 C 0.57885(15) 0.8536(2) 0.53123(17)
H15 H 0.583865 0.894671 0.501968
C25 C 0.51756(15) 0.8546(2) 0.52343(19)
H16 H 0.482232 0.897559 0.489872
C26 C 0.50912(14) 0.79199(18) 0.56544(18)
O7 O 0.30188(9) 0.18979(14) 0.46147(10)
O8 O 0.24774(10) 0.21728(17) 0.34201(10)
O11 O 0.64984(11) 0.57997(15) 0.35687(11)
O12 O 0.68399(9) 0.62797(14) 0.46738(10)
C32 C 0.65775(12) 0.56678(18) 0.41606(13)
C33 C 0.63251(12) 0.46983(18) 0.42340(14)
C34 C 0.43878(16) 0.2723(2) 0.38579(19)
H21 H 0.444938 0.316778 0.358997
C35 C 0.37687(15) 0.2708(2) 0.37653(18)
H22 H 0.341111 0.312465 0.342102
N6 N 0.55317(14) 0.20214(16) 0.44159(18)
C36 C 0.63611(16) 0.4498(2) 0.48458(17)
H23 H 0.656017 0.496118 0.522443
C37 C 0.61015(18) 0.3606(2) 0.49028(19)
H24 H 0.613011 0.347820 0.531959
C38 C 0.58055(14) 0.29197(19) 0.43505(18)
C39 C 0.5780(2) 0.3105(2) 0.3742(2)
H25 H 0.559004 0.263328 0.336975
C40 C 0.6037(2) 0.3994(2) 0.36820(19)
H26 H 0.601542 0.411527 0.326841
C44 C 0.51700(13) 0.0459(2) 0.37123(17)
H28 H 0.471191 0.059310 0.350561
C45 C 0.56827(14) 0.11190(19) 0.42192(17)
C46 C 0.63680(14) 0.0898(2) 0.45381(19)
H29 H 0.671184 0.133955 0.487299
C47 C 0.65397(13) 0.0031(2) 0.43607(16)
C48 C 0.30093(13) 0.20464(18) 0.40723(14)
C49 C 0.36811(13) 0.20775(18) 0.41808(14)
C50 C 0.42115(15) 0.1464(2) 0.46877(17)
H31 H 0.416135 0.105329 0.498032
C51 C 0.48244(15) 0.1454(2) 0.47657(19)
H32 H 0.517768 0.102441 0.510128
C52 C 0.49088(14) 0.20801(18) 0.43456(18)
O13 O 0.19812(9) 0.31021(14) 0.53853(10)
O14 O 0.25226(10) 0.28272(17) 0.65799(10)
O15 O 0.74774(10) 0.71728(17) 0.34201(10)
O17 O 0.68473(9) 0.82309(13) 0.39956(10)
O18 O 0.18473(9) 0.32309(13) 0.39956(10)
O20 O 0.57766(11) 0.79815(17) 0.30843(12)
O21 O 0.18399(9) 0.12797(14) 0.46738(10)
Zn6 Zn 0.750000 0.750000 0.500000
Zn8 Zn 0.84366(2) 0.79200(2) 0.67977(2)
Zn11 Zn 0.15634(2) 0.20800(2) 0.32023(2)
C41 C 0.62184(12) 0.84853(18) 0.36315(13)
C42 C 0.60275(12) 0.93838(18) 0.38428(14)
C43 C 0.53427(13) 0.96027(19) 0.35158(15)
H27 H 0.499900 0.917463 0.316460
H30 H 0.699940 0.987722 0.458803
C27_2 C 0.03244(13) 0.1794(2) 0.16432(14)
H17_2 H 0.010895 0.222312 0.176682
C29_2 C 0.02601(12) 0.07249(19) 0.07745(12)
C30_2 C 0.09528(14) 0.0513(2) 0.12898(14)
H19_2 H 0.117763 0.007330 0.118433
C31_2 C 0.12975(14) 0.0971(2) 0.19603(14)
H20_2 H 0.176363 0.083742 0.230683
N4_2 N 0.09909(11) 0.16033(17) 0.21381(11)
C3_2 C 0.06122(16) 0.2277(2) 0.61421(19)
H1_2 H 0.055062 0.183222 0.641003
C4_2 C 0.12313(15) 0.2292(2) 0.62347(18)
H2_2 H 0.158889 0.187535 0.657898
H11_2 H 0.000100 0.582537 0.683540
H12_2 H 0.028809 0.440690 0.649439
C22_2 C 0.19907(13) 0.29536(18) 0.59277(14)
C23_2 C 0.13189(13) 0.29225(18) 0.58192(14)
C24_2 C 0.07885(15) 0.3536(2) 0.53123(17)
H15_2 H 0.083865 0.394671 0.501968
C25_2 C 0.01756(15) 0.3546(2) 0.52343(19)
C26_2 C 0.00912(14) 0.29199(18) 0.56544(18)
O11_2 O 0.14984(11) 0.07997(15) 0.35687(11)
C32_2 C 0.15775(12) 0.06678(18) 0.41606(13)
O20_2 O 0.07766(11) 0.29815(17) 0.30843(12)
C6_2 C 0.00602(13) 0.86244(19) 0.90503(13)
H4_2 H 0.052388 0.847037 0.939043
N3_2 N 0.01579(11) 0.96977(17) 0.99462(11)
C33_2 C 0.13251(12) 0.96983(18) 0.42340(14)
N6_2 N 0.05317(14) 0.70214(16) 0.44159(18)
C36_2 C 0.13611(16) 0.9498(2) 0.48458(17)
H23_2 H 0.156017 0.996118 0.522443
C37_2 C 0.11015(18) 0.8606(2) 0.49028(19)
H24_2 H 0.113011 0.847820 0.531959
C38_2 C 0.08055(14) 0.79197(19) 0.43505(18)
C39_2 C 0.0780(2) 0.8105(2) 0.3742(2)
H25_2 H 0.059004 0.763328 0.336975
C40_2 C 0.1037(2) 0.8994(2) 0.36820(19)
H26_2 H 0.101542 0.911527 0.326841
C41_2 C 0.12184(12) 0.34853(18) 0.36315(13)
C42_2 C 0.10275(12) 0.43838(18) 0.38428(14)
C43_2 C 0.03427(13) 0.46027(19) 0.35158(15)
C44_2 C 0.01700(13) 0.5459(2) 0.37123(17)
C45_2 C 0.06827(14) 0.61190(19) 0.42192(17)
C46_2 C 0.13680(14) 0.5898(2) 0.45381(19)
H29_2 H 0.171184 0.633955 0.487299
C47_2 C 0.15397(13) 0.5031(2) 0.43607(16)
H30_2 H 0.199940 0.487722 0.458803
H32_2 H 0.017768 0.602441 0.510128
C28_2 C 0.99398(13) 0.13756(19) 0.09497(13)
H18_2 H 0.947612 0.152963 0.060957
N5_2 N 0.98421(11) 0.03023(17) 0.00538(11)
O3_2 O 0.81527(9) 0.67691(13) 0.60044(10)
O4_2 O 0.92234(11) 0.70185(17) 0.69157(12)
C2_2 C 0.86749(12) 0.03017(18) 0.57660(14)
N1_2 N 0.94683(14) 0.29786(16) 0.55841(18)
C10_2 C 0.86389(16) 0.0502(2) 0.51542(17)
H7_2 H 0.843983 0.003882 0.477557
C11_2 C 0.88985(18) 0.1394(2) 0.50972(19)
H8_2 H 0.886989 0.152180 0.468041
C12_2 C 0.91945(14) 0.20803(19) 0.56495(18)
C13_2 C 0.9220(2) 0.1895(2) 0.6258(2)
H9_2 H 0.940996 0.236672 0.663025
C14_2 C 0.8963(2) 0.1006(2) 0.63180(19)
H10_2 H 0.898458 0.088473 0.673159
C15_2 C 0.87816(12) 0.65147(18) 0.63685(13)
C16_2 C 0.89725(12) 0.56162(18) 0.61572(14)
C17_2 C 0.96573(13) 0.53973(19) 0.64842(15)
C18_2 C 0.98300(13) 0.4541(2) 0.62877(17)
C19_2 C 0.93173(14) 0.38810(19) 0.57808(17)
C20_2 C 0.86320(14) 0.4102(2) 0.54619(19)
H13_2 H 0.828816 0.366045 0.512701
C21_2 C 0.84603(13) 0.4969(2) 0.56393(16)
H14_2 H 0.800060 0.512278 0.541197
H16_2 H 0.982232 0.397559 0.489872
O5_2 O 0.85016(11) 0.92003(15) 0.64313(11)
O6_2 O 0.81601(9) 0.87203(14) 0.53262(10)
C1_2 C 0.84225(12) 0.93322(18) 0.58394(13)
C5_2 C 0.96756(13) 0.8206(2) 0.83568(14)
H3_2 H 0.989105 0.777688 0.823318
C7_2 C 0.97399(12) 0.92751(19) 0.92255(12)
C8_2 C 0.90472(14) 0.9487(2) 0.87102(14)
H5_2 H 0.882237 0.992670 0.881567
C9_2 C 0.87025(14) 0.9029(2) 0.80397(14)
H6_2 H 0.823637 0.916258 0.769317
N2_2 N 0.90091(11) 0.83967(17) 0.78619(11)
O7_2 O 0.80188(9) 0.68979(14) 0.46147(10)
C34_2 C 0.93878(16) 0.7723(2) 0.38579(19)
H21_2 H 0.944938 0.816778 0.358997
C35_2 C 0.87687(15) 0.7708(2) 0.37653(18)
H22_2 H 0.841111 0.812465 0.342102
H27_2 H 0.999900 0.417463 0.316460
H28_2 H 0.971191 0.559310 0.350561
C48_2 C 0.80093(13) 0.70464(18) 0.40723(14)
C49_2 C 0.86811(13) 0.70775(18) 0.41808(14)
C50_2 C 0.92115(15) 0.6464(2) 0.46877(17)
H31_2 H 0.916135 0.605329 0.498032
C51_2 C 0.98244(15) 0.6454(2) 0.47657(19)
C52_2 C 0.99088(14) 0.70801(18) 0.43456(18)
Zn4_2 Zn 0.750000 0.250000 -0.000000
O3_3 O 0.68473(9) 0.17691(13) 0.89956(10)
O4_3 O 0.57766(11) 0.20185(17) 0.80843(12)
C15_3 C 0.62184(12) 0.15147(18) 0.86315(13)
C16_3 C 0.60275(12) 0.06162(18) 0.88428(14)
C17_3 C 0.53427(13) 0.03973(19) 0.85158(15)
H11_3 H 0.499900 0.082537 0.816460
H14_3 H 0.699940 0.012278 0.958803
Zn4_3 Zn 0.750000 0.250000 1.000000
Zn7_2 Zn 0.65634(2) 0.29200(2) 0.82023(2)
H7_3 H 0.656017 0.503882 0.022443
H8_3 H 0.613011 0.652180 0.031959
H16_3 H 0.517768 0.897559 0.010128
O7_3 O 0.69812(9) 0.18979(14) 0.03853(10)
O8_2 O 0.75226(10) 0.21728(17) 0.15799(10)
O11_3 O 0.35016(11) 0.57997(15) 0.14313(11)
O12_2 O 0.31601(9) 0.62797(14) 0.03262(10)
C32_3 C 0.34225(12) 0.56678(18) 0.08394(13)
C33_3 C 0.36749(12) 0.46983(18) 0.07660(14)
C34_3 C 0.56122(16) 0.2723(2) 0.11421(19)
H21_3 H 0.555062 0.316778 0.141003
C35_3 C 0.62313(15) 0.2708(2) 0.12347(18)
H22_3 H 0.658889 0.312465 0.157898
N6_3 N 0.44683(14) 0.20214(16) 0.05841(18)
Zn3 Zn 0.34366(2) 0.70800(2) 0.17977(2)
C36_3 C 0.36389(16) 0.4498(2) 0.01542(17)
C37_3 C 0.38985(18) 0.3606(2) 0.00972(19)
C38_3 C 0.41945(14) 0.29197(19) 0.06495(18)
C39_3 C 0.4220(2) 0.3105(2) 0.1258(2)
H25_3 H 0.440996 0.263328 0.163025
C40_3 C 0.3963(2) 0.3994(2) 0.13180(19)
H26_3 H 0.398458 0.411527 0.173159
C44_3 C 0.48300(13) 0.0459(2) 0.12877(17)
H28_3 H 0.528809 0.059310 0.149439
C45_3 C 0.43173(14) 0.11190(19) 0.07808(17)
C46_3 C 0.36320(14) 0.0898(2) 0.04619(19)
H29_3 H 0.328816 0.133955 0.012701
C47_3 C 0.34603(13) 0.0031(2) 0.06393(16)
C48_3 C 0.69907(13) 0.20464(18) 0.09277(14)
C49_3 C 0.63189(13) 0.20775(18) 0.08192(14)
C50_3 C 0.57885(15) 0.1464(2) 0.03123(17)
H31_3 H 0.583865 0.105329 0.001968
C51_3 C 0.51756(15) 0.1454(2) 0.02343(19)
C52_3 C 0.50912(14) 0.20801(18) 0.06544(18)
O15_2 O 0.25226(10) 0.71728(17) 0.15799(10)
O17_2 O 0.31527(9) 0.82309(13) 0.10044(10)
O18_2 O 0.81527(9) 0.32309(13) 0.10044(10)
O20_3 O 0.42234(11) 0.79815(17) 0.19157(12)
O21_2 O 0.81601(9) 0.12797(14) 0.03262(10)
N7 N 0.40091(11) 0.66033(17) 0.28619(11)
Zn6_2 Zn 0.250000 0.750000 -0.000000
Zn11_2 Zn 0.84366(2) 0.20800(2) 0.17977(2)
O1_2 O 0.30188(9) 0.81021(14) 0.96147(10)
O2_2 O 0.24774(10) 0.78272(17) 0.84201(10)
O5_3 O 0.64984(11) 0.42003(15) 0.85687(11)
O6_3 O 0.68399(9) 0.37203(14) 0.96738(10)
C1_3 C 0.65775(12) 0.43322(18) 0.91606(13)
C2_3 C 0.63251(12) 0.53017(18) 0.92340(14)
C3_3 C 0.43878(16) 0.7277(2) 0.88579(19)
H1_3 H 0.444938 0.683222 0.858997
C4_3 C 0.37687(15) 0.7292(2) 0.87653(18)
H2_3 H 0.341111 0.687535 0.842102
C5_3 C 0.53244(13) 0.3206(2) 0.66432(14)
H3_3 H 0.510895 0.277688 0.676682
C6_3 C 0.49398(13) 0.36244(19) 0.59497(13)
H4_3 H 0.447612 0.347037 0.560957
C7_3 C 0.52601(12) 0.42751(19) 0.57745(12)
C8_3 C 0.59528(14) 0.4487(2) 0.62898(14)
H5_3 H 0.617763 0.492670 0.618433
C9_3 C 0.62975(14) 0.4029(2) 0.69603(14)
H6_3 H 0.676363 0.416258 0.730683
N1_3 N 0.55317(14) 0.79786(16) 0.94159(18)
N2_3 N 0.59909(11) 0.33967(17) 0.71381(11)
N3_3 N 0.48421(11) 0.46977(17) 0.50538(11)
C10_3 C 0.63611(16) 0.5502(2) 0.98458(17)
C11_3 C 0.61015(18) 0.6394(2) 0.99028(19)
C12_3 C 0.58055(14) 0.70803(19) 0.93505(18)
C13_3 C 0.5780(2) 0.6895(2) 0.8742(2)
H9_3 H 0.559004 0.736672 0.836975
C14_3 C 0.6037(2) 0.6006(2) 0.86820(19)
H10_3 H 0.601542 0.588473 0.826841
C18_3 C 0.51700(13) 0.9541(2) 0.87123(17)
H12_3 H 0.471191 0.940690 0.850561
C19_3 C 0.56827(14) 0.88810(19) 0.92192(17)
C20_3 C 0.63680(14) 0.9102(2) 0.95381(19)
H13_3 H 0.671184 0.866045 0.987299
C21_3 C 0.65397(13) 0.9969(2) 0.93607(16)
C22_3 C 0.30093(13) 0.79536(18) 0.90723(14)
C23_3 C 0.36811(13) 0.79225(18) 0.91808(14)
C24_3 C 0.42115(15) 0.8536(2) 0.96877(17)
H15_3 H 0.416135 0.894671 0.998032
C25_3 C 0.48244(15) 0.8546(2) 0.97657(19)
C26_3 C 0.49088(14) 0.79199(18) 0.93456(18)
C27_3 C 0.46756(13) 0.6794(2) 0.33568(14)
H17_3 H 0.489105 0.722312 0.323318
C28_3 C 0.50602(13) 0.63756(19) 0.40503(13)
H18_3 H 0.552388 0.652963 0.439043
C29_3 C 0.47399(12) 0.57249(19) 0.42255(12)
C30_3 C 0.40472(14) 0.5513(2) 0.37102(14)
H19_3 H 0.382237 0.507330 0.381567
C31_3 C 0.37025(14) 0.5971(2) 0.30397(14)
H20_3 H 0.323637 0.583742 0.269317
N5_3 N 0.51579(11) 0.53023(17) 0.49462(11)
H23_3 H 0.343983 0.496118 0.977557
H24_3 H 0.386989 0.347820 0.968041
H32_3 H 0.482232 0.102441 0.989872
O13_2 O 0.80188(9) 0.31021(14) 0.96147(10)
O14_2 O 0.74774(10) 0.28272(17) 0.84201(10)
Zn6_3 Zn 0.250000 0.750000 1.000000
Zn8_2 Zn 0.15634(2) 0.79200(2) 0.82023(2)
C41_3 C 0.37816(12) 0.84853(18) 0.13685(13)
C42_3 C 0.39725(12) 0.93838(18) 0.11572(14)
C43_3 C 0.46573(13) 0.96027(19) 0.14842(15)
H27_3 H 0.500100 0.917463 0.183540
H30_3 H 0.300060 0.987722 0.041197
H7_4 H 0.156017 0.003882 0.022443
H8_4 H 0.113011 0.152180 0.031959
H16_4 H 0.017768 0.397559 0.010128
O3_4 O 0.18473(9) 0.67691(13) 0.89956(10)
O4_4 O 0.07766(11) 0.70185(17) 0.80843(12)
C2_4 C 0.13251(12) 0.03017(18) 0.92340(14)
N1_4 N 0.05317(14) 0.29786(16) 0.94159(18)
C10_4 C 0.13611(16) 0.0502(2) 0.98458(17)
C11_4 C 0.11015(18) 0.1394(2) 0.99028(19)
C12_4 C 0.08055(14) 0.20803(19) 0.93505(18)
C13_4 C 0.0780(2) 0.1895(2) 0.8742(2)
H9_4 H 0.059004 0.236672 0.836975
C14_4 C 0.1037(2) 0.1006(2) 0.86820(19)
H10_4 H 0.101542 0.088473 0.826841
C15_4 C 0.12184(12) 0.65147(18) 0.86315(13)
C16_4 C 0.10275(12) 0.56162(18) 0.88428(14)
C17_4 C 0.03427(13) 0.53973(19) 0.85158(15)
C18_4 C 0.01700(13) 0.4541(2) 0.87123(17)
C19_4 C 0.06827(14) 0.38810(19) 0.92192(17)
C20_4 C 0.13680(14) 0.4102(2) 0.95381(19)
H13_4 H 0.171184 0.366045 0.987299
C21_4 C 0.15397(13) 0.4969(2) 0.93607(16)
H14_4 H 0.199940 0.512278 0.958803
C28_4 C 0.00602(13) 0.13756(19) 0.40503(13)
H18_4 H 0.052388 0.152963 0.439043
N5_4 N 0.01579(11) 0.03023(17) 0.49462(11)
O7_4 O 0.19812(9) 0.68979(14) 0.03853(10)
C34_4 C 0.06122(16) 0.7723(2) 0.11421(19)
H21_4 H 0.055062 0.816778 0.141003
C35_4 C 0.12313(15) 0.7708(2) 0.12347(18)
H22_4 H 0.158889 0.812465 0.157898
H27_4 H 0.000100 0.417463 0.183540
H28_4 H 0.028809 0.559310 0.149439
C48_4 C 0.19907(13) 0.70464(18) 0.09277(14)
C49_4 C 0.13189(13) 0.70775(18) 0.08192(14)
C50_4 C 0.07885(15) 0.6464(2) 0.03123(17)
H31_4 H 0.083865 0.605329 0.001968
C51_4 C 0.01756(15) 0.6454(2) 0.02343(19)
C52_4 C 0.00912(14) 0.70801(18) 0.06544(18)
O5_4 O 0.14984(11) 0.92003(15) 0.85687(11)
O6_4 O 0.18399(9) 0.87203(14) 0.96738(10)
C1_4 C 0.15775(12) 0.93322(18) 0.91606(13)
C5_4 C 0.03244(13) 0.8206(2) 0.66432(14)
H3_4 H 0.010895 0.777688 0.676682
C7_4 C 0.02601(12) 0.92751(19) 0.57745(12)
C8_4 C 0.09528(14) 0.9487(2) 0.62898(14)
H5_4 H 0.117763 0.992670 0.618433
C9_4 C 0.12975(14) 0.9029(2) 0.69603(14)
H6_4 H 0.176363 0.916258 0.730683
N2_4 N 0.09909(11) 0.83967(17) 0.71381(11)
O11_4 O 0.85016(11) 0.07997(15) 0.14313(11)
C32_4 C 0.84225(12) 0.06678(18) 0.08394(13)
O20_4 O 0.92234(11) 0.29815(17) 0.19157(12)
N7_2 N 0.90091(11) 0.16033(17) 0.28619(11)
C3_4 C 0.93878(16) 0.2277(2) 0.88579(19)
H1_4 H 0.944938 0.183222 0.858997
C4_4 C 0.87687(15) 0.2292(2) 0.87653(18)
H2_4 H 0.841111 0.187535 0.842102
H11_4 H 0.999900 0.582537 0.816460
H12_4 H 0.971191 0.440690 0.850561
C22_4 C 0.80093(13) 0.29536(18) 0.90723(14)
C23_4 C 0.86811(13) 0.29225(18) 0.91808(14)
C24_4 C 0.92115(15) 0.3536(2) 0.96877(17)
H15_4 H 0.916135 0.394671 0.998032
C25_4 C 0.98244(15) 0.3546(2) 0.97657(19)
C26_4 C 0.99088(14) 0.29199(18) 0.93456(18)
C27_4 C 0.96756(13) 0.1794(2) 0.33568(14)
H17_4 H 0.989105 0.222312 0.323318
C29_4 C 0.97399(12) 0.07249(19) 0.42255(12)
C30_4 C 0.90472(14) 0.0513(2) 0.37102(14)
H19_4 H 0.882237 0.007330 0.381567
C31_4 C 0.87025(14) 0.0971(2) 0.30397(14)
H20_4 H 0.823637 0.083742 0.269317
C33_4 C 0.86749(12) 0.96983(18) 0.07660(14)
N6_4 N 0.94683(14) 0.70214(16) 0.05841(18)
C36_4 C 0.86389(16) 0.9498(2) 0.01542(17)
C37_4 C 0.88985(18) 0.8606(2) 0.00972(19)
C38_4 C 0.91945(14) 0.79197(19) 0.06495(18)
C39_4 C 0.9220(2) 0.8105(2) 0.1258(2)
H25_4 H 0.940996 0.763328 0.163025
C40_4 C 0.8963(2) 0.8994(2) 0.13180(19)
H26_4 H 0.898458 0.911527 0.173159
C41_4 C 0.87816(12) 0.34853(18) 0.13685(13)
C42_4 C 0.89725(12) 0.43838(18) 0.11572(14)
C43_4 C 0.96573(13) 0.46027(19) 0.14842(15)
C44_4 C 0.98300(13) 0.5459(2) 0.12877(17)
C45_4 C 0.93173(14) 0.61190(19) 0.07808(17)
C46_4 C 0.86320(14) 0.5898(2) 0.04619(19)
H29_4 H 0.828816 0.633955 0.012701
C47_4 C 0.84603(13) 0.5031(2) 0.06393(16)
H30_4 H 0.800060 0.487722 0.041197
C6_4 C 0.99398(13) 0.86244(19) 0.59497(13)
H4_4 H 0.947612 0.847037 0.560957
N3_4 N 0.98421(11) 0.96977(17) 0.50538(11)
H23_4 H 0.843983 0.996118 0.977557
H24_4 H 0.886989 0.847820 0.968041
H32_4 H 0.982232 0.602441 0.989872
loop_
_geom_bond_atom_site_label_1
_geom_bond_atom_site_label_2
_geom_bond_site_symmetry_1
_geom_bond_site_symmetry_2
O3 C15 1_555 1_555
O4 C15 1_555 1_555
C15 C16 1_555 1_555
C16 C17 1_555 1_555
C17 H11 1_555 1_555
Zn4 O3 1_555 1_555
Zn7 O3 1_555 1_555
O4 Zn7 1_555 1_555
C27 H17 1_555 1_555
C28 C27 1_555 1_555
H18 C28 1_555 1_555
C29 C28 1_555 1_555
C30 C29 1_555 1_555
H19 C30 1_555 1_555
C31 C30 1_555 1_555
H20 C31 1_555 1_555
N4 C27 1_555 1_555
Zn10 N4 1_555 1_555
C29 N5 1_555 1_555
C31 N4 1_555 1_555
O1 C22 1_555 1_555
O2 C22 1_555 1_555
O5 C1 1_555 1_555
O6 C1 1_555 1_555
C1 C2 1_555 1_555
C2 C10 1_555 1_555
C3 H1 1_555 1_555
C4 C3 1_555 1_555
H2 C4 1_555 1_555
C5 H3 1_555 1_555
C6 C5 1_555 1_555
H4 C6 1_555 1_555
C7 C6 1_555 1_555
C8 C7 1_555 1_555
H5 C8 1_555 1_555
C9 C8 1_555 1_555
H6 C9 1_555 1_555
N1 C12 1_555 1_555
N2 C5 1_555 1_555
N3 C7 1_555 1_555
Zn4 O6 1_555 1_555
Zn7 O5 1_555 1_555
C10 H7 1_555 1_555
C11 C10 1_555 1_555
H8 C11 1_555 1_555
C12 C11 1_555 1_555
C13 C12 1_555 1_555
H9 C13 1_555 1_555
C14 C2 1_555 1_555
H10 C14 1_555 1_555
H12 C18 1_555 1_555
C19 N1 1_555 1_555
C20 C19 1_555 1_555
H13 C20 1_555 1_555
C22 C23 1_555 1_555
C23 C4 1_555 1_555
C24 C23 1_555 1_555
H15 C24 1_555 1_555
C25 C24 1_555 1_555
H16 C25 1_555 1_555
C26 C3 1_555 1_555
O7 Zn4 1_555 1_555
O8 C48 1_555 1_555
O11 C32 1_555 1_555
O12 C32 1_555 1_555
C32 C33 1_555 1_555
C33 C36 1_555 1_555
C34 H21 1_555 1_555
C35 C34 1_555 1_555
H22 C35 1_555 1_555
N6 C38 1_555 1_555
Zn10 O11 1_555 1_555
C36 H23 1_555 1_555
C37 C36 1_555 1_555
H24 C37 1_555 1_555
C38 C37 1_555 1_555
C39 C38 1_555 1_555
H25 C39 1_555 1_555
C40 C33 1_555 1_555
H26 C40 1_555 1_555
H28 C44 1_555 1_555
C45 N6 1_555 1_555
C46 C45 1_555 1_555
H29 C46 1_555 1_555
C48 O7 1_555 1_555
C49 C35 1_555 1_555
C50 C49 1_555 1_555
H31 C50 1_555 1_555
C51 C50 1_555 1_555
H32 C51 1_555 1_555
C52 C34 1_555 1_555
O13 Zn4 1_555 1_555
O14 Zn7 1_555 1_555
O15 Zn10 1_555 1_555
O17 Zn10 1_555 1_555
O18 Zn4 1_555 1_555
O20 Zn10 1_555 1_555
O21 Zn4 1_555 1_555
Zn6 O1 1_555 1_555
Zn8 O2 1_555 1_555
Zn11 O8 1_555 1_555
C9 N2 1_555 1_555
N1 C26 1_555 1_555
N2 Zn7 1_555 1_555
C13 C14 1_555 1_555
C18 C19 1_555 1_555
C20 C21 1_555 1_555
C25 C26 1_555 1_555
O12 Zn6 1_555 1_555
N6 C52 1_555 1_555
C39 C40 1_555 1_555
C44 C45 1_555 1_555
C46 C47 1_555 1_555
C48 C49 1_555 1_555
C51 C52 1_555 1_555
O17 Zn6 1_555 1_555
O18 Zn11 1_555 1_555
O17 C41 1_555 1_555
O20 C41 1_555 1_555
C41 C42 1_555 1_555
C42 C43 1_555 1_555
C43 H27 1_555 1_555
C27_2 H17_2 1_555 1_555
C30_2 C29_2 1_555 1_555
H19_2 C30_2 1_555 1_555
C31_2 C30_2 1_555 1_555
H20_2 C31_2 1_555 1_555
N4_2 C27_2 1_555 1_555
Zn11 N4_2 1_555 1_555
C31_2 N4_2 1_555 1_555
O13 C22_2 1_555 1_555
O14 C22_2 1_555 1_555
C3_2 H1_2 1_555 1_555
C4_2 C3_2 1_555 1_555
H2_2 C4_2 1_555 1_555
C22_2 C23_2 1_555 1_555
C23_2 C4_2 1_555 1_555
C24_2 C23_2 1_555 1_555
H15_2 C24_2 1_555 1_555
C25_2 C24_2 1_555 1_555
C26_2 C3_2 1_555 1_555
O11_2 C32_2 1_555 1_555
O21 C32_2 1_555 1_555
Zn11 O11_2 1_555 1_555
O20_2 Zn11 1_555 1_555
C25_2 C26_2 1_555 1_555
H4_2 C6_2 1_555 1_555
O18 C41_2 1_555 1_555
O20_2 C41_2 1_555 1_555
C33_2 C36_2 1_555 1_555
N6_2 C38_2 1_555 1_555
C36_2 H23_2 1_555 1_555
C37_2 C36_2 1_555 1_555
H24_2 C37_2 1_555 1_555
C38_2 C37_2 1_555 1_555
C39_2 C38_2 1_555 1_555
H25_2 C39_2 1_555 1_555
C40_2 C33_2 1_555 1_555
H26_2 C40_2 1_555 1_555
C41_2 C42_2 1_555 1_555
C42_2 C43_2 1_555 1_555
C44_2 C43_2 1_555 1_555
C45_2 N6_2 1_555 1_555
C46_2 C45_2 1_555 1_555
H29_2 C46_2 1_555 1_555
C47_2 C42_2 1_555 1_555
H30_2 C47_2 1_555 1_555
C39_2 C40_2 1_555 1_555
C44_2 C45_2 1_555 1_555
C46_2 C47_2 1_555 1_555
H18_2 C28_2 1_555 1_555
O3_2 C15_2 1_555 1_555
O4_2 C15_2 1_555 1_555
C2_2 C10_2 1_555 1_555
N1_2 C12_2 1_555 1_555
C10_2 H7_2 1_555 1_555
C11_2 C10_2 1_555 1_555
H8_2 C11_2 1_555 1_555
C12_2 C11_2 1_555 1_555
C13_2 C12_2 1_555 1_555
H9_2 C13_2 1_555 1_555
C14_2 C2_2 1_555 1_555
H10_2 C14_2 1_555 1_555
C15_2 C16_2 1_555 1_555
C16_2 C17_2 1_555 1_555
C18_2 C17_2 1_555 1_555
C19_2 N1_2 1_555 1_555
C20_2 C19_2 1_555 1_555
H13_2 C20_2 1_555 1_555
C21_2 C16_2 1_555 1_555
H14_2 C21_2 1_555 1_555
Zn6 O3_2 1_555 1_555
Zn8 O3_2 1_555 1_555
O4_2 Zn8 1_555 1_555
C13_2 C14_2 1_555 1_555
C18_2 C19_2 1_555 1_555
C20_2 C21_2 1_555 1_555
O5_2 C1_2 1_555 1_555
O6_2 C1_2 1_555 1_555
C5_2 H3_2 1_555 1_555
C8_2 C7_2 1_555 1_555
H5_2 C8_2 1_555 1_555
C9_2 C8_2 1_555 1_555
H6_2 C9_2 1_555 1_555
N2_2 C5_2 1_555 1_555
Zn6 O6_2 1_555 1_555
Zn8 O5_2 1_555 1_555
O7_2 Zn6 1_555 1_555
O15 C48_2 1_555 1_555
C34_2 H21_2 1_555 1_555
C35_2 C34_2 1_555 1_555
H22_2 C35_2 1_555 1_555
C48_2 O7_2 1_555 1_555
C49_2 C35_2 1_555 1_555
C50_2 C49_2 1_555 1_555
H31_2 C50_2 1_555 1_555
C51_2 C50_2 1_555 1_555
C52_2 C34_2 1_555 1_555
C9_2 N2_2 1_555 1_555
N2_2 Zn8 1_555 1_555
C48_2 C49_2 1_555 1_555
C51_2 C52_2 1_555 1_555
O3_3 C15_3 1_555 1_555
O4_3 C15_3 1_555 1_555
C15_3 C16_3 1_555 1_555
C16_3 C17_3 1_555 1_555
C17_3 H11_3 1_555 1_555
Zn4_3 O3_3 1_555 1_555
Zn7_2 O3_3 1_555 1_555
O4_3 Zn7_2 1_555 1_555
O7_3 Zn4_2 1_555 1_555
O8_2 C48_3 1_555 1_555
O11_3 C32_3 1_555 1_555
O12_2 C32_3 1_555 1_555
C32_3 C33_3 1_555 1_555
C33_3 C36_3 1_555 1_555
C34_3 H21_3 1_555 1_555
C35_3 C34_3 1_555 1_555
H22_3 C35_3 1_555 1_555
N6_3 C38_3 1_555 1_555
Zn3 O11_3 1_555 1_555
C37_3 C36_3 1_555 1_555
C38_3 C37_3 1_555 1_555
C39_3 C38_3 1_555 1_555
H25_3 C39_3 1_555 1_555
C40_3 C33_3 1_555 1_555
H26_3 C40_3 1_555 1_555
H28_3 C44_3 1_555 1_555
C45_3 N6_3 1_555 1_555
C46_3 C45_3 1_555 1_555
H29_3 C46_3 1_555 1_555
C48_3 O7_3 1_555 1_555
C49_3 C35_3 1_555 1_555
C50_3 C49_3 1_555 1_555
H31_3 C50_3 1_555 1_555
C51_3 C50_3 1_555 1_555
C52_3 C34_3 1_555 1_555
O15_2 Zn3 1_555 1_555
O17_2 Zn3 1_555 1_555
O18_2 Zn4_2 1_555 1_555
O20_3 Zn3 1_555 1_555
O21_2 Zn4_2 1_555 1_555
N7 Zn3 1_555 1_555
Zn11_2 O8_2 1_555 1_555
O12_2 Zn6_2 1_555 1_555
N6_3 C52_3 1_555 1_555
C39_3 C40_3 1_555 1_555
C44_3 C45_3 1_555 1_555
C46_3 C47_3 1_555 1_555
C48_3 C49_3 1_555 1_555
C51_3 C52_3 1_555 1_555
O17_2 Zn6_2 1_555 1_555
O18_2 Zn11_2 1_555 1_555
O1_2 C22_3 1_555 1_555
O2_2 C22_3 1_555 1_555
O5_3 C1_3 1_555 1_555
O6_3 C1_3 1_555 1_555
C1_3 C2_3 1_555 1_555
C2_3 C10_3 1_555 1_555
C3_3 H1_3 1_555 1_555
C4_3 C3_3 1_555 1_555
H2_3 C4_3 1_555 1_555
C5_3 H3_3 1_555 1_555
C6_3 C5_3 1_555 1_555
H4_3 C6_3 1_555 1_555
C7_3 C6_3 1_555 1_555
C8_3 C7_3 1_555 1_555
H5_3 C8_3 1_555 1_555
C9_3 C8_3 1_555 1_555
H6_3 C9_3 1_555 1_555
N1_3 C12_3 1_555 1_555
N2_3 C5_3 1_555 1_555
N3_3 C7_3 1_555 1_555
Zn4_3 O6_3 1_555 1_555
Zn7_2 O5_3 1_555 1_555
C11_3 C10_3 1_555 1_555
C12_3 C11_3 1_555 1_555
C13_3 C12_3 1_555 1_555
H9_3 C13_3 1_555 1_555
C14_3 C2_3 1_555 1_555
H10_3 C14_3 1_555 1_555
H12_3 C18_3 1_555 1_555
C19_3 N1_3 1_555 1_555
C20_3 C19_3 1_555 1_555
H13_3 C20_3 1_555 1_555
C22_3 C23_3 1_555 1_555
C23_3 C4_3 1_555 1_555
C24_3 C23_3 1_555 1_555
H15_3 C24_3 1_555 1_555
C25_3 C24_3 1_555 1_555
C26_3 C3_3 1_555 1_555
C27_3 H17_3 1_555 1_555
C28_3 C27_3 1_555 1_555
H18_3 C28_3 1_555 1_555
C29_3 C28_3 1_555 1_555
C30_3 C29_3 1_555 1_555
H19_3 C30_3 1_555 1_555
C31_3 C30_3 1_555 1_555
H20_3 C31_3 1_555 1_555
N7 C27_3 1_555 1_555
N5_3 N3_3 1_555 1_555
O13_2 Zn4_3 1_555 1_555
O14_2 Zn7_2 1_555 1_555
Zn6_3 O1_2 1_555 1_555
Zn8_2 O2_2 1_555 1_555
C9_3 N2_3 1_555 1_555
N1_3 C26_3 1_555 1_555
N2_3 Zn7_2 1_555 1_555
C13_3 C14_3 1_555 1_555
C18_3 C19_3 1_555 1_555
C20_3 C21_3 1_555 1_555
C25_3 C26_3 1_555 1_555
C29_3 N5_3 1_555 1_555
C31_3 N7 1_555 1_555
O17_2 C41_3 1_555 1_555
O20_3 C41_3 1_555 1_555
C41_3 C42_3 1_555 1_555
C42_3 C43_3 1_555 1_555
C43_3 H27_3 1_555 1_555
O3_4 C15_4 1_555 1_555
O4_4 C15_4 1_555 1_555
C2_4 C10_4 1_555 1_555
N1_4 C12_4 1_555 1_555
C11_4 C10_4 1_555 1_555
C12_4 C11_4 1_555 1_555
C13_4 C12_4 1_555 1_555
H9_4 C13_4 1_555 1_555
C14_4 C2_4 1_555 1_555
H10_4 C14_4 1_555 1_555
C15_4 C16_4 1_555 1_555
C16_4 C17_4 1_555 1_555
C18_4 C17_4 1_555 1_555
C19_4 N1_4 1_555 1_555
C20_4 C19_4 1_555 1_555
H13_4 C20_4 1_555 1_555
C21_4 C16_4 1_555 1_555
H14_4 C21_4 1_555 1_555
H18_4 C28_4 1_555 1_555
Zn6_3 O3_4 1_555 1_555
Zn8_2 O3_4 1_555 1_555
O4_4 Zn8_2 1_555 1_555
C13_4 C14_4 1_555 1_555
C18_4 C19_4 1_555 1_555
C20_4 C21_4 1_555 1_555
O7_4 Zn6_2 1_555 1_555
O15_2 C48_4 1_555 1_555
C34_4 H21_4 1_555 1_555
C35_4 C34_4 1_555 1_555
H22_4 C35_4 1_555 1_555
C48_4 O7_4 1_555 1_555
C49_4 C35_4 1_555 1_555
C50_4 C49_4 1_555 1_555
H31_4 C50_4 1_555 1_555
C51_4 C50_4 1_555 1_555
C52_4 C34_4 1_555 1_555
C48_4 C49_4 1_555 1_555
C51_4 C52_4 1_555 1_555
O5_4 C1_4 1_555 1_555
O6_4 C1_4 1_555 1_555
C5_4 H3_4 1_555 1_555
C8_4 C7_4 1_555 1_555
H5_4 C8_4 1_555 1_555
C9_4 C8_4 1_555 1_555
H6_4 C9_4 1_555 1_555
N2_4 C5_4 1_555 1_555
Zn6_3 O6_4 1_555 1_555
Zn8_2 O5_4 1_555 1_555
C9_4 N2_4 1_555 1_555
N2_4 Zn8_2 1_555 1_555
O11_4 C32_4 1_555 1_555
O21_2 C32_4 1_555 1_555
Zn11_2 O11_4 1_555 1_555
O20_4 Zn11_2 1_555 1_555
N7_2 Zn11_2 1_555 1_555
O13_2 C22_4 1_555 1_555
O14_2 C22_4 1_555 1_555
C3_4 H1_4 1_555 1_555
C4_4 C3_4 1_555 1_555
H2_4 C4_4 1_555 1_555
C22_4 C23_4 1_555 1_555
C23_4 C4_4 1_555 1_555
C24_4 C23_4 1_555 1_555
H15_4 C24_4 1_555 1_555
C25_4 C24_4 1_555 1_555
C26_4 C3_4 1_555 1_555
C27_4 H17_4 1_555 1_555
C30_4 C29_4 1_555 1_555
H19_4 C30_4 1_555 1_555
C31_4 C30_4 1_555 1_555
H20_4 C31_4 1_555 1_555
N7_2 C27_4 1_555 1_555
C25_4 C26_4 1_555 1_555
C31_4 N7_2 1_555 1_555
O18_2 C41_4 1_555 1_555
O20_4 C41_4 1_555 1_555
C33_4 C36_4 1_555 1_555
N6_4 C38_4 1_555 1_555
C37_4 C36_4 1_555 1_555
C38_4 C37_4 1_555 1_555
C39_4 C38_4 1_555 1_555
H25_4 C39_4 1_555 1_555
C40_4 C33_4 1_555 1_555
H26_4 C40_4 1_555 1_555
C41_4 C42_4 1_555 1_555
C42_4 C43_4 1_555 1_555
C44_4 C43_4 1_555 1_555
C45_4 N6_4 1_555 1_555
C46_4 C45_4 1_555 1_555
H29_4 C46_4 1_555 1_555
C47_4 C42_4 1_555 1_555
H30_4 C47_4 1_555 1_555
C39_4 C40_4 1_555 1_555
C44_4 C45_4 1_555 1_555
C46_4 C47_4 1_555 1_555
H4_4 C6_4 1_555 1_555

#END
