
###############################################################################
#
# This file contains modified crystal structure data generated from the
# MOF subset of the Cambridge Structural Database (CSD) v543 
# hosted by the Cambridge Crystallographic Data Centre (CCDC).
#
# This work is licensed under the Creative Commons
# Attribution-NonCommercial-ShareAlike 4.0 International License.
# To view a copy of this license, visit
# http://creativecommons.org/licenses/by-nc-sa/4.0/
# or send a letter to
# Creative Commons, PO Box 1866, Mountain View, CA 94042, USA.
#
# CIF created using the CSD Python API on 29 September 2022
# The structure has been converted into the P1 space group
# The structure has a 3D framework
# The original CSD entry GUBJIZ is in the monoclinic crystal system
# The framework has been calculated to contain at least 10.0% void space
# The void calculation uses a probe of radius 1.32A, grid spacing 0.4
#
###############################################################################

data_GUBJIZ
_chemical_formula_moiety         '(C208 H128 N24 O48 Zn12)n'
_symmetry_cell_setting           triclinic
_symmetry_space_group_name_H-M   'P 1'
_symmetry_Int_Tables_number      1
_space_group_name_Hall           'P 1'
loop_
_symmetry_equiv_pos_site_id
_symmetry_equiv_pos_as_xyz
1 x,y,z
_cell_length_a                   24.5697(14)
_cell_length_b                   13.3294(3)
_cell_length_c                   22.9612(13)
_cell_angle_alpha                90
_cell_angle_beta                 127.632(9)
_cell_angle_gamma                90
_cell_volume                     5955.28
loop_
_atom_site_label
_atom_site_type_symbol
_atom_site_fract_x
_atom_site_fract_y
_atom_site_fract_z
C8 C 0.62104(10) 0.14958(14) 0.36441(11)
C9 C 0.60093(10) 0.05971(14) 0.38468(11)
C10 C 0.53199(10) 0.03964(15) 0.35120(12)
H5 H 0.497527 0.084790 0.315566
H8 H 0.698223 0.007121 0.460307
O3 O 0.68428(7) 0.17187(11) 0.40086(8)
O4 O 0.57733(8) 0.20213(12) 0.31016(9)
Zn5 Zn 0.750000 0.250000 0.500000
Zn9 Zn 0.65386(2) 0.29130(2) 0.32076(2)
C1 C 0.65509(10) 0.43301(14) 0.41379(12)
C2 C 0.62837(11) 0.52944(15) 0.42086(12)
C3 C 0.63525(12) 0.55106(16) 0.48359(13)
H1 H 0.658651 0.505378 0.523691
C4 C 0.60825(13) 0.63924(16) 0.48887(14)
H2 H 0.613406 0.653584 0.532533
C5 C 0.57406(11) 0.70585(14) 0.43096(14)
C6 C 0.56622(16) 0.68441(19) 0.36770(16)
H3 H 0.542650 0.730146 0.327636
C7 C 0.59273(17) 0.59593(19) 0.36222(16)
H4 H 0.586400 0.580849 0.318003
C11 C 0.51346(11) 0.95426(15) 0.36960(13)
H6 H 0.466523 0.942020 0.347810
C12 C 0.56356(11) 0.88647(14) 0.41995(13)
C13 C 0.63268(11) 0.90649(16) 0.45367(14)
H7 H 0.667071 0.860546 0.488425
C14 C 0.65109(11) 0.99305(15) 0.43655(13)
C15 C 0.29705(11) 0.79119(14) 0.40459(12)
C16 C 0.36324(11) 0.79032(14) 0.41463(12)
C17 C 0.41666(12) 0.85244(17) 0.46538(14)
H9 H 0.411998 0.894729 0.495401
C18 C 0.47698(12) 0.85378(17) 0.47300(14)
H10 H 0.513153 0.897776 0.507578
C19 C 0.48498(11) 0.79102(14) 0.43026(14)
C20 C 0.43254(13) 0.72553(18) 0.38120(16)
H11 H 0.438214 0.680060 0.353416
C21 C 0.37175(13) 0.72677(18) 0.37292(15)
H12 H 0.335290 0.683351 0.338065
C22 C 0.62911(12) 0.3949(2) 0.19488(13)
H13 H 0.677139 0.405812 0.230194
C23 C 0.59490(12) 0.4425(2) 0.12830(13)
H14 H 0.618511 0.486331 0.117978
C24 C 0.52521(11) 0.42514(15) 0.07640(11)
C25 C 0.49245(11) 0.36068(15) 0.09291(11)
H15 H 0.444881 0.346365 0.057607
C26 C 0.53049(11) 0.31721(15) 0.16218(12)
H16 H 0.507859 0.274244 0.174269
N1 N 0.54665(10) 0.79608(12) 0.43761(13)
N2 N 0.59770(9) 0.33358(14) 0.21243(10)
N3 N 0.48374(9) 0.46983(14) 0.00473(10)
O1 O 0.68176(8) 0.37113(11) 0.46507(8)
O2 O 0.64763(9) 0.42133(11) 0.35461(9)
O5 O 0.29882(8) 0.81009(11) 0.45887(8)
O6 O 0.24304(8) 0.77399(12) 0.33956(9)
O13 O 0.81824(8) 0.12887(11) 0.53493(8)
O16 O 0.81572(7) 0.32813(11) 0.59914(8)
O19 O 0.79882(8) 0.31009(11) 0.45887(8)
O20 O 0.70118(8) 0.18991(11) 0.54113(8)
O21 O 0.74304(8) 0.27399(12) 0.33956(9)
Zn8 Zn 0.250000 0.750000 0.500000
Zn10 Zn 0.15386(2) 0.79130(2) 0.32076(2)
C27 C 0.37089(12) 0.6051(2) 0.80512(13)
H17 H 0.322861 0.594188 0.769806
C28 C 0.40510(12) 0.5575(2) 0.87170(13)
H18 H 0.381489 0.513669 0.882022
C29 C 0.47479(11) 0.57486(15) 0.92360(11)
C30 C 0.50755(11) 0.63932(15) 0.90709(11)
H19 H 0.555119 0.653635 0.942393
C31 C 0.46951(11) 0.68279(15) 0.83782(12)
H20 H 0.492141 0.725756 0.825731
N4 N 0.40230(9) 0.66642(14) 0.78757(10)
N5 N 0.51626(9) 0.53017(14) 0.99527(10)
C32 C 0.34491(10) 0.56699(14) 0.58621(12)
C33 C 0.37163(11) 0.47056(15) 0.57914(12)
C34 C 0.36475(12) 0.44894(16) 0.51641(13)
H21 H 0.341349 0.494622 0.476309
C35 C 0.39175(13) 0.36076(16) 0.51113(14)
H22 H 0.386594 0.346416 0.467467
C36 C 0.42594(11) 0.29415(14) 0.56904(14)
C37 C 0.43378(16) 0.31559(19) 0.63230(16)
H23 H 0.457350 0.269854 0.672364
C38 C 0.40727(17) 0.40407(19) 0.63778(16)
H24 H 0.413600 0.419151 0.681997
C42 C 0.48654(11) 0.04574(15) 0.63040(13)
H26 H 0.533477 0.057980 0.652190
C43 C 0.43644(11) 0.11353(14) 0.58005(13)
C44 C 0.36732(11) 0.09351(16) 0.54633(14)
H27 H 0.332929 0.139454 0.511575
C45 C 0.34891(11) 0.00695(15) 0.56345(13)
C46 C 0.70295(11) 0.20881(14) 0.59541(12)
C47 C 0.63676(11) 0.20968(14) 0.58537(12)
C48 C 0.58334(12) 0.14756(17) 0.53462(14)
H29 H 0.588002 0.105271 0.504599
C49 C 0.52302(12) 0.14622(17) 0.52700(14)
H30 H 0.486847 0.102224 0.492422
C50 C 0.51502(11) 0.20898(14) 0.56974(14)
C51 C 0.56746(13) 0.27447(18) 0.61880(16)
H31 H 0.561786 0.319940 0.646584
C52 C 0.62825(13) 0.27323(18) 0.62708(15)
H32 H 0.664710 0.316649 0.661935
N6 N 0.45335(10) 0.20392(12) 0.56239(13)
O7 O 0.31824(8) 0.62887(11) 0.53493(8)
O8 O 0.35237(9) 0.57867(11) 0.64539(9)
O12 O 0.75696(8) 0.22601(12) 0.66044(9)
Zn3 Zn 0.34614(2) 0.70870(2) 0.67924(2)
O15 O 0.31572(7) 0.82813(11) 0.59914(8)
O18 O 0.42267(8) 0.79787(12) 0.68984(9)
O22 O 0.25696(8) 0.72601(12) 0.66044(9)
Zn12 Zn 0.84614(2) 0.20870(2) 0.67924(2)
C39 C 0.37896(10) 0.85042(14) 0.63559(11)
C40 C 0.39907(10) 0.94029(14) 0.61532(11)
C41 C 0.46801(10) 0.96036(15) 0.64880(12)
H25 H 0.502473 0.915210 0.684434
H28 H 0.301777 0.992879 0.539693
C2_2 C 0.12837(11) 0.02944(15) 0.42086(12)
C3_2 C 0.13525(12) 0.05106(16) 0.48359(13)
H1_2 H 0.158651 0.005378 0.523691
C4_2 C 0.10825(13) 0.13924(16) 0.48887(14)
H2_2 H 0.113406 0.153584 0.532533
C5_2 C 0.07406(11) 0.20585(14) 0.43096(14)
C6_2 C 0.06622(16) 0.18441(19) 0.36770(16)
H3_2 H 0.042650 0.230146 0.327636
C7_2 C 0.09273(17) 0.09593(19) 0.36222(16)
H4_2 H 0.086400 0.080849 0.318003
C8_2 C 0.12104(10) 0.64958(14) 0.36441(11)
C9_2 C 0.10093(10) 0.55971(14) 0.38468(11)
C10_2 C 0.03199(10) 0.53964(15) 0.35120(12)
C11_2 C 0.01346(11) 0.45426(15) 0.36960(13)
C12_2 C 0.06356(11) 0.38647(14) 0.41995(13)
C13_2 C 0.13268(11) 0.40649(16) 0.45367(14)
H7_2 H 0.167071 0.360546 0.488425
C14_2 C 0.15109(11) 0.49305(15) 0.43655(13)
H8_2 H 0.198223 0.507121 0.460307
H10_2 H 0.013153 0.397776 0.507578
N1_2 N 0.04665(10) 0.29608(12) 0.43761(13)
O3_2 O 0.18428(7) 0.67187(11) 0.40086(8)
O4_2 O 0.07733(8) 0.70213(12) 0.31016(9)
C1_2 C 0.15509(10) 0.93301(14) 0.41379(12)
C22_2 C 0.12911(12) 0.8949(2) 0.19488(13)
H13_2 H 0.177139 0.905812 0.230194
C23_2 C 0.09490(12) 0.9425(2) 0.12830(13)
H14_2 H 0.118511 0.986331 0.117978
C24_2 C 0.02521(11) 0.92514(15) 0.07640(11)
C26_2 C 0.03049(11) 0.81721(15) 0.16218(12)
H16_2 H 0.007859 0.774244 0.174269
N2_2 N 0.09770(9) 0.83358(14) 0.21243(10)
O1_2 O 0.18176(8) 0.87113(11) 0.46507(8)
O2_2 O 0.14763(9) 0.92133(11) 0.35461(9)
O20_2 O 0.20118(8) 0.68991(11) 0.54113(8)
H25_2 H 0.002473 0.415210 0.684434
H26_2 H 0.033477 0.557980 0.652190
C46_2 C 0.20295(11) 0.70881(14) 0.59541(12)
C47_2 C 0.13676(11) 0.70968(14) 0.58537(12)
C48_2 C 0.08334(12) 0.64756(17) 0.53462(14)
H29_2 H 0.088002 0.605271 0.504599
C49_2 C 0.02302(12) 0.64622(17) 0.52700(14)
C50_2 C 0.01502(11) 0.70898(14) 0.56974(14)
C51_2 C 0.06746(13) 0.77447(18) 0.61880(16)
H31_2 H 0.061786 0.819940 0.646584
C52_2 C 0.12825(13) 0.77323(18) 0.62708(15)
H32_2 H 0.164710 0.816649 0.661935
H5_2 H 0.997527 0.584790 0.315566
H6_2 H 0.966523 0.442020 0.347810
C15_2 C 0.79705(11) 0.29119(14) 0.40459(12)
C16_2 C 0.86324(11) 0.29032(14) 0.41463(12)
C17_2 C 0.91666(12) 0.35244(17) 0.46538(14)
H9_2 H 0.911998 0.394729 0.495401
C18_2 C 0.97698(12) 0.35378(17) 0.47300(14)
C19_2 C 0.98498(11) 0.29102(14) 0.43026(14)
C20_2 C 0.93254(13) 0.22553(18) 0.38120(16)
H11_2 H 0.938214 0.180060 0.353416
C21_2 C 0.87175(13) 0.22677(18) 0.37292(15)
H12_2 H 0.835290 0.183351 0.338065
C27_2 C 0.87089(12) 0.1051(2) 0.80512(13)
H17_2 H 0.822861 0.094188 0.769806
C28_2 C 0.90510(12) 0.0575(2) 0.87170(13)
H18_2 H 0.881489 0.013669 0.882022
C29_2 C 0.97479(11) 0.07486(15) 0.92360(11)
C31_2 C 0.96951(11) 0.18279(15) 0.83782(12)
H20_2 H 0.992141 0.225756 0.825731
N4_2 N 0.90230(9) 0.16642(14) 0.78757(10)
C32_2 C 0.84491(10) 0.06699(14) 0.58621(12)
O8_2 O 0.85237(9) 0.07867(11) 0.64539(9)
O18_2 O 0.92267(8) 0.29787(12) 0.68984(9)
C33_2 C 0.87163(11) 0.97056(15) 0.57914(12)
C34_2 C 0.86475(12) 0.94894(16) 0.51641(13)
H21_2 H 0.841349 0.994622 0.476309
C35_2 C 0.89175(13) 0.86076(16) 0.51113(14)
H22_2 H 0.886594 0.846416 0.467467
C36_2 C 0.92594(11) 0.79415(14) 0.56904(14)
C37_2 C 0.93378(16) 0.81559(19) 0.63230(16)
H23_2 H 0.957350 0.769854 0.672364
C38_2 C 0.90727(17) 0.90407(19) 0.63778(16)
H24_2 H 0.913600 0.919151 0.681997
C39_2 C 0.87896(10) 0.35042(14) 0.63559(11)
C40_2 C 0.89907(10) 0.44029(14) 0.61532(11)
C41_2 C 0.96801(10) 0.46036(15) 0.64880(12)
C42_2 C 0.98654(11) 0.54574(15) 0.63040(13)
C43_2 C 0.93644(11) 0.61353(14) 0.58005(13)
C44_2 C 0.86732(11) 0.59351(16) 0.54633(14)
H27_2 H 0.832929 0.639454 0.511575
C45_2 C 0.84891(11) 0.50695(15) 0.56345(13)
H28_2 H 0.801777 0.492879 0.539693
H30_2 H 0.986847 0.602224 0.492422
N6_2 N 0.95335(10) 0.70392(12) 0.56239(13)
C8_3 C 0.37896(10) 0.14958(14) 0.13559(11)
C9_3 C 0.39907(10) 0.05971(14) 0.11532(11)
C10_3 C 0.46801(10) 0.03964(15) 0.14880(12)
H5_3 H 0.502473 0.084790 0.184434
H8_3 H 0.301777 0.007121 0.039693
O3_3 O 0.31572(7) 0.17187(11) 0.09914(8)
O4_3 O 0.42267(8) 0.20213(12) 0.18984(9)
Zn5_2 Zn 0.250000 0.250000 0.000000
Zn9_2 Zn 0.34614(2) 0.29130(2) 0.17924(2)
Zn5_3 Zn 0.250000 0.250000 1.000000
H21_3 H 0.658651 0.494622 0.023691
H22_3 H 0.613406 0.346416 0.032533
H30_3 H 0.513153 0.102224 0.007578
Zn7 Zn 0.750000 0.750000 0.000000
C1_3 C 0.34491(10) 0.43301(14) 0.08621(12)
C2_3 C 0.37163(11) 0.52944(15) 0.07914(12)
C3_3 C 0.36475(12) 0.55106(16) 0.01641(13)
C4_3 C 0.39175(13) 0.63924(16) 0.01113(14)
C5_3 C 0.42594(11) 0.70585(14) 0.06904(14)
C6_3 C 0.43378(16) 0.68441(19) 0.13230(16)
H3_3 H 0.457350 0.730146 0.172364
C7_3 C 0.40727(17) 0.59593(19) 0.13778(16)
H4_3 H 0.413600 0.580849 0.181997
C11_3 C 0.48654(11) 0.95426(15) 0.13040(13)
H6_3 H 0.533477 0.942020 0.152190
C12_3 C 0.43644(11) 0.88647(14) 0.08005(13)
C13_3 C 0.36732(11) 0.90649(16) 0.04633(14)
H7_3 H 0.332929 0.860546 0.011575
C14_3 C 0.34891(11) 0.99305(15) 0.06345(13)
C15_3 C 0.70295(11) 0.79119(14) 0.09541(12)
C16_3 C 0.63676(11) 0.79032(14) 0.08537(12)
C17_3 C 0.58334(12) 0.85244(17) 0.03462(14)
H9_3 H 0.588002 0.894729 0.004599
C18_3 C 0.52302(12) 0.85378(17) 0.02700(14)
C19_3 C 0.51502(11) 0.79102(14) 0.06974(14)
C20_3 C 0.56746(13) 0.72553(18) 0.11880(16)
H11_3 H 0.561786 0.680060 0.146584
C21_3 C 0.62825(13) 0.72677(18) 0.12708(15)
H12_3 H 0.664710 0.683351 0.161935
C22_3 C 0.37089(12) 0.3949(2) 0.30512(13)
H13_3 H 0.322861 0.405812 0.269806
C23_3 C 0.40510(12) 0.4425(2) 0.37170(13)
H14_3 H 0.381489 0.486331 0.382022
C24_3 C 0.47479(11) 0.42514(15) 0.42360(11)
C25_2 C 0.50755(11) 0.36068(15) 0.40709(11)
H15_2 H 0.555119 0.346365 0.442393
C26_3 C 0.46951(11) 0.31721(15) 0.33782(12)
H16_3 H 0.492141 0.274244 0.325731
N1_3 N 0.45335(10) 0.79608(12) 0.06239(13)
N2_3 N 0.40230(9) 0.33358(14) 0.28757(10)
N3_2 N 0.51626(9) 0.46983(14) 0.49527(10)
O1_3 O 0.31824(8) 0.37113(11) 0.03493(8)
O2_3 O 0.35237(9) 0.42133(11) 0.14539(9)
O5_2 O 0.70118(8) 0.81009(11) 0.04113(8)
O6_2 O 0.75696(8) 0.77399(12) 0.16044(9)
C27_3 C 0.62911(12) 0.6051(2) 0.69488(13)
H17_3 H 0.677139 0.594188 0.730194
C28_3 C 0.59490(12) 0.5575(2) 0.62830(13)
H18_3 H 0.618511 0.513669 0.617978
C29_3 C 0.52521(11) 0.57486(15) 0.57640(11)
C30_2 C 0.49245(11) 0.63932(15) 0.59291(11)
H19_2 H 0.444881 0.653635 0.557607
C31_3 C 0.53049(11) 0.68279(15) 0.66218(12)
H20_3 H 0.507859 0.725756 0.674269
N4_3 N 0.59770(9) 0.66642(14) 0.71243(10)
N5_2 N 0.48374(9) 0.53017(14) 0.50473(10)
C32_3 C 0.65509(10) 0.56699(14) 0.91379(12)
C33_3 C 0.62837(11) 0.47056(15) 0.92086(12)
C34_3 C 0.63525(12) 0.44894(16) 0.98359(13)
C35_3 C 0.60825(13) 0.36076(16) 0.98887(14)
C36_3 C 0.57406(11) 0.29415(14) 0.93096(14)
C37_3 C 0.56622(16) 0.31559(19) 0.86770(16)
H23_3 H 0.542650 0.269854 0.827636
C38_3 C 0.59273(17) 0.40407(19) 0.86222(16)
H24_3 H 0.586400 0.419151 0.818003
C42_3 C 0.51346(11) 0.04574(15) 0.86960(13)
H26_3 H 0.466523 0.057980 0.847810
C43_3 C 0.56356(11) 0.11353(14) 0.91995(13)
C44_3 C 0.63268(11) 0.09351(16) 0.95367(14)
H27_3 H 0.667071 0.139454 0.988425
C45_3 C 0.65109(11) 0.00695(15) 0.93655(13)
C46_3 C 0.29705(11) 0.20881(14) 0.90459(12)
C47_3 C 0.36324(11) 0.20968(14) 0.91463(12)
C48_3 C 0.41666(12) 0.14756(17) 0.96538(14)
H29_3 H 0.411998 0.105271 0.995401
C49_3 C 0.47698(12) 0.14622(17) 0.97300(14)
C50_3 C 0.48498(11) 0.20898(14) 0.93026(14)
C51_3 C 0.43254(13) 0.27447(18) 0.88120(16)
H31_3 H 0.438214 0.319940 0.853416
C52_3 C 0.37175(13) 0.27323(18) 0.87292(15)
H32_3 H 0.335290 0.316649 0.838065
N6_3 N 0.54665(10) 0.20392(12) 0.93761(13)
O7_2 O 0.68176(8) 0.62887(11) 0.96507(8)
O8_3 O 0.64763(9) 0.57867(11) 0.85461(9)
O11 O 0.29882(8) 0.18991(11) 0.95887(8)
O12_2 O 0.24304(8) 0.22601(12) 0.83956(9)
Zn3_2 Zn 0.65386(2) 0.70870(2) 0.82076(2)
O15_2 O 0.68428(7) 0.82813(11) 0.90086(8)
O18_3 O 0.57733(8) 0.79787(12) 0.81016(9)
O19_2 O 0.20118(8) 0.31009(11) 0.04113(8)
O21_2 O 0.25696(8) 0.27399(12) 0.16044(9)
O22_2 O 0.74304(8) 0.72601(12) 0.83956(9)
Zn7_2 Zn 0.750000 0.750000 1.000000
Zn10_2 Zn 0.84614(2) 0.79130(2) 0.17924(2)
Zn12_2 Zn 0.15386(2) 0.20870(2) 0.82076(2)
H1_3 H 0.341349 0.505378 0.976309
H2_3 H 0.386594 0.653584 0.967467
H10_3 H 0.486847 0.897776 0.992422
O13_2 O 0.18176(8) 0.12887(11) 0.96507(8)
O16_2 O 0.18428(7) 0.32813(11) 0.90086(8)
C39_3 C 0.62104(10) 0.85042(14) 0.86441(11)
C40_3 C 0.60093(10) 0.94029(14) 0.88468(11)
C41_3 C 0.53199(10) 0.96036(15) 0.85120(12)
H25_3 H 0.497527 0.915210 0.815566
H28_3 H 0.698223 0.992879 0.960307
H5_4 H 0.002473 0.584790 0.184434
H6_4 H 0.033477 0.442020 0.152190
C15_4 C 0.20295(11) 0.29119(14) 0.09541(12)
C16_4 C 0.13676(11) 0.29032(14) 0.08537(12)
C17_4 C 0.08334(12) 0.35244(17) 0.03462(14)
H9_4 H 0.088002 0.394729 0.004599
C18_4 C 0.02302(12) 0.35378(17) 0.02700(14)
C19_4 C 0.01502(11) 0.29102(14) 0.06974(14)
C20_4 C 0.06746(13) 0.22553(18) 0.11880(16)
H11_4 H 0.061786 0.180060 0.146584
C21_4 C 0.12825(13) 0.22677(18) 0.12708(15)
H12_4 H 0.164710 0.183351 0.161935
C27_4 C 0.12911(12) 0.1051(2) 0.69488(13)
H17_4 H 0.177139 0.094188 0.730194
C28_4 C 0.09490(12) 0.0575(2) 0.62830(13)
H18_4 H 0.118511 0.013669 0.617978
C29_4 C 0.02521(11) 0.07486(15) 0.57640(11)
C31_4 C 0.03049(11) 0.18279(15) 0.66218(12)
H20_4 H 0.007859 0.225756 0.674269
N4_4 N 0.09770(9) 0.16642(14) 0.71243(10)
C32_4 C 0.15509(10) 0.06699(14) 0.91379(12)
O8_4 O 0.14763(9) 0.07867(11) 0.85461(9)
O18_4 O 0.07733(8) 0.29787(12) 0.81016(9)
H21_4 H 0.158651 0.994622 0.023691
H22_4 H 0.113406 0.846416 0.032533
H30_4 H 0.013153 0.602224 0.007578
C25_3 C 0.00755(11) 0.86068(15) 0.40709(11)
H15_3 H 0.055119 0.846365 0.442393
N3_3 N 0.01626(9) 0.96983(14) 0.49527(10)
C33_4 C 0.12837(11) 0.97056(15) 0.92086(12)
C34_4 C 0.13525(12) 0.94894(16) 0.98359(13)
C35_4 C 0.10825(13) 0.86076(16) 0.98887(14)
C36_4 C 0.07406(11) 0.79415(14) 0.93096(14)
C37_4 C 0.06622(16) 0.81559(19) 0.86770(16)
H23_4 H 0.042650 0.769854 0.827636
C38_4 C 0.09273(17) 0.90407(19) 0.86222(16)
H24_4 H 0.086400 0.919151 0.818003
C39_4 C 0.12104(10) 0.35042(14) 0.86441(11)
C40_4 C 0.10093(10) 0.44029(14) 0.88468(11)
C41_4 C 0.03199(10) 0.46036(15) 0.85120(12)
C42_4 C 0.01346(11) 0.54574(15) 0.86960(13)
C43_4 C 0.06356(11) 0.61353(14) 0.91995(13)
C44_4 C 0.13268(11) 0.59351(16) 0.95367(14)
H27_4 H 0.167071 0.639454 0.988425
C45_4 C 0.15109(11) 0.50695(15) 0.93655(13)
H28_4 H 0.198223 0.492879 0.960307
N6_4 N 0.04665(10) 0.70392(12) 0.93761(13)
C2_4 C 0.87163(11) 0.02944(15) 0.07914(12)
C3_4 C 0.86475(12) 0.05106(16) 0.01641(13)
C4_4 C 0.89175(13) 0.13924(16) 0.01113(14)
C5_4 C 0.92594(11) 0.20585(14) 0.06904(14)
C6_4 C 0.93378(16) 0.18441(19) 0.13230(16)
H3_4 H 0.957350 0.230146 0.172364
C7_4 C 0.90727(17) 0.09593(19) 0.13778(16)
H4_4 H 0.913600 0.080849 0.181997
C8_4 C 0.87896(10) 0.64958(14) 0.13559(11)
C9_4 C 0.89907(10) 0.55971(14) 0.11532(11)
C10_4 C 0.96801(10) 0.53964(15) 0.14880(12)
C11_4 C 0.98654(11) 0.45426(15) 0.13040(13)
C12_4 C 0.93644(11) 0.38647(14) 0.08005(13)
C13_4 C 0.86732(11) 0.40649(16) 0.04633(14)
H7_4 H 0.832929 0.360546 0.011575
C14_4 C 0.84891(11) 0.49305(15) 0.06345(13)
H8_4 H 0.801777 0.507121 0.039693
N1_4 N 0.95335(10) 0.29608(12) 0.06239(13)
O3_4 O 0.81572(7) 0.67187(11) 0.09914(8)
O4_4 O 0.92267(8) 0.70213(12) 0.18984(9)
C30_3 C 0.99245(11) 0.13932(15) 0.59291(11)
H19_3 H 0.944881 0.153635 0.557607
N5_3 N 0.98374(9) 0.03017(14) 0.50473(10)
H1_4 H 0.841349 0.005378 0.976309
H2_4 H 0.886594 0.153584 0.967467
H10_4 H 0.986847 0.397776 0.992422
C1_4 C 0.84491(10) 0.93301(14) 0.08621(12)
C22_4 C 0.87089(12) 0.8949(2) 0.30512(13)
H13_4 H 0.822861 0.905812 0.269806
C23_4 C 0.90510(12) 0.9425(2) 0.37170(13)
H14_4 H 0.881489 0.986331 0.382022
C24_4 C 0.97479(11) 0.92514(15) 0.42360(11)
C26_4 C 0.96951(11) 0.81721(15) 0.33782(12)
H16_4 H 0.992141 0.774244 0.325731
N2_4 N 0.90230(9) 0.83358(14) 0.28757(10)
O1_4 O 0.81824(8) 0.87113(11) 0.03493(8)
O2_4 O 0.85237(9) 0.92133(11) 0.14539(9)
H25_4 H 0.997527 0.415210 0.815566
H26_4 H 0.966523 0.557980 0.847810
C46_4 C 0.79705(11) 0.70881(14) 0.90459(12)
C47_4 C 0.86324(11) 0.70968(14) 0.91463(12)
C48_4 C 0.91666(12) 0.64756(17) 0.96538(14)
H29_4 H 0.911998 0.605271 0.995401
C49_4 C 0.97698(12) 0.64622(17) 0.97300(14)
C50_4 C 0.98498(11) 0.70898(14) 0.93026(14)
C51_4 C 0.93254(13) 0.77447(18) 0.88120(16)
H31_4 H 0.938214 0.819940 0.853416
C52_4 C 0.87175(13) 0.77323(18) 0.87292(15)
H32_4 H 0.835290 0.816649 0.838065
O11_2 O 0.79882(8) 0.68991(11) 0.95887(8)
C30_4 C 0.00755(11) 0.13932(15) 0.90709(11)
H19_4 H 0.055119 0.153635 0.942393
N5_4 N 0.01626(9) 0.03017(14) 0.99527(10)
C25_4 C 0.99245(11) 0.86068(15) 0.09291(11)
H15_4 H 0.944881 0.846365 0.057607
N3_4 N 0.98374(9) 0.96983(14) 0.00473(10)
loop_
_geom_bond_atom_site_label_1
_geom_bond_atom_site_label_2
_geom_bond_site_symmetry_1
_geom_bond_site_symmetry_2
C8 C9 1_555 1_555
C9 C10 1_555 1_555
C10 H5 1_555 1_555
O3 C8 1_555 1_555
O4 C8 1_555 1_555
Zn5 O3 1_555 1_555
Zn9 O3 1_555 1_555
O4 Zn9 1_555 1_555
C1 C2 1_555 1_555
C2 C3 1_555 1_555
C3 H1 1_555 1_555
C4 C3 1_555 1_555
H2 C4 1_555 1_555
C5 C4 1_555 1_555
C6 C5 1_555 1_555
H3 C6 1_555 1_555
C7 C2 1_555 1_555
H4 C7 1_555 1_555
H6 C11 1_555 1_555
C12 C11 1_555 1_555
C13 C12 1_555 1_555
H7 C13 1_555 1_555
C15 C16 1_555 1_555
C16 C17 1_555 1_555
C17 H9 1_555 1_555
C18 C17 1_555 1_555
H10 C18 1_555 1_555
C19 C18 1_555 1_555
C20 C19 1_555 1_555
H11 C20 1_555 1_555
C21 C16 1_555 1_555
H12 C21 1_555 1_555
C22 H13 1_555 1_555
C23 C22 1_555 1_555
H14 C23 1_555 1_555
C24 C23 1_555 1_555
C25 C24 1_555 1_555
H15 C25 1_555 1_555
C26 C25 1_555 1_555
H16 C26 1_555 1_555
N1 C5 1_555 1_555
N2 C22 1_555 1_555
N3 C24 1_555 1_555
O1 C1 1_555 1_555
O2 C1 1_555 1_555
O5 C15 1_555 1_555
O6 C15 1_555 1_555
Zn5 O1 1_555 1_555
Zn9 N2 1_555 1_555
O13 Zn5 1_555 1_555
O16 Zn5 1_555 1_555
O19 Zn5 1_555 1_555
O20 Zn5 1_555 1_555
O21 Zn9 1_555 1_555
Zn8 O5 1_555 1_555
Zn10 O6 1_555 1_555
C6 C7 1_555 1_555
C12 N1 1_555 1_555
C13 C14 1_555 1_555
C19 N1 1_555 1_555
C20 C21 1_555 1_555
C26 N2 1_555 1_555
O2 Zn9 1_555 1_555
C27 H17 1_555 1_555
C28 C27 1_555 1_555
H18 C28 1_555 1_555
C29 C28 1_555 1_555
C30 C29 1_555 1_555
H19 C30 1_555 1_555
C31 C30 1_555 1_555
H20 C31 1_555 1_555
N4 C27 1_555 1_555
C32 C33 1_555 1_555
C33 C34 1_555 1_555
C34 H21 1_555 1_555
C35 C34 1_555 1_555
H22 C35 1_555 1_555
C36 C35 1_555 1_555
C37 C36 1_555 1_555
H23 C37 1_555 1_555
C38 C33 1_555 1_555
H24 C38 1_555 1_555
H26 C42 1_555 1_555
C43 C42 1_555 1_555
C44 C43 1_555 1_555
H27 C44 1_555 1_555
C46 C47 1_555 1_555
C47 C48 1_555 1_555
C48 H29 1_555 1_555
C49 C48 1_555 1_555
H30 C49 1_555 1_555
C50 C49 1_555 1_555
C51 C50 1_555 1_555
H31 C51 1_555 1_555
C52 C47 1_555 1_555
H32 C52 1_555 1_555
N6 C36 1_555 1_555
O7 C32 1_555 1_555
O8 C32 1_555 1_555
O20 C46 1_555 1_555
O12 C46 1_555 1_555
Zn3 N4 1_555 1_555
O15 Zn3 1_555 1_555
O18 Zn3 1_555 1_555
O22 Zn3 1_555 1_555
Zn8 O7 1_555 1_555
Zn12 O12 1_555 1_555
C29 N5 1_555 1_555
C31 N4 1_555 1_555
C37 C38 1_555 1_555
C43 N6 1_555 1_555
C44 C45 1_555 1_555
C50 N6 1_555 1_555
C51 C52 1_555 1_555
O8 Zn3 1_555 1_555
O15 Zn8 1_555 1_555
C39 C40 1_555 1_555
C40 C41 1_555 1_555
C41 H25 1_555 1_555
O15 C39 1_555 1_555
O18 C39 1_555 1_555
C2_2 C3_2 1_555 1_555
C3_2 H1_2 1_555 1_555
C4_2 C3_2 1_555 1_555
H2_2 C4_2 1_555 1_555
C5_2 C4_2 1_555 1_555
C6_2 C5_2 1_555 1_555
H3_2 C6_2 1_555 1_555
C7_2 C2_2 1_555 1_555
H4_2 C7_2 1_555 1_555
C8_2 C9_2 1_555 1_555
C9_2 C10_2 1_555 1_555
C11_2 C10_2 1_555 1_555
C12_2 C11_2 1_555 1_555
C13_2 C12_2 1_555 1_555
H7_2 C13_2 1_555 1_555
C14_2 C9_2 1_555 1_555
H8_2 C14_2 1_555 1_555
N1_2 C5_2 1_555 1_555
O3_2 C8_2 1_555 1_555
O4_2 C8_2 1_555 1_555
Zn8 O3_2 1_555 1_555
Zn10 O3_2 1_555 1_555
C6_2 C7_2 1_555 1_555
C12_2 N1_2 1_555 1_555
C13_2 C14_2 1_555 1_555
O4_2 Zn10 1_555 1_555
C22_2 H13_2 1_555 1_555
C23_2 C22_2 1_555 1_555
H14_2 C23_2 1_555 1_555
C24_2 C23_2 1_555 1_555
H16_2 C26_2 1_555 1_555
N2_2 C22_2 1_555 1_555
O1_2 C1_2 1_555 1_555
O2_2 C1_2 1_555 1_555
Zn8 O1_2 1_555 1_555
Zn10 N2_2 1_555 1_555
O20_2 Zn8 1_555 1_555
C26_2 N2_2 1_555 1_555
O2_2 Zn10 1_555 1_555
C46_2 C47_2 1_555 1_555
C47_2 C48_2 1_555 1_555
C48_2 H29_2 1_555 1_555
C49_2 C48_2 1_555 1_555
C50_2 C49_2 1_555 1_555
C51_2 C50_2 1_555 1_555
H31_2 C51_2 1_555 1_555
C52_2 C47_2 1_555 1_555
H32_2 C52_2 1_555 1_555
O20_2 C46_2 1_555 1_555
O22 C46_2 1_555 1_555
C51_2 C52_2 1_555 1_555
C15_2 C16_2 1_555 1_555
C16_2 C17_2 1_555 1_555
C17_2 H9_2 1_555 1_555
C18_2 C17_2 1_555 1_555
C19_2 C18_2 1_555 1_555
C20_2 C19_2 1_555 1_555
H11_2 C20_2 1_555 1_555
C21_2 C16_2 1_555 1_555
H12_2 C21_2 1_555 1_555
O19 C15_2 1_555 1_555
O21 C15_2 1_555 1_555
C20_2 C21_2 1_555 1_555
C27_2 H17_2 1_555 1_555
C28_2 C27_2 1_555 1_555
H18_2 C28_2 1_555 1_555
C29_2 C28_2 1_555 1_555
H20_2 C31_2 1_555 1_555
N4_2 C27_2 1_555 1_555
O13 C32_2 1_555 1_555
O8_2 C32_2 1_555 1_555
Zn12 N4_2 1_555 1_555
O16 Zn12 1_555 1_555
O18_2 Zn12 1_555 1_555
C31_2 N4_2 1_555 1_555
O8_2 Zn12 1_555 1_555
C33_2 C34_2 1_555 1_555
C34_2 H21_2 1_555 1_555
C35_2 C34_2 1_555 1_555
H22_2 C35_2 1_555 1_555
C36_2 C35_2 1_555 1_555
C37_2 C36_2 1_555 1_555
H23_2 C37_2 1_555 1_555
C38_2 C33_2 1_555 1_555
H24_2 C38_2 1_555 1_555
C39_2 C40_2 1_555 1_555
C40_2 C41_2 1_555 1_555
C42_2 C41_2 1_555 1_555
C43_2 C42_2 1_555 1_555
C44_2 C43_2 1_555 1_555
H27_2 C44_2 1_555 1_555
C45_2 C40_2 1_555 1_555
H28_2 C45_2 1_555 1_555
N6_2 C36_2 1_555 1_555
O16 C39_2 1_555 1_555
O18_2 C39_2 1_555 1_555
C37_2 C38_2 1_555 1_555
C43_2 N6_2 1_555 1_555
C44_2 C45_2 1_555 1_555
C8_3 C9_3 1_555 1_555
C9_3 C10_3 1_555 1_555
C10_3 H5_3 1_555 1_555
O3_3 C8_3 1_555 1_555
O4_3 C8_3 1_555 1_555
Zn5_2 O3_3 1_555 1_555
Zn9_2 O3_3 1_555 1_555
O4_3 Zn9_2 1_555 1_555
C1_3 C2_3 1_555 1_555
C2_3 C3_3 1_555 1_555
C4_3 C3_3 1_555 1_555
C5_3 C4_3 1_555 1_555
C6_3 C5_3 1_555 1_555
H3_3 C6_3 1_555 1_555
C7_3 C2_3 1_555 1_555
H4_3 C7_3 1_555 1_555
H6_3 C11_3 1_555 1_555
C12_3 C11_3 1_555 1_555
C13_3 C12_3 1_555 1_555
H7_3 C13_3 1_555 1_555
C15_3 C16_3 1_555 1_555
C16_3 C17_3 1_555 1_555
C17_3 H9_3 1_555 1_555
C18_3 C17_3 1_555 1_555
C19_3 C18_3 1_555 1_555
C20_3 C19_3 1_555 1_555
H11_3 C20_3 1_555 1_555
C21_3 C16_3 1_555 1_555
H12_3 C21_3 1_555 1_555
C22_3 H13_3 1_555 1_555
C23_3 C22_3 1_555 1_555
H14_3 C23_3 1_555 1_555
C24_3 C23_3 1_555 1_555
C25_2 C24_3 1_555 1_555
H15_2 C25_2 1_555 1_555
C26_3 C25_2 1_555 1_555
H16_3 C26_3 1_555 1_555
N1_3 C5_3 1_555 1_555
N2_3 C22_3 1_555 1_555
N3_2 C24_3 1_555 1_555
O1_3 C1_3 1_555 1_555
O2_3 C1_3 1_555 1_555
O5_2 C15_3 1_555 1_555
O6_2 C15_3 1_555 1_555
Zn5_2 O1_3 1_555 1_555
Zn9_2 N2_3 1_555 1_555
C27_3 H17_3 1_555 1_555
C28_3 C27_3 1_555 1_555
H18_3 C28_3 1_555 1_555
C29_3 C28_3 1_555 1_555
C30_2 C29_3 1_555 1_555
H19_2 C30_2 1_555 1_555
C31_3 C30_2 1_555 1_555
H20_3 C31_3 1_555 1_555
N4_3 C27_3 1_555 1_555
N5_2 N3_2 1_555 1_555
C32_3 C33_3 1_555 1_555
C33_3 C34_3 1_555 1_555
C35_3 C34_3 1_555 1_555
C36_3 C35_3 1_555 1_555
C37_3 C36_3 1_555 1_555
H23_3 C37_3 1_555 1_555
C38_3 C33_3 1_555 1_555
H24_3 C38_3 1_555 1_555
H26_3 C42_3 1_555 1_555
C43_3 C42_3 1_555 1_555
C44_3 C43_3 1_555 1_555
H27_3 C44_3 1_555 1_555
C46_3 C47_3 1_555 1_555
C47_3 C48_3 1_555 1_555
C48_3 H29_3 1_555 1_555
C49_3 C48_3 1_555 1_555
C50_3 C49_3 1_555 1_555
C51_3 C50_3 1_555 1_555
H31_3 C51_3 1_555 1_555
C52_3 C47_3 1_555 1_555
H32_3 C52_3 1_555 1_555
N6_3 C36_3 1_555 1_555
O7_2 C32_3 1_555 1_555
O8_3 C32_3 1_555 1_555
O11 C46_3 1_555 1_555
O12_2 C46_3 1_555 1_555
Zn3_2 N4_3 1_555 1_555
O15_2 Zn3_2 1_555 1_555
O18_3 Zn3_2 1_555 1_555
O19_2 Zn5_2 1_555 1_555
O21_2 Zn9_2 1_555 1_555
O22_2 Zn3_2 1_555 1_555
Zn5_3 O11 1_555 1_555
Zn7_2 O7_2 1_555 1_555
Zn7 O5_2 1_555 1_555
Zn10_2 O6_2 1_555 1_555
Zn12_2 O12_2 1_555 1_555
C6_3 C7_3 1_555 1_555
C12_3 N1_3 1_555 1_555
C13_3 C14_3 1_555 1_555
C19_3 N1_3 1_555 1_555
C20_3 C21_3 1_555 1_555
C26_3 N2_3 1_555 1_555
O2_3 Zn9_2 1_555 1_555
C29_3 N5_2 1_555 1_555
C31_3 N4_3 1_555 1_555
C37_3 C38_3 1_555 1_555
C43_3 N6_3 1_555 1_555
C44_3 C45_3 1_555 1_555
C50_3 N6_3 1_555 1_555
C51_3 C52_3 1_555 1_555
O8_3 Zn3_2 1_555 1_555
O15_2 Zn7_2 1_555 1_555
O13_2 Zn5_3 1_555 1_555
O16_2 Zn5_3 1_555 1_555
C39_3 C40_3 1_555 1_555
C40_3 C41_3 1_555 1_555
C41_3 H25_3 1_555 1_555
O15_2 C39_3 1_555 1_555
O18_3 C39_3 1_555 1_555
C15_4 C16_4 1_555 1_555
C16_4 C17_4 1_555 1_555
C17_4 H9_4 1_555 1_555
C18_4 C17_4 1_555 1_555
C19_4 C18_4 1_555 1_555
C20_4 C19_4 1_555 1_555
H11_4 C20_4 1_555 1_555
C21_4 C16_4 1_555 1_555
H12_4 C21_4 1_555 1_555
O19_2 C15_4 1_555 1_555
O21_2 C15_4 1_555 1_555
C27_4 H17_4 1_555 1_555
C28_4 C27_4 1_555 1_555
H18_4 C28_4 1_555 1_555
C29_4 C28_4 1_555 1_555
H20_4 C31_4 1_555 1_555
N4_4 C27_4 1_555 1_555
O13_2 C32_4 1_555 1_555
O8_4 C32_4 1_555 1_555
Zn12_2 N4_4 1_555 1_555
O16_2 Zn12_2 1_555 1_555
O18_4 Zn12_2 1_555 1_555
C20_4 C21_4 1_555 1_555
C31_4 N4_4 1_555 1_555
O8_4 Zn12_2 1_555 1_555
H15_3 C25_3 1_555 1_555
C33_4 C34_4 1_555 1_555
C35_4 C34_4 1_555 1_555
C36_4 C35_4 1_555 1_555
C37_4 C36_4 1_555 1_555
H23_4 C37_4 1_555 1_555
C38_4 C33_4 1_555 1_555
H24_4 C38_4 1_555 1_555
C39_4 C40_4 1_555 1_555
C40_4 C41_4 1_555 1_555
C42_4 C41_4 1_555 1_555
C43_4 C42_4 1_555 1_555
C44_4 C43_4 1_555 1_555
H27_4 C44_4 1_555 1_555
C45_4 C40_4 1_555 1_555
H28_4 C45_4 1_555 1_555
N6_4 C36_4 1_555 1_555
O16_2 C39_4 1_555 1_555
O18_4 C39_4 1_555 1_555
C37_4 C38_4 1_555 1_555
C43_4 N6_4 1_555 1_555
C44_4 C45_4 1_555 1_555
C2_4 C3_4 1_555 1_555
C4_4 C3_4 1_555 1_555
C5_4 C4_4 1_555 1_555
C6_4 C5_4 1_555 1_555
H3_4 C6_4 1_555 1_555
C7_4 C2_4 1_555 1_555
H4_4 C7_4 1_555 1_555
C8_4 C9_4 1_555 1_555
C9_4 C10_4 1_555 1_555
C11_4 C10_4 1_555 1_555
C12_4 C11_4 1_555 1_555
C13_4 C12_4 1_555 1_555
H7_4 C13_4 1_555 1_555
C14_4 C9_4 1_555 1_555
H8_4 C14_4 1_555 1_555
N1_4 C5_4 1_555 1_555
O3_4 C8_4 1_555 1_555
O4_4 C8_4 1_555 1_555
H19_3 C30_3 1_555 1_555
Zn7 O3_4 1_555 1_555
Zn10_2 O3_4 1_555 1_555
C6_4 C7_4 1_555 1_555
C12_4 N1_4 1_555 1_555
C13_4 C14_4 1_555 1_555
O4_4 Zn10_2 1_555 1_555
C22_4 H13_4 1_555 1_555
C23_4 C22_4 1_555 1_555
H14_4 C23_4 1_555 1_555
C24_4 C23_4 1_555 1_555
H16_4 C26_4 1_555 1_555
N2_4 C22_4 1_555 1_555
O1_4 C1_4 1_555 1_555
O2_4 C1_4 1_555 1_555
Zn7 O1_4 1_555 1_555
Zn10_2 N2_4 1_555 1_555
C46_4 C47_4 1_555 1_555
C47_4 C48_4 1_555 1_555
C48_4 H29_4 1_555 1_555
C49_4 C48_4 1_555 1_555
C50_4 C49_4 1_555 1_555
C51_4 C50_4 1_555 1_555
H31_4 C51_4 1_555 1_555
C52_4 C47_4 1_555 1_555
H32_4 C52_4 1_555 1_555
O11_2 C46_4 1_555 1_555
O22_2 C46_4 1_555 1_555
Zn7_2 O11_2 1_555 1_555
C26_4 N2_4 1_555 1_555
O2_4 Zn10_2 1_555 1_555
C51_4 C52_4 1_555 1_555
H19_4 C30_4 1_555 1_555
H15_4 C25_4 1_555 1_555

#END
