
###############################################################################
#
# This file contains modified crystal structure data generated from the
# MOF subset of the Cambridge Structural Database (CSD) v543 
# hosted by the Cambridge Crystallographic Data Centre (CCDC).
#
# This work is licensed under the Creative Commons
# Attribution-NonCommercial-ShareAlike 4.0 International License.
# To view a copy of this license, visit
# http://creativecommons.org/licenses/by-nc-sa/4.0/
# or send a letter to
# Creative Commons, PO Box 1866, Mountain View, CA 94042, USA.
#
# CIF created using the CSD Python API on 29 September 2022
# The structure has been converted into the P1 space group
# The structure has a 3D framework
# The original CSD entry GUBKUL is in the monoclinic crystal system
# The framework has been calculated to contain at least 10.0% void space
# The void calculation uses a probe of radius 1.32A, grid spacing 0.4
# H atom positions have been added when not included in the experimental data
#
###############################################################################

data_GUBKUL
_chemical_formula_moiety         '(C96 H160 Ba24 O175)n'
_symmetry_cell_setting           triclinic
_symmetry_space_group_name_H-M   'P 1'
_symmetry_Int_Tables_number      1
_space_group_name_Hall           'P 1'
loop_
_symmetry_equiv_pos_site_id
_symmetry_equiv_pos_as_xyz
1 x,y,z
_cell_length_a                   13.4109(2)
_cell_length_b                   16.2568(4)
_cell_length_c                   27.9028(6)
_cell_angle_alpha                90
_cell_angle_beta                 98.984(2)
_cell_angle_gamma                90
_cell_volume                     6008.69
loop_
_atom_site_label
_atom_site_type_symbol
_atom_site_fract_x
_atom_site_fract_y
_atom_site_fract_z
H2 H 0.61159 0.0149502 0.695262
H6 H 0.591195 0.0163851 0.833551
O20 O 0.5088(3) 0.6754(3) 0.0395(2)
Ba8 Ba 0.61378(2) 0.40562(2) 0.041000(12)
O24 O 0.4379(3) 0.4850(3) 0.04282(15)
O25 O 0.3164(3) 0.5761(3) 0.04581(15)
H11 H 0.504459 0.7359 0.0347284
H12 H 0.484031 0.660694 0.070119
Ba1 Ba 0.37181(2) 0.74371(2) 0.820152(12)
Ba2 Ba 0.65078(2) 0.86001(2) 0.768072(13)
Ba3 Ba 0.38622(2) 0.59438(2) 0.959000(12)
C1 C 0.6125(4) 0.5877(3) 0.81462(19)
C2 C 0.6209(4) 0.6738(3) 0.7962(2)
O1 O 0.6856(3) 0.6874(3) 0.76950(17)
O2 O 0.5653(3) 0.7285(3) 0.81014(17)
C3 C 0.6048(4) 0.5728(3) 0.86295(18)
C4 C 0.5905(4) 0.6443(3) 0.8952(2)
O3 O 0.5025(3) 0.6664(3) 0.89923(16)
O4 O 0.6698(4) 0.6784(3) 0.91671(17)
C5 C 0.6211(4) 0.4936(3) 0.88182(18)
C6 C 0.6221(4) 0.4777(3) 0.93467(19)
O5 O 0.5621(3) 0.5150(3) 0.95718(15)
O6 O 0.6836(3) 0.4239(3) 0.95419(15)
C7 C 0.6392(4) 0.4291(3) 0.85146(19)
C8 C 0.6702(4) 0.3449(3) 0.87279(19)
O7 O 0.6012(3) 0.2966(3) 0.87956(16)
O8 O 0.7620(3) 0.3301(3) 0.88096(15)
C9 C 0.6307(4) 0.4419(3) 0.80130(19)
C10 C 0.6260(4) 0.3713(3) 0.76689(19)
O9 O 0.6866(3) 0.3120(3) 0.77463(15)
O10 O 0.5553(3) 0.3743(3) 0.73114(14)
C11 C 0.6193(4) 0.5218(3) 0.78326(19)
C12 C 0.6154(4) 0.5399(4) 0.7295(2)
O11 O 0.6919(4) 0.5256(3) 0.71034(17)
O12 O 0.5345(4) 0.5728(3) 0.70863(18)
O13 O 0.4760(6) 0.8523(5) 0.8916(2)
O14 O 0.2554(5) 0.8829(4) 0.8274(2)
O15 O 0.7713(4) 0.7990(3) 0.85956(19)
O16 O 0.5986(4) 0.9582(4) 0.84435(19)
O17 O 0.6222(4) 0.9570(4) 0.6860(2)
O18 O 0.5652(4) 0.7589(4) 0.6853(2)
O19 O 0.3464(4) 0.4342(4) 0.9161(2)
O21 O 0.3322(6) 0.7605(4) 0.9730(3)
O22 O 0.3836(4) 0.6053(4) 0.7613(2)
Ba4 Ba 0.62819(2) 0.24371(2) 0.679848(12)
Ba5 Ba 0.87181(2) 0.25629(2) 0.820152(12)
Ba6 Ba 0.34922(2) 0.36001(2) 0.731928(13)
Ba7 Ba 0.84922(2) 0.63999(2) 0.731928(13)
Ba9 Ba 0.88622(2) 0.40562(2) 0.959000(12)
O23 O 0.8144(3) 0.8126(3) 0.73050(17)
O26 O 0.1836(3) 0.5761(3) 0.95419(15)
O27 O 0.2620(3) 0.6699(3) 0.88096(15)
O28 O 0.3134(3) 0.8120(3) 0.72537(15)
O29 O 0.1866(3) 0.6880(3) 0.77463(15)
O30 O 0.4447(3) 0.8743(3) 0.76886(14)
O31 O 0.8081(4) 0.9744(3) 0.78966(17)
H1 H 0.56205 0.937381 0.663585
H3 H 0.512409 0.894708 0.875431
H4 H 0.426608 0.879473 0.909481
H5 H 0.65251 0.954147 0.873012
H7 H 0.519612 0.716914 0.696011
H8 H 0.52637 0.794327 0.66001
H9 H 0.411194 0.404827 0.915722
H10 H 0.303714 0.402179 0.935431
H13 H 0.834004 0.772581 0.852289
H14 H 0.789131 0.845845 0.88211
H15 H 0.301336 0.7846 0.941449
H16 H 0.282905 0.762686 0.996081
H17 H 0.429463 0.563973 0.779326
H18 H 0.315306 0.581019 0.752273
H19 H 0.253747 0.91694 0.797737
H20 H 0.185627 0.866198 0.830801
Ba1_2 Ba 0.12819(2) 0.74371(2) 0.179848(12)
Ba3_2 Ba 0.11378(2) 0.59438(2) 0.041000(12)
O13_2 O 0.0240(6) 0.8523(5) 0.1084(2)
O14_2 O 0.2446(5) 0.8829(4) 0.1726(2)
O19_2 O 0.1536(4) 0.4342(4) 0.0839(2)
O21_2 O 0.1678(6) 0.7605(4) 0.0270(3)
O22_2 O 0.1164(4) 0.6053(4) 0.2387(2)
Ba6_2 Ba 0.15078(2) 0.36001(2) 0.268072(13)
O27_2 O 0.2380(3) 0.6699(3) 0.11904(15)
O28_2 O 0.1866(3) 0.8120(3) 0.27463(15)
O29_2 O 0.3134(3) 0.6880(3) 0.22537(15)
O30_2 O 0.0553(3) 0.8743(3) 0.23114(14)
H4_2 H 0.0733921 0.879473 0.0905193
H9_2 H 0.088806 0.404827 0.0842779
H10_2 H 0.196286 0.402179 0.0645693
H15_2 H 0.198664 0.7846 0.058551
H16_2 H 0.217095 0.762686 0.0039186
H17_2 H 0.0705372 0.563973 0.220674
H18_2 H 0.184694 0.581019 0.247727
H19_2 H 0.246253 0.91694 0.202263
H20_2 H 0.314373 0.866198 0.169199
O24_2 O 0.0621(3) 0.4850(3) 0.95718(15)
H12_2 H 0.0159688 0.660694 0.929881
Ba2_2 Ba 0.84922(2) 0.86001(2) 0.231928(13)
C1_2 C 0.8875(4) 0.5877(3) 0.18538(19)
C2_2 C 0.8791(4) 0.6738(3) 0.2038(2)
O1_2 O 0.8144(3) 0.6874(3) 0.23050(17)
O2_2 O 0.9347(3) 0.7285(3) 0.18986(17)
C3_2 C 0.8952(4) 0.5728(3) 0.13705(18)
C4_2 C 0.9095(4) 0.6443(3) 0.1048(2)
O3_2 O 0.9975(3) 0.6664(3) 0.10077(16)
O4_2 O 0.8302(4) 0.6784(3) 0.08329(17)
C5_2 C 0.8789(4) 0.4936(3) 0.11818(18)
C6_2 C 0.8779(4) 0.4777(3) 0.06533(19)
O5_2 O 0.9379(3) 0.5150(3) 0.04282(15)
O6_2 O 0.8164(3) 0.4239(3) 0.04581(15)
C7_2 C 0.8608(4) 0.4291(3) 0.14854(19)
C8_2 C 0.8298(4) 0.3449(3) 0.12721(19)
O7_2 O 0.8988(3) 0.2966(3) 0.12044(16)
O8_2 O 0.7380(3) 0.3301(3) 0.11904(15)
C9_2 C 0.8693(4) 0.4419(3) 0.19870(19)
C10_2 C 0.8740(4) 0.3713(3) 0.23311(19)
O9_2 O 0.8134(3) 0.3120(3) 0.22537(15)
O10_2 O 0.9447(3) 0.3743(3) 0.26886(14)
C11_2 C 0.8807(4) 0.5218(3) 0.21674(19)
C12_2 C 0.8846(4) 0.5399(4) 0.2705(2)
O11_2 O 0.8081(4) 0.5256(3) 0.28966(17)
O12_2 O 0.9655(4) 0.5728(3) 0.29137(18)
O15_2 O 0.7287(4) 0.7990(3) 0.14044(19)
O16_2 O 0.9014(4) 0.9582(4) 0.15565(19)
O17_2 O 0.8778(4) 0.9570(4) 0.3140(2)
O18_2 O 0.9348(4) 0.7589(4) 0.3147(2)
Ba4_2 Ba 0.87181(2) 0.24371(2) 0.320152(12)
Ba5_2 Ba 0.62819(2) 0.25629(2) 0.179848(12)
Ba7_2 Ba 0.65078(2) 0.63999(2) 0.268072(13)
O23_2 O 0.6856(3) 0.8126(3) 0.26950(17)
O31_2 O 0.6919(4) 0.9744(3) 0.21034(17)
H1_2 H 0.93795 0.937381 0.336415
H3_2 H 0.987591 0.894708 0.124569
H5_2 H 0.84749 0.954147 0.126988
H7_2 H 0.980388 0.716914 0.303989
H8_2 H 0.97363 0.794327 0.33999
H13_2 H 0.665996 0.772581 0.147711
H14_2 H 0.710869 0.845845 0.11789
O20_2 O 0.9912(3) 0.6754(3) 0.9605(2)
H11_2 H 0.995541 0.7359 0.965272
C1_3 C 0.1125(4) 0.0877(3) 0.31462(19)
C2_3 C 0.1209(4) 0.1738(3) 0.2962(2)
O1_3 O 0.1856(3) 0.1874(3) 0.26950(17)
O2_3 O 0.0653(3) 0.2285(3) 0.31014(17)
C3_3 C 0.1048(4) 0.0728(3) 0.36295(18)
C4_3 C 0.0905(4) 0.1443(3) 0.3952(2)
O3_3 O 0.0025(3) 0.1664(3) 0.39923(16)
O4_3 O 0.1698(4) 0.1784(3) 0.41671(17)
O5_3 O 0.0621(3) 0.0150(3) 0.45718(15)
C11_3 C 0.1193(4) 0.0218(3) 0.28326(19)
C12_3 C 0.1154(4) 0.0399(4) 0.2295(2)
O11_3 O 0.1919(4) 0.0256(3) 0.21034(17)
O12_3 O 0.0345(4) 0.0728(3) 0.20863(18)
O15_3 O 0.2713(4) 0.2990(3) 0.35956(19)
O16_3 O 0.0986(4) 0.4582(4) 0.34435(19)
O17_3 O 0.1222(4) 0.4570(4) 0.1860(2)
O18_3 O 0.0652(4) 0.2589(4) 0.1853(2)
O20_3 O 0.0088(3) 0.1754(3) 0.5395(2)
Ba7_3 Ba 0.34922(2) 0.13999(2) 0.231928(13)
O23_3 O 0.3144(3) 0.3126(3) 0.23050(17)
O31_3 O 0.3081(4) 0.4744(3) 0.28966(17)
H1_3 H 0.0620501 0.437381 0.163585
H2_2 H 0.11159 0.51495 0.195262
H3_3 H 0.0124087 0.394708 0.375431
H5_3 H 0.15251 0.454147 0.373012
H6_2 H 0.0911953 0.516385 0.333551
H7_3 H 0.0196118 0.216914 0.196011
H8_3 H 0.0263696 0.294327 0.16001
H11_3 H 0.00445905 0.2359 0.534728
H13_3 H 0.334004 0.272581 0.352289
H14_3 H 0.289131 0.345845 0.38211
C5_3 C 0.1211(4) 0.9936(3) 0.38182(18)
C6_3 C 0.1221(4) 0.9777(3) 0.43467(19)
O6_3 O 0.1836(3) 0.9239(3) 0.45419(15)
C7_3 C 0.1392(4) 0.9291(3) 0.35146(19)
C8_3 C 0.1702(4) 0.8449(3) 0.37279(19)
O7_3 O 0.1012(3) 0.7966(3) 0.37956(16)
O8_3 O 0.2620(3) 0.8301(3) 0.38096(15)
C9_3 C 0.1307(4) 0.9419(3) 0.30130(19)
C10_3 C 0.1260(4) 0.8713(3) 0.26689(19)
Ba5_3 Ba 0.37181(2) 0.75629(2) 0.320152(12)
Ba8_2 Ba 0.11378(2) 0.90562(2) 0.541000(12)
Ba9_2 Ba 0.38622(2) 0.90562(2) 0.459000(12)
Ba3_3 Ba 0.88622(2) 0.09438(2) 0.459000(12)
O13_3 O 0.9760(6) 0.3523(5) 0.3916(2)
O14_3 O 0.7554(5) 0.3829(4) 0.3274(2)
O21_3 O 0.8322(6) 0.2605(4) 0.4730(3)
O22_3 O 0.8836(4) 0.1053(4) 0.2613(2)
O25_2 O 0.8164(3) 0.0761(3) 0.54581(15)
O26_2 O 0.6836(3) 0.0761(3) 0.45419(15)
O27_3 O 0.7620(3) 0.1699(3) 0.38096(15)
O29_3 O 0.6866(3) 0.1880(3) 0.27463(15)
H4_3 H 0.926608 0.379473 0.409481
H12_3 H 0.984031 0.160694 0.570119
H15_3 H 0.801336 0.2846 0.441449
H16_3 H 0.782905 0.262686 0.496081
H17_3 H 0.929463 0.0639729 0.279326
H18_3 H 0.815306 0.0810192 0.252273
H19_3 H 0.753747 0.41694 0.297737
H20_3 H 0.685627 0.366198 0.330801
O19_3 O 0.8464(4) 0.9342(4) 0.4161(2)
O24_3 O 0.9379(3) 0.9850(3) 0.54282(15)
H9_3 H 0.911194 0.904827 0.415722
H10_3 H 0.803714 0.902179 0.435431
Ba3_4 Ba 0.61378(2) 0.09438(2) 0.541000(12)
C1_4 C 0.3875(4) 0.0877(3) 0.68538(19)
C2_4 C 0.3791(4) 0.1738(3) 0.7038(2)
O1_4 O 0.3144(3) 0.1874(3) 0.73050(17)
O2_4 O 0.4347(3) 0.2285(3) 0.68986(17)
C3_4 C 0.3952(4) 0.0728(3) 0.63705(18)
C4_4 C 0.4095(4) 0.1443(3) 0.6048(2)
O3_4 O 0.4975(3) 0.1664(3) 0.60077(16)
O4_4 O 0.3302(4) 0.1784(3) 0.58329(17)
O5_4 O 0.4379(3) 0.0150(3) 0.54282(15)
C11_4 C 0.3807(4) 0.0218(3) 0.71674(19)
C12_4 C 0.3846(4) 0.0399(4) 0.7705(2)
O11_4 O 0.3081(4) 0.0256(3) 0.78966(17)
O12_4 O 0.4655(4) 0.0728(3) 0.79137(18)
O13_4 O 0.5240(6) 0.3523(5) 0.6084(2)
O14_4 O 0.7446(5) 0.3829(4) 0.6726(2)
O15_4 O 0.2287(4) 0.2990(3) 0.64044(19)
O16_4 O 0.4014(4) 0.4582(4) 0.65565(19)
O17_4 O 0.3778(4) 0.4570(4) 0.8140(2)
O18_4 O 0.4348(4) 0.2589(4) 0.8147(2)
O20_4 O 0.4912(3) 0.1754(3) 0.4605(2)
O21_4 O 0.6678(6) 0.2605(4) 0.5270(3)
O22_4 O 0.6164(4) 0.1053(4) 0.7387(2)
Ba7_4 Ba 0.15078(2) 0.13999(2) 0.768072(13)
O23_4 O 0.1856(3) 0.3126(3) 0.76950(17)
O27_4 O 0.7380(3) 0.1699(3) 0.61904(15)
O29_4 O 0.8134(3) 0.1880(3) 0.72537(15)
O31_4 O 0.1919(4) 0.4744(3) 0.71034(17)
H1_4 H 0.43795 0.437381 0.836415
H2_3 H 0.38841 0.51495 0.804738
H3_4 H 0.487591 0.394708 0.624569
H4_4 H 0.573392 0.379473 0.590519
H5_4 H 0.34749 0.454147 0.626988
H6_3 H 0.408805 0.516385 0.666449
H7_4 H 0.480388 0.216914 0.803989
H8_4 H 0.47363 0.294327 0.83999
H11_4 H 0.495541 0.2359 0.465272
H12_4 H 0.515969 0.160694 0.429881
H13_4 H 0.165996 0.272581 0.647711
H14_4 H 0.210869 0.345845 0.61789
H15_4 H 0.698664 0.2846 0.558551
H16_4 H 0.717095 0.262686 0.503919
H17_4 H 0.570537 0.0639729 0.720674
H18_4 H 0.684694 0.0810192 0.747727
H19_4 H 0.746253 0.41694 0.702263
H20_4 H 0.814373 0.366198 0.669199
C5_4 C 0.3789(4) 0.9936(3) 0.61818(18)
C6_4 C 0.3779(4) 0.9777(3) 0.56533(19)
O6_4 O 0.3164(3) 0.9239(3) 0.54581(15)
C7_4 C 0.3608(4) 0.9291(3) 0.64854(19)
C8_4 C 0.3298(4) 0.8449(3) 0.62721(19)
O7_4 O 0.3988(3) 0.7966(3) 0.62044(16)
O8_4 O 0.2380(3) 0.8301(3) 0.61904(15)
C9_4 C 0.3693(4) 0.9419(3) 0.69870(19)
C10_4 C 0.3740(4) 0.8713(3) 0.73311(19)
O19_4 O 0.6536(4) 0.9342(4) 0.5839(2)
Ba5_4 Ba 0.12819(2) 0.75629(2) 0.679848(12)
O24_4 O 0.5621(3) 0.9850(3) 0.45718(15)
H9_4 H 0.588806 0.904827 0.584278
H10_4 H 0.696286 0.902179 0.564569
C1_5 C 0.3875(4) 0.4123(3) 0.18538(19)
C2_5 C 0.3791(4) 0.3262(3) 0.2038(2)
O2_5 O 0.4347(3) 0.2715(3) 0.18986(17)
C3_5 C 0.3952(4) 0.4272(3) 0.13705(18)
C4_5 C 0.4095(4) 0.3557(3) 0.1048(2)
O3_5 O 0.4975(3) 0.3336(3) 0.10077(16)
O4_5 O 0.3302(4) 0.3216(3) 0.08329(17)
C5_5 C 0.3789(4) 0.5064(3) 0.11818(18)
C6_5 C 0.3779(4) 0.5223(3) 0.06533(19)
C7_5 C 0.3608(4) 0.5709(3) 0.14854(19)
C8_5 C 0.3298(4) 0.6551(3) 0.12721(19)
O7_5 O 0.3988(3) 0.7034(3) 0.12044(16)
C9_5 C 0.3693(4) 0.5581(3) 0.19870(19)
C10_5 C 0.3740(4) 0.6287(3) 0.23311(19)
O10_3 O 0.4447(3) 0.6257(3) 0.26886(14)
C11_5 C 0.3807(4) 0.4782(3) 0.21674(19)
C12_5 C 0.3846(4) 0.4601(4) 0.2705(2)
O12_5 O 0.4655(4) 0.4272(3) 0.29137(18)
O13_5 O 0.5240(6) 0.1477(5) 0.1084(2)
O14_5 O 0.7446(5) 0.1171(4) 0.1726(2)
O15_5 O 0.2287(4) 0.2010(3) 0.14044(19)
O16_5 O 0.4014(4) 0.0418(4) 0.15565(19)
O17_5 O 0.3778(4) 0.0430(4) 0.3140(2)
O18_5 O 0.4348(4) 0.2411(4) 0.3147(2)
O19_5 O 0.6536(4) 0.5658(4) 0.0839(2)
O21_5 O 0.6678(6) 0.2395(4) 0.0270(3)
O22_5 O 0.6164(4) 0.3947(4) 0.2387(2)
O30_3 O 0.5553(3) 0.1257(3) 0.23114(14)
H1_5 H 0.43795 0.062619 0.336415
H3_5 H 0.487591 0.105292 0.124569
H4_5 H 0.573392 0.120527 0.0905193
H5_5 H 0.34749 0.045853 0.126988
H7_5 H 0.480388 0.283086 0.303989
H8_5 H 0.47363 0.205673 0.33999
H9_5 H 0.588806 0.595173 0.0842779
H10_5 H 0.696286 0.597821 0.0645693
H13_5 H 0.165996 0.227419 0.147711
H14_5 H 0.210869 0.154155 0.11789
H15_5 H 0.698664 0.2154 0.058551
H16_5 H 0.717095 0.237314 0.0039186
H17_5 H 0.570537 0.436027 0.220674
H18_5 H 0.684694 0.418981 0.247727
H19_5 H 0.746253 0.0830603 0.202263
H20_5 H 0.814373 0.133802 0.169199
O20_5 O 0.4912(3) 0.3246(3) 0.9605(2)
H11_5 H 0.495541 0.2641 0.965272
H12_5 H 0.515969 0.339306 0.929881
O20_6 O 0.0088(3) 0.3246(3) 0.0395(2)
H11_6 H 0.00445905 0.2641 0.0347284
C1_6 C 0.1125(4) 0.4123(3) 0.81462(19)
C2_6 C 0.1209(4) 0.3262(3) 0.7962(2)
O2_6 O 0.0653(3) 0.2715(3) 0.81014(17)
C3_6 C 0.1048(4) 0.4272(3) 0.86295(18)
C4_6 C 0.0905(4) 0.3557(3) 0.8952(2)
O3_6 O 0.0025(3) 0.3336(3) 0.89923(16)
O4_6 O 0.1698(4) 0.3216(3) 0.91671(17)
C5_6 C 0.1211(4) 0.5064(3) 0.88182(18)
C6_6 C 0.1221(4) 0.5223(3) 0.93467(19)
C7_6 C 0.1392(4) 0.5709(3) 0.85146(19)
C8_6 C 0.1702(4) 0.6551(3) 0.87279(19)
O7_6 O 0.1012(3) 0.7034(3) 0.87956(16)
C9_6 C 0.1307(4) 0.5581(3) 0.80130(19)
C10_6 C 0.1260(4) 0.6287(3) 0.76689(19)
O10_4 O 0.0553(3) 0.6257(3) 0.73114(14)
C11_6 C 0.1193(4) 0.4782(3) 0.78326(19)
C12_6 C 0.1154(4) 0.4601(4) 0.7295(2)
O12_6 O 0.0345(4) 0.4272(3) 0.70863(18)
O15_6 O 0.2713(4) 0.2010(3) 0.85956(19)
O16_6 O 0.0986(4) 0.0418(4) 0.84435(19)
O17_6 O 0.1222(4) 0.0430(4) 0.6860(2)
O18_6 O 0.0652(4) 0.2411(4) 0.6853(2)
H1_6 H 0.0620501 0.062619 0.663585
H3_6 H 0.0124087 0.105292 0.875431
H5_6 H 0.15251 0.045853 0.873012
H7_6 H 0.0196118 0.283086 0.696011
H8_6 H 0.0263696 0.205673 0.66001
H13_6 H 0.334004 0.227419 0.852289
H14_6 H 0.289131 0.154155 0.88211
H12_6 H 0.984031 0.339306 0.070119
O13_6 O 0.9760(6) 0.1477(5) 0.8916(2)
O14_6 O 0.7554(5) 0.1171(4) 0.8274(2)
O19_6 O 0.8464(4) 0.5658(4) 0.9161(2)
O21_6 O 0.8322(6) 0.2395(4) 0.9730(3)
O22_6 O 0.8836(4) 0.3947(4) 0.7613(2)
O30_4 O 0.9447(3) 0.1257(3) 0.76886(14)
H4_6 H 0.926608 0.120527 0.909481
H9_6 H 0.911194 0.595173 0.915722
H10_6 H 0.803714 0.597821 0.935431
H15_6 H 0.801336 0.2154 0.941449
H16_6 H 0.782905 0.237314 0.996081
H17_6 H 0.929463 0.436027 0.779326
H18_6 H 0.815306 0.418981 0.752273
H19_6 H 0.753747 0.0830603 0.797737
H20_6 H 0.685627 0.133802 0.830801
O19_7 O 0.1536(4) 0.0658(4) 0.5839(2)
H9_7 H 0.088806 0.0951726 0.584278
H10_7 H 0.196286 0.0978209 0.564569
O13_7 O 0.0240(6) 0.6477(5) 0.6084(2)
O14_7 O 0.2446(5) 0.6171(4) 0.6726(2)
O21_7 O 0.1678(6) 0.7395(4) 0.5270(3)
O22_7 O 0.1164(4) 0.8947(4) 0.7387(2)
H4_7 H 0.0733921 0.620527 0.590519
H12_7 H 0.0159688 0.839306 0.429881
H15_7 H 0.198664 0.7154 0.558551
H16_7 H 0.217095 0.737314 0.503919
H17_7 H 0.0705372 0.936027 0.720674
H18_7 H 0.184694 0.918981 0.747727
H19_7 H 0.246253 0.58306 0.702263
H20_7 H 0.314373 0.633802 0.669199
C5_7 C 0.8789(4) 0.0064(3) 0.61818(18)
C6_7 C 0.8779(4) 0.0223(3) 0.56533(19)
C7_7 C 0.8608(4) 0.0709(3) 0.64854(19)
C8_7 C 0.8298(4) 0.1551(3) 0.62721(19)
O7_7 O 0.8988(3) 0.2034(3) 0.62044(16)
C9_7 C 0.8693(4) 0.0581(3) 0.69870(19)
C10_7 C 0.8740(4) 0.1287(3) 0.73311(19)
C1_7 C 0.8875(4) 0.9123(3) 0.68538(19)
C2_7 C 0.8791(4) 0.8262(3) 0.7038(2)
O2_7 O 0.9347(3) 0.7715(3) 0.68986(17)
C3_7 C 0.8952(4) 0.9272(3) 0.63705(18)
C4_7 C 0.9095(4) 0.8557(3) 0.6048(2)
O3_7 O 0.9975(3) 0.8336(3) 0.60077(16)
O4_7 O 0.8302(4) 0.8216(3) 0.58329(17)
C11_7 C 0.8807(4) 0.9782(3) 0.71674(19)
C12_7 C 0.8846(4) 0.9601(4) 0.7705(2)
O12_7 O 0.9655(4) 0.9272(3) 0.79137(18)
O15_7 O 0.7287(4) 0.7010(3) 0.64044(19)
O16_7 O 0.9014(4) 0.5418(4) 0.65565(19)
O17_7 O 0.8778(4) 0.5430(4) 0.8140(2)
O18_7 O 0.9348(4) 0.7411(4) 0.8147(2)
O20_7 O 0.9912(3) 0.8246(3) 0.4605(2)
H1_7 H 0.93795 0.562619 0.836415
H2_4 H 0.88841 0.48505 0.804738
H3_7 H 0.987591 0.605292 0.624569
H5_7 H 0.84749 0.545853 0.626988
H6_4 H 0.908805 0.483615 0.666449
H7_7 H 0.980388 0.783086 0.803989
H8_7 H 0.97363 0.705673 0.83999
H11_7 H 0.995541 0.7641 0.465272
H13_7 H 0.665996 0.727419 0.647711
H14_7 H 0.710869 0.654155 0.61789
C5_8 C 0.6211(4) 0.0064(3) 0.38182(18)
C6_8 C 0.6221(4) 0.0223(3) 0.43467(19)
C7_8 C 0.6392(4) 0.0709(3) 0.35146(19)
C8_8 C 0.6702(4) 0.1551(3) 0.37279(19)
O7_8 O 0.6012(3) 0.2034(3) 0.37956(16)
C9_8 C 0.6307(4) 0.0581(3) 0.30130(19)
C10_8 C 0.6260(4) 0.1287(3) 0.26689(19)
O19_8 O 0.3464(4) 0.0658(4) 0.4161(2)
H9_8 H 0.411194 0.0951726 0.415722
H10_8 H 0.303714 0.0978209 0.435431
C1_8 C 0.6125(4) 0.9123(3) 0.31462(19)
C2_8 C 0.6209(4) 0.8262(3) 0.2962(2)
O2_8 O 0.5653(3) 0.7715(3) 0.31014(17)
C3_8 C 0.6048(4) 0.9272(3) 0.36295(18)
C4_8 C 0.5905(4) 0.8557(3) 0.3952(2)
O3_8 O 0.5025(3) 0.8336(3) 0.39923(16)
O4_8 O 0.6698(4) 0.8216(3) 0.41671(17)
C11_8 C 0.6193(4) 0.9782(3) 0.28326(19)
C12_8 C 0.6154(4) 0.9601(4) 0.2295(2)
O12_8 O 0.5345(4) 0.9272(3) 0.20863(18)
O13_8 O 0.4760(6) 0.6477(5) 0.3916(2)
O14_8 O 0.2554(5) 0.6171(4) 0.3274(2)
O15_8 O 0.7713(4) 0.7010(3) 0.35956(19)
O16_8 O 0.5986(4) 0.5418(4) 0.34435(19)
O17_8 O 0.6222(4) 0.5430(4) 0.1860(2)
O18_8 O 0.5652(4) 0.7411(4) 0.1853(2)
O20_8 O 0.5088(3) 0.8246(3) 0.5395(2)
O21_8 O 0.3322(6) 0.7395(4) 0.4730(3)
O22_8 O 0.3836(4) 0.8947(4) 0.2613(2)
H1_8 H 0.56205 0.562619 0.163585
H2_5 H 0.61159 0.48505 0.195262
H3_8 H 0.512409 0.605292 0.375431
H4_8 H 0.426608 0.620527 0.409481
H5_8 H 0.65251 0.545853 0.373012
H6_5 H 0.591195 0.483615 0.333551
H7_8 H 0.519612 0.783086 0.196011
H8_8 H 0.52637 0.705673 0.16001
H11_8 H 0.504459 0.7641 0.534728
H12_8 H 0.484031 0.839306 0.570119
H13_8 H 0.834004 0.727419 0.352289
H14_8 H 0.789131 0.654155 0.38211
H15_8 H 0.301336 0.7154 0.441449
H16_8 H 0.282905 0.737314 0.496081
H17_8 H 0.429463 0.936027 0.279326
H18_8 H 0.315306 0.918981 0.252273
H19_8 H 0.253747 0.58306 0.297737
H20_8 H 0.185627 0.633802 0.330801
H2_6 H 0.88841 0.0149502 0.304738
H6_6 H 0.908805 0.0163851 0.166449
H2_7 H 0.38841 0.98505 0.304738
H6_7 H 0.408805 0.983615 0.166449
H2_8 H 0.11159 0.98505 0.695262
H6_8 H 0.0911953 0.983615 0.833551
loop_
_geom_bond_atom_site_label_1
_geom_bond_atom_site_label_2
_geom_bond_site_symmetry_1
_geom_bond_site_symmetry_2
Ba8 O24 1_555 1_555
O20 H11 1_555 1_555
O20 H12 1_555 1_555
Ba1 O2 1_555 1_555
Ba2 O1 1_555 1_555
Ba3 O3 1_555 1_555
C1 C2 1_555 1_555
C2 O1 1_555 1_555
O1 Ba7 1_555 1_555
O2 Ba2 1_555 1_555
C3 C1 1_555 1_555
C4 C3 1_555 1_555
O3 Ba1 1_555 1_555
O4 C4 1_555 1_555
C5 C3 1_555 1_555
C6 C5 1_555 1_555
O5 Ba3 1_555 1_555
O6 C6 1_555 1_555
C7 C5 1_555 1_555
C8 C7 1_555 1_555
O7 C8 1_555 1_555
O8 C8 1_555 1_555
C9 C7 1_555 1_555
C10 C9 1_555 1_555
O9 C10 1_555 1_555
O10 C10 1_555 1_555
C11 C1 1_555 1_555
C12 C11 1_555 1_555
O11 C12 1_555 1_555
O12 C12 1_555 1_555
O13 Ba1 1_555 1_555
O14 Ba1 1_555 1_555
O15 Ba2 1_555 1_555
O16 Ba2 1_555 1_555
O17 Ba2 1_555 1_555
O18 Ba2 1_555 1_555
O19 Ba3 1_555 1_555
O21 Ba3 1_555 1_555
O22 Ba1 1_555 1_555
Ba4 O9 1_555 1_555
Ba5 O8 1_555 1_555
Ba6 O10 1_555 1_555
Ba7 O11 1_555 1_555
Ba9 O6 1_555 1_555
O23 Ba2 1_555 1_555
O26 Ba3 1_555 1_555
O27 Ba1 1_555 1_555
O28 Ba1 1_555 1_555
O29 Ba1 1_555 1_555
O30 Ba1 1_555 1_555
O31 Ba2 1_555 1_555
Ba2 O30 1_555 1_555
Ba3 O27 1_555 1_555
C2 O2 1_555 1_555
C4 O3 1_555 1_555
C6 O5 1_555 1_555
O8 Ba9 1_555 1_555
C9 C11 1_555 1_555
O9 Ba5 1_555 1_555
O10 Ba4 1_555 1_555
Ba7 O23 1_555 1_555
O17 H1 1_555 1_555
O13 H3 1_555 1_555
O13 H4 1_555 1_555
O16 H5 1_555 1_555
O18 H7 1_555 1_555
O18 H8 1_555 1_555
O19 H9 1_555 1_555
O19 H10 1_555 1_555
O15 H13 1_555 1_555
O15 H14 1_555 1_555
O21 H15 1_555 1_555
O21 H16 1_555 1_555
O22 H17 1_555 1_555
O22 H18 1_555 1_555
O14 H19 1_555 1_555
O14 H20 1_555 1_555
O13_2 Ba1_2 1_555 1_555
O14_2 Ba1_2 1_555 1_555
O19_2 Ba3_2 1_555 1_555
O21_2 Ba3_2 1_555 1_555
O22_2 Ba1_2 1_555 1_555
O25 Ba3_2 1_555 1_555
O27_2 Ba1_2 1_555 1_555
O28_2 Ba1_2 1_555 1_555
O29_2 Ba1_2 1_555 1_555
O30_2 Ba1_2 1_555 1_555
Ba3_2 O27_2 1_555 1_555
O13_2 H4_2 1_555 1_555
O19_2 H9_2 1_555 1_555
O19_2 H10_2 1_555 1_555
O21_2 H15_2 1_555 1_555
O21_2 H16_2 1_555 1_555
O22_2 H17_2 1_555 1_555
O22_2 H18_2 1_555 1_555
O14_2 H19_2 1_555 1_555
O14_2 H20_2 1_555 1_555
Ba2_2 O1_2 1_555 1_555
C1_2 C2_2 1_555 1_555
C2_2 O1_2 1_555 1_555
O1_2 Ba7_2 1_555 1_555
O2_2 Ba2_2 1_555 1_555
C3_2 C1_2 1_555 1_555
C4_2 C3_2 1_555 1_555
O4_2 C4_2 1_555 1_555
C5_2 C3_2 1_555 1_555
C6_2 C5_2 1_555 1_555
O6_2 C6_2 1_555 1_555
C7_2 C5_2 1_555 1_555
C8_2 C7_2 1_555 1_555
O7_2 C8_2 1_555 1_555
O8_2 C8_2 1_555 1_555
C9_2 C7_2 1_555 1_555
C10_2 C9_2 1_555 1_555
O9_2 C10_2 1_555 1_555
O10_2 C10_2 1_555 1_555
C11_2 C1_2 1_555 1_555
C12_2 C11_2 1_555 1_555
O11_2 C12_2 1_555 1_555
O12_2 C12_2 1_555 1_555
O15_2 Ba2_2 1_555 1_555
O16_2 Ba2_2 1_555 1_555
O17_2 Ba2_2 1_555 1_555
O18_2 Ba2_2 1_555 1_555
Ba4_2 O9_2 1_555 1_555
Ba5_2 O8_2 1_555 1_555
Ba7_2 O11_2 1_555 1_555
Ba8 O6_2 1_555 1_555
O23_2 Ba2_2 1_555 1_555
O31_2 Ba2_2 1_555 1_555
C2_2 O2_2 1_555 1_555
C4_2 O3_2 1_555 1_555
C6_2 O5_2 1_555 1_555
O8_2 Ba8 1_555 1_555
C9_2 C11_2 1_555 1_555
O9_2 Ba5_2 1_555 1_555
O10_2 Ba4_2 1_555 1_555
Ba7_2 O23_2 1_555 1_555
O17_2 H1_2 1_555 1_555
O16_2 H5_2 1_555 1_555
O18_2 H7_2 1_555 1_555
O18_2 H8_2 1_555 1_555
O15_2 H13_2 1_555 1_555
O15_2 H14_2 1_555 1_555
O20_2 H11_2 1_555 1_555
Ba6_2 O1_3 1_555 1_555
C1_3 C2_3 1_555 1_555
C2_3 O1_3 1_555 1_555
O1_3 Ba7_3 1_555 1_555
O2_3 Ba6_2 1_555 1_555
C3_3 C1_3 1_555 1_555
C4_3 C3_3 1_555 1_555
O4_3 C4_3 1_555 1_555
C11_3 C1_3 1_555 1_555
C12_3 C11_3 1_555 1_555
O11_3 C12_3 1_555 1_555
O12_3 C12_3 1_555 1_555
O15_3 Ba6_2 1_555 1_555
O16_3 Ba6_2 1_555 1_555
O17_3 Ba6_2 1_555 1_555
O18_3 Ba6_2 1_555 1_555
Ba7_3 O11_3 1_555 1_555
O23_3 Ba6_2 1_555 1_555
O31_3 Ba6_2 1_555 1_555
C2_3 O2_3 1_555 1_555
C4_3 O3_3 1_555 1_555
Ba7_3 O23_3 1_555 1_555
O17_3 H1_3 1_555 1_555
O17_3 H2_2 1_555 1_555
O16_3 H5_3 1_555 1_555
O16_3 H6_2 1_555 1_555
O18_3 H7_3 1_555 1_555
O18_3 H8_3 1_555 1_555
O20_3 H11_3 1_555 1_555
O15_3 H13_3 1_555 1_555
O15_3 H14_3 1_555 1_555
C6_3 C5_3 1_555 1_555
O6_3 C6_3 1_555 1_555
C7_3 C5_3 1_555 1_555
C8_3 C7_3 1_555 1_555
O7_3 C8_3 1_555 1_555
O8_3 C8_3 1_555 1_555
C9_3 C7_3 1_555 1_555
C10_3 C9_3 1_555 1_555
O28_2 C10_3 1_555 1_555
O30_2 C10_3 1_555 1_555
Ba5_3 O8_3 1_555 1_555
Ba9_2 O6_3 1_555 1_555
O6_3 Ba8_2 1_555 1_555
O8_3 Ba9_2 1_555 1_555
O28_2 Ba5_3 1_555 1_555
O13_3 Ba4_2 1_555 1_555
O14_3 Ba4_2 1_555 1_555
O21_3 Ba3_3 1_555 1_555
O22_3 Ba4_2 1_555 1_555
O25_2 Ba3_3 1_555 1_555
O26_2 Ba3_3 1_555 1_555
O27_3 Ba4_2 1_555 1_555
O29_3 Ba4_2 1_555 1_555
Ba3_3 O27_3 1_555 1_555
O13_3 H4_3 1_555 1_555
O21_3 H15_3 1_555 1_555
O21_3 H16_3 1_555 1_555
O22_3 H17_3 1_555 1_555
O22_3 H18_3 1_555 1_555
O14_3 H19_3 1_555 1_555
O14_3 H20_3 1_555 1_555
O19_3 H9_3 1_555 1_555
O19_3 H10_3 1_555 1_555
Ba4 O2_4 1_555 1_555
Ba6 O1_4 1_555 1_555
Ba3_4 O3_4 1_555 1_555
C1_4 C2_4 1_555 1_555
C2_4 O1_4 1_555 1_555
O1_4 Ba7_4 1_555 1_555
O2_4 Ba6 1_555 1_555
C3_4 C1_4 1_555 1_555
C4_4 C3_4 1_555 1_555
O3_4 Ba4 1_555 1_555
O4_4 C4_4 1_555 1_555
O5_4 Ba3_4 1_555 1_555
C11_4 C1_4 1_555 1_555
C12_4 C11_4 1_555 1_555
O11_4 C12_4 1_555 1_555
O12_4 C12_4 1_555 1_555
O13_4 Ba4 1_555 1_555
O14_4 Ba4 1_555 1_555
O15_4 Ba6 1_555 1_555
O16_4 Ba6 1_555 1_555
O17_4 Ba6 1_555 1_555
O18_4 Ba6 1_555 1_555
O20_4 Ba3_4 1_555 1_555
O21_4 Ba3_4 1_555 1_555
O22_4 Ba4 1_555 1_555
Ba7_4 O11_4 1_555 1_555
O23_4 Ba6 1_555 1_555
O26_2 Ba3_4 1_555 1_555
O25_2 Ba3_4 1_555 1_555
O27_4 Ba4 1_555 1_555
O29_4 Ba4 1_555 1_555
O31_4 Ba6 1_555 1_555
Ba3_4 O27_4 1_555 1_555
C2_4 O2_4 1_555 1_555
C4_4 O3_4 1_555 1_555
Ba7_4 O23_4 1_555 1_555
O17_4 H1_4 1_555 1_555
O17_4 H2_3 1_555 1_555
O13_4 H3_4 1_555 1_555
O13_4 H4_4 1_555 1_555
O16_4 H5_4 1_555 1_555
O16_4 H6_3 1_555 1_555
O18_4 H7_4 1_555 1_555
O18_4 H8_4 1_555 1_555
O20_4 H11_4 1_555 1_555
O20_4 H12_4 1_555 1_555
O15_4 H13_4 1_555 1_555
O15_4 H14_4 1_555 1_555
O21_4 H15_4 1_555 1_555
O21_4 H16_4 1_555 1_555
O22_4 H17_4 1_555 1_555
O22_4 H18_4 1_555 1_555
O14_4 H19_4 1_555 1_555
O14_4 H20_4 1_555 1_555
C6_4 C5_4 1_555 1_555
O6_4 C6_4 1_555 1_555
C7_4 C5_4 1_555 1_555
C8_4 C7_4 1_555 1_555
O7_4 C8_4 1_555 1_555
O8_4 C8_4 1_555 1_555
C9_4 C7_4 1_555 1_555
C10_4 C9_4 1_555 1_555
O28 C10_4 1_555 1_555
O30 C10_4 1_555 1_555
Ba5_4 O8_4 1_555 1_555
Ba8_2 O6_4 1_555 1_555
O6_4 Ba9_2 1_555 1_555
O8_4 Ba8_2 1_555 1_555
O28 Ba5_4 1_555 1_555
Ba9_2 O24_4 1_555 1_555
O19_4 H9_4 1_555 1_555
O19_4 H10_4 1_555 1_555
Ba5_2 O2_5 1_555 1_555
Ba8 O3_5 1_555 1_555
C1_5 C2_5 1_555 1_555
C2_5 O23_3 1_555 1_555
O2_5 Ba7_3 1_555 1_555
C3_5 C1_5 1_555 1_555
C4_5 C3_5 1_555 1_555
O3_5 Ba5_2 1_555 1_555
O4_5 C4_5 1_555 1_555
C5_5 C3_5 1_555 1_555
C6_5 C5_5 1_555 1_555
O25 C6_5 1_555 1_555
C7_5 C5_5 1_555 1_555
C8_5 C7_5 1_555 1_555
O7_5 C8_5 1_555 1_555
O27_2 C8_5 1_555 1_555
C9_5 C7_5 1_555 1_555
C10_5 C9_5 1_555 1_555
O29_2 C10_5 1_555 1_555
O10_3 C10_5 1_555 1_555
C11_5 C1_5 1_555 1_555
C12_5 C11_5 1_555 1_555
O31_3 C12_5 1_555 1_555
O12_5 C12_5 1_555 1_555
O13_5 Ba5_2 1_555 1_555
O14_5 Ba5_2 1_555 1_555
O15_5 Ba7_3 1_555 1_555
O16_5 Ba7_3 1_555 1_555
O17_5 Ba7_3 1_555 1_555
O18_5 Ba7_3 1_555 1_555
O19_5 Ba8 1_555 1_555
O21_5 Ba8 1_555 1_555
O22_5 Ba5_2 1_555 1_555
Ba5_3 O29_2 1_555 1_555
Ba7_2 O10_3 1_555 1_555
O29_3 Ba5_2 1_555 1_555
O30_3 Ba5_2 1_555 1_555
Ba7_3 O30_3 1_555 1_555
C2_5 O2_5 1_555 1_555
C4_5 O3_5 1_555 1_555
C6_5 O24 1_555 1_555
C9_5 C11_5 1_555 1_555
O10_3 Ba5_3 1_555 1_555
O17_5 H1_5 1_555 1_555
O13_5 H3_5 1_555 1_555
O13_5 H4_5 1_555 1_555
O16_5 H5_5 1_555 1_555
O18_5 H7_5 1_555 1_555
O18_5 H8_5 1_555 1_555
O19_5 H9_5 1_555 1_555
O19_5 H10_5 1_555 1_555
O15_5 H13_5 1_555 1_555
O15_5 H14_5 1_555 1_555
O21_5 H15_5 1_555 1_555
O21_5 H16_5 1_555 1_555
O22_5 H17_5 1_555 1_555
O22_5 H18_5 1_555 1_555
O14_5 H19_5 1_555 1_555
O14_5 H20_5 1_555 1_555
O20_5 H11_5 1_555 1_555
O20_5 H12_5 1_555 1_555
O20_6 H11_6 1_555 1_555
C1_6 C2_6 1_555 1_555
C2_6 O23_4 1_555 1_555
O2_6 Ba7_4 1_555 1_555
C3_6 C1_6 1_555 1_555
C4_6 C3_6 1_555 1_555
O4_6 C4_6 1_555 1_555
C5_6 C3_6 1_555 1_555
C6_6 C5_6 1_555 1_555
O26 C6_6 1_555 1_555
C7_6 C5_6 1_555 1_555
C8_6 C7_6 1_555 1_555
O7_6 C8_6 1_555 1_555
O27 C8_6 1_555 1_555
C9_6 C7_6 1_555 1_555
C10_6 C9_6 1_555 1_555
O29 C10_6 1_555 1_555
O10_4 C10_6 1_555 1_555
C11_6 C1_6 1_555 1_555
C12_6 C11_6 1_555 1_555
O31_4 C12_6 1_555 1_555
O12_6 C12_6 1_555 1_555
O15_6 Ba7_4 1_555 1_555
O16_6 Ba7_4 1_555 1_555
O17_6 Ba7_4 1_555 1_555
O18_6 Ba7_4 1_555 1_555
Ba5_4 O29 1_555 1_555
C2_6 O2_6 1_555 1_555
C4_6 O3_6 1_555 1_555
C6_6 O24_2 1_555 1_555
C9_6 C11_6 1_555 1_555
O10_4 Ba5_4 1_555 1_555
O17_6 H1_6 1_555 1_555
O16_6 H5_6 1_555 1_555
O18_6 H7_6 1_555 1_555
O18_6 H8_6 1_555 1_555
O15_6 H13_6 1_555 1_555
O15_6 H14_6 1_555 1_555
O13_6 Ba5 1_555 1_555
O14_6 Ba5 1_555 1_555
O19_6 Ba9 1_555 1_555
O21_6 Ba9 1_555 1_555
O22_6 Ba5 1_555 1_555
O29_4 Ba5 1_555 1_555
O30_4 Ba5 1_555 1_555
O13_6 H4_6 1_555 1_555
O19_6 H9_6 1_555 1_555
O19_6 H10_6 1_555 1_555
O21_6 H15_6 1_555 1_555
O21_6 H16_6 1_555 1_555
O22_6 H17_6 1_555 1_555
O22_6 H18_6 1_555 1_555
O14_6 H19_6 1_555 1_555
O14_6 H20_6 1_555 1_555
O19_7 H9_7 1_555 1_555
O19_7 H10_7 1_555 1_555
O13_7 Ba5_4 1_555 1_555
O14_7 Ba5_4 1_555 1_555
O21_7 Ba8_2 1_555 1_555
O22_7 Ba5_4 1_555 1_555
O13_7 H4_7 1_555 1_555
O21_7 H15_7 1_555 1_555
O21_7 H16_7 1_555 1_555
O22_7 H17_7 1_555 1_555
O22_7 H18_7 1_555 1_555
O14_7 H19_7 1_555 1_555
O14_7 H20_7 1_555 1_555
C6_7 C5_7 1_555 1_555
O25_2 C6_7 1_555 1_555
C7_7 C5_7 1_555 1_555
C8_7 C7_7 1_555 1_555
O7_7 C8_7 1_555 1_555
O27_4 C8_7 1_555 1_555
C9_7 C7_7 1_555 1_555
C10_7 C9_7 1_555 1_555
O29_4 C10_7 1_555 1_555
O30_4 C10_7 1_555 1_555
C1_7 C2_7 1_555 1_555
C2_7 O23 1_555 1_555
O2_7 Ba7 1_555 1_555
C3_7 C1_7 1_555 1_555
C4_7 C3_7 1_555 1_555
O4_7 C4_7 1_555 1_555
C11_7 C1_7 1_555 1_555
C12_7 C11_7 1_555 1_555
O31 C12_7 1_555 1_555
O12_7 C12_7 1_555 1_555
O15_7 Ba7 1_555 1_555
O16_7 Ba7 1_555 1_555
O17_7 Ba7 1_555 1_555
O18_7 Ba7 1_555 1_555
C2_7 O2_7 1_555 1_555
C4_7 O3_7 1_555 1_555
O17_7 H1_7 1_555 1_555
O17_7 H2_4 1_555 1_555
O16_7 H5_7 1_555 1_555
O16_7 H6_4 1_555 1_555
O18_7 H7_7 1_555 1_555
O18_7 H8_7 1_555 1_555
O20_7 H11_7 1_555 1_555
O15_7 H13_7 1_555 1_555
O15_7 H14_7 1_555 1_555
C6_8 C5_8 1_555 1_555
O26_2 C6_8 1_555 1_555
C7_8 C5_8 1_555 1_555
C8_8 C7_8 1_555 1_555
O7_8 C8_8 1_555 1_555
O27_3 C8_8 1_555 1_555
C9_8 C7_8 1_555 1_555
C10_8 C9_8 1_555 1_555
O29_3 C10_8 1_555 1_555
O30_3 C10_8 1_555 1_555
O19_8 H9_8 1_555 1_555
O19_8 H10_8 1_555 1_555
Ba5_3 O2_8 1_555 1_555
Ba9_2 O3_8 1_555 1_555
C1_8 C2_8 1_555 1_555
C2_8 O23_2 1_555 1_555
O2_8 Ba7_2 1_555 1_555
C3_8 C1_8 1_555 1_555
C4_8 C3_8 1_555 1_555
O3_8 Ba5_3 1_555 1_555
O4_8 C4_8 1_555 1_555
C11_8 C1_8 1_555 1_555
C12_8 C11_8 1_555 1_555
O31_2 C12_8 1_555 1_555
O12_8 C12_8 1_555 1_555
O13_8 Ba5_3 1_555 1_555
O14_8 Ba5_3 1_555 1_555
O15_8 Ba7_2 1_555 1_555
O16_8 Ba7_2 1_555 1_555
O17_8 Ba7_2 1_555 1_555
O18_8 Ba7_2 1_555 1_555
O20_8 Ba9_2 1_555 1_555
O21_8 Ba9_2 1_555 1_555
O22_8 Ba5_3 1_555 1_555
C2_8 O2_8 1_555 1_555
C4_8 O3_8 1_555 1_555
O17_8 H1_8 1_555 1_555
O17_8 H2_5 1_555 1_555
O13_8 H3_8 1_555 1_555
O13_8 H4_8 1_555 1_555
O16_8 H5_8 1_555 1_555
O16_8 H6_5 1_555 1_555
O18_8 H7_8 1_555 1_555
O18_8 H8_8 1_555 1_555
O20_8 H11_8 1_555 1_555
O20_8 H12_8 1_555 1_555
O15_8 H13_8 1_555 1_555
O15_8 H14_8 1_555 1_555
O21_8 H15_8 1_555 1_555
O21_8 H16_8 1_555 1_555
O22_8 H17_8 1_555 1_555
O22_8 H18_8 1_555 1_555
O14_8 H19_8 1_555 1_555
O14_8 H20_8 1_555 1_555

#END
