
###############################################################################
#
# This file contains modified crystal structure data generated from the
# MOF subset of the Cambridge Structural Database (CSD) v543 
# hosted by the Cambridge Crystallographic Data Centre (CCDC).
#
# This work is licensed under the Creative Commons
# Attribution-NonCommercial-ShareAlike 4.0 International License.
# To view a copy of this license, visit
# http://creativecommons.org/licenses/by-nc-sa/4.0/
# or send a letter to
# Creative Commons, PO Box 1866, Mountain View, CA 94042, USA.
#
# CIF created using the CSD Python API on 29 September 2022
# The structure has been converted into the P1 space group
# The structure has a 3D framework
# The original CSD entry GUBPOK is in the trigonal crystal system
# The framework has been calculated to contain at least 10.0% void space
# The void calculation uses a probe of radius 1.32A, grid spacing 0.4
# The framework is charged, counterions have been retained in the structure
#
###############################################################################

data_GUBPOK
_chemical_formula_moiety         '(C12 H12 Cr5 Mn2 O18 5-)n'
_symmetry_cell_setting           triclinic
_symmetry_space_group_name_H-M   'P 1'
_symmetry_Int_Tables_number      1
_space_group_name_Hall           'P 1'
loop_
_symmetry_equiv_pos_site_id
_symmetry_equiv_pos_as_xyz
1 x,y,z
_cell_length_a                   8.2708(12)
_cell_length_b                   8.2708(12)
_cell_length_c                   14.088(3)
_cell_angle_alpha                90
_cell_angle_beta                 90
_cell_angle_gamma                120
_cell_volume                     834.594
loop_
_atom_site_label
_atom_site_type_symbol
_atom_site_fract_x
_atom_site_fract_y
_atom_site_fract_z
Cr4 Cr -0.0000 -0.0000 0.5000
O12 O 0.0138(4) 0.2040(3) 0.42008(17)
Cr4_2 Cr -0.0000 1.0000 0.5000
Cr4_3 Cr 1.0000 -0.0000 0.5000
Mn1 Mn 0.6667 0.3333 0.2500
Cr1 Cr 0.0000 0.0000 0.0000
O1 O 0.4485(4) 0.3378(4) 0.16533(19)
O2 O 0.1902(3) 0.2040(3) 0.07992(17)
C1 C 0.3320(5) 0.2099(5) 0.1160(3)
H1 H 0.3502 0.1094 0.1046
O7 O 0.4485(4) 0.1107(6) 0.33467(19)
C4 C 0.3320(5) 0.1221(7) 0.3840(3)
H4 H 0.3502 0.2408 0.3954
O9 O 0.6622(4) 0.5515(4) 0.33467(19)
O10 O 0.7960(3) 0.8098(3) 0.42008(17)
C5 C 0.7901(5) 0.6680(5) 0.3840(3)
H5 H 0.8906 0.6498 0.3954
O11 O 0.8893(6) 0.3378(4) 0.33467(19)
C6 C 0.8779(7) 0.2099(5) 0.3840(3)
H6 H 0.7592 0.1094 0.3954
Cr4_4 Cr 1.0000 1.0000 0.5000
O13 O 0.6622(4) 0.1107(6) 0.16533(19)
O14 O 0.8893(6) 0.5515(4) 0.16533(19)
Cr1_2 Cr 0.0000 0.0000 1.0000
O16 O 0.2040(3) 0.0138(4) 0.92008(17)
Cr1_3 Cr -0.0000 1.0000 0.0000
O6 O 0.0138(4) 0.8098(3) 0.07992(17)
O8 O 0.1902(3) 0.9862(4) 0.42008(17)
Cr1_4 Cr -0.0000 1.0000 1.0000
Cr1_5 Cr 1.0000 0.0000 0.0000
C2 C 0.7901(5) 0.1221(7) 0.1160(3)
H2 H 0.8906 0.2408 0.1046
Cr1_6 Cr 1.0000 0.0000 1.0000
O17 O 0.9862(4) 0.1902(3) 0.92008(17)
Cr1_7 Cr 1.0000 1.0000 0.0000
O4 O 0.7960(3) 0.9862(4) 0.07992(17)
C3 C 0.8779(7) 0.6680(5) 0.1160(3)
H3 H 0.7592 0.6498 0.1046
Cr1_8 Cr 1.0000 1.0000 1.0000
O15 O 0.8098(3) 0.7960(3) 0.92008(17)
O15_2 O 0.2040(3) 0.1902(3) 0.57992(17)
O17_2 O 0.8098(3) 0.0138(4) 0.57992(17)
O16_2 O 0.9862(4) 0.7960(3) 0.57992(17)
O5 O 0.1107(6) 0.4485(4) 0.83467(19)
C3_2 C 0.1221(7) 0.3320(5) 0.8840(3)
H3_2 H 0.2408 0.3502 0.8954
Mn2 Mn 0.3333 0.6667 0.7500
O3 O 0.3378(4) 0.8893(6) 0.83467(19)
C2_2 C 0.2099(5) 0.8779(7) 0.8840(3)
H2_2 H 0.1094 0.7592 0.8954
O1_2 O 0.5515(4) 0.6622(4) 0.83467(19)
C1_2 C 0.6680(5) 0.7901(5) 0.8840(3)
H1_2 H 0.6498 0.8906 0.8954
O7_2 O 0.5515(4) 0.8893(6) 0.66533(19)
C4_2 C 0.6680(5) 0.8779(7) 0.6160(3)
H4_2 H 0.6498 0.7592 0.6046
O9_2 O 0.3378(4) 0.4485(4) 0.66533(19)
C5_2 C 0.2099(5) 0.3320(5) 0.6160(3)
H5_2 H 0.1094 0.3502 0.6046
O11_2 O 0.1107(6) 0.6622(4) 0.66533(19)
C6_2 C 0.1221(7) 0.7901(5) 0.6160(3)
H6_2 H 0.2408 0.8906 0.6046
loop_
_geom_bond_atom_site_label_1
_geom_bond_atom_site_label_2
_geom_bond_site_symmetry_1
_geom_bond_site_symmetry_2
Cr4 O12 1_555 1_555
Mn1 O1 1_555 1_555
Cr1 O2 1_555 1_555
O1 C1 1_555 1_555
O2 C1 1_555 1_555
C1 H1 1_555 1_555
O7 Mn1 1_555 1_555
C4 O7 1_555 1_555
H4 C4 1_555 1_555
O9 Mn1 1_555 1_555
O10 C5 1_555 1_555
C5 O9 1_555 1_555
H5 C5 1_555 1_555
O11 Mn1 1_555 1_555
C6 O11 1_555 1_555
H6 C6 1_555 1_555
Cr4_4 O10 1_555 1_555
O13 Mn1 1_555 1_555
O14 Mn1 1_555 1_555
O16 Cr1_2 1_555 1_555
O6 Cr1_3 1_555 1_555
Cr4_2 O8 1_555 1_555
O13 C2 1_555 1_555
H2 C2 1_555 1_555
O17 Cr1_6 1_555 1_555
O4 Cr1_7 1_555 1_555
O14 C3 1_555 1_555
H3 C3 1_555 1_555
O15 Cr1_8 1_555 1_555
O15_2 Cr4 1_555 1_555
O17_2 Cr4_3 1_555 1_555
O16_2 Cr4_4 1_555 1_555
O5 C3_2 1_555 1_555
H3_2 C3_2 1_555 1_555
Mn2 O5 1_555 1_555
O3 C2_2 1_555 1_555
H2_2 C2_2 1_555 1_555
Mn2 O3 1_555 1_555
Mn2 O1_2 1_555 1_555
O1_2 C1_2 1_555 1_555
O15 C1_2 1_555 1_555
C1_2 H1_2 1_555 1_555
O7_2 Mn2 1_555 1_555
C4_2 O7_2 1_555 1_555
H4_2 C4_2 1_555 1_555
O9_2 Mn2 1_555 1_555
O15_2 C5_2 1_555 1_555
C5_2 O9_2 1_555 1_555
H5_2 C5_2 1_555 1_555
O11_2 Mn2 1_555 1_555
C6_2 O11_2 1_555 1_555
H6_2 C6_2 1_555 1_555

#END
