
###############################################################################
#
# This file contains modified crystal structure data generated from the
# MOF subset of the Cambridge Structural Database (CSD) v543 
# hosted by the Cambridge Crystallographic Data Centre (CCDC).
#
# This work is licensed under the Creative Commons
# Attribution-NonCommercial-ShareAlike 4.0 International License.
# To view a copy of this license, visit
# http://creativecommons.org/licenses/by-nc-sa/4.0/
# or send a letter to
# Creative Commons, PO Box 1866, Mountain View, CA 94042, USA.
#
# CIF created using the CSD Python API on 29 September 2022
# The structure has been converted into the P1 space group
# The structure has a 3D framework
# The original CSD entry GUBPUQ is in the trigonal crystal system
# The framework has been calculated to contain at least 10.0% void space
# The void calculation uses a probe of radius 1.32A, grid spacing 0.4
# The framework is charged, counterions have been retained in the structure
#
###############################################################################

data_GUBPUQ
_chemical_formula_moiety         '(C12 H12 Al4 Mn2 O17 4-)n'
_symmetry_cell_setting           triclinic
_symmetry_space_group_name_H-M   'P 1'
_symmetry_Int_Tables_number      1
_space_group_name_Hall           'P 1'
loop_
_symmetry_equiv_pos_site_id
_symmetry_equiv_pos_as_xyz
1 x,y,z
_cell_length_a                   8.2179(12)
_cell_length_b                   8.2179(12)
_cell_length_c                   13.646(3)
_cell_angle_alpha                90
_cell_angle_beta                 90
_cell_angle_gamma                120
_cell_volume                     798.101
loop_
_atom_site_label
_atom_site_type_symbol
_atom_site_fract_x
_atom_site_fract_y
_atom_site_fract_z
Al3 Al 0.0000 0.0000 0.0000
Al3_2 Al 0.0000 0.0000 1.0000
Al3_3 Al 0.0000 1.0000 0.0000
Al3_4 Al 0.0000 1.0000 1.0000
O5 O 0.3383(2) 0.4490(3) 0.16447(12)
O6 O 0.1955(2) 0.18464(28) 0.07932(10)
C3 C 0.2046(3) 0.3303(4) 0.11514(15)
H3 H 0.1043 0.3502 0.1038
O10 O 0.81536(28) 0.01086(19) 0.07932(10)
O12 O 0.1955(2) 0.01086(19) 0.42068(10)
Mn3 Mn 0.3333 0.6667 0.2500
Al3_5 Al 1.0000 0.0000 0.0000
Al4 Al -0.0000 0.0000 0.5000
Al3_6 Al 1.0000 0.0000 1.0000
O15 O 0.01086(19) 0.1955(2) 0.92068(10)
O1 O 0.1107(2) 0.6617(2) 0.16447(12)
C1 C 0.1257(3) 0.7954(3) 0.11514(15)
H1 H 0.2459 0.8957 0.1038
O9 O 0.5510(3) 0.8893(2) 0.16447(12)
C5 C 0.6697(4) 0.8743(3) 0.11514(15)
H5 H 0.6498 0.7541 0.1038
O11 O 0.3383(2) 0.8893(2) 0.33553(12)
C6 C 0.2046(3) 0.8743(3) 0.38486(15)
H6 H 0.1043 0.7541 0.3962
Al3_7 Al 1.0000 1.0000 0.0000
Al4_2 Al -0.0000 1.0000 0.5000
O13 O 0.5510(3) 0.6617(2) 0.33553(12)
O14 O 0.1107(2) 0.4490(3) 0.33553(12)
Al3_8 Al 1.0000 1.0000 1.0000
O17 O 0.18464(28) 0.98914(19) 0.92068(10)
Al4_3 Al 1.0000 0.0000 0.5000
O2 O 0.98914(19) 0.8045(2) 0.07932(10)
Al4_4 Al 1.0000 1.0000 0.5000
O16 O 0.8045(2) 0.81536(28) 0.92068(10)
C6_2 C 0.1257(3) 0.3303(4) 0.38486(15)
H6_2 H 0.2459 0.3502 0.3962
O12_2 O 0.98914(19) 0.18464(28) 0.42068(10)
O12_3 O 0.81536(28) 0.8045(2) 0.42068(10)
C6_3 C 0.6697(4) 0.7954(3) 0.38486(15)
H6_3 H 0.6498 0.8957 0.3962
O16_2 O 0.18464(28) 0.1955(2) 0.57932(10)
O17_2 O 0.01086(19) 0.81536(28) 0.57932(10)
O15_2 O 0.8045(2) 0.98914(19) 0.57932(10)
O7 O 0.4490(3) 0.1107(2) 0.83553(12)
C4 C 0.3303(4) 0.1257(3) 0.88486(15)
H4 H 0.3502 0.2459 0.8962
Mn2 Mn 0.6667 0.3333 0.7500
O1_2 O 0.8893(2) 0.3383(2) 0.83553(12)
C1_2 C 0.8743(3) 0.2046(3) 0.88486(15)
H1_2 H 0.7541 0.1043 0.8962
O3 O 0.6617(2) 0.5510(3) 0.83553(12)
C2 C 0.7954(3) 0.6697(4) 0.88486(15)
H2 H 0.8957 0.6498 0.8962
O11_2 O 0.6617(2) 0.1107(2) 0.66447(12)
C6_4 C 0.7954(3) 0.1257(3) 0.61514(15)
H6_4 H 0.8957 0.2459 0.6038
O13_2 O 0.4490(3) 0.3383(2) 0.66447(12)
O14_2 O 0.8893(2) 0.5510(3) 0.66447(12)
C6_5 C 0.8743(3) 0.6697(4) 0.61514(15)
H6_5 H 0.7541 0.6498 0.6038
C6_6 C 0.3303(4) 0.2046(3) 0.61514(15)
H6_6 H 0.3502 0.1043 0.6038
loop_
_geom_bond_atom_site_label_1
_geom_bond_atom_site_label_2
_geom_bond_site_symmetry_1
_geom_bond_site_symmetry_2
O5 C3 1_555 1_555
O6 Al3 1_555 1_555
C3 O6 1_555 1_555
H3 C3 1_555 1_555
Mn3 O5 1_555 1_555
Al3_5 O10 1_555 1_555
Al4 O12 1_555 1_555
O15 Al3_2 1_555 1_555
Mn3 O1 1_555 1_555
O1 C1 1_555 1_555
C1 H1 1_555 1_555
O9 Mn3 1_555 1_555
C5 O9 1_555 1_555
H5 C5 1_555 1_555
O11 Mn3 1_555 1_555
C6 O11 1_555 1_555
H6 C6 1_555 1_555
O13 Mn3 1_555 1_555
O14 Mn3 1_555 1_555
O17 Al3_4 1_555 1_555
Al3_7 O2 1_555 1_555
O16 Al3_8 1_555 1_555
C6_2 O14 1_555 1_555
H6_2 C6_2 1_555 1_555
Al4_3 O12_2 1_555 1_555
O12_3 C6_3 1_555 1_555
C6_3 O13 1_555 1_555
H6_3 C6_3 1_555 1_555
Al4_4 O12_3 1_555 1_555
O16_2 Al4 1_555 1_555
O17_2 Al4_2 1_555 1_555
O15_2 Al4_4 1_555 1_555
O7 C4 1_555 1_555
H4 C4 1_555 1_555
Mn2 O7 1_555 1_555
Mn2 O1_2 1_555 1_555
O1_2 C1_2 1_555 1_555
C1_2 H1_2 1_555 1_555
O3 Mn2 1_555 1_555
O16 C2 1_555 1_555
C2 O3 1_555 1_555
H2 C2 1_555 1_555
O11_2 Mn2 1_555 1_555
C6_4 O11_2 1_555 1_555
H6_4 C6_4 1_555 1_555
O13_2 Mn2 1_555 1_555
O14_2 Mn2 1_555 1_555
C6_5 O14_2 1_555 1_555
H6_5 C6_5 1_555 1_555
O16_2 C6_6 1_555 1_555
C6_6 O13_2 1_555 1_555
H6_6 C6_6 1_555 1_555

#END
