
###############################################################################
#
# This file contains modified crystal structure data generated from the
# MOF subset of the Cambridge Structural Database (CSD) v543 
# hosted by the Cambridge Crystallographic Data Centre (CCDC).
#
# This work is licensed under the Creative Commons
# Attribution-NonCommercial-ShareAlike 4.0 International License.
# To view a copy of this license, visit
# http://creativecommons.org/licenses/by-nc-sa/4.0/
# or send a letter to
# Creative Commons, PO Box 1866, Mountain View, CA 94042, USA.
#
# CIF created using the CSD Python API on 29 September 2022
# The structure has been converted into the P1 space group
# The structure has a 3D framework
# The original CSD entry GUBPIE is in the trigonal crystal system
# The framework has been calculated to contain at least 10.0% void space
# The void calculation uses a probe of radius 1.32A, grid spacing 0.4
# The framework is charged, counterions have been retained in the structure
#
###############################################################################

data_GUBPIE
_chemical_formula_moiety         '(C12 H12 Cr5 Mn2 O18 5-)n'
_symmetry_cell_setting           triclinic
_symmetry_space_group_name_H-M   'P 1'
_symmetry_Int_Tables_number      1
_space_group_name_Hall           'P 1'
loop_
_symmetry_equiv_pos_site_id
_symmetry_equiv_pos_as_xyz
1 x,y,z
_cell_length_a                   8.2865(12)
_cell_length_b                   8.2865(12)
_cell_length_c                   13.880(3)
_cell_angle_alpha                90
_cell_angle_beta                 90
_cell_angle_gamma                120
_cell_volume                     825.396
loop_
_atom_site_label
_atom_site_type_symbol
_atom_site_fract_x
_atom_site_fract_y
_atom_site_fract_z
Cr4 Cr -0.0000 -0.0000 0.5000
Cr4_2 Cr -0.0000 1.0000 0.5000
O12 O 0.2031(2) 0.0138(3) 0.41915(13)
Cr4_3 Cr 1.0000 -0.0000 0.5000
Mn1 Mn 0.3333 0.6667 0.2500
Cr1 Cr 0.0000 0.0000 0.0000
O1 O 0.3386(3) 0.4496(3) 0.16470(14)
O2 O 0.2031(2) 0.1893(2) 0.08085(13)
C1 C 0.2092(4) 0.3307(4) 0.11665(18)
H1 H 0.1075 0.3471 0.1061
O7 O 0.1110(4) 0.4496(3) 0.33530(14)
C4 C 0.1215(6) 0.3307(4) 0.38335(18)
H4 H 0.2396 0.3471 0.3939
O9 O 0.5504(3) 0.6614(3) 0.33530(14)
O10 O 0.8107(2) 0.7969(2) 0.41915(13)
C5 C 0.6693(4) 0.7908(4) 0.38335(18)
H5 H 0.6529 0.8925 0.3939
O11 O 0.3386(3) 0.8890(4) 0.33530(14)
C6 C 0.2092(4) 0.8785(6) 0.38335(18)
H6 H 0.1075 0.7604 0.3939
Cr4_4 Cr 1.0000 1.0000 0.5000
O13 O 0.5504(3) 0.8890(4) 0.16470(14)
O14 O 0.1110(4) 0.6614(3) 0.16470(14)
Cr1_2 Cr 0.0000 -0.0000 1.0000
O17 O 0.0138(3) 0.2031(2) 0.91915(13)
Cr1_3 Cr 0.0000 1.0000 0.0000
C3 C 0.1215(6) 0.7908(4) 0.11665(18)
H3 H 0.2396 0.8925 0.1061
Cr1_4 Cr 0.0000 1.0000 1.0000
O16 O 0.1893(2) 0.9862(3) 0.91915(13)
Cr1_5 Cr 1.0000 0.0000 0.0000
O4 O 0.8107(2) 0.0138(3) 0.08085(13)
O8 O 0.9862(3) 0.1893(2) 0.41915(13)
Cr1_6 Cr 1.0000 -0.0000 1.0000
Cr1_7 Cr 1.0000 1.0000 0.0000
C2 C 0.6693(4) 0.8785(6) 0.11665(18)
H2 H 0.6529 0.7604 0.1061
O6 O 0.9862(3) 0.7969(2) 0.08085(13)
Cr1_8 Cr 1.0000 1.0000 1.0000
O15 O 0.7969(2) 0.8107(2) 0.91915(13)
O15_2 O 0.1893(2) 0.2031(2) 0.58085(13)
O16_2 O 0.0138(3) 0.8107(2) 0.58085(13)
O17_2 O 0.7969(2) 0.9862(3) 0.58085(13)
O3 O 0.4496(3) 0.1110(4) 0.83530(14)
C2_2 C 0.3307(4) 0.1215(6) 0.88335(18)
H2_2 H 0.3471 0.2396 0.8939
Mn2 Mn 0.6667 0.3333 0.7500
O5 O 0.8890(4) 0.3386(3) 0.83530(14)
C3_2 C 0.8785(6) 0.2092(4) 0.88335(18)
H3_2 H 0.7604 0.1075 0.8939
O1_2 O 0.6614(3) 0.5504(3) 0.83530(14)
C1_2 C 0.7908(4) 0.6693(4) 0.88335(18)
H1_2 H 0.8925 0.6529 0.8939
O7_2 O 0.8890(4) 0.5504(3) 0.66470(14)
C4_2 C 0.8785(6) 0.6693(4) 0.61665(18)
H4_2 H 0.7604 0.6529 0.6061
O9_2 O 0.4496(3) 0.3386(3) 0.66470(14)
C5_2 C 0.3307(4) 0.2092(4) 0.61665(18)
H5_2 H 0.3471 0.1075 0.6061
O11_2 O 0.6614(3) 0.1110(4) 0.66470(14)
C6_2 C 0.7908(4) 0.1215(6) 0.61665(18)
H6_2 H 0.8925 0.2396 0.6061
loop_
_geom_bond_atom_site_label_1
_geom_bond_atom_site_label_2
_geom_bond_site_symmetry_1
_geom_bond_site_symmetry_2
Cr4 O12 1_555 1_555
Mn1 O1 1_555 1_555
Cr1 O2 1_555 1_555
O1 C1 1_555 1_555
O2 C1 1_555 1_555
C1 H1 1_555 1_555
O7 Mn1 1_555 1_555
C4 O7 1_555 1_555
H4 C4 1_555 1_555
O9 Mn1 1_555 1_555
O10 C5 1_555 1_555
C5 O9 1_555 1_555
H5 C5 1_555 1_555
O11 Mn1 1_555 1_555
C6 O11 1_555 1_555
H6 C6 1_555 1_555
Cr4_4 O10 1_555 1_555
O13 Mn1 1_555 1_555
O14 Mn1 1_555 1_555
O17 Cr1_2 1_555 1_555
O14 C3 1_555 1_555
H3 C3 1_555 1_555
O16 Cr1_4 1_555 1_555
O4 Cr1_5 1_555 1_555
Cr4_3 O8 1_555 1_555
O13 C2 1_555 1_555
H2 C2 1_555 1_555
O6 Cr1_7 1_555 1_555
O15 Cr1_8 1_555 1_555
O15_2 Cr4 1_555 1_555
O16_2 Cr4_2 1_555 1_555
O17_2 Cr4_4 1_555 1_555
O3 C2_2 1_555 1_555
H2_2 C2_2 1_555 1_555
Mn2 O3 1_555 1_555
O5 C3_2 1_555 1_555
H3_2 C3_2 1_555 1_555
Mn2 O5 1_555 1_555
Mn2 O1_2 1_555 1_555
O1_2 C1_2 1_555 1_555
O15 C1_2 1_555 1_555
C1_2 H1_2 1_555 1_555
O7_2 Mn2 1_555 1_555
C4_2 O7_2 1_555 1_555
H4_2 C4_2 1_555 1_555
O9_2 Mn2 1_555 1_555
O15_2 C5_2 1_555 1_555
C5_2 O9_2 1_555 1_555
H5_2 C5_2 1_555 1_555
O11_2 Mn2 1_555 1_555
C6_2 O11_2 1_555 1_555
H6_2 C6_2 1_555 1_555

#END
