
###############################################################################
#
# This file contains modified crystal structure data generated from the
# MOF subset of the Cambridge Structural Database (CSD) v543 
# hosted by the Cambridge Crystallographic Data Centre (CCDC).
#
# This work is licensed under the Creative Commons
# Attribution-NonCommercial-ShareAlike 4.0 International License.
# To view a copy of this license, visit
# http://creativecommons.org/licenses/by-nc-sa/4.0/
# or send a letter to
# Creative Commons, PO Box 1866, Mountain View, CA 94042, USA.
#
# CIF created using the CSD Python API on 29 September 2022
# The structure has been converted into the P1 space group
# The structure has a 3D framework
# The original CSD entry GUBQAX is in the trigonal crystal system
# The framework has been calculated to contain at least 10.0% void space
# The void calculation uses a probe of radius 1.32A, grid spacing 0.4
# The framework is charged, counterions have been retained in the structure
#
###############################################################################

data_GUBQAX
_chemical_formula_moiety         '(C12 H12 Cr9 Mg1 O20 9-)n'
_symmetry_cell_setting           triclinic
_symmetry_space_group_name_H-M   'P 1'
_symmetry_Int_Tables_number      1
_space_group_name_Hall           'P 1'
loop_
_symmetry_equiv_pos_site_id
_symmetry_equiv_pos_as_xyz
1 x,y,z
_cell_length_a                   8.1565(12)
_cell_length_b                   8.1565(12)
_cell_length_c                   13.705(3)
_cell_angle_alpha                90
_cell_angle_beta                 90
_cell_angle_gamma                120
_cell_volume                     789.619
loop_
_atom_site_label
_atom_site_type_symbol
_atom_site_fract_x
_atom_site_fract_y
_atom_site_fract_z
Cr1 Cr 0.0000 0.0000 0.0000
Mg1 Mg 0.6667 0.3333 0.2500
O1 O 0.1930(3) 0.2051(3) 0.08156(16)
O2 O 0.4574(3) 0.3364(4) 0.16715(17)
C1 C 0.3354(5) 0.2069(5) 0.1172(2)
H1 H 0.3502 0.1029 0.1051
O8 O 0.4574(3) 0.1210(5) 0.33285(17)
C4 C 0.3354(5) 0.1285(7) 0.3828(2)
H4 H 0.3502 0.2473 0.3949
Cr2 Cr 0.0000 0.0000 0.5000
O14 O 0.6636(4) 0.1210(5) 0.16715(17)
O15 O 0.8790(5) 0.5426(3) 0.16715(17)
O16 O 0.6636(4) 0.5426(3) 0.33285(17)
O17 O 0.8790(5) 0.3364(4) 0.33285(17)
Cr1_2 Cr 0.0000 0.0000 1.0000
O11 O 0.2051(3) 0.0121(4) 0.91844(16)
Cr1_3 Cr 0.0000 1.0000 0.0000
O5 O 0.0121(4) 0.8070(3) 0.08156(16)
O7 O 0.1930(3) 0.9879(4) 0.41844(16)
Cr2_2 Cr -0.0000 1.0000 0.5000
Cr1_4 Cr -0.0000 1.0000 1.0000
O12 O 0.3364(4) 0.8790(5) 0.83285(17)
C6 C 0.2069(5) 0.8715(7) 0.8828(2)
H6 H 0.1029 0.7527 0.8949
Mg5 Mg 0.3333 0.6667 0.7500
Cr1_5 Cr 1.0000 0.0000 0.0000
C2 C 0.7931(5) 0.1285(7) 0.1172(2)
H2 H 0.8971 0.2473 0.1051
Cr2_3 Cr 1.0000 0.0000 0.5000
Cr1_6 Cr 1.0000 0.0000 1.0000
O13 O 0.9879(4) 0.1930(3) 0.91844(16)
Cr1_7 Cr 1.0000 1.0000 0.0000
O3 O 0.7949(3) 0.9879(4) 0.08156(16)
C3 C 0.8715(7) 0.6646(5) 0.1172(2)
H3 H 0.7527 0.6498 0.1051
Cr2_4 Cr 1.0000 1.0000 0.5000
Cr1_8 Cr 1.0000 1.0000 1.0000
O9 O 0.8070(3) 0.7949(3) 0.91844(16)
O10 O 0.5426(3) 0.6636(4) 0.83285(17)
C5 C 0.6646(5) 0.7931(5) 0.8828(2)
H5 H 0.6498 0.8971 0.8949
O7_2 O 0.0121(4) 0.2051(5) 0.41844(16)
O12_2 O 0.1210(5) 0.4574(6) 0.83285(17)
C6_2 C 0.1285(7) 0.3354(9) 0.8828(2)
H6_2 H 0.2473 0.3502 0.8949
C4_2 C 0.8715(7) 0.2069(9) 0.3828(2)
H4_2 H 0.7527 0.1029 0.3949
O7_3 O 0.7949(5) 0.8070(3) 0.41844(16)
C4_3 C 0.7931(9) 0.6646(5) 0.3828(2)
H4_3 H 0.8971 0.6498 0.3949
O9_2 O 0.2051(3) 0.1930(3) 0.58156(16)
O10_2 O 0.3364(4) 0.4574(3) 0.66715(17)
C5_2 C 0.2069(5) 0.3354(5) 0.6172(2)
H5_2 H 0.1029 0.3502 0.6051
O12_3 O 0.1210(5) 0.6636(4) 0.66715(17)
C6_3 C 0.1285(7) 0.7931(5) 0.6172(2)
H6_3 H 0.2473 0.8971 0.6051
O13_2 O 0.8070(3) 0.0121(4) 0.58156(16)
O11_2 O 0.9879(4) 0.7949(3) 0.58156(16)
O12_4 O 0.5426(6) 0.8790(5) 0.66715(17)
C6_4 C 0.6646(9) 0.8715(7) 0.6172(2)
H6_4 H 0.6498 0.7527 0.6051
loop_
_geom_bond_atom_site_label_1
_geom_bond_atom_site_label_2
_geom_bond_site_symmetry_1
_geom_bond_site_symmetry_2
Cr1 O1 1_555 1_555
Mg1 O2 1_555 1_555
O1 C1 1_555 1_555
O2 C1 1_555 1_555
C1 H1 1_555 1_555
O8 Mg1 1_555 1_555
C4 O8 1_555 1_555
H4 C4 1_555 1_555
O14 Mg1 1_555 1_555
O15 Mg1 1_555 1_555
O16 Mg1 1_555 1_555
O17 Mg1 1_555 1_555
O11 Cr1_2 1_555 1_555
O5 Cr1_3 1_555 1_555
Cr2_2 O7 1_555 1_555
O12 C6 1_555 1_555
H6 C6 1_555 1_555
Mg5 O12 1_555 1_555
O14 C2 1_555 1_555
H2 C2 1_555 1_555
O13 Cr1_6 1_555 1_555
O3 Cr1_7 1_555 1_555
O15 C3 1_555 1_555
H3 C3 1_555 1_555
O9 Cr1_8 1_555 1_555
O10 C5 1_555 1_555
C5 O9 1_555 1_555
H5 C5 1_555 1_555
Mg5 O10 1_555 1_555
Cr2 O7_2 1_555 1_555
O12_2 C6_2 1_555 1_555
H6_2 C6_2 1_555 1_555
Mg5 O12_2 1_555 1_555
C4_2 O17 1_555 1_555
H4_2 C4_2 1_555 1_555
O7_3 C4_3 1_555 1_555
C4_3 O16 1_555 1_555
H4_3 C4_3 1_555 1_555
Cr2_4 O7_3 1_555 1_555
O9_2 Cr2 1_555 1_555
O10_2 C5_2 1_555 1_555
C5_2 O9_2 1_555 1_555
H5_2 C5_2 1_555 1_555
Mg5 O10_2 1_555 1_555
O12_3 C6_3 1_555 1_555
H6_3 C6_3 1_555 1_555
Mg5 O12_3 1_555 1_555
O13_2 Cr2_3 1_555 1_555
O11_2 Cr2_4 1_555 1_555
O12_4 C6_4 1_555 1_555
H6_4 C6_4 1_555 1_555
Mg5 O12_4 1_555 1_555

#END
