
###############################################################################
#
# This file contains modified crystal structure data generated from the
# MOF subset of the Cambridge Structural Database (CSD) v543 
# hosted by the Cambridge Crystallographic Data Centre (CCDC).
#
# This work is licensed under the Creative Commons
# Attribution-NonCommercial-ShareAlike 4.0 International License.
# To view a copy of this license, visit
# http://creativecommons.org/licenses/by-nc-sa/4.0/
# or send a letter to
# Creative Commons, PO Box 1866, Mountain View, CA 94042, USA.
#
# CIF created using the CSD Python API on 29 September 2022
# The structure has been converted into the P1 space group
# The structure has a 3D framework
# The original CSD entry GUBVUU is in the monoclinic crystal system
# The framework has been calculated to contain at least 10.0% void space
# The void calculation uses a probe of radius 1.32A, grid spacing 0.4
#
###############################################################################

data_GUBVUU
_chemical_formula_moiety         '(C120 H96 Co8 N40 O48)n'
_symmetry_cell_setting           triclinic
_symmetry_space_group_name_H-M   'P 1'
_symmetry_Int_Tables_number      1
_space_group_name_Hall           'P 1'
loop_
_symmetry_equiv_pos_site_id
_symmetry_equiv_pos_as_xyz
1 x,y,z
_cell_length_a                   21.4382(13)
_cell_length_b                   23.3175(12)
_cell_length_c                   10.798(6)
_cell_angle_alpha                90
_cell_angle_beta                 110.113(10)
_cell_angle_gamma                90
_cell_volume                     5068.59
loop_
_atom_site_label
_atom_site_type_symbol
_atom_site_fract_x
_atom_site_fract_y
_atom_site_fract_z
H23 H 0.0926(8) 0.0134(7) 0.2393(17)
N6 N 0.0570(5) 0.9487(4) 0.3143(10)
C24 C 0.0013(7) 0.9199(6) 0.2903(12)
C29 C 0.0540(8) 0.9958(7) 0.2410(17)
H18 H 0.0030(7) 0.8849(6) 0.3326(12)
Co3 Co 0.1471(1) 0.9192(1) 0.4585(1)
N1 N 0.6545(5) 0.3572(5) 0.3290(10)
C1 C 0.6505(7) 0.3708(6) 0.1989(13)
C6 C 0.8733(6) 0.0111(6) 0.0398(13)
C11 C 0.6514(6) 0.2737(6) 0.1292(11)
C12 C 0.6515(6) 0.2293(5) 0.0319(11)
C20 C 0.6542(8) 0.3302(7) 0.1142(13)
C21 C 0.9927(7) 0.0174(7) 0.1686(17)
C22 C 0.6611(9) 0.2995(7) 0.3591(13)
C23 C 0.6585(7) 0.1694(6) 0.0748(13)
C30 C 0.6644(4) 0.2639(2) 0.2579(8)
H1 H 0.6451(7) 0.4089(6) 0.1716(13)
H14 H 0.6592(8) 0.3428(7) 0.0365(13)
H15 H 0.9909(7) 0.0555(7) 0.1420(17)
H16 H 0.6633(9) 0.2855(7) 0.4410(13)
H17 H 0.6650(7) 0.1577(6) 0.1607(13)
H24 H 0.6780(4) 0.2266(2) 0.2845(8)
Co4 Co 0.6471(1) 0.4192(1) 0.4585(1)
O1 O 0.2023(4) 0.9856(4) 0.3992(9)
N2 N 0.2412(5) 0.8988(5) 0.6009(11)
O5 O 0.0930(5) 0.8937(4) 0.5705(9)
C2 C 0.2528(7) 0.9096(6) 0.7276(14)
N10 N 0.1035(6) 0.8551(5) 0.6547(13)
O9 O 0.7112(6) 0.8635(4) 0.9214(10)
C8 C 0.3725(6) 0.8902(6) 0.7934(12)
C9 C 0.4398(6) 0.8884(6) 0.8913(13)
O10 O 0.0858(7) 0.8576(5) 0.7423(13)
C14 C 0.3127(7) 0.9077(7) 0.8217(14)
C15 C 0.4898(7) 0.9021(6) 0.8529(12)
O12 O 0.1292(7) 0.8118(5) 0.6350(12)
C17 C 0.2920(6) 0.8830(6) 0.5638(12)
C18 C 0.3540(6) 0.8803(7) 0.6579(13)
C19 C 0.5534(7) 0.9073(6) 0.9473(12)
H2 H 0.2167(7) 0.9192(6) 0.7525(14)
H8 H 0.3167(7) 0.9178(7) 0.9075(14)
H9 H 0.4830(7) 0.9082(6) 0.7641(12)
H11 H 0.2855(6) 0.8740(6) 0.4763(12)
H12 H 0.3883(6) 0.8706(7) 0.6276(13)
H13 H 0.5884(7) 0.9188(6) 0.9209(12)
N12 N 0.1545(5) 0.8572(5) 0.3290(10)
C1_2 C 0.1505(7) 0.8708(6) 0.1989(13)
N6_2 N 0.5570(5) 0.4487(4) 0.3143(10)
C6_2 C 0.3733(6) 0.5111(6) 0.0398(13)
C7 C 0.4373(7) 0.4893(5) 0.1342(13)
C11_2 C 0.1514(6) 0.7737(6) 0.1292(11)
C12_2 C 0.1515(6) 0.7293(5) 0.0319(11)
C20_2 C 0.1542(8) 0.8302(7) 0.1142(13)
C21_2 C 0.4927(7) 0.5174(7) 0.1686(17)
C22_2 C 0.1611(9) 0.7995(7) 0.3591(13)
C23_2 C 0.1585(7) 0.6694(6) 0.0748(13)
C24_2 C 0.5013(7) 0.4199(6) 0.2903(12)
C27 C 0.4405(8) 0.4386(6) 0.2060(18)
C28 C 0.3109(7) 0.4829(7) 0.0327(18)
C29_2 C 0.5540(8) 0.4958(7) 0.2410(17)
C30_2 C 0.1644(4) 0.7639(2) 0.2579(8)
H1_2 H 0.1451(7) 0.9089(6) 0.1716(13)
H14_2 H 0.1592(8) 0.8428(7) 0.0365(13)
H15_2 H 0.4909(7) 0.5555(7) 0.1420(17)
H16_2 H 0.1633(9) 0.7855(7) 0.4410(13)
H17_2 H 0.1650(7) 0.6577(6) 0.1607(13)
H18_2 H 0.5030(7) 0.3849(6) 0.3326(12)
H21 H 0.4021(8) 0.4178(6) 0.1969(18)
H22 H 0.3081(7) 0.4555(7) 0.0930(18)
H23_2 H 0.5926(8) 0.5134(7) 0.2393(17)
H24_2 H 0.1780(4) 0.7266(2) 0.2845(8)
O1_2 O 0.7023(4) 0.4856(4) 0.3992(9)
N2_2 N 0.7412(5) 0.3988(5) 0.6009(11)
O3 O 0.6605(4) 0.5038(4) 0.5498(9)
O5_2 O 0.5930(5) 0.3937(4) 0.5705(9)
C2_2 C 0.7528(7) 0.4096(6) 0.7276(14)
N7 N 0.6951(6) 0.5232(6) 0.4767(12)
O7 O 0.7170(6) 0.5711(4) 0.4962(11)
N10_2 N 0.6035(6) 0.3551(5) 0.6547(13)
C8_2 C 0.8725(6) 0.3902(6) 0.7934(12)
C9_2 C 0.9398(6) 0.3884(6) 0.8913(13)
O10_2 O 0.5858(7) 0.3576(5) 0.7423(13)
C14_2 C 0.8127(7) 0.4077(7) 0.8217(14)
C15_2 C 0.9898(7) 0.4021(6) 0.8529(12)
O12_2 O 0.6292(7) 0.3118(5) 0.6350(12)
C17_2 C 0.7920(6) 0.3830(6) 0.5638(12)
C18_2 C 0.8540(6) 0.3803(7) 0.6579(13)
H2_2 H 0.7167(7) 0.4192(6) 0.7525(14)
H8_2 H 0.8167(7) 0.4178(7) 0.9075(14)
H9_2 H 0.9830(7) 0.4082(6) 0.7641(12)
H11_2 H 0.7855(6) 0.3740(6) 0.4763(12)
H12_2 H 0.8883(6) 0.3706(7) 0.6276(13)
Co2 Co 0.6587(1) 0.0807(1) 0.7203(1)
O2 O 0.6014(4) 0.0142(4) 0.7786(8)
N2_3 N 0.2412(5) 0.1012(5) 0.1009(11)
N3 N 0.6545(6) 0.1451(4) 0.8585(10)
N4 N 0.5649(5) 0.1038(4) 0.5746(9)
O5_3 O 0.0930(5) 0.1063(4) 0.0705(9)
O6 O 0.7152(5) 0.1047(4) 0.6142(9)
N5 N 0.7505(5) 0.0494(5) 0.8620(10)
C2_3 C 0.2528(7) 0.0904(6) 0.2276(14)
C3 C 0.8068(7) 0.0771(6) 0.8828(17)
C4 C 0.6536(9) 0.1976(6) 0.8315(13)
C5 C 0.6522(7) 0.2439(4) 0.9095(9)
N9 N 0.6987(6) 0.1469(4) 0.5274(11)
N10_3 N 0.1035(6) 0.1449(5) 0.1547(13)
O9_2 O 0.7112(6) 0.1365(4) 0.4214(10)
C8_3 C 0.3725(6) 0.1098(6) 0.2934(12)
C9_3 C 0.4398(6) 0.1116(6) 0.3913(13)
O10_3 O 0.0858(7) 0.1424(5) 0.2423(13)
C10 C 0.6541(8) 0.1315(5) 0.9694(14)
C13 C 0.4468(7) 0.1263(7) 0.5202(14)
C14_3 C 0.3127(7) 0.0923(7) 0.3217(14)
O11 O 0.6695(5) 0.1899(4) 0.5413(10)
C15_3 C 0.4898(7) 0.0979(6) 0.3529(12)
O12_3 O 0.1292(7) 0.1882(5) 0.1350(12)
C16 C 0.5123(8) 0.1206(8) 0.6032(13)
C17_3 C 0.2920(6) 0.1170(6) 0.0638(12)
C18_3 C 0.3540(6) 0.1197(7) 0.1579(13)
C19_2 C 0.5534(7) 0.0927(6) 0.4473(12)
C25 C 0.8654(6) 0.0610(6) 0.9748(12)
C26 C 0.7562(6) 0.0014(7) 0.9265(17)
H2_3 H 0.2167(7) 0.0808(6) 0.2525(14)
H3 H 0.8065(7) 0.1093(6) 0.8317(17)
H4 H 0.6540(9) 0.2063(6) 0.7477(13)
H5 H 0.6517(7) 0.2817(4) 0.8816(9)
H6 H 0.6506(8) 0.0926(5) 0.9849(14)
H7 H 0.4121(7) 0.1382(7) 0.5472(14)
H8_3 H 0.3167(7) 0.0822(7) 0.4075(14)
H9_3 H 0.4830(7) 0.0918(6) 0.2641(12)
H10 H 0.5204(8) 0.1299(8) 0.6912(13)
H12_3 H 0.3883(6) 0.1294(7) 0.1276(13)
H13_2 H 0.5884(7) 0.0812(6) 0.4209(12)
H19 H 0.9015(6) 0.0857(6) 0.9934(12)
Co1 Co 0.1471(1) 0.0808(1) 0.9585(1)
O1_3 O 0.2023(4) 0.0144(4) 0.8992(9)
H11_3 H 0.2855(6) 0.1260(6) 0.9763(12)
N11 N 0.0570(5) 0.0513(4) 0.8143(10)
N12_2 N 0.1545(5) 0.1428(5) 0.8290(10)
C24_3 C 0.0013(7) 0.0801(6) 0.7903(12)
C29_3 C 0.0540(8) 0.0042(7) 0.7410(17)
H18_3 H 0.0030(7) 0.1151(6) 0.8326(12)
Co2_2 Co 0.6587(1) 0.9193(1) 0.2203(1)
N1_2 N 0.6545(5) 0.6428(5) 0.8290(10)
O2_2 O 0.6014(4) 0.9858(4) 0.2786(8)
N3_2 N 0.6545(6) 0.8549(4) 0.3585(10)
N4_2 N 0.5649(5) 0.8962(4) 0.0746(9)
O6_2 O 0.7152(5) 0.8953(4) 0.1142(9)
N5_2 N 0.7505(5) 0.9506(5) 0.3620(10)
C1_3 C 0.6505(7) 0.6292(6) 0.6989(13)
C3_2 C 0.8068(7) 0.9229(6) 0.3828(17)
C4_2 C 0.6536(9) 0.8024(6) 0.3315(13)
C5_2 C 0.6522(7) 0.7561(4) 0.4095(9)
N9_2 N 0.6987(6) 0.8531(4) 0.0274(11)
C6_3 C 0.8733(6) 0.9889(6) 0.5398(13)
C10_2 C 0.6541(8) 0.8685(5) 0.4694(14)
C11_3 C 0.6514(6) 0.7263(6) 0.6292(11)
C12_3 C 0.6515(6) 0.7707(5) 0.5319(11)
C13_2 C 0.4468(7) 0.8737(7) 0.0202(14)
O11_2 O 0.6695(5) 0.8101(4) 0.0413(10)
C16_2 C 0.5123(8) 0.8794(8) 0.1032(13)
C20_3 C 0.6542(8) 0.6698(7) 0.6142(13)
C21_3 C 0.9927(7) 0.9826(7) 0.6686(17)
C22_3 C 0.6611(9) 0.7005(7) 0.8591(13)
C23_3 C 0.6585(7) 0.8306(6) 0.5748(13)
C25_2 C 0.8654(6) 0.9390(6) 0.4748(12)
C26_2 C 0.7562(6) 0.9986(7) 0.4265(17)
C30_3 C 0.6644(4) 0.7361(2) 0.7579(8)
H1_3 H 0.6451(7) 0.5911(6) 0.6716(13)
H3_2 H 0.8065(7) 0.8907(6) 0.3317(17)
H4_2 H 0.6540(9) 0.7937(6) 0.2477(13)
H5_2 H 0.6517(7) 0.7183(4) 0.3816(9)
H6_2 H 0.6506(8) 0.9074(5) 0.4849(14)
H7_2 H 0.4121(7) 0.8618(7) 0.0472(14)
H10_2 H 0.5204(8) 0.8701(8) 0.1912(13)
H14_3 H 0.6592(8) 0.6572(7) 0.5365(13)
H15_3 H 0.9909(7) 0.9445(7) 0.6420(17)
H16_3 H 0.6633(9) 0.7145(7) 0.9410(13)
H17_3 H 0.6650(7) 0.8423(6) 0.6607(13)
H19_2 H 0.9015(6) 0.9143(6) 0.4934(12)
H24_3 H 0.6780(4) 0.7734(2) 0.7845(8)
Co4_2 Co 0.6471(1) 0.5808(1) 0.9585(1)
O1_4 O 0.7023(4) 0.5144(4) 0.8992(9)
N7_2 N 0.6951(6) 0.4768(6) 0.9767(12)
O7_2 O 0.7170(6) 0.4289(4) 0.9962(11)
H11_4 H 0.7855(6) 0.6260(6) 0.9763(12)
N11_2 N 0.5570(5) 0.5513(4) 0.8143(10)
Co2_3 Co 0.1587(1) 0.4193(1) 0.2203(1)
O2_3 O 0.1014(4) 0.4858(4) 0.2786(8)
N3_3 N 0.1545(6) 0.3549(4) 0.3585(10)
O4 O 0.1465(4) 0.5057(4) 0.1330(9)
N4_3 N 0.0649(5) 0.3962(4) 0.0746(9)
O6_3 O 0.2152(5) 0.3953(4) 0.1142(9)
N5_3 N 0.2505(5) 0.4506(5) 0.3620(10)
C1_4 C 0.1505(7) 0.1292(6) 0.6989(13)
C3_3 C 0.3068(7) 0.4229(6) 0.3828(17)
N8 N 0.1101(5) 0.5206(3) 0.1932(9)
C4_3 C 0.1536(9) 0.3024(6) 0.3315(13)
C5_3 C 0.1522(7) 0.2561(4) 0.4095(9)
N9_3 N 0.1987(6) 0.3531(4) 0.0274(11)
C6_4 C 0.3733(6) 0.4889(6) 0.5398(13)
O8 O 0.0845(5) 0.5691(4) 0.1844(11)
C7_2 C 0.4373(7) 0.5107(5) 0.6342(13)
C10_3 C 0.1541(8) 0.3685(5) 0.4694(14)
C11_4 C 0.1514(6) 0.2263(6) 0.6292(11)
C12_4 C 0.1515(6) 0.2707(5) 0.5319(11)
O11_3 O 0.1695(5) 0.3101(4) 0.0413(10)
C16_3 C 0.0123(8) 0.3794(8) 0.1032(13)
C20_4 C 0.1542(8) 0.1698(7) 0.6142(13)
C21_4 C 0.4927(7) 0.4826(7) 0.6686(17)
C22_4 C 0.1611(9) 0.2005(7) 0.8591(13)
C23_4 C 0.1585(7) 0.3306(6) 0.5748(13)
C24_4 C 0.5013(7) 0.5801(6) 0.7903(12)
C25_3 C 0.3654(6) 0.4390(6) 0.4748(12)
C26_3 C 0.2562(6) 0.4986(7) 0.4265(17)
C27_2 C 0.4405(8) 0.5614(6) 0.7060(18)
C28_2 C 0.3109(7) 0.5171(7) 0.5327(18)
C29_4 C 0.5540(8) 0.5042(7) 0.7410(17)
C30_4 C 0.1644(4) 0.2361(2) 0.7579(8)
H1_4 H 0.1451(7) 0.0911(6) 0.6716(13)
H3_3 H 0.3065(7) 0.3907(6) 0.3317(17)
H4_3 H 0.1540(9) 0.2937(6) 0.2477(13)
H5_3 H 0.1517(7) 0.2183(4) 0.3816(9)
H6_3 H 0.1506(8) 0.4074(5) 0.4849(14)
H10_3 H 0.0204(8) 0.3701(8) 0.1912(13)
H14_4 H 0.1592(8) 0.1572(7) 0.5365(13)
H15_4 H 0.4909(7) 0.4445(7) 0.6420(17)
H16_4 H 0.1633(9) 0.2145(7) 0.9410(13)
H17_4 H 0.1650(7) 0.3423(6) 0.6607(13)
H18_4 H 0.5030(7) 0.6151(6) 0.8326(12)
H19_3 H 0.4015(6) 0.4143(6) 0.4934(12)
H20 H 0.2200(6) 0.5233(7) 0.3989(17)
H21_2 H 0.4021(8) 0.5822(6) 0.6969(18)
H22_2 H 0.3081(7) 0.5445(7) 0.5930(18)
H23_3 H 0.5926(8) 0.4866(7) 0.7393(17)
H24_4 H 0.1780(4) 0.2734(2) 0.7845(8)
C7_3 C 0.9373(7) 0.9893(5) 0.1342(13)
C27_3 C 0.9405(8) 0.9386(6) 0.2060(18)
C28_3 C 0.8109(7) 0.9829(7) 0.0327(18)
H21_3 H 0.9021(8) 0.9178(6) 0.1969(18)
H22_3 H 0.8081(7) 0.9555(7) 0.0930(18)
O3_2 O 0.1605(4) 0.9962(4) 0.0498(9)
O4_2 O 0.6465(4) 0.9943(4) 0.6330(9)
N8_2 N 0.6101(5) 0.9794(3) 0.6932(9)
O8_2 O 0.5845(5) 0.9309(4) 0.6844(11)
H20_2 H 0.7200(6) 0.9767(7) 0.8989(17)
N7_3 N 0.1951(6) 0.9768(6) 0.9767(12)
O7_3 O 0.2170(6) 0.9289(4) 0.9962(11)
H23_4 H 0.0926(8) 0.9866(7) 0.7393(17)
O4_3 O 0.6465(4) 0.0057(4) 0.1330(9)
N8_3 N 0.6101(5) 0.0206(3) 0.1932(9)
O8_3 O 0.5845(5) 0.0691(4) 0.1844(11)
C7_4 C 0.9373(7) 0.0107(5) 0.6342(13)
C27_4 C 0.9405(8) 0.0614(6) 0.7060(18)
C28_4 C 0.8109(7) 0.0171(7) 0.5327(18)
H20_3 H 0.7200(6) 0.0233(7) 0.3989(17)
H21_4 H 0.9021(8) 0.0822(6) 0.6969(18)
H22_4 H 0.8081(7) 0.0445(7) 0.5930(18)
O3_3 O 0.1605(4) 0.0038(4) 0.5498(9)
N7_4 N 0.1951(6) 0.0232(6) 0.4767(12)
O7_4 O 0.2170(6) 0.0711(4) 0.4962(11)
Co2_4 Co 0.1587(1) 0.5807(1) 0.7203(1)
O2_4 O 0.1014(4) 0.5142(4) 0.7786(8)
N3_4 N 0.1545(6) 0.6451(4) 0.8585(10)
O4_4 O 0.1465(4) 0.4943(4) 0.6330(9)
N4_4 N 0.0649(5) 0.6038(4) 0.5746(9)
O6_4 O 0.2152(5) 0.6047(4) 0.6142(9)
N5_4 N 0.2505(5) 0.5494(5) 0.8620(10)
C3_4 C 0.3068(7) 0.5771(6) 0.8828(17)
N8_4 N 0.1101(5) 0.4794(3) 0.6932(9)
C4_4 C 0.1536(9) 0.6976(6) 0.8315(13)
C5_4 C 0.1522(7) 0.7439(4) 0.9095(9)
N9_4 N 0.1987(6) 0.6469(4) 0.5274(11)
O8_4 O 0.0845(5) 0.4309(4) 0.6844(11)
O9_3 O 0.2112(6) 0.6365(4) 0.4214(10)
C10_4 C 0.1541(8) 0.6315(5) 0.9694(14)
O11_4 O 0.1695(5) 0.6899(4) 0.5413(10)
C16_4 C 0.0123(8) 0.6206(8) 0.6032(13)
C19_3 C 0.0534(7) 0.5927(6) 0.4473(12)
C25_4 C 0.3654(6) 0.5610(6) 0.9748(12)
C26_4 C 0.2562(6) 0.5014(7) 0.9265(17)
H3_4 H 0.3065(7) 0.6093(6) 0.8317(17)
H4_4 H 0.1540(9) 0.7063(6) 0.7477(13)
H5_4 H 0.1517(7) 0.7817(4) 0.8816(9)
H6_4 H 0.1506(8) 0.5926(5) 0.9849(14)
H10_4 H 0.0204(8) 0.6299(8) 0.6912(13)
H13_3 H 0.0884(7) 0.5812(6) 0.4209(12)
H19_4 H 0.4015(6) 0.5857(6) 0.9934(12)
H20_4 H 0.2200(6) 0.4767(7) 0.8989(17)
N2_4 N 0.7412(5) 0.6012(5) 0.1009(11)
O3_4 O 0.6605(4) 0.4962(4) 0.0498(9)
O5_4 O 0.5930(5) 0.6063(4) 0.0705(9)
C2_4 C 0.7528(7) 0.5904(6) 0.2276(14)
N10_4 N 0.6035(6) 0.6449(5) 0.1547(13)
C8_4 C 0.8725(6) 0.6098(6) 0.2934(12)
C9_4 C 0.9398(6) 0.6116(6) 0.3913(13)
O10_4 O 0.5858(7) 0.6424(5) 0.2423(13)
C13_3 C 0.9468(7) 0.6263(7) 0.5202(14)
C14_4 C 0.8127(7) 0.5923(7) 0.3217(14)
C15_4 C 0.9898(7) 0.5979(6) 0.3529(12)
O12_4 O 0.6292(7) 0.6882(5) 0.1350(12)
C17_4 C 0.7920(6) 0.6170(6) 0.0638(12)
C18_4 C 0.8540(6) 0.6197(7) 0.1579(13)
H2_4 H 0.7167(7) 0.5808(6) 0.2525(14)
H7_3 H 0.9121(7) 0.6382(7) 0.5472(14)
H8_4 H 0.8167(7) 0.5822(7) 0.4075(14)
H9_4 H 0.9830(7) 0.5918(6) 0.2641(12)
H12_4 H 0.8883(6) 0.6294(7) 0.1276(13)
O9_4 O 0.2112(6) 0.3635(4) 0.9214(10)
C19_4 C 0.0534(7) 0.4073(6) 0.9473(12)
H13_4 H 0.0884(7) 0.4188(6) 0.9209(12)
C13_4 C 0.9468(7) 0.3737(7) 0.0202(14)
H7_4 H 0.9121(7) 0.3618(7) 0.0472(14)
loop_
_geom_bond_atom_site_label_1
_geom_bond_atom_site_label_2
_geom_bond_site_symmetry_1
_geom_bond_site_symmetry_2
N6 C24 1_555 1_555
C29 N6 1_555 1_555
H18 C24 1_555 1_555
Co3 N6 1_555 1_555
N1 C1 1_555 1_555
C1 C20 1_555 1_555
C11 C12 1_555 1_555
C20 C11 1_555 1_555
C22 N1 1_555 1_555
C30 C11 1_555 1_555
H1 C1 1_555 1_555
H14 C20 1_555 1_555
H15 C21 1_555 1_555
H16 C22 1_555 1_555
H17 C23 1_555 1_555
H24 C30 1_555 1_555
Co4 N1 1_555 1_555
C12 C23 1_555 1_555
C22 C30 1_555 1_555
Co3 O1 1_555 1_555
N2 Co3 1_555 1_555
O5 Co3 1_555 1_555
C2 N2 1_555 1_555
N10 O5 1_555 1_555
C8 C9 1_555 1_555
O10 N10 1_555 1_555
C14 C2 1_555 1_555
C15 C9 1_555 1_555
O12 N10 1_555 1_555
C17 N2 1_555 1_555
C18 C8 1_555 1_555
H2 C2 1_555 1_555
H8 C14 1_555 1_555
H9 C15 1_555 1_555
H11 C17 1_555 1_555
H12 C18 1_555 1_555
H13 C19 1_555 1_555
N12 Co3 1_555 1_555
C8 C14 1_555 1_555
C15 C19 1_555 1_555
C17 C18 1_555 1_555
N12 C1_2 1_555 1_555
C1_2 C20_2 1_555 1_555
N6_2 C24_2 1_555 1_555
C6_2 C7 1_555 1_555
C7 C21_2 1_555 1_555
C11_2 C12_2 1_555 1_555
C20_2 C11_2 1_555 1_555
C21_2 C29_2 1_555 1_555
C22_2 N12 1_555 1_555
C24_2 C27 1_555 1_555
C27 C7 1_555 1_555
C28 C6_2 1_555 1_555
C29_2 N6_2 1_555 1_555
C30_2 C11_2 1_555 1_555
H1_2 C1_2 1_555 1_555
H14_2 C20_2 1_555 1_555
H15_2 C21_2 1_555 1_555
H16_2 C22_2 1_555 1_555
H17_2 C23_2 1_555 1_555
H18_2 C24_2 1_555 1_555
H21 C27 1_555 1_555
H22 C28 1_555 1_555
H23_2 C29_2 1_555 1_555
H24_2 C30_2 1_555 1_555
Co4 N6_2 1_555 1_555
C12_2 C23_2 1_555 1_555
C22_2 C30_2 1_555 1_555
Co4 O1_2 1_555 1_555
O1_2 N7 1_555 1_555
N2_2 Co4 1_555 1_555
O3 Co4 1_555 1_555
O5_2 Co4 1_555 1_555
C2_2 N2_2 1_555 1_555
N7 O3 1_555 1_555
O7 N7 1_555 1_555
N10_2 O5_2 1_555 1_555
C8_2 C9_2 1_555 1_555
O10_2 N10_2 1_555 1_555
C14_2 C2_2 1_555 1_555
C15_2 C9_2 1_555 1_555
O12_2 N10_2 1_555 1_555
C17_2 N2_2 1_555 1_555
C18_2 C8_2 1_555 1_555
H2_2 C2_2 1_555 1_555
H8_2 C14_2 1_555 1_555
H9_2 C15_2 1_555 1_555
H11_2 C17_2 1_555 1_555
H12_2 C18_2 1_555 1_555
C8_2 C14_2 1_555 1_555
C17_2 C18_2 1_555 1_555
Co2 O2 1_555 1_555
N3 Co2 1_555 1_555
N4 Co2 1_555 1_555
O6 Co2 1_555 1_555
N5 Co2 1_555 1_555
C2_3 N2_3 1_555 1_555
C3 N5 1_555 1_555
C4 N3 1_555 1_555
C5 C4 1_555 1_555
N9 O6 1_555 1_555
N10_3 O5_3 1_555 1_555
O9_2 N9 1_555 1_555
C8_3 C9_3 1_555 1_555
C9_3 C13 1_555 1_555
O10_3 N10_3 1_555 1_555
C10 N3 1_555 1_555
C13 C16 1_555 1_555
C14_3 C2_3 1_555 1_555
O11 N9 1_555 1_555
C15_3 C9_3 1_555 1_555
O12_3 N10_3 1_555 1_555
C16 N4 1_555 1_555
C17_3 N2_3 1_555 1_555
C18_3 C8_3 1_555 1_555
C19_2 N4 1_555 1_555
C25 C3 1_555 1_555
C26 N5 1_555 1_555
H2_3 C2_3 1_555 1_555
H3 C3 1_555 1_555
H4 C4 1_555 1_555
H5 C5 1_555 1_555
H6 C10 1_555 1_555
H7 C13 1_555 1_555
H8_3 C14_3 1_555 1_555
H9_3 C15_3 1_555 1_555
H10 C16 1_555 1_555
H12_3 C18_3 1_555 1_555
H13_2 C19_2 1_555 1_555
H19 C25 1_555 1_555
C8_3 C14_3 1_555 1_555
C15_3 C19_2 1_555 1_555
C17_3 C18_3 1_555 1_555
Co1 O1_3 1_555 1_555
N11 Co1 1_555 1_555
N12_2 Co1 1_555 1_555
N11 C24_3 1_555 1_555
C29_3 N11 1_555 1_555
H18_3 C24_3 1_555 1_555
Co2_2 O2_2 1_555 1_555
N1_2 C1_3 1_555 1_555
N3_2 Co2_2 1_555 1_555
N4_2 Co2_2 1_555 1_555
O6_2 Co2_2 1_555 1_555
N5_2 Co2_2 1_555 1_555
C1_3 C20_3 1_555 1_555
C3_2 N5_2 1_555 1_555
C4_2 N3_2 1_555 1_555
C5_2 C4_2 1_555 1_555
N9_2 O6_2 1_555 1_555
C10_2 N3_2 1_555 1_555
C11_3 C12_3 1_555 1_555
C12_3 C5_2 1_555 1_555
C13_2 C16_2 1_555 1_555
O11_2 N9_2 1_555 1_555
C16_2 N4_2 1_555 1_555
C20_3 C11_3 1_555 1_555
C22_3 N1_2 1_555 1_555
C23_3 C10_2 1_555 1_555
C25_2 C3_2 1_555 1_555
C26_2 N5_2 1_555 1_555
C30_3 C11_3 1_555 1_555
H1_3 C1_3 1_555 1_555
H3_2 C3_2 1_555 1_555
H4_2 C4_2 1_555 1_555
H5_2 C5_2 1_555 1_555
H6_2 C10_2 1_555 1_555
H7_2 C13_2 1_555 1_555
H10_2 C16_2 1_555 1_555
H14_3 C20_3 1_555 1_555
H15_3 C21_3 1_555 1_555
H16_3 C22_3 1_555 1_555
H17_3 C23_3 1_555 1_555
H19_2 C25_2 1_555 1_555
H24_3 C30_3 1_555 1_555
Co4_2 N1_2 1_555 1_555
C6_3 C25_2 1_555 1_555
C12_3 C23_3 1_555 1_555
C22_3 C30_3 1_555 1_555
Co4_2 O1_4 1_555 1_555
O1_4 N7_2 1_555 1_555
O7_2 N7_2 1_555 1_555
N11_2 Co4_2 1_555 1_555
Co2_3 O2_3 1_555 1_555
N12_2 C1_4 1_555 1_555
O2_3 N8 1_555 1_555
N3_3 Co2_3 1_555 1_555
O4 Co2_3 1_555 1_555
N4_3 Co2_3 1_555 1_555
O6_3 Co2_3 1_555 1_555
N5_3 Co2_3 1_555 1_555
C1_4 C20_4 1_555 1_555
N11_2 C24_4 1_555 1_555
C3_3 N5_3 1_555 1_555
N8 O4 1_555 1_555
C4_3 N3_3 1_555 1_555
C5_3 C4_3 1_555 1_555
N9_3 O6_3 1_555 1_555
C6_4 C7_2 1_555 1_555
O8 N8 1_555 1_555
C7_2 C21_4 1_555 1_555
C10_3 N3_3 1_555 1_555
C11_4 C12_4 1_555 1_555
C12_4 C5_3 1_555 1_555
O11_3 N9_3 1_555 1_555
C16_3 N4_3 1_555 1_555
C20_4 C11_4 1_555 1_555
C21_4 C29_4 1_555 1_555
C22_4 N12_2 1_555 1_555
C23_4 C10_3 1_555 1_555
C24_4 C27_2 1_555 1_555
C25_3 C3_3 1_555 1_555
C26_3 N5_3 1_555 1_555
C27_2 C7_2 1_555 1_555
C28_2 C6_4 1_555 1_555
C29_4 N11_2 1_555 1_555
C30_4 C11_4 1_555 1_555
H1_4 C1_4 1_555 1_555
H3_3 C3_3 1_555 1_555
H4_3 C4_3 1_555 1_555
H5_3 C5_3 1_555 1_555
H6_3 C10_3 1_555 1_555
H10_3 C16_3 1_555 1_555
H14_4 C20_4 1_555 1_555
H15_4 C21_4 1_555 1_555
H16_4 C22_4 1_555 1_555
H17_4 C23_4 1_555 1_555
H18_4 C24_4 1_555 1_555
H19_3 C25_3 1_555 1_555
H20 C26_3 1_555 1_555
H21_2 C27_2 1_555 1_555
H22_2 C28_2 1_555 1_555
H23_3 C29_4 1_555 1_555
H24_4 C30_4 1_555 1_555
C6_4 C25_3 1_555 1_555
C12_4 C23_4 1_555 1_555
C22_4 C30_4 1_555 1_555
C26_3 C28_2 1_555 1_555
C27_3 C7_3 1_555 1_555
H21_3 C27_3 1_555 1_555
H22_3 C28_3 1_555 1_555
N8_2 O4_2 1_555 1_555
O8_2 N8_2 1_555 1_555
O7_3 N7_3 1_555 1_555
N8_3 O4_3 1_555 1_555
O8_3 N8_3 1_555 1_555
C27_4 C7_4 1_555 1_555
H21_4 C27_4 1_555 1_555
H22_4 C28_4 1_555 1_555
N7_4 O3_3 1_555 1_555
O7_4 N7_4 1_555 1_555
Co2_4 O2_4 1_555 1_555
O2_4 N8_4 1_555 1_555
N3_4 Co2_4 1_555 1_555
O4_4 Co2_4 1_555 1_555
N4_4 Co2_4 1_555 1_555
O6_4 Co2_4 1_555 1_555
N5_4 Co2_4 1_555 1_555
C3_4 N5_4 1_555 1_555
N8_4 O4_4 1_555 1_555
C4_4 N3_4 1_555 1_555
C5_4 C4_4 1_555 1_555
N9_4 O6_4 1_555 1_555
O8_4 N8_4 1_555 1_555
O9_3 N9_4 1_555 1_555
C10_4 N3_4 1_555 1_555
O11_4 N9_4 1_555 1_555
C16_4 N4_4 1_555 1_555
C19_3 N4_4 1_555 1_555
C25_4 C3_4 1_555 1_555
C26_4 N5_4 1_555 1_555
H3_4 C3_4 1_555 1_555
H4_4 C4_4 1_555 1_555
H5_4 C5_4 1_555 1_555
H6_4 C10_4 1_555 1_555
H10_4 C16_4 1_555 1_555
H13_3 C19_3 1_555 1_555
H19_4 C25_4 1_555 1_555
H20_4 C26_4 1_555 1_555
C2_4 N2_4 1_555 1_555
N10_4 O5_4 1_555 1_555
C8_4 C9_4 1_555 1_555
C9_4 C13_3 1_555 1_555
O10_4 N10_4 1_555 1_555
C14_4 C2_4 1_555 1_555
C15_4 C9_4 1_555 1_555
O12_4 N10_4 1_555 1_555
C17_4 N2_4 1_555 1_555
C18_4 C8_4 1_555 1_555
H2_4 C2_4 1_555 1_555
H7_3 C13_3 1_555 1_555
H8_4 C14_4 1_555 1_555
H9_4 C15_4 1_555 1_555
H12_4 C18_4 1_555 1_555
C8_4 C14_4 1_555 1_555
C17_4 C18_4 1_555 1_555
H13_4 C19_4 1_555 1_555
H7_4 C13_4 1_555 1_555

#END
