
###############################################################################
#
# This file contains modified crystal structure data generated from the
# MOF subset of the Cambridge Structural Database (CSD) v543 
# hosted by the Cambridge Crystallographic Data Centre (CCDC).
#
# This work is licensed under the Creative Commons
# Attribution-NonCommercial-ShareAlike 4.0 International License.
# To view a copy of this license, visit
# http://creativecommons.org/licenses/by-nc-sa/4.0/
# or send a letter to
# Creative Commons, PO Box 1866, Mountain View, CA 94042, USA.
#
# CIF created using the CSD Python API on 29 September 2022
# The structure has been converted into the P1 space group
# The structure has a 3D framework
# The original CSD entry GUCXEI is in the triclinic crystal system
# The framework has been calculated to contain at least 10.0% void space
# The void calculation uses a probe of radius 1.32A, grid spacing 0.4
#
###############################################################################

data_GUCXEI
_chemical_formula_moiety         '(C58 H32 N8 O16 Zn2)n'
_symmetry_cell_setting           triclinic
_symmetry_space_group_name_H-M   'P 1'
_symmetry_Int_Tables_number      1
_space_group_name_Hall           'P 1'
loop_
_symmetry_equiv_pos_site_id
_symmetry_equiv_pos_as_xyz
1 x,y,z
_cell_length_a                   9.079(2)
_cell_length_b                   12.415(3)
_cell_length_c                   13.982(3)
_cell_angle_alpha                102.897(5)
_cell_angle_beta                 99.497(4)
_cell_angle_gamma                105.805(4)
_cell_volume                     1434.69
loop_
_atom_site_label
_atom_site_type_symbol
_atom_site_fract_x
_atom_site_fract_y
_atom_site_fract_z
_atom_site_U_iso_or_equiv
_atom_site_thermal_displace_type
Zn10 Zn 0.13815(8) 0.20368(8) 0.17521(6) 0.0449 Uani
C31 C 0.5320(7) 0.1199(6) 0.0200(5) 0.0410 Uani
H18 H 0.5528 0.2001 0.0332 0.0490 Uiso
O12 O 0.9208(5) 0.1094(5) 0.1185(3) 0.0623 Uani
O20 O 0.8432(6) 0.2635(6) 0.1178(4) 0.0735 Uani
C46 C 0.6523(7) 0.0754(7) 0.0478(4) 0.0379 Uani
C50 C 0.8181(8) 0.1574(8) 0.0983(5) 0.0495 Uani
C30 C 0.3812(7) 0.0447(7) 0.9729(5) 0.0421 Uani
H17 H 0.3011 0.0749 0.9548 0.0500 Uiso
N9 N 0.2342(6) 0.0343(6) 0.6857(4) 0.0423 Uani
C1 C 0.6188(7) 0.9553(7) 0.0271(5) 0.0421 Uani
H1 H 0.6989 0.9251 0.0452 0.0500 Uiso
C2 C 0.4680(7) 0.8801(6) 0.9800(5) 0.0410 Uani
H2 H 0.4472 0.7999 0.9668 0.0490 Uiso
Zn1 Zn 0.04044(8) 0.88710(7) 0.59580(6) 0.0378 Uani
O2 O 0.0792(5) 0.8906(5) 0.8815(3) 0.0623 Uani
O7 O 0.1568(6) 0.7365(6) 0.8822(4) 0.0735 Uani
C17 C 0.3477(7) 0.9246(7) 0.9522(4) 0.0379 Uani
C21 C 0.1819(8) 0.8426(8) 0.9017(5) 0.0495 Uani
O11 O 0.0718(5) 0.8993(4) 0.4579(3) 0.0443 Uani
N6 N 0.2062(6) 0.8098(5) 0.6496(4) 0.0407 Uani
O1 O 0.9282(5) 0.1007(4) 0.5421(3) 0.0443 Uani
C8 C 0.3674(7) 0.0083(7) 0.7175(4) 0.0410 Uani
N4 N 0.7980(6) 0.1167(6) 0.8429(4) 0.0484 Uani
H10 H 0.8423 0.1912 0.8609 0.0580 Uiso
C14 C 0.6393(7) 0.0544(7) 0.7944(5) 0.0379 Uani
C15 C 0.8653(8) 0.0368(7) 0.8552(5) 0.0470 Uani
H11 H 0.9712 0.0568 0.8872 0.0560 Uiso
C18 C 0.5108(8) 0.0944(7) 0.7655(5) 0.0382 Uani
C23 C 0.2464(8) 0.1463(8) 0.7036(5) 0.0558 Uani
H14 H 0.1562 0.1653 0.6831 0.0670 Uiso
C24 C 0.8292(7) 0.0238(7) 0.5652(5) 0.0427 Uani
C26 C 0.3849(9) 0.2357(7) 0.7506(5) 0.0585 Uani
H15 H 0.3869 0.3128 0.7606 0.0700 Uiso
C28 C 0.5192(9) 0.2116(7) 0.7825(5) 0.0565 Uani
H16 H 0.6137 0.2713 0.8147 0.0680 Uiso
C29 C 0.6582(7) 0.0126(6) 0.5333(5) 0.0350 Uani
C34 C 0.6133(7) 0.1083(6) 0.5249(4) 0.0374 Uani
H21 H 0.6892 0.1814 0.5420 0.0450 Uiso
C36 C 0.4545(7) 0.0961(7) 0.4910(5) 0.0439 Uani
H23 H 0.4248 0.1607 0.4847 0.0520 Uiso
Zn7 Zn 0.95956(8) 0.11290(7) 0.40420(6) 0.0378 Uani
O14 O 0.1370(5) 0.0443(4) 0.3873(3) 0.0500 Uani
O8 O 0.8531(7) 0.7371(6) 0.0150(5) 0.1160 Uani
C32 C 0.6522(8) 0.5431(7) 0.0580(5) 0.0602 Uani
H19 H 0.7547 0.5722 0.0980 0.0720 Uiso
C35 C 0.5374(9) 0.4608(7) 0.0829(5) 0.0587 Uani
H22 H 0.5641 0.4346 0.1386 0.0700 Uiso
O18 O 0.2834(5) 0.3266(5) 0.1421(4) 0.0655 Uani
C54 C 0.3841(8) 0.4184(6) 0.0250(5) 0.0449 Uani
C56 C 0.2618(9) 0.3279(8) 0.0520(7) 0.0567 Uani
C3 C 0.3478(8) 0.4569(7) 0.9420(5) 0.0602 Uani
H3 H 0.2453 0.4278 0.9020 0.0720 Uiso
C4 C 0.4128(7) 0.4884(6) 0.4041(5) 0.0459 Uani
H4 H 0.3557 0.4806 0.3399 0.0550 Uiso
C5 C 0.3867(7) 0.8917(6) 0.4751(4) 0.0374 Uani
H5 H 0.3108 0.8186 0.4580 0.0450 Uiso
C6 C 0.4626(9) 0.5392(7) 0.9171(5) 0.0587 Uani
H6 H 0.4359 0.5654 0.8614 0.0700 Uiso
C7 C 0.5455(7) 0.9039(7) 0.5090(5) 0.0439 Uani
H7 H 0.5752 0.8393 0.5153 0.0520 Uiso
C9 C 0.3500(7) 0.8839(6) 0.6989(4) 0.0350 Uani
C10 C 0.1860(8) 0.6972(7) 0.6327(5) 0.0520 Uani
H8 H 0.0866 0.6449 0.5984 0.0620 Uiso
C11 C 0.3040(8) 0.6522(7) 0.6628(5) 0.0552 Uani
H9 H 0.2835 0.5720 0.6500 0.0660 Uiso
Zn2 Zn 0.86185(8) 0.79632(8) 0.82479(6) 0.0449 Uani
C12 C 0.6256(7) 0.9375(7) 0.7794(4) 0.0346 Uani
O3 O 0.8630(5) 0.9557(4) 0.6127(3) 0.0500 Uani
N3 N 0.7732(6) 0.9274(5) 0.8192(4) 0.0362 Uani
O4 O 0.8644(5) 0.7305(4) 0.5271(3) 0.0551 Uani
O5 O 0.8488(5) 0.7223(4) 0.6818(3) 0.0544 Uani
C13 C 0.7960(7) 0.6884(6) 0.5871(6) 0.0427 Uani
O6 O 0.7166(5) 0.6734(5) 0.8579(4) 0.0655 Uani
C16 C 0.4501(8) 0.7276(7) 0.7116(5) 0.0519 Uani
H12 H 0.5313 0.6993 0.7322 0.0620 Uiso
C19 C 0.4786(7) 0.8483(7) 0.7309(5) 0.0386 Uani
C20 C 0.5540(7) 0.5779(6) 0.4469(5) 0.0456 Uani
H13 H 0.5903 0.6309 0.4117 0.0540 Uiso
C22 C 0.6436(7) 0.5898(6) 0.5432(5) 0.0385 Uani
C25 C 0.6159(8) 0.5816(6) 0.9750(5) 0.0449 Uani
C27 C 0.7382(9) 0.6721(8) 0.9480(7) 0.0567 Uani
C33 C 0.5872(7) 0.5116(6) 0.5959(5) 0.0459 Uani
H20 H 0.6443 0.5194 0.6601 0.0550 Uiso
N5 N 0.7938(6) 0.1902(5) 0.3504(4) 0.0407 Uani
C38 C 0.6500(7) 0.1161(6) 0.3011(4) 0.0350 Uani
C39 C 0.8140(8) 0.3028(7) 0.3673(5) 0.0520 Uani
H24 H 0.9134 0.3551 0.4016 0.0620 Uiso
C40 C 0.6960(8) 0.3478(7) 0.3372(5) 0.0552 Uani
H25 H 0.7165 0.4280 0.3500 0.0660 Uiso
C41 C 0.3744(7) 0.0625(7) 0.2206(4) 0.0346 Uani
N11 N 0.2268(6) 0.0726(5) 0.1808(4) 0.0362 Uani
O16 O 0.1356(5) 0.2695(4) 0.4729(3) 0.0551 Uani
O17 O 0.1512(5) 0.2777(4) 0.3182(3) 0.0544 Uani
C42 C 0.2040(7) 0.3116(6) 0.4129(6) 0.0427 Uani
C45 C 0.5499(8) 0.2724(7) 0.2884(5) 0.0519 Uani
H28 H 0.4687 0.3007 0.2678 0.0620 Uiso
C48 C 0.5214(7) 0.1517(7) 0.2691(5) 0.0386 Uani
C49 C 0.4460(7) 0.4221(6) 0.5531(5) 0.0456 Uani
H29 H 0.4097 0.3691 0.5883 0.0540 Uiso
C51 C 0.3564(7) 0.4102(6) 0.4568(5) 0.0385 Uani
C53 C 0.1708(7) 0.9762(7) 0.4348(5) 0.0427 Uani
O21 O 0.1469(7) 0.2629(6) 0.9850(5) 0.1160 Uani
C58 C 0.3418(7) 0.9874(6) 0.4667(5) 0.0350 Uani
N8 N 0.7658(6) 0.9657(6) 0.3143(4) 0.0423 Uani
C37 C 0.6326(7) 0.9917(7) 0.2825(4) 0.0410 Uani
N12 N 0.2020(6) 0.8833(6) 0.1571(4) 0.0484 Uani
H26 H 0.1577 0.8088 0.1391 0.0580 Uiso
C43 C 0.3607(7) 0.9456(7) 0.2056(5) 0.0379 Uani
C44 C 0.1347(8) 0.9632(7) 0.1448(5) 0.0470 Uani
H27 H 0.0288 0.9432 0.1128 0.0560 Uiso
C47 C 0.4892(8) 0.9056(7) 0.2345(5) 0.0382 Uani
C52 C 0.7536(8) 0.8537(8) 0.2964(5) 0.0558 Uani
H30 H 0.8438 0.8347 0.3169 0.0670 Uiso
C55 C 0.6151(9) 0.7643(7) 0.2494(5) 0.0585 Uani
H31 H 0.6131 0.6872 0.2394 0.0700 Uiso
C57 C 0.4808(9) 0.7884(7) 0.2175(5) 0.0565 Uani
H32 H 0.3863 0.7287 0.1853 0.0680 Uiso
loop_
_atom_site_aniso_label
_atom_site_aniso_U_11
_atom_site_aniso_U_22
_atom_site_aniso_U_33
_atom_site_aniso_U_23
_atom_site_aniso_U_13
_atom_site_aniso_U_12
Zn10 0.0226 0.0533 0.0536 0.0224 0.0033 0.0014
C31 0.033 0.032 0.052 0.007 0.008 0.006
O12 0.02 0.078 0.078 0.029 -0.004 0.002
O20 0.043 0.057 0.095 0.009 -0.009 0.001
C46 0.024 0.05 0.033 0.003 0.004 0.01
C50 0.032 0.066 0.043 0.013 0.007 0.007
C30 0.022 0.058 0.043 0.014 0.001 0.012
N9 0.03 0.048 0.047 0.013 0.001 0.015
C1 0.022 0.058 0.043 0.014 0.001 0.012
C2 0.033 0.032 0.052 0.007 0.008 0.006
Zn1 0.0157 0.0433 0.0511 0.0221 0.002 0.0008
O2 0.02 0.078 0.078 0.029 -0.004 0.002
O7 0.043 0.057 0.095 0.009 -0.009 0.001
C17 0.024 0.05 0.033 0.003 0.004 0.01
C21 0.032 0.066 0.043 0.013 0.007 0.007
O11 0.02 0.051 0.054 0.021 0.004 -0.003
N6 0.025 0.038 0.052 0.012 0.002 0.004
O1 0.02 0.051 0.054 0.021 0.004 -0.003
C8 0.029 0.061 0.031 0.016 0.005 0.01
N4 0.032 0.051 0.052 0.018 -0.003 0.002
C14 0.022 0.043 0.043 0.016 0.005 0
C15 0.028 0.054 0.045 0.014 -0.005 -0.001
C18 0.032 0.036 0.041 0.017 0.002 0.001
C23 0.035 0.059 0.064 0.012 -0.004 0.014
C24 0.017 0.065 0.041 0.019 0.003 0.004
C26 0.05 0.053 0.065 0.019 0 0.011
C28 0.045 0.058 0.049 0.016 -0.005 -0.002
C29 0.023 0.044 0.042 0.02 0.014 0.007
C34 0.019 0.036 0.052 0.014 0.006 0.001
C36 0.032 0.059 0.054 0.03 0.016 0.021
Zn7 0.0157 0.0433 0.0511 0.0221 0.002 0.0008
O14 0.029 0.064 0.067 0.039 0.012 0.014
O8 0.075 0.121 0.093 0.034 0.007 -0.057
C32 0.034 0.074 0.058 0.024 0.001 -0.004
C35 0.053 0.063 0.063 0.041 0.013 0.005
O18 0.043 0.079 0.073 0.048 0.014 -0.004
C54 0.036 0.038 0.054 0.016 0.011 -0.001
C56 0.036 0.06 0.075 0.034 0.015 0.004
C3 0.034 0.074 0.058 0.024 0.001 -0.004
C4 0.032 0.045 0.052 0.015 0.003 0.002
C5 0.019 0.036 0.052 0.014 0.006 0.001
C6 0.053 0.063 0.063 0.041 0.013 0.005
C7 0.032 0.059 0.054 0.03 0.016 0.021
C9 0.023 0.041 0.034 0.012 0.002 0.001
C10 0.029 0.041 0.074 0.014 0.001 0.001
C11 0.034 0.036 0.082 0.009 -0.001 0.005
Zn2 0.0226 0.0533 0.0536 0.0224 0.0033 0.0014
C12 0.022 0.045 0.036 0.017 0.005 0.006
O3 0.029 0.064 0.067 0.039 0.012 0.014
N3 0.025 0.037 0.04 0.012 0.004 0.001
O4 0.028 0.057 0.068 0.024 0.008 -0.009
O5 0.035 0.058 0.049 0.003 -0.005 0
C13 0.02 0.034 0.068 0.018 0.002 0.001
O6 0.043 0.079 0.073 0.048 0.014 -0.004
C16 0.032 0.056 0.064 0.027 -0.002 0.008
C19 0.023 0.049 0.042 0.021 0.008 0.002
C20 0.032 0.046 0.048 0.021 0.005 -0.008
C22 0.023 0.039 0.047 0.014 0.004 0.001
C25 0.036 0.038 0.054 0.016 0.011 -0.001
C27 0.036 0.06 0.075 0.034 0.015 0.004
C33 0.032 0.045 0.052 0.015 0.003 0.002
N5 0.025 0.038 0.052 0.012 0.002 0.004
C38 0.023 0.041 0.034 0.012 0.002 0.001
C39 0.029 0.041 0.074 0.014 0.001 0.001
C40 0.034 0.036 0.082 0.009 -0.001 0.005
C41 0.022 0.045 0.036 0.017 0.005 0.006
N11 0.025 0.037 0.04 0.012 0.004 0.001
O16 0.028 0.057 0.068 0.024 0.008 -0.009
O17 0.035 0.058 0.049 0.003 -0.005 0
C42 0.02 0.034 0.068 0.018 0.002 0.001
C45 0.032 0.056 0.064 0.027 -0.002 0.008
C48 0.023 0.049 0.042 0.021 0.008 0.002
C49 0.032 0.046 0.048 0.021 0.005 -0.008
C51 0.023 0.039 0.047 0.014 0.004 0.001
C53 0.017 0.065 0.041 0.019 0.003 0.004
O21 0.075 0.121 0.093 0.034 0.007 -0.057
C58 0.023 0.044 0.042 0.02 0.014 0.007
N8 0.03 0.048 0.047 0.013 0.001 0.015
C37 0.029 0.061 0.031 0.016 0.005 0.01
N12 0.032 0.051 0.052 0.018 -0.003 0.002
C43 0.022 0.043 0.043 0.016 0.005 0
C44 0.028 0.054 0.045 0.014 -0.005 -0.001
C47 0.032 0.036 0.041 0.017 0.002 0.001
C52 0.035 0.059 0.064 0.012 -0.004 0.014
C55 0.05 0.053 0.065 0.019 0 0.011
C57 0.045 0.058 0.049 0.016 -0.005 -0.002
loop_
_geom_bond_atom_site_label_1
_geom_bond_atom_site_label_2
_geom_bond_site_symmetry_1
_geom_bond_site_symmetry_2
H18 C31 1_555 1_555
O12 C50 1_555 1_555
O20 C50 1_555 1_555
C50 C46 1_555 1_555
C31 C46 1_555 1_555
H17 C30 1_555 1_555
C1 H1 1_555 1_555
H2 C2 1_555 1_555
O2 C21 1_555 1_555
O7 C21 1_555 1_555
C17 C2 1_555 1_555
C21 C17 1_555 1_555
O11 Zn1 1_555 1_555
N6 Zn1 1_555 1_555
O1 C24 1_555 1_555
N9 C8 1_555 1_555
N4 H10 1_555 1_555
H11 C15 1_555 1_555
C18 C8 1_555 1_555
C23 N9 1_555 1_555
H14 C23 1_555 1_555
C24 C29 1_555 1_555
C26 C23 1_555 1_555
H15 C26 1_555 1_555
C28 C18 1_555 1_555
H16 C28 1_555 1_555
C34 C29 1_555 1_555
H21 C34 1_555 1_555
C36 C34 1_555 1_555
H23 C36 1_555 1_555
Zn7 O1 1_555 1_555
N4 C14 1_555 1_555
N4 C15 1_555 1_555
C14 C18 1_555 1_555
C26 C28 1_555 1_555
H19 C32 1_555 1_555
C35 C32 1_555 1_555
H22 C35 1_555 1_555
Zn10 O18 1_555 1_555
O18 C56 1_555 1_555
C56 C54 1_555 1_555
C35 C54 1_555 1_555
C3 H3 1_555 1_555
C4 H4 1_555 1_555
C5 H5 1_555 1_555
C6 C3 1_555 1_555
H6 C6 1_555 1_555
C7 C5 1_555 1_555
H7 C7 1_555 1_555
N6 C9 1_555 1_555
C9 C19 1_555 1_555
C10 N6 1_555 1_555
H8 C10 1_555 1_555
C11 C10 1_555 1_555
H9 C11 1_555 1_555
C12 N3 1_555 1_555
N3 Zn2 1_555 1_555
O5 Zn2 1_555 1_555
C13 O4 1_555 1_555
O6 Zn2 1_555 1_555
C16 C11 1_555 1_555
H12 C16 1_555 1_555
C19 C12 1_555 1_555
C20 C4 1_555 1_555
H13 C20 1_555 1_555
C22 C13 1_555 1_555
C25 C6 1_555 1_555
C27 O6 1_555 1_555
C33 C22 1_555 1_555
H20 C33 1_555 1_555
N5 C38 1_555 1_555
C38 C48 1_555 1_555
C39 N5 1_555 1_555
H24 C39 1_555 1_555
C40 C39 1_555 1_555
H25 C40 1_555 1_555
Zn7 N5 1_555 1_555
C41 N11 1_555 1_555
N11 Zn10 1_555 1_555
O17 Zn10 1_555 1_555
C42 O16 1_555 1_555
C45 C40 1_555 1_555
H28 C45 1_555 1_555
C48 C41 1_555 1_555
C49 C33 1_555 1_555
H29 C49 1_555 1_555
C51 C4 1_555 1_555
C53 O11 1_555 1_555
C58 C5 1_555 1_555
O5 C13 1_555 1_555
C16 C19 1_555 1_555
C20 C22 1_555 1_555
C25 C27 1_555 1_555
O17 C42 1_555 1_555
C42 C51 1_555 1_555
C45 C48 1_555 1_555
C49 C51 1_555 1_555
C53 C58 1_555 1_555
N8 C37 1_555 1_555
N12 H26 1_555 1_555
H27 C44 1_555 1_555
C47 C37 1_555 1_555
C52 N8 1_555 1_555
H30 C52 1_555 1_555
C55 C52 1_555 1_555
H31 C55 1_555 1_555
C57 C47 1_555 1_555
H32 C57 1_555 1_555
N12 C43 1_555 1_555
N12 C44 1_555 1_555
C43 C47 1_555 1_555
C55 C57 1_555 1_555

#END
