
###############################################################################
#
# This file contains modified crystal structure data generated from the
# MOF subset of the Cambridge Structural Database (CSD) v543 
# hosted by the Cambridge Crystallographic Data Centre (CCDC).
#
# This work is licensed under the Creative Commons
# Attribution-NonCommercial-ShareAlike 4.0 International License.
# To view a copy of this license, visit
# http://creativecommons.org/licenses/by-nc-sa/4.0/
# or send a letter to
# Creative Commons, PO Box 1866, Mountain View, CA 94042, USA.
#
# CIF created using the CSD Python API on 29 September 2022
# The structure has been converted into the P1 space group
# The structure has a 3D framework
# The original CSD entry GUDJOG is in the monoclinic crystal system
# The framework has been calculated to contain at least 10.0% void space
# The void calculation uses a probe of radius 1.32A, grid spacing 0.4
#
###############################################################################

data_GUDJOG
_chemical_formula_moiety         '(C288 H344 N32 O80 Sm8)n'
_symmetry_cell_setting           triclinic
_symmetry_space_group_name_H-M   'P 1'
_symmetry_Int_Tables_number      1
_space_group_name_Hall           'P 1'
loop_
_symmetry_equiv_pos_site_id
_symmetry_equiv_pos_as_xyz
1 x,y,z
_cell_length_a                   32.599(5)
_cell_length_b                   8.8449(14)
_cell_length_c                   34.246(8)
_cell_angle_alpha                90
_cell_angle_beta                 116.457(2)
_cell_angle_gamma                90
_cell_volume                     8840.17
loop_
_atom_site_label
_atom_site_type_symbol
_atom_site_fract_x
_atom_site_fract_y
_atom_site_fract_z
Sm3 Sm 0.006623(11) 0.37809(4) 0.381641(10)
C1 C 0.11057(18) 0.6480(7) 0.02365(17)
C3 C 0.1883(2) 0.8912(8) 0.16708(19)
H1 H 0.2000 0.8031 0.1856
H2 H 0.1592 0.9187 0.1663
C11 C 0.1499(2) 0.7574(8) 0.0960(2)
C12 C 0.1437(2) 0.7433(7) 0.0531(2)
H8 H 0.1621 0.7990 0.0441
N2 N 0.18234(19) 0.8573(7) 0.12374(17)
H9 H 0.1999 0.9018 0.1146
C15 C 0.0822(2) 0.5650(6) 0.03692(19)
H10 H 0.0591 0.5035 0.0172
C16 C 0.1223(2) 0.6704(6) 0.10887(19)
H11 H 0.1264 0.6761 0.1375
C18 C 0.2683(2) 0.9902(7) 0.2047(2)
C22 C 0.2858(2) 0.8308(7) 0.2083(2)
H16 H 0.3136 0.8309 0.2051
H17 H 0.2632 0.7699 0.1858
H18 H 0.2918 0.7900 0.2363
H21 H 0.3572 0.9933 0.2268
C35 C 0.0891(2) 0.5760(6) 0.07968(19)
C36 C 0.0592(2) 0.4885(7) 0.0947(2)
O8 O 0.02787(14) 0.4079(5) 0.06811(13)
O9 O 0.06635(14) 0.4975(5) 0.13360(13)
C19 C 0.1043(2) 0.6355(9) 0.97820(19)
O3 O 0.13567(15) 0.7061(6) 0.97193(13)
H25 H 0.1264 0.7224 0.9458
O7 O 0.07184(14) 0.5699(4) 0.95011(12)
Sm4 Sm 0.006623(11) 0.62191(4) 0.881641(10)
C2 C 0.08010(19) 0.2182(7) 0.24924(18)
C4 C 0.0760(2) 0.2751(7) 0.28478(19)
H3 H 0.0547 0.3497 0.2817
C5 C 0.11096(19) 0.1021(7) 0.25313(18)
H4 H 0.1119 0.0625 0.2284
C13 C 0.1052(2) 0.2166(8) 0.3257(2)
C14 C 0.1399(2) 0.0468(7) 0.2939(2)
H12 H 0.2556 0.0172 0.2951
C21 C 0.1364(2) 0.1047(8) 0.33015(19)
H15 H 0.1554 0.0672 0.3578
C25 C 0.05034(19) 0.2797(7) 0.2040(2)
O1 O 0.03003(13) 0.4071(4) 0.19979(12)
O2 O 0.04556(14) 0.2033(5) 0.17131(13)
C26 C 0.1012(3) 0.2695(8) 0.3658(2)
C27 C 0.0382(3) 0.8057(10) 0.1710(3)
H26 H 0.0560 0.7551 0.1590
H27 H 0.0524 0.7927 0.2020
H28 H 0.0364 0.9116 0.1642
H29 H 0.0051 0.9509 0.2077
C31 C 0.0379(3) 0.0129(11) 0.0749(3)
H36 H 0.0523 0.1102 0.0829
O6 O 0.13494(16) 0.2489(7) 0.40216(14)
O10 O 0.06481(15) 0.3252(5) 0.36111(13)
O4 O 0.02334(14) 0.6284(6) 0.37509(14)
C28 C 0.0125(5) 0.7353(11) 0.3496(3)
C29 C 0.0273(4) 0.9327(10) 0.3073(3)
H30 H 0.0386 0.9092 0.2865
C30 C 0.0867(4) 0.7262(14) 0.3523(5)
H32 H 0.1104 0.7987 0.3676
H33 H 0.0893 0.6909 0.3271
H34 H 0.0897 0.6424 0.3712
O5 O 0.02622(15) 0.1382(6) 0.41682(14)
N3 N 0.0362(5) 0.8064(9) 0.3371(3)
C32 C 0.0192(5) 0.0255(12) 0.4324(3)
H41 H 0.0875 0.0170 0.4374
O11 O 0.07184(14) 0.4301(4) 0.45011(12)
C1_2 C 0.11057(18) 0.3520(7) 0.52365(17)
C3_2 C 0.1883(2) 0.1088(8) 0.66708(19)
H1_2 H 0.2000 0.1969 0.6856
H2_2 H 0.1592 0.0813 0.6663
C11_2 C 0.1499(2) 0.2426(8) 0.5960(2)
C12_2 C 0.1437(2) 0.2567(7) 0.5531(2)
H8_2 H 0.1621 0.2010 0.5441
N2_2 N 0.18234(19) 0.1427(7) 0.62374(17)
H9_2 H 0.1999 0.0982 0.6146
C15_2 C 0.0822(2) 0.4350(6) 0.53692(19)
H10_2 H 0.0591 0.4965 0.5172
C16_2 C 0.1223(2) 0.3296(6) 0.60887(19)
H11_2 H 0.1264 0.3239 0.6375
C18_2 C 0.2683(2) 0.0098(7) 0.7047(2)
C19_2 C 0.1043(2) 0.3645(9) 0.47820(19)
C22_2 C 0.2858(2) 0.1692(7) 0.7083(2)
H16_2 H 0.3136 0.1691 0.7051
H17_2 H 0.2632 0.2301 0.6858
H18_2 H 0.2918 0.2100 0.7363
H21_2 H 0.3572 0.0067 0.7268
O3_2 O 0.13567(15) 0.2939(6) 0.47193(13)
H25_2 H 0.1264 0.2776 0.4458
C35_2 C 0.0891(2) 0.4240(6) 0.57968(19)
C36_2 C 0.0592(2) 0.5115(7) 0.5947(2)
O8_2 O 0.02787(14) 0.5921(5) 0.56811(13)
O9_2 O 0.06635(14) 0.5025(5) 0.63360(13)
O4_2 O 0.02334(14) 0.3716(6) 0.87509(14)
C28_2 C 0.0125(5) 0.2647(11) 0.8496(3)
C29_2 C 0.0273(4) 0.0673(10) 0.8073(3)
H30_2 H 0.0386 0.0908 0.7865
C30_2 C 0.0867(4) 0.2738(14) 0.8523(5)
H32_2 H 0.1104 0.2013 0.8676
H33_2 H 0.0893 0.3091 0.8271
H34_2 H 0.0897 0.3576 0.8712
O5_2 O 0.02622(15) 0.8618(6) 0.91682(14)
N3_2 N 0.0362(5) 0.1936(9) 0.8371(3)
C32_2 C 0.0192(5) 0.9745(12) 0.9324(3)
H41_2 H 0.0875 0.9830 0.9374
O14 O 0.06481(15) 0.6748(5) 0.86111(13)
C2_2 C 0.08010(19) 0.7818(7) 0.74924(18)
C4_2 C 0.0760(2) 0.7249(7) 0.78478(19)
H3_2 H 0.0547 0.6503 0.7817
C5_2 C 0.11096(19) 0.8979(7) 0.75313(18)
H4_2 H 0.1119 0.9375 0.7284
C13_2 C 0.1052(2) 0.7834(8) 0.8257(2)
C14_2 C 0.1399(2) 0.9532(7) 0.7939(2)
H12_2 H 0.2556 0.9828 0.7951
C21_2 C 0.1364(2) 0.8953(8) 0.83015(19)
H15_2 H 0.1554 0.9328 0.8578
C25_2 C 0.05034(19) 0.7203(7) 0.7040(2)
O1_2 O 0.03003(13) 0.5929(4) 0.69979(12)
O2_2 O 0.04556(14) 0.7967(5) 0.67131(13)
C26_2 C 0.1012(3) 0.7305(8) 0.8658(2)
C27_2 C 0.0382(3) 0.1943(10) 0.6710(3)
H26_2 H 0.0560 0.2449 0.6590
H27_2 H 0.0524 0.2073 0.7020
H28_2 H 0.0364 0.0884 0.6642
H29_2 H 0.0051 0.0491 0.7077
C31_2 C 0.0379(3) 0.9871(11) 0.5749(3)
H36_2 H 0.0523 0.8898 0.5829
O6_2 O 0.13494(16) 0.7511(7) 0.90216(14)
O4_3 O 0.47666(14) 0.1284(6) 0.12491(14)
C27_3 C 0.5382(3) 0.3057(10) 0.1710(3)
H26_3 H 0.5560 0.2551 0.1590
H27_3 H 0.5524 0.2927 0.2020
H28_3 H 0.5364 0.4116 0.1642
C28_3 C 0.4875(5) 0.2353(11) 0.1504(3)
C29_3 C 0.4727(4) 0.4327(10) 0.1927(3)
H29_3 H 0.5051 0.4509 0.2077
H30_3 H 0.4614 0.4092 0.2135
H31 H 0.4575 0.5214 0.1766
C30_3 C 0.4133(4) 0.2262(14) 0.1477(5)
H32_3 H 0.3896 0.2987 0.1324
H33_3 H 0.4107 0.1909 0.1729
H34_3 H 0.4103 0.1424 0.1288
N3_3 N 0.4638(5) 0.3064(9) 0.1629(3)
Sm1 Sm 0.493377(11) 0.87809(4) 0.118359(10)
C2_3 C 0.58010(19) 0.7182(7) 0.24924(18)
C4_3 C 0.5760(2) 0.7751(7) 0.28478(19)
H3_3 H 0.5547 0.8497 0.2817
C5_3 C 0.61096(19) 0.6021(7) 0.25313(18)
H4_3 H 0.6119 0.5625 0.2284
C6 C 0.6826(2) 0.3843(8) 0.26568(19)
H5 H 0.6959 0.4676 0.2567
H6 H 0.6553 0.3510 0.2405
C7 C 0.7163(2) 0.2568(7) 0.28240(18)
C8 C 0.7635(2) 0.2889(7) 0.3038(2)
C9 C 0.7782(2) 0.0211(7) 0.31489(19)
C10 C 0.7004(2) 0.1043(7) 0.27876(19)
N1 N 0.67064(19) 0.4345(6) 0.29975(16)
H7 H 0.6836 0.3911 0.3248
C13_3 C 0.6052(2) 0.7166(8) 0.3257(2)
C14_3 C 0.6399(2) 0.5468(7) 0.2939(2)
C17 C 0.7947(2) 0.1665(7) 0.3206(2)
C20 C 0.7805(2) 0.4499(7) 0.3113(2)
H12_3 H 0.7556 0.5172 0.2951
H13 H 0.8040 0.4618 0.3019
H14 H 0.7928 0.4733 0.3419
C21_3 C 0.6364(2) 0.6047(8) 0.33015(19)
H15_3 H 0.6554 0.5672 0.3578
C23 C 0.6491(2) 0.0746(7) 0.2581(2)
H19 H 0.6386 0.0476 0.2280
H20 H 0.6334 0.1641 0.2600
C24 C 0.8459(2) 0.2021(8) 0.3449(2)
H22 H 0.8611 0.1236 0.3657
H23 H 0.8501 0.2970 0.3598
H24 H 0.8585 0.2080 0.3244
C25_3 C 0.55034(19) 0.7797(7) 0.2040(2)
O1_3 O 0.53003(13) 0.9071(4) 0.19979(12)
O2_3 O 0.54556(14) 0.7033(5) 0.17131(13)
C26_3 C 0.6012(3) 0.7695(8) 0.3658(2)
O5_3 O 0.47378(15) 0.6382(6) 0.08318(14)
C31_3 C 0.5379(3) 0.5129(11) 0.0749(3)
H35 H 0.5545 0.4413 0.0976
H36_3 H 0.5523 0.6102 0.0829
H37 H 0.5380 0.4802 0.0482
C32_3 C 0.4808(5) 0.5255(12) 0.0676(3)
C33 C 0.4758(4) 0.2886(9) 0.0309(3)
H38 H 0.5037 0.2903 0.0279
H39 H 0.4502 0.2772 0.0027
H40 H 0.4766 0.2053 0.0492
C34 C 0.4146(3) 0.4363(10) 0.0449(4)
H41_3 H 0.4125 0.5170 0.0626
H42 H 0.4071 0.3423 0.0541
H43 H 0.3936 0.4546 0.0149
O6_3 O 0.63494(16) 0.7489(7) 0.40216(14)
N4 N 0.4714(5) 0.4271(9) 0.0502(3)
O10_2 O 0.56481(15) 0.8252(5) 0.36111(13)
Sm2 Sm 0.506623(11) 0.87809(4) 0.381641(10)
O11_2 O 0.42816(14) 0.9301(4) 0.04989(12)
O12 O 0.52787(14) 0.9079(5) 0.06811(13)
O13 O 0.56635(14) 0.9975(5) 0.13360(13)
O14_2 O 0.43519(15) 0.8252(5) 0.13889(13)
C2_4 C 0.41990(19) 0.7182(7) 0.25076(18)
C4_4 C 0.4240(2) 0.7751(7) 0.21522(19)
H3_4 H 0.4453 0.8497 0.2183
C5_4 C 0.38904(19) 0.6021(7) 0.24687(18)
H4_4 H 0.3881 0.5625 0.2716
C6_2 C 0.3174(2) 0.3843(8) 0.23432(19)
H5_2 H 0.3041 0.4676 0.2433
H6_2 H 0.3447 0.3510 0.2595
C7_2 C 0.2837(2) 0.2568(7) 0.21760(18)
C8_2 C 0.2365(2) 0.2889(7) 0.1962(2)
C9_2 C 0.2218(2) 0.0211(7) 0.18511(19)
C10_2 C 0.2996(2) 0.1043(7) 0.22124(19)
N1_2 N 0.32936(19) 0.4345(6) 0.20025(16)
H7_2 H 0.3164 0.3911 0.1752
C13_4 C 0.3948(2) 0.7166(8) 0.1743(2)
C14_4 C 0.3601(2) 0.5468(7) 0.2061(2)
C17_2 C 0.2053(2) 0.1665(7) 0.1794(2)
C20_2 C 0.2195(2) 0.4499(7) 0.1887(2)
H12_4 H 0.2444 0.5172 0.2049
H13_2 H 0.1960 0.4618 0.1981
H14_2 H 0.2072 0.4733 0.1581
C21_4 C 0.3636(2) 0.6047(8) 0.16985(19)
H15_4 H 0.3446 0.5672 0.1422
C23_2 C 0.3509(2) 0.0746(7) 0.2419(2)
H19_2 H 0.3614 0.0476 0.2720
H20_2 H 0.3666 0.1641 0.2400
C24_2 C 0.1541(2) 0.2021(8) 0.1551(2)
H22_2 H 0.1389 0.1236 0.1343
H23_2 H 0.1499 0.2970 0.1402
H24_2 H 0.1415 0.2080 0.1756
C25_4 C 0.44966(19) 0.7797(7) 0.2960(2)
O1_4 O 0.46997(13) 0.9071(4) 0.30021(12)
O2_4 O 0.45444(14) 0.7033(5) 0.32869(13)
C26_4 C 0.3988(3) 0.7695(8) 0.1342(2)
O5_4 O 0.52622(15) 0.6382(6) 0.41682(14)
C31_4 C 0.4621(3) 0.5129(11) 0.4251(3)
H35_2 H 0.4455 0.4413 0.4024
H36_4 H 0.4477 0.6102 0.4171
H37_2 H 0.4620 0.4802 0.4518
C32_4 C 0.5192(5) 0.5255(12) 0.4324(3)
C33_2 C 0.5242(4) 0.2886(9) 0.4691(3)
H38_2 H 0.4963 0.2903 0.4721
H39_2 H 0.5498 0.2772 0.4973
H40_2 H 0.5234 0.2053 0.4508
C34_2 C 0.5854(3) 0.4363(10) 0.4551(4)
H41_4 H 0.5875 0.5170 0.4374
H42_2 H 0.5929 0.3423 0.4459
H43_2 H 0.6064 0.4546 0.4851
O6_4 O 0.36506(16) 0.7489(7) 0.09784(14)
N4_2 N 0.5286(5) 0.4271(9) 0.4498(3)
O11_3 O 0.57184(14) 0.9301(4) 0.45011(12)
O12_2 O 0.47213(14) 0.9079(5) 0.43189(13)
O13_2 O 0.43365(14) 0.9975(5) 0.36640(13)
C36_3 C 0.4408(2) 0.9885(7) 0.4053(2)
C36_4 C 0.5592(2) 0.9885(7) 0.0947(2)
C1_3 C 0.61057(18) 0.8520(7) 0.52365(17)
C3_3 C 0.6883(2) 0.6088(8) 0.66708(19)
H1_3 H 0.7000 0.6969 0.6856
H2_3 H 0.6592 0.5813 0.6663
C6_3 C 0.8174(2) 0.1157(8) 0.73432(19)
H5_3 H 0.8041 0.0324 0.7433
H6_3 H 0.8447 0.1490 0.7595
C7_3 C 0.7837(2) 0.2432(7) 0.71760(18)
C8_3 C 0.7365(2) 0.2111(7) 0.6962(2)
C9_3 C 0.7218(2) 0.4789(7) 0.68511(19)
C10_3 C 0.7996(2) 0.3957(7) 0.72124(19)
N1_3 N 0.82936(19) 0.0655(6) 0.70025(16)
H7_3 H 0.8164 0.1089 0.6752
C11_3 C 0.6499(2) 0.7426(8) 0.5960(2)
C12_3 C 0.6437(2) 0.7567(7) 0.5531(2)
H8_3 H 0.6621 0.7010 0.5441
N2_3 N 0.68234(19) 0.6427(7) 0.62374(17)
H9_3 H 0.6999 0.5982 0.6146
C15_3 C 0.5822(2) 0.9350(6) 0.53692(19)
H10_3 H 0.5591 0.9965 0.5172
C16_3 C 0.6223(2) 0.8296(6) 0.60887(19)
H11_3 H 0.6264 0.8239 0.6375
C17_3 C 0.7053(2) 0.3335(7) 0.6794(2)
C18_3 C 0.7683(2) 0.5098(7) 0.7047(2)
C19_3 C 0.6043(2) 0.8645(9) 0.47820(19)
C20_3 C 0.7195(2) 0.0501(7) 0.6887(2)
H13_3 H 0.6960 0.0382 0.6981
H14_3 H 0.7072 0.0267 0.6581
C22_3 C 0.7858(2) 0.6692(7) 0.7083(2)
H16_3 H 0.8136 0.6691 0.7051
H17_3 H 0.7632 0.7301 0.6858
H18_3 H 0.7918 0.7100 0.7363
C23_3 C 0.8509(2) 0.4254(7) 0.7419(2)
H19_3 H 0.8614 0.4524 0.7720
H20_3 H 0.8666 0.3359 0.7400
H21_3 H 0.8572 0.5067 0.7268
C24_3 C 0.6541(2) 0.2979(8) 0.6551(2)
H22_3 H 0.6389 0.3764 0.6343
H23_3 H 0.6499 0.2030 0.6402
H24_3 H 0.6415 0.2920 0.6756
O3_3 O 0.63567(15) 0.7939(6) 0.47193(13)
H25_3 H 0.6264 0.7776 0.4458
H35_3 H 0.9455 0.0587 0.9024
H37_3 H 0.9620 0.0198 0.9518
H38_3 H 0.9963 0.2097 0.9721
C35_3 C 0.5891(2) 0.9240(6) 0.57968(19)
C19_4 C 0.3957(2) 0.8645(9) 0.02180(19)
O3_4 O 0.36433(15) 0.7939(6) 0.02807(13)
H25_4 H 0.3736 0.7776 0.0542
C1_4 C 0.88943(18) 0.6480(7) 0.47635(17)
C3_4 C 0.8117(2) 0.8912(8) 0.33292(19)
H1_4 H 0.8000 0.8031 0.3144
H2_4 H 0.8408 0.9187 0.3337
C11_4 C 0.8501(2) 0.7574(8) 0.4040(2)
C12_4 C 0.8563(2) 0.7433(7) 0.4469(2)
H8_4 H 0.8379 0.7990 0.4559
N2_4 N 0.81766(19) 0.8573(7) 0.37626(17)
H9_4 H 0.8001 0.9018 0.3854
C15_4 C 0.9178(2) 0.5650(6) 0.46308(19)
H10_4 H 0.9409 0.5035 0.4828
C16_4 C 0.8777(2) 0.6704(6) 0.39113(19)
H11_4 H 0.8736 0.6761 0.3625
C18_4 C 0.7317(2) 0.9902(7) 0.2953(2)
C19_5 C 0.8957(2) 0.6355(9) 0.52180(19)
C22_4 C 0.7142(2) 0.8308(7) 0.2917(2)
H16_4 H 0.6864 0.8309 0.2949
H17_4 H 0.7368 0.7699 0.3142
H18_4 H 0.7082 0.7900 0.2637
H21_4 H 0.6428 0.9933 0.2732
O3_5 O 0.86433(15) 0.7061(6) 0.52807(13)
H25_5 H 0.8736 0.7224 0.5542
C35_4 C 0.9109(2) 0.5760(6) 0.42032(19)
O7_2 O 0.92816(14) 0.5699(4) 0.54989(12)
C36_5 C 0.9408(2) 0.4885(7) 0.4053(2)
O8_3 O 0.97213(14) 0.4079(5) 0.43189(13)
O9_3 O 0.93365(14) 0.4975(5) 0.36640(13)
Sm4_2 Sm 0.993377(11) 0.62191(4) 0.618359(10)
Sm3_2 Sm 0.993377(11) 0.37809(4) 0.118359(10)
O4_4 O 0.97666(14) 0.6284(6) 0.12491(14)
C28_4 C 0.9875(5) 0.7353(11) 0.1504(3)
C29_4 C 0.9727(4) 0.9327(10) 0.1927(3)
H30_4 H 0.9614 0.9092 0.2135
C30_4 C 0.9133(4) 0.7262(14) 0.1477(5)
H32_4 H 0.8896 0.7987 0.1324
H33_4 H 0.9107 0.6909 0.1729
H34_4 H 0.9103 0.6424 0.1288
O5_5 O 0.97378(15) 0.1382(6) 0.08318(14)
N3_4 N 0.9638(5) 0.8064(9) 0.1629(3)
C32_5 C 0.9808(5) 0.0255(12) 0.0676(3)
H41_5 H 0.9125 0.0170 0.0626
O11_4 O 0.92816(14) 0.4301(4) 0.04989(12)
O14_3 O 0.93519(15) 0.3252(5) 0.13889(13)
C2_5 C 0.91990(19) 0.2182(7) 0.25076(18)
C4_5 C 0.9240(2) 0.2751(7) 0.21522(19)
H3_5 H 0.9453 0.3497 0.2183
C5_5 C 0.88904(19) 0.1021(7) 0.24687(18)
H4_5 H 0.8881 0.0625 0.2716
C13_5 C 0.8948(2) 0.2166(8) 0.1743(2)
C14_5 C 0.8601(2) 0.0468(7) 0.2061(2)
H12_5 H 0.7444 0.0172 0.2049
C21_5 C 0.8636(2) 0.1047(8) 0.16985(19)
H15_5 H 0.8446 0.0672 0.1422
C25_5 C 0.94966(19) 0.2797(7) 0.2960(2)
O1_5 O 0.96997(13) 0.4071(4) 0.30021(12)
O2_5 O 0.95444(14) 0.2033(5) 0.32869(13)
C26_5 C 0.8988(3) 0.2695(8) 0.1342(2)
C27_4 C 0.9618(3) 0.8057(10) 0.3290(3)
H26_4 H 0.9440 0.7551 0.3410
H27_4 H 0.9476 0.7927 0.2980
H28_4 H 0.9636 0.9116 0.3358
H29_4 H 0.9949 0.9509 0.2923
C31_5 C 0.9621(3) 0.0129(11) 0.4251(3)
H36_5 H 0.9477 0.1102 0.4171
O6_5 O 0.86506(16) 0.2489(7) 0.09784(14)
C19_6 C 0.8957(2) 0.3645(9) 0.02180(19)
O3_6 O 0.86433(15) 0.2939(6) 0.02807(13)
H25_6 H 0.8736 0.2776 0.0542
C1_5 C 0.88943(18) 0.3520(7) 0.97635(17)
C3_5 C 0.8117(2) 0.1088(8) 0.83292(19)
H1_5 H 0.8000 0.1969 0.8144
H2_5 H 0.8408 0.0813 0.8337
C11_5 C 0.8501(2) 0.2426(8) 0.9040(2)
C12_5 C 0.8563(2) 0.2567(7) 0.9469(2)
H8_5 H 0.8379 0.2010 0.9559
N2_5 N 0.81766(19) 0.1427(7) 0.87626(17)
H9_5 H 0.8001 0.0982 0.8854
C15_5 C 0.9178(2) 0.4350(6) 0.96308(19)
H10_5 H 0.9409 0.4965 0.9828
C16_5 C 0.8777(2) 0.3296(6) 0.89113(19)
H11_5 H 0.8736 0.3239 0.8625
C18_5 C 0.7317(2) 0.0098(7) 0.7953(2)
C22_5 C 0.7142(2) 0.1692(7) 0.7917(2)
H16_5 H 0.6864 0.1691 0.7949
H17_5 H 0.7368 0.2301 0.8142
H18_5 H 0.7082 0.2100 0.7637
H21_5 H 0.6428 0.0067 0.7732
C35_5 C 0.9109(2) 0.4240(6) 0.92032(19)
C36_6 C 0.9408(2) 0.5115(7) 0.9053(2)
O8_4 O 0.97213(14) 0.5921(5) 0.93189(13)
O9_4 O 0.93365(14) 0.5025(5) 0.86640(13)
C2_6 C 0.91990(19) 0.7818(7) 0.75076(18)
C4_6 C 0.9240(2) 0.7249(7) 0.71522(19)
H3_6 H 0.9453 0.6503 0.7183
C5_6 C 0.88904(19) 0.8979(7) 0.74687(18)
H4_6 H 0.8881 0.9375 0.7716
C13_6 C 0.8948(2) 0.7834(8) 0.6743(2)
C14_6 C 0.8601(2) 0.9532(7) 0.7061(2)
H12_6 H 0.7444 0.9828 0.7049
C21_6 C 0.8636(2) 0.8953(8) 0.66985(19)
H15_6 H 0.8446 0.9328 0.6422
C25_6 C 0.94966(19) 0.7203(7) 0.7960(2)
O1_6 O 0.96997(13) 0.5929(4) 0.80021(12)
O2_6 O 0.95444(14) 0.7967(5) 0.82869(13)
C26_6 C 0.8988(3) 0.7305(8) 0.6342(2)
C27_5 C 0.9618(3) 0.1943(10) 0.8290(3)
H26_5 H 0.9440 0.2449 0.8410
H27_5 H 0.9476 0.2073 0.7980
H28_5 H 0.9636 0.0884 0.8358
H29_5 H 0.9949 0.0491 0.7923
C31_6 C 0.9621(3) 0.9871(11) 0.9251(3)
H36_6 H 0.9477 0.8898 0.9171
O6_6 O 0.86506(16) 0.7511(7) 0.59784(14)
O10_3 O 0.93519(15) 0.6748(5) 0.63889(13)
O4_5 O 0.97666(14) 0.3716(6) 0.62491(14)
C28_5 C 0.9875(5) 0.2647(11) 0.6504(3)
C29_5 C 0.9727(4) 0.0673(10) 0.6927(3)
H30_5 H 0.9614 0.0908 0.7135
C30_5 C 0.9133(4) 0.2738(14) 0.6477(5)
H32_5 H 0.8896 0.2013 0.6324
H33_5 H 0.9107 0.3091 0.6729
H34_5 H 0.9103 0.3576 0.6288
O5_6 O 0.97378(15) 0.8618(6) 0.58318(14)
N3_5 N 0.9638(5) 0.1936(9) 0.6629(3)
C32_6 C 0.9808(5) 0.9745(12) 0.5676(3)
H41_6 H 0.9125 0.9830 0.5626
O4_6 O 0.52334(14) 0.1284(6) 0.37509(14)
C27_6 C 0.4618(3) 0.3057(10) 0.3290(3)
H26_6 H 0.4440 0.2551 0.3410
H27_6 H 0.4476 0.2927 0.2980
H28_6 H 0.4636 0.4116 0.3358
C28_6 C 0.5125(5) 0.2353(11) 0.3496(3)
C29_6 C 0.5273(4) 0.4327(10) 0.3073(3)
H29_6 H 0.4949 0.4509 0.2923
H30_6 H 0.5386 0.4092 0.2865
H31_2 H 0.5425 0.5214 0.3234
C30_6 C 0.5867(4) 0.2262(14) 0.3523(5)
H32_6 H 0.6104 0.2987 0.3676
H33_6 H 0.5893 0.1909 0.3271
H34_6 H 0.5897 0.1424 0.3712
N3_6 N 0.5362(5) 0.3064(9) 0.3371(3)
C1_6 C 0.38943(18) 0.1480(7) 0.47635(17)
C3_6 C 0.3117(2) 0.3912(8) 0.33292(19)
H1_6 H 0.3000 0.3031 0.3144
H2_6 H 0.3408 0.4187 0.3337
C6_4 C 0.1826(2) 0.8843(8) 0.26568(19)
H5_4 H 0.1959 0.9676 0.2567
H6_4 H 0.1553 0.8510 0.2405
C7_4 C 0.2163(2) 0.7568(7) 0.28240(18)
C8_4 C 0.2635(2) 0.7889(7) 0.3038(2)
C9_4 C 0.2782(2) 0.5211(7) 0.31489(19)
C10_4 C 0.2004(2) 0.6043(7) 0.27876(19)
N1_4 N 0.17064(19) 0.9345(6) 0.29975(16)
H7_4 H 0.1836 0.8911 0.3248
C11_6 C 0.3501(2) 0.2574(8) 0.4040(2)
C12_6 C 0.3563(2) 0.2433(7) 0.4469(2)
H8_6 H 0.3379 0.2990 0.4559
N2_6 N 0.31766(19) 0.3573(7) 0.37626(17)
H9_6 H 0.3001 0.4018 0.3854
C15_6 C 0.4178(2) 0.0650(6) 0.46308(19)
H10_6 H 0.4409 0.0035 0.4828
C16_6 C 0.3777(2) 0.1704(6) 0.39113(19)
H11_6 H 0.3736 0.1761 0.3625
C17_4 C 0.2947(2) 0.6665(7) 0.3206(2)
C18_6 C 0.2317(2) 0.4902(7) 0.2953(2)
C19_7 C 0.3957(2) 0.1355(9) 0.52180(19)
C20_4 C 0.2805(2) 0.9499(7) 0.3113(2)
H13_4 H 0.3040 0.9618 0.3019
H14_4 H 0.2928 0.9733 0.3419
C22_6 C 0.2142(2) 0.3308(7) 0.2917(2)
H16_6 H 0.1864 0.3309 0.2949
H17_6 H 0.2368 0.2699 0.3142
H18_6 H 0.2082 0.2900 0.2637
C23_4 C 0.1491(2) 0.5746(7) 0.2581(2)
H19_4 H 0.1386 0.5476 0.2280
H20_4 H 0.1334 0.6641 0.2600
H21_6 H 0.1428 0.4933 0.2732
C24_4 C 0.3459(2) 0.7021(8) 0.3449(2)
H22_4 H 0.3611 0.6236 0.3657
H23_4 H 0.3501 0.7970 0.3598
H24_4 H 0.3585 0.7080 0.3244
O3_7 O 0.36433(15) 0.2061(6) 0.52807(13)
H25_7 H 0.3736 0.2224 0.5542
H35_4 H 0.0545 0.9413 0.0976
H37_4 H 0.0380 0.9802 0.0482
H38_4 H 0.0037 0.7903 0.0279
C35_6 C 0.4109(2) 0.0760(6) 0.42032(19)
O7_3 O 0.42816(14) 0.0699(4) 0.54989(12)
Sm4_3 Sm 0.493377(11) 0.12191(4) 0.618359(10)
C19_8 C 0.6043(2) 0.1355(9) 0.97820(19)
O3_8 O 0.63567(15) 0.2061(6) 0.97193(13)
H25_8 H 0.6264 0.2224 0.9458
O7_4 O 0.57184(14) 0.0699(4) 0.95011(12)
Sm4_4 Sm 0.506623(11) 0.12191(4) 0.881641(10)
C2_7 C 0.41990(19) 0.2818(7) 0.75076(18)
C4_7 C 0.4240(2) 0.2249(7) 0.71522(19)
H3_7 H 0.4453 0.1503 0.7183
C5_7 C 0.38904(19) 0.3979(7) 0.74687(18)
H4_7 H 0.3881 0.4375 0.7716
C6_5 C 0.3174(2) 0.6157(8) 0.73432(19)
H5_5 H 0.3041 0.5324 0.7433
H6_5 H 0.3447 0.6490 0.7595
C7_5 C 0.2837(2) 0.7432(7) 0.71760(18)
C8_5 C 0.2365(2) 0.7111(7) 0.6962(2)
C9_5 C 0.2218(2) 0.9789(7) 0.68511(19)
C10_5 C 0.2996(2) 0.8957(7) 0.72124(19)
N1_5 N 0.32936(19) 0.5655(6) 0.70025(16)
H7_5 H 0.3164 0.6089 0.6752
C13_7 C 0.3948(2) 0.2834(8) 0.6743(2)
C14_7 C 0.3601(2) 0.4532(7) 0.7061(2)
C17_5 C 0.2053(2) 0.8335(7) 0.6794(2)
C20_5 C 0.2195(2) 0.5501(7) 0.6887(2)
H12_7 H 0.2444 0.4828 0.7049
H13_5 H 0.1960 0.5382 0.6981
H14_5 H 0.2072 0.5267 0.6581
C21_7 C 0.3636(2) 0.3953(8) 0.66985(19)
H15_7 H 0.3446 0.4328 0.6422
C23_5 C 0.3509(2) 0.9254(7) 0.7419(2)
H19_5 H 0.3614 0.9524 0.7720
H20_5 H 0.3666 0.8359 0.7400
C24_5 C 0.1541(2) 0.7979(8) 0.6551(2)
H22_5 H 0.1389 0.8764 0.6343
H23_5 H 0.1499 0.7030 0.6402
H24_5 H 0.1415 0.7920 0.6756
C25_7 C 0.44966(19) 0.2203(7) 0.7960(2)
O1_7 O 0.46997(13) 0.0929(4) 0.80021(12)
O2_7 O 0.45444(14) 0.2967(5) 0.82869(13)
C26_7 C 0.3988(3) 0.2305(8) 0.6342(2)
O5_7 O 0.52622(15) 0.3618(6) 0.91682(14)
C31_7 C 0.4621(3) 0.4871(11) 0.9251(3)
H35_5 H 0.4455 0.5587 0.9024
H36_7 H 0.4477 0.3898 0.9171
H37_5 H 0.4620 0.5198 0.9518
C32_7 C 0.5192(5) 0.4745(12) 0.9324(3)
C33_3 C 0.5242(4) 0.7114(9) 0.9691(3)
H38_5 H 0.4963 0.7097 0.9721
H39_3 H 0.5498 0.7228 0.9973
H40_3 H 0.5234 0.7947 0.9508
C34_3 C 0.5854(3) 0.5637(10) 0.9551(4)
H41_7 H 0.5875 0.4830 0.9374
H42_3 H 0.5929 0.6577 0.9459
H43_3 H 0.6064 0.5454 0.9851
O6_7 O 0.36506(16) 0.2511(7) 0.59784(14)
N4_3 N 0.5286(5) 0.5729(9) 0.9498(3)
O10_4 O 0.43519(15) 0.1748(5) 0.63889(13)
O12_3 O 0.47213(14) 0.0921(5) 0.93189(13)
O13_3 O 0.43365(14) 0.0025(5) 0.86640(13)
O14_4 O 0.56481(15) 0.1748(5) 0.86111(13)
C2_8 C 0.58010(19) 0.2818(7) 0.74924(18)
C4_8 C 0.5760(2) 0.2249(7) 0.78478(19)
H3_8 H 0.5547 0.1503 0.7817
C5_8 C 0.61096(19) 0.3979(7) 0.75313(18)
H4_8 H 0.6119 0.4375 0.7284
C6_6 C 0.6826(2) 0.6157(8) 0.76568(19)
H5_6 H 0.6959 0.5324 0.7567
H6_6 H 0.6553 0.6490 0.7405
C7_6 C 0.7163(2) 0.7432(7) 0.78240(18)
C8_6 C 0.7635(2) 0.7111(7) 0.8038(2)
C9_6 C 0.7782(2) 0.9789(7) 0.81489(19)
C10_6 C 0.7004(2) 0.8957(7) 0.77876(19)
N1_6 N 0.67064(19) 0.5655(6) 0.79975(16)
H7_6 H 0.6836 0.6089 0.8248
C13_8 C 0.6052(2) 0.2834(8) 0.8257(2)
C14_8 C 0.6399(2) 0.4532(7) 0.7939(2)
C17_6 C 0.7947(2) 0.8335(7) 0.8206(2)
C20_6 C 0.7805(2) 0.5501(7) 0.8113(2)
H12_8 H 0.7556 0.4828 0.7951
H13_6 H 0.8040 0.5382 0.8019
H14_6 H 0.7928 0.5267 0.8419
C21_8 C 0.6364(2) 0.3953(8) 0.83015(19)
H15_8 H 0.6554 0.4328 0.8578
C23_6 C 0.6491(2) 0.9254(7) 0.7581(2)
H19_6 H 0.6386 0.9524 0.7280
H20_6 H 0.6334 0.8359 0.7600
C24_6 C 0.8459(2) 0.7979(8) 0.8449(2)
H22_6 H 0.8611 0.8764 0.8657
H23_6 H 0.8501 0.7030 0.8598
H24_6 H 0.8585 0.7920 0.8244
C25_8 C 0.55034(19) 0.2203(7) 0.7040(2)
O1_8 O 0.53003(13) 0.0929(4) 0.69979(12)
O2_8 O 0.54556(14) 0.2967(5) 0.67131(13)
C26_8 C 0.6012(3) 0.2305(8) 0.8658(2)
O5_8 O 0.47378(15) 0.3618(6) 0.58318(14)
C31_8 C 0.5379(3) 0.4871(11) 0.5749(3)
H35_6 H 0.5545 0.5587 0.5976
H36_8 H 0.5523 0.3898 0.5829
H37_6 H 0.5380 0.5198 0.5482
C32_8 C 0.4808(5) 0.4745(12) 0.5676(3)
C33_4 C 0.4758(4) 0.7114(9) 0.5309(3)
H38_6 H 0.5037 0.7097 0.5279
H39_4 H 0.4502 0.7228 0.5027
H40_4 H 0.4766 0.7947 0.5492
C34_4 C 0.4146(3) 0.5637(10) 0.5449(4)
H41_8 H 0.4125 0.4830 0.5626
H42_4 H 0.4071 0.6577 0.5541
H43_4 H 0.3936 0.5454 0.5149
O6_8 O 0.63494(16) 0.2511(7) 0.90216(14)
N4_4 N 0.4714(5) 0.5729(9) 0.5502(3)
O12_4 O 0.52787(14) 0.0921(5) 0.56811(13)
O13_4 O 0.56635(14) 0.0025(5) 0.63360(13)
C36_7 C 0.5592(2) 0.0115(7) 0.5947(2)
C36_8 C 0.4408(2) 0.0115(7) 0.9053(2)
H31_3 H 0.9575 0.0214 0.1766
C33_5 C 0.9758(4) 0.7886(9) 0.0309(3)
H39_5 H 0.9502 0.7772 0.0027
H40_5 H 0.9766 0.7053 0.0492
C34_5 C 0.9146(3) 0.9363(10) 0.0449(4)
H42_5 H 0.9071 0.8423 0.0541
H43_5 H 0.8936 0.9546 0.0149
N4_5 N 0.9714(5) 0.9271(9) 0.0502(3)
H31_4 H 0.0425 0.0214 0.3234
C33_6 C 0.0242(4) 0.7886(9) 0.4691(3)
H39_6 H 0.0498 0.7772 0.4973
H40_6 H 0.0234 0.7053 0.4508
C34_6 C 0.0854(3) 0.9363(10) 0.4551(4)
H42_6 H 0.0929 0.8423 0.4459
H43_6 H 0.1064 0.9546 0.4851
N4_6 N 0.0286(5) 0.9271(9) 0.4498(3)
C1_7 C 0.61057(18) 0.1480(7) 0.02365(17)
C3_7 C 0.6883(2) 0.3912(8) 0.16708(19)
H1_7 H 0.7000 0.3031 0.1856
H2_7 H 0.6592 0.4187 0.1663
C6_7 C 0.8174(2) 0.8843(8) 0.23432(19)
H5_7 H 0.8041 0.9676 0.2433
H6_7 H 0.8447 0.8510 0.2595
C7_7 C 0.7837(2) 0.7568(7) 0.21760(18)
C8_7 C 0.7365(2) 0.7889(7) 0.1962(2)
C9_7 C 0.7218(2) 0.5211(7) 0.18511(19)
C10_7 C 0.7996(2) 0.6043(7) 0.22124(19)
N1_7 N 0.82936(19) 0.9345(6) 0.20025(16)
H7_7 H 0.8164 0.8911 0.1752
C11_7 C 0.6499(2) 0.2574(8) 0.0960(2)
C12_7 C 0.6437(2) 0.2433(7) 0.0531(2)
H8_7 H 0.6621 0.2990 0.0441
N2_7 N 0.68234(19) 0.3573(7) 0.12374(17)
H9_7 H 0.6999 0.4018 0.1146
C15_7 C 0.5822(2) 0.0650(6) 0.03692(19)
H10_7 H 0.5591 0.0035 0.0172
C16_7 C 0.6223(2) 0.1704(6) 0.10887(19)
H11_7 H 0.6264 0.1761 0.1375
C17_7 C 0.7053(2) 0.6665(7) 0.1794(2)
C18_7 C 0.7683(2) 0.4902(7) 0.2047(2)
C20_7 C 0.7195(2) 0.9499(7) 0.1887(2)
H13_7 H 0.6960 0.9618 0.1981
H14_7 H 0.7072 0.9733 0.1581
C22_7 C 0.7858(2) 0.3308(7) 0.2083(2)
H16_7 H 0.8136 0.3309 0.2051
H17_7 H 0.7632 0.2699 0.1858
H18_7 H 0.7918 0.2900 0.2363
C23_7 C 0.8509(2) 0.5746(7) 0.2419(2)
H19_7 H 0.8614 0.5476 0.2720
H20_7 H 0.8666 0.6641 0.2400
H21_7 H 0.8572 0.4933 0.2268
C24_7 C 0.6541(2) 0.7021(8) 0.1551(2)
H22_7 H 0.6389 0.6236 0.1343
H23_7 H 0.6499 0.7970 0.1402
H24_7 H 0.6415 0.7080 0.1756
H35_7 H 0.9455 0.9413 0.4024
H37_7 H 0.9620 0.9802 0.4518
H38_7 H 0.9963 0.7903 0.4721
C35_7 C 0.5891(2) 0.0760(6) 0.07968(19)
O4_7 O 0.52334(14) 0.8716(6) 0.87509(14)
C27_7 C 0.4618(3) 0.6943(10) 0.8290(3)
H26_7 H 0.4440 0.7449 0.8410
H27_7 H 0.4476 0.7073 0.7980
H28_7 H 0.4636 0.5884 0.8358
C28_7 C 0.5125(5) 0.7647(11) 0.8496(3)
C29_7 C 0.5273(4) 0.5673(10) 0.8073(3)
H29_7 H 0.4949 0.5491 0.7923
H30_7 H 0.5386 0.5908 0.7865
H31_5 H 0.5425 0.4786 0.8234
C30_7 C 0.5867(4) 0.7738(14) 0.8523(5)
H32_7 H 0.6104 0.7013 0.8676
H33_7 H 0.5893 0.8091 0.8271
H34_7 H 0.5897 0.8576 0.8712
N3_7 N 0.5362(5) 0.6936(9) 0.8371(3)
O4_8 O 0.47666(14) 0.8716(6) 0.62491(14)
C27_8 C 0.5382(3) 0.6943(10) 0.6710(3)
H26_8 H 0.5560 0.7449 0.6590
H27_8 H 0.5524 0.7073 0.7020
H28_8 H 0.5364 0.5884 0.6642
C28_8 C 0.4875(5) 0.7647(11) 0.6504(3)
C29_8 C 0.4727(4) 0.5673(10) 0.6927(3)
H29_8 H 0.5051 0.5491 0.7077
H30_8 H 0.4614 0.5908 0.7135
H31_6 H 0.4575 0.4786 0.6766
C30_8 C 0.4133(4) 0.7738(14) 0.6477(5)
H32_8 H 0.3896 0.7013 0.6324
H33_8 H 0.4107 0.8091 0.6729
H34_8 H 0.4103 0.8576 0.6288
N3_8 N 0.4638(5) 0.6936(9) 0.6629(3)
C33_7 C 0.0242(4) 0.2114(9) 0.9691(3)
H39_7 H 0.0498 0.2228 0.9973
H40_7 H 0.0234 0.2947 0.9508
C34_7 C 0.0854(3) 0.0637(10) 0.9551(4)
H42_7 H 0.0929 0.1577 0.9459
H43_7 H 0.1064 0.0454 0.9851
N4_7 N 0.0286(5) 0.0729(9) 0.9498(3)
H31_7 H 0.0425 0.9786 0.8234
C1_8 C 0.38943(18) 0.8520(7) 0.97635(17)
C3_8 C 0.3117(2) 0.6088(8) 0.83292(19)
H1_8 H 0.3000 0.6969 0.8144
H2_8 H 0.3408 0.5813 0.8337
C6_8 C 0.1826(2) 0.1157(8) 0.76568(19)
H5_8 H 0.1959 0.0324 0.7567
H6_8 H 0.1553 0.1490 0.7405
C7_8 C 0.2163(2) 0.2432(7) 0.78240(18)
C8_8 C 0.2635(2) 0.2111(7) 0.8038(2)
C9_8 C 0.2782(2) 0.4789(7) 0.81489(19)
C10_8 C 0.2004(2) 0.3957(7) 0.77876(19)
N1_8 N 0.17064(19) 0.0655(6) 0.79975(16)
H7_8 H 0.1836 0.1089 0.8248
C11_8 C 0.3501(2) 0.7426(8) 0.9040(2)
C12_8 C 0.3563(2) 0.7567(7) 0.9469(2)
H8_8 H 0.3379 0.7010 0.9559
N2_8 N 0.31766(19) 0.6427(7) 0.87626(17)
H9_8 H 0.3001 0.5982 0.8854
C15_8 C 0.4178(2) 0.9350(6) 0.96308(19)
H10_8 H 0.4409 0.9965 0.9828
C16_8 C 0.3777(2) 0.8296(6) 0.89113(19)
H11_8 H 0.3736 0.8239 0.8625
C17_8 C 0.2947(2) 0.3335(7) 0.8206(2)
C18_8 C 0.2317(2) 0.5098(7) 0.7953(2)
C20_8 C 0.2805(2) 0.0501(7) 0.8113(2)
H13_8 H 0.3040 0.0382 0.8019
H14_8 H 0.2928 0.0267 0.8419
C22_8 C 0.2142(2) 0.6692(7) 0.7917(2)
H16_8 H 0.1864 0.6691 0.7949
H17_8 H 0.2368 0.7301 0.8142
H18_8 H 0.2082 0.7100 0.7637
C23_8 C 0.1491(2) 0.4254(7) 0.7581(2)
H19_8 H 0.1386 0.4524 0.7280
H20_8 H 0.1334 0.3359 0.7600
H21_8 H 0.1428 0.5067 0.7732
C24_8 C 0.3459(2) 0.2979(8) 0.8449(2)
H22_8 H 0.3611 0.3764 0.8657
H23_8 H 0.3501 0.2030 0.8598
H24_8 H 0.3585 0.2920 0.8244
H35_8 H 0.0545 0.0587 0.5976
H37_8 H 0.0380 0.0198 0.5482
H38_8 H 0.0037 0.2097 0.5279
C35_8 C 0.4109(2) 0.9240(6) 0.92032(19)
C33_8 C 0.9758(4) 0.2114(9) 0.5309(3)
H39_8 H 0.9502 0.2228 0.5027
H40_8 H 0.9766 0.2947 0.5492
C34_8 C 0.9146(3) 0.0637(10) 0.5449(4)
H42_8 H 0.9071 0.1577 0.5541
H43_8 H 0.8936 0.0454 0.5149
N4_8 N 0.9714(5) 0.0729(9) 0.5502(3)
H31_8 H 0.9575 0.9786 0.6766
loop_
_geom_bond_atom_site_label_1
_geom_bond_atom_site_label_2
_geom_bond_site_symmetry_1
_geom_bond_site_symmetry_2
C1 C12 1_555 1_555
C3 H1 1_555 1_555
H2 C3 1_555 1_555
C11 C12 1_555 1_555
C12 H8 1_555 1_555
N2 C3 1_555 1_555
H9 N2 1_555 1_555
C15 C1 1_555 1_555
H10 C15 1_555 1_555
C16 C11 1_555 1_555
H11 C16 1_555 1_555
C22 C18 1_555 1_555
H16 C22 1_555 1_555
H17 C22 1_555 1_555
H18 C22 1_555 1_555
C35 C15 1_555 1_555
C36 C35 1_555 1_555
O8 C36 1_555 1_555
O9 C36 1_555 1_555
C11 N2 1_555 1_555
C16 C35 1_555 1_555
O3 C19 1_555 1_555
H25 O3 1_555 1_555
O7 C19 1_555 1_555
Sm4 O7 1_555 1_555
C2 C4 1_555 1_555
C4 H3 1_555 1_555
C5 C2 1_555 1_555
H4 C5 1_555 1_555
C13 C4 1_555 1_555
C14 C5 1_555 1_555
C21 C13 1_555 1_555
H15 C21 1_555 1_555
C25 C2 1_555 1_555
O1 C25 1_555 1_555
C26 C13 1_555 1_555
C27 H26 1_555 1_555
H27 C27 1_555 1_555
H28 C27 1_555 1_555
H36 C31 1_555 1_555
O6 C26 1_555 1_555
O10 C26 1_555 1_555
Sm3 O10 1_555 1_555
C14 C21 1_555 1_555
C25 O2 1_555 1_555
O4 Sm3 1_555 1_555
C28 O4 1_555 1_555
H30 C29 1_555 1_555
C30 H32 1_555 1_555
H33 C30 1_555 1_555
H34 C30 1_555 1_555
O5 Sm3 1_555 1_555
N3 C28 1_555 1_555
C32 O5 1_555 1_555
O11 Sm3 1_555 1_555
C29 N3 1_555 1_555
C30 N3 1_555 1_555
C1_2 C12_2 1_555 1_555
C3_2 H1_2 1_555 1_555
H2_2 C3_2 1_555 1_555
C11_2 C12_2 1_555 1_555
C12_2 H8_2 1_555 1_555
N2_2 C3_2 1_555 1_555
H9_2 N2_2 1_555 1_555
C15_2 C1_2 1_555 1_555
H10_2 C15_2 1_555 1_555
C16_2 C11_2 1_555 1_555
H11_2 C16_2 1_555 1_555
C19_2 C1_2 1_555 1_555
C22_2 C18_2 1_555 1_555
H16_2 C22_2 1_555 1_555
H17_2 C22_2 1_555 1_555
H18_2 C22_2 1_555 1_555
O3_2 C19_2 1_555 1_555
H25_2 O3_2 1_555 1_555
C35_2 C15_2 1_555 1_555
O11 C19_2 1_555 1_555
C36_2 C35_2 1_555 1_555
O8_2 C36_2 1_555 1_555
O9_2 C36_2 1_555 1_555
C11_2 N2_2 1_555 1_555
C16_2 C35_2 1_555 1_555
O4_2 Sm4 1_555 1_555
C28_2 O4_2 1_555 1_555
H30_2 C29_2 1_555 1_555
C30_2 H32_2 1_555 1_555
H33_2 C30_2 1_555 1_555
H34_2 C30_2 1_555 1_555
O5_2 Sm4 1_555 1_555
N3_2 C28_2 1_555 1_555
C32_2 O5_2 1_555 1_555
O14 Sm4 1_555 1_555
C29_2 N3_2 1_555 1_555
C30_2 N3_2 1_555 1_555
C2_2 C4_2 1_555 1_555
C4_2 H3_2 1_555 1_555
C5_2 C2_2 1_555 1_555
H4_2 C5_2 1_555 1_555
C13_2 C4_2 1_555 1_555
C14_2 C5_2 1_555 1_555
C21_2 C13_2 1_555 1_555
H15_2 C21_2 1_555 1_555
C25_2 C2_2 1_555 1_555
O1_2 C25_2 1_555 1_555
C26_2 C13_2 1_555 1_555
C27_2 H26_2 1_555 1_555
H27_2 C27_2 1_555 1_555
H28_2 C27_2 1_555 1_555
H36_2 C31_2 1_555 1_555
O6_2 C26_2 1_555 1_555
O14 C26_2 1_555 1_555
C14_2 C21_2 1_555 1_555
C25_2 O2_2 1_555 1_555
C27_3 H26_3 1_555 1_555
H27_3 C27_3 1_555 1_555
H28_3 C27_3 1_555 1_555
C28_3 O4_3 1_555 1_555
C29_3 H29_3 1_555 1_555
H30_3 C29_3 1_555 1_555
H31 C29_3 1_555 1_555
C30_3 H32_3 1_555 1_555
H33_3 C30_3 1_555 1_555
H34_3 C30_3 1_555 1_555
N3_3 C28_3 1_555 1_555
C27_3 C28_3 1_555 1_555
C29_3 N3_3 1_555 1_555
C30_3 N3_3 1_555 1_555
Sm1 O1_3 1_555 1_555
C2_3 C4_3 1_555 1_555
C4_3 H3_3 1_555 1_555
C5_3 C2_3 1_555 1_555
H4_3 C5_3 1_555 1_555
C6 H5 1_555 1_555
H6 C6 1_555 1_555
C7 C6 1_555 1_555
C8 C7 1_555 1_555
C10 C7 1_555 1_555
N1 C6 1_555 1_555
H7 N1 1_555 1_555
C13_3 C4_3 1_555 1_555
C14_3 C5_3 1_555 1_555
C17 C8 1_555 1_555
C20 C8 1_555 1_555
H12_3 C20 1_555 1_555
H13 C20 1_555 1_555
H14 C20 1_555 1_555
C21_3 C13_3 1_555 1_555
H15_3 C21_3 1_555 1_555
C23 C10 1_555 1_555
H19 C23 1_555 1_555
H20 C23 1_555 1_555
C24 C17 1_555 1_555
H22 C24 1_555 1_555
H23 C24 1_555 1_555
H24 C24 1_555 1_555
C25_3 C2_3 1_555 1_555
O1_3 C25_3 1_555 1_555
O2_3 Sm1 1_555 1_555
C26_3 C13_3 1_555 1_555
O5_3 Sm1 1_555 1_555
C31_3 H35 1_555 1_555
H36_3 C31_3 1_555 1_555
H37 C31_3 1_555 1_555
C32_3 O5_3 1_555 1_555
C33 H38 1_555 1_555
H39 C33 1_555 1_555
H40 C33 1_555 1_555
C34 H41_3 1_555 1_555
H42 C34 1_555 1_555
H43 C34 1_555 1_555
O6_3 C26_3 1_555 1_555
N4 C32_3 1_555 1_555
O10_2 C26_3 1_555 1_555
Sm2 O10_2 1_555 1_555
O11_2 Sm1 1_555 1_555
O12 Sm1 1_555 1_555
O13 Sm1 1_555 1_555
O14_2 Sm1 1_555 1_555
C9 C17 1_555 1_555
N1 C14_3 1_555 1_555
C14_3 C21_3 1_555 1_555
C25_3 O2_3 1_555 1_555
C31_3 C32_3 1_555 1_555
C33 N4 1_555 1_555
C34 N4 1_555 1_555
Sm2 O1_4 1_555 1_555
C2_4 C4_4 1_555 1_555
C4_4 H3_4 1_555 1_555
C5_4 C2_4 1_555 1_555
H4_4 C5_4 1_555 1_555
C6_2 H5_2 1_555 1_555
H6_2 C6_2 1_555 1_555
C7_2 C6_2 1_555 1_555
C8_2 C7_2 1_555 1_555
C10_2 C7_2 1_555 1_555
N1_2 C6_2 1_555 1_555
H7_2 N1_2 1_555 1_555
C13_4 C4_4 1_555 1_555
C14_4 C5_4 1_555 1_555
C17_2 C8_2 1_555 1_555
C20_2 C8_2 1_555 1_555
H12_4 C20_2 1_555 1_555
H13_2 C20_2 1_555 1_555
H14_2 C20_2 1_555 1_555
C21_4 C13_4 1_555 1_555
H15_4 C21_4 1_555 1_555
C23_2 C10_2 1_555 1_555
H19_2 C23_2 1_555 1_555
H20_2 C23_2 1_555 1_555
C24_2 C17_2 1_555 1_555
H22_2 C24_2 1_555 1_555
H23_2 C24_2 1_555 1_555
H24_2 C24_2 1_555 1_555
C25_4 C2_4 1_555 1_555
O1_4 C25_4 1_555 1_555
O2_4 Sm2 1_555 1_555
C26_4 C13_4 1_555 1_555
O5_4 Sm2 1_555 1_555
C31_4 H35_2 1_555 1_555
H36_4 C31_4 1_555 1_555
H37_2 C31_4 1_555 1_555
C32_4 O5_4 1_555 1_555
C33_2 H38_2 1_555 1_555
H39_2 C33_2 1_555 1_555
H40_2 C33_2 1_555 1_555
C34_2 H41_4 1_555 1_555
H42_2 C34_2 1_555 1_555
H43_2 C34_2 1_555 1_555
O6_4 C26_4 1_555 1_555
N4_2 C32_4 1_555 1_555
O14_2 C26_4 1_555 1_555
O11_3 Sm2 1_555 1_555
O12_2 Sm2 1_555 1_555
O13_2 Sm2 1_555 1_555
C9_2 C17_2 1_555 1_555
N1_2 C14_4 1_555 1_555
C14_4 C21_4 1_555 1_555
C25_4 O2_4 1_555 1_555
C31_4 C32_4 1_555 1_555
C33_2 N4_2 1_555 1_555
C34_2 N4_2 1_555 1_555
O12_2 C36_3 1_555 1_555
O13_2 C36_3 1_555 1_555
O12 C36_4 1_555 1_555
O13 C36_4 1_555 1_555
C1_3 C12_3 1_555 1_555
C3_3 H1_3 1_555 1_555
H2_3 C3_3 1_555 1_555
C6_3 H5_3 1_555 1_555
H6_3 C6_3 1_555 1_555
C7_3 C6_3 1_555 1_555
C8_3 C7_3 1_555 1_555
C9_3 C3_3 1_555 1_555
C10_3 C7_3 1_555 1_555
N1_3 C6_3 1_555 1_555
H7_3 N1_3 1_555 1_555
C11_3 C12_3 1_555 1_555
C12_3 H8_3 1_555 1_555
N2_3 C3_3 1_555 1_555
H9_3 N2_3 1_555 1_555
C15_3 C1_3 1_555 1_555
H10_3 C15_3 1_555 1_555
C16_3 C11_3 1_555 1_555
H11_3 C16_3 1_555 1_555
C17_3 C8_3 1_555 1_555
C18_3 C9_3 1_555 1_555
C19_3 C1_3 1_555 1_555
C20_3 C8_3 1_555 1_555
H13_3 C20_3 1_555 1_555
H14_3 C20_3 1_555 1_555
C22_3 C18_3 1_555 1_555
H16_3 C22_3 1_555 1_555
H17_3 C22_3 1_555 1_555
H18_3 C22_3 1_555 1_555
C23_3 C10_3 1_555 1_555
H19_3 C23_3 1_555 1_555
H20_3 C23_3 1_555 1_555
H21_3 C23_3 1_555 1_555
C24_3 C17_3 1_555 1_555
H22_3 C24_3 1_555 1_555
H23_3 C24_3 1_555 1_555
H24_3 C24_3 1_555 1_555
O3_3 C19_3 1_555 1_555
H25_3 O3_3 1_555 1_555
C35_3 C15_3 1_555 1_555
O11_3 C19_3 1_555 1_555
C9_3 C17_3 1_555 1_555
C10_3 C18_3 1_555 1_555
C11_3 N2_3 1_555 1_555
C16_3 C35_3 1_555 1_555
O3_4 C19_4 1_555 1_555
H25_4 O3_4 1_555 1_555
O11_2 C19_4 1_555 1_555
C1_4 C12_4 1_555 1_555
C3_4 H1_4 1_555 1_555
H2_4 C3_4 1_555 1_555
C11_4 C12_4 1_555 1_555
C12_4 H8_4 1_555 1_555
N2_4 C3_4 1_555 1_555
H9_4 N2_4 1_555 1_555
C15_4 C1_4 1_555 1_555
H10_4 C15_4 1_555 1_555
C16_4 C11_4 1_555 1_555
H11_4 C16_4 1_555 1_555
C19_5 C1_4 1_555 1_555
C22_4 C18_4 1_555 1_555
H16_4 C22_4 1_555 1_555
H17_4 C22_4 1_555 1_555
H18_4 C22_4 1_555 1_555
O3_5 C19_5 1_555 1_555
H25_5 O3_5 1_555 1_555
C35_4 C15_4 1_555 1_555
O7_2 C19_5 1_555 1_555
C36_5 C35_4 1_555 1_555
O8_3 C36_5 1_555 1_555
O9_3 C36_5 1_555 1_555
Sm4_2 O7_2 1_555 1_555
C11_4 N2_4 1_555 1_555
C16_4 C35_4 1_555 1_555
O4_4 Sm3_2 1_555 1_555
C28_4 O4_4 1_555 1_555
H30_4 C29_4 1_555 1_555
C30_4 H32_4 1_555 1_555
H33_4 C30_4 1_555 1_555
H34_4 C30_4 1_555 1_555
O5_5 Sm3_2 1_555 1_555
N3_4 C28_4 1_555 1_555
C32_5 O5_5 1_555 1_555
O11_4 Sm3_2 1_555 1_555
O14_3 Sm3_2 1_555 1_555
C29_4 N3_4 1_555 1_555
C30_4 N3_4 1_555 1_555
C2_5 C4_5 1_555 1_555
C4_5 H3_5 1_555 1_555
C5_5 C2_5 1_555 1_555
H4_5 C5_5 1_555 1_555
C13_5 C4_5 1_555 1_555
C14_5 C5_5 1_555 1_555
C21_5 C13_5 1_555 1_555
H15_5 C21_5 1_555 1_555
C25_5 C2_5 1_555 1_555
O1_5 C25_5 1_555 1_555
C26_5 C13_5 1_555 1_555
C27_4 H26_4 1_555 1_555
H27_4 C27_4 1_555 1_555
H28_4 C27_4 1_555 1_555
H36_5 C31_5 1_555 1_555
O6_5 C26_5 1_555 1_555
O14_3 C26_5 1_555 1_555
C14_5 C21_5 1_555 1_555
C25_5 O2_5 1_555 1_555
O3_6 C19_6 1_555 1_555
H25_6 O3_6 1_555 1_555
O11_4 C19_6 1_555 1_555
C1_5 C12_5 1_555 1_555
C3_5 H1_5 1_555 1_555
H2_5 C3_5 1_555 1_555
C11_5 C12_5 1_555 1_555
C12_5 H8_5 1_555 1_555
N2_5 C3_5 1_555 1_555
H9_5 N2_5 1_555 1_555
C15_5 C1_5 1_555 1_555
H10_5 C15_5 1_555 1_555
C16_5 C11_5 1_555 1_555
H11_5 C16_5 1_555 1_555
C22_5 C18_5 1_555 1_555
H16_5 C22_5 1_555 1_555
H17_5 C22_5 1_555 1_555
H18_5 C22_5 1_555 1_555
C35_5 C15_5 1_555 1_555
C36_6 C35_5 1_555 1_555
O8_4 C36_6 1_555 1_555
O9_4 C36_6 1_555 1_555
C11_5 N2_5 1_555 1_555
C16_5 C35_5 1_555 1_555
C2_6 C4_6 1_555 1_555
C4_6 H3_6 1_555 1_555
C5_6 C2_6 1_555 1_555
H4_6 C5_6 1_555 1_555
C13_6 C4_6 1_555 1_555
C14_6 C5_6 1_555 1_555
C21_6 C13_6 1_555 1_555
H15_6 C21_6 1_555 1_555
C25_6 C2_6 1_555 1_555
O1_6 C25_6 1_555 1_555
C26_6 C13_6 1_555 1_555
C27_5 H26_5 1_555 1_555
H27_5 C27_5 1_555 1_555
H28_5 C27_5 1_555 1_555
H36_6 C31_6 1_555 1_555
O6_6 C26_6 1_555 1_555
O10_3 C26_6 1_555 1_555
Sm4_2 O10_3 1_555 1_555
C14_6 C21_6 1_555 1_555
C25_6 O2_6 1_555 1_555
O4_5 Sm4_2 1_555 1_555
C28_5 O4_5 1_555 1_555
H30_5 C29_5 1_555 1_555
C30_5 H32_5 1_555 1_555
H33_5 C30_5 1_555 1_555
H34_5 C30_5 1_555 1_555
O5_6 Sm4_2 1_555 1_555
N3_5 C28_5 1_555 1_555
C32_6 O5_6 1_555 1_555
C29_5 N3_5 1_555 1_555
C30_5 N3_5 1_555 1_555
C27_6 H26_6 1_555 1_555
H27_6 C27_6 1_555 1_555
H28_6 C27_6 1_555 1_555
C28_6 O4_6 1_555 1_555
C29_6 H29_6 1_555 1_555
H30_6 C29_6 1_555 1_555
H31_2 C29_6 1_555 1_555
C30_6 H32_6 1_555 1_555
H33_6 C30_6 1_555 1_555
H34_6 C30_6 1_555 1_555
N3_6 C28_6 1_555 1_555
C27_6 C28_6 1_555 1_555
C29_6 N3_6 1_555 1_555
C30_6 N3_6 1_555 1_555
C1_6 C12_6 1_555 1_555
C3_6 H1_6 1_555 1_555
H2_6 C3_6 1_555 1_555
C6_4 H5_4 1_555 1_555
H6_4 C6_4 1_555 1_555
C7_4 C6_4 1_555 1_555
C8_4 C7_4 1_555 1_555
C9_4 C3_6 1_555 1_555
C10_4 C7_4 1_555 1_555
N1_4 C6_4 1_555 1_555
H7_4 N1_4 1_555 1_555
C11_6 C12_6 1_555 1_555
C12_6 H8_6 1_555 1_555
N2_6 C3_6 1_555 1_555
H9_6 N2_6 1_555 1_555
C15_6 C1_6 1_555 1_555
H10_6 C15_6 1_555 1_555
C16_6 C11_6 1_555 1_555
H11_6 C16_6 1_555 1_555
C17_4 C8_4 1_555 1_555
C18_6 C9_4 1_555 1_555
C19_7 C1_6 1_555 1_555
C20_4 C8_4 1_555 1_555
H13_4 C20_4 1_555 1_555
H14_4 C20_4 1_555 1_555
C22_6 C18_6 1_555 1_555
H16_6 C22_6 1_555 1_555
H17_6 C22_6 1_555 1_555
H18_6 C22_6 1_555 1_555
C23_4 C10_4 1_555 1_555
H19_4 C23_4 1_555 1_555
H20_4 C23_4 1_555 1_555
H21_6 C23_4 1_555 1_555
C24_4 C17_4 1_555 1_555
H22_4 C24_4 1_555 1_555
H23_4 C24_4 1_555 1_555
H24_4 C24_4 1_555 1_555
O3_7 C19_7 1_555 1_555
H25_7 O3_7 1_555 1_555
C35_6 C15_6 1_555 1_555
O7_3 C19_7 1_555 1_555
Sm4_3 O7_3 1_555 1_555
C9_4 C17_4 1_555 1_555
C10_4 C18_6 1_555 1_555
C11_6 N2_6 1_555 1_555
C16_6 C35_6 1_555 1_555
O3_8 C19_8 1_555 1_555
H25_8 O3_8 1_555 1_555
O7_4 C19_8 1_555 1_555
Sm4_4 O7_4 1_555 1_555
Sm4_4 O1_7 1_555 1_555
C2_7 C4_7 1_555 1_555
C4_7 H3_7 1_555 1_555
C5_7 C2_7 1_555 1_555
H4_7 C5_7 1_555 1_555
C6_5 H5_5 1_555 1_555
H6_5 C6_5 1_555 1_555
C7_5 C6_5 1_555 1_555
C8_5 C7_5 1_555 1_555
C10_5 C7_5 1_555 1_555
N1_5 C6_5 1_555 1_555
H7_5 N1_5 1_555 1_555
C13_7 C4_7 1_555 1_555
C14_7 C5_7 1_555 1_555
C17_5 C8_5 1_555 1_555
C20_5 C8_5 1_555 1_555
H12_7 C20_5 1_555 1_555
H13_5 C20_5 1_555 1_555
H14_5 C20_5 1_555 1_555
C21_7 C13_7 1_555 1_555
H15_7 C21_7 1_555 1_555
C23_5 C10_5 1_555 1_555
H19_5 C23_5 1_555 1_555
H20_5 C23_5 1_555 1_555
C24_5 C17_5 1_555 1_555
H22_5 C24_5 1_555 1_555
H23_5 C24_5 1_555 1_555
H24_5 C24_5 1_555 1_555
C25_7 C2_7 1_555 1_555
O1_7 C25_7 1_555 1_555
O2_7 Sm4_4 1_555 1_555
C26_7 C13_7 1_555 1_555
O5_7 Sm4_4 1_555 1_555
C31_7 H35_5 1_555 1_555
H36_7 C31_7 1_555 1_555
H37_5 C31_7 1_555 1_555
C32_7 O5_7 1_555 1_555
C33_3 H38_5 1_555 1_555
H39_3 C33_3 1_555 1_555
H40_3 C33_3 1_555 1_555
C34_3 H41_7 1_555 1_555
H42_3 C34_3 1_555 1_555
H43_3 C34_3 1_555 1_555
O6_7 C26_7 1_555 1_555
N4_3 C32_7 1_555 1_555
O10_4 C26_7 1_555 1_555
Sm4_3 O10_4 1_555 1_555
O12_3 Sm4_4 1_555 1_555
O13_3 Sm4_4 1_555 1_555
O14_4 Sm4_4 1_555 1_555
C9_5 C17_5 1_555 1_555
N1_5 C14_7 1_555 1_555
C14_7 C21_7 1_555 1_555
C25_7 O2_7 1_555 1_555
C31_7 C32_7 1_555 1_555
C33_3 N4_3 1_555 1_555
C34_3 N4_3 1_555 1_555
Sm4_3 O1_8 1_555 1_555
C2_8 C4_8 1_555 1_555
C4_8 H3_8 1_555 1_555
C5_8 C2_8 1_555 1_555
H4_8 C5_8 1_555 1_555
C6_6 H5_6 1_555 1_555
H6_6 C6_6 1_555 1_555
C7_6 C6_6 1_555 1_555
C8_6 C7_6 1_555 1_555
C10_6 C7_6 1_555 1_555
N1_6 C6_6 1_555 1_555
H7_6 N1_6 1_555 1_555
C13_8 C4_8 1_555 1_555
C14_8 C5_8 1_555 1_555
C17_6 C8_6 1_555 1_555
C20_6 C8_6 1_555 1_555
H12_8 C20_6 1_555 1_555
H13_6 C20_6 1_555 1_555
H14_6 C20_6 1_555 1_555
C21_8 C13_8 1_555 1_555
H15_8 C21_8 1_555 1_555
C23_6 C10_6 1_555 1_555
H19_6 C23_6 1_555 1_555
H20_6 C23_6 1_555 1_555
C24_6 C17_6 1_555 1_555
H22_6 C24_6 1_555 1_555
H23_6 C24_6 1_555 1_555
H24_6 C24_6 1_555 1_555
C25_8 C2_8 1_555 1_555
O1_8 C25_8 1_555 1_555
O2_8 Sm4_3 1_555 1_555
C26_8 C13_8 1_555 1_555
O5_8 Sm4_3 1_555 1_555
C31_8 H35_6 1_555 1_555
H36_8 C31_8 1_555 1_555
H37_6 C31_8 1_555 1_555
C32_8 O5_8 1_555 1_555
C33_4 H38_6 1_555 1_555
H39_4 C33_4 1_555 1_555
H40_4 C33_4 1_555 1_555
C34_4 H41_8 1_555 1_555
H42_4 C34_4 1_555 1_555
H43_4 C34_4 1_555 1_555
O6_8 C26_8 1_555 1_555
N4_4 C32_8 1_555 1_555
O14_4 C26_8 1_555 1_555
O12_4 Sm4_3 1_555 1_555
O13_4 Sm4_3 1_555 1_555
C9_6 C17_6 1_555 1_555
N1_6 C14_8 1_555 1_555
C14_8 C21_8 1_555 1_555
C25_8 O2_8 1_555 1_555
C31_8 C32_8 1_555 1_555
C33_4 N4_4 1_555 1_555
C34_4 N4_4 1_555 1_555
O12_4 C36_7 1_555 1_555
O13_4 C36_7 1_555 1_555
O12_3 C36_8 1_555 1_555
O13_3 C36_8 1_555 1_555
H39_5 C33_5 1_555 1_555
H40_5 C33_5 1_555 1_555
H42_5 C34_5 1_555 1_555
H43_5 C34_5 1_555 1_555
C33_5 N4_5 1_555 1_555
C34_5 N4_5 1_555 1_555
H39_6 C33_6 1_555 1_555
H40_6 C33_6 1_555 1_555
H42_6 C34_6 1_555 1_555
H43_6 C34_6 1_555 1_555
C33_6 N4_6 1_555 1_555
C34_6 N4_6 1_555 1_555
C1_7 C12_7 1_555 1_555
C3_7 H1_7 1_555 1_555
H2_7 C3_7 1_555 1_555
C6_7 H5_7 1_555 1_555
H6_7 C6_7 1_555 1_555
C7_7 C6_7 1_555 1_555
C8_7 C7_7 1_555 1_555
C9_7 C3_7 1_555 1_555
C10_7 C7_7 1_555 1_555
N1_7 C6_7 1_555 1_555
H7_7 N1_7 1_555 1_555
C11_7 C12_7 1_555 1_555
C12_7 H8_7 1_555 1_555
N2_7 C3_7 1_555 1_555
H9_7 N2_7 1_555 1_555
C15_7 C1_7 1_555 1_555
H10_7 C15_7 1_555 1_555
C16_7 C11_7 1_555 1_555
H11_7 C16_7 1_555 1_555
C17_7 C8_7 1_555 1_555
C18_7 C9_7 1_555 1_555
C20_7 C8_7 1_555 1_555
H13_7 C20_7 1_555 1_555
H14_7 C20_7 1_555 1_555
C22_7 C18_7 1_555 1_555
H16_7 C22_7 1_555 1_555
H17_7 C22_7 1_555 1_555
H18_7 C22_7 1_555 1_555
C23_7 C10_7 1_555 1_555
H19_7 C23_7 1_555 1_555
H20_7 C23_7 1_555 1_555
H21_7 C23_7 1_555 1_555
C24_7 C17_7 1_555 1_555
H22_7 C24_7 1_555 1_555
H23_7 C24_7 1_555 1_555
H24_7 C24_7 1_555 1_555
C35_7 C15_7 1_555 1_555
C9_7 C17_7 1_555 1_555
C10_7 C18_7 1_555 1_555
C11_7 N2_7 1_555 1_555
C16_7 C35_7 1_555 1_555
C27_7 H26_7 1_555 1_555
H27_7 C27_7 1_555 1_555
H28_7 C27_7 1_555 1_555
C28_7 O4_7 1_555 1_555
C29_7 H29_7 1_555 1_555
H30_7 C29_7 1_555 1_555
H31_5 C29_7 1_555 1_555
C30_7 H32_7 1_555 1_555
H33_7 C30_7 1_555 1_555
H34_7 C30_7 1_555 1_555
N3_7 C28_7 1_555 1_555
C27_7 C28_7 1_555 1_555
C29_7 N3_7 1_555 1_555
C30_7 N3_7 1_555 1_555
C27_8 H26_8 1_555 1_555
H27_8 C27_8 1_555 1_555
H28_8 C27_8 1_555 1_555
C28_8 O4_8 1_555 1_555
C29_8 H29_8 1_555 1_555
H30_8 C29_8 1_555 1_555
H31_6 C29_8 1_555 1_555
C30_8 H32_8 1_555 1_555
H33_8 C30_8 1_555 1_555
H34_8 C30_8 1_555 1_555
N3_8 C28_8 1_555 1_555
C27_8 C28_8 1_555 1_555
C29_8 N3_8 1_555 1_555
C30_8 N3_8 1_555 1_555
H39_7 C33_7 1_555 1_555
H40_7 C33_7 1_555 1_555
H42_7 C34_7 1_555 1_555
H43_7 C34_7 1_555 1_555
C33_7 N4_7 1_555 1_555
C34_7 N4_7 1_555 1_555
C1_8 C12_8 1_555 1_555
C3_8 H1_8 1_555 1_555
H2_8 C3_8 1_555 1_555
C6_8 H5_8 1_555 1_555
H6_8 C6_8 1_555 1_555
C7_8 C6_8 1_555 1_555
C8_8 C7_8 1_555 1_555
C9_8 C3_8 1_555 1_555
C10_8 C7_8 1_555 1_555
N1_8 C6_8 1_555 1_555
H7_8 N1_8 1_555 1_555
C11_8 C12_8 1_555 1_555
C12_8 H8_8 1_555 1_555
N2_8 C3_8 1_555 1_555
H9_8 N2_8 1_555 1_555
C15_8 C1_8 1_555 1_555
H10_8 C15_8 1_555 1_555
C16_8 C11_8 1_555 1_555
H11_8 C16_8 1_555 1_555
C17_8 C8_8 1_555 1_555
C18_8 C9_8 1_555 1_555
C20_8 C8_8 1_555 1_555
H13_8 C20_8 1_555 1_555
H14_8 C20_8 1_555 1_555
C22_8 C18_8 1_555 1_555
H16_8 C22_8 1_555 1_555
H17_8 C22_8 1_555 1_555
H18_8 C22_8 1_555 1_555
C23_8 C10_8 1_555 1_555
H19_8 C23_8 1_555 1_555
H20_8 C23_8 1_555 1_555
H21_8 C23_8 1_555 1_555
C24_8 C17_8 1_555 1_555
H22_8 C24_8 1_555 1_555
H23_8 C24_8 1_555 1_555
H24_8 C24_8 1_555 1_555
C35_8 C15_8 1_555 1_555
C9_8 C17_8 1_555 1_555
C10_8 C18_8 1_555 1_555
C11_8 N2_8 1_555 1_555
C16_8 C35_8 1_555 1_555
H39_8 C33_8 1_555 1_555
H40_8 C33_8 1_555 1_555
H42_8 C34_8 1_555 1_555
H43_8 C34_8 1_555 1_555
C33_8 N4_8 1_555 1_555
C34_8 N4_8 1_555 1_555

#END
