
###############################################################################
#
# This file contains modified crystal structure data generated from the
# MOF subset of the Cambridge Structural Database (CSD) v543 
# hosted by the Cambridge Crystallographic Data Centre (CCDC).
#
# This work is licensed under the Creative Commons
# Attribution-NonCommercial-ShareAlike 4.0 International License.
# To view a copy of this license, visit
# http://creativecommons.org/licenses/by-nc-sa/4.0/
# or send a letter to
# Creative Commons, PO Box 1866, Mountain View, CA 94042, USA.
#
# CIF created using the CSD Python API on 29 September 2022
# The structure has been converted into the P1 space group
# The structure has a 3D framework
# The original CSD entry GUFBOA is in the triclinic crystal system
# The framework has been calculated to contain at least 10.0% void space
# The void calculation uses a probe of radius 1.32A, grid spacing 0.4
#
###############################################################################

data_GUFBOA
_chemical_formula_moiety         '(C80 H52 Cd2 N2 O18 S8)n'
_symmetry_cell_setting           triclinic
_symmetry_space_group_name_H-M   'P 1'
_symmetry_Int_Tables_number      1
_space_group_name_Hall           'P 1'
loop_
_symmetry_equiv_pos_site_id
_symmetry_equiv_pos_as_xyz
1 x,y,z
_cell_length_a                   9.005(3)
_cell_length_b                   12.573(4)
_cell_length_c                   19.675(7)
_cell_angle_alpha                82.313(5)
_cell_angle_beta                 79.259(6)
_cell_angle_gamma                86.749(5)
_cell_volume                     2167.75
loop_
_atom_site_label
_atom_site_type_symbol
_atom_site_fract_x
_atom_site_fract_y
_atom_site_fract_z
_atom_site_U_iso_or_equiv
_atom_site_thermal_displace_type
H5 H 0.0388 0.1539 0.7277 0.0570 Uiso
C12 C 0.0126(8) 0.2893(5) 0.7730(4) 0.0503 Uani
H6 H 0.0817 0.2704 0.8026 0.0600 Uiso
O4 O 0.0450(6) 0.4356(4) 0.8653(2) 0.0577 Uani
H1 H 0.0257 0.7766 0.7730 0.0520 Uiso
H2 H 0.0167 0.8893 0.6730 0.0540 Uiso
C6 C 0.7662(8) 0.0134(5) 0.7747(3) 0.0481 Uani
H3 H 0.7001 0.0730 0.7753 0.0580 Uiso
C8 C 0.8508(8) 0.0645(5) 0.6480(3) 0.0406 Uani
C9 C 0.8504(8) 0.1723(5) 0.6380(3) 0.0419 Uani
C10 C 0.9714(8) 0.4624(5) 0.8212(3) 0.0433 Uani
C11 C 0.9859(8) 0.2196(5) 0.7286(3) 0.0475 Uani
C13 C 0.9351(8) 0.3882(5) 0.7730(3) 0.0428 Uani
C14 C 0.8339(8) 0.4156(5) 0.7297(4) 0.0511 Uani
H7 H 0.7838 0.4824 0.7297 0.0610 Uiso
C15 C 0.8049(8) 0.3466(5) 0.6864(4) 0.0526 Uani
H8 H 0.7343 0.3660 0.6576 0.0630 Uiso
C16 C 0.8810(8) 0.2464(5) 0.6852(3) 0.0428 Uani
C17 C 0.7810(9) 0.1143(5) 0.5258(4) 0.0531 Uani
C18 C 0.7360(9) 0.1115(5) 0.4665(3) 0.0491 Uani
C19 C 0.6513(8) 0.0565(5) 0.3564(3) 0.0407 Uani
C25 C 0.6866(8) 0.0018(5) 0.2376(3) 0.0430 Uani
H12 H 0.7311 0.0668 0.2192 0.0520 Uiso
C26 C 0.6431(8) 0.1648(5) 0.3471(3) 0.0419 Uani
C27 C 0.6029(7) 0.2361(4) 0.2880(3) 0.0370 Uani
C28 C 0.4792(8) 0.2164(5) 0.2587(4) 0.0520 Uani
H13 H 0.4222 0.1563 0.2766 0.0620 Uiso
C29 C 0.4403(8) 0.2849(5) 0.2034(4) 0.0475 Uani
H14 H 0.3589 0.2696 0.1838 0.0570 Uiso
C30 C 0.5210(7) 0.3755(4) 0.1770(3) 0.0366 Uani
C31 C 0.6412(7) 0.3970(5) 0.2071(3) 0.0406 Uani
H15 H 0.6953 0.4589 0.1904 0.0490 Uiso
C32 C 0.6823(8) 0.3271(5) 0.2620(3) 0.0479 Uani
H16 H 0.7643 0.3422 0.2812 0.0570 Uiso
C33 C 0.4808(7) 0.4487(4) 0.1173(3) 0.0331 Uani
O3 O 0.9133(6) 0.5599(4) 0.8079(3) 0.0673 Uani
H23 H 0.9367 0.5985 0.8364 0.1000 Uiso
O7 O 0.4113(5) 0.4161(4) 0.0766(2) 0.0495 Uani
O8 O 0.5231(5) 0.5449(3) 0.1101(2) 0.0429 Uani
S1 S 0.6972(3) 0.22899(13) 0.41216(10) 0.0646 Uani
S4 S 0.8160(3) 0.23345(13) 0.55584(9) 0.0635 Uani
Cd5 Cd 0.62347(5) 0.65929(3) 0.01739(2) 0.0349 Uani
H19 H 0.2916 0.0014 0.9929 0.0660 Uiso
C46 C 0.0014(8) 0.0455(6) 0.9734(5) 0.0675 Uani
H31 H 0.0860 0.0892 0.9746 0.0810 Uiso
H32 H 0.0177 0.0200 0.9282 0.0810 Uiso
Cd8 Cd 0.37653(5) 0.34071(3) 0.98261(2) 0.0349 Uani
C1 C 0.8512(7) 0.7736(4) 0.8996(3) 0.0320 Uani
C2 C 0.8634(7) 0.8537(4) 0.8356(3) 0.0331 Uani
C3 C 0.9587(8) 0.8357(5) 0.7737(3) 0.0434 Uani
C4 C 0.9544(8) 0.9041(5) 0.7142(3) 0.0457 Uani
C5 C 0.8602(7) 0.9948(5) 0.7133(3) 0.0365 Uani
C7 C 0.7690(8) 0.9447(5) 0.8351(3) 0.0446 Uani
H4 H 0.7066 0.9596 0.8762 0.0530 Uiso
C20 C 0.6317(8) 0.9817(5) 0.3078(3) 0.0388 Uani
C21 C 0.5660(8) 0.8839(5) 0.3340(3) 0.0464 Uani
H9 H 0.5299 0.8688 0.3816 0.0560 Uiso
C22 C 0.5535(8) 0.8090(5) 0.2906(3) 0.0487 Uani
H10 H 0.5067 0.7446 0.3086 0.0590 Uiso
C23 C 0.6108(7) 0.8300(5) 0.2200(3) 0.0383 Uani
C24 C 0.6762(7) 0.9268(5) 0.1944(3) 0.0399 Uani
H11 H 0.7142 0.9415 0.1470 0.0480 Uiso
C34 C 0.6016(7) 0.7498(5) 0.1722(3) 0.0374 Uani
C35 C 0.2695(8) 0.7144(5) 0.0264(4) 0.0594 Uani
H17 H 0.2647 0.6400 0.0337 0.0710 Uiso
C36 C 0.1364(9) 0.7734(6) 0.0294(5) 0.0717 Uani
H18 H 0.0441 0.7399 0.0385 0.0860 Uiso
C37 C 0.1429(8) 0.8849(5) 0.0183(4) 0.0510 Uani
C38 C 0.2826(8) 0.9273(5) 0.0029(4) 0.0546 Uani
C39 C 0.4109(8) 0.8619(5) 0.0019(4) 0.0535 Uani
N1 N 0.4045(6) 0.7567(4) 0.0139(3) 0.0407 Uani
O1 O 0.9380(5) 0.6896(3) 0.8972(2) 0.0432 Uani
O2 O 0.7600(5) 0.7938(3) 0.9527(2) 0.0401 Uani
O5 O 0.5452(7) 0.6594(4) 0.2035(2) 0.0651 Uani
H24 H 0.4613 0.6536 0.1941 0.0980 Uiso
O6 O 0.6489(5) 0.7656(3) 0.1097(2) 0.0472 Uani
O9 O 0.8374(5) 0.5553(3) 0.0162(2) 0.0440 Uani
H26 H 0.8716 0.5547 0.0596 0.0660 Uiso
S2 S 0.7081(3) 0.99426(13) 0.43336(9) 0.0605 Uani
S3 S 0.8210(3) 0.99833(13) 0.57984(9) 0.0591 Uani
H20 H 0.5050 0.8932 0.9924 0.0640 Uiso
H25 H 0.9141 0.5840 0.9785 0.0660 Uiso
O22 O 0.5887(5) 0.5839(4) 0.9234(2) 0.0495 Uani
H30 H 0.4950 0.1068 0.0076 0.0640 Uiso
H51 H 0.0859 0.4160 0.0215 0.0660 Uiso
O20 O 0.2400(5) 0.2062(3) 0.0473(2) 0.0401 Uani
C41 C 0.7305(8) 0.2856(5) 0.9736(4) 0.0594 Uani
H27 H 0.7353 0.3600 0.9663 0.0710 Uiso
C42 C 0.8636(9) 0.2266(6) 0.9706(5) 0.0717 Uani
H28 H 0.9559 0.2601 0.9615 0.0860 Uiso
C43 C 0.8571(8) 0.1151(5) 0.9817(4) 0.0510 Uani
C44 C 0.7174(8) 0.0727(5) 0.9971(4) 0.0546 Uani
C45 C 0.5891(8) 0.1381(5) 0.9981(4) 0.0535 Uani
N2 N 0.5955(6) 0.2433(4) 0.9861(3) 0.0407 Uani
C47 C 0.1488(7) 0.2264(4) 0.1004(3) 0.0320 Uani
C48 C 0.1366(7) 0.1463(4) 0.1644(3) 0.0331 Uani
C49 C 0.0413(8) 0.1643(5) 0.2263(3) 0.0434 Uani
C50 C 0.0456(8) 0.0959(5) 0.2858(3) 0.0457 Uani
C51 C 0.1398(7) 0.0052(5) 0.2867(3) 0.0365 Uani
C53 C 0.2310(8) 0.0553(5) 0.1649(3) 0.0446 Uani
H36 H 0.2934 0.0404 0.1238 0.0530 Uiso
C66 C 0.3683(8) 0.0183(5) 0.6922(3) 0.0388 Uani
C67 C 0.4340(8) 0.1161(5) 0.6660(3) 0.0464 Uani
H41 H 0.4701 0.1312 0.6184 0.0560 Uiso
C68 C 0.4465(8) 0.1910(5) 0.7094(3) 0.0487 Uani
H42 H 0.4933 0.2554 0.6914 0.0590 Uiso
C69 C 0.3892(7) 0.1700(5) 0.7800(3) 0.0383 Uani
C70 C 0.3238(7) 0.0732(5) 0.8056(3) 0.0399 Uani
H43 H 0.2858 0.0585 0.8530 0.0480 Uiso
C80 C 0.3984(7) 0.2502(5) 0.8278(3) 0.0374 Uani
O10 O 0.0620(5) 0.3104(3) 0.1028(2) 0.0432 Uani
O14 O 0.4548(7) 0.3406(4) 0.7965(2) 0.0651 Uani
H50 H 0.5387 0.3464 0.8059 0.0980 Uiso
O15 O 0.3511(5) 0.2344(3) 0.8903(2) 0.0472 Uani
O18 O 0.1626(5) 0.4447(3) 0.9838(2) 0.0440 Uani
H52 H 0.1284 0.4453 0.9404 0.0660 Uiso
S6 S 0.2919(3) 0.00574(13) 0.56664(9) 0.0605 Uani
S7 S 0.1790(3) 0.00167(13) 0.42016(9) 0.0591 Uani
O24 O 0.4769(5) 0.4551(3) 0.8899(2) 0.0429 Uani
C40 C 0.9986(8) 0.9545(6) 0.0266(5) 0.0675 Uani
H21 H 0.9140 0.9108 0.0254 0.0810 Uiso
H22 H 0.9823 0.9800 0.0718 0.0810 Uiso
H29 H 0.7084 0.9986 0.0071 0.0660 Uiso
C52 C 0.2338(8) 0.9866(5) 0.2253(3) 0.0481 Uani
H35 H 0.2999 0.9270 0.2247 0.0580 Uiso
C54 C 0.1492(8) 0.9355(5) 0.3520(3) 0.0406 Uani
C55 C 0.1496(8) 0.8277(5) 0.3620(3) 0.0419 Uani
C56 C 0.0286(8) 0.5376(5) 0.1788(3) 0.0433 Uani
C57 C 0.0141(8) 0.7804(5) 0.2714(3) 0.0475 Uani
C59 C 0.0649(8) 0.6118(5) 0.2270(3) 0.0428 Uani
C60 C 0.1661(8) 0.5844(5) 0.2703(4) 0.0511 Uani
H39 H 0.2162 0.5176 0.2703 0.0610 Uiso
C61 C 0.1951(8) 0.6534(5) 0.3136(4) 0.0526 Uani
H40 H 0.2657 0.6340 0.3424 0.0630 Uiso
C62 C 0.1190(8) 0.7536(5) 0.3148(3) 0.0428 Uani
C63 C 0.2190(9) 0.8857(5) 0.4742(4) 0.0531 Uani
C64 C 0.2640(9) 0.8885(5) 0.5335(3) 0.0491 Uani
C65 C 0.3487(8) 0.9435(5) 0.6436(3) 0.0407 Uani
C71 C 0.3134(8) 0.9982(5) 0.7624(3) 0.0430 Uani
H44 H 0.2689 0.9332 0.7808 0.0520 Uiso
C72 C 0.3569(8) 0.8352(5) 0.6529(3) 0.0419 Uani
C73 C 0.3971(7) 0.7639(4) 0.7120(3) 0.0370 Uani
C74 C 0.5208(8) 0.7836(5) 0.7413(4) 0.0520 Uani
H45 H 0.5778 0.8437 0.7234 0.0620 Uiso
C75 C 0.5597(8) 0.7151(5) 0.7966(4) 0.0475 Uani
H46 H 0.6411 0.7304 0.8162 0.0570 Uiso
C76 C 0.4790(7) 0.6245(4) 0.8230(3) 0.0366 Uani
C77 C 0.3588(7) 0.6030(5) 0.7929(3) 0.0406 Uani
H47 H 0.3047 0.5411 0.8096 0.0490 Uiso
C78 C 0.3177(8) 0.6729(5) 0.7380(3) 0.0479 Uani
H48 H 0.2357 0.6578 0.7188 0.0570 Uiso
C79 C 0.5192(7) 0.5513(4) 0.8827(3) 0.0331 Uani
O12 O 0.0867(6) 0.4401(4) 0.1921(3) 0.0673 Uani
H49 H 0.0633 0.4015 0.1636 0.1000 Uiso
S5 S 0.3028(3) 0.77101(13) 0.58784(10) 0.0646 Uani
S8 S 0.1840(3) 0.76655(13) 0.44416(9) 0.0635 Uani
H33 H 0.9743 0.2234 0.2270 0.0520 Uiso
H34 H 0.9833 0.1107 0.3270 0.0540 Uiso
H37 H 0.9612 0.8461 0.2723 0.0570 Uiso
C58 C 0.9874(8) 0.7107(5) 0.2270(4) 0.0503 Uani
H38 H 0.9183 0.7296 0.1974 0.0600 Uiso
O13 O 0.9550(6) 0.5644(4) 0.1347(2) 0.0577 Uani
loop_
_atom_site_aniso_label
_atom_site_aniso_U_11
_atom_site_aniso_U_22
_atom_site_aniso_U_33
_atom_site_aniso_U_23
_atom_site_aniso_U_13
_atom_site_aniso_U_12
C12 0.067 0.036 0.058 -0.015 -0.035 0.012
O4 0.084 0.045 0.059 -0.013 -0.049 0.005
C6 0.069 0.032 0.044 -0.006 -0.017 0.019
C8 0.063 0.03 0.032 -0.006 -0.016 0.001
C9 0.068 0.031 0.031 -0.005 -0.019 -0.001
C10 0.052 0.039 0.044 -0.018 -0.013 0
C11 0.068 0.025 0.058 -0.015 -0.03 0.01
C13 0.061 0.027 0.045 -0.01 -0.02 0.007
C14 0.066 0.042 0.056 -0.021 -0.033 0.016
C15 0.073 0.04 0.056 -0.015 -0.04 0.017
C16 0.064 0.033 0.036 -0.008 -0.019 0.001
C17 0.089 0.028 0.046 -0.002 -0.023 -0.003
C18 0.084 0.032 0.035 -0.004 -0.022 0.004
C19 0.067 0.025 0.035 -0.009 -0.019 0.001
C25 0.067 0.026 0.037 -0.002 -0.012 -0.005
C26 0.063 0.03 0.035 -0.007 -0.016 0.009
C27 0.051 0.023 0.04 -0.006 -0.016 0.005
C28 0.072 0.024 0.065 0.01 -0.033 -0.012
C29 0.052 0.033 0.067 0.004 -0.039 -0.013
C30 0.053 0.023 0.039 -0.01 -0.02 0.007
C31 0.051 0.029 0.045 0.002 -0.02 -0.008
C32 0.055 0.044 0.051 -0.009 -0.025 0.004
C33 0.042 0.029 0.032 -0.009 -0.015 0.008
O3 0.107 0.041 0.069 -0.026 -0.05 0.028
O7 0.064 0.048 0.045 -0.014 -0.027 0.002
O8 0.076 0.023 0.031 -0.0001 -0.015 -0.004
S1 0.1312 0.0255 0.0491 -0.0097 -0.0467 0.0092
S4 0.1307 0.0276 0.0404 -0.0009 -0.038 -0.0068
Cd5 0.0488 0.0212 0.0367 -0.0037 -0.0154 0.00796
C46 0.031 0.056 0.111 -0.002 -0.014 0.02
Cd8 0.0488 0.0212 0.0367 -0.0037 -0.0154 0.00796
C1 0.039 0.024 0.037 -0.007 -0.015 0
C2 0.039 0.027 0.036 -0.005 -0.014 0.003
C3 0.056 0.03 0.041 -0.005 -0.005 0.015
C4 0.065 0.034 0.033 -0.001 -0.002 0.011
C5 0.052 0.027 0.035 -0.006 -0.018 0
C7 0.066 0.037 0.029 -0.007 -0.008 0.018
C20 0.062 0.028 0.031 -0.009 -0.019 0.007
C21 0.077 0.03 0.031 -0.004 -0.007 0.001
C22 0.083 0.026 0.038 -0.005 -0.011 -0.006
C23 0.051 0.032 0.036 -0.013 -0.015 0.009
C24 0.059 0.037 0.025 -0.004 -0.011 0
C34 0.053 0.027 0.037 -0.008 -0.02 0.007
C35 0.049 0.02 0.107 0.002 -0.019 0.01
C36 0.041 0.051 0.12 0.003 -0.015 -0.005
C37 0.047 0.031 0.074 0.003 -0.017 0.005
C38 0.047 0.023 0.095 -0.004 -0.021 0.007
C39 0.036 0.028 0.095 -0.005 -0.011 0.003
N1 0.035 0.034 0.055 -0.008 -0.015 0.01
O1 0.062 0.027 0.04 -0.0044 -0.012 0.014
O2 0.055 0.025 0.037 -0.0036 -0.002 0.0058
O5 0.115 0.036 0.045 -0.008 -0.009 -0.019
O6 0.07 0.042 0.033 -0.014 -0.011 -0.003
O9 0.053 0.043 0.036 -0.0035 -0.014 0.015
S2 0.1242 0.0268 0.0407 -0.0052 -0.0431 0.0053
S3 0.1182 0.0284 0.0394 -0.0051 -0.0367 0.0008
O22 0.064 0.048 0.045 -0.014 -0.027 0.002
O20 0.055 0.025 0.037 -0.0036 -0.002 0.0058
C41 0.049 0.02 0.107 0.002 -0.019 0.01
C42 0.041 0.051 0.12 0.003 -0.015 -0.005
C43 0.047 0.031 0.074 0.003 -0.017 0.005
C44 0.047 0.023 0.095 -0.004 -0.021 0.007
C45 0.036 0.028 0.095 -0.005 -0.011 0.003
N2 0.035 0.034 0.055 -0.008 -0.015 0.01
C47 0.039 0.024 0.037 -0.007 -0.015 0
C48 0.039 0.027 0.036 -0.005 -0.014 0.003
C49 0.056 0.03 0.041 -0.005 -0.005 0.015
C50 0.065 0.034 0.033 -0.001 -0.002 0.011
C51 0.052 0.027 0.035 -0.006 -0.018 0
C53 0.066 0.037 0.029 -0.007 -0.008 0.018
C66 0.062 0.028 0.031 -0.009 -0.019 0.007
C67 0.077 0.03 0.031 -0.004 -0.007 0.001
C68 0.083 0.026 0.038 -0.005 -0.011 -0.006
C69 0.051 0.032 0.036 -0.013 -0.015 0.009
C70 0.059 0.037 0.025 -0.004 -0.011 0
C80 0.053 0.027 0.037 -0.008 -0.02 0.007
O10 0.062 0.027 0.04 -0.0044 -0.012 0.014
O14 0.115 0.036 0.045 -0.008 -0.009 -0.019
O15 0.07 0.042 0.033 -0.014 -0.011 -0.003
O18 0.053 0.043 0.036 -0.0035 -0.014 0.015
S6 0.1242 0.0268 0.0407 -0.0052 -0.0431 0.0053
S7 0.1182 0.0284 0.0394 -0.0051 -0.0367 0.0008
O24 0.076 0.023 0.031 -0.0001 -0.015 -0.004
C40 0.031 0.056 0.111 -0.002 -0.014 0.02
C52 0.069 0.032 0.044 -0.006 -0.017 0.019
C54 0.063 0.03 0.032 -0.006 -0.016 0.001
C55 0.068 0.031 0.031 -0.005 -0.019 -0.001
C56 0.052 0.039 0.044 -0.018 -0.013 0
C57 0.068 0.025 0.058 -0.015 -0.03 0.01
C59 0.061 0.027 0.045 -0.01 -0.02 0.007
C60 0.066 0.042 0.056 -0.021 -0.033 0.016
C61 0.073 0.04 0.056 -0.015 -0.04 0.017
C62 0.064 0.033 0.036 -0.008 -0.019 0.001
C63 0.089 0.028 0.046 -0.002 -0.023 -0.003
C64 0.084 0.032 0.035 -0.004 -0.022 0.004
C65 0.067 0.025 0.035 -0.009 -0.019 0.001
C71 0.067 0.026 0.037 -0.002 -0.012 -0.005
C72 0.063 0.03 0.035 -0.007 -0.016 0.009
C73 0.051 0.023 0.04 -0.006 -0.016 0.005
C74 0.072 0.024 0.065 0.01 -0.033 -0.012
C75 0.052 0.033 0.067 0.004 -0.039 -0.013
C76 0.053 0.023 0.039 -0.01 -0.02 0.007
C77 0.051 0.029 0.045 0.002 -0.02 -0.008
C78 0.055 0.044 0.051 -0.009 -0.025 0.004
C79 0.042 0.029 0.032 -0.009 -0.015 0.008
O12 0.107 0.041 0.069 -0.026 -0.05 0.028
S5 0.1312 0.0255 0.0491 -0.0097 -0.0467 0.0092
S8 0.1307 0.0276 0.0404 -0.0009 -0.038 -0.0068
C58 0.067 0.036 0.058 -0.015 -0.035 0.012
O13 0.084 0.045 0.059 -0.013 -0.049 0.005
loop_
_geom_bond_atom_site_label_1
_geom_bond_atom_site_label_2
_geom_bond_site_symmetry_1
_geom_bond_site_symmetry_2
H6 C12 1_555 1_555
H3 C6 1_555 1_555
C9 C8 1_555 1_555
C10 C13 1_555 1_555
C14 C13 1_555 1_555
H7 C14 1_555 1_555
C15 C14 1_555 1_555
H8 C15 1_555 1_555
C16 C9 1_555 1_555
C17 C18 1_555 1_555
C18 S1 1_555 1_555
H12 C25 1_555 1_555
C26 C19 1_555 1_555
C27 C26 1_555 1_555
C28 C27 1_555 1_555
H13 C28 1_555 1_555
C29 C28 1_555 1_555
H14 C29 1_555 1_555
C30 C29 1_555 1_555
C31 C30 1_555 1_555
H15 C31 1_555 1_555
C32 C27 1_555 1_555
H16 C32 1_555 1_555
C33 C30 1_555 1_555
O3 C10 1_555 1_555
H23 O3 1_555 1_555
O7 C33 1_555 1_555
O8 C33 1_555 1_555
S1 C26 1_555 1_555
S4 C9 1_555 1_555
Cd5 O8 1_555 1_555
C11 C16 1_555 1_555
C15 C16 1_555 1_555
C17 S4 1_555 1_555
C31 C32 1_555 1_555
H31 C46 1_555 1_555
H32 C46 1_555 1_555
C1 C2 1_555 1_555
C2 C3 1_555 1_555
C4 C3 1_555 1_555
C5 C4 1_555 1_555
C7 C2 1_555 1_555
H4 C7 1_555 1_555
C20 C21 1_555 1_555
C21 H9 1_555 1_555
C22 C21 1_555 1_555
H10 C22 1_555 1_555
C23 C22 1_555 1_555
C24 C23 1_555 1_555
H11 C24 1_555 1_555
C34 C23 1_555 1_555
C35 H17 1_555 1_555
C36 C35 1_555 1_555
H18 C36 1_555 1_555
C37 C36 1_555 1_555
C38 C37 1_555 1_555
C39 C38 1_555 1_555
Cd5 N1 1_555 1_555
N1 C35 1_555 1_555
O1 C1 1_555 1_555
O2 C1 1_555 1_555
O5 C34 1_555 1_555
H24 O5 1_555 1_555
O6 C34 1_555 1_555
O9 Cd5 1_555 1_555
H26 O9 1_555 1_555
C39 N1 1_555 1_555
Cd5 O6 1_555 1_555
C41 H27 1_555 1_555
C42 C41 1_555 1_555
H28 C42 1_555 1_555
C43 C42 1_555 1_555
C44 C43 1_555 1_555
C45 C44 1_555 1_555
N2 C41 1_555 1_555
C47 C48 1_555 1_555
C48 C49 1_555 1_555
C50 C49 1_555 1_555
C51 C50 1_555 1_555
C53 C48 1_555 1_555
H36 C53 1_555 1_555
C66 C67 1_555 1_555
C67 H41 1_555 1_555
C68 C67 1_555 1_555
H42 C68 1_555 1_555
C69 C68 1_555 1_555
C70 C69 1_555 1_555
H43 C70 1_555 1_555
C80 C69 1_555 1_555
Cd8 N2 1_555 1_555
O10 C47 1_555 1_555
O20 C47 1_555 1_555
O14 C80 1_555 1_555
H50 O14 1_555 1_555
O15 C80 1_555 1_555
O18 Cd8 1_555 1_555
H52 O18 1_555 1_555
O24 Cd8 1_555 1_555
C45 N2 1_555 1_555
Cd8 O15 1_555 1_555
H21 C40 1_555 1_555
H22 C40 1_555 1_555
H35 C52 1_555 1_555
C55 C54 1_555 1_555
C56 C59 1_555 1_555
C60 C59 1_555 1_555
H39 C60 1_555 1_555
C61 C60 1_555 1_555
H40 C61 1_555 1_555
C62 C55 1_555 1_555
C63 C64 1_555 1_555
C64 S5 1_555 1_555
H44 C71 1_555 1_555
C72 C65 1_555 1_555
C73 C72 1_555 1_555
C74 C73 1_555 1_555
H45 C74 1_555 1_555
C75 C74 1_555 1_555
H46 C75 1_555 1_555
C76 C75 1_555 1_555
C77 C76 1_555 1_555
H47 C77 1_555 1_555
C78 C73 1_555 1_555
H48 C78 1_555 1_555
C79 C76 1_555 1_555
O12 C56 1_555 1_555
H49 O12 1_555 1_555
O22 C79 1_555 1_555
O24 C79 1_555 1_555
S5 C72 1_555 1_555
S8 C55 1_555 1_555
C57 C62 1_555 1_555
C61 C62 1_555 1_555
C63 S8 1_555 1_555
C77 C78 1_555 1_555
H38 C58 1_555 1_555

#END
