
###############################################################################
#
# This file contains modified crystal structure data generated from the
# MOF subset of the Cambridge Structural Database (CSD) v543 
# hosted by the Cambridge Crystallographic Data Centre (CCDC).
#
# This work is licensed under the Creative Commons
# Attribution-NonCommercial-ShareAlike 4.0 International License.
# To view a copy of this license, visit
# http://creativecommons.org/licenses/by-nc-sa/4.0/
# or send a letter to
# Creative Commons, PO Box 1866, Mountain View, CA 94042, USA.
#
# CIF created using the CSD Python API on 29 September 2022
# The structure has been converted into the P1 space group
# The structure has a 3D framework
# The original CSD entry GUFBUG is in the orthorhombic crystal system
# The framework has been calculated to contain at least 10.0% void space
# The void calculation uses a probe of radius 1.32A, grid spacing 0.4
#
###############################################################################

data_GUFBUG
_chemical_formula_moiety         '(C272 H176 Ba12 O80 S32)n'
_symmetry_cell_setting           triclinic
_symmetry_space_group_name_H-M   'P 1'
_symmetry_Int_Tables_number      1
_space_group_name_Hall           'P 1'
loop_
_symmetry_equiv_pos_site_id
_symmetry_equiv_pos_as_xyz
1 x,y,z
_cell_length_a                   10.4489(9)
_cell_length_b                   21.5552(19)
_cell_length_c                   38.344(3)
_cell_angle_alpha                90
_cell_angle_beta                 90
_cell_angle_gamma                90
_cell_volume                     8636.15
loop_
_atom_site_label
_atom_site_type_symbol
_atom_site_fract_x
_atom_site_fract_y
_atom_site_fract_z
O4 O 0.2109(8) 0.0123(4) 0.8961(2)
H9 H 0.2452 0.0348 0.9106
Ba1 Ba 0.19843(7) 0.49181(4) 0.0000
O5 O 0.4251(11) 0.5652(5) 0.0000
O6 O 0.2784(14) 0.3617(8) 0.0000
H11 H 0.3113 0.3526 0.0196
H21 H 0.4606 0.5662 0.0231
Ba3 Ba 0.30157(7) 0.99181(4) 0.0000
O12 O 0.0227(9) 0.4318(4) 0.0382(2)
O14 O 0.1759(7) 0.5730(3) 0.05600(19)
O15 O 0.3647(7) 0.4619(4) 0.0562(2)
Ba1_2 Ba 0.19843(7) 0.49181(4) 1.0000
C1 C 0.0169(9) 0.6259(4) 0.9103(2)
C2 C 0.1035(11) 0.6469(6) 0.8870(3)
H1 H 0.1897 0.6374 0.8899
C3 C 0.0637(11) 0.6833(6) 0.8582(3)
H2 H 0.1233 0.6984 0.8423
C7 C 0.0595(11) 0.5871(5) 0.9411(3)
C12 C 0.0147(10) 0.8756(5) 0.9005(3)
H6 H 0.0074 0.8712 0.9246
C13 C 0.0807(9) 0.9239(5) 0.8874(3)
C14 C 0.0884(11) 0.9329(5) 0.8515(3)
H7 H 0.1317 0.9668 0.8422
C15 C 0.0298(11) 0.8898(5) 0.8300(3)
H8 H 0.0346 0.8952 0.8060
C16 C 0.1452(9) 0.9678(5) 0.9124(3)
O2 O 0.1759(7) 0.5730(3) 0.94400(19)
O3 O 0.1353(7) 0.9619(4) 0.9438(2)
O5_2 O 0.4251(11) 0.5652(5) 1.0000
H10 H 0.4606 0.5662 0.9769
O6_2 O 0.2784(14) 0.3617(8) 1.0000
H22 H 0.3113 0.3526 0.9804
Ba3_2 Ba 0.30157(7) 0.99181(4) 1.0000
O11 O 0.0227(9) 0.4318(4) 0.9618(2)
O16 O 0.3647(7) 0.4619(4) 0.9438(2)
Ba5 Ba 0.30157(7) 0.00819(4) 0.5000
Ba2 Ba 0.80157(7) 0.50819(4) 0.0000
O13 O 0.9773(9) 0.5682(4) 0.0382(2)
C4 C 0.9358(10) 0.6959(5) 0.8541(2)
C5 C 0.8498(10) 0.6738(5) 0.8783(3)
H3 H 0.7632 0.6829 0.8760
C6 C 0.8910(10) 0.6377(5) 0.9065(3)
H4 H 0.8322 0.6220 0.9224
C8 C 0.8908(11) 0.7345(5) 0.8248(3)
C9 C 0.9055(11) 0.7943(5) 0.8196(3)
C10 C 0.9652(10) 0.8400(5) 0.8428(3)
C11 C 0.9580(10) 0.8328(5) 0.8790(3)
H5 H 0.9150 0.7990 0.8885
C17 C 0.7805(14) 0.7522(6) 0.7647(3)
O1 O 0.9773(9) 0.5682(4) 0.9618(2)
S1 S 0.8108(5) 0.69056(17) 0.79271(10)
S2 S 0.8381(4) 0.82441(16) 0.78074(9)
C18 C 0.4831(9) 0.8741(4) 0.5897(2)
C19 C 0.3965(11) 0.8531(6) 0.6130(3)
H12 H 0.3103 0.8626 0.6101
C20 C 0.4363(11) 0.8167(6) 0.6418(3)
H13 H 0.3767 0.8016 0.6577
C21 C 0.5642(10) 0.8041(5) 0.6459(2)
C22 C 0.6502(10) 0.8262(5) 0.6217(3)
H14 H 0.7368 0.8171 0.6240
C23 C 0.6090(10) 0.8623(5) 0.5935(3)
H15 H 0.6678 0.8780 0.5776
C24 C 0.4405(11) 0.9129(5) 0.5589(3)
C25 C 0.6092(11) 0.7655(5) 0.6752(3)
C26 C 0.5945(11) 0.7057(5) 0.6804(3)
C27 C 0.5348(10) 0.6600(5) 0.6572(3)
C28 C 0.5420(10) 0.6672(5) 0.6210(3)
H16 H 0.5850 0.7010 0.6115
C29 C 0.4853(10) 0.6244(5) 0.5995(3)
H17 H 0.4926 0.6288 0.5754
C30 C 0.4193(9) 0.5761(5) 0.6126(3)
C31 C 0.4116(11) 0.5671(5) 0.6485(3)
H18 H 0.3683 0.5332 0.6578
C32 C 0.4702(11) 0.6102(5) 0.6700(3)
H19 H 0.4654 0.6048 0.6940
C33 C 0.3548(9) 0.5322(5) 0.5876(3)
C34 C 0.7195(14) 0.7478(6) 0.7353(3)
O7 O 0.5227(9) 0.9318(4) 0.5382(2)
O8 O 0.3241(7) 0.9270(3) 0.55600(19)
O9 O 0.3647(7) 0.5381(4) 0.5562(2)
O10 O 0.2891(8) 0.4877(4) 0.6039(2)
H20 H 0.2548 0.4652 0.5894
S3 S 0.6892(5) 0.80944(17) 0.70729(10)
S4 S 0.6619(4) 0.67559(16) 0.71926(9)
Ba2_2 Ba 0.80157(7) 0.50819(4) 1.0000
Ba4 Ba 0.69843(7) 0.99181(4) 0.5000
Ba6 Ba 0.19843(7) 0.50819(4) 0.5000
C4_2 C 0.0642(10) 0.3041(5) 0.8541(2)
C5_2 C 0.1502(10) 0.3262(5) 0.8783(3)
H3_2 H 0.2368 0.3171 0.8760
C6_2 C 0.1090(10) 0.3623(5) 0.9065(3)
H4_2 H 0.1678 0.3780 0.9224
C8_2 C 0.1092(11) 0.2655(5) 0.8248(3)
C9_2 C 0.0945(11) 0.2057(5) 0.8196(3)
C10_2 C 0.0348(10) 0.1600(5) 0.8428(3)
C11_2 C 0.0420(10) 0.1672(5) 0.8790(3)
H5_2 H 0.0850 0.2010 0.8885
C17_2 C 0.2195(14) 0.2478(6) 0.7647(3)
S1_2 S 0.1892(5) 0.30944(17) 0.79271(10)
S2_2 S 0.1619(4) 0.17559(16) 0.78074(9)
C18_2 C 0.5169(9) 0.1259(4) 0.5897(2)
C19_2 C 0.6035(11) 0.1469(6) 0.6130(3)
H12_2 H 0.6897 0.1374 0.6101
C20_2 C 0.5637(11) 0.1833(6) 0.6418(3)
H13_2 H 0.6233 0.1984 0.6577
C21_2 C 0.4358(10) 0.1959(5) 0.6459(2)
C22_2 C 0.3498(10) 0.1738(5) 0.6217(3)
H14_2 H 0.2632 0.1829 0.6240
C23_2 C 0.3910(10) 0.1377(5) 0.5935(3)
H15_2 H 0.3322 0.1220 0.5776
C24_2 C 0.5595(11) 0.0871(5) 0.5589(3)
C25_2 C 0.3908(11) 0.2345(5) 0.6752(3)
C26_2 C 0.4055(11) 0.2943(5) 0.6804(3)
C27_2 C 0.4652(10) 0.3400(5) 0.6572(3)
C28_2 C 0.4580(10) 0.3328(5) 0.6210(3)
H16_2 H 0.4150 0.2990 0.6115
C29_2 C 0.5147(10) 0.3756(5) 0.5995(3)
H17_2 H 0.5074 0.3712 0.5754
C30_2 C 0.5807(9) 0.4239(5) 0.6126(3)
C31_2 C 0.5884(11) 0.4329(5) 0.6485(3)
H18_2 H 0.6317 0.4668 0.6578
C32_2 C 0.5298(11) 0.3898(5) 0.6700(3)
H19_2 H 0.5346 0.3952 0.6940
C33_2 C 0.6452(9) 0.4678(5) 0.5876(3)
C34_2 C 0.2805(14) 0.2522(6) 0.7353(3)
O7_2 O 0.4773(9) 0.0682(4) 0.5382(2)
O8_2 O 0.6759(7) 0.0730(3) 0.55600(19)
O9_2 O 0.6353(7) 0.4619(4) 0.5562(2)
O10_2 O 0.7109(8) 0.5123(4) 0.6039(2)
H20_2 H 0.7452 0.5348 0.5894
S3_2 S 0.3108(5) 0.19056(17) 0.70729(10)
S4_2 S 0.3381(4) 0.32441(16) 0.71926(9)
Ba6_2 Ba 0.80157(7) 0.49181(4) 0.5000
O5_3 O 0.5749(11) 0.4348(5) 0.0000
O6_3 O 0.7216(14) 0.6383(8) 0.0000
H11_2 H 0.6887 0.6474 0.0196
H21_2 H 0.5394 0.4338 0.0231
Ba3_3 Ba 0.69843(7) 0.00819(4) 0.0000
O14_2 O 0.8241(7) 0.4270(3) 0.05600(19)
O15_2 O 0.6353(7) 0.5381(4) 0.0562(2)
C1_2 C 0.9831(9) 0.3741(4) 0.9103(2)
C2_2 C 0.8965(11) 0.3531(6) 0.8870(3)
H1_2 H 0.8103 0.3626 0.8899
C3_2 C 0.9363(11) 0.3167(6) 0.8582(3)
H2_2 H 0.8767 0.3016 0.8423
C7_2 C 0.9405(11) 0.4129(5) 0.9411(3)
C12_2 C 0.9853(10) 0.1244(5) 0.9005(3)
H6_2 H 0.9926 0.1288 0.9246
C13_2 C 0.9193(9) 0.0761(5) 0.8874(3)
C14_2 C 0.9116(11) 0.0671(5) 0.8515(3)
H7_2 H 0.8683 0.0332 0.8422
C15_2 C 0.9702(11) 0.1102(5) 0.8300(3)
H8_2 H 0.9654 0.1048 0.8060
C16_2 C 0.8548(9) 0.0322(5) 0.9124(3)
O2_2 O 0.8241(7) 0.4270(3) 0.94400(19)
O3_2 O 0.8647(7) 0.0381(4) 0.9438(2)
O5_4 O 0.5749(11) 0.4348(5) 1.0000
H10_2 H 0.5394 0.4338 0.9769
O6_4 O 0.7216(14) 0.6383(8) 1.0000
H22_2 H 0.6887 0.6474 0.9804
Ba3_4 Ba 0.69843(7) 0.00819(4) 1.0000
O16_2 O 0.6353(7) 0.5381(4) 0.9438(2)
C18_3 C 0.0169(9) 0.3741(4) 0.4103(2)
C19_3 C 0.1035(11) 0.3531(6) 0.3870(3)
H12_3 H 0.1897 0.3626 0.3899
C20_3 C 0.0637(11) 0.3167(6) 0.3582(3)
H13_3 H 0.1233 0.3016 0.3423
C24_3 C 0.0595(11) 0.4129(5) 0.4411(3)
C29_3 C 0.0147(10) 0.1244(5) 0.4005(3)
H17_3 H 0.0074 0.1288 0.4246
C30_3 C 0.0807(9) 0.0761(5) 0.3874(3)
C31_3 C 0.0884(11) 0.0671(5) 0.3515(3)
H18_3 H 0.1317 0.0332 0.3422
C32_3 C 0.0298(11) 0.1102(5) 0.3300(3)
H19_3 H 0.0346 0.1048 0.3060
C33_3 C 0.1452(9) 0.0322(5) 0.4124(3)
O8_3 O 0.1759(7) 0.4270(3) 0.44400(19)
O9_3 O 0.1353(7) 0.0381(4) 0.4438(2)
C1_3 C 0.4831(9) 0.1259(4) 0.0897(2)
C2_3 C 0.3965(11) 0.1469(6) 0.1130(3)
H1_3 H 0.3103 0.1374 0.1101
C3_3 C 0.4363(11) 0.1833(6) 0.1418(3)
H2_3 H 0.3767 0.1984 0.1577
C4_3 C 0.5642(10) 0.1959(5) 0.1459(2)
C5_3 C 0.6502(10) 0.1738(5) 0.1217(3)
H3_3 H 0.7368 0.1829 0.1240
C6_3 C 0.6090(10) 0.1377(5) 0.0935(3)
H4_3 H 0.6678 0.1220 0.0776
C7_3 C 0.4405(11) 0.0871(5) 0.0589(3)
C8_3 C 0.6092(11) 0.2345(5) 0.1752(3)
C9_3 C 0.5945(11) 0.2943(5) 0.1804(3)
C10_3 C 0.5348(10) 0.3400(5) 0.1572(3)
C11_3 C 0.5420(10) 0.3328(5) 0.1210(3)
H5_3 H 0.5850 0.2990 0.1115
C12_3 C 0.4853(10) 0.3756(5) 0.0995(3)
H6_3 H 0.4926 0.3712 0.0754
C13_3 C 0.4193(9) 0.4239(5) 0.1126(3)
C14_3 C 0.4116(11) 0.4329(5) 0.1485(3)
H7_3 H 0.3683 0.4668 0.1578
C15_3 C 0.4702(11) 0.3898(5) 0.1700(3)
H8_3 H 0.4654 0.3952 0.1940
C16_3 C 0.3548(9) 0.4678(5) 0.0876(3)
C17_3 C 0.7195(14) 0.2522(6) 0.2353(3)
O1_2 O 0.5227(9) 0.0682(4) 0.0382(2)
O2_3 O 0.3241(7) 0.0730(3) 0.05600(19)
O4_2 O 0.2891(8) 0.5123(4) 0.1039(2)
H9_2 H 0.2548 0.5348 0.0894
O5_5 O 0.0749(11) 0.0652(5) 0.0000
H10_3 H 0.0394 0.0662 0.0231
S1_3 S 0.6892(5) 0.19056(17) 0.20729(10)
S2_3 S 0.6619(4) 0.32441(16) 0.21926(9)
C21_3 C 0.9358(10) 0.3041(5) 0.3541(2)
C22_3 C 0.8498(10) 0.3262(5) 0.3783(3)
H14_3 H 0.7632 0.3171 0.3760
C23_3 C 0.8910(10) 0.3623(5) 0.4065(3)
H15_3 H 0.8322 0.3780 0.4224
C25_3 C 0.8908(11) 0.2655(5) 0.3248(3)
C26_3 C 0.9055(11) 0.2057(5) 0.3196(3)
C27_3 C 0.9652(10) 0.1600(5) 0.3428(3)
C28_3 C 0.9580(10) 0.1672(5) 0.3790(3)
H16_3 H 0.9150 0.2010 0.3885
C34_3 C 0.7805(14) 0.2478(6) 0.2647(3)
O7_3 O 0.9773(9) 0.4318(4) 0.4618(2)
S3_3 S 0.8108(5) 0.30944(17) 0.29271(10)
S4_3 S 0.8381(4) 0.17559(16) 0.28074(9)
O5_6 O 0.0749(11) 0.0652(5) 1.0000
H21_3 H 0.0394 0.0662 0.9769
O13_2 O 0.5227(9) 0.0682(4) 0.9618(2)
O14_3 O 0.3241(7) 0.0730(3) 0.94400(19)
O6_5 O 0.2216(14) 0.8617(8) 0.0000
H22_3 H 0.1887 0.8526 0.0196
O11_2 O 0.4773(9) 0.9318(4) 0.0382(2)
O16_3 O 0.1353(7) 0.9619(4) 0.0562(2)
O6_6 O 0.2216(14) 0.8617(8) 1.0000
H11_3 H 0.1887 0.8526 0.9804
O12_2 O 0.4773(9) 0.9318(4) 0.9618(2)
O6_7 O 0.7784(14) 0.1383(8) 0.0000
H22_4 H 0.8113 0.1474 0.0196
O16_4 O 0.8647(7) 0.0381(4) 0.0562(2)
O6_8 O 0.7784(14) 0.1383(8) 1.0000
H11_4 H 0.8113 0.1474 0.9804
C1_4 C 0.5169(9) 0.8741(4) 0.0897(2)
C2_4 C 0.6035(11) 0.8531(6) 0.1130(3)
H1_4 H 0.6897 0.8626 0.1101
C3_4 C 0.5637(11) 0.8167(6) 0.1418(3)
H2_4 H 0.6233 0.8016 0.1577
C4_4 C 0.4358(10) 0.8041(5) 0.1459(2)
C5_4 C 0.3498(10) 0.8262(5) 0.1217(3)
H3_4 H 0.2632 0.8171 0.1240
C6_4 C 0.3910(10) 0.8623(5) 0.0935(3)
H4_4 H 0.3322 0.8780 0.0776
C7_4 C 0.5595(11) 0.9129(5) 0.0589(3)
C8_4 C 0.3908(11) 0.7655(5) 0.1752(3)
C9_4 C 0.4055(11) 0.7057(5) 0.1804(3)
C10_4 C 0.4652(10) 0.6600(5) 0.1572(3)
C11_4 C 0.4580(10) 0.6672(5) 0.1210(3)
H5_4 H 0.4150 0.7010 0.1115
C12_4 C 0.5147(10) 0.6244(5) 0.0995(3)
H6_4 H 0.5074 0.6288 0.0754
C13_4 C 0.5807(9) 0.5761(5) 0.1126(3)
C14_4 C 0.5884(11) 0.5671(5) 0.1485(3)
H7_4 H 0.6317 0.5332 0.1578
C15_4 C 0.5298(11) 0.6102(5) 0.1700(3)
H8_4 H 0.5346 0.6048 0.1940
C16_4 C 0.6452(9) 0.5322(5) 0.0876(3)
C17_4 C 0.2805(14) 0.7478(6) 0.2353(3)
O2_4 O 0.6759(7) 0.9270(3) 0.05600(19)
O4_3 O 0.7109(8) 0.4877(4) 0.1039(2)
H9_3 H 0.7452 0.4652 0.0894
O5_7 O 0.9251(11) 0.9348(5) 0.0000
H10_4 H 0.9606 0.9338 0.0231
S1_4 S 0.3108(5) 0.80944(17) 0.20729(10)
S2_4 S 0.3381(4) 0.67559(16) 0.21926(9)
C21_4 C 0.0642(10) 0.6959(5) 0.3541(2)
C22_4 C 0.1502(10) 0.6738(5) 0.3783(3)
H14_4 H 0.2368 0.6829 0.3760
C23_4 C 0.1090(10) 0.6377(5) 0.4065(3)
H15_4 H 0.1678 0.6220 0.4224
C25_4 C 0.1092(11) 0.7345(5) 0.3248(3)
C26_4 C 0.0945(11) 0.7943(5) 0.3196(3)
C27_4 C 0.0348(10) 0.8400(5) 0.3428(3)
C28_4 C 0.0420(10) 0.8328(5) 0.3790(3)
H16_4 H 0.0850 0.7990 0.3885
C34_4 C 0.2195(14) 0.7522(6) 0.2647(3)
O7_4 O 0.0227(9) 0.5682(4) 0.4618(2)
S3_4 S 0.1892(5) 0.69056(17) 0.29271(10)
S4_4 S 0.1619(4) 0.82441(16) 0.28074(9)
O5_8 O 0.9251(11) 0.9348(5) 1.0000
H21_4 H 0.9606 0.9338 0.9769
O14_4 O 0.6759(7) 0.9270(3) 0.94400(19)
C18_4 C 0.9831(9) 0.6259(4) 0.4103(2)
C19_4 C 0.8965(11) 0.6469(6) 0.3870(3)
H12_4 H 0.8103 0.6374 0.3899
C20_4 C 0.9363(11) 0.6833(6) 0.3582(3)
H13_4 H 0.8767 0.6984 0.3423
C24_4 C 0.9405(11) 0.5871(5) 0.4411(3)
C29_4 C 0.9853(10) 0.8756(5) 0.4005(3)
H17_4 H 0.9926 0.8712 0.4246
C30_4 C 0.9193(9) 0.9239(5) 0.3874(3)
C31_4 C 0.9116(11) 0.9329(5) 0.3515(3)
H18_4 H 0.8683 0.9668 0.3422
C32_4 C 0.9702(11) 0.8898(5) 0.3300(3)
H19_4 H 0.9654 0.8952 0.3060
C33_4 C 0.8548(9) 0.9678(5) 0.4124(3)
O8_4 O 0.8241(7) 0.5730(3) 0.44400(19)
O9_4 O 0.8647(7) 0.9619(4) 0.4438(2)
C1_5 C 0.5169(9) 0.1259(4) 0.4103(2)
C2_5 C 0.6035(11) 0.1469(6) 0.3870(3)
H1_5 H 0.6897 0.1374 0.3899
C3_5 C 0.5637(11) 0.1833(6) 0.3582(3)
H2_5 H 0.6233 0.1984 0.3423
C4_5 C 0.4358(10) 0.1959(5) 0.3541(2)
C5_5 C 0.3498(10) 0.1738(5) 0.3783(3)
H3_5 H 0.2632 0.1829 0.3760
C6_5 C 0.3910(10) 0.1377(5) 0.4065(3)
H4_5 H 0.3322 0.1220 0.4224
C7_5 C 0.5595(11) 0.0871(5) 0.4411(3)
C8_5 C 0.3908(11) 0.2345(5) 0.3248(3)
C9_5 C 0.4055(11) 0.2943(5) 0.3196(3)
C10_5 C 0.4652(10) 0.3400(5) 0.3428(3)
C11_5 C 0.4580(10) 0.3328(5) 0.3790(3)
H5_5 H 0.4150 0.2990 0.3885
C12_5 C 0.5147(10) 0.3756(5) 0.4005(3)
H6_5 H 0.5074 0.3712 0.4246
C13_5 C 0.5807(9) 0.4239(5) 0.3874(3)
C14_5 C 0.5884(11) 0.4329(5) 0.3515(3)
H7_5 H 0.6317 0.4668 0.3422
C15_5 C 0.5298(11) 0.3898(5) 0.3300(3)
H8_5 H 0.5346 0.3952 0.3060
C16_5 C 0.6452(9) 0.4678(5) 0.4124(3)
C17_5 C 0.2805(14) 0.2522(6) 0.2647(3)
O1_3 O 0.4773(9) 0.0682(4) 0.4618(2)
O2_5 O 0.6759(7) 0.0730(3) 0.44400(19)
O3_3 O 0.6353(7) 0.4619(4) 0.4438(2)
O4_4 O 0.7109(8) 0.5123(4) 0.3961(2)
H9_4 H 0.7452 0.5348 0.4106
O5_9 O 0.9251(11) 0.0652(5) 0.5000
H10_5 H 0.9606 0.0662 0.4769
S1_5 S 0.3108(5) 0.19056(17) 0.29271(10)
S2_5 S 0.3381(4) 0.32441(16) 0.28074(9)
C21_5 C 0.0642(10) 0.3041(5) 0.1459(2)
C22_5 C 0.1502(10) 0.3262(5) 0.1217(3)
H14_5 H 0.2368 0.3171 0.1240
C23_5 C 0.1090(10) 0.3623(5) 0.0935(3)
H15_5 H 0.1678 0.3780 0.0776
C25_5 C 0.1092(11) 0.2655(5) 0.1752(3)
C26_5 C 0.0945(11) 0.2057(5) 0.1804(3)
C27_5 C 0.0348(10) 0.1600(5) 0.1572(3)
C28_5 C 0.0420(10) 0.1672(5) 0.1210(3)
H16_5 H 0.0850 0.2010 0.1115
C34_5 C 0.2195(14) 0.2478(6) 0.2353(3)
S3_5 S 0.1892(5) 0.30944(17) 0.20729(10)
S4_5 S 0.1619(4) 0.17559(16) 0.21926(9)
H21_5 H 0.9606 0.0662 0.5231
O6_9 O 0.7784(14) 0.8617(8) 0.5000
H11_5 H 0.8113 0.8526 0.5196
H22_5 H 0.8113 0.8526 0.4804
O11_3 O 0.5227(9) 0.9318(4) 0.4618(2)
O15_3 O 0.8647(7) 0.9619(4) 0.5562(2)
C18_5 C 0.9831(9) 0.3741(4) 0.0897(2)
C19_5 C 0.8965(11) 0.3531(6) 0.1130(3)
H12_5 H 0.8103 0.3626 0.1101
C20_5 C 0.9363(11) 0.3167(6) 0.1418(3)
H13_5 H 0.8767 0.3016 0.1577
C24_5 C 0.9405(11) 0.4129(5) 0.0589(3)
C29_5 C 0.9853(10) 0.1244(5) 0.0995(3)
H17_5 H 0.9926 0.1288 0.0754
C30_5 C 0.9193(9) 0.0761(5) 0.1126(3)
C31_5 C 0.9116(11) 0.0671(5) 0.1485(3)
H18_5 H 0.8683 0.0332 0.1578
C32_5 C 0.9702(11) 0.1102(5) 0.1700(3)
H19_5 H 0.9654 0.1048 0.1940
C33_5 C 0.8548(9) 0.0322(5) 0.0876(3)
C18_6 C 0.0169(9) 0.6259(4) 0.0897(2)
C19_6 C 0.1035(11) 0.6469(6) 0.1130(3)
H12_6 H 0.1897 0.6374 0.1101
C20_6 C 0.0637(11) 0.6833(6) 0.1418(3)
H13_6 H 0.1233 0.6984 0.1577
C24_6 C 0.0595(11) 0.5871(5) 0.0589(3)
C29_6 C 0.0147(10) 0.8756(5) 0.0995(3)
H17_6 H 0.0074 0.8712 0.0754
C30_6 C 0.0807(9) 0.9239(5) 0.1126(3)
C31_6 C 0.0884(11) 0.9329(5) 0.1485(3)
H18_6 H 0.1317 0.9668 0.1578
C32_6 C 0.0298(11) 0.8898(5) 0.1700(3)
H19_6 H 0.0346 0.8952 0.1940
C33_6 C 0.1452(9) 0.9678(5) 0.0876(3)
O6_10 O 0.2216(14) 0.1383(8) 0.5000
H11_6 H 0.1887 0.1474 0.5196
H22_6 H 0.1887 0.1474 0.4804
O15_4 O 0.1353(7) 0.0381(4) 0.5562(2)
C1_6 C 0.4831(9) 0.8741(4) 0.4103(2)
C2_6 C 0.3965(11) 0.8531(6) 0.3870(3)
H1_6 H 0.3103 0.8626 0.3899
C3_6 C 0.4363(11) 0.8167(6) 0.3582(3)
H2_6 H 0.3767 0.8016 0.3423
C4_6 C 0.5642(10) 0.8041(5) 0.3541(2)
C5_6 C 0.6502(10) 0.8262(5) 0.3783(3)
H3_6 H 0.7368 0.8171 0.3760
C6_6 C 0.6090(10) 0.8623(5) 0.4065(3)
H4_6 H 0.6678 0.8780 0.4224
C7_6 C 0.4405(11) 0.9129(5) 0.4411(3)
C8_6 C 0.6092(11) 0.7655(5) 0.3248(3)
C9_6 C 0.5945(11) 0.7057(5) 0.3196(3)
C10_6 C 0.5348(10) 0.6600(5) 0.3428(3)
C11_6 C 0.5420(10) 0.6672(5) 0.3790(3)
H5_6 H 0.5850 0.7010 0.3885
C12_6 C 0.4853(10) 0.6244(5) 0.4005(3)
H6_6 H 0.4926 0.6288 0.4246
C13_6 C 0.4193(9) 0.5761(5) 0.3874(3)
C14_6 C 0.4116(11) 0.5671(5) 0.3515(3)
H7_6 H 0.3683 0.5332 0.3422
C15_6 C 0.4702(11) 0.6102(5) 0.3300(3)
H8_6 H 0.4654 0.6048 0.3060
C16_6 C 0.3548(9) 0.5322(5) 0.4124(3)
C17_6 C 0.7195(14) 0.7478(6) 0.2647(3)
O2_6 O 0.3241(7) 0.9270(3) 0.44400(19)
O3_4 O 0.3647(7) 0.5381(4) 0.4438(2)
O4_5 O 0.2891(8) 0.4877(4) 0.3961(2)
H9_5 H 0.2548 0.4652 0.4106
O5_10 O 0.0749(11) 0.9348(5) 0.5000
H10_6 H 0.0394 0.9338 0.4769
S1_6 S 0.6892(5) 0.80944(17) 0.29271(10)
S2_6 S 0.6619(4) 0.67559(16) 0.28074(9)
C21_6 C 0.9358(10) 0.6959(5) 0.1459(2)
C22_6 C 0.8498(10) 0.6738(5) 0.1217(3)
H14_6 H 0.7632 0.6829 0.1240
C23_6 C 0.8910(10) 0.6377(5) 0.0935(3)
H15_6 H 0.8322 0.6220 0.0776
C25_6 C 0.8908(11) 0.7345(5) 0.1752(3)
C26_6 C 0.9055(11) 0.7943(5) 0.1804(3)
C27_6 C 0.9652(10) 0.8400(5) 0.1572(3)
C28_6 C 0.9580(10) 0.8328(5) 0.1210(3)
H16_6 H 0.9150 0.7990 0.1115
C34_6 C 0.7805(14) 0.7522(6) 0.2353(3)
S3_6 S 0.8108(5) 0.69056(17) 0.20729(10)
S4_6 S 0.8381(4) 0.82441(16) 0.21926(9)
H21_6 H 0.0394 0.9338 0.5231
C4_7 C 0.0642(10) 0.6959(5) 0.6459(2)
C5_7 C 0.1502(10) 0.6738(5) 0.6217(3)
H3_7 H 0.2368 0.6829 0.6240
C6_7 C 0.1090(10) 0.6377(5) 0.5935(3)
H4_7 H 0.1678 0.6220 0.5776
C8_7 C 0.1092(11) 0.7345(5) 0.6752(3)
C9_7 C 0.0945(11) 0.7943(5) 0.6804(3)
C10_7 C 0.0348(10) 0.8400(5) 0.6572(3)
C11_7 C 0.0420(10) 0.8328(5) 0.6210(3)
H5_7 H 0.0850 0.7990 0.6115
C17_7 C 0.2195(14) 0.7522(6) 0.7353(3)
O1_4 O 0.0227(9) 0.5682(4) 0.5382(2)
S1_7 S 0.1892(5) 0.69056(17) 0.70729(10)
S2_7 S 0.1619(4) 0.82441(16) 0.71926(9)
C18_7 C 0.5169(9) 0.8741(4) 0.9103(2)
C19_7 C 0.6035(11) 0.8531(6) 0.8870(3)
H12_7 H 0.6897 0.8626 0.8899
C20_7 C 0.5637(11) 0.8167(6) 0.8582(3)
H13_7 H 0.6233 0.8016 0.8423
C21_7 C 0.4358(10) 0.8041(5) 0.8541(2)
C22_7 C 0.3498(10) 0.8262(5) 0.8783(3)
H14_7 H 0.2632 0.8171 0.8760
C23_7 C 0.3910(10) 0.8623(5) 0.9065(3)
H15_7 H 0.3322 0.8780 0.9224
C24_7 C 0.5595(11) 0.9129(5) 0.9411(3)
C25_7 C 0.3908(11) 0.7655(5) 0.8248(3)
C26_7 C 0.4055(11) 0.7057(5) 0.8196(3)
C27_7 C 0.4652(10) 0.6600(5) 0.8428(3)
C28_7 C 0.4580(10) 0.6672(5) 0.8790(3)
H16_7 H 0.4150 0.7010 0.8885
C29_7 C 0.5147(10) 0.6244(5) 0.9005(3)
H17_7 H 0.5074 0.6288 0.9246
C30_7 C 0.5807(9) 0.5761(5) 0.8874(3)
C31_7 C 0.5884(11) 0.5671(5) 0.8515(3)
H18_7 H 0.6317 0.5332 0.8422
C32_7 C 0.5298(11) 0.6102(5) 0.8300(3)
H19_7 H 0.5346 0.6048 0.8060
C33_7 C 0.6452(9) 0.5322(5) 0.9124(3)
C34_7 C 0.2805(14) 0.7478(6) 0.7647(3)
O10_3 O 0.7109(8) 0.4877(4) 0.8961(2)
H20_3 H 0.7452 0.4652 0.9106
S3_7 S 0.3108(5) 0.80944(17) 0.79271(10)
S4_7 S 0.3381(4) 0.67559(16) 0.78074(9)
C1_7 C 0.9831(9) 0.6259(4) 0.5897(2)
C2_7 C 0.8965(11) 0.6469(6) 0.6130(3)
H1_7 H 0.8103 0.6374 0.6101
C3_7 C 0.9363(11) 0.6833(6) 0.6418(3)
H2_7 H 0.8767 0.6984 0.6577
C7_7 C 0.9405(11) 0.5871(5) 0.5589(3)
C12_7 C 0.9853(10) 0.8756(5) 0.5995(3)
H6_7 H 0.9926 0.8712 0.5754
C13_7 C 0.9193(9) 0.9239(5) 0.6126(3)
C14_7 C 0.9116(11) 0.9329(5) 0.6485(3)
H7_7 H 0.8683 0.9668 0.6578
C15_7 C 0.9702(11) 0.8898(5) 0.6700(3)
H8_7 H 0.9654 0.8952 0.6940
C16_7 C 0.8548(9) 0.9678(5) 0.5876(3)
O2_7 O 0.8241(7) 0.5730(3) 0.55600(19)
O5_11 O 0.5749(11) 0.5652(5) 0.5000
H10_7 H 0.5394 0.5662 0.5231
O6_11 O 0.7216(14) 0.3617(8) 0.5000
H11_7 H 0.6887 0.3526 0.4804
H21_7 H 0.5394 0.5662 0.4769
H22_7 H 0.6887 0.3526 0.5196
O11_4 O 0.9773(9) 0.4318(4) 0.5382(2)
C1_8 C 0.0169(9) 0.3741(4) 0.5897(2)
C2_8 C 0.1035(11) 0.3531(6) 0.6130(3)
H1_8 H 0.1897 0.3626 0.6101
C3_8 C 0.0637(11) 0.3167(6) 0.6418(3)
H2_8 H 0.1233 0.3016 0.6577
C7_8 C 0.0595(11) 0.4129(5) 0.5589(3)
C12_8 C 0.0147(10) 0.1244(5) 0.5995(3)
H6_8 H 0.0074 0.1288 0.5754
C13_8 C 0.0807(9) 0.0761(5) 0.6126(3)
C14_8 C 0.0884(11) 0.0671(5) 0.6485(3)
H7_8 H 0.1317 0.0332 0.6578
C15_8 C 0.0298(11) 0.1102(5) 0.6700(3)
H8_8 H 0.0346 0.1048 0.6940
C16_8 C 0.1452(9) 0.0322(5) 0.5876(3)
O2_8 O 0.1759(7) 0.4270(3) 0.55600(19)
O5_12 O 0.4251(11) 0.4348(5) 0.5000
H10_8 H 0.4606 0.4338 0.5231
O6_12 O 0.2784(14) 0.6383(8) 0.5000
H11_8 H 0.3113 0.6474 0.4804
H21_8 H 0.4606 0.4338 0.4769
H22_8 H 0.3113 0.6474 0.5196
C4_8 C 0.9358(10) 0.3041(5) 0.6459(2)
C5_8 C 0.8498(10) 0.3262(5) 0.6217(3)
H3_8 H 0.7632 0.3171 0.6240
C6_8 C 0.8910(10) 0.3623(5) 0.5935(3)
H4_8 H 0.8322 0.3780 0.5776
C8_8 C 0.8908(11) 0.2655(5) 0.6752(3)
C9_8 C 0.9055(11) 0.2057(5) 0.6804(3)
C10_8 C 0.9652(10) 0.1600(5) 0.6572(3)
C11_8 C 0.9580(10) 0.1672(5) 0.6210(3)
H5_8 H 0.9150 0.2010 0.6115
C17_8 C 0.7805(14) 0.2478(6) 0.7353(3)
S1_8 S 0.8108(5) 0.30944(17) 0.70729(10)
S2_8 S 0.8381(4) 0.17559(16) 0.71926(9)
C18_8 C 0.4831(9) 0.1259(4) 0.9103(2)
C19_8 C 0.3965(11) 0.1469(6) 0.8870(3)
H12_8 H 0.3103 0.1374 0.8899
C20_8 C 0.4363(11) 0.1833(6) 0.8582(3)
H13_8 H 0.3767 0.1984 0.8423
C21_8 C 0.5642(10) 0.1959(5) 0.8541(2)
C22_8 C 0.6502(10) 0.1738(5) 0.8783(3)
H14_8 H 0.7368 0.1829 0.8760
C23_8 C 0.6090(10) 0.1377(5) 0.9065(3)
H15_8 H 0.6678 0.1220 0.9224
C24_8 C 0.4405(11) 0.0871(5) 0.9411(3)
C25_8 C 0.6092(11) 0.2345(5) 0.8248(3)
C26_8 C 0.5945(11) 0.2943(5) 0.8196(3)
C27_8 C 0.5348(10) 0.3400(5) 0.8428(3)
C28_8 C 0.5420(10) 0.3328(5) 0.8790(3)
H16_8 H 0.5850 0.2990 0.8885
C29_8 C 0.4853(10) 0.3756(5) 0.9005(3)
H17_8 H 0.4926 0.3712 0.9246
C30_8 C 0.4193(9) 0.4239(5) 0.8874(3)
C31_8 C 0.4116(11) 0.4329(5) 0.8515(3)
H18_8 H 0.3683 0.4668 0.8422
C32_8 C 0.4702(11) 0.3898(5) 0.8300(3)
H19_8 H 0.4654 0.3952 0.8060
C33_8 C 0.3548(9) 0.4678(5) 0.9124(3)
C34_8 C 0.7195(14) 0.2522(6) 0.7647(3)
O10_4 O 0.2891(8) 0.5123(4) 0.8961(2)
H20_4 H 0.2548 0.5348 0.9106
S3_8 S 0.6892(5) 0.19056(17) 0.79271(10)
S4_8 S 0.6619(4) 0.32441(16) 0.78074(9)
O4_6 O 0.7891(8) 0.9877(4) 0.8961(2)
H9_6 H 0.7548 0.9652 0.9106
O10_5 O 0.2109(8) 0.9877(4) 0.3961(2)
H20_5 H 0.2452 0.9652 0.4106
O10_6 O 0.7891(8) 0.0123(4) 0.3961(2)
H20_6 H 0.7548 0.0348 0.4106
O10_7 O 0.7891(8) 0.9877(4) 0.1039(2)
H20_7 H 0.7548 0.9652 0.0894
O10_8 O 0.2109(8) 0.0123(4) 0.1039(2)
H20_8 H 0.2452 0.0348 0.0894
O4_7 O 0.7891(8) 0.0123(4) 0.6039(2)
H9_7 H 0.7548 0.0348 0.5894
O4_8 O 0.2109(8) 0.9877(4) 0.6039(2)
H9_8 H 0.2452 0.9652 0.5894
loop_
_geom_bond_atom_site_label_1
_geom_bond_atom_site_label_2
_geom_bond_site_symmetry_1
_geom_bond_site_symmetry_2
H9 O4 1_555 1_555
O5 Ba1 1_555 1_555
O6 Ba1 1_555 1_555
H11 O6 1_555 1_555
H21 O5 1_555 1_555
O12 Ba1 1_555 1_555
O14 Ba1 1_555 1_555
O15 Ba1 1_555 1_555
C1 C2 1_555 1_555
C2 H1 1_555 1_555
C3 C2 1_555 1_555
H2 C3 1_555 1_555
C7 C1 1_555 1_555
H6 C12 1_555 1_555
C13 C12 1_555 1_555
C14 C13 1_555 1_555
H7 C14 1_555 1_555
H8 C15 1_555 1_555
C16 C13 1_555 1_555
O2 Ba1_2 1_555 1_555
O3 C16 1_555 1_555
O5_2 Ba1_2 1_555 1_555
H10 O5_2 1_555 1_555
O6_2 Ba1_2 1_555 1_555
H22 O6_2 1_555 1_555
Ba3_2 O3 1_555 1_555
O11 Ba1_2 1_555 1_555
O16 Ba1_2 1_555 1_555
C7 O2 1_555 1_555
C14 C15 1_555 1_555
Ba2 O13 1_555 1_555
C5 C4 1_555 1_555
H3 C5 1_555 1_555
H4 C6 1_555 1_555
C8 C4 1_555 1_555
C9 C8 1_555 1_555
C10 C9 1_555 1_555
C11 C10 1_555 1_555
H5 C11 1_555 1_555
C17 S1 1_555 1_555
S1 C8 1_555 1_555
S2 C9 1_555 1_555
C18 C19 1_555 1_555
C19 H12 1_555 1_555
C20 C19 1_555 1_555
H13 C20 1_555 1_555
C21 C20 1_555 1_555
C22 C21 1_555 1_555
H14 C22 1_555 1_555
C23 C18 1_555 1_555
H15 C23 1_555 1_555
C24 C18 1_555 1_555
C25 C21 1_555 1_555
C26 C25 1_555 1_555
C27 C26 1_555 1_555
C28 C27 1_555 1_555
H16 C28 1_555 1_555
C29 C28 1_555 1_555
H17 C29 1_555 1_555
C30 C29 1_555 1_555
C31 C30 1_555 1_555
H18 C31 1_555 1_555
C32 C27 1_555 1_555
H19 C32 1_555 1_555
C33 C30 1_555 1_555
C34 C17 1_555 1_555
O7 C24 1_555 1_555
O8 C24 1_555 1_555
O9 C33 1_555 1_555
O10 C33 1_555 1_555
H20 O10 1_555 1_555
S3 C25 1_555 1_555
S4 C26 1_555 1_555
Ba2_2 O1 1_555 1_555
Ba4 O7 1_555 1_555
Ba6 O9 1_555 1_555
C5 C6 1_555 1_555
C17 S2 1_555 1_555
C22 C23 1_555 1_555
C31 C32 1_555 1_555
C34 S3 1_555 1_555
C34 S4 1_555 1_555
C5_2 C4_2 1_555 1_555
H3_2 C5_2 1_555 1_555
H4_2 C6_2 1_555 1_555
C8_2 C4_2 1_555 1_555
C9_2 C8_2 1_555 1_555
C10_2 C9_2 1_555 1_555
C11_2 C10_2 1_555 1_555
H5_2 C11_2 1_555 1_555
C17_2 S1_2 1_555 1_555
S1_2 C8_2 1_555 1_555
S2_2 C9_2 1_555 1_555
C18_2 C19_2 1_555 1_555
C19_2 H12_2 1_555 1_555
C20_2 C19_2 1_555 1_555
H13_2 C20_2 1_555 1_555
C21_2 C20_2 1_555 1_555
C22_2 C21_2 1_555 1_555
H14_2 C22_2 1_555 1_555
C23_2 C18_2 1_555 1_555
H15_2 C23_2 1_555 1_555
C24_2 C18_2 1_555 1_555
C25_2 C21_2 1_555 1_555
C26_2 C25_2 1_555 1_555
C27_2 C26_2 1_555 1_555
C28_2 C27_2 1_555 1_555
H16_2 C28_2 1_555 1_555
C29_2 C28_2 1_555 1_555
H17_2 C29_2 1_555 1_555
C30_2 C29_2 1_555 1_555
C31_2 C30_2 1_555 1_555
H18_2 C31_2 1_555 1_555
C32_2 C27_2 1_555 1_555
H19_2 C32_2 1_555 1_555
C33_2 C30_2 1_555 1_555
C34_2 C17_2 1_555 1_555
O7_2 C24_2 1_555 1_555
O8_2 C24_2 1_555 1_555
O9_2 C33_2 1_555 1_555
O10_2 C33_2 1_555 1_555
H20_2 O10_2 1_555 1_555
S3_2 C25_2 1_555 1_555
S4_2 C26_2 1_555 1_555
Ba5 O7_2 1_555 1_555
Ba6_2 O9_2 1_555 1_555
C5_2 C6_2 1_555 1_555
C17_2 S2_2 1_555 1_555
C22_2 C23_2 1_555 1_555
C31_2 C32_2 1_555 1_555
C34_2 S3_2 1_555 1_555
C34_2 S4_2 1_555 1_555
O5_3 Ba2 1_555 1_555
O6_3 Ba2 1_555 1_555
H11_2 O6_3 1_555 1_555
H21_2 O5_3 1_555 1_555
O14_2 Ba2 1_555 1_555
O15_2 Ba2 1_555 1_555
C1_2 C2_2 1_555 1_555
C2_2 H1_2 1_555 1_555
C3_2 C2_2 1_555 1_555
H2_2 C3_2 1_555 1_555
C7_2 C1_2 1_555 1_555
H6_2 C12_2 1_555 1_555
C13_2 C12_2 1_555 1_555
C14_2 C13_2 1_555 1_555
H7_2 C14_2 1_555 1_555
H8_2 C15_2 1_555 1_555
C16_2 C13_2 1_555 1_555
O2_2 Ba2_2 1_555 1_555
O3_2 C16_2 1_555 1_555
O5_4 Ba2_2 1_555 1_555
H10_2 O5_4 1_555 1_555
O6_4 Ba2_2 1_555 1_555
H22_2 O6_4 1_555 1_555
Ba3_4 O3_2 1_555 1_555
O16_2 Ba2_2 1_555 1_555
C7_2 O2_2 1_555 1_555
C14_2 C15_2 1_555 1_555
C18_3 C19_3 1_555 1_555
C19_3 H12_3 1_555 1_555
C20_3 C19_3 1_555 1_555
H13_3 C20_3 1_555 1_555
C24_3 C18_3 1_555 1_555
H17_3 C29_3 1_555 1_555
C30_3 C29_3 1_555 1_555
C31_3 C30_3 1_555 1_555
H18_3 C31_3 1_555 1_555
H19_3 C32_3 1_555 1_555
C33_3 C30_3 1_555 1_555
O8_3 C24_3 1_555 1_555
O9_3 C33_3 1_555 1_555
Ba5 O9_3 1_555 1_555
C31_3 C32_3 1_555 1_555
O8_3 Ba6 1_555 1_555
C1_3 C2_3 1_555 1_555
C2_3 H1_3 1_555 1_555
C3_3 C2_3 1_555 1_555
H2_3 C3_3 1_555 1_555
C4_3 C3_3 1_555 1_555
C5_3 C4_3 1_555 1_555
H3_3 C5_3 1_555 1_555
C6_3 C1_3 1_555 1_555
H4_3 C6_3 1_555 1_555
C7_3 C1_3 1_555 1_555
C8_3 C4_3 1_555 1_555
C9_3 C8_3 1_555 1_555
C10_3 C9_3 1_555 1_555
C11_3 C10_3 1_555 1_555
H5_3 C11_3 1_555 1_555
C12_3 C11_3 1_555 1_555
H6_3 C12_3 1_555 1_555
C13_3 C12_3 1_555 1_555
C14_3 C13_3 1_555 1_555
H7_3 C14_3 1_555 1_555
C15_3 C10_3 1_555 1_555
H8_3 C15_3 1_555 1_555
C16_3 C13_3 1_555 1_555
C17_3 S1_3 1_555 1_555
O1_2 C7_3 1_555 1_555
O15 C16_3 1_555 1_555
O4_2 C16_3 1_555 1_555
H9_2 O4_2 1_555 1_555
H10_3 O5_5 1_555 1_555
S1_3 C8_3 1_555 1_555
S2_3 C9_3 1_555 1_555
C22_3 C21_3 1_555 1_555
H14_3 C22_3 1_555 1_555
H15_3 C23_3 1_555 1_555
C25_3 C21_3 1_555 1_555
C26_3 C25_3 1_555 1_555
C27_3 C26_3 1_555 1_555
C28_3 C27_3 1_555 1_555
H16_3 C28_3 1_555 1_555
C34_3 C17_3 1_555 1_555
S3_3 C25_3 1_555 1_555
S4_3 C26_3 1_555 1_555
Ba3_3 O1_2 1_555 1_555
Ba6_2 O7_3 1_555 1_555
C5_3 C6_3 1_555 1_555
C7_3 O2_3 1_555 1_555
C14_3 C15_3 1_555 1_555
C17_3 S2_3 1_555 1_555
C22_3 C23_3 1_555 1_555
C34_3 S3_3 1_555 1_555
C34_3 S4_3 1_555 1_555
H21_3 O5_6 1_555 1_555
Ba3_4 O13_2 1_555 1_555
O6_5 Ba3 1_555 1_555
H22_3 O6_5 1_555 1_555
O11_2 Ba3 1_555 1_555
O16_3 Ba3 1_555 1_555
O6_6 Ba3_2 1_555 1_555
H11_3 O6_6 1_555 1_555
O12_2 Ba3_2 1_555 1_555
O6_7 Ba3_3 1_555 1_555
H22_4 O6_7 1_555 1_555
O16_4 Ba3_3 1_555 1_555
O6_8 Ba3_4 1_555 1_555
H11_4 O6_8 1_555 1_555
C1_4 C2_4 1_555 1_555
C2_4 H1_4 1_555 1_555
C3_4 C2_4 1_555 1_555
H2_4 C3_4 1_555 1_555
C4_4 C3_4 1_555 1_555
C5_4 C4_4 1_555 1_555
H3_4 C5_4 1_555 1_555
C6_4 C1_4 1_555 1_555
H4_4 C6_4 1_555 1_555
C7_4 C1_4 1_555 1_555
C8_4 C4_4 1_555 1_555
C9_4 C8_4 1_555 1_555
C10_4 C9_4 1_555 1_555
C11_4 C10_4 1_555 1_555
H5_4 C11_4 1_555 1_555
C12_4 C11_4 1_555 1_555
H6_4 C12_4 1_555 1_555
C13_4 C12_4 1_555 1_555
C14_4 C13_4 1_555 1_555
H7_4 C14_4 1_555 1_555
C15_4 C10_4 1_555 1_555
H8_4 C15_4 1_555 1_555
C16_4 C13_4 1_555 1_555
C17_4 S1_4 1_555 1_555
O11_2 C7_4 1_555 1_555
O15_2 C16_4 1_555 1_555
O4_3 C16_4 1_555 1_555
H9_3 O4_3 1_555 1_555
H10_4 O5_7 1_555 1_555
S1_4 C8_4 1_555 1_555
S2_4 C9_4 1_555 1_555
C22_4 C21_4 1_555 1_555
H14_4 C22_4 1_555 1_555
H15_4 C23_4 1_555 1_555
C25_4 C21_4 1_555 1_555
C26_4 C25_4 1_555 1_555
C27_4 C26_4 1_555 1_555
C28_4 C27_4 1_555 1_555
H16_4 C28_4 1_555 1_555
C34_4 C17_4 1_555 1_555
S3_4 C25_4 1_555 1_555
S4_4 C26_4 1_555 1_555
Ba6 O7_4 1_555 1_555
C5_4 C6_4 1_555 1_555
C7_4 O2_4 1_555 1_555
C14_4 C15_4 1_555 1_555
C17_4 S2_4 1_555 1_555
C22_4 C23_4 1_555 1_555
C34_4 S3_4 1_555 1_555
C34_4 S4_4 1_555 1_555
H21_4 O5_8 1_555 1_555
C18_4 C19_4 1_555 1_555
C19_4 H12_4 1_555 1_555
C20_4 C19_4 1_555 1_555
H13_4 C20_4 1_555 1_555
C24_4 C18_4 1_555 1_555
H17_4 C29_4 1_555 1_555
C30_4 C29_4 1_555 1_555
C31_4 C30_4 1_555 1_555
H18_4 C31_4 1_555 1_555
H19_4 C32_4 1_555 1_555
C33_4 C30_4 1_555 1_555
O8_4 C24_4 1_555 1_555
O9_4 C33_4 1_555 1_555
Ba4 O9_4 1_555 1_555
C31_4 C32_4 1_555 1_555
O8_4 Ba6_2 1_555 1_555
C1_5 C2_5 1_555 1_555
C2_5 H1_5 1_555 1_555
C3_5 C2_5 1_555 1_555
H2_5 C3_5 1_555 1_555
C4_5 C3_5 1_555 1_555
C5_5 C4_5 1_555 1_555
H3_5 C5_5 1_555 1_555
C6_5 C1_5 1_555 1_555
H4_5 C6_5 1_555 1_555
C7_5 C1_5 1_555 1_555
C8_5 C4_5 1_555 1_555
C9_5 C8_5 1_555 1_555
C10_5 C9_5 1_555 1_555
C11_5 C10_5 1_555 1_555
H5_5 C11_5 1_555 1_555
C12_5 C11_5 1_555 1_555
H6_5 C12_5 1_555 1_555
C13_5 C12_5 1_555 1_555
C14_5 C13_5 1_555 1_555
H7_5 C14_5 1_555 1_555
C15_5 C10_5 1_555 1_555
H8_5 C15_5 1_555 1_555
C16_5 C13_5 1_555 1_555
C17_5 S1_5 1_555 1_555
O1_3 C7_5 1_555 1_555
O3_3 C16_5 1_555 1_555
O4_4 C16_5 1_555 1_555
H9_4 O4_4 1_555 1_555
H10_5 O5_9 1_555 1_555
S1_5 C8_5 1_555 1_555
S2_5 C9_5 1_555 1_555
C22_5 C21_5 1_555 1_555
H14_5 C22_5 1_555 1_555
H15_5 C23_5 1_555 1_555
C25_5 C21_5 1_555 1_555
C26_5 C25_5 1_555 1_555
C27_5 C26_5 1_555 1_555
C28_5 C27_5 1_555 1_555
H16_5 C28_5 1_555 1_555
C34_5 C17_5 1_555 1_555
S3_5 C25_5 1_555 1_555
S4_5 C26_5 1_555 1_555
H21_5 O5_9 1_555 1_555
Ba5 O1_3 1_555 1_555
Ba6_2 O3_3 1_555 1_555
C5_5 C6_5 1_555 1_555
C7_5 O2_5 1_555 1_555
C14_5 C15_5 1_555 1_555
C17_5 S2_5 1_555 1_555
C22_5 C23_5 1_555 1_555
C34_5 S3_5 1_555 1_555
C34_5 S4_5 1_555 1_555
O6_9 Ba4 1_555 1_555
H11_5 O6_9 1_555 1_555
H22_5 O6_9 1_555 1_555
O11_3 Ba4 1_555 1_555
O15_3 Ba4 1_555 1_555
C18_5 C19_5 1_555 1_555
C19_5 H12_5 1_555 1_555
C20_5 C19_5 1_555 1_555
H13_5 C20_5 1_555 1_555
C24_5 C18_5 1_555 1_555
H17_5 C29_5 1_555 1_555
C30_5 C29_5 1_555 1_555
C31_5 C30_5 1_555 1_555
H18_5 C31_5 1_555 1_555
H19_5 C32_5 1_555 1_555
C33_5 C30_5 1_555 1_555
O14_2 C24_5 1_555 1_555
O16_4 C33_5 1_555 1_555
C31_5 C32_5 1_555 1_555
C18_6 C19_6 1_555 1_555
C19_6 H12_6 1_555 1_555
C20_6 C19_6 1_555 1_555
H13_6 C20_6 1_555 1_555
C24_6 C18_6 1_555 1_555
H17_6 C29_6 1_555 1_555
C30_6 C29_6 1_555 1_555
C31_6 C30_6 1_555 1_555
H18_6 C31_6 1_555 1_555
H19_6 C32_6 1_555 1_555
C33_6 C30_6 1_555 1_555
O14 C24_6 1_555 1_555
O16_3 C33_6 1_555 1_555
C31_6 C32_6 1_555 1_555
O6_10 Ba5 1_555 1_555
H11_6 O6_10 1_555 1_555
H22_6 O6_10 1_555 1_555
O15_4 Ba5 1_555 1_555
C1_6 C2_6 1_555 1_555
C2_6 H1_6 1_555 1_555
C3_6 C2_6 1_555 1_555
H2_6 C3_6 1_555 1_555
C4_6 C3_6 1_555 1_555
C5_6 C4_6 1_555 1_555
H3_6 C5_6 1_555 1_555
C6_6 C1_6 1_555 1_555
H4_6 C6_6 1_555 1_555
C7_6 C1_6 1_555 1_555
C8_6 C4_6 1_555 1_555
C9_6 C8_6 1_555 1_555
C10_6 C9_6 1_555 1_555
C11_6 C10_6 1_555 1_555
H5_6 C11_6 1_555 1_555
C12_6 C11_6 1_555 1_555
H6_6 C12_6 1_555 1_555
C13_6 C12_6 1_555 1_555
C14_6 C13_6 1_555 1_555
H7_6 C14_6 1_555 1_555
C15_6 C10_6 1_555 1_555
H8_6 C15_6 1_555 1_555
C16_6 C13_6 1_555 1_555
C17_6 S1_6 1_555 1_555
O11_3 C7_6 1_555 1_555
O3_4 C16_6 1_555 1_555
O4_5 C16_6 1_555 1_555
H9_5 O4_5 1_555 1_555
H10_6 O5_10 1_555 1_555
S1_6 C8_6 1_555 1_555
S2_6 C9_6 1_555 1_555
C22_6 C21_6 1_555 1_555
H14_6 C22_6 1_555 1_555
H15_6 C23_6 1_555 1_555
C25_6 C21_6 1_555 1_555
C26_6 C25_6 1_555 1_555
C27_6 C26_6 1_555 1_555
C28_6 C27_6 1_555 1_555
H16_6 C28_6 1_555 1_555
C34_6 C17_6 1_555 1_555
S3_6 C25_6 1_555 1_555
S4_6 C26_6 1_555 1_555
H21_6 O5_10 1_555 1_555
Ba6 O3_4 1_555 1_555
C5_6 C6_6 1_555 1_555
C7_6 O2_6 1_555 1_555
C14_6 C15_6 1_555 1_555
C17_6 S2_6 1_555 1_555
C22_6 C23_6 1_555 1_555
C34_6 S3_6 1_555 1_555
C34_6 S4_6 1_555 1_555
C5_7 C4_7 1_555 1_555
H3_7 C5_7 1_555 1_555
H4_7 C6_7 1_555 1_555
C8_7 C4_7 1_555 1_555
C9_7 C8_7 1_555 1_555
C10_7 C9_7 1_555 1_555
C11_7 C10_7 1_555 1_555
H5_7 C11_7 1_555 1_555
C17_7 S1_7 1_555 1_555
S1_7 C8_7 1_555 1_555
S2_7 C9_7 1_555 1_555
C18_7 C19_7 1_555 1_555
C19_7 H12_7 1_555 1_555
C20_7 C19_7 1_555 1_555
H13_7 C20_7 1_555 1_555
C21_7 C20_7 1_555 1_555
C22_7 C21_7 1_555 1_555
H14_7 C22_7 1_555 1_555
C23_7 C18_7 1_555 1_555
H15_7 C23_7 1_555 1_555
C24_7 C18_7 1_555 1_555
C25_7 C21_7 1_555 1_555
C26_7 C25_7 1_555 1_555
C27_7 C26_7 1_555 1_555
C28_7 C27_7 1_555 1_555
H16_7 C28_7 1_555 1_555
C29_7 C28_7 1_555 1_555
H17_7 C29_7 1_555 1_555
C30_7 C29_7 1_555 1_555
C31_7 C30_7 1_555 1_555
H18_7 C31_7 1_555 1_555
C32_7 C27_7 1_555 1_555
H19_7 C32_7 1_555 1_555
C33_7 C30_7 1_555 1_555
C34_7 C17_7 1_555 1_555
O12_2 C24_7 1_555 1_555
O14_4 C24_7 1_555 1_555
O16_2 C33_7 1_555 1_555
O10_3 C33_7 1_555 1_555
H20_3 O10_3 1_555 1_555
S3_7 C25_7 1_555 1_555
S4_7 C26_7 1_555 1_555
Ba6 O1_4 1_555 1_555
C5_7 C6_7 1_555 1_555
C17_7 S2_7 1_555 1_555
C22_7 C23_7 1_555 1_555
C31_7 C32_7 1_555 1_555
C34_7 S3_7 1_555 1_555
C34_7 S4_7 1_555 1_555
C1_7 C2_7 1_555 1_555
C2_7 H1_7 1_555 1_555
C3_7 C2_7 1_555 1_555
H2_7 C3_7 1_555 1_555
C7_7 C1_7 1_555 1_555
H6_7 C12_7 1_555 1_555
C13_7 C12_7 1_555 1_555
C14_7 C13_7 1_555 1_555
H7_7 C14_7 1_555 1_555
H8_7 C15_7 1_555 1_555
C16_7 C13_7 1_555 1_555
O2_7 Ba6_2 1_555 1_555
O15_3 C16_7 1_555 1_555
O5_11 Ba6_2 1_555 1_555
H10_7 O5_11 1_555 1_555
O6_11 Ba6_2 1_555 1_555
H11_7 O6_11 1_555 1_555
H21_7 O5_11 1_555 1_555
H22_7 O6_11 1_555 1_555
O11_4 Ba6_2 1_555 1_555
C7_7 O2_7 1_555 1_555
C14_7 C15_7 1_555 1_555
C1_8 C2_8 1_555 1_555
C2_8 H1_8 1_555 1_555
C3_8 C2_8 1_555 1_555
H2_8 C3_8 1_555 1_555
C7_8 C1_8 1_555 1_555
H6_8 C12_8 1_555 1_555
C13_8 C12_8 1_555 1_555
C14_8 C13_8 1_555 1_555
H7_8 C14_8 1_555 1_555
H8_8 C15_8 1_555 1_555
C16_8 C13_8 1_555 1_555
O2_8 Ba6 1_555 1_555
O15_4 C16_8 1_555 1_555
O5_12 Ba6 1_555 1_555
H10_8 O5_12 1_555 1_555
O6_12 Ba6 1_555 1_555
H11_8 O6_12 1_555 1_555
H21_8 O5_12 1_555 1_555
H22_8 O6_12 1_555 1_555
C7_8 O2_8 1_555 1_555
C14_8 C15_8 1_555 1_555
C5_8 C4_8 1_555 1_555
H3_8 C5_8 1_555 1_555
H4_8 C6_8 1_555 1_555
C8_8 C4_8 1_555 1_555
C9_8 C8_8 1_555 1_555
C10_8 C9_8 1_555 1_555
C11_8 C10_8 1_555 1_555
H5_8 C11_8 1_555 1_555
C17_8 S1_8 1_555 1_555
S1_8 C8_8 1_555 1_555
S2_8 C9_8 1_555 1_555
C18_8 C19_8 1_555 1_555
C19_8 H12_8 1_555 1_555
C20_8 C19_8 1_555 1_555
H13_8 C20_8 1_555 1_555
C21_8 C20_8 1_555 1_555
C22_8 C21_8 1_555 1_555
H14_8 C22_8 1_555 1_555
C23_8 C18_8 1_555 1_555
H15_8 C23_8 1_555 1_555
C24_8 C18_8 1_555 1_555
C25_8 C21_8 1_555 1_555
C26_8 C25_8 1_555 1_555
C27_8 C26_8 1_555 1_555
C28_8 C27_8 1_555 1_555
H16_8 C28_8 1_555 1_555
C29_8 C28_8 1_555 1_555
H17_8 C29_8 1_555 1_555
C30_8 C29_8 1_555 1_555
C31_8 C30_8 1_555 1_555
H18_8 C31_8 1_555 1_555
C32_8 C27_8 1_555 1_555
H19_8 C32_8 1_555 1_555
C33_8 C30_8 1_555 1_555
C34_8 C17_8 1_555 1_555
O13_2 C24_8 1_555 1_555
O14_3 C24_8 1_555 1_555
O16 C33_8 1_555 1_555
O10_4 C33_8 1_555 1_555
H20_4 O10_4 1_555 1_555
S3_8 C25_8 1_555 1_555
S4_8 C26_8 1_555 1_555
C5_8 C6_8 1_555 1_555
C17_8 S2_8 1_555 1_555
C22_8 C23_8 1_555 1_555
C31_8 C32_8 1_555 1_555
C34_8 S3_8 1_555 1_555
C34_8 S4_8 1_555 1_555
H9_6 O4_6 1_555 1_555
H20_5 O10_5 1_555 1_555
H20_6 O10_6 1_555 1_555
H20_7 O10_7 1_555 1_555
H20_8 O10_8 1_555 1_555
H9_7 O4_7 1_555 1_555
H9_8 O4_8 1_555 1_555

#END
