
###############################################################################
#
# This file contains modified crystal structure data generated from the
# MOF subset of the Cambridge Structural Database (CSD) v543 
# hosted by the Cambridge Crystallographic Data Centre (CCDC).
#
# This work is licensed under the Creative Commons
# Attribution-NonCommercial-ShareAlike 4.0 International License.
# To view a copy of this license, visit
# http://creativecommons.org/licenses/by-nc-sa/4.0/
# or send a letter to
# Creative Commons, PO Box 1866, Mountain View, CA 94042, USA.
#
# CIF created using the CSD Python API on 29 September 2022
# The structure has been converted into the P1 space group
# The structure has a 3D framework
# The original CSD entry GUFHUN is in the orthorhombic crystal system
# The framework has been calculated to contain at least 10.0% void space
# The void calculation uses a probe of radius 1.32A, grid spacing 0.4
# The framework is charged, counterions have been retained in the structure
# H atom positions have been added when not included in the experimental data
#
###############################################################################

data_GUFHUN
_chemical_formula_moiety         '(C240 H96 F16 In13 O86 12-)n'
_symmetry_cell_setting           triclinic
_symmetry_space_group_name_H-M   'P 1'
_symmetry_Int_Tables_number      1
_space_group_name_Hall           'P 1'
loop_
_symmetry_equiv_pos_site_id
_symmetry_equiv_pos_as_xyz
1 x,y,z
_cell_length_a                   18.984(4)
_cell_length_b                   26.394(6)
_cell_length_c                   20.595(5)
_cell_angle_alpha                90
_cell_angle_beta                 90
_cell_angle_gamma                90
_cell_volume                     10319.4
loop_
_atom_site_label
_atom_site_type_symbol
_atom_site_fract_x
_atom_site_fract_y
_atom_site_fract_z
In1 In 0.250000 0.500000 0.38465(3)
In2 In 0.500000 0.250000 0.750000
F1 F 0.45379(18) 0.43081(14) 0.41262(15)
O1 O 0.3264(2) 0.48505(14) 0.46458(17)
O2 O 0.2638(2) 0.41996(16) 0.43314(18)
O3 O 0.5041(3) 0.31584(18) 0.6782(2)
O4 O 0.4069(3) 0.27684(18) 0.6913(2)
O5 O 0.1606(2) 0.45409(16) 0.33711(17)
O6 O 0.1723(2) 0.53420(17) 0.31404(17)
C1 C 0.3091(3) 0.4391(2) 0.4694(2)
C2 C 0.3476(3) 0.4055(2) 0.5193(2)
C3 C 0.4137(3) 0.4166(2) 0.5443(2)
C4 C 0.4572(3) 0.4602(2) 0.5205(3)
C5 C 0.4760(3) 0.4657(2) 0.4563(3)
C6 C 0.5191(3) 0.5039(2) 0.4345(3)
C7 C 0.4421(3) 0.3848(2) 0.5899(2)
H1 H 0.487213 0.391670 0.605260
C8 C 0.4074(4) 0.3437(2) 0.6137(3)
C9 C 0.4403(4) 0.3100(3) 0.6654(3)
C10 C 0.3411(4) 0.3324(2) 0.5888(3)
H2 H 0.317191 0.303917 0.603745
C11 C 0.3099(3) 0.3632(2) 0.5415(3)
H3 H 0.265386 0.355808 0.525180
C12 C 0.1374(3) 0.4936(3) 0.3110(2)
C13 C 0.0668(3) 0.4934(2) 0.2785(2)
C14 C 0.0326(3) 0.4471(2) 0.2648(2)
H4 H 0.053965 0.416556 0.275814
C15 C 0.0339(3) 0.5387(2) 0.2642(2)
H5 H 0.056380 0.569217 0.273334
F2 F 0.54621(18) 0.56919(14) 0.58738(15)
O7 O 0.6736(2) 0.51495(14) 0.53542(17)
O8 O 0.7362(2) 0.58004(16) 0.56686(18)
O9 O 0.4959(3) 0.68416(18) 0.3218(2)
O10 O 0.5931(3) 0.72316(18) 0.3087(2)
C16 C 0.6909(3) 0.5609(2) 0.5306(2)
C17 C 0.6524(3) 0.5945(2) 0.4807(2)
C18 C 0.5863(3) 0.5834(2) 0.4557(2)
C19 C 0.5428(3) 0.5398(2) 0.4795(3)
C20 C 0.5240(3) 0.5343(2) 0.5437(3)
C21 C 0.4809(3) 0.4961(2) 0.5655(3)
C22 C 0.5579(3) 0.6152(2) 0.4101(2)
H6 H 0.512787 0.608330 0.394740
C23 C 0.5926(4) 0.6563(2) 0.3863(3)
C24 C 0.5597(4) 0.6900(3) 0.3346(3)
C25 C 0.6589(4) 0.6676(2) 0.4112(3)
H7 H 0.682809 0.696083 0.396255
C26 C 0.6901(3) 0.6368(2) 0.4585(3)
H8 H 0.734614 0.644192 0.474820
F3 F 0.04621(18) 0.56919(14) 0.41262(15)
O13 O 0.1736(2) 0.51495(14) 0.46458(17)
O14 O 0.2362(2) 0.58004(16) 0.43314(18)
O16 O 0.0931(3) 0.72316(18) 0.6913(2)
O17 O 0.3394(2) 0.54591(16) 0.33711(17)
O18 O 0.3277(2) 0.46580(17) 0.31404(17)
C31 C 0.1909(3) 0.5609(2) 0.4694(2)
C32 C 0.1524(3) 0.5945(2) 0.5193(2)
C33 C 0.0863(3) 0.5834(2) 0.5443(2)
C34 C 0.0428(3) 0.5398(2) 0.5205(3)
C35 C 0.0240(3) 0.5343(2) 0.4563(3)
C37 C 0.0579(3) 0.6152(2) 0.5899(2)
H11 H 0.012787 0.608330 0.605260
C38 C 0.0926(4) 0.6563(2) 0.6137(3)
C39 C 0.0597(4) 0.6900(3) 0.6654(3)
C40 C 0.1589(4) 0.6676(2) 0.5888(3)
H12 H 0.182809 0.696083 0.603745
C41 C 0.1901(3) 0.6368(2) 0.5415(3)
H13 H 0.234614 0.644192 0.525180
C42 C 0.3626(3) 0.5064(3) 0.3110(2)
C43 C 0.4332(3) 0.5066(2) 0.2785(2)
C44 C 0.4674(3) 0.5529(2) 0.2648(2)
H14 H 0.446035 0.583444 0.275814
C45 C 0.4661(3) 0.4613(2) 0.2642(2)
H15 H 0.443620 0.430783 0.273334
O21 O 0.0041(3) 0.31584(18) 0.3218(2)
C51 C 0.0191(3) 0.5039(2) 0.5655(3)
O23 O 0.6606(2) 0.54591(16) 0.16289(17)
O24 O 0.6723(2) 0.46580(17) 0.18596(17)
C57 C 0.6374(3) 0.5064(3) 0.1890(2)
C58 C 0.5668(3) 0.5066(2) 0.2215(2)
C59 C 0.5326(3) 0.5529(2) 0.2352(2)
H19 H 0.553965 0.583444 0.224186
C60 C 0.5339(3) 0.4613(2) 0.2358(2)
H20 H 0.556380 0.430783 0.226666
In4 In 0.750000 0.500000 0.11535(3)
In6 In 0.750000 0.500000 0.61535(3)
In7 In 0.000000 0.750000 0.750000
In8 In 0.500000 0.750000 0.250000
In9 In 0.000000 0.250000 0.250000
O29 O 0.4959(3) 0.31584(18) 0.8218(2)
O30 O 0.4959(3) 0.18416(18) 0.6782(2)
O31 O 0.5041(3) 0.18416(18) 0.8218(2)
O32 O 0.5931(3) 0.27684(18) 0.8087(2)
O33 O 0.5931(3) 0.22316(18) 0.6913(2)
O34 O 0.4069(3) 0.22316(18) 0.8087(2)
H21 H 0.534399 0.506184 0.383622
H22 H 0.465601 0.493816 0.616378
H23 H 0.0343986 0.506184 0.616378
O11 O 0.8394(2) 0.45409(16) 0.16289(17)
O12 O 0.8277(2) 0.53420(17) 0.18596(17)
C27 C 0.8626(3) 0.4936(3) 0.1890(2)
C28 C 0.9332(3) 0.4934(2) 0.2215(2)
C29 C 0.9674(3) 0.4471(2) 0.2352(2)
H9 H 0.946035 0.416556 0.224186
C30 C 0.9661(3) 0.5387(2) 0.2358(2)
H10 H 0.943620 0.569217 0.226666
O15 O 0.9959(3) 0.68416(18) 0.6782(2)
C36 C 0.9809(3) 0.4961(2) 0.4345(3)
F4 F 0.95379(18) 0.43081(14) 0.58738(15)
O19 O 0.8264(2) 0.48505(14) 0.53542(17)
O20 O 0.7638(2) 0.41996(16) 0.56686(18)
O22 O 0.9069(3) 0.27684(18) 0.3087(2)
C46 C 0.8091(3) 0.4391(2) 0.5306(2)
C47 C 0.8476(3) 0.4055(2) 0.4807(2)
C48 C 0.9137(3) 0.4166(2) 0.4557(2)
C49 C 0.9572(3) 0.4602(2) 0.4795(3)
C50 C 0.9760(3) 0.4657(2) 0.5437(3)
C52 C 0.9421(3) 0.3848(2) 0.4101(2)
H16 H 0.987213 0.391670 0.394740
C53 C 0.9074(4) 0.3437(2) 0.3863(3)
C54 C 0.9403(4) 0.3100(3) 0.3346(3)
C55 C 0.8411(4) 0.3324(2) 0.4112(3)
H17 H 0.817191 0.303917 0.396255
C56 C 0.8099(3) 0.3632(2) 0.4585(3)
H18 H 0.765386 0.355808 0.474820
In7_2 In 1.000000 0.750000 0.750000
In9_2 In 1.000000 0.250000 0.250000
O25 O 0.6736(2) 0.48505(14) 0.03542(17)
O26 O 0.8264(2) 0.51495(14) 0.03542(17)
O27 O 0.7362(2) 0.41996(16) 0.06686(18)
O28 O 0.7638(2) 0.58004(16) 0.06686(18)
H24 H 0.965601 0.493816 0.383622
O29_2 O 0.0041(3) 0.68416(18) 0.8218(2)
O30_2 O 0.0041(3) 0.81584(18) 0.6782(2)
O34_2 O 0.0931(3) 0.77684(18) 0.8087(2)
O31_2 O 0.9959(3) 0.81584(18) 0.8218(2)
O32_2 O 0.9069(3) 0.72316(18) 0.8087(2)
O33_2 O 0.9069(3) 0.77684(18) 0.6913(2)
C36_2 C 0.0191(3) 0.4961(2) 0.0655(3)
O22_2 O 0.0931(3) 0.27684(18) 0.1913(2)
C47_2 C 0.1524(3) 0.4055(2) 0.0193(2)
C48_2 C 0.0863(3) 0.4166(2) 0.0443(2)
C49_2 C 0.0428(3) 0.4602(2) 0.0205(3)
C52_2 C 0.0579(3) 0.3848(2) 0.0899(2)
H16_2 H 0.012787 0.391670 0.105260
C53_2 C 0.0926(4) 0.3437(2) 0.1137(3)
C54_2 C 0.0597(4) 0.3100(3) 0.1654(3)
C55_2 C 0.1589(4) 0.3324(2) 0.0888(3)
H17_2 H 0.182809 0.303917 0.103745
C56_2 C 0.1901(3) 0.3632(2) 0.0415(3)
H18_2 H 0.234614 0.355808 0.025180
H24_2 H 0.0343986 0.493816 0.116378
F4_2 F 0.04621(18) 0.43081(14) 0.91262(15)
O19_2 O 0.1736(2) 0.48505(14) 0.96458(17)
O20_2 O 0.2362(2) 0.41996(16) 0.93314(18)
C46_2 C 0.1909(3) 0.4391(2) 0.9694(2)
C50_2 C 0.0240(3) 0.4657(2) 0.9563(3)
In5 In 0.250000 0.500000 0.88465(3)
F1_2 F 0.54621(18) 0.43081(14) 0.08738(15)
C1_2 C 0.6909(3) 0.4391(2) 0.0306(2)
C5_2 C 0.5240(3) 0.4657(2) 0.0437(3)
C6_2 C 0.4809(3) 0.5039(2) 0.0655(3)
O9_2 O 0.5041(3) 0.68416(18) 0.1782(2)
O10_2 O 0.4069(3) 0.72316(18) 0.1913(2)
C17_2 C 0.3476(3) 0.5945(2) 0.0193(2)
C18_2 C 0.4137(3) 0.5834(2) 0.0443(2)
C19_2 C 0.4572(3) 0.5398(2) 0.0205(3)
C22_2 C 0.4421(3) 0.6152(2) 0.0899(2)
H6_2 H 0.487213 0.608330 0.105260
C23_2 C 0.4074(4) 0.6563(2) 0.1137(3)
C24_2 C 0.4403(4) 0.6900(3) 0.1654(3)
C25_2 C 0.3411(4) 0.6676(2) 0.0888(3)
H7_2 H 0.317191 0.696083 0.103745
C26_2 C 0.3099(3) 0.6368(2) 0.0415(3)
H8_2 H 0.265386 0.644192 0.025180
F3_2 F 0.95379(18) 0.56919(14) 0.08738(15)
C31_2 C 0.8091(3) 0.5609(2) 0.0306(2)
C35_2 C 0.9760(3) 0.5343(2) 0.0437(3)
O21_2 O 0.9959(3) 0.31584(18) 0.1782(2)
H21_2 H 0.465601 0.506184 0.116378
C2_2 C 0.6524(3) 0.4055(2) 0.9807(2)
C3_2 C 0.5863(3) 0.4166(2) 0.9557(2)
C4_2 C 0.5428(3) 0.4602(2) 0.9795(3)
C7_2 C 0.5579(3) 0.3848(2) 0.9101(2)
H1_2 H 0.512787 0.391670 0.894740
C8_2 C 0.5926(4) 0.3437(2) 0.8863(3)
C9_2 C 0.5597(4) 0.3100(3) 0.8346(3)
C10_2 C 0.6589(4) 0.3324(2) 0.9112(3)
H2_2 H 0.682809 0.303917 0.896255
C11_2 C 0.6901(3) 0.3632(2) 0.9585(3)
H3_2 H 0.734614 0.355808 0.974820
F2_2 F 0.45379(18) 0.56919(14) 0.91262(15)
O7_2 O 0.3264(2) 0.51495(14) 0.96458(17)
O8_2 O 0.2638(2) 0.58004(16) 0.93314(18)
C16_2 C 0.3091(3) 0.5609(2) 0.9694(2)
C20_2 C 0.4760(3) 0.5343(2) 0.9563(3)
C21_2 C 0.5191(3) 0.4961(2) 0.9345(3)
C32_2 C 0.8476(3) 0.5945(2) 0.9807(2)
C33_2 C 0.9137(3) 0.5834(2) 0.9557(2)
C34_2 C 0.9572(3) 0.5398(2) 0.9795(3)
C37_2 C 0.9421(3) 0.6152(2) 0.9101(2)
H11_2 H 0.987213 0.608330 0.894740
C38_2 C 0.9074(4) 0.6563(2) 0.8863(3)
C39_2 C 0.9403(4) 0.6900(3) 0.8346(3)
C40_2 C 0.8411(4) 0.6676(2) 0.9112(3)
H12_2 H 0.817191 0.696083 0.896255
C41_2 C 0.8099(3) 0.6368(2) 0.9585(3)
H13_2 H 0.765386 0.644192 0.974820
C51_2 C 0.9809(3) 0.5039(2) 0.9345(3)
H22_2 H 0.534399 0.493816 0.883622
H23_2 H 0.965601 0.506184 0.883622
C6_3 C 0.0191(3) 0.0039(2) 0.4345(3)
F2_3 F 0.04621(18) 0.06919(14) 0.58738(15)
O7_3 O 0.1736(2) 0.01495(14) 0.53542(17)
O8_3 O 0.2362(2) 0.08004(16) 0.56686(18)
O10_3 O 0.0931(3) 0.22316(18) 0.3087(2)
C16_3 C 0.1909(3) 0.0609(2) 0.5306(2)
C17_3 C 0.1524(3) 0.0945(2) 0.4807(2)
C18_3 C 0.0863(3) 0.0834(2) 0.4557(2)
C19_3 C 0.0428(3) 0.0398(2) 0.4795(3)
C20_3 C 0.0240(3) 0.0343(2) 0.5437(3)
C22_3 C 0.0579(3) 0.1152(2) 0.4101(2)
H6_3 H 0.012787 0.108330 0.394740
C23_3 C 0.0926(4) 0.1563(2) 0.3863(3)
C24_3 C 0.0597(4) 0.1900(3) 0.3346(3)
C25_3 C 0.1589(4) 0.1676(2) 0.4112(3)
H7_3 H 0.182809 0.196083 0.396255
C26_3 C 0.1901(3) 0.1368(2) 0.4585(3)
H8_3 H 0.234614 0.144192 0.474820
O23_2 O 0.1606(2) 0.04591(16) 0.16289(17)
C57_2 C 0.1374(3) 0.0064(3) 0.1890(2)
C58_2 C 0.0668(3) 0.0066(2) 0.2215(2)
C59_2 C 0.0326(3) 0.0529(2) 0.2352(2)
H19_2 H 0.053965 0.083444 0.224186
In4_2 In 0.250000 0.000000 0.11535(3)
In6_2 In 0.250000 0.000000 0.61535(3)
H21_3 H 0.0343986 0.0061842 0.383622
O24_2 O 0.1723(2) 0.96580(17) 0.18596(17)
C60_2 C 0.0339(3) 0.9613(2) 0.2358(2)
H20_2 H 0.056380 0.930783 0.226666
In4_3 In 0.250000 1.000000 0.11535(3)
In6_3 In 0.250000 1.000000 0.61535(3)
In1_2 In 0.750000 0.000000 0.38465(3)
O6_2 O 0.6723(2) 0.03420(17) 0.31404(17)
C15_2 C 0.5339(3) 0.0387(2) 0.2642(2)
H5_2 H 0.556380 0.069217 0.273334
O9_3 O 0.9959(3) 0.18416(18) 0.3218(2)
O12_2 O 0.3277(2) 0.03420(17) 0.18596(17)
C30_2 C 0.4661(3) 0.0387(2) 0.2358(2)
H10_2 H 0.443620 0.069217 0.226666
F3_3 F 0.54621(18) 0.06919(14) 0.41262(15)
O13_2 O 0.6736(2) 0.01495(14) 0.46458(17)
O14_2 O 0.7362(2) 0.08004(16) 0.43314(18)
O17_2 O 0.8394(2) 0.04591(16) 0.33711(17)
C31_3 C 0.6909(3) 0.0609(2) 0.4694(2)
C32_3 C 0.6524(3) 0.0945(2) 0.5193(2)
C33_3 C 0.5863(3) 0.0834(2) 0.5443(2)
C34_3 C 0.5428(3) 0.0398(2) 0.5205(3)
C35_3 C 0.5240(3) 0.0343(2) 0.4563(3)
C37_3 C 0.5579(3) 0.1152(2) 0.5899(2)
H11_3 H 0.512787 0.108330 0.605260
C38_3 C 0.5926(4) 0.1563(2) 0.6137(3)
C39_3 C 0.5597(4) 0.1900(3) 0.6654(3)
C40_3 C 0.6589(4) 0.1676(2) 0.5888(3)
H12_3 H 0.682809 0.196083 0.603745
C41_3 C 0.6901(3) 0.1368(2) 0.5415(3)
H13_3 H 0.734614 0.144192 0.525180
C42_2 C 0.8626(3) 0.0064(3) 0.3110(2)
C43_2 C 0.9332(3) 0.0066(2) 0.2785(2)
C44_2 C 0.9674(3) 0.0529(2) 0.2648(2)
H14_2 H 0.946035 0.083444 0.275814
C51_3 C 0.5191(3) 0.0039(2) 0.5655(3)
O26_2 O 0.3264(2) 0.01495(14) 0.03542(17)
O28_2 O 0.2638(2) 0.08004(16) 0.06686(18)
H23_3 H 0.534399 0.0061842 0.616378
In1_3 In 0.750000 1.000000 0.38465(3)
F1_3 F 0.95379(18) 0.93081(14) 0.41262(15)
O1_2 O 0.8264(2) 0.98505(14) 0.46458(17)
O2_2 O 0.7638(2) 0.91996(16) 0.43314(18)
O5_2 O 0.6606(2) 0.95409(16) 0.33711(17)
C1_3 C 0.8091(3) 0.9391(2) 0.4694(2)
C2_3 C 0.8476(3) 0.9055(2) 0.5193(2)
C3_3 C 0.9137(3) 0.9166(2) 0.5443(2)
C4_3 C 0.9572(3) 0.9602(2) 0.5205(3)
C5_3 C 0.9760(3) 0.9657(2) 0.4563(3)
C7_3 C 0.9421(3) 0.8848(2) 0.5899(2)
H1_3 H 0.987213 0.891670 0.605260
C8_3 C 0.9074(4) 0.8437(2) 0.6137(3)
C9_3 C 0.9403(4) 0.8100(3) 0.6654(3)
C10_3 C 0.8411(4) 0.8324(2) 0.5888(3)
H2_3 H 0.817191 0.803917 0.603745
C11_3 C 0.8099(3) 0.8632(2) 0.5415(3)
H3_3 H 0.765386 0.855808 0.525180
C12_2 C 0.6374(3) 0.9936(3) 0.3110(2)
C13_2 C 0.5668(3) 0.9934(2) 0.2785(2)
C14_2 C 0.5326(3) 0.9471(2) 0.2648(2)
H4_2 H 0.553965 0.916556 0.275814
C21_3 C 0.9809(3) 0.9961(2) 0.5655(3)
O11_2 O 0.3394(2) 0.95409(16) 0.16289(17)
C27_2 C 0.3626(3) 0.9936(3) 0.1890(2)
C28_2 C 0.4332(3) 0.9934(2) 0.2215(2)
C29_2 C 0.4674(3) 0.9471(2) 0.2352(2)
H9_2 H 0.446035 0.916556 0.224186
O18_2 O 0.8277(2) 0.96580(17) 0.31404(17)
C36_3 C 0.4809(3) 0.9961(2) 0.4345(3)
C45_2 C 0.9661(3) 0.9613(2) 0.2642(2)
H15_2 H 0.943620 0.930783 0.273334
F4_3 F 0.45379(18) 0.93081(14) 0.58738(15)
O19_3 O 0.3264(2) 0.98505(14) 0.53542(17)
O20_3 O 0.2638(2) 0.91996(16) 0.56686(18)
O21_3 O 0.5041(3) 0.81584(18) 0.3218(2)
O22_3 O 0.4069(3) 0.77684(18) 0.3087(2)
C46_3 C 0.3091(3) 0.9391(2) 0.5306(2)
C47_3 C 0.3476(3) 0.9055(2) 0.4807(2)
C48_3 C 0.4137(3) 0.9166(2) 0.4557(2)
C49_3 C 0.4572(3) 0.9602(2) 0.4795(3)
C50_3 C 0.4760(3) 0.9657(2) 0.5437(3)
C52_3 C 0.4421(3) 0.8848(2) 0.4101(2)
H16_3 H 0.487213 0.891670 0.394740
C53_3 C 0.4074(4) 0.8437(2) 0.3863(3)
C54_3 C 0.4403(4) 0.8100(3) 0.3346(3)
C55_3 C 0.3411(4) 0.8324(2) 0.4112(3)
H17_3 H 0.317191 0.803917 0.396255
C56_3 C 0.3099(3) 0.8632(2) 0.4585(3)
H18_3 H 0.265386 0.855808 0.474820
O25_2 O 0.1736(2) 0.98505(14) 0.03542(17)
O27_2 O 0.2362(2) 0.91996(16) 0.06686(18)
H22_3 H 0.965601 0.993816 0.616378
H24_3 H 0.465601 0.993816 0.383622
O9_4 O 0.0041(3) 0.18416(18) 0.1782(2)
F3_4 F 0.45379(18) 0.06919(14) 0.08738(15)
C31_4 C 0.3091(3) 0.0609(2) 0.0306(2)
C35_4 C 0.4760(3) 0.0343(2) 0.0437(3)
C32_4 C 0.3476(3) 0.0945(2) 0.9807(2)
C33_4 C 0.4137(3) 0.0834(2) 0.9557(2)
C34_4 C 0.4572(3) 0.0398(2) 0.9795(3)
C37_4 C 0.4421(3) 0.1152(2) 0.9101(2)
H11_4 H 0.487213 0.108330 0.894740
C38_4 C 0.4074(4) 0.1563(2) 0.8863(3)
C39_4 C 0.4403(4) 0.1900(3) 0.8346(3)
C40_4 C 0.3411(4) 0.1676(2) 0.9112(3)
H12_4 H 0.317191 0.196083 0.896255
C41_4 C 0.3099(3) 0.1368(2) 0.9585(3)
H13_4 H 0.265386 0.144192 0.974820
C51_4 C 0.4809(3) 0.0039(2) 0.9345(3)
In5_2 In 0.750000 0.000000 0.88465(3)
H23_4 H 0.465601 0.0061842 0.883622
F1_4 F 0.04621(18) 0.93081(14) 0.08738(15)
C1_4 C 0.1909(3) 0.9391(2) 0.0306(2)
C5_4 C 0.0240(3) 0.9657(2) 0.0437(3)
C36_4 C 0.5191(3) 0.9961(2) 0.0655(3)
O21_4 O 0.4959(3) 0.81584(18) 0.1782(2)
O22_4 O 0.5931(3) 0.77684(18) 0.1913(2)
C47_4 C 0.6524(3) 0.9055(2) 0.0193(2)
C48_4 C 0.5863(3) 0.9166(2) 0.0443(2)
C49_4 C 0.5428(3) 0.9602(2) 0.0205(3)
C52_4 C 0.5579(3) 0.8848(2) 0.0899(2)
H16_4 H 0.512787 0.891670 0.105260
C53_4 C 0.5926(4) 0.8437(2) 0.1137(3)
C54_4 C 0.5597(4) 0.8100(3) 0.1654(3)
C55_4 C 0.6589(4) 0.8324(2) 0.0888(3)
H17_4 H 0.682809 0.803917 0.103745
C56_4 C 0.6901(3) 0.8632(2) 0.0415(3)
H18_4 H 0.734614 0.855808 0.025180
H24_4 H 0.534399 0.993816 0.116378
C2_4 C 0.1524(3) 0.9055(2) 0.9807(2)
C3_4 C 0.0863(3) 0.9166(2) 0.9557(2)
C4_4 C 0.0428(3) 0.9602(2) 0.9795(3)
C7_4 C 0.0579(3) 0.8848(2) 0.9101(2)
H1_4 H 0.012787 0.891670 0.894740
C8_4 C 0.0926(4) 0.8437(2) 0.8863(3)
C9_4 C 0.0597(4) 0.8100(3) 0.8346(3)
C10_4 C 0.1589(4) 0.8324(2) 0.9112(3)
H2_4 H 0.182809 0.803917 0.896255
C11_4 C 0.1901(3) 0.8632(2) 0.9585(3)
H3_4 H 0.234614 0.855808 0.974820
C21_4 C 0.0191(3) 0.9961(2) 0.9345(3)
F4_4 F 0.54621(18) 0.93081(14) 0.91262(15)
O19_4 O 0.6736(2) 0.98505(14) 0.96458(17)
O20_4 O 0.7362(2) 0.91996(16) 0.93314(18)
C46_4 C 0.6909(3) 0.9391(2) 0.9694(2)
C50_4 C 0.5240(3) 0.9657(2) 0.9563(3)
In5_3 In 0.750000 1.000000 0.88465(3)
H22_4 H 0.0343986 0.993816 0.883622
C6_4 C 0.9809(3) 0.0039(2) 0.0655(3)
O10_4 O 0.9069(3) 0.22316(18) 0.1913(2)
C17_4 C 0.8476(3) 0.0945(2) 0.0193(2)
C18_4 C 0.9137(3) 0.0834(2) 0.0443(2)
C19_4 C 0.9572(3) 0.0398(2) 0.0205(3)
C22_4 C 0.9421(3) 0.1152(2) 0.0899(2)
H6_4 H 0.987213 0.108330 0.105260
C23_4 C 0.9074(4) 0.1563(2) 0.1137(3)
C24_4 C 0.9403(4) 0.1900(3) 0.1654(3)
C25_4 C 0.8411(4) 0.1676(2) 0.0888(3)
H7_4 H 0.817191 0.196083 0.103745
C26_4 C 0.8099(3) 0.1368(2) 0.0415(3)
H8_4 H 0.765386 0.144192 0.025180
H21_4 H 0.965601 0.0061842 0.116378
F2_4 F 0.95379(18) 0.06919(14) 0.91262(15)
O7_4 O 0.8264(2) 0.01495(14) 0.96458(17)
O8_4 O 0.7638(2) 0.08004(16) 0.93314(18)
C16_4 C 0.8091(3) 0.0609(2) 0.9694(2)
C20_4 C 0.9760(3) 0.0343(2) 0.9563(3)
O11_3 O 0.1606(2) 0.54591(16) 0.83711(17)
O12_3 O 0.1723(2) 0.46580(17) 0.81404(17)
C27_3 C 0.1374(3) 0.5064(3) 0.8110(2)
C28_3 C 0.0668(3) 0.5066(2) 0.7785(2)
C29_3 C 0.0326(3) 0.5529(2) 0.7648(2)
H9_3 H 0.053965 0.583444 0.775814
C30_3 C 0.0339(3) 0.4613(2) 0.7642(2)
H10_3 H 0.056380 0.430783 0.773334
O35 O 0.3394(2) 0.45409(16) 0.83711(17)
O36 O 0.3277(2) 0.53420(17) 0.81404(17)
O5_3 O 0.8394(2) 0.54591(16) 0.66289(17)
O6_3 O 0.8277(2) 0.46580(17) 0.68596(17)
C12_3 C 0.8626(3) 0.5064(3) 0.6890(2)
C13_3 C 0.9332(3) 0.5066(2) 0.7215(2)
C14_3 C 0.9674(3) 0.5529(2) 0.7352(2)
H4_3 H 0.946035 0.583444 0.724186
C15_3 C 0.9661(3) 0.4613(2) 0.7358(2)
H5_3 H 0.943620 0.430783 0.726666
O17_3 O 0.6606(2) 0.45409(16) 0.66289(17)
O18_3 O 0.6723(2) 0.53420(17) 0.68596(17)
C42_3 C 0.6374(3) 0.4936(3) 0.6890(2)
C43_3 C 0.5668(3) 0.4934(2) 0.7215(2)
C44_3 C 0.5326(3) 0.4471(2) 0.7352(2)
H14_3 H 0.553965 0.416556 0.724186
C45_3 C 0.5339(3) 0.5387(2) 0.7358(2)
H15_3 H 0.556380 0.569217 0.726666
C57_3 C 0.3626(3) 0.4936(3) 0.8110(2)
C58_3 C 0.4332(3) 0.4934(2) 0.7785(2)
C59_3 C 0.4674(3) 0.4471(2) 0.7648(2)
H19_3 H 0.446035 0.416556 0.775814
C60_3 C 0.4661(3) 0.5387(2) 0.7642(2)
H20_3 H 0.443620 0.569217 0.773334
O5_4 O 0.3394(2) 0.04591(16) 0.66289(17)
C12_4 C 0.3626(3) 0.0064(3) 0.6890(2)
C13_4 C 0.4332(3) 0.0066(2) 0.7215(2)
C14_4 C 0.4674(3) 0.0529(2) 0.7352(2)
H4_4 H 0.446035 0.083444 0.724186
O11_4 O 0.6606(2) 0.04591(16) 0.83711(17)
C27_4 C 0.6374(3) 0.0064(3) 0.8110(2)
C28_4 C 0.5668(3) 0.0066(2) 0.7785(2)
C29_4 C 0.5326(3) 0.0529(2) 0.7648(2)
H9_4 H 0.553965 0.083444 0.775814
O18_4 O 0.1723(2) 0.03420(17) 0.68596(17)
C45_4 C 0.0339(3) 0.0387(2) 0.7358(2)
H15_4 H 0.056380 0.069217 0.726666
O36_2 O 0.8277(2) 0.03420(17) 0.81404(17)
O6_4 O 0.3277(2) 0.96580(17) 0.68596(17)
C15_4 C 0.4661(3) 0.9613(2) 0.7358(2)
H5_4 H 0.443620 0.930783 0.726666
O12_4 O 0.6723(2) 0.96580(17) 0.81404(17)
C30_4 C 0.5339(3) 0.9613(2) 0.7642(2)
H10_4 H 0.556380 0.930783 0.773334
O17_4 O 0.1606(2) 0.95409(16) 0.66289(17)
C42_4 C 0.1374(3) 0.9936(3) 0.6890(2)
C43_4 C 0.0668(3) 0.9934(2) 0.7215(2)
C44_4 C 0.0326(3) 0.9471(2) 0.7352(2)
H14_4 H 0.053965 0.916556 0.724186
O35_2 O 0.8394(2) 0.95409(16) 0.83711(17)
C60_4 C 0.9661(3) 0.0387(2) 0.7642(2)
H20_4 H 0.943620 0.069217 0.773334
C57_4 C 0.8626(3) 0.9936(3) 0.8110(2)
C58_4 C 0.9332(3) 0.9934(2) 0.7785(2)
C59_4 C 0.9674(3) 0.9471(2) 0.7648(2)
H19_4 H 0.946035 0.916556 0.775814
loop_
_geom_bond_atom_site_label_1
_geom_bond_atom_site_label_2
_geom_bond_site_symmetry_1
_geom_bond_site_symmetry_2
In1 O1 1_555 1_555
In2 O3 1_555 1_555
F1 C5 1_555 1_555
O1 C1 1_555 1_555
O2 In1 1_555 1_555
O3 C9 1_555 1_555
O4 In2 1_555 1_555
O5 In1 1_555 1_555
O6 In1 1_555 1_555
C1 O2 1_555 1_555
C2 C1 1_555 1_555
C3 C2 1_555 1_555
C4 C3 1_555 1_555
C5 C4 1_555 1_555
C6 C5 1_555 1_555
C7 C3 1_555 1_555
H1 C7 1_555 1_555
C8 C7 1_555 1_555
C9 O4 1_555 1_555
C10 C8 1_555 1_555
H2 C10 1_555 1_555
C11 C2 1_555 1_555
H3 C11 1_555 1_555
C12 O5 1_555 1_555
C13 C12 1_555 1_555
C14 C13 1_555 1_555
H4 C14 1_555 1_555
C15 C13 1_555 1_555
H5 C15 1_555 1_555
F2 C20 1_555 1_555
O7 C16 1_555 1_555
O8 C16 1_555 1_555
O9 C24 1_555 1_555
O10 C24 1_555 1_555
C16 C17 1_555 1_555
C17 C18 1_555 1_555
C18 C19 1_555 1_555
C19 C6 1_555 1_555
C20 C19 1_555 1_555
C21 C4 1_555 1_555
C22 C18 1_555 1_555
H6 C22 1_555 1_555
C23 C22 1_555 1_555
C24 C23 1_555 1_555
C25 C23 1_555 1_555
H7 C25 1_555 1_555
C26 C17 1_555 1_555
H8 C26 1_555 1_555
F3 C35 1_555 1_555
O13 In1 1_555 1_555
O14 In1 1_555 1_555
O16 C39 1_555 1_555
O17 In1 1_555 1_555
O18 In1 1_555 1_555
C31 O13 1_555 1_555
C32 C31 1_555 1_555
C33 C32 1_555 1_555
C34 C33 1_555 1_555
C35 C34 1_555 1_555
C37 C33 1_555 1_555
H11 C37 1_555 1_555
C38 C37 1_555 1_555
C39 C38 1_555 1_555
C40 C38 1_555 1_555
H12 C40 1_555 1_555
C41 C32 1_555 1_555
H13 C41 1_555 1_555
C42 O17 1_555 1_555
C43 C42 1_555 1_555
C44 C43 1_555 1_555
H14 C44 1_555 1_555
C45 C43 1_555 1_555
H15 C45 1_555 1_555
C51 C34 1_555 1_555
O23 C57 1_555 1_555
O24 C57 1_555 1_555
C57 C58 1_555 1_555
C58 C59 1_555 1_555
C59 C44 1_555 1_555
H19 C59 1_555 1_555
C60 C45 1_555 1_555
H20 C60 1_555 1_555
In4 O23 1_555 1_555
In6 O7 1_555 1_555
In8 O9 1_555 1_555
In9 O21 1_555 1_555
O29 In2 1_555 1_555
O30 In2 1_555 1_555
O31 In2 1_555 1_555
O32 In2 1_555 1_555
O33 In2 1_555 1_555
O34 In2 1_555 1_555
O6 C12 1_555 1_555
C8 C9 1_555 1_555
C10 C11 1_555 1_555
O8 In6 1_555 1_555
O10 In8 1_555 1_555
C20 C21 1_555 1_555
C25 C26 1_555 1_555
O14 C31 1_555 1_555
O16 In7 1_555 1_555
O18 C42 1_555 1_555
C40 C41 1_555 1_555
O24 In4 1_555 1_555
C58 C60 1_555 1_555
C6 H21 1_555 1_555
C21 H22 1_555 1_555
C51 H23 1_555 1_555
O11 C27 1_555 1_555
O12 C27 1_555 1_555
C27 C28 1_555 1_555
C28 C29 1_555 1_555
H9 C29 1_555 1_555
H10 C30 1_555 1_555
F4 C50 1_555 1_555
O19 C46 1_555 1_555
O20 C46 1_555 1_555
O22 C54 1_555 1_555
C46 C47 1_555 1_555
C47 C48 1_555 1_555
C48 C49 1_555 1_555
C49 C36 1_555 1_555
C50 C49 1_555 1_555
C52 C48 1_555 1_555
H16 C52 1_555 1_555
C53 C52 1_555 1_555
C54 C53 1_555 1_555
C55 C53 1_555 1_555
H17 C55 1_555 1_555
C56 C47 1_555 1_555
H18 C56 1_555 1_555
In4 O11 1_555 1_555
In6 O19 1_555 1_555
In7_2 O15 1_555 1_555
O25 In4 1_555 1_555
O26 In4 1_555 1_555
O27 In4 1_555 1_555
O28 In4 1_555 1_555
O12 In4 1_555 1_555
C28 C30 1_555 1_555
O20 In6 1_555 1_555
O22 In9_2 1_555 1_555
C55 C56 1_555 1_555
C36 H24 1_555 1_555
O29_2 In7 1_555 1_555
O30_2 In7 1_555 1_555
O34_2 In7 1_555 1_555
O31_2 In7_2 1_555 1_555
O32_2 In7_2 1_555 1_555
O33_2 In7_2 1_555 1_555
O22_2 C54_2 1_555 1_555
C47_2 C48_2 1_555 1_555
C48_2 C49_2 1_555 1_555
C49_2 C36_2 1_555 1_555
C52_2 C48_2 1_555 1_555
H16_2 C52_2 1_555 1_555
C53_2 C52_2 1_555 1_555
C54_2 C53_2 1_555 1_555
C55_2 C53_2 1_555 1_555
H17_2 C55_2 1_555 1_555
C56_2 C47_2 1_555 1_555
H18_2 C56_2 1_555 1_555
O22_2 In9 1_555 1_555
C55_2 C56_2 1_555 1_555
C36_2 H24_2 1_555 1_555
F4_2 C50_2 1_555 1_555
O19_2 C46_2 1_555 1_555
O20_2 C46_2 1_555 1_555
In5 O19_2 1_555 1_555
O20_2 In5 1_555 1_555
F1_2 C5_2 1_555 1_555
O25 C1_2 1_555 1_555
C1_2 O27 1_555 1_555
C6_2 C5_2 1_555 1_555
O9_2 C24_2 1_555 1_555
O10_2 C24_2 1_555 1_555
C17_2 C18_2 1_555 1_555
C18_2 C19_2 1_555 1_555
C19_2 C6_2 1_555 1_555
C22_2 C18_2 1_555 1_555
H6_2 C22_2 1_555 1_555
C23_2 C22_2 1_555 1_555
C24_2 C23_2 1_555 1_555
C25_2 C23_2 1_555 1_555
H7_2 C25_2 1_555 1_555
C26_2 C17_2 1_555 1_555
H8_2 C26_2 1_555 1_555
F3_2 C35_2 1_555 1_555
C31_2 O26 1_555 1_555
In8 O9_2 1_555 1_555
In9_2 O21_2 1_555 1_555
O10_2 In8 1_555 1_555
C25_2 C26_2 1_555 1_555
O28 C31_2 1_555 1_555
C6_2 H21_2 1_555 1_555
O29 C9_2 1_555 1_555
C3_2 C2_2 1_555 1_555
C4_2 C3_2 1_555 1_555
C7_2 C3_2 1_555 1_555
H1_2 C7_2 1_555 1_555
C8_2 C7_2 1_555 1_555
C9_2 O32 1_555 1_555
C10_2 C8_2 1_555 1_555
H2_2 C10_2 1_555 1_555
C11_2 C2_2 1_555 1_555
H3_2 C11_2 1_555 1_555
F2_2 C20_2 1_555 1_555
O7_2 C16_2 1_555 1_555
O8_2 C16_2 1_555 1_555
C21_2 C4_2 1_555 1_555
O32_2 C39_2 1_555 1_555
C33_2 C32_2 1_555 1_555
C34_2 C33_2 1_555 1_555
C37_2 C33_2 1_555 1_555
H11_2 C37_2 1_555 1_555
C38_2 C37_2 1_555 1_555
C39_2 C38_2 1_555 1_555
C40_2 C38_2 1_555 1_555
H12_2 C40_2 1_555 1_555
C41_2 C32_2 1_555 1_555
H13_2 C41_2 1_555 1_555
C51_2 C34_2 1_555 1_555
In5 O7_2 1_555 1_555
C8_2 C9_2 1_555 1_555
C10_2 C11_2 1_555 1_555
O8_2 In5 1_555 1_555
C20_2 C21_2 1_555 1_555
C40_2 C41_2 1_555 1_555
C21_2 H22_2 1_555 1_555
C51_2 H23_2 1_555 1_555
F2_3 C20_3 1_555 1_555
O7_3 C16_3 1_555 1_555
O8_3 C16_3 1_555 1_555
O10_3 C24_3 1_555 1_555
C16_3 C17_3 1_555 1_555
C17_3 C18_3 1_555 1_555
C18_3 C19_3 1_555 1_555
C19_3 C6_3 1_555 1_555
C20_3 C19_3 1_555 1_555
C22_3 C18_3 1_555 1_555
H6_3 C22_3 1_555 1_555
C23_3 C22_3 1_555 1_555
C24_3 C23_3 1_555 1_555
C25_3 C23_3 1_555 1_555
H7_3 C25_3 1_555 1_555
C26_3 C17_3 1_555 1_555
H8_3 C26_3 1_555 1_555
O23_2 C57_2 1_555 1_555
C57_2 C58_2 1_555 1_555
C58_2 C59_2 1_555 1_555
H19_2 C59_2 1_555 1_555
In4_2 O23_2 1_555 1_555
In6_2 O7_3 1_555 1_555
O8_3 In6_2 1_555 1_555
O10_3 In9 1_555 1_555
C25_3 C26_3 1_555 1_555
C6_3 H21_3 1_555 1_555
H20_2 C60_2 1_555 1_555
O24_2 In4_3 1_555 1_555
O6_2 In1_2 1_555 1_555
H5_2 C15_2 1_555 1_555
C30_2 C15_2 1_555 1_555
H10_2 C30_2 1_555 1_555
F3_3 C35_3 1_555 1_555
O13_2 In1_2 1_555 1_555
O14_2 In1_2 1_555 1_555
O30 C39_3 1_555 1_555
O33 C39_3 1_555 1_555
O17_2 In1_2 1_555 1_555
C31_3 O13_2 1_555 1_555
C32_3 C31_3 1_555 1_555
C33_3 C32_3 1_555 1_555
C34_3 C33_3 1_555 1_555
C35_3 C34_3 1_555 1_555
C37_3 C33_3 1_555 1_555
H11_3 C37_3 1_555 1_555
C38_3 C37_3 1_555 1_555
C39_3 C38_3 1_555 1_555
C40_3 C38_3 1_555 1_555
H12_3 C40_3 1_555 1_555
C41_3 C32_3 1_555 1_555
H13_3 C41_3 1_555 1_555
C42_2 O17_2 1_555 1_555
C43_2 C42_2 1_555 1_555
C44_2 C43_2 1_555 1_555
H14_2 C44_2 1_555 1_555
C51_3 C34_3 1_555 1_555
In9_2 O9_3 1_555 1_555
O26_2 In4_2 1_555 1_555
O28_2 In4_2 1_555 1_555
O12_2 In4_2 1_555 1_555
O14_2 C31_3 1_555 1_555
C40_3 C41_3 1_555 1_555
C51_3 H23_3 1_555 1_555
In1_3 O1_2 1_555 1_555
F1_3 C5_3 1_555 1_555
O1_2 C1_3 1_555 1_555
O2_2 In1_3 1_555 1_555
O5_2 In1_3 1_555 1_555
C1_3 O2_2 1_555 1_555
C2_3 C1_3 1_555 1_555
C3_3 C2_3 1_555 1_555
C4_3 C3_3 1_555 1_555
C5_3 C4_3 1_555 1_555
C7_3 C3_3 1_555 1_555
H1_3 C7_3 1_555 1_555
C8_3 C7_3 1_555 1_555
C9_3 O33_2 1_555 1_555
C10_3 C8_3 1_555 1_555
H2_3 C10_3 1_555 1_555
C11_3 C2_3 1_555 1_555
H3_3 C11_3 1_555 1_555
C12_2 O5_2 1_555 1_555
C13_2 C12_2 1_555 1_555
C14_2 C13_2 1_555 1_555
H4_2 C14_2 1_555 1_555
C21_3 C4_3 1_555 1_555
O11_2 C27_2 1_555 1_555
C27_2 C28_2 1_555 1_555
C28_2 C29_2 1_555 1_555
C29_2 C14_2 1_555 1_555
H9_2 C29_2 1_555 1_555
O18_2 In1_3 1_555 1_555
H15_2 C45_2 1_555 1_555
F4_3 C50_3 1_555 1_555
O19_3 C46_3 1_555 1_555
O20_3 C46_3 1_555 1_555
O21_3 C54_3 1_555 1_555
O22_3 C54_3 1_555 1_555
C46_3 C47_3 1_555 1_555
C47_3 C48_3 1_555 1_555
C48_3 C49_3 1_555 1_555
C49_3 C36_3 1_555 1_555
C50_3 C49_3 1_555 1_555
C52_3 C48_3 1_555 1_555
H16_3 C52_3 1_555 1_555
C53_3 C52_3 1_555 1_555
C54_3 C53_3 1_555 1_555
C55_3 C53_3 1_555 1_555
H17_3 C55_3 1_555 1_555
C56_3 C47_3 1_555 1_555
H18_3 C56_3 1_555 1_555
In4_3 O11_2 1_555 1_555
In6_3 O19_3 1_555 1_555
In8 O21_3 1_555 1_555
O25_2 In4_3 1_555 1_555
O27_2 In4_3 1_555 1_555
C8_3 C9_3 1_555 1_555
C10_3 C11_3 1_555 1_555
O20_3 In6_3 1_555 1_555
O22_3 In8 1_555 1_555
C55_3 C56_3 1_555 1_555
C21_3 H22_3 1_555 1_555
C36_3 H24_3 1_555 1_555
F3_4 C35_4 1_555 1_555
C31_4 O26_2 1_555 1_555
In9 O9_4 1_555 1_555
O28_2 C31_4 1_555 1_555
O31 C39_4 1_555 1_555
O34 C39_4 1_555 1_555
C33_4 C32_4 1_555 1_555
C34_4 C33_4 1_555 1_555
C37_4 C33_4 1_555 1_555
H11_4 C37_4 1_555 1_555
C38_4 C37_4 1_555 1_555
C39_4 C38_4 1_555 1_555
C40_4 C38_4 1_555 1_555
H12_4 C40_4 1_555 1_555
C41_4 C32_4 1_555 1_555
H13_4 C41_4 1_555 1_555
C51_4 C34_4 1_555 1_555
C40_4 C41_4 1_555 1_555
C51_4 H23_4 1_555 1_555
F1_4 C5_4 1_555 1_555
O25_2 C1_4 1_555 1_555
C1_4 O27_2 1_555 1_555
O21_4 C54_4 1_555 1_555
O22_4 C54_4 1_555 1_555
C47_4 C48_4 1_555 1_555
C48_4 C49_4 1_555 1_555
C49_4 C36_4 1_555 1_555
C52_4 C48_4 1_555 1_555
H16_4 C52_4 1_555 1_555
C53_4 C52_4 1_555 1_555
C54_4 C53_4 1_555 1_555
C55_4 C53_4 1_555 1_555
H17_4 C55_4 1_555 1_555
C56_4 C47_4 1_555 1_555
H18_4 C56_4 1_555 1_555
In8 O21_4 1_555 1_555
O22_4 In8 1_555 1_555
C55_4 C56_4 1_555 1_555
C36_4 H24_4 1_555 1_555
C3_4 C2_4 1_555 1_555
C4_4 C3_4 1_555 1_555
C7_4 C3_4 1_555 1_555
H1_4 C7_4 1_555 1_555
C8_4 C7_4 1_555 1_555
C9_4 O34_2 1_555 1_555
C10_4 C8_4 1_555 1_555
H2_4 C10_4 1_555 1_555
C11_4 C2_4 1_555 1_555
H3_4 C11_4 1_555 1_555
C21_4 C4_4 1_555 1_555
F4_4 C50_4 1_555 1_555
O19_4 C46_4 1_555 1_555
O20_4 C46_4 1_555 1_555
In5_3 O19_4 1_555 1_555
C8_4 C9_4 1_555 1_555
C10_4 C11_4 1_555 1_555
O20_4 In5_3 1_555 1_555
C21_4 H22_4 1_555 1_555
O10_4 C24_4 1_555 1_555
C17_4 C18_4 1_555 1_555
C18_4 C19_4 1_555 1_555
C19_4 C6_4 1_555 1_555
C22_4 C18_4 1_555 1_555
H6_4 C22_4 1_555 1_555
C23_4 C22_4 1_555 1_555
C24_4 C23_4 1_555 1_555
C25_4 C23_4 1_555 1_555
H7_4 C25_4 1_555 1_555
C26_4 C17_4 1_555 1_555
H8_4 C26_4 1_555 1_555
O10_4 In9_2 1_555 1_555
C25_4 C26_4 1_555 1_555
C6_4 H21_4 1_555 1_555
F2_4 C20_4 1_555 1_555
O7_4 C16_4 1_555 1_555
O8_4 C16_4 1_555 1_555
In5_2 O7_4 1_555 1_555
O8_4 In5_2 1_555 1_555
O11_3 C27_3 1_555 1_555
O12_3 C27_3 1_555 1_555
C27_3 C28_3 1_555 1_555
C28_3 C29_3 1_555 1_555
H9_3 C29_3 1_555 1_555
H10_3 C30_3 1_555 1_555
In5 O11_3 1_555 1_555
O35 In5 1_555 1_555
O36 In5 1_555 1_555
O12_3 In5 1_555 1_555
C28_3 C30_3 1_555 1_555
O5_3 In6 1_555 1_555
O6_3 In6 1_555 1_555
C12_3 O5_3 1_555 1_555
C13_3 C12_3 1_555 1_555
C14_3 C13_3 1_555 1_555
H4_3 C14_3 1_555 1_555
C15_3 C13_3 1_555 1_555
H5_3 C15_3 1_555 1_555
O17_3 In6 1_555 1_555
O18_3 In6 1_555 1_555
C42_3 O17_3 1_555 1_555
C43_3 C42_3 1_555 1_555
C44_3 C43_3 1_555 1_555
H14_3 C44_3 1_555 1_555
C45_3 C43_3 1_555 1_555
H15_3 C45_3 1_555 1_555
O35 C57_3 1_555 1_555
O36 C57_3 1_555 1_555
C57_3 C58_3 1_555 1_555
C58_3 C59_3 1_555 1_555
C59_3 C44_3 1_555 1_555
H19_3 C59_3 1_555 1_555
C60_3 C45_3 1_555 1_555
H20_3 C60_3 1_555 1_555
O6_3 C12_3 1_555 1_555
O18_3 C42_3 1_555 1_555
C58_3 C60_3 1_555 1_555
O5_4 In6_2 1_555 1_555
C12_4 O5_4 1_555 1_555
C13_4 C12_4 1_555 1_555
C14_4 C13_4 1_555 1_555
H4_4 C14_4 1_555 1_555
O11_4 C27_4 1_555 1_555
C27_4 C28_4 1_555 1_555
C28_4 C29_4 1_555 1_555
C29_4 C14_4 1_555 1_555
H9_4 C29_4 1_555 1_555
O18_4 In6_2 1_555 1_555
H15_4 C45_4 1_555 1_555
In5_2 O11_4 1_555 1_555
O36_2 In5_2 1_555 1_555
O6_4 In6_3 1_555 1_555
H5_4 C15_4 1_555 1_555
C30_4 C15_4 1_555 1_555
H10_4 C30_4 1_555 1_555
O17_4 In6_3 1_555 1_555
C42_4 O17_4 1_555 1_555
C43_4 C42_4 1_555 1_555
C44_4 C43_4 1_555 1_555
H14_4 C44_4 1_555 1_555
O35_2 In5_3 1_555 1_555
O12_4 In5_3 1_555 1_555
H20_4 C60_4 1_555 1_555
O35_2 C57_4 1_555 1_555
C57_4 C58_4 1_555 1_555
C58_4 C59_4 1_555 1_555
H19_4 C59_4 1_555 1_555

#END
