
###############################################################################
#
# This file contains modified crystal structure data generated from the
# MOF subset of the Cambridge Structural Database (CSD) v543 
# hosted by the Cambridge Crystallographic Data Centre (CCDC).
#
# This work is licensed under the Creative Commons
# Attribution-NonCommercial-ShareAlike 4.0 International License.
# To view a copy of this license, visit
# http://creativecommons.org/licenses/by-nc-sa/4.0/
# or send a letter to
# Creative Commons, PO Box 1866, Mountain View, CA 94042, USA.
#
# CIF created using the CSD Python API on 29 September 2022
# The structure has been converted into the P1 space group
# The structure has a 3D framework
# The original CSD entry GUFQIJ is in the monoclinic crystal system
# The framework has been calculated to contain at least 10.0% void space
# The void calculation uses a probe of radius 1.32A, grid spacing 0.4
#
###############################################################################

data_GUFQIJ
_chemical_formula_moiety         '(C288 H256 Co13 N16 O53)n'
_symmetry_cell_setting           triclinic
_symmetry_space_group_name_H-M   'P 1'
_symmetry_Int_Tables_number      1
_space_group_name_Hall           'P 1'
loop_
_symmetry_equiv_pos_site_id
_symmetry_equiv_pos_as_xyz
1 x,y,z
_cell_length_a                   26.758(9)
_cell_length_b                   10.635(4)
_cell_length_c                   29.565(8)
_cell_angle_alpha                90
_cell_angle_beta                 116.906(11)
_cell_angle_gamma                90
_cell_volume                     7502.61
loop_
_atom_site_label
_atom_site_type_symbol
_atom_site_fract_x
_atom_site_fract_y
_atom_site_fract_z
Co11 Co -0.0000 0.0000 0.5000
Co5 Co 0.01646(4) 0.72742(8) 0.44721(3)
Co11_2 Co -0.0000 1.0000 0.5000
H9 H 0.3935 0.0066 0.3217
H55 H 0.6065 0.0066 0.1783
Co10 Co -0.0000 0.0000 0.0000
Co11_3 Co 1.0000 0.0000 0.5000
Co10_2 Co 0.0000 0.0000 1.0000
C1 C 0.4654(3) 0.4772(7) 0.0851(3)
C2 C 0.4558(3) 0.5558(7) 0.1230(3)
C3 C 0.4622(3) 0.6844(7) 0.1226(3)
H1 H 0.4745 0.7211 0.1009
C4 C 0.4391(3) 0.5013(8) 0.1560(3)
H2 H 0.4357 0.4144 0.1570
C5 C 0.4272(3) 0.5795(9) 0.1884(3)
H3 H 0.4153 0.5436 0.2106
C6 C 0.4503(3) 0.7570(7) 0.1546(3)
H4 H 0.4542 0.8437 0.1536
C7 C 0.4328(3) 0.7087(8) 0.1878(3)
C8 C 0.4168(3) 0.7891(7) 0.2211(2)
H5 H 0.4370 0.7601 0.2559
H6 H 0.4281 0.8752 0.2199
C9 C 0.3443(3) 0.8710(7) 0.2381(2)
H7 H 0.3040 0.8753 0.2254
H8 H 0.3574 0.9546 0.2357
C10 C 0.3704(3) 0.8327(7) 0.2931(3)
C11 C 0.3928(3) 0.9227(6) 0.3304(3)
C12 C 0.3685(3) 0.7113(8) 0.3063(3)
H10 H 0.3522 0.6508 0.2811
C13 C 0.3904(3) 0.6762(6) 0.3568(3)
H11 H 0.3899 0.5923 0.3654
C14 C 0.4141(3) 0.8882(7) 0.3798(3)
H12 H 0.4300 0.9498 0.4046
C15 C 0.4132(3) 0.7674(6) 0.3947(2)
C16 C 0.4371(3) 0.7305(8) 0.4487(3)
C17 C 0.3241(2) 0.8247(7) 0.1531(2)
H13 H 0.3355 0.7745 0.1320
H14 H 0.3327 0.9118 0.1498
C18 C 0.2617(3) 0.8117(8) 0.1338(2)
C19 C 0.2260(3) 0.9053(7) 0.1064(3)
H15 H 0.2406 0.9789 0.1001
C20 C 0.1683(3) 0.8932(7) 0.0877(3)
H16 H 0.1448 0.9579 0.0686
C21 C 0.2386(3) 0.7059(8) 0.1423(3)
H17 H 0.2620 0.6402 0.1603
C22 C 0.1813(3) 0.6925(7) 0.1249(3)
H18 H 0.1669 0.6197 0.1321
C23 C 0.1459(3) 0.7868(6) 0.0972(2)
C24 C 0.0842(3) 0.7740(7) 0.0779(2)
C25 C 0.3947(3) 0.1035(7) 0.0726(3)
H19 H 0.3970 0.1759 0.0911
C26 C 0.3508(3) 0.0259(7) 0.0616(3)
H20 H 0.3242 0.0457 0.0726
Co1 Co 0.48354(4) 0.22742(8) 0.05279(3)
Co2 Co 0.5000 0.5000 0.0000
N1 N 0.4352(2) 0.0832(5) 0.0587(2)
N2 N 0.3568(2) 0.7862(5) 0.20585(19)
O2 O 0.46339(18) 0.3587(4) 0.08874(16)
O3 O 0.47245(18) 0.5360(4) 0.05179(16)
O4 O 0.43404(17) 0.6189(5) 0.46028(17)
O5 O 0.4590(2) 0.8158(4) 0.48122(16)
O6 O 0.06411(17) 0.6835(4) 0.09217(16)
O7 O 0.05150(17) 0.8528(4) 0.04751(16)
C49 C 0.5346(3) 0.4772(7) 0.4149(3)
C50 C 0.5442(3) 0.5558(7) 0.3770(3)
C51 C 0.5378(3) 0.6844(7) 0.3774(3)
H47 H 0.5255 0.7211 0.3991
C52 C 0.5609(3) 0.5013(8) 0.3440(3)
H48 H 0.5643 0.4144 0.3430
C53 C 0.5728(3) 0.5795(9) 0.3116(3)
H49 H 0.5847 0.5436 0.2894
C54 C 0.5497(3) 0.7570(7) 0.3454(3)
H50 H 0.5458 0.8437 0.3464
C55 C 0.5672(3) 0.7087(8) 0.3122(3)
C56 C 0.5832(3) 0.7891(7) 0.2789(2)
H51 H 0.5630 0.7601 0.2441
H52 H 0.5719 0.8752 0.2801
C57 C 0.6557(3) 0.8710(7) 0.2619(2)
H53 H 0.6960 0.8753 0.2746
H54 H 0.6426 0.9546 0.2643
C58 C 0.6296(3) 0.8327(7) 0.2069(3)
C59 C 0.6072(3) 0.9227(6) 0.1696(3)
C60 C 0.6315(3) 0.7113(8) 0.1937(3)
H56 H 0.6478 0.6508 0.2189
C61 C 0.6096(3) 0.6762(6) 0.1432(3)
H57 H 0.6101 0.5923 0.1346
C62 C 0.5859(3) 0.8882(7) 0.1202(3)
H58 H 0.5700 0.9498 0.0954
C63 C 0.5868(3) 0.7674(6) 0.1053(2)
C64 C 0.5629(3) 0.7305(8) 0.0513(3)
C65 C 0.6759(2) 0.8247(7) 0.3469(2)
H59 H 0.6645 0.7745 0.3680
H60 H 0.6673 0.9118 0.3502
C66 C 0.7383(3) 0.8117(8) 0.3662(2)
C67 C 0.7740(3) 0.9053(7) 0.3936(3)
H61 H 0.7594 0.9789 0.3999
C68 C 0.8317(3) 0.8932(7) 0.4123(3)
H62 H 0.8552 0.9579 0.4314
C69 C 0.7614(3) 0.7059(8) 0.3577(3)
H63 H 0.7380 0.6402 0.3397
C70 C 0.8187(3) 0.6925(7) 0.3751(3)
H64 H 0.8331 0.6197 0.3679
C71 C 0.8541(3) 0.7868(6) 0.4028(2)
C72 C 0.9158(3) 0.7740(7) 0.4221(2)
Co3 Co 0.51646(4) 0.22742(8) 0.44721(3)
N4 N 0.6432(2) 0.7862(5) 0.29415(19)
O9 O 0.53661(18) 0.3587(4) 0.41126(16)
O10 O 0.52755(18) 0.5360(4) 0.44821(16)
O11 O 0.56596(17) 0.6189(5) 0.03972(17)
O12 O 0.5410(2) 0.8158(4) 0.01878(16)
O13 O 0.93589(17) 0.6835(4) 0.40783(16)
O14 O 0.94850(17) 0.8528(4) 0.45249(16)
Co7 Co 0.48354(4) 0.77258(8) 0.55279(3)
Co9 Co 0.5000 0.5000 0.5000
Co10_3 Co -0.0000 1.0000 0.0000
Co11_4 Co 1.0000 1.0000 0.5000
N5 N 0.5648(2) 0.0832(5) 0.4413(2)
O17 O 0.5410(2) 0.1842(4) 0.51878(16)
O19 O 0.56411(17) 0.1835(4) 0.09217(16)
O20 O 0.43589(17) 0.1835(4) 0.40783(16)
O21 O 0.55150(17) 0.3528(4) 0.04751(16)
O22 O 0.44850(17) 0.3528(4) 0.45249(16)
C33 C 0.1879 0.0568 0.9547
H24 H 0.1725 0.1235 0.9670
C34 C 0.2086 0.1100 0.9177
H26 H 0.1988 0.0446 0.8922
H27 H 0.1826 0.1782 0.9010
C35 C 0.2637 0.1596 0.9222
H28 H 0.2902 0.0905 0.9341
H29 H 0.2769 0.2221 0.9490
C36 C 0.2685 0.2183 0.8770
H30 H 0.3065 0.2440 0.8873
H31 H 0.2443 0.2902 0.8652
H32 H 0.2577 0.1577 0.8502
O1 O 0.2353 0.0016 0.9958
Co2_2 Co 0.5000 0.5000 1.0000
Co6 Co 0.51646(4) 0.77258(8) 0.94721(3)
Co10_4 Co 0.0000 1.0000 1.0000
O15 O 0.52755(18) 0.4640(4) 0.94821(16)
O16 O 0.43404(17) 0.3811(5) 0.96028(17)
O18 O 0.4590(2) 0.1842(4) 0.98122(16)
O23 O 0.44850(17) 0.6472(4) 0.95249(16)
C27 C 0.4307(3) 0.9765(7) 0.0347(3)
H21 H 0.4588 0.9572 0.0256
C28 C 0.3871(3) 0.8893(7) 0.0217(2)
H22 H 0.3867 0.8147 0.0051
C29 C 0.3451(3) 0.9185(7) 0.0343(3)
C30 C 0.2960(3) 0.8309(7) 0.0176(3)
C32 C 0.3036(3) 0.7058(7) 0.0202(3)
H23 H 0.3396 0.6726 0.0336
C43 C 0.2578(3) 0.6265(7) 0.0031(3)
C45 C 0.3121 0.4432 0.0453
H38 H 0.3275 0.3765 0.0330
H39 H 0.3410 0.5059 0.0620
C46 C 0.2914 0.3900 0.0823
H40 H 0.3012 0.4554 0.1078
H41 H 0.3174 0.3218 0.0990
C47 C 0.2363 0.3404 0.0778
H42 H 0.2098 0.4095 0.0659
H43 H 0.2231 0.2779 0.0510
C48 C 0.2315 0.2817 0.1230
H44 H 0.1935 0.2560 0.1127
H45 H 0.2557 0.2098 0.1348
H46 H 0.2423 0.3423 0.1498
O8 O 0.2647 0.4984 0.0042
C31 C 0.2422(3) 0.8735(7) 0.9969(3)
H25 H 0.1590 0.9941 0.9380
C37 C 0.1053(3) 0.3965(7) 0.9274(3)
H33 H 0.1030 0.3241 0.9089
C38 C 0.1492(3) 0.4741(7) 0.9384(3)
H34 H 0.1758 0.4543 0.9274
C39 C 0.0693(3) 0.5235(7) 0.9653(3)
H35 H 0.0412 0.5428 0.9744
C40 C 0.1129(3) 0.6107(7) 0.9783(2)
H36 H 0.1133 0.6853 0.9949
C41 C 0.1549(3) 0.5815(7) 0.9657(3)
C42 C 0.2040(3) 0.6691(7) 0.9824(3)
C44 C 0.1964(3) 0.7942(7) 0.9798(3)
H37 H 0.1604 0.8274 0.9664
N3 N 0.0648(2) 0.4168(5) 0.9413(2)
Co8 Co 0.01646(4) 0.27258(8) 0.94721(3)
Co10_5 Co 1.0000 0.0000 0.0000
Co10_6 Co 1.0000 0.0000 1.0000
Co4 Co 0.98354(4) 0.72742(8) 0.05279(3)
Co10_7 Co 1.0000 1.0000 0.0000
Co10_8 Co 1.0000 1.0000 1.0000
C25_2 C 0.6053(3) 0.1035(7) 0.4274(3)
H19_2 H 0.6030 0.1759 0.4089
C26_2 C 0.6492(3) 0.0259(7) 0.4384(3)
H20_2 H 0.6758 0.0457 0.4274
C33_2 C 0.8121 0.0568 0.5453
H24_2 H 0.8275 0.1235 0.5330
C34_2 C 0.7914 0.1100 0.5823
H26_2 H 0.8012 0.0446 0.6078
H27_2 H 0.8174 0.1782 0.5990
C35_2 C 0.7363 0.1596 0.5778
H28_2 H 0.7098 0.0905 0.5659
H29_2 H 0.7231 0.2221 0.5510
C36_2 C 0.7315 0.2183 0.6230
H30_2 H 0.6935 0.2440 0.6127
H31_2 H 0.7557 0.2902 0.6348
H32_2 H 0.7423 0.1577 0.6498
O1_2 O 0.7647 0.0016 0.5042
O15_2 O 0.47245(18) 0.4640(4) 0.55179(16)
O16_2 O 0.56596(17) 0.3811(5) 0.53972(17)
O23_2 O 0.55150(17) 0.6472(4) 0.54751(16)
C27_2 C 0.5693(3) 0.9765(7) 0.4653(3)
H21_2 H 0.5412 0.9572 0.4744
C28_2 C 0.6129(3) 0.8893(7) 0.4783(2)
H22_2 H 0.6133 0.8147 0.4949
C29_2 C 0.6549(3) 0.9185(7) 0.4657(3)
C30_2 C 0.7040(3) 0.8309(7) 0.4824(3)
C31_2 C 0.7578(3) 0.8735(7) 0.5031(3)
C32_2 C 0.6964(3) 0.7058(7) 0.4798(3)
H23_2 H 0.6604 0.6726 0.4664
H25_2 H 0.8410 0.9941 0.5620
C37_2 C 0.8947(3) 0.3965(7) 0.5726(3)
H33_2 H 0.8970 0.3241 0.5911
C38_2 C 0.8508(3) 0.4741(7) 0.5616(3)
H34_2 H 0.8242 0.4543 0.5726
C39_2 C 0.9307(3) 0.5235(7) 0.5347(3)
H35_2 H 0.9588 0.5428 0.5256
C40_2 C 0.8871(3) 0.6107(7) 0.5217(2)
H36_2 H 0.8867 0.6853 0.5051
C41_2 C 0.8451(3) 0.5815(7) 0.5343(3)
C42_2 C 0.7960(3) 0.6691(7) 0.5176(3)
C43_2 C 0.7422(3) 0.6265(7) 0.4969(3)
C44_2 C 0.8036(3) 0.7942(7) 0.5202(3)
H37_2 H 0.8396 0.8274 0.5336
C45_2 C 0.6879 0.4432 0.4547
H38_2 H 0.6725 0.3765 0.4670
H39_2 H 0.6590 0.5059 0.4380
C46_2 C 0.7086 0.3900 0.4177
H40_2 H 0.6988 0.4554 0.3922
H41_2 H 0.6826 0.3218 0.4010
C47_2 C 0.7637 0.3404 0.4222
H42_2 H 0.7902 0.4095 0.4341
H43_2 H 0.7769 0.2779 0.4490
C48_2 C 0.7685 0.2817 0.3770
H44_2 H 0.8065 0.2560 0.3873
H45_2 H 0.7443 0.2098 0.3652
H46_2 H 0.7577 0.3423 0.3502
O8_2 O 0.7353 0.4984 0.4958
N3_2 N 0.9352(2) 0.4168(5) 0.5587(2)
Co8_2 Co 0.98354(4) 0.27258(8) 0.55279(3)
C50_2 C 0.0442(3) 0.0558(7) 0.3770(3)
C51_2 C 0.0378(3) 0.1844(7) 0.3774(3)
H47_2 H 0.0255 0.2211 0.3991
C52_2 C 0.0609(3) 0.0013(8) 0.3440(3)
C53_2 C 0.0728(3) 0.0795(9) 0.3116(3)
H49_2 H 0.0847 0.0436 0.2894
C54_2 C 0.0497(3) 0.2570(7) 0.3454(3)
H50_2 H 0.0458 0.3437 0.3464
C55_2 C 0.0672(3) 0.2087(8) 0.3122(3)
C56_2 C 0.0832(3) 0.2891(7) 0.2789(2)
H51_2 H 0.0630 0.2601 0.2441
H52_2 H 0.0719 0.3752 0.2801
C57_2 C 0.1557(3) 0.3710(7) 0.2619(2)
H53_2 H 0.1960 0.3753 0.2746
H54_2 H 0.1426 0.4546 0.2643
C58_2 C 0.1296(3) 0.3327(7) 0.2069(3)
C59_2 C 0.1072(3) 0.4227(6) 0.1696(3)
H55_2 H 0.1065 0.5066 0.1783
C60_2 C 0.1315(3) 0.2113(8) 0.1937(3)
H56_2 H 0.1478 0.1508 0.2189
C61_2 C 0.1096(3) 0.1762(6) 0.1432(3)
H57_2 H 0.1101 0.0923 0.1346
C62_2 C 0.0859(3) 0.3882(7) 0.1202(3)
H58_2 H 0.0700 0.4498 0.0954
C63_2 C 0.0868(3) 0.2674(6) 0.1053(2)
C64_2 C 0.0629(3) 0.2305(8) 0.0513(3)
C65_2 C 0.1759(2) 0.3247(7) 0.3469(2)
H59_2 H 0.1645 0.2745 0.3680
H60_2 H 0.1673 0.4118 0.3502
C66_2 C 0.2383(3) 0.3117(8) 0.3662(2)
C67_2 C 0.2740(3) 0.4053(7) 0.3936(3)
H61_2 H 0.2594 0.4789 0.3999
C68_2 C 0.3317(3) 0.3932(7) 0.4123(3)
H62_2 H 0.3552 0.4579 0.4314
C69_2 C 0.2614(3) 0.2059(8) 0.3577(3)
H63_2 H 0.2380 0.1402 0.3397
C70_2 C 0.3187(3) 0.1925(7) 0.3751(3)
H64_2 H 0.3331 0.1197 0.3679
C71_2 C 0.3541(3) 0.2868(6) 0.4028(2)
C72_2 C 0.4158(3) 0.2740(7) 0.4221(2)
N4_2 N 0.1432(2) 0.2862(5) 0.29415(19)
O10_2 O 0.02755(18) 0.0360(4) 0.44821(16)
O11_2 O 0.06596(17) 0.1189(5) 0.03972(17)
O12_2 O 0.0410(2) 0.3158(4) 0.01878(16)
C49_2 C 0.0346(3) 0.9772(7) 0.4149(3)
H48_2 H 0.0643 0.9144 0.3430
O9_2 O 0.03661(18) 0.8587(4) 0.41126(16)
N5_2 N 0.0648(2) 0.5832(5) 0.4413(2)
O17_2 O 0.0410(2) 0.6842(4) 0.51878(16)
O15_3 O 0.02755(18) 0.9640(4) 0.94821(16)
C2_2 C 0.9558(3) 0.0558(7) 0.1230(3)
C3_2 C 0.9622(3) 0.1844(7) 0.1226(3)
H1_2 H 0.9745 0.2211 0.1009
C4_2 C 0.9391(3) 0.0013(8) 0.1560(3)
C5_2 C 0.9272(3) 0.0795(9) 0.1884(3)
H3_2 H 0.9153 0.0436 0.2106
C6_2 C 0.9503(3) 0.2570(7) 0.1546(3)
H4_2 H 0.9542 0.3437 0.1536
C7_2 C 0.9328(3) 0.2087(8) 0.1878(3)
C8_2 C 0.9168(3) 0.2891(7) 0.2211(2)
H5_2 H 0.9370 0.2601 0.2559
H6_2 H 0.9281 0.3752 0.2199
C9_2 C 0.8443(3) 0.3710(7) 0.2381(2)
H7_2 H 0.8040 0.3753 0.2254
H8_2 H 0.8574 0.4546 0.2357
C10_2 C 0.8704(3) 0.3327(7) 0.2931(3)
C11_2 C 0.8928(3) 0.4227(6) 0.3304(3)
H9_2 H 0.8935 0.5066 0.3217
C12_2 C 0.8685(3) 0.2113(8) 0.3063(3)
H10_2 H 0.8522 0.1508 0.2811
C13_2 C 0.8904(3) 0.1762(6) 0.3568(3)
H11_2 H 0.8899 0.0923 0.3654
C14_2 C 0.9141(3) 0.3882(7) 0.3798(3)
H12_2 H 0.9300 0.4498 0.4046
C15_2 C 0.9132(3) 0.2674(6) 0.3947(2)
C16_2 C 0.9371(3) 0.2305(8) 0.4487(3)
C17_2 C 0.8241(2) 0.3247(7) 0.1531(2)
H13_2 H 0.8355 0.2745 0.1320
H14_2 H 0.8327 0.4118 0.1498
C18_2 C 0.7617(3) 0.3117(8) 0.1338(2)
C19_2 C 0.7260(3) 0.4053(7) 0.1064(3)
H15_2 H 0.7406 0.4789 0.1001
C20_2 C 0.6683(3) 0.3932(7) 0.0877(3)
H16_2 H 0.6448 0.4579 0.0686
C21_2 C 0.7386(3) 0.2059(8) 0.1423(3)
H17_2 H 0.7620 0.1402 0.1603
C22_2 C 0.6813(3) 0.1925(7) 0.1249(3)
H18_2 H 0.6669 0.1197 0.1321
C23_2 C 0.6459(3) 0.2868(6) 0.0972(2)
C24_2 C 0.5842(3) 0.2740(7) 0.0779(2)
N2_2 N 0.8568(2) 0.2862(5) 0.20585(19)
O3_2 O 0.97245(18) 0.0360(4) 0.05179(16)
O4_2 O 0.93404(17) 0.1189(5) 0.46028(17)
O5_2 O 0.9590(2) 0.3158(4) 0.48122(16)
O23_3 O 0.94850(17) 0.1472(4) 0.95249(16)
C1_2 C 0.9654(3) 0.9772(7) 0.0851(3)
H2_2 H 0.9357 0.9144 0.1570
C25_3 C 0.8947(3) 0.6035(7) 0.0726(3)
H19_3 H 0.8970 0.6759 0.0911
C26_3 C 0.8508(3) 0.5259(7) 0.0616(3)
H20_3 H 0.8242 0.5457 0.0726
C27_3 C 0.9307(3) 0.4765(7) 0.0347(3)
H21_3 H 0.9588 0.4572 0.0256
C28_3 C 0.8871(3) 0.3893(7) 0.0217(2)
H22_3 H 0.8867 0.3147 0.0051
C29_3 C 0.8451(3) 0.4185(7) 0.0343(3)
C30_3 C 0.7960(3) 0.3309(7) 0.0176(3)
C32_3 C 0.8036(3) 0.2058(7) 0.0202(3)
H23_3 H 0.8396 0.1726 0.0336
N1_2 N 0.9352(2) 0.5832(5) 0.0587(2)
O2_2 O 0.96339(18) 0.8587(4) 0.08874(16)
C43_3 C 0.7578(3) 0.1265(7) 0.0031(3)
H39_3 H 0.8410 0.0059 0.0620
C31_3 C 0.7422(3) 0.3735(7) 0.9969(3)
C33_3 C 0.6879 0.5568 0.9547
H24_3 H 0.6725 0.6235 0.9670
H25_3 H 0.6590 0.4941 0.9380
C34_3 C 0.7086 0.6100 0.9177
H26_3 H 0.6988 0.5446 0.8922
H27_3 H 0.6826 0.6782 0.9010
C35_3 C 0.7637 0.6596 0.9222
H28_3 H 0.7902 0.5905 0.9341
H29_3 H 0.7769 0.7221 0.9490
C36_3 C 0.7685 0.7183 0.8770
H30_3 H 0.8065 0.7440 0.8873
H31_3 H 0.7443 0.7902 0.8652
H32_3 H 0.7577 0.6577 0.8502
O1_3 O 0.7353 0.5016 0.9958
C39_3 C 0.5693(3) 0.0235(7) 0.9653(3)
H35_3 H 0.5412 0.0428 0.9744
C40_3 C 0.6129(3) 0.1107(7) 0.9783(2)
H36_3 H 0.6133 0.1853 0.9949
C41_3 C 0.6549(3) 0.0815(7) 0.9657(3)
C42_3 C 0.7040(3) 0.1691(7) 0.9824(3)
C44_3 C 0.6964(3) 0.2942(7) 0.9798(3)
H37_3 H 0.6604 0.3274 0.9664
O16_3 O 0.93404(17) 0.8811(5) 0.96028(17)
O18_2 O 0.9590(2) 0.6842(4) 0.98122(16)
C45_3 C 0.8121 0.9432 0.0453
H38_3 H 0.8275 0.8765 0.0330
C46_3 C 0.7914 0.8900 0.0823
H40_3 H 0.8012 0.9554 0.1078
H41_3 H 0.8174 0.8218 0.0990
C47_3 C 0.7363 0.8404 0.0778
H42_3 H 0.7098 0.9095 0.0659
H43_3 H 0.7231 0.7779 0.0510
C48_3 C 0.7315 0.7817 0.1230
H44_3 H 0.6935 0.7560 0.1127
H45_3 H 0.7557 0.7098 0.1348
H46_3 H 0.7423 0.8423 0.1498
O8_3 O 0.7647 0.9984 0.0042
C37_3 C 0.6053(3) 0.8965(7) 0.9274(3)
H33_3 H 0.6030 0.8241 0.9089
C38_3 C 0.6492(3) 0.9741(7) 0.9384(3)
H34_3 H 0.6758 0.9543 0.9274
N3_3 N 0.5648(2) 0.9168(5) 0.9413(2)
O23_4 O 0.05150(17) 0.1472(4) 0.54751(16)
C25_4 C 0.1053(3) 0.6035(7) 0.4274(3)
H19_4 H 0.1030 0.6759 0.4089
C26_4 C 0.1492(3) 0.5259(7) 0.4384(3)
H20_4 H 0.1758 0.5457 0.4274
C27_4 C 0.0693(3) 0.4765(7) 0.4653(3)
H21_4 H 0.0412 0.4572 0.4744
C28_4 C 0.1129(3) 0.3893(7) 0.4783(2)
H22_4 H 0.1133 0.3147 0.4949
C29_4 C 0.1549(3) 0.4185(7) 0.4657(3)
C30_4 C 0.2040(3) 0.3309(7) 0.4824(3)
C31_4 C 0.2578(3) 0.3735(7) 0.5031(3)
C32_4 C 0.1964(3) 0.2058(7) 0.4798(3)
H23_4 H 0.1604 0.1726 0.4664
C33_4 C 0.3121 0.5568 0.5453
H24_4 H 0.3275 0.6235 0.5330
H25_4 H 0.3410 0.4941 0.5620
C34_4 C 0.2914 0.6100 0.5823
H26_4 H 0.3012 0.5446 0.6078
H27_4 H 0.3174 0.6782 0.5990
C35_4 C 0.2363 0.6596 0.5778
H28_4 H 0.2098 0.5905 0.5659
H29_4 H 0.2231 0.7221 0.5510
C36_4 C 0.2315 0.7183 0.6230
H30_4 H 0.1935 0.7440 0.6127
H31_4 H 0.2557 0.7902 0.6348
H32_4 H 0.2423 0.6577 0.6498
O1_4 O 0.2647 0.5016 0.5042
C39_4 C 0.4307(3) 0.0235(7) 0.5347(3)
H35_4 H 0.4588 0.0428 0.5256
C40_4 C 0.3871(3) 0.1107(7) 0.5217(2)
H36_4 H 0.3867 0.1853 0.5051
C41_4 C 0.3451(3) 0.0815(7) 0.5343(3)
C42_4 C 0.2960(3) 0.1691(7) 0.5176(3)
C43_4 C 0.2422(3) 0.1265(7) 0.4969(3)
C44_4 C 0.3036(3) 0.2942(7) 0.5202(3)
H37_4 H 0.3396 0.3274 0.5336
H39_4 H 0.1590 0.0059 0.4380
O16_4 O 0.06596(17) 0.8811(5) 0.53972(17)
C37_4 C 0.3947(3) 0.8965(7) 0.5726(3)
H33_4 H 0.3970 0.8241 0.5911
C38_4 C 0.3508(3) 0.9741(7) 0.5616(3)
H34_4 H 0.3242 0.9543 0.5726
C45_4 C 0.1879 0.9432 0.4547
H38_4 H 0.1725 0.8765 0.4670
C46_4 C 0.2086 0.8900 0.4177
H40_4 H 0.1988 0.9554 0.3922
H41_4 H 0.1826 0.8218 0.4010
C47_4 C 0.2637 0.8404 0.4222
H42_4 H 0.2902 0.9095 0.4341
H43_4 H 0.2769 0.7779 0.4490
C48_4 C 0.2685 0.7817 0.3770
H44_4 H 0.3065 0.7560 0.3873
H45_4 H 0.2443 0.7098 0.3652
H46_4 H 0.2577 0.8423 0.3502
O8_4 O 0.2353 0.9984 0.4958
N3_4 N 0.4352(2) 0.9168(5) 0.5587(2)
O15_4 O 0.97245(18) 0.9640(4) 0.55179(16)
C1_3 C 0.5346(3) 0.5228(7) 0.9149(3)
C2_3 C 0.5442(3) 0.4442(7) 0.8770(3)
C3_3 C 0.5378(3) 0.3156(7) 0.8774(3)
H1_3 H 0.5255 0.2789 0.8991
C4_3 C 0.5609(3) 0.4987(8) 0.8440(3)
H2_3 H 0.5643 0.5856 0.8430
C5_3 C 0.5728(3) 0.4205(9) 0.8116(3)
H3_3 H 0.5847 0.4564 0.7894
C6_3 C 0.5497(3) 0.2430(7) 0.8454(3)
H4_3 H 0.5458 0.1563 0.8464
C7_3 C 0.5672(3) 0.2913(8) 0.8122(3)
C8_3 C 0.5832(3) 0.2109(7) 0.7789(2)
H5_3 H 0.5630 0.2399 0.7441
H6_3 H 0.5719 0.1248 0.7801
C9_3 C 0.6557(3) 0.1290(7) 0.7619(2)
H7_3 H 0.6960 0.1247 0.7746
H8_3 H 0.6426 0.0454 0.7643
C10_3 C 0.6296(3) 0.1673(7) 0.7069(3)
C11_3 C 0.6072(3) 0.0773(6) 0.6696(3)
C12_3 C 0.6315(3) 0.2887(8) 0.6937(3)
H10_3 H 0.6478 0.3492 0.7189
C13_3 C 0.6096(3) 0.3238(6) 0.6432(3)
H11_3 H 0.6101 0.4077 0.6346
C14_3 C 0.5859(3) 0.1118(7) 0.6202(3)
H12_3 H 0.5700 0.0502 0.5954
C15_3 C 0.5868(3) 0.2326(6) 0.6053(2)
C16_3 C 0.5629(3) 0.2695(8) 0.5513(3)
C17_3 C 0.6759(2) 0.1753(7) 0.8469(2)
H13_3 H 0.6645 0.2255 0.8680
H14_3 H 0.6673 0.0882 0.8502
C18_3 C 0.7383(3) 0.1883(8) 0.8662(2)
C19_3 C 0.7740(3) 0.0947(7) 0.8936(3)
H15_3 H 0.7594 0.0211 0.8999
C20_3 C 0.8317(3) 0.1068(7) 0.9123(3)
H16_3 H 0.8552 0.0421 0.9314
C21_3 C 0.7614(3) 0.2941(8) 0.8577(3)
H17_3 H 0.7380 0.3598 0.8397
C22_3 C 0.8187(3) 0.3075(7) 0.8751(3)
H18_3 H 0.8331 0.3803 0.8679
C23_3 C 0.8541(3) 0.2132(6) 0.9028(2)
C24_3 C 0.9158(3) 0.2260(7) 0.9221(2)
N2_3 N 0.6432(2) 0.2138(5) 0.79415(19)
O2_3 O 0.53661(18) 0.6413(4) 0.91126(16)
O6_2 O 0.93589(17) 0.3165(4) 0.90783(16)
C49_3 C 0.4654(3) 0.5228(7) 0.5851(3)
C50_3 C 0.4558(3) 0.4442(7) 0.6230(3)
C51_3 C 0.4622(3) 0.3156(7) 0.6226(3)
H47_3 H 0.4745 0.2789 0.6009
C52_3 C 0.4391(3) 0.4987(8) 0.6560(3)
H48_3 H 0.4357 0.5856 0.6570
C53_3 C 0.4272(3) 0.4205(9) 0.6884(3)
H49_3 H 0.4153 0.4564 0.7106
C54_3 C 0.4503(3) 0.2430(7) 0.6546(3)
H50_3 H 0.4542 0.1563 0.6536
C55_3 C 0.4328(3) 0.2913(8) 0.6878(3)
C56_3 C 0.4168(3) 0.2109(7) 0.7211(2)
H51_3 H 0.4370 0.2399 0.7559
H52_3 H 0.4281 0.1248 0.7199
C57_3 C 0.3443(3) 0.1290(7) 0.7381(2)
H53_3 H 0.3040 0.1247 0.7254
H54_3 H 0.3574 0.0454 0.7357
C58_3 C 0.3704(3) 0.1673(7) 0.7931(3)
C59_3 C 0.3928(3) 0.0773(6) 0.8304(3)
C60_3 C 0.3685(3) 0.2887(8) 0.8063(3)
H56_3 H 0.3522 0.3492 0.7811
C61_3 C 0.3904(3) 0.3238(6) 0.8568(3)
H57_3 H 0.3899 0.4077 0.8654
C62_3 C 0.4141(3) 0.1118(7) 0.8798(3)
H58_3 H 0.4300 0.0502 0.9046
C63_3 C 0.4132(3) 0.2326(6) 0.8947(2)
C64_3 C 0.4371(3) 0.2695(8) 0.9487(3)
C65_3 C 0.3241(2) 0.1753(7) 0.6531(2)
H59_3 H 0.3355 0.2255 0.6320
H60_3 H 0.3327 0.0882 0.6498
C66_3 C 0.2617(3) 0.1883(8) 0.6338(2)
C67_3 C 0.2260(3) 0.0947(7) 0.6064(3)
H61_3 H 0.2406 0.0211 0.6001
C68_3 C 0.1683(3) 0.1068(7) 0.5877(3)
H62_3 H 0.1448 0.0421 0.5686
C69_3 C 0.2386(3) 0.2941(8) 0.6423(3)
H63_3 H 0.2620 0.3598 0.6603
C70_3 C 0.1813(3) 0.3075(7) 0.6249(3)
H64_3 H 0.1669 0.3803 0.6321
C71_3 C 0.1459(3) 0.2132(6) 0.5972(2)
C72_3 C 0.0842(3) 0.2260(7) 0.5779(2)
N4_3 N 0.3568(2) 0.2138(5) 0.70585(19)
O9_3 O 0.46339(18) 0.6413(4) 0.58874(16)
O13_2 O 0.06411(17) 0.3165(4) 0.59217(16)
O19_2 O 0.43589(17) 0.8165(4) 0.90783(16)
O20_2 O 0.56411(17) 0.8165(4) 0.59217(16)
H9_3 H 0.6065 0.9934 0.6783
H55_3 H 0.3935 0.9934 0.8217
C1_4 C 0.0346(3) 0.0228(7) 0.9149(3)
H2_4 H 0.0643 0.0856 0.8430
O2_4 O 0.03661(18) 0.1413(4) 0.91126(16)
C2_4 C 0.0442(3) 0.9442(7) 0.8770(3)
C3_4 C 0.0378(3) 0.8156(7) 0.8774(3)
H1_4 H 0.0255 0.7789 0.8991
C4_4 C 0.0609(3) 0.9987(8) 0.8440(3)
C5_4 C 0.0728(3) 0.9205(9) 0.8116(3)
H3_4 H 0.0847 0.9564 0.7894
C6_4 C 0.0497(3) 0.7430(7) 0.8454(3)
H4_4 H 0.0458 0.6563 0.8464
C7_4 C 0.0672(3) 0.7913(8) 0.8122(3)
C8_4 C 0.0832(3) 0.7109(7) 0.7789(2)
H5_4 H 0.0630 0.7399 0.7441
H6_4 H 0.0719 0.6248 0.7801
C9_4 C 0.1557(3) 0.6290(7) 0.7619(2)
H7_4 H 0.1960 0.6247 0.7746
H8_4 H 0.1426 0.5454 0.7643
C10_4 C 0.1296(3) 0.6673(7) 0.7069(3)
C11_4 C 0.1072(3) 0.5773(6) 0.6696(3)
H9_4 H 0.1065 0.4934 0.6783
C12_4 C 0.1315(3) 0.7887(8) 0.6937(3)
H10_4 H 0.1478 0.8492 0.7189
C13_4 C 0.1096(3) 0.8238(6) 0.6432(3)
H11_4 H 0.1101 0.9077 0.6346
C14_4 C 0.0859(3) 0.6118(7) 0.6202(3)
H12_4 H 0.0700 0.5502 0.5954
C15_4 C 0.0868(3) 0.7326(6) 0.6053(2)
C16_4 C 0.0629(3) 0.7695(8) 0.5513(3)
C17_4 C 0.1759(2) 0.6753(7) 0.8469(2)
H13_4 H 0.1645 0.7255 0.8680
H14_4 H 0.1673 0.5882 0.8502
C18_4 C 0.2383(3) 0.6883(8) 0.8662(2)
C19_4 C 0.2740(3) 0.5947(7) 0.8936(3)
H15_4 H 0.2594 0.5211 0.8999
C20_4 C 0.3317(3) 0.6068(7) 0.9123(3)
H16_4 H 0.3552 0.5421 0.9314
C21_4 C 0.2614(3) 0.7941(8) 0.8577(3)
H17_4 H 0.2380 0.8598 0.8397
C22_4 C 0.3187(3) 0.8075(7) 0.8751(3)
H18_4 H 0.3331 0.8803 0.8679
C23_4 C 0.3541(3) 0.7132(6) 0.9028(2)
C24_4 C 0.4158(3) 0.7260(7) 0.9221(2)
N2_4 N 0.1432(2) 0.7138(5) 0.79415(19)
C49_4 C 0.9654(3) 0.0228(7) 0.5851(3)
H48_4 H 0.9357 0.0856 0.6570
O9_4 O 0.96339(18) 0.1413(4) 0.58874(16)
C50_4 C 0.9558(3) 0.9442(7) 0.6230(3)
C51_4 C 0.9622(3) 0.8156(7) 0.6226(3)
H47_4 H 0.9745 0.7789 0.6009
C52_4 C 0.9391(3) 0.9987(8) 0.6560(3)
C53_4 C 0.9272(3) 0.9205(9) 0.6884(3)
H49_4 H 0.9153 0.9564 0.7106
C54_4 C 0.9503(3) 0.7430(7) 0.6546(3)
H50_4 H 0.9542 0.6563 0.6536
C55_4 C 0.9328(3) 0.7913(8) 0.6878(3)
C56_4 C 0.9168(3) 0.7109(7) 0.7211(2)
H51_4 H 0.9370 0.7399 0.7559
H52_4 H 0.9281 0.6248 0.7199
C57_4 C 0.8443(3) 0.6290(7) 0.7381(2)
H53_4 H 0.8040 0.6247 0.7254
H54_4 H 0.8574 0.5454 0.7357
C58_4 C 0.8704(3) 0.6673(7) 0.7931(3)
C59_4 C 0.8928(3) 0.5773(6) 0.8304(3)
H55_4 H 0.8935 0.4934 0.8217
C60_4 C 0.8685(3) 0.7887(8) 0.8063(3)
H56_4 H 0.8522 0.8492 0.7811
C61_4 C 0.8904(3) 0.8238(6) 0.8568(3)
H57_4 H 0.8899 0.9077 0.8654
C62_4 C 0.9141(3) 0.6118(7) 0.8798(3)
H58_4 H 0.9300 0.5502 0.9046
C63_4 C 0.9132(3) 0.7326(6) 0.8947(2)
C64_4 C 0.9371(3) 0.7695(8) 0.9487(3)
C65_4 C 0.8241(2) 0.6753(7) 0.6531(2)
H59_4 H 0.8355 0.7255 0.6320
H60_4 H 0.8327 0.5882 0.6498
C66_4 C 0.7617(3) 0.6883(8) 0.6338(2)
C67_4 C 0.7260(3) 0.5947(7) 0.6064(3)
H61_4 H 0.7406 0.5211 0.6001
C68_4 C 0.6683(3) 0.6068(7) 0.5877(3)
H62_4 H 0.6448 0.5421 0.5686
C69_4 C 0.7386(3) 0.7941(8) 0.6423(3)
H63_4 H 0.7620 0.8598 0.6603
C70_4 C 0.6813(3) 0.8075(7) 0.6249(3)
H64_4 H 0.6669 0.8803 0.6321
C71_4 C 0.6459(3) 0.7132(6) 0.5972(2)
C72_4 C 0.5842(3) 0.7260(7) 0.5779(2)
N4_4 N 0.8568(2) 0.7138(5) 0.70585(19)
loop_
_geom_bond_atom_site_label_1
_geom_bond_atom_site_label_2
_geom_bond_site_symmetry_1
_geom_bond_site_symmetry_2
C1 C2 1_555 1_555
C2 C3 1_555 1_555
C3 H1 1_555 1_555
C4 C2 1_555 1_555
H2 C4 1_555 1_555
C5 C4 1_555 1_555
H3 C5 1_555 1_555
C6 C3 1_555 1_555
H4 C6 1_555 1_555
C7 C5 1_555 1_555
C8 C7 1_555 1_555
H5 C8 1_555 1_555
H6 C8 1_555 1_555
C9 H7 1_555 1_555
H8 C9 1_555 1_555
C10 C9 1_555 1_555
C11 C10 1_555 1_555
C12 C10 1_555 1_555
H10 C12 1_555 1_555
C13 C12 1_555 1_555
H11 C13 1_555 1_555
C14 C11 1_555 1_555
H12 C14 1_555 1_555
C15 C13 1_555 1_555
C16 C15 1_555 1_555
C17 H13 1_555 1_555
H14 C17 1_555 1_555
C18 C17 1_555 1_555
C19 C18 1_555 1_555
H15 C19 1_555 1_555
C20 C19 1_555 1_555
H16 C20 1_555 1_555
C21 C18 1_555 1_555
H17 C21 1_555 1_555
C22 C21 1_555 1_555
H18 C22 1_555 1_555
C23 C20 1_555 1_555
C24 C23 1_555 1_555
C25 H19 1_555 1_555
C26 C25 1_555 1_555
H20 C26 1_555 1_555
Co1 N1 1_555 1_555
Co2 O3 1_555 1_555
N1 C25 1_555 1_555
N2 C8 1_555 1_555
O2 C1 1_555 1_555
O3 C1 1_555 1_555
O4 C16 1_555 1_555
O5 C16 1_555 1_555
O6 C24 1_555 1_555
O7 C24 1_555 1_555
C49 C50 1_555 1_555
C50 C51 1_555 1_555
C51 H47 1_555 1_555
C52 C50 1_555 1_555
H48 C52 1_555 1_555
C53 C52 1_555 1_555
H49 C53 1_555 1_555
C54 C51 1_555 1_555
H50 C54 1_555 1_555
C55 C53 1_555 1_555
C56 C55 1_555 1_555
H51 C56 1_555 1_555
H52 C56 1_555 1_555
C57 H53 1_555 1_555
H54 C57 1_555 1_555
C58 C57 1_555 1_555
C59 C58 1_555 1_555
C60 C58 1_555 1_555
H56 C60 1_555 1_555
C61 C60 1_555 1_555
H57 C61 1_555 1_555
C62 C59 1_555 1_555
H58 C62 1_555 1_555
C63 C61 1_555 1_555
C64 C63 1_555 1_555
C65 H59 1_555 1_555
H60 C65 1_555 1_555
C66 C65 1_555 1_555
C67 C66 1_555 1_555
H61 C67 1_555 1_555
C68 C67 1_555 1_555
H62 C68 1_555 1_555
C69 C66 1_555 1_555
H63 C69 1_555 1_555
C70 C69 1_555 1_555
H64 C70 1_555 1_555
C71 C68 1_555 1_555
C72 C71 1_555 1_555
Co3 O9 1_555 1_555
N4 C56 1_555 1_555
O9 C49 1_555 1_555
O10 C49 1_555 1_555
O11 Co2 1_555 1_555
O12 C64 1_555 1_555
O13 C72 1_555 1_555
O14 C72 1_555 1_555
Co7 O5 1_555 1_555
Co9 O4 1_555 1_555
Co10_3 O7 1_555 1_555
Co11_4 O14 1_555 1_555
N5 Co3 1_555 1_555
O17 Co3 1_555 1_555
O19 Co1 1_555 1_555
O20 Co3 1_555 1_555
O21 Co1 1_555 1_555
O22 Co3 1_555 1_555
C6 C7 1_555 1_555
C9 N2 1_555 1_555
C14 C15 1_555 1_555
C17 N2 1_555 1_555
C22 C23 1_555 1_555
Co1 O2 1_555 1_555
Co2 O21 1_555 1_555
C54 C55 1_555 1_555
C57 N4 1_555 1_555
C62 C63 1_555 1_555
C64 O11 1_555 1_555
C65 N4 1_555 1_555
C70 C71 1_555 1_555
O10 Co9 1_555 1_555
Co9 O22 1_555 1_555
C33 H24 1_555 1_555
C34 C33 1_555 1_555
H26 C34 1_555 1_555
H27 C34 1_555 1_555
C35 C34 1_555 1_555
H28 C35 1_555 1_555
H29 C35 1_555 1_555
C36 C35 1_555 1_555
H30 C36 1_555 1_555
H31 C36 1_555 1_555
H32 C36 1_555 1_555
O15 Co2_2 1_555 1_555
O16 Co2_2 1_555 1_555
O23 Co2_2 1_555 1_555
C33 O1 1_555 1_555
Co6 O23 1_555 1_555
C27 H21 1_555 1_555
C28 C27 1_555 1_555
H22 C28 1_555 1_555
C30 C29 1_555 1_555
C32 C30 1_555 1_555
H23 C32 1_555 1_555
C43 C32 1_555 1_555
C45 H38 1_555 1_555
H39 C45 1_555 1_555
C46 C45 1_555 1_555
H40 C46 1_555 1_555
H41 C46 1_555 1_555
C47 C46 1_555 1_555
H42 C47 1_555 1_555
H43 C47 1_555 1_555
C48 C47 1_555 1_555
H44 C48 1_555 1_555
H45 C48 1_555 1_555
H46 C48 1_555 1_555
O8 C43 1_555 1_555
C28 C29 1_555 1_555
C45 O8 1_555 1_555
C37 H33 1_555 1_555
C38 C37 1_555 1_555
H34 C38 1_555 1_555
C39 H35 1_555 1_555
C40 C39 1_555 1_555
H36 C40 1_555 1_555
C41 C38 1_555 1_555
C42 C41 1_555 1_555
C44 C31 1_555 1_555
H37 C44 1_555 1_555
N3 C37 1_555 1_555
Co8 N3 1_555 1_555
C39 N3 1_555 1_555
C40 C41 1_555 1_555
C42 C44 1_555 1_555
C25_2 H19_2 1_555 1_555
C26_2 C25_2 1_555 1_555
H20_2 C26_2 1_555 1_555
C33_2 H24_2 1_555 1_555
C34_2 C33_2 1_555 1_555
H26_2 C34_2 1_555 1_555
H27_2 C34_2 1_555 1_555
C35_2 C34_2 1_555 1_555
H28_2 C35_2 1_555 1_555
H29_2 C35_2 1_555 1_555
C36_2 C35_2 1_555 1_555
H30_2 C36_2 1_555 1_555
H31_2 C36_2 1_555 1_555
H32_2 C36_2 1_555 1_555
N5 C25_2 1_555 1_555
O15_2 Co9 1_555 1_555
O16_2 Co9 1_555 1_555
O23_2 Co9 1_555 1_555
C33_2 O1_2 1_555 1_555
Co7 O23_2 1_555 1_555
C27_2 H21_2 1_555 1_555
C28_2 C27_2 1_555 1_555
H22_2 C28_2 1_555 1_555
C30_2 C29_2 1_555 1_555
C31_2 C30_2 1_555 1_555
C32_2 C30_2 1_555 1_555
H23_2 C32_2 1_555 1_555
C37_2 H33_2 1_555 1_555
C38_2 C37_2 1_555 1_555
H34_2 C38_2 1_555 1_555
C39_2 H35_2 1_555 1_555
C40_2 C39_2 1_555 1_555
H36_2 C40_2 1_555 1_555
C41_2 C38_2 1_555 1_555
C42_2 C41_2 1_555 1_555
C43_2 C32_2 1_555 1_555
C44_2 C31_2 1_555 1_555
H37_2 C44_2 1_555 1_555
C45_2 H38_2 1_555 1_555
H39_2 C45_2 1_555 1_555
C46_2 C45_2 1_555 1_555
H40_2 C46_2 1_555 1_555
H41_2 C46_2 1_555 1_555
C47_2 C46_2 1_555 1_555
H42_2 C47_2 1_555 1_555
H43_2 C47_2 1_555 1_555
C48_2 C47_2 1_555 1_555
H44_2 C48_2 1_555 1_555
H45_2 C48_2 1_555 1_555
H46_2 C48_2 1_555 1_555
O8_2 C43_2 1_555 1_555
N3_2 C37_2 1_555 1_555
Co8_2 N3_2 1_555 1_555
C28_2 C29_2 1_555 1_555
C39_2 N3_2 1_555 1_555
C40_2 C41_2 1_555 1_555
C42_2 C43_2 1_555 1_555
C42_2 C44_2 1_555 1_555
C45_2 O8_2 1_555 1_555
C50_2 C51_2 1_555 1_555
C51_2 H47_2 1_555 1_555
C52_2 C50_2 1_555 1_555
C53_2 C52_2 1_555 1_555
H49_2 C53_2 1_555 1_555
C54_2 C51_2 1_555 1_555
H50_2 C54_2 1_555 1_555
C55_2 C53_2 1_555 1_555
C56_2 C55_2 1_555 1_555
H51_2 C56_2 1_555 1_555
H52_2 C56_2 1_555 1_555
C57_2 H53_2 1_555 1_555
H54_2 C57_2 1_555 1_555
C58_2 C57_2 1_555 1_555
C59_2 C58_2 1_555 1_555
H55_2 C59_2 1_555 1_555
C60_2 C58_2 1_555 1_555
H56_2 C60_2 1_555 1_555
C61_2 C60_2 1_555 1_555
H57_2 C61_2 1_555 1_555
C62_2 C59_2 1_555 1_555
H58_2 C62_2 1_555 1_555
C63_2 C61_2 1_555 1_555
C64_2 C63_2 1_555 1_555
C65_2 H59_2 1_555 1_555
H60_2 C65_2 1_555 1_555
C66_2 C65_2 1_555 1_555
C67_2 C66_2 1_555 1_555
H61_2 C67_2 1_555 1_555
C68_2 C67_2 1_555 1_555
H62_2 C68_2 1_555 1_555
C69_2 C66_2 1_555 1_555
H63_2 C69_2 1_555 1_555
C70_2 C69_2 1_555 1_555
H64_2 C70_2 1_555 1_555
C71_2 C68_2 1_555 1_555
C72_2 C71_2 1_555 1_555
N4_2 C56_2 1_555 1_555
O11_2 Co10 1_555 1_555
O12_2 C64_2 1_555 1_555
O20 C72_2 1_555 1_555
O22 C72_2 1_555 1_555
C54_2 C55_2 1_555 1_555
C57_2 N4_2 1_555 1_555
C62_2 C63_2 1_555 1_555
C64_2 O11_2 1_555 1_555
C65_2 N4_2 1_555 1_555
C70_2 C71_2 1_555 1_555
O10_2 Co11 1_555 1_555
Co5 O9_2 1_555 1_555
O9_2 C49_2 1_555 1_555
N5_2 Co5 1_555 1_555
O17_2 Co5 1_555 1_555
O15_3 Co10_4 1_555 1_555
C2_2 C3_2 1_555 1_555
C3_2 H1_2 1_555 1_555
C4_2 C2_2 1_555 1_555
C5_2 C4_2 1_555 1_555
H3_2 C5_2 1_555 1_555
C6_2 C3_2 1_555 1_555
H4_2 C6_2 1_555 1_555
C7_2 C5_2 1_555 1_555
C8_2 C7_2 1_555 1_555
H5_2 C8_2 1_555 1_555
H6_2 C8_2 1_555 1_555
C9_2 H7_2 1_555 1_555
H8_2 C9_2 1_555 1_555
C10_2 C9_2 1_555 1_555
C11_2 C10_2 1_555 1_555
H9_2 C11_2 1_555 1_555
C12_2 C10_2 1_555 1_555
H10_2 C12_2 1_555 1_555
C13_2 C12_2 1_555 1_555
H11_2 C13_2 1_555 1_555
C14_2 C11_2 1_555 1_555
H12_2 C14_2 1_555 1_555
C15_2 C13_2 1_555 1_555
C16_2 C15_2 1_555 1_555
C17_2 H13_2 1_555 1_555
H14_2 C17_2 1_555 1_555
C18_2 C17_2 1_555 1_555
C19_2 C18_2 1_555 1_555
H15_2 C19_2 1_555 1_555
C20_2 C19_2 1_555 1_555
H16_2 C20_2 1_555 1_555
C21_2 C18_2 1_555 1_555
H17_2 C21_2 1_555 1_555
C22_2 C21_2 1_555 1_555
H18_2 C22_2 1_555 1_555
C23_2 C20_2 1_555 1_555
C24_2 C23_2 1_555 1_555
Co10_5 O3_2 1_555 1_555
N2_2 C8_2 1_555 1_555
O4_2 C16_2 1_555 1_555
O5_2 C16_2 1_555 1_555
O19 C24_2 1_555 1_555
O21 C24_2 1_555 1_555
Co8_2 O5_2 1_555 1_555
Co11_3 O4_2 1_555 1_555
C6_2 C7_2 1_555 1_555
C9_2 N2_2 1_555 1_555
C14_2 C15_2 1_555 1_555
C17_2 N2_2 1_555 1_555
C22_2 C23_2 1_555 1_555
O23_3 Co10_6 1_555 1_555
C25_3 H19_3 1_555 1_555
C26_3 C25_3 1_555 1_555
H20_3 C26_3 1_555 1_555
C27_3 H21_3 1_555 1_555
C28_3 C27_3 1_555 1_555
H22_3 C28_3 1_555 1_555
C29_3 C26_3 1_555 1_555
C30_3 C29_3 1_555 1_555
C32_3 C30_3 1_555 1_555
H23_3 C32_3 1_555 1_555
Co4 N1_2 1_555 1_555
N1_2 C25_3 1_555 1_555
O2_2 C1_2 1_555 1_555
C43_3 C32_3 1_555 1_555
C27_3 N1_2 1_555 1_555
C28_3 C29_3 1_555 1_555
Co4 O2_2 1_555 1_555
C33_3 H24_3 1_555 1_555
H25_3 C33_3 1_555 1_555
C34_3 C33_3 1_555 1_555
H26_3 C34_3 1_555 1_555
H27_3 C34_3 1_555 1_555
C35_3 C34_3 1_555 1_555
H28_3 C35_3 1_555 1_555
H29_3 C35_3 1_555 1_555
C36_3 C35_3 1_555 1_555
H30_3 C36_3 1_555 1_555
H31_3 C36_3 1_555 1_555
H32_3 C36_3 1_555 1_555
O1_3 C31_3 1_555 1_555
C39_3 H35_3 1_555 1_555
C40_3 C39_3 1_555 1_555
H36_3 C40_3 1_555 1_555
C42_3 C41_3 1_555 1_555
C44_3 C31_3 1_555 1_555
H37_3 C44_3 1_555 1_555
O16_3 Co10_8 1_555 1_555
C33_3 O1_3 1_555 1_555
C40_3 C41_3 1_555 1_555
C42_3 C44_3 1_555 1_555
C45_3 H38_3 1_555 1_555
C46_3 C45_3 1_555 1_555
H40_3 C46_3 1_555 1_555
H41_3 C46_3 1_555 1_555
C47_3 C46_3 1_555 1_555
H42_3 C47_3 1_555 1_555
H43_3 C47_3 1_555 1_555
C48_3 C47_3 1_555 1_555
H44_3 C48_3 1_555 1_555
H45_3 C48_3 1_555 1_555
H46_3 C48_3 1_555 1_555
C45_3 O8_3 1_555 1_555
C37_3 H33_3 1_555 1_555
C38_3 C37_3 1_555 1_555
H34_3 C38_3 1_555 1_555
N3_3 C37_3 1_555 1_555
Co6 N3_3 1_555 1_555
O23_4 Co11 1_555 1_555
C25_4 H19_4 1_555 1_555
C26_4 C25_4 1_555 1_555
H20_4 C26_4 1_555 1_555
C27_4 H21_4 1_555 1_555
C28_4 C27_4 1_555 1_555
H22_4 C28_4 1_555 1_555
C29_4 C26_4 1_555 1_555
C30_4 C29_4 1_555 1_555
C31_4 C30_4 1_555 1_555
C32_4 C30_4 1_555 1_555
H23_4 C32_4 1_555 1_555
C33_4 H24_4 1_555 1_555
H25_4 C33_4 1_555 1_555
C34_4 C33_4 1_555 1_555
H26_4 C34_4 1_555 1_555
H27_4 C34_4 1_555 1_555
C35_4 C34_4 1_555 1_555
H28_4 C35_4 1_555 1_555
H29_4 C35_4 1_555 1_555
C36_4 C35_4 1_555 1_555
H30_4 C36_4 1_555 1_555
H31_4 C36_4 1_555 1_555
H32_4 C36_4 1_555 1_555
O1_4 C31_4 1_555 1_555
N5_2 C25_4 1_555 1_555
C39_4 H35_4 1_555 1_555
C40_4 C39_4 1_555 1_555
H36_4 C40_4 1_555 1_555
C42_4 C41_4 1_555 1_555
C43_4 C32_4 1_555 1_555
C44_4 C31_4 1_555 1_555
H37_4 C44_4 1_555 1_555
O16_4 Co11_2 1_555 1_555
C27_4 N5_2 1_555 1_555
C28_4 C29_4 1_555 1_555
C33_4 O1_4 1_555 1_555
C40_4 C41_4 1_555 1_555
C42_4 C43_4 1_555 1_555
C42_4 C44_4 1_555 1_555
C37_4 H33_4 1_555 1_555
C38_4 C37_4 1_555 1_555
H34_4 C38_4 1_555 1_555
C45_4 H38_4 1_555 1_555
C46_4 C45_4 1_555 1_555
H40_4 C46_4 1_555 1_555
H41_4 C46_4 1_555 1_555
C47_4 C46_4 1_555 1_555
H42_4 C47_4 1_555 1_555
H43_4 C47_4 1_555 1_555
C48_4 C47_4 1_555 1_555
H44_4 C48_4 1_555 1_555
H45_4 C48_4 1_555 1_555
H46_4 C48_4 1_555 1_555
N3_4 C37_4 1_555 1_555
Co7 N3_4 1_555 1_555
C45_4 O8_4 1_555 1_555
O15_4 Co11_4 1_555 1_555
C1_3 C2_3 1_555 1_555
C2_3 C3_3 1_555 1_555
C3_3 H1_3 1_555 1_555
C4_3 C2_3 1_555 1_555
H2_3 C4_3 1_555 1_555
C5_3 C4_3 1_555 1_555
H3_3 C5_3 1_555 1_555
C6_3 C3_3 1_555 1_555
H4_3 C6_3 1_555 1_555
C7_3 C5_3 1_555 1_555
C8_3 C7_3 1_555 1_555
H5_3 C8_3 1_555 1_555
H6_3 C8_3 1_555 1_555
C9_3 H7_3 1_555 1_555
H8_3 C9_3 1_555 1_555
C10_3 C9_3 1_555 1_555
C11_3 C10_3 1_555 1_555
C12_3 C10_3 1_555 1_555
H10_3 C12_3 1_555 1_555
C13_3 C12_3 1_555 1_555
H11_3 C13_3 1_555 1_555
C14_3 C11_3 1_555 1_555
H12_3 C14_3 1_555 1_555
C15_3 C13_3 1_555 1_555
C16_3 C15_3 1_555 1_555
C17_3 H13_3 1_555 1_555
H14_3 C17_3 1_555 1_555
C18_3 C17_3 1_555 1_555
C19_3 C18_3 1_555 1_555
H15_3 C19_3 1_555 1_555
C20_3 C19_3 1_555 1_555
H16_3 C20_3 1_555 1_555
C21_3 C18_3 1_555 1_555
H17_3 C21_3 1_555 1_555
C22_3 C21_3 1_555 1_555
H18_3 C22_3 1_555 1_555
C23_3 C20_3 1_555 1_555
C24_3 C23_3 1_555 1_555
N2_3 C8_3 1_555 1_555
O2_3 C1_3 1_555 1_555
O15 C1_3 1_555 1_555
O16_2 C16_3 1_555 1_555
O17 C16_3 1_555 1_555
O6_2 C24_3 1_555 1_555
O23_3 C24_3 1_555 1_555
C49_3 C50_3 1_555 1_555
C50_3 C51_3 1_555 1_555
C51_3 H47_3 1_555 1_555
C52_3 C50_3 1_555 1_555
H48_3 C52_3 1_555 1_555
C53_3 C52_3 1_555 1_555
H49_3 C53_3 1_555 1_555
C54_3 C51_3 1_555 1_555
H50_3 C54_3 1_555 1_555
C55_3 C53_3 1_555 1_555
C56_3 C55_3 1_555 1_555
H51_3 C56_3 1_555 1_555
H52_3 C56_3 1_555 1_555
C57_3 H53_3 1_555 1_555
H54_3 C57_3 1_555 1_555
C58_3 C57_3 1_555 1_555
C59_3 C58_3 1_555 1_555
C60_3 C58_3 1_555 1_555
H56_3 C60_3 1_555 1_555
C61_3 C60_3 1_555 1_555
H57_3 C61_3 1_555 1_555
C62_3 C59_3 1_555 1_555
H58_3 C62_3 1_555 1_555
C63_3 C61_3 1_555 1_555
C64_3 C63_3 1_555 1_555
C65_3 H59_3 1_555 1_555
H60_3 C65_3 1_555 1_555
C66_3 C65_3 1_555 1_555
C67_3 C66_3 1_555 1_555
H61_3 C67_3 1_555 1_555
C68_3 C67_3 1_555 1_555
H62_3 C68_3 1_555 1_555
C69_3 C66_3 1_555 1_555
H63_3 C69_3 1_555 1_555
C70_3 C69_3 1_555 1_555
H64_3 C70_3 1_555 1_555
C71_3 C68_3 1_555 1_555
C72_3 C71_3 1_555 1_555
Co7 O9_3 1_555 1_555
N4_3 C56_3 1_555 1_555
O9_3 C49_3 1_555 1_555
O15_2 C49_3 1_555 1_555
O18 C64_3 1_555 1_555
O13_2 C72_3 1_555 1_555
O23_4 C72_3 1_555 1_555
O19_2 Co6 1_555 1_555
O20_2 Co7 1_555 1_555
C6_3 C7_3 1_555 1_555
C9_3 N2_3 1_555 1_555
C14_3 C15_3 1_555 1_555
C17_3 N2_3 1_555 1_555
C22_3 C23_3 1_555 1_555
Co6 O2_3 1_555 1_555
C54_3 C55_3 1_555 1_555
C57_3 N4_3 1_555 1_555
C62_3 C63_3 1_555 1_555
C64_3 O16 1_555 1_555
C65_3 N4_3 1_555 1_555
C70_3 C71_3 1_555 1_555
O2_4 C1_4 1_555 1_555
Co8 O2_4 1_555 1_555
C2_4 C3_4 1_555 1_555
C3_4 H1_4 1_555 1_555
C4_4 C2_4 1_555 1_555
C5_4 C4_4 1_555 1_555
H3_4 C5_4 1_555 1_555
C6_4 C3_4 1_555 1_555
H4_4 C6_4 1_555 1_555
C7_4 C5_4 1_555 1_555
C8_4 C7_4 1_555 1_555
H5_4 C8_4 1_555 1_555
H6_4 C8_4 1_555 1_555
C9_4 H7_4 1_555 1_555
H8_4 C9_4 1_555 1_555
C10_4 C9_4 1_555 1_555
C11_4 C10_4 1_555 1_555
H9_4 C11_4 1_555 1_555
C12_4 C10_4 1_555 1_555
H10_4 C12_4 1_555 1_555
C13_4 C12_4 1_555 1_555
H11_4 C13_4 1_555 1_555
C14_4 C11_4 1_555 1_555
H12_4 C14_4 1_555 1_555
C15_4 C13_4 1_555 1_555
C16_4 C15_4 1_555 1_555
C17_4 H13_4 1_555 1_555
H14_4 C17_4 1_555 1_555
C18_4 C17_4 1_555 1_555
C19_4 C18_4 1_555 1_555
H15_4 C19_4 1_555 1_555
C20_4 C19_4 1_555 1_555
H16_4 C20_4 1_555 1_555
C21_4 C18_4 1_555 1_555
H17_4 C21_4 1_555 1_555
C22_4 C21_4 1_555 1_555
H18_4 C22_4 1_555 1_555
C23_4 C20_4 1_555 1_555
C24_4 C23_4 1_555 1_555
N2_4 C8_4 1_555 1_555
O16_4 C16_4 1_555 1_555
O17_2 C16_4 1_555 1_555
O19_2 C24_4 1_555 1_555
O23 C24_4 1_555 1_555
C6_4 C7_4 1_555 1_555
C9_4 N2_4 1_555 1_555
C14_4 C15_4 1_555 1_555
C17_4 N2_4 1_555 1_555
C22_4 C23_4 1_555 1_555
Co8_2 O9_4 1_555 1_555
O9_4 C49_4 1_555 1_555
C50_4 C51_4 1_555 1_555
C51_4 H47_4 1_555 1_555
C52_4 C50_4 1_555 1_555
C53_4 C52_4 1_555 1_555
H49_4 C53_4 1_555 1_555
C54_4 C51_4 1_555 1_555
H50_4 C54_4 1_555 1_555
C55_4 C53_4 1_555 1_555
C56_4 C55_4 1_555 1_555
H51_4 C56_4 1_555 1_555
H52_4 C56_4 1_555 1_555
C57_4 H53_4 1_555 1_555
H54_4 C57_4 1_555 1_555
C58_4 C57_4 1_555 1_555
C59_4 C58_4 1_555 1_555
H55_4 C59_4 1_555 1_555
C60_4 C58_4 1_555 1_555
H56_4 C60_4 1_555 1_555
C61_4 C60_4 1_555 1_555
H57_4 C61_4 1_555 1_555
C62_4 C59_4 1_555 1_555
H58_4 C62_4 1_555 1_555
C63_4 C61_4 1_555 1_555
C64_4 C63_4 1_555 1_555
C65_4 H59_4 1_555 1_555
H60_4 C65_4 1_555 1_555
C66_4 C65_4 1_555 1_555
C67_4 C66_4 1_555 1_555
H61_4 C67_4 1_555 1_555
C68_4 C67_4 1_555 1_555
H62_4 C68_4 1_555 1_555
C69_4 C66_4 1_555 1_555
H63_4 C69_4 1_555 1_555
C70_4 C69_4 1_555 1_555
H64_4 C70_4 1_555 1_555
C71_4 C68_4 1_555 1_555
C72_4 C71_4 1_555 1_555
N4_4 C56_4 1_555 1_555
O18_2 C64_4 1_555 1_555
O20_2 C72_4 1_555 1_555
O23_2 C72_4 1_555 1_555
C54_4 C55_4 1_555 1_555
C57_4 N4_4 1_555 1_555
C62_4 C63_4 1_555 1_555
C64_4 O16_3 1_555 1_555
C65_4 N4_4 1_555 1_555
C70_4 C71_4 1_555 1_555

#END
