
###############################################################################
#
# This file contains modified crystal structure data generated from the
# MOF subset of the Cambridge Structural Database (CSD) v543 
# hosted by the Cambridge Crystallographic Data Centre (CCDC).
#
# This work is licensed under the Creative Commons
# Attribution-NonCommercial-ShareAlike 4.0 International License.
# To view a copy of this license, visit
# http://creativecommons.org/licenses/by-nc-sa/4.0/
# or send a letter to
# Creative Commons, PO Box 1866, Mountain View, CA 94042, USA.
#
# CIF created using the CSD Python API on 29 September 2022
# The structure has been converted into the P1 space group
# The structure has a 3D framework
# The original CSD entry GUFREF is in the monoclinic crystal system
# The framework has been calculated to contain at least 10.0% void space
# The void calculation uses a probe of radius 1.32A, grid spacing 0.4
#
###############################################################################

data_GUFREF
_chemical_formula_moiety         '(C238 H232 Cd8 N24 O32)n'
_symmetry_cell_setting           triclinic
_symmetry_space_group_name_H-M   'P 1'
_symmetry_Int_Tables_number      1
_space_group_name_Hall           'P 1'
loop_
_symmetry_equiv_pos_site_id
_symmetry_equiv_pos_as_xyz
1 x,y,z
_cell_length_a                   21.635(2)
_cell_length_b                   13.2075(13)
_cell_length_c                   23.307(2)
_cell_angle_alpha                90
_cell_angle_beta                 98.2060(10)
_cell_angle_gamma                90
_cell_volume                     6591.65
loop_
_atom_site_label
_atom_site_type_symbol
_atom_site_fract_x
_atom_site_fract_y
_atom_site_fract_z
Cd2 Cd 0.291365(11) 0.059092(19) 0.643912(11)
O5 O 0.34016(14) 0.0962(2) 0.73562(13)
O8 O 0.24875(16) 0.2395(3) 0.64039(15)
O10 O 0.22038(16) 0.1366(2) 0.56933(13)
N7 N 0.38267(13) 0.1214(2) 0.60883(13)
C31 C 0.37492(18) 0.0205(3) 0.74667(16)
C32 C 0.4233(2) 0.0240(3) 0.80048(18)
H30 H 0.4641 0.0346 0.7888
H31 H 0.4145 0.0818 0.8237
C13 C 0.17332(16) 0.2883(3) 0.00599(17)
C14 C 0.20174(18) 0.3796(3) 0.02085(17)
H11 H 0.2124 0.3971 0.0596
C16 C 0.15503(19) 0.2184(3) 0.0519(2)
H13 H 0.1901 0.2102 0.0825
H14 H 0.1446 0.1523 0.0350
C17 C 0.09887(18) 0.2607(3) 0.07757(17)
H15 H 0.0906 0.2176 0.1093
H16 H 0.1091 0.3276 0.0932
C18 C 0.04094(18) 0.2673(4) 0.03373(19)
H17 H 0.0312 0.2008 0.0172
H18 H 0.0486 0.3123 0.0026
H22 H 0.0023 0.4550 0.0543
Cd1 Cd 0.208635(11) 0.559092(19) 0.856088(11)
O1 O 0.15984(14) 0.5962(2) 0.76438(13)
O2 O 0.12798(15) 0.4442(2) 0.78534(13)
N1 N 0.20079(14) 0.4247(2) 0.92135(14)
N3 N 0.29340(14) 0.4836(2) 0.82057(14)
C1 C 0.12508(18) 0.5205(3) 0.75333(16)
C2 C 0.0767(2) 0.5240(3) 0.69952(18)
H1 H 0.0359 0.5346 0.7112
H2 H 0.0855 0.5818 0.6763
C3 C 0.07420(18) 0.4302(3) 0.66247(17)
C4 C 0.02537(19) 0.3623(3) 0.65984(19)
C5 C 0.0244(2) 0.2769(4) 0.6252(2)
C6 C 0.0726(2) 0.2586(3) 0.5928(2)
H5 H 0.0715 0.2012 0.5696
C7 C 0.12172(17) 0.3250(3) 0.59517(16)
C8 C 0.12194(17) 0.4106(3) 0.63001(16)
H6 H 0.1550 0.4560 0.6316
C9 C 0.1755(2) 0.3025(3) 0.56181(18)
H7 H 0.1993 0.3639 0.5584
H8 H 0.1591 0.2798 0.5230
C10 C 0.21815(19) 0.2210(3) 0.59249(18)
C11 C 0.17481(17) 0.3348(3) 0.90687(17)
H9 H 0.1659 0.3182 0.8678
C12 C 0.16058(17) 0.2654(3) 0.94750(18)
H10 H 0.1425 0.2037 0.9356
C15 C 0.2144(2) 0.4451(3) 0.97777(18)
H12 H 0.2335 0.5066 0.9887
C24 C 0.28564(18) 0.4009(3) 0.7874(2)
H23 H 0.2451 0.3781 0.7759
C25 C 0.33343(18) 0.3477(3) 0.76937(19)
H24 H 0.3249 0.2901 0.7467
C26 C 0.39386(16) 0.3791(3) 0.78452(16)
C27 C 0.4024(2) 0.4656(4) 0.8175(2)
H25 H 0.4425 0.4911 0.8281
C28 C 0.35207(19) 0.5147(4) 0.8349(2)
H26 H 0.3595 0.5724 0.8577
C29 C 0.44747(18) 0.3185(3) 0.7672(2)
H27 H 0.4640 0.2752 0.7994
H28 H 0.4314 0.2748 0.7350
C30 C 0.5000 0.3796(5) 0.7500
H29 H 0.5164 0.4230 0.7822
Cd5 Cd 0.791365(11) 0.559092(19) 0.643912(11)
O6 O 0.37202(15) 0.9442(2) 0.71466(13)
O7 O 0.25125(16) 0.7395(3) 0.85961(15)
O9 O 0.27962(16) 0.6366(2) 0.93067(13)
N5 N 0.29921(14) 0.9247(2) 0.57865(14)
N6 N 0.11733(13) 0.6214(2) 0.89117(13)
N8 N 0.70660(14) 0.4836(2) 0.67943(14)
N9 N 0.20660(14) 0.9836(2) 0.67943(14)
C33 C 0.42580(18) 0.9302(3) 0.83753(17)
C34 C 0.47463(19) 0.8623(3) 0.84016(19)
H32 H 0.5070 0.8739 0.8186
C35 C 0.4756(2) 0.7769(4) 0.8748(2)
H33 H 0.5087 0.7315 0.8765
C36 C 0.4274(2) 0.7586(3) 0.9072(2)
H34 H 0.4285 0.7012 0.9304
C37 C 0.37828(17) 0.8250(3) 0.90483(16)
C38 C 0.37806(17) 0.9106(3) 0.86999(16)
H35 H 0.3450 0.9560 0.8684
C39 C 0.3245(2) 0.8025(3) 0.93819(18)
H36 H 0.3007 0.8639 0.9416
H37 H 0.3409 0.7798 0.9770
C40 C 0.28185(19) 0.7210(3) 0.90751(18)
C49 C 0.01466(17) 0.6938(3) 0.93948(16)
C50 C 0.0567(2) 0.7584(3) 0.9192(2)
H48 H 0.0514 0.8281 0.9214
C51 C 0.10649(18) 0.7196(3) 0.89577(19)
H49 H 0.1341 0.7649 0.8824
C52 C 0.07623(18) 0.5591(3) 0.9092(2)
H50 H 0.0821 0.4898 0.9054
C53 C 0.02509(18) 0.5919(3) 0.9334(2)
C54 C 0.71436(18) 0.4009(3) 0.7126(2)
H52 H 0.7549 0.3781 0.7241
C55 C 0.66657(18) 0.3477(3) 0.73063(19)
H53 H 0.6751 0.2901 0.7533
C56 C 0.60614(16) 0.3791(3) 0.71548(16)
C57 C 0.5976(2) 0.4656(4) 0.6825(2)
H54 H 0.5575 0.4911 0.6719
C58 C 0.64793(19) 0.5147(4) 0.6651(2)
H55 H 0.6405 0.5724 0.6423
C59 C 0.55253(18) 0.3185(3) 0.7328(2)
H56 H 0.5360 0.2752 0.7006
H57 H 0.5686 0.2748 0.7650
H58 H 0.4836 0.4230 0.7178
N2 N 0.88267(13) 0.3786(2) 0.10883(13)
C19 C 0.98534(17) 0.3062(3) 0.06052(16)
C20 C 0.9433(2) 0.2416(3) 0.0808(2)
H19 H 0.9486 0.1719 0.0786
C21 C 0.89351(18) 0.2804(3) 0.10423(19)
H20 H 0.8659 0.2351 0.1176
C22 C 0.92377(18) 0.4409(3) 0.0908(2)
H21 H 0.9179 0.5102 0.0946
C23 C 0.97491(18) 0.4081(3) 0.0666(2)
Cd4 Cd 0.791365(11) 0.440908(19) 0.143912(11)
N4 N 0.79921(14) 0.5753(2) 0.07865(14)
C41 C 0.82519(17) 0.6652(3) 0.09313(17)
H38 H 0.8341 0.6818 0.1322
C42 C 0.83942(17) 0.7346(3) 0.05250(18)
H39 H 0.8575 0.7963 0.0644
C45 C 0.7856(2) 0.5549(3) 0.02223(18)
H41 H 0.7665 0.4934 0.0113
H3 H 0.9930 0.3739 0.6814
H4 H 0.9913 0.2315 0.6235
C43 C 0.82668(16) 0.7117(3) 0.99401(17)
C44 C 0.79826(18) 0.6204(3) 0.97915(17)
H40 H 0.7876 0.6029 0.9404
C46 C 0.84497(19) 0.7816(3) 0.9481(2)
H42 H 0.8099 0.7898 0.9175
H43 H 0.8554 0.8477 0.9650
C47 C 0.90113(18) 0.7393(3) 0.92243(17)
H44 H 0.9094 0.7824 0.8907
H45 H 0.8909 0.6724 0.9068
C48 C 0.95906(18) 0.7327(4) 0.96627(19)
H46 H 0.9688 0.7992 0.9828
H47 H 0.9514 0.6877 0.9974
H51 H 0.9977 0.5450 0.9457
N2_2 N 0.11733(13) 0.3786(2) 0.39117(13)
H3_2 H 0.0070 0.3739 0.8186
H4_2 H 0.0087 0.2315 0.8765
C19_2 C 0.01466(17) 0.3062(3) 0.43948(16)
C20_2 C 0.0567(2) 0.2416(3) 0.4192(2)
H19_2 H 0.0514 0.1719 0.4214
C21_2 C 0.10649(18) 0.2804(3) 0.39577(19)
H20_2 H 0.1341 0.2351 0.3824
C22_2 C 0.07623(18) 0.4409(3) 0.4092(2)
H21_2 H 0.0821 0.5102 0.4054
C23_2 C 0.02509(18) 0.4081(3) 0.4334(2)
Cd4_2 Cd 0.208635(11) 0.440908(19) 0.356088(11)
N4_2 N 0.20079(14) 0.5753(2) 0.42135(14)
C41_2 C 0.17481(17) 0.6652(3) 0.40687(17)
H38_2 H 0.1659 0.6818 0.3678
C42_2 C 0.16058(17) 0.7346(3) 0.44750(18)
H39_2 H 0.1425 0.7963 0.4356
C43_2 C 0.17332(16) 0.7117(3) 0.50599(17)
C44_2 C 0.20174(18) 0.6204(3) 0.52085(17)
H40_2 H 0.2124 0.6029 0.5596
C45_2 C 0.2144(2) 0.5549(3) 0.47777(18)
H41_2 H 0.2335 0.4934 0.4887
C46_2 C 0.15503(19) 0.7816(3) 0.5519(2)
H42_2 H 0.1901 0.7898 0.5825
H43_2 H 0.1446 0.8477 0.5350
C47_2 C 0.09887(18) 0.7393(3) 0.57757(17)
H44_2 H 0.0906 0.7824 0.6093
H45_2 H 0.1091 0.6724 0.5932
C48_2 C 0.04094(18) 0.7327(4) 0.53373(19)
H46_2 H 0.0312 0.7992 0.5172
H47_2 H 0.0486 0.6877 0.5026
H51_2 H 0.0023 0.5450 0.5543
Cd2_2 Cd 0.708635(11) 0.059092(19) 0.856088(11)
O5_2 O 0.65984(14) 0.0962(2) 0.76438(13)
O8_2 O 0.75125(16) 0.2395(3) 0.85961(15)
O10_2 O 0.77962(16) 0.1366(2) 0.93067(13)
N7_2 N 0.61733(13) 0.1214(2) 0.89117(13)
C31_2 C 0.62508(18) 0.0205(3) 0.75333(16)
C32_2 C 0.5767(2) 0.0240(3) 0.69952(18)
H30_2 H 0.5359 0.0346 0.7112
H31_2 H 0.5855 0.0818 0.6763
O1_2 O 0.84016(14) 0.5962(2) 0.73562(13)
O2_2 O 0.87202(15) 0.4442(2) 0.71466(13)
N1_2 N 0.79921(14) 0.4247(2) 0.57865(14)
C1_2 C 0.87492(18) 0.5205(3) 0.74667(16)
C2_2 C 0.9233(2) 0.5240(3) 0.80048(18)
H1_2 H 0.9641 0.5346 0.7888
H2_2 H 0.9145 0.5818 0.8237
C3_2 C 0.92580(18) 0.4302(3) 0.83753(17)
C4_2 C 0.97463(19) 0.3623(3) 0.84016(19)
C5_2 C 0.9756(2) 0.2769(4) 0.8748(2)
C6_2 C 0.9274(2) 0.2586(3) 0.9072(2)
H5_2 H 0.9285 0.2012 0.9304
C7_2 C 0.87828(17) 0.3250(3) 0.90483(16)
C8_2 C 0.87806(17) 0.4106(3) 0.86999(16)
H6_2 H 0.8450 0.4560 0.8684
C9_2 C 0.8245(2) 0.3025(3) 0.93819(18)
H7_2 H 0.8007 0.3639 0.9416
H8_2 H 0.8409 0.2798 0.9770
C10_2 C 0.78185(19) 0.2210(3) 0.90751(18)
C11_2 C 0.82519(17) 0.3348(3) 0.59313(17)
H9_2 H 0.8341 0.3182 0.6322
C12_2 C 0.83942(17) 0.2654(3) 0.55250(18)
H10_2 H 0.8575 0.2037 0.5644
C13_2 C 0.82668(16) 0.2883(3) 0.49401(17)
C14_2 C 0.79826(18) 0.3796(3) 0.47915(17)
H11_2 H 0.7876 0.3971 0.4404
C15_2 C 0.7856(2) 0.4451(3) 0.52223(18)
H12_2 H 0.7665 0.5066 0.5113
C16_2 C 0.84497(19) 0.2184(3) 0.4481(2)
H13_2 H 0.8099 0.2102 0.4175
H14_2 H 0.8554 0.1523 0.4650
C17_2 C 0.90113(18) 0.2607(3) 0.42243(17)
H15_2 H 0.9094 0.2176 0.3907
H16_2 H 0.8909 0.3276 0.4068
C18_2 C 0.95906(18) 0.2673(4) 0.46627(19)
H17_2 H 0.9688 0.2008 0.4828
H18_2 H 0.9514 0.3123 0.4974
H22_2 H 0.9977 0.4550 0.4457
O6_2 O 0.62798(15) 0.9442(2) 0.78534(13)
O7_2 O 0.74875(16) 0.7395(3) 0.64039(15)
O9_2 O 0.72038(16) 0.6366(2) 0.56933(13)
N5_2 N 0.70079(14) 0.9247(2) 0.92135(14)
N6_2 N 0.88267(13) 0.6214(2) 0.60883(13)
N9_2 N 0.79340(14) 0.9836(2) 0.82057(14)
C33_2 C 0.57420(18) 0.9302(3) 0.66247(17)
C34_2 C 0.52537(19) 0.8623(3) 0.65984(19)
H32_2 H 0.4930 0.8739 0.6814
C35_2 C 0.5244(2) 0.7769(4) 0.6252(2)
H33_2 H 0.4913 0.7315 0.6235
C36_2 C 0.5726(2) 0.7586(3) 0.5928(2)
H34_2 H 0.5715 0.7012 0.5696
C37_2 C 0.62172(17) 0.8250(3) 0.59517(16)
C38_2 C 0.62194(17) 0.9106(3) 0.63001(16)
H35_2 H 0.6550 0.9560 0.6316
C39_2 C 0.6755(2) 0.8025(3) 0.56181(18)
H36_2 H 0.6993 0.8639 0.5584
H37_2 H 0.6591 0.7798 0.5230
C40_2 C 0.71815(19) 0.7210(3) 0.59249(18)
C49_2 C 0.98534(17) 0.6938(3) 0.56052(16)
C50_2 C 0.9433(2) 0.7584(3) 0.5808(2)
H48_2 H 0.9486 0.8281 0.5786
C51_2 C 0.89351(18) 0.7196(3) 0.60423(19)
H49_2 H 0.8659 0.7649 0.6176
C52_2 C 0.92377(18) 0.5591(3) 0.5908(2)
H50_2 H 0.9179 0.4898 0.5946
C53_2 C 0.97491(18) 0.5919(3) 0.5666(2)
C58_2 C 0.14793(19) 0.0147(4) 0.6651(2)
H55_2 H 0.1405 0.0724 0.6423
C30_2 C 0.0000 0.8796(5) 0.7500
H29_2 H 0.0164 0.9230 0.7822
C54_2 C 0.21436(18) 0.9009(3) 0.7126(2)
H52_2 H 0.2549 0.8781 0.7241
C55_2 C 0.16657(18) 0.8477(3) 0.73063(19)
H53_2 H 0.1751 0.7901 0.7533
C56_2 C 0.10614(16) 0.8791(3) 0.71548(16)
C57_2 C 0.0976(2) 0.9656(4) 0.6825(2)
H54_2 H 0.0575 0.9911 0.6719
C59_2 C 0.05253(18) 0.8185(3) 0.7328(2)
H56_2 H 0.0360 0.7752 0.7006
H57_2 H 0.0686 0.7748 0.7650
H21_3 H 0.4179 0.0102 0.0946
N4_3 N 0.29921(14) 0.0753(2) 0.07865(14)
C41_3 C 0.32519(17) 0.1652(3) 0.09313(17)
H38_3 H 0.3341 0.1818 0.1322
C42_3 C 0.33942(17) 0.2346(3) 0.05250(18)
H39_3 H 0.3575 0.2963 0.0644
C45_3 C 0.2856(2) 0.0549(3) 0.02223(18)
H12_3 H 0.7335 0.0066 0.9887
C28_2 C 0.85207(19) 0.0147(4) 0.8349(2)
H26_2 H 0.8595 0.0724 0.8577
C43_3 C 0.32668(16) 0.2117(3) 0.99401(17)
C44_3 C 0.29826(18) 0.1204(3) 0.97915(17)
H40_3 H 0.2876 0.1029 0.9404
C46_3 C 0.34497(19) 0.2816(3) 0.9481(2)
H42_3 H 0.3099 0.2898 0.9175
H43_3 H 0.3554 0.3477 0.9650
C47_3 C 0.40113(18) 0.2393(3) 0.92243(17)
H44_3 H 0.4094 0.2824 0.8907
H45_3 H 0.3909 0.1724 0.9068
C48_3 C 0.45906(18) 0.2327(4) 0.96627(19)
H46_3 H 0.4688 0.2992 0.9828
H47_3 H 0.4514 0.1877 0.9974
C49_3 C 0.51466(17) 0.1938(3) 0.93948(16)
C50_3 C 0.5567(2) 0.2584(3) 0.9192(2)
H48_3 H 0.5514 0.3281 0.9214
C51_3 C 0.60649(18) 0.2196(3) 0.89577(19)
H49_3 H 0.6341 0.2649 0.8824
C52_3 C 0.57623(18) 0.0591(3) 0.9092(2)
C53_3 C 0.52509(18) 0.0919(3) 0.9334(2)
H51_3 H 0.4977 0.0450 0.9457
N2_3 N 0.38267(13) 0.8786(2) 0.10883(13)
C13_3 C 0.67332(16) 0.7883(3) 0.00599(17)
C14_3 C 0.70174(18) 0.8796(3) 0.02085(17)
H11_3 H 0.7124 0.8971 0.0596
C16_3 C 0.65503(19) 0.7184(3) 0.0519(2)
H13_3 H 0.6901 0.7102 0.0825
H14_3 H 0.6446 0.6523 0.0350
C17_3 C 0.59887(18) 0.7607(3) 0.07757(17)
H15_3 H 0.5906 0.7176 0.1093
H16_3 H 0.6091 0.8276 0.0932
C18_3 C 0.54094(18) 0.7673(4) 0.03373(19)
H17_3 H 0.5312 0.7008 0.0172
H18_3 H 0.5486 0.8123 0.0026
C19_3 C 0.48534(17) 0.8062(3) 0.06052(16)
C20_3 C 0.4433(2) 0.7416(3) 0.0808(2)
H19_3 H 0.4486 0.6719 0.0786
C21_3 C 0.39351(18) 0.7804(3) 0.10423(19)
H20_3 H 0.3659 0.7351 0.1176
C22_3 C 0.42377(18) 0.9409(3) 0.0908(2)
C23_3 C 0.47491(18) 0.9081(3) 0.0666(2)
H22_3 H 0.5023 0.9550 0.0543
Cd4_3 Cd 0.291365(11) 0.940908(19) 0.143912(11)
H41_3 H 0.2665 0.9934 0.0113
C11_3 C 0.67481(17) 0.8348(3) 0.90687(17)
H9_3 H 0.6659 0.8182 0.8678
C12_3 C 0.66058(17) 0.7654(3) 0.94750(18)
H10_3 H 0.6425 0.7037 0.9356
C15_3 C 0.7144(2) 0.9451(3) 0.97777(18)
C24_2 C 0.78564(18) 0.9009(3) 0.7874(2)
H23_2 H 0.7451 0.8781 0.7759
C25_2 C 0.83343(18) 0.8477(3) 0.76937(19)
H24_2 H 0.8249 0.7901 0.7467
C26_2 C 0.89386(16) 0.8791(3) 0.78452(16)
C27_2 C 0.9024(2) 0.9656(4) 0.8175(2)
H25_2 H 0.9425 0.9911 0.8281
C29_2 C 0.94747(18) 0.8185(3) 0.7672(2)
H27_2 H 0.9640 0.7752 0.7994
H28_2 H 0.9314 0.7748 0.7350
C30_3 C 1.0000 0.8796(5) 0.7500
H50_3 H 0.5821 0.9898 0.9054
H58_2 H 0.9836 0.9230 0.7178
H12_4 H 0.2665 0.0066 0.5113
H21_4 H 0.5821 0.0102 0.4054
N4_4 N 0.70079(14) 0.0753(2) 0.42135(14)
C41_4 C 0.67481(17) 0.1652(3) 0.40687(17)
H38_4 H 0.6659 0.1818 0.3678
C42_4 C 0.66058(17) 0.2346(3) 0.44750(18)
H39_4 H 0.6425 0.2963 0.4356
C43_4 C 0.67332(16) 0.2117(3) 0.50599(17)
C44_4 C 0.70174(18) 0.1204(3) 0.52085(17)
H40_4 H 0.7124 0.1029 0.5596
C45_4 C 0.7144(2) 0.0549(3) 0.47777(18)
C46_4 C 0.65503(19) 0.2816(3) 0.5519(2)
H42_4 H 0.6901 0.2898 0.5825
H43_4 H 0.6446 0.3477 0.5350
C47_4 C 0.59887(18) 0.2393(3) 0.57757(17)
H44_4 H 0.5906 0.2824 0.6093
H45_4 H 0.6091 0.1724 0.5932
C48_4 C 0.54094(18) 0.2327(4) 0.53373(19)
H46_4 H 0.5312 0.2992 0.5172
H47_4 H 0.5486 0.1877 0.5026
C49_4 C 0.48534(17) 0.1938(3) 0.56052(16)
C50_4 C 0.4433(2) 0.2584(3) 0.5808(2)
H48_4 H 0.4486 0.3281 0.5786
C51_4 C 0.39351(18) 0.2196(3) 0.60423(19)
H49_4 H 0.3659 0.2649 0.6176
C52_4 C 0.42377(18) 0.0591(3) 0.5908(2)
C53_4 C 0.47491(18) 0.0919(3) 0.5666(2)
H51_4 H 0.5023 0.0450 0.5543
N2_4 N 0.61733(13) 0.8786(2) 0.39117(13)
C11_4 C 0.32519(17) 0.8348(3) 0.59313(17)
H9_4 H 0.3341 0.8182 0.6322
C12_4 C 0.33942(17) 0.7654(3) 0.55250(18)
H10_4 H 0.3575 0.7037 0.5644
C13_4 C 0.32668(16) 0.7883(3) 0.49401(17)
C14_4 C 0.29826(18) 0.8796(3) 0.47915(17)
H11_4 H 0.2876 0.8971 0.4404
C15_4 C 0.2856(2) 0.9451(3) 0.52223(18)
C16_4 C 0.34497(19) 0.7184(3) 0.4481(2)
H13_4 H 0.3099 0.7102 0.4175
H14_4 H 0.3554 0.6523 0.4650
C17_4 C 0.40113(18) 0.7607(3) 0.42243(17)
H15_4 H 0.4094 0.7176 0.3907
H16_4 H 0.3909 0.8276 0.4068
C18_4 C 0.45906(18) 0.7673(4) 0.46627(19)
H17_4 H 0.4688 0.7008 0.4828
H18_4 H 0.4514 0.8123 0.4974
C19_4 C 0.51466(17) 0.8062(3) 0.43948(16)
C20_4 C 0.5567(2) 0.7416(3) 0.4192(2)
H19_4 H 0.5514 0.6719 0.4214
C21_4 C 0.60649(18) 0.7804(3) 0.39577(19)
H20_4 H 0.6341 0.7351 0.3824
C22_4 C 0.57623(18) 0.9409(3) 0.4092(2)
C23_4 C 0.52509(18) 0.9081(3) 0.4334(2)
H22_4 H 0.4977 0.9550 0.4457
Cd4_4 Cd 0.708635(11) 0.940908(19) 0.356088(11)
H41_4 H 0.7335 0.9934 0.4887
H50_4 H 0.4179 0.9898 0.5946
H3_3 H 0.0070 0.6261 0.3186
H4_3 H 0.0087 0.7685 0.3765
O1_3 O 0.84016(14) 0.4038(2) 0.23562(13)
O2_3 O 0.87202(15) 0.5558(2) 0.21466(13)
O3 O 0.75125(16) 0.7605(3) 0.35961(15)
O4 O 0.77962(16) 0.8634(2) 0.43067(13)
N3_2 N 0.70660(14) 0.5164(2) 0.17943(14)
C1_3 C 0.87492(18) 0.4795(3) 0.24667(16)
C2_3 C 0.9233(2) 0.4760(3) 0.30048(18)
H1_3 H 0.9641 0.4654 0.2888
H2_3 H 0.9145 0.4182 0.3237
C3_3 C 0.92580(18) 0.5698(3) 0.33753(17)
C4_3 C 0.97463(19) 0.6377(3) 0.34016(19)
C5_3 C 0.9756(2) 0.7231(4) 0.3748(2)
C6_3 C 0.9274(2) 0.7414(3) 0.4072(2)
H5_3 H 0.9285 0.7988 0.4304
C7_3 C 0.87828(17) 0.6750(3) 0.40483(16)
C8_3 C 0.87806(17) 0.5894(3) 0.36999(16)
H6_3 H 0.8450 0.5440 0.3684
C9_3 C 0.8245(2) 0.6975(3) 0.43819(18)
H7_3 H 0.8007 0.6361 0.4416
H8_3 H 0.8409 0.7202 0.4770
C10_3 C 0.78185(19) 0.7790(3) 0.40751(18)
C24_3 C 0.71436(18) 0.5991(3) 0.2126(2)
H23_3 H 0.7549 0.6219 0.2241
C25_3 C 0.66657(18) 0.6523(3) 0.23063(19)
H24_3 H 0.6751 0.7099 0.2533
C26_3 C 0.60614(16) 0.6209(3) 0.21548(16)
C27_3 C 0.5976(2) 0.5344(4) 0.1825(2)
H25_3 H 0.5575 0.5089 0.1719
C28_3 C 0.64793(19) 0.4853(4) 0.1651(2)
H26_3 H 0.6405 0.4276 0.1423
C29_3 C 0.55253(18) 0.6815(3) 0.2328(2)
H27_3 H 0.5360 0.7248 0.2006
H28_3 H 0.5686 0.7252 0.2650
C30_4 C 0.5000 0.6204(5) 0.2500
H29_3 H 0.4836 0.5770 0.2178
O6_3 O 0.62798(15) 0.0558(2) 0.28534(13)
O7_3 O 0.74875(16) 0.2605(3) 0.14039(15)
O9_3 O 0.72038(16) 0.3634(2) 0.06933(13)
N8_2 N 0.29340(14) 0.5164(2) 0.32057(14)
N9_3 N 0.79340(14) 0.0164(2) 0.32057(14)
C33_3 C 0.57420(18) 0.0698(3) 0.16247(17)
C34_3 C 0.52537(19) 0.1377(3) 0.15984(19)
H32_3 H 0.4930 0.1261 0.1814
C35_3 C 0.5244(2) 0.2231(4) 0.1252(2)
H33_3 H 0.4913 0.2685 0.1235
C36_3 C 0.5726(2) 0.2414(3) 0.0928(2)
H34_3 H 0.5715 0.2988 0.0696
C37_3 C 0.62172(17) 0.1750(3) 0.09517(16)
C38_3 C 0.62194(17) 0.0894(3) 0.13001(16)
H35_3 H 0.6550 0.0440 0.1316
C39_3 C 0.6755(2) 0.1975(3) 0.06181(18)
H36_3 H 0.6993 0.1361 0.0584
H37_3 H 0.6591 0.2202 0.0230
C40_3 C 0.71815(19) 0.2790(3) 0.09249(18)
C54_3 C 0.28564(18) 0.5991(3) 0.2874(2)
H52_3 H 0.2451 0.6219 0.2759
C55_3 C 0.33343(18) 0.6523(3) 0.26937(19)
H53_3 H 0.3249 0.7099 0.2467
C56_3 C 0.39386(16) 0.6209(3) 0.28452(16)
C57_3 C 0.4024(2) 0.5344(4) 0.3175(2)
H54_3 H 0.4425 0.5089 0.3281
C58_3 C 0.35207(19) 0.4853(4) 0.3349(2)
H55_3 H 0.3595 0.4276 0.3577
C59_3 C 0.44747(18) 0.6815(3) 0.2672(2)
H56_3 H 0.4640 0.7248 0.2994
H57_3 H 0.4314 0.7252 0.2350
H58_3 H 0.5164 0.5770 0.2822
O5_3 O 0.65984(14) 0.9038(2) 0.26438(13)
C31_3 C 0.62508(18) 0.9795(3) 0.25333(16)
C32_3 C 0.5767(2) 0.9760(3) 0.19952(18)
H30_3 H 0.5359 0.9654 0.2112
H31_3 H 0.5855 0.9182 0.1763
O1_4 O 0.15984(14) 0.4038(2) 0.26438(13)
O2_4 O 0.12798(15) 0.5558(2) 0.28534(13)
O3_2 O 0.24875(16) 0.7605(3) 0.14039(15)
O4_2 O 0.22038(16) 0.8634(2) 0.06933(13)
C1_4 C 0.12508(18) 0.4795(3) 0.25333(16)
C2_4 C 0.0767(2) 0.4760(3) 0.19952(18)
H1_4 H 0.0359 0.4654 0.2112
H2_4 H 0.0855 0.4182 0.1763
C3_4 C 0.07420(18) 0.5698(3) 0.16247(17)
C4_4 C 0.02537(19) 0.6377(3) 0.15984(19)
C5_4 C 0.0244(2) 0.7231(4) 0.1252(2)
C6_4 C 0.0726(2) 0.7414(3) 0.0928(2)
H5_4 H 0.0715 0.7988 0.0696
C7_4 C 0.12172(17) 0.6750(3) 0.09517(16)
C8_4 C 0.12194(17) 0.5894(3) 0.13001(16)
H6_4 H 0.1550 0.5440 0.1316
C9_4 C 0.1755(2) 0.6975(3) 0.06181(18)
H7_4 H 0.1993 0.6361 0.0584
H8_4 H 0.1591 0.7202 0.0230
C10_4 C 0.21815(19) 0.7790(3) 0.09249(18)
O6_4 O 0.37202(15) 0.0558(2) 0.21466(13)
O7_4 O 0.25125(16) 0.2605(3) 0.35961(15)
O9_4 O 0.27962(16) 0.3634(2) 0.43067(13)
N9_4 N 0.20660(14) 0.0164(2) 0.17943(14)
C33_4 C 0.42580(18) 0.0698(3) 0.33753(17)
C34_4 C 0.47463(19) 0.1377(3) 0.34016(19)
H32_4 H 0.5070 0.1261 0.3186
C35_4 C 0.4756(2) 0.2231(4) 0.3748(2)
H33_4 H 0.5087 0.2685 0.3765
C36_4 C 0.4274(2) 0.2414(3) 0.4072(2)
H34_4 H 0.4285 0.2988 0.4304
C37_4 C 0.37828(17) 0.1750(3) 0.40483(16)
C38_4 C 0.37806(17) 0.0894(3) 0.36999(16)
H35_4 H 0.3450 0.0440 0.3684
C39_4 C 0.3245(2) 0.1975(3) 0.43819(18)
H36_4 H 0.3007 0.1361 0.4416
H37_4 H 0.3409 0.2202 0.4770
C40_4 C 0.28185(19) 0.2790(3) 0.40751(18)
O5_4 O 0.34016(14) 0.9038(2) 0.23562(13)
C31_4 C 0.37492(18) 0.9795(3) 0.24667(16)
C32_4 C 0.4233(2) 0.9760(3) 0.30048(18)
H30_4 H 0.4641 0.9654 0.2888
H31_4 H 0.4145 0.9182 0.3237
H3_4 H 0.9930 0.6261 0.1814
H4_4 H 0.9913 0.7685 0.1235
C24_4 C 0.21436(18) 0.0991(3) 0.2126(2)
H23_4 H 0.2549 0.1219 0.2241
C25_4 C 0.16657(18) 0.1523(3) 0.23063(19)
H24_4 H 0.1751 0.2099 0.2533
C26_4 C 0.10614(16) 0.1209(3) 0.21548(16)
C27_4 C 0.0976(2) 0.0344(4) 0.1825(2)
H25_4 H 0.0575 0.0089 0.1719
C29_4 C 0.05253(18) 0.1815(3) 0.2328(2)
H27_4 H 0.0360 0.2248 0.2006
H28_4 H 0.0686 0.2252 0.2650
C30_5 C -0.0000 0.1204(5) 0.2500
H58_4 H 0.0164 0.0770 0.2822
C28_4 C 0.14793(19) 0.9853(4) 0.1651(2)
H26_4 H 0.1405 0.9276 0.1423
C30_6 C 1.0000 0.1204(5) 0.2500
H29_4 H 0.9836 0.0770 0.2178
C54_4 C 0.78564(18) 0.0991(3) 0.2874(2)
H52_4 H 0.7451 0.1219 0.2759
C55_4 C 0.83343(18) 0.1523(3) 0.26937(19)
H53_4 H 0.8249 0.2099 0.2467
C56_4 C 0.89386(16) 0.1209(3) 0.28452(16)
C57_4 C 0.9024(2) 0.0344(4) 0.3175(2)
H54_4 H 0.9425 0.0089 0.3281
C59_4 C 0.94747(18) 0.1815(3) 0.2672(2)
H56_4 H 0.9640 0.2248 0.2994
H57_4 H 0.9314 0.2252 0.2350
C58_4 C 0.85207(19) 0.9853(4) 0.3349(2)
H55_4 H 0.8595 0.9276 0.3577
loop_
_geom_bond_atom_site_label_1
_geom_bond_atom_site_label_2
_geom_bond_site_symmetry_1
_geom_bond_site_symmetry_2
Cd2 O5 1_555 1_555
O5 C31 1_555 1_555
O8 Cd2 1_555 1_555
O10 Cd2 1_555 1_555
N7 Cd2 1_555 1_555
C32 C31 1_555 1_555
H30 C32 1_555 1_555
H31 C32 1_555 1_555
C14 C13 1_555 1_555
H11 C14 1_555 1_555
C16 C13 1_555 1_555
H13 C16 1_555 1_555
H14 C16 1_555 1_555
C17 C16 1_555 1_555
H15 C17 1_555 1_555
H16 C17 1_555 1_555
C18 C17 1_555 1_555
H17 C18 1_555 1_555
H18 C18 1_555 1_555
Cd1 O1 1_555 1_555
O1 C1 1_555 1_555
O2 Cd1 1_555 1_555
O8 C10 1_555 1_555
O10 C10 1_555 1_555
N1 Cd1 1_555 1_555
N3 Cd1 1_555 1_555
C1 O2 1_555 1_555
C2 C1 1_555 1_555
H1 C2 1_555 1_555
H2 C2 1_555 1_555
C3 C2 1_555 1_555
C4 C3 1_555 1_555
C5 C4 1_555 1_555
C6 C5 1_555 1_555
H5 C6 1_555 1_555
C7 C6 1_555 1_555
C8 C3 1_555 1_555
H6 C8 1_555 1_555
C9 C7 1_555 1_555
H7 C9 1_555 1_555
H8 C9 1_555 1_555
C10 C9 1_555 1_555
C11 N1 1_555 1_555
H9 C11 1_555 1_555
C12 C11 1_555 1_555
H10 C12 1_555 1_555
C15 N1 1_555 1_555
H12 C15 1_555 1_555
C24 N3 1_555 1_555
H23 C24 1_555 1_555
C25 C24 1_555 1_555
H24 C25 1_555 1_555
C26 C25 1_555 1_555
C27 C26 1_555 1_555
H25 C27 1_555 1_555
C28 N3 1_555 1_555
H26 C28 1_555 1_555
C29 C26 1_555 1_555
H27 C29 1_555 1_555
H28 C29 1_555 1_555
C30 C29 1_555 1_555
H29 C30 1_555 1_555
Cd5 N8 1_555 1_555
O7 Cd1 1_555 1_555
O9 Cd1 1_555 1_555
N6 Cd1 1_555 1_555
N8 C54 1_555 1_555
C34 C33 1_555 1_555
H32 C34 1_555 1_555
C35 C34 1_555 1_555
H33 C35 1_555 1_555
C36 C35 1_555 1_555
H34 C36 1_555 1_555
C37 C36 1_555 1_555
C38 C33 1_555 1_555
H35 C38 1_555 1_555
C39 C37 1_555 1_555
H36 C39 1_555 1_555
H37 C39 1_555 1_555
C40 O7 1_555 1_555
C50 C49 1_555 1_555
H48 C50 1_555 1_555
C51 N6 1_555 1_555
H49 C51 1_555 1_555
C52 N6 1_555 1_555
H50 C52 1_555 1_555
C53 C49 1_555 1_555
C54 H52 1_555 1_555
C55 C54 1_555 1_555
H53 C55 1_555 1_555
C56 C55 1_555 1_555
C57 C56 1_555 1_555
H54 C57 1_555 1_555
C58 N8 1_555 1_555
H55 C58 1_555 1_555
C59 C30 1_555 1_555
H56 C59 1_555 1_555
H57 C59 1_555 1_555
H58 C30 1_555 1_555
C7 C8 1_555 1_555
C27 C28 1_555 1_555
O9 C40 1_555 1_555
C37 C38 1_555 1_555
C39 C40 1_555 1_555
C50 C51 1_555 1_555
C52 C53 1_555 1_555
C56 C59 1_555 1_555
C57 C58 1_555 1_555
N2 C21 1_555 1_555
C20 C19 1_555 1_555
H19 C20 1_555 1_555
C21 C20 1_555 1_555
H20 C21 1_555 1_555
C22 N2 1_555 1_555
H21 C22 1_555 1_555
C23 C19 1_555 1_555
Cd4 N2 1_555 1_555
N4 Cd4 1_555 1_555
C41 N4 1_555 1_555
H38 C41 1_555 1_555
C42 C41 1_555 1_555
H39 C42 1_555 1_555
C45 N4 1_555 1_555
H41 C45 1_555 1_555
C22 C23 1_555 1_555
C44 C43 1_555 1_555
H40 C44 1_555 1_555
C46 C43 1_555 1_555
H42 C46 1_555 1_555
H43 C46 1_555 1_555
C47 C46 1_555 1_555
H44 C47 1_555 1_555
H45 C47 1_555 1_555
C48 C47 1_555 1_555
H46 C48 1_555 1_555
H47 C48 1_555 1_555
N2_2 C21_2 1_555 1_555
C20_2 C19_2 1_555 1_555
H19_2 C20_2 1_555 1_555
C21_2 C20_2 1_555 1_555
H20_2 C21_2 1_555 1_555
C22_2 N2_2 1_555 1_555
H21_2 C22_2 1_555 1_555
C23_2 C19_2 1_555 1_555
Cd4_2 N2_2 1_555 1_555
N4_2 Cd4_2 1_555 1_555
C41_2 N4_2 1_555 1_555
H38_2 C41_2 1_555 1_555
C42_2 C41_2 1_555 1_555
H39_2 C42_2 1_555 1_555
C43_2 C42_2 1_555 1_555
C44_2 C43_2 1_555 1_555
H40_2 C44_2 1_555 1_555
C45_2 N4_2 1_555 1_555
H41_2 C45_2 1_555 1_555
C46_2 C43_2 1_555 1_555
H42_2 C46_2 1_555 1_555
H43_2 C46_2 1_555 1_555
C47_2 C46_2 1_555 1_555
H44_2 C47_2 1_555 1_555
H45_2 C47_2 1_555 1_555
C48_2 C47_2 1_555 1_555
H46_2 C48_2 1_555 1_555
H47_2 C48_2 1_555 1_555
C22_2 C23_2 1_555 1_555
C44_2 C45_2 1_555 1_555
Cd2_2 O5_2 1_555 1_555
O5_2 C31_2 1_555 1_555
O8_2 Cd2_2 1_555 1_555
O10_2 Cd2_2 1_555 1_555
N7_2 Cd2_2 1_555 1_555
C32_2 C31_2 1_555 1_555
H30_2 C32_2 1_555 1_555
H31_2 C32_2 1_555 1_555
Cd5 O1_2 1_555 1_555
O1_2 C1_2 1_555 1_555
O2_2 Cd5 1_555 1_555
O8_2 C10_2 1_555 1_555
O10_2 C10_2 1_555 1_555
N1_2 Cd5 1_555 1_555
C1_2 O2_2 1_555 1_555
C2_2 C1_2 1_555 1_555
H1_2 C2_2 1_555 1_555
H2_2 C2_2 1_555 1_555
C3_2 C2_2 1_555 1_555
C4_2 C3_2 1_555 1_555
C5_2 C4_2 1_555 1_555
C6_2 C5_2 1_555 1_555
H5_2 C6_2 1_555 1_555
C7_2 C6_2 1_555 1_555
C8_2 C3_2 1_555 1_555
H6_2 C8_2 1_555 1_555
C9_2 C7_2 1_555 1_555
H7_2 C9_2 1_555 1_555
H8_2 C9_2 1_555 1_555
C10_2 C9_2 1_555 1_555
C11_2 N1_2 1_555 1_555
H9_2 C11_2 1_555 1_555
C12_2 C11_2 1_555 1_555
H10_2 C12_2 1_555 1_555
C13_2 C12_2 1_555 1_555
C14_2 C13_2 1_555 1_555
H11_2 C14_2 1_555 1_555
C15_2 N1_2 1_555 1_555
H12_2 C15_2 1_555 1_555
C16_2 C13_2 1_555 1_555
H13_2 C16_2 1_555 1_555
H14_2 C16_2 1_555 1_555
C17_2 C16_2 1_555 1_555
H15_2 C17_2 1_555 1_555
H16_2 C17_2 1_555 1_555
C18_2 C17_2 1_555 1_555
H17_2 C18_2 1_555 1_555
H18_2 C18_2 1_555 1_555
O7_2 Cd5 1_555 1_555
O9_2 Cd5 1_555 1_555
N6_2 Cd5 1_555 1_555
C34_2 C33_2 1_555 1_555
H32_2 C34_2 1_555 1_555
C35_2 C34_2 1_555 1_555
H33_2 C35_2 1_555 1_555
C36_2 C35_2 1_555 1_555
H34_2 C36_2 1_555 1_555
C37_2 C36_2 1_555 1_555
C38_2 C33_2 1_555 1_555
H35_2 C38_2 1_555 1_555
C39_2 C37_2 1_555 1_555
H36_2 C39_2 1_555 1_555
H37_2 C39_2 1_555 1_555
C40_2 O7_2 1_555 1_555
C50_2 C49_2 1_555 1_555
H48_2 C50_2 1_555 1_555
C51_2 N6_2 1_555 1_555
H49_2 C51_2 1_555 1_555
C52_2 N6_2 1_555 1_555
H50_2 C52_2 1_555 1_555
C53_2 C49_2 1_555 1_555
C7_2 C8_2 1_555 1_555
C14_2 C15_2 1_555 1_555
O9_2 C40_2 1_555 1_555
C37_2 C38_2 1_555 1_555
C39_2 C40_2 1_555 1_555
C50_2 C51_2 1_555 1_555
C52_2 C53_2 1_555 1_555
H55_2 C58_2 1_555 1_555
H29_2 C30_2 1_555 1_555
N9 C54_2 1_555 1_555
C54_2 H52_2 1_555 1_555
C55_2 C54_2 1_555 1_555
H53_2 C55_2 1_555 1_555
C56_2 C55_2 1_555 1_555
C57_2 C56_2 1_555 1_555
H54_2 C57_2 1_555 1_555
C59_2 C30_2 1_555 1_555
H56_2 C59_2 1_555 1_555
H57_2 C59_2 1_555 1_555
C56_2 C59_2 1_555 1_555
C41_3 N4_3 1_555 1_555
H38_3 C41_3 1_555 1_555
C42_3 C41_3 1_555 1_555
H39_3 C42_3 1_555 1_555
C45_3 N4_3 1_555 1_555
H26_2 C28_2 1_555 1_555
C44_3 C43_3 1_555 1_555
H40_3 C44_3 1_555 1_555
C46_3 C43_3 1_555 1_555
H42_3 C46_3 1_555 1_555
H43_3 C46_3 1_555 1_555
C47_3 C46_3 1_555 1_555
H44_3 C47_3 1_555 1_555
H45_3 C47_3 1_555 1_555
C48_3 C47_3 1_555 1_555
H46_3 C48_3 1_555 1_555
H47_3 C48_3 1_555 1_555
C49_3 C48_3 1_555 1_555
C50_3 C49_3 1_555 1_555
H48_3 C50_3 1_555 1_555
C51_3 N7_2 1_555 1_555
H49_3 C51_3 1_555 1_555
C52_3 N7_2 1_555 1_555
C53_3 C49_3 1_555 1_555
H51_3 C53_3 1_555 1_555
C50_3 C51_3 1_555 1_555
C52_3 C53_3 1_555 1_555
N2_3 C21_3 1_555 1_555
C14_3 C13_3 1_555 1_555
H11_3 C14_3 1_555 1_555
C16_3 C13_3 1_555 1_555
H13_3 C16_3 1_555 1_555
H14_3 C16_3 1_555 1_555
C17_3 C16_3 1_555 1_555
H15_3 C17_3 1_555 1_555
H16_3 C17_3 1_555 1_555
C18_3 C17_3 1_555 1_555
H17_3 C18_3 1_555 1_555
H18_3 C18_3 1_555 1_555
C19_3 C18_3 1_555 1_555
C20_3 C19_3 1_555 1_555
H19_3 C20_3 1_555 1_555
C21_3 C20_3 1_555 1_555
H20_3 C21_3 1_555 1_555
C22_3 N2_3 1_555 1_555
C23_3 C19_3 1_555 1_555
H22_3 C23_3 1_555 1_555
Cd4_3 N2_3 1_555 1_555
C22_3 C23_3 1_555 1_555
C11_3 N5_2 1_555 1_555
H9_3 C11_3 1_555 1_555
C12_3 C11_3 1_555 1_555
H10_3 C12_3 1_555 1_555
C15_3 N5_2 1_555 1_555
C24_2 N9_2 1_555 1_555
H23_2 C24_2 1_555 1_555
C25_2 C24_2 1_555 1_555
H24_2 C25_2 1_555 1_555
C26_2 C25_2 1_555 1_555
C27_2 C26_2 1_555 1_555
H25_2 C27_2 1_555 1_555
C29_2 C26_2 1_555 1_555
H27_2 C29_2 1_555 1_555
H28_2 C29_2 1_555 1_555
C30_3 C29_2 1_555 1_555
H58_2 C30_3 1_555 1_555
C41_4 N4_4 1_555 1_555
H38_4 C41_4 1_555 1_555
C42_4 C41_4 1_555 1_555
H39_4 C42_4 1_555 1_555
C43_4 C42_4 1_555 1_555
C44_4 C43_4 1_555 1_555
H40_4 C44_4 1_555 1_555
C45_4 N4_4 1_555 1_555
C46_4 C43_4 1_555 1_555
H42_4 C46_4 1_555 1_555
H43_4 C46_4 1_555 1_555
C47_4 C46_4 1_555 1_555
H44_4 C47_4 1_555 1_555
H45_4 C47_4 1_555 1_555
C48_4 C47_4 1_555 1_555
H46_4 C48_4 1_555 1_555
H47_4 C48_4 1_555 1_555
C49_4 C48_4 1_555 1_555
C50_4 C49_4 1_555 1_555
H48_4 C50_4 1_555 1_555
C51_4 N7 1_555 1_555
H49_4 C51_4 1_555 1_555
C52_4 N7 1_555 1_555
C53_4 C49_4 1_555 1_555
H51_4 C53_4 1_555 1_555
C44_4 C45_4 1_555 1_555
C50_4 C51_4 1_555 1_555
C52_4 C53_4 1_555 1_555
N2_4 C21_4 1_555 1_555
C11_4 N5 1_555 1_555
H9_4 C11_4 1_555 1_555
C12_4 C11_4 1_555 1_555
H10_4 C12_4 1_555 1_555
C13_4 C12_4 1_555 1_555
C14_4 C13_4 1_555 1_555
H11_4 C14_4 1_555 1_555
C15_4 N5 1_555 1_555
C16_4 C13_4 1_555 1_555
H13_4 C16_4 1_555 1_555
H14_4 C16_4 1_555 1_555
C17_4 C16_4 1_555 1_555
H15_4 C17_4 1_555 1_555
H16_4 C17_4 1_555 1_555
C18_4 C17_4 1_555 1_555
H17_4 C18_4 1_555 1_555
H18_4 C18_4 1_555 1_555
C19_4 C18_4 1_555 1_555
C20_4 C19_4 1_555 1_555
H19_4 C20_4 1_555 1_555
C21_4 C20_4 1_555 1_555
H20_4 C21_4 1_555 1_555
C22_4 N2_4 1_555 1_555
C23_4 C19_4 1_555 1_555
H22_4 C23_4 1_555 1_555
Cd4_4 N2_4 1_555 1_555
C14_4 C15_4 1_555 1_555
C22_4 C23_4 1_555 1_555
Cd4 O1_3 1_555 1_555
O1_3 C1_3 1_555 1_555
O2_3 Cd4 1_555 1_555
O3 C10_3 1_555 1_555
O4 C10_3 1_555 1_555
N3_2 Cd4 1_555 1_555
C1_3 O2_3 1_555 1_555
C2_3 C1_3 1_555 1_555
H1_3 C2_3 1_555 1_555
H2_3 C2_3 1_555 1_555
C3_3 C2_3 1_555 1_555
C4_3 C3_3 1_555 1_555
C5_3 C4_3 1_555 1_555
C6_3 C5_3 1_555 1_555
H5_3 C6_3 1_555 1_555
C7_3 C6_3 1_555 1_555
C8_3 C3_3 1_555 1_555
H6_3 C8_3 1_555 1_555
C9_3 C7_3 1_555 1_555
H7_3 C9_3 1_555 1_555
H8_3 C9_3 1_555 1_555
C10_3 C9_3 1_555 1_555
C24_3 N3_2 1_555 1_555
H23_3 C24_3 1_555 1_555
C25_3 C24_3 1_555 1_555
H24_3 C25_3 1_555 1_555
C26_3 C25_3 1_555 1_555
C27_3 C26_3 1_555 1_555
H25_3 C27_3 1_555 1_555
C28_3 N3_2 1_555 1_555
H26_3 C28_3 1_555 1_555
C29_3 C26_3 1_555 1_555
H27_3 C29_3 1_555 1_555
H28_3 C29_3 1_555 1_555
C30_4 C29_3 1_555 1_555
H29_3 C30_4 1_555 1_555
Cd4_4 O3 1_555 1_555
Cd4_2 N8_2 1_555 1_555
O7_3 Cd4 1_555 1_555
O9_3 Cd4 1_555 1_555
N8_2 C54_3 1_555 1_555
C34_3 C33_3 1_555 1_555
H32_3 C34_3 1_555 1_555
C35_3 C34_3 1_555 1_555
H33_3 C35_3 1_555 1_555
C36_3 C35_3 1_555 1_555
H34_3 C36_3 1_555 1_555
C37_3 C36_3 1_555 1_555
C38_3 C33_3 1_555 1_555
H35_3 C38_3 1_555 1_555
C39_3 C37_3 1_555 1_555
H36_3 C39_3 1_555 1_555
H37_3 C39_3 1_555 1_555
C40_3 O7_3 1_555 1_555
C54_3 H52_3 1_555 1_555
C55_3 C54_3 1_555 1_555
H53_3 C55_3 1_555 1_555
C56_3 C55_3 1_555 1_555
C57_3 C56_3 1_555 1_555
H54_3 C57_3 1_555 1_555
C58_3 N8_2 1_555 1_555
H55_3 C58_3 1_555 1_555
C59_3 C30_4 1_555 1_555
H56_3 C59_3 1_555 1_555
H57_3 C59_3 1_555 1_555
H58_3 C30_4 1_555 1_555
O4 Cd4_4 1_555 1_555
C7_3 C8_3 1_555 1_555
C27_3 C28_3 1_555 1_555
O9_3 C40_3 1_555 1_555
C37_3 C38_3 1_555 1_555
C39_3 C40_3 1_555 1_555
C56_3 C59_3 1_555 1_555
C57_3 C58_3 1_555 1_555
Cd4_4 O5_3 1_555 1_555
O5_3 C31_3 1_555 1_555
C32_3 C31_3 1_555 1_555
H30_3 C32_3 1_555 1_555
H31_3 C32_3 1_555 1_555
Cd4_2 O1_4 1_555 1_555
O1_4 C1_4 1_555 1_555
O2_4 Cd4_2 1_555 1_555
O3_2 C10_4 1_555 1_555
O4_2 C10_4 1_555 1_555
C1_4 O2_4 1_555 1_555
C2_4 C1_4 1_555 1_555
H1_4 C2_4 1_555 1_555
H2_4 C2_4 1_555 1_555
C3_4 C2_4 1_555 1_555
C4_4 C3_4 1_555 1_555
C5_4 C4_4 1_555 1_555
C6_4 C5_4 1_555 1_555
H5_4 C6_4 1_555 1_555
C7_4 C6_4 1_555 1_555
C8_4 C3_4 1_555 1_555
H6_4 C8_4 1_555 1_555
C9_4 C7_4 1_555 1_555
H7_4 C9_4 1_555 1_555
H8_4 C9_4 1_555 1_555
C10_4 C9_4 1_555 1_555
Cd4_3 O3_2 1_555 1_555
O7_4 Cd4_2 1_555 1_555
O9_4 Cd4_2 1_555 1_555
C34_4 C33_4 1_555 1_555
H32_4 C34_4 1_555 1_555
C35_4 C34_4 1_555 1_555
H33_4 C35_4 1_555 1_555
C36_4 C35_4 1_555 1_555
H34_4 C36_4 1_555 1_555
C37_4 C36_4 1_555 1_555
C38_4 C33_4 1_555 1_555
H35_4 C38_4 1_555 1_555
C39_4 C37_4 1_555 1_555
H36_4 C39_4 1_555 1_555
H37_4 C39_4 1_555 1_555
C40_4 O7_4 1_555 1_555
O4_2 Cd4_3 1_555 1_555
C7_4 C8_4 1_555 1_555
O9_4 C40_4 1_555 1_555
C37_4 C38_4 1_555 1_555
C39_4 C40_4 1_555 1_555
Cd4_3 O5_4 1_555 1_555
O5_4 C31_4 1_555 1_555
C32_4 C31_4 1_555 1_555
H30_4 C32_4 1_555 1_555
H31_4 C32_4 1_555 1_555
C24_4 N9_4 1_555 1_555
H23_4 C24_4 1_555 1_555
C25_4 C24_4 1_555 1_555
H24_4 C25_4 1_555 1_555
C26_4 C25_4 1_555 1_555
C27_4 C26_4 1_555 1_555
H25_4 C27_4 1_555 1_555
C29_4 C26_4 1_555 1_555
H27_4 C29_4 1_555 1_555
H28_4 C29_4 1_555 1_555
C30_5 C29_4 1_555 1_555
H58_4 C30_5 1_555 1_555
H26_4 C28_4 1_555 1_555
H29_4 C30_6 1_555 1_555
N9_3 C54_4 1_555 1_555
C54_4 H52_4 1_555 1_555
C55_4 C54_4 1_555 1_555
H53_4 C55_4 1_555 1_555
C56_4 C55_4 1_555 1_555
C57_4 C56_4 1_555 1_555
H54_4 C57_4 1_555 1_555
C59_4 C30_6 1_555 1_555
H56_4 C59_4 1_555 1_555
H57_4 C59_4 1_555 1_555
C56_4 C59_4 1_555 1_555
H55_4 C58_4 1_555 1_555

#END
