
###############################################################################
#
# This file contains modified crystal structure data generated from the
# MOF subset of the Cambridge Structural Database (CSD) v543 
# hosted by the Cambridge Crystallographic Data Centre (CCDC).
#
# This work is licensed under the Creative Commons
# Attribution-NonCommercial-ShareAlike 4.0 International License.
# To view a copy of this license, visit
# http://creativecommons.org/licenses/by-nc-sa/4.0/
# or send a letter to
# Creative Commons, PO Box 1866, Mountain View, CA 94042, USA.
#
# CIF created using the CSD Python API on 29 September 2022
# The structure has been converted into the P1 space group
# The structure has a 3D framework
# The original CSD entry GUFXUD is in the triclinic crystal system
# The framework has been calculated to contain at least 10.0% void space
# The void calculation uses a probe of radius 1.32A, grid spacing 0.4
#
###############################################################################

data_GUFXUD
_chemical_formula_moiety         '(C84 H52 Cd8 N4 O40)n'
_symmetry_cell_setting           triclinic
_symmetry_space_group_name_H-M   'P 1'
_symmetry_Int_Tables_number      1
_space_group_name_Hall           'P 1'
loop_
_symmetry_equiv_pos_site_id
_symmetry_equiv_pos_as_xyz
1 x,y,z
_cell_length_a                   11.772(3)
_cell_length_b                   12.748(4)
_cell_length_c                   23.643(5)
_cell_angle_alpha                95.875(12)
_cell_angle_beta                 96.511(7)
_cell_angle_gamma                101.303(13)
_cell_volume                     3428.46
loop_
_atom_site_label
_atom_site_type_symbol
_atom_site_fract_x
_atom_site_fract_y
_atom_site_fract_z
O11 O 0.5716(2) 0.0607(2) 0.21922(10)
O12 O 0.5775(2) 0.2005(2) 0.17203(10)
O15 O 0.3515(2) 0.0784(2) 0.28251(11)
O16 O 0.4409(2) 0.2465(2) 0.27432(11)
N2 N 0.3024(2) 0.1624(2) 0.14813(12)
C21 C 0.0131(3) 0.2506(3) 0.25015(15)
C22 C 0.0859(3) 0.2673(3) 0.20831(15)
H16 H 0.0599 0.2941 0.1752
C23 C 0.1967(3) 0.2448(3) 0.21496(14)
C24 C 0.2651(3) 0.2521(3) 0.16565(14)
C25 C 0.3566(3) 0.1616(3) 0.10087(14)
C26 C 0.3974(3) 0.0599(3) 0.08501(14)
C27 C 0.4823(3) 0.0283(3) 0.12209(14)
C28 C 0.5470(3) 0.1014(3) 0.17424(14)
H19 H 0.2932 0.0133 0.0094
C34 C 0.3723(4) 0.2478(3) 0.07003(16)
H20 H 0.4067 0.2436 0.0366
C35 C 0.3364(4) 0.3410(4) 0.08907(18)
H21 H 0.3486 0.4010 0.0694
C36 C 0.2824(3) 0.3428(3) 0.13756(17)
H22 H 0.2576 0.4043 0.1514
C37 C 0.2353(3) 0.2055(3) 0.26519(14)
C38 C 0.3532(3) 0.1760(3) 0.27436(14)
C39 C 0.1631(3) 0.1918(3) 0.30758(15)
H23 H 0.1893 0.1672 0.3414
C40 C 0.0535(3) 0.2143(3) 0.30012(16)
H24 H 0.0061 0.2050 0.3289
Cd8 Cd 0.72043(2) 0.31903(2) 0.13238(2)
Cd10 Cd 0.63699(2) 0.25286(2) 0.27250(2)
C29 C 0.5123(3) 0.9295(3) 0.10967(16)
H17 H 0.5664 0.9076 0.1352
C30 C 0.4621(4) 0.8633(3) 0.05952(16)
H18 H 0.4832 0.7974 0.0512
C31 C 0.3801(3) 0.8948(3) 0.02144(15)
C33 C 0.3485(3) 0.9924(3) 0.03471(15)
Cd5 Cd 0.49685(2) 0.98203(2) 0.29214(2)
Cd7 Cd 0.19189(2) 0.92959(2) 0.26615(2)
O13 O 0.3591(3) 0.7322(2) 0.95914(11)
O14 O 0.2633(3) 0.8519(3) 0.92924(12)
C32 C 0.3299(4) 0.8226(3) 0.96654(16)
Cd9 Cd 0.27957(2) 0.68097(2) 0.86762(2)
H3 H 0.1844 0.0517 0.1871
H9 H 0.3670 0.0214 0.4819
Cd6 Cd 0.50315(2) 0.01797(2) 0.70786(2)
O22 O 0.6289(2) 0.1264(2) 0.34255(10)
O1 O 0.3455(2) 0.8570(2) 0.23807(11)
O2 O 0.1934(2) 0.7339(2) 0.24770(13)
O3 O 0.4265(3) 0.9258(3) 0.36858(12)
O4 O 0.2305(3) 0.9017(3) 0.35715(13)
O5 O 0.3711(2) 0.8736(2) 0.65745(10)
O6 O 0.3202(3) 0.7011(2) 0.62679(11)
O7 O 0.6186(3) 0.4377(2) 0.15870(13)
O8 O 0.8658(3) 0.3097(3) 0.19523(14)
O9 O 0.8213(2) 0.2338(3) 0.27227(15)
O10 O 0.6417(2) 0.4226(2) 0.25267(12)
O17 O 0.8569(4) 0.4609(3) 0.10908(18)
H1 H 0.8172 0.5075 0.1242
H2 H 0.9157 0.4612 0.1318
O18 O 0.1546(3) 0.9828(3) 0.18085(13)
H4 H 0.1240 0.9787 0.1480
O19 O 0.0082(3) 0.9117(4) 0.2805(2)
O20 O 0.6311(3) 0.8825(3) 0.2897(2)
H7 H 0.6967 0.8868 0.2795
H8 H 0.6309 0.8378 0.3147
N1 N 0.3311(3) 0.6749(2) 0.36227(12)
C1 C 0.2980(3) 0.7598(3) 0.24174(15)
C2 C 0.3719(3) 0.6780(3) 0.23457(15)
C3 C 0.3773(3) 0.5988(3) 0.27161(15)
C4 C 0.3078(3) 0.5909(3) 0.32083(15)
C5 C 0.2733(4) 0.6678(3) 0.40765(15)
C6 C 0.3032(3) 0.7598(3) 0.45432(15)
C7 C 0.3282(4) 0.8667(3) 0.44370(16)
C8 C 0.3282(4) 0.9001(3) 0.38406(16)
C9 C 0.3523(4) 0.9501(3) 0.48935(17)
C10 C 0.3545(4) 0.9279(3) 0.54498(16)
H10 H 0.3696 0.9840 0.5750
C11 C 0.3341(4) 0.8220(3) 0.55641(15)
C12 C 0.3426(3) 0.7967(3) 0.61707(15)
C13 C 0.3078(3) 0.7397(3) 0.51151(16)
H11 H 0.2927 0.6687 0.5194
C14 C 0.1884(5) 0.5773(4) 0.4123(2)
H12 H 0.1479 0.5750 0.4439
C15 C 0.1654(5) 0.4917(4) 0.3696(2)
H13 H 0.1092 0.4304 0.3718
C16 C 0.2267(4) 0.4978(4) 0.3235(2)
H14 H 0.2138 0.4400 0.2945
C17 C 0.4510(3) 0.5285(3) 0.26285(16)
H15 H 0.4566 0.4772 0.2877
C18 C 0.5168(3) 0.5328(3) 0.21774(16)
C19 C 0.5978(3) 0.4576(3) 0.20915(18)
C20 C 0.8895(3) 0.2660(3) 0.23867(17)
C41 C 0.5071(4) 0.6086(3) 0.17989(18)
H25 H 0.5478 0.6097 0.1484
C42 C 0.4373(4) 0.6817(3) 0.18926(17)
H26 H 0.4340 0.7343 0.1649
Cd11 Cd 0.36301(2) 0.74714(2) 0.72750(2)
O23 O 0.6798(3) 0.2989(2) 0.37321(11)
O27 O 0.6409(3) 0.2678(2) 0.04086(11)
O28 O 0.7367(3) 0.1481(3) 0.07076(12)
Cd2 Cd 0.80811(2) 0.07041(2) 0.73385(2)
O1_2 O 0.6545(2) 0.1430(2) 0.76193(11)
O2_2 O 0.8066(2) 0.2661(2) 0.75230(13)
O3_2 O 0.5735(3) 0.0742(3) 0.63142(12)
O4_2 O 0.7695(3) 0.0983(3) 0.64285(13)
O7_2 O 0.3814(3) 0.5623(2) 0.84130(13)
O8_2 O 0.1342(3) 0.6903(3) 0.80477(14)
O9_2 O 0.1787(2) 0.7662(3) 0.72773(15)
O10_2 O 0.3583(2) 0.5774(2) 0.74733(12)
O17_2 O 0.1431(4) 0.5391(3) 0.89092(18)
H1_2 H 0.1828 0.4925 0.8758
H2_2 H 0.0843 0.5388 0.8682
O18_2 O 0.8454(3) 0.0172(3) 0.81915(13)
H4_2 H 0.8760 0.0213 0.8520
O19_2 O 0.9918(3) 0.0883(4) 0.7195(2)
O20_2 O 0.3689(3) 0.1175(3) 0.7103(2)
H7_2 H 0.3033 0.1132 0.7205
H8_2 H 0.3691 0.1622 0.6853
N1_2 N 0.6689(3) 0.3251(2) 0.63773(12)
C1_2 C 0.7020(3) 0.2402(3) 0.75826(15)
C2_2 C 0.6281(3) 0.3220(3) 0.76543(15)
C3_2 C 0.6227(3) 0.4012(3) 0.72839(15)
C4_2 C 0.6922(3) 0.4091(3) 0.67917(15)
C5_2 C 0.7267(4) 0.3322(3) 0.59235(15)
C6_2 C 0.6968(3) 0.2402(3) 0.54568(15)
C7_2 C 0.6718(4) 0.1333(3) 0.55630(16)
C8_2 C 0.6718(4) 0.0999(3) 0.61594(16)
C9_2 C 0.6477(4) 0.0499(3) 0.51065(17)
C10_2 C 0.6455(4) 0.0721(3) 0.45502(16)
H10_2 H 0.6304 0.0160 0.4250
C11_2 C 0.6659(4) 0.1780(3) 0.44359(15)
C12_2 C 0.6574(3) 0.2033(3) 0.38293(15)
C13_2 C 0.6922(3) 0.2603(3) 0.48849(16)
H11_2 H 0.7073 0.3313 0.4806
C14_2 C 0.8116(5) 0.4227(4) 0.5877(2)
H12_2 H 0.8521 0.4250 0.5561
C15_2 C 0.8346(5) 0.5083(4) 0.6304(2)
H13_2 H 0.8908 0.5696 0.6282
C16_2 C 0.7733(4) 0.5022(4) 0.6765(2)
H14_2 H 0.7862 0.5600 0.7055
C17_2 C 0.5490(3) 0.4715(3) 0.73715(16)
H15_2 H 0.5434 0.5228 0.7123
C18_2 C 0.4832(3) 0.4672(3) 0.78226(16)
C19_2 C 0.4022(3) 0.5424(3) 0.79085(18)
C20_2 C 0.1105(3) 0.7340(3) 0.76133(17)
C41_2 C 0.4929(4) 0.3914(3) 0.82011(18)
H25_2 H 0.4522 0.3903 0.8516
C42_2 C 0.5627(4) 0.3183(3) 0.81074(17)
H26_2 H 0.5660 0.2657 0.8351
O24 O 0.4284(2) 0.9393(2) 0.78078(10)
O26 O 0.4225(2) 0.7995(2) 0.82797(10)
O30 O 0.5591(2) 0.7535(2) 0.72568(11)
H3_2 H 0.8156 0.9483 0.8129
H9_2 H 0.6330 0.9786 0.5181
O29 O 0.6485(2) 0.9216(2) 0.71749(11)
C32_2 C 0.6701(4) 0.1774(3) 0.03346(16)
C29_2 C 0.4877(3) 0.0705(3) 0.89033(16)
H17_2 H 0.4336 0.0924 0.8648
C30_2 C 0.5379(4) 0.1367(3) 0.94048(16)
H18_2 H 0.5168 0.2026 0.9488
C31_2 C 0.6199(3) 0.1052(3) 0.97856(15)
C33_2 C 0.6515(3) 0.0076(3) 0.96529(15)
N2_2 N 0.6976(2) 0.8376(2) 0.85187(12)
C21_2 C 0.9869(3) 0.7494(3) 0.74985(15)
C22_2 C 0.9141(3) 0.7327(3) 0.79169(15)
H16_2 H 0.9401 0.7059 0.8248
C23_2 C 0.8033(3) 0.7552(3) 0.78504(14)
C24_2 C 0.7349(3) 0.7479(3) 0.83435(14)
C25_2 C 0.6434(3) 0.8384(3) 0.89913(14)
C26_2 C 0.6026(3) 0.9401(3) 0.91499(14)
C27_2 C 0.5177(3) 0.9717(3) 0.87791(14)
C28_2 C 0.4530(3) 0.8986(3) 0.82576(14)
H19_2 H 0.7068 0.9867 0.9906
C34_2 C 0.6277(4) 0.7522(3) 0.92997(16)
H20_2 H 0.5933 0.7564 0.9634
C35_2 C 0.6636(4) 0.6590(4) 0.91093(18)
H21_2 H 0.6514 0.5990 0.9306
C36_2 C 0.7176(3) 0.6572(3) 0.86244(17)
H22_2 H 0.7424 0.5957 0.8486
C37_2 C 0.7647(3) 0.7945(3) 0.73481(14)
C38_2 C 0.6468(3) 0.8240(3) 0.72564(14)
C39_2 C 0.8369(3) 0.8082(3) 0.69242(15)
H23_2 H 0.8107 0.8328 0.6586
C40_2 C 0.9465(3) 0.7857(3) 0.69988(16)
H24_2 H 0.9939 0.7950 0.6711
H5 H 0.9676 0.8498 0.2896
H6 H 0.9563 0.9410 0.2696
H5_2 H 0.0324 0.1502 0.7104
H6_2 H 0.0437 0.0590 0.7304
loop_
_geom_bond_atom_site_label_1
_geom_bond_atom_site_label_2
_geom_bond_site_symmetry_1
_geom_bond_site_symmetry_2
O11 C28 1_555 1_555
O12 C28 1_555 1_555
O15 C38 1_555 1_555
O16 C38 1_555 1_555
N2 C24 1_555 1_555
C22 C21 1_555 1_555
H16 C22 1_555 1_555
C23 C22 1_555 1_555
C24 C23 1_555 1_555
C25 N2 1_555 1_555
C26 C25 1_555 1_555
C27 C26 1_555 1_555
C28 C27 1_555 1_555
C34 C25 1_555 1_555
H20 C34 1_555 1_555
C35 C34 1_555 1_555
H21 C35 1_555 1_555
C36 C24 1_555 1_555
H22 C36 1_555 1_555
C37 C23 1_555 1_555
C38 C37 1_555 1_555
C39 C37 1_555 1_555
H23 C39 1_555 1_555
C40 C21 1_555 1_555
H24 C40 1_555 1_555
Cd8 O12 1_555 1_555
Cd10 O11 1_555 1_555
O12 Cd10 1_555 1_555
O16 Cd10 1_555 1_555
C35 C36 1_555 1_555
C39 C40 1_555 1_555
H17 C29 1_555 1_555
C30 C29 1_555 1_555
H18 C30 1_555 1_555
C31 C30 1_555 1_555
C31 C33 1_555 1_555
O13 C32 1_555 1_555
O14 C32 1_555 1_555
Cd9 O13 1_555 1_555
O14 Cd9 1_555 1_555
Cd5 O1 1_555 1_555
Cd7 O1 1_555 1_555
Cd8 O7 1_555 1_555
Cd10 O9 1_555 1_555
O1 C1 1_555 1_555
O2 Cd7 1_555 1_555
O3 Cd5 1_555 1_555
O4 Cd7 1_555 1_555
O5 C12 1_555 1_555
O6 C12 1_555 1_555
O7 C19 1_555 1_555
O8 Cd8 1_555 1_555
O9 C20 1_555 1_555
O10 Cd10 1_555 1_555
O17 Cd8 1_555 1_555
H1 O17 1_555 1_555
H2 O17 1_555 1_555
O18 Cd7 1_555 1_555
H4 O18 1_555 1_555
O19 Cd7 1_555 1_555
O20 Cd5 1_555 1_555
H7 O20 1_555 1_555
H8 O20 1_555 1_555
N1 C4 1_555 1_555
C1 O2 1_555 1_555
C2 C1 1_555 1_555
C3 C2 1_555 1_555
C4 C3 1_555 1_555
C5 N1 1_555 1_555
C6 C5 1_555 1_555
C7 C6 1_555 1_555
C8 O3 1_555 1_555
C9 C7 1_555 1_555
C10 C9 1_555 1_555
H10 C10 1_555 1_555
C11 C10 1_555 1_555
C12 C11 1_555 1_555
C13 C6 1_555 1_555
H11 C13 1_555 1_555
C14 C5 1_555 1_555
H12 C14 1_555 1_555
C15 C14 1_555 1_555
H13 C15 1_555 1_555
C16 C4 1_555 1_555
H14 C16 1_555 1_555
C17 C3 1_555 1_555
H15 C17 1_555 1_555
C18 C17 1_555 1_555
C19 O10 1_555 1_555
C20 O8 1_555 1_555
C41 C18 1_555 1_555
H25 C41 1_555 1_555
C42 C2 1_555 1_555
H26 C42 1_555 1_555
Cd11 O5 1_555 1_555
O22 Cd10 1_555 1_555
O23 Cd10 1_555 1_555
O27 Cd8 1_555 1_555
O28 Cd8 1_555 1_555
O4 C8 1_555 1_555
O6 Cd11 1_555 1_555
C7 C8 1_555 1_555
C11 C13 1_555 1_555
C15 C16 1_555 1_555
C18 C19 1_555 1_555
C41 C42 1_555 1_555
Cd6 O1_2 1_555 1_555
Cd2 O1_2 1_555 1_555
Cd9 O7_2 1_555 1_555
Cd11 O9_2 1_555 1_555
O1_2 C1_2 1_555 1_555
O2_2 Cd2 1_555 1_555
O3_2 Cd6 1_555 1_555
O4_2 Cd2 1_555 1_555
O22 C12_2 1_555 1_555
O23 C12_2 1_555 1_555
O7_2 C19_2 1_555 1_555
O8_2 Cd9 1_555 1_555
O9_2 C20_2 1_555 1_555
O10_2 Cd11 1_555 1_555
O17_2 Cd9 1_555 1_555
H1_2 O17_2 1_555 1_555
H2_2 O17_2 1_555 1_555
O18_2 Cd2 1_555 1_555
H4_2 O18_2 1_555 1_555
O19_2 Cd2 1_555 1_555
O20_2 Cd6 1_555 1_555
H7_2 O20_2 1_555 1_555
H8_2 O20_2 1_555 1_555
N1_2 C4_2 1_555 1_555
C1_2 O2_2 1_555 1_555
C2_2 C1_2 1_555 1_555
C3_2 C2_2 1_555 1_555
C4_2 C3_2 1_555 1_555
C5_2 N1_2 1_555 1_555
C6_2 C5_2 1_555 1_555
C7_2 C6_2 1_555 1_555
C8_2 O3_2 1_555 1_555
C9_2 C7_2 1_555 1_555
C10_2 C9_2 1_555 1_555
H10_2 C10_2 1_555 1_555
C11_2 C10_2 1_555 1_555
C12_2 C11_2 1_555 1_555
C13_2 C6_2 1_555 1_555
H11_2 C13_2 1_555 1_555
C14_2 C5_2 1_555 1_555
H12_2 C14_2 1_555 1_555
C15_2 C14_2 1_555 1_555
H13_2 C15_2 1_555 1_555
C16_2 C4_2 1_555 1_555
H14_2 C16_2 1_555 1_555
C17_2 C3_2 1_555 1_555
H15_2 C17_2 1_555 1_555
C18_2 C17_2 1_555 1_555
C19_2 O10_2 1_555 1_555
C20_2 O8_2 1_555 1_555
C41_2 C18_2 1_555 1_555
H25_2 C41_2 1_555 1_555
C42_2 C2_2 1_555 1_555
H26_2 C42_2 1_555 1_555
O24 Cd11 1_555 1_555
O26 Cd9 1_555 1_555
O30 Cd11 1_555 1_555
Cd11 O26 1_555 1_555
O4_2 C8_2 1_555 1_555
C7_2 C8_2 1_555 1_555
C11_2 C13_2 1_555 1_555
C15_2 C16_2 1_555 1_555
C18_2 C19_2 1_555 1_555
C41_2 C42_2 1_555 1_555
O27 C32_2 1_555 1_555
O28 C32_2 1_555 1_555
H17_2 C29_2 1_555 1_555
C30_2 C29_2 1_555 1_555
H18_2 C30_2 1_555 1_555
C31_2 C30_2 1_555 1_555
C31_2 C33_2 1_555 1_555
O24 C28_2 1_555 1_555
O26 C28_2 1_555 1_555
O29 C38_2 1_555 1_555
O30 C38_2 1_555 1_555
N2_2 C24_2 1_555 1_555
C22_2 C21_2 1_555 1_555
H16_2 C22_2 1_555 1_555
C23_2 C22_2 1_555 1_555
C24_2 C23_2 1_555 1_555
C25_2 N2_2 1_555 1_555
C26_2 C25_2 1_555 1_555
C27_2 C26_2 1_555 1_555
C28_2 C27_2 1_555 1_555
C34_2 C25_2 1_555 1_555
H20_2 C34_2 1_555 1_555
C35_2 C34_2 1_555 1_555
H21_2 C35_2 1_555 1_555
C36_2 C24_2 1_555 1_555
H22_2 C36_2 1_555 1_555
C37_2 C23_2 1_555 1_555
C38_2 C37_2 1_555 1_555
C39_2 C37_2 1_555 1_555
H23_2 C39_2 1_555 1_555
C40_2 C21_2 1_555 1_555
H24_2 C40_2 1_555 1_555
C35_2 C36_2 1_555 1_555
C39_2 C40_2 1_555 1_555

#END
