
###############################################################################
#
# This file contains modified crystal structure data generated from the
# MOF subset of the Cambridge Structural Database (CSD) v543 
# hosted by the Cambridge Crystallographic Data Centre (CCDC).
#
# This work is licensed under the Creative Commons
# Attribution-NonCommercial-ShareAlike 4.0 International License.
# To view a copy of this license, visit
# http://creativecommons.org/licenses/by-nc-sa/4.0/
# or send a letter to
# Creative Commons, PO Box 1866, Mountain View, CA 94042, USA.
#
# CIF created using the CSD Python API on 29 September 2022
# The structure has been converted into the P1 space group
# The structure has a 3D framework
# The original CSD entry GUFXEM is in the monoclinic crystal system
# The framework has been calculated to contain at least 10.0% void space
# The void calculation uses a probe of radius 1.32A, grid spacing 0.4
#
###############################################################################

data_GUFXEM
_chemical_formula_moiety         '(C152 H104 N16 O66 Zn18)n'
_symmetry_cell_setting           triclinic
_symmetry_space_group_name_H-M   'P 1'
_symmetry_Int_Tables_number      1
_space_group_name_Hall           'P 1'
loop_
_symmetry_equiv_pos_site_id
_symmetry_equiv_pos_as_xyz
1 x,y,z
_cell_length_a                   16.7318(10)
_cell_length_b                   18.1105(8)
_cell_length_c                   16.4721(8)
_cell_angle_alpha                90
_cell_angle_beta                 110.618(6)
_cell_angle_gamma                90
_cell_volume                     4671.69
loop_
_atom_site_label
_atom_site_type_symbol
_atom_site_fract_x
_atom_site_fract_y
_atom_site_fract_z
Zn18 Zn 0.0000 0.0000 0.5000
Zn1 Zn 0.18556(2) 0.61050(2) 0.12745(2)
Zn2 Zn 0.30781(2) 0.61736(2) 0.36201(2)
Zn3 Zn -0.0000 0.5000 0.0000
Zn4 Zn 0.5000 0.5000 0.5000
C1 C 0.0742(2) 0.73973(19) 0.2730(2)
C2 C 0.1019(2) 0.77346(19) 0.3535(2)
H1 H 0.1570 0.7650 0.3921
C3 C 0.0480(2) 0.81968(19) 0.3769(2)
C13 C 0.1350(2) 0.69131(19) 0.2505(2)
C14 C 0.0769(2) 0.85737(19) 0.4625(2)
C17 C 0.2329(2) 0.38530(19) 0.1100(2)
C18 C 0.1863(2) 0.32421(18) 0.0708(2)
H7 H 0.1310 0.3297 0.0315
C19 C 0.2221(2) 0.25437(19) 0.0900(2)
C20 C 0.3059(2) 0.24728(19) 0.1461(2)
H8 H 0.3301 0.2005 0.1577
C21 C 0.3540(2) 0.30763(19) 0.1850(2)
C22 C 0.3166(2) 0.37693(19) 0.1685(2)
H9 H 0.3472 0.4181 0.1963
C23 C 0.4432(2) 0.29600(19) 0.2464(2)
C24 C 0.4963(2) 0.24554(19) 0.2273(2)
H10 H 0.4783 0.2219 0.1737
C25 C 0.5767(2) 0.23008(19) 0.2881(2)
C26 C 0.6029(2) 0.26429(19) 0.3677(2)
H11 H 0.6555 0.2523 0.4091
C27 C 0.5519(2) 0.31627(19) 0.38663(19)
C28 C 0.4719(2) 0.33244(19) 0.3255(2)
H12 H 0.4376 0.3679 0.3378
C29 C 0.1933(2) 0.4605(2) 0.0910(2)
C30 C 0.1725(2) 0.1862(2) 0.0545(2)
C31 C 0.6363(2) 0.1782(2) 0.2679(2)
C32 C 0.5809(2) 0.35326(19) 0.4733(2)
C33 C 0.0037(3) 0.5333(2) 0.1845(2)
C36 C 0.4322(3) 0.4653(2) 0.6447(3)
C37 C 0.4941(3) 0.4669(3) 0.7935(3)
H17 H 0.5051 0.5113 0.8288
H18 H 0.5322 0.4280 0.8252
C38 C 0.4015(3) 0.4435(3) 0.7673(3)
H19 H 0.3969 0.3944 0.7886
H20 H 0.3695 0.4777 0.7894
O1 O 0.11540(16) 0.67073(14) 0.17315(15)
O2 O 0.20151(18) 0.67451(17) 0.31014(16)
O3 O 0.15415(16) 0.85034(15) 0.50945(14)
O4 O 0.02303(17) 0.89189(13) 0.48405(15)
O9 O 0.12981(15) 0.46903(13) 0.02258(14)
O10 O 0.22763(16) 0.51054(13) 0.14498(15)
O12 O 0.20104(19) 0.12474(15) 0.0749(2)
O13 O 0.61577(16) 0.15616(16) 0.19146(16)
O14 O 0.70190(16) 0.16067(16) 0.32837(15)
O15 O 0.65689(16) 0.33995(15) 0.52235(14)
O16 O 0.53132(16) 0.39331(14) 0.49372(15)
O17 O 0.03994(17) 0.51755(15) 0.13267(15)
O18 O 0.42322(17) 0.46936(16) 0.56711(16)
N2 N 0.0429(2) 0.5393(2) 0.27038(19)
H24 H 0.0964 0.5307 0.2968
N3 N 0.3716(2) 0.4448(2) 0.6747(2)
H25 H 0.3203 0.4336 0.6421
N4 N 0.5031(2) 0.4804(2) 0.7112(2)
H26 H 0.5492 0.4966 0.7056
O25 O 0.4208(2) 0.2822(2) 0.0065(2)
C74 C 0.5678(3) 0.5347(2) 0.3553(3)
C75 C 0.5059(3) 0.5331(3) 0.2065(3)
H47 H 0.4949 0.4887 0.1712
H48 H 0.4678 0.5720 0.1748
C76 C 0.5985(3) 0.5565(3) 0.2327(3)
H49 H 0.6031 0.6056 0.2114
H50 H 0.6305 0.5223 0.2106
O36 O 0.57678(17) 0.53064(16) 0.43289(16)
N7 N 0.6284(2) 0.5552(2) 0.3253(2)
H51 H 0.6797 0.5664 0.3579
N8 N 0.4969(2) 0.5196(2) 0.2888(2)
H52 H 0.4508 0.5034 0.2944
Zn8 Zn 0.81444(2) 0.11050(2) 0.37255(2)
Zn10 Zn 0.18556(2) 0.88950(2) 0.62745(2)
Zn13 Zn 0.69219(2) 0.11736(2) 0.13799(2)
Zn14 Zn 0.69219(2) 0.38264(2) 0.63799(2)
Zn18_2 Zn 0.0000 1.0000 0.5000
Zn21 Zn 0.5000 0.0000 0.0000
O38 O 0.15415(16) 0.64966(15) 0.00945(14)
O41 O 0.25220(16) 0.52259(14) 0.35586(16)
O43 O 0.38313(16) 0.48172(14) 0.38579(15)
O44 O 0.61687(16) 0.51828(14) 0.61421(15)
O45 O 0.38423(16) 0.65616(16) 0.30854(16)
O47 O 0.29810(16) 0.66067(16) 0.17163(15)
O50 O 0.34311(16) 0.66005(15) 0.47765(14)
O51 O 0.46868(16) 0.60669(14) 0.50628(15)
Zn3_2 Zn 0.0000 0.5000 1.0000
O11 O 0.09652(17) 0.19874(15) 0.99961(17)
H22 H 0.0716 0.1583 0.9797
C42 C 0.0346(2) 0.16886(19) 0.6805(2)
H28 H 0.0709 0.1379 0.6646
C43 C 0.0639(2) 0.20294(19) 0.7613(2)
C44 C 0.0086(2) 0.24832(19) 0.7847(2)
H29 H 0.0269 0.2708 0.8389
C45 C 0.1537(2) 0.18976(19) 0.8188(2)
C46 C 0.1875(2) 0.1197(2) 0.8240(2)
H30 H 0.1529 0.0813 0.7939
C47 C 0.2729(2) 0.1055(2) 0.8738(2)
C48 C 0.3237(2) 0.1624(2) 0.9187(2)
H31 H 0.3803 0.1535 0.9526
C49 C 0.2905(2) 0.2331(2) 0.9136(2)
C50 C 0.2056(2) 0.2462(2) 0.8642(2)
H32 H 0.1834 0.2936 0.8618
C53 C 0.3052(2) 0.0293(2) 0.8734(2)
C54 C 0.3464(3) 0.2961(3) 0.9564(3)
C72 C 0.0142(3) 0.4382(3) 0.6868(3)
H39 H 0.0018 0.3883 0.6643
H40 H 0.0111 0.4714 0.6395
C73 C 0.1011(4) 0.4425(4) 0.7589(3)
H41 H 0.1343 0.4836 0.7502
H42 H 0.1331 0.3971 0.7628
O24 O 0.38313(16) 0.01828(14) 0.88579(15)
O26 O 0.3166(3) 0.35991(19) 0.9394(2)
H43 H 0.3407 0.3954 0.9729
N5 N 0.0784(2) 0.4532(2) 0.8354(2)
H45 H 0.1144 0.4510 0.8877
Zn21_2 Zn 0.5000 0.0000 1.0000
O40 O 0.02303(17) 0.60811(13) 0.98405(15)
Zn21_3 Zn 0.5000 1.0000 0.0000
O23 O 0.25220(16) 0.97741(14) 0.85586(16)
Zn16 Zn 0.30781(2) 0.88264(2) 0.86201(2)
Zn21_4 Zn 0.5000 1.0000 1.0000
O5 O 0.74780(16) 0.02259(14) 0.14414(16)
Zn18_3 Zn 1.0000 0.0000 0.5000
Zn3_3 Zn 1.0000 0.5000 0.0000
C4 C 0.9654(2) 0.83114(19) 0.3195(2)
H2 H 0.9291 0.8621 0.3354
C5 C 0.9361(2) 0.79706(19) 0.2387(2)
C6 C 0.9914(2) 0.75168(19) 0.2153(2)
H3 H 0.9731 0.7292 0.1611
C7 C 0.8463(2) 0.81024(19) 0.1812(2)
C8 C 0.8125(2) 0.8803(2) 0.1760(2)
H4 H 0.8471 0.9187 0.2061
C9 C 0.7271(2) 0.8945(2) 0.1262(2)
C10 C 0.6763(2) 0.8376(2) 0.0813(2)
H5 H 0.6197 0.8465 0.0474
C11 C 0.7095(2) 0.7669(2) 0.0864(2)
C12 C 0.7944(2) 0.7538(2) 0.1358(2)
H6 H 0.8166 0.7064 0.1382
C15 C 0.6948(2) 0.9707(2) 0.1266(2)
C16 C 0.6536(3) 0.7039(3) 0.0436(3)
C34 C 0.9858(3) 0.5618(3) 0.3132(3)
H13 H 0.9982 0.6117 0.3357
H14 H 0.9889 0.5286 0.3605
C35 C 0.8989(4) 0.5575(4) 0.2411(3)
H15 H 0.8657 0.5164 0.2498
H16 H 0.8669 0.6029 0.2372
O6 O 0.61687(16) 0.98172(14) 0.11421(15)
O8 O 0.6834(3) 0.64009(19) 0.0606(2)
H21 H 0.6593 0.6046 0.0271
N1 N 0.9216(2) 0.5468(2) 0.1646(2)
H23 H 0.8856 0.5490 0.1123
O29 O 0.90348(17) 0.80126(15) 0.00039(17)
H44 H 0.9284 0.8417 0.0203
Zn18_4 Zn 1.0000 1.0000 0.5000
O39 O 0.97697(17) 0.39189(13) 0.01595(15)
Zn3_4 Zn 1.0000 0.5000 1.0000
O7 O 0.5792(2) 0.7178(2) 0.9935(2)
Zn5 Zn 0.81444(2) 0.38950(2) 0.87255(2)
C39 C 0.9258(2) 0.26027(19) 0.7270(2)
C40 C 0.8981(2) 0.22654(19) 0.6465(2)
H27 H 0.8430 0.2350 0.6079
C41 C 0.9520(2) 0.18032(19) 0.6231(2)
C51 C 0.8650(2) 0.30869(19) 0.7495(2)
C52 C 0.9231(2) 0.14263(19) 0.5375(2)
C55 C 0.7671(2) 0.61470(19) 0.8900(2)
C56 C 0.8137(2) 0.67579(18) 0.9292(2)
H33 H 0.8690 0.6703 0.9685
C57 C 0.7779(2) 0.74563(19) 0.9100(2)
C58 C 0.6941(2) 0.75272(19) 0.8539(2)
H34 H 0.6699 0.7995 0.8423
C59 C 0.6460(2) 0.69237(19) 0.8150(2)
C60 C 0.6834(2) 0.62307(19) 0.8315(2)
H35 H 0.6528 0.5819 0.8037
C61 C 0.5568(2) 0.70400(19) 0.7536(2)
C62 C 0.5037(2) 0.75446(19) 0.7727(2)
H36 H 0.5217 0.7781 0.8263
C63 C 0.4233(2) 0.76992(19) 0.7119(2)
C64 C 0.3971(2) 0.73571(19) 0.6323(2)
H37 H 0.3445 0.7477 0.5909
C65 C 0.4481(2) 0.68373(19) 0.61337(19)
C66 C 0.5281(2) 0.66756(19) 0.6745(2)
H38 H 0.5624 0.6321 0.6622
C67 C 0.8067(2) 0.5395(2) 0.9090(2)
C68 C 0.8275(2) 0.8138(2) 0.9455(2)
C69 C 0.3637(2) 0.8218(2) 0.7321(2)
C70 C 0.4191(2) 0.64674(19) 0.5267(2)
C71 C 0.9963(3) 0.4667(2) 0.8155(2)
O19 O 0.88460(16) 0.32927(14) 0.82685(15)
O20 O 0.79849(18) 0.32549(17) 0.68986(16)
O21 O 0.84585(16) 0.14966(15) 0.49055(14)
O22 O 0.97697(17) 0.10811(13) 0.51595(15)
O27 O 0.87019(15) 0.53097(13) 0.97742(14)
O28 O 0.77237(16) 0.48946(13) 0.85502(15)
O30 O 0.79896(19) 0.87526(15) 0.9251(2)
O31 O 0.38423(16) 0.84384(16) 0.80854(16)
O32 O 0.29810(16) 0.83933(16) 0.67163(15)
O35 O 0.96006(17) 0.48245(15) 0.86733(15)
N6 N 0.9571(2) 0.4607(2) 0.72962(19)
H46 H 0.9036 0.4693 0.7032
O37 O 0.84585(16) 0.35034(15) 0.99055(14)
O42 O 0.74780(16) 0.47741(14) 0.64414(16)
O46 O 0.61577(16) 0.34384(16) 0.69146(16)
O48 O 0.70190(16) 0.33933(16) 0.82837(15)
O33 O 0.65689(16) 0.16005(15) 0.02235(14)
C4_2 C 0.0346(2) 0.33114(19) 0.1805(2)
H2_2 H 0.0709 0.3621 0.1646
C5_2 C 0.0639(2) 0.29706(19) 0.2613(2)
C6_2 C 0.0086(2) 0.25168(19) 0.2847(2)
H3_2 H 0.0269 0.2292 0.3389
C7_2 C 0.1537(2) 0.31024(19) 0.3188(2)
C8_2 C 0.1875(2) 0.3803(2) 0.3240(2)
H4_2 H 0.1529 0.4187 0.2939
C9_2 C 0.2729(2) 0.3945(2) 0.3738(2)
C10_2 C 0.3237(2) 0.3376(2) 0.4187(2)
H5_2 H 0.3803 0.3465 0.4526
C11_2 C 0.2905(2) 0.2669(2) 0.4136(2)
C12_2 C 0.2056(2) 0.2538(2) 0.3642(2)
H6_2 H 0.1834 0.2064 0.3618
C15_2 C 0.3052(2) 0.4707(2) 0.3734(2)
C16_2 C 0.3464(3) 0.2039(3) 0.4564(3)
C34_2 C 0.0142(3) 0.0618(3) 0.1868(3)
H13_2 H 0.0018 0.1117 0.1643
H14_2 H 0.0111 0.0286 0.1395
C35_2 C 0.1011(4) 0.0575(4) 0.2589(3)
H15_2 H 0.1343 0.0164 0.2502
H16_2 H 0.1331 0.1029 0.2628
O7_2 O 0.4208(2) 0.2178(2) 0.5065(2)
O8_2 O 0.3166(3) 0.14009(19) 0.4394(2)
H21_2 H 0.3407 0.1046 0.4729
N1_2 N 0.0784(2) 0.0468(2) 0.3354(2)
H23_2 H 0.1144 0.0490 0.3877
C55_2 C 0.2329(2) 0.11470(19) 0.6100(2)
C56_2 C 0.1863(2) 0.17579(18) 0.5708(2)
H33_2 H 0.1310 0.1703 0.5315
C57_2 C 0.2221(2) 0.24563(19) 0.5900(2)
C58_2 C 0.3059(2) 0.25272(19) 0.6461(2)
H34_2 H 0.3301 0.2995 0.6577
C59_2 C 0.3540(2) 0.19237(19) 0.6850(2)
C60_2 C 0.3166(2) 0.12307(19) 0.6685(2)
H35_2 H 0.3472 0.0819 0.6963
C61_2 C 0.4432(2) 0.20400(19) 0.7464(2)
C62_2 C 0.4963(2) 0.25446(19) 0.7273(2)
H36_2 H 0.4783 0.2781 0.6737
C63_2 C 0.5767(2) 0.26992(19) 0.7881(2)
C64_2 C 0.6029(2) 0.23571(19) 0.8677(2)
H37_2 H 0.6555 0.2477 0.9091
C65_2 C 0.5519(2) 0.18373(19) 0.88663(19)
C66_2 C 0.4719(2) 0.16756(19) 0.8255(2)
H38_2 H 0.4376 0.1321 0.8378
C67_2 C 0.1933(2) 0.0395(2) 0.5910(2)
C68_2 C 0.1725(2) 0.3138(2) 0.5545(2)
C69_2 C 0.6363(2) 0.3218(2) 0.7679(2)
C70_2 C 0.5809(2) 0.14674(19) 0.9733(2)
O27_2 O 0.12981(15) 0.03097(13) 0.52258(14)
O29_2 O 0.09652(17) 0.30126(15) 0.49961(17)
H44_2 H 0.0716 0.3417 0.4797
O30_2 O 0.20104(19) 0.37526(15) 0.5749(2)
O34 O 0.53132(16) 0.10669(14) 0.99372(15)
C39_2 C 0.0742(2) 0.76027(19) 0.7730(2)
C40_2 C 0.1019(2) 0.72654(19) 0.8535(2)
H27_2 H 0.1570 0.7350 0.8921
C41_2 C 0.0480(2) 0.68032(19) 0.8769(2)
C51_2 C 0.1350(2) 0.80869(19) 0.7505(2)
C52_2 C 0.0769(2) 0.64263(19) 0.9625(2)
C71_2 C 0.0037(3) 0.9667(2) 0.6845(2)
O19_2 O 0.11540(16) 0.82927(14) 0.67315(15)
O20_2 O 0.20151(18) 0.82549(17) 0.81014(16)
O28_2 O 0.22763(16) 0.98946(13) 0.64498(15)
O35_2 O 0.03994(17) 0.98245(15) 0.63267(15)
N6_2 N 0.0429(2) 0.9607(2) 0.77038(19)
H46_2 H 0.0964 0.9693 0.7968
O49 O 0.34311(16) 0.83995(15) 0.97765(14)
C1_2 C 0.9258(2) 0.23973(19) 0.2270(2)
C2_2 C 0.8981(2) 0.27346(19) 0.1465(2)
H1_2 H 0.8430 0.2650 0.1079
C3_2 C 0.9520(2) 0.31968(19) 0.1231(2)
C13_2 C 0.8650(2) 0.19131(19) 0.2495(2)
C14_2 C 0.9231(2) 0.35737(19) 0.0375(2)
C33_2 C 0.9963(3) 0.0333(2) 0.3155(2)
O1_2 O 0.88460(16) 0.17073(14) 0.32685(15)
O2_2 O 0.79849(18) 0.17451(17) 0.18986(16)
O10_2 O 0.77237(16) 0.01054(13) 0.35502(15)
O17_2 O 0.96006(17) 0.01755(15) 0.36733(15)
N2_2 N 0.9571(2) 0.0393(2) 0.22962(19)
H24_2 H 0.9036 0.0307 0.2032
C74_2 C 0.4322(3) 0.0347(2) 0.1447(3)
C75_2 C 0.4941(3) 0.0331(3) 0.2935(3)
H48_2 H 0.5322 0.0720 0.3252
C76_2 C 0.4015(3) 0.0565(3) 0.2673(3)
H49_2 H 0.3969 0.1056 0.2886
H50_2 H 0.3695 0.0223 0.2894
O36_2 O 0.42322(17) 0.03064(16) 0.06711(16)
N7_2 N 0.3716(2) 0.0552(2) 0.1747(2)
H51_2 H 0.3203 0.0664 0.1421
N8_2 N 0.5031(2) 0.0196(2) 0.2112(2)
H52_2 H 0.5492 0.0034 0.2056
H17_2 H 0.4949 0.0113 0.6712
C17_2 C 0.7671(2) 0.88530(19) 0.3900(2)
C18_2 C 0.8137(2) 0.82421(18) 0.4292(2)
H7_2 H 0.8690 0.8297 0.4685
C19_2 C 0.7779(2) 0.75437(19) 0.4100(2)
C20_2 C 0.6941(2) 0.74728(19) 0.3539(2)
H8_2 H 0.6699 0.7005 0.3423
C21_2 C 0.6460(2) 0.80763(19) 0.3150(2)
C22_2 C 0.6834(2) 0.87693(19) 0.3315(2)
H9_2 H 0.6528 0.9181 0.3037
C23_2 C 0.5568(2) 0.79600(19) 0.2536(2)
C24_2 C 0.5037(2) 0.74554(19) 0.2727(2)
H10_2 H 0.5217 0.7219 0.3263
C25_2 C 0.4233(2) 0.73008(19) 0.2119(2)
C26_2 C 0.3971(2) 0.76429(19) 0.1323(2)
H11_2 H 0.3445 0.7523 0.0909
C27_2 C 0.4481(2) 0.81627(19) 0.11337(19)
C28_2 C 0.5281(2) 0.83244(19) 0.1745(2)
H12_2 H 0.5624 0.8679 0.1622
C29_2 C 0.8067(2) 0.9605(2) 0.4090(2)
C30_2 C 0.8275(2) 0.6862(2) 0.4455(2)
C31_2 C 0.3637(2) 0.6782(2) 0.2321(2)
C32_2 C 0.4191(2) 0.85326(19) 0.0267(2)
O9_2 O 0.87019(15) 0.96903(13) 0.47742(14)
O11_2 O 0.90348(17) 0.69874(15) 0.50039(17)
H22_2 H 0.9284 0.6583 0.5203
O12_2 O 0.79896(19) 0.62474(15) 0.4251(2)
O16_2 O 0.46868(16) 0.89331(14) 0.00628(15)
C42_2 C 0.9654(2) 0.66886(19) 0.8195(2)
H28_2 H 0.9291 0.6379 0.8354
C43_2 C 0.9361(2) 0.70294(19) 0.7387(2)
C44_2 C 0.9914(2) 0.74832(19) 0.7153(2)
H29_2 H 0.9731 0.7708 0.6611
C45_2 C 0.8463(2) 0.68976(19) 0.6812(2)
C46_2 C 0.8125(2) 0.6197(2) 0.6760(2)
H30_2 H 0.8471 0.5813 0.7061
C47_2 C 0.7271(2) 0.6055(2) 0.6262(2)
C48_2 C 0.6763(2) 0.6624(2) 0.5813(2)
H31_2 H 0.6197 0.6535 0.5474
C49_2 C 0.7095(2) 0.7331(2) 0.5864(2)
C50_2 C 0.7944(2) 0.7462(2) 0.6358(2)
H32_2 H 0.8166 0.7936 0.6382
C53_2 C 0.6948(2) 0.5293(2) 0.6266(2)
C54_2 C 0.6536(3) 0.7961(3) 0.5436(3)
C72_2 C 0.9858(3) 0.9382(3) 0.8132(3)
H39_2 H 0.9982 0.8883 0.8357
H40_2 H 0.9889 0.9714 0.8605
C73_2 C 0.8989(4) 0.9425(4) 0.7411(3)
H41_2 H 0.8657 0.9836 0.7498
H42_2 H 0.8669 0.8971 0.7372
O25_2 O 0.5792(2) 0.7822(2) 0.4935(2)
O26_2 O 0.6834(3) 0.85991(19) 0.5606(2)
H43_2 H 0.6593 0.8954 0.5271
N5_2 N 0.9216(2) 0.9532(2) 0.6646(2)
H45_2 H 0.8856 0.9510 0.6123
H47_2 H 0.5051 0.9887 0.3288
C36_2 C 0.5678(3) 0.9653(2) 0.8553(3)
C37_2 C 0.5059(3) 0.9669(3) 0.7065(3)
H18_2 H 0.4678 0.9280 0.6748
C38_2 C 0.5985(3) 0.9435(3) 0.7327(3)
H19_2 H 0.6031 0.8944 0.7114
H20_2 H 0.6305 0.9777 0.7106
O18_2 O 0.57678(17) 0.96936(16) 0.93289(16)
N3_2 N 0.6284(2) 0.9448(2) 0.8253(2)
H25_2 H 0.6797 0.9336 0.8579
N4_2 N 0.4969(2) 0.9804(2) 0.7888(2)
H26_2 H 0.4508 0.9966 0.7944
loop_
_geom_bond_atom_site_label_1
_geom_bond_atom_site_label_2
_geom_bond_site_symmetry_1
_geom_bond_site_symmetry_2
Zn1 O1 1_555 1_555
Zn2 O2 1_555 1_555
Zn3 O9 1_555 1_555
Zn4 O16 1_555 1_555
C1 C2 1_555 1_555
C2 H1 1_555 1_555
C3 C2 1_555 1_555
C13 C1 1_555 1_555
C14 C3 1_555 1_555
C17 C18 1_555 1_555
C18 H7 1_555 1_555
C19 C18 1_555 1_555
C20 C19 1_555 1_555
H8 C20 1_555 1_555
C21 C20 1_555 1_555
C22 C17 1_555 1_555
H9 C22 1_555 1_555
C23 C21 1_555 1_555
C24 C23 1_555 1_555
H10 C24 1_555 1_555
C25 C24 1_555 1_555
C26 C25 1_555 1_555
H11 C26 1_555 1_555
C27 C26 1_555 1_555
C28 C23 1_555 1_555
H12 C28 1_555 1_555
C29 C17 1_555 1_555
C30 C19 1_555 1_555
C31 C25 1_555 1_555
C32 C27 1_555 1_555
C33 O17 1_555 1_555
C36 O18 1_555 1_555
C37 H17 1_555 1_555
H18 C37 1_555 1_555
C38 C37 1_555 1_555
H19 C38 1_555 1_555
H20 C38 1_555 1_555
O1 C13 1_555 1_555
O2 C13 1_555 1_555
O3 C14 1_555 1_555
O4 C14 1_555 1_555
O9 C29 1_555 1_555
O10 Zn1 1_555 1_555
O12 C30 1_555 1_555
O13 C31 1_555 1_555
O14 C31 1_555 1_555
O15 C32 1_555 1_555
O16 C32 1_555 1_555
O17 Zn3 1_555 1_555
O18 Zn4 1_555 1_555
N2 C33 1_555 1_555
H24 N2 1_555 1_555
N3 C36 1_555 1_555
H25 N3 1_555 1_555
N4 C36 1_555 1_555
H26 N4 1_555 1_555
C74 O36 1_555 1_555
C75 H47 1_555 1_555
H48 C75 1_555 1_555
C76 C75 1_555 1_555
H49 C76 1_555 1_555
H50 C76 1_555 1_555
O36 Zn4 1_555 1_555
N7 C74 1_555 1_555
H51 N7 1_555 1_555
N8 C74 1_555 1_555
H52 N8 1_555 1_555
Zn8 O14 1_555 1_555
Zn10 O3 1_555 1_555
Zn13 O13 1_555 1_555
Zn14 O15 1_555 1_555
Zn18_2 O4 1_555 1_555
O38 Zn1 1_555 1_555
O41 Zn2 1_555 1_555
O43 Zn4 1_555 1_555
O44 Zn4 1_555 1_555
O45 Zn2 1_555 1_555
O47 Zn1 1_555 1_555
O50 Zn2 1_555 1_555
O51 Zn4 1_555 1_555
C21 C22 1_555 1_555
C27 C28 1_555 1_555
C29 O10 1_555 1_555
C37 N4 1_555 1_555
C38 N3 1_555 1_555
C75 N8 1_555 1_555
C76 N7 1_555 1_555
H22 O11 1_555 1_555
H28 C42 1_555 1_555
C43 C42 1_555 1_555
H29 C44 1_555 1_555
C45 C43 1_555 1_555
C46 C45 1_555 1_555
H30 C46 1_555 1_555
C47 C46 1_555 1_555
C48 C47 1_555 1_555
H31 C48 1_555 1_555
C49 C48 1_555 1_555
C50 C45 1_555 1_555
H32 C50 1_555 1_555
C53 C47 1_555 1_555
C54 C49 1_555 1_555
C72 H39 1_555 1_555
H40 C72 1_555 1_555
C73 C72 1_555 1_555
H41 C73 1_555 1_555
H42 C73 1_555 1_555
O24 C53 1_555 1_555
O26 C54 1_555 1_555
H43 O26 1_555 1_555
H45 N5 1_555 1_555
Zn21_2 O24 1_555 1_555
O40 Zn3_2 1_555 1_555
C43 C44 1_555 1_555
C49 C50 1_555 1_555
C73 N5 1_555 1_555
Zn16 O23 1_555 1_555
Zn13 O5 1_555 1_555
H2 C4 1_555 1_555
C5 C4 1_555 1_555
H3 C6 1_555 1_555
C7 C5 1_555 1_555
C8 C7 1_555 1_555
H4 C8 1_555 1_555
C9 C8 1_555 1_555
C10 C9 1_555 1_555
H5 C10 1_555 1_555
C11 C10 1_555 1_555
C12 C7 1_555 1_555
H6 C12 1_555 1_555
C15 C9 1_555 1_555
C16 C11 1_555 1_555
C34 H13 1_555 1_555
H14 C34 1_555 1_555
C35 C34 1_555 1_555
H15 C35 1_555 1_555
H16 C35 1_555 1_555
O6 C15 1_555 1_555
O8 C16 1_555 1_555
H21 O8 1_555 1_555
H23 N1 1_555 1_555
H44 O29 1_555 1_555
Zn21_3 O6 1_555 1_555
O39 Zn3_3 1_555 1_555
C5 C6 1_555 1_555
C11 C12 1_555 1_555
C35 N1 1_555 1_555
Zn5 O19 1_555 1_555
Zn14 O20 1_555 1_555
C39 C40 1_555 1_555
C40 H27 1_555 1_555
C41 C40 1_555 1_555
C51 C39 1_555 1_555
C52 C41 1_555 1_555
C55 C56 1_555 1_555
C56 H33 1_555 1_555
C57 C56 1_555 1_555
C58 C57 1_555 1_555
H34 C58 1_555 1_555
C59 C58 1_555 1_555
C60 C55 1_555 1_555
H35 C60 1_555 1_555
C61 C59 1_555 1_555
C62 C61 1_555 1_555
H36 C62 1_555 1_555
C63 C62 1_555 1_555
C64 C63 1_555 1_555
H37 C64 1_555 1_555
C65 C64 1_555 1_555
C66 C61 1_555 1_555
H38 C66 1_555 1_555
C67 C55 1_555 1_555
C68 C57 1_555 1_555
C69 C63 1_555 1_555
C70 C65 1_555 1_555
C71 O35 1_555 1_555
O19 C51 1_555 1_555
O20 C51 1_555 1_555
O21 C52 1_555 1_555
O22 C52 1_555 1_555
O27 Zn3_4 1_555 1_555
O28 Zn5 1_555 1_555
O30 C68 1_555 1_555
O31 C69 1_555 1_555
O32 C69 1_555 1_555
O50 C70 1_555 1_555
O51 C70 1_555 1_555
O35 Zn3_4 1_555 1_555
N6 C71 1_555 1_555
H46 N6 1_555 1_555
Zn8 O21 1_555 1_555
Zn10 O32 1_555 1_555
Zn16 O31 1_555 1_555
Zn18_3 O22 1_555 1_555
O37 Zn5 1_555 1_555
O42 Zn14 1_555 1_555
O46 Zn14 1_555 1_555
O48 Zn5 1_555 1_555
C59 C60 1_555 1_555
C65 C66 1_555 1_555
C67 O27 1_555 1_555
C67 O28 1_555 1_555
Zn13 O33 1_555 1_555
H2_2 C4_2 1_555 1_555
C5_2 C4_2 1_555 1_555
H3_2 C6_2 1_555 1_555
C7_2 C5_2 1_555 1_555
C8_2 C7_2 1_555 1_555
H4_2 C8_2 1_555 1_555
C9_2 C8_2 1_555 1_555
C10_2 C9_2 1_555 1_555
H5_2 C10_2 1_555 1_555
C11_2 C10_2 1_555 1_555
C12_2 C7_2 1_555 1_555
H6_2 C12_2 1_555 1_555
C15_2 C9_2 1_555 1_555
C16_2 C11_2 1_555 1_555
C34_2 H13_2 1_555 1_555
H14_2 C34_2 1_555 1_555
C35_2 C34_2 1_555 1_555
H15_2 C35_2 1_555 1_555
H16_2 C35_2 1_555 1_555
O41 C15_2 1_555 1_555
O43 C15_2 1_555 1_555
O7_2 C16_2 1_555 1_555
O8_2 C16_2 1_555 1_555
H21_2 O8_2 1_555 1_555
H23_2 N1_2 1_555 1_555
C55_2 C56_2 1_555 1_555
C56_2 H33_2 1_555 1_555
C57_2 C56_2 1_555 1_555
C58_2 C57_2 1_555 1_555
H34_2 C58_2 1_555 1_555
C59_2 C58_2 1_555 1_555
C60_2 C55_2 1_555 1_555
H35_2 C60_2 1_555 1_555
C61_2 C59_2 1_555 1_555
C62_2 C61_2 1_555 1_555
H36_2 C62_2 1_555 1_555
C63_2 C62_2 1_555 1_555
C64_2 C63_2 1_555 1_555
H37_2 C64_2 1_555 1_555
C65_2 C64_2 1_555 1_555
C66_2 C61_2 1_555 1_555
H38_2 C66_2 1_555 1_555
C67_2 C55_2 1_555 1_555
C68_2 C57_2 1_555 1_555
C69_2 C63_2 1_555 1_555
C70_2 C65_2 1_555 1_555
O27_2 Zn18 1_555 1_555
O29_2 C68_2 1_555 1_555
H44_2 O29_2 1_555 1_555
O30_2 C68_2 1_555 1_555
O46 C69_2 1_555 1_555
O48 C69_2 1_555 1_555
O34 C70_2 1_555 1_555
Zn21_2 O34 1_555 1_555
C5_2 C6_2 1_555 1_555
C11_2 C12_2 1_555 1_555
C35_2 N1_2 1_555 1_555
C59_2 C60_2 1_555 1_555
C65_2 C66_2 1_555 1_555
C67_2 O27_2 1_555 1_555
Zn10 O19_2 1_555 1_555
Zn16 O20_2 1_555 1_555
C39_2 C40_2 1_555 1_555
C40_2 H27_2 1_555 1_555
C41_2 C40_2 1_555 1_555
C51_2 C39_2 1_555 1_555
C52_2 C41_2 1_555 1_555
C71_2 O35_2 1_555 1_555
O19_2 C51_2 1_555 1_555
O20_2 C51_2 1_555 1_555
O40 C52_2 1_555 1_555
O28_2 Zn10 1_555 1_555
O35_2 Zn18_2 1_555 1_555
N6_2 C71_2 1_555 1_555
H46_2 N6_2 1_555 1_555
O49 Zn16 1_555 1_555
Zn8 O1_2 1_555 1_555
Zn13 O2_2 1_555 1_555
C1_2 C2_2 1_555 1_555
C2_2 H1_2 1_555 1_555
C3_2 C2_2 1_555 1_555
C13_2 C1_2 1_555 1_555
C14_2 C3_2 1_555 1_555
C33_2 O17_2 1_555 1_555
O1_2 C13_2 1_555 1_555
O2_2 C13_2 1_555 1_555
O39 C14_2 1_555 1_555
O10_2 Zn8 1_555 1_555
O17_2 Zn18_3 1_555 1_555
N2_2 C33_2 1_555 1_555
H24_2 N2_2 1_555 1_555
C74_2 O36_2 1_555 1_555
H48_2 C75_2 1_555 1_555
C76_2 C75_2 1_555 1_555
H49_2 C76_2 1_555 1_555
H50_2 C76_2 1_555 1_555
O36_2 Zn21 1_555 1_555
N7_2 C74_2 1_555 1_555
H51_2 N7_2 1_555 1_555
N8_2 C74_2 1_555 1_555
H52_2 N8_2 1_555 1_555
C75_2 N8_2 1_555 1_555
C76_2 N7_2 1_555 1_555
Zn18_4 O9_2 1_555 1_555
Zn21_3 O16_2 1_555 1_555
C17_2 C18_2 1_555 1_555
C18_2 H7_2 1_555 1_555
C19_2 C18_2 1_555 1_555
C20_2 C19_2 1_555 1_555
H8_2 C20_2 1_555 1_555
C21_2 C20_2 1_555 1_555
C22_2 C17_2 1_555 1_555
H9_2 C22_2 1_555 1_555
C23_2 C21_2 1_555 1_555
C24_2 C23_2 1_555 1_555
H10_2 C24_2 1_555 1_555
C25_2 C24_2 1_555 1_555
C26_2 C25_2 1_555 1_555
H11_2 C26_2 1_555 1_555
C27_2 C26_2 1_555 1_555
C28_2 C23_2 1_555 1_555
H12_2 C28_2 1_555 1_555
C29_2 C17_2 1_555 1_555
C30_2 C19_2 1_555 1_555
C31_2 C25_2 1_555 1_555
C32_2 C27_2 1_555 1_555
O9_2 C29_2 1_555 1_555
O11_2 C30_2 1_555 1_555
H22_2 O11_2 1_555 1_555
O12_2 C30_2 1_555 1_555
O45 C31_2 1_555 1_555
O47 C31_2 1_555 1_555
O16_2 C32_2 1_555 1_555
H28_2 C42_2 1_555 1_555
C43_2 C42_2 1_555 1_555
H29_2 C44_2 1_555 1_555
C45_2 C43_2 1_555 1_555
C46_2 C45_2 1_555 1_555
H30_2 C46_2 1_555 1_555
C47_2 C46_2 1_555 1_555
C48_2 C47_2 1_555 1_555
H31_2 C48_2 1_555 1_555
C49_2 C48_2 1_555 1_555
C50_2 C45_2 1_555 1_555
H32_2 C50_2 1_555 1_555
C53_2 C47_2 1_555 1_555
C54_2 C49_2 1_555 1_555
C72_2 H39_2 1_555 1_555
H40_2 C72_2 1_555 1_555
C73_2 C72_2 1_555 1_555
H41_2 C73_2 1_555 1_555
H42_2 C73_2 1_555 1_555
O42 C53_2 1_555 1_555
O44 C53_2 1_555 1_555
O25_2 C54_2 1_555 1_555
O26_2 C54_2 1_555 1_555
H43_2 O26_2 1_555 1_555
H45_2 N5_2 1_555 1_555
C21_2 C22_2 1_555 1_555
C27_2 C28_2 1_555 1_555
C43_2 C44_2 1_555 1_555
C49_2 C50_2 1_555 1_555
C73_2 N5_2 1_555 1_555
C36_2 O18_2 1_555 1_555
H18_2 C37_2 1_555 1_555
C38_2 C37_2 1_555 1_555
H19_2 C38_2 1_555 1_555
H20_2 C38_2 1_555 1_555
O18_2 Zn21_4 1_555 1_555
N3_2 C36_2 1_555 1_555
H25_2 N3_2 1_555 1_555
N4_2 C36_2 1_555 1_555
H26_2 N4_2 1_555 1_555
C37_2 N4_2 1_555 1_555
C38_2 N3_2 1_555 1_555

#END
