
###############################################################################
#
# This file contains modified crystal structure data generated from the
# MOF subset of the Cambridge Structural Database (CSD) v543 
# hosted by the Cambridge Crystallographic Data Centre (CCDC).
#
# This work is licensed under the Creative Commons
# Attribution-NonCommercial-ShareAlike 4.0 International License.
# To view a copy of this license, visit
# http://creativecommons.org/licenses/by-nc-sa/4.0/
# or send a letter to
# Creative Commons, PO Box 1866, Mountain View, CA 94042, USA.
#
# CIF created using the CSD Python API on 29 September 2022
# The structure has been converted into the P1 space group
# The structure has a 3D framework
# The original CSD entry GUFYUE is in the cubic crystal system
# The original CSD entry GUFYUE is in a Sohncke space group
# The framework has been calculated to contain at least 10.0% void space
# The void calculation uses a probe of radius 1.32A, grid spacing 0.4
# The framework is charged, counterions have been retained in the structure
# H atom positions have been added when not included in the experimental data
#
###############################################################################

data_GUFYUE
_chemical_formula_moiety         '(C576 H192 Al36 O208 24-)n'
_symmetry_cell_setting           triclinic
_symmetry_space_group_name_H-M   'P 1'
_symmetry_Int_Tables_number      1
_space_group_name_Hall           'P 1'
loop_
_symmetry_equiv_pos_site_id
_symmetry_equiv_pos_as_xyz
1 x,y,z
_cell_length_a                   31.733(5)
_cell_length_b                   31.733(5)
_cell_length_c                   31.733(5)
_cell_angle_alpha                90
_cell_angle_beta                 90
_cell_angle_gamma                90
_cell_volume                     31954.6
loop_
_atom_site_label
_atom_site_type_symbol
_atom_site_fract_x
_atom_site_fract_y
_atom_site_fract_z
Al1 Al 0.648(2) 0.648(2) 0.586(4)
O1 O 0.604(6) 0.604(6) 0.604(6)
C1 C 0.548(17) 0.580(24) 0.388(17)
C2 C 0.515(34) 0.580(47) 0.355(34)
C3 C 0.483(54) 0.613(79) 0.355(61)
C4 C 0.548(42) 0.613(42) 0.420(39)
C5 C 0.483(85) 0.645(99) 0.387(85)
C6 C 0.516(84) 0.645(84) 0.420(77)
O2 O 0.454(64) 0.613(99) 0.326(75)
O3 O 0.45(12) 0.67(14) 0.39(12)
O4 O 0.680(44) 0.626(70) 0.620(63)
C7 C 0.779(17) 0.658(19) 0.677(17)
C8 C 0.785(15) 0.696(17) 0.652(13)
C9 C 0.757(30) 0.706(34) 0.617(26)
C10 C 0.721(26) 0.678(47) 0.608(31)
C11 C 0.715(19) 0.641(50) 0.630(36)
C12 C 0.743(34) 0.631(39) 0.667(33)
O5 O 0.696(37) 0.687(61) 0.577(41)
C13 C 0.580(24) 0.612(17) 0.452(17)
C14 C 0.580(47) 0.645(34) 0.485(34)
C15 C 0.613(79) 0.645(61) 0.517(54)
C16 C 0.613(42) 0.580(39) 0.452(42)
C17 C 0.645(99) 0.613(85) 0.517(85)
C18 C 0.645(84) 0.580(77) 0.484(84)
O6 O 0.613(99) 0.674(75) 0.546(64)
O7 O 0.67(14) 0.61(12) 0.55(12)
C19 C 0.612(17) 0.548(17) 0.420(24)
C20 C 0.645(34) 0.515(34) 0.420(47)
C21 C 0.645(61) 0.483(54) 0.387(79)
C22 C 0.580(39) 0.548(42) 0.387(42)
C23 C 0.613(85) 0.483(85) 0.355(99)
C24 C 0.580(77) 0.516(84) 0.355(84)
O8 O 0.674(75) 0.454(64) 0.387(99)
O9 O 0.61(12) 0.45(12) 0.33(14)
O10 O 0.874(70) 0.620(63) 0.820(44)
C25 C 0.842(19) 0.677(17) 0.721(17)
C26 C 0.804(17) 0.652(13) 0.715(15)
C27 C 0.794(34) 0.617(26) 0.743(30)
C28 C 0.822(47) 0.608(31) 0.779(26)
C29 C 0.859(50) 0.630(36) 0.785(19)
C30 C 0.869(39) 0.667(33) 0.757(34)
O11 O 0.813(61) 0.577(41) 0.804(37)
O12 O 0.880(63) 0.820(44) 0.626(70)
C31 C 0.823(17) 0.721(17) 0.658(19)
C32 C 0.848(13) 0.715(15) 0.696(17)
C33 C 0.883(26) 0.743(30) 0.706(34)
C34 C 0.892(31) 0.779(26) 0.678(47)
C35 C 0.870(36) 0.785(19) 0.641(50)
C36 C 0.833(33) 0.757(34) 0.631(39)
O13 O 0.923(41) 0.804(37) 0.687(61)
Al2 Al 0.648(2) 0.414(4) 0.352(2)
Al3 Al 0.648(2) 0.586(4) 0.648(2)
Al4 Al 0.586(4) 0.648(2) 0.648(2)
Al5 Al 0.414(4) 0.648(2) 0.352(2)
Al6 Al 0.852(2) 0.586(4) 0.852(2)
Al7 Al 0.914(4) 0.648(2) 0.852(2)
Al8 Al 0.914(4) 0.852(2) 0.648(2)
Al9 Al 0.852(2) 0.852(2) 0.586(4)
O14 O 0.604(6) 0.396(6) 0.396(6)
O15 O 0.674(75) 0.546(64) 0.613(99)
O16 O 0.61(12) 0.55(12) 0.67(14)
O17 O 0.626(70) 0.380(63) 0.320(44)
O18 O 0.620(63) 0.680(44) 0.626(70)
O19 O 0.626(70) 0.620(63) 0.680(44)
O20 O 0.680(44) 0.374(70) 0.380(63)
O21 O 0.687(61) 0.423(41) 0.304(37)
O22 O 0.687(61) 0.577(41) 0.696(37)
H1 H 0.514627 0.555552 0.33092
H2 H 0.902291 0.737411 0.733827
H3 H 0.669266 0.555734 0.484
H4 H 0.516 0.669266 0.444266
H5 H 0.762589 0.733827 0.597709
H6 H 0.736401 0.603494 0.686431
H7 H 0.813569 0.763599 0.603494
H8 H 0.555734 0.516 0.330734
H9 H 0.896506 0.686431 0.763599
H10 H 0.555552 0.66908 0.485373
H11 H 0.766173 0.597709 0.737411
H12 H 0.66908 0.514627 0.444448
Al1_2 Al 0.352(2) 0.648(2) 0.414(4)
O1_2 O 0.396(6) 0.604(6) 0.396(6)
C1_2 C 0.452(17) 0.580(24) 0.612(17)
C2_2 C 0.485(34) 0.580(47) 0.645(34)
C3_2 C 0.517(54) 0.613(79) 0.645(61)
C4_2 C 0.452(42) 0.613(42) 0.580(39)
C5_2 C 0.517(85) 0.645(99) 0.613(85)
C6_2 C 0.484(84) 0.645(84) 0.580(77)
O2_2 O 0.546(64) 0.613(99) 0.674(75)
O3_2 O 0.55(12) 0.67(14) 0.61(12)
O4_2 O 0.320(44) 0.626(70) 0.380(63)
C7_2 C 0.221(17) 0.658(19) 0.323(17)
C8_2 C 0.215(15) 0.696(17) 0.348(13)
C9_2 C 0.243(30) 0.706(34) 0.383(26)
C10_2 C 0.279(26) 0.678(47) 0.392(31)
C11_2 C 0.285(19) 0.641(50) 0.370(36)
C12_2 C 0.257(34) 0.631(39) 0.333(33)
O5_2 O 0.304(37) 0.687(61) 0.423(41)
C13_2 C 0.420(24) 0.612(17) 0.548(17)
C14_2 C 0.420(47) 0.645(34) 0.515(34)
C15_2 C 0.387(79) 0.645(61) 0.483(54)
C16_2 C 0.387(42) 0.580(39) 0.548(42)
C17_2 C 0.355(99) 0.613(85) 0.483(85)
C18_2 C 0.355(84) 0.580(77) 0.516(84)
O6_2 O 0.387(99) 0.674(75) 0.454(64)
O7_2 O 0.33(14) 0.61(12) 0.45(12)
C19_2 C 0.388(17) 0.548(17) 0.580(24)
C20_2 C 0.355(34) 0.515(34) 0.580(47)
C21_2 C 0.355(61) 0.483(54) 0.613(79)
C22_2 C 0.420(39) 0.548(42) 0.613(42)
C23_2 C 0.387(85) 0.483(85) 0.645(99)
C24_2 C 0.420(77) 0.516(84) 0.645(84)
O8_2 O 0.326(75) 0.454(64) 0.613(99)
O9_2 O 0.39(12) 0.45(12) 0.67(14)
O10_2 O 0.126(70) 0.620(63) 0.180(44)
C25_2 C 0.158(19) 0.677(17) 0.279(17)
C26_2 C 0.196(17) 0.652(13) 0.285(15)
C27_2 C 0.206(34) 0.617(26) 0.257(30)
C28_2 C 0.178(47) 0.608(31) 0.221(26)
C29_2 C 0.141(50) 0.630(36) 0.215(19)
C30_2 C 0.131(39) 0.667(33) 0.243(34)
O11_2 O 0.187(61) 0.577(41) 0.196(37)
O12_2 O 0.120(63) 0.820(44) 0.374(70)
C31_2 C 0.177(17) 0.721(17) 0.342(19)
C32_2 C 0.152(13) 0.715(15) 0.304(17)
C33_2 C 0.117(26) 0.743(30) 0.294(34)
C34_2 C 0.108(31) 0.779(26) 0.322(47)
C35_2 C 0.130(36) 0.785(19) 0.359(50)
C36_2 C 0.167(33) 0.757(34) 0.369(39)
O13_2 O 0.077(41) 0.804(37) 0.313(61)
Al2_2 Al 0.352(2) 0.414(4) 0.648(2)
Al3_2 Al 0.352(2) 0.586(4) 0.352(2)
Al6_2 Al 0.148(2) 0.586(4) 0.148(2)
Al7_2 Al 0.086(4) 0.648(2) 0.148(2)
Al8_2 Al 0.086(4) 0.852(2) 0.352(2)
Al9_2 Al 0.148(2) 0.852(2) 0.414(4)
O14_2 O 0.396(6) 0.396(6) 0.604(6)
O15_2 O 0.326(75) 0.546(64) 0.387(99)
O16_2 O 0.39(12) 0.55(12) 0.33(14)
O17_2 O 0.374(70) 0.380(63) 0.680(44)
O18_2 O 0.380(63) 0.680(44) 0.374(70)
O19_2 O 0.374(70) 0.620(63) 0.320(44)
O20_2 O 0.320(44) 0.374(70) 0.620(63)
O21_2 O 0.313(61) 0.423(41) 0.696(37)
O22_2 O 0.313(61) 0.577(41) 0.304(37)
H1_2 H 0.485373 0.555552 0.66908
H2_2 H 0.097709 0.737411 0.266173
H3_2 H 0.330734 0.555734 0.516
H4_2 H 0.484 0.669266 0.555734
H5_2 H 0.237411 0.733827 0.402291
H6_2 H 0.263599 0.603494 0.313569
H7_2 H 0.186431 0.763599 0.396506
H8_2 H 0.444266 0.516 0.669266
H9_2 H 0.103494 0.686431 0.236401
H10_2 H 0.444448 0.66908 0.514627
H11_2 H 0.233827 0.597709 0.262589
H12_2 H 0.33092 0.514627 0.555552
C7_3 C 0.342(19) 0.323(17) 0.779(17)
C8_3 C 0.304(17) 0.348(13) 0.785(15)
C9_3 C 0.294(34) 0.383(26) 0.757(30)
C10_3 C 0.322(47) 0.392(31) 0.721(26)
C11_3 C 0.359(50) 0.370(36) 0.715(19)
C12_3 C 0.369(39) 0.333(33) 0.743(34)
O10_3 O 0.380(63) 0.180(44) 0.874(70)
C25_3 C 0.323(17) 0.279(17) 0.842(19)
C26_3 C 0.348(13) 0.285(15) 0.804(17)
C27_3 C 0.383(26) 0.257(30) 0.794(34)
C28_3 C 0.392(31) 0.221(26) 0.822(47)
C29_3 C 0.370(36) 0.215(19) 0.859(50)
C30_3 C 0.333(33) 0.243(34) 0.869(39)
O11_3 O 0.423(41) 0.196(37) 0.813(61)
O12_3 O 0.180(44) 0.374(70) 0.880(63)
C31_3 C 0.279(17) 0.342(19) 0.823(17)
C32_3 C 0.285(15) 0.304(17) 0.848(13)
C33_3 C 0.257(30) 0.294(34) 0.883(26)
C34_3 C 0.221(26) 0.322(47) 0.892(31)
C35_3 C 0.215(19) 0.359(50) 0.870(36)
C36_3 C 0.243(34) 0.369(39) 0.833(33)
O13_3 O 0.196(37) 0.313(61) 0.923(41)
Al3_3 Al 0.414(4) 0.352(2) 0.648(2)
Al4_2 Al 0.352(2) 0.352(2) 0.586(4)
Al6_3 Al 0.414(4) 0.148(2) 0.852(2)
Al7_3 Al 0.352(2) 0.148(2) 0.914(4)
Al8_3 Al 0.148(2) 0.352(2) 0.914(4)
Al9_3 Al 0.148(2) 0.414(4) 0.852(2)
O15_3 O 0.454(64) 0.387(99) 0.674(75)
O16_3 O 0.45(12) 0.33(14) 0.61(12)
O19_3 O 0.380(63) 0.320(44) 0.626(70)
O21_3 O 0.577(41) 0.696(37) 0.687(61)
O22_3 O 0.423(41) 0.304(37) 0.687(61)
H2_3 H 0.262589 0.266173 0.902291
H5_3 H 0.266173 0.402291 0.762589
H6_3 H 0.396506 0.313569 0.736401
H7_3 H 0.236401 0.396506 0.813569
H9_3 H 0.313569 0.236401 0.896506
H11_3 H 0.402291 0.262589 0.766173
C7_4 C 0.658(19) 0.323(17) 0.221(17)
C8_4 C 0.696(17) 0.348(13) 0.215(15)
C9_4 C 0.706(34) 0.383(26) 0.243(30)
C10_4 C 0.678(47) 0.392(31) 0.279(26)
C11_4 C 0.641(50) 0.370(36) 0.285(19)
C12_4 C 0.631(39) 0.333(33) 0.257(34)
O10_4 O 0.620(63) 0.180(44) 0.126(70)
C25_4 C 0.677(17) 0.279(17) 0.158(19)
C26_4 C 0.652(13) 0.285(15) 0.196(17)
C27_4 C 0.617(26) 0.257(30) 0.206(34)
C28_4 C 0.608(31) 0.221(26) 0.178(47)
C29_4 C 0.630(36) 0.215(19) 0.141(50)
C30_4 C 0.667(33) 0.243(34) 0.131(39)
O11_4 O 0.577(41) 0.196(37) 0.187(61)
O12_4 O 0.820(44) 0.374(70) 0.120(63)
C31_4 C 0.721(17) 0.342(19) 0.177(17)
C32_4 C 0.715(15) 0.304(17) 0.152(13)
C33_4 C 0.743(30) 0.294(34) 0.117(26)
C34_4 C 0.779(26) 0.322(47) 0.108(31)
C35_4 C 0.785(19) 0.359(50) 0.130(36)
C36_4 C 0.757(34) 0.369(39) 0.167(33)
O13_4 O 0.804(37) 0.313(61) 0.077(41)
Al3_4 Al 0.586(4) 0.352(2) 0.352(2)
Al4_3 Al 0.648(2) 0.352(2) 0.414(4)
Al6_4 Al 0.586(4) 0.148(2) 0.148(2)
Al7_4 Al 0.648(2) 0.148(2) 0.086(4)
Al8_4 Al 0.852(2) 0.352(2) 0.086(4)
Al9_4 Al 0.852(2) 0.414(4) 0.148(2)
O15_4 O 0.546(64) 0.387(99) 0.326(75)
O16_4 O 0.55(12) 0.33(14) 0.39(12)
O19_4 O 0.620(63) 0.320(44) 0.374(70)
O21_4 O 0.423(41) 0.696(37) 0.313(61)
O22_4 O 0.577(41) 0.304(37) 0.313(61)
H2_4 H 0.737411 0.266173 0.097709
H5_4 H 0.733827 0.402291 0.237411
H6_4 H 0.603494 0.313569 0.263599
H7_4 H 0.763599 0.396506 0.186431
H9_4 H 0.686431 0.236401 0.103494
H11_4 H 0.597709 0.262589 0.233827
C1_3 C 0.388(17) 0.452(17) 0.420(24)
C2_3 C 0.355(34) 0.485(34) 0.420(47)
C3_3 C 0.355(61) 0.517(54) 0.387(79)
C4_3 C 0.420(39) 0.452(42) 0.387(42)
C5_3 C 0.387(85) 0.517(85) 0.355(99)
C6_3 C 0.420(77) 0.484(84) 0.355(84)
C7_5 C 0.677(17) 0.221(17) 0.342(19)
C8_5 C 0.652(13) 0.215(15) 0.304(17)
C9_5 C 0.617(26) 0.243(30) 0.294(34)
C10_5 C 0.608(31) 0.279(26) 0.322(47)
C11_5 C 0.630(36) 0.285(19) 0.359(50)
C12_5 C 0.667(33) 0.257(34) 0.369(39)
C13_3 C 0.452(17) 0.420(24) 0.388(17)
C14_3 C 0.485(34) 0.420(47) 0.355(34)
C15_3 C 0.517(54) 0.387(79) 0.355(61)
C16_3 C 0.452(42) 0.387(42) 0.420(39)
C17_3 C 0.517(85) 0.355(99) 0.387(85)
C18_3 C 0.484(84) 0.355(84) 0.420(77)
C19_3 C 0.420(24) 0.388(17) 0.452(17)
C20_3 C 0.420(47) 0.355(34) 0.485(34)
C21_3 C 0.387(79) 0.355(61) 0.517(54)
C22_3 C 0.387(42) 0.420(39) 0.452(42)
C23_3 C 0.355(99) 0.387(85) 0.517(85)
C24_3 C 0.355(84) 0.420(77) 0.484(84)
O8_3 O 0.387(99) 0.326(75) 0.546(64)
O9_3 O 0.33(14) 0.39(12) 0.55(12)
O10_5 O 0.820(44) 0.126(70) 0.380(63)
C25_5 C 0.721(17) 0.158(19) 0.323(17)
C26_5 C 0.715(15) 0.196(17) 0.348(13)
C27_5 C 0.743(30) 0.206(34) 0.383(26)
C28_5 C 0.779(26) 0.178(47) 0.392(31)
C29_5 C 0.785(19) 0.141(50) 0.370(36)
C30_5 C 0.757(34) 0.131(39) 0.333(33)
O11_5 O 0.804(37) 0.187(61) 0.423(41)
O12_5 O 0.626(70) 0.120(63) 0.180(44)
C31_5 C 0.658(19) 0.177(17) 0.279(17)
C32_5 C 0.696(17) 0.152(13) 0.285(15)
C33_5 C 0.706(34) 0.117(26) 0.257(30)
C34_5 C 0.678(47) 0.108(31) 0.221(26)
C35_5 C 0.641(50) 0.130(36) 0.215(19)
C36_5 C 0.631(39) 0.167(33) 0.243(34)
O13_5 O 0.687(61) 0.077(41) 0.196(37)
Al6_5 Al 0.852(2) 0.148(2) 0.414(4)
Al7_5 Al 0.852(2) 0.086(4) 0.352(2)
Al8_5 Al 0.648(2) 0.086(4) 0.148(2)
O15_5 O 0.613(99) 0.326(75) 0.454(64)
O16_5 O 0.67(14) 0.39(12) 0.45(12)
O21_5 O 0.304(37) 0.313(61) 0.577(41)
O22_5 O 0.696(37) 0.313(61) 0.423(41)
H1_3 H 0.33092 0.485373 0.444448
H2_5 H 0.733827 0.097709 0.262589
H3_3 H 0.484 0.330734 0.444266
H4_3 H 0.444266 0.484 0.330734
H5_5 H 0.597709 0.237411 0.266173
H6_5 H 0.686431 0.263599 0.396506
H7_5 H 0.603494 0.186431 0.236401
H8_3 H 0.330734 0.444266 0.484
H9_5 H 0.763599 0.103494 0.313569
H10_3 H 0.485373 0.444448 0.33092
H11_5 H 0.737411 0.233827 0.402291
H12_3 H 0.444448 0.33092 0.485373
C7_6 C 0.342(19) 0.677(17) 0.221(17)
C8_6 C 0.304(17) 0.652(13) 0.215(15)
C9_6 C 0.294(34) 0.617(26) 0.243(30)
C10_6 C 0.322(47) 0.608(31) 0.279(26)
C11_6 C 0.359(50) 0.630(36) 0.285(19)
C12_6 C 0.369(39) 0.667(33) 0.257(34)
O10_6 O 0.380(63) 0.820(44) 0.126(70)
C25_6 C 0.323(17) 0.721(17) 0.158(19)
C26_6 C 0.348(13) 0.715(15) 0.196(17)
C27_6 C 0.383(26) 0.743(30) 0.206(34)
C28_6 C 0.392(31) 0.779(26) 0.178(47)
C29_6 C 0.370(36) 0.785(19) 0.141(50)
C30_6 C 0.333(33) 0.757(34) 0.131(39)
O11_6 O 0.423(41) 0.804(37) 0.187(61)
O12_6 O 0.180(44) 0.626(70) 0.120(63)
C31_6 C 0.279(17) 0.658(19) 0.177(17)
C32_6 C 0.285(15) 0.696(17) 0.152(13)
C33_6 C 0.257(30) 0.706(34) 0.117(26)
C34_6 C 0.221(26) 0.678(47) 0.108(31)
C35_6 C 0.215(19) 0.641(50) 0.130(36)
C36_6 C 0.243(34) 0.631(39) 0.167(33)
O13_6 O 0.196(37) 0.687(61) 0.077(41)
Al6_6 Al 0.414(4) 0.852(2) 0.148(2)
Al7_6 Al 0.352(2) 0.852(2) 0.086(4)
Al8_6 Al 0.148(2) 0.648(2) 0.086(4)
H2_6 H 0.262589 0.733827 0.097709
H5_6 H 0.266173 0.597709 0.237411
H6_6 H 0.396506 0.686431 0.263599
H7_6 H 0.236401 0.603494 0.186431
H9_6 H 0.313569 0.763599 0.103494
H11_6 H 0.402291 0.737411 0.233827
C7_7 C 0.677(17) 0.779(17) 0.658(19)
C8_7 C 0.652(13) 0.785(15) 0.696(17)
C9_7 C 0.617(26) 0.757(30) 0.706(34)
C10_7 C 0.608(31) 0.721(26) 0.678(47)
C11_7 C 0.630(36) 0.715(19) 0.641(50)
C12_7 C 0.667(33) 0.743(34) 0.631(39)
O10_7 O 0.820(44) 0.874(70) 0.620(63)
C25_7 C 0.721(17) 0.842(19) 0.677(17)
C26_7 C 0.715(15) 0.804(17) 0.652(13)
C27_7 C 0.743(30) 0.794(34) 0.617(26)
C28_7 C 0.779(26) 0.822(47) 0.608(31)
C29_7 C 0.785(19) 0.859(50) 0.630(36)
C30_7 C 0.757(34) 0.869(39) 0.667(33)
O11_7 O 0.804(37) 0.813(61) 0.577(41)
O12_7 O 0.626(70) 0.880(63) 0.820(44)
C31_7 C 0.658(19) 0.823(17) 0.721(17)
C32_7 C 0.696(17) 0.848(13) 0.715(15)
C33_7 C 0.706(34) 0.883(26) 0.743(30)
C34_7 C 0.678(47) 0.892(31) 0.779(26)
C35_7 C 0.641(50) 0.870(36) 0.785(19)
C36_7 C 0.631(39) 0.833(33) 0.757(34)
O13_7 O 0.687(61) 0.923(41) 0.804(37)
Al7_7 Al 0.852(2) 0.914(4) 0.648(2)
Al8_7 Al 0.648(2) 0.914(4) 0.852(2)
Al9_5 Al 0.586(4) 0.852(2) 0.852(2)
H2_7 H 0.733827 0.902291 0.737411
H5_7 H 0.597709 0.762589 0.733827
H6_7 H 0.686431 0.736401 0.603494
H7_7 H 0.603494 0.813569 0.763599
H9_7 H 0.763599 0.896506 0.686431
H11_7 H 0.737411 0.766173 0.597709
C7_8 C 0.323(17) 0.779(17) 0.342(19)
C8_8 C 0.348(13) 0.785(15) 0.304(17)
C9_8 C 0.383(26) 0.757(30) 0.294(34)
C10_8 C 0.392(31) 0.721(26) 0.322(47)
C11_8 C 0.370(36) 0.715(19) 0.359(50)
C12_8 C 0.333(33) 0.743(34) 0.369(39)
O10_8 O 0.180(44) 0.874(70) 0.380(63)
C25_8 C 0.279(17) 0.842(19) 0.323(17)
C26_8 C 0.285(15) 0.804(17) 0.348(13)
C27_8 C 0.257(30) 0.794(34) 0.383(26)
C28_8 C 0.221(26) 0.822(47) 0.392(31)
C29_8 C 0.215(19) 0.859(50) 0.370(36)
C30_8 C 0.243(34) 0.869(39) 0.333(33)
O11_8 O 0.196(37) 0.813(61) 0.423(41)
O12_8 O 0.374(70) 0.880(63) 0.180(44)
C31_8 C 0.342(19) 0.823(17) 0.279(17)
C32_8 C 0.304(17) 0.848(13) 0.285(15)
C33_8 C 0.294(34) 0.883(26) 0.257(30)
C34_8 C 0.322(47) 0.892(31) 0.221(26)
C35_8 C 0.359(50) 0.870(36) 0.215(19)
C36_8 C 0.369(39) 0.833(33) 0.243(34)
O13_8 O 0.313(61) 0.923(41) 0.196(37)
Al7_8 Al 0.148(2) 0.914(4) 0.352(2)
Al8_8 Al 0.352(2) 0.914(4) 0.148(2)
H2_8 H 0.266173 0.902291 0.262589
H5_8 H 0.402291 0.762589 0.266173
H6_8 H 0.313569 0.736401 0.396506
H7_8 H 0.396506 0.813569 0.236401
H9_8 H 0.236401 0.896506 0.313569
H11_8 H 0.262589 0.766173 0.402291
C1_4 C 0.612(17) 0.452(17) 0.580(24)
C2_4 C 0.645(34) 0.485(34) 0.580(47)
C3_4 C 0.645(61) 0.517(54) 0.613(79)
C4_4 C 0.580(39) 0.452(42) 0.613(42)
C5_4 C 0.613(85) 0.517(85) 0.645(99)
C6_4 C 0.580(77) 0.484(84) 0.645(84)
C7_9 C 0.323(17) 0.221(17) 0.658(19)
C8_9 C 0.348(13) 0.215(15) 0.696(17)
C9_9 C 0.383(26) 0.243(30) 0.706(34)
C10_9 C 0.392(31) 0.279(26) 0.678(47)
C11_9 C 0.370(36) 0.285(19) 0.641(50)
C12_9 C 0.333(33) 0.257(34) 0.631(39)
C13_4 C 0.548(17) 0.420(24) 0.612(17)
C14_4 C 0.515(34) 0.420(47) 0.645(34)
C15_4 C 0.483(54) 0.387(79) 0.645(61)
C16_4 C 0.548(42) 0.387(42) 0.580(39)
C17_4 C 0.483(85) 0.355(99) 0.613(85)
C18_4 C 0.516(84) 0.355(84) 0.580(77)
C19_4 C 0.580(24) 0.388(17) 0.548(17)
C20_4 C 0.580(47) 0.355(34) 0.515(34)
C21_4 C 0.613(79) 0.355(61) 0.483(54)
C22_4 C 0.613(42) 0.420(39) 0.548(42)
C23_4 C 0.645(99) 0.387(85) 0.483(85)
C24_4 C 0.645(84) 0.420(77) 0.516(84)
O10_9 O 0.180(44) 0.126(70) 0.620(63)
C25_9 C 0.279(17) 0.158(19) 0.677(17)
C26_9 C 0.285(15) 0.196(17) 0.652(13)
C27_9 C 0.257(30) 0.206(34) 0.617(26)
C28_9 C 0.221(26) 0.178(47) 0.608(31)
C29_9 C 0.215(19) 0.141(50) 0.630(36)
C30_9 C 0.243(34) 0.131(39) 0.667(33)
O11_9 O 0.196(37) 0.187(61) 0.577(41)
O12_9 O 0.374(70) 0.120(63) 0.820(44)
C31_9 C 0.342(19) 0.177(17) 0.721(17)
C32_9 C 0.304(17) 0.152(13) 0.715(15)
C33_9 C 0.294(34) 0.117(26) 0.743(30)
C34_9 C 0.322(47) 0.108(31) 0.779(26)
C35_9 C 0.359(50) 0.130(36) 0.785(19)
C36_9 C 0.369(39) 0.167(33) 0.757(34)
O13_9 O 0.313(61) 0.077(41) 0.804(37)
Al6_7 Al 0.148(2) 0.148(2) 0.586(4)
Al7_9 Al 0.148(2) 0.086(4) 0.648(2)
Al8_9 Al 0.352(2) 0.086(4) 0.852(2)
H1_4 H 0.66908 0.485373 0.555552
H2_9 H 0.266173 0.097709 0.737411
H3_4 H 0.516 0.330734 0.555734
H4_4 H 0.555734 0.484 0.669266
H5_9 H 0.402291 0.237411 0.733827
H6_9 H 0.313569 0.263599 0.603494
H7_9 H 0.396506 0.186431 0.763599
H8_4 H 0.669266 0.444266 0.516
H9_9 H 0.236401 0.103494 0.686431
H10_4 H 0.514627 0.444448 0.66908
H11_9 H 0.262589 0.233827 0.597709
H12_4 H 0.555552 0.33092 0.514627
C7_10 C 0.658(19) 0.677(17) 0.779(17)
C8_10 C 0.696(17) 0.652(13) 0.785(15)
C9_10 C 0.706(34) 0.617(26) 0.757(30)
C10_10 C 0.678(47) 0.608(31) 0.721(26)
C11_10 C 0.641(50) 0.630(36) 0.715(19)
C12_10 C 0.631(39) 0.667(33) 0.743(34)
O10_10 O 0.620(63) 0.820(44) 0.874(70)
C25_10 C 0.677(17) 0.721(17) 0.842(19)
C26_10 C 0.652(13) 0.715(15) 0.804(17)
C27_10 C 0.617(26) 0.743(30) 0.794(34)
C28_10 C 0.608(31) 0.779(26) 0.822(47)
C29_10 C 0.630(36) 0.785(19) 0.859(50)
C30_10 C 0.667(33) 0.757(34) 0.869(39)
O11_10 O 0.577(41) 0.804(37) 0.813(61)
O12_10 O 0.820(44) 0.626(70) 0.880(63)
C31_10 C 0.721(17) 0.658(19) 0.823(17)
C32_10 C 0.715(15) 0.696(17) 0.848(13)
C33_10 C 0.743(30) 0.706(34) 0.883(26)
C34_10 C 0.779(26) 0.678(47) 0.892(31)
C35_10 C 0.785(19) 0.641(50) 0.870(36)
C36_10 C 0.757(34) 0.631(39) 0.833(33)
O13_10 O 0.804(37) 0.687(61) 0.923(41)
Al7_10 Al 0.648(2) 0.852(2) 0.914(4)
Al8_10 Al 0.852(2) 0.648(2) 0.914(4)
H2_10 H 0.737411 0.733827 0.902291
H5_10 H 0.733827 0.597709 0.762589
H6_10 H 0.603494 0.686431 0.736401
H7_10 H 0.763599 0.603494 0.813569
H9_10 H 0.686431 0.763599 0.896506
H11_10 H 0.597709 0.737411 0.766173
C7_11 C 0.221(17) 0.342(19) 0.677(17)
C8_11 C 0.215(15) 0.304(17) 0.652(13)
C9_11 C 0.243(30) 0.294(34) 0.617(26)
C10_11 C 0.279(26) 0.322(47) 0.608(31)
C11_11 C 0.285(19) 0.359(50) 0.630(36)
C12_11 C 0.257(34) 0.369(39) 0.667(33)
O10_11 O 0.126(70) 0.380(63) 0.820(44)
C25_11 C 0.158(19) 0.323(17) 0.721(17)
C26_11 C 0.196(17) 0.348(13) 0.715(15)
C27_11 C 0.206(34) 0.383(26) 0.743(30)
C28_11 C 0.178(47) 0.392(31) 0.779(26)
C29_11 C 0.141(50) 0.370(36) 0.785(19)
C30_11 C 0.131(39) 0.333(33) 0.757(34)
O11_11 O 0.187(61) 0.423(41) 0.804(37)
O12_11 O 0.120(63) 0.180(44) 0.626(70)
C31_11 C 0.177(17) 0.279(17) 0.658(19)
C32_11 C 0.152(13) 0.285(15) 0.696(17)
C33_11 C 0.117(26) 0.257(30) 0.706(34)
C34_11 C 0.108(31) 0.221(26) 0.678(47)
C35_11 C 0.130(36) 0.215(19) 0.641(50)
C36_11 C 0.167(33) 0.243(34) 0.631(39)
O13_11 O 0.077(41) 0.196(37) 0.687(61)
Al7_11 Al 0.086(4) 0.352(2) 0.852(2)
Al8_11 Al 0.086(4) 0.148(2) 0.648(2)
H2_11 H 0.097709 0.262589 0.733827
H5_11 H 0.237411 0.266173 0.597709
H6_11 H 0.263599 0.396506 0.686431
H7_11 H 0.186431 0.236401 0.603494
H9_11 H 0.103494 0.313569 0.763599
H11_11 H 0.233827 0.402291 0.737411
C7_12 C 0.779(17) 0.342(19) 0.323(17)
C8_12 C 0.785(15) 0.304(17) 0.348(13)
C9_12 C 0.757(30) 0.294(34) 0.383(26)
C10_12 C 0.721(26) 0.322(47) 0.392(31)
C11_12 C 0.715(19) 0.359(50) 0.370(36)
C12_12 C 0.743(34) 0.369(39) 0.333(33)
O10_12 O 0.874(70) 0.380(63) 0.180(44)
C25_12 C 0.842(19) 0.323(17) 0.279(17)
C26_12 C 0.804(17) 0.348(13) 0.285(15)
C27_12 C 0.794(34) 0.383(26) 0.257(30)
C28_12 C 0.822(47) 0.392(31) 0.221(26)
C29_12 C 0.859(50) 0.370(36) 0.215(19)
C30_12 C 0.869(39) 0.333(33) 0.243(34)
O11_12 O 0.813(61) 0.423(41) 0.196(37)
O12_12 O 0.880(63) 0.180(44) 0.374(70)
C31_12 C 0.823(17) 0.279(17) 0.342(19)
C32_12 C 0.848(13) 0.285(15) 0.304(17)
C33_12 C 0.883(26) 0.257(30) 0.294(34)
C34_12 C 0.892(31) 0.221(26) 0.322(47)
C35_12 C 0.870(36) 0.215(19) 0.359(50)
C36_12 C 0.833(33) 0.243(34) 0.369(39)
O13_12 O 0.923(41) 0.196(37) 0.313(61)
Al7_12 Al 0.914(4) 0.352(2) 0.148(2)
Al8_12 Al 0.914(4) 0.148(2) 0.352(2)
H2_12 H 0.902291 0.262589 0.266173
H5_12 H 0.762589 0.266173 0.402291
H6_12 H 0.736401 0.396506 0.313569
H7_12 H 0.813569 0.236401 0.396506
H9_12 H 0.896506 0.313569 0.236401
H11_12 H 0.766173 0.402291 0.262589
O1_3 O 0.604(6) 0.104(6) 0.104(6)
O4_3 O 0.680(44) 0.126(70) 0.120(63)
C7_13 C 0.779(17) 0.158(19) 0.177(17)
C8_13 C 0.785(15) 0.196(17) 0.152(13)
C9_13 C 0.757(30) 0.206(34) 0.117(26)
C10_13 C 0.721(26) 0.178(47) 0.108(31)
C11_13 C 0.715(19) 0.141(50) 0.130(36)
C12_13 C 0.743(34) 0.131(39) 0.167(33)
O5_3 O 0.696(37) 0.187(61) 0.077(41)
C15_5 C 0.613(79) 0.145(61) 0.017(54)
C17_5 C 0.645(99) 0.113(85) 0.017(85)
O6_3 O 0.613(99) 0.174(75) 0.046(64)
O7_3 O 0.67(14) 0.11(12) 0.05(12)
O10_13 O 0.874(70) 0.120(63) 0.320(44)
C25_13 C 0.842(19) 0.177(17) 0.221(17)
C26_13 C 0.804(17) 0.152(13) 0.215(15)
C27_13 C 0.794(34) 0.117(26) 0.243(30)
C28_13 C 0.822(47) 0.108(31) 0.279(26)
C29_13 C 0.859(50) 0.130(36) 0.285(19)
C30_13 C 0.869(39) 0.167(33) 0.257(34)
O11_13 O 0.813(61) 0.077(41) 0.304(37)
O12_13 O 0.880(63) 0.320(44) 0.126(70)
C31_13 C 0.823(17) 0.221(17) 0.158(19)
C32_13 C 0.848(13) 0.215(15) 0.196(17)
C33_13 C 0.883(26) 0.243(30) 0.206(34)
C34_13 C 0.892(31) 0.279(26) 0.178(47)
C35_13 C 0.870(36) 0.285(19) 0.141(50)
C36_13 C 0.833(33) 0.257(34) 0.131(39)
O13_13 O 0.923(41) 0.304(37) 0.187(61)
O15_6 O 0.674(75) 0.046(64) 0.113(99)
O16_6 O 0.61(12) 0.05(12) 0.17(14)
H2_13 H 0.902291 0.237411 0.233827
H5_13 H 0.762589 0.233827 0.097709
H6_13 H 0.736401 0.103494 0.186431
H7_13 H 0.813569 0.263599 0.103494
H9_13 H 0.896506 0.186431 0.263599
H11_13 H 0.766173 0.097709 0.237411
C1_5 C 0.548(17) 0.080(24) 0.888(17)
C2_5 C 0.515(34) 0.080(47) 0.855(34)
C3_5 C 0.483(54) 0.113(79) 0.855(61)
C4_5 C 0.548(42) 0.113(42) 0.920(39)
C5_5 C 0.483(85) 0.145(99) 0.887(85)
C6_5 C 0.516(84) 0.145(84) 0.920(77)
O2_3 O 0.454(64) 0.113(99) 0.826(75)
O3_3 O 0.45(12) 0.17(14) 0.89(12)
C13_5 C 0.580(24) 0.112(17) 0.952(17)
C14_5 C 0.580(47) 0.145(34) 0.985(34)
C16_5 C 0.613(42) 0.080(39) 0.952(42)
C18_5 C 0.645(84) 0.080(77) 0.984(84)
C19_5 C 0.612(17) 0.048(17) 0.920(24)
C20_5 C 0.645(34) 0.015(34) 0.920(47)
C22_5 C 0.580(39) 0.048(42) 0.887(42)
C24_5 C 0.580(77) 0.016(84) 0.855(84)
H1_5 H 0.514627 0.0555521 0.83092
H3_5 H 0.669266 0.0557338 0.984
H4_5 H 0.516 0.169266 0.944266
H8_5 H 0.555734 0.016 0.830734
H10_5 H 0.555552 0.16908 0.985373
H12_5 H 0.66908 0.0146267 0.944448
C21_5 C 0.645(61) 0.983(54) 0.887(79)
C23_5 C 0.613(85) 0.983(85) 0.855(99)
O8_4 O 0.674(75) 0.954(64) 0.887(99)
O9_4 O 0.61(12) 0.95(12) 0.83(14)
O14_3 O 0.604(6) 0.896(6) 0.896(6)
O20_3 O 0.680(44) 0.874(70) 0.880(63)
C1_6 C 0.452(17) 0.080(24) 0.112(17)
C2_6 C 0.485(34) 0.080(47) 0.145(34)
C3_6 C 0.517(54) 0.113(79) 0.145(61)
C4_6 C 0.452(42) 0.113(42) 0.080(39)
C5_6 C 0.517(85) 0.145(99) 0.113(85)
C6_6 C 0.484(84) 0.145(84) 0.080(77)
O2_4 O 0.546(64) 0.113(99) 0.174(75)
O3_4 O 0.55(12) 0.17(14) 0.11(12)
C13_6 C 0.420(24) 0.112(17) 0.048(17)
C14_6 C 0.420(47) 0.145(34) 0.015(34)
C16_6 C 0.387(42) 0.080(39) 0.048(42)
C18_6 C 0.355(84) 0.080(77) 0.016(84)
C19_6 C 0.388(17) 0.048(17) 0.080(24)
C20_6 C 0.355(34) 0.015(34) 0.080(47)
C22_6 C 0.420(39) 0.048(42) 0.113(42)
C24_6 C 0.420(77) 0.016(84) 0.145(84)
H1_6 H 0.485373 0.0555521 0.16908
H3_6 H 0.330734 0.0557338 0.016
H4_6 H 0.484 0.169266 0.0557338
H8_6 H 0.444266 0.016 0.169266
H10_6 H 0.444448 0.16908 0.0146267
H12_6 H 0.33092 0.0146267 0.0555521
O1_4 O 0.396(6) 0.104(6) 0.896(6)
O4_4 O 0.320(44) 0.126(70) 0.880(63)
C7_14 C 0.221(17) 0.158(19) 0.823(17)
C8_14 C 0.215(15) 0.196(17) 0.848(13)
C9_14 C 0.243(30) 0.206(34) 0.883(26)
C10_14 C 0.279(26) 0.178(47) 0.892(31)
C11_14 C 0.285(19) 0.141(50) 0.870(36)
C12_14 C 0.257(34) 0.131(39) 0.833(33)
O5_4 O 0.304(37) 0.187(61) 0.923(41)
C15_6 C 0.387(79) 0.145(61) 0.983(54)
C17_6 C 0.355(99) 0.113(85) 0.983(85)
O6_4 O 0.387(99) 0.174(75) 0.954(64)
O7_4 O 0.33(14) 0.11(12) 0.95(12)
O10_14 O 0.126(70) 0.120(63) 0.680(44)
C25_14 C 0.158(19) 0.177(17) 0.779(17)
C26_14 C 0.196(17) 0.152(13) 0.785(15)
C27_14 C 0.206(34) 0.117(26) 0.757(30)
C28_14 C 0.178(47) 0.108(31) 0.721(26)
C29_14 C 0.141(50) 0.130(36) 0.715(19)
C30_14 C 0.131(39) 0.167(33) 0.743(34)
O11_14 O 0.187(61) 0.077(41) 0.696(37)
O12_14 O 0.120(63) 0.320(44) 0.874(70)
C31_14 C 0.177(17) 0.221(17) 0.842(19)
C32_14 C 0.152(13) 0.215(15) 0.804(17)
C33_14 C 0.117(26) 0.243(30) 0.794(34)
C34_14 C 0.108(31) 0.279(26) 0.822(47)
C35_14 C 0.130(36) 0.285(19) 0.859(50)
C36_14 C 0.167(33) 0.257(34) 0.869(39)
O13_14 O 0.077(41) 0.304(37) 0.813(61)
O15_7 O 0.326(75) 0.046(64) 0.887(99)
O16_7 O 0.39(12) 0.05(12) 0.83(14)
H2_14 H 0.097709 0.237411 0.766173
H5_14 H 0.237411 0.233827 0.902291
H6_14 H 0.263599 0.103494 0.813569
H7_14 H 0.186431 0.263599 0.896506
H9_14 H 0.103494 0.186431 0.736401
H11_14 H 0.233827 0.097709 0.762589
C21_6 C 0.355(61) 0.983(54) 0.113(79)
C23_6 C 0.387(85) 0.983(85) 0.145(99)
O8_5 O 0.326(75) 0.954(64) 0.113(99)
O9_5 O 0.39(12) 0.95(12) 0.17(14)
O14_4 O 0.396(6) 0.896(6) 0.104(6)
O20_4 O 0.320(44) 0.874(70) 0.120(63)
O15_8 O 0.454(64) 0.887(99) 0.174(75)
O16_8 O 0.45(12) 0.83(14) 0.11(12)
O15_9 O 0.546(64) 0.887(99) 0.826(75)
O16_9 O 0.55(12) 0.83(14) 0.89(12)
C3_7 C 0.355(61) 0.017(54) 0.887(79)
C5_7 C 0.387(85) 0.017(85) 0.855(99)
C21_7 C 0.387(79) 0.855(61) 0.017(54)
C23_7 C 0.355(99) 0.887(85) 0.017(85)
O8_6 O 0.387(99) 0.826(75) 0.046(64)
O9_6 O 0.33(14) 0.89(12) 0.05(12)
O21_6 O 0.304(37) 0.813(61) 0.077(41)
C1_7 C 0.388(17) 0.952(17) 0.920(24)
C2_7 C 0.355(34) 0.985(34) 0.920(47)
C4_7 C 0.420(39) 0.952(42) 0.887(42)
C6_7 C 0.420(77) 0.984(84) 0.855(84)
C13_7 C 0.452(17) 0.920(24) 0.888(17)
C14_7 C 0.485(34) 0.920(47) 0.855(34)
C15_7 C 0.517(54) 0.887(79) 0.855(61)
C16_7 C 0.452(42) 0.887(42) 0.920(39)
C17_7 C 0.517(85) 0.855(99) 0.887(85)
C18_7 C 0.484(84) 0.855(84) 0.920(77)
C19_7 C 0.420(24) 0.888(17) 0.952(17)
C20_7 C 0.420(47) 0.855(34) 0.985(34)
C22_7 C 0.387(42) 0.920(39) 0.952(42)
C24_7 C 0.355(84) 0.920(77) 0.984(84)
O15_10 O 0.613(99) 0.826(75) 0.954(64)
O16_10 O 0.67(14) 0.89(12) 0.95(12)
O22_6 O 0.696(37) 0.813(61) 0.923(41)
H1_7 H 0.33092 0.985373 0.944448
H3_7 H 0.484 0.830734 0.944266
H4_7 H 0.444266 0.984 0.830734
H8_7 H 0.330734 0.944266 0.984
H10_7 H 0.485373 0.944448 0.83092
H12_7 H 0.444448 0.83092 0.985373
C3_8 C 0.645(61) 0.017(54) 0.113(79)
C5_8 C 0.613(85) 0.017(85) 0.145(99)
C1_8 C 0.612(17) 0.952(17) 0.080(24)
C2_8 C 0.645(34) 0.985(34) 0.080(47)
C4_8 C 0.580(39) 0.952(42) 0.113(42)
C6_8 C 0.580(77) 0.984(84) 0.145(84)
C13_8 C 0.548(17) 0.920(24) 0.112(17)
C14_8 C 0.515(34) 0.920(47) 0.145(34)
C15_8 C 0.483(54) 0.887(79) 0.145(61)
C16_8 C 0.548(42) 0.887(42) 0.080(39)
C17_8 C 0.483(85) 0.855(99) 0.113(85)
C18_8 C 0.516(84) 0.855(84) 0.080(77)
C19_8 C 0.580(24) 0.888(17) 0.048(17)
C20_8 C 0.580(47) 0.855(34) 0.015(34)
C22_8 C 0.613(42) 0.920(39) 0.048(42)
C24_8 C 0.645(84) 0.920(77) 0.016(84)
H1_8 H 0.66908 0.985373 0.0555521
H3_8 H 0.516 0.830734 0.0557338
H4_8 H 0.555734 0.984 0.169266
H8_8 H 0.669266 0.944266 0.016
H10_8 H 0.514627 0.944448 0.16908
H12_8 H 0.555552 0.83092 0.0146267
C21_8 C 0.613(79) 0.855(61) 0.983(54)
C23_8 C 0.645(99) 0.887(85) 0.983(85)
C7_15 C 0.221(17) 0.842(19) 0.177(17)
C8_15 C 0.215(15) 0.804(17) 0.152(13)
C9_15 C 0.243(30) 0.794(34) 0.117(26)
C10_15 C 0.279(26) 0.822(47) 0.108(31)
C11_15 C 0.285(19) 0.859(50) 0.130(36)
C12_15 C 0.257(34) 0.869(39) 0.167(33)
O10_15 O 0.126(70) 0.880(63) 0.320(44)
C25_15 C 0.158(19) 0.823(17) 0.221(17)
C26_15 C 0.196(17) 0.848(13) 0.215(15)
C27_15 C 0.206(34) 0.883(26) 0.243(30)
C28_15 C 0.178(47) 0.892(31) 0.279(26)
C29_15 C 0.141(50) 0.870(36) 0.285(19)
C30_15 C 0.131(39) 0.833(33) 0.257(34)
O11_15 O 0.187(61) 0.923(41) 0.304(37)
O12_15 O 0.120(63) 0.680(44) 0.126(70)
C31_15 C 0.177(17) 0.779(17) 0.158(19)
C32_15 C 0.152(13) 0.785(15) 0.196(17)
C33_15 C 0.117(26) 0.757(30) 0.206(34)
C34_15 C 0.108(31) 0.721(26) 0.178(47)
C35_15 C 0.130(36) 0.715(19) 0.141(50)
C36_15 C 0.167(33) 0.743(34) 0.131(39)
O13_15 O 0.077(41) 0.696(37) 0.187(61)
H2_15 H 0.097709 0.762589 0.233827
H5_15 H 0.237411 0.766173 0.097709
H6_15 H 0.263599 0.896506 0.186431
H7_15 H 0.186431 0.736401 0.103494
H9_15 H 0.103494 0.813569 0.263599
H11_15 H 0.233827 0.902291 0.237411
C7_16 C 0.779(17) 0.842(19) 0.823(17)
C8_16 C 0.785(15) 0.804(17) 0.848(13)
C9_16 C 0.757(30) 0.794(34) 0.883(26)
C10_16 C 0.721(26) 0.822(47) 0.892(31)
C11_16 C 0.715(19) 0.859(50) 0.870(36)
C12_16 C 0.743(34) 0.869(39) 0.833(33)
O10_16 O 0.874(70) 0.880(63) 0.680(44)
C25_16 C 0.842(19) 0.823(17) 0.779(17)
C26_16 C 0.804(17) 0.848(13) 0.785(15)
C27_16 C 0.794(34) 0.883(26) 0.757(30)
C28_16 C 0.822(47) 0.892(31) 0.721(26)
C29_16 C 0.859(50) 0.870(36) 0.715(19)
C30_16 C 0.869(39) 0.833(33) 0.743(34)
O11_16 O 0.813(61) 0.923(41) 0.696(37)
O12_16 O 0.880(63) 0.680(44) 0.874(70)
C31_16 C 0.823(17) 0.779(17) 0.842(19)
C32_16 C 0.848(13) 0.785(15) 0.804(17)
C33_16 C 0.883(26) 0.757(30) 0.794(34)
C34_16 C 0.892(31) 0.721(26) 0.822(47)
C35_16 C 0.870(36) 0.715(19) 0.859(50)
C36_16 C 0.833(33) 0.743(34) 0.869(39)
O13_16 O 0.923(41) 0.696(37) 0.813(61)
H2_16 H 0.902291 0.762589 0.766173
H5_16 H 0.762589 0.766173 0.902291
H6_16 H 0.736401 0.896506 0.813569
H7_16 H 0.813569 0.736401 0.896506
H9_16 H 0.896506 0.813569 0.736401
H11_16 H 0.766173 0.902291 0.762589
O1_5 O 0.104(6) 0.604(6) 0.104(6)
C15_9 C 0.113(79) 0.645(61) 0.017(54)
C17_9 C 0.145(99) 0.613(85) 0.017(85)
O6_5 O 0.113(99) 0.674(75) 0.046(64)
O7_5 O 0.17(14) 0.61(12) 0.05(12)
O15_11 O 0.174(75) 0.546(64) 0.113(99)
O16_11 O 0.11(12) 0.55(12) 0.17(14)
C1_9 C 0.048(17) 0.580(24) 0.888(17)
C2_9 C 0.015(34) 0.580(47) 0.855(34)
C4_9 C 0.048(42) 0.613(42) 0.920(39)
C6_9 C 0.016(84) 0.645(84) 0.920(77)
C13_9 C 0.080(24) 0.612(17) 0.952(17)
C14_9 C 0.080(47) 0.645(34) 0.985(34)
C16_9 C 0.113(42) 0.580(39) 0.952(42)
C18_9 C 0.145(84) 0.580(77) 0.984(84)
C19_9 C 0.112(17) 0.548(17) 0.920(24)
C20_9 C 0.145(34) 0.515(34) 0.920(47)
C21_9 C 0.145(61) 0.483(54) 0.887(79)
C22_9 C 0.080(39) 0.548(42) 0.887(42)
C23_9 C 0.113(85) 0.483(85) 0.855(99)
C24_9 C 0.080(77) 0.516(84) 0.855(84)
O8_7 O 0.174(75) 0.454(64) 0.887(99)
O9_7 O 0.11(12) 0.45(12) 0.83(14)
O14_5 O 0.104(6) 0.396(6) 0.896(6)
H1_9 H 0.0146267 0.555552 0.83092
H3_9 H 0.169266 0.555734 0.984
H4_9 H 0.016 0.669266 0.944266
H8_9 H 0.0557338 0.516 0.830734
H10_9 H 0.0555521 0.66908 0.985373
H12_9 H 0.16908 0.514627 0.944448
C3_9 C 0.983(54) 0.613(79) 0.855(61)
C5_9 C 0.983(85) 0.645(99) 0.887(85)
O2_5 O 0.954(64) 0.613(99) 0.826(75)
O3_5 O 0.95(12) 0.67(14) 0.89(12)
C3_10 C 0.017(54) 0.613(79) 0.145(61)
C5_10 C 0.017(85) 0.645(99) 0.113(85)
O2_6 O 0.046(64) 0.613(99) 0.174(75)
O3_6 O 0.05(12) 0.67(14) 0.11(12)
C1_10 C 0.952(17) 0.580(24) 0.112(17)
C2_10 C 0.985(34) 0.580(47) 0.145(34)
C4_10 C 0.952(42) 0.613(42) 0.080(39)
C6_10 C 0.984(84) 0.645(84) 0.080(77)
C13_10 C 0.920(24) 0.612(17) 0.048(17)
C14_10 C 0.920(47) 0.645(34) 0.015(34)
C16_10 C 0.887(42) 0.580(39) 0.048(42)
C18_10 C 0.855(84) 0.580(77) 0.016(84)
C19_10 C 0.888(17) 0.548(17) 0.080(24)
C20_10 C 0.855(34) 0.515(34) 0.080(47)
C21_10 C 0.855(61) 0.483(54) 0.113(79)
C22_10 C 0.920(39) 0.548(42) 0.113(42)
C23_10 C 0.887(85) 0.483(85) 0.145(99)
C24_10 C 0.920(77) 0.516(84) 0.145(84)
O8_8 O 0.826(75) 0.454(64) 0.113(99)
O9_8 O 0.89(12) 0.45(12) 0.17(14)
O14_6 O 0.896(6) 0.396(6) 0.104(6)
H1_10 H 0.985373 0.555552 0.16908
H3_10 H 0.830734 0.555734 0.016
H4_10 H 0.984 0.669266 0.0557338
H8_10 H 0.944266 0.516 0.169266
H10_10 H 0.944448 0.66908 0.0146267
H12_10 H 0.83092 0.514627 0.0555521
O1_6 O 0.896(6) 0.604(6) 0.896(6)
C15_10 C 0.887(79) 0.645(61) 0.983(54)
C17_10 C 0.855(99) 0.613(85) 0.983(85)
O6_6 O 0.887(99) 0.674(75) 0.954(64)
O7_6 O 0.83(14) 0.61(12) 0.95(12)
O15_12 O 0.826(75) 0.546(64) 0.887(99)
O16_12 O 0.89(12) 0.55(12) 0.83(14)
O15_13 O 0.954(64) 0.387(99) 0.174(75)
O16_13 O 0.95(12) 0.33(14) 0.11(12)
O15_14 O 0.046(64) 0.387(99) 0.826(75)
O16_14 O 0.05(12) 0.33(14) 0.89(12)
C15_11 C 0.017(54) 0.387(79) 0.855(61)
C17_11 C 0.017(85) 0.355(99) 0.887(85)
O15_15 O 0.113(99) 0.326(75) 0.954(64)
O16_15 O 0.17(14) 0.39(12) 0.95(12)
C21_11 C 0.887(79) 0.355(61) 0.017(54)
C23_11 C 0.855(99) 0.387(85) 0.017(85)
O8_9 O 0.887(99) 0.326(75) 0.046(64)
O9_9 O 0.83(14) 0.39(12) 0.05(12)
C1_11 C 0.888(17) 0.452(17) 0.920(24)
C2_11 C 0.855(34) 0.485(34) 0.920(47)
C3_11 C 0.855(61) 0.517(54) 0.887(79)
C4_11 C 0.920(39) 0.452(42) 0.887(42)
C5_11 C 0.887(85) 0.517(85) 0.855(99)
C6_11 C 0.920(77) 0.484(84) 0.855(84)
C13_11 C 0.952(17) 0.420(24) 0.888(17)
C14_11 C 0.985(34) 0.420(47) 0.855(34)
C16_11 C 0.952(42) 0.387(42) 0.920(39)
C18_11 C 0.984(84) 0.355(84) 0.920(77)
C19_11 C 0.920(24) 0.388(17) 0.952(17)
C20_11 C 0.920(47) 0.355(34) 0.985(34)
C22_11 C 0.887(42) 0.420(39) 0.952(42)
C24_11 C 0.855(84) 0.420(77) 0.984(84)
H1_11 H 0.83092 0.485373 0.944448
H3_11 H 0.984 0.330734 0.944266
H4_11 H 0.944266 0.484 0.830734
H8_11 H 0.830734 0.444266 0.984
H10_11 H 0.985373 0.444448 0.83092
H12_11 H 0.944448 0.33092 0.985373
C1_12 C 0.112(17) 0.452(17) 0.080(24)
C2_12 C 0.145(34) 0.485(34) 0.080(47)
C3_12 C 0.145(61) 0.517(54) 0.113(79)
C4_12 C 0.080(39) 0.452(42) 0.113(42)
C5_12 C 0.113(85) 0.517(85) 0.145(99)
C6_12 C 0.080(77) 0.484(84) 0.145(84)
C13_12 C 0.048(17) 0.420(24) 0.112(17)
C14_12 C 0.015(34) 0.420(47) 0.145(34)
C16_12 C 0.048(42) 0.387(42) 0.080(39)
C18_12 C 0.016(84) 0.355(84) 0.080(77)
C19_12 C 0.080(24) 0.388(17) 0.048(17)
C20_12 C 0.080(47) 0.355(34) 0.015(34)
C22_12 C 0.113(42) 0.420(39) 0.048(42)
C24_12 C 0.145(84) 0.420(77) 0.016(84)
H1_12 H 0.16908 0.485373 0.0555521
H3_12 H 0.016 0.330734 0.0557338
H4_12 H 0.0557338 0.484 0.169266
H8_12 H 0.169266 0.444266 0.016
H10_12 H 0.0146267 0.444448 0.16908
H12_12 H 0.0555521 0.33092 0.0146267
C21_12 C 0.113(79) 0.355(61) 0.983(54)
C23_12 C 0.145(99) 0.387(85) 0.983(85)
C15_12 C 0.983(54) 0.387(79) 0.145(61)
C17_12 C 0.983(85) 0.355(99) 0.113(85)
O1_7 O 0.104(6) 0.104(6) 0.604(6)
C1_13 C 0.048(17) 0.080(24) 0.388(17)
C2_13 C 0.015(34) 0.080(47) 0.355(34)
C4_13 C 0.048(42) 0.113(42) 0.420(39)
C6_13 C 0.016(84) 0.145(84) 0.420(77)
C13_13 C 0.080(24) 0.112(17) 0.452(17)
C14_13 C 0.080(47) 0.145(34) 0.485(34)
C15_13 C 0.113(79) 0.145(61) 0.517(54)
C16_13 C 0.113(42) 0.080(39) 0.452(42)
C17_13 C 0.145(99) 0.113(85) 0.517(85)
C18_13 C 0.145(84) 0.080(77) 0.484(84)
O6_7 O 0.113(99) 0.174(75) 0.546(64)
O7_7 O 0.17(14) 0.11(12) 0.55(12)
C19_13 C 0.112(17) 0.048(17) 0.420(24)
C20_13 C 0.145(34) 0.015(34) 0.420(47)
C22_13 C 0.080(39) 0.048(42) 0.387(42)
C24_13 C 0.080(77) 0.016(84) 0.355(84)
O15_16 O 0.174(75) 0.046(64) 0.613(99)
O16_16 O 0.11(12) 0.05(12) 0.67(14)
H1_13 H 0.0146267 0.0555521 0.33092
H3_13 H 0.169266 0.0557338 0.484
H4_13 H 0.016 0.169266 0.444266
H8_13 H 0.0557338 0.016 0.330734
H10_13 H 0.0555521 0.16908 0.485373
H12_13 H 0.16908 0.0146267 0.444448
C21_13 C 0.145(61) 0.983(54) 0.387(79)
C23_13 C 0.113(85) 0.983(85) 0.355(99)
O8_10 O 0.174(75) 0.954(64) 0.387(99)
O9_10 O 0.11(12) 0.95(12) 0.33(14)
O14_7 O 0.104(6) 0.896(6) 0.396(6)
C3_13 C 0.983(54) 0.113(79) 0.355(61)
C5_13 C 0.983(85) 0.145(99) 0.387(85)
O2_7 O 0.954(64) 0.113(99) 0.326(75)
O3_7 O 0.95(12) 0.17(14) 0.39(12)
C3_14 C 0.017(54) 0.113(79) 0.645(61)
C5_14 C 0.017(85) 0.145(99) 0.613(85)
O2_8 O 0.046(64) 0.113(99) 0.674(75)
O3_8 O 0.05(12) 0.17(14) 0.61(12)
O1_8 O 0.896(6) 0.104(6) 0.396(6)
C1_14 C 0.952(17) 0.080(24) 0.612(17)
C2_14 C 0.985(34) 0.080(47) 0.645(34)
C4_14 C 0.952(42) 0.113(42) 0.580(39)
C6_14 C 0.984(84) 0.145(84) 0.580(77)
C13_14 C 0.920(24) 0.112(17) 0.548(17)
C14_14 C 0.920(47) 0.145(34) 0.515(34)
C15_14 C 0.887(79) 0.145(61) 0.483(54)
C16_14 C 0.887(42) 0.080(39) 0.548(42)
C17_14 C 0.855(99) 0.113(85) 0.483(85)
C18_14 C 0.855(84) 0.080(77) 0.516(84)
O6_8 O 0.887(99) 0.174(75) 0.454(64)
O7_8 O 0.83(14) 0.11(12) 0.45(12)
C19_14 C 0.888(17) 0.048(17) 0.580(24)
C20_14 C 0.855(34) 0.015(34) 0.580(47)
C22_14 C 0.920(39) 0.048(42) 0.613(42)
C24_14 C 0.920(77) 0.016(84) 0.645(84)
O15_17 O 0.826(75) 0.046(64) 0.387(99)
O16_17 O 0.89(12) 0.05(12) 0.33(14)
H1_14 H 0.985373 0.0555521 0.66908
H3_14 H 0.830734 0.0557338 0.516
H4_14 H 0.984 0.169266 0.555734
H8_14 H 0.944266 0.016 0.669266
H10_14 H 0.944448 0.16908 0.514627
H12_14 H 0.83092 0.0146267 0.555552
C21_14 C 0.855(61) 0.983(54) 0.613(79)
C23_14 C 0.887(85) 0.983(85) 0.645(99)
O8_11 O 0.826(75) 0.954(64) 0.613(99)
O9_11 O 0.89(12) 0.95(12) 0.67(14)
O14_8 O 0.896(6) 0.896(6) 0.604(6)
O15_18 O 0.954(64) 0.887(99) 0.674(75)
O16_18 O 0.95(12) 0.83(14) 0.61(12)
O15_19 O 0.046(64) 0.887(99) 0.326(75)
O16_19 O 0.05(12) 0.83(14) 0.39(12)
C15_15 C 0.017(54) 0.887(79) 0.355(61)
C17_15 C 0.017(85) 0.855(99) 0.387(85)
O15_20 O 0.113(99) 0.826(75) 0.454(64)
O16_20 O 0.17(14) 0.89(12) 0.45(12)
C3_15 C 0.855(61) 0.017(54) 0.387(79)
C5_15 C 0.887(85) 0.017(85) 0.355(99)
C1_15 C 0.888(17) 0.952(17) 0.420(24)
C2_15 C 0.855(34) 0.985(34) 0.420(47)
C4_15 C 0.920(39) 0.952(42) 0.387(42)
C6_15 C 0.920(77) 0.984(84) 0.355(84)
C13_15 C 0.952(17) 0.920(24) 0.388(17)
C14_15 C 0.985(34) 0.920(47) 0.355(34)
C16_15 C 0.952(42) 0.887(42) 0.420(39)
C18_15 C 0.984(84) 0.855(84) 0.420(77)
C19_15 C 0.920(24) 0.888(17) 0.452(17)
C20_15 C 0.920(47) 0.855(34) 0.485(34)
C21_15 C 0.887(79) 0.855(61) 0.517(54)
C22_15 C 0.887(42) 0.920(39) 0.452(42)
C23_15 C 0.855(99) 0.887(85) 0.517(85)
C24_15 C 0.855(84) 0.920(77) 0.484(84)
O8_12 O 0.887(99) 0.826(75) 0.546(64)
O9_12 O 0.83(14) 0.89(12) 0.55(12)
H1_15 H 0.83092 0.985373 0.444448
H3_15 H 0.984 0.830734 0.444266
H4_15 H 0.944266 0.984 0.330734
H8_15 H 0.830734 0.944266 0.484
H10_15 H 0.985373 0.944448 0.33092
H12_15 H 0.944448 0.83092 0.485373
C3_16 C 0.145(61) 0.017(54) 0.613(79)
C5_16 C 0.113(85) 0.017(85) 0.645(99)
C1_16 C 0.112(17) 0.952(17) 0.580(24)
C2_16 C 0.145(34) 0.985(34) 0.580(47)
C4_16 C 0.080(39) 0.952(42) 0.613(42)
C6_16 C 0.080(77) 0.984(84) 0.645(84)
C13_16 C 0.048(17) 0.920(24) 0.612(17)
C14_16 C 0.015(34) 0.920(47) 0.645(34)
C16_16 C 0.048(42) 0.887(42) 0.580(39)
C18_16 C 0.016(84) 0.855(84) 0.580(77)
C19_16 C 0.080(24) 0.888(17) 0.548(17)
C20_16 C 0.080(47) 0.855(34) 0.515(34)
C21_16 C 0.113(79) 0.855(61) 0.483(54)
C22_16 C 0.113(42) 0.920(39) 0.548(42)
C23_16 C 0.145(99) 0.887(85) 0.483(85)
C24_16 C 0.145(84) 0.920(77) 0.516(84)
H1_16 H 0.16908 0.985373 0.555552
H3_16 H 0.016 0.830734 0.555734
H4_16 H 0.0557338 0.984 0.669266
H8_16 H 0.169266 0.944266 0.516
H10_16 H 0.0146267 0.944448 0.66908
H12_16 H 0.0555521 0.83092 0.514627
C15_16 C 0.983(54) 0.887(79) 0.645(61)
C17_16 C 0.983(85) 0.855(99) 0.613(85)
loop_
_geom_bond_atom_site_label_1
_geom_bond_atom_site_label_2
_geom_bond_site_symmetry_1
_geom_bond_site_symmetry_2
Al1 O1 1_555 1_555
O1 Al3 1_555 1_555
C1 C2 1_555 1_555
C2 C3 1_555 1_555
C3 C5 1_555 1_555
C4 C1 1_555 1_555
C5 C6 1_555 1_555
C6 C4 1_555 1_555
O2 C3 1_555 1_555
O3 C5 1_555 1_555
O4 Al1 1_555 1_555
C7 C8 1_555 1_555
C8 C9 1_555 1_555
C9 C10 1_555 1_555
C10 C11 1_555 1_555
C11 O4 1_555 1_555
C12 C7 1_555 1_555
O5 Al1 1_555 1_555
C13 C4 1_555 1_555
C14 C13 1_555 1_555
C15 C14 1_555 1_555
C16 C13 1_555 1_555
C17 C15 1_555 1_555
C18 C16 1_555 1_555
O6 Al1 1_555 1_555
O7 Al1 1_555 1_555
C19 C16 1_555 1_555
C20 C19 1_555 1_555
C21 C20 1_555 1_555
C22 C1 1_555 1_555
C23 C21 1_555 1_555
C24 C22 1_555 1_555
O8 C21 1_555 1_555
O9 C23 1_555 1_555
O10 C29 1_555 1_555
C25 C26 1_555 1_555
C26 C7 1_555 1_555
C27 C26 1_555 1_555
C28 C27 1_555 1_555
C29 C28 1_555 1_555
C30 C25 1_555 1_555
O11 C28 1_555 1_555
O12 C35 1_555 1_555
C31 C8 1_555 1_555
C32 C25 1_555 1_555
C33 C32 1_555 1_555
C34 C33 1_555 1_555
C35 C34 1_555 1_555
C36 C31 1_555 1_555
O13 C34 1_555 1_555
Al2 O8 1_555 1_555
Al3 O4 1_555 1_555
Al4 O1 1_555 1_555
Al5 O2 1_555 1_555
Al6 O10 1_555 1_555
Al7 O10 1_555 1_555
Al8 O12 1_555 1_555
Al9 O12 1_555 1_555
O14 Al2 1_555 1_555
O15 Al3 1_555 1_555
O16 Al3 1_555 1_555
O17 Al2 1_555 1_555
O18 Al1 1_555 1_555
O19 Al3 1_555 1_555
O20 Al2 1_555 1_555
O21 Al2 1_555 1_555
O22 Al3 1_555 1_555
O3 Al5 1_555 1_555
C10 O5 1_555 1_555
C11 C12 1_555 1_555
C15 O6 1_555 1_555
C17 C18 1_555 1_555
C17 O7 1_555 1_555
C19 C22 1_555 1_555
C23 C24 1_555 1_555
O9 Al2 1_555 1_555
C29 C30 1_555 1_555
O11 Al6 1_555 1_555
C31 C32 1_555 1_555
C35 C36 1_555 1_555
O13 Al8 1_555 1_555
Al4 O18 1_555 1_555
Al4 O19 1_555 1_555
C2 H1 1_555 1_555
C33 H2 1_555 1_555
C18 H3 1_555 1_555
C6 H4 1_555 1_555
C9 H5 1_555 1_555
C12 H6 1_555 1_555
C36 H7 1_555 1_555
C24 H8 1_555 1_555
C30 H9 1_555 1_555
C14 H10 1_555 1_555
C27 H11 1_555 1_555
C20 H12 1_555 1_555
Al1_2 O1_2 1_555 1_555
O1_2 Al3_2 1_555 1_555
C1_2 C2_2 1_555 1_555
C2_2 C3_2 1_555 1_555
C3_2 C5_2 1_555 1_555
C4_2 C1_2 1_555 1_555
C5_2 C6_2 1_555 1_555
C6_2 C4_2 1_555 1_555
O2_2 C3_2 1_555 1_555
O3_2 C5_2 1_555 1_555
O4_2 Al1_2 1_555 1_555
C7_2 C8_2 1_555 1_555
C8_2 C9_2 1_555 1_555
C9_2 C10_2 1_555 1_555
C10_2 C11_2 1_555 1_555
C11_2 O4_2 1_555 1_555
C12_2 C7_2 1_555 1_555
O5_2 Al1_2 1_555 1_555
C13_2 C4_2 1_555 1_555
C14_2 C13_2 1_555 1_555
C15_2 C14_2 1_555 1_555
C16_2 C13_2 1_555 1_555
C17_2 C15_2 1_555 1_555
C18_2 C16_2 1_555 1_555
O6_2 Al1_2 1_555 1_555
O7_2 Al1_2 1_555 1_555
C19_2 C16_2 1_555 1_555
C20_2 C19_2 1_555 1_555
C21_2 C20_2 1_555 1_555
C22_2 C1_2 1_555 1_555
C23_2 C21_2 1_555 1_555
C24_2 C22_2 1_555 1_555
O8_2 C21_2 1_555 1_555
O9_2 C23_2 1_555 1_555
O10_2 C29_2 1_555 1_555
C25_2 C26_2 1_555 1_555
C26_2 C7_2 1_555 1_555
C27_2 C26_2 1_555 1_555
C28_2 C27_2 1_555 1_555
C29_2 C28_2 1_555 1_555
C30_2 C25_2 1_555 1_555
O11_2 C28_2 1_555 1_555
O12_2 C35_2 1_555 1_555
C31_2 C8_2 1_555 1_555
C32_2 C25_2 1_555 1_555
C33_2 C32_2 1_555 1_555
C34_2 C33_2 1_555 1_555
C35_2 C34_2 1_555 1_555
C36_2 C31_2 1_555 1_555
O13_2 C34_2 1_555 1_555
Al2_2 O8_2 1_555 1_555
Al3_2 O4_2 1_555 1_555
Al5 O1_2 1_555 1_555
Al4 O2_2 1_555 1_555
Al6_2 O10_2 1_555 1_555
Al7_2 O10_2 1_555 1_555
Al8_2 O12_2 1_555 1_555
Al9_2 O12_2 1_555 1_555
O14_2 Al2_2 1_555 1_555
O15_2 Al3_2 1_555 1_555
O16_2 Al3_2 1_555 1_555
O17_2 Al2_2 1_555 1_555
O18_2 Al1_2 1_555 1_555
O19_2 Al3_2 1_555 1_555
O20_2 Al2_2 1_555 1_555
O21_2 Al2_2 1_555 1_555
O22_2 Al3_2 1_555 1_555
O3_2 Al4 1_555 1_555
C10_2 O5_2 1_555 1_555
C11_2 C12_2 1_555 1_555
C15_2 O6_2 1_555 1_555
C17_2 C18_2 1_555 1_555
C17_2 O7_2 1_555 1_555
C19_2 C22_2 1_555 1_555
C23_2 C24_2 1_555 1_555
O9_2 Al2_2 1_555 1_555
C29_2 C30_2 1_555 1_555
O11_2 Al6_2 1_555 1_555
C31_2 C32_2 1_555 1_555
C35_2 C36_2 1_555 1_555
O13_2 Al8_2 1_555 1_555
Al5 O18_2 1_555 1_555
Al5 O19_2 1_555 1_555
C2_2 H1_2 1_555 1_555
C33_2 H2_2 1_555 1_555
C18_2 H3_2 1_555 1_555
C6_2 H4_2 1_555 1_555
C9_2 H5_2 1_555 1_555
C12_2 H6_2 1_555 1_555
C36_2 H7_2 1_555 1_555
C24_2 H8_2 1_555 1_555
C30_2 H9_2 1_555 1_555
C14_2 H10_2 1_555 1_555
C27_2 H11_2 1_555 1_555
C20_2 H12_2 1_555 1_555
O14_2 Al3_3 1_555 1_555
C7_3 C8_3 1_555 1_555
C8_3 C9_3 1_555 1_555
C9_3 C10_3 1_555 1_555
C10_3 C11_3 1_555 1_555
C11_3 O17_2 1_555 1_555
C12_3 C7_3 1_555 1_555
O10_3 C29_3 1_555 1_555
C25_3 C26_3 1_555 1_555
C26_3 C7_3 1_555 1_555
C27_3 C26_3 1_555 1_555
C28_3 C27_3 1_555 1_555
C29_3 C28_3 1_555 1_555
C30_3 C25_3 1_555 1_555
O11_3 C28_3 1_555 1_555
O12_3 C35_3 1_555 1_555
C31_3 C8_3 1_555 1_555
C32_3 C25_3 1_555 1_555
C33_3 C32_3 1_555 1_555
C34_3 C33_3 1_555 1_555
C35_3 C34_3 1_555 1_555
C36_3 C31_3 1_555 1_555
O13_3 C34_3 1_555 1_555
Al3_3 O17_2 1_555 1_555
Al4_2 O14_2 1_555 1_555
Al6_3 O10_3 1_555 1_555
Al7_3 O10_3 1_555 1_555
Al8_3 O12_3 1_555 1_555
Al9_3 O12_3 1_555 1_555
O15_3 Al3_3 1_555 1_555
O16_3 Al3_3 1_555 1_555
O19_3 Al3_3 1_555 1_555
O21_3 Al4 1_555 1_555
O22_3 Al3_3 1_555 1_555
C10_3 O21_2 1_555 1_555
C11_3 C12_3 1_555 1_555
C29_3 C30_3 1_555 1_555
O11_3 Al6_3 1_555 1_555
C31_3 C32_3 1_555 1_555
C35_3 C36_3 1_555 1_555
O13_3 Al8_3 1_555 1_555
Al4_2 O20_2 1_555 1_555
Al4_2 O19_3 1_555 1_555
C33_3 H2_3 1_555 1_555
C9_3 H5_3 1_555 1_555
C12_3 H6_3 1_555 1_555
C36_3 H7_3 1_555 1_555
C30_3 H9_3 1_555 1_555
C27_3 H11_3 1_555 1_555
O14 Al3_4 1_555 1_555
C7_4 C8_4 1_555 1_555
C8_4 C9_4 1_555 1_555
C9_4 C10_4 1_555 1_555
C10_4 C11_4 1_555 1_555
C11_4 O17 1_555 1_555
C12_4 C7_4 1_555 1_555
O10_4 C29_4 1_555 1_555
C25_4 C26_4 1_555 1_555
C26_4 C7_4 1_555 1_555
C27_4 C26_4 1_555 1_555
C28_4 C27_4 1_555 1_555
C29_4 C28_4 1_555 1_555
C30_4 C25_4 1_555 1_555
O11_4 C28_4 1_555 1_555
O12_4 C35_4 1_555 1_555
C31_4 C8_4 1_555 1_555
C32_4 C25_4 1_555 1_555
C33_4 C32_4 1_555 1_555
C34_4 C33_4 1_555 1_555
C35_4 C34_4 1_555 1_555
C36_4 C31_4 1_555 1_555
O13_4 C34_4 1_555 1_555
Al3_4 O17 1_555 1_555
Al4_3 O14 1_555 1_555
Al6_4 O10_4 1_555 1_555
Al7_4 O10_4 1_555 1_555
Al8_4 O12_4 1_555 1_555
Al9_4 O12_4 1_555 1_555
O15_4 Al3_4 1_555 1_555
O16_4 Al3_4 1_555 1_555
O19_4 Al3_4 1_555 1_555
O21_4 Al5 1_555 1_555
O22_4 Al3_4 1_555 1_555
C10_4 O21 1_555 1_555
C11_4 C12_4 1_555 1_555
C29_4 C30_4 1_555 1_555
O11_4 Al6_4 1_555 1_555
C31_4 C32_4 1_555 1_555
C35_4 C36_4 1_555 1_555
O13_4 Al8_4 1_555 1_555
Al4_3 O20 1_555 1_555
Al4_3 O19_4 1_555 1_555
C33_4 H2_4 1_555 1_555
C9_4 H5_4 1_555 1_555
C12_4 H6_4 1_555 1_555
C36_4 H7_4 1_555 1_555
C30_4 H9_4 1_555 1_555
C27_4 H11_4 1_555 1_555
C1_3 C2_3 1_555 1_555
C2_3 C3_3 1_555 1_555
C3_3 C5_3 1_555 1_555
C4_3 C1_3 1_555 1_555
C5_3 C6_3 1_555 1_555
C6_3 C4_3 1_555 1_555
O15_2 C3_3 1_555 1_555
O16_2 C5_3 1_555 1_555
C7_5 C8_5 1_555 1_555
C8_5 C9_5 1_555 1_555
C9_5 C10_5 1_555 1_555
C10_5 C11_5 1_555 1_555
C11_5 O19_4 1_555 1_555
C12_5 C7_5 1_555 1_555
C13_3 C4_3 1_555 1_555
C14_3 C13_3 1_555 1_555
C15_3 C14_3 1_555 1_555
C16_3 C13_3 1_555 1_555
C17_3 C15_3 1_555 1_555
C18_3 C16_3 1_555 1_555
C19_3 C16_3 1_555 1_555
C20_3 C19_3 1_555 1_555
C21_3 C20_3 1_555 1_555
C22_3 C1_3 1_555 1_555
C23_3 C21_3 1_555 1_555
C24_3 C22_3 1_555 1_555
O8_3 C21_3 1_555 1_555
O9_3 C23_3 1_555 1_555
O10_5 C29_5 1_555 1_555
C25_5 C26_5 1_555 1_555
C26_5 C7_5 1_555 1_555
C27_5 C26_5 1_555 1_555
C28_5 C27_5 1_555 1_555
C29_5 C28_5 1_555 1_555
C30_5 C25_5 1_555 1_555
O11_5 C28_5 1_555 1_555
O12_5 C35_5 1_555 1_555
C31_5 C8_5 1_555 1_555
C32_5 C25_5 1_555 1_555
C33_5 C32_5 1_555 1_555
C34_5 C33_5 1_555 1_555
C35_5 C34_5 1_555 1_555
C36_5 C31_5 1_555 1_555
O13_5 C34_5 1_555 1_555
Al4_2 O8_3 1_555 1_555
Al6_5 O10_5 1_555 1_555
Al7_5 O10_5 1_555 1_555
Al8_5 O12_5 1_555 1_555
Al6_4 O12_5 1_555 1_555
O15_5 Al4_3 1_555 1_555
O16_5 Al4_3 1_555 1_555
O21_5 Al4_2 1_555 1_555
O22_5 Al4_3 1_555 1_555
C10_5 O22_4 1_555 1_555
C11_5 C12_5 1_555 1_555
C15_3 O15_4 1_555 1_555
C17_3 C18_3 1_555 1_555
C17_3 O16_4 1_555 1_555
C19_3 C22_3 1_555 1_555
C23_3 C24_3 1_555 1_555
O9_3 Al4_2 1_555 1_555
C29_5 C30_5 1_555 1_555
O11_5 Al6_5 1_555 1_555
C31_5 C32_5 1_555 1_555
C35_5 C36_5 1_555 1_555
O13_5 Al8_5 1_555 1_555
C2_3 H1_3 1_555 1_555
C33_5 H2_5 1_555 1_555
C18_3 H3_3 1_555 1_555
C6_3 H4_3 1_555 1_555
C9_5 H5_5 1_555 1_555
C12_5 H6_5 1_555 1_555
C36_5 H7_5 1_555 1_555
C24_3 H8_3 1_555 1_555
C30_5 H9_5 1_555 1_555
C14_3 H10_3 1_555 1_555
C27_5 H11_5 1_555 1_555
C20_3 H12_3 1_555 1_555
C7_6 C8_6 1_555 1_555
C8_6 C9_6 1_555 1_555
C9_6 C10_6 1_555 1_555
C10_6 C11_6 1_555 1_555
C11_6 O19_2 1_555 1_555
C12_6 C7_6 1_555 1_555
O10_6 C29_6 1_555 1_555
C25_6 C26_6 1_555 1_555
C26_6 C7_6 1_555 1_555
C27_6 C26_6 1_555 1_555
C28_6 C27_6 1_555 1_555
C29_6 C28_6 1_555 1_555
C30_6 C25_6 1_555 1_555
O11_6 C28_6 1_555 1_555
O12_6 C35_6 1_555 1_555
C31_6 C8_6 1_555 1_555
C32_6 C25_6 1_555 1_555
C33_6 C32_6 1_555 1_555
C34_6 C33_6 1_555 1_555
C35_6 C34_6 1_555 1_555
C36_6 C31_6 1_555 1_555
O13_6 C34_6 1_555 1_555
Al6_6 O10_6 1_555 1_555
Al7_6 O10_6 1_555 1_555
Al8_6 O12_6 1_555 1_555
Al6_2 O12_6 1_555 1_555
C10_6 O22_2 1_555 1_555
C11_6 C12_6 1_555 1_555
C29_6 C30_6 1_555 1_555
O11_6 Al6_6 1_555 1_555
C31_6 C32_6 1_555 1_555
C35_6 C36_6 1_555 1_555
O13_6 Al8_6 1_555 1_555
C33_6 H2_6 1_555 1_555
C9_6 H5_6 1_555 1_555
C12_6 H6_6 1_555 1_555
C36_6 H7_6 1_555 1_555
C30_6 H9_6 1_555 1_555
C27_6 H11_6 1_555 1_555
C7_7 C8_7 1_555 1_555
C8_7 C9_7 1_555 1_555
C9_7 C10_7 1_555 1_555
C10_7 C11_7 1_555 1_555
C11_7 O18 1_555 1_555
C12_7 C7_7 1_555 1_555
O10_7 C29_7 1_555 1_555
C25_7 C26_7 1_555 1_555
C26_7 C7_7 1_555 1_555
C27_7 C26_7 1_555 1_555
C28_7 C27_7 1_555 1_555
C29_7 C28_7 1_555 1_555
C30_7 C25_7 1_555 1_555
O11_7 C28_7 1_555 1_555
O12_7 C35_7 1_555 1_555
C31_7 C8_7 1_555 1_555
C32_7 C25_7 1_555 1_555
C33_7 C32_7 1_555 1_555
C34_7 C33_7 1_555 1_555
C35_7 C34_7 1_555 1_555
C36_7 C31_7 1_555 1_555
O13_7 C34_7 1_555 1_555
Al9 O10_7 1_555 1_555
Al7_7 O10_7 1_555 1_555
Al8_7 O12_7 1_555 1_555
Al9_5 O12_7 1_555 1_555
C10_7 O21_3 1_555 1_555
C11_7 C12_7 1_555 1_555
C29_7 C30_7 1_555 1_555
O11_7 Al9 1_555 1_555
C31_7 C32_7 1_555 1_555
C35_7 C36_7 1_555 1_555
O13_7 Al8_7 1_555 1_555
C33_7 H2_7 1_555 1_555
C9_7 H5_7 1_555 1_555
C12_7 H6_7 1_555 1_555
C36_7 H7_7 1_555 1_555
C30_7 H9_7 1_555 1_555
C27_7 H11_7 1_555 1_555
C7_8 C8_8 1_555 1_555
C8_8 C9_8 1_555 1_555
C9_8 C10_8 1_555 1_555
C10_8 C11_8 1_555 1_555
C11_8 O18_2 1_555 1_555
C12_8 C7_8 1_555 1_555
O10_8 C29_8 1_555 1_555
C25_8 C26_8 1_555 1_555
C26_8 C7_8 1_555 1_555
C27_8 C26_8 1_555 1_555
C28_8 C27_8 1_555 1_555
C29_8 C28_8 1_555 1_555
C30_8 C25_8 1_555 1_555
O11_8 C28_8 1_555 1_555
O12_8 C35_8 1_555 1_555
C31_8 C8_8 1_555 1_555
C32_8 C25_8 1_555 1_555
C33_8 C32_8 1_555 1_555
C34_8 C33_8 1_555 1_555
C35_8 C34_8 1_555 1_555
C36_8 C31_8 1_555 1_555
O13_8 C34_8 1_555 1_555
Al9_2 O10_8 1_555 1_555
Al7_8 O10_8 1_555 1_555
Al8_8 O12_8 1_555 1_555
Al6_6 O12_8 1_555 1_555
C10_8 O21_4 1_555 1_555
C11_8 C12_8 1_555 1_555
C29_8 C30_8 1_555 1_555
O11_8 Al9_2 1_555 1_555
C31_8 C32_8 1_555 1_555
C35_8 C36_8 1_555 1_555
O13_8 Al8_8 1_555 1_555
C33_8 H2_8 1_555 1_555
C9_8 H5_8 1_555 1_555
C12_8 H6_8 1_555 1_555
C36_8 H7_8 1_555 1_555
C30_8 H9_8 1_555 1_555
C27_8 H11_8 1_555 1_555
C1_4 C2_4 1_555 1_555
C2_4 C3_4 1_555 1_555
C3_4 C5_4 1_555 1_555
C4_4 C1_4 1_555 1_555
C5_4 C6_4 1_555 1_555
C6_4 C4_4 1_555 1_555
O15 C3_4 1_555 1_555
O16 C5_4 1_555 1_555
C7_9 C8_9 1_555 1_555
C8_9 C9_9 1_555 1_555
C9_9 C10_9 1_555 1_555
C10_9 C11_9 1_555 1_555
C11_9 O19_3 1_555 1_555
C12_9 C7_9 1_555 1_555
C13_4 C4_4 1_555 1_555
C14_4 C13_4 1_555 1_555
C15_4 C14_4 1_555 1_555
C16_4 C13_4 1_555 1_555
C17_4 C15_4 1_555 1_555
C18_4 C16_4 1_555 1_555
C19_4 C16_4 1_555 1_555
C20_4 C19_4 1_555 1_555
C21_4 C20_4 1_555 1_555
C22_4 C1_4 1_555 1_555
C23_4 C21_4 1_555 1_555
C24_4 C22_4 1_555 1_555
O15_5 C21_4 1_555 1_555
O16_5 C23_4 1_555 1_555
O10_9 C29_9 1_555 1_555
C25_9 C26_9 1_555 1_555
C26_9 C7_9 1_555 1_555
C27_9 C26_9 1_555 1_555
C28_9 C27_9 1_555 1_555
C29_9 C28_9 1_555 1_555
C30_9 C25_9 1_555 1_555
O11_9 C28_9 1_555 1_555
O12_9 C35_9 1_555 1_555
C31_9 C8_9 1_555 1_555
C32_9 C25_9 1_555 1_555
C33_9 C32_9 1_555 1_555
C34_9 C33_9 1_555 1_555
C35_9 C34_9 1_555 1_555
C36_9 C31_9 1_555 1_555
O13_9 C34_9 1_555 1_555
Al6_7 O10_9 1_555 1_555
Al7_9 O10_9 1_555 1_555
Al8_9 O12_9 1_555 1_555
Al6_3 O12_9 1_555 1_555
C10_9 O22_3 1_555 1_555
C11_9 C12_9 1_555 1_555
C15_4 O15_3 1_555 1_555
C17_4 C18_4 1_555 1_555
C17_4 O16_3 1_555 1_555
C19_4 C22_4 1_555 1_555
C23_4 C24_4 1_555 1_555
C29_9 C30_9 1_555 1_555
O11_9 Al6_7 1_555 1_555
C31_9 C32_9 1_555 1_555
C35_9 C36_9 1_555 1_555
O13_9 Al8_9 1_555 1_555
C2_4 H1_4 1_555 1_555
C33_9 H2_9 1_555 1_555
C18_4 H3_4 1_555 1_555
C6_4 H4_4 1_555 1_555
C9_9 H5_9 1_555 1_555
C12_9 H6_9 1_555 1_555
C36_9 H7_9 1_555 1_555
C24_4 H8_4 1_555 1_555
C30_9 H9_9 1_555 1_555
C14_4 H10_4 1_555 1_555
C27_9 H11_9 1_555 1_555
C20_4 H12_4 1_555 1_555
C7_10 C8_10 1_555 1_555
C8_10 C9_10 1_555 1_555
C9_10 C10_10 1_555 1_555
C10_10 C11_10 1_555 1_555
C11_10 O19 1_555 1_555
C12_10 C7_10 1_555 1_555
O10_10 C29_10 1_555 1_555
C25_10 C26_10 1_555 1_555
C26_10 C7_10 1_555 1_555
C27_10 C26_10 1_555 1_555
C28_10 C27_10 1_555 1_555
C29_10 C28_10 1_555 1_555
C30_10 C25_10 1_555 1_555
O11_10 C28_10 1_555 1_555
O12_10 C35_10 1_555 1_555
C31_10 C8_10 1_555 1_555
C32_10 C25_10 1_555 1_555
C33_10 C32_10 1_555 1_555
C34_10 C33_10 1_555 1_555
C35_10 C34_10 1_555 1_555
C36_10 C31_10 1_555 1_555
O13_10 C34_10 1_555 1_555
Al9_5 O10_10 1_555 1_555
Al7_10 O10_10 1_555 1_555
Al8_10 O12_10 1_555 1_555
Al6 O12_10 1_555 1_555
C10_10 O22 1_555 1_555
C11_10 C12_10 1_555 1_555
C29_10 C30_10 1_555 1_555
O11_10 Al9_5 1_555 1_555
C31_10 C32_10 1_555 1_555
C35_10 C36_10 1_555 1_555
O13_10 Al8_10 1_555 1_555
C33_10 H2_10 1_555 1_555
C9_10 H5_10 1_555 1_555
C12_10 H6_10 1_555 1_555
C36_10 H7_10 1_555 1_555
C30_10 H9_10 1_555 1_555
C27_10 H11_10 1_555 1_555
C7_11 C8_11 1_555 1_555
C8_11 C9_11 1_555 1_555
C9_11 C10_11 1_555 1_555
C10_11 C11_11 1_555 1_555
C11_11 O20_2 1_555 1_555
C12_11 C7_11 1_555 1_555
O10_11 C29_11 1_555 1_555
C25_11 C26_11 1_555 1_555
C26_11 C7_11 1_555 1_555
C27_11 C26_11 1_555 1_555
C28_11 C27_11 1_555 1_555
C29_11 C28_11 1_555 1_555
C30_11 C25_11 1_555 1_555
O11_11 C28_11 1_555 1_555
O12_11 C35_11 1_555 1_555
C31_11 C8_11 1_555 1_555
C32_11 C25_11 1_555 1_555
C33_11 C32_11 1_555 1_555
C34_11 C33_11 1_555 1_555
C35_11 C34_11 1_555 1_555
C36_11 C31_11 1_555 1_555
O13_11 C34_11 1_555 1_555
Al9_3 O10_11 1_555 1_555
Al7_11 O10_11 1_555 1_555
Al8_11 O12_11 1_555 1_555
Al6_7 O12_11 1_555 1_555
C10_11 O21_5 1_555 1_555
C11_11 C12_11 1_555 1_555
C29_11 C30_11 1_555 1_555
O11_11 Al9_3 1_555 1_555
C31_11 C32_11 1_555 1_555
C35_11 C36_11 1_555 1_555
O13_11 Al8_11 1_555 1_555
C33_11 H2_11 1_555 1_555
C9_11 H5_11 1_555 1_555
C12_11 H6_11 1_555 1_555
C36_11 H7_11 1_555 1_555
C30_11 H9_11 1_555 1_555
C27_11 H11_11 1_555 1_555
C7_12 C8_12 1_555 1_555
C8_12 C9_12 1_555 1_555
C9_12 C10_12 1_555 1_555
C10_12 C11_12 1_555 1_555
C11_12 O20 1_555 1_555
C12_12 C7_12 1_555 1_555
O10_12 C29_12 1_555 1_555
C25_12 C26_12 1_555 1_555
C26_12 C7_12 1_555 1_555
C27_12 C26_12 1_555 1_555
C28_12 C27_12 1_555 1_555
C29_12 C28_12 1_555 1_555
C30_12 C25_12 1_555 1_555
O11_12 C28_12 1_555 1_555
O12_12 C35_12 1_555 1_555
C31_12 C8_12 1_555 1_555
C32_12 C25_12 1_555 1_555
C33_12 C32_12 1_555 1_555
C34_12 C33_12 1_555 1_555
C35_12 C34_12 1_555 1_555
C36_12 C31_12 1_555 1_555
O13_12 C34_12 1_555 1_555
Al9_4 O10_12 1_555 1_555
Al7_12 O10_12 1_555 1_555
Al8_12 O12_12 1_555 1_555
Al6_5 O12_12 1_555 1_555
C10_12 O22_5 1_555 1_555
C11_12 C12_12 1_555 1_555
C29_12 C30_12 1_555 1_555
O11_12 Al9_4 1_555 1_555
C31_12 C32_12 1_555 1_555
C35_12 C36_12 1_555 1_555
O13_12 Al8_12 1_555 1_555
C33_12 H2_12 1_555 1_555
C9_12 H5_12 1_555 1_555
C12_12 H6_12 1_555 1_555
C36_12 H7_12 1_555 1_555
C30_12 H9_12 1_555 1_555
C27_12 H11_12 1_555 1_555
Al7_4 O1_3 1_555 1_555
O1_3 Al8_5 1_555 1_555
O4_3 Al7_4 1_555 1_555
C7_13 C8_13 1_555 1_555
C8_13 C9_13 1_555 1_555
C9_13 C10_13 1_555 1_555
C10_13 C11_13 1_555 1_555
C11_13 O4_3 1_555 1_555
C12_13 C7_13 1_555 1_555
O5_3 Al7_4 1_555 1_555
C17_5 C15_5 1_555 1_555
O6_3 Al7_4 1_555 1_555
O7_3 Al7_4 1_555 1_555
O10_13 C29_13 1_555 1_555
C25_13 C26_13 1_555 1_555
C26_13 C7_13 1_555 1_555
C27_13 C26_13 1_555 1_555
C28_13 C27_13 1_555 1_555
C29_13 C28_13 1_555 1_555
C30_13 C25_13 1_555 1_555
O11_13 C28_13 1_555 1_555
O12_13 C35_13 1_555 1_555
C31_13 C8_13 1_555 1_555
C32_13 C25_13 1_555 1_555
C33_13 C32_13 1_555 1_555
C34_13 C33_13 1_555 1_555
C35_13 C34_13 1_555 1_555
C36_13 C31_13 1_555 1_555
O13_13 C34_13 1_555 1_555
Al8_5 O4_3 1_555 1_555
Al6_4 O1_3 1_555 1_555
Al7_5 O10_13 1_555 1_555
Al8_12 O10_13 1_555 1_555
Al7_12 O12_13 1_555 1_555
Al8_4 O12_13 1_555 1_555
O15_6 Al8_5 1_555 1_555
O16_6 Al8_5 1_555 1_555
C10_13 O5_3 1_555 1_555
C11_13 C12_13 1_555 1_555
C15_5 O6_3 1_555 1_555
C17_5 O7_3 1_555 1_555
C29_13 C30_13 1_555 1_555
O11_13 Al7_5 1_555 1_555
C31_13 C32_13 1_555 1_555
C35_13 C36_13 1_555 1_555
O13_13 Al7_12 1_555 1_555
C33_13 H2_13 1_555 1_555
C9_13 H5_13 1_555 1_555
C12_13 H6_13 1_555 1_555
C36_13 H7_13 1_555 1_555
C30_13 H9_13 1_555 1_555
C27_13 H11_13 1_555 1_555
C1_5 C2_5 1_555 1_555
C2_5 C3_5 1_555 1_555
C3_5 C5_5 1_555 1_555
C4_5 C1_5 1_555 1_555
C5_5 C6_5 1_555 1_555
C6_5 C4_5 1_555 1_555
O2_3 C3_5 1_555 1_555
O3_3 C5_5 1_555 1_555
C13_5 C4_5 1_555 1_555
C14_5 C13_5 1_555 1_555
C16_5 C13_5 1_555 1_555
C18_5 C16_5 1_555 1_555
C19_5 C16_5 1_555 1_555
C20_5 C19_5 1_555 1_555
C22_5 C1_5 1_555 1_555
C24_5 C22_5 1_555 1_555
Al6_3 O2_3 1_555 1_555
O3_3 Al6_3 1_555 1_555
C19_5 C22_5 1_555 1_555
C2_5 H1_5 1_555 1_555
C18_5 H3_5 1_555 1_555
C6_5 H4_5 1_555 1_555
C24_5 H8_5 1_555 1_555
C14_5 H10_5 1_555 1_555
C20_5 H12_5 1_555 1_555
C23_5 C21_5 1_555 1_555
O8_4 C21_5 1_555 1_555
O9_4 C23_5 1_555 1_555
Al8_7 O8_4 1_555 1_555
O14_3 Al8_7 1_555 1_555
O20_3 Al8_7 1_555 1_555
O9_4 Al8_7 1_555 1_555
C1_6 C2_6 1_555 1_555
C2_6 C3_6 1_555 1_555
C3_6 C5_6 1_555 1_555
C4_6 C1_6 1_555 1_555
C5_6 C6_6 1_555 1_555
C6_6 C4_6 1_555 1_555
O2_4 C3_6 1_555 1_555
O3_4 C5_6 1_555 1_555
C13_6 C4_6 1_555 1_555
C14_6 C13_6 1_555 1_555
C16_6 C13_6 1_555 1_555
C18_6 C16_6 1_555 1_555
C19_6 C16_6 1_555 1_555
C20_6 C19_6 1_555 1_555
C22_6 C1_6 1_555 1_555
C24_6 C22_6 1_555 1_555
Al6_4 O2_4 1_555 1_555
O3_4 Al6_4 1_555 1_555
C19_6 C22_6 1_555 1_555
C2_6 H1_6 1_555 1_555
C18_6 H3_6 1_555 1_555
C6_6 H4_6 1_555 1_555
C24_6 H8_6 1_555 1_555
C14_6 H10_6 1_555 1_555
C20_6 H12_6 1_555 1_555
Al7_3 O1_4 1_555 1_555
O1_4 Al8_9 1_555 1_555
O4_4 Al7_3 1_555 1_555
C7_14 C8_14 1_555 1_555
C8_14 C9_14 1_555 1_555
C9_14 C10_14 1_555 1_555
C10_14 C11_14 1_555 1_555
C11_14 O4_4 1_555 1_555
C12_14 C7_14 1_555 1_555
O5_4 Al7_3 1_555 1_555
C17_6 C15_6 1_555 1_555
O6_4 Al7_3 1_555 1_555
O7_4 Al7_3 1_555 1_555
O10_14 C29_14 1_555 1_555
C25_14 C26_14 1_555 1_555
C26_14 C7_14 1_555 1_555
C27_14 C26_14 1_555 1_555
C28_14 C27_14 1_555 1_555
C29_14 C28_14 1_555 1_555
C30_14 C25_14 1_555 1_555
O11_14 C28_14 1_555 1_555
O12_14 C35_14 1_555 1_555
C31_14 C8_14 1_555 1_555
C32_14 C25_14 1_555 1_555
C33_14 C32_14 1_555 1_555
C34_14 C33_14 1_555 1_555
C35_14 C34_14 1_555 1_555
C36_14 C31_14 1_555 1_555
O13_14 C34_14 1_555 1_555
Al8_9 O4_4 1_555 1_555
Al6_3 O1_4 1_555 1_555
Al7_9 O10_14 1_555 1_555
Al8_11 O10_14 1_555 1_555
Al7_11 O12_14 1_555 1_555
Al8_3 O12_14 1_555 1_555
O15_7 Al8_9 1_555 1_555
O16_7 Al8_9 1_555 1_555
C10_14 O5_4 1_555 1_555
C11_14 C12_14 1_555 1_555
C15_6 O6_4 1_555 1_555
C17_6 O7_4 1_555 1_555
C29_14 C30_14 1_555 1_555
O11_14 Al7_9 1_555 1_555
C31_14 C32_14 1_555 1_555
C35_14 C36_14 1_555 1_555
O13_14 Al7_11 1_555 1_555
C33_14 H2_14 1_555 1_555
C9_14 H5_14 1_555 1_555
C12_14 H6_14 1_555 1_555
C36_14 H7_14 1_555 1_555
C30_14 H9_14 1_555 1_555
C27_14 H11_14 1_555 1_555
C23_6 C21_6 1_555 1_555
O8_5 C21_6 1_555 1_555
O9_5 C23_6 1_555 1_555
Al8_8 O8_5 1_555 1_555
O14_4 Al8_8 1_555 1_555
O20_4 Al8_8 1_555 1_555
O9_5 Al8_8 1_555 1_555
O14_4 Al6_6 1_555 1_555
Al7_6 O14_4 1_555 1_555
O15_8 Al6_6 1_555 1_555
O16_8 Al6_6 1_555 1_555
Al7_6 O20_4 1_555 1_555
O14_3 Al9_5 1_555 1_555
Al7_10 O14_3 1_555 1_555
O15_9 Al9_5 1_555 1_555
O16_9 Al9_5 1_555 1_555
Al7_10 O20_3 1_555 1_555
C3_7 C5_7 1_555 1_555
O15_7 C3_7 1_555 1_555
O16_7 C5_7 1_555 1_555
C23_7 C21_7 1_555 1_555
O8_6 C21_7 1_555 1_555
O9_6 C23_7 1_555 1_555
Al7_6 O8_6 1_555 1_555
O21_6 Al7_6 1_555 1_555
O9_6 Al7_6 1_555 1_555
C1_7 C2_7 1_555 1_555
C4_7 C1_7 1_555 1_555
C6_7 C4_7 1_555 1_555
C13_7 C4_7 1_555 1_555
C14_7 C13_7 1_555 1_555
C15_7 C14_7 1_555 1_555
C16_7 C13_7 1_555 1_555
C17_7 C15_7 1_555 1_555
C18_7 C16_7 1_555 1_555
C19_7 C16_7 1_555 1_555
C20_7 C19_7 1_555 1_555
C22_7 C1_7 1_555 1_555
C24_7 C22_7 1_555 1_555
O15_10 Al7_10 1_555 1_555
O16_10 Al7_10 1_555 1_555
O22_6 Al7_10 1_555 1_555
C15_7 O15_9 1_555 1_555
C17_7 C18_7 1_555 1_555
C17_7 O16_9 1_555 1_555
C19_7 C22_7 1_555 1_555
C2_7 H1_7 1_555 1_555
C18_7 H3_7 1_555 1_555
C6_7 H4_7 1_555 1_555
C24_7 H8_7 1_555 1_555
C14_7 H10_7 1_555 1_555
C20_7 H12_7 1_555 1_555
C3_8 C5_8 1_555 1_555
O15_6 C3_8 1_555 1_555
O16_6 C5_8 1_555 1_555
C1_8 C2_8 1_555 1_555
C4_8 C1_8 1_555 1_555
C6_8 C4_8 1_555 1_555
C13_8 C4_8 1_555 1_555
C14_8 C13_8 1_555 1_555
C15_8 C14_8 1_555 1_555
C16_8 C13_8 1_555 1_555
C17_8 C15_8 1_555 1_555
C18_8 C16_8 1_555 1_555
C19_8 C16_8 1_555 1_555
C20_8 C19_8 1_555 1_555
C22_8 C1_8 1_555 1_555
C24_8 C22_8 1_555 1_555
C15_8 O15_8 1_555 1_555
C17_8 C18_8 1_555 1_555
C17_8 O16_8 1_555 1_555
C19_8 C22_8 1_555 1_555
C2_8 H1_8 1_555 1_555
C18_8 H3_8 1_555 1_555
C6_8 H4_8 1_555 1_555
C24_8 H8_8 1_555 1_555
C14_8 H10_8 1_555 1_555
C20_8 H12_8 1_555 1_555
C23_8 C21_8 1_555 1_555
O15_10 C21_8 1_555 1_555
O16_10 C23_8 1_555 1_555
C7_15 C8_15 1_555 1_555
C8_15 C9_15 1_555 1_555
C9_15 C10_15 1_555 1_555
C10_15 C11_15 1_555 1_555
C11_15 O20_4 1_555 1_555
C12_15 C7_15 1_555 1_555
O10_15 C29_15 1_555 1_555
C25_15 C26_15 1_555 1_555
C26_15 C7_15 1_555 1_555
C27_15 C26_15 1_555 1_555
C28_15 C27_15 1_555 1_555
C29_15 C28_15 1_555 1_555
C30_15 C25_15 1_555 1_555
O11_15 C28_15 1_555 1_555
O12_15 C35_15 1_555 1_555
C31_15 C8_15 1_555 1_555
C32_15 C25_15 1_555 1_555
C33_15 C32_15 1_555 1_555
C34_15 C33_15 1_555 1_555
C35_15 C34_15 1_555 1_555
C36_15 C31_15 1_555 1_555
O13_15 C34_15 1_555 1_555
Al7_8 O10_15 1_555 1_555
Al8_2 O10_15 1_555 1_555
Al7_2 O12_15 1_555 1_555
Al8_6 O12_15 1_555 1_555
C10_15 O21_6 1_555 1_555
C11_15 C12_15 1_555 1_555
C29_15 C30_15 1_555 1_555
O11_15 Al7_8 1_555 1_555
C31_15 C32_15 1_555 1_555
C35_15 C36_15 1_555 1_555
O13_15 Al7_2 1_555 1_555
C33_15 H2_15 1_555 1_555
C9_15 H5_15 1_555 1_555
C12_15 H6_15 1_555 1_555
C36_15 H7_15 1_555 1_555
C30_15 H9_15 1_555 1_555
C27_15 H11_15 1_555 1_555
C7_16 C8_16 1_555 1_555
C8_16 C9_16 1_555 1_555
C9_16 C10_16 1_555 1_555
C10_16 C11_16 1_555 1_555
C11_16 O20_3 1_555 1_555
C12_16 C7_16 1_555 1_555
O10_16 C29_16 1_555 1_555
C25_16 C26_16 1_555 1_555
C26_16 C7_16 1_555 1_555
C27_16 C26_16 1_555 1_555
C28_16 C27_16 1_555 1_555
C29_16 C28_16 1_555 1_555
C30_16 C25_16 1_555 1_555
O11_16 C28_16 1_555 1_555
O12_16 C35_16 1_555 1_555
C31_16 C8_16 1_555 1_555
C32_16 C25_16 1_555 1_555
C33_16 C32_16 1_555 1_555
C34_16 C33_16 1_555 1_555
C35_16 C34_16 1_555 1_555
C36_16 C31_16 1_555 1_555
O13_16 C34_16 1_555 1_555
Al7_7 O10_16 1_555 1_555
Al8 O10_16 1_555 1_555
Al7 O12_16 1_555 1_555
Al8_10 O12_16 1_555 1_555
C10_16 O22_6 1_555 1_555
C11_16 C12_16 1_555 1_555
C29_16 C30_16 1_555 1_555
O11_16 Al7_7 1_555 1_555
C31_16 C32_16 1_555 1_555
C35_16 C36_16 1_555 1_555
O13_16 Al7 1_555 1_555
C33_16 H2_16 1_555 1_555
C9_16 H5_16 1_555 1_555
C12_16 H6_16 1_555 1_555
C36_16 H7_16 1_555 1_555
C30_16 H9_16 1_555 1_555
C27_16 H11_16 1_555 1_555
Al8_6 O1_5 1_555 1_555
O1_5 Al6_2 1_555 1_555
C17_9 C15_9 1_555 1_555
O6_5 Al8_6 1_555 1_555
O7_5 Al8_6 1_555 1_555
Al7_2 O1_5 1_555 1_555
O15_11 Al6_2 1_555 1_555
O16_11 Al6_2 1_555 1_555
C15_9 O6_5 1_555 1_555
C17_9 O7_5 1_555 1_555
C1_9 C2_9 1_555 1_555
C4_9 C1_9 1_555 1_555
C6_9 C4_9 1_555 1_555
C13_9 C4_9 1_555 1_555
C14_9 C13_9 1_555 1_555
C16_9 C13_9 1_555 1_555
C18_9 C16_9 1_555 1_555
C19_9 C16_9 1_555 1_555
C20_9 C19_9 1_555 1_555
C21_9 C20_9 1_555 1_555
C22_9 C1_9 1_555 1_555
C23_9 C21_9 1_555 1_555
C24_9 C22_9 1_555 1_555
O8_7 C21_9 1_555 1_555
O9_7 C23_9 1_555 1_555
Al9_3 O8_7 1_555 1_555
O14_5 Al9_3 1_555 1_555
C19_9 C22_9 1_555 1_555
C23_9 C24_9 1_555 1_555
O9_7 Al9_3 1_555 1_555
C2_9 H1_9 1_555 1_555
C18_9 H3_9 1_555 1_555
C6_9 H4_9 1_555 1_555
C24_9 H8_9 1_555 1_555
C14_9 H10_9 1_555 1_555
C20_9 H12_9 1_555 1_555
C3_9 C5_9 1_555 1_555
O2_5 C3_9 1_555 1_555
O3_5 C5_9 1_555 1_555
Al7 O2_5 1_555 1_555
O3_5 Al7 1_555 1_555
C3_10 C5_10 1_555 1_555
O2_6 C3_10 1_555 1_555
O3_6 C5_10 1_555 1_555
Al7_2 O2_6 1_555 1_555
O3_6 Al7_2 1_555 1_555
C1_10 C2_10 1_555 1_555
C4_10 C1_10 1_555 1_555
C6_10 C4_10 1_555 1_555
C13_10 C4_10 1_555 1_555
C14_10 C13_10 1_555 1_555
C16_10 C13_10 1_555 1_555
C18_10 C16_10 1_555 1_555
C19_10 C16_10 1_555 1_555
C20_10 C19_10 1_555 1_555
C21_10 C20_10 1_555 1_555
C22_10 C1_10 1_555 1_555
C23_10 C21_10 1_555 1_555
C24_10 C22_10 1_555 1_555
O8_8 C21_10 1_555 1_555
O9_8 C23_10 1_555 1_555
Al9_4 O8_8 1_555 1_555
O14_6 Al9_4 1_555 1_555
C19_10 C22_10 1_555 1_555
C23_10 C24_10 1_555 1_555
O9_8 Al9_4 1_555 1_555
C2_10 H1_10 1_555 1_555
C18_10 H3_10 1_555 1_555
C6_10 H4_10 1_555 1_555
C24_10 H8_10 1_555 1_555
C14_10 H10_10 1_555 1_555
C20_10 H12_10 1_555 1_555
Al8_10 O1_6 1_555 1_555
O1_6 Al6 1_555 1_555
C17_10 C15_10 1_555 1_555
O6_6 Al8_10 1_555 1_555
O7_6 Al8_10 1_555 1_555
Al7 O1_6 1_555 1_555
O15_12 Al6 1_555 1_555
O16_12 Al6 1_555 1_555
C15_10 O6_6 1_555 1_555
C17_10 O7_6 1_555 1_555
O14_6 Al7_12 1_555 1_555
Al8_4 O14_6 1_555 1_555
O15_13 Al7_12 1_555 1_555
O16_13 Al7_12 1_555 1_555
O14_5 Al7_11 1_555 1_555
Al8_3 O14_5 1_555 1_555
O15_14 Al7_11 1_555 1_555
O16_14 Al7_11 1_555 1_555
C17_11 C15_11 1_555 1_555
O15_15 Al8_3 1_555 1_555
O16_15 Al8_3 1_555 1_555
C15_11 O15_14 1_555 1_555
C17_11 O16_14 1_555 1_555
C23_11 C21_11 1_555 1_555
O8_9 C21_11 1_555 1_555
O9_9 C23_11 1_555 1_555
Al8_4 O8_9 1_555 1_555
O9_9 Al8_4 1_555 1_555
C1_11 C2_11 1_555 1_555
C2_11 C3_11 1_555 1_555
C3_11 C5_11 1_555 1_555
C4_11 C1_11 1_555 1_555
C5_11 C6_11 1_555 1_555
C6_11 C4_11 1_555 1_555
O15_12 C3_11 1_555 1_555
O16_12 C5_11 1_555 1_555
C13_11 C4_11 1_555 1_555
C14_11 C13_11 1_555 1_555
C16_11 C13_11 1_555 1_555
C18_11 C16_11 1_555 1_555
C19_11 C16_11 1_555 1_555
C20_11 C19_11 1_555 1_555
C22_11 C1_11 1_555 1_555
C24_11 C22_11 1_555 1_555
C19_11 C22_11 1_555 1_555
C2_11 H1_11 1_555 1_555
C18_11 H3_11 1_555 1_555
C6_11 H4_11 1_555 1_555
C24_11 H8_11 1_555 1_555
C14_11 H10_11 1_555 1_555
C20_11 H12_11 1_555 1_555
C1_12 C2_12 1_555 1_555
C2_12 C3_12 1_555 1_555
C3_12 C5_12 1_555 1_555
C4_12 C1_12 1_555 1_555
C5_12 C6_12 1_555 1_555
C6_12 C4_12 1_555 1_555
O15_11 C3_12 1_555 1_555
O16_11 C5_12 1_555 1_555
C13_12 C4_12 1_555 1_555
C14_12 C13_12 1_555 1_555
C16_12 C13_12 1_555 1_555
C18_12 C16_12 1_555 1_555
C19_12 C16_12 1_555 1_555
C20_12 C19_12 1_555 1_555
C22_12 C1_12 1_555 1_555
C24_12 C22_12 1_555 1_555
C19_12 C22_12 1_555 1_555
C2_12 H1_12 1_555 1_555
C18_12 H3_12 1_555 1_555
C6_12 H4_12 1_555 1_555
C24_12 H8_12 1_555 1_555
C14_12 H10_12 1_555 1_555
C20_12 H12_12 1_555 1_555
C23_12 C21_12 1_555 1_555
O15_15 C21_12 1_555 1_555
O16_15 C23_12 1_555 1_555
C17_12 C15_12 1_555 1_555
C15_12 O15_13 1_555 1_555
C17_12 O16_13 1_555 1_555
Al6_7 O1_7 1_555 1_555
O1_7 Al7_9 1_555 1_555
C1_13 C2_13 1_555 1_555
C4_13 C1_13 1_555 1_555
C6_13 C4_13 1_555 1_555
C13_13 C4_13 1_555 1_555
C14_13 C13_13 1_555 1_555
C15_13 C14_13 1_555 1_555
C16_13 C13_13 1_555 1_555
C17_13 C15_13 1_555 1_555
C18_13 C16_13 1_555 1_555
O6_7 Al6_7 1_555 1_555
O7_7 Al6_7 1_555 1_555
C19_13 C16_13 1_555 1_555
C20_13 C19_13 1_555 1_555
C22_13 C1_13 1_555 1_555
C24_13 C22_13 1_555 1_555
Al8_11 O1_7 1_555 1_555
O15_16 Al7_9 1_555 1_555
O16_16 Al7_9 1_555 1_555
C15_13 O6_7 1_555 1_555
C17_13 C18_13 1_555 1_555
C17_13 O7_7 1_555 1_555
C19_13 C22_13 1_555 1_555
C2_13 H1_13 1_555 1_555
C18_13 H3_13 1_555 1_555
C6_13 H4_13 1_555 1_555
C24_13 H8_13 1_555 1_555
C14_13 H10_13 1_555 1_555
C20_13 H12_13 1_555 1_555
C23_13 C21_13 1_555 1_555
O8_10 C21_13 1_555 1_555
O9_10 C23_13 1_555 1_555
Al7_8 O8_10 1_555 1_555
O14_7 Al7_8 1_555 1_555
O9_10 Al7_8 1_555 1_555
C3_13 C5_13 1_555 1_555
O2_7 C3_13 1_555 1_555
O3_7 C5_13 1_555 1_555
Al8_12 O2_7 1_555 1_555
O3_7 Al8_12 1_555 1_555
C3_14 C5_14 1_555 1_555
O2_8 C3_14 1_555 1_555
O3_8 C5_14 1_555 1_555
Al8_11 O2_8 1_555 1_555
O3_8 Al8_11 1_555 1_555
Al6_5 O1_8 1_555 1_555
O1_8 Al7_5 1_555 1_555
C1_14 C2_14 1_555 1_555
C4_14 C1_14 1_555 1_555
C6_14 C4_14 1_555 1_555
C13_14 C4_14 1_555 1_555
C14_14 C13_14 1_555 1_555
C15_14 C14_14 1_555 1_555
C16_14 C13_14 1_555 1_555
C17_14 C15_14 1_555 1_555
C18_14 C16_14 1_555 1_555
O6_8 Al6_5 1_555 1_555
O7_8 Al6_5 1_555 1_555
C19_14 C16_14 1_555 1_555
C20_14 C19_14 1_555 1_555
C22_14 C1_14 1_555 1_555
C24_14 C22_14 1_555 1_555
Al8_12 O1_8 1_555 1_555
O15_17 Al7_5 1_555 1_555
O16_17 Al7_5 1_555 1_555
C15_14 O6_8 1_555 1_555
C17_14 C18_14 1_555 1_555
C17_14 O7_8 1_555 1_555
C19_14 C22_14 1_555 1_555
C2_14 H1_14 1_555 1_555
C18_14 H3_14 1_555 1_555
C6_14 H4_14 1_555 1_555
C24_14 H8_14 1_555 1_555
C14_14 H10_14 1_555 1_555
C20_14 H12_14 1_555 1_555
C23_14 C21_14 1_555 1_555
O8_11 C21_14 1_555 1_555
O9_11 C23_14 1_555 1_555
Al7_7 O8_11 1_555 1_555
O14_8 Al7_7 1_555 1_555
O9_11 Al7_7 1_555 1_555
O14_8 Al8 1_555 1_555
Al9 O14_8 1_555 1_555
O15_18 Al8 1_555 1_555
O16_18 Al8 1_555 1_555
O14_7 Al8_2 1_555 1_555
Al9_2 O14_7 1_555 1_555
O15_19 Al8_2 1_555 1_555
O16_19 Al8_2 1_555 1_555
C17_15 C15_15 1_555 1_555
O15_20 Al9_2 1_555 1_555
O16_20 Al9_2 1_555 1_555
C15_15 O15_19 1_555 1_555
C17_15 O16_19 1_555 1_555
C3_15 C5_15 1_555 1_555
O15_17 C3_15 1_555 1_555
O16_17 C5_15 1_555 1_555
C1_15 C2_15 1_555 1_555
C4_15 C1_15 1_555 1_555
C6_15 C4_15 1_555 1_555
C13_15 C4_15 1_555 1_555
C14_15 C13_15 1_555 1_555
C16_15 C13_15 1_555 1_555
C18_15 C16_15 1_555 1_555
C19_15 C16_15 1_555 1_555
C20_15 C19_15 1_555 1_555
C21_15 C20_15 1_555 1_555
C22_15 C1_15 1_555 1_555
C23_15 C21_15 1_555 1_555
C24_15 C22_15 1_555 1_555
O8_12 C21_15 1_555 1_555
O9_12 C23_15 1_555 1_555
Al9 O8_12 1_555 1_555
C19_15 C22_15 1_555 1_555
C23_15 C24_15 1_555 1_555
O9_12 Al9 1_555 1_555
C2_15 H1_15 1_555 1_555
C18_15 H3_15 1_555 1_555
C6_15 H4_15 1_555 1_555
C24_15 H8_15 1_555 1_555
C14_15 H10_15 1_555 1_555
C20_15 H12_15 1_555 1_555
C3_16 C5_16 1_555 1_555
O15_16 C3_16 1_555 1_555
O16_16 C5_16 1_555 1_555
C1_16 C2_16 1_555 1_555
C4_16 C1_16 1_555 1_555
C6_16 C4_16 1_555 1_555
C13_16 C4_16 1_555 1_555
C14_16 C13_16 1_555 1_555
C16_16 C13_16 1_555 1_555
C18_16 C16_16 1_555 1_555
C19_16 C16_16 1_555 1_555
C20_16 C19_16 1_555 1_555
C21_16 C20_16 1_555 1_555
C22_16 C1_16 1_555 1_555
C23_16 C21_16 1_555 1_555
C24_16 C22_16 1_555 1_555
O15_20 C21_16 1_555 1_555
O16_20 C23_16 1_555 1_555
C19_16 C22_16 1_555 1_555
C23_16 C24_16 1_555 1_555
C2_16 H1_16 1_555 1_555
C18_16 H3_16 1_555 1_555
C6_16 H4_16 1_555 1_555
C24_16 H8_16 1_555 1_555
C14_16 H10_16 1_555 1_555
C20_16 H12_16 1_555 1_555
C17_16 C15_16 1_555 1_555
C15_16 O15_18 1_555 1_555
C17_16 O16_18 1_555 1_555

#END
