
###############################################################################
#
# This file contains modified crystal structure data generated from the
# MOF subset of the Cambridge Structural Database (CSD) v543 
# hosted by the Cambridge Crystallographic Data Centre (CCDC).
#
# This work is licensed under the Creative Commons
# Attribution-NonCommercial-ShareAlike 4.0 International License.
# To view a copy of this license, visit
# http://creativecommons.org/licenses/by-nc-sa/4.0/
# or send a letter to
# Creative Commons, PO Box 1866, Mountain View, CA 94042, USA.
#
# CIF created using the CSD Python API on 29 September 2022
# The structure has been converted into the P1 space group
# The structure has a 3D framework
# The original CSD entry GUGJEZ is in the rhombohedral crystal system
# The framework has been calculated to contain at least 10.0% void space
# The void calculation uses a probe of radius 1.32A, grid spacing 0.4
# H atom positions have been added when not included in the experimental data
#
###############################################################################

data_GUGJEZ
_chemical_formula_moiety         '(C1008 H576 N72 O346 Zn100)n'
_symmetry_cell_setting           triclinic
_symmetry_space_group_name_H-M   'P 1'
_symmetry_Int_Tables_number      1
_space_group_name_Hall           'P 1'
loop_
_symmetry_equiv_pos_site_id
_symmetry_equiv_pos_as_xyz
1 x,y,z
_cell_length_a                   51.070(5)
_cell_length_b                   51.070(5)
_cell_length_c                   29.743(5)
_cell_angle_alpha                90
_cell_angle_beta                 90
_cell_angle_gamma                120
_cell_volume                     67181.1
loop_
_atom_site_label
_atom_site_type_symbol
_atom_site_fract_x
_atom_site_fract_y
_atom_site_fract_z
C16 C 0.5740(7) 0.0117(9) 0.1406(14)
H7 H 0.5611 0.0126 0.1194
C19 C 0.6127(7) 0.0093(9) 0.2041(12)
C20 C 0.5988(10) 0.0262(8) 0.2126(11)
C21 C 0.5794(9) 0.0274(8) 0.1809(18)
H9 H 0.5701 0.0388 0.1866
C22 C 0.6501(10) 0.0018(7) 0.2544(16)
C23 C 0.6329(9) 0.0146(11) 0.2413(11)
C24 C 0.6297(10) 0.0343(11) 0.270(2)
C25 C 0.6437(12) 0.0411(9) 0.3119(18)
H11 H 0.6415 0.0543 0.3311
C26 C 0.6609(10) 0.0283(11) 0.3249(10)
H12 H 0.6703 0.0328 0.3529
C27 C 0.6641(8) 0.0086(10) 0.2962(19)
O13 O 0.7018(10) 0.0047(9) 0.3481(13)
N2 N 0.6135(13) 0.0437(14) 0.248(2)
H26 H 0.6126 0.0595 0.2550
C1 C 0.5800(15) 0.8858(18) 0.049(2)
C2 C 0.5671(11) 0.8292(14) 0.0660(16)
H1 H 0.5537 0.8218 0.0419
C3 C 0.5701(12) 0.8062(13) 0.0886(18)
H2 H 0.5582 0.7858 0.0814
C4 C 0.5923(12) 0.8163(12) 0.1225(18)
C5 C 0.6073(9) 0.8484(10) 0.1364(13)
C6 C 0.5997(9) 0.867(1) 0.1089(14)
H3 H 0.6103 0.8872 0.1173
C7 C 0.5802(11) 0.8616(13) 0.0723(17)
C8 C 0.6250(6) 0.8507(9) 0.1751(8)
C9 C 0.6201(6) 0.8219(7) 0.1846(10)
C10 C 0.6350(7) 0.8176(6) 0.2205(12)
H4 H 0.6318 0.7984 0.2269
C11 C 0.6546(6) 0.8421(9) 0.2470(8)
H5 H 0.6646 0.8392 0.2710
C12 C 0.6595(5) 0.8708(7) 0.2375(10)
C13 C 0.6446(7) 0.8751(6) 0.2016(11)
H6 H 0.6478 0.8943 0.1952
C14 C 0.6807(11) 0.8981(17) 0.268(2)
C15 C 0.5780(12) 0.9772(10) 0.0901(12)
C17 C 0.5880(9) 0.9948(7) 0.1321(10)
C18 C 0.6073(7) 0.9936(7) 0.1638(16)
H8 H 0.6166 0.9823 0.1581
H10 H 0.6522 0.9886 0.2351
C28 C 0.6841(13) 0.9987(17) 0.317(2)
C43 C 0.4900(12) 0.8969(15) 0.0262(16)
C44 C 0.4371(14) 0.8483(13) 0.0280(12)
H19 H 0.4445 0.8386 0.0099
C45 C 0.4585(12) 0.8772(14) 0.0414(14)
C46 C 0.4484(17) 0.8922(15) 0.0674(17)
H20 H 0.4625 0.9116 0.0768
C47 C 0.420(2) 0.881(2) 0.080(2)
H21 H 0.4137 0.8918 0.0986
C48 C 0.398(3) 0.849(3) 0.063(3)
C49 C 0.4068(19) 0.8317(19) 0.0371(19)
C51 C 0.3793(16) 0.7802(17) 0.0049(17)
C52 C 0.382(2) 0.804(2) 0.025(2)
C53 C 0.359(3) 0.804(3) 0.046(3)
C54 C 0.331(3) 0.781(3) 0.050(2)
H23 H 0.3160 0.7817 0.0672
C55 C 0.325(2) 0.757(2) 0.026(3)
H24 H 0.3055 0.7408 0.0237
O2 O 0.5567(7) 0.8695(7) 0.0248(10)
O3 O 0.5950(8) 0.9084(9) 0.058(1)
O4 O 0.5935(7) 0.9647(7) 0.0813(10)
O5 O 0.5604(8) 0.9776(7) 0.0634(12)
O6 O 0.6880(8) 0.9217(11) 0.2501(10)
O7 O 0.6900(8) 0.8920(11) 0.3032(12)
O8 O 0.5038(8) 0.9226(9) 0.0333(10)
O9 O 0.4992(7) 0.8792(7) 0.0119(10)
O12 O 0.6829(8) 0.9769(8) 0.2864(11)
Zn1 Zn 0.5426(1) 0.9524(1) 0.0106(2)
Zn2 Zn 0.5979(1) 0.9433(1) 0.0293(2)
N1 N 0.6003(8) 0.8032(9) 0.1537(12)
H25 H 0.5933 0.7840 0.1543
N4 N 0.3650(17) 0.8285(18) 0.0693(18)
H28 H 0.3526 0.8318 0.0845
C57 C 0.1142(18) 0.6942(23) 0.049(2)
C58 C 0.1708(14) 0.7379(18) 0.0660(16)
H29 H 0.1782 0.7319 0.0419
C59 C 0.1938(13) 0.7639(18) 0.0886(18)
H30 H 0.2142 0.7724 0.0814
C60 C 0.1837(12) 0.7760(17) 0.1225(18)
C61 C 0.1516(10) 0.7589(13) 0.1364(13)
C62 C 0.133(1) 0.7327(13) 0.1089(14)
H31 H 0.1128 0.7231 0.1173
C63 C 0.1384(13) 0.7186(17) 0.0723(17)
C64 C 0.1493(9) 0.7743(11) 0.1751(8)
C65 C 0.1781(7) 0.7982(9) 0.1846(10)
C66 C 0.1824(6) 0.8174(9) 0.2205(12)
H32 H 0.2016 0.8334 0.2269
C67 C 0.1579(9) 0.8125(11) 0.2470(8)
H33 H 0.1608 0.8254 0.2710
C68 C 0.1292(7) 0.7887(9) 0.2375(10)
C69 C 0.1249(6) 0.7695(9) 0.2016(11)
H34 H 0.1057 0.7535 0.1952
C70 C 0.1019(17) 0.7826(20) 0.268(2)
C71 C 0.0228(10) 0.6008(16) 0.0901(12)
C73 C 0.0052(7) 0.5932(11) 0.1321(10)
C74 C 0.0064(7) 0.6137(10) 0.1638(16)
H36 H 0.0177 0.6343 0.1581
H38 H 0.0114 0.6636 0.2351
C84 C 0.0013(17) 0.6854(21) 0.317(2)
C99 C 0.1031(15) 0.5931(19) 0.0262(16)
C100 C 0.1517(13) 0.5888(19) 0.0280(12)
H47 H 0.1614 0.6059 0.0099
C101 C 0.1228(14) 0.5813(18) 0.0414(14)
C102 C 0.1078(15) 0.5562(23) 0.0674(17)
H48 H 0.0884 0.5509 0.0768
C103 C 0.119(2) 0.539(3) 0.080(2)
H49 H 0.1082 0.5219 0.0986
C104 C 0.151(3) 0.549(4) 0.063(3)
C105 C 0.1683(19) 0.5751(27) 0.0371(19)
C107 C 0.2198(17) 0.5991(23) 0.0049(17)
C108 C 0.196(2) 0.578(3) 0.025(2)
C109 C 0.196(3) 0.555(4) 0.046(3)
C110 C 0.219(3) 0.550(4) 0.050(2)
H51 H 0.2183 0.5343 0.0672
C111 C 0.243(2) 0.568(3) 0.026(3)
H52 H 0.2592 0.5647 0.0237
O22 O 0.1305(7) 0.6872(10) 0.0248(10)
O23 O 0.0916(9) 0.6866(12) 0.058(1)
O24 O 0.0353(7) 0.6288(10) 0.0813(10)
O25 O 0.0224(7) 0.5828(11) 0.0634(12)
O26 O 0.0783(11) 0.7663(14) 0.2501(10)
O27 O 0.1080(11) 0.7980(14) 0.3032(12)
O28 O 0.0774(9) 0.5812(12) 0.0333(10)
O29 O 0.1208(7) 0.6200(10) 0.0119(10)
O32 O 0.0231(8) 0.7060(11) 0.2864(11)
Zn7 Zn 0.0476(1) 0.5902(1) 0.0106(2)
Zn8 Zn 0.0567(1) 0.6546(1) 0.0293(2)
N5 N 0.1968(9) 0.7971(12) 0.1537(12)
H53 H 0.2160 0.8093 0.1543
N8 N 0.1715(18) 0.5365(25) 0.0693(18)
H56 H 0.1682 0.5208 0.0845
C113 C 0.3058(23) 0.4200(15) 0.049(2)
C114 C 0.2621(18) 0.4329(11) 0.0660(16)
H57 H 0.2681 0.4463 0.0419
C115 C 0.2361(18) 0.4299(12) 0.0886(18)
H58 H 0.2276 0.4418 0.0814
C116 C 0.2240(17) 0.4077(12) 0.1225(18)
C117 C 0.2411(13) 0.3927(9) 0.1364(13)
C118 C 0.2673(13) 0.4003(9) 0.1089(14)
H59 H 0.2769 0.3897 0.1173
C119 C 0.2814(17) 0.4198(11) 0.0723(17)
C120 C 0.2257(11) 0.3750(6) 0.1751(8)
C121 C 0.2018(9) 0.3799(6) 0.1846(10)
C122 C 0.1826(9) 0.3650(7) 0.2205(12)
H60 H 0.1666 0.3682 0.2269
C123 C 0.1875(11) 0.3454(6) 0.2470(8)
H61 H 0.1746 0.3354 0.2710
C124 C 0.2113(9) 0.3405(5) 0.2375(10)
C125 C 0.2305(9) 0.3554(7) 0.2016(11)
H62 H 0.2465 0.3522 0.1952
C126 C 0.2174(20) 0.3193(11) 0.268(2)
C127 C 0.3992(16) 0.4220(12) 0.0901(12)
C128 C 0.4377(11) 0.4260(7) 0.1406(14)
H63 H 0.4515 0.4389 0.1194
C129 C 0.4068(11) 0.4120(9) 0.1321(10)
C130 C 0.3863(10) 0.3927(7) 0.1638(16)
H64 H 0.3657 0.3834 0.1581
C131 C 0.3966(11) 0.3873(7) 0.2041(12)
C132 C 0.4274(13) 0.4012(10) 0.2126(11)
C133 C 0.4480(12) 0.4206(9) 0.1809(18)
H65 H 0.4687 0.4299 0.1866
C134 C 0.3517(12) 0.3499(10) 0.2544(16)
H66 H 0.3364 0.3478 0.2351
C135 C 0.3817(14) 0.3671(9) 0.2413(11)
C136 C 0.4046(15) 0.3703(10) 0.270(2)
C137 C 0.3974(15) 0.3563(12) 0.3119(18)
H67 H 0.4128 0.3585 0.3311
C138 C 0.3674(15) 0.3391(10) 0.3249(10)
H68 H 0.3625 0.3297 0.3529
C139 C 0.3445(13) 0.3359(8) 0.2962(19)
C140 C 0.3146(21) 0.3159(13) 0.317(2)
C155 C 0.4069(19) 0.5100(12) 0.0262(16)
C156 C 0.4112(19) 0.5629(14) 0.0280(12)
H75 H 0.3941 0.5555 0.0099
C157 C 0.4187(18) 0.5415(12) 0.0414(14)
C158 C 0.4438(23) 0.5516(17) 0.0674(17)
H76 H 0.4491 0.5375 0.0768
C159 C 0.461(3) 0.580(2) 0.080(2)
H77 H 0.4781 0.5863 0.0986
C160 C 0.451(4) 0.602(3) 0.063(3)
C161 C 0.4249(27) 0.5932(19) 0.0371(19)
C163 C 0.4009(23) 0.6207(16) 0.0049(17)
C164 C 0.422(3) 0.618(2) 0.025(2)
C165 C 0.445(4) 0.641(3) 0.046(3)
C166 C 0.450(4) 0.669(3) 0.050(2)
H79 H 0.4657 0.6840 0.0672
C167 C 0.432(3) 0.675(2) 0.026(3)
H80 H 0.4353 0.6945 0.0237
O41 O 0.3128(10) 0.4433(7) 0.0248(10)
O42 O 0.3134(12) 0.4050(8) 0.058(1)
O43 O 0.3712(10) 0.4065(7) 0.0813(10)
O44 O 0.4172(11) 0.4396(8) 0.0634(12)
O45 O 0.2337(14) 0.3120(8) 0.2501(10)
O46 O 0.2020(14) 0.3100(8) 0.3032(12)
O47 O 0.4188(12) 0.4962(8) 0.0333(10)
O48 O 0.3800(10) 0.5008(7) 0.0119(10)
O51 O 0.2940(11) 0.3171(8) 0.2864(11)
O52 O 0.3029(13) 0.2982(10) 0.3481(13)
Zn12 Zn 0.4098(1) 0.4574(1) 0.0106(2)
Zn13 Zn 0.3454(1) 0.4021(1) 0.0293(2)
N9 N 0.2029(12) 0.3997(8) 0.1537(12)
H81 H 0.1907 0.4067 0.1543
N10 N 0.4302(19) 0.3865(13) 0.248(2)
H82 H 0.4469 0.3874 0.2550
N12 N 0.4635(25) 0.6350(17) 0.0693(18)
H84 H 0.4792 0.6474 0.0845
O68 O 0.0351(10) 0.6714(9) 0.0148(13)
O69 O 0.3286(9) 0.3638(13) 0.0148(13)
O70 O 0.6362(13) 0.9649(10) 0.0148(13)
Zn17 Zn 0.2093(1) 0.2857(1) 0.3439(2)
Zn18 Zn 0.7143(1) 0.9235(1) 0.3439(2)
Zn19 Zn 0.0765(1) 0.7907(1) 0.3439(2)
Zn20 Zn 0.2646(1) 0.2766(1) 0.3626(2)
Zn21 Zn 0.7234(1) 0.9879(1) 0.3626(2)
Zn22 Zn 0.0121(1) 0.7354(1) 0.3626(2)
Zn23 Zn 0.2493(1) 0.2825(2) 0.2607(2)
Zn24 Zn 0.7175(2) 0.9667(2) 0.2607(2)
Zn25 Zn 0.0333(2) 0.7507(1) 0.2607(2)
C29 C 0.5329(11) 0.8896(16) 0.8931(19)
C30 C 0.5216(14) 0.8897(11) 0.815(3)
H13 H 0.5355 0.9103 0.8165
C31 C 0.5153(11) 0.8720(18) 0.853(2)
C32 C 0.4944(14) 0.8412(16) 0.852(2)
H14 H 0.4902 0.8293 0.8772
C33 C 0.4799(10) 0.8282(12) 0.811(3)
C34 C 0.4862(17) 0.846(2) 0.7730(19)
C35 C 0.507(2) 0.877(2) 0.775(2)
H15 H 0.5112 0.8886 0.7493
C36 C 0.4347(16) 0.7722(18) 0.8251(12)
H16 H 0.4392 0.7719 0.8553
C37 C 0.4526(9) 0.7975(12) 0.799(3)
C38 C 0.4458(16) 0.7979(14) 0.754(3)
C39 C 0.4210(18) 0.773(2) 0.7349(12)
H17 H 0.4164 0.7733 0.7047
C40 C 0.403(1) 0.7477(14) 0.761(3)
H18 H 0.3864 0.7311 0.7482
C41 C 0.4098(13) 0.7473(11) 0.806(2)
C42 C 0.3880(18) 0.7201(18) 0.827(3)
C50 C 0.353(2) 0.7564(19) 0.999(2)
H22 H 0.3965 0.7804 0.9941
C56 C 0.346(2) 0.728(2) 0.974(3)
O1 O 0.5654(7) 0.9335(7) 0.9899(10)
O10 O 0.5469(10) 0.9171(12) 0.8913(14)
O11 O 0.5287(7) 0.8729(7) 0.9284(13)
O14 O 0.3333 0.6667 0.901(2)
O15 O 0.3673(12) 0.7025(11) 0.8110(15)
O16 O 0.3958(8) 0.7235(8) 0.8739(14)
O17 O 0.3175(11) 0.7096(14) 0.9600(14)
O18 O 0.3678(9) 0.7292(8) 0.9581(12)
O19 O 0.6048(9) 0.9696(9) 0.8574(13)
O20 O 0.6047(10) 0.9176(10) 0.9296(14)
Zn3 Zn 0.5400(1) 0.8909(1) 0.9855(2)
Zn4 Zn 0.5826(1) 0.9492(2) 0.9274(2)
Zn5 Zn 0.3721(2) 0.6986(2) 0.9238(2)
Zn6 Zn 0.3333 0.6667 0.8379(4)
N3 N 0.4630(19) 0.831(2) 0.736(3)
H27 H 0.4603 0.8379 0.7117
C85 C 0.1104(16) 0.6433(19) 0.8931(19)
C86 C 0.1103(11) 0.6319(18) 0.815(3)
H41 H 0.0897 0.6252 0.8165
C87 C 0.1280(18) 0.6433(21) 0.853(2)
C88 C 0.1588(16) 0.6532(21) 0.852(2)
H42 H 0.1707 0.6609 0.8772
C89 C 0.1718(12) 0.6517(16) 0.811(3)
C90 C 0.154(2) 0.6402(26) 0.7730(19)
C91 C 0.123(2) 0.630(3) 0.775(2)
H43 H 0.1114 0.6226 0.7493
C92 C 0.2278(18) 0.6625(24) 0.8251(12)
H44 H 0.2281 0.6673 0.8553
C93 C 0.2025(12) 0.6551(15) 0.799(3)
C94 C 0.2021(14) 0.6479(21) 0.754(3)
C95 C 0.227(2) 0.6480(27) 0.7349(12)
H45 H 0.2267 0.6431 0.7047
C96 C 0.2523(14) 0.6553(17) 0.761(3)
H46 H 0.2689 0.6553 0.7482
C97 C 0.2527(11) 0.6625(17) 0.806(2)
C98 C 0.2799(18) 0.6679(25) 0.827(3)
C106 C 0.2436(19) 0.5966(28) 0.999(2)
H50 H 0.2196 0.6161 0.9941
C112 C 0.272(2) 0.618(3) 0.974(3)
O21 O 0.0665(7) 0.6319(10) 0.9899(10)
O30 O 0.0829(12) 0.6298(16) 0.8913(14)
O31 O 0.1271(7) 0.6558(10) 0.9284(13)
O34 O 0.2975(11) 0.6648(16) 0.8110(15)
O35 O 0.2765(8) 0.6723(11) 0.8739(14)
O36 O 0.2904(14) 0.6079(18) 0.9600(14)
O37 O 0.2708(8) 0.6386(12) 0.9581(12)
O38 O 0.0304(9) 0.6352(13) 0.8574(13)
O39 O 0.0824(10) 0.6871(14) 0.9296(14)
Zn9 Zn 0.1091(1) 0.6491(1) 0.9855(2)
Zn10 Zn 0.0508(2) 0.6334(2) 0.9274(2)
Zn11 Zn 0.3014(2) 0.6735(3) 0.9238(2)
N7 N 0.169(2) 0.6320(28) 0.736(3)
H55 H 0.1621 0.6224 0.7117
C141 C 0.3567(19) 0.4671(11) 0.8931(19)
C142 C 0.3681(18) 0.4784(14) 0.815(3)
H69 H 0.3748 0.4645 0.8165
C143 C 0.3567(21) 0.4847(11) 0.853(2)
C144 C 0.3468(21) 0.5056(14) 0.852(2)
H70 H 0.3391 0.5098 0.8772
C145 C 0.3483(16) 0.5201(10) 0.811(3)
C146 C 0.3598(26) 0.5138(17) 0.7730(19)
C147 C 0.370(3) 0.493(2) 0.775(2)
H71 H 0.3774 0.4888 0.7493
C148 C 0.3375(24) 0.5653(16) 0.8251(12)
H72 H 0.3327 0.5608 0.8553
C149 C 0.3449(15) 0.5474(9) 0.799(3)
C150 C 0.3521(21) 0.5542(16) 0.754(3)
C151 C 0.3520(27) 0.5790(18) 0.7349(12)
H73 H 0.3569 0.5836 0.7047
C152 C 0.3447(17) 0.597(1) 0.761(3)
H74 H 0.3447 0.6136 0.7482
C153 C 0.3375(17) 0.5902(13) 0.806(2)
C154 C 0.3321(25) 0.6120(18) 0.827(3)
C162 C 0.4034(28) 0.647(2) 0.999(2)
H78 H 0.3839 0.6035 0.9941
C168 C 0.382(3) 0.654(2) 0.974(3)
O40 O 0.3681(10) 0.4346(7) 0.9899(10)
O49 O 0.3702(16) 0.4531(10) 0.8913(14)
O50 O 0.3442(10) 0.4713(7) 0.9284(13)
O53 O 0.3352(16) 0.6327(12) 0.8110(15)
O54 O 0.3277(11) 0.6042(8) 0.8739(14)
O55 O 0.3921(18) 0.6825(11) 0.9600(14)
O56 O 0.3614(12) 0.6322(9) 0.9581(12)
O57 O 0.3648(13) 0.3952(9) 0.8574(13)
O58 O 0.3129(14) 0.3953(10) 0.9296(14)
Zn14 Zn 0.3509(1) 0.4600(1) 0.9855(2)
Zn15 Zn 0.3666(2) 0.4174(1) 0.9274(2)
Zn16 Zn 0.3265(3) 0.6279(2) 0.9238(2)
N11 N 0.3680(28) 0.5370(19) 0.736(3)
H83 H 0.3776 0.5397 0.7117
O59 O 0.0213(8) 0.5884(11) 0.9168(10)
O60 O 0.4116(11) 0.4330(14) 0.9168(10)
O61 O 0.5670(14) 0.9787(8) 0.9168(10)
O62 O 0.0233(8) 0.5587(11) 0.9699(12)
O63 O 0.4413(11) 0.4647(14) 0.9699(12)
O64 O 0.5353(14) 0.9767(8) 0.9699(12)
O65 O 0.0162(8) 0.6436(8) 0.9531(11)
O66 O 0.3564(8) 0.3727(11) 0.9531(11)
O67 O 0.6273(11) 0.9838(8) 0.9531(11)
H85 H 0.307654 0.41148 0.932978
H86 H 0.304044 0.384044 0.901249
H87 H 0.345986 0.375248 0.855366
H88 H 0.365034 0.408554 0.832948
H89 H 0.624752 0.970738 0.855366
H90 H 0.591446 0.95648 0.832948
H91 H 0.58852 0.896174 0.932978
H92 H 0.615956 0.919999 0.901249
H93 H 0.029262 0.654014 0.855366
H94 H 0.0435203 0.634966 0.832948
H95 H 0.103826 0.692346 0.932978
H96 H 0.0800006 0.695956 0.901249
C72 C 0.9883(9) 0.5623(11) 0.1406(14)
H35 H 0.9874 0.5485 0.1194
C75 C 0.9907(9) 0.6034(11) 0.2041(12)
C76 C 0.9738(8) 0.5726(13) 0.2126(11)
C77 C 0.9726(8) 0.5520(12) 0.1809(18)
H37 H 0.9612 0.5313 0.1866
C78 C 0.9982(7) 0.6483(12) 0.2544(16)
C79 C 0.9854(11) 0.6183(14) 0.2413(11)
C80 C 0.9657(11) 0.5954(15) 0.270(2)
C81 C 0.9589(9) 0.6026(15) 0.3119(18)
H39 H 0.9457 0.5872 0.3311
C82 C 0.9717(11) 0.6326(15) 0.3249(10)
H40 H 0.9672 0.6375 0.3529
C83 C 0.9914(10) 0.6555(13) 0.2962(19)
O33 O 0.9953(9) 0.6971(13) 0.3481(13)
N6 N 0.9563(14) 0.5698(19) 0.248(2)
H54 H 0.9405 0.5531 0.2550
C1_2 C 0.2467(15) 0.2191(18) 0.382(2)
C2_2 C 0.2338(11) 0.1625(14) 0.3993(16)
H1_2 H 0.2204 0.1551 0.3752
C3_2 C 0.2368(12) 0.1395(13) 0.4219(18)
H2_2 H 0.2249 0.1191 0.4147
C4_2 C 0.2590(12) 0.1496(12) 0.4558(18)
C5_2 C 0.2740(9) 0.1817(10) 0.4697(13)
C6_2 C 0.2664(9) 0.200(1) 0.4422(14)
H3_2 H 0.2770 0.2205 0.4506
C7_2 C 0.2469(11) 0.1949(13) 0.4056(17)
C8_2 C 0.2917(6) 0.1840(9) 0.5084(8)
C9_2 C 0.2868(6) 0.1552(7) 0.5179(10)
C10_2 C 0.3017(7) 0.1509(6) 0.5538(12)
H4_2 H 0.2985 0.1317 0.5602
C11_2 C 0.3213(6) 0.1754(9) 0.5803(8)
H5_2 H 0.3313 0.1725 0.6043
C12_2 C 0.3262(5) 0.2041(7) 0.5708(10)
C13_2 C 0.3113(7) 0.2084(6) 0.5349(11)
H6_2 H 0.3145 0.2276 0.5285
C14_2 C 0.3474(11) 0.2314(17) 0.601(2)
C15_2 C 0.2447(12) 0.3105(10) 0.4234(12)
C16_2 C 0.2407(7) 0.3450(9) 0.4739(14)
H7_2 H 0.2278 0.3459 0.4527
C17_2 C 0.2547(9) 0.3281(7) 0.4654(10)
C18_2 C 0.2740(7) 0.3269(7) 0.4971(16)
H8_2 H 0.2833 0.3156 0.4914
C19_2 C 0.2794(7) 0.3426(9) 0.5374(12)
C20_2 C 0.2655(10) 0.3595(8) 0.5459(11)
C21_2 C 0.2461(9) 0.3607(8) 0.5142(18)
H9_2 H 0.2368 0.3721 0.5199
C22_2 C 0.3168(10) 0.3351(7) 0.5877(16)
H10_2 H 0.3189 0.3219 0.5684
C23_2 C 0.2996(9) 0.3479(11) 0.5746(11)
C24_2 C 0.2964(10) 0.3676(11) 0.603(2)
C25_2 C 0.3104(12) 0.3744(9) 0.6452(18)
H11_2 H 0.3082 0.3876 0.6644
C26_2 C 0.3276(10) 0.3616(11) 0.6582(10)
H12_2 H 0.3370 0.3661 0.6862
C27_2 C 0.3308(8) 0.3419(10) 0.6295(19)
C28_2 C 0.3508(13) 0.3320(17) 0.650(2)
C29_2 C 0.1996(11) 0.2229(16) 0.2264(19)
C30_2 C 0.1883(14) 0.2230(11) 0.148(3)
H13_2 H 0.2022 0.2436 0.1498
C31_2 C 0.1820(11) 0.2053(18) 0.186(2)
C32_2 C 0.1611(14) 0.1745(16) 0.185(2)
H14_2 H 0.1569 0.1626 0.2105
C33_2 C 0.1466(10) 0.1615(12) 0.144(3)
C34_2 C 0.1529(17) 0.179(2) 0.1063(19)
C35_2 C 0.174(2) 0.210(2) 0.108(2)
H15_2 H 0.1779 0.2219 0.0826
C36_2 C 0.1014(16) 0.1055(18) 0.1584(12)
H16_2 H 0.1059 0.1052 0.1886
C37_2 C 0.1193(9) 0.1308(12) 0.132(3)
C38_2 C 0.1125(16) 0.1312(14) 0.087(3)
C39_2 C 0.0877(18) 0.106(2) 0.0682(12)
H17_2 H 0.0831 0.1066 0.0380
C40_2 C 0.070(1) 0.0810(14) 0.094(3)
H18_2 H 0.0531 0.0644 0.0815
C41_2 C 0.0765(13) 0.0806(11) 0.139(2)
C42_2 C 0.0547(18) 0.0534(18) 0.160(3)
C43_2 C 0.1567(12) 0.2302(15) 0.3595(16)
C44_2 C 0.1038(14) 0.1816(13) 0.3613(12)
H19_2 H 0.1112 0.1719 0.3432
C45_2 C 0.1252(12) 0.2105(14) 0.3747(14)
C46_2 C 0.1151(17) 0.2255(15) 0.4007(17)
H20_2 H 0.1292 0.2449 0.4101
C47_2 C 0.087(2) 0.214(2) 0.413(2)
H21_2 H 0.0804 0.2251 0.4319
C48_2 C 0.065(3) 0.182(3) 0.396(3)
C49_2 C 0.0735(19) 0.1650(19) 0.3704(19)
C50_2 C 0.020(2) 0.0897(19) 0.332(2)
C51_2 C 0.0460(16) 0.1135(17) 0.3382(17)
H22_2 H 0.0632 0.1137 0.3274
C52_2 C 0.049(2) 0.137(2) 0.358(2)
C53_2 C 0.026(3) 0.137(3) 0.379(3)
C56_2 C 0.013(2) 0.061(2) 0.307(3)
O1_2 O 0.2321(7) 0.2668(7) 0.3232(10)
O2_2 O 0.2234(7) 0.2028(7) 0.3581(10)
O3_2 O 0.2617(8) 0.2417(9) 0.391(1)
O4_2 O 0.2602(7) 0.2980(7) 0.4146(10)
O5_2 O 0.2271(8) 0.3109(7) 0.3967(12)
O6_2 O 0.3547(8) 0.2550(11) 0.5834(10)
O7_2 O 0.3567(8) 0.2253(11) 0.6365(12)
O8_2 O 0.1705(8) 0.2559(9) 0.3666(10)
O9_2 O 0.1659(7) 0.2125(7) 0.3452(10)
O10_2 O 0.2136(10) 0.2504(12) 0.2246(14)
O11_2 O 0.1954(7) 0.2062(7) 0.2617(13)
O12_2 O 0.3496(8) 0.3102(8) 0.6197(11)
O13_2 O 0.3685(10) 0.3380(9) 0.6814(13)
O15_2 O 0.0340(12) 0.0358(11) 0.1443(15)
O16_2 O 0.0625(8) 0.0568(8) 0.2072(14)
O18_2 O 0.0345(9) 0.0625(8) 0.2914(12)
O19_2 O 0.2715(9) 0.3029(9) 0.1907(13)
O20_2 O 0.2714(10) 0.2509(10) 0.2629(14)
Zn3_2 Zn 0.2067(1) 0.2242(1) 0.3188(2)
Zn5_2 Zn 0.0388(2) 0.0319(2) 0.2571(2)
N1_2 N 0.2670(8) 0.1365(9) 0.4870(12)
H25_2 H 0.2600 0.1173 0.4876
N2_2 N 0.2802(13) 0.3770(14) 0.581(2)
H26_2 H 0.2793 0.3928 0.5883
N3_2 N 0.1297(19) 0.164(2) 0.069(3)
H27_2 H 0.1270 0.1712 0.0450
N4_2 N 0.0317(17) 0.1618(18) 0.4026(18)
H28_2 H 0.0193 0.1651 0.4178
C166_2 C 0.117(4) 0.002(3) 0.383(2)
H79_2 H 0.1324 0.0173 0.4005
C167_2 C 0.099(3) 0.008(2) 0.359(3)
H80_2 H 0.1020 0.0278 0.3570
O55_2 O 0.0588(18) 0.0158(11) 0.2933(14)
Zn18_2 Zn 0.3809(1) 0.2569(1) 0.6773(2)
Zn21_2 Zn 0.3900(1) 0.3213(1) 0.6960(2)
Zn24_2 Zn 0.3841(2) 0.3001(2) 0.5941(2)
H89_2 H 0.291418 0.304071 0.1887
H90_2 H 0.258112 0.289813 0.166281
H91_2 H 0.255186 0.229507 0.266311
H92_2 H 0.282622 0.253333 0.234583
C127_2 C 0.0659(16) 0.7553(12) 0.4234(12)
C128_2 C 0.1044(11) 0.7593(7) 0.4739(14)
H63_2 H 0.1182 0.7722 0.4527
C129_2 C 0.0735(11) 0.7453(9) 0.4654(10)
C130_2 C 0.0530(10) 0.7260(7) 0.4971(16)
H64_2 H 0.0324 0.7167 0.4914
C131_2 C 0.0633(11) 0.7206(7) 0.5374(12)
C132_2 C 0.0941(13) 0.7345(10) 0.5459(11)
C133_2 C 0.1147(12) 0.7539(9) 0.5142(18)
H65_2 H 0.1354 0.7632 0.5199
C134_2 C 0.0184(12) 0.6832(10) 0.5877(16)
H66_2 H 0.0031 0.6811 0.5684
C135_2 C 0.0484(14) 0.7004(9) 0.5746(11)
C136_2 C 0.0713(15) 0.7036(10) 0.603(2)
C137_2 C 0.0641(15) 0.6896(12) 0.6452(18)
H67_2 H 0.0795 0.6918 0.6644
C138_2 C 0.0341(15) 0.6724(10) 0.6582(10)
H68_2 H 0.0292 0.6630 0.6862
C139_2 C 0.0112(13) 0.6692(8) 0.6295(19)
C141_2 C 0.0234(19) 0.8004(11) 0.2264(19)
C142_2 C 0.0348(18) 0.8117(14) 0.148(3)
H69_2 H 0.0415 0.7978 0.1498
C143_2 C 0.0234(21) 0.8180(11) 0.186(2)
C144_2 C 0.0135(21) 0.8389(14) 0.185(2)
H70_2 H 0.0058 0.8431 0.2105
C145_2 C 0.0150(16) 0.8534(10) 0.144(3)
C146_2 C 0.0265(26) 0.8471(17) 0.1063(19)
C147_2 C 0.037(3) 0.826(2) 0.108(2)
H71_2 H 0.0441 0.8221 0.0826
C148_2 C 0.0042(24) 0.8986(16) 0.1584(12)
C149_2 C 0.0116(15) 0.8807(9) 0.132(3)
C150_2 C 0.0188(21) 0.8875(16) 0.087(3)
C151_2 C 0.0187(27) 0.9123(18) 0.0682(12)
H73_2 H 0.0236 0.9169 0.0380
C152_2 C 0.0114(17) 0.930(1) 0.094(3)
H74_2 H 0.0114 0.9469 0.0815
C153_2 C 0.0042(17) 0.9235(13) 0.139(2)
C155_2 C 0.0736(19) 0.8433(12) 0.3595(16)
C156_2 C 0.0779(19) 0.8962(14) 0.3613(12)
H75_2 H 0.0608 0.8888 0.3432
C157_2 C 0.0854(18) 0.8748(12) 0.3747(14)
C158_2 C 0.1105(23) 0.8849(17) 0.4007(17)
H76_2 H 0.1158 0.8708 0.4101
C159_2 C 0.128(3) 0.913(2) 0.413(2)
H77_2 H 0.1448 0.9196 0.4319
C160_2 C 0.118(4) 0.935(3) 0.396(3)
C161_2 C 0.0916(27) 0.9265(19) 0.3704(19)
C162_2 C 0.0701(28) 0.980(2) 0.332(2)
C163_2 C 0.0676(23) 0.9540(16) 0.3382(17)
H78_2 H 0.0506 0.9368 0.3274
C164_2 C 0.089(3) 0.951(2) 0.358(2)
C165_2 C 0.112(4) 0.974(3) 0.379(3)
C168_2 C 0.049(3) 0.987(2) 0.307(3)
O40_2 O 0.0348(10) 0.7679(7) 0.3232(10)
O43_2 O 0.0379(10) 0.7398(7) 0.4146(10)
O44_2 O 0.0839(11) 0.7729(8) 0.3967(12)
O47_2 O 0.0855(12) 0.8295(8) 0.3666(10)
O48_2 O 0.0467(10) 0.8341(7) 0.3452(10)
O49_2 O 0.0369(16) 0.7864(10) 0.2246(14)
O50_2 O 0.0109(10) 0.8046(7) 0.2617(13)
O53_2 O 0.0019(16) 0.9660(12) 0.1443(15)
O56_2 O 0.0281(12) 0.9655(9) 0.2914(12)
O57_2 O 0.0315(13) 0.7285(9) 0.1907(13)
Zn14_2 Zn 0.0176(1) 0.7933(1) 0.3188(2)
N10_2 N 0.0969(19) 0.7198(13) 0.581(2)
H82_2 H 0.1136 0.7207 0.5883
N11_2 N 0.0347(28) 0.8703(19) 0.069(3)
H83_2 H 0.0443 0.8730 0.0450
N12_2 N 0.1302(25) 0.9683(17) 0.4026(18)
H84_2 H 0.1459 0.9807 0.4178
H87_2 H 0.0126529 0.708582 0.1887
H88_2 H 0.0317007 0.741888 0.166281
C54_2 C 0.998(3) 0.114(3) 0.383(2)
H23_2 H 0.9827 0.1150 0.4005
C55_2 C 0.992(2) 0.090(2) 0.359(3)
H24_2 H 0.9722 0.0741 0.3570
O14_2 O 1.0000 0.0000 0.234(2)
O17_2 O 0.9842(11) 0.0429(14) 0.2933(14)
Zn6_2 Zn 1.0000 0.0000 0.1712(4)
C57_2 C 0.7809(18) 0.0275(23) 0.382(2)
C58_2 C 0.8375(14) 0.0712(18) 0.3993(16)
H29_2 H 0.8449 0.0652 0.3752
C59_2 C 0.8605(13) 0.0972(18) 0.4219(18)
H30_2 H 0.8809 0.1057 0.4147
C60_2 C 0.8504(12) 0.1093(17) 0.4558(18)
C61_2 C 0.8183(10) 0.0922(13) 0.4697(13)
C62_2 C 0.800(1) 0.0660(13) 0.4422(14)
H31_2 H 0.7795 0.0564 0.4506
C63_2 C 0.8051(13) 0.0519(17) 0.4056(17)
C64_2 C 0.8160(9) 0.1076(11) 0.5084(8)
C65_2 C 0.8448(7) 0.1315(9) 0.5179(10)
C66_2 C 0.8491(6) 0.1507(9) 0.5538(12)
H32_2 H 0.8683 0.1667 0.5602
C67_2 C 0.8246(9) 0.1458(11) 0.5803(8)
H33_2 H 0.8275 0.1587 0.6043
C68_2 C 0.7959(7) 0.1220(9) 0.5708(10)
C69_2 C 0.7916(6) 0.1028(9) 0.5349(11)
H34_2 H 0.7724 0.0868 0.5285
C70_2 C 0.7686(17) 0.1159(20) 0.601(2)
C84_2 C 0.6680(17) 0.0187(21) 0.650(2)
H44_2 H 0.8948 0.0006 0.1886
C98_2 C 0.9466(18) 0.0012(25) 0.160(3)
O22_2 O 0.7972(7) 0.0205(10) 0.3581(10)
O23_2 O 0.7583(9) 0.0199(12) 0.391(1)
O26_2 O 0.7450(11) 0.0996(14) 0.5834(10)
O27_2 O 0.7747(11) 0.1313(14) 0.6365(12)
O32_2 O 0.6898(8) 0.0393(11) 0.6197(11)
O33_2 O 0.6620(9) 0.0304(13) 0.6814(13)
O35_2 O 0.9432(8) 0.0056(11) 0.2072(14)
O39_2 O 0.7491(10) 0.0204(14) 0.2629(14)
Zn11_2 Zn 0.9681(2) 0.0068(3) 0.2571(2)
N5_2 N 0.8635(9) 0.1304(12) 0.4870(12)
H53_2 H 0.8827 0.1426 0.4876
Zn19_2 Zn 0.7431(1) 0.1241(1) 0.6773(2)
Zn22_2 Zn 0.6787(1) 0.0688(1) 0.6960(2)
Zn25_2 Zn 0.6999(2) 0.0841(1) 0.5941(2)
H95_2 H 0.770493 0.0256788 0.266311
H96_2 H 0.746667 0.0292896 0.234583
C71_2 C 0.6895(10) 0.9341(16) 0.4234(12)
C72_2 C 0.6550(9) 0.8956(11) 0.4739(14)
H35_2 H 0.6541 0.8818 0.4527
C73_2 C 0.6719(7) 0.9265(11) 0.4654(10)
C74_2 C 0.6731(7) 0.9470(10) 0.4971(16)
H36_2 H 0.6844 0.9676 0.4914
C75_2 C 0.6574(9) 0.9367(11) 0.5374(12)
C76_2 C 0.6405(8) 0.9059(13) 0.5459(11)
C77_2 C 0.6393(8) 0.8853(12) 0.5142(18)
H37_2 H 0.6279 0.8646 0.5199
C78_2 C 0.6649(7) 0.9816(12) 0.5877(16)
H38_2 H 0.6781 0.9969 0.5684
C79_2 C 0.6521(11) 0.9516(14) 0.5746(11)
C80_2 C 0.6324(11) 0.9287(15) 0.603(2)
C81_2 C 0.6256(9) 0.9359(15) 0.6452(18)
H39_2 H 0.6124 0.9205 0.6644
C82_2 C 0.6384(11) 0.9659(15) 0.6582(10)
H40_2 H 0.6339 0.9708 0.6862
C83_2 C 0.6581(10) 0.9888(13) 0.6295(19)
C85_2 C 0.7771(16) 0.9766(19) 0.2264(19)
C86_2 C 0.7770(11) 0.9652(18) 0.148(3)
H41_2 H 0.7564 0.9585 0.1498
C87_2 C 0.7947(18) 0.9766(21) 0.186(2)
C88_2 C 0.8255(16) 0.9865(21) 0.185(2)
H42_2 H 0.8374 0.9942 0.2105
C89_2 C 0.8385(12) 0.9850(16) 0.144(3)
C90_2 C 0.821(2) 0.9735(26) 0.1063(19)
C91_2 C 0.790(2) 0.963(3) 0.108(2)
H43_2 H 0.7781 0.9559 0.0826
C92_2 C 0.8945(18) 0.9958(24) 0.1584(12)
C93_2 C 0.8692(12) 0.9884(15) 0.132(3)
C94_2 C 0.8688(14) 0.9812(21) 0.087(3)
C95_2 C 0.894(2) 0.9813(27) 0.0682(12)
H45_2 H 0.8934 0.9764 0.0380
C96_2 C 0.9190(14) 0.9886(17) 0.094(3)
H46_2 H 0.9356 0.9886 0.0815
C97_2 C 0.9194(11) 0.9958(17) 0.139(2)
C99_2 C 0.7698(15) 0.9264(19) 0.3595(16)
C100_2 C 0.8184(13) 0.9221(19) 0.3613(12)
H47_2 H 0.8281 0.9392 0.3432
C101_2 C 0.7895(14) 0.9146(18) 0.3747(14)
C102_2 C 0.7745(15) 0.8895(23) 0.4007(17)
H48_2 H 0.7551 0.8842 0.4101
C103_2 C 0.786(2) 0.872(3) 0.413(2)
H49_2 H 0.7749 0.8552 0.4319
C104_2 C 0.818(3) 0.882(4) 0.396(3)
C105_2 C 0.8350(19) 0.9084(27) 0.3704(19)
C106_2 C 0.9103(19) 0.9299(28) 0.332(2)
C107_2 C 0.8865(17) 0.9324(23) 0.3382(17)
H50_2 H 0.8863 0.9494 0.3274
C108_2 C 0.863(2) 0.911(3) 0.358(2)
C109_2 C 0.863(3) 0.888(4) 0.379(3)
C110_2 C 0.886(3) 0.883(4) 0.383(2)
H51_2 H 0.8850 0.8676 0.4005
C111_2 C 0.910(2) 0.901(3) 0.359(3)
H52_2 H 0.9259 0.8980 0.3570
C112_2 C 0.939(2) 0.951(3) 0.307(3)
O21_2 O 0.7332(7) 0.9652(10) 0.3232(10)
O24_2 O 0.7020(7) 0.9621(10) 0.4146(10)
O25_2 O 0.6891(7) 0.9161(11) 0.3967(12)
O28_2 O 0.7441(9) 0.9145(12) 0.3666(10)
O29_2 O 0.7875(7) 0.9533(10) 0.3452(10)
O30_2 O 0.7496(12) 0.9631(16) 0.2246(14)
O31_2 O 0.7938(7) 0.9891(10) 0.2617(13)
O34_2 O 0.9642(11) 0.9981(16) 0.1443(15)
O36_2 O 0.9571(14) 0.9412(18) 0.2933(14)
O37_2 O 0.9375(8) 0.9719(12) 0.2914(12)
O38_2 O 0.6971(9) 0.9685(13) 0.1907(13)
Zn9_2 Zn 0.7758(1) 0.9824(1) 0.3188(2)
N6_2 N 0.6230(14) 0.9031(19) 0.581(2)
H54_2 H 0.6072 0.8864 0.5883
N7_2 N 0.836(2) 0.9653(28) 0.069(3)
H55_2 H 0.8288 0.9557 0.0450
N8_2 N 0.8382(18) 0.8698(25) 0.4026(18)
H56_2 H 0.8349 0.8541 0.4178
C113_2 C 0.9725(23) 0.7533(15) 0.382(2)
C114_2 C 0.9288(18) 0.7662(11) 0.3993(16)
H57_2 H 0.9348 0.7796 0.3752
C115_2 C 0.9028(18) 0.7632(12) 0.4219(18)
H58_2 H 0.8943 0.7751 0.4147
C116_2 C 0.8907(17) 0.7410(12) 0.4558(18)
C117_2 C 0.9078(13) 0.7260(9) 0.4697(13)
C118_2 C 0.9340(13) 0.7336(9) 0.4422(14)
H59_2 H 0.9436 0.7230 0.4506
C119_2 C 0.9481(17) 0.7531(11) 0.4056(17)
C120_2 C 0.8924(11) 0.7083(6) 0.5084(8)
C121_2 C 0.8685(9) 0.7132(6) 0.5179(10)
C122_2 C 0.8493(9) 0.6983(7) 0.5538(12)
H60_2 H 0.8333 0.7015 0.5602
C123_2 C 0.8542(11) 0.6787(6) 0.5803(8)
H61_2 H 0.8413 0.6687 0.6043
C124_2 C 0.8780(9) 0.6738(5) 0.5708(10)
C125_2 C 0.8972(9) 0.6887(7) 0.5349(11)
H62_2 H 0.9132 0.6855 0.5285
C126_2 C 0.8841(20) 0.6526(11) 0.601(2)
C140_2 C 0.9813(21) 0.6492(13) 0.650(2)
H72_2 H 0.9994 0.8941 0.1886
C154_2 C 0.9988(25) 0.9453(18) 0.160(3)
O41_2 O 0.9795(10) 0.7766(7) 0.3581(10)
O42_2 O 0.9801(12) 0.7383(8) 0.391(1)
O45_2 O 0.9004(14) 0.6453(8) 0.5834(10)
O46_2 O 0.8687(14) 0.6433(8) 0.6365(12)
O51_2 O 0.9607(11) 0.6504(8) 0.6197(11)
O52_2 O 0.9696(13) 0.6315(10) 0.6814(13)
O54_2 O 0.9944(11) 0.9375(8) 0.2072(14)
O58_2 O 0.9796(14) 0.7286(10) 0.2629(14)
Zn16_2 Zn 0.9932(3) 0.9612(2) 0.2571(2)
N9_2 N 0.8696(12) 0.7330(8) 0.4870(12)
H81_2 H 0.8574 0.7400 0.4876
Zn17_2 Zn 0.8759(1) 0.6191(1) 0.6773(2)
Zn20_2 Zn 0.9312(1) 0.6100(1) 0.6960(2)
Zn23_2 Zn 0.9159(1) 0.6159(2) 0.5941(2)
H85_2 H 0.974321 0.744814 0.266311
H86_2 H 0.97071 0.717378 0.234583
H93_2 H 0.695929 0.987347 0.1887
H94_2 H 0.710187 0.968299 0.166281
O14_3 O 1.0000 0.9999 0.234(2)
Zn6_3 Zn 1.0000 0.9999 0.1712(4)
O14_4 O 0.0001 0.0000 0.234(2)
Zn6_4 Zn 0.0001 0.0000 0.1712(4)
H12_3 H 0.0036 0.6995 0.0196
C14_3 C 0.0140(11) 0.5648(17) 0.935(2)
C28_3 C 0.0174(13) 0.6654(17) 0.984(2)
H40_3 H 0.3005 0.3042 0.0196
C1_3 C 0.9133(15) 0.5525(18) 0.716(2)
C2_3 C 0.9004(11) 0.4959(14) 0.7327(16)
H1_3 H 0.8870 0.4885 0.7086
C3_3 C 0.9034(12) 0.4729(13) 0.7553(18)
H2_3 H 0.8915 0.4525 0.7481
C4_3 C 0.9256(12) 0.4830(12) 0.7892(18)
C5_3 C 0.9406(9) 0.5151(10) 0.8031(13)
C6_3 C 0.9330(9) 0.534(1) 0.7756(14)
H3_3 H 0.9436 0.5539 0.7840
C7_3 C 0.9135(11) 0.5283(13) 0.7390(17)
C8_3 C 0.9583(6) 0.5174(9) 0.8418(8)
C9_3 C 0.9534(6) 0.4886(7) 0.8513(10)
C10_3 C 0.9683(7) 0.4843(6) 0.8872(12)
H4_3 H 0.9651 0.4651 0.8936
C11_3 C 0.9879(6) 0.5088(9) 0.9137(8)
H5_3 H 0.9979 0.5059 0.9377
C12_3 C 0.9928(5) 0.5375(7) 0.9042(10)
C13_3 C 0.9779(7) 0.5418(6) 0.8683(11)
H6_3 H 0.9811 0.5610 0.8619
C15_3 C 0.9113(12) 0.6439(10) 0.7568(12)
C16_3 C 0.9073(7) 0.6784(9) 0.8073(14)
H7_3 H 0.8944 0.6793 0.7861
C17_3 C 0.9213(9) 0.6615(7) 0.7988(10)
C18_3 C 0.9406(7) 0.6603(7) 0.8305(16)
H8_3 H 0.9499 0.6490 0.8248
C19_3 C 0.9460(7) 0.6760(9) 0.8708(12)
C20_3 C 0.9321(10) 0.6929(8) 0.8793(11)
C21_3 C 0.9127(9) 0.6941(8) 0.8476(18)
H9_3 H 0.9034 0.7055 0.8533
C22_3 C 0.9834(10) 0.6685(7) 0.9211(16)
H10_3 H 0.9855 0.6553 0.9018
C23_3 C 0.9662(9) 0.6813(11) 0.9080(11)
C24_3 C 0.9630(10) 0.7010(11) 0.937(2)
C25_3 C 0.9770(12) 0.7078(9) 0.9786(18)
H11_3 H 0.9748 0.7210 0.9978
C26_3 C 0.9942(10) 0.6950(11) 0.9916(10)
C27_3 C 0.9974(8) 0.6753(10) 0.9629(19)
C29_3 C 0.8662(11) 0.5563(16) 0.5598(19)
C30_3 C 0.8549(14) 0.5564(11) 0.482(3)
H13_3 H 0.8688 0.5770 0.4832
C31_3 C 0.8486(11) 0.5387(18) 0.520(2)
C32_3 C 0.8277(14) 0.5079(16) 0.519(2)
H14_3 H 0.8235 0.4960 0.5439
C33_3 C 0.8132(10) 0.4949(12) 0.478(3)
C34_3 C 0.8195(17) 0.513(2) 0.4397(19)
C35_3 C 0.840(2) 0.544(2) 0.442(2)
H15_3 H 0.8445 0.5553 0.4160
C36_3 C 0.7680(16) 0.4389(18) 0.4918(12)
H16_3 H 0.7725 0.4386 0.5220
C37_3 C 0.7859(9) 0.4642(12) 0.466(3)
C38_3 C 0.7791(16) 0.4646(14) 0.421(3)
C39_3 C 0.7543(18) 0.440(2) 0.4016(12)
H17_3 H 0.7497 0.4400 0.3714
C40_3 C 0.736(1) 0.4144(14) 0.428(3)
H18_3 H 0.7197 0.3978 0.4149
C41_3 C 0.7431(13) 0.4140(11) 0.473(2)
C42_3 C 0.7213(18) 0.3868(18) 0.494(3)
C43_3 C 0.8233(12) 0.5636(15) 0.6929(16)
C44_3 C 0.7704(14) 0.5150(13) 0.6947(12)
H19_3 H 0.7778 0.5053 0.6766
C45_3 C 0.7918(12) 0.5439(14) 0.7081(14)
C46_3 C 0.7817(17) 0.5589(15) 0.7341(17)
H20_3 H 0.7958 0.5783 0.7435
C47_3 C 0.753(2) 0.548(2) 0.747(2)
H21_3 H 0.7470 0.5585 0.7653
C48_3 C 0.731(3) 0.516(3) 0.730(3)
C49_3 C 0.7401(19) 0.4984(19) 0.7038(19)
C50_3 C 0.686(2) 0.4231(19) 0.666(2)
C51_3 C 0.7126(16) 0.4469(17) 0.6716(17)
H22_3 H 0.7298 0.4471 0.6608
C52_3 C 0.715(2) 0.471(2) 0.692(2)
C53_3 C 0.692(3) 0.471(3) 0.713(3)
C54_3 C 0.664(3) 0.448(3) 0.717(2)
H23_3 H 0.6493 0.4484 0.7339
C55_3 C 0.658(2) 0.424(2) 0.693(3)
H24_3 H 0.6388 0.4075 0.6904
C56_3 C 0.679(2) 0.395(2) 0.641(3)
O1_3 O 0.8987(7) 0.6002(7) 0.6566(10)
O2_3 O 0.8900(7) 0.5362(7) 0.6915(10)
O3_3 O 0.9283(8) 0.5751(9) 0.725(1)
O4_3 O 0.9268(7) 0.6314(7) 0.7480(10)
O5_3 O 0.8937(8) 0.6443(7) 0.7301(12)
O8_3 O 0.8371(8) 0.5893(9) 0.7000(10)
O9_3 O 0.8325(7) 0.5459(7) 0.6786(10)
O10_3 O 0.8802(10) 0.5838(12) 0.5580(14)
O11_3 O 0.8620(7) 0.5396(7) 0.5951(13)
O14_5 O 0.6666 0.3334 0.568(2)
O15_3 O 0.7006(12) 0.3692(11) 0.4777(15)
O16_3 O 0.7291(8) 0.3902(8) 0.5406(14)
O17_3 O 0.6508(11) 0.3763(14) 0.6267(14)
O18_3 O 0.7011(9) 0.3959(8) 0.6248(12)
O19_3 O 0.9381(9) 0.6363(9) 0.5241(13)
O20_3 O 0.9380(10) 0.5843(10) 0.5963(14)
Zn3_3 Zn 0.8733(1) 0.5576(1) 0.6522(2)
Zn5_3 Zn 0.7054(2) 0.3653(2) 0.5905(2)
Zn6_5 Zn 0.6666 0.3334 0.5046(4)
N1_3 N 0.9336(8) 0.4699(9) 0.8204(12)
H25_3 H 0.9266 0.4507 0.8210
N2_3 N 0.9468(13) 0.7104(14) 0.915(2)
H26_3 H 0.9459 0.7262 0.9217
N3_3 N 0.7963(19) 0.498(2) 0.403(3)
H27_3 H 0.7936 0.5046 0.3784
N4_3 N 0.6983(17) 0.4952(18) 0.7360(18)
H28_3 H 0.6859 0.4985 0.7512
C57_3 C 0.4475(18) 0.3609(23) 0.716(2)
C58_3 C 0.5041(14) 0.4046(18) 0.7327(16)
H29_3 H 0.5115 0.3986 0.7086
C59_3 C 0.5271(13) 0.4306(18) 0.7553(18)
H30_3 H 0.5475 0.4391 0.7481
C60_3 C 0.5170(12) 0.4427(17) 0.7892(18)
C61_3 C 0.4849(10) 0.4256(13) 0.8031(13)
C62_3 C 0.466(1) 0.3994(13) 0.7756(14)
H31_3 H 0.4461 0.3898 0.7840
C63_3 C 0.4717(13) 0.3853(17) 0.7390(17)
C64_3 C 0.4826(9) 0.4410(11) 0.8418(8)
C65_3 C 0.5114(7) 0.4649(9) 0.8513(10)
C66_3 C 0.5157(6) 0.4841(9) 0.8872(12)
H32_3 H 0.5349 0.5001 0.8936
C67_3 C 0.4912(9) 0.4792(11) 0.9137(8)
H33_3 H 0.4941 0.4921 0.9377
C68_3 C 0.4625(7) 0.4554(9) 0.9042(10)
C69_3 C 0.4582(6) 0.4362(9) 0.8683(11)
H34_3 H 0.4390 0.4202 0.8619
C70_3 C 0.4352(17) 0.4493(20) 0.935(2)
C71_3 C 0.3561(10) 0.2675(16) 0.7568(12)
C72_3 C 0.3216(9) 0.2290(11) 0.8073(14)
H35_3 H 0.3207 0.2152 0.7861
C73_3 C 0.3385(7) 0.2599(11) 0.7988(10)
C74_3 C 0.3397(7) 0.2804(10) 0.8305(16)
H36_3 H 0.3510 0.3010 0.8248
C75_3 C 0.3240(9) 0.2701(11) 0.8708(12)
C76_3 C 0.3071(8) 0.2393(13) 0.8793(11)
C77_3 C 0.3059(8) 0.2187(12) 0.8476(18)
H37_3 H 0.2945 0.1980 0.8533
C78_3 C 0.3315(7) 0.3150(12) 0.9211(16)
H38_3 H 0.3447 0.3303 0.9018
C79_3 C 0.3187(11) 0.2850(14) 0.9080(11)
C80_3 C 0.2990(11) 0.2621(15) 0.937(2)
C81_3 C 0.2922(9) 0.2693(15) 0.9786(18)
H39_3 H 0.2790 0.2539 0.9978
C82_3 C 0.3050(11) 0.2993(15) 0.9916(10)
C83_3 C 0.3247(10) 0.3222(13) 0.9629(19)
C84_3 C 0.3346(17) 0.3521(21) 0.984(2)
C85_3 C 0.4437(16) 0.3100(19) 0.5598(19)
C86_3 C 0.4436(11) 0.2986(18) 0.482(3)
H41_3 H 0.4230 0.2919 0.4832
C87_3 C 0.4613(18) 0.3100(21) 0.520(2)
C88_3 C 0.4921(16) 0.3199(21) 0.519(2)
H42_3 H 0.5040 0.3276 0.5439
C89_3 C 0.5051(12) 0.3184(16) 0.478(3)
C90_3 C 0.487(2) 0.3069(26) 0.4397(19)
C91_3 C 0.456(2) 0.297(3) 0.442(2)
H43_3 H 0.4447 0.2893 0.4160
C92_3 C 0.5611(18) 0.3292(24) 0.4918(12)
H44_3 H 0.5614 0.3340 0.5220
C93_3 C 0.5358(12) 0.3218(15) 0.466(3)
C94_3 C 0.5354(14) 0.3146(21) 0.421(3)
C95_3 C 0.560(2) 0.3147(27) 0.4016(12)
H45_3 H 0.5600 0.3098 0.3714
C96_3 C 0.5856(14) 0.3220(17) 0.428(3)
H46_3 H 0.6022 0.3220 0.4149
C97_3 C 0.5860(11) 0.3292(17) 0.473(2)
C98_3 C 0.6132(18) 0.3346(25) 0.494(3)
C99_3 C 0.4364(15) 0.2598(19) 0.6929(16)
C100_3 C 0.4850(13) 0.2555(19) 0.6947(12)
H47_3 H 0.4947 0.2726 0.6766
C101_3 C 0.4561(14) 0.2480(18) 0.7081(14)
C102_3 C 0.4411(15) 0.2229(23) 0.7341(17)
H48_3 H 0.4217 0.2176 0.7435
C103_3 C 0.452(2) 0.206(3) 0.747(2)
H49_3 H 0.4415 0.1886 0.7653
C104_3 C 0.484(3) 0.216(4) 0.730(3)
C105_3 C 0.5016(19) 0.2418(27) 0.7038(19)
C106_3 C 0.5769(19) 0.2633(28) 0.666(2)
C107_3 C 0.5531(17) 0.2658(23) 0.6716(17)
H50_3 H 0.5529 0.2828 0.6608
C108_3 C 0.529(2) 0.245(3) 0.692(2)
C109_3 C 0.529(3) 0.222(4) 0.713(3)
C110_3 C 0.552(3) 0.217(4) 0.717(2)
H51_3 H 0.5516 0.2010 0.7339
C111_3 C 0.576(2) 0.235(3) 0.693(3)
H52_3 H 0.5925 0.2314 0.6904
C112_3 C 0.605(2) 0.285(3) 0.641(3)
O21_3 O 0.3998(7) 0.2986(10) 0.6566(10)
O22_3 O 0.4638(7) 0.3539(10) 0.6915(10)
O23_3 O 0.4249(9) 0.3533(12) 0.725(1)
O24_3 O 0.3686(7) 0.2955(10) 0.7480(10)
O25_3 O 0.3557(7) 0.2495(11) 0.7301(12)
O28_3 O 0.4107(9) 0.2479(12) 0.7000(10)
O29_3 O 0.4541(7) 0.2867(10) 0.6786(10)
O30_3 O 0.4162(12) 0.2965(16) 0.5580(14)
O31_3 O 0.4604(7) 0.3225(10) 0.5951(13)
O34_3 O 0.6308(11) 0.3315(16) 0.4777(15)
O35_3 O 0.6098(8) 0.3390(11) 0.5406(14)
O36_3 O 0.6237(14) 0.2746(18) 0.6267(14)
O37_3 O 0.6041(8) 0.3053(12) 0.6248(12)
O38_3 O 0.3637(9) 0.3019(13) 0.5241(13)
O39_3 O 0.4157(10) 0.3538(14) 0.5963(14)
Zn9_3 Zn 0.4424(1) 0.3158(1) 0.6522(2)
Zn11_3 Zn 0.6347(2) 0.3402(3) 0.5905(2)
N5_3 N 0.5301(9) 0.4638(12) 0.8204(12)
H53_3 H 0.5493 0.4760 0.8210
N6_3 N 0.2896(14) 0.2365(19) 0.915(2)
H54_3 H 0.2738 0.2198 0.9217
N7_3 N 0.502(2) 0.2987(28) 0.403(3)
H55_3 H 0.4954 0.2891 0.3784
N8_3 N 0.5048(18) 0.2032(25) 0.7360(18)
H56_3 H 0.5015 0.1875 0.7512
C113_3 C 0.6391(23) 0.0867(15) 0.716(2)
C114_3 C 0.5954(18) 0.0996(11) 0.7327(16)
H57_3 H 0.6014 0.1130 0.7086
C115_3 C 0.5694(18) 0.0966(12) 0.7553(18)
H58_3 H 0.5609 0.1085 0.7481
C116_3 C 0.5573(17) 0.0744(12) 0.7892(18)
C117_3 C 0.5744(13) 0.0594(9) 0.8031(13)
C118_3 C 0.6006(13) 0.0670(9) 0.7756(14)
H59_3 H 0.6102 0.0564 0.7840
C119_3 C 0.6147(17) 0.0865(11) 0.7390(17)
C120_3 C 0.5590(11) 0.0417(6) 0.8418(8)
C121_3 C 0.5351(9) 0.0466(6) 0.8513(10)
C122_3 C 0.5159(9) 0.0317(7) 0.8872(12)
H60_3 H 0.4999 0.0349 0.8936
C123_3 C 0.5208(11) 0.0121(6) 0.9137(8)
H61_3 H 0.5079 0.0021 0.9377
C124_3 C 0.5446(9) 0.0072(5) 0.9042(10)
C125_3 C 0.5638(9) 0.0221(7) 0.8683(11)
H62_3 H 0.5798 0.0189 0.8619
C127_3 C 0.7325(16) 0.0887(12) 0.7568(12)
C128_3 C 0.7710(11) 0.0927(7) 0.8073(14)
H63_3 H 0.7848 0.1056 0.7861
C129_3 C 0.7401(11) 0.0787(9) 0.7988(10)
C130_3 C 0.7196(10) 0.0594(7) 0.8305(16)
H64_3 H 0.6990 0.0501 0.8248
C131_3 C 0.7299(11) 0.0540(7) 0.8708(12)
C132_3 C 0.7607(13) 0.0679(10) 0.8793(11)
C133_3 C 0.7813(12) 0.0873(9) 0.8476(18)
H65_3 H 0.8020 0.0966 0.8533
C134_3 C 0.6850(12) 0.0166(10) 0.9211(16)
H66_3 H 0.6697 0.0145 0.9018
C135_3 C 0.7150(14) 0.0338(9) 0.9080(11)
C136_3 C 0.7379(15) 0.0370(10) 0.937(2)
C137_3 C 0.7307(15) 0.0230(12) 0.9786(18)
H67_3 H 0.7461 0.0252 0.9978
C138_3 C 0.7007(15) 0.0058(10) 0.9916(10)
C139_3 C 0.6778(13) 0.0026(8) 0.9629(19)
C141_3 C 0.6900(19) 0.1338(11) 0.5598(19)
C142_3 C 0.7014(18) 0.1451(14) 0.482(3)
H69_3 H 0.7081 0.1312 0.4832
C143_3 C 0.6900(21) 0.1514(11) 0.520(2)
C144_3 C 0.6801(21) 0.1723(14) 0.519(2)
H70_3 H 0.6724 0.1765 0.5439
C145_3 C 0.6816(16) 0.1868(10) 0.478(3)
C146_3 C 0.6931(26) 0.1805(17) 0.4397(19)
C147_3 C 0.703(3) 0.160(2) 0.442(2)
H71_3 H 0.7107 0.1555 0.4160
C148_3 C 0.6708(24) 0.2320(16) 0.4918(12)
H72_3 H 0.6660 0.2275 0.5220
C149_3 C 0.6782(15) 0.2141(9) 0.466(3)
C150_3 C 0.6854(21) 0.2209(16) 0.421(3)
C151_3 C 0.6853(27) 0.2457(18) 0.4016(12)
H73_3 H 0.6902 0.2503 0.3714
C152_3 C 0.6780(17) 0.264(1) 0.428(3)
H74_3 H 0.6780 0.2803 0.4149
C153_3 C 0.6708(17) 0.2569(13) 0.473(2)
C154_3 C 0.6654(25) 0.2787(18) 0.494(3)
C155_3 C 0.7402(19) 0.1767(12) 0.6929(16)
C156_3 C 0.7445(19) 0.2296(14) 0.6947(12)
H75_3 H 0.7274 0.2222 0.6766
C157_3 C 0.7520(18) 0.2082(12) 0.7081(14)
C158_3 C 0.7771(23) 0.2183(17) 0.7341(17)
H76_3 H 0.7824 0.2042 0.7435
C159_3 C 0.794(3) 0.247(2) 0.747(2)
H77_3 H 0.8114 0.2530 0.7653
C160_3 C 0.784(4) 0.269(3) 0.730(3)
C161_3 C 0.7582(27) 0.2599(19) 0.7038(19)
C162_3 C 0.7367(28) 0.314(2) 0.666(2)
C163_3 C 0.7342(23) 0.2874(16) 0.6716(17)
H78_3 H 0.7172 0.2702 0.6608
C164_3 C 0.755(3) 0.285(2) 0.692(2)
C165_3 C 0.778(4) 0.308(3) 0.713(3)
C166_3 C 0.783(4) 0.336(3) 0.717(2)
H79_3 H 0.7990 0.3507 0.7339
C167_3 C 0.765(3) 0.342(2) 0.693(3)
H80_3 H 0.7686 0.3612 0.6904
C168_3 C 0.715(3) 0.321(2) 0.641(3)
O40_3 O 0.7014(10) 0.1013(7) 0.6566(10)
O41_3 O 0.6461(10) 0.1100(7) 0.6915(10)
O42_3 O 0.6467(12) 0.0717(8) 0.725(1)
O43_3 O 0.7045(10) 0.0732(7) 0.7480(10)
O44_3 O 0.7505(11) 0.1063(8) 0.7301(12)
O47_3 O 0.7521(12) 0.1629(8) 0.7000(10)
O48_3 O 0.7133(10) 0.1675(7) 0.6786(10)
O49_3 O 0.7035(16) 0.1198(10) 0.5580(14)
O50_3 O 0.6775(10) 0.1380(7) 0.5951(13)
O53_3 O 0.6685(16) 0.2994(12) 0.4777(15)
O54_3 O 0.6610(11) 0.2709(8) 0.5406(14)
O55_3 O 0.7254(18) 0.3492(11) 0.6267(14)
O56_3 O 0.6947(12) 0.2989(9) 0.6248(12)
O57_3 O 0.6981(13) 0.0619(9) 0.5241(13)
O58_3 O 0.6462(14) 0.0620(10) 0.5963(14)
Zn14_3 Zn 0.6842(1) 0.1267(1) 0.6522(2)
Zn16_3 Zn 0.6598(3) 0.2946(2) 0.5905(2)
N9_3 N 0.5362(12) 0.0664(8) 0.8204(12)
H81_3 H 0.5240 0.0734 0.8210
N10_3 N 0.7635(19) 0.0532(13) 0.915(2)
H82_3 H 0.7802 0.0541 0.9217
N11_3 N 0.7013(28) 0.2037(19) 0.403(3)
H83_3 H 0.7109 0.2064 0.3784
N12_3 N 0.7968(25) 0.3017(17) 0.7360(18)
H84_3 H 0.8125 0.3141 0.7512
H85_3 H 0.640988 0.0781471 0.599645
H86_3 H 0.637377 0.050711 0.567916
H87_3 H 0.67932 0.0419149 0.522033
H88_3 H 0.698367 0.075221 0.499615
H89_3 H 0.958085 0.637405 0.522033
H90_3 H 0.924779 0.623146 0.499615
H91_3 H 0.921853 0.562841 0.599645
H92_3 H 0.949289 0.586666 0.567916
H93_3 H 0.362595 0.32068 0.522033
H94_3 H 0.376854 0.301633 0.499615
H95_3 H 0.437159 0.359012 0.599645
H96_3 H 0.413334 0.362623 0.567916
H68_3 H 0.6958 0.9964 0.0196
C126_3 C 0.5507(20) 0.9860(11) 0.935(2)
C140_3 C 0.6479(21) 0.9826(13) 0.984(2)
C72_4 C 0.0117(9) 0.4377(11) 0.8594(14)
H35_4 H 0.0126 0.4515 0.8806
C75_4 C 0.0093(9) 0.3966(11) 0.7959(12)
C76_4 C 0.0262(8) 0.4274(13) 0.7874(11)
C77_4 C 0.0274(8) 0.4480(12) 0.8191(18)
H37_4 H 0.0388 0.4687 0.8134
C78_4 C 0.0018(7) 0.3517(12) 0.7456(16)
C79_4 C 0.0146(11) 0.3817(14) 0.7587(11)
C80_4 C 0.0343(11) 0.4046(15) 0.730(2)
C81_4 C 0.0411(9) 0.3974(15) 0.6881(18)
H39_4 H 0.0543 0.4128 0.6689
C82_4 C 0.0283(11) 0.3674(15) 0.6751(10)
H40_4 H 0.0328 0.3625 0.6471
C83_4 C 0.0086(10) 0.3445(13) 0.7038(19)
O33_3 O 0.0047(9) 0.3029(13) 0.6519(13)
N6_4 N 0.0437(14) 0.4302(19) 0.752(2)
H54_4 H 0.0595 0.4469 0.7450
C29_4 C 0.4671(11) 0.1104(16) 0.1069(19)
C30_4 C 0.4784(14) 0.1103(11) 0.185(3)
H13_4 H 0.4645 0.0897 0.1835
C31_4 C 0.4847(11) 0.1280(18) 0.147(2)
C32_4 C 0.5056(14) 0.1588(16) 0.148(2)
H14_4 H 0.5098 0.1707 0.1228
C33_4 C 0.5201(10) 0.1718(12) 0.189(3)
C34_4 C 0.5138(17) 0.154(2) 0.2270(19)
C35_4 C 0.493(2) 0.123(2) 0.225(2)
H15_4 H 0.4888 0.1114 0.2507
C36_4 C 0.5653(16) 0.2278(18) 0.1749(12)
H16_4 H 0.5608 0.2281 0.1447
C37_4 C 0.5474(9) 0.2025(12) 0.201(3)
C38_4 C 0.5542(16) 0.2021(14) 0.246(3)
C39_4 C 0.5790(18) 0.227(2) 0.2651(12)
H17_4 H 0.5836 0.2267 0.2953
C40_4 C 0.597(1) 0.2523(14) 0.239(3)
H18_4 H 0.6136 0.2689 0.2518
C41_4 C 0.5902(13) 0.2527(11) 0.194(2)
C42_4 C 0.6120(18) 0.2799(18) 0.173(3)
C50_4 C 0.647(2) 0.2436(19) 0.001(2)
H22_4 H 0.6035 0.2196 0.0059
C56_4 C 0.654(2) 0.272(2) 0.026(3)
O1_4 O 0.4346(7) 0.0665(7) 0.0101(10)
O10_4 O 0.4531(10) 0.0829(12) 0.1087(14)
O11_4 O 0.4713(7) 0.1271(7) 0.0716(13)
O14_6 O 0.6667 0.3333 0.099(2)
O15_4 O 0.6327(12) 0.2975(11) 0.1890(15)
O16_4 O 0.6042(8) 0.2765(8) 0.1261(14)
O17_4 O 0.6825(11) 0.2904(14) 0.0400(14)
O18_4 O 0.6322(9) 0.2708(8) 0.0419(12)
O19_4 O 0.3952(9) 0.0304(9) 0.1426(13)
O20_4 O 0.3953(10) 0.0824(10) 0.0704(14)
Zn3_4 Zn 0.4600(1) 0.1091(1) 0.0145(2)
Zn4_2 Zn 0.4174(1) 0.0508(2) 0.0726(2)
Zn5_4 Zn 0.6279(2) 0.3014(2) 0.0762(2)
Zn6_6 Zn 0.6667 0.3333 0.1621(4)
N3_4 N 0.5370(19) 0.169(2) 0.264(3)
H27_4 H 0.5397 0.1621 0.2883
C85_4 C 0.8896(16) 0.3567(19) 0.1069(19)
C86_4 C 0.8897(11) 0.3681(18) 0.185(3)
H41_4 H 0.9103 0.3748 0.1835
C87_4 C 0.8720(18) 0.3567(21) 0.147(2)
C88_4 C 0.8412(16) 0.3468(21) 0.148(2)
H42_4 H 0.8293 0.3391 0.1228
C89_4 C 0.8282(12) 0.3483(16) 0.189(3)
C90_4 C 0.846(2) 0.3598(26) 0.2270(19)
C91_4 C 0.877(2) 0.370(3) 0.225(2)
H43_4 H 0.8886 0.3774 0.2507
C92_4 C 0.7722(18) 0.3375(24) 0.1749(12)
H44_4 H 0.7719 0.3327 0.1447
C93_4 C 0.7975(12) 0.3449(15) 0.201(3)
C94_4 C 0.7979(14) 0.3521(21) 0.246(3)
C95_4 C 0.773(2) 0.3520(27) 0.2651(12)
H45_4 H 0.7733 0.3569 0.2953
C96_4 C 0.7477(14) 0.3447(17) 0.239(3)
H46_4 H 0.7311 0.3447 0.2518
C97_4 C 0.7473(11) 0.3375(17) 0.194(2)
C98_4 C 0.7201(18) 0.3321(25) 0.173(3)
C106_4 C 0.7564(19) 0.4034(28) 0.001(2)
H50_4 H 0.7804 0.3839 0.0059
C112_4 C 0.728(2) 0.382(3) 0.026(3)
O21_4 O 0.9335(7) 0.3681(10) 0.0101(10)
O30_4 O 0.9171(12) 0.3702(16) 0.1087(14)
O31_4 O 0.8729(7) 0.3442(10) 0.0716(13)
O34_4 O 0.7025(11) 0.3352(16) 0.1890(15)
O35_4 O 0.7235(8) 0.3277(11) 0.1261(14)
O36_4 O 0.7096(14) 0.3921(18) 0.0400(14)
O37_4 O 0.7292(8) 0.3614(12) 0.0419(12)
O38_4 O 0.9696(9) 0.3648(13) 0.1426(13)
O39_4 O 0.9176(10) 0.3129(14) 0.0704(14)
Zn9_4 Zn 0.8909(1) 0.3509(1) 0.0145(2)
Zn10_2 Zn 0.9492(2) 0.3666(2) 0.0726(2)
Zn11_4 Zn 0.6986(2) 0.3265(3) 0.0762(2)
N7_4 N 0.831(2) 0.3680(28) 0.264(3)
H55_4 H 0.8379 0.3776 0.2883
C141_4 C 0.6433(19) 0.5329(11) 0.1069(19)
C142_4 C 0.6319(18) 0.5216(14) 0.185(3)
H69_4 H 0.6252 0.5355 0.1835
C143_4 C 0.6433(21) 0.5153(11) 0.147(2)
C144_4 C 0.6532(21) 0.4944(14) 0.148(2)
H70_4 H 0.6609 0.4902 0.1228
C145_4 C 0.6517(16) 0.4799(10) 0.189(3)
C146_4 C 0.6402(26) 0.4862(17) 0.2270(19)
C147_4 C 0.630(3) 0.507(2) 0.225(2)
H71_4 H 0.6226 0.5112 0.2507
C148_4 C 0.6625(24) 0.4347(16) 0.1749(12)
H72_4 H 0.6673 0.4392 0.1447
C149_4 C 0.6551(15) 0.4526(9) 0.201(3)
C150_4 C 0.6479(21) 0.4458(16) 0.246(3)
C151_4 C 0.6480(27) 0.4210(18) 0.2651(12)
H73_4 H 0.6431 0.4164 0.2953
C152_4 C 0.6553(17) 0.403(1) 0.239(3)
H74_4 H 0.6553 0.3864 0.2518
C153_4 C 0.6625(17) 0.4098(13) 0.194(2)
C154_4 C 0.6679(25) 0.3880(18) 0.173(3)
C162_4 C 0.5966(28) 0.353(2) 0.001(2)
H78_4 H 0.6161 0.3965 0.0059
C168_4 C 0.618(3) 0.346(2) 0.026(3)
O40_4 O 0.6319(10) 0.5654(7) 0.0101(10)
O49_4 O 0.6298(16) 0.5469(10) 0.1087(14)
O50_4 O 0.6558(10) 0.5287(7) 0.0716(13)
O53_4 O 0.6648(16) 0.3673(12) 0.1890(15)
O54_4 O 0.6723(11) 0.3958(8) 0.1261(14)
O55_4 O 0.6079(18) 0.3175(11) 0.0400(14)
O56_4 O 0.6386(12) 0.3678(9) 0.0419(12)
O57_4 O 0.6352(13) 0.6048(9) 0.1426(13)
O58_4 O 0.6871(14) 0.6047(10) 0.0704(14)
Zn14_4 Zn 0.6491(1) 0.5400(1) 0.0145(2)
Zn15_2 Zn 0.6334(2) 0.5826(1) 0.0726(2)
Zn16_4 Zn 0.6735(3) 0.3721(2) 0.0762(2)
N11_4 N 0.6320(28) 0.4630(19) 0.264(3)
H83_4 H 0.6224 0.4603 0.2883
O59_2 O 0.9787(8) 0.4116(11) 0.0832(10)
O60_2 O 0.5884(11) 0.5670(14) 0.0832(10)
O61_2 O 0.4330(14) 0.0213(8) 0.0832(10)
O62_2 O 0.9767(8) 0.4413(11) 0.0301(12)
O63_2 O 0.5587(11) 0.5353(14) 0.0301(12)
O64_2 O 0.4647(14) 0.0233(8) 0.0301(12)
O65_2 O 0.9838(8) 0.3564(8) 0.0469(11)
O66_2 O 0.6436(8) 0.6273(11) 0.0469(11)
O67_2 O 0.3727(11) 0.0162(8) 0.0469(11)
H85_4 H 0.692346 0.58852 0.0670219
H86_4 H 0.695956 0.615956 0.0987507
H87_4 H 0.654014 0.624752 0.144634
H88_4 H 0.634966 0.591446 0.167052
H89_4 H 0.375248 0.029262 0.144634
H90_4 H 0.408554 0.0435203 0.167052
H91_4 H 0.41148 0.103826 0.0670219
H92_4 H 0.384044 0.0800006 0.0987507
H93_4 H 0.970738 0.345986 0.144634
H94_4 H 0.95648 0.365034 0.167052
H95_4 H 0.896174 0.307654 0.0670219
H96_4 H 0.919999 0.304044 0.0987507
C1_4 C 0.4200(15) 0.1142(18) 0.951(2)
C2_4 C 0.4329(11) 0.1708(14) 0.9340(16)
H1_4 H 0.4463 0.1782 0.9581
C3_4 C 0.4299(12) 0.1938(13) 0.9114(18)
H2_4 H 0.4418 0.2142 0.9186
C4_4 C 0.4077(12) 0.1837(12) 0.8775(18)
C5_4 C 0.3927(9) 0.1516(10) 0.8636(13)
C6_4 C 0.4003(9) 0.133(1) 0.8911(14)
H3_4 H 0.3897 0.1128 0.8827
C7_4 C 0.4198(11) 0.1384(13) 0.9277(17)
C8_4 C 0.3750(6) 0.1493(9) 0.8249(8)
C9_4 C 0.3799(6) 0.1781(7) 0.8154(10)
C10_4 C 0.3650(7) 0.1824(6) 0.7795(12)
H4_4 H 0.3682 0.2016 0.7731
C11_4 C 0.3454(6) 0.1579(9) 0.7530(8)
H5_4 H 0.3354 0.1608 0.7290
C12_4 C 0.3405(5) 0.1292(7) 0.7625(10)
C13_4 C 0.3554(7) 0.1249(6) 0.7984(11)
H6_4 H 0.3522 0.1057 0.8048
C14_4 C 0.3193(11) 0.1019(17) 0.732(2)
C15_4 C 0.4220(12) 0.0228(10) 0.9099(12)
C17_4 C 0.4120(9) 0.0052(7) 0.8679(10)
C18_4 C 0.3927(7) 0.0064(7) 0.8362(16)
H8_4 H 0.3834 0.0177 0.8419
H10_4 H 0.3478 0.0114 0.7649
C28_4 C 0.3159(13) 0.0013(17) 0.683(2)
C43_4 C 0.5100(12) 0.1031(15) 0.9738(16)
C44_4 C 0.5629(14) 0.1517(13) 0.9720(12)
H19_4 H 0.5555 0.1614 0.9901
C45_4 C 0.5415(12) 0.1228(14) 0.9586(14)
C46_4 C 0.5516(17) 0.1078(15) 0.9326(17)
H20_4 H 0.5375 0.0884 0.9232
C47_4 C 0.580(2) 0.119(2) 0.920(2)
H21_4 H 0.5863 0.1082 0.9014
C48_4 C 0.602(3) 0.151(3) 0.937(3)
C49_4 C 0.5932(19) 0.1683(19) 0.9629(19)
C51_4 C 0.6207(16) 0.2198(17) 0.9951(17)
C52_4 C 0.618(2) 0.196(2) 0.975(2)
C53_4 C 0.641(3) 0.196(3) 0.954(3)
C54_4 C 0.669(3) 0.219(3) 0.950(2)
H23_4 H 0.6840 0.2183 0.9328
C55_4 C 0.675(2) 0.243(2) 0.974(3)
H24_4 H 0.6945 0.2592 0.9763
O2_4 O 0.4433(7) 0.1305(7) 0.9752(10)
O3_4 O 0.4050(8) 0.0916(9) 0.942(1)
O4_4 O 0.4065(7) 0.0353(7) 0.9187(10)
O5_4 O 0.4396(8) 0.0224(7) 0.9366(12)
O6_3 O 0.3120(8) 0.0783(11) 0.7499(10)
O7_3 O 0.3100(8) 0.1080(11) 0.6968(12)
O8_4 O 0.4962(8) 0.0774(9) 0.9667(10)
O9_4 O 0.5008(7) 0.1208(7) 0.9881(10)
O12_3 O 0.3171(8) 0.0231(8) 0.7136(11)
Zn1_2 Zn 0.4574(1) 0.0476(1) 0.9894(2)
Zn2_2 Zn 0.4021(1) 0.0567(1) 0.9707(2)
N1_4 N 0.3997(8) 0.1968(9) 0.8463(12)
H25_4 H 0.4067 0.2160 0.8457
N4_4 N 0.6350(17) 0.1715(18) 0.9307(18)
H28_4 H 0.6474 0.1682 0.9155
C57_4 C 0.8858(18) 0.3058(23) 0.951(2)
C58_4 C 0.8292(14) 0.2621(18) 0.9340(16)
H29_4 H 0.8218 0.2681 0.9581
C59_4 C 0.8062(13) 0.2361(18) 0.9114(18)
H30_4 H 0.7858 0.2276 0.9186
C60_4 C 0.8163(12) 0.2240(17) 0.8775(18)
C61_4 C 0.8484(10) 0.2411(13) 0.8636(13)
C62_4 C 0.867(1) 0.2673(13) 0.8911(14)
H31_4 H 0.8872 0.2769 0.8827
C63_4 C 0.8616(13) 0.2814(17) 0.9277(17)
C64_4 C 0.8507(9) 0.2257(11) 0.8249(8)
C65_4 C 0.8219(7) 0.2018(9) 0.8154(10)
C66_4 C 0.8176(6) 0.1826(9) 0.7795(12)
H32_4 H 0.7984 0.1666 0.7731
C67_4 C 0.8421(9) 0.1875(11) 0.7530(8)
H33_4 H 0.8392 0.1746 0.7290
C68_4 C 0.8708(7) 0.2113(9) 0.7625(10)
C69_4 C 0.8751(6) 0.2305(9) 0.7984(11)
H34_4 H 0.8943 0.2465 0.8048
C70_4 C 0.8981(17) 0.2174(20) 0.732(2)
C71_4 C 0.9772(10) 0.3992(16) 0.9099(12)
C73_4 C 0.9948(7) 0.4068(11) 0.8679(10)
C74_4 C 0.9936(7) 0.3863(10) 0.8362(16)
H36_4 H 0.9823 0.3657 0.8419
H38_4 H 0.9886 0.3364 0.7649
C84_4 C 0.9987(17) 0.3146(21) 0.683(2)
C99_4 C 0.8969(15) 0.4069(19) 0.9738(16)
C100_4 C 0.8483(13) 0.4112(19) 0.9720(12)
H47_4 H 0.8386 0.3941 0.9901
C101_4 C 0.8772(14) 0.4187(18) 0.9586(14)
C102_4 C 0.8922(15) 0.4438(23) 0.9326(17)
H48_4 H 0.9116 0.4491 0.9232
C103_4 C 0.881(2) 0.461(3) 0.920(2)
H49_4 H 0.8918 0.4781 0.9014
C104_4 C 0.849(3) 0.451(4) 0.937(3)
C105_4 C 0.8317(19) 0.4249(27) 0.9629(19)
C107_4 C 0.7802(17) 0.4009(23) 0.9951(17)
C108_4 C 0.804(2) 0.422(3) 0.975(2)
C109_4 C 0.804(3) 0.445(4) 0.954(3)
C110_4 C 0.781(3) 0.450(4) 0.950(2)
H51_4 H 0.7817 0.4657 0.9328
C111_4 C 0.757(2) 0.432(3) 0.974(3)
H52_4 H 0.7408 0.4353 0.9763
O22_4 O 0.8695(7) 0.3128(10) 0.9752(10)
O23_4 O 0.9084(9) 0.3134(12) 0.942(1)
O24_4 O 0.9647(7) 0.3712(10) 0.9187(10)
O25_4 O 0.9776(7) 0.4172(11) 0.9366(12)
O26_3 O 0.9217(11) 0.2337(14) 0.7499(10)
O27_3 O 0.8920(11) 0.2020(14) 0.6968(12)
O28_4 O 0.9226(9) 0.4188(12) 0.9667(10)
O29_4 O 0.8792(7) 0.3800(10) 0.9881(10)
O32_3 O 0.9769(8) 0.2940(11) 0.7136(11)
Zn7_2 Zn 0.9524(1) 0.4098(1) 0.9894(2)
Zn8_2 Zn 0.9433(1) 0.3454(1) 0.9707(2)
N5_4 N 0.8032(9) 0.2029(12) 0.8463(12)
H53_4 H 0.7840 0.1907 0.8457
N8_4 N 0.8285(18) 0.4635(25) 0.9307(18)
H56_4 H 0.8318 0.4792 0.9155
C113_4 C 0.6942(23) 0.5800(15) 0.951(2)
C114_4 C 0.7379(18) 0.5671(11) 0.9340(16)
H57_4 H 0.7319 0.5537 0.9581
C115_4 C 0.7639(18) 0.5701(12) 0.9114(18)
H58_4 H 0.7724 0.5582 0.9186
C116_4 C 0.7760(17) 0.5923(12) 0.8775(18)
C117_4 C 0.7589(13) 0.6073(9) 0.8636(13)
C118_4 C 0.7327(13) 0.5997(9) 0.8911(14)
H59_4 H 0.7231 0.6103 0.8827
C119_4 C 0.7186(17) 0.5802(11) 0.9277(17)
C120_4 C 0.7743(11) 0.6250(6) 0.8249(8)
C121_4 C 0.7982(9) 0.6201(6) 0.8154(10)
C122_4 C 0.8174(9) 0.6350(7) 0.7795(12)
H60_4 H 0.8334 0.6318 0.7731
C123_4 C 0.8125(11) 0.6546(6) 0.7530(8)
H61_4 H 0.8254 0.6646 0.7290
C124_4 C 0.7887(9) 0.6595(5) 0.7625(10)
C125_4 C 0.7695(9) 0.6446(7) 0.7984(11)
H62_4 H 0.7535 0.6478 0.8048
C126_4 C 0.7826(20) 0.6807(11) 0.732(2)
C127_4 C 0.6008(16) 0.5780(12) 0.9099(12)
C128_4 C 0.5623(11) 0.5740(7) 0.8594(14)
H63_4 H 0.5485 0.5611 0.8806
C129_4 C 0.5932(11) 0.5880(9) 0.8679(10)
C130_4 C 0.6137(10) 0.6073(7) 0.8362(16)
H64_4 H 0.6343 0.6166 0.8419
C131_4 C 0.6034(11) 0.6127(7) 0.7959(12)
C132_4 C 0.5726(13) 0.5988(10) 0.7874(11)
C133_4 C 0.5520(12) 0.5794(9) 0.8191(18)
H65_4 H 0.5313 0.5701 0.8134
C134_4 C 0.6483(12) 0.6501(10) 0.7456(16)
H66_4 H 0.6636 0.6522 0.7649
C135_4 C 0.6183(14) 0.6329(9) 0.7587(11)
C136_4 C 0.5954(15) 0.6297(10) 0.730(2)
C137_4 C 0.6026(15) 0.6437(12) 0.6881(18)
H67_4 H 0.5872 0.6415 0.6689
C138_4 C 0.6326(15) 0.6609(10) 0.6751(10)
H68_4 H 0.6375 0.6703 0.6471
C139_4 C 0.6555(13) 0.6641(8) 0.7038(19)
C140_4 C 0.6854(21) 0.6841(13) 0.683(2)
C155_4 C 0.5931(19) 0.4900(12) 0.9738(16)
C156_4 C 0.5888(19) 0.4371(14) 0.9720(12)
H75_4 H 0.6059 0.4445 0.9901
C157_4 C 0.5813(18) 0.4585(12) 0.9586(14)
C158_4 C 0.5562(23) 0.4484(17) 0.9326(17)
H76_4 H 0.5509 0.4625 0.9232
C159_4 C 0.539(3) 0.420(2) 0.920(2)
H77_4 H 0.5219 0.4137 0.9014
C160_4 C 0.549(4) 0.398(3) 0.937(3)
C161_4 C 0.5751(27) 0.4068(19) 0.9629(19)
C163_4 C 0.5991(23) 0.3793(16) 0.9951(17)
C164_4 C 0.578(3) 0.382(2) 0.975(2)
C165_4 C 0.555(4) 0.359(3) 0.954(3)
C166_4 C 0.550(4) 0.331(3) 0.950(2)
H79_4 H 0.5343 0.3160 0.9328
C167_4 C 0.568(3) 0.325(2) 0.974(3)
H80_4 H 0.5647 0.3055 0.9763
O41_4 O 0.6872(10) 0.5567(7) 0.9752(10)
O42_4 O 0.6866(12) 0.5950(8) 0.942(1)
O43_4 O 0.6288(10) 0.5935(7) 0.9187(10)
O44_4 O 0.5828(11) 0.5604(8) 0.9366(12)
O45_3 O 0.7663(14) 0.6880(8) 0.7499(10)
O46_3 O 0.7980(14) 0.6900(8) 0.6968(12)
O47_4 O 0.5812(12) 0.5038(8) 0.9667(10)
O48_4 O 0.6200(10) 0.4992(7) 0.9881(10)
O51_3 O 0.7060(11) 0.6829(8) 0.7136(11)
O52_3 O 0.6971(13) 0.7018(10) 0.6519(13)
Zn12_2 Zn 0.5902(1) 0.5426(1) 0.9894(2)
Zn13_2 Zn 0.6546(1) 0.5979(1) 0.9707(2)
N9_4 N 0.7971(12) 0.6003(8) 0.8463(12)
H81_4 H 0.8093 0.5933 0.8457
N10_4 N 0.5698(19) 0.6135(13) 0.752(2)
H82_4 H 0.5531 0.6126 0.7450
N12_4 N 0.5365(25) 0.3650(17) 0.9307(18)
H84_4 H 0.5208 0.3526 0.9155
O68_2 O 0.9649(10) 0.3286(9) 0.9852(13)
O69_2 O 0.6714(9) 0.6362(13) 0.9852(13)
O70_2 O 0.3638(13) 0.0351(10) 0.9852(13)
Zn17_3 Zn 0.7907(1) 0.7143(1) 0.6561(2)
Zn18_3 Zn 0.2857(1) 0.0765(1) 0.6561(2)
Zn19_3 Zn 0.9235(1) 0.2093(1) 0.6561(2)
Zn20_3 Zn 0.7354(1) 0.7234(1) 0.6374(2)
Zn21_3 Zn 0.2766(1) 0.0121(1) 0.6374(2)
Zn22_3 Zn 0.9879(1) 0.2646(1) 0.6374(2)
Zn23_3 Zn 0.7507(1) 0.7175(2) 0.7393(2)
Zn24_3 Zn 0.2825(2) 0.0333(2) 0.7393(2)
Zn25_3 Zn 0.9667(2) 0.2493(1) 0.7393(2)
C16_4 C 0.4260(7) 0.9883(9) 0.8594(14)
H7_4 H 0.4389 0.9874 0.8806
C19_4 C 0.3873(7) 0.9907(9) 0.7959(12)
C20_4 C 0.4012(10) 0.9738(8) 0.7874(11)
C21_4 C 0.4206(9) 0.9726(8) 0.8191(18)
H9_4 H 0.4299 0.9612 0.8134
C22_4 C 0.3499(10) 0.9982(7) 0.7456(16)
C23_4 C 0.3671(9) 0.9854(11) 0.7587(11)
C24_4 C 0.3703(10) 0.9657(11) 0.730(2)
C25_4 C 0.3563(12) 0.9589(9) 0.6881(18)
H11_4 H 0.3585 0.9457 0.6689
C26_4 C 0.3391(10) 0.9717(11) 0.6751(10)
H12_4 H 0.3297 0.9672 0.6471
C27_4 C 0.3359(8) 0.9914(10) 0.7038(19)
O13_3 O 0.2982(10) 0.9953(9) 0.6519(13)
N2_4 N 0.3865(13) 0.9563(14) 0.752(2)
H26_4 H 0.3874 0.9405 0.7450
C71_5 C 0.3105(10) 0.0659(16) 0.5766(12)
C72_5 C 0.3450(9) 0.1044(11) 0.5261(14)
H35_5 H 0.3459 0.1182 0.5473
C73_5 C 0.3281(7) 0.0735(11) 0.5346(10)
C74_5 C 0.3269(7) 0.0530(10) 0.5029(16)
H36_5 H 0.3156 0.0324 0.5086
C75_5 C 0.3426(9) 0.0633(11) 0.4626(12)
C76_5 C 0.3595(8) 0.0941(13) 0.4541(11)
C77_5 C 0.3607(8) 0.1147(12) 0.4858(18)
H37_5 H 0.3721 0.1354 0.4801
C78_5 C 0.3351(7) 0.0184(12) 0.4123(16)
H38_5 H 0.3219 0.0031 0.4316
C79_5 C 0.3479(11) 0.0484(14) 0.4254(11)
C80_5 C 0.3676(11) 0.0713(15) 0.397(2)
C81_5 C 0.3744(9) 0.0641(15) 0.3548(18)
H39_5 H 0.3876 0.0795 0.3356
C82_5 C 0.3616(11) 0.0341(15) 0.3418(10)
H40_5 H 0.3661 0.0292 0.3138
C83_5 C 0.3419(10) 0.0112(13) 0.3705(19)
C85_5 C 0.2229(16) 0.0234(19) 0.7736(19)
C86_5 C 0.2230(11) 0.0348(18) 0.852(3)
H41_5 H 0.2436 0.0415 0.8502
C87_5 C 0.2053(18) 0.0234(21) 0.814(2)
C88_5 C 0.1745(16) 0.0135(21) 0.815(2)
H42_5 H 0.1626 0.0058 0.7895
C89_5 C 0.1615(12) 0.0150(16) 0.856(3)
C90_5 C 0.179(2) 0.0265(26) 0.8937(19)
C91_5 C 0.210(2) 0.037(3) 0.892(2)
H43_5 H 0.2219 0.0441 0.9174
C92_5 C 0.1055(18) 0.0042(24) 0.8416(12)
C93_5 C 0.1308(12) 0.0116(15) 0.868(3)
C94_5 C 0.1312(14) 0.0188(21) 0.913(3)
C95_5 C 0.106(2) 0.0187(27) 0.9318(12)
H45_5 H 0.1066 0.0236 0.9620
C96_5 C 0.0810(14) 0.0114(17) 0.906(3)
H46_5 H 0.0644 0.0114 0.9185
C97_5 C 0.0806(11) 0.0042(17) 0.861(2)
C99_5 C 0.2302(15) 0.0736(19) 0.6405(16)
C100_5 C 0.1816(13) 0.0779(19) 0.6387(12)
H47_5 H 0.1719 0.0608 0.6568
C101_5 C 0.2105(14) 0.0854(18) 0.6253(14)
C102_5 C 0.2255(15) 0.1105(23) 0.5993(17)
H48_5 H 0.2449 0.1158 0.5899
C103_5 C 0.214(2) 0.128(3) 0.587(2)
H49_5 H 0.2251 0.1448 0.5681
C104_5 C 0.182(3) 0.118(4) 0.604(3)
C105_5 C 0.1650(19) 0.0916(27) 0.6296(19)
C106_5 C 0.0897(19) 0.0701(28) 0.668(2)
C107_5 C 0.1135(17) 0.0676(23) 0.6618(17)
H50_5 H 0.1137 0.0506 0.6726
C108_5 C 0.137(2) 0.089(3) 0.642(2)
C109_5 C 0.137(3) 0.112(4) 0.621(3)
C110_5 C 0.114(3) 0.117(4) 0.617(2)
H51_5 H 0.1150 0.1324 0.5995
C111_5 C 0.090(2) 0.099(3) 0.641(3)
H52_5 H 0.0741 0.1020 0.6430
C112_5 C 0.061(2) 0.049(3) 0.693(3)
O21_5 O 0.2668(7) 0.0348(10) 0.6768(10)
O24_5 O 0.2980(7) 0.0379(10) 0.5854(10)
O25_5 O 0.3109(7) 0.0839(11) 0.6033(12)
O28_5 O 0.2559(9) 0.0855(12) 0.6334(10)
O29_5 O 0.2125(7) 0.0467(10) 0.6548(10)
O30_5 O 0.2504(12) 0.0369(16) 0.7754(14)
O31_5 O 0.2062(7) 0.0109(10) 0.7383(13)
O34_5 O 0.0358(11) 0.0019(16) 0.8557(15)
O36_5 O 0.0429(14) 0.0588(18) 0.7067(14)
O37_5 O 0.0625(8) 0.0281(12) 0.7086(12)
O38_5 O 0.3029(9) 0.0315(13) 0.8093(13)
Zn9_5 Zn 0.2242(1) 0.0176(1) 0.6812(2)
N6_5 N 0.3770(14) 0.0969(19) 0.419(2)
H54_5 H 0.3928 0.1136 0.4117
N7_5 N 0.164(2) 0.0347(28) 0.931(3)
H55_5 H 0.1712 0.0443 0.9550
N8_5 N 0.1618(18) 0.1302(25) 0.5974(18)
H56_5 H 0.1651 0.1459 0.5822
C113_5 C 0.0275(23) 0.2467(15) 0.618(2)
C114_5 C 0.0712(18) 0.2338(11) 0.6007(16)
H57_5 H 0.0652 0.2204 0.6248
C115_5 C 0.0972(18) 0.2368(12) 0.5781(18)
H58_5 H 0.1057 0.2249 0.5853
C116_5 C 0.1093(17) 0.2590(12) 0.5442(18)
C117_5 C 0.0922(13) 0.2740(9) 0.5303(13)
C118_5 C 0.0660(13) 0.2664(9) 0.5578(14)
H59_5 H 0.0564 0.2770 0.5494
C119_5 C 0.0519(17) 0.2469(11) 0.5944(17)
C120_5 C 0.1076(11) 0.2917(6) 0.4916(8)
C121_5 C 0.1315(9) 0.2868(6) 0.4821(10)
C122_5 C 0.1507(9) 0.3017(7) 0.4462(12)
H60_5 H 0.1667 0.2985 0.4398
C123_5 C 0.1458(11) 0.3213(6) 0.4197(8)
H61_5 H 0.1587 0.3313 0.3957
C124_5 C 0.1220(9) 0.3262(5) 0.4292(10)
C125_5 C 0.1028(9) 0.3113(7) 0.4651(11)
H62_5 H 0.0868 0.3145 0.4715
C126_5 C 0.1159(20) 0.3474(11) 0.399(2)
C140_5 C 0.0187(21) 0.3508(13) 0.350(2)
H72_5 H 0.0006 0.1059 0.8114
C154_5 C 0.0012(25) 0.0547(18) 0.840(3)
O41_5 O 0.0205(10) 0.2234(7) 0.6419(10)
O42_5 O 0.0199(12) 0.2617(8) 0.609(1)
O45_4 O 0.0996(14) 0.3547(8) 0.4166(10)
O46_4 O 0.1313(14) 0.3567(8) 0.3635(12)
O51_4 O 0.0393(11) 0.3496(8) 0.3803(11)
O52_4 O 0.0304(13) 0.3685(10) 0.3186(13)
O54_5 O 0.0056(11) 0.0625(8) 0.7928(14)
O58_5 O 0.0204(14) 0.2714(10) 0.7371(14)
Zn16_5 Zn 0.0068(3) 0.0388(2) 0.7429(2)
N9_5 N 0.1304(12) 0.2670(8) 0.5130(12)
H81_5 H 0.1426 0.2600 0.5124
Zn17_4 Zn 0.1241(1) 0.3809(1) 0.3227(2)
Zn20_4 Zn 0.0688(1) 0.3900(1) 0.3040(2)
Zn23_4 Zn 0.0841(1) 0.3841(2) 0.4059(2)
H85_5 H 0.0256788 0.255186 0.733689
H86_5 H 0.0292896 0.282622 0.765417
H93_5 H 0.304071 0.0126529 0.8113
H94_5 H 0.289813 0.0317007 0.833719
C54_5 C 0.002(3) 0.886(3) 0.617(2)
H23_5 H 0.0173 0.8850 0.5995
C55_5 C 0.008(2) 0.910(2) 0.641(3)
H24_5 H 0.0278 0.9259 0.6430
O14_7 O 0.0000 1.0000 0.766(2)
O17_5 O 0.0158(11) 0.9571(14) 0.7067(14)
Zn6_7 Zn 0.0000 1.0000 0.8288(4)
C57_5 C 0.2191(18) 0.9725(23) 0.618(2)
C58_5 C 0.1625(14) 0.9288(18) 0.6007(16)
H29_5 H 0.1551 0.9348 0.6248
C59_5 C 0.1395(13) 0.9028(18) 0.5781(18)
H30_5 H 0.1191 0.8943 0.5853
C60_5 C 0.1496(12) 0.8907(17) 0.5442(18)
C61_5 C 0.1817(10) 0.9078(13) 0.5303(13)
C62_5 C 0.200(1) 0.9340(13) 0.5578(14)
H31_5 H 0.2205 0.9436 0.5494
C63_5 C 0.1949(13) 0.9481(17) 0.5944(17)
C64_5 C 0.1840(9) 0.8924(11) 0.4916(8)
C65_5 C 0.1552(7) 0.8685(9) 0.4821(10)
C66_5 C 0.1509(6) 0.8493(9) 0.4462(12)
H32_5 H 0.1317 0.8333 0.4398
C67_5 C 0.1754(9) 0.8542(11) 0.4197(8)
H33_5 H 0.1725 0.8413 0.3957
C68_5 C 0.2041(7) 0.8780(9) 0.4292(10)
C69_5 C 0.2084(6) 0.8972(9) 0.4651(11)
H34_5 H 0.2276 0.9132 0.4715
C70_5 C 0.2314(17) 0.8841(20) 0.399(2)
C84_5 C 0.3320(17) 0.9813(21) 0.350(2)
H44_5 H 0.1052 0.9994 0.8114
C98_5 C 0.0534(18) 0.9988(25) 0.840(3)
O22_5 O 0.2028(7) 0.9795(10) 0.6419(10)
O23_5 O 0.2417(9) 0.9801(12) 0.609(1)
O26_4 O 0.2550(11) 0.9004(14) 0.4166(10)
O27_4 O 0.2253(11) 0.8687(14) 0.3635(12)
O32_4 O 0.3102(8) 0.9607(11) 0.3803(11)
O33_4 O 0.3380(9) 0.9696(13) 0.3186(13)
O35_5 O 0.0568(8) 0.9944(11) 0.7928(14)
O39_5 O 0.2509(10) 0.9796(14) 0.7371(14)
Zn11_5 Zn 0.0319(2) 0.9932(3) 0.7429(2)
N5_5 N 0.1365(9) 0.8696(12) 0.5130(12)
H53_5 H 0.1173 0.8574 0.5124
Zn19_4 Zn 0.2569(1) 0.8759(1) 0.3227(2)
Zn22_4 Zn 0.3213(1) 0.9312(1) 0.3040(2)
Zn25_4 Zn 0.3001(2) 0.9159(1) 0.4059(2)
H95_5 H 0.229507 0.974321 0.733689
H96_5 H 0.253333 0.97071 0.765417
C127_5 C 0.9341(16) 0.2447(12) 0.5766(12)
C128_5 C 0.8956(11) 0.2407(7) 0.5261(14)
H63_5 H 0.8818 0.2278 0.5473
C129_5 C 0.9265(11) 0.2547(9) 0.5346(10)
C130_5 C 0.9470(10) 0.2740(7) 0.5029(16)
H64_5 H 0.9676 0.2833 0.5086
C131_5 C 0.9367(11) 0.2794(7) 0.4626(12)
C132_5 C 0.9059(13) 0.2655(10) 0.4541(11)
C133_5 C 0.8853(12) 0.2461(9) 0.4858(18)
H65_5 H 0.8646 0.2368 0.4801
C134_5 C 0.9816(12) 0.3168(10) 0.4123(16)
H66_5 H 0.9969 0.3189 0.4316
C135_5 C 0.9516(14) 0.2996(9) 0.4254(11)
C136_5 C 0.9287(15) 0.2964(10) 0.397(2)
C137_5 C 0.9359(15) 0.3104(12) 0.3548(18)
H67_5 H 0.9205 0.3082 0.3356
C138_5 C 0.9659(15) 0.3276(10) 0.3418(10)
H68_5 H 0.9708 0.3370 0.3138
C139_5 C 0.9888(13) 0.3308(8) 0.3705(19)
C141_5 C 0.9766(19) 0.1996(11) 0.7736(19)
C142_5 C 0.9652(18) 0.1883(14) 0.852(3)
H69_5 H 0.9585 0.2022 0.8502
C143_5 C 0.9766(21) 0.1820(11) 0.814(2)
C144_5 C 0.9865(21) 0.1611(14) 0.815(2)
H70_5 H 0.9942 0.1569 0.7895
C145_5 C 0.9850(16) 0.1466(10) 0.856(3)
C146_5 C 0.9735(26) 0.1529(17) 0.8937(19)
C147_5 C 0.963(3) 0.174(2) 0.892(2)
H71_5 H 0.9559 0.1779 0.9174
C148_5 C 0.9958(24) 0.1014(16) 0.8416(12)
C149_5 C 0.9884(15) 0.1193(9) 0.868(3)
C150_5 C 0.9812(21) 0.1125(16) 0.913(3)
C151_5 C 0.9813(27) 0.0877(18) 0.9318(12)
H73_5 H 0.9764 0.0831 0.9620
C152_5 C 0.9886(17) 0.070(1) 0.906(3)
H74_5 H 0.9886 0.0531 0.9185
C153_5 C 0.9958(17) 0.0765(13) 0.861(2)
C155_5 C 0.9264(19) 0.1567(12) 0.6405(16)
C156_5 C 0.9221(19) 0.1038(14) 0.6387(12)
H75_5 H 0.9392 0.1112 0.6568
C157_5 C 0.9146(18) 0.1252(12) 0.6253(14)
C158_5 C 0.8895(23) 0.1151(17) 0.5993(17)
H76_5 H 0.8842 0.1292 0.5899
C159_5 C 0.872(3) 0.087(2) 0.587(2)
H77_5 H 0.8552 0.0804 0.5681
C160_5 C 0.882(4) 0.065(3) 0.604(3)
C161_5 C 0.9084(27) 0.0735(19) 0.6296(19)
C162_5 C 0.9299(28) 0.020(2) 0.668(2)
C163_5 C 0.9324(23) 0.0460(16) 0.6618(17)
H78_5 H 0.9494 0.0632 0.6726
C164_5 C 0.911(3) 0.049(2) 0.642(2)
C165_5 C 0.888(4) 0.026(3) 0.621(3)
C168_5 C 0.951(3) 0.013(2) 0.693(3)
O40_5 O 0.9652(10) 0.2321(7) 0.6768(10)
O43_5 O 0.9621(10) 0.2602(7) 0.5854(10)
O44_5 O 0.9161(11) 0.2271(8) 0.6033(12)
O47_5 O 0.9145(12) 0.1705(8) 0.6334(10)
O48_5 O 0.9533(10) 0.1659(7) 0.6548(10)
O49_5 O 0.9631(16) 0.2136(10) 0.7754(14)
O50_5 O 0.9891(10) 0.1954(7) 0.7383(13)
O53_5 O 0.9981(16) 0.0340(12) 0.8557(15)
O56_5 O 0.9719(12) 0.0345(9) 0.7086(12)
O57_5 O 0.9685(13) 0.2715(9) 0.8093(13)
Zn14_5 Zn 0.9824(1) 0.2067(1) 0.6812(2)
N10_5 N 0.9031(19) 0.2802(13) 0.419(2)
H82_5 H 0.8864 0.2793 0.4117
N11_5 N 0.9653(28) 0.1297(19) 0.931(3)
H83_5 H 0.9557 0.1270 0.9550
N12_5 N 0.8698(25) 0.0317(17) 0.5974(18)
H84_5 H 0.8541 0.0193 0.5822
H87_5 H 0.987347 0.291418 0.8113
H88_5 H 0.968299 0.258112 0.833719
C1_5 C 0.7533(15) 0.7809(18) 0.618(2)
C2_5 C 0.7662(11) 0.8375(14) 0.6007(16)
H1_5 H 0.7796 0.8449 0.6248
C3_5 C 0.7632(12) 0.8605(13) 0.5781(18)
H2_5 H 0.7751 0.8809 0.5853
C4_5 C 0.7410(12) 0.8504(12) 0.5442(18)
C5_5 C 0.7260(9) 0.8183(10) 0.5303(13)
C6_5 C 0.7336(9) 0.800(1) 0.5578(14)
H3_5 H 0.7230 0.7795 0.5494
C7_5 C 0.7531(11) 0.8051(13) 0.5944(17)
C8_5 C 0.7083(6) 0.8160(9) 0.4916(8)
C9_5 C 0.7132(6) 0.8448(7) 0.4821(10)
C10_5 C 0.6983(7) 0.8491(6) 0.4462(12)
H4_5 H 0.7015 0.8683 0.4398
C11_5 C 0.6787(6) 0.8246(9) 0.4197(8)
H5_5 H 0.6687 0.8275 0.3957
C12_5 C 0.6738(5) 0.7959(7) 0.4292(10)
C13_5 C 0.6887(7) 0.7916(6) 0.4651(11)
H6_5 H 0.6855 0.7724 0.4715
C14_5 C 0.6526(11) 0.7686(17) 0.399(2)
C15_5 C 0.7553(12) 0.6895(10) 0.5766(12)
C16_5 C 0.7593(7) 0.6550(9) 0.5261(14)
H7_5 H 0.7722 0.6541 0.5473
C17_5 C 0.7453(9) 0.6719(7) 0.5346(10)
C18_5 C 0.7260(7) 0.6731(7) 0.5029(16)
H8_5 H 0.7167 0.6844 0.5086
C19_5 C 0.7206(7) 0.6574(9) 0.4626(12)
C20_5 C 0.7345(10) 0.6405(8) 0.4541(11)
C21_5 C 0.7539(9) 0.6393(8) 0.4858(18)
H9_5 H 0.7632 0.6279 0.4801
C22_5 C 0.6832(10) 0.6649(7) 0.4123(16)
H10_5 H 0.6811 0.6781 0.4316
C23_5 C 0.7004(9) 0.6521(11) 0.4254(11)
C24_5 C 0.7036(10) 0.6324(11) 0.397(2)
C25_5 C 0.6896(12) 0.6256(9) 0.3548(18)
H11_5 H 0.6918 0.6124 0.3356
C26_5 C 0.6724(10) 0.6384(11) 0.3418(10)
H12_5 H 0.6630 0.6339 0.3138
C27_5 C 0.6692(8) 0.6581(10) 0.3705(19)
C28_5 C 0.6492(13) 0.6680(17) 0.350(2)
C29_5 C 0.8004(11) 0.7771(16) 0.7736(19)
C30_5 C 0.8117(14) 0.7770(11) 0.852(3)
H13_5 H 0.7978 0.7564 0.8502
C31_5 C 0.8180(11) 0.7947(18) 0.814(2)
C32_5 C 0.8389(14) 0.8255(16) 0.815(2)
H14_5 H 0.8431 0.8374 0.7895
C33_5 C 0.8534(10) 0.8385(12) 0.856(3)
C34_5 C 0.8471(17) 0.821(2) 0.8937(19)
C35_5 C 0.826(2) 0.790(2) 0.892(2)
H15_5 H 0.8221 0.7781 0.9174
C36_5 C 0.8986(16) 0.8945(18) 0.8416(12)
H16_5 H 0.8941 0.8948 0.8114
C37_5 C 0.8807(9) 0.8692(12) 0.868(3)
C38_5 C 0.8875(16) 0.8688(14) 0.913(3)
C39_5 C 0.9123(18) 0.894(2) 0.9318(12)
H17_5 H 0.9169 0.8934 0.9620
C40_5 C 0.930(1) 0.9190(14) 0.906(3)
H18_5 H 0.9469 0.9356 0.9185
C41_5 C 0.9235(13) 0.9194(11) 0.861(2)
C42_5 C 0.9453(18) 0.9466(18) 0.840(3)
C43_5 C 0.8433(12) 0.7698(15) 0.6405(16)
C44_5 C 0.8962(14) 0.8184(13) 0.6387(12)
H19_5 H 0.8888 0.8281 0.6568
C45_5 C 0.8748(12) 0.7895(14) 0.6253(14)
C46_5 C 0.8849(17) 0.7745(15) 0.5993(17)
H20_5 H 0.8708 0.7551 0.5899
C47_5 C 0.913(2) 0.786(2) 0.587(2)
H21_5 H 0.9196 0.7749 0.5681
C48_5 C 0.935(3) 0.818(3) 0.604(3)
C49_5 C 0.9265(19) 0.8350(19) 0.6296(19)
C50_5 C 0.980(2) 0.9103(19) 0.668(2)
C51_5 C 0.9540(16) 0.8865(17) 0.6618(17)
H22_5 H 0.9368 0.8863 0.6726
C52_5 C 0.951(2) 0.863(2) 0.642(2)
C53_5 C 0.974(3) 0.863(3) 0.621(3)
C56_5 C 0.987(2) 0.939(2) 0.693(3)
O1_5 O 0.7679(7) 0.7332(7) 0.6768(10)
O2_5 O 0.7766(7) 0.7972(7) 0.6419(10)
O3_5 O 0.7383(8) 0.7583(9) 0.609(1)
O4_5 O 0.7398(7) 0.7020(7) 0.5854(10)
O5_5 O 0.7729(8) 0.6891(7) 0.6033(12)
O6_4 O 0.6453(8) 0.7450(11) 0.4166(10)
O7_4 O 0.6433(8) 0.7747(11) 0.3635(12)
O8_5 O 0.8295(8) 0.7441(9) 0.6334(10)
O9_5 O 0.8341(7) 0.7875(7) 0.6548(10)
O10_5 O 0.7864(10) 0.7496(12) 0.7754(14)
O11_5 O 0.8046(7) 0.7938(7) 0.7383(13)
O12_4 O 0.6504(8) 0.6898(8) 0.3803(11)
O13_4 O 0.6315(10) 0.6620(9) 0.3186(13)
O15_5 O 0.9660(12) 0.9642(11) 0.8557(15)
O16_5 O 0.9375(8) 0.9432(8) 0.7928(14)
O18_5 O 0.9655(9) 0.9375(8) 0.7086(12)
O19_5 O 0.7285(9) 0.6971(9) 0.8093(13)
O20_5 O 0.7286(10) 0.7491(10) 0.7371(14)
Zn3_5 Zn 0.7933(1) 0.7758(1) 0.6812(2)
Zn5_5 Zn 0.9612(2) 0.9681(2) 0.7429(2)
N1_5 N 0.7330(8) 0.8635(9) 0.5130(12)
H25_5 H 0.7400 0.8827 0.5124
N2_5 N 0.7198(13) 0.6230(14) 0.419(2)
H26_5 H 0.7207 0.6072 0.4117
N3_5 N 0.8703(19) 0.836(2) 0.931(3)
H27_5 H 0.8730 0.8288 0.9550
N4_5 N 0.9683(17) 0.8382(18) 0.5974(18)
H28_5 H 0.9807 0.8349 0.5822
C166_5 C 0.883(4) 0.998(3) 0.617(2)
H79_5 H 0.8676 0.9827 0.5995
C167_5 C 0.901(3) 0.992(2) 0.641(3)
H80_5 H 0.8980 0.9722 0.6430
O55_5 O 0.9412(18) 0.9842(11) 0.7067(14)
Zn18_4 Zn 0.6191(1) 0.7431(1) 0.3227(2)
Zn21_4 Zn 0.6100(1) 0.6787(1) 0.3040(2)
Zn24_4 Zn 0.6159(2) 0.6999(2) 0.4059(2)
H89_5 H 0.708582 0.695929 0.8113
H90_5 H 0.741888 0.710187 0.833719
H91_5 H 0.744814 0.770493 0.733689
H92_5 H 0.717378 0.746667 0.765417
O14_8 O 0.0000 0.0001 0.766(2)
Zn6_8 Zn 0.0000 0.0001 0.8288(4)
O14_9 O 0.9999 1.0000 0.766(2)
Zn6_9 Zn 0.9999 1.0000 0.8288(4)
C126_6 C 0.4493(20) 0.0140(11) 0.065(2)
C140_6 C 0.3521(21) 0.0174(13) 0.016(2)
H68_6 H 0.3042 0.0036 0.9804
C1_6 C 0.0867(15) 0.4475(18) 0.284(2)
C2_6 C 0.0996(11) 0.5041(14) 0.2673(16)
H1_6 H 0.1130 0.5115 0.2914
C3_6 C 0.0966(12) 0.5271(13) 0.2447(18)
H2_6 H 0.1085 0.5475 0.2519
C4_6 C 0.0744(12) 0.5170(12) 0.2108(18)
C5_6 C 0.0594(9) 0.4849(10) 0.1969(13)
C6_6 C 0.0670(9) 0.466(1) 0.2244(14)
H3_6 H 0.0564 0.4461 0.2160
C7_6 C 0.0865(11) 0.4717(13) 0.2610(17)
C8_6 C 0.0417(6) 0.4826(9) 0.1582(8)
C9_6 C 0.0466(6) 0.5114(7) 0.1487(10)
C10_6 C 0.0317(7) 0.5157(6) 0.1128(12)
H4_6 H 0.0349 0.5349 0.1064
C11_6 C 0.0121(6) 0.4912(9) 0.0863(8)
H5_6 H 0.0021 0.4941 0.0623
C12_6 C 0.0072(5) 0.4625(7) 0.0958(10)
C13_6 C 0.0221(7) 0.4582(6) 0.1317(11)
H6_6 H 0.0189 0.4390 0.1381
C15_6 C 0.0887(12) 0.3561(10) 0.2432(12)
C16_6 C 0.0927(7) 0.3216(9) 0.1927(14)
H7_6 H 0.1056 0.3207 0.2139
C17_6 C 0.0787(9) 0.3385(7) 0.2012(10)
C18_6 C 0.0594(7) 0.3397(7) 0.1695(16)
H8_6 H 0.0501 0.3510 0.1752
C19_6 C 0.0540(7) 0.3240(9) 0.1292(12)
C20_6 C 0.0679(10) 0.3071(8) 0.1207(11)
C21_6 C 0.0873(9) 0.3059(8) 0.1524(18)
H9_6 H 0.0966 0.2945 0.1467
C22_6 C 0.0166(10) 0.3315(7) 0.0789(16)
H10_6 H 0.0145 0.3447 0.0982
C23_6 C 0.0338(9) 0.3187(11) 0.0920(11)
C24_6 C 0.0370(10) 0.2990(11) 0.063(2)
C25_6 C 0.0230(12) 0.2922(9) 0.0214(18)
H11_6 H 0.0252 0.2790 0.0022
C26_6 C 0.0058(10) 0.3050(11) 0.0084(10)
C27_6 C 0.0026(8) 0.3247(10) 0.0371(19)
C29_6 C 0.1338(11) 0.4437(16) 0.4402(19)
C30_6 C 0.1451(14) 0.4436(11) 0.518(3)
H13_6 H 0.1312 0.4230 0.5168
C31_6 C 0.1514(11) 0.4613(18) 0.480(2)
C32_6 C 0.1723(14) 0.4921(16) 0.481(2)
H14_6 H 0.1765 0.5040 0.4561
C33_6 C 0.1868(10) 0.5051(12) 0.522(3)
C34_6 C 0.1805(17) 0.487(2) 0.5603(19)
C35_6 C 0.160(2) 0.456(2) 0.558(2)
H15_6 H 0.1555 0.4447 0.5840
C36_6 C 0.2320(16) 0.5611(18) 0.5082(12)
H16_6 H 0.2275 0.5614 0.4780
C37_6 C 0.2141(9) 0.5358(12) 0.534(3)
C38_6 C 0.2209(16) 0.5354(14) 0.579(3)
C39_6 C 0.2457(18) 0.560(2) 0.5984(12)
H17_6 H 0.2503 0.5600 0.6286
C40_6 C 0.264(1) 0.5856(14) 0.572(3)
H18_6 H 0.2803 0.6022 0.5851
C41_6 C 0.2569(13) 0.5860(11) 0.527(2)
C42_6 C 0.2787(18) 0.6132(18) 0.506(3)
C43_6 C 0.1767(12) 0.4364(15) 0.3071(16)
C44_6 C 0.2296(14) 0.4850(13) 0.3053(12)
H19_6 H 0.2222 0.4947 0.3234
C45_6 C 0.2082(12) 0.4561(14) 0.2919(14)
C46_6 C 0.2183(17) 0.4411(15) 0.2659(17)
H20_6 H 0.2042 0.4217 0.2565
C47_6 C 0.247(2) 0.452(2) 0.253(2)
H21_6 H 0.2530 0.4415 0.2347
C48_6 C 0.269(3) 0.484(3) 0.270(3)
C49_6 C 0.2599(19) 0.5016(19) 0.2962(19)
C50_6 C 0.314(2) 0.5769(19) 0.334(2)
C51_6 C 0.2874(16) 0.5531(17) 0.3284(17)
H22_6 H 0.2702 0.5529 0.3392
C52_6 C 0.285(2) 0.529(2) 0.308(2)
C53_6 C 0.308(3) 0.529(3) 0.287(3)
C54_6 C 0.336(3) 0.552(3) 0.283(2)
H23_6 H 0.3507 0.5516 0.2661
C55_6 C 0.342(2) 0.576(2) 0.307(3)
H24_6 H 0.3612 0.5925 0.3096
C56_6 C 0.321(2) 0.605(2) 0.359(3)
O1_6 O 0.1013(7) 0.3998(7) 0.3434(10)
O2_6 O 0.1100(7) 0.4638(7) 0.3085(10)
O3_6 O 0.0717(8) 0.4249(9) 0.275(1)
O4_6 O 0.0732(7) 0.3686(7) 0.2520(10)
O5_6 O 0.1063(8) 0.3557(7) 0.2699(12)
O8_6 O 0.1629(8) 0.4107(9) 0.3000(10)
O9_6 O 0.1675(7) 0.4541(7) 0.3214(10)
O10_6 O 0.1198(10) 0.4162(12) 0.4420(14)
O11_6 O 0.1380(7) 0.4604(7) 0.4049(13)
O14_10 O 0.3334 0.6666 0.432(2)
O15_6 O 0.2994(12) 0.6308(11) 0.5223(15)
O16_6 O 0.2709(8) 0.6098(8) 0.4594(14)
O17_6 O 0.3492(11) 0.6237(14) 0.3733(14)
O18_6 O 0.2989(9) 0.6041(8) 0.3752(12)
O19_6 O 0.0619(9) 0.3637(9) 0.4759(13)
O20_6 O 0.0620(10) 0.4157(10) 0.4037(14)
Zn3_6 Zn 0.1267(1) 0.4424(1) 0.3478(2)
Zn5_6 Zn 0.2946(2) 0.6347(2) 0.4095(2)
Zn6_10 Zn 0.3334 0.6666 0.4954(4)
N1_6 N 0.0664(8) 0.5301(9) 0.1796(12)
H25_6 H 0.0734 0.5493 0.1790
N2_6 N 0.0532(13) 0.2896(14) 0.085(2)
H26_6 H 0.0541 0.2738 0.0783
N3_6 N 0.2037(19) 0.502(2) 0.597(3)
H27_6 H 0.2064 0.4954 0.6216
N4_6 N 0.3017(17) 0.5048(18) 0.2640(18)
H28_6 H 0.3141 0.5015 0.2488
C57_6 C 0.5525(18) 0.6391(23) 0.284(2)
C58_6 C 0.4959(14) 0.5954(18) 0.2673(16)
H29_6 H 0.4885 0.6014 0.2914
C59_6 C 0.4729(13) 0.5694(18) 0.2447(18)
H30_6 H 0.4525 0.5609 0.2519
C60_6 C 0.4830(12) 0.5573(17) 0.2108(18)
C61_6 C 0.5151(10) 0.5744(13) 0.1969(13)
C62_6 C 0.534(1) 0.6006(13) 0.2244(14)
H31_6 H 0.5539 0.6102 0.2160
C63_6 C 0.5283(13) 0.6147(17) 0.2610(17)
C64_6 C 0.5174(9) 0.5590(11) 0.1582(8)
C65_6 C 0.4886(7) 0.5351(9) 0.1487(10)
C66_6 C 0.4843(6) 0.5159(9) 0.1128(12)
H32_6 H 0.4651 0.4999 0.1064
C67_6 C 0.5088(9) 0.5208(11) 0.0863(8)
H33_6 H 0.5059 0.5079 0.0623
C68_6 C 0.5375(7) 0.5446(9) 0.0958(10)
C69_6 C 0.5418(6) 0.5638(9) 0.1317(11)
H34_6 H 0.5610 0.5798 0.1381
C70_6 C 0.5648(17) 0.5507(20) 0.065(2)
C71_6 C 0.6439(10) 0.7325(16) 0.2432(12)
C72_6 C 0.6784(9) 0.7710(11) 0.1927(14)
H35_6 H 0.6793 0.7848 0.2139
C73_6 C 0.6615(7) 0.7401(11) 0.2012(10)
C74_6 C 0.6603(7) 0.7196(10) 0.1695(16)
H36_6 H 0.6490 0.6990 0.1752
C75_6 C 0.6760(9) 0.7299(11) 0.1292(12)
C76_6 C 0.6929(8) 0.7607(13) 0.1207(11)
C77_6 C 0.6941(8) 0.7813(12) 0.1524(18)
H37_6 H 0.7055 0.8020 0.1467
C78_6 C 0.6685(7) 0.6850(12) 0.0789(16)
H38_6 H 0.6553 0.6697 0.0982
C79_6 C 0.6813(11) 0.7150(14) 0.0920(11)
C80_6 C 0.7010(11) 0.7379(15) 0.063(2)
C81_6 C 0.7078(9) 0.7307(15) 0.0214(18)
H39_6 H 0.7210 0.7461 0.0022
C82_6 C 0.6950(11) 0.7007(15) 0.0084(10)
C83_6 C 0.6753(10) 0.6778(13) 0.0371(19)
C84_6 C 0.6654(17) 0.6479(21) 0.016(2)
C85_6 C 0.5563(16) 0.6900(19) 0.4402(19)
C86_6 C 0.5564(11) 0.7014(18) 0.518(3)
H41_6 H 0.5770 0.7081 0.5168
C87_6 C 0.5387(18) 0.6900(21) 0.480(2)
C88_6 C 0.5079(16) 0.6801(21) 0.481(2)
H42_6 H 0.4960 0.6724 0.4561
C89_6 C 0.4949(12) 0.6816(16) 0.522(3)
C90_6 C 0.513(2) 0.6931(26) 0.5603(19)
C91_6 C 0.544(2) 0.703(3) 0.558(2)
H43_6 H 0.5553 0.7107 0.5840
C92_6 C 0.4389(18) 0.6708(24) 0.5082(12)
H44_6 H 0.4386 0.6660 0.4780
C93_6 C 0.4642(12) 0.6782(15) 0.534(3)
C94_6 C 0.4646(14) 0.6854(21) 0.579(3)
C95_6 C 0.440(2) 0.6853(27) 0.5984(12)
H45_6 H 0.4400 0.6902 0.6286
C96_6 C 0.4144(14) 0.6780(17) 0.572(3)
H46_6 H 0.3978 0.6780 0.5851
C97_6 C 0.4140(11) 0.6708(17) 0.527(2)
C98_6 C 0.3868(18) 0.6654(25) 0.506(3)
C99_6 C 0.5636(15) 0.7402(19) 0.3071(16)
C100_6 C 0.5150(13) 0.7445(19) 0.3053(12)
H47_6 H 0.5053 0.7274 0.3234
C101_6 C 0.5439(14) 0.7520(18) 0.2919(14)
C102_6 C 0.5589(15) 0.7771(23) 0.2659(17)
H48_6 H 0.5783 0.7824 0.2565
C103_6 C 0.548(2) 0.794(3) 0.253(2)
H49_6 H 0.5585 0.8114 0.2347
C104_6 C 0.516(3) 0.784(4) 0.270(3)
C105_6 C 0.4984(19) 0.7582(27) 0.2962(19)
C106_6 C 0.4231(19) 0.7367(28) 0.334(2)
C107_6 C 0.4469(17) 0.7342(23) 0.3284(17)
H50_6 H 0.4471 0.7172 0.3392
C108_6 C 0.471(2) 0.755(3) 0.308(2)
C109_6 C 0.471(3) 0.778(4) 0.287(3)
C110_6 C 0.448(3) 0.783(4) 0.283(2)
H51_6 H 0.4484 0.7990 0.2661
C111_6 C 0.424(2) 0.765(3) 0.307(3)
H52_6 H 0.4075 0.7686 0.3096
C112_6 C 0.395(2) 0.715(3) 0.359(3)
O21_6 O 0.6002(7) 0.7014(10) 0.3434(10)
O22_6 O 0.5362(7) 0.6461(10) 0.3085(10)
O23_6 O 0.5751(9) 0.6467(12) 0.275(1)
O24_6 O 0.6314(7) 0.7045(10) 0.2520(10)
O25_6 O 0.6443(7) 0.7505(11) 0.2699(12)
O28_6 O 0.5893(9) 0.7521(12) 0.3000(10)
O29_6 O 0.5459(7) 0.7133(10) 0.3214(10)
O30_6 O 0.5838(12) 0.7035(16) 0.4420(14)
O31_6 O 0.5396(7) 0.6775(10) 0.4049(13)
O34_6 O 0.3692(11) 0.6685(16) 0.5223(15)
O35_6 O 0.3902(8) 0.6610(11) 0.4594(14)
O36_6 O 0.3763(14) 0.7254(18) 0.3733(14)
O37_6 O 0.3959(8) 0.6947(12) 0.3752(12)
O38_6 O 0.6363(9) 0.6981(13) 0.4759(13)
O39_6 O 0.5843(10) 0.6462(14) 0.4037(14)
Zn9_6 Zn 0.5576(1) 0.6842(1) 0.3478(2)
Zn11_6 Zn 0.3653(2) 0.6598(3) 0.4095(2)
N5_6 N 0.4699(9) 0.5362(12) 0.1796(12)
H53_6 H 0.4507 0.5240 0.1790
N6_6 N 0.7104(14) 0.7635(19) 0.085(2)
H54_6 H 0.7262 0.7802 0.0783
N7_6 N 0.498(2) 0.7013(28) 0.597(3)
H55_6 H 0.5046 0.7109 0.6216
N8_6 N 0.4952(18) 0.7968(25) 0.2640(18)
H56_6 H 0.4985 0.8125 0.2488
C113_6 C 0.3609(23) 0.9133(15) 0.284(2)
C114_6 C 0.4046(18) 0.9004(11) 0.2673(16)
H57_6 H 0.3986 0.8870 0.2914
C115_6 C 0.4306(18) 0.9034(12) 0.2447(18)
H58_6 H 0.4391 0.8915 0.2519
C116_6 C 0.4427(17) 0.9256(12) 0.2108(18)
C117_6 C 0.4256(13) 0.9406(9) 0.1969(13)
C118_6 C 0.3994(13) 0.9330(9) 0.2244(14)
H59_6 H 0.3898 0.9436 0.2160
C119_6 C 0.3853(17) 0.9135(11) 0.2610(17)
C120_6 C 0.4410(11) 0.9583(6) 0.1582(8)
C121_6 C 0.4649(9) 0.9534(6) 0.1487(10)
C122_6 C 0.4841(9) 0.9683(7) 0.1128(12)
H60_6 H 0.5001 0.9651 0.1064
C123_6 C 0.4792(11) 0.9879(6) 0.0863(8)
H61_6 H 0.4921 0.9979 0.0623
C124_6 C 0.4554(9) 0.9928(5) 0.0958(10)
C125_6 C 0.4362(9) 0.9779(7) 0.1317(11)
H62_6 H 0.4202 0.9811 0.1381
C127_6 C 0.2675(16) 0.9113(12) 0.2432(12)
C128_6 C 0.2290(11) 0.9073(7) 0.1927(14)
H63_6 H 0.2152 0.8944 0.2139
C129_6 C 0.2599(11) 0.9213(9) 0.2012(10)
C130_6 C 0.2804(10) 0.9406(7) 0.1695(16)
H64_6 H 0.3010 0.9499 0.1752
C131_6 C 0.2701(11) 0.9460(7) 0.1292(12)
C132_6 C 0.2393(13) 0.9321(10) 0.1207(11)
C133_6 C 0.2187(12) 0.9127(9) 0.1524(18)
H65_6 H 0.1980 0.9034 0.1467
C134_6 C 0.3150(12) 0.9834(10) 0.0789(16)
H66_6 H 0.3303 0.9855 0.0982
C135_6 C 0.2850(14) 0.9662(9) 0.0920(11)
C136_6 C 0.2621(15) 0.9630(10) 0.063(2)
C137_6 C 0.2693(15) 0.9770(12) 0.0214(18)
H67_6 H 0.2539 0.9748 0.0022
C138_6 C 0.2993(15) 0.9942(10) 0.0084(10)
C139_6 C 0.3222(13) 0.9974(8) 0.0371(19)
C141_6 C 0.3100(19) 0.8662(11) 0.4402(19)
C142_6 C 0.2986(18) 0.8549(14) 0.518(3)
H69_6 H 0.2919 0.8688 0.5168
C143_6 C 0.3100(21) 0.8486(11) 0.480(2)
C144_6 C 0.3199(21) 0.8277(14) 0.481(2)
H70_6 H 0.3276 0.8235 0.4561
C145_6 C 0.3184(16) 0.8132(10) 0.522(3)
C146_6 C 0.3069(26) 0.8195(17) 0.5603(19)
C147_6 C 0.297(3) 0.840(2) 0.558(2)
H71_6 H 0.2893 0.8445 0.5840
C148_6 C 0.3292(24) 0.7680(16) 0.5082(12)
H72_6 H 0.3340 0.7725 0.4780
C149_6 C 0.3218(15) 0.7859(9) 0.534(3)
C150_6 C 0.3146(21) 0.7791(16) 0.579(3)
C151_6 C 0.3147(27) 0.7543(18) 0.5984(12)
H73_6 H 0.3098 0.7497 0.6286
C152_6 C 0.3220(17) 0.736(1) 0.572(3)
H74_6 H 0.3220 0.7197 0.5851
C153_6 C 0.3292(17) 0.7431(13) 0.527(2)
C154_6 C 0.3346(25) 0.7213(18) 0.506(3)
C155_6 C 0.2598(19) 0.8233(12) 0.3071(16)
C156_6 C 0.2555(19) 0.7704(14) 0.3053(12)
H75_6 H 0.2726 0.7778 0.3234
C157_6 C 0.2480(18) 0.7918(12) 0.2919(14)
C158_6 C 0.2229(23) 0.7817(17) 0.2659(17)
H76_6 H 0.2176 0.7958 0.2565
C159_6 C 0.206(3) 0.753(2) 0.253(2)
H77_6 H 0.1886 0.7470 0.2347
C160_6 C 0.216(4) 0.731(3) 0.270(3)
C161_6 C 0.2418(27) 0.7401(19) 0.2962(19)
C162_6 C 0.2633(28) 0.686(2) 0.334(2)
C163_6 C 0.2658(23) 0.7126(16) 0.3284(17)
H78_6 H 0.2828 0.7298 0.3392
C164_6 C 0.245(3) 0.715(2) 0.308(2)
C165_6 C 0.222(4) 0.692(3) 0.287(3)
C166_6 C 0.217(4) 0.664(3) 0.283(2)
H79_6 H 0.2010 0.6493 0.2661
C167_6 C 0.235(3) 0.658(2) 0.307(3)
H80_6 H 0.2314 0.6388 0.3096
C168_6 C 0.285(3) 0.679(2) 0.359(3)
O40_6 O 0.2986(10) 0.8987(7) 0.3434(10)
O41_6 O 0.3539(10) 0.8900(7) 0.3085(10)
O42_6 O 0.3533(12) 0.9283(8) 0.275(1)
O43_6 O 0.2955(10) 0.9268(7) 0.2520(10)
O44_6 O 0.2495(11) 0.8937(8) 0.2699(12)
O47_6 O 0.2479(12) 0.8371(8) 0.3000(10)
O48_6 O 0.2867(10) 0.8325(7) 0.3214(10)
O49_6 O 0.2965(16) 0.8802(10) 0.4420(14)
O50_6 O 0.3225(10) 0.8620(7) 0.4049(13)
O53_6 O 0.3315(16) 0.7006(12) 0.5223(15)
O54_6 O 0.3390(11) 0.7291(8) 0.4594(14)
O55_6 O 0.2746(18) 0.6508(11) 0.3733(14)
O56_6 O 0.3053(12) 0.7011(9) 0.3752(12)
O57_6 O 0.3019(13) 0.9381(9) 0.4759(13)
O58_6 O 0.3538(14) 0.9380(10) 0.4037(14)
Zn14_6 Zn 0.3158(1) 0.8733(1) 0.3478(2)
Zn16_6 Zn 0.3402(3) 0.7054(2) 0.4095(2)
N9_6 N 0.4638(12) 0.9336(8) 0.1796(12)
H81_6 H 0.4760 0.9266 0.1790
N10_6 N 0.2365(19) 0.9468(13) 0.085(2)
H82_6 H 0.2198 0.9459 0.0783
N11_6 N 0.2987(28) 0.7963(19) 0.597(3)
H83_6 H 0.2891 0.7936 0.6216
N12_6 N 0.2032(25) 0.6983(17) 0.2640(18)
H84_6 H 0.1875 0.6859 0.2488
H85_6 H 0.359012 0.921853 0.400355
H86_6 H 0.362623 0.949289 0.432084
H87_6 H 0.32068 0.958085 0.477967
H88_6 H 0.301633 0.924779 0.500385
H89_6 H 0.0419149 0.362595 0.477967
H90_6 H 0.075221 0.376854 0.500385
H91_6 H 0.0781471 0.437159 0.400355
H92_6 H 0.050711 0.413334 0.432084
H93_6 H 0.637405 0.67932 0.477967
H94_6 H 0.623146 0.698367 0.500385
H95_6 H 0.562841 0.640988 0.400355
H96_6 H 0.586666 0.637377 0.432084
H40_6 H 0.6995 0.6958 0.9804
C14_6 C 0.9860(11) 0.4352(17) 0.065(2)
C28_6 C 0.9826(13) 0.3346(17) 0.016(2)
H12_6 H 0.9964 0.3005 0.9804
loop_
_geom_bond_atom_site_label_1
_geom_bond_atom_site_label_2
_geom_bond_site_symmetry_1
_geom_bond_site_symmetry_2
C16 H7 1_555 1_555
C20 C19 1_555 1_555
C21 C16 1_555 1_555
H9 C21 1_555 1_555
C23 C19 1_555 1_555
C24 C23 1_555 1_555
C25 C24 1_555 1_555
H11 C25 1_555 1_555
C26 C25 1_555 1_555
H12 C26 1_555 1_555
C27 C22 1_555 1_555
N2 C20 1_555 1_555
H26 N2 1_555 1_555
C20 C21 1_555 1_555
C22 C23 1_555 1_555
C24 N2 1_555 1_555
C26 C27 1_555 1_555
C1 C7 1_555 1_555
C2 H1 1_555 1_555
C3 C2 1_555 1_555
H2 C3 1_555 1_555
C4 C3 1_555 1_555
C5 C4 1_555 1_555
C6 C5 1_555 1_555
H3 C6 1_555 1_555
C7 C2 1_555 1_555
C8 C5 1_555 1_555
C9 C8 1_555 1_555
C10 C9 1_555 1_555
H4 C10 1_555 1_555
C11 C10 1_555 1_555
H5 C11 1_555 1_555
C12 C11 1_555 1_555
C13 C8 1_555 1_555
H6 C13 1_555 1_555
C14 C12 1_555 1_555
C15 C17 1_555 1_555
C18 C17 1_555 1_555
H8 C18 1_555 1_555
C43 C45 1_555 1_555
C44 H19 1_555 1_555
C45 C44 1_555 1_555
C46 C45 1_555 1_555
H20 C46 1_555 1_555
C47 C46 1_555 1_555
H21 C47 1_555 1_555
C48 C47 1_555 1_555
C49 C44 1_555 1_555
C52 C49 1_555 1_555
C53 C52 1_555 1_555
C54 C53 1_555 1_555
H23 C54 1_555 1_555
H24 C55 1_555 1_555
O2 C1 1_555 1_555
O3 C1 1_555 1_555
O4 C15 1_555 1_555
O5 C15 1_555 1_555
O6 C14 1_555 1_555
O7 C14 1_555 1_555
O8 C43 1_555 1_555
O9 C43 1_555 1_555
O12 C28 1_555 1_555
Zn1 O5 1_555 1_555
N1 C4 1_555 1_555
H25 N1 1_555 1_555
N4 C48 1_555 1_555
H28 N4 1_555 1_555
C57 C63 1_555 1_555
C58 H29 1_555 1_555
C59 C58 1_555 1_555
H30 C59 1_555 1_555
C60 C59 1_555 1_555
C61 C60 1_555 1_555
C62 C61 1_555 1_555
H31 C62 1_555 1_555
C63 C58 1_555 1_555
C64 C61 1_555 1_555
C65 C64 1_555 1_555
C66 C65 1_555 1_555
H32 C66 1_555 1_555
C67 C66 1_555 1_555
H33 C67 1_555 1_555
C68 C67 1_555 1_555
C69 C64 1_555 1_555
H34 C69 1_555 1_555
C70 C68 1_555 1_555
C71 C73 1_555 1_555
C74 C73 1_555 1_555
H36 C74 1_555 1_555
C99 C101 1_555 1_555
C100 H47 1_555 1_555
C101 C100 1_555 1_555
C102 C101 1_555 1_555
H48 C102 1_555 1_555
C103 C102 1_555 1_555
H49 C103 1_555 1_555
C104 C103 1_555 1_555
C105 C100 1_555 1_555
C108 C105 1_555 1_555
C109 C108 1_555 1_555
C110 C109 1_555 1_555
H51 C110 1_555 1_555
H52 C111 1_555 1_555
O22 C57 1_555 1_555
O23 C57 1_555 1_555
O24 C71 1_555 1_555
O25 C71 1_555 1_555
O26 C70 1_555 1_555
O27 C70 1_555 1_555
O28 C99 1_555 1_555
O29 C99 1_555 1_555
O32 C84 1_555 1_555
Zn7 O25 1_555 1_555
N5 C60 1_555 1_555
H53 N5 1_555 1_555
N8 C104 1_555 1_555
H56 N8 1_555 1_555
C113 C119 1_555 1_555
C114 H57 1_555 1_555
C115 C114 1_555 1_555
H58 C115 1_555 1_555
C116 C115 1_555 1_555
C117 C116 1_555 1_555
C118 C117 1_555 1_555
H59 C118 1_555 1_555
C119 C114 1_555 1_555
C120 C117 1_555 1_555
C121 C120 1_555 1_555
C122 C121 1_555 1_555
H60 C122 1_555 1_555
C123 C122 1_555 1_555
H61 C123 1_555 1_555
C124 C123 1_555 1_555
C125 C120 1_555 1_555
H62 C125 1_555 1_555
C126 C124 1_555 1_555
C127 C129 1_555 1_555
C128 H63 1_555 1_555
C129 C128 1_555 1_555
C130 C129 1_555 1_555
H64 C130 1_555 1_555
C131 C130 1_555 1_555
C132 C131 1_555 1_555
C133 C128 1_555 1_555
H65 C133 1_555 1_555
C134 H66 1_555 1_555
C135 C131 1_555 1_555
C136 C135 1_555 1_555
C137 C136 1_555 1_555
H67 C137 1_555 1_555
C138 C137 1_555 1_555
H68 C138 1_555 1_555
C139 C134 1_555 1_555
C140 C139 1_555 1_555
C155 C157 1_555 1_555
C156 H75 1_555 1_555
C157 C156 1_555 1_555
C158 C157 1_555 1_555
H76 C158 1_555 1_555
C159 C158 1_555 1_555
H77 C159 1_555 1_555
C160 C159 1_555 1_555
C161 C156 1_555 1_555
C164 C161 1_555 1_555
C165 C164 1_555 1_555
C166 C165 1_555 1_555
H79 C166 1_555 1_555
H80 C167 1_555 1_555
O41 C113 1_555 1_555
O42 C113 1_555 1_555
O43 C127 1_555 1_555
O44 C127 1_555 1_555
O45 C126 1_555 1_555
O46 C126 1_555 1_555
O47 C155 1_555 1_555
O48 C155 1_555 1_555
O51 C140 1_555 1_555
O52 C140 1_555 1_555
Zn12 O44 1_555 1_555
N9 C116 1_555 1_555
H81 N9 1_555 1_555
N10 C132 1_555 1_555
H82 N10 1_555 1_555
N12 C160 1_555 1_555
H84 N12 1_555 1_555
O68 Zn8 1_555 1_555
O69 Zn13 1_555 1_555
O70 Zn2 1_555 1_555
Zn17 O46 1_555 1_555
Zn18 O7 1_555 1_555
Zn19 O27 1_555 1_555
Zn20 O52 1_555 1_555
Zn23 O45 1_555 1_555
Zn24 O6 1_555 1_555
Zn25 O26 1_555 1_555
C6 C7 1_555 1_555
C9 N1 1_555 1_555
C12 C13 1_555 1_555
C48 C49 1_555 1_555
C51 C52 1_555 1_555
C53 N4 1_555 1_555
C54 C55 1_555 1_555
O3 Zn2 1_555 1_555
O4 Zn2 1_555 1_555
O8 Zn1 1_555 1_555
O12 Zn24 1_555 1_555
C62 C63 1_555 1_555
C65 N5 1_555 1_555
C68 C69 1_555 1_555
C104 C105 1_555 1_555
C107 C108 1_555 1_555
C109 N8 1_555 1_555
C110 C111 1_555 1_555
O23 Zn8 1_555 1_555
O24 Zn8 1_555 1_555
O28 Zn7 1_555 1_555
O32 Zn25 1_555 1_555
C118 C119 1_555 1_555
C121 N9 1_555 1_555
C124 C125 1_555 1_555
C132 C133 1_555 1_555
C134 C135 1_555 1_555
C136 N10 1_555 1_555
C138 C139 1_555 1_555
C160 C161 1_555 1_555
C163 C164 1_555 1_555
C165 N12 1_555 1_555
C166 C167 1_555 1_555
O42 Zn13 1_555 1_555
O43 Zn13 1_555 1_555
O47 Zn12 1_555 1_555
O51 Zn23 1_555 1_555
C29 C31 1_555 1_555
C30 H13 1_555 1_555
C31 C30 1_555 1_555
C32 C31 1_555 1_555
H14 C32 1_555 1_555
C33 C32 1_555 1_555
C34 C33 1_555 1_555
C35 C30 1_555 1_555
H15 C35 1_555 1_555
C36 H16 1_555 1_555
C37 C33 1_555 1_555
C38 C37 1_555 1_555
C39 C38 1_555 1_555
H17 C39 1_555 1_555
C40 C39 1_555 1_555
H18 C40 1_555 1_555
C41 C36 1_555 1_555
C42 C41 1_555 1_555
C56 C50 1_555 1_555
O10 C29 1_555 1_555
O11 C29 1_555 1_555
O14 Zn5 1_555 1_555
O15 C42 1_555 1_555
O16 C42 1_555 1_555
O17 C56 1_555 1_555
O18 C56 1_555 1_555
O19 Zn4 1_555 1_555
O20 Zn4 1_555 1_555
Zn3 O1 1_555 1_555
Zn4 O1 1_555 1_555
Zn5 O16 1_555 1_555
Zn6 O14 1_555 1_555
N3 C34 1_555 1_555
H27 N3 1_555 1_555
C85 C87 1_555 1_555
C86 H41 1_555 1_555
C87 C86 1_555 1_555
C88 C87 1_555 1_555
H42 C88 1_555 1_555
C89 C88 1_555 1_555
C90 C89 1_555 1_555
C91 C86 1_555 1_555
H43 C91 1_555 1_555
C92 H44 1_555 1_555
C93 C89 1_555 1_555
C94 C93 1_555 1_555
C95 C94 1_555 1_555
H45 C95 1_555 1_555
C96 C95 1_555 1_555
H46 C96 1_555 1_555
C97 C92 1_555 1_555
C98 C97 1_555 1_555
C112 C106 1_555 1_555
O30 C85 1_555 1_555
O31 C85 1_555 1_555
O34 Zn6 1_555 1_555
O35 C98 1_555 1_555
O36 C112 1_555 1_555
O37 C112 1_555 1_555
O38 Zn10 1_555 1_555
O39 Zn10 1_555 1_555
Zn9 O21 1_555 1_555
Zn10 O21 1_555 1_555
Zn11 O14 1_555 1_555
N7 C90 1_555 1_555
H55 N7 1_555 1_555
C141 C143 1_555 1_555
C142 H69 1_555 1_555
C143 C142 1_555 1_555
C144 C143 1_555 1_555
H70 C144 1_555 1_555
C145 C144 1_555 1_555
C146 C145 1_555 1_555
C147 C142 1_555 1_555
H71 C147 1_555 1_555
C148 H72 1_555 1_555
C149 C145 1_555 1_555
C150 C149 1_555 1_555
C151 C150 1_555 1_555
H73 C151 1_555 1_555
C152 C151 1_555 1_555
H74 C152 1_555 1_555
C153 C148 1_555 1_555
C154 C153 1_555 1_555
C168 C162 1_555 1_555
O49 C141 1_555 1_555
O50 C141 1_555 1_555
O53 Zn6 1_555 1_555
O54 C154 1_555 1_555
O55 Zn5 1_555 1_555
O56 C168 1_555 1_555
O57 Zn15 1_555 1_555
O58 Zn15 1_555 1_555
Zn14 O40 1_555 1_555
Zn15 O40 1_555 1_555
Zn16 O14 1_555 1_555
N11 C146 1_555 1_555
H83 N11 1_555 1_555
O59 Zn10 1_555 1_555
O60 Zn15 1_555 1_555
O61 Zn4 1_555 1_555
O65 Zn10 1_555 1_555
O66 Zn15 1_555 1_555
O67 Zn4 1_555 1_555
C34 C35 1_555 1_555
C36 C37 1_555 1_555
C38 N3 1_555 1_555
C40 C41 1_555 1_555
O10 Zn4 1_555 1_555
O11 Zn3 1_555 1_555
O15 Zn6 1_555 1_555
O17 Zn11 1_555 1_555
O18 Zn5 1_555 1_555
C90 C91 1_555 1_555
C92 C93 1_555 1_555
C94 N7 1_555 1_555
C96 C97 1_555 1_555
C98 O34 1_555 1_555
O30 Zn10 1_555 1_555
O31 Zn9 1_555 1_555
O35 Zn11 1_555 1_555
O36 Zn16 1_555 1_555
O37 Zn11 1_555 1_555
C146 C147 1_555 1_555
C148 C149 1_555 1_555
C150 N11 1_555 1_555
C152 C153 1_555 1_555
C154 O53 1_555 1_555
C168 O55 1_555 1_555
O49 Zn15 1_555 1_555
O50 Zn14 1_555 1_555
O54 Zn16 1_555 1_555
O56 Zn16 1_555 1_555
O58 H85 1_555 1_555
O58 H86 1_555 1_555
O57 H87 1_555 1_555
O57 H88 1_555 1_555
O19 H89 1_555 1_555
O19 H90 1_555 1_555
O20 H91 1_555 1_555
O20 H92 1_555 1_555
O38 H93 1_555 1_555
O38 H94 1_555 1_555
O39 H95 1_555 1_555
O39 H96 1_555 1_555
C72 H35 1_555 1_555
C76 C75 1_555 1_555
C77 C72 1_555 1_555
H37 C77 1_555 1_555
C79 C75 1_555 1_555
C80 C79 1_555 1_555
C81 C80 1_555 1_555
H39 C81 1_555 1_555
C82 C81 1_555 1_555
H40 C82 1_555 1_555
C83 C78 1_555 1_555
N6 C76 1_555 1_555
H54 N6 1_555 1_555
C76 C77 1_555 1_555
C78 C79 1_555 1_555
C80 N6 1_555 1_555
C82 C83 1_555 1_555
C1_2 C7_2 1_555 1_555
C2_2 H1_2 1_555 1_555
C3_2 C2_2 1_555 1_555
H2_2 C3_2 1_555 1_555
C4_2 C3_2 1_555 1_555
C5_2 C4_2 1_555 1_555
C6_2 C5_2 1_555 1_555
H3_2 C6_2 1_555 1_555
C7_2 C2_2 1_555 1_555
C8_2 C5_2 1_555 1_555
C9_2 C8_2 1_555 1_555
C10_2 C9_2 1_555 1_555
H4_2 C10_2 1_555 1_555
C11_2 C10_2 1_555 1_555
H5_2 C11_2 1_555 1_555
C12_2 C11_2 1_555 1_555
C13_2 C8_2 1_555 1_555
H6_2 C13_2 1_555 1_555
C14_2 C12_2 1_555 1_555
C15_2 C17_2 1_555 1_555
C16_2 H7_2 1_555 1_555
C17_2 C16_2 1_555 1_555
C18_2 C17_2 1_555 1_555
H8_2 C18_2 1_555 1_555
C19_2 C18_2 1_555 1_555
C20_2 C19_2 1_555 1_555
C21_2 C16_2 1_555 1_555
H9_2 C21_2 1_555 1_555
C22_2 H10_2 1_555 1_555
C23_2 C19_2 1_555 1_555
C24_2 C23_2 1_555 1_555
C25_2 C24_2 1_555 1_555
H11_2 C25_2 1_555 1_555
C26_2 C25_2 1_555 1_555
H12_2 C26_2 1_555 1_555
C27_2 C22_2 1_555 1_555
C28_2 C27_2 1_555 1_555
C29_2 C31_2 1_555 1_555
C30_2 H13_2 1_555 1_555
C31_2 C30_2 1_555 1_555
C32_2 C31_2 1_555 1_555
H14_2 C32_2 1_555 1_555
C33_2 C32_2 1_555 1_555
C34_2 C33_2 1_555 1_555
C35_2 C30_2 1_555 1_555
H15_2 C35_2 1_555 1_555
C36_2 H16_2 1_555 1_555
C37_2 C33_2 1_555 1_555
C38_2 C37_2 1_555 1_555
C39_2 C38_2 1_555 1_555
H17_2 C39_2 1_555 1_555
C40_2 C39_2 1_555 1_555
H18_2 C40_2 1_555 1_555
C41_2 C36_2 1_555 1_555
C42_2 C41_2 1_555 1_555
C43_2 C45_2 1_555 1_555
C44_2 H19_2 1_555 1_555
C45_2 C44_2 1_555 1_555
C46_2 C45_2 1_555 1_555
H20_2 C46_2 1_555 1_555
C47_2 C46_2 1_555 1_555
H21_2 C47_2 1_555 1_555
C48_2 C47_2 1_555 1_555
C49_2 C44_2 1_555 1_555
C50_2 C51_2 1_555 1_555
C51_2 H22_2 1_555 1_555
C52_2 C49_2 1_555 1_555
C53_2 C52_2 1_555 1_555
C56_2 C50_2 1_555 1_555
O1_2 Zn17 1_555 1_555
O2_2 C1_2 1_555 1_555
O3_2 C1_2 1_555 1_555
O4_2 C15_2 1_555 1_555
O5_2 C15_2 1_555 1_555
O6_2 C14_2 1_555 1_555
O7_2 C14_2 1_555 1_555
O8_2 C43_2 1_555 1_555
O9_2 C43_2 1_555 1_555
O10_2 C29_2 1_555 1_555
O11_2 C29_2 1_555 1_555
O12_2 C28_2 1_555 1_555
O13_2 C28_2 1_555 1_555
O15_2 C42_2 1_555 1_555
O16_2 C42_2 1_555 1_555
O18_2 C56_2 1_555 1_555
O19_2 Zn23 1_555 1_555
O20_2 Zn23 1_555 1_555
Zn17 O5_2 1_555 1_555
Zn20 O1_2 1_555 1_555
Zn3_2 O1_2 1_555 1_555
Zn23 O1_2 1_555 1_555
Zn5_2 O16_2 1_555 1_555
N1_2 C4_2 1_555 1_555
H25_2 N1_2 1_555 1_555
N2_2 C20_2 1_555 1_555
H26_2 N2_2 1_555 1_555
N3_2 C34_2 1_555 1_555
H27_2 N3_2 1_555 1_555
N4_2 C48_2 1_555 1_555
H28_2 N4_2 1_555 1_555
H79_2 C166_2 1_555 1_555
H80_2 C167_2 1_555 1_555
O55_2 Zn5_2 1_555 1_555
Zn18_2 O7_2 1_555 1_555
Zn21_2 O13_2 1_555 1_555
Zn24_2 O6_2 1_555 1_555
C6_2 C7_2 1_555 1_555
C9_2 N1_2 1_555 1_555
C12_2 C13_2 1_555 1_555
C20_2 C21_2 1_555 1_555
C22_2 C23_2 1_555 1_555
C24_2 N2_2 1_555 1_555
C26_2 C27_2 1_555 1_555
C34_2 C35_2 1_555 1_555
C36_2 C37_2 1_555 1_555
C38_2 N3_2 1_555 1_555
C40_2 C41_2 1_555 1_555
C48_2 C49_2 1_555 1_555
C51_2 C52_2 1_555 1_555
C53_2 N4_2 1_555 1_555
O2_2 Zn3_2 1_555 1_555
O3_2 Zn20 1_555 1_555
O4_2 Zn20 1_555 1_555
O8_2 Zn17 1_555 1_555
O9_2 Zn3_2 1_555 1_555
O10_2 Zn23 1_555 1_555
O11_2 Zn3_2 1_555 1_555
O12_2 Zn24_2 1_555 1_555
O18_2 Zn5_2 1_555 1_555
C166_2 C167_2 1_555 1_555
O19_2 H89_2 1_555 1_555
O19_2 H90_2 1_555 1_555
O20_2 H91_2 1_555 1_555
O20_2 H92_2 1_555 1_555
C127_2 C129_2 1_555 1_555
C128_2 H63_2 1_555 1_555
C129_2 C128_2 1_555 1_555
C130_2 C129_2 1_555 1_555
H64_2 C130_2 1_555 1_555
C131_2 C130_2 1_555 1_555
C132_2 C131_2 1_555 1_555
C133_2 C128_2 1_555 1_555
H65_2 C133_2 1_555 1_555
C134_2 H66_2 1_555 1_555
C135_2 C131_2 1_555 1_555
C136_2 C135_2 1_555 1_555
C137_2 C136_2 1_555 1_555
H67_2 C137_2 1_555 1_555
C138_2 C137_2 1_555 1_555
H68_2 C138_2 1_555 1_555
C139_2 C134_2 1_555 1_555
C141_2 C143_2 1_555 1_555
C142_2 H69_2 1_555 1_555
C143_2 C142_2 1_555 1_555
C144_2 C143_2 1_555 1_555
H70_2 C144_2 1_555 1_555
C145_2 C144_2 1_555 1_555
C146_2 C145_2 1_555 1_555
C147_2 C142_2 1_555 1_555
H71_2 C147_2 1_555 1_555
C149_2 C145_2 1_555 1_555
C150_2 C149_2 1_555 1_555
C151_2 C150_2 1_555 1_555
H73_2 C151_2 1_555 1_555
C152_2 C151_2 1_555 1_555
H74_2 C152_2 1_555 1_555
C153_2 C148_2 1_555 1_555
C155_2 C157_2 1_555 1_555
C156_2 H75_2 1_555 1_555
C157_2 C156_2 1_555 1_555
C158_2 C157_2 1_555 1_555
H76_2 C158_2 1_555 1_555
C159_2 C158_2 1_555 1_555
H77_2 C159_2 1_555 1_555
C160_2 C159_2 1_555 1_555
C161_2 C156_2 1_555 1_555
C162_2 C163_2 1_555 1_555
C163_2 H78_2 1_555 1_555
C164_2 C161_2 1_555 1_555
C165_2 C164_2 1_555 1_555
C168_2 C162_2 1_555 1_555
O40_2 Zn19 1_555 1_555
O43_2 C127_2 1_555 1_555
O44_2 C127_2 1_555 1_555
O47_2 C155_2 1_555 1_555
O48_2 C155_2 1_555 1_555
O49_2 C141_2 1_555 1_555
O50_2 C141_2 1_555 1_555
O56_2 C168_2 1_555 1_555
O57_2 Zn25 1_555 1_555
Zn19 O44_2 1_555 1_555
Zn22 O40_2 1_555 1_555
Zn14_2 O40_2 1_555 1_555
Zn25 O40_2 1_555 1_555
N10_2 C132_2 1_555 1_555
H82_2 N10_2 1_555 1_555
N11_2 C146_2 1_555 1_555
H83_2 N11_2 1_555 1_555
N12_2 C160_2 1_555 1_555
H84_2 N12_2 1_555 1_555
C132_2 C133_2 1_555 1_555
C134_2 C135_2 1_555 1_555
C136_2 N10_2 1_555 1_555
C138_2 C139_2 1_555 1_555
C146_2 C147_2 1_555 1_555
C148_2 C149_2 1_555 1_555
C150_2 N11_2 1_555 1_555
C152_2 C153_2 1_555 1_555
C160_2 C161_2 1_555 1_555
C163_2 C164_2 1_555 1_555
C165_2 N12_2 1_555 1_555
O43_2 Zn22 1_555 1_555
O47_2 Zn19 1_555 1_555
O48_2 Zn14_2 1_555 1_555
O49_2 Zn25 1_555 1_555
O50_2 Zn14_2 1_555 1_555
O57_2 H87_2 1_555 1_555
O57_2 H88_2 1_555 1_555
H23_2 C54_2 1_555 1_555
H24_2 C55_2 1_555 1_555
Zn6_2 O14_2 1_555 1_555
C57_2 C63_2 1_555 1_555
C58_2 H29_2 1_555 1_555
C59_2 C58_2 1_555 1_555
H30_2 C59_2 1_555 1_555
C60_2 C59_2 1_555 1_555
C61_2 C60_2 1_555 1_555
C62_2 C61_2 1_555 1_555
H31_2 C62_2 1_555 1_555
C63_2 C58_2 1_555 1_555
C64_2 C61_2 1_555 1_555
C65_2 C64_2 1_555 1_555
C66_2 C65_2 1_555 1_555
H32_2 C66_2 1_555 1_555
C67_2 C66_2 1_555 1_555
H33_2 C67_2 1_555 1_555
C68_2 C67_2 1_555 1_555
C69_2 C64_2 1_555 1_555
H34_2 C69_2 1_555 1_555
C70_2 C68_2 1_555 1_555
O22_2 C57_2 1_555 1_555
O23_2 C57_2 1_555 1_555
O26_2 C70_2 1_555 1_555
O27_2 C70_2 1_555 1_555
O32_2 C84_2 1_555 1_555
O33_2 C84_2 1_555 1_555
O35_2 C98_2 1_555 1_555
Zn11_2 O14_2 1_555 1_555
N5_2 C60_2 1_555 1_555
H53_2 N5_2 1_555 1_555
Zn19_2 O27_2 1_555 1_555
Zn22_2 O33_2 1_555 1_555
Zn25_2 O26_2 1_555 1_555
C54_2 C55_2 1_555 1_555
O17_2 Zn11_2 1_555 1_555
C62_2 C63_2 1_555 1_555
C65_2 N5_2 1_555 1_555
C68_2 C69_2 1_555 1_555
O32_2 Zn25_2 1_555 1_555
O35_2 Zn11_2 1_555 1_555
O39_2 H95_2 1_555 1_555
O39_2 H96_2 1_555 1_555
C71_2 C73_2 1_555 1_555
C72_2 H35_2 1_555 1_555
C73_2 C72_2 1_555 1_555
C74_2 C73_2 1_555 1_555
H36_2 C74_2 1_555 1_555
C75_2 C74_2 1_555 1_555
C76_2 C75_2 1_555 1_555
C77_2 C72_2 1_555 1_555
H37_2 C77_2 1_555 1_555
C78_2 H38_2 1_555 1_555
C79_2 C75_2 1_555 1_555
C80_2 C79_2 1_555 1_555
C81_2 C80_2 1_555 1_555
H39_2 C81_2 1_555 1_555
C82_2 C81_2 1_555 1_555
H40_2 C82_2 1_555 1_555
C83_2 C78_2 1_555 1_555
C85_2 C87_2 1_555 1_555
C86_2 H41_2 1_555 1_555
C87_2 C86_2 1_555 1_555
C88_2 C87_2 1_555 1_555
H42_2 C88_2 1_555 1_555
C89_2 C88_2 1_555 1_555
C90_2 C89_2 1_555 1_555
C91_2 C86_2 1_555 1_555
H43_2 C91_2 1_555 1_555
C93_2 C89_2 1_555 1_555
C94_2 C93_2 1_555 1_555
C95_2 C94_2 1_555 1_555
H45_2 C95_2 1_555 1_555
C96_2 C95_2 1_555 1_555
H46_2 C96_2 1_555 1_555
C97_2 C92_2 1_555 1_555
C99_2 C101_2 1_555 1_555
C100_2 H47_2 1_555 1_555
C101_2 C100_2 1_555 1_555
C102_2 C101_2 1_555 1_555
H48_2 C102_2 1_555 1_555
C103_2 C102_2 1_555 1_555
H49_2 C103_2 1_555 1_555
C104_2 C103_2 1_555 1_555
C105_2 C100_2 1_555 1_555
C106_2 C107_2 1_555 1_555
C107_2 H50_2 1_555 1_555
C108_2 C105_2 1_555 1_555
C109_2 C108_2 1_555 1_555
C110_2 C109_2 1_555 1_555
H51_2 C110_2 1_555 1_555
C111_2 C106_2 1_555 1_555
H52_2 C111_2 1_555 1_555
C112_2 C106_2 1_555 1_555
O21_2 Zn18 1_555 1_555
O24_2 C71_2 1_555 1_555
O25_2 C71_2 1_555 1_555
O28_2 C99_2 1_555 1_555
O29_2 C99_2 1_555 1_555
O30_2 C85_2 1_555 1_555
O31_2 C85_2 1_555 1_555
O36_2 C112_2 1_555 1_555
O37_2 C112_2 1_555 1_555
O38_2 Zn24 1_555 1_555
Zn18 O25_2 1_555 1_555
Zn21 O21_2 1_555 1_555
Zn9_2 O21_2 1_555 1_555
Zn24 O21_2 1_555 1_555
N6_2 C76_2 1_555 1_555
H54_2 N6_2 1_555 1_555
N7_2 C90_2 1_555 1_555
H55_2 N7_2 1_555 1_555
N8_2 C104_2 1_555 1_555
H56_2 N8_2 1_555 1_555
C113_2 C119_2 1_555 1_555
C114_2 H57_2 1_555 1_555
C115_2 C114_2 1_555 1_555
H58_2 C115_2 1_555 1_555
C116_2 C115_2 1_555 1_555
C117_2 C116_2 1_555 1_555
C118_2 C117_2 1_555 1_555
H59_2 C118_2 1_555 1_555
C119_2 C114_2 1_555 1_555
C120_2 C117_2 1_555 1_555
C121_2 C120_2 1_555 1_555
C122_2 C121_2 1_555 1_555
H60_2 C122_2 1_555 1_555
C123_2 C122_2 1_555 1_555
H61_2 C123_2 1_555 1_555
C124_2 C123_2 1_555 1_555
C125_2 C120_2 1_555 1_555
H62_2 C125_2 1_555 1_555
C126_2 C124_2 1_555 1_555
O41_2 C113_2 1_555 1_555
O42_2 C113_2 1_555 1_555
O45_2 C126_2 1_555 1_555
O46_2 C126_2 1_555 1_555
O51_2 C140_2 1_555 1_555
O52_2 C140_2 1_555 1_555
O54_2 C154_2 1_555 1_555
N9_2 C116_2 1_555 1_555
H81_2 N9_2 1_555 1_555
Zn17_2 O46_2 1_555 1_555
Zn20_2 O52_2 1_555 1_555
Zn23_2 O45_2 1_555 1_555
C76_2 C77_2 1_555 1_555
C78_2 C79_2 1_555 1_555
C80_2 N6_2 1_555 1_555
C82_2 C83_2 1_555 1_555
C90_2 C91_2 1_555 1_555
C92_2 C93_2 1_555 1_555
C94_2 N7_2 1_555 1_555
C96_2 C97_2 1_555 1_555
C104_2 C105_2 1_555 1_555
C107_2 C108_2 1_555 1_555
C109_2 N8_2 1_555 1_555
C110_2 C111_2 1_555 1_555
O24_2 Zn21 1_555 1_555
O28_2 Zn18 1_555 1_555
O29_2 Zn9_2 1_555 1_555
O30_2 Zn24 1_555 1_555
O31_2 Zn9_2 1_555 1_555
O36_2 Zn16_2 1_555 1_555
C118_2 C119_2 1_555 1_555
C121_2 N9_2 1_555 1_555
C124_2 C125_2 1_555 1_555
O51_2 Zn23_2 1_555 1_555
O54_2 Zn16_2 1_555 1_555
O58_2 H85_2 1_555 1_555
O58_2 H86_2 1_555 1_555
O38_2 H93_2 1_555 1_555
O38_2 H94_2 1_555 1_555
Zn6_3 O14_3 1_555 1_555
Zn16_2 O14_3 1_555 1_555
O34_2 Zn6_3 1_555 1_555
Zn6_4 O14_4 1_555 1_555
O15_2 Zn6_4 1_555 1_555
Zn5_2 O14_4 1_555 1_555
O59 C14_3 1_555 1_555
O62 C14_3 1_555 1_555
O65 C28_3 1_555 1_555
C1_3 C7_3 1_555 1_555
C2_3 H1_3 1_555 1_555
C3_3 C2_3 1_555 1_555
H2_3 C3_3 1_555 1_555
C4_3 C3_3 1_555 1_555
C5_3 C4_3 1_555 1_555
C6_3 C5_3 1_555 1_555
H3_3 C6_3 1_555 1_555
C7_3 C2_3 1_555 1_555
C8_3 C5_3 1_555 1_555
C9_3 C8_3 1_555 1_555
C10_3 C9_3 1_555 1_555
H4_3 C10_3 1_555 1_555
C11_3 C10_3 1_555 1_555
H5_3 C11_3 1_555 1_555
C12_3 C11_3 1_555 1_555
C13_3 C8_3 1_555 1_555
H6_3 C13_3 1_555 1_555
C15_3 C17_3 1_555 1_555
C16_3 H7_3 1_555 1_555
C17_3 C16_3 1_555 1_555
C18_3 C17_3 1_555 1_555
H8_3 C18_3 1_555 1_555
C19_3 C18_3 1_555 1_555
C20_3 C19_3 1_555 1_555
C21_3 C16_3 1_555 1_555
H9_3 C21_3 1_555 1_555
C22_3 H10_3 1_555 1_555
C23_3 C19_3 1_555 1_555
C24_3 C23_3 1_555 1_555
C25_3 C24_3 1_555 1_555
H11_3 C25_3 1_555 1_555
C26_3 C25_3 1_555 1_555
C27_3 C22_3 1_555 1_555
C29_3 C31_3 1_555 1_555
C30_3 H13_3 1_555 1_555
C31_3 C30_3 1_555 1_555
C32_3 C31_3 1_555 1_555
H14_3 C32_3 1_555 1_555
C33_3 C32_3 1_555 1_555
C34_3 C33_3 1_555 1_555
C35_3 C30_3 1_555 1_555
H15_3 C35_3 1_555 1_555
C36_3 H16_3 1_555 1_555
C37_3 C33_3 1_555 1_555
C38_3 C37_3 1_555 1_555
C39_3 C38_3 1_555 1_555
H17_3 C39_3 1_555 1_555
C40_3 C39_3 1_555 1_555
H18_3 C40_3 1_555 1_555
C41_3 C36_3 1_555 1_555
C42_3 C41_3 1_555 1_555
C43_3 C45_3 1_555 1_555
C44_3 H19_3 1_555 1_555
C45_3 C44_3 1_555 1_555
C46_3 C45_3 1_555 1_555
H20_3 C46_3 1_555 1_555
C47_3 C46_3 1_555 1_555
H21_3 C47_3 1_555 1_555
C48_3 C47_3 1_555 1_555
C49_3 C44_3 1_555 1_555
C50_3 C51_3 1_555 1_555
C51_3 H22_3 1_555 1_555
C52_3 C49_3 1_555 1_555
C53_3 C52_3 1_555 1_555
C54_3 C53_3 1_555 1_555
H23_3 C54_3 1_555 1_555
C55_3 C50_3 1_555 1_555
H24_3 C55_3 1_555 1_555
C56_3 C50_3 1_555 1_555
O1_3 Zn17_2 1_555 1_555
O2_3 C1_3 1_555 1_555
O3_3 C1_3 1_555 1_555
O4_3 C15_3 1_555 1_555
O5_3 C15_3 1_555 1_555
O8_3 C43_3 1_555 1_555
O9_3 C43_3 1_555 1_555
O10_3 C29_3 1_555 1_555
O11_3 C29_3 1_555 1_555
O14_5 Zn5_3 1_555 1_555
O15_3 C42_3 1_555 1_555
O16_3 C42_3 1_555 1_555
O17_3 C56_3 1_555 1_555
O18_3 C56_3 1_555 1_555
O19_3 Zn23_2 1_555 1_555
O20_3 Zn23_2 1_555 1_555
Zn17_2 O5_3 1_555 1_555
Zn20_2 O1_3 1_555 1_555
Zn3_3 O1_3 1_555 1_555
Zn23_2 O1_3 1_555 1_555
Zn5_3 O16_3 1_555 1_555
Zn6_5 O14_5 1_555 1_555
N1_3 C4_3 1_555 1_555
H25_3 N1_3 1_555 1_555
N2_3 C20_3 1_555 1_555
H26_3 N2_3 1_555 1_555
N3_3 C34_3 1_555 1_555
H27_3 N3_3 1_555 1_555
N4_3 C48_3 1_555 1_555
H28_3 N4_3 1_555 1_555
C57_3 C63_3 1_555 1_555
C58_3 H29_3 1_555 1_555
C59_3 C58_3 1_555 1_555
H30_3 C59_3 1_555 1_555
C60_3 C59_3 1_555 1_555
C61_3 C60_3 1_555 1_555
C62_3 C61_3 1_555 1_555
H31_3 C62_3 1_555 1_555
C63_3 C58_3 1_555 1_555
C64_3 C61_3 1_555 1_555
C65_3 C64_3 1_555 1_555
C66_3 C65_3 1_555 1_555
H32_3 C66_3 1_555 1_555
C67_3 C66_3 1_555 1_555
H33_3 C67_3 1_555 1_555
C68_3 C67_3 1_555 1_555
C69_3 C64_3 1_555 1_555
H34_3 C69_3 1_555 1_555
C70_3 C68_3 1_555 1_555
C71_3 C73_3 1_555 1_555
C72_3 H35_3 1_555 1_555
C73_3 C72_3 1_555 1_555
C74_3 C73_3 1_555 1_555
H36_3 C74_3 1_555 1_555
C75_3 C74_3 1_555 1_555
C76_3 C75_3 1_555 1_555
C77_3 C72_3 1_555 1_555
H37_3 C77_3 1_555 1_555
C78_3 H38_3 1_555 1_555
C79_3 C75_3 1_555 1_555
C80_3 C79_3 1_555 1_555
C81_3 C80_3 1_555 1_555
H39_3 C81_3 1_555 1_555
C82_3 C81_3 1_555 1_555
C83_3 C78_3 1_555 1_555
C84_3 C83_3 1_555 1_555
C85_3 C87_3 1_555 1_555
C86_3 H41_3 1_555 1_555
C87_3 C86_3 1_555 1_555
C88_3 C87_3 1_555 1_555
H42_3 C88_3 1_555 1_555
C89_3 C88_3 1_555 1_555
C90_3 C89_3 1_555 1_555
C91_3 C86_3 1_555 1_555
H43_3 C91_3 1_555 1_555
C92_3 H44_3 1_555 1_555
C93_3 C89_3 1_555 1_555
C94_3 C93_3 1_555 1_555
C95_3 C94_3 1_555 1_555
H45_3 C95_3 1_555 1_555
C96_3 C95_3 1_555 1_555
H46_3 C96_3 1_555 1_555
C97_3 C92_3 1_555 1_555
C98_3 C97_3 1_555 1_555
C99_3 C101_3 1_555 1_555
C100_3 H47_3 1_555 1_555
C101_3 C100_3 1_555 1_555
C102_3 C101_3 1_555 1_555
H48_3 C102_3 1_555 1_555
C103_3 C102_3 1_555 1_555
H49_3 C103_3 1_555 1_555
C104_3 C103_3 1_555 1_555
C105_3 C100_3 1_555 1_555
C106_3 C107_3 1_555 1_555
C107_3 H50_3 1_555 1_555
C108_3 C105_3 1_555 1_555
C109_3 C108_3 1_555 1_555
C110_3 C109_3 1_555 1_555
H51_3 C110_3 1_555 1_555
C111_3 C106_3 1_555 1_555
H52_3 C111_3 1_555 1_555
C112_3 C106_3 1_555 1_555
O21_3 Zn18_2 1_555 1_555
O22_3 C57_3 1_555 1_555
O23_3 C57_3 1_555 1_555
O24_3 C71_3 1_555 1_555
O25_3 C71_3 1_555 1_555
O60 C70_3 1_555 1_555
O63 C70_3 1_555 1_555
O28_3 C99_3 1_555 1_555
O29_3 C99_3 1_555 1_555
O30_3 C85_3 1_555 1_555
O31_3 C85_3 1_555 1_555
O66 C84_3 1_555 1_555
O34_3 Zn6_5 1_555 1_555
O35_3 C98_3 1_555 1_555
O36_3 C112_3 1_555 1_555
O37_3 C112_3 1_555 1_555
O38_3 Zn24_2 1_555 1_555
O39_3 Zn24_2 1_555 1_555
Zn18_2 O25_3 1_555 1_555
Zn21_2 O21_3 1_555 1_555
Zn9_3 O21_3 1_555 1_555
Zn24_2 O21_3 1_555 1_555
Zn11_3 O14_5 1_555 1_555
N5_3 C60_3 1_555 1_555
H53_3 N5_3 1_555 1_555
N6_3 C76_3 1_555 1_555
H54_3 N6_3 1_555 1_555
N7_3 C90_3 1_555 1_555
H55_3 N7_3 1_555 1_555
N8_3 C104_3 1_555 1_555
H56_3 N8_3 1_555 1_555
C113_3 C119_3 1_555 1_555
C114_3 H57_3 1_555 1_555
C115_3 C114_3 1_555 1_555
H58_3 C115_3 1_555 1_555
C116_3 C115_3 1_555 1_555
C117_3 C116_3 1_555 1_555
C118_3 C117_3 1_555 1_555
H59_3 C118_3 1_555 1_555
C119_3 C114_3 1_555 1_555
C120_3 C117_3 1_555 1_555
C121_3 C120_3 1_555 1_555
C122_3 C121_3 1_555 1_555
H60_3 C122_3 1_555 1_555
C123_3 C122_3 1_555 1_555
H61_3 C123_3 1_555 1_555
C124_3 C123_3 1_555 1_555
C125_3 C120_3 1_555 1_555
H62_3 C125_3 1_555 1_555
C127_3 C129_3 1_555 1_555
C128_3 H63_3 1_555 1_555
C129_3 C128_3 1_555 1_555
C130_3 C129_3 1_555 1_555
H64_3 C130_3 1_555 1_555
C131_3 C130_3 1_555 1_555
C132_3 C131_3 1_555 1_555
C133_3 C128_3 1_555 1_555
H65_3 C133_3 1_555 1_555
C134_3 H66_3 1_555 1_555
C135_3 C131_3 1_555 1_555
C136_3 C135_3 1_555 1_555
C137_3 C136_3 1_555 1_555
H67_3 C137_3 1_555 1_555
C138_3 C137_3 1_555 1_555
C139_3 C134_3 1_555 1_555
C141_3 C143_3 1_555 1_555
C142_3 H69_3 1_555 1_555
C143_3 C142_3 1_555 1_555
C144_3 C143_3 1_555 1_555
H70_3 C144_3 1_555 1_555
C145_3 C144_3 1_555 1_555
C146_3 C145_3 1_555 1_555
C147_3 C142_3 1_555 1_555
H71_3 C147_3 1_555 1_555
C148_3 H72_3 1_555 1_555
C149_3 C145_3 1_555 1_555
C150_3 C149_3 1_555 1_555
C151_3 C150_3 1_555 1_555
H73_3 C151_3 1_555 1_555
C152_3 C151_3 1_555 1_555
H74_3 C152_3 1_555 1_555
C153_3 C148_3 1_555 1_555
C154_3 C153_3 1_555 1_555
C155_3 C157_3 1_555 1_555
C156_3 H75_3 1_555 1_555
C157_3 C156_3 1_555 1_555
C158_3 C157_3 1_555 1_555
H76_3 C158_3 1_555 1_555
C159_3 C158_3 1_555 1_555
H77_3 C159_3 1_555 1_555
C160_3 C159_3 1_555 1_555
C161_3 C156_3 1_555 1_555
C162_3 C163_3 1_555 1_555
C163_3 H78_3 1_555 1_555
C164_3 C161_3 1_555 1_555
C165_3 C164_3 1_555 1_555
C166_3 C165_3 1_555 1_555
H79_3 C166_3 1_555 1_555
C167_3 C162_3 1_555 1_555
H80_3 C167_3 1_555 1_555
C168_3 C162_3 1_555 1_555
O40_3 Zn19_2 1_555 1_555
O41_3 C113_3 1_555 1_555
O42_3 C113_3 1_555 1_555
O43_3 C127_3 1_555 1_555
O44_3 C127_3 1_555 1_555
O47_3 C155_3 1_555 1_555
O48_3 C155_3 1_555 1_555
O49_3 C141_3 1_555 1_555
O50_3 C141_3 1_555 1_555
O53_3 Zn6_5 1_555 1_555
O54_3 C154_3 1_555 1_555
O55_3 Zn5_3 1_555 1_555
O56_3 C168_3 1_555 1_555
O57_3 Zn25_2 1_555 1_555
O58_3 Zn25_2 1_555 1_555
Zn19_2 O44_3 1_555 1_555
Zn22_2 O40_3 1_555 1_555
Zn14_3 O40_3 1_555 1_555
Zn25_2 O40_3 1_555 1_555
Zn16_3 O14_5 1_555 1_555
N9_3 C116_3 1_555 1_555
H81_3 N9_3 1_555 1_555
N10_3 C132_3 1_555 1_555
H82_3 N10_3 1_555 1_555
N11_3 C146_3 1_555 1_555
H83_3 N11_3 1_555 1_555
N12_3 C160_3 1_555 1_555
H84_3 N12_3 1_555 1_555
C6_3 C7_3 1_555 1_555
C9_3 N1_3 1_555 1_555
C12_3 C13_3 1_555 1_555
C20_3 C21_3 1_555 1_555
C22_3 C23_3 1_555 1_555
C24_3 N2_3 1_555 1_555
C26_3 C27_3 1_555 1_555
C34_3 C35_3 1_555 1_555
C36_3 C37_3 1_555 1_555
C38_3 N3_3 1_555 1_555
C40_3 C41_3 1_555 1_555
C48_3 C49_3 1_555 1_555
C51_3 C52_3 1_555 1_555
C53_3 N4_3 1_555 1_555
C54_3 C55_3 1_555 1_555
O2_3 Zn3_3 1_555 1_555
O3_3 Zn20_2 1_555 1_555
O4_3 Zn20_2 1_555 1_555
O8_3 Zn17_2 1_555 1_555
O9_3 Zn3_3 1_555 1_555
O10_3 Zn23_2 1_555 1_555
O11_3 Zn3_3 1_555 1_555
O15_3 Zn6_5 1_555 1_555
O17_3 Zn11_3 1_555 1_555
O18_3 Zn5_3 1_555 1_555
C62_3 C63_3 1_555 1_555
C65_3 N5_3 1_555 1_555
C68_3 C69_3 1_555 1_555
C76_3 C77_3 1_555 1_555
C78_3 C79_3 1_555 1_555
C80_3 N6_3 1_555 1_555
C82_3 C83_3 1_555 1_555
C90_3 C91_3 1_555 1_555
C92_3 C93_3 1_555 1_555
C94_3 N7_3 1_555 1_555
C96_3 C97_3 1_555 1_555
C98_3 O34_3 1_555 1_555
C104_3 C105_3 1_555 1_555
C107_3 C108_3 1_555 1_555
C109_3 N8_3 1_555 1_555
C110_3 C111_3 1_555 1_555
O22_3 Zn9_3 1_555 1_555
O23_3 Zn21_2 1_555 1_555
O24_3 Zn21_2 1_555 1_555
O28_3 Zn18_2 1_555 1_555
O29_3 Zn9_3 1_555 1_555
O30_3 Zn24_2 1_555 1_555
O31_3 Zn9_3 1_555 1_555
O35_3 Zn11_3 1_555 1_555
O36_3 Zn16_3 1_555 1_555
O37_3 Zn11_3 1_555 1_555
C118_3 C119_3 1_555 1_555
C121_3 N9_3 1_555 1_555
C124_3 C125_3 1_555 1_555
C132_3 C133_3 1_555 1_555
C134_3 C135_3 1_555 1_555
C136_3 N10_3 1_555 1_555
C138_3 C139_3 1_555 1_555
C146_3 C147_3 1_555 1_555
C148_3 C149_3 1_555 1_555
C150_3 N11_3 1_555 1_555
C152_3 C153_3 1_555 1_555
C154_3 O53_3 1_555 1_555
C160_3 C161_3 1_555 1_555
C163_3 C164_3 1_555 1_555
C165_3 N12_3 1_555 1_555
C166_3 C167_3 1_555 1_555
C168_3 O55_3 1_555 1_555
O41_3 Zn14_3 1_555 1_555
O42_3 Zn22_2 1_555 1_555
O43_3 Zn22_2 1_555 1_555
O47_3 Zn19_2 1_555 1_555
O48_3 Zn14_3 1_555 1_555
O49_3 Zn25_2 1_555 1_555
O50_3 Zn14_3 1_555 1_555
O54_3 Zn16_3 1_555 1_555
O56_3 Zn16_3 1_555 1_555
O58_3 H85_3 1_555 1_555
O58_3 H86_3 1_555 1_555
O57_3 H87_3 1_555 1_555
O57_3 H88_3 1_555 1_555
O19_3 H89_3 1_555 1_555
O19_3 H90_3 1_555 1_555
O20_3 H91_3 1_555 1_555
O20_3 H92_3 1_555 1_555
O38_3 H93_3 1_555 1_555
O38_3 H94_3 1_555 1_555
O39_3 H95_3 1_555 1_555
O39_3 H96_3 1_555 1_555
O61 C126_3 1_555 1_555
O64 C126_3 1_555 1_555
O67 C140_3 1_555 1_555
C72_4 H35_4 1_555 1_555
C76_4 C75_4 1_555 1_555
C77_4 C72_4 1_555 1_555
H37_4 C77_4 1_555 1_555
C79_4 C75_4 1_555 1_555
C80_4 C79_4 1_555 1_555
C81_4 C80_4 1_555 1_555
H39_4 C81_4 1_555 1_555
C82_4 C81_4 1_555 1_555
H40_4 C82_4 1_555 1_555
C83_4 C78_4 1_555 1_555
N6_4 C76_4 1_555 1_555
H54_4 N6_4 1_555 1_555
C76_4 C77_4 1_555 1_555
C78_4 C79_4 1_555 1_555
C80_4 N6_4 1_555 1_555
C82_4 C83_4 1_555 1_555
C29_4 C31_4 1_555 1_555
C30_4 H13_4 1_555 1_555
C31_4 C30_4 1_555 1_555
C32_4 C31_4 1_555 1_555
H14_4 C32_4 1_555 1_555
C33_4 C32_4 1_555 1_555
C34_4 C33_4 1_555 1_555
C35_4 C30_4 1_555 1_555
H15_4 C35_4 1_555 1_555
C36_4 H16_4 1_555 1_555
C37_4 C33_4 1_555 1_555
C38_4 C37_4 1_555 1_555
C39_4 C38_4 1_555 1_555
H17_4 C39_4 1_555 1_555
C40_4 C39_4 1_555 1_555
H18_4 C40_4 1_555 1_555
C41_4 C36_4 1_555 1_555
C42_4 C41_4 1_555 1_555
C56_4 C50_4 1_555 1_555
O10_4 C29_4 1_555 1_555
O11_4 C29_4 1_555 1_555
O14_6 Zn5_4 1_555 1_555
O15_4 C42_4 1_555 1_555
O16_4 C42_4 1_555 1_555
O17_4 C56_4 1_555 1_555
O18_4 C56_4 1_555 1_555
O19_4 Zn4_2 1_555 1_555
O20_4 Zn4_2 1_555 1_555
Zn3_4 O1_4 1_555 1_555
Zn4_2 O1_4 1_555 1_555
Zn5_4 O16_4 1_555 1_555
Zn6_6 O14_6 1_555 1_555
N3_4 C34_4 1_555 1_555
H27_4 N3_4 1_555 1_555
C85_4 C87_4 1_555 1_555
C86_4 H41_4 1_555 1_555
C87_4 C86_4 1_555 1_555
C88_4 C87_4 1_555 1_555
H42_4 C88_4 1_555 1_555
C89_4 C88_4 1_555 1_555
C90_4 C89_4 1_555 1_555
C91_4 C86_4 1_555 1_555
H43_4 C91_4 1_555 1_555
C92_4 H44_4 1_555 1_555
C93_4 C89_4 1_555 1_555
C94_4 C93_4 1_555 1_555
C95_4 C94_4 1_555 1_555
H45_4 C95_4 1_555 1_555
C96_4 C95_4 1_555 1_555
H46_4 C96_4 1_555 1_555
C97_4 C92_4 1_555 1_555
C98_4 C97_4 1_555 1_555
C112_4 C106_4 1_555 1_555
O30_4 C85_4 1_555 1_555
O31_4 C85_4 1_555 1_555
O34_4 Zn6_6 1_555 1_555
O35_4 C98_4 1_555 1_555
O36_4 C112_4 1_555 1_555
O37_4 C112_4 1_555 1_555
O38_4 Zn10_2 1_555 1_555
O39_4 Zn10_2 1_555 1_555
Zn9_4 O21_4 1_555 1_555
Zn10_2 O21_4 1_555 1_555
Zn11_4 O14_6 1_555 1_555
N7_4 C90_4 1_555 1_555
H55_4 N7_4 1_555 1_555
C141_4 C143_4 1_555 1_555
C142_4 H69_4 1_555 1_555
C143_4 C142_4 1_555 1_555
C144_4 C143_4 1_555 1_555
H70_4 C144_4 1_555 1_555
C145_4 C144_4 1_555 1_555
C146_4 C145_4 1_555 1_555
C147_4 C142_4 1_555 1_555
H71_4 C147_4 1_555 1_555
C148_4 H72_4 1_555 1_555
C149_4 C145_4 1_555 1_555
C150_4 C149_4 1_555 1_555
C151_4 C150_4 1_555 1_555
H73_4 C151_4 1_555 1_555
C152_4 C151_4 1_555 1_555
H74_4 C152_4 1_555 1_555
C153_4 C148_4 1_555 1_555
C154_4 C153_4 1_555 1_555
C168_4 C162_4 1_555 1_555
O49_4 C141_4 1_555 1_555
O50_4 C141_4 1_555 1_555
O53_4 Zn6_6 1_555 1_555
O54_4 C154_4 1_555 1_555
O55_4 Zn5_4 1_555 1_555
O56_4 C168_4 1_555 1_555
O57_4 Zn15_2 1_555 1_555
O58_4 Zn15_2 1_555 1_555
Zn14_4 O40_4 1_555 1_555
Zn15_2 O40_4 1_555 1_555
Zn16_4 O14_6 1_555 1_555
N11_4 C146_4 1_555 1_555
H83_4 N11_4 1_555 1_555
O59_2 Zn10_2 1_555 1_555
O60_2 Zn15_2 1_555 1_555
O61_2 Zn4_2 1_555 1_555
O65_2 Zn10_2 1_555 1_555
O66_2 Zn15_2 1_555 1_555
O67_2 Zn4_2 1_555 1_555
C34_4 C35_4 1_555 1_555
C36_4 C37_4 1_555 1_555
C38_4 N3_4 1_555 1_555
C40_4 C41_4 1_555 1_555
O10_4 Zn4_2 1_555 1_555
O11_4 Zn3_4 1_555 1_555
O15_4 Zn6_6 1_555 1_555
O17_4 Zn11_4 1_555 1_555
O18_4 Zn5_4 1_555 1_555
C90_4 C91_4 1_555 1_555
C92_4 C93_4 1_555 1_555
C94_4 N7_4 1_555 1_555
C96_4 C97_4 1_555 1_555
C98_4 O34_4 1_555 1_555
O30_4 Zn10_2 1_555 1_555
O31_4 Zn9_4 1_555 1_555
O35_4 Zn11_4 1_555 1_555
O36_4 Zn16_4 1_555 1_555
O37_4 Zn11_4 1_555 1_555
C146_4 C147_4 1_555 1_555
C148_4 C149_4 1_555 1_555
C150_4 N11_4 1_555 1_555
C152_4 C153_4 1_555 1_555
C154_4 O53_4 1_555 1_555
C168_4 O55_4 1_555 1_555
O49_4 Zn15_2 1_555 1_555
O50_4 Zn14_4 1_555 1_555
O54_4 Zn16_4 1_555 1_555
O56_4 Zn16_4 1_555 1_555
O58_4 H85_4 1_555 1_555
O58_4 H86_4 1_555 1_555
O57_4 H87_4 1_555 1_555
O57_4 H88_4 1_555 1_555
O19_4 H89_4 1_555 1_555
O19_4 H90_4 1_555 1_555
O20_4 H91_4 1_555 1_555
O20_4 H92_4 1_555 1_555
O38_4 H93_4 1_555 1_555
O38_4 H94_4 1_555 1_555
O39_4 H95_4 1_555 1_555
O39_4 H96_4 1_555 1_555
C1_4 C7_4 1_555 1_555
C2_4 H1_4 1_555 1_555
C3_4 C2_4 1_555 1_555
H2_4 C3_4 1_555 1_555
C4_4 C3_4 1_555 1_555
C5_4 C4_4 1_555 1_555
C6_4 C5_4 1_555 1_555
H3_4 C6_4 1_555 1_555
C7_4 C2_4 1_555 1_555
C8_4 C5_4 1_555 1_555
C9_4 C8_4 1_555 1_555
C10_4 C9_4 1_555 1_555
H4_4 C10_4 1_555 1_555
C11_4 C10_4 1_555 1_555
H5_4 C11_4 1_555 1_555
C12_4 C11_4 1_555 1_555
C13_4 C8_4 1_555 1_555
H6_4 C13_4 1_555 1_555
C14_4 C12_4 1_555 1_555
C15_4 C17_4 1_555 1_555
C18_4 C17_4 1_555 1_555
H8_4 C18_4 1_555 1_555
C43_4 C45_4 1_555 1_555
C44_4 H19_4 1_555 1_555
C45_4 C44_4 1_555 1_555
C46_4 C45_4 1_555 1_555
H20_4 C46_4 1_555 1_555
C47_4 C46_4 1_555 1_555
H21_4 C47_4 1_555 1_555
C48_4 C47_4 1_555 1_555
C49_4 C44_4 1_555 1_555
C52_4 C49_4 1_555 1_555
C53_4 C52_4 1_555 1_555
C54_4 C53_4 1_555 1_555
H23_4 C54_4 1_555 1_555
H24_4 C55_4 1_555 1_555
O2_4 C1_4 1_555 1_555
O3_4 C1_4 1_555 1_555
O4_4 C15_4 1_555 1_555
O5_4 C15_4 1_555 1_555
O6_3 C14_4 1_555 1_555
O7_3 C14_4 1_555 1_555
O8_4 C43_4 1_555 1_555
O9_4 C43_4 1_555 1_555
O12_3 C28_4 1_555 1_555
Zn1_2 O5_4 1_555 1_555
N1_4 C4_4 1_555 1_555
H25_4 N1_4 1_555 1_555
N4_4 C48_4 1_555 1_555
H28_4 N4_4 1_555 1_555
C57_4 C63_4 1_555 1_555
C58_4 H29_4 1_555 1_555
C59_4 C58_4 1_555 1_555
H30_4 C59_4 1_555 1_555
C60_4 C59_4 1_555 1_555
C61_4 C60_4 1_555 1_555
C62_4 C61_4 1_555 1_555
H31_4 C62_4 1_555 1_555
C63_4 C58_4 1_555 1_555
C64_4 C61_4 1_555 1_555
C65_4 C64_4 1_555 1_555
C66_4 C65_4 1_555 1_555
H32_4 C66_4 1_555 1_555
C67_4 C66_4 1_555 1_555
H33_4 C67_4 1_555 1_555
C68_4 C67_4 1_555 1_555
C69_4 C64_4 1_555 1_555
H34_4 C69_4 1_555 1_555
C70_4 C68_4 1_555 1_555
C71_4 C73_4 1_555 1_555
C74_4 C73_4 1_555 1_555
H36_4 C74_4 1_555 1_555
C99_4 C101_4 1_555 1_555
C100_4 H47_4 1_555 1_555
C101_4 C100_4 1_555 1_555
C102_4 C101_4 1_555 1_555
H48_4 C102_4 1_555 1_555
C103_4 C102_4 1_555 1_555
H49_4 C103_4 1_555 1_555
C104_4 C103_4 1_555 1_555
C105_4 C100_4 1_555 1_555
C108_4 C105_4 1_555 1_555
C109_4 C108_4 1_555 1_555
C110_4 C109_4 1_555 1_555
H51_4 C110_4 1_555 1_555
H52_4 C111_4 1_555 1_555
O22_4 C57_4 1_555 1_555
O23_4 C57_4 1_555 1_555
O24_4 C71_4 1_555 1_555
O25_4 C71_4 1_555 1_555
O26_3 C70_4 1_555 1_555
O27_3 C70_4 1_555 1_555
O28_4 C99_4 1_555 1_555
O29_4 C99_4 1_555 1_555
O32_3 C84_4 1_555 1_555
Zn7_2 O25_4 1_555 1_555
N5_4 C60_4 1_555 1_555
H53_4 N5_4 1_555 1_555
N8_4 C104_4 1_555 1_555
H56_4 N8_4 1_555 1_555
C113_4 C119_4 1_555 1_555
C114_4 H57_4 1_555 1_555
C115_4 C114_4 1_555 1_555
H58_4 C115_4 1_555 1_555
C116_4 C115_4 1_555 1_555
C117_4 C116_4 1_555 1_555
C118_4 C117_4 1_555 1_555
H59_4 C118_4 1_555 1_555
C119_4 C114_4 1_555 1_555
C120_4 C117_4 1_555 1_555
C121_4 C120_4 1_555 1_555
C122_4 C121_4 1_555 1_555
H60_4 C122_4 1_555 1_555
C123_4 C122_4 1_555 1_555
H61_4 C123_4 1_555 1_555
C124_4 C123_4 1_555 1_555
C125_4 C120_4 1_555 1_555
H62_4 C125_4 1_555 1_555
C126_4 C124_4 1_555 1_555
C127_4 C129_4 1_555 1_555
C128_4 H63_4 1_555 1_555
C129_4 C128_4 1_555 1_555
C130_4 C129_4 1_555 1_555
H64_4 C130_4 1_555 1_555
C131_4 C130_4 1_555 1_555
C132_4 C131_4 1_555 1_555
C133_4 C128_4 1_555 1_555
H65_4 C133_4 1_555 1_555
C134_4 H66_4 1_555 1_555
C135_4 C131_4 1_555 1_555
C136_4 C135_4 1_555 1_555
C137_4 C136_4 1_555 1_555
H67_4 C137_4 1_555 1_555
C138_4 C137_4 1_555 1_555
H68_4 C138_4 1_555 1_555
C139_4 C134_4 1_555 1_555
C140_4 C139_4 1_555 1_555
C155_4 C157_4 1_555 1_555
C156_4 H75_4 1_555 1_555
C157_4 C156_4 1_555 1_555
C158_4 C157_4 1_555 1_555
H76_4 C158_4 1_555 1_555
C159_4 C158_4 1_555 1_555
H77_4 C159_4 1_555 1_555
C160_4 C159_4 1_555 1_555
C161_4 C156_4 1_555 1_555
C164_4 C161_4 1_555 1_555
C165_4 C164_4 1_555 1_555
C166_4 C165_4 1_555 1_555
H79_4 C166_4 1_555 1_555
H80_4 C167_4 1_555 1_555
O41_4 C113_4 1_555 1_555
O42_4 C113_4 1_555 1_555
O43_4 C127_4 1_555 1_555
O44_4 C127_4 1_555 1_555
O45_3 C126_4 1_555 1_555
O46_3 C126_4 1_555 1_555
O47_4 C155_4 1_555 1_555
O48_4 C155_4 1_555 1_555
O51_3 C140_4 1_555 1_555
O52_3 C140_4 1_555 1_555
Zn12_2 O44_4 1_555 1_555
N9_4 C116_4 1_555 1_555
H81_4 N9_4 1_555 1_555
N10_4 C132_4 1_555 1_555
H82_4 N10_4 1_555 1_555
N12_4 C160_4 1_555 1_555
H84_4 N12_4 1_555 1_555
O68_2 Zn8_2 1_555 1_555
O69_2 Zn13_2 1_555 1_555
O70_2 Zn2_2 1_555 1_555
Zn17_3 O46_3 1_555 1_555
Zn18_3 O7_3 1_555 1_555
Zn19_3 O27_3 1_555 1_555
Zn20_3 O52_3 1_555 1_555
Zn23_3 O45_3 1_555 1_555
Zn24_3 O6_3 1_555 1_555
Zn25_3 O26_3 1_555 1_555
C6_4 C7_4 1_555 1_555
C9_4 N1_4 1_555 1_555
C12_4 C13_4 1_555 1_555
C48_4 C49_4 1_555 1_555
C51_4 C52_4 1_555 1_555
C53_4 N4_4 1_555 1_555
C54_4 C55_4 1_555 1_555
O3_4 Zn2_2 1_555 1_555
O4_4 Zn2_2 1_555 1_555
O8_4 Zn1_2 1_555 1_555
O12_3 Zn24_3 1_555 1_555
C62_4 C63_4 1_555 1_555
C65_4 N5_4 1_555 1_555
C68_4 C69_4 1_555 1_555
C104_4 C105_4 1_555 1_555
C107_4 C108_4 1_555 1_555
C109_4 N8_4 1_555 1_555
C110_4 C111_4 1_555 1_555
O23_4 Zn8_2 1_555 1_555
O24_4 Zn8_2 1_555 1_555
O28_4 Zn7_2 1_555 1_555
O32_3 Zn25_3 1_555 1_555
C118_4 C119_4 1_555 1_555
C121_4 N9_4 1_555 1_555
C124_4 C125_4 1_555 1_555
C132_4 C133_4 1_555 1_555
C134_4 C135_4 1_555 1_555
C136_4 N10_4 1_555 1_555
C138_4 C139_4 1_555 1_555
C160_4 C161_4 1_555 1_555
C163_4 C164_4 1_555 1_555
C165_4 N12_4 1_555 1_555
C166_4 C167_4 1_555 1_555
O42_4 Zn13_2 1_555 1_555
O43_4 Zn13_2 1_555 1_555
O47_4 Zn12_2 1_555 1_555
O51_3 Zn23_3 1_555 1_555
C16_4 H7_4 1_555 1_555
C20_4 C19_4 1_555 1_555
C21_4 C16_4 1_555 1_555
H9_4 C21_4 1_555 1_555
C23_4 C19_4 1_555 1_555
C24_4 C23_4 1_555 1_555
C25_4 C24_4 1_555 1_555
H11_4 C25_4 1_555 1_555
C26_4 C25_4 1_555 1_555
H12_4 C26_4 1_555 1_555
C27_4 C22_4 1_555 1_555
N2_4 C20_4 1_555 1_555
H26_4 N2_4 1_555 1_555
C20_4 C21_4 1_555 1_555
C22_4 C23_4 1_555 1_555
C24_4 N2_4 1_555 1_555
C26_4 C27_4 1_555 1_555
C71_5 C73_5 1_555 1_555
C72_5 H35_5 1_555 1_555
C73_5 C72_5 1_555 1_555
C74_5 C73_5 1_555 1_555
H36_5 C74_5 1_555 1_555
C75_5 C74_5 1_555 1_555
C76_5 C75_5 1_555 1_555
C77_5 C72_5 1_555 1_555
H37_5 C77_5 1_555 1_555
C78_5 H38_5 1_555 1_555
C79_5 C75_5 1_555 1_555
C80_5 C79_5 1_555 1_555
C81_5 C80_5 1_555 1_555
H39_5 C81_5 1_555 1_555
C82_5 C81_5 1_555 1_555
H40_5 C82_5 1_555 1_555
C83_5 C78_5 1_555 1_555
C85_5 C87_5 1_555 1_555
C86_5 H41_5 1_555 1_555
C87_5 C86_5 1_555 1_555
C88_5 C87_5 1_555 1_555
H42_5 C88_5 1_555 1_555
C89_5 C88_5 1_555 1_555
C90_5 C89_5 1_555 1_555
C91_5 C86_5 1_555 1_555
H43_5 C91_5 1_555 1_555
C93_5 C89_5 1_555 1_555
C94_5 C93_5 1_555 1_555
C95_5 C94_5 1_555 1_555
H45_5 C95_5 1_555 1_555
C96_5 C95_5 1_555 1_555
H46_5 C96_5 1_555 1_555
C97_5 C92_5 1_555 1_555
C99_5 C101_5 1_555 1_555
C100_5 H47_5 1_555 1_555
C101_5 C100_5 1_555 1_555
C102_5 C101_5 1_555 1_555
H48_5 C102_5 1_555 1_555
C103_5 C102_5 1_555 1_555
H49_5 C103_5 1_555 1_555
C104_5 C103_5 1_555 1_555
C105_5 C100_5 1_555 1_555
C106_5 C107_5 1_555 1_555
C107_5 H50_5 1_555 1_555
C108_5 C105_5 1_555 1_555
C109_5 C108_5 1_555 1_555
C110_5 C109_5 1_555 1_555
H51_5 C110_5 1_555 1_555
C111_5 C106_5 1_555 1_555
H52_5 C111_5 1_555 1_555
C112_5 C106_5 1_555 1_555
O21_5 Zn18_3 1_555 1_555
O24_5 C71_5 1_555 1_555
O25_5 C71_5 1_555 1_555
O28_5 C99_5 1_555 1_555
O29_5 C99_5 1_555 1_555
O30_5 C85_5 1_555 1_555
O31_5 C85_5 1_555 1_555
O36_5 C112_5 1_555 1_555
O37_5 C112_5 1_555 1_555
O38_5 Zn24_3 1_555 1_555
Zn18_3 O25_5 1_555 1_555
Zn21_3 O21_5 1_555 1_555
Zn9_5 O21_5 1_555 1_555
Zn24_3 O21_5 1_555 1_555
N6_5 C76_5 1_555 1_555
H54_5 N6_5 1_555 1_555
N7_5 C90_5 1_555 1_555
H55_5 N7_5 1_555 1_555
N8_5 C104_5 1_555 1_555
H56_5 N8_5 1_555 1_555
C113_5 C119_5 1_555 1_555
C114_5 H57_5 1_555 1_555
C115_5 C114_5 1_555 1_555
H58_5 C115_5 1_555 1_555
C116_5 C115_5 1_555 1_555
C117_5 C116_5 1_555 1_555
C118_5 C117_5 1_555 1_555
H59_5 C118_5 1_555 1_555
C119_5 C114_5 1_555 1_555
C120_5 C117_5 1_555 1_555
C121_5 C120_5 1_555 1_555
C122_5 C121_5 1_555 1_555
H60_5 C122_5 1_555 1_555
C123_5 C122_5 1_555 1_555
H61_5 C123_5 1_555 1_555
C124_5 C123_5 1_555 1_555
C125_5 C120_5 1_555 1_555
H62_5 C125_5 1_555 1_555
C126_5 C124_5 1_555 1_555
O41_5 C113_5 1_555 1_555
O42_5 C113_5 1_555 1_555
O45_4 C126_5 1_555 1_555
O46_4 C126_5 1_555 1_555
O51_4 C140_5 1_555 1_555
O52_4 C140_5 1_555 1_555
O54_5 C154_5 1_555 1_555
N9_5 C116_5 1_555 1_555
H81_5 N9_5 1_555 1_555
Zn17_4 O46_4 1_555 1_555
Zn20_4 O52_4 1_555 1_555
Zn23_4 O45_4 1_555 1_555
C76_5 C77_5 1_555 1_555
C78_5 C79_5 1_555 1_555
C80_5 N6_5 1_555 1_555
C82_5 C83_5 1_555 1_555
C90_5 C91_5 1_555 1_555
C92_5 C93_5 1_555 1_555
C94_5 N7_5 1_555 1_555
C96_5 C97_5 1_555 1_555
C104_5 C105_5 1_555 1_555
C107_5 C108_5 1_555 1_555
C109_5 N8_5 1_555 1_555
C110_5 C111_5 1_555 1_555
O24_5 Zn21_3 1_555 1_555
O28_5 Zn18_3 1_555 1_555
O29_5 Zn9_5 1_555 1_555
O30_5 Zn24_3 1_555 1_555
O31_5 Zn9_5 1_555 1_555
O36_5 Zn16_5 1_555 1_555
C118_5 C119_5 1_555 1_555
C121_5 N9_5 1_555 1_555
C124_5 C125_5 1_555 1_555
O51_4 Zn23_4 1_555 1_555
O54_5 Zn16_5 1_555 1_555
O58_5 H85_5 1_555 1_555
O58_5 H86_5 1_555 1_555
O38_5 H93_5 1_555 1_555
O38_5 H94_5 1_555 1_555
H23_5 C54_5 1_555 1_555
H24_5 C55_5 1_555 1_555
Zn6_7 O14_7 1_555 1_555
C57_5 C63_5 1_555 1_555
C58_5 H29_5 1_555 1_555
C59_5 C58_5 1_555 1_555
H30_5 C59_5 1_555 1_555
C60_5 C59_5 1_555 1_555
C61_5 C60_5 1_555 1_555
C62_5 C61_5 1_555 1_555
H31_5 C62_5 1_555 1_555
C63_5 C58_5 1_555 1_555
C64_5 C61_5 1_555 1_555
C65_5 C64_5 1_555 1_555
C66_5 C65_5 1_555 1_555
H32_5 C66_5 1_555 1_555
C67_5 C66_5 1_555 1_555
H33_5 C67_5 1_555 1_555
C68_5 C67_5 1_555 1_555
C69_5 C64_5 1_555 1_555
H34_5 C69_5 1_555 1_555
C70_5 C68_5 1_555 1_555
O22_5 C57_5 1_555 1_555
O23_5 C57_5 1_555 1_555
O26_4 C70_5 1_555 1_555
O27_4 C70_5 1_555 1_555
O32_4 C84_5 1_555 1_555
O33_4 C84_5 1_555 1_555
O35_5 C98_5 1_555 1_555
Zn11_5 O14_7 1_555 1_555
N5_5 C60_5 1_555 1_555
H53_5 N5_5 1_555 1_555
Zn19_4 O27_4 1_555 1_555
Zn22_4 O33_4 1_555 1_555
Zn25_4 O26_4 1_555 1_555
C54_5 C55_5 1_555 1_555
O17_5 Zn11_5 1_555 1_555
C62_5 C63_5 1_555 1_555
C65_5 N5_5 1_555 1_555
C68_5 C69_5 1_555 1_555
O32_4 Zn25_4 1_555 1_555
O35_5 Zn11_5 1_555 1_555
O39_5 H95_5 1_555 1_555
O39_5 H96_5 1_555 1_555
C127_5 C129_5 1_555 1_555
C128_5 H63_5 1_555 1_555
C129_5 C128_5 1_555 1_555
C130_5 C129_5 1_555 1_555
H64_5 C130_5 1_555 1_555
C131_5 C130_5 1_555 1_555
C132_5 C131_5 1_555 1_555
C133_5 C128_5 1_555 1_555
H65_5 C133_5 1_555 1_555
C134_5 H66_5 1_555 1_555
C135_5 C131_5 1_555 1_555
C136_5 C135_5 1_555 1_555
C137_5 C136_5 1_555 1_555
H67_5 C137_5 1_555 1_555
C138_5 C137_5 1_555 1_555
H68_5 C138_5 1_555 1_555
C139_5 C134_5 1_555 1_555
C141_5 C143_5 1_555 1_555
C142_5 H69_5 1_555 1_555
C143_5 C142_5 1_555 1_555
C144_5 C143_5 1_555 1_555
H70_5 C144_5 1_555 1_555
C145_5 C144_5 1_555 1_555
C146_5 C145_5 1_555 1_555
C147_5 C142_5 1_555 1_555
H71_5 C147_5 1_555 1_555
C149_5 C145_5 1_555 1_555
C150_5 C149_5 1_555 1_555
C151_5 C150_5 1_555 1_555
H73_5 C151_5 1_555 1_555
C152_5 C151_5 1_555 1_555
H74_5 C152_5 1_555 1_555
C153_5 C148_5 1_555 1_555
C155_5 C157_5 1_555 1_555
C156_5 H75_5 1_555 1_555
C157_5 C156_5 1_555 1_555
C158_5 C157_5 1_555 1_555
H76_5 C158_5 1_555 1_555
C159_5 C158_5 1_555 1_555
H77_5 C159_5 1_555 1_555
C160_5 C159_5 1_555 1_555
C161_5 C156_5 1_555 1_555
C162_5 C163_5 1_555 1_555
C163_5 H78_5 1_555 1_555
C164_5 C161_5 1_555 1_555
C165_5 C164_5 1_555 1_555
C168_5 C162_5 1_555 1_555
O40_5 Zn19_3 1_555 1_555
O43_5 C127_5 1_555 1_555
O44_5 C127_5 1_555 1_555
O47_5 C155_5 1_555 1_555
O48_5 C155_5 1_555 1_555
O49_5 C141_5 1_555 1_555
O50_5 C141_5 1_555 1_555
O56_5 C168_5 1_555 1_555
O57_5 Zn25_3 1_555 1_555
Zn19_3 O44_5 1_555 1_555
Zn22_3 O40_5 1_555 1_555
Zn14_5 O40_5 1_555 1_555
Zn25_3 O40_5 1_555 1_555
N10_5 C132_5 1_555 1_555
H82_5 N10_5 1_555 1_555
N11_5 C146_5 1_555 1_555
H83_5 N11_5 1_555 1_555
N12_5 C160_5 1_555 1_555
H84_5 N12_5 1_555 1_555
C132_5 C133_5 1_555 1_555
C134_5 C135_5 1_555 1_555
C136_5 N10_5 1_555 1_555
C138_5 C139_5 1_555 1_555
C146_5 C147_5 1_555 1_555
C148_5 C149_5 1_555 1_555
C150_5 N11_5 1_555 1_555
C152_5 C153_5 1_555 1_555
C160_5 C161_5 1_555 1_555
C163_5 C164_5 1_555 1_555
C165_5 N12_5 1_555 1_555
O43_5 Zn22_3 1_555 1_555
O47_5 Zn19_3 1_555 1_555
O48_5 Zn14_5 1_555 1_555
O49_5 Zn25_3 1_555 1_555
O50_5 Zn14_5 1_555 1_555
O57_5 H87_5 1_555 1_555
O57_5 H88_5 1_555 1_555
C1_5 C7_5 1_555 1_555
C2_5 H1_5 1_555 1_555
C3_5 C2_5 1_555 1_555
H2_5 C3_5 1_555 1_555
C4_5 C3_5 1_555 1_555
C5_5 C4_5 1_555 1_555
C6_5 C5_5 1_555 1_555
H3_5 C6_5 1_555 1_555
C7_5 C2_5 1_555 1_555
C8_5 C5_5 1_555 1_555
C9_5 C8_5 1_555 1_555
C10_5 C9_5 1_555 1_555
H4_5 C10_5 1_555 1_555
C11_5 C10_5 1_555 1_555
H5_5 C11_5 1_555 1_555
C12_5 C11_5 1_555 1_555
C13_5 C8_5 1_555 1_555
H6_5 C13_5 1_555 1_555
C14_5 C12_5 1_555 1_555
C15_5 C17_5 1_555 1_555
C16_5 H7_5 1_555 1_555
C17_5 C16_5 1_555 1_555
C18_5 C17_5 1_555 1_555
H8_5 C18_5 1_555 1_555
C19_5 C18_5 1_555 1_555
C20_5 C19_5 1_555 1_555
C21_5 C16_5 1_555 1_555
H9_5 C21_5 1_555 1_555
C22_5 H10_5 1_555 1_555
C23_5 C19_5 1_555 1_555
C24_5 C23_5 1_555 1_555
C25_5 C24_5 1_555 1_555
H11_5 C25_5 1_555 1_555
C26_5 C25_5 1_555 1_555
H12_5 C26_5 1_555 1_555
C27_5 C22_5 1_555 1_555
C28_5 C27_5 1_555 1_555
C29_5 C31_5 1_555 1_555
C30_5 H13_5 1_555 1_555
C31_5 C30_5 1_555 1_555
C32_5 C31_5 1_555 1_555
H14_5 C32_5 1_555 1_555
C33_5 C32_5 1_555 1_555
C34_5 C33_5 1_555 1_555
C35_5 C30_5 1_555 1_555
H15_5 C35_5 1_555 1_555
C36_5 H16_5 1_555 1_555
C37_5 C33_5 1_555 1_555
C38_5 C37_5 1_555 1_555
C39_5 C38_5 1_555 1_555
H17_5 C39_5 1_555 1_555
C40_5 C39_5 1_555 1_555
H18_5 C40_5 1_555 1_555
C41_5 C36_5 1_555 1_555
C42_5 C41_5 1_555 1_555
C43_5 C45_5 1_555 1_555
C44_5 H19_5 1_555 1_555
C45_5 C44_5 1_555 1_555
C46_5 C45_5 1_555 1_555
H20_5 C46_5 1_555 1_555
C47_5 C46_5 1_555 1_555
H21_5 C47_5 1_555 1_555
C48_5 C47_5 1_555 1_555
C49_5 C44_5 1_555 1_555
C50_5 C51_5 1_555 1_555
C51_5 H22_5 1_555 1_555
C52_5 C49_5 1_555 1_555
C53_5 C52_5 1_555 1_555
C56_5 C50_5 1_555 1_555
O1_5 Zn17_3 1_555 1_555
O2_5 C1_5 1_555 1_555
O3_5 C1_5 1_555 1_555
O4_5 C15_5 1_555 1_555
O5_5 C15_5 1_555 1_555
O6_4 C14_5 1_555 1_555
O7_4 C14_5 1_555 1_555
O8_5 C43_5 1_555 1_555
O9_5 C43_5 1_555 1_555
O10_5 C29_5 1_555 1_555
O11_5 C29_5 1_555 1_555
O12_4 C28_5 1_555 1_555
O13_4 C28_5 1_555 1_555
O15_5 C42_5 1_555 1_555
O16_5 C42_5 1_555 1_555
O18_5 C56_5 1_555 1_555
O19_5 Zn23_3 1_555 1_555
O20_5 Zn23_3 1_555 1_555
Zn17_3 O5_5 1_555 1_555
Zn20_3 O1_5 1_555 1_555
Zn3_5 O1_5 1_555 1_555
Zn23_3 O1_5 1_555 1_555
Zn5_5 O16_5 1_555 1_555
N1_5 C4_5 1_555 1_555
H25_5 N1_5 1_555 1_555
N2_5 C20_5 1_555 1_555
H26_5 N2_5 1_555 1_555
N3_5 C34_5 1_555 1_555
H27_5 N3_5 1_555 1_555
N4_5 C48_5 1_555 1_555
H28_5 N4_5 1_555 1_555
H79_5 C166_5 1_555 1_555
H80_5 C167_5 1_555 1_555
O55_5 Zn5_5 1_555 1_555
Zn18_4 O7_4 1_555 1_555
Zn21_4 O13_4 1_555 1_555
Zn24_4 O6_4 1_555 1_555
C6_5 C7_5 1_555 1_555
C9_5 N1_5 1_555 1_555
C12_5 C13_5 1_555 1_555
C20_5 C21_5 1_555 1_555
C22_5 C23_5 1_555 1_555
C24_5 N2_5 1_555 1_555
C26_5 C27_5 1_555 1_555
C34_5 C35_5 1_555 1_555
C36_5 C37_5 1_555 1_555
C38_5 N3_5 1_555 1_555
C40_5 C41_5 1_555 1_555
C48_5 C49_5 1_555 1_555
C51_5 C52_5 1_555 1_555
C53_5 N4_5 1_555 1_555
O2_5 Zn3_5 1_555 1_555
O3_5 Zn20_3 1_555 1_555
O4_5 Zn20_3 1_555 1_555
O8_5 Zn17_3 1_555 1_555
O9_5 Zn3_5 1_555 1_555
O10_5 Zn23_3 1_555 1_555
O11_5 Zn3_5 1_555 1_555
O12_4 Zn24_4 1_555 1_555
O18_5 Zn5_5 1_555 1_555
C166_5 C167_5 1_555 1_555
O19_5 H89_5 1_555 1_555
O19_5 H90_5 1_555 1_555
O20_5 H91_5 1_555 1_555
O20_5 H92_5 1_555 1_555
Zn6_8 O14_8 1_555 1_555
Zn16_5 O14_8 1_555 1_555
O34_5 Zn6_8 1_555 1_555
Zn6_9 O14_9 1_555 1_555
O15_5 Zn6_9 1_555 1_555
Zn5_5 O14_9 1_555 1_555
O61_2 C126_6 1_555 1_555
O64_2 C126_6 1_555 1_555
O67_2 C140_6 1_555 1_555
C1_6 C7_6 1_555 1_555
C2_6 H1_6 1_555 1_555
C3_6 C2_6 1_555 1_555
H2_6 C3_6 1_555 1_555
C4_6 C3_6 1_555 1_555
C5_6 C4_6 1_555 1_555
C6_6 C5_6 1_555 1_555
H3_6 C6_6 1_555 1_555
C7_6 C2_6 1_555 1_555
C8_6 C5_6 1_555 1_555
C9_6 C8_6 1_555 1_555
C10_6 C9_6 1_555 1_555
H4_6 C10_6 1_555 1_555
C11_6 C10_6 1_555 1_555
H5_6 C11_6 1_555 1_555
C12_6 C11_6 1_555 1_555
C13_6 C8_6 1_555 1_555
H6_6 C13_6 1_555 1_555
C15_6 C17_6 1_555 1_555
C16_6 H7_6 1_555 1_555
C17_6 C16_6 1_555 1_555
C18_6 C17_6 1_555 1_555
H8_6 C18_6 1_555 1_555
C19_6 C18_6 1_555 1_555
C20_6 C19_6 1_555 1_555
C21_6 C16_6 1_555 1_555
H9_6 C21_6 1_555 1_555
C22_6 H10_6 1_555 1_555
C23_6 C19_6 1_555 1_555
C24_6 C23_6 1_555 1_555
C25_6 C24_6 1_555 1_555
H11_6 C25_6 1_555 1_555
C26_6 C25_6 1_555 1_555
C27_6 C22_6 1_555 1_555
C29_6 C31_6 1_555 1_555
C30_6 H13_6 1_555 1_555
C31_6 C30_6 1_555 1_555
C32_6 C31_6 1_555 1_555
H14_6 C32_6 1_555 1_555
C33_6 C32_6 1_555 1_555
C34_6 C33_6 1_555 1_555
C35_6 C30_6 1_555 1_555
H15_6 C35_6 1_555 1_555
C36_6 H16_6 1_555 1_555
C37_6 C33_6 1_555 1_555
C38_6 C37_6 1_555 1_555
C39_6 C38_6 1_555 1_555
H17_6 C39_6 1_555 1_555
C40_6 C39_6 1_555 1_555
H18_6 C40_6 1_555 1_555
C41_6 C36_6 1_555 1_555
C42_6 C41_6 1_555 1_555
C43_6 C45_6 1_555 1_555
C44_6 H19_6 1_555 1_555
C45_6 C44_6 1_555 1_555
C46_6 C45_6 1_555 1_555
H20_6 C46_6 1_555 1_555
C47_6 C46_6 1_555 1_555
H21_6 C47_6 1_555 1_555
C48_6 C47_6 1_555 1_555
C49_6 C44_6 1_555 1_555
C50_6 C51_6 1_555 1_555
C51_6 H22_6 1_555 1_555
C52_6 C49_6 1_555 1_555
C53_6 C52_6 1_555 1_555
C54_6 C53_6 1_555 1_555
H23_6 C54_6 1_555 1_555
C55_6 C50_6 1_555 1_555
H24_6 C55_6 1_555 1_555
C56_6 C50_6 1_555 1_555
O1_6 Zn17_4 1_555 1_555
O2_6 C1_6 1_555 1_555
O3_6 C1_6 1_555 1_555
O4_6 C15_6 1_555 1_555
O5_6 C15_6 1_555 1_555
O8_6 C43_6 1_555 1_555
O9_6 C43_6 1_555 1_555
O10_6 C29_6 1_555 1_555
O11_6 C29_6 1_555 1_555
O14_10 Zn5_6 1_555 1_555
O15_6 C42_6 1_555 1_555
O16_6 C42_6 1_555 1_555
O17_6 C56_6 1_555 1_555
O18_6 C56_6 1_555 1_555
O19_6 Zn23_4 1_555 1_555
O20_6 Zn23_4 1_555 1_555
Zn17_4 O5_6 1_555 1_555
Zn20_4 O1_6 1_555 1_555
Zn3_6 O1_6 1_555 1_555
Zn23_4 O1_6 1_555 1_555
Zn5_6 O16_6 1_555 1_555
Zn6_10 O14_10 1_555 1_555
N1_6 C4_6 1_555 1_555
H25_6 N1_6 1_555 1_555
N2_6 C20_6 1_555 1_555
H26_6 N2_6 1_555 1_555
N3_6 C34_6 1_555 1_555
H27_6 N3_6 1_555 1_555
N4_6 C48_6 1_555 1_555
H28_6 N4_6 1_555 1_555
C57_6 C63_6 1_555 1_555
C58_6 H29_6 1_555 1_555
C59_6 C58_6 1_555 1_555
H30_6 C59_6 1_555 1_555
C60_6 C59_6 1_555 1_555
C61_6 C60_6 1_555 1_555
C62_6 C61_6 1_555 1_555
H31_6 C62_6 1_555 1_555
C63_6 C58_6 1_555 1_555
C64_6 C61_6 1_555 1_555
C65_6 C64_6 1_555 1_555
C66_6 C65_6 1_555 1_555
H32_6 C66_6 1_555 1_555
C67_6 C66_6 1_555 1_555
H33_6 C67_6 1_555 1_555
C68_6 C67_6 1_555 1_555
C69_6 C64_6 1_555 1_555
H34_6 C69_6 1_555 1_555
C70_6 C68_6 1_555 1_555
C71_6 C73_6 1_555 1_555
C72_6 H35_6 1_555 1_555
C73_6 C72_6 1_555 1_555
C74_6 C73_6 1_555 1_555
H36_6 C74_6 1_555 1_555
C75_6 C74_6 1_555 1_555
C76_6 C75_6 1_555 1_555
C77_6 C72_6 1_555 1_555
H37_6 C77_6 1_555 1_555
C78_6 H38_6 1_555 1_555
C79_6 C75_6 1_555 1_555
C80_6 C79_6 1_555 1_555
C81_6 C80_6 1_555 1_555
H39_6 C81_6 1_555 1_555
C82_6 C81_6 1_555 1_555
C83_6 C78_6 1_555 1_555
C84_6 C83_6 1_555 1_555
C85_6 C87_6 1_555 1_555
C86_6 H41_6 1_555 1_555
C87_6 C86_6 1_555 1_555
C88_6 C87_6 1_555 1_555
H42_6 C88_6 1_555 1_555
C89_6 C88_6 1_555 1_555
C90_6 C89_6 1_555 1_555
C91_6 C86_6 1_555 1_555
H43_6 C91_6 1_555 1_555
C92_6 H44_6 1_555 1_555
C93_6 C89_6 1_555 1_555
C94_6 C93_6 1_555 1_555
C95_6 C94_6 1_555 1_555
H45_6 C95_6 1_555 1_555
C96_6 C95_6 1_555 1_555
H46_6 C96_6 1_555 1_555
C97_6 C92_6 1_555 1_555
C98_6 C97_6 1_555 1_555
C99_6 C101_6 1_555 1_555
C100_6 H47_6 1_555 1_555
C101_6 C100_6 1_555 1_555
C102_6 C101_6 1_555 1_555
H48_6 C102_6 1_555 1_555
C103_6 C102_6 1_555 1_555
H49_6 C103_6 1_555 1_555
C104_6 C103_6 1_555 1_555
C105_6 C100_6 1_555 1_555
C106_6 C107_6 1_555 1_555
C107_6 H50_6 1_555 1_555
C108_6 C105_6 1_555 1_555
C109_6 C108_6 1_555 1_555
C110_6 C109_6 1_555 1_555
H51_6 C110_6 1_555 1_555
C111_6 C106_6 1_555 1_555
H52_6 C111_6 1_555 1_555
C112_6 C106_6 1_555 1_555
O21_6 Zn18_4 1_555 1_555
O22_6 C57_6 1_555 1_555
O23_6 C57_6 1_555 1_555
O24_6 C71_6 1_555 1_555
O25_6 C71_6 1_555 1_555
O60_2 C70_6 1_555 1_555
O63_2 C70_6 1_555 1_555
O28_6 C99_6 1_555 1_555
O29_6 C99_6 1_555 1_555
O30_6 C85_6 1_555 1_555
O31_6 C85_6 1_555 1_555
O66_2 C84_6 1_555 1_555
O34_6 Zn6_10 1_555 1_555
O35_6 C98_6 1_555 1_555
O36_6 C112_6 1_555 1_555
O37_6 C112_6 1_555 1_555
O38_6 Zn24_4 1_555 1_555
O39_6 Zn24_4 1_555 1_555
Zn18_4 O25_6 1_555 1_555
Zn21_4 O21_6 1_555 1_555
Zn9_6 O21_6 1_555 1_555
Zn24_4 O21_6 1_555 1_555
Zn11_6 O14_10 1_555 1_555
N5_6 C60_6 1_555 1_555
H53_6 N5_6 1_555 1_555
N6_6 C76_6 1_555 1_555
H54_6 N6_6 1_555 1_555
N7_6 C90_6 1_555 1_555
H55_6 N7_6 1_555 1_555
N8_6 C104_6 1_555 1_555
H56_6 N8_6 1_555 1_555
C113_6 C119_6 1_555 1_555
C114_6 H57_6 1_555 1_555
C115_6 C114_6 1_555 1_555
H58_6 C115_6 1_555 1_555
C116_6 C115_6 1_555 1_555
C117_6 C116_6 1_555 1_555
C118_6 C117_6 1_555 1_555
H59_6 C118_6 1_555 1_555
C119_6 C114_6 1_555 1_555
C120_6 C117_6 1_555 1_555
C121_6 C120_6 1_555 1_555
C122_6 C121_6 1_555 1_555
H60_6 C122_6 1_555 1_555
C123_6 C122_6 1_555 1_555
H61_6 C123_6 1_555 1_555
C124_6 C123_6 1_555 1_555
C125_6 C120_6 1_555 1_555
H62_6 C125_6 1_555 1_555
C127_6 C129_6 1_555 1_555
C128_6 H63_6 1_555 1_555
C129_6 C128_6 1_555 1_555
C130_6 C129_6 1_555 1_555
H64_6 C130_6 1_555 1_555
C131_6 C130_6 1_555 1_555
C132_6 C131_6 1_555 1_555
C133_6 C128_6 1_555 1_555
H65_6 C133_6 1_555 1_555
C134_6 H66_6 1_555 1_555
C135_6 C131_6 1_555 1_555
C136_6 C135_6 1_555 1_555
C137_6 C136_6 1_555 1_555
H67_6 C137_6 1_555 1_555
C138_6 C137_6 1_555 1_555
C139_6 C134_6 1_555 1_555
C141_6 C143_6 1_555 1_555
C142_6 H69_6 1_555 1_555
C143_6 C142_6 1_555 1_555
C144_6 C143_6 1_555 1_555
H70_6 C144_6 1_555 1_555
C145_6 C144_6 1_555 1_555
C146_6 C145_6 1_555 1_555
C147_6 C142_6 1_555 1_555
H71_6 C147_6 1_555 1_555
C148_6 H72_6 1_555 1_555
C149_6 C145_6 1_555 1_555
C150_6 C149_6 1_555 1_555
C151_6 C150_6 1_555 1_555
H73_6 C151_6 1_555 1_555
C152_6 C151_6 1_555 1_555
H74_6 C152_6 1_555 1_555
C153_6 C148_6 1_555 1_555
C154_6 C153_6 1_555 1_555
C155_6 C157_6 1_555 1_555
C156_6 H75_6 1_555 1_555
C157_6 C156_6 1_555 1_555
C158_6 C157_6 1_555 1_555
H76_6 C158_6 1_555 1_555
C159_6 C158_6 1_555 1_555
H77_6 C159_6 1_555 1_555
C160_6 C159_6 1_555 1_555
C161_6 C156_6 1_555 1_555
C162_6 C163_6 1_555 1_555
C163_6 H78_6 1_555 1_555
C164_6 C161_6 1_555 1_555
C165_6 C164_6 1_555 1_555
C166_6 C165_6 1_555 1_555
H79_6 C166_6 1_555 1_555
C167_6 C162_6 1_555 1_555
H80_6 C167_6 1_555 1_555
C168_6 C162_6 1_555 1_555
O40_6 Zn19_4 1_555 1_555
O41_6 C113_6 1_555 1_555
O42_6 C113_6 1_555 1_555
O43_6 C127_6 1_555 1_555
O44_6 C127_6 1_555 1_555
O47_6 C155_6 1_555 1_555
O48_6 C155_6 1_555 1_555
O49_6 C141_6 1_555 1_555
O50_6 C141_6 1_555 1_555
O53_6 Zn6_10 1_555 1_555
O54_6 C154_6 1_555 1_555
O55_6 Zn5_6 1_555 1_555
O56_6 C168_6 1_555 1_555
O57_6 Zn25_4 1_555 1_555
O58_6 Zn25_4 1_555 1_555
Zn19_4 O44_6 1_555 1_555
Zn22_4 O40_6 1_555 1_555
Zn14_6 O40_6 1_555 1_555
Zn25_4 O40_6 1_555 1_555
Zn16_6 O14_10 1_555 1_555
N9_6 C116_6 1_555 1_555
H81_6 N9_6 1_555 1_555
N10_6 C132_6 1_555 1_555
H82_6 N10_6 1_555 1_555
N11_6 C146_6 1_555 1_555
H83_6 N11_6 1_555 1_555
N12_6 C160_6 1_555 1_555
H84_6 N12_6 1_555 1_555
C6_6 C7_6 1_555 1_555
C9_6 N1_6 1_555 1_555
C12_6 C13_6 1_555 1_555
C20_6 C21_6 1_555 1_555
C22_6 C23_6 1_555 1_555
C24_6 N2_6 1_555 1_555
C26_6 C27_6 1_555 1_555
C34_6 C35_6 1_555 1_555
C36_6 C37_6 1_555 1_555
C38_6 N3_6 1_555 1_555
C40_6 C41_6 1_555 1_555
C48_6 C49_6 1_555 1_555
C51_6 C52_6 1_555 1_555
C53_6 N4_6 1_555 1_555
C54_6 C55_6 1_555 1_555
O2_6 Zn3_6 1_555 1_555
O3_6 Zn20_4 1_555 1_555
O4_6 Zn20_4 1_555 1_555
O8_6 Zn17_4 1_555 1_555
O9_6 Zn3_6 1_555 1_555
O10_6 Zn23_4 1_555 1_555
O11_6 Zn3_6 1_555 1_555
O15_6 Zn6_10 1_555 1_555
O17_6 Zn11_6 1_555 1_555
O18_6 Zn5_6 1_555 1_555
C62_6 C63_6 1_555 1_555
C65_6 N5_6 1_555 1_555
C68_6 C69_6 1_555 1_555
C76_6 C77_6 1_555 1_555
C78_6 C79_6 1_555 1_555
C80_6 N6_6 1_555 1_555
C82_6 C83_6 1_555 1_555
C90_6 C91_6 1_555 1_555
C92_6 C93_6 1_555 1_555
C94_6 N7_6 1_555 1_555
C96_6 C97_6 1_555 1_555
C98_6 O34_6 1_555 1_555
C104_6 C105_6 1_555 1_555
C107_6 C108_6 1_555 1_555
C109_6 N8_6 1_555 1_555
C110_6 C111_6 1_555 1_555
O22_6 Zn9_6 1_555 1_555
O23_6 Zn21_4 1_555 1_555
O24_6 Zn21_4 1_555 1_555
O28_6 Zn18_4 1_555 1_555
O29_6 Zn9_6 1_555 1_555
O30_6 Zn24_4 1_555 1_555
O31_6 Zn9_6 1_555 1_555
O35_6 Zn11_6 1_555 1_555
O36_6 Zn16_6 1_555 1_555
O37_6 Zn11_6 1_555 1_555
C118_6 C119_6 1_555 1_555
C121_6 N9_6 1_555 1_555
C124_6 C125_6 1_555 1_555
C132_6 C133_6 1_555 1_555
C134_6 C135_6 1_555 1_555
C136_6 N10_6 1_555 1_555
C138_6 C139_6 1_555 1_555
C146_6 C147_6 1_555 1_555
C148_6 C149_6 1_555 1_555
C150_6 N11_6 1_555 1_555
C152_6 C153_6 1_555 1_555
C154_6 O53_6 1_555 1_555
C160_6 C161_6 1_555 1_555
C163_6 C164_6 1_555 1_555
C165_6 N12_6 1_555 1_555
C166_6 C167_6 1_555 1_555
C168_6 O55_6 1_555 1_555
O41_6 Zn14_6 1_555 1_555
O42_6 Zn22_4 1_555 1_555
O43_6 Zn22_4 1_555 1_555
O47_6 Zn19_4 1_555 1_555
O48_6 Zn14_6 1_555 1_555
O49_6 Zn25_4 1_555 1_555
O50_6 Zn14_6 1_555 1_555
O54_6 Zn16_6 1_555 1_555
O56_6 Zn16_6 1_555 1_555
O58_6 H85_6 1_555 1_555
O58_6 H86_6 1_555 1_555
O57_6 H87_6 1_555 1_555
O57_6 H88_6 1_555 1_555
O19_6 H89_6 1_555 1_555
O19_6 H90_6 1_555 1_555
O20_6 H91_6 1_555 1_555
O20_6 H92_6 1_555 1_555
O38_6 H93_6 1_555 1_555
O38_6 H94_6 1_555 1_555
O39_6 H95_6 1_555 1_555
O39_6 H96_6 1_555 1_555
O59_2 C14_6 1_555 1_555
O62_2 C14_6 1_555 1_555
O65_2 C28_6 1_555 1_555

#END
