
###############################################################################
#
# This file contains modified crystal structure data generated from the
# MOF subset of the Cambridge Structural Database (CSD) v543 
# hosted by the Cambridge Crystallographic Data Centre (CCDC).
#
# This work is licensed under the Creative Commons
# Attribution-NonCommercial-ShareAlike 4.0 International License.
# To view a copy of this license, visit
# http://creativecommons.org/licenses/by-nc-sa/4.0/
# or send a letter to
# Creative Commons, PO Box 1866, Mountain View, CA 94042, USA.
#
# CIF created using the CSD Python API on 29 September 2022
# The structure has been converted into the P1 space group
# The structure has a 3D framework
# The original CSD entry GUGNON is in the monoclinic crystal system
# The framework has been calculated to contain at least 10.0% void space
# The void calculation uses a probe of radius 1.32A, grid spacing 0.4
#
###############################################################################

data_GUGNON
_chemical_formula_moiety         '(C132 H128 N8 O28 Zn4)n'
_symmetry_cell_setting           triclinic
_symmetry_space_group_name_H-M   'P 1'
_symmetry_Int_Tables_number      1
_space_group_name_Hall           'P 1'
loop_
_symmetry_equiv_pos_site_id
_symmetry_equiv_pos_as_xyz
1 x,y,z
_cell_length_a                   14.3200(13)
_cell_length_b                   8.7789(8)
_cell_length_c                   27.653(3)
_cell_angle_alpha                90
_cell_angle_beta                 90.3054(13)
_cell_angle_gamma                90
_cell_volume                     3476.32
loop_
_atom_site_label
_atom_site_type_symbol
_atom_site_fract_x
_atom_site_fract_y
_atom_site_fract_z
C28 C 0.34863(10) 0.08500(17) 0.18744(5)
C29 C 0.33213(13) 0.1291(2) 0.13581(6)
H16 H 0.3512 0.0453 0.1146
H17 H 0.3688 0.2202 0.1282
H18 H 0.2656 0.1506 0.1308
N1 N 0.32544(9) 0.18334(15) 0.22215(5)
C30 C 0.28283(14) 0.3319(2) 0.21333(7)
H19 H 0.2618 0.3379 0.1796
H20 H 0.3288 0.4123 0.2196
H21 H 0.2293 0.3453 0.2348
C31 C 0.34237(12) 0.15007(18) 0.27317(6)
H22 H 0.3737 0.0512 0.2762
H23 H 0.2827 0.1470 0.2903
H24 H 0.3821 0.2297 0.2872
C1 C 0.46896(9) 0.35448(15) 0.43669(5)
C2 C 0.38633(9) 0.38500(15) 0.46145(5)
H1 H 0.3365 0.4340 0.4448
C3 C 0.37501(9) 0.34551(15) 0.50985(5)
C4 C 0.44734(10) 0.26924(16) 0.53370(5)
H2 H 0.4401 0.2406 0.5666
C5 C 0.53048(9) 0.23445(15) 0.50967(5)
C6 C 0.54070(9) 0.27843(15) 0.46139(5)
H3 H 0.5973 0.2563 0.4451
C7 C 0.49671(10) 0.55610(16) 0.23706(5)
C8 C 0.49301(9) 0.50706(16) 0.28947(5)
C9 C 0.43724(10) 0.58516(16) 0.32238(5)
H4 H 0.4033 0.6725 0.3122
C10 C 0.43111(10) 0.53593(16) 0.36990(5)
H5 H 0.3937 0.5914 0.3921
C11 C 0.47900(9) 0.40584(16) 0.38593(5)
C12 C 0.53680(10) 0.33096(16) 0.35295(5)
H6 H 0.5716 0.2444 0.3631
C13 C 0.54380(10) 0.38189(16) 0.30550(5)
H7 H 0.5839 0.3303 0.2837
C14 C 0.04429(10) 0.60724(16) 0.59725(5)
C15 C 0.13065(9) 0.53707(16) 0.57589(5)
C16 C 0.12532(10) 0.46806(17) 0.53046(5)
H8 H 0.0675 0.4672 0.5134
C17 C 0.20331(10) 0.40068(16) 0.50987(5)
H9 H 0.1985 0.3554 0.4788
C18 C 0.28902(9) 0.39879(15) 0.53457(5)
C19 C 0.29330(9) 0.46322(16) 0.58076(5)
H10 H 0.3501 0.4588 0.5986
C20 C 0.21559(10) 0.53391(16) 0.60101(5)
H11 H 0.2204 0.5801 0.6320
C22 C 0.75793(9) 0.00492(15) 0.58122(5)
C24 C 0.59211(9) 0.04085(16) 0.56877(5)
H13 H 0.5297 0.0138 0.5764
C25 C 0.60877(9) 0.15576(15) 0.53496(5)
C26 C 0.70173(10) 0.19588(16) 0.52514(5)
H14 H 0.7145 0.2747 0.5026
C27 C 0.77498(10) 0.12146(16) 0.54811(5)
H15 H 0.8375 0.1502 0.5412
O1 O 0.38450(7) 0.95953(12) 0.19828(4)
O2 O 0.44770(8) 0.67428(13) 0.22725(4)
O3 O 0.54327(9) 0.48226(14) 0.20809(4)
O5 O 0.05439(7) 0.67992(12) 0.63764(4)
Zn1 Zn 0.43119(2) 0.77056(2) 0.16406(2)
O8 O 0.55439(7) 0.82008(12) 0.13764(4)
O9 O 0.31924(7) 0.68605(13) 0.13337(4)
C5_2 C 0.03048(9) 0.26555(15) 0.00967(5)
C21 C 0.33885(10) 0.57291(16) 0.10603(5)
C22_2 C 0.25793(9) 0.49508(15) 0.08122(5)
C23 C 0.16585(10) 0.53464(16) 0.09152(5)
H12 H 0.1533 0.6134 0.1141
C24_2 C 0.09211(9) 0.45915(16) 0.06877(5)
H13_2 H 0.0297 0.4862 0.0764
C25_2 C 0.10877(9) 0.34424(15) 0.03496(5)
C26_2 C 0.20173(10) 0.30412(16) 0.02514(5)
H14_2 H 0.2145 0.2253 0.0026
C27_2 C 0.27498(10) 0.37854(16) 0.04811(5)
H15_2 H 0.3375 0.3498 0.0412
O7 O 0.41883(7) 0.52321(14) 0.09958(4)
C14_2 C 0.54429(10) 0.89276(16) 0.09725(5)
C15_2 C 0.63065(9) 0.96293(16) 0.07589(5)
C20_2 C 0.71559(10) 0.96609(16) 0.10101(5)
H11_2 H 0.7204 0.9199 0.1320
O4 O 0.46847(8) 0.90778(15) 0.07642(4)
C21_2 C 0.83885(10) 0.92709(16) 0.60603(5)
C23_2 C 0.66585(10) 0.96536(16) 0.59152(5)
H12_2 H 0.6533 0.8866 0.6141
O6 O 0.81924(7) 0.81395(13) 0.63337(4)
O7_2 O 0.91883(7) 0.97679(14) 0.59958(4)
Zn3 Zn 0.93119(2) 0.72944(2) 0.66406(2)
O4_2 O 0.96847(8) 0.59222(15) 0.57642(4)
C7_2 C 0.99671(10) 0.94390(16) 0.73706(5)
C8_2 C 0.99301(9) 0.99294(16) 0.78947(5)
C9_2 C 0.93724(10) 0.91484(16) 0.82238(5)
H4_2 H 0.9033 0.8275 0.8122
C10_2 C 0.93111(10) 0.96407(16) 0.86990(5)
H5_2 H 0.8937 0.9086 0.8921
O1_2 O 0.88450(7) 0.54047(12) 0.69828(4)
C28_2 C 0.84863(10) 0.41500(17) 0.68744(5)
C29_2 C 0.83213(13) 0.3709(2) 0.63581(6)
H16_2 H 0.8512 0.4547 0.6146
H17_2 H 0.8688 0.2798 0.6282
H18_2 H 0.7656 0.3494 0.6308
N1_2 N 0.82544(9) 0.31666(15) 0.72215(5)
C30_2 C 0.78283(14) 0.1681(2) 0.71333(7)
H19_2 H 0.7618 0.1621 0.6796
H20_2 H 0.8288 0.0877 0.7196
H21_2 H 0.7293 0.1547 0.7348
C31_2 C 0.84237(12) 0.34993(18) 0.77317(6)
H22_2 H 0.8737 0.4488 0.7762
H23_2 H 0.7827 0.3530 0.7903
H24_2 H 0.8821 0.2703 0.7872
O2_2 O 0.94770(8) 0.82572(13) 0.72725(4)
C7_3 C 0.00329(10) 0.05610(16) 0.26294(5)
C8_3 C 0.00699(9) 0.00706(16) 0.21053(5)
C9_3 C 0.06276(10) 0.08516(16) 0.17762(5)
H4_3 H 0.0967 0.1725 0.1878
C10_3 C 0.06889(10) 0.03593(16) 0.13010(5)
H5_3 H 0.1063 0.0914 0.1079
O1_3 O 0.11550(7) 0.45953(12) 0.30172(4)
C28_3 C 0.15137(10) 0.58500(17) 0.31256(5)
C29_3 C 0.16787(13) 0.6291(2) 0.36419(6)
H16_3 H 0.1488 0.5453 0.3854
H17_3 H 0.1312 0.7202 0.3718
H18_3 H 0.2344 0.6506 0.3692
N1_3 N 0.17456(9) 0.68334(15) 0.27785(5)
C30_3 C 0.21717(14) 0.8319(2) 0.28667(7)
H19_3 H 0.2382 0.8379 0.3204
H20_3 H 0.1712 0.9123 0.2804
H21_3 H 0.2707 0.8453 0.2652
C31_3 C 0.15763(12) 0.65007(18) 0.22683(6)
H22_3 H 0.1263 0.5512 0.2238
H23_3 H 0.2173 0.6470 0.2097
H24_3 H 0.1179 0.7297 0.2128
O2_3 O 0.05230(8) 0.17428(13) 0.27275(4)
Zn1_2 Zn 0.06881(2) 0.27056(2) 0.33594(2)
O9_2 O 0.18076(7) 0.18605(13) 0.36663(4)
O4_3 O 0.03153(8) 0.40778(15) 0.42358(4)
C21_3 C 0.16115(10) 0.07291(16) 0.39397(5)
C23_3 C 0.33415(10) 0.03464(16) 0.40848(5)
H12_3 H 0.3467 0.1134 0.3859
O7_3 O 0.08117(7) 0.02321(14) 0.40042(4)
C14_3 C 0.45571(10) 0.10724(16) 0.90275(5)
C15_3 C 0.36935(9) 0.03707(16) 0.92411(5)
C20_3 C 0.28441(10) 0.03391(16) 0.89899(5)
H11_3 H 0.2796 0.0801 0.8680
O4_4 O 0.53153(8) 0.09222(15) 0.92358(4)
O5_2 O 0.44561(7) 0.17992(12) 0.86236(4)
Zn2 Zn 0.56881(2) 0.22944(2) 0.83594(2)
O8_2 O 0.94561(7) 0.32008(12) 0.36236(4)
C5_3 C 0.96952(9) 0.73445(15) 0.99033(5)
C21_4 C 0.66115(10) 0.42709(16) 0.89397(5)
C22_3 C 0.74207(9) 0.50492(15) 0.91878(5)
C23_4 C 0.83415(10) 0.46536(16) 0.90848(5)
H12_4 H 0.8467 0.3866 0.8859
C24_3 C 0.90789(9) 0.54085(16) 0.93123(5)
H13_3 H 0.9703 0.5138 0.9236
C25_3 C 0.89123(9) 0.65576(15) 0.96504(5)
C26_3 C 0.79827(10) 0.69588(16) 0.97486(5)
H14_3 H 0.7855 0.7747 0.9974
C27_3 C 0.72502(10) 0.62146(16) 0.95189(5)
H15_3 H 0.6625 0.6502 0.9588
O6_2 O 0.68076(7) 0.31395(13) 0.86663(4)
O7_4 O 0.58117(7) 0.47679(14) 0.90042(4)
C1_2 C 0.53104(9) 0.64552(15) 0.56331(5)
C2_2 C 0.61367(9) 0.61500(15) 0.53855(5)
H1_2 H 0.6635 0.5660 0.5552
C3_2 C 0.62499(9) 0.65449(15) 0.49015(5)
C4_2 C 0.55266(10) 0.73076(16) 0.46630(5)
H2_2 H 0.5599 0.7594 0.4334
C5_4 C 0.46952(9) 0.76555(15) 0.49033(5)
C6_2 C 0.45930(9) 0.72157(15) 0.53861(5)
H3_2 H 0.4027 0.7437 0.5549
C7_4 C 0.50329(10) 0.44390(16) 0.76294(5)
C8_4 C 0.50699(9) 0.49294(16) 0.71053(5)
C9_4 C 0.56276(10) 0.41484(16) 0.67762(5)
H4_4 H 0.5967 0.3275 0.6878
C10_4 C 0.56889(10) 0.46407(16) 0.63010(5)
H5_4 H 0.6063 0.4086 0.6079
C11_2 C 0.52100(9) 0.59416(16) 0.61407(5)
C12_2 C 0.46320(10) 0.66904(16) 0.64705(5)
H6_2 H 0.4284 0.7556 0.6369
C13_2 C 0.45620(10) 0.61811(16) 0.69450(5)
H7_2 H 0.4161 0.6697 0.7163
C14_4 C 0.95571(10) 0.39276(16) 0.40275(5)
C15_4 C 0.86935(9) 0.46293(16) 0.42411(5)
C16_2 C 0.87468(10) 0.53194(17) 0.46954(5)
H8_2 H 0.9325 0.5328 0.4866
C17_2 C 0.79669(10) 0.59932(16) 0.49013(5)
H9_2 H 0.8015 0.6446 0.5212
C18_2 C 0.71098(9) 0.60121(15) 0.46543(5)
C19_2 C 0.70670(9) 0.53678(16) 0.41924(5)
H10_2 H 0.6499 0.5412 0.4014
C20_4 C 0.78441(10) 0.46609(16) 0.39899(5)
H11_4 H 0.7796 0.4199 0.3680
C22_4 C 0.24207(9) 0.99508(15) 0.41878(5)
C24_4 C 0.40789(9) 0.95915(16) 0.43123(5)
H13_4 H 0.4703 0.9862 0.4236
C25_4 C 0.39123(9) 0.84424(15) 0.46504(5)
C26_4 C 0.29827(10) 0.80412(16) 0.47486(5)
H14_4 H 0.2855 0.7253 0.4974
C27_4 C 0.22502(10) 0.87854(16) 0.45189(5)
H15_4 H 0.1625 0.8498 0.4588
O1_4 O 0.61550(7) 0.04047(12) 0.80172(4)
O2_4 O 0.55230(8) 0.32572(13) 0.77275(4)
O3_2 O 0.45673(9) 0.51774(14) 0.79191(4)
C1_3 C 0.03104(9) 0.85448(15) 0.06331(5)
C2_3 C 0.11367(9) 0.88500(15) 0.03855(5)
H1_3 H 0.1635 0.9340 0.0552
C11_3 C 0.02100(9) 0.90584(16) 0.11407(5)
H9_3 H 0.3015 0.8554 0.0212
C3_3 C 0.12499(9) 0.84551(15) 0.99015(5)
C4_3 C 0.05266(10) 0.76924(16) 0.96630(5)
H2_3 H 0.0599 0.7406 0.9334
C16_3 C 0.37468(10) 0.96806(17) 0.96954(5)
H8_3 H 0.4325 0.9672 0.9866
C17_3 C 0.29669(10) 0.90068(16) 0.99013(5)
C18_3 C 0.21098(9) 0.89879(15) 0.96543(5)
C19_3 C 0.20670(9) 0.96322(16) 0.91924(5)
H10_3 H 0.1499 0.9588 0.9014
C6_3 C 0.95930(9) 0.77843(15) 0.03861(5)
H3_3 H 0.9027 0.7563 0.0549
C12_3 C 0.96320(10) 0.83096(16) 0.14705(5)
H6_3 H 0.9284 0.7444 0.1369
C13_3 C 0.95620(10) 0.88189(16) 0.19450(5)
H7_3 H 0.9161 0.8303 0.2163
O3_3 O 0.95673(9) 0.98226(14) 0.29191(4)
C28_4 C 0.65137(10) 0.91500(17) 0.81256(5)
C29_4 C 0.66787(13) 0.8709(2) 0.86419(6)
H16_4 H 0.6488 0.9547 0.8854
H17_4 H 0.6312 0.7798 0.8718
H18_4 H 0.7344 0.8494 0.8692
N1_4 N 0.67456(9) 0.81666(15) 0.77785(5)
C30_4 C 0.71717(14) 0.6681(2) 0.78667(7)
H19_4 H 0.7382 0.6621 0.8204
H20_4 H 0.6712 0.5877 0.7804
H21_4 H 0.7707 0.6547 0.7652
C31_4 C 0.65763(12) 0.84993(18) 0.72683(6)
H22_4 H 0.6263 0.9488 0.7238
H23_4 H 0.7173 0.8530 0.7097
H24_4 H 0.6179 0.7703 0.7128
C6_4 C 0.04070(9) 0.22157(15) 0.96139(5)
H3_4 H 0.0973 0.2437 0.9451
C12_4 C 0.03680(10) 0.16904(16) 0.85295(5)
H6_4 H 0.0716 0.2556 0.8631
C13_4 C 0.04380(10) 0.11811(16) 0.80550(5)
H7_4 H 0.0839 0.1697 0.7837
O3_4 O 0.04327(9) 0.01774(14) 0.70809(4)
C3_4 C 0.87501(9) 0.15449(15) 0.00985(5)
C4_4 C 0.94734(10) 0.23076(16) 0.03370(5)
H2_4 H 0.9401 0.2594 0.0666
C16_4 C 0.62532(10) 0.03194(17) 0.03046(5)
H8_4 H 0.5675 0.0328 0.0134
C17_4 C 0.70331(10) 0.09932(16) 0.00987(5)
C18_4 C 0.78902(9) 0.10121(15) 0.03457(5)
C19_4 C 0.79330(9) 0.03678(16) 0.08076(5)
H10_4 H 0.8501 0.0412 0.0986
C1_4 C 0.96896(9) 0.14552(15) 0.93669(5)
C2_4 C 0.88633(9) 0.11500(15) 0.96145(5)
H1_4 H 0.8365 0.0660 0.9448
C11_4 C 0.97900(9) 0.09416(16) 0.88593(5)
H9_4 H 0.6985 0.1446 0.9788
C32 C 0.60232(14) 0.3212(2) 0.11548(6)
H25 H 0.5582 0.2792 0.0918
H26 H 0.5811 0.2967 0.1482
H27 H 0.6643 0.2769 0.1103
C33 C 0.63807(16) 0.5330(2) 0.06102(6)
H28 H 0.5932 0.4953 0.0370
H29 H 0.6997 0.4891 0.0546
H30 H 0.6417 0.6443 0.0590
N2 N 0.60738(8) 0.48831(14) 0.10971(4)
H31 H 0.5451 0.5328 0.1160
H32 H 0.6515 0.5303 0.1340
C33_2 C 0.86193(16) 0.0330(2) 0.43898(6)
H30_2 H 0.8583 0.1443 0.4410
H31_2 H 0.9549 0.0328 0.3840
H32_2 H 0.8485 0.0303 0.3660
C32_2 C 0.89768(14) 0.8212(2) 0.38452(6)
H25_2 H 0.9418 0.7792 0.4082
H26_2 H 0.9189 0.7967 0.3518
H27_2 H 0.8357 0.7769 0.3897
H28_2 H 0.9068 0.9953 0.4630
H29_2 H 0.8003 0.9891 0.4454
N2_2 N 0.89262(8) 0.98831(14) 0.39029(4)
C32_3 C 0.39768(14) 0.6788(2) 0.88452(6)
H25_3 H 0.4418 0.7208 0.9082
H26_3 H 0.4189 0.7033 0.8518
H27_3 H 0.3357 0.7231 0.8897
C33_3 C 0.36193(16) 0.4670(2) 0.93898(6)
H28_3 H 0.4068 0.5047 0.9630
H29_3 H 0.3003 0.5109 0.9454
H30_3 H 0.3583 0.3557 0.9410
N2_3 N 0.39262(8) 0.51169(14) 0.89029(4)
H31_3 H 0.4549 0.4672 0.8840
H32_3 H 0.3485 0.4697 0.8660
C32_4 C 0.10232(14) 0.1788(2) 0.61548(6)
H25_4 H 0.0582 0.2208 0.5918
H26_4 H 0.0811 0.2033 0.6482
H27_4 H 0.1643 0.2231 0.6103
H28_4 H 0.0932 0.0047 0.5370
H29_4 H 0.1997 0.0109 0.5546
N2_4 N 0.10738(8) 0.01169(14) 0.60971(4)
C33_4 C 0.13807(16) 0.9670(2) 0.56102(6)
H30_4 H 0.1417 0.8557 0.5590
H31_4 H 0.0451 0.9672 0.6160
H32_4 H 0.1515 0.9697 0.6340
loop_
_geom_bond_atom_site_label_1
_geom_bond_atom_site_label_2
_geom_bond_site_symmetry_1
_geom_bond_site_symmetry_2
C28 C29 1_555 1_555
C29 H16 1_555 1_555
H17 C29 1_555 1_555
H18 C29 1_555 1_555
N1 C28 1_555 1_555
C30 N1 1_555 1_555
H19 C30 1_555 1_555
H20 C30 1_555 1_555
H21 C30 1_555 1_555
C31 N1 1_555 1_555
H22 C31 1_555 1_555
H23 C31 1_555 1_555
H24 C31 1_555 1_555
C1 C2 1_555 1_555
C2 H1 1_555 1_555
C3 C2 1_555 1_555
C4 C3 1_555 1_555
H2 C4 1_555 1_555
C5 C4 1_555 1_555
C6 C1 1_555 1_555
H3 C6 1_555 1_555
C7 C8 1_555 1_555
C8 C9 1_555 1_555
C9 H4 1_555 1_555
C10 C9 1_555 1_555
H5 C10 1_555 1_555
C11 C1 1_555 1_555
C12 C11 1_555 1_555
H6 C12 1_555 1_555
C13 C8 1_555 1_555
H7 C13 1_555 1_555
C14 C15 1_555 1_555
C15 C16 1_555 1_555
C16 H8 1_555 1_555
C17 C16 1_555 1_555
H9 C17 1_555 1_555
C18 C3 1_555 1_555
C19 C18 1_555 1_555
H10 C19 1_555 1_555
C20 C15 1_555 1_555
H11 C20 1_555 1_555
H13 C24 1_555 1_555
C25 C5 1_555 1_555
C26 C25 1_555 1_555
H14 C26 1_555 1_555
C27 C22 1_555 1_555
H15 C27 1_555 1_555
O2 C7 1_555 1_555
O3 C7 1_555 1_555
O5 C14 1_555 1_555
Zn1 O1 1_555 1_555
O8 Zn1 1_555 1_555
O9 Zn1 1_555 1_555
C5 C6 1_555 1_555
C10 C11 1_555 1_555
C12 C13 1_555 1_555
C17 C18 1_555 1_555
C19 C20 1_555 1_555
C24 C25 1_555 1_555
C26 C27 1_555 1_555
O2 Zn1 1_555 1_555
C21 C22_2 1_555 1_555
C22_2 C23 1_555 1_555
C23 H12 1_555 1_555
C24_2 C23 1_555 1_555
H13_2 C24_2 1_555 1_555
C25_2 C5_2 1_555 1_555
C26_2 C25_2 1_555 1_555
H14_2 C26_2 1_555 1_555
C27_2 C22_2 1_555 1_555
H15_2 C27_2 1_555 1_555
O9 C21 1_555 1_555
O7 C21 1_555 1_555
C24_2 C25_2 1_555 1_555
C26_2 C27_2 1_555 1_555
C14_2 C15_2 1_555 1_555
C20_2 C15_2 1_555 1_555
H11_2 C20_2 1_555 1_555
O4 C14_2 1_555 1_555
O8 C14_2 1_555 1_555
C23_2 H12_2 1_555 1_555
O6 C21_2 1_555 1_555
O7_2 C21_2 1_555 1_555
Zn3 O6 1_555 1_555
C7_2 C8_2 1_555 1_555
C8_2 C9_2 1_555 1_555
C9_2 H4_2 1_555 1_555
C10_2 C9_2 1_555 1_555
H5_2 C10_2 1_555 1_555
O1_2 C28_2 1_555 1_555
C28_2 C29_2 1_555 1_555
C29_2 H16_2 1_555 1_555
H17_2 C29_2 1_555 1_555
H18_2 C29_2 1_555 1_555
N1_2 C28_2 1_555 1_555
C30_2 N1_2 1_555 1_555
H19_2 C30_2 1_555 1_555
H20_2 C30_2 1_555 1_555
H21_2 C30_2 1_555 1_555
C31_2 N1_2 1_555 1_555
H22_2 C31_2 1_555 1_555
H23_2 C31_2 1_555 1_555
H24_2 C31_2 1_555 1_555
O2_2 C7_2 1_555 1_555
Zn3 O1_2 1_555 1_555
O2_2 Zn3 1_555 1_555
C7_3 C8_3 1_555 1_555
C8_3 C9_3 1_555 1_555
C9_3 H4_3 1_555 1_555
C10_3 C9_3 1_555 1_555
H5_3 C10_3 1_555 1_555
O1_3 C28_3 1_555 1_555
C28_3 C29_3 1_555 1_555
C29_3 H16_3 1_555 1_555
H17_3 C29_3 1_555 1_555
H18_3 C29_3 1_555 1_555
N1_3 C28_3 1_555 1_555
C30_3 N1_3 1_555 1_555
H19_3 C30_3 1_555 1_555
H20_3 C30_3 1_555 1_555
H21_3 C30_3 1_555 1_555
C31_3 N1_3 1_555 1_555
H22_3 C31_3 1_555 1_555
H23_3 C31_3 1_555 1_555
H24_3 C31_3 1_555 1_555
O2_3 C7_3 1_555 1_555
Zn1_2 O1_3 1_555 1_555
O9_2 Zn1_2 1_555 1_555
O2_3 Zn1_2 1_555 1_555
C23_3 H12_3 1_555 1_555
O9_2 C21_3 1_555 1_555
O7_3 C21_3 1_555 1_555
C14_3 C15_3 1_555 1_555
C20_3 C15_3 1_555 1_555
H11_3 C20_3 1_555 1_555
O4_4 C14_3 1_555 1_555
O5_2 C14_3 1_555 1_555
Zn2 O5_2 1_555 1_555
C21_4 C22_3 1_555 1_555
C22_3 C23_4 1_555 1_555
C23_4 H12_4 1_555 1_555
C24_3 C23_4 1_555 1_555
H13_3 C24_3 1_555 1_555
C25_3 C5_3 1_555 1_555
C26_3 C25_3 1_555 1_555
H14_3 C26_3 1_555 1_555
C27_3 C22_3 1_555 1_555
H15_3 C27_3 1_555 1_555
O6_2 C21_4 1_555 1_555
O7_4 C21_4 1_555 1_555
Zn2 O6_2 1_555 1_555
C24_3 C25_3 1_555 1_555
C26_3 C27_3 1_555 1_555
C1_2 C2_2 1_555 1_555
C2_2 H1_2 1_555 1_555
C3_2 C2_2 1_555 1_555
C4_2 C3_2 1_555 1_555
H2_2 C4_2 1_555 1_555
C5_4 C4_2 1_555 1_555
C6_2 C1_2 1_555 1_555
H3_2 C6_2 1_555 1_555
C7_4 C8_4 1_555 1_555
C8_4 C9_4 1_555 1_555
C9_4 H4_4 1_555 1_555
C10_4 C9_4 1_555 1_555
H5_4 C10_4 1_555 1_555
C11_2 C1_2 1_555 1_555
C12_2 C11_2 1_555 1_555
H6_2 C12_2 1_555 1_555
C13_2 C8_4 1_555 1_555
H7_2 C13_2 1_555 1_555
C14_4 C15_4 1_555 1_555
C15_4 C16_2 1_555 1_555
C16_2 H8_2 1_555 1_555
C17_2 C16_2 1_555 1_555
H9_2 C17_2 1_555 1_555
C18_2 C3_2 1_555 1_555
C19_2 C18_2 1_555 1_555
H10_2 C19_2 1_555 1_555
C20_4 C15_4 1_555 1_555
H11_4 C20_4 1_555 1_555
H13_4 C24_4 1_555 1_555
C25_4 C5_4 1_555 1_555
C26_4 C25_4 1_555 1_555
H14_4 C26_4 1_555 1_555
C27_4 C22_4 1_555 1_555
H15_4 C27_4 1_555 1_555
O2_4 C7_4 1_555 1_555
O3_2 C7_4 1_555 1_555
O8_2 C14_4 1_555 1_555
Zn2 O1_4 1_555 1_555
C5_4 C6_2 1_555 1_555
C10_4 C11_2 1_555 1_555
C12_2 C13_2 1_555 1_555
C17_2 C18_2 1_555 1_555
C19_2 C20_4 1_555 1_555
C24_4 C25_4 1_555 1_555
C26_4 C27_4 1_555 1_555
O2_4 Zn2 1_555 1_555
C1_3 C2_3 1_555 1_555
C2_3 H1_3 1_555 1_555
C11_3 C1_3 1_555 1_555
C4_3 C3_3 1_555 1_555
H2_3 C4_3 1_555 1_555
C16_3 H8_3 1_555 1_555
C17_3 C16_3 1_555 1_555
C18_3 C3_3 1_555 1_555
C19_3 C18_3 1_555 1_555
H10_3 C19_3 1_555 1_555
C17_3 C18_3 1_555 1_555
H3_3 C6_3 1_555 1_555
H6_3 C12_3 1_555 1_555
H7_3 C13_3 1_555 1_555
C12_3 C13_3 1_555 1_555
C28_4 C29_4 1_555 1_555
C29_4 H16_4 1_555 1_555
H17_4 C29_4 1_555 1_555
H18_4 C29_4 1_555 1_555
N1_4 C28_4 1_555 1_555
C30_4 N1_4 1_555 1_555
H19_4 C30_4 1_555 1_555
H20_4 C30_4 1_555 1_555
H21_4 C30_4 1_555 1_555
C31_4 N1_4 1_555 1_555
H22_4 C31_4 1_555 1_555
H23_4 C31_4 1_555 1_555
H24_4 C31_4 1_555 1_555
H3_4 C6_4 1_555 1_555
H6_4 C12_4 1_555 1_555
H7_4 C13_4 1_555 1_555
C12_4 C13_4 1_555 1_555
C4_4 C3_4 1_555 1_555
H2_4 C4_4 1_555 1_555
C16_4 H8_4 1_555 1_555
C17_4 C16_4 1_555 1_555
C18_4 C3_4 1_555 1_555
C19_4 C18_4 1_555 1_555
H10_4 C19_4 1_555 1_555
C17_4 C18_4 1_555 1_555
C1_4 C2_4 1_555 1_555
C2_4 H1_4 1_555 1_555
C11_4 C1_4 1_555 1_555
C32 H25 1_555 1_555
H26 C32 1_555 1_555
H27 C32 1_555 1_555
C33 H28 1_555 1_555
H29 C33 1_555 1_555
H30 C33 1_555 1_555
N2 C32 1_555 1_555
H31 N2 1_555 1_555
H32 N2 1_555 1_555
C33 N2 1_555 1_555
H30_2 C33_2 1_555 1_555
C32_2 H25_2 1_555 1_555
H26_2 C32_2 1_555 1_555
H27_2 C32_2 1_555 1_555
N2_2 C32_2 1_555 1_555
C32_3 H25_3 1_555 1_555
H26_3 C32_3 1_555 1_555
H27_3 C32_3 1_555 1_555
C33_3 H28_3 1_555 1_555
H29_3 C33_3 1_555 1_555
H30_3 C33_3 1_555 1_555
N2_3 C32_3 1_555 1_555
H31_3 N2_3 1_555 1_555
H32_3 N2_3 1_555 1_555
C33_3 N2_3 1_555 1_555
C32_4 H25_4 1_555 1_555
H26_4 C32_4 1_555 1_555
H27_4 C32_4 1_555 1_555
N2_4 C32_4 1_555 1_555
H30_4 C33_4 1_555 1_555

#END
