
###############################################################################
#
# This file contains modified crystal structure data generated from the
# MOF subset of the Cambridge Structural Database (CSD) v543 
# hosted by the Cambridge Crystallographic Data Centre (CCDC).
#
# This work is licensed under the Creative Commons
# Attribution-NonCommercial-ShareAlike 4.0 International License.
# To view a copy of this license, visit
# http://creativecommons.org/licenses/by-nc-sa/4.0/
# or send a letter to
# Creative Commons, PO Box 1866, Mountain View, CA 94042, USA.
#
# CIF created using the CSD Python API on 29 September 2022
# The structure has been converted into the P1 space group
# The structure has a 3D framework
# The original CSD entry GUGRAE is in the orthorhombic crystal system
# The framework has been calculated to contain at least 10.0% void space
# The void calculation uses a probe of radius 1.32A, grid spacing 0.4
# H atom positions have been added when not included in the experimental data
#
###############################################################################

data_GUGRAE
_chemical_formula_moiety         '(C644 H576 Co60 N64 O344)n'
_symmetry_cell_setting           triclinic
_symmetry_space_group_name_H-M   'P 1'
_symmetry_Int_Tables_number      1
_space_group_name_Hall           'P 1'
loop_
_symmetry_equiv_pos_site_id
_symmetry_equiv_pos_as_xyz
1 x,y,z
_cell_length_a                   25.790(4)
_cell_length_b                   28.045(4)
_cell_length_c                   36.909(5)
_cell_angle_alpha                90
_cell_angle_beta                 90
_cell_angle_gamma                90
_cell_volume                     26695.6
loop_
_atom_site_label
_atom_site_type_symbol
_atom_site_fract_x
_atom_site_fract_y
_atom_site_fract_z
Co1 Co 0.26076(2) 0.01841(2) 0.15697(2)
Co4 Co 0.34096(2) 0.04503(2) 0.22372(2)
O8 O 0.20893(12) 0.00112(12) 0.11648(8)
O12 O 0.33572(15) 0.02008(13) 0.27748(8)
O19 O 0.40584(13) 0.00129(13) 0.21768(10)
O20 O 0.38291(16) 0.10235(14) 0.24543(10)
N1 N 0.3345(2) 0.0331(2) 0.33703(12)
H13 H 0.317839 0.045935 0.355386
C35 C 0.3155(2) 0.0379(2) 0.30476(13)
H17 H 0.284646 0.055955 0.301869
C37 C 0.3828(3) 0.0071(3) 0.3442(2)
H22 H 0.387644 0.003817 0.370411
H23 H 0.412070 0.024674 0.333839
Co9 Co 0.23381(2) 0.01426(2) 0.42558(2)
O24 O 0.27362(11) 0.08396(11) 0.22931(7)
O26 O 0.23011(11) 0.07848(10) 0.17722(7)
O27 O 0.31394(11) 0.04825(11) 0.12545(7)
O28 O 0.35838(12) 0.07399(12) 0.17328(7)
H33 H 0.414428 0.0901336 0.257785
H34 H 0.39322 0.124357 0.225623
Co2 Co 0.48381(2) 0.73574(2) 0.17558(2)
Co3 Co 0.40789(2) 0.75979(2) 0.10663(2)
O1 O 0.26742(11) 0.95732(10) 0.40324(7)
O3 O 0.30245(13) 0.94587(10) 0.15251(7)
C1 C 0.35352(15) 0.87075(14) 0.18909(9)
H1 H 0.354912 0.869869 0.163383
C2 C 0.08223(15) 0.87340(14) 0.08802(9)
H2 H 0.061706 0.849291 0.077010
O5 O 0.22654(12) 0.95696(11) 0.34994(7)
O6 O 0.18882(13) 0.97495(12) 0.17060(7)
C3 C 0.33089(15) 0.90857(13) 0.20634(9)
O9 O 0.39617(14) 0.79148(12) 0.15649(8)
O10 O 0.43606(11) 0.79825(11) 0.37545(7)
O11 O 0.39162(12) 0.82399(12) 0.42328(7)
C4 C 0.37202(16) 0.84671(14) 0.32807(9)
H3 H 0.397930 0.826442 0.318188
C5 C 0.11896(16) 0.90840(14) 0.14178(10)
H4 H 0.122448 0.909300 0.167396
C6 C 0.40040(14) 0.82196(13) 0.39007(9)
C7 C 0.18188(16) 0.97515(15) 0.13722(10)
C8 C 0.10511(15) 0.90830(14) 0.06667(9)
C9 C 0.14359(15) 0.94193(14) 0.12056(10)
O13 O 0.43267(12) 0.76807(11) 0.20771(8)
C11 C 0.30949(15) 0.94943(13) 0.18530(9)
C12 C 0.05762(15) 0.88287(14) 0.01051(9)
H5 H 0.029808 0.872071 0.025252
C13 C 0.30230(16) 0.90130(14) 0.32008(10)
H6 H 0.278791 0.917686 0.304664
O15 O 0.41115(14) 0.73360(12) 0.05321(8)
C15 C 0.33014(15) 0.88110(14) 0.38013(10)
H7 H 0.327262 0.884681 0.405647
O16 O 0.06216(15) 0.83847(11) 0.18114(8)
C16 C 0.40292(16) 0.79450(14) 0.18975(10)
C17 C 0.37444(15) 0.83371(13) 0.20923(9)
C20 C 0.26078(14) 0.94297(13) 0.37154(9)
C21 C 0.29800(15) 0.90676(13) 0.35719(9)
C22 C 0.13608(16) 0.94214(15) 0.08333(10)
H9 H 0.152484 0.965924 0.069029
C23 C 0.13822(15) 0.92377(15) 0.00405(10)
H10 H 0.167156 0.939822 0.014293
C25 C 0.33983(16) 0.87269(15) 0.30499(9)
C26 C 0.36640(15) 0.85029(14) 0.36560(9)
C27 C 0.37103(16) 0.83353(14) 0.24683(10)
H11 H 0.385276 0.807765 0.260253
C28 C 0.08912(15) 0.87342(14) 0.12549(9)
C29 C 0.09951(15) 0.90623(14) 0.02677(9)
C30 C 0.32766(16) 0.90940(13) 0.24409(10)
H12 H 0.312447 0.936085 0.255849
O17 O 0.04737(11) 0.79782(9) 0.13184(7)
O18 O 0.29595(10) 0.98779(9) 0.20213(7)
O21 O 0.34084(13) 0.72223(14) 0.11455(10)
O22 O 0.37069(19) 0.81978(17) 0.08389(13)
C31 C 0.34668(16) 0.87118(14) 0.26493(9)
C32 C 0.06535(15) 0.83501(14) 0.14789(10)
C33 C 0.4326(2) 0.7500(2) 0.02635(13)
H15 H 0.464922 0.765512 0.029938
C34 C 0.3105(2) 0.7101(3) 0.0917(2)
H16 H 0.316354 0.720528 0.067603
C36 C 0.4317(2) 0.9791(2) 0.23878(19)
H18 H 0.425590 0.985525 0.263687
N3 N 0.4664(2) 0.9478(2) 0.2319(2)
H19 H 0.482417 0.934034 0.250178
N4 N 0.2691(2) 0.6828(3) 0.0980(2)
H20 H 0.250336 0.672530 0.079648
H21 H 0.380851 0.975368 0.333126
H24 H 0.360089 0.700306 0.001665
C39 C 0.4803(4) 0.9340(4) 0.1958(4)
H27 H 0.457604 0.950135 0.178384
H28 H 0.476533 0.899374 0.193130
H29 H 0.516435 0.942990 0.191059
C40 C 0.2544(4) 0.6697(5) 0.1350(4)
H30 H 0.216582 0.667349 0.136679
H31 H 0.266872 0.694141 0.151867
H32 H 0.269982 0.638903 0.141205
Co6 Co 0.48924(2) 0.76841(2) 0.40697(2)
Co8 Co 0.01619(2) 0.76426(2) 0.17558(2)
Co10 Co 0.09211(2) 0.74021(2) 0.10663(2)
Co11 Co 0.15789(2) 0.99021(2) 0.35663(2)
Co13 Co 0.40904(2) 0.79503(2) 0.47372(2)
O23 O 0.51742(11) 0.79268(10) 0.15324(7)
O25 O 0.47654(12) 0.79304(11) 0.09994(7)
O29 O 0.53648(12) 0.71072(11) 0.20913(8)
O30 O 0.43784(15) 0.66153(11) 0.18114(8)
O31 O 0.45263(11) 0.70218(9) 0.13184(7)
H35 H 0.390394 0.849051 0.0901815
H36 H 0.369264 0.816275 0.0571367
O4 O 0.17732(15) 0.93241(16) 0.91009(9)
O7 O 0.01989(11) 0.82848(10) 0.92722(7)
C10 C 0.17758(17) 0.93842(16) 0.94277(11)
O14 O 0.21352(12) 0.96072(11) 0.95913(8)
C14 C 0.05562(14) 0.87508(13) 0.97351(10)
C18 C 0.01316(14) 0.84391(13) 0.95884(9)
C19 C 0.09456(15) 0.89313(14) 0.95144(9)
H8 H 0.093178 0.888209 0.925990
C24 C 0.13527(15) 0.91821(15) 0.96646(9)
N2 N 0.4153(2) 0.74795(19) 0.99375(12)
H14 H 0.434145 0.760237 0.976197
C38 C 0.3670(3) 0.7267(3) 0.9849(2)
H25 H 0.368211 0.714546 0.960063
H26 H 0.339407 0.750538 0.987025
Co7 Co 0.26619(2) 0.98574(2) 0.92558(2)
O2 O 0.97638(11) 0.83396(11) 0.97931(7)
Co5 Co 0.98924(2) 0.76841(2) 0.90697(2)
Co12 Co 0.90904(2) 0.79503(2) 0.97372(2)
O2_2 O 0.02362(11) 0.16604(11) 0.97931(7)
Co5_2 Co 0.01076(2) 0.23159(2) 0.90697(2)
Co12_2 Co 0.09096(2) 0.20497(2) 0.97372(2)
Co2_2 Co 0.51619(2) 0.26426(2) 0.17558(2)
Co3_2 Co 0.59211(2) 0.24021(2) 0.10663(2)
O1_2 O 0.73258(11) 0.04268(10) 0.40324(7)
O3_2 O 0.69755(13) 0.05413(10) 0.15251(7)
C1_2 C 0.64648(15) 0.12925(14) 0.18909(9)
H1_2 H 0.645088 0.130131 0.163383
C2_2 C 0.91777(15) 0.12660(14) 0.08802(9)
H2_2 H 0.938294 0.150709 0.077010
O5_2 O 0.77346(12) 0.04304(11) 0.34994(7)
O6_2 O 0.81118(13) 0.02505(12) 0.17060(7)
C3_2 C 0.66911(15) 0.09143(13) 0.20634(9)
O9_2 O 0.60383(14) 0.20852(12) 0.15649(8)
O10_2 O 0.56394(11) 0.20175(11) 0.37545(7)
O11_2 O 0.60838(12) 0.17601(12) 0.42328(7)
C4_2 C 0.62798(16) 0.15329(14) 0.32807(9)
H3_2 H 0.602070 0.173558 0.318188
C5_2 C 0.88104(16) 0.09160(14) 0.14178(10)
H4_2 H 0.877552 0.090700 0.167396
C6_2 C 0.59960(14) 0.17804(13) 0.39007(9)
C7_2 C 0.81812(16) 0.02485(15) 0.13722(10)
C8_2 C 0.89489(15) 0.09170(14) 0.06667(9)
C9_2 C 0.85641(15) 0.05807(14) 0.12056(10)
O13_2 O 0.56733(12) 0.23193(11) 0.20771(8)
C11_2 C 0.69051(15) 0.05057(13) 0.18530(9)
C12_2 C 0.94238(15) 0.11713(14) 0.01051(9)
H5_2 H 0.970192 0.127929 0.025252
C13_2 C 0.69770(16) 0.09870(14) 0.32008(10)
H6_2 H 0.721209 0.082314 0.304664
O15_2 O 0.58885(14) 0.26640(12) 0.05321(8)
C15_2 C 0.66986(15) 0.11890(14) 0.38013(10)
H7_2 H 0.672738 0.115319 0.405647
O16_2 O 0.93784(15) 0.16153(11) 0.18114(8)
C16_2 C 0.59708(16) 0.20550(14) 0.18975(10)
C17_2 C 0.62556(15) 0.16629(13) 0.20923(9)
C20_2 C 0.73922(14) 0.05703(13) 0.37154(9)
C21_2 C 0.70200(15) 0.09324(13) 0.35719(9)
C22_2 C 0.86392(16) 0.05786(15) 0.08333(10)
H9_2 H 0.847516 0.034076 0.069029
C23_2 C 0.86178(15) 0.07623(15) 0.00405(10)
H10_2 H 0.832844 0.060178 0.014293
C25_2 C 0.66017(16) 0.12731(15) 0.30499(9)
C26_2 C 0.63360(15) 0.14971(14) 0.36560(9)
C27_2 C 0.62897(16) 0.16647(14) 0.24683(10)
H11_2 H 0.614724 0.192235 0.260253
C28_2 C 0.91088(15) 0.12658(14) 0.12549(9)
C29_2 C 0.90049(15) 0.09377(14) 0.02677(9)
C30_2 C 0.67234(16) 0.09060(13) 0.24409(10)
H12_2 H 0.687553 0.063915 0.255849
O17_2 O 0.95263(11) 0.20218(9) 0.13184(7)
O18_2 O 0.70405(10) 0.01221(9) 0.20213(7)
O21_2 O 0.65916(13) 0.27777(14) 0.11455(10)
O22_2 O 0.62931(19) 0.18022(17) 0.08389(13)
C31_2 C 0.65332(16) 0.12882(14) 0.26493(9)
C32_2 C 0.93465(15) 0.16499(14) 0.14789(10)
C33_2 C 0.5674(2) 0.2500(2) 0.02635(13)
H15_2 H 0.535078 0.234488 0.029938
C34_2 C 0.6895(2) 0.2899(3) 0.0917(2)
H16_2 H 0.683646 0.279472 0.067603
C36_2 C 0.5683(2) 0.0209(2) 0.23878(19)
H18_2 H 0.574410 0.014475 0.263687
N3_2 N 0.5336(2) 0.0522(2) 0.2319(2)
H19_2 H 0.517583 0.065966 0.250178
N4_2 N 0.7309(2) 0.3172(3) 0.0980(2)
H20_2 H 0.749664 0.327470 0.079648
H21_2 H 0.619149 0.024632 0.333126
H24_2 H 0.639911 0.299694 0.001665
C39_2 C 0.5197(4) 0.0660(4) 0.1958(4)
H27_2 H 0.542396 0.049865 0.178384
H28_2 H 0.523467 0.100626 0.193130
H29_2 H 0.483565 0.057010 0.191059
C40_2 C 0.7456(4) 0.3303(5) 0.1350(4)
H30_2 H 0.783418 0.332651 0.136679
H31_2 H 0.733128 0.305859 0.151867
H32_2 H 0.730018 0.361097 0.141205
Co6_2 Co 0.51076(2) 0.23159(2) 0.40697(2)
Co8_2 Co 0.98381(2) 0.23574(2) 0.17558(2)
Co10_2 Co 0.90789(2) 0.25979(2) 0.10663(2)
Co11_2 Co 0.84211(2) 0.00979(2) 0.35663(2)
Co13_2 Co 0.59096(2) 0.20497(2) 0.47372(2)
O23_2 O 0.48258(11) 0.20732(10) 0.15324(7)
O25_2 O 0.52346(12) 0.20696(11) 0.09994(7)
O29_2 O 0.46352(12) 0.28928(11) 0.20913(8)
O30_2 O 0.56216(15) 0.33847(11) 0.18114(8)
O31_2 O 0.54737(11) 0.29782(9) 0.13184(7)
H35_2 H 0.609606 0.150949 0.0901815
H36_2 H 0.630736 0.183725 0.0571367
O4_2 O 0.82268(15) 0.06759(16) 0.91009(9)
O7_2 O 0.98011(11) 0.17152(10) 0.92722(7)
C10_2 C 0.82242(17) 0.06158(16) 0.94277(11)
O14_2 O 0.78648(12) 0.03928(11) 0.95913(8)
C14_2 C 0.94438(14) 0.12492(13) 0.97351(10)
C18_2 C 0.98684(14) 0.15609(13) 0.95884(9)
C19_2 C 0.90544(15) 0.10687(14) 0.95144(9)
H8_2 H 0.906822 0.111791 0.925990
C24_2 C 0.86473(15) 0.08179(15) 0.96646(9)
N2_2 N 0.5847(2) 0.25205(19) 0.99375(12)
H14_2 H 0.565855 0.239763 0.976197
C38_2 C 0.6330(3) 0.2733(3) 0.9849(2)
H25_2 H 0.631789 0.285454 0.960063
H26_2 H 0.660593 0.249462 0.987025
Co7_2 Co 0.73381(2) 0.01426(2) 0.92558(2)
Co1_2 Co 0.73924(2) 0.98159(2) 0.15697(2)
Co4_2 Co 0.65904(2) 0.95497(2) 0.22372(2)
O8_2 O 0.79107(12) 0.99888(12) 0.11648(8)
O12_2 O 0.66428(15) 0.97992(13) 0.27748(8)
O19_2 O 0.59416(13) 0.99871(13) 0.21768(10)
O20_2 O 0.61709(16) 0.89765(14) 0.24543(10)
N1_2 N 0.6655(2) 0.9669(2) 0.33703(12)
H13_2 H 0.682161 0.954065 0.355386
C35_2 C 0.6845(2) 0.9621(2) 0.30476(13)
H17_2 H 0.715354 0.944045 0.301869
C37_2 C 0.6172(3) 0.9929(3) 0.3442(2)
H22_2 H 0.612356 0.996183 0.370411
H23_2 H 0.587930 0.975326 0.333839
Co9_2 Co 0.76619(2) 0.98574(2) 0.42558(2)
O24_2 O 0.72638(11) 0.91604(11) 0.22931(7)
O26_2 O 0.76989(11) 0.92152(10) 0.17722(7)
O27_2 O 0.68606(11) 0.95175(11) 0.12545(7)
O28_2 O 0.64162(12) 0.92601(12) 0.17328(7)
H33_2 H 0.585572 0.909866 0.257785
H34_2 H 0.60678 0.875643 0.225623
C2_3 C 0.16777(15) 0.12340(14) 0.33802(9)
H2_3 H 0.188294 0.099291 0.327010
O4_3 O 0.07268(15) 0.18241(16) 0.16009(9)
O5_3 O 0.02346(12) 0.20696(11) 0.59994(7)
O6_3 O 0.06118(13) 0.22495(12) 0.42060(7)
O8_3 O 0.04107(12) 0.25112(12) 0.36648(8)
C5_3 C 0.13104(16) 0.15840(14) 0.39178(10)
H4_3 H 0.127552 0.159300 0.417396
C7_3 C 0.06812(16) 0.22515(15) 0.38722(10)
C8_3 C 0.14489(15) 0.15830(14) 0.31667(9)
C9_3 C 0.10641(15) 0.19193(14) 0.37056(10)
C10_3 C 0.07242(17) 0.18842(16) 0.19277(11)
C12_3 C 0.19238(15) 0.13287(14) 0.26051(9)
H5_3 H 0.220192 0.122071 0.275252
O14_3 O 0.03648(12) 0.21072(11) 0.20913(8)
C14_3 C 0.19438(14) 0.12508(13) 0.22351(10)
O16_3 O 0.18784(15) 0.08847(11) 0.43114(8)
C18_3 C 0.23684(14) 0.09391(13) 0.20884(9)
C19_3 C 0.15544(15) 0.14313(14) 0.20144(9)
H8_3 H 0.156822 0.138209 0.175990
C22_3 C 0.11392(16) 0.19214(15) 0.33333(10)
H9_3 H 0.097516 0.215924 0.319029
C23_3 C 0.11178(15) 0.17377(15) 0.25405(10)
H10_3 H 0.082844 0.189822 0.264293
C24_3 C 0.11473(15) 0.16821(15) 0.21646(9)
C28_3 C 0.16088(15) 0.12342(14) 0.37549(9)
C29_3 C 0.15049(15) 0.15623(14) 0.27677(9)
O17_3 O 0.20263(11) 0.04782(9) 0.38184(7)
C32_3 C 0.18465(15) 0.08501(14) 0.39789(10)
Co9_3 Co 0.01619(2) 0.26426(2) 0.67558(2)
Co11_3 Co 0.09211(2) 0.24021(2) 0.60663(2)
O26_3 O 0.01989(11) 0.32848(10) 0.42722(7)
H30_3 H 0.033418 0.917349 0.386679
Co1_3 Co 0.98924(2) 0.26841(2) 0.40697(2)
Co4_3 Co 0.90904(2) 0.29503(2) 0.47372(2)
O1_3 O 0.98258(11) 0.20732(10) 0.65324(7)
O3_3 O 0.94755(13) 0.19587(10) 0.40251(7)
C1_3 C 0.89648(15) 0.12075(14) 0.43909(9)
H1_3 H 0.895088 0.119869 0.413383
C3_3 C 0.91911(15) 0.15857(13) 0.45634(9)
O9_3 O 0.85383(14) 0.04148(12) 0.40649(8)
O10_3 O 0.81394(11) 0.04825(11) 0.62545(7)
O11_3 O 0.85838(12) 0.07399(12) 0.67328(7)
C4_3 C 0.87798(16) 0.09671(14) 0.57807(9)
H3_3 H 0.852070 0.076442 0.568188
C6_3 C 0.84960(14) 0.07196(13) 0.64007(9)
O12_3 O 0.91428(15) 0.27008(13) 0.52748(8)
O13_3 O 0.81733(12) 0.01807(11) 0.45771(8)
C11_3 C 0.94051(15) 0.19943(13) 0.43530(9)
C13_3 C 0.94770(16) 0.15130(14) 0.57008(10)
H6_3 H 0.971209 0.167686 0.554664
C15_3 C 0.91986(15) 0.13110(14) 0.63013(10)
H7_3 H 0.922738 0.134681 0.655647
C16_3 C 0.84708(16) 0.04450(14) 0.43975(10)
C17_3 C 0.87556(15) 0.08371(13) 0.45923(9)
C20_3 C 0.98922(14) 0.19297(13) 0.62154(9)
C21_3 C 0.95200(15) 0.15676(13) 0.60719(9)
C25_3 C 0.91017(16) 0.12269(15) 0.55499(9)
C26_3 C 0.88360(15) 0.10029(14) 0.61560(9)
C27_3 C 0.87897(16) 0.08353(14) 0.49683(10)
H11_3 H 0.864724 0.057765 0.510253
C30_3 C 0.92234(16) 0.15940(13) 0.49409(10)
H12_3 H 0.937553 0.186085 0.505849
O18_3 O 0.95405(10) 0.23779(9) 0.45213(7)
O19_3 O 0.84416(13) 0.25129(13) 0.46768(10)
O20_3 O 0.86709(16) 0.35235(14) 0.49543(10)
O22_3 O 0.87931(19) 0.06978(17) 0.33389(13)
C31_3 C 0.90332(16) 0.12118(14) 0.51493(9)
N1_3 N 0.9155(2) 0.2831(2) 0.58703(12)
H13_3 H 0.932161 0.295935 0.605386
H14_3 H 0.815855 0.010237 0.226197
C33_3 C 0.8174(2) -0.0000(2) 0.27635(13)
H15_3 H 0.785078 0.015512 0.279938
C35_3 C 0.9345(2) 0.2879(2) 0.55476(13)
H17_3 H 0.965354 0.305955 0.551869
C36_3 C 0.8183(2) 0.2291(2) 0.48878(19)
H18_3 H 0.824410 0.235525 0.513687
N3_3 N 0.7836(2) 0.1978(2) 0.4819(2)
H19_3 H 0.767583 0.184034 0.500178
C37_3 C 0.8672(3) 0.2571(3) 0.5942(2)
H21_3 H 0.869149 0.225368 0.583126
H22_3 H 0.862356 0.253817 0.620411
H23_3 H 0.837930 0.274674 0.583839
H26_3 H 0.910593 0.000538 0.237025
C39_3 C 0.7697(4) 0.1840(4) 0.4458(4)
H27_3 H 0.792396 0.200135 0.428384
H28_3 H 0.773467 0.149374 0.443130
H29_3 H 0.733565 0.192990 0.441059
Co6_3 Co 0.76076(2) 0.01841(2) 0.65697(2)
Co13_3 Co 0.84096(2) 0.04503(2) 0.72372(2)
O24_3 O 0.97638(11) 0.33396(11) 0.47931(7)
O27_3 O 0.93606(11) 0.29825(11) 0.37545(7)
O28_3 O 0.89162(12) 0.32399(12) 0.42328(7)
H33_3 H 0.835572 0.340134 0.507785
H34_3 H 0.85678 0.374357 0.475623
H35_3 H 0.859606 0.099051 0.340182
H36_3 H 0.880736 0.0662749 0.307137
O15_3 O 0.83885(14) 0.98360(12) 0.30321(8)
O21_3 O 0.90916(13) 0.97223(14) 0.36455(10)
N2_3 N 0.8347(2) 0.99795(19) 0.24375(12)
C33_4 C 0.8174(2) 1.0000(2) 0.27635(13)
C34_3 C 0.9395(2) 0.9601(3) 0.3417(2)
H16_3 H 0.933646 0.970528 0.317603
N4_3 N 0.9809(2) 0.9328(3) 0.3480(2)
H20_3 H 0.999664 0.922530 0.329648
C38_3 C 0.8830(3) 0.9767(3) 0.2349(2)
H24_3 H 0.889911 0.950306 0.251665
H25_3 H 0.881789 0.964546 0.210063
C40_3 C 0.9956(4) 0.9197(5) 0.3850(4)
H31_3 H 0.983128 0.944141 0.401867
H32_3 H 0.980018 0.888903 0.391205
O29_3 O 0.71352(12) 0.96072(11) 0.45913(8)
O30_3 O 0.81216(15) 0.91153(11) 0.43114(8)
O31_3 O 0.79737(11) 0.95218(9) 0.38184(7)
Co2_3 Co 0.73381(2) 0.51426(2) 0.42558(2)
Co3_3 Co 0.65789(2) 0.49021(2) 0.35663(2)
O1_4 O 0.51742(11) 0.29268(10) 0.65324(7)
O2_3 O 0.22638(11) 0.41604(11) 0.22931(7)
O3_4 O 0.55245(13) 0.30413(10) 0.40251(7)
C1_4 C 0.60352(15) 0.37925(14) 0.43909(9)
H1_4 H 0.604912 0.380131 0.413383
C2_4 C 0.33223(15) 0.37660(14) 0.33802(9)
H2_4 H 0.311706 0.400709 0.327010
O4_4 O 0.42732(15) 0.31759(16) 0.16009(9)
O5_4 O 0.47654(12) 0.29304(11) 0.59994(7)
O6_4 O 0.43882(13) 0.27505(12) 0.42060(7)
O7_3 O 0.26989(11) 0.42152(10) 0.17722(7)
C3_4 C 0.58089(15) 0.34143(13) 0.45634(9)
O8_4 O 0.45893(12) 0.24888(12) 0.36648(8)
O9_4 O 0.64617(14) 0.45852(12) 0.40649(8)
O10_4 O 0.68606(11) 0.45175(11) 0.62545(7)
O11_4 O 0.64162(12) 0.42601(12) 0.67328(7)
C4_4 C 0.62202(16) 0.40329(14) 0.57807(9)
H3_4 H 0.647930 0.423558 0.568188
C5_4 C 0.36896(16) 0.34160(14) 0.39178(10)
H4_4 H 0.372448 0.340700 0.417396
C6_4 C 0.65040(14) 0.42804(13) 0.64007(9)
C7_4 C 0.43188(16) 0.27485(15) 0.38722(10)
O12_4 O 0.58572(15) 0.22992(13) 0.52748(8)
C8_4 C 0.35511(15) 0.34170(14) 0.31667(9)
C9_4 C 0.39359(15) 0.30807(14) 0.37056(10)
C10_4 C 0.42758(17) 0.31158(16) 0.19277(11)
O13_4 O 0.68267(12) 0.48193(11) 0.45771(8)
C11_4 C 0.55949(15) 0.30057(13) 0.43530(9)
C12_4 C 0.30762(15) 0.36713(14) 0.26051(9)
H5_4 H 0.279808 0.377929 0.275252
C13_4 C 0.55230(16) 0.34870(14) 0.57008(10)
H6_4 H 0.528791 0.332314 0.554664
C14_4 C 0.30562(14) 0.37492(13) 0.22351(10)
O15_4 O 0.66115(14) 0.51640(12) 0.30321(8)
C15_4 C 0.58014(15) 0.36890(14) 0.63013(10)
H7_4 H 0.577262 0.365319 0.655647
O16_4 O 0.31216(15) 0.41153(11) 0.43114(8)
C16_4 C 0.65292(16) 0.45550(14) 0.43975(10)
C17_4 C 0.62444(15) 0.41629(13) 0.45923(9)
C18_4 C 0.26316(14) 0.40609(13) 0.20884(9)
C19_4 C 0.34456(15) 0.35687(14) 0.20144(9)
H8_4 H 0.343178 0.361791 0.175990
C20_4 C 0.51078(14) 0.30703(13) 0.62154(9)
C21_4 C 0.54800(15) 0.34324(13) 0.60719(9)
C22_4 C 0.38608(16) 0.30786(15) 0.33333(10)
H9_4 H 0.402484 0.284076 0.319029
C23_4 C 0.38822(15) 0.32623(15) 0.25405(10)
H10_4 H 0.417156 0.310178 0.264293
C24_4 C 0.38527(15) 0.33179(15) 0.21646(9)
C25_4 C 0.58983(16) 0.37731(15) 0.55499(9)
C26_4 C 0.61640(15) 0.39971(14) 0.61560(9)
C27_4 C 0.62103(16) 0.41647(14) 0.49683(10)
H11_4 H 0.635276 0.442235 0.510253
C28_4 C 0.33912(15) 0.37658(14) 0.37549(9)
C29_4 C 0.34951(15) 0.34377(14) 0.27677(9)
C30_4 C 0.57766(16) 0.34060(13) 0.49409(10)
H12_4 H 0.562447 0.313915 0.505849
O17_4 O 0.29737(11) 0.45218(9) 0.38184(7)
O18_4 O 0.54595(10) 0.26221(9) 0.45213(7)
O19_4 O 0.65584(13) 0.24871(13) 0.46768(10)
O20_4 O 0.63291(16) 0.14765(14) 0.49543(10)
O21_4 O 0.59084(13) 0.52777(14) 0.36455(10)
O22_4 O 0.62069(19) 0.43022(17) 0.33389(13)
C31_4 C 0.59668(16) 0.37882(14) 0.51493(9)
C32_4 C 0.31535(15) 0.41499(14) 0.39789(10)
N1_4 N 0.5845(2) 0.2169(2) 0.58703(12)
H13_4 H 0.567839 0.204065 0.605386
N2_4 N 0.6653(2) 0.50205(19) 0.24375(12)
H14_4 H 0.684145 0.489763 0.226197
C33_5 C 0.6826(2) 0.5000(2) 0.27635(13)
H15_4 H 0.714922 0.484488 0.279938
C34_4 C 0.5605(2) 0.5399(3) 0.3417(2)
H16_4 H 0.566354 0.529472 0.317603
C35_4 C 0.5655(2) 0.2121(2) 0.55476(13)
H17_4 H 0.534646 0.194045 0.551869
C36_4 C 0.6817(2) 0.2709(2) 0.48878(19)
H18_4 H 0.675590 0.264475 0.513687
N3_4 N 0.7164(2) 0.3022(2) 0.4819(2)
H19_4 H 0.732417 0.315966 0.500178
N4_4 N 0.5191(2) 0.5672(3) 0.3480(2)
H20_4 H 0.500336 0.577470 0.329648
C37_4 C 0.6328(3) 0.2429(3) 0.5942(2)
H21_4 H 0.630851 0.274632 0.583126
H22_4 H 0.637644 0.246183 0.620411
H23_4 H 0.662070 0.225326 0.583839
C38_4 C 0.6170(3) 0.5233(3) 0.2349(2)
H24_4 H 0.610089 0.549694 0.251665
H25_4 H 0.618211 0.535454 0.210063
H26_4 H 0.589407 0.499462 0.237025
C39_4 C 0.7303(4) 0.3160(4) 0.4458(4)
H27_4 H 0.707604 0.299865 0.428384
H28_4 H 0.726533 0.350626 0.443130
H29_4 H 0.766435 0.307010 0.441059
C40_4 C 0.5044(4) 0.5803(5) 0.3850(4)
H30_4 H 0.466582 0.582651 0.386679
H31_4 H 0.516872 0.555859 0.401867
H32_4 H 0.519982 0.611097 0.391205
Co5_3 Co 0.23924(2) 0.48159(2) 0.15697(2)
Co6_4 Co 0.73924(2) 0.48159(2) 0.65697(2)
Co8_3 Co 0.26619(2) 0.48574(2) 0.42558(2)
Co9_4 Co 0.48381(2) 0.23574(2) 0.67558(2)
Co10_3 Co 0.34211(2) 0.50979(2) 0.35663(2)
Co11_4 Co 0.40789(2) 0.25979(2) 0.60663(2)
Co12_3 Co 0.15904(2) 0.45497(2) 0.22372(2)
Co13_4 Co 0.65904(2) 0.45497(2) 0.72372(2)
O23_3 O 0.76742(11) 0.45732(10) 0.40324(7)
O24_4 O 0.52362(11) 0.16604(11) 0.47931(7)
O25_3 O 0.72654(12) 0.45696(11) 0.34994(7)
O26_4 O 0.48011(11) 0.17152(10) 0.42722(7)
O29_4 O 0.78648(12) 0.53928(11) 0.45913(8)
O30_4 O 0.68784(15) 0.58847(11) 0.43114(8)
O31_4 O 0.70263(11) 0.54782(9) 0.38184(7)
H33_4 H 0.664428 0.159866 0.507785
H34_4 H 0.64322 0.125643 0.475623
H35_4 H 0.640394 0.400949 0.340182
H36_4 H 0.619264 0.433725 0.307137
Co1_4 Co 0.26076(2) 0.51841(2) 0.65697(2)
Co4_4 Co 0.34096(2) 0.54503(2) 0.72372(2)
O1_5 O 0.26742(11) 0.45732(10) 0.90324(7)
O3_5 O 0.30245(13) 0.44587(10) 0.65251(7)
C1_5 C 0.35352(15) 0.37075(14) 0.68909(9)
H1_5 H 0.354912 0.369869 0.663383
C2_5 C 0.08223(15) 0.37340(14) 0.58802(9)
H2_5 H 0.061706 0.349291 0.577010
O4_5 O 0.17732(15) 0.43241(16) 0.41009(9)
O5_5 O 0.22654(12) 0.45696(11) 0.84994(7)
O6_5 O 0.18882(13) 0.47495(12) 0.67060(7)
C3_5 C 0.33089(15) 0.40857(13) 0.70634(9)
O8_5 O 0.20893(12) 0.50112(12) 0.61648(8)
O9_5 O 0.39617(14) 0.29148(12) 0.65649(8)
O10_5 O 0.43606(11) 0.29825(11) 0.87545(7)
O11_5 O 0.39162(12) 0.32399(12) 0.92328(7)
C4_5 C 0.37202(16) 0.34671(14) 0.82807(9)
H3_5 H 0.397930 0.326442 0.818188
C5_5 C 0.11896(16) 0.40840(14) 0.64178(10)
H4_5 H 0.122448 0.409300 0.667396
C6_5 C 0.40040(14) 0.32196(13) 0.89007(9)
C7_5 C 0.18188(16) 0.47515(15) 0.63722(10)
O12_5 O 0.33572(15) 0.52008(13) 0.77748(8)
C8_5 C 0.10511(15) 0.40830(14) 0.56667(9)
C9_5 C 0.14359(15) 0.44193(14) 0.62056(10)
C10_5 C 0.17758(17) 0.43842(16) 0.44277(11)
O13_5 O 0.43267(12) 0.26807(11) 0.70771(8)
C11_5 C 0.30949(15) 0.44943(13) 0.68530(9)
C12_5 C 0.05762(15) 0.38287(14) 0.51051(9)
H5_5 H 0.029808 0.372071 0.525252
C13_5 C 0.30230(16) 0.40130(14) 0.82008(10)
H6_5 H 0.278791 0.417686 0.804664
O14_4 O 0.21352(12) 0.46072(11) 0.45913(8)
C14_5 C 0.05562(14) 0.37508(13) 0.47351(10)
O15_5 O 0.41115(14) 0.23360(12) 0.55321(8)
C15_5 C 0.33014(15) 0.38110(14) 0.88013(10)
H7_5 H 0.327262 0.384681 0.905647
O16_5 O 0.06216(15) 0.33847(11) 0.68114(8)
C16_5 C 0.40292(16) 0.29450(14) 0.68975(10)
C17_5 C 0.37444(15) 0.33371(13) 0.70923(9)
C18_5 C 0.01316(14) 0.34391(13) 0.45884(9)
C19_5 C 0.09456(15) 0.39313(14) 0.45144(9)
H8_5 H 0.093178 0.388209 0.425990
C20_5 C 0.26078(14) 0.44297(13) 0.87154(9)
C21_5 C 0.29800(15) 0.40676(13) 0.85719(9)
C22_5 C 0.13608(16) 0.44214(15) 0.58333(10)
H9_5 H 0.152484 0.465924 0.569029
C23_5 C 0.13822(15) 0.42377(15) 0.50405(10)
H10_5 H 0.167156 0.439822 0.514293
C24_5 C 0.13527(15) 0.41821(15) 0.46646(9)
C25_5 C 0.33983(16) 0.37269(15) 0.80499(9)
C26_5 C 0.36640(15) 0.35029(14) 0.86560(9)
C27_5 C 0.37103(16) 0.33353(14) 0.74683(10)
H11_5 H 0.385276 0.307765 0.760253
C28_5 C 0.08912(15) 0.37342(14) 0.62549(9)
C29_5 C 0.09951(15) 0.40623(14) 0.52677(9)
C30_5 C 0.32766(16) 0.40940(13) 0.74409(10)
H12_5 H 0.312447 0.436085 0.755849
O17_5 O 0.04737(11) 0.29782(9) 0.63184(7)
O18_5 O 0.29595(10) 0.48779(9) 0.70213(7)
O19_5 O 0.40584(13) 0.50129(13) 0.71768(10)
O20_5 O 0.38291(16) 0.60235(14) 0.74543(10)
O21_5 O 0.34084(13) 0.22223(14) 0.61455(10)
O22_5 O 0.37069(19) 0.31978(17) 0.58389(13)
C31_5 C 0.34668(16) 0.37118(14) 0.76493(9)
C32_5 C 0.06535(15) 0.33501(14) 0.64789(10)
N1_5 N 0.3345(2) 0.5331(2) 0.83703(12)
H13_5 H 0.317839 0.545935 0.855386
N2_5 N 0.4153(2) 0.24795(19) 0.49375(12)
H14_5 H 0.434145 0.260237 0.476197
C33_6 C 0.4326(2) 0.2500(2) 0.52635(13)
H15_5 H 0.464922 0.265512 0.529938
C34_5 C 0.3105(2) 0.2101(3) 0.5917(2)
H16_5 H 0.316354 0.220528 0.567603
C35_5 C 0.3155(2) 0.5379(2) 0.80476(13)
H17_5 H 0.284646 0.555955 0.801869
C36_5 C 0.4317(2) 0.4791(2) 0.73878(19)
H18_5 H 0.425590 0.485525 0.763687
N3_5 N 0.4664(2) 0.4478(2) 0.7319(2)
H19_5 H 0.482417 0.434034 0.750178
N4_5 N 0.2691(2) 0.1828(3) 0.5980(2)
H20_5 H 0.250336 0.172530 0.579648
C37_5 C 0.3828(3) 0.5071(3) 0.8442(2)
H21_5 H 0.380851 0.475368 0.833126
H22_5 H 0.387644 0.503817 0.870411
H23_5 H 0.412070 0.524674 0.833839
C38_5 C 0.3670(3) 0.2267(3) 0.4849(2)
H24_5 H 0.360089 0.200306 0.501665
H25_5 H 0.368211 0.214546 0.460063
H26_5 H 0.339407 0.250538 0.487025
C39_5 C 0.4803(4) 0.4340(4) 0.6958(4)
H27_5 H 0.457604 0.450135 0.678384
H28_5 H 0.476533 0.399374 0.693130
H29_5 H 0.516435 0.442990 0.691059
C40_5 C 0.2544(4) 0.1697(5) 0.6350(4)
H30_5 H 0.216582 0.167349 0.636679
H31_5 H 0.266872 0.194141 0.651867
H32_5 H 0.269982 0.138903 0.641205
Co6_5 Co 0.48924(2) 0.26841(2) 0.90697(2)
Co9_5 Co 0.23381(2) 0.51426(2) 0.92558(2)
Co11_5 Co 0.15789(2) 0.49021(2) 0.85663(2)
Co13_5 Co 0.40904(2) 0.29503(2) 0.97372(2)
O24_5 O 0.27362(11) 0.58396(11) 0.72931(7)
O26_5 O 0.23011(11) 0.57848(10) 0.67722(7)
O27_4 O 0.31394(11) 0.54825(11) 0.62545(7)
O28_4 O 0.35838(12) 0.57399(12) 0.67328(7)
O29_5 O 0.53648(12) 0.21072(11) 0.70913(8)
O30_5 O 0.43784(15) 0.16153(11) 0.68114(8)
O31_5 O 0.45263(11) 0.20218(9) 0.63184(7)
H33_5 H 0.414428 0.590134 0.757785
H34_5 H 0.39322 0.624357 0.725623
H35_5 H 0.390394 0.349051 0.590182
H36_5 H 0.369264 0.316275 0.557137
O2_4 O 0.02362(11) 0.66604(11) 0.47931(7)
Co5_4 Co 0.01076(2) 0.73159(2) 0.40697(2)
Co12_4 Co 0.09096(2) 0.70497(2) 0.47372(2)
Co2_4 Co 0.51619(2) 0.76426(2) 0.67558(2)
Co3_4 Co 0.59211(2) 0.74021(2) 0.60663(2)
O1_6 O 0.73258(11) 0.54268(10) 0.90324(7)
O3_6 O 0.69755(13) 0.55413(10) 0.65251(7)
C1_6 C 0.64648(15) 0.62925(14) 0.68909(9)
H1_6 H 0.645088 0.630131 0.663383
C2_6 C 0.91777(15) 0.62660(14) 0.58802(9)
H2_6 H 0.938294 0.650709 0.577010
O4_6 O 0.82268(15) 0.56759(16) 0.41009(9)
O5_6 O 0.77346(12) 0.54304(11) 0.84994(7)
O6_6 O 0.81118(13) 0.52505(12) 0.67060(7)
O7_4 O 0.98011(11) 0.67152(10) 0.42722(7)
C3_6 C 0.66911(15) 0.59143(13) 0.70634(9)
O8_6 O 0.79107(12) 0.49888(12) 0.61648(8)
O9_6 O 0.60383(14) 0.70852(12) 0.65649(8)
O10_6 O 0.56394(11) 0.70175(11) 0.87545(7)
O11_6 O 0.60838(12) 0.67601(12) 0.92328(7)
C4_6 C 0.62798(16) 0.65329(14) 0.82807(9)
H3_6 H 0.602070 0.673558 0.818188
C5_6 C 0.88104(16) 0.59160(14) 0.64178(10)
H4_6 H 0.877552 0.590700 0.667396
C6_6 C 0.59960(14) 0.67804(13) 0.89007(9)
C7_6 C 0.81812(16) 0.52485(15) 0.63722(10)
O12_6 O 0.66428(15) 0.47992(13) 0.77748(8)
C8_6 C 0.89489(15) 0.59170(14) 0.56667(9)
C9_6 C 0.85641(15) 0.55807(14) 0.62056(10)
C10_6 C 0.82242(17) 0.56158(16) 0.44277(11)
O13_6 O 0.56733(12) 0.73193(11) 0.70771(8)
C11_6 C 0.69051(15) 0.55057(13) 0.68530(9)
C12_6 C 0.94238(15) 0.61713(14) 0.51051(9)
H5_6 H 0.970192 0.627929 0.525252
C13_6 C 0.69770(16) 0.59870(14) 0.82008(10)
H6_6 H 0.721209 0.582314 0.804664
C14_6 C 0.94438(14) 0.62492(13) 0.47351(10)
O15_6 O 0.58885(14) 0.76640(12) 0.55321(8)
C15_6 C 0.66986(15) 0.61890(14) 0.88013(10)
H7_6 H 0.672738 0.615319 0.905647
O16_6 O 0.93784(15) 0.66153(11) 0.68114(8)
C16_6 C 0.59708(16) 0.70550(14) 0.68975(10)
C17_6 C 0.62556(15) 0.66629(13) 0.70923(9)
C18_6 C 0.98684(14) 0.65609(13) 0.45884(9)
C19_6 C 0.90544(15) 0.60687(14) 0.45144(9)
H8_6 H 0.906822 0.611791 0.425990
C20_6 C 0.73922(14) 0.55703(13) 0.87154(9)
C21_6 C 0.70200(15) 0.59324(13) 0.85719(9)
C22_6 C 0.86392(16) 0.55786(15) 0.58333(10)
H9_6 H 0.847516 0.534076 0.569029
C23_6 C 0.86178(15) 0.57623(15) 0.50405(10)
H10_6 H 0.832844 0.560178 0.514293
C24_6 C 0.86473(15) 0.58179(15) 0.46646(9)
C25_6 C 0.66017(16) 0.62731(15) 0.80499(9)
C26_6 C 0.63360(15) 0.64971(14) 0.86560(9)
C27_6 C 0.62897(16) 0.66647(14) 0.74683(10)
H11_6 H 0.614724 0.692235 0.760253
C28_6 C 0.91088(15) 0.62658(14) 0.62549(9)
C29_6 C 0.90049(15) 0.59377(14) 0.52677(9)
C30_6 C 0.67234(16) 0.59060(13) 0.74409(10)
H12_6 H 0.687553 0.563915 0.755849
O17_6 O 0.95263(11) 0.70218(9) 0.63184(7)
O18_6 O 0.70405(10) 0.51221(9) 0.70213(7)
O19_6 O 0.59416(13) 0.49871(13) 0.71768(10)
O20_6 O 0.61709(16) 0.39765(14) 0.74543(10)
O21_6 O 0.65916(13) 0.77777(14) 0.61455(10)
O22_6 O 0.62931(19) 0.68022(17) 0.58389(13)
C31_6 C 0.65332(16) 0.62882(14) 0.76493(9)
C32_6 C 0.93465(15) 0.66499(14) 0.64789(10)
N1_6 N 0.6655(2) 0.4669(2) 0.83703(12)
H13_6 H 0.682161 0.454065 0.855386
N2_6 N 0.5847(2) 0.75205(19) 0.49375(12)
H14_6 H 0.565855 0.739763 0.476197
C33_7 C 0.5674(2) 0.7500(2) 0.52635(13)
H15_6 H 0.535078 0.734488 0.529938
C34_6 C 0.6895(2) 0.7899(3) 0.5917(2)
H16_6 H 0.683646 0.779472 0.567603
C35_6 C 0.6845(2) 0.4621(2) 0.80476(13)
H17_6 H 0.715354 0.444045 0.801869
C36_6 C 0.5683(2) 0.5209(2) 0.73878(19)
H18_6 H 0.574410 0.514475 0.763687
N3_6 N 0.5336(2) 0.5522(2) 0.7319(2)
H19_6 H 0.517583 0.565966 0.750178
N4_6 N 0.7309(2) 0.8172(3) 0.5980(2)
H20_6 H 0.749664 0.827470 0.579648
C37_6 C 0.6172(3) 0.4929(3) 0.8442(2)
H21_6 H 0.619149 0.524632 0.833126
H22_6 H 0.612356 0.496183 0.870411
H23_6 H 0.587930 0.475326 0.833839
C38_6 C 0.6330(3) 0.7733(3) 0.4849(2)
H24_6 H 0.639911 0.799694 0.501665
H25_6 H 0.631789 0.785454 0.460063
H26_6 H 0.660593 0.749462 0.487025
C39_6 C 0.5197(4) 0.5660(4) 0.6958(4)
H27_6 H 0.542396 0.549865 0.678384
H28_6 H 0.523467 0.600626 0.693130
H29_6 H 0.483565 0.557010 0.691059
C40_6 C 0.7456(4) 0.8303(5) 0.6350(4)
H30_6 H 0.783418 0.832651 0.636679
H31_6 H 0.733128 0.805859 0.651867
H32_6 H 0.730018 0.861097 0.641205
Co6_6 Co 0.51076(2) 0.73159(2) 0.90697(2)
Co8_4 Co 0.98381(2) 0.73574(2) 0.67558(2)
Co9_6 Co 0.76619(2) 0.48574(2) 0.92558(2)
Co10_4 Co 0.90789(2) 0.75979(2) 0.60663(2)
Co11_6 Co 0.84211(2) 0.50979(2) 0.85663(2)
Co13_6 Co 0.59096(2) 0.70497(2) 0.97372(2)
O23_4 O 0.48258(11) 0.70732(10) 0.65324(7)
O24_6 O 0.72638(11) 0.41604(11) 0.72931(7)
O25_4 O 0.52346(12) 0.70696(11) 0.59994(7)
O26_6 O 0.76989(11) 0.42152(10) 0.67722(7)
O29_6 O 0.46352(12) 0.78928(11) 0.70913(8)
O30_6 O 0.56216(15) 0.83847(11) 0.68114(8)
O31_6 O 0.54737(11) 0.79782(9) 0.63184(7)
H33_6 H 0.585572 0.409866 0.757785
H34_6 H 0.60678 0.375643 0.725623
H35_6 H 0.609606 0.650949 0.590182
H36_6 H 0.630736 0.683725 0.557137
O5_7 O 0.02346(12) 0.70696(11) 0.09994(7)
C2_7 C 0.16777(15) 0.62340(14) 0.83802(9)
H2_7 H 0.188294 0.599291 0.827010
O4_7 O 0.07268(15) 0.68241(16) 0.66009(9)
O6_7 O 0.06118(13) 0.72495(12) 0.92060(7)
O8_7 O 0.04107(12) 0.75112(12) 0.86648(8)
C5_7 C 0.13104(16) 0.65840(14) 0.89178(10)
H4_7 H 0.127552 0.659300 0.917396
C7_7 C 0.06812(16) 0.72515(15) 0.88722(10)
C8_7 C 0.14489(15) 0.65830(14) 0.81667(9)
C9_7 C 0.10641(15) 0.69193(14) 0.87056(10)
C10_7 C 0.07242(17) 0.68842(16) 0.69277(11)
C12_7 C 0.19238(15) 0.63287(14) 0.76051(9)
H5_7 H 0.220192 0.622071 0.775252
O14_5 O 0.03648(12) 0.71072(11) 0.70913(8)
C14_7 C 0.19438(14) 0.62508(13) 0.72351(10)
O16_7 O 0.18784(15) 0.58847(11) 0.93114(8)
C18_7 C 0.23684(14) 0.59391(13) 0.70884(9)
C19_7 C 0.15544(15) 0.64313(14) 0.70144(9)
H8_7 H 0.156822 0.638209 0.675990
C22_7 C 0.11392(16) 0.69214(15) 0.83333(10)
H9_7 H 0.097516 0.715924 0.819029
C23_7 C 0.11178(15) 0.67377(15) 0.75405(10)
H10_7 H 0.082844 0.689822 0.764293
C24_7 C 0.11473(15) 0.66821(15) 0.71646(9)
C28_7 C 0.16088(15) 0.62342(14) 0.87549(9)
C29_7 C 0.15049(15) 0.65623(14) 0.77677(9)
O17_7 O 0.20263(11) 0.54782(9) 0.88184(7)
C32_7 C 0.18465(15) 0.58501(14) 0.89789(10)
H30_7 H 0.033418 0.417349 0.886679
O1_7 O 0.98258(11) 0.70732(10) 0.15324(7)
O10_7 O 0.81394(11) 0.54825(11) 0.12545(7)
O11_7 O 0.85838(12) 0.57399(12) 0.17328(7)
C4_7 C 0.87798(16) 0.59671(14) 0.07807(9)
H3_7 H 0.852070 0.576442 0.068188
C6_7 C 0.84960(14) 0.57196(13) 0.14007(9)
O12_7 O 0.91428(15) 0.77008(13) 0.02748(8)
C13_7 C 0.94770(16) 0.65130(14) 0.07008(10)
H6_7 H 0.971209 0.667686 0.054664
C15_7 C 0.91986(15) 0.63110(14) 0.13013(10)
H7_7 H 0.922738 0.634681 0.155647
C20_7 C 0.98922(14) 0.69297(13) 0.12154(9)
C21_7 C 0.95200(15) 0.65676(13) 0.10719(9)
C25_7 C 0.91017(16) 0.62269(15) 0.05499(9)
C26_7 C 0.88360(15) 0.60029(14) 0.11560(9)
H11_7 H 0.864724 0.557765 0.010253
H12_7 H 0.937553 0.686085 0.005849
C31_7 C 0.90332(16) 0.62118(14) 0.01493(9)
N1_7 N 0.9155(2) 0.7831(2) 0.08703(12)
H13_7 H 0.932161 0.795935 0.105386
C35_7 C 0.9345(2) 0.7879(2) 0.05476(13)
H17_7 H 0.965354 0.805955 0.051869
H18_7 H 0.824410 0.735525 0.013687
H19_7 H 0.767583 0.684034 0.000178
C37_7 C 0.8672(3) 0.7571(3) 0.0942(2)
H21_7 H 0.869149 0.725368 0.083126
H22_7 H 0.862356 0.753817 0.120411
H23_7 H 0.837930 0.774674 0.083839
Co6_7 Co 0.76076(2) 0.51841(2) 0.15697(2)
Co13_7 Co 0.84096(2) 0.54503(2) 0.22372(2)
H33_7 H 0.835572 0.840134 0.00778469
O3_7 O 0.94755(13) 0.69587(10) 0.90251(7)
C1_7 C 0.89648(15) 0.62075(14) 0.93909(9)
H1_7 H 0.895088 0.619869 0.913383
C3_7 C 0.91911(15) 0.65857(13) 0.95634(9)
O9_7 O 0.85383(14) 0.54148(12) 0.90649(8)
O13_7 O 0.81733(12) 0.51807(11) 0.95771(8)
C11_7 C 0.94051(15) 0.69943(13) 0.93530(9)
O15_7 O 0.83885(14) 0.48360(12) 0.80321(8)
C16_7 C 0.84708(16) 0.54450(14) 0.93975(10)
C17_7 C 0.87556(15) 0.58371(13) 0.95923(9)
C27_7 C 0.87897(16) 0.58353(14) 0.99683(10)
C30_7 C 0.92234(16) 0.65940(13) 0.99409(10)
O18_7 O 0.95405(10) 0.73779(9) 0.95213(7)
O19_7 O 0.84416(13) 0.75129(13) 0.96768(10)
O20_7 O 0.86709(16) 0.85235(14) 0.99543(10)
O21_7 O 0.90916(13) 0.47223(14) 0.86455(10)
O22_7 O 0.87931(19) 0.56978(17) 0.83389(13)
N2_7 N 0.8347(2) 0.49795(19) 0.74375(12)
H14_7 H 0.815855 0.510237 0.726197
C33_8 C 0.8174(2) 0.5000(2) 0.77635(13)
H15_7 H 0.785078 0.515512 0.779938
C34_7 C 0.9395(2) 0.4601(3) 0.8417(2)
H16_7 H 0.933646 0.470528 0.817603
C36_7 C 0.8183(2) 0.7291(2) 0.98878(19)
N3_7 N 0.7836(2) 0.6978(2) 0.9819(2)
N4_7 N 0.9809(2) 0.4328(3) 0.8480(2)
H20_7 H 0.999664 0.422530 0.829648
C38_7 C 0.8830(3) 0.4767(3) 0.7349(2)
H24_7 H 0.889911 0.450306 0.751665
H25_7 H 0.881789 0.464546 0.710063
H26_7 H 0.910593 0.500538 0.737025
C39_7 C 0.7697(4) 0.6840(4) 0.9458(4)
H27_7 H 0.792396 0.700135 0.928384
H28_7 H 0.773467 0.649374 0.943130
H29_7 H 0.733565 0.692990 0.941059
C40_7 C 0.9956(4) 0.4197(5) 0.8850(4)
H31_7 H 0.983128 0.444141 0.901867
H32_7 H 0.980018 0.388903 0.891205
O27_5 O 0.93606(11) 0.79825(11) 0.87545(7)
O28_5 O 0.89162(12) 0.82399(12) 0.92328(7)
O29_7 O 0.71352(12) 0.46072(11) 0.95913(8)
O30_7 O 0.81216(15) 0.41153(11) 0.93114(8)
O31_7 O 0.79737(11) 0.45218(9) 0.88184(7)
H34_7 H 0.85678 0.874357 0.975623
H35_7 H 0.859606 0.599051 0.840182
H36_7 H 0.880736 0.566275 0.807137
O15_8 O 0.66115(14) 0.01640(12) 0.80321(8)
O21_8 O 0.59084(13) 0.02777(14) 0.86455(10)
N2_8 N 0.6653(2) 0.00205(19) 0.74375(12)
C33_9 C 0.6826(2) 0.0000(2) 0.77635(13)
C34_8 C 0.5605(2) 0.0399(3) 0.8417(2)
H16_8 H 0.566354 0.029472 0.817603
N4_8 N 0.5191(2) 0.0672(3) 0.8480(2)
H20_8 H 0.500336 0.077470 0.829648
C38_8 C 0.6170(3) 0.0233(3) 0.7349(2)
H24_8 H 0.610089 0.049694 0.751665
H25_8 H 0.618211 0.035454 0.710063
C40_8 C 0.5044(4) 0.0803(5) 0.8850(4)
H30_8 H 0.466582 0.082651 0.886679
H31_8 H 0.516872 0.055859 0.901867
H32_8 H 0.519982 0.111097 0.891205
Co10_5 Co 0.34211(2) 0.00979(2) 0.85663(2)
O30_8 O 0.68784(15) 0.08847(11) 0.93114(8)
O31_8 O 0.70263(11) 0.04782(9) 0.88184(7)
C4_8 C 0.62202(16) 0.90329(14) 0.07807(9)
H3_8 H 0.647930 0.923558 0.068188
C6_8 C 0.65040(14) 0.92804(13) 0.14007(9)
O12_8 O 0.58572(15) 0.72992(13) 0.02748(8)
C13_8 C 0.55230(16) 0.84870(14) 0.07008(10)
H6_8 H 0.528791 0.832314 0.054664
C15_8 C 0.58014(15) 0.86890(14) 0.13013(10)
H7_8 H 0.577262 0.865319 0.155647
C20_8 C 0.51078(14) 0.80703(13) 0.12154(9)
C21_8 C 0.54800(15) 0.84324(13) 0.10719(9)
C25_8 C 0.58983(16) 0.87731(15) 0.05499(9)
C26_8 C 0.61640(15) 0.89971(14) 0.11560(9)
H11_8 H 0.635276 0.942235 0.010253
H12_8 H 0.562447 0.813915 0.005849
C31_8 C 0.59668(16) 0.87882(14) 0.01493(9)
N1_8 N 0.5845(2) 0.7169(2) 0.08703(12)
H13_8 H 0.567839 0.704065 0.105386
C35_8 C 0.5655(2) 0.7121(2) 0.05476(13)
H17_8 H 0.534646 0.694045 0.051869
H18_8 H 0.675590 0.764475 0.013687
H19_8 H 0.732417 0.815966 0.000178
C37_8 C 0.6328(3) 0.7429(3) 0.0942(2)
H21_8 H 0.630851 0.774632 0.083126
H22_8 H 0.637644 0.746183 0.120411
H23_8 H 0.662070 0.725326 0.083839
H33_8 H 0.664428 0.659866 0.00778469
Co3_5 Co 0.65789(2) 0.99021(2) 0.85663(2)
O2_5 O 0.22638(11) 0.91604(11) 0.72931(7)
O3_8 O 0.55245(13) 0.80413(10) 0.90251(7)
C1_8 C 0.60352(15) 0.87925(14) 0.93909(9)
H1_8 H 0.604912 0.880131 0.913383
C2_8 C 0.33223(15) 0.87660(14) 0.83802(9)
H2_8 H 0.311706 0.900709 0.827010
O4_8 O 0.42732(15) 0.81759(16) 0.66009(9)
O6_8 O 0.43882(13) 0.77505(12) 0.92060(7)
O7_5 O 0.26989(11) 0.92152(10) 0.67722(7)
C3_8 C 0.58089(15) 0.84143(13) 0.95634(9)
O8_8 O 0.45893(12) 0.74888(12) 0.86648(8)
O9_8 O 0.64617(14) 0.95852(12) 0.90649(8)
C5_8 C 0.36896(16) 0.84160(14) 0.89178(10)
H4_8 H 0.372448 0.840700 0.917396
C7_8 C 0.43188(16) 0.77485(15) 0.88722(10)
C8_8 C 0.35511(15) 0.84170(14) 0.81667(9)
C9_8 C 0.39359(15) 0.80807(14) 0.87056(10)
C10_8 C 0.42758(17) 0.81158(16) 0.69277(11)
O13_8 O 0.68267(12) 0.98193(11) 0.95771(8)
C11_8 C 0.55949(15) 0.80057(13) 0.93530(9)
C12_8 C 0.30762(15) 0.86713(14) 0.76051(9)
H5_8 H 0.279808 0.877929 0.775252
C14_8 C 0.30562(14) 0.87492(13) 0.72351(10)
O16_8 O 0.31216(15) 0.91153(11) 0.93114(8)
C16_8 C 0.65292(16) 0.95550(14) 0.93975(10)
C17_8 C 0.62444(15) 0.91629(13) 0.95923(9)
C18_8 C 0.26316(14) 0.90609(13) 0.70884(9)
C19_8 C 0.34456(15) 0.85687(14) 0.70144(9)
H8_8 H 0.343178 0.861791 0.675990
C22_8 C 0.38608(16) 0.80786(15) 0.83333(10)
H9_8 H 0.402484 0.784076 0.819029
C23_8 C 0.38822(15) 0.82623(15) 0.75405(10)
H10_8 H 0.417156 0.810178 0.764293
C24_8 C 0.38527(15) 0.83179(15) 0.71646(9)
C27_8 C 0.62103(16) 0.91647(14) 0.99683(10)
C28_8 C 0.33912(15) 0.87658(14) 0.87549(9)
C29_8 C 0.34951(15) 0.84377(14) 0.77677(9)
C30_8 C 0.57766(16) 0.84060(13) 0.99409(10)
O17_8 O 0.29737(11) 0.95218(9) 0.88184(7)
O18_8 O 0.54595(10) 0.76221(9) 0.95213(7)
O19_8 O 0.65584(13) 0.74871(13) 0.96768(10)
O20_8 O 0.63291(16) 0.64765(14) 0.99543(10)
O22_8 O 0.62069(19) 0.93022(17) 0.83389(13)
C32_8 C 0.31535(15) 0.91499(14) 0.89789(10)
H14_8 H 0.684145 0.989763 0.726197
C33_10 C 0.6826(2) 1.0000(2) 0.77635(13)
H15_8 H 0.714922 0.984488 0.779938
C36_8 C 0.6817(2) 0.7709(2) 0.98878(19)
N3_8 N 0.7164(2) 0.8022(2) 0.9819(2)
H26_8 H 0.589407 0.999462 0.737025
C39_8 C 0.7303(4) 0.8160(4) 0.9458(4)
H27_8 H 0.707604 0.799865 0.928384
H28_8 H 0.726533 0.850626 0.943130
H29_8 H 0.766435 0.807010 0.941059
Co5_5 Co 0.23924(2) 0.98159(2) 0.65697(2)
Co12_5 Co 0.15904(2) 0.95497(2) 0.72372(2)
O23_5 O 0.76742(11) 0.95732(10) 0.90324(7)
O24_7 O 0.52362(11) 0.66604(11) 0.97931(7)
O25_5 O 0.72654(12) 0.95696(11) 0.84994(7)
O26_7 O 0.48011(11) 0.67152(10) 0.92722(7)
H34_8 H 0.64322 0.625643 0.975623
H35_8 H 0.640394 0.900949 0.840182
H36_8 H 0.619264 0.933725 0.807137
H29_9 H 0.016435 0.942990 0.691059
O23_6 O 0.01742(11) 0.79268(10) 0.65324(7)
O8_9 O 0.70893(12) 0.00112(12) 0.61648(8)
O12_9 O 0.83572(15) 0.02008(13) 0.77748(8)
O19_9 O 0.90584(13) 0.00129(13) 0.71768(10)
O20_9 O 0.88291(16) 0.10235(14) 0.74543(10)
N1_9 N 0.8345(2) 0.0331(2) 0.83703(12)
H13_9 H 0.817839 0.045935 0.855386
C35_9 C 0.8155(2) 0.0379(2) 0.80476(13)
H17_9 H 0.784646 0.055955 0.801869
C37_9 C 0.8828(3) 0.0071(3) 0.8442(2)
H22_9 H 0.887644 0.003817 0.870411
H23_9 H 0.912070 0.024674 0.833839
O24_8 O 0.77362(11) 0.08396(11) 0.72931(7)
O26_8 O 0.73011(11) 0.07848(10) 0.67722(7)
H33_9 H 0.914428 0.0901336 0.757785
H34_9 H 0.89322 0.124357 0.725623
O2_6 O 0.47638(11) 0.83396(11) 0.47931(7)
O3_9 O 0.80245(13) 0.94587(10) 0.65251(7)
C1_9 C 0.85352(15) 0.87075(14) 0.68909(9)
H1_9 H 0.854912 0.869869 0.663383
C2_9 C 0.58223(15) 0.87340(14) 0.58802(9)
H2_9 H 0.561706 0.849291 0.577010
O4_9 O 0.67732(15) 0.93241(16) 0.41009(9)
O6_9 O 0.68882(13) 0.97495(12) 0.67060(7)
O7_6 O 0.51989(11) 0.82848(10) 0.42722(7)
C3_9 C 0.83089(15) 0.90857(13) 0.70634(9)
O9_9 O 0.89617(14) 0.79148(12) 0.65649(8)
C4_9 C 0.87202(16) 0.84671(14) 0.82807(9)
H3_9 H 0.897930 0.826442 0.818188
C5_9 C 0.61896(16) 0.90840(14) 0.64178(10)
H4_9 H 0.622448 0.909300 0.667396
C6_9 C 0.90040(14) 0.82196(13) 0.89007(9)
C7_9 C 0.68188(16) 0.97515(15) 0.63722(10)
C8_9 C 0.60511(15) 0.90830(14) 0.56667(9)
C9_9 C 0.64359(15) 0.94193(14) 0.62056(10)
C10_9 C 0.67758(17) 0.93842(16) 0.44277(11)
O13_9 O 0.93267(12) 0.76807(11) 0.70771(8)
C11_9 C 0.80949(15) 0.94943(13) 0.68530(9)
C12_9 C 0.55762(15) 0.88287(14) 0.51051(9)
H5_9 H 0.529808 0.872071 0.525252
C13_9 C 0.80230(16) 0.90130(14) 0.82008(10)
H6_9 H 0.778791 0.917686 0.804664
C14_9 C 0.55562(14) 0.87508(13) 0.47351(10)
O15_9 O 0.91115(14) 0.73360(12) 0.55321(8)
C15_9 C 0.83014(15) 0.88110(14) 0.88013(10)
H7_9 H 0.827262 0.884681 0.905647
C16_9 C 0.90292(16) 0.79450(14) 0.68975(10)
C17_9 C 0.87444(15) 0.83371(13) 0.70923(9)
C18_9 C 0.51316(14) 0.84391(13) 0.45884(9)
C19_9 C 0.59456(15) 0.89313(14) 0.45144(9)
H8_9 H 0.593178 0.888209 0.425990
C20_9 C 0.76078(14) 0.94297(13) 0.87154(9)
C21_9 C 0.79800(15) 0.90676(13) 0.85719(9)
C22_9 C 0.63608(16) 0.94214(15) 0.58333(10)
H9_9 H 0.652484 0.965924 0.569029
C23_9 C 0.63822(15) 0.92377(15) 0.50405(10)
H10_9 H 0.667156 0.939822 0.514293
C24_9 C 0.63527(15) 0.91821(15) 0.46646(9)
C25_9 C 0.83983(16) 0.87269(15) 0.80499(9)
C26_9 C 0.86640(15) 0.85029(14) 0.86560(9)
C27_9 C 0.87103(16) 0.83353(14) 0.74683(10)
H11_9 H 0.885276 0.807765 0.760253
C28_9 C 0.58912(15) 0.87342(14) 0.62549(9)
C29_9 C 0.59951(15) 0.90623(14) 0.52677(9)
C30_9 C 0.82766(16) 0.90940(13) 0.74409(10)
H12_9 H 0.812447 0.936085 0.755849
O18_9 O 0.79595(10) 0.98779(9) 0.70213(7)
O21_9 O 0.84084(13) 0.72223(14) 0.61455(10)
O22_9 O 0.87069(19) 0.81978(17) 0.58389(13)
C31_9 C 0.84668(16) 0.87118(14) 0.76493(9)
C32_9 C 0.56535(15) 0.83501(14) 0.64789(10)
N2_9 N 0.9153(2) 0.74795(19) 0.49375(12)
H14_9 H 0.934145 0.760237 0.476197
C33_11 C 0.9326(2) 0.7500(2) 0.52635(13)
H15_9 H 0.964922 0.765512 0.529938
C34_9 C 0.8105(2) 0.7101(3) 0.5917(2)
H16_9 H 0.816354 0.720528 0.567603
C36_9 C 0.9317(2) 0.9791(2) 0.73878(19)
H18_9 H 0.925590 0.985525 0.763687
N3_9 N 0.9664(2) 0.9478(2) 0.7319(2)
H19_9 H 0.982417 0.934034 0.750178
N4_9 N 0.7691(2) 0.6828(3) 0.5980(2)
H20_9 H 0.750336 0.672530 0.579648
H21_9 H 0.880851 0.975368 0.833126
C38_9 C 0.8670(3) 0.7267(3) 0.4849(2)
H24_9 H 0.860089 0.700306 0.501665
H25_9 H 0.868211 0.714546 0.460063
H26_9 H 0.839407 0.750538 0.487025
C39_9 C 0.9803(4) 0.9340(4) 0.6958(4)
H27_9 H 0.957604 0.950135 0.678384
H28_9 H 0.976533 0.899374 0.693130
C40_9 C 0.7544(4) 0.6697(5) 0.6350(4)
H30_9 H 0.716582 0.667349 0.636679
H31_9 H 0.766872 0.694141 0.651867
H32_9 H 0.769982 0.638903 0.641205
O25_6 O 0.97654(12) 0.79304(11) 0.59994(7)
H35_9 H 0.890394 0.849051 0.590182
H36_9 H 0.869264 0.816275 0.557137
O1_8 O 0.23258(11) 0.04268(10) 0.90324(7)
O3_10 O 0.19755(13) 0.05413(10) 0.65251(7)
C1_10 C 0.14648(15) 0.12925(14) 0.68909(9)
H1_10 H 0.145088 0.130131 0.663383
C2_10 C 0.41777(15) 0.12660(14) 0.58802(9)
H2_10 H 0.438294 0.150709 0.577010
O4_10 O 0.32268(15) 0.06759(16) 0.41009(9)
O5_8 O 0.27346(12) 0.04304(11) 0.84994(7)
O6_10 O 0.31118(13) 0.02505(12) 0.67060(7)
C3_10 C 0.16911(15) 0.09143(13) 0.70634(9)
O9_10 O 0.10383(14) 0.20852(12) 0.65649(8)
O10_8 O 0.06394(11) 0.20175(11) 0.87545(7)
O11_8 O 0.10838(12) 0.17601(12) 0.92328(7)
C4_10 C 0.12798(16) 0.15329(14) 0.82807(9)
H3_10 H 0.102070 0.173558 0.818188
C5_10 C 0.38104(16) 0.09160(14) 0.64178(10)
H4_10 H 0.377552 0.090700 0.667396
C6_10 C 0.09960(14) 0.17804(13) 0.89007(9)
C7_10 C 0.31812(16) 0.02485(15) 0.63722(10)
C8_10 C 0.39489(15) 0.09170(14) 0.56667(9)
C9_10 C 0.35641(15) 0.05807(14) 0.62056(10)
C10_10 C 0.32242(17) 0.06158(16) 0.44277(11)
O13_10 O 0.06733(12) 0.23193(11) 0.70771(8)
C11_10 C 0.19051(15) 0.05057(13) 0.68530(9)
C12_10 C 0.44238(15) 0.11713(14) 0.51051(9)
H5_10 H 0.470192 0.127929 0.525252
C13_10 C 0.19770(16) 0.09870(14) 0.82008(10)
H6_10 H 0.221209 0.082314 0.804664
O14_6 O 0.28648(12) 0.03928(11) 0.45913(8)
C14_10 C 0.44438(14) 0.12492(13) 0.47351(10)
O15_10 O 0.08885(14) 0.26640(12) 0.55321(8)
C15_10 C 0.16986(15) 0.11890(14) 0.88013(10)
H7_10 H 0.172738 0.115319 0.905647
C16_10 C 0.09708(16) 0.20550(14) 0.68975(10)
C17_10 C 0.12556(15) 0.16629(13) 0.70923(9)
C18_10 C 0.48684(14) 0.15609(13) 0.45884(9)
C19_10 C 0.40544(15) 0.10687(14) 0.45144(9)
H8_10 H 0.406822 0.111791 0.425990
C20_10 C 0.23922(14) 0.05703(13) 0.87154(9)
C21_10 C 0.20200(15) 0.09324(13) 0.85719(9)
C22_10 C 0.36392(16) 0.05786(15) 0.58333(10)
H9_10 H 0.347516 0.034076 0.569029
C23_10 C 0.36178(15) 0.07623(15) 0.50405(10)
H10_10 H 0.332844 0.060178 0.514293
C24_10 C 0.36473(15) 0.08179(15) 0.46646(9)
C25_10 C 0.16017(16) 0.12731(15) 0.80499(9)
C26_10 C 0.13360(15) 0.14971(14) 0.86560(9)
C27_10 C 0.12897(16) 0.16647(14) 0.74683(10)
H11_10 H 0.114724 0.192235 0.760253
C28_10 C 0.41088(15) 0.12658(14) 0.62549(9)
C29_10 C 0.40049(15) 0.09377(14) 0.52677(9)
C30_10 C 0.17234(16) 0.09060(13) 0.74409(10)
H12_10 H 0.187553 0.063915 0.755849
O18_10 O 0.20405(10) 0.01221(9) 0.70213(7)
O21_10 O 0.15916(13) 0.27777(14) 0.61455(10)
O22_10 O 0.12931(19) 0.18022(17) 0.58389(13)
C31_10 C 0.15332(16) 0.12882(14) 0.76493(9)
C32_10 C 0.43465(15) 0.16499(14) 0.64789(10)
N2_10 N 0.0847(2) 0.25205(19) 0.49375(12)
H14_10 H 0.065855 0.239763 0.476197
C33_12 C 0.0674(2) 0.2500(2) 0.52635(13)
H15_10 H 0.035078 0.234488 0.529938
C34_10 C 0.1895(2) 0.2899(3) 0.5917(2)
H16_10 H 0.183646 0.279472 0.567603
C36_10 C 0.0683(2) 0.0209(2) 0.73878(19)
H18_10 H 0.074410 0.014475 0.763687
N3_10 N 0.0336(2) 0.0522(2) 0.7319(2)
H19_10 H 0.017583 0.065966 0.750178
N4_10 N 0.2309(2) 0.3172(3) 0.5980(2)
H20_10 H 0.249664 0.327470 0.579648
H21_10 H 0.119149 0.024632 0.833126
C38_10 C 0.1330(3) 0.2733(3) 0.4849(2)
H24_10 H 0.139911 0.299694 0.501665
H25_10 H 0.131789 0.285454 0.460063
H26_10 H 0.160593 0.249462 0.487025
C39_10 C 0.0197(4) 0.0660(4) 0.6958(4)
H27_10 H 0.042396 0.049865 0.678384
H28_10 H 0.023467 0.100626 0.693130
C40_10 C 0.2456(4) 0.3303(5) 0.6350(4)
H30_10 H 0.283418 0.332651 0.636679
H31_10 H 0.233128 0.305859 0.651867
H32_10 H 0.230018 0.361097 0.641205
H35_10 H 0.109606 0.150949 0.590182
H36_10 H 0.130736 0.183725 0.557137
O8_10 O 0.29107(12) 0.99888(12) 0.61648(8)
O12_10 O 0.16428(15) 0.97992(13) 0.77748(8)
O19_10 O 0.09416(13) 0.99871(13) 0.71768(10)
O20_10 O 0.11709(16) 0.89765(14) 0.74543(10)
N1_10 N 0.1655(2) 0.9669(2) 0.83703(12)
H13_10 H 0.182161 0.954065 0.855386
C35_10 C 0.1845(2) 0.9621(2) 0.80476(13)
H17_10 H 0.215354 0.944045 0.801869
C37_10 C 0.1172(3) 0.9929(3) 0.8442(2)
H22_10 H 0.112356 0.996183 0.870411
H23_10 H 0.087930 0.975326 0.833839
O27_6 O 0.18606(11) 0.95175(11) 0.62545(7)
O28_6 O 0.14162(12) 0.92601(12) 0.67328(7)
H33_10 H 0.0855718 0.909866 0.757785
H34_10 H 0.10678 0.875643 0.725623
H29_10 H 0.983565 0.057010 0.691059
O29_8 O 0.96352(12) 0.28928(11) 0.70913(8)
C4_11 C 0.37798(16) 0.09671(14) 0.07807(9)
H3_11 H 0.352070 0.076442 0.068188
C6_11 C 0.34960(14) 0.07196(13) 0.14007(9)
O12_11 O 0.41428(15) 0.27008(13) 0.02748(8)
C13_11 C 0.44770(16) 0.15130(14) 0.07008(10)
H6_11 H 0.471209 0.167686 0.054664
C15_11 C 0.41986(15) 0.13110(14) 0.13013(10)
H7_11 H 0.422738 0.134681 0.155647
C20_11 C 0.48922(14) 0.19297(13) 0.12154(9)
C21_11 C 0.45200(15) 0.15676(13) 0.10719(9)
C25_11 C 0.41017(16) 0.12269(15) 0.05499(9)
C26_11 C 0.38360(15) 0.10029(14) 0.11560(9)
H11_11 H 0.364724 0.057765 0.010253
H12_11 H 0.437553 0.186085 0.005849
C31_11 C 0.40332(16) 0.12118(14) 0.01493(9)
N1_11 N 0.4155(2) 0.2831(2) 0.08703(12)
H13_11 H 0.432161 0.295935 0.105386
C35_11 C 0.4345(2) 0.2879(2) 0.05476(13)
H17_11 H 0.465354 0.305955 0.051869
H18_11 H 0.324410 0.235525 0.013687
H19_11 H 0.267583 0.184034 0.000178
C37_11 C 0.3672(3) 0.2571(3) 0.0942(2)
H21_11 H 0.369149 0.225368 0.083126
H22_11 H 0.362356 0.253817 0.120411
H23_11 H 0.337930 0.274674 0.083839
H33_11 H 0.335572 0.340134 0.00778469
O3_11 O 0.44755(13) 0.19587(10) 0.90251(7)
C1_11 C 0.39648(15) 0.12075(14) 0.93909(9)
H1_11 H 0.395088 0.119869 0.913383
C2_11 C 0.66777(15) 0.12340(14) 0.83802(9)
H2_11 H 0.688294 0.099291 0.827010
O4_11 O 0.57268(15) 0.18241(16) 0.66009(9)
O6_11 O 0.56118(13) 0.22495(12) 0.92060(7)
C3_11 C 0.41911(15) 0.15857(13) 0.95634(9)
O8_11 O 0.54107(12) 0.25112(12) 0.86648(8)
O9_11 O 0.35383(14) 0.04148(12) 0.90649(8)
C5_11 C 0.63104(16) 0.15840(14) 0.89178(10)
H4_11 H 0.627552 0.159300 0.917396
C7_11 C 0.56812(16) 0.22515(15) 0.88722(10)
C8_11 C 0.64489(15) 0.15830(14) 0.81667(9)
C9_11 C 0.60641(15) 0.19193(14) 0.87056(10)
C10_11 C 0.57242(17) 0.18842(16) 0.69277(11)
O13_11 O 0.31733(12) 0.01807(11) 0.95771(8)
C11_11 C 0.44051(15) 0.19943(13) 0.93530(9)
C12_11 C 0.69238(15) 0.13287(14) 0.76051(9)
H5_11 H 0.720192 0.122071 0.775252
C14_11 C 0.69438(14) 0.12508(13) 0.72351(10)
C16_11 C 0.34708(16) 0.04450(14) 0.93975(10)
C17_11 C 0.37556(15) 0.08371(13) 0.95923(9)
C18_11 C 0.73684(14) 0.09391(13) 0.70884(9)
C19_11 C 0.65544(15) 0.14313(14) 0.70144(9)
H8_11 H 0.656822 0.138209 0.675990
C22_11 C 0.61392(16) 0.19214(15) 0.83333(10)
H9_11 H 0.597516 0.215924 0.819029
C23_11 C 0.61178(15) 0.17377(15) 0.75405(10)
H10_11 H 0.582844 0.189822 0.764293
C24_11 C 0.61473(15) 0.16821(15) 0.71646(9)
C27_11 C 0.37897(16) 0.08353(14) 0.99683(10)
C28_11 C 0.66088(15) 0.12342(14) 0.87549(9)
C29_11 C 0.65049(15) 0.15623(14) 0.77677(9)
C30_11 C 0.42234(16) 0.15940(13) 0.99409(10)
O18_11 O 0.45405(10) 0.23779(9) 0.95213(7)
O19_11 O 0.34416(13) 0.25129(13) 0.96768(10)
O20_11 O 0.36709(16) 0.35235(14) 0.99543(10)
O22_11 O 0.37931(19) 0.06978(17) 0.83389(13)
C32_11 C 0.68465(15) 0.08501(14) 0.89789(10)
H14_11 H 0.315855 0.010237 0.726197
C33_13 C 0.3174(2) -0.0000(2) 0.77635(13)
H15_11 H 0.285078 0.015512 0.779938
C36_11 C 0.3183(2) 0.2291(2) 0.98878(19)
N3_11 N 0.2836(2) 0.1978(2) 0.9819(2)
H26_11 H 0.410593 0.000538 0.737025
C39_11 C 0.2697(4) 0.1840(4) 0.9458(4)
H27_11 H 0.292396 0.200135 0.928384
H28_11 H 0.273467 0.149374 0.943130
H29_11 H 0.233565 0.192990 0.941059
O24_9 O 0.47638(11) 0.33396(11) 0.97931(7)
O26_9 O 0.51989(11) 0.32848(10) 0.92722(7)
H34_11 H 0.35678 0.374357 0.975623
H35_11 H 0.359606 0.099051 0.840182
H36_11 H 0.380736 0.0662749 0.807137
O15_11 O 0.33885(14) 0.98360(12) 0.80321(8)
O21_11 O 0.40916(13) 0.97223(14) 0.86455(10)
N2_11 N 0.3347(2) 0.99795(19) 0.74375(12)
C33_14 C 0.3174(2) 1.0000(2) 0.77635(13)
C34_11 C 0.4395(2) 0.9601(3) 0.8417(2)
H16_11 H 0.433646 0.970528 0.817603
N4_11 N 0.4809(2) 0.9328(3) 0.8480(2)
H20_11 H 0.499664 0.922530 0.829648
C38_11 C 0.3830(3) 0.9767(3) 0.7349(2)
H24_11 H 0.389911 0.950306 0.751665
H25_11 H 0.381789 0.964546 0.710063
C40_11 C 0.4956(4) 0.9197(5) 0.8850(4)
H30_11 H 0.533418 0.917349 0.886679
H31_11 H 0.483128 0.944141 0.901867
H32_11 H 0.480018 0.888903 0.891205
O1_9 O 0.01742(11) 0.29268(10) 0.15324(7)
O10_9 O 0.18606(11) 0.45175(11) 0.12545(7)
O11_9 O 0.14162(12) 0.42601(12) 0.17328(7)
C4_12 C 0.12202(16) 0.40329(14) 0.07807(9)
H3_12 H 0.147930 0.423558 0.068188
C6_12 C 0.15040(14) 0.42804(13) 0.14007(9)
O12_12 O 0.08572(15) 0.22992(13) 0.02748(8)
C13_12 C 0.05230(16) 0.34870(14) 0.07008(10)
H6_12 H 0.028791 0.332314 0.054664
C15_12 C 0.08014(15) 0.36890(14) 0.13013(10)
H7_12 H 0.077262 0.365319 0.155647
C20_12 C 0.01078(14) 0.30703(13) 0.12154(9)
C21_12 C 0.04800(15) 0.34324(13) 0.10719(9)
C25_12 C 0.08983(16) 0.37731(15) 0.05499(9)
C26_12 C 0.11640(15) 0.39971(14) 0.11560(9)
H11_12 H 0.135276 0.442235 0.010253
H12_12 H 0.062447 0.313915 0.005849
C31_12 C 0.09668(16) 0.37882(14) 0.01493(9)
N1_12 N 0.0845(2) 0.2169(2) 0.08703(12)
H13_12 H 0.067839 0.204065 0.105386
C35_12 C 0.0655(2) 0.2121(2) 0.05476(13)
H17_12 H 0.034646 0.194045 0.051869
H18_12 H 0.175590 0.264475 0.013687
H19_12 H 0.232417 0.315966 0.000178
C37_12 C 0.1328(3) 0.2429(3) 0.0942(2)
H21_12 H 0.130851 0.274632 0.083126
H22_12 H 0.137644 0.246183 0.120411
H23_12 H 0.162070 0.225326 0.083839
H33_12 H 0.164428 0.159866 0.00778469
O3_12 O 0.05245(13) 0.30413(10) 0.90251(7)
C1_12 C 0.10352(15) 0.37925(14) 0.93909(9)
H1_12 H 0.104912 0.380131 0.913383
C3_12 C 0.08089(15) 0.34143(13) 0.95634(9)
O9_12 O 0.14617(14) 0.45852(12) 0.90649(8)
O13_12 O 0.18267(12) 0.48193(11) 0.95771(8)
C11_12 C 0.05949(15) 0.30057(13) 0.93530(9)
O15_12 O 0.16115(14) 0.51640(12) 0.80321(8)
C16_12 C 0.15292(16) 0.45550(14) 0.93975(10)
C17_12 C 0.12444(15) 0.41629(13) 0.95923(9)
C27_12 C 0.12103(16) 0.41647(14) 0.99683(10)
C30_12 C 0.07766(16) 0.34060(13) 0.99409(10)
O18_12 O 0.04595(10) 0.26221(9) 0.95213(7)
O19_12 O 0.15584(13) 0.24871(13) 0.96768(10)
O20_12 O 0.13291(16) 0.14765(14) 0.99543(10)
O21_12 O 0.09084(13) 0.52777(14) 0.86455(10)
O22_12 O 0.12069(19) 0.43022(17) 0.83389(13)
N2_12 N 0.1653(2) 0.50205(19) 0.74375(12)
H14_12 H 0.184145 0.489763 0.726197
C33_15 C 0.1826(2) 0.5000(2) 0.77635(13)
H15_12 H 0.214922 0.484488 0.779938
C34_12 C 0.0605(2) 0.5399(3) 0.8417(2)
H16_12 H 0.066354 0.529472 0.817603
C36_12 C 0.1817(2) 0.2709(2) 0.98878(19)
N3_12 N 0.2164(2) 0.3022(2) 0.9819(2)
N4_12 N 0.0191(2) 0.5672(3) 0.8480(2)
H20_12 H 0.000336 0.577470 0.829648
C38_12 C 0.1170(3) 0.5233(3) 0.7349(2)
H24_12 H 0.110089 0.549694 0.751665
H25_12 H 0.118211 0.535454 0.710063
H26_12 H 0.089407 0.499462 0.737025
C39_12 C 0.2303(4) 0.3160(4) 0.9458(4)
H27_12 H 0.207604 0.299865 0.928384
H28_12 H 0.226533 0.350626 0.943130
H29_12 H 0.266435 0.307010 0.941059
C40_12 C 0.0044(4) 0.5803(5) 0.8850(4)
H31_12 H 0.016872 0.555859 0.901867
H32_12 H 0.019982 0.611097 0.891205
O29_9 O 0.28648(12) 0.53928(11) 0.95913(8)
H34_12 H 0.14322 0.125643 0.975623
H35_12 H 0.140394 0.400949 0.840182
H36_12 H 0.119264 0.433725 0.807137
O5_9 O 0.97654(12) 0.29304(11) 0.09994(7)
C2_12 C 0.83223(15) 0.37660(14) 0.83802(9)
H2_12 H 0.811706 0.400709 0.827010
O4_12 O 0.92732(15) 0.31759(16) 0.66009(9)
O6_12 O 0.93882(13) 0.27505(12) 0.92060(7)
O8_12 O 0.95893(12) 0.24888(12) 0.86648(8)
C5_12 C 0.86896(16) 0.34160(14) 0.89178(10)
H4_12 H 0.872448 0.340700 0.917396
C7_12 C 0.93188(16) 0.27485(15) 0.88722(10)
C8_12 C 0.85511(15) 0.34170(14) 0.81667(9)
C9_12 C 0.89359(15) 0.30807(14) 0.87056(10)
C10_12 C 0.92758(17) 0.31158(16) 0.69277(11)
C12_12 C 0.80762(15) 0.36713(14) 0.76051(9)
H5_12 H 0.779808 0.377929 0.775252
C14_12 C 0.80562(14) 0.37492(13) 0.72351(10)
C18_12 C 0.76316(14) 0.40609(13) 0.70884(9)
C19_12 C 0.84456(15) 0.35687(14) 0.70144(9)
H8_12 H 0.843178 0.361791 0.675990
C22_12 C 0.88608(16) 0.30786(15) 0.83333(10)
H9_12 H 0.902484 0.284076 0.819029
C23_12 C 0.88822(15) 0.32623(15) 0.75405(10)
H10_12 H 0.917156 0.310178 0.764293
C24_12 C 0.88527(15) 0.33179(15) 0.71646(9)
C28_12 C 0.83912(15) 0.37658(14) 0.87549(9)
C29_12 C 0.84951(15) 0.34377(14) 0.77677(9)
C32_12 C 0.81535(15) 0.41499(14) 0.89789(10)
H30_12 H 0.966582 0.582651 0.886679
H29_13 H 0.016435 0.442990 0.191059
O3_13 O 0.80245(13) 0.44587(10) 0.15251(7)
C1_13 C 0.85352(15) 0.37075(14) 0.18909(9)
H1_13 H 0.854912 0.369869 0.163383
C2_13 C 0.58223(15) 0.37340(14) 0.08802(9)
H2_13 H 0.561706 0.349291 0.077010
O6_13 O 0.68882(13) 0.47495(12) 0.17060(7)
C3_13 C 0.83089(15) 0.40857(13) 0.20634(9)
O8_13 O 0.70893(12) 0.50112(12) 0.11648(8)
O9_13 O 0.89617(14) 0.29148(12) 0.15649(8)
C4_13 C 0.87202(16) 0.34671(14) 0.32807(9)
H3_13 H 0.897930 0.326442 0.318188
C5_13 C 0.61896(16) 0.40840(14) 0.14178(10)
H4_13 H 0.622448 0.409300 0.167396
C6_13 C 0.90040(14) 0.32196(13) 0.39007(9)
C7_13 C 0.68188(16) 0.47515(15) 0.13722(10)
O12_13 O 0.83572(15) 0.52008(13) 0.27748(8)
C8_13 C 0.60511(15) 0.40830(14) 0.06667(9)
C9_13 C 0.64359(15) 0.44193(14) 0.12056(10)
O13_13 O 0.93267(12) 0.26807(11) 0.20771(8)
C11_13 C 0.80949(15) 0.44943(13) 0.18530(9)
C12_13 C 0.55762(15) 0.38287(14) 0.01051(9)
H5_13 H 0.529808 0.372071 0.025252
C13_13 C 0.80230(16) 0.40130(14) 0.32008(10)
H6_13 H 0.778791 0.417686 0.304664
O15_13 O 0.91115(14) 0.23360(12) 0.05321(8)
C15_13 C 0.83014(15) 0.38110(14) 0.38013(10)
H7_13 H 0.827262 0.384681 0.405647
C16_13 C 0.90292(16) 0.29450(14) 0.18975(10)
C17_13 C 0.87444(15) 0.33371(13) 0.20923(9)
C20_13 C 0.76078(14) 0.44297(13) 0.37154(9)
C21_13 C 0.79800(15) 0.40676(13) 0.35719(9)
C22_13 C 0.63608(16) 0.44214(15) 0.08333(10)
H9_13 H 0.652484 0.465924 0.069029
C23_13 C 0.63822(15) 0.42377(15) 0.00405(10)
H10_13 H 0.667156 0.439822 0.014293
C25_13 C 0.83983(16) 0.37269(15) 0.30499(9)
C26_13 C 0.86640(15) 0.35029(14) 0.36560(9)
C27_13 C 0.87103(16) 0.33353(14) 0.24683(10)
H11_13 H 0.885276 0.307765 0.260253
C28_13 C 0.58912(15) 0.37342(14) 0.12549(9)
C29_13 C 0.59951(15) 0.40623(14) 0.02677(9)
C30_13 C 0.82766(16) 0.40940(13) 0.24409(10)
H12_13 H 0.812447 0.436085 0.255849
O18_13 O 0.79595(10) 0.48779(9) 0.20213(7)
O19_13 O 0.90584(13) 0.50129(13) 0.21768(10)
O20_13 O 0.88291(16) 0.60235(14) 0.24543(10)
O21_13 O 0.84084(13) 0.22223(14) 0.11455(10)
O22_13 O 0.87069(19) 0.31978(17) 0.08389(13)
C31_13 C 0.84668(16) 0.37118(14) 0.26493(9)
C32_13 C 0.56535(15) 0.33501(14) 0.14789(10)
N1_13 N 0.8345(2) 0.5331(2) 0.33703(12)
H13_13 H 0.817839 0.545935 0.355386
C33_16 C 0.9326(2) 0.2500(2) 0.02635(13)
H15_13 H 0.964922 0.265512 0.029938
C34_13 C 0.8105(2) 0.2101(3) 0.0917(2)
H16_13 H 0.816354 0.220528 0.067603
C35_13 C 0.8155(2) 0.5379(2) 0.30476(13)
H17_13 H 0.784646 0.555955 0.301869
C36_13 C 0.9317(2) 0.4791(2) 0.23878(19)
H18_13 H 0.925590 0.485525 0.263687
N3_13 N 0.9664(2) 0.4478(2) 0.2319(2)
H19_13 H 0.982417 0.434034 0.250178
N4_13 N 0.7691(2) 0.1828(3) 0.0980(2)
H20_13 H 0.750336 0.172530 0.079648
C37_13 C 0.8828(3) 0.5071(3) 0.3442(2)
H21_13 H 0.880851 0.475368 0.333126
H22_13 H 0.887644 0.503817 0.370411
H23_13 H 0.912070 0.524674 0.333839
H24_13 H 0.860089 0.200306 0.001665
C39_13 C 0.9803(4) 0.4340(4) 0.1958(4)
H27_13 H 0.957604 0.450135 0.178384
H28_13 H 0.976533 0.399374 0.193130
C40_13 C 0.7544(4) 0.1697(5) 0.1350(4)
H30_13 H 0.716582 0.167349 0.136679
H31_13 H 0.766872 0.194141 0.151867
H32_13 H 0.769982 0.138903 0.141205
O24_10 O 0.77362(11) 0.58396(11) 0.22931(7)
O26_10 O 0.73011(11) 0.57848(10) 0.17722(7)
H33_13 H 0.914428 0.590134 0.257785
H34_13 H 0.89322 0.624357 0.225623
H35_13 H 0.890394 0.349051 0.0901815
H36_13 H 0.869264 0.316275 0.0571367
O4_13 O 0.67732(15) 0.43241(16) 0.91009(9)
C10_13 C 0.67758(17) 0.43842(16) 0.94277(11)
C14_13 C 0.55562(14) 0.37508(13) 0.97351(10)
C18_13 C 0.51316(14) 0.34391(13) 0.95884(9)
C19_13 C 0.59456(15) 0.39313(14) 0.95144(9)
H8_13 H 0.593178 0.388209 0.925990
C24_13 C 0.63527(15) 0.41821(15) 0.96646(9)
N2_13 N 0.9153(2) 0.24795(19) 0.99375(12)
H14_13 H 0.934145 0.260237 0.976197
C38_13 C 0.8670(3) 0.2267(3) 0.9849(2)
H25_13 H 0.868211 0.214546 0.960063
H26_13 H 0.839407 0.250538 0.987025
O1_10 O 0.23258(11) 0.54268(10) 0.40324(7)
O3_14 O 0.19755(13) 0.55413(10) 0.15251(7)
C1_14 C 0.14648(15) 0.62925(14) 0.18909(9)
H1_14 H 0.145088 0.630131 0.163383
C2_14 C 0.41777(15) 0.62660(14) 0.08802(9)
H2_14 H 0.438294 0.650709 0.077010
O5_10 O 0.27346(12) 0.54304(11) 0.34994(7)
O6_14 O 0.31118(13) 0.52505(12) 0.17060(7)
C3_14 C 0.16911(15) 0.59143(13) 0.20634(9)
O8_14 O 0.29107(12) 0.49888(12) 0.11648(8)
O9_14 O 0.10383(14) 0.70852(12) 0.15649(8)
O10_10 O 0.06394(11) 0.70175(11) 0.37545(7)
O11_10 O 0.10838(12) 0.67601(12) 0.42328(7)
C4_14 C 0.12798(16) 0.65329(14) 0.32807(9)
H3_14 H 0.102070 0.673558 0.318188
C5_14 C 0.38104(16) 0.59160(14) 0.14178(10)
H4_14 H 0.377552 0.590700 0.167396
C6_14 C 0.09960(14) 0.67804(13) 0.39007(9)
C7_14 C 0.31812(16) 0.52485(15) 0.13722(10)
O12_14 O 0.16428(15) 0.47992(13) 0.27748(8)
C8_14 C 0.39489(15) 0.59170(14) 0.06667(9)
C9_14 C 0.35641(15) 0.55807(14) 0.12056(10)
O13_14 O 0.06733(12) 0.73193(11) 0.20771(8)
C11_14 C 0.19051(15) 0.55057(13) 0.18530(9)
C12_14 C 0.44238(15) 0.61713(14) 0.01051(9)
H5_14 H 0.470192 0.627929 0.025252
C13_14 C 0.19770(16) 0.59870(14) 0.32008(10)
H6_14 H 0.221209 0.582314 0.304664
O15_14 O 0.08885(14) 0.76640(12) 0.05321(8)
C15_14 C 0.16986(15) 0.61890(14) 0.38013(10)
H7_14 H 0.172738 0.615319 0.405647
C16_14 C 0.09708(16) 0.70550(14) 0.18975(10)
C17_14 C 0.12556(15) 0.66629(13) 0.20923(9)
C20_14 C 0.23922(14) 0.55703(13) 0.37154(9)
C21_14 C 0.20200(15) 0.59324(13) 0.35719(9)
C22_14 C 0.36392(16) 0.55786(15) 0.08333(10)
H9_14 H 0.347516 0.534076 0.069029
C23_14 C 0.36178(15) 0.57623(15) 0.00405(10)
H10_14 H 0.332844 0.560178 0.014293
C25_14 C 0.16017(16) 0.62731(15) 0.30499(9)
C26_14 C 0.13360(15) 0.64971(14) 0.36560(9)
C27_14 C 0.12897(16) 0.66647(14) 0.24683(10)
H11_14 H 0.114724 0.692235 0.260253
C28_14 C 0.41088(15) 0.62658(14) 0.12549(9)
C29_14 C 0.40049(15) 0.59377(14) 0.02677(9)
C30_14 C 0.17234(16) 0.59060(13) 0.24409(10)
H12_14 H 0.187553 0.563915 0.255849
O18_14 O 0.20405(10) 0.51221(9) 0.20213(7)
O19_14 O 0.09416(13) 0.49871(13) 0.21768(10)
O20_14 O 0.11709(16) 0.39765(14) 0.24543(10)
O21_14 O 0.15916(13) 0.77777(14) 0.11455(10)
O22_14 O 0.12931(19) 0.68022(17) 0.08389(13)
C31_14 C 0.15332(16) 0.62882(14) 0.26493(9)
C32_14 C 0.43465(15) 0.66499(14) 0.14789(10)
N1_14 N 0.1655(2) 0.4669(2) 0.33703(12)
H13_14 H 0.182161 0.454065 0.355386
C33_17 C 0.0674(2) 0.7500(2) 0.02635(13)
H15_14 H 0.035078 0.734488 0.029938
C34_14 C 0.1895(2) 0.7899(3) 0.0917(2)
H16_14 H 0.183646 0.779472 0.067603
C35_14 C 0.1845(2) 0.4621(2) 0.30476(13)
H17_14 H 0.215354 0.444045 0.301869
C36_14 C 0.0683(2) 0.5209(2) 0.23878(19)
H18_14 H 0.074410 0.514475 0.263687
N3_14 N 0.0336(2) 0.5522(2) 0.2319(2)
H19_14 H 0.017583 0.565966 0.250178
N4_14 N 0.2309(2) 0.8172(3) 0.0980(2)
H20_14 H 0.249664 0.827470 0.079648
C37_14 C 0.1172(3) 0.4929(3) 0.3442(2)
H21_14 H 0.119149 0.524632 0.333126
H22_14 H 0.112356 0.496183 0.370411
H23_14 H 0.087930 0.475326 0.333839
H24_14 H 0.139911 0.799694 0.001665
C39_14 C 0.0197(4) 0.5660(4) 0.1958(4)
H27_14 H 0.042396 0.549865 0.178384
H28_14 H 0.023467 0.600626 0.193130
C40_14 C 0.2456(4) 0.8303(5) 0.1350(4)
H30_14 H 0.283418 0.832651 0.136679
H31_14 H 0.233128 0.805859 0.151867
H32_14 H 0.230018 0.861097 0.141205
H33_14 H 0.0855718 0.409866 0.257785
H34_14 H 0.10678 0.375643 0.225623
H35_14 H 0.109606 0.650949 0.0901815
H36_14 H 0.130736 0.683725 0.0571367
O4_14 O 0.32268(15) 0.56759(16) 0.91009(9)
C10_14 C 0.32242(17) 0.56158(16) 0.94277(11)
C14_14 C 0.44438(14) 0.62492(13) 0.97351(10)
C18_14 C 0.48684(14) 0.65609(13) 0.95884(9)
C19_14 C 0.40544(15) 0.60687(14) 0.95144(9)
H8_14 H 0.406822 0.611791 0.925990
C24_14 C 0.36473(15) 0.58179(15) 0.96646(9)
N2_14 N 0.0847(2) 0.75205(19) 0.99375(12)
H14_14 H 0.065855 0.739763 0.976197
C38_14 C 0.1330(3) 0.7733(3) 0.9849(2)
H25_14 H 0.131789 0.785454 0.960063
H26_14 H 0.160593 0.749462 0.987025
H29_14 H 0.983565 0.557010 0.191059
O29_10 O 0.96352(12) 0.78928(11) 0.20913(8)
O3_15 O 0.44755(13) 0.69587(10) 0.40251(7)
C1_15 C 0.39648(15) 0.62075(14) 0.43909(9)
H1_15 H 0.395088 0.619869 0.413383
C2_15 C 0.66777(15) 0.62340(14) 0.33802(9)
H2_15 H 0.688294 0.599291 0.327010
O4_15 O 0.57268(15) 0.68241(16) 0.16009(9)
O6_15 O 0.56118(13) 0.72495(12) 0.42060(7)
C3_15 C 0.41911(15) 0.65857(13) 0.45634(9)
O8_15 O 0.54107(12) 0.75112(12) 0.36648(8)
O9_15 O 0.35383(14) 0.54148(12) 0.40649(8)
C4_15 C 0.37798(16) 0.59671(14) 0.57807(9)
H3_15 H 0.352070 0.576442 0.568188
C5_15 C 0.63104(16) 0.65840(14) 0.39178(10)
H4_15 H 0.627552 0.659300 0.417396
C6_15 C 0.34960(14) 0.57196(13) 0.64007(9)
C7_15 C 0.56812(16) 0.72515(15) 0.38722(10)
O12_15 O 0.41428(15) 0.77008(13) 0.52748(8)
C8_15 C 0.64489(15) 0.65830(14) 0.31667(9)
C9_15 C 0.60641(15) 0.69193(14) 0.37056(10)
C10_15 C 0.57242(17) 0.68842(16) 0.19277(11)
O13_15 O 0.31733(12) 0.51807(11) 0.45771(8)
C11_15 C 0.44051(15) 0.69943(13) 0.43530(9)
C12_15 C 0.69238(15) 0.63287(14) 0.26051(9)
H5_15 H 0.720192 0.622071 0.275252
C13_15 C 0.44770(16) 0.65130(14) 0.57008(10)
H6_15 H 0.471209 0.667686 0.554664
C14_15 C 0.69438(14) 0.62508(13) 0.22351(10)
O15_15 O 0.33885(14) 0.48360(12) 0.30321(8)
C15_15 C 0.41986(15) 0.63110(14) 0.63013(10)
H7_15 H 0.422738 0.634681 0.655647
C16_15 C 0.34708(16) 0.54450(14) 0.43975(10)
C17_15 C 0.37556(15) 0.58371(13) 0.45923(9)
C18_15 C 0.73684(14) 0.59391(13) 0.20884(9)
C19_15 C 0.65544(15) 0.64313(14) 0.20144(9)
H8_15 H 0.656822 0.638209 0.175990
C20_15 C 0.48922(14) 0.69297(13) 0.62154(9)
C21_15 C 0.45200(15) 0.65676(13) 0.60719(9)
C22_15 C 0.61392(16) 0.69214(15) 0.33333(10)
H9_15 H 0.597516 0.715924 0.319029
C23_15 C 0.61178(15) 0.67377(15) 0.25405(10)
H10_15 H 0.582844 0.689822 0.264293
C24_15 C 0.61473(15) 0.66821(15) 0.21646(9)
C25_15 C 0.41017(16) 0.62269(15) 0.55499(9)
C26_15 C 0.38360(15) 0.60029(14) 0.61560(9)
C27_15 C 0.37897(16) 0.58353(14) 0.49683(10)
H11_15 H 0.364724 0.557765 0.510253
C28_15 C 0.66088(15) 0.62342(14) 0.37549(9)
C29_15 C 0.65049(15) 0.65623(14) 0.27677(9)
C30_15 C 0.42234(16) 0.65940(13) 0.49409(10)
H12_15 H 0.437553 0.686085 0.505849
O18_15 O 0.45405(10) 0.73779(9) 0.45213(7)
O19_15 O 0.34416(13) 0.75129(13) 0.46768(10)
O20_15 O 0.36709(16) 0.85235(14) 0.49543(10)
O21_15 O 0.40916(13) 0.47223(14) 0.36455(10)
O22_15 O 0.37931(19) 0.56978(17) 0.33389(13)
C31_15 C 0.40332(16) 0.62118(14) 0.51493(9)
C32_15 C 0.68465(15) 0.58501(14) 0.39789(10)
N1_15 N 0.4155(2) 0.7831(2) 0.58703(12)
H13_15 H 0.432161 0.795935 0.605386
N2_15 N 0.3347(2) 0.49795(19) 0.24375(12)
H14_15 H 0.315855 0.510237 0.226197
C33_18 C 0.3174(2) 0.5000(2) 0.27635(13)
H15_15 H 0.285078 0.515512 0.279938
C34_15 C 0.4395(2) 0.4601(3) 0.3417(2)
H16_15 H 0.433646 0.470528 0.317603
C35_15 C 0.4345(2) 0.7879(2) 0.55476(13)
H17_15 H 0.465354 0.805955 0.551869
C36_15 C 0.3183(2) 0.7291(2) 0.48878(19)
H18_15 H 0.324410 0.735525 0.513687
N3_15 N 0.2836(2) 0.6978(2) 0.4819(2)
H19_15 H 0.267583 0.684034 0.500178
N4_15 N 0.4809(2) 0.4328(3) 0.3480(2)
H20_15 H 0.499664 0.422530 0.329648
C37_15 C 0.3672(3) 0.7571(3) 0.5942(2)
H21_15 H 0.369149 0.725368 0.583126
H22_15 H 0.362356 0.753817 0.620411
H23_15 H 0.337930 0.774674 0.583839
C38_15 C 0.3830(3) 0.4767(3) 0.2349(2)
H24_15 H 0.389911 0.450306 0.251665
H25_15 H 0.381789 0.464546 0.210063
H26_15 H 0.410593 0.500538 0.237025
C39_15 C 0.2697(4) 0.6840(4) 0.4458(4)
H27_15 H 0.292396 0.700135 0.428384
H28_15 H 0.273467 0.649374 0.443130
H29_15 H 0.233565 0.692990 0.441059
C40_15 C 0.4956(4) 0.4197(5) 0.3850(4)
H30_15 H 0.533418 0.417349 0.386679
H31_15 H 0.483128 0.444141 0.401867
H32_15 H 0.480018 0.388903 0.391205
H33_15 H 0.335572 0.840134 0.507785
H34_15 H 0.35678 0.874357 0.475623
H35_15 H 0.359606 0.599051 0.340182
H36_15 H 0.380736 0.566275 0.307137
O15_16 O 0.16115(14) 0.01640(12) 0.30321(8)
O21_16 O 0.09084(13) 0.02777(14) 0.36455(10)
N2_16 N 0.1653(2) 0.00205(19) 0.24375(12)
C33_19 C 0.1826(2) 0.0000(2) 0.27635(13)
C34_16 C 0.0605(2) 0.0399(3) 0.3417(2)
H16_16 H 0.066354 0.029472 0.317603
N4_16 N 0.0191(2) 0.0672(3) 0.3480(2)
H20_16 H 0.000336 0.077470 0.329648
C38_16 C 0.1170(3) 0.0233(3) 0.2349(2)
H24_16 H 0.110089 0.049694 0.251665
H25_16 H 0.118211 0.035454 0.210063
C40_16 C 0.0044(4) 0.0803(5) 0.3850(4)
H31_16 H 0.016872 0.055859 0.401867
H32_16 H 0.019982 0.111097 0.391205
O3_16 O 0.05245(13) 0.80413(10) 0.40251(7)
C1_16 C 0.10352(15) 0.87925(14) 0.43909(9)
H1_16 H 0.104912 0.880131 0.413383
C3_16 C 0.08089(15) 0.84143(13) 0.45634(9)
O9_16 O 0.14617(14) 0.95852(12) 0.40649(8)
C4_16 C 0.12202(16) 0.90329(14) 0.57807(9)
H3_16 H 0.147930 0.923558 0.568188
C6_16 C 0.15040(14) 0.92804(13) 0.64007(9)
O12_16 O 0.08572(15) 0.72992(13) 0.52748(8)
O13_16 O 0.18267(12) 0.98193(11) 0.45771(8)
C11_16 C 0.05949(15) 0.80057(13) 0.43530(9)
C13_16 C 0.05230(16) 0.84870(14) 0.57008(10)
H6_16 H 0.028791 0.832314 0.554664
C15_16 C 0.08014(15) 0.86890(14) 0.63013(10)
H7_16 H 0.077262 0.865319 0.655647
C16_16 C 0.15292(16) 0.95550(14) 0.43975(10)
C17_16 C 0.12444(15) 0.91629(13) 0.45923(9)
C20_16 C 0.01078(14) 0.80703(13) 0.62154(9)
C21_16 C 0.04800(15) 0.84324(13) 0.60719(9)
C25_16 C 0.08983(16) 0.87731(15) 0.55499(9)
C26_16 C 0.11640(15) 0.89971(14) 0.61560(9)
C27_16 C 0.12103(16) 0.91647(14) 0.49683(10)
H11_16 H 0.135276 0.942235 0.510253
C30_16 C 0.07766(16) 0.84060(13) 0.49409(10)
H12_16 H 0.062447 0.813915 0.505849
O18_16 O 0.04595(10) 0.76221(9) 0.45213(7)
O19_16 O 0.15584(13) 0.74871(13) 0.46768(10)
O20_16 O 0.13291(16) 0.64765(14) 0.49543(10)
O22_16 O 0.12069(19) 0.93022(17) 0.33389(13)
C31_16 C 0.09668(16) 0.87882(14) 0.51493(9)
N1_16 N 0.0845(2) 0.7169(2) 0.58703(12)
H13_16 H 0.067839 0.704065 0.605386
H14_16 H 0.184145 0.989763 0.226197
C33_20 C 0.1826(2) 1.0000(2) 0.27635(13)
H15_16 H 0.214922 0.984488 0.279938
C35_16 C 0.0655(2) 0.7121(2) 0.55476(13)
H17_16 H 0.034646 0.694045 0.551869
C36_16 C 0.1817(2) 0.7709(2) 0.48878(19)
H18_16 H 0.175590 0.764475 0.513687
N3_16 N 0.2164(2) 0.8022(2) 0.4819(2)
H19_16 H 0.232417 0.815966 0.500178
C37_16 C 0.1328(3) 0.7429(3) 0.5942(2)
H21_16 H 0.130851 0.774632 0.583126
H22_16 H 0.137644 0.746183 0.620411
H23_16 H 0.162070 0.725326 0.583839
H26_16 H 0.089407 0.999462 0.237025
C39_16 C 0.2303(4) 0.8160(4) 0.4458(4)
H27_16 H 0.207604 0.799865 0.428384
H28_16 H 0.226533 0.850626 0.443130
H29_16 H 0.266435 0.807010 0.441059
H33_16 H 0.164428 0.659866 0.507785
H34_16 H 0.14322 0.625643 0.475623
H35_16 H 0.140394 0.900949 0.340182
H36_16 H 0.119264 0.933725 0.307137
H30_16 H 0.966582 0.082651 0.386679
C2_16 C 0.83223(15) 0.87660(14) 0.33802(9)
H2_16 H 0.811706 0.900709 0.327010
O4_16 O 0.92732(15) 0.81759(16) 0.16009(9)
O6_16 O 0.93882(13) 0.77505(12) 0.42060(7)
O8_16 O 0.95893(12) 0.74888(12) 0.36648(8)
C5_16 C 0.86896(16) 0.84160(14) 0.39178(10)
H4_16 H 0.872448 0.840700 0.417396
C7_16 C 0.93188(16) 0.77485(15) 0.38722(10)
C8_16 C 0.85511(15) 0.84170(14) 0.31667(9)
C9_16 C 0.89359(15) 0.80807(14) 0.37056(10)
C10_16 C 0.92758(17) 0.81158(16) 0.19277(11)
C12_16 C 0.80762(15) 0.86713(14) 0.26051(9)
H5_16 H 0.779808 0.877929 0.275252
C14_16 C 0.80562(14) 0.87492(13) 0.22351(10)
C18_16 C 0.76316(14) 0.90609(13) 0.20884(9)
C19_16 C 0.84456(15) 0.85687(14) 0.20144(9)
H8_16 H 0.843178 0.861791 0.175990
C22_16 C 0.88608(16) 0.80786(15) 0.33333(10)
H9_16 H 0.902484 0.784076 0.319029
C23_16 C 0.88822(15) 0.82623(15) 0.25405(10)
H10_16 H 0.917156 0.810178 0.264293
C24_16 C 0.88527(15) 0.83179(15) 0.21646(9)
C28_16 C 0.83912(15) 0.87658(14) 0.37549(9)
C29_16 C 0.84951(15) 0.84377(14) 0.27677(9)
C32_16 C 0.81535(15) 0.91499(14) 0.39789(10)
loop_
_geom_bond_atom_site_label_1
_geom_bond_atom_site_label_2
_geom_bond_site_symmetry_1
_geom_bond_site_symmetry_2
Co4 O12 1_555 1_555
O8 Co1 1_555 1_555
O12 C35 1_555 1_555
O19 Co4 1_555 1_555
O20 Co4 1_555 1_555
N1 H13 1_555 1_555
C35 N1 1_555 1_555
H17 C35 1_555 1_555
C37 N1 1_555 1_555
H22 C37 1_555 1_555
H23 C37 1_555 1_555
O24 Co4 1_555 1_555
O26 Co1 1_555 1_555
O27 Co1 1_555 1_555
O28 Co4 1_555 1_555
O20 H33 1_555 1_555
O20 H34 1_555 1_555
Co2 O13 1_555 1_555
Co3 O9 1_555 1_555
O1 C20 1_555 1_555
O3 C11 1_555 1_555
C1 H1 1_555 1_555
C2 H2 1_555 1_555
O5 C20 1_555 1_555
C3 C1 1_555 1_555
O9 C16 1_555 1_555
O10 C6 1_555 1_555
O11 C6 1_555 1_555
C4 H3 1_555 1_555
C5 H4 1_555 1_555
C6 C26 1_555 1_555
C7 O6 1_555 1_555
C8 C2 1_555 1_555
C9 C5 1_555 1_555
O13 C16 1_555 1_555
C11 C3 1_555 1_555
C12 H5 1_555 1_555
C13 H6 1_555 1_555
O15 Co3 1_555 1_555
C15 H7 1_555 1_555
O16 C32 1_555 1_555
C16 C17 1_555 1_555
C17 C1 1_555 1_555
C20 C21 1_555 1_555
C21 C13 1_555 1_555
C22 C8 1_555 1_555
H9 C22 1_555 1_555
C23 H10 1_555 1_555
C25 C4 1_555 1_555
C26 C4 1_555 1_555
C27 C17 1_555 1_555
H11 C27 1_555 1_555
C28 C2 1_555 1_555
C29 C8 1_555 1_555
C30 C3 1_555 1_555
H12 C30 1_555 1_555
O17 C32 1_555 1_555
O21 Co3 1_555 1_555
O22 Co3 1_555 1_555
C31 C25 1_555 1_555
C32 C28 1_555 1_555
C33 O15 1_555 1_555
H15 C33 1_555 1_555
C34 O21 1_555 1_555
H16 C34 1_555 1_555
H18 C36 1_555 1_555
N3 C36 1_555 1_555
H19 N3 1_555 1_555
N4 C34 1_555 1_555
H20 N4 1_555 1_555
C39 N3 1_555 1_555
H27 C39 1_555 1_555
H28 C39 1_555 1_555
H29 C39 1_555 1_555
C40 N4 1_555 1_555
H30 C40 1_555 1_555
H31 C40 1_555 1_555
H32 C40 1_555 1_555
Co6 O10 1_555 1_555
Co8 O16 1_555 1_555
Co10 O17 1_555 1_555
Co11 O5 1_555 1_555
Co13 O11 1_555 1_555
O23 Co2 1_555 1_555
O25 Co3 1_555 1_555
O29 Co2 1_555 1_555
O30 Co2 1_555 1_555
O31 Co2 1_555 1_555
Co3 O31 1_555 1_555
C5 C28 1_555 1_555
C7 C9 1_555 1_555
C9 C22 1_555 1_555
C11 O18 1_555 1_555
C12 C29 1_555 1_555
C13 C25 1_555 1_555
C15 C21 1_555 1_555
C15 C26 1_555 1_555
C23 C29 1_555 1_555
C27 C31 1_555 1_555
C30 C31 1_555 1_555
O17 Co8 1_555 1_555
O22 H35 1_555 1_555
O22 H36 1_555 1_555
O4 C10 1_555 1_555
O7 C18 1_555 1_555
C10 O14 1_555 1_555
O14 Co7 1_555 1_555
C18 C14 1_555 1_555
C19 C14 1_555 1_555
H8 C19 1_555 1_555
C24 C10 1_555 1_555
N2 H14 1_555 1_555
C38 N2 1_555 1_555
H25 C38 1_555 1_555
H26 C38 1_555 1_555
C19 C24 1_555 1_555
Co12 O2 1_555 1_555
Co12_2 O2_2 1_555 1_555
Co2_2 O13_2 1_555 1_555
Co3_2 O9_2 1_555 1_555
O1_2 C20_2 1_555 1_555
O3_2 C11_2 1_555 1_555
C1_2 H1_2 1_555 1_555
C2_2 H2_2 1_555 1_555
O5_2 C20_2 1_555 1_555
C3_2 C1_2 1_555 1_555
O9_2 C16_2 1_555 1_555
O10_2 C6_2 1_555 1_555
O11_2 C6_2 1_555 1_555
C4_2 H3_2 1_555 1_555
C5_2 H4_2 1_555 1_555
C6_2 C26_2 1_555 1_555
C7_2 O6_2 1_555 1_555
C8_2 C2_2 1_555 1_555
C9_2 C5_2 1_555 1_555
O13_2 C16_2 1_555 1_555
C11_2 C3_2 1_555 1_555
C12_2 H5_2 1_555 1_555
C13_2 H6_2 1_555 1_555
O15_2 Co3_2 1_555 1_555
C15_2 H7_2 1_555 1_555
O16_2 C32_2 1_555 1_555
C16_2 C17_2 1_555 1_555
C17_2 C1_2 1_555 1_555
C20_2 C21_2 1_555 1_555
C21_2 C13_2 1_555 1_555
C22_2 C8_2 1_555 1_555
H9_2 C22_2 1_555 1_555
C23_2 H10_2 1_555 1_555
C25_2 C4_2 1_555 1_555
C26_2 C4_2 1_555 1_555
C27_2 C17_2 1_555 1_555
H11_2 C27_2 1_555 1_555
C28_2 C2_2 1_555 1_555
C29_2 C8_2 1_555 1_555
C30_2 C3_2 1_555 1_555
H12_2 C30_2 1_555 1_555
O17_2 C32_2 1_555 1_555
O21_2 Co3_2 1_555 1_555
O22_2 Co3_2 1_555 1_555
C31_2 C25_2 1_555 1_555
C32_2 C28_2 1_555 1_555
C33_2 O15_2 1_555 1_555
H15_2 C33_2 1_555 1_555
C34_2 O21_2 1_555 1_555
H16_2 C34_2 1_555 1_555
H18_2 C36_2 1_555 1_555
N3_2 C36_2 1_555 1_555
H19_2 N3_2 1_555 1_555
N4_2 C34_2 1_555 1_555
H20_2 N4_2 1_555 1_555
C39_2 N3_2 1_555 1_555
H27_2 C39_2 1_555 1_555
H28_2 C39_2 1_555 1_555
H29_2 C39_2 1_555 1_555
C40_2 N4_2 1_555 1_555
H30_2 C40_2 1_555 1_555
H31_2 C40_2 1_555 1_555
H32_2 C40_2 1_555 1_555
Co6_2 O10_2 1_555 1_555
Co8_2 O16_2 1_555 1_555
Co10_2 O17_2 1_555 1_555
Co11_2 O5_2 1_555 1_555
Co13_2 O11_2 1_555 1_555
O23_2 Co2_2 1_555 1_555
O25_2 Co3_2 1_555 1_555
O29_2 Co2_2 1_555 1_555
O30_2 Co2_2 1_555 1_555
O31_2 Co2_2 1_555 1_555
Co3_2 O31_2 1_555 1_555
C5_2 C28_2 1_555 1_555
C7_2 C9_2 1_555 1_555
C9_2 C22_2 1_555 1_555
C11_2 O18_2 1_555 1_555
C12_2 C29_2 1_555 1_555
C13_2 C25_2 1_555 1_555
C15_2 C21_2 1_555 1_555
C15_2 C26_2 1_555 1_555
C23_2 C29_2 1_555 1_555
C27_2 C31_2 1_555 1_555
C30_2 C31_2 1_555 1_555
O17_2 Co8_2 1_555 1_555
O22_2 H35_2 1_555 1_555
O22_2 H36_2 1_555 1_555
O4_2 C10_2 1_555 1_555
O7_2 C18_2 1_555 1_555
C10_2 O14_2 1_555 1_555
O14_2 Co7_2 1_555 1_555
C18_2 C14_2 1_555 1_555
C19_2 C14_2 1_555 1_555
H8_2 C19_2 1_555 1_555
C24_2 C10_2 1_555 1_555
N2_2 H14_2 1_555 1_555
C38_2 N2_2 1_555 1_555
H25_2 C38_2 1_555 1_555
H26_2 C38_2 1_555 1_555
C19_2 C24_2 1_555 1_555
Co4_2 O12_2 1_555 1_555
O8_2 Co1_2 1_555 1_555
O12_2 C35_2 1_555 1_555
O19_2 Co4_2 1_555 1_555
O20_2 Co4_2 1_555 1_555
N1_2 H13_2 1_555 1_555
C35_2 N1_2 1_555 1_555
H17_2 C35_2 1_555 1_555
C37_2 N1_2 1_555 1_555
H22_2 C37_2 1_555 1_555
H23_2 C37_2 1_555 1_555
O24_2 Co4_2 1_555 1_555
O26_2 Co1_2 1_555 1_555
O27_2 Co1_2 1_555 1_555
O28_2 Co4_2 1_555 1_555
O20_2 H33_2 1_555 1_555
O20_2 H34_2 1_555 1_555
O24 C18_3 1_555 1_555
C2_3 H2_3 1_555 1_555
O4_3 C10_3 1_555 1_555
O26 C18_3 1_555 1_555
C5_3 H4_3 1_555 1_555
C7_3 O6_3 1_555 1_555
C8_3 C2_3 1_555 1_555
C9_3 C5_3 1_555 1_555
C10_3 O14_3 1_555 1_555
C12_3 H5_3 1_555 1_555
C14_3 C12_3 1_555 1_555
O16_3 C32_3 1_555 1_555
C18_3 C14_3 1_555 1_555
C19_3 C14_3 1_555 1_555
H8_3 C19_3 1_555 1_555
C22_3 C8_3 1_555 1_555
H9_3 C22_3 1_555 1_555
C23_3 H10_3 1_555 1_555
C24_3 C10_3 1_555 1_555
C28_3 C2_3 1_555 1_555
C29_3 C8_3 1_555 1_555
O17_3 C32_3 1_555 1_555
C32_3 C28_3 1_555 1_555
Co9 O16_3 1_555 1_555
Co11_3 O5_3 1_555 1_555
O8_3 C7_3 1_555 1_555
C5_3 C28_3 1_555 1_555
C7_3 C9_3 1_555 1_555
C9_3 C22_3 1_555 1_555
C12_3 C29_3 1_555 1_555
C19_3 C24_3 1_555 1_555
C23_3 C24_3 1_555 1_555
C23_3 C29_3 1_555 1_555
O17_3 Co9 1_555 1_555
Co1_3 O3_3 1_555 1_555
Co11_2 O9_3 1_555 1_555
Co4_3 O12_3 1_555 1_555
O1_3 C20_3 1_555 1_555
O3_3 C11_3 1_555 1_555
C1_3 H1_3 1_555 1_555
C3_3 C1_3 1_555 1_555
O9_3 C16_3 1_555 1_555
O10_3 C6_3 1_555 1_555
O11_3 C6_3 1_555 1_555
C4_3 H3_3 1_555 1_555
C6_3 C26_3 1_555 1_555
O12_3 C35_3 1_555 1_555
O13_3 C16_3 1_555 1_555
C11_3 C3_3 1_555 1_555
C13_3 H6_3 1_555 1_555
C15_3 H7_3 1_555 1_555
C16_3 C17_3 1_555 1_555
C17_3 C1_3 1_555 1_555
C20_3 C21_3 1_555 1_555
C21_3 C13_3 1_555 1_555
C25_3 C4_3 1_555 1_555
C26_3 C4_3 1_555 1_555
C27_3 C17_3 1_555 1_555
H11_3 C27_3 1_555 1_555
C30_3 C3_3 1_555 1_555
H12_3 C30_3 1_555 1_555
O18_3 Co1_3 1_555 1_555
O19_3 Co4_3 1_555 1_555
O20_3 Co4_3 1_555 1_555
O22_3 Co11_2 1_555 1_555
C31_3 C25_3 1_555 1_555
N1_3 H13_3 1_555 1_555
H15_3 C33_3 1_555 1_555
C35_3 N1_3 1_555 1_555
H17_3 C35_3 1_555 1_555
C36_3 O19_3 1_555 1_555
H18_3 C36_3 1_555 1_555
N3_3 C36_3 1_555 1_555
H19_3 N3_3 1_555 1_555
C37_3 N1_3 1_555 1_555
H21_3 C37_3 1_555 1_555
H22_3 C37_3 1_555 1_555
H23_3 C37_3 1_555 1_555
C39_3 N3_3 1_555 1_555
H27_3 C39_3 1_555 1_555
H28_3 C39_3 1_555 1_555
H29_3 C39_3 1_555 1_555
Co6_3 O10_3 1_555 1_555
Co13_3 O11_3 1_555 1_555
O24_3 Co4_3 1_555 1_555
O27_3 Co1_3 1_555 1_555
O28_3 Co4_3 1_555 1_555
Co4_3 O18_3 1_555 1_555
C11_3 O18_3 1_555 1_555
C13_3 C25_3 1_555 1_555
C15_3 C21_3 1_555 1_555
C15_3 C26_3 1_555 1_555
C27_3 C31_3 1_555 1_555
C30_3 C31_3 1_555 1_555
O20_3 H33_3 1_555 1_555
O20_3 H34_3 1_555 1_555
O22_3 H35_3 1_555 1_555
O22_3 H36_3 1_555 1_555
C33_4 O15_3 1_555 1_555
C34_3 O21_3 1_555 1_555
H16_3 C34_3 1_555 1_555
N4_3 C34_3 1_555 1_555
H20_3 N4_3 1_555 1_555
C38_3 N2_3 1_555 1_555
H24_3 C38_3 1_555 1_555
H25_3 C38_3 1_555 1_555
C40_3 N4_3 1_555 1_555
H31_3 C40_3 1_555 1_555
H32_3 C40_3 1_555 1_555
O29_3 Co9_2 1_555 1_555
O30_3 Co9_2 1_555 1_555
O31_3 Co9_2 1_555 1_555
N2_3 C33_4 1_555 1_555
Co6_2 O3_4 1_555 1_555
Co2_3 O13_4 1_555 1_555
Co3_3 O9_4 1_555 1_555
Co13_2 O12_4 1_555 1_555
O1_4 C20_4 1_555 1_555
O2_3 C18_4 1_555 1_555
O3_4 C11_4 1_555 1_555
C1_4 H1_4 1_555 1_555
C2_4 H2_4 1_555 1_555
O4_4 C10_4 1_555 1_555
O5_4 C20_4 1_555 1_555
O6_4 Co6_2 1_555 1_555
O7_3 C18_4 1_555 1_555
C3_4 C1_4 1_555 1_555
O8_4 Co6_2 1_555 1_555
O9_4 C16_4 1_555 1_555
O10_4 C6_4 1_555 1_555
O11_4 C6_4 1_555 1_555
C4_4 H3_4 1_555 1_555
C5_4 H4_4 1_555 1_555
C6_4 C26_4 1_555 1_555
C7_4 O6_4 1_555 1_555
O12_4 C35_4 1_555 1_555
C8_4 C2_4 1_555 1_555
C9_4 C5_4 1_555 1_555
C10_4 O29_2 1_555 1_555
O13_4 C16_4 1_555 1_555
C11_4 C3_4 1_555 1_555
C12_4 H5_4 1_555 1_555
C13_4 H6_4 1_555 1_555
C14_4 C12_4 1_555 1_555
O15_4 Co3_3 1_555 1_555
C15_4 H7_4 1_555 1_555
O16_4 C32_4 1_555 1_555
C16_4 C17_4 1_555 1_555
C17_4 C1_4 1_555 1_555
C18_4 C14_4 1_555 1_555
C19_4 C14_4 1_555 1_555
H8_4 C19_4 1_555 1_555
C20_4 C21_4 1_555 1_555
C21_4 C13_4 1_555 1_555
C22_4 C8_4 1_555 1_555
H9_4 C22_4 1_555 1_555
C23_4 H10_4 1_555 1_555
C24_4 C10_4 1_555 1_555
C25_4 C4_4 1_555 1_555
C26_4 C4_4 1_555 1_555
C27_4 C17_4 1_555 1_555
H11_4 C27_4 1_555 1_555
C28_4 C2_4 1_555 1_555
C29_4 C8_4 1_555 1_555
C30_4 C3_4 1_555 1_555
H12_4 C30_4 1_555 1_555
O17_4 C32_4 1_555 1_555
O18_4 Co6_2 1_555 1_555
O19_4 Co13_2 1_555 1_555
O20_4 Co13_2 1_555 1_555
O21_4 Co3_3 1_555 1_555
O22_4 Co3_3 1_555 1_555
C31_4 C25_4 1_555 1_555
C32_4 C28_4 1_555 1_555
N1_4 H13_4 1_555 1_555
N2_4 H14_4 1_555 1_555
C33_5 O15_4 1_555 1_555
H15_4 C33_5 1_555 1_555
C34_4 O21_4 1_555 1_555
H16_4 C34_4 1_555 1_555
C35_4 N1_4 1_555 1_555
H17_4 C35_4 1_555 1_555
C36_4 O19_4 1_555 1_555
H18_4 C36_4 1_555 1_555
N3_4 C36_4 1_555 1_555
H19_4 N3_4 1_555 1_555
N4_4 C34_4 1_555 1_555
H20_4 N4_4 1_555 1_555
C37_4 N1_4 1_555 1_555
H21_4 C37_4 1_555 1_555
H22_4 C37_4 1_555 1_555
H23_4 C37_4 1_555 1_555
C38_4 N2_4 1_555 1_555
H24_4 C38_4 1_555 1_555
H25_4 C38_4 1_555 1_555
H26_4 C38_4 1_555 1_555
C39_4 N3_4 1_555 1_555
H27_4 C39_4 1_555 1_555
H28_4 C39_4 1_555 1_555
H29_4 C39_4 1_555 1_555
C40_4 N4_4 1_555 1_555
H30_4 C40_4 1_555 1_555
H31_4 C40_4 1_555 1_555
H32_4 C40_4 1_555 1_555
Co5_3 O7_3 1_555 1_555
Co6_4 O10_4 1_555 1_555
Co8_3 O16_4 1_555 1_555
Co9_4 O1_4 1_555 1_555
Co10_3 O17_4 1_555 1_555
Co11_4 O5_4 1_555 1_555
Co12_3 O2_3 1_555 1_555
Co13_4 O11_4 1_555 1_555
O23_3 Co2_3 1_555 1_555
O24_4 Co13_2 1_555 1_555
O25_3 Co3_3 1_555 1_555
O26_4 Co6_2 1_555 1_555
O29_4 Co2_3 1_555 1_555
O30_4 Co2_3 1_555 1_555
O31_4 Co2_3 1_555 1_555
Co3_3 O31_4 1_555 1_555
Co13_2 O18_4 1_555 1_555
O8_4 C7_4 1_555 1_555
C5_4 C28_4 1_555 1_555
C7_4 C9_4 1_555 1_555
C9_4 C22_4 1_555 1_555
C11_4 O18_4 1_555 1_555
C12_4 C29_4 1_555 1_555
C13_4 C25_4 1_555 1_555
C15_4 C21_4 1_555 1_555
C15_4 C26_4 1_555 1_555
C19_4 C24_4 1_555 1_555
C23_4 C24_4 1_555 1_555
C23_4 C29_4 1_555 1_555
C27_4 C31_4 1_555 1_555
C30_4 C31_4 1_555 1_555
O17_4 Co8_3 1_555 1_555
N2_4 C33_5 1_555 1_555
O20_4 H33_4 1_555 1_555
O20_4 H34_4 1_555 1_555
O22_4 H35_4 1_555 1_555
O22_4 H36_4 1_555 1_555
Co1_4 O3_5 1_555 1_555
Co9_4 O13_5 1_555 1_555
Co11_4 O9_5 1_555 1_555
Co4_4 O12_5 1_555 1_555
O1_5 C20_5 1_555 1_555
O3_5 C11_5 1_555 1_555
C1_5 H1_5 1_555 1_555
C2_5 H2_5 1_555 1_555
O4_5 C10_5 1_555 1_555
O5_5 C20_5 1_555 1_555
O6_5 Co1_4 1_555 1_555
O26_3 C18_5 1_555 1_555
C3_5 C1_5 1_555 1_555
O8_5 Co1_4 1_555 1_555
O9_5 C16_5 1_555 1_555
O10_5 C6_5 1_555 1_555
O11_5 C6_5 1_555 1_555
C4_5 H3_5 1_555 1_555
C5_5 H4_5 1_555 1_555
C6_5 C26_5 1_555 1_555
C7_5 O6_5 1_555 1_555
O12_5 C35_5 1_555 1_555
C8_5 C2_5 1_555 1_555
C9_5 C5_5 1_555 1_555
C10_5 O14_4 1_555 1_555
O13_5 C16_5 1_555 1_555
C11_5 C3_5 1_555 1_555
C12_5 H5_5 1_555 1_555
C13_5 H6_5 1_555 1_555
O14_4 Co8_3 1_555 1_555
C14_5 C12_5 1_555 1_555
O15_5 Co11_4 1_555 1_555
C15_5 H7_5 1_555 1_555
O16_5 C32_5 1_555 1_555
C16_5 C17_5 1_555 1_555
C17_5 C1_5 1_555 1_555
C18_5 C14_5 1_555 1_555
C19_5 C14_5 1_555 1_555
H8_5 C19_5 1_555 1_555
C20_5 C21_5 1_555 1_555
C21_5 C13_5 1_555 1_555
C22_5 C8_5 1_555 1_555
H9_5 C22_5 1_555 1_555
C23_5 H10_5 1_555 1_555
C24_5 C10_5 1_555 1_555
C25_5 C4_5 1_555 1_555
C26_5 C4_5 1_555 1_555
C27_5 C17_5 1_555 1_555
H11_5 C27_5 1_555 1_555
C28_5 C2_5 1_555 1_555
C29_5 C8_5 1_555 1_555
C30_5 C3_5 1_555 1_555
H12_5 C30_5 1_555 1_555
O17_5 C32_5 1_555 1_555
O18_5 Co1_4 1_555 1_555
O19_5 Co4_4 1_555 1_555
O20_5 Co4_4 1_555 1_555
O21_5 Co11_4 1_555 1_555
O22_5 Co11_4 1_555 1_555
C31_5 C25_5 1_555 1_555
C32_5 C28_5 1_555 1_555
N1_5 H13_5 1_555 1_555
N2_5 H14_5 1_555 1_555
C33_6 O15_5 1_555 1_555
H15_5 C33_6 1_555 1_555
C34_5 O21_5 1_555 1_555
H16_5 C34_5 1_555 1_555
C35_5 N1_5 1_555 1_555
H17_5 C35_5 1_555 1_555
C36_5 O19_5 1_555 1_555
H18_5 C36_5 1_555 1_555
N3_5 C36_5 1_555 1_555
H19_5 N3_5 1_555 1_555
N4_5 C34_5 1_555 1_555
H20_5 N4_5 1_555 1_555
C37_5 N1_5 1_555 1_555
H21_5 C37_5 1_555 1_555
H22_5 C37_5 1_555 1_555
H23_5 C37_5 1_555 1_555
C38_5 N2_5 1_555 1_555
H24_5 C38_5 1_555 1_555
H25_5 C38_5 1_555 1_555
H26_5 C38_5 1_555 1_555
C39_5 N3_5 1_555 1_555
H27_5 C39_5 1_555 1_555
H28_5 C39_5 1_555 1_555
H29_5 C39_5 1_555 1_555
C40_5 N4_5 1_555 1_555
H30_5 C40_5 1_555 1_555
H31_5 C40_5 1_555 1_555
H32_5 C40_5 1_555 1_555
Co6_5 O10_5 1_555 1_555
Co9_3 O16_5 1_555 1_555
Co9_5 O1_5 1_555 1_555
Co11_3 O17_5 1_555 1_555
Co11_5 O5_5 1_555 1_555
Co13_5 O11_5 1_555 1_555
O24_5 Co4_4 1_555 1_555
O26_5 Co1_4 1_555 1_555
O27_4 Co1_4 1_555 1_555
O28_4 Co4_4 1_555 1_555
O29_5 Co9_4 1_555 1_555
O30_5 Co9_4 1_555 1_555
O31_5 Co9_4 1_555 1_555
Co11_4 O31_5 1_555 1_555
Co4_4 O18_5 1_555 1_555
O8_5 C7_5 1_555 1_555
C5_5 C28_5 1_555 1_555
C7_5 C9_5 1_555 1_555
C9_5 C22_5 1_555 1_555
C11_5 O18_5 1_555 1_555
C12_5 C29_5 1_555 1_555
C13_5 C25_5 1_555 1_555
C15_5 C21_5 1_555 1_555
C15_5 C26_5 1_555 1_555
C19_5 C24_5 1_555 1_555
C23_5 C24_5 1_555 1_555
C23_5 C29_5 1_555 1_555
C27_5 C31_5 1_555 1_555
C30_5 C31_5 1_555 1_555
O17_5 Co9_3 1_555 1_555
N2_5 C33_6 1_555 1_555
O20_5 H33_5 1_555 1_555
O20_5 H34_5 1_555 1_555
O22_5 H35_5 1_555 1_555
O22_5 H36_5 1_555 1_555
Co12_4 O2_4 1_555 1_555
Co6_4 O3_6 1_555 1_555
Co2_4 O13_6 1_555 1_555
Co3_4 O9_6 1_555 1_555
Co13_4 O12_6 1_555 1_555
O1_6 C20_6 1_555 1_555
O3_6 C11_6 1_555 1_555
C1_6 H1_6 1_555 1_555
C2_6 H2_6 1_555 1_555
O4_6 C10_6 1_555 1_555
O5_6 C20_6 1_555 1_555
O6_6 Co6_4 1_555 1_555
O7_4 C18_6 1_555 1_555
C3_6 C1_6 1_555 1_555
O8_6 Co6_4 1_555 1_555
O9_6 C16_6 1_555 1_555
O10_6 C6_6 1_555 1_555
O11_6 C6_6 1_555 1_555
C4_6 H3_6 1_555 1_555
C5_6 H4_6 1_555 1_555
C6_6 C26_6 1_555 1_555
C7_6 O6_6 1_555 1_555
O12_6 C35_6 1_555 1_555
C8_6 C2_6 1_555 1_555
C9_6 C5_6 1_555 1_555
C10_6 O29_4 1_555 1_555
O13_6 C16_6 1_555 1_555
C11_6 C3_6 1_555 1_555
C12_6 H5_6 1_555 1_555
C13_6 H6_6 1_555 1_555
C14_6 C12_6 1_555 1_555
O15_6 Co3_4 1_555 1_555
C15_6 H7_6 1_555 1_555
O16_6 C32_6 1_555 1_555
C16_6 C17_6 1_555 1_555
C17_6 C1_6 1_555 1_555
C18_6 C14_6 1_555 1_555
C19_6 C14_6 1_555 1_555
H8_6 C19_6 1_555 1_555
C20_6 C21_6 1_555 1_555
C21_6 C13_6 1_555 1_555
C22_6 C8_6 1_555 1_555
H9_6 C22_6 1_555 1_555
C23_6 H10_6 1_555 1_555
C24_6 C10_6 1_555 1_555
C25_6 C4_6 1_555 1_555
C26_6 C4_6 1_555 1_555
C27_6 C17_6 1_555 1_555
H11_6 C27_6 1_555 1_555
C28_6 C2_6 1_555 1_555
C29_6 C8_6 1_555 1_555
C30_6 C3_6 1_555 1_555
H12_6 C30_6 1_555 1_555
O17_6 C32_6 1_555 1_555
O18_6 Co6_4 1_555 1_555
O19_6 Co13_4 1_555 1_555
O20_6 Co13_4 1_555 1_555
O21_6 Co3_4 1_555 1_555
O22_6 Co3_4 1_555 1_555
C31_6 C25_6 1_555 1_555
C32_6 C28_6 1_555 1_555
N1_6 H13_6 1_555 1_555
N2_6 H14_6 1_555 1_555
C33_7 O15_6 1_555 1_555
H15_6 C33_7 1_555 1_555
C34_6 O21_6 1_555 1_555
H16_6 C34_6 1_555 1_555
C35_6 N1_6 1_555 1_555
H17_6 C35_6 1_555 1_555
C36_6 O19_6 1_555 1_555
H18_6 C36_6 1_555 1_555
N3_6 C36_6 1_555 1_555
H19_6 N3_6 1_555 1_555
N4_6 C34_6 1_555 1_555
H20_6 N4_6 1_555 1_555
C37_6 N1_6 1_555 1_555
H21_6 C37_6 1_555 1_555
H22_6 C37_6 1_555 1_555
H23_6 C37_6 1_555 1_555
C38_6 N2_6 1_555 1_555
H24_6 C38_6 1_555 1_555
H25_6 C38_6 1_555 1_555
H26_6 C38_6 1_555 1_555
C39_6 N3_6 1_555 1_555
H27_6 C39_6 1_555 1_555
H28_6 C39_6 1_555 1_555
H29_6 C39_6 1_555 1_555
C40_6 N4_6 1_555 1_555
H30_6 C40_6 1_555 1_555
H31_6 C40_6 1_555 1_555
H32_6 C40_6 1_555 1_555
Co6_6 O10_6 1_555 1_555
Co8_4 O16_6 1_555 1_555
Co9_6 O1_6 1_555 1_555
Co10_4 O17_6 1_555 1_555
Co11_6 O5_6 1_555 1_555
Co13_6 O11_6 1_555 1_555
O23_4 Co2_4 1_555 1_555
O24_6 Co13_4 1_555 1_555
O25_4 Co3_4 1_555 1_555
O26_6 Co6_4 1_555 1_555
O29_6 Co2_4 1_555 1_555
O30_6 Co2_4 1_555 1_555
O31_6 Co2_4 1_555 1_555
Co3_4 O31_6 1_555 1_555
Co13_4 O18_6 1_555 1_555
O8_6 C7_6 1_555 1_555
C5_6 C28_6 1_555 1_555
C7_6 C9_6 1_555 1_555
C9_6 C22_6 1_555 1_555
C11_6 O18_6 1_555 1_555
C12_6 C29_6 1_555 1_555
C13_6 C25_6 1_555 1_555
C15_6 C21_6 1_555 1_555
C15_6 C26_6 1_555 1_555
C19_6 C24_6 1_555 1_555
C23_6 C24_6 1_555 1_555
C23_6 C29_6 1_555 1_555
C27_6 C31_6 1_555 1_555
C30_6 C31_6 1_555 1_555
O17_6 Co8_4 1_555 1_555
N2_6 C33_7 1_555 1_555
O20_6 H33_6 1_555 1_555
O20_6 H34_6 1_555 1_555
O22_6 H35_6 1_555 1_555
O22_6 H36_6 1_555 1_555
Co10 O5_7 1_555 1_555
O24_5 C18_7 1_555 1_555
C2_7 H2_7 1_555 1_555
O4_7 C10_7 1_555 1_555
O26_5 C18_7 1_555 1_555
C5_7 H4_7 1_555 1_555
C7_7 O6_7 1_555 1_555
C8_7 C2_7 1_555 1_555
C9_7 C5_7 1_555 1_555
C10_7 O14_5 1_555 1_555
C12_7 H5_7 1_555 1_555
C14_7 C12_7 1_555 1_555
O16_7 C32_7 1_555 1_555
C18_7 C14_7 1_555 1_555
C19_7 C14_7 1_555 1_555
H8_7 C19_7 1_555 1_555
C22_7 C8_7 1_555 1_555
H9_7 C22_7 1_555 1_555
C23_7 H10_7 1_555 1_555
C24_7 C10_7 1_555 1_555
C28_7 C2_7 1_555 1_555
C29_7 C8_7 1_555 1_555
O17_7 C32_7 1_555 1_555
C32_7 C28_7 1_555 1_555
Co9_5 O16_7 1_555 1_555
Co11_5 O17_7 1_555 1_555
O8_7 C7_7 1_555 1_555
C5_7 C28_7 1_555 1_555
C7_7 C9_7 1_555 1_555
C9_7 C22_7 1_555 1_555
C12_7 C29_7 1_555 1_555
C19_7 C24_7 1_555 1_555
C23_7 C24_7 1_555 1_555
C23_7 C29_7 1_555 1_555
O17_7 Co9_5 1_555 1_555
O1_7 C20_7 1_555 1_555
O10_7 C6_7 1_555 1_555
O11_7 C6_7 1_555 1_555
C4_7 H3_7 1_555 1_555
C6_7 C26_7 1_555 1_555
O12_7 C35_7 1_555 1_555
C13_7 H6_7 1_555 1_555
C15_7 H7_7 1_555 1_555
C20_7 C21_7 1_555 1_555
C21_7 C13_7 1_555 1_555
C25_7 C4_7 1_555 1_555
C26_7 C4_7 1_555 1_555
C31_7 C25_7 1_555 1_555
N1_7 H13_7 1_555 1_555
C35_7 N1_7 1_555 1_555
H17_7 C35_7 1_555 1_555
C37_7 N1_7 1_555 1_555
H21_7 C37_7 1_555 1_555
H22_7 C37_7 1_555 1_555
H23_7 C37_7 1_555 1_555
Co6_7 O10_7 1_555 1_555
Co13_7 O11_7 1_555 1_555
C13_7 C25_7 1_555 1_555
C15_7 C21_7 1_555 1_555
C15_7 C26_7 1_555 1_555
Co5 O3_7 1_555 1_555
Co9_6 O13_7 1_555 1_555
Co11_6 O9_7 1_555 1_555
O3_7 C11_7 1_555 1_555
C1_7 H1_7 1_555 1_555
C3_7 C1_7 1_555 1_555
O9_7 C16_7 1_555 1_555
O13_7 C16_7 1_555 1_555
C11_7 C3_7 1_555 1_555
O15_7 Co11_6 1_555 1_555
C16_7 C17_7 1_555 1_555
C17_7 C1_7 1_555 1_555
C27_7 C17_7 1_555 1_555
C30_7 C3_7 1_555 1_555
O18_7 Co5 1_555 1_555
O19_7 Co12 1_555 1_555
O20_7 Co12 1_555 1_555
O21_7 Co11_6 1_555 1_555
O22_7 Co11_6 1_555 1_555
N2_7 H14_7 1_555 1_555
C33_8 O15_7 1_555 1_555
H15_7 C33_8 1_555 1_555
C34_7 O21_7 1_555 1_555
H16_7 C34_7 1_555 1_555
C36_7 O19_7 1_555 1_555
N3_7 C36_7 1_555 1_555
N4_7 C34_7 1_555 1_555
H20_7 N4_7 1_555 1_555
C38_7 N2_7 1_555 1_555
H24_7 C38_7 1_555 1_555
H25_7 C38_7 1_555 1_555
H26_7 C38_7 1_555 1_555
C39_7 N3_7 1_555 1_555
H27_7 C39_7 1_555 1_555
H28_7 C39_7 1_555 1_555
H29_7 C39_7 1_555 1_555
C40_7 N4_7 1_555 1_555
H31_7 C40_7 1_555 1_555
H32_7 C40_7 1_555 1_555
O27_5 Co5 1_555 1_555
O28_5 Co12 1_555 1_555
O29_7 Co9_6 1_555 1_555
O30_7 Co9_6 1_555 1_555
O31_7 Co9_6 1_555 1_555
Co11_6 O31_7 1_555 1_555
Co12 O18_7 1_555 1_555
C11_7 O18_7 1_555 1_555
N2_7 C33_8 1_555 1_555
O20_7 H34_7 1_555 1_555
O22_7 H35_7 1_555 1_555
O22_7 H36_7 1_555 1_555
C33_9 O15_8 1_555 1_555
C34_8 O21_8 1_555 1_555
H16_8 C34_8 1_555 1_555
N4_8 C34_8 1_555 1_555
H20_8 N4_8 1_555 1_555
C38_8 N2_8 1_555 1_555
H24_8 C38_8 1_555 1_555
H25_8 C38_8 1_555 1_555
C40_8 N4_8 1_555 1_555
H30_8 C40_8 1_555 1_555
H31_8 C40_8 1_555 1_555
H32_8 C40_8 1_555 1_555
O30_8 Co7_2 1_555 1_555
O31_8 Co7_2 1_555 1_555
N2_8 C33_9 1_555 1_555
O23 C20_8 1_555 1_555
O25 C20_8 1_555 1_555
O27_2 C6_8 1_555 1_555
O28_2 C6_8 1_555 1_555
C4_8 H3_8 1_555 1_555
C6_8 C26_8 1_555 1_555
O12_8 C35_8 1_555 1_555
C13_8 H6_8 1_555 1_555
C15_8 H7_8 1_555 1_555
C20_8 C21_8 1_555 1_555
C21_8 C13_8 1_555 1_555
C25_8 C4_8 1_555 1_555
C26_8 C4_8 1_555 1_555
C31_8 C25_8 1_555 1_555
N1_8 H13_8 1_555 1_555
C35_8 N1_8 1_555 1_555
H17_8 C35_8 1_555 1_555
C37_8 N1_8 1_555 1_555
H21_8 C37_8 1_555 1_555
H22_8 C37_8 1_555 1_555
H23_8 C37_8 1_555 1_555
C13_8 C25_8 1_555 1_555
C15_8 C21_8 1_555 1_555
C15_8 C26_8 1_555 1_555
Co6_6 O3_8 1_555 1_555
Co3_5 O9_8 1_555 1_555
O2_5 C18_8 1_555 1_555
O3_8 C11_8 1_555 1_555
C1_8 H1_8 1_555 1_555
C2_8 H2_8 1_555 1_555
O4_8 C10_8 1_555 1_555
O6_8 Co6_6 1_555 1_555
O7_5 C18_8 1_555 1_555
C3_8 C1_8 1_555 1_555
O8_8 Co6_6 1_555 1_555
O9_8 C16_8 1_555 1_555
C5_8 H4_8 1_555 1_555
C7_8 O6_8 1_555 1_555
C8_8 C2_8 1_555 1_555
C9_8 C5_8 1_555 1_555
C10_8 O29_6 1_555 1_555
O13_8 C16_8 1_555 1_555
C11_8 C3_8 1_555 1_555
C12_8 H5_8 1_555 1_555
C14_8 C12_8 1_555 1_555
O16_8 C32_8 1_555 1_555
C16_8 C17_8 1_555 1_555
C17_8 C1_8 1_555 1_555
C18_8 C14_8 1_555 1_555
C19_8 C14_8 1_555 1_555
H8_8 C19_8 1_555 1_555
C22_8 C8_8 1_555 1_555
H9_8 C22_8 1_555 1_555
C23_8 H10_8 1_555 1_555
C24_8 C10_8 1_555 1_555
C27_8 C17_8 1_555 1_555
C28_8 C2_8 1_555 1_555
C29_8 C8_8 1_555 1_555
C30_8 C3_8 1_555 1_555
O17_8 C32_8 1_555 1_555
O18_8 Co6_6 1_555 1_555
O19_8 Co13_6 1_555 1_555
O20_8 Co13_6 1_555 1_555
O22_8 Co3_5 1_555 1_555
C32_8 C28_8 1_555 1_555
H15_8 C33_10 1_555 1_555
C36_8 O19_8 1_555 1_555
N3_8 C36_8 1_555 1_555
C39_8 N3_8 1_555 1_555
H27_8 C39_8 1_555 1_555
H28_8 C39_8 1_555 1_555
H29_8 C39_8 1_555 1_555
Co5_5 O7_5 1_555 1_555
Co7 O16_8 1_555 1_555
Co12_5 O2_5 1_555 1_555
O24_7 Co13_6 1_555 1_555
O25_5 Co3_5 1_555 1_555
O26_7 Co6_6 1_555 1_555
Co13_6 O18_8 1_555 1_555
O8_8 C7_8 1_555 1_555
C5_8 C28_8 1_555 1_555
C7_8 C9_8 1_555 1_555
C9_8 C22_8 1_555 1_555
C11_8 O18_8 1_555 1_555
C12_8 C29_8 1_555 1_555
C19_8 C24_8 1_555 1_555
C23_8 C24_8 1_555 1_555
C23_8 C29_8 1_555 1_555
O17_8 Co7 1_555 1_555
O20_8 H34_8 1_555 1_555
O22_8 H35_8 1_555 1_555
O22_8 H36_8 1_555 1_555
Co13_3 O12_9 1_555 1_555
O8_9 Co6_3 1_555 1_555
O12_9 C35_9 1_555 1_555
O19_9 Co13_3 1_555 1_555
O20_9 Co13_3 1_555 1_555
N1_9 H13_9 1_555 1_555
C35_9 N1_9 1_555 1_555
H17_9 C35_9 1_555 1_555
C37_9 N1_9 1_555 1_555
H22_9 C37_9 1_555 1_555
H23_9 C37_9 1_555 1_555
O24_8 Co13_3 1_555 1_555
O26_8 Co6_3 1_555 1_555
O20_9 H33_9 1_555 1_555
O20_9 H34_9 1_555 1_555
Co8_4 O13_9 1_555 1_555
Co10_4 O9_9 1_555 1_555
O23_5 C20_9 1_555 1_555
O2_6 C18_9 1_555 1_555
O3_9 C11_9 1_555 1_555
C1_9 H1_9 1_555 1_555
C2_9 H2_9 1_555 1_555
O4_9 C10_9 1_555 1_555
O25_5 C20_9 1_555 1_555
O7_6 C18_9 1_555 1_555
C3_9 C1_9 1_555 1_555
O9_9 C16_9 1_555 1_555
O27_5 C6_9 1_555 1_555
O28_5 C6_9 1_555 1_555
C4_9 H3_9 1_555 1_555
C5_9 H4_9 1_555 1_555
C6_9 C26_9 1_555 1_555
C7_9 O6_9 1_555 1_555
C8_9 C2_9 1_555 1_555
C9_9 C5_9 1_555 1_555
C10_9 O29_3 1_555 1_555
O13_9 C16_9 1_555 1_555
C11_9 C3_9 1_555 1_555
C12_9 H5_9 1_555 1_555
C13_9 H6_9 1_555 1_555
C14_9 C12_9 1_555 1_555
O15_9 Co10_4 1_555 1_555
C15_9 H7_9 1_555 1_555
O30_6 C32_9 1_555 1_555
C16_9 C17_9 1_555 1_555
C17_9 C1_9 1_555 1_555
C18_9 C14_9 1_555 1_555
C19_9 C14_9 1_555 1_555
H8_9 C19_9 1_555 1_555
C20_9 C21_9 1_555 1_555
C21_9 C13_9 1_555 1_555
C22_9 C8_9 1_555 1_555
H9_9 C22_9 1_555 1_555
C23_9 H10_9 1_555 1_555
C24_9 C10_9 1_555 1_555
C25_9 C4_9 1_555 1_555
C26_9 C4_9 1_555 1_555
C27_9 C17_9 1_555 1_555
H11_9 C27_9 1_555 1_555
C28_9 C2_9 1_555 1_555
C29_9 C8_9 1_555 1_555
C30_9 C3_9 1_555 1_555
H12_9 C30_9 1_555 1_555
O31_6 C32_9 1_555 1_555
O21_9 Co10_4 1_555 1_555
O22_9 Co10_4 1_555 1_555
C31_9 C25_9 1_555 1_555
C32_9 C28_9 1_555 1_555
N2_9 H14_9 1_555 1_555
C33_11 O15_9 1_555 1_555
H15_9 C33_11 1_555 1_555
C34_9 O21_9 1_555 1_555
H16_9 C34_9 1_555 1_555
H18_9 C36_9 1_555 1_555
N3_9 C36_9 1_555 1_555
H19_9 N3_9 1_555 1_555
N4_9 C34_9 1_555 1_555
H20_9 N4_9 1_555 1_555
C38_9 N2_9 1_555 1_555
H24_9 C38_9 1_555 1_555
H25_9 C38_9 1_555 1_555
H26_9 C38_9 1_555 1_555
C39_9 N3_9 1_555 1_555
H27_9 C39_9 1_555 1_555
H28_9 C39_9 1_555 1_555
C40_9 N4_9 1_555 1_555
H30_9 C40_9 1_555 1_555
H31_9 C40_9 1_555 1_555
H32_9 C40_9 1_555 1_555
Co6 O7_6 1_555 1_555
Co13 O2_6 1_555 1_555
O25_6 Co10_4 1_555 1_555
C5_9 C28_9 1_555 1_555
C7_9 C9_9 1_555 1_555
C9_9 C22_9 1_555 1_555
C11_9 O18_9 1_555 1_555
C12_9 C29_9 1_555 1_555
C13_9 C25_9 1_555 1_555
C15_9 C21_9 1_555 1_555
C15_9 C26_9 1_555 1_555
C19_9 C24_9 1_555 1_555
C23_9 C24_9 1_555 1_555
C23_9 C29_9 1_555 1_555
C27_9 C31_9 1_555 1_555
C30_9 C31_9 1_555 1_555
N2_9 C33_11 1_555 1_555
O22_9 H35_9 1_555 1_555
O22_9 H36_9 1_555 1_555
Co9_3 O13_10 1_555 1_555
Co11_3 O9_10 1_555 1_555
O1_8 C20_10 1_555 1_555
O24_4 C18_10 1_555 1_555
O3_10 C11_10 1_555 1_555
C1_10 H1_10 1_555 1_555
C2_10 H2_10 1_555 1_555
O4_10 C10_10 1_555 1_555
O5_8 C20_10 1_555 1_555
O26_4 C18_10 1_555 1_555
C3_10 C1_10 1_555 1_555
O9_10 C16_10 1_555 1_555
O10_8 C6_10 1_555 1_555
O11_8 C6_10 1_555 1_555
C4_10 H3_10 1_555 1_555
C5_10 H4_10 1_555 1_555
C6_10 C26_10 1_555 1_555
C7_10 O6_10 1_555 1_555
C8_10 C2_10 1_555 1_555
C9_10 C5_10 1_555 1_555
C10_10 O14_6 1_555 1_555
O13_10 C16_10 1_555 1_555
C11_10 C3_10 1_555 1_555
C12_10 H5_10 1_555 1_555
C13_10 H6_10 1_555 1_555
O14_6 Co9 1_555 1_555
C14_10 C12_10 1_555 1_555
O15_10 Co11_3 1_555 1_555
C15_10 H7_10 1_555 1_555
O30_5 C32_10 1_555 1_555
C16_10 C17_10 1_555 1_555
C17_10 C1_10 1_555 1_555
C18_10 C14_10 1_555 1_555
C19_10 C14_10 1_555 1_555
H8_10 C19_10 1_555 1_555
C20_10 C21_10 1_555 1_555
C21_10 C13_10 1_555 1_555
C22_10 C8_10 1_555 1_555
H9_10 C22_10 1_555 1_555
C23_10 H10_10 1_555 1_555
C24_10 C10_10 1_555 1_555
C25_10 C4_10 1_555 1_555
C26_10 C4_10 1_555 1_555
C27_10 C17_10 1_555 1_555
H11_10 C27_10 1_555 1_555
C28_10 C2_10 1_555 1_555
C29_10 C8_10 1_555 1_555
C30_10 C3_10 1_555 1_555
H12_10 C30_10 1_555 1_555
O31_5 C32_10 1_555 1_555
O21_10 Co11_3 1_555 1_555
O22_10 Co11_3 1_555 1_555
C31_10 C25_10 1_555 1_555
C32_10 C28_10 1_555 1_555
N2_10 H14_10 1_555 1_555
C33_12 O15_10 1_555 1_555
H15_10 C33_12 1_555 1_555
C34_10 O21_10 1_555 1_555
H16_10 C34_10 1_555 1_555
H18_10 C36_10 1_555 1_555
N3_10 C36_10 1_555 1_555
H19_10 N3_10 1_555 1_555
N4_10 C34_10 1_555 1_555
H20_10 N4_10 1_555 1_555
C38_10 N2_10 1_555 1_555
H24_10 C38_10 1_555 1_555
H25_10 C38_10 1_555 1_555
H26_10 C38_10 1_555 1_555
C39_10 N3_10 1_555 1_555
H27_10 C39_10 1_555 1_555
H28_10 C39_10 1_555 1_555
C40_10 N4_10 1_555 1_555
H30_10 C40_10 1_555 1_555
H31_10 C40_10 1_555 1_555
H32_10 C40_10 1_555 1_555
Co5_2 O10_8 1_555 1_555
Co10_5 O5_8 1_555 1_555
Co12_2 O11_8 1_555 1_555
C5_10 C28_10 1_555 1_555
C7_10 C9_10 1_555 1_555
C9_10 C22_10 1_555 1_555
C11_10 O18_10 1_555 1_555
C12_10 C29_10 1_555 1_555
C13_10 C25_10 1_555 1_555
C15_10 C21_10 1_555 1_555
C15_10 C26_10 1_555 1_555
C19_10 C24_10 1_555 1_555
C23_10 C24_10 1_555 1_555
C23_10 C29_10 1_555 1_555
C27_10 C31_10 1_555 1_555
C30_10 C31_10 1_555 1_555
N2_10 C33_12 1_555 1_555
O22_10 H35_10 1_555 1_555
O22_10 H36_10 1_555 1_555
Co12_5 O12_10 1_555 1_555
O8_10 Co5_5 1_555 1_555
O12_10 C35_10 1_555 1_555
O19_10 Co12_5 1_555 1_555
O20_10 Co12_5 1_555 1_555
N1_10 H13_10 1_555 1_555
C35_10 N1_10 1_555 1_555
H17_10 C35_10 1_555 1_555
C37_10 N1_10 1_555 1_555
H22_10 C37_10 1_555 1_555
H23_10 C37_10 1_555 1_555
O27_6 Co5_5 1_555 1_555
O28_6 Co12_5 1_555 1_555
O20_10 H33_10 1_555 1_555
O20_10 H34_10 1_555 1_555
O23_2 C20_11 1_555 1_555
O25_2 C20_11 1_555 1_555
O27 C6_11 1_555 1_555
O28 C6_11 1_555 1_555
C4_11 H3_11 1_555 1_555
C6_11 C26_11 1_555 1_555
O12_11 C35_11 1_555 1_555
C13_11 H6_11 1_555 1_555
C15_11 H7_11 1_555 1_555
C20_11 C21_11 1_555 1_555
C21_11 C13_11 1_555 1_555
C25_11 C4_11 1_555 1_555
C26_11 C4_11 1_555 1_555
C31_11 C25_11 1_555 1_555
N1_11 H13_11 1_555 1_555
C35_11 N1_11 1_555 1_555
H17_11 C35_11 1_555 1_555
C37_11 N1_11 1_555 1_555
H21_11 C37_11 1_555 1_555
H22_11 C37_11 1_555 1_555
H23_11 C37_11 1_555 1_555
C13_11 C25_11 1_555 1_555
C15_11 C21_11 1_555 1_555
C15_11 C26_11 1_555 1_555
Co6_5 O3_11 1_555 1_555
Co10_5 O9_11 1_555 1_555
O24_8 C18_11 1_555 1_555
O3_11 C11_11 1_555 1_555
C1_11 H1_11 1_555 1_555
C2_11 H2_11 1_555 1_555
O4_11 C10_11 1_555 1_555
O6_11 Co6_5 1_555 1_555
O26_8 C18_11 1_555 1_555
C3_11 C1_11 1_555 1_555
O8_11 Co6_5 1_555 1_555
O9_11 C16_11 1_555 1_555
C5_11 H4_11 1_555 1_555
C7_11 O6_11 1_555 1_555
C8_11 C2_11 1_555 1_555
C9_11 C5_11 1_555 1_555
C10_11 O29_5 1_555 1_555
O13_11 C16_11 1_555 1_555
C11_11 C3_11 1_555 1_555
C12_11 H5_11 1_555 1_555
C14_11 C12_11 1_555 1_555
O30_8 C32_11 1_555 1_555
C16_11 C17_11 1_555 1_555
C17_11 C1_11 1_555 1_555
C18_11 C14_11 1_555 1_555
C19_11 C14_11 1_555 1_555
H8_11 C19_11 1_555 1_555
C22_11 C8_11 1_555 1_555
H9_11 C22_11 1_555 1_555
C23_11 H10_11 1_555 1_555
C24_11 C10_11 1_555 1_555
C27_11 C17_11 1_555 1_555
C28_11 C2_11 1_555 1_555
C29_11 C8_11 1_555 1_555
C30_11 C3_11 1_555 1_555
O31_8 C32_11 1_555 1_555
O18_11 Co6_5 1_555 1_555
O19_11 Co13_5 1_555 1_555
O20_11 Co13_5 1_555 1_555
O22_11 Co10_5 1_555 1_555
C32_11 C28_11 1_555 1_555
H15_11 C33_13 1_555 1_555
C36_11 O19_11 1_555 1_555
N3_11 C36_11 1_555 1_555
C39_11 N3_11 1_555 1_555
H27_11 C39_11 1_555 1_555
H28_11 C39_11 1_555 1_555
H29_11 C39_11 1_555 1_555
O24_9 Co13_5 1_555 1_555
O26_9 Co6_5 1_555 1_555
Co13_5 O18_11 1_555 1_555
O8_11 C7_11 1_555 1_555
C5_11 C28_11 1_555 1_555
C7_11 C9_11 1_555 1_555
C9_11 C22_11 1_555 1_555
C11_11 O18_11 1_555 1_555
C12_11 C29_11 1_555 1_555
C19_11 C24_11 1_555 1_555
C23_11 C24_11 1_555 1_555
C23_11 C29_11 1_555 1_555
O20_11 H34_11 1_555 1_555
O22_11 H35_11 1_555 1_555
O22_11 H36_11 1_555 1_555
C33_14 O15_11 1_555 1_555
C34_11 O21_11 1_555 1_555
H16_11 C34_11 1_555 1_555
N4_11 C34_11 1_555 1_555
H20_11 N4_11 1_555 1_555
C38_11 N2_11 1_555 1_555
H24_11 C38_11 1_555 1_555
H25_11 C38_11 1_555 1_555
C40_11 N4_11 1_555 1_555
H30_11 C40_11 1_555 1_555
H31_11 C40_11 1_555 1_555
H32_11 C40_11 1_555 1_555
N2_11 C33_14 1_555 1_555
O1_9 C20_12 1_555 1_555
O10_9 C6_12 1_555 1_555
O11_9 C6_12 1_555 1_555
C4_12 H3_12 1_555 1_555
C6_12 C26_12 1_555 1_555
O12_12 C35_12 1_555 1_555
C13_12 H6_12 1_555 1_555
C15_12 H7_12 1_555 1_555
C20_12 C21_12 1_555 1_555
C21_12 C13_12 1_555 1_555
C25_12 C4_12 1_555 1_555
C26_12 C4_12 1_555 1_555
C31_12 C25_12 1_555 1_555
N1_12 H13_12 1_555 1_555
C35_12 N1_12 1_555 1_555
H17_12 C35_12 1_555 1_555
C37_12 N1_12 1_555 1_555
H21_12 C37_12 1_555 1_555
H22_12 C37_12 1_555 1_555
H23_12 C37_12 1_555 1_555
Co5_3 O10_9 1_555 1_555
Co12_3 O11_9 1_555 1_555
C13_12 C25_12 1_555 1_555
C15_12 C21_12 1_555 1_555
C15_12 C26_12 1_555 1_555
Co5_2 O3_12 1_555 1_555
Co9_5 O13_12 1_555 1_555
Co11_5 O9_12 1_555 1_555
O3_12 C11_12 1_555 1_555
C1_12 H1_12 1_555 1_555
C3_12 C1_12 1_555 1_555
O9_12 C16_12 1_555 1_555
O13_12 C16_12 1_555 1_555
C11_12 C3_12 1_555 1_555
O15_12 Co11_5 1_555 1_555
C16_12 C17_12 1_555 1_555
C17_12 C1_12 1_555 1_555
C27_12 C17_12 1_555 1_555
C30_12 C3_12 1_555 1_555
O18_12 Co5_2 1_555 1_555
O19_12 Co12_2 1_555 1_555
O20_12 Co12_2 1_555 1_555
O21_12 Co11_5 1_555 1_555
O22_12 Co11_5 1_555 1_555
N2_12 H14_12 1_555 1_555
C33_15 O15_12 1_555 1_555
H15_12 C33_15 1_555 1_555
C34_12 O21_12 1_555 1_555
H16_12 C34_12 1_555 1_555
C36_12 O19_12 1_555 1_555
N3_12 C36_12 1_555 1_555
N4_12 C34_12 1_555 1_555
H20_12 N4_12 1_555 1_555
C38_12 N2_12 1_555 1_555
H24_12 C38_12 1_555 1_555
H25_12 C38_12 1_555 1_555
H26_12 C38_12 1_555 1_555
C39_12 N3_12 1_555 1_555
H27_12 C39_12 1_555 1_555
H28_12 C39_12 1_555 1_555
H29_12 C39_12 1_555 1_555
C40_12 N4_12 1_555 1_555
H31_12 C40_12 1_555 1_555
H32_12 C40_12 1_555 1_555
O29_9 Co9_5 1_555 1_555
Co12_2 O18_12 1_555 1_555
C11_12 O18_12 1_555 1_555
N2_12 C33_15 1_555 1_555
O20_12 H34_12 1_555 1_555
O22_12 H35_12 1_555 1_555
O22_12 H36_12 1_555 1_555
Co10_2 O5_9 1_555 1_555
O24_6 C18_12 1_555 1_555
C2_12 H2_12 1_555 1_555
O4_12 C10_12 1_555 1_555
O26_6 C18_12 1_555 1_555
C5_12 H4_12 1_555 1_555
C7_12 O6_12 1_555 1_555
C8_12 C2_12 1_555 1_555
C9_12 C5_12 1_555 1_555
C10_12 O29_8 1_555 1_555
C12_12 H5_12 1_555 1_555
C14_12 C12_12 1_555 1_555
O30_7 C32_12 1_555 1_555
C18_12 C14_12 1_555 1_555
C19_12 C14_12 1_555 1_555
H8_12 C19_12 1_555 1_555
C22_12 C8_12 1_555 1_555
H9_12 C22_12 1_555 1_555
C23_12 H10_12 1_555 1_555
C24_12 C10_12 1_555 1_555
C28_12 C2_12 1_555 1_555
C29_12 C8_12 1_555 1_555
O31_7 C32_12 1_555 1_555
C32_12 C28_12 1_555 1_555
O8_12 C7_12 1_555 1_555
C5_12 C28_12 1_555 1_555
C7_12 C9_12 1_555 1_555
C9_12 C22_12 1_555 1_555
C12_12 C29_12 1_555 1_555
C19_12 C24_12 1_555 1_555
C23_12 C24_12 1_555 1_555
C23_12 C29_12 1_555 1_555
Co6_7 O3_13 1_555 1_555
Co8_2 O13_13 1_555 1_555
Co10_2 O9_13 1_555 1_555
Co13_7 O12_13 1_555 1_555
O23_3 C20_13 1_555 1_555
O3_13 C11_13 1_555 1_555
C1_13 H1_13 1_555 1_555
C2_13 H2_13 1_555 1_555
O25_3 C20_13 1_555 1_555
O6_13 Co6_7 1_555 1_555
C3_13 C1_13 1_555 1_555
O8_13 Co6_7 1_555 1_555
O9_13 C16_13 1_555 1_555
O27_3 C6_13 1_555 1_555
O28_3 C6_13 1_555 1_555
C4_13 H3_13 1_555 1_555
C5_13 H4_13 1_555 1_555
C6_13 C26_13 1_555 1_555
C7_13 O6_13 1_555 1_555
O12_13 C35_13 1_555 1_555
C8_13 C2_13 1_555 1_555
C9_13 C5_13 1_555 1_555
O13_13 C16_13 1_555 1_555
C11_13 C3_13 1_555 1_555
C12_13 H5_13 1_555 1_555
C13_13 H6_13 1_555 1_555
O15_13 Co10_2 1_555 1_555
C15_13 H7_13 1_555 1_555
O30_2 C32_13 1_555 1_555
C16_13 C17_13 1_555 1_555
C17_13 C1_13 1_555 1_555
C20_13 C21_13 1_555 1_555
C21_13 C13_13 1_555 1_555
C22_13 C8_13 1_555 1_555
H9_13 C22_13 1_555 1_555
C23_13 H10_13 1_555 1_555
C25_13 C4_13 1_555 1_555
C26_13 C4_13 1_555 1_555
C27_13 C17_13 1_555 1_555
H11_13 C27_13 1_555 1_555
C28_13 C2_13 1_555 1_555
C29_13 C8_13 1_555 1_555
C30_13 C3_13 1_555 1_555
H12_13 C30_13 1_555 1_555
O31_2 C32_13 1_555 1_555
O18_13 Co6_7 1_555 1_555
O19_13 Co13_7 1_555 1_555
O20_13 Co13_7 1_555 1_555
O21_13 Co10_2 1_555 1_555
O22_13 Co10_2 1_555 1_555
C31_13 C25_13 1_555 1_555
C32_13 C28_13 1_555 1_555
N1_13 H13_13 1_555 1_555
C33_16 O15_13 1_555 1_555
H15_13 C33_16 1_555 1_555
C34_13 O21_13 1_555 1_555
H16_13 C34_13 1_555 1_555
C35_13 N1_13 1_555 1_555
H17_13 C35_13 1_555 1_555
C36_13 O19_13 1_555 1_555
H18_13 C36_13 1_555 1_555
N3_13 C36_13 1_555 1_555
H19_13 N3_13 1_555 1_555
N4_13 C34_13 1_555 1_555
H20_13 N4_13 1_555 1_555
C37_13 N1_13 1_555 1_555
H21_13 C37_13 1_555 1_555
H22_13 C37_13 1_555 1_555
H23_13 C37_13 1_555 1_555
C39_13 N3_13 1_555 1_555
H27_13 C39_13 1_555 1_555
H28_13 C39_13 1_555 1_555
C40_13 N4_13 1_555 1_555
H30_13 C40_13 1_555 1_555
H31_13 C40_13 1_555 1_555
H32_13 C40_13 1_555 1_555
O24_10 Co13_7 1_555 1_555
O26_10 Co6_7 1_555 1_555
Co13_7 O18_13 1_555 1_555
O8_13 C7_13 1_555 1_555
C5_13 C28_13 1_555 1_555
C7_13 C9_13 1_555 1_555
C9_13 C22_13 1_555 1_555
C11_13 O18_13 1_555 1_555
C12_13 C29_13 1_555 1_555
C13_13 C25_13 1_555 1_555
C15_13 C21_13 1_555 1_555
C15_13 C26_13 1_555 1_555
C23_13 C29_13 1_555 1_555
C27_13 C31_13 1_555 1_555
C30_13 C31_13 1_555 1_555
O20_13 H33_13 1_555 1_555
O20_13 H34_13 1_555 1_555
O22_13 H35_13 1_555 1_555
O22_13 H36_13 1_555 1_555
O24_9 C18_13 1_555 1_555
O4_13 C10_13 1_555 1_555
O26_9 C18_13 1_555 1_555
C10_13 O29_7 1_555 1_555
C18_13 C14_13 1_555 1_555
C19_13 C14_13 1_555 1_555
H8_13 C19_13 1_555 1_555
C24_13 C10_13 1_555 1_555
N2_13 H14_13 1_555 1_555
C38_13 N2_13 1_555 1_555
H25_13 C38_13 1_555 1_555
H26_13 C38_13 1_555 1_555
C19_13 C24_13 1_555 1_555
Co5_3 O3_14 1_555 1_555
Co8 O13_14 1_555 1_555
Co10 O9_14 1_555 1_555
Co12_3 O12_14 1_555 1_555
O1_10 C20_14 1_555 1_555
O3_14 C11_14 1_555 1_555
C1_14 H1_14 1_555 1_555
C2_14 H2_14 1_555 1_555
O5_10 C20_14 1_555 1_555
O6_14 Co5_3 1_555 1_555
C3_14 C1_14 1_555 1_555
O8_14 Co5_3 1_555 1_555
O9_14 C16_14 1_555 1_555
O10_10 C6_14 1_555 1_555
O11_10 C6_14 1_555 1_555
C4_14 H3_14 1_555 1_555
C5_14 H4_14 1_555 1_555
C6_14 C26_14 1_555 1_555
C7_14 O6_14 1_555 1_555
O12_14 C35_14 1_555 1_555
C8_14 C2_14 1_555 1_555
C9_14 C5_14 1_555 1_555
O13_14 C16_14 1_555 1_555
C11_14 C3_14 1_555 1_555
C12_14 H5_14 1_555 1_555
C13_14 H6_14 1_555 1_555
O15_14 Co10 1_555 1_555
C15_14 H7_14 1_555 1_555
O30 C32_14 1_555 1_555
C16_14 C17_14 1_555 1_555
C17_14 C1_14 1_555 1_555
C20_14 C21_14 1_555 1_555
C21_14 C13_14 1_555 1_555
C22_14 C8_14 1_555 1_555
H9_14 C22_14 1_555 1_555
C23_14 H10_14 1_555 1_555
C25_14 C4_14 1_555 1_555
C26_14 C4_14 1_555 1_555
C27_14 C17_14 1_555 1_555
H11_14 C27_14 1_555 1_555
C28_14 C2_14 1_555 1_555
C29_14 C8_14 1_555 1_555
C30_14 C3_14 1_555 1_555
H12_14 C30_14 1_555 1_555
O31 C32_14 1_555 1_555
O18_14 Co5_3 1_555 1_555
O19_14 Co12_3 1_555 1_555
O20_14 Co12_3 1_555 1_555
O21_14 Co10 1_555 1_555
O22_14 Co10 1_555 1_555
C31_14 C25_14 1_555 1_555
C32_14 C28_14 1_555 1_555
N1_14 H13_14 1_555 1_555
C33_17 O15_14 1_555 1_555
H15_14 C33_17 1_555 1_555
C34_14 O21_14 1_555 1_555
H16_14 C34_14 1_555 1_555
C35_14 N1_14 1_555 1_555
H17_14 C35_14 1_555 1_555
C36_14 O19_14 1_555 1_555
H18_14 C36_14 1_555 1_555
N3_14 C36_14 1_555 1_555
H19_14 N3_14 1_555 1_555
N4_14 C34_14 1_555 1_555
H20_14 N4_14 1_555 1_555
C37_14 N1_14 1_555 1_555
H21_14 C37_14 1_555 1_555
H22_14 C37_14 1_555 1_555
H23_14 C37_14 1_555 1_555
C39_14 N3_14 1_555 1_555
H27_14 C39_14 1_555 1_555
H28_14 C39_14 1_555 1_555
C40_14 N4_14 1_555 1_555
H30_14 C40_14 1_555 1_555
H31_14 C40_14 1_555 1_555
H32_14 C40_14 1_555 1_555
Co5_4 O10_10 1_555 1_555
Co8_3 O1_10 1_555 1_555
Co10_3 O5_10 1_555 1_555
Co12_4 O11_10 1_555 1_555
Co12_3 O18_14 1_555 1_555
O8_14 C7_14 1_555 1_555
C5_14 C28_14 1_555 1_555
C7_14 C9_14 1_555 1_555
C9_14 C22_14 1_555 1_555
C11_14 O18_14 1_555 1_555
C12_14 C29_14 1_555 1_555
C13_14 C25_14 1_555 1_555
C15_14 C21_14 1_555 1_555
C15_14 C26_14 1_555 1_555
C23_14 C29_14 1_555 1_555
C27_14 C31_14 1_555 1_555
C30_14 C31_14 1_555 1_555
O20_14 H33_14 1_555 1_555
O20_14 H34_14 1_555 1_555
O22_14 H35_14 1_555 1_555
O22_14 H36_14 1_555 1_555
O24_7 C18_14 1_555 1_555
O4_14 C10_14 1_555 1_555
O26_7 C18_14 1_555 1_555
C10_14 O29_9 1_555 1_555
C18_14 C14_14 1_555 1_555
C19_14 C14_14 1_555 1_555
H8_14 C19_14 1_555 1_555
C24_14 C10_14 1_555 1_555
N2_14 H14_14 1_555 1_555
C38_14 N2_14 1_555 1_555
H25_14 C38_14 1_555 1_555
H26_14 C38_14 1_555 1_555
C19_14 C24_14 1_555 1_555
Co6 O3_15 1_555 1_555
Co8_3 O13_15 1_555 1_555
Co10_3 O9_15 1_555 1_555
Co13 O12_15 1_555 1_555
O23_4 C20_15 1_555 1_555
O24_10 C18_15 1_555 1_555
O3_15 C11_15 1_555 1_555
C1_15 H1_15 1_555 1_555
C2_15 H2_15 1_555 1_555
O4_15 C10_15 1_555 1_555
O25_4 C20_15 1_555 1_555
O6_15 Co6 1_555 1_555
O26_10 C18_15 1_555 1_555
C3_15 C1_15 1_555 1_555
O8_15 Co6 1_555 1_555
O9_15 C16_15 1_555 1_555
O27_4 C6_15 1_555 1_555
O28_4 C6_15 1_555 1_555
C4_15 H3_15 1_555 1_555
C5_15 H4_15 1_555 1_555
C6_15 C26_15 1_555 1_555
C7_15 O6_15 1_555 1_555
O12_15 C35_15 1_555 1_555
C8_15 C2_15 1_555 1_555
C9_15 C5_15 1_555 1_555
C10_15 O29 1_555 1_555
O13_15 C16_15 1_555 1_555
C11_15 C3_15 1_555 1_555
C12_15 H5_15 1_555 1_555
C13_15 H6_15 1_555 1_555
C14_15 C12_15 1_555 1_555
O15_15 Co10_3 1_555 1_555
C15_15 H7_15 1_555 1_555
O30_4 C32_15 1_555 1_555
C16_15 C17_15 1_555 1_555
C17_15 C1_15 1_555 1_555
C18_15 C14_15 1_555 1_555
C19_15 C14_15 1_555 1_555
H8_15 C19_15 1_555 1_555
C20_15 C21_15 1_555 1_555
C21_15 C13_15 1_555 1_555
C22_15 C8_15 1_555 1_555
H9_15 C22_15 1_555 1_555
C23_15 H10_15 1_555 1_555
C24_15 C10_15 1_555 1_555
C25_15 C4_15 1_555 1_555
C26_15 C4_15 1_555 1_555
C27_15 C17_15 1_555 1_555
H11_15 C27_15 1_555 1_555
C28_15 C2_15 1_555 1_555
C29_15 C8_15 1_555 1_555
C30_15 C3_15 1_555 1_555
H12_15 C30_15 1_555 1_555
O31_4 C32_15 1_555 1_555
O18_15 Co6 1_555 1_555
O19_15 Co13 1_555 1_555
O20_15 Co13 1_555 1_555
O21_15 Co10_3 1_555 1_555
O22_15 Co10_3 1_555 1_555
C31_15 C25_15 1_555 1_555
C32_15 C28_15 1_555 1_555
N1_15 H13_15 1_555 1_555
N2_15 H14_15 1_555 1_555
C33_18 O15_15 1_555 1_555
H15_15 C33_18 1_555 1_555
C34_15 O21_15 1_555 1_555
H16_15 C34_15 1_555 1_555
C35_15 N1_15 1_555 1_555
H17_15 C35_15 1_555 1_555
C36_15 O19_15 1_555 1_555
H18_15 C36_15 1_555 1_555
N3_15 C36_15 1_555 1_555
H19_15 N3_15 1_555 1_555
N4_15 C34_15 1_555 1_555
H20_15 N4_15 1_555 1_555
C37_15 N1_15 1_555 1_555
H21_15 C37_15 1_555 1_555
H22_15 C37_15 1_555 1_555
H23_15 C37_15 1_555 1_555
C38_15 N2_15 1_555 1_555
H24_15 C38_15 1_555 1_555
H25_15 C38_15 1_555 1_555
H26_15 C38_15 1_555 1_555
C39_15 N3_15 1_555 1_555
H27_15 C39_15 1_555 1_555
H28_15 C39_15 1_555 1_555
H29_15 C39_15 1_555 1_555
C40_15 N4_15 1_555 1_555
H30_15 C40_15 1_555 1_555
H31_15 C40_15 1_555 1_555
H32_15 C40_15 1_555 1_555
Co13 O18_15 1_555 1_555
O8_15 C7_15 1_555 1_555
C5_15 C28_15 1_555 1_555
C7_15 C9_15 1_555 1_555
C9_15 C22_15 1_555 1_555
C11_15 O18_15 1_555 1_555
C12_15 C29_15 1_555 1_555
C13_15 C25_15 1_555 1_555
C15_15 C21_15 1_555 1_555
C15_15 C26_15 1_555 1_555
C19_15 C24_15 1_555 1_555
C23_15 C24_15 1_555 1_555
C23_15 C29_15 1_555 1_555
C27_15 C31_15 1_555 1_555
C30_15 C31_15 1_555 1_555
N2_15 C33_18 1_555 1_555
O20_15 H33_15 1_555 1_555
O20_15 H34_15 1_555 1_555
O22_15 H35_15 1_555 1_555
O22_15 H36_15 1_555 1_555
C33_19 O15_16 1_555 1_555
C34_16 O21_16 1_555 1_555
H16_16 C34_16 1_555 1_555
N4_16 C34_16 1_555 1_555
H20_16 N4_16 1_555 1_555
C38_16 N2_16 1_555 1_555
H24_16 C38_16 1_555 1_555
H25_16 C38_16 1_555 1_555
C40_16 N4_16 1_555 1_555
H31_16 C40_16 1_555 1_555
H32_16 C40_16 1_555 1_555
N2_16 C33_19 1_555 1_555
Co5_4 O3_16 1_555 1_555
Co11 O9_16 1_555 1_555
Co12_4 O12_16 1_555 1_555
O23_6 C20_16 1_555 1_555
O3_16 C11_16 1_555 1_555
C1_16 H1_16 1_555 1_555
C3_16 C1_16 1_555 1_555
O9_16 C16_16 1_555 1_555
O27_6 C6_16 1_555 1_555
O28_6 C6_16 1_555 1_555
C4_16 H3_16 1_555 1_555
C6_16 C26_16 1_555 1_555
O12_16 C35_16 1_555 1_555
O13_16 C16_16 1_555 1_555
C11_16 C3_16 1_555 1_555
C13_16 H6_16 1_555 1_555
C15_16 H7_16 1_555 1_555
C16_16 C17_16 1_555 1_555
C17_16 C1_16 1_555 1_555
C20_16 C21_16 1_555 1_555
C21_16 C13_16 1_555 1_555
C25_16 C4_16 1_555 1_555
C26_16 C4_16 1_555 1_555
C27_16 C17_16 1_555 1_555
H11_16 C27_16 1_555 1_555
C30_16 C3_16 1_555 1_555
H12_16 C30_16 1_555 1_555
O18_16 Co5_4 1_555 1_555
O19_16 Co12_4 1_555 1_555
O20_16 Co12_4 1_555 1_555
O22_16 Co11 1_555 1_555
C31_16 C25_16 1_555 1_555
N1_16 H13_16 1_555 1_555
H15_16 C33_20 1_555 1_555
C35_16 N1_16 1_555 1_555
H17_16 C35_16 1_555 1_555
C36_16 O19_16 1_555 1_555
H18_16 C36_16 1_555 1_555
N3_16 C36_16 1_555 1_555
H19_16 N3_16 1_555 1_555
C37_16 N1_16 1_555 1_555
H21_16 C37_16 1_555 1_555
H22_16 C37_16 1_555 1_555
H23_16 C37_16 1_555 1_555
C39_16 N3_16 1_555 1_555
H27_16 C39_16 1_555 1_555
H28_16 C39_16 1_555 1_555
H29_16 C39_16 1_555 1_555
Co12_4 O18_16 1_555 1_555
C11_16 O18_16 1_555 1_555
C13_16 C25_16 1_555 1_555
C15_16 C21_16 1_555 1_555
C15_16 C26_16 1_555 1_555
C27_16 C31_16 1_555 1_555
C30_16 C31_16 1_555 1_555
O20_16 H33_16 1_555 1_555
O20_16 H34_16 1_555 1_555
O22_16 H35_16 1_555 1_555
O22_16 H36_16 1_555 1_555
O24_2 C18_16 1_555 1_555
C2_16 H2_16 1_555 1_555
O4_16 C10_16 1_555 1_555
O26_2 C18_16 1_555 1_555
C5_16 H4_16 1_555 1_555
C7_16 O6_16 1_555 1_555
C8_16 C2_16 1_555 1_555
C9_16 C5_16 1_555 1_555
C10_16 O29_10 1_555 1_555
C12_16 H5_16 1_555 1_555
C14_16 C12_16 1_555 1_555
O30_3 C32_16 1_555 1_555
C18_16 C14_16 1_555 1_555
C19_16 C14_16 1_555 1_555
H8_16 C19_16 1_555 1_555
C22_16 C8_16 1_555 1_555
H9_16 C22_16 1_555 1_555
C23_16 H10_16 1_555 1_555
C24_16 C10_16 1_555 1_555
C28_16 C2_16 1_555 1_555
C29_16 C8_16 1_555 1_555
O31_3 C32_16 1_555 1_555
C32_16 C28_16 1_555 1_555
O8_16 C7_16 1_555 1_555
C5_16 C28_16 1_555 1_555
C7_16 C9_16 1_555 1_555
C9_16 C22_16 1_555 1_555
C12_16 C29_16 1_555 1_555
C19_16 C24_16 1_555 1_555
C23_16 C24_16 1_555 1_555
C23_16 C29_16 1_555 1_555

#END
