
###############################################################################
#
# This file contains modified crystal structure data generated from the
# MOF subset of the Cambridge Structural Database (CSD) v543 
# hosted by the Cambridge Crystallographic Data Centre (CCDC).
#
# This work is licensed under the Creative Commons
# Attribution-NonCommercial-ShareAlike 4.0 International License.
# To view a copy of this license, visit
# http://creativecommons.org/licenses/by-nc-sa/4.0/
# or send a letter to
# Creative Commons, PO Box 1866, Mountain View, CA 94042, USA.
#
# CIF created using the CSD Python API on 29 September 2022
# The structure has been converted into the P1 space group
# The structure has a 3D framework
# The original CSD entry GUGVIQ is in the orthorhombic crystal system
# The framework has been calculated to contain at least 10.0% void space
# The void calculation uses a probe of radius 1.32A, grid spacing 0.4
#
###############################################################################

data_GUGVIQ
_chemical_formula_moiety         '(C1152 H768 N320 O288 Zn48)n'
_symmetry_cell_setting           triclinic
_symmetry_space_group_name_H-M   'P 1'
_symmetry_Int_Tables_number      1
_space_group_name_Hall           'P 1'
loop_
_symmetry_equiv_pos_site_id
_symmetry_equiv_pos_as_xyz
1 x,y,z
_cell_length_a                   14.6677(3)
_cell_length_b                   33.7295(8)
_cell_length_c                   81.4460(19)
_cell_angle_alpha                90
_cell_angle_beta                 90
_cell_angle_gamma                90
_cell_volume                     40294.1
loop_
_atom_site_label
_atom_site_type_symbol
_atom_site_fract_x
_atom_site_fract_y
_atom_site_fract_z
H46 H 0.002396 0.051400 0.449996
Zn3 Zn 0.10299(3) 0.78695(2) 0.48357(2)
O13 O 0.5018(2) 0.64183(9) 0.42422(4)
O14 O 0.5971(2) 0.67296(13) 0.44019(5)
O15 O 0.2245(2) 0.76285(10) 0.47939(4)
O16 O 0.1328(2) 0.73392(10) 0.46189(5)
O17 O 0.5375(2) 0.71523(14) 0.46448(5)
H27 H 0.574883 0.698720 0.460703
O18 O 0.1928(2) 0.68641(12) 0.44055(5)
H28 H 0.153828 0.699865 0.445659
N14 N 0.0654(2) 0.81988(9) 0.46389(4)
N15 N 0.0333(3) 0.83996(10) 0.43816(4)
N16 N 0.0155(2) 0.86934(9) 0.44943(4)
C41 C 0.4390(3) 0.68388(12) 0.44455(5)
C42 C 0.4533(3) 0.70821(13) 0.45797(5)
C43 C 0.3791(3) 0.72714(13) 0.46534(5)
H29 H 0.388895 0.744618 0.474310
C44 C 0.2918(3) 0.72064(12) 0.45969(5)
C45 C 0.2774(3) 0.69477(12) 0.44645(6)
C46 C 0.3516(3) 0.67709(13) 0.43886(5)
H30 H 0.342246 0.660185 0.429682
C47 C 0.5181(3) 0.66519(13) 0.43590(5)
C48 C 0.2115(3) 0.74013(12) 0.46744(6)
C49 C 0.0631(3) 0.81098(11) 0.44753(5)
H31 H 0.081494 0.785987 0.443288
C50 C 0.0348(2) 0.85664(10) 0.46449(4)
H32 H 0.027677 0.871793 0.474241
H33 H 0.023725 0.903406 0.420635
Zn5 Zn 0.625000 0.625000 0.41679(2)
N22 N 0.1543(2) 0.82528(9) 0.50041(4)
Zn1 Zn 0.625000 0.125000 0.33321(2)
Zn2 Zn 0.14701(3) 0.46305(2) 0.48357(2)
O3 O 0.0255(2) 0.48715(10) 0.47939(4)
O4 O 0.1172(2) 0.51608(10) 0.46189(5)
O6 O 0.0572(2) 0.56359(12) 0.44055(5)
H2 H 0.096172 0.550135 0.445659
O7 O 0.25507(17) 0.48986(7) 0.49209(3)
O8 O 0.31258(17) 0.42906(7) 0.49428(3)
O9 O 0.48249(18) 0.41844(7) 0.49839(3)
H3 H 0.427268 0.412073 0.497671
N1 N 0.5865(2) 0.16936(10) 0.34870(4)
N2 N 0.5499(3) 0.22954(11) 0.35888(5)
N3 N 0.5262(2) 0.20019(10) 0.36945(4)
N4 N 0.1846(2) 0.43012(9) 0.46389(4)
N5 N 0.2167(3) 0.41004(10) 0.43816(4)
N6 N 0.2345(2) 0.38066(9) 0.44943(4)
N7 N 0.4043(2) 0.07528(9) 0.49959(4)
N8 N 0.5084(2) 0.10531(11) 0.48370(5)
N9 N 0.4222(2) 0.11824(9) 0.47999(4)
N10 N 0.3656(2) 0.23141(9) 0.43049(4)
C8 C 0.0385(3) 0.50987(12) 0.46744(6)
C9 C 0.4134(2) 0.48372(10) 0.49758(4)
C10 C 0.4898(2) 0.45875(10) 0.49919(4)
C11 C 0.5751(2) 0.47534(10) 0.50163(4)
H6 H 0.626661 0.458514 0.502793
C12 C 0.3210(2) 0.46637(10) 0.49461(4)
C13 C 0.1869(3) 0.43902(11) 0.44753(5)
H7 H 0.168506 0.464013 0.443288
C14 C 0.2152(2) 0.39336(10) 0.46449(4)
H8 H 0.222323 0.378207 0.474241
C15 C 0.2682(3) 0.34290(11) 0.44446(4)
C16 C 0.2560(3) 0.33007(11) 0.42841(4)
H9 H 0.226275 0.346594 0.420635
C17 C 0.2876(3) 0.29307(12) 0.42383(5)
H10 H 0.278581 0.284001 0.412908
C18 C 0.3325(3) 0.26891(11) 0.43518(4)
C19 C 0.3445(3) 0.28232(11) 0.45128(4)
H11 H 0.374475 0.265985 0.459092
C20 C 0.3127(3) 0.31928(11) 0.45586(4)
H12 H 0.321314 0.328468 0.466772
C21 C 0.5844(3) 0.20914(13) 0.34638(5)
H13 H 0.605681 0.221436 0.336614
C22 C 0.5489(3) 0.16488(12) 0.36338(5)
H14 H 0.539455 0.140220 0.368758
C23 C 0.4843(3) 0.20889(11) 0.38491(4)
C24 C 0.4903(3) 0.24675(12) 0.39118(5)
H15 H 0.520987 0.267054 0.385284
C25 C 0.4501(3) 0.25461(12) 0.40639(5)
H16 H 0.453604 0.280495 0.410945
C26 C 0.4053(3) 0.22478(12) 0.41488(4)
C27 C 0.4003(3) 0.18680(12) 0.40824(5)
H17 H 0.369518 0.166355 0.414045
C28 C 0.4402(3) 0.17883(12) 0.39316(5)
H18 H 0.437065 0.152972 0.388568
C29 C 0.4942(3) 0.07956(13) 0.49541(5)
H19 H 0.541933 0.065117 0.500560
C30 C 0.3616(2) 0.09980(10) 0.48946(4)
H20 H 0.297481 0.103642 0.489018
C31 C 0.4075(3) 0.14679(10) 0.46726(4)
C32 C 0.3208(3) 0.16109(12) 0.46440(5)
H21 H 0.270915 0.152065 0.470830
C33 C 0.3072(3) 0.18871(12) 0.45206(5)
H22 H 0.247604 0.198600 0.449996
C34 C 0.3797(3) 0.20196(11) 0.44273(4)
C35 C 0.4647(3) 0.18638(13) 0.44547(6)
H23 H 0.514160 0.194554 0.438739
C36 C 0.4799(3) 0.15908(13) 0.45779(6)
H24 H 0.539416 0.148936 0.459704
O10 O 0.74493(17) 0.51014(7) 0.50791(3)
O11 O 0.68742(17) 0.57094(7) 0.50572(3)
O12 O 0.51751(18) 0.58156(7) 0.50161(3)
H25 H 0.572732 0.587927 0.502329
C37 C 0.5866(2) 0.51628(10) 0.50242(4)
C38 C 0.5102(2) 0.54125(10) 0.50081(4)
C39 C 0.4249(2) 0.52466(10) 0.49837(4)
H26 H 0.373339 0.541486 0.497207
C40 C 0.6790(2) 0.53363(10) 0.50539(4)
N11 N 0.6635(2) 0.08064(10) 0.34870(4)
N12 N 0.7001(3) 0.02046(11) 0.35888(5)
N13 N 0.7238(2) 0.04981(10) 0.36945(4)
N17 N 0.8457(2) 0.17472(9) 0.49959(4)
N18 N 0.7416(2) 0.14469(11) 0.48370(5)
N19 N 0.8278(2) 0.13176(9) 0.47999(4)
N20 N 0.8844(2) 0.01859(9) 0.43049(4)
C57 C 0.6656(3) 0.04086(13) 0.34638(5)
H37 H 0.644319 0.028564 0.336614
C58 C 0.7011(3) 0.08512(12) 0.36338(5)
H38 H 0.710545 0.109780 0.368758
C59 C 0.7657(3) 0.04111(11) 0.38491(4)
C60 C 0.7597(3) 0.00325(12) 0.39118(5)
C62 C 0.8447(3) 0.02522(12) 0.41488(4)
C63 C 0.8497(3) 0.06320(12) 0.40824(5)
H41 H 0.880482 0.083645 0.414045
C64 C 0.8098(3) 0.07117(12) 0.39316(5)
H42 H 0.812935 0.097028 0.388568
C65 C 0.7558(3) 0.17044(13) 0.49541(5)
H43 H 0.708067 0.184883 0.500560
C66 C 0.8884(2) 0.15020(10) 0.48946(4)
H44 H 0.952519 0.146358 0.489018
C67 C 0.8425(3) 0.10321(10) 0.46726(4)
C68 C 0.9292(3) 0.08891(12) 0.46440(5)
H45 H 0.979085 0.097935 0.470830
C69 C 0.9428(3) 0.06129(12) 0.45206(5)
C70 C 0.8703(3) 0.04804(11) 0.44273(4)
C71 C 0.7853(3) 0.06362(13) 0.44547(6)
H47 H 0.735840 0.055446 0.438739
C72 C 0.7701(3) 0.09092(13) 0.45779(6)
H48 H 0.710584 0.101064 0.459704
Zn6 Zn 0.85299(3) 0.53695(2) 0.51643(2)
Zn7 Zn 0.35299(3) 0.03695(2) 0.51643(2)
Zn8 Zn 0.89701(3) 0.21305(2) 0.51643(2)
O19 O 0.7482(2) 0.14183(9) 0.32578(4)
O20 O 0.5018(2) 0.10817(9) 0.32578(4)
O21 O 0.6529(2) 0.17296(13) 0.30981(5)
O22 O 0.5971(2) 0.07704(13) 0.30981(5)
N21 N 0.0957(2) 0.42472(9) 0.50041(4)
O1 O 0.7482(2) 0.60817(9) 0.42422(4)
O2 O 0.6529(2) 0.57704(13) 0.44019(5)
O5 O 0.7125(2) 0.53477(14) 0.46448(5)
H1 H 0.675117 0.551280 0.460703
C1 C 0.8110(3) 0.56612(12) 0.44455(5)
C2 C 0.7967(3) 0.54179(13) 0.45797(5)
C3 C 0.8709(3) 0.52286(13) 0.46534(5)
H4 H 0.861105 0.505382 0.474310
C4 C 0.9582(3) 0.52936(12) 0.45969(5)
C5 C 0.9726(3) 0.55523(12) 0.44645(6)
C6 C 0.8984(3) 0.57291(13) 0.43886(5)
H5 H 0.907754 0.589815 0.429682
C7 C 0.7319(3) 0.58481(13) 0.43590(5)
Zn3_2 Zn 0.64701(3) 0.96305(2) 0.48357(2)
O15_2 O 0.5255(2) 0.98715(10) 0.47939(4)
N14_2 N 0.6846(2) 0.93012(9) 0.46389(4)
N15_2 N 0.7167(3) 0.91004(10) 0.43816(4)
N16_2 N 0.7345(2) 0.88066(9) 0.44943(4)
N17_2 N 0.9043(2) 0.57528(9) 0.49959(4)
N19_2 N 0.9222(2) 0.61824(9) 0.47999(4)
N20_2 N 0.8656(2) 0.73141(9) 0.43049(4)
C49_2 C 0.6869(3) 0.93902(11) 0.44753(5)
H31_2 H 0.668506 0.964013 0.443288
C50_2 C 0.7152(2) 0.89336(10) 0.46449(4)
H32_2 H 0.722323 0.878207 0.474241
C51 C 0.7682(3) 0.84290(11) 0.44446(4)
C52 C 0.7560(3) 0.83007(11) 0.42841(4)
H33_2 H 0.726275 0.846594 0.420635
C53 C 0.7876(3) 0.79307(12) 0.42383(5)
H34 H 0.778581 0.784001 0.412908
C54 C 0.8325(3) 0.76891(11) 0.43518(4)
C55 C 0.8445(3) 0.78232(11) 0.45128(4)
H35 H 0.874475 0.765985 0.459092
C56 C 0.8127(3) 0.81928(11) 0.45586(4)
H36 H 0.821314 0.828468 0.466772
C59_2 C 0.9843(3) 0.70889(11) 0.38491(4)
C60_2 C 0.9903(3) 0.74675(12) 0.39118(5)
C61 C 0.9501(3) 0.75461(12) 0.40639(5)
H40 H 0.953604 0.780495 0.410945
C62_2 C 0.9053(3) 0.72478(12) 0.41488(4)
C63_2 C 0.9003(3) 0.68680(12) 0.40824(5)
H41_2 H 0.869518 0.666355 0.414045
C64_2 C 0.9402(3) 0.67883(12) 0.39316(5)
H42_2 H 0.937065 0.652972 0.388568
C65_2 C 0.9942(3) 0.57956(13) 0.49541(5)
C66_2 C 0.8616(2) 0.59980(10) 0.48946(4)
H44_2 H 0.797481 0.603642 0.489018
C67_2 C 0.9075(3) 0.64679(10) 0.46726(4)
C68_2 C 0.8208(3) 0.66109(12) 0.46440(5)
H45_2 H 0.770915 0.652065 0.470830
C69_2 C 0.8072(3) 0.68871(12) 0.45206(5)
H46_2 H 0.747604 0.698600 0.449996
C70_2 C 0.8797(3) 0.70196(11) 0.44273(4)
C71_2 C 0.9647(3) 0.68638(13) 0.44547(6)
C72_2 C 0.9799(3) 0.65908(13) 0.45779(6)
O23 O 0.75507(17) 0.98986(7) 0.49209(3)
N22_2 N 0.5957(2) 0.92472(9) 0.50041(4)
H39 H 0.020987 0.982946 0.364716
N17_3 N 0.9043(2) 0.17472(9) 0.25041(4)
N19_3 N 0.9222(2) 0.13176(9) 0.27001(4)
N20_3 N 0.8656(2) 0.01859(9) 0.31951(4)
C59_3 C 0.9843(3) 0.04111(11) 0.36509(4)
C60_3 C 0.9903(3) 0.00325(12) 0.35882(5)
C62_3 C 0.9053(3) 0.02522(12) 0.33512(4)
C63_3 C 0.9003(3) 0.06320(12) 0.34176(5)
H41_3 H 0.869518 0.083645 0.335955
C64_3 C 0.9402(3) 0.07117(12) 0.35684(5)
H42_3 H 0.937065 0.097028 0.361432
C65_3 C 0.9942(3) 0.17044(13) 0.25459(5)
C66_3 C 0.8616(2) 0.15020(10) 0.26054(4)
H44_3 H 0.797481 0.146358 0.260982
C67_3 C 0.9075(3) 0.10321(10) 0.28274(4)
C68_3 C 0.8208(3) 0.08891(12) 0.28560(5)
H45_3 H 0.770915 0.097935 0.279170
C69_3 C 0.8072(3) 0.06129(12) 0.29794(5)
H46_3 H 0.747604 0.051400 0.300004
C70_3 C 0.8797(3) 0.04804(11) 0.30727(4)
C71_3 C 0.9647(3) 0.06362(13) 0.30453(6)
C72_3 C 0.9799(3) 0.09092(13) 0.29221(6)
Zn6_2 Zn 0.89701(3) 0.53695(2) 0.23357(2)
Zn8_2 Zn 0.85299(3) 0.21305(2) 0.23357(2)
O16_2 O 0.1328(2) 0.01608(10) 0.28811(5)
O17_2 O 0.5375(2) 0.03477(14) 0.28552(5)
H27_2 H 0.574883 0.051280 0.289297
O18_2 O 0.1928(2) 0.06359(12) 0.30945(5)
H28_2 H 0.153828 0.050135 0.304341
C41_2 C 0.4390(3) 0.06612(12) 0.30545(5)
C42_2 C 0.4533(3) 0.04179(13) 0.29203(5)
C43_2 C 0.3791(3) 0.02286(13) 0.28466(5)
H29_2 H 0.388895 0.005382 0.275690
C44_2 C 0.2918(3) 0.02936(12) 0.29031(5)
C45_2 C 0.2774(3) 0.05523(12) 0.30355(6)
C46_2 C 0.3516(3) 0.07291(13) 0.31114(5)
H30_2 H 0.342246 0.089815 0.320318
C47_2 C 0.5181(3) 0.08481(13) 0.31410(5)
C48_2 C 0.2115(3) 0.00987(12) 0.28256(6)
Zn2_2 Zn 0.14701(3) 0.28695(2) 0.26643(2)
O3_2 O 0.0255(2) 0.26285(10) 0.27061(4)
O4_2 O 0.1172(2) 0.23392(10) 0.28811(5)
O6_2 O 0.0572(2) 0.18641(12) 0.30945(5)
H2_2 H 0.096172 0.199865 0.304341
O7_2 O 0.25507(17) 0.26014(7) 0.25791(3)
O8_2 O 0.31258(17) 0.32094(7) 0.25572(3)
O9_2 O 0.48249(18) 0.33156(7) 0.25161(3)
H3_2 H 0.427268 0.337927 0.252329
N1_2 N 0.5865(2) 0.58064(10) 0.40130(4)
N2_2 N 0.5499(3) 0.52046(11) 0.39112(5)
N3_2 N 0.5262(2) 0.54981(10) 0.38055(4)
N4_2 N 0.1846(2) 0.31988(9) 0.28611(4)
N5_2 N 0.2167(3) 0.33996(10) 0.31184(4)
N6_2 N 0.2345(2) 0.36934(9) 0.30057(4)
N7_2 N 0.4043(2) 0.67472(9) 0.25041(4)
N8_2 N 0.5084(2) 0.64469(11) 0.26630(5)
N9_2 N 0.4222(2) 0.63176(9) 0.27001(4)
N10_2 N 0.3656(2) 0.51859(9) 0.31951(4)
C8_2 C 0.0385(3) 0.24013(12) 0.28256(6)
C9_2 C 0.4134(2) 0.26628(10) 0.25242(4)
C10_2 C 0.4898(2) 0.29125(10) 0.25081(4)
C11_2 C 0.5751(2) 0.27466(10) 0.24837(4)
H6_2 H 0.626661 0.291486 0.247207
C12_2 C 0.3210(2) 0.28363(10) 0.25539(4)
C13_2 C 0.1869(3) 0.31098(11) 0.30247(5)
H7_2 H 0.168506 0.285987 0.306712
C14_2 C 0.2152(2) 0.35664(10) 0.28551(4)
H8_2 H 0.222323 0.371793 0.275759
C15_2 C 0.2682(3) 0.40710(11) 0.30554(4)
C16_2 C 0.2560(3) 0.41993(11) 0.32159(4)
H9_2 H 0.226275 0.403406 0.329365
C17_2 C 0.2876(3) 0.45693(12) 0.32617(5)
H10_2 H 0.278581 0.465999 0.337092
C18_2 C 0.3325(3) 0.48109(11) 0.31482(4)
C19_2 C 0.3445(3) 0.46768(11) 0.29872(4)
H11_2 H 0.374475 0.484015 0.290908
C20_2 C 0.3127(3) 0.43072(11) 0.29414(4)
H12_2 H 0.321314 0.421532 0.283228
C21_2 C 0.5844(3) 0.54086(13) 0.40362(5)
H13_2 H 0.605681 0.528564 0.413386
C22_2 C 0.5489(3) 0.58512(12) 0.38662(5)
H14_2 H 0.539455 0.609780 0.381242
C23_2 C 0.4843(3) 0.54111(11) 0.36509(4)
C24_2 C 0.4903(3) 0.50325(12) 0.35882(5)
H15_2 H 0.520987 0.482946 0.364716
C25_2 C 0.4501(3) 0.49539(12) 0.34361(5)
H16_2 H 0.453604 0.469505 0.339055
C26_2 C 0.4053(3) 0.52522(12) 0.33512(4)
C27_2 C 0.4003(3) 0.56320(12) 0.34176(5)
H17_2 H 0.369518 0.583645 0.335955
C28_2 C 0.4402(3) 0.57117(12) 0.35684(5)
H18_2 H 0.437065 0.597028 0.361432
C29_2 C 0.4942(3) 0.67044(13) 0.25459(5)
H19_2 H 0.541933 0.684883 0.249440
C30_2 C 0.3616(2) 0.65020(10) 0.26054(4)
H20_2 H 0.297481 0.646358 0.260982
C31_2 C 0.4075(3) 0.60321(10) 0.28274(4)
C32_2 C 0.3208(3) 0.58891(12) 0.28560(5)
H21_2 H 0.270915 0.597935 0.279170
C33_2 C 0.3072(3) 0.56129(12) 0.29794(5)
H22_2 H 0.247604 0.551400 0.300004
C34_2 C 0.3797(3) 0.54804(11) 0.30727(4)
C35_2 C 0.4647(3) 0.56362(13) 0.30453(6)
H23_2 H 0.514160 0.555446 0.311261
C36_2 C 0.4799(3) 0.59092(13) 0.29221(6)
H24_2 H 0.539416 0.601064 0.290296
O10_2 O 0.74493(17) 0.23986(7) 0.24209(3)
O11_2 O 0.68742(17) 0.17906(7) 0.24428(3)
O12_2 O 0.51751(18) 0.16844(7) 0.24839(3)
H25_2 H 0.572732 0.162073 0.247671
C37_2 C 0.5866(2) 0.23372(10) 0.24758(4)
C38_2 C 0.5102(2) 0.20875(10) 0.24919(4)
C39_2 C 0.4249(2) 0.22534(10) 0.25163(4)
H26_2 H 0.373339 0.208514 0.252793
C40_2 C 0.6790(2) 0.21637(10) 0.24461(4)
N11_2 N 0.6635(2) 0.66936(10) 0.40130(4)
N12_2 N 0.7001(3) 0.72954(11) 0.39112(5)
N13_2 N 0.7238(2) 0.70019(10) 0.38055(4)
N17_4 N 0.8457(2) 0.57528(9) 0.25041(4)
N18_2 N 0.7416(2) 0.60531(11) 0.26630(5)
N19_4 N 0.8278(2) 0.61824(9) 0.27001(4)
N20_4 N 0.8844(2) 0.73141(9) 0.31951(4)
C51_2 C 0.9818(3) 0.84290(11) 0.30554(4)
C52_2 C 0.9940(3) 0.83007(11) 0.32159(4)
C53_2 C 0.9624(3) 0.79307(12) 0.32617(5)
H34_2 H 0.971419 0.784001 0.337092
C54_2 C 0.9175(3) 0.76891(11) 0.31482(4)
C55_2 C 0.9055(3) 0.78232(11) 0.29872(4)
H35_2 H 0.875525 0.765985 0.290908
C56_2 C 0.9373(3) 0.81928(11) 0.29414(4)
H36_2 H 0.928686 0.828468 0.283228
C57_2 C 0.6656(3) 0.70914(13) 0.40362(5)
H37_2 H 0.644319 0.721436 0.413386
C58_2 C 0.7011(3) 0.66488(12) 0.38662(5)
H38_2 H 0.710545 0.640220 0.381242
C59_4 C 0.7657(3) 0.70889(11) 0.36509(4)
C60_4 C 0.7597(3) 0.74675(12) 0.35882(5)
H39_2 H 0.729013 0.767054 0.364716
C61_2 C 0.7999(3) 0.75461(12) 0.34361(5)
H40_2 H 0.796396 0.780495 0.339055
C62_4 C 0.8447(3) 0.72478(12) 0.33512(4)
C63_4 C 0.8497(3) 0.68680(12) 0.34176(5)
H41_4 H 0.880482 0.666355 0.335955
C64_4 C 0.8098(3) 0.67883(12) 0.35684(5)
H42_4 H 0.812935 0.652972 0.361432
C65_4 C 0.7558(3) 0.57956(13) 0.25459(5)
H43_2 H 0.708067 0.565117 0.249440
C66_4 C 0.8884(2) 0.59980(10) 0.26054(4)
H44_4 H 0.952519 0.603642 0.260982
C67_4 C 0.8425(3) 0.64679(10) 0.28274(4)
C68_4 C 0.9292(3) 0.66109(12) 0.28560(5)
H45_4 H 0.979085 0.652065 0.279170
C69_4 C 0.9428(3) 0.68871(12) 0.29794(5)
C70_4 C 0.8703(3) 0.70196(11) 0.30727(4)
C71_4 C 0.7853(3) 0.68638(13) 0.30453(6)
H47_2 H 0.735840 0.694554 0.311261
C72_4 C 0.7701(3) 0.65908(13) 0.29221(6)
H48_2 H 0.710584 0.648936 0.290296
Zn7_2 Zn 0.35299(3) 0.71305(2) 0.23357(2)
O23_2 O 0.99493(17) 0.98986(7) 0.25791(3)
N21_2 N 0.0957(2) 0.32528(9) 0.24959(4)
O5_2 O 0.7125(2) 0.21523(14) 0.28552(5)
H1_2 H 0.675117 0.198720 0.289297
C1_2 C 0.8110(3) 0.18388(12) 0.30545(5)
C2_2 C 0.7967(3) 0.20821(13) 0.29203(5)
C3_2 C 0.8709(3) 0.22714(13) 0.28466(5)
H4_2 H 0.861105 0.244618 0.275690
C4_2 C 0.9582(3) 0.22064(12) 0.29031(5)
C5_2 C 0.9726(3) 0.19477(12) 0.30355(6)
C6_2 C 0.8984(3) 0.17709(13) 0.31114(5)
H5_2 H 0.907754 0.160185 0.320318
C7_2 C 0.7319(3) 0.16519(13) 0.31410(5)
N22_3 N 0.1543(2) 0.32528(9) 0.00041(4)
O10_3 O 0.74493(17) 0.01014(7) 0.00791(3)
O11_3 O 0.68742(17) 0.07094(7) 0.00572(3)
O12_3 O 0.51751(18) 0.08156(7) 0.00161(3)
H25_3 H 0.572732 0.087927 0.002329
C37_3 C 0.5866(2) 0.01628(10) 0.00242(4)
C38_3 C 0.5102(2) 0.04125(10) 0.00081(4)
C40_3 C 0.6790(2) 0.03363(10) 0.00539(4)
Zn6_3 Zn 0.85299(3) 0.03695(2) 0.01643(2)
Zn1_2 Zn 0.625000 0.625000 0.83321(2)
Zn2_3 Zn 0.14701(3) 0.96305(2) 0.98357(2)
O3_3 O 0.0255(2) 0.98715(10) 0.97939(4)
O7_3 O 0.25507(17) 0.98986(7) 0.99209(3)
O8_3 O 0.31258(17) 0.92906(7) 0.99428(3)
O9_3 O 0.48249(18) 0.91844(7) 0.99839(3)
H3_3 H 0.427268 0.912073 0.997671
N1_3 N 0.5865(2) 0.66936(10) 0.84870(4)
N2_3 N 0.5499(3) 0.72954(11) 0.85888(5)
N3_3 N 0.5262(2) 0.70019(10) 0.86945(4)
N4_3 N 0.1846(2) 0.93012(9) 0.96389(4)
N5_3 N 0.2167(3) 0.91004(10) 0.93816(4)
N6_3 N 0.2345(2) 0.88066(9) 0.94943(4)
N7_3 N 0.4043(2) 0.57528(9) 0.99959(4)
N8_3 N 0.5084(2) 0.60531(11) 0.98370(5)
N9_3 N 0.4222(2) 0.61824(9) 0.97999(4)
N10_3 N 0.3656(2) 0.73141(9) 0.93049(4)
C9_3 C 0.4134(2) 0.98372(10) 0.99758(4)
C10_3 C 0.4898(2) 0.95875(10) 0.99919(4)
C12_3 C 0.3210(2) 0.96637(10) 0.99461(4)
C13_3 C 0.1869(3) 0.93902(11) 0.94753(5)
H7_3 H 0.168506 0.964013 0.943288
C14_3 C 0.2152(2) 0.89336(10) 0.96449(4)
H8_3 H 0.222323 0.878207 0.974241
C15_3 C 0.2682(3) 0.84290(11) 0.94446(4)
C16_3 C 0.2560(3) 0.83007(11) 0.92841(4)
H9_3 H 0.226275 0.846594 0.920635
C17_3 C 0.2876(3) 0.79307(12) 0.92383(5)
H10_3 H 0.278581 0.784001 0.912908
C18_3 C 0.3325(3) 0.76891(11) 0.93518(4)
C19_3 C 0.3445(3) 0.78232(11) 0.95128(4)
H11_3 H 0.374475 0.765985 0.959092
C20_3 C 0.3127(3) 0.81928(11) 0.95586(4)
H12_3 H 0.321314 0.828468 0.966772
C21_3 C 0.5844(3) 0.70914(13) 0.84638(5)
H13_3 H 0.605681 0.721436 0.836614
C22_3 C 0.5489(3) 0.66488(12) 0.86338(5)
H14_3 H 0.539455 0.640220 0.868758
C23_3 C 0.4843(3) 0.70889(11) 0.88491(4)
C24_3 C 0.4903(3) 0.74675(12) 0.89118(5)
H15_3 H 0.520987 0.767054 0.885284
C25_3 C 0.4501(3) 0.75461(12) 0.90639(5)
H16_3 H 0.453604 0.780495 0.910945
C26_3 C 0.4053(3) 0.72478(12) 0.91488(4)
C27_3 C 0.4003(3) 0.68680(12) 0.90824(5)
H17_3 H 0.369518 0.666355 0.914045
C28_3 C 0.4402(3) 0.67883(12) 0.89316(5)
H18_3 H 0.437065 0.652972 0.888568
C29_3 C 0.4942(3) 0.57956(13) 0.99541(5)
C30_3 C 0.3616(2) 0.59980(10) 0.98946(4)
H20_3 H 0.297481 0.603642 0.989018
C31_3 C 0.4075(3) 0.64679(10) 0.96726(4)
C32_3 C 0.3208(3) 0.66109(12) 0.96440(5)
H21_3 H 0.270915 0.652065 0.970830
C33_3 C 0.3072(3) 0.68871(12) 0.95206(5)
H22_3 H 0.247604 0.698600 0.949996
C34_3 C 0.3797(3) 0.70196(11) 0.94273(4)
C35_3 C 0.4647(3) 0.68638(13) 0.94547(6)
H23_3 H 0.514160 0.694554 0.938739
C36_3 C 0.4799(3) 0.65908(13) 0.95779(6)
H24_3 H 0.539416 0.648936 0.959704
N11_3 N 0.6635(2) 0.58064(10) 0.84870(4)
N12_3 N 0.7001(3) 0.52046(11) 0.85888(5)
N13_3 N 0.7238(2) 0.54981(10) 0.86945(4)
N17_5 N 0.8457(2) 0.67472(9) 0.99959(4)
N18_3 N 0.7416(2) 0.64469(11) 0.98370(5)
N19_5 N 0.8278(2) 0.63176(9) 0.97999(4)
N20_5 N 0.8844(2) 0.51859(9) 0.93049(4)
C51_3 C 0.9818(3) 0.40710(11) 0.94446(4)
C52_3 C 0.9940(3) 0.41993(11) 0.92841(4)
C53_3 C 0.9624(3) 0.45693(12) 0.92383(5)
H34_3 H 0.971419 0.465999 0.912908
C54_3 C 0.9175(3) 0.48109(11) 0.93518(4)
C55_3 C 0.9055(3) 0.46768(11) 0.95128(4)
H35_3 H 0.875525 0.484015 0.959092
C56_3 C 0.9373(3) 0.43072(11) 0.95586(4)
H36_3 H 0.928686 0.421532 0.966772
C57_3 C 0.6656(3) 0.54086(13) 0.84638(5)
H37_3 H 0.644319 0.528564 0.836614
C58_3 C 0.7011(3) 0.58512(12) 0.86338(5)
H38_3 H 0.710545 0.609780 0.868758
C59_5 C 0.7657(3) 0.54111(11) 0.88491(4)
C60_5 C 0.7597(3) 0.50325(12) 0.89118(5)
H39_3 H 0.729013 0.482946 0.885284
C61_3 C 0.7999(3) 0.49539(12) 0.90639(5)
H40_3 H 0.796396 0.469505 0.910945
C62_5 C 0.8447(3) 0.52522(12) 0.91488(4)
C63_5 C 0.8497(3) 0.56320(12) 0.90824(5)
H41_5 H 0.880482 0.583645 0.914045
C64_5 C 0.8098(3) 0.57117(12) 0.89316(5)
H42_5 H 0.812935 0.597028 0.888568
C65_5 C 0.7558(3) 0.67044(13) 0.99541(5)
C66_5 C 0.8884(2) 0.65020(10) 0.98946(4)
H44_5 H 0.952519 0.646358 0.989018
C67_5 C 0.8425(3) 0.60321(10) 0.96726(4)
C68_5 C 0.9292(3) 0.58891(12) 0.96440(5)
H45_5 H 0.979085 0.597935 0.970830
C69_5 C 0.9428(3) 0.56129(12) 0.95206(5)
C70_5 C 0.8703(3) 0.54804(11) 0.94273(4)
C71_5 C 0.7853(3) 0.56362(13) 0.94547(6)
H47_3 H 0.735840 0.555446 0.938739
C72_5 C 0.7701(3) 0.59092(13) 0.95779(6)
H48_3 H 0.710584 0.601064 0.959704
O19_2 O 0.7482(2) 0.64183(9) 0.82578(4)
O20_2 O 0.5018(2) 0.60817(9) 0.82578(4)
O21_2 O 0.6529(2) 0.67296(13) 0.80981(5)
O22_2 O 0.5971(2) 0.57704(13) 0.80981(5)
O23_3 O 0.99493(17) 0.26014(7) 0.99209(3)
Zn1_3 Zn 0.125000 0.125000 0.83321(2)
N1_4 N 0.1635(2) 0.08064(10) 0.84870(4)
N2_4 N 0.2001(3) 0.02046(11) 0.85888(5)
N3_4 N 0.2238(2) 0.04981(10) 0.86945(4)
N7_4 N 0.3457(2) 0.17472(9) 0.99959(4)
N8_4 N 0.2416(2) 0.14469(11) 0.98370(5)
N9_4 N 0.3278(2) 0.13176(9) 0.97999(4)
N10_4 N 0.3844(2) 0.01859(9) 0.93049(4)
C21_4 C 0.1656(3) 0.04086(13) 0.84638(5)
H13_4 H 0.144319 0.028564 0.836614
C22_4 C 0.2011(3) 0.08512(12) 0.86338(5)
H14_4 H 0.210545 0.109780 0.868758
C23_4 C 0.2657(3) 0.04111(11) 0.88491(4)
C24_4 C 0.2597(3) 0.00325(12) 0.89118(5)
C26_4 C 0.3447(3) 0.02522(12) 0.91488(4)
C27_4 C 0.3497(3) 0.06320(12) 0.90824(5)
H17_4 H 0.380482 0.083645 0.914045
C28_4 C 0.3098(3) 0.07117(12) 0.89316(5)
H18_4 H 0.312935 0.097028 0.888568
C29_4 C 0.2558(3) 0.17044(13) 0.99541(5)
C30_4 C 0.3884(2) 0.15020(10) 0.98946(4)
H20_4 H 0.452519 0.146358 0.989018
C31_4 C 0.3425(3) 0.10321(10) 0.96726(4)
C32_4 C 0.4292(3) 0.08891(12) 0.96440(5)
H21_4 H 0.479085 0.097935 0.970830
C33_4 C 0.4428(3) 0.06129(12) 0.95206(5)
H22_4 H 0.502396 0.051400 0.949996
C34_4 C 0.3703(3) 0.04804(11) 0.94273(4)
C35_4 C 0.2853(3) 0.06362(13) 0.94547(6)
H23_4 H 0.235840 0.055446 0.938739
C36_4 C 0.2701(3) 0.09092(13) 0.95779(6)
H24_4 H 0.210584 0.101064 0.959704
N11_4 N 0.0865(2) 0.16936(10) 0.84870(4)
N12_4 N 0.0499(3) 0.22954(11) 0.85888(5)
N13_4 N 0.0262(2) 0.20019(10) 0.86945(4)
N18_4 N 0.0084(2) 0.10531(11) 0.98370(5)
C57_4 C 0.0844(3) 0.20914(13) 0.84638(5)
H37_4 H 0.105681 0.221436 0.836614
C58_4 C 0.0489(3) 0.16488(12) 0.86338(5)
H38_4 H 0.039455 0.140220 0.868758
H39_4 H 0.020987 0.267054 0.885284
H47_4 H 0.014160 0.194554 0.938739
H48_4 H 0.039416 0.148936 0.959704
O19_3 O 0.0018(2) 0.10817(9) 0.82578(4)
O20_3 O 0.2482(2) 0.14183(9) 0.82578(4)
O21_3 O 0.0971(2) 0.07704(13) 0.80981(5)
O22_3 O 0.1529(2) 0.17296(13) 0.80981(5)
C11_3 C 0.1749(2) 0.77466(10) 0.00163(4)
H6_3 H 0.123339 0.791486 0.002793
O10_4 O 0.00507(17) 0.73986(7) 0.00791(3)
O11_4 O 0.06258(17) 0.67906(7) 0.00572(3)
O12_4 O 0.23249(18) 0.66844(7) 0.00161(3)
H25_4 H 0.177268 0.662073 0.002329
C37_4 C 0.1634(2) 0.73372(10) 0.00242(4)
C38_4 C 0.2398(2) 0.70875(10) 0.00081(4)
C40_4 C 0.0710(2) 0.71637(10) 0.00539(4)
N21_3 N 0.6543(2) 0.82528(9) 0.00041(4)
N22_4 N 0.5957(2) 0.42472(9) 0.00041(4)
O5_3 O 0.0375(2) 0.03477(14) 0.78552(5)
H1_3 H 0.074883 0.051280 0.789297
C7_3 C 0.0181(3) 0.08481(13) 0.81410(5)
O4_3 O 0.6328(2) 0.01608(10) 0.78811(5)
O6_3 O 0.6928(2) 0.06359(12) 0.80945(5)
H2_3 H 0.653828 0.050135 0.804341
C1_3 C 0.9390(3) 0.06612(12) 0.80545(5)
C2_3 C 0.9533(3) 0.04179(13) 0.79203(5)
C3_3 C 0.8791(3) 0.02286(13) 0.78466(5)
H4_3 H 0.888895 0.005382 0.775690
C4_3 C 0.7918(3) 0.02936(12) 0.79031(5)
C5_3 C 0.7774(3) 0.05523(12) 0.80355(6)
C6_3 C 0.8516(3) 0.07291(13) 0.81114(5)
H5_3 H 0.842246 0.089815 0.820318
C8_3 C 0.7115(3) 0.00987(12) 0.78256(6)
O10_5 O 0.00507(17) 0.01014(7) 0.74209(3)
O11_5 O 0.06258(17) 0.07094(7) 0.74428(3)
O12_5 O 0.23249(18) 0.08156(7) 0.74839(3)
H25_5 H 0.177268 0.087927 0.747671
C37_5 C 0.1634(2) 0.01628(10) 0.74758(4)
C38_5 C 0.2398(2) 0.04125(10) 0.74919(4)
C39_3 C 0.3251(2) 0.02466(10) 0.75163(4)
H26_3 H 0.376661 0.041486 0.752793
C40_5 C 0.0710(2) 0.03363(10) 0.74461(4)
Zn3_3 Zn 0.64701(3) 0.28695(2) 0.76643(2)
O15_3 O 0.5255(2) 0.26285(10) 0.77061(4)
O16_3 O 0.6172(2) 0.23392(10) 0.78811(5)
O17_3 O 0.2125(2) 0.21523(14) 0.78552(5)
H27_3 H 0.175117 0.198720 0.789297
O18_3 O 0.5572(2) 0.18641(12) 0.80945(5)
H28_3 H 0.596172 0.199865 0.804341
N14_3 N 0.6846(2) 0.31988(9) 0.78611(4)
N15_3 N 0.7167(3) 0.33996(10) 0.81184(4)
N16_3 N 0.7345(2) 0.36934(9) 0.80057(4)
N17_6 N 0.9043(2) 0.67472(9) 0.75041(4)
N19_6 N 0.9222(2) 0.63176(9) 0.77001(4)
N20_6 N 0.8656(2) 0.51859(9) 0.81951(4)
C41_3 C 0.3110(3) 0.18388(12) 0.80545(5)
C42_3 C 0.2967(3) 0.20821(13) 0.79203(5)
C43_3 C 0.3709(3) 0.22714(13) 0.78466(5)
H29_3 H 0.361105 0.244618 0.775690
C44_3 C 0.4582(3) 0.22064(12) 0.79031(5)
C45_3 C 0.4726(3) 0.19477(12) 0.80355(6)
C46_3 C 0.3984(3) 0.17709(13) 0.81114(5)
H30_3 H 0.407754 0.160185 0.820318
C47_3 C 0.2319(3) 0.16519(13) 0.81410(5)
C48_3 C 0.5385(3) 0.24013(12) 0.78256(6)
C49_3 C 0.6869(3) 0.31098(11) 0.80247(5)
H31_3 H 0.668506 0.285987 0.806712
C50_3 C 0.7152(2) 0.35664(10) 0.78551(4)
H32_3 H 0.722323 0.371793 0.775759
C51_4 C 0.7682(3) 0.40710(11) 0.80554(4)
C52_4 C 0.7560(3) 0.41993(11) 0.82159(4)
H33_3 H 0.726275 0.403406 0.829365
C53_4 C 0.7876(3) 0.45693(12) 0.82617(5)
H34_4 H 0.778581 0.465999 0.837092
C54_4 C 0.8325(3) 0.48109(11) 0.81482(4)
C55_4 C 0.8445(3) 0.46768(11) 0.79872(4)
H35_4 H 0.874475 0.484015 0.790908
C56_4 C 0.8127(3) 0.43072(11) 0.79414(4)
H36_4 H 0.821314 0.421532 0.783228
C59_6 C 0.9843(3) 0.54111(11) 0.86509(4)
C60_6 C 0.9903(3) 0.50325(12) 0.85882(5)
C61_4 C 0.9501(3) 0.49539(12) 0.84361(5)
H40_4 H 0.953604 0.469505 0.839055
C62_6 C 0.9053(3) 0.52522(12) 0.83512(4)
C63_6 C 0.9003(3) 0.56320(12) 0.84176(5)
H41_6 H 0.869518 0.583645 0.835955
C64_6 C 0.9402(3) 0.57117(12) 0.85684(5)
H42_6 H 0.937065 0.597028 0.861432
C65_6 C 0.9942(3) 0.67044(13) 0.75459(5)
C66_6 C 0.8616(2) 0.65020(10) 0.76054(4)
H44_6 H 0.797481 0.646358 0.760982
C67_6 C 0.9075(3) 0.60321(10) 0.78274(4)
C68_6 C 0.8208(3) 0.58891(12) 0.78560(5)
H45_6 H 0.770915 0.597935 0.779170
C69_6 C 0.8072(3) 0.56129(12) 0.79794(5)
H46_4 H 0.747604 0.551400 0.800004
C70_6 C 0.8797(3) 0.54804(11) 0.80727(4)
C71_6 C 0.9647(3) 0.56362(13) 0.80453(6)
C72_6 C 0.9799(3) 0.59092(13) 0.79221(6)
Zn8_3 Zn 0.85299(3) 0.71305(2) 0.73357(2)
O23_4 O 0.75507(17) 0.26014(7) 0.75791(3)
N22_5 N 0.5957(2) 0.32528(9) 0.74959(4)
Zn3_4 Zn 0.10299(3) 0.46305(2) 0.76643(2)
O15_4 O 0.2245(2) 0.48715(10) 0.77061(4)
O16_4 O 0.1328(2) 0.51608(10) 0.78811(5)
O17_4 O 0.5375(2) 0.53477(14) 0.78552(5)
H27_4 H 0.574883 0.551280 0.789297
O18_4 O 0.1928(2) 0.56359(12) 0.80945(5)
H28_4 H 0.153828 0.550135 0.804341
N14_4 N 0.0654(2) 0.43012(9) 0.78611(4)
N15_4 N 0.0333(3) 0.41004(10) 0.81184(4)
N16_4 N 0.0155(2) 0.38066(9) 0.80057(4)
C41_4 C 0.4390(3) 0.56612(12) 0.80545(5)
C42_4 C 0.4533(3) 0.54179(13) 0.79203(5)
C43_4 C 0.3791(3) 0.52286(13) 0.78466(5)
H29_4 H 0.388895 0.505382 0.775690
C44_4 C 0.2918(3) 0.52936(12) 0.79031(5)
C45_4 C 0.2774(3) 0.55523(12) 0.80355(6)
C46_4 C 0.3516(3) 0.57291(13) 0.81114(5)
H30_4 H 0.342246 0.589815 0.820318
C47_4 C 0.5181(3) 0.58481(13) 0.81410(5)
C48_4 C 0.2115(3) 0.50987(12) 0.78256(6)
C49_4 C 0.0631(3) 0.43902(11) 0.80247(5)
H31_4 H 0.081494 0.464013 0.806712
C50_4 C 0.0348(2) 0.39336(10) 0.78551(4)
H32_4 H 0.027677 0.378207 0.775759
H33_4 H 0.023725 0.346594 0.829365
H46_5 H 0.002396 0.198600 0.800004
N22_6 N 0.1543(2) 0.42472(9) 0.74959(4)
Zn2_4 Zn 0.14701(3) 0.78695(2) 0.76643(2)
O3_4 O 0.0255(2) 0.76285(10) 0.77061(4)
O4_4 O 0.1172(2) 0.73392(10) 0.78811(5)
O6_4 O 0.0572(2) 0.68641(12) 0.80945(5)
H2_4 H 0.096172 0.699865 0.804341
O7_4 O 0.25507(17) 0.76014(7) 0.75791(3)
O8_4 O 0.31258(17) 0.82094(7) 0.75572(3)
O9_4 O 0.48249(18) 0.83156(7) 0.75161(3)
H3_4 H 0.427268 0.837927 0.752329
N4_4 N 0.1846(2) 0.81988(9) 0.78611(4)
N5_4 N 0.2167(3) 0.83996(10) 0.81184(4)
N6_4 N 0.2345(2) 0.86934(9) 0.80057(4)
C8_4 C 0.0385(3) 0.74013(12) 0.78256(6)
C9_4 C 0.4134(2) 0.76628(10) 0.75242(4)
C10_4 C 0.4898(2) 0.79125(10) 0.75081(4)
C11_4 C 0.5751(2) 0.77466(10) 0.74837(4)
H6_4 H 0.626661 0.791486 0.747207
C12_4 C 0.3210(2) 0.78363(10) 0.75539(4)
C13_4 C 0.1869(3) 0.81098(11) 0.80247(5)
H7_4 H 0.168506 0.785987 0.806712
C14_4 C 0.2152(2) 0.85664(10) 0.78551(4)
H8_4 H 0.222323 0.871793 0.775759
C15_4 C 0.2682(3) 0.90710(11) 0.80554(4)
C16_4 C 0.2560(3) 0.91993(11) 0.82159(4)
H9_4 H 0.226275 0.903406 0.829365
C17_4 C 0.2876(3) 0.95693(12) 0.82617(5)
H10_4 H 0.278581 0.965999 0.837092
C18_4 C 0.3325(3) 0.98109(11) 0.81482(4)
C19_4 C 0.3445(3) 0.96768(11) 0.79872(4)
H11_4 H 0.374475 0.984015 0.790908
C20_4 C 0.3127(3) 0.93072(11) 0.79414(4)
H12_4 H 0.321314 0.921532 0.783228
H15_4 H 0.520987 0.982946 0.864716
C25_4 C 0.4501(3) 0.99539(12) 0.84361(5)
H16_4 H 0.453604 0.969505 0.839055
O10_6 O 0.74493(17) 0.73986(7) 0.74209(3)
O11_6 O 0.68742(17) 0.67906(7) 0.74428(3)
O12_6 O 0.51751(18) 0.66844(7) 0.74839(3)
H25_6 H 0.572732 0.662073 0.747671
C37_6 C 0.5866(2) 0.73372(10) 0.74758(4)
C38_6 C 0.5102(2) 0.70875(10) 0.74919(4)
C39_4 C 0.4249(2) 0.72534(10) 0.75163(4)
H26_4 H 0.373339 0.708514 0.752793
C40_6 C 0.6790(2) 0.71637(10) 0.74461(4)
N21_4 N 0.0957(2) 0.82528(9) 0.74959(4)
O5_4 O 0.7125(2) 0.71523(14) 0.78552(5)
H1_4 H 0.675117 0.698720 0.789297
C1_4 C 0.8110(3) 0.68388(12) 0.80545(5)
C2_4 C 0.7967(3) 0.70821(13) 0.79203(5)
C3_4 C 0.8709(3) 0.72714(13) 0.78466(5)
H4_4 H 0.861105 0.744618 0.775690
C4_4 C 0.9582(3) 0.72064(12) 0.79031(5)
C5_4 C 0.9726(3) 0.69477(12) 0.80355(6)
C6_4 C 0.8984(3) 0.67709(13) 0.81114(5)
H5_4 H 0.907754 0.660185 0.820318
C7_4 C 0.7319(3) 0.66519(13) 0.81410(5)
O8_5 O 0.93742(17) 0.32094(7) 0.99428(3)
O9_5 O 0.76751(18) 0.33156(7) 0.99839(3)
H3_5 H 0.822732 0.337927 0.997671
C9_5 C 0.8366(2) 0.26628(10) 0.99758(4)
C10_5 C 0.7602(2) 0.29125(10) 0.99919(4)
C12_5 C 0.9290(2) 0.28363(10) 0.99461(4)
C39_5 C 0.8251(2) 0.22534(10) 0.99837(4)
H26_5 H 0.876661 0.208514 0.997207
O8_6 O 0.81258(17) 0.32094(7) 0.75572(3)
O9_6 O 0.98249(18) 0.33156(7) 0.75161(3)
H3_6 H 0.927268 0.337927 0.752329
C9_6 C 0.9134(2) 0.26628(10) 0.75242(4)
C10_6 C 0.9898(2) 0.29125(10) 0.75081(4)
C12_6 C 0.8210(2) 0.28363(10) 0.75539(4)
C39_6 C 0.9249(2) 0.22534(10) 0.75163(4)
H26_6 H 0.873339 0.208514 0.752793
O10_7 O 0.24493(17) 0.01014(7) 0.50791(3)
O11_7 O 0.18742(17) 0.07094(7) 0.50572(3)
O12_7 O 0.01751(18) 0.08156(7) 0.50161(3)
H25_7 H 0.072732 0.087927 0.502329
C37_7 C 0.0866(2) 0.01628(10) 0.50242(4)
C38_7 C 0.0102(2) 0.04125(10) 0.50081(4)
C40_7 C 0.1790(2) 0.03363(10) 0.50539(4)
O8_7 O 0.81258(17) 0.92906(7) 0.49428(3)
O9_7 O 0.98249(18) 0.91844(7) 0.49839(3)
H3_7 H 0.927268 0.912073 0.497671
C9_7 C 0.9134(2) 0.98372(10) 0.49758(4)
C10_7 C 0.9898(2) 0.95875(10) 0.49919(4)
C12_7 C 0.8210(2) 0.96637(10) 0.49461(4)
O8_8 O 0.93742(17) 0.92906(7) 0.25572(3)
O9_8 O 0.76751(18) 0.91844(7) 0.25161(3)
H3_8 H 0.822732 0.912073 0.252329
C9_8 C 0.8366(2) 0.98372(10) 0.25242(4)
C10_8 C 0.7602(2) 0.95875(10) 0.25081(4)
C11_5 C 0.6749(2) 0.97534(10) 0.24837(4)
H6_5 H 0.623339 0.958514 0.247207
C12_8 C 0.9290(2) 0.96637(10) 0.25539(4)
C11_6 C 0.0751(2) 0.77466(10) 0.24837(4)
H6_6 H 0.126661 0.791486 0.247207
O10_8 O 0.24493(17) 0.73986(7) 0.24209(3)
O11_8 O 0.18742(17) 0.67906(7) 0.24428(3)
O12_8 O 0.01751(18) 0.66844(7) 0.24839(3)
H25_8 H 0.072732 0.662073 0.247671
C37_8 C 0.0866(2) 0.73372(10) 0.24758(4)
C38_8 C 0.0102(2) 0.70875(10) 0.24919(4)
C40_8 C 0.1790(2) 0.71637(10) 0.24461(4)
O1_2 O 0.2518(2) 0.39183(9) 0.57578(4)
O2_2 O 0.3471(2) 0.42296(13) 0.55981(5)
O5_5 O 0.2875(2) 0.46523(14) 0.53552(5)
H1_5 H 0.324883 0.448720 0.539297
C1_5 C 0.1890(3) 0.43388(12) 0.55545(5)
C2_5 C 0.2033(3) 0.45821(13) 0.54203(5)
C3_5 C 0.1291(3) 0.47714(13) 0.53466(5)
H4_5 H 0.138895 0.494618 0.525690
C4_5 C 0.0418(3) 0.47064(12) 0.54031(5)
C5_5 C 0.0274(3) 0.44477(12) 0.55355(6)
C6_5 C 0.1016(3) 0.42709(13) 0.56114(5)
H5_5 H 0.092246 0.410185 0.570318
C7_5 C 0.2681(3) 0.41519(13) 0.56410(5)
Zn4 Zn 0.375000 0.375000 0.58321(2)
Zn1_4 Zn 0.375000 0.875000 0.66679(2)
O3_5 O 0.9745(2) 0.51285(10) 0.52061(4)
O4_5 O 0.8828(2) 0.48392(10) 0.53811(5)
O6_5 O 0.9428(2) 0.43641(12) 0.55945(5)
H2_5 H 0.903828 0.449865 0.554341
N1_5 N 0.4135(2) 0.83064(10) 0.65130(4)
N2_5 N 0.4501(3) 0.77046(11) 0.64112(5)
N3_5 N 0.4738(2) 0.79981(10) 0.63055(4)
N4_5 N 0.8154(2) 0.56988(9) 0.53611(4)
N5_5 N 0.7833(3) 0.58996(10) 0.56184(4)
N6_5 N 0.7655(2) 0.61934(9) 0.55057(4)
N8_5 N 0.4916(2) 0.89469(11) 0.51630(5)
N9_5 N 0.5778(2) 0.88176(9) 0.52001(4)
N10_5 N 0.6344(2) 0.76859(9) 0.56951(4)
C8_5 C 0.9615(3) 0.49013(12) 0.53256(6)
C13_5 C 0.8131(3) 0.56098(11) 0.55247(5)
H7_5 H 0.831494 0.535987 0.556712
C14_5 C 0.7848(2) 0.60664(10) 0.53551(4)
H8_5 H 0.777677 0.621793 0.525759
C15_5 C 0.7318(3) 0.65710(11) 0.55554(4)
C16_5 C 0.7440(3) 0.66993(11) 0.57159(4)
H9_5 H 0.773725 0.653406 0.579365
C17_5 C 0.7124(3) 0.70693(12) 0.57617(5)
H10_5 H 0.721419 0.715999 0.587092
C18_5 C 0.6675(3) 0.73109(11) 0.56482(4)
C19_5 C 0.6555(3) 0.71768(11) 0.54872(4)
H11_5 H 0.625525 0.734015 0.540908
C20_5 C 0.6873(3) 0.68072(11) 0.54414(4)
H12_5 H 0.678686 0.671532 0.533228
C21_5 C 0.4156(3) 0.79086(13) 0.65362(5)
H13_5 H 0.394319 0.778564 0.663386
C22_5 C 0.4511(3) 0.83512(12) 0.63662(5)
H14_5 H 0.460545 0.859780 0.631242
C23_5 C 0.5157(3) 0.79111(11) 0.61509(4)
C24_5 C 0.5097(3) 0.75325(12) 0.60882(5)
H15_5 H 0.479013 0.732946 0.614716
C25_5 C 0.5499(3) 0.74539(12) 0.59361(5)
H16_5 H 0.546396 0.719505 0.589055
C26_5 C 0.5947(3) 0.77522(12) 0.58512(4)
C27_5 C 0.5997(3) 0.81320(12) 0.59176(5)
H17_5 H 0.630482 0.833645 0.585955
C28_5 C 0.5598(3) 0.82117(12) 0.60684(5)
H18_5 H 0.562935 0.847028 0.611432
C29_5 C 0.5058(3) 0.92044(13) 0.50459(5)
H19_3 H 0.458067 0.934883 0.499440
C30_5 C 0.6384(2) 0.90020(10) 0.51054(4)
H20_5 H 0.702519 0.896358 0.510982
C31_5 C 0.5925(3) 0.85321(10) 0.53274(4)
C32_5 C 0.6792(3) 0.83891(12) 0.53560(5)
H21_5 H 0.729085 0.847935 0.529170
C33_5 C 0.6928(3) 0.81129(12) 0.54794(5)
H22_5 H 0.752396 0.801400 0.550004
C34_5 C 0.6203(3) 0.79804(11) 0.55727(4)
C35_5 C 0.5353(3) 0.81362(13) 0.55453(6)
H23_5 H 0.485840 0.805446 0.561261
C36_5 C 0.5201(3) 0.84092(13) 0.54221(6)
H24_5 H 0.460584 0.851064 0.540296
N11_5 N 0.3365(2) 0.91936(10) 0.65130(4)
N12_5 N 0.2999(3) 0.97954(11) 0.64112(5)
N13_5 N 0.2762(2) 0.95019(10) 0.63055(4)
N18_5 N 0.2584(2) 0.85531(11) 0.51630(5)
N19_7 N 0.1722(2) 0.86824(9) 0.52001(4)
N20_7 N 0.1156(2) 0.98141(9) 0.56951(4)
C57_5 C 0.3344(3) 0.95914(13) 0.65362(5)
H37_5 H 0.355681 0.971436 0.663386
C58_5 C 0.2989(3) 0.91488(12) 0.63662(5)
H38_5 H 0.289455 0.890220 0.631242
C59_7 C 0.2343(3) 0.95889(11) 0.61509(4)
C60_7 C 0.2403(3) 0.99675(12) 0.60882(5)
C62_7 C 0.1553(3) 0.97478(12) 0.58512(4)
C63_7 C 0.1503(3) 0.93680(12) 0.59176(5)
H41_7 H 0.119518 0.916355 0.585955
C64_7 C 0.1902(3) 0.92883(12) 0.60684(5)
H42_7 H 0.187065 0.902972 0.611432
C65_7 C 0.2442(3) 0.82956(13) 0.50459(5)
H43_3 H 0.291933 0.815117 0.499440
C66_7 C 0.1116(2) 0.84980(10) 0.51054(4)
H44_7 H 0.047481 0.853642 0.510982
C67_7 C 0.1575(3) 0.89679(10) 0.53274(4)
C68_7 C 0.0708(3) 0.91109(12) 0.53560(5)
H45_7 H 0.020915 0.902065 0.529170
C69_7 C 0.0572(3) 0.93871(12) 0.54794(5)
C70_7 C 0.1297(3) 0.95196(11) 0.55727(4)
C71_7 C 0.2147(3) 0.93638(13) 0.55453(6)
H47_5 H 0.264160 0.944554 0.561261
C72_7 C 0.2299(3) 0.90908(13) 0.54221(6)
H48_5 H 0.289416 0.898936 0.540296
O19_4 O 0.2518(2) 0.85817(9) 0.67422(4)
O20_4 O 0.4982(2) 0.89183(9) 0.67422(4)
O21_4 O 0.3471(2) 0.82704(13) 0.69019(5)
O22_4 O 0.4029(2) 0.92296(13) 0.69019(5)
O13_2 O 0.4982(2) 0.35817(9) 0.57578(4)
O14_2 O 0.4029(2) 0.32704(13) 0.55981(5)
O15_5 O 0.7755(2) 0.23715(10) 0.52061(4)
O16_5 O 0.8672(2) 0.26608(10) 0.53811(5)
O17_5 O 0.4625(2) 0.28477(14) 0.53552(5)
H27_5 H 0.425117 0.301280 0.539297
O18_5 O 0.8072(2) 0.31359(12) 0.55945(5)
H28_5 H 0.846172 0.300135 0.554341
N14_5 N 0.9346(2) 0.18012(9) 0.53611(4)
N15_5 N 0.9667(3) 0.16004(10) 0.56184(4)
N16_5 N 0.9845(2) 0.13066(9) 0.55057(4)
C41_5 C 0.5610(3) 0.31612(12) 0.55545(5)
C42_5 C 0.5467(3) 0.29179(13) 0.54203(5)
C43_5 C 0.6209(3) 0.27286(13) 0.53466(5)
H29_5 H 0.611105 0.255382 0.525690
C44_5 C 0.7082(3) 0.27936(12) 0.54031(5)
C45_5 C 0.7226(3) 0.30523(12) 0.55355(6)
C46_5 C 0.6484(3) 0.32291(13) 0.56114(5)
H30_5 H 0.657754 0.339815 0.570318
C47_5 C 0.4819(3) 0.33481(13) 0.56410(5)
C48_5 C 0.7885(3) 0.25987(12) 0.53256(6)
C49_5 C 0.9369(3) 0.18902(11) 0.55247(5)
H31_5 H 0.918506 0.214013 0.556712
C50_5 C 0.9652(2) 0.14336(10) 0.53551(4)
H32_5 H 0.972323 0.128207 0.525759
H33_5 H 0.976275 0.096594 0.579365
O15_6 O 0.4745(2) 0.01285(10) 0.52061(4)
N14_6 N 0.3154(2) 0.06988(9) 0.53611(4)
N15_6 N 0.2833(3) 0.08996(10) 0.56184(4)
N16_6 N 0.2655(2) 0.11934(9) 0.55057(4)
N19_8 N 0.0778(2) 0.38176(9) 0.52001(4)
N20_8 N 0.1344(2) 0.26859(9) 0.56951(4)
C49_6 C 0.3131(3) 0.06098(11) 0.55247(5)
H31_6 H 0.331494 0.035987 0.556712
C50_6 C 0.2848(2) 0.10664(10) 0.53551(4)
H32_6 H 0.277677 0.121793 0.525759
C51_5 C 0.2318(3) 0.15710(11) 0.55554(4)
C52_5 C 0.2440(3) 0.16993(11) 0.57159(4)
H33_6 H 0.273725 0.153406 0.579365
C53_5 C 0.2124(3) 0.20693(12) 0.57617(5)
H34_5 H 0.221419 0.215999 0.587092
C54_5 C 0.1675(3) 0.23109(11) 0.56482(4)
C55_5 C 0.1555(3) 0.21768(11) 0.54872(4)
H35_5 H 0.125525 0.234015 0.540908
C56_5 C 0.1873(3) 0.18072(11) 0.54414(4)
H36_5 H 0.178686 0.171532 0.533228
C59_8 C 0.0157(3) 0.29111(11) 0.61509(4)
C60_8 C 0.0097(3) 0.25325(12) 0.60882(5)
C61_5 C 0.0499(3) 0.24539(12) 0.59361(5)
H40_5 H 0.046396 0.219505 0.589055
C62_8 C 0.0947(3) 0.27522(12) 0.58512(4)
C63_8 C 0.0997(3) 0.31320(12) 0.59176(5)
H41_8 H 0.130482 0.333645 0.585955
C64_8 C 0.0598(3) 0.32117(12) 0.60684(5)
H42_8 H 0.062935 0.347028 0.611432
C65_8 C 0.0058(3) 0.42044(13) 0.50459(5)
C66_8 C 0.1384(2) 0.40020(10) 0.51054(4)
H44_8 H 0.202519 0.396358 0.510982
C67_8 C 0.0925(3) 0.35321(10) 0.53274(4)
C68_8 C 0.1792(3) 0.33891(12) 0.53560(5)
H45_8 H 0.229085 0.347935 0.529170
C69_8 C 0.1928(3) 0.31129(12) 0.54794(5)
H46_6 H 0.252396 0.301400 0.550004
C70_8 C 0.1203(3) 0.29804(11) 0.55727(4)
C71_8 C 0.0353(3) 0.31362(13) 0.55453(6)
C72_8 C 0.0201(3) 0.34092(13) 0.54221(6)
N19_9 N 0.0778(2) 0.86824(9) 0.72999(4)
N20_9 N 0.1344(2) 0.98141(9) 0.68049(4)
C59_9 C 0.0157(3) 0.95889(11) 0.63491(4)
C60_9 C 0.0097(3) 0.99675(12) 0.64118(5)
C62_9 C 0.0947(3) 0.97478(12) 0.66488(4)
C63_9 C 0.0997(3) 0.93680(12) 0.65824(5)
H41_9 H 0.130482 0.916355 0.664045
C64_9 C 0.0598(3) 0.92883(12) 0.64316(5)
H42_9 H 0.062935 0.902972 0.638568
C65_9 C 0.0058(3) 0.82956(13) 0.74541(5)
C66_9 C 0.1384(2) 0.84980(10) 0.73946(4)
H44_9 H 0.202519 0.853642 0.739018
C67_9 C 0.0925(3) 0.89679(10) 0.71726(4)
C68_9 C 0.1792(3) 0.91109(12) 0.71440(5)
H45_9 H 0.229085 0.902065 0.720830
C69_9 C 0.1928(3) 0.93871(12) 0.70206(5)
H46_7 H 0.252396 0.948600 0.699996
C70_9 C 0.1203(3) 0.95196(11) 0.69273(4)
C71_9 C 0.0353(3) 0.93638(13) 0.69547(6)
C72_9 C 0.0201(3) 0.90908(13) 0.70779(6)
H39_5 H 0.979013 0.017054 0.635284
O5_6 O 0.2875(2) 0.78477(14) 0.71448(5)
H1_6 H 0.324883 0.801280 0.710703
C1_6 C 0.1890(3) 0.81612(12) 0.69455(5)
C2_6 C 0.2033(3) 0.79179(13) 0.70797(5)
C3_6 C 0.1291(3) 0.77286(13) 0.71534(5)
H4_6 H 0.138895 0.755382 0.724310
C4_6 C 0.0418(3) 0.77936(12) 0.70969(5)
C5_6 C 0.0274(3) 0.80523(12) 0.69645(6)
C6_6 C 0.1016(3) 0.82291(13) 0.68886(5)
H5_6 H 0.092246 0.839815 0.679682
C7_6 C 0.2681(3) 0.83481(13) 0.68590(5)
O3_6 O 0.9745(2) 0.73715(10) 0.72939(4)
O4_6 O 0.8828(2) 0.76608(10) 0.71189(5)
O6_6 O 0.9428(2) 0.81359(12) 0.69055(5)
H2_6 H 0.903828 0.800135 0.695659
N1_6 N 0.4135(2) 0.41936(10) 0.59870(4)
N2_6 N 0.4501(3) 0.47954(11) 0.60888(5)
N3_6 N 0.4738(2) 0.45019(10) 0.61945(4)
N4_6 N 0.8154(2) 0.68012(9) 0.71389(4)
N5_6 N 0.7833(3) 0.66004(10) 0.68816(4)
N6_6 N 0.7655(2) 0.63066(9) 0.69943(4)
N8_6 N 0.4916(2) 0.35531(11) 0.73370(5)
N9_6 N 0.5778(2) 0.36824(9) 0.72999(4)
N10_6 N 0.6344(2) 0.48141(9) 0.68049(4)
C8_6 C 0.9615(3) 0.75987(12) 0.71744(6)
C13_6 C 0.8131(3) 0.68902(11) 0.69753(5)
H7_6 H 0.831494 0.714013 0.693288
C14_6 C 0.7848(2) 0.64336(10) 0.71449(4)
H8_6 H 0.777677 0.628207 0.724241
C15_6 C 0.7318(3) 0.59290(11) 0.69446(4)
C16_6 C 0.7440(3) 0.58007(11) 0.67841(4)
H9_6 H 0.773725 0.596594 0.670635
C17_6 C 0.7124(3) 0.54307(12) 0.67383(5)
H10_6 H 0.721419 0.534001 0.662908
C18_6 C 0.6675(3) 0.51891(11) 0.68518(4)
C19_6 C 0.6555(3) 0.53232(11) 0.70128(4)
H11_6 H 0.625525 0.515985 0.709092
C20_6 C 0.6873(3) 0.56928(11) 0.70586(4)
H12_6 H 0.678686 0.578468 0.716772
C21_6 C 0.4156(3) 0.45914(13) 0.59638(5)
H13_6 H 0.394319 0.471436 0.586614
C22_6 C 0.4511(3) 0.41488(12) 0.61338(5)
H14_6 H 0.460545 0.390220 0.618758
C23_6 C 0.5157(3) 0.45889(11) 0.63491(4)
C24_6 C 0.5097(3) 0.49675(12) 0.64118(5)
H15_6 H 0.479013 0.517054 0.635284
C25_6 C 0.5499(3) 0.50461(12) 0.65639(5)
H16_6 H 0.546396 0.530495 0.660945
C26_6 C 0.5947(3) 0.47478(12) 0.66488(4)
C27_6 C 0.5997(3) 0.43680(12) 0.65824(5)
H17_6 H 0.630482 0.416355 0.664045
C28_6 C 0.5598(3) 0.42883(12) 0.64316(5)
H18_6 H 0.562935 0.402972 0.638568
C29_6 C 0.5058(3) 0.32956(13) 0.74541(5)
H19_4 H 0.458067 0.315117 0.750560
C30_6 C 0.6384(2) 0.34980(10) 0.73946(4)
H20_6 H 0.702519 0.353642 0.739018
C31_6 C 0.5925(3) 0.39679(10) 0.71726(4)
C32_6 C 0.6792(3) 0.41109(12) 0.71440(5)
H21_6 H 0.729085 0.402065 0.720830
C33_6 C 0.6928(3) 0.43871(12) 0.70206(5)
H22_6 H 0.752396 0.448600 0.699996
C34_6 C 0.6203(3) 0.45196(11) 0.69273(4)
C35_6 C 0.5353(3) 0.43638(13) 0.69547(6)
H23_6 H 0.485840 0.444554 0.688739
C36_6 C 0.5201(3) 0.40908(13) 0.70779(6)
H24_6 H 0.460584 0.398936 0.709704
N11_6 N 0.3365(2) 0.33064(10) 0.59870(4)
N12_6 N 0.2999(3) 0.27046(11) 0.60888(5)
N13_6 N 0.2762(2) 0.29981(10) 0.61945(4)
N18_6 N 0.2584(2) 0.39469(11) 0.73370(5)
N19_10 N 0.1722(2) 0.38176(9) 0.72999(4)
N20_10 N 0.1156(2) 0.26859(9) 0.68049(4)
C51_6 C 0.0182(3) 0.15710(11) 0.69446(4)
C52_6 C 0.0060(3) 0.16993(11) 0.67841(4)
C53_6 C 0.0376(3) 0.20693(12) 0.67383(5)
H34_6 H 0.028581 0.215999 0.662908
C54_6 C 0.0825(3) 0.23109(11) 0.68518(4)
C55_6 C 0.0945(3) 0.21768(11) 0.70128(4)
H35_6 H 0.124475 0.234015 0.709092
C56_6 C 0.0627(3) 0.18072(11) 0.70586(4)
H36_6 H 0.071314 0.171532 0.716772
C57_6 C 0.3344(3) 0.29086(13) 0.59638(5)
H37_6 H 0.355681 0.278564 0.586614
C58_6 C 0.2989(3) 0.33512(12) 0.61338(5)
H38_6 H 0.289455 0.359780 0.618758
C59_10 C 0.2343(3) 0.29111(11) 0.63491(4)
C60_10 C 0.2403(3) 0.25325(12) 0.64118(5)
H39_6 H 0.270987 0.232946 0.635284
C61_6 C 0.2001(3) 0.24539(12) 0.65639(5)
H40_6 H 0.203604 0.219505 0.660945
C62_10 C 0.1553(3) 0.27522(12) 0.66488(4)
C63_10 C 0.1503(3) 0.31320(12) 0.65824(5)
H41_10 H 0.119518 0.333645 0.664045
C64_10 C 0.1902(3) 0.32117(12) 0.64316(5)
H42_10 H 0.187065 0.347028 0.638568
C65_10 C 0.2442(3) 0.42044(13) 0.74541(5)
H43_4 H 0.291933 0.434883 0.750560
C66_10 C 0.1116(2) 0.40020(10) 0.73946(4)
H44_10 H 0.047481 0.396358 0.739018
C67_10 C 0.1575(3) 0.35321(10) 0.71726(4)
C68_10 C 0.0708(3) 0.33891(12) 0.71440(5)
H45_10 H 0.020915 0.347935 0.720830
C69_10 C 0.0572(3) 0.31129(12) 0.70206(5)
C70_10 C 0.1297(3) 0.29804(11) 0.69273(4)
C71_10 C 0.2147(3) 0.31362(13) 0.69547(6)
H47_6 H 0.264160 0.305446 0.688739
C72_10 C 0.2299(3) 0.34092(13) 0.70779(6)
H48_6 H 0.289416 0.351064 0.709704
O16_6 O 0.8672(2) 0.98392(10) 0.71189(5)
O17_6 O 0.4625(2) 0.96523(14) 0.71448(5)
H27_6 H 0.425117 0.948720 0.710703
O18_6 O 0.8072(2) 0.93641(12) 0.69055(5)
H28_6 H 0.846172 0.949865 0.695659
C41_6 C 0.5610(3) 0.93388(12) 0.69455(5)
C42_6 C 0.5467(3) 0.95821(13) 0.70797(5)
C43_6 C 0.6209(3) 0.97714(13) 0.71534(5)
H29_6 H 0.611105 0.994618 0.724310
C44_6 C 0.7082(3) 0.97064(12) 0.70969(5)
C45_6 C 0.7226(3) 0.94477(12) 0.69645(6)
C46_6 C 0.6484(3) 0.92709(13) 0.68886(5)
H30_6 H 0.657754 0.910185 0.679682
C47_6 C 0.4819(3) 0.91519(13) 0.68590(5)
C48_6 C 0.7885(3) 0.99013(12) 0.71744(6)
Zn1_5 Zn 0.375000 0.375000 0.16679(2)
O3_7 O 0.9745(2) 0.01285(10) 0.02061(4)
N1_7 N 0.4135(2) 0.33064(10) 0.15130(4)
N2_7 N 0.4501(3) 0.27046(11) 0.14112(5)
N3_7 N 0.4738(2) 0.29981(10) 0.13055(4)
N4_7 N 0.8154(2) 0.06988(9) 0.03611(4)
N5_7 N 0.7833(3) 0.08996(10) 0.06184(4)
N6_7 N 0.7655(2) 0.11934(9) 0.05057(4)
N8_7 N 0.4916(2) 0.39469(11) 0.01630(5)
N9_7 N 0.5778(2) 0.38176(9) 0.02001(4)
N10_7 N 0.6344(2) 0.26859(9) 0.06951(4)
C13_7 C 0.8131(3) 0.06098(11) 0.05247(5)
H7_7 H 0.831494 0.035987 0.056712
C14_7 C 0.7848(2) 0.10664(10) 0.03551(4)
H8_7 H 0.777677 0.121793 0.025759
C15_7 C 0.7318(3) 0.15710(11) 0.05554(4)
C16_7 C 0.7440(3) 0.16993(11) 0.07159(4)
H9_7 H 0.773725 0.153406 0.079365
C17_7 C 0.7124(3) 0.20693(12) 0.07617(5)
H10_7 H 0.721419 0.215999 0.087092
C18_7 C 0.6675(3) 0.23109(11) 0.06482(4)
C19_7 C 0.6555(3) 0.21768(11) 0.04872(4)
H11_7 H 0.625525 0.234015 0.040908
C20_7 C 0.6873(3) 0.18072(11) 0.04414(4)
H12_7 H 0.678686 0.171532 0.033228
C21_7 C 0.4156(3) 0.29086(13) 0.15362(5)
H13_7 H 0.394319 0.278564 0.163386
C22_7 C 0.4511(3) 0.33512(12) 0.13662(5)
H14_7 H 0.460545 0.359780 0.131242
C23_7 C 0.5157(3) 0.29111(11) 0.11509(4)
C24_7 C 0.5097(3) 0.25325(12) 0.10882(5)
H15_7 H 0.479013 0.232946 0.114716
C25_7 C 0.5499(3) 0.24539(12) 0.09361(5)
H16_7 H 0.546396 0.219505 0.089055
C26_7 C 0.5947(3) 0.27522(12) 0.08512(4)
C27_7 C 0.5997(3) 0.31320(12) 0.09176(5)
H17_7 H 0.630482 0.333645 0.085955
C28_7 C 0.5598(3) 0.32117(12) 0.10684(5)
H18_7 H 0.562935 0.347028 0.111432
C29_7 C 0.5058(3) 0.42044(13) 0.00459(5)
C30_7 C 0.6384(2) 0.40020(10) 0.01054(4)
H20_7 H 0.702519 0.396358 0.010982
C31_7 C 0.5925(3) 0.35321(10) 0.03274(4)
C32_7 C 0.6792(3) 0.33891(12) 0.03560(5)
H21_7 H 0.729085 0.347935 0.029170
C33_7 C 0.6928(3) 0.31129(12) 0.04794(5)
H22_7 H 0.752396 0.301400 0.050004
C34_7 C 0.6203(3) 0.29804(11) 0.05727(4)
C35_7 C 0.5353(3) 0.31362(13) 0.05453(6)
H23_7 H 0.485840 0.305446 0.061261
C36_7 C 0.5201(3) 0.34092(13) 0.04221(6)
H24_7 H 0.460584 0.351064 0.040296
N11_7 N 0.3365(2) 0.41936(10) 0.15130(4)
N12_7 N 0.2999(3) 0.47954(11) 0.14112(5)
N13_7 N 0.2762(2) 0.45019(10) 0.13055(4)
N18_7 N 0.2584(2) 0.35531(11) 0.01630(5)
N19_11 N 0.1722(2) 0.36824(9) 0.02001(4)
N20_11 N 0.1156(2) 0.48141(9) 0.06951(4)
C51_7 C 0.0182(3) 0.59290(11) 0.05554(4)
C52_7 C 0.0060(3) 0.58007(11) 0.07159(4)
C53_7 C 0.0376(3) 0.54307(12) 0.07617(5)
H34_7 H 0.028581 0.534001 0.087092
C54_7 C 0.0825(3) 0.51891(11) 0.06482(4)
C55_7 C 0.0945(3) 0.53232(11) 0.04872(4)
H35_7 H 0.124475 0.515985 0.040908
C56_7 C 0.0627(3) 0.56928(11) 0.04414(4)
H36_7 H 0.071314 0.578468 0.033228
C57_7 C 0.3344(3) 0.45914(13) 0.15362(5)
H37_7 H 0.355681 0.471436 0.163386
C58_7 C 0.2989(3) 0.41488(12) 0.13662(5)
H38_7 H 0.289455 0.390220 0.131242
C59_11 C 0.2343(3) 0.45889(11) 0.11509(4)
C60_11 C 0.2403(3) 0.49675(12) 0.10882(5)
H39_7 H 0.270987 0.517054 0.114716
C61_7 C 0.2001(3) 0.50461(12) 0.09361(5)
H40_7 H 0.203604 0.530495 0.089055
C62_11 C 0.1553(3) 0.47478(12) 0.08512(4)
C63_11 C 0.1503(3) 0.43680(12) 0.09176(5)
H41_11 H 0.119518 0.416355 0.085955
C64_11 C 0.1902(3) 0.42883(12) 0.10684(5)
H42_11 H 0.187065 0.402972 0.111432
C65_11 C 0.2442(3) 0.32956(13) 0.00459(5)
C66_11 C 0.1116(2) 0.34980(10) 0.01054(4)
H44_11 H 0.047481 0.353642 0.010982
C67_11 C 0.1575(3) 0.39679(10) 0.03274(4)
C68_11 C 0.0708(3) 0.41109(12) 0.03560(5)
H45_11 H 0.020915 0.402065 0.029170
C69_11 C 0.0572(3) 0.43871(12) 0.04794(5)
C70_11 C 0.1297(3) 0.45196(11) 0.05727(4)
C71_11 C 0.2147(3) 0.43638(13) 0.05453(6)
H47_7 H 0.264160 0.444554 0.061261
C72_11 C 0.2299(3) 0.40908(13) 0.04221(6)
H48_7 H 0.289416 0.398936 0.040296
O19_5 O 0.2518(2) 0.35817(9) 0.17422(4)
O20_5 O 0.4982(2) 0.39183(9) 0.17422(4)
O21_5 O 0.3471(2) 0.32704(13) 0.19019(5)
O22_5 O 0.4029(2) 0.42296(13) 0.19019(5)
Zn1_6 Zn 0.875000 0.875000 0.16679(2)
N1_8 N 0.8365(2) 0.91936(10) 0.15130(4)
N2_8 N 0.7999(3) 0.97954(11) 0.14112(5)
N3_8 N 0.7762(2) 0.95019(10) 0.13055(4)
N8_8 N 0.7584(2) 0.85531(11) 0.01630(5)
N9_8 N 0.6722(2) 0.86824(9) 0.02001(4)
N10_8 N 0.6156(2) 0.98141(9) 0.06951(4)
C21_8 C 0.8344(3) 0.95914(13) 0.15362(5)
H13_8 H 0.855681 0.971436 0.163386
C22_8 C 0.7989(3) 0.91488(12) 0.13662(5)
H14_8 H 0.789455 0.890220 0.131242
C23_8 C 0.7343(3) 0.95889(11) 0.11509(4)
C24_8 C 0.7403(3) 0.99675(12) 0.10882(5)
C26_8 C 0.6553(3) 0.97478(12) 0.08512(4)
C27_8 C 0.6503(3) 0.93680(12) 0.09176(5)
H17_8 H 0.619518 0.916355 0.085955
C28_8 C 0.6902(3) 0.92883(12) 0.10684(5)
H18_8 H 0.687065 0.902972 0.111432
C29_8 C 0.7442(3) 0.82956(13) 0.00459(5)
C30_8 C 0.6116(2) 0.84980(10) 0.01054(4)
H20_8 H 0.547481 0.853642 0.010982
C31_8 C 0.6575(3) 0.89679(10) 0.03274(4)
C32_8 C 0.5708(3) 0.91109(12) 0.03560(5)
H21_8 H 0.520915 0.902065 0.029170
C33_8 C 0.5572(3) 0.93871(12) 0.04794(5)
H22_8 H 0.497604 0.948600 0.050004
C34_8 C 0.6297(3) 0.95196(11) 0.05727(4)
C35_8 C 0.7147(3) 0.93638(13) 0.05453(6)
H23_8 H 0.764160 0.944554 0.061261
C36_8 C 0.7299(3) 0.90908(13) 0.04221(6)
H24_8 H 0.789416 0.898936 0.040296
N11_8 N 0.9135(2) 0.83064(10) 0.15130(4)
N12_8 N 0.9501(3) 0.77046(11) 0.14112(5)
N13_8 N 0.9738(2) 0.79981(10) 0.13055(4)
N18_8 N 0.9916(2) 0.89469(11) 0.01630(5)
C57_8 C 0.9156(3) 0.79086(13) 0.15362(5)
H37_8 H 0.894319 0.778564 0.163386
C58_8 C 0.9511(3) 0.83512(12) 0.13662(5)
H38_8 H 0.960545 0.859780 0.131242
H39_8 H 0.979013 0.732946 0.114716
H47_8 H 0.985840 0.805446 0.061261
H48_8 H 0.960584 0.851064 0.040296
O19_6 O 0.9982(2) 0.89183(9) 0.17422(4)
O20_6 O 0.7518(2) 0.85817(9) 0.17422(4)
O21_6 O 0.9029(2) 0.92296(13) 0.19019(5)
O22_6 O 0.8471(2) 0.82704(13) 0.19019(5)
O15_7 O 0.4745(2) 0.73715(10) 0.22939(4)
O16_7 O 0.3828(2) 0.76608(10) 0.21189(5)
O17_7 O 0.7875(2) 0.78477(14) 0.21448(5)
H27_7 H 0.824883 0.801280 0.210703
O18_7 O 0.4428(2) 0.81359(12) 0.19055(5)
H28_7 H 0.403828 0.800135 0.195659
N14_7 N 0.3154(2) 0.68012(9) 0.21389(4)
N15_7 N 0.2833(3) 0.66004(10) 0.18816(4)
N16_7 N 0.2655(2) 0.63066(9) 0.19943(4)
N19_12 N 0.0778(2) 0.36824(9) 0.22999(4)
N20_12 N 0.1344(2) 0.48141(9) 0.18049(4)
C41_7 C 0.6890(3) 0.81612(12) 0.19455(5)
C42_7 C 0.7033(3) 0.79179(13) 0.20797(5)
C43_7 C 0.6291(3) 0.77286(13) 0.21534(5)
H29_7 H 0.638895 0.755382 0.224310
C44_7 C 0.5418(3) 0.77936(12) 0.20969(5)
C45_7 C 0.5274(3) 0.80523(12) 0.19645(6)
C46_7 C 0.6016(3) 0.82291(13) 0.18886(5)
H30_7 H 0.592246 0.839815 0.179682
C47_7 C 0.7681(3) 0.83481(13) 0.18590(5)
C48_7 C 0.4615(3) 0.75987(12) 0.21744(6)
C49_7 C 0.3131(3) 0.68902(11) 0.19753(5)
H31_7 H 0.331494 0.714013 0.193288
C50_7 C 0.2848(2) 0.64336(10) 0.21449(4)
H32_7 H 0.277677 0.628207 0.224241
C51_8 C 0.2318(3) 0.59290(11) 0.19446(4)
C52_8 C 0.2440(3) 0.58007(11) 0.17841(4)
H33_7 H 0.273725 0.596594 0.170635
C53_8 C 0.2124(3) 0.54307(12) 0.17383(5)
H34_8 H 0.221419 0.534001 0.162908
C54_8 C 0.1675(3) 0.51891(11) 0.18518(4)
C55_8 C 0.1555(3) 0.53232(11) 0.20128(4)
H35_8 H 0.125525 0.515985 0.209092
C56_8 C 0.1873(3) 0.56928(11) 0.20586(4)
H36_8 H 0.178686 0.578468 0.216772
C59_12 C 0.0157(3) 0.45889(11) 0.13491(4)
C60_12 C 0.0097(3) 0.49675(12) 0.14118(5)
C61_8 C 0.0499(3) 0.50461(12) 0.15639(5)
H40_8 H 0.046396 0.530495 0.160945
C62_12 C 0.0947(3) 0.47478(12) 0.16488(4)
C63_12 C 0.0997(3) 0.43680(12) 0.15824(5)
H41_12 H 0.130482 0.416355 0.164045
C64_12 C 0.0598(3) 0.42883(12) 0.14316(5)
H42_12 H 0.062935 0.402972 0.138568
C65_12 C 0.0058(3) 0.32956(13) 0.24541(5)
C66_12 C 0.1384(2) 0.34980(10) 0.23946(4)
H44_12 H 0.202519 0.353642 0.239018
C67_12 C 0.0925(3) 0.39679(10) 0.21726(4)
C68_12 C 0.1792(3) 0.41109(12) 0.21440(5)
H45_12 H 0.229085 0.402065 0.220830
C69_12 C 0.1928(3) 0.43871(12) 0.20206(5)
H46_8 H 0.252396 0.448600 0.199996
C70_12 C 0.1203(3) 0.45196(11) 0.19273(4)
C71_12 C 0.0353(3) 0.43638(13) 0.19547(6)
C72_12 C 0.0201(3) 0.40908(13) 0.20779(6)
O4_7 O 0.3672(2) 0.98392(10) 0.21189(5)
O6_7 O 0.3072(2) 0.93641(12) 0.19055(5)
H2_7 H 0.346172 0.949865 0.195659
C1_7 C 0.0610(3) 0.93388(12) 0.19455(5)
C2_7 C 0.0467(3) 0.95821(13) 0.20797(5)
C3_7 C 0.1209(3) 0.97714(13) 0.21534(5)
H4_7 H 0.111105 0.994618 0.224310
C4_7 C 0.2082(3) 0.97064(12) 0.20969(5)
C5_7 C 0.2226(3) 0.94477(12) 0.19645(6)
C6_7 C 0.1484(3) 0.92709(13) 0.18886(5)
H5_7 H 0.157754 0.910185 0.179682
C8_7 C 0.2885(3) 0.99013(12) 0.21744(6)
O5_7 O 0.9625(2) 0.96523(14) 0.21448(5)
H1_7 H 0.925117 0.948720 0.210703
C7_7 C 0.9819(3) 0.91519(13) 0.18590(5)
O5_8 O 0.2875(2) 0.28477(14) 0.21448(5)
H1_8 H 0.324883 0.301280 0.210703
C1_8 C 0.1890(3) 0.31612(12) 0.19455(5)
C2_8 C 0.2033(3) 0.29179(13) 0.20797(5)
C3_8 C 0.1291(3) 0.27286(13) 0.21534(5)
H4_8 H 0.138895 0.255382 0.224310
C4_8 C 0.0418(3) 0.27936(12) 0.20969(5)
C5_8 C 0.0274(3) 0.30523(12) 0.19645(6)
C6_8 C 0.1016(3) 0.32291(13) 0.18886(5)
H5_8 H 0.092246 0.339815 0.179682
C7_8 C 0.2681(3) 0.33481(13) 0.18590(5)
O3_8 O 0.9745(2) 0.23715(10) 0.22939(4)
O4_8 O 0.8828(2) 0.26608(10) 0.21189(5)
O6_8 O 0.9428(2) 0.31359(12) 0.19055(5)
H2_8 H 0.903828 0.300135 0.195659
N4_8 N 0.8154(2) 0.18012(9) 0.21389(4)
N5_8 N 0.7833(3) 0.16004(10) 0.18816(4)
N6_8 N 0.7655(2) 0.13066(9) 0.19943(4)
C8_8 C 0.9615(3) 0.25987(12) 0.21744(6)
C13_8 C 0.8131(3) 0.18902(11) 0.19753(5)
H7_8 H 0.831494 0.214013 0.193288
C14_8 C 0.7848(2) 0.14336(10) 0.21449(4)
H8_8 H 0.777677 0.128207 0.224241
C15_8 C 0.7318(3) 0.09290(11) 0.19446(4)
C16_8 C 0.7440(3) 0.08007(11) 0.17841(4)
H9_8 H 0.773725 0.096594 0.170635
C17_8 C 0.7124(3) 0.04307(12) 0.17383(5)
H10_8 H 0.721419 0.034001 0.162908
C18_8 C 0.6675(3) 0.01891(11) 0.18518(4)
C19_8 C 0.6555(3) 0.03232(11) 0.20128(4)
H11_8 H 0.625525 0.015985 0.209092
C20_8 C 0.6873(3) 0.06928(11) 0.20586(4)
H12_8 H 0.678686 0.078468 0.216772
H15_8 H 0.479013 0.017054 0.135284
C25_8 C 0.5499(3) 0.00461(12) 0.15639(5)
H16_8 H 0.546396 0.030495 0.160945
O15_8 O 0.7755(2) 0.51285(10) 0.22939(4)
O16_8 O 0.8672(2) 0.48392(10) 0.21189(5)
O17_8 O 0.4625(2) 0.46523(14) 0.21448(5)
H27_8 H 0.425117 0.448720 0.210703
O18_8 O 0.8072(2) 0.43641(12) 0.19055(5)
H28_8 H 0.846172 0.449865 0.195659
N14_8 N 0.9346(2) 0.56988(9) 0.21389(4)
N15_8 N 0.9667(3) 0.58996(10) 0.18816(4)
N16_8 N 0.9845(2) 0.61934(9) 0.19943(4)
C41_8 C 0.5610(3) 0.43388(12) 0.19455(5)
C42_8 C 0.5467(3) 0.45821(13) 0.20797(5)
C43_8 C 0.6209(3) 0.47714(13) 0.21534(5)
H29_8 H 0.611105 0.494618 0.224310
C44_8 C 0.7082(3) 0.47064(12) 0.20969(5)
C45_8 C 0.7226(3) 0.44477(12) 0.19645(6)
C46_8 C 0.6484(3) 0.42709(13) 0.18886(5)
H30_8 H 0.657754 0.410185 0.179682
C47_8 C 0.4819(3) 0.41519(13) 0.18590(5)
C48_8 C 0.7885(3) 0.49013(12) 0.21744(6)
C49_8 C 0.9369(3) 0.56098(11) 0.19753(5)
H31_8 H 0.918506 0.535987 0.193288
C50_8 C 0.9652(2) 0.60664(10) 0.21449(4)
H32_8 H 0.972323 0.621793 0.224241
H33_8 H 0.976275 0.653406 0.170635
H46_9 H 0.997604 0.801400 0.199996
C51_9 C 0.9818(3) 0.90710(11) 0.44446(4)
C52_9 C 0.9940(3) 0.91993(11) 0.42841(4)
C53_9 C 0.9624(3) 0.95693(12) 0.42383(5)
H34_9 H 0.971419 0.965999 0.412908
C54_9 C 0.9175(3) 0.98109(11) 0.43518(4)
C55_9 C 0.9055(3) 0.96768(11) 0.45128(4)
H35_9 H 0.875525 0.984015 0.459092
C56_9 C 0.9373(3) 0.93072(11) 0.45586(4)
H36_9 H 0.928686 0.921532 0.466772
H39_9 H 0.729013 0.982946 0.385284
C61_9 C 0.7999(3) 0.99539(12) 0.40639(5)
H40_9 H 0.796396 0.969505 0.410945
O23_5 O 0.99493(17) 0.76014(7) 0.49209(3)
O1_3 O 0.0018(2) 0.14183(9) 0.42422(4)
O2_3 O 0.0971(2) 0.17296(13) 0.44019(5)
O5_9 O 0.0375(2) 0.21523(14) 0.46448(5)
H1_9 H 0.074883 0.198720 0.460703
C7_9 C 0.0181(3) 0.16519(13) 0.43590(5)
Zn4_2 Zn 0.125000 0.125000 0.41679(2)
Zn1_7 Zn 0.125000 0.625000 0.33321(2)
Zn2_5 Zn 0.60299(3) 0.28695(2) 0.48357(2)
O3_9 O 0.7245(2) 0.26285(10) 0.47939(4)
O4_9 O 0.6328(2) 0.23392(10) 0.46189(5)
O6_9 O 0.6928(2) 0.18641(12) 0.44055(5)
H2_9 H 0.653828 0.199865 0.445659
O7_5 O 0.49493(17) 0.26014(7) 0.49209(3)
O8_9 O 0.43742(17) 0.32094(7) 0.49428(3)
O9_9 O 0.26751(18) 0.33156(7) 0.49839(3)
H3_9 H 0.322732 0.337927 0.497671
N1_9 N 0.1635(2) 0.58064(10) 0.34870(4)
N2_9 N 0.2001(3) 0.52046(11) 0.35888(5)
N3_9 N 0.2238(2) 0.54981(10) 0.36945(4)
N4_9 N 0.5654(2) 0.31988(9) 0.46389(4)
N5_9 N 0.5333(3) 0.33996(10) 0.43816(4)
N6_9 N 0.5155(2) 0.36934(9) 0.44943(4)
N7_5 N 0.3457(2) 0.67472(9) 0.49959(4)
N8_9 N 0.2416(2) 0.64469(11) 0.48370(5)
N9_9 N 0.3278(2) 0.63176(9) 0.47999(4)
N10_9 N 0.3844(2) 0.51859(9) 0.43049(4)
C1_9 C 0.9390(3) 0.18388(12) 0.44455(5)
C2_9 C 0.9533(3) 0.20821(13) 0.45797(5)
C3_9 C 0.8791(3) 0.22714(13) 0.46534(5)
H4_9 H 0.888895 0.244618 0.474310
C4_9 C 0.7918(3) 0.22064(12) 0.45969(5)
C5_9 C 0.7774(3) 0.19477(12) 0.44645(6)
C6_9 C 0.8516(3) 0.17709(13) 0.43886(5)
H5_9 H 0.842246 0.160185 0.429682
C8_9 C 0.7115(3) 0.24013(12) 0.46744(6)
C9_9 C 0.3366(2) 0.26628(10) 0.49758(4)
C10_9 C 0.2602(2) 0.29125(10) 0.49919(4)
C11_7 C 0.1749(2) 0.27466(10) 0.50163(4)
H6_7 H 0.123339 0.291486 0.502793
C12_9 C 0.4290(2) 0.28363(10) 0.49461(4)
C13_9 C 0.5631(3) 0.31098(11) 0.44753(5)
H7_9 H 0.581494 0.285987 0.443288
C14_9 C 0.5348(2) 0.35664(10) 0.46449(4)
H8_9 H 0.527677 0.371793 0.474241
C15_9 C 0.4818(3) 0.40710(11) 0.44446(4)
C16_9 C 0.4940(3) 0.41993(11) 0.42841(4)
H9_9 H 0.523725 0.403406 0.420635
C17_9 C 0.4624(3) 0.45693(12) 0.42383(5)
H10_9 H 0.471419 0.465999 0.412908
C18_9 C 0.4175(3) 0.48109(11) 0.43518(4)
C19_9 C 0.4055(3) 0.46768(11) 0.45128(4)
H11_9 H 0.375525 0.484015 0.459092
C20_9 C 0.4373(3) 0.43072(11) 0.45586(4)
H12_9 H 0.428686 0.421532 0.466772
C21_9 C 0.1656(3) 0.54086(13) 0.34638(5)
H13_9 H 0.144319 0.528564 0.336614
C22_9 C 0.2011(3) 0.58512(12) 0.36338(5)
H14_9 H 0.210545 0.609780 0.368758
C23_9 C 0.2657(3) 0.54111(11) 0.38491(4)
C24_9 C 0.2597(3) 0.50325(12) 0.39118(5)
H15_9 H 0.229013 0.482946 0.385284
C25_9 C 0.2999(3) 0.49539(12) 0.40639(5)
H16_9 H 0.296396 0.469505 0.410945
C26_9 C 0.3447(3) 0.52522(12) 0.41488(4)
C27_9 C 0.3497(3) 0.56320(12) 0.40824(5)
H17_9 H 0.380482 0.583645 0.414045
C28_9 C 0.3098(3) 0.57117(12) 0.39316(5)
H18_9 H 0.312935 0.597028 0.388568
C29_9 C 0.2558(3) 0.67044(13) 0.49541(5)
H19_5 H 0.208067 0.684883 0.500560
C30_9 C 0.3884(2) 0.65020(10) 0.48946(4)
H20_9 H 0.452519 0.646358 0.489018
C31_9 C 0.3425(3) 0.60321(10) 0.46726(4)
C32_9 C 0.4292(3) 0.58891(12) 0.46440(5)
H21_9 H 0.479085 0.597935 0.470830
C33_9 C 0.4428(3) 0.56129(12) 0.45206(5)
H22_9 H 0.502396 0.551400 0.449996
C34_9 C 0.3703(3) 0.54804(11) 0.44273(4)
C35_9 C 0.2853(3) 0.56362(13) 0.44547(6)
H23_9 H 0.235840 0.555446 0.438739
C36_9 C 0.2701(3) 0.59092(13) 0.45779(6)
H24_9 H 0.210584 0.601064 0.459704
O10_9 O 0.00507(17) 0.23986(7) 0.50791(3)
O11_9 O 0.06258(17) 0.17906(7) 0.50572(3)
O12_9 O 0.23249(18) 0.16844(7) 0.50161(3)
H25_9 H 0.177268 0.162073 0.502329
C37_9 C 0.1634(2) 0.23372(10) 0.50242(4)
C38_9 C 0.2398(2) 0.20875(10) 0.50081(4)
C39_7 C 0.3251(2) 0.22534(10) 0.49837(4)
H26_7 H 0.376661 0.208514 0.497207
C40_9 C 0.0710(2) 0.21637(10) 0.50539(4)
N11_9 N 0.0865(2) 0.66936(10) 0.34870(4)
N12_9 N 0.0499(3) 0.72954(11) 0.35888(5)
N13_9 N 0.0262(2) 0.70019(10) 0.36945(4)
N18_9 N 0.0084(2) 0.60531(11) 0.48370(5)
C57_9 C 0.0844(3) 0.70914(13) 0.34638(5)
H37_9 H 0.105681 0.721436 0.336614
C58_9 C 0.0489(3) 0.66488(12) 0.36338(5)
H38_9 H 0.039455 0.640220 0.368758
H39_10 H 0.020987 0.767054 0.385284
H43_5 H 0.041933 0.565117 0.500560
H47_9 H 0.014160 0.694554 0.438739
H48_9 H 0.039416 0.648936 0.459704
Zn7_3 Zn 0.39701(3) 0.71305(2) 0.51643(2)
O19_7 O 0.0018(2) 0.60817(9) 0.32578(4)
O20_7 O 0.2482(2) 0.64183(9) 0.32578(4)
O21_7 O 0.0971(2) 0.57704(13) 0.30981(5)
O22_7 O 0.1529(2) 0.67296(13) 0.30981(5)
N21_5 N 0.6543(2) 0.32528(9) 0.50041(4)
O13_3 O 0.2482(2) 0.10817(9) 0.42422(4)
O14_3 O 0.1529(2) 0.07704(13) 0.44019(5)
O16_9 O 0.6172(2) 0.01608(10) 0.46189(5)
O17_9 O 0.2125(2) 0.03477(14) 0.46448(5)
H27_9 H 0.175117 0.051280 0.460703
O18_9 O 0.5572(2) 0.06359(12) 0.44055(5)
H28_9 H 0.596172 0.050135 0.445659
C41_9 C 0.3110(3) 0.06612(12) 0.44455(5)
C42_9 C 0.2967(3) 0.04179(13) 0.45797(5)
C43_9 C 0.3709(3) 0.02286(13) 0.46534(5)
H29_9 H 0.361105 0.005382 0.474310
C44_9 C 0.4582(3) 0.02936(12) 0.45969(5)
C45_9 C 0.4726(3) 0.05523(12) 0.44645(6)
C46_9 C 0.3984(3) 0.07291(13) 0.43886(5)
H30_9 H 0.407754 0.089815 0.429682
C47_9 C 0.2319(3) 0.08481(13) 0.43590(5)
C48_9 C 0.5385(3) 0.00987(12) 0.46744(6)
O5_10 O 0.0375(2) 0.53477(14) 0.28552(5)
H1_10 H 0.074883 0.551280 0.289297
C7_10 C 0.0181(3) 0.58481(13) 0.31410(5)
Zn2_6 Zn 0.60299(3) 0.46305(2) 0.26643(2)
O3_10 O 0.7245(2) 0.48715(10) 0.27061(4)
O4_10 O 0.6328(2) 0.51608(10) 0.28811(5)
O6_10 O 0.6928(2) 0.56359(12) 0.30945(5)
H2_10 H 0.653828 0.550135 0.304341
O7_6 O 0.49493(17) 0.48986(7) 0.25791(3)
O8_10 O 0.43742(17) 0.42906(7) 0.25572(3)
O9_10 O 0.26751(18) 0.41844(7) 0.25161(3)
H3_10 H 0.322732 0.412073 0.252329
N1_10 N 0.1635(2) 0.16936(10) 0.40130(4)
N2_10 N 0.2001(3) 0.22954(11) 0.39112(5)
N3_10 N 0.2238(2) 0.20019(10) 0.38055(4)
N4_10 N 0.5654(2) 0.43012(9) 0.28611(4)
N5_10 N 0.5333(3) 0.41004(10) 0.31184(4)
N6_10 N 0.5155(2) 0.38066(9) 0.30057(4)
N7_6 N 0.3457(2) 0.07528(9) 0.25041(4)
N8_10 N 0.2416(2) 0.10531(11) 0.26630(5)
N9_10 N 0.3278(2) 0.11824(9) 0.27001(4)
N10_10 N 0.3844(2) 0.23141(9) 0.31951(4)
C1_10 C 0.9390(3) 0.56612(12) 0.30545(5)
C2_10 C 0.9533(3) 0.54179(13) 0.29203(5)
C3_10 C 0.8791(3) 0.52286(13) 0.28466(5)
H4_10 H 0.888895 0.505382 0.275690
C4_10 C 0.7918(3) 0.52936(12) 0.29031(5)
C5_10 C 0.7774(3) 0.55523(12) 0.30355(6)
C6_10 C 0.8516(3) 0.57291(13) 0.31114(5)
H5_10 H 0.842246 0.589815 0.320318
C8_10 C 0.7115(3) 0.50987(12) 0.28256(6)
C9_10 C 0.3366(2) 0.48372(10) 0.25242(4)
C10_10 C 0.2602(2) 0.45875(10) 0.25081(4)
C11_8 C 0.1749(2) 0.47534(10) 0.24837(4)
H6_8 H 0.123339 0.458514 0.247207
C12_10 C 0.4290(2) 0.46637(10) 0.25539(4)
C13_10 C 0.5631(3) 0.43902(11) 0.30247(5)
H7_10 H 0.581494 0.464013 0.306712
C14_10 C 0.5348(2) 0.39336(10) 0.28551(4)
H8_10 H 0.527677 0.378207 0.275759
C15_10 C 0.4818(3) 0.34290(11) 0.30554(4)
C16_10 C 0.4940(3) 0.33007(11) 0.32159(4)
H9_10 H 0.523725 0.346594 0.329365
C17_10 C 0.4624(3) 0.29307(12) 0.32617(5)
H10_10 H 0.471419 0.284001 0.337092
C18_10 C 0.4175(3) 0.26891(11) 0.31482(4)
C19_10 C 0.4055(3) 0.28232(11) 0.29872(4)
H11_10 H 0.375525 0.265985 0.290908
C20_10 C 0.4373(3) 0.31928(11) 0.29414(4)
H12_10 H 0.428686 0.328468 0.283228
C21_10 C 0.1656(3) 0.20914(13) 0.40362(5)
H13_10 H 0.144319 0.221436 0.413386
C22_10 C 0.2011(3) 0.16488(12) 0.38662(5)
H14_10 H 0.210545 0.140220 0.381242
C23_10 C 0.2657(3) 0.20889(11) 0.36509(4)
C24_10 C 0.2597(3) 0.24675(12) 0.35882(5)
H15_10 H 0.229013 0.267054 0.364716
C25_10 C 0.2999(3) 0.25461(12) 0.34361(5)
H16_10 H 0.296396 0.280495 0.339055
C26_10 C 0.3447(3) 0.22478(12) 0.33512(4)
C27_10 C 0.3497(3) 0.18680(12) 0.34176(5)
H17_10 H 0.380482 0.166355 0.335955
C28_10 C 0.3098(3) 0.17883(12) 0.35684(5)
H18_10 H 0.312935 0.152972 0.361432
C29_10 C 0.2558(3) 0.07956(13) 0.25459(5)
H19_6 H 0.208067 0.065117 0.249440
C30_10 C 0.3884(2) 0.09980(10) 0.26054(4)
H20_10 H 0.452519 0.103642 0.260982
C31_10 C 0.3425(3) 0.14679(10) 0.28274(4)
C32_10 C 0.4292(3) 0.16109(12) 0.28560(5)
H21_10 H 0.479085 0.152065 0.279170
C33_10 C 0.4428(3) 0.18871(12) 0.29794(5)
H22_10 H 0.502396 0.198600 0.300004
C34_10 C 0.3703(3) 0.20196(11) 0.30727(4)
C35_10 C 0.2853(3) 0.18638(13) 0.30453(6)
H23_10 H 0.235840 0.194554 0.311261
C36_10 C 0.2701(3) 0.15908(13) 0.29221(6)
H24_10 H 0.210584 0.148936 0.290296
O10_10 O 0.00507(17) 0.51014(7) 0.24209(3)
O11_10 O 0.06258(17) 0.57094(7) 0.24428(3)
O12_10 O 0.23249(18) 0.58156(7) 0.24839(3)
H25_10 H 0.177268 0.587927 0.247671
C37_10 C 0.1634(2) 0.51628(10) 0.24758(4)
C38_10 C 0.2398(2) 0.54125(10) 0.24919(4)
C39_8 C 0.3251(2) 0.52466(10) 0.25163(4)
H26_8 H 0.376661 0.541486 0.252793
C40_10 C 0.0710(2) 0.53363(10) 0.24461(4)
N11_10 N 0.0865(2) 0.08064(10) 0.40130(4)
N12_10 N 0.0499(3) 0.02046(11) 0.39112(5)
N13_10 N 0.0262(2) 0.04981(10) 0.38055(4)
N18_10 N 0.0084(2) 0.14469(11) 0.26630(5)
C57_10 C 0.0844(3) 0.04086(13) 0.40362(5)
H37_10 H 0.105681 0.028564 0.413386
C58_10 C 0.0489(3) 0.08512(12) 0.38662(5)
H38_10 H 0.039455 0.109780 0.381242
H43_6 H 0.041933 0.184883 0.249440
H47_10 H 0.014160 0.055446 0.311261
H48_10 H 0.039416 0.101064 0.290296
Zn7_4 Zn 0.39701(3) 0.03695(2) 0.23357(2)
N21_6 N 0.6543(2) 0.42472(9) 0.24959(4)
Zn3_5 Zn 0.64701(3) 0.78695(2) 0.26643(2)
O15_9 O 0.5255(2) 0.76285(10) 0.27061(4)
O16_10 O 0.6172(2) 0.73392(10) 0.28811(5)
O17_10 O 0.2125(2) 0.71523(14) 0.28552(5)
H27_10 H 0.175117 0.698720 0.289297
O18_10 O 0.5572(2) 0.68641(12) 0.30945(5)
H28_10 H 0.596172 0.699865 0.304341
N14_9 N 0.6846(2) 0.81988(9) 0.28611(4)
N15_9 N 0.7167(3) 0.83996(10) 0.31184(4)
N16_9 N 0.7345(2) 0.86934(9) 0.30057(4)
C41_10 C 0.3110(3) 0.68388(12) 0.30545(5)
C42_10 C 0.2967(3) 0.70821(13) 0.29203(5)
C43_10 C 0.3709(3) 0.72714(13) 0.28466(5)
H29_10 H 0.361105 0.744618 0.275690
C44_10 C 0.4582(3) 0.72064(12) 0.29031(5)
C45_10 C 0.4726(3) 0.69477(12) 0.30355(6)
C46_10 C 0.3984(3) 0.67709(13) 0.31114(5)
H30_10 H 0.407754 0.660185 0.320318
C47_10 C 0.2319(3) 0.66519(13) 0.31410(5)
C48_10 C 0.5385(3) 0.74013(12) 0.28256(6)
C49_9 C 0.6869(3) 0.81098(11) 0.30247(5)
H31_9 H 0.668506 0.785987 0.306712
C50_9 C 0.7152(2) 0.85664(10) 0.28551(4)
H32_9 H 0.722323 0.871793 0.275759
C51_10 C 0.7682(3) 0.90710(11) 0.30554(4)
C52_10 C 0.7560(3) 0.91993(11) 0.32159(4)
H33_9 H 0.726275 0.903406 0.329365
C53_10 C 0.7876(3) 0.95693(12) 0.32617(5)
H34_10 H 0.778581 0.965999 0.337092
C54_10 C 0.8325(3) 0.98109(11) 0.31482(4)
C55_10 C 0.8445(3) 0.96768(11) 0.29872(4)
H35_10 H 0.874475 0.984015 0.290908
C56_10 C 0.8127(3) 0.93072(11) 0.29414(4)
H36_10 H 0.821314 0.921532 0.283228
C61_10 C 0.9501(3) 0.99539(12) 0.34361(5)
H40_10 H 0.953604 0.969505 0.339055
O23_6 O 0.75507(17) 0.76014(7) 0.25791(3)
N22_7 N 0.5957(2) 0.82528(9) 0.24959(4)
Zn3_6 Zn 0.10299(3) 0.96305(2) 0.26643(2)
O15_10 O 0.2245(2) 0.98715(10) 0.27061(4)
N14_10 N 0.0654(2) 0.93012(9) 0.28611(4)
N15_10 N 0.0333(3) 0.91004(10) 0.31184(4)
N16_10 N 0.0155(2) 0.88066(9) 0.30057(4)
C49_10 C 0.0631(3) 0.93902(11) 0.30247(5)
H31_10 H 0.081494 0.964013 0.306712
C50_10 C 0.0348(2) 0.89336(10) 0.28551(4)
H32_10 H 0.027677 0.878207 0.275759
H33_10 H 0.023725 0.846594 0.329365
H46_10 H 0.002396 0.698600 0.300004
N22_8 N 0.1543(2) 0.92472(9) 0.24959(4)
Zn3_7 Zn 0.10299(3) 0.28695(2) 0.98357(2)
O13_4 O 0.5018(2) 0.14183(9) 0.92422(4)
O14_4 O 0.5971(2) 0.17296(13) 0.94019(5)
O15_11 O 0.2245(2) 0.26285(10) 0.97939(4)
O16_11 O 0.1328(2) 0.23392(10) 0.96189(5)
O17_11 O 0.5375(2) 0.21523(14) 0.96448(5)
H27_11 H 0.574883 0.198720 0.960703
O18_11 O 0.1928(2) 0.18641(12) 0.94055(5)
H28_11 H 0.153828 0.199865 0.945659
N14_11 N 0.0654(2) 0.31988(9) 0.96389(4)
N15_11 N 0.0333(3) 0.33996(10) 0.93816(4)
N16_11 N 0.0155(2) 0.36934(9) 0.94943(4)
C41_11 C 0.4390(3) 0.18388(12) 0.94455(5)
C42_11 C 0.4533(3) 0.20821(13) 0.95797(5)
C43_11 C 0.3791(3) 0.22714(13) 0.96534(5)
H29_11 H 0.388895 0.244618 0.974310
C44_11 C 0.2918(3) 0.22064(12) 0.95969(5)
C45_11 C 0.2774(3) 0.19477(12) 0.94645(6)
C46_11 C 0.3516(3) 0.17709(13) 0.93886(5)
H30_11 H 0.342246 0.160185 0.929682
C47_11 C 0.5181(3) 0.16519(13) 0.93590(5)
C48_11 C 0.2115(3) 0.24013(12) 0.96744(6)
C49_11 C 0.0631(3) 0.31098(11) 0.94753(5)
H31_11 H 0.081494 0.285987 0.943288
C50_11 C 0.0348(2) 0.35664(10) 0.96449(4)
H32_11 H 0.027677 0.371793 0.974241
H33_11 H 0.023725 0.403406 0.920635
H46_11 H 0.002396 0.551400 0.949996
Zn5_2 Zn 0.625000 0.125000 0.91679(2)
O4_11 O 0.1172(2) 0.01608(10) 0.96189(5)
O6_11 O 0.0572(2) 0.06359(12) 0.94055(5)
H2_11 H 0.096172 0.050135 0.945659
C8_11 C 0.0385(3) 0.00987(12) 0.96744(6)
C39_9 C 0.4249(2) 0.02466(10) 0.99837(4)
H26_9 H 0.373339 0.041486 0.997207
C11_9 C 0.5751(2) 0.97534(10) 0.00163(4)
H6_9 H 0.626661 0.958514 0.002793
H19_7 H 0.541933 0.565117 0.000560
H43_7 H 0.708067 0.684883 0.000560
Zn7_5 Zn 0.35299(3) 0.53695(2) 0.01643(2)
Zn8_4 Zn 0.89701(3) 0.71305(2) 0.01643(2)
N21_7 N 0.0957(2) 0.92472(9) 0.00041(4)
O1_4 O 0.7482(2) 0.10817(9) 0.92422(4)
O2_4 O 0.6529(2) 0.07704(13) 0.94019(5)
O5_11 O 0.7125(2) 0.03477(14) 0.96448(5)
H1_11 H 0.675117 0.051280 0.960703
C1_11 C 0.8110(3) 0.06612(12) 0.94455(5)
C2_11 C 0.7967(3) 0.04179(13) 0.95797(5)
C3_11 C 0.8709(3) 0.02286(13) 0.96534(5)
H4_11 H 0.861105 0.005382 0.974310
C4_11 C 0.9582(3) 0.02936(12) 0.95969(5)
C5_11 C 0.9726(3) 0.05523(12) 0.94645(6)
C6_11 C 0.8984(3) 0.07291(13) 0.93886(5)
H5_11 H 0.907754 0.089815 0.929682
C7_11 C 0.7319(3) 0.08481(13) 0.93590(5)
O1_5 O 0.0018(2) 0.64183(9) 0.92422(4)
O2_5 O 0.0971(2) 0.67296(13) 0.94019(5)
O5_12 O 0.0375(2) 0.71523(14) 0.96448(5)
H1_12 H 0.074883 0.698720 0.960703
C7_12 C 0.0181(3) 0.66519(13) 0.93590(5)
Zn4_3 Zn 0.125000 0.625000 0.91679(2)
H19_8 H 0.208067 0.184883 0.000560
H43_8 H 0.041933 0.065117 0.000560
Zn7_6 Zn 0.39701(3) 0.21305(2) 0.01643(2)
Zn2_7 Zn 0.60299(3) 0.78695(2) 0.98357(2)
O3_11 O 0.7245(2) 0.76285(10) 0.97939(4)
O4_12 O 0.6328(2) 0.73392(10) 0.96189(5)
O6_12 O 0.6928(2) 0.68641(12) 0.94055(5)
H2_12 H 0.653828 0.699865 0.945659
O7_7 O 0.49493(17) 0.76014(7) 0.99209(3)
O8_11 O 0.43742(17) 0.82094(7) 0.99428(3)
O9_11 O 0.26751(18) 0.83156(7) 0.99839(3)
H3_11 H 0.322732 0.837927 0.997671
N4_11 N 0.5654(2) 0.81988(9) 0.96389(4)
N5_11 N 0.5333(3) 0.83996(10) 0.93816(4)
N6_11 N 0.5155(2) 0.86934(9) 0.94943(4)
C1_12 C 0.9390(3) 0.68388(12) 0.94455(5)
C2_12 C 0.9533(3) 0.70821(13) 0.95797(5)
C3_12 C 0.8791(3) 0.72714(13) 0.96534(5)
H4_12 H 0.888895 0.744618 0.974310
C4_12 C 0.7918(3) 0.72064(12) 0.95969(5)
C5_12 C 0.7774(3) 0.69477(12) 0.94645(6)
C6_12 C 0.8516(3) 0.67709(13) 0.93886(5)
H5_12 H 0.842246 0.660185 0.929682
C8_12 C 0.7115(3) 0.74013(12) 0.96744(6)
C9_11 C 0.3366(2) 0.76628(10) 0.99758(4)
C10_11 C 0.2602(2) 0.79125(10) 0.99919(4)
C12_11 C 0.4290(2) 0.78363(10) 0.99461(4)
C13_11 C 0.5631(3) 0.81098(11) 0.94753(5)
H7_11 H 0.581494 0.785987 0.943288
C14_11 C 0.5348(2) 0.85664(10) 0.96449(4)
H8_11 H 0.527677 0.871793 0.974241
C15_11 C 0.4818(3) 0.90710(11) 0.94446(4)
C16_11 C 0.4940(3) 0.91993(11) 0.92841(4)
H9_11 H 0.523725 0.903406 0.920635
C17_11 C 0.4624(3) 0.95693(12) 0.92383(5)
H10_11 H 0.471419 0.965999 0.912908
C18_11 C 0.4175(3) 0.98109(11) 0.93518(4)
C19_11 C 0.4055(3) 0.96768(11) 0.95128(4)
H11_11 H 0.375525 0.984015 0.959092
C20_11 C 0.4373(3) 0.93072(11) 0.95586(4)
H12_11 H 0.428686 0.921532 0.966772
H15_11 H 0.229013 0.982946 0.885284
C25_11 C 0.2999(3) 0.99539(12) 0.90639(5)
H16_11 H 0.296396 0.969505 0.910945
C39_10 C 0.3251(2) 0.72534(10) 0.99837(4)
H26_10 H 0.376661 0.708514 0.997207
Zn3_8 Zn 0.64701(3) 0.46305(2) 0.98357(2)
O13_5 O 0.2482(2) 0.60817(9) 0.92422(4)
O14_5 O 0.1529(2) 0.57704(13) 0.94019(5)
O15_12 O 0.5255(2) 0.48715(10) 0.97939(4)
O16_12 O 0.6172(2) 0.51608(10) 0.96189(5)
O17_12 O 0.2125(2) 0.53477(14) 0.96448(5)
H27_12 H 0.175117 0.551280 0.960703
O18_12 O 0.5572(2) 0.56359(12) 0.94055(5)
H28_12 H 0.596172 0.550135 0.945659
N14_12 N 0.6846(2) 0.43012(9) 0.96389(4)
N15_12 N 0.7167(3) 0.41004(10) 0.93816(4)
N16_12 N 0.7345(2) 0.38066(9) 0.94943(4)
N17_7 N 0.9043(2) 0.07528(9) 0.99959(4)
N19_13 N 0.9222(2) 0.11824(9) 0.97999(4)
N20_13 N 0.8656(2) 0.23141(9) 0.93049(4)
C41_12 C 0.3110(3) 0.56612(12) 0.94455(5)
C42_12 C 0.2967(3) 0.54179(13) 0.95797(5)
C43_12 C 0.3709(3) 0.52286(13) 0.96534(5)
H29_12 H 0.361105 0.505382 0.974310
C44_12 C 0.4582(3) 0.52936(12) 0.95969(5)
C45_12 C 0.4726(3) 0.55523(12) 0.94645(6)
C46_12 C 0.3984(3) 0.57291(13) 0.93886(5)
H30_12 H 0.407754 0.589815 0.929682
C47_12 C 0.2319(3) 0.58481(13) 0.93590(5)
C48_12 C 0.5385(3) 0.50987(12) 0.96744(6)
C49_12 C 0.6869(3) 0.43902(11) 0.94753(5)
H31_12 H 0.668506 0.464013 0.943288
C50_12 C 0.7152(2) 0.39336(10) 0.96449(4)
H32_12 H 0.722323 0.378207 0.974241
C51_11 C 0.7682(3) 0.34290(11) 0.94446(4)
C52_11 C 0.7560(3) 0.33007(11) 0.92841(4)
H33_12 H 0.726275 0.346594 0.920635
C53_11 C 0.7876(3) 0.29307(12) 0.92383(5)
H34_11 H 0.778581 0.284001 0.912908
C54_11 C 0.8325(3) 0.26891(11) 0.93518(4)
C55_11 C 0.8445(3) 0.28232(11) 0.95128(4)
H35_11 H 0.874475 0.265985 0.959092
C56_11 C 0.8127(3) 0.31928(11) 0.95586(4)
H36_11 H 0.821314 0.328468 0.966772
C59_13 C 0.9843(3) 0.20889(11) 0.88491(4)
C60_13 C 0.9903(3) 0.24675(12) 0.89118(5)
C61_11 C 0.9501(3) 0.25461(12) 0.90639(5)
H40_11 H 0.953604 0.280495 0.910945
C62_13 C 0.9053(3) 0.22478(12) 0.91488(4)
C63_13 C 0.9003(3) 0.18680(12) 0.90824(5)
H41_13 H 0.869518 0.166355 0.914045
C64_13 C 0.9402(3) 0.17883(12) 0.89316(5)
H42_13 H 0.937065 0.152972 0.888568
C65_13 C 0.9942(3) 0.07956(13) 0.99541(5)
C66_13 C 0.8616(2) 0.09980(10) 0.98946(4)
H44_13 H 0.797481 0.103642 0.989018
C67_13 C 0.9075(3) 0.14679(10) 0.96726(4)
C68_13 C 0.8208(3) 0.16109(12) 0.96440(5)
H45_13 H 0.770915 0.152065 0.970830
C69_13 C 0.8072(3) 0.18871(12) 0.95206(5)
H46_12 H 0.747604 0.198600 0.949996
C70_13 C 0.8797(3) 0.20196(11) 0.94273(4)
C71_13 C 0.9647(3) 0.18638(13) 0.94547(6)
C72_13 C 0.9799(3) 0.15908(13) 0.95779(6)
O23_7 O 0.75507(17) 0.48986(7) 0.99209(3)
Zn2_8 Zn 0.60299(3) 0.96305(2) 0.76643(2)
O3_12 O 0.7245(2) 0.98715(10) 0.77061(4)
O7_8 O 0.49493(17) 0.98986(7) 0.75791(3)
O8_12 O 0.43742(17) 0.92906(7) 0.75572(3)
O9_12 O 0.26751(18) 0.91844(7) 0.75161(3)
H3_12 H 0.322732 0.912073 0.752329
N1_11 N 0.1635(2) 0.66936(10) 0.90130(4)
N2_11 N 0.2001(3) 0.72954(11) 0.89112(5)
N3_11 N 0.2238(2) 0.70019(10) 0.88055(4)
N4_12 N 0.5654(2) 0.93012(9) 0.78611(4)
N5_12 N 0.5333(3) 0.91004(10) 0.81184(4)
N6_12 N 0.5155(2) 0.88066(9) 0.80057(4)
N7_7 N 0.3457(2) 0.57528(9) 0.75041(4)
N8_11 N 0.2416(2) 0.60531(11) 0.76630(5)
N9_11 N 0.3278(2) 0.61824(9) 0.77001(4)
N10_11 N 0.3844(2) 0.73141(9) 0.81951(4)
C9_12 C 0.3366(2) 0.98372(10) 0.75242(4)
C10_12 C 0.2602(2) 0.95875(10) 0.75081(4)
C11_10 C 0.1749(2) 0.97534(10) 0.74837(4)
H6_10 H 0.123339 0.958514 0.747207
C12_12 C 0.4290(2) 0.96637(10) 0.75539(4)
C13_12 C 0.5631(3) 0.93902(11) 0.80247(5)
H7_12 H 0.581494 0.964013 0.806712
C14_12 C 0.5348(2) 0.89336(10) 0.78551(4)
H8_12 H 0.527677 0.878207 0.775759
C15_12 C 0.4818(3) 0.84290(11) 0.80554(4)
C16_12 C 0.4940(3) 0.83007(11) 0.82159(4)
H9_12 H 0.523725 0.846594 0.829365
C17_12 C 0.4624(3) 0.79307(12) 0.82617(5)
H10_12 H 0.471419 0.784001 0.837092
C18_12 C 0.4175(3) 0.76891(11) 0.81482(4)
C19_12 C 0.4055(3) 0.78232(11) 0.79872(4)
H11_12 H 0.375525 0.765985 0.790908
C20_12 C 0.4373(3) 0.81928(11) 0.79414(4)
H12_12 H 0.428686 0.828468 0.783228
C21_11 C 0.1656(3) 0.70914(13) 0.90362(5)
H13_11 H 0.144319 0.721436 0.913386
C22_11 C 0.2011(3) 0.66488(12) 0.88662(5)
H14_11 H 0.210545 0.640220 0.881242
C23_11 C 0.2657(3) 0.70889(11) 0.86509(4)
C24_11 C 0.2597(3) 0.74675(12) 0.85882(5)
H15_12 H 0.229013 0.767054 0.864716
C25_12 C 0.2999(3) 0.75461(12) 0.84361(5)
H16_12 H 0.296396 0.780495 0.839055
C26_11 C 0.3447(3) 0.72478(12) 0.83512(4)
C27_11 C 0.3497(3) 0.68680(12) 0.84176(5)
H17_11 H 0.380482 0.666355 0.835955
C28_11 C 0.3098(3) 0.67883(12) 0.85684(5)
H18_11 H 0.312935 0.652972 0.861432
C29_11 C 0.2558(3) 0.57956(13) 0.75459(5)
H19_9 H 0.208067 0.565117 0.749440
C30_11 C 0.3884(2) 0.59980(10) 0.76054(4)
H20_11 H 0.452519 0.603642 0.760982
C31_11 C 0.3425(3) 0.64679(10) 0.78274(4)
C32_11 C 0.4292(3) 0.66109(12) 0.78560(5)
H21_11 H 0.479085 0.652065 0.779170
C33_11 C 0.4428(3) 0.68871(12) 0.79794(5)
H22_11 H 0.502396 0.698600 0.800004
C34_11 C 0.3703(3) 0.70196(11) 0.80727(4)
C35_11 C 0.2853(3) 0.68638(13) 0.80453(6)
H23_11 H 0.235840 0.694554 0.811261
C36_11 C 0.2701(3) 0.65908(13) 0.79221(6)
H24_11 H 0.210584 0.648936 0.790296
N11_11 N 0.0865(2) 0.58064(10) 0.90130(4)
N12_11 N 0.0499(3) 0.52046(11) 0.89112(5)
N13_11 N 0.0262(2) 0.54981(10) 0.88055(4)
N18_11 N 0.0084(2) 0.64469(11) 0.76630(5)
C57_11 C 0.0844(3) 0.54086(13) 0.90362(5)
H37_11 H 0.105681 0.528564 0.913386
C58_11 C 0.0489(3) 0.58512(12) 0.88662(5)
H38_11 H 0.039455 0.609780 0.881242
H39_11 H 0.020987 0.482946 0.864716
H43_9 H 0.041933 0.684883 0.749440
H47_11 H 0.014160 0.555446 0.811261
H48_11 H 0.039416 0.601064 0.790296
Zn7_7 Zn 0.39701(3) 0.53695(2) 0.73357(2)
N21_8 N 0.6543(2) 0.92472(9) 0.74959(4)
Zn6_4 Zn 0.89701(3) 0.03695(2) 0.73357(2)
N1_12 N 0.5865(2) 0.08064(10) 0.90130(4)
N2_12 N 0.5499(3) 0.02046(11) 0.89112(5)
N3_12 N 0.5262(2) 0.04981(10) 0.88055(4)
N7_8 N 0.4043(2) 0.17472(9) 0.75041(4)
N8_12 N 0.5084(2) 0.14469(11) 0.76630(5)
N9_12 N 0.4222(2) 0.13176(9) 0.77001(4)
N10_12 N 0.3656(2) 0.01859(9) 0.81951(4)
C21_12 C 0.5844(3) 0.04086(13) 0.90362(5)
H13_12 H 0.605681 0.028564 0.913386
C22_12 C 0.5489(3) 0.08512(12) 0.88662(5)
H14_12 H 0.539455 0.109780 0.881242
C23_12 C 0.4843(3) 0.04111(11) 0.86509(4)
C24_12 C 0.4903(3) 0.00325(12) 0.85882(5)
C26_12 C 0.4053(3) 0.02522(12) 0.83512(4)
C27_12 C 0.4003(3) 0.06320(12) 0.84176(5)
H17_12 H 0.369518 0.083645 0.835955
C28_12 C 0.4402(3) 0.07117(12) 0.85684(5)
H18_12 H 0.437065 0.097028 0.861432
C29_12 C 0.4942(3) 0.17044(13) 0.75459(5)
H19_10 H 0.541933 0.184883 0.749440
C30_12 C 0.3616(2) 0.15020(10) 0.76054(4)
H20_12 H 0.297481 0.146358 0.760982
C31_12 C 0.4075(3) 0.10321(10) 0.78274(4)
C32_12 C 0.3208(3) 0.08891(12) 0.78560(5)
H21_12 H 0.270915 0.097935 0.779170
C33_12 C 0.3072(3) 0.06129(12) 0.79794(5)
H22_12 H 0.247604 0.051400 0.800004
C34_12 C 0.3797(3) 0.04804(11) 0.80727(4)
C35_12 C 0.4647(3) 0.06362(13) 0.80453(6)
H23_12 H 0.514160 0.055446 0.811261
C36_12 C 0.4799(3) 0.09092(13) 0.79221(6)
H24_12 H 0.539416 0.101064 0.790296
N11_12 N 0.6635(2) 0.16936(10) 0.90130(4)
N12_12 N 0.7001(3) 0.22954(11) 0.89112(5)
N13_12 N 0.7238(2) 0.20019(10) 0.88055(4)
N17_8 N 0.8457(2) 0.07528(9) 0.75041(4)
N18_12 N 0.7416(2) 0.10531(11) 0.76630(5)
N19_14 N 0.8278(2) 0.11824(9) 0.77001(4)
N20_14 N 0.8844(2) 0.23141(9) 0.81951(4)
C51_12 C 0.9818(3) 0.34290(11) 0.80554(4)
C52_12 C 0.9940(3) 0.33007(11) 0.82159(4)
C53_12 C 0.9624(3) 0.29307(12) 0.82617(5)
H34_12 H 0.971419 0.284001 0.837092
C54_12 C 0.9175(3) 0.26891(11) 0.81482(4)
C55_12 C 0.9055(3) 0.28232(11) 0.79872(4)
H35_12 H 0.875525 0.265985 0.790908
C56_12 C 0.9373(3) 0.31928(11) 0.79414(4)
H36_12 H 0.928686 0.328468 0.783228
C57_12 C 0.6656(3) 0.20914(13) 0.90362(5)
H37_12 H 0.644319 0.221436 0.913386
C58_12 C 0.7011(3) 0.16488(12) 0.88662(5)
H38_12 H 0.710545 0.140220 0.881242
C59_14 C 0.7657(3) 0.20889(11) 0.86509(4)
C60_14 C 0.7597(3) 0.24675(12) 0.85882(5)
H39_12 H 0.729013 0.267054 0.864716
C61_12 C 0.7999(3) 0.25461(12) 0.84361(5)
H40_12 H 0.796396 0.280495 0.839055
C62_14 C 0.8447(3) 0.22478(12) 0.83512(4)
C63_14 C 0.8497(3) 0.18680(12) 0.84176(5)
H41_14 H 0.880482 0.166355 0.835955
C64_14 C 0.8098(3) 0.17883(12) 0.85684(5)
H42_14 H 0.812935 0.152972 0.861432
C65_14 C 0.7558(3) 0.07956(13) 0.75459(5)
H43_10 H 0.708067 0.065117 0.749440
C66_14 C 0.8884(2) 0.09980(10) 0.76054(4)
H44_14 H 0.952519 0.103642 0.760982
C67_14 C 0.8425(3) 0.14679(10) 0.78274(4)
C68_14 C 0.9292(3) 0.16109(12) 0.78560(5)
H45_14 H 0.979085 0.152065 0.779170
C69_14 C 0.9428(3) 0.18871(12) 0.79794(5)
C70_14 C 0.8703(3) 0.20196(11) 0.80727(4)
C71_14 C 0.7853(3) 0.18638(13) 0.80453(6)
H47_12 H 0.735840 0.194554 0.811261
C72_14 C 0.7701(3) 0.15908(13) 0.79221(6)
H48_12 H 0.710584 0.148936 0.790296
Zn7_8 Zn 0.35299(3) 0.21305(2) 0.73357(2)
O23_8 O 0.99493(17) 0.48986(7) 0.75791(3)
C11_11 C 0.0751(2) 0.47534(10) 0.00163(4)
H6_11 H 0.126661 0.458514 0.002793
O10_11 O 0.24493(17) 0.51014(7) 0.00791(3)
O11_11 O 0.18742(17) 0.57094(7) 0.00572(3)
O12_11 O 0.01751(18) 0.58156(7) 0.00161(3)
H25_11 H 0.072732 0.587927 0.002329
C37_11 C 0.0866(2) 0.51628(10) 0.00242(4)
C38_11 C 0.0102(2) 0.54125(10) 0.00081(4)
C40_11 C 0.1790(2) 0.53363(10) 0.00539(4)
O8_13 O 0.81258(17) 0.42906(7) 0.99428(3)
O9_13 O 0.98249(18) 0.41844(7) 0.99839(3)
H3_13 H 0.927268 0.412073 0.997671
C9_13 C 0.9134(2) 0.48372(10) 0.99758(4)
C10_13 C 0.9898(2) 0.45875(10) 0.99919(4)
C12_13 C 0.8210(2) 0.46637(10) 0.99461(4)
C39_11 C 0.9249(2) 0.52466(10) 0.99837(4)
H26_11 H 0.873339 0.541486 0.997207
C11_12 C 0.6749(2) 0.27466(10) 0.00163(4)
H6_12 H 0.623339 0.291486 0.002793
O10_12 O 0.50507(17) 0.23986(7) 0.00791(3)
O11_12 O 0.56258(17) 0.17906(7) 0.00572(3)
O12_12 O 0.73249(18) 0.16844(7) 0.00161(3)
H25_12 H 0.677268 0.162073 0.002329
C37_12 C 0.6634(2) 0.23372(10) 0.00242(4)
C38_12 C 0.7398(2) 0.20875(10) 0.00081(4)
C40_12 C 0.5710(2) 0.21637(10) 0.00539(4)
O8_14 O 0.93742(17) 0.42906(7) 0.75572(3)
O9_14 O 0.76751(18) 0.41844(7) 0.75161(3)
H3_14 H 0.822732 0.412073 0.752329
C9_14 C 0.8366(2) 0.48372(10) 0.75242(4)
C10_14 C 0.7602(2) 0.45875(10) 0.75081(4)
C11_13 C 0.6749(2) 0.47534(10) 0.74837(4)
H6_13 H 0.623339 0.458514 0.747207
C12_14 C 0.9290(2) 0.46637(10) 0.75539(4)
O10_13 O 0.50507(17) 0.51014(7) 0.74209(3)
O11_13 O 0.56258(17) 0.57094(7) 0.74428(3)
O12_13 O 0.73249(18) 0.58156(7) 0.74839(3)
H25_13 H 0.677268 0.587927 0.747671
C37_13 C 0.6634(2) 0.51628(10) 0.74758(4)
C38_13 C 0.7398(2) 0.54125(10) 0.74919(4)
C39_12 C 0.8251(2) 0.52466(10) 0.75163(4)
H26_12 H 0.876661 0.541486 0.752793
C40_13 C 0.5710(2) 0.53363(10) 0.74461(4)
C11_14 C 0.0751(2) 0.27466(10) 0.74837(4)
H6_14 H 0.126661 0.291486 0.747207
O10_14 O 0.24493(17) 0.23986(7) 0.74209(3)
O11_14 O 0.18742(17) 0.17906(7) 0.74428(3)
O12_14 O 0.01751(18) 0.16844(7) 0.74839(3)
H25_14 H 0.072732 0.162073 0.747671
C37_14 C 0.0866(2) 0.23372(10) 0.74758(4)
C38_14 C 0.0102(2) 0.20875(10) 0.74919(4)
C40_14 C 0.1790(2) 0.21637(10) 0.74461(4)
C11_15 C 0.0751(2) 0.97534(10) 0.50163(4)
H6_15 H 0.126661 0.958514 0.502793
C39_13 C 0.9249(2) 0.02466(10) 0.49837(4)
H26_13 H 0.873339 0.041486 0.497207
O8_15 O 0.93742(17) 0.82094(7) 0.49428(3)
O9_15 O 0.76751(18) 0.83156(7) 0.49839(3)
H3_15 H 0.822732 0.837927 0.497671
C9_15 C 0.8366(2) 0.76628(10) 0.49758(4)
C10_15 C 0.7602(2) 0.79125(10) 0.49919(4)
C11_16 C 0.6749(2) 0.77466(10) 0.50163(4)
H6_16 H 0.623339 0.791486 0.502793
C12_15 C 0.9290(2) 0.78363(10) 0.49461(4)
O10_15 O 0.50507(17) 0.73986(7) 0.50791(3)
O11_15 O 0.56258(17) 0.67906(7) 0.50572(3)
O12_15 O 0.73249(18) 0.66844(7) 0.50161(3)
H25_15 H 0.677268 0.662073 0.502329
C37_15 C 0.6634(2) 0.73372(10) 0.50242(4)
C38_15 C 0.7398(2) 0.70875(10) 0.50081(4)
C39_14 C 0.8251(2) 0.72534(10) 0.49837(4)
H26_14 H 0.876661 0.708514 0.497207
C40_15 C 0.5710(2) 0.71637(10) 0.50539(4)
O10_16 O 0.50507(17) 0.01014(7) 0.24209(3)
O11_16 O 0.56258(17) 0.07094(7) 0.24428(3)
O12_16 O 0.73249(18) 0.08156(7) 0.24839(3)
H25_16 H 0.677268 0.087927 0.247671
C37_16 C 0.6634(2) 0.01628(10) 0.24758(4)
C38_16 C 0.7398(2) 0.04125(10) 0.24919(4)
C39_15 C 0.8251(2) 0.02466(10) 0.25163(4)
H26_15 H 0.876661 0.041486 0.252793
C40_16 C 0.5710(2) 0.03363(10) 0.24461(4)
O8_16 O 0.81258(17) 0.82094(7) 0.25572(3)
O9_16 O 0.98249(18) 0.83156(7) 0.25161(3)
H3_16 H 0.927268 0.837927 0.252329
C9_16 C 0.9134(2) 0.76628(10) 0.25242(4)
C10_16 C 0.9898(2) 0.79125(10) 0.25081(4)
C12_16 C 0.8210(2) 0.78363(10) 0.25539(4)
C39_16 C 0.9249(2) 0.72534(10) 0.25163(4)
H26_16 H 0.873339 0.708514 0.252793
C51_13 C 0.0182(3) 0.09290(11) 0.55554(4)
C52_13 C 0.0060(3) 0.08007(11) 0.57159(4)
C53_13 C 0.0376(3) 0.04307(12) 0.57617(5)
H34_13 H 0.028581 0.034001 0.587092
C54_13 C 0.0825(3) 0.01891(11) 0.56482(4)
C55_13 C 0.0945(3) 0.03232(11) 0.54872(4)
H35_13 H 0.124475 0.015985 0.540908
C56_13 C 0.0627(3) 0.06928(11) 0.54414(4)
H36_13 H 0.071314 0.078468 0.533228
H39_13 H 0.270987 0.017054 0.614716
C61_13 C 0.2001(3) 0.00461(12) 0.59361(5)
H40_13 H 0.203604 0.030495 0.589055
O13_6 O 0.7518(2) 0.89183(9) 0.57578(4)
O14_6 O 0.8471(2) 0.92296(13) 0.55981(5)
O16_13 O 0.3828(2) 0.98392(10) 0.53811(5)
O17_13 O 0.7875(2) 0.96523(14) 0.53552(5)
H27_13 H 0.824883 0.948720 0.539297
O18_13 O 0.4428(2) 0.93641(12) 0.55945(5)
H28_13 H 0.403828 0.949865 0.554341
C41_13 C 0.6890(3) 0.93388(12) 0.55545(5)
C42_13 C 0.7033(3) 0.95821(13) 0.54203(5)
C43_13 C 0.6291(3) 0.97714(13) 0.53466(5)
H29_13 H 0.638895 0.994618 0.525690
C44_13 C 0.5418(3) 0.97064(12) 0.54031(5)
C45_13 C 0.5274(3) 0.94477(12) 0.55355(6)
C46_13 C 0.6016(3) 0.92709(13) 0.56114(5)
H30_13 H 0.592246 0.910185 0.570318
C47_13 C 0.7681(3) 0.91519(13) 0.56410(5)
C48_13 C 0.4615(3) 0.99013(12) 0.53256(6)
Zn5_3 Zn 0.875000 0.875000 0.58321(2)
Zn1_8 Zn 0.875000 0.375000 0.66679(2)
O3_13 O 0.2755(2) 0.73715(10) 0.52061(4)
O4_13 O 0.3672(2) 0.76608(10) 0.53811(5)
O6_13 O 0.3072(2) 0.81359(12) 0.55945(5)
H2_13 H 0.346172 0.800135 0.554341
N1_13 N 0.8365(2) 0.41936(10) 0.65130(4)
N2_13 N 0.7999(3) 0.47954(11) 0.64112(5)
N3_13 N 0.7762(2) 0.45019(10) 0.63055(4)
N4_13 N 0.4346(2) 0.68012(9) 0.53611(4)
N5_13 N 0.4667(3) 0.66004(10) 0.56184(4)
N6_13 N 0.4845(2) 0.63066(9) 0.55057(4)
N8_13 N 0.7584(2) 0.35531(11) 0.51630(5)
N9_13 N 0.6722(2) 0.36824(9) 0.52001(4)
N10_13 N 0.6156(2) 0.48141(9) 0.56951(4)
C1_13 C 0.0610(3) 0.81612(12) 0.55545(5)
C2_13 C 0.0467(3) 0.79179(13) 0.54203(5)
C3_13 C 0.1209(3) 0.77286(13) 0.53466(5)
H4_13 H 0.111105 0.755382 0.525690
C4_13 C 0.2082(3) 0.77936(12) 0.54031(5)
C5_13 C 0.2226(3) 0.80523(12) 0.55355(6)
C6_13 C 0.1484(3) 0.82291(13) 0.56114(5)
H5_13 H 0.157754 0.839815 0.570318
C8_13 C 0.2885(3) 0.75987(12) 0.53256(6)
C13_13 C 0.4369(3) 0.68902(11) 0.55247(5)
H7_13 H 0.418506 0.714013 0.556712
C14_13 C 0.4652(2) 0.64336(10) 0.53551(4)
H8_13 H 0.472323 0.628207 0.525759
C15_13 C 0.5182(3) 0.59290(11) 0.55554(4)
C16_13 C 0.5060(3) 0.58007(11) 0.57159(4)
H9_13 H 0.476275 0.596594 0.579365
C17_13 C 0.5376(3) 0.54307(12) 0.57617(5)
H10_13 H 0.528581 0.534001 0.587092
C18_13 C 0.5825(3) 0.51891(11) 0.56482(4)
C19_13 C 0.5945(3) 0.53232(11) 0.54872(4)
H11_13 H 0.624475 0.515985 0.540908
C20_13 C 0.5627(3) 0.56928(11) 0.54414(4)
H12_13 H 0.571314 0.578468 0.533228
C21_13 C 0.8344(3) 0.45914(13) 0.65362(5)
H13_13 H 0.855681 0.471436 0.663386
C22_13 C 0.7989(3) 0.41488(12) 0.63662(5)
H14_13 H 0.789455 0.390220 0.631242
C23_13 C 0.7343(3) 0.45889(11) 0.61509(4)
C24_13 C 0.7403(3) 0.49675(12) 0.60882(5)
H15_13 H 0.770987 0.517054 0.614716
C25_13 C 0.7001(3) 0.50461(12) 0.59361(5)
H16_13 H 0.703604 0.530495 0.589055
C26_13 C 0.6553(3) 0.47478(12) 0.58512(4)
C27_13 C 0.6503(3) 0.43680(12) 0.59176(5)
H17_13 H 0.619518 0.416355 0.585955
C28_13 C 0.6902(3) 0.42883(12) 0.60684(5)
H18_13 H 0.687065 0.402972 0.611432
C29_13 C 0.7442(3) 0.32956(13) 0.50459(5)
H19_11 H 0.791933 0.315117 0.499440
C30_13 C 0.6116(2) 0.34980(10) 0.51054(4)
H20_13 H 0.547481 0.353642 0.510982
C31_13 C 0.6575(3) 0.39679(10) 0.53274(4)
C32_13 C 0.5708(3) 0.41109(12) 0.53560(5)
H21_13 H 0.520915 0.402065 0.529170
C33_13 C 0.5572(3) 0.43871(12) 0.54794(5)
H22_13 H 0.497604 0.448600 0.550004
C34_13 C 0.6297(3) 0.45196(11) 0.55727(4)
C35_13 C 0.7147(3) 0.43638(13) 0.55453(6)
H23_13 H 0.764160 0.444554 0.561261
C36_13 C 0.7299(3) 0.40908(13) 0.54221(6)
H24_13 H 0.789416 0.398936 0.540296
N11_13 N 0.9135(2) 0.33064(10) 0.65130(4)
N12_13 N 0.9501(3) 0.27046(11) 0.64112(5)
N13_13 N 0.9738(2) 0.29981(10) 0.63055(4)
N18_13 N 0.9916(2) 0.39469(11) 0.51630(5)
C57_13 C 0.9156(3) 0.29086(13) 0.65362(5)
H37_13 H 0.894319 0.278564 0.663386
C58_13 C 0.9511(3) 0.33512(12) 0.63662(5)
H38_13 H 0.960545 0.359780 0.631242
H39_14 H 0.979013 0.232946 0.614716
H43_11 H 0.958067 0.434883 0.499440
H47_13 H 0.985840 0.305446 0.561261
H48_13 H 0.960584 0.351064 0.540296
O19_8 O 0.9982(2) 0.39183(9) 0.67422(4)
O20_8 O 0.7518(2) 0.35817(9) 0.67422(4)
O21_8 O 0.9029(2) 0.42296(13) 0.69019(5)
O22_8 O 0.8471(2) 0.32704(13) 0.69019(5)
O1_6 O 0.9982(2) 0.85817(9) 0.57578(4)
O2_6 O 0.9029(2) 0.82704(13) 0.55981(5)
O5_13 O 0.9625(2) 0.78477(14) 0.53552(5)
H1_13 H 0.925117 0.801280 0.539297
C7_13 C 0.9819(3) 0.83481(13) 0.56410(5)
O15_13 O 0.4745(2) 0.23715(10) 0.72939(4)
O16_14 O 0.3828(2) 0.26608(10) 0.71189(5)
O17_14 O 0.7875(2) 0.28477(14) 0.71448(5)
H27_14 H 0.824883 0.301280 0.710703
O18_14 O 0.4428(2) 0.31359(12) 0.69055(5)
H28_14 H 0.403828 0.300135 0.695659
N14_13 N 0.3154(2) 0.18012(9) 0.71389(4)
N15_13 N 0.2833(3) 0.16004(10) 0.68816(4)
N16_13 N 0.2655(2) 0.13066(9) 0.69943(4)
C41_14 C 0.6890(3) 0.31612(12) 0.69455(5)
C42_14 C 0.7033(3) 0.29179(13) 0.70797(5)
C43_14 C 0.6291(3) 0.27286(13) 0.71534(5)
H29_14 H 0.638895 0.255382 0.724310
C44_14 C 0.5418(3) 0.27936(12) 0.70969(5)
C45_14 C 0.5274(3) 0.30523(12) 0.69645(6)
C46_14 C 0.6016(3) 0.32291(13) 0.68886(5)
H30_14 H 0.592246 0.339815 0.679682
C47_14 C 0.7681(3) 0.33481(13) 0.68590(5)
C48_14 C 0.4615(3) 0.25987(12) 0.71744(6)
C49_13 C 0.3131(3) 0.18902(11) 0.69753(5)
H31_13 H 0.331494 0.214013 0.693288
C50_13 C 0.2848(2) 0.14336(10) 0.71449(4)
H32_13 H 0.277677 0.128207 0.724241
C51_14 C 0.2318(3) 0.09290(11) 0.69446(4)
C52_14 C 0.2440(3) 0.08007(11) 0.67841(4)
H33_13 H 0.273725 0.096594 0.670635
C53_14 C 0.2124(3) 0.04307(12) 0.67383(5)
H34_14 H 0.221419 0.034001 0.662908
C54_14 C 0.1675(3) 0.01891(11) 0.68518(4)
C55_14 C 0.1555(3) 0.03232(11) 0.70128(4)
H35_14 H 0.125525 0.015985 0.709092
C56_14 C 0.1873(3) 0.06928(11) 0.70586(4)
H36_14 H 0.178686 0.078468 0.716772
C61_14 C 0.0499(3) 0.00461(12) 0.65639(5)
H40_14 H 0.046396 0.030495 0.660945
O3_14 O 0.2755(2) 0.51285(10) 0.72939(4)
O4_14 O 0.3672(2) 0.48392(10) 0.71189(5)
O6_14 O 0.3072(2) 0.43641(12) 0.69055(5)
H2_14 H 0.346172 0.449865 0.695659
N1_14 N 0.8365(2) 0.83064(10) 0.59870(4)
N2_14 N 0.7999(3) 0.77046(11) 0.60888(5)
N3_14 N 0.7762(2) 0.79981(10) 0.61945(4)
N4_14 N 0.4346(2) 0.56988(9) 0.71389(4)
N5_14 N 0.4667(3) 0.58996(10) 0.68816(4)
N6_14 N 0.4845(2) 0.61934(9) 0.69943(4)
N8_14 N 0.7584(2) 0.89469(11) 0.73370(5)
N9_14 N 0.6722(2) 0.88176(9) 0.72999(4)
N10_14 N 0.6156(2) 0.76859(9) 0.68049(4)
C1_14 C 0.0610(3) 0.43388(12) 0.69455(5)
C2_14 C 0.0467(3) 0.45821(13) 0.70797(5)
C3_14 C 0.1209(3) 0.47714(13) 0.71534(5)
H4_14 H 0.111105 0.494618 0.724310
C4_14 C 0.2082(3) 0.47064(12) 0.70969(5)
C5_14 C 0.2226(3) 0.44477(12) 0.69645(6)
C6_14 C 0.1484(3) 0.42709(13) 0.68886(5)
H5_14 H 0.157754 0.410185 0.679682
C8_14 C 0.2885(3) 0.49013(12) 0.71744(6)
C13_14 C 0.4369(3) 0.56098(11) 0.69753(5)
H7_14 H 0.418506 0.535987 0.693288
C14_14 C 0.4652(2) 0.60664(10) 0.71449(4)
H8_14 H 0.472323 0.621793 0.724241
C15_14 C 0.5182(3) 0.65710(11) 0.69446(4)
C16_14 C 0.5060(3) 0.66993(11) 0.67841(4)
H9_14 H 0.476275 0.653406 0.670635
C17_14 C 0.5376(3) 0.70693(12) 0.67383(5)
H10_14 H 0.528581 0.715999 0.662908
C18_14 C 0.5825(3) 0.73109(11) 0.68518(4)
C19_14 C 0.5945(3) 0.71768(11) 0.70128(4)
H11_14 H 0.624475 0.734015 0.709092
C20_14 C 0.5627(3) 0.68072(11) 0.70586(4)
H12_14 H 0.571314 0.671532 0.716772
C21_14 C 0.8344(3) 0.79086(13) 0.59638(5)
H13_14 H 0.855681 0.778564 0.586614
C22_14 C 0.7989(3) 0.83512(12) 0.61338(5)
H14_14 H 0.789455 0.859780 0.618758
C23_14 C 0.7343(3) 0.79111(11) 0.63491(4)
C24_14 C 0.7403(3) 0.75325(12) 0.64118(5)
H15_14 H 0.770987 0.732946 0.635284
C25_14 C 0.7001(3) 0.74539(12) 0.65639(5)
H16_14 H 0.703604 0.719505 0.660945
C26_14 C 0.6553(3) 0.77522(12) 0.66488(4)
C27_14 C 0.6503(3) 0.81320(12) 0.65824(5)
H17_14 H 0.619518 0.833645 0.664045
C28_14 C 0.6902(3) 0.82117(12) 0.64316(5)
H18_14 H 0.687065 0.847028 0.638568
C29_14 C 0.7442(3) 0.92044(13) 0.74541(5)
H19_12 H 0.791933 0.934883 0.750560
C30_14 C 0.6116(2) 0.90020(10) 0.73946(4)
H20_14 H 0.547481 0.896358 0.739018
C31_14 C 0.6575(3) 0.85321(10) 0.71726(4)
C32_14 C 0.5708(3) 0.83891(12) 0.71440(5)
H21_14 H 0.520915 0.847935 0.720830
C33_14 C 0.5572(3) 0.81129(12) 0.70206(5)
H22_14 H 0.497604 0.801400 0.699996
C34_14 C 0.6297(3) 0.79804(11) 0.69273(4)
C35_14 C 0.7147(3) 0.81362(13) 0.69547(6)
H23_14 H 0.764160 0.805446 0.688739
C36_14 C 0.7299(3) 0.84092(13) 0.70779(6)
H24_14 H 0.789416 0.851064 0.709704
N11_14 N 0.9135(2) 0.91936(10) 0.59870(4)
N12_14 N 0.9501(3) 0.97954(11) 0.60888(5)
N13_14 N 0.9738(2) 0.95019(10) 0.61945(4)
N18_14 N 0.9916(2) 0.85531(11) 0.73370(5)
C57_14 C 0.9156(3) 0.95914(13) 0.59638(5)
H37_14 H 0.894319 0.971436 0.586614
C58_14 C 0.9511(3) 0.91488(12) 0.61338(5)
H38_14 H 0.960545 0.890220 0.618758
H43_12 H 0.958067 0.815117 0.750560
H47_14 H 0.985840 0.944554 0.688739
H48_14 H 0.960584 0.898936 0.709704
O5_14 O 0.9625(2) 0.46523(14) 0.71448(5)
H1_14 H 0.925117 0.448720 0.710703
C7_14 C 0.9819(3) 0.41519(13) 0.68590(5)
O15_14 O 0.7755(2) 0.01285(10) 0.72939(4)
N14_14 N 0.9346(2) 0.06988(9) 0.71389(4)
N15_14 N 0.9667(3) 0.08996(10) 0.68816(4)
N16_14 N 0.9845(2) 0.11934(9) 0.69943(4)
C49_14 C 0.9369(3) 0.06098(11) 0.69753(5)
H31_14 H 0.918506 0.035987 0.693288
C50_14 C 0.9652(2) 0.10664(10) 0.71449(4)
H32_14 H 0.972323 0.121793 0.724241
H33_14 H 0.976275 0.153406 0.670635
H46_13 H 0.997604 0.301400 0.699996
O1_7 O 0.2518(2) 0.89183(9) 0.07578(4)
O2_7 O 0.3471(2) 0.92296(13) 0.05981(5)
O5_15 O 0.2875(2) 0.96523(14) 0.03552(5)
H1_15 H 0.324883 0.948720 0.039297
C1_15 C 0.1890(3) 0.93388(12) 0.05545(5)
C2_15 C 0.2033(3) 0.95821(13) 0.04203(5)
C3_15 C 0.1291(3) 0.97714(13) 0.03466(5)
H4_15 H 0.138895 0.994618 0.025690
C4_15 C 0.0418(3) 0.97064(12) 0.04031(5)
C5_15 C 0.0274(3) 0.94477(12) 0.05355(6)
C6_15 C 0.1016(3) 0.92709(13) 0.06114(5)
H5_15 H 0.092246 0.910185 0.070318
C7_15 C 0.2681(3) 0.91519(13) 0.06410(5)
Zn4_4 Zn 0.375000 0.875000 0.08321(2)
H19_13 H 0.458067 0.434883 0.999440
H43_13 H 0.291933 0.315117 0.999440
O4_15 O 0.8828(2) 0.98392(10) 0.03811(5)
O6_15 O 0.9428(2) 0.93641(12) 0.05945(5)
H2_15 H 0.903828 0.949865 0.054341
C8_15 C 0.9615(3) 0.99013(12) 0.03256(6)
O13_7 O 0.4982(2) 0.85817(9) 0.07578(4)
O14_7 O 0.4029(2) 0.82704(13) 0.05981(5)
O15_15 O 0.7755(2) 0.73715(10) 0.02061(4)
O16_15 O 0.8672(2) 0.76608(10) 0.03811(5)
O17_15 O 0.4625(2) 0.78477(14) 0.03552(5)
H27_15 H 0.425117 0.801280 0.039297
O18_15 O 0.8072(2) 0.81359(12) 0.05945(5)
H28_15 H 0.846172 0.800135 0.054341
N14_15 N 0.9346(2) 0.68012(9) 0.03611(4)
N15_15 N 0.9667(3) 0.66004(10) 0.06184(4)
N16_15 N 0.9845(2) 0.63066(9) 0.05057(4)
C41_15 C 0.5610(3) 0.81612(12) 0.05545(5)
C42_15 C 0.5467(3) 0.79179(13) 0.04203(5)
C43_15 C 0.6209(3) 0.77286(13) 0.03466(5)
H29_15 H 0.611105 0.755382 0.025690
C44_15 C 0.7082(3) 0.77936(12) 0.04031(5)
C45_15 C 0.7226(3) 0.80523(12) 0.05355(6)
C46_15 C 0.6484(3) 0.82291(13) 0.06114(5)
H30_15 H 0.657754 0.839815 0.070318
C47_15 C 0.4819(3) 0.83481(13) 0.06410(5)
C48_15 C 0.7885(3) 0.75987(12) 0.03256(6)
C49_15 C 0.9369(3) 0.68902(11) 0.05247(5)
H31_15 H 0.918506 0.714013 0.056712
C50_15 C 0.9652(2) 0.64336(10) 0.03551(4)
H32_15 H 0.972323 0.628207 0.025759
H33_15 H 0.976275 0.596594 0.079365
H46_14 H 0.997604 0.448600 0.050004
O13_8 O 0.7518(2) 0.39183(9) 0.07578(4)
O14_8 O 0.8471(2) 0.42296(13) 0.05981(5)
O15_16 O 0.4745(2) 0.51285(10) 0.02061(4)
O16_16 O 0.3828(2) 0.48392(10) 0.03811(5)
O17_16 O 0.7875(2) 0.46523(14) 0.03552(5)
H27_16 H 0.824883 0.448720 0.039297
O18_16 O 0.4428(2) 0.43641(12) 0.05945(5)
H28_16 H 0.403828 0.449865 0.054341
N14_16 N 0.3154(2) 0.56988(9) 0.03611(4)
N15_16 N 0.2833(3) 0.58996(10) 0.06184(4)
N16_16 N 0.2655(2) 0.61934(9) 0.05057(4)
N19_15 N 0.0778(2) 0.88176(9) 0.02001(4)
N20_15 N 0.1344(2) 0.76859(9) 0.06951(4)
C41_16 C 0.6890(3) 0.43388(12) 0.05545(5)
C42_16 C 0.7033(3) 0.45821(13) 0.04203(5)
C43_16 C 0.6291(3) 0.47714(13) 0.03466(5)
H29_16 H 0.638895 0.494618 0.025690
C44_16 C 0.5418(3) 0.47064(12) 0.04031(5)
C45_16 C 0.5274(3) 0.44477(12) 0.05355(6)
C46_16 C 0.6016(3) 0.42709(13) 0.06114(5)
H30_16 H 0.592246 0.410185 0.070318
C47_16 C 0.7681(3) 0.41519(13) 0.06410(5)
C48_16 C 0.4615(3) 0.49013(12) 0.03256(6)
C49_16 C 0.3131(3) 0.56098(11) 0.05247(5)
H31_16 H 0.331494 0.535987 0.056712
C50_16 C 0.2848(2) 0.60664(10) 0.03551(4)
H32_16 H 0.277677 0.621793 0.025759
C51_15 C 0.2318(3) 0.65710(11) 0.05554(4)
C52_15 C 0.2440(3) 0.66993(11) 0.07159(4)
H33_16 H 0.273725 0.653406 0.079365
C53_15 C 0.2124(3) 0.70693(12) 0.07617(5)
H34_15 H 0.221419 0.715999 0.087092
C54_15 C 0.1675(3) 0.73109(11) 0.06482(4)
C55_15 C 0.1555(3) 0.71768(11) 0.04872(4)
H35_15 H 0.125525 0.734015 0.040908
C56_15 C 0.1873(3) 0.68072(11) 0.04414(4)
H36_15 H 0.178686 0.671532 0.033228
C59_15 C 0.0157(3) 0.79111(11) 0.11509(4)
C60_15 C 0.0097(3) 0.75325(12) 0.10882(5)
C61_15 C 0.0499(3) 0.74539(12) 0.09361(5)
H40_15 H 0.046396 0.719505 0.089055
C62_15 C 0.0947(3) 0.77522(12) 0.08512(4)
C63_15 C 0.0997(3) 0.81320(12) 0.09176(5)
H41_15 H 0.130482 0.833645 0.085955
C64_15 C 0.0598(3) 0.82117(12) 0.10684(5)
H42_15 H 0.062935 0.847028 0.111432
C65_15 C 0.0058(3) 0.92044(13) 0.00459(5)
C66_15 C 0.1384(2) 0.90020(10) 0.01054(4)
H44_15 H 0.202519 0.896358 0.010982
C67_15 C 0.0925(3) 0.85321(10) 0.03274(4)
C68_15 C 0.1792(3) 0.83891(12) 0.03560(5)
H45_15 H 0.229085 0.847935 0.029170
C69_15 C 0.1928(3) 0.81129(12) 0.04794(5)
H46_15 H 0.252396 0.801400 0.050004
C70_15 C 0.1203(3) 0.79804(11) 0.05727(4)
C71_15 C 0.0353(3) 0.81362(13) 0.05453(6)
C72_15 C 0.0201(3) 0.84092(13) 0.04221(6)
Zn5_4 Zn 0.875000 0.375000 0.08321(2)
O3_15 O 0.2755(2) 0.23715(10) 0.02061(4)
O4_16 O 0.3672(2) 0.26608(10) 0.03811(5)
O6_16 O 0.3072(2) 0.31359(12) 0.05945(5)
H2_16 H 0.346172 0.300135 0.054341
N4_15 N 0.4346(2) 0.18012(9) 0.03611(4)
N5_15 N 0.4667(3) 0.16004(10) 0.06184(4)
N6_15 N 0.4845(2) 0.13066(9) 0.05057(4)
C1_16 C 0.0610(3) 0.31612(12) 0.05545(5)
C2_16 C 0.0467(3) 0.29179(13) 0.04203(5)
C3_16 C 0.1209(3) 0.27286(13) 0.03466(5)
H4_16 H 0.111105 0.255382 0.025690
C4_16 C 0.2082(3) 0.27936(12) 0.04031(5)
C5_16 C 0.2226(3) 0.30523(12) 0.05355(6)
C6_16 C 0.1484(3) 0.32291(13) 0.06114(5)
H5_16 H 0.157754 0.339815 0.070318
C8_16 C 0.2885(3) 0.25987(12) 0.03256(6)
C13_15 C 0.4369(3) 0.18902(11) 0.05247(5)
H7_15 H 0.418506 0.214013 0.056712
C14_15 C 0.4652(2) 0.14336(10) 0.03551(4)
H8_15 H 0.472323 0.128207 0.025759
C15_15 C 0.5182(3) 0.09290(11) 0.05554(4)
C16_15 C 0.5060(3) 0.08007(11) 0.07159(4)
H9_15 H 0.476275 0.096594 0.079365
C17_15 C 0.5376(3) 0.04307(12) 0.07617(5)
H10_15 H 0.528581 0.034001 0.087092
C18_15 C 0.5825(3) 0.01891(11) 0.06482(4)
C19_15 C 0.5945(3) 0.03232(11) 0.04872(4)
H11_15 H 0.624475 0.015985 0.040908
C20_15 C 0.5627(3) 0.06928(11) 0.04414(4)
H12_15 H 0.571314 0.078468 0.033228
H15_15 H 0.770987 0.017054 0.114716
C25_15 C 0.7001(3) 0.00461(12) 0.09361(5)
H16_15 H 0.703604 0.030495 0.089055
H19_14 H 0.791933 0.815117 0.999440
H43_14 H 0.958067 0.934883 0.999440
O1_8 O 0.9982(2) 0.35817(9) 0.07578(4)
O2_8 O 0.9029(2) 0.32704(13) 0.05981(5)
O5_16 O 0.9625(2) 0.28477(14) 0.03552(5)
H1_16 H 0.925117 0.301280 0.039297
C7_16 C 0.9819(3) 0.33481(13) 0.06410(5)
O3_16 O 0.2755(2) 0.01285(10) 0.22939(4)
N1_15 N 0.8365(2) 0.33064(10) 0.09870(4)
N2_15 N 0.7999(3) 0.27046(11) 0.10888(5)
N3_15 N 0.7762(2) 0.29981(10) 0.11945(4)
N4_16 N 0.4346(2) 0.06988(9) 0.21389(4)
N5_16 N 0.4667(3) 0.08996(10) 0.18816(4)
N6_16 N 0.4845(2) 0.11934(9) 0.19943(4)
N8_15 N 0.7584(2) 0.39469(11) 0.23370(5)
N9_15 N 0.6722(2) 0.38176(9) 0.22999(4)
N10_15 N 0.6156(2) 0.26859(9) 0.18049(4)
C13_16 C 0.4369(3) 0.06098(11) 0.19753(5)
H7_16 H 0.418506 0.035987 0.193288
C14_16 C 0.4652(2) 0.10664(10) 0.21449(4)
H8_16 H 0.472323 0.121793 0.224241
C15_16 C 0.5182(3) 0.15710(11) 0.19446(4)
C16_16 C 0.5060(3) 0.16993(11) 0.17841(4)
H9_16 H 0.476275 0.153406 0.170635
C17_16 C 0.5376(3) 0.20693(12) 0.17383(5)
H10_16 H 0.528581 0.215999 0.162908
C18_16 C 0.5825(3) 0.23109(11) 0.18518(4)
C19_16 C 0.5945(3) 0.21768(11) 0.20128(4)
H11_16 H 0.624475 0.234015 0.209092
C20_16 C 0.5627(3) 0.18072(11) 0.20586(4)
H12_16 H 0.571314 0.171532 0.216772
C21_15 C 0.8344(3) 0.29086(13) 0.09638(5)
H13_15 H 0.855681 0.278564 0.086614
C22_15 C 0.7989(3) 0.33512(12) 0.11338(5)
H14_15 H 0.789455 0.359780 0.118758
C23_15 C 0.7343(3) 0.29111(11) 0.13491(4)
C24_15 C 0.7403(3) 0.25325(12) 0.14118(5)
H15_16 H 0.770987 0.232946 0.135284
C25_16 C 0.7001(3) 0.24539(12) 0.15639(5)
H16_16 H 0.703604 0.219505 0.160945
C26_15 C 0.6553(3) 0.27522(12) 0.16488(4)
C27_15 C 0.6503(3) 0.31320(12) 0.15824(5)
H17_15 H 0.619518 0.333645 0.164045
C28_15 C 0.6902(3) 0.32117(12) 0.14316(5)
H18_15 H 0.687065 0.347028 0.138568
C29_15 C 0.7442(3) 0.42044(13) 0.24541(5)
H19_15 H 0.791933 0.434883 0.250560
C30_15 C 0.6116(2) 0.40020(10) 0.23946(4)
H20_15 H 0.547481 0.396358 0.239018
C31_15 C 0.6575(3) 0.35321(10) 0.21726(4)
C32_15 C 0.5708(3) 0.33891(12) 0.21440(5)
H21_15 H 0.520915 0.347935 0.220830
C33_15 C 0.5572(3) 0.31129(12) 0.20206(5)
H22_15 H 0.497604 0.301400 0.199996
C34_15 C 0.6297(3) 0.29804(11) 0.19273(4)
C35_15 C 0.7147(3) 0.31362(13) 0.19547(6)
H23_15 H 0.764160 0.305446 0.188739
C36_15 C 0.7299(3) 0.34092(13) 0.20779(6)
H24_15 H 0.789416 0.351064 0.209704
N11_15 N 0.9135(2) 0.41936(10) 0.09870(4)
N12_15 N 0.9501(3) 0.47954(11) 0.10888(5)
N13_15 N 0.9738(2) 0.45019(10) 0.11945(4)
N18_15 N 0.9916(2) 0.35531(11) 0.23370(5)
C57_15 C 0.9156(3) 0.45914(13) 0.09638(5)
H37_15 H 0.894319 0.471436 0.086614
C58_15 C 0.9511(3) 0.41488(12) 0.11338(5)
H38_15 H 0.960545 0.390220 0.118758
H39_15 H 0.979013 0.517054 0.135284
H43_15 H 0.958067 0.315117 0.250560
H47_15 H 0.985840 0.444554 0.188739
H48_15 H 0.960584 0.398936 0.209704
N1_16 N 0.4135(2) 0.91936(10) 0.09870(4)
N2_16 N 0.4501(3) 0.97954(11) 0.10888(5)
N3_16 N 0.4738(2) 0.95019(10) 0.11945(4)
N8_16 N 0.4916(2) 0.85531(11) 0.23370(5)
N9_16 N 0.5778(2) 0.86824(9) 0.22999(4)
N10_16 N 0.6344(2) 0.98141(9) 0.18049(4)
C21_16 C 0.4156(3) 0.95914(13) 0.09638(5)
H13_16 H 0.394319 0.971436 0.086614
C22_16 C 0.4511(3) 0.91488(12) 0.11338(5)
H14_16 H 0.460545 0.890220 0.118758
C23_16 C 0.5157(3) 0.95889(11) 0.13491(4)
C24_16 C 0.5097(3) 0.99675(12) 0.14118(5)
C26_16 C 0.5947(3) 0.97478(12) 0.16488(4)
C27_16 C 0.5997(3) 0.93680(12) 0.15824(5)
H17_16 H 0.630482 0.916355 0.164045
C28_16 C 0.5598(3) 0.92883(12) 0.14316(5)
H18_16 H 0.562935 0.902972 0.138568
C29_16 C 0.5058(3) 0.82956(13) 0.24541(5)
H19_16 H 0.458067 0.815117 0.250560
C30_16 C 0.6384(2) 0.84980(10) 0.23946(4)
H20_16 H 0.702519 0.853642 0.239018
C31_16 C 0.5925(3) 0.89679(10) 0.21726(4)
C32_16 C 0.6792(3) 0.91109(12) 0.21440(5)
H21_16 H 0.729085 0.902065 0.220830
C33_16 C 0.6928(3) 0.93871(12) 0.20206(5)
H22_16 H 0.752396 0.948600 0.199996
C34_16 C 0.6203(3) 0.95196(11) 0.19273(4)
C35_16 C 0.5353(3) 0.93638(13) 0.19547(6)
H23_16 H 0.485840 0.944554 0.188739
C36_16 C 0.5201(3) 0.90908(13) 0.20779(6)
H24_16 H 0.460584 0.898936 0.209704
N11_16 N 0.3365(2) 0.83064(10) 0.09870(4)
N12_16 N 0.2999(3) 0.77046(11) 0.10888(5)
N13_16 N 0.2762(2) 0.79981(10) 0.11945(4)
N18_16 N 0.2584(2) 0.89469(11) 0.23370(5)
N19_16 N 0.1722(2) 0.88176(9) 0.22999(4)
N20_16 N 0.1156(2) 0.76859(9) 0.18049(4)
C51_16 C 0.0182(3) 0.65710(11) 0.19446(4)
C52_16 C 0.0060(3) 0.66993(11) 0.17841(4)
C53_16 C 0.0376(3) 0.70693(12) 0.17383(5)
H34_16 H 0.028581 0.715999 0.162908
C54_16 C 0.0825(3) 0.73109(11) 0.18518(4)
C55_16 C 0.0945(3) 0.71768(11) 0.20128(4)
H35_16 H 0.124475 0.734015 0.209092
C56_16 C 0.0627(3) 0.68072(11) 0.20586(4)
H36_16 H 0.071314 0.671532 0.216772
C57_16 C 0.3344(3) 0.79086(13) 0.09638(5)
H37_16 H 0.355681 0.778564 0.086614
C58_16 C 0.2989(3) 0.83512(12) 0.11338(5)
H38_16 H 0.289455 0.859780 0.118758
C59_16 C 0.2343(3) 0.79111(11) 0.13491(4)
C60_16 C 0.2403(3) 0.75325(12) 0.14118(5)
H39_16 H 0.270987 0.732946 0.135284
C61_16 C 0.2001(3) 0.74539(12) 0.15639(5)
H40_16 H 0.203604 0.719505 0.160945
C62_16 C 0.1553(3) 0.77522(12) 0.16488(4)
C63_16 C 0.1503(3) 0.81320(12) 0.15824(5)
H41_16 H 0.119518 0.833645 0.164045
C64_16 C 0.1902(3) 0.82117(12) 0.14316(5)
H42_16 H 0.187065 0.847028 0.138568
C65_16 C 0.2442(3) 0.92044(13) 0.24541(5)
H43_16 H 0.291933 0.934883 0.250560
C66_16 C 0.1116(2) 0.90020(10) 0.23946(4)
H44_16 H 0.047481 0.896358 0.239018
C67_16 C 0.1575(3) 0.85321(10) 0.21726(4)
C68_16 C 0.0708(3) 0.83891(12) 0.21440(5)
H45_16 H 0.020915 0.847935 0.220830
C69_16 C 0.0572(3) 0.81129(12) 0.20206(5)
C70_16 C 0.1297(3) 0.79804(11) 0.19273(4)
C71_16 C 0.2147(3) 0.81362(13) 0.19547(6)
H47_16 H 0.264160 0.805446 0.188739
C72_16 C 0.2299(3) 0.84092(13) 0.20779(6)
H48_16 H 0.289416 0.851064 0.209704
H46_16 H 0.997604 0.948600 0.550004
loop_
_geom_bond_atom_site_label_1
_geom_bond_atom_site_label_2
_geom_bond_site_symmetry_1
_geom_bond_site_symmetry_2
Zn3 O15 1_555 1_555
O13 C47 1_555 1_555
O14 C47 1_555 1_555
O15 C48 1_555 1_555
O16 Zn3 1_555 1_555
O17 H27 1_555 1_555
O18 H28 1_555 1_555
N14 Zn3 1_555 1_555
N15 N16 1_555 1_555
N16 C50 1_555 1_555
C41 C42 1_555 1_555
C42 O17 1_555 1_555
C43 C42 1_555 1_555
H29 C43 1_555 1_555
C44 C43 1_555 1_555
C45 O18 1_555 1_555
C46 C41 1_555 1_555
H30 C46 1_555 1_555
C47 C41 1_555 1_555
C48 O16 1_555 1_555
C49 N14 1_555 1_555
H31 C49 1_555 1_555
C50 N14 1_555 1_555
H32 C50 1_555 1_555
Zn5 O13 1_555 1_555
N22 Zn3 1_555 1_555
O14 Zn5 1_555 1_555
N15 C49 1_555 1_555
C44 C45 1_555 1_555
C44 C48 1_555 1_555
C45 C46 1_555 1_555
Zn1 N1 1_555 1_555
Zn2 O3 1_555 1_555
O3 C8 1_555 1_555
O4 Zn2 1_555 1_555
O6 H2 1_555 1_555
O7 Zn2 1_555 1_555
O8 C12 1_555 1_555
O9 H3 1_555 1_555
N1 C21 1_555 1_555
N2 N3 1_555 1_555
N3 C22 1_555 1_555
N4 Zn2 1_555 1_555
N5 N6 1_555 1_555
N6 C14 1_555 1_555
N7 C29 1_555 1_555
N8 N9 1_555 1_555
N9 C30 1_555 1_555
N10 C18 1_555 1_555
C8 O4 1_555 1_555
C9 C10 1_555 1_555
C10 O9 1_555 1_555
C11 C10 1_555 1_555
H6 C11 1_555 1_555
C12 O7 1_555 1_555
C13 N4 1_555 1_555
H7 C13 1_555 1_555
C14 N4 1_555 1_555
H8 C14 1_555 1_555
C15 N6 1_555 1_555
C16 C15 1_555 1_555
H9 C16 1_555 1_555
C17 C16 1_555 1_555
H10 C17 1_555 1_555
C18 C17 1_555 1_555
C19 C18 1_555 1_555
H11 C19 1_555 1_555
C20 C15 1_555 1_555
H12 C20 1_555 1_555
C21 N2 1_555 1_555
H13 C21 1_555 1_555
C22 N1 1_555 1_555
H14 C22 1_555 1_555
C23 N3 1_555 1_555
C24 C23 1_555 1_555
H15 C24 1_555 1_555
C25 C24 1_555 1_555
H16 C25 1_555 1_555
C26 N10 1_555 1_555
C27 C26 1_555 1_555
H17 C27 1_555 1_555
C28 C23 1_555 1_555
H18 C28 1_555 1_555
C29 N8 1_555 1_555
H19 C29 1_555 1_555
C30 N7 1_555 1_555
H20 C30 1_555 1_555
C31 N9 1_555 1_555
C32 C31 1_555 1_555
H21 C32 1_555 1_555
C33 C32 1_555 1_555
H22 C33 1_555 1_555
C34 N10 1_555 1_555
C35 C34 1_555 1_555
H23 C35 1_555 1_555
C36 C31 1_555 1_555
H24 C36 1_555 1_555
O10 C40 1_555 1_555
O11 C40 1_555 1_555
O12 H25 1_555 1_555
C37 C11 1_555 1_555
C38 O12 1_555 1_555
C39 C9 1_555 1_555
H26 C39 1_555 1_555
C40 C37 1_555 1_555
N11 Zn1 1_555 1_555
N12 N13 1_555 1_555
N13 C58 1_555 1_555
N17 C65 1_555 1_555
N18 N19 1_555 1_555
N19 C66 1_555 1_555
C57 N11 1_555 1_555
H37 C57 1_555 1_555
C58 N11 1_555 1_555
H38 C58 1_555 1_555
C59 N13 1_555 1_555
C60 C59 1_555 1_555
C62 N20 1_555 1_555
C63 C62 1_555 1_555
H41 C63 1_555 1_555
C64 C59 1_555 1_555
H42 C64 1_555 1_555
C65 N18 1_555 1_555
H43 C65 1_555 1_555
C66 N17 1_555 1_555
H44 C66 1_555 1_555
C67 N19 1_555 1_555
C68 C67 1_555 1_555
H45 C68 1_555 1_555
C69 C68 1_555 1_555
C70 N20 1_555 1_555
C71 C70 1_555 1_555
H47 C71 1_555 1_555
C72 C67 1_555 1_555
H48 C72 1_555 1_555
Zn6 O10 1_555 1_555
Zn7 N7 1_555 1_555
Zn8 N17 1_555 1_555
O19 Zn1 1_555 1_555
O20 Zn1 1_555 1_555
O21 Zn1 1_555 1_555
O22 Zn1 1_555 1_555
N21 Zn2 1_555 1_555
N5 C13 1_555 1_555
C9 C12 1_555 1_555
C19 C20 1_555 1_555
C25 C26 1_555 1_555
C27 C28 1_555 1_555
C33 C34 1_555 1_555
C35 C36 1_555 1_555
C37 C38 1_555 1_555
C38 C39 1_555 1_555
N12 C57 1_555 1_555
C63 C64 1_555 1_555
C69 C70 1_555 1_555
C71 C72 1_555 1_555
O1 C7 1_555 1_555
O2 C7 1_555 1_555
O5 H1 1_555 1_555
C1 C2 1_555 1_555
C2 O5 1_555 1_555
C3 C2 1_555 1_555
H4 C3 1_555 1_555
C4 C3 1_555 1_555
C6 C1 1_555 1_555
H5 C6 1_555 1_555
C7 C1 1_555 1_555
Zn5 O1 1_555 1_555
O2 Zn5 1_555 1_555
C4 C5 1_555 1_555
C5 C6 1_555 1_555
Zn3_2 O15_2 1_555 1_555
N14_2 Zn3_2 1_555 1_555
N15_2 N16_2 1_555 1_555
N16_2 C50_2 1_555 1_555
N17_2 C65_2 1_555 1_555
N19_2 C66_2 1_555 1_555
N20_2 C54 1_555 1_555
C49_2 N14_2 1_555 1_555
H31_2 C49_2 1_555 1_555
C50_2 N14_2 1_555 1_555
H32_2 C50_2 1_555 1_555
C51 N16_2 1_555 1_555
C52 C51 1_555 1_555
H33_2 C52 1_555 1_555
C53 C52 1_555 1_555
H34 C53 1_555 1_555
C54 C53 1_555 1_555
C55 C54 1_555 1_555
H35 C55 1_555 1_555
C56 C51 1_555 1_555
H36 C56 1_555 1_555
C60_2 C59_2 1_555 1_555
C61 C60_2 1_555 1_555
H40 C61 1_555 1_555
C62_2 N20_2 1_555 1_555
C63_2 C62_2 1_555 1_555
H41_2 C63_2 1_555 1_555
C64_2 C59_2 1_555 1_555
H42_2 C64_2 1_555 1_555
C66_2 N17_2 1_555 1_555
H44_2 C66_2 1_555 1_555
C67_2 N19_2 1_555 1_555
C68_2 C67_2 1_555 1_555
H45_2 C68_2 1_555 1_555
C69_2 C68_2 1_555 1_555
H46_2 C69_2 1_555 1_555
C70_2 N20_2 1_555 1_555
C71_2 C70_2 1_555 1_555
C72_2 C67_2 1_555 1_555
Zn6 N17_2 1_555 1_555
O23 Zn3_2 1_555 1_555
N22_2 Zn3_2 1_555 1_555
N15_2 C49_2 1_555 1_555
C55 C56 1_555 1_555
C61 C62_2 1_555 1_555
C63_2 C64_2 1_555 1_555
C69_2 C70_2 1_555 1_555
C71_2 C72_2 1_555 1_555
N17_3 C65_3 1_555 1_555
N19_3 C66_3 1_555 1_555
C60_3 C59_3 1_555 1_555
C62_3 N20_3 1_555 1_555
C63_3 C62_3 1_555 1_555
H41_3 C63_3 1_555 1_555
C64_3 C59_3 1_555 1_555
H42_3 C64_3 1_555 1_555
C66_3 N17_3 1_555 1_555
H44_3 C66_3 1_555 1_555
C67_3 N19_3 1_555 1_555
C68_3 C67_3 1_555 1_555
H45_3 C68_3 1_555 1_555
C69_3 C68_3 1_555 1_555
H46_3 C69_3 1_555 1_555
C70_3 N20_3 1_555 1_555
C71_3 C70_3 1_555 1_555
C72_3 C67_3 1_555 1_555
Zn8_2 N17_3 1_555 1_555
C63_3 C64_3 1_555 1_555
C69_3 C70_3 1_555 1_555
C71_3 C72_3 1_555 1_555
O20 C47_2 1_555 1_555
O22 C47_2 1_555 1_555
O17_2 H27_2 1_555 1_555
O18_2 H28_2 1_555 1_555
C41_2 C42_2 1_555 1_555
C42_2 O17_2 1_555 1_555
C43_2 C42_2 1_555 1_555
H29_2 C43_2 1_555 1_555
C44_2 C43_2 1_555 1_555
C45_2 O18_2 1_555 1_555
C46_2 C41_2 1_555 1_555
H30_2 C46_2 1_555 1_555
C47_2 C41_2 1_555 1_555
C48_2 O16_2 1_555 1_555
C44_2 C45_2 1_555 1_555
C44_2 C48_2 1_555 1_555
C45_2 C46_2 1_555 1_555
Zn5 N1_2 1_555 1_555
Zn2_2 O3_2 1_555 1_555
O3_2 C8_2 1_555 1_555
O4_2 Zn2_2 1_555 1_555
O6_2 H2_2 1_555 1_555
O7_2 Zn2_2 1_555 1_555
O8_2 C12_2 1_555 1_555
O9_2 H3_2 1_555 1_555
N1_2 C21_2 1_555 1_555
N2_2 N3_2 1_555 1_555
N3_2 C22_2 1_555 1_555
N4_2 Zn2_2 1_555 1_555
N5_2 N6_2 1_555 1_555
N6_2 C14_2 1_555 1_555
N7_2 C29_2 1_555 1_555
N8_2 N9_2 1_555 1_555
N9_2 C30_2 1_555 1_555
N10_2 C18_2 1_555 1_555
C8_2 O4_2 1_555 1_555
C9_2 C10_2 1_555 1_555
C10_2 O9_2 1_555 1_555
C11_2 C10_2 1_555 1_555
H6_2 C11_2 1_555 1_555
C12_2 O7_2 1_555 1_555
C13_2 N4_2 1_555 1_555
H7_2 C13_2 1_555 1_555
C14_2 N4_2 1_555 1_555
H8_2 C14_2 1_555 1_555
C15_2 N6_2 1_555 1_555
C16_2 C15_2 1_555 1_555
H9_2 C16_2 1_555 1_555
C17_2 C16_2 1_555 1_555
H10_2 C17_2 1_555 1_555
C18_2 C17_2 1_555 1_555
C19_2 C18_2 1_555 1_555
H11_2 C19_2 1_555 1_555
C20_2 C15_2 1_555 1_555
H12_2 C20_2 1_555 1_555
C21_2 N2_2 1_555 1_555
H13_2 C21_2 1_555 1_555
C22_2 N1_2 1_555 1_555
H14_2 C22_2 1_555 1_555
C23_2 N3_2 1_555 1_555
C24_2 C23_2 1_555 1_555
H15_2 C24_2 1_555 1_555
C25_2 C24_2 1_555 1_555
H16_2 C25_2 1_555 1_555
C26_2 N10_2 1_555 1_555
C27_2 C26_2 1_555 1_555
H17_2 C27_2 1_555 1_555
C28_2 C23_2 1_555 1_555
H18_2 C28_2 1_555 1_555
C29_2 N8_2 1_555 1_555
H19_2 C29_2 1_555 1_555
C30_2 N7_2 1_555 1_555
H20_2 C30_2 1_555 1_555
C31_2 N9_2 1_555 1_555
C32_2 C31_2 1_555 1_555
H21_2 C32_2 1_555 1_555
C33_2 C32_2 1_555 1_555
H22_2 C33_2 1_555 1_555
C34_2 N10_2 1_555 1_555
C35_2 C34_2 1_555 1_555
H23_2 C35_2 1_555 1_555
C36_2 C31_2 1_555 1_555
H24_2 C36_2 1_555 1_555
O10_2 C40_2 1_555 1_555
O11_2 C40_2 1_555 1_555
O12_2 H25_2 1_555 1_555
C37_2 C11_2 1_555 1_555
C38_2 O12_2 1_555 1_555
C39_2 C9_2 1_555 1_555
H26_2 C39_2 1_555 1_555
C40_2 C37_2 1_555 1_555
N11_2 Zn5 1_555 1_555
N12_2 N13_2 1_555 1_555
N13_2 C58_2 1_555 1_555
N17_4 C65_4 1_555 1_555
N18_2 N19_4 1_555 1_555
N19_4 C66_4 1_555 1_555
N20_4 C54_2 1_555 1_555
C52_2 C51_2 1_555 1_555
C53_2 C52_2 1_555 1_555
H34_2 C53_2 1_555 1_555
C54_2 C53_2 1_555 1_555
C55_2 C54_2 1_555 1_555
H35_2 C55_2 1_555 1_555
C56_2 C51_2 1_555 1_555
H36_2 C56_2 1_555 1_555
C57_2 N11_2 1_555 1_555
H37_2 C57_2 1_555 1_555
C58_2 N11_2 1_555 1_555
H38_2 C58_2 1_555 1_555
C59_4 N13_2 1_555 1_555
C60_4 C59_4 1_555 1_555
H39_2 C60_4 1_555 1_555
C61_2 C60_4 1_555 1_555
H40_2 C61_2 1_555 1_555
C62_4 N20_4 1_555 1_555
C63_4 C62_4 1_555 1_555
H41_4 C63_4 1_555 1_555
C64_4 C59_4 1_555 1_555
H42_4 C64_4 1_555 1_555
C65_4 N18_2 1_555 1_555
H43_2 C65_4 1_555 1_555
C66_4 N17_4 1_555 1_555
H44_4 C66_4 1_555 1_555
C67_4 N19_4 1_555 1_555
C68_4 C67_4 1_555 1_555
H45_4 C68_4 1_555 1_555
C69_4 C68_4 1_555 1_555
C70_4 N20_4 1_555 1_555
C71_4 C70_4 1_555 1_555
H47_2 C71_4 1_555 1_555
C72_4 C67_4 1_555 1_555
H48_2 C72_4 1_555 1_555
Zn8_2 O10_2 1_555 1_555
Zn7_2 N7_2 1_555 1_555
Zn6_2 N17_4 1_555 1_555
N21_2 Zn2_2 1_555 1_555
N5_2 C13_2 1_555 1_555
C9_2 C12_2 1_555 1_555
C19_2 C20_2 1_555 1_555
C25_2 C26_2 1_555 1_555
C27_2 C28_2 1_555 1_555
C33_2 C34_2 1_555 1_555
C35_2 C36_2 1_555 1_555
C37_2 C38_2 1_555 1_555
C38_2 C39_2 1_555 1_555
N12_2 C57_2 1_555 1_555
C55_2 C56_2 1_555 1_555
C61_2 C62_4 1_555 1_555
C63_4 C64_4 1_555 1_555
C69_4 C70_4 1_555 1_555
C71_4 C72_4 1_555 1_555
O19 C7_2 1_555 1_555
O21 C7_2 1_555 1_555
O5_2 H1_2 1_555 1_555
C1_2 C2_2 1_555 1_555
C2_2 O5_2 1_555 1_555
C3_2 C2_2 1_555 1_555
H4_2 C3_2 1_555 1_555
C4_2 C3_2 1_555 1_555
C6_2 C1_2 1_555 1_555
H5_2 C6_2 1_555 1_555
C7_2 C1_2 1_555 1_555
C4_2 C5_2 1_555 1_555
C5_2 C6_2 1_555 1_555
O10_3 C40_3 1_555 1_555
O11_3 C40_3 1_555 1_555
O12_3 H25_3 1_555 1_555
C38_3 O12_3 1_555 1_555
C40_3 C37_3 1_555 1_555
Zn6_3 O10_3 1_555 1_555
C37_3 C38_3 1_555 1_555
Zn1_2 N1_3 1_555 1_555
Zn2_3 O3_3 1_555 1_555
O7_3 Zn2_3 1_555 1_555
O8_3 C12_3 1_555 1_555
O9_3 H3_3 1_555 1_555
N1_3 C21_3 1_555 1_555
N2_3 N3_3 1_555 1_555
N3_3 C22_3 1_555 1_555
N4_3 Zn2_3 1_555 1_555
N5_3 N6_3 1_555 1_555
N6_3 C14_3 1_555 1_555
N7_3 C29_3 1_555 1_555
N8_3 N9_3 1_555 1_555
N9_3 C30_3 1_555 1_555
N10_3 C18_3 1_555 1_555
C9_3 C10_3 1_555 1_555
C10_3 O9_3 1_555 1_555
C12_3 O7_3 1_555 1_555
C13_3 N4_3 1_555 1_555
H7_3 C13_3 1_555 1_555
C14_3 N4_3 1_555 1_555
H8_3 C14_3 1_555 1_555
C15_3 N6_3 1_555 1_555
C16_3 C15_3 1_555 1_555
H9_3 C16_3 1_555 1_555
C17_3 C16_3 1_555 1_555
H10_3 C17_3 1_555 1_555
C18_3 C17_3 1_555 1_555
C19_3 C18_3 1_555 1_555
H11_3 C19_3 1_555 1_555
C20_3 C15_3 1_555 1_555
H12_3 C20_3 1_555 1_555
C21_3 N2_3 1_555 1_555
H13_3 C21_3 1_555 1_555
C22_3 N1_3 1_555 1_555
H14_3 C22_3 1_555 1_555
C23_3 N3_3 1_555 1_555
C24_3 C23_3 1_555 1_555
H15_3 C24_3 1_555 1_555
C25_3 C24_3 1_555 1_555
H16_3 C25_3 1_555 1_555
C26_3 N10_3 1_555 1_555
C27_3 C26_3 1_555 1_555
H17_3 C27_3 1_555 1_555
C28_3 C23_3 1_555 1_555
H18_3 C28_3 1_555 1_555
C29_3 N8_3 1_555 1_555
C30_3 N7_3 1_555 1_555
H20_3 C30_3 1_555 1_555
C31_3 N9_3 1_555 1_555
C32_3 C31_3 1_555 1_555
H21_3 C32_3 1_555 1_555
C33_3 C32_3 1_555 1_555
H22_3 C33_3 1_555 1_555
C34_3 N10_3 1_555 1_555
C35_3 C34_3 1_555 1_555
H23_3 C35_3 1_555 1_555
C36_3 C31_3 1_555 1_555
H24_3 C36_3 1_555 1_555
N11_3 Zn1_2 1_555 1_555
N12_3 N13_3 1_555 1_555
N13_3 C58_3 1_555 1_555
N17_5 C65_5 1_555 1_555
N18_3 N19_5 1_555 1_555
N19_5 C66_5 1_555 1_555
N20_5 C54_3 1_555 1_555
C52_3 C51_3 1_555 1_555
C53_3 C52_3 1_555 1_555
H34_3 C53_3 1_555 1_555
C54_3 C53_3 1_555 1_555
C55_3 C54_3 1_555 1_555
H35_3 C55_3 1_555 1_555
C56_3 C51_3 1_555 1_555
H36_3 C56_3 1_555 1_555
C57_3 N11_3 1_555 1_555
H37_3 C57_3 1_555 1_555
C58_3 N11_3 1_555 1_555
H38_3 C58_3 1_555 1_555
C59_5 N13_3 1_555 1_555
C60_5 C59_5 1_555 1_555
H39_3 C60_5 1_555 1_555
C61_3 C60_5 1_555 1_555
H40_3 C61_3 1_555 1_555
C62_5 N20_5 1_555 1_555
C63_5 C62_5 1_555 1_555
H41_5 C63_5 1_555 1_555
C64_5 C59_5 1_555 1_555
H42_5 C64_5 1_555 1_555
C65_5 N18_3 1_555 1_555
C66_5 N17_5 1_555 1_555
H44_5 C66_5 1_555 1_555
C67_5 N19_5 1_555 1_555
C68_5 C67_5 1_555 1_555
H45_5 C68_5 1_555 1_555
C69_5 C68_5 1_555 1_555
C70_5 N20_5 1_555 1_555
C71_5 C70_5 1_555 1_555
H47_3 C71_5 1_555 1_555
C72_5 C67_5 1_555 1_555
H48_3 C72_5 1_555 1_555
O19_2 Zn1_2 1_555 1_555
O20_2 Zn1_2 1_555 1_555
O21_2 Zn1_2 1_555 1_555
O22_2 Zn1_2 1_555 1_555
N5_3 C13_3 1_555 1_555
C9_3 C12_3 1_555 1_555
C19_3 C20_3 1_555 1_555
C25_3 C26_3 1_555 1_555
C27_3 C28_3 1_555 1_555
C33_3 C34_3 1_555 1_555
C35_3 C36_3 1_555 1_555
N12_3 C57_3 1_555 1_555
C55_3 C56_3 1_555 1_555
C61_3 C62_5 1_555 1_555
C63_5 C64_5 1_555 1_555
C69_5 C70_5 1_555 1_555
C71_5 C72_5 1_555 1_555
Zn1_3 N1_4 1_555 1_555
N1_4 C21_4 1_555 1_555
N2_4 N3_4 1_555 1_555
N3_4 C22_4 1_555 1_555
N7_4 C29_4 1_555 1_555
N8_4 N9_4 1_555 1_555
N9_4 C30_4 1_555 1_555
C21_4 N2_4 1_555 1_555
H13_4 C21_4 1_555 1_555
C22_4 N1_4 1_555 1_555
H14_4 C22_4 1_555 1_555
C23_4 N3_4 1_555 1_555
C24_4 C23_4 1_555 1_555
C26_4 N10_4 1_555 1_555
C27_4 C26_4 1_555 1_555
H17_4 C27_4 1_555 1_555
C28_4 C23_4 1_555 1_555
H18_4 C28_4 1_555 1_555
C29_4 N8_4 1_555 1_555
C30_4 N7_4 1_555 1_555
H20_4 C30_4 1_555 1_555
C31_4 N9_4 1_555 1_555
C32_4 C31_4 1_555 1_555
H21_4 C32_4 1_555 1_555
C33_4 C32_4 1_555 1_555
H22_4 C33_4 1_555 1_555
C34_4 N10_4 1_555 1_555
C35_4 C34_4 1_555 1_555
H23_4 C35_4 1_555 1_555
C36_4 C31_4 1_555 1_555
H24_4 C36_4 1_555 1_555
N11_4 Zn1_3 1_555 1_555
N12_4 N13_4 1_555 1_555
N13_4 C58_4 1_555 1_555
C57_4 N11_4 1_555 1_555
H37_4 C57_4 1_555 1_555
C58_4 N11_4 1_555 1_555
H38_4 C58_4 1_555 1_555
O19_3 Zn1_3 1_555 1_555
O20_3 Zn1_3 1_555 1_555
O21_3 Zn1_3 1_555 1_555
O22_3 Zn1_3 1_555 1_555
C27_4 C28_4 1_555 1_555
C33_4 C34_4 1_555 1_555
C35_4 C36_4 1_555 1_555
N12_4 C57_4 1_555 1_555
H6_3 C11_3 1_555 1_555
O10_4 C40_4 1_555 1_555
O11_4 C40_4 1_555 1_555
O12_4 H25_4 1_555 1_555
C37_4 C11_3 1_555 1_555
C38_4 O12_4 1_555 1_555
C40_4 C37_4 1_555 1_555
C37_4 C38_4 1_555 1_555
O19_3 C7_3 1_555 1_555
O21_3 C7_3 1_555 1_555
O5_3 H1_3 1_555 1_555
O6_3 H2_3 1_555 1_555
C1_3 C2_3 1_555 1_555
C3_3 C2_3 1_555 1_555
H4_3 C3_3 1_555 1_555
C4_3 C3_3 1_555 1_555
C5_3 O6_3 1_555 1_555
C6_3 C1_3 1_555 1_555
H5_3 C6_3 1_555 1_555
C8_3 O4_3 1_555 1_555
O10_5 C40_5 1_555 1_555
O11_5 C40_5 1_555 1_555
O12_5 H25_5 1_555 1_555
C38_5 O12_5 1_555 1_555
H26_3 C39_3 1_555 1_555
C40_5 C37_5 1_555 1_555
C4_3 C5_3 1_555 1_555
C4_3 C8_3 1_555 1_555
C5_3 C6_3 1_555 1_555
C37_5 C38_5 1_555 1_555
C38_5 C39_3 1_555 1_555
Zn3_3 O15_3 1_555 1_555
O20_3 C47_3 1_555 1_555
O22_3 C47_3 1_555 1_555
O15_3 C48_3 1_555 1_555
O16_3 Zn3_3 1_555 1_555
O17_3 H27_3 1_555 1_555
O18_3 H28_3 1_555 1_555
N14_3 Zn3_3 1_555 1_555
N15_3 N16_3 1_555 1_555
N16_3 C50_3 1_555 1_555
N17_6 C65_6 1_555 1_555
N19_6 C66_6 1_555 1_555
N20_6 C54_4 1_555 1_555
C41_3 C42_3 1_555 1_555
C42_3 O17_3 1_555 1_555
C43_3 C42_3 1_555 1_555
H29_3 C43_3 1_555 1_555
C44_3 C43_3 1_555 1_555
C45_3 O18_3 1_555 1_555
C46_3 C41_3 1_555 1_555
H30_3 C46_3 1_555 1_555
C47_3 C41_3 1_555 1_555
C48_3 O16_3 1_555 1_555
C49_3 N14_3 1_555 1_555
H31_3 C49_3 1_555 1_555
C50_3 N14_3 1_555 1_555
H32_3 C50_3 1_555 1_555
C51_4 N16_3 1_555 1_555
C52_4 C51_4 1_555 1_555
H33_3 C52_4 1_555 1_555
C53_4 C52_4 1_555 1_555
H34_4 C53_4 1_555 1_555
C54_4 C53_4 1_555 1_555
C55_4 C54_4 1_555 1_555
H35_4 C55_4 1_555 1_555
C56_4 C51_4 1_555 1_555
H36_4 C56_4 1_555 1_555
C60_6 C59_6 1_555 1_555
C61_4 C60_6 1_555 1_555
H40_4 C61_4 1_555 1_555
C62_6 N20_6 1_555 1_555
C63_6 C62_6 1_555 1_555
H41_6 C63_6 1_555 1_555
C64_6 C59_6 1_555 1_555
H42_6 C64_6 1_555 1_555
C66_6 N17_6 1_555 1_555
H44_6 C66_6 1_555 1_555
C67_6 N19_6 1_555 1_555
C68_6 C67_6 1_555 1_555
H45_6 C68_6 1_555 1_555
C69_6 C68_6 1_555 1_555
H46_4 C69_6 1_555 1_555
C70_6 N20_6 1_555 1_555
C71_6 C70_6 1_555 1_555
C72_6 C67_6 1_555 1_555
Zn8_3 N17_6 1_555 1_555
O23_4 Zn3_3 1_555 1_555
N22_5 Zn3_3 1_555 1_555
N15_3 C49_3 1_555 1_555
C44_3 C45_3 1_555 1_555
C44_3 C48_3 1_555 1_555
C45_3 C46_3 1_555 1_555
C55_4 C56_4 1_555 1_555
C61_4 C62_6 1_555 1_555
C63_6 C64_6 1_555 1_555
C69_6 C70_6 1_555 1_555
C71_6 C72_6 1_555 1_555
Zn3_4 O15_4 1_555 1_555
O20_2 C47_4 1_555 1_555
O22_2 C47_4 1_555 1_555
O15_4 C48_4 1_555 1_555
O16_4 Zn3_4 1_555 1_555
O17_4 H27_4 1_555 1_555
O18_4 H28_4 1_555 1_555
N14_4 Zn3_4 1_555 1_555
N15_4 N16_4 1_555 1_555
N16_4 C50_4 1_555 1_555
C41_4 C42_4 1_555 1_555
C42_4 O17_4 1_555 1_555
C43_4 C42_4 1_555 1_555
H29_4 C43_4 1_555 1_555
C44_4 C43_4 1_555 1_555
C45_4 O18_4 1_555 1_555
C46_4 C41_4 1_555 1_555
H30_4 C46_4 1_555 1_555
C47_4 C41_4 1_555 1_555
C48_4 O16_4 1_555 1_555
C49_4 N14_4 1_555 1_555
H31_4 C49_4 1_555 1_555
C50_4 N14_4 1_555 1_555
H32_4 C50_4 1_555 1_555
N22_6 Zn3_4 1_555 1_555
N15_4 C49_4 1_555 1_555
C44_4 C45_4 1_555 1_555
C44_4 C48_4 1_555 1_555
C45_4 C46_4 1_555 1_555
Zn2_4 O3_4 1_555 1_555
O3_4 C8_4 1_555 1_555
O4_4 Zn2_4 1_555 1_555
O6_4 H2_4 1_555 1_555
O7_4 Zn2_4 1_555 1_555
O8_4 C12_4 1_555 1_555
O9_4 H3_4 1_555 1_555
N4_4 Zn2_4 1_555 1_555
N5_4 N6_4 1_555 1_555
N6_4 C14_4 1_555 1_555
C8_4 O4_4 1_555 1_555
C9_4 C10_4 1_555 1_555
C10_4 O9_4 1_555 1_555
C11_4 C10_4 1_555 1_555
H6_4 C11_4 1_555 1_555
C12_4 O7_4 1_555 1_555
C13_4 N4_4 1_555 1_555
H7_4 C13_4 1_555 1_555
C14_4 N4_4 1_555 1_555
H8_4 C14_4 1_555 1_555
C15_4 N6_4 1_555 1_555
C16_4 C15_4 1_555 1_555
H9_4 C16_4 1_555 1_555
C17_4 C16_4 1_555 1_555
H10_4 C17_4 1_555 1_555
C18_4 C17_4 1_555 1_555
C19_4 C18_4 1_555 1_555
H11_4 C19_4 1_555 1_555
C20_4 C15_4 1_555 1_555
H12_4 C20_4 1_555 1_555
H16_4 C25_4 1_555 1_555
O10_6 C40_6 1_555 1_555
O11_6 C40_6 1_555 1_555
O12_6 H25_6 1_555 1_555
C37_6 C11_4 1_555 1_555
C38_6 O12_6 1_555 1_555
C39_4 C9_4 1_555 1_555
H26_4 C39_4 1_555 1_555
C40_6 C37_6 1_555 1_555
Zn8_3 O10_6 1_555 1_555
N21_4 Zn2_4 1_555 1_555
N5_4 C13_4 1_555 1_555
C9_4 C12_4 1_555 1_555
C19_4 C20_4 1_555 1_555
C37_6 C38_6 1_555 1_555
C38_6 C39_4 1_555 1_555
O19_2 C7_4 1_555 1_555
O21_2 C7_4 1_555 1_555
O5_4 H1_4 1_555 1_555
C1_4 C2_4 1_555 1_555
C2_4 O5_4 1_555 1_555
C3_4 C2_4 1_555 1_555
H4_4 C3_4 1_555 1_555
C4_4 C3_4 1_555 1_555
C6_4 C1_4 1_555 1_555
H5_4 C6_4 1_555 1_555
C7_4 C1_4 1_555 1_555
C4_4 C5_4 1_555 1_555
C5_4 C6_4 1_555 1_555
O8_5 C12_5 1_555 1_555
O9_5 H3_5 1_555 1_555
C9_5 C10_5 1_555 1_555
C10_5 O9_5 1_555 1_555
C12_5 O23_3 1_555 1_555
C39_5 C9_5 1_555 1_555
H26_5 C39_5 1_555 1_555
C9_5 C12_5 1_555 1_555
O8_6 C12_6 1_555 1_555
O9_6 H3_6 1_555 1_555
C9_6 C10_6 1_555 1_555
C10_6 O9_6 1_555 1_555
C12_6 O23_4 1_555 1_555
C39_6 C9_6 1_555 1_555
H26_6 C39_6 1_555 1_555
C9_6 C12_6 1_555 1_555
O10_7 C40_7 1_555 1_555
O11_7 C40_7 1_555 1_555
O12_7 H25_7 1_555 1_555
C38_7 O12_7 1_555 1_555
C40_7 C37_7 1_555 1_555
Zn7 O10_7 1_555 1_555
C37_7 C38_7 1_555 1_555
O8_7 C12_7 1_555 1_555
O9_7 H3_7 1_555 1_555
C9_7 C10_7 1_555 1_555
C10_7 O9_7 1_555 1_555
C12_7 O23 1_555 1_555
C9_7 C12_7 1_555 1_555
O8_8 C12_8 1_555 1_555
O9_8 H3_8 1_555 1_555
C9_8 C10_8 1_555 1_555
C10_8 O9_8 1_555 1_555
C11_5 C10_8 1_555 1_555
H6_5 C11_5 1_555 1_555
C12_8 O23_2 1_555 1_555
C9_8 C12_8 1_555 1_555
H6_6 C11_6 1_555 1_555
O10_8 C40_8 1_555 1_555
O11_8 C40_8 1_555 1_555
O12_8 H25_8 1_555 1_555
C37_8 C11_6 1_555 1_555
C38_8 O12_8 1_555 1_555
C40_8 C37_8 1_555 1_555
Zn7_2 O10_8 1_555 1_555
C37_8 C38_8 1_555 1_555
O1_2 C7_5 1_555 1_555
O2_2 C7_5 1_555 1_555
O5_5 H1_5 1_555 1_555
C1_5 C2_5 1_555 1_555
C2_5 O5_5 1_555 1_555
C3_5 C2_5 1_555 1_555
H4_5 C3_5 1_555 1_555
C4_5 C3_5 1_555 1_555
C6_5 C1_5 1_555 1_555
H5_5 C6_5 1_555 1_555
C7_5 C1_5 1_555 1_555
Zn4 O1_2 1_555 1_555
O2_2 Zn4 1_555 1_555
C4_5 C5_5 1_555 1_555
C5_5 C6_5 1_555 1_555
Zn1_4 N1_5 1_555 1_555
Zn6 O3_5 1_555 1_555
O3_5 C8_5 1_555 1_555
O4_5 Zn6 1_555 1_555
O6_5 H2_5 1_555 1_555
N1_5 C21_5 1_555 1_555
N2_5 N3_5 1_555 1_555
N3_5 C22_5 1_555 1_555
N4_5 Zn6 1_555 1_555
N5_5 N6_5 1_555 1_555
N6_5 C14_5 1_555 1_555
N22_2 C29_5 1_555 1_555
N8_5 N9_5 1_555 1_555
N9_5 C30_5 1_555 1_555
N10_5 C18_5 1_555 1_555
C8_5 O4_5 1_555 1_555
C13_5 N4_5 1_555 1_555
H7_5 C13_5 1_555 1_555
C14_5 N4_5 1_555 1_555
H8_5 C14_5 1_555 1_555
C15_5 N6_5 1_555 1_555
C16_5 C15_5 1_555 1_555
H9_5 C16_5 1_555 1_555
C17_5 C16_5 1_555 1_555
H10_5 C17_5 1_555 1_555
C18_5 C17_5 1_555 1_555
C19_5 C18_5 1_555 1_555
H11_5 C19_5 1_555 1_555
C20_5 C15_5 1_555 1_555
H12_5 C20_5 1_555 1_555
C21_5 N2_5 1_555 1_555
H13_5 C21_5 1_555 1_555
C22_5 N1_5 1_555 1_555
H14_5 C22_5 1_555 1_555
C23_5 N3_5 1_555 1_555
C24_5 C23_5 1_555 1_555
H15_5 C24_5 1_555 1_555
C25_5 C24_5 1_555 1_555
H16_5 C25_5 1_555 1_555
C26_5 N10_5 1_555 1_555
C27_5 C26_5 1_555 1_555
H17_5 C27_5 1_555 1_555
C28_5 C23_5 1_555 1_555
H18_5 C28_5 1_555 1_555
C29_5 N8_5 1_555 1_555
H19_3 C29_5 1_555 1_555
C30_5 N22_2 1_555 1_555
H20_5 C30_5 1_555 1_555
C31_5 N9_5 1_555 1_555
C32_5 C31_5 1_555 1_555
H21_5 C32_5 1_555 1_555
C33_5 C32_5 1_555 1_555
H22_5 C33_5 1_555 1_555
C34_5 N10_5 1_555 1_555
C35_5 C34_5 1_555 1_555
H23_5 C35_5 1_555 1_555
C36_5 C31_5 1_555 1_555
H24_5 C36_5 1_555 1_555
N11_5 Zn1_4 1_555 1_555
N12_5 N13_5 1_555 1_555
N13_5 C58_5 1_555 1_555
N22 C65_7 1_555 1_555
N18_5 N19_7 1_555 1_555
N19_7 C66_7 1_555 1_555
C57_5 N11_5 1_555 1_555
H37_5 C57_5 1_555 1_555
C58_5 N11_5 1_555 1_555
H38_5 C58_5 1_555 1_555
C59_7 N13_5 1_555 1_555
C60_7 C59_7 1_555 1_555
C62_7 N20_7 1_555 1_555
C63_7 C62_7 1_555 1_555
H41_7 C63_7 1_555 1_555
C64_7 C59_7 1_555 1_555
H42_7 C64_7 1_555 1_555
C65_7 N18_5 1_555 1_555
H43_3 C65_7 1_555 1_555
C66_7 N22 1_555 1_555
H44_7 C66_7 1_555 1_555
C67_7 N19_7 1_555 1_555
C68_7 C67_7 1_555 1_555
H45_7 C68_7 1_555 1_555
C69_7 C68_7 1_555 1_555
C70_7 N20_7 1_555 1_555
C71_7 C70_7 1_555 1_555
H47_5 C71_7 1_555 1_555
C72_7 C67_7 1_555 1_555
H48_5 C72_7 1_555 1_555
O19_4 Zn1_4 1_555 1_555
O20_4 Zn1_4 1_555 1_555
O21_4 Zn1_4 1_555 1_555
O22_4 Zn1_4 1_555 1_555
N5_5 C13_5 1_555 1_555
C19_5 C20_5 1_555 1_555
C25_5 C26_5 1_555 1_555
C27_5 C28_5 1_555 1_555
C33_5 C34_5 1_555 1_555
C35_5 C36_5 1_555 1_555
N12_5 C57_5 1_555 1_555
C63_7 C64_7 1_555 1_555
C69_7 C70_7 1_555 1_555
C71_7 C72_7 1_555 1_555
Zn8 O15_5 1_555 1_555
O13_2 C47_5 1_555 1_555
O14_2 C47_5 1_555 1_555
O15_5 C48_5 1_555 1_555
O16_5 Zn8 1_555 1_555
O17_5 H27_5 1_555 1_555
O18_5 H28_5 1_555 1_555
N14_5 Zn8 1_555 1_555
N15_5 N16_5 1_555 1_555
N16_5 C50_5 1_555 1_555
C41_5 C42_5 1_555 1_555
C42_5 O17_5 1_555 1_555
C43_5 C42_5 1_555 1_555
H29_5 C43_5 1_555 1_555
C44_5 C43_5 1_555 1_555
C45_5 O18_5 1_555 1_555
C46_5 C41_5 1_555 1_555
H30_5 C46_5 1_555 1_555
C47_5 C41_5 1_555 1_555
C48_5 O16_5 1_555 1_555
C49_5 N14_5 1_555 1_555
H31_5 C49_5 1_555 1_555
C50_5 N14_5 1_555 1_555
H32_5 C50_5 1_555 1_555
Zn4 O13_2 1_555 1_555
O14_2 Zn4 1_555 1_555
N15_5 C49_5 1_555 1_555
C44_5 C45_5 1_555 1_555
C44_5 C48_5 1_555 1_555
C45_5 C46_5 1_555 1_555
Zn7 O15_6 1_555 1_555
N14_6 Zn7 1_555 1_555
N15_6 N16_6 1_555 1_555
N16_6 C50_6 1_555 1_555
N21 C65_8 1_555 1_555
N19_8 C66_8 1_555 1_555
N20_8 C54_5 1_555 1_555
C49_6 N14_6 1_555 1_555
H31_6 C49_6 1_555 1_555
C50_6 N14_6 1_555 1_555
H32_6 C50_6 1_555 1_555
C51_5 N16_6 1_555 1_555
C52_5 C51_5 1_555 1_555
H33_6 C52_5 1_555 1_555
C53_5 C52_5 1_555 1_555
H34_5 C53_5 1_555 1_555
C54_5 C53_5 1_555 1_555
C55_5 C54_5 1_555 1_555
H35_5 C55_5 1_555 1_555
C56_5 C51_5 1_555 1_555
H36_5 C56_5 1_555 1_555
C60_8 C59_8 1_555 1_555
C61_5 C60_8 1_555 1_555
H40_5 C61_5 1_555 1_555
C62_8 N20_8 1_555 1_555
C63_8 C62_8 1_555 1_555
H41_8 C63_8 1_555 1_555
C64_8 C59_8 1_555 1_555
H42_8 C64_8 1_555 1_555
C66_8 N21 1_555 1_555
H44_8 C66_8 1_555 1_555
C67_8 N19_8 1_555 1_555
C68_8 C67_8 1_555 1_555
H45_8 C68_8 1_555 1_555
C69_8 C68_8 1_555 1_555
H46_6 C69_8 1_555 1_555
C70_8 N20_8 1_555 1_555
C71_8 C70_8 1_555 1_555
C72_8 C67_8 1_555 1_555
N15_6 C49_6 1_555 1_555
C55_5 C56_5 1_555 1_555
C61_5 C62_8 1_555 1_555
C63_8 C64_8 1_555 1_555
C69_8 C70_8 1_555 1_555
C71_8 C72_8 1_555 1_555
N21_4 C65_9 1_555 1_555
N19_9 C66_9 1_555 1_555
C60_9 C59_9 1_555 1_555
C62_9 N20_9 1_555 1_555
C63_9 C62_9 1_555 1_555
H41_9 C63_9 1_555 1_555
C64_9 C59_9 1_555 1_555
H42_9 C64_9 1_555 1_555
C66_9 N21_4 1_555 1_555
H44_9 C66_9 1_555 1_555
C67_9 N19_9 1_555 1_555
C68_9 C67_9 1_555 1_555
H45_9 C68_9 1_555 1_555
C69_9 C68_9 1_555 1_555
H46_7 C69_9 1_555 1_555
C70_9 N20_9 1_555 1_555
C71_9 C70_9 1_555 1_555
C72_9 C67_9 1_555 1_555
C63_9 C64_9 1_555 1_555
C69_9 C70_9 1_555 1_555
C71_9 C72_9 1_555 1_555
O19_4 C7_6 1_555 1_555
O21_4 C7_6 1_555 1_555
O5_6 H1_6 1_555 1_555
C1_6 C2_6 1_555 1_555
C2_6 O5_6 1_555 1_555
C3_6 C2_6 1_555 1_555
H4_6 C3_6 1_555 1_555
C4_6 C3_6 1_555 1_555
C6_6 C1_6 1_555 1_555
H5_6 C6_6 1_555 1_555
C7_6 C1_6 1_555 1_555
C4_6 C5_6 1_555 1_555
C5_6 C6_6 1_555 1_555
Zn4 N1_6 1_555 1_555
Zn8_3 O3_6 1_555 1_555
O3_6 C8_6 1_555 1_555
O4_6 Zn8_3 1_555 1_555
O6_6 H2_6 1_555 1_555
N1_6 C21_6 1_555 1_555
N2_6 N3_6 1_555 1_555
N3_6 C22_6 1_555 1_555
N4_6 Zn8_3 1_555 1_555
N5_6 N6_6 1_555 1_555
N6_6 C14_6 1_555 1_555
N22_5 C29_6 1_555 1_555
N8_6 N9_6 1_555 1_555
N9_6 C30_6 1_555 1_555
N10_6 C18_6 1_555 1_555
C8_6 O4_6 1_555 1_555
C13_6 N4_6 1_555 1_555
H7_6 C13_6 1_555 1_555
C14_6 N4_6 1_555 1_555
H8_6 C14_6 1_555 1_555
C15_6 N6_6 1_555 1_555
C16_6 C15_6 1_555 1_555
H9_6 C16_6 1_555 1_555
C17_6 C16_6 1_555 1_555
H10_6 C17_6 1_555 1_555
C18_6 C17_6 1_555 1_555
C19_6 C18_6 1_555 1_555
H11_6 C19_6 1_555 1_555
C20_6 C15_6 1_555 1_555
H12_6 C20_6 1_555 1_555
C21_6 N2_6 1_555 1_555
H13_6 C21_6 1_555 1_555
C22_6 N1_6 1_555 1_555
H14_6 C22_6 1_555 1_555
C23_6 N3_6 1_555 1_555
C24_6 C23_6 1_555 1_555
H15_6 C24_6 1_555 1_555
C25_6 C24_6 1_555 1_555
H16_6 C25_6 1_555 1_555
C26_6 N10_6 1_555 1_555
C27_6 C26_6 1_555 1_555
H17_6 C27_6 1_555 1_555
C28_6 C23_6 1_555 1_555
H18_6 C28_6 1_555 1_555
C29_6 N8_6 1_555 1_555
H19_4 C29_6 1_555 1_555
C30_6 N22_5 1_555 1_555
H20_6 C30_6 1_555 1_555
C31_6 N9_6 1_555 1_555
C32_6 C31_6 1_555 1_555
H21_6 C32_6 1_555 1_555
C33_6 C32_6 1_555 1_555
H22_6 C33_6 1_555 1_555
C34_6 N10_6 1_555 1_555
C35_6 C34_6 1_555 1_555
H23_6 C35_6 1_555 1_555
C36_6 C31_6 1_555 1_555
H24_6 C36_6 1_555 1_555
N11_6 Zn4 1_555 1_555
N12_6 N13_6 1_555 1_555
N13_6 C58_6 1_555 1_555
N22_6 C65_10 1_555 1_555
N18_6 N19_10 1_555 1_555
N19_10 C66_10 1_555 1_555
N20_10 C54_6 1_555 1_555
C52_6 C51_6 1_555 1_555
C53_6 C52_6 1_555 1_555
H34_6 C53_6 1_555 1_555
C54_6 C53_6 1_555 1_555
C55_6 C54_6 1_555 1_555
H35_6 C55_6 1_555 1_555
C56_6 C51_6 1_555 1_555
H36_6 C56_6 1_555 1_555
C57_6 N11_6 1_555 1_555
H37_6 C57_6 1_555 1_555
C58_6 N11_6 1_555 1_555
H38_6 C58_6 1_555 1_555
C59_10 N13_6 1_555 1_555
C60_10 C59_10 1_555 1_555
H39_6 C60_10 1_555 1_555
C61_6 C60_10 1_555 1_555
H40_6 C61_6 1_555 1_555
C62_10 N20_10 1_555 1_555
C63_10 C62_10 1_555 1_555
H41_10 C63_10 1_555 1_555
C64_10 C59_10 1_555 1_555
H42_10 C64_10 1_555 1_555
C65_10 N18_6 1_555 1_555
H43_4 C65_10 1_555 1_555
C66_10 N22_6 1_555 1_555
H44_10 C66_10 1_555 1_555
C67_10 N19_10 1_555 1_555
C68_10 C67_10 1_555 1_555
H45_10 C68_10 1_555 1_555
C69_10 C68_10 1_555 1_555
C70_10 N20_10 1_555 1_555
C71_10 C70_10 1_555 1_555
H47_6 C71_10 1_555 1_555
C72_10 C67_10 1_555 1_555
H48_6 C72_10 1_555 1_555
N5_6 C13_6 1_555 1_555
C19_6 C20_6 1_555 1_555
C25_6 C26_6 1_555 1_555
C27_6 C28_6 1_555 1_555
C33_6 C34_6 1_555 1_555
C35_6 C36_6 1_555 1_555
N12_6 C57_6 1_555 1_555
C55_6 C56_6 1_555 1_555
C61_6 C62_10 1_555 1_555
C63_10 C64_10 1_555 1_555
C69_10 C70_10 1_555 1_555
C71_10 C72_10 1_555 1_555
O20_4 C47_6 1_555 1_555
O22_4 C47_6 1_555 1_555
O17_6 H27_6 1_555 1_555
O18_6 H28_6 1_555 1_555
C41_6 C42_6 1_555 1_555
C42_6 O17_6 1_555 1_555
C43_6 C42_6 1_555 1_555
H29_6 C43_6 1_555 1_555
C44_6 C43_6 1_555 1_555
C45_6 O18_6 1_555 1_555
C46_6 C41_6 1_555 1_555
H30_6 C46_6 1_555 1_555
C47_6 C41_6 1_555 1_555
C48_6 O16_6 1_555 1_555
C44_6 C45_6 1_555 1_555
C44_6 C48_6 1_555 1_555
C45_6 C46_6 1_555 1_555
Zn1_5 N1_7 1_555 1_555
Zn6_3 O3_7 1_555 1_555
N1_7 C21_7 1_555 1_555
N2_7 N3_7 1_555 1_555
N3_7 C22_7 1_555 1_555
N4_7 Zn6_3 1_555 1_555
N5_7 N6_7 1_555 1_555
N6_7 C14_7 1_555 1_555
N22_4 C29_7 1_555 1_555
N8_7 N9_7 1_555 1_555
N9_7 C30_7 1_555 1_555
N10_7 C18_7 1_555 1_555
C13_7 N4_7 1_555 1_555
H7_7 C13_7 1_555 1_555
C14_7 N4_7 1_555 1_555
H8_7 C14_7 1_555 1_555
C15_7 N6_7 1_555 1_555
C16_7 C15_7 1_555 1_555
H9_7 C16_7 1_555 1_555
C17_7 C16_7 1_555 1_555
H10_7 C17_7 1_555 1_555
C18_7 C17_7 1_555 1_555
C19_7 C18_7 1_555 1_555
H11_7 C19_7 1_555 1_555
C20_7 C15_7 1_555 1_555
H12_7 C20_7 1_555 1_555
C21_7 N2_7 1_555 1_555
H13_7 C21_7 1_555 1_555
C22_7 N1_7 1_555 1_555
H14_7 C22_7 1_555 1_555
C23_7 N3_7 1_555 1_555
C24_7 C23_7 1_555 1_555
H15_7 C24_7 1_555 1_555
C25_7 C24_7 1_555 1_555
H16_7 C25_7 1_555 1_555
C26_7 N10_7 1_555 1_555
C27_7 C26_7 1_555 1_555
H17_7 C27_7 1_555 1_555
C28_7 C23_7 1_555 1_555
H18_7 C28_7 1_555 1_555
C29_7 N8_7 1_555 1_555
C30_7 N22_4 1_555 1_555
H20_7 C30_7 1_555 1_555
C31_7 N9_7 1_555 1_555
C32_7 C31_7 1_555 1_555
H21_7 C32_7 1_555 1_555
C33_7 C32_7 1_555 1_555
H22_7 C33_7 1_555 1_555
C34_7 N10_7 1_555 1_555
C35_7 C34_7 1_555 1_555
H23_7 C35_7 1_555 1_555
C36_7 C31_7 1_555 1_555
H24_7 C36_7 1_555 1_555
N11_7 Zn1_5 1_555 1_555
N12_7 N13_7 1_555 1_555
N13_7 C58_7 1_555 1_555
N22_3 C65_11 1_555 1_555
N18_7 N19_11 1_555 1_555
N19_11 C66_11 1_555 1_555
N20_11 C54_7 1_555 1_555
C52_7 C51_7 1_555 1_555
C53_7 C52_7 1_555 1_555
H34_7 C53_7 1_555 1_555
C54_7 C53_7 1_555 1_555
C55_7 C54_7 1_555 1_555
H35_7 C55_7 1_555 1_555
C56_7 C51_7 1_555 1_555
H36_7 C56_7 1_555 1_555
C57_7 N11_7 1_555 1_555
H37_7 C57_7 1_555 1_555
C58_7 N11_7 1_555 1_555
H38_7 C58_7 1_555 1_555
C59_11 N13_7 1_555 1_555
C60_11 C59_11 1_555 1_555
H39_7 C60_11 1_555 1_555
C61_7 C60_11 1_555 1_555
H40_7 C61_7 1_555 1_555
C62_11 N20_11 1_555 1_555
C63_11 C62_11 1_555 1_555
H41_11 C63_11 1_555 1_555
C64_11 C59_11 1_555 1_555
H42_11 C64_11 1_555 1_555
C65_11 N18_7 1_555 1_555
C66_11 N22_3 1_555 1_555
H44_11 C66_11 1_555 1_555
C67_11 N19_11 1_555 1_555
C68_11 C67_11 1_555 1_555
H45_11 C68_11 1_555 1_555
C69_11 C68_11 1_555 1_555
C70_11 N20_11 1_555 1_555
C71_11 C70_11 1_555 1_555
H47_7 C71_11 1_555 1_555
C72_11 C67_11 1_555 1_555
H48_7 C72_11 1_555 1_555
O19_5 Zn1_5 1_555 1_555
O20_5 Zn1_5 1_555 1_555
O21_5 Zn1_5 1_555 1_555
O22_5 Zn1_5 1_555 1_555
N5_7 C13_7 1_555 1_555
C19_7 C20_7 1_555 1_555
C25_7 C26_7 1_555 1_555
C27_7 C28_7 1_555 1_555
C33_7 C34_7 1_555 1_555
C35_7 C36_7 1_555 1_555
N12_7 C57_7 1_555 1_555
C55_7 C56_7 1_555 1_555
C61_7 C62_11 1_555 1_555
C63_11 C64_11 1_555 1_555
C69_11 C70_11 1_555 1_555
C71_11 C72_11 1_555 1_555
Zn1_6 N1_8 1_555 1_555
N1_8 C21_8 1_555 1_555
N2_8 N3_8 1_555 1_555
N3_8 C22_8 1_555 1_555
N21_3 C29_8 1_555 1_555
N8_8 N9_8 1_555 1_555
N9_8 C30_8 1_555 1_555
C21_8 N2_8 1_555 1_555
H13_8 C21_8 1_555 1_555
C22_8 N1_8 1_555 1_555
H14_8 C22_8 1_555 1_555
C23_8 N3_8 1_555 1_555
C24_8 C23_8 1_555 1_555
C26_8 N10_8 1_555 1_555
C27_8 C26_8 1_555 1_555
H17_8 C27_8 1_555 1_555
C28_8 C23_8 1_555 1_555
H18_8 C28_8 1_555 1_555
C29_8 N8_8 1_555 1_555
C30_8 N21_3 1_555 1_555
H20_8 C30_8 1_555 1_555
C31_8 N9_8 1_555 1_555
C32_8 C31_8 1_555 1_555
H21_8 C32_8 1_555 1_555
C33_8 C32_8 1_555 1_555
H22_8 C33_8 1_555 1_555
C34_8 N10_8 1_555 1_555
C35_8 C34_8 1_555 1_555
H23_8 C35_8 1_555 1_555
C36_8 C31_8 1_555 1_555
H24_8 C36_8 1_555 1_555
N11_8 Zn1_6 1_555 1_555
N12_8 N13_8 1_555 1_555
N13_8 C58_8 1_555 1_555
C57_8 N11_8 1_555 1_555
H37_8 C57_8 1_555 1_555
C58_8 N11_8 1_555 1_555
H38_8 C58_8 1_555 1_555
O19_6 Zn1_6 1_555 1_555
O20_6 Zn1_6 1_555 1_555
O21_6 Zn1_6 1_555 1_555
O22_6 Zn1_6 1_555 1_555
C27_8 C28_8 1_555 1_555
C33_8 C34_8 1_555 1_555
C35_8 C36_8 1_555 1_555
N12_8 C57_8 1_555 1_555
Zn7_2 O15_7 1_555 1_555
O20_6 C47_7 1_555 1_555
O22_6 C47_7 1_555 1_555
O15_7 C48_7 1_555 1_555
O16_7 Zn7_2 1_555 1_555
O17_7 H27_7 1_555 1_555
O18_7 H28_7 1_555 1_555
N14_7 Zn7_2 1_555 1_555
N15_7 N16_7 1_555 1_555
N16_7 C50_7 1_555 1_555
N21_2 C65_12 1_555 1_555
N19_12 C66_12 1_555 1_555
N20_12 C54_8 1_555 1_555
C41_7 C42_7 1_555 1_555
C42_7 O17_7 1_555 1_555
C43_7 C42_7 1_555 1_555
H29_7 C43_7 1_555 1_555
C44_7 C43_7 1_555 1_555
C45_7 O18_7 1_555 1_555
C46_7 C41_7 1_555 1_555
H30_7 C46_7 1_555 1_555
C47_7 C41_7 1_555 1_555
C48_7 O16_7 1_555 1_555
C49_7 N14_7 1_555 1_555
H31_7 C49_7 1_555 1_555
C50_7 N14_7 1_555 1_555
H32_7 C50_7 1_555 1_555
C51_8 N16_7 1_555 1_555
C52_8 C51_8 1_555 1_555
H33_7 C52_8 1_555 1_555
C53_8 C52_8 1_555 1_555
H34_8 C53_8 1_555 1_555
C54_8 C53_8 1_555 1_555
C55_8 C54_8 1_555 1_555
H35_8 C55_8 1_555 1_555
C56_8 C51_8 1_555 1_555
H36_8 C56_8 1_555 1_555
C60_12 C59_12 1_555 1_555
C61_8 C60_12 1_555 1_555
H40_8 C61_8 1_555 1_555
C62_12 N20_12 1_555 1_555
C63_12 C62_12 1_555 1_555
H41_12 C63_12 1_555 1_555
C64_12 C59_12 1_555 1_555
H42_12 C64_12 1_555 1_555
C66_12 N21_2 1_555 1_555
H44_12 C66_12 1_555 1_555
C67_12 N19_12 1_555 1_555
C68_12 C67_12 1_555 1_555
H45_12 C68_12 1_555 1_555
C69_12 C68_12 1_555 1_555
H46_8 C69_12 1_555 1_555
C70_12 N20_12 1_555 1_555
C71_12 C70_12 1_555 1_555
C72_12 C67_12 1_555 1_555
N15_7 C49_7 1_555 1_555
C44_7 C45_7 1_555 1_555
C44_7 C48_7 1_555 1_555
C45_7 C46_7 1_555 1_555
C55_8 C56_8 1_555 1_555
C61_8 C62_12 1_555 1_555
C63_12 C64_12 1_555 1_555
C69_12 C70_12 1_555 1_555
C71_12 C72_12 1_555 1_555
O6_7 H2_7 1_555 1_555
C1_7 C2_7 1_555 1_555
C3_7 C2_7 1_555 1_555
H4_7 C3_7 1_555 1_555
C4_7 C3_7 1_555 1_555
C5_7 O6_7 1_555 1_555
C6_7 C1_7 1_555 1_555
H5_7 C6_7 1_555 1_555
C8_7 O4_7 1_555 1_555
C4_7 C5_7 1_555 1_555
C4_7 C8_7 1_555 1_555
C5_7 C6_7 1_555 1_555
O19_6 C7_7 1_555 1_555
O21_6 C7_7 1_555 1_555
O5_7 H1_7 1_555 1_555
O19_5 C7_8 1_555 1_555
O21_5 C7_8 1_555 1_555
O5_8 H1_8 1_555 1_555
C1_8 C2_8 1_555 1_555
C2_8 O5_8 1_555 1_555
C3_8 C2_8 1_555 1_555
H4_8 C3_8 1_555 1_555
C4_8 C3_8 1_555 1_555
C6_8 C1_8 1_555 1_555
H5_8 C6_8 1_555 1_555
C7_8 C1_8 1_555 1_555
C4_8 C5_8 1_555 1_555
C5_8 C6_8 1_555 1_555
Zn8_2 O3_8 1_555 1_555
O3_8 C8_8 1_555 1_555
O4_8 Zn8_2 1_555 1_555
O6_8 H2_8 1_555 1_555
N4_8 Zn8_2 1_555 1_555
N5_8 N6_8 1_555 1_555
N6_8 C14_8 1_555 1_555
C8_8 O4_8 1_555 1_555
C13_8 N4_8 1_555 1_555
H7_8 C13_8 1_555 1_555
C14_8 N4_8 1_555 1_555
H8_8 C14_8 1_555 1_555
C15_8 N6_8 1_555 1_555
C16_8 C15_8 1_555 1_555
H9_8 C16_8 1_555 1_555
C17_8 C16_8 1_555 1_555
H10_8 C17_8 1_555 1_555
C18_8 C17_8 1_555 1_555
C19_8 C18_8 1_555 1_555
H11_8 C19_8 1_555 1_555
C20_8 C15_8 1_555 1_555
H12_8 C20_8 1_555 1_555
H16_8 C25_8 1_555 1_555
N5_8 C13_8 1_555 1_555
C19_8 C20_8 1_555 1_555
Zn6_2 O15_8 1_555 1_555
O20_5 C47_8 1_555 1_555
O22_5 C47_8 1_555 1_555
O15_8 C48_8 1_555 1_555
O16_8 Zn6_2 1_555 1_555
O17_8 H27_8 1_555 1_555
O18_8 H28_8 1_555 1_555
N14_8 Zn6_2 1_555 1_555
N15_8 N16_8 1_555 1_555
N16_8 C50_8 1_555 1_555
C41_8 C42_8 1_555 1_555
C42_8 O17_8 1_555 1_555
C43_8 C42_8 1_555 1_555
H29_8 C43_8 1_555 1_555
C44_8 C43_8 1_555 1_555
C45_8 O18_8 1_555 1_555
C46_8 C41_8 1_555 1_555
H30_8 C46_8 1_555 1_555
C47_8 C41_8 1_555 1_555
C48_8 O16_8 1_555 1_555
C49_8 N14_8 1_555 1_555
H31_8 C49_8 1_555 1_555
C50_8 N14_8 1_555 1_555
H32_8 C50_8 1_555 1_555
N15_8 C49_8 1_555 1_555
C44_8 C45_8 1_555 1_555
C44_8 C48_8 1_555 1_555
C45_8 C46_8 1_555 1_555
C52_9 C51_9 1_555 1_555
C53_9 C52_9 1_555 1_555
H34_9 C53_9 1_555 1_555
C54_9 C53_9 1_555 1_555
C55_9 C54_9 1_555 1_555
H35_9 C55_9 1_555 1_555
C56_9 C51_9 1_555 1_555
H36_9 C56_9 1_555 1_555
H40_9 C61_9 1_555 1_555
C55_9 C56_9 1_555 1_555
O1_3 C7_9 1_555 1_555
O2_3 C7_9 1_555 1_555
O5_9 H1_9 1_555 1_555
Zn4_2 O1_3 1_555 1_555
O2_3 Zn4_2 1_555 1_555
Zn1_7 N1_9 1_555 1_555
Zn2_5 O3_9 1_555 1_555
O3_9 C8_9 1_555 1_555
O4_9 Zn2_5 1_555 1_555
O6_9 H2_9 1_555 1_555
O7_5 Zn2_5 1_555 1_555
O8_9 C12_9 1_555 1_555
O9_9 H3_9 1_555 1_555
N1_9 C21_9 1_555 1_555
N2_9 N3_9 1_555 1_555
N3_9 C22_9 1_555 1_555
N4_9 Zn2_5 1_555 1_555
N5_9 N6_9 1_555 1_555
N6_9 C14_9 1_555 1_555
N7_5 C29_9 1_555 1_555
N8_9 N9_9 1_555 1_555
N9_9 C30_9 1_555 1_555
N10_9 C18_9 1_555 1_555
C1_9 C2_9 1_555 1_555
C3_9 C2_9 1_555 1_555
H4_9 C3_9 1_555 1_555
C4_9 C3_9 1_555 1_555
C5_9 O6_9 1_555 1_555
C6_9 C1_9 1_555 1_555
H5_9 C6_9 1_555 1_555
C8_9 O4_9 1_555 1_555
C9_9 C10_9 1_555 1_555
C10_9 O9_9 1_555 1_555
C11_7 C10_9 1_555 1_555
H6_7 C11_7 1_555 1_555
C12_9 O7_5 1_555 1_555
C13_9 N4_9 1_555 1_555
H7_9 C13_9 1_555 1_555
C14_9 N4_9 1_555 1_555
H8_9 C14_9 1_555 1_555
C15_9 N6_9 1_555 1_555
C16_9 C15_9 1_555 1_555
H9_9 C16_9 1_555 1_555
C17_9 C16_9 1_555 1_555
H10_9 C17_9 1_555 1_555
C18_9 C17_9 1_555 1_555
C19_9 C18_9 1_555 1_555
H11_9 C19_9 1_555 1_555
C20_9 C15_9 1_555 1_555
H12_9 C20_9 1_555 1_555
C21_9 N2_9 1_555 1_555
H13_9 C21_9 1_555 1_555
C22_9 N1_9 1_555 1_555
H14_9 C22_9 1_555 1_555
C23_9 N3_9 1_555 1_555
C24_9 C23_9 1_555 1_555
H15_9 C24_9 1_555 1_555
C25_9 C24_9 1_555 1_555
H16_9 C25_9 1_555 1_555
C26_9 N10_9 1_555 1_555
C27_9 C26_9 1_555 1_555
H17_9 C27_9 1_555 1_555
C28_9 C23_9 1_555 1_555
H18_9 C28_9 1_555 1_555
C29_9 N8_9 1_555 1_555
H19_5 C29_9 1_555 1_555
C30_9 N7_5 1_555 1_555
H20_9 C30_9 1_555 1_555
C31_9 N9_9 1_555 1_555
C32_9 C31_9 1_555 1_555
H21_9 C32_9 1_555 1_555
C33_9 C32_9 1_555 1_555
H22_9 C33_9 1_555 1_555
C34_9 N10_9 1_555 1_555
C35_9 C34_9 1_555 1_555
H23_9 C35_9 1_555 1_555
C36_9 C31_9 1_555 1_555
H24_9 C36_9 1_555 1_555
O10_9 C40_9 1_555 1_555
O11_9 C40_9 1_555 1_555
O12_9 H25_9 1_555 1_555
C37_9 C11_7 1_555 1_555
C38_9 O12_9 1_555 1_555
C39_7 C9_9 1_555 1_555
H26_7 C39_7 1_555 1_555
C40_9 C37_9 1_555 1_555
N11_9 Zn1_7 1_555 1_555
N12_9 N13_9 1_555 1_555
N13_9 C58_9 1_555 1_555
C57_9 N11_9 1_555 1_555
H37_9 C57_9 1_555 1_555
C58_9 N11_9 1_555 1_555
H38_9 C58_9 1_555 1_555
Zn7_3 N7_5 1_555 1_555
O19_7 Zn1_7 1_555 1_555
O20_7 Zn1_7 1_555 1_555
O21_7 Zn1_7 1_555 1_555
O22_7 Zn1_7 1_555 1_555
N21_5 Zn2_5 1_555 1_555
N5_9 C13_9 1_555 1_555
C4_9 C5_9 1_555 1_555
C4_9 C8_9 1_555 1_555
C5_9 C6_9 1_555 1_555
C9_9 C12_9 1_555 1_555
C19_9 C20_9 1_555 1_555
C25_9 C26_9 1_555 1_555
C27_9 C28_9 1_555 1_555
C33_9 C34_9 1_555 1_555
C35_9 C36_9 1_555 1_555
C37_9 C38_9 1_555 1_555
C38_9 C39_7 1_555 1_555
N12_9 C57_9 1_555 1_555
O13_3 C47_9 1_555 1_555
O14_3 C47_9 1_555 1_555
O17_9 H27_9 1_555 1_555
O18_9 H28_9 1_555 1_555
C41_9 C42_9 1_555 1_555
C42_9 O17_9 1_555 1_555
C43_9 C42_9 1_555 1_555
H29_9 C43_9 1_555 1_555
C44_9 C43_9 1_555 1_555
C45_9 O18_9 1_555 1_555
C46_9 C41_9 1_555 1_555
H30_9 C46_9 1_555 1_555
C47_9 C41_9 1_555 1_555
C48_9 O16_9 1_555 1_555
Zn4_2 O13_3 1_555 1_555
O14_3 Zn4_2 1_555 1_555
C44_9 C45_9 1_555 1_555
C44_9 C48_9 1_555 1_555
C45_9 C46_9 1_555 1_555
O19_7 C7_10 1_555 1_555
O21_7 C7_10 1_555 1_555
O5_10 H1_10 1_555 1_555
Zn4_2 N1_10 1_555 1_555
Zn2_6 O3_10 1_555 1_555
O3_10 C8_10 1_555 1_555
O4_10 Zn2_6 1_555 1_555
O6_10 H2_10 1_555 1_555
O7_6 Zn2_6 1_555 1_555
O8_10 C12_10 1_555 1_555
O9_10 H3_10 1_555 1_555
N1_10 C21_10 1_555 1_555
N2_10 N3_10 1_555 1_555
N3_10 C22_10 1_555 1_555
N4_10 Zn2_6 1_555 1_555
N5_10 N6_10 1_555 1_555
N6_10 C14_10 1_555 1_555
N7_6 C29_10 1_555 1_555
N8_10 N9_10 1_555 1_555
N9_10 C30_10 1_555 1_555
N10_10 C18_10 1_555 1_555
C1_10 C2_10 1_555 1_555
C3_10 C2_10 1_555 1_555
H4_10 C3_10 1_555 1_555
C4_10 C3_10 1_555 1_555
C5_10 O6_10 1_555 1_555
C6_10 C1_10 1_555 1_555
H5_10 C6_10 1_555 1_555
C8_10 O4_10 1_555 1_555
C9_10 C10_10 1_555 1_555
C10_10 O9_10 1_555 1_555
C11_8 C10_10 1_555 1_555
H6_8 C11_8 1_555 1_555
C12_10 O7_6 1_555 1_555
C13_10 N4_10 1_555 1_555
H7_10 C13_10 1_555 1_555
C14_10 N4_10 1_555 1_555
H8_10 C14_10 1_555 1_555
C15_10 N6_10 1_555 1_555
C16_10 C15_10 1_555 1_555
H9_10 C16_10 1_555 1_555
C17_10 C16_10 1_555 1_555
H10_10 C17_10 1_555 1_555
C18_10 C17_10 1_555 1_555
C19_10 C18_10 1_555 1_555
H11_10 C19_10 1_555 1_555
C20_10 C15_10 1_555 1_555
H12_10 C20_10 1_555 1_555
C21_10 N2_10 1_555 1_555
H13_10 C21_10 1_555 1_555
C22_10 N1_10 1_555 1_555
H14_10 C22_10 1_555 1_555
C23_10 N3_10 1_555 1_555
C24_10 C23_10 1_555 1_555
H15_10 C24_10 1_555 1_555
C25_10 C24_10 1_555 1_555
H16_10 C25_10 1_555 1_555
C26_10 N10_10 1_555 1_555
C27_10 C26_10 1_555 1_555
H17_10 C27_10 1_555 1_555
C28_10 C23_10 1_555 1_555
H18_10 C28_10 1_555 1_555
C29_10 N8_10 1_555 1_555
H19_6 C29_10 1_555 1_555
C30_10 N7_6 1_555 1_555
H20_10 C30_10 1_555 1_555
C31_10 N9_10 1_555 1_555
C32_10 C31_10 1_555 1_555
H21_10 C32_10 1_555 1_555
C33_10 C32_10 1_555 1_555
H22_10 C33_10 1_555 1_555
C34_10 N10_10 1_555 1_555
C35_10 C34_10 1_555 1_555
H23_10 C35_10 1_555 1_555
C36_10 C31_10 1_555 1_555
H24_10 C36_10 1_555 1_555
O10_10 C40_10 1_555 1_555
O11_10 C40_10 1_555 1_555
O12_10 H25_10 1_555 1_555
C37_10 C11_8 1_555 1_555
C38_10 O12_10 1_555 1_555
C39_8 C9_10 1_555 1_555
H26_8 C39_8 1_555 1_555
C40_10 C37_10 1_555 1_555
N11_10 Zn4_2 1_555 1_555
N12_10 N13_10 1_555 1_555
N13_10 C58_10 1_555 1_555
C57_10 N11_10 1_555 1_555
H37_10 C57_10 1_555 1_555
C58_10 N11_10 1_555 1_555
H38_10 C58_10 1_555 1_555
Zn7_4 N7_6 1_555 1_555
N21_6 Zn2_6 1_555 1_555
N5_10 C13_10 1_555 1_555
C4_10 C5_10 1_555 1_555
C4_10 C8_10 1_555 1_555
C5_10 C6_10 1_555 1_555
C9_10 C12_10 1_555 1_555
C19_10 C20_10 1_555 1_555
C25_10 C26_10 1_555 1_555
C27_10 C28_10 1_555 1_555
C33_10 C34_10 1_555 1_555
C35_10 C36_10 1_555 1_555
C37_10 C38_10 1_555 1_555
C38_10 C39_8 1_555 1_555
N12_10 C57_10 1_555 1_555
Zn3_5 O15_9 1_555 1_555
O20_7 C47_10 1_555 1_555
O22_7 C47_10 1_555 1_555
O15_9 C48_10 1_555 1_555
O16_10 Zn3_5 1_555 1_555
O17_10 H27_10 1_555 1_555
O18_10 H28_10 1_555 1_555
N14_9 Zn3_5 1_555 1_555
N15_9 N16_9 1_555 1_555
N16_9 C50_9 1_555 1_555
C41_10 C42_10 1_555 1_555
C42_10 O17_10 1_555 1_555
C43_10 C42_10 1_555 1_555
H29_10 C43_10 1_555 1_555
C44_10 C43_10 1_555 1_555
C45_10 O18_10 1_555 1_555
C46_10 C41_10 1_555 1_555
H30_10 C46_10 1_555 1_555
C47_10 C41_10 1_555 1_555
C48_10 O16_10 1_555 1_555
C49_9 N14_9 1_555 1_555
H31_9 C49_9 1_555 1_555
C50_9 N14_9 1_555 1_555
H32_9 C50_9 1_555 1_555
C51_10 N16_9 1_555 1_555
C52_10 C51_10 1_555 1_555
H33_9 C52_10 1_555 1_555
C53_10 C52_10 1_555 1_555
H34_10 C53_10 1_555 1_555
C54_10 C53_10 1_555 1_555
C55_10 C54_10 1_555 1_555
H35_10 C55_10 1_555 1_555
C56_10 C51_10 1_555 1_555
H36_10 C56_10 1_555 1_555
H40_10 C61_10 1_555 1_555
O23_6 Zn3_5 1_555 1_555
N22_7 Zn3_5 1_555 1_555
N15_9 C49_9 1_555 1_555
C44_10 C45_10 1_555 1_555
C44_10 C48_10 1_555 1_555
C45_10 C46_10 1_555 1_555
C55_10 C56_10 1_555 1_555
Zn3_6 O15_10 1_555 1_555
N14_10 Zn3_6 1_555 1_555
N15_10 N16_10 1_555 1_555
N16_10 C50_10 1_555 1_555
C49_10 N14_10 1_555 1_555
H31_10 C49_10 1_555 1_555
C50_10 N14_10 1_555 1_555
H32_10 C50_10 1_555 1_555
N22_8 Zn3_6 1_555 1_555
N15_10 C49_10 1_555 1_555
Zn3_7 O15_11 1_555 1_555
O13_4 C47_11 1_555 1_555
O14_4 C47_11 1_555 1_555
O15_11 C48_11 1_555 1_555
O16_11 Zn3_7 1_555 1_555
O17_11 H27_11 1_555 1_555
O18_11 H28_11 1_555 1_555
N14_11 Zn3_7 1_555 1_555
N15_11 N16_11 1_555 1_555
N16_11 C50_11 1_555 1_555
C41_11 C42_11 1_555 1_555
C42_11 O17_11 1_555 1_555
C43_11 C42_11 1_555 1_555
H29_11 C43_11 1_555 1_555
C44_11 C43_11 1_555 1_555
C45_11 O18_11 1_555 1_555
C46_11 C41_11 1_555 1_555
H30_11 C46_11 1_555 1_555
C47_11 C41_11 1_555 1_555
C48_11 O16_11 1_555 1_555
C49_11 N14_11 1_555 1_555
H31_11 C49_11 1_555 1_555
C50_11 N14_11 1_555 1_555
H32_11 C50_11 1_555 1_555
Zn5_2 O13_4 1_555 1_555
O14_4 Zn5_2 1_555 1_555
N15_11 C49_11 1_555 1_555
C44_11 C45_11 1_555 1_555
C44_11 C48_11 1_555 1_555
C45_11 C46_11 1_555 1_555
O6_11 H2_11 1_555 1_555
C8_11 O4_11 1_555 1_555
H26_9 C39_9 1_555 1_555
H6_9 C11_9 1_555 1_555
O1_4 C7_11 1_555 1_555
O2_4 C7_11 1_555 1_555
O5_11 H1_11 1_555 1_555
C1_11 C2_11 1_555 1_555
C2_11 O5_11 1_555 1_555
C3_11 C2_11 1_555 1_555
H4_11 C3_11 1_555 1_555
C4_11 C3_11 1_555 1_555
C6_11 C1_11 1_555 1_555
H5_11 C6_11 1_555 1_555
C7_11 C1_11 1_555 1_555
Zn5_2 O1_4 1_555 1_555
O2_4 Zn5_2 1_555 1_555
C4_11 C5_11 1_555 1_555
C5_11 C6_11 1_555 1_555
O1_5 C7_12 1_555 1_555
O2_5 C7_12 1_555 1_555
O5_12 H1_12 1_555 1_555
Zn4_3 O1_5 1_555 1_555
O2_5 Zn4_3 1_555 1_555
Zn2_7 O3_11 1_555 1_555
O3_11 C8_12 1_555 1_555
O4_12 Zn2_7 1_555 1_555
O6_12 H2_12 1_555 1_555
O7_7 Zn2_7 1_555 1_555
O8_11 C12_11 1_555 1_555
O9_11 H3_11 1_555 1_555
N4_11 Zn2_7 1_555 1_555
N5_11 N6_11 1_555 1_555
N6_11 C14_11 1_555 1_555
C1_12 C2_12 1_555 1_555
C3_12 C2_12 1_555 1_555
H4_12 C3_12 1_555 1_555
C4_12 C3_12 1_555 1_555
C5_12 O6_12 1_555 1_555
C6_12 C1_12 1_555 1_555
H5_12 C6_12 1_555 1_555
C8_12 O4_12 1_555 1_555
C9_11 C10_11 1_555 1_555
C10_11 O9_11 1_555 1_555
C12_11 O7_7 1_555 1_555
C13_11 N4_11 1_555 1_555
H7_11 C13_11 1_555 1_555
C14_11 N4_11 1_555 1_555
H8_11 C14_11 1_555 1_555
C15_11 N6_11 1_555 1_555
C16_11 C15_11 1_555 1_555
H9_11 C16_11 1_555 1_555
C17_11 C16_11 1_555 1_555
H10_11 C17_11 1_555 1_555
C18_11 C17_11 1_555 1_555
C19_11 C18_11 1_555 1_555
H11_11 C19_11 1_555 1_555
C20_11 C15_11 1_555 1_555
H12_11 C20_11 1_555 1_555
H16_11 C25_11 1_555 1_555
C39_10 C9_11 1_555 1_555
H26_10 C39_10 1_555 1_555
N5_11 C13_11 1_555 1_555
C4_12 C5_12 1_555 1_555
C4_12 C8_12 1_555 1_555
C5_12 C6_12 1_555 1_555
C9_11 C12_11 1_555 1_555
C19_11 C20_11 1_555 1_555
Zn3_8 O15_12 1_555 1_555
O13_5 C47_12 1_555 1_555
O14_5 C47_12 1_555 1_555
O15_12 C48_12 1_555 1_555
O16_12 Zn3_8 1_555 1_555
O17_12 H27_12 1_555 1_555
O18_12 H28_12 1_555 1_555
N14_12 Zn3_8 1_555 1_555
N15_12 N16_12 1_555 1_555
N16_12 C50_12 1_555 1_555
N17_7 C65_13 1_555 1_555
N19_13 C66_13 1_555 1_555
N20_13 C54_11 1_555 1_555
C41_12 C42_12 1_555 1_555
C42_12 O17_12 1_555 1_555
C43_12 C42_12 1_555 1_555
H29_12 C43_12 1_555 1_555
C44_12 C43_12 1_555 1_555
C45_12 O18_12 1_555 1_555
C46_12 C41_12 1_555 1_555
H30_12 C46_12 1_555 1_555
C47_12 C41_12 1_555 1_555
C48_12 O16_12 1_555 1_555
C49_12 N14_12 1_555 1_555
H31_12 C49_12 1_555 1_555
C50_12 N14_12 1_555 1_555
H32_12 C50_12 1_555 1_555
C51_11 N16_12 1_555 1_555
C52_11 C51_11 1_555 1_555
H33_12 C52_11 1_555 1_555
C53_11 C52_11 1_555 1_555
H34_11 C53_11 1_555 1_555
C54_11 C53_11 1_555 1_555
C55_11 C54_11 1_555 1_555
H35_11 C55_11 1_555 1_555
C56_11 C51_11 1_555 1_555
H36_11 C56_11 1_555 1_555
C60_13 C59_13 1_555 1_555
C61_11 C60_13 1_555 1_555
H40_11 C61_11 1_555 1_555
C62_13 N20_13 1_555 1_555
C63_13 C62_13 1_555 1_555
H41_13 C63_13 1_555 1_555
C64_13 C59_13 1_555 1_555
H42_13 C64_13 1_555 1_555
C66_13 N17_7 1_555 1_555
H44_13 C66_13 1_555 1_555
C67_13 N19_13 1_555 1_555
C68_13 C67_13 1_555 1_555
H45_13 C68_13 1_555 1_555
C69_13 C68_13 1_555 1_555
H46_12 C69_13 1_555 1_555
C70_13 N20_13 1_555 1_555
C71_13 C70_13 1_555 1_555
C72_13 C67_13 1_555 1_555
Zn4_3 O13_5 1_555 1_555
O23_7 Zn3_8 1_555 1_555
O14_5 Zn4_3 1_555 1_555
N15_12 C49_12 1_555 1_555
C44_12 C45_12 1_555 1_555
C44_12 C48_12 1_555 1_555
C45_12 C46_12 1_555 1_555
C55_11 C56_11 1_555 1_555
C61_11 C62_13 1_555 1_555
C63_13 C64_13 1_555 1_555
C69_13 C70_13 1_555 1_555
C71_13 C72_13 1_555 1_555
Zn4_3 N1_11 1_555 1_555
Zn2_8 O3_12 1_555 1_555
O7_8 Zn2_8 1_555 1_555
O8_12 C12_12 1_555 1_555
O9_12 H3_12 1_555 1_555
N1_11 C21_11 1_555 1_555
N2_11 N3_11 1_555 1_555
N3_11 C22_11 1_555 1_555
N4_12 Zn2_8 1_555 1_555
N5_12 N6_12 1_555 1_555
N6_12 C14_12 1_555 1_555
N7_7 C29_11 1_555 1_555
N8_11 N9_11 1_555 1_555
N9_11 C30_11 1_555 1_555
N10_11 C18_12 1_555 1_555
C9_12 C10_12 1_555 1_555
C10_12 O9_12 1_555 1_555
C11_10 C10_12 1_555 1_555
H6_10 C11_10 1_555 1_555
C12_12 O7_8 1_555 1_555
C13_12 N4_12 1_555 1_555
H7_12 C13_12 1_555 1_555
C14_12 N4_12 1_555 1_555
H8_12 C14_12 1_555 1_555
C15_12 N6_12 1_555 1_555
C16_12 C15_12 1_555 1_555
H9_12 C16_12 1_555 1_555
C17_12 C16_12 1_555 1_555
H10_12 C17_12 1_555 1_555
C18_12 C17_12 1_555 1_555
C19_12 C18_12 1_555 1_555
H11_12 C19_12 1_555 1_555
C20_12 C15_12 1_555 1_555
H12_12 C20_12 1_555 1_555
C21_11 N2_11 1_555 1_555
H13_11 C21_11 1_555 1_555
C22_11 N1_11 1_555 1_555
H14_11 C22_11 1_555 1_555
C23_11 N3_11 1_555 1_555
C24_11 C23_11 1_555 1_555
H15_12 C24_11 1_555 1_555
C25_12 C24_11 1_555 1_555
H16_12 C25_12 1_555 1_555
C26_11 N10_11 1_555 1_555
C27_11 C26_11 1_555 1_555
H17_11 C27_11 1_555 1_555
C28_11 C23_11 1_555 1_555
H18_11 C28_11 1_555 1_555
C29_11 N8_11 1_555 1_555
H19_9 C29_11 1_555 1_555
C30_11 N7_7 1_555 1_555
H20_11 C30_11 1_555 1_555
C31_11 N9_11 1_555 1_555
C32_11 C31_11 1_555 1_555
H21_11 C32_11 1_555 1_555
C33_11 C32_11 1_555 1_555
H22_11 C33_11 1_555 1_555
C34_11 N10_11 1_555 1_555
C35_11 C34_11 1_555 1_555
H23_11 C35_11 1_555 1_555
C36_11 C31_11 1_555 1_555
H24_11 C36_11 1_555 1_555
N11_11 Zn4_3 1_555 1_555
N12_11 N13_11 1_555 1_555
N13_11 C58_11 1_555 1_555
C57_11 N11_11 1_555 1_555
H37_11 C57_11 1_555 1_555
C58_11 N11_11 1_555 1_555
H38_11 C58_11 1_555 1_555
Zn7_7 N7_7 1_555 1_555
N21_8 Zn2_8 1_555 1_555
N5_12 C13_12 1_555 1_555
C9_12 C12_12 1_555 1_555
C19_12 C20_12 1_555 1_555
C25_12 C26_11 1_555 1_555
C27_11 C28_11 1_555 1_555
C33_11 C34_11 1_555 1_555
C35_11 C36_11 1_555 1_555
N12_11 C57_11 1_555 1_555
Zn5_2 N1_12 1_555 1_555
N1_12 C21_12 1_555 1_555
N2_12 N3_12 1_555 1_555
N3_12 C22_12 1_555 1_555
N7_8 C29_12 1_555 1_555
N8_12 N9_12 1_555 1_555
N9_12 C30_12 1_555 1_555
C21_12 N2_12 1_555 1_555
H13_12 C21_12 1_555 1_555
C22_12 N1_12 1_555 1_555
H14_12 C22_12 1_555 1_555
C23_12 N3_12 1_555 1_555
C24_12 C23_12 1_555 1_555
C26_12 N10_12 1_555 1_555
C27_12 C26_12 1_555 1_555
H17_12 C27_12 1_555 1_555
C28_12 C23_12 1_555 1_555
H18_12 C28_12 1_555 1_555
C29_12 N8_12 1_555 1_555
H19_10 C29_12 1_555 1_555
C30_12 N7_8 1_555 1_555
H20_12 C30_12 1_555 1_555
C31_12 N9_12 1_555 1_555
C32_12 C31_12 1_555 1_555
H21_12 C32_12 1_555 1_555
C33_12 C32_12 1_555 1_555
H22_12 C33_12 1_555 1_555
C34_12 N10_12 1_555 1_555
C35_12 C34_12 1_555 1_555
H23_12 C35_12 1_555 1_555
C36_12 C31_12 1_555 1_555
H24_12 C36_12 1_555 1_555
N11_12 Zn5_2 1_555 1_555
N12_12 N13_12 1_555 1_555
N13_12 C58_12 1_555 1_555
N17_8 C65_14 1_555 1_555
N18_12 N19_14 1_555 1_555
N19_14 C66_14 1_555 1_555
N20_14 C54_12 1_555 1_555
C52_12 C51_12 1_555 1_555
C53_12 C52_12 1_555 1_555
H34_12 C53_12 1_555 1_555
C54_12 C53_12 1_555 1_555
C55_12 C54_12 1_555 1_555
H35_12 C55_12 1_555 1_555
C56_12 C51_12 1_555 1_555
H36_12 C56_12 1_555 1_555
C57_12 N11_12 1_555 1_555
H37_12 C57_12 1_555 1_555
C58_12 N11_12 1_555 1_555
H38_12 C58_12 1_555 1_555
C59_14 N13_12 1_555 1_555
C60_14 C59_14 1_555 1_555
H39_12 C60_14 1_555 1_555
C61_12 C60_14 1_555 1_555
H40_12 C61_12 1_555 1_555
C62_14 N20_14 1_555 1_555
C63_14 C62_14 1_555 1_555
H41_14 C63_14 1_555 1_555
C64_14 C59_14 1_555 1_555
H42_14 C64_14 1_555 1_555
C65_14 N18_12 1_555 1_555
H43_10 C65_14 1_555 1_555
C66_14 N17_8 1_555 1_555
H44_14 C66_14 1_555 1_555
C67_14 N19_14 1_555 1_555
C68_14 C67_14 1_555 1_555
H45_14 C68_14 1_555 1_555
C69_14 C68_14 1_555 1_555
C70_14 N20_14 1_555 1_555
C71_14 C70_14 1_555 1_555
H47_12 C71_14 1_555 1_555
C72_14 C67_14 1_555 1_555
H48_12 C72_14 1_555 1_555
Zn7_8 N7_8 1_555 1_555
Zn6_4 N17_8 1_555 1_555
C27_12 C28_12 1_555 1_555
C33_12 C34_12 1_555 1_555
C35_12 C36_12 1_555 1_555
N12_12 C57_12 1_555 1_555
C55_12 C56_12 1_555 1_555
C61_12 C62_14 1_555 1_555
C63_14 C64_14 1_555 1_555
C69_14 C70_14 1_555 1_555
C71_14 C72_14 1_555 1_555
H6_11 C11_11 1_555 1_555
O10_11 C40_11 1_555 1_555
O11_11 C40_11 1_555 1_555
O12_11 H25_11 1_555 1_555
C37_11 C11_11 1_555 1_555
C38_11 O12_11 1_555 1_555
C40_11 C37_11 1_555 1_555
Zn7_5 O10_11 1_555 1_555
C37_11 C38_11 1_555 1_555
O8_13 C12_13 1_555 1_555
O9_13 H3_13 1_555 1_555
C9_13 C10_13 1_555 1_555
C10_13 O9_13 1_555 1_555
C12_13 O23_7 1_555 1_555
C39_11 C9_13 1_555 1_555
H26_11 C39_11 1_555 1_555
C9_13 C12_13 1_555 1_555
H6_12 C11_12 1_555 1_555
O10_12 C40_12 1_555 1_555
O11_12 C40_12 1_555 1_555
O12_12 H25_12 1_555 1_555
C37_12 C11_12 1_555 1_555
C38_12 O12_12 1_555 1_555
C40_12 C37_12 1_555 1_555
Zn7_6 O10_12 1_555 1_555
C37_12 C38_12 1_555 1_555
O8_14 C12_14 1_555 1_555
O9_14 H3_14 1_555 1_555
C9_14 C10_14 1_555 1_555
C10_14 O9_14 1_555 1_555
C11_13 C10_14 1_555 1_555
H6_13 C11_13 1_555 1_555
C12_14 O23_8 1_555 1_555
O10_13 C40_13 1_555 1_555
O11_13 C40_13 1_555 1_555
O12_13 H25_13 1_555 1_555
C37_13 C11_13 1_555 1_555
C38_13 O12_13 1_555 1_555
C39_12 C9_14 1_555 1_555
H26_12 C39_12 1_555 1_555
C40_13 C37_13 1_555 1_555
Zn7_7 O10_13 1_555 1_555
C9_14 C12_14 1_555 1_555
C37_13 C38_13 1_555 1_555
C38_13 C39_12 1_555 1_555
H6_14 C11_14 1_555 1_555
O10_14 C40_14 1_555 1_555
O11_14 C40_14 1_555 1_555
O12_14 H25_14 1_555 1_555
C37_14 C11_14 1_555 1_555
C38_14 O12_14 1_555 1_555
C40_14 C37_14 1_555 1_555
Zn7_8 O10_14 1_555 1_555
C37_14 C38_14 1_555 1_555
H6_15 C11_15 1_555 1_555
H26_13 C39_13 1_555 1_555
O8_15 C12_15 1_555 1_555
O9_15 H3_15 1_555 1_555
C9_15 C10_15 1_555 1_555
C10_15 O9_15 1_555 1_555
C11_16 C10_15 1_555 1_555
H6_16 C11_16 1_555 1_555
C12_15 O23_5 1_555 1_555
O10_15 C40_15 1_555 1_555
O11_15 C40_15 1_555 1_555
O12_15 H25_15 1_555 1_555
C37_15 C11_16 1_555 1_555
C38_15 O12_15 1_555 1_555
C39_14 C9_15 1_555 1_555
H26_14 C39_14 1_555 1_555
C40_15 C37_15 1_555 1_555
Zn7_3 O10_15 1_555 1_555
C9_15 C12_15 1_555 1_555
C37_15 C38_15 1_555 1_555
C38_15 C39_14 1_555 1_555
O10_16 C40_16 1_555 1_555
O11_16 C40_16 1_555 1_555
O12_16 H25_16 1_555 1_555
C38_16 O12_16 1_555 1_555
H26_15 C39_15 1_555 1_555
C40_16 C37_16 1_555 1_555
Zn7_4 O10_16 1_555 1_555
C37_16 C38_16 1_555 1_555
C38_16 C39_15 1_555 1_555
O8_16 C12_16 1_555 1_555
O9_16 H3_16 1_555 1_555
C9_16 C10_16 1_555 1_555
C10_16 O9_16 1_555 1_555
C12_16 O23_6 1_555 1_555
C39_16 C9_16 1_555 1_555
H26_16 C39_16 1_555 1_555
C9_16 C12_16 1_555 1_555
C52_13 C51_13 1_555 1_555
C53_13 C52_13 1_555 1_555
H34_13 C53_13 1_555 1_555
C54_13 C53_13 1_555 1_555
C55_13 C54_13 1_555 1_555
H35_13 C55_13 1_555 1_555
C56_13 C51_13 1_555 1_555
H36_13 C56_13 1_555 1_555
H40_13 C61_13 1_555 1_555
C55_13 C56_13 1_555 1_555
O13_6 C47_13 1_555 1_555
O14_6 C47_13 1_555 1_555
O17_13 H27_13 1_555 1_555
O18_13 H28_13 1_555 1_555
C41_13 C42_13 1_555 1_555
C42_13 O17_13 1_555 1_555
C43_13 C42_13 1_555 1_555
H29_13 C43_13 1_555 1_555
C44_13 C43_13 1_555 1_555
C45_13 O18_13 1_555 1_555
C46_13 C41_13 1_555 1_555
H30_13 C46_13 1_555 1_555
C47_13 C41_13 1_555 1_555
C48_13 O16_13 1_555 1_555
Zn5_3 O13_6 1_555 1_555
O14_6 Zn5_3 1_555 1_555
C44_13 C45_13 1_555 1_555
C44_13 C48_13 1_555 1_555
C45_13 C46_13 1_555 1_555
Zn1_8 N1_13 1_555 1_555
Zn7_3 O3_13 1_555 1_555
O3_13 C8_13 1_555 1_555
O4_13 Zn7_3 1_555 1_555
O6_13 H2_13 1_555 1_555
N1_13 C21_13 1_555 1_555
N2_13 N3_13 1_555 1_555
N3_13 C22_13 1_555 1_555
N4_13 Zn7_3 1_555 1_555
N5_13 N6_13 1_555 1_555
N6_13 C14_13 1_555 1_555
N21_5 C29_13 1_555 1_555
N8_13 N9_13 1_555 1_555
N9_13 C30_13 1_555 1_555
N10_13 C18_13 1_555 1_555
C1_13 C2_13 1_555 1_555
C3_13 C2_13 1_555 1_555
H4_13 C3_13 1_555 1_555
C4_13 C3_13 1_555 1_555
C5_13 O6_13 1_555 1_555
C6_13 C1_13 1_555 1_555
H5_13 C6_13 1_555 1_555
C8_13 O4_13 1_555 1_555
C13_13 N4_13 1_555 1_555
H7_13 C13_13 1_555 1_555
C14_13 N4_13 1_555 1_555
H8_13 C14_13 1_555 1_555
C15_13 N6_13 1_555 1_555
C16_13 C15_13 1_555 1_555
H9_13 C16_13 1_555 1_555
C17_13 C16_13 1_555 1_555
H10_13 C17_13 1_555 1_555
C18_13 C17_13 1_555 1_555
C19_13 C18_13 1_555 1_555
H11_13 C19_13 1_555 1_555
C20_13 C15_13 1_555 1_555
H12_13 C20_13 1_555 1_555
C21_13 N2_13 1_555 1_555
H13_13 C21_13 1_555 1_555
C22_13 N1_13 1_555 1_555
H14_13 C22_13 1_555 1_555
C23_13 N3_13 1_555 1_555
C24_13 C23_13 1_555 1_555
H15_13 C24_13 1_555 1_555
C25_13 C24_13 1_555 1_555
H16_13 C25_13 1_555 1_555
C26_13 N10_13 1_555 1_555
C27_13 C26_13 1_555 1_555
H17_13 C27_13 1_555 1_555
C28_13 C23_13 1_555 1_555
H18_13 C28_13 1_555 1_555
C29_13 N8_13 1_555 1_555
H19_11 C29_13 1_555 1_555
C30_13 N21_5 1_555 1_555
H20_13 C30_13 1_555 1_555
C31_13 N9_13 1_555 1_555
C32_13 C31_13 1_555 1_555
H21_13 C32_13 1_555 1_555
C33_13 C32_13 1_555 1_555
H22_13 C33_13 1_555 1_555
C34_13 N10_13 1_555 1_555
C35_13 C34_13 1_555 1_555
H23_13 C35_13 1_555 1_555
C36_13 C31_13 1_555 1_555
H24_13 C36_13 1_555 1_555
N11_13 Zn1_8 1_555 1_555
N12_13 N13_13 1_555 1_555
N13_13 C58_13 1_555 1_555
C57_13 N11_13 1_555 1_555
H37_13 C57_13 1_555 1_555
C58_13 N11_13 1_555 1_555
H38_13 C58_13 1_555 1_555
O19_8 Zn1_8 1_555 1_555
O20_8 Zn1_8 1_555 1_555
O21_8 Zn1_8 1_555 1_555
O22_8 Zn1_8 1_555 1_555
N5_13 C13_13 1_555 1_555
C4_13 C5_13 1_555 1_555
C4_13 C8_13 1_555 1_555
C5_13 C6_13 1_555 1_555
C19_13 C20_13 1_555 1_555
C25_13 C26_13 1_555 1_555
C27_13 C28_13 1_555 1_555
C33_13 C34_13 1_555 1_555
C35_13 C36_13 1_555 1_555
N12_13 C57_13 1_555 1_555
O1_6 C7_13 1_555 1_555
O2_6 C7_13 1_555 1_555
O5_13 H1_13 1_555 1_555
Zn5_3 O1_6 1_555 1_555
O2_6 Zn5_3 1_555 1_555
Zn7_8 O15_13 1_555 1_555
O20_8 C47_14 1_555 1_555
O22_8 C47_14 1_555 1_555
O15_13 C48_14 1_555 1_555
O16_14 Zn7_8 1_555 1_555
O17_14 H27_14 1_555 1_555
O18_14 H28_14 1_555 1_555
N14_13 Zn7_8 1_555 1_555
N15_13 N16_13 1_555 1_555
N16_13 C50_13 1_555 1_555
C41_14 C42_14 1_555 1_555
C42_14 O17_14 1_555 1_555
C43_14 C42_14 1_555 1_555
H29_14 C43_14 1_555 1_555
C44_14 C43_14 1_555 1_555
C45_14 O18_14 1_555 1_555
C46_14 C41_14 1_555 1_555
H30_14 C46_14 1_555 1_555
C47_14 C41_14 1_555 1_555
C48_14 O16_14 1_555 1_555
C49_13 N14_13 1_555 1_555
H31_13 C49_13 1_555 1_555
C50_13 N14_13 1_555 1_555
H32_13 C50_13 1_555 1_555
C51_14 N16_13 1_555 1_555
C52_14 C51_14 1_555 1_555
H33_13 C52_14 1_555 1_555
C53_14 C52_14 1_555 1_555
H34_14 C53_14 1_555 1_555
C54_14 C53_14 1_555 1_555
C55_14 C54_14 1_555 1_555
H35_14 C55_14 1_555 1_555
C56_14 C51_14 1_555 1_555
H36_14 C56_14 1_555 1_555
H40_14 C61_14 1_555 1_555
N15_13 C49_13 1_555 1_555
C44_14 C45_14 1_555 1_555
C44_14 C48_14 1_555 1_555
C45_14 C46_14 1_555 1_555
C55_14 C56_14 1_555 1_555
Zn5_3 N1_14 1_555 1_555
Zn7_7 O3_14 1_555 1_555
O3_14 C8_14 1_555 1_555
O4_14 Zn7_7 1_555 1_555
O6_14 H2_14 1_555 1_555
N1_14 C21_14 1_555 1_555
N2_14 N3_14 1_555 1_555
N3_14 C22_14 1_555 1_555
N4_14 Zn7_7 1_555 1_555
N5_14 N6_14 1_555 1_555
N6_14 C14_14 1_555 1_555
N21_8 C29_14 1_555 1_555
N8_14 N9_14 1_555 1_555
N9_14 C30_14 1_555 1_555
N10_14 C18_14 1_555 1_555
C1_14 C2_14 1_555 1_555
C3_14 C2_14 1_555 1_555
H4_14 C3_14 1_555 1_555
C4_14 C3_14 1_555 1_555
C5_14 O6_14 1_555 1_555
C6_14 C1_14 1_555 1_555
H5_14 C6_14 1_555 1_555
C8_14 O4_14 1_555 1_555
C13_14 N4_14 1_555 1_555
H7_14 C13_14 1_555 1_555
C14_14 N4_14 1_555 1_555
H8_14 C14_14 1_555 1_555
C15_14 N6_14 1_555 1_555
C16_14 C15_14 1_555 1_555
H9_14 C16_14 1_555 1_555
C17_14 C16_14 1_555 1_555
H10_14 C17_14 1_555 1_555
C18_14 C17_14 1_555 1_555
C19_14 C18_14 1_555 1_555
H11_14 C19_14 1_555 1_555
C20_14 C15_14 1_555 1_555
H12_14 C20_14 1_555 1_555
C21_14 N2_14 1_555 1_555
H13_14 C21_14 1_555 1_555
C22_14 N1_14 1_555 1_555
H14_14 C22_14 1_555 1_555
C23_14 N3_14 1_555 1_555
C24_14 C23_14 1_555 1_555
H15_14 C24_14 1_555 1_555
C25_14 C24_14 1_555 1_555
H16_14 C25_14 1_555 1_555
C26_14 N10_14 1_555 1_555
C27_14 C26_14 1_555 1_555
H17_14 C27_14 1_555 1_555
C28_14 C23_14 1_555 1_555
H18_14 C28_14 1_555 1_555
C29_14 N8_14 1_555 1_555
H19_12 C29_14 1_555 1_555
C30_14 N21_8 1_555 1_555
H20_14 C30_14 1_555 1_555
C31_14 N9_14 1_555 1_555
C32_14 C31_14 1_555 1_555
H21_14 C32_14 1_555 1_555
C33_14 C32_14 1_555 1_555
H22_14 C33_14 1_555 1_555
C34_14 N10_14 1_555 1_555
C35_14 C34_14 1_555 1_555
H23_14 C35_14 1_555 1_555
C36_14 C31_14 1_555 1_555
H24_14 C36_14 1_555 1_555
N11_14 Zn5_3 1_555 1_555
N12_14 N13_14 1_555 1_555
N13_14 C58_14 1_555 1_555
C57_14 N11_14 1_555 1_555
H37_14 C57_14 1_555 1_555
C58_14 N11_14 1_555 1_555
H38_14 C58_14 1_555 1_555
N5_14 C13_14 1_555 1_555
C4_14 C5_14 1_555 1_555
C4_14 C8_14 1_555 1_555
C5_14 C6_14 1_555 1_555
C19_14 C20_14 1_555 1_555
C25_14 C26_14 1_555 1_555
C27_14 C28_14 1_555 1_555
C33_14 C34_14 1_555 1_555
C35_14 C36_14 1_555 1_555
N12_14 C57_14 1_555 1_555
O19_8 C7_14 1_555 1_555
O21_8 C7_14 1_555 1_555
O5_14 H1_14 1_555 1_555
Zn6_4 O15_14 1_555 1_555
N14_14 Zn6_4 1_555 1_555
N15_14 N16_14 1_555 1_555
N16_14 C50_14 1_555 1_555
C49_14 N14_14 1_555 1_555
H31_14 C49_14 1_555 1_555
C50_14 N14_14 1_555 1_555
H32_14 C50_14 1_555 1_555
N15_14 C49_14 1_555 1_555
O1_7 C7_15 1_555 1_555
O2_7 C7_15 1_555 1_555
O5_15 H1_15 1_555 1_555
C1_15 C2_15 1_555 1_555
C2_15 O5_15 1_555 1_555
C3_15 C2_15 1_555 1_555
H4_15 C3_15 1_555 1_555
C4_15 C3_15 1_555 1_555
C6_15 C1_15 1_555 1_555
H5_15 C6_15 1_555 1_555
C7_15 C1_15 1_555 1_555
Zn4_4 O1_7 1_555 1_555
O2_7 Zn4_4 1_555 1_555
C4_15 C5_15 1_555 1_555
C5_15 C6_15 1_555 1_555
O6_15 H2_15 1_555 1_555
C8_15 O4_15 1_555 1_555
Zn8_4 O15_15 1_555 1_555
O13_7 C47_15 1_555 1_555
O14_7 C47_15 1_555 1_555
O15_15 C48_15 1_555 1_555
O16_15 Zn8_4 1_555 1_555
O17_15 H27_15 1_555 1_555
O18_15 H28_15 1_555 1_555
N14_15 Zn8_4 1_555 1_555
N15_15 N16_15 1_555 1_555
N16_15 C50_15 1_555 1_555
C41_15 C42_15 1_555 1_555
C42_15 O17_15 1_555 1_555
C43_15 C42_15 1_555 1_555
H29_15 C43_15 1_555 1_555
C44_15 C43_15 1_555 1_555
C45_15 O18_15 1_555 1_555
C46_15 C41_15 1_555 1_555
H30_15 C46_15 1_555 1_555
C47_15 C41_15 1_555 1_555
C48_15 O16_15 1_555 1_555
C49_15 N14_15 1_555 1_555
H31_15 C49_15 1_555 1_555
C50_15 N14_15 1_555 1_555
H32_15 C50_15 1_555 1_555
Zn4_4 O13_7 1_555 1_555
O14_7 Zn4_4 1_555 1_555
N15_15 C49_15 1_555 1_555
C44_15 C45_15 1_555 1_555
C44_15 C48_15 1_555 1_555
C45_15 C46_15 1_555 1_555
Zn7_5 O15_16 1_555 1_555
O13_8 C47_16 1_555 1_555
O14_8 C47_16 1_555 1_555
O15_16 C48_16 1_555 1_555
O16_16 Zn7_5 1_555 1_555
O17_16 H27_16 1_555 1_555
O18_16 H28_16 1_555 1_555
N14_16 Zn7_5 1_555 1_555
N15_16 N16_16 1_555 1_555
N16_16 C50_16 1_555 1_555
N21_7 C65_15 1_555 1_555
N19_15 C66_15 1_555 1_555
N20_15 C54_15 1_555 1_555
C41_16 C42_16 1_555 1_555
C42_16 O17_16 1_555 1_555
C43_16 C42_16 1_555 1_555
H29_16 C43_16 1_555 1_555
C44_16 C43_16 1_555 1_555
C45_16 O18_16 1_555 1_555
C46_16 C41_16 1_555 1_555
H30_16 C46_16 1_555 1_555
C47_16 C41_16 1_555 1_555
C48_16 O16_16 1_555 1_555
C49_16 N14_16 1_555 1_555
H31_16 C49_16 1_555 1_555
C50_16 N14_16 1_555 1_555
H32_16 C50_16 1_555 1_555
C51_15 N16_16 1_555 1_555
C52_15 C51_15 1_555 1_555
H33_16 C52_15 1_555 1_555
C53_15 C52_15 1_555 1_555
H34_15 C53_15 1_555 1_555
C54_15 C53_15 1_555 1_555
C55_15 C54_15 1_555 1_555
H35_15 C55_15 1_555 1_555
C56_15 C51_15 1_555 1_555
H36_15 C56_15 1_555 1_555
C60_15 C59_15 1_555 1_555
C61_15 C60_15 1_555 1_555
H40_15 C61_15 1_555 1_555
C62_15 N20_15 1_555 1_555
C63_15 C62_15 1_555 1_555
H41_15 C63_15 1_555 1_555
C64_15 C59_15 1_555 1_555
H42_15 C64_15 1_555 1_555
C66_15 N21_7 1_555 1_555
H44_15 C66_15 1_555 1_555
C67_15 N19_15 1_555 1_555
C68_15 C67_15 1_555 1_555
H45_15 C68_15 1_555 1_555
C69_15 C68_15 1_555 1_555
H46_15 C69_15 1_555 1_555
C70_15 N20_15 1_555 1_555
C71_15 C70_15 1_555 1_555
C72_15 C67_15 1_555 1_555
Zn5_4 O13_8 1_555 1_555
O14_8 Zn5_4 1_555 1_555
N15_16 C49_16 1_555 1_555
C44_16 C45_16 1_555 1_555
C44_16 C48_16 1_555 1_555
C45_16 C46_16 1_555 1_555
C55_15 C56_15 1_555 1_555
C61_15 C62_15 1_555 1_555
C63_15 C64_15 1_555 1_555
C69_15 C70_15 1_555 1_555
C71_15 C72_15 1_555 1_555
Zn7_6 O3_15 1_555 1_555
O3_15 C8_16 1_555 1_555
O4_16 Zn7_6 1_555 1_555
O6_16 H2_16 1_555 1_555
N4_15 Zn7_6 1_555 1_555
N5_15 N6_15 1_555 1_555
N6_15 C14_15 1_555 1_555
C1_16 C2_16 1_555 1_555
C3_16 C2_16 1_555 1_555
H4_16 C3_16 1_555 1_555
C4_16 C3_16 1_555 1_555
C5_16 O6_16 1_555 1_555
C6_16 C1_16 1_555 1_555
H5_16 C6_16 1_555 1_555
C8_16 O4_16 1_555 1_555
C13_15 N4_15 1_555 1_555
H7_15 C13_15 1_555 1_555
C14_15 N4_15 1_555 1_555
H8_15 C14_15 1_555 1_555
C15_15 N6_15 1_555 1_555
C16_15 C15_15 1_555 1_555
H9_15 C16_15 1_555 1_555
C17_15 C16_15 1_555 1_555
H10_15 C17_15 1_555 1_555
C18_15 C17_15 1_555 1_555
C19_15 C18_15 1_555 1_555
H11_15 C19_15 1_555 1_555
C20_15 C15_15 1_555 1_555
H12_15 C20_15 1_555 1_555
H16_15 C25_15 1_555 1_555
N5_15 C13_15 1_555 1_555
C4_16 C5_16 1_555 1_555
C4_16 C8_16 1_555 1_555
C5_16 C6_16 1_555 1_555
C19_15 C20_15 1_555 1_555
O1_8 C7_16 1_555 1_555
O2_8 C7_16 1_555 1_555
O5_16 H1_16 1_555 1_555
Zn5_4 O1_8 1_555 1_555
O2_8 Zn5_4 1_555 1_555
Zn5_4 N1_15 1_555 1_555
Zn7_4 O3_16 1_555 1_555
N1_15 C21_15 1_555 1_555
N2_15 N3_15 1_555 1_555
N3_15 C22_15 1_555 1_555
N4_16 Zn7_4 1_555 1_555
N5_16 N6_16 1_555 1_555
N6_16 C14_16 1_555 1_555
N21_6 C29_15 1_555 1_555
N8_15 N9_15 1_555 1_555
N9_15 C30_15 1_555 1_555
N10_15 C18_16 1_555 1_555
C13_16 N4_16 1_555 1_555
H7_16 C13_16 1_555 1_555
C14_16 N4_16 1_555 1_555
H8_16 C14_16 1_555 1_555
C15_16 N6_16 1_555 1_555
C16_16 C15_16 1_555 1_555
H9_16 C16_16 1_555 1_555
C17_16 C16_16 1_555 1_555
H10_16 C17_16 1_555 1_555
C18_16 C17_16 1_555 1_555
C19_16 C18_16 1_555 1_555
H11_16 C19_16 1_555 1_555
C20_16 C15_16 1_555 1_555
H12_16 C20_16 1_555 1_555
C21_15 N2_15 1_555 1_555
H13_15 C21_15 1_555 1_555
C22_15 N1_15 1_555 1_555
H14_15 C22_15 1_555 1_555
C23_15 N3_15 1_555 1_555
C24_15 C23_15 1_555 1_555
H15_16 C24_15 1_555 1_555
C25_16 C24_15 1_555 1_555
H16_16 C25_16 1_555 1_555
C26_15 N10_15 1_555 1_555
C27_15 C26_15 1_555 1_555
H17_15 C27_15 1_555 1_555
C28_15 C23_15 1_555 1_555
H18_15 C28_15 1_555 1_555
C29_15 N8_15 1_555 1_555
H19_15 C29_15 1_555 1_555
C30_15 N21_6 1_555 1_555
H20_15 C30_15 1_555 1_555
C31_15 N9_15 1_555 1_555
C32_15 C31_15 1_555 1_555
H21_15 C32_15 1_555 1_555
C33_15 C32_15 1_555 1_555
H22_15 C33_15 1_555 1_555
C34_15 N10_15 1_555 1_555
C35_15 C34_15 1_555 1_555
H23_15 C35_15 1_555 1_555
C36_15 C31_15 1_555 1_555
H24_15 C36_15 1_555 1_555
N11_15 Zn5_4 1_555 1_555
N12_15 N13_15 1_555 1_555
N13_15 C58_15 1_555 1_555
C57_15 N11_15 1_555 1_555
H37_15 C57_15 1_555 1_555
C58_15 N11_15 1_555 1_555
H38_15 C58_15 1_555 1_555
N5_16 C13_16 1_555 1_555
C19_16 C20_16 1_555 1_555
C25_16 C26_15 1_555 1_555
C27_15 C28_15 1_555 1_555
C33_15 C34_15 1_555 1_555
C35_15 C36_15 1_555 1_555
N12_15 C57_15 1_555 1_555
Zn4_4 N1_16 1_555 1_555
N1_16 C21_16 1_555 1_555
N2_16 N3_16 1_555 1_555
N3_16 C22_16 1_555 1_555
N22_7 C29_16 1_555 1_555
N8_16 N9_16 1_555 1_555
N9_16 C30_16 1_555 1_555
C21_16 N2_16 1_555 1_555
H13_16 C21_16 1_555 1_555
C22_16 N1_16 1_555 1_555
H14_16 C22_16 1_555 1_555
C23_16 N3_16 1_555 1_555
C24_16 C23_16 1_555 1_555
C26_16 N10_16 1_555 1_555
C27_16 C26_16 1_555 1_555
H17_16 C27_16 1_555 1_555
C28_16 C23_16 1_555 1_555
H18_16 C28_16 1_555 1_555
C29_16 N8_16 1_555 1_555
H19_16 C29_16 1_555 1_555
C30_16 N22_7 1_555 1_555
H20_16 C30_16 1_555 1_555
C31_16 N9_16 1_555 1_555
C32_16 C31_16 1_555 1_555
H21_16 C32_16 1_555 1_555
C33_16 C32_16 1_555 1_555
H22_16 C33_16 1_555 1_555
C34_16 N10_16 1_555 1_555
C35_16 C34_16 1_555 1_555
H23_16 C35_16 1_555 1_555
C36_16 C31_16 1_555 1_555
H24_16 C36_16 1_555 1_555
N11_16 Zn4_4 1_555 1_555
N12_16 N13_16 1_555 1_555
N13_16 C58_16 1_555 1_555
N22_8 C65_16 1_555 1_555
N18_16 N19_16 1_555 1_555
N19_16 C66_16 1_555 1_555
N20_16 C54_16 1_555 1_555
C52_16 C51_16 1_555 1_555
C53_16 C52_16 1_555 1_555
H34_16 C53_16 1_555 1_555
C54_16 C53_16 1_555 1_555
C55_16 C54_16 1_555 1_555
H35_16 C55_16 1_555 1_555
C56_16 C51_16 1_555 1_555
H36_16 C56_16 1_555 1_555
C57_16 N11_16 1_555 1_555
H37_16 C57_16 1_555 1_555
C58_16 N11_16 1_555 1_555
H38_16 C58_16 1_555 1_555
C59_16 N13_16 1_555 1_555
C60_16 C59_16 1_555 1_555
H39_16 C60_16 1_555 1_555
C61_16 C60_16 1_555 1_555
H40_16 C61_16 1_555 1_555
C62_16 N20_16 1_555 1_555
C63_16 C62_16 1_555 1_555
H41_16 C63_16 1_555 1_555
C64_16 C59_16 1_555 1_555
H42_16 C64_16 1_555 1_555
C65_16 N18_16 1_555 1_555
H43_16 C65_16 1_555 1_555
C66_16 N22_8 1_555 1_555
H44_16 C66_16 1_555 1_555
C67_16 N19_16 1_555 1_555
C68_16 C67_16 1_555 1_555
H45_16 C68_16 1_555 1_555
C69_16 C68_16 1_555 1_555
C70_16 N20_16 1_555 1_555
C71_16 C70_16 1_555 1_555
H47_16 C71_16 1_555 1_555
C72_16 C67_16 1_555 1_555
H48_16 C72_16 1_555 1_555
C27_16 C28_16 1_555 1_555
C33_16 C34_16 1_555 1_555
C35_16 C36_16 1_555 1_555
N12_16 C57_16 1_555 1_555
C55_16 C56_16 1_555 1_555
C61_16 C62_16 1_555 1_555
C63_16 C64_16 1_555 1_555
C69_16 C70_16 1_555 1_555
C71_16 C72_16 1_555 1_555

#END
