
###############################################################################
#
# This file contains modified crystal structure data generated from the
# MOF subset of the Cambridge Structural Database (CSD) v543 
# hosted by the Cambridge Crystallographic Data Centre (CCDC).
#
# This work is licensed under the Creative Commons
# Attribution-NonCommercial-ShareAlike 4.0 International License.
# To view a copy of this license, visit
# http://creativecommons.org/licenses/by-nc-sa/4.0/
# or send a letter to
# Creative Commons, PO Box 1866, Mountain View, CA 94042, USA.
#
# CIF created using the CSD Python API on 29 September 2022
# The structure has been converted into the P1 space group
# The structure has a 3D framework
# The original CSD entry GUHMIH is in the cubic crystal system
# The original CSD entry GUHMIH is in a Sohncke space group
# The framework has been calculated to contain at least 10.0% void space
# The void calculation uses a probe of radius 1.32A, grid spacing 0.4
# The framework is charged, counterions have been retained in the structure
# H atom positions have been added when not included in the experimental data
# Generated hydrogen atom positions removed from atoms on special positions
#
###############################################################################

data_GUHMIH
_chemical_formula_moiety         '(C336 H528 Cu30 N96 O604 P16 W144 36+)n'
_symmetry_cell_setting           triclinic
_symmetry_space_group_name_H-M   'P 1'
_symmetry_Int_Tables_number      1
_space_group_name_Hall           'P 1'
loop_
_symmetry_equiv_pos_site_id
_symmetry_equiv_pos_as_xyz
1 x,y,z
_cell_length_a                   28.9058(4)
_cell_length_b                   28.9058(4)
_cell_length_c                   28.9058(4)
_cell_angle_alpha                90
_cell_angle_beta                 90
_cell_angle_gamma                90
_cell_volume                     24152.1
loop_
_atom_site_label
_atom_site_type_symbol
_atom_site_fract_x
_atom_site_fract_y
_atom_site_fract_z
W1 W 0.333674(10) 0.657362(10) 0.810795(10)
W2 W 0.236874(11) 0.613932(9) 0.763451(11)
W3 W 0.396535(10) 0.652972(11) 0.699304(11)
P1 P 0.28963(6) 0.71037(6) 0.71037(6)
O1 O 0.32079(15) 0.67921(15) 0.67921(15)
O2 O 0.27991(17) 0.68309(17) 0.75457(17)
O3 O 0.28997(18) 0.60976(17) 0.80342(18)
O4 O 0.36153(17) 0.71731(17) 0.80121(18)
O5 O 0.36737(18) 0.63938(17) 0.75720(16)
O6 O 0.40042(18) 0.67479(18) 0.63743(19)
O7 O 0.27842(19) 0.59518(17) 0.71293(18)
O8 O 0.44971(18) 0.6281(2) 0.7054(2)
O9 O 0.2115(2) 0.56066(18) 0.7731(2)
O10 O 0.36929(19) 0.6330(2) 0.85139(18)
O11 O 0.29329(17) 0.69015(17) 0.85196(17)
O12 O 0.24543(17) 0.72009(17) 0.68309(17)
O13 O 0.31691(17) 0.75457(17) 0.72009(17)
W4 W 0.189205(10) 0.666326(10) 0.657362(10)
W5 W 0.236549(11) 0.763126(11) 0.613932(9)
W6 W 0.300696(11) 0.603465(10) 0.652972(11)
O14 O 0.19658(18) 0.71003(18) 0.60976(17)
O15 O 0.19879(18) 0.63847(17) 0.71731(17)
O16 O 0.24280(16) 0.63263(18) 0.63938(17)
O17 O 0.36257(19) 0.59958(18) 0.67479(18)
O18 O 0.28707(18) 0.72158(19) 0.59518(17)
O19 O 0.2946(2) 0.55029(18) 0.6281(2)
O20 O 0.2269(2) 0.7885(2) 0.56066(18)
O21 O 0.14861(18) 0.63071(19) 0.6330(2)
O22 O 0.14804(17) 0.70671(17) 0.69015(17)
W7 W 0.342638(10) 0.810795(10) 0.666326(10)
W8 W 0.386068(9) 0.763451(11) 0.763126(11)
W9 W 0.347028(11) 0.699304(11) 0.603465(10)
O23 O 0.39024(17) 0.80342(18) 0.71003(18)
O24 O 0.28269(17) 0.80121(18) 0.63847(17)
O25 O 0.36062(17) 0.75720(16) 0.63263(18)
O26 O 0.32521(18) 0.63743(19) 0.59958(18)
O27 O 0.40482(17) 0.71293(18) 0.72158(19)
O28 O 0.3719(2) 0.7054(2) 0.55029(18)
O29 O 0.43934(18) 0.7731(2) 0.7885(2)
O30 O 0.3670(2) 0.85139(18) 0.63071(19)
O31 O 0.30985(17) 0.85196(17) 0.70671(17)
W10 W 0.157362(10) 0.833674(10) 0.689205(10)
W11 W 0.113932(9) 0.736874(11) 0.736549(11)
W12 W 0.152972(11) 0.896535(10) 0.800696(11)
P2 P 0.21037(6) 0.78963(6) 0.78963(6)
O32 O 0.17921(15) 0.82079(15) 0.82079(15)
O33 O 0.18309(17) 0.77991(17) 0.74543(17)
O34 O 0.10976(17) 0.78997(18) 0.69658(18)
O35 O 0.21731(17) 0.86153(17) 0.69879(18)
O36 O 0.13938(17) 0.86737(18) 0.74280(16)
O37 O 0.17479(18) 0.90042(18) 0.86257(19)
O38 O 0.09518(17) 0.77842(19) 0.78707(18)
O39 O 0.1281(2) 0.94971(18) 0.7946(2)
O40 O 0.06066(18) 0.7115(2) 0.7269(2)
O41 O 0.1330(2) 0.86929(19) 0.64861(18)
O42 O 0.19015(17) 0.79329(17) 0.64804(17)
O43 O 0.22009(17) 0.74543(17) 0.81691(17)
O44 O 0.25457(17) 0.81691(17) 0.77991(17)
W13 W 0.166326(10) 0.689205(10) 0.842638(10)
W14 W 0.263126(11) 0.736549(11) 0.886068(9)
W15 W 0.103465(10) 0.800696(11) 0.847028(11)
O45 O 0.21003(18) 0.69658(18) 0.89024(17)
O46 O 0.13847(17) 0.69879(18) 0.78269(17)
O47 O 0.13263(18) 0.74280(16) 0.86062(17)
O48 O 0.09958(18) 0.86257(19) 0.82521(18)
O49 O 0.22158(19) 0.78707(18) 0.90482(17)
O50 O 0.05029(18) 0.7946(2) 0.8719(2)
O51 O 0.2885(2) 0.7269(2) 0.93934(18)
O52 O 0.13071(19) 0.64861(18) 0.8670(2)
O53 O 0.20671(17) 0.64804(17) 0.80985(17)
W16 W 0.310795(10) 0.842638(10) 0.833674(10)
W17 W 0.263451(11) 0.886068(9) 0.736874(11)
W18 W 0.199304(11) 0.847028(11) 0.896535(10)
O54 O 0.30342(18) 0.89024(17) 0.78997(18)
O55 O 0.30121(18) 0.78269(17) 0.86153(17)
O56 O 0.25720(16) 0.86062(17) 0.86737(18)
O57 O 0.13743(19) 0.82521(18) 0.90042(18)
O58 O 0.21293(18) 0.90482(17) 0.77842(19)
O59 O 0.2054(2) 0.8719(2) 0.94971(18)
O60 O 0.2731(2) 0.93934(18) 0.7115(2)
O61 O 0.35139(18) 0.8670(2) 0.86929(19)
O62 O 0.35196(17) 0.80985(17) 0.79329(17)
W1_2 W 0.342638(10) 0.333674(10) 0.810795(10)
W2_2 W 0.386068(9) 0.236874(11) 0.763451(11)
W3_2 W 0.347028(11) 0.396535(10) 0.699304(11)
P1_2 P 0.28963(6) 0.28963(6) 0.71037(6)
O1_2 O 0.32079(15) 0.32079(15) 0.67921(15)
O2_2 O 0.31691(17) 0.27991(17) 0.75457(17)
O3_2 O 0.39024(17) 0.28997(18) 0.80342(18)
O4_2 O 0.28269(17) 0.36153(17) 0.80121(18)
O5_2 O 0.36062(17) 0.36737(18) 0.75720(16)
O6_2 O 0.32521(18) 0.40042(18) 0.63743(19)
O7_2 O 0.40482(17) 0.27842(19) 0.71293(18)
O8_2 O 0.3719(2) 0.44971(18) 0.7054(2)
O9_2 O 0.43934(18) 0.2115(2) 0.7731(2)
O10_2 O 0.3670(2) 0.36929(19) 0.85139(18)
O11_2 O 0.30985(17) 0.29329(17) 0.85196(17)
O12_2 O 0.27991(17) 0.24543(17) 0.68309(17)
O13_2 O 0.24543(17) 0.31691(17) 0.72009(17)
W4_2 W 0.333674(10) 0.189205(10) 0.657362(10)
W5_2 W 0.236874(11) 0.236549(11) 0.613932(9)
W6_2 W 0.396535(10) 0.300696(11) 0.652972(11)
O14_2 O 0.28997(18) 0.19658(18) 0.60976(17)
O15_2 O 0.36153(17) 0.19879(18) 0.71731(17)
O16_2 O 0.36737(18) 0.24280(16) 0.63938(17)
O17_2 O 0.40042(18) 0.36257(19) 0.67479(18)
O18_2 O 0.27842(19) 0.28707(18) 0.59518(17)
O19_2 O 0.44971(18) 0.2946(2) 0.6281(2)
O20_2 O 0.2115(2) 0.2269(2) 0.56066(18)
O21_2 O 0.36929(19) 0.14861(18) 0.6330(2)
O22_2 O 0.29329(17) 0.14804(17) 0.69015(17)
W7_2 W 0.189205(10) 0.342638(10) 0.666326(10)
W8_2 W 0.236549(11) 0.386068(9) 0.763126(11)
W9_2 W 0.300696(11) 0.347028(11) 0.603465(10)
O23_2 O 0.19658(18) 0.39024(17) 0.71003(18)
O24_2 O 0.19879(18) 0.28269(17) 0.63847(17)
O25_2 O 0.24280(16) 0.36062(17) 0.63263(18)
O26_2 O 0.36257(19) 0.32521(18) 0.59958(18)
O27_2 O 0.28707(18) 0.40482(17) 0.72158(19)
O28_2 O 0.2946(2) 0.3719(2) 0.55029(18)
O29_2 O 0.2269(2) 0.43934(18) 0.7885(2)
O30_2 O 0.14861(18) 0.3670(2) 0.63071(19)
O31_2 O 0.14804(17) 0.30985(17) 0.70671(17)
W10_2 W 0.166326(10) 0.157362(10) 0.689205(10)
W11_2 W 0.263126(11) 0.113932(9) 0.736549(11)
W12_2 W 0.103465(10) 0.152972(11) 0.800696(11)
P2_2 P 0.21037(6) 0.21037(6) 0.78963(6)
O32_2 O 0.17921(15) 0.17921(15) 0.82079(15)
O33_2 O 0.22009(17) 0.18309(17) 0.74543(17)
O34_2 O 0.21003(18) 0.10976(17) 0.69658(18)
O35_2 O 0.13847(17) 0.21731(17) 0.69879(18)
O36_2 O 0.13263(18) 0.13938(17) 0.74280(16)
O37_2 O 0.09958(18) 0.17479(18) 0.86257(19)
O38_2 O 0.22158(19) 0.09518(17) 0.78707(18)
O39_2 O 0.05029(18) 0.1281(2) 0.7946(2)
O40_2 O 0.2885(2) 0.06066(18) 0.7269(2)
O41_2 O 0.13071(19) 0.1330(2) 0.64861(18)
O42_2 O 0.20671(17) 0.19015(17) 0.64804(17)
O43_2 O 0.25457(17) 0.22009(17) 0.81691(17)
O44_2 O 0.18309(17) 0.25457(17) 0.77991(17)
W13_2 W 0.310795(10) 0.166326(10) 0.842638(10)
W14_2 W 0.263451(11) 0.263126(11) 0.886068(9)
W15_2 W 0.199304(11) 0.103465(10) 0.847028(11)
O45_2 O 0.30342(18) 0.21003(18) 0.89024(17)
O46_2 O 0.30121(18) 0.13847(17) 0.78269(17)
O47_2 O 0.25720(16) 0.13263(18) 0.86062(17)
O48_2 O 0.13743(19) 0.09958(18) 0.82521(18)
O49_2 O 0.21293(18) 0.22158(19) 0.90482(17)
O50_2 O 0.2054(2) 0.05029(18) 0.8719(2)
O51_2 O 0.2731(2) 0.2885(2) 0.93934(18)
O52_2 O 0.35139(18) 0.13071(19) 0.8670(2)
O53_2 O 0.35196(17) 0.20671(17) 0.80985(17)
W16_2 W 0.157362(10) 0.310795(10) 0.833674(10)
W17_2 W 0.113932(9) 0.263451(11) 0.736874(11)
W18_2 W 0.152972(11) 0.199304(11) 0.896535(10)
O54_2 O 0.10976(17) 0.30342(18) 0.78997(18)
O55_2 O 0.21731(17) 0.30121(18) 0.86153(17)
O56_2 O 0.13938(17) 0.25720(16) 0.86737(18)
O57_2 O 0.17479(18) 0.13743(19) 0.90042(18)
O58_2 O 0.09518(17) 0.21293(18) 0.77842(19)
O59_2 O 0.1281(2) 0.2054(2) 0.94971(18)
O60_2 O 0.06066(18) 0.2731(2) 0.7115(2)
O61_2 O 0.1330(2) 0.35139(18) 0.86929(19)
O62_2 O 0.19015(17) 0.35196(17) 0.79329(17)
W1_3 W 0.666326(10) 0.342638(10) 0.810795(10)
W2_3 W 0.763126(11) 0.386068(9) 0.763451(11)
W3_3 W 0.603465(10) 0.347028(11) 0.699304(11)
P1_3 P 0.71037(6) 0.28963(6) 0.71037(6)
O1_3 O 0.67921(15) 0.32079(15) 0.67921(15)
O2_3 O 0.72009(17) 0.31691(17) 0.75457(17)
O3_3 O 0.71003(18) 0.39024(17) 0.80342(18)
O4_3 O 0.63847(17) 0.28269(17) 0.80121(18)
O5_3 O 0.63263(18) 0.36062(17) 0.75720(16)
O6_3 O 0.59958(18) 0.32521(18) 0.63743(19)
O7_3 O 0.72158(19) 0.40482(17) 0.71293(18)
O8_3 O 0.55029(18) 0.3719(2) 0.7054(2)
O9_3 O 0.7885(2) 0.43934(18) 0.7731(2)
O10_3 O 0.63071(19) 0.3670(2) 0.85139(18)
O11_3 O 0.70671(17) 0.30985(17) 0.85196(17)
O12_3 O 0.75457(17) 0.27991(17) 0.68309(17)
O13_3 O 0.68309(17) 0.24543(17) 0.72009(17)
W4_3 W 0.810795(10) 0.333674(10) 0.657362(10)
W5_3 W 0.763451(11) 0.236874(11) 0.613932(9)
W6_3 W 0.699304(11) 0.396535(10) 0.652972(11)
O14_3 O 0.80342(18) 0.28997(18) 0.60976(17)
O15_3 O 0.80121(18) 0.36153(17) 0.71731(17)
O16_3 O 0.75720(16) 0.36737(18) 0.63938(17)
O17_3 O 0.63743(19) 0.40042(18) 0.67479(18)
O18_3 O 0.71293(18) 0.27842(19) 0.59518(17)
O19_3 O 0.7054(2) 0.44971(18) 0.6281(2)
O20_3 O 0.7731(2) 0.2115(2) 0.56066(18)
O21_3 O 0.85139(18) 0.36929(19) 0.6330(2)
O22_3 O 0.85196(17) 0.29329(17) 0.69015(17)
W7_3 W 0.657362(10) 0.189205(10) 0.666326(10)
W8_3 W 0.613932(9) 0.236549(11) 0.763126(11)
W9_3 W 0.652972(11) 0.300696(11) 0.603465(10)
O23_3 O 0.60976(17) 0.19658(18) 0.71003(18)
O24_3 O 0.71731(17) 0.19879(18) 0.63847(17)
O25_3 O 0.63938(17) 0.24280(16) 0.63263(18)
O26_3 O 0.67479(18) 0.36257(19) 0.59958(18)
O27_3 O 0.59518(17) 0.28707(18) 0.72158(19)
O28_3 O 0.6281(2) 0.2946(2) 0.55029(18)
O29_3 O 0.56066(18) 0.2269(2) 0.7885(2)
O30_3 O 0.6330(2) 0.14861(18) 0.63071(19)
O31_3 O 0.69015(17) 0.14804(17) 0.70671(17)
W10_3 W 0.842638(10) 0.166326(10) 0.689205(10)
W11_3 W 0.886068(9) 0.263126(11) 0.736549(11)
W12_3 W 0.847028(11) 0.103465(10) 0.800696(11)
P2_3 P 0.78963(6) 0.21037(6) 0.78963(6)
O32_3 O 0.82079(15) 0.17921(15) 0.82079(15)
O33_3 O 0.81691(17) 0.22009(17) 0.74543(17)
O34_3 O 0.89024(17) 0.21003(18) 0.69658(18)
O35_3 O 0.78269(17) 0.13847(17) 0.69879(18)
O36_3 O 0.86062(17) 0.13263(18) 0.74280(16)
O37_3 O 0.82521(18) 0.09958(18) 0.86257(19)
O38_3 O 0.90482(17) 0.22158(19) 0.78707(18)
O39_3 O 0.8719(2) 0.05029(18) 0.7946(2)
O40_3 O 0.93934(18) 0.2885(2) 0.7269(2)
O41_3 O 0.8670(2) 0.13071(19) 0.64861(18)
O42_3 O 0.80985(17) 0.20671(17) 0.64804(17)
O43_3 O 0.77991(17) 0.25457(17) 0.81691(17)
O44_3 O 0.74543(17) 0.18309(17) 0.77991(17)
W13_3 W 0.833674(10) 0.310795(10) 0.842638(10)
W14_3 W 0.736874(11) 0.263451(11) 0.886068(9)
W15_3 W 0.896535(10) 0.199304(11) 0.847028(11)
O45_3 O 0.78997(18) 0.30342(18) 0.89024(17)
O46_3 O 0.86153(17) 0.30121(18) 0.78269(17)
O47_3 O 0.86737(18) 0.25720(16) 0.86062(17)
O48_3 O 0.90042(18) 0.13743(19) 0.82521(18)
O49_3 O 0.77842(19) 0.21293(18) 0.90482(17)
O50_3 O 0.94971(18) 0.2054(2) 0.8719(2)
O51_3 O 0.7115(2) 0.2731(2) 0.93934(18)
O52_3 O 0.86929(19) 0.35139(18) 0.8670(2)
O53_3 O 0.79329(17) 0.35196(17) 0.80985(17)
W16_3 W 0.689205(10) 0.157362(10) 0.833674(10)
W17_3 W 0.736549(11) 0.113932(9) 0.736874(11)
W18_3 W 0.800696(11) 0.152972(11) 0.896535(10)
O54_3 O 0.69658(18) 0.10976(17) 0.78997(18)
O55_3 O 0.69879(18) 0.21731(17) 0.86153(17)
O56_3 O 0.74280(16) 0.13938(17) 0.86737(18)
O57_3 O 0.86257(19) 0.17479(18) 0.90042(18)
O58_3 O 0.78707(18) 0.09518(17) 0.77842(19)
O59_3 O 0.7946(2) 0.1281(2) 0.94971(18)
O60_3 O 0.7269(2) 0.06066(18) 0.7115(2)
O61_3 O 0.64861(18) 0.1330(2) 0.86929(19)
O62_3 O 0.64804(17) 0.19015(17) 0.79329(17)
W1_4 W 0.657362(10) 0.666326(10) 0.810795(10)
W2_4 W 0.613932(9) 0.763126(11) 0.763451(11)
W3_4 W 0.652972(11) 0.603465(10) 0.699304(11)
P1_4 P 0.71037(6) 0.71037(6) 0.71037(6)
O1_4 O 0.67921(15) 0.67921(15) 0.67921(15)
O2_4 O 0.68309(17) 0.72009(17) 0.75457(17)
O3_4 O 0.60976(17) 0.71003(18) 0.80342(18)
O4_4 O 0.71731(17) 0.63847(17) 0.80121(18)
O5_4 O 0.63938(17) 0.63263(18) 0.75720(16)
O6_4 O 0.67479(18) 0.59958(18) 0.63743(19)
O7_4 O 0.59518(17) 0.72158(19) 0.71293(18)
O8_4 O 0.6281(2) 0.55029(18) 0.7054(2)
O9_4 O 0.56066(18) 0.7885(2) 0.7731(2)
O10_4 O 0.6330(2) 0.63071(19) 0.85139(18)
O11_4 O 0.69015(17) 0.70671(17) 0.85196(17)
O12_4 O 0.72009(17) 0.75457(17) 0.68309(17)
O13_4 O 0.75457(17) 0.68309(17) 0.72009(17)
W4_4 W 0.666326(10) 0.810795(10) 0.657362(10)
W5_4 W 0.763126(11) 0.763451(11) 0.613932(9)
W6_4 W 0.603465(10) 0.699304(11) 0.652972(11)
O14_4 O 0.71003(18) 0.80342(18) 0.60976(17)
O15_4 O 0.63847(17) 0.80121(18) 0.71731(17)
O16_4 O 0.63263(18) 0.75720(16) 0.63938(17)
O17_4 O 0.59958(18) 0.63743(19) 0.67479(18)
O18_4 O 0.72158(19) 0.71293(18) 0.59518(17)
O19_4 O 0.55029(18) 0.7054(2) 0.6281(2)
O20_4 O 0.7885(2) 0.7731(2) 0.56066(18)
O21_4 O 0.63071(19) 0.85139(18) 0.6330(2)
O22_4 O 0.70671(17) 0.85196(17) 0.69015(17)
W7_4 W 0.810795(10) 0.657362(10) 0.666326(10)
W8_4 W 0.763451(11) 0.613932(9) 0.763126(11)
W9_4 W 0.699304(11) 0.652972(11) 0.603465(10)
O23_4 O 0.80342(18) 0.60976(17) 0.71003(18)
O24_4 O 0.80121(18) 0.71731(17) 0.63847(17)
O25_4 O 0.75720(16) 0.63938(17) 0.63263(18)
O26_4 O 0.63743(19) 0.67479(18) 0.59958(18)
O27_4 O 0.71293(18) 0.59518(17) 0.72158(19)
O28_4 O 0.7054(2) 0.6281(2) 0.55029(18)
O29_4 O 0.7731(2) 0.56066(18) 0.7885(2)
O30_4 O 0.85139(18) 0.6330(2) 0.63071(19)
O31_4 O 0.85196(17) 0.69015(17) 0.70671(17)
W10_4 W 0.833674(10) 0.842638(10) 0.689205(10)
W11_4 W 0.736874(11) 0.886068(9) 0.736549(11)
W12_4 W 0.896535(10) 0.847028(11) 0.800696(11)
P2_4 P 0.78963(6) 0.78963(6) 0.78963(6)
O32_4 O 0.82079(15) 0.82079(15) 0.82079(15)
O33_4 O 0.77991(17) 0.81691(17) 0.74543(17)
O34_4 O 0.78997(18) 0.89024(17) 0.69658(18)
O35_4 O 0.86153(17) 0.78269(17) 0.69879(18)
O36_4 O 0.86737(18) 0.86062(17) 0.74280(16)
O37_4 O 0.90042(18) 0.82521(18) 0.86257(19)
O38_4 O 0.77842(19) 0.90482(17) 0.78707(18)
O39_4 O 0.94971(18) 0.8719(2) 0.7946(2)
O40_4 O 0.7115(2) 0.93934(18) 0.7269(2)
O41_4 O 0.86929(19) 0.8670(2) 0.64861(18)
O42_4 O 0.79329(17) 0.80985(17) 0.64804(17)
O43_4 O 0.74543(17) 0.77991(17) 0.81691(17)
O44_4 O 0.81691(17) 0.74543(17) 0.77991(17)
W13_4 W 0.689205(10) 0.833674(10) 0.842638(10)
W14_4 W 0.736549(11) 0.736874(11) 0.886068(9)
W15_4 W 0.800696(11) 0.896535(10) 0.847028(11)
O45_4 O 0.69658(18) 0.78997(18) 0.89024(17)
O46_4 O 0.69879(18) 0.86153(17) 0.78269(17)
O47_4 O 0.74280(16) 0.86737(18) 0.86062(17)
O48_4 O 0.86257(19) 0.90042(18) 0.82521(18)
O49_4 O 0.78707(18) 0.77842(19) 0.90482(17)
O50_4 O 0.7946(2) 0.94971(18) 0.8719(2)
O51_4 O 0.7269(2) 0.7115(2) 0.93934(18)
O52_4 O 0.64861(18) 0.86929(19) 0.8670(2)
O53_4 O 0.64804(17) 0.79329(17) 0.80985(17)
W16_4 W 0.842638(10) 0.689205(10) 0.833674(10)
W17_4 W 0.886068(9) 0.736549(11) 0.736874(11)
W18_4 W 0.847028(11) 0.800696(11) 0.896535(10)
O54_4 O 0.89024(17) 0.69658(18) 0.78997(18)
O55_4 O 0.78269(17) 0.69879(18) 0.86153(17)
O56_4 O 0.86062(17) 0.74280(16) 0.86737(18)
O57_4 O 0.82521(18) 0.86257(19) 0.90042(18)
O58_4 O 0.90482(17) 0.78707(18) 0.77842(19)
O59_4 O 0.8719(2) 0.7946(2) 0.94971(18)
O60_4 O 0.93934(18) 0.7269(2) 0.7115(2)
O61_4 O 0.8670(2) 0.64861(18) 0.86929(19)
O62_4 O 0.80985(17) 0.64804(17) 0.79329(17)
W1_5 W 0.333674(10) 0.342638(10) 0.189205(10)
W2_5 W 0.236874(11) 0.386068(9) 0.236549(11)
W3_5 W 0.396535(10) 0.347028(11) 0.300696(11)
P1_5 P 0.28963(6) 0.28963(6) 0.28963(6)
O1_5 O 0.32079(15) 0.32079(15) 0.32079(15)
O2_5 O 0.27991(17) 0.31691(17) 0.24543(17)
O3_5 O 0.28997(18) 0.39024(17) 0.19658(18)
O4_5 O 0.36153(17) 0.28269(17) 0.19879(18)
O5_5 O 0.36737(18) 0.36062(17) 0.24280(16)
O6_5 O 0.40042(18) 0.32521(18) 0.36257(19)
O7_5 O 0.27842(19) 0.40482(17) 0.28707(18)
O8_5 O 0.44971(18) 0.3719(2) 0.2946(2)
O9_5 O 0.2115(2) 0.43934(18) 0.2269(2)
O10_5 O 0.36929(19) 0.3670(2) 0.14861(18)
O11_5 O 0.29329(17) 0.30985(17) 0.14804(17)
O12_5 O 0.24543(17) 0.27991(17) 0.31691(17)
O13_5 O 0.31691(17) 0.24543(17) 0.27991(17)
W4_5 W 0.189205(10) 0.333674(10) 0.342638(10)
W5_5 W 0.236549(11) 0.236874(11) 0.386068(9)
W6_5 W 0.300696(11) 0.396535(10) 0.347028(11)
O14_5 O 0.19658(18) 0.28997(18) 0.39024(17)
O15_5 O 0.19879(18) 0.36153(17) 0.28269(17)
O16_5 O 0.24280(16) 0.36737(18) 0.36062(17)
O17_5 O 0.36257(19) 0.40042(18) 0.32521(18)
O18_5 O 0.28707(18) 0.27842(19) 0.40482(17)
O19_5 O 0.2946(2) 0.44971(18) 0.3719(2)
O20_5 O 0.2269(2) 0.2115(2) 0.43934(18)
O21_5 O 0.14861(18) 0.36929(19) 0.3670(2)
O22_5 O 0.14804(17) 0.29329(17) 0.30985(17)
W7_5 W 0.342638(10) 0.189205(10) 0.333674(10)
W8_5 W 0.386068(9) 0.236549(11) 0.236874(11)
W9_5 W 0.347028(11) 0.300696(11) 0.396535(10)
O23_5 O 0.39024(17) 0.19658(18) 0.28997(18)
O24_5 O 0.28269(17) 0.19879(18) 0.36153(17)
O25_5 O 0.36062(17) 0.24280(16) 0.36737(18)
O26_5 O 0.32521(18) 0.36257(19) 0.40042(18)
O27_5 O 0.40482(17) 0.28707(18) 0.27842(19)
O28_5 O 0.3719(2) 0.2946(2) 0.44971(18)
O29_5 O 0.43934(18) 0.2269(2) 0.2115(2)
O30_5 O 0.3670(2) 0.14861(18) 0.36929(19)
O31_5 O 0.30985(17) 0.14804(17) 0.29329(17)
W10_5 W 0.157362(10) 0.166326(10) 0.310795(10)
W11_5 W 0.113932(9) 0.263126(11) 0.263451(11)
W12_5 W 0.152972(11) 0.103465(10) 0.199304(11)
P2_5 P 0.21037(6) 0.21037(6) 0.21037(6)
O32_5 O 0.17921(15) 0.17921(15) 0.17921(15)
O33_5 O 0.18309(17) 0.22009(17) 0.25457(17)
O34_5 O 0.10976(17) 0.21003(18) 0.30342(18)
O35_5 O 0.21731(17) 0.13847(17) 0.30121(18)
O36_5 O 0.13938(17) 0.13263(18) 0.25720(16)
O37_5 O 0.17479(18) 0.09958(18) 0.13743(19)
O38_5 O 0.09518(17) 0.22158(19) 0.21293(18)
O39_5 O 0.1281(2) 0.05029(18) 0.2054(2)
O40_5 O 0.06066(18) 0.2885(2) 0.2731(2)
O41_5 O 0.1330(2) 0.13071(19) 0.35139(18)
O42_5 O 0.19015(17) 0.20671(17) 0.35196(17)
O43_5 O 0.22009(17) 0.25457(17) 0.18309(17)
O44_5 O 0.25457(17) 0.18309(17) 0.22009(17)
W13_5 W 0.166326(10) 0.310795(10) 0.157362(10)
W14_5 W 0.263126(11) 0.263451(11) 0.113932(9)
W15_5 W 0.103465(10) 0.199304(11) 0.152972(11)
O45_5 O 0.21003(18) 0.30342(18) 0.10976(17)
O46_5 O 0.13847(17) 0.30121(18) 0.21731(17)
O47_5 O 0.13263(18) 0.25720(16) 0.13938(17)
O48_5 O 0.09958(18) 0.13743(19) 0.17479(18)
O49_5 O 0.22158(19) 0.21293(18) 0.09518(17)
O50_5 O 0.05029(18) 0.2054(2) 0.1281(2)
O51_5 O 0.2885(2) 0.2731(2) 0.06066(18)
O52_5 O 0.13071(19) 0.35139(18) 0.1330(2)
O53_5 O 0.20671(17) 0.35196(17) 0.19015(17)
W16_5 W 0.310795(10) 0.157362(10) 0.166326(10)
W17_5 W 0.263451(11) 0.113932(9) 0.263126(11)
W18_5 W 0.199304(11) 0.152972(11) 0.103465(10)
O54_5 O 0.30342(18) 0.10976(17) 0.21003(18)
O55_5 O 0.30121(18) 0.21731(17) 0.13847(17)
O56_5 O 0.25720(16) 0.13938(17) 0.13263(18)
O57_5 O 0.13743(19) 0.17479(18) 0.09958(18)
O58_5 O 0.21293(18) 0.09518(17) 0.22158(19)
O59_5 O 0.2054(2) 0.1281(2) 0.05029(18)
O60_5 O 0.2731(2) 0.06066(18) 0.2885(2)
O61_5 O 0.35139(18) 0.1330(2) 0.13071(19)
O62_5 O 0.35196(17) 0.19015(17) 0.20671(17)
W1_6 W 0.657362(10) 0.333674(10) 0.189205(10)
W2_6 W 0.613932(9) 0.236874(11) 0.236549(11)
W3_6 W 0.652972(11) 0.396535(10) 0.300696(11)
P1_6 P 0.71037(6) 0.28963(6) 0.28963(6)
O1_6 O 0.67921(15) 0.32079(15) 0.32079(15)
O2_6 O 0.68309(17) 0.27991(17) 0.24543(17)
O3_6 O 0.60976(17) 0.28997(18) 0.19658(18)
O4_6 O 0.71731(17) 0.36153(17) 0.19879(18)
O5_6 O 0.63938(17) 0.36737(18) 0.24280(16)
O6_6 O 0.67479(18) 0.40042(18) 0.36257(19)
O7_6 O 0.59518(17) 0.27842(19) 0.28707(18)
O8_6 O 0.6281(2) 0.44971(18) 0.2946(2)
O9_6 O 0.56066(18) 0.2115(2) 0.2269(2)
O10_6 O 0.6330(2) 0.36929(19) 0.14861(18)
O11_6 O 0.69015(17) 0.29329(17) 0.14804(17)
O12_6 O 0.72009(17) 0.24543(17) 0.31691(17)
O13_6 O 0.75457(17) 0.31691(17) 0.27991(17)
W4_6 W 0.666326(10) 0.189205(10) 0.342638(10)
W5_6 W 0.763126(11) 0.236549(11) 0.386068(9)
W6_6 W 0.603465(10) 0.300696(11) 0.347028(11)
O14_6 O 0.71003(18) 0.19658(18) 0.39024(17)
O15_6 O 0.63847(17) 0.19879(18) 0.28269(17)
O16_6 O 0.63263(18) 0.24280(16) 0.36062(17)
O17_6 O 0.59958(18) 0.36257(19) 0.32521(18)
O18_6 O 0.72158(19) 0.28707(18) 0.40482(17)
O19_6 O 0.55029(18) 0.2946(2) 0.3719(2)
O20_6 O 0.7885(2) 0.2269(2) 0.43934(18)
O21_6 O 0.63071(19) 0.14861(18) 0.3670(2)
O22_6 O 0.70671(17) 0.14804(17) 0.30985(17)
W7_6 W 0.810795(10) 0.342638(10) 0.333674(10)
W8_6 W 0.763451(11) 0.386068(9) 0.236874(11)
W9_6 W 0.699304(11) 0.347028(11) 0.396535(10)
O23_6 O 0.80342(18) 0.39024(17) 0.28997(18)
O24_6 O 0.80121(18) 0.28269(17) 0.36153(17)
O25_6 O 0.75720(16) 0.36062(17) 0.36737(18)
O26_6 O 0.63743(19) 0.32521(18) 0.40042(18)
O27_6 O 0.71293(18) 0.40482(17) 0.27842(19)
O28_6 O 0.7054(2) 0.3719(2) 0.44971(18)
O29_6 O 0.7731(2) 0.43934(18) 0.2115(2)
O30_6 O 0.85139(18) 0.3670(2) 0.36929(19)
O31_6 O 0.85196(17) 0.30985(17) 0.29329(17)
W10_6 W 0.833674(10) 0.157362(10) 0.310795(10)
W11_6 W 0.736874(11) 0.113932(9) 0.263451(11)
W12_6 W 0.896535(10) 0.152972(11) 0.199304(11)
P2_6 P 0.78963(6) 0.21037(6) 0.21037(6)
O32_6 O 0.82079(15) 0.17921(15) 0.17921(15)
O33_6 O 0.77991(17) 0.18309(17) 0.25457(17)
O34_6 O 0.78997(18) 0.10976(17) 0.30342(18)
O35_6 O 0.86153(17) 0.21731(17) 0.30121(18)
O36_6 O 0.86737(18) 0.13938(17) 0.25720(16)
O37_6 O 0.90042(18) 0.17479(18) 0.13743(19)
O38_6 O 0.77842(19) 0.09518(17) 0.21293(18)
O39_6 O 0.94971(18) 0.1281(2) 0.2054(2)
O40_6 O 0.7115(2) 0.06066(18) 0.2731(2)
O41_6 O 0.86929(19) 0.1330(2) 0.35139(18)
O42_6 O 0.79329(17) 0.19015(17) 0.35196(17)
O43_6 O 0.74543(17) 0.22009(17) 0.18309(17)
O44_6 O 0.81691(17) 0.25457(17) 0.22009(17)
W13_6 W 0.689205(10) 0.166326(10) 0.157362(10)
W14_6 W 0.736549(11) 0.263126(11) 0.113932(9)
W15_6 W 0.800696(11) 0.103465(10) 0.152972(11)
O45_6 O 0.69658(18) 0.21003(18) 0.10976(17)
O46_6 O 0.69879(18) 0.13847(17) 0.21731(17)
O47_6 O 0.74280(16) 0.13263(18) 0.13938(17)
O48_6 O 0.86257(19) 0.09958(18) 0.17479(18)
O49_6 O 0.78707(18) 0.22158(19) 0.09518(17)
O50_6 O 0.7946(2) 0.05029(18) 0.1281(2)
O51_6 O 0.7269(2) 0.2885(2) 0.06066(18)
O52_6 O 0.64861(18) 0.13071(19) 0.1330(2)
O53_6 O 0.64804(17) 0.20671(17) 0.19015(17)
W16_6 W 0.842638(10) 0.310795(10) 0.166326(10)
W17_6 W 0.886068(9) 0.263451(11) 0.263126(11)
W18_6 W 0.847028(11) 0.199304(11) 0.103465(10)
O54_6 O 0.89024(17) 0.30342(18) 0.21003(18)
O55_6 O 0.78269(17) 0.30121(18) 0.13847(17)
O56_6 O 0.86062(17) 0.25720(16) 0.13263(18)
O57_6 O 0.82521(18) 0.13743(19) 0.09958(18)
O58_6 O 0.90482(17) 0.21293(18) 0.22158(19)
O59_6 O 0.8719(2) 0.2054(2) 0.05029(18)
O60_6 O 0.93934(18) 0.2731(2) 0.2885(2)
O61_6 O 0.8670(2) 0.35139(18) 0.13071(19)
O62_6 O 0.80985(17) 0.35196(17) 0.20671(17)
W1_7 W 0.666326(10) 0.657362(10) 0.189205(10)
W2_7 W 0.763126(11) 0.613932(9) 0.236549(11)
W3_7 W 0.603465(10) 0.652972(11) 0.300696(11)
P1_7 P 0.71037(6) 0.71037(6) 0.28963(6)
O1_7 O 0.67921(15) 0.67921(15) 0.32079(15)
O2_7 O 0.72009(17) 0.68309(17) 0.24543(17)
O3_7 O 0.71003(18) 0.60976(17) 0.19658(18)
O4_7 O 0.63847(17) 0.71731(17) 0.19879(18)
O5_7 O 0.63263(18) 0.63938(17) 0.24280(16)
O6_7 O 0.59958(18) 0.67479(18) 0.36257(19)
O7_7 O 0.72158(19) 0.59518(17) 0.28707(18)
O8_7 O 0.55029(18) 0.6281(2) 0.2946(2)
O9_7 O 0.7885(2) 0.56066(18) 0.2269(2)
O10_7 O 0.63071(19) 0.6330(2) 0.14861(18)
O11_7 O 0.70671(17) 0.69015(17) 0.14804(17)
O12_7 O 0.75457(17) 0.72009(17) 0.31691(17)
O13_7 O 0.68309(17) 0.75457(17) 0.27991(17)
W4_7 W 0.810795(10) 0.666326(10) 0.342638(10)
W5_7 W 0.763451(11) 0.763126(11) 0.386068(9)
W6_7 W 0.699304(11) 0.603465(10) 0.347028(11)
O14_7 O 0.80342(18) 0.71003(18) 0.39024(17)
O15_7 O 0.80121(18) 0.63847(17) 0.28269(17)
O16_7 O 0.75720(16) 0.63263(18) 0.36062(17)
O17_7 O 0.63743(19) 0.59958(18) 0.32521(18)
O18_7 O 0.71293(18) 0.72158(19) 0.40482(17)
O19_7 O 0.7054(2) 0.55029(18) 0.3719(2)
O20_7 O 0.7731(2) 0.7885(2) 0.43934(18)
O21_7 O 0.85139(18) 0.63071(19) 0.3670(2)
O22_7 O 0.85196(17) 0.70671(17) 0.30985(17)
W7_7 W 0.657362(10) 0.810795(10) 0.333674(10)
W8_7 W 0.613932(9) 0.763451(11) 0.236874(11)
W9_7 W 0.652972(11) 0.699304(11) 0.396535(10)
O23_7 O 0.60976(17) 0.80342(18) 0.28997(18)
O24_7 O 0.71731(17) 0.80121(18) 0.36153(17)
O25_7 O 0.63938(17) 0.75720(16) 0.36737(18)
O26_7 O 0.67479(18) 0.63743(19) 0.40042(18)
O27_7 O 0.59518(17) 0.71293(18) 0.27842(19)
O28_7 O 0.6281(2) 0.7054(2) 0.44971(18)
O29_7 O 0.56066(18) 0.7731(2) 0.2115(2)
O30_7 O 0.6330(2) 0.85139(18) 0.36929(19)
O31_7 O 0.69015(17) 0.85196(17) 0.29329(17)
W10_7 W 0.842638(10) 0.833674(10) 0.310795(10)
W11_7 W 0.886068(9) 0.736874(11) 0.263451(11)
W12_7 W 0.847028(11) 0.896535(10) 0.199304(11)
P2_7 P 0.78963(6) 0.78963(6) 0.21037(6)
O32_7 O 0.82079(15) 0.82079(15) 0.17921(15)
O33_7 O 0.81691(17) 0.77991(17) 0.25457(17)
O34_7 O 0.89024(17) 0.78997(18) 0.30342(18)
O35_7 O 0.78269(17) 0.86153(17) 0.30121(18)
O36_7 O 0.86062(17) 0.86737(18) 0.25720(16)
O37_7 O 0.82521(18) 0.90042(18) 0.13743(19)
O38_7 O 0.90482(17) 0.77842(19) 0.21293(18)
O39_7 O 0.8719(2) 0.94971(18) 0.2054(2)
O40_7 O 0.93934(18) 0.7115(2) 0.2731(2)
O41_7 O 0.8670(2) 0.86929(19) 0.35139(18)
O42_7 O 0.80985(17) 0.79329(17) 0.35196(17)
O43_7 O 0.77991(17) 0.74543(17) 0.18309(17)
O44_7 O 0.74543(17) 0.81691(17) 0.22009(17)
W13_7 W 0.833674(10) 0.689205(10) 0.157362(10)
W14_7 W 0.736874(11) 0.736549(11) 0.113932(9)
W15_7 W 0.896535(10) 0.800696(11) 0.152972(11)
O45_7 O 0.78997(18) 0.69658(18) 0.10976(17)
O46_7 O 0.86153(17) 0.69879(18) 0.21731(17)
O47_7 O 0.86737(18) 0.74280(16) 0.13938(17)
O48_7 O 0.90042(18) 0.86257(19) 0.17479(18)
O49_7 O 0.77842(19) 0.78707(18) 0.09518(17)
O50_7 O 0.94971(18) 0.7946(2) 0.1281(2)
O51_7 O 0.7115(2) 0.7269(2) 0.06066(18)
O52_7 O 0.86929(19) 0.64861(18) 0.1330(2)
O53_7 O 0.79329(17) 0.64804(17) 0.19015(17)
W16_7 W 0.689205(10) 0.842638(10) 0.166326(10)
W17_7 W 0.736549(11) 0.886068(9) 0.263126(11)
W18_7 W 0.800696(11) 0.847028(11) 0.103465(10)
O54_7 O 0.69658(18) 0.89024(17) 0.21003(18)
O55_7 O 0.69879(18) 0.78269(17) 0.13847(17)
O56_7 O 0.74280(16) 0.86062(17) 0.13263(18)
O57_7 O 0.86257(19) 0.82521(18) 0.09958(18)
O58_7 O 0.78707(18) 0.90482(17) 0.22158(19)
O59_7 O 0.7946(2) 0.8719(2) 0.05029(18)
O60_7 O 0.7269(2) 0.93934(18) 0.2885(2)
O61_7 O 0.64861(18) 0.8670(2) 0.13071(19)
O62_7 O 0.64804(17) 0.80985(17) 0.20671(17)
W1_8 W 0.342638(10) 0.666326(10) 0.189205(10)
W2_8 W 0.386068(9) 0.763126(11) 0.236549(11)
W3_8 W 0.347028(11) 0.603465(10) 0.300696(11)
P1_8 P 0.28963(6) 0.71037(6) 0.28963(6)
O1_8 O 0.32079(15) 0.67921(15) 0.32079(15)
O2_8 O 0.31691(17) 0.72009(17) 0.24543(17)
O3_8 O 0.39024(17) 0.71003(18) 0.19658(18)
O4_8 O 0.28269(17) 0.63847(17) 0.19879(18)
O5_8 O 0.36062(17) 0.63263(18) 0.24280(16)
O6_8 O 0.32521(18) 0.59958(18) 0.36257(19)
O7_8 O 0.40482(17) 0.72158(19) 0.28707(18)
O8_8 O 0.3719(2) 0.55029(18) 0.2946(2)
O9_8 O 0.43934(18) 0.7885(2) 0.2269(2)
O10_8 O 0.3670(2) 0.63071(19) 0.14861(18)
O11_8 O 0.30985(17) 0.70671(17) 0.14804(17)
O12_8 O 0.27991(17) 0.75457(17) 0.31691(17)
O13_8 O 0.24543(17) 0.68309(17) 0.27991(17)
W4_8 W 0.333674(10) 0.810795(10) 0.342638(10)
W5_8 W 0.236874(11) 0.763451(11) 0.386068(9)
W6_8 W 0.396535(10) 0.699304(11) 0.347028(11)
O14_8 O 0.28997(18) 0.80342(18) 0.39024(17)
O15_8 O 0.36153(17) 0.80121(18) 0.28269(17)
O16_8 O 0.36737(18) 0.75720(16) 0.36062(17)
O17_8 O 0.40042(18) 0.63743(19) 0.32521(18)
O18_8 O 0.27842(19) 0.71293(18) 0.40482(17)
O19_8 O 0.44971(18) 0.7054(2) 0.3719(2)
O20_8 O 0.2115(2) 0.7731(2) 0.43934(18)
O21_8 O 0.36929(19) 0.85139(18) 0.3670(2)
O22_8 O 0.29329(17) 0.85196(17) 0.30985(17)
W7_8 W 0.189205(10) 0.657362(10) 0.333674(10)
W8_8 W 0.236549(11) 0.613932(9) 0.236874(11)
W9_8 W 0.300696(11) 0.652972(11) 0.396535(10)
O23_8 O 0.19658(18) 0.60976(17) 0.28997(18)
O24_8 O 0.19879(18) 0.71731(17) 0.36153(17)
O25_8 O 0.24280(16) 0.63938(17) 0.36737(18)
O26_8 O 0.36257(19) 0.67479(18) 0.40042(18)
O27_8 O 0.28707(18) 0.59518(17) 0.27842(19)
O28_8 O 0.2946(2) 0.6281(2) 0.44971(18)
O29_8 O 0.2269(2) 0.56066(18) 0.2115(2)
O30_8 O 0.14861(18) 0.6330(2) 0.36929(19)
O31_8 O 0.14804(17) 0.69015(17) 0.29329(17)
W10_8 W 0.166326(10) 0.842638(10) 0.310795(10)
W11_8 W 0.263126(11) 0.886068(9) 0.263451(11)
W12_8 W 0.103465(10) 0.847028(11) 0.199304(11)
P2_8 P 0.21037(6) 0.78963(6) 0.21037(6)
O32_8 O 0.17921(15) 0.82079(15) 0.17921(15)
O33_8 O 0.22009(17) 0.81691(17) 0.25457(17)
O34_8 O 0.21003(18) 0.89024(17) 0.30342(18)
O35_8 O 0.13847(17) 0.78269(17) 0.30121(18)
O36_8 O 0.13263(18) 0.86062(17) 0.25720(16)
O37_8 O 0.09958(18) 0.82521(18) 0.13743(19)
O38_8 O 0.22158(19) 0.90482(17) 0.21293(18)
O39_8 O 0.05029(18) 0.8719(2) 0.2054(2)
O40_8 O 0.2885(2) 0.93934(18) 0.2731(2)
O41_8 O 0.13071(19) 0.8670(2) 0.35139(18)
O42_8 O 0.20671(17) 0.80985(17) 0.35196(17)
O43_8 O 0.25457(17) 0.77991(17) 0.18309(17)
O44_8 O 0.18309(17) 0.74543(17) 0.22009(17)
W13_8 W 0.310795(10) 0.833674(10) 0.157362(10)
W14_8 W 0.263451(11) 0.736874(11) 0.113932(9)
W15_8 W 0.199304(11) 0.896535(10) 0.152972(11)
O45_8 O 0.30342(18) 0.78997(18) 0.10976(17)
O46_8 O 0.30121(18) 0.86153(17) 0.21731(17)
O47_8 O 0.25720(16) 0.86737(18) 0.13938(17)
O48_8 O 0.13743(19) 0.90042(18) 0.17479(18)
O49_8 O 0.21293(18) 0.77842(19) 0.09518(17)
O50_8 O 0.2054(2) 0.94971(18) 0.1281(2)
O51_8 O 0.2731(2) 0.7115(2) 0.06066(18)
O52_8 O 0.35139(18) 0.86929(19) 0.1330(2)
O53_8 O 0.35196(17) 0.79329(17) 0.19015(17)
W16_8 W 0.157362(10) 0.689205(10) 0.166326(10)
W17_8 W 0.113932(9) 0.736549(11) 0.263126(11)
W18_8 W 0.152972(11) 0.800696(11) 0.103465(10)
O54_8 O 0.10976(17) 0.69658(18) 0.21003(18)
O55_8 O 0.21731(17) 0.69879(18) 0.13847(17)
O56_8 O 0.13938(17) 0.74280(16) 0.13263(18)
O57_8 O 0.17479(18) 0.86257(19) 0.09958(18)
O58_8 O 0.09518(17) 0.78707(18) 0.22158(19)
O59_8 O 0.1281(2) 0.7946(2) 0.05029(18)
O60_8 O 0.06066(18) 0.7269(2) 0.2885(2)
O61_8 O 0.1330(2) 0.64861(18) 0.13071(19)
O62_8 O 0.19015(17) 0.64804(17) 0.20671(17)
Cu2 Cu -0.0000 0.0000 0.30544(9)
Cu1 Cu 0.5000 0.80544(9) 0.5000
O63 O 0.5000 0.7220(5) 0.5000
O64 O 0.3585(3) 0.9201(3) 0.5472(3)
N1 N 0.4294(2) 0.8070(2) 0.4960(3)
N2 N 0.2939(3) 0.8766(3) 0.5584(3)
H1 H 0.2781 0.8527 0.5504
C1 C 0.4056(3) 0.7754(3) 0.4723(3)
H2 H 0.4215 0.7525 0.4562
C2 C 0.3576(3) 0.7759(3) 0.4710(3)
H3 H 0.3418 0.7529 0.4550
C3 C 0.3340(3) 0.8092(3) 0.4927(3)
H4 H 0.3019 0.8098 0.4917
C4 C 0.3585(3) 0.8429(3) 0.5168(3)
C5 C 0.4055(3) 0.8405(3) 0.5178(3)
H5 H 0.4217 0.8630 0.5342
C6 C 0.3369(3) 0.8831(4) 0.5411(3)
C7 C 0.2746(4) 0.9106(5) 0.5902(4)
H6 H 0.2853 0.9040 0.6213
H7 H 0.2854 0.9412 0.5818
O65 O 0.5000 0.8928(6) 0.5000
O66 O 0.1415(3) 0.9528(3) 0.5799(3)
N4 N 0.2061(3) 0.9416(3) 0.6234(3)
H8 H 0.2219 0.9496 0.6473
C11 C 0.1415(3) 0.9832(3) 0.6571(3)
C12 C 0.0945(3) 0.9822(3) 0.6595(3)
H12 H 0.0783 0.9658 0.6370
C13 C 0.1631(3) 0.9589(3) 0.6169(4)
C14 C 0.2254(4) 0.9098(4) 0.5894(5)
H13 H 0.2147 0.8787 0.5960
H14 H 0.2146 0.9182 0.5588
O67 O 0.6415(3) 0.9201(3) 0.4528(3)
N5 N 0.5706(2) 0.8070(2) 0.5040(3)
N6 N 0.7061(3) 0.8766(3) 0.4416(3)
H15 H 0.7219 0.8527 0.4496
C15 C 0.5944(3) 0.7754(3) 0.5277(3)
H16 H 0.5785 0.7525 0.5438
C16 C 0.6424(3) 0.7759(3) 0.5290(3)
H17 H 0.6582 0.7529 0.5450
C17 C 0.6660(3) 0.8092(3) 0.5073(3)
H18 H 0.6981 0.8098 0.5083
C18 C 0.6415(3) 0.8429(3) 0.4832(3)
C19 C 0.5945(3) 0.8405(3) 0.4822(3)
H19 H 0.5783 0.8630 0.4658
C20 C 0.6631(3) 0.8831(4) 0.4589(3)
C21 C 0.7254(4) 0.9106(5) 0.4098(4)
H20 H 0.7147 0.9040 0.3787
H21 H 0.7146 0.9412 0.4182
O68 O 0.8585(3) 0.9528(3) 0.4201(3)
N8 N 0.7939(3) 0.9416(3) 0.3766(3)
H22 H 0.7781 0.9496 0.3527
C25 C 0.8585(3) 0.9832(3) 0.3429(3)
C26 C 0.9055(3) 0.9822(3) 0.3405(3)
H26 H 0.9217 0.9658 0.3630
C27 C 0.8369(3) 0.9589(3) 0.3831(4)
C28 C 0.7746(4) 0.9098(4) 0.4106(5)
H27 H 0.7853 0.8787 0.4040
H28 H 0.7854 0.9182 0.4412
Cu2_2 Cu 1.0000 1.0000 0.30544(9)
Cu3 Cu 0.0000 1.0000 0.69456(9)
N9 N 0.5040(3) 0.8070(2) 0.4294(2)
N10 N 0.4960(3) 0.8070(2) 0.5706(2)
Cu3_2 Cu 1.0000 0.0000 0.69456(9)
N3 N 0.9960(3) 0.0706(2) 0.6930(2)
C8 C 0.9723(3) 0.0944(3) 0.7246(3)
H9 H 0.9562 0.0785 0.7475
C9 C 0.9710(3) 0.1424(3) 0.7241(3)
H10 H 0.9550 0.1582 0.7471
C10 C 0.9927(3) 0.1660(3) 0.6908(3)
H11 H 0.9917 0.1981 0.6902
N7 N 0.9960(3) 0.9294(2) 0.3070(2)
C22 C 0.9723(3) 0.9056(3) 0.2754(3)
H23 H 0.9562 0.9215 0.2525
C23 C 0.9710(3) 0.8576(3) 0.2759(3)
H24 H 0.9550 0.8418 0.2529
C24 C 0.9927(3) 0.8340(3) 0.3092(3)
H25 H 0.9917 0.8019 0.3098
Cu1_2 Cu 0.5000 0.19456(9) 0.5000
O63_2 O 0.5000 0.2780(5) 0.5000
O64_2 O 0.6415(3) 0.0799(3) 0.5472(3)
N1_2 N 0.5706(2) 0.1930(2) 0.4960(3)
N2_2 N 0.7061(3) 0.1234(3) 0.5584(3)
H1_2 H 0.7219 0.1473 0.5504
C1_2 C 0.5944(3) 0.2246(3) 0.4723(3)
H2_2 H 0.5785 0.2475 0.4562
C2_2 C 0.6424(3) 0.2241(3) 0.4710(3)
H3_2 H 0.6582 0.2471 0.4550
C3_2 C 0.6660(3) 0.1908(3) 0.4927(3)
H4_2 H 0.6981 0.1902 0.4917
C4_2 C 0.6415(3) 0.1571(3) 0.5168(3)
C5_2 C 0.5945(3) 0.1595(3) 0.5178(3)
H5_2 H 0.5783 0.1370 0.5342
C6_2 C 0.6631(3) 0.1169(4) 0.5411(3)
C7_2 C 0.7254(4) 0.0894(5) 0.5902(4)
H6_2 H 0.7147 0.0960 0.6213
H7_2 H 0.7146 0.0588 0.5818
O65_2 O 0.5000 0.1072(6) 0.5000
O66_2 O 0.8585(3) 0.0472(3) 0.5799(3)
N4_2 N 0.7939(3) 0.0584(3) 0.6234(3)
H8_2 H 0.7781 0.0504 0.6473
C11_2 C 0.8585(3) 0.0168(3) 0.6571(3)
C12_2 C 0.9055(3) 0.0178(3) 0.6595(3)
H12_2 H 0.9217 0.0342 0.6370
C13_2 C 0.8369(3) 0.0411(3) 0.6169(4)
C14_2 C 0.7746(4) 0.0902(4) 0.5894(5)
H13_2 H 0.7853 0.1213 0.5960
H14_2 H 0.7854 0.0818 0.5588
O67_2 O 0.3585(3) 0.0799(3) 0.4528(3)
N5_2 N 0.4294(2) 0.1930(2) 0.5040(3)
N6_2 N 0.2939(3) 0.1234(3) 0.4416(3)
H15_2 H 0.2781 0.1473 0.4496
C15_2 C 0.4056(3) 0.2246(3) 0.5277(3)
H16_2 H 0.4215 0.2475 0.5438
C16_2 C 0.3576(3) 0.2241(3) 0.5290(3)
H17_2 H 0.3418 0.2471 0.5450
C17_2 C 0.3340(3) 0.1908(3) 0.5073(3)
H18_2 H 0.3019 0.1902 0.5083
C18_2 C 0.3585(3) 0.1571(3) 0.4832(3)
C19_2 C 0.4055(3) 0.1595(3) 0.4822(3)
H19_2 H 0.4217 0.1370 0.4658
C20_2 C 0.3369(3) 0.1169(4) 0.4589(3)
C21_2 C 0.2746(4) 0.0894(5) 0.4098(4)
H20_2 H 0.2853 0.0960 0.3787
H21_2 H 0.2854 0.0588 0.4182
O68_2 O 0.1415(3) 0.0472(3) 0.4201(3)
N8_2 N 0.2061(3) 0.0584(3) 0.3766(3)
H22_2 H 0.2219 0.0504 0.3527
C25_2 C 0.1415(3) 0.0168(3) 0.3429(3)
C26_2 C 0.0945(3) 0.0178(3) 0.3405(3)
H26_2 H 0.0783 0.0342 0.3630
C27_2 C 0.1631(3) 0.0411(3) 0.3831(4)
C28_2 C 0.2254(4) 0.0902(4) 0.4106(5)
H27_2 H 0.2147 0.1213 0.4040
H28_2 H 0.2146 0.0818 0.4412
N9_2 N 0.4960(3) 0.1930(2) 0.4294(2)
N10_2 N 0.5040(3) 0.1930(2) 0.5706(2)
N3_2 N 0.0040(3) 0.9294(2) 0.6930(2)
C8_2 C 0.0277(3) 0.9056(3) 0.7246(3)
H9_2 H 0.0438 0.9215 0.7475
C9_2 C 0.0290(3) 0.8576(3) 0.7241(3)
H10_2 H 0.0450 0.8418 0.7471
C10_2 C 0.0073(3) 0.8340(3) 0.6908(3)
H11_2 H 0.0083 0.8019 0.6902
N7_2 N 0.0040(3) 0.0706(2) 0.3070(2)
C22_2 C 0.0277(3) 0.0944(3) 0.2754(3)
H23_2 H 0.0438 0.0785 0.2525
C23_2 C 0.0290(3) 0.1424(3) 0.2759(3)
H24_2 H 0.0450 0.1582 0.2529
C24_2 C 0.0073(3) 0.1660(3) 0.3092(3)
H25_2 H 0.0083 0.1981 0.3098
Cu2_3 Cu 0.30544(9) -0.0000 1.0000
N3_3 N 0.6930(2) 0.0706(2) 0.0040(3)
C8_3 C 0.7246(3) 0.0944(3) 0.0277(3)
H9_3 H 0.7475 0.0785 0.0438
C9_3 C 0.7241(3) 0.1424(3) 0.0290(3)
H10_3 H 0.7471 0.1582 0.0450
C10_3 C 0.6908(3) 0.1660(3) 0.0073(3)
H11_3 H 0.6902 0.1981 0.0083
N7_3 N 0.3070(2) 0.9294(2) 0.0040(3)
C22_3 C 0.2754(3) 0.9056(3) 0.0277(3)
H23_3 H 0.2525 0.9215 0.0438
C23_3 C 0.2759(3) 0.8576(3) 0.0290(3)
H24_3 H 0.2529 0.8418 0.0450
C24_3 C 0.3092(3) 0.8340(3) 0.0073(3)
H25_3 H 0.3098 0.8019 0.0083
Cu2_4 Cu 0.30544(9) 1.0000 0.0000
Cu3_3 Cu 0.69456(9) 0.0000 0.0000
Cu3_4 Cu 0.69456(9) 1.0000 1.0000
N3_4 N 0.6930(2) 0.9294(2) 0.9960(3)
C8_4 C 0.7246(3) 0.9056(3) 0.9723(3)
H9_4 H 0.7475 0.9215 0.9562
C9_4 C 0.7241(3) 0.8576(3) 0.9710(3)
H10_4 H 0.7471 0.8418 0.9550
C10_4 C 0.6908(3) 0.8340(3) 0.9927(3)
H11_4 H 0.6902 0.8019 0.9917
N7_4 N 0.3070(2) 0.0706(2) 0.9960(3)
C22_4 C 0.2754(3) 0.0944(3) 0.9723(3)
H23_4 H 0.2525 0.0785 0.9562
C23_4 C 0.2759(3) 0.1424(3) 0.9710(3)
H24_4 H 0.2529 0.1582 0.9550
C24_4 C 0.3092(3) 0.1660(3) 0.9927(3)
H25_4 H 0.3098 0.1981 0.9917
O64_3 O 0.4528(3) 0.0799(3) 0.6415(3)
N2_3 N 0.4416(3) 0.1234(3) 0.7061(3)
H1_3 H 0.4496 0.1473 0.7219
C1_3 C 0.5277(3) 0.2246(3) 0.5944(3)
H2_3 H 0.5438 0.2475 0.5785
C2_3 C 0.5290(3) 0.2241(3) 0.6424(3)
H3_3 H 0.5450 0.2471 0.6582
C3_3 C 0.5073(3) 0.1908(3) 0.6660(3)
H4_3 H 0.5083 0.1902 0.6981
C4_3 C 0.4832(3) 0.1571(3) 0.6415(3)
C5_3 C 0.4822(3) 0.1595(3) 0.5945(3)
H5_3 H 0.4658 0.1370 0.5783
C6_3 C 0.4589(3) 0.1169(4) 0.6631(3)
C7_3 C 0.4098(4) 0.0894(5) 0.7254(4)
H6_3 H 0.3787 0.0960 0.7147
H7_3 H 0.4182 0.0588 0.7146
O66_3 O 0.4201(3) 0.0472(3) 0.8585(3)
N4_3 N 0.3766(3) 0.0584(3) 0.7939(3)
H8_3 H 0.3527 0.0504 0.7781
C11_3 C 0.3429(3) 0.0168(3) 0.8585(3)
C12_3 C 0.3405(3) 0.0178(3) 0.9055(3)
H12_3 H 0.3630 0.0342 0.9217
C13_3 C 0.3831(4) 0.0411(3) 0.8369(3)
C14_3 C 0.4106(5) 0.0902(4) 0.7746(4)
H13_3 H 0.4040 0.1213 0.7853
H14_3 H 0.4412 0.0818 0.7854
O67_3 O 0.5472(3) 0.0799(3) 0.3585(3)
N6_3 N 0.5584(3) 0.1234(3) 0.2939(3)
H15_3 H 0.5504 0.1473 0.2781
C15_3 C 0.4723(3) 0.2246(3) 0.4056(3)
H16_3 H 0.4562 0.2475 0.4215
C16_3 C 0.4710(3) 0.2241(3) 0.3576(3)
H17_3 H 0.4550 0.2471 0.3418
C17_3 C 0.4927(3) 0.1908(3) 0.3340(3)
H18_3 H 0.4917 0.1902 0.3019
C18_3 C 0.5168(3) 0.1571(3) 0.3585(3)
C19_3 C 0.5178(3) 0.1595(3) 0.4055(3)
H19_3 H 0.5342 0.1370 0.4217
C20_3 C 0.5411(3) 0.1169(4) 0.3369(3)
C21_3 C 0.5902(4) 0.0894(5) 0.2746(4)
H20_3 H 0.6213 0.0960 0.2853
H21_3 H 0.5818 0.0588 0.2854
O68_3 O 0.5799(3) 0.0472(3) 0.1415(3)
N8_3 N 0.6234(3) 0.0584(3) 0.2061(3)
H22_3 H 0.6473 0.0504 0.2219
C25_3 C 0.6571(3) 0.0168(3) 0.1415(3)
C26_3 C 0.6595(3) 0.0178(3) 0.0945(3)
H26_3 H 0.6370 0.0342 0.0783
C27_3 C 0.6169(4) 0.0411(3) 0.1631(3)
C28_3 C 0.5894(5) 0.0902(4) 0.2254(4)
H27_3 H 0.5960 0.1213 0.2147
H28_3 H 0.5588 0.0818 0.2146
O64_4 O 0.4528(3) 0.9201(3) 0.3585(3)
N2_4 N 0.4416(3) 0.8766(3) 0.2939(3)
H1_4 H 0.4496 0.8527 0.2781
C1_4 C 0.5277(3) 0.7754(3) 0.4056(3)
H2_4 H 0.5438 0.7525 0.4215
C2_4 C 0.5290(3) 0.7759(3) 0.3576(3)
H3_4 H 0.5450 0.7529 0.3418
C3_4 C 0.5073(3) 0.8092(3) 0.3340(3)
H4_4 H 0.5083 0.8098 0.3019
C4_4 C 0.4832(3) 0.8429(3) 0.3585(3)
C5_4 C 0.4822(3) 0.8405(3) 0.4055(3)
H5_4 H 0.4658 0.8630 0.4217
C6_4 C 0.4589(3) 0.8831(4) 0.3369(3)
C7_4 C 0.4098(4) 0.9106(5) 0.2746(4)
H6_4 H 0.3787 0.9040 0.2853
H7_4 H 0.4182 0.9412 0.2854
O66_4 O 0.4201(3) 0.9528(3) 0.1415(3)
N4_4 N 0.3766(3) 0.9416(3) 0.2061(3)
H8_4 H 0.3527 0.9496 0.2219
C11_4 C 0.3429(3) 0.9832(3) 0.1415(3)
C12_4 C 0.3405(3) 0.9822(3) 0.0945(3)
H12_4 H 0.3630 0.9658 0.0783
C13_4 C 0.3831(4) 0.9589(3) 0.1631(3)
C14_4 C 0.4106(5) 0.9098(4) 0.2254(4)
H13_4 H 0.4040 0.8787 0.2147
H14_4 H 0.4412 0.9182 0.2146
O67_4 O 0.5472(3) 0.9201(3) 0.6415(3)
N6_4 N 0.5584(3) 0.8766(3) 0.7061(3)
H15_4 H 0.5504 0.8527 0.7219
C15_4 C 0.4723(3) 0.7754(3) 0.5944(3)
H16_4 H 0.4562 0.7525 0.5785
C16_4 C 0.4710(3) 0.7759(3) 0.6424(3)
H17_4 H 0.4550 0.7529 0.6582
C17_4 C 0.4927(3) 0.8092(3) 0.6660(3)
H18_4 H 0.4917 0.8098 0.6981
C18_4 C 0.5168(3) 0.8429(3) 0.6415(3)
C19_4 C 0.5178(3) 0.8405(3) 0.5945(3)
H19_4 H 0.5342 0.8630 0.5783
C20_4 C 0.5411(3) 0.8831(4) 0.6631(3)
C21_4 C 0.5902(4) 0.9106(5) 0.7254(4)
H20_4 H 0.6213 0.9040 0.7147
H21_4 H 0.5818 0.9412 0.7146
O68_4 O 0.5799(3) 0.9528(3) 0.8585(3)
N8_4 N 0.6234(3) 0.9416(3) 0.7939(3)
H22_4 H 0.6473 0.9496 0.7781
C25_4 C 0.6571(3) 0.9832(3) 0.8585(3)
C26_4 C 0.6595(3) 0.9822(3) 0.9055(3)
H26_4 H 0.6370 0.9658 0.9217
C27_4 C 0.6169(4) 0.9589(3) 0.8369(3)
C28_4 C 0.5894(5) 0.9098(4) 0.7746(4)
H27_4 H 0.5960 0.8787 0.7853
H28_4 H 0.5588 0.9182 0.7854
O63_3 O 0.7780(5) 0.0000 0.0000
O65_3 O 0.6072(6) 0.0000 0.0000
H30 H 0.595749 0.0323364 0.00183209
H32 H 0.789451 0.0323364 0.00183209
O63_4 O 0.7780(5) 1.0000 1.0000
O65_4 O 0.6072(6) 1.0000 1.0000
H31 H 0.789451 0.985418 0.97108
O63_5 O 0.2220(5) -0.0000 1.0000
O65_5 O 0.3928(6) -0.0000 1.0000
H31_2 H 0.210549 0.0145816 0.97108
O63_6 O 0.2220(5) 1.0000 0.0000
O65_6 O 0.3928(6) 1.0000 0.0000
H30_2 H 0.404251 0.967664 0.00183209
H32_2 H 0.210549 0.967664 0.00183209
H30_3 H 0.404251 0.0323364 0.998168
H32_3 H 0.210549 0.0323364 0.998168
H31_3 H 0.210549 0.985418 0.0289202
H31_4 H 0.789451 0.0145816 0.0289202
H30_4 H 0.595749 0.967664 0.998168
H32_4 H 0.789451 0.967664 0.998168
O63_7 O 0.0000 0.0000 0.2220(5)
O65_7 O -0.0000 0.0000 0.3928(6)
H30_5 H 0.00183209 0.0323364 0.404251
H32_5 H 0.00183209 0.0323364 0.210549
O63_8 O 1.0000 1.0000 0.2220(5)
O65_8 O 1.0000 1.0000 0.3928(6)
H31_5 H 0.97108 0.985418 0.210549
H29 H 0.0177549 0.0270881 0.404251
H31_6 H 0.0289202 0.0145816 0.210549
H30_6 H 0.998168 0.967664 0.404251
H32_6 H 0.998168 0.967664 0.210549
H29_2 H 0.982245 0.972912 0.404251
O63_9 O 0.0000 1.0000 0.7780(5)
O65_9 O 0.0000 1.0000 0.6072(6)
H30_7 H 0.00183209 0.967664 0.595749
H32_7 H 0.00183209 0.967664 0.789451
O63_10 O 1.0000 -0.0000 0.7780(5)
O65_10 O 1.0000 -0.0000 0.6072(6)
H31_7 H 0.97108 0.0145816 0.789451
H29_3 H 0.982245 0.0270881 0.595749
H31_8 H 0.0289202 0.985418 0.789451
H30_8 H 0.998168 0.0323364 0.595749
H32_8 H 0.998168 0.0323364 0.789451
H29_4 H 0.0177549 0.972912 0.595749
H29_5 H 0.404251 0.0270881 0.982245
H29_6 H 0.404251 0.972912 0.0177549
H29_7 H 0.595749 0.972912 0.982245
H29_8 H 0.595749 0.0270881 0.0177549
Cu2_5 Cu -0.0000 1.0000 0.30544(9)
N3_5 N 0.0706(2) 0.0040(3) 0.6930(2)
C8_5 C 0.0944(3) 0.0277(3) 0.7246(3)
H9_5 H 0.0785 0.0438 0.7475
C9_5 C 0.1424(3) 0.0290(3) 0.7241(3)
H10_5 H 0.1582 0.0450 0.7471
C10_5 C 0.1660(3) 0.0073(3) 0.6908(3)
H11_5 H 0.1981 0.0083 0.6902
N7_5 N 0.9294(2) 0.0040(3) 0.3070(2)
C22_5 C 0.9056(3) 0.0277(3) 0.2754(3)
H23_5 H 0.9215 0.0438 0.2525
C23_5 C 0.8576(3) 0.0290(3) 0.2759(3)
H24_5 H 0.8418 0.0450 0.2529
C24_5 C 0.8340(3) 0.0073(3) 0.3092(3)
H25_5 H 0.8019 0.0083 0.3098
Cu2_6 Cu 1.0000 0.0000 0.30544(9)
Cu3_5 Cu 0.0000 0.0000 0.69456(9)
Cu3_6 Cu 1.0000 1.0000 0.69456(9)
Cu1_3 Cu 0.19456(9) 0.5000 0.5000
O63_11 O 0.2780(5) 0.5000 0.5000
O64_5 O 0.0799(3) 0.3585(3) 0.5472(3)
N1_3 N 0.1930(2) 0.4294(2) 0.4960(3)
N2_5 N 0.1234(3) 0.2939(3) 0.5584(3)
H1_5 H 0.1473 0.2781 0.5504
C1_5 C 0.2246(3) 0.4056(3) 0.4723(3)
H2_5 H 0.2475 0.4215 0.4562
C2_5 C 0.2241(3) 0.3576(3) 0.4710(3)
H3_5 H 0.2471 0.3418 0.4550
C3_5 C 0.1908(3) 0.3340(3) 0.4927(3)
H4_5 H 0.1902 0.3019 0.4917
C4_5 C 0.1571(3) 0.3585(3) 0.5168(3)
C5_5 C 0.1595(3) 0.4055(3) 0.5178(3)
H5_5 H 0.1370 0.4217 0.5342
C6_5 C 0.1169(4) 0.3369(3) 0.5411(3)
C7_5 C 0.0894(5) 0.2746(4) 0.5902(4)
H6_5 H 0.0960 0.2853 0.6213
H7_5 H 0.0588 0.2854 0.5818
O65_11 O 0.1072(6) 0.5000 0.5000
O66_5 O 0.0472(3) 0.1415(3) 0.5799(3)
N4_5 N 0.0584(3) 0.2061(3) 0.6234(3)
H8_5 H 0.0504 0.2219 0.6473
C11_5 C 0.0168(3) 0.1415(3) 0.6571(3)
C12_5 C 0.0178(3) 0.0945(3) 0.6595(3)
H12_5 H 0.0342 0.0783 0.6370
C13_5 C 0.0411(3) 0.1631(3) 0.6169(4)
C14_5 C 0.0902(4) 0.2254(4) 0.5894(5)
H13_5 H 0.1213 0.2147 0.5960
H14_5 H 0.0818 0.2146 0.5588
O67_5 O 0.0799(3) 0.6415(3) 0.4528(3)
N5_3 N 0.1930(2) 0.5706(2) 0.5040(3)
N6_5 N 0.1234(3) 0.7061(3) 0.4416(3)
H15_5 H 0.1473 0.7219 0.4496
C15_5 C 0.2246(3) 0.5944(3) 0.5277(3)
H16_5 H 0.2475 0.5785 0.5438
C16_5 C 0.2241(3) 0.6424(3) 0.5290(3)
H17_5 H 0.2471 0.6582 0.5450
C17_5 C 0.1908(3) 0.6660(3) 0.5073(3)
H18_5 H 0.1902 0.6981 0.5083
C18_5 C 0.1571(3) 0.6415(3) 0.4832(3)
C19_5 C 0.1595(3) 0.5945(3) 0.4822(3)
H19_5 H 0.1370 0.5783 0.4658
C20_5 C 0.1169(4) 0.6631(3) 0.4589(3)
C21_5 C 0.0894(5) 0.7254(4) 0.4098(4)
H20_5 H 0.0960 0.7147 0.3787
H21_5 H 0.0588 0.7146 0.4182
O68_5 O 0.0472(3) 0.8585(3) 0.4201(3)
N8_5 N 0.0584(3) 0.7939(3) 0.3766(3)
H22_5 H 0.0504 0.7781 0.3527
C25_5 C 0.0168(3) 0.8585(3) 0.3429(3)
C26_5 C 0.0178(3) 0.9055(3) 0.3405(3)
H26_5 H 0.0342 0.9217 0.3630
C27_5 C 0.0411(3) 0.8369(3) 0.3831(4)
C28_5 C 0.0902(4) 0.7746(4) 0.4106(5)
H27_5 H 0.1213 0.7853 0.4040
H28_5 H 0.0818 0.7854 0.4412
N9_3 N 0.1930(2) 0.5040(3) 0.4294(2)
N10_3 N 0.1930(2) 0.4960(3) 0.5706(2)
N3_6 N 0.9294(2) 0.9960(3) 0.6930(2)
C8_6 C 0.9056(3) 0.9723(3) 0.7246(3)
H9_6 H 0.9215 0.9562 0.7475
C9_6 C 0.8576(3) 0.9710(3) 0.7241(3)
H10_6 H 0.8418 0.9550 0.7471
C10_6 C 0.8340(3) 0.9927(3) 0.6908(3)
H11_6 H 0.8019 0.9917 0.6902
N7_6 N 0.0706(2) 0.9960(3) 0.3070(2)
C22_6 C 0.0944(3) 0.9723(3) 0.2754(3)
H23_6 H 0.0785 0.9562 0.2525
C23_6 C 0.1424(3) 0.9710(3) 0.2759(3)
H24_6 H 0.1582 0.9550 0.2529
C24_6 C 0.1660(3) 0.9927(3) 0.3092(3)
H25_6 H 0.1981 0.9917 0.3098
Cu1_4 Cu 0.80544(9) 0.5000 0.5000
O63_12 O 0.7220(5) 0.5000 0.5000
O64_6 O 0.9201(3) 0.6415(3) 0.5472(3)
N1_4 N 0.8070(2) 0.5706(2) 0.4960(3)
N2_6 N 0.8766(3) 0.7061(3) 0.5584(3)
H1_6 H 0.8527 0.7219 0.5504
C1_6 C 0.7754(3) 0.5944(3) 0.4723(3)
H2_6 H 0.7525 0.5785 0.4562
C2_6 C 0.7759(3) 0.6424(3) 0.4710(3)
H3_6 H 0.7529 0.6582 0.4550
C3_6 C 0.8092(3) 0.6660(3) 0.4927(3)
H4_6 H 0.8098 0.6981 0.4917
C4_6 C 0.8429(3) 0.6415(3) 0.5168(3)
C5_6 C 0.8405(3) 0.5945(3) 0.5178(3)
H5_6 H 0.8630 0.5783 0.5342
C6_6 C 0.8831(4) 0.6631(3) 0.5411(3)
C7_6 C 0.9106(5) 0.7254(4) 0.5902(4)
H6_6 H 0.9040 0.7147 0.6213
H7_6 H 0.9412 0.7146 0.5818
O65_12 O 0.8928(6) 0.5000 0.5000
O66_6 O 0.9528(3) 0.8585(3) 0.5799(3)
N4_6 N 0.9416(3) 0.7939(3) 0.6234(3)
H8_6 H 0.9496 0.7781 0.6473
C11_6 C 0.9832(3) 0.8585(3) 0.6571(3)
C12_6 C 0.9822(3) 0.9055(3) 0.6595(3)
H12_6 H 0.9658 0.9217 0.6370
C13_6 C 0.9589(3) 0.8369(3) 0.6169(4)
C14_6 C 0.9098(4) 0.7746(4) 0.5894(5)
H13_6 H 0.8787 0.7853 0.5960
H14_6 H 0.9182 0.7854 0.5588
O67_6 O 0.9201(3) 0.3585(3) 0.4528(3)
N5_4 N 0.8070(2) 0.4294(2) 0.5040(3)
N6_6 N 0.8766(3) 0.2939(3) 0.4416(3)
H15_6 H 0.8527 0.2781 0.4496
C15_6 C 0.7754(3) 0.4056(3) 0.5277(3)
H16_6 H 0.7525 0.4215 0.5438
C16_6 C 0.7759(3) 0.3576(3) 0.5290(3)
H17_6 H 0.7529 0.3418 0.5450
C17_6 C 0.8092(3) 0.3340(3) 0.5073(3)
H18_6 H 0.8098 0.3019 0.5083
C18_6 C 0.8429(3) 0.3585(3) 0.4832(3)
C19_6 C 0.8405(3) 0.4055(3) 0.4822(3)
H19_6 H 0.8630 0.4217 0.4658
C20_6 C 0.8831(4) 0.3369(3) 0.4589(3)
C21_6 C 0.9106(5) 0.2746(4) 0.4098(4)
H20_6 H 0.9040 0.2853 0.3787
H21_6 H 0.9412 0.2854 0.4182
O68_6 O 0.9528(3) 0.1415(3) 0.4201(3)
N8_6 N 0.9416(3) 0.2061(3) 0.3766(3)
H22_6 H 0.9496 0.2219 0.3527
C25_6 C 0.9832(3) 0.1415(3) 0.3429(3)
C26_6 C 0.9822(3) 0.0945(3) 0.3405(3)
H26_6 H 0.9658 0.0783 0.3630
C27_6 C 0.9589(3) 0.1631(3) 0.3831(4)
C28_6 C 0.9098(4) 0.2254(4) 0.4106(5)
H27_6 H 0.8787 0.2147 0.4040
H28_6 H 0.9182 0.2146 0.4412
N9_4 N 0.8070(2) 0.4960(3) 0.4294(2)
N10_4 N 0.8070(2) 0.5040(3) 0.5706(2)
Cu3_7 Cu 0.0000 0.69456(9) 1.0000
N3_7 N 0.9294(2) 0.6930(2) 0.0040(3)
C8_7 C 0.9056(3) 0.7246(3) 0.0277(3)
H9_7 H 0.9215 0.7475 0.0438
C9_7 C 0.8576(3) 0.7241(3) 0.0290(3)
H10_7 H 0.8418 0.7471 0.0450
C10_7 C 0.8340(3) 0.6908(3) 0.0073(3)
H11_7 H 0.8019 0.6902 0.0083
N7_7 N 0.0706(2) 0.3070(2) 0.0040(3)
C22_7 C 0.0944(3) 0.2754(3) 0.0277(3)
H23_7 H 0.0785 0.2525 0.0438
C23_7 C 0.1424(3) 0.2759(3) 0.0290(3)
H24_7 H 0.1582 0.2529 0.0450
C24_7 C 0.1660(3) 0.3092(3) 0.0073(3)
H25_7 H 0.1981 0.3098 0.0083
Cu2_7 Cu 0.0000 0.30544(9) 0.0000
Cu3_8 Cu 1.0000 0.69456(9) 0.0000
Cu2_8 Cu 1.0000 0.30544(9) 1.0000
N3_8 N 0.0706(2) 0.6930(2) 0.9960(3)
C8_8 C 0.0944(3) 0.7246(3) 0.9723(3)
H9_8 H 0.0785 0.7475 0.9562
C9_8 C 0.1424(3) 0.7241(3) 0.9710(3)
H10_8 H 0.1582 0.7471 0.9550
C10_8 C 0.1660(3) 0.6908(3) 0.9927(3)
H11_8 H 0.1981 0.6902 0.9917
N7_8 N 0.9294(2) 0.3070(2) 0.9960(3)
C22_8 C 0.9056(3) 0.2754(3) 0.9723(3)
H23_8 H 0.9215 0.2525 0.9562
C23_8 C 0.8576(3) 0.2759(3) 0.9710(3)
H24_8 H 0.8418 0.2529 0.9550
C24_8 C 0.8340(3) 0.3092(3) 0.9927(3)
H25_8 H 0.8019 0.3098 0.9917
O64_7 O 0.9201(3) 0.5472(3) 0.3585(3)
N2_7 N 0.8766(3) 0.5584(3) 0.2939(3)
H1_7 H 0.8527 0.5504 0.2781
C1_7 C 0.7754(3) 0.4723(3) 0.4056(3)
H2_7 H 0.7525 0.4562 0.4215
C2_7 C 0.7759(3) 0.4710(3) 0.3576(3)
H3_7 H 0.7529 0.4550 0.3418
C3_7 C 0.8092(3) 0.4927(3) 0.3340(3)
H4_7 H 0.8098 0.4917 0.3019
C4_7 C 0.8429(3) 0.5168(3) 0.3585(3)
C5_7 C 0.8405(3) 0.5178(3) 0.4055(3)
H5_7 H 0.8630 0.5342 0.4217
C6_7 C 0.8831(4) 0.5411(3) 0.3369(3)
C7_7 C 0.9106(5) 0.5902(4) 0.2746(4)
H6_7 H 0.9040 0.6213 0.2853
H7_7 H 0.9412 0.5818 0.2854
O66_7 O 0.9528(3) 0.5799(3) 0.1415(3)
N4_7 N 0.9416(3) 0.6234(3) 0.2061(3)
H8_7 H 0.9496 0.6473 0.2219
C11_7 C 0.9832(3) 0.6571(3) 0.1415(3)
C12_7 C 0.9822(3) 0.6595(3) 0.0945(3)
H12_7 H 0.9658 0.6370 0.0783
C13_7 C 0.9589(3) 0.6169(4) 0.1631(3)
C14_7 C 0.9098(4) 0.5894(5) 0.2254(4)
H13_7 H 0.8787 0.5960 0.2147
H14_7 H 0.9182 0.5588 0.2146
O67_7 O 0.9201(3) 0.4528(3) 0.6415(3)
N6_7 N 0.8766(3) 0.4416(3) 0.7061(3)
H15_7 H 0.8527 0.4496 0.7219
C15_7 C 0.7754(3) 0.5277(3) 0.5944(3)
H16_7 H 0.7525 0.5438 0.5785
C16_7 C 0.7759(3) 0.5290(3) 0.6424(3)
H17_7 H 0.7529 0.5450 0.6582
C17_7 C 0.8092(3) 0.5073(3) 0.6660(3)
H18_7 H 0.8098 0.5083 0.6981
C18_7 C 0.8429(3) 0.4832(3) 0.6415(3)
C19_7 C 0.8405(3) 0.4822(3) 0.5945(3)
H19_7 H 0.8630 0.4658 0.5783
C20_7 C 0.8831(4) 0.4589(3) 0.6631(3)
C21_7 C 0.9106(5) 0.4098(4) 0.7254(4)
H20_7 H 0.9040 0.3787 0.7147
H21_7 H 0.9412 0.4182 0.7146
O68_7 O 0.9528(3) 0.4201(3) 0.8585(3)
N8_7 N 0.9416(3) 0.3766(3) 0.7939(3)
H22_7 H 0.9496 0.3527 0.7781
C25_7 C 0.9832(3) 0.3429(3) 0.8585(3)
C26_7 C 0.9822(3) 0.3405(3) 0.9055(3)
H26_7 H 0.9658 0.3630 0.9217
C27_7 C 0.9589(3) 0.3831(4) 0.8369(3)
C28_7 C 0.9098(4) 0.4106(5) 0.7746(4)
H27_7 H 0.8787 0.4040 0.7853
H28_7 H 0.9182 0.4412 0.7854
O64_8 O 0.0799(3) 0.4528(3) 0.3585(3)
N2_8 N 0.1234(3) 0.4416(3) 0.2939(3)
H1_8 H 0.1473 0.4496 0.2781
C1_8 C 0.2246(3) 0.5277(3) 0.4056(3)
H2_8 H 0.2475 0.5438 0.4215
C2_8 C 0.2241(3) 0.5290(3) 0.3576(3)
H3_8 H 0.2471 0.5450 0.3418
C3_8 C 0.1908(3) 0.5073(3) 0.3340(3)
H4_8 H 0.1902 0.5083 0.3019
C4_8 C 0.1571(3) 0.4832(3) 0.3585(3)
C5_8 C 0.1595(3) 0.4822(3) 0.4055(3)
H5_8 H 0.1370 0.4658 0.4217
C6_8 C 0.1169(4) 0.4589(3) 0.3369(3)
C7_8 C 0.0894(5) 0.4098(4) 0.2746(4)
H6_8 H 0.0960 0.3787 0.2853
H7_8 H 0.0588 0.4182 0.2854
O66_8 O 0.0472(3) 0.4201(3) 0.1415(3)
N4_8 N 0.0584(3) 0.3766(3) 0.2061(3)
H8_8 H 0.0504 0.3527 0.2219
C11_8 C 0.0168(3) 0.3429(3) 0.1415(3)
C12_8 C 0.0178(3) 0.3405(3) 0.0945(3)
H12_8 H 0.0342 0.3630 0.0783
C13_8 C 0.0411(3) 0.3831(4) 0.1631(3)
C14_8 C 0.0902(4) 0.4106(5) 0.2254(4)
H13_8 H 0.1213 0.4040 0.2147
H14_8 H 0.0818 0.4412 0.2146
O67_8 O 0.0799(3) 0.5472(3) 0.6415(3)
N6_8 N 0.1234(3) 0.5584(3) 0.7061(3)
H15_8 H 0.1473 0.5504 0.7219
C15_8 C 0.2246(3) 0.4723(3) 0.5944(3)
H16_8 H 0.2475 0.4562 0.5785
C16_8 C 0.2241(3) 0.4710(3) 0.6424(3)
H17_8 H 0.2471 0.4550 0.6582
C17_8 C 0.1908(3) 0.4927(3) 0.6660(3)
H18_8 H 0.1902 0.4917 0.6981
C18_8 C 0.1571(3) 0.5168(3) 0.6415(3)
C19_8 C 0.1595(3) 0.5178(3) 0.5945(3)
H19_8 H 0.1370 0.5342 0.5783
C20_8 C 0.1169(4) 0.5411(3) 0.6631(3)
C21_8 C 0.0894(5) 0.5902(4) 0.7254(4)
H20_8 H 0.0960 0.6213 0.7147
H21_8 H 0.0588 0.5818 0.7146
O68_8 O 0.0472(3) 0.5799(3) 0.8585(3)
N8_8 N 0.0584(3) 0.6234(3) 0.7939(3)
H22_8 H 0.0504 0.6473 0.7781
C25_8 C 0.0168(3) 0.6571(3) 0.8585(3)
C26_8 C 0.0178(3) 0.6595(3) 0.9055(3)
H26_8 H 0.0342 0.6370 0.9217
C27_8 C 0.0411(3) 0.6169(4) 0.8369(3)
C28_8 C 0.0902(4) 0.5894(5) 0.7746(4)
H27_8 H 0.1213 0.5960 0.7853
H28_8 H 0.0818 0.5588 0.7854
O63_13 O 0.0000 0.2220(5) 0.0000
O65_13 O 0.0000 0.3928(6) 0.0000
H30_9 H 0.0323364 0.404251 0.00183209
H32_9 H 0.0323364 0.210549 0.00183209
O63_14 O 1.0000 0.2220(5) 1.0000
O65_14 O 1.0000 0.3928(6) 1.0000
H31_9 H 0.985418 0.210549 0.97108
O63_15 O -0.0000 0.7780(5) 1.0000
O65_15 O -0.0000 0.6072(6) 1.0000
H31_10 H 0.0145816 0.789451 0.97108
O63_16 O 1.0000 0.7780(5) 0.0000
O65_16 O 1.0000 0.6072(6) 0.0000
H30_10 H 0.967664 0.595749 0.00183209
H32_10 H 0.967664 0.789451 0.00183209
H30_11 H 0.0323364 0.595749 0.998168
H32_11 H 0.0323364 0.789451 0.998168
H31_11 H 0.985418 0.789451 0.0289202
H31_12 H 0.0145816 0.210549 0.0289202
H30_12 H 0.967664 0.404251 0.998168
H32_12 H 0.967664 0.210549 0.998168
O63_17 O 0.0000 1.0000 0.2220(5)
O65_17 O 0.0000 1.0000 0.3928(6)
H29_9 H 0.0270881 0.982245 0.404251
O63_18 O 1.0000 0.0000 0.2220(5)
O65_18 O 1.0000 0.0000 0.3928(6)
H31_13 H 0.0145816 0.97108 0.210549
H30_13 H 0.967664 0.00183209 0.404251
H32_13 H 0.967664 0.00183209 0.210549
H29_10 H 0.972912 0.0177549 0.404251
H30_14 H 0.0323364 0.998168 0.404251
H32_14 H 0.0323364 0.998168 0.210549
H31_14 H 0.985418 0.0289202 0.210549
O63_19 O 0.0000 -0.0000 0.7780(5)
O65_19 O 0.0000 -0.0000 0.6072(6)
H29_11 H 0.0270881 0.0177549 0.595749
O63_20 O 1.0000 1.0000 0.7780(5)
O65_20 O 1.0000 1.0000 0.6072(6)
H30_15 H 0.0323364 0.00183209 0.595749
H32_15 H 0.0323364 0.00183209 0.789451
H31_15 H 0.985418 0.97108 0.789451
H29_12 H 0.972912 0.982245 0.595749
H31_16 H 0.0145816 0.0289202 0.789451
H30_16 H 0.967664 0.998168 0.595749
H32_16 H 0.967664 0.998168 0.789451
H29_13 H 0.972912 0.595749 0.0177549
H29_14 H 0.972912 0.404251 0.982245
H29_15 H 0.0270881 0.404251 0.0177549
H29_16 H 0.0270881 0.595749 0.982245
Cu2_9 Cu 0.30544(9) -0.0000 0.0000
Cu1_5 Cu 0.5000 0.5000 0.80544(9)
O63_21 O 0.5000 0.5000 0.7220(5)
O64_9 O 0.5472(3) 0.3585(3) 0.9201(3)
N1_5 N 0.4960(3) 0.4294(2) 0.8070(2)
N2_9 N 0.5584(3) 0.2939(3) 0.8766(3)
H1_9 H 0.5504 0.2781 0.8527
C1_9 C 0.4723(3) 0.4056(3) 0.7754(3)
H2_9 H 0.4562 0.4215 0.7525
C2_9 C 0.4710(3) 0.3576(3) 0.7759(3)
H3_9 H 0.4550 0.3418 0.7529
C3_9 C 0.4927(3) 0.3340(3) 0.8092(3)
H4_9 H 0.4917 0.3019 0.8098
C4_9 C 0.5168(3) 0.3585(3) 0.8429(3)
C5_9 C 0.5178(3) 0.4055(3) 0.8405(3)
H5_9 H 0.5342 0.4217 0.8630
C6_9 C 0.5411(3) 0.3369(3) 0.8831(4)
C7_9 C 0.5902(4) 0.2746(4) 0.9106(5)
H6_9 H 0.6213 0.2853 0.9040
H7_9 H 0.5818 0.2854 0.9412
O65_21 O 0.5000 0.5000 0.8928(6)
O66_9 O 0.5799(3) 0.1415(3) 0.9528(3)
N4_9 N 0.6234(3) 0.2061(3) 0.9416(3)
H8_9 H 0.6473 0.2219 0.9496
C11_9 C 0.6571(3) 0.1415(3) 0.9832(3)
C12_9 C 0.6595(3) 0.0945(3) 0.9822(3)
H12_9 H 0.6370 0.0783 0.9658
C13_9 C 0.6169(4) 0.1631(3) 0.9589(3)
C14_9 C 0.5894(5) 0.2254(4) 0.9098(4)
H13_9 H 0.5960 0.2147 0.8787
H14_9 H 0.5588 0.2146 0.9182
O67_9 O 0.4528(3) 0.6415(3) 0.9201(3)
N5_5 N 0.5040(3) 0.5706(2) 0.8070(2)
N6_9 N 0.4416(3) 0.7061(3) 0.8766(3)
H15_9 H 0.4496 0.7219 0.8527
C15_9 C 0.5277(3) 0.5944(3) 0.7754(3)
H16_9 H 0.5438 0.5785 0.7525
C16_9 C 0.5290(3) 0.6424(3) 0.7759(3)
H17_9 H 0.5450 0.6582 0.7529
C17_9 C 0.5073(3) 0.6660(3) 0.8092(3)
H18_9 H 0.5083 0.6981 0.8098
C18_9 C 0.4832(3) 0.6415(3) 0.8429(3)
C19_9 C 0.4822(3) 0.5945(3) 0.8405(3)
H19_9 H 0.4658 0.5783 0.8630
C20_9 C 0.4589(3) 0.6631(3) 0.8831(4)
C21_9 C 0.4098(4) 0.7254(4) 0.9106(5)
H20_9 H 0.3787 0.7147 0.9040
H21_9 H 0.4182 0.7146 0.9412
O68_9 O 0.4201(3) 0.8585(3) 0.9528(3)
N8_9 N 0.3766(3) 0.7939(3) 0.9416(3)
H22_9 H 0.3527 0.7781 0.9496
C25_9 C 0.3429(3) 0.8585(3) 0.9832(3)
C26_9 C 0.3405(3) 0.9055(3) 0.9822(3)
H26_9 H 0.3630 0.9217 0.9658
C27_9 C 0.3831(4) 0.8369(3) 0.9589(3)
C28_9 C 0.4106(5) 0.7746(4) 0.9098(4)
H27_9 H 0.4040 0.7853 0.8787
H28_9 H 0.4412 0.7854 0.9182
Cu2_10 Cu 0.30544(9) 1.0000 1.0000
Cu3_9 Cu 0.69456(9) 0.0000 1.0000
N9_5 N 0.4294(2) 0.5040(3) 0.8070(2)
N10_5 N 0.5706(2) 0.4960(3) 0.8070(2)
Cu3_10 Cu 0.69456(9) 1.0000 0.0000
Cu3_11 Cu -0.0000 0.69456(9) 0.0000
O64_10 O 0.6415(3) 0.5472(3) 0.9201(3)
N2_10 N 0.7061(3) 0.5584(3) 0.8766(3)
H1_10 H 0.7219 0.5504 0.8527
C1_10 C 0.5944(3) 0.4723(3) 0.7754(3)
H2_10 H 0.5785 0.4562 0.7525
C2_10 C 0.6424(3) 0.4710(3) 0.7759(3)
H3_10 H 0.6582 0.4550 0.7529
C3_10 C 0.6660(3) 0.4927(3) 0.8092(3)
H4_10 H 0.6981 0.4917 0.8098
C4_10 C 0.6415(3) 0.5168(3) 0.8429(3)
C5_10 C 0.5945(3) 0.5178(3) 0.8405(3)
H5_10 H 0.5783 0.5342 0.8630
C6_10 C 0.6631(3) 0.5411(3) 0.8831(4)
C7_10 C 0.7254(4) 0.5902(4) 0.9106(5)
H6_10 H 0.7147 0.6213 0.9040
H7_10 H 0.7146 0.5818 0.9412
O66_10 O 0.8585(3) 0.5799(3) 0.9528(3)
N4_10 N 0.7939(3) 0.6234(3) 0.9416(3)
H8_10 H 0.7781 0.6473 0.9496
C11_10 C 0.8585(3) 0.6571(3) 0.9832(3)
C12_10 C 0.9055(3) 0.6595(3) 0.9822(3)
H12_10 H 0.9217 0.6370 0.9658
C13_10 C 0.8369(3) 0.6169(4) 0.9589(3)
C14_10 C 0.7746(4) 0.5894(5) 0.9098(4)
H13_10 H 0.7853 0.5960 0.8787
H14_10 H 0.7854 0.5588 0.9182
O67_10 O 0.3585(3) 0.4528(3) 0.9201(3)
N6_10 N 0.2939(3) 0.4416(3) 0.8766(3)
H15_10 H 0.2781 0.4496 0.8527
C15_10 C 0.4056(3) 0.5277(3) 0.7754(3)
H16_10 H 0.4215 0.5438 0.7525
C16_10 C 0.3576(3) 0.5290(3) 0.7759(3)
H17_10 H 0.3418 0.5450 0.7529
C17_10 C 0.3340(3) 0.5073(3) 0.8092(3)
H18_10 H 0.3019 0.5083 0.8098
C18_10 C 0.3585(3) 0.4832(3) 0.8429(3)
C19_10 C 0.4055(3) 0.4822(3) 0.8405(3)
H19_10 H 0.4217 0.4658 0.8630
C20_10 C 0.3369(3) 0.4589(3) 0.8831(4)
C21_10 C 0.2746(4) 0.4098(4) 0.9106(5)
H20_10 H 0.2853 0.3787 0.9040
H21_10 H 0.2854 0.4182 0.9412
O68_10 O 0.1415(3) 0.4201(3) 0.9528(3)
N8_10 N 0.2061(3) 0.3766(3) 0.9416(3)
H22_10 H 0.2219 0.3527 0.9496
C25_10 C 0.1415(3) 0.3429(3) 0.9832(3)
C26_10 C 0.0945(3) 0.3405(3) 0.9822(3)
H26_10 H 0.0783 0.3630 0.9658
C27_10 C 0.1631(3) 0.3831(4) 0.9589(3)
C28_10 C 0.2254(4) 0.4106(5) 0.9098(4)
H27_10 H 0.2147 0.4040 0.8787
H28_10 H 0.2146 0.4412 0.9182
Cu2_11 Cu 0.0000 0.30544(9) 1.0000
Cu3_12 Cu 1.0000 0.69456(9) 1.0000
Cu2_12 Cu 1.0000 0.30544(9) 0.0000
Cu1_6 Cu 0.5000 0.5000 0.19456(9)
O63_22 O 0.5000 0.5000 0.2780(5)
O64_11 O 0.5472(3) 0.6415(3) 0.0799(3)
N1_6 N 0.4960(3) 0.5706(2) 0.1930(2)
N2_11 N 0.5584(3) 0.7061(3) 0.1234(3)
H1_11 H 0.5504 0.7219 0.1473
C1_11 C 0.4723(3) 0.5944(3) 0.2246(3)
H2_11 H 0.4562 0.5785 0.2475
C2_11 C 0.4710(3) 0.6424(3) 0.2241(3)
H3_11 H 0.4550 0.6582 0.2471
C3_11 C 0.4927(3) 0.6660(3) 0.1908(3)
H4_11 H 0.4917 0.6981 0.1902
C4_11 C 0.5168(3) 0.6415(3) 0.1571(3)
C5_11 C 0.5178(3) 0.5945(3) 0.1595(3)
H5_11 H 0.5342 0.5783 0.1370
C6_11 C 0.5411(3) 0.6631(3) 0.1169(4)
C7_11 C 0.5902(4) 0.7254(4) 0.0894(5)
H6_11 H 0.6213 0.7147 0.0960
H7_11 H 0.5818 0.7146 0.0588
O65_22 O 0.5000 0.5000 0.1072(6)
O66_11 O 0.5799(3) 0.8585(3) 0.0472(3)
N4_11 N 0.6234(3) 0.7939(3) 0.0584(3)
H8_11 H 0.6473 0.7781 0.0504
C11_11 C 0.6571(3) 0.8585(3) 0.0168(3)
C12_11 C 0.6595(3) 0.9055(3) 0.0178(3)
H12_11 H 0.6370 0.9217 0.0342
C13_11 C 0.6169(4) 0.8369(3) 0.0411(3)
C14_11 C 0.5894(5) 0.7746(4) 0.0902(4)
H13_11 H 0.5960 0.7853 0.1213
H14_11 H 0.5588 0.7854 0.0818
O67_11 O 0.4528(3) 0.3585(3) 0.0799(3)
N5_6 N 0.5040(3) 0.4294(2) 0.1930(2)
N6_11 N 0.4416(3) 0.2939(3) 0.1234(3)
H15_11 H 0.4496 0.2781 0.1473
C15_11 C 0.5277(3) 0.4056(3) 0.2246(3)
H16_11 H 0.5438 0.4215 0.2475
C16_11 C 0.5290(3) 0.3576(3) 0.2241(3)
H17_11 H 0.5450 0.3418 0.2471
C17_11 C 0.5073(3) 0.3340(3) 0.1908(3)
H18_11 H 0.5083 0.3019 0.1902
C18_11 C 0.4832(3) 0.3585(3) 0.1571(3)
C19_11 C 0.4822(3) 0.4055(3) 0.1595(3)
H19_11 H 0.4658 0.4217 0.1370
C20_11 C 0.4589(3) 0.3369(3) 0.1169(4)
C21_11 C 0.4098(4) 0.2746(4) 0.0894(5)
H20_11 H 0.3787 0.2853 0.0960
H21_11 H 0.4182 0.2854 0.0588
O68_11 O 0.4201(3) 0.1415(3) 0.0472(3)
N8_11 N 0.3766(3) 0.2061(3) 0.0584(3)
H22_11 H 0.3527 0.2219 0.0504
C25_11 C 0.3429(3) 0.1415(3) 0.0168(3)
C26_11 C 0.3405(3) 0.0945(3) 0.0178(3)
H26_11 H 0.3630 0.0783 0.0342
C27_11 C 0.3831(4) 0.1631(3) 0.0411(3)
C28_11 C 0.4106(5) 0.2254(4) 0.0902(4)
H27_11 H 0.4040 0.2147 0.1213
H28_11 H 0.4412 0.2146 0.0818
N9_6 N 0.4294(2) 0.4960(3) 0.1930(2)
N10_6 N 0.5706(2) 0.5040(3) 0.1930(2)
O64_12 O 0.3585(3) 0.5472(3) 0.0799(3)
N2_12 N 0.2939(3) 0.5584(3) 0.1234(3)
H1_12 H 0.2781 0.5504 0.1473
C1_12 C 0.4056(3) 0.4723(3) 0.2246(3)
H2_12 H 0.4215 0.4562 0.2475
C2_12 C 0.3576(3) 0.4710(3) 0.2241(3)
H3_12 H 0.3418 0.4550 0.2471
C3_12 C 0.3340(3) 0.4927(3) 0.1908(3)
H4_12 H 0.3019 0.4917 0.1902
C4_12 C 0.3585(3) 0.5168(3) 0.1571(3)
C5_12 C 0.4055(3) 0.5178(3) 0.1595(3)
H5_12 H 0.4217 0.5342 0.1370
C6_12 C 0.3369(3) 0.5411(3) 0.1169(4)
C7_12 C 0.2746(4) 0.5902(4) 0.0894(5)
H6_12 H 0.2853 0.6213 0.0960
H7_12 H 0.2854 0.5818 0.0588
O66_12 O 0.1415(3) 0.5799(3) 0.0472(3)
N4_12 N 0.2061(3) 0.6234(3) 0.0584(3)
H8_12 H 0.2219 0.6473 0.0504
C11_12 C 0.1415(3) 0.6571(3) 0.0168(3)
C12_12 C 0.0945(3) 0.6595(3) 0.0178(3)
H12_12 H 0.0783 0.6370 0.0342
C13_12 C 0.1631(3) 0.6169(4) 0.0411(3)
C14_12 C 0.2254(4) 0.5894(5) 0.0902(4)
H13_12 H 0.2147 0.5960 0.1213
H14_12 H 0.2146 0.5588 0.0818
O67_12 O 0.6415(3) 0.4528(3) 0.0799(3)
N6_12 N 0.7061(3) 0.4416(3) 0.1234(3)
H15_12 H 0.7219 0.4496 0.1473
C15_12 C 0.5944(3) 0.5277(3) 0.2246(3)
H16_12 H 0.5785 0.5438 0.2475
C16_12 C 0.6424(3) 0.5290(3) 0.2241(3)
H17_12 H 0.6582 0.5450 0.2471
C17_12 C 0.6660(3) 0.5073(3) 0.1908(3)
H18_12 H 0.6981 0.5083 0.1902
C18_12 C 0.6415(3) 0.4832(3) 0.1571(3)
C19_12 C 0.5945(3) 0.4822(3) 0.1595(3)
H19_12 H 0.5783 0.4658 0.1370
C20_12 C 0.6631(3) 0.4589(3) 0.1169(4)
C21_12 C 0.7254(4) 0.4098(4) 0.0894(5)
H20_12 H 0.7147 0.3787 0.0960
H21_12 H 0.7146 0.4182 0.0588
O68_12 O 0.8585(3) 0.4201(3) 0.0472(3)
N8_12 N 0.7939(3) 0.3766(3) 0.0584(3)
H22_12 H 0.7781 0.3527 0.0504
C25_12 C 0.8585(3) 0.3429(3) 0.0168(3)
C26_12 C 0.9055(3) 0.3405(3) 0.0178(3)
H26_12 H 0.9217 0.3630 0.0342
C27_12 C 0.8369(3) 0.3831(4) 0.0411(3)
C28_12 C 0.7746(4) 0.4106(5) 0.0902(4)
H27_12 H 0.7853 0.4040 0.1213
H28_12 H 0.7854 0.4412 0.0818
N3_9 N 0.0040(3) 0.6930(2) 0.0706(2)
C8_9 C 0.0277(3) 0.7246(3) 0.0944(3)
H9_9 H 0.0438 0.7475 0.0785
C9_9 C 0.0290(3) 0.7241(3) 0.1424(3)
H10_9 H 0.0450 0.7471 0.1582
C10_9 C 0.0073(3) 0.6908(3) 0.1660(3)
H11_9 H 0.0083 0.6902 0.1981
N7_9 N 0.0040(3) 0.3070(2) 0.9294(2)
C22_9 C 0.0277(3) 0.2754(3) 0.9056(3)
H23_9 H 0.0438 0.2525 0.9215
C23_9 C 0.0290(3) 0.2759(3) 0.8576(3)
H24_9 H 0.0450 0.2529 0.8418
C24_9 C 0.0073(3) 0.3092(3) 0.8340(3)
H25_9 H 0.0083 0.3098 0.8019
N3_10 N 0.3070(2) 0.9960(3) 0.9294(2)
C8_10 C 0.2754(3) 0.9723(3) 0.9056(3)
H9_10 H 0.2525 0.9562 0.9215
C9_10 C 0.2759(3) 0.9710(3) 0.8576(3)
H10_10 H 0.2529 0.9550 0.8418
C10_10 C 0.3092(3) 0.9927(3) 0.8340(3)
H11_10 H 0.3098 0.9917 0.8019
N7_10 N 0.6930(2) 0.9960(3) 0.0706(2)
C22_10 C 0.7246(3) 0.9723(3) 0.0944(3)
H23_10 H 0.7475 0.9562 0.0785
C23_10 C 0.7241(3) 0.9710(3) 0.1424(3)
H24_10 H 0.7471 0.9550 0.1582
C24_10 C 0.6908(3) 0.9927(3) 0.1660(3)
H25_10 H 0.6902 0.9917 0.1981
N3_11 N 0.3070(2) 0.0040(3) 0.0706(2)
C8_11 C 0.2754(3) 0.0277(3) 0.0944(3)
H9_11 H 0.2525 0.0438 0.0785
C9_11 C 0.2759(3) 0.0290(3) 0.1424(3)
H10_11 H 0.2529 0.0450 0.1582
C10_11 C 0.3092(3) 0.0073(3) 0.1660(3)
H11_11 H 0.3098 0.0083 0.1981
N7_11 N 0.6930(2) 0.0040(3) 0.9294(2)
C22_11 C 0.7246(3) 0.0277(3) 0.9056(3)
H23_11 H 0.7475 0.0438 0.9215
C23_11 C 0.7241(3) 0.0290(3) 0.8576(3)
H24_11 H 0.7471 0.0450 0.8418
C24_11 C 0.6908(3) 0.0073(3) 0.8340(3)
H25_11 H 0.6902 0.0083 0.8019
N3_12 N 0.9960(3) 0.3070(2) 0.0706(2)
C8_12 C 0.9723(3) 0.2754(3) 0.0944(3)
H9_12 H 0.9562 0.2525 0.0785
C9_12 C 0.9710(3) 0.2759(3) 0.1424(3)
H10_12 H 0.9550 0.2529 0.1582
C10_12 C 0.9927(3) 0.3092(3) 0.1660(3)
H11_12 H 0.9917 0.3098 0.1981
N7_12 N 0.9960(3) 0.6930(2) 0.9294(2)
C22_12 C 0.9723(3) 0.7246(3) 0.9056(3)
H23_12 H 0.9562 0.7475 0.9215
C23_12 C 0.9710(3) 0.7241(3) 0.8576(3)
H24_12 H 0.9550 0.7471 0.8418
C24_12 C 0.9927(3) 0.6908(3) 0.8340(3)
H25_12 H 0.9917 0.6902 0.8019
O63_23 O 0.0000 0.2220(5) 1.0000
O65_23 O 0.0000 0.3928(6) 1.0000
O63_24 O 1.0000 0.2220(5) 0.0000
O65_24 O 1.0000 0.3928(6) 0.0000
H29_17 H 0.982245 0.404251 0.0270881
O63_25 O 0.7780(5) 0.0000 1.0000
O65_25 O 0.6072(6) 0.0000 1.0000
O63_26 O 0.7780(5) 1.0000 0.0000
O65_26 O 0.6072(6) 1.0000 0.0000
H29_18 H 0.595749 0.982245 0.0270881
O63_27 O -0.0000 0.7780(5) 0.0000
O65_27 O -0.0000 0.6072(6) 0.0000
H29_19 H 0.0177549 0.595749 0.0270881
O63_28 O 1.0000 0.7780(5) 1.0000
O65_28 O 1.0000 0.6072(6) 1.0000
O63_29 O 0.2220(5) -0.0000 0.0000
O65_29 O 0.3928(6) -0.0000 0.0000
H29_20 H 0.404251 0.0177549 0.0270881
O63_30 O 0.2220(5) 1.0000 1.0000
O65_30 O 0.3928(6) 1.0000 1.0000
H29_21 H 0.982245 0.595749 0.972912
H29_22 H 0.404251 0.982245 0.972912
H29_23 H 0.0177549 0.404251 0.972912
H29_24 H 0.595749 0.0177549 0.972912
H30_17 H 0.404251 0.00183209 0.0323364
H32_17 H 0.210549 0.00183209 0.0323364
H31_17 H 0.210549 0.97108 0.985418
H31_18 H 0.0289202 0.789451 0.0145816
H30_18 H 0.998168 0.595749 0.967664
H32_18 H 0.998168 0.789451 0.967664
H31_19 H 0.0289202 0.210549 0.985418
H30_19 H 0.998168 0.404251 0.0323364
H32_19 H 0.998168 0.210549 0.0323364
H30_20 H 0.00183209 0.404251 0.967664
H32_20 H 0.00183209 0.210549 0.967664
H31_20 H 0.97108 0.210549 0.0145816
H30_21 H 0.00183209 0.595749 0.0323364
H32_21 H 0.00183209 0.789451 0.0323364
H31_21 H 0.97108 0.789451 0.985418
H31_22 H 0.210549 0.0289202 0.0145816
H30_22 H 0.404251 0.998168 0.967664
H32_22 H 0.210549 0.998168 0.967664
H31_23 H 0.789451 0.0289202 0.985418
H30_23 H 0.595749 0.998168 0.0323364
H32_23 H 0.789451 0.998168 0.0323364
H30_24 H 0.595749 0.00183209 0.967664
H32_24 H 0.789451 0.00183209 0.967664
H31_24 H 0.789451 0.97108 0.0145816
loop_
_geom_bond_atom_site_label_1
_geom_bond_atom_site_label_2
_geom_bond_site_symmetry_1
_geom_bond_site_symmetry_2
W1 O2 1_555 1_555
W2 O2 1_555 1_555
W3 O1 1_555 1_555
P1 O1 1_555 1_555
O1 W6 1_555 1_555
O2 P1 1_555 1_555
O3 W1 1_555 1_555
O4 W1 1_555 1_555
O5 W1 1_555 1_555
O6 W3 1_555 1_555
O7 W2 1_555 1_555
O8 W3 1_555 1_555
O9 W2 1_555 1_555
O10 W1 1_555 1_555
O11 W1 1_555 1_555
O12 P1 1_555 1_555
O13 P1 1_555 1_555
W4 O12 1_555 1_555
W5 O12 1_555 1_555
W6 O7 1_555 1_555
O14 W4 1_555 1_555
O15 W2 1_555 1_555
O16 W4 1_555 1_555
O17 W3 1_555 1_555
O18 W5 1_555 1_555
O19 W6 1_555 1_555
O20 W5 1_555 1_555
O21 W4 1_555 1_555
O22 W4 1_555 1_555
W7 O13 1_555 1_555
W8 O4 1_555 1_555
W9 O1 1_555 1_555
O23 W7 1_555 1_555
O24 W5 1_555 1_555
O25 W7 1_555 1_555
O26 W6 1_555 1_555
O27 W3 1_555 1_555
O28 W9 1_555 1_555
O29 W8 1_555 1_555
O30 W7 1_555 1_555
O31 W7 1_555 1_555
W10 O33 1_555 1_555
W11 O22 1_555 1_555
W12 O32 1_555 1_555
P2 O32 1_555 1_555
O32 W15 1_555 1_555
O33 W11 1_555 1_555
O34 W10 1_555 1_555
O35 W10 1_555 1_555
O36 W10 1_555 1_555
O37 W12 1_555 1_555
O38 W11 1_555 1_555
O39 W12 1_555 1_555
O40 W11 1_555 1_555
O41 W10 1_555 1_555
O42 W5 1_555 1_555
O43 P2 1_555 1_555
O44 P2 1_555 1_555
W13 O43 1_555 1_555
W14 O11 1_555 1_555
W15 O38 1_555 1_555
O45 W13 1_555 1_555
O46 W11 1_555 1_555
O47 W13 1_555 1_555
O48 W12 1_555 1_555
O49 W14 1_555 1_555
O50 W15 1_555 1_555
O51 W14 1_555 1_555
O52 W13 1_555 1_555
O53 W2 1_555 1_555
W16 O44 1_555 1_555
W17 O31 1_555 1_555
W18 O32 1_555 1_555
O54 W16 1_555 1_555
O55 W14 1_555 1_555
O56 W16 1_555 1_555
O57 W15 1_555 1_555
O58 W12 1_555 1_555
O59 W18 1_555 1_555
O60 W17 1_555 1_555
O61 W16 1_555 1_555
O62 W8 1_555 1_555
W2 O3 1_555 1_555
W3 O5 1_555 1_555
O6 W9 1_555 1_555
O13 W8 1_555 1_555
W4 O15 1_555 1_555
W5 O14 1_555 1_555
W6 O16 1_555 1_555
W6 O17 1_555 1_555
O18 W9 1_555 1_555
W7 O24 1_555 1_555
W8 O23 1_555 1_555
W8 O27 1_555 1_555
W9 O25 1_555 1_555
W9 O26 1_555 1_555
W10 O42 1_555 1_555
W11 O34 1_555 1_555
W12 O36 1_555 1_555
P2 O33 1_555 1_555
O35 W17 1_555 1_555
O37 W18 1_555 1_555
O43 W14 1_555 1_555
O44 W17 1_555 1_555
W13 O46 1_555 1_555
W13 O53 1_555 1_555
W14 O45 1_555 1_555
W15 O47 1_555 1_555
W15 O48 1_555 1_555
O49 W18 1_555 1_555
W16 O55 1_555 1_555
W16 O62 1_555 1_555
W17 O54 1_555 1_555
W17 O58 1_555 1_555
W18 O56 1_555 1_555
W18 O57 1_555 1_555
W1_2 O2_2 1_555 1_555
W2_2 O2_2 1_555 1_555
W3_2 O1_2 1_555 1_555
P1_2 O1_2 1_555 1_555
O1_2 W6_2 1_555 1_555
O2_2 P1_2 1_555 1_555
O3_2 W1_2 1_555 1_555
O4_2 W1_2 1_555 1_555
O5_2 W1_2 1_555 1_555
O6_2 W3_2 1_555 1_555
O7_2 W2_2 1_555 1_555
O8_2 W3_2 1_555 1_555
O9_2 W2_2 1_555 1_555
O10_2 W1_2 1_555 1_555
O11_2 W1_2 1_555 1_555
O12_2 P1_2 1_555 1_555
O13_2 P1_2 1_555 1_555
W4_2 O12_2 1_555 1_555
W5_2 O12_2 1_555 1_555
W6_2 O7_2 1_555 1_555
O14_2 W4_2 1_555 1_555
O15_2 W2_2 1_555 1_555
O16_2 W4_2 1_555 1_555
O17_2 W3_2 1_555 1_555
O18_2 W5_2 1_555 1_555
O19_2 W6_2 1_555 1_555
O20_2 W5_2 1_555 1_555
O21_2 W4_2 1_555 1_555
O22_2 W4_2 1_555 1_555
W7_2 O13_2 1_555 1_555
W8_2 O4_2 1_555 1_555
W9_2 O1_2 1_555 1_555
O23_2 W7_2 1_555 1_555
O24_2 W5_2 1_555 1_555
O25_2 W7_2 1_555 1_555
O26_2 W6_2 1_555 1_555
O27_2 W3_2 1_555 1_555
O28_2 W9_2 1_555 1_555
O29_2 W8_2 1_555 1_555
O30_2 W7_2 1_555 1_555
O31_2 W7_2 1_555 1_555
W10_2 O33_2 1_555 1_555
W11_2 O22_2 1_555 1_555
W12_2 O32_2 1_555 1_555
P2_2 O32_2 1_555 1_555
O32_2 W15_2 1_555 1_555
O33_2 W11_2 1_555 1_555
O34_2 W10_2 1_555 1_555
O35_2 W10_2 1_555 1_555
O36_2 W10_2 1_555 1_555
O37_2 W12_2 1_555 1_555
O38_2 W11_2 1_555 1_555
O39_2 W12_2 1_555 1_555
O40_2 W11_2 1_555 1_555
O41_2 W10_2 1_555 1_555
O42_2 W5_2 1_555 1_555
O43_2 P2_2 1_555 1_555
O44_2 P2_2 1_555 1_555
W13_2 O43_2 1_555 1_555
W14_2 O11_2 1_555 1_555
W15_2 O38_2 1_555 1_555
O45_2 W13_2 1_555 1_555
O46_2 W11_2 1_555 1_555
O47_2 W13_2 1_555 1_555
O48_2 W12_2 1_555 1_555
O49_2 W14_2 1_555 1_555
O50_2 W15_2 1_555 1_555
O51_2 W14_2 1_555 1_555
O52_2 W13_2 1_555 1_555
O53_2 W2_2 1_555 1_555
W16_2 O44_2 1_555 1_555
W17_2 O31_2 1_555 1_555
W18_2 O32_2 1_555 1_555
O54_2 W16_2 1_555 1_555
O55_2 W14_2 1_555 1_555
O56_2 W16_2 1_555 1_555
O57_2 W15_2 1_555 1_555
O58_2 W12_2 1_555 1_555
O59_2 W18_2 1_555 1_555
O60_2 W17_2 1_555 1_555
O61_2 W16_2 1_555 1_555
O62_2 W8_2 1_555 1_555
W2_2 O3_2 1_555 1_555
W3_2 O5_2 1_555 1_555
O6_2 W9_2 1_555 1_555
O13_2 W8_2 1_555 1_555
W4_2 O15_2 1_555 1_555
W5_2 O14_2 1_555 1_555
W6_2 O16_2 1_555 1_555
W6_2 O17_2 1_555 1_555
O18_2 W9_2 1_555 1_555
W7_2 O24_2 1_555 1_555
W8_2 O23_2 1_555 1_555
W8_2 O27_2 1_555 1_555
W9_2 O25_2 1_555 1_555
W9_2 O26_2 1_555 1_555
W10_2 O42_2 1_555 1_555
W11_2 O34_2 1_555 1_555
W12_2 O36_2 1_555 1_555
P2_2 O33_2 1_555 1_555
O35_2 W17_2 1_555 1_555
O37_2 W18_2 1_555 1_555
O43_2 W14_2 1_555 1_555
O44_2 W17_2 1_555 1_555
W13_2 O46_2 1_555 1_555
W13_2 O53_2 1_555 1_555
W14_2 O45_2 1_555 1_555
W15_2 O47_2 1_555 1_555
W15_2 O48_2 1_555 1_555
O49_2 W18_2 1_555 1_555
W16_2 O55_2 1_555 1_555
W16_2 O62_2 1_555 1_555
W17_2 O54_2 1_555 1_555
W17_2 O58_2 1_555 1_555
W18_2 O56_2 1_555 1_555
W18_2 O57_2 1_555 1_555
W1_3 O2_3 1_555 1_555
W2_3 O2_3 1_555 1_555
W3_3 O1_3 1_555 1_555
P1_3 O1_3 1_555 1_555
O1_3 W6_3 1_555 1_555
O2_3 P1_3 1_555 1_555
O3_3 W1_3 1_555 1_555
O4_3 W1_3 1_555 1_555
O5_3 W1_3 1_555 1_555
O6_3 W3_3 1_555 1_555
O7_3 W2_3 1_555 1_555
O8_3 W3_3 1_555 1_555
O9_3 W2_3 1_555 1_555
O10_3 W1_3 1_555 1_555
O11_3 W1_3 1_555 1_555
O12_3 P1_3 1_555 1_555
O13_3 P1_3 1_555 1_555
W4_3 O12_3 1_555 1_555
W5_3 O12_3 1_555 1_555
W6_3 O7_3 1_555 1_555
O14_3 W4_3 1_555 1_555
O15_3 W2_3 1_555 1_555
O16_3 W4_3 1_555 1_555
O17_3 W3_3 1_555 1_555
O18_3 W5_3 1_555 1_555
O19_3 W6_3 1_555 1_555
O20_3 W5_3 1_555 1_555
O21_3 W4_3 1_555 1_555
O22_3 W4_3 1_555 1_555
W7_3 O13_3 1_555 1_555
W8_3 O4_3 1_555 1_555
W9_3 O1_3 1_555 1_555
O23_3 W7_3 1_555 1_555
O24_3 W5_3 1_555 1_555
O25_3 W7_3 1_555 1_555
O26_3 W6_3 1_555 1_555
O27_3 W3_3 1_555 1_555
O28_3 W9_3 1_555 1_555
O29_3 W8_3 1_555 1_555
O30_3 W7_3 1_555 1_555
O31_3 W7_3 1_555 1_555
W10_3 O33_3 1_555 1_555
W11_3 O22_3 1_555 1_555
W12_3 O32_3 1_555 1_555
P2_3 O32_3 1_555 1_555
O32_3 W15_3 1_555 1_555
O33_3 W11_3 1_555 1_555
O34_3 W10_3 1_555 1_555
O35_3 W10_3 1_555 1_555
O36_3 W10_3 1_555 1_555
O37_3 W12_3 1_555 1_555
O38_3 W11_3 1_555 1_555
O39_3 W12_3 1_555 1_555
O40_3 W11_3 1_555 1_555
O41_3 W10_3 1_555 1_555
O42_3 W5_3 1_555 1_555
O43_3 P2_3 1_555 1_555
O44_3 P2_3 1_555 1_555
W13_3 O43_3 1_555 1_555
W14_3 O11_3 1_555 1_555
W15_3 O38_3 1_555 1_555
O45_3 W13_3 1_555 1_555
O46_3 W11_3 1_555 1_555
O47_3 W13_3 1_555 1_555
O48_3 W12_3 1_555 1_555
O49_3 W14_3 1_555 1_555
O50_3 W15_3 1_555 1_555
O51_3 W14_3 1_555 1_555
O52_3 W13_3 1_555 1_555
O53_3 W2_3 1_555 1_555
W16_3 O44_3 1_555 1_555
W17_3 O31_3 1_555 1_555
W18_3 O32_3 1_555 1_555
O54_3 W16_3 1_555 1_555
O55_3 W14_3 1_555 1_555
O56_3 W16_3 1_555 1_555
O57_3 W15_3 1_555 1_555
O58_3 W12_3 1_555 1_555
O59_3 W18_3 1_555 1_555
O60_3 W17_3 1_555 1_555
O61_3 W16_3 1_555 1_555
O62_3 W8_3 1_555 1_555
W2_3 O3_3 1_555 1_555
W3_3 O5_3 1_555 1_555
O6_3 W9_3 1_555 1_555
O13_3 W8_3 1_555 1_555
W4_3 O15_3 1_555 1_555
W5_3 O14_3 1_555 1_555
W6_3 O16_3 1_555 1_555
W6_3 O17_3 1_555 1_555
O18_3 W9_3 1_555 1_555
W7_3 O24_3 1_555 1_555
W8_3 O23_3 1_555 1_555
W8_3 O27_3 1_555 1_555
W9_3 O25_3 1_555 1_555
W9_3 O26_3 1_555 1_555
W10_3 O42_3 1_555 1_555
W11_3 O34_3 1_555 1_555
W12_3 O36_3 1_555 1_555
P2_3 O33_3 1_555 1_555
O35_3 W17_3 1_555 1_555
O37_3 W18_3 1_555 1_555
O43_3 W14_3 1_555 1_555
O44_3 W17_3 1_555 1_555
W13_3 O46_3 1_555 1_555
W13_3 O53_3 1_555 1_555
W14_3 O45_3 1_555 1_555
W15_3 O47_3 1_555 1_555
W15_3 O48_3 1_555 1_555
O49_3 W18_3 1_555 1_555
W16_3 O55_3 1_555 1_555
W16_3 O62_3 1_555 1_555
W17_3 O54_3 1_555 1_555
W17_3 O58_3 1_555 1_555
W18_3 O56_3 1_555 1_555
W18_3 O57_3 1_555 1_555
W1_4 O2_4 1_555 1_555
W2_4 O2_4 1_555 1_555
W3_4 O1_4 1_555 1_555
P1_4 O1_4 1_555 1_555
O1_4 W6_4 1_555 1_555
O2_4 P1_4 1_555 1_555
O3_4 W1_4 1_555 1_555
O4_4 W1_4 1_555 1_555
O5_4 W1_4 1_555 1_555
O6_4 W3_4 1_555 1_555
O7_4 W2_4 1_555 1_555
O8_4 W3_4 1_555 1_555
O9_4 W2_4 1_555 1_555
O10_4 W1_4 1_555 1_555
O11_4 W1_4 1_555 1_555
O12_4 P1_4 1_555 1_555
O13_4 P1_4 1_555 1_555
W4_4 O12_4 1_555 1_555
W5_4 O12_4 1_555 1_555
W6_4 O7_4 1_555 1_555
O14_4 W4_4 1_555 1_555
O15_4 W2_4 1_555 1_555
O16_4 W4_4 1_555 1_555
O17_4 W3_4 1_555 1_555
O18_4 W5_4 1_555 1_555
O19_4 W6_4 1_555 1_555
O20_4 W5_4 1_555 1_555
O21_4 W4_4 1_555 1_555
O22_4 W4_4 1_555 1_555
W7_4 O13_4 1_555 1_555
W8_4 O4_4 1_555 1_555
W9_4 O1_4 1_555 1_555
O23_4 W7_4 1_555 1_555
O24_4 W5_4 1_555 1_555
O25_4 W7_4 1_555 1_555
O26_4 W6_4 1_555 1_555
O27_4 W3_4 1_555 1_555
O28_4 W9_4 1_555 1_555
O29_4 W8_4 1_555 1_555
O30_4 W7_4 1_555 1_555
O31_4 W7_4 1_555 1_555
W10_4 O33_4 1_555 1_555
W11_4 O22_4 1_555 1_555
W12_4 O32_4 1_555 1_555
P2_4 O32_4 1_555 1_555
O32_4 W15_4 1_555 1_555
O33_4 W11_4 1_555 1_555
O34_4 W10_4 1_555 1_555
O35_4 W10_4 1_555 1_555
O36_4 W10_4 1_555 1_555
O37_4 W12_4 1_555 1_555
O38_4 W11_4 1_555 1_555
O39_4 W12_4 1_555 1_555
O40_4 W11_4 1_555 1_555
O41_4 W10_4 1_555 1_555
O42_4 W5_4 1_555 1_555
O43_4 P2_4 1_555 1_555
O44_4 P2_4 1_555 1_555
W13_4 O43_4 1_555 1_555
W14_4 O11_4 1_555 1_555
W15_4 O38_4 1_555 1_555
O45_4 W13_4 1_555 1_555
O46_4 W11_4 1_555 1_555
O47_4 W13_4 1_555 1_555
O48_4 W12_4 1_555 1_555
O49_4 W14_4 1_555 1_555
O50_4 W15_4 1_555 1_555
O51_4 W14_4 1_555 1_555
O52_4 W13_4 1_555 1_555
O53_4 W2_4 1_555 1_555
W16_4 O44_4 1_555 1_555
W17_4 O31_4 1_555 1_555
W18_4 O32_4 1_555 1_555
O54_4 W16_4 1_555 1_555
O55_4 W14_4 1_555 1_555
O56_4 W16_4 1_555 1_555
O57_4 W15_4 1_555 1_555
O58_4 W12_4 1_555 1_555
O59_4 W18_4 1_555 1_555
O60_4 W17_4 1_555 1_555
O61_4 W16_4 1_555 1_555
O62_4 W8_4 1_555 1_555
W2_4 O3_4 1_555 1_555
W3_4 O5_4 1_555 1_555
O6_4 W9_4 1_555 1_555
O13_4 W8_4 1_555 1_555
W4_4 O15_4 1_555 1_555
W5_4 O14_4 1_555 1_555
W6_4 O16_4 1_555 1_555
W6_4 O17_4 1_555 1_555
O18_4 W9_4 1_555 1_555
W7_4 O24_4 1_555 1_555
W8_4 O23_4 1_555 1_555
W8_4 O27_4 1_555 1_555
W9_4 O25_4 1_555 1_555
W9_4 O26_4 1_555 1_555
W10_4 O42_4 1_555 1_555
W11_4 O34_4 1_555 1_555
W12_4 O36_4 1_555 1_555
P2_4 O33_4 1_555 1_555
O35_4 W17_4 1_555 1_555
O37_4 W18_4 1_555 1_555
O43_4 W14_4 1_555 1_555
O44_4 W17_4 1_555 1_555
W13_4 O46_4 1_555 1_555
W13_4 O53_4 1_555 1_555
W14_4 O45_4 1_555 1_555
W15_4 O47_4 1_555 1_555
W15_4 O48_4 1_555 1_555
O49_4 W18_4 1_555 1_555
W16_4 O55_4 1_555 1_555
W16_4 O62_4 1_555 1_555
W17_4 O54_4 1_555 1_555
W17_4 O58_4 1_555 1_555
W18_4 O56_4 1_555 1_555
W18_4 O57_4 1_555 1_555
W1_5 O2_5 1_555 1_555
W2_5 O2_5 1_555 1_555
W3_5 O1_5 1_555 1_555
P1_5 O1_5 1_555 1_555
O1_5 W6_5 1_555 1_555
O2_5 P1_5 1_555 1_555
O3_5 W1_5 1_555 1_555
O4_5 W1_5 1_555 1_555
O5_5 W1_5 1_555 1_555
O6_5 W3_5 1_555 1_555
O7_5 W2_5 1_555 1_555
O8_5 W3_5 1_555 1_555
O9_5 W2_5 1_555 1_555
O10_5 W1_5 1_555 1_555
O11_5 W1_5 1_555 1_555
O12_5 P1_5 1_555 1_555
O13_5 P1_5 1_555 1_555
W4_5 O12_5 1_555 1_555
W5_5 O12_5 1_555 1_555
W6_5 O7_5 1_555 1_555
O14_5 W4_5 1_555 1_555
O15_5 W2_5 1_555 1_555
O16_5 W4_5 1_555 1_555
O17_5 W3_5 1_555 1_555
O18_5 W5_5 1_555 1_555
O19_5 W6_5 1_555 1_555
O20_5 W5_5 1_555 1_555
O21_5 W4_5 1_555 1_555
O22_5 W4_5 1_555 1_555
W7_5 O13_5 1_555 1_555
W8_5 O4_5 1_555 1_555
W9_5 O1_5 1_555 1_555
O23_5 W7_5 1_555 1_555
O24_5 W5_5 1_555 1_555
O25_5 W7_5 1_555 1_555
O26_5 W6_5 1_555 1_555
O27_5 W3_5 1_555 1_555
O28_5 W9_5 1_555 1_555
O29_5 W8_5 1_555 1_555
O30_5 W7_5 1_555 1_555
O31_5 W7_5 1_555 1_555
W10_5 O33_5 1_555 1_555
W11_5 O22_5 1_555 1_555
W12_5 O32_5 1_555 1_555
P2_5 O32_5 1_555 1_555
O32_5 W15_5 1_555 1_555
O33_5 W11_5 1_555 1_555
O34_5 W10_5 1_555 1_555
O35_5 W10_5 1_555 1_555
O36_5 W10_5 1_555 1_555
O37_5 W12_5 1_555 1_555
O38_5 W11_5 1_555 1_555
O39_5 W12_5 1_555 1_555
O40_5 W11_5 1_555 1_555
O41_5 W10_5 1_555 1_555
O42_5 W5_5 1_555 1_555
O43_5 P2_5 1_555 1_555
O44_5 P2_5 1_555 1_555
W13_5 O43_5 1_555 1_555
W14_5 O11_5 1_555 1_555
W15_5 O38_5 1_555 1_555
O45_5 W13_5 1_555 1_555
O46_5 W11_5 1_555 1_555
O47_5 W13_5 1_555 1_555
O48_5 W12_5 1_555 1_555
O49_5 W14_5 1_555 1_555
O50_5 W15_5 1_555 1_555
O51_5 W14_5 1_555 1_555
O52_5 W13_5 1_555 1_555
O53_5 W2_5 1_555 1_555
W16_5 O44_5 1_555 1_555
W17_5 O31_5 1_555 1_555
W18_5 O32_5 1_555 1_555
O54_5 W16_5 1_555 1_555
O55_5 W14_5 1_555 1_555
O56_5 W16_5 1_555 1_555
O57_5 W15_5 1_555 1_555
O58_5 W12_5 1_555 1_555
O59_5 W18_5 1_555 1_555
O60_5 W17_5 1_555 1_555
O61_5 W16_5 1_555 1_555
O62_5 W8_5 1_555 1_555
W2_5 O3_5 1_555 1_555
W3_5 O5_5 1_555 1_555
O6_5 W9_5 1_555 1_555
O13_5 W8_5 1_555 1_555
W4_5 O15_5 1_555 1_555
W5_5 O14_5 1_555 1_555
W6_5 O16_5 1_555 1_555
W6_5 O17_5 1_555 1_555
O18_5 W9_5 1_555 1_555
W7_5 O24_5 1_555 1_555
W8_5 O23_5 1_555 1_555
W8_5 O27_5 1_555 1_555
W9_5 O25_5 1_555 1_555
W9_5 O26_5 1_555 1_555
W10_5 O42_5 1_555 1_555
W11_5 O34_5 1_555 1_555
W12_5 O36_5 1_555 1_555
P2_5 O33_5 1_555 1_555
O35_5 W17_5 1_555 1_555
O37_5 W18_5 1_555 1_555
O43_5 W14_5 1_555 1_555
O44_5 W17_5 1_555 1_555
W13_5 O46_5 1_555 1_555
W13_5 O53_5 1_555 1_555
W14_5 O45_5 1_555 1_555
W15_5 O47_5 1_555 1_555
W15_5 O48_5 1_555 1_555
O49_5 W18_5 1_555 1_555
W16_5 O55_5 1_555 1_555
W16_5 O62_5 1_555 1_555
W17_5 O54_5 1_555 1_555
W17_5 O58_5 1_555 1_555
W18_5 O56_5 1_555 1_555
W18_5 O57_5 1_555 1_555
W1_6 O2_6 1_555 1_555
W2_6 O2_6 1_555 1_555
W3_6 O1_6 1_555 1_555
P1_6 O1_6 1_555 1_555
O1_6 W6_6 1_555 1_555
O2_6 P1_6 1_555 1_555
O3_6 W1_6 1_555 1_555
O4_6 W1_6 1_555 1_555
O5_6 W1_6 1_555 1_555
O6_6 W3_6 1_555 1_555
O7_6 W2_6 1_555 1_555
O8_6 W3_6 1_555 1_555
O9_6 W2_6 1_555 1_555
O10_6 W1_6 1_555 1_555
O11_6 W1_6 1_555 1_555
O12_6 P1_6 1_555 1_555
O13_6 P1_6 1_555 1_555
W4_6 O12_6 1_555 1_555
W5_6 O12_6 1_555 1_555
W6_6 O7_6 1_555 1_555
O14_6 W4_6 1_555 1_555
O15_6 W2_6 1_555 1_555
O16_6 W4_6 1_555 1_555
O17_6 W3_6 1_555 1_555
O18_6 W5_6 1_555 1_555
O19_6 W6_6 1_555 1_555
O20_6 W5_6 1_555 1_555
O21_6 W4_6 1_555 1_555
O22_6 W4_6 1_555 1_555
W7_6 O13_6 1_555 1_555
W8_6 O4_6 1_555 1_555
W9_6 O1_6 1_555 1_555
O23_6 W7_6 1_555 1_555
O24_6 W5_6 1_555 1_555
O25_6 W7_6 1_555 1_555
O26_6 W6_6 1_555 1_555
O27_6 W3_6 1_555 1_555
O28_6 W9_6 1_555 1_555
O29_6 W8_6 1_555 1_555
O30_6 W7_6 1_555 1_555
O31_6 W7_6 1_555 1_555
W10_6 O33_6 1_555 1_555
W11_6 O22_6 1_555 1_555
W12_6 O32_6 1_555 1_555
P2_6 O32_6 1_555 1_555
O32_6 W15_6 1_555 1_555
O33_6 W11_6 1_555 1_555
O34_6 W10_6 1_555 1_555
O35_6 W10_6 1_555 1_555
O36_6 W10_6 1_555 1_555
O37_6 W12_6 1_555 1_555
O38_6 W11_6 1_555 1_555
O39_6 W12_6 1_555 1_555
O40_6 W11_6 1_555 1_555
O41_6 W10_6 1_555 1_555
O42_6 W5_6 1_555 1_555
O43_6 P2_6 1_555 1_555
O44_6 P2_6 1_555 1_555
W13_6 O43_6 1_555 1_555
W14_6 O11_6 1_555 1_555
W15_6 O38_6 1_555 1_555
O45_6 W13_6 1_555 1_555
O46_6 W11_6 1_555 1_555
O47_6 W13_6 1_555 1_555
O48_6 W12_6 1_555 1_555
O49_6 W14_6 1_555 1_555
O50_6 W15_6 1_555 1_555
O51_6 W14_6 1_555 1_555
O52_6 W13_6 1_555 1_555
O53_6 W2_6 1_555 1_555
W16_6 O44_6 1_555 1_555
W17_6 O31_6 1_555 1_555
W18_6 O32_6 1_555 1_555
O54_6 W16_6 1_555 1_555
O55_6 W14_6 1_555 1_555
O56_6 W16_6 1_555 1_555
O57_6 W15_6 1_555 1_555
O58_6 W12_6 1_555 1_555
O59_6 W18_6 1_555 1_555
O60_6 W17_6 1_555 1_555
O61_6 W16_6 1_555 1_555
O62_6 W8_6 1_555 1_555
W2_6 O3_6 1_555 1_555
W3_6 O5_6 1_555 1_555
O6_6 W9_6 1_555 1_555
O13_6 W8_6 1_555 1_555
W4_6 O15_6 1_555 1_555
W5_6 O14_6 1_555 1_555
W6_6 O16_6 1_555 1_555
W6_6 O17_6 1_555 1_555
O18_6 W9_6 1_555 1_555
W7_6 O24_6 1_555 1_555
W8_6 O23_6 1_555 1_555
W8_6 O27_6 1_555 1_555
W9_6 O25_6 1_555 1_555
W9_6 O26_6 1_555 1_555
W10_6 O42_6 1_555 1_555
W11_6 O34_6 1_555 1_555
W12_6 O36_6 1_555 1_555
P2_6 O33_6 1_555 1_555
O35_6 W17_6 1_555 1_555
O37_6 W18_6 1_555 1_555
O43_6 W14_6 1_555 1_555
O44_6 W17_6 1_555 1_555
W13_6 O46_6 1_555 1_555
W13_6 O53_6 1_555 1_555
W14_6 O45_6 1_555 1_555
W15_6 O47_6 1_555 1_555
W15_6 O48_6 1_555 1_555
O49_6 W18_6 1_555 1_555
W16_6 O55_6 1_555 1_555
W16_6 O62_6 1_555 1_555
W17_6 O54_6 1_555 1_555
W17_6 O58_6 1_555 1_555
W18_6 O56_6 1_555 1_555
W18_6 O57_6 1_555 1_555
W1_7 O2_7 1_555 1_555
W2_7 O2_7 1_555 1_555
W3_7 O1_7 1_555 1_555
P1_7 O1_7 1_555 1_555
O1_7 W6_7 1_555 1_555
O2_7 P1_7 1_555 1_555
O3_7 W1_7 1_555 1_555
O4_7 W1_7 1_555 1_555
O5_7 W1_7 1_555 1_555
O6_7 W3_7 1_555 1_555
O7_7 W2_7 1_555 1_555
O8_7 W3_7 1_555 1_555
O9_7 W2_7 1_555 1_555
O10_7 W1_7 1_555 1_555
O11_7 W1_7 1_555 1_555
O12_7 P1_7 1_555 1_555
O13_7 P1_7 1_555 1_555
W4_7 O12_7 1_555 1_555
W5_7 O12_7 1_555 1_555
W6_7 O7_7 1_555 1_555
O14_7 W4_7 1_555 1_555
O15_7 W2_7 1_555 1_555
O16_7 W4_7 1_555 1_555
O17_7 W3_7 1_555 1_555
O18_7 W5_7 1_555 1_555
O19_7 W6_7 1_555 1_555
O20_7 W5_7 1_555 1_555
O21_7 W4_7 1_555 1_555
O22_7 W4_7 1_555 1_555
W7_7 O13_7 1_555 1_555
W8_7 O4_7 1_555 1_555
W9_7 O1_7 1_555 1_555
O23_7 W7_7 1_555 1_555
O24_7 W5_7 1_555 1_555
O25_7 W7_7 1_555 1_555
O26_7 W6_7 1_555 1_555
O27_7 W3_7 1_555 1_555
O28_7 W9_7 1_555 1_555
O29_7 W8_7 1_555 1_555
O30_7 W7_7 1_555 1_555
O31_7 W7_7 1_555 1_555
W10_7 O33_7 1_555 1_555
W11_7 O22_7 1_555 1_555
W12_7 O32_7 1_555 1_555
P2_7 O32_7 1_555 1_555
O32_7 W15_7 1_555 1_555
O33_7 W11_7 1_555 1_555
O34_7 W10_7 1_555 1_555
O35_7 W10_7 1_555 1_555
O36_7 W10_7 1_555 1_555
O37_7 W12_7 1_555 1_555
O38_7 W11_7 1_555 1_555
O39_7 W12_7 1_555 1_555
O40_7 W11_7 1_555 1_555
O41_7 W10_7 1_555 1_555
O42_7 W5_7 1_555 1_555
O43_7 P2_7 1_555 1_555
O44_7 P2_7 1_555 1_555
W13_7 O43_7 1_555 1_555
W14_7 O11_7 1_555 1_555
W15_7 O38_7 1_555 1_555
O45_7 W13_7 1_555 1_555
O46_7 W11_7 1_555 1_555
O47_7 W13_7 1_555 1_555
O48_7 W12_7 1_555 1_555
O49_7 W14_7 1_555 1_555
O50_7 W15_7 1_555 1_555
O51_7 W14_7 1_555 1_555
O52_7 W13_7 1_555 1_555
O53_7 W2_7 1_555 1_555
W16_7 O44_7 1_555 1_555
W17_7 O31_7 1_555 1_555
W18_7 O32_7 1_555 1_555
O54_7 W16_7 1_555 1_555
O55_7 W14_7 1_555 1_555
O56_7 W16_7 1_555 1_555
O57_7 W15_7 1_555 1_555
O58_7 W12_7 1_555 1_555
O59_7 W18_7 1_555 1_555
O60_7 W17_7 1_555 1_555
O61_7 W16_7 1_555 1_555
O62_7 W8_7 1_555 1_555
W2_7 O3_7 1_555 1_555
W3_7 O5_7 1_555 1_555
O6_7 W9_7 1_555 1_555
O13_7 W8_7 1_555 1_555
W4_7 O15_7 1_555 1_555
W5_7 O14_7 1_555 1_555
W6_7 O16_7 1_555 1_555
W6_7 O17_7 1_555 1_555
O18_7 W9_7 1_555 1_555
W7_7 O24_7 1_555 1_555
W8_7 O23_7 1_555 1_555
W8_7 O27_7 1_555 1_555
W9_7 O25_7 1_555 1_555
W9_7 O26_7 1_555 1_555
W10_7 O42_7 1_555 1_555
W11_7 O34_7 1_555 1_555
W12_7 O36_7 1_555 1_555
P2_7 O33_7 1_555 1_555
O35_7 W17_7 1_555 1_555
O37_7 W18_7 1_555 1_555
O43_7 W14_7 1_555 1_555
O44_7 W17_7 1_555 1_555
W13_7 O46_7 1_555 1_555
W13_7 O53_7 1_555 1_555
W14_7 O45_7 1_555 1_555
W15_7 O47_7 1_555 1_555
W15_7 O48_7 1_555 1_555
O49_7 W18_7 1_555 1_555
W16_7 O55_7 1_555 1_555
W16_7 O62_7 1_555 1_555
W17_7 O54_7 1_555 1_555
W17_7 O58_7 1_555 1_555
W18_7 O56_7 1_555 1_555
W18_7 O57_7 1_555 1_555
W1_8 O2_8 1_555 1_555
W2_8 O2_8 1_555 1_555
W3_8 O1_8 1_555 1_555
P1_8 O1_8 1_555 1_555
O1_8 W6_8 1_555 1_555
O2_8 P1_8 1_555 1_555
O3_8 W1_8 1_555 1_555
O4_8 W1_8 1_555 1_555
O5_8 W1_8 1_555 1_555
O6_8 W3_8 1_555 1_555
O7_8 W2_8 1_555 1_555
O8_8 W3_8 1_555 1_555
O9_8 W2_8 1_555 1_555
O10_8 W1_8 1_555 1_555
O11_8 W1_8 1_555 1_555
O12_8 P1_8 1_555 1_555
O13_8 P1_8 1_555 1_555
W4_8 O12_8 1_555 1_555
W5_8 O12_8 1_555 1_555
W6_8 O7_8 1_555 1_555
O14_8 W4_8 1_555 1_555
O15_8 W2_8 1_555 1_555
O16_8 W4_8 1_555 1_555
O17_8 W3_8 1_555 1_555
O18_8 W5_8 1_555 1_555
O19_8 W6_8 1_555 1_555
O20_8 W5_8 1_555 1_555
O21_8 W4_8 1_555 1_555
O22_8 W4_8 1_555 1_555
W7_8 O13_8 1_555 1_555
W8_8 O4_8 1_555 1_555
W9_8 O1_8 1_555 1_555
O23_8 W7_8 1_555 1_555
O24_8 W5_8 1_555 1_555
O25_8 W7_8 1_555 1_555
O26_8 W6_8 1_555 1_555
O27_8 W3_8 1_555 1_555
O28_8 W9_8 1_555 1_555
O29_8 W8_8 1_555 1_555
O30_8 W7_8 1_555 1_555
O31_8 W7_8 1_555 1_555
W10_8 O33_8 1_555 1_555
W11_8 O22_8 1_555 1_555
W12_8 O32_8 1_555 1_555
P2_8 O32_8 1_555 1_555
O32_8 W15_8 1_555 1_555
O33_8 W11_8 1_555 1_555
O34_8 W10_8 1_555 1_555
O35_8 W10_8 1_555 1_555
O36_8 W10_8 1_555 1_555
O37_8 W12_8 1_555 1_555
O38_8 W11_8 1_555 1_555
O39_8 W12_8 1_555 1_555
O40_8 W11_8 1_555 1_555
O41_8 W10_8 1_555 1_555
O42_8 W5_8 1_555 1_555
O43_8 P2_8 1_555 1_555
O44_8 P2_8 1_555 1_555
W13_8 O43_8 1_555 1_555
W14_8 O11_8 1_555 1_555
W15_8 O38_8 1_555 1_555
O45_8 W13_8 1_555 1_555
O46_8 W11_8 1_555 1_555
O47_8 W13_8 1_555 1_555
O48_8 W12_8 1_555 1_555
O49_8 W14_8 1_555 1_555
O50_8 W15_8 1_555 1_555
O51_8 W14_8 1_555 1_555
O52_8 W13_8 1_555 1_555
O53_8 W2_8 1_555 1_555
W16_8 O44_8 1_555 1_555
W17_8 O31_8 1_555 1_555
W18_8 O32_8 1_555 1_555
O54_8 W16_8 1_555 1_555
O55_8 W14_8 1_555 1_555
O56_8 W16_8 1_555 1_555
O57_8 W15_8 1_555 1_555
O58_8 W12_8 1_555 1_555
O59_8 W18_8 1_555 1_555
O60_8 W17_8 1_555 1_555
O61_8 W16_8 1_555 1_555
O62_8 W8_8 1_555 1_555
W2_8 O3_8 1_555 1_555
W3_8 O5_8 1_555 1_555
O6_8 W9_8 1_555 1_555
O13_8 W8_8 1_555 1_555
W4_8 O15_8 1_555 1_555
W5_8 O14_8 1_555 1_555
W6_8 O16_8 1_555 1_555
W6_8 O17_8 1_555 1_555
O18_8 W9_8 1_555 1_555
W7_8 O24_8 1_555 1_555
W8_8 O23_8 1_555 1_555
W8_8 O27_8 1_555 1_555
W9_8 O25_8 1_555 1_555
W9_8 O26_8 1_555 1_555
W10_8 O42_8 1_555 1_555
W11_8 O34_8 1_555 1_555
W12_8 O36_8 1_555 1_555
P2_8 O33_8 1_555 1_555
O35_8 W17_8 1_555 1_555
O37_8 W18_8 1_555 1_555
O43_8 W14_8 1_555 1_555
O44_8 W17_8 1_555 1_555
W13_8 O46_8 1_555 1_555
W13_8 O53_8 1_555 1_555
W14_8 O45_8 1_555 1_555
W15_8 O47_8 1_555 1_555
W15_8 O48_8 1_555 1_555
O49_8 W18_8 1_555 1_555
W16_8 O55_8 1_555 1_555
W16_8 O62_8 1_555 1_555
W17_8 O54_8 1_555 1_555
W17_8 O58_8 1_555 1_555
W18_8 O56_8 1_555 1_555
W18_8 O57_8 1_555 1_555
Cu1 O63 1_555 1_555
O64 C6 1_555 1_555
N1 Cu1 1_555 1_555
N2 H1 1_555 1_555
C1 N1 1_555 1_555
H2 C1 1_555 1_555
C2 C1 1_555 1_555
H3 C2 1_555 1_555
C3 C2 1_555 1_555
H4 C3 1_555 1_555
C4 C3 1_555 1_555
C5 N1 1_555 1_555
H5 C5 1_555 1_555
C6 N2 1_555 1_555
C7 N2 1_555 1_555
H6 C7 1_555 1_555
H7 C7 1_555 1_555
O65 Cu1 1_555 1_555
O66 C13 1_555 1_555
N4 H8 1_555 1_555
H12 C12 1_555 1_555
C13 N4 1_555 1_555
C14 C7 1_555 1_555
H13 C14 1_555 1_555
H14 C14 1_555 1_555
O67 C20 1_555 1_555
N5 Cu1 1_555 1_555
N6 H15 1_555 1_555
C15 N5 1_555 1_555
H16 C15 1_555 1_555
C16 C15 1_555 1_555
H17 C16 1_555 1_555
C17 C16 1_555 1_555
H18 C17 1_555 1_555
C18 C17 1_555 1_555
C19 N5 1_555 1_555
H19 C19 1_555 1_555
C20 N6 1_555 1_555
C21 N6 1_555 1_555
H20 C21 1_555 1_555
H21 C21 1_555 1_555
O68 C27 1_555 1_555
N8 H22 1_555 1_555
H26 C26 1_555 1_555
C27 N8 1_555 1_555
C28 C21 1_555 1_555
H27 C28 1_555 1_555
H28 C28 1_555 1_555
N9 Cu1 1_555 1_555
N10 Cu1 1_555 1_555
C4 C5 1_555 1_555
C4 C6 1_555 1_555
N4 C14 1_555 1_555
C11 C12 1_555 1_555
C11 C13 1_555 1_555
C18 C19 1_555 1_555
C18 C20 1_555 1_555
N8 C28 1_555 1_555
C25 C26 1_555 1_555
C25 C27 1_555 1_555
N3 C8 1_555 1_555
C8 H9 1_555 1_555
C9 C8 1_555 1_555
H10 C9 1_555 1_555
C10 C9 1_555 1_555
H11 C10 1_555 1_555
N7 C22 1_555 1_555
C22 H23 1_555 1_555
C23 C22 1_555 1_555
H24 C23 1_555 1_555
C24 C23 1_555 1_555
H25 C24 1_555 1_555
Cu2_2 N7 1_555 1_555
Cu3_2 N3 1_555 1_555
Cu1_2 O63_2 1_555 1_555
O64_2 C6_2 1_555 1_555
N1_2 Cu1_2 1_555 1_555
N2_2 H1_2 1_555 1_555
C1_2 N1_2 1_555 1_555
H2_2 C1_2 1_555 1_555
C2_2 C1_2 1_555 1_555
H3_2 C2_2 1_555 1_555
C3_2 C2_2 1_555 1_555
H4_2 C3_2 1_555 1_555
C4_2 C3_2 1_555 1_555
C5_2 N1_2 1_555 1_555
H5_2 C5_2 1_555 1_555
C6_2 N2_2 1_555 1_555
C7_2 N2_2 1_555 1_555
H6_2 C7_2 1_555 1_555
H7_2 C7_2 1_555 1_555
O65_2 Cu1_2 1_555 1_555
O66_2 C13_2 1_555 1_555
N4_2 H8_2 1_555 1_555
H12_2 C12_2 1_555 1_555
C13_2 N4_2 1_555 1_555
C14_2 C7_2 1_555 1_555
H13_2 C14_2 1_555 1_555
H14_2 C14_2 1_555 1_555
O67_2 C20_2 1_555 1_555
N5_2 Cu1_2 1_555 1_555
N6_2 H15_2 1_555 1_555
C15_2 N5_2 1_555 1_555
H16_2 C15_2 1_555 1_555
C16_2 C15_2 1_555 1_555
H17_2 C16_2 1_555 1_555
C17_2 C16_2 1_555 1_555
H18_2 C17_2 1_555 1_555
C18_2 C17_2 1_555 1_555
C19_2 N5_2 1_555 1_555
H19_2 C19_2 1_555 1_555
C20_2 N6_2 1_555 1_555
C21_2 N6_2 1_555 1_555
H20_2 C21_2 1_555 1_555
H21_2 C21_2 1_555 1_555
O68_2 C27_2 1_555 1_555
N8_2 H22_2 1_555 1_555
H26_2 C26_2 1_555 1_555
C27_2 N8_2 1_555 1_555
C28_2 C21_2 1_555 1_555
H27_2 C28_2 1_555 1_555
H28_2 C28_2 1_555 1_555
N9_2 Cu1_2 1_555 1_555
N10_2 Cu1_2 1_555 1_555
C4_2 C5_2 1_555 1_555
C4_2 C6_2 1_555 1_555
N4_2 C14_2 1_555 1_555
C11_2 C12_2 1_555 1_555
C11_2 C13_2 1_555 1_555
C18_2 C19_2 1_555 1_555
C18_2 C20_2 1_555 1_555
N8_2 C28_2 1_555 1_555
C25_2 C26_2 1_555 1_555
C25_2 C27_2 1_555 1_555
N3_2 C8_2 1_555 1_555
C8_2 H9_2 1_555 1_555
C9_2 C8_2 1_555 1_555
H10_2 C9_2 1_555 1_555
C10_2 C9_2 1_555 1_555
H11_2 C10_2 1_555 1_555
N7_2 C22_2 1_555 1_555
C22_2 H23_2 1_555 1_555
C23_2 C22_2 1_555 1_555
H24_2 C23_2 1_555 1_555
C24_2 C23_2 1_555 1_555
H25_2 C24_2 1_555 1_555
Cu2 N7_2 1_555 1_555
Cu3 N3_2 1_555 1_555
N3_3 C8_3 1_555 1_555
C8_3 H9_3 1_555 1_555
C9_3 C8_3 1_555 1_555
H10_3 C9_3 1_555 1_555
C10_3 C9_3 1_555 1_555
H11_3 C10_3 1_555 1_555
N7_3 C22_3 1_555 1_555
C22_3 H23_3 1_555 1_555
C23_3 C22_3 1_555 1_555
H24_3 C23_3 1_555 1_555
C24_3 C23_3 1_555 1_555
H25_3 C24_3 1_555 1_555
Cu2_4 N7_3 1_555 1_555
Cu3_3 N3_3 1_555 1_555
N3_4 C8_4 1_555 1_555
C8_4 H9_4 1_555 1_555
C9_4 C8_4 1_555 1_555
H10_4 C9_4 1_555 1_555
C10_4 C9_4 1_555 1_555
H11_4 C10_4 1_555 1_555
N7_4 C22_4 1_555 1_555
C22_4 H23_4 1_555 1_555
C23_4 C22_4 1_555 1_555
H24_4 C23_4 1_555 1_555
C24_4 C23_4 1_555 1_555
H25_4 C24_4 1_555 1_555
Cu2_3 N7_4 1_555 1_555
Cu3_4 N3_4 1_555 1_555
O64_3 C6_3 1_555 1_555
N2_3 H1_3 1_555 1_555
C1_3 N10_2 1_555 1_555
H2_3 C1_3 1_555 1_555
C2_3 C1_3 1_555 1_555
H3_3 C2_3 1_555 1_555
C3_3 C2_3 1_555 1_555
H4_3 C3_3 1_555 1_555
C4_3 C3_3 1_555 1_555
C5_3 N10_2 1_555 1_555
H5_3 C5_3 1_555 1_555
C6_3 N2_3 1_555 1_555
C7_3 N2_3 1_555 1_555
H6_3 C7_3 1_555 1_555
H7_3 C7_3 1_555 1_555
O66_3 C13_3 1_555 1_555
N4_3 H8_3 1_555 1_555
H12_3 C12_3 1_555 1_555
C13_3 N4_3 1_555 1_555
C14_3 C7_3 1_555 1_555
H13_3 C14_3 1_555 1_555
H14_3 C14_3 1_555 1_555
O67_3 C20_3 1_555 1_555
N6_3 H15_3 1_555 1_555
C15_3 N9_2 1_555 1_555
H16_3 C15_3 1_555 1_555
C16_3 C15_3 1_555 1_555
H17_3 C16_3 1_555 1_555
C17_3 C16_3 1_555 1_555
H18_3 C17_3 1_555 1_555
C18_3 C17_3 1_555 1_555
C19_3 N9_2 1_555 1_555
H19_3 C19_3 1_555 1_555
C20_3 N6_3 1_555 1_555
C21_3 N6_3 1_555 1_555
H20_3 C21_3 1_555 1_555
H21_3 C21_3 1_555 1_555
O68_3 C27_3 1_555 1_555
N8_3 H22_3 1_555 1_555
H26_3 C26_3 1_555 1_555
C27_3 N8_3 1_555 1_555
C28_3 C21_3 1_555 1_555
H27_3 C28_3 1_555 1_555
H28_3 C28_3 1_555 1_555
C4_3 C5_3 1_555 1_555
C4_3 C6_3 1_555 1_555
N4_3 C14_3 1_555 1_555
C11_3 C12_3 1_555 1_555
C11_3 C13_3 1_555 1_555
C18_3 C19_3 1_555 1_555
C18_3 C20_3 1_555 1_555
N8_3 C28_3 1_555 1_555
C25_3 C26_3 1_555 1_555
C25_3 C27_3 1_555 1_555
O64_4 C6_4 1_555 1_555
N2_4 H1_4 1_555 1_555
C1_4 N9 1_555 1_555
H2_4 C1_4 1_555 1_555
C2_4 C1_4 1_555 1_555
H3_4 C2_4 1_555 1_555
C3_4 C2_4 1_555 1_555
H4_4 C3_4 1_555 1_555
C4_4 C3_4 1_555 1_555
C5_4 N9 1_555 1_555
H5_4 C5_4 1_555 1_555
C6_4 N2_4 1_555 1_555
C7_4 N2_4 1_555 1_555
H6_4 C7_4 1_555 1_555
H7_4 C7_4 1_555 1_555
O66_4 C13_4 1_555 1_555
N4_4 H8_4 1_555 1_555
H12_4 C12_4 1_555 1_555
C13_4 N4_4 1_555 1_555
C14_4 C7_4 1_555 1_555
H13_4 C14_4 1_555 1_555
H14_4 C14_4 1_555 1_555
O67_4 C20_4 1_555 1_555
N6_4 H15_4 1_555 1_555
C15_4 N10 1_555 1_555
H16_4 C15_4 1_555 1_555
C16_4 C15_4 1_555 1_555
H17_4 C16_4 1_555 1_555
C17_4 C16_4 1_555 1_555
H18_4 C17_4 1_555 1_555
C18_4 C17_4 1_555 1_555
C19_4 N10 1_555 1_555
H19_4 C19_4 1_555 1_555
C20_4 N6_4 1_555 1_555
C21_4 N6_4 1_555 1_555
H20_4 C21_4 1_555 1_555
H21_4 C21_4 1_555 1_555
O68_4 C27_4 1_555 1_555
N8_4 H22_4 1_555 1_555
H26_4 C26_4 1_555 1_555
C27_4 N8_4 1_555 1_555
C28_4 C21_4 1_555 1_555
H27_4 C28_4 1_555 1_555
H28_4 C28_4 1_555 1_555
C4_4 C5_4 1_555 1_555
C4_4 C6_4 1_555 1_555
N4_4 C14_4 1_555 1_555
C11_4 C12_4 1_555 1_555
C11_4 C13_4 1_555 1_555
C18_4 C19_4 1_555 1_555
C18_4 C20_4 1_555 1_555
N8_4 C28_4 1_555 1_555
C25_4 C26_4 1_555 1_555
C25_4 C27_4 1_555 1_555
Cu3_3 O63_3 1_555 1_555
O65_3 Cu3_3 1_555 1_555
O65_3 H30 1_555 1_555
O63_3 H32 1_555 1_555
Cu3_4 O63_4 1_555 1_555
O65_4 Cu3_4 1_555 1_555
O63_4 H31 1_555 1_555
Cu2_3 O63_5 1_555 1_555
O65_5 Cu2_3 1_555 1_555
O63_5 H31_2 1_555 1_555
Cu2_4 O63_6 1_555 1_555
O65_6 Cu2_4 1_555 1_555
O65_6 H30_2 1_555 1_555
O63_6 H32_2 1_555 1_555
O65_5 H30_3 1_555 1_555
O63_5 H32_3 1_555 1_555
O63_6 H31_3 1_555 1_555
O63_3 H31_4 1_555 1_555
O65_4 H30_4 1_555 1_555
O63_4 H32_4 1_555 1_555
Cu2 O63_7 1_555 1_555
O65_7 Cu2 1_555 1_555
O65_7 H30_5 1_555 1_555
O63_7 H32_5 1_555 1_555
Cu2_2 O63_8 1_555 1_555
O65_8 Cu2_2 1_555 1_555
O63_8 H31_5 1_555 1_555
O65_7 H29 1_555 1_555
O63_7 H31_6 1_555 1_555
O65_8 H30_6 1_555 1_555
O63_8 H32_6 1_555 1_555
O65_8 H29_2 1_555 1_555
Cu3 O63_9 1_555 1_555
O65_9 Cu3 1_555 1_555
O65_9 H30_7 1_555 1_555
O63_9 H32_7 1_555 1_555
Cu3_2 O63_10 1_555 1_555
O65_10 Cu3_2 1_555 1_555
O63_10 H31_7 1_555 1_555
O65_10 H29_3 1_555 1_555
O63_9 H31_8 1_555 1_555
O65_10 H30_8 1_555 1_555
O63_10 H32_8 1_555 1_555
O65_9 H29_4 1_555 1_555
O65_5 H29_5 1_555 1_555
O65_6 H29_6 1_555 1_555
O65_4 H29_7 1_555 1_555
O65_3 H29_8 1_555 1_555
N3_5 C8_5 1_555 1_555
C8_5 H9_5 1_555 1_555
C9_5 C8_5 1_555 1_555
H10_5 C9_5 1_555 1_555
C10_5 C9_5 1_555 1_555
H11_5 C10_5 1_555 1_555
N7_5 C22_5 1_555 1_555
C22_5 H23_5 1_555 1_555
C23_5 C22_5 1_555 1_555
H24_5 C23_5 1_555 1_555
C24_5 C23_5 1_555 1_555
H25_5 C24_5 1_555 1_555
Cu2_6 N7_5 1_555 1_555
Cu3_5 N3_5 1_555 1_555
Cu1_3 O63_11 1_555 1_555
O64_5 C6_5 1_555 1_555
N1_3 Cu1_3 1_555 1_555
N2_5 H1_5 1_555 1_555
C1_5 N1_3 1_555 1_555
H2_5 C1_5 1_555 1_555
C2_5 C1_5 1_555 1_555
H3_5 C2_5 1_555 1_555
C3_5 C2_5 1_555 1_555
H4_5 C3_5 1_555 1_555
C4_5 C3_5 1_555 1_555
C5_5 N1_3 1_555 1_555
H5_5 C5_5 1_555 1_555
C6_5 N2_5 1_555 1_555
C7_5 N2_5 1_555 1_555
H6_5 C7_5 1_555 1_555
H7_5 C7_5 1_555 1_555
O65_11 Cu1_3 1_555 1_555
O66_5 C13_5 1_555 1_555
N4_5 H8_5 1_555 1_555
H12_5 C12_5 1_555 1_555
C13_5 N4_5 1_555 1_555
C14_5 C7_5 1_555 1_555
H13_5 C14_5 1_555 1_555
H14_5 C14_5 1_555 1_555
O67_5 C20_5 1_555 1_555
N5_3 Cu1_3 1_555 1_555
N6_5 H15_5 1_555 1_555
C15_5 N5_3 1_555 1_555
H16_5 C15_5 1_555 1_555
C16_5 C15_5 1_555 1_555
H17_5 C16_5 1_555 1_555
C17_5 C16_5 1_555 1_555
H18_5 C17_5 1_555 1_555
C18_5 C17_5 1_555 1_555
C19_5 N5_3 1_555 1_555
H19_5 C19_5 1_555 1_555
C20_5 N6_5 1_555 1_555
C21_5 N6_5 1_555 1_555
H20_5 C21_5 1_555 1_555
H21_5 C21_5 1_555 1_555
O68_5 C27_5 1_555 1_555
N8_5 H22_5 1_555 1_555
H26_5 C26_5 1_555 1_555
C27_5 N8_5 1_555 1_555
C28_5 C21_5 1_555 1_555
H27_5 C28_5 1_555 1_555
H28_5 C28_5 1_555 1_555
N9_3 Cu1_3 1_555 1_555
N10_3 Cu1_3 1_555 1_555
C4_5 C5_5 1_555 1_555
C4_5 C6_5 1_555 1_555
N4_5 C14_5 1_555 1_555
C11_5 C12_5 1_555 1_555
C11_5 C13_5 1_555 1_555
C18_5 C19_5 1_555 1_555
C18_5 C20_5 1_555 1_555
N8_5 C28_5 1_555 1_555
C25_5 C26_5 1_555 1_555
C25_5 C27_5 1_555 1_555
N3_6 C8_6 1_555 1_555
C8_6 H9_6 1_555 1_555
C9_6 C8_6 1_555 1_555
H10_6 C9_6 1_555 1_555
C10_6 C9_6 1_555 1_555
H11_6 C10_6 1_555 1_555
N7_6 C22_6 1_555 1_555
C22_6 H23_6 1_555 1_555
C23_6 C22_6 1_555 1_555
H24_6 C23_6 1_555 1_555
C24_6 C23_6 1_555 1_555
H25_6 C24_6 1_555 1_555
Cu2_5 N7_6 1_555 1_555
Cu3_6 N3_6 1_555 1_555
Cu1_4 O63_12 1_555 1_555
O64_6 C6_6 1_555 1_555
N1_4 Cu1_4 1_555 1_555
N2_6 H1_6 1_555 1_555
C1_6 N1_4 1_555 1_555
H2_6 C1_6 1_555 1_555
C2_6 C1_6 1_555 1_555
H3_6 C2_6 1_555 1_555
C3_6 C2_6 1_555 1_555
H4_6 C3_6 1_555 1_555
C4_6 C3_6 1_555 1_555
C5_6 N1_4 1_555 1_555
H5_6 C5_6 1_555 1_555
C6_6 N2_6 1_555 1_555
C7_6 N2_6 1_555 1_555
H6_6 C7_6 1_555 1_555
H7_6 C7_6 1_555 1_555
O65_12 Cu1_4 1_555 1_555
O66_6 C13_6 1_555 1_555
N4_6 H8_6 1_555 1_555
H12_6 C12_6 1_555 1_555
C13_6 N4_6 1_555 1_555
C14_6 C7_6 1_555 1_555
H13_6 C14_6 1_555 1_555
H14_6 C14_6 1_555 1_555
O67_6 C20_6 1_555 1_555
N5_4 Cu1_4 1_555 1_555
N6_6 H15_6 1_555 1_555
C15_6 N5_4 1_555 1_555
H16_6 C15_6 1_555 1_555
C16_6 C15_6 1_555 1_555
H17_6 C16_6 1_555 1_555
C17_6 C16_6 1_555 1_555
H18_6 C17_6 1_555 1_555
C18_6 C17_6 1_555 1_555
C19_6 N5_4 1_555 1_555
H19_6 C19_6 1_555 1_555
C20_6 N6_6 1_555 1_555
C21_6 N6_6 1_555 1_555
H20_6 C21_6 1_555 1_555
H21_6 C21_6 1_555 1_555
O68_6 C27_6 1_555 1_555
N8_6 H22_6 1_555 1_555
H26_6 C26_6 1_555 1_555
C27_6 N8_6 1_555 1_555
C28_6 C21_6 1_555 1_555
H27_6 C28_6 1_555 1_555
H28_6 C28_6 1_555 1_555
N9_4 Cu1_4 1_555 1_555
N10_4 Cu1_4 1_555 1_555
C4_6 C5_6 1_555 1_555
C4_6 C6_6 1_555 1_555
N4_6 C14_6 1_555 1_555
C11_6 C12_6 1_555 1_555
C11_6 C13_6 1_555 1_555
C18_6 C19_6 1_555 1_555
C18_6 C20_6 1_555 1_555
N8_6 C28_6 1_555 1_555
C25_6 C26_6 1_555 1_555
C25_6 C27_6 1_555 1_555
N3_7 C8_7 1_555 1_555
C8_7 H9_7 1_555 1_555
C9_7 C8_7 1_555 1_555
H10_7 C9_7 1_555 1_555
C10_7 C9_7 1_555 1_555
H11_7 C10_7 1_555 1_555
N7_7 C22_7 1_555 1_555
C22_7 H23_7 1_555 1_555
C23_7 C22_7 1_555 1_555
H24_7 C23_7 1_555 1_555
C24_7 C23_7 1_555 1_555
H25_7 C24_7 1_555 1_555
Cu2_7 N7_7 1_555 1_555
Cu3_8 N3_7 1_555 1_555
N3_8 C8_8 1_555 1_555
C8_8 H9_8 1_555 1_555
C9_8 C8_8 1_555 1_555
H10_8 C9_8 1_555 1_555
C10_8 C9_8 1_555 1_555
H11_8 C10_8 1_555 1_555
N7_8 C22_8 1_555 1_555
C22_8 H23_8 1_555 1_555
C23_8 C22_8 1_555 1_555
H24_8 C23_8 1_555 1_555
C24_8 C23_8 1_555 1_555
H25_8 C24_8 1_555 1_555
Cu2_8 N7_8 1_555 1_555
Cu3_7 N3_8 1_555 1_555
O64_7 C6_7 1_555 1_555
N2_7 H1_7 1_555 1_555
C1_7 N9_4 1_555 1_555
H2_7 C1_7 1_555 1_555
C2_7 C1_7 1_555 1_555
H3_7 C2_7 1_555 1_555
C3_7 C2_7 1_555 1_555
H4_7 C3_7 1_555 1_555
C4_7 C3_7 1_555 1_555
C5_7 N9_4 1_555 1_555
H5_7 C5_7 1_555 1_555
C6_7 N2_7 1_555 1_555
C7_7 N2_7 1_555 1_555
H6_7 C7_7 1_555 1_555
H7_7 C7_7 1_555 1_555
O66_7 C13_7 1_555 1_555
N4_7 H8_7 1_555 1_555
H12_7 C12_7 1_555 1_555
C13_7 N4_7 1_555 1_555
C14_7 C7_7 1_555 1_555
H13_7 C14_7 1_555 1_555
H14_7 C14_7 1_555 1_555
O67_7 C20_7 1_555 1_555
N6_7 H15_7 1_555 1_555
C15_7 N10_4 1_555 1_555
H16_7 C15_7 1_555 1_555
C16_7 C15_7 1_555 1_555
H17_7 C16_7 1_555 1_555
C17_7 C16_7 1_555 1_555
H18_7 C17_7 1_555 1_555
C18_7 C17_7 1_555 1_555
C19_7 N10_4 1_555 1_555
H19_7 C19_7 1_555 1_555
C20_7 N6_7 1_555 1_555
C21_7 N6_7 1_555 1_555
H20_7 C21_7 1_555 1_555
H21_7 C21_7 1_555 1_555
O68_7 C27_7 1_555 1_555
N8_7 H22_7 1_555 1_555
H26_7 C26_7 1_555 1_555
C27_7 N8_7 1_555 1_555
C28_7 C21_7 1_555 1_555
H27_7 C28_7 1_555 1_555
H28_7 C28_7 1_555 1_555
C4_7 C5_7 1_555 1_555
C4_7 C6_7 1_555 1_555
N4_7 C14_7 1_555 1_555
C11_7 C12_7 1_555 1_555
C11_7 C13_7 1_555 1_555
C18_7 C19_7 1_555 1_555
C18_7 C20_7 1_555 1_555
N8_7 C28_7 1_555 1_555
C25_7 C26_7 1_555 1_555
C25_7 C27_7 1_555 1_555
O64_8 C6_8 1_555 1_555
N2_8 H1_8 1_555 1_555
C1_8 N9_3 1_555 1_555
H2_8 C1_8 1_555 1_555
C2_8 C1_8 1_555 1_555
H3_8 C2_8 1_555 1_555
C3_8 C2_8 1_555 1_555
H4_8 C3_8 1_555 1_555
C4_8 C3_8 1_555 1_555
C5_8 N9_3 1_555 1_555
H5_8 C5_8 1_555 1_555
C6_8 N2_8 1_555 1_555
C7_8 N2_8 1_555 1_555
H6_8 C7_8 1_555 1_555
H7_8 C7_8 1_555 1_555
O66_8 C13_8 1_555 1_555
N4_8 H8_8 1_555 1_555
H12_8 C12_8 1_555 1_555
C13_8 N4_8 1_555 1_555
C14_8 C7_8 1_555 1_555
H13_8 C14_8 1_555 1_555
H14_8 C14_8 1_555 1_555
O67_8 C20_8 1_555 1_555
N6_8 H15_8 1_555 1_555
C15_8 N10_3 1_555 1_555
H16_8 C15_8 1_555 1_555
C16_8 C15_8 1_555 1_555
H17_8 C16_8 1_555 1_555
C17_8 C16_8 1_555 1_555
H18_8 C17_8 1_555 1_555
C18_8 C17_8 1_555 1_555
C19_8 N10_3 1_555 1_555
H19_8 C19_8 1_555 1_555
C20_8 N6_8 1_555 1_555
C21_8 N6_8 1_555 1_555
H20_8 C21_8 1_555 1_555
H21_8 C21_8 1_555 1_555
O68_8 C27_8 1_555 1_555
N8_8 H22_8 1_555 1_555
H26_8 C26_8 1_555 1_555
C27_8 N8_8 1_555 1_555
C28_8 C21_8 1_555 1_555
H27_8 C28_8 1_555 1_555
H28_8 C28_8 1_555 1_555
C4_8 C5_8 1_555 1_555
C4_8 C6_8 1_555 1_555
N4_8 C14_8 1_555 1_555
C11_8 C12_8 1_555 1_555
C11_8 C13_8 1_555 1_555
C18_8 C19_8 1_555 1_555
C18_8 C20_8 1_555 1_555
N8_8 C28_8 1_555 1_555
C25_8 C26_8 1_555 1_555
C25_8 C27_8 1_555 1_555
Cu2_7 O63_13 1_555 1_555
O65_13 Cu2_7 1_555 1_555
O65_13 H30_9 1_555 1_555
O63_13 H32_9 1_555 1_555
Cu2_8 O63_14 1_555 1_555
O65_14 Cu2_8 1_555 1_555
O63_14 H31_9 1_555 1_555
Cu3_7 O63_15 1_555 1_555
O65_15 Cu3_7 1_555 1_555
O63_15 H31_10 1_555 1_555
Cu3_8 O63_16 1_555 1_555
O65_16 Cu3_8 1_555 1_555
O65_16 H30_10 1_555 1_555
O63_16 H32_10 1_555 1_555
O65_15 H30_11 1_555 1_555
O63_15 H32_11 1_555 1_555
O63_16 H31_11 1_555 1_555
O63_13 H31_12 1_555 1_555
O65_14 H30_12 1_555 1_555
O63_14 H32_12 1_555 1_555
Cu2_5 O63_17 1_555 1_555
O65_17 Cu2_5 1_555 1_555
O65_17 H29_9 1_555 1_555
Cu2_6 O63_18 1_555 1_555
O65_18 Cu2_6 1_555 1_555
O63_17 H31_13 1_555 1_555
O65_18 H30_13 1_555 1_555
O63_18 H32_13 1_555 1_555
O65_18 H29_10 1_555 1_555
O65_17 H30_14 1_555 1_555
O63_17 H32_14 1_555 1_555
O63_18 H31_14 1_555 1_555
Cu3_5 O63_19 1_555 1_555
O65_19 Cu3_5 1_555 1_555
O65_19 H29_11 1_555 1_555
Cu3_6 O63_20 1_555 1_555
O65_20 Cu3_6 1_555 1_555
O65_19 H30_15 1_555 1_555
O63_19 H32_15 1_555 1_555
O63_20 H31_15 1_555 1_555
O65_20 H29_12 1_555 1_555
O63_19 H31_16 1_555 1_555
O65_20 H30_16 1_555 1_555
O63_20 H32_16 1_555 1_555
O65_16 H29_13 1_555 1_555
O65_14 H29_14 1_555 1_555
O65_13 H29_15 1_555 1_555
O65_15 H29_16 1_555 1_555
Cu1_5 O63_21 1_555 1_555
O64_9 C6_9 1_555 1_555
N1_5 Cu1_5 1_555 1_555
N2_9 H1_9 1_555 1_555
C1_9 N1_5 1_555 1_555
H2_9 C1_9 1_555 1_555
C2_9 C1_9 1_555 1_555
H3_9 C2_9 1_555 1_555
C3_9 C2_9 1_555 1_555
H4_9 C3_9 1_555 1_555
C4_9 C3_9 1_555 1_555
C5_9 N1_5 1_555 1_555
H5_9 C5_9 1_555 1_555
C6_9 N2_9 1_555 1_555
C7_9 N2_9 1_555 1_555
H6_9 C7_9 1_555 1_555
H7_9 C7_9 1_555 1_555
O65_21 Cu1_5 1_555 1_555
O66_9 C13_9 1_555 1_555
N4_9 H8_9 1_555 1_555
H12_9 C12_9 1_555 1_555
C13_9 N4_9 1_555 1_555
C14_9 C7_9 1_555 1_555
H13_9 C14_9 1_555 1_555
H14_9 C14_9 1_555 1_555
O67_9 C20_9 1_555 1_555
N5_5 Cu1_5 1_555 1_555
N6_9 H15_9 1_555 1_555
C15_9 N5_5 1_555 1_555
H16_9 C15_9 1_555 1_555
C16_9 C15_9 1_555 1_555
H17_9 C16_9 1_555 1_555
C17_9 C16_9 1_555 1_555
H18_9 C17_9 1_555 1_555
C18_9 C17_9 1_555 1_555
C19_9 N5_5 1_555 1_555
H19_9 C19_9 1_555 1_555
C20_9 N6_9 1_555 1_555
C21_9 N6_9 1_555 1_555
H20_9 C21_9 1_555 1_555
H21_9 C21_9 1_555 1_555
O68_9 C27_9 1_555 1_555
N8_9 H22_9 1_555 1_555
H26_9 C26_9 1_555 1_555
C27_9 N8_9 1_555 1_555
C28_9 C21_9 1_555 1_555
H27_9 C28_9 1_555 1_555
H28_9 C28_9 1_555 1_555
N9_5 Cu1_5 1_555 1_555
N10_5 Cu1_5 1_555 1_555
C4_9 C5_9 1_555 1_555
C4_9 C6_9 1_555 1_555
N4_9 C14_9 1_555 1_555
C11_9 C12_9 1_555 1_555
C11_9 C13_9 1_555 1_555
C18_9 C19_9 1_555 1_555
C18_9 C20_9 1_555 1_555
N8_9 C28_9 1_555 1_555
C25_9 C26_9 1_555 1_555
C25_9 C27_9 1_555 1_555
O64_10 C6_10 1_555 1_555
N2_10 H1_10 1_555 1_555
C1_10 N10_5 1_555 1_555
H2_10 C1_10 1_555 1_555
C2_10 C1_10 1_555 1_555
H3_10 C2_10 1_555 1_555
C3_10 C2_10 1_555 1_555
H4_10 C3_10 1_555 1_555
C4_10 C3_10 1_555 1_555
C5_10 N10_5 1_555 1_555
H5_10 C5_10 1_555 1_555
C6_10 N2_10 1_555 1_555
C7_10 N2_10 1_555 1_555
H6_10 C7_10 1_555 1_555
H7_10 C7_10 1_555 1_555
O66_10 C13_10 1_555 1_555
N4_10 H8_10 1_555 1_555
H12_10 C12_10 1_555 1_555
C13_10 N4_10 1_555 1_555
C14_10 C7_10 1_555 1_555
H13_10 C14_10 1_555 1_555
H14_10 C14_10 1_555 1_555
O67_10 C20_10 1_555 1_555
N6_10 H15_10 1_555 1_555
C15_10 N9_5 1_555 1_555
H16_10 C15_10 1_555 1_555
C16_10 C15_10 1_555 1_555
H17_10 C16_10 1_555 1_555
C17_10 C16_10 1_555 1_555
H18_10 C17_10 1_555 1_555
C18_10 C17_10 1_555 1_555
C19_10 N9_5 1_555 1_555
H19_10 C19_10 1_555 1_555
C20_10 N6_10 1_555 1_555
C21_10 N6_10 1_555 1_555
H20_10 C21_10 1_555 1_555
H21_10 C21_10 1_555 1_555
O68_10 C27_10 1_555 1_555
N8_10 H22_10 1_555 1_555
H26_10 C26_10 1_555 1_555
C27_10 N8_10 1_555 1_555
C28_10 C21_10 1_555 1_555
H27_10 C28_10 1_555 1_555
H28_10 C28_10 1_555 1_555
C4_10 C5_10 1_555 1_555
C4_10 C6_10 1_555 1_555
N4_10 C14_10 1_555 1_555
C11_10 C12_10 1_555 1_555
C11_10 C13_10 1_555 1_555
C18_10 C19_10 1_555 1_555
C18_10 C20_10 1_555 1_555
N8_10 C28_10 1_555 1_555
C25_10 C26_10 1_555 1_555
C25_10 C27_10 1_555 1_555
Cu1_6 O63_22 1_555 1_555
O64_11 C6_11 1_555 1_555
N1_6 Cu1_6 1_555 1_555
N2_11 H1_11 1_555 1_555
C1_11 N1_6 1_555 1_555
H2_11 C1_11 1_555 1_555
C2_11 C1_11 1_555 1_555
H3_11 C2_11 1_555 1_555
C3_11 C2_11 1_555 1_555
H4_11 C3_11 1_555 1_555
C4_11 C3_11 1_555 1_555
C5_11 N1_6 1_555 1_555
H5_11 C5_11 1_555 1_555
C6_11 N2_11 1_555 1_555
C7_11 N2_11 1_555 1_555
H6_11 C7_11 1_555 1_555
H7_11 C7_11 1_555 1_555
O65_22 Cu1_6 1_555 1_555
O66_11 C13_11 1_555 1_555
N4_11 H8_11 1_555 1_555
H12_11 C12_11 1_555 1_555
C13_11 N4_11 1_555 1_555
C14_11 C7_11 1_555 1_555
H13_11 C14_11 1_555 1_555
H14_11 C14_11 1_555 1_555
O67_11 C20_11 1_555 1_555
N5_6 Cu1_6 1_555 1_555
N6_11 H15_11 1_555 1_555
C15_11 N5_6 1_555 1_555
H16_11 C15_11 1_555 1_555
C16_11 C15_11 1_555 1_555
H17_11 C16_11 1_555 1_555
C17_11 C16_11 1_555 1_555
H18_11 C17_11 1_555 1_555
C18_11 C17_11 1_555 1_555
C19_11 N5_6 1_555 1_555
H19_11 C19_11 1_555 1_555
C20_11 N6_11 1_555 1_555
C21_11 N6_11 1_555 1_555
H20_11 C21_11 1_555 1_555
H21_11 C21_11 1_555 1_555
O68_11 C27_11 1_555 1_555
N8_11 H22_11 1_555 1_555
H26_11 C26_11 1_555 1_555
C27_11 N8_11 1_555 1_555
C28_11 C21_11 1_555 1_555
H27_11 C28_11 1_555 1_555
H28_11 C28_11 1_555 1_555
N9_6 Cu1_6 1_555 1_555
N10_6 Cu1_6 1_555 1_555
C4_11 C5_11 1_555 1_555
C4_11 C6_11 1_555 1_555
N4_11 C14_11 1_555 1_555
C11_11 C12_11 1_555 1_555
C11_11 C13_11 1_555 1_555
C18_11 C19_11 1_555 1_555
C18_11 C20_11 1_555 1_555
N8_11 C28_11 1_555 1_555
C25_11 C26_11 1_555 1_555
C25_11 C27_11 1_555 1_555
O64_12 C6_12 1_555 1_555
N2_12 H1_12 1_555 1_555
C1_12 N9_6 1_555 1_555
H2_12 C1_12 1_555 1_555
C2_12 C1_12 1_555 1_555
H3_12 C2_12 1_555 1_555
C3_12 C2_12 1_555 1_555
H4_12 C3_12 1_555 1_555
C4_12 C3_12 1_555 1_555
C5_12 N9_6 1_555 1_555
H5_12 C5_12 1_555 1_555
C6_12 N2_12 1_555 1_555
C7_12 N2_12 1_555 1_555
H6_12 C7_12 1_555 1_555
H7_12 C7_12 1_555 1_555
O66_12 C13_12 1_555 1_555
N4_12 H8_12 1_555 1_555
H12_12 C12_12 1_555 1_555
C13_12 N4_12 1_555 1_555
C14_12 C7_12 1_555 1_555
H13_12 C14_12 1_555 1_555
H14_12 C14_12 1_555 1_555
O67_12 C20_12 1_555 1_555
N6_12 H15_12 1_555 1_555
C15_12 N10_6 1_555 1_555
H16_12 C15_12 1_555 1_555
C16_12 C15_12 1_555 1_555
H17_12 C16_12 1_555 1_555
C17_12 C16_12 1_555 1_555
H18_12 C17_12 1_555 1_555
C18_12 C17_12 1_555 1_555
C19_12 N10_6 1_555 1_555
H19_12 C19_12 1_555 1_555
C20_12 N6_12 1_555 1_555
C21_12 N6_12 1_555 1_555
H20_12 C21_12 1_555 1_555
H21_12 C21_12 1_555 1_555
O68_12 C27_12 1_555 1_555
N8_12 H22_12 1_555 1_555
H26_12 C26_12 1_555 1_555
C27_12 N8_12 1_555 1_555
C28_12 C21_12 1_555 1_555
H27_12 C28_12 1_555 1_555
H28_12 C28_12 1_555 1_555
C4_12 C5_12 1_555 1_555
C4_12 C6_12 1_555 1_555
N4_12 C14_12 1_555 1_555
C11_12 C12_12 1_555 1_555
C11_12 C13_12 1_555 1_555
C18_12 C19_12 1_555 1_555
C18_12 C20_12 1_555 1_555
N8_12 C28_12 1_555 1_555
C25_12 C26_12 1_555 1_555
C25_12 C27_12 1_555 1_555
N3_9 C8_9 1_555 1_555
C8_9 H9_9 1_555 1_555
C9_9 C8_9 1_555 1_555
H10_9 C9_9 1_555 1_555
C10_9 C9_9 1_555 1_555
H11_9 C10_9 1_555 1_555
N7_9 C22_9 1_555 1_555
C22_9 H23_9 1_555 1_555
C23_9 C22_9 1_555 1_555
H24_9 C23_9 1_555 1_555
C24_9 C23_9 1_555 1_555
H25_9 C24_9 1_555 1_555
Cu2_11 N7_9 1_555 1_555
Cu3_11 N3_9 1_555 1_555
N3_10 C8_10 1_555 1_555
C8_10 H9_10 1_555 1_555
C9_10 C8_10 1_555 1_555
H10_10 C9_10 1_555 1_555
C10_10 C9_10 1_555 1_555
H11_10 C10_10 1_555 1_555
N7_10 C22_10 1_555 1_555
C22_10 H23_10 1_555 1_555
C23_10 C22_10 1_555 1_555
H24_10 C23_10 1_555 1_555
C24_10 C23_10 1_555 1_555
H25_10 C24_10 1_555 1_555
Cu3_10 N7_10 1_555 1_555
Cu2_10 N3_10 1_555 1_555
N3_11 C8_11 1_555 1_555
C8_11 H9_11 1_555 1_555
C9_11 C8_11 1_555 1_555
H10_11 C9_11 1_555 1_555
C10_11 C9_11 1_555 1_555
H11_11 C10_11 1_555 1_555
N7_11 C22_11 1_555 1_555
C22_11 H23_11 1_555 1_555
C23_11 C22_11 1_555 1_555
H24_11 C23_11 1_555 1_555
C24_11 C23_11 1_555 1_555
H25_11 C24_11 1_555 1_555
Cu3_9 N7_11 1_555 1_555
Cu2_9 N3_11 1_555 1_555
N3_12 C8_12 1_555 1_555
C8_12 H9_12 1_555 1_555
C9_12 C8_12 1_555 1_555
H10_12 C9_12 1_555 1_555
C10_12 C9_12 1_555 1_555
H11_12 C10_12 1_555 1_555
N7_12 C22_12 1_555 1_555
C22_12 H23_12 1_555 1_555
C23_12 C22_12 1_555 1_555
H24_12 C23_12 1_555 1_555
C24_12 C23_12 1_555 1_555
H25_12 C24_12 1_555 1_555
Cu3_12 N7_12 1_555 1_555
Cu2_12 N3_12 1_555 1_555
Cu2_11 O63_23 1_555 1_555
O65_23 Cu2_11 1_555 1_555
Cu2_12 O63_24 1_555 1_555
O65_24 Cu2_12 1_555 1_555
O65_24 H29_17 1_555 1_555
Cu3_9 O63_25 1_555 1_555
O65_25 Cu3_9 1_555 1_555
Cu3_10 O63_26 1_555 1_555
O65_26 Cu3_10 1_555 1_555
O65_26 H29_18 1_555 1_555
Cu3_11 O63_27 1_555 1_555
O65_27 Cu3_11 1_555 1_555
O65_27 H29_19 1_555 1_555
Cu3_12 O63_28 1_555 1_555
O65_28 Cu3_12 1_555 1_555
Cu2_9 O63_29 1_555 1_555
O65_29 Cu2_9 1_555 1_555
O65_29 H29_20 1_555 1_555
Cu2_10 O63_30 1_555 1_555
O65_30 Cu2_10 1_555 1_555
O65_28 H29_21 1_555 1_555
O65_30 H29_22 1_555 1_555
O65_23 H29_23 1_555 1_555
O65_25 H29_24 1_555 1_555
O65_29 H30_17 1_555 1_555
O63_29 H32_17 1_555 1_555
O63_30 H31_17 1_555 1_555
O63_27 H31_18 1_555 1_555
O65_28 H30_18 1_555 1_555
O63_28 H32_18 1_555 1_555
O63_23 H31_19 1_555 1_555
O65_24 H30_19 1_555 1_555
O63_24 H32_19 1_555 1_555
O65_23 H30_20 1_555 1_555
O63_23 H32_20 1_555 1_555
O63_24 H31_20 1_555 1_555
O65_27 H30_21 1_555 1_555
O63_27 H32_21 1_555 1_555
O63_28 H31_21 1_555 1_555
O63_29 H31_22 1_555 1_555
O65_30 H30_22 1_555 1_555
O63_30 H32_22 1_555 1_555
O63_25 H31_23 1_555 1_555
O65_26 H30_23 1_555 1_555
O63_26 H32_23 1_555 1_555
O65_25 H30_24 1_555 1_555
O63_25 H32_24 1_555 1_555
O63_26 H31_24 1_555 1_555

#END
