
###############################################################################
#
# This file contains modified crystal structure data generated from the
# MOF subset of the Cambridge Structural Database (CSD) v543 
# hosted by the Cambridge Crystallographic Data Centre (CCDC).
#
# This work is licensed under the Creative Commons
# Attribution-NonCommercial-ShareAlike 4.0 International License.
# To view a copy of this license, visit
# http://creativecommons.org/licenses/by-nc-sa/4.0/
# or send a letter to
# Creative Commons, PO Box 1866, Mountain View, CA 94042, USA.
#
# CIF created using the CSD Python API on 29 September 2022
# The structure has been converted into the P1 space group
# The structure has a 3D framework
# The original CSD entry GUHNUU is in the monoclinic crystal system
# The framework has been calculated to contain at least 10.0% void space
# The void calculation uses a probe of radius 1.32A, grid spacing 0.4
#
###############################################################################

data_GUHNUU
_chemical_formula_moiety         '(C288 H344 La8 N32 O80)n'
_symmetry_cell_setting           triclinic
_symmetry_space_group_name_H-M   'P 1'
_symmetry_Int_Tables_number      1
_space_group_name_Hall           'P 1'
loop_
_symmetry_equiv_pos_site_id
_symmetry_equiv_pos_as_xyz
1 x,y,z
_cell_length_a                   32.985(7)
_cell_length_b                   8.9901(19)
_cell_length_c                   34.432(7)
_cell_angle_alpha                90
_cell_angle_beta                 115.591(2)
_cell_angle_gamma                90
_cell_volume                     9208.77
loop_
_atom_site_label
_atom_site_type_symbol
_atom_site_fract_x
_atom_site_fract_y
_atom_site_fract_z
O3 O 0.42873(15) 0.0179(6) 0.36586(13)
O4 O 0.46766(16) 0.0974(6) 0.43149(14)
C20 C 0.43592(19) 0.0211(7) 0.40461(17)
La3 La 0.503603(11) 0.14250(4) 0.380974(9)
O3_2 O 0.57127(15) 0.0179(6) 0.13414(13)
O4_2 O 0.53234(16) 0.0974(6) 0.06851(14)
C20_2 C 0.56408(19) 0.0211(7) 0.09539(17)
La3_2 La 0.496397(11) 0.14250(4) 0.119026(9)
O1 O 0.54928(16) 0.3190(5) 0.17394(12)
O2 O 0.53234(14) 0.1218(5) 0.20213(12)
O7 O 0.56515(15) 0.2010(6) 0.36154(14)
O8 O 0.4797(2) 0.3862(6) 0.08220(18)
O10 O 0.6333(2) 0.2752(9) 0.40144(15)
N1 N 0.6717(3) 0.5828(9) 0.3008(2)
H2 H 0.6852 0.6223 0.3259
N4 N 0.4710(3) 0.6032(9) 0.0462(2)
C2 C 0.7754(2) 0.9992(7) 0.31402(18)
C4 C 0.6988(2) 0.9092(7) 0.27854(19)
C5 C 0.7156(2) 0.7632(7) 0.28328(18)
C6 C 0.7622(2) 0.7344(7) 0.30426(18)
C7 C 0.7923(2) 0.8540(8) 0.3195(2)
C8 C 0.6824(2) 0.6362(7) 0.26675(19)
H6 H 0.6552 0.6698 0.2427
H7 H 0.6953 0.5561 0.2568
C9 C 0.6488(2) 0.9377(10) 0.2579(3)
H9 H 0.6338 0.8590 0.2655
H10 H 0.6380 0.9412 0.2272
C11 C 0.8424(3) 0.8222(10) 0.3419(3)
H14 H 0.8556 0.8401 0.3223
H15 H 0.8471 0.7202 0.3511
H16 H 0.8562 0.8861 0.3665
C12 C 0.7790(3) 0.5768(9) 0.3106(2)
H17 H 0.7548 0.5111 0.2938
H18 H 0.7902 0.5508 0.3405
H19 H 0.8026 0.5676 0.3016
C13 C 0.6409(2) 0.4713(7) 0.29484(18)
C14 C 0.61320(19) 0.4141(7) 0.25493(18)
H20 H 0.6154 0.4501 0.2306
C15 C 0.58213(19) 0.3042(7) 0.25046(17)
C16 C 0.57773(19) 0.2490(7) 0.28628(17)
H21 H 0.5565 0.1764 0.2833
C17 C 0.6060(2) 0.3055(7) 0.32647(18)
C18 C 0.6372(2) 0.4130(7) 0.33062(19)
H22 H 0.6563 0.4474 0.3579
C19 C 0.55273(19) 0.2450(7) 0.20613(17)
C28 C 0.6000(2) 0.2550(8) 0.36512(19)
C29 C 0.4953(3) 0.4876(10) 0.0690(3)
C34 C 0.5439(3) 0.5068(13) 0.0751(4)
H35 H 0.5553 0.6009 0.0886
H36 H 0.5446 0.5033 0.0475
H37 H 0.5621 0.4281 0.0930
C35 C 0.4251(4) 0.5872(14) 0.0437(4)
H38 H 0.4058 0.5411 0.0169
H39 H 0.4134 0.6836 0.0454
H40 H 0.4263 0.5266 0.0671
C36 C 0.4841(4) 0.7287(12) 0.0289(4)
H41 H 0.4728 0.8180 0.0359
H43 H 0.5163 0.7333 0.0409
O13 O 0.42924(14) 0.0931(5) 0.04928(12)
O14 O 0.43485(15) 0.2010(6) 0.13846(14)
O1_2 O 0.45072(16) 0.3190(5) 0.32606(12)
O2_2 O 0.46766(14) 0.1218(5) 0.29787(12)
O8_2 O 0.5203(2) 0.3862(6) 0.41780(18)
O10_2 O 0.3667(2) 0.2752(9) 0.09856(15)
N1_2 N 0.3283(3) 0.5828(9) 0.1992(2)
H2_2 H 0.3148 0.6223 0.1741
N4_2 N 0.5290(3) 0.6032(9) 0.4538(2)
C2_2 C 0.2246(2) 0.9992(7) 0.18598(18)
C4_2 C 0.3012(2) 0.9092(7) 0.22146(19)
C5_2 C 0.2844(2) 0.7632(7) 0.21672(18)
C6_2 C 0.2378(2) 0.7344(7) 0.19574(18)
C7_2 C 0.2077(2) 0.8540(8) 0.1805(2)
C8_2 C 0.3176(2) 0.6362(7) 0.23325(19)
H6_2 H 0.3448 0.6698 0.2573
H7_2 H 0.3047 0.5561 0.2432
C9_2 C 0.3512(2) 0.9377(10) 0.2421(3)
H9_2 H 0.3662 0.8590 0.2345
H10_2 H 0.3620 0.9412 0.2728
C11_2 C 0.1576(3) 0.8222(10) 0.1581(3)
H14_2 H 0.1444 0.8401 0.1777
H15_2 H 0.1529 0.7202 0.1489
H16_2 H 0.1438 0.8861 0.1335
C12_2 C 0.2210(3) 0.5768(9) 0.1894(2)
H17_2 H 0.2452 0.5111 0.2062
H18_2 H 0.2098 0.5508 0.1595
H19_2 H 0.1974 0.5676 0.1984
C13_2 C 0.3591(2) 0.4713(7) 0.20516(18)
C14_2 C 0.38680(19) 0.4141(7) 0.24507(18)
H20_2 H 0.3846 0.4501 0.2694
C15_2 C 0.41787(19) 0.3042(7) 0.24954(17)
C16_2 C 0.42227(19) 0.2490(7) 0.21372(17)
H21_2 H 0.4435 0.1764 0.2167
C17_2 C 0.3940(2) 0.3055(7) 0.17353(18)
C18_2 C 0.3628(2) 0.4130(7) 0.16938(19)
H22_2 H 0.3437 0.4474 0.1421
C19_2 C 0.44727(19) 0.2450(7) 0.29387(17)
C28_2 C 0.4000(2) 0.2550(8) 0.13488(19)
C29_2 C 0.5047(3) 0.4876(10) 0.4310(3)
C34_2 C 0.4561(3) 0.5068(13) 0.4249(4)
H35_2 H 0.4447 0.6009 0.4114
H36_2 H 0.4554 0.5033 0.4525
H37_2 H 0.4379 0.4281 0.4070
C35_2 C 0.5749(4) 0.5872(14) 0.4563(4)
H38_2 H 0.5942 0.5411 0.4831
H39_2 H 0.5866 0.6836 0.4546
H40_2 H 0.5737 0.5266 0.4329
C36_2 C 0.5159(4) 0.7287(12) 0.4711(4)
H41_2 H 0.5272 0.8180 0.4641
H42 H 0.5279 0.7190 0.5019
H43_2 H 0.4837 0.7333 0.4591
O13_2 O 0.57076(14) 0.0931(5) 0.45072(12)
O6 O 0.63247(18) 0.2311(8) 0.47068(14)
H1 H 0.6218 0.2556 0.4453
N1_3 N 0.8283(3) 0.9172(9) 0.6992(2)
H2_3 H 0.8148 0.8777 0.6741
N2 N 0.6843(3) 0.3422(8) 0.6246(2)
H3 H 0.7012 0.3874 0.6152
C1 C 0.6918(2) 0.3720(8) 0.66825(19)
H4 H 0.6636 0.3969 0.6691
H5 H 0.7040 0.2842 0.6858
C2_3 C 0.7246(2) 0.5008(7) 0.68598(18)
C3 C 0.7707(2) 0.4722(7) 0.70576(18)
C4_3 C 0.8012(2) 0.5908(7) 0.72146(19)
C5_3 C 0.7844(2) 0.7368(7) 0.71672(18)
C6_3 C 0.7378(2) 0.7656(7) 0.69574(18)
C7_3 C 0.7077(2) 0.6460(8) 0.6805(2)
C8_3 C 0.8176(2) 0.8638(7) 0.73325(19)
H6_3 H 0.8448 0.8302 0.7573
H7_3 H 0.8047 0.9439 0.7432
C9_3 C 0.8512(2) 0.5623(10) 0.7421(3)
H8 H 0.8572 0.4692 0.7320
H9_3 H 0.8662 0.6410 0.7345
H10_3 H 0.8620 0.5588 0.7728
C10 C 0.7884(3) 0.3150(8) 0.7090(3)
H11 H 0.7658 0.2458 0.7080
H12 H 0.7959 0.2962 0.6855
H13 H 0.8148 0.3034 0.7358
C11_3 C 0.6576(3) 0.6778(10) 0.6581(3)
H14_3 H 0.6444 0.6599 0.6777
H15_3 H 0.6529 0.7798 0.6489
H16_3 H 0.6438 0.6139 0.6335
C12_3 C 0.7210(3) 0.9232(9) 0.6894(2)
H17_3 H 0.7452 0.9889 0.7062
H18_3 H 0.7098 0.9492 0.6595
H19_3 H 0.6974 0.9324 0.6984
C21 C 0.59269(19) 0.0692(7) 0.58072(17)
C22 C 0.5839(2) 0.0699(7) 0.53744(17)
H23 H 0.5607 0.0129 0.5175
C23 C 0.6110(2) 0.1589(7) 0.52435(18)
C24 C 0.6445(2) 0.2447(8) 0.55376(18)
H24 H 0.6623 0.3020 0.5447
C25 C 0.6525(2) 0.2481(7) 0.59707(18)
C26 C 0.6262(2) 0.1580(7) 0.61026(18)
H25 H 0.6312 0.1576 0.6390
C27 C 0.6029(2) 0.1587(7) 0.47801(19)
C34_3 C 0.9561(3) 0.9932(13) 0.9249(4)
H35_3 H 0.9447 0.8991 0.9114
H36_3 H 0.9554 0.9967 0.9525
H43_3 H 0.9837 0.7667 0.9591
O6_2 O 0.36753(18) 0.2311(8) 0.02932(14)
H1_2 H 0.3782 0.2556 0.0547
C27_2 C 0.3971(2) 0.1587(7) 0.02199(19)
O5 O 0.42924(14) 0.9069(5) 0.54928(12)
O6_3 O 0.36753(18) 0.7689(8) 0.52932(14)
H1_3 H 0.3782 0.7444 0.5547
N1_4 N 0.1717(3) 0.0828(9) 0.3008(2)
H2_4 H 0.1852 0.1223 0.3259
N2_2 N 0.3157(3) 0.6578(8) 0.3754(2)
H3_2 H 0.2988 0.6126 0.3848
C1_2 C 0.3082(2) 0.6280(8) 0.33175(19)
H4_2 H 0.3364 0.6031 0.3309
H5_2 H 0.2960 0.7158 0.3142
C2_4 C 0.2754(2) 0.4992(7) 0.31402(18)
C3_2 C 0.2293(2) 0.5278(7) 0.29424(18)
C4_4 C 0.1988(2) 0.4092(7) 0.27854(19)
C5_4 C 0.2156(2) 0.2632(7) 0.28328(18)
C6_4 C 0.2622(2) 0.2344(7) 0.30426(18)
C7_4 C 0.2923(2) 0.3540(8) 0.3195(2)
C8_4 C 0.1824(2) 0.1362(7) 0.26675(19)
H6_4 H 0.1552 0.1698 0.2427
H7_4 H 0.1953 0.0561 0.2568
C9_4 C 0.1488(2) 0.4377(10) 0.2579(3)
H8_2 H 0.1428 0.5308 0.2680
H9_4 H 0.1338 0.3590 0.2655
H10_4 H 0.1380 0.4412 0.2272
C10_2 C 0.2116(3) 0.6850(8) 0.2910(3)
H11_2 H 0.2342 0.7542 0.2920
H12_2 H 0.2041 0.7038 0.3145
H13_2 H 0.1852 0.6966 0.2642
C11_4 C 0.3424(3) 0.3222(10) 0.3419(3)
H14_4 H 0.3556 0.3401 0.3223
H15_4 H 0.3471 0.2202 0.3511
H16_4 H 0.3562 0.3861 0.3665
C12_4 C 0.2790(3) 0.0768(9) 0.3106(2)
H17_4 H 0.2548 0.0111 0.2938
H18_4 H 0.2902 0.0508 0.3405
H19_4 H 0.3026 0.0676 0.3016
C21_2 C 0.40731(19) 0.9308(7) 0.41928(17)
C22_2 C 0.4161(2) 0.9301(7) 0.46256(17)
H23_2 H 0.4393 0.9871 0.4825
C23_2 C 0.3890(2) 0.8411(7) 0.47565(18)
C24_2 C 0.3555(2) 0.7553(8) 0.44624(18)
H24_2 H 0.3377 0.6980 0.4553
C25_2 C 0.3475(2) 0.7519(7) 0.40293(18)
C26_2 C 0.3738(2) 0.8420(7) 0.38974(18)
H25_2 H 0.3688 0.8424 0.3610
C27_3 C 0.3971(2) 0.8413(7) 0.52199(19)
C34_4 C 0.0439(3) 0.0068(13) 0.0751(4)
H35_4 H 0.0553 0.1009 0.0886
H36_4 H 0.0446 0.0033 0.0475
H43_4 H 0.0163 0.2333 0.0409
La4 La 0.496397(11) 0.85750(4) 0.619026(9)
O5_2 O 0.57076(14) 0.9069(5) 0.95072(12)
O6_4 O 0.63247(18) 0.7689(8) 0.97068(14)
H1_4 H 0.6218 0.7444 0.9453
C27_4 C 0.6029(2) 0.8413(7) 0.97801(19)
La4_2 La 0.503603(11) 0.85750(4) 0.880974(9)
O3_3 O 0.57127(15) 0.9821(6) 0.63414(13)
O4_3 O 0.53234(16) 0.9026(6) 0.56851(14)
C20_3 C 0.56408(19) 0.9789(7) 0.59539(17)
O3_4 O 0.42873(15) 0.9821(6) 0.86586(13)
O4_4 O 0.46766(16) 0.9026(6) 0.93149(14)
C20_4 C 0.43592(19) 0.9789(7) 0.90461(17)
O1_3 O 0.45072(16) 0.6810(5) 0.82606(12)
O2_3 O 0.46766(14) 0.8782(5) 0.79787(12)
O7_2 O 0.43485(15) 0.7990(6) 0.63846(14)
O8_3 O 0.5203(2) 0.6138(6) 0.91780(18)
O10_3 O 0.3667(2) 0.7248(9) 0.59856(15)
N1_5 N 0.3283(3) 0.4172(9) 0.6992(2)
H2_5 H 0.3148 0.3777 0.6741
N4_3 N 0.5290(3) 0.3968(9) 0.9538(2)
C2_5 C 0.2246(2) 0.0008(7) 0.68598(18)
C4_5 C 0.3012(2) 0.0908(7) 0.72146(19)
C5_5 C 0.2844(2) 0.2368(7) 0.71672(18)
C6_5 C 0.2378(2) 0.2656(7) 0.69574(18)
C7_5 C 0.2077(2) 0.1460(8) 0.6805(2)
C8_5 C 0.3176(2) 0.3638(7) 0.73325(19)
H6_5 H 0.3448 0.3302 0.7573
H7_5 H 0.3047 0.4439 0.7432
C9_5 C 0.3512(2) 0.0623(10) 0.7421(3)
H9_5 H 0.3662 0.1410 0.7345
H10_5 H 0.3620 0.0588 0.7728
C11_5 C 0.1576(3) 0.1778(10) 0.6581(3)
H14_5 H 0.1444 0.1599 0.6777
H15_5 H 0.1529 0.2798 0.6489
H16_5 H 0.1438 0.1139 0.6335
C12_5 C 0.2210(3) 0.4232(9) 0.6894(2)
H17_5 H 0.2452 0.4889 0.7062
H18_5 H 0.2098 0.4492 0.6595
H19_5 H 0.1974 0.4324 0.6984
C13_3 C 0.3591(2) 0.5287(7) 0.70516(18)
C14_3 C 0.38680(19) 0.5859(7) 0.74507(18)
H20_3 H 0.3846 0.5499 0.7694
C15_3 C 0.41787(19) 0.6958(7) 0.74954(17)
C16_3 C 0.42227(19) 0.7510(7) 0.71372(17)
H21_3 H 0.4435 0.8236 0.7167
C17_3 C 0.3940(2) 0.6945(7) 0.67353(18)
C18_3 C 0.3628(2) 0.5870(7) 0.66938(19)
H22_3 H 0.3437 0.5526 0.6421
C19_3 C 0.44727(19) 0.7550(7) 0.79387(17)
C28_3 C 0.4000(2) 0.7450(8) 0.63488(19)
C29_3 C 0.5047(3) 0.5124(10) 0.9310(3)
C34_5 C 0.4561(3) 0.4932(13) 0.9249(4)
H35_5 H 0.4447 0.3991 0.9114
H36_5 H 0.4554 0.4967 0.9525
H37_3 H 0.4379 0.5719 0.9070
C35_3 C 0.5749(4) 0.4128(14) 0.9563(4)
H38_3 H 0.5942 0.4589 0.9831
H39_3 H 0.5866 0.3164 0.9546
H40_3 H 0.5737 0.4734 0.9329
C36_3 C 0.5159(4) 0.2713(12) 0.9711(4)
H41_3 H 0.5272 0.1820 0.9641
H43_5 H 0.4837 0.2667 0.9591
O14_2 O 0.56515(15) 0.7990(6) 0.86154(14)
O1_4 O 0.54928(16) 0.6810(5) 0.67394(12)
O2_4 O 0.53234(14) 0.8782(5) 0.70213(12)
O8_4 O 0.4797(2) 0.6138(6) 0.58220(18)
O10_4 O 0.6333(2) 0.7248(9) 0.90144(15)
N1_6 N 0.6717(3) 0.4172(9) 0.8008(2)
H2_6 H 0.6852 0.3777 0.8259
N4_4 N 0.4710(3) 0.3968(9) 0.5462(2)
C2_6 C 0.7754(2) 0.0008(7) 0.81402(18)
C4_6 C 0.6988(2) 0.0908(7) 0.77854(19)
C5_6 C 0.7156(2) 0.2368(7) 0.78328(18)
C6_6 C 0.7622(2) 0.2656(7) 0.80426(18)
C7_6 C 0.7923(2) 0.1460(8) 0.8195(2)
C8_6 C 0.6824(2) 0.3638(7) 0.76675(19)
H6_6 H 0.6552 0.3302 0.7427
H7_6 H 0.6953 0.4439 0.7568
C9_6 C 0.6488(2) 0.0623(10) 0.7579(3)
H9_6 H 0.6338 0.1410 0.7655
H10_6 H 0.6380 0.0588 0.7272
C11_6 C 0.8424(3) 0.1778(10) 0.8419(3)
H14_6 H 0.8556 0.1599 0.8223
H15_6 H 0.8471 0.2798 0.8511
H16_6 H 0.8562 0.1139 0.8665
C12_6 C 0.7790(3) 0.4232(9) 0.8106(2)
H17_6 H 0.7548 0.4889 0.7938
H18_6 H 0.7902 0.4492 0.8405
H19_6 H 0.8026 0.4324 0.8016
C13_4 C 0.6409(2) 0.5287(7) 0.79484(18)
C14_4 C 0.61320(19) 0.5859(7) 0.75493(18)
H20_4 H 0.6154 0.5499 0.7306
C15_4 C 0.58213(19) 0.6958(7) 0.75046(17)
C16_4 C 0.57773(19) 0.7510(7) 0.78628(17)
H21_4 H 0.5565 0.8236 0.7833
C17_4 C 0.6060(2) 0.6945(7) 0.82647(18)
C18_4 C 0.6372(2) 0.5870(7) 0.83062(19)
H22_4 H 0.6563 0.5526 0.8579
C19_4 C 0.55273(19) 0.7550(7) 0.70613(17)
C28_4 C 0.6000(2) 0.7450(8) 0.86512(19)
C29_4 C 0.4953(3) 0.5124(10) 0.5690(3)
C34_6 C 0.5439(3) 0.4932(13) 0.5751(4)
H35_6 H 0.5553 0.3991 0.5886
H36_6 H 0.5446 0.4967 0.5475
H37_4 H 0.5621 0.5719 0.5930
C35_4 C 0.4251(4) 0.4128(14) 0.5437(4)
H38_4 H 0.4058 0.4589 0.5169
H39_4 H 0.4134 0.3164 0.5454
H40_4 H 0.4263 0.4734 0.5671
C36_4 C 0.4841(4) 0.2713(12) 0.5289(4)
H41_4 H 0.4728 0.1820 0.5359
H42_2 H 0.4721 0.2810 0.4981
H43_6 H 0.5163 0.2667 0.5409
O1_5 O 0.04928(16) 0.8190(5) 0.17394(12)
O2_5 O 0.03234(14) 0.6218(5) 0.20213(12)
O7_3 O 0.06515(15) 0.7010(6) 0.36154(14)
O10_5 O 0.1333(2) 0.7752(9) 0.40144(15)
C13_5 C 0.1409(2) 0.9713(7) 0.29484(18)
C14_5 C 0.11320(19) 0.9141(7) 0.25493(18)
H20_5 H 0.1154 0.9501 0.2306
C15_5 C 0.08213(19) 0.8042(7) 0.25046(17)
C16_5 C 0.07773(19) 0.7490(7) 0.28628(17)
H21_5 H 0.0565 0.6764 0.2833
C17_5 C 0.1060(2) 0.8055(7) 0.32647(18)
C18_5 C 0.1372(2) 0.9130(7) 0.33062(19)
H22_5 H 0.1563 0.9474 0.3579
C19_5 C 0.05273(19) 0.7450(7) 0.20613(17)
C28_5 C 0.1000(2) 0.7550(8) 0.36512(19)
H31 H 0.0063 0.0714 0.2096
C33 C 0.0387(3) 0.2093(12) 0.1746(4)
H32 H 0.0609 0.2774 0.1743
H33 H 0.0398 0.1190 0.1602
H34 H 0.0445 0.1876 0.2038
H37_5 H 0.0621 0.9281 0.0930
La2 La 0.003603(11) 0.64250(4) 0.380974(9)
O11 O 0.07127(15) 0.5179(6) 0.13414(13)
O12 O 0.03234(16) 0.5974(6) 0.06851(14)
O8_5 O 0.0203(2) 0.8862(6) 0.41780(18)
O9 O 0.02051(18) 0.3877(5) 0.37251(17)
N3 N 0.0342(3) 0.2073(9) 0.3359(2)
C29_5 C 0.0047(3) 0.9876(10) 0.4310(3)
C30 C 0.0073(3) 0.2784(10) 0.3483(3)
C31 C 0.0794(4) 0.2757(13) 0.3533(4)
H26 H 0.0846 0.3165 0.3300
H27 H 0.1017 0.2015 0.3680
H28 H 0.0812 0.3536 0.3730
C32 C 0.0252(4) 0.0767(12) 0.3092(4)
H30 H 0.0419 0.0819 0.2922
O13_3 O 0.07076(14) 0.5931(5) 0.45072(12)
N2_3 N 0.1843(3) 0.1578(8) 0.1246(2)
H3_3 H 0.2012 0.1126 0.1152
C1_3 C 0.1918(2) 0.1280(8) 0.16825(19)
H4_3 H 0.1636 0.1031 0.1691
H5_3 H 0.2040 0.2158 0.1858
C3_3 C 0.2707(2) 0.0278(7) 0.20576(18)
H8_3 H 0.3572 0.0308 0.2320
C10_3 C 0.2884(3) 0.1850(8) 0.2090(3)
H11_3 H 0.2658 0.2542 0.2080
H12_3 H 0.2959 0.2038 0.1855
H13_3 H 0.3148 0.1966 0.2358
C20_5 C 0.06408(19) 0.5211(7) 0.09539(17)
C21_3 C 0.09269(19) 0.4308(7) 0.08072(17)
C22_3 C 0.0839(2) 0.4301(7) 0.03744(17)
H23_3 H 0.0607 0.4871 0.0175
C23_3 C 0.1110(2) 0.3411(7) 0.02435(18)
C24_3 C 0.1445(2) 0.2553(8) 0.05376(18)
H24_3 H 0.1623 0.1980 0.0447
C25_3 C 0.1525(2) 0.2519(7) 0.09707(18)
C26_3 C 0.1262(2) 0.3420(7) 0.11026(18)
H25_3 H 0.1312 0.3424 0.1390
O5_3 O 0.07076(14) 0.4069(5) 0.95072(12)
O6_5 O 0.13247(18) 0.2689(8) 0.97068(14)
H1_5 H 0.1218 0.2444 0.9453
C27_5 C 0.1029(2) 0.3413(7) 0.97801(19)
La4_3 La 0.003603(11) 0.35750(4) 0.880974(9)
O8_6 O 0.0203(2) 0.1138(6) 0.91780(18)
O9_2 O 0.02051(18) 0.6123(5) 0.87251(17)
N3_2 N 0.0342(3) 0.7927(9) 0.8359(2)
C29_6 C 0.0047(3) 0.0124(10) 0.9310(3)
C30_2 C 0.0073(3) 0.7216(10) 0.8483(3)
C31_2 C 0.0794(4) 0.7243(13) 0.8533(4)
H26_2 H 0.0846 0.6835 0.8300
H27_2 H 0.1017 0.7985 0.8680
H28_2 H 0.0812 0.6464 0.8730
C32_2 C 0.0252(4) 0.9233(12) 0.8092(4)
H30_2 H 0.0419 0.9181 0.7922
O14_3 O 0.06515(15) 0.2990(6) 0.86154(14)
O1_6 O 0.04928(16) 0.1810(5) 0.67394(12)
O2_6 O 0.03234(14) 0.3782(5) 0.70213(12)
O10_6 O 0.1333(2) 0.2248(9) 0.90144(15)
C13_6 C 0.1409(2) 0.0287(7) 0.79484(18)
C14_6 C 0.11320(19) 0.0859(7) 0.75493(18)
H20_6 H 0.1154 0.0499 0.7306
C15_6 C 0.08213(19) 0.1958(7) 0.75046(17)
C16_6 C 0.07773(19) 0.2510(7) 0.78628(17)
H21_6 H 0.0565 0.3236 0.7833
C17_6 C 0.1060(2) 0.1945(7) 0.82647(18)
C18_6 C 0.1372(2) 0.0870(7) 0.83062(19)
H22_6 H 0.1563 0.0526 0.8579
C19_6 C 0.05273(19) 0.2550(7) 0.70613(17)
C28_6 C 0.1000(2) 0.2450(8) 0.86512(19)
H31_2 H 0.0063 0.9286 0.7096
C33_2 C 0.0387(3) 0.7907(12) 0.6746(4)
H32_2 H 0.0609 0.7226 0.6743
H33_2 H 0.0398 0.8810 0.6602
H34_2 H 0.0445 0.8124 0.7038
H37_6 H 0.0621 0.0719 0.5930
O11_2 O 0.07127(15) 0.4821(6) 0.63414(13)
O12_2 O 0.03234(16) 0.4026(6) 0.56851(14)
O6_6 O 0.13247(18) 0.7311(8) 0.47068(14)
H1_6 H 0.1218 0.7556 0.4453
N2_4 N 0.1843(3) 0.8422(8) 0.6246(2)
H3_4 H 0.2012 0.8874 0.6152
C1_4 C 0.1918(2) 0.8720(8) 0.66825(19)
H4_4 H 0.1636 0.8969 0.6691
H5_4 H 0.2040 0.7842 0.6858
C3_4 C 0.2707(2) 0.9722(7) 0.70576(18)
H8_4 H 0.3572 0.9692 0.7320
C10_4 C 0.2884(3) 0.8150(8) 0.7090(3)
H11_4 H 0.2658 0.7458 0.7080
H12_4 H 0.2959 0.7962 0.6855
H13_4 H 0.3148 0.8034 0.7358
C20_6 C 0.06408(19) 0.4789(7) 0.59539(17)
C21_4 C 0.09269(19) 0.5692(7) 0.58072(17)
C22_4 C 0.0839(2) 0.5699(7) 0.53744(17)
H23_4 H 0.0607 0.5129 0.5175
C23_4 C 0.1110(2) 0.6589(7) 0.52435(18)
C24_4 C 0.1445(2) 0.7447(8) 0.55376(18)
H24_4 H 0.1623 0.8020 0.5447
C25_4 C 0.1525(2) 0.7481(7) 0.59707(18)
C26_4 C 0.1262(2) 0.6580(7) 0.61026(18)
H25_4 H 0.1312 0.6576 0.6390
C27_6 C 0.1029(2) 0.6587(7) 0.47801(19)
N4_5 N 0.9710(3) 0.1032(9) 0.0462(2)
C35_5 C 0.9251(4) 0.0872(14) 0.0437(4)
H38_5 H 0.9058 0.0411 0.0169
H39_5 H 0.9134 0.1836 0.0454
H40_5 H 0.9263 0.0266 0.0671
C36_5 C 0.9841(4) 0.2287(12) 0.0289(4)
H41_5 H 0.9728 0.3180 0.0359
H42_3 H 0.9721 0.2190 0.9981
La1 La 0.996397(11) 0.64250(4) 0.119026(9)
O8_7 O 0.9797(2) 0.8862(6) 0.08220(18)
O9_3 O 0.97949(18) 0.3877(5) 0.12749(17)
N3_3 N 0.9658(3) 0.2073(9) 0.1641(2)
C29_7 C 0.9953(3) 0.9876(10) 0.0690(3)
C30_3 C 0.9927(3) 0.2784(10) 0.1517(3)
C31_3 C 0.9206(4) 0.2757(13) 0.1467(4)
H26_3 H 0.9154 0.3165 0.1700
H27_3 H 0.8983 0.2015 0.1320
H28_3 H 0.9188 0.3536 0.1270
C32_3 C 0.9748(4) 0.0767(12) 0.1908(4)
H30_3 H 0.9581 0.0819 0.2078
O13_4 O 0.92924(14) 0.5931(5) 0.04928(12)
O14_4 O 0.93485(15) 0.7010(6) 0.13846(14)
O1_7 O 0.95072(16) 0.8190(5) 0.32606(12)
O2_7 O 0.96766(14) 0.6218(5) 0.29787(12)
O10_7 O 0.8667(2) 0.7752(9) 0.09856(15)
C13_7 C 0.8591(2) 0.9713(7) 0.20516(18)
C14_7 C 0.88680(19) 0.9141(7) 0.24507(18)
H20_7 H 0.8846 0.9501 0.2694
C15_7 C 0.91787(19) 0.8042(7) 0.24954(17)
C16_7 C 0.92227(19) 0.7490(7) 0.21372(17)
H21_7 H 0.9435 0.6764 0.2167
C17_7 C 0.8940(2) 0.8055(7) 0.17353(18)
C18_7 C 0.8628(2) 0.9130(7) 0.16938(19)
H22_7 H 0.8437 0.9474 0.1421
C19_7 C 0.94727(19) 0.7450(7) 0.29387(17)
C28_7 C 0.9000(2) 0.7550(8) 0.13488(19)
H31_3 H 0.9937 0.0714 0.2904
C33_3 C 0.9613(3) 0.2093(12) 0.3254(4)
H32_3 H 0.9391 0.2774 0.3257
H33_3 H 0.9602 0.1190 0.3398
H34_3 H 0.9555 0.1876 0.2962
H37_7 H 0.9379 0.9281 0.4070
O11_3 O 0.92873(15) 0.5179(6) 0.36586(13)
O12_3 O 0.96766(16) 0.5974(6) 0.43149(14)
O5_4 O 0.92924(14) 0.4069(5) 0.54928(12)
O6_7 O 0.86753(18) 0.2689(8) 0.52932(14)
H1_7 H 0.8782 0.2444 0.5547
N2_5 N 0.8157(3) 0.1578(8) 0.3754(2)
H3_5 H 0.7988 0.1126 0.3848
C1_5 C 0.8082(2) 0.1280(8) 0.33175(19)
H4_5 H 0.8364 0.1031 0.3309
H5_5 H 0.7960 0.2158 0.3142
C3_5 C 0.7293(2) 0.0278(7) 0.29424(18)
H8_5 H 0.6428 0.0308 0.2680
C10_5 C 0.7116(3) 0.1850(8) 0.2910(3)
H11_5 H 0.7342 0.2542 0.2920
H12_5 H 0.7041 0.2038 0.3145
H13_5 H 0.6852 0.1966 0.2642
C20_7 C 0.93592(19) 0.5211(7) 0.40461(17)
C21_5 C 0.90731(19) 0.4308(7) 0.41928(17)
C22_5 C 0.9161(2) 0.4301(7) 0.46256(17)
H23_5 H 0.9393 0.4871 0.4825
C23_5 C 0.8890(2) 0.3411(7) 0.47565(18)
C24_5 C 0.8555(2) 0.2553(8) 0.44624(18)
H24_5 H 0.8377 0.1980 0.4553
C25_5 C 0.8475(2) 0.2519(7) 0.40293(18)
C26_5 C 0.8738(2) 0.3420(7) 0.38974(18)
H25_5 H 0.8688 0.3424 0.3610
C27_7 C 0.8971(2) 0.3413(7) 0.52199(19)
La4_4 La 0.996397(11) 0.35750(4) 0.619026(9)
O1_8 O 0.95072(16) 0.1810(5) 0.82606(12)
O2_8 O 0.96766(14) 0.3782(5) 0.79787(12)
O7_4 O 0.93485(15) 0.2990(6) 0.63846(14)
O10_8 O 0.8667(2) 0.2248(9) 0.59856(15)
C13_8 C 0.8591(2) 0.0287(7) 0.70516(18)
C14_8 C 0.88680(19) 0.0859(7) 0.74507(18)
H20_8 H 0.8846 0.0499 0.7694
C15_8 C 0.91787(19) 0.1958(7) 0.74954(17)
C16_8 C 0.92227(19) 0.2510(7) 0.71372(17)
H21_8 H 0.9435 0.3236 0.7167
C17_8 C 0.8940(2) 0.1945(7) 0.67353(18)
C18_8 C 0.8628(2) 0.0870(7) 0.66938(19)
H22_8 H 0.8437 0.0526 0.6421
C19_8 C 0.94727(19) 0.2550(7) 0.79387(17)
C28_8 C 0.9000(2) 0.2450(8) 0.63488(19)
H31_4 H 0.9937 0.9286 0.7904
C33_4 C 0.9613(3) 0.7907(12) 0.8254(4)
H32_4 H 0.9391 0.7226 0.8257
H33_4 H 0.9602 0.8810 0.8398
H34_4 H 0.9555 0.8124 0.7962
H37_8 H 0.9379 0.0719 0.9070
O11_4 O 0.92873(15) 0.4821(6) 0.86586(13)
O12_4 O 0.96766(16) 0.4026(6) 0.93149(14)
O8_8 O 0.9797(2) 0.1138(6) 0.58220(18)
O9_4 O 0.97949(18) 0.6123(5) 0.62749(17)
N3_4 N 0.9658(3) 0.7927(9) 0.6641(2)
C29_8 C 0.9953(3) 0.0124(10) 0.5690(3)
C30_4 C 0.9927(3) 0.7216(10) 0.6517(3)
C31_4 C 0.9206(4) 0.7243(13) 0.6467(4)
H26_4 H 0.9154 0.6835 0.6700
H27_4 H 0.8983 0.7985 0.6320
H28_4 H 0.9188 0.6464 0.6270
C32_4 C 0.9748(4) 0.9233(12) 0.6908(4)
H30_4 H 0.9581 0.9181 0.7078
O6_8 O 0.86753(18) 0.7311(8) 0.02932(14)
H1_8 H 0.8782 0.7556 0.0547
C27_8 C 0.8971(2) 0.6587(7) 0.02199(19)
N2_6 N 0.8157(3) 0.8422(8) 0.8754(2)
H3_6 H 0.7988 0.8874 0.8848
C1_6 C 0.8082(2) 0.8720(8) 0.83175(19)
H4_6 H 0.8364 0.8969 0.8309
H5_6 H 0.7960 0.7842 0.8142
C3_6 C 0.7293(2) 0.9722(7) 0.79424(18)
H8_6 H 0.6428 0.9692 0.7680
C10_6 C 0.7116(3) 0.8150(8) 0.7910(3)
H11_6 H 0.7342 0.7458 0.7920
H12_6 H 0.7041 0.7962 0.8145
H13_6 H 0.6852 0.8034 0.7642
C20_8 C 0.93592(19) 0.4789(7) 0.90461(17)
C21_6 C 0.90731(19) 0.5692(7) 0.91928(17)
C22_6 C 0.9161(2) 0.5699(7) 0.96256(17)
H23_6 H 0.9393 0.5129 0.9825
C23_6 C 0.8890(2) 0.6589(7) 0.97565(18)
C24_6 C 0.8555(2) 0.7447(8) 0.94624(18)
H24_6 H 0.8377 0.8020 0.9553
C25_6 C 0.8475(2) 0.7481(7) 0.90293(18)
C26_6 C 0.8738(2) 0.6580(7) 0.88974(18)
H25_6 H 0.8688 0.6576 0.8610
H29 H 0.9659 0.9897 0.1729
N4_6 N 0.0290(3) 0.1032(9) 0.4538(2)
C35_6 C 0.0749(4) 0.0872(14) 0.4563(4)
H38_6 H 0.0942 0.0411 0.4831
H39_6 H 0.0866 0.1836 0.4546
H40_6 H 0.0737 0.0266 0.4329
C36_6 C 0.0159(4) 0.2287(12) 0.4711(4)
H41_6 H 0.0272 0.3180 0.4641
H42_4 H 0.0279 0.2190 0.5019
H29_2 H 0.0341 0.9897 0.3271
N1_7 N 0.8283(3) 0.0828(9) 0.1992(2)
H2_7 H 0.8148 0.1223 0.1741
N2_7 N 0.6843(3) 0.6578(8) 0.1246(2)
H3_7 H 0.7012 0.6126 0.1152
C1_7 C 0.6918(2) 0.6280(8) 0.16825(19)
H4_7 H 0.6636 0.6031 0.1691
H5_7 H 0.7040 0.7158 0.1858
C2_7 C 0.7246(2) 0.4992(7) 0.18598(18)
C3_7 C 0.7707(2) 0.5278(7) 0.20576(18)
C4_7 C 0.8012(2) 0.4092(7) 0.22146(19)
C5_7 C 0.7844(2) 0.2632(7) 0.21672(18)
C6_7 C 0.7378(2) 0.2344(7) 0.19574(18)
C7_7 C 0.7077(2) 0.3540(8) 0.1805(2)
C8_7 C 0.8176(2) 0.1362(7) 0.23325(19)
H6_7 H 0.8448 0.1698 0.2573
H7_7 H 0.8047 0.0561 0.2432
C9_7 C 0.8512(2) 0.4377(10) 0.2421(3)
H8_7 H 0.8572 0.5308 0.2320
H9_7 H 0.8662 0.3590 0.2345
H10_7 H 0.8620 0.4412 0.2728
C10_7 C 0.7884(3) 0.6850(8) 0.2090(3)
H11_7 H 0.7658 0.7542 0.2080
H12_7 H 0.7959 0.7038 0.1855
H13_7 H 0.8148 0.6966 0.2358
C11_7 C 0.6576(3) 0.3222(10) 0.1581(3)
H14_7 H 0.6444 0.3401 0.1777
H15_7 H 0.6529 0.2202 0.1489
H16_7 H 0.6438 0.3861 0.1335
C12_7 C 0.7210(3) 0.0768(9) 0.1894(2)
H17_7 H 0.7452 0.0111 0.2062
H18_7 H 0.7098 0.0508 0.1595
H19_7 H 0.6974 0.0676 0.1984
C21_7 C 0.59269(19) 0.9308(7) 0.08072(17)
C22_7 C 0.5839(2) 0.9301(7) 0.03744(17)
H23_7 H 0.5607 0.9871 0.0175
C23_7 C 0.6110(2) 0.8411(7) 0.02435(18)
C24_7 C 0.6445(2) 0.7553(8) 0.05376(18)
H24_7 H 0.6623 0.6980 0.0447
C25_7 C 0.6525(2) 0.7519(7) 0.09707(18)
C26_7 C 0.6262(2) 0.8420(7) 0.11026(18)
H25_7 H 0.6312 0.8424 0.1390
C34_7 C 0.9561(3) 0.0068(13) 0.4249(4)
H35_7 H 0.9447 0.1009 0.4114
H36_7 H 0.9554 0.0033 0.4525
H43_7 H 0.9837 0.2333 0.4591
H42_5 H 0.4721 0.7190 0.9981
O9_5 O 0.47949(18) 0.8877(5) 0.12749(17)
N3_5 N 0.4658(3) 0.7073(9) 0.1641(2)
C30_5 C 0.4927(3) 0.7784(10) 0.1517(3)
C31_5 C 0.4206(4) 0.7757(13) 0.1467(4)
H26_5 H 0.4154 0.8165 0.1700
H27_5 H 0.3983 0.7015 0.1320
H28_5 H 0.4188 0.8536 0.1270
C32_5 C 0.4748(4) 0.5767(12) 0.1908(4)
H29_3 H 0.4659 0.4897 0.1729
H30_5 H 0.4581 0.5819 0.2078
H31_5 H 0.5063 0.5714 0.2096
C33_5 C 0.5387(3) 0.7093(12) 0.1746(4)
H32_5 H 0.5609 0.7774 0.1743
H33_5 H 0.5398 0.6190 0.1602
H34_5 H 0.5445 0.6876 0.2038
O9_6 O 0.52051(18) 0.8877(5) 0.37251(17)
N3_6 N 0.5342(3) 0.7073(9) 0.3359(2)
C30_6 C 0.5073(3) 0.7784(10) 0.3483(3)
C31_6 C 0.5794(4) 0.7757(13) 0.3533(4)
H26_6 H 0.5846 0.8165 0.3300
H27_6 H 0.6017 0.7015 0.3680
H28_6 H 0.5812 0.8536 0.3730
C32_6 C 0.5252(4) 0.5767(12) 0.3092(4)
H29_4 H 0.5341 0.4897 0.3271
H30_6 H 0.5419 0.5819 0.2922
H31_6 H 0.4937 0.5714 0.2904
C33_6 C 0.4613(3) 0.7093(12) 0.3254(4)
H32_6 H 0.4391 0.7774 0.3257
H33_6 H 0.4602 0.6190 0.3398
H34_6 H 0.4555 0.6876 0.2962
H29_5 H 0.0341 0.0103 0.8271
H42_6 H 0.0279 0.7810 0.0019
N4_7 N 0.0290(3) 0.8968(9) 0.9538(2)
C35_7 C 0.0749(4) 0.9128(14) 0.9563(4)
H38_7 H 0.0942 0.9589 0.9831
H39_7 H 0.0866 0.8164 0.9546
H40_7 H 0.0737 0.9734 0.9329
C36_7 C 0.0159(4) 0.7713(12) 0.9711(4)
H41_7 H 0.0272 0.6820 0.9641
N1_8 N 0.1717(3) 0.9172(9) 0.8008(2)
H2_8 H 0.1852 0.8777 0.8259
N2_8 N 0.3157(3) 0.3422(8) 0.8754(2)
H3_8 H 0.2988 0.3874 0.8848
C1_8 C 0.3082(2) 0.3720(8) 0.83175(19)
H4_8 H 0.3364 0.3969 0.8309
H5_8 H 0.2960 0.2842 0.8142
C2_8 C 0.2754(2) 0.5008(7) 0.81402(18)
C3_8 C 0.2293(2) 0.4722(7) 0.79424(18)
C4_8 C 0.1988(2) 0.5908(7) 0.77854(19)
C5_8 C 0.2156(2) 0.7368(7) 0.78328(18)
C6_8 C 0.2622(2) 0.7656(7) 0.80426(18)
C7_8 C 0.2923(2) 0.6460(8) 0.8195(2)
C8_8 C 0.1824(2) 0.8638(7) 0.76675(19)
H6_8 H 0.1552 0.8302 0.7427
H7_8 H 0.1953 0.9439 0.7568
C9_8 C 0.1488(2) 0.5623(10) 0.7579(3)
H8_8 H 0.1428 0.4692 0.7680
H9_8 H 0.1338 0.6410 0.7655
H10_8 H 0.1380 0.5588 0.7272
C10_8 C 0.2116(3) 0.3150(8) 0.7910(3)
H11_8 H 0.2342 0.2458 0.7920
H12_8 H 0.2041 0.2962 0.8145
H13_8 H 0.1852 0.3034 0.7642
C11_8 C 0.3424(3) 0.6778(10) 0.8419(3)
H14_8 H 0.3556 0.6599 0.8223
H15_8 H 0.3471 0.7798 0.8511
H16_8 H 0.3562 0.6139 0.8665
C12_8 C 0.2790(3) 0.9232(9) 0.8106(2)
H17_8 H 0.2548 0.9889 0.7938
H18_8 H 0.2902 0.9492 0.8405
H19_8 H 0.3026 0.9324 0.8016
C21_8 C 0.40731(19) 0.0692(7) 0.91928(17)
C22_8 C 0.4161(2) 0.0699(7) 0.96256(17)
H23_8 H 0.4393 0.0129 0.9825
C23_8 C 0.3890(2) 0.1589(7) 0.97565(18)
C24_8 C 0.3555(2) 0.2447(8) 0.94624(18)
H24_8 H 0.3377 0.3020 0.9553
C25_8 C 0.3475(2) 0.2481(7) 0.90293(18)
C26_8 C 0.3738(2) 0.1580(7) 0.88974(18)
H25_8 H 0.3688 0.1576 0.8610
C34_8 C 0.0439(3) 0.9932(13) 0.5751(4)
H35_8 H 0.0553 0.8991 0.5886
H36_8 H 0.0446 0.9967 0.5475
H43_8 H 0.0163 0.7667 0.5409
H29_6 H 0.9659 0.0103 0.6729
N4_8 N 0.9710(3) 0.8968(9) 0.5462(2)
C35_8 C 0.9251(4) 0.9128(14) 0.5437(4)
H38_8 H 0.9058 0.9589 0.5169
H39_8 H 0.9134 0.8164 0.5454
H40_8 H 0.9263 0.9734 0.5671
C36_8 C 0.9841(4) 0.7713(12) 0.5289(4)
H41_8 H 0.9728 0.6820 0.5359
H42_7 H 0.9721 0.7810 0.4981
O9_7 O 0.52051(18) 0.1123(5) 0.87251(17)
N3_7 N 0.5342(3) 0.2927(9) 0.8359(2)
C30_7 C 0.5073(3) 0.2216(10) 0.8483(3)
C31_7 C 0.5794(4) 0.2243(13) 0.8533(4)
H26_7 H 0.5846 0.1835 0.8300
H27_7 H 0.6017 0.2985 0.8680
H28_7 H 0.5812 0.1464 0.8730
C32_7 C 0.5252(4) 0.4233(12) 0.8092(4)
H29_7 H 0.5341 0.5103 0.8271
H30_7 H 0.5419 0.4181 0.7922
H31_7 H 0.4937 0.4286 0.7904
C33_7 C 0.4613(3) 0.2907(12) 0.8254(4)
H32_7 H 0.4391 0.2226 0.8257
H33_7 H 0.4602 0.3810 0.8398
H34_7 H 0.4555 0.3124 0.7962
H42_8 H 0.5279 0.2810 0.0019
O9_8 O 0.47949(18) 0.1123(5) 0.62749(17)
N3_8 N 0.4658(3) 0.2927(9) 0.6641(2)
C30_8 C 0.4927(3) 0.2216(10) 0.6517(3)
C31_8 C 0.4206(4) 0.2243(13) 0.6467(4)
H26_8 H 0.4154 0.1835 0.6700
H27_8 H 0.3983 0.2985 0.6320
H28_8 H 0.4188 0.1464 0.6270
C32_8 C 0.4748(4) 0.4233(12) 0.6908(4)
H29_8 H 0.4659 0.5103 0.6729
H30_8 H 0.4581 0.4181 0.7078
H31_8 H 0.5063 0.4286 0.7096
C33_8 C 0.5387(3) 0.2907(12) 0.6746(4)
H32_8 H 0.5609 0.2226 0.6743
H33_8 H 0.5398 0.3810 0.6602
H34_8 H 0.5445 0.3124 0.7038
loop_
_geom_bond_atom_site_label_1
_geom_bond_atom_site_label_2
_geom_bond_site_symmetry_1
_geom_bond_site_symmetry_2
O3 C20 1_555 1_555
O4 C20 1_555 1_555
La3 O3 1_555 1_555
O4 La3 1_555 1_555
O3_2 C20_2 1_555 1_555
O4_2 C20_2 1_555 1_555
La3_2 O3_2 1_555 1_555
O4_2 La3_2 1_555 1_555
La3_2 O1 1_555 1_555
O1 C19 1_555 1_555
O2 La3_2 1_555 1_555
O7 C28 1_555 1_555
O8 La3_2 1_555 1_555
O10 C28 1_555 1_555
N1 H2 1_555 1_555
N4 C29 1_555 1_555
C5 C4 1_555 1_555
C6 C5 1_555 1_555
C7 C2 1_555 1_555
C8 N1 1_555 1_555
H6 C8 1_555 1_555
H7 C8 1_555 1_555
C9 C4 1_555 1_555
H9 C9 1_555 1_555
H10 C9 1_555 1_555
C11 C7 1_555 1_555
H14 C11 1_555 1_555
H15 C11 1_555 1_555
H16 C11 1_555 1_555
C12 C6 1_555 1_555
H17 C12 1_555 1_555
H18 C12 1_555 1_555
H19 C12 1_555 1_555
C13 N1 1_555 1_555
C14 C13 1_555 1_555
H20 C14 1_555 1_555
C15 C14 1_555 1_555
C16 C15 1_555 1_555
H21 C16 1_555 1_555
C17 C16 1_555 1_555
C18 C13 1_555 1_555
H22 C18 1_555 1_555
C19 O2 1_555 1_555
C28 C17 1_555 1_555
C29 O8 1_555 1_555
C34 C29 1_555 1_555
H35 C34 1_555 1_555
H36 C34 1_555 1_555
H37 C34 1_555 1_555
C35 N4 1_555 1_555
H38 C35 1_555 1_555
H39 C35 1_555 1_555
H40 C35 1_555 1_555
C36 N4 1_555 1_555
H41 C36 1_555 1_555
H43 C36 1_555 1_555
La3 O7 1_555 1_555
O13 La3_2 1_555 1_555
O14 La3_2 1_555 1_555
C5 C8 1_555 1_555
C6 C7 1_555 1_555
C15 C19 1_555 1_555
C17 C18 1_555 1_555
La3 O1_2 1_555 1_555
O1_2 C19_2 1_555 1_555
O2_2 La3 1_555 1_555
O14 C28_2 1_555 1_555
O8_2 La3 1_555 1_555
O10_2 C28_2 1_555 1_555
N1_2 H2_2 1_555 1_555
N4_2 C29_2 1_555 1_555
C5_2 C4_2 1_555 1_555
C6_2 C5_2 1_555 1_555
C7_2 C2_2 1_555 1_555
C8_2 N1_2 1_555 1_555
H6_2 C8_2 1_555 1_555
H7_2 C8_2 1_555 1_555
C9_2 C4_2 1_555 1_555
H9_2 C9_2 1_555 1_555
H10_2 C9_2 1_555 1_555
C11_2 C7_2 1_555 1_555
H14_2 C11_2 1_555 1_555
H15_2 C11_2 1_555 1_555
H16_2 C11_2 1_555 1_555
C12_2 C6_2 1_555 1_555
H17_2 C12_2 1_555 1_555
H18_2 C12_2 1_555 1_555
H19_2 C12_2 1_555 1_555
C13_2 N1_2 1_555 1_555
C14_2 C13_2 1_555 1_555
H20_2 C14_2 1_555 1_555
C15_2 C14_2 1_555 1_555
C16_2 C15_2 1_555 1_555
H21_2 C16_2 1_555 1_555
C17_2 C16_2 1_555 1_555
C18_2 C13_2 1_555 1_555
H22_2 C18_2 1_555 1_555
C19_2 O2_2 1_555 1_555
C28_2 C17_2 1_555 1_555
C29_2 O8_2 1_555 1_555
C34_2 C29_2 1_555 1_555
H35_2 C34_2 1_555 1_555
H36_2 C34_2 1_555 1_555
H37_2 C34_2 1_555 1_555
C35_2 N4_2 1_555 1_555
H38_2 C35_2 1_555 1_555
H39_2 C35_2 1_555 1_555
H40_2 C35_2 1_555 1_555
C36_2 N4_2 1_555 1_555
H41_2 C36_2 1_555 1_555
H42 C36_2 1_555 1_555
H43_2 C36_2 1_555 1_555
O13_2 La3 1_555 1_555
C5_2 C8_2 1_555 1_555
C6_2 C7_2 1_555 1_555
C15_2 C19_2 1_555 1_555
C17_2 C18_2 1_555 1_555
O13_2 C27 1_555 1_555
O6 H1 1_555 1_555
N1_3 H2_3 1_555 1_555
N2 H3 1_555 1_555
C1 N2 1_555 1_555
H4 C1 1_555 1_555
H5 C1 1_555 1_555
C2_3 C1 1_555 1_555
C3 C2_3 1_555 1_555
C4_3 C3 1_555 1_555
C5_3 C4_3 1_555 1_555
C6_3 C5_3 1_555 1_555
C7_3 C2_3 1_555 1_555
C8_3 N1_3 1_555 1_555
H6_3 C8_3 1_555 1_555
H7_3 C8_3 1_555 1_555
C9_3 C4_3 1_555 1_555
H8 C9_3 1_555 1_555
H9_3 C9_3 1_555 1_555
H10_3 C9_3 1_555 1_555
C10 C3 1_555 1_555
H11 C10 1_555 1_555
H12 C10 1_555 1_555
H13 C10 1_555 1_555
C11_3 C7_3 1_555 1_555
H14_3 C11_3 1_555 1_555
H15_3 C11_3 1_555 1_555
H16_3 C11_3 1_555 1_555
C12_3 C6_3 1_555 1_555
H17_3 C12_3 1_555 1_555
H18_3 C12_3 1_555 1_555
H19_3 C12_3 1_555 1_555
C21 C22 1_555 1_555
C22 H23 1_555 1_555
C23 C22 1_555 1_555
C24 C23 1_555 1_555
H24 C24 1_555 1_555
C25 N2 1_555 1_555
C26 C21 1_555 1_555
H25 C26 1_555 1_555
C27 O6 1_555 1_555
H35_3 C34_3 1_555 1_555
H36_3 C34_3 1_555 1_555
C5_3 C8_3 1_555 1_555
C6_3 C7_3 1_555 1_555
C23 C27 1_555 1_555
C24 C25 1_555 1_555
C25 C26 1_555 1_555
O13 C27_2 1_555 1_555
O6_2 H1_2 1_555 1_555
C27_2 O6_2 1_555 1_555
O5 C27_3 1_555 1_555
O6_3 H1_3 1_555 1_555
N1_4 H2_4 1_555 1_555
N2_2 H3_2 1_555 1_555
C1_2 N2_2 1_555 1_555
H4_2 C1_2 1_555 1_555
H5_2 C1_2 1_555 1_555
C2_4 C1_2 1_555 1_555
C3_2 C2_4 1_555 1_555
C4_4 C3_2 1_555 1_555
C5_4 C4_4 1_555 1_555
C6_4 C5_4 1_555 1_555
C7_4 C2_4 1_555 1_555
C8_4 N1_4 1_555 1_555
H6_4 C8_4 1_555 1_555
H7_4 C8_4 1_555 1_555
C9_4 C4_4 1_555 1_555
H8_2 C9_4 1_555 1_555
H9_4 C9_4 1_555 1_555
H10_4 C9_4 1_555 1_555
C10_2 C3_2 1_555 1_555
H11_2 C10_2 1_555 1_555
H12_2 C10_2 1_555 1_555
H13_2 C10_2 1_555 1_555
C11_4 C7_4 1_555 1_555
H14_4 C11_4 1_555 1_555
H15_4 C11_4 1_555 1_555
H16_4 C11_4 1_555 1_555
C12_4 C6_4 1_555 1_555
H17_4 C12_4 1_555 1_555
H18_4 C12_4 1_555 1_555
H19_4 C12_4 1_555 1_555
C21_2 C22_2 1_555 1_555
C22_2 H23_2 1_555 1_555
C23_2 C22_2 1_555 1_555
C24_2 C23_2 1_555 1_555
H24_2 C24_2 1_555 1_555
C25_2 N2_2 1_555 1_555
C26_2 C21_2 1_555 1_555
H25_2 C26_2 1_555 1_555
C27_3 O6_3 1_555 1_555
H35_4 C34_4 1_555 1_555
H36_4 C34_4 1_555 1_555
La4 O5 1_555 1_555
C5_4 C8_4 1_555 1_555
C6_4 C7_4 1_555 1_555
C23_2 C27_3 1_555 1_555
C24_2 C25_2 1_555 1_555
C25_2 C26_2 1_555 1_555
O5_2 C27_4 1_555 1_555
O6_4 H1_4 1_555 1_555
C27_4 O6_4 1_555 1_555
La4_2 O5_2 1_555 1_555
O3_3 C20_3 1_555 1_555
O4_3 C20_3 1_555 1_555
La4 O3_3 1_555 1_555
O4_3 La4 1_555 1_555
O3_4 C20_4 1_555 1_555
O4_4 C20_4 1_555 1_555
La4_2 O3_4 1_555 1_555
O4_4 La4_2 1_555 1_555
La4_2 O1_3 1_555 1_555
O1_3 C19_3 1_555 1_555
O2_3 La4_2 1_555 1_555
O7_2 C28_3 1_555 1_555
O8_3 La4_2 1_555 1_555
O10_3 C28_3 1_555 1_555
N1_5 H2_5 1_555 1_555
N4_3 C29_3 1_555 1_555
C5_5 C4_5 1_555 1_555
C6_5 C5_5 1_555 1_555
C7_5 C2_5 1_555 1_555
C8_5 N1_5 1_555 1_555
H6_5 C8_5 1_555 1_555
H7_5 C8_5 1_555 1_555
C9_5 C4_5 1_555 1_555
H9_5 C9_5 1_555 1_555
H10_5 C9_5 1_555 1_555
C11_5 C7_5 1_555 1_555
H14_5 C11_5 1_555 1_555
H15_5 C11_5 1_555 1_555
H16_5 C11_5 1_555 1_555
C12_5 C6_5 1_555 1_555
H17_5 C12_5 1_555 1_555
H18_5 C12_5 1_555 1_555
H19_5 C12_5 1_555 1_555
C13_3 N1_5 1_555 1_555
C14_3 C13_3 1_555 1_555
H20_3 C14_3 1_555 1_555
C15_3 C14_3 1_555 1_555
C16_3 C15_3 1_555 1_555
H21_3 C16_3 1_555 1_555
C17_3 C16_3 1_555 1_555
C18_3 C13_3 1_555 1_555
H22_3 C18_3 1_555 1_555
C19_3 O2_3 1_555 1_555
C28_3 C17_3 1_555 1_555
C29_3 O8_3 1_555 1_555
C34_5 C29_3 1_555 1_555
H35_5 C34_5 1_555 1_555
H36_5 C34_5 1_555 1_555
H37_3 C34_5 1_555 1_555
C35_3 N4_3 1_555 1_555
H38_3 C35_3 1_555 1_555
H39_3 C35_3 1_555 1_555
H40_3 C35_3 1_555 1_555
C36_3 N4_3 1_555 1_555
H41_3 C36_3 1_555 1_555
H43_5 C36_3 1_555 1_555
La4 O7_2 1_555 1_555
O14_2 La4_2 1_555 1_555
C5_5 C8_5 1_555 1_555
C6_5 C7_5 1_555 1_555
C15_3 C19_3 1_555 1_555
C17_3 C18_3 1_555 1_555
La4 O1_4 1_555 1_555
O1_4 C19_4 1_555 1_555
O2_4 La4 1_555 1_555
O14_2 C28_4 1_555 1_555
O8_4 La4 1_555 1_555
O10_4 C28_4 1_555 1_555
N1_6 H2_6 1_555 1_555
N4_4 C29_4 1_555 1_555
C5_6 C4_6 1_555 1_555
C6_6 C5_6 1_555 1_555
C7_6 C2_6 1_555 1_555
C8_6 N1_6 1_555 1_555
H6_6 C8_6 1_555 1_555
H7_6 C8_6 1_555 1_555
C9_6 C4_6 1_555 1_555
H9_6 C9_6 1_555 1_555
H10_6 C9_6 1_555 1_555
C11_6 C7_6 1_555 1_555
H14_6 C11_6 1_555 1_555
H15_6 C11_6 1_555 1_555
H16_6 C11_6 1_555 1_555
C12_6 C6_6 1_555 1_555
H17_6 C12_6 1_555 1_555
H18_6 C12_6 1_555 1_555
H19_6 C12_6 1_555 1_555
C13_4 N1_6 1_555 1_555
C14_4 C13_4 1_555 1_555
H20_4 C14_4 1_555 1_555
C15_4 C14_4 1_555 1_555
C16_4 C15_4 1_555 1_555
H21_4 C16_4 1_555 1_555
C17_4 C16_4 1_555 1_555
C18_4 C13_4 1_555 1_555
H22_4 C18_4 1_555 1_555
C19_4 O2_4 1_555 1_555
C28_4 C17_4 1_555 1_555
C29_4 O8_4 1_555 1_555
C34_6 C29_4 1_555 1_555
H35_6 C34_6 1_555 1_555
H36_6 C34_6 1_555 1_555
H37_4 C34_6 1_555 1_555
C35_4 N4_4 1_555 1_555
H38_4 C35_4 1_555 1_555
H39_4 C35_4 1_555 1_555
H40_4 C35_4 1_555 1_555
C36_4 N4_4 1_555 1_555
H41_4 C36_4 1_555 1_555
H42_2 C36_4 1_555 1_555
H43_6 C36_4 1_555 1_555
C5_6 C8_6 1_555 1_555
C6_6 C7_6 1_555 1_555
C15_4 C19_4 1_555 1_555
C17_4 C18_4 1_555 1_555
O1_5 C19_5 1_555 1_555
O7_3 C28_5 1_555 1_555
O10_5 C28_5 1_555 1_555
C14_5 C13_5 1_555 1_555
H20_5 C14_5 1_555 1_555
C15_5 C14_5 1_555 1_555
C16_5 C15_5 1_555 1_555
H21_5 C16_5 1_555 1_555
C17_5 C16_5 1_555 1_555
C18_5 C13_5 1_555 1_555
H22_5 C18_5 1_555 1_555
C19_5 O2_5 1_555 1_555
C28_5 C17_5 1_555 1_555
H32 C33 1_555 1_555
H33 C33 1_555 1_555
H34 C33 1_555 1_555
La2 O7_3 1_555 1_555
C15_5 C19_5 1_555 1_555
C17_5 C18_5 1_555 1_555
O8_5 La2 1_555 1_555
O9 La2 1_555 1_555
N3 C30 1_555 1_555
C29_5 O8_5 1_555 1_555
C30 O9 1_555 1_555
C31 N3 1_555 1_555
H26 C31 1_555 1_555
H27 C31 1_555 1_555
H28 C31 1_555 1_555
C32 N3 1_555 1_555
H30 C32 1_555 1_555
O13_3 La2 1_555 1_555
O11 C20_5 1_555 1_555
O12 C20_5 1_555 1_555
N2_3 H3_3 1_555 1_555
C1_3 N2_3 1_555 1_555
H4_3 C1_3 1_555 1_555
H5_3 C1_3 1_555 1_555
C10_3 C3_3 1_555 1_555
H11_3 C10_3 1_555 1_555
H12_3 C10_3 1_555 1_555
H13_3 C10_3 1_555 1_555
C20_5 C21_3 1_555 1_555
C21_3 C22_3 1_555 1_555
C22_3 H23_3 1_555 1_555
C23_3 C22_3 1_555 1_555
C24_3 C23_3 1_555 1_555
H24_3 C24_3 1_555 1_555
C25_3 N2_3 1_555 1_555
C26_3 C21_3 1_555 1_555
H25_3 C26_3 1_555 1_555
C24_3 C25_3 1_555 1_555
C25_3 C26_3 1_555 1_555
O5_3 C27_5 1_555 1_555
O6_5 H1_5 1_555 1_555
C27_5 O6_5 1_555 1_555
La4_3 O5_3 1_555 1_555
O8_6 La4_3 1_555 1_555
O9_2 La4_3 1_555 1_555
N3_2 C30_2 1_555 1_555
C29_6 O8_6 1_555 1_555
C30_2 O9_2 1_555 1_555
C31_2 N3_2 1_555 1_555
H26_2 C31_2 1_555 1_555
H27_2 C31_2 1_555 1_555
H28_2 C31_2 1_555 1_555
C32_2 N3_2 1_555 1_555
H30_2 C32_2 1_555 1_555
O14_3 La4_3 1_555 1_555
O1_6 C19_6 1_555 1_555
O14_3 C28_6 1_555 1_555
O10_6 C28_6 1_555 1_555
C14_6 C13_6 1_555 1_555
H20_6 C14_6 1_555 1_555
C15_6 C14_6 1_555 1_555
C16_6 C15_6 1_555 1_555
H21_6 C16_6 1_555 1_555
C17_6 C16_6 1_555 1_555
C18_6 C13_6 1_555 1_555
H22_6 C18_6 1_555 1_555
C19_6 O2_6 1_555 1_555
C28_6 C17_6 1_555 1_555
H32_2 C33_2 1_555 1_555
H33_2 C33_2 1_555 1_555
H34_2 C33_2 1_555 1_555
C15_6 C19_6 1_555 1_555
C17_6 C18_6 1_555 1_555
O11_2 C20_6 1_555 1_555
O12_2 C20_6 1_555 1_555
O13_3 C27_6 1_555 1_555
O6_6 H1_6 1_555 1_555
N2_4 H3_4 1_555 1_555
C1_4 N2_4 1_555 1_555
H4_4 C1_4 1_555 1_555
H5_4 C1_4 1_555 1_555
C10_4 C3_4 1_555 1_555
H11_4 C10_4 1_555 1_555
H12_4 C10_4 1_555 1_555
H13_4 C10_4 1_555 1_555
C20_6 C21_4 1_555 1_555
C21_4 C22_4 1_555 1_555
C22_4 H23_4 1_555 1_555
C23_4 C22_4 1_555 1_555
C24_4 C23_4 1_555 1_555
H24_4 C24_4 1_555 1_555
C25_4 N2_4 1_555 1_555
C26_4 C21_4 1_555 1_555
H25_4 C26_4 1_555 1_555
C27_6 O6_6 1_555 1_555
C23_4 C27_6 1_555 1_555
C24_4 C25_4 1_555 1_555
C25_4 C26_4 1_555 1_555
C35_5 N4_5 1_555 1_555
H38_5 C35_5 1_555 1_555
H39_5 C35_5 1_555 1_555
H40_5 C35_5 1_555 1_555
C36_5 N4_5 1_555 1_555
H41_5 C36_5 1_555 1_555
O8_7 La1 1_555 1_555
O9_3 La1 1_555 1_555
N3_3 C30_3 1_555 1_555
C29_7 O8_7 1_555 1_555
C30_3 O9_3 1_555 1_555
C31_3 N3_3 1_555 1_555
H26_3 C31_3 1_555 1_555
H27_3 C31_3 1_555 1_555
H28_3 C31_3 1_555 1_555
C32_3 N3_3 1_555 1_555
H30_3 C32_3 1_555 1_555
O13_4 La1 1_555 1_555
O14_4 La1 1_555 1_555
O1_7 C19_7 1_555 1_555
O14_4 C28_7 1_555 1_555
O10_7 C28_7 1_555 1_555
C14_7 C13_7 1_555 1_555
H20_7 C14_7 1_555 1_555
C15_7 C14_7 1_555 1_555
C16_7 C15_7 1_555 1_555
H21_7 C16_7 1_555 1_555
C17_7 C16_7 1_555 1_555
C18_7 C13_7 1_555 1_555
H22_7 C18_7 1_555 1_555
C19_7 O2_7 1_555 1_555
C28_7 C17_7 1_555 1_555
H32_3 C33_3 1_555 1_555
H33_3 C33_3 1_555 1_555
H34_3 C33_3 1_555 1_555
C15_7 C19_7 1_555 1_555
C17_7 C18_7 1_555 1_555
O11_3 C20_7 1_555 1_555
O12_3 C20_7 1_555 1_555
O5_4 C27_7 1_555 1_555
O6_7 H1_7 1_555 1_555
N2_5 H3_5 1_555 1_555
C1_5 N2_5 1_555 1_555
H4_5 C1_5 1_555 1_555
H5_5 C1_5 1_555 1_555
C10_5 C3_5 1_555 1_555
H11_5 C10_5 1_555 1_555
H12_5 C10_5 1_555 1_555
H13_5 C10_5 1_555 1_555
C20_7 C21_5 1_555 1_555
C21_5 C22_5 1_555 1_555
C22_5 H23_5 1_555 1_555
C23_5 C22_5 1_555 1_555
C24_5 C23_5 1_555 1_555
H24_5 C24_5 1_555 1_555
C25_5 N2_5 1_555 1_555
C26_5 C21_5 1_555 1_555
H25_5 C26_5 1_555 1_555
C27_7 O6_7 1_555 1_555
La4_4 O5_4 1_555 1_555
C23_5 C27_7 1_555 1_555
C24_5 C25_5 1_555 1_555
C25_5 C26_5 1_555 1_555
O1_8 C19_8 1_555 1_555
O7_4 C28_8 1_555 1_555
O10_8 C28_8 1_555 1_555
C14_8 C13_8 1_555 1_555
H20_8 C14_8 1_555 1_555
C15_8 C14_8 1_555 1_555
C16_8 C15_8 1_555 1_555
H21_8 C16_8 1_555 1_555
C17_8 C16_8 1_555 1_555
C18_8 C13_8 1_555 1_555
H22_8 C18_8 1_555 1_555
C19_8 O2_8 1_555 1_555
C28_8 C17_8 1_555 1_555
H32_4 C33_4 1_555 1_555
H33_4 C33_4 1_555 1_555
H34_4 C33_4 1_555 1_555
La4_4 O7_4 1_555 1_555
C15_8 C19_8 1_555 1_555
C17_8 C18_8 1_555 1_555
O8_8 La4_4 1_555 1_555
O9_4 La4_4 1_555 1_555
N3_4 C30_4 1_555 1_555
C29_8 O8_8 1_555 1_555
C30_4 O9_4 1_555 1_555
C31_4 N3_4 1_555 1_555
H26_4 C31_4 1_555 1_555
H27_4 C31_4 1_555 1_555
H28_4 C31_4 1_555 1_555
C32_4 N3_4 1_555 1_555
H30_4 C32_4 1_555 1_555
O13_4 C27_8 1_555 1_555
O6_8 H1_8 1_555 1_555
C27_8 O6_8 1_555 1_555
O11_4 C20_8 1_555 1_555
O12_4 C20_8 1_555 1_555
N2_6 H3_6 1_555 1_555
C1_6 N2_6 1_555 1_555
H4_6 C1_6 1_555 1_555
H5_6 C1_6 1_555 1_555
C10_6 C3_6 1_555 1_555
H11_6 C10_6 1_555 1_555
H12_6 C10_6 1_555 1_555
H13_6 C10_6 1_555 1_555
C20_8 C21_6 1_555 1_555
C21_6 C22_6 1_555 1_555
C22_6 H23_6 1_555 1_555
C23_6 C22_6 1_555 1_555
C24_6 C23_6 1_555 1_555
H24_6 C24_6 1_555 1_555
C25_6 N2_6 1_555 1_555
C26_6 C21_6 1_555 1_555
H25_6 C26_6 1_555 1_555
C24_6 C25_6 1_555 1_555
C25_6 C26_6 1_555 1_555
C35_6 N4_6 1_555 1_555
H38_6 C35_6 1_555 1_555
H39_6 C35_6 1_555 1_555
H40_6 C35_6 1_555 1_555
C36_6 N4_6 1_555 1_555
H41_6 C36_6 1_555 1_555
H42_4 C36_6 1_555 1_555
N1_7 H2_7 1_555 1_555
N2_7 H3_7 1_555 1_555
C1_7 N2_7 1_555 1_555
H4_7 C1_7 1_555 1_555
H5_7 C1_7 1_555 1_555
C2_7 C1_7 1_555 1_555
C3_7 C2_7 1_555 1_555
C4_7 C3_7 1_555 1_555
C5_7 C4_7 1_555 1_555
C6_7 C5_7 1_555 1_555
C7_7 C2_7 1_555 1_555
C8_7 N1_7 1_555 1_555
H6_7 C8_7 1_555 1_555
H7_7 C8_7 1_555 1_555
C9_7 C4_7 1_555 1_555
H8_7 C9_7 1_555 1_555
H9_7 C9_7 1_555 1_555
H10_7 C9_7 1_555 1_555
C10_7 C3_7 1_555 1_555
H11_7 C10_7 1_555 1_555
H12_7 C10_7 1_555 1_555
H13_7 C10_7 1_555 1_555
C11_7 C7_7 1_555 1_555
H14_7 C11_7 1_555 1_555
H15_7 C11_7 1_555 1_555
H16_7 C11_7 1_555 1_555
C12_7 C6_7 1_555 1_555
H17_7 C12_7 1_555 1_555
H18_7 C12_7 1_555 1_555
H19_7 C12_7 1_555 1_555
C21_7 C22_7 1_555 1_555
C22_7 H23_7 1_555 1_555
C23_7 C22_7 1_555 1_555
C24_7 C23_7 1_555 1_555
H24_7 C24_7 1_555 1_555
C25_7 N2_7 1_555 1_555
C26_7 C21_7 1_555 1_555
H25_7 C26_7 1_555 1_555
H35_7 C34_7 1_555 1_555
H36_7 C34_7 1_555 1_555
C5_7 C8_7 1_555 1_555
C6_7 C7_7 1_555 1_555
C24_7 C25_7 1_555 1_555
C25_7 C26_7 1_555 1_555
N3_5 C30_5 1_555 1_555
C30_5 O9_5 1_555 1_555
C31_5 N3_5 1_555 1_555
H26_5 C31_5 1_555 1_555
H27_5 C31_5 1_555 1_555
H28_5 C31_5 1_555 1_555
C32_5 N3_5 1_555 1_555
H29_3 C32_5 1_555 1_555
H30_5 C32_5 1_555 1_555
H31_5 C32_5 1_555 1_555
C33_5 C30_5 1_555 1_555
H32_5 C33_5 1_555 1_555
H33_5 C33_5 1_555 1_555
H34_5 C33_5 1_555 1_555
N3_6 C30_6 1_555 1_555
C30_6 O9_6 1_555 1_555
C31_6 N3_6 1_555 1_555
H26_6 C31_6 1_555 1_555
H27_6 C31_6 1_555 1_555
H28_6 C31_6 1_555 1_555
C32_6 N3_6 1_555 1_555
H29_4 C32_6 1_555 1_555
H30_6 C32_6 1_555 1_555
H31_6 C32_6 1_555 1_555
C33_6 C30_6 1_555 1_555
H32_6 C33_6 1_555 1_555
H33_6 C33_6 1_555 1_555
H34_6 C33_6 1_555 1_555
C35_7 N4_7 1_555 1_555
H38_7 C35_7 1_555 1_555
H39_7 C35_7 1_555 1_555
H40_7 C35_7 1_555 1_555
C36_7 N4_7 1_555 1_555
H41_7 C36_7 1_555 1_555
N1_8 H2_8 1_555 1_555
N2_8 H3_8 1_555 1_555
C1_8 N2_8 1_555 1_555
H4_8 C1_8 1_555 1_555
H5_8 C1_8 1_555 1_555
C2_8 C1_8 1_555 1_555
C3_8 C2_8 1_555 1_555
C4_8 C3_8 1_555 1_555
C5_8 C4_8 1_555 1_555
C6_8 C5_8 1_555 1_555
C7_8 C2_8 1_555 1_555
C8_8 N1_8 1_555 1_555
H6_8 C8_8 1_555 1_555
H7_8 C8_8 1_555 1_555
C9_8 C4_8 1_555 1_555
H8_8 C9_8 1_555 1_555
H9_8 C9_8 1_555 1_555
H10_8 C9_8 1_555 1_555
C10_8 C3_8 1_555 1_555
H11_8 C10_8 1_555 1_555
H12_8 C10_8 1_555 1_555
H13_8 C10_8 1_555 1_555
C11_8 C7_8 1_555 1_555
H14_8 C11_8 1_555 1_555
H15_8 C11_8 1_555 1_555
H16_8 C11_8 1_555 1_555
C12_8 C6_8 1_555 1_555
H17_8 C12_8 1_555 1_555
H18_8 C12_8 1_555 1_555
H19_8 C12_8 1_555 1_555
C21_8 C22_8 1_555 1_555
C22_8 H23_8 1_555 1_555
C23_8 C22_8 1_555 1_555
C24_8 C23_8 1_555 1_555
H24_8 C24_8 1_555 1_555
C25_8 N2_8 1_555 1_555
C26_8 C21_8 1_555 1_555
H25_8 C26_8 1_555 1_555
H35_8 C34_8 1_555 1_555
H36_8 C34_8 1_555 1_555
C5_8 C8_8 1_555 1_555
C6_8 C7_8 1_555 1_555
C24_8 C25_8 1_555 1_555
C25_8 C26_8 1_555 1_555
C35_8 N4_8 1_555 1_555
H38_8 C35_8 1_555 1_555
H39_8 C35_8 1_555 1_555
H40_8 C35_8 1_555 1_555
C36_8 N4_8 1_555 1_555
H41_8 C36_8 1_555 1_555
H42_7 C36_8 1_555 1_555
N3_7 C30_7 1_555 1_555
C30_7 O9_7 1_555 1_555
C31_7 N3_7 1_555 1_555
H26_7 C31_7 1_555 1_555
H27_7 C31_7 1_555 1_555
H28_7 C31_7 1_555 1_555
C32_7 N3_7 1_555 1_555
H29_7 C32_7 1_555 1_555
H30_7 C32_7 1_555 1_555
H31_7 C32_7 1_555 1_555
C33_7 C30_7 1_555 1_555
H32_7 C33_7 1_555 1_555
H33_7 C33_7 1_555 1_555
H34_7 C33_7 1_555 1_555
N3_8 C30_8 1_555 1_555
C30_8 O9_8 1_555 1_555
C31_8 N3_8 1_555 1_555
H26_8 C31_8 1_555 1_555
H27_8 C31_8 1_555 1_555
H28_8 C31_8 1_555 1_555
C32_8 N3_8 1_555 1_555
H29_8 C32_8 1_555 1_555
H30_8 C32_8 1_555 1_555
H31_8 C32_8 1_555 1_555
C33_8 C30_8 1_555 1_555
H32_8 C33_8 1_555 1_555
H33_8 C33_8 1_555 1_555
H34_8 C33_8 1_555 1_555

#END
