
###############################################################################
#
# This file contains modified crystal structure data generated from the
# MOF subset of the Cambridge Structural Database (CSD) v543 
# hosted by the Cambridge Crystallographic Data Centre (CCDC).
#
# This work is licensed under the Creative Commons
# Attribution-NonCommercial-ShareAlike 4.0 International License.
# To view a copy of this license, visit
# http://creativecommons.org/licenses/by-nc-sa/4.0/
# or send a letter to
# Creative Commons, PO Box 1866, Mountain View, CA 94042, USA.
#
# CIF created using the CSD Python API on 29 September 2022
# The structure has been converted into the P1 space group
# The structure has a 3D framework
# The original CSD entry GUHPAC is in the monoclinic crystal system
# The framework has been calculated to contain at least 10.0% void space
# The void calculation uses a probe of radius 1.32A, grid spacing 0.4
#
###############################################################################

data_GUHPAC
_chemical_formula_moiety         '(C296 H344 N32 O80 Sm8)n'
_symmetry_cell_setting           triclinic
_symmetry_space_group_name_H-M   'P 1'
_symmetry_Int_Tables_number      1
_space_group_name_Hall           'P 1'
loop_
_symmetry_equiv_pos_site_id
_symmetry_equiv_pos_as_xyz
1 x,y,z
_cell_length_a                   32.84(3)
_cell_length_b                   8.998(8)
_cell_length_c                   34.21(3)
_cell_angle_alpha                90
_cell_angle_beta                 115.564(11)
_cell_angle_gamma                90
_cell_volume                     9119.24
loop_
_atom_site_label
_atom_site_type_symbol
_atom_site_fract_x
_atom_site_fract_y
_atom_site_fract_z
O3 O 0.0298(2) 0.0986(8) 0.06839(19)
O4 O 0.0705(2) 0.0290(8) 0.13444(18)
C27 C 0.0632(3) 0.0300(12) 0.0960(3)
C34 C 0.0370(4) 0.2860(16) 0.6731(5)
H35 H 0.0549 0.2705 0.6575
H36 H 0.0521 0.2441 0.7016
H37 H 0.0327 0.3906 0.6753
H39 H 0.0034 0.3964 0.7166
Sm2 Sm 0.003808(16) 0.14245(6) 0.381033(14)
O5 O 0.0468(2) 0.3176(8) 0.17214(18)
O6 O 0.0311(2) 0.1171(8) 0.19966(18)
O7 O 0.0612(2) 0.2047(8) 0.3606(2)
O10 O 0.1316(3) 0.2704(14) 0.4004(2)
H1 H 0.1265 0.2364 0.4201
N1 N 0.1694(3) 0.5820(12) 0.3000(3)
H2 H 0.1824 0.6218 0.3252
N3 N 0.4673(5) 0.9002(15) 0.5474(4)
C1 C 0.0972(4) 0.2519(13) 0.3644(3)
C2 C 0.1027(3) 0.3080(12) 0.3245(3)
C3 C 0.0755(3) 0.2479(12) 0.2846(3)
H4 H 0.0550 0.1726 0.2818
C4 C 0.0798(3) 0.3039(12) 0.2489(3)
C5 C 0.1107(3) 0.4128(11) 0.2529(3)
H5 H 0.1132 0.4474 0.2284
C6 C 0.1388(3) 0.4728(12) 0.2943(3)
C7 C 0.1352(3) 0.4122(12) 0.3298(3)
H6 H 0.1549 0.4423 0.3575
C8 C 0.0504(3) 0.2411(13) 0.2040(3)
C9 C 0.1820(3) 0.6375(12) 0.2665(3)
H7 H 0.1552 0.6723 0.2419
H8 H 0.1949 0.5570 0.2566
C10 C 0.2158(3) 0.7632(13) 0.2832(3)
C11 C 0.2623(3) 0.7328(13) 0.3049(3)
C12 C 0.2920(3) 0.8567(13) 0.3198(3)
C13 C 0.2758(3) 1.0001(13) 0.3141(3)
C15 C 0.1995(3) 0.9117(13) 0.2790(3)
C16 C 0.2794(4) 0.5754(13) 0.3111(3)
H9 H 0.2876 0.5451 0.3405
H10 H 0.3054 0.5695 0.3052
H11 H 0.2562 0.5110 0.2917
C17 C 0.3425(3) 0.8250(13) 0.3419(3)
H12 H 0.3549 0.8352 0.3213
H13 H 0.3474 0.7255 0.3532
H14 H 0.3570 0.8941 0.3652
C18 C 0.1483(3) 0.9440(14) 0.2591(4)
H15 H 0.1320 0.8522 0.2547
H16 H 0.1394 0.9937 0.2318
C30 C 0.5431(4) 1.0000(16) 0.5756(5)
H28 H 0.5548 0.9062 0.5892
C31 C 0.4846(5) 0.7804(17) 0.5314(5)
H29 H 0.5165 0.7938 0.5407
H30 H 0.4697 0.7793 0.5003
H31 H 0.4794 0.6879 0.5424
C32 C 0.4219(5) 0.9188(18) 0.5439(5)
H32 H 0.4104 0.8242 0.5474
H33 H 0.4027 0.9589 0.5160
H34 H 0.4226 0.9856 0.5661
C30_2 C 0.0431(4) 0.5000(16) 0.0756(5)
H26 H 0.0610 0.4209 0.0937
H27 H 0.0441 0.4960 0.0480
H28_2 H 0.0548 0.5938 0.0892
H29_2 H 0.0165 0.7062 0.0407
O1 O 0.0685(2) 0.0865(8) 0.44906(18)
O2 O 0.1309(3) 0.2289(11) 0.4695(2)
O8 O 0.0217(2) 0.3780(9) 0.4179(2)
N1_2 N 0.3306(3) 0.9180(12) 0.7000(3)
H2_2 H 0.3176 0.8782 0.6748
N2 N 0.1833(3) 0.3401(11) 0.6247(2)
H3 H 0.1999 0.3860 0.6149
N3_2 N 0.0327(5) 0.5998(15) 0.4526(4)
C9_2 C 0.3180(3) 0.8625(12) 0.7335(3)
H7_2 H 0.3448 0.8277 0.7581
H8_2 H 0.3051 0.9430 0.7434
C10_2 C 0.2842(3) 0.7368(13) 0.7168(3)
C11_2 C 0.2377(3) 0.7672(13) 0.6951(3)
C12_2 C 0.2080(3) 0.6433(13) 0.6802(3)
C13_2 C 0.2242(3) 0.4999(13) 0.6859(3)
C14 C 0.2705(3) 0.4703(13) 0.7052(3)
C15_2 C 0.3005(3) 0.5883(13) 0.7210(3)
C16_2 C 0.2206(4) 0.9246(13) 0.6889(3)
H9_2 H 0.2124 0.9549 0.6595
H10_2 H 0.1946 0.9305 0.6948
H11_2 H 0.2438 0.9890 0.7083
C17_2 C 0.1575(3) 0.6750(13) 0.6581(3)
H12_2 H 0.1451 0.6648 0.6787
H13_2 H 0.1526 0.7745 0.6468
H14_2 H 0.1430 0.6059 0.6348
C18_2 C 0.3517(3) 0.5560(14) 0.7409(4)
H15_2 H 0.3680 0.6478 0.7453
H16_2 H 0.3606 0.5063 0.7682
H17 H 0.3583 0.4937 0.7216
C19 C 0.1911(3) 0.3695(12) 0.6685(3)
H18 H 0.1628 0.3941 0.6697
H19 H 0.2036 0.2821 0.6863
C20 C 0.1514(3) 0.2446(12) 0.5972(3)
C21 C 0.1436(3) 0.2399(12) 0.5538(3)
H20 H 0.1617 0.2954 0.5445
C22 C 0.1088(3) 0.1527(12) 0.5241(3)
C23 C 0.0821(3) 0.0644(12) 0.5371(3)
H21 H 0.0593 0.0053 0.5173
C24 C 0.0906(3) 0.0674(12) 0.5805(3)
C25 C 0.1248(3) 0.1539(12) 0.6101(3)
H22 H 0.1302 0.1519 0.6391
C26 C 0.1012(4) 0.1557(13) 0.4767(3)
C28 C 0.2887(4) 0.3140(12) 0.7091(4)
H23 H 0.2645 0.2476 0.6924
H24 H 0.3113 0.3111 0.6983
H25 H 0.3018 0.2842 0.7389
C29 C 0.0057(4) 0.4832(14) 0.4308(4)
C31_2 C 0.0154(5) 0.7196(17) 0.4686(5)
H30_2 H 0.0303 0.7207 0.4997
H31_2 H 0.0206 0.8121 0.4576
C32_2 C 0.0781(5) 0.5812(18) 0.4561(5)
H32_2 H 0.0896 0.6758 0.4526
H33_2 H 0.0973 0.5411 0.4840
H34_2 H 0.0774 0.5144 0.4339
O9 O 0.0216(2) 0.1004(8) 0.8738(2)
N4 N 0.0352(5) 0.2847(15) 0.8359(4)
C33 C 0.0083(5) 0.2117(13) 0.8508(4)
C35 C 0.0237(5) 0.4146(16) 0.8092(5)
H38 H 0.0190 0.4964 0.8248
H40 H 0.0478 0.4381 0.8015
C36 C 0.0804(5) 0.2208(18) 0.8550(5)
H41 H 0.0788 0.1187 0.8624
H42 H 0.0991 0.2752 0.8806
H43 H 0.0931 0.2262 0.8345
N1_3 N 0.3306(3) 0.0820(12) 0.2000(3)
H2_3 H 0.3176 0.1218 0.1748
N2_2 N 0.1833(3) 0.6599(11) 0.1247(2)
H3_2 H 0.1999 0.6140 0.1149
C9_3 C 0.3180(3) 0.1375(12) 0.2335(3)
H7_3 H 0.3448 0.1723 0.2581
H8_3 H 0.3051 0.0570 0.2434
C10_3 C 0.2842(3) 0.2632(13) 0.2168(3)
C11_3 C 0.2377(3) 0.2328(13) 0.1951(3)
C12_3 C 0.2080(3) 0.3567(13) 0.1802(3)
C13_3 C 0.2242(3) 0.5001(13) 0.1859(3)
C14_2 C 0.2705(3) 0.5297(13) 0.2052(3)
C15_3 C 0.3005(3) 0.4117(13) 0.2210(3)
C16_3 C 0.2206(4) 0.0754(13) 0.1889(3)
H9_3 H 0.2124 0.0451 0.1595
H10_3 H 0.1946 0.0695 0.1948
H11_3 H 0.2438 0.0110 0.2083
C17_3 C 0.1575(3) 0.3250(13) 0.1581(3)
H12_3 H 0.1451 0.3352 0.1787
H13_3 H 0.1526 0.2255 0.1468
H14_3 H 0.1430 0.3941 0.1348
C18_3 C 0.3517(3) 0.4440(14) 0.2409(4)
H15_3 H 0.3680 0.3522 0.2453
H16_3 H 0.3606 0.4937 0.2682
H17_2 H 0.3583 0.5063 0.2216
C19_2 C 0.1911(3) 0.6305(12) 0.1685(3)
H18_2 H 0.1628 0.6059 0.1697
H19_2 H 0.2036 0.7179 0.1863
C20_2 C 0.1514(3) 0.7554(12) 0.0972(3)
C21_2 C 0.1436(3) 0.7601(12) 0.0538(3)
H20_2 H 0.1617 0.7046 0.0445
C22_2 C 0.1088(3) 0.8473(12) 0.0241(3)
C23_2 C 0.0821(3) 0.9356(12) 0.0371(3)
H21_2 H 0.0593 0.9947 0.0173
C24_2 C 0.0906(3) 0.9326(12) 0.0805(3)
C25_2 C 0.1248(3) 0.8461(12) 0.1101(3)
H22_2 H 0.1302 0.8481 0.1391
C28_2 C 0.2887(4) 0.6860(12) 0.2091(4)
H23_2 H 0.2645 0.7524 0.1924
H24_2 H 0.3113 0.6889 0.1983
H25_2 H 0.3018 0.7158 0.2389
Sm1 Sm 0.003808(16) 0.85755(6) 0.881033(14)
O1_2 O 0.0685(2) 0.9135(8) 0.94906(18)
O2_2 O 0.1309(3) 0.7711(11) 0.9695(2)
O8_2 O 0.0217(2) 0.6220(9) 0.9179(2)
N3_3 N 0.0327(5) 0.4002(15) 0.9526(4)
C26_2 C 0.1012(4) 0.8443(13) 0.9767(3)
C29_2 C 0.0057(4) 0.5168(14) 0.9308(4)
C31_3 C 0.0154(5) 0.2804(17) 0.9686(5)
H30_3 H 0.0303 0.2793 0.9997
H31_3 H 0.0206 0.1879 0.9576
C32_3 C 0.0781(5) 0.4188(18) 0.9561(5)
H32_3 H 0.0896 0.3242 0.9526
H33_3 H 0.0973 0.4589 0.9840
H34_3 H 0.0774 0.4856 0.9339
O15 O 0.0612(2) 0.7953(8) 0.8606(2)
C30_3 C 0.0431(4) 0.5000(16) 0.5756(5)
H26_2 H 0.0610 0.5791 0.5937
H27_2 H 0.0441 0.5040 0.5480
H28_3 H 0.0548 0.4062 0.5892
H29_3 H 0.0165 0.2938 0.5407
O11 O 0.0298(2) 0.9014(8) 0.56839(19)
O12 O 0.0705(2) 0.9710(8) 0.63444(18)
O13 O 0.0468(2) 0.6824(8) 0.67214(18)
O14 O 0.0311(2) 0.8829(8) 0.69966(18)
O9_2 O 0.0216(2) 0.8996(8) 0.3738(2)
N4_2 N 0.0352(5) 0.7153(15) 0.3359(4)
C27_2 C 0.0632(3) 0.9700(12) 0.5960(3)
C33_2 C 0.0083(5) 0.7883(13) 0.3508(4)
C35_2 C 0.0237(5) 0.5854(16) 0.3092(5)
H38_2 H 0.0190 0.5036 0.3248
H40_2 H 0.0478 0.5619 0.3015
C36_2 C 0.0804(5) 0.7792(18) 0.3550(5)
H41_2 H 0.0788 0.8813 0.3624
H42_2 H 0.0991 0.7248 0.3806
H43_2 H 0.0931 0.7738 0.3345
O10_2 O 0.1316(3) 0.7296(14) 0.9004(2)
H1_2 H 0.1265 0.7636 0.9201
N1_4 N 0.1694(3) 0.4180(12) 0.8000(3)
H2_4 H 0.1824 0.3782 0.8252
C1_2 C 0.0972(4) 0.7481(13) 0.8644(3)
C2_2 C 0.1027(3) 0.6920(12) 0.8245(3)
C3_2 C 0.0755(3) 0.7521(12) 0.7846(3)
H4_2 H 0.0550 0.8274 0.7818
C4_2 C 0.0798(3) 0.6961(12) 0.7489(3)
C5_2 C 0.1107(3) 0.5872(11) 0.7529(3)
H5_2 H 0.1132 0.5526 0.7284
C6_2 C 0.1388(3) 0.5272(12) 0.7943(3)
C7_2 C 0.1352(3) 0.5878(12) 0.8298(3)
H6_2 H 0.1549 0.5577 0.8575
C8_2 C 0.0504(3) 0.7589(13) 0.7040(3)
C9_4 C 0.1820(3) 0.3625(12) 0.7665(3)
H7_4 H 0.1552 0.3277 0.7419
H8_4 H 0.1949 0.4430 0.7566
C10_4 C 0.2158(3) 0.2368(13) 0.7832(3)
C11_4 C 0.2623(3) 0.2672(13) 0.8049(3)
C12_4 C 0.2920(3) 0.1433(13) 0.8198(3)
C13_4 C 0.2758(3) -0.0001(13) 0.8141(3)
C15_4 C 0.1995(3) 0.0883(13) 0.7790(3)
C16_4 C 0.2794(4) 0.4246(13) 0.8111(3)
H9_4 H 0.2876 0.4549 0.8405
H10_4 H 0.3054 0.4305 0.8052
H11_4 H 0.2562 0.4890 0.7917
C17_4 C 0.3425(3) 0.1750(13) 0.8419(3)
H12_4 H 0.3549 0.1648 0.8213
H13_4 H 0.3474 0.2745 0.8532
H14_4 H 0.3570 0.1059 0.8652
C18_4 C 0.1483(3) 0.0560(14) 0.7591(4)
H15_4 H 0.1320 0.1478 0.7547
H16_4 H 0.1394 0.0063 0.7318
O5_2 O 0.4532(2) 0.8176(8) 0.32786(18)
O6_2 O 0.4689(2) 0.6171(8) 0.30034(18)
O7_2 O 0.4388(2) 0.7047(8) 0.1394(2)
O10_3 O 0.3684(3) 0.7704(14) 0.0996(2)
H1_3 H 0.3735 0.7364 0.0799
C1_3 C 0.4028(4) 0.7519(13) 0.1356(3)
C2_3 C 0.3973(3) 0.8080(12) 0.1755(3)
C3_3 C 0.4245(3) 0.7479(12) 0.2154(3)
H4_3 H 0.4450 0.6726 0.2182
C4_3 C 0.4202(3) 0.8039(12) 0.2511(3)
C5_3 C 0.3893(3) 0.9128(11) 0.2471(3)
H5_3 H 0.3868 0.9474 0.2716
C6_3 C 0.3612(3) 0.9728(12) 0.2057(3)
C7_3 C 0.3648(3) 0.9122(12) 0.1702(3)
H6_3 H 0.3451 0.9423 0.1425
C8_3 C 0.4496(3) 0.7411(13) 0.2960(3)
Sm3 Sm 0.496192(16) 0.64245(6) 0.118967(14)
Sm4 Sm 0.503808(16) 0.64245(6) 0.381033(14)
O5_3 O 0.5468(2) 0.8176(8) 0.17214(18)
O6_3 O 0.5311(2) 0.6171(8) 0.19966(18)
O7_3 O 0.5612(2) 0.7047(8) 0.3606(2)
O10_4 O 0.6316(3) 0.7704(14) 0.4004(2)
H1_4 H 0.6265 0.7364 0.4201
C1_4 C 0.5972(4) 0.7519(13) 0.3644(3)
C2_4 C 0.6027(3) 0.8080(12) 0.3245(3)
C3_4 C 0.5755(3) 0.7479(12) 0.2846(3)
H4_4 H 0.5550 0.6726 0.2818
C4_4 C 0.5798(3) 0.8039(12) 0.2489(3)
C5_4 C 0.6107(3) 0.9128(11) 0.2529(3)
H5_4 H 0.6132 0.9474 0.2284
C6_4 C 0.6388(3) 0.9728(12) 0.2943(3)
C7_4 C 0.6352(3) 0.9122(12) 0.3298(3)
H6_4 H 0.6549 0.9423 0.3575
C8_4 C 0.5504(3) 0.7411(13) 0.2040(3)
O3_2 O 0.5298(2) 0.5986(8) 0.06839(19)
O4_2 O 0.5705(2) 0.5290(8) 0.13444(18)
N2_3 N 0.6833(3) 0.1599(11) 0.1247(2)
H3_3 H 0.6999 0.1140 0.1149
C13_5 C 0.7242(3) 0.0001(13) 0.1859(3)
C14_3 C 0.7705(3) 0.0297(13) 0.2052(3)
H17_3 H 0.8583 0.0063 0.2216
C19_3 C 0.6911(3) 0.1305(12) 0.1685(3)
H18_3 H 0.6628 0.1059 0.1697
H19_3 H 0.7036 0.2179 0.1863
C20_3 C 0.6514(3) 0.2554(12) 0.0972(3)
C21_3 C 0.6436(3) 0.2601(12) 0.0538(3)
H20_3 H 0.6617 0.2046 0.0445
C22_3 C 0.6088(3) 0.3473(12) 0.0241(3)
C23_3 C 0.5821(3) 0.4356(12) 0.0371(3)
H21_3 H 0.5593 0.4947 0.0173
C24_3 C 0.5906(3) 0.4326(12) 0.0805(3)
C25_3 C 0.6248(3) 0.3461(12) 0.1101(3)
H22_3 H 0.6302 0.3481 0.1391
C27_3 C 0.5632(3) 0.5300(12) 0.0960(3)
C28_3 C 0.7887(4) 0.1860(12) 0.2091(4)
H23_3 H 0.7645 0.2524 0.1924
H24_3 H 0.8113 0.1889 0.1983
H25_3 H 0.8018 0.2158 0.2389
Sm1_2 Sm 0.503808(16) 0.35755(6) 0.881033(14)
O1_3 O 0.5685(2) 0.4135(8) 0.94906(18)
O2_3 O 0.6309(3) 0.2711(11) 0.9695(2)
O8_3 O 0.5217(2) 0.1220(9) 0.9179(2)
O9_3 O 0.5216(2) 0.6004(8) 0.8738(2)
N4_3 N 0.5352(5) 0.7847(15) 0.8359(4)
C26_3 C 0.6012(4) 0.3443(13) 0.9767(3)
C29_3 C 0.5057(4) 0.0168(14) 0.9308(4)
C30_4 C 0.4569(4) -0.0000(16) 0.9244(5)
H26_3 H 0.4390 0.0791 0.9063
H27_3 H 0.4559 0.0040 0.9520
C33_3 C 0.5083(5) 0.7117(13) 0.8508(4)
C34_2 C 0.4630(4) 0.7860(16) 0.8269(5)
H35_2 H 0.4451 0.7705 0.8425
H36_2 H 0.4479 0.7441 0.7984
H37_2 H 0.4673 0.8906 0.8247
C35_3 C 0.5237(5) 0.9146(16) 0.8092(5)
H38_3 H 0.5190 0.9964 0.8248
H39_2 H 0.4966 0.8964 0.7834
H40_3 H 0.5478 0.9381 0.8015
C36_3 C 0.5804(5) 0.7208(18) 0.8550(5)
H41_3 H 0.5788 0.6187 0.8624
H42_3 H 0.5991 0.7752 0.8806
H43_3 H 0.5931 0.7262 0.8345
O11_2 O 0.4702(2) 0.4014(8) 0.93161(19)
O12_2 O 0.4295(2) 0.4710(8) 0.86556(18)
O13_2 O 0.4532(2) 0.1824(8) 0.82786(18)
O14_2 O 0.4689(2) 0.3829(8) 0.80034(18)
O15_2 O 0.5612(2) 0.2953(8) 0.8606(2)
Sm1_3 Sm 0.496192(16) 0.35755(6) 0.618967(14)
O1_4 O 0.4315(2) 0.4135(8) 0.55094(18)
O2_4 O 0.3691(3) 0.2711(11) 0.5305(2)
O3_3 O 0.4702(2) 0.5986(8) 0.43161(19)
O4_3 O 0.4295(2) 0.5290(8) 0.36556(18)
O8_4 O 0.4783(2) 0.1220(9) 0.5821(2)
O9_4 O 0.4784(2) 0.6004(8) 0.6262(2)
N2_4 N 0.3167(3) 0.1599(11) 0.3753(2)
H3_4 H 0.3001 0.1140 0.3851
N4_4 N 0.4648(5) 0.7847(15) 0.6641(4)
C13_6 C 0.2758(3) 0.0001(13) 0.3141(3)
C14_4 C 0.2295(3) 0.0297(13) 0.2948(3)
H17_4 H 0.1417 0.0063 0.2784
C19_4 C 0.3089(3) 0.1305(12) 0.3315(3)
H18_4 H 0.3372 0.1059 0.3303
H19_4 H 0.2964 0.2179 0.3137
C20_4 C 0.3486(3) 0.2554(12) 0.4028(3)
C21_4 C 0.3564(3) 0.2601(12) 0.4462(3)
H20_4 H 0.3383 0.2046 0.4555
C22_4 C 0.3912(3) 0.3473(12) 0.4759(3)
C23_4 C 0.4179(3) 0.4356(12) 0.4629(3)
H21_4 H 0.4407 0.4947 0.4827
C24_4 C 0.4094(3) 0.4326(12) 0.4195(3)
C25_4 C 0.3752(3) 0.3461(12) 0.3899(3)
H22_4 H 0.3698 0.3481 0.3609
C26_4 C 0.3988(4) 0.3443(13) 0.5233(3)
C27_4 C 0.4368(3) 0.5300(12) 0.4040(3)
C28_4 C 0.2113(4) 0.1860(12) 0.2909(4)
H23_4 H 0.2355 0.2524 0.3076
H24_4 H 0.1887 0.1889 0.3017
H25_4 H 0.1982 0.2158 0.2611
C29_4 C 0.4943(4) 0.0168(14) 0.5692(4)
C30_5 C 0.5431(4) -0.0000(16) 0.5756(5)
H26_4 H 0.5610 0.0791 0.5937
H27_4 H 0.5441 0.0040 0.5480
C33_4 C 0.4917(5) 0.7117(13) 0.6492(4)
C34_3 C 0.5370(4) 0.7860(16) 0.6731(5)
H35_3 H 0.5549 0.7705 0.6575
H36_3 H 0.5521 0.7441 0.7016
H37_3 H 0.5327 0.8906 0.6753
C35_4 C 0.4763(5) 0.9146(16) 0.6908(5)
H38_4 H 0.4810 0.9964 0.6752
H39_3 H 0.5034 0.8964 0.7166
H40_4 H 0.4522 0.9381 0.6985
C36_4 C 0.4196(5) 0.7208(18) 0.6450(5)
H41_4 H 0.4212 0.6187 0.6376
H42_4 H 0.4009 0.7752 0.6194
H43_4 H 0.4069 0.7262 0.6655
O11_3 O 0.5298(2) 0.4014(8) 0.56839(19)
O12_3 O 0.5705(2) 0.4710(8) 0.63444(18)
O13_3 O 0.5468(2) 0.1824(8) 0.67214(18)
O14_3 O 0.5311(2) 0.3829(8) 0.69966(18)
O15_3 O 0.4388(2) 0.2953(8) 0.6394(2)
O10_5 O 0.6316(3) 0.2296(14) 0.9004(2)
H1_5 H 0.6265 0.2636 0.9201
C1_5 C 0.5972(4) 0.2481(13) 0.8644(3)
C2_5 C 0.6027(3) 0.1920(12) 0.8245(3)
C3_5 C 0.5755(3) 0.2521(12) 0.7846(3)
H4_5 H 0.5550 0.3274 0.7818
C4_5 C 0.5798(3) 0.1961(12) 0.7489(3)
C5_5 C 0.6107(3) 0.0872(11) 0.7529(3)
H5_5 H 0.6132 0.0526 0.7284
C6_5 C 0.6388(3) 0.0272(12) 0.7943(3)
C7_5 C 0.6352(3) 0.0878(12) 0.8298(3)
H6_5 H 0.6549 0.0577 0.8575
C8_5 C 0.5504(3) 0.2589(13) 0.7040(3)
O10_6 O 0.3684(3) 0.2296(14) 0.5996(2)
H1_6 H 0.3735 0.2636 0.5799
C1_6 C 0.4028(4) 0.2481(13) 0.6356(3)
C2_6 C 0.3973(3) 0.1920(12) 0.6755(3)
C3_6 C 0.4245(3) 0.2521(12) 0.7154(3)
H4_6 H 0.4450 0.3274 0.7182
C4_6 C 0.4202(3) 0.1961(12) 0.7511(3)
C5_6 C 0.3893(3) 0.0872(11) 0.7471(3)
H5_6 H 0.3868 0.0526 0.7716
C6_6 C 0.3612(3) 0.0272(12) 0.7057(3)
C7_6 C 0.3648(3) 0.0878(12) 0.6702(3)
H6_6 H 0.3451 0.0577 0.6425
C8_6 C 0.4496(3) 0.2589(13) 0.7960(3)
O1_5 O 0.4315(2) 0.5865(8) 0.05094(18)
O2_5 O 0.3691(3) 0.7289(11) 0.0305(2)
O8_5 O 0.4783(2) 0.8780(9) 0.0821(2)
O9_5 O 0.4784(2) 0.3996(8) 0.1262(2)
N4_5 N 0.4648(5) 0.2153(15) 0.1641(4)
C26_5 C 0.3988(4) 0.6557(13) 0.0233(3)
C29_5 C 0.4943(4) 0.9832(14) 0.0692(4)
C30_6 C 0.5431(4) 1.0000(16) 0.0756(5)
H26_5 H 0.5610 0.9209 0.0937
H27_5 H 0.5441 0.9960 0.0480
C33_5 C 0.4917(5) 0.2883(13) 0.1492(4)
C34_4 C 0.5370(4) 0.2140(16) 0.1731(5)
H35_4 H 0.5549 0.2295 0.1575
H36_4 H 0.5521 0.2559 0.2016
H37_4 H 0.5327 0.1094 0.1753
C35_5 C 0.4763(5) 0.0854(16) 0.1908(5)
H38_5 H 0.4810 0.0036 0.1752
H39_4 H 0.5034 0.1036 0.2166
H40_5 H 0.4522 0.0619 0.1985
C36_5 C 0.4196(5) 0.2792(18) 0.1450(5)
H41_5 H 0.4212 0.3813 0.1376
H42_5 H 0.4009 0.2248 0.1194
H43_5 H 0.4069 0.2738 0.1655
N2_5 N 0.3167(3) 0.8401(11) 0.8753(2)
H3_5 H 0.3001 0.8860 0.8851
C13_7 C 0.2758(3) 0.9999(13) 0.8141(3)
C14_5 C 0.2295(3) 0.9703(13) 0.7948(3)
H17_5 H 0.1417 0.9937 0.7784
C19_5 C 0.3089(3) 0.8695(12) 0.8315(3)
H18_5 H 0.3372 0.8941 0.8303
H19_5 H 0.2964 0.7821 0.8137
C20_5 C 0.3486(3) 0.7446(12) 0.9028(3)
C21_5 C 0.3564(3) 0.7399(12) 0.9462(3)
H20_5 H 0.3383 0.7954 0.9555
C22_5 C 0.3912(3) 0.6527(12) 0.9759(3)
C23_5 C 0.4179(3) 0.5644(12) 0.9629(3)
H21_5 H 0.4407 0.5053 0.9827
C24_5 C 0.4094(3) 0.5674(12) 0.9195(3)
C25_5 C 0.3752(3) 0.6539(12) 0.8899(3)
H22_5 H 0.3698 0.6519 0.8609
C27_5 C 0.4368(3) 0.4700(12) 0.9040(3)
C28_5 C 0.2113(4) 0.8140(12) 0.7909(4)
H23_5 H 0.2355 0.7476 0.8076
H24_5 H 0.1887 0.8111 0.8017
H25_5 H 0.1982 0.7842 0.7611
O1_6 O 0.5685(2) 0.5865(8) 0.44906(18)
O2_6 O 0.6309(3) 0.7289(11) 0.4695(2)
O8_6 O 0.5217(2) 0.8780(9) 0.4179(2)
O9_6 O 0.5216(2) 0.3996(8) 0.3738(2)
N2_6 N 0.6833(3) 0.8401(11) 0.6247(2)
H3_6 H 0.6999 0.8860 0.6149
N4_6 N 0.5352(5) 0.2153(15) 0.3359(4)
C13_8 C 0.7242(3) 0.9999(13) 0.6859(3)
C14_6 C 0.7705(3) 0.9703(13) 0.7052(3)
H17_6 H 0.8583 0.9937 0.7216
C19_6 C 0.6911(3) 0.8695(12) 0.6685(3)
H18_6 H 0.6628 0.8941 0.6697
H19_6 H 0.7036 0.7821 0.6863
C20_6 C 0.6514(3) 0.7446(12) 0.5972(3)
C21_6 C 0.6436(3) 0.7399(12) 0.5538(3)
H20_6 H 0.6617 0.7954 0.5445
C22_6 C 0.6088(3) 0.6527(12) 0.5241(3)
C23_6 C 0.5821(3) 0.5644(12) 0.5371(3)
H21_6 H 0.5593 0.5053 0.5173
C24_6 C 0.5906(3) 0.5674(12) 0.5805(3)
C25_6 C 0.6248(3) 0.6539(12) 0.6101(3)
H22_6 H 0.6302 0.6519 0.6391
C26_6 C 0.6012(4) 0.6557(13) 0.4767(3)
C27_6 C 0.5632(3) 0.4700(12) 0.5960(3)
C28_6 C 0.7887(4) 0.8140(12) 0.7091(4)
H23_6 H 0.7645 0.7476 0.6924
H24_6 H 0.8113 0.8111 0.6983
H25_6 H 0.8018 0.7842 0.7389
C29_6 C 0.5057(4) 0.9832(14) 0.4308(4)
C30_7 C 0.4569(4) 1.0000(16) 0.4244(5)
H26_6 H 0.4390 0.9209 0.4063
H27_6 H 0.4559 0.9960 0.4520
C33_6 C 0.5083(5) 0.2883(13) 0.3508(4)
C34_5 C 0.4630(4) 0.2140(16) 0.3269(5)
H35_5 H 0.4451 0.2295 0.3425
H36_5 H 0.4479 0.2559 0.2984
H37_5 H 0.4673 0.1094 0.3247
C35_6 C 0.5237(5) 0.0854(16) 0.3092(5)
H38_6 H 0.5190 0.0036 0.3248
H39_5 H 0.4966 0.1036 0.2834
H40_6 H 0.5478 0.0619 0.3015
C36_6 C 0.5804(5) 0.2792(18) 0.3550(5)
H41_6 H 0.5788 0.3813 0.3624
H42_6 H 0.5991 0.2248 0.3806
H43_6 H 0.5931 0.2738 0.3345
Sm2_2 Sm 0.996192(16) 0.14245(6) 0.118967(14)
O3_4 O 0.9702(2) 0.0986(8) 0.43161(19)
O4_4 O 0.9295(2) 0.0290(8) 0.36556(18)
O9_7 O 0.9784(2) 0.1004(8) 0.6262(2)
N4_7 N 0.9648(5) 0.2847(15) 0.6641(4)
C27_7 C 0.9368(3) 0.0300(12) 0.4040(3)
C33_7 C 0.9917(5) 0.2117(13) 0.6492(4)
C35_7 C 0.9763(5) 0.4146(16) 0.6908(5)
H38_7 H 0.9810 0.4964 0.6752
H40_7 H 0.9522 0.4381 0.6985
C36_7 C 0.9196(5) 0.2208(18) 0.6450(5)
H41_7 H 0.9212 0.1187 0.6376
H42_7 H 0.9009 0.2752 0.6194
H43_7 H 0.9069 0.2262 0.6655
O5_4 O 0.9532(2) 0.3176(8) 0.32786(18)
O6_4 O 0.9689(2) 0.1171(8) 0.30034(18)
O7_4 O 0.9388(2) 0.2047(8) 0.1394(2)
O10_7 O 0.8684(3) 0.2704(14) 0.0996(2)
H1_7 H 0.8735 0.2364 0.0799
N1_5 N 0.8306(3) 0.5820(12) 0.2000(3)
H2_5 H 0.8176 0.6218 0.1748
C1_7 C 0.9028(4) 0.2519(13) 0.1356(3)
C2_7 C 0.8973(3) 0.3080(12) 0.1755(3)
C3_7 C 0.9245(3) 0.2479(12) 0.2154(3)
H4_7 H 0.9450 0.1726 0.2182
C4_7 C 0.9202(3) 0.3039(12) 0.2511(3)
C5_7 C 0.8893(3) 0.4128(11) 0.2471(3)
H5_7 H 0.8868 0.4474 0.2716
C6_7 C 0.8612(3) 0.4728(12) 0.2057(3)
C7_7 C 0.8648(3) 0.4122(12) 0.1702(3)
H6_7 H 0.8451 0.4423 0.1425
C8_7 C 0.9496(3) 0.2411(13) 0.2960(3)
C9_5 C 0.8180(3) 0.6375(12) 0.2335(3)
H7_5 H 0.8448 0.6723 0.2581
H8_5 H 0.8051 0.5570 0.2434
C10_5 C 0.7842(3) 0.7632(13) 0.2168(3)
C11_5 C 0.7377(3) 0.7328(13) 0.1951(3)
C12_5 C 0.7080(3) 0.8567(13) 0.1802(3)
C13_9 C 0.7242(3) 1.0001(13) 0.1859(3)
C15_5 C 0.8005(3) 0.9117(13) 0.2210(3)
C16_5 C 0.7206(4) 0.5754(13) 0.1889(3)
H9_5 H 0.7124 0.5451 0.1595
H10_5 H 0.6946 0.5695 0.1948
H11_5 H 0.7438 0.5110 0.2083
C17_5 C 0.6575(3) 0.8250(13) 0.1581(3)
H12_5 H 0.6451 0.8352 0.1787
H13_5 H 0.6526 0.7255 0.1468
H14_5 H 0.6430 0.8941 0.1348
C18_5 C 0.8517(3) 0.9440(14) 0.2409(4)
H15_5 H 0.8680 0.8522 0.2453
H16_5 H 0.8606 0.9937 0.2682
O1_7 O 0.9315(2) 0.0865(8) 0.05094(18)
O2_7 O 0.8691(3) 0.2289(11) 0.0305(2)
O8_7 O 0.9783(2) 0.3780(9) 0.0821(2)
N3_4 N 0.9673(5) 0.5998(15) 0.0474(4)
C26_7 C 0.8988(4) 0.1557(13) 0.0233(3)
C29_7 C 0.9943(4) 0.4832(14) 0.0692(4)
C31_4 C 0.9846(5) 0.7196(17) 0.0314(5)
H30_4 H 0.9697 0.7207 0.0003
H31_4 H 0.9794 0.8121 0.0424
C32_4 C 0.9219(5) 0.5812(18) 0.0439(5)
H32_4 H 0.9104 0.6758 0.0474
H33_4 H 0.9027 0.5411 0.0160
H34_4 H 0.9226 0.5144 0.0661
C30_8 C 0.9569(4) 0.5000(16) 0.4244(5)
H26_7 H 0.9390 0.4209 0.4063
H27_7 H 0.9559 0.4960 0.4520
H28_4 H 0.9452 0.5938 0.4108
H29_4 H 0.9835 0.7062 0.4593
C34_6 C 0.9630(4) 0.2860(16) 0.8269(5)
H35_6 H 0.9451 0.2705 0.8425
H36_6 H 0.9479 0.2441 0.7984
H37_6 H 0.9673 0.3906 0.8247
H39_6 H 0.9966 0.3964 0.7834
C30_9 C 0.9569(4) 0.5000(16) 0.9244(5)
H26_8 H 0.9390 0.5791 0.9063
H27_8 H 0.9559 0.5040 0.9520
H28_5 H 0.9452 0.4062 0.9108
H29_5 H 0.9835 0.2938 0.9593
O11_4 O 0.9702(2) 0.9014(8) 0.93161(19)
O12_4 O 0.9295(2) 0.9710(8) 0.86556(18)
O13_4 O 0.9532(2) 0.6824(8) 0.82786(18)
O14_4 O 0.9689(2) 0.8829(8) 0.80034(18)
Sm1_4 Sm 0.996192(16) 0.85755(6) 0.618967(14)
O1_8 O 0.9315(2) 0.9135(8) 0.55094(18)
O2_8 O 0.8691(3) 0.7711(11) 0.5305(2)
O8_8 O 0.9783(2) 0.6220(9) 0.5821(2)
N1_6 N 0.6694(3) 0.0820(12) 0.3000(3)
H2_6 H 0.6824 0.1218 0.3252
N2_7 N 0.8167(3) 0.6599(11) 0.3753(2)
H3_7 H 0.8001 0.6140 0.3851
N3_5 N 0.9673(5) 0.4002(15) 0.5474(4)
C9_6 C 0.6820(3) 0.1375(12) 0.2665(3)
H7_6 H 0.6552 0.1723 0.2419
H8_6 H 0.6949 0.0570 0.2566
C10_6 C 0.7158(3) 0.2632(13) 0.2832(3)
C11_6 C 0.7623(3) 0.2328(13) 0.3049(3)
C12_6 C 0.7920(3) 0.3567(13) 0.3198(3)
C13_10 C 0.7758(3) 0.5001(13) 0.3141(3)
C14_7 C 0.7295(3) 0.5297(13) 0.2948(3)
C15_6 C 0.6995(3) 0.4117(13) 0.2790(3)
C16_6 C 0.7794(4) 0.0754(13) 0.3111(3)
H9_6 H 0.7876 0.0451 0.3405
H10_6 H 0.8054 0.0695 0.3052
H11_6 H 0.7562 0.0110 0.2917
C17_6 C 0.8425(3) 0.3250(13) 0.3419(3)
H12_6 H 0.8549 0.3352 0.3213
H13_6 H 0.8474 0.2255 0.3532
H14_6 H 0.8570 0.3941 0.3652
C18_6 C 0.6483(3) 0.4440(14) 0.2591(4)
H15_6 H 0.6320 0.3522 0.2547
H16_6 H 0.6394 0.4937 0.2318
H17_7 H 0.6417 0.5063 0.2784
C19_7 C 0.8089(3) 0.6305(12) 0.3315(3)
H18_7 H 0.8372 0.6059 0.3303
H19_7 H 0.7964 0.7179 0.3137
C20_7 C 0.8486(3) 0.7554(12) 0.4028(3)
C21_7 C 0.8564(3) 0.7601(12) 0.4462(3)
H20_7 H 0.8383 0.7046 0.4555
C22_7 C 0.8912(3) 0.8473(12) 0.4759(3)
C23_7 C 0.9179(3) 0.9356(12) 0.4629(3)
H21_7 H 0.9407 0.9947 0.4827
C24_7 C 0.9094(3) 0.9326(12) 0.4195(3)
C25_7 C 0.8752(3) 0.8461(12) 0.3899(3)
H22_7 H 0.8698 0.8481 0.3609
C26_8 C 0.8988(4) 0.8443(13) 0.5233(3)
C28_7 C 0.7113(4) 0.6860(12) 0.2909(4)
H23_7 H 0.7355 0.7524 0.3076
H24_7 H 0.6887 0.6889 0.3017
H25_7 H 0.6982 0.7158 0.2611
C29_8 C 0.9943(4) 0.5168(14) 0.5692(4)
C31_5 C 0.9846(5) 0.2804(17) 0.5314(5)
H30_5 H 0.9697 0.2793 0.5003
H31_5 H 0.9794 0.1879 0.5424
C32_5 C 0.9219(5) 0.4188(18) 0.5439(5)
H32_5 H 0.9104 0.3242 0.5474
H33_5 H 0.9027 0.4589 0.5160
H34_5 H 0.9226 0.4856 0.5661
O15_4 O 0.9388(2) 0.7953(8) 0.6394(2)
C27_8 C 0.9368(3) 0.9700(12) 0.9040(3)
C34_7 C 0.9630(4) 0.7140(16) 0.3269(5)
H35_7 H 0.9451 0.7295 0.3425
H36_7 H 0.9479 0.7559 0.2984
H37_7 H 0.9673 0.6094 0.3247
H39_7 H 0.9966 0.6036 0.2834
O10_8 O 0.8684(3) 0.7296(14) 0.5996(2)
H1_8 H 0.8735 0.7636 0.5799
N1_7 N 0.8306(3) 0.4180(12) 0.7000(3)
H2_7 H 0.8176 0.3782 0.6748
N3_6 N 0.5327(5) 0.0998(15) 0.4526(4)
C1_8 C 0.9028(4) 0.7481(13) 0.6356(3)
C2_8 C 0.8973(3) 0.6920(12) 0.6755(3)
C3_8 C 0.9245(3) 0.7521(12) 0.7154(3)
H4_8 H 0.9450 0.8274 0.7182
C4_8 C 0.9202(3) 0.6961(12) 0.7511(3)
C5_8 C 0.8893(3) 0.5872(11) 0.7471(3)
H5_8 H 0.8868 0.5526 0.7716
C6_8 C 0.8612(3) 0.5272(12) 0.7057(3)
C7_8 C 0.8648(3) 0.5878(12) 0.6702(3)
H6_8 H 0.8451 0.5577 0.6425
C8_8 C 0.9496(3) 0.7589(13) 0.7960(3)
C9_7 C 0.8180(3) 0.3625(12) 0.7335(3)
H7_7 H 0.8448 0.3277 0.7581
H8_7 H 0.8051 0.4430 0.7434
C10_7 C 0.7842(3) 0.2368(13) 0.7168(3)
C11_7 C 0.7377(3) 0.2672(13) 0.6951(3)
C12_7 C 0.7080(3) 0.1433(13) 0.6802(3)
C13_11 C 0.7242(3) -0.0001(13) 0.6859(3)
C15_7 C 0.8005(3) 0.0883(13) 0.7210(3)
C16_7 C 0.7206(4) 0.4246(13) 0.6889(3)
H9_7 H 0.7124 0.4549 0.6595
H10_7 H 0.6946 0.4305 0.6948
H11_7 H 0.7438 0.4890 0.7083
C17_7 C 0.6575(3) 0.1750(13) 0.6581(3)
H12_7 H 0.6451 0.1648 0.6787
H13_7 H 0.6526 0.2745 0.6468
H14_7 H 0.6430 0.1059 0.6348
C18_7 C 0.8517(3) 0.0560(14) 0.7409(4)
H15_7 H 0.8680 0.1478 0.7453
H16_7 H 0.8606 0.0063 0.7682
C30_10 C 0.4569(4) 0.0000(16) 0.4244(5)
H28_6 H 0.4452 0.0938 0.4108
C31_6 C 0.5154(5) 0.2196(17) 0.4686(5)
H29_6 H 0.4835 0.2062 0.4593
H30_6 H 0.5303 0.2207 0.4997
H31_6 H 0.5206 0.3121 0.4576
C32_6 C 0.5781(5) 0.0812(18) 0.4561(5)
H32_6 H 0.5896 0.1758 0.4526
H33_6 H 0.5973 0.0411 0.4840
H34_6 H 0.5774 0.0144 0.4339
N3_7 N 0.5327(5) 0.9002(15) 0.9526(4)
C30_11 C 0.4569(4) 1.0000(16) 0.9244(5)
H28_7 H 0.4452 0.9062 0.9108
C31_7 C 0.5154(5) 0.7804(17) 0.9686(5)
H29_7 H 0.4835 0.7938 0.9593
H30_7 H 0.5303 0.7793 0.9997
H31_7 H 0.5206 0.6879 0.9576
C32_7 C 0.5781(5) 0.9188(18) 0.9561(5)
H32_7 H 0.5896 0.8242 0.9526
H33_7 H 0.5973 0.9589 0.9840
H34_7 H 0.5774 0.9856 0.9339
C34_8 C 0.0370(4) 0.7140(16) 0.1731(5)
H35_8 H 0.0549 0.7295 0.1575
H36_8 H 0.0521 0.7559 0.2016
H37_8 H 0.0327 0.6094 0.1753
H39_8 H 0.0034 0.6036 0.2166
N1_8 N 0.6694(3) 0.9180(12) 0.8000(3)
H2_8 H 0.6824 0.8782 0.8252
N2_8 N 0.8167(3) 0.3401(11) 0.8753(2)
H3_8 H 0.8001 0.3860 0.8851
C9_8 C 0.6820(3) 0.8625(12) 0.7665(3)
H7_8 H 0.6552 0.8277 0.7419
H8_8 H 0.6949 0.9430 0.7566
C10_8 C 0.7158(3) 0.7368(13) 0.7832(3)
C11_8 C 0.7623(3) 0.7672(13) 0.8049(3)
C12_8 C 0.7920(3) 0.6433(13) 0.8198(3)
C13_12 C 0.7758(3) 0.4999(13) 0.8141(3)
C14_8 C 0.7295(3) 0.4703(13) 0.7948(3)
C15_8 C 0.6995(3) 0.5883(13) 0.7790(3)
C16_8 C 0.7794(4) 0.9246(13) 0.8111(3)
H9_8 H 0.7876 0.9549 0.8405
H10_8 H 0.8054 0.9305 0.8052
H11_8 H 0.7562 0.9890 0.7917
C17_8 C 0.8425(3) 0.6750(13) 0.8419(3)
H12_8 H 0.8549 0.6648 0.8213
H13_8 H 0.8474 0.7745 0.8532
H14_8 H 0.8570 0.6059 0.8652
C18_8 C 0.6483(3) 0.5560(14) 0.7591(4)
H15_8 H 0.6320 0.6478 0.7547
H16_8 H 0.6394 0.5063 0.7318
H17_8 H 0.6417 0.4937 0.7784
C19_8 C 0.8089(3) 0.3695(12) 0.8315(3)
H18_8 H 0.8372 0.3941 0.8303
H19_8 H 0.7964 0.2821 0.8137
C20_8 C 0.8486(3) 0.2446(12) 0.9028(3)
C21_8 C 0.8564(3) 0.2399(12) 0.9462(3)
H20_8 H 0.8383 0.2954 0.9555
C22_8 C 0.8912(3) 0.1527(12) 0.9759(3)
C23_8 C 0.9179(3) 0.0644(12) 0.9629(3)
H21_8 H 0.9407 0.0053 0.9827
C24_8 C 0.9094(3) 0.0674(12) 0.9195(3)
C25_8 C 0.8752(3) 0.1539(12) 0.8899(3)
H22_8 H 0.8698 0.1519 0.8609
C28_8 C 0.7113(4) 0.3140(12) 0.7909(4)
H23_8 H 0.7355 0.2476 0.8076
H24_8 H 0.6887 0.3111 0.8017
H25_8 H 0.6982 0.2842 0.7611
O9_8 O 0.9784(2) 0.8996(8) 0.1262(2)
N4_8 N 0.9648(5) 0.7153(15) 0.1641(4)
C33_8 C 0.9917(5) 0.7883(13) 0.1492(4)
C35_8 C 0.9763(5) 0.5854(16) 0.1908(5)
H38_8 H 0.9810 0.5036 0.1752
H40_8 H 0.9522 0.5619 0.1985
C36_8 C 0.9196(5) 0.7792(18) 0.1450(5)
H41_8 H 0.9212 0.8813 0.1376
H42_8 H 0.9009 0.7248 0.1194
H43_8 H 0.9069 0.7738 0.1655
N3_8 N 0.4673(5) 0.0998(15) 0.0474(4)
C30_12 C 0.5431(4) 0.0000(16) 0.0756(5)
H28_8 H 0.5548 0.0938 0.0892
C31_8 C 0.4846(5) 0.2196(17) 0.0314(5)
H29_8 H 0.5165 0.2062 0.0407
H30_8 H 0.4697 0.2207 0.0003
H31_8 H 0.4794 0.3121 0.0424
C32_8 C 0.4219(5) 0.0812(18) 0.0439(5)
H32_8 H 0.4104 0.1758 0.0474
H33_8 H 0.4027 0.0411 0.0160
H34_8 H 0.4226 0.0144 0.0661
loop_
_geom_bond_atom_site_label_1
_geom_bond_atom_site_label_2
_geom_bond_site_symmetry_1
_geom_bond_site_symmetry_2
O3 C27 1_555 1_555
O4 C27 1_555 1_555
H35 C34 1_555 1_555
H36 C34 1_555 1_555
H37 C34 1_555 1_555
O5 C8 1_555 1_555
O6 C8 1_555 1_555
O7 C1 1_555 1_555
O10 H1 1_555 1_555
N1 H2 1_555 1_555
C1 O10 1_555 1_555
C2 C1 1_555 1_555
C3 C2 1_555 1_555
H4 C3 1_555 1_555
C4 C3 1_555 1_555
C5 C4 1_555 1_555
H5 C5 1_555 1_555
C6 N1 1_555 1_555
C7 C2 1_555 1_555
H6 C7 1_555 1_555
C8 C4 1_555 1_555
C9 N1 1_555 1_555
H7 C9 1_555 1_555
H8 C9 1_555 1_555
C10 C9 1_555 1_555
C11 C10 1_555 1_555
C12 C11 1_555 1_555
C13 C12 1_555 1_555
C15 C10 1_555 1_555
C16 C11 1_555 1_555
H9 C16 1_555 1_555
H10 C16 1_555 1_555
H11 C16 1_555 1_555
C17 C12 1_555 1_555
H12 C17 1_555 1_555
H13 C17 1_555 1_555
H14 C17 1_555 1_555
C18 C15 1_555 1_555
H15 C18 1_555 1_555
H16 C18 1_555 1_555
H28 C30 1_555 1_555
C31 N3 1_555 1_555
H29 C31 1_555 1_555
H30 C31 1_555 1_555
H31 C31 1_555 1_555
C32 N3 1_555 1_555
H32 C32 1_555 1_555
H33 C32 1_555 1_555
H34 C32 1_555 1_555
Sm2 O7 1_555 1_555
C5 C6 1_555 1_555
C6 C7 1_555 1_555
H26 C30_2 1_555 1_555
H27 C30_2 1_555 1_555
H28_2 C30_2 1_555 1_555
Sm2 O1 1_555 1_555
O1 C26 1_555 1_555
O2 C26 1_555 1_555
O8 Sm2 1_555 1_555
N1_2 H2_2 1_555 1_555
N2 H3 1_555 1_555
N3_2 C29 1_555 1_555
C9_2 N1_2 1_555 1_555
H7_2 C9_2 1_555 1_555
H8_2 C9_2 1_555 1_555
C10_2 C9_2 1_555 1_555
C11_2 C10_2 1_555 1_555
C12_2 C11_2 1_555 1_555
C13_2 C12_2 1_555 1_555
C14 C13_2 1_555 1_555
C15_2 C10_2 1_555 1_555
C16_2 C11_2 1_555 1_555
H9_2 C16_2 1_555 1_555
H10_2 C16_2 1_555 1_555
H11_2 C16_2 1_555 1_555
C17_2 C12_2 1_555 1_555
H12_2 C17_2 1_555 1_555
H13_2 C17_2 1_555 1_555
H14_2 C17_2 1_555 1_555
C18_2 C15_2 1_555 1_555
H15_2 C18_2 1_555 1_555
H16_2 C18_2 1_555 1_555
H17 C18_2 1_555 1_555
C19 N2 1_555 1_555
H18 C19 1_555 1_555
H19 C19 1_555 1_555
C20 N2 1_555 1_555
C21 C20 1_555 1_555
H20 C21 1_555 1_555
C22 C21 1_555 1_555
C23 C22 1_555 1_555
H21 C23 1_555 1_555
C24 C23 1_555 1_555
C25 C20 1_555 1_555
H22 C25 1_555 1_555
C26 C22 1_555 1_555
C28 C14 1_555 1_555
H23 C28 1_555 1_555
H24 C28 1_555 1_555
H25 C28 1_555 1_555
C29 O8 1_555 1_555
C31_2 N3_2 1_555 1_555
H30_2 C31_2 1_555 1_555
H31_2 C31_2 1_555 1_555
C32_2 N3_2 1_555 1_555
H32_2 C32_2 1_555 1_555
H33_2 C32_2 1_555 1_555
H34_2 C32_2 1_555 1_555
C13_2 C19 1_555 1_555
C14 C15_2 1_555 1_555
C24 C25 1_555 1_555
N4 C33 1_555 1_555
C33 O9 1_555 1_555
C35 N4 1_555 1_555
H38 C35 1_555 1_555
H40 C35 1_555 1_555
C36 N4 1_555 1_555
H41 C36 1_555 1_555
H42 C36 1_555 1_555
H43 C36 1_555 1_555
N1_3 H2_3 1_555 1_555
N2_2 H3_2 1_555 1_555
C9_3 N1_3 1_555 1_555
H7_3 C9_3 1_555 1_555
H8_3 C9_3 1_555 1_555
C10_3 C9_3 1_555 1_555
C11_3 C10_3 1_555 1_555
C12_3 C11_3 1_555 1_555
C13_3 C12_3 1_555 1_555
C14_2 C13_3 1_555 1_555
C15_3 C10_3 1_555 1_555
C16_3 C11_3 1_555 1_555
H9_3 C16_3 1_555 1_555
H10_3 C16_3 1_555 1_555
H11_3 C16_3 1_555 1_555
C17_3 C12_3 1_555 1_555
H12_3 C17_3 1_555 1_555
H13_3 C17_3 1_555 1_555
H14_3 C17_3 1_555 1_555
C18_3 C15_3 1_555 1_555
H15_3 C18_3 1_555 1_555
H16_3 C18_3 1_555 1_555
H17_2 C18_3 1_555 1_555
C19_2 N2_2 1_555 1_555
H18_2 C19_2 1_555 1_555
H19_2 C19_2 1_555 1_555
C20_2 N2_2 1_555 1_555
C21_2 C20_2 1_555 1_555
H20_2 C21_2 1_555 1_555
C22_2 C21_2 1_555 1_555
C23_2 C22_2 1_555 1_555
H21_2 C23_2 1_555 1_555
C24_2 C23_2 1_555 1_555
C25_2 C20_2 1_555 1_555
H22_2 C25_2 1_555 1_555
C28_2 C14_2 1_555 1_555
H23_2 C28_2 1_555 1_555
H24_2 C28_2 1_555 1_555
H25_2 C28_2 1_555 1_555
C13_3 C19_2 1_555 1_555
C14_2 C15_3 1_555 1_555
C24_2 C25_2 1_555 1_555
Sm1 O1_2 1_555 1_555
O1_2 C26_2 1_555 1_555
O2_2 C26_2 1_555 1_555
O8_2 Sm1 1_555 1_555
N3_3 C29_2 1_555 1_555
C29_2 O8_2 1_555 1_555
C31_3 N3_3 1_555 1_555
H30_3 C31_3 1_555 1_555
H31_3 C31_3 1_555 1_555
C32_3 N3_3 1_555 1_555
H32_3 C32_3 1_555 1_555
H33_3 C32_3 1_555 1_555
H34_3 C32_3 1_555 1_555
O15 Sm1 1_555 1_555
H26_2 C30_3 1_555 1_555
H27_2 C30_3 1_555 1_555
H28_3 C30_3 1_555 1_555
O11 C27_2 1_555 1_555
O12 C27_2 1_555 1_555
N4_2 C33_2 1_555 1_555
C33_2 O9_2 1_555 1_555
C35_2 N4_2 1_555 1_555
H38_2 C35_2 1_555 1_555
H40_2 C35_2 1_555 1_555
C36_2 N4_2 1_555 1_555
H41_2 C36_2 1_555 1_555
H42_2 C36_2 1_555 1_555
H43_2 C36_2 1_555 1_555
O13 C8_2 1_555 1_555
O14 C8_2 1_555 1_555
O15 C1_2 1_555 1_555
O10_2 H1_2 1_555 1_555
N1_4 H2_4 1_555 1_555
C1_2 O10_2 1_555 1_555
C2_2 C1_2 1_555 1_555
C3_2 C2_2 1_555 1_555
H4_2 C3_2 1_555 1_555
C4_2 C3_2 1_555 1_555
C5_2 C4_2 1_555 1_555
H5_2 C5_2 1_555 1_555
C6_2 N1_4 1_555 1_555
C7_2 C2_2 1_555 1_555
H6_2 C7_2 1_555 1_555
C8_2 C4_2 1_555 1_555
C9_4 N1_4 1_555 1_555
H7_4 C9_4 1_555 1_555
H8_4 C9_4 1_555 1_555
C10_4 C9_4 1_555 1_555
C11_4 C10_4 1_555 1_555
C12_4 C11_4 1_555 1_555
C13_4 C12_4 1_555 1_555
C15_4 C10_4 1_555 1_555
C16_4 C11_4 1_555 1_555
H9_4 C16_4 1_555 1_555
H10_4 C16_4 1_555 1_555
H11_4 C16_4 1_555 1_555
C17_4 C12_4 1_555 1_555
H12_4 C17_4 1_555 1_555
H13_4 C17_4 1_555 1_555
H14_4 C17_4 1_555 1_555
C18_4 C15_4 1_555 1_555
H15_4 C18_4 1_555 1_555
H16_4 C18_4 1_555 1_555
C5_2 C6_2 1_555 1_555
C6_2 C7_2 1_555 1_555
O5_2 C8_3 1_555 1_555
O6_2 C8_3 1_555 1_555
O7_2 C1_3 1_555 1_555
O10_3 H1_3 1_555 1_555
C1_3 O10_3 1_555 1_555
C2_3 C1_3 1_555 1_555
C3_3 C2_3 1_555 1_555
H4_3 C3_3 1_555 1_555
C4_3 C3_3 1_555 1_555
C5_3 C4_3 1_555 1_555
H5_3 C5_3 1_555 1_555
C7_3 C2_3 1_555 1_555
H6_3 C7_3 1_555 1_555
C8_3 C4_3 1_555 1_555
Sm3 O7_2 1_555 1_555
Sm4 O5_2 1_555 1_555
O6_2 Sm4 1_555 1_555
C5_3 C6_3 1_555 1_555
C6_3 C7_3 1_555 1_555
O5_3 C8_4 1_555 1_555
O6_3 C8_4 1_555 1_555
O7_3 C1_4 1_555 1_555
O10_4 H1_4 1_555 1_555
C1_4 O10_4 1_555 1_555
C2_4 C1_4 1_555 1_555
C3_4 C2_4 1_555 1_555
H4_4 C3_4 1_555 1_555
C4_4 C3_4 1_555 1_555
C5_4 C4_4 1_555 1_555
H5_4 C5_4 1_555 1_555
C7_4 C2_4 1_555 1_555
H6_4 C7_4 1_555 1_555
C8_4 C4_4 1_555 1_555
Sm4 O7_3 1_555 1_555
Sm3 O5_3 1_555 1_555
O6_3 Sm3 1_555 1_555
C5_4 C6_4 1_555 1_555
C6_4 C7_4 1_555 1_555
O3_2 C27_3 1_555 1_555
O4_2 C27_3 1_555 1_555
N2_3 H3_3 1_555 1_555
C14_3 C13_5 1_555 1_555
C19_3 N2_3 1_555 1_555
H18_3 C19_3 1_555 1_555
H19_3 C19_3 1_555 1_555
C20_3 N2_3 1_555 1_555
C21_3 C20_3 1_555 1_555
H20_3 C21_3 1_555 1_555
C22_3 C21_3 1_555 1_555
C23_3 C22_3 1_555 1_555
H21_3 C23_3 1_555 1_555
C24_3 C23_3 1_555 1_555
C25_3 C20_3 1_555 1_555
H22_3 C25_3 1_555 1_555
C27_3 C24_3 1_555 1_555
C28_3 C14_3 1_555 1_555
H23_3 C28_3 1_555 1_555
H24_3 C28_3 1_555 1_555
H25_3 C28_3 1_555 1_555
Sm3 O3_2 1_555 1_555
O4_2 Sm3 1_555 1_555
C13_5 C19_3 1_555 1_555
C24_3 C25_3 1_555 1_555
Sm1_2 O1_3 1_555 1_555
O1_3 C26_3 1_555 1_555
O2_3 C26_3 1_555 1_555
O8_3 Sm1_2 1_555 1_555
O9_3 Sm1_2 1_555 1_555
N4_3 C33_3 1_555 1_555
C29_3 O8_3 1_555 1_555
C30_4 C29_3 1_555 1_555
H26_3 C30_4 1_555 1_555
H27_3 C30_4 1_555 1_555
C33_3 O9_3 1_555 1_555
C34_2 C33_3 1_555 1_555
H35_2 C34_2 1_555 1_555
H36_2 C34_2 1_555 1_555
H37_2 C34_2 1_555 1_555
C35_3 N4_3 1_555 1_555
H38_3 C35_3 1_555 1_555
H39_2 C35_3 1_555 1_555
H40_3 C35_3 1_555 1_555
C36_3 N4_3 1_555 1_555
H41_3 C36_3 1_555 1_555
H42_3 C36_3 1_555 1_555
H43_3 C36_3 1_555 1_555
O11_2 Sm1_2 1_555 1_555
O12_2 Sm1_2 1_555 1_555
O13_2 Sm1_2 1_555 1_555
O14_2 Sm1_2 1_555 1_555
O15_2 Sm1_2 1_555 1_555
Sm1_3 O1_4 1_555 1_555
O1_4 C26_4 1_555 1_555
O2_4 C26_4 1_555 1_555
O3_3 C27_4 1_555 1_555
O4_3 C27_4 1_555 1_555
O8_4 Sm1_3 1_555 1_555
O9_4 Sm1_3 1_555 1_555
N2_4 H3_4 1_555 1_555
N4_4 C33_4 1_555 1_555
C14_4 C13_6 1_555 1_555
C19_4 N2_4 1_555 1_555
H18_4 C19_4 1_555 1_555
H19_4 C19_4 1_555 1_555
C20_4 N2_4 1_555 1_555
C21_4 C20_4 1_555 1_555
H20_4 C21_4 1_555 1_555
C22_4 C21_4 1_555 1_555
C23_4 C22_4 1_555 1_555
H21_4 C23_4 1_555 1_555
C24_4 C23_4 1_555 1_555
C25_4 C20_4 1_555 1_555
H22_4 C25_4 1_555 1_555
C26_4 C22_4 1_555 1_555
C27_4 C24_4 1_555 1_555
C28_4 C14_4 1_555 1_555
H23_4 C28_4 1_555 1_555
H24_4 C28_4 1_555 1_555
H25_4 C28_4 1_555 1_555
C29_4 O8_4 1_555 1_555
C30_5 C29_4 1_555 1_555
H26_4 C30_5 1_555 1_555
H27_4 C30_5 1_555 1_555
C33_4 O9_4 1_555 1_555
C34_3 C33_4 1_555 1_555
H35_3 C34_3 1_555 1_555
H36_3 C34_3 1_555 1_555
H37_3 C34_3 1_555 1_555
C35_4 N4_4 1_555 1_555
H38_4 C35_4 1_555 1_555
H39_3 C35_4 1_555 1_555
H40_4 C35_4 1_555 1_555
C36_4 N4_4 1_555 1_555
H41_4 C36_4 1_555 1_555
H42_4 C36_4 1_555 1_555
H43_4 C36_4 1_555 1_555
Sm4 O3_3 1_555 1_555
O11_3 Sm1_3 1_555 1_555
O12_3 Sm1_3 1_555 1_555
O13_3 Sm1_3 1_555 1_555
O14_3 Sm1_3 1_555 1_555
O15_3 Sm1_3 1_555 1_555
O4_3 Sm4 1_555 1_555
C13_6 C19_4 1_555 1_555
C24_4 C25_4 1_555 1_555
O13_3 C8_5 1_555 1_555
O14_3 C8_5 1_555 1_555
O15_2 C1_5 1_555 1_555
O10_5 H1_5 1_555 1_555
C1_5 O10_5 1_555 1_555
C2_5 C1_5 1_555 1_555
C3_5 C2_5 1_555 1_555
H4_5 C3_5 1_555 1_555
C4_5 C3_5 1_555 1_555
C5_5 C4_5 1_555 1_555
H5_5 C5_5 1_555 1_555
C7_5 C2_5 1_555 1_555
H6_5 C7_5 1_555 1_555
C8_5 C4_5 1_555 1_555
C5_5 C6_5 1_555 1_555
C6_5 C7_5 1_555 1_555
O13_2 C8_6 1_555 1_555
O14_2 C8_6 1_555 1_555
O15_3 C1_6 1_555 1_555
O10_6 H1_6 1_555 1_555
C1_6 O10_6 1_555 1_555
C2_6 C1_6 1_555 1_555
C3_6 C2_6 1_555 1_555
H4_6 C3_6 1_555 1_555
C4_6 C3_6 1_555 1_555
C5_6 C4_6 1_555 1_555
H5_6 C5_6 1_555 1_555
C7_6 C2_6 1_555 1_555
H6_6 C7_6 1_555 1_555
C8_6 C4_6 1_555 1_555
C5_6 C6_6 1_555 1_555
C6_6 C7_6 1_555 1_555
Sm3 O1_5 1_555 1_555
O1_5 C26_5 1_555 1_555
O2_5 C26_5 1_555 1_555
O8_5 Sm3 1_555 1_555
O9_5 Sm3 1_555 1_555
N4_5 C33_5 1_555 1_555
C29_5 O8_5 1_555 1_555
C30_6 C29_5 1_555 1_555
H26_5 C30_6 1_555 1_555
H27_5 C30_6 1_555 1_555
C33_5 O9_5 1_555 1_555
C34_4 C33_5 1_555 1_555
H35_4 C34_4 1_555 1_555
H36_4 C34_4 1_555 1_555
H37_4 C34_4 1_555 1_555
C35_5 N4_5 1_555 1_555
H38_5 C35_5 1_555 1_555
H39_4 C35_5 1_555 1_555
H40_5 C35_5 1_555 1_555
C36_5 N4_5 1_555 1_555
H41_5 C36_5 1_555 1_555
H42_5 C36_5 1_555 1_555
H43_5 C36_5 1_555 1_555
O11_2 C27_5 1_555 1_555
O12_2 C27_5 1_555 1_555
N2_5 H3_5 1_555 1_555
C14_5 C13_7 1_555 1_555
C19_5 N2_5 1_555 1_555
H18_5 C19_5 1_555 1_555
H19_5 C19_5 1_555 1_555
C20_5 N2_5 1_555 1_555
C21_5 C20_5 1_555 1_555
H20_5 C21_5 1_555 1_555
C22_5 C21_5 1_555 1_555
C23_5 C22_5 1_555 1_555
H21_5 C23_5 1_555 1_555
C24_5 C23_5 1_555 1_555
C25_5 C20_5 1_555 1_555
H22_5 C25_5 1_555 1_555
C27_5 C24_5 1_555 1_555
C28_5 C14_5 1_555 1_555
H23_5 C28_5 1_555 1_555
H24_5 C28_5 1_555 1_555
H25_5 C28_5 1_555 1_555
C13_7 C19_5 1_555 1_555
C24_5 C25_5 1_555 1_555
Sm4 O1_6 1_555 1_555
O1_6 C26_6 1_555 1_555
O2_6 C26_6 1_555 1_555
O11_3 C27_6 1_555 1_555
O12_3 C27_6 1_555 1_555
O8_6 Sm4 1_555 1_555
O9_6 Sm4 1_555 1_555
N2_6 H3_6 1_555 1_555
N4_6 C33_6 1_555 1_555
C14_6 C13_8 1_555 1_555
C19_6 N2_6 1_555 1_555
H18_6 C19_6 1_555 1_555
H19_6 C19_6 1_555 1_555
C20_6 N2_6 1_555 1_555
C21_6 C20_6 1_555 1_555
H20_6 C21_6 1_555 1_555
C22_6 C21_6 1_555 1_555
C23_6 C22_6 1_555 1_555
H21_6 C23_6 1_555 1_555
C24_6 C23_6 1_555 1_555
C25_6 C20_6 1_555 1_555
H22_6 C25_6 1_555 1_555
C26_6 C22_6 1_555 1_555
C27_6 C24_6 1_555 1_555
C28_6 C14_6 1_555 1_555
H23_6 C28_6 1_555 1_555
H24_6 C28_6 1_555 1_555
H25_6 C28_6 1_555 1_555
C29_6 O8_6 1_555 1_555
C30_7 C29_6 1_555 1_555
H26_6 C30_7 1_555 1_555
H27_6 C30_7 1_555 1_555
C33_6 O9_6 1_555 1_555
C34_5 C33_6 1_555 1_555
H35_5 C34_5 1_555 1_555
H36_5 C34_5 1_555 1_555
H37_5 C34_5 1_555 1_555
C35_6 N4_6 1_555 1_555
H38_6 C35_6 1_555 1_555
H39_5 C35_6 1_555 1_555
H40_6 C35_6 1_555 1_555
C36_6 N4_6 1_555 1_555
H41_6 C36_6 1_555 1_555
H42_6 C36_6 1_555 1_555
H43_6 C36_6 1_555 1_555
C13_8 C19_6 1_555 1_555
C24_6 C25_6 1_555 1_555
O3_4 C27_7 1_555 1_555
O4_4 C27_7 1_555 1_555
N4_7 C33_7 1_555 1_555
C33_7 O9_7 1_555 1_555
C35_7 N4_7 1_555 1_555
H38_7 C35_7 1_555 1_555
H40_7 C35_7 1_555 1_555
C36_7 N4_7 1_555 1_555
H41_7 C36_7 1_555 1_555
H42_7 C36_7 1_555 1_555
H43_7 C36_7 1_555 1_555
O5_4 C8_7 1_555 1_555
O6_4 C8_7 1_555 1_555
O7_4 C1_7 1_555 1_555
O10_7 H1_7 1_555 1_555
N1_5 H2_5 1_555 1_555
C1_7 O10_7 1_555 1_555
C2_7 C1_7 1_555 1_555
C3_7 C2_7 1_555 1_555
H4_7 C3_7 1_555 1_555
C4_7 C3_7 1_555 1_555
C5_7 C4_7 1_555 1_555
H5_7 C5_7 1_555 1_555
C6_7 N1_5 1_555 1_555
C7_7 C2_7 1_555 1_555
H6_7 C7_7 1_555 1_555
C8_7 C4_7 1_555 1_555
C9_5 N1_5 1_555 1_555
H7_5 C9_5 1_555 1_555
H8_5 C9_5 1_555 1_555
C10_5 C9_5 1_555 1_555
C11_5 C10_5 1_555 1_555
C12_5 C11_5 1_555 1_555
C13_9 C12_5 1_555 1_555
C15_5 C10_5 1_555 1_555
C16_5 C11_5 1_555 1_555
H9_5 C16_5 1_555 1_555
H10_5 C16_5 1_555 1_555
H11_5 C16_5 1_555 1_555
C17_5 C12_5 1_555 1_555
H12_5 C17_5 1_555 1_555
H13_5 C17_5 1_555 1_555
H14_5 C17_5 1_555 1_555
C18_5 C15_5 1_555 1_555
H15_5 C18_5 1_555 1_555
H16_5 C18_5 1_555 1_555
Sm2_2 O7_4 1_555 1_555
C5_7 C6_7 1_555 1_555
C6_7 C7_7 1_555 1_555
Sm2_2 O1_7 1_555 1_555
O1_7 C26_7 1_555 1_555
O2_7 C26_7 1_555 1_555
O8_7 Sm2_2 1_555 1_555
N3_4 C29_7 1_555 1_555
C29_7 O8_7 1_555 1_555
C31_4 N3_4 1_555 1_555
H30_4 C31_4 1_555 1_555
H31_4 C31_4 1_555 1_555
C32_4 N3_4 1_555 1_555
H32_4 C32_4 1_555 1_555
H33_4 C32_4 1_555 1_555
H34_4 C32_4 1_555 1_555
H26_7 C30_8 1_555 1_555
H27_7 C30_8 1_555 1_555
H28_4 C30_8 1_555 1_555
H35_6 C34_6 1_555 1_555
H36_6 C34_6 1_555 1_555
H37_6 C34_6 1_555 1_555
H26_8 C30_9 1_555 1_555
H27_8 C30_9 1_555 1_555
H28_5 C30_9 1_555 1_555
Sm1_4 O1_8 1_555 1_555
O1_8 C26_8 1_555 1_555
O2_8 C26_8 1_555 1_555
O8_8 Sm1_4 1_555 1_555
N1_6 H2_6 1_555 1_555
N2_7 H3_7 1_555 1_555
N3_5 C29_8 1_555 1_555
C9_6 N1_6 1_555 1_555
H7_6 C9_6 1_555 1_555
H8_6 C9_6 1_555 1_555
C10_6 C9_6 1_555 1_555
C11_6 C10_6 1_555 1_555
C12_6 C11_6 1_555 1_555
C13_10 C12_6 1_555 1_555
C14_7 C13_10 1_555 1_555
C15_6 C10_6 1_555 1_555
C16_6 C11_6 1_555 1_555
H9_6 C16_6 1_555 1_555
H10_6 C16_6 1_555 1_555
H11_6 C16_6 1_555 1_555
C17_6 C12_6 1_555 1_555
H12_6 C17_6 1_555 1_555
H13_6 C17_6 1_555 1_555
H14_6 C17_6 1_555 1_555
C18_6 C15_6 1_555 1_555
H15_6 C18_6 1_555 1_555
H16_6 C18_6 1_555 1_555
H17_7 C18_6 1_555 1_555
C19_7 N2_7 1_555 1_555
H18_7 C19_7 1_555 1_555
H19_7 C19_7 1_555 1_555
C20_7 N2_7 1_555 1_555
C21_7 C20_7 1_555 1_555
H20_7 C21_7 1_555 1_555
C22_7 C21_7 1_555 1_555
C23_7 C22_7 1_555 1_555
H21_7 C23_7 1_555 1_555
C24_7 C23_7 1_555 1_555
C25_7 C20_7 1_555 1_555
H22_7 C25_7 1_555 1_555
C26_8 C22_7 1_555 1_555
C28_7 C14_7 1_555 1_555
H23_7 C28_7 1_555 1_555
H24_7 C28_7 1_555 1_555
H25_7 C28_7 1_555 1_555
C29_8 O8_8 1_555 1_555
C31_5 N3_5 1_555 1_555
H30_5 C31_5 1_555 1_555
H31_5 C31_5 1_555 1_555
C32_5 N3_5 1_555 1_555
H32_5 C32_5 1_555 1_555
H33_5 C32_5 1_555 1_555
H34_5 C32_5 1_555 1_555
O15_4 Sm1_4 1_555 1_555
C13_10 C19_7 1_555 1_555
C14_7 C15_6 1_555 1_555
C24_7 C25_7 1_555 1_555
O11_4 C27_8 1_555 1_555
O12_4 C27_8 1_555 1_555
H35_7 C34_7 1_555 1_555
H36_7 C34_7 1_555 1_555
H37_7 C34_7 1_555 1_555
O13_4 C8_8 1_555 1_555
O14_4 C8_8 1_555 1_555
O15_4 C1_8 1_555 1_555
O10_8 H1_8 1_555 1_555
N1_7 H2_7 1_555 1_555
C1_8 O10_8 1_555 1_555
C2_8 C1_8 1_555 1_555
C3_8 C2_8 1_555 1_555
H4_8 C3_8 1_555 1_555
C4_8 C3_8 1_555 1_555
C5_8 C4_8 1_555 1_555
H5_8 C5_8 1_555 1_555
C6_8 N1_7 1_555 1_555
C7_8 C2_8 1_555 1_555
H6_8 C7_8 1_555 1_555
C8_8 C4_8 1_555 1_555
C9_7 N1_7 1_555 1_555
H7_7 C9_7 1_555 1_555
H8_7 C9_7 1_555 1_555
C10_7 C9_7 1_555 1_555
C11_7 C10_7 1_555 1_555
C12_7 C11_7 1_555 1_555
C13_11 C12_7 1_555 1_555
C15_7 C10_7 1_555 1_555
C16_7 C11_7 1_555 1_555
H9_7 C16_7 1_555 1_555
H10_7 C16_7 1_555 1_555
H11_7 C16_7 1_555 1_555
C17_7 C12_7 1_555 1_555
H12_7 C17_7 1_555 1_555
H13_7 C17_7 1_555 1_555
H14_7 C17_7 1_555 1_555
C18_7 C15_7 1_555 1_555
H15_7 C18_7 1_555 1_555
H16_7 C18_7 1_555 1_555
H28_6 C30_10 1_555 1_555
C31_6 N3_6 1_555 1_555
H29_6 C31_6 1_555 1_555
H30_6 C31_6 1_555 1_555
H31_6 C31_6 1_555 1_555
C32_6 N3_6 1_555 1_555
H32_6 C32_6 1_555 1_555
H33_6 C32_6 1_555 1_555
H34_6 C32_6 1_555 1_555
C5_8 C6_8 1_555 1_555
C6_8 C7_8 1_555 1_555
H28_7 C30_11 1_555 1_555
C31_7 N3_7 1_555 1_555
H29_7 C31_7 1_555 1_555
H30_7 C31_7 1_555 1_555
H31_7 C31_7 1_555 1_555
C32_7 N3_7 1_555 1_555
H32_7 C32_7 1_555 1_555
H33_7 C32_7 1_555 1_555
H34_7 C32_7 1_555 1_555
H35_8 C34_8 1_555 1_555
H36_8 C34_8 1_555 1_555
H37_8 C34_8 1_555 1_555
N1_8 H2_8 1_555 1_555
N2_8 H3_8 1_555 1_555
C9_8 N1_8 1_555 1_555
H7_8 C9_8 1_555 1_555
H8_8 C9_8 1_555 1_555
C10_8 C9_8 1_555 1_555
C11_8 C10_8 1_555 1_555
C12_8 C11_8 1_555 1_555
C13_12 C12_8 1_555 1_555
C14_8 C13_12 1_555 1_555
C15_8 C10_8 1_555 1_555
C16_8 C11_8 1_555 1_555
H9_8 C16_8 1_555 1_555
H10_8 C16_8 1_555 1_555
H11_8 C16_8 1_555 1_555
C17_8 C12_8 1_555 1_555
H12_8 C17_8 1_555 1_555
H13_8 C17_8 1_555 1_555
H14_8 C17_8 1_555 1_555
C18_8 C15_8 1_555 1_555
H15_8 C18_8 1_555 1_555
H16_8 C18_8 1_555 1_555
H17_8 C18_8 1_555 1_555
C19_8 N2_8 1_555 1_555
H18_8 C19_8 1_555 1_555
H19_8 C19_8 1_555 1_555
C20_8 N2_8 1_555 1_555
C21_8 C20_8 1_555 1_555
H20_8 C21_8 1_555 1_555
C22_8 C21_8 1_555 1_555
C23_8 C22_8 1_555 1_555
H21_8 C23_8 1_555 1_555
C24_8 C23_8 1_555 1_555
C25_8 C20_8 1_555 1_555
H22_8 C25_8 1_555 1_555
C28_8 C14_8 1_555 1_555
H23_8 C28_8 1_555 1_555
H24_8 C28_8 1_555 1_555
H25_8 C28_8 1_555 1_555
C13_12 C19_8 1_555 1_555
C14_8 C15_8 1_555 1_555
C24_8 C25_8 1_555 1_555
N4_8 C33_8 1_555 1_555
C33_8 O9_8 1_555 1_555
C35_8 N4_8 1_555 1_555
H38_8 C35_8 1_555 1_555
H40_8 C35_8 1_555 1_555
C36_8 N4_8 1_555 1_555
H41_8 C36_8 1_555 1_555
H42_8 C36_8 1_555 1_555
H43_8 C36_8 1_555 1_555
H28_8 C30_12 1_555 1_555
C31_8 N3_8 1_555 1_555
H29_8 C31_8 1_555 1_555
H30_8 C31_8 1_555 1_555
H31_8 C31_8 1_555 1_555
C32_8 N3_8 1_555 1_555
H32_8 C32_8 1_555 1_555
H33_8 C32_8 1_555 1_555
H34_8 C32_8 1_555 1_555

#END
