
###############################################################################
#
# This file contains modified crystal structure data generated from the
# MOF subset of the Cambridge Structural Database (CSD) v543 
# hosted by the Cambridge Crystallographic Data Centre (CCDC).
#
# This work is licensed under the Creative Commons
# Attribution-NonCommercial-ShareAlike 4.0 International License.
# To view a copy of this license, visit
# http://creativecommons.org/licenses/by-nc-sa/4.0/
# or send a letter to
# Creative Commons, PO Box 1866, Mountain View, CA 94042, USA.
#
# CIF created using the CSD Python API on 29 September 2022
# The structure has been converted into the P1 space group
# The structure has a 3D framework
# The original CSD entry GUJREK is in the orthorhombic crystal system
# The original CSD entry GUJREK is in a Sohncke space group
# The framework has been calculated to contain at least 10.0% void space
# The void calculation uses a probe of radius 1.32A, grid spacing 0.4
# The framework is charged, counterions have been retained in the structure
# H atom positions have been added when not included in the experimental data
#
###############################################################################

data_GUJREK
_chemical_formula_moiety         '(C192 H144 Cl6 Cu13 N48 O40 S8 1+)n'
_symmetry_cell_setting           triclinic
_symmetry_space_group_name_H-M   'P 1'
_symmetry_Int_Tables_number      1
_space_group_name_Hall           'P 1'
loop_
_symmetry_equiv_pos_site_id
_symmetry_equiv_pos_as_xyz
1 x,y,z
_cell_length_a                   12.3588(10)
_cell_length_b                   15.5011(12)
_cell_length_c                   34.305(3)
_cell_angle_alpha                90
_cell_angle_beta                 90
_cell_angle_gamma                90
_cell_volume                     6571.98
loop_
_atom_site_label
_atom_site_type_symbol
_atom_site_fract_x
_atom_site_fract_y
_atom_site_fract_z
Cu2 Cu -0.0000 0.2500 0.26001(4)
Cu3 Cu 0.00537(13) 0.5000 0.2500
C25 C 0.1846(10) 0.2683(6) 0.3333(4)
H17 H 0.1229 0.3062 0.3281
H18 H 0.2497 0.2921 0.3211
H19 H 0.1959 0.2640 0.3616
C26 C 0.1626(8) 0.1816(5) 0.3172(3)
C27 C 0.1744(7) 0.0428(5) 0.3066(3)
C35 C 0.2977(7) 0.0981(5) 0.3583(3)
C36 C 0.3993(8) 0.1372(6) 0.3563(3)
H25 H 0.4194 0.1710 0.3344
C37 C 0.4704(8) 0.1252(7) 0.3875(3)
H26 H 0.5383 0.1539 0.3876
C38 C 0.4421(8) 0.0710(6) 0.4185(3)
H27 H 0.4927 0.0603 0.4387
C39 C 0.3388(8) 0.0320(5) 0.4198(3)
C40 C 0.2694(7) 0.0465(5) 0.3892(3)
H28 H 0.2000 0.0201 0.3894
N7 N 0.2204(6) 0.1088(4) 0.3270(2)
N8 N 0.0866(6) 0.1618(4) 0.2923(2)
N9 N 0.0919(6) 0.0728(4) 0.2859(2)
Cu8 Cu -0.0000 0.7500 0.23999(4)
N15 N 0.1101(6) 0.3230(4) 0.2282(2)
N16 N 0.1087(6) 0.5872(4) 0.2756(2)
N17 N 0.1087(6) 0.4128(4) 0.2244(2)
Cu4 Cu 0.34991(8) 0.85771(7) 0.51370(3)
S2 S 0.11951(15) 0.87137(14) 0.30933(7)
C28 C 0.2107(7) 0.9536(5) 0.3061(3)
C29 C 0.3119(8) 0.9248(6) 0.2988(3)
H20 H 0.3731 0.9613 0.2958
C30 C 0.3157(8) 0.8334(5) 0.2960(3)
H21 H 0.3804 0.8018 0.2916
C31 C 0.2173(8) 0.7962(5) 0.3004(3)
C32 C 0.1860(7) 0.7057(5) 0.2956(3)
C33 C 0.1825(7) 0.5661(5) 0.3023(3)
C34 C 0.2045(9) 0.4781(5) 0.3164(3)
H22 H 0.1604 0.4369 0.3017
H23 H 0.1864 0.4743 0.3442
H24 H 0.2813 0.4647 0.3127
C41 C 0.3078(8) 0.9722(6) 0.4508(3)
C42 C 0.3025(7) 0.6463(5) 0.3488(2)
C43 C 0.4062(7) 0.6122(6) 0.3468(3)
H29 H 0.4317 0.5856 0.3236
C44 C 0.4711(8) 0.6182(6) 0.3793(3)
H30 H 0.5412 0.5931 0.3788
C45 C 0.4366(8) 0.6599(6) 0.4130(3)
H31 H 0.4833 0.6648 0.4348
C46 C 0.3324(8) 0.6944(5) 0.4141(3)
C47 C 0.2651(8) 0.6877(5) 0.3816(3)
H32 H 0.1942 0.7114 0.3820
C48 C 0.2980(8) 0.7464(7) 0.4483(2)
N10 N 0.2316(5) 0.6384(4) 0.31556(19)
N11 N 0.1101(6) 0.6770(4) 0.2718(2)
O6 O 0.3812(5) 0.9446(4) 0.47413(19)
O7 O 0.2097(5) 0.9470(5) 0.4521(2)
O8 O 0.3667(5) 0.7672(4) 0.47364(18)
O9 O 0.1988(6) 0.7698(4) 0.4490(2)
O10 O 0.5135(5) 0.8590(5) 0.5359(2)
Cu5 Cu 0.15009(8) 0.85771(7) 0.48630(3)
O11 O 0.2903(5) 0.9470(5) 0.5479(2)
O13 O 0.3012(6) 0.7698(4) 0.5510(2)
H33 H 0.531565 0.917853 0.545297
H34 H 0.519736 0.817413 0.557802
C10 C 0.7955(9) 0.0219(5) 0.3164(3)
H6 H 0.8396 0.0631 0.3017
H7 H 0.8136 0.0257 0.3442
H8 H 0.7187 0.0353 0.3127
Cu11 Cu 0.99463(13) 0.0000 0.2500
Cu1 Cu 0.65009(8) 0.64229(7) 0.51370(3)
Cu2_2 Cu 1.0000 0.2500 0.26001(4)
S1 S 0.88049(15) 0.62863(14) 0.30933(7)
C1 C 0.8154(10) 0.2317(6) 0.3333(4)
H1 H 0.8771 0.1938 0.3281
H2 H 0.7503 0.2079 0.3211
H3 H 0.8041 0.2360 0.3616
C2 C 0.8374(8) 0.3184(5) 0.3172(3)
C3 C 0.8256(7) 0.4572(5) 0.3066(3)
C4 C 0.7893(7) 0.5464(5) 0.3061(3)
C5 C 0.6881(8) 0.5752(6) 0.2988(3)
H4 H 0.6269 0.5387 0.2958
C6 C 0.6843(8) 0.6666(5) 0.2960(3)
H5 H 0.6196 0.6982 0.2916
C7 C 0.7827(8) 0.7038(5) 0.3004(3)
C8 C 0.8140(7) 0.7943(5) 0.2956(3)
C9 C 0.8175(7) 0.9339(5) 0.3023(3)
C11 C 0.7023(7) 0.4019(5) 0.3583(3)
C12 C 0.6007(8) 0.3628(6) 0.3563(3)
H9 H 0.5806 0.3290 0.3344
C13 C 0.5296(8) 0.3748(7) 0.3875(3)
H10 H 0.4617 0.3461 0.3876
C14 C 0.5579(8) 0.4290(6) 0.4185(3)
H11 H 0.5073 0.4397 0.4387
C15 C 0.6612(8) 0.4680(5) 0.4198(3)
C16 C 0.7306(7) 0.4535(5) 0.3892(3)
H12 H 0.8000 0.4799 0.3894
C17 C 0.6922(8) 0.5278(6) 0.4508(3)
C18 C 0.6975(7) 0.8537(5) 0.3488(2)
C19 C 0.5938(7) 0.8878(6) 0.3468(3)
H13 H 0.5683 0.9144 0.3236
C20 C 0.5289(8) 0.8818(6) 0.3793(3)
H14 H 0.4588 0.9069 0.3788
C21 C 0.5634(8) 0.8401(6) 0.4130(3)
H15 H 0.5167 0.8352 0.4348
C22 C 0.6676(8) 0.8056(5) 0.4141(3)
C23 C 0.7349(8) 0.8123(5) 0.3816(3)
H16 H 0.8058 0.7886 0.3820
C24 C 0.7020(8) 0.7536(7) 0.4483(2)
N1 N 0.7796(6) 0.3912(4) 0.3270(2)
N2 N 0.9134(6) 0.3382(4) 0.2923(2)
N3 N 0.9081(6) 0.4272(4) 0.2859(2)
N4 N 0.7684(5) 0.8616(4) 0.31556(19)
N5 N 0.8899(6) 0.8230(4) 0.2718(2)
N6 N 0.8913(6) 0.9128(4) 0.2756(2)
O1 O 0.6188(5) 0.5554(4) 0.47413(19)
O2 O 0.7903(5) 0.5530(5) 0.4521(2)
O3 O 0.6333(5) 0.7328(4) 0.47364(18)
O4 O 0.8012(6) 0.7302(4) 0.4490(2)
O5 O 0.4865(5) 0.6410(5) 0.5359(2)
Cu6 Cu 0.84991(8) 0.64229(7) 0.48630(3)
Cu8_2 Cu 1.0000 0.7500 0.23999(4)
Cu11_2 Cu 0.99463(13) 1.0000 0.2500
N13 N 0.9081(6) 0.5728(4) 0.2141(2)
N14 N 0.8899(6) 0.1770(4) 0.2282(2)
O12 O 0.7097(5) 0.5530(5) 0.5479(2)
O14 O 0.6988(6) 0.7302(4) 0.5510(2)
H35 H 0.468435 0.582147 0.545297
H36 H 0.480264 0.682587 0.557802
N13_2 N 0.0919(6) 0.9272(4) 0.2141(2)
N17_2 N 0.8913(6) 0.0872(4) 0.2244(2)
S2_2 S 0.11951(15) 0.12863(14) 0.19067(7)
C28_2 C 0.2107(7) 0.0464(5) 0.1939(3)
C29_2 C 0.3119(8) 0.0752(6) 0.2012(3)
H20_2 H 0.3731 0.0387 0.2042
C30_2 C 0.3157(8) 0.1666(5) 0.2040(3)
H21_2 H 0.3804 0.1982 0.2084
C31_2 C 0.2173(8) 0.2038(5) 0.1996(3)
C32_2 C 0.1860(7) 0.2943(5) 0.2044(3)
C33_2 C 0.1825(7) 0.4339(5) 0.1977(3)
C34_2 C 0.2045(9) 0.5219(5) 0.1836(3)
H22_2 H 0.1604 0.5631 0.1983
H23_2 H 0.1864 0.5257 0.1558
H24_2 H 0.2813 0.5353 0.1873
C41_2 C 0.3078(8) 0.0278(6) 0.0492(3)
C42_2 C 0.3025(7) 0.3537(5) 0.1512(2)
C43_2 C 0.4062(7) 0.3878(6) 0.1532(3)
H29_2 H 0.4317 0.4144 0.1764
C44_2 C 0.4711(8) 0.3818(6) 0.1207(3)
H30_2 H 0.5412 0.4069 0.1212
C45_2 C 0.4366(8) 0.3401(6) 0.0870(3)
H31_2 H 0.4833 0.3352 0.0652
C46_2 C 0.3324(8) 0.3056(5) 0.0859(3)
C47_2 C 0.2651(8) 0.3123(5) 0.1184(3)
H32_2 H 0.1942 0.2886 0.1180
C48_2 C 0.2980(8) 0.2536(7) 0.0517(2)
N10_2 N 0.2316(5) 0.3616(4) 0.18444(19)
O6_2 O 0.3812(5) 0.0554(4) 0.02587(19)
O7_2 O 0.2097(5) 0.0530(5) 0.0479(2)
O8_2 O 0.3667(5) 0.2328(4) 0.02636(18)
O9_2 O 0.1988(6) 0.2302(4) 0.0510(2)
Cu5_2 Cu 0.15009(8) 0.14229(7) 0.01370(3)
Cu4_2 Cu 0.34991(8) 0.14229(7) 0.98630(3)
O10_2 O 0.5135(5) 0.1410(5) 0.9641(2)
O11_2 O 0.2903(5) 0.0530(5) 0.9521(2)
O13_2 O 0.3012(6) 0.2302(4) 0.9490(2)
H33_2 H 0.531565 0.0821466 0.954703
H34_2 H 0.519736 0.182587 0.942198
C25_2 C 0.1846(10) 0.7317(6) 0.1667(4)
H17_2 H 0.1229 0.6938 0.1719
H18_2 H 0.2497 0.7079 0.1789
H19_2 H 0.1959 0.7360 0.1384
C26_2 C 0.1626(8) 0.8184(5) 0.1828(3)
C27_2 C 0.1744(7) 0.9572(5) 0.1934(3)
C35_2 C 0.2977(7) 0.9019(5) 0.1417(3)
C36_2 C 0.3993(8) 0.8628(6) 0.1437(3)
H25_2 H 0.4194 0.8290 0.1656
C37_2 C 0.4704(8) 0.8748(7) 0.1125(3)
H26_2 H 0.5383 0.8461 0.1124
C38_2 C 0.4421(8) 0.9290(6) 0.0815(3)
H27_2 H 0.4927 0.9397 0.0613
C39_2 C 0.3388(8) 0.9680(5) 0.0802(3)
C40_2 C 0.2694(7) 0.9535(5) 0.1108(3)
H28_2 H 0.2000 0.9799 0.1106
N7_2 N 0.2204(6) 0.8912(4) 0.1730(2)
N8_2 N 0.0866(6) 0.8382(4) 0.2077(2)
S1_2 S 0.88049(15) 0.37137(14) 0.19067(7)
C1_2 C 0.8154(10) 0.7683(6) 0.1667(4)
H1_2 H 0.8771 0.8062 0.1719
H2_2 H 0.7503 0.7921 0.1789
H3_2 H 0.8041 0.7640 0.1384
C2_2 C 0.8374(8) 0.6816(5) 0.1828(3)
C3_2 C 0.8256(7) 0.5428(5) 0.1934(3)
C4_2 C 0.7893(7) 0.4536(5) 0.1939(3)
C5_2 C 0.6881(8) 0.4248(6) 0.2012(3)
H4_2 H 0.6269 0.4613 0.2042
C6_2 C 0.6843(8) 0.3334(5) 0.2040(3)
H5_2 H 0.6196 0.3018 0.2084
C7_2 C 0.7827(8) 0.2962(5) 0.1996(3)
C8_2 C 0.8140(7) 0.2057(5) 0.2044(3)
C9_2 C 0.8175(7) 0.0661(5) 0.1977(3)
C11_2 C 0.7023(7) 0.5981(5) 0.1417(3)
C12_2 C 0.6007(8) 0.6372(6) 0.1437(3)
H9_2 H 0.5806 0.6710 0.1656
C13_2 C 0.5296(8) 0.6252(7) 0.1125(3)
H10_2 H 0.4617 0.6539 0.1124
C14_2 C 0.5579(8) 0.5710(6) 0.0815(3)
H11_2 H 0.5073 0.5603 0.0613
C15_2 C 0.6612(8) 0.5320(5) 0.0802(3)
C16_2 C 0.7306(7) 0.5465(5) 0.1108(3)
H12_2 H 0.8000 0.5201 0.1106
C17_2 C 0.6922(8) 0.4722(6) 0.0492(3)
C18_2 C 0.6975(7) 0.1463(5) 0.1512(2)
C19_2 C 0.5938(7) 0.1122(6) 0.1532(3)
H13_2 H 0.5683 0.0856 0.1764
C20_2 C 0.5289(8) 0.1182(6) 0.1207(3)
H14_2 H 0.4588 0.0931 0.1212
C21_2 C 0.5634(8) 0.1599(6) 0.0870(3)
H15_2 H 0.5167 0.1648 0.0652
C22_2 C 0.6676(8) 0.1944(5) 0.0859(3)
C23_2 C 0.7349(8) 0.1877(5) 0.1184(3)
H16_2 H 0.8058 0.2114 0.1180
C24_2 C 0.7020(8) 0.2464(7) 0.0517(2)
N1_2 N 0.7796(6) 0.6088(4) 0.1730(2)
N2_2 N 0.9134(6) 0.6618(4) 0.2077(2)
N4_2 N 0.7684(5) 0.1384(4) 0.18444(19)
O1_2 O 0.6188(5) 0.4446(4) 0.02587(19)
O2_2 O 0.7903(5) 0.4470(5) 0.0479(2)
O3_2 O 0.6333(5) 0.2672(4) 0.02636(18)
O4_2 O 0.8012(6) 0.2698(4) 0.0510(2)
Cu6_2 Cu 0.84991(8) 0.35771(7) 0.01370(3)
Cu1_2 Cu 0.65009(8) 0.35771(7) 0.98630(3)
O5_2 O 0.4865(5) 0.3590(5) 0.9641(2)
O12_2 O 0.7097(5) 0.4470(5) 0.9521(2)
O14_2 O 0.6988(6) 0.2698(4) 0.9490(2)
H35_2 H 0.468435 0.417853 0.954703
H36_2 H 0.480264 0.317413 0.942198
C10_2 C 0.7955(9) 0.9781(5) 0.1836(3)
H6_2 H 0.8396 0.9369 0.1983
H7_2 H 0.8136 0.9743 0.1558
H8_2 H 0.7187 0.9647 0.1873
Cu3_2 Cu 0.50537(13) 0.0000 0.7500
S1_3 S 0.38049(15) 0.12863(14) 0.80933(7)
C4_3 C 0.2893(7) 0.0464(5) 0.8061(3)
C5_3 C 0.1881(8) 0.0752(6) 0.7988(3)
H4_3 H 0.1269 0.0387 0.7958
C6_3 C 0.1843(8) 0.1666(5) 0.7960(3)
H5_3 H 0.1196 0.1982 0.7916
C7_3 C 0.2827(8) 0.2038(5) 0.8004(3)
C8_3 C 0.3140(7) 0.2943(5) 0.7956(3)
C9_3 C 0.3175(7) 0.4339(5) 0.8023(3)
C10_3 C 0.2955(9) 0.5219(5) 0.8164(3)
H6_3 H 0.3396 0.5631 0.8017
H7_3 H 0.3136 0.5257 0.8442
H8_3 H 0.2187 0.5353 0.8127
C17_3 C 0.1922(8) 0.0278(6) 0.9508(3)
C18_3 C 0.1975(7) 0.3537(5) 0.8488(2)
C19_3 C 0.0938(7) 0.3878(6) 0.8468(3)
H13_3 H 0.0683 0.4144 0.8236
C20_3 C 0.0289(8) 0.3818(6) 0.8793(3)
C21_3 C 0.0634(8) 0.3401(6) 0.9130(3)
H15_3 H 0.0167 0.3352 0.9348
C22_3 C 0.1676(8) 0.3056(5) 0.9141(3)
C23_3 C 0.2349(8) 0.3123(5) 0.8816(3)
H16_3 H 0.3058 0.2886 0.8820
C24_3 C 0.2020(8) 0.2536(7) 0.9483(2)
N4_3 N 0.2684(5) 0.3616(4) 0.81556(19)
N5_2 N 0.3899(6) 0.3230(4) 0.7718(2)
N6_2 N 0.3913(6) 0.4128(4) 0.7756(2)
O1_3 O 0.1188(5) 0.0554(4) 0.97413(19)
O3_3 O 0.1333(5) 0.2328(4) 0.97364(18)
Cu8_3 Cu 0.5000 0.2500 0.73999(4)
Cu11_3 Cu 0.49463(13) 0.5000 0.7500
N13_3 N 0.4081(6) 0.0728(4) 0.7141(2)
N16_2 N 0.6087(6) 0.0872(4) 0.7756(2)
Cu2_3 Cu 0.5000 0.7500 0.76001(4)
Cu3_3 Cu 0.50537(13) 1.0000 0.7500
C1_3 C 0.3154(10) 0.7317(6) 0.8333(4)
H1_3 H 0.3771 0.6938 0.8281
H2_3 H 0.2503 0.7079 0.8211
H3_3 H 0.3041 0.7360 0.8616
C2_3 C 0.3374(8) 0.8184(5) 0.8172(3)
C3_3 C 0.3256(7) 0.9572(5) 0.8066(3)
C11_3 C 0.2023(7) 0.9019(5) 0.8583(3)
C12_3 C 0.1007(8) 0.8628(6) 0.8563(3)
H9_3 H 0.0806 0.8290 0.8344
C13_3 C 0.0296(8) 0.8748(7) 0.8875(3)
C14_3 C 0.0579(8) 0.9290(6) 0.9185(3)
H11_3 H 0.0073 0.9397 0.9387
C15_3 C 0.1612(8) 0.9680(5) 0.9198(3)
C16_3 C 0.2306(7) 0.9535(5) 0.8892(3)
H12_3 H 0.3000 0.9799 0.8894
N1_3 N 0.2796(6) 0.8912(4) 0.8270(2)
N2_3 N 0.4134(6) 0.8382(4) 0.7923(2)
N3_2 N 0.4081(6) 0.9272(4) 0.7859(2)
S2_3 S 0.61951(15) 0.37137(14) 0.80933(7)
C25_3 C 0.6846(10) 0.7683(6) 0.8333(4)
H17_3 H 0.6229 0.8062 0.8281
H18_3 H 0.7497 0.7921 0.8211
H19_3 H 0.6959 0.7640 0.8616
C26_3 C 0.6626(8) 0.6816(5) 0.8172(3)
C27_3 C 0.6744(7) 0.5428(5) 0.8066(3)
C28_3 C 0.7107(7) 0.4536(5) 0.8061(3)
C29_3 C 0.8119(8) 0.4248(6) 0.7988(3)
H20_3 H 0.8731 0.4613 0.7958
C30_3 C 0.8157(8) 0.3334(5) 0.7960(3)
H21_3 H 0.8804 0.3018 0.7916
C31_3 C 0.7173(8) 0.2962(5) 0.8004(3)
C32_3 C 0.6860(7) 0.2057(5) 0.7956(3)
C33_3 C 0.6825(7) 0.0661(5) 0.8023(3)
C35_3 C 0.7977(7) 0.5981(5) 0.8583(3)
C36_3 C 0.8993(8) 0.6372(6) 0.8563(3)
H25_3 H 0.9194 0.6710 0.8344
C37_3 C 0.9704(8) 0.6252(7) 0.8875(3)
C38_3 C 0.9421(8) 0.5710(6) 0.9185(3)
H27_3 H 0.9927 0.5603 0.9387
C39_3 C 0.8388(8) 0.5320(5) 0.9198(3)
C40_3 C 0.7694(7) 0.5465(5) 0.8892(3)
H28_3 H 0.7000 0.5201 0.8894
C41_3 C 0.8078(8) 0.4722(6) 0.9508(3)
C42_3 C 0.8025(7) 0.1463(5) 0.8488(2)
C43_3 C 0.9062(7) 0.1122(6) 0.8468(3)
H29_3 H 0.9317 0.0856 0.8236
C44_3 C 0.9711(8) 0.1182(6) 0.8793(3)
C45_3 C 0.9366(8) 0.1599(6) 0.9130(3)
H31_3 H 0.9833 0.1648 0.9348
C46_3 C 0.8324(8) 0.1944(5) 0.9141(3)
C47_3 C 0.7651(8) 0.1877(5) 0.8816(3)
H32_3 H 0.6942 0.2114 0.8820
C48_3 C 0.7980(8) 0.2464(7) 0.9483(2)
N7_3 N 0.7204(6) 0.6088(4) 0.8270(2)
N8_3 N 0.5866(6) 0.6618(4) 0.7923(2)
N9_2 N 0.5919(6) 0.5728(4) 0.7859(2)
N10_3 N 0.7316(5) 0.1384(4) 0.81556(19)
N11_2 N 0.6101(6) 0.1770(4) 0.7718(2)
O6_3 O 0.8812(5) 0.4446(4) 0.97413(19)
O8_3 O 0.8667(5) 0.2672(4) 0.97364(18)
N14_2 N 0.3899(6) 0.6770(4) 0.7282(2)
N15_2 N 0.6101(6) 0.8230(4) 0.7282(2)
N17_3 N 0.6087(6) 0.9128(4) 0.7244(2)
C34_3 C 0.7045(9) 0.9781(5) 0.8164(3)
H22_3 H 0.6604 0.9369 0.8017
H23_3 H 0.6864 0.9743 0.8442
H24_3 H 0.7813 0.9647 0.8127
N13_4 N 0.5919(6) 0.4272(4) 0.7141(2)
N17_4 N 0.3913(6) 0.5872(4) 0.7244(2)
C34_4 C 0.7045(9) 0.0219(5) 0.6836(3)
H22_4 H 0.6604 0.0631 0.6983
H23_4 H 0.6864 0.0257 0.6558
H24_4 H 0.7813 0.0353 0.6873
C1_4 C 0.3154(10) 0.2683(6) 0.6667(4)
H1_4 H 0.3771 0.3062 0.6719
H2_4 H 0.2503 0.2921 0.6789
H3_4 H 0.3041 0.2640 0.6384
C2_4 C 0.3374(8) 0.1816(5) 0.6828(3)
C3_4 C 0.3256(7) 0.0428(5) 0.6934(3)
C11_4 C 0.2023(7) 0.0981(5) 0.6417(3)
C12_4 C 0.1007(8) 0.1372(6) 0.6437(3)
H9_4 H 0.0806 0.1710 0.6656
C13_4 C 0.0296(8) 0.1252(7) 0.6125(3)
C14_4 C 0.0579(8) 0.0710(6) 0.5815(3)
H11_4 H 0.0073 0.0603 0.5613
C15_4 C 0.1612(8) 0.0320(5) 0.5802(3)
C16_4 C 0.2306(7) 0.0465(5) 0.6108(3)
H12_4 H 0.3000 0.0201 0.6106
N1_4 N 0.2796(6) 0.1088(4) 0.6730(2)
N2_4 N 0.4134(6) 0.1618(4) 0.7077(2)
S2_4 S 0.61951(15) 0.62863(14) 0.69067(7)
C25_4 C 0.6846(10) 0.2317(6) 0.6667(4)
H17_4 H 0.6229 0.1938 0.6719
H18_4 H 0.7497 0.2079 0.6789
H19_4 H 0.6959 0.2360 0.6384
C26_4 C 0.6626(8) 0.3184(5) 0.6828(3)
C27_4 C 0.6744(7) 0.4572(5) 0.6934(3)
C28_4 C 0.7107(7) 0.5464(5) 0.6939(3)
C29_4 C 0.8119(8) 0.5752(6) 0.7012(3)
H20_4 H 0.8731 0.5387 0.7042
C30_4 C 0.8157(8) 0.6666(5) 0.7040(3)
H21_4 H 0.8804 0.6982 0.7084
C31_4 C 0.7173(8) 0.7038(5) 0.6996(3)
C32_4 C 0.6860(7) 0.7943(5) 0.7044(3)
C33_4 C 0.6825(7) 0.9339(5) 0.6977(3)
C35_4 C 0.7977(7) 0.4019(5) 0.6417(3)
C36_4 C 0.8993(8) 0.3628(6) 0.6437(3)
H25_4 H 0.9194 0.3290 0.6656
C37_4 C 0.9704(8) 0.3748(7) 0.6125(3)
C38_4 C 0.9421(8) 0.4290(6) 0.5815(3)
H27_4 H 0.9927 0.4397 0.5613
C39_4 C 0.8388(8) 0.4680(5) 0.5802(3)
C40_4 C 0.7694(7) 0.4535(5) 0.6108(3)
H28_4 H 0.7000 0.4799 0.6106
C41_4 C 0.8078(8) 0.5278(6) 0.5492(3)
C42_4 C 0.8025(7) 0.8537(5) 0.6512(2)
C43_4 C 0.9062(7) 0.8878(6) 0.6532(3)
H29_4 H 0.9317 0.9144 0.6764
C44_4 C 0.9711(8) 0.8818(6) 0.6207(3)
C45_4 C 0.9366(8) 0.8401(6) 0.5870(3)
H31_4 H 0.9833 0.8352 0.5652
C46_4 C 0.8324(8) 0.8056(5) 0.5859(3)
C47_4 C 0.7651(8) 0.8123(5) 0.6184(3)
H32_4 H 0.6942 0.7886 0.6180
C48_4 C 0.7980(8) 0.7536(7) 0.5517(2)
N7_4 N 0.7204(6) 0.3912(4) 0.6730(2)
N8_4 N 0.5866(6) 0.3382(4) 0.7077(2)
N10_4 N 0.7316(5) 0.8616(4) 0.68444(19)
O6_4 O 0.8812(5) 0.5554(4) 0.52587(19)
O8_4 O 0.8667(5) 0.7328(4) 0.52636(18)
S1_4 S 0.38049(15) 0.87137(14) 0.69067(7)
C4_4 C 0.2893(7) 0.9536(5) 0.6939(3)
C5_4 C 0.1881(8) 0.9248(6) 0.7012(3)
H4_4 H 0.1269 0.9613 0.7042
C6_4 C 0.1843(8) 0.8334(5) 0.7040(3)
H5_4 H 0.1196 0.8018 0.7084
C7_4 C 0.2827(8) 0.7962(5) 0.6996(3)
C8_4 C 0.3140(7) 0.7057(5) 0.7044(3)
C9_4 C 0.3175(7) 0.5661(5) 0.6977(3)
C10_4 C 0.2955(9) 0.4781(5) 0.6836(3)
H6_4 H 0.3396 0.4369 0.6983
H7_4 H 0.3136 0.4743 0.6558
H8_4 H 0.2187 0.4647 0.6873
C17_4 C 0.1922(8) 0.9722(6) 0.5492(3)
C18_4 C 0.1975(7) 0.6463(5) 0.6512(2)
C19_4 C 0.0938(7) 0.6122(6) 0.6532(3)
H13_4 H 0.0683 0.5856 0.6764
C20_4 C 0.0289(8) 0.6182(6) 0.6207(3)
C21_4 C 0.0634(8) 0.6599(6) 0.5870(3)
H15_4 H 0.0167 0.6648 0.5652
C22_4 C 0.1676(8) 0.6944(5) 0.5859(3)
C23_4 C 0.2349(8) 0.6877(5) 0.6184(3)
H16_4 H 0.3058 0.7114 0.6180
C24_4 C 0.2020(8) 0.7464(7) 0.5517(2)
N4_4 N 0.2684(5) 0.6384(4) 0.68444(19)
O1_4 O 0.1188(5) 0.9446(4) 0.52587(19)
O3_4 O 0.1333(5) 0.7672(4) 0.52636(18)
O10_3 O 0.0135(5) 0.3590(5) 0.0359(2)
H33_3 H 0.0315651 0.417853 0.0452973
H34_3 H 0.0197362 0.317413 0.0578022
H26_3 H 0.0383 0.6539 0.8876
H30_3 H 0.0412 0.0931 0.8788
O5_3 O 0.9865(5) 0.1410(5) 0.0359(2)
H35_3 H 0.968435 0.0821466 0.0452973
H36_3 H 0.980264 0.182587 0.0578022
H14_3 H 0.9588 0.4069 0.8788
H10_3 H 0.9617 0.8461 0.8876
H26_4 H 0.0383 0.3461 0.6124
H30_4 H 0.0412 0.9069 0.6212
O10_4 O 0.0135(5) 0.6410(5) 0.4641(2)
H33_4 H 0.0315651 0.582147 0.454703
H34_4 H 0.0197362 0.682587 0.442198
H10_4 H 0.9617 0.1539 0.6124
H14_4 H 0.9588 0.5931 0.6212
O5_4 O 0.9865(5) 0.8590(5) 0.4641(2)
H35_4 H 0.968435 0.917853 0.454703
H36_4 H 0.980264 0.817413 0.442198
Cl1 Cl 0.5667(3) 0.0000 0.2500
Cl1_2 Cl 0.5667(3) 1.0000 0.2500
Cl1_3 Cl 0.4333(3) 0.5000 0.2500
Cl1_4 Cl 0.0667(3) 0.5000 0.7500
Cl1_5 Cl 0.9333(3) 0.0000 0.7500
Cl1_6 Cl 0.9333(3) 1.0000 0.7500
loop_
_geom_bond_atom_site_label_1
_geom_bond_atom_site_label_2
_geom_bond_site_symmetry_1
_geom_bond_site_symmetry_2
C25 H17 1_555 1_555
H18 C25 1_555 1_555
H19 C25 1_555 1_555
C26 C25 1_555 1_555
C35 C36 1_555 1_555
C36 H25 1_555 1_555
C37 C36 1_555 1_555
H26 C37 1_555 1_555
C38 C37 1_555 1_555
H27 C38 1_555 1_555
C39 C38 1_555 1_555
C40 C35 1_555 1_555
H28 C40 1_555 1_555
N7 C26 1_555 1_555
N8 Cu2 1_555 1_555
N9 C27 1_555 1_555
N15 Cu2 1_555 1_555
N16 Cu3 1_555 1_555
N17 Cu3 1_555 1_555
C26 N8 1_555 1_555
C27 N7 1_555 1_555
C35 N7 1_555 1_555
C39 C40 1_555 1_555
N8 N9 1_555 1_555
N15 N17 1_555 1_555
Cu4 O6 1_555 1_555
S2 C28 1_555 1_555
C28 C29 1_555 1_555
C29 H20 1_555 1_555
C30 C29 1_555 1_555
H21 C30 1_555 1_555
C31 S2 1_555 1_555
C32 C31 1_555 1_555
C33 C34 1_555 1_555
C34 H22 1_555 1_555
H23 C34 1_555 1_555
H24 C34 1_555 1_555
C42 C43 1_555 1_555
C43 H29 1_555 1_555
C44 C43 1_555 1_555
H30 C44 1_555 1_555
C45 C44 1_555 1_555
H31 C45 1_555 1_555
C46 C45 1_555 1_555
C47 C42 1_555 1_555
H32 C47 1_555 1_555
C48 C46 1_555 1_555
N10 C32 1_555 1_555
N11 C32 1_555 1_555
N16 C33 1_555 1_555
O6 C41 1_555 1_555
O7 C41 1_555 1_555
O8 Cu4 1_555 1_555
O9 C48 1_555 1_555
O10 Cu4 1_555 1_555
Cu5 O7 1_555 1_555
Cu8 N11 1_555 1_555
O11 Cu4 1_555 1_555
O13 Cu4 1_555 1_555
C30 C31 1_555 1_555
C33 N10 1_555 1_555
C42 N10 1_555 1_555
C46 C47 1_555 1_555
C48 O8 1_555 1_555
N11 N16 1_555 1_555
O9 Cu5 1_555 1_555
O10 H33 1_555 1_555
O10 H34 1_555 1_555
C10 H6 1_555 1_555
H7 C10 1_555 1_555
H8 C10 1_555 1_555
Cu1 O1 1_555 1_555
Cu2_2 N2 1_555 1_555
S1 C4 1_555 1_555
C1 H1 1_555 1_555
H2 C1 1_555 1_555
H3 C1 1_555 1_555
C2 C1 1_555 1_555
C3 C4 1_555 1_555
C4 C5 1_555 1_555
C5 H4 1_555 1_555
C6 C5 1_555 1_555
H5 C6 1_555 1_555
C7 S1 1_555 1_555
C8 C7 1_555 1_555
C11 C12 1_555 1_555
C12 H9 1_555 1_555
C13 C12 1_555 1_555
H10 C13 1_555 1_555
C14 C13 1_555 1_555
H11 C14 1_555 1_555
C15 C14 1_555 1_555
C16 C11 1_555 1_555
H12 C16 1_555 1_555
C17 C15 1_555 1_555
C18 C19 1_555 1_555
C19 H13 1_555 1_555
C20 C19 1_555 1_555
H14 C20 1_555 1_555
C21 C20 1_555 1_555
H15 C21 1_555 1_555
C22 C21 1_555 1_555
C23 C18 1_555 1_555
H16 C23 1_555 1_555
C24 C22 1_555 1_555
N1 C2 1_555 1_555
N2 C2 1_555 1_555
N3 C3 1_555 1_555
N4 C8 1_555 1_555
N5 C8 1_555 1_555
N6 C9 1_555 1_555
O1 C17 1_555 1_555
O2 C17 1_555 1_555
O3 Cu1 1_555 1_555
O4 C24 1_555 1_555
O5 Cu1 1_555 1_555
Cu6 O2 1_555 1_555
Cu8_2 N5 1_555 1_555
Cu11_2 N6 1_555 1_555
N14 Cu2_2 1_555 1_555
O12 Cu1 1_555 1_555
O14 Cu1 1_555 1_555
C3 N1 1_555 1_555
C6 C7 1_555 1_555
C9 N4 1_555 1_555
C11 N1 1_555 1_555
C15 C16 1_555 1_555
C18 N4 1_555 1_555
C22 C23 1_555 1_555
C24 O3 1_555 1_555
N2 N3 1_555 1_555
N5 N6 1_555 1_555
O4 Cu6 1_555 1_555
O5 H35 1_555 1_555
O5 H36 1_555 1_555
N17_2 Cu11 1_555 1_555
N14 N17_2 1_555 1_555
S2_2 C28_2 1_555 1_555
C28_2 C29_2 1_555 1_555
C29_2 H20_2 1_555 1_555
C30_2 C29_2 1_555 1_555
H21_2 C30_2 1_555 1_555
C31_2 S2_2 1_555 1_555
C32_2 C31_2 1_555 1_555
C33_2 C34_2 1_555 1_555
C34_2 H22_2 1_555 1_555
H23_2 C34_2 1_555 1_555
H24_2 C34_2 1_555 1_555
C42_2 C43_2 1_555 1_555
C43_2 H29_2 1_555 1_555
C44_2 C43_2 1_555 1_555
H30_2 C44_2 1_555 1_555
C45_2 C44_2 1_555 1_555
H31_2 C45_2 1_555 1_555
C46_2 C45_2 1_555 1_555
C47_2 C42_2 1_555 1_555
H32_2 C47_2 1_555 1_555
C48_2 C46_2 1_555 1_555
N10_2 C32_2 1_555 1_555
N15 C32_2 1_555 1_555
N17 C33_2 1_555 1_555
O6_2 C41_2 1_555 1_555
O7_2 C41_2 1_555 1_555
O9_2 C48_2 1_555 1_555
Cu5_2 O7_2 1_555 1_555
C30_2 C31_2 1_555 1_555
C33_2 N10_2 1_555 1_555
C42_2 N10_2 1_555 1_555
C46_2 C47_2 1_555 1_555
C48_2 O8_2 1_555 1_555
O9_2 Cu5_2 1_555 1_555
O10_2 Cu4_2 1_555 1_555
O11_2 Cu4_2 1_555 1_555
O13_2 Cu4_2 1_555 1_555
O10_2 H33_2 1_555 1_555
O10_2 H34_2 1_555 1_555
C25_2 H17_2 1_555 1_555
H18_2 C25_2 1_555 1_555
H19_2 C25_2 1_555 1_555
C26_2 C25_2 1_555 1_555
C35_2 C36_2 1_555 1_555
C36_2 H25_2 1_555 1_555
C37_2 C36_2 1_555 1_555
H26_2 C37_2 1_555 1_555
C38_2 C37_2 1_555 1_555
H27_2 C38_2 1_555 1_555
C39_2 C38_2 1_555 1_555
C40_2 C35_2 1_555 1_555
H28_2 C40_2 1_555 1_555
N7_2 C26_2 1_555 1_555
N8_2 Cu8 1_555 1_555
N13_2 C27_2 1_555 1_555
C26_2 N8_2 1_555 1_555
C27_2 N7_2 1_555 1_555
C35_2 N7_2 1_555 1_555
C39_2 C40_2 1_555 1_555
N8_2 N13_2 1_555 1_555
Cu8_2 N2_2 1_555 1_555
S1_2 C4_2 1_555 1_555
C1_2 H1_2 1_555 1_555
H2_2 C1_2 1_555 1_555
H3_2 C1_2 1_555 1_555
C2_2 C1_2 1_555 1_555
C3_2 C4_2 1_555 1_555
C4_2 C5_2 1_555 1_555
C5_2 H4_2 1_555 1_555
C6_2 C5_2 1_555 1_555
H5_2 C6_2 1_555 1_555
C7_2 S1_2 1_555 1_555
C8_2 C7_2 1_555 1_555
C11_2 C12_2 1_555 1_555
C12_2 H9_2 1_555 1_555
C13_2 C12_2 1_555 1_555
H10_2 C13_2 1_555 1_555
C14_2 C13_2 1_555 1_555
H11_2 C14_2 1_555 1_555
C15_2 C14_2 1_555 1_555
C16_2 C11_2 1_555 1_555
H12_2 C16_2 1_555 1_555
C17_2 C15_2 1_555 1_555
C18_2 C19_2 1_555 1_555
C19_2 H13_2 1_555 1_555
C20_2 C19_2 1_555 1_555
H14_2 C20_2 1_555 1_555
C21_2 C20_2 1_555 1_555
H15_2 C21_2 1_555 1_555
C22_2 C21_2 1_555 1_555
C23_2 C18_2 1_555 1_555
H16_2 C23_2 1_555 1_555
C24_2 C22_2 1_555 1_555
N1_2 C2_2 1_555 1_555
N2_2 C2_2 1_555 1_555
N13 C3_2 1_555 1_555
N4_2 C8_2 1_555 1_555
N14 C8_2 1_555 1_555
N17_2 C9_2 1_555 1_555
O1_2 C17_2 1_555 1_555
O2_2 C17_2 1_555 1_555
O4_2 C24_2 1_555 1_555
Cu6_2 O2_2 1_555 1_555
C3_2 N1_2 1_555 1_555
C6_2 C7_2 1_555 1_555
C9_2 N4_2 1_555 1_555
C11_2 N1_2 1_555 1_555
C15_2 C16_2 1_555 1_555
C18_2 N4_2 1_555 1_555
C22_2 C23_2 1_555 1_555
C24_2 O3_2 1_555 1_555
N2_2 N13 1_555 1_555
O4_2 Cu6_2 1_555 1_555
O5_2 Cu1_2 1_555 1_555
O12_2 Cu1_2 1_555 1_555
O14_2 Cu1_2 1_555 1_555
O5_2 H35_2 1_555 1_555
O5_2 H36_2 1_555 1_555
C10_2 H6_2 1_555 1_555
H7_2 C10_2 1_555 1_555
H8_2 C10_2 1_555 1_555
S1_3 C4_3 1_555 1_555
C4_3 C5_3 1_555 1_555
C5_3 H4_3 1_555 1_555
C6_3 C5_3 1_555 1_555
H5_3 C6_3 1_555 1_555
C7_3 S1_3 1_555 1_555
C8_3 C7_3 1_555 1_555
C9_3 C10_3 1_555 1_555
C10_3 H6_3 1_555 1_555
H7_3 C10_3 1_555 1_555
H8_3 C10_3 1_555 1_555
C18_3 C19_3 1_555 1_555
C19_3 H13_3 1_555 1_555
C20_3 C19_3 1_555 1_555
C21_3 C20_3 1_555 1_555
H15_3 C21_3 1_555 1_555
C22_3 C21_3 1_555 1_555
C23_3 C18_3 1_555 1_555
H16_3 C23_3 1_555 1_555
C24_3 C22_3 1_555 1_555
N4_3 C8_3 1_555 1_555
N5_2 C8_3 1_555 1_555
N6_2 C9_3 1_555 1_555
O1_3 C17_3 1_555 1_555
O11_2 C17_3 1_555 1_555
O13_2 C24_3 1_555 1_555
Cu8_3 N5_2 1_555 1_555
Cu11_3 N6_2 1_555 1_555
N13_3 Cu3_2 1_555 1_555
N16_2 Cu3_2 1_555 1_555
C6_3 C7_3 1_555 1_555
C9_3 N4_3 1_555 1_555
C18_3 N4_3 1_555 1_555
C22_3 C23_3 1_555 1_555
C24_3 O3_3 1_555 1_555
N5_2 N6_2 1_555 1_555
Cu2_3 N2_3 1_555 1_555
Cu3_3 N3_2 1_555 1_555
C1_3 H1_3 1_555 1_555
H2_3 C1_3 1_555 1_555
H3_3 C1_3 1_555 1_555
C2_3 C1_3 1_555 1_555
C11_3 C12_3 1_555 1_555
C12_3 H9_3 1_555 1_555
C13_3 C12_3 1_555 1_555
C14_3 C13_3 1_555 1_555
H11_3 C14_3 1_555 1_555
C15_3 C14_3 1_555 1_555
C16_3 C11_3 1_555 1_555
H12_3 C16_3 1_555 1_555
N1_3 C2_3 1_555 1_555
N2_3 C2_3 1_555 1_555
N3_2 C3_3 1_555 1_555
S2_3 C28_3 1_555 1_555
C25_3 H17_3 1_555 1_555
H18_3 C25_3 1_555 1_555
H19_3 C25_3 1_555 1_555
C26_3 C25_3 1_555 1_555
C27_3 C28_3 1_555 1_555
C28_3 C29_3 1_555 1_555
C29_3 H20_3 1_555 1_555
C30_3 C29_3 1_555 1_555
H21_3 C30_3 1_555 1_555
C31_3 S2_3 1_555 1_555
C32_3 C31_3 1_555 1_555
C35_3 C36_3 1_555 1_555
C36_3 H25_3 1_555 1_555
C37_3 C36_3 1_555 1_555
C38_3 C37_3 1_555 1_555
H27_3 C38_3 1_555 1_555
C39_3 C38_3 1_555 1_555
C40_3 C35_3 1_555 1_555
H28_3 C40_3 1_555 1_555
C41_3 C39_3 1_555 1_555
C42_3 C43_3 1_555 1_555
C43_3 H29_3 1_555 1_555
C44_3 C43_3 1_555 1_555
C45_3 C44_3 1_555 1_555
H31_3 C45_3 1_555 1_555
C46_3 C45_3 1_555 1_555
C47_3 C42_3 1_555 1_555
H32_3 C47_3 1_555 1_555
C48_3 C46_3 1_555 1_555
N7_3 C26_3 1_555 1_555
N8_3 Cu2_3 1_555 1_555
N9_2 C27_3 1_555 1_555
N10_3 C32_3 1_555 1_555
N11_2 C32_3 1_555 1_555
N16_2 C33_3 1_555 1_555
O6_3 C41_3 1_555 1_555
O12_2 C41_3 1_555 1_555
O14_2 C48_3 1_555 1_555
Cu8_3 N11_2 1_555 1_555
Cu11_3 N9_2 1_555 1_555
N14_2 Cu2_3 1_555 1_555
N15_2 Cu2_3 1_555 1_555
N17_3 Cu3_3 1_555 1_555
C3_3 N1_3 1_555 1_555
C11_3 N1_3 1_555 1_555
C15_3 C16_3 1_555 1_555
N2_3 N3_2 1_555 1_555
C26_3 N8_3 1_555 1_555
C27_3 N7_3 1_555 1_555
C30_3 C31_3 1_555 1_555
C33_3 N10_3 1_555 1_555
C35_3 N7_3 1_555 1_555
C39_3 C40_3 1_555 1_555
C42_3 N10_3 1_555 1_555
C46_3 C47_3 1_555 1_555
C48_3 O8_3 1_555 1_555
N8_3 N9_2 1_555 1_555
N11_2 N16_2 1_555 1_555
N15_2 N17_3 1_555 1_555
C34_3 H22_3 1_555 1_555
H23_3 C34_3 1_555 1_555
H24_3 C34_3 1_555 1_555
N13_4 Cu11_3 1_555 1_555
N17_4 Cu11_3 1_555 1_555
N14_2 N17_4 1_555 1_555
C34_4 H22_4 1_555 1_555
H23_4 C34_4 1_555 1_555
H24_4 C34_4 1_555 1_555
Cu8_3 N2_4 1_555 1_555
C1_4 H1_4 1_555 1_555
H2_4 C1_4 1_555 1_555
H3_4 C1_4 1_555 1_555
C2_4 C1_4 1_555 1_555
C11_4 C12_4 1_555 1_555
C12_4 H9_4 1_555 1_555
C13_4 C12_4 1_555 1_555
C14_4 C13_4 1_555 1_555
H11_4 C14_4 1_555 1_555
C15_4 C14_4 1_555 1_555
C16_4 C11_4 1_555 1_555
H12_4 C16_4 1_555 1_555
N1_4 C2_4 1_555 1_555
N2_4 C2_4 1_555 1_555
N13_3 C3_4 1_555 1_555
Cu6 O6_4 1_555 1_555
S2_4 C28_4 1_555 1_555
C25_4 H17_4 1_555 1_555
H18_4 C25_4 1_555 1_555
H19_4 C25_4 1_555 1_555
C26_4 C25_4 1_555 1_555
C27_4 C28_4 1_555 1_555
C28_4 C29_4 1_555 1_555
C29_4 H20_4 1_555 1_555
C30_4 C29_4 1_555 1_555
H21_4 C30_4 1_555 1_555
C31_4 S2_4 1_555 1_555
C32_4 C31_4 1_555 1_555
C35_4 C36_4 1_555 1_555
C36_4 H25_4 1_555 1_555
C37_4 C36_4 1_555 1_555
C38_4 C37_4 1_555 1_555
H27_4 C38_4 1_555 1_555
C39_4 C38_4 1_555 1_555
C40_4 C35_4 1_555 1_555
H28_4 C40_4 1_555 1_555
C41_4 C39_4 1_555 1_555
C42_4 C43_4 1_555 1_555
C43_4 H29_4 1_555 1_555
C44_4 C43_4 1_555 1_555
C45_4 C44_4 1_555 1_555
H31_4 C45_4 1_555 1_555
C46_4 C45_4 1_555 1_555
C47_4 C42_4 1_555 1_555
H32_4 C47_4 1_555 1_555
C48_4 C46_4 1_555 1_555
N7_4 C26_4 1_555 1_555
N8_4 Cu8_3 1_555 1_555
N13_4 C27_4 1_555 1_555
N10_4 C32_4 1_555 1_555
N15_2 C32_4 1_555 1_555
N17_3 C33_4 1_555 1_555
O6_4 C41_4 1_555 1_555
O12 C41_4 1_555 1_555
O8_4 Cu6 1_555 1_555
O14 C48_4 1_555 1_555
C3_4 N1_4 1_555 1_555
C11_4 N1_4 1_555 1_555
C15_4 C16_4 1_555 1_555
N2_4 N13_3 1_555 1_555
C26_4 N8_4 1_555 1_555
C27_4 N7_4 1_555 1_555
C30_4 C31_4 1_555 1_555
C33_4 N10_4 1_555 1_555
C35_4 N7_4 1_555 1_555
C39_4 C40_4 1_555 1_555
C42_4 N10_4 1_555 1_555
C46_4 C47_4 1_555 1_555
C48_4 O8_4 1_555 1_555
N8_4 N13_4 1_555 1_555
Cu5 O1_4 1_555 1_555
S1_4 C4_4 1_555 1_555
C4_4 C5_4 1_555 1_555
C5_4 H4_4 1_555 1_555
C6_4 C5_4 1_555 1_555
H5_4 C6_4 1_555 1_555
C7_4 S1_4 1_555 1_555
C8_4 C7_4 1_555 1_555
C9_4 C10_4 1_555 1_555
C10_4 H6_4 1_555 1_555
H7_4 C10_4 1_555 1_555
H8_4 C10_4 1_555 1_555
C18_4 C19_4 1_555 1_555
C19_4 H13_4 1_555 1_555
C20_4 C19_4 1_555 1_555
C21_4 C20_4 1_555 1_555
H15_4 C21_4 1_555 1_555
C22_4 C21_4 1_555 1_555
C23_4 C18_4 1_555 1_555
H16_4 C23_4 1_555 1_555
C24_4 C22_4 1_555 1_555
N4_4 C8_4 1_555 1_555
N14_2 C8_4 1_555 1_555
N17_4 C9_4 1_555 1_555
O1_4 C17_4 1_555 1_555
O11 C17_4 1_555 1_555
O3_4 Cu5 1_555 1_555
O13 C24_4 1_555 1_555
C6_4 C7_4 1_555 1_555
C9_4 N4_4 1_555 1_555
C18_4 N4_4 1_555 1_555
C22_4 C23_4 1_555 1_555
C24_4 O3_4 1_555 1_555
O10_3 H33_3 1_555 1_555
O10_3 H34_3 1_555 1_555
O5_3 H35_3 1_555 1_555
O5_3 H36_3 1_555 1_555
O10_4 H33_4 1_555 1_555
O10_4 H34_4 1_555 1_555
O5_4 H35_4 1_555 1_555
O5_4 H36_4 1_555 1_555

#END
