
###############################################################################
#
# This file contains modified crystal structure data generated from the
# MOF subset of the Cambridge Structural Database (CSD) v543 
# hosted by the Cambridge Crystallographic Data Centre (CCDC).
#
# This work is licensed under the Creative Commons
# Attribution-NonCommercial-ShareAlike 4.0 International License.
# To view a copy of this license, visit
# http://creativecommons.org/licenses/by-nc-sa/4.0/
# or send a letter to
# Creative Commons, PO Box 1866, Mountain View, CA 94042, USA.
#
# CIF created using the CSD Python API on 29 September 2022
# The structure has been converted into the P1 space group
# The structure has a 3D framework
# The original CSD entry GUJREK01 is in the orthorhombic crystal system
# The original CSD entry GUJREK01 is in a Sohncke space group
# The framework has been calculated to contain at least 10.0% void space
# The void calculation uses a probe of radius 1.32A, grid spacing 0.4
# The framework is charged, counterions have been retained in the structure
# H atom positions have been added when not included in the experimental data
#
###############################################################################

data_GUJREK01
_chemical_formula_moiety         '(C192 H144 Cl6 Cu13 N48 O40 S8 1+)n'
_symmetry_cell_setting           triclinic
_symmetry_space_group_name_H-M   'P 1'
_symmetry_Int_Tables_number      1
_space_group_name_Hall           'P 1'
loop_
_symmetry_equiv_pos_site_id
_symmetry_equiv_pos_as_xyz
1 x,y,z
_cell_length_a                   12.3588(10)
_cell_length_b                   15.5011(12)
_cell_length_c                   34.305(3)
_cell_angle_alpha                90
_cell_angle_beta                 90
_cell_angle_gamma                90
_cell_volume                     6571.98
loop_
_atom_site_label
_atom_site_type_symbol
_atom_site_fract_x
_atom_site_fract_y
_atom_site_fract_z
Cu2 Cu -0.0000 0.2500 0.26002(4)
Cu3 Cu 0.00531(12) 0.5000 0.2500
C25 C 0.1848(10) 0.2685(5) 0.3332(4)
H17 H 0.1225 0.3060 0.3284
H18 H 0.2490 0.2927 0.3205
H19 H 0.1977 0.2642 0.3613
C26 C 0.1627(8) 0.1814(5) 0.3172(3)
C27 C 0.1744(7) 0.0429(5) 0.3068(3)
C35 C 0.2978(7) 0.0981(5) 0.3582(2)
C36 C 0.3991(7) 0.1373(6) 0.3564(3)
H25 H 0.4191 0.1715 0.3346
C37 C 0.4705(7) 0.1250(7) 0.3875(3)
H26 H 0.5387 0.1533 0.3875
C38 C 0.4421(8) 0.0713(6) 0.4185(3)
H27 H 0.4927 0.0609 0.4388
C39 C 0.3388(8) 0.0321(5) 0.4199(2)
C40 C 0.2693(7) 0.0464(4) 0.3891(2)
H28 H 0.2000 0.0199 0.3893
N7 N 0.2205(6) 0.1089(4) 0.3270(2)
N8 N 0.0867(6) 0.1619(4) 0.2922(2)
N9 N 0.0917(6) 0.0730(4) 0.2860(2)
Cu8 Cu -0.0000 0.7500 0.23998(4)
N15 N 0.1100(6) 0.3230(4) 0.22821(19)
N16 N 0.1088(6) 0.5875(4) 0.2757(2)
N17 N 0.1088(6) 0.4125(4) 0.2243(2)
Cu4 Cu 0.34991(8) 0.85774(6) 0.51369(3)
S2 S 0.11952(15) 0.87132(13) 0.30932(7)
C28 C 0.2106(7) 0.9537(5) 0.3062(3)
C29 C 0.3116(7) 0.9245(6) 0.2988(3)
H20 H 0.3729 0.9610 0.2958
C30 C 0.3158(7) 0.8334(5) 0.2960(3)
H21 H 0.3804 0.8019 0.2914
C31 C 0.2175(7) 0.7961(5) 0.3005(3)
C32 C 0.1858(7) 0.7058(5) 0.2955(3)
C33 C 0.1828(7) 0.5662(5) 0.3023(3)
C34 C 0.2048(8) 0.4781(5) 0.3165(3)
H22 H 0.1639 0.4365 0.3009
H23 H 0.1828 0.4735 0.3439
H24 H 0.2823 0.4659 0.3143
C41 C 0.3079(8) 0.9725(5) 0.4509(2)
C42 C 0.3025(7) 0.6463(5) 0.3488(2)
C43 C 0.4062(7) 0.6122(5) 0.3468(3)
H29 H 0.4318 0.5855 0.3236
C44 C 0.4708(8) 0.6182(6) 0.3792(3)
H30 H 0.5409 0.5931 0.3787
C45 C 0.4366(7) 0.6598(6) 0.4129(3)
H31 H 0.4834 0.6648 0.4347
C46 C 0.3324(7) 0.6943(5) 0.4141(3)
C47 C 0.2653(8) 0.6877(5) 0.3815(2)
H32 H 0.1945 0.7116 0.3819
C48 C 0.2978(8) 0.7465(7) 0.4482(2)
N10 N 0.2315(5) 0.6383(4) 0.31557(18)
N11 N 0.1100(6) 0.6770(4) 0.27179(19)
O6 O 0.3812(5) 0.9449(4) 0.47421(19)
O7 O 0.2098(5) 0.9471(4) 0.4521(2)
O8 O 0.3667(5) 0.7673(4) 0.47363(18)
O9 O 0.1988(6) 0.7699(4) 0.44889(19)
O10 O 0.5137(5) 0.8590(5) 0.5358(2)
Cu5 Cu 0.15009(8) 0.85774(6) 0.48631(3)
O11 O 0.2902(5) 0.9471(4) 0.5479(2)
O13 O 0.3012(6) 0.7699(4) 0.55111(19)
H35 H 0.531762 0.917813 0.54525
H36 H 0.520078 0.8173 0.557653
C10 C 0.7952(8) 0.0219(5) 0.3165(3)
H6 H 0.8361 0.0635 0.3009
H7 H 0.8172 0.0265 0.3439
H8 H 0.7177 0.0341 0.3143
Cu11 Cu 0.99469(12) 0.0000 0.2500
Cu1 Cu 0.65009(8) 0.64226(6) 0.51369(3)
Cu2_2 Cu 1.0000 0.2500 0.26002(4)
S1 S 0.88048(15) 0.62868(13) 0.30932(7)
C1 C 0.8152(10) 0.2315(5) 0.3332(4)
H1 H 0.8775 0.1940 0.3284
H2 H 0.7510 0.2073 0.3205
H3 H 0.8023 0.2358 0.3613
C2 C 0.8373(8) 0.3186(5) 0.3172(3)
C3 C 0.8256(7) 0.4571(5) 0.3068(3)
C4 C 0.7894(7) 0.5463(5) 0.3062(3)
C5 C 0.6884(7) 0.5755(6) 0.2988(3)
H4 H 0.6271 0.5390 0.2958
C6 C 0.6842(7) 0.6666(5) 0.2960(3)
H5 H 0.6196 0.6981 0.2914
C7 C 0.7825(7) 0.7039(5) 0.3005(3)
C8 C 0.8142(7) 0.7942(5) 0.2955(3)
C9 C 0.8172(7) 0.9338(5) 0.3023(3)
C11 C 0.7022(7) 0.4019(5) 0.3582(2)
C12 C 0.6009(7) 0.3627(6) 0.3564(3)
H9 H 0.5809 0.3285 0.3346
C13 C 0.5295(7) 0.3750(7) 0.3875(3)
H10 H 0.4613 0.3467 0.3875
C14 C 0.5579(8) 0.4287(6) 0.4185(3)
H11 H 0.5073 0.4391 0.4388
C15 C 0.6612(8) 0.4679(5) 0.4199(2)
C16 C 0.7307(7) 0.4536(4) 0.3891(2)
H12 H 0.8000 0.4801 0.3893
C17 C 0.6921(8) 0.5275(5) 0.4509(2)
C18 C 0.6975(7) 0.8537(5) 0.3488(2)
C19 C 0.5938(7) 0.8878(5) 0.3468(3)
H13 H 0.5682 0.9145 0.3236
C20 C 0.5292(8) 0.8818(6) 0.3792(3)
H14 H 0.4591 0.9069 0.3787
C21 C 0.5634(7) 0.8402(6) 0.4129(3)
H15 H 0.5166 0.8352 0.4347
C22 C 0.6676(7) 0.8057(5) 0.4141(3)
C23 C 0.7347(8) 0.8123(5) 0.3815(2)
H16 H 0.8055 0.7884 0.3819
C24 C 0.7022(8) 0.7535(7) 0.4482(2)
N1 N 0.7795(6) 0.3911(4) 0.3270(2)
N2 N 0.9133(6) 0.3381(4) 0.2922(2)
N3 N 0.9083(6) 0.4270(4) 0.2860(2)
N4 N 0.7685(5) 0.8617(4) 0.31557(18)
N5 N 0.8900(6) 0.8230(4) 0.27179(19)
N6 N 0.8912(6) 0.9125(4) 0.2757(2)
O1 O 0.6188(5) 0.5551(4) 0.47421(19)
O2 O 0.7902(5) 0.5529(4) 0.4521(2)
O3 O 0.6333(5) 0.7327(4) 0.47363(18)
O4 O 0.8012(6) 0.7301(4) 0.44889(19)
O5 O 0.4863(5) 0.6410(5) 0.5358(2)
Cu6 Cu 0.84991(8) 0.64226(6) 0.48631(3)
Cu8_2 Cu 1.0000 0.7500 0.23998(4)
Cu11_2 Cu 0.99469(12) 1.0000 0.2500
N13 N 0.9083(6) 0.5730(4) 0.2140(2)
N14 N 0.8900(6) 0.1770(4) 0.22821(19)
O12 O 0.7098(5) 0.5529(4) 0.5479(2)
O14 O 0.6988(6) 0.7301(4) 0.55111(19)
H33 H 0.468238 0.582187 0.54525
H34 H 0.479922 0.6827 0.557653
N13_2 N 0.0917(6) 0.9270(4) 0.2140(2)
N17_2 N 0.8912(6) 0.0875(4) 0.2243(2)
S2_2 S 0.11952(15) 0.12868(13) 0.19068(7)
C28_2 C 0.2106(7) 0.0463(5) 0.1938(3)
C29_2 C 0.3116(7) 0.0755(6) 0.2012(3)
H20_2 H 0.3729 0.0390 0.2042
C30_2 C 0.3158(7) 0.1666(5) 0.2040(3)
H21_2 H 0.3804 0.1981 0.2086
C31_2 C 0.2175(7) 0.2039(5) 0.1995(3)
C32_2 C 0.1858(7) 0.2942(5) 0.2045(3)
C33_2 C 0.1828(7) 0.4338(5) 0.1977(3)
C34_2 C 0.2048(8) 0.5219(5) 0.1835(3)
H22_2 H 0.1639 0.5635 0.1991
H23_2 H 0.1828 0.5265 0.1561
H24_2 H 0.2823 0.5341 0.1857
C41_2 C 0.3079(8) 0.0275(5) 0.0491(2)
C42_2 C 0.3025(7) 0.3537(5) 0.1512(2)
C43_2 C 0.4062(7) 0.3878(5) 0.1532(3)
H29_2 H 0.4318 0.4145 0.1764
C44_2 C 0.4708(8) 0.3818(6) 0.1208(3)
H30_2 H 0.5409 0.4069 0.1213
C45_2 C 0.4366(7) 0.3402(6) 0.0871(3)
H31_2 H 0.4834 0.3352 0.0653
C46_2 C 0.3324(7) 0.3057(5) 0.0859(3)
C47_2 C 0.2653(8) 0.3123(5) 0.1185(2)
H32_2 H 0.1945 0.2884 0.1181
C48_2 C 0.2978(8) 0.2535(7) 0.0518(2)
N10_2 N 0.2315(5) 0.3617(4) 0.18443(18)
O6_2 O 0.3812(5) 0.0551(4) 0.02579(19)
O7_2 O 0.2098(5) 0.0529(4) 0.0479(2)
O8_2 O 0.3667(5) 0.2327(4) 0.02637(18)
O9_2 O 0.1988(6) 0.2301(4) 0.05111(19)
Cu5_2 Cu 0.15009(8) 0.14226(6) 0.01369(3)
Cu4_2 Cu 0.34991(8) 0.14226(6) 0.98631(3)
O10_2 O 0.5137(5) 0.1410(5) 0.9642(2)
O11_2 O 0.2902(5) 0.0529(4) 0.9521(2)
O13_2 O 0.3012(6) 0.2301(4) 0.94889(19)
H35_2 H 0.531762 0.0821871 0.95475
H36_2 H 0.520078 0.1827 0.942347
C25_2 C 0.1848(10) 0.7315(5) 0.1668(4)
H17_2 H 0.1225 0.6940 0.1716
H18_2 H 0.2490 0.7073 0.1795
H19_2 H 0.1977 0.7358 0.1387
C26_2 C 0.1627(8) 0.8186(5) 0.1828(3)
C27_2 C 0.1744(7) 0.9571(5) 0.1932(3)
C35_2 C 0.2978(7) 0.9019(5) 0.1418(2)
C36_2 C 0.3991(7) 0.8627(6) 0.1436(3)
H25_2 H 0.4191 0.8285 0.1654
C37_2 C 0.4705(7) 0.8750(7) 0.1125(3)
H26_2 H 0.5387 0.8467 0.1125
C38_2 C 0.4421(8) 0.9287(6) 0.0815(3)
H27_2 H 0.4927 0.9391 0.0612
C39_2 C 0.3388(8) 0.9679(5) 0.0801(2)
C40_2 C 0.2693(7) 0.9536(4) 0.1109(2)
H28_2 H 0.2000 0.9801 0.1107
N7_2 N 0.2205(6) 0.8911(4) 0.1730(2)
N8_2 N 0.0867(6) 0.8381(4) 0.2078(2)
S1_2 S 0.88048(15) 0.37132(13) 0.19068(7)
C1_2 C 0.8152(10) 0.7685(5) 0.1668(4)
H1_2 H 0.8775 0.8060 0.1716
H2_2 H 0.7510 0.7927 0.1795
H3_2 H 0.8023 0.7642 0.1387
C2_2 C 0.8373(8) 0.6814(5) 0.1828(3)
C3_2 C 0.8256(7) 0.5429(5) 0.1932(3)
C4_2 C 0.7894(7) 0.4537(5) 0.1938(3)
C5_2 C 0.6884(7) 0.4245(6) 0.2012(3)
H4_2 H 0.6271 0.4610 0.2042
C6_2 C 0.6842(7) 0.3334(5) 0.2040(3)
H5_2 H 0.6196 0.3019 0.2086
C7_2 C 0.7825(7) 0.2961(5) 0.1995(3)
C8_2 C 0.8142(7) 0.2058(5) 0.2045(3)
C9_2 C 0.8172(7) 0.0662(5) 0.1977(3)
C11_2 C 0.7022(7) 0.5981(5) 0.1418(2)
C12_2 C 0.6009(7) 0.6373(6) 0.1436(3)
H9_2 H 0.5809 0.6715 0.1654
C13_2 C 0.5295(7) 0.6250(7) 0.1125(3)
H10_2 H 0.4613 0.6533 0.1125
C14_2 C 0.5579(8) 0.5713(6) 0.0815(3)
H11_2 H 0.5073 0.5609 0.0612
C15_2 C 0.6612(8) 0.5321(5) 0.0801(2)
C16_2 C 0.7307(7) 0.5464(4) 0.1109(2)
H12_2 H 0.8000 0.5199 0.1107
C17_2 C 0.6921(8) 0.4725(5) 0.0491(2)
C18_2 C 0.6975(7) 0.1463(5) 0.1512(2)
C19_2 C 0.5938(7) 0.1122(5) 0.1532(3)
H13_2 H 0.5682 0.0855 0.1764
C20_2 C 0.5292(8) 0.1182(6) 0.1208(3)
H14_2 H 0.4591 0.0931 0.1213
C21_2 C 0.5634(7) 0.1598(6) 0.0871(3)
H15_2 H 0.5166 0.1648 0.0653
C22_2 C 0.6676(7) 0.1943(5) 0.0859(3)
C23_2 C 0.7347(8) 0.1877(5) 0.1185(2)
H16_2 H 0.8055 0.2116 0.1181
C24_2 C 0.7022(8) 0.2465(7) 0.0518(2)
N1_2 N 0.7795(6) 0.6089(4) 0.1730(2)
N2_2 N 0.9133(6) 0.6619(4) 0.2078(2)
N4_2 N 0.7685(5) 0.1383(4) 0.18443(18)
O1_2 O 0.6188(5) 0.4449(4) 0.02579(19)
O2_2 O 0.7902(5) 0.4471(4) 0.0479(2)
O3_2 O 0.6333(5) 0.2673(4) 0.02637(18)
O4_2 O 0.8012(6) 0.2699(4) 0.05111(19)
Cu6_2 Cu 0.84991(8) 0.35774(6) 0.01369(3)
Cu1_2 Cu 0.65009(8) 0.35774(6) 0.98631(3)
O5_2 O 0.4863(5) 0.3590(5) 0.9642(2)
O12_2 O 0.7098(5) 0.4471(4) 0.9521(2)
O14_2 O 0.6988(6) 0.2699(4) 0.94889(19)
H33_2 H 0.468238 0.417813 0.95475
H34_2 H 0.479922 0.3173 0.942347
C10_2 C 0.7952(8) 0.9781(5) 0.1835(3)
H6_2 H 0.8361 0.9365 0.1991
H7_2 H 0.8172 0.9735 0.1561
H8_2 H 0.7177 0.9659 0.1857
Cu3_2 Cu 0.50531(12) 0.0000 0.7500
S1_3 S 0.38048(15) 0.12868(13) 0.80932(7)
C4_3 C 0.2894(7) 0.0463(5) 0.8062(3)
C5_3 C 0.1884(7) 0.0755(6) 0.7988(3)
H4_3 H 0.1271 0.0390 0.7958
C6_3 C 0.1842(7) 0.1666(5) 0.7960(3)
H5_3 H 0.1196 0.1981 0.7914
C7_3 C 0.2825(7) 0.2039(5) 0.8005(3)
C8_3 C 0.3142(7) 0.2942(5) 0.7955(3)
C9_3 C 0.3172(7) 0.4338(5) 0.8023(3)
C10_3 C 0.2952(8) 0.5219(5) 0.8165(3)
H6_3 H 0.3361 0.5635 0.8009
H7_3 H 0.3172 0.5265 0.8439
H8_3 H 0.2177 0.5341 0.8143
C17_3 C 0.1921(8) 0.0275(5) 0.9509(2)
C18_3 C 0.1975(7) 0.3537(5) 0.8488(2)
C19_3 C 0.0938(7) 0.3878(5) 0.8468(3)
H13_3 H 0.0682 0.4145 0.8236
C20_3 C 0.0292(8) 0.3818(6) 0.8792(3)
C21_3 C 0.0634(7) 0.3402(6) 0.9129(3)
H15_3 H 0.0166 0.3352 0.9347
C22_3 C 0.1676(7) 0.3057(5) 0.9141(3)
C23_3 C 0.2347(8) 0.3123(5) 0.8815(2)
H16_3 H 0.3055 0.2884 0.8819
C24_3 C 0.2022(8) 0.2535(7) 0.9482(2)
N4_3 N 0.2685(5) 0.3617(4) 0.81557(18)
N5_2 N 0.3900(6) 0.3230(4) 0.77179(19)
N6_2 N 0.3912(6) 0.4125(4) 0.7757(2)
O1_3 O 0.1188(5) 0.0551(4) 0.97421(19)
O3_3 O 0.1333(5) 0.2327(4) 0.97363(18)
Cu8_3 Cu 0.5000 0.2500 0.73998(4)
Cu11_3 Cu 0.49469(12) 0.5000 0.7500
N13_3 N 0.4083(6) 0.0730(4) 0.7140(2)
N16_2 N 0.6088(6) 0.0875(4) 0.7757(2)
Cu2_3 Cu 0.5000 0.7500 0.76002(4)
Cu3_3 Cu 0.50531(12) 1.0000 0.7500
C1_3 C 0.3152(10) 0.7315(5) 0.8332(4)
H1_3 H 0.3775 0.6940 0.8284
H2_3 H 0.2510 0.7073 0.8205
H3_3 H 0.3023 0.7358 0.8613
C2_3 C 0.3373(8) 0.8186(5) 0.8172(3)
C3_3 C 0.3256(7) 0.9571(5) 0.8068(3)
C11_3 C 0.2022(7) 0.9019(5) 0.8582(2)
C12_3 C 0.1009(7) 0.8627(6) 0.8564(3)
H9_3 H 0.0809 0.8285 0.8346
C13_3 C 0.0295(7) 0.8750(7) 0.8875(3)
C14_3 C 0.0579(8) 0.9287(6) 0.9185(3)
H11_3 H 0.0073 0.9391 0.9388
C15_3 C 0.1612(8) 0.9679(5) 0.9199(2)
C16_3 C 0.2307(7) 0.9536(4) 0.8891(2)
H12_3 H 0.3000 0.9801 0.8893
N1_3 N 0.2795(6) 0.8911(4) 0.8270(2)
N2_3 N 0.4133(6) 0.8381(4) 0.7922(2)
N3_2 N 0.4083(6) 0.9270(4) 0.7860(2)
S2_3 S 0.61952(15) 0.37132(13) 0.80932(7)
C25_3 C 0.6848(10) 0.7685(5) 0.8332(4)
H17_3 H 0.6225 0.8060 0.8284
H18_3 H 0.7490 0.7927 0.8205
H19_3 H 0.6977 0.7642 0.8613
C26_3 C 0.6627(8) 0.6814(5) 0.8172(3)
C27_3 C 0.6744(7) 0.5429(5) 0.8068(3)
C28_3 C 0.7106(7) 0.4537(5) 0.8062(3)
C29_3 C 0.8116(7) 0.4245(6) 0.7988(3)
H20_3 H 0.8729 0.4610 0.7958
C30_3 C 0.8158(7) 0.3334(5) 0.7960(3)
H21_3 H 0.8804 0.3019 0.7914
C31_3 C 0.7175(7) 0.2961(5) 0.8005(3)
C32_3 C 0.6858(7) 0.2058(5) 0.7955(3)
C33_3 C 0.6828(7) 0.0662(5) 0.8023(3)
C35_3 C 0.7978(7) 0.5981(5) 0.8582(2)
C36_3 C 0.8991(7) 0.6373(6) 0.8564(3)
H25_3 H 0.9191 0.6715 0.8346
C37_3 C 0.9705(7) 0.6250(7) 0.8875(3)
C38_3 C 0.9421(8) 0.5713(6) 0.9185(3)
H27_3 H 0.9927 0.5609 0.9388
C39_3 C 0.8388(8) 0.5321(5) 0.9199(2)
C40_3 C 0.7693(7) 0.5464(4) 0.8891(2)
H28_3 H 0.7000 0.5199 0.8893
C41_3 C 0.8079(8) 0.4725(5) 0.9509(2)
C42_3 C 0.8025(7) 0.1463(5) 0.8488(2)
C43_3 C 0.9062(7) 0.1122(5) 0.8468(3)
H29_3 H 0.9318 0.0855 0.8236
C44_3 C 0.9708(8) 0.1182(6) 0.8792(3)
C45_3 C 0.9366(7) 0.1598(6) 0.9129(3)
H31_3 H 0.9834 0.1648 0.9347
C46_3 C 0.8324(7) 0.1943(5) 0.9141(3)
C47_3 C 0.7653(8) 0.1877(5) 0.8815(2)
H32_3 H 0.6945 0.2116 0.8819
C48_3 C 0.7978(8) 0.2465(7) 0.9482(2)
N7_3 N 0.7205(6) 0.6089(4) 0.8270(2)
N8_3 N 0.5867(6) 0.6619(4) 0.7922(2)
N9_2 N 0.5917(6) 0.5730(4) 0.7860(2)
N10_3 N 0.7315(5) 0.1383(4) 0.81557(18)
N11_2 N 0.6100(6) 0.1770(4) 0.77179(19)
O6_3 O 0.8812(5) 0.4449(4) 0.97421(19)
O8_3 O 0.8667(5) 0.2673(4) 0.97363(18)
N14_2 N 0.3900(6) 0.6770(4) 0.72821(19)
N15_2 N 0.6100(6) 0.8230(4) 0.72821(19)
N17_3 N 0.6088(6) 0.9125(4) 0.7243(2)
C34_3 C 0.7048(8) 0.9781(5) 0.8165(3)
H22_3 H 0.6639 0.9365 0.8009
H23_3 H 0.6828 0.9735 0.8439
H24_3 H 0.7823 0.9659 0.8143
N13_4 N 0.5917(6) 0.4270(4) 0.7140(2)
N17_4 N 0.3912(6) 0.5875(4) 0.7243(2)
C34_4 C 0.7048(8) 0.0219(5) 0.6835(3)
H22_4 H 0.6639 0.0635 0.6991
H23_4 H 0.6828 0.0265 0.6561
H24_4 H 0.7823 0.0341 0.6857
C1_4 C 0.3152(10) 0.2685(5) 0.6668(4)
H1_4 H 0.3775 0.3060 0.6716
H2_4 H 0.2510 0.2927 0.6795
H3_4 H 0.3023 0.2642 0.6387
C2_4 C 0.3373(8) 0.1814(5) 0.6828(3)
C3_4 C 0.3256(7) 0.0429(5) 0.6932(3)
C11_4 C 0.2022(7) 0.0981(5) 0.6418(2)
C12_4 C 0.1009(7) 0.1373(6) 0.6436(3)
H9_4 H 0.0809 0.1715 0.6654
C13_4 C 0.0295(7) 0.1250(7) 0.6125(3)
C14_4 C 0.0579(8) 0.0713(6) 0.5815(3)
H11_4 H 0.0073 0.0609 0.5612
C15_4 C 0.1612(8) 0.0321(5) 0.5801(2)
C16_4 C 0.2307(7) 0.0464(4) 0.6109(2)
H12_4 H 0.3000 0.0199 0.6107
N1_4 N 0.2795(6) 0.1089(4) 0.6730(2)
N2_4 N 0.4133(6) 0.1619(4) 0.7078(2)
S2_4 S 0.61952(15) 0.62868(13) 0.69068(7)
C25_4 C 0.6848(10) 0.2315(5) 0.6668(4)
H17_4 H 0.6225 0.1940 0.6716
H18_4 H 0.7490 0.2073 0.6795
H19_4 H 0.6977 0.2358 0.6387
C26_4 C 0.6627(8) 0.3186(5) 0.6828(3)
C27_4 C 0.6744(7) 0.4571(5) 0.6932(3)
C28_4 C 0.7106(7) 0.5463(5) 0.6938(3)
C29_4 C 0.8116(7) 0.5755(6) 0.7012(3)
H20_4 H 0.8729 0.5390 0.7042
C30_4 C 0.8158(7) 0.6666(5) 0.7040(3)
H21_4 H 0.8804 0.6981 0.7086
C31_4 C 0.7175(7) 0.7039(5) 0.6995(3)
C32_4 C 0.6858(7) 0.7942(5) 0.7045(3)
C33_4 C 0.6828(7) 0.9338(5) 0.6977(3)
C35_4 C 0.7978(7) 0.4019(5) 0.6418(2)
C36_4 C 0.8991(7) 0.3627(6) 0.6436(3)
H25_4 H 0.9191 0.3285 0.6654
C37_4 C 0.9705(7) 0.3750(7) 0.6125(3)
C38_4 C 0.9421(8) 0.4287(6) 0.5815(3)
H27_4 H 0.9927 0.4391 0.5612
C39_4 C 0.8388(8) 0.4679(5) 0.5801(2)
C40_4 C 0.7693(7) 0.4536(4) 0.6109(2)
H28_4 H 0.7000 0.4801 0.6107
C41_4 C 0.8079(8) 0.5275(5) 0.5491(2)
C42_4 C 0.8025(7) 0.8537(5) 0.6512(2)
C43_4 C 0.9062(7) 0.8878(5) 0.6532(3)
H29_4 H 0.9318 0.9145 0.6764
C44_4 C 0.9708(8) 0.8818(6) 0.6208(3)
C45_4 C 0.9366(7) 0.8402(6) 0.5871(3)
H31_4 H 0.9834 0.8352 0.5653
C46_4 C 0.8324(7) 0.8057(5) 0.5859(3)
C47_4 C 0.7653(8) 0.8123(5) 0.6185(2)
H32_4 H 0.6945 0.7884 0.6181
C48_4 C 0.7978(8) 0.7535(7) 0.5518(2)
N7_4 N 0.7205(6) 0.3911(4) 0.6730(2)
N8_4 N 0.5867(6) 0.3381(4) 0.7078(2)
N10_4 N 0.7315(5) 0.8617(4) 0.68443(18)
O6_4 O 0.8812(5) 0.5551(4) 0.52579(19)
O8_4 O 0.8667(5) 0.7327(4) 0.52637(18)
S1_4 S 0.38048(15) 0.87132(13) 0.69068(7)
C4_4 C 0.2894(7) 0.9537(5) 0.6938(3)
C5_4 C 0.1884(7) 0.9245(6) 0.7012(3)
H4_4 H 0.1271 0.9610 0.7042
C6_4 C 0.1842(7) 0.8334(5) 0.7040(3)
H5_4 H 0.1196 0.8019 0.7086
C7_4 C 0.2825(7) 0.7961(5) 0.6995(3)
C8_4 C 0.3142(7) 0.7058(5) 0.7045(3)
C9_4 C 0.3172(7) 0.5662(5) 0.6977(3)
C10_4 C 0.2952(8) 0.4781(5) 0.6835(3)
H6_4 H 0.3361 0.4365 0.6991
H7_4 H 0.3172 0.4735 0.6561
H8_4 H 0.2177 0.4659 0.6857
C17_4 C 0.1921(8) 0.9725(5) 0.5491(2)
C18_4 C 0.1975(7) 0.6463(5) 0.6512(2)
C19_4 C 0.0938(7) 0.6122(5) 0.6532(3)
H13_4 H 0.0682 0.5855 0.6764
C20_4 C 0.0292(8) 0.6182(6) 0.6208(3)
C21_4 C 0.0634(7) 0.6598(6) 0.5871(3)
H15_4 H 0.0166 0.6648 0.5653
C22_4 C 0.1676(7) 0.6943(5) 0.5859(3)
C23_4 C 0.2347(8) 0.6877(5) 0.6185(2)
H16_4 H 0.3055 0.7116 0.6181
C24_4 C 0.2022(8) 0.7465(7) 0.5518(2)
N4_4 N 0.2685(5) 0.6383(4) 0.68443(18)
O1_4 O 0.1188(5) 0.9449(4) 0.52579(19)
O3_4 O 0.1333(5) 0.7673(4) 0.52637(18)
O10_3 O 0.0137(5) 0.3590(5) 0.0358(2)
H35_3 H 0.0317619 0.417813 0.0452498
H36_3 H 0.0200781 0.3173 0.057653
H26_3 H 0.0387 0.6533 0.8875
H30_3 H 0.0409 0.0931 0.8787
O5_3 O 0.9863(5) 0.1410(5) 0.0358(2)
H33_3 H 0.968238 0.0821871 0.0452498
H34_3 H 0.979922 0.1827 0.057653
H14_3 H 0.9591 0.4069 0.8787
H10_3 H 0.9613 0.8467 0.8875
H26_4 H 0.0387 0.3467 0.6125
H30_4 H 0.0409 0.9069 0.6213
O10_4 O 0.0137(5) 0.6410(5) 0.4642(2)
H35_4 H 0.0317619 0.582187 0.45475
H36_4 H 0.0200781 0.6827 0.442347
H10_4 H 0.9613 0.1533 0.6125
H14_4 H 0.9591 0.5931 0.6213
O5_4 O 0.9863(5) 0.8590(5) 0.4642(2)
H33_4 H 0.968238 0.917813 0.45475
H34_4 H 0.979922 0.8173 0.442347
Cl1 Cl 0.5668(3) 0.0000 0.2500
Cl1_2 Cl 0.5668(3) 1.0000 0.2500
Cl1_3 Cl 0.4332(3) 0.5000 0.2500
Cl1_4 Cl 0.0668(3) 0.5000 0.7500
Cl1_5 Cl 0.9332(3) 0.0000 0.7500
Cl1_6 Cl 0.9332(3) 1.0000 0.7500
loop_
_geom_bond_atom_site_label_1
_geom_bond_atom_site_label_2
_geom_bond_site_symmetry_1
_geom_bond_site_symmetry_2
C25 H17 1_555 1_555
H18 C25 1_555 1_555
H19 C25 1_555 1_555
C26 C25 1_555 1_555
C35 C36 1_555 1_555
C36 H25 1_555 1_555
C37 C36 1_555 1_555
H26 C37 1_555 1_555
C38 C37 1_555 1_555
H27 C38 1_555 1_555
C39 C38 1_555 1_555
C40 C35 1_555 1_555
H28 C40 1_555 1_555
N7 C26 1_555 1_555
N8 Cu2 1_555 1_555
N9 C27 1_555 1_555
N15 Cu2 1_555 1_555
N16 Cu3 1_555 1_555
N17 Cu3 1_555 1_555
C26 N8 1_555 1_555
C27 N7 1_555 1_555
C35 N7 1_555 1_555
C39 C40 1_555 1_555
N8 N9 1_555 1_555
N15 N17 1_555 1_555
Cu4 O6 1_555 1_555
S2 C28 1_555 1_555
C28 C29 1_555 1_555
C29 H20 1_555 1_555
C30 C29 1_555 1_555
H21 C30 1_555 1_555
C31 S2 1_555 1_555
C32 C31 1_555 1_555
C33 C34 1_555 1_555
C34 H22 1_555 1_555
H23 C34 1_555 1_555
H24 C34 1_555 1_555
C42 C43 1_555 1_555
C43 H29 1_555 1_555
C44 C43 1_555 1_555
H30 C44 1_555 1_555
C45 C44 1_555 1_555
H31 C45 1_555 1_555
C46 C45 1_555 1_555
C47 C42 1_555 1_555
H32 C47 1_555 1_555
C48 C46 1_555 1_555
N10 C32 1_555 1_555
N11 C32 1_555 1_555
N16 C33 1_555 1_555
O6 C41 1_555 1_555
O7 C41 1_555 1_555
O8 Cu4 1_555 1_555
O9 C48 1_555 1_555
O10 Cu4 1_555 1_555
Cu5 O7 1_555 1_555
Cu8 N11 1_555 1_555
O11 Cu4 1_555 1_555
O13 Cu4 1_555 1_555
C30 C31 1_555 1_555
C33 N10 1_555 1_555
C42 N10 1_555 1_555
C46 C47 1_555 1_555
C48 O8 1_555 1_555
N11 N16 1_555 1_555
O9 Cu5 1_555 1_555
O10 H35 1_555 1_555
O10 H36 1_555 1_555
C10 H6 1_555 1_555
H7 C10 1_555 1_555
H8 C10 1_555 1_555
Cu1 O1 1_555 1_555
Cu2_2 N2 1_555 1_555
S1 C4 1_555 1_555
C1 H1 1_555 1_555
H2 C1 1_555 1_555
H3 C1 1_555 1_555
C2 C1 1_555 1_555
C3 C4 1_555 1_555
C4 C5 1_555 1_555
C5 H4 1_555 1_555
C6 C5 1_555 1_555
H5 C6 1_555 1_555
C7 S1 1_555 1_555
C8 C7 1_555 1_555
C11 C12 1_555 1_555
C12 H9 1_555 1_555
C13 C12 1_555 1_555
H10 C13 1_555 1_555
C14 C13 1_555 1_555
H11 C14 1_555 1_555
C15 C14 1_555 1_555
C16 C11 1_555 1_555
H12 C16 1_555 1_555
C17 C15 1_555 1_555
C18 C19 1_555 1_555
C19 H13 1_555 1_555
C20 C19 1_555 1_555
H14 C20 1_555 1_555
C21 C20 1_555 1_555
H15 C21 1_555 1_555
C22 C21 1_555 1_555
C23 C18 1_555 1_555
H16 C23 1_555 1_555
C24 C22 1_555 1_555
N1 C2 1_555 1_555
N2 C2 1_555 1_555
N3 C3 1_555 1_555
N4 C8 1_555 1_555
N5 C8 1_555 1_555
N6 C9 1_555 1_555
O1 C17 1_555 1_555
O2 C17 1_555 1_555
O3 Cu1 1_555 1_555
O4 C24 1_555 1_555
O5 Cu1 1_555 1_555
Cu6 O2 1_555 1_555
Cu8_2 N5 1_555 1_555
Cu11_2 N6 1_555 1_555
N14 Cu2_2 1_555 1_555
O12 Cu1 1_555 1_555
O14 Cu1 1_555 1_555
C3 N1 1_555 1_555
C6 C7 1_555 1_555
C9 N4 1_555 1_555
C11 N1 1_555 1_555
C15 C16 1_555 1_555
C18 N4 1_555 1_555
C22 C23 1_555 1_555
C24 O3 1_555 1_555
N2 N3 1_555 1_555
N5 N6 1_555 1_555
O4 Cu6 1_555 1_555
O5 H33 1_555 1_555
O5 H34 1_555 1_555
N17_2 Cu11 1_555 1_555
N14 N17_2 1_555 1_555
S2_2 C28_2 1_555 1_555
C28_2 C29_2 1_555 1_555
C29_2 H20_2 1_555 1_555
C30_2 C29_2 1_555 1_555
H21_2 C30_2 1_555 1_555
C31_2 S2_2 1_555 1_555
C32_2 C31_2 1_555 1_555
C33_2 C34_2 1_555 1_555
C34_2 H22_2 1_555 1_555
H23_2 C34_2 1_555 1_555
H24_2 C34_2 1_555 1_555
C42_2 C43_2 1_555 1_555
C43_2 H29_2 1_555 1_555
C44_2 C43_2 1_555 1_555
H30_2 C44_2 1_555 1_555
C45_2 C44_2 1_555 1_555
H31_2 C45_2 1_555 1_555
C46_2 C45_2 1_555 1_555
C47_2 C42_2 1_555 1_555
H32_2 C47_2 1_555 1_555
C48_2 C46_2 1_555 1_555
N10_2 C32_2 1_555 1_555
N15 C32_2 1_555 1_555
N17 C33_2 1_555 1_555
O6_2 C41_2 1_555 1_555
O7_2 C41_2 1_555 1_555
O9_2 C48_2 1_555 1_555
Cu5_2 O7_2 1_555 1_555
C30_2 C31_2 1_555 1_555
C33_2 N10_2 1_555 1_555
C42_2 N10_2 1_555 1_555
C46_2 C47_2 1_555 1_555
C48_2 O8_2 1_555 1_555
O9_2 Cu5_2 1_555 1_555
O10_2 Cu4_2 1_555 1_555
O11_2 Cu4_2 1_555 1_555
O13_2 Cu4_2 1_555 1_555
O10_2 H35_2 1_555 1_555
O10_2 H36_2 1_555 1_555
C25_2 H17_2 1_555 1_555
H18_2 C25_2 1_555 1_555
H19_2 C25_2 1_555 1_555
C26_2 C25_2 1_555 1_555
C35_2 C36_2 1_555 1_555
C36_2 H25_2 1_555 1_555
C37_2 C36_2 1_555 1_555
H26_2 C37_2 1_555 1_555
C38_2 C37_2 1_555 1_555
H27_2 C38_2 1_555 1_555
C39_2 C38_2 1_555 1_555
C40_2 C35_2 1_555 1_555
H28_2 C40_2 1_555 1_555
N7_2 C26_2 1_555 1_555
N8_2 Cu8 1_555 1_555
N13_2 C27_2 1_555 1_555
C26_2 N8_2 1_555 1_555
C27_2 N7_2 1_555 1_555
C35_2 N7_2 1_555 1_555
C39_2 C40_2 1_555 1_555
N8_2 N13_2 1_555 1_555
Cu8_2 N2_2 1_555 1_555
S1_2 C4_2 1_555 1_555
C1_2 H1_2 1_555 1_555
H2_2 C1_2 1_555 1_555
H3_2 C1_2 1_555 1_555
C2_2 C1_2 1_555 1_555
C3_2 C4_2 1_555 1_555
C4_2 C5_2 1_555 1_555
C5_2 H4_2 1_555 1_555
C6_2 C5_2 1_555 1_555
H5_2 C6_2 1_555 1_555
C7_2 S1_2 1_555 1_555
C8_2 C7_2 1_555 1_555
C11_2 C12_2 1_555 1_555
C12_2 H9_2 1_555 1_555
C13_2 C12_2 1_555 1_555
H10_2 C13_2 1_555 1_555
C14_2 C13_2 1_555 1_555
H11_2 C14_2 1_555 1_555
C15_2 C14_2 1_555 1_555
C16_2 C11_2 1_555 1_555
H12_2 C16_2 1_555 1_555
C17_2 C15_2 1_555 1_555
C18_2 C19_2 1_555 1_555
C19_2 H13_2 1_555 1_555
C20_2 C19_2 1_555 1_555
H14_2 C20_2 1_555 1_555
C21_2 C20_2 1_555 1_555
H15_2 C21_2 1_555 1_555
C22_2 C21_2 1_555 1_555
C23_2 C18_2 1_555 1_555
H16_2 C23_2 1_555 1_555
C24_2 C22_2 1_555 1_555
N1_2 C2_2 1_555 1_555
N2_2 C2_2 1_555 1_555
N13 C3_2 1_555 1_555
N4_2 C8_2 1_555 1_555
N14 C8_2 1_555 1_555
N17_2 C9_2 1_555 1_555
O1_2 C17_2 1_555 1_555
O2_2 C17_2 1_555 1_555
O4_2 C24_2 1_555 1_555
Cu6_2 O2_2 1_555 1_555
C3_2 N1_2 1_555 1_555
C6_2 C7_2 1_555 1_555
C9_2 N4_2 1_555 1_555
C11_2 N1_2 1_555 1_555
C15_2 C16_2 1_555 1_555
C18_2 N4_2 1_555 1_555
C22_2 C23_2 1_555 1_555
C24_2 O3_2 1_555 1_555
N2_2 N13 1_555 1_555
O4_2 Cu6_2 1_555 1_555
O5_2 Cu1_2 1_555 1_555
O12_2 Cu1_2 1_555 1_555
O14_2 Cu1_2 1_555 1_555
O5_2 H33_2 1_555 1_555
O5_2 H34_2 1_555 1_555
C10_2 H6_2 1_555 1_555
H7_2 C10_2 1_555 1_555
H8_2 C10_2 1_555 1_555
S1_3 C4_3 1_555 1_555
C4_3 C5_3 1_555 1_555
C5_3 H4_3 1_555 1_555
C6_3 C5_3 1_555 1_555
H5_3 C6_3 1_555 1_555
C7_3 S1_3 1_555 1_555
C8_3 C7_3 1_555 1_555
C9_3 C10_3 1_555 1_555
C10_3 H6_3 1_555 1_555
H7_3 C10_3 1_555 1_555
H8_3 C10_3 1_555 1_555
C18_3 C19_3 1_555 1_555
C19_3 H13_3 1_555 1_555
C20_3 C19_3 1_555 1_555
C21_3 C20_3 1_555 1_555
H15_3 C21_3 1_555 1_555
C22_3 C21_3 1_555 1_555
C23_3 C18_3 1_555 1_555
H16_3 C23_3 1_555 1_555
C24_3 C22_3 1_555 1_555
N4_3 C8_3 1_555 1_555
N5_2 C8_3 1_555 1_555
N6_2 C9_3 1_555 1_555
O1_3 C17_3 1_555 1_555
O11_2 C17_3 1_555 1_555
O13_2 C24_3 1_555 1_555
Cu8_3 N5_2 1_555 1_555
Cu11_3 N6_2 1_555 1_555
N13_3 Cu3_2 1_555 1_555
N16_2 Cu3_2 1_555 1_555
C6_3 C7_3 1_555 1_555
C9_3 N4_3 1_555 1_555
C18_3 N4_3 1_555 1_555
C22_3 C23_3 1_555 1_555
C24_3 O3_3 1_555 1_555
N5_2 N6_2 1_555 1_555
Cu2_3 N2_3 1_555 1_555
Cu3_3 N3_2 1_555 1_555
C1_3 H1_3 1_555 1_555
H2_3 C1_3 1_555 1_555
H3_3 C1_3 1_555 1_555
C2_3 C1_3 1_555 1_555
C11_3 C12_3 1_555 1_555
C12_3 H9_3 1_555 1_555
C13_3 C12_3 1_555 1_555
C14_3 C13_3 1_555 1_555
H11_3 C14_3 1_555 1_555
C15_3 C14_3 1_555 1_555
C16_3 C11_3 1_555 1_555
H12_3 C16_3 1_555 1_555
N1_3 C2_3 1_555 1_555
N2_3 C2_3 1_555 1_555
N3_2 C3_3 1_555 1_555
S2_3 C28_3 1_555 1_555
C25_3 H17_3 1_555 1_555
H18_3 C25_3 1_555 1_555
H19_3 C25_3 1_555 1_555
C26_3 C25_3 1_555 1_555
C27_3 C28_3 1_555 1_555
C28_3 C29_3 1_555 1_555
C29_3 H20_3 1_555 1_555
C30_3 C29_3 1_555 1_555
H21_3 C30_3 1_555 1_555
C31_3 S2_3 1_555 1_555
C32_3 C31_3 1_555 1_555
C35_3 C36_3 1_555 1_555
C36_3 H25_3 1_555 1_555
C37_3 C36_3 1_555 1_555
C38_3 C37_3 1_555 1_555
H27_3 C38_3 1_555 1_555
C39_3 C38_3 1_555 1_555
C40_3 C35_3 1_555 1_555
H28_3 C40_3 1_555 1_555
C41_3 C39_3 1_555 1_555
C42_3 C43_3 1_555 1_555
C43_3 H29_3 1_555 1_555
C44_3 C43_3 1_555 1_555
C45_3 C44_3 1_555 1_555
H31_3 C45_3 1_555 1_555
C46_3 C45_3 1_555 1_555
C47_3 C42_3 1_555 1_555
H32_3 C47_3 1_555 1_555
C48_3 C46_3 1_555 1_555
N7_3 C26_3 1_555 1_555
N8_3 Cu2_3 1_555 1_555
N9_2 C27_3 1_555 1_555
N10_3 C32_3 1_555 1_555
N11_2 C32_3 1_555 1_555
N16_2 C33_3 1_555 1_555
O6_3 C41_3 1_555 1_555
O12_2 C41_3 1_555 1_555
O14_2 C48_3 1_555 1_555
Cu8_3 N11_2 1_555 1_555
Cu11_3 N9_2 1_555 1_555
N14_2 Cu2_3 1_555 1_555
N15_2 Cu2_3 1_555 1_555
N17_3 Cu3_3 1_555 1_555
C3_3 N1_3 1_555 1_555
C11_3 N1_3 1_555 1_555
C15_3 C16_3 1_555 1_555
N2_3 N3_2 1_555 1_555
C26_3 N8_3 1_555 1_555
C27_3 N7_3 1_555 1_555
C30_3 C31_3 1_555 1_555
C33_3 N10_3 1_555 1_555
C35_3 N7_3 1_555 1_555
C39_3 C40_3 1_555 1_555
C42_3 N10_3 1_555 1_555
C46_3 C47_3 1_555 1_555
C48_3 O8_3 1_555 1_555
N8_3 N9_2 1_555 1_555
N11_2 N16_2 1_555 1_555
N15_2 N17_3 1_555 1_555
C34_3 H22_3 1_555 1_555
H23_3 C34_3 1_555 1_555
H24_3 C34_3 1_555 1_555
N13_4 Cu11_3 1_555 1_555
N17_4 Cu11_3 1_555 1_555
N14_2 N17_4 1_555 1_555
C34_4 H22_4 1_555 1_555
H23_4 C34_4 1_555 1_555
H24_4 C34_4 1_555 1_555
Cu8_3 N2_4 1_555 1_555
C1_4 H1_4 1_555 1_555
H2_4 C1_4 1_555 1_555
H3_4 C1_4 1_555 1_555
C2_4 C1_4 1_555 1_555
C11_4 C12_4 1_555 1_555
C12_4 H9_4 1_555 1_555
C13_4 C12_4 1_555 1_555
C14_4 C13_4 1_555 1_555
H11_4 C14_4 1_555 1_555
C15_4 C14_4 1_555 1_555
C16_4 C11_4 1_555 1_555
H12_4 C16_4 1_555 1_555
N1_4 C2_4 1_555 1_555
N2_4 C2_4 1_555 1_555
N13_3 C3_4 1_555 1_555
Cu6 O6_4 1_555 1_555
S2_4 C28_4 1_555 1_555
C25_4 H17_4 1_555 1_555
H18_4 C25_4 1_555 1_555
H19_4 C25_4 1_555 1_555
C26_4 C25_4 1_555 1_555
C27_4 C28_4 1_555 1_555
C28_4 C29_4 1_555 1_555
C29_4 H20_4 1_555 1_555
C30_4 C29_4 1_555 1_555
H21_4 C30_4 1_555 1_555
C31_4 S2_4 1_555 1_555
C32_4 C31_4 1_555 1_555
C35_4 C36_4 1_555 1_555
C36_4 H25_4 1_555 1_555
C37_4 C36_4 1_555 1_555
C38_4 C37_4 1_555 1_555
H27_4 C38_4 1_555 1_555
C39_4 C38_4 1_555 1_555
C40_4 C35_4 1_555 1_555
H28_4 C40_4 1_555 1_555
C41_4 C39_4 1_555 1_555
C42_4 C43_4 1_555 1_555
C43_4 H29_4 1_555 1_555
C44_4 C43_4 1_555 1_555
C45_4 C44_4 1_555 1_555
H31_4 C45_4 1_555 1_555
C46_4 C45_4 1_555 1_555
C47_4 C42_4 1_555 1_555
H32_4 C47_4 1_555 1_555
C48_4 C46_4 1_555 1_555
N7_4 C26_4 1_555 1_555
N8_4 Cu8_3 1_555 1_555
N13_4 C27_4 1_555 1_555
N10_4 C32_4 1_555 1_555
N15_2 C32_4 1_555 1_555
N17_3 C33_4 1_555 1_555
O6_4 C41_4 1_555 1_555
O12 C41_4 1_555 1_555
O8_4 Cu6 1_555 1_555
O14 C48_4 1_555 1_555
C3_4 N1_4 1_555 1_555
C11_4 N1_4 1_555 1_555
C15_4 C16_4 1_555 1_555
N2_4 N13_3 1_555 1_555
C26_4 N8_4 1_555 1_555
C27_4 N7_4 1_555 1_555
C30_4 C31_4 1_555 1_555
C33_4 N10_4 1_555 1_555
C35_4 N7_4 1_555 1_555
C39_4 C40_4 1_555 1_555
C42_4 N10_4 1_555 1_555
C46_4 C47_4 1_555 1_555
C48_4 O8_4 1_555 1_555
N8_4 N13_4 1_555 1_555
Cu5 O1_4 1_555 1_555
S1_4 C4_4 1_555 1_555
C4_4 C5_4 1_555 1_555
C5_4 H4_4 1_555 1_555
C6_4 C5_4 1_555 1_555
H5_4 C6_4 1_555 1_555
C7_4 S1_4 1_555 1_555
C8_4 C7_4 1_555 1_555
C9_4 C10_4 1_555 1_555
C10_4 H6_4 1_555 1_555
H7_4 C10_4 1_555 1_555
H8_4 C10_4 1_555 1_555
C18_4 C19_4 1_555 1_555
C19_4 H13_4 1_555 1_555
C20_4 C19_4 1_555 1_555
C21_4 C20_4 1_555 1_555
H15_4 C21_4 1_555 1_555
C22_4 C21_4 1_555 1_555
C23_4 C18_4 1_555 1_555
H16_4 C23_4 1_555 1_555
C24_4 C22_4 1_555 1_555
N4_4 C8_4 1_555 1_555
N14_2 C8_4 1_555 1_555
N17_4 C9_4 1_555 1_555
O1_4 C17_4 1_555 1_555
O11 C17_4 1_555 1_555
O3_4 Cu5 1_555 1_555
O13 C24_4 1_555 1_555
C6_4 C7_4 1_555 1_555
C9_4 N4_4 1_555 1_555
C18_4 N4_4 1_555 1_555
C22_4 C23_4 1_555 1_555
C24_4 O3_4 1_555 1_555
O10_3 H35_3 1_555 1_555
O10_3 H36_3 1_555 1_555
O5_3 H33_3 1_555 1_555
O5_3 H34_3 1_555 1_555
O10_4 H35_4 1_555 1_555
O10_4 H36_4 1_555 1_555
O5_4 H33_4 1_555 1_555
O5_4 H34_4 1_555 1_555

#END
