
###############################################################################
#
# This file contains modified crystal structure data generated from the
# MOF subset of the Cambridge Structural Database (CSD) v543 
# hosted by the Cambridge Crystallographic Data Centre (CCDC).
#
# This work is licensed under the Creative Commons
# Attribution-NonCommercial-ShareAlike 4.0 International License.
# To view a copy of this license, visit
# http://creativecommons.org/licenses/by-nc-sa/4.0/
# or send a letter to
# Creative Commons, PO Box 1866, Mountain View, CA 94042, USA.
#
# CIF created using the CSD Python API on 29 September 2022
# The structure has been converted into the P1 space group
# The structure has a 3D framework
# The original CSD entry GUJVOX is in the triclinic crystal system
# The framework has been calculated to contain at least 10.0% void space
# The void calculation uses a probe of radius 1.32A, grid spacing 0.4
#
###############################################################################

data_GUJVOX
_chemical_formula_moiety         '(C30 H34 Mn9 N18 O10 S2)n'
_symmetry_cell_setting           triclinic
_symmetry_space_group_name_H-M   'P 1'
_symmetry_Int_Tables_number      1
_space_group_name_Hall           'P 1'
loop_
_symmetry_equiv_pos_site_id
_symmetry_equiv_pos_as_xyz
1 x,y,z
_cell_length_a                   9.241(2)
_cell_length_b                   11.245(2)
_cell_length_c                   11.845(3)
_cell_angle_alpha                78.970(4)
_cell_angle_beta                 74.580(4)
_cell_angle_gamma                87.609(4)
_cell_volume                     1164.59
loop_
_atom_site_label
_atom_site_type_symbol
_atom_site_fract_x
_atom_site_fract_y
_atom_site_fract_z
H8 H 0.0138 0.2900 0.3859
Mn3 Mn 0.0000 0.0000 0.5000
Mn3_2 Mn 0.0000 1.0000 0.5000
Mn1 Mn -0.0000 0.0000 0.0000
O1 O 0.1227(6) 0.0798(4) 0.3224(4)
O2 O 0.1456(7) 0.2459(5) 0.1640(5)
O3 O 0.0350(5) 0.0607(4) 0.1548(4)
O4 O 0.2977(7) 0.0758(7) 0.1358(6)
S1 S 0.14982(18) 0.11407(15) 0.19423(14)
C1 C 0.3497(6) 0.9222(5) 0.4491(5)
H1 H 0.3551 0.9465 0.3685
C2 C 0.2668(6) 0.8964(4) 0.6347(5)
H2 H 0.2070 0.8962 0.7115
C3 C 0.4871(7) 0.7805(5) 0.6890(6)
H3 H 0.4340 0.7856 0.7703
H4 H 0.5844 0.8194 0.6714
C4 C 0.5098(6) 0.6480(4) 0.6787(4)
C5 C 0.6390(6) 0.5922(5) 0.7003(5)
H5 H 0.7102 0.6366 0.7178
C6 C 0.6624(6) 0.4692(5) 0.6959(5)
C7 C 0.8065(7) 0.4115(5) 0.7178(5)
H6 H 0.8773 0.4747 0.7132
H7 H 0.7849 0.3629 0.7975
C8 C 0.9751(7) 0.2867(5) 0.4674(6)
C9 C 0.9154(7) 0.2195(5) 0.6506(6)
H9 H 0.8997 0.1697 0.7252
C10 C 0.5565(6) 0.4030(5) 0.6713(5)
H10 H 0.5719 0.3211 0.6691
C11 C 0.4056(6) 0.5815(5) 0.6514(4)
H11 H 0.3208 0.6195 0.6337
C12 C 0.4259(6) 0.4583(4) 0.6498(4)
C13 C 0.3086(6) 0.3830(5) 0.6230(5)
H12 H 0.2473 0.4363 0.5804
H13 H 0.3589 0.3271 0.5725
C14 C 0.0594(7) 0.2855(6) 0.8994(5)
C15 C 0.1974(6) 0.1974(5) 0.7732(5)
H15 H 0.2481 0.1391 0.7318
Mn1_2 Mn -0.0000 0.0000 1.0000
N1 N 0.4026(5) 0.8456(4) 0.6083(4)
N2 N 0.4589(5) 0.8607(4) 0.4875(4)
N3 N 0.2301(5) 0.9468(4) 0.5357(4)
N4 N 0.8748(5) 0.3348(4) 0.6311(4)
N5 N 0.9103(6) 0.3804(4) 0.5112(5)
N6 N 0.9817(5) 0.1860(4) 0.5475(4)
N7 N 0.2130(5) 0.3154(4) 0.7334(4)
N8 N 0.1228(6) 0.3748(4) 0.8143(4)
N9 N 0.1004(6) 0.1729(4) 0.8794(4)
Mn3_3 Mn 1.0000 0.0000 0.5000
Mn1_3 Mn -0.0000 1.0000 0.0000
H17 H 0.1915 0.8721 0.0152
H31 H 0.0092 0.7014 0.0310
N18 N 0.0183(5) 0.8140(4) 0.4525(4)
Mn1_4 Mn -0.0000 1.0000 1.0000
O5 O 0.2277(6) 0.9248(5) 0.9537(5)
H16 H 0.2865 0.9710 0.9711
Mn3_4 Mn 1.0000 1.0000 0.5000
Mn1_5 Mn 1.0000 0.0000 0.0000
N13 N 0.7699(5) 0.0532(4) 0.4643(4)
O11 O 0.7723(6) 0.0752(5) 0.0463(5)
H33 H 0.7135 0.0290 0.0289
H14 H 0.9908 0.2986 0.9690
Mn1_6 Mn 1.0000 0.0000 1.0000
H34 H 0.8085 0.1279 0.9848
Mn1_7 Mn 1.0000 1.0000 0.0000
C16 C 0.6503(6) 0.0778(5) 0.5509(5)
H18 H 0.6449 0.0535 0.6315
C17 C 0.7332(6) 0.1036(4) 0.3653(5)
H19 H 0.7930 0.1038 0.2885
C18 C 0.5129(7) 0.2195(5) 0.3110(6)
H20 H 0.5660 0.2144 0.2297
H21 H 0.4156 0.1806 0.3286
C19 C 0.4902(6) 0.3520(4) 0.3213(4)
C20 C 0.3610(6) 0.4078(5) 0.2997(5)
H22 H 0.2898 0.3634 0.2822
C21 C 0.3376(6) 0.5308(5) 0.3041(5)
C22 C 0.1935(7) 0.5885(5) 0.2822(5)
H23 H 0.1227 0.5253 0.2868
H24 H 0.2151 0.6371 0.2025
C23 C 0.0249(7) 0.7133(5) 0.5326(6)
C24 C 0.0846(7) 0.7805(5) 0.3494(6)
H26 H 0.1003 0.8303 0.2748
C25 C 0.4435(6) 0.5970(5) 0.3287(5)
H27 H 0.4281 0.6789 0.3309
C26 C 0.5944(6) 0.4185(5) 0.3486(4)
H28 H 0.6792 0.3805 0.3663
C27 C 0.5741(6) 0.5417(4) 0.3502(4)
C28 C 0.6914(6) 0.6170(5) 0.3770(5)
H29 H 0.7527 0.5637 0.4196
H30 H 0.6411 0.6729 0.4275
C29 C 0.9406(7) 0.7145(6) 0.1006(5)
C30 C 0.8026(6) 0.8026(5) 0.2268(5)
H32 H 0.7519 0.8609 0.2682
N10 N 0.5974(5) 0.1544(4) 0.3917(4)
N11 N 0.5411(5) 0.1393(4) 0.5125(4)
N15 N 0.1252(5) 0.6652(4) 0.3689(4)
N16 N 0.0897(6) 0.6196(4) 0.4888(5)
N20 N 0.7870(5) 0.6846(4) 0.2666(4)
N21 N 0.8772(6) 0.6252(4) 0.1857(4)
N22 N 0.8996(6) 0.8271(4) 0.1206(4)
O6 O 0.8773(6) 0.9202(4) 0.6776(4)
Mn1_8 Mn 1.0000 1.0000 1.0000
O8 O 0.8544(7) 0.7541(5) 0.8360(5)
O9 O 0.9650(5) 0.9393(4) 0.8452(4)
O10 O 0.7023(7) 0.9242(7) 0.8642(6)
S2 S 0.85018(18) 0.88593(15) 0.80577(14)
H25 H 0.9862 0.7100 0.6141
loop_
_geom_bond_atom_site_label_1
_geom_bond_atom_site_label_2
_geom_bond_site_symmetry_1
_geom_bond_site_symmetry_2
Mn3 O1 1_555 1_555
O1 S1 1_555 1_555
O2 S1 1_555 1_555
O3 Mn1 1_555 1_555
O4 S1 1_555 1_555
S1 O3 1_555 1_555
C1 H1 1_555 1_555
C2 H2 1_555 1_555
C3 H3 1_555 1_555
H4 C3 1_555 1_555
C4 C3 1_555 1_555
C5 C4 1_555 1_555
H5 C5 1_555 1_555
C6 C5 1_555 1_555
C7 C6 1_555 1_555
H6 C7 1_555 1_555
H7 C7 1_555 1_555
C9 H9 1_555 1_555
C10 C6 1_555 1_555
H10 C10 1_555 1_555
C11 C4 1_555 1_555
H11 C11 1_555 1_555
C12 C10 1_555 1_555
C13 C12 1_555 1_555
H12 C13 1_555 1_555
H13 C13 1_555 1_555
C15 H15 1_555 1_555
Mn1_2 N9 1_555 1_555
N1 C2 1_555 1_555
N2 C1 1_555 1_555
N3 C1 1_555 1_555
N4 C7 1_555 1_555
N5 C8 1_555 1_555
N6 C8 1_555 1_555
N7 C13 1_555 1_555
N8 C14 1_555 1_555
N9 C14 1_555 1_555
Mn3_3 N6 1_555 1_555
Mn3_2 N3 1_555 1_555
C2 N3 1_555 1_555
C3 N1 1_555 1_555
C9 N4 1_555 1_555
C9 N6 1_555 1_555
C11 C12 1_555 1_555
C15 N7 1_555 1_555
C15 N9 1_555 1_555
N1 N2 1_555 1_555
N4 N5 1_555 1_555
N7 N8 1_555 1_555
N18 Mn3_2 1_555 1_555
O5 Mn1_4 1_555 1_555
H16 O5 1_555 1_555
N13 Mn3_3 1_555 1_555
O11 Mn1_5 1_555 1_555
H33 O11 1_555 1_555
C16 H18 1_555 1_555
C17 H19 1_555 1_555
C18 H20 1_555 1_555
H21 C18 1_555 1_555
C19 C18 1_555 1_555
C20 C19 1_555 1_555
H22 C20 1_555 1_555
C21 C20 1_555 1_555
C22 C21 1_555 1_555
H23 C22 1_555 1_555
H24 C22 1_555 1_555
C24 H26 1_555 1_555
C25 C21 1_555 1_555
H27 C25 1_555 1_555
C26 C19 1_555 1_555
H28 C26 1_555 1_555
C27 C25 1_555 1_555
C28 C27 1_555 1_555
H29 C28 1_555 1_555
H30 C28 1_555 1_555
C30 H32 1_555 1_555
N10 C17 1_555 1_555
N11 C16 1_555 1_555
N13 C16 1_555 1_555
N15 C22 1_555 1_555
N16 C23 1_555 1_555
N18 C23 1_555 1_555
N20 C28 1_555 1_555
N21 C29 1_555 1_555
N22 Mn1_7 1_555 1_555
O6 Mn3_4 1_555 1_555
C17 N13 1_555 1_555
C18 N10 1_555 1_555
C24 N15 1_555 1_555
C24 N18 1_555 1_555
C26 C27 1_555 1_555
C29 N22 1_555 1_555
C30 N20 1_555 1_555
C30 N22 1_555 1_555
N10 N11 1_555 1_555
N15 N16 1_555 1_555
N20 N21 1_555 1_555
O6 S2 1_555 1_555
O8 S2 1_555 1_555
O9 Mn1_8 1_555 1_555
O10 S2 1_555 1_555
S2 O9 1_555 1_555

#END
