
###############################################################################
#
# This file contains modified crystal structure data generated from the
# MOF subset of the Cambridge Structural Database (CSD) v543 
# hosted by the Cambridge Crystallographic Data Centre (CCDC).
#
# This work is licensed under the Creative Commons
# Attribution-NonCommercial-ShareAlike 4.0 International License.
# To view a copy of this license, visit
# http://creativecommons.org/licenses/by-nc-sa/4.0/
# or send a letter to
# Creative Commons, PO Box 1866, Mountain View, CA 94042, USA.
#
# CIF created using the CSD Python API on 29 September 2022
# The structure has been converted into the P1 space group
# The structure has a 3D framework
# The original CSD entry GUKBUL is in the monoclinic crystal system
# The framework has been calculated to contain at least 10.0% void space
# The void calculation uses a probe of radius 1.32A, grid spacing 0.4
# The framework is charged, counterions have been retained in the structure
# H atom positions have been added when not included in the experimental data
#
###############################################################################

data_GUKBUL
_chemical_formula_moiety         '(C368 H368 Cd24 N112 O128)n'
_symmetry_cell_setting           triclinic
_symmetry_space_group_name_H-M   'P 1'
_symmetry_Int_Tables_number      1
_space_group_name_Hall           'P 1'
loop_
_symmetry_equiv_pos_site_id
_symmetry_equiv_pos_as_xyz
1 x,y,z
_cell_length_a                   46.216(4)
_cell_length_b                   12.3840(11)
_cell_length_c                   31.040(3)
_cell_angle_alpha                90
_cell_angle_beta                 131.459(2)
_cell_angle_gamma                90
_cell_volume                     13313.9
loop_
_atom_site_label
_atom_site_type_symbol
_atom_site_fract_x
_atom_site_fract_y
_atom_site_fract_z
N1 N 0.4832(4) 0.293(2) 0.3651(9)
O1 O 0.4862(5) 0.2052(17) 0.3863(12)
O2 O 0.4761(5) 0.3728(14) 0.3801(7)
O3 O 0.4842(6) 0.294(3) 0.3277(10)
N1_2 N 0.5168(4) 0.293(2) 0.1349(9)
O1_2 O 0.5138(5) 0.2052(17) 0.1137(12)
O2_2 O 0.5239(5) 0.3728(14) 0.1199(7)
O3_2 O 0.5158(6) 0.294(3) 0.1723(10)
N1_3 N 0.9832(4) 0.793(2) 0.3651(9)
O1_3 O 0.9862(5) 0.7052(17) 0.3863(12)
O2_3 O 0.9761(5) 0.8728(14) 0.3801(7)
O3_3 O 0.9842(6) 0.794(3) 0.3277(10)
N1_4 N 0.0168(4) 0.793(2) 0.1349(9)
O1_4 O 0.0138(5) 0.7052(17) 0.1137(12)
O2_4 O 0.0239(5) 0.8728(14) 0.1199(7)
O3_4 O 0.0158(6) 0.794(3) 0.1723(10)
N1_5 N 0.5168(4) 0.707(2) 0.6349(9)
O1_5 O 0.5138(5) 0.7948(17) 0.6137(12)
O2_5 O 0.5239(5) 0.6272(14) 0.6199(7)
O3_5 O 0.5158(6) 0.706(3) 0.6723(10)
N1_6 N 0.4832(4) 0.707(2) 0.8651(9)
O1_6 O 0.4862(5) 0.7948(17) 0.8863(12)
O2_6 O 0.4761(5) 0.6272(14) 0.8801(7)
O3_6 O 0.4842(6) 0.706(3) 0.8277(10)
N1_7 N 0.0168(4) 0.207(2) 0.6349(9)
O1_7 O 0.0138(5) 0.2948(17) 0.6137(12)
O2_7 O 0.0239(5) 0.1272(14) 0.6199(7)
O3_7 O 0.0158(6) 0.206(3) 0.6723(10)
N1_8 N 0.9832(4) 0.207(2) 0.8651(9)
O1_8 O 0.9862(5) 0.2948(17) 0.8863(12)
O2_8 O 0.9761(5) 0.1272(14) 0.8801(7)
O3_8 O 0.9842(6) 0.206(3) 0.8277(10)
N2 N 0.2565(3) 0.0051(9) 0.1169(4)
O4 O 0.2446(3) 0.0144(8) 0.1428(5)
O5 O 0.2550(4) 0.0825(9) 0.0894(5)
O6 O 0.2697(4) 0.9133(9) 0.1185(5)
N2_2 N 0.7435(3) 0.0051(9) 0.3831(4)
O4_2 O 0.7554(3) 0.0144(8) 0.3572(5)
O5_2 O 0.7450(4) 0.0825(9) 0.4106(5)
O6_2 O 0.7303(4) 0.9133(9) 0.3815(5)
N2_3 N 0.7565(3) 0.5051(9) 0.1169(4)
O4_3 O 0.7446(3) 0.5144(8) 0.1428(5)
O5_3 O 0.7550(4) 0.5825(9) 0.0894(5)
O6_3 O 0.7697(4) 0.4133(9) 0.1185(5)
N2_4 N 0.2435(3) 0.5051(9) 0.3831(4)
O4_4 O 0.2554(3) 0.5144(8) 0.3572(5)
O5_4 O 0.2450(4) 0.5825(9) 0.4106(5)
O6_4 O 0.2303(4) 0.4133(9) 0.3815(5)
O6_5 O 0.7303(4) 0.0867(9) 0.8815(5)
N2_5 N 0.7435(3) 0.9949(9) 0.8831(4)
O4_5 O 0.7554(3) 0.9856(8) 0.8572(5)
O5_5 O 0.7450(4) 0.9175(9) 0.9106(5)
O6_6 O 0.2697(4) 0.0867(9) 0.6185(5)
N2_6 N 0.2565(3) 0.9949(9) 0.6169(4)
O4_6 O 0.2446(3) 0.9856(8) 0.6428(5)
O5_6 O 0.2550(4) 0.9175(9) 0.5894(5)
N2_7 N 0.2435(3) 0.4949(9) 0.8831(4)
O4_7 O 0.2554(3) 0.4856(8) 0.8572(5)
O5_7 O 0.2450(4) 0.4175(9) 0.9106(5)
O6_7 O 0.2303(4) 0.5867(9) 0.8815(5)
N2_8 N 0.7565(3) 0.4949(9) 0.6169(4)
O4_8 O 0.7446(3) 0.4856(8) 0.6428(5)
O5_8 O 0.7550(4) 0.4175(9) 0.5894(5)
O6_8 O 0.7697(4) 0.5867(9) 0.6185(5)
Cd1 Cd 0.377555(19) 0.62605(5) 0.39573(3)
Cd2 Cd 0.08697(2) 0.46847(5) 0.07048(3)
Cd3 Cd 0.139432(19) 0.80480(5) 0.12060(3)
C2 C 0.1255(3) 0.4334(10) 0.2036(4)
H2 H 0.1479 0.4283 0.2095
C3 C 0.3462(3) 0.6496(10) 0.2704(5)
H3 H 0.3284 0.6913 0.2681
C4 C 0.1621(3) 0.5488(7) 0.1442(4)
C5 C 0.4385(3) 0.4038(8) 0.4715(4)
C7 C 0.1279(4) 0.4097(11) 0.2497(5)
H5 H 0.1506 0.3846 0.2845
C8 C 0.3390(4) 0.6321(12) 0.2206(5)
H6 H 0.3182 0.6654 0.1866
C9 C 0.2037(3) 0.5821(8) 0.1874(4)
H7 H 0.2064 0.6396 0.2110
H8 H 0.2114 0.6107 0.1672
C10 C 0.4758(3) 0.4123(9) 0.5359(5)
H9 H 0.4885 0.4802 0.5420
H10 H 0.4687 0.4130 0.5591
C12 C 0.0945(4) 0.4256(11) 0.2413(5)
C13 C 0.3636(4) 0.5627(11) 0.2219(5)
C14 C 0.2311(3) 0.4898(8) 0.2267(4)
H11 H 0.2229 0.4582 0.2457
H12 H 0.2301 0.4340 0.2038
C15 C 0.5042(3) 0.3195(8) 0.5559(5)
H13 H 0.5263 0.3281 0.5965
H14 H 0.4918 0.2516 0.5509
C17 C 0.0610(4) 0.4598(13) 0.1889(6)
H16 H 0.0385 0.4699 0.1827
C18 C 0.3947(4) 0.5169(10) 0.2751(5)
H17 H 0.4120 0.4717 0.2782
C19 C 0.2717(3) 0.5305(8) 0.2709(4)
H18 H 0.2799 0.5589 0.2513
H19 H 0.2718 0.5898 0.2915
C20 C 0.5180(3) 0.3147(8) 0.5230(5)
H20 H 0.4957 0.3122 0.4822
H21 H 0.5320 0.3806 0.5303
C21 C 0.1229(3) 0.4212(10) 0.0105(5)
H22 H 0.1457 0.4212 0.0489
C22 C 0.0617(4) 0.4791(12) 0.1453(5)
H23 H 0.0389 0.5048 0.1107
C23 C 0.3992(3) 0.5392(10) 0.3220(5)
H24 H 0.4186 0.5039 0.3563
C24 C 0.3005(3) 0.4480(7) 0.3138(4)
C25 C 0.5436(3) 0.2200(8) 0.5380(4)
C27 C 0.0942(4) 0.4014(13) 0.2881(6)
H26 H 0.0736 0.4234 0.2849
C28 C 0.3570(4) 0.5417(11) 0.1691(5)
H27 H 0.3362 0.5737 0.1346
C30 C 0.1436(4) 0.2837(11) 0.4154(5)
H29 H 0.1639 0.2581 0.4186
C31 C 0.3946(5) 0.4197(12) 0.1216(6)
H30 H 0.4164 0.3934 0.1572
C33 C 0.1134(4) 0.2698(10) 0.5016(5)
H32 H 0.0923 0.2883 0.4976
C34 C 0.4163(3) 0.3578(10) 0.0279(5)
H33 H 0.4376 0.3366 0.0327
C36 C 0.1127(4) 0.2959(13) 0.4567(6)
H35 H 0.0926 0.3360 0.4251
C37 C 0.4209(4) 0.3699(11) 0.0765(5)
H36 H 0.4447 0.3568 0.1129
C39 C 0.1431(4) 0.2595(10) 0.4615(5)
C40 C 0.3903(4) 0.4014(10) 0.0703(5)
C42 C 0.1732(3) 0.2017(10) 0.5105(5)
H38 H 0.1941 0.1777 0.5151
C43 C 0.3544(4) 0.4154(11) 0.0154(6)
H39 H 0.3329 0.4353 0.0101
C45 C 0.1708(3) 0.1811(10) 0.5520(5)
H41 H 0.1896 0.1383 0.5835
N4 N 0.0910(2) 0.4649(6) 0.1479(3)
N5 N 0.37595(19) 0.6126(5) 0.3212(3)
N7 N 0.1227(3) 0.3497(10) 0.3329(5)
N8 N 0.3794(4) 0.4811(12) 0.1706(5)
N10 N 0.1175(3) 0.3378(11) 0.3723(5)
N11 N 0.3694(4) 0.4701(12) 0.1177(5)
N13 N 0.1420(3) 0.2214(8) 0.5479(5)
O7 O 0.13614(19) 0.6188(5) 0.1157(3)
O8 O 0.4216(2) 0.4863(6) 0.4434(3)
O9 O 0.32624(19) 0.7417(5) 0.3462(3)
O10 O 0.1537(2) 0.4494(6) 0.1360(3)
O11 O 0.42556(19) 0.3092(6) 0.4502(3)
O12 O 0.0461(2) 0.6096(6) 0.0284(4)
O13 O 0.3359(2) 0.4800(6) 0.3566(3)
O14 O 0.5803(2) 0.2322(6) 0.5669(3)
O15 O 0.29265(19) 0.3497(6) 0.3085(3)
O16 O 0.5296(2) 0.1266(6) 0.5258(4)
Cd4 Cd 0.622445(19) 0.37395(5) 0.60427(3)
Cd6 Cd 0.58697(2) 0.03153(5) 0.57048(3)
Cd7 Cd 0.360568(19) 0.30480(5) 0.37940(3)
Cd9 Cd 0.139432(19) 0.19520(5) 0.62060(3)
N15 N 0.14017(19) 0.7867(5) 0.1960(3)
N16 N 0.1420(3) 0.7786(8) 0.0479(5)
N17 N 0.3838(3) 0.6258(11) 0.4758(5)
O17 O 0.07444(19) 0.8092(6) 0.0498(3)
O18 O 0.1641(2) 0.9800(6) 0.1434(3)
O19 O 0.4197(2) 0.7678(6) 0.4331(3)
O20 O 0.0803(2) 0.2678(6) 0.0669(3)
O21 O 0.20735(19) 0.8497(6) 0.1915(3)
O22 O 0.0296(2) 0.3734(6) 0.0258(4)
H43 H 0.303403 0.705787 0.310696
H44 H 0.320331 0.762059 0.370607
H46 H 0.0406629 0.634069 0.052895
C1 C 0.0594(4) 0.4494(14) 0.9449(6)
H1 H 0.0365 0.4671 0.9363
C6 C 0.0586(4) 0.4347(15) 0.9000(5)
H4 H 0.0357 0.4430 0.8621
C11 C 0.0926(3) 0.4073(11) 0.9125(5)
C16 C 0.1257(3) 0.4018(10) 0.9694(5)
H15 H 0.1493 0.3854 0.9801
C26 C 0.0921(4) 0.3826(14) 0.8656(5)
H25 H 0.0690 0.3869 0.8277
C29 C 0.1446(4) 0.3006(11) 0.8336(5)
H28 H 0.1676 0.2904 0.8712
C32 C 0.1738(3) 0.2137(11) 0.7516(4)
H31 H 0.1962 0.1913 0.7600
C35 C 0.1760(3) 0.2466(11) 0.7968(5)
H34 H 0.1997 0.2487 0.8342
C38 C 0.1435(3) 0.2752(10) 0.7860(4)
C41 C 0.1089(3) 0.2801(10) 0.7291(5)
H37 H 0.0863 0.3023 0.7204
C44 C 0.1087(3) 0.2517(10) 0.6861(5)
H40 H 0.0857 0.2591 0.6482
C46 C 0.3519(4) 0.3985(11) 0.9683(5)
H42 H 0.3280 0.4039 0.9312
N3 N 0.0913(3) 0.4393(8) 0.9998(4)
N6 N 0.1227(3) 0.3556(9) 0.8764(4)
N9 N 0.1153(3) 0.3360(11) 0.8250(5)
N12 N 0.14017(19) 0.2133(5) 0.6960(3)
N14 N 0.3838(3) 0.3742(11) 0.9758(5)
Cd5 Cd 0.377555(19) 0.37395(5) 0.89573(3)
H45 H 0.0216114 0.587411 0.990175
Cd1_2 Cd 0.622445(19) 0.62605(5) 0.10427(3)
Cd2_2 Cd 0.91303(2) 0.46847(5) 0.42952(3)
Cd3_2 Cd 0.860568(19) 0.80480(5) 0.37940(3)
C1_2 C 0.9406(4) 0.4494(14) 0.5551(6)
H1_2 H 0.9635 0.4671 0.5637
C2_2 C 0.8745(3) 0.4334(10) 0.2964(4)
H2_2 H 0.8521 0.4283 0.2905
C3_2 C 0.6538(3) 0.6496(10) 0.2296(5)
H3_2 H 0.6716 0.6913 0.2319
C4_2 C 0.8379(3) 0.5488(7) 0.3558(4)
C5_2 C 0.5615(3) 0.4038(8) 0.0285(4)
C6_2 C 0.9414(4) 0.4347(15) 0.6000(5)
H4_2 H 0.9643 0.4430 0.6379
C7_2 C 0.8721(4) 0.4097(11) 0.2503(5)
H5_2 H 0.8494 0.3846 0.2155
C8_2 C 0.6610(4) 0.6321(12) 0.2794(5)
H6_2 H 0.6818 0.6654 0.3134
C9_2 C 0.7963(3) 0.5821(8) 0.3126(4)
H7_2 H 0.7936 0.6396 0.2890
H8_2 H 0.7886 0.6107 0.3328
C11_2 C 0.9074(3) 0.4073(11) 0.5875(5)
C12_2 C 0.9055(4) 0.4256(11) 0.2587(5)
C13_2 C 0.6364(4) 0.5627(11) 0.2781(5)
C14_2 C 0.7689(3) 0.4898(8) 0.2733(4)
H11_2 H 0.7771 0.4582 0.2543
H12_2 H 0.7699 0.4340 0.2962
C16_2 C 0.8743(3) 0.4018(10) 0.5306(5)
H15_2 H 0.8507 0.3854 0.5199
C17_2 C 0.9390(4) 0.4598(13) 0.3111(6)
H16_2 H 0.9615 0.4699 0.3173
C18_2 C 0.6053(4) 0.5169(10) 0.2249(5)
H17_2 H 0.5880 0.4717 0.2218
C19_2 C 0.7283(3) 0.5305(8) 0.2291(4)
H18_2 H 0.7201 0.5589 0.2487
H19_2 H 0.7282 0.5898 0.2085
H20_2 H 0.5043 0.3122 0.0178
C21_2 C 0.8771(3) 0.4212(10) 0.4895(5)
H22_2 H 0.8543 0.4212 0.4511
C22_2 C 0.9383(4) 0.4791(12) 0.3547(5)
H23_2 H 0.9611 0.5048 0.3893
C23_2 C 0.6008(3) 0.5392(10) 0.1780(5)
H24_2 H 0.5814 0.5039 0.1437
C24_2 C 0.6995(3) 0.4480(7) 0.1862(4)
C26_2 C 0.9079(4) 0.3826(14) 0.6344(5)
H25_2 H 0.9310 0.3869 0.6723
C27_2 C 0.9058(4) 0.4014(13) 0.2119(6)
H26_2 H 0.9264 0.4234 0.2151
C28_2 C 0.6430(4) 0.5417(11) 0.3309(5)
H27_2 H 0.6638 0.5737 0.3654
C29_2 C 0.8554(4) 0.3006(11) 0.6664(5)
H28_2 H 0.8324 0.2904 0.6288
C30_2 C 0.8564(4) 0.2837(11) 0.0846(5)
H29_2 H 0.8361 0.2581 0.0814
C31_2 C 0.6054(5) 0.4197(12) 0.3784(6)
H30_2 H 0.5836 0.3934 0.3428
C32_2 C 0.8262(3) 0.2137(11) 0.7484(4)
H31_2 H 0.8038 0.1913 0.7400
H32_2 H 0.9077 0.2883 0.0024
C34_2 C 0.5837(3) 0.3578(10) 0.4721(5)
H33_2 H 0.5624 0.3366 0.4673
C35_2 C 0.8240(3) 0.2466(11) 0.7032(5)
H34_2 H 0.8003 0.2487 0.6658
C36_2 C 0.8873(4) 0.2959(13) 0.0433(6)
H35_2 H 0.9074 0.3360 0.0749
C37_2 C 0.5791(4) 0.3699(11) 0.4235(5)
H36_2 H 0.5553 0.3568 0.3871
C38_2 C 0.8565(3) 0.2752(10) 0.7140(4)
C39_2 C 0.8569(4) 0.2595(10) 0.0385(5)
C40_2 C 0.6097(4) 0.4014(10) 0.4297(5)
C41_2 C 0.8911(3) 0.2801(10) 0.7709(5)
H37_2 H 0.9137 0.3023 0.7796
C43_2 C 0.6456(4) 0.4154(11) 0.4846(6)
H39_2 H 0.6671 0.4353 0.4899
C44_2 C 0.8913(3) 0.2517(10) 0.8139(5)
H40_2 H 0.9143 0.2591 0.8518
C46_2 C 0.6481(4) 0.3985(11) 0.5317(5)
H42_2 H 0.6720 0.4039 0.5688
N3_2 N 0.9087(3) 0.4393(8) 0.5002(4)
N4_2 N 0.9090(2) 0.4649(6) 0.3521(3)
N5_2 N 0.62405(19) 0.6126(5) 0.1788(3)
N6_2 N 0.8773(3) 0.3556(9) 0.6236(4)
N7_2 N 0.8773(3) 0.3497(10) 0.1671(5)
N8_2 N 0.6206(4) 0.4811(12) 0.3294(5)
N9_2 N 0.8847(3) 0.3360(11) 0.6750(5)
N10_2 N 0.8825(3) 0.3378(11) 0.1277(5)
N11_2 N 0.6306(4) 0.4701(12) 0.3823(5)
N12_2 N 0.85983(19) 0.2133(5) 0.8040(3)
N14_2 N 0.6162(3) 0.3742(11) 0.5242(5)
O7_2 O 0.86386(19) 0.6188(5) 0.3843(3)
O8_2 O 0.5784(2) 0.4863(6) 0.0566(3)
O9_2 O 0.67376(19) 0.7417(5) 0.1538(3)
O10_2 O 0.8463(2) 0.4494(6) 0.3640(3)
O11_2 O 0.57444(19) 0.3092(6) 0.0498(3)
O12_2 O 0.9539(2) 0.6096(6) 0.4716(4)
O13_2 O 0.6641(2) 0.4800(6) 0.1434(3)
O15_2 O 0.70735(19) 0.3497(6) 0.1915(3)
Cd7_2 Cd 0.639432(19) 0.30480(5) 0.12060(3)
Cd8 Cd 0.860568(19) 0.19520(5) 0.87940(3)
N15_2 N 0.85983(19) 0.7867(5) 0.3040(3)
N16_2 N 0.8580(3) 0.7786(8) 0.4521(5)
N17_2 N 0.6162(3) 0.6258(11) 0.0242(5)
O17_2 O 0.92556(19) 0.8092(6) 0.4502(3)
O18_2 O 0.8359(2) 0.9800(6) 0.3566(3)
O19_2 O 0.5803(2) 0.7678(6) 0.0669(3)
O20_2 O 0.9197(2) 0.2678(6) 0.4331(3)
O21_2 O 0.79265(19) 0.8497(6) 0.3085(3)
O22_2 O 0.9704(2) 0.3734(6) 0.4742(4)
H43_2 H 0.696597 0.705787 0.189304
H44_2 H 0.679669 0.762059 0.129393
H45_2 H 0.978389 0.587411 0.509825
H46_2 H 0.959337 0.634069 0.447105
C10_2 C 0.5242(3) 0.4123(9) 0.9641(5)
H9_2 H 0.5115 0.4802 0.9580
H10_2 H 0.5313 0.4130 0.9409
C15_2 C 0.4958(3) 0.3195(8) 0.9441(5)
H13_2 H 0.4737 0.3281 0.9035
H14_2 H 0.5082 0.2516 0.9491
C20_2 C 0.4820(3) 0.3147(8) 0.9770(5)
H21_2 H 0.4680 0.3806 0.9697
C25_2 C 0.4564(3) 0.2200(8) 0.9620(4)
C33_2 C 0.8866(4) 0.2698(10) 0.9984(5)
C42_2 C 0.8268(3) 0.2017(10) 0.9895(5)
H38_2 H 0.8059 0.1777 0.9849
C45_2 C 0.8292(3) 0.1811(10) 0.9480(5)
H41_2 H 0.8104 0.1383 0.9165
N13_2 N 0.8580(3) 0.2214(8) 0.9521(5)
O14_2 O 0.4197(2) 0.2322(6) 0.9331(3)
O16_2 O 0.4704(2) 0.1266(6) 0.9742(4)
Cd6_2 Cd 0.41303(2) 0.03153(5) 0.92952(3)
C15_3 C 0.0042(3) 0.8195(8) 0.5559(5)
H13_3 H 0.0263 0.8281 0.5965
C20_3 C 0.0180(3) 0.8147(8) 0.5230(5)
H21_3 H 0.0320 0.8806 0.5303
C25_3 C 0.0436(3) 0.7200(8) 0.5380(4)
O14_3 O 0.0803(2) 0.7322(6) 0.5669(3)
O16_3 O 0.0296(2) 0.6266(6) 0.5258(4)
Cd4_2 Cd 0.122445(19) 0.87395(5) 0.60427(3)
Cd6_3 Cd 0.08697(2) 0.53153(5) 0.57048(3)
Cd1_3 Cd 0.877555(19) 0.12605(5) 0.39573(3)
C3_3 C 0.8462(3) 0.1496(10) 0.2704(5)
H3_3 H 0.8284 0.1913 0.2681
C4_3 C 0.6621(3) 0.0488(7) 0.1442(4)
C8_3 C 0.8390(4) 0.1321(12) 0.2206(5)
H6_3 H 0.8182 0.1654 0.1866
C9_3 C 0.7037(3) 0.0821(8) 0.1874(4)
H7_3 H 0.7064 0.1396 0.2110
H8_3 H 0.7114 0.1107 0.1672
C13_3 C 0.8636(4) 0.0627(11) 0.2219(5)
C18_3 C 0.8947(4) 0.0169(10) 0.2751(5)
C19_3 C 0.7717(3) 0.0305(8) 0.2709(4)
H18_3 H 0.7799 0.0589 0.2513
H19_3 H 0.7718 0.0898 0.2915
H23_3 H 0.5389 0.0048 0.1107
C23_3 C 0.8992(3) 0.0392(10) 0.3220(5)
H24_3 H 0.9186 0.0039 0.3563
C28_3 C 0.8570(4) 0.0417(11) 0.1691(5)
H27_3 H 0.8362 0.0737 0.1346
N5_3 N 0.87595(19) 0.1126(5) 0.3212(3)
O7_3 O 0.63614(19) 0.1188(5) 0.1157(3)
O9_3 O 0.82624(19) 0.2417(5) 0.3462(3)
O12_3 O 0.5461(2) 0.1096(6) 0.0284(4)
N15_3 N 0.64017(19) 0.2867(5) 0.1960(3)
N16_3 N 0.6420(3) 0.2786(8) 0.0479(5)
N17_3 N 0.8838(3) 0.1258(11) 0.4758(5)
H43_3 H 0.803403 0.205787 0.310696
H44_3 H 0.820331 0.262059 0.370607
H46_3 H 0.540663 0.134069 0.052895
Cd2_3 Cd 0.58697(2) 0.96847(5) 0.07048(3)
C2_3 C 0.6255(3) 0.9334(10) 0.2036(4)
H2_3 H 0.6479 0.9283 0.2095
C5_3 C 0.9385(3) 0.9038(8) 0.4715(4)
C7_3 C 0.6279(4) 0.9097(11) 0.2497(5)
H5_3 H 0.6506 0.8846 0.2845
C10_3 C 0.9758(3) 0.9123(9) 0.5359(5)
H9_3 H 0.9885 0.9802 0.5420
H10_3 H 0.9687 0.9130 0.5591
C12_3 C 0.5945(4) 0.9256(11) 0.2413(5)
C14_3 C 0.7311(3) 0.9898(8) 0.2267(4)
H11_3 H 0.7229 0.9582 0.2457
H12_3 H 0.7301 0.9340 0.2038
H14_3 H 0.9918 0.7516 0.5509
C17_3 C 0.5610(4) 0.9598(13) 0.1889(6)
H16_3 H 0.5385 0.9699 0.1827
H17_3 H 0.9120 0.9717 0.2782
H20_3 H 0.9957 0.8122 0.4822
C21_3 C 0.6229(3) 0.9212(10) 0.0105(5)
H22_3 H 0.6457 0.9212 0.0489
C22_3 C 0.5617(4) 0.9791(12) 0.1453(5)
C24_3 C 0.8005(3) 0.9480(7) 0.3138(4)
C27_3 C 0.5942(4) 0.9014(13) 0.2881(6)
H26_3 H 0.5736 0.9234 0.2849
C30_3 C 0.6436(4) 0.7837(11) 0.4154(5)
H29_3 H 0.6639 0.7581 0.4186
C31_3 C 0.8946(5) 0.9197(12) 0.1216(6)
H30_3 H 0.9164 0.8934 0.1572
C33_3 C 0.6134(4) 0.7698(10) 0.5016(5)
H32_3 H 0.5923 0.7883 0.4976
C34_3 C 0.9163(3) 0.8578(10) 0.0279(5)
H33_3 H 0.9376 0.8366 0.0327
C36_3 C 0.6127(4) 0.7959(13) 0.4567(6)
H35_3 H 0.5926 0.8360 0.4251
C37_3 C 0.9209(4) 0.8699(11) 0.0765(5)
H36_3 H 0.9447 0.8568 0.1129
C39_3 C 0.6431(4) 0.7595(10) 0.4615(5)
C40_3 C 0.8903(4) 0.9014(10) 0.0703(5)
C42_3 C 0.6732(3) 0.7017(10) 0.5105(5)
H38_3 H 0.6941 0.6777 0.5151
C43_3 C 0.8544(4) 0.9154(11) 0.0154(6)
H39_3 H 0.8329 0.9353 0.0101
C45_3 C 0.6708(3) 0.6811(10) 0.5520(5)
H41_3 H 0.6896 0.6383 0.5835
N4_3 N 0.5910(2) 0.9649(6) 0.1479(3)
N7_3 N 0.6227(3) 0.8497(10) 0.3329(5)
N8_3 N 0.8794(4) 0.9811(12) 0.1706(5)
N10_3 N 0.6175(3) 0.8378(11) 0.3723(5)
N11_3 N 0.8694(4) 0.9701(12) 0.1177(5)
N13_3 N 0.6420(3) 0.7214(8) 0.5479(5)
O8_3 O 0.9216(2) 0.9863(6) 0.4434(3)
O10_3 O 0.6537(2) 0.9494(6) 0.1360(3)
Cd9_2 Cd 0.639432(19) 0.69520(5) 0.62060(3)
O22_3 O 0.5296(2) 0.8734(6) 0.0258(4)
C1_3 C 0.5594(4) 0.9494(14) 0.9449(6)
H1_3 H 0.5365 0.9671 0.9363
C6_3 C 0.5586(4) 0.9347(15) 0.9000(5)
H4_3 H 0.5357 0.9430 0.8621
C11_3 C 0.5926(3) 0.9073(11) 0.9125(5)
C16_3 C 0.6257(3) 0.9018(10) 0.9694(5)
H15_3 H 0.6493 0.8854 0.9801
C26_3 C 0.5921(4) 0.8826(14) 0.8656(5)
H25_3 H 0.5690 0.8869 0.8277
C29_3 C 0.6446(4) 0.8006(11) 0.8336(5)
H28_3 H 0.6676 0.7904 0.8712
C32_3 C 0.6738(3) 0.7137(11) 0.7516(4)
H31_3 H 0.6962 0.6913 0.7600
C35_3 C 0.6760(3) 0.7466(11) 0.7968(5)
H34_3 H 0.6997 0.7487 0.8342
C38_3 C 0.6435(3) 0.7752(10) 0.7860(4)
C41_3 C 0.6089(3) 0.7801(10) 0.7291(5)
H37_3 H 0.5863 0.8023 0.7204
C44_3 C 0.6087(3) 0.7517(10) 0.6861(5)
H40_3 H 0.5857 0.7591 0.6482
C46_3 C 0.8519(4) 0.8985(11) 0.9683(5)
H42_3 H 0.8280 0.9039 0.9312
N3_3 N 0.5913(3) 0.9393(8) 0.9998(4)
N6_3 N 0.6227(3) 0.8556(9) 0.8764(4)
N9_3 N 0.6153(3) 0.8360(11) 0.8250(5)
N12_3 N 0.64017(19) 0.7133(5) 0.6960(3)
N14_3 N 0.8838(3) 0.8742(11) 0.9758(5)
Cd5_2 Cd 0.877555(19) 0.87395(5) 0.89573(3)
Cd1_4 Cd 0.122445(19) 0.12605(5) 0.10427(3)
C3_4 C 0.1538(3) 0.1496(10) 0.2296(5)
H3_4 H 0.1716 0.1913 0.2319
C4_4 C 0.3379(3) 0.0488(7) 0.3558(4)
C8_4 C 0.1610(4) 0.1321(12) 0.2794(5)
H6_4 H 0.1818 0.1654 0.3134
C9_4 C 0.2963(3) 0.0821(8) 0.3126(4)
H7_4 H 0.2936 0.1396 0.2890
H8_4 H 0.2886 0.1107 0.3328
C13_4 C 0.1364(4) 0.0627(11) 0.2781(5)
C18_4 C 0.1053(4) 0.0169(10) 0.2249(5)
C19_4 C 0.2283(3) 0.0305(8) 0.2291(4)
H18_4 H 0.2201 0.0589 0.2487
H19_4 H 0.2282 0.0898 0.2085
H23_4 H 0.4611 0.0048 0.3893
C23_4 C 0.1008(3) 0.0392(10) 0.1780(5)
H24_4 H 0.0814 0.0039 0.1437
C28_4 C 0.1430(4) 0.0417(11) 0.3309(5)
H27_4 H 0.1638 0.0737 0.3654
N5_4 N 0.12405(19) 0.1126(5) 0.1788(3)
O7_4 O 0.36386(19) 0.1188(5) 0.3843(3)
O9_4 O 0.17376(19) 0.2417(5) 0.1538(3)
O12_4 O 0.4539(2) 0.1096(6) 0.4716(4)
N15_4 N 0.35983(19) 0.2867(5) 0.3040(3)
N16_4 N 0.3580(3) 0.2786(8) 0.4521(5)
N17_4 N 0.1162(3) 0.1258(11) 0.0242(5)
H43_4 H 0.196597 0.205787 0.189304
H44_4 H 0.179669 0.262059 0.129393
H45_3 H 0.478389 0.0874108 0.509825
H46_4 H 0.459337 0.134069 0.447105
Cd2_4 Cd 0.41303(2) 0.96847(5) 0.42952(3)
C1_4 C 0.4406(4) 0.9494(14) 0.5551(6)
H1_4 H 0.4635 0.9671 0.5637
C2_4 C 0.3745(3) 0.9334(10) 0.2964(4)
H2_4 H 0.3521 0.9283 0.2905
C5_4 C 0.0615(3) 0.9038(8) 0.0285(4)
C6_4 C 0.4414(4) 0.9347(15) 0.6000(5)
H4_4 H 0.4643 0.9430 0.6379
C7_4 C 0.3721(4) 0.9097(11) 0.2503(5)
H5_4 H 0.3494 0.8846 0.2155
C11_4 C 0.4074(3) 0.9073(11) 0.5875(5)
C12_4 C 0.4055(4) 0.9256(11) 0.2587(5)
C14_4 C 0.2689(3) 0.9898(8) 0.2733(4)
H11_4 H 0.2771 0.9582 0.2543
H12_4 H 0.2699 0.9340 0.2962
C16_4 C 0.3743(3) 0.9018(10) 0.5306(5)
H15_4 H 0.3507 0.8854 0.5199
C17_4 C 0.4390(4) 0.9598(13) 0.3111(6)
H16_4 H 0.4615 0.9699 0.3173
H17_4 H 0.0880 0.9717 0.2218
H20_4 H 0.0043 0.8122 0.0178
C21_4 C 0.3771(3) 0.9212(10) 0.4895(5)
H22_4 H 0.3543 0.9212 0.4511
C22_4 C 0.4383(4) 0.9791(12) 0.3547(5)
C24_4 C 0.1995(3) 0.9480(7) 0.1862(4)
C26_4 C 0.4079(4) 0.8826(14) 0.6344(5)
H25_4 H 0.4310 0.8869 0.6723
C27_4 C 0.4058(4) 0.9014(13) 0.2119(6)
H26_4 H 0.4264 0.9234 0.2151
C29_4 C 0.3554(4) 0.8006(11) 0.6664(5)
H28_4 H 0.3324 0.7904 0.6288
C30_4 C 0.3564(4) 0.7837(11) 0.0846(5)
H29_4 H 0.3361 0.7581 0.0814
C31_4 C 0.1054(5) 0.9197(12) 0.3784(6)
H30_4 H 0.0836 0.8934 0.3428
C32_4 C 0.3262(3) 0.7137(11) 0.7484(4)
H31_4 H 0.3038 0.6913 0.7400
H32_4 H 0.4077 0.7883 0.0024
C34_4 C 0.0837(3) 0.8578(10) 0.4721(5)
H33_4 H 0.0624 0.8366 0.4673
C35_4 C 0.3240(3) 0.7466(11) 0.7032(5)
H34_4 H 0.3003 0.7487 0.6658
C36_4 C 0.3873(4) 0.7959(13) 0.0433(6)
H35_4 H 0.4074 0.8360 0.0749
C37_4 C 0.0791(4) 0.8699(11) 0.4235(5)
H36_4 H 0.0553 0.8568 0.3871
C38_4 C 0.3565(3) 0.7752(10) 0.7140(4)
C39_4 C 0.3569(4) 0.7595(10) 0.0385(5)
C40_4 C 0.1097(4) 0.9014(10) 0.4297(5)
C41_4 C 0.3911(3) 0.7801(10) 0.7709(5)
H37_4 H 0.4137 0.8023 0.7796
C43_4 C 0.1456(4) 0.9154(11) 0.4846(6)
H39_4 H 0.1671 0.9353 0.4899
C44_4 C 0.3913(3) 0.7517(10) 0.8139(5)
H40_4 H 0.4143 0.7591 0.8518
C46_4 C 0.1481(4) 0.8985(11) 0.5317(5)
H42_4 H 0.1720 0.9039 0.5688
N3_4 N 0.4087(3) 0.9393(8) 0.5002(4)
N4_4 N 0.4090(2) 0.9649(6) 0.3521(3)
N6_4 N 0.3773(3) 0.8556(9) 0.6236(4)
N7_4 N 0.3773(3) 0.8497(10) 0.1671(5)
N8_4 N 0.1206(4) 0.9811(12) 0.3294(5)
N9_4 N 0.3847(3) 0.8360(11) 0.6750(5)
N10_4 N 0.3825(3) 0.8378(11) 0.1277(5)
N11_4 N 0.1306(4) 0.9701(12) 0.3823(5)
N12_4 N 0.35983(19) 0.7133(5) 0.8040(3)
N14_4 N 0.1162(3) 0.8742(11) 0.5242(5)
O8_4 O 0.0784(2) 0.9863(6) 0.0566(3)
O10_4 O 0.3463(2) 0.9494(6) 0.3640(3)
Cd8_2 Cd 0.360568(19) 0.69520(5) 0.87940(3)
O22_4 O 0.4704(2) 0.8734(6) 0.4742(4)
C10_4 C 0.0242(3) 0.9123(9) 0.9641(5)
H9_4 H 0.0115 0.9802 0.9580
H10_4 H 0.0313 0.9130 0.9409
H14_4 H 0.0082 0.7516 0.9491
C33_4 C 0.3866(4) 0.7698(10) 0.9984(5)
C42_4 C 0.3268(3) 0.7017(10) 0.9895(5)
H38_4 H 0.3059 0.6777 0.9849
C45_4 C 0.3292(3) 0.6811(10) 0.9480(5)
H41_4 H 0.3104 0.6383 0.9165
N13_4 N 0.3580(3) 0.7214(8) 0.9521(5)
C15_4 C 0.9958(3) 0.8195(8) 0.9441(5)
H13_4 H 0.9737 0.8281 0.9035
C20_4 C 0.9820(3) 0.8147(8) 0.9770(5)
H21_4 H 0.9680 0.8806 0.9697
C25_4 C 0.9564(3) 0.7200(8) 0.9620(4)
O14_4 O 0.9197(2) 0.7322(6) 0.9331(3)
O16_4 O 0.9704(2) 0.6266(6) 0.9742(4)
Cd6_4 Cd 0.91303(2) 0.53153(5) 0.92952(3)
C1_5 C 0.9406(4) 0.5506(14) 0.0551(6)
H1_5 H 0.9635 0.5329 0.0637
C6_5 C 0.9414(4) 0.5653(15) 0.1000(5)
H4_5 H 0.9643 0.5570 0.1379
C11_5 C 0.9074(3) 0.5927(11) 0.0875(5)
C16_5 C 0.8743(3) 0.5982(10) 0.0306(5)
H15_5 H 0.8507 0.6146 0.0199
C26_5 C 0.9079(4) 0.6174(14) 0.1344(5)
H25_5 H 0.9310 0.6131 0.1723
C29_5 C 0.8554(4) 0.6994(11) 0.1664(5)
H28_5 H 0.8324 0.7096 0.1288
C32_5 C 0.8262(3) 0.7863(11) 0.2484(4)
H31_5 H 0.8038 0.8087 0.2400
C35_5 C 0.8240(3) 0.7534(11) 0.2032(5)
H34_5 H 0.8003 0.7513 0.1658
C38_5 C 0.8565(3) 0.7248(10) 0.2140(4)
C41_5 C 0.8911(3) 0.7199(10) 0.2709(5)
H37_5 H 0.9137 0.6977 0.2796
C44_5 C 0.8913(3) 0.7483(10) 0.3139(5)
H40_5 H 0.9143 0.7409 0.3518
C46_5 C 0.6481(4) 0.6015(11) 0.0317(5)
H42_5 H 0.6720 0.5961 0.0688
N3_5 N 0.9087(3) 0.5607(8) 0.0002(4)
N6_5 N 0.8773(3) 0.6444(9) 0.1236(4)
N9_5 N 0.8847(3) 0.6640(11) 0.1750(5)
H45_4 H 0.978389 0.412589 0.00982523
C2_5 C 0.8745(3) 0.5666(10) 0.7964(4)
H2_5 H 0.8521 0.5717 0.7905
C3_5 C 0.6538(3) 0.3504(10) 0.7296(5)
H3_5 H 0.6716 0.3087 0.7319
C4_5 C 0.8379(3) 0.4512(7) 0.8558(4)
C5_5 C 0.5615(3) 0.5962(8) 0.5285(4)
C7_5 C 0.8721(4) 0.5903(11) 0.7503(5)
H5_5 H 0.8494 0.6154 0.7155
C8_5 C 0.6610(4) 0.3679(12) 0.7794(5)
H6_5 H 0.6818 0.3346 0.8134
C9_5 C 0.7963(3) 0.4179(8) 0.8126(4)
H7_5 H 0.7936 0.3604 0.7890
H8_5 H 0.7886 0.3893 0.8328
C10_5 C 0.5242(3) 0.5877(9) 0.4641(5)
H9_5 H 0.5115 0.5198 0.4580
H10_5 H 0.5313 0.5870 0.4409
C12_5 C 0.9055(4) 0.5744(11) 0.7587(5)
C13_5 C 0.6364(4) 0.4373(11) 0.7781(5)
C14_5 C 0.7689(3) 0.5102(8) 0.7733(4)
H11_5 H 0.7771 0.5418 0.7543
H12_5 H 0.7699 0.5660 0.7962
C15_5 C 0.4958(3) 0.6805(8) 0.4441(5)
H13_5 H 0.4737 0.6719 0.4035
H14_5 H 0.5082 0.7484 0.4491
C17_5 C 0.9390(4) 0.5402(13) 0.8111(6)
H16_5 H 0.9615 0.5301 0.8173
C18_5 C 0.6053(4) 0.4831(10) 0.7249(5)
H17_5 H 0.5880 0.5283 0.7218
C19_5 C 0.7283(3) 0.4695(8) 0.7291(4)
H18_5 H 0.7201 0.4411 0.7487
H19_5 H 0.7282 0.4102 0.7085
C20_5 C 0.4820(3) 0.6853(8) 0.4770(5)
H20_5 H 0.5043 0.6878 0.5178
H21_5 H 0.4680 0.6194 0.4697
C21_5 C 0.8771(3) 0.5788(10) 0.9895(5)
H22_5 H 0.8543 0.5788 0.9511
C22_5 C 0.9383(4) 0.5209(12) 0.8547(5)
H23_5 H 0.9611 0.4952 0.8893
C23_5 C 0.6008(3) 0.4608(10) 0.6780(5)
H24_5 H 0.5814 0.4961 0.6437
C24_5 C 0.6995(3) 0.5520(7) 0.6862(4)
C25_5 C 0.4564(3) 0.7800(8) 0.4620(4)
C27_5 C 0.9058(4) 0.5986(13) 0.7119(6)
H26_5 H 0.9264 0.5766 0.7151
C28_5 C 0.6430(4) 0.4583(11) 0.8309(5)
H27_5 H 0.6638 0.4263 0.8654
C30_5 C 0.8564(4) 0.7163(11) 0.5846(5)
H29_5 H 0.8361 0.7419 0.5814
C31_5 C 0.6054(5) 0.5803(12) 0.8784(6)
H30_5 H 0.5836 0.6066 0.8428
C33_5 C 0.8866(4) 0.7302(10) 0.4984(5)
H32_5 H 0.9077 0.7117 0.5024
C34_5 C 0.5837(3) 0.6422(10) 0.9721(5)
H33_5 H 0.5624 0.6634 0.9673
C36_5 C 0.8873(4) 0.7041(13) 0.5433(6)
H35_5 H 0.9074 0.6640 0.5749
C37_5 C 0.5791(4) 0.6301(11) 0.9235(5)
H36_5 H 0.5553 0.6432 0.8871
C39_5 C 0.8569(4) 0.7405(10) 0.5385(5)
C40_5 C 0.6097(4) 0.5986(10) 0.9297(5)
C42_5 C 0.8268(3) 0.7983(10) 0.4895(5)
H38_5 H 0.8059 0.8223 0.4849
C43_5 C 0.6456(4) 0.5846(11) 0.9846(6)
H39_5 H 0.6671 0.5647 0.9899
C45_5 C 0.8292(3) 0.8189(10) 0.4480(5)
H41_5 H 0.8104 0.8617 0.4165
N4_5 N 0.9090(2) 0.5351(6) 0.8521(3)
N5_5 N 0.62405(19) 0.3874(5) 0.6788(3)
N7_5 N 0.8773(3) 0.6503(10) 0.6671(5)
N8_5 N 0.6206(4) 0.5189(12) 0.8294(5)
N10_5 N 0.8825(3) 0.6622(11) 0.6277(5)
N11_5 N 0.6306(4) 0.5299(12) 0.8823(5)
O7_5 O 0.86386(19) 0.3812(5) 0.8843(3)
O8_5 O 0.5784(2) 0.5137(6) 0.5566(3)
O9_5 O 0.67376(19) 0.2583(5) 0.6538(3)
O10_5 O 0.8463(2) 0.5506(6) 0.8640(3)
O11_3 O 0.57444(19) 0.6908(6) 0.5498(3)
O12_5 O 0.9539(2) 0.3904(6) 0.9716(4)
O13_3 O 0.6641(2) 0.5200(6) 0.6434(3)
O15_3 O 0.70735(19) 0.6503(6) 0.6915(3)
O17_3 O 0.92556(19) 0.1908(6) 0.9502(3)
O18_3 O 0.8359(2) 0.0200(6) 0.8566(3)
O21_3 O 0.79265(19) 0.1503(6) 0.8085(3)
H43_5 H 0.696597 0.294213 0.689304
H44_5 H 0.679669 0.237941 0.629393
H46_5 H 0.959337 0.365931 0.947105
C10_6 C 0.4758(3) 0.5877(9) 0.0359(5)
H9_6 H 0.4885 0.5198 0.0420
H10_6 H 0.4687 0.5870 0.0591
C15_6 C 0.5042(3) 0.6805(8) 0.0559(5)
H13_6 H 0.5263 0.6719 0.0965
H14_6 H 0.4918 0.7484 0.0509
C20_6 C 0.5180(3) 0.6853(8) 0.0230(5)
H21_6 H 0.5320 0.6194 0.0303
C25_6 C 0.5436(3) 0.7800(8) 0.0380(4)
C33_6 C 0.1134(4) 0.7302(10) 0.0016(5)
C42_6 C 0.1732(3) 0.7983(10) 0.0105(5)
H38_6 H 0.1941 0.8223 0.0151
C45_6 C 0.1708(3) 0.8189(10) 0.0520(5)
H41_6 H 0.1896 0.8617 0.0835
C1_6 C 0.0594(4) 0.5506(14) 0.4449(6)
H1_6 H 0.0365 0.5329 0.4363
C2_6 C 0.1255(3) 0.5666(10) 0.7036(4)
H2_6 H 0.1479 0.5717 0.7095
C3_6 C 0.3462(3) 0.3504(10) 0.7704(5)
H3_6 H 0.3284 0.3087 0.7681
C4_6 C 0.1621(3) 0.4512(7) 0.6442(4)
C5_6 C 0.4385(3) 0.5962(8) 0.9715(4)
C6_6 C 0.0586(4) 0.5653(15) 0.4000(5)
H4_6 H 0.0357 0.5570 0.3621
C7_6 C 0.1279(4) 0.5903(11) 0.7497(5)
H5_6 H 0.1506 0.6154 0.7845
C8_6 C 0.3390(4) 0.3679(12) 0.7206(5)
H6_6 H 0.3182 0.3346 0.6866
C9_6 C 0.2037(3) 0.4179(8) 0.6874(4)
H7_6 H 0.2064 0.3604 0.7110
H8_6 H 0.2114 0.3893 0.6672
C11_6 C 0.0926(3) 0.5927(11) 0.4125(5)
C12_6 C 0.0945(4) 0.5744(11) 0.7413(5)
C13_6 C 0.3636(4) 0.4373(11) 0.7219(5)
C14_6 C 0.2311(3) 0.5102(8) 0.7267(4)
H11_6 H 0.2229 0.5418 0.7457
H12_6 H 0.2301 0.5660 0.7038
C16_6 C 0.1257(3) 0.5982(10) 0.4694(5)
H15_6 H 0.1493 0.6146 0.4801
C17_6 C 0.0610(4) 0.5402(13) 0.6889(6)
H16_6 H 0.0385 0.5301 0.6827
C18_6 C 0.3947(4) 0.4831(10) 0.7751(5)
H17_6 H 0.4120 0.5283 0.7782
C19_6 C 0.2717(3) 0.4695(8) 0.7709(4)
H18_6 H 0.2799 0.4411 0.7513
H19_6 H 0.2718 0.4102 0.7915
H20_6 H 0.4957 0.6878 0.9822
C21_6 C 0.1229(3) 0.5788(10) 0.5105(5)
H22_6 H 0.1457 0.5788 0.5489
C22_6 C 0.0617(4) 0.5209(12) 0.6453(5)
H23_6 H 0.0389 0.4952 0.6107
C23_6 C 0.3992(3) 0.4608(10) 0.8220(5)
H24_6 H 0.4186 0.4961 0.8563
C24_6 C 0.3005(3) 0.5520(7) 0.8138(4)
C26_6 C 0.0921(4) 0.6174(14) 0.3656(5)
H25_6 H 0.0690 0.6131 0.3277
C27_6 C 0.0942(4) 0.5986(13) 0.7881(6)
H26_6 H 0.0736 0.5766 0.7849
C28_6 C 0.3570(4) 0.4583(11) 0.6691(5)
H27_6 H 0.3362 0.4263 0.6346
C29_6 C 0.1446(4) 0.6994(11) 0.3336(5)
H28_6 H 0.1676 0.7096 0.3712
C30_6 C 0.1436(4) 0.7163(11) 0.9154(5)
H29_6 H 0.1639 0.7419 0.9186
C31_6 C 0.3946(5) 0.5803(12) 0.6216(6)
H30_6 H 0.4164 0.6066 0.6572
C32_6 C 0.1738(3) 0.7863(11) 0.2516(4)
H31_6 H 0.1962 0.8087 0.2600
H32_6 H 0.0923 0.7117 0.9976
C34_6 C 0.4163(3) 0.6422(10) 0.5279(5)
H33_6 H 0.4376 0.6634 0.5327
C35_6 C 0.1760(3) 0.7534(11) 0.2968(5)
H34_6 H 0.1997 0.7513 0.3342
C36_6 C 0.1127(4) 0.7041(13) 0.9567(6)
H35_6 H 0.0926 0.6640 0.9251
C37_6 C 0.4209(4) 0.6301(11) 0.5765(5)
H36_6 H 0.4447 0.6432 0.6129
C38_6 C 0.1435(3) 0.7248(10) 0.2860(4)
C39_6 C 0.1431(4) 0.7405(10) 0.9615(5)
C40_6 C 0.3903(4) 0.5986(10) 0.5703(5)
C41_6 C 0.1089(3) 0.7199(10) 0.2291(5)
H37_6 H 0.0863 0.6977 0.2204
C43_6 C 0.3544(4) 0.5846(11) 0.5154(6)
H39_6 H 0.3329 0.5647 0.5101
C44_6 C 0.1087(3) 0.7483(10) 0.1861(5)
H40_6 H 0.0857 0.7409 0.1482
C46_6 C 0.3519(4) 0.6015(11) 0.4683(5)
H42_6 H 0.3280 0.5961 0.4312
N3_6 N 0.0913(3) 0.5607(8) 0.4998(4)
N4_6 N 0.0910(2) 0.5351(6) 0.6479(3)
N5_6 N 0.37595(19) 0.3874(5) 0.8212(3)
N6_6 N 0.1227(3) 0.6444(9) 0.3764(4)
N7_6 N 0.1227(3) 0.6503(10) 0.8329(5)
N8_6 N 0.3794(4) 0.5189(12) 0.6706(5)
N9_6 N 0.1153(3) 0.6640(11) 0.3250(5)
N10_6 N 0.1175(3) 0.6622(11) 0.8723(5)
N11_6 N 0.3694(4) 0.5299(12) 0.6177(5)
O7_6 O 0.13614(19) 0.3812(5) 0.6157(3)
O8_6 O 0.4216(2) 0.5137(6) 0.9434(3)
O9_6 O 0.32624(19) 0.2583(5) 0.8462(3)
O10_6 O 0.1537(2) 0.5506(6) 0.6360(3)
O11_4 O 0.42556(19) 0.6908(6) 0.9502(3)
O12_6 O 0.0461(2) 0.3904(6) 0.5284(4)
O13_4 O 0.3359(2) 0.5200(6) 0.8566(3)
O15_4 O 0.29265(19) 0.6503(6) 0.8085(3)
O17_4 O 0.07444(19) 0.1908(6) 0.5498(3)
O18_4 O 0.1641(2) 0.0200(6) 0.6434(3)
O21_4 O 0.20735(19) 0.1503(6) 0.6915(3)
H43_6 H 0.303403 0.294213 0.810696
H44_6 H 0.320331 0.237941 0.870607
H45_5 H 0.0216114 0.412589 0.490175
H46_6 H 0.0406629 0.365931 0.552895
C1_7 C 0.4406(4) 0.0506(14) 0.0551(6)
H1_7 H 0.4635 0.0329 0.0637
C6_7 C 0.4414(4) 0.0653(15) 0.1000(5)
H4_7 H 0.4643 0.0570 0.1379
C11_7 C 0.4074(3) 0.0927(11) 0.0875(5)
C16_7 C 0.3743(3) 0.0982(10) 0.0306(5)
H15_7 H 0.3507 0.1146 0.0199
C26_7 C 0.4079(4) 0.1174(14) 0.1344(5)
H25_7 H 0.4310 0.1131 0.1723
C29_7 C 0.3554(4) 0.1994(11) 0.1664(5)
H28_7 H 0.3324 0.2096 0.1288
C32_7 C 0.3262(3) 0.2863(11) 0.2484(4)
H31_7 H 0.3038 0.3087 0.2400
C35_7 C 0.3240(3) 0.2534(11) 0.2032(5)
H34_7 H 0.3003 0.2513 0.1658
C38_7 C 0.3565(3) 0.2248(10) 0.2140(4)
C41_7 C 0.3911(3) 0.2199(10) 0.2709(5)
H37_7 H 0.4137 0.1977 0.2796
C44_7 C 0.3913(3) 0.2483(10) 0.3139(5)
H40_7 H 0.4143 0.2409 0.3518
C46_7 C 0.1481(4) 0.1015(11) 0.0317(5)
H42_7 H 0.1720 0.0961 0.0688
N3_7 N 0.4087(3) 0.0607(8) 0.0002(4)
N6_7 N 0.3773(3) 0.1444(9) 0.1236(4)
N9_7 N 0.3847(3) 0.1640(11) 0.1750(5)
C2_7 C 0.3745(3) 0.0666(10) 0.7964(4)
H2_7 H 0.3521 0.0717 0.7905
C5_7 C 0.0615(3) 0.0962(8) 0.5285(4)
C7_7 C 0.3721(4) 0.0903(11) 0.7503(5)
H5_7 H 0.3494 0.1154 0.7155
C10_7 C 0.0242(3) 0.0877(9) 0.4641(5)
H9_7 H 0.0115 0.0198 0.4580
H10_7 H 0.0313 0.0870 0.4409
C12_7 C 0.4055(4) 0.0744(11) 0.7587(5)
C14_7 C 0.2689(3) 0.0102(8) 0.7733(4)
H11_7 H 0.2771 0.0418 0.7543
H12_7 H 0.2699 0.0660 0.7962
H14_7 H 0.0082 0.2484 0.4491
C17_7 C 0.4390(4) 0.0402(13) 0.8111(6)
H16_7 H 0.4615 0.0301 0.8173
H17_7 H 0.0880 0.0283 0.7218
H20_7 H 0.0043 0.1878 0.5178
C21_7 C 0.3771(3) 0.0788(10) 0.9895(5)
H22_7 H 0.3543 0.0788 0.9511
C22_7 C 0.4383(4) 0.0209(12) 0.8547(5)
C24_7 C 0.1995(3) 0.0520(7) 0.6862(4)
C27_7 C 0.4058(4) 0.0986(13) 0.7119(6)
H26_7 H 0.4264 0.0766 0.7151
C30_7 C 0.3564(4) 0.2163(11) 0.5846(5)
H29_7 H 0.3361 0.2419 0.5814
C31_7 C 0.1054(5) 0.0803(12) 0.8784(6)
H30_7 H 0.0836 0.1066 0.8428
C33_7 C 0.3866(4) 0.2302(10) 0.4984(5)
H32_7 H 0.4077 0.2117 0.5024
C34_7 C 0.0837(3) 0.1422(10) 0.9721(5)
H33_7 H 0.0624 0.1634 0.9673
C36_7 C 0.3873(4) 0.2041(13) 0.5433(6)
H35_7 H 0.4074 0.1640 0.5749
C37_7 C 0.0791(4) 0.1301(11) 0.9235(5)
H36_7 H 0.0553 0.1432 0.8871
C39_7 C 0.3569(4) 0.2405(10) 0.5385(5)
C40_7 C 0.1097(4) 0.0986(10) 0.9297(5)
C42_7 C 0.3268(3) 0.2983(10) 0.4895(5)
H38_7 H 0.3059 0.3223 0.4849
C43_7 C 0.1456(4) 0.0846(11) 0.9846(6)
H39_7 H 0.1671 0.0647 0.9899
C45_7 C 0.3292(3) 0.3189(10) 0.4480(5)
H41_7 H 0.3104 0.3617 0.4165
N4_7 N 0.4090(2) 0.0351(6) 0.8521(3)
N7_7 N 0.3773(3) 0.1503(10) 0.6671(5)
N8_7 N 0.1206(4) 0.0189(12) 0.8294(5)
N10_7 N 0.3825(3) 0.1622(11) 0.6277(5)
N11_7 N 0.1306(4) 0.0299(12) 0.8823(5)
O8_7 O 0.0784(2) 0.0137(6) 0.5566(3)
O10_7 O 0.3463(2) 0.0506(6) 0.8640(3)
C3_7 C 0.1538(3) 0.8504(10) 0.7296(5)
H3_7 H 0.1716 0.8087 0.7319
C4_7 C 0.3379(3) 0.9512(7) 0.8558(4)
C8_7 C 0.1610(4) 0.8679(12) 0.7794(5)
H6_7 H 0.1818 0.8346 0.8134
C9_7 C 0.2963(3) 0.9179(8) 0.8126(4)
H7_7 H 0.2936 0.8604 0.7890
H8_7 H 0.2886 0.8893 0.8328
C13_7 C 0.1364(4) 0.9373(11) 0.7781(5)
C18_7 C 0.1053(4) 0.9831(10) 0.7249(5)
C19_7 C 0.2283(3) 0.9695(8) 0.7291(4)
H18_7 H 0.2201 0.9411 0.7487
H19_7 H 0.2282 0.9102 0.7085
H23_7 H 0.4611 0.9952 0.8893
C23_7 C 0.1008(3) 0.9608(10) 0.6780(5)
H24_7 H 0.0814 0.9961 0.6437
C28_7 C 0.1430(4) 0.9583(11) 0.8309(5)
H27_7 H 0.1638 0.9263 0.8654
N5_7 N 0.12405(19) 0.8874(5) 0.6788(3)
O7_7 O 0.36386(19) 0.8812(5) 0.8843(3)
O9_7 O 0.17376(19) 0.7583(5) 0.6538(3)
O12_7 O 0.4539(2) 0.8904(6) 0.9716(4)
H43_7 H 0.196597 0.794213 0.689304
H44_7 H 0.179669 0.737941 0.629393
H46_7 H 0.459337 0.865931 0.947105
C15_7 C 0.9958(3) 0.1805(8) 0.4441(5)
H13_7 H 0.9737 0.1719 0.4035
C20_7 C 0.9820(3) 0.1853(8) 0.4770(5)
H21_7 H 0.9680 0.1194 0.4697
C25_7 C 0.9564(3) 0.2800(8) 0.4620(4)
C15_8 C 0.0042(3) 0.1805(8) 0.0559(5)
H13_8 H 0.0263 0.1719 0.0965
C20_8 C 0.0180(3) 0.1853(8) 0.0230(5)
H21_8 H 0.0320 0.1194 0.0303
C25_8 C 0.0436(3) 0.2800(8) 0.0380(4)
C10_8 C 0.9758(3) 0.0877(9) 0.0359(5)
H9_8 H 0.9885 0.0198 0.0420
H10_8 H 0.9687 0.0870 0.0591
H14_8 H 0.9918 0.2484 0.0509
C33_8 C 0.6134(4) 0.2302(10) 0.0016(5)
C42_8 C 0.6732(3) 0.2983(10) 0.0105(5)
H38_8 H 0.6941 0.3223 0.0151
C45_8 C 0.6708(3) 0.3189(10) 0.0520(5)
H41_8 H 0.6896 0.3617 0.0835
C1_8 C 0.5594(4) 0.0506(14) 0.4449(6)
H1_8 H 0.5365 0.0329 0.4363
C2_8 C 0.6255(3) 0.0666(10) 0.7036(4)
H2_8 H 0.6479 0.0717 0.7095
C5_8 C 0.9385(3) 0.0962(8) 0.9715(4)
C6_8 C 0.5586(4) 0.0653(15) 0.4000(5)
H4_8 H 0.5357 0.0570 0.3621
C7_8 C 0.6279(4) 0.0903(11) 0.7497(5)
H5_8 H 0.6506 0.1154 0.7845
C11_8 C 0.5926(3) 0.0927(11) 0.4125(5)
C12_8 C 0.5945(4) 0.0744(11) 0.7413(5)
C14_8 C 0.7311(3) 0.0102(8) 0.7267(4)
H11_8 H 0.7229 0.0418 0.7457
H12_8 H 0.7301 0.0660 0.7038
C16_8 C 0.6257(3) 0.0982(10) 0.4694(5)
H15_8 H 0.6493 0.1146 0.4801
C17_8 C 0.5610(4) 0.0402(13) 0.6889(6)
H16_8 H 0.5385 0.0301 0.6827
H17_8 H 0.9120 0.0283 0.7782
H20_8 H 0.9957 0.1878 0.9822
C21_8 C 0.6229(3) 0.0788(10) 0.5105(5)
H22_8 H 0.6457 0.0788 0.5489
C22_8 C 0.5617(4) 0.0209(12) 0.6453(5)
C24_8 C 0.8005(3) 0.0520(7) 0.8138(4)
C26_8 C 0.5921(4) 0.1174(14) 0.3656(5)
H25_8 H 0.5690 0.1131 0.3277
C27_8 C 0.5942(4) 0.0986(13) 0.7881(6)
H26_8 H 0.5736 0.0766 0.7849
C29_8 C 0.6446(4) 0.1994(11) 0.3336(5)
H28_8 H 0.6676 0.2096 0.3712
C30_8 C 0.6436(4) 0.2163(11) 0.9154(5)
H29_8 H 0.6639 0.2419 0.9186
C31_8 C 0.8946(5) 0.0803(12) 0.6216(6)
H30_8 H 0.9164 0.1066 0.6572
C32_8 C 0.6738(3) 0.2863(11) 0.2516(4)
H31_8 H 0.6962 0.3087 0.2600
H32_8 H 0.5923 0.2117 0.9976
C34_8 C 0.9163(3) 0.1422(10) 0.5279(5)
H33_8 H 0.9376 0.1634 0.5327
C35_8 C 0.6760(3) 0.2534(11) 0.2968(5)
H34_8 H 0.6997 0.2513 0.3342
C36_8 C 0.6127(4) 0.2041(13) 0.9567(6)
H35_8 H 0.5926 0.1640 0.9251
C37_8 C 0.9209(4) 0.1301(11) 0.5765(5)
H36_8 H 0.9447 0.1432 0.6129
C38_8 C 0.6435(3) 0.2248(10) 0.2860(4)
C39_8 C 0.6431(4) 0.2405(10) 0.9615(5)
C40_8 C 0.8903(4) 0.0986(10) 0.5703(5)
C41_8 C 0.6089(3) 0.2199(10) 0.2291(5)
H37_8 H 0.5863 0.1977 0.2204
C43_8 C 0.8544(4) 0.0846(11) 0.5154(6)
H39_8 H 0.8329 0.0647 0.5101
C44_8 C 0.6087(3) 0.2483(10) 0.1861(5)
H40_8 H 0.5857 0.2409 0.1482
C46_8 C 0.8519(4) 0.1015(11) 0.4683(5)
H42_8 H 0.8280 0.0961 0.4312
N3_8 N 0.5913(3) 0.0607(8) 0.4998(4)
N4_8 N 0.5910(2) 0.0351(6) 0.6479(3)
N6_8 N 0.6227(3) 0.1444(9) 0.3764(4)
N7_8 N 0.6227(3) 0.1503(10) 0.8329(5)
N8_8 N 0.8794(4) 0.0189(12) 0.6706(5)
N9_8 N 0.6153(3) 0.1640(11) 0.3250(5)
N10_8 N 0.6175(3) 0.1622(11) 0.8723(5)
N11_8 N 0.8694(4) 0.0299(12) 0.6177(5)
O8_8 O 0.9216(2) 0.0137(6) 0.9434(3)
O10_8 O 0.6537(2) 0.0506(6) 0.6360(3)
C3_8 C 0.8462(3) 0.8504(10) 0.7704(5)
H3_8 H 0.8284 0.8087 0.7681
C4_8 C 0.6621(3) 0.9512(7) 0.6442(4)
C8_8 C 0.8390(4) 0.8679(12) 0.7206(5)
H6_8 H 0.8182 0.8346 0.6866
C9_8 C 0.7037(3) 0.9179(8) 0.6874(4)
H7_8 H 0.7064 0.8604 0.7110
H8_8 H 0.7114 0.8893 0.6672
C13_8 C 0.8636(4) 0.9373(11) 0.7219(5)
C18_8 C 0.8947(4) 0.9831(10) 0.7751(5)
C19_8 C 0.7717(3) 0.9695(8) 0.7709(4)
H18_8 H 0.7799 0.9411 0.7513
H19_8 H 0.7718 0.9102 0.7915
H23_8 H 0.5389 0.9952 0.6107
C23_8 C 0.8992(3) 0.9608(10) 0.8220(5)
H24_8 H 0.9186 0.9961 0.8563
C28_8 C 0.8570(4) 0.9583(11) 0.6691(5)
H27_8 H 0.8362 0.9263 0.6346
N5_8 N 0.87595(19) 0.8874(5) 0.8212(3)
O7_8 O 0.63614(19) 0.8812(5) 0.6157(3)
O9_8 O 0.82624(19) 0.7583(5) 0.8462(3)
O12_8 O 0.5461(2) 0.8904(6) 0.5284(4)
H43_8 H 0.803403 0.794213 0.810696
H44_8 H 0.820331 0.737941 0.870607
H45_6 H 0.521611 0.912589 0.490175
H46_8 H 0.540663 0.865931 0.552895
H45_7 H 0.521611 0.0874108 0.990175
H45_8 H 0.478389 0.912589 0.00982523
loop_
_geom_bond_atom_site_label_1
_geom_bond_atom_site_label_2
_geom_bond_site_symmetry_1
_geom_bond_site_symmetry_2
N1 O1 1_555 1_555
O2 N1 1_555 1_555
O3 N1 1_555 1_555
N1_2 O1_2 1_555 1_555
O2_2 N1_2 1_555 1_555
O3_2 N1_2 1_555 1_555
N1_3 O1_3 1_555 1_555
O2_3 N1_3 1_555 1_555
O3_3 N1_3 1_555 1_555
N1_4 O1_4 1_555 1_555
O2_4 N1_4 1_555 1_555
O3_4 N1_4 1_555 1_555
N1_5 O1_5 1_555 1_555
O2_5 N1_5 1_555 1_555
O3_5 N1_5 1_555 1_555
N1_6 O1_6 1_555 1_555
O2_6 N1_6 1_555 1_555
O3_6 N1_6 1_555 1_555
N1_7 O1_7 1_555 1_555
O2_7 N1_7 1_555 1_555
O3_7 N1_7 1_555 1_555
N1_8 O1_8 1_555 1_555
O2_8 N1_8 1_555 1_555
O3_8 N1_8 1_555 1_555
N2 O4 1_555 1_555
O5 N2 1_555 1_555
N2_2 O4_2 1_555 1_555
O5_2 N2_2 1_555 1_555
N2_3 O4_3 1_555 1_555
O5_3 N2_3 1_555 1_555
O6_3 N2_3 1_555 1_555
N2_4 O4_4 1_555 1_555
O5_4 N2_4 1_555 1_555
O6_4 N2_4 1_555 1_555
N2_5 O4_5 1_555 1_555
O5_5 N2_5 1_555 1_555
N2_6 O4_6 1_555 1_555
O5_6 N2_6 1_555 1_555
N2_7 O4_7 1_555 1_555
O5_7 N2_7 1_555 1_555
O6_7 N2_7 1_555 1_555
N2_8 O4_8 1_555 1_555
O5_8 N2_8 1_555 1_555
O6_8 N2_8 1_555 1_555
Cd1 N5 1_555 1_555
Cd3 O7 1_555 1_555
C2 H2 1_555 1_555
C3 H3 1_555 1_555
C4 C9 1_555 1_555
C5 C10 1_555 1_555
C7 C2 1_555 1_555
H5 C7 1_555 1_555
C8 C3 1_555 1_555
H6 C8 1_555 1_555
C9 H7 1_555 1_555
H8 C9 1_555 1_555
C10 H9 1_555 1_555
H10 C10 1_555 1_555
C12 C7 1_555 1_555
C13 C8 1_555 1_555
C14 C9 1_555 1_555
H11 C14 1_555 1_555
H12 C14 1_555 1_555
C15 C10 1_555 1_555
H13 C15 1_555 1_555
H14 C15 1_555 1_555
C17 C12 1_555 1_555
H16 C17 1_555 1_555
C18 C13 1_555 1_555
H17 C18 1_555 1_555
C19 C14 1_555 1_555
H18 C19 1_555 1_555
H19 C19 1_555 1_555
C20 C15 1_555 1_555
H20 C20 1_555 1_555
H21 C20 1_555 1_555
H22 C21 1_555 1_555
C22 C17 1_555 1_555
H23 C22 1_555 1_555
C23 C18 1_555 1_555
H24 C23 1_555 1_555
C24 C19 1_555 1_555
C25 C20 1_555 1_555
C27 C12 1_555 1_555
H26 C27 1_555 1_555
C28 C13 1_555 1_555
H27 C28 1_555 1_555
C30 H29 1_555 1_555
C31 H30 1_555 1_555
C33 H32 1_555 1_555
C34 H33 1_555 1_555
C36 C33 1_555 1_555
H35 C36 1_555 1_555
C37 C34 1_555 1_555
H36 C37 1_555 1_555
C39 C30 1_555 1_555
C40 C31 1_555 1_555
C42 C39 1_555 1_555
H38 C42 1_555 1_555
C43 C40 1_555 1_555
H39 C43 1_555 1_555
C45 C42 1_555 1_555
H41 C45 1_555 1_555
N4 Cd2 1_555 1_555
N5 C3 1_555 1_555
N7 C27 1_555 1_555
N8 C28 1_555 1_555
N10 C30 1_555 1_555
N11 C31 1_555 1_555
N13 C33 1_555 1_555
O7 Cd2 1_555 1_555
O8 Cd1 1_555 1_555
O9 Cd1 1_555 1_555
O10 Cd2 1_555 1_555
O11 C5 1_555 1_555
O12 Cd2 1_555 1_555
O13 Cd1 1_555 1_555
O14 C25 1_555 1_555
O15 C24 1_555 1_555
O16 C25 1_555 1_555
Cd4 O14 1_555 1_555
Cd6 O14 1_555 1_555
Cd7 O11 1_555 1_555
Cd9 N13 1_555 1_555
N15 Cd3 1_555 1_555
N16 Cd3 1_555 1_555
N17 Cd1 1_555 1_555
O17 Cd3 1_555 1_555
O18 Cd3 1_555 1_555
O19 Cd1 1_555 1_555
O20 Cd2 1_555 1_555
O21 Cd3 1_555 1_555
O22 Cd2 1_555 1_555
C2 N4 1_555 1_555
C4 O7 1_555 1_555
C4 O10 1_555 1_555
C5 O8 1_555 1_555
C22 N4 1_555 1_555
C23 N5 1_555 1_555
C24 O13 1_555 1_555
C36 C39 1_555 1_555
C37 C40 1_555 1_555
C45 N13 1_555 1_555
N7 N10 1_555 1_555
N8 N11 1_555 1_555
O13 Cd7 1_555 1_555
O15 Cd7 1_555 1_555
O16 Cd6 1_555 1_555
O9 H43 1_555 1_555
O9 H44 1_555 1_555
O12 H46 1_555 1_555
C1 H1 1_555 1_555
C6 C1 1_555 1_555
H4 C6 1_555 1_555
C11 C6 1_555 1_555
C16 C11 1_555 1_555
H15 C16 1_555 1_555
C26 C11 1_555 1_555
H25 C26 1_555 1_555
C29 H28 1_555 1_555
C32 H31 1_555 1_555
C35 C32 1_555 1_555
H34 C35 1_555 1_555
C38 C29 1_555 1_555
C41 C38 1_555 1_555
H37 C41 1_555 1_555
C44 C41 1_555 1_555
H40 C44 1_555 1_555
H42 C46 1_555 1_555
N3 C1 1_555 1_555
N6 C26 1_555 1_555
N9 C29 1_555 1_555
N12 C32 1_555 1_555
Cd5 N14 1_555 1_555
Cd9 N12 1_555 1_555
C35 C38 1_555 1_555
C44 N12 1_555 1_555
C46 N14 1_555 1_555
N6 N9 1_555 1_555
Cd1_2 N5_2 1_555 1_555
Cd2_2 N3_2 1_555 1_555
Cd3_2 O7_2 1_555 1_555
C1_2 H1_2 1_555 1_555
C2_2 H2_2 1_555 1_555
C3_2 H3_2 1_555 1_555
C4_2 C9_2 1_555 1_555
C6_2 C1_2 1_555 1_555
H4_2 C6_2 1_555 1_555
C7_2 C2_2 1_555 1_555
H5_2 C7_2 1_555 1_555
C8_2 C3_2 1_555 1_555
H6_2 C8_2 1_555 1_555
C9_2 H7_2 1_555 1_555
H8_2 C9_2 1_555 1_555
C11_2 C6_2 1_555 1_555
C12_2 C7_2 1_555 1_555
C13_2 C8_2 1_555 1_555
C14_2 C9_2 1_555 1_555
H11_2 C14_2 1_555 1_555
H12_2 C14_2 1_555 1_555
C16_2 C11_2 1_555 1_555
H15_2 C16_2 1_555 1_555
C17_2 C12_2 1_555 1_555
H16_2 C17_2 1_555 1_555
C18_2 C13_2 1_555 1_555
H17_2 C18_2 1_555 1_555
C19_2 C14_2 1_555 1_555
H18_2 C19_2 1_555 1_555
H19_2 C19_2 1_555 1_555
C21_2 C16_2 1_555 1_555
H22_2 C21_2 1_555 1_555
C22_2 C17_2 1_555 1_555
H23_2 C22_2 1_555 1_555
C23_2 C18_2 1_555 1_555
H24_2 C23_2 1_555 1_555
C24_2 C19_2 1_555 1_555
C26_2 C11_2 1_555 1_555
H25_2 C26_2 1_555 1_555
C27_2 C12_2 1_555 1_555
H26_2 C27_2 1_555 1_555
C28_2 C13_2 1_555 1_555
H27_2 C28_2 1_555 1_555
C29_2 H28_2 1_555 1_555
C30_2 H29_2 1_555 1_555
C31_2 H30_2 1_555 1_555
C32_2 H31_2 1_555 1_555
C34_2 H33_2 1_555 1_555
C35_2 C32_2 1_555 1_555
H34_2 C35_2 1_555 1_555
H35_2 C36_2 1_555 1_555
C37_2 C34_2 1_555 1_555
H36_2 C37_2 1_555 1_555
C38_2 C29_2 1_555 1_555
C39_2 C30_2 1_555 1_555
C40_2 C31_2 1_555 1_555
C41_2 C38_2 1_555 1_555
H37_2 C41_2 1_555 1_555
C43_2 C40_2 1_555 1_555
H39_2 C43_2 1_555 1_555
C44_2 C41_2 1_555 1_555
H40_2 C44_2 1_555 1_555
C46_2 C43_2 1_555 1_555
H42_2 C46_2 1_555 1_555
N3_2 C1_2 1_555 1_555
N4_2 Cd2_2 1_555 1_555
N5_2 C3_2 1_555 1_555
N6_2 C26_2 1_555 1_555
N7_2 C27_2 1_555 1_555
N8_2 C28_2 1_555 1_555
N9_2 C29_2 1_555 1_555
N10_2 C30_2 1_555 1_555
N11_2 C31_2 1_555 1_555
N12_2 C32_2 1_555 1_555
N14_2 C34_2 1_555 1_555
O7_2 Cd2_2 1_555 1_555
O8_2 Cd1_2 1_555 1_555
O9_2 Cd1_2 1_555 1_555
O10_2 Cd2_2 1_555 1_555
O11_2 C5_2 1_555 1_555
O12_2 Cd2_2 1_555 1_555
O13_2 Cd1_2 1_555 1_555
O15_2 C24_2 1_555 1_555
Cd4 N14_2 1_555 1_555
Cd7_2 O11_2 1_555 1_555
Cd8 N12_2 1_555 1_555
N15_2 Cd3_2 1_555 1_555
N16_2 Cd3_2 1_555 1_555
N17_2 Cd1_2 1_555 1_555
O17_2 Cd3_2 1_555 1_555
O18_2 Cd3_2 1_555 1_555
O19_2 Cd1_2 1_555 1_555
O20_2 Cd2_2 1_555 1_555
O21_2 Cd3_2 1_555 1_555
O22_2 Cd2_2 1_555 1_555
C2_2 N4_2 1_555 1_555
C4_2 O7_2 1_555 1_555
C4_2 O10_2 1_555 1_555
C5_2 O8_2 1_555 1_555
C21_2 N3_2 1_555 1_555
C22_2 N4_2 1_555 1_555
C23_2 N5_2 1_555 1_555
C24_2 O13_2 1_555 1_555
C35_2 C38_2 1_555 1_555
C36_2 C39_2 1_555 1_555
C37_2 C40_2 1_555 1_555
C44_2 N12_2 1_555 1_555
C46_2 N14_2 1_555 1_555
N6_2 N9_2 1_555 1_555
N7_2 N10_2 1_555 1_555
N8_2 N11_2 1_555 1_555
O13_2 Cd7_2 1_555 1_555
O15_2 Cd7_2 1_555 1_555
O9_2 H43_2 1_555 1_555
O9_2 H44_2 1_555 1_555
O12_2 H45_2 1_555 1_555
O12_2 H46_2 1_555 1_555
C10_2 H9_2 1_555 1_555
H10_2 C10_2 1_555 1_555
C15_2 C10_2 1_555 1_555
H13_2 C15_2 1_555 1_555
H14_2 C15_2 1_555 1_555
C20_2 C15_2 1_555 1_555
H21_2 C20_2 1_555 1_555
C25_2 C20_2 1_555 1_555
H38_2 C42_2 1_555 1_555
C45_2 C42_2 1_555 1_555
H41_2 C45_2 1_555 1_555
N13_2 C33_2 1_555 1_555
O14_2 C25_2 1_555 1_555
O16_2 C25_2 1_555 1_555
Cd5 O14_2 1_555 1_555
Cd6_2 O14_2 1_555 1_555
Cd8 N13_2 1_555 1_555
C45_2 N13_2 1_555 1_555
O16_2 Cd6_2 1_555 1_555
H13_3 C15_3 1_555 1_555
C20_3 C15_3 1_555 1_555
H21_3 C20_3 1_555 1_555
C25_3 C20_3 1_555 1_555
O14_3 C25_3 1_555 1_555
O16_3 C25_3 1_555 1_555
Cd4_2 O14_3 1_555 1_555
Cd6_3 O14_3 1_555 1_555
O16_3 Cd6_3 1_555 1_555
Cd1_3 N5_3 1_555 1_555
Cd7_2 O7_3 1_555 1_555
C3_3 H3_3 1_555 1_555
C4_3 C9_3 1_555 1_555
C8_3 C3_3 1_555 1_555
H6_3 C8_3 1_555 1_555
C9_3 H7_3 1_555 1_555
H8_3 C9_3 1_555 1_555
C13_3 C8_3 1_555 1_555
C18_3 C13_3 1_555 1_555
H18_3 C19_3 1_555 1_555
H19_3 C19_3 1_555 1_555
C23_3 C18_3 1_555 1_555
H24_3 C23_3 1_555 1_555
C28_3 C13_3 1_555 1_555
H27_3 C28_3 1_555 1_555
N5_3 C3_3 1_555 1_555
O9_3 Cd1_3 1_555 1_555
N15_3 Cd7_2 1_555 1_555
N16_3 Cd7_2 1_555 1_555
N17_3 Cd1_3 1_555 1_555
O20_2 Cd1_3 1_555 1_555
C4_3 O7_3 1_555 1_555
C23_3 N5_3 1_555 1_555
O9_3 H43_3 1_555 1_555
O9_3 H44_3 1_555 1_555
O12_3 H46_3 1_555 1_555
C2_3 H2_3 1_555 1_555
C5_3 C10_3 1_555 1_555
C7_3 C2_3 1_555 1_555
H5_3 C7_3 1_555 1_555
C10_3 H9_3 1_555 1_555
H10_3 C10_3 1_555 1_555
C12_3 C7_3 1_555 1_555
H11_3 C14_3 1_555 1_555
H12_3 C14_3 1_555 1_555
C17_3 C12_3 1_555 1_555
H16_3 C17_3 1_555 1_555
H22_3 C21_3 1_555 1_555
C22_3 C17_3 1_555 1_555
C27_3 C12_3 1_555 1_555
H26_3 C27_3 1_555 1_555
C30_3 H29_3 1_555 1_555
C31_3 H30_3 1_555 1_555
C33_3 H32_3 1_555 1_555
C34_3 H33_3 1_555 1_555
C36_3 C33_3 1_555 1_555
H35_3 C36_3 1_555 1_555
C37_3 C34_3 1_555 1_555
H36_3 C37_3 1_555 1_555
C39_3 C30_3 1_555 1_555
C40_3 C31_3 1_555 1_555
C42_3 C39_3 1_555 1_555
H38_3 C42_3 1_555 1_555
C43_3 C40_3 1_555 1_555
H39_3 C43_3 1_555 1_555
C45_3 C42_3 1_555 1_555
H41_3 C45_3 1_555 1_555
N4_3 Cd2_3 1_555 1_555
N7_3 C27_3 1_555 1_555
N10_3 C30_3 1_555 1_555
N11_3 C31_3 1_555 1_555
N13_3 C33_3 1_555 1_555
O10_3 Cd2_3 1_555 1_555
O17_2 C5_3 1_555 1_555
O21_2 C24_3 1_555 1_555
Cd9_2 N13_3 1_555 1_555
O19_2 Cd2_3 1_555 1_555
O22_3 Cd2_3 1_555 1_555
C2_3 N4_3 1_555 1_555
C5_3 O8_3 1_555 1_555
C22_3 N4_3 1_555 1_555
C24_3 O18_2 1_555 1_555
C36_3 C39_3 1_555 1_555
C37_3 C40_3 1_555 1_555
C45_3 N13_3 1_555 1_555
N7_3 N10_3 1_555 1_555
N8_3 N11_3 1_555 1_555
C1_3 H1_3 1_555 1_555
C6_3 C1_3 1_555 1_555
H4_3 C6_3 1_555 1_555
C11_3 C6_3 1_555 1_555
C16_3 C11_3 1_555 1_555
H15_3 C16_3 1_555 1_555
C26_3 C11_3 1_555 1_555
H25_3 C26_3 1_555 1_555
C29_3 H28_3 1_555 1_555
C32_3 H31_3 1_555 1_555
C35_3 C32_3 1_555 1_555
H34_3 C35_3 1_555 1_555
C38_3 C29_3 1_555 1_555
C41_3 C38_3 1_555 1_555
H37_3 C41_3 1_555 1_555
C44_3 C41_3 1_555 1_555
H40_3 C44_3 1_555 1_555
H42_3 C46_3 1_555 1_555
N3_3 C1_3 1_555 1_555
N6_3 C26_3 1_555 1_555
N9_3 C29_3 1_555 1_555
N12_3 C32_3 1_555 1_555
Cd5_2 N14_3 1_555 1_555
Cd9_2 N12_3 1_555 1_555
C35_3 C38_3 1_555 1_555
C44_3 N12_3 1_555 1_555
C46_3 N14_3 1_555 1_555
N6_3 N9_3 1_555 1_555
Cd1_4 N5_4 1_555 1_555
Cd7 O7_4 1_555 1_555
C3_4 H3_4 1_555 1_555
C4_4 C9_4 1_555 1_555
C8_4 C3_4 1_555 1_555
H6_4 C8_4 1_555 1_555
C9_4 H7_4 1_555 1_555
H8_4 C9_4 1_555 1_555
C13_4 C8_4 1_555 1_555
C18_4 C13_4 1_555 1_555
H18_4 C19_4 1_555 1_555
H19_4 C19_4 1_555 1_555
C23_4 C18_4 1_555 1_555
H24_4 C23_4 1_555 1_555
C28_4 C13_4 1_555 1_555
H27_4 C28_4 1_555 1_555
N5_4 C3_4 1_555 1_555
O9_4 Cd1_4 1_555 1_555
N15_4 Cd7 1_555 1_555
N16_4 Cd7 1_555 1_555
N17_4 Cd1_4 1_555 1_555
O20 Cd1_4 1_555 1_555
C4_4 O7_4 1_555 1_555
C23_4 N5_4 1_555 1_555
O9_4 H43_4 1_555 1_555
O9_4 H44_4 1_555 1_555
O12_4 H45_3 1_555 1_555
O12_4 H46_4 1_555 1_555
Cd2_4 N3_4 1_555 1_555
C1_4 H1_4 1_555 1_555
C2_4 H2_4 1_555 1_555
C6_4 C1_4 1_555 1_555
H4_4 C6_4 1_555 1_555
C7_4 C2_4 1_555 1_555
H5_4 C7_4 1_555 1_555
C11_4 C6_4 1_555 1_555
C12_4 C7_4 1_555 1_555
H11_4 C14_4 1_555 1_555
H12_4 C14_4 1_555 1_555
C16_4 C11_4 1_555 1_555
H15_4 C16_4 1_555 1_555
C17_4 C12_4 1_555 1_555
H16_4 C17_4 1_555 1_555
C21_4 C16_4 1_555 1_555
H22_4 C21_4 1_555 1_555
C22_4 C17_4 1_555 1_555
C26_4 C11_4 1_555 1_555
H25_4 C26_4 1_555 1_555
C27_4 C12_4 1_555 1_555
H26_4 C27_4 1_555 1_555
C29_4 H28_4 1_555 1_555
C30_4 H29_4 1_555 1_555
C31_4 H30_4 1_555 1_555
C32_4 H31_4 1_555 1_555
C34_4 H33_4 1_555 1_555
C35_4 C32_4 1_555 1_555
H34_4 C35_4 1_555 1_555
H35_4 C36_4 1_555 1_555
C37_4 C34_4 1_555 1_555
H36_4 C37_4 1_555 1_555
C38_4 C29_4 1_555 1_555
C39_4 C30_4 1_555 1_555
C40_4 C31_4 1_555 1_555
C41_4 C38_4 1_555 1_555
H37_4 C41_4 1_555 1_555
C43_4 C40_4 1_555 1_555
H39_4 C43_4 1_555 1_555
C44_4 C41_4 1_555 1_555
H40_4 C44_4 1_555 1_555
C46_4 C43_4 1_555 1_555
H42_4 C46_4 1_555 1_555
N3_4 C1_4 1_555 1_555
N4_4 Cd2_4 1_555 1_555
N6_4 C26_4 1_555 1_555
N7_4 C27_4 1_555 1_555
N9_4 C29_4 1_555 1_555
N10_4 C30_4 1_555 1_555
N11_4 C31_4 1_555 1_555
N12_4 C32_4 1_555 1_555
N14_4 C34_4 1_555 1_555
O10_4 Cd2_4 1_555 1_555
O17 C5_4 1_555 1_555
O21 C24_4 1_555 1_555
Cd4_2 N14_4 1_555 1_555
Cd8_2 N12_4 1_555 1_555
O19 Cd2_4 1_555 1_555
O22_4 Cd2_4 1_555 1_555
C2_4 N4_4 1_555 1_555
C5_4 O8_4 1_555 1_555
C21_4 N3_4 1_555 1_555
C22_4 N4_4 1_555 1_555
C24_4 O18 1_555 1_555
C35_4 C38_4 1_555 1_555
C36_4 C39_4 1_555 1_555
C37_4 C40_4 1_555 1_555
C44_4 N12_4 1_555 1_555
C46_4 N14_4 1_555 1_555
N6_4 N9_4 1_555 1_555
N7_4 N10_4 1_555 1_555
N8_4 N11_4 1_555 1_555
C10_4 H9_4 1_555 1_555
H10_4 C10_4 1_555 1_555
H38_4 C42_4 1_555 1_555
C45_4 C42_4 1_555 1_555
H41_4 C45_4 1_555 1_555
N13_4 C33_4 1_555 1_555
Cd8_2 N13_4 1_555 1_555
C45_4 N13_4 1_555 1_555
H13_4 C15_4 1_555 1_555
C20_4 C15_4 1_555 1_555
H21_4 C20_4 1_555 1_555
C25_4 C20_4 1_555 1_555
O14_4 C25_4 1_555 1_555
O16_4 C25_4 1_555 1_555
Cd5_2 O14_4 1_555 1_555
Cd6_4 O14_4 1_555 1_555
O16_4 Cd6_4 1_555 1_555
C1_5 H1_5 1_555 1_555
C6_5 C1_5 1_555 1_555
H4_5 C6_5 1_555 1_555
C11_5 C6_5 1_555 1_555
C16_5 C11_5 1_555 1_555
H15_5 C16_5 1_555 1_555
C26_5 C11_5 1_555 1_555
H25_5 C26_5 1_555 1_555
C29_5 H28_5 1_555 1_555
C32_5 H31_5 1_555 1_555
C35_5 C32_5 1_555 1_555
H34_5 C35_5 1_555 1_555
C38_5 C29_5 1_555 1_555
C41_5 C38_5 1_555 1_555
H37_5 C41_5 1_555 1_555
C44_5 C41_5 1_555 1_555
H40_5 C44_5 1_555 1_555
H42_5 C46_5 1_555 1_555
N3_5 C1_5 1_555 1_555
N6_5 C26_5 1_555 1_555
N9_5 C29_5 1_555 1_555
N15_2 C32_5 1_555 1_555
C35_5 C38_5 1_555 1_555
C44_5 N15_2 1_555 1_555
C46_5 N17_2 1_555 1_555
N6_5 N9_5 1_555 1_555
Cd4 N5_5 1_555 1_555
Cd8 O7_5 1_555 1_555
C2_5 H2_5 1_555 1_555
C3_5 H3_5 1_555 1_555
C4_5 C9_5 1_555 1_555
C5_5 C10_5 1_555 1_555
C7_5 C2_5 1_555 1_555
H5_5 C7_5 1_555 1_555
C8_5 C3_5 1_555 1_555
H6_5 C8_5 1_555 1_555
C9_5 H7_5 1_555 1_555
H8_5 C9_5 1_555 1_555
C10_5 H9_5 1_555 1_555
H10_5 C10_5 1_555 1_555
C12_5 C7_5 1_555 1_555
C13_5 C8_5 1_555 1_555
C14_5 C9_5 1_555 1_555
H11_5 C14_5 1_555 1_555
H12_5 C14_5 1_555 1_555
C15_5 C10_5 1_555 1_555
H13_5 C15_5 1_555 1_555
H14_5 C15_5 1_555 1_555
C17_5 C12_5 1_555 1_555
H16_5 C17_5 1_555 1_555
C18_5 C13_5 1_555 1_555
H17_5 C18_5 1_555 1_555
C19_5 C14_5 1_555 1_555
H18_5 C19_5 1_555 1_555
H19_5 C19_5 1_555 1_555
C20_5 C15_5 1_555 1_555
H20_5 C20_5 1_555 1_555
H21_5 C20_5 1_555 1_555
H22_5 C21_5 1_555 1_555
C22_5 C17_5 1_555 1_555
H23_5 C22_5 1_555 1_555
C23_5 C18_5 1_555 1_555
H24_5 C23_5 1_555 1_555
C24_5 C19_5 1_555 1_555
C25_5 C20_5 1_555 1_555
C27_5 C12_5 1_555 1_555
H26_5 C27_5 1_555 1_555
C28_5 C13_5 1_555 1_555
H27_5 C28_5 1_555 1_555
C30_5 H29_5 1_555 1_555
C31_5 H30_5 1_555 1_555
C33_5 H32_5 1_555 1_555
C34_5 H33_5 1_555 1_555
C36_5 C33_5 1_555 1_555
H35_5 C36_5 1_555 1_555
C37_5 C34_5 1_555 1_555
H36_5 C37_5 1_555 1_555
C39_5 C30_5 1_555 1_555
C40_5 C31_5 1_555 1_555
C42_5 C39_5 1_555 1_555
H38_5 C42_5 1_555 1_555
C43_5 C40_5 1_555 1_555
H39_5 C43_5 1_555 1_555
C45_5 C42_5 1_555 1_555
H41_5 C45_5 1_555 1_555
N4_5 Cd6_4 1_555 1_555
N5_5 C3_5 1_555 1_555
N7_5 C27_5 1_555 1_555
N8_5 C28_5 1_555 1_555
N10_5 C30_5 1_555 1_555
N11_5 C31_5 1_555 1_555
N16_2 C33_5 1_555 1_555
O7_5 Cd6_4 1_555 1_555
O8_5 Cd4 1_555 1_555
O9_5 Cd4 1_555 1_555
O10_5 Cd6_4 1_555 1_555
O11_3 C5_5 1_555 1_555
O12_5 Cd6_4 1_555 1_555
O13_3 Cd4 1_555 1_555
O19 C25_5 1_555 1_555
O15_3 C24_5 1_555 1_555
O22_4 C25_5 1_555 1_555
Cd9_2 O11_3 1_555 1_555
O17_3 Cd8 1_555 1_555
O18_3 Cd8 1_555 1_555
O21_3 Cd8 1_555 1_555
C2_5 N4_5 1_555 1_555
C4_5 O7_5 1_555 1_555
C4_5 O10_5 1_555 1_555
C5_5 O8_5 1_555 1_555
C22_5 N4_5 1_555 1_555
C23_5 N5_5 1_555 1_555
C24_5 O13_3 1_555 1_555
C36_5 C39_5 1_555 1_555
C37_5 C40_5 1_555 1_555
C45_5 N16_2 1_555 1_555
N7_5 N10_5 1_555 1_555
N8_5 N11_5 1_555 1_555
O13_3 Cd9_2 1_555 1_555
O15_3 Cd9_2 1_555 1_555
O9_5 H43_5 1_555 1_555
O9_5 H44_5 1_555 1_555
O12_5 H46_5 1_555 1_555
C10_6 H9_6 1_555 1_555
H10_6 C10_6 1_555 1_555
C15_6 C10_6 1_555 1_555
H13_6 C15_6 1_555 1_555
H14_6 C15_6 1_555 1_555
C20_6 C15_6 1_555 1_555
H21_6 C20_6 1_555 1_555
C25_6 C20_6 1_555 1_555
H38_6 C42_6 1_555 1_555
C45_6 C42_6 1_555 1_555
H41_6 C45_6 1_555 1_555
N16 C33_6 1_555 1_555
O19_2 C25_6 1_555 1_555
O22_3 C25_6 1_555 1_555
C45_6 N16 1_555 1_555
Cd5 N5_6 1_555 1_555
Cd6_3 N3_6 1_555 1_555
Cd9 O7_6 1_555 1_555
C1_6 H1_6 1_555 1_555
C2_6 H2_6 1_555 1_555
C3_6 H3_6 1_555 1_555
C4_6 C9_6 1_555 1_555
C6_6 C1_6 1_555 1_555
H4_6 C6_6 1_555 1_555
C7_6 C2_6 1_555 1_555
H5_6 C7_6 1_555 1_555
C8_6 C3_6 1_555 1_555
H6_6 C8_6 1_555 1_555
C9_6 H7_6 1_555 1_555
H8_6 C9_6 1_555 1_555
C11_6 C6_6 1_555 1_555
C12_6 C7_6 1_555 1_555
C13_6 C8_6 1_555 1_555
C14_6 C9_6 1_555 1_555
H11_6 C14_6 1_555 1_555
H12_6 C14_6 1_555 1_555
C16_6 C11_6 1_555 1_555
H15_6 C16_6 1_555 1_555
C17_6 C12_6 1_555 1_555
H16_6 C17_6 1_555 1_555
C18_6 C13_6 1_555 1_555
H17_6 C18_6 1_555 1_555
C19_6 C14_6 1_555 1_555
H18_6 C19_6 1_555 1_555
H19_6 C19_6 1_555 1_555
C21_6 C16_6 1_555 1_555
H22_6 C21_6 1_555 1_555
C22_6 C17_6 1_555 1_555
H23_6 C22_6 1_555 1_555
C23_6 C18_6 1_555 1_555
H24_6 C23_6 1_555 1_555
C24_6 C19_6 1_555 1_555
C26_6 C11_6 1_555 1_555
H25_6 C26_6 1_555 1_555
C27_6 C12_6 1_555 1_555
H26_6 C27_6 1_555 1_555
C28_6 C13_6 1_555 1_555
H27_6 C28_6 1_555 1_555
C29_6 H28_6 1_555 1_555
C30_6 H29_6 1_555 1_555
C31_6 H30_6 1_555 1_555
C32_6 H31_6 1_555 1_555
C34_6 H33_6 1_555 1_555
C35_6 C32_6 1_555 1_555
H34_6 C35_6 1_555 1_555
H35_6 C36_6 1_555 1_555
C37_6 C34_6 1_555 1_555
H36_6 C37_6 1_555 1_555
C38_6 C29_6 1_555 1_555
C39_6 C30_6 1_555 1_555
C40_6 C31_6 1_555 1_555
C41_6 C38_6 1_555 1_555
H37_6 C41_6 1_555 1_555
C43_6 C40_6 1_555 1_555
H39_6 C43_6 1_555 1_555
C44_6 C41_6 1_555 1_555
H40_6 C44_6 1_555 1_555
C46_6 C43_6 1_555 1_555
H42_6 C46_6 1_555 1_555
N3_6 C1_6 1_555 1_555
N4_6 Cd6_3 1_555 1_555
N5_6 C3_6 1_555 1_555
N6_6 C26_6 1_555 1_555
N7_6 C27_6 1_555 1_555
N8_6 C28_6 1_555 1_555
N9_6 C29_6 1_555 1_555
N10_6 C30_6 1_555 1_555
N11_6 C31_6 1_555 1_555
N15 C32_6 1_555 1_555
N17 C34_6 1_555 1_555
O7_6 Cd6_3 1_555 1_555
O8_6 Cd5 1_555 1_555
O9_6 Cd5 1_555 1_555
O10_6 Cd6_3 1_555 1_555
O11_4 C5_6 1_555 1_555
O12_6 Cd6_3 1_555 1_555
O13_4 Cd5 1_555 1_555
O15_4 C24_6 1_555 1_555
Cd8_2 O11_4 1_555 1_555
O17_4 Cd9 1_555 1_555
O18_4 Cd9 1_555 1_555
O21_4 Cd9 1_555 1_555
C2_6 N4_6 1_555 1_555
C4_6 O7_6 1_555 1_555
C4_6 O10_6 1_555 1_555
C5_6 O8_6 1_555 1_555
C21_6 N3_6 1_555 1_555
C22_6 N4_6 1_555 1_555
C23_6 N5_6 1_555 1_555
C24_6 O13_4 1_555 1_555
C35_6 C38_6 1_555 1_555
C36_6 C39_6 1_555 1_555
C37_6 C40_6 1_555 1_555
C44_6 N15 1_555 1_555
C46_6 N17 1_555 1_555
N6_6 N9_6 1_555 1_555
N7_6 N10_6 1_555 1_555
N8_6 N11_6 1_555 1_555
O13_4 Cd8_2 1_555 1_555
O15_4 Cd8_2 1_555 1_555
O9_6 H43_6 1_555 1_555
O9_6 H44_6 1_555 1_555
O12_6 H45_5 1_555 1_555
O12_6 H46_6 1_555 1_555
C1_7 H1_7 1_555 1_555
C6_7 C1_7 1_555 1_555
H4_7 C6_7 1_555 1_555
C11_7 C6_7 1_555 1_555
C16_7 C11_7 1_555 1_555
H15_7 C16_7 1_555 1_555
C26_7 C11_7 1_555 1_555
H25_7 C26_7 1_555 1_555
C29_7 H28_7 1_555 1_555
C32_7 H31_7 1_555 1_555
C35_7 C32_7 1_555 1_555
H34_7 C35_7 1_555 1_555
C38_7 C29_7 1_555 1_555
C41_7 C38_7 1_555 1_555
H37_7 C41_7 1_555 1_555
C44_7 C41_7 1_555 1_555
H40_7 C44_7 1_555 1_555
H42_7 C46_7 1_555 1_555
N3_7 C1_7 1_555 1_555
N6_7 C26_7 1_555 1_555
N9_7 C29_7 1_555 1_555
N15_4 C32_7 1_555 1_555
C35_7 C38_7 1_555 1_555
C44_7 N15_4 1_555 1_555
C46_7 N17_4 1_555 1_555
N6_7 N9_7 1_555 1_555
C2_7 H2_7 1_555 1_555
C5_7 C10_7 1_555 1_555
C7_7 C2_7 1_555 1_555
H5_7 C7_7 1_555 1_555
C10_7 H9_7 1_555 1_555
H10_7 C10_7 1_555 1_555
C12_7 C7_7 1_555 1_555
H11_7 C14_7 1_555 1_555
H12_7 C14_7 1_555 1_555
C17_7 C12_7 1_555 1_555
H16_7 C17_7 1_555 1_555
H22_7 C21_7 1_555 1_555
C22_7 C17_7 1_555 1_555
C27_7 C12_7 1_555 1_555
H26_7 C27_7 1_555 1_555
C30_7 H29_7 1_555 1_555
C31_7 H30_7 1_555 1_555
C33_7 H32_7 1_555 1_555
C34_7 H33_7 1_555 1_555
C36_7 C33_7 1_555 1_555
H35_7 C36_7 1_555 1_555
C37_7 C34_7 1_555 1_555
H36_7 C37_7 1_555 1_555
C39_7 C30_7 1_555 1_555
C40_7 C31_7 1_555 1_555
C42_7 C39_7 1_555 1_555
H38_7 C42_7 1_555 1_555
C43_7 C40_7 1_555 1_555
H39_7 C43_7 1_555 1_555
C45_7 C42_7 1_555 1_555
H41_7 C45_7 1_555 1_555
N4_7 Cd6_2 1_555 1_555
N7_7 C27_7 1_555 1_555
N10_7 C30_7 1_555 1_555
N11_7 C31_7 1_555 1_555
N16_4 C33_7 1_555 1_555
O10_7 Cd6_2 1_555 1_555
O17_4 C5_7 1_555 1_555
O21_4 C24_7 1_555 1_555
C2_7 N4_7 1_555 1_555
C5_7 O8_7 1_555 1_555
C22_7 N4_7 1_555 1_555
C24_7 O18_4 1_555 1_555
C36_7 C39_7 1_555 1_555
C37_7 C40_7 1_555 1_555
C45_7 N16_4 1_555 1_555
N7_7 N10_7 1_555 1_555
N8_7 N11_7 1_555 1_555
Cd4_2 N5_7 1_555 1_555
Cd8_2 O7_7 1_555 1_555
C3_7 H3_7 1_555 1_555
C4_7 C9_7 1_555 1_555
C8_7 C3_7 1_555 1_555
H6_7 C8_7 1_555 1_555
C9_7 H7_7 1_555 1_555
H8_7 C9_7 1_555 1_555
C13_7 C8_7 1_555 1_555
C18_7 C13_7 1_555 1_555
H18_7 C19_7 1_555 1_555
H19_7 C19_7 1_555 1_555
C23_7 C18_7 1_555 1_555
H24_7 C23_7 1_555 1_555
C28_7 C13_7 1_555 1_555
H27_7 C28_7 1_555 1_555
N5_7 C3_7 1_555 1_555
O9_7 Cd4_2 1_555 1_555
C4_7 O7_7 1_555 1_555
C23_7 N5_7 1_555 1_555
O9_7 H43_7 1_555 1_555
O9_7 H44_7 1_555 1_555
O12_7 H46_7 1_555 1_555
H13_7 C15_7 1_555 1_555
C20_7 C15_7 1_555 1_555
H21_7 C20_7 1_555 1_555
C25_7 C20_7 1_555 1_555
O20_2 C25_7 1_555 1_555
O22_2 C25_7 1_555 1_555
H13_8 C15_8 1_555 1_555
C20_8 C15_8 1_555 1_555
H21_8 C20_8 1_555 1_555
C25_8 C20_8 1_555 1_555
O20 C25_8 1_555 1_555
O22 C25_8 1_555 1_555
C10_8 H9_8 1_555 1_555
H10_8 C10_8 1_555 1_555
H38_8 C42_8 1_555 1_555
C45_8 C42_8 1_555 1_555
H41_8 C45_8 1_555 1_555
N16_3 C33_8 1_555 1_555
C45_8 N16_3 1_555 1_555
Cd6 N3_8 1_555 1_555
C1_8 H1_8 1_555 1_555
C2_8 H2_8 1_555 1_555
C6_8 C1_8 1_555 1_555
H4_8 C6_8 1_555 1_555
C7_8 C2_8 1_555 1_555
H5_8 C7_8 1_555 1_555
C11_8 C6_8 1_555 1_555
C12_8 C7_8 1_555 1_555
H11_8 C14_8 1_555 1_555
H12_8 C14_8 1_555 1_555
C16_8 C11_8 1_555 1_555
H15_8 C16_8 1_555 1_555
C17_8 C12_8 1_555 1_555
H16_8 C17_8 1_555 1_555
C21_8 C16_8 1_555 1_555
H22_8 C21_8 1_555 1_555
C22_8 C17_8 1_555 1_555
C26_8 C11_8 1_555 1_555
H25_8 C26_8 1_555 1_555
C27_8 C12_8 1_555 1_555
H26_8 C27_8 1_555 1_555
C29_8 H28_8 1_555 1_555
C30_8 H29_8 1_555 1_555
C31_8 H30_8 1_555 1_555
C32_8 H31_8 1_555 1_555
C34_8 H33_8 1_555 1_555
C35_8 C32_8 1_555 1_555
H34_8 C35_8 1_555 1_555
H35_8 C36_8 1_555 1_555
C37_8 C34_8 1_555 1_555
H36_8 C37_8 1_555 1_555
C38_8 C29_8 1_555 1_555
C39_8 C30_8 1_555 1_555
C40_8 C31_8 1_555 1_555
C41_8 C38_8 1_555 1_555
H37_8 C41_8 1_555 1_555
C43_8 C40_8 1_555 1_555
H39_8 C43_8 1_555 1_555
C44_8 C41_8 1_555 1_555
H40_8 C44_8 1_555 1_555
C46_8 C43_8 1_555 1_555
H42_8 C46_8 1_555 1_555
N3_8 C1_8 1_555 1_555
N4_8 Cd6 1_555 1_555
N6_8 C26_8 1_555 1_555
N7_8 C27_8 1_555 1_555
N9_8 C29_8 1_555 1_555
N10_8 C30_8 1_555 1_555
N11_8 C31_8 1_555 1_555
N15_3 C32_8 1_555 1_555
N17_3 C34_8 1_555 1_555
O10_8 Cd6 1_555 1_555
O17_3 C5_8 1_555 1_555
O21_3 C24_8 1_555 1_555
C2_8 N4_8 1_555 1_555
C5_8 O8_8 1_555 1_555
C21_8 N3_8 1_555 1_555
C22_8 N4_8 1_555 1_555
C24_8 O18_3 1_555 1_555
C35_8 C38_8 1_555 1_555
C36_8 C39_8 1_555 1_555
C37_8 C40_8 1_555 1_555
C44_8 N15_3 1_555 1_555
C46_8 N17_3 1_555 1_555
N6_8 N9_8 1_555 1_555
N7_8 N10_8 1_555 1_555
N8_8 N11_8 1_555 1_555
Cd5_2 N5_8 1_555 1_555
Cd9_2 O7_8 1_555 1_555
C3_8 H3_8 1_555 1_555
C4_8 C9_8 1_555 1_555
C8_8 C3_8 1_555 1_555
H6_8 C8_8 1_555 1_555
C9_8 H7_8 1_555 1_555
H8_8 C9_8 1_555 1_555
C13_8 C8_8 1_555 1_555
C18_8 C13_8 1_555 1_555
H18_8 C19_8 1_555 1_555
H19_8 C19_8 1_555 1_555
C23_8 C18_8 1_555 1_555
H24_8 C23_8 1_555 1_555
C28_8 C13_8 1_555 1_555
H27_8 C28_8 1_555 1_555
N5_8 C3_8 1_555 1_555
O9_8 Cd5_2 1_555 1_555
C4_8 O7_8 1_555 1_555
C23_8 N5_8 1_555 1_555
O9_8 H43_8 1_555 1_555
O9_8 H44_8 1_555 1_555
O12_8 H45_6 1_555 1_555
O12_8 H46_8 1_555 1_555

#END
