
###############################################################################
#
# This file contains modified crystal structure data generated from the
# MOF subset of the Cambridge Structural Database (CSD) v543 
# hosted by the Cambridge Crystallographic Data Centre (CCDC).
#
# This work is licensed under the Creative Commons
# Attribution-NonCommercial-ShareAlike 4.0 International License.
# To view a copy of this license, visit
# http://creativecommons.org/licenses/by-nc-sa/4.0/
# or send a letter to
# Creative Commons, PO Box 1866, Mountain View, CA 94042, USA.
#
# CIF created using the CSD Python API on 29 September 2022
# The structure has been converted into the P1 space group
# The structure has a 3D framework
# The original CSD entry GUKMAD is in the monoclinic crystal system
# The framework has been calculated to contain at least 10.0% void space
# The void calculation uses a probe of radius 1.32A, grid spacing 0.4
#
###############################################################################

data_GUKMAD
_chemical_formula_moiety         '(C208 H144 N32 O40 Zn4)n'
_symmetry_cell_setting           triclinic
_symmetry_space_group_name_H-M   'P 1'
_symmetry_Int_Tables_number      1
_space_group_name_Hall           'P 1'
loop_
_symmetry_equiv_pos_site_id
_symmetry_equiv_pos_as_xyz
1 x,y,z
_cell_length_a                   16.810
_cell_length_b                   10.950
_cell_length_c                   31.910
_cell_angle_alpha                90
_cell_angle_beta                 92.30
_cell_angle_gamma                90
_cell_volume                     5868.93
loop_
_atom_site_label
_atom_site_type_symbol
_atom_site_fract_x
_atom_site_fract_y
_atom_site_fract_z
H1 H 0.526477 0.070591 0.391254
N4 N 0.7083(3) 0.0596(5) 0.18985(13)
H2 H 0.734102 0.120400 0.200707
C7 C 0.5920(3) 0.0387(5) 0.32341(15)
C8 C 0.7381(3) 0.0074(5) 0.15380(14)
H6 H 0.440922 0.070327 0.446616
H8 H 0.900163 0.002255 0.102649
C16 C 0.8156(3) 0.0399(5) 0.14261(16)
H10 H 0.843943 0.100059 0.157400
C21 C 0.6321(3) 0.0755(6) 0.25255(16)
C23 C 0.6418(3) 0.0222(6) 0.20936(16)
C24 C 0.6123(5) 0.1576(6) 0.33401(18)
H16 H 0.606827 0.185439 0.361271
C25 C 0.6521(6) 0.1931(7) 0.2628(2)
H17 H 0.672803 0.244651 0.242800
C26 C 0.6412(7) 0.2354(7) 0.3034(2)
H18 H 0.653325 0.316071 0.310130
Zn1 Zn 0.36403(3) 0.70852(6) 0.53613(2)
O1 O 0.53527(19) 0.4073(3) 0.46003(10)
O2 O 0.2886(2) 0.6205(3) 0.49586(11)
O3 O 0.52835(19) 0.2434(3) 0.42008(10)
O4 O 0.19442(19) 0.6392(3) 0.44478(10)
O5 O 0.5708(3) 0.8377(4) 0.34732(12)
N1 N 0.4216(3) 0.8018(4) 0.48648(13)
N2 N 0.8108(2) 0.8935(4) 0.08582(12)
N3 N 0.5279(2) 0.9924(4) 0.38875(12)
C1 C 0.2572(3) 0.5926(4) 0.46059(14)
C2 C 0.3734(3) 0.4563(4) 0.44707(14)
H3 H 0.399039 0.488477 0.470974
O6 O 0.5943(3) 0.9496(6) 0.19482(14)
C3 C 0.2967(3) 0.4949(4) 0.43547(14)
C4 C 0.5628(3) 0.9466(5) 0.35378(15)
C5 C 0.4965(3) 0.3372(4) 0.43501(14)
C6 C 0.4947(3) 0.9242(5) 0.42054(14)
C9 C 0.4137(3) 0.9224(5) 0.48069(16)
H4 H 0.382986 0.965697 0.499205
C10 C 0.4121(3) 0.3696(4) 0.42301(14)
C11 C 0.6975(3) 0.9228(6) 0.12858(16)
H5 H 0.645115 0.902105 0.133643
C12 C 0.4483(3) 0.9864(5) 0.44902(16)
C13 C 0.4678(3) 0.7436(5) 0.45925(16)
H7 H 0.475832 0.660175 0.462879
C14 C 0.8487(3) 0.9809(5) 0.10939(15)
C15 C 0.2941(3) 0.3529(6) 0.37738(19)
H9 H 0.267278 0.317508 0.354412
C17 C 0.7364(3) 0.8699(6) 0.09573(16)
H11 H 0.708225 0.813189 0.079308
C18 C 0.5040(3) 0.8001(5) 0.42632(18)
H12 H 0.534382 0.754783 0.408193
C19 C 0.6003(3) 0.9986(6) 0.28247(16)
H13 H 0.584650 0.919828 0.274977
C20 C 0.3717(3) 0.3155(5) 0.38866(17)
H14 H 0.396237 0.254856 0.373372
C22 C 0.2572(3) 0.4428(5) 0.40034(17)
H15 H 0.206067 0.468470 0.392390
Zn2 Zn 0.63597(3) 0.29148(6) 0.46387(2)
Zn3 Zn 0.13597(3) 0.79148(6) 0.46387(2)
Zn4 Zn 0.86403(3) 0.79148(6) 0.03613(2)
O7 O 0.46473(19) 0.5927(3) 0.53997(10)
O8 O 0.47165(19) 0.7566(3) 0.57992(10)
O9 O 0.30558(19) 0.8608(3) 0.55522(10)
N5 N 0.3108(2) 0.6065(4) 0.58582(12)
O1_2 O 0.46473(19) 0.4073(3) 0.03997(10)
O2_2 O 0.7114(2) 0.6205(3) 0.00414(11)
O3_2 O 0.47165(19) 0.2434(3) 0.07992(10)
O4_2 O 0.80558(19) 0.6392(3) 0.05522(10)
O5_2 O 0.4292(3) 0.8377(4) 0.15268(12)
N1_2 N 0.5784(3) 0.8018(4) 0.01352(13)
N2_2 N 0.1892(2) 0.8935(4) 0.41418(12)
N3_2 N 0.4721(2) 0.9924(4) 0.11125(12)
C1_2 C 0.7428(3) 0.5926(4) 0.03941(14)
C2_2 C 0.6266(3) 0.4563(4) 0.05293(14)
H3_2 H 0.600961 0.488477 0.029026
O6_2 O 0.4057(3) 0.9496(6) 0.30518(14)
C3_2 C 0.7033(3) 0.4949(4) 0.06453(14)
C4_2 C 0.4372(3) 0.9466(5) 0.14622(15)
C5_2 C 0.5035(3) 0.3372(4) 0.06499(14)
C6_2 C 0.5053(3) 0.9242(5) 0.07946(14)
C9_2 C 0.5863(3) 0.9224(5) 0.01931(16)
H4_2 H 0.617014 0.965697 0.000795
C10_2 C 0.5879(3) 0.3696(4) 0.07699(14)
C11_2 C 0.3025(3) 0.9228(6) 0.37142(16)
H5_2 H 0.354885 0.902105 0.366357
C12_2 C 0.5517(3) 0.9864(5) 0.05098(16)
C13_2 C 0.5322(3) 0.7436(5) 0.04075(16)
H7_2 H 0.524168 0.660175 0.037121
C14_2 C 0.1513(3) 0.9809(5) 0.39061(15)
C15_2 C 0.7059(3) 0.3529(6) 0.12262(19)
H9_2 H 0.732722 0.317508 0.145588
C17_2 C 0.2636(3) 0.8699(6) 0.40427(16)
H11_2 H 0.291775 0.813189 0.420692
C18_2 C 0.4960(3) 0.8001(5) 0.07368(18)
H12_2 H 0.465618 0.754783 0.091807
C19_2 C 0.3997(3) 0.9986(6) 0.21753(16)
H13_2 H 0.415350 0.919828 0.225023
C20_2 C 0.6283(3) 0.3155(5) 0.11134(17)
H14_2 H 0.603763 0.254856 0.126628
C22_2 C 0.7428(3) 0.4428(5) 0.09966(17)
H15_2 H 0.793933 0.468470 0.107610
Zn2_2 Zn 0.36403(3) 0.29148(6) 0.03613(2)
Zn1_2 Zn 0.63597(3) 0.70852(6) 0.96387(2)
O7_2 O 0.53527(19) 0.5927(3) 0.96003(10)
O8_2 O 0.52835(19) 0.7566(3) 0.92008(10)
O9_2 O 0.69442(19) 0.8608(3) 0.94478(10)
N5_2 N 0.6892(2) 0.6065(4) 0.91418(12)
O5_3 O 0.0708(3) 0.3377(4) 0.34732(12)
N2_3 N 0.3108(2) 0.3935(4) 0.08582(12)
N3_3 N 0.0279(2) 0.4924(4) 0.38875(12)
H1_2 H 0.026477 0.570591 0.391254
N4_2 N 0.2083(3) 0.5596(5) 0.18985(13)
H2_2 H 0.234102 0.620400 0.200707
O6_3 O 0.0943(3) 0.4496(6) 0.19482(14)
C4_3 C 0.0628(3) 0.4466(5) 0.35378(15)
C7_2 C 0.0920(3) 0.5387(5) 0.32341(15)
C8_2 C 0.2381(3) 0.5074(5) 0.15380(14)
C11_3 C 0.1975(3) 0.4228(6) 0.12858(16)
H5_3 H 0.145115 0.402105 0.133643
C14_3 C 0.3487(3) 0.4809(5) 0.10939(15)
H8_2 H 0.400163 0.502255 0.102649
C16_2 C 0.3156(3) 0.5399(5) 0.14261(16)
H10_2 H 0.343943 0.600059 0.157400
C17_3 C 0.2364(3) 0.3699(6) 0.09573(16)
H11_3 H 0.208225 0.313189 0.079308
C18_3 C 0.0040(3) 0.3001(5) 0.42632(18)
H12_3 H 0.034382 0.254783 0.408193
C19_3 C 0.1003(3) 0.4986(6) 0.28247(16)
H13_3 H 0.084650 0.419828 0.274977
C21_2 C 0.1321(3) 0.5755(6) 0.25255(16)
C23_2 C 0.1418(3) 0.5222(6) 0.20936(16)
C24_2 C 0.1123(5) 0.6576(6) 0.33401(18)
H16_2 H 0.106827 0.685439 0.361271
C25_2 C 0.1521(6) 0.6931(7) 0.2628(2)
H17_2 H 0.172803 0.744651 0.242800
C26_2 C 0.1412(7) 0.7354(7) 0.3034(2)
H18_2 H 0.153325 0.816071 0.310130
O1_3 O 0.03527(19) 0.9073(3) 0.46003(10)
O3_3 O 0.02835(19) 0.7434(3) 0.42008(10)
Zn1_3 Zn 0.86403(3) 0.20852(6) 0.53613(2)
O2_3 O 0.7886(2) 0.1205(3) 0.49586(11)
O4_3 O 0.69442(19) 0.1392(3) 0.44478(10)
N1_3 N 0.9216(3) 0.3018(4) 0.48648(13)
C1_3 C 0.7572(3) 0.0926(4) 0.46059(14)
C6_3 C 0.9947(3) 0.4242(5) 0.42054(14)
C9_3 C 0.9137(3) 0.4224(5) 0.48069(16)
H4_3 H 0.882986 0.465697 0.499205
C12_3 C 0.9483(3) 0.4864(5) 0.44902(16)
H6_2 H 0.940922 0.570327 0.446616
C13_3 C 0.9678(3) 0.2436(5) 0.45925(16)
H7_3 H 0.975832 0.160175 0.462879
O7_3 O 0.96473(19) 0.0927(3) 0.53997(10)
O8_3 O 0.97165(19) 0.2566(3) 0.57992(10)
O9_3 O 0.80558(19) 0.3608(3) 0.55522(10)
N5_3 N 0.8108(2) 0.1065(4) 0.58582(12)
O2_4 O 0.2114(2) 0.1205(3) 0.00414(11)
O4_4 O 0.30558(19) 0.1392(3) 0.05522(10)
N1_4 N 0.0784(3) 0.3018(4) 0.01352(13)
C1_4 C 0.2428(3) 0.0926(4) 0.03941(14)
C6_4 C 0.0053(3) 0.4242(5) 0.07946(14)
C9_4 C 0.0863(3) 0.4224(5) 0.01931(16)
H4_4 H 0.117014 0.465697 0.000795
C12_4 C 0.0517(3) 0.4864(5) 0.05098(16)
H6_3 H 0.059078 0.570327 0.053384
C13_4 C 0.0322(3) 0.2436(5) 0.04075(16)
H7_4 H 0.024168 0.160175 0.037121
Zn1_4 Zn 0.13597(3) 0.20852(6) 0.96387(2)
O7_4 O 0.03527(19) 0.0927(3) 0.96003(10)
O8_4 O 0.02835(19) 0.2566(3) 0.92008(10)
O9_4 O 0.19442(19) 0.3608(3) 0.94478(10)
N5_4 N 0.1892(2) 0.1065(4) 0.91418(12)
O5_4 O 0.9292(3) 0.3377(4) 0.15268(12)
N2_4 N 0.6892(2) 0.3935(4) 0.41418(12)
N3_4 N 0.9721(2) 0.4924(4) 0.11125(12)
H1_3 H 0.973523 0.570591 0.108746
N4_3 N 0.7917(3) 0.5596(5) 0.31015(13)
H2_3 H 0.765898 0.620400 0.299293
O6_4 O 0.9057(3) 0.4496(6) 0.30518(14)
C4_4 C 0.9372(3) 0.4466(5) 0.14622(15)
C7_3 C 0.9080(3) 0.5387(5) 0.17659(15)
C8_3 C 0.7619(3) 0.5074(5) 0.34620(14)
C11_4 C 0.8025(3) 0.4228(6) 0.37142(16)
H5_4 H 0.854885 0.402105 0.366357
C14_4 C 0.6513(3) 0.4809(5) 0.39061(15)
H8_3 H 0.599837 0.502255 0.397351
C16_3 C 0.6844(3) 0.5399(5) 0.35739(16)
H10_3 H 0.656057 0.600059 0.342600
C17_4 C 0.7636(3) 0.3699(6) 0.40427(16)
H11_4 H 0.791775 0.313189 0.420692
C18_4 C 0.9960(3) 0.3001(5) 0.07368(18)
H12_4 H 0.965618 0.254783 0.091807
C19_4 C 0.8997(3) 0.4986(6) 0.21753(16)
H13_4 H 0.915350 0.419828 0.225023
C21_3 C 0.8679(3) 0.5755(6) 0.24745(16)
C23_3 C 0.8582(3) 0.5222(6) 0.29064(16)
C24_3 C 0.8877(5) 0.6576(6) 0.16599(18)
H16_3 H 0.893173 0.685439 0.138729
C25_3 C 0.8479(6) 0.6931(7) 0.2372(2)
H17_3 H 0.827197 0.744651 0.257200
C26_3 C 0.8588(7) 0.7354(7) 0.1966(2)
H18_3 H 0.846675 0.816071 0.189870
O1_4 O 0.96473(19) 0.9073(3) 0.03997(10)
O3_4 O 0.97165(19) 0.7434(3) 0.07992(10)
O2_5 O 0.7114(2) 0.3795(3) 0.50414(11)
O5_5 O 0.4292(3) 0.1623(4) 0.65268(12)
N1_5 N 0.5784(3) 0.1982(4) 0.51352(13)
N3_5 N 0.4721(2) 0.0076(4) 0.61125(12)
C1_5 C 0.7428(3) 0.4074(4) 0.53941(14)
C2_3 C 0.6266(3) 0.5437(4) 0.55293(14)
H3_3 H 0.600961 0.511523 0.529026
O6_5 O 0.4057(3) 0.0504(6) 0.80518(14)
C3_3 C 0.7033(3) 0.5051(4) 0.56453(14)
C4_5 C 0.4372(3) 0.0534(5) 0.64622(15)
C5_3 C 0.5035(3) 0.6628(4) 0.56499(14)
C6_5 C 0.5053(3) 0.0758(5) 0.57946(14)
C9_5 C 0.5863(3) 0.0776(5) 0.51931(16)
H4_5 H 0.617014 0.034303 0.500795
C10_3 C 0.5879(3) 0.6304(4) 0.57699(14)
C11_5 C 0.3025(3) 0.0772(6) 0.87142(16)
H5_5 H 0.354885 0.097895 0.866357
C12_5 C 0.5517(3) 0.0136(5) 0.55098(16)
C13_5 C 0.5322(3) 0.2564(5) 0.54075(16)
H7_5 H 0.524168 0.339825 0.537121
C14_5 C 0.1513(3) 0.0191(5) 0.89061(15)
C15_3 C 0.7059(3) 0.6471(6) 0.62262(19)
H9_3 H 0.732722 0.682492 0.645588
C17_5 C 0.2636(3) 0.1301(6) 0.90427(16)
H11_5 H 0.291775 0.186811 0.920692
C18_5 C 0.4960(3) 0.1999(5) 0.57368(18)
H12_5 H 0.465618 0.245217 0.591807
C19_5 C 0.3997(3) 0.0014(6) 0.71753(16)
H13_5 H 0.415350 0.080172 0.725023
C20_3 C 0.6283(3) 0.6845(5) 0.61134(17)
H14_3 H 0.603763 0.745144 0.626628
C22_3 C 0.7428(3) 0.5572(5) 0.59966(17)
H15_3 H 0.793933 0.531530 0.607610
O2_6 O 0.2886(2) 0.3795(3) 0.99586(11)
O5_6 O 0.5708(3) 0.1623(4) 0.84732(12)
N1_6 N 0.4216(3) 0.1982(4) 0.98648(13)
N3_6 N 0.5279(2) 0.0076(4) 0.88875(12)
C1_6 C 0.2572(3) 0.4074(4) 0.96059(14)
C2_4 C 0.3734(3) 0.5437(4) 0.94707(14)
H3_4 H 0.399039 0.511523 0.970974
O6_6 O 0.5943(3) 0.0504(6) 0.69482(14)
C3_4 C 0.2967(3) 0.5051(4) 0.93547(14)
C4_6 C 0.5628(3) 0.0534(5) 0.85378(15)
C5_4 C 0.4965(3) 0.6628(4) 0.93501(14)
C6_6 C 0.4947(3) 0.0758(5) 0.92054(14)
C9_6 C 0.4137(3) 0.0776(5) 0.98069(16)
H4_6 H 0.382986 0.034303 0.999205
C10_4 C 0.4121(3) 0.6304(4) 0.92301(14)
C11_6 C 0.6975(3) 0.0772(6) 0.62858(16)
H5_6 H 0.645115 0.097895 0.633643
C12_6 C 0.4483(3) 0.0136(5) 0.94902(16)
C13_6 C 0.4678(3) 0.2564(5) 0.95925(16)
H7_6 H 0.475832 0.339825 0.962879
C14_6 C 0.8487(3) 0.0191(5) 0.60939(15)
C15_4 C 0.2941(3) 0.6471(6) 0.87738(19)
H9_4 H 0.267278 0.682492 0.854412
C17_6 C 0.7364(3) 0.1301(6) 0.59573(16)
H11_6 H 0.708225 0.186811 0.579308
C18_6 C 0.5040(3) 0.1999(5) 0.92632(18)
H12_6 H 0.534382 0.245217 0.908193
C19_6 C 0.6003(3) 0.0014(6) 0.78247(16)
H13_6 H 0.584650 0.080172 0.774977
C20_4 C 0.3717(3) 0.6845(5) 0.88866(17)
H14_4 H 0.396237 0.745144 0.873372
C22_4 C 0.2572(3) 0.5572(5) 0.90034(17)
H15_4 H 0.206067 0.531530 0.892390
O2_7 O 0.2114(2) 0.8795(3) 0.50414(11)
N1_7 N 0.0784(3) 0.6982(4) 0.51352(13)
C1_7 C 0.2428(3) 0.9074(4) 0.53941(14)
C6_7 C 0.0053(3) 0.5758(5) 0.57946(14)
C9_7 C 0.0863(3) 0.5776(5) 0.51931(16)
H4_7 H 0.117014 0.534303 0.500795
C12_7 C 0.0517(3) 0.5136(5) 0.55098(16)
H6_4 H 0.059078 0.429673 0.553384
C13_7 C 0.0322(3) 0.7564(5) 0.54075(16)
H7_7 H 0.024168 0.839825 0.537121
O5_7 O 0.9292(3) 0.6623(4) 0.65268(12)
N3_7 N 0.9721(2) 0.5076(4) 0.61125(12)
H1_4 H 0.973523 0.429409 0.608746
N4_4 N 0.7917(3) 0.4404(5) 0.81015(13)
H2_4 H 0.765898 0.379600 0.799293
O6_7 O 0.9057(3) 0.5504(6) 0.80518(14)
C4_7 C 0.9372(3) 0.5534(5) 0.64622(15)
C7_4 C 0.9080(3) 0.4613(5) 0.67659(15)
C8_4 C 0.7619(3) 0.4926(5) 0.84620(14)
C11_7 C 0.8025(3) 0.5772(6) 0.87142(16)
H5_7 H 0.854885 0.597895 0.866357
C14_7 C 0.6513(3) 0.5191(5) 0.89061(15)
H8_4 H 0.599837 0.497745 0.897351
C16_4 C 0.6844(3) 0.4601(5) 0.85739(16)
H10_4 H 0.656057 0.399941 0.842600
C17_7 C 0.7636(3) 0.6301(6) 0.90427(16)
H11_7 H 0.791775 0.686811 0.920692
C18_7 C 0.9960(3) 0.6999(5) 0.57368(18)
H12_7 H 0.965618 0.745217 0.591807
C19_7 C 0.8997(3) 0.5014(6) 0.71753(16)
H13_7 H 0.915350 0.580172 0.725023
C21_4 C 0.8679(3) 0.4245(6) 0.74745(16)
C23_4 C 0.8582(3) 0.4778(6) 0.79064(16)
C24_4 C 0.8877(5) 0.3424(6) 0.66599(18)
H16_4 H 0.893173 0.314561 0.638729
C25_4 C 0.8479(6) 0.3069(7) 0.7372(2)
H17_4 H 0.827197 0.255349 0.757200
C26_4 C 0.8588(7) 0.2646(7) 0.6966(2)
H18_4 H 0.846675 0.183929 0.689870
O5_8 O 0.0708(3) 0.6623(4) 0.84732(12)
N3_8 N 0.0279(2) 0.5076(4) 0.88875(12)
H1_5 H 0.026477 0.429409 0.891254
N4_5 N 0.2083(3) 0.4404(5) 0.68985(13)
H2_5 H 0.234102 0.379600 0.700707
O6_8 O 0.0943(3) 0.5504(6) 0.69482(14)
C4_8 C 0.0628(3) 0.5534(5) 0.85378(15)
C7_5 C 0.0920(3) 0.4613(5) 0.82341(15)
C8_5 C 0.2381(3) 0.4926(5) 0.65380(14)
C11_8 C 0.1975(3) 0.5772(6) 0.62858(16)
H5_8 H 0.145115 0.597895 0.633643
C14_8 C 0.3487(3) 0.5191(5) 0.60939(15)
H8_5 H 0.400163 0.497745 0.602649
C16_5 C 0.3156(3) 0.4601(5) 0.64261(16)
H10_5 H 0.343943 0.399941 0.657400
C17_8 C 0.2364(3) 0.6301(6) 0.59573(16)
H11_8 H 0.208225 0.686811 0.579308
C18_8 C 0.0040(3) 0.6999(5) 0.92632(18)
H12_8 H 0.034382 0.745217 0.908193
C19_8 C 0.1003(3) 0.5014(6) 0.78247(16)
H13_8 H 0.084650 0.580172 0.774977
C21_5 C 0.1321(3) 0.4245(6) 0.75255(16)
C23_5 C 0.1418(3) 0.4778(6) 0.70936(16)
C24_5 C 0.1123(5) 0.3424(6) 0.83401(18)
H16_5 H 0.106827 0.314561 0.861271
C25_5 C 0.1521(6) 0.3069(7) 0.7628(2)
H17_5 H 0.172803 0.255349 0.742800
C26_5 C 0.1412(7) 0.2646(7) 0.8034(2)
H18_5 H 0.153325 0.183929 0.810130
O2_8 O 0.7886(2) 0.8795(3) 0.99586(11)
N1_8 N 0.9216(3) 0.6982(4) 0.98648(13)
C1_8 C 0.7572(3) 0.9074(4) 0.96059(14)
C6_8 C 0.9947(3) 0.5758(5) 0.92054(14)
C9_8 C 0.9137(3) 0.5776(5) 0.98069(16)
H4_8 H 0.882986 0.534303 0.999205
C12_8 C 0.9483(3) 0.5136(5) 0.94902(16)
H6_5 H 0.940922 0.429673 0.946616
C13_8 C 0.9678(3) 0.7564(5) 0.95925(16)
H7_8 H 0.975832 0.839825 0.962879
H1_6 H 0.473523 0.070591 0.108746
N4_6 N 0.2917(3) 0.0596(5) 0.31015(13)
H2_6 H 0.265898 0.120400 0.299293
C7_6 C 0.4080(3) 0.0387(5) 0.17659(15)
C8_6 C 0.2619(3) 0.0074(5) 0.34620(14)
H6_6 H 0.559078 0.070327 0.053384
H8_6 H 0.099837 0.002255 0.397351
C16_6 C 0.1844(3) 0.0399(5) 0.35739(16)
H10_6 H 0.156057 0.100059 0.342600
C21_6 C 0.3679(3) 0.0755(6) 0.24745(16)
C23_6 C 0.3582(3) 0.0222(6) 0.29064(16)
C24_6 C 0.3877(5) 0.1576(6) 0.16599(18)
H16_6 H 0.393173 0.185439 0.138729
C25_6 C 0.3479(6) 0.1931(7) 0.2372(2)
H17_6 H 0.327197 0.244651 0.257200
C26_6 C 0.3588(7) 0.2354(7) 0.1966(2)
H18_6 H 0.346675 0.316071 0.189870
C2_5 C 0.8734(3) 0.9563(4) 0.44707(14)
H3_5 H 0.899039 0.988477 0.470974
C3_5 C 0.7967(3) 0.9949(4) 0.43547(14)
C5_5 C 0.9965(3) 0.8372(4) 0.43501(14)
C10_5 C 0.9121(3) 0.8696(4) 0.42301(14)
C15_5 C 0.7941(3) 0.8529(6) 0.37738(19)
H9_5 H 0.767278 0.817508 0.354412
C20_5 C 0.8717(3) 0.8155(5) 0.38866(17)
H14_5 H 0.896237 0.754856 0.373372
C22_5 C 0.7572(3) 0.9428(5) 0.40034(17)
H15_5 H 0.706067 0.968470 0.392390
C2_6 C 0.1266(3) 0.9563(4) 0.05293(14)
H3_6 H 0.100961 0.988477 0.029026
C3_6 C 0.2033(3) 0.9949(4) 0.06453(14)
C5_6 C 0.0035(3) 0.8372(4) 0.06499(14)
C10_6 C 0.0879(3) 0.8696(4) 0.07699(14)
C15_6 C 0.2059(3) 0.8529(6) 0.12262(19)
H9_6 H 0.232722 0.817508 0.145588
C20_6 C 0.1283(3) 0.8155(5) 0.11134(17)
H14_6 H 0.103763 0.754856 0.126628
C22_6 C 0.2428(3) 0.9428(5) 0.09966(17)
H15_6 H 0.293933 0.968470 0.107610
H1_7 H 0.473523 0.929409 0.608746
N4_7 N 0.2917(3) 0.9404(5) 0.81015(13)
H2_7 H 0.265898 0.879600 0.799293
C7_7 C 0.4080(3) 0.9613(5) 0.67659(15)
C8_7 C 0.2619(3) 0.9926(5) 0.84620(14)
H6_7 H 0.559078 0.929673 0.553384
H8_7 H 0.099837 0.997745 0.897351
C16_7 C 0.1844(3) 0.9601(5) 0.85739(16)
H10_7 H 0.156057 0.899941 0.842600
C21_7 C 0.3679(3) 0.9245(6) 0.74745(16)
C23_7 C 0.3582(3) 0.9778(6) 0.79064(16)
C24_7 C 0.3877(5) 0.8424(6) 0.66599(18)
H16_7 H 0.393173 0.814561 0.638729
C25_7 C 0.3479(6) 0.8069(7) 0.7372(2)
H17_7 H 0.327197 0.755349 0.757200
C26_7 C 0.3588(7) 0.7646(7) 0.6966(2)
H18_7 H 0.346675 0.683929 0.689870
H1_8 H 0.526477 0.929409 0.891254
N4_8 N 0.7083(3) 0.9404(5) 0.68985(13)
H2_8 H 0.734102 0.879600 0.700707
C7_8 C 0.5920(3) 0.9613(5) 0.82341(15)
C8_8 C 0.7381(3) 0.9926(5) 0.65380(14)
H6_8 H 0.440922 0.929673 0.946616
H8_8 H 0.900163 0.997745 0.602649
C16_8 C 0.8156(3) 0.9601(5) 0.64261(16)
H10_8 H 0.843943 0.899941 0.657400
C21_8 C 0.6321(3) 0.9245(6) 0.75255(16)
C23_8 C 0.6418(3) 0.9778(6) 0.70936(16)
C24_8 C 0.6123(5) 0.8424(6) 0.83401(18)
H16_8 H 0.606827 0.814561 0.861271
C25_8 C 0.6521(6) 0.8069(7) 0.7628(2)
H17_8 H 0.672803 0.755349 0.742800
C26_8 C 0.6412(7) 0.7646(7) 0.8034(2)
H18_8 H 0.653325 0.683929 0.810130
C2_7 C 0.1266(3) 0.0437(4) 0.55293(14)
H3_7 H 0.100961 0.011523 0.529026
C3_7 C 0.2033(3) 0.0051(4) 0.56453(14)
C5_7 C 0.0035(3) 0.1628(4) 0.56499(14)
C10_7 C 0.0879(3) 0.1304(4) 0.57699(14)
C15_7 C 0.2059(3) 0.1471(6) 0.62262(19)
H9_7 H 0.232722 0.182492 0.645588
C20_7 C 0.1283(3) 0.1845(5) 0.61134(17)
H14_7 H 0.103763 0.245144 0.626628
C22_7 C 0.2428(3) 0.0572(5) 0.59966(17)
H15_7 H 0.293933 0.031530 0.607610
C2_8 C 0.8734(3) 0.0437(4) 0.94707(14)
H3_8 H 0.899039 0.011523 0.970974
C3_8 C 0.7967(3) 0.0051(4) 0.93547(14)
C5_8 C 0.9965(3) 0.1628(4) 0.93501(14)
C10_8 C 0.9121(3) 0.1304(4) 0.92301(14)
C15_8 C 0.7941(3) 0.1471(6) 0.87738(19)
H9_8 H 0.767278 0.182492 0.854412
C20_8 C 0.8717(3) 0.1845(5) 0.88866(17)
H14_8 H 0.896237 0.245144 0.873372
C22_8 C 0.7572(3) 0.0572(5) 0.90034(17)
H15_8 H 0.706067 0.031530 0.892390
loop_
_geom_bond_atom_site_label_1
_geom_bond_atom_site_label_2
_geom_bond_site_symmetry_1
_geom_bond_site_symmetry_2
N4 H2 1_555 1_555
C8 N4 1_555 1_555
C16 C8 1_555 1_555
H10 C16 1_555 1_555
C23 N4 1_555 1_555
C24 C7 1_555 1_555
H16 C24 1_555 1_555
C25 C21 1_555 1_555
H17 C25 1_555 1_555
C26 C24 1_555 1_555
H18 C26 1_555 1_555
C21 C23 1_555 1_555
C25 C26 1_555 1_555
Zn1 O2 1_555 1_555
O1 C5 1_555 1_555
O2 C1 1_555 1_555
O3 C5 1_555 1_555
O4 C1 1_555 1_555
O5 C4 1_555 1_555
N1 Zn1 1_555 1_555
N2 C14 1_555 1_555
C1 C3 1_555 1_555
C2 H3 1_555 1_555
C3 C2 1_555 1_555
C4 N3 1_555 1_555
C5 C10 1_555 1_555
C6 N3 1_555 1_555
C9 N1 1_555 1_555
H4 C9 1_555 1_555
C10 C2 1_555 1_555
H5 C11 1_555 1_555
C12 C6 1_555 1_555
C13 N1 1_555 1_555
H7 C13 1_555 1_555
C15 H9 1_555 1_555
C17 N2 1_555 1_555
H11 C17 1_555 1_555
C18 C6 1_555 1_555
H12 C18 1_555 1_555
H13 C19 1_555 1_555
C20 C10 1_555 1_555
H14 C20 1_555 1_555
C22 C3 1_555 1_555
H15 C22 1_555 1_555
Zn2 O1 1_555 1_555
Zn3 O4 1_555 1_555
Zn4 N2 1_555 1_555
O7 Zn1 1_555 1_555
O8 Zn1 1_555 1_555
O9 Zn1 1_555 1_555
N5 Zn1 1_555 1_555
O3 Zn2 1_555 1_555
C9 C12 1_555 1_555
C11 C17 1_555 1_555
C13 C18 1_555 1_555
C15 C20 1_555 1_555
C15 C22 1_555 1_555
O1_2 C5_2 1_555 1_555
O2_2 C1_2 1_555 1_555
O3_2 C5_2 1_555 1_555
O4_2 C1_2 1_555 1_555
O5_2 C4_2 1_555 1_555
N2_2 C14_2 1_555 1_555
C1_2 C3_2 1_555 1_555
C2_2 H3_2 1_555 1_555
C3_2 C2_2 1_555 1_555
C4_2 N3_2 1_555 1_555
C5_2 C10_2 1_555 1_555
C6_2 N3_2 1_555 1_555
C9_2 N1_2 1_555 1_555
H4_2 C9_2 1_555 1_555
C10_2 C2_2 1_555 1_555
H5_2 C11_2 1_555 1_555
C12_2 C6_2 1_555 1_555
C13_2 N1_2 1_555 1_555
H7_2 C13_2 1_555 1_555
C15_2 H9_2 1_555 1_555
C17_2 N2_2 1_555 1_555
H11_2 C17_2 1_555 1_555
C18_2 C6_2 1_555 1_555
H12_2 C18_2 1_555 1_555
H13_2 C19_2 1_555 1_555
C20_2 C10_2 1_555 1_555
H14_2 C20_2 1_555 1_555
C22_2 C3_2 1_555 1_555
H15_2 C22_2 1_555 1_555
Zn2_2 O1_2 1_555 1_555
Zn4 O4_2 1_555 1_555
Zn3 N2_2 1_555 1_555
O3_2 Zn2_2 1_555 1_555
C9_2 C12_2 1_555 1_555
C11_2 C17_2 1_555 1_555
C13_2 C18_2 1_555 1_555
C15_2 C20_2 1_555 1_555
C15_2 C22_2 1_555 1_555
O7_2 Zn1_2 1_555 1_555
O8_2 Zn1_2 1_555 1_555
O9_2 Zn1_2 1_555 1_555
N5_2 Zn1_2 1_555 1_555
O5_3 C4_3 1_555 1_555
N2_3 C14_3 1_555 1_555
N3_3 H1_2 1_555 1_555
N4_2 H2_2 1_555 1_555
O6_3 C23_2 1_555 1_555
C4_3 N3_3 1_555 1_555
C7_2 C4_3 1_555 1_555
C8_2 N4_2 1_555 1_555
C11_3 C8_2 1_555 1_555
H5_3 C11_3 1_555 1_555
C14_3 H8_2 1_555 1_555
C16_2 C8_2 1_555 1_555
H10_2 C16_2 1_555 1_555
C17_3 N2_3 1_555 1_555
H11_3 C17_3 1_555 1_555
H12_3 C18_3 1_555 1_555
C19_3 C7_2 1_555 1_555
H13_3 C19_3 1_555 1_555
C21_2 C19_3 1_555 1_555
C23_2 N4_2 1_555 1_555
C24_2 C7_2 1_555 1_555
H16_2 C24_2 1_555 1_555
C25_2 C21_2 1_555 1_555
H17_2 C25_2 1_555 1_555
C26_2 C24_2 1_555 1_555
H18_2 C26_2 1_555 1_555
Zn2_2 N2_3 1_555 1_555
C11_3 C17_3 1_555 1_555
C14_3 C16_2 1_555 1_555
C21_2 C23_2 1_555 1_555
C25_2 C26_2 1_555 1_555
Zn3 O1_3 1_555 1_555
O3_3 Zn3 1_555 1_555
Zn1_3 O2_3 1_555 1_555
O2_3 C1_3 1_555 1_555
O4_3 C1_3 1_555 1_555
N1_3 Zn1_3 1_555 1_555
C9_3 N1_3 1_555 1_555
H4_3 C9_3 1_555 1_555
C12_3 C6_3 1_555 1_555
H6_2 C12_3 1_555 1_555
C13_3 N1_3 1_555 1_555
H7_3 C13_3 1_555 1_555
Zn2 O4_3 1_555 1_555
O7_3 Zn1_3 1_555 1_555
O8_3 Zn1_3 1_555 1_555
O9_3 Zn1_3 1_555 1_555
N5_3 Zn1_3 1_555 1_555
C9_3 C12_3 1_555 1_555
O2_4 C1_4 1_555 1_555
O4_4 C1_4 1_555 1_555
C9_4 N1_4 1_555 1_555
H4_4 C9_4 1_555 1_555
C12_4 C6_4 1_555 1_555
H6_3 C12_4 1_555 1_555
C13_4 N1_4 1_555 1_555
H7_4 C13_4 1_555 1_555
Zn2_2 O4_4 1_555 1_555
C9_4 C12_4 1_555 1_555
O7_4 Zn1_4 1_555 1_555
O8_4 Zn1_4 1_555 1_555
O9_4 Zn1_4 1_555 1_555
N5_4 Zn1_4 1_555 1_555
O5_4 C4_4 1_555 1_555
N2_4 C14_4 1_555 1_555
N3_4 H1_3 1_555 1_555
N4_3 H2_3 1_555 1_555
O6_4 C23_3 1_555 1_555
C4_4 N3_4 1_555 1_555
C7_3 C4_4 1_555 1_555
C8_3 N4_3 1_555 1_555
C11_4 C8_3 1_555 1_555
H5_4 C11_4 1_555 1_555
C14_4 H8_3 1_555 1_555
C16_3 C8_3 1_555 1_555
H10_3 C16_3 1_555 1_555
C17_4 N2_4 1_555 1_555
H11_4 C17_4 1_555 1_555
H12_4 C18_4 1_555 1_555
C19_4 C7_3 1_555 1_555
H13_4 C19_4 1_555 1_555
C21_3 C19_4 1_555 1_555
C23_3 N4_3 1_555 1_555
C24_3 C7_3 1_555 1_555
H16_3 C24_3 1_555 1_555
C25_3 C21_3 1_555 1_555
H17_3 C25_3 1_555 1_555
C26_3 C24_3 1_555 1_555
H18_3 C26_3 1_555 1_555
Zn2 N2_4 1_555 1_555
C11_4 C17_4 1_555 1_555
C14_4 C16_3 1_555 1_555
C21_3 C23_3 1_555 1_555
C25_3 C26_3 1_555 1_555
Zn4 O1_4 1_555 1_555
O3_4 Zn4 1_555 1_555
Zn2 O2_5 1_555 1_555
O7 C5_3 1_555 1_555
O2_5 C1_5 1_555 1_555
O8 C5_3 1_555 1_555
O9_3 C1_5 1_555 1_555
O5_5 C4_5 1_555 1_555
N1_5 Zn2 1_555 1_555
N5_4 C14_5 1_555 1_555
C1_5 C3_3 1_555 1_555
C2_3 H3_3 1_555 1_555
C3_3 C2_3 1_555 1_555
C4_5 N3_5 1_555 1_555
C5_3 C10_3 1_555 1_555
C6_5 N3_5 1_555 1_555
C9_5 N1_5 1_555 1_555
H4_5 C9_5 1_555 1_555
C10_3 C2_3 1_555 1_555
H5_5 C11_5 1_555 1_555
C12_5 C6_5 1_555 1_555
C13_5 N1_5 1_555 1_555
H7_5 C13_5 1_555 1_555
C15_3 H9_3 1_555 1_555
C17_5 N5_4 1_555 1_555
H11_5 C17_5 1_555 1_555
C18_5 C6_5 1_555 1_555
H12_5 C18_5 1_555 1_555
H13_5 C19_5 1_555 1_555
C20_3 C10_3 1_555 1_555
H14_3 C20_3 1_555 1_555
C22_3 C3_3 1_555 1_555
H15_3 C22_3 1_555 1_555
C9_5 C12_5 1_555 1_555
C11_5 C17_5 1_555 1_555
C13_5 C18_5 1_555 1_555
C15_3 C20_3 1_555 1_555
C15_3 C22_3 1_555 1_555
O7_2 C5_4 1_555 1_555
O2_6 C1_6 1_555 1_555
O8_2 C5_4 1_555 1_555
O9_4 C1_6 1_555 1_555
O5_6 C4_6 1_555 1_555
N5_3 C14_6 1_555 1_555
C1_6 C3_4 1_555 1_555
C2_4 H3_4 1_555 1_555
C3_4 C2_4 1_555 1_555
C4_6 N3_6 1_555 1_555
C5_4 C10_4 1_555 1_555
C6_6 N3_6 1_555 1_555
C9_6 N1_6 1_555 1_555
H4_6 C9_6 1_555 1_555
C10_4 C2_4 1_555 1_555
H5_6 C11_6 1_555 1_555
C12_6 C6_6 1_555 1_555
C13_6 N1_6 1_555 1_555
H7_6 C13_6 1_555 1_555
C15_4 H9_4 1_555 1_555
C17_6 N5_3 1_555 1_555
H11_6 C17_6 1_555 1_555
C18_6 C6_6 1_555 1_555
H12_6 C18_6 1_555 1_555
H13_6 C19_6 1_555 1_555
C20_4 C10_4 1_555 1_555
H14_4 C20_4 1_555 1_555
C22_4 C3_4 1_555 1_555
H15_4 C22_4 1_555 1_555
C9_6 C12_6 1_555 1_555
C11_6 C17_6 1_555 1_555
C13_6 C18_6 1_555 1_555
C15_4 C20_4 1_555 1_555
C15_4 C22_4 1_555 1_555
Zn3 O2_7 1_555 1_555
O2_7 C1_7 1_555 1_555
O9 C1_7 1_555 1_555
N1_7 Zn3 1_555 1_555
C9_7 N1_7 1_555 1_555
H4_7 C9_7 1_555 1_555
C12_7 C6_7 1_555 1_555
H6_4 C12_7 1_555 1_555
C13_7 N1_7 1_555 1_555
H7_7 C13_7 1_555 1_555
C9_7 C12_7 1_555 1_555
O5_7 C4_7 1_555 1_555
N5_2 C14_7 1_555 1_555
N3_7 H1_4 1_555 1_555
N4_4 H2_4 1_555 1_555
O6_7 C23_4 1_555 1_555
C4_7 N3_7 1_555 1_555
C7_4 C4_7 1_555 1_555
C8_4 N4_4 1_555 1_555
C11_7 C8_4 1_555 1_555
H5_7 C11_7 1_555 1_555
C14_7 H8_4 1_555 1_555
C16_4 C8_4 1_555 1_555
H10_4 C16_4 1_555 1_555
C17_7 N5_2 1_555 1_555
H11_7 C17_7 1_555 1_555
H12_7 C18_7 1_555 1_555
C19_7 C7_4 1_555 1_555
H13_7 C19_7 1_555 1_555
C21_4 C19_7 1_555 1_555
C23_4 N4_4 1_555 1_555
C24_4 C7_4 1_555 1_555
H16_4 C24_4 1_555 1_555
C25_4 C21_4 1_555 1_555
H17_4 C25_4 1_555 1_555
C26_4 C24_4 1_555 1_555
H18_4 C26_4 1_555 1_555
C11_7 C17_7 1_555 1_555
C14_7 C16_4 1_555 1_555
C21_4 C23_4 1_555 1_555
C25_4 C26_4 1_555 1_555
O5_8 C4_8 1_555 1_555
N5 C14_8 1_555 1_555
N3_8 H1_5 1_555 1_555
N4_5 H2_5 1_555 1_555
O6_8 C23_5 1_555 1_555
C4_8 N3_8 1_555 1_555
C7_5 C4_8 1_555 1_555
C8_5 N4_5 1_555 1_555
C11_8 C8_5 1_555 1_555
H5_8 C11_8 1_555 1_555
C14_8 H8_5 1_555 1_555
C16_5 C8_5 1_555 1_555
H10_5 C16_5 1_555 1_555
C17_8 N5 1_555 1_555
H11_8 C17_8 1_555 1_555
H12_8 C18_8 1_555 1_555
C19_8 C7_5 1_555 1_555
H13_8 C19_8 1_555 1_555
C21_5 C19_8 1_555 1_555
C23_5 N4_5 1_555 1_555
C24_5 C7_5 1_555 1_555
H16_5 C24_5 1_555 1_555
C25_5 C21_5 1_555 1_555
H17_5 C25_5 1_555 1_555
C26_5 C24_5 1_555 1_555
H18_5 C26_5 1_555 1_555
C11_8 C17_8 1_555 1_555
C14_8 C16_5 1_555 1_555
C21_5 C23_5 1_555 1_555
C25_5 C26_5 1_555 1_555
O2_8 C1_8 1_555 1_555
O9_2 C1_8 1_555 1_555
C9_8 N1_8 1_555 1_555
H4_8 C9_8 1_555 1_555
C12_8 C6_8 1_555 1_555
H6_5 C12_8 1_555 1_555
C13_8 N1_8 1_555 1_555
H7_8 C13_8 1_555 1_555
C9_8 C12_8 1_555 1_555
N4_6 H2_6 1_555 1_555
C8_6 N4_6 1_555 1_555
C16_6 C8_6 1_555 1_555
H10_6 C16_6 1_555 1_555
C23_6 N4_6 1_555 1_555
C24_6 C7_6 1_555 1_555
H16_6 C24_6 1_555 1_555
C25_6 C21_6 1_555 1_555
H17_6 C25_6 1_555 1_555
C26_6 C24_6 1_555 1_555
H18_6 C26_6 1_555 1_555
C21_6 C23_6 1_555 1_555
C25_6 C26_6 1_555 1_555
C2_5 H3_5 1_555 1_555
C3_5 C2_5 1_555 1_555
C5_5 C10_5 1_555 1_555
C10_5 C2_5 1_555 1_555
C15_5 H9_5 1_555 1_555
C20_5 C10_5 1_555 1_555
H14_5 C20_5 1_555 1_555
C22_5 C3_5 1_555 1_555
H15_5 C22_5 1_555 1_555
C15_5 C20_5 1_555 1_555
C15_5 C22_5 1_555 1_555
C2_6 H3_6 1_555 1_555
C3_6 C2_6 1_555 1_555
C5_6 C10_6 1_555 1_555
C10_6 C2_6 1_555 1_555
C15_6 H9_6 1_555 1_555
C20_6 C10_6 1_555 1_555
H14_6 C20_6 1_555 1_555
C22_6 C3_6 1_555 1_555
H15_6 C22_6 1_555 1_555
C15_6 C20_6 1_555 1_555
C15_6 C22_6 1_555 1_555
N4_7 H2_7 1_555 1_555
C8_7 N4_7 1_555 1_555
C16_7 C8_7 1_555 1_555
H10_7 C16_7 1_555 1_555
C23_7 N4_7 1_555 1_555
C24_7 C7_7 1_555 1_555
H16_7 C24_7 1_555 1_555
C25_7 C21_7 1_555 1_555
H17_7 C25_7 1_555 1_555
C26_7 C24_7 1_555 1_555
H18_7 C26_7 1_555 1_555
C21_7 C23_7 1_555 1_555
C25_7 C26_7 1_555 1_555
N4_8 H2_8 1_555 1_555
C8_8 N4_8 1_555 1_555
C16_8 C8_8 1_555 1_555
H10_8 C16_8 1_555 1_555
C23_8 N4_8 1_555 1_555
C24_8 C7_8 1_555 1_555
H16_8 C24_8 1_555 1_555
C25_8 C21_8 1_555 1_555
H17_8 C25_8 1_555 1_555
C26_8 C24_8 1_555 1_555
H18_8 C26_8 1_555 1_555
C21_8 C23_8 1_555 1_555
C25_8 C26_8 1_555 1_555
C2_7 H3_7 1_555 1_555
C3_7 C2_7 1_555 1_555
C5_7 C10_7 1_555 1_555
C10_7 C2_7 1_555 1_555
C15_7 H9_7 1_555 1_555
C20_7 C10_7 1_555 1_555
H14_7 C20_7 1_555 1_555
C22_7 C3_7 1_555 1_555
H15_7 C22_7 1_555 1_555
C15_7 C20_7 1_555 1_555
C15_7 C22_7 1_555 1_555
C2_8 H3_8 1_555 1_555
C3_8 C2_8 1_555 1_555
C5_8 C10_8 1_555 1_555
C10_8 C2_8 1_555 1_555
C15_8 H9_8 1_555 1_555
C20_8 C10_8 1_555 1_555
H14_8 C20_8 1_555 1_555
C22_8 C3_8 1_555 1_555
H15_8 C22_8 1_555 1_555
C15_8 C20_8 1_555 1_555
C15_8 C22_8 1_555 1_555

#END
