
###############################################################################
#
# This file contains modified crystal structure data generated from the
# MOF subset of the Cambridge Structural Database (CSD) v543 
# hosted by the Cambridge Crystallographic Data Centre (CCDC).
#
# This work is licensed under the Creative Commons
# Attribution-NonCommercial-ShareAlike 4.0 International License.
# To view a copy of this license, visit
# http://creativecommons.org/licenses/by-nc-sa/4.0/
# or send a letter to
# Creative Commons, PO Box 1866, Mountain View, CA 94042, USA.
#
# CIF created using the CSD Python API on 29 September 2022
# The structure has been converted into the P1 space group
# The structure has a 3D framework
# The original CSD entry GUKPEJ is in the rhombohedral crystal system
# The framework has been calculated to contain at least 10.0% void space
# The void calculation uses a probe of radius 1.32A, grid spacing 0.4
#
###############################################################################

data_GUKPEJ
_chemical_formula_moiety         '(C216 H234 N36 O138 Zn29)n'
_symmetry_cell_setting           triclinic
_symmetry_space_group_name_H-M   'P 1'
_symmetry_Int_Tables_number      1
_space_group_name_Hall           'P 1'
loop_
_symmetry_equiv_pos_site_id
_symmetry_equiv_pos_as_xyz
1 x,y,z
_cell_length_a                   24.4473(9)
_cell_length_b                   24.4473(9)
_cell_length_c                   14.0673(15)
_cell_angle_alpha                90
_cell_angle_beta                 90
_cell_angle_gamma                120
_cell_volume                     7281.2
loop_
_atom_site_label
_atom_site_type_symbol
_atom_site_fract_x
_atom_site_fract_y
_atom_site_fract_z
C1 C 0.1215(4) 0.3745(4) 0.0089(5)
C2 C 0.1747(3) 0.3931(4) 0.0716(5)
C3 C 0.2324(3) 0.4006(4) 0.0626(5)
C5 C 0.2232(4) 0.4260(4) 0.1989(5)
C6 C 0.2390(4) 0.4499(4) 0.2947(5)
C7 C 0.2958(4) 0.4989(5) 0.3132(6)
H1 H 0.3261 0.5180 0.2659
C8 C 0.3076(6) 0.5200(6) 0.4052(9)
C9 C 0.2670(6) 0.4939(6) 0.4751(7)
H2 H 0.2771 0.5089 0.5371
C10 C 0.2121(6) 0.4459(6) 0.4536(6)
H3 H 0.1830 0.4269 0.5025
C11 C 0.1944(4) 0.4218(4) 0.3655(5)
H4 H 0.1543 0.3879 0.3532
C12 C 0.3984(8) 0.6129(7) 0.3649(15)
H5 H 0.4329 0.6485 0.3954
H6 H 0.3712 0.6258 0.3356
H7 H 0.4144 0.5965 0.3172
N1 N 0.1688(3) 0.4103(3) 0.1588(4)
N2 N 0.2629(3) 0.4209(3) 0.1440(4)
O1 O 0.0768(2) 0.3783(3) 0.0424(3)
O4 O 0.3176(2) 0.3976(3) 0.0042(3)
O5 O 0.3664(5) 0.5691(6) 0.4280(8)
O6 O 0.0512(3) 0.3044(3) 0.2367(5)
H8 H 0.0875 0.3101 0.2401
H9 H 0.0380 0.3057 0.2897
Zn1 Zn 0.07726(5) 0.39839(5) 0.18662(7)
C13 C 0.0412(4) 0.5863(6) 0.3244(5)
C14 C 0.0598(4) 0.5517(5) 0.2617(5)
C15 C 0.0673(4) 0.5015(5) 0.2707(5)
C16 C 0.0590(4) 0.4591(6) 0.3483(5)
C17 C 0.0927(4) 0.5361(6) 0.1344(5)
C18 C 0.1166(4) 0.5442(6) 0.0386(5)
C19 C 0.1656(5) 0.5364(6) 0.0201(6)
H14 H 0.1847 0.5252 0.0674
H20 H 0.2632 0.5154 0.0161
N3 N 0.0770(3) 0.5748(4) 0.1745(4)
N4 N 0.0876(3) 0.4913(4) 0.1893(4)
O9 O 0.0450(3) 0.6348(4) 0.2909(3)
O10 O 0.0213(4) 0.5692(5) 0.4028(4)
O11 O 0.0508(4) 0.4705(5) 0.4283(4)
O12 O 0.0643(3) 0.4133(4) 0.3291(3)
O15 O 0.0198(4) 0.7109(5) 0.1634(4)
H23 H 0.0077 0.7346 0.1433
H24 H 0.0124 0.7044 0.2186
Zn3 Zn 0.06506(5) 0.65446(7) 0.14671(7)
N5 N 0.1580(4) 0.7371(3) 0.1440(4)
O19 O 0.0800(4) 0.6824(2) 0.0042(3)
Zn4 Zn 0.34554(7) 0.41059(5) 0.14671(7)
Zn5 Zn 0.0000 0.5001 0.5000
O7 O 0.9755(3) 0.3531(4) 0.1699(4)
H10 H 0.9397 0.3410 0.1900
H11 H 0.9746 0.3457 0.1147
O14 O 0.9711(3) 0.5865(4) 0.0966(5)
H21 H 0.9768 0.5559 0.0932
H22 H 0.9724 0.6010 0.0436
Zn5_2 Zn 1.0000 0.5001 0.5000
C1_2 C 0.6255(4) 0.7470(6) 0.0089(5)
C2_2 C 0.6069(4) 0.7816(5) 0.0716(5)
C3_2 C 0.5994(4) 0.8318(5) 0.0626(5)
C5_2 C 0.5740(4) 0.7972(6) 0.1989(5)
C6_2 C 0.5501(4) 0.7891(6) 0.2947(5)
C7_2 C 0.5011(5) 0.7969(6) 0.3132(6)
H1_2 H 0.4820 0.8081 0.2659
C8_2 C 0.4800(6) 0.7876(8) 0.4052(9)
C9_2 C 0.5061(6) 0.7731(8) 0.4751(7)
H2_2 H 0.4911 0.7682 0.5371
C10_2 C 0.5541(6) 0.7662(8) 0.4536(6)
H3_2 H 0.5731 0.7561 0.5025
C11_2 C 0.5782(4) 0.7726(6) 0.3655(5)
H4_2 H 0.6121 0.7664 0.3532
C12_2 C 0.3871(7) 0.7855(11) 0.3649(15)
H5_2 H 0.3515 0.7844 0.3954
H6_2 H 0.3742 0.7454 0.3356
H7_2 H 0.4035 0.8179 0.3172
N1_2 N 0.5897(3) 0.7585(4) 0.1588(4)
N2_2 N 0.5791(3) 0.8420(4) 0.1440(4)
O1_2 O 0.6217(3) 0.6985(4) 0.0424(3)
O4_2 O 0.6024(3) 0.9200(4) 0.0042(3)
O5_2 O 0.4309(6) 0.7973(8) 0.4280(8)
O6_2 O 0.6956(3) 0.7468(4) 0.2367(5)
H8_2 H 0.6899 0.7774 0.2401
H9_2 H 0.6943 0.7323 0.2897
O7_2 O 0.6469(4) 0.6224(5) 0.1699(4)
H10_2 H 0.6590 0.5987 0.1900
H11_2 H 0.6543 0.6289 0.1147
Zn1_2 Zn 0.60161(5) 0.67887(7) 0.18662(7)
C13_2 C 0.4137(6) 0.4548(7) 0.3244(5)
C14_2 C 0.4483(5) 0.5080(6) 0.2617(5)
C15_2 C 0.4985(5) 0.5657(6) 0.2707(5)
C16_2 C 0.5409(6) 0.5998(7) 0.3483(5)
C17_2 C 0.4639(6) 0.5565(7) 0.1344(5)
C18_2 C 0.4558(6) 0.5723(7) 0.0386(5)
C19_2 C 0.4636(6) 0.6291(8) 0.0201(6)
H14_2 H 0.4748 0.6594 0.0674
H20_2 H 0.4846 0.7477 0.0161
N3_2 N 0.4252(4) 0.5021(5) 0.1745(4)
N4_2 N 0.5087(4) 0.5962(5) 0.1893(4)
O9_2 O 0.3652(4) 0.4101(5) 0.2909(3)
O10_2 O 0.4308(5) 0.4520(6) 0.4028(4)
O11_2 O 0.5295(5) 0.5802(6) 0.4283(4)
O12_2 O 0.5867(4) 0.6509(5) 0.3291(3)
O14_2 O 0.4135(4) 0.3845(5) 0.0966(5)
H21_2 H 0.4441 0.4208 0.0932
H22_2 H 0.3990 0.3713 0.0436
O15_2 O 0.2891(5) 0.3088(6) 0.1634(4)
H23_2 H 0.2654 0.2730 0.1433
H24_2 H 0.2956 0.3079 0.2186
Zn4_2 Zn 0.58941(5) 0.93494(9) 0.14671(7)
Zn5_3 Zn 0.4999 0.5000 0.5000
O7_3 O 0.3776(5) 0.0245(3) 0.1699(4)
H10_3 H 0.4013 0.0603 0.1900
H11_3 H 0.3711 0.0254 0.1147
O14_3 O 0.6155(5) 0.0289(3) 0.0966(5)
H21_3 H 0.5792 0.0232 0.0932
H22_3 H 0.6287 0.0276 0.0436
Zn5_4 Zn 0.5000 -0.0000 0.5000
C1_3 C 0.2530(6) 0.8785(4) 0.0089(5)
C2_3 C 0.2184(5) 0.8253(3) 0.0716(5)
C3_3 C 0.1682(5) 0.7676(3) 0.0626(5)
C5_3 C 0.2028(6) 0.7768(4) 0.1989(5)
C6_3 C 0.2109(6) 0.7610(4) 0.2947(5)
C7_3 C 0.2031(6) 0.7042(4) 0.3132(6)
H1_3 H 0.1919 0.6739 0.2659
C8_3 C 0.2124(8) 0.6924(6) 0.4052(9)
C9_3 C 0.2269(8) 0.7330(6) 0.4751(7)
H2_3 H 0.2318 0.7229 0.5371
C10_3 C 0.2338(8) 0.7879(6) 0.4536(6)
H3_3 H 0.2439 0.8170 0.5025
C11_3 C 0.2274(6) 0.8056(4) 0.3655(5)
H4_3 H 0.2336 0.8457 0.3532
C12_3 C 0.2145(11) 0.6016(8) 0.3649(15)
H5_3 H 0.2156 0.5671 0.3954
H6_3 H 0.2546 0.6288 0.3356
H7_3 H 0.1821 0.5856 0.3172
N1_3 N 0.2415(4) 0.8312(3) 0.1588(4)
O1_3 O 0.3015(4) 0.9232(2) 0.0424(3)
O5_3 O 0.2027(8) 0.6336(5) 0.4280(8)
O6_3 O 0.2532(4) 0.9488(3) 0.2367(5)
H8_3 H 0.2226 0.9125 0.2401
H9_3 H 0.2677 0.9620 0.2897
Zn1_3 Zn 0.32113(7) 0.92274(5) 0.18662(7)
C13_3 C 0.5452(7) 0.9588(4) 0.3244(5)
C14_3 C 0.4920(6) 0.9402(4) 0.2617(5)
C15_3 C 0.4343(6) 0.9327(4) 0.2707(5)
C16_3 C 0.4002(7) 0.9410(4) 0.3483(5)
C17_3 C 0.4435(7) 0.9073(4) 0.1344(5)
C18_3 C 0.4277(7) 0.8834(4) 0.0386(5)
C19_3 C 0.3709(8) 0.8344(5) 0.0201(6)
H14_3 H 0.3406 0.8153 0.0674
H20_3 H 0.2523 0.7368 0.0161
N3_3 N 0.4979(5) 0.9230(3) 0.1745(4)
N4_3 N 0.4038(5) 0.9124(3) 0.1893(4)
O9_3 O 0.5899(5) 0.9550(3) 0.2909(3)
O10_3 O 0.5480(6) 0.9787(4) 0.4028(4)
O11_3 O 0.4198(6) 0.9492(4) 0.4283(4)
O12_3 O 0.3491(5) 0.9357(3) 0.3291(3)
O15_3 O 0.6912(6) 0.9802(4) 0.1634(4)
H23_3 H 0.7270 0.9923 0.1433
H24_3 H 0.6921 0.9876 0.2186
Zn5_5 Zn 0.5000 1.0000 0.5000
C1_4 C 0.4548(4) 0.0412(4) 0.6756(5)
C2_4 C 0.5080(3) 0.0598(4) 0.7383(5)
C3_4 C 0.5657(3) 0.0673(4) 0.7293(5)
C4 C 0.5998(4) 0.0590(4) 0.6517(5)
C5_4 C 0.5565(4) 0.0927(4) 0.8656(5)
C6_4 C 0.5723(4) 0.1166(4) 0.9614(5)
C7_4 C 0.6291(4) 0.1656(5) 0.9799(6)
H1_4 H 0.6594 0.1847 0.9326
H7_4 H 0.7477 0.2632 0.9839
N1_4 N 0.5021(3) 0.0770(3) 0.8255(4)
N2_3 N 0.5962(3) 0.0876(3) 0.8107(4)
O1_4 O 0.4101(2) 0.0450(3) 0.7091(3)
O2 O 0.4520(3) 0.0213(4) 0.5972(4)
O3 O 0.5802(3) 0.0508(4) 0.5717(4)
O4_3 O 0.6509(2) 0.0643(3) 0.6709(3)
O7_4 O 0.3088(3) 0.0198(4) 0.8366(4)
H10_4 H 0.2730 0.0077 0.8567
H11_4 H 0.3079 0.0124 0.7814
O8 O 0.5233(6) 0.0852(6) 0.4241(8)
H12 H 0.4991 0.0955 0.3908
H13 H 0.5230 0.1104 0.4668
Zn1_4 Zn 0.41059(5) 0.06506(5) 0.85329(7)
C13_4 C 0.3745(4) 0.2530(6) 0.9911(5)
C14_4 C 0.3931(4) 0.2184(5) 0.9284(5)
C15_4 C 0.4006(4) 0.1682(5) 0.9374(5)
C17_4 C 0.4260(4) 0.2028(6) 0.8011(5)
C18_4 C 0.4499(4) 0.2109(6) 0.7053(5)
C19_4 C 0.4989(5) 0.2031(6) 0.6868(6)
H14_4 H 0.5180 0.1919 0.7341
C20 C 0.5200(6) 0.2124(8) 0.5948(9)
C21 C 0.4939(6) 0.2269(8) 0.5249(7)
H15 H 0.5089 0.2318 0.4629
C22 C 0.4459(6) 0.2338(8) 0.5464(6)
H16 H 0.4269 0.2439 0.4975
C23 C 0.4218(4) 0.2274(6) 0.6345(5)
H17 H 0.3879 0.2336 0.6468
C24 C 0.6129(7) 0.2145(11) 0.6351(15)
H18 H 0.6485 0.2156 0.6046
H19 H 0.6258 0.2546 0.6644
H20_4 H 0.5965 0.1821 0.6828
N3_4 N 0.4103(3) 0.2415(4) 0.8412(4)
N4_4 N 0.4209(3) 0.1580(4) 0.8560(4)
O9_4 O 0.3783(3) 0.3015(4) 0.9576(3)
O12_4 O 0.3976(3) 0.0800(4) 0.9958(3)
O13 O 0.5691(6) 0.2027(8) 0.5720(8)
O14_4 O 0.3044(3) 0.2532(4) 0.7633(5)
H21_4 H 0.3101 0.2226 0.7599
H22_4 H 0.3057 0.2677 0.7103
O15_4 O 0.3531(4) 0.3776(5) 0.8301(4)
H23_4 H 0.3410 0.4013 0.8100
H24_4 H 0.3457 0.3711 0.8853
Zn3_2 Zn 0.39839(5) 0.32113(7) 0.81338(7)
N5_2 N 0.4913(4) 0.4038(3) 0.8107(4)
O19_2 O 0.4133(4) 0.3491(2) 0.6709(3)
Zn4_3 Zn 0.67887(7) 0.07726(5) 0.81338(7)
O6_4 O 0.3845(3) 0.9711(3) 0.9034(5)
H8_4 H 0.4208 0.9768 0.9068
H9_4 H 0.3713 0.9724 0.9564
O16 O 0.4767(6) 0.9148(6) 0.5759(8)
H25 H 0.5009 0.9045 0.6092
H26 H 0.4770 0.8896 0.5332
O6_5 O 0.0289(3) 0.4135(4) 0.9034(5)
H8_5 H 0.0232 0.4441 0.9068
H9_5 H 0.0276 0.3990 0.9564
O16_2 O 0.0852(6) 0.5618(8) 0.5759(8)
H25_2 H 0.0955 0.5963 0.6092
H26_2 H 0.1104 0.5873 0.5332
C1_5 C 0.9588(4) 0.4137(6) 0.6756(5)
C2_5 C 0.9402(4) 0.4483(5) 0.7383(5)
C3_5 C 0.9327(4) 0.4985(5) 0.7293(5)
C4_2 C 0.9410(4) 0.5409(6) 0.6517(5)
C5_5 C 0.9073(4) 0.4639(6) 0.8656(5)
C6_5 C 0.8834(4) 0.4558(6) 0.9614(5)
C7_5 C 0.8344(5) 0.4636(6) 0.9799(6)
H1_5 H 0.8153 0.4748 0.9326
H7_5 H 0.7368 0.4846 0.9839
N1_5 N 0.9230(3) 0.4252(4) 0.8255(4)
N2_4 N 0.9124(3) 0.5087(4) 0.8107(4)
O1_5 O 0.9550(3) 0.3652(4) 0.7091(3)
O2_2 O 0.9787(4) 0.4308(5) 0.5972(4)
O3_2 O 0.9492(4) 0.5295(5) 0.5717(4)
O4_4 O 0.9357(3) 0.5867(4) 0.6709(3)
O7_5 O 0.9802(4) 0.2891(5) 0.8366(4)
H10_5 H 0.9923 0.2654 0.8567
H11_5 H 0.9876 0.2956 0.7814
O8_2 O 0.9148(6) 0.4382(8) 0.4241(8)
H12_2 H 0.9045 0.4037 0.3908
H13_2 H 0.8896 0.4127 0.4668
Zn1_5 Zn 0.93494(5) 0.34554(7) 0.85329(7)
C13_5 C 0.7470(6) 0.1215(7) 0.9911(5)
C14_5 C 0.7816(5) 0.1747(6) 0.9284(5)
C15_5 C 0.8318(5) 0.2324(6) 0.9374(5)
C17_5 C 0.7972(6) 0.2232(7) 0.8011(5)
C18_5 C 0.7891(6) 0.2390(7) 0.7053(5)
C19_5 C 0.7969(6) 0.2958(8) 0.6868(6)
H14_5 H 0.8081 0.3261 0.7341
C20_2 C 0.7876(8) 0.3076(10) 0.5948(9)
C21_2 C 0.7731(8) 0.2670(10) 0.5249(7)
H15_2 H 0.7682 0.2771 0.4629
C22_2 C 0.7662(8) 0.2121(10) 0.5464(6)
H16_2 H 0.7561 0.1830 0.4975
C23_2 C 0.7726(6) 0.1944(7) 0.6345(5)
H17_2 H 0.7664 0.1543 0.6468
C24_2 C 0.7855(11) 0.3984(13) 0.6351(15)
H18_2 H 0.7844 0.4329 0.6046
H19_2 H 0.7454 0.3712 0.6644
H20_5 H 0.8179 0.4144 0.6828
N3_5 N 0.7585(4) 0.1688(5) 0.8412(4)
N4_5 N 0.8420(4) 0.2629(5) 0.8560(4)
O9_5 O 0.6985(4) 0.0768(5) 0.9576(3)
O12_5 O 0.9200(4) 0.3176(5) 0.9958(3)
O13_2 O 0.7973(8) 0.3664(10) 0.5720(8)
O14_5 O 0.7468(4) 0.0512(5) 0.7633(5)
H21_5 H 0.7774 0.0875 0.7599
H22_5 H 0.7323 0.0380 0.7103
Zn4_4 Zn 0.92274(5) 0.60161(9) 0.81338(7)
O15_5 O 0.6224(5) 0.9755(6) 0.8301(4)
H23_5 H 0.5987 0.9397 0.8100
H24_5 H 0.6289 0.9746 0.8853
O15_6 O 0.0245(6) 0.6469(4) 0.8301(4)
H23_6 H 0.0603 0.6590 0.8100
H24_6 H 0.0254 0.6543 0.8853
C1_6 C 0.5863(6) 0.5452(4) 0.6756(5)
C2_6 C 0.5517(5) 0.4920(3) 0.7383(5)
C3_6 C 0.5015(5) 0.4343(3) 0.7293(5)
C4_3 C 0.4591(6) 0.4002(4) 0.6517(5)
C5_6 C 0.5361(6) 0.4435(4) 0.8656(5)
C6_6 C 0.5442(6) 0.4277(4) 0.9614(5)
C7_6 C 0.5364(6) 0.3709(4) 0.9799(6)
H1_6 H 0.5252 0.3406 0.9326
H7_6 H 0.5154 0.2523 0.9839
N1_6 N 0.5748(4) 0.4979(3) 0.8255(4)
O1_6 O 0.6348(4) 0.5899(2) 0.7091(3)
O2_3 O 0.5692(5) 0.5480(3) 0.5972(4)
O3_3 O 0.4705(5) 0.4198(3) 0.5717(4)
O6_6 O 0.5865(4) 0.6155(3) 0.9034(5)
H8_6 H 0.5559 0.5792 0.9068
H9_6 H 0.6010 0.6287 0.9564
O7_6 O 0.7109(5) 0.6912(3) 0.8366(4)
H10_6 H 0.7346 0.7270 0.8567
H11_6 H 0.7044 0.6921 0.7814
O8_3 O 0.5618(8) 0.4767(6) 0.4241(8)
H12_3 H 0.5963 0.5009 0.3908
H13_3 H 0.5873 0.4770 0.4668
Zn1_6 Zn 0.65446(7) 0.58941(5) 0.85329(7)
C13_6 C 0.8785(7) 0.6255(4) 0.9911(5)
C14_6 C 0.8253(6) 0.6069(4) 0.9284(5)
C15_6 C 0.7676(6) 0.5994(4) 0.9374(5)
C17_6 C 0.7768(7) 0.5740(4) 0.8011(5)
C18_6 C 0.7610(7) 0.5501(4) 0.7053(5)
C19_6 C 0.7042(8) 0.5011(5) 0.6868(6)
H14_6 H 0.6739 0.4820 0.7341
C20_3 C 0.6924(10) 0.4800(6) 0.5948(9)
C21_3 C 0.7330(10) 0.5061(6) 0.5249(7)
H15_3 H 0.7229 0.4911 0.4629
C22_3 C 0.7879(10) 0.5541(6) 0.5464(6)
H16_3 H 0.8170 0.5731 0.4975
C23_3 C 0.8056(7) 0.5782(4) 0.6345(5)
H17_3 H 0.8457 0.6121 0.6468
C24_3 C 0.6016(13) 0.3871(7) 0.6351(15)
H18_3 H 0.5671 0.3515 0.6046
H19_3 H 0.6288 0.3742 0.6644
H20_6 H 0.5856 0.4035 0.6828
N3_6 N 0.8312(5) 0.5897(3) 0.8412(4)
N4_6 N 0.7371(5) 0.5791(3) 0.8560(4)
O9_6 O 0.9232(5) 0.6217(3) 0.9576(3)
O12_6 O 0.6824(5) 0.6024(3) 0.9958(3)
O13_3 O 0.6336(10) 0.4309(6) 0.5720(8)
O14_6 O 0.9488(5) 0.6956(3) 0.7633(5)
H21_6 H 0.9125 0.6899 0.7599
H22_6 H 0.9620 0.6943 0.7103
O16_3 O 0.4382(8) 0.5233(6) 0.5759(8)
H25_3 H 0.4037 0.4991 0.6092
H26_3 H 0.4127 0.5230 0.5332
C4_4 C 0.2665(4) 0.3923(4) 0.9850(5)
O2_4 O 0.1187(3) 0.3546(4) 0.9305(4)
O3_4 O 0.2469(3) 0.3841(4) 0.9050(4)
O8_4 O 0.1900(6) 0.4185(6) 0.7574(8)
H12_4 H 0.1658 0.4288 0.7241
H13_4 H 0.1897 0.4437 0.8001
Zn2 Zn 0.1667 0.3333 0.8333
C20_4 C 0.1867(6) 0.5457(8) 0.9281(9)
C21_4 C 0.1606(6) 0.5602(8) 0.8582(7)
H15_4 H 0.1756 0.5651 0.7962
C22_4 C 0.1126(6) 0.5671(8) 0.8797(6)
H16_4 H 0.0936 0.5772 0.8308
C23_4 C 0.0885(4) 0.5607(6) 0.9678(5)
H17_4 H 0.0546 0.5669 0.9801
C24_4 C 0.2796(7) 0.5478(11) 0.9684(15)
H18_4 H 0.3152 0.5489 0.9379
H19_4 H 0.2925 0.5879 0.9977
O13_4 O 0.2358(6) 0.5360(8) 0.9053(8)
O16_4 O 0.1433(6) 0.2482(6) 0.9093(8)
H25_4 H 0.1675 0.2379 0.9426
H26_4 H 0.1436 0.2230 0.8666
O17 O 0.2146(3) 0.3121(4) 0.7362(4)
O18 O 0.0864(3) 0.2826(4) 0.7617(4)
C4_5 C 0.6077(4) 0.8742(6) 0.9850(5)
O2_5 O 0.6454(4) 0.7641(5) 0.9305(4)
O3_5 O 0.6159(4) 0.8628(5) 0.9050(4)
O8_5 O 0.5815(6) 0.7715(8) 0.7574(8)
H12_5 H 0.5712 0.7370 0.7241
H13_5 H 0.5563 0.7460 0.8001
Zn2_2 Zn 0.6667 0.8334 0.8333
C20_5 C 0.4543(8) 0.6409(10) 0.9281(9)
C21_5 C 0.4398(8) 0.6003(10) 0.8582(7)
H15_5 H 0.4349 0.6104 0.7962
C22_5 C 0.4329(8) 0.5454(10) 0.8797(6)
H16_5 H 0.4228 0.5163 0.8308
C23_5 C 0.4393(6) 0.5277(7) 0.9678(5)
H17_5 H 0.4331 0.4876 0.9801
C24_5 C 0.4522(11) 0.7317(13) 0.9684(15)
H18_5 H 0.4511 0.7662 0.9379
H19_5 H 0.4121 0.7045 0.9977
O13_5 O 0.4640(8) 0.6997(10) 0.9053(8)
O16_5 O 0.7518(6) 0.8952(8) 0.9093(8)
H25_5 H 0.7621 0.9297 0.9426
H26_5 H 0.7770 0.9207 0.8666
O17_2 O 0.6879(4) 0.9026(5) 0.7362(4)
O18_2 O 0.7174(4) 0.8039(5) 0.7617(4)
C4_6 C 0.1258(6) 0.7335(4) 0.9850(5)
O2_6 O 0.2359(5) 0.8813(3) 0.9305(4)
O3_6 O 0.1372(5) 0.7531(3) 0.9050(4)
O8_6 O 0.2285(8) 0.8100(6) 0.7574(8)
H12_6 H 0.2630 0.8342 0.7241
H13_6 H 0.2540 0.8103 0.8001
Zn2_3 Zn 0.1666 0.8333 0.8333
C20_6 C 0.3591(10) 0.8133(6) 0.9281(9)
C21_6 C 0.3997(10) 0.8394(6) 0.8582(7)
H15_6 H 0.3896 0.8244 0.7962
C22_6 C 0.4546(10) 0.8874(6) 0.8797(6)
H16_6 H 0.4837 0.9064 0.8308
C23_6 C 0.4723(7) 0.9115(4) 0.9678(5)
H17_6 H 0.5124 0.9454 0.9801
C24_6 C 0.2683(13) 0.7204(7) 0.9684(15)
H18_6 H 0.2338 0.6848 0.9379
H19_6 H 0.2955 0.7075 0.9977
O13_6 O 0.3003(10) 0.7642(6) 0.9053(8)
O16_6 O 0.1048(8) 0.8567(6) 0.9093(8)
H25_6 H 0.0703 0.8325 0.9426
H26_6 H 0.0793 0.8564 0.8666
O17_3 O 0.0974(5) 0.7854(3) 0.7362(4)
O18_3 O 0.1961(5) 0.9136(3) 0.7617(4)
C12_4 C 0.0651(8) 0.9462(7) 0.6982(15)
H5_4 H 0.0996 0.9818 0.7287
H6_4 H 0.0379 0.9591 0.6689
H7_7 H 0.0811 0.9298 0.6505
O5_4 O 0.0331(5) 0.9024(6) 0.7613(8)
Zn4_5 Zn 0.01220(7) 0.74393(5) 0.48005(7)
O15_7 O 0.6864(4) 0.0443(5) 0.4968(4)
H23_7 H 0.6743 0.0680 0.4767
H24_7 H 0.6790 0.0378 0.5520
N5_3 N 0.8247(4) 0.0704(3) 0.4773(4)
O19_3 O 0.7467(4) 0.0157(2) 0.3375(3)
C1_7 C 0.7882(4) 0.7078(4) 0.3422(5)
C2_7 C 0.8414(3) 0.7264(4) 0.4049(5)
C3_7 C 0.8991(3) 0.7339(4) 0.3959(5)
C4_7 C 0.9332(4) 0.7256(4) 0.3183(5)
C5_7 C 0.8899(4) 0.7593(4) 0.5322(5)
C6_7 C 0.9057(4) 0.7832(4) 0.6280(5)
C7_7 C 0.9625(4) 0.8322(5) 0.6465(6)
H1_7 H 0.9928 0.8513 0.5992
C8_4 C 0.9743(6) 0.8533(6) 0.7385(9)
C9_4 C 0.9337(6) 0.8272(6) 0.8084(7)
H2_4 H 0.9438 0.8422 0.8704
C10_4 C 0.8788(6) 0.7792(6) 0.7869(6)
H3_4 H 0.8497 0.7602 0.8358
C11_4 C 0.8611(4) 0.7551(4) 0.6988(5)
H4_4 H 0.8210 0.7212 0.6865
N1_7 N 0.8355(3) 0.7436(3) 0.4921(4)
N2_5 N 0.9296(3) 0.7542(3) 0.4773(4)
O1_7 O 0.7435(2) 0.7116(3) 0.3757(3)
O2_7 O 0.7854(3) 0.6879(4) 0.2638(4)
O3_7 O 0.9136(3) 0.7174(4) 0.2383(4)
O4_5 O 0.9843(2) 0.7309(3) 0.3375(3)
O6_7 O 0.7179(3) 0.6377(3) 0.5700(5)
H8_7 H 0.7542 0.6434 0.5734
H9_7 H 0.7047 0.6390 0.6230
O7_7 O 0.6422(3) 0.6864(4) 0.5032(4)
H10_7 H 0.6064 0.6743 0.5233
H11_7 H 0.6413 0.6790 0.4480
O8_7 O 0.8567(6) 0.7518(6) 0.0907(8)
H12_7 H 0.8325 0.7621 0.0574
H13_7 H 0.8564 0.7770 0.1334
Zn1_7 Zn 0.74393(5) 0.73172(5) 0.51995(7)
Zn2_4 Zn 0.8334 0.6666 0.1666
C13_7 C 0.7078(4) 0.9197(6) 0.6578(5)
C14_7 C 0.7264(4) 0.8851(5) 0.5951(5)
C15_7 C 0.7339(4) 0.8349(5) 0.6041(5)
C16_4 C 0.7256(4) 0.7925(6) 0.6817(5)
C17_7 C 0.7593(4) 0.8695(6) 0.4678(5)
C18_7 C 0.7832(4) 0.8776(6) 0.3720(5)
C19_7 C 0.8322(5) 0.8698(6) 0.3535(6)
H14_7 H 0.8513 0.8586 0.4008
C20_7 C 0.8533(6) 0.8791(8) 0.2615(9)
C21_7 C 0.8272(6) 0.8936(8) 0.1916(7)
H15_7 H 0.8422 0.8985 0.1296
C22_7 C 0.7792(6) 0.9005(8) 0.2131(6)
H16_7 H 0.7602 0.9106 0.1642
C23_7 C 0.7551(4) 0.8941(6) 0.3012(5)
H17_7 H 0.7212 0.9003 0.3135
C24_7 C 0.9462(7) 0.8812(11) 0.3018(15)
H18_7 H 0.9818 0.8823 0.2713
H19_7 H 0.9591 0.9213 0.3311
H20_7 H 0.9298 0.8488 0.3495
N3_7 N 0.7436(3) 0.9082(4) 0.5079(4)
N4_7 N 0.7542(3) 0.8247(4) 0.5227(4)
O9_7 O 0.7116(3) 0.9682(4) 0.6243(3)
O12_7 O 0.7309(3) 0.7467(4) 0.6625(3)
O13_7 O 0.9024(6) 0.8694(8) 0.2387(8)
O14_7 O 0.6377(3) 0.9199(4) 0.4300(5)
H21_7 H 0.6434 0.8893 0.4266
H22_7 H 0.6390 0.9344 0.3770
Zn3_3 Zn 0.73172(5) 0.98780(7) 0.48005(7)
O16_7 O 0.8100(6) 0.5815(6) 0.2426(8)
H25_7 H 0.8342 0.5712 0.2759
H26_7 H 0.8103 0.5563 0.1999
O17_4 O 0.8813(3) 0.6454(4) 0.0695(4)
O18_4 O 0.7531(3) 0.6159(4) 0.0950(4)
C1_8 C 0.2922(4) 0.0803(6) 0.3422(5)
C2_8 C 0.2736(4) 0.1149(5) 0.4049(5)
C3_8 C 0.2661(4) 0.1651(5) 0.3959(5)
C4_8 C 0.2744(4) 0.2075(6) 0.3183(5)
C5_8 C 0.2407(4) 0.1305(6) 0.5322(5)
C6_8 C 0.2168(4) 0.1224(6) 0.6280(5)
C7_8 C 0.1678(5) 0.1302(6) 0.6465(6)
H1_8 H 0.1487 0.1414 0.5992
C8_5 C 0.1467(6) 0.1209(8) 0.7385(9)
C9_5 C 0.1728(6) 0.1064(8) 0.8084(7)
H2_5 H 0.1578 0.1015 0.8704
C10_5 C 0.2208(6) 0.0995(8) 0.7869(6)
H3_5 H 0.2398 0.0894 0.8358
C11_5 C 0.2449(4) 0.1059(6) 0.6988(5)
H4_5 H 0.2788 0.0997 0.6865
C12_5 C 0.0538(7) 0.1188(11) 0.6982(15)
H5_5 H 0.0182 0.1177 0.7287
H6_5 H 0.0409 0.0787 0.6689
H7_8 H 0.0702 0.1512 0.6505
N1_8 N 0.2564(3) 0.0918(4) 0.4921(4)
N2_6 N 0.2458(3) 0.1753(4) 0.4773(4)
O1_8 O 0.2884(3) 0.0318(4) 0.3757(3)
O2_8 O 0.3121(4) 0.0974(5) 0.2638(4)
O3_8 O 0.2826(4) 0.1961(5) 0.2383(4)
O4_6 O 0.2691(3) 0.2533(4) 0.3375(3)
O5_5 O 0.0976(6) 0.1306(8) 0.7613(8)
O6_8 O 0.3623(3) 0.0801(4) 0.5700(5)
H8_8 H 0.3566 0.1107 0.5734
H9_8 H 0.3610 0.0656 0.6230
O8_8 O 0.2482(6) 0.1048(8) 0.0907(8)
H12_8 H 0.2379 0.0703 0.0574
H13_8 H 0.2230 0.0793 0.1334
Zn1_8 Zn 0.26828(5) 0.01220(7) 0.51995(7)
Zn2_5 Zn 0.3334 0.1667 0.1666
C24_8 C 0.1188(11) 0.0651(13) 0.3018(15)
H18_8 H 0.1177 0.0996 0.2713
H19_8 H 0.0787 0.0379 0.3311
H20_8 H 0.1512 0.0811 0.3495
O13_8 O 0.1306(8) 0.0331(10) 0.2387(8)
O16_8 O 0.4185(6) 0.2285(8) 0.2426(8)
H25_8 H 0.4288 0.2630 0.2759
H26_8 H 0.4437 0.2540 0.1999
O17_5 O 0.3546(4) 0.2359(5) 0.0695(4)
O18_5 O 0.3841(4) 0.1372(5) 0.0950(4)
Zn4_6 Zn 0.25607(5) 0.26828(9) 0.48005(7)
O7_8 O 0.3136(4) 0.9557(5) 0.5032(4)
H10_8 H 0.3257 0.9320 0.5233
H11_8 H 0.3210 0.9622 0.4480
C13_8 C 0.0803(6) 0.7882(7) 0.6578(5)
C14_8 C 0.1149(5) 0.8414(6) 0.5951(5)
C15_8 C 0.1651(5) 0.8991(6) 0.6041(5)
C16_5 C 0.2075(6) 0.9332(7) 0.6817(5)
C17_8 C 0.1305(6) 0.8899(7) 0.4678(5)
C18_8 C 0.1224(6) 0.9057(7) 0.3720(5)
C19_8 C 0.1302(6) 0.9625(8) 0.3535(6)
H14_8 H 0.1414 0.9928 0.4008
C20_8 C 0.1209(8) 0.9743(10) 0.2615(9)
C21_8 C 0.1064(8) 0.9337(10) 0.1916(7)
H15_8 H 0.1015 0.9438 0.1296
C22_8 C 0.0995(8) 0.8788(10) 0.2131(6)
H16_8 H 0.0894 0.8497 0.1642
C23_8 C 0.1059(6) 0.8611(7) 0.3012(5)
H17_8 H 0.0997 0.8210 0.3135
N3_8 N 0.0918(4) 0.8355(5) 0.5079(4)
N4_8 N 0.1753(4) 0.9296(5) 0.5227(4)
O9_8 O 0.0318(4) 0.7435(5) 0.6243(3)
O12_8 O 0.2533(4) 0.9843(5) 0.6625(3)
O14_8 O 0.0801(4) 0.7179(5) 0.4300(5)
H21_8 H 0.1107 0.7542 0.4266
H22_8 H 0.0656 0.7047 0.3770
O15_8 O 0.9557(5) 0.6422(6) 0.4968(4)
H23_8 H 0.9320 0.6064 0.4767
H24_8 H 0.9622 0.6413 0.5520
O7_9 O 0.0443(5) 0.3578(3) 0.5032(4)
H10_9 H 0.0680 0.3936 0.5233
H11_9 H 0.0378 0.3587 0.4480
C13_9 C 0.2118(7) 0.2922(4) 0.6578(5)
C14_9 C 0.1586(6) 0.2736(4) 0.5951(5)
C15_9 C 0.1009(6) 0.2661(4) 0.6041(5)
C16_6 C 0.0668(7) 0.2744(4) 0.6817(5)
C17_9 C 0.1101(7) 0.2407(4) 0.4678(5)
C18_9 C 0.0943(7) 0.2168(4) 0.3720(5)
C19_9 C 0.0375(8) 0.1678(5) 0.3535(6)
H14_9 H 0.0072 0.1487 0.4008
C20_9 C 0.0257(10) 0.1467(6) 0.2615(9)
C21_9 C 0.0663(10) 0.1728(6) 0.1916(7)
H15_9 H 0.0562 0.1578 0.1296
C22_9 C 0.1212(10) 0.2208(6) 0.2131(6)
H16_9 H 0.1503 0.2398 0.1642
C23_9 C 0.1389(7) 0.2449(4) 0.3012(5)
H17_9 H 0.1790 0.2788 0.3135
N3_9 N 0.1645(5) 0.2564(3) 0.5079(4)
N4_9 N 0.0704(5) 0.2458(3) 0.5227(4)
O9_9 O 0.2565(5) 0.2884(3) 0.6243(3)
O12_9 O 0.0157(5) 0.2691(3) 0.6625(3)
O14_9 O 0.2821(5) 0.3623(3) 0.4300(5)
H21_9 H 0.2458 0.3566 0.4266
H22_9 H 0.2953 0.3610 0.3770
O15_9 O 0.3578(6) 0.3136(4) 0.4968(4)
H23_9 H 0.3936 0.3257 0.4767
H24_9 H 0.3587 0.3210 0.5520
C1_9 C 0.9197(6) 0.2118(4) 0.3422(5)
C2_9 C 0.8851(5) 0.1586(3) 0.4049(5)
C3_9 C 0.8349(5) 0.1009(3) 0.3959(5)
C4_9 C 0.7925(6) 0.0668(4) 0.3183(5)
C5_9 C 0.8695(6) 0.1101(4) 0.5322(5)
C6_9 C 0.8776(6) 0.0943(4) 0.6280(5)
C7_9 C 0.8698(6) 0.0375(4) 0.6465(6)
H1_9 H 0.8586 0.0072 0.5992
C8_6 C 0.8791(8) 0.0257(6) 0.7385(9)
C9_6 C 0.8936(8) 0.0663(6) 0.8084(7)
H2_6 H 0.8985 0.0562 0.8704
C10_6 C 0.9005(8) 0.1212(6) 0.7869(6)
H3_6 H 0.9106 0.1503 0.8358
C11_6 C 0.8941(6) 0.1389(4) 0.6988(5)
H4_6 H 0.9003 0.1790 0.6865
N1_9 N 0.9082(4) 0.1645(3) 0.4921(4)
O1_9 O 0.9682(4) 0.2565(2) 0.3757(3)
O2_9 O 0.9026(5) 0.2146(3) 0.2638(4)
O3_9 O 0.8039(5) 0.0864(3) 0.2383(4)
O6_9 O 0.9199(4) 0.2821(3) 0.5700(5)
H8_9 H 0.8893 0.2458 0.5734
H9_9 H 0.9344 0.2953 0.6230
O8_9 O 0.8952(8) 0.1433(6) 0.0907(8)
H12_9 H 0.9297 0.1675 0.0574
H13_9 H 0.9207 0.1436 0.1334
Zn1_9 Zn 0.98780(7) 0.25607(5) 0.51995(7)
Zn2_6 Zn 0.8333 0.1666 0.1666
C24_9 C 0.9349(13) 0.0538(7) 0.3018(15)
H18_9 H 0.9004 0.0182 0.2713
H19_9 H 0.9621 0.0409 0.3311
H20_9 H 0.9189 0.0702 0.3495
O13_9 O 0.9669(10) 0.0976(6) 0.2387(8)
O16_9 O 0.7715(8) 0.1900(6) 0.2426(8)
H25_9 H 0.7370 0.1658 0.2759
H26_9 H 0.7460 0.1897 0.1999
O17_6 O 0.7641(5) 0.1187(3) 0.0695(4)
O18_6 O 0.8628(5) 0.2469(3) 0.0950(4)
C12_6 C 0.8812(11) 0.9349(8) 0.6982(15)
H5_6 H 0.8823 0.9004 0.7287
H6_6 H 0.9213 0.9621 0.6689
H7_9 H 0.8488 0.9189 0.6505
O5_6 O 0.8694(8) 0.9669(5) 0.7613(8)
C8_7 C 0.6409(6) 0.1867(6) 0.0719(9)
C9_7 C 0.6003(6) 0.1606(6) 0.1418(7)
H2_7 H 0.6104 0.1756 0.2038
C10_7 C 0.5454(6) 0.1126(6) 0.1203(6)
H3_7 H 0.5163 0.0936 0.1692
C11_7 C 0.5277(4) 0.0885(4) 0.0322(5)
H4_7 H 0.4876 0.0546 0.0199
C12_7 C 0.7317(8) 0.2796(7) 0.0316(15)
H5_7 H 0.7662 0.3152 0.0621
H6_7 H 0.7045 0.2925 0.0023
O5_7 O 0.6997(5) 0.2358(6) 0.0947(8)
C16_7 C 0.3923(4) 0.1258(6) 0.0150(5)
C8_8 C 0.8133(6) 0.4543(8) 0.0719(9)
C9_8 C 0.8394(6) 0.4398(8) 0.1418(7)
H2_8 H 0.8244 0.4349 0.2038
C10_8 C 0.8874(6) 0.4329(8) 0.1203(6)
H3_8 H 0.9064 0.4228 0.1692
C11_8 C 0.9115(4) 0.4393(6) 0.0322(5)
H4_8 H 0.9454 0.4331 0.0199
C12_8 C 0.7204(7) 0.4522(11) 0.0316(15)
H5_8 H 0.6848 0.4511 0.0621
H6_8 H 0.7075 0.4121 0.0023
O5_8 O 0.7642(6) 0.4640(8) 0.0947(8)
C16_8 C 0.8742(6) 0.2665(7) 0.0150(5)
C8_9 C 0.5457(8) 0.3591(6) 0.0719(9)
C9_9 C 0.5602(8) 0.3997(6) 0.1418(7)
H2_9 H 0.5651 0.3896 0.2038
C10_9 C 0.5671(8) 0.4546(6) 0.1203(6)
H3_9 H 0.5772 0.4837 0.1692
C11_9 C 0.5607(6) 0.4723(4) 0.0322(5)
H4_9 H 0.5669 0.5124 0.0199
C12_9 C 0.5478(11) 0.2683(8) 0.0316(15)
H5_9 H 0.5489 0.2338 0.0621
H6_9 H 0.5879 0.2955 0.0023
O5_9 O 0.5360(8) 0.3003(5) 0.0947(8)
C16_9 C 0.7335(7) 0.6077(4) 0.0150(5)
loop_
_geom_bond_atom_site_label_1
_geom_bond_atom_site_label_2
_geom_bond_site_symmetry_1
_geom_bond_site_symmetry_2
C1 C2 1_555 1_555
C2 C3 1_555 1_555
C5 C6 1_555 1_555
C6 C7 1_555 1_555
C7 H1 1_555 1_555
C8 C7 1_555 1_555
C9 C8 1_555 1_555
H2 C9 1_555 1_555
C10 C9 1_555 1_555
H3 C10 1_555 1_555
C11 C6 1_555 1_555
H4 C11 1_555 1_555
C12 H5 1_555 1_555
H6 C12 1_555 1_555
H7 C12 1_555 1_555
N1 C2 1_555 1_555
N2 C3 1_555 1_555
O1 C1 1_555 1_555
O5 C8 1_555 1_555
O6 H8 1_555 1_555
H9 O6 1_555 1_555
Zn1 N1 1_555 1_555
C13 C14 1_555 1_555
C14 C15 1_555 1_555
C15 C16 1_555 1_555
C16 O11 1_555 1_555
C17 C18 1_555 1_555
C18 C19 1_555 1_555
C19 H14 1_555 1_555
N3 C14 1_555 1_555
N4 Zn1 1_555 1_555
O9 C13 1_555 1_555
O10 C13 1_555 1_555
O11 Zn5 1_555 1_555
O12 Zn1 1_555 1_555
O15 H23 1_555 1_555
H24 O15 1_555 1_555
Zn3 N3 1_555 1_555
N5 Zn3 1_555 1_555
O19 Zn3 1_555 1_555
Zn4 N2 1_555 1_555
Zn5 O10 1_555 1_555
C5 N1 1_555 1_555
C5 N2 1_555 1_555
C10 C11 1_555 1_555
C12 O5 1_555 1_555
O1 Zn1 1_555 1_555
O4 Zn4 1_555 1_555
O6 Zn1 1_555 1_555
C15 N4 1_555 1_555
C16 O12 1_555 1_555
C17 N3 1_555 1_555
C17 N4 1_555 1_555
O9 Zn3 1_555 1_555
O15 Zn3 1_555 1_555
O7 H10 1_555 1_555
H11 O7 1_555 1_555
O14 H21 1_555 1_555
H22 O14 1_555 1_555
C1_2 C2_2 1_555 1_555
C2_2 C3_2 1_555 1_555
C5_2 C6_2 1_555 1_555
C6_2 C7_2 1_555 1_555
C7_2 H1_2 1_555 1_555
C8_2 C7_2 1_555 1_555
C9_2 C8_2 1_555 1_555
H2_2 C9_2 1_555 1_555
C10_2 C9_2 1_555 1_555
H3_2 C10_2 1_555 1_555
C11_2 C6_2 1_555 1_555
H4_2 C11_2 1_555 1_555
C12_2 H5_2 1_555 1_555
H6_2 C12_2 1_555 1_555
H7_2 C12_2 1_555 1_555
N1_2 C2_2 1_555 1_555
N2_2 C3_2 1_555 1_555
O1_2 C1_2 1_555 1_555
O5_2 C8_2 1_555 1_555
O6_2 H8_2 1_555 1_555
H9_2 O6_2 1_555 1_555
O7_2 H10_2 1_555 1_555
H11_2 O7_2 1_555 1_555
Zn1_2 N1_2 1_555 1_555
C13_2 C14_2 1_555 1_555
C14_2 C15_2 1_555 1_555
C15_2 C16_2 1_555 1_555
C16_2 O11_2 1_555 1_555
C17_2 C18_2 1_555 1_555
C18_2 C19_2 1_555 1_555
C19_2 H14_2 1_555 1_555
N3_2 C14_2 1_555 1_555
N4_2 Zn1_2 1_555 1_555
O9_2 C13_2 1_555 1_555
O10_2 C13_2 1_555 1_555
O11_2 Zn5_3 1_555 1_555
O12_2 Zn1_2 1_555 1_555
O14_2 H21_2 1_555 1_555
H22_2 O14_2 1_555 1_555
O15_2 H23_2 1_555 1_555
H24_2 O15_2 1_555 1_555
Zn4 N3_2 1_555 1_555
Zn4_2 N2_2 1_555 1_555
Zn5_3 O10_2 1_555 1_555
C5_2 N1_2 1_555 1_555
C5_2 N2_2 1_555 1_555
C10_2 C11_2 1_555 1_555
C12_2 O5_2 1_555 1_555
O1_2 Zn1_2 1_555 1_555
O4_2 Zn4_2 1_555 1_555
O6_2 Zn1_2 1_555 1_555
O7_2 Zn1_2 1_555 1_555
C15_2 N4_2 1_555 1_555
C16_2 O12_2 1_555 1_555
C17_2 N3_2 1_555 1_555
C17_2 N4_2 1_555 1_555
O9_2 Zn4 1_555 1_555
O14_2 Zn4 1_555 1_555
O15_2 Zn4 1_555 1_555
O7_3 H10_3 1_555 1_555
H11_3 O7_3 1_555 1_555
O14_3 H21_3 1_555 1_555
H22_3 O14_3 1_555 1_555
C1_3 C2_3 1_555 1_555
C2_3 C3_3 1_555 1_555
C5_3 C6_3 1_555 1_555
C6_3 C7_3 1_555 1_555
C7_3 H1_3 1_555 1_555
C8_3 C7_3 1_555 1_555
C9_3 C8_3 1_555 1_555
H2_3 C9_3 1_555 1_555
C10_3 C9_3 1_555 1_555
H3_3 C10_3 1_555 1_555
C11_3 C6_3 1_555 1_555
H4_3 C11_3 1_555 1_555
C12_3 H5_3 1_555 1_555
H6_3 C12_3 1_555 1_555
H7_3 C12_3 1_555 1_555
N1_3 C2_3 1_555 1_555
N5 C3_3 1_555 1_555
O1_3 C1_3 1_555 1_555
O5_3 C8_3 1_555 1_555
O6_3 H8_3 1_555 1_555
H9_3 O6_3 1_555 1_555
Zn1_3 N1_3 1_555 1_555
C13_3 C14_3 1_555 1_555
C14_3 C15_3 1_555 1_555
C15_3 C16_3 1_555 1_555
C16_3 O11_3 1_555 1_555
C17_3 C18_3 1_555 1_555
C18_3 C19_3 1_555 1_555
C19_3 H14_3 1_555 1_555
N3_3 C14_3 1_555 1_555
N4_3 Zn1_3 1_555 1_555
O9_3 C13_3 1_555 1_555
O10_3 C13_3 1_555 1_555
O11_3 Zn5_5 1_555 1_555
O12_3 Zn1_3 1_555 1_555
O15_3 H23_3 1_555 1_555
H24_3 O15_3 1_555 1_555
Zn4_2 N3_3 1_555 1_555
Zn5_5 O10_3 1_555 1_555
C5_3 N1_3 1_555 1_555
C5_3 N5 1_555 1_555
C10_3 C11_3 1_555 1_555
C12_3 O5_3 1_555 1_555
O1_3 Zn1_3 1_555 1_555
O6_3 Zn1_3 1_555 1_555
C15_3 N4_3 1_555 1_555
C16_3 O12_3 1_555 1_555
C17_3 N3_3 1_555 1_555
C17_3 N4_3 1_555 1_555
O9_3 Zn4_2 1_555 1_555
O15_3 Zn4_2 1_555 1_555
C1_4 C2_4 1_555 1_555
C2_4 C3_4 1_555 1_555
C3_4 C4 1_555 1_555
C4 O3 1_555 1_555
C5_4 C6_4 1_555 1_555
C6_4 C7_4 1_555 1_555
C7_4 H1_4 1_555 1_555
N1_4 C2_4 1_555 1_555
N2_3 C3_4 1_555 1_555
O1_4 C1_4 1_555 1_555
O2 C1_4 1_555 1_555
O3 Zn5_4 1_555 1_555
O4_3 C4 1_555 1_555
O7_4 H10_4 1_555 1_555
H11_4 O7_4 1_555 1_555
O8 H12 1_555 1_555
H13 O8 1_555 1_555
Zn1_4 N1_4 1_555 1_555
Zn5_4 O2 1_555 1_555
C13_4 C14_4 1_555 1_555
C14_4 C15_4 1_555 1_555
C17_4 C18_4 1_555 1_555
C18_4 C19_4 1_555 1_555
C19_4 H14_4 1_555 1_555
C20 C19_4 1_555 1_555
C21 C20 1_555 1_555
H15 C21 1_555 1_555
C22 C21 1_555 1_555
H16 C22 1_555 1_555
C23 C18_4 1_555 1_555
H17 C23 1_555 1_555
C24 H18 1_555 1_555
H19 C24 1_555 1_555
H20_4 C24 1_555 1_555
N3_4 C14_4 1_555 1_555
N4_4 Zn1_4 1_555 1_555
O9_4 C13_4 1_555 1_555
O12_4 Zn1_4 1_555 1_555
O13 C20 1_555 1_555
O14_4 H21_4 1_555 1_555
H22_4 O14_4 1_555 1_555
O15_4 H23_4 1_555 1_555
H24_4 O15_4 1_555 1_555
Zn3_2 N3_4 1_555 1_555
N5_2 Zn3_2 1_555 1_555
O19_2 Zn3_2 1_555 1_555
Zn4_3 N2_3 1_555 1_555
C5_4 N1_4 1_555 1_555
C5_4 N2_3 1_555 1_555
O1_4 Zn1_4 1_555 1_555
O4_3 Zn4_3 1_555 1_555
O7_4 Zn1_4 1_555 1_555
O8 Zn5_4 1_555 1_555
C15_4 N4_4 1_555 1_555
C17_4 N3_4 1_555 1_555
C17_4 N4_4 1_555 1_555
C22 C23 1_555 1_555
C24 O13 1_555 1_555
O9_4 Zn3_2 1_555 1_555
O14_4 Zn3_2 1_555 1_555
O15_4 Zn3_2 1_555 1_555
O6_4 H8_4 1_555 1_555
H9_4 O6_4 1_555 1_555
O16 Zn5_5 1_555 1_555
H25 O16 1_555 1_555
H26 O16 1_555 1_555
O6_5 H8_5 1_555 1_555
H9_5 O6_5 1_555 1_555
O16_2 Zn5 1_555 1_555
H25_2 O16_2 1_555 1_555
H26_2 O16_2 1_555 1_555
C1_5 C2_5 1_555 1_555
C2_5 C3_5 1_555 1_555
C3_5 C4_2 1_555 1_555
C4_2 O3_2 1_555 1_555
C5_5 C6_5 1_555 1_555
C6_5 C7_5 1_555 1_555
C7_5 H1_5 1_555 1_555
N1_5 C2_5 1_555 1_555
N2_4 C3_5 1_555 1_555
O1_5 C1_5 1_555 1_555
O2_2 C1_5 1_555 1_555
O3_2 Zn5_2 1_555 1_555
O4_4 C4_2 1_555 1_555
O7_5 H10_5 1_555 1_555
H11_5 O7_5 1_555 1_555
O8_2 H12_2 1_555 1_555
H13_2 O8_2 1_555 1_555
Zn1_5 N1_5 1_555 1_555
Zn5_2 O2_2 1_555 1_555
C13_5 C14_5 1_555 1_555
C14_5 C15_5 1_555 1_555
C17_5 C18_5 1_555 1_555
C18_5 C19_5 1_555 1_555
C19_5 H14_5 1_555 1_555
C20_2 C19_5 1_555 1_555
C21_2 C20_2 1_555 1_555
H15_2 C21_2 1_555 1_555
C22_2 C21_2 1_555 1_555
H16_2 C22_2 1_555 1_555
C23_2 C18_5 1_555 1_555
H17_2 C23_2 1_555 1_555
C24_2 H18_2 1_555 1_555
H19_2 C24_2 1_555 1_555
H20_5 C24_2 1_555 1_555
N3_5 C14_5 1_555 1_555
N4_5 Zn1_5 1_555 1_555
O9_5 C13_5 1_555 1_555
O12_5 Zn1_5 1_555 1_555
O13_2 C20_2 1_555 1_555
O14_5 H21_5 1_555 1_555
H22_5 O14_5 1_555 1_555
Zn4_3 N3_5 1_555 1_555
Zn4_4 N2_4 1_555 1_555
C5_5 N1_5 1_555 1_555
C5_5 N2_4 1_555 1_555
O1_5 Zn1_5 1_555 1_555
O4_4 Zn4_4 1_555 1_555
O7_5 Zn1_5 1_555 1_555
O8_2 Zn5_2 1_555 1_555
C15_5 N4_5 1_555 1_555
C17_5 N3_5 1_555 1_555
C17_5 N4_5 1_555 1_555
C22_2 C23_2 1_555 1_555
C24_2 O13_2 1_555 1_555
O9_5 Zn4_3 1_555 1_555
O14_5 Zn4_3 1_555 1_555
O15_5 H23_5 1_555 1_555
H24_5 O15_5 1_555 1_555
O15_6 H23_6 1_555 1_555
H24_6 O15_6 1_555 1_555
C1_6 C2_6 1_555 1_555
C2_6 C3_6 1_555 1_555
C3_6 C4_3 1_555 1_555
C4_3 O3_3 1_555 1_555
C5_6 C6_6 1_555 1_555
C6_6 C7_6 1_555 1_555
C7_6 H1_6 1_555 1_555
N1_6 C2_6 1_555 1_555
N5_2 C3_6 1_555 1_555
O1_6 C1_6 1_555 1_555
O2_3 C1_6 1_555 1_555
O3_3 Zn5_3 1_555 1_555
O19_2 C4_3 1_555 1_555
O6_6 H8_6 1_555 1_555
H9_6 O6_6 1_555 1_555
O7_6 H10_6 1_555 1_555
H11_6 O7_6 1_555 1_555
O8_3 H12_3 1_555 1_555
H13_3 O8_3 1_555 1_555
Zn1_6 N1_6 1_555 1_555
Zn5_3 O2_3 1_555 1_555
C13_6 C14_6 1_555 1_555
C14_6 C15_6 1_555 1_555
C17_6 C18_6 1_555 1_555
C18_6 C19_6 1_555 1_555
C19_6 H14_6 1_555 1_555
C20_3 C19_6 1_555 1_555
C21_3 C20_3 1_555 1_555
H15_3 C21_3 1_555 1_555
C22_3 C21_3 1_555 1_555
H16_3 C22_3 1_555 1_555
C23_3 C18_6 1_555 1_555
H17_3 C23_3 1_555 1_555
C24_3 H18_3 1_555 1_555
H19_3 C24_3 1_555 1_555
H20_6 C24_3 1_555 1_555
N3_6 C14_6 1_555 1_555
N4_6 Zn1_6 1_555 1_555
O9_6 C13_6 1_555 1_555
O12_6 Zn1_6 1_555 1_555
O13_3 C20_3 1_555 1_555
O14_6 H21_6 1_555 1_555
H22_6 O14_6 1_555 1_555
Zn4_4 N3_6 1_555 1_555
O16_3 Zn5_3 1_555 1_555
H25_3 O16_3 1_555 1_555
H26_3 O16_3 1_555 1_555
C5_6 N1_6 1_555 1_555
C5_6 N5_2 1_555 1_555
O1_6 Zn1_6 1_555 1_555
O6_6 Zn1_6 1_555 1_555
O7_6 Zn1_6 1_555 1_555
O8_3 Zn5_3 1_555 1_555
C15_6 N4_6 1_555 1_555
C17_6 N3_6 1_555 1_555
C17_6 N4_6 1_555 1_555
C22_3 C23_3 1_555 1_555
C24_3 O13_3 1_555 1_555
O9_6 Zn4_4 1_555 1_555
O14_6 Zn4_4 1_555 1_555
C4_4 O3_4 1_555 1_555
O3_4 Zn2 1_555 1_555
O8_4 H12_4 1_555 1_555
H13_4 O8_4 1_555 1_555
Zn2 O2_4 1_555 1_555
C21_4 C20_4 1_555 1_555
H15_4 C21_4 1_555 1_555
C22_4 C21_4 1_555 1_555
H16_4 C22_4 1_555 1_555
H17_4 C23_4 1_555 1_555
C24_4 H18_4 1_555 1_555
H19_4 C24_4 1_555 1_555
O13_4 C20_4 1_555 1_555
O16_4 Zn2 1_555 1_555
H25_4 O16_4 1_555 1_555
H26_4 O16_4 1_555 1_555
O17 Zn2 1_555 1_555
O18 Zn2 1_555 1_555
O8_4 Zn2 1_555 1_555
C22_4 C23_4 1_555 1_555
C24_4 O13_4 1_555 1_555
C4_5 O3_5 1_555 1_555
O3_5 Zn2_2 1_555 1_555
O8_5 H12_5 1_555 1_555
H13_5 O8_5 1_555 1_555
Zn2_2 O2_5 1_555 1_555
C21_5 C20_5 1_555 1_555
H15_5 C21_5 1_555 1_555
C22_5 C21_5 1_555 1_555
H16_5 C22_5 1_555 1_555
H17_5 C23_5 1_555 1_555
C24_5 H18_5 1_555 1_555
H19_5 C24_5 1_555 1_555
O13_5 C20_5 1_555 1_555
O16_5 Zn2_2 1_555 1_555
H25_5 O16_5 1_555 1_555
H26_5 O16_5 1_555 1_555
O17_2 Zn2_2 1_555 1_555
O18_2 Zn2_2 1_555 1_555
O8_5 Zn2_2 1_555 1_555
C22_5 C23_5 1_555 1_555
C24_5 O13_5 1_555 1_555
C4_6 O3_6 1_555 1_555
O3_6 Zn2_3 1_555 1_555
O8_6 H12_6 1_555 1_555
H13_6 O8_6 1_555 1_555
Zn2_3 O2_6 1_555 1_555
C21_6 C20_6 1_555 1_555
H15_6 C21_6 1_555 1_555
C22_6 C21_6 1_555 1_555
H16_6 C22_6 1_555 1_555
H17_6 C23_6 1_555 1_555
C24_6 H18_6 1_555 1_555
H19_6 C24_6 1_555 1_555
O13_6 C20_6 1_555 1_555
O16_6 Zn2_3 1_555 1_555
H25_6 O16_6 1_555 1_555
H26_6 O16_6 1_555 1_555
O17_3 Zn2_3 1_555 1_555
O18_3 Zn2_3 1_555 1_555
O8_6 Zn2_3 1_555 1_555
C22_6 C23_6 1_555 1_555
C24_6 O13_6 1_555 1_555
C12_4 H5_4 1_555 1_555
H6_4 C12_4 1_555 1_555
H7_7 C12_4 1_555 1_555
C12_4 O5_4 1_555 1_555
O15_7 H23_7 1_555 1_555
H24_7 O15_7 1_555 1_555
C1_7 C2_7 1_555 1_555
C2_7 C3_7 1_555 1_555
C3_7 C4_7 1_555 1_555
C4_7 O3_7 1_555 1_555
C5_7 C6_7 1_555 1_555
C6_7 C7_7 1_555 1_555
C7_7 H1_7 1_555 1_555
C8_4 C7_7 1_555 1_555
C9_4 C8_4 1_555 1_555
H2_4 C9_4 1_555 1_555
C10_4 C9_4 1_555 1_555
H3_4 C10_4 1_555 1_555
C11_4 C6_7 1_555 1_555
H4_4 C11_4 1_555 1_555
N1_7 C2_7 1_555 1_555
N2_5 C3_7 1_555 1_555
O1_7 C1_7 1_555 1_555
O2_7 C1_7 1_555 1_555
O3_7 Zn2_4 1_555 1_555
O4_5 C4_7 1_555 1_555
O6_7 H8_7 1_555 1_555
H9_7 O6_7 1_555 1_555
O7_7 H10_7 1_555 1_555
H11_7 O7_7 1_555 1_555
O8_7 H12_7 1_555 1_555
H13_7 O8_7 1_555 1_555
Zn1_7 N1_7 1_555 1_555
Zn2_4 O2_7 1_555 1_555
C13_7 C14_7 1_555 1_555
C14_7 C15_7 1_555 1_555
C15_7 C16_4 1_555 1_555
C16_4 O18_2 1_555 1_555
C17_7 C18_7 1_555 1_555
C18_7 C19_7 1_555 1_555
C19_7 H14_7 1_555 1_555
C20_7 C19_7 1_555 1_555
C21_7 C20_7 1_555 1_555
H15_7 C21_7 1_555 1_555
C22_7 C21_7 1_555 1_555
H16_7 C22_7 1_555 1_555
C23_7 C18_7 1_555 1_555
H17_7 C23_7 1_555 1_555
C24_7 H18_7 1_555 1_555
H19_7 C24_7 1_555 1_555
H20_7 C24_7 1_555 1_555
N3_7 C14_7 1_555 1_555
N4_7 Zn1_7 1_555 1_555
O9_7 C13_7 1_555 1_555
O17_2 C13_7 1_555 1_555
O12_7 Zn1_7 1_555 1_555
O13_7 C20_7 1_555 1_555
O14_7 H21_7 1_555 1_555
H22_7 O14_7 1_555 1_555
Zn3_3 N3_7 1_555 1_555
O16_7 Zn2_4 1_555 1_555
H25_7 O16_7 1_555 1_555
H26_7 O16_7 1_555 1_555
O17_4 Zn2_4 1_555 1_555
O18_4 Zn2_4 1_555 1_555
C5_7 N1_7 1_555 1_555
C5_7 N2_5 1_555 1_555
C10_4 C11_4 1_555 1_555
O1_7 Zn1_7 1_555 1_555
O6_7 Zn1_7 1_555 1_555
O7_7 Zn1_7 1_555 1_555
O8_7 Zn2_4 1_555 1_555
C15_7 N4_7 1_555 1_555
C16_4 O12_7 1_555 1_555
C17_7 N3_7 1_555 1_555
C17_7 N4_7 1_555 1_555
C22_7 C23_7 1_555 1_555
C24_7 O13_7 1_555 1_555
O9_7 Zn3_3 1_555 1_555
O14_7 Zn3_3 1_555 1_555
C1_8 C2_8 1_555 1_555
C2_8 C3_8 1_555 1_555
C3_8 C4_8 1_555 1_555
C4_8 O3_8 1_555 1_555
C5_8 C6_8 1_555 1_555
C6_8 C7_8 1_555 1_555
C7_8 H1_8 1_555 1_555
C8_5 C7_8 1_555 1_555
C9_5 C8_5 1_555 1_555
H2_5 C9_5 1_555 1_555
C10_5 C9_5 1_555 1_555
H3_5 C10_5 1_555 1_555
C11_5 C6_8 1_555 1_555
H4_5 C11_5 1_555 1_555
C12_5 H5_5 1_555 1_555
H6_5 C12_5 1_555 1_555
H7_8 C12_5 1_555 1_555
N1_8 C2_8 1_555 1_555
N2_6 C3_8 1_555 1_555
O1_8 C1_8 1_555 1_555
O2_8 C1_8 1_555 1_555
O3_8 Zn2_5 1_555 1_555
O4_6 C4_8 1_555 1_555
O5_5 C8_5 1_555 1_555
O6_8 H8_8 1_555 1_555
H9_8 O6_8 1_555 1_555
O8_8 H12_8 1_555 1_555
H13_8 O8_8 1_555 1_555
Zn1_8 N1_8 1_555 1_555
Zn2_5 O2_8 1_555 1_555
C24_8 H18_8 1_555 1_555
H19_8 C24_8 1_555 1_555
H20_8 C24_8 1_555 1_555
O16_8 Zn2_5 1_555 1_555
H25_8 O16_8 1_555 1_555
H26_8 O16_8 1_555 1_555
O17_5 Zn2_5 1_555 1_555
O18_5 Zn2_5 1_555 1_555
Zn4_6 N2_6 1_555 1_555
C5_8 N1_8 1_555 1_555
C5_8 N2_6 1_555 1_555
C10_5 C11_5 1_555 1_555
C12_5 O5_5 1_555 1_555
O1_8 Zn1_8 1_555 1_555
O4_6 Zn4_6 1_555 1_555
O6_8 Zn1_8 1_555 1_555
O8_8 Zn2_5 1_555 1_555
C24_8 O13_8 1_555 1_555
O7_8 H10_8 1_555 1_555
H11_8 O7_8 1_555 1_555
C13_8 C14_8 1_555 1_555
C14_8 C15_8 1_555 1_555
C15_8 C16_5 1_555 1_555
C16_5 O18_3 1_555 1_555
C17_8 C18_8 1_555 1_555
C18_8 C19_8 1_555 1_555
C19_8 H14_8 1_555 1_555
C20_8 C19_8 1_555 1_555
C21_8 C20_8 1_555 1_555
H15_8 C21_8 1_555 1_555
C22_8 C21_8 1_555 1_555
H16_8 C22_8 1_555 1_555
C23_8 C18_8 1_555 1_555
H17_8 C23_8 1_555 1_555
N3_8 C14_8 1_555 1_555
O9_8 C13_8 1_555 1_555
O17_3 C13_8 1_555 1_555
O14_8 H21_8 1_555 1_555
H22_8 O14_8 1_555 1_555
Zn4_5 N3_8 1_555 1_555
C15_8 N4_8 1_555 1_555
C16_5 O12_8 1_555 1_555
C17_8 N3_8 1_555 1_555
C17_8 N4_8 1_555 1_555
C22_8 C23_8 1_555 1_555
O9_8 Zn4_5 1_555 1_555
O14_8 Zn4_5 1_555 1_555
O15_8 H23_8 1_555 1_555
H24_8 O15_8 1_555 1_555
O7_9 H10_9 1_555 1_555
H11_9 O7_9 1_555 1_555
C13_9 C14_9 1_555 1_555
C14_9 C15_9 1_555 1_555
C15_9 C16_6 1_555 1_555
C16_6 O18 1_555 1_555
C17_9 C18_9 1_555 1_555
C18_9 C19_9 1_555 1_555
C19_9 H14_9 1_555 1_555
C20_9 C19_9 1_555 1_555
C21_9 C20_9 1_555 1_555
H15_9 C21_9 1_555 1_555
C22_9 C21_9 1_555 1_555
H16_9 C22_9 1_555 1_555
C23_9 C18_9 1_555 1_555
H17_9 C23_9 1_555 1_555
N3_9 C14_9 1_555 1_555
O9_9 C13_9 1_555 1_555
O17 C13_9 1_555 1_555
O14_9 H21_9 1_555 1_555
H22_9 O14_9 1_555 1_555
O15_9 H23_9 1_555 1_555
H24_9 O15_9 1_555 1_555
Zn4_6 N3_9 1_555 1_555
C15_9 N4_9 1_555 1_555
C16_6 O12_9 1_555 1_555
C17_9 N3_9 1_555 1_555
C17_9 N4_9 1_555 1_555
C22_9 C23_9 1_555 1_555
O9_9 Zn4_6 1_555 1_555
O14_9 Zn4_6 1_555 1_555
O15_9 Zn4_6 1_555 1_555
C1_9 C2_9 1_555 1_555
C2_9 C3_9 1_555 1_555
C3_9 C4_9 1_555 1_555
C4_9 O3_9 1_555 1_555
C5_9 C6_9 1_555 1_555
C6_9 C7_9 1_555 1_555
C7_9 H1_9 1_555 1_555
C8_6 C7_9 1_555 1_555
C9_6 C8_6 1_555 1_555
H2_6 C9_6 1_555 1_555
C10_6 C9_6 1_555 1_555
H3_6 C10_6 1_555 1_555
C11_6 C6_9 1_555 1_555
H4_6 C11_6 1_555 1_555
N1_9 C2_9 1_555 1_555
N5_3 C3_9 1_555 1_555
O1_9 C1_9 1_555 1_555
O2_9 C1_9 1_555 1_555
O3_9 Zn2_6 1_555 1_555
O19_3 C4_9 1_555 1_555
O6_9 H8_9 1_555 1_555
H9_9 O6_9 1_555 1_555
O8_9 H12_9 1_555 1_555
H13_9 O8_9 1_555 1_555
Zn1_9 N1_9 1_555 1_555
Zn2_6 O2_9 1_555 1_555
C24_9 H18_9 1_555 1_555
H19_9 C24_9 1_555 1_555
H20_9 C24_9 1_555 1_555
O16_9 Zn2_6 1_555 1_555
H25_9 O16_9 1_555 1_555
H26_9 O16_9 1_555 1_555
O17_6 Zn2_6 1_555 1_555
O18_6 Zn2_6 1_555 1_555
C5_9 N1_9 1_555 1_555
C5_9 N5_3 1_555 1_555
C10_6 C11_6 1_555 1_555
O1_9 Zn1_9 1_555 1_555
O6_9 Zn1_9 1_555 1_555
O8_9 Zn2_6 1_555 1_555
C24_9 O13_9 1_555 1_555
C12_6 H5_6 1_555 1_555
H6_6 C12_6 1_555 1_555
H7_9 C12_6 1_555 1_555
C12_6 O5_6 1_555 1_555
C9_7 C8_7 1_555 1_555
H2_7 C9_7 1_555 1_555
C10_7 C9_7 1_555 1_555
H3_7 C10_7 1_555 1_555
H4_7 C11_7 1_555 1_555
C12_7 H5_7 1_555 1_555
H6_7 C12_7 1_555 1_555
O5_7 C8_7 1_555 1_555
C16_7 O18_5 1_555 1_555
C10_7 C11_7 1_555 1_555
C12_7 O5_7 1_555 1_555
C9_8 C8_8 1_555 1_555
H2_8 C9_8 1_555 1_555
C10_8 C9_8 1_555 1_555
H3_8 C10_8 1_555 1_555
H4_8 C11_8 1_555 1_555
C12_8 H5_8 1_555 1_555
H6_8 C12_8 1_555 1_555
O5_8 C8_8 1_555 1_555
C16_8 O18_6 1_555 1_555
C10_8 C11_8 1_555 1_555
C12_8 O5_8 1_555 1_555
C9_9 C8_9 1_555 1_555
H2_9 C9_9 1_555 1_555
C10_9 C9_9 1_555 1_555
H3_9 C10_9 1_555 1_555
H4_9 C11_9 1_555 1_555
C12_9 H5_9 1_555 1_555
H6_9 C12_9 1_555 1_555
O5_9 C8_9 1_555 1_555
C16_9 O18_4 1_555 1_555
C10_9 C11_9 1_555 1_555
C12_9 O5_9 1_555 1_555

#END
