
###############################################################################
#
# This file contains modified crystal structure data generated from the
# MOF subset of the Cambridge Structural Database (CSD) v543 
# hosted by the Cambridge Crystallographic Data Centre (CCDC).
#
# This work is licensed under the Creative Commons
# Attribution-NonCommercial-ShareAlike 4.0 International License.
# To view a copy of this license, visit
# http://creativecommons.org/licenses/by-nc-sa/4.0/
# or send a letter to
# Creative Commons, PO Box 1866, Mountain View, CA 94042, USA.
#
# CIF created using the CSD Python API on 29 September 2022
# The structure has been converted into the P1 space group
# The structure has a 3D framework
# The original CSD entry GUKQUZ is in the cubic crystal system
# The framework has been calculated to contain at least 10.0% void space
# The void calculation uses a probe of radius 1.32A, grid spacing 0.4
# H atom positions have been added when not included in the experimental data
# Generated hydrogen atom positions removed from atoms on special positions
#
###############################################################################

data_GUKQUZ
_chemical_formula_moiety         '(C1152 H2304 O716 Zn172)n'
_symmetry_cell_setting           triclinic
_symmetry_space_group_name_H-M   'P 1'
_symmetry_Int_Tables_number      1
_space_group_name_Hall           'P 1'
loop_
_symmetry_equiv_pos_site_id
_symmetry_equiv_pos_as_xyz
1 x,y,z
_cell_length_a                   43.622(4)
_cell_length_b                   43.622(4)
_cell_length_c                   43.622(4)
_cell_angle_alpha                90
_cell_angle_beta                 90
_cell_angle_gamma                90
_cell_volume                     83007.4
loop_
_atom_site_label
_atom_site_type_symbol
_atom_site_fract_x
_atom_site_fract_y
_atom_site_fract_z
Zn1 Zn 0.26872(5) 0.5000 0.0000
Zn2 Zn 0.20059(6) 0.5000 0.0000
Zn3 Zn 0.16010(4) 0.33990(4) 0.16010(4)
Zn4 Zn 0.11336(3) 0.38664(3) 0.11336(3)
O1 O 0.3144(3) 0.5000 0.0000
O2 O 0.2903(3) 0.3888(3) 0.1112(3)
O3 O 0.2597(2) 0.46755(15) 0.03245(15)
C1 C 0.1782(5) 0.3874(3) 0.1126(3)
O4 O 0.2091(2) 0.46734(14) 0.03266(14)
O5 O 0.1558(2) 0.39677(17) 0.10323(17)
C2 C 0.2351(3) 0.43413(19) 0.06587(19)
C3 C 0.2076(3) 0.4000(3) 0.1000(3)
O6 O 0.1557(5) 0.5000 0.0000
C4 C 0.2077(3) 0.4228(2) 0.0772(2)
H1 H 0.1888 0.4305 0.0695
C5 C 0.2373(4) 0.3897(2) 0.1103(2)
H2 H 0.2385 0.3743 0.1257
C6 C 0.2631(3) 0.4237(2) 0.0763(2)
H3 H 0.2817 0.4317 0.0683
O7 O 0.1827(3) 0.3675(2) 0.1325(2)
C7 C 0.2636(4) 0.4018(3) 0.0982(3)
O8 O 0.0874(4) 0.4126(4) 0.0874(4)
C8 C 0.2356(3) 0.4578(2) 0.0422(2)
O9 O 0.1935(3) 0.3065(3) 0.1502(10)
C9 C 0.3398(5) 0.3787(3) 0.1213(3)
C10 C 0.3527(3) 0.3527(3) 0.1082(6)
C11 C 0.3395(5) 0.3395(5) 0.0779(6)
H4 H 0.3299 0.3560 0.0661
H5 H 0.3241 0.3238 0.0827
C12 C 0.3155(6) 0.3992(5) 0.1008(5)
H6 H 0.3178 0.4214 0.1048
O10 O 0.3888(3) 0.3888(3) 0.2097(3)
O11 O 0.46755(15) 0.46755(15) 0.2403(2)
C13 C 0.3874(3) 0.3874(3) 0.3218(5)
O12 O 0.46734(14) 0.46734(14) 0.2909(2)
O13 O 0.39677(17) 0.39677(17) 0.3442(2)
C14 C 0.43413(19) 0.43413(19) 0.2649(3)
C15 C 0.4000(3) 0.4000(3) 0.2924(3)
C16 C 0.4228(2) 0.4228(2) 0.2923(3)
H7 H 0.4305 0.4305 0.3112
C17 C 0.3897(2) 0.3897(2) 0.2627(4)
H8 H 0.3743 0.3743 0.2615
C18 C 0.4237(2) 0.4237(2) 0.2369(3)
H9 H 0.4317 0.4317 0.2183
O14 O 0.3675(2) 0.3675(2) 0.3173(3)
C19 C 0.4018(3) 0.4018(3) 0.2364(4)
C20 C 0.4578(2) 0.4578(2) 0.2644(3)
C21 C 0.3787(3) 0.3787(3) 0.1602(5)
C22 C 0.3527(3) 0.3918(6) 0.1473(3)
C23 C 0.3395(5) 0.4221(6) 0.1605(5)
H10 H 0.3560 0.4339 0.1701
H11 H 0.3238 0.4173 0.1759
C24 C 0.3992(5) 0.3992(5) 0.1845(6)
H12 H 0.4214 0.3952 0.1822
O15 O 0.3888(3) 0.2903(3) 0.1112(3)
O16 O 0.46755(15) 0.2597(2) 0.03245(15)
C25 C 0.3874(3) 0.1782(5) 0.1126(3)
O17 O 0.46734(14) 0.2091(2) 0.03266(14)
O18 O 0.39677(17) 0.1558(2) 0.10323(17)
C26 C 0.43413(19) 0.2351(3) 0.06587(19)
C27 C 0.4000(3) 0.2076(3) 0.1000(3)
C28 C 0.4228(2) 0.2077(3) 0.0772(2)
H13 H 0.4305 0.1888 0.0695
C29 C 0.3897(2) 0.2373(4) 0.1103(2)
H14 H 0.3743 0.2385 0.1257
C30 C 0.4237(2) 0.2631(3) 0.0763(2)
H15 H 0.4317 0.2817 0.0683
O19 O 0.3675(2) 0.1827(3) 0.1325(2)
C31 C 0.4018(3) 0.2636(4) 0.0982(3)
C32 C 0.4578(2) 0.2356(3) 0.0422(2)
C33 C 0.3787(3) 0.3398(5) 0.1213(3)
C34 C 0.3918(6) 0.3527(3) 0.1473(3)
C35 C 0.4221(6) 0.3395(5) 0.1605(5)
H16 H 0.4339 0.3299 0.1440
H17 H 0.4173 0.3241 0.1762
C36 C 0.3992(5) 0.3155(6) 0.1008(5)
H18 H 0.3952 0.3178 0.0786
H19 H 0.3560 0.3299 0.0661
H20 H 0.4214 0.3178 0.1048
H21 H 0.3299 0.4339 0.1440
H22 H 0.3178 0.3952 0.0786
H23 H 0.4339 0.3560 0.1701
H24 H 0.3952 0.4214 0.1822
Zn5 Zn 0.5000 0.26872(5) 0.0000
Zn6 Zn 0.5000 0.20059(6) 0.0000
O20 O 0.5000 0.3144(3) 0.0000
O21 O 0.6112(3) 0.2903(3) 0.1112(3)
O22 O 0.53245(15) 0.2597(2) 0.03245(15)
C37 C 0.6126(3) 0.1782(5) 0.1126(3)
O23 O 0.53266(14) 0.2091(2) 0.03266(14)
O24 O 0.60323(17) 0.1558(2) 0.10323(17)
C38 C 0.56587(19) 0.2351(3) 0.06587(19)
C39 C 0.6000(3) 0.2076(3) 0.1000(3)
O25 O 0.5000 0.1557(5) 0.0000
C40 C 0.5772(2) 0.2077(3) 0.0772(2)
H25 H 0.5695 0.1888 0.0695
C41 C 0.6103(2) 0.2373(4) 0.1103(2)
H26 H 0.6257 0.2385 0.1257
C42 C 0.5763(2) 0.2631(3) 0.0763(2)
H27 H 0.5683 0.2817 0.0683
O26 O 0.6325(2) 0.1827(3) 0.1325(2)
C43 C 0.5982(3) 0.2636(4) 0.0982(3)
C44 C 0.5422(2) 0.2356(3) 0.0422(2)
C45 C 0.6213(3) 0.3398(5) 0.1213(3)
C46 C 0.6473(3) 0.3527(3) 0.1082(6)
C47 C 0.6605(5) 0.3395(5) 0.0779(6)
H28 H 0.6440 0.3299 0.0661
H29 H 0.6762 0.3241 0.0827
C48 C 0.6008(5) 0.3155(6) 0.1008(5)
H30 H 0.5786 0.3178 0.1048
O27 O 0.6112(3) 0.3888(3) 0.2097(3)
O28 O 0.53245(15) 0.46755(15) 0.2403(2)
C49 C 0.6126(3) 0.3874(3) 0.3218(5)
O29 O 0.53266(14) 0.46734(14) 0.2909(2)
O30 O 0.60323(17) 0.39677(17) 0.3442(2)
C50 C 0.56587(19) 0.43413(19) 0.2649(3)
C51 C 0.6000(3) 0.4000(3) 0.2924(3)
C52 C 0.5772(2) 0.4228(2) 0.2923(3)
H31 H 0.5695 0.4305 0.3112
C53 C 0.6103(2) 0.3897(2) 0.2627(4)
H32 H 0.6257 0.3743 0.2615
C54 C 0.5763(2) 0.4237(2) 0.2369(3)
H33 H 0.5683 0.4317 0.2183
O31 O 0.6325(2) 0.3675(2) 0.3173(3)
C55 C 0.5982(3) 0.4018(3) 0.2364(4)
C56 C 0.5422(2) 0.4578(2) 0.2644(3)
C57 C 0.6213(3) 0.3787(3) 0.1602(5)
C58 C 0.6082(6) 0.3527(3) 0.1473(3)
C59 C 0.5779(6) 0.3395(5) 0.1605(5)
H34 H 0.5661 0.3560 0.1701
H35 H 0.5827 0.3238 0.1759
C60 C 0.6008(5) 0.3992(5) 0.1845(6)
H36 H 0.6048 0.4214 0.1822
O32 O 0.7097(3) 0.3888(3) 0.1112(3)
O33 O 0.7403(2) 0.46755(15) 0.03245(15)
C61 C 0.8218(5) 0.3874(3) 0.1126(3)
O34 O 0.7909(2) 0.46734(14) 0.03266(14)
O35 O 0.8442(2) 0.39677(17) 0.10323(17)
C62 C 0.7649(3) 0.43413(19) 0.06587(19)
C63 C 0.7924(3) 0.4000(3) 0.1000(3)
C64 C 0.7923(3) 0.4228(2) 0.0772(2)
H37 H 0.8112 0.4305 0.0695
C65 C 0.7627(4) 0.3897(2) 0.1103(2)
H38 H 0.7615 0.3743 0.1257
C66 C 0.7369(3) 0.4237(2) 0.0763(2)
H39 H 0.7183 0.4317 0.0683
O36 O 0.8173(3) 0.3675(2) 0.1325(2)
C67 C 0.7364(4) 0.4018(3) 0.0982(3)
C68 C 0.7644(3) 0.4578(2) 0.0422(2)
C69 C 0.6602(5) 0.3787(3) 0.1213(3)
C70 C 0.6473(3) 0.3918(6) 0.1473(3)
C71 C 0.6605(5) 0.4221(6) 0.1605(5)
H40 H 0.6701 0.4339 0.1440
H41 H 0.6759 0.4173 0.1762
C72 C 0.6845(6) 0.3992(5) 0.1008(5)
H42 H 0.6822 0.3952 0.0786
H43 H 0.6701 0.3560 0.0661
H44 H 0.6822 0.4214 0.1048
H45 H 0.5661 0.3299 0.1440
H46 H 0.6048 0.3178 0.0786
H47 H 0.6440 0.4339 0.1701
H48 H 0.5786 0.3952 0.1822
Zn7 Zn 0.5000 0.73128(5) 0.0000
Zn8 Zn 0.5000 0.79941(6) 0.0000
O37 O 0.5000 0.6856(3) 0.0000
O38 O 0.3888(3) 0.7097(3) 0.1112(3)
O39 O 0.46755(15) 0.7403(2) 0.03245(15)
C73 C 0.3874(3) 0.8218(5) 0.1126(3)
O40 O 0.46734(14) 0.7909(2) 0.03266(14)
O41 O 0.39677(17) 0.8442(2) 0.10323(17)
C74 C 0.43413(19) 0.7649(3) 0.06587(19)
C75 C 0.4000(3) 0.7924(3) 0.1000(3)
O42 O 0.5000 0.8443(5) 0.0000
C76 C 0.4228(2) 0.7923(3) 0.0772(2)
H49 H 0.4305 0.8112 0.0695
C77 C 0.3897(2) 0.7627(4) 0.1103(2)
H50 H 0.3743 0.7615 0.1257
C78 C 0.4237(2) 0.7369(3) 0.0763(2)
H51 H 0.4317 0.7183 0.0683
O43 O 0.3675(2) 0.8173(3) 0.1325(2)
C79 C 0.4018(3) 0.7364(4) 0.0982(3)
C80 C 0.4578(2) 0.7644(3) 0.0422(2)
C81 C 0.3787(3) 0.6602(5) 0.1213(3)
C82 C 0.3527(3) 0.6473(3) 0.1082(6)
C83 C 0.3395(5) 0.6605(5) 0.0779(6)
H52 H 0.3560 0.6701 0.0661
H53 H 0.3238 0.6759 0.0827
C84 C 0.3992(5) 0.6845(6) 0.1008(5)
H54 H 0.4214 0.6822 0.1048
O44 O 0.3888(3) 0.6112(3) 0.2097(3)
O45 O 0.46755(15) 0.53245(15) 0.2403(2)
C85 C 0.3874(3) 0.6126(3) 0.3218(5)
O46 O 0.46734(14) 0.53266(14) 0.2909(2)
O47 O 0.39677(17) 0.60323(17) 0.3442(2)
C86 C 0.43413(19) 0.56587(19) 0.2649(3)
C87 C 0.4000(3) 0.6000(3) 0.2924(3)
C88 C 0.4228(2) 0.5772(2) 0.2923(3)
H55 H 0.4305 0.5695 0.3112
C89 C 0.3897(2) 0.6103(2) 0.2627(4)
H56 H 0.3743 0.6257 0.2615
C90 C 0.4237(2) 0.5763(2) 0.2369(3)
H57 H 0.4317 0.5683 0.2183
O48 O 0.3675(2) 0.6325(2) 0.3173(3)
C91 C 0.4018(3) 0.5982(3) 0.2364(4)
C92 C 0.4578(2) 0.5422(2) 0.2644(3)
C93 C 0.3787(3) 0.6213(3) 0.1602(5)
C94 C 0.3918(6) 0.6473(3) 0.1473(3)
C95 C 0.4221(6) 0.6605(5) 0.1605(5)
H58 H 0.4339 0.6440 0.1701
H59 H 0.4173 0.6762 0.1759
C96 C 0.3992(5) 0.6008(5) 0.1845(6)
H60 H 0.3952 0.5786 0.1822
O49 O 0.2903(3) 0.6112(3) 0.1112(3)
O50 O 0.2597(2) 0.53245(15) 0.03245(15)
C97 C 0.1782(5) 0.6126(3) 0.1126(3)
O51 O 0.2091(2) 0.53266(14) 0.03266(14)
O52 O 0.1558(2) 0.60323(17) 0.10323(17)
C98 C 0.2351(3) 0.56587(19) 0.06587(19)
C99 C 0.2076(3) 0.6000(3) 0.1000(3)
C100 C 0.2077(3) 0.5772(2) 0.0772(2)
H61 H 0.1888 0.5695 0.0695
C101 C 0.2373(4) 0.6103(2) 0.1103(2)
H62 H 0.2385 0.6257 0.1257
C102 C 0.2631(3) 0.5763(2) 0.0763(2)
H63 H 0.2817 0.5683 0.0683
O53 O 0.1827(3) 0.6325(2) 0.1325(2)
C103 C 0.2636(4) 0.5982(3) 0.0982(3)
C104 C 0.2356(3) 0.5422(2) 0.0422(2)
C105 C 0.3398(5) 0.6213(3) 0.1213(3)
C106 C 0.3527(3) 0.6082(6) 0.1473(3)
C107 C 0.3395(5) 0.5779(6) 0.1605(5)
H64 H 0.3299 0.5661 0.1440
H65 H 0.3241 0.5827 0.1762
C108 C 0.3155(6) 0.6008(5) 0.1008(5)
H66 H 0.3178 0.6048 0.0786
H67 H 0.3299 0.6440 0.0661
H68 H 0.3178 0.5786 0.1048
H69 H 0.4339 0.6701 0.1440
H70 H 0.3952 0.6822 0.0786
H71 H 0.3560 0.5661 0.1701
H72 H 0.4214 0.6048 0.1822
Zn11 Zn 0.16010(4) 0.66010(4) 0.16010(4)
Zn12 Zn 0.11336(3) 0.61336(3) 0.11336(3)
O71 O 0.0874(4) 0.5874(4) 0.0874(4)
O72 O 0.1935(3) 0.6502(10) 0.1935(3)
Zn13 Zn 0.33990(4) 0.33990(4) 0.33990(4)
O73 O 0.3498(10) 0.3065(3) 0.3065(3)
Zn14 Zn 0.38664(3) 0.38664(3) 0.38664(3)
O74 O 0.4126(4) 0.4126(4) 0.4126(4)
O75 O 0.1502(10) 0.3065(3) 0.1935(3)
O76 O 0.1935(3) 0.3498(10) 0.1935(3)
O79 O 0.1502(10) 0.6935(3) 0.1935(3)
O80 O 0.1935(3) 0.6935(3) 0.1502(10)
O81 O 0.3065(3) 0.3498(10) 0.3065(3)
O82 O 0.3065(3) 0.3065(3) 0.3498(10)
Zn15 Zn 0.73128(5) 0.5000 0.0000
Zn17 Zn 0.5000 0.5000 0.23128(5)
Zn18 Zn 0.79941(6) 0.5000 0.0000
Zn20 Zn 0.5000 0.5000 0.29941(6)
Zn21 Zn 0.66010(4) 0.16010(4) 0.16010(4)
Zn22 Zn 0.33990(4) 0.83990(4) 0.16010(4)
Zn23 Zn 0.83990(4) 0.33990(4) 0.16010(4)
Zn24 Zn 0.33990(4) 0.16010(4) 0.16010(4)
Zn27 Zn 0.33990(4) 0.66010(4) 0.33990(4)
Zn28 Zn 0.66010(4) 0.33990(4) 0.33990(4)
Zn29 Zn 0.61336(3) 0.11336(3) 0.11336(3)
Zn30 Zn 0.38664(3) 0.88664(3) 0.11336(3)
Zn31 Zn 0.88664(3) 0.38664(3) 0.11336(3)
Zn32 Zn 0.38664(3) 0.11336(3) 0.11336(3)
Zn35 Zn 0.38664(3) 0.61336(3) 0.38664(3)
Zn36 Zn 0.61336(3) 0.38664(3) 0.38664(3)
O87 O 0.53245(15) 0.7403(2) 0.03245(15)
O92 O 0.53266(14) 0.7909(2) 0.03266(14)
O93 O 0.10323(17) 0.60323(17) 0.1558(2)
O95 O 0.10323(17) 0.3442(2) 0.10323(17)
O96 O 0.3442(2) 0.39677(17) 0.39677(17)
O97 O 0.10323(17) 0.6558(2) 0.10323(17)
O98 O 0.10323(17) 0.39677(17) 0.1558(2)
O100 O 0.39677(17) 0.3442(2) 0.39677(17)
O101 O 0.1325(2) 0.6325(2) 0.1827(3)
O103 O 0.1325(2) 0.3173(3) 0.1325(2)
O104 O 0.3173(3) 0.3675(2) 0.3675(2)
O105 O 0.1325(2) 0.6827(3) 0.1325(2)
O106 O 0.1325(2) 0.3675(2) 0.1827(3)
O108 O 0.3675(2) 0.3173(3) 0.3675(2)
Zn1_2 Zn 0.26872(5) 0.5000 1.0000
Zn2_2 Zn 0.20059(6) 0.5000 1.0000
O1_2 O 0.3144(3) 0.5000 1.0000
O6_2 O 0.1557(5) 0.5000 1.0000
Zn5_2 Zn 0.5000 0.26872(5) 1.0000
Zn6_2 Zn 0.5000 0.20059(6) 1.0000
O20_2 O 0.5000 0.3144(3) 1.0000
O25_2 O 0.5000 0.1557(5) 1.0000
Zn7_2 Zn 0.5000 0.73128(5) 1.0000
Zn8_2 Zn 0.5000 0.79941(6) 1.0000
O37_2 O 0.5000 0.6856(3) 1.0000
O42_2 O 0.5000 0.8443(5) 1.0000
Zn9 Zn 0.16010(4) 0.66010(4) 0.83990(4)
Zn10 Zn 0.11336(3) 0.61336(3) 0.88664(3)
O54 O 0.2903(3) 0.6112(3) 0.8888(3)
O55 O 0.2597(2) 0.53245(15) 0.96755(15)
C109 C 0.1782(5) 0.6126(3) 0.8874(3)
O56 O 0.2091(2) 0.53266(14) 0.96734(14)
O57 O 0.1558(2) 0.60323(17) 0.89677(17)
C110 C 0.2351(3) 0.56587(19) 0.93413(19)
C111 C 0.2076(3) 0.6000(3) 0.9000(3)
C112 C 0.2077(3) 0.5772(2) 0.9228(2)
H73 H 0.1888 0.5695 0.9305
C113 C 0.2373(4) 0.6103(2) 0.8897(2)
H74 H 0.2385 0.6257 0.8743
C114 C 0.2631(3) 0.5763(2) 0.9237(2)
H75 H 0.2817 0.5683 0.9317
O58 O 0.1827(3) 0.6325(2) 0.8675(2)
C115 C 0.2636(4) 0.5982(3) 0.9018(3)
O59 O 0.0874(4) 0.5874(4) 0.9126(4)
C116 C 0.2356(3) 0.5422(2) 0.9578(2)
O60 O 0.1935(3) 0.6935(3) 0.8498(10)
C117 C 0.3398(5) 0.6213(3) 0.8787(3)
C118 C 0.3527(3) 0.6473(3) 0.8918(6)
C119 C 0.3395(5) 0.6605(5) 0.9221(6)
H76 H 0.3299 0.6440 0.9339
H77 H 0.3241 0.6762 0.9173
C120 C 0.3155(6) 0.6008(5) 0.8992(5)
H78 H 0.3178 0.5786 0.8952
O61 O 0.3888(3) 0.6112(3) 0.7903(3)
O62 O 0.46755(15) 0.53245(15) 0.7597(2)
C121 C 0.3874(3) 0.6126(3) 0.6782(5)
O63 O 0.46734(14) 0.53266(14) 0.7091(2)
O64 O 0.39677(17) 0.60323(17) 0.6558(2)
C122 C 0.43413(19) 0.56587(19) 0.7351(3)
C123 C 0.4000(3) 0.6000(3) 0.7076(3)
C124 C 0.4228(2) 0.5772(2) 0.7077(3)
H79 H 0.4305 0.5695 0.6888
C125 C 0.3897(2) 0.6103(2) 0.7373(4)
H80 H 0.3743 0.6257 0.7385
C126 C 0.4237(2) 0.5763(2) 0.7631(3)
H81 H 0.4317 0.5683 0.7817
O65 O 0.3675(2) 0.6325(2) 0.6827(3)
C127 C 0.4018(3) 0.5982(3) 0.7636(4)
C128 C 0.4578(2) 0.5422(2) 0.7356(3)
C129 C 0.3787(3) 0.6213(3) 0.8398(5)
C130 C 0.3527(3) 0.6082(6) 0.8527(3)
C131 C 0.3395(5) 0.5779(6) 0.8395(5)
H82 H 0.3560 0.5661 0.8299
H83 H 0.3238 0.5827 0.8241
C132 C 0.3992(5) 0.6008(5) 0.8155(6)
H84 H 0.4214 0.6048 0.8178
O66 O 0.3888(3) 0.7097(3) 0.8888(3)
O67 O 0.46755(15) 0.7403(2) 0.96755(15)
C133 C 0.3874(3) 0.8218(5) 0.8874(3)
O68 O 0.46734(14) 0.7909(2) 0.96734(14)
O69 O 0.39677(17) 0.8442(2) 0.89677(17)
C134 C 0.43413(19) 0.7649(3) 0.93413(19)
C135 C 0.4000(3) 0.7924(3) 0.9000(3)
C136 C 0.4228(2) 0.7923(3) 0.9228(2)
H85 H 0.4305 0.8112 0.9305
C137 C 0.3897(2) 0.7627(4) 0.8897(2)
H86 H 0.3743 0.7615 0.8743
C138 C 0.4237(2) 0.7369(3) 0.9237(2)
H87 H 0.4317 0.7183 0.9317
O70 O 0.3675(2) 0.8173(3) 0.8675(2)
C139 C 0.4018(3) 0.7364(4) 0.9018(3)
C140 C 0.4578(2) 0.7644(3) 0.9578(2)
C141 C 0.3787(3) 0.6602(5) 0.8787(3)
C142 C 0.3918(6) 0.6473(3) 0.8527(3)
C143 C 0.4221(6) 0.6605(5) 0.8395(5)
H88 H 0.4339 0.6701 0.8560
H89 H 0.4173 0.6759 0.8238
C144 C 0.3992(5) 0.6845(6) 0.8992(5)
H90 H 0.3952 0.6822 0.9214
H91 H 0.3560 0.6701 0.9339
H92 H 0.4214 0.6822 0.8952
H93 H 0.3299 0.5661 0.8560
H94 H 0.3178 0.6048 0.9214
H95 H 0.4339 0.6440 0.8299
H96 H 0.3952 0.5786 0.8178
O77 O 0.1935(3) 0.6502(10) 0.8065(3)
O78 O 0.1502(10) 0.6935(3) 0.8065(3)
Zn15_2 Zn 0.73128(5) 0.5000 1.0000
Zn16 Zn 0.5000 0.5000 0.76872(5)
Zn18_2 Zn 0.79941(6) 0.5000 1.0000
Zn19 Zn 0.5000 0.5000 0.70059(6)
Zn25 Zn 0.33990(4) 0.83990(4) 0.83990(4)
Zn26 Zn 0.33990(4) 0.66010(4) 0.66010(4)
Zn33 Zn 0.38664(3) 0.88664(3) 0.88664(3)
Zn34 Zn 0.38664(3) 0.61336(3) 0.61336(3)
O83 O 0.46755(15) 0.2597(2) 0.96755(15)
O84 O 0.53245(15) 0.7403(2) 0.96755(15)
O85 O 0.2597(2) 0.46755(15) 0.96755(15)
O86 O 0.53245(15) 0.2597(2) 0.96755(15)
O88 O 0.46734(14) 0.2091(2) 0.96734(14)
O89 O 0.53266(14) 0.7909(2) 0.96734(14)
O90 O 0.2091(2) 0.46734(14) 0.96734(14)
O91 O 0.53266(14) 0.2091(2) 0.96734(14)
O94 O 0.10323(17) 0.6558(2) 0.89677(17)
O99 O 0.10323(17) 0.60323(17) 0.8442(2)
O102 O 0.1325(2) 0.6827(3) 0.8675(2)
O107 O 0.1325(2) 0.6325(2) 0.8173(3)
O8_2 O 0.5874(4) 0.0874(4) 0.0874(4)
O9_2 O 0.6935(3) 0.1935(3) 0.1502(10)
O20_3 O 0.6856(3) 0.5000 0.0000
O21_2 O 0.7097(3) 0.6112(3) 0.1112(3)
O22_2 O 0.7403(2) 0.53245(15) 0.03245(15)
C37_2 C 0.8218(5) 0.6126(3) 0.1126(3)
O23_2 O 0.7909(2) 0.53266(14) 0.03266(14)
O24_2 O 0.8442(2) 0.60323(17) 0.10323(17)
C38_2 C 0.7649(3) 0.56587(19) 0.06587(19)
C39_2 C 0.7924(3) 0.6000(3) 0.1000(3)
O25_3 O 0.8443(5) 0.5000 0.0000
C40_2 C 0.7923(3) 0.5772(2) 0.0772(2)
H25_2 H 0.8112 0.5695 0.0695
C41_2 C 0.7627(4) 0.6103(2) 0.1103(2)
H26_2 H 0.7615 0.6257 0.1257
C42_2 C 0.7369(3) 0.5763(2) 0.0763(2)
H27_2 H 0.7183 0.5683 0.0683
O26_2 O 0.8173(3) 0.6325(2) 0.1325(2)
C43_2 C 0.7364(4) 0.5982(3) 0.0982(3)
C44_2 C 0.7644(3) 0.5422(2) 0.0422(2)
C45_2 C 0.6602(5) 0.6213(3) 0.1213(3)
C46_2 C 0.6473(3) 0.6473(3) 0.1082(6)
C47_2 C 0.6605(5) 0.6605(5) 0.0779(6)
H28_2 H 0.6701 0.6440 0.0661
H29_2 H 0.6759 0.6762 0.0827
C48_2 C 0.6845(6) 0.6008(5) 0.1008(5)
H30_2 H 0.6822 0.5786 0.1048
O27_2 O 0.6112(3) 0.6112(3) 0.2097(3)
O28_2 O 0.53245(15) 0.53245(15) 0.2403(2)
C49_2 C 0.6126(3) 0.6126(3) 0.3218(5)
O29_2 O 0.53266(14) 0.53266(14) 0.2909(2)
O30_2 O 0.60323(17) 0.60323(17) 0.3442(2)
C50_2 C 0.56587(19) 0.56587(19) 0.2649(3)
C51_2 C 0.6000(3) 0.6000(3) 0.2924(3)
C52_2 C 0.5772(2) 0.5772(2) 0.2923(3)
H31_2 H 0.5695 0.5695 0.3112
C53_2 C 0.6103(2) 0.6103(2) 0.2627(4)
H32_2 H 0.6257 0.6257 0.2615
C54_2 C 0.5763(2) 0.5763(2) 0.2369(3)
H33_2 H 0.5683 0.5683 0.2183
O31_2 O 0.6325(2) 0.6325(2) 0.3173(3)
C55_2 C 0.5982(3) 0.5982(3) 0.2364(4)
C56_2 C 0.5422(2) 0.5422(2) 0.2644(3)
C57_2 C 0.6213(3) 0.6213(3) 0.1602(5)
C58_2 C 0.6473(3) 0.6082(6) 0.1473(3)
C59_2 C 0.6605(5) 0.5779(6) 0.1605(5)
H34_2 H 0.6440 0.5661 0.1701
H35_2 H 0.6762 0.5827 0.1759
C60_2 C 0.6008(5) 0.6008(5) 0.1845(6)
H36_2 H 0.5786 0.6048 0.1822
O32_2 O 0.6112(3) 0.7097(3) 0.1112(3)
C61_2 C 0.6126(3) 0.8218(5) 0.1126(3)
O35_2 O 0.60323(17) 0.8442(2) 0.10323(17)
C62_2 C 0.56587(19) 0.7649(3) 0.06587(19)
C63_2 C 0.6000(3) 0.7924(3) 0.1000(3)
C64_2 C 0.5772(2) 0.7923(3) 0.0772(2)
H37_2 H 0.5695 0.8112 0.0695
C65_2 C 0.6103(2) 0.7627(4) 0.1103(2)
H38_2 H 0.6257 0.7615 0.1257
C66_2 C 0.5763(2) 0.7369(3) 0.0763(2)
H39_2 H 0.5683 0.7183 0.0683
O36_2 O 0.6325(2) 0.8173(3) 0.1325(2)
C67_2 C 0.5982(3) 0.7364(4) 0.0982(3)
C68_2 C 0.5422(2) 0.7644(3) 0.0422(2)
C69_2 C 0.6213(3) 0.6602(5) 0.1213(3)
C70_2 C 0.6082(6) 0.6473(3) 0.1473(3)
C71_2 C 0.5779(6) 0.6605(5) 0.1605(5)
H40_2 H 0.5661 0.6701 0.1440
H41_2 H 0.5827 0.6759 0.1762
C72_2 C 0.6008(5) 0.6845(6) 0.1008(5)
H42_2 H 0.6048 0.6822 0.0786
H43_2 H 0.6440 0.6701 0.0661
H44_2 H 0.5786 0.6822 0.1048
H45_2 H 0.6701 0.5661 0.1440
H46_2 H 0.6822 0.6048 0.0786
H47_2 H 0.5661 0.6440 0.1701
H48_2 H 0.6048 0.5786 0.1822
O71_2 O 0.4126(4) 0.0874(4) 0.0874(4)
O72_2 O 0.3498(10) 0.1935(3) 0.1935(3)
O73_2 O 0.6935(3) 0.3498(10) 0.3065(3)
O74_2 O 0.5874(4) 0.4126(4) 0.4126(4)
O75_2 O 0.6935(3) 0.1502(10) 0.1935(3)
O76_2 O 0.6502(10) 0.1935(3) 0.1935(3)
O79_2 O 0.3065(3) 0.1502(10) 0.1935(3)
O80_2 O 0.3065(3) 0.1935(3) 0.1502(10)
O81_2 O 0.6502(10) 0.3065(3) 0.3065(3)
O82_2 O 0.6935(3) 0.3065(3) 0.3498(10)
Zn21_2 Zn 0.83990(4) 0.66010(4) 0.16010(4)
Zn23_2 Zn 0.66010(4) 0.83990(4) 0.16010(4)
Zn28_2 Zn 0.66010(4) 0.66010(4) 0.33990(4)
Zn29_2 Zn 0.88664(3) 0.61336(3) 0.11336(3)
Zn31_2 Zn 0.61336(3) 0.88664(3) 0.11336(3)
Zn36_2 Zn 0.61336(3) 0.61336(3) 0.38664(3)
O93_2 O 0.39677(17) 0.10323(17) 0.1558(2)
O95_2 O 0.6558(2) 0.10323(17) 0.10323(17)
O96_2 O 0.60323(17) 0.3442(2) 0.39677(17)
O97_2 O 0.3442(2) 0.10323(17) 0.10323(17)
O98_2 O 0.60323(17) 0.10323(17) 0.1558(2)
O100_2 O 0.6558(2) 0.39677(17) 0.39677(17)
O101_2 O 0.3675(2) 0.1325(2) 0.1827(3)
O103_2 O 0.6827(3) 0.1325(2) 0.1325(2)
O104_2 O 0.6325(2) 0.3173(3) 0.3675(2)
O105_2 O 0.3173(3) 0.1325(2) 0.1325(2)
O106_2 O 0.6325(2) 0.1325(2) 0.1827(3)
O108_2 O 0.6827(3) 0.3675(2) 0.3675(2)
O20_4 O 0.6856(3) 0.5000 1.0000
O25_4 O 0.8443(5) 0.5000 1.0000
Zn9_2 Zn 0.33990(4) 0.16010(4) 0.83990(4)
Zn10_2 Zn 0.38664(3) 0.11336(3) 0.88664(3)
O54_2 O 0.3888(3) 0.2903(3) 0.8888(3)
C109_2 C 0.3874(3) 0.1782(5) 0.8874(3)
O57_2 O 0.39677(17) 0.1558(2) 0.89677(17)
C110_2 C 0.43413(19) 0.2351(3) 0.93413(19)
C111_2 C 0.4000(3) 0.2076(3) 0.9000(3)
C112_2 C 0.4228(2) 0.2077(3) 0.9228(2)
H73_2 H 0.4305 0.1888 0.9305
C113_2 C 0.3897(2) 0.2373(4) 0.8897(2)
H74_2 H 0.3743 0.2385 0.8743
C114_2 C 0.4237(2) 0.2631(3) 0.9237(2)
H75_2 H 0.4317 0.2817 0.9317
O58_2 O 0.3675(2) 0.1827(3) 0.8675(2)
C115_2 C 0.4018(3) 0.2636(4) 0.9018(3)
O59_2 O 0.4126(4) 0.0874(4) 0.9126(4)
C116_2 C 0.4578(2) 0.2356(3) 0.9578(2)
O60_2 O 0.3065(3) 0.1935(3) 0.8498(10)
C117_2 C 0.3787(3) 0.3398(5) 0.8787(3)
C118_2 C 0.3527(3) 0.3527(3) 0.8918(6)
C119_2 C 0.3395(5) 0.3395(5) 0.9221(6)
H76_2 H 0.3560 0.3299 0.9339
H77_2 H 0.3238 0.3241 0.9173
C120_2 C 0.3992(5) 0.3155(6) 0.8992(5)
H78_2 H 0.4214 0.3178 0.8952
O61_2 O 0.3888(3) 0.3888(3) 0.7903(3)
O62_2 O 0.46755(15) 0.46755(15) 0.7597(2)
C121_2 C 0.3874(3) 0.3874(3) 0.6782(5)
O63_2 O 0.46734(14) 0.46734(14) 0.7091(2)
O64_2 O 0.39677(17) 0.39677(17) 0.6558(2)
C122_2 C 0.43413(19) 0.43413(19) 0.7351(3)
C123_2 C 0.4000(3) 0.4000(3) 0.7076(3)
C124_2 C 0.4228(2) 0.4228(2) 0.7077(3)
H79_2 H 0.4305 0.4305 0.6888
C125_2 C 0.3897(2) 0.3897(2) 0.7373(4)
H80_2 H 0.3743 0.3743 0.7385
C126_2 C 0.4237(2) 0.4237(2) 0.7631(3)
H81_2 H 0.4317 0.4317 0.7817
O65_2 O 0.3675(2) 0.3675(2) 0.6827(3)
C127_2 C 0.4018(3) 0.4018(3) 0.7636(4)
C128_2 C 0.4578(2) 0.4578(2) 0.7356(3)
C129_2 C 0.3787(3) 0.3787(3) 0.8398(5)
C130_2 C 0.3918(6) 0.3527(3) 0.8527(3)
C131_2 C 0.4221(6) 0.3395(5) 0.8395(5)
H82_2 H 0.4339 0.3560 0.8299
H83_2 H 0.4173 0.3238 0.8241
C132_2 C 0.3992(5) 0.3992(5) 0.8155(6)
H84_2 H 0.3952 0.4214 0.8178
O66_2 O 0.2903(3) 0.3888(3) 0.8888(3)
C133_2 C 0.1782(5) 0.3874(3) 0.8874(3)
O69_2 O 0.1558(2) 0.39677(17) 0.89677(17)
C134_2 C 0.2351(3) 0.43413(19) 0.93413(19)
C135_2 C 0.2076(3) 0.4000(3) 0.9000(3)
C136_2 C 0.2077(3) 0.4228(2) 0.9228(2)
H85_2 H 0.1888 0.4305 0.9305
C137_2 C 0.2373(4) 0.3897(2) 0.8897(2)
H86_2 H 0.2385 0.3743 0.8743
C138_2 C 0.2631(3) 0.4237(2) 0.9237(2)
H87_2 H 0.2817 0.4317 0.9317
O70_2 O 0.1827(3) 0.3675(2) 0.8675(2)
C139_2 C 0.2636(4) 0.4018(3) 0.9018(3)
C140_2 C 0.2356(3) 0.4578(2) 0.9578(2)
C141_2 C 0.3398(5) 0.3787(3) 0.8787(3)
C142_2 C 0.3527(3) 0.3918(6) 0.8527(3)
C143_2 C 0.3395(5) 0.4221(6) 0.8395(5)
H88_2 H 0.3299 0.4339 0.8560
H89_2 H 0.3241 0.4173 0.8238
C144_2 C 0.3155(6) 0.3992(5) 0.8992(5)
H90_2 H 0.3178 0.3952 0.9214
H91_2 H 0.3299 0.3560 0.9339
H92_2 H 0.3178 0.4214 0.8952
H93_2 H 0.4339 0.3299 0.8560
H94_2 H 0.3952 0.3178 0.9214
H95_2 H 0.3560 0.4339 0.8299
H96_2 H 0.4214 0.3952 0.8178
O77_2 O 0.3498(10) 0.1935(3) 0.8065(3)
O78_2 O 0.3065(3) 0.1502(10) 0.8065(3)
Zn25_2 Zn 0.16010(4) 0.33990(4) 0.83990(4)
Zn26_2 Zn 0.33990(4) 0.33990(4) 0.66010(4)
Zn33_2 Zn 0.11336(3) 0.38664(3) 0.88664(3)
Zn34_2 Zn 0.38664(3) 0.38664(3) 0.61336(3)
O83_2 O 0.7403(2) 0.46755(15) 0.96755(15)
O86_2 O 0.7403(2) 0.53245(15) 0.96755(15)
O88_2 O 0.7909(2) 0.46734(14) 0.96734(14)
O91_2 O 0.7909(2) 0.53266(14) 0.96734(14)
O94_2 O 0.3442(2) 0.10323(17) 0.89677(17)
O99_2 O 0.39677(17) 0.10323(17) 0.8442(2)
O102_2 O 0.3173(3) 0.1325(2) 0.8675(2)
O107_2 O 0.3675(2) 0.1325(2) 0.8173(3)
O8_3 O 0.9126(4) 0.5874(4) 0.0874(4)
O9_3 O 0.8065(3) 0.6935(3) 0.1502(10)
O71_3 O 0.9126(4) 0.4126(4) 0.0874(4)
O72_3 O 0.8065(3) 0.3498(10) 0.1935(3)
O73_3 O 0.6502(10) 0.6935(3) 0.3065(3)
O74_3 O 0.5874(4) 0.5874(4) 0.4126(4)
O75_3 O 0.8498(10) 0.6935(3) 0.1935(3)
O76_3 O 0.8065(3) 0.6502(10) 0.1935(3)
O79_3 O 0.8498(10) 0.3065(3) 0.1935(3)
O80_3 O 0.8065(3) 0.3065(3) 0.1502(10)
O81_3 O 0.6935(3) 0.6502(10) 0.3065(3)
O82_3 O 0.6935(3) 0.6935(3) 0.3498(10)
O93_3 O 0.89677(17) 0.39677(17) 0.1558(2)
O95_3 O 0.89677(17) 0.6558(2) 0.10323(17)
O96_3 O 0.6558(2) 0.60323(17) 0.39677(17)
O97_3 O 0.89677(17) 0.3442(2) 0.10323(17)
O98_3 O 0.89677(17) 0.60323(17) 0.1558(2)
O100_3 O 0.60323(17) 0.6558(2) 0.39677(17)
O101_3 O 0.8675(2) 0.3675(2) 0.1827(3)
O103_3 O 0.8675(2) 0.6827(3) 0.1325(2)
O104_3 O 0.6827(3) 0.6325(2) 0.3675(2)
O105_3 O 0.8675(2) 0.3173(3) 0.1325(2)
O106_3 O 0.8675(2) 0.6325(2) 0.1827(3)
O108_3 O 0.6325(2) 0.6827(3) 0.3675(2)
Zn9_3 Zn 0.83990(4) 0.33990(4) 0.83990(4)
Zn10_3 Zn 0.88664(3) 0.38664(3) 0.88664(3)
O54_3 O 0.7097(3) 0.3888(3) 0.8888(3)
C109_3 C 0.8218(5) 0.3874(3) 0.8874(3)
O57_3 O 0.8442(2) 0.39677(17) 0.89677(17)
C110_3 C 0.7649(3) 0.43413(19) 0.93413(19)
C111_3 C 0.7924(3) 0.4000(3) 0.9000(3)
C112_3 C 0.7923(3) 0.4228(2) 0.9228(2)
H73_3 H 0.8112 0.4305 0.9305
C113_3 C 0.7627(4) 0.3897(2) 0.8897(2)
H74_3 H 0.7615 0.3743 0.8743
C114_3 C 0.7369(3) 0.4237(2) 0.9237(2)
H75_3 H 0.7183 0.4317 0.9317
O58_3 O 0.8173(3) 0.3675(2) 0.8675(2)
C115_3 C 0.7364(4) 0.4018(3) 0.9018(3)
O59_3 O 0.9126(4) 0.4126(4) 0.9126(4)
C116_3 C 0.7644(3) 0.4578(2) 0.9578(2)
O60_3 O 0.8065(3) 0.3065(3) 0.8498(10)
C117_3 C 0.6602(5) 0.3787(3) 0.8787(3)
C118_3 C 0.6473(3) 0.3527(3) 0.8918(6)
C119_3 C 0.6605(5) 0.3395(5) 0.9221(6)
H76_3 H 0.6701 0.3560 0.9339
H77_3 H 0.6759 0.3238 0.9173
C120_3 C 0.6845(6) 0.3992(5) 0.8992(5)
H78_3 H 0.6822 0.4214 0.8952
O61_3 O 0.6112(3) 0.3888(3) 0.7903(3)
O62_3 O 0.53245(15) 0.46755(15) 0.7597(2)
C121_3 C 0.6126(3) 0.3874(3) 0.6782(5)
O63_3 O 0.53266(14) 0.46734(14) 0.7091(2)
O64_3 O 0.60323(17) 0.39677(17) 0.6558(2)
C122_3 C 0.56587(19) 0.43413(19) 0.7351(3)
C123_3 C 0.6000(3) 0.4000(3) 0.7076(3)
C124_3 C 0.5772(2) 0.4228(2) 0.7077(3)
H79_3 H 0.5695 0.4305 0.6888
C125_3 C 0.6103(2) 0.3897(2) 0.7373(4)
H80_3 H 0.6257 0.3743 0.7385
C126_3 C 0.5763(2) 0.4237(2) 0.7631(3)
H81_3 H 0.5683 0.4317 0.7817
O65_3 O 0.6325(2) 0.3675(2) 0.6827(3)
C127_3 C 0.5982(3) 0.4018(3) 0.7636(4)
C128_3 C 0.5422(2) 0.4578(2) 0.7356(3)
C129_3 C 0.6213(3) 0.3787(3) 0.8398(5)
C130_3 C 0.6473(3) 0.3918(6) 0.8527(3)
C131_3 C 0.6605(5) 0.4221(6) 0.8395(5)
H82_3 H 0.6440 0.4339 0.8299
H83_3 H 0.6762 0.4173 0.8241
C132_3 C 0.6008(5) 0.3992(5) 0.8155(6)
H84_3 H 0.5786 0.3952 0.8178
O66_3 O 0.6112(3) 0.2903(3) 0.8888(3)
C133_3 C 0.6126(3) 0.1782(5) 0.8874(3)
O69_3 O 0.60323(17) 0.1558(2) 0.89677(17)
C134_3 C 0.56587(19) 0.2351(3) 0.93413(19)
C135_3 C 0.6000(3) 0.2076(3) 0.9000(3)
C136_3 C 0.5772(2) 0.2077(3) 0.9228(2)
H85_3 H 0.5695 0.1888 0.9305
C137_3 C 0.6103(2) 0.2373(4) 0.8897(2)
H86_3 H 0.6257 0.2385 0.8743
C138_3 C 0.5763(2) 0.2631(3) 0.9237(2)
H87_3 H 0.5683 0.2817 0.9317
O70_3 O 0.6325(2) 0.1827(3) 0.8675(2)
C139_3 C 0.5982(3) 0.2636(4) 0.9018(3)
C140_3 C 0.5422(2) 0.2356(3) 0.9578(2)
C141_3 C 0.6213(3) 0.3398(5) 0.8787(3)
C142_3 C 0.6082(6) 0.3527(3) 0.8527(3)
C143_3 C 0.5779(6) 0.3395(5) 0.8395(5)
H88_3 H 0.5661 0.3299 0.8560
H89_3 H 0.5827 0.3241 0.8238
C144_3 C 0.6008(5) 0.3155(6) 0.8992(5)
H90_3 H 0.6048 0.3178 0.9214
H91_3 H 0.6440 0.3299 0.9339
H92_3 H 0.5786 0.3178 0.8952
H93_3 H 0.6701 0.4339 0.8560
H94_3 H 0.6822 0.3952 0.9214
H95_3 H 0.5661 0.3560 0.8299
H96_3 H 0.6048 0.4214 0.8178
O77_3 O 0.8065(3) 0.3498(10) 0.8065(3)
O78_3 O 0.8498(10) 0.3065(3) 0.8065(3)
Zn25_3 Zn 0.66010(4) 0.16010(4) 0.83990(4)
Zn26_3 Zn 0.66010(4) 0.33990(4) 0.66010(4)
Zn33_3 Zn 0.61336(3) 0.11336(3) 0.88664(3)
Zn34_3 Zn 0.61336(3) 0.38664(3) 0.61336(3)
O94_3 O 0.89677(17) 0.3442(2) 0.89677(17)
O99_3 O 0.89677(17) 0.39677(17) 0.8442(2)
O102_3 O 0.8675(2) 0.3173(3) 0.8675(2)
O107_3 O 0.8675(2) 0.3675(2) 0.8173(3)
O8_4 O 0.4126(4) 0.9126(4) 0.0874(4)
O9_4 O 0.3065(3) 0.8065(3) 0.1502(10)
O71_4 O 0.5874(4) 0.9126(4) 0.0874(4)
O72_4 O 0.6502(10) 0.8065(3) 0.1935(3)
O73_4 O 0.3065(3) 0.6502(10) 0.3065(3)
O74_4 O 0.4126(4) 0.5874(4) 0.4126(4)
O75_4 O 0.3065(3) 0.8498(10) 0.1935(3)
O76_4 O 0.3498(10) 0.8065(3) 0.1935(3)
O79_4 O 0.6935(3) 0.8498(10) 0.1935(3)
O80_4 O 0.6935(3) 0.8065(3) 0.1502(10)
O81_4 O 0.3498(10) 0.6935(3) 0.3065(3)
O82_4 O 0.3065(3) 0.6935(3) 0.3498(10)
O93_4 O 0.60323(17) 0.89677(17) 0.1558(2)
O95_4 O 0.3442(2) 0.89677(17) 0.10323(17)
O96_4 O 0.39677(17) 0.6558(2) 0.39677(17)
O97_4 O 0.6558(2) 0.89677(17) 0.10323(17)
O98_4 O 0.39677(17) 0.89677(17) 0.1558(2)
O100_4 O 0.3442(2) 0.60323(17) 0.39677(17)
O101_4 O 0.6325(2) 0.8675(2) 0.1827(3)
O103_4 O 0.3173(3) 0.8675(2) 0.1325(2)
O104_4 O 0.3675(2) 0.6827(3) 0.3675(2)
O105_4 O 0.6827(3) 0.8675(2) 0.1325(2)
O106_4 O 0.3675(2) 0.8675(2) 0.1827(3)
O108_4 O 0.3173(3) 0.6325(2) 0.3675(2)
Zn9_4 Zn 0.66010(4) 0.83990(4) 0.83990(4)
Zn10_4 Zn 0.61336(3) 0.88664(3) 0.88664(3)
O54_4 O 0.6112(3) 0.7097(3) 0.8888(3)
C109_4 C 0.6126(3) 0.8218(5) 0.8874(3)
O57_4 O 0.60323(17) 0.8442(2) 0.89677(17)
C110_4 C 0.56587(19) 0.7649(3) 0.93413(19)
C111_4 C 0.6000(3) 0.7924(3) 0.9000(3)
C112_4 C 0.5772(2) 0.7923(3) 0.9228(2)
H73_4 H 0.5695 0.8112 0.9305
C113_4 C 0.6103(2) 0.7627(4) 0.8897(2)
H74_4 H 0.6257 0.7615 0.8743
C114_4 C 0.5763(2) 0.7369(3) 0.9237(2)
H75_4 H 0.5683 0.7183 0.9317
O58_4 O 0.6325(2) 0.8173(3) 0.8675(2)
C115_4 C 0.5982(3) 0.7364(4) 0.9018(3)
O59_4 O 0.5874(4) 0.9126(4) 0.9126(4)
C116_4 C 0.5422(2) 0.7644(3) 0.9578(2)
O60_4 O 0.6935(3) 0.8065(3) 0.8498(10)
C117_4 C 0.6213(3) 0.6602(5) 0.8787(3)
C118_4 C 0.6473(3) 0.6473(3) 0.8918(6)
C119_4 C 0.6605(5) 0.6605(5) 0.9221(6)
H76_4 H 0.6440 0.6701 0.9339
H77_4 H 0.6762 0.6759 0.9173
C120_4 C 0.6008(5) 0.6845(6) 0.8992(5)
H78_4 H 0.5786 0.6822 0.8952
O61_4 O 0.6112(3) 0.6112(3) 0.7903(3)
O62_4 O 0.53245(15) 0.53245(15) 0.7597(2)
C121_4 C 0.6126(3) 0.6126(3) 0.6782(5)
O63_4 O 0.53266(14) 0.53266(14) 0.7091(2)
O64_4 O 0.60323(17) 0.60323(17) 0.6558(2)
C122_4 C 0.56587(19) 0.56587(19) 0.7351(3)
C123_4 C 0.6000(3) 0.6000(3) 0.7076(3)
C124_4 C 0.5772(2) 0.5772(2) 0.7077(3)
H79_4 H 0.5695 0.5695 0.6888
C125_4 C 0.6103(2) 0.6103(2) 0.7373(4)
H80_4 H 0.6257 0.6257 0.7385
C126_4 C 0.5763(2) 0.5763(2) 0.7631(3)
H81_4 H 0.5683 0.5683 0.7817
O65_4 O 0.6325(2) 0.6325(2) 0.6827(3)
C127_4 C 0.5982(3) 0.5982(3) 0.7636(4)
C128_4 C 0.5422(2) 0.5422(2) 0.7356(3)
C129_4 C 0.6213(3) 0.6213(3) 0.8398(5)
C130_4 C 0.6082(6) 0.6473(3) 0.8527(3)
C131_4 C 0.5779(6) 0.6605(5) 0.8395(5)
H82_4 H 0.5661 0.6440 0.8299
H83_4 H 0.5827 0.6762 0.8241
C132_4 C 0.6008(5) 0.6008(5) 0.8155(6)
H84_4 H 0.6048 0.5786 0.8178
O66_4 O 0.7097(3) 0.6112(3) 0.8888(3)
C133_4 C 0.8218(5) 0.6126(3) 0.8874(3)
O69_4 O 0.8442(2) 0.60323(17) 0.89677(17)
C134_4 C 0.7649(3) 0.56587(19) 0.93413(19)
C135_4 C 0.7924(3) 0.6000(3) 0.9000(3)
C136_4 C 0.7923(3) 0.5772(2) 0.9228(2)
H85_4 H 0.8112 0.5695 0.9305
C137_4 C 0.7627(4) 0.6103(2) 0.8897(2)
H86_4 H 0.7615 0.6257 0.8743
C138_4 C 0.7369(3) 0.5763(2) 0.9237(2)
H87_4 H 0.7183 0.5683 0.9317
O70_4 O 0.8173(3) 0.6325(2) 0.8675(2)
C139_4 C 0.7364(4) 0.5982(3) 0.9018(3)
C140_4 C 0.7644(3) 0.5422(2) 0.9578(2)
C141_4 C 0.6602(5) 0.6213(3) 0.8787(3)
C142_4 C 0.6473(3) 0.6082(6) 0.8527(3)
C143_4 C 0.6605(5) 0.5779(6) 0.8395(5)
H88_4 H 0.6701 0.5661 0.8560
H89_4 H 0.6759 0.5827 0.8238
C144_4 C 0.6845(6) 0.6008(5) 0.8992(5)
H90_4 H 0.6822 0.6048 0.9214
H91_4 H 0.6701 0.6440 0.9339
H92_4 H 0.6822 0.5786 0.8952
H93_4 H 0.5661 0.6701 0.8560
H94_4 H 0.6048 0.6822 0.9214
H95_4 H 0.6440 0.5661 0.8299
H96_4 H 0.5786 0.6048 0.8178
O77_4 O 0.6502(10) 0.8065(3) 0.8065(3)
O78_4 O 0.6935(3) 0.8498(10) 0.8065(3)
Zn25_4 Zn 0.83990(4) 0.66010(4) 0.83990(4)
Zn26_4 Zn 0.66010(4) 0.66010(4) 0.66010(4)
Zn33_4 Zn 0.88664(3) 0.61336(3) 0.88664(3)
Zn34_4 Zn 0.61336(3) 0.61336(3) 0.61336(3)
O94_4 O 0.6558(2) 0.89677(17) 0.89677(17)
O99_4 O 0.60323(17) 0.89677(17) 0.8442(2)
O102_4 O 0.6827(3) 0.8675(2) 0.8675(2)
O107_4 O 0.6325(2) 0.8675(2) 0.8173(3)
Zn1_3 Zn 0.26872(5) 0.0000 0.5000
Zn2_3 Zn 0.20059(6) 0.0000 0.5000
O1_3 O 0.3144(3) 0.0000 0.5000
O6_3 O 0.1557(5) 0.0000 0.5000
Zn5_3 Zn 0.5000 -0.0000 0.26872(5)
Zn6_3 Zn 0.5000 0.0000 0.20059(6)
O20_5 O 0.5000 0.0000 0.3144(3)
O25_5 O 0.5000 0.0000 0.1557(5)
Zn7_3 Zn 0.5000 0.0000 0.73128(5)
Zn8_3 Zn 0.5000 0.0000 0.79941(6)
O37_3 O 0.5000 -0.0000 0.6856(3)
O42_3 O 0.5000 0.0000 0.8443(5)
Zn9_5 Zn 0.16010(4) 0.16010(4) 0.66010(4)
Zn10_5 Zn 0.11336(3) 0.11336(3) 0.61336(3)
O54_5 O 0.2903(3) 0.1112(3) 0.6112(3)
O55_2 O 0.2597(2) 0.03245(15) 0.53245(15)
C109_5 C 0.1782(5) 0.1126(3) 0.6126(3)
O56_2 O 0.2091(2) 0.03266(14) 0.53266(14)
O57_5 O 0.1558(2) 0.10323(17) 0.60323(17)
C110_5 C 0.2351(3) 0.06587(19) 0.56587(19)
C111_5 C 0.2076(3) 0.1000(3) 0.6000(3)
C112_5 C 0.2077(3) 0.0772(2) 0.5772(2)
H73_5 H 0.1888 0.0695 0.5695
C113_5 C 0.2373(4) 0.1103(2) 0.6103(2)
H74_5 H 0.2385 0.1257 0.6257
C114_5 C 0.2631(3) 0.0763(2) 0.5763(2)
H75_5 H 0.2817 0.0683 0.5683
O58_5 O 0.1827(3) 0.1325(2) 0.6325(2)
C115_5 C 0.2636(4) 0.0982(3) 0.5982(3)
O59_5 O 0.0874(4) 0.0874(4) 0.5874(4)
C116_5 C 0.2356(3) 0.0422(2) 0.5422(2)
O60_5 O 0.1935(3) 0.1502(10) 0.6935(3)
C117_5 C 0.3398(5) 0.1213(3) 0.6213(3)
C118_5 C 0.3527(3) 0.1082(6) 0.6473(3)
C119_5 C 0.3395(5) 0.0779(6) 0.6605(5)
H76_5 H 0.3299 0.0661 0.6440
H77_5 H 0.3241 0.0827 0.6762
C120_5 C 0.3155(6) 0.1008(5) 0.6008(5)
H78_5 H 0.3178 0.1048 0.5786
O61_5 O 0.3888(3) 0.2097(3) 0.6112(3)
O62_5 O 0.46755(15) 0.2403(2) 0.53245(15)
C121_5 C 0.3874(3) 0.3218(5) 0.6126(3)
O63_5 O 0.46734(14) 0.2909(2) 0.53266(14)
O64_5 O 0.39677(17) 0.3442(2) 0.60323(17)
C122_5 C 0.43413(19) 0.2649(3) 0.56587(19)
C123_5 C 0.4000(3) 0.2924(3) 0.6000(3)
C124_5 C 0.4228(2) 0.2923(3) 0.5772(2)
H79_5 H 0.4305 0.3112 0.5695
C125_5 C 0.3897(2) 0.2627(4) 0.6103(2)
H80_5 H 0.3743 0.2615 0.6257
C126_5 C 0.4237(2) 0.2369(3) 0.5763(2)
H81_5 H 0.4317 0.2183 0.5683
O65_5 O 0.3675(2) 0.3173(3) 0.6325(2)
C127_5 C 0.4018(3) 0.2364(4) 0.5982(3)
C128_5 C 0.4578(2) 0.2644(3) 0.5422(2)
C129_5 C 0.3787(3) 0.1602(5) 0.6213(3)
C130_5 C 0.3527(3) 0.1473(3) 0.6082(6)
C131_5 C 0.3395(5) 0.1605(5) 0.5779(6)
H82_5 H 0.3560 0.1701 0.5661
H83_5 H 0.3238 0.1759 0.5827
C132_5 C 0.3992(5) 0.1845(6) 0.6008(5)
H84_5 H 0.4214 0.1822 0.6048
O66_5 O 0.3888(3) 0.1112(3) 0.7097(3)
O67_2 O 0.46755(15) 0.03245(15) 0.7403(2)
C133_5 C 0.3874(3) 0.1126(3) 0.8218(5)
O68_2 O 0.46734(14) 0.03266(14) 0.7909(2)
C134_5 C 0.43413(19) 0.06587(19) 0.7649(3)
C135_5 C 0.4000(3) 0.1000(3) 0.7924(3)
C136_5 C 0.4228(2) 0.0772(2) 0.7923(3)
H85_5 H 0.4305 0.0695 0.8112
C137_5 C 0.3897(2) 0.1103(2) 0.7627(4)
H86_5 H 0.3743 0.1257 0.7615
C138_5 C 0.4237(2) 0.0763(2) 0.7369(3)
H87_5 H 0.4317 0.0683 0.7183
C139_5 C 0.4018(3) 0.0982(3) 0.7364(4)
C140_5 C 0.4578(2) 0.0422(2) 0.7644(3)
C141_5 C 0.3787(3) 0.1213(3) 0.6602(5)
C142_5 C 0.3918(6) 0.1473(3) 0.6473(3)
C143_5 C 0.4221(6) 0.1605(5) 0.6605(5)
H88_5 H 0.4339 0.1440 0.6701
H89_5 H 0.4173 0.1762 0.6759
C144_5 C 0.3992(5) 0.1008(5) 0.6845(6)
H90_5 H 0.3952 0.0786 0.6822
H91_5 H 0.3560 0.0661 0.6701
H92_5 H 0.4214 0.1048 0.6822
H93_5 H 0.3299 0.1440 0.5661
H94_5 H 0.3178 0.0786 0.6048
H95_5 H 0.4339 0.1701 0.6440
H96_5 H 0.3952 0.1822 0.5786
O77_5 O 0.1935(3) 0.1935(3) 0.6502(10)
O78_5 O 0.1502(10) 0.1935(3) 0.6935(3)
Zn15_3 Zn 0.73128(5) 0.0000 0.5000
Zn16_2 Zn 0.5000 0.23128(5) 0.5000
Zn18_3 Zn 0.79941(6) 0.0000 0.5000
Zn19_2 Zn 0.5000 0.29941(6) 0.5000
O83_3 O 0.46755(15) 0.03245(15) 0.2597(2)
O84_2 O 0.53245(15) 0.03245(15) 0.7403(2)
O85_2 O 0.2597(2) 0.03245(15) 0.46755(15)
O86_3 O 0.53245(15) 0.03245(15) 0.2597(2)
O88_3 O 0.46734(14) 0.03266(14) 0.2091(2)
O89_2 O 0.53266(14) 0.03266(14) 0.7909(2)
O90_2 O 0.2091(2) 0.03266(14) 0.46734(14)
O91_3 O 0.53266(14) 0.03266(14) 0.2091(2)
O94_5 O 0.10323(17) 0.10323(17) 0.6558(2)
O99_5 O 0.10323(17) 0.1558(2) 0.60323(17)
O102_5 O 0.1325(2) 0.1325(2) 0.6827(3)
O107_5 O 0.1325(2) 0.1827(3) 0.6325(2)
Zn1_4 Zn 0.26872(5) 1.0000 0.5000
Zn2_4 Zn 0.20059(6) 1.0000 0.5000
Zn3_2 Zn 0.16010(4) 0.83990(4) 0.33990(4)
Zn4_2 Zn 0.11336(3) 0.88664(3) 0.38664(3)
O1_4 O 0.3144(3) 1.0000 0.5000
O2_2 O 0.2903(3) 0.8888(3) 0.3888(3)
O3_2 O 0.2597(2) 0.96755(15) 0.46755(15)
C1_2 C 0.1782(5) 0.8874(3) 0.3874(3)
O4_2 O 0.2091(2) 0.96734(14) 0.46734(14)
O5_2 O 0.1558(2) 0.89677(17) 0.39677(17)
C2_2 C 0.2351(3) 0.93413(19) 0.43413(19)
C3_2 C 0.2076(3) 0.9000(3) 0.4000(3)
O6_4 O 0.1557(5) 1.0000 0.5000
C4_2 C 0.2077(3) 0.9228(2) 0.4228(2)
H1_2 H 0.1888 0.9305 0.4305
C5_2 C 0.2373(4) 0.8897(2) 0.3897(2)
H2_2 H 0.2385 0.8743 0.3743
C6_2 C 0.2631(3) 0.9237(2) 0.4237(2)
H3_2 H 0.2817 0.9317 0.4317
O7_2 O 0.1827(3) 0.8675(2) 0.3675(2)
C7_2 C 0.2636(4) 0.9018(3) 0.4018(3)
O8_5 O 0.0874(4) 0.9126(4) 0.4126(4)
C8_2 C 0.2356(3) 0.9578(2) 0.4578(2)
O9_5 O 0.1935(3) 0.8498(10) 0.3065(3)
C9_2 C 0.3398(5) 0.8787(3) 0.3787(3)
C10_2 C 0.3527(3) 0.8918(6) 0.3527(3)
C11_2 C 0.3395(5) 0.9221(6) 0.3395(5)
H4_2 H 0.3299 0.9339 0.3560
H5_2 H 0.3241 0.9173 0.3238
C12_2 C 0.3155(6) 0.8992(5) 0.3992(5)
H6_2 H 0.3178 0.8952 0.4214
O10_2 O 0.3888(3) 0.7903(3) 0.3888(3)
O11_2 O 0.46755(15) 0.7597(2) 0.46755(15)
C13_2 C 0.3874(3) 0.6782(5) 0.3874(3)
O12_2 O 0.46734(14) 0.7091(2) 0.46734(14)
C14_2 C 0.43413(19) 0.7351(3) 0.43413(19)
C15_2 C 0.4000(3) 0.7076(3) 0.4000(3)
C16_2 C 0.4228(2) 0.7077(3) 0.4228(2)
H7_2 H 0.4305 0.6888 0.4305
C17_2 C 0.3897(2) 0.7373(4) 0.3897(2)
H8_2 H 0.3743 0.7385 0.3743
C18_2 C 0.4237(2) 0.7631(3) 0.4237(2)
H9_2 H 0.4317 0.7817 0.4317
C19_2 C 0.4018(3) 0.7636(4) 0.4018(3)
C20_2 C 0.4578(2) 0.7356(3) 0.4578(2)
C21_2 C 0.3787(3) 0.8398(5) 0.3787(3)
C22_2 C 0.3527(3) 0.8527(3) 0.3918(6)
C23_2 C 0.3395(5) 0.8395(5) 0.4221(6)
H10_2 H 0.3560 0.8299 0.4339
H11_2 H 0.3238 0.8241 0.4173
C24_2 C 0.3992(5) 0.8155(6) 0.3992(5)
H12_2 H 0.4214 0.8178 0.3952
O15_2 O 0.3888(3) 0.8888(3) 0.2903(3)
O16_2 O 0.46755(15) 0.96755(15) 0.2597(2)
C25_2 C 0.3874(3) 0.8874(3) 0.1782(5)
O17_2 O 0.46734(14) 0.96734(14) 0.2091(2)
C26_2 C 0.43413(19) 0.93413(19) 0.2351(3)
C27_2 C 0.4000(3) 0.9000(3) 0.2076(3)
C28_2 C 0.4228(2) 0.9228(2) 0.2077(3)
H13_2 H 0.4305 0.9305 0.1888
C29_2 C 0.3897(2) 0.8897(2) 0.2373(4)
H14_2 H 0.3743 0.8743 0.2385
C30_2 C 0.4237(2) 0.9237(2) 0.2631(3)
H15_2 H 0.4317 0.9317 0.2817
C31_2 C 0.4018(3) 0.9018(3) 0.2636(4)
C32_2 C 0.4578(2) 0.9578(2) 0.2356(3)
C33_2 C 0.3787(3) 0.8787(3) 0.3398(5)
C34_2 C 0.3918(6) 0.8527(3) 0.3527(3)
C35_2 C 0.4221(6) 0.8395(5) 0.3395(5)
H16_2 H 0.4339 0.8560 0.3299
H17_2 H 0.4173 0.8238 0.3241
C36_2 C 0.3992(5) 0.8992(5) 0.3155(6)
H18_2 H 0.3952 0.9214 0.3178
H19_2 H 0.3560 0.9339 0.3299
H20_2 H 0.4214 0.8952 0.3178
H21_2 H 0.3299 0.8560 0.4339
H22_2 H 0.3178 0.9214 0.3952
H23_2 H 0.4339 0.8299 0.3560
H24_2 H 0.3952 0.8178 0.4214
Zn5_4 Zn 0.5000 1.0000 0.26872(5)
Zn6_4 Zn 0.5000 1.0000 0.20059(6)
O20_6 O 0.5000 1.0000 0.3144(3)
O21_3 O 0.6112(3) 0.8888(3) 0.2903(3)
O22_3 O 0.53245(15) 0.96755(15) 0.2597(2)
C37_3 C 0.6126(3) 0.8874(3) 0.1782(5)
O23_3 O 0.53266(14) 0.96734(14) 0.2091(2)
C38_3 C 0.56587(19) 0.93413(19) 0.2351(3)
C39_3 C 0.6000(3) 0.9000(3) 0.2076(3)
O25_6 O 0.5000 1.0000 0.1557(5)
C40_3 C 0.5772(2) 0.9228(2) 0.2077(3)
H25_3 H 0.5695 0.9305 0.1888
C41_3 C 0.6103(2) 0.8897(2) 0.2373(4)
H26_3 H 0.6257 0.8743 0.2385
C42_3 C 0.5763(2) 0.9237(2) 0.2631(3)
H27_3 H 0.5683 0.9317 0.2817
C43_3 C 0.5982(3) 0.9018(3) 0.2636(4)
C44_3 C 0.5422(2) 0.9578(2) 0.2356(3)
C45_3 C 0.6213(3) 0.8787(3) 0.3398(5)
C46_3 C 0.6473(3) 0.8918(6) 0.3527(3)
C47_3 C 0.6605(5) 0.9221(6) 0.3395(5)
H28_3 H 0.6440 0.9339 0.3299
H29_3 H 0.6762 0.9173 0.3241
C48_3 C 0.6008(5) 0.8992(5) 0.3155(6)
H30_3 H 0.5786 0.8952 0.3178
O27_3 O 0.6112(3) 0.7903(3) 0.3888(3)
O28_3 O 0.53245(15) 0.7597(2) 0.46755(15)
C49_3 C 0.6126(3) 0.6782(5) 0.3874(3)
O29_3 O 0.53266(14) 0.7091(2) 0.46734(14)
C50_3 C 0.56587(19) 0.7351(3) 0.43413(19)
C51_3 C 0.6000(3) 0.7076(3) 0.4000(3)
C52_3 C 0.5772(2) 0.7077(3) 0.4228(2)
H31_3 H 0.5695 0.6888 0.4305
C53_3 C 0.6103(2) 0.7373(4) 0.3897(2)
H32_3 H 0.6257 0.7385 0.3743
C54_3 C 0.5763(2) 0.7631(3) 0.4237(2)
H33_3 H 0.5683 0.7817 0.4317
C55_3 C 0.5982(3) 0.7636(4) 0.4018(3)
C56_3 C 0.5422(2) 0.7356(3) 0.4578(2)
C57_3 C 0.6213(3) 0.8398(5) 0.3787(3)
C58_3 C 0.6082(6) 0.8527(3) 0.3527(3)
C59_3 C 0.5779(6) 0.8395(5) 0.3395(5)
H34_3 H 0.5661 0.8299 0.3560
H35_3 H 0.5827 0.8241 0.3238
C60_3 C 0.6008(5) 0.8155(6) 0.3992(5)
H36_3 H 0.6048 0.8178 0.4214
O32_3 O 0.7097(3) 0.8888(3) 0.3888(3)
O33_2 O 0.7403(2) 0.96755(15) 0.46755(15)
C61_3 C 0.8218(5) 0.8874(3) 0.3874(3)
O34_2 O 0.7909(2) 0.96734(14) 0.46734(14)
O35_3 O 0.8442(2) 0.89677(17) 0.39677(17)
C62_3 C 0.7649(3) 0.93413(19) 0.43413(19)
C63_3 C 0.7924(3) 0.9000(3) 0.4000(3)
C64_3 C 0.7923(3) 0.9228(2) 0.4228(2)
H37_3 H 0.8112 0.9305 0.4305
C65_3 C 0.7627(4) 0.8897(2) 0.3897(2)
H38_3 H 0.7615 0.8743 0.3743
C66_3 C 0.7369(3) 0.9237(2) 0.4237(2)
H39_3 H 0.7183 0.9317 0.4317
O36_3 O 0.8173(3) 0.8675(2) 0.3675(2)
C67_3 C 0.7364(4) 0.9018(3) 0.4018(3)
C68_3 C 0.7644(3) 0.9578(2) 0.4578(2)
C69_3 C 0.6602(5) 0.8787(3) 0.3787(3)
C70_3 C 0.6473(3) 0.8527(3) 0.3918(6)
C71_3 C 0.6605(5) 0.8395(5) 0.4221(6)
H40_3 H 0.6701 0.8560 0.4339
H41_3 H 0.6759 0.8238 0.4173
C72_3 C 0.6845(6) 0.8992(5) 0.3992(5)
H42_3 H 0.6822 0.9214 0.3952
H43_3 H 0.6701 0.9339 0.3560
H44_3 H 0.6822 0.8952 0.4214
H45_3 H 0.5661 0.8560 0.3299
H46_3 H 0.6048 0.9214 0.3178
H47_3 H 0.6440 0.8299 0.4339
H48_3 H 0.5786 0.8178 0.3952
Zn7_4 Zn 0.5000 1.0000 0.73128(5)
Zn8_4 Zn 0.5000 1.0000 0.79941(6)
O37_4 O 0.5000 1.0000 0.6856(3)
O38_2 O 0.3888(3) 0.8888(3) 0.7097(3)
O39_2 O 0.46755(15) 0.96755(15) 0.7403(2)
C73_2 C 0.3874(3) 0.8874(3) 0.8218(5)
O40_2 O 0.46734(14) 0.96734(14) 0.7909(2)
O41_2 O 0.39677(17) 0.89677(17) 0.8442(2)
C74_2 C 0.43413(19) 0.93413(19) 0.7649(3)
C75_2 C 0.4000(3) 0.9000(3) 0.7924(3)
O42_4 O 0.5000 1.0000 0.8443(5)
C76_2 C 0.4228(2) 0.9228(2) 0.7923(3)
H49_2 H 0.4305 0.9305 0.8112
C77_2 C 0.3897(2) 0.8897(2) 0.7627(4)
H50_2 H 0.3743 0.8743 0.7615
C78_2 C 0.4237(2) 0.9237(2) 0.7369(3)
H51_2 H 0.4317 0.9317 0.7183
O43_2 O 0.3675(2) 0.8675(2) 0.8173(3)
C79_2 C 0.4018(3) 0.9018(3) 0.7364(4)
C80_2 C 0.4578(2) 0.9578(2) 0.7644(3)
C81_2 C 0.3787(3) 0.8787(3) 0.6602(5)
C82_2 C 0.3527(3) 0.8918(6) 0.6473(3)
C83_2 C 0.3395(5) 0.9221(6) 0.6605(5)
H52_2 H 0.3560 0.9339 0.6701
H53_2 H 0.3238 0.9173 0.6759
C84_2 C 0.3992(5) 0.8992(5) 0.6845(6)
H54_2 H 0.4214 0.8952 0.6822
O44_2 O 0.3888(3) 0.7903(3) 0.6112(3)
O45_2 O 0.46755(15) 0.7597(2) 0.53245(15)
C85_2 C 0.3874(3) 0.6782(5) 0.6126(3)
O46_2 O 0.46734(14) 0.7091(2) 0.53266(14)
O47_2 O 0.39677(17) 0.6558(2) 0.60323(17)
C86_2 C 0.43413(19) 0.7351(3) 0.56587(19)
C87_2 C 0.4000(3) 0.7076(3) 0.6000(3)
C88_2 C 0.4228(2) 0.7077(3) 0.5772(2)
H55_2 H 0.4305 0.6888 0.5695
C89_2 C 0.3897(2) 0.7373(4) 0.6103(2)
H56_2 H 0.3743 0.7385 0.6257
C90_2 C 0.4237(2) 0.7631(3) 0.5763(2)
H57_2 H 0.4317 0.7817 0.5683
O48_2 O 0.3675(2) 0.6827(3) 0.6325(2)
C91_2 C 0.4018(3) 0.7636(4) 0.5982(3)
C92_2 C 0.4578(2) 0.7356(3) 0.5422(2)
C93_2 C 0.3787(3) 0.8398(5) 0.6213(3)
C94_2 C 0.3918(6) 0.8527(3) 0.6473(3)
C95_2 C 0.4221(6) 0.8395(5) 0.6605(5)
H58_2 H 0.4339 0.8299 0.6440
H59_2 H 0.4173 0.8241 0.6762
C96_2 C 0.3992(5) 0.8155(6) 0.6008(5)
H60_2 H 0.3952 0.8178 0.5786
O49_2 O 0.2903(3) 0.8888(3) 0.6112(3)
O50_2 O 0.2597(2) 0.96755(15) 0.53245(15)
C97_2 C 0.1782(5) 0.8874(3) 0.6126(3)
O51_2 O 0.2091(2) 0.96734(14) 0.53266(14)
O52_2 O 0.1558(2) 0.89677(17) 0.60323(17)
C98_2 C 0.2351(3) 0.93413(19) 0.56587(19)
C99_2 C 0.2076(3) 0.9000(3) 0.6000(3)
C100_2 C 0.2077(3) 0.9228(2) 0.5772(2)
H61_2 H 0.1888 0.9305 0.5695
C101_2 C 0.2373(4) 0.8897(2) 0.6103(2)
H62_2 H 0.2385 0.8743 0.6257
C102_2 C 0.2631(3) 0.9237(2) 0.5763(2)
H63_2 H 0.2817 0.9317 0.5683
O53_2 O 0.1827(3) 0.8675(2) 0.6325(2)
C103_2 C 0.2636(4) 0.9018(3) 0.5982(3)
C104_2 C 0.2356(3) 0.9578(2) 0.5422(2)
C105_2 C 0.3398(5) 0.8787(3) 0.6213(3)
C106_2 C 0.3527(3) 0.8527(3) 0.6082(6)
C107_2 C 0.3395(5) 0.8395(5) 0.5779(6)
H64_2 H 0.3299 0.8560 0.5661
H65_2 H 0.3241 0.8238 0.5827
C108_2 C 0.3155(6) 0.8992(5) 0.6008(5)
H66_2 H 0.3178 0.9214 0.6048
H67_2 H 0.3299 0.9339 0.6440
H68_2 H 0.3178 0.8952 0.5786
H69_2 H 0.4339 0.8560 0.6701
H70_2 H 0.3952 0.9214 0.6822
H71_2 H 0.3560 0.8299 0.5661
H72_2 H 0.4214 0.8178 0.6048
Zn11_2 Zn 0.16010(4) 0.83990(4) 0.66010(4)
Zn12_2 Zn 0.11336(3) 0.88664(3) 0.61336(3)
O71_5 O 0.0874(4) 0.9126(4) 0.5874(4)
O72_5 O 0.1935(3) 0.8065(3) 0.6502(10)
O75_5 O 0.1502(10) 0.8065(3) 0.3065(3)
O76_5 O 0.1935(3) 0.8065(3) 0.3498(10)
O79_5 O 0.1502(10) 0.8065(3) 0.6935(3)
O80_5 O 0.1935(3) 0.8498(10) 0.6935(3)
Zn15_4 Zn 0.73128(5) 1.0000 0.5000
Zn17_2 Zn 0.5000 0.76872(5) 0.5000
Zn18_4 Zn 0.79941(6) 1.0000 0.5000
Zn20_2 Zn 0.5000 0.70059(6) 0.5000
Zn23_3 Zn 0.83990(4) 0.83990(4) 0.33990(4)
Zn31_3 Zn 0.88664(3) 0.88664(3) 0.38664(3)
O87_2 O 0.53245(15) 0.96755(15) 0.7403(2)
O92_2 O 0.53266(14) 0.96734(14) 0.7909(2)
O93_5 O 0.10323(17) 0.8442(2) 0.60323(17)
O95_5 O 0.10323(17) 0.89677(17) 0.3442(2)
O97_5 O 0.10323(17) 0.89677(17) 0.6558(2)
O98_5 O 0.10323(17) 0.8442(2) 0.39677(17)
O101_5 O 0.1325(2) 0.8173(3) 0.6325(2)
O103_5 O 0.1325(2) 0.8675(2) 0.3173(3)
O105_5 O 0.1325(2) 0.8675(2) 0.6827(3)
O106_5 O 0.1325(2) 0.8173(3) 0.3675(2)
O71_6 O 0.0874(4) 0.4126(4) 0.9126(4)
O72_6 O 0.1935(3) 0.3498(10) 0.8065(3)
O73_5 O 0.3498(10) 0.6935(3) 0.6935(3)
O74_5 O 0.4126(4) 0.5874(4) 0.5874(4)
O79_6 O 0.1502(10) 0.3065(3) 0.8065(3)
O80_6 O 0.1935(3) 0.3065(3) 0.8498(10)
O81_5 O 0.3065(3) 0.6502(10) 0.6935(3)
O82_5 O 0.3065(3) 0.6935(3) 0.6502(10)
O93_6 O 0.10323(17) 0.39677(17) 0.8442(2)
O96_5 O 0.3442(2) 0.60323(17) 0.60323(17)
O97_6 O 0.10323(17) 0.3442(2) 0.89677(17)
O101_6 O 0.1325(2) 0.3675(2) 0.8173(3)
O104_5 O 0.3173(3) 0.6325(2) 0.6325(2)
O105_6 O 0.1325(2) 0.3173(3) 0.8675(2)
O21_4 O 0.6112(3) 0.1112(3) 0.7097(3)
C37_4 C 0.6126(3) 0.1126(3) 0.8218(5)
O24_3 O 0.60323(17) 0.10323(17) 0.8442(2)
C38_4 C 0.56587(19) 0.06587(19) 0.7649(3)
C39_4 C 0.6000(3) 0.1000(3) 0.7924(3)
C40_4 C 0.5772(2) 0.0772(2) 0.7923(3)
H25_4 H 0.5695 0.0695 0.8112
C41_4 C 0.6103(2) 0.1103(2) 0.7627(4)
H26_4 H 0.6257 0.1257 0.7615
C42_4 C 0.5763(2) 0.0763(2) 0.7369(3)
H27_4 H 0.5683 0.0683 0.7183
O26_3 O 0.6325(2) 0.1325(2) 0.8173(3)
C43_4 C 0.5982(3) 0.0982(3) 0.7364(4)
C44_4 C 0.5422(2) 0.0422(2) 0.7644(3)
C45_4 C 0.6213(3) 0.1213(3) 0.6602(5)
C46_4 C 0.6473(3) 0.1082(6) 0.6473(3)
C47_4 C 0.6605(5) 0.0779(6) 0.6605(5)
H28_4 H 0.6440 0.0661 0.6701
H29_4 H 0.6762 0.0827 0.6759
C48_4 C 0.6008(5) 0.1008(5) 0.6845(6)
H30_4 H 0.5786 0.1048 0.6822
O27_4 O 0.6112(3) 0.2097(3) 0.6112(3)
O28_4 O 0.53245(15) 0.2403(2) 0.53245(15)
C49_4 C 0.6126(3) 0.3218(5) 0.6126(3)
O29_4 O 0.53266(14) 0.2909(2) 0.53266(14)
O30_3 O 0.60323(17) 0.3442(2) 0.60323(17)
C50_4 C 0.56587(19) 0.2649(3) 0.56587(19)
C51_4 C 0.6000(3) 0.2924(3) 0.6000(3)
C52_4 C 0.5772(2) 0.2923(3) 0.5772(2)
H31_4 H 0.5695 0.3112 0.5695
C53_4 C 0.6103(2) 0.2627(4) 0.6103(2)
H32_4 H 0.6257 0.2615 0.6257
C54_4 C 0.5763(2) 0.2369(3) 0.5763(2)
H33_4 H 0.5683 0.2183 0.5683
O31_3 O 0.6325(2) 0.3173(3) 0.6325(2)
C55_4 C 0.5982(3) 0.2364(4) 0.5982(3)
C56_4 C 0.5422(2) 0.2644(3) 0.5422(2)
C57_4 C 0.6213(3) 0.1602(5) 0.6213(3)
C58_4 C 0.6082(6) 0.1473(3) 0.6473(3)
C59_4 C 0.5779(6) 0.1605(5) 0.6605(5)
H34_4 H 0.5661 0.1701 0.6440
H35_4 H 0.5827 0.1759 0.6762
C60_4 C 0.6008(5) 0.1845(6) 0.6008(5)
H36_4 H 0.6048 0.1822 0.5786
O32_4 O 0.7097(3) 0.1112(3) 0.6112(3)
O33_3 O 0.7403(2) 0.03245(15) 0.53245(15)
C61_4 C 0.8218(5) 0.1126(3) 0.6126(3)
O34_3 O 0.7909(2) 0.03266(14) 0.53266(14)
O35_4 O 0.8442(2) 0.10323(17) 0.60323(17)
C62_4 C 0.7649(3) 0.06587(19) 0.56587(19)
C63_4 C 0.7924(3) 0.1000(3) 0.6000(3)
C64_4 C 0.7923(3) 0.0772(2) 0.5772(2)
H37_4 H 0.8112 0.0695 0.5695
C65_4 C 0.7627(4) 0.1103(2) 0.6103(2)
H38_4 H 0.7615 0.1257 0.6257
C66_4 C 0.7369(3) 0.0763(2) 0.5763(2)
H39_4 H 0.7183 0.0683 0.5683
O36_4 O 0.8173(3) 0.1325(2) 0.6325(2)
C67_4 C 0.7364(4) 0.0982(3) 0.5982(3)
C68_4 C 0.7644(3) 0.0422(2) 0.5422(2)
C69_4 C 0.6602(5) 0.1213(3) 0.6213(3)
C70_4 C 0.6473(3) 0.1473(3) 0.6082(6)
C71_4 C 0.6605(5) 0.1605(5) 0.5779(6)
H40_4 H 0.6701 0.1440 0.5661
H41_4 H 0.6759 0.1762 0.5827
C72_4 C 0.6845(6) 0.1008(5) 0.6008(5)
H42_4 H 0.6822 0.0786 0.6048
H43_4 H 0.6701 0.0661 0.6440
H44_4 H 0.6822 0.1048 0.5786
H45_4 H 0.5661 0.1440 0.6701
H46_4 H 0.6048 0.0786 0.6822
H47_4 H 0.6440 0.1701 0.5661
H48_4 H 0.5786 0.1822 0.6048
O38_3 O 0.3888(3) 0.1112(3) 0.2903(3)
C73_3 C 0.3874(3) 0.1126(3) 0.1782(5)
C74_3 C 0.43413(19) 0.06587(19) 0.2351(3)
C75_3 C 0.4000(3) 0.1000(3) 0.2076(3)
C76_3 C 0.4228(2) 0.0772(2) 0.2077(3)
H49_3 H 0.4305 0.0695 0.1888
C77_3 C 0.3897(2) 0.1103(2) 0.2373(4)
H50_3 H 0.3743 0.1257 0.2385
C78_3 C 0.4237(2) 0.0763(2) 0.2631(3)
H51_3 H 0.4317 0.0683 0.2817
C79_3 C 0.4018(3) 0.0982(3) 0.2636(4)
C80_3 C 0.4578(2) 0.0422(2) 0.2356(3)
C81_3 C 0.3787(3) 0.1213(3) 0.3398(5)
C82_3 C 0.3527(3) 0.1082(6) 0.3527(3)
C83_3 C 0.3395(5) 0.0779(6) 0.3395(5)
H52_3 H 0.3560 0.0661 0.3299
H53_3 H 0.3238 0.0827 0.3241
C84_3 C 0.3992(5) 0.1008(5) 0.3155(6)
H54_3 H 0.4214 0.1048 0.3178
O44_3 O 0.3888(3) 0.2097(3) 0.3888(3)
O45_3 O 0.46755(15) 0.2403(2) 0.46755(15)
C85_3 C 0.3874(3) 0.3218(5) 0.3874(3)
O46_3 O 0.46734(14) 0.2909(2) 0.46734(14)
C86_3 C 0.43413(19) 0.2649(3) 0.43413(19)
C87_3 C 0.4000(3) 0.2924(3) 0.4000(3)
C88_3 C 0.4228(2) 0.2923(3) 0.4228(2)
H55_3 H 0.4305 0.3112 0.4305
C89_3 C 0.3897(2) 0.2627(4) 0.3897(2)
H56_3 H 0.3743 0.2615 0.3743
C90_3 C 0.4237(2) 0.2369(3) 0.4237(2)
H57_3 H 0.4317 0.2183 0.4317
C91_3 C 0.4018(3) 0.2364(4) 0.4018(3)
C92_3 C 0.4578(2) 0.2644(3) 0.4578(2)
C93_3 C 0.3787(3) 0.1602(5) 0.3787(3)
C94_3 C 0.3918(6) 0.1473(3) 0.3527(3)
C95_3 C 0.4221(6) 0.1605(5) 0.3395(5)
H58_3 H 0.4339 0.1701 0.3560
H59_3 H 0.4173 0.1759 0.3238
C96_3 C 0.3992(5) 0.1845(6) 0.3992(5)
H60_3 H 0.3952 0.1822 0.4214
O49_3 O 0.2903(3) 0.1112(3) 0.3888(3)
C97_3 C 0.1782(5) 0.1126(3) 0.3874(3)
O52_3 O 0.1558(2) 0.10323(17) 0.39677(17)
C98_3 C 0.2351(3) 0.06587(19) 0.43413(19)
C99_3 C 0.2076(3) 0.1000(3) 0.4000(3)
C100_3 C 0.2077(3) 0.0772(2) 0.4228(2)
H61_3 H 0.1888 0.0695 0.4305
C101_3 C 0.2373(4) 0.1103(2) 0.3897(2)
H62_3 H 0.2385 0.1257 0.3743
C102_3 C 0.2631(3) 0.0763(2) 0.4237(2)
H63_3 H 0.2817 0.0683 0.4317
O53_3 O 0.1827(3) 0.1325(2) 0.3675(2)
C103_3 C 0.2636(4) 0.0982(3) 0.4018(3)
C104_3 C 0.2356(3) 0.0422(2) 0.4578(2)
C105_3 C 0.3398(5) 0.1213(3) 0.3787(3)
C106_3 C 0.3527(3) 0.1473(3) 0.3918(6)
C107_3 C 0.3395(5) 0.1605(5) 0.4221(6)
H64_3 H 0.3299 0.1440 0.4339
H65_3 H 0.3241 0.1762 0.4173
C108_3 C 0.3155(6) 0.1008(5) 0.3992(5)
H66_3 H 0.3178 0.0786 0.3952
H67_3 H 0.3299 0.0661 0.3560
H68_3 H 0.3178 0.1048 0.4214
H69_3 H 0.4339 0.1440 0.3299
H70_3 H 0.3952 0.0786 0.3178
H71_3 H 0.3560 0.1701 0.4339
H72_3 H 0.4214 0.1822 0.3952
Zn11_3 Zn 0.16010(4) 0.16010(4) 0.33990(4)
Zn12_3 Zn 0.11336(3) 0.11336(3) 0.38664(3)
O71_7 O 0.0874(4) 0.0874(4) 0.4126(4)
O72_7 O 0.1935(3) 0.1935(3) 0.3498(10)
O73_6 O 0.3498(10) 0.3065(3) 0.6935(3)
O74_6 O 0.4126(4) 0.4126(4) 0.5874(4)
O79_7 O 0.1502(10) 0.1935(3) 0.3065(3)
O80_7 O 0.1935(3) 0.1502(10) 0.3065(3)
O81_6 O 0.3065(3) 0.3065(3) 0.6502(10)
O82_6 O 0.3065(3) 0.3498(10) 0.6935(3)
Zn23_4 Zn 0.83990(4) 0.16010(4) 0.66010(4)
Zn31_4 Zn 0.88664(3) 0.11336(3) 0.61336(3)
O93_7 O 0.10323(17) 0.1558(2) 0.39677(17)
O96_6 O 0.3442(2) 0.39677(17) 0.60323(17)
O97_7 O 0.10323(17) 0.10323(17) 0.3442(2)
O101_7 O 0.1325(2) 0.1827(3) 0.3675(2)
O104_6 O 0.3173(3) 0.3675(2) 0.6325(2)
O105_7 O 0.1325(2) 0.1325(2) 0.3173(3)
Zn1_5 Zn 0.0000 0.5000 0.73128(5)
Zn2_5 Zn -0.0000 0.5000 0.79941(6)
O1_5 O -0.0000 0.5000 0.6856(3)
O2_3 O 0.1112(3) 0.3888(3) 0.7097(3)
O3_3 O 0.03245(15) 0.46755(15) 0.7403(2)
C1_3 C 0.1126(3) 0.3874(3) 0.8218(5)
O4_3 O 0.03266(14) 0.46734(14) 0.7909(2)
C2_3 C 0.06587(19) 0.43413(19) 0.7649(3)
C3_3 C 0.1000(3) 0.4000(3) 0.7924(3)
O6_5 O -0.0000 0.5000 0.8443(5)
C4_3 C 0.0772(2) 0.4228(2) 0.7923(3)
H1_3 H 0.0695 0.4305 0.8112
C5_3 C 0.1103(2) 0.3897(2) 0.7627(4)
H2_3 H 0.1257 0.3743 0.7615
C6_3 C 0.0763(2) 0.4237(2) 0.7369(3)
H3_3 H 0.0683 0.4317 0.7183
C7_3 C 0.0982(3) 0.4018(3) 0.7364(4)
C8_3 C 0.0422(2) 0.4578(2) 0.7644(3)
C9_3 C 0.1213(3) 0.3787(3) 0.6602(5)
C10_3 C 0.1082(6) 0.3527(3) 0.6473(3)
C11_3 C 0.0779(6) 0.3395(5) 0.6605(5)
H4_3 H 0.0661 0.3560 0.6701
H5_3 H 0.0827 0.3238 0.6759
C12_3 C 0.1008(5) 0.3992(5) 0.6845(6)
H6_3 H 0.1048 0.4214 0.6822
O10_3 O 0.2097(3) 0.3888(3) 0.6112(3)
O11_3 O 0.2403(2) 0.46755(15) 0.53245(15)
C13_3 C 0.3218(5) 0.3874(3) 0.6126(3)
O12_3 O 0.2909(2) 0.46734(14) 0.53266(14)
C14_3 C 0.2649(3) 0.43413(19) 0.56587(19)
C15_3 C 0.2924(3) 0.4000(3) 0.6000(3)
C16_3 C 0.2923(3) 0.4228(2) 0.5772(2)
H7_3 H 0.3112 0.4305 0.5695
C17_3 C 0.2627(4) 0.3897(2) 0.6103(2)
H8_3 H 0.2615 0.3743 0.6257
C18_3 C 0.2369(3) 0.4237(2) 0.5763(2)
H9_3 H 0.2183 0.4317 0.5683
C19_3 C 0.2364(4) 0.4018(3) 0.5982(3)
C20_3 C 0.2644(3) 0.4578(2) 0.5422(2)
C21_3 C 0.1602(5) 0.3787(3) 0.6213(3)
C22_3 C 0.1473(3) 0.3918(6) 0.6473(3)
C23_3 C 0.1605(5) 0.4221(6) 0.6605(5)
H10_3 H 0.1701 0.4339 0.6440
H11_3 H 0.1759 0.4173 0.6762
C24_3 C 0.1845(6) 0.3992(5) 0.6008(5)
H12_3 H 0.1822 0.3952 0.5786
O15_3 O 0.1112(3) 0.2903(3) 0.6112(3)
O16_3 O 0.03245(15) 0.2597(2) 0.53245(15)
C25_3 C 0.1126(3) 0.1782(5) 0.6126(3)
O17_3 O 0.03266(14) 0.2091(2) 0.53266(14)
C26_3 C 0.06587(19) 0.2351(3) 0.56587(19)
C27_3 C 0.1000(3) 0.2076(3) 0.6000(3)
C28_3 C 0.0772(2) 0.2077(3) 0.5772(2)
H13_3 H 0.0695 0.1888 0.5695
C29_3 C 0.1103(2) 0.2373(4) 0.6103(2)
H14_3 H 0.1257 0.2385 0.6257
C30_3 C 0.0763(2) 0.2631(3) 0.5763(2)
H15_3 H 0.0683 0.2817 0.5683
C31_3 C 0.0982(3) 0.2636(4) 0.5982(3)
C32_3 C 0.0422(2) 0.2356(3) 0.5422(2)
C33_3 C 0.1213(3) 0.3398(5) 0.6213(3)
C34_3 C 0.1473(3) 0.3527(3) 0.6082(6)
C35_3 C 0.1605(5) 0.3395(5) 0.5779(6)
H16_3 H 0.1440 0.3299 0.5661
H17_3 H 0.1762 0.3241 0.5827
C36_3 C 0.1008(5) 0.3155(6) 0.6008(5)
H18_3 H 0.0786 0.3178 0.6048
H19_3 H 0.0661 0.3299 0.6440
H20_3 H 0.1048 0.3178 0.5786
H21_3 H 0.1440 0.4339 0.6701
H22_3 H 0.0786 0.3952 0.6822
H23_3 H 0.1701 0.3560 0.5661
H24_3 H 0.1822 0.4214 0.6048
Zn5_5 Zn -0.0000 0.26872(5) 0.5000
Zn6_5 Zn 0.0000 0.20059(6) 0.5000
O20_7 O 0.0000 0.3144(3) 0.5000
O21_5 O 0.1112(3) 0.2903(3) 0.3888(3)
O22_4 O 0.03245(15) 0.2597(2) 0.46755(15)
C37_5 C 0.1126(3) 0.1782(5) 0.3874(3)
O23_4 O 0.03266(14) 0.2091(2) 0.46734(14)
C38_5 C 0.06587(19) 0.2351(3) 0.43413(19)
C39_5 C 0.1000(3) 0.2076(3) 0.4000(3)
O25_7 O 0.0000 0.1557(5) 0.5000
C40_5 C 0.0772(2) 0.2077(3) 0.4228(2)
H25_5 H 0.0695 0.1888 0.4305
C41_5 C 0.1103(2) 0.2373(4) 0.3897(2)
H26_5 H 0.1257 0.2385 0.3743
C42_5 C 0.0763(2) 0.2631(3) 0.4237(2)
H27_5 H 0.0683 0.2817 0.4317
C43_5 C 0.0982(3) 0.2636(4) 0.4018(3)
C44_5 C 0.0422(2) 0.2356(3) 0.4578(2)
C45_5 C 0.1213(3) 0.3398(5) 0.3787(3)
C46_5 C 0.1082(6) 0.3527(3) 0.3527(3)
C47_5 C 0.0779(6) 0.3395(5) 0.3395(5)
H28_5 H 0.0661 0.3299 0.3560
H29_5 H 0.0827 0.3241 0.3238
C48_5 C 0.1008(5) 0.3155(6) 0.3992(5)
H30_5 H 0.1048 0.3178 0.4214
O27_5 O 0.2097(3) 0.3888(3) 0.3888(3)
O28_5 O 0.2403(2) 0.46755(15) 0.46755(15)
C49_5 C 0.3218(5) 0.3874(3) 0.3874(3)
O29_5 O 0.2909(2) 0.46734(14) 0.46734(14)
C50_5 C 0.2649(3) 0.43413(19) 0.43413(19)
C51_5 C 0.2924(3) 0.4000(3) 0.4000(3)
C52_5 C 0.2923(3) 0.4228(2) 0.4228(2)
H31_5 H 0.3112 0.4305 0.4305
C53_5 C 0.2627(4) 0.3897(2) 0.3897(2)
H32_5 H 0.2615 0.3743 0.3743
C54_5 C 0.2369(3) 0.4237(2) 0.4237(2)
H33_5 H 0.2183 0.4317 0.4317
C55_5 C 0.2364(4) 0.4018(3) 0.4018(3)
C56_5 C 0.2644(3) 0.4578(2) 0.4578(2)
C57_5 C 0.1602(5) 0.3787(3) 0.3787(3)
C58_5 C 0.1473(3) 0.3527(3) 0.3918(6)
C59_5 C 0.1605(5) 0.3395(5) 0.4221(6)
H34_5 H 0.1701 0.3560 0.4339
H35_5 H 0.1759 0.3238 0.4173
C60_5 C 0.1845(6) 0.3992(5) 0.3992(5)
H36_5 H 0.1822 0.4214 0.3952
O32_5 O 0.1112(3) 0.3888(3) 0.2903(3)
O33_4 O 0.03245(15) 0.46755(15) 0.2597(2)
C61_5 C 0.1126(3) 0.3874(3) 0.1782(5)
O34_4 O 0.03266(14) 0.46734(14) 0.2091(2)
C62_5 C 0.06587(19) 0.43413(19) 0.2351(3)
C63_5 C 0.1000(3) 0.4000(3) 0.2076(3)
C64_5 C 0.0772(2) 0.4228(2) 0.2077(3)
H37_5 H 0.0695 0.4305 0.1888
C65_5 C 0.1103(2) 0.3897(2) 0.2373(4)
H38_5 H 0.1257 0.3743 0.2385
C66_5 C 0.0763(2) 0.4237(2) 0.2631(3)
H39_5 H 0.0683 0.4317 0.2817
C67_5 C 0.0982(3) 0.4018(3) 0.2636(4)
C68_5 C 0.0422(2) 0.4578(2) 0.2356(3)
C69_5 C 0.1213(3) 0.3787(3) 0.3398(5)
C70_5 C 0.1473(3) 0.3918(6) 0.3527(3)
C71_5 C 0.1605(5) 0.4221(6) 0.3395(5)
H40_5 H 0.1440 0.4339 0.3299
H41_5 H 0.1762 0.4173 0.3241
C72_5 C 0.1008(5) 0.3992(5) 0.3155(6)
H42_5 H 0.0786 0.3952 0.3178
H43_5 H 0.0661 0.3560 0.3299
H44_5 H 0.1048 0.4214 0.3178
H45_5 H 0.1440 0.3299 0.4339
H46_5 H 0.0786 0.3178 0.3952
H47_5 H 0.1701 0.4339 0.3560
H48_5 H 0.1822 0.3952 0.4214
Zn7_5 Zn 0.0000 0.73128(5) 0.5000
Zn8_5 Zn 0.0000 0.79941(6) 0.5000
O37_5 O -0.0000 0.6856(3) 0.5000
O38_4 O 0.1112(3) 0.7097(3) 0.6112(3)
O39_3 O 0.03245(15) 0.7403(2) 0.53245(15)
C73_4 C 0.1126(3) 0.8218(5) 0.6126(3)
O40_3 O 0.03266(14) 0.7909(2) 0.53266(14)
C74_4 C 0.06587(19) 0.7649(3) 0.56587(19)
C75_4 C 0.1000(3) 0.7924(3) 0.6000(3)
O42_5 O -0.0000 0.8443(5) 0.5000
C76_4 C 0.0772(2) 0.7923(3) 0.5772(2)
H49_4 H 0.0695 0.8112 0.5695
C77_4 C 0.1103(2) 0.7627(4) 0.6103(2)
H50_4 H 0.1257 0.7615 0.6257
C78_4 C 0.0763(2) 0.7369(3) 0.5763(2)
H51_4 H 0.0683 0.7183 0.5683
C79_4 C 0.0982(3) 0.7364(4) 0.5982(3)
C80_4 C 0.0422(2) 0.7644(3) 0.5422(2)
C81_4 C 0.1213(3) 0.6602(5) 0.6213(3)
C82_4 C 0.1082(6) 0.6473(3) 0.6473(3)
C83_4 C 0.0779(6) 0.6605(5) 0.6605(5)
H52_4 H 0.0661 0.6701 0.6440
H53_4 H 0.0827 0.6759 0.6762
C84_4 C 0.1008(5) 0.6845(6) 0.6008(5)
H54_4 H 0.1048 0.6822 0.5786
O44_4 O 0.2097(3) 0.6112(3) 0.6112(3)
O45_4 O 0.2403(2) 0.53245(15) 0.53245(15)
C85_4 C 0.3218(5) 0.6126(3) 0.6126(3)
O46_4 O 0.2909(2) 0.53266(14) 0.53266(14)
C86_4 C 0.2649(3) 0.56587(19) 0.56587(19)
C87_4 C 0.2924(3) 0.6000(3) 0.6000(3)
C88_4 C 0.2923(3) 0.5772(2) 0.5772(2)
H55_4 H 0.3112 0.5695 0.5695
C89_4 C 0.2627(4) 0.6103(2) 0.6103(2)
H56_4 H 0.2615 0.6257 0.6257
C90_4 C 0.2369(3) 0.5763(2) 0.5763(2)
H57_4 H 0.2183 0.5683 0.5683
C91_4 C 0.2364(4) 0.5982(3) 0.5982(3)
C92_4 C 0.2644(3) 0.5422(2) 0.5422(2)
C93_4 C 0.1602(5) 0.6213(3) 0.6213(3)
C94_4 C 0.1473(3) 0.6473(3) 0.6082(6)
C95_4 C 0.1605(5) 0.6605(5) 0.5779(6)
H58_4 H 0.1701 0.6440 0.5661
H59_4 H 0.1759 0.6762 0.5827
C96_4 C 0.1845(6) 0.6008(5) 0.6008(5)
H60_4 H 0.1822 0.5786 0.6048
O49_4 O 0.1112(3) 0.6112(3) 0.7097(3)
O50_3 O 0.03245(15) 0.53245(15) 0.7403(2)
C97_4 C 0.1126(3) 0.6126(3) 0.8218(5)
O51_3 O 0.03266(14) 0.53266(14) 0.7909(2)
C98_4 C 0.06587(19) 0.56587(19) 0.7649(3)
C99_4 C 0.1000(3) 0.6000(3) 0.7924(3)
C100_4 C 0.0772(2) 0.5772(2) 0.7923(3)
H61_4 H 0.0695 0.5695 0.8112
C101_4 C 0.1103(2) 0.6103(2) 0.7627(4)
H62_4 H 0.1257 0.6257 0.7615
C102_4 C 0.0763(2) 0.5763(2) 0.7369(3)
H63_4 H 0.0683 0.5683 0.7183
C103_4 C 0.0982(3) 0.5982(3) 0.7364(4)
C104_4 C 0.0422(2) 0.5422(2) 0.7644(3)
C105_4 C 0.1213(3) 0.6213(3) 0.6602(5)
C106_4 C 0.1473(3) 0.6082(6) 0.6473(3)
C107_4 C 0.1605(5) 0.5779(6) 0.6605(5)
H64_4 H 0.1440 0.5661 0.6701
H65_4 H 0.1762 0.5827 0.6759
C108_4 C 0.1008(5) 0.6008(5) 0.6845(6)
H66_4 H 0.0786 0.6048 0.6822
H67_4 H 0.0661 0.6440 0.6701
H68_4 H 0.1048 0.5786 0.6822
H69_4 H 0.1440 0.6701 0.5661
H70_4 H 0.0786 0.6822 0.6048
H71_4 H 0.1701 0.5661 0.6440
H72_4 H 0.1822 0.6048 0.5786
Zn15_5 Zn -0.0000 0.5000 0.26872(5)
Zn17_3 Zn 0.23128(5) 0.5000 0.5000
Zn18_5 Zn -0.0000 0.5000 0.20059(6)
Zn20_3 Zn 0.29941(6) 0.5000 0.5000
O87_3 O 0.03245(15) 0.7403(2) 0.46755(15)
O92_3 O 0.03266(14) 0.7909(2) 0.46734(14)
Zn1_6 Zn 1.0000 0.5000 0.73128(5)
Zn2_6 Zn 1.0000 0.5000 0.79941(6)
O1_6 O 1.0000 0.5000 0.6856(3)
O6_6 O 1.0000 0.5000 0.8443(5)
Zn5_6 Zn 1.0000 0.26872(5) 0.5000
Zn6_6 Zn 1.0000 0.20059(6) 0.5000
O20_8 O 1.0000 0.3144(3) 0.5000
O25_8 O 1.0000 0.1557(5) 0.5000
Zn7_6 Zn 1.0000 0.73128(5) 0.5000
Zn8_6 Zn 1.0000 0.79941(6) 0.5000
O37_6 O 1.0000 0.6856(3) 0.5000
O42_6 O 1.0000 0.8443(5) 0.5000
O54_6 O 0.8888(3) 0.6112(3) 0.7097(3)
O55_3 O 0.96755(15) 0.53245(15) 0.7403(2)
C109_6 C 0.8874(3) 0.6126(3) 0.8218(5)
O56_3 O 0.96734(14) 0.53266(14) 0.7909(2)
O57_6 O 0.89677(17) 0.60323(17) 0.8442(2)
C110_6 C 0.93413(19) 0.56587(19) 0.7649(3)
C111_6 C 0.9000(3) 0.6000(3) 0.7924(3)
C112_6 C 0.9228(2) 0.5772(2) 0.7923(3)
H73_6 H 0.9305 0.5695 0.8112
C113_6 C 0.8897(2) 0.6103(2) 0.7627(4)
H74_6 H 0.8743 0.6257 0.7615
C114_6 C 0.9237(2) 0.5763(2) 0.7369(3)
H75_6 H 0.9317 0.5683 0.7183
O58_6 O 0.8675(2) 0.6325(2) 0.8173(3)
C115_6 C 0.9018(3) 0.5982(3) 0.7364(4)
O59_6 O 0.9126(4) 0.5874(4) 0.9126(4)
C116_6 C 0.9578(2) 0.5422(2) 0.7644(3)
O60_6 O 0.8498(10) 0.6935(3) 0.8065(3)
C117_6 C 0.8787(3) 0.6213(3) 0.6602(5)
C118_6 C 0.8918(6) 0.6473(3) 0.6473(3)
C119_6 C 0.9221(6) 0.6605(5) 0.6605(5)
H76_6 H 0.9339 0.6440 0.6701
H77_6 H 0.9173 0.6762 0.6759
C120_6 C 0.8992(5) 0.6008(5) 0.6845(6)
H78_6 H 0.8952 0.5786 0.6822
O61_6 O 0.7903(3) 0.6112(3) 0.6112(3)
O62_6 O 0.7597(2) 0.53245(15) 0.53245(15)
C121_6 C 0.6782(5) 0.6126(3) 0.6126(3)
O63_6 O 0.7091(2) 0.53266(14) 0.53266(14)
O64_6 O 0.6558(2) 0.60323(17) 0.60323(17)
C122_6 C 0.7351(3) 0.56587(19) 0.56587(19)
C123_6 C 0.7076(3) 0.6000(3) 0.6000(3)
C124_6 C 0.7077(3) 0.5772(2) 0.5772(2)
H79_6 H 0.6888 0.5695 0.5695
C125_6 C 0.7373(4) 0.6103(2) 0.6103(2)
H80_6 H 0.7385 0.6257 0.6257
C126_6 C 0.7631(3) 0.5763(2) 0.5763(2)
H81_6 H 0.7817 0.5683 0.5683
O65_6 O 0.6827(3) 0.6325(2) 0.6325(2)
C127_6 C 0.7636(4) 0.5982(3) 0.5982(3)
C128_6 C 0.7356(3) 0.5422(2) 0.5422(2)
C129_6 C 0.8398(5) 0.6213(3) 0.6213(3)
C130_6 C 0.8527(3) 0.6082(6) 0.6473(3)
C131_6 C 0.8395(5) 0.5779(6) 0.6605(5)
H82_6 H 0.8299 0.5661 0.6440
H83_6 H 0.8241 0.5827 0.6762
C132_6 C 0.8155(6) 0.6008(5) 0.6008(5)
H84_6 H 0.8178 0.6048 0.5786
O66_6 O 0.8888(3) 0.7097(3) 0.6112(3)
O67_3 O 0.96755(15) 0.7403(2) 0.53245(15)
C133_6 C 0.8874(3) 0.8218(5) 0.6126(3)
O68_3 O 0.96734(14) 0.7909(2) 0.53266(14)
O69_5 O 0.89677(17) 0.8442(2) 0.60323(17)
C134_6 C 0.93413(19) 0.7649(3) 0.56587(19)
C135_6 C 0.9000(3) 0.7924(3) 0.6000(3)
C136_6 C 0.9228(2) 0.7923(3) 0.5772(2)
H85_6 H 0.9305 0.8112 0.5695
C137_6 C 0.8897(2) 0.7627(4) 0.6103(2)
H86_6 H 0.8743 0.7615 0.6257
C138_6 C 0.9237(2) 0.7369(3) 0.5763(2)
H87_6 H 0.9317 0.7183 0.5683
O70_5 O 0.8675(2) 0.8173(3) 0.6325(2)
C139_6 C 0.9018(3) 0.7364(4) 0.5982(3)
C140_6 C 0.9578(2) 0.7644(3) 0.5422(2)
C141_6 C 0.8787(3) 0.6602(5) 0.6213(3)
C142_6 C 0.8527(3) 0.6473(3) 0.6082(6)
C143_6 C 0.8395(5) 0.6605(5) 0.5779(6)
H88_6 H 0.8560 0.6701 0.5661
H89_6 H 0.8238 0.6759 0.5827
C144_6 C 0.8992(5) 0.6845(6) 0.6008(5)
H90_6 H 0.9214 0.6822 0.6048
H91_6 H 0.9339 0.6701 0.6440
H92_6 H 0.8952 0.6822 0.5786
H93_6 H 0.8560 0.5661 0.6701
H94_6 H 0.9214 0.6048 0.6822
H95_6 H 0.8299 0.6440 0.5661
H96_6 H 0.8178 0.5786 0.6048
O77_6 O 0.8065(3) 0.6502(10) 0.8065(3)
O78_6 O 0.8065(3) 0.6935(3) 0.8498(10)
Zn15_6 Zn 1.0000 0.5000 0.26872(5)
Zn16_3 Zn 0.76872(5) 0.5000 0.5000
Zn18_6 Zn 1.0000 0.5000 0.20059(6)
Zn19_3 Zn 0.70059(6) 0.5000 0.5000
Zn25_5 Zn 0.83990(4) 0.83990(4) 0.66010(4)
Zn33_5 Zn 0.88664(3) 0.88664(3) 0.61336(3)
O83_4 O 0.96755(15) 0.2597(2) 0.53245(15)
O84_3 O 0.96755(15) 0.7403(2) 0.46755(15)
O85_3 O 0.96755(15) 0.46755(15) 0.7403(2)
O86_4 O 0.96755(15) 0.2597(2) 0.46755(15)
O88_4 O 0.96734(14) 0.2091(2) 0.53266(14)
O89_3 O 0.96734(14) 0.7909(2) 0.46734(14)
O90_3 O 0.96734(14) 0.46734(14) 0.7909(2)
O91_4 O 0.96734(14) 0.2091(2) 0.46734(14)
O94_6 O 0.89677(17) 0.6558(2) 0.89677(17)
O102_6 O 0.8675(2) 0.6827(3) 0.8675(2)
O73_7 O 0.6502(10) 0.3065(3) 0.6935(3)
O74_7 O 0.5874(4) 0.4126(4) 0.5874(4)
O81_7 O 0.6935(3) 0.3498(10) 0.6935(3)
O82_7 O 0.6935(3) 0.3065(3) 0.6502(10)
O96_7 O 0.6558(2) 0.39677(17) 0.60323(17)
O104_7 O 0.6827(3) 0.3675(2) 0.6325(2)
O1_7 O 0.0000 0.5000 0.3144(3)
O6_7 O 0.0000 0.5000 0.1557(5)
O54_7 O 0.1112(3) 0.6112(3) 0.2903(3)
O55_4 O 0.03245(15) 0.53245(15) 0.2597(2)
C109_7 C 0.1126(3) 0.6126(3) 0.1782(5)
O56_4 O 0.03266(14) 0.53266(14) 0.2091(2)
C110_7 C 0.06587(19) 0.56587(19) 0.2351(3)
C111_7 C 0.1000(3) 0.6000(3) 0.2076(3)
C112_7 C 0.0772(2) 0.5772(2) 0.2077(3)
H73_7 H 0.0695 0.5695 0.1888
C113_7 C 0.1103(2) 0.6103(2) 0.2373(4)
H74_7 H 0.1257 0.6257 0.2385
C114_7 C 0.0763(2) 0.5763(2) 0.2631(3)
H75_7 H 0.0683 0.5683 0.2817
C115_7 C 0.0982(3) 0.5982(3) 0.2636(4)
C116_7 C 0.0422(2) 0.5422(2) 0.2356(3)
C117_7 C 0.1213(3) 0.6213(3) 0.3398(5)
C118_7 C 0.1082(6) 0.6473(3) 0.3527(3)
C119_7 C 0.0779(6) 0.6605(5) 0.3395(5)
H76_7 H 0.0661 0.6440 0.3299
H77_7 H 0.0827 0.6762 0.3241
C120_7 C 0.1008(5) 0.6008(5) 0.3155(6)
H78_7 H 0.1048 0.5786 0.3178
O61_7 O 0.2097(3) 0.6112(3) 0.3888(3)
O62_7 O 0.2403(2) 0.53245(15) 0.46755(15)
C121_7 C 0.3218(5) 0.6126(3) 0.3874(3)
O63_7 O 0.2909(2) 0.53266(14) 0.46734(14)
C122_7 C 0.2649(3) 0.56587(19) 0.43413(19)
C123_7 C 0.2924(3) 0.6000(3) 0.4000(3)
C124_7 C 0.2923(3) 0.5772(2) 0.4228(2)
H79_7 H 0.3112 0.5695 0.4305
C125_7 C 0.2627(4) 0.6103(2) 0.3897(2)
H80_7 H 0.2615 0.6257 0.3743
C126_7 C 0.2369(3) 0.5763(2) 0.4237(2)
H81_7 H 0.2183 0.5683 0.4317
C127_7 C 0.2364(4) 0.5982(3) 0.4018(3)
C128_7 C 0.2644(3) 0.5422(2) 0.4578(2)
C129_7 C 0.1602(5) 0.6213(3) 0.3787(3)
C130_7 C 0.1473(3) 0.6082(6) 0.3527(3)
C131_7 C 0.1605(5) 0.5779(6) 0.3395(5)
H82_7 H 0.1701 0.5661 0.3560
H83_7 H 0.1759 0.5827 0.3238
C132_7 C 0.1845(6) 0.6008(5) 0.3992(5)
H84_7 H 0.1822 0.6048 0.4214
O66_7 O 0.1112(3) 0.7097(3) 0.3888(3)
C133_7 C 0.1126(3) 0.8218(5) 0.3874(3)
C134_7 C 0.06587(19) 0.7649(3) 0.43413(19)
C135_7 C 0.1000(3) 0.7924(3) 0.4000(3)
C136_7 C 0.0772(2) 0.7923(3) 0.4228(2)
H85_7 H 0.0695 0.8112 0.4305
C137_7 C 0.1103(2) 0.7627(4) 0.3897(2)
H86_7 H 0.1257 0.7615 0.3743
C138_7 C 0.0763(2) 0.7369(3) 0.4237(2)
H87_7 H 0.0683 0.7183 0.4317
C139_7 C 0.0982(3) 0.7364(4) 0.4018(3)
C140_7 C 0.0422(2) 0.7644(3) 0.4578(2)
C141_7 C 0.1213(3) 0.6602(5) 0.3787(3)
C142_7 C 0.1473(3) 0.6473(3) 0.3918(6)
C143_7 C 0.1605(5) 0.6605(5) 0.4221(6)
H88_7 H 0.1440 0.6701 0.4339
H89_7 H 0.1762 0.6759 0.4173
C144_7 C 0.1008(5) 0.6845(6) 0.3992(5)
H90_7 H 0.0786 0.6822 0.3952
H91_7 H 0.0661 0.6701 0.3560
H92_7 H 0.1048 0.6822 0.4214
H93_7 H 0.1440 0.5661 0.3299
H94_7 H 0.0786 0.6048 0.3178
H95_7 H 0.1701 0.6440 0.4339
H96_7 H 0.1822 0.5786 0.3952
O1_8 O 1.0000 0.5000 0.3144(3)
O2_4 O 0.8888(3) 0.3888(3) 0.2903(3)
O3_4 O 0.96755(15) 0.46755(15) 0.2597(2)
C1_4 C 0.8874(3) 0.3874(3) 0.1782(5)
O4_4 O 0.96734(14) 0.46734(14) 0.2091(2)
C2_4 C 0.93413(19) 0.43413(19) 0.2351(3)
C3_4 C 0.9000(3) 0.4000(3) 0.2076(3)
O6_8 O 1.0000 0.5000 0.1557(5)
C4_4 C 0.9228(2) 0.4228(2) 0.2077(3)
H1_4 H 0.9305 0.4305 0.1888
C5_4 C 0.8897(2) 0.3897(2) 0.2373(4)
H2_4 H 0.8743 0.3743 0.2385
C6_4 C 0.9237(2) 0.4237(2) 0.2631(3)
H3_4 H 0.9317 0.4317 0.2817
C7_4 C 0.9018(3) 0.4018(3) 0.2636(4)
C8_4 C 0.9578(2) 0.4578(2) 0.2356(3)
C9_4 C 0.8787(3) 0.3787(3) 0.3398(5)
C10_4 C 0.8918(6) 0.3527(3) 0.3527(3)
C11_4 C 0.9221(6) 0.3395(5) 0.3395(5)
H4_4 H 0.9339 0.3560 0.3299
H5_4 H 0.9173 0.3238 0.3241
C12_4 C 0.8992(5) 0.3992(5) 0.3155(6)
H6_4 H 0.8952 0.4214 0.3178
O10_4 O 0.7903(3) 0.3888(3) 0.3888(3)
O11_4 O 0.7597(2) 0.46755(15) 0.46755(15)
C13_4 C 0.6782(5) 0.3874(3) 0.3874(3)
O12_4 O 0.7091(2) 0.46734(14) 0.46734(14)
C14_4 C 0.7351(3) 0.43413(19) 0.43413(19)
C15_4 C 0.7076(3) 0.4000(3) 0.4000(3)
C16_4 C 0.7077(3) 0.4228(2) 0.4228(2)
H7_4 H 0.6888 0.4305 0.4305
C17_4 C 0.7373(4) 0.3897(2) 0.3897(2)
H8_4 H 0.7385 0.3743 0.3743
C18_4 C 0.7631(3) 0.4237(2) 0.4237(2)
H9_4 H 0.7817 0.4317 0.4317
C19_4 C 0.7636(4) 0.4018(3) 0.4018(3)
C20_4 C 0.7356(3) 0.4578(2) 0.4578(2)
C21_4 C 0.8398(5) 0.3787(3) 0.3787(3)
C22_4 C 0.8527(3) 0.3918(6) 0.3527(3)
C23_4 C 0.8395(5) 0.4221(6) 0.3395(5)
H10_4 H 0.8299 0.4339 0.3560
H11_4 H 0.8241 0.4173 0.3238
C24_4 C 0.8155(6) 0.3992(5) 0.3992(5)
H12_4 H 0.8178 0.3952 0.4214
O15_4 O 0.8888(3) 0.2903(3) 0.3888(3)
C25_4 C 0.8874(3) 0.1782(5) 0.3874(3)
O18_2 O 0.89677(17) 0.1558(2) 0.39677(17)
C26_4 C 0.93413(19) 0.2351(3) 0.43413(19)
C27_4 C 0.9000(3) 0.2076(3) 0.4000(3)
C28_4 C 0.9228(2) 0.2077(3) 0.4228(2)
H13_4 H 0.9305 0.1888 0.4305
C29_4 C 0.8897(2) 0.2373(4) 0.3897(2)
H14_4 H 0.8743 0.2385 0.3743
C30_4 C 0.9237(2) 0.2631(3) 0.4237(2)
H15_4 H 0.9317 0.2817 0.4317
O19_2 O 0.8675(2) 0.1827(3) 0.3675(2)
C31_4 C 0.9018(3) 0.2636(4) 0.4018(3)
C32_4 C 0.9578(2) 0.2356(3) 0.4578(2)
C33_4 C 0.8787(3) 0.3398(5) 0.3787(3)
C34_4 C 0.8527(3) 0.3527(3) 0.3918(6)
C35_4 C 0.8395(5) 0.3395(5) 0.4221(6)
H16_4 H 0.8560 0.3299 0.4339
H17_4 H 0.8238 0.3241 0.4173
C36_4 C 0.8992(5) 0.3155(6) 0.3992(5)
H18_4 H 0.9214 0.3178 0.3952
H19_4 H 0.9339 0.3299 0.3560
H20_4 H 0.8952 0.3178 0.4214
H21_4 H 0.8560 0.4339 0.3299
H22_4 H 0.9214 0.3952 0.3178
H23_4 H 0.8299 0.3560 0.4339
H24_4 H 0.8178 0.4214 0.3952
O21_6 O 0.8888(3) 0.2903(3) 0.6112(3)
C37_6 C 0.8874(3) 0.1782(5) 0.6126(3)
O24_4 O 0.89677(17) 0.1558(2) 0.60323(17)
C38_6 C 0.93413(19) 0.2351(3) 0.56587(19)
C39_6 C 0.9000(3) 0.2076(3) 0.6000(3)
C40_6 C 0.9228(2) 0.2077(3) 0.5772(2)
H25_6 H 0.9305 0.1888 0.5695
C41_6 C 0.8897(2) 0.2373(4) 0.6103(2)
H26_6 H 0.8743 0.2385 0.6257
C42_6 C 0.9237(2) 0.2631(3) 0.5763(2)
H27_6 H 0.9317 0.2817 0.5683
O26_4 O 0.8675(2) 0.1827(3) 0.6325(2)
C43_6 C 0.9018(3) 0.2636(4) 0.5982(3)
C44_6 C 0.9578(2) 0.2356(3) 0.5422(2)
C45_6 C 0.8787(3) 0.3398(5) 0.6213(3)
C46_6 C 0.8918(6) 0.3527(3) 0.6473(3)
C47_6 C 0.9221(6) 0.3395(5) 0.6605(5)
H28_6 H 0.9339 0.3299 0.6440
H29_6 H 0.9173 0.3241 0.6762
C48_6 C 0.8992(5) 0.3155(6) 0.6008(5)
H30_6 H 0.8952 0.3178 0.5786
O27_6 O 0.7903(3) 0.3888(3) 0.6112(3)
O28_6 O 0.7597(2) 0.46755(15) 0.53245(15)
C49_6 C 0.6782(5) 0.3874(3) 0.6126(3)
O29_6 O 0.7091(2) 0.46734(14) 0.53266(14)
C50_6 C 0.7351(3) 0.43413(19) 0.56587(19)
C51_6 C 0.7076(3) 0.4000(3) 0.6000(3)
C52_6 C 0.7077(3) 0.4228(2) 0.5772(2)
H31_6 H 0.6888 0.4305 0.5695
C53_6 C 0.7373(4) 0.3897(2) 0.6103(2)
H32_6 H 0.7385 0.3743 0.6257
C54_6 C 0.7631(3) 0.4237(2) 0.5763(2)
H33_6 H 0.7817 0.4317 0.5683
C55_6 C 0.7636(4) 0.4018(3) 0.5982(3)
C56_6 C 0.7356(3) 0.4578(2) 0.5422(2)
C57_6 C 0.8398(5) 0.3787(3) 0.6213(3)
C58_6 C 0.8527(3) 0.3527(3) 0.6082(6)
C59_6 C 0.8395(5) 0.3395(5) 0.5779(6)
H34_6 H 0.8299 0.3560 0.5661
H35_6 H 0.8241 0.3238 0.5827
C60_6 C 0.8155(6) 0.3992(5) 0.6008(5)
H36_6 H 0.8178 0.4214 0.6048
O32_6 O 0.8888(3) 0.3888(3) 0.7097(3)
C61_6 C 0.8874(3) 0.3874(3) 0.8218(5)
C62_6 C 0.93413(19) 0.43413(19) 0.7649(3)
C63_6 C 0.9000(3) 0.4000(3) 0.7924(3)
C64_6 C 0.9228(2) 0.4228(2) 0.7923(3)
H37_6 H 0.9305 0.4305 0.8112
C65_6 C 0.8897(2) 0.3897(2) 0.7627(4)
H38_6 H 0.8743 0.3743 0.7615
C66_6 C 0.9237(2) 0.4237(2) 0.7369(3)
H39_6 H 0.9317 0.4317 0.7183
C67_6 C 0.9018(3) 0.4018(3) 0.7364(4)
C68_6 C 0.9578(2) 0.4578(2) 0.7644(3)
C69_6 C 0.8787(3) 0.3787(3) 0.6602(5)
C70_6 C 0.8527(3) 0.3918(6) 0.6473(3)
C71_6 C 0.8395(5) 0.4221(6) 0.6605(5)
H40_6 H 0.8560 0.4339 0.6701
H41_6 H 0.8238 0.4173 0.6759
C72_6 C 0.8992(5) 0.3992(5) 0.6845(6)
H42_6 H 0.9214 0.3952 0.6822
H43_6 H 0.9339 0.3560 0.6701
H44_6 H 0.8952 0.4214 0.6822
H45_6 H 0.8560 0.3299 0.5661
H46_6 H 0.9214 0.3178 0.6048
H47_6 H 0.8299 0.4339 0.6440
H48_6 H 0.8178 0.3952 0.5786
O38_5 O 0.8888(3) 0.7097(3) 0.3888(3)
C73_5 C 0.8874(3) 0.8218(5) 0.3874(3)
O41_3 O 0.89677(17) 0.8442(2) 0.39677(17)
C74_5 C 0.93413(19) 0.7649(3) 0.43413(19)
C75_5 C 0.9000(3) 0.7924(3) 0.4000(3)
C76_5 C 0.9228(2) 0.7923(3) 0.4228(2)
H49_5 H 0.9305 0.8112 0.4305
C77_5 C 0.8897(2) 0.7627(4) 0.3897(2)
H50_5 H 0.8743 0.7615 0.3743
C78_5 C 0.9237(2) 0.7369(3) 0.4237(2)
H51_5 H 0.9317 0.7183 0.4317
O43_3 O 0.8675(2) 0.8173(3) 0.3675(2)
C79_5 C 0.9018(3) 0.7364(4) 0.4018(3)
C80_5 C 0.9578(2) 0.7644(3) 0.4578(2)
C81_5 C 0.8787(3) 0.6602(5) 0.3787(3)
C82_5 C 0.8918(6) 0.6473(3) 0.3527(3)
C83_5 C 0.9221(6) 0.6605(5) 0.3395(5)
H52_5 H 0.9339 0.6701 0.3560
H53_5 H 0.9173 0.6759 0.3238
C84_5 C 0.8992(5) 0.6845(6) 0.3992(5)
H54_5 H 0.8952 0.6822 0.4214
O44_5 O 0.7903(3) 0.6112(3) 0.3888(3)
O45_5 O 0.7597(2) 0.53245(15) 0.46755(15)
C85_5 C 0.6782(5) 0.6126(3) 0.3874(3)
O46_5 O 0.7091(2) 0.53266(14) 0.46734(14)
C86_5 C 0.7351(3) 0.56587(19) 0.43413(19)
C87_5 C 0.7076(3) 0.6000(3) 0.4000(3)
C88_5 C 0.7077(3) 0.5772(2) 0.4228(2)
H55_5 H 0.6888 0.5695 0.4305
C89_5 C 0.7373(4) 0.6103(2) 0.3897(2)
H56_5 H 0.7385 0.6257 0.3743
C90_5 C 0.7631(3) 0.5763(2) 0.4237(2)
H57_5 H 0.7817 0.5683 0.4317
C91_5 C 0.7636(4) 0.5982(3) 0.4018(3)
C92_5 C 0.7356(3) 0.5422(2) 0.4578(2)
C93_5 C 0.8398(5) 0.6213(3) 0.3787(3)
C94_5 C 0.8527(3) 0.6473(3) 0.3918(6)
C95_5 C 0.8395(5) 0.6605(5) 0.4221(6)
H58_5 H 0.8299 0.6440 0.4339
H59_5 H 0.8241 0.6762 0.4173
C96_5 C 0.8155(6) 0.6008(5) 0.3992(5)
H60_5 H 0.8178 0.5786 0.3952
O49_5 O 0.8888(3) 0.6112(3) 0.2903(3)
O50_4 O 0.96755(15) 0.53245(15) 0.2597(2)
C97_5 C 0.8874(3) 0.6126(3) 0.1782(5)
O51_4 O 0.96734(14) 0.53266(14) 0.2091(2)
C98_5 C 0.93413(19) 0.56587(19) 0.2351(3)
C99_5 C 0.9000(3) 0.6000(3) 0.2076(3)
C100_5 C 0.9228(2) 0.5772(2) 0.2077(3)
H61_5 H 0.9305 0.5695 0.1888
C101_5 C 0.8897(2) 0.6103(2) 0.2373(4)
H62_5 H 0.8743 0.6257 0.2385
C102_5 C 0.9237(2) 0.5763(2) 0.2631(3)
H63_5 H 0.9317 0.5683 0.2817
C103_5 C 0.9018(3) 0.5982(3) 0.2636(4)
C104_5 C 0.9578(2) 0.5422(2) 0.2356(3)
C105_5 C 0.8787(3) 0.6213(3) 0.3398(5)
C106_5 C 0.8527(3) 0.6082(6) 0.3527(3)
C107_5 C 0.8395(5) 0.5779(6) 0.3395(5)
H64_5 H 0.8560 0.5661 0.3299
H65_5 H 0.8238 0.5827 0.3241
C108_5 C 0.8992(5) 0.6008(5) 0.3155(6)
H66_5 H 0.9214 0.6048 0.3178
H67_5 H 0.9339 0.6440 0.3299
H68_5 H 0.8952 0.5786 0.3178
H69_5 H 0.8560 0.6701 0.4339
H70_5 H 0.9214 0.6822 0.3952
H71_5 H 0.8299 0.5661 0.3560
H72_5 H 0.8178 0.6048 0.4214
Zn24_2 Zn 0.83990(4) 0.16010(4) 0.33990(4)
Zn32_2 Zn 0.88664(3) 0.11336(3) 0.38664(3)
O59_7 O 0.9126(4) 0.0874(4) 0.5874(4)
O60_7 O 0.8498(10) 0.1935(3) 0.6935(3)
O77_7 O 0.8065(3) 0.1935(3) 0.6502(10)
O78_7 O 0.8065(3) 0.1502(10) 0.6935(3)
O94_7 O 0.89677(17) 0.10323(17) 0.6558(2)
O102_7 O 0.8675(2) 0.1325(2) 0.6827(3)
O37_7 O 0.6856(3) 0.0000 0.5000
O38_6 O 0.7097(3) 0.1112(3) 0.3888(3)
O39_4 O 0.7403(2) 0.03245(15) 0.46755(15)
C73_6 C 0.8218(5) 0.1126(3) 0.3874(3)
O40_4 O 0.7909(2) 0.03266(14) 0.46734(14)
O41_4 O 0.8442(2) 0.10323(17) 0.39677(17)
C74_6 C 0.7649(3) 0.06587(19) 0.43413(19)
C75_6 C 0.7924(3) 0.1000(3) 0.4000(3)
O42_7 O 0.8443(5) 0.0000 0.5000
C76_6 C 0.7923(3) 0.0772(2) 0.4228(2)
H49_6 H 0.8112 0.0695 0.4305
C77_6 C 0.7627(4) 0.1103(2) 0.3897(2)
H50_6 H 0.7615 0.1257 0.3743
C78_6 C 0.7369(3) 0.0763(2) 0.4237(2)
H51_6 H 0.7183 0.0683 0.4317
O43_4 O 0.8173(3) 0.1325(2) 0.3675(2)
C79_6 C 0.7364(4) 0.0982(3) 0.4018(3)
C80_6 C 0.7644(3) 0.0422(2) 0.4578(2)
C81_6 C 0.6602(5) 0.1213(3) 0.3787(3)
C82_6 C 0.6473(3) 0.1082(6) 0.3527(3)
C83_6 C 0.6605(5) 0.0779(6) 0.3395(5)
H52_6 H 0.6701 0.0661 0.3560
H53_6 H 0.6759 0.0827 0.3238
C84_6 C 0.6845(6) 0.1008(5) 0.3992(5)
H54_6 H 0.6822 0.1048 0.4214
O44_6 O 0.6112(3) 0.2097(3) 0.3888(3)
O45_6 O 0.53245(15) 0.2403(2) 0.46755(15)
C85_6 C 0.6126(3) 0.3218(5) 0.3874(3)
O46_6 O 0.53266(14) 0.2909(2) 0.46734(14)
C86_6 C 0.56587(19) 0.2649(3) 0.43413(19)
C87_6 C 0.6000(3) 0.2924(3) 0.4000(3)
C88_6 C 0.5772(2) 0.2923(3) 0.4228(2)
H55_6 H 0.5695 0.3112 0.4305
C89_6 C 0.6103(2) 0.2627(4) 0.3897(2)
H56_6 H 0.6257 0.2615 0.3743
C90_6 C 0.5763(2) 0.2369(3) 0.4237(2)
H57_6 H 0.5683 0.2183 0.4317
C91_6 C 0.5982(3) 0.2364(4) 0.4018(3)
C92_6 C 0.5422(2) 0.2644(3) 0.4578(2)
C93_6 C 0.6213(3) 0.1602(5) 0.3787(3)
C94_6 C 0.6473(3) 0.1473(3) 0.3918(6)
C95_6 C 0.6605(5) 0.1605(5) 0.4221(6)
H58_6 H 0.6440 0.1701 0.4339
H59_6 H 0.6762 0.1759 0.4173
C96_6 C 0.6008(5) 0.1845(6) 0.3992(5)
H60_6 H 0.5786 0.1822 0.3952
O49_6 O 0.6112(3) 0.1112(3) 0.2903(3)
C97_6 C 0.6126(3) 0.1126(3) 0.1782(5)
C98_6 C 0.56587(19) 0.06587(19) 0.2351(3)
C99_6 C 0.6000(3) 0.1000(3) 0.2076(3)
C100_6 C 0.5772(2) 0.0772(2) 0.2077(3)
H61_6 H 0.5695 0.0695 0.1888
C101_6 C 0.6103(2) 0.1103(2) 0.2373(4)
H62_6 H 0.6257 0.1257 0.2385
C102_6 C 0.5763(2) 0.0763(2) 0.2631(3)
H63_6 H 0.5683 0.0683 0.2817
C103_6 C 0.5982(3) 0.0982(3) 0.2636(4)
C104_6 C 0.5422(2) 0.0422(2) 0.2356(3)
C105_6 C 0.6213(3) 0.1213(3) 0.3398(5)
C106_6 C 0.6082(6) 0.1473(3) 0.3527(3)
C107_6 C 0.5779(6) 0.1605(5) 0.3395(5)
H64_6 H 0.5661 0.1440 0.3299
H65_6 H 0.5827 0.1762 0.3241
C108_6 C 0.6008(5) 0.1008(5) 0.3155(6)
H66_6 H 0.6048 0.0786 0.3178
H67_6 H 0.6440 0.0661 0.3299
H68_6 H 0.5786 0.1048 0.3178
H69_6 H 0.6701 0.1440 0.4339
H70_6 H 0.6822 0.0786 0.3952
H71_6 H 0.5661 0.1701 0.3560
H72_6 H 0.6048 0.1822 0.4214
O37_8 O 0.6856(3) 1.0000 0.5000
O42_8 O 0.8443(5) 1.0000 0.5000
O84_4 O 0.7403(2) 0.96755(15) 0.53245(15)
O89_4 O 0.7909(2) 0.96734(14) 0.53266(14)
O21_7 O 0.7097(3) 0.8888(3) 0.6112(3)
C37_7 C 0.8218(5) 0.8874(3) 0.6126(3)
O24_5 O 0.8442(2) 0.89677(17) 0.60323(17)
C38_7 C 0.7649(3) 0.93413(19) 0.56587(19)
C39_7 C 0.7924(3) 0.9000(3) 0.6000(3)
C40_7 C 0.7923(3) 0.9228(2) 0.5772(2)
H25_7 H 0.8112 0.9305 0.5695
C41_7 C 0.7627(4) 0.8897(2) 0.6103(2)
H26_7 H 0.7615 0.8743 0.6257
C42_7 C 0.7369(3) 0.9237(2) 0.5763(2)
H27_7 H 0.7183 0.9317 0.5683
O26_5 O 0.8173(3) 0.8675(2) 0.6325(2)
C43_7 C 0.7364(4) 0.9018(3) 0.5982(3)
C44_7 C 0.7644(3) 0.9578(2) 0.5422(2)
C45_7 C 0.6602(5) 0.8787(3) 0.6213(3)
C46_7 C 0.6473(3) 0.8918(6) 0.6473(3)
C47_7 C 0.6605(5) 0.9221(6) 0.6605(5)
H28_7 H 0.6701 0.9339 0.6440
H29_7 H 0.6759 0.9173 0.6762
C48_7 C 0.6845(6) 0.8992(5) 0.6008(5)
H30_7 H 0.6822 0.8952 0.5786
O27_7 O 0.6112(3) 0.7903(3) 0.6112(3)
O28_7 O 0.53245(15) 0.7597(2) 0.53245(15)
C49_7 C 0.6126(3) 0.6782(5) 0.6126(3)
O29_7 O 0.53266(14) 0.7091(2) 0.53266(14)
O30_4 O 0.60323(17) 0.6558(2) 0.60323(17)
C50_7 C 0.56587(19) 0.7351(3) 0.56587(19)
C51_7 C 0.6000(3) 0.7076(3) 0.6000(3)
C52_7 C 0.5772(2) 0.7077(3) 0.5772(2)
H31_7 H 0.5695 0.6888 0.5695
C53_7 C 0.6103(2) 0.7373(4) 0.6103(2)
H32_7 H 0.6257 0.7385 0.6257
C54_7 C 0.5763(2) 0.7631(3) 0.5763(2)
H33_7 H 0.5683 0.7817 0.5683
O31_4 O 0.6325(2) 0.6827(3) 0.6325(2)
C55_7 C 0.5982(3) 0.7636(4) 0.5982(3)
C56_7 C 0.5422(2) 0.7356(3) 0.5422(2)
C57_7 C 0.6213(3) 0.8398(5) 0.6213(3)
C58_7 C 0.6473(3) 0.8527(3) 0.6082(6)
C59_7 C 0.6605(5) 0.8395(5) 0.5779(6)
H34_7 H 0.6440 0.8299 0.5661
H35_7 H 0.6762 0.8241 0.5827
C60_7 C 0.6008(5) 0.8155(6) 0.6008(5)
H36_7 H 0.5786 0.8178 0.6048
O32_7 O 0.6112(3) 0.8888(3) 0.7097(3)
C61_7 C 0.6126(3) 0.8874(3) 0.8218(5)
C62_7 C 0.56587(19) 0.93413(19) 0.7649(3)
C63_7 C 0.6000(3) 0.9000(3) 0.7924(3)
C64_7 C 0.5772(2) 0.9228(2) 0.7923(3)
H37_7 H 0.5695 0.9305 0.8112
C65_7 C 0.6103(2) 0.8897(2) 0.7627(4)
H38_7 H 0.6257 0.8743 0.7615
C66_7 C 0.5763(2) 0.9237(2) 0.7369(3)
H39_7 H 0.5683 0.9317 0.7183
C67_7 C 0.5982(3) 0.9018(3) 0.7364(4)
C68_7 C 0.5422(2) 0.9578(2) 0.7644(3)
C69_7 C 0.6213(3) 0.8787(3) 0.6602(5)
C70_7 C 0.6082(6) 0.8527(3) 0.6473(3)
C71_7 C 0.5779(6) 0.8395(5) 0.6605(5)
H40_7 H 0.5661 0.8560 0.6701
H41_7 H 0.5827 0.8238 0.6759
C72_7 C 0.6008(5) 0.8992(5) 0.6845(6)
H42_7 H 0.6048 0.9214 0.6822
H43_7 H 0.6440 0.9339 0.6701
H44_7 H 0.5786 0.8952 0.6822
H45_7 H 0.6701 0.8560 0.5661
H46_7 H 0.6822 0.9214 0.6048
H47_7 H 0.5661 0.8299 0.6440
H48_7 H 0.6048 0.8178 0.5786
O59_8 O 0.9126(4) 0.9126(4) 0.4126(4)
O60_8 O 0.8498(10) 0.8065(3) 0.3065(3)
O77_8 O 0.8065(3) 0.8065(3) 0.3498(10)
O78_8 O 0.8065(3) 0.8498(10) 0.3065(3)
O94_8 O 0.89677(17) 0.89677(17) 0.3442(2)
O102_8 O 0.8675(2) 0.8675(2) 0.3173(3)
O8_6 O 0.5874(4) 0.0874(4) 0.9126(4)
O9_6 O 0.6935(3) 0.1502(10) 0.8065(3)
O75_6 O 0.6935(3) 0.1935(3) 0.8498(10)
O76_6 O 0.6502(10) 0.1935(3) 0.8065(3)
O95_6 O 0.6558(2) 0.10323(17) 0.89677(17)
O103_6 O 0.6827(3) 0.1325(2) 0.8675(2)
O59_9 O 0.4126(4) 0.9126(4) 0.9126(4)
O60_9 O 0.3065(3) 0.8498(10) 0.8065(3)
O77_9 O 0.3498(10) 0.8065(3) 0.8065(3)
O78_9 O 0.3065(3) 0.8065(3) 0.8498(10)
O94_9 O 0.3442(2) 0.89677(17) 0.89677(17)
O102_9 O 0.3173(3) 0.8675(2) 0.8675(2)
O71_8 O 0.9126(4) 0.9126(4) 0.5874(4)
O72_8 O 0.8065(3) 0.8065(3) 0.6502(10)
O79_8 O 0.8065(3) 0.8498(10) 0.6935(3)
O80_8 O 0.8498(10) 0.8065(3) 0.6935(3)
O97_8 O 0.89677(17) 0.89677(17) 0.6558(2)
O105_8 O 0.8675(2) 0.8675(2) 0.6827(3)
O71_9 O 0.9126(4) 0.0874(4) 0.4126(4)
O72_9 O 0.8065(3) 0.1935(3) 0.3498(10)
O79_9 O 0.8065(3) 0.1502(10) 0.3065(3)
O80_9 O 0.8498(10) 0.1935(3) 0.3065(3)
O97_9 O 0.89677(17) 0.10323(17) 0.3442(2)
O105_9 O 0.8675(2) 0.1325(2) 0.3173(3)
O73_8 O 0.6935(3) 0.6502(10) 0.6935(3)
O74_8 O 0.5874(4) 0.5874(4) 0.5874(4)
O81_8 O 0.6502(10) 0.6935(3) 0.6935(3)
O82_8 O 0.6935(3) 0.6935(3) 0.6502(10)
O37_9 O 0.5000 0.1856(3) 0.5000
O42_9 O 0.5000 0.3443(5) 0.5000
O20_9 O 0.5000 0.8144(3) 0.5000
O25_9 O 0.5000 0.6557(5) 0.5000
O37_10 O 0.5000 0.5000 0.1856(3)
O42_10 O 0.5000 0.5000 0.3443(5)
O20_10 O 0.5000 0.5000 0.8144(3)
O25_10 O 0.5000 0.5000 0.6557(5)
Zn1_7 Zn 0.0000 0.0000 0.23128(5)
Zn2_7 Zn 0.0000 0.0000 0.29941(6)
O1_9 O 0.0000 0.0000 0.1856(3)
O6_9 O 0.0000 0.0000 0.3443(5)
Zn7_7 Zn -0.0000 0.23128(5) -0.0000
Zn8_7 Zn 0.0000 0.29941(6) -0.0000
O37_11 O 0.0000 0.1856(3) -0.0000
O38_7 O 0.1112(3) 0.2097(3) 0.1112(3)
O39_5 O 0.03245(15) 0.2403(2) 0.03245(15)
C73_7 C 0.1126(3) 0.3218(5) 0.1126(3)
O40_5 O 0.03266(14) 0.2909(2) 0.03266(14)
C74_7 C 0.06587(19) 0.2649(3) 0.06587(19)
C75_7 C 0.1000(3) 0.2924(3) 0.1000(3)
O42_11 O -0.0000 0.3443(5) -0.0000
C76_7 C 0.0772(2) 0.2923(3) 0.0772(2)
H49_7 H 0.0695 0.3112 0.0695
C77_7 C 0.1103(2) 0.2627(4) 0.1103(2)
H50_7 H 0.1257 0.2615 0.1257
C78_7 C 0.0763(2) 0.2369(3) 0.0763(2)
H51_7 H 0.0683 0.2183 0.0683
C79_7 C 0.0982(3) 0.2364(4) 0.0982(3)
C80_7 C 0.0422(2) 0.2644(3) 0.0422(2)
C81_7 C 0.1213(3) 0.1602(5) 0.1213(3)
C82_7 C 0.1082(6) 0.1473(3) 0.1473(3)
C83_7 C 0.0779(6) 0.1605(5) 0.1605(5)
H52_7 H 0.0661 0.1701 0.1440
H53_7 H 0.0827 0.1759 0.1762
C84_7 C 0.1008(5) 0.1845(6) 0.1008(5)
H54_7 H 0.1048 0.1822 0.0786
O44_7 O 0.2097(3) 0.1112(3) 0.1112(3)
O45_7 O 0.2403(2) 0.03245(15) 0.03245(15)
C85_7 C 0.3218(5) 0.1126(3) 0.1126(3)
O46_7 O 0.2909(2) 0.03266(14) 0.03266(14)
C86_7 C 0.2649(3) 0.06587(19) 0.06587(19)
C87_7 C 0.2924(3) 0.1000(3) 0.1000(3)
C88_7 C 0.2923(3) 0.0772(2) 0.0772(2)
H55_7 H 0.3112 0.0695 0.0695
C89_7 C 0.2627(4) 0.1103(2) 0.1103(2)
H56_7 H 0.2615 0.1257 0.1257
C90_7 C 0.2369(3) 0.0763(2) 0.0763(2)
H57_7 H 0.2183 0.0683 0.0683
C91_7 C 0.2364(4) 0.0982(3) 0.0982(3)
C92_7 C 0.2644(3) 0.0422(2) 0.0422(2)
C93_7 C 0.1602(5) 0.1213(3) 0.1213(3)
C94_7 C 0.1473(3) 0.1473(3) 0.1082(6)
C95_7 C 0.1605(5) 0.1605(5) 0.0779(6)
H58_7 H 0.1701 0.1440 0.0661
H59_7 H 0.1759 0.1762 0.0827
C96_7 C 0.1845(6) 0.1008(5) 0.1008(5)
H60_7 H 0.1822 0.0786 0.1048
O49_7 O 0.1112(3) 0.1112(3) 0.2097(3)
O50_5 O 0.03245(15) 0.03245(15) 0.2403(2)
C97_7 C 0.1126(3) 0.1126(3) 0.3218(5)
O51_5 O 0.03266(14) 0.03266(14) 0.2909(2)
C98_7 C 0.06587(19) 0.06587(19) 0.2649(3)
C99_7 C 0.1000(3) 0.1000(3) 0.2924(3)
C100_7 C 0.0772(2) 0.0772(2) 0.2923(3)
H61_7 H 0.0695 0.0695 0.3112
C101_7 C 0.1103(2) 0.1103(2) 0.2627(4)
H62_7 H 0.1257 0.1257 0.2615
C102_7 C 0.0763(2) 0.0763(2) 0.2369(3)
H63_7 H 0.0683 0.0683 0.2183
C103_7 C 0.0982(3) 0.0982(3) 0.2364(4)
C104_7 C 0.0422(2) 0.0422(2) 0.2644(3)
C105_7 C 0.1213(3) 0.1213(3) 0.1602(5)
C106_7 C 0.1473(3) 0.1082(6) 0.1473(3)
C107_7 C 0.1605(5) 0.0779(6) 0.1605(5)
H64_7 H 0.1440 0.0661 0.1701
H65_7 H 0.1762 0.0827 0.1759
C108_7 C 0.1008(5) 0.1008(5) 0.1845(6)
H66_7 H 0.0786 0.1048 0.1822
H67_7 H 0.0661 0.1440 0.1701
H68_7 H 0.1048 0.0786 0.1822
H69_7 H 0.1440 0.1701 0.0661
H70_7 H 0.0786 0.1822 0.1048
H71_7 H 0.1701 0.0661 0.1440
H72_7 H 0.1822 0.1048 0.0786
Zn17_4 Zn 0.23128(5) 0.0000 0.0000
Zn20_4 Zn 0.29941(6) 0.0000 0.0000
Zn7_8 Zn -0.0000 0.23128(5) 1.0000
Zn8_8 Zn -0.0000 0.29941(6) 1.0000
O37_12 O 0.0000 0.1856(3) 1.0000
O42_12 O -0.0000 0.3443(5) 1.0000
Zn15_7 Zn 0.0000 0.0000 0.76872(5)
Zn17_5 Zn 0.23128(5) 0.0000 1.0000
Zn18_7 Zn 0.0000 0.0000 0.70059(6)
Zn20_5 Zn 0.29941(6) 0.0000 1.0000
O87_4 O 0.03245(15) 0.2403(2) 0.96755(15)
O92_4 O 0.03266(14) 0.2909(2) 0.96734(14)
Zn1_8 Zn 0.0000 1.0000 0.23128(5)
Zn2_8 Zn -0.0000 1.0000 0.29941(6)
O1_10 O -0.0000 1.0000 0.1856(3)
O2_5 O 0.1112(3) 0.8888(3) 0.2097(3)
O3_5 O 0.03245(15) 0.96755(15) 0.2403(2)
C1_5 C 0.1126(3) 0.8874(3) 0.3218(5)
O4_5 O 0.03266(14) 0.96734(14) 0.2909(2)
C2_5 C 0.06587(19) 0.93413(19) 0.2649(3)
C3_5 C 0.1000(3) 0.9000(3) 0.2924(3)
O6_10 O -0.0000 1.0000 0.3443(5)
C4_5 C 0.0772(2) 0.9228(2) 0.2923(3)
H1_5 H 0.0695 0.9305 0.3112
C5_5 C 0.1103(2) 0.8897(2) 0.2627(4)
H2_5 H 0.1257 0.8743 0.2615
C6_5 C 0.0763(2) 0.9237(2) 0.2369(3)
H3_5 H 0.0683 0.9317 0.2183
C7_5 C 0.0982(3) 0.9018(3) 0.2364(4)
C8_5 C 0.0422(2) 0.9578(2) 0.2644(3)
C9_5 C 0.1213(3) 0.8787(3) 0.1602(5)
C10_5 C 0.1082(6) 0.8527(3) 0.1473(3)
C11_5 C 0.0779(6) 0.8395(5) 0.1605(5)
H4_5 H 0.0661 0.8560 0.1701
H5_5 H 0.0827 0.8238 0.1759
C12_5 C 0.1008(5) 0.8992(5) 0.1845(6)
H6_5 H 0.1048 0.9214 0.1822
O10_5 O 0.2097(3) 0.8888(3) 0.1112(3)
O11_5 O 0.2403(2) 0.96755(15) 0.03245(15)
C13_5 C 0.3218(5) 0.8874(3) 0.1126(3)
O12_5 O 0.2909(2) 0.96734(14) 0.03266(14)
C14_5 C 0.2649(3) 0.93413(19) 0.06587(19)
C15_5 C 0.2924(3) 0.9000(3) 0.1000(3)
C16_5 C 0.2923(3) 0.9228(2) 0.0772(2)
H7_5 H 0.3112 0.9305 0.0695
C17_5 C 0.2627(4) 0.8897(2) 0.1103(2)
H8_5 H 0.2615 0.8743 0.1257
C18_5 C 0.2369(3) 0.9237(2) 0.0763(2)
H9_5 H 0.2183 0.9317 0.0683
C19_5 C 0.2364(4) 0.9018(3) 0.0982(3)
C20_5 C 0.2644(3) 0.9578(2) 0.0422(2)
C21_5 C 0.1602(5) 0.8787(3) 0.1213(3)
C22_5 C 0.1473(3) 0.8918(6) 0.1473(3)
C23_5 C 0.1605(5) 0.9221(6) 0.1605(5)
H10_5 H 0.1701 0.9339 0.1440
H11_5 H 0.1759 0.9173 0.1762
C24_5 C 0.1845(6) 0.8992(5) 0.1008(5)
H12_5 H 0.1822 0.8952 0.0786
O15_5 O 0.1112(3) 0.7903(3) 0.1112(3)
O16_4 O 0.03245(15) 0.7597(2) 0.03245(15)
C25_5 C 0.1126(3) 0.6782(5) 0.1126(3)
O17_4 O 0.03266(14) 0.7091(2) 0.03266(14)
C26_5 C 0.06587(19) 0.7351(3) 0.06587(19)
C27_5 C 0.1000(3) 0.7076(3) 0.1000(3)
C28_5 C 0.0772(2) 0.7077(3) 0.0772(2)
H13_5 H 0.0695 0.6888 0.0695
C29_5 C 0.1103(2) 0.7373(4) 0.1103(2)
H14_5 H 0.1257 0.7385 0.1257
C30_5 C 0.0763(2) 0.7631(3) 0.0763(2)
H15_5 H 0.0683 0.7817 0.0683
C31_5 C 0.0982(3) 0.7636(4) 0.0982(3)
C32_5 C 0.0422(2) 0.7356(3) 0.0422(2)
C33_5 C 0.1213(3) 0.8398(5) 0.1213(3)
C34_5 C 0.1473(3) 0.8527(3) 0.1082(6)
C35_5 C 0.1605(5) 0.8395(5) 0.0779(6)
H16_5 H 0.1440 0.8299 0.0661
H17_5 H 0.1762 0.8241 0.0827
C36_5 C 0.1008(5) 0.8155(6) 0.1008(5)
H18_5 H 0.0786 0.8178 0.1048
H19_5 H 0.0661 0.8299 0.1440
H20_5 H 0.1048 0.8178 0.0786
H21_5 H 0.1440 0.9339 0.1701
H22_5 H 0.0786 0.8952 0.1822
H23_5 H 0.1701 0.8560 0.0661
H24_5 H 0.1822 0.9214 0.1048
Zn5_7 Zn 0.0000 0.76872(5) 0.0000
Zn6_7 Zn 0.0000 0.70059(6) 0.0000
O20_11 O 0.0000 0.8144(3) 0.0000
O25_11 O 0.0000 0.6557(5) 0.0000
Zn17_6 Zn 0.23128(5) 1.0000 0.0000
Zn20_6 Zn 0.29941(6) 1.0000 0.0000
Zn5_8 Zn 0.0000 0.76872(5) 1.0000
Zn6_8 Zn -0.0000 0.70059(6) 1.0000
O20_12 O -0.0000 0.8144(3) 1.0000
O21_8 O 0.1112(3) 0.7903(3) 0.8888(3)
O22_5 O 0.03245(15) 0.7597(2) 0.96755(15)
C37_8 C 0.1126(3) 0.6782(5) 0.8874(3)
O23_5 O 0.03266(14) 0.7091(2) 0.96734(14)
C38_8 C 0.06587(19) 0.7351(3) 0.93413(19)
C39_8 C 0.1000(3) 0.7076(3) 0.9000(3)
O25_12 O -0.0000 0.6557(5) 1.0000
C40_8 C 0.0772(2) 0.7077(3) 0.9228(2)
H25_8 H 0.0695 0.6888 0.9305
C41_8 C 0.1103(2) 0.7373(4) 0.8897(2)
H26_8 H 0.1257 0.7385 0.8743
C42_8 C 0.0763(2) 0.7631(3) 0.9237(2)
H27_8 H 0.0683 0.7817 0.9317
C43_8 C 0.0982(3) 0.7636(4) 0.9018(3)
C44_8 C 0.0422(2) 0.7356(3) 0.9578(2)
C45_8 C 0.1213(3) 0.8398(5) 0.8787(3)
C46_8 C 0.1082(6) 0.8527(3) 0.8527(3)
C47_8 C 0.0779(6) 0.8395(5) 0.8395(5)
H28_8 H 0.0661 0.8299 0.8560
H29_8 H 0.0827 0.8241 0.8238
C48_8 C 0.1008(5) 0.8155(6) 0.8992(5)
H30_8 H 0.1048 0.8178 0.9214
O27_8 O 0.2097(3) 0.8888(3) 0.8888(3)
O28_8 O 0.2403(2) 0.96755(15) 0.96755(15)
C49_8 C 0.3218(5) 0.8874(3) 0.8874(3)
O29_8 O 0.2909(2) 0.96734(14) 0.96734(14)
C50_8 C 0.2649(3) 0.93413(19) 0.93413(19)
C51_8 C 0.2924(3) 0.9000(3) 0.9000(3)
C52_8 C 0.2923(3) 0.9228(2) 0.9228(2)
H31_8 H 0.3112 0.9305 0.9305
C53_8 C 0.2627(4) 0.8897(2) 0.8897(2)
H32_8 H 0.2615 0.8743 0.8743
C54_8 C 0.2369(3) 0.9237(2) 0.9237(2)
H33_8 H 0.2183 0.9317 0.9317
C55_8 C 0.2364(4) 0.9018(3) 0.9018(3)
C56_8 C 0.2644(3) 0.9578(2) 0.9578(2)
C57_8 C 0.1602(5) 0.8787(3) 0.8787(3)
C58_8 C 0.1473(3) 0.8527(3) 0.8918(6)
C59_8 C 0.1605(5) 0.8395(5) 0.9221(6)
H34_8 H 0.1701 0.8560 0.9339
H35_8 H 0.1759 0.8238 0.9173
C60_8 C 0.1845(6) 0.8992(5) 0.8992(5)
H36_8 H 0.1822 0.9214 0.8952
O32_8 O 0.1112(3) 0.8888(3) 0.7903(3)
O33_5 O 0.03245(15) 0.96755(15) 0.7597(2)
C61_8 C 0.1126(3) 0.8874(3) 0.6782(5)
O34_5 O 0.03266(14) 0.96734(14) 0.7091(2)
C62_8 C 0.06587(19) 0.93413(19) 0.7351(3)
C63_8 C 0.1000(3) 0.9000(3) 0.7076(3)
C64_8 C 0.0772(2) 0.9228(2) 0.7077(3)
H37_8 H 0.0695 0.9305 0.6888
C65_8 C 0.1103(2) 0.8897(2) 0.7373(4)
H38_8 H 0.1257 0.8743 0.7385
C66_8 C 0.0763(2) 0.9237(2) 0.7631(3)
H39_8 H 0.0683 0.9317 0.7817
C67_8 C 0.0982(3) 0.9018(3) 0.7636(4)
C68_8 C 0.0422(2) 0.9578(2) 0.7356(3)
C69_8 C 0.1213(3) 0.8787(3) 0.8398(5)
C70_8 C 0.1473(3) 0.8918(6) 0.8527(3)
C71_8 C 0.1605(5) 0.9221(6) 0.8395(5)
H40_8 H 0.1440 0.9339 0.8299
H41_8 H 0.1762 0.9173 0.8241
C72_8 C 0.1008(5) 0.8992(5) 0.8155(6)
H42_8 H 0.0786 0.8952 0.8178
H43_8 H 0.0661 0.8560 0.8299
H44_8 H 0.1048 0.9214 0.8178
H45_8 H 0.1440 0.8299 0.9339
H46_8 H 0.0786 0.8178 0.8952
H47_8 H 0.1701 0.9339 0.8560
H48_8 H 0.1822 0.8952 0.9214
Zn15_8 Zn -0.0000 1.0000 0.76872(5)
Zn17_7 Zn 0.23128(5) 1.0000 1.0000
Zn18_8 Zn -0.0000 1.0000 0.70059(6)
Zn20_7 Zn 0.29941(6) 1.0000 1.0000
Zn1_9 Zn 1.0000 0.0000 0.23128(5)
Zn2_9 Zn 1.0000 0.0000 0.29941(6)
O1_11 O 1.0000 0.0000 0.1856(3)
O6_11 O 1.0000 0.0000 0.3443(5)
Zn7_9 Zn 1.0000 0.23128(5) -0.0000
Zn8_9 Zn 1.0000 0.29941(6) -0.0000
O37_13 O 1.0000 0.1856(3) -0.0000
O42_13 O 1.0000 0.3443(5) -0.0000
O54_8 O 0.8888(3) 0.1112(3) 0.2097(3)
O55_5 O 0.96755(15) 0.03245(15) 0.2403(2)
C109_8 C 0.8874(3) 0.1126(3) 0.3218(5)
O56_5 O 0.96734(14) 0.03266(14) 0.2909(2)
C110_8 C 0.93413(19) 0.06587(19) 0.2649(3)
C111_8 C 0.9000(3) 0.1000(3) 0.2924(3)
C112_8 C 0.9228(2) 0.0772(2) 0.2923(3)
H73_8 H 0.9305 0.0695 0.3112
C113_8 C 0.8897(2) 0.1103(2) 0.2627(4)
H74_8 H 0.8743 0.1257 0.2615
C114_8 C 0.9237(2) 0.0763(2) 0.2369(3)
H75_8 H 0.9317 0.0683 0.2183
C115_8 C 0.9018(3) 0.0982(3) 0.2364(4)
C116_8 C 0.9578(2) 0.0422(2) 0.2644(3)
C117_8 C 0.8787(3) 0.1213(3) 0.1602(5)
C118_8 C 0.8918(6) 0.1473(3) 0.1473(3)
C119_8 C 0.9221(6) 0.1605(5) 0.1605(5)
H76_8 H 0.9339 0.1440 0.1701
H77_8 H 0.9173 0.1762 0.1759
C120_8 C 0.8992(5) 0.1008(5) 0.1845(6)
H78_8 H 0.8952 0.0786 0.1822
O61_8 O 0.7903(3) 0.1112(3) 0.1112(3)
O62_8 O 0.7597(2) 0.03245(15) 0.03245(15)
C121_8 C 0.6782(5) 0.1126(3) 0.1126(3)
O63_8 O 0.7091(2) 0.03266(14) 0.03266(14)
C122_8 C 0.7351(3) 0.06587(19) 0.06587(19)
C123_8 C 0.7076(3) 0.1000(3) 0.1000(3)
C124_8 C 0.7077(3) 0.0772(2) 0.0772(2)
H79_8 H 0.6888 0.0695 0.0695
C125_8 C 0.7373(4) 0.1103(2) 0.1103(2)
H80_8 H 0.7385 0.1257 0.1257
C126_8 C 0.7631(3) 0.0763(2) 0.0763(2)
H81_8 H 0.7817 0.0683 0.0683
C127_8 C 0.7636(4) 0.0982(3) 0.0982(3)
C128_8 C 0.7356(3) 0.0422(2) 0.0422(2)
C129_8 C 0.8398(5) 0.1213(3) 0.1213(3)
C130_8 C 0.8527(3) 0.1082(6) 0.1473(3)
C131_8 C 0.8395(5) 0.0779(6) 0.1605(5)
H82_8 H 0.8299 0.0661 0.1440
H83_8 H 0.8241 0.0827 0.1762
C132_8 C 0.8155(6) 0.1008(5) 0.1008(5)
H84_8 H 0.8178 0.1048 0.0786
O66_8 O 0.8888(3) 0.2097(3) 0.1112(3)
O67_4 O 0.96755(15) 0.2403(2) 0.03245(15)
C133_8 C 0.8874(3) 0.3218(5) 0.1126(3)
O68_4 O 0.96734(14) 0.2909(2) 0.03266(14)
C134_8 C 0.93413(19) 0.2649(3) 0.06587(19)
C135_8 C 0.9000(3) 0.2924(3) 0.1000(3)
C136_8 C 0.9228(2) 0.2923(3) 0.0772(2)
H85_8 H 0.9305 0.3112 0.0695
C137_8 C 0.8897(2) 0.2627(4) 0.1103(2)
H86_8 H 0.8743 0.2615 0.1257
C138_8 C 0.9237(2) 0.2369(3) 0.0763(2)
H87_8 H 0.9317 0.2183 0.0683
C139_8 C 0.9018(3) 0.2364(4) 0.0982(3)
C140_8 C 0.9578(2) 0.2644(3) 0.0422(2)
C141_8 C 0.8787(3) 0.1602(5) 0.1213(3)
C142_8 C 0.8527(3) 0.1473(3) 0.1082(6)
C143_8 C 0.8395(5) 0.1605(5) 0.0779(6)
H88_8 H 0.8560 0.1701 0.0661
H89_8 H 0.8238 0.1759 0.0827
C144_8 C 0.8992(5) 0.1845(6) 0.1008(5)
H90_8 H 0.9214 0.1822 0.1048
H91_8 H 0.9339 0.1701 0.1440
H92_8 H 0.8952 0.1822 0.0786
H93_8 H 0.8560 0.0661 0.1701
H94_8 H 0.9214 0.1048 0.1822
H95_8 H 0.8299 0.1440 0.0661
H96_8 H 0.8178 0.0786 0.1048
Zn16_4 Zn 0.76872(5) 0.0000 0.0000
Zn19_4 Zn 0.70059(6) 0.0000 0.0000
Zn7_10 Zn 1.0000 0.23128(5) 1.0000
Zn8_10 Zn 1.0000 0.29941(6) 1.0000
O37_14 O 1.0000 0.1856(3) 1.0000
O42_14 O 1.0000 0.3443(5) 1.0000
Zn15_9 Zn 1.0000 0.0000 0.76872(5)
Zn16_5 Zn 0.76872(5) 0.0000 1.0000
Zn18_9 Zn 1.0000 0.0000 0.70059(6)
Zn19_5 Zn 0.70059(6) 0.0000 1.0000
O84_5 O 0.96755(15) 0.2403(2) 0.96755(15)
O89_5 O 0.96734(14) 0.2909(2) 0.96734(14)
Zn1_10 Zn 1.0000 1.0000 0.23128(5)
Zn2_10 Zn 1.0000 1.0000 0.29941(6)
O1_12 O 1.0000 1.0000 0.1856(3)
O6_12 O 1.0000 1.0000 0.3443(5)
Zn5_9 Zn 1.0000 0.76872(5) 0.0000
Zn6_9 Zn 1.0000 0.70059(6) 0.0000
O20_13 O 1.0000 0.8144(3) 0.0000
O25_13 O 1.0000 0.6557(5) 0.0000
Zn16_6 Zn 0.76872(5) 1.0000 0.0000
Zn19_6 Zn 0.70059(6) 1.0000 0.0000
O83_5 O 0.96755(15) 0.7597(2) 0.03245(15)
O85_4 O 0.96755(15) 0.96755(15) 0.2403(2)
O88_5 O 0.96734(14) 0.7091(2) 0.03266(14)
O90_4 O 0.96734(14) 0.96734(14) 0.2909(2)
Zn5_10 Zn 1.0000 0.76872(5) 1.0000
Zn6_10 Zn 1.0000 0.70059(6) 1.0000
O20_14 O 1.0000 0.8144(3) 1.0000
O25_14 O 1.0000 0.6557(5) 1.0000
Zn15_10 Zn 1.0000 1.0000 0.76872(5)
Zn16_7 Zn 0.76872(5) 1.0000 1.0000
Zn18_10 Zn 1.0000 1.0000 0.70059(6)
Zn19_7 Zn 0.70059(6) 1.0000 1.0000
O86_5 O 0.96755(15) 0.7597(2) 0.96755(15)
O91_5 O 0.96734(14) 0.7091(2) 0.96734(14)
O1_13 O 0.0000 0.0000 0.8144(3)
O6_13 O 0.0000 0.0000 0.6557(5)
O54_9 O 0.1112(3) 0.1112(3) 0.7903(3)
O55_6 O 0.03245(15) 0.03245(15) 0.7597(2)
C109_9 C 0.1126(3) 0.1126(3) 0.6782(5)
O56_6 O 0.03266(14) 0.03266(14) 0.7091(2)
C110_9 C 0.06587(19) 0.06587(19) 0.7351(3)
C111_9 C 0.1000(3) 0.1000(3) 0.7076(3)
C112_9 C 0.0772(2) 0.0772(2) 0.7077(3)
H73_9 H 0.0695 0.0695 0.6888
C113_9 C 0.1103(2) 0.1103(2) 0.7373(4)
H74_9 H 0.1257 0.1257 0.7385
C114_9 C 0.0763(2) 0.0763(2) 0.7631(3)
H75_9 H 0.0683 0.0683 0.7817
C115_9 C 0.0982(3) 0.0982(3) 0.7636(4)
C116_9 C 0.0422(2) 0.0422(2) 0.7356(3)
C117_9 C 0.1213(3) 0.1213(3) 0.8398(5)
C118_9 C 0.1082(6) 0.1473(3) 0.8527(3)
C119_9 C 0.0779(6) 0.1605(5) 0.8395(5)
H76_9 H 0.0661 0.1440 0.8299
H77_9 H 0.0827 0.1762 0.8241
C120_9 C 0.1008(5) 0.1008(5) 0.8155(6)
H78_9 H 0.1048 0.0786 0.8178
O61_9 O 0.2097(3) 0.1112(3) 0.8888(3)
O62_9 O 0.2403(2) 0.03245(15) 0.96755(15)
C121_9 C 0.3218(5) 0.1126(3) 0.8874(3)
O63_9 O 0.2909(2) 0.03266(14) 0.96734(14)
C122_9 C 0.2649(3) 0.06587(19) 0.93413(19)
C123_9 C 0.2924(3) 0.1000(3) 0.9000(3)
C124_9 C 0.2923(3) 0.0772(2) 0.9228(2)
H79_9 H 0.3112 0.0695 0.9305
C125_9 C 0.2627(4) 0.1103(2) 0.8897(2)
H80_9 H 0.2615 0.1257 0.8743
C126_9 C 0.2369(3) 0.0763(2) 0.9237(2)
H81_9 H 0.2183 0.0683 0.9317
C127_9 C 0.2364(4) 0.0982(3) 0.9018(3)
C128_9 C 0.2644(3) 0.0422(2) 0.9578(2)
C129_9 C 0.1602(5) 0.1213(3) 0.8787(3)
C130_9 C 0.1473(3) 0.1082(6) 0.8527(3)
C131_9 C 0.1605(5) 0.0779(6) 0.8395(5)
H82_9 H 0.1701 0.0661 0.8560
H83_9 H 0.1759 0.0827 0.8238
C132_9 C 0.1845(6) 0.1008(5) 0.8992(5)
H84_9 H 0.1822 0.1048 0.9214
O66_9 O 0.1112(3) 0.2097(3) 0.8888(3)
C133_9 C 0.1126(3) 0.3218(5) 0.8874(3)
C134_9 C 0.06587(19) 0.2649(3) 0.93413(19)
C135_9 C 0.1000(3) 0.2924(3) 0.9000(3)
C136_9 C 0.0772(2) 0.2923(3) 0.9228(2)
H85_9 H 0.0695 0.3112 0.9305
C137_9 C 0.1103(2) 0.2627(4) 0.8897(2)
H86_9 H 0.1257 0.2615 0.8743
C138_9 C 0.0763(2) 0.2369(3) 0.9237(2)
H87_9 H 0.0683 0.2183 0.9317
C139_9 C 0.0982(3) 0.2364(4) 0.9018(3)
C140_9 C 0.0422(2) 0.2644(3) 0.9578(2)
C141_9 C 0.1213(3) 0.1602(5) 0.8787(3)
C142_9 C 0.1473(3) 0.1473(3) 0.8918(6)
C143_9 C 0.1605(5) 0.1605(5) 0.9221(6)
H88_9 H 0.1440 0.1701 0.9339
H89_9 H 0.1762 0.1759 0.9173
C144_9 C 0.1008(5) 0.1845(6) 0.8992(5)
H90_9 H 0.0786 0.1822 0.8952
H91_9 H 0.0661 0.1701 0.8560
H92_9 H 0.1048 0.1822 0.9214
H93_9 H 0.1440 0.0661 0.8299
H94_9 H 0.0786 0.1048 0.8178
H95_9 H 0.1701 0.1440 0.9339
H96_9 H 0.1822 0.0786 0.8952
O1_14 O -0.0000 1.0000 0.8144(3)
O6_14 O 0.0000 1.0000 0.6557(5)
O1_15 O 1.0000 0.0000 0.8144(3)
O6_15 O 1.0000 0.0000 0.6557(5)
O38_8 O 0.8888(3) 0.2097(3) 0.8888(3)
C73_8 C 0.8874(3) 0.3218(5) 0.8874(3)
C74_8 C 0.93413(19) 0.2649(3) 0.93413(19)
C75_8 C 0.9000(3) 0.2924(3) 0.9000(3)
C76_8 C 0.9228(2) 0.2923(3) 0.9228(2)
H49_8 H 0.9305 0.3112 0.9305
C77_8 C 0.8897(2) 0.2627(4) 0.8897(2)
H50_8 H 0.8743 0.2615 0.8743
C78_8 C 0.9237(2) 0.2369(3) 0.9237(2)
H51_8 H 0.9317 0.2183 0.9317
C79_8 C 0.9018(3) 0.2364(4) 0.9018(3)
C80_8 C 0.9578(2) 0.2644(3) 0.9578(2)
C81_8 C 0.8787(3) 0.1602(5) 0.8787(3)
C82_8 C 0.8918(6) 0.1473(3) 0.8527(3)
C83_8 C 0.9221(6) 0.1605(5) 0.8395(5)
H52_8 H 0.9339 0.1701 0.8560
H53_8 H 0.9173 0.1759 0.8238
C84_8 C 0.8992(5) 0.1845(6) 0.8992(5)
H54_8 H 0.8952 0.1822 0.9214
O44_8 O 0.7903(3) 0.1112(3) 0.8888(3)
O45_8 O 0.7597(2) 0.03245(15) 0.96755(15)
C85_8 C 0.6782(5) 0.1126(3) 0.8874(3)
O46_8 O 0.7091(2) 0.03266(14) 0.96734(14)
C86_8 C 0.7351(3) 0.06587(19) 0.93413(19)
C87_8 C 0.7076(3) 0.1000(3) 0.9000(3)
C88_8 C 0.7077(3) 0.0772(2) 0.9228(2)
H55_8 H 0.6888 0.0695 0.9305
C89_8 C 0.7373(4) 0.1103(2) 0.8897(2)
H56_8 H 0.7385 0.1257 0.8743
C90_8 C 0.7631(3) 0.0763(2) 0.9237(2)
H57_8 H 0.7817 0.0683 0.9317
C91_8 C 0.7636(4) 0.0982(3) 0.9018(3)
C92_8 C 0.7356(3) 0.0422(2) 0.9578(2)
C93_8 C 0.8398(5) 0.1213(3) 0.8787(3)
C94_8 C 0.8527(3) 0.1473(3) 0.8918(6)
C95_8 C 0.8395(5) 0.1605(5) 0.9221(6)
H58_8 H 0.8299 0.1440 0.9339
H59_8 H 0.8241 0.1762 0.9173
C96_8 C 0.8155(6) 0.1008(5) 0.8992(5)
H60_8 H 0.8178 0.0786 0.8952
O49_8 O 0.8888(3) 0.1112(3) 0.7903(3)
O50_6 O 0.96755(15) 0.03245(15) 0.7597(2)
C97_8 C 0.8874(3) 0.1126(3) 0.6782(5)
O51_6 O 0.96734(14) 0.03266(14) 0.7091(2)
C98_8 C 0.93413(19) 0.06587(19) 0.7351(3)
C99_8 C 0.9000(3) 0.1000(3) 0.7076(3)
C100_8 C 0.9228(2) 0.0772(2) 0.7077(3)
H61_8 H 0.9305 0.0695 0.6888
C101_8 C 0.8897(2) 0.1103(2) 0.7373(4)
H62_8 H 0.8743 0.1257 0.7385
C102_8 C 0.9237(2) 0.0763(2) 0.7631(3)
H63_8 H 0.9317 0.0683 0.7817
C103_8 C 0.9018(3) 0.0982(3) 0.7636(4)
C104_8 C 0.9578(2) 0.0422(2) 0.7356(3)
C105_8 C 0.8787(3) 0.1213(3) 0.8398(5)
C106_8 C 0.8527(3) 0.1082(6) 0.8527(3)
C107_8 C 0.8395(5) 0.0779(6) 0.8395(5)
H64_8 H 0.8560 0.0661 0.8299
H65_8 H 0.8238 0.0827 0.8241
C108_8 C 0.8992(5) 0.1008(5) 0.8155(6)
H66_8 H 0.9214 0.1048 0.8178
H67_8 H 0.9339 0.1440 0.8299
H68_8 H 0.8952 0.0786 0.8178
H69_8 H 0.8560 0.1701 0.9339
H70_8 H 0.9214 0.1822 0.8952
H71_8 H 0.8299 0.0661 0.8560
H72_8 H 0.8178 0.1048 0.9214
O21_9 O 0.8888(3) 0.7903(3) 0.1112(3)
C37_9 C 0.8874(3) 0.6782(5) 0.1126(3)
C38_9 C 0.93413(19) 0.7351(3) 0.06587(19)
C39_9 C 0.9000(3) 0.7076(3) 0.1000(3)
C40_9 C 0.9228(2) 0.7077(3) 0.0772(2)
H25_9 H 0.9305 0.6888 0.0695
C41_9 C 0.8897(2) 0.7373(4) 0.1103(2)
H26_9 H 0.8743 0.7385 0.1257
C42_9 C 0.9237(2) 0.7631(3) 0.0763(2)
H27_9 H 0.9317 0.7817 0.0683
C43_9 C 0.9018(3) 0.7636(4) 0.0982(3)
C44_9 C 0.9578(2) 0.7356(3) 0.0422(2)
C45_9 C 0.8787(3) 0.8398(5) 0.1213(3)
C46_9 C 0.8918(6) 0.8527(3) 0.1473(3)
C47_9 C 0.9221(6) 0.8395(5) 0.1605(5)
H28_9 H 0.9339 0.8299 0.1440
H29_9 H 0.9173 0.8241 0.1762
C48_9 C 0.8992(5) 0.8155(6) 0.1008(5)
H30_9 H 0.8952 0.8178 0.0786
O27_9 O 0.7903(3) 0.8888(3) 0.1112(3)
O28_9 O 0.7597(2) 0.96755(15) 0.03245(15)
C49_9 C 0.6782(5) 0.8874(3) 0.1126(3)
O29_9 O 0.7091(2) 0.96734(14) 0.03266(14)
C50_9 C 0.7351(3) 0.93413(19) 0.06587(19)
C51_9 C 0.7076(3) 0.9000(3) 0.1000(3)
C52_9 C 0.7077(3) 0.9228(2) 0.0772(2)
H31_9 H 0.6888 0.9305 0.0695
C53_9 C 0.7373(4) 0.8897(2) 0.1103(2)
H32_9 H 0.7385 0.8743 0.1257
C54_9 C 0.7631(3) 0.9237(2) 0.0763(2)
H33_9 H 0.7817 0.9317 0.0683
C55_9 C 0.7636(4) 0.9018(3) 0.0982(3)
C56_9 C 0.7356(3) 0.9578(2) 0.0422(2)
C57_9 C 0.8398(5) 0.8787(3) 0.1213(3)
C58_9 C 0.8527(3) 0.8527(3) 0.1082(6)
C59_9 C 0.8395(5) 0.8395(5) 0.0779(6)
H34_9 H 0.8299 0.8560 0.0661
H35_9 H 0.8241 0.8238 0.0827
C60_9 C 0.8155(6) 0.8992(5) 0.1008(5)
H36_9 H 0.8178 0.9214 0.1048
O32_9 O 0.8888(3) 0.8888(3) 0.2097(3)
C61_9 C 0.8874(3) 0.8874(3) 0.3218(5)
C62_9 C 0.93413(19) 0.93413(19) 0.2649(3)
C63_9 C 0.9000(3) 0.9000(3) 0.2924(3)
C64_9 C 0.9228(2) 0.9228(2) 0.2923(3)
H37_9 H 0.9305 0.9305 0.3112
C65_9 C 0.8897(2) 0.8897(2) 0.2627(4)
H38_9 H 0.8743 0.8743 0.2615
C66_9 C 0.9237(2) 0.9237(2) 0.2369(3)
H39_9 H 0.9317 0.9317 0.2183
C67_9 C 0.9018(3) 0.9018(3) 0.2364(4)
C68_9 C 0.9578(2) 0.9578(2) 0.2644(3)
C69_9 C 0.8787(3) 0.8787(3) 0.1602(5)
C70_9 C 0.8527(3) 0.8918(6) 0.1473(3)
C71_9 C 0.8395(5) 0.9221(6) 0.1605(5)
H40_9 H 0.8560 0.9339 0.1701
H41_9 H 0.8238 0.9173 0.1759
C72_9 C 0.8992(5) 0.8992(5) 0.1845(6)
H42_9 H 0.9214 0.8952 0.1822
H43_9 H 0.9339 0.8560 0.1701
H44_9 H 0.8952 0.9214 0.1822
H45_9 H 0.8560 0.8299 0.0661
H46_9 H 0.9214 0.8178 0.1048
H47_9 H 0.8299 0.9339 0.1440
H48_9 H 0.8178 0.8952 0.0786
O1_16 O 1.0000 1.0000 0.8144(3)
O2_6 O 0.8888(3) 0.8888(3) 0.7903(3)
O3_6 O 0.96755(15) 0.96755(15) 0.7597(2)
C1_6 C 0.8874(3) 0.8874(3) 0.6782(5)
O4_6 O 0.96734(14) 0.96734(14) 0.7091(2)
C2_6 C 0.93413(19) 0.93413(19) 0.7351(3)
C3_6 C 0.9000(3) 0.9000(3) 0.7076(3)
O6_16 O 1.0000 1.0000 0.6557(5)
C4_6 C 0.9228(2) 0.9228(2) 0.7077(3)
H1_6 H 0.9305 0.9305 0.6888
C5_6 C 0.8897(2) 0.8897(2) 0.7373(4)
H2_6 H 0.8743 0.8743 0.7385
C6_6 C 0.9237(2) 0.9237(2) 0.7631(3)
H3_6 H 0.9317 0.9317 0.7817
C7_6 C 0.9018(3) 0.9018(3) 0.7636(4)
C8_6 C 0.9578(2) 0.9578(2) 0.7356(3)
C9_6 C 0.8787(3) 0.8787(3) 0.8398(5)
C10_6 C 0.8918(6) 0.8527(3) 0.8527(3)
C11_6 C 0.9221(6) 0.8395(5) 0.8395(5)
H4_6 H 0.9339 0.8560 0.8299
H5_6 H 0.9173 0.8238 0.8241
C12_6 C 0.8992(5) 0.8992(5) 0.8155(6)
H6_6 H 0.8952 0.9214 0.8178
O10_6 O 0.7903(3) 0.8888(3) 0.8888(3)
O11_6 O 0.7597(2) 0.96755(15) 0.96755(15)
C13_6 C 0.6782(5) 0.8874(3) 0.8874(3)
O12_6 O 0.7091(2) 0.96734(14) 0.96734(14)
C14_6 C 0.7351(3) 0.93413(19) 0.93413(19)
C15_6 C 0.7076(3) 0.9000(3) 0.9000(3)
C16_6 C 0.7077(3) 0.9228(2) 0.9228(2)
H7_6 H 0.6888 0.9305 0.9305
C17_6 C 0.7373(4) 0.8897(2) 0.8897(2)
H8_6 H 0.7385 0.8743 0.8743
C18_6 C 0.7631(3) 0.9237(2) 0.9237(2)
H9_6 H 0.7817 0.9317 0.9317
C19_6 C 0.7636(4) 0.9018(3) 0.9018(3)
C20_6 C 0.7356(3) 0.9578(2) 0.9578(2)
C21_6 C 0.8398(5) 0.8787(3) 0.8787(3)
C22_6 C 0.8527(3) 0.8918(6) 0.8527(3)
C23_6 C 0.8395(5) 0.9221(6) 0.8395(5)
H10_6 H 0.8299 0.9339 0.8560
H11_6 H 0.8241 0.9173 0.8238
C24_6 C 0.8155(6) 0.8992(5) 0.8992(5)
H12_6 H 0.8178 0.8952 0.9214
O15_6 O 0.8888(3) 0.7903(3) 0.8888(3)
C25_6 C 0.8874(3) 0.6782(5) 0.8874(3)
C26_6 C 0.93413(19) 0.7351(3) 0.93413(19)
C27_6 C 0.9000(3) 0.7076(3) 0.9000(3)
C28_6 C 0.9228(2) 0.7077(3) 0.9228(2)
H13_6 H 0.9305 0.6888 0.9305
C29_6 C 0.8897(2) 0.7373(4) 0.8897(2)
H14_6 H 0.8743 0.7385 0.8743
C30_6 C 0.9237(2) 0.7631(3) 0.9237(2)
H15_6 H 0.9317 0.7817 0.9317
C31_6 C 0.9018(3) 0.7636(4) 0.9018(3)
C32_6 C 0.9578(2) 0.7356(3) 0.9578(2)
C33_6 C 0.8787(3) 0.8398(5) 0.8787(3)
C34_6 C 0.8527(3) 0.8527(3) 0.8918(6)
C35_6 C 0.8395(5) 0.8395(5) 0.9221(6)
H16_6 H 0.8560 0.8299 0.9339
H17_6 H 0.8238 0.8241 0.9173
C36_6 C 0.8992(5) 0.8155(6) 0.8992(5)
H18_6 H 0.9214 0.8178 0.8952
H19_6 H 0.9339 0.8299 0.8560
H20_6 H 0.8952 0.8178 0.9214
H21_6 H 0.8560 0.9339 0.8299
H22_6 H 0.9214 0.8952 0.8178
H23_6 H 0.8299 0.8560 0.9339
H24_6 H 0.8178 0.9214 0.8952
O1_17 O 0.8144(3) 0.5000 0.5000
O6_17 O 0.6557(5) 0.5000 0.5000
O20_15 O 0.1856(3) 0.5000 0.5000
O25_15 O 0.3443(5) 0.5000 0.5000
O1_18 O 0.8144(3) 0.0000 0.0000
O6_18 O 0.6557(5) 0.0000 0.0000
O1_19 O 0.8144(3) 0.0000 1.0000
O6_19 O 0.6557(5) 0.0000 1.0000
O1_20 O 0.8144(3) 1.0000 0.0000
O6_20 O 0.6557(5) 1.0000 0.0000
O1_21 O 0.8144(3) 1.0000 1.0000
O6_21 O 0.6557(5) 1.0000 1.0000
O37_15 O 0.1856(3) 0.0000 0.0000
O42_15 O 0.3443(5) 0.0000 0.0000
O37_16 O 0.1856(3) 0.0000 1.0000
O42_16 O 0.3443(5) 0.0000 1.0000
O37_17 O 0.1856(3) 1.0000 0.0000
O42_17 O 0.3443(5) 1.0000 0.0000
O37_18 O 0.1856(3) 1.0000 1.0000
O42_18 O 0.3443(5) 1.0000 1.0000
loop_
_geom_bond_atom_site_label_1
_geom_bond_atom_site_label_2
_geom_bond_site_symmetry_1
_geom_bond_site_symmetry_2
Zn1 O1 1_555 1_555
Zn2 O4 1_555 1_555
Zn3 O7 1_555 1_555
Zn4 O5 1_555 1_555
O2 C7 1_555 1_555
O3 Zn1 1_555 1_555
C1 O5 1_555 1_555
O4 C8 1_555 1_555
C2 C4 1_555 1_555
C3 C1 1_555 1_555
O6 Zn2 1_555 1_555
C4 C3 1_555 1_555
H1 C4 1_555 1_555
C5 C3 1_555 1_555
H2 C5 1_555 1_555
C6 C2 1_555 1_555
H3 C6 1_555 1_555
O7 C1 1_555 1_555
C7 C5 1_555 1_555
O8 Zn4 1_555 1_555
C8 O3 1_555 1_555
O9 Zn3 1_555 1_555
C9 C10 1_555 1_555
C10 C11 1_555 1_555
C11 H4 1_555 1_555
H5 C11 1_555 1_555
C12 O2 1_555 1_555
H6 C12 1_555 1_555
O10 C19 1_555 1_555
O11 C20 1_555 1_555
C13 O13 1_555 1_555
O12 C20 1_555 1_555
O13 Zn14 1_555 1_555
C14 C16 1_555 1_555
C15 C13 1_555 1_555
C16 C15 1_555 1_555
H7 C16 1_555 1_555
C17 C15 1_555 1_555
H8 C17 1_555 1_555
C18 C14 1_555 1_555
H9 C18 1_555 1_555
O14 C13 1_555 1_555
C19 C17 1_555 1_555
C20 C14 1_555 1_555
C21 C22 1_555 1_555
C22 C9 1_555 1_555
C23 C22 1_555 1_555
H10 C23 1_555 1_555
H11 C23 1_555 1_555
C24 O10 1_555 1_555
H12 C24 1_555 1_555
O15 C31 1_555 1_555
O16 C32 1_555 1_555
C25 O18 1_555 1_555
O17 C32 1_555 1_555
O18 Zn32 1_555 1_555
C26 C28 1_555 1_555
C27 C25 1_555 1_555
C28 C27 1_555 1_555
H13 C28 1_555 1_555
C29 C27 1_555 1_555
H14 C29 1_555 1_555
C30 C26 1_555 1_555
H15 C30 1_555 1_555
O19 C25 1_555 1_555
C31 C29 1_555 1_555
C32 C26 1_555 1_555
C33 C10 1_555 1_555
C34 C21 1_555 1_555
C35 C34 1_555 1_555
H16 C35 1_555 1_555
H17 C35 1_555 1_555
C36 O15 1_555 1_555
H18 C36 1_555 1_555
H19 C11 1_555 1_555
H20 C36 1_555 1_555
H21 C23 1_555 1_555
H22 C12 1_555 1_555
H23 C35 1_555 1_555
H24 C24 1_555 1_555
Zn5 O16 1_555 1_555
Zn6 O17 1_555 1_555
O20 Zn5 1_555 1_555
O21 C43 1_555 1_555
O22 Zn5 1_555 1_555
C37 O24 1_555 1_555
O23 Zn6 1_555 1_555
O24 Zn29 1_555 1_555
C38 C40 1_555 1_555
C39 C37 1_555 1_555
O25 Zn6 1_555 1_555
C40 C39 1_555 1_555
H25 C40 1_555 1_555
C41 C39 1_555 1_555
H26 C41 1_555 1_555
C42 C38 1_555 1_555
H27 C42 1_555 1_555
O26 C37 1_555 1_555
C43 C41 1_555 1_555
C44 O22 1_555 1_555
C45 C46 1_555 1_555
C46 C47 1_555 1_555
C47 H28 1_555 1_555
H29 C47 1_555 1_555
C48 O21 1_555 1_555
H30 C48 1_555 1_555
O27 C55 1_555 1_555
O28 C56 1_555 1_555
C49 O30 1_555 1_555
O29 C56 1_555 1_555
O30 Zn36 1_555 1_555
C50 C52 1_555 1_555
C51 C49 1_555 1_555
C52 C51 1_555 1_555
H31 C52 1_555 1_555
C53 C51 1_555 1_555
H32 C53 1_555 1_555
C54 C50 1_555 1_555
H33 C54 1_555 1_555
O31 C49 1_555 1_555
C55 C53 1_555 1_555
C56 C50 1_555 1_555
C57 C58 1_555 1_555
C58 C45 1_555 1_555
C59 C58 1_555 1_555
H34 C59 1_555 1_555
H35 C59 1_555 1_555
C60 O27 1_555 1_555
H36 C60 1_555 1_555
O32 C67 1_555 1_555
O33 C68 1_555 1_555
C61 O35 1_555 1_555
O34 C68 1_555 1_555
O35 Zn31 1_555 1_555
C62 C64 1_555 1_555
C63 C61 1_555 1_555
C64 C63 1_555 1_555
H37 C64 1_555 1_555
C65 C63 1_555 1_555
H38 C65 1_555 1_555
C66 C62 1_555 1_555
H39 C66 1_555 1_555
O36 C61 1_555 1_555
C67 C65 1_555 1_555
C68 C62 1_555 1_555
C69 C46 1_555 1_555
C70 C57 1_555 1_555
C71 C70 1_555 1_555
H40 C71 1_555 1_555
H41 C71 1_555 1_555
C72 O32 1_555 1_555
H42 C72 1_555 1_555
H43 C47 1_555 1_555
H44 C72 1_555 1_555
H45 C59 1_555 1_555
H46 C48 1_555 1_555
H47 C71 1_555 1_555
H48 C60 1_555 1_555
Zn7 O37 1_555 1_555
Zn8 O40 1_555 1_555
O38 C79 1_555 1_555
O39 Zn7 1_555 1_555
C73 O41 1_555 1_555
O40 C80 1_555 1_555
O41 Zn30 1_555 1_555
C74 C76 1_555 1_555
C75 C73 1_555 1_555
O42 Zn8 1_555 1_555
C76 C75 1_555 1_555
H49 C76 1_555 1_555
C77 C75 1_555 1_555
H50 C77 1_555 1_555
C78 C74 1_555 1_555
H51 C78 1_555 1_555
O43 C73 1_555 1_555
C79 C77 1_555 1_555
C80 O39 1_555 1_555
C81 C82 1_555 1_555
C82 C83 1_555 1_555
C83 H52 1_555 1_555
H53 C83 1_555 1_555
C84 O38 1_555 1_555
H54 C84 1_555 1_555
O44 C91 1_555 1_555
O45 C92 1_555 1_555
C85 O47 1_555 1_555
O46 C92 1_555 1_555
O47 Zn35 1_555 1_555
C86 C88 1_555 1_555
C87 C85 1_555 1_555
C88 C87 1_555 1_555
H55 C88 1_555 1_555
C89 C87 1_555 1_555
H56 C89 1_555 1_555
C90 C86 1_555 1_555
H57 C90 1_555 1_555
O48 C85 1_555 1_555
C91 C89 1_555 1_555
C92 C86 1_555 1_555
C93 C94 1_555 1_555
C94 C81 1_555 1_555
C95 C94 1_555 1_555
H58 C95 1_555 1_555
H59 C95 1_555 1_555
C96 O44 1_555 1_555
H60 C96 1_555 1_555
O49 C103 1_555 1_555
O50 Zn1 1_555 1_555
C97 O52 1_555 1_555
O51 Zn2 1_555 1_555
O52 Zn12 1_555 1_555
C98 C100 1_555 1_555
C99 C97 1_555 1_555
C100 C99 1_555 1_555
H61 C100 1_555 1_555
C101 C99 1_555 1_555
H62 C101 1_555 1_555
C102 C98 1_555 1_555
H63 C102 1_555 1_555
O53 C97 1_555 1_555
C103 C101 1_555 1_555
C104 O50 1_555 1_555
C105 C82 1_555 1_555
C106 C93 1_555 1_555
C107 C106 1_555 1_555
H64 C107 1_555 1_555
H65 C107 1_555 1_555
C108 O49 1_555 1_555
H66 C108 1_555 1_555
H67 C83 1_555 1_555
H68 C108 1_555 1_555
H69 C95 1_555 1_555
H70 C84 1_555 1_555
H71 C107 1_555 1_555
H72 C96 1_555 1_555
Zn11 O53 1_555 1_555
Zn12 O71 1_555 1_555
O72 Zn11 1_555 1_555
Zn13 O14 1_555 1_555
O73 Zn13 1_555 1_555
Zn14 O74 1_555 1_555
O75 Zn3 1_555 1_555
O76 Zn3 1_555 1_555
O79 Zn11 1_555 1_555
O80 Zn11 1_555 1_555
O81 Zn13 1_555 1_555
O82 Zn13 1_555 1_555
Zn15 O33 1_555 1_555
Zn17 O11 1_555 1_555
Zn18 O34 1_555 1_555
Zn20 O12 1_555 1_555
Zn21 O26 1_555 1_555
Zn22 O43 1_555 1_555
Zn23 O36 1_555 1_555
Zn24 O19 1_555 1_555
Zn27 O48 1_555 1_555
Zn28 O31 1_555 1_555
O87 Zn7 1_555 1_555
O92 Zn8 1_555 1_555
O93 Zn12 1_555 1_555
O95 Zn4 1_555 1_555
O96 Zn14 1_555 1_555
O97 Zn12 1_555 1_555
O98 Zn4 1_555 1_555
O100 Zn14 1_555 1_555
O101 Zn11 1_555 1_555
O103 Zn3 1_555 1_555
O104 Zn13 1_555 1_555
O105 Zn11 1_555 1_555
O106 Zn3 1_555 1_555
O108 Zn13 1_555 1_555
C2 C8 1_555 1_555
C6 C7 1_555 1_555
C9 C12 1_555 1_555
C18 C19 1_555 1_555
C21 C24 1_555 1_555
C30 C31 1_555 1_555
C33 C34 1_555 1_555
C33 C36 1_555 1_555
O23 C44 1_555 1_555
C38 C44 1_555 1_555
C42 C43 1_555 1_555
C45 C48 1_555 1_555
O28 Zn17 1_555 1_555
O29 Zn20 1_555 1_555
C54 C55 1_555 1_555
C57 C60 1_555 1_555
C66 C67 1_555 1_555
C69 C70 1_555 1_555
C69 C72 1_555 1_555
C74 C80 1_555 1_555
C78 C79 1_555 1_555
C81 C84 1_555 1_555
O45 Zn17 1_555 1_555
O46 Zn20 1_555 1_555
C90 C91 1_555 1_555
C93 C96 1_555 1_555
O51 C104 1_555 1_555
C98 C104 1_555 1_555
C102 C103 1_555 1_555
C105 C106 1_555 1_555
C105 C108 1_555 1_555
Zn1_2 O1_2 1_555 1_555
O6_2 Zn2_2 1_555 1_555
O20_2 Zn5_2 1_555 1_555
O25_2 Zn6_2 1_555 1_555
Zn7_2 O37_2 1_555 1_555
O42_2 Zn8_2 1_555 1_555
Zn9 O58 1_555 1_555
Zn10 O57 1_555 1_555
O54 C115 1_555 1_555
O55 Zn1_2 1_555 1_555
C109 O57 1_555 1_555
O56 Zn2_2 1_555 1_555
C110 C112 1_555 1_555
C111 C109 1_555 1_555
C112 C111 1_555 1_555
H73 C112 1_555 1_555
C113 C111 1_555 1_555
H74 C113 1_555 1_555
C114 C110 1_555 1_555
H75 C114 1_555 1_555
O58 C109 1_555 1_555
C115 C113 1_555 1_555
O59 Zn10 1_555 1_555
C116 O55 1_555 1_555
O60 Zn9 1_555 1_555
C117 C118 1_555 1_555
C118 C119 1_555 1_555
C119 H76 1_555 1_555
H77 C119 1_555 1_555
C120 O54 1_555 1_555
H78 C120 1_555 1_555
O61 C127 1_555 1_555
O62 C128 1_555 1_555
C121 O64 1_555 1_555
O63 C128 1_555 1_555
O64 Zn34 1_555 1_555
C122 C124 1_555 1_555
C123 C121 1_555 1_555
C124 C123 1_555 1_555
H79 C124 1_555 1_555
C125 C123 1_555 1_555
H80 C125 1_555 1_555
C126 C122 1_555 1_555
H81 C126 1_555 1_555
O65 C121 1_555 1_555
C127 C125 1_555 1_555
C128 C122 1_555 1_555
C129 C130 1_555 1_555
C130 C117 1_555 1_555
C131 C130 1_555 1_555
H82 C131 1_555 1_555
H83 C131 1_555 1_555
C132 O61 1_555 1_555
H84 C132 1_555 1_555
O66 C139 1_555 1_555
O67 Zn7_2 1_555 1_555
C133 O69 1_555 1_555
O68 Zn8_2 1_555 1_555
O69 Zn33 1_555 1_555
C134 C136 1_555 1_555
C135 C133 1_555 1_555
C136 C135 1_555 1_555
H85 C136 1_555 1_555
C137 C135 1_555 1_555
H86 C137 1_555 1_555
C138 C134 1_555 1_555
H87 C138 1_555 1_555
O70 C133 1_555 1_555
C139 C137 1_555 1_555
C140 O67 1_555 1_555
C141 C118 1_555 1_555
C142 C129 1_555 1_555
C143 C142 1_555 1_555
H88 C143 1_555 1_555
H89 C143 1_555 1_555
C144 O66 1_555 1_555
H90 C144 1_555 1_555
H91 C119 1_555 1_555
H92 C144 1_555 1_555
H93 C131 1_555 1_555
H94 C120 1_555 1_555
H95 C143 1_555 1_555
H96 C132 1_555 1_555
O77 Zn9 1_555 1_555
O78 Zn9 1_555 1_555
Zn16 O62 1_555 1_555
Zn19 O63 1_555 1_555
Zn25 O70 1_555 1_555
Zn26 O65 1_555 1_555
O83 Zn5_2 1_555 1_555
O84 Zn7_2 1_555 1_555
O85 Zn1_2 1_555 1_555
O86 Zn5_2 1_555 1_555
O88 Zn6_2 1_555 1_555
O89 Zn8_2 1_555 1_555
O90 Zn2_2 1_555 1_555
O91 Zn6_2 1_555 1_555
O94 Zn10 1_555 1_555
O99 Zn10 1_555 1_555
O102 Zn9 1_555 1_555
O107 Zn9 1_555 1_555
O56 C116 1_555 1_555
C110 C116 1_555 1_555
C114 C115 1_555 1_555
C117 C120 1_555 1_555
C126 C127 1_555 1_555
C129 C132 1_555 1_555
O68 C140 1_555 1_555
C134 C140 1_555 1_555
C138 C139 1_555 1_555
C141 C142 1_555 1_555
C141 C144 1_555 1_555
O8_2 Zn29 1_555 1_555
O9_2 Zn21 1_555 1_555
O20_3 Zn15 1_555 1_555
O21_2 C43_2 1_555 1_555
O22_2 Zn15 1_555 1_555
C37_2 O24_2 1_555 1_555
O23_2 Zn18 1_555 1_555
O24_2 Zn29_2 1_555 1_555
C38_2 C40_2 1_555 1_555
C39_2 C37_2 1_555 1_555
O25_3 Zn18 1_555 1_555
C40_2 C39_2 1_555 1_555
H25_2 C40_2 1_555 1_555
C41_2 C39_2 1_555 1_555
H26_2 C41_2 1_555 1_555
C42_2 C38_2 1_555 1_555
H27_2 C42_2 1_555 1_555
O26_2 C37_2 1_555 1_555
C43_2 C41_2 1_555 1_555
C44_2 O22_2 1_555 1_555
C45_2 C46_2 1_555 1_555
C46_2 C47_2 1_555 1_555
C47_2 H28_2 1_555 1_555
H29_2 C47_2 1_555 1_555
C48_2 O21_2 1_555 1_555
H30_2 C48_2 1_555 1_555
O27_2 C55_2 1_555 1_555
O28_2 C56_2 1_555 1_555
C49_2 O30_2 1_555 1_555
O29_2 C56_2 1_555 1_555
O30_2 Zn36_2 1_555 1_555
C50_2 C52_2 1_555 1_555
C51_2 C49_2 1_555 1_555
C52_2 C51_2 1_555 1_555
H31_2 C52_2 1_555 1_555
C53_2 C51_2 1_555 1_555
H32_2 C53_2 1_555 1_555
C54_2 C50_2 1_555 1_555
H33_2 C54_2 1_555 1_555
O31_2 C49_2 1_555 1_555
C55_2 C53_2 1_555 1_555
C56_2 C50_2 1_555 1_555
C57_2 C58_2 1_555 1_555
C58_2 C45_2 1_555 1_555
C59_2 C58_2 1_555 1_555
H34_2 C59_2 1_555 1_555
H35_2 C59_2 1_555 1_555
C60_2 O27_2 1_555 1_555
H36_2 C60_2 1_555 1_555
O32_2 C67_2 1_555 1_555
O87 C68_2 1_555 1_555
C61_2 O35_2 1_555 1_555
O92 C68_2 1_555 1_555
O35_2 Zn31_2 1_555 1_555
C62_2 C64_2 1_555 1_555
C63_2 C61_2 1_555 1_555
C64_2 C63_2 1_555 1_555
H37_2 C64_2 1_555 1_555
C65_2 C63_2 1_555 1_555
H38_2 C65_2 1_555 1_555
C66_2 C62_2 1_555 1_555
H39_2 C66_2 1_555 1_555
O36_2 C61_2 1_555 1_555
C67_2 C65_2 1_555 1_555
C68_2 C62_2 1_555 1_555
C69_2 C46_2 1_555 1_555
C70_2 C57_2 1_555 1_555
C71_2 C70_2 1_555 1_555
H40_2 C71_2 1_555 1_555
H41_2 C71_2 1_555 1_555
C72_2 O32_2 1_555 1_555
H42_2 C72_2 1_555 1_555
H43_2 C47_2 1_555 1_555
H44_2 C72_2 1_555 1_555
H45_2 C59_2 1_555 1_555
H46_2 C48_2 1_555 1_555
H47_2 C71_2 1_555 1_555
H48_2 C60_2 1_555 1_555
Zn32 O71_2 1_555 1_555
O72_2 Zn24 1_555 1_555
O73_2 Zn28 1_555 1_555
Zn36 O74_2 1_555 1_555
O75_2 Zn21 1_555 1_555
O76_2 Zn21 1_555 1_555
O79_2 Zn24 1_555 1_555
O80_2 Zn24 1_555 1_555
O81_2 Zn28 1_555 1_555
O82_2 Zn28 1_555 1_555
Zn21_2 O26_2 1_555 1_555
Zn23_2 O36_2 1_555 1_555
Zn28_2 O31_2 1_555 1_555
O93_2 Zn32 1_555 1_555
O95_2 Zn29 1_555 1_555
O96_2 Zn36 1_555 1_555
O97_2 Zn32 1_555 1_555
O98_2 Zn29 1_555 1_555
O100_2 Zn36 1_555 1_555
O101_2 Zn24 1_555 1_555
O103_2 Zn21 1_555 1_555
O104_2 Zn28 1_555 1_555
O105_2 Zn24 1_555 1_555
O106_2 Zn21 1_555 1_555
O108_2 Zn28 1_555 1_555
O23_2 C44_2 1_555 1_555
C38_2 C44_2 1_555 1_555
C42_2 C43_2 1_555 1_555
C45_2 C48_2 1_555 1_555
O28_2 Zn17 1_555 1_555
O29_2 Zn20 1_555 1_555
C54_2 C55_2 1_555 1_555
C57_2 C60_2 1_555 1_555
C66_2 C67_2 1_555 1_555
C69_2 C70_2 1_555 1_555
C69_2 C72_2 1_555 1_555
O20_4 Zn15_2 1_555 1_555
O25_4 Zn18_2 1_555 1_555
Zn9_2 O58_2 1_555 1_555
Zn10_2 O57_2 1_555 1_555
O54_2 C115_2 1_555 1_555
C109_2 O57_2 1_555 1_555
C110_2 C112_2 1_555 1_555
C111_2 C109_2 1_555 1_555
C112_2 C111_2 1_555 1_555
H73_2 C112_2 1_555 1_555
C113_2 C111_2 1_555 1_555
H74_2 C113_2 1_555 1_555
C114_2 C110_2 1_555 1_555
H75_2 C114_2 1_555 1_555
O58_2 C109_2 1_555 1_555
C115_2 C113_2 1_555 1_555
O59_2 Zn10_2 1_555 1_555
C116_2 O83 1_555 1_555
O60_2 Zn9_2 1_555 1_555
C117_2 C118_2 1_555 1_555
C118_2 C119_2 1_555 1_555
C119_2 H76_2 1_555 1_555
H77_2 C119_2 1_555 1_555
C120_2 O54_2 1_555 1_555
H78_2 C120_2 1_555 1_555
O61_2 C127_2 1_555 1_555
O62_2 C128_2 1_555 1_555
C121_2 O64_2 1_555 1_555
O63_2 C128_2 1_555 1_555
O64_2 Zn34_2 1_555 1_555
C122_2 C124_2 1_555 1_555
C123_2 C121_2 1_555 1_555
C124_2 C123_2 1_555 1_555
H79_2 C124_2 1_555 1_555
C125_2 C123_2 1_555 1_555
H80_2 C125_2 1_555 1_555
C126_2 C122_2 1_555 1_555
H81_2 C126_2 1_555 1_555
O65_2 C121_2 1_555 1_555
C127_2 C125_2 1_555 1_555
C128_2 C122_2 1_555 1_555
C129_2 C130_2 1_555 1_555
C130_2 C117_2 1_555 1_555
C131_2 C130_2 1_555 1_555
H82_2 C131_2 1_555 1_555
H83_2 C131_2 1_555 1_555
C132_2 O61_2 1_555 1_555
H84_2 C132_2 1_555 1_555
O66_2 C139_2 1_555 1_555
C133_2 O69_2 1_555 1_555
O69_2 Zn33_2 1_555 1_555
C134_2 C136_2 1_555 1_555
C135_2 C133_2 1_555 1_555
C136_2 C135_2 1_555 1_555
H85_2 C136_2 1_555 1_555
C137_2 C135_2 1_555 1_555
H86_2 C137_2 1_555 1_555
C138_2 C134_2 1_555 1_555
H87_2 C138_2 1_555 1_555
O70_2 C133_2 1_555 1_555
C139_2 C137_2 1_555 1_555
C140_2 O85 1_555 1_555
C141_2 C118_2 1_555 1_555
C142_2 C129_2 1_555 1_555
C143_2 C142_2 1_555 1_555
H88_2 C143_2 1_555 1_555
H89_2 C143_2 1_555 1_555
C144_2 O66_2 1_555 1_555
H90_2 C144_2 1_555 1_555
H91_2 C119_2 1_555 1_555
H92_2 C144_2 1_555 1_555
H93_2 C131_2 1_555 1_555
H94_2 C120_2 1_555 1_555
H95_2 C143_2 1_555 1_555
H96_2 C132_2 1_555 1_555
O77_2 Zn9_2 1_555 1_555
O78_2 Zn9_2 1_555 1_555
Zn16 O62_2 1_555 1_555
Zn19 O63_2 1_555 1_555
Zn25_2 O70_2 1_555 1_555
Zn26_2 O65_2 1_555 1_555
O83_2 Zn15_2 1_555 1_555
O86_2 Zn15_2 1_555 1_555
O88_2 Zn18_2 1_555 1_555
O91_2 Zn18_2 1_555 1_555
O94_2 Zn10_2 1_555 1_555
O99_2 Zn10_2 1_555 1_555
O102_2 Zn9_2 1_555 1_555
O107_2 Zn9_2 1_555 1_555
O88 C116_2 1_555 1_555
C110_2 C116_2 1_555 1_555
C114_2 C115_2 1_555 1_555
C117_2 C120_2 1_555 1_555
C126_2 C127_2 1_555 1_555
C129_2 C132_2 1_555 1_555
O90 C140_2 1_555 1_555
C134_2 C140_2 1_555 1_555
C138_2 C139_2 1_555 1_555
C141_2 C142_2 1_555 1_555
C141_2 C144_2 1_555 1_555
O8_3 Zn29_2 1_555 1_555
O9_3 Zn21_2 1_555 1_555
Zn31 O71_3 1_555 1_555
O72_3 Zn23 1_555 1_555
O73_3 Zn28_2 1_555 1_555
Zn36_2 O74_3 1_555 1_555
O75_3 Zn21_2 1_555 1_555
O76_3 Zn21_2 1_555 1_555
O79_3 Zn23 1_555 1_555
O80_3 Zn23 1_555 1_555
O81_3 Zn28_2 1_555 1_555
O82_3 Zn28_2 1_555 1_555
O93_3 Zn31 1_555 1_555
O95_3 Zn29_2 1_555 1_555
O96_3 Zn36_2 1_555 1_555
O97_3 Zn31 1_555 1_555
O98_3 Zn29_2 1_555 1_555
O100_3 Zn36_2 1_555 1_555
O101_3 Zn23 1_555 1_555
O103_3 Zn21_2 1_555 1_555
O104_3 Zn28_2 1_555 1_555
O105_3 Zn23 1_555 1_555
O106_3 Zn21_2 1_555 1_555
O108_3 Zn28_2 1_555 1_555
Zn9_3 O58_3 1_555 1_555
Zn10_3 O57_3 1_555 1_555
O54_3 C115_3 1_555 1_555
C109_3 O57_3 1_555 1_555
C110_3 C112_3 1_555 1_555
C111_3 C109_3 1_555 1_555
C112_3 C111_3 1_555 1_555
H73_3 C112_3 1_555 1_555
C113_3 C111_3 1_555 1_555
H74_3 C113_3 1_555 1_555
C114_3 C110_3 1_555 1_555
H75_3 C114_3 1_555 1_555
O58_3 C109_3 1_555 1_555
C115_3 C113_3 1_555 1_555
O59_3 Zn10_3 1_555 1_555
C116_3 O83_2 1_555 1_555
O60_3 Zn9_3 1_555 1_555
C117_3 C118_3 1_555 1_555
C118_3 C119_3 1_555 1_555
C119_3 H76_3 1_555 1_555
H77_3 C119_3 1_555 1_555
C120_3 O54_3 1_555 1_555
H78_3 C120_3 1_555 1_555
O61_3 C127_3 1_555 1_555
O62_3 C128_3 1_555 1_555
C121_3 O64_3 1_555 1_555
O63_3 C128_3 1_555 1_555
O64_3 Zn34_3 1_555 1_555
C122_3 C124_3 1_555 1_555
C123_3 C121_3 1_555 1_555
C124_3 C123_3 1_555 1_555
H79_3 C124_3 1_555 1_555
C125_3 C123_3 1_555 1_555
H80_3 C125_3 1_555 1_555
C126_3 C122_3 1_555 1_555
H81_3 C126_3 1_555 1_555
O65_3 C121_3 1_555 1_555
C127_3 C125_3 1_555 1_555
C128_3 C122_3 1_555 1_555
C129_3 C130_3 1_555 1_555
C130_3 C117_3 1_555 1_555
C131_3 C130_3 1_555 1_555
H82_3 C131_3 1_555 1_555
H83_3 C131_3 1_555 1_555
C132_3 O61_3 1_555 1_555
H84_3 C132_3 1_555 1_555
O66_3 C139_3 1_555 1_555
C133_3 O69_3 1_555 1_555
O69_3 Zn33_3 1_555 1_555
C134_3 C136_3 1_555 1_555
C135_3 C133_3 1_555 1_555
C136_3 C135_3 1_555 1_555
H85_3 C136_3 1_555 1_555
C137_3 C135_3 1_555 1_555
H86_3 C137_3 1_555 1_555
C138_3 C134_3 1_555 1_555
H87_3 C138_3 1_555 1_555
O70_3 C133_3 1_555 1_555
C139_3 C137_3 1_555 1_555
C140_3 O86 1_555 1_555
C141_3 C118_3 1_555 1_555
C142_3 C129_3 1_555 1_555
C143_3 C142_3 1_555 1_555
H88_3 C143_3 1_555 1_555
H89_3 C143_3 1_555 1_555
C144_3 O66_3 1_555 1_555
H90_3 C144_3 1_555 1_555
H91_3 C119_3 1_555 1_555
H92_3 C144_3 1_555 1_555
H93_3 C131_3 1_555 1_555
H94_3 C120_3 1_555 1_555
H95_3 C143_3 1_555 1_555
H96_3 C132_3 1_555 1_555
O77_3 Zn9_3 1_555 1_555
O78_3 Zn9_3 1_555 1_555
Zn16 O62_3 1_555 1_555
Zn19 O63_3 1_555 1_555
Zn25_3 O70_3 1_555 1_555
Zn26_3 O65_3 1_555 1_555
O94_3 Zn10_3 1_555 1_555
O99_3 Zn10_3 1_555 1_555
O102_3 Zn9_3 1_555 1_555
O107_3 Zn9_3 1_555 1_555
O88_2 C116_3 1_555 1_555
C110_3 C116_3 1_555 1_555
C114_3 C115_3 1_555 1_555
C117_3 C120_3 1_555 1_555
C126_3 C127_3 1_555 1_555
C129_3 C132_3 1_555 1_555
O91 C140_3 1_555 1_555
C134_3 C140_3 1_555 1_555
C138_3 C139_3 1_555 1_555
C141_3 C142_3 1_555 1_555
C141_3 C144_3 1_555 1_555
O8_4 Zn30 1_555 1_555
O9_4 Zn22 1_555 1_555
Zn31_2 O71_4 1_555 1_555
O72_4 Zn23_2 1_555 1_555
O73_4 Zn27 1_555 1_555
Zn35 O74_4 1_555 1_555
O75_4 Zn22 1_555 1_555
O76_4 Zn22 1_555 1_555
O79_4 Zn23_2 1_555 1_555
O80_4 Zn23_2 1_555 1_555
O81_4 Zn27 1_555 1_555
O82_4 Zn27 1_555 1_555
O93_4 Zn31_2 1_555 1_555
O95_4 Zn30 1_555 1_555
O96_4 Zn35 1_555 1_555
O97_4 Zn31_2 1_555 1_555
O98_4 Zn30 1_555 1_555
O100_4 Zn35 1_555 1_555
O101_4 Zn23_2 1_555 1_555
O103_4 Zn22 1_555 1_555
O104_4 Zn27 1_555 1_555
O105_4 Zn23_2 1_555 1_555
O106_4 Zn22 1_555 1_555
O108_4 Zn27 1_555 1_555
Zn9_4 O58_4 1_555 1_555
Zn10_4 O57_4 1_555 1_555
O54_4 C115_4 1_555 1_555
C109_4 O57_4 1_555 1_555
C110_4 C112_4 1_555 1_555
C111_4 C109_4 1_555 1_555
C112_4 C111_4 1_555 1_555
H73_4 C112_4 1_555 1_555
C113_4 C111_4 1_555 1_555
H74_4 C113_4 1_555 1_555
C114_4 C110_4 1_555 1_555
H75_4 C114_4 1_555 1_555
O58_4 C109_4 1_555 1_555
C115_4 C113_4 1_555 1_555
O59_4 Zn10_4 1_555 1_555
C116_4 O84 1_555 1_555
O60_4 Zn9_4 1_555 1_555
C117_4 C118_4 1_555 1_555
C118_4 C119_4 1_555 1_555
C119_4 H76_4 1_555 1_555
H77_4 C119_4 1_555 1_555
C120_4 O54_4 1_555 1_555
H78_4 C120_4 1_555 1_555
O61_4 C127_4 1_555 1_555
O62_4 C128_4 1_555 1_555
C121_4 O64_4 1_555 1_555
O63_4 C128_4 1_555 1_555
O64_4 Zn34_4 1_555 1_555
C122_4 C124_4 1_555 1_555
C123_4 C121_4 1_555 1_555
C124_4 C123_4 1_555 1_555
H79_4 C124_4 1_555 1_555
C125_4 C123_4 1_555 1_555
H80_4 C125_4 1_555 1_555
C126_4 C122_4 1_555 1_555
H81_4 C126_4 1_555 1_555
O65_4 C121_4 1_555 1_555
C127_4 C125_4 1_555 1_555
C128_4 C122_4 1_555 1_555
C129_4 C130_4 1_555 1_555
C130_4 C117_4 1_555 1_555
C131_4 C130_4 1_555 1_555
H82_4 C131_4 1_555 1_555
H83_4 C131_4 1_555 1_555
C132_4 O61_4 1_555 1_555
H84_4 C132_4 1_555 1_555
O66_4 C139_4 1_555 1_555
C133_4 O69_4 1_555 1_555
O69_4 Zn33_4 1_555 1_555
C134_4 C136_4 1_555 1_555
C135_4 C133_4 1_555 1_555
C136_4 C135_4 1_555 1_555
H85_4 C136_4 1_555 1_555
C137_4 C135_4 1_555 1_555
H86_4 C137_4 1_555 1_555
C138_4 C134_4 1_555 1_555
H87_4 C138_4 1_555 1_555
O70_4 C133_4 1_555 1_555
C139_4 C137_4 1_555 1_555
C140_4 O86_2 1_555 1_555
C141_4 C118_4 1_555 1_555
C142_4 C129_4 1_555 1_555
C143_4 C142_4 1_555 1_555
H88_4 C143_4 1_555 1_555
H89_4 C143_4 1_555 1_555
C144_4 O66_4 1_555 1_555
H90_4 C144_4 1_555 1_555
H91_4 C119_4 1_555 1_555
H92_4 C144_4 1_555 1_555
H93_4 C131_4 1_555 1_555
H94_4 C120_4 1_555 1_555
H95_4 C143_4 1_555 1_555
H96_4 C132_4 1_555 1_555
O77_4 Zn9_4 1_555 1_555
O78_4 Zn9_4 1_555 1_555
Zn16 O62_4 1_555 1_555
Zn19 O63_4 1_555 1_555
Zn25_4 O70_4 1_555 1_555
Zn26_4 O65_4 1_555 1_555
O94_4 Zn10_4 1_555 1_555
O99_4 Zn10_4 1_555 1_555
O102_4 Zn9_4 1_555 1_555
O107_4 Zn9_4 1_555 1_555
O89 C116_4 1_555 1_555
C110_4 C116_4 1_555 1_555
C114_4 C115_4 1_555 1_555
C117_4 C120_4 1_555 1_555
C126_4 C127_4 1_555 1_555
C129_4 C132_4 1_555 1_555
O91_2 C140_4 1_555 1_555
C134_4 C140_4 1_555 1_555
C138_4 C139_4 1_555 1_555
C141_4 C142_4 1_555 1_555
C141_4 C144_4 1_555 1_555
Zn1_3 O1_3 1_555 1_555
O6_3 Zn2_3 1_555 1_555
O20_5 Zn5_3 1_555 1_555
O25_5 Zn6_3 1_555 1_555
Zn7_3 O37_3 1_555 1_555
O42_3 Zn8_3 1_555 1_555
Zn9_5 O58_5 1_555 1_555
Zn10_5 O57_5 1_555 1_555
O54_5 C115_5 1_555 1_555
O55_2 Zn1_3 1_555 1_555
C109_5 O57_5 1_555 1_555
O56_2 Zn2_3 1_555 1_555
C110_5 C112_5 1_555 1_555
C111_5 C109_5 1_555 1_555
C112_5 C111_5 1_555 1_555
H73_5 C112_5 1_555 1_555
C113_5 C111_5 1_555 1_555
H74_5 C113_5 1_555 1_555
C114_5 C110_5 1_555 1_555
H75_5 C114_5 1_555 1_555
O58_5 C109_5 1_555 1_555
C115_5 C113_5 1_555 1_555
O59_5 Zn10_5 1_555 1_555
C116_5 O55_2 1_555 1_555
O60_5 Zn9_5 1_555 1_555
C117_5 C118_5 1_555 1_555
C118_5 C119_5 1_555 1_555
C119_5 H76_5 1_555 1_555
H77_5 C119_5 1_555 1_555
C120_5 O54_5 1_555 1_555
H78_5 C120_5 1_555 1_555
O61_5 C127_5 1_555 1_555
O62_5 C128_5 1_555 1_555
C121_5 O64_5 1_555 1_555
O63_5 C128_5 1_555 1_555
O64_5 Zn34_2 1_555 1_555
C122_5 C124_5 1_555 1_555
C123_5 C121_5 1_555 1_555
C124_5 C123_5 1_555 1_555
H79_5 C124_5 1_555 1_555
C125_5 C123_5 1_555 1_555
H80_5 C125_5 1_555 1_555
C126_5 C122_5 1_555 1_555
H81_5 C126_5 1_555 1_555
O65_5 C121_5 1_555 1_555
C127_5 C125_5 1_555 1_555
C128_5 C122_5 1_555 1_555
C129_5 C130_5 1_555 1_555
C130_5 C117_5 1_555 1_555
C131_5 C130_5 1_555 1_555
H82_5 C131_5 1_555 1_555
H83_5 C131_5 1_555 1_555
C132_5 O61_5 1_555 1_555
H84_5 C132_5 1_555 1_555
O66_5 C139_5 1_555 1_555
O67_2 Zn7_3 1_555 1_555
C133_5 O99_2 1_555 1_555
O68_2 Zn8_3 1_555 1_555
C134_5 C136_5 1_555 1_555
C135_5 C133_5 1_555 1_555
C136_5 C135_5 1_555 1_555
H85_5 C136_5 1_555 1_555
C137_5 C135_5 1_555 1_555
H86_5 C137_5 1_555 1_555
C138_5 C134_5 1_555 1_555
H87_5 C138_5 1_555 1_555
O107_2 C133_5 1_555 1_555
C139_5 C137_5 1_555 1_555
C140_5 O67_2 1_555 1_555
C141_5 C118_5 1_555 1_555
C142_5 C129_5 1_555 1_555
C143_5 C142_5 1_555 1_555
H88_5 C143_5 1_555 1_555
H89_5 C143_5 1_555 1_555
C144_5 O66_5 1_555 1_555
H90_5 C144_5 1_555 1_555
H91_5 C119_5 1_555 1_555
H92_5 C144_5 1_555 1_555
H93_5 C131_5 1_555 1_555
H94_5 C120_5 1_555 1_555
H95_5 C143_5 1_555 1_555
H96_5 C132_5 1_555 1_555
O77_5 Zn9_5 1_555 1_555
O78_5 Zn9_5 1_555 1_555
Zn16_2 O62_5 1_555 1_555
Zn19_2 O63_5 1_555 1_555
Zn26_2 O65_5 1_555 1_555
O83_3 Zn5_3 1_555 1_555
O84_2 Zn7_3 1_555 1_555
O85_2 Zn1_3 1_555 1_555
O86_3 Zn5_3 1_555 1_555
O88_3 Zn6_3 1_555 1_555
O89_2 Zn8_3 1_555 1_555
O90_2 Zn2_3 1_555 1_555
O91_3 Zn6_3 1_555 1_555
O94_5 Zn10_5 1_555 1_555
O99_5 Zn10_5 1_555 1_555
O102_5 Zn9_5 1_555 1_555
O107_5 Zn9_5 1_555 1_555
O56_2 C116_5 1_555 1_555
C110_5 C116_5 1_555 1_555
C114_5 C115_5 1_555 1_555
C117_5 C120_5 1_555 1_555
C126_5 C127_5 1_555 1_555
C129_5 C132_5 1_555 1_555
O68_2 C140_5 1_555 1_555
C134_5 C140_5 1_555 1_555
C138_5 C139_5 1_555 1_555
C141_5 C142_5 1_555 1_555
C141_5 C144_5 1_555 1_555
Zn1_4 O1_4 1_555 1_555
Zn2_4 O4_2 1_555 1_555
Zn3_2 O7_2 1_555 1_555
Zn4_2 O5_2 1_555 1_555
O2_2 C7_2 1_555 1_555
O3_2 Zn1_4 1_555 1_555
C1_2 O5_2 1_555 1_555
O4_2 C8_2 1_555 1_555
C2_2 C4_2 1_555 1_555
C3_2 C1_2 1_555 1_555
O6_4 Zn2_4 1_555 1_555
C4_2 C3_2 1_555 1_555
H1_2 C4_2 1_555 1_555
C5_2 C3_2 1_555 1_555
H2_2 C5_2 1_555 1_555
C6_2 C2_2 1_555 1_555
H3_2 C6_2 1_555 1_555
O7_2 C1_2 1_555 1_555
C7_2 C5_2 1_555 1_555
O8_5 Zn4_2 1_555 1_555
C8_2 O3_2 1_555 1_555
O9_5 Zn3_2 1_555 1_555
C9_2 C10_2 1_555 1_555
C10_2 C11_2 1_555 1_555
C11_2 H4_2 1_555 1_555
H5_2 C11_2 1_555 1_555
C12_2 O2_2 1_555 1_555
H6_2 C12_2 1_555 1_555
O10_2 C19_2 1_555 1_555
O11_2 C20_2 1_555 1_555
C13_2 O96_4 1_555 1_555
O12_2 C20_2 1_555 1_555
C14_2 C16_2 1_555 1_555
C15_2 C13_2 1_555 1_555
C16_2 C15_2 1_555 1_555
H7_2 C16_2 1_555 1_555
C17_2 C15_2 1_555 1_555
H8_2 C17_2 1_555 1_555
C18_2 C14_2 1_555 1_555
H9_2 C18_2 1_555 1_555
O104_4 C13_2 1_555 1_555
C19_2 C17_2 1_555 1_555
C20_2 C14_2 1_555 1_555
C21_2 C22_2 1_555 1_555
C22_2 C9_2 1_555 1_555
C23_2 C22_2 1_555 1_555
H10_2 C23_2 1_555 1_555
H11_2 C23_2 1_555 1_555
C24_2 O10_2 1_555 1_555
H12_2 C24_2 1_555 1_555
O15_2 C31_2 1_555 1_555
O16_2 C32_2 1_555 1_555
C25_2 O98_4 1_555 1_555
O17_2 C32_2 1_555 1_555
C26_2 C28_2 1_555 1_555
C27_2 C25_2 1_555 1_555
C28_2 C27_2 1_555 1_555
H13_2 C28_2 1_555 1_555
C29_2 C27_2 1_555 1_555
H14_2 C29_2 1_555 1_555
C30_2 C26_2 1_555 1_555
H15_2 C30_2 1_555 1_555
O106_4 C25_2 1_555 1_555
C31_2 C29_2 1_555 1_555
C32_2 C26_2 1_555 1_555
C33_2 C10_2 1_555 1_555
C34_2 C21_2 1_555 1_555
C35_2 C34_2 1_555 1_555
H16_2 C35_2 1_555 1_555
H17_2 C35_2 1_555 1_555
C36_2 O15_2 1_555 1_555
H18_2 C36_2 1_555 1_555
H19_2 C11_2 1_555 1_555
H20_2 C36_2 1_555 1_555
H21_2 C23_2 1_555 1_555
H22_2 C12_2 1_555 1_555
H23_2 C35_2 1_555 1_555
H24_2 C24_2 1_555 1_555
Zn5_4 O16_2 1_555 1_555
Zn6_4 O17_2 1_555 1_555
O20_6 Zn5_4 1_555 1_555
O21_3 C43_3 1_555 1_555
O22_3 Zn5_4 1_555 1_555
C37_3 O93_4 1_555 1_555
O23_3 Zn6_4 1_555 1_555
C38_3 C40_3 1_555 1_555
C39_3 C37_3 1_555 1_555
O25_6 Zn6_4 1_555 1_555
C40_3 C39_3 1_555 1_555
H25_3 C40_3 1_555 1_555
C41_3 C39_3 1_555 1_555
H26_3 C41_3 1_555 1_555
C42_3 C38_3 1_555 1_555
H27_3 C42_3 1_555 1_555
O101_4 C37_3 1_555 1_555
C43_3 C41_3 1_555 1_555
C44_3 O22_3 1_555 1_555
C45_3 C46_3 1_555 1_555
C46_3 C47_3 1_555 1_555
C47_3 H28_3 1_555 1_555
H29_3 C47_3 1_555 1_555
C48_3 O21_3 1_555 1_555
H30_3 C48_3 1_555 1_555
O27_3 C55_3 1_555 1_555
O28_3 C56_3 1_555 1_555
C49_3 O100_3 1_555 1_555
O29_3 C56_3 1_555 1_555
C50_3 C52_3 1_555 1_555
C51_3 C49_3 1_555 1_555
C52_3 C51_3 1_555 1_555
H31_3 C52_3 1_555 1_555
C53_3 C51_3 1_555 1_555
H32_3 C53_3 1_555 1_555
C54_3 C50_3 1_555 1_555
H33_3 C54_3 1_555 1_555
O108_3 C49_3 1_555 1_555
C55_3 C53_3 1_555 1_555
C56_3 C50_3 1_555 1_555
C57_3 C58_3 1_555 1_555
C58_3 C45_3 1_555 1_555
C59_3 C58_3 1_555 1_555
H34_3 C59_3 1_555 1_555
H35_3 C59_3 1_555 1_555
C60_3 O27_3 1_555 1_555
H36_3 C60_3 1_555 1_555
O32_3 C67_3 1_555 1_555
O33_2 C68_3 1_555 1_555
C61_3 O35_3 1_555 1_555
O34_2 C68_3 1_555 1_555
O35_3 Zn31_3 1_555 1_555
C62_3 C64_3 1_555 1_555
C63_3 C61_3 1_555 1_555
C64_3 C63_3 1_555 1_555
H37_3 C64_3 1_555 1_555
C65_3 C63_3 1_555 1_555
H38_3 C65_3 1_555 1_555
C66_3 C62_3 1_555 1_555
H39_3 C66_3 1_555 1_555
O36_3 C61_3 1_555 1_555
C67_3 C65_3 1_555 1_555
C68_3 C62_3 1_555 1_555
C69_3 C46_3 1_555 1_555
C70_3 C57_3 1_555 1_555
C71_3 C70_3 1_555 1_555
H40_3 C71_3 1_555 1_555
H41_3 C71_3 1_555 1_555
C72_3 O32_3 1_555 1_555
H42_3 C72_3 1_555 1_555
H43_3 C47_3 1_555 1_555
H44_3 C72_3 1_555 1_555
H45_3 C59_3 1_555 1_555
H46_3 C48_3 1_555 1_555
H47_3 C71_3 1_555 1_555
H48_3 C60_3 1_555 1_555
Zn7_4 O37_4 1_555 1_555
Zn8_4 O40_2 1_555 1_555
O38_2 C79_2 1_555 1_555
O39_2 Zn7_4 1_555 1_555
C73_2 O41_2 1_555 1_555
O40_2 C80_2 1_555 1_555
O41_2 Zn33 1_555 1_555
C74_2 C76_2 1_555 1_555
C75_2 C73_2 1_555 1_555
O42_4 Zn8_4 1_555 1_555
C76_2 C75_2 1_555 1_555
H49_2 C76_2 1_555 1_555
C77_2 C75_2 1_555 1_555
H50_2 C77_2 1_555 1_555
C78_2 C74_2 1_555 1_555
H51_2 C78_2 1_555 1_555
O43_2 C73_2 1_555 1_555
C79_2 C77_2 1_555 1_555
C80_2 O39_2 1_555 1_555
C81_2 C82_2 1_555 1_555
C82_2 C83_2 1_555 1_555
C83_2 H52_2 1_555 1_555
H53_2 C83_2 1_555 1_555
C84_2 O38_2 1_555 1_555
H54_2 C84_2 1_555 1_555
O44_2 C91_2 1_555 1_555
O45_2 C92_2 1_555 1_555
C85_2 O47_2 1_555 1_555
O46_2 C92_2 1_555 1_555
O47_2 Zn34 1_555 1_555
C86_2 C88_2 1_555 1_555
C87_2 C85_2 1_555 1_555
C88_2 C87_2 1_555 1_555
H55_2 C88_2 1_555 1_555
C89_2 C87_2 1_555 1_555
H56_2 C89_2 1_555 1_555
C90_2 C86_2 1_555 1_555
H57_2 C90_2 1_555 1_555
O48_2 C85_2 1_555 1_555
C91_2 C89_2 1_555 1_555
C92_2 C86_2 1_555 1_555
C93_2 C94_2 1_555 1_555
C94_2 C81_2 1_555 1_555
C95_2 C94_2 1_555 1_555
H58_2 C95_2 1_555 1_555
H59_2 C95_2 1_555 1_555
C96_2 O44_2 1_555 1_555
H60_2 C96_2 1_555 1_555
O49_2 C103_2 1_555 1_555
O50_2 Zn1_4 1_555 1_555
C97_2 O52_2 1_555 1_555
O51_2 Zn2_4 1_555 1_555
O52_2 Zn12_2 1_555 1_555
C98_2 C100_2 1_555 1_555
C99_2 C97_2 1_555 1_555
C100_2 C99_2 1_555 1_555
H61_2 C100_2 1_555 1_555
C101_2 C99_2 1_555 1_555
H62_2 C101_2 1_555 1_555
C102_2 C98_2 1_555 1_555
H63_2 C102_2 1_555 1_555
O53_2 C97_2 1_555 1_555
C103_2 C101_2 1_555 1_555
C104_2 O50_2 1_555 1_555
C105_2 C82_2 1_555 1_555
C106_2 C93_2 1_555 1_555
C107_2 C106_2 1_555 1_555
H64_2 C107_2 1_555 1_555
H65_2 C107_2 1_555 1_555
C108_2 O49_2 1_555 1_555
H66_2 C108_2 1_555 1_555
H67_2 C83_2 1_555 1_555
H68_2 C108_2 1_555 1_555
H69_2 C95_2 1_555 1_555
H70_2 C84_2 1_555 1_555
H71_2 C107_2 1_555 1_555
H72_2 C96_2 1_555 1_555
Zn11_2 O53_2 1_555 1_555
Zn12_2 O71_5 1_555 1_555
O72_5 Zn11_2 1_555 1_555
O75_5 Zn3_2 1_555 1_555
O76_5 Zn3_2 1_555 1_555
O79_5 Zn11_2 1_555 1_555
O80_5 Zn11_2 1_555 1_555
Zn15_4 O33_2 1_555 1_555
Zn17_2 O11_2 1_555 1_555
Zn18_4 O34_2 1_555 1_555
Zn20_2 O12_2 1_555 1_555
Zn25 O43_2 1_555 1_555
Zn23_3 O36_3 1_555 1_555
Zn26 O48_2 1_555 1_555
O87_2 Zn7_4 1_555 1_555
O92_2 Zn8_4 1_555 1_555
O93_5 Zn12_2 1_555 1_555
O95_5 Zn4_2 1_555 1_555
O97_5 Zn12_2 1_555 1_555
O98_5 Zn4_2 1_555 1_555
O101_5 Zn11_2 1_555 1_555
O103_5 Zn3_2 1_555 1_555
O105_5 Zn11_2 1_555 1_555
O106_5 Zn3_2 1_555 1_555
C2_2 C8_2 1_555 1_555
C6_2 C7_2 1_555 1_555
C9_2 C12_2 1_555 1_555
C18_2 C19_2 1_555 1_555
C21_2 C24_2 1_555 1_555
C30_2 C31_2 1_555 1_555
C33_2 C34_2 1_555 1_555
C33_2 C36_2 1_555 1_555
O23_3 C44_3 1_555 1_555
C38_3 C44_3 1_555 1_555
C42_3 C43_3 1_555 1_555
C45_3 C48_3 1_555 1_555
O28_3 Zn17_2 1_555 1_555
O29_3 Zn20_2 1_555 1_555
C54_3 C55_3 1_555 1_555
C57_3 C60_3 1_555 1_555
C66_3 C67_3 1_555 1_555
C69_3 C70_3 1_555 1_555
C69_3 C72_3 1_555 1_555
C74_2 C80_2 1_555 1_555
C78_2 C79_2 1_555 1_555
C81_2 C84_2 1_555 1_555
O45_2 Zn17_2 1_555 1_555
O46_2 Zn20_2 1_555 1_555
C90_2 C91_2 1_555 1_555
C93_2 C96_2 1_555 1_555
O51_2 C104_2 1_555 1_555
C98_2 C104_2 1_555 1_555
C102_2 C103_2 1_555 1_555
C105_2 C106_2 1_555 1_555
C105_2 C108_2 1_555 1_555
Zn33_2 O71_6 1_555 1_555
O72_6 Zn25_2 1_555 1_555
O73_5 Zn26 1_555 1_555
Zn34 O74_5 1_555 1_555
O79_6 Zn25_2 1_555 1_555
O80_6 Zn25_2 1_555 1_555
O81_5 Zn26 1_555 1_555
O82_5 Zn26 1_555 1_555
O93_6 Zn33_2 1_555 1_555
O96_5 Zn34 1_555 1_555
O97_6 Zn33_2 1_555 1_555
O101_6 Zn25_2 1_555 1_555
O104_5 Zn26 1_555 1_555
O105_6 Zn25_2 1_555 1_555
O21_4 C43_4 1_555 1_555
C37_4 O24_3 1_555 1_555
O24_3 Zn33_3 1_555 1_555
C38_4 C40_4 1_555 1_555
C39_4 C37_4 1_555 1_555
C40_4 C39_4 1_555 1_555
H25_4 C40_4 1_555 1_555
C41_4 C39_4 1_555 1_555
H26_4 C41_4 1_555 1_555
C42_4 C38_4 1_555 1_555
H27_4 C42_4 1_555 1_555
O26_3 C37_4 1_555 1_555
C43_4 C41_4 1_555 1_555
C44_4 O84_2 1_555 1_555
C45_4 C46_4 1_555 1_555
C46_4 C47_4 1_555 1_555
C47_4 H28_4 1_555 1_555
H29_4 C47_4 1_555 1_555
C48_4 O21_4 1_555 1_555
H30_4 C48_4 1_555 1_555
O27_4 C55_4 1_555 1_555
O28_4 C56_4 1_555 1_555
C49_4 O30_3 1_555 1_555
O29_4 C56_4 1_555 1_555
O30_3 Zn34_3 1_555 1_555
C50_4 C52_4 1_555 1_555
C51_4 C49_4 1_555 1_555
C52_4 C51_4 1_555 1_555
H31_4 C52_4 1_555 1_555
C53_4 C51_4 1_555 1_555
H32_4 C53_4 1_555 1_555
C54_4 C50_4 1_555 1_555
H33_4 C54_4 1_555 1_555
O31_3 C49_4 1_555 1_555
C55_4 C53_4 1_555 1_555
C56_4 C50_4 1_555 1_555
C57_4 C58_4 1_555 1_555
C58_4 C45_4 1_555 1_555
C59_4 C58_4 1_555 1_555
H34_4 C59_4 1_555 1_555
H35_4 C59_4 1_555 1_555
C60_4 O27_4 1_555 1_555
H36_4 C60_4 1_555 1_555
O32_4 C67_4 1_555 1_555
O33_3 C68_4 1_555 1_555
C61_4 O35_4 1_555 1_555
O34_3 C68_4 1_555 1_555
O35_4 Zn31_4 1_555 1_555
C62_4 C64_4 1_555 1_555
C63_4 C61_4 1_555 1_555
C64_4 C63_4 1_555 1_555
H37_4 C64_4 1_555 1_555
C65_4 C63_4 1_555 1_555
H38_4 C65_4 1_555 1_555
C66_4 C62_4 1_555 1_555
H39_4 C66_4 1_555 1_555
O36_4 C61_4 1_555 1_555
C67_4 C65_4 1_555 1_555
C68_4 C62_4 1_555 1_555
C69_4 C46_4 1_555 1_555
C70_4 C57_4 1_555 1_555
C71_4 C70_4 1_555 1_555
H40_4 C71_4 1_555 1_555
H41_4 C71_4 1_555 1_555
C72_4 O32_4 1_555 1_555
H42_4 C72_4 1_555 1_555
H43_4 C47_4 1_555 1_555
H44_4 C72_4 1_555 1_555
H45_4 C59_4 1_555 1_555
H46_4 C48_4 1_555 1_555
H47_4 C71_4 1_555 1_555
H48_4 C60_4 1_555 1_555
O38_3 C79_3 1_555 1_555
C73_3 O93_2 1_555 1_555
O88_3 C80_3 1_555 1_555
C74_3 C76_3 1_555 1_555
C75_3 C73_3 1_555 1_555
C76_3 C75_3 1_555 1_555
H49_3 C76_3 1_555 1_555
C77_3 C75_3 1_555 1_555
H50_3 C77_3 1_555 1_555
C78_3 C74_3 1_555 1_555
H51_3 C78_3 1_555 1_555
O101_2 C73_3 1_555 1_555
C79_3 C77_3 1_555 1_555
C80_3 O83_3 1_555 1_555
C81_3 C82_3 1_555 1_555
C82_3 C83_3 1_555 1_555
C83_3 H52_3 1_555 1_555
H53_3 C83_3 1_555 1_555
C84_3 O38_3 1_555 1_555
H54_3 C84_3 1_555 1_555
O44_3 C91_3 1_555 1_555
O45_3 C92_3 1_555 1_555
C85_3 O100 1_555 1_555
O46_3 C92_3 1_555 1_555
C86_3 C88_3 1_555 1_555
C87_3 C85_3 1_555 1_555
C88_3 C87_3 1_555 1_555
H55_3 C88_3 1_555 1_555
C89_3 C87_3 1_555 1_555
H56_3 C89_3 1_555 1_555
C90_3 C86_3 1_555 1_555
H57_3 C90_3 1_555 1_555
O108 C85_3 1_555 1_555
C91_3 C89_3 1_555 1_555
C92_3 C86_3 1_555 1_555
C93_3 C94_3 1_555 1_555
C94_3 C81_3 1_555 1_555
C95_3 C94_3 1_555 1_555
H58_3 C95_3 1_555 1_555
H59_3 C95_3 1_555 1_555
C96_3 O44_3 1_555 1_555
H60_3 C96_3 1_555 1_555
O49_3 C103_3 1_555 1_555
C97_3 O52_3 1_555 1_555
O52_3 Zn12_3 1_555 1_555
C98_3 C100_3 1_555 1_555
C99_3 C97_3 1_555 1_555
C100_3 C99_3 1_555 1_555
H61_3 C100_3 1_555 1_555
C101_3 C99_3 1_555 1_555
H62_3 C101_3 1_555 1_555
C102_3 C98_3 1_555 1_555
H63_3 C102_3 1_555 1_555
O53_3 C97_3 1_555 1_555
C103_3 C101_3 1_555 1_555
C104_3 O85_2 1_555 1_555
C105_3 C82_3 1_555 1_555
C106_3 C93_3 1_555 1_555
C107_3 C106_3 1_555 1_555
H64_3 C107_3 1_555 1_555
H65_3 C107_3 1_555 1_555
C108_3 O49_3 1_555 1_555
H66_3 C108_3 1_555 1_555
H67_3 C83_3 1_555 1_555
H68_3 C108_3 1_555 1_555
H69_3 C95_3 1_555 1_555
H70_3 C84_3 1_555 1_555
H71_3 C107_3 1_555 1_555
H72_3 C96_3 1_555 1_555
Zn11_3 O53_3 1_555 1_555
Zn12_3 O71_7 1_555 1_555
O72_7 Zn11_3 1_555 1_555
O73_6 Zn26_2 1_555 1_555
Zn34_2 O74_6 1_555 1_555
O79_7 Zn11_3 1_555 1_555
O80_7 Zn11_3 1_555 1_555
O81_6 Zn26_2 1_555 1_555
O82_6 Zn26_2 1_555 1_555
Zn15_3 O33_3 1_555 1_555
Zn18_3 O34_3 1_555 1_555
Zn25_3 O26_3 1_555 1_555
Zn23_4 O36_4 1_555 1_555
Zn26_3 O31_3 1_555 1_555
O93_7 Zn12_3 1_555 1_555
O96_6 Zn34_2 1_555 1_555
O97_7 Zn12_3 1_555 1_555
O101_7 Zn11_3 1_555 1_555
O104_6 Zn26_2 1_555 1_555
O105_7 Zn11_3 1_555 1_555
O89_2 C44_4 1_555 1_555
C38_4 C44_4 1_555 1_555
C42_4 C43_4 1_555 1_555
C45_4 C48_4 1_555 1_555
O28_4 Zn16_2 1_555 1_555
O29_4 Zn19_2 1_555 1_555
C54_4 C55_4 1_555 1_555
C57_4 C60_4 1_555 1_555
C66_4 C67_4 1_555 1_555
C69_4 C70_4 1_555 1_555
C69_4 C72_4 1_555 1_555
C74_3 C80_3 1_555 1_555
C78_3 C79_3 1_555 1_555
C81_3 C84_3 1_555 1_555
O45_3 Zn16_2 1_555 1_555
O46_3 Zn19_2 1_555 1_555
C90_3 C91_3 1_555 1_555
C93_3 C96_3 1_555 1_555
O90_2 C104_3 1_555 1_555
C98_3 C104_3 1_555 1_555
C102_3 C103_3 1_555 1_555
C105_3 C106_3 1_555 1_555
C105_3 C108_3 1_555 1_555
Zn1_5 O1_5 1_555 1_555
Zn2_5 O4_3 1_555 1_555
O2_3 C7_3 1_555 1_555
O3_3 Zn1_5 1_555 1_555
C1_3 O93_6 1_555 1_555
O4_3 C8_3 1_555 1_555
C2_3 C4_3 1_555 1_555
C3_3 C1_3 1_555 1_555
O6_5 Zn2_5 1_555 1_555
C4_3 C3_3 1_555 1_555
H1_3 C4_3 1_555 1_555
C5_3 C3_3 1_555 1_555
H2_3 C5_3 1_555 1_555
C6_3 C2_3 1_555 1_555
H3_3 C6_3 1_555 1_555
O101_6 C1_3 1_555 1_555
C7_3 C5_3 1_555 1_555
C8_3 O3_3 1_555 1_555
C9_3 C10_3 1_555 1_555
C10_3 C11_3 1_555 1_555
C11_3 H4_3 1_555 1_555
H5_3 C11_3 1_555 1_555
C12_3 O2_3 1_555 1_555
H6_3 C12_3 1_555 1_555
O10_3 C19_3 1_555 1_555
O11_3 C20_3 1_555 1_555
C13_3 O96_6 1_555 1_555
O12_3 C20_3 1_555 1_555
C14_3 C16_3 1_555 1_555
C15_3 C13_3 1_555 1_555
C16_3 C15_3 1_555 1_555
H7_3 C16_3 1_555 1_555
C17_3 C15_3 1_555 1_555
H8_3 C17_3 1_555 1_555
C18_3 C14_3 1_555 1_555
H9_3 C18_3 1_555 1_555
O104_6 C13_3 1_555 1_555
C19_3 C17_3 1_555 1_555
C20_3 C14_3 1_555 1_555
C21_3 C22_3 1_555 1_555
C22_3 C9_3 1_555 1_555
C23_3 C22_3 1_555 1_555
H10_3 C23_3 1_555 1_555
H11_3 C23_3 1_555 1_555
C24_3 O10_3 1_555 1_555
H12_3 C24_3 1_555 1_555
O15_3 C31_3 1_555 1_555
O16_3 C32_3 1_555 1_555
C25_3 O99_5 1_555 1_555
O17_3 C32_3 1_555 1_555
C26_3 C28_3 1_555 1_555
C27_3 C25_3 1_555 1_555
C28_3 C27_3 1_555 1_555
H13_3 C28_3 1_555 1_555
C29_3 C27_3 1_555 1_555
H14_3 C29_3 1_555 1_555
C30_3 C26_3 1_555 1_555
H15_3 C30_3 1_555 1_555
O107_5 C25_3 1_555 1_555
C31_3 C29_3 1_555 1_555
C32_3 C26_3 1_555 1_555
C33_3 C10_3 1_555 1_555
C34_3 C21_3 1_555 1_555
C35_3 C34_3 1_555 1_555
H16_3 C35_3 1_555 1_555
H17_3 C35_3 1_555 1_555
C36_3 O15_3 1_555 1_555
H18_3 C36_3 1_555 1_555
H19_3 C11_3 1_555 1_555
H20_3 C36_3 1_555 1_555
H21_3 C23_3 1_555 1_555
H22_3 C12_3 1_555 1_555
H23_3 C35_3 1_555 1_555
H24_3 C24_3 1_555 1_555
Zn5_5 O16_3 1_555 1_555
Zn6_5 O17_3 1_555 1_555
O20_7 Zn5_5 1_555 1_555
O21_5 C43_5 1_555 1_555
O22_4 Zn5_5 1_555 1_555
C37_5 O93_7 1_555 1_555
O23_4 Zn6_5 1_555 1_555
C38_5 C40_5 1_555 1_555
C39_5 C37_5 1_555 1_555
O25_7 Zn6_5 1_555 1_555
C40_5 C39_5 1_555 1_555
H25_5 C40_5 1_555 1_555
C41_5 C39_5 1_555 1_555
H26_5 C41_5 1_555 1_555
C42_5 C38_5 1_555 1_555
H27_5 C42_5 1_555 1_555
O101_7 C37_5 1_555 1_555
C43_5 C41_5 1_555 1_555
C44_5 O22_4 1_555 1_555
C45_5 C46_5 1_555 1_555
C46_5 C47_5 1_555 1_555
C47_5 H28_5 1_555 1_555
H29_5 C47_5 1_555 1_555
C48_5 O21_5 1_555 1_555
H30_5 C48_5 1_555 1_555
O27_5 C55_5 1_555 1_555
O28_5 C56_5 1_555 1_555
C49_5 O96 1_555 1_555
O29_5 C56_5 1_555 1_555
C50_5 C52_5 1_555 1_555
C51_5 C49_5 1_555 1_555
C52_5 C51_5 1_555 1_555
H31_5 C52_5 1_555 1_555
C53_5 C51_5 1_555 1_555
H32_5 C53_5 1_555 1_555
C54_5 C50_5 1_555 1_555
H33_5 C54_5 1_555 1_555
O104 C49_5 1_555 1_555
C55_5 C53_5 1_555 1_555
C56_5 C50_5 1_555 1_555
C57_5 C58_5 1_555 1_555
C58_5 C45_5 1_555 1_555
C59_5 C58_5 1_555 1_555
H34_5 C59_5 1_555 1_555
H35_5 C59_5 1_555 1_555
C60_5 O27_5 1_555 1_555
H36_5 C60_5 1_555 1_555
O32_5 C67_5 1_555 1_555
O33_4 C68_5 1_555 1_555
C61_5 O98 1_555 1_555
O34_4 C68_5 1_555 1_555
C62_5 C64_5 1_555 1_555
C63_5 C61_5 1_555 1_555
C64_5 C63_5 1_555 1_555
H37_5 C64_5 1_555 1_555
C65_5 C63_5 1_555 1_555
H38_5 C65_5 1_555 1_555
C66_5 C62_5 1_555 1_555
H39_5 C66_5 1_555 1_555
O106 C61_5 1_555 1_555
C67_5 C65_5 1_555 1_555
C68_5 C62_5 1_555 1_555
C69_5 C46_5 1_555 1_555
C70_5 C57_5 1_555 1_555
C71_5 C70_5 1_555 1_555
H40_5 C71_5 1_555 1_555
H41_5 C71_5 1_555 1_555
C72_5 O32_5 1_555 1_555
H42_5 C72_5 1_555 1_555
H43_5 C47_5 1_555 1_555
H44_5 C72_5 1_555 1_555
H45_5 C59_5 1_555 1_555
H46_5 C48_5 1_555 1_555
H47_5 C71_5 1_555 1_555
H48_5 C60_5 1_555 1_555
Zn7_5 O37_5 1_555 1_555
Zn8_5 O40_3 1_555 1_555
O38_4 C79_4 1_555 1_555
O39_3 Zn7_5 1_555 1_555
C73_4 O93_5 1_555 1_555
O40_3 C80_4 1_555 1_555
C74_4 C76_4 1_555 1_555
C75_4 C73_4 1_555 1_555
O42_5 Zn8_5 1_555 1_555
C76_4 C75_4 1_555 1_555
H49_4 C76_4 1_555 1_555
C77_4 C75_4 1_555 1_555
H50_4 C77_4 1_555 1_555
C78_4 C74_4 1_555 1_555
H51_4 C78_4 1_555 1_555
O101_5 C73_4 1_555 1_555
C79_4 C77_4 1_555 1_555
C80_4 O39_3 1_555 1_555
C81_4 C82_4 1_555 1_555
C82_4 C83_4 1_555 1_555
C83_4 H52_4 1_555 1_555
H53_4 C83_4 1_555 1_555
C84_4 O38_4 1_555 1_555
H54_4 C84_4 1_555 1_555
O44_4 C91_4 1_555 1_555
O45_4 C92_4 1_555 1_555
C85_4 O96_5 1_555 1_555
O46_4 C92_4 1_555 1_555
C86_4 C88_4 1_555 1_555
C87_4 C85_4 1_555 1_555
C88_4 C87_4 1_555 1_555
H55_4 C88_4 1_555 1_555
C89_4 C87_4 1_555 1_555
H56_4 C89_4 1_555 1_555
C90_4 C86_4 1_555 1_555
H57_4 C90_4 1_555 1_555
O104_5 C85_4 1_555 1_555
C91_4 C89_4 1_555 1_555
C92_4 C86_4 1_555 1_555
C93_4 C94_4 1_555 1_555
C94_4 C81_4 1_555 1_555
C95_4 C94_4 1_555 1_555
H58_4 C95_4 1_555 1_555
H59_4 C95_4 1_555 1_555
C96_4 O44_4 1_555 1_555
H60_4 C96_4 1_555 1_555
O49_4 C103_4 1_555 1_555
O50_3 Zn1_5 1_555 1_555
C97_4 O99 1_555 1_555
O51_3 Zn2_5 1_555 1_555
C98_4 C100_4 1_555 1_555
C99_4 C97_4 1_555 1_555
C100_4 C99_4 1_555 1_555
H61_4 C100_4 1_555 1_555
C101_4 C99_4 1_555 1_555
H62_4 C101_4 1_555 1_555
C102_4 C98_4 1_555 1_555
H63_4 C102_4 1_555 1_555
O107 C97_4 1_555 1_555
C103_4 C101_4 1_555 1_555
C104_4 O50_3 1_555 1_555
C105_4 C82_4 1_555 1_555
C106_4 C93_4 1_555 1_555
C107_4 C106_4 1_555 1_555
H64_4 C107_4 1_555 1_555
H65_4 C107_4 1_555 1_555
C108_4 O49_4 1_555 1_555
H66_4 C108_4 1_555 1_555
H67_4 C83_4 1_555 1_555
H68_4 C108_4 1_555 1_555
H69_4 C95_4 1_555 1_555
H70_4 C84_4 1_555 1_555
H71_4 C107_4 1_555 1_555
H72_4 C96_4 1_555 1_555
Zn15_5 O33_4 1_555 1_555
Zn17_3 O11_3 1_555 1_555
Zn18_5 O34_4 1_555 1_555
Zn20_3 O12_3 1_555 1_555
O87_3 Zn7_5 1_555 1_555
O92_3 Zn8_5 1_555 1_555
C2_3 C8_3 1_555 1_555
C6_3 C7_3 1_555 1_555
C9_3 C12_3 1_555 1_555
C18_3 C19_3 1_555 1_555
C21_3 C24_3 1_555 1_555
C30_3 C31_3 1_555 1_555
C33_3 C34_3 1_555 1_555
C33_3 C36_3 1_555 1_555
O23_4 C44_5 1_555 1_555
C38_5 C44_5 1_555 1_555
C42_5 C43_5 1_555 1_555
C45_5 C48_5 1_555 1_555
O28_5 Zn17_3 1_555 1_555
O29_5 Zn20_3 1_555 1_555
C54_5 C55_5 1_555 1_555
C57_5 C60_5 1_555 1_555
C66_5 C67_5 1_555 1_555
C69_5 C70_5 1_555 1_555
C69_5 C72_5 1_555 1_555
C74_4 C80_4 1_555 1_555
C78_4 C79_4 1_555 1_555
C81_4 C84_4 1_555 1_555
O45_4 Zn17_3 1_555 1_555
O46_4 Zn20_3 1_555 1_555
C90_4 C91_4 1_555 1_555
C93_4 C96_4 1_555 1_555
O51_3 C104_4 1_555 1_555
C98_4 C104_4 1_555 1_555
C102_4 C103_4 1_555 1_555
C105_4 C106_4 1_555 1_555
C105_4 C108_4 1_555 1_555
Zn1_6 O1_6 1_555 1_555
O6_6 Zn2_6 1_555 1_555
O20_8 Zn5_6 1_555 1_555
O25_8 Zn6_6 1_555 1_555
Zn7_6 O37_6 1_555 1_555
O42_6 Zn8_6 1_555 1_555
Zn25_4 O58_6 1_555 1_555
Zn33_4 O57_6 1_555 1_555
O54_6 C115_6 1_555 1_555
O55_3 Zn1_6 1_555 1_555
C109_6 O57_6 1_555 1_555
O56_3 Zn2_6 1_555 1_555
C110_6 C112_6 1_555 1_555
C111_6 C109_6 1_555 1_555
C112_6 C111_6 1_555 1_555
H73_6 C112_6 1_555 1_555
C113_6 C111_6 1_555 1_555
H74_6 C113_6 1_555 1_555
C114_6 C110_6 1_555 1_555
H75_6 C114_6 1_555 1_555
O58_6 C109_6 1_555 1_555
C115_6 C113_6 1_555 1_555
O59_6 Zn33_4 1_555 1_555
C116_6 O55_3 1_555 1_555
O60_6 Zn25_4 1_555 1_555
C117_6 C118_6 1_555 1_555
C118_6 C119_6 1_555 1_555
C119_6 H76_6 1_555 1_555
H77_6 C119_6 1_555 1_555
C120_6 O54_6 1_555 1_555
H78_6 C120_6 1_555 1_555
O61_6 C127_6 1_555 1_555
O62_6 C128_6 1_555 1_555
C121_6 O64_6 1_555 1_555
O63_6 C128_6 1_555 1_555
O64_6 Zn34_4 1_555 1_555
C122_6 C124_6 1_555 1_555
C123_6 C121_6 1_555 1_555
C124_6 C123_6 1_555 1_555
H79_6 C124_6 1_555 1_555
C125_6 C123_6 1_555 1_555
H80_6 C125_6 1_555 1_555
C126_6 C122_6 1_555 1_555
H81_6 C126_6 1_555 1_555
O65_6 C121_6 1_555 1_555
C127_6 C125_6 1_555 1_555
C128_6 C122_6 1_555 1_555
C129_6 C130_6 1_555 1_555
C130_6 C117_6 1_555 1_555
C131_6 C130_6 1_555 1_555
H82_6 C131_6 1_555 1_555
H83_6 C131_6 1_555 1_555
C132_6 O61_6 1_555 1_555
H84_6 C132_6 1_555 1_555
O66_6 C139_6 1_555 1_555
O67_3 Zn7_6 1_555 1_555
C133_6 O69_5 1_555 1_555
O68_3 Zn8_6 1_555 1_555
O69_5 Zn33_5 1_555 1_555
C134_6 C136_6 1_555 1_555
C135_6 C133_6 1_555 1_555
C136_6 C135_6 1_555 1_555
H85_6 C136_6 1_555 1_555
C137_6 C135_6 1_555 1_555
H86_6 C137_6 1_555 1_555
C138_6 C134_6 1_555 1_555
H87_6 C138_6 1_555 1_555
O70_5 C133_6 1_555 1_555
C139_6 C137_6 1_555 1_555
C140_6 O67_3 1_555 1_555
C141_6 C118_6 1_555 1_555
C142_6 C129_6 1_555 1_555
C143_6 C142_6 1_555 1_555
H88_6 C143_6 1_555 1_555
H89_6 C143_6 1_555 1_555
C144_6 O66_6 1_555 1_555
H90_6 C144_6 1_555 1_555
H91_6 C119_6 1_555 1_555
H92_6 C144_6 1_555 1_555
H93_6 C131_6 1_555 1_555
H94_6 C120_6 1_555 1_555
H95_6 C143_6 1_555 1_555
H96_6 C132_6 1_555 1_555
O77_6 Zn25_4 1_555 1_555
O78_6 Zn25_4 1_555 1_555
Zn16_3 O62_6 1_555 1_555
Zn19_3 O63_6 1_555 1_555
Zn25_5 O70_5 1_555 1_555
Zn26_4 O65_6 1_555 1_555
O83_4 Zn5_6 1_555 1_555
O84_3 Zn7_6 1_555 1_555
O85_3 Zn1_6 1_555 1_555
O86_4 Zn5_6 1_555 1_555
O88_4 Zn6_6 1_555 1_555
O89_3 Zn8_6 1_555 1_555
O90_3 Zn2_6 1_555 1_555
O91_4 Zn6_6 1_555 1_555
O94_6 Zn33_4 1_555 1_555
O102_6 Zn25_4 1_555 1_555
O56_3 C116_6 1_555 1_555
C110_6 C116_6 1_555 1_555
C114_6 C115_6 1_555 1_555
C117_6 C120_6 1_555 1_555
C126_6 C127_6 1_555 1_555
C129_6 C132_6 1_555 1_555
O68_3 C140_6 1_555 1_555
C134_6 C140_6 1_555 1_555
C138_6 C139_6 1_555 1_555
C141_6 C142_6 1_555 1_555
C141_6 C144_6 1_555 1_555
O73_7 Zn26_3 1_555 1_555
Zn34_3 O74_7 1_555 1_555
O81_7 Zn26_3 1_555 1_555
O82_7 Zn26_3 1_555 1_555
O96_7 Zn34_3 1_555 1_555
O104_7 Zn26_3 1_555 1_555
Zn15_5 O1_7 1_555 1_555
O6_7 Zn18_5 1_555 1_555
O54_7 C115_7 1_555 1_555
O55_4 Zn15_5 1_555 1_555
C109_7 O93 1_555 1_555
O56_4 Zn18_5 1_555 1_555
C110_7 C112_7 1_555 1_555
C111_7 C109_7 1_555 1_555
C112_7 C111_7 1_555 1_555
H73_7 C112_7 1_555 1_555
C113_7 C111_7 1_555 1_555
H74_7 C113_7 1_555 1_555
C114_7 C110_7 1_555 1_555
H75_7 C114_7 1_555 1_555
O101 C109_7 1_555 1_555
C115_7 C113_7 1_555 1_555
C116_7 O55_4 1_555 1_555
C117_7 C118_7 1_555 1_555
C118_7 C119_7 1_555 1_555
C119_7 H76_7 1_555 1_555
H77_7 C119_7 1_555 1_555
C120_7 O54_7 1_555 1_555
H78_7 C120_7 1_555 1_555
O61_7 C127_7 1_555 1_555
O62_7 C128_7 1_555 1_555
C121_7 O100_4 1_555 1_555
O63_7 C128_7 1_555 1_555
C122_7 C124_7 1_555 1_555
C123_7 C121_7 1_555 1_555
C124_7 C123_7 1_555 1_555
H79_7 C124_7 1_555 1_555
C125_7 C123_7 1_555 1_555
H80_7 C125_7 1_555 1_555
C126_7 C122_7 1_555 1_555
H81_7 C126_7 1_555 1_555
O108_4 C121_7 1_555 1_555
C127_7 C125_7 1_555 1_555
C128_7 C122_7 1_555 1_555
C129_7 C130_7 1_555 1_555
C130_7 C117_7 1_555 1_555
C131_7 C130_7 1_555 1_555
H82_7 C131_7 1_555 1_555
H83_7 C131_7 1_555 1_555
C132_7 O61_7 1_555 1_555
H84_7 C132_7 1_555 1_555
O66_7 C139_7 1_555 1_555
C133_7 O98_5 1_555 1_555
C134_7 C136_7 1_555 1_555
C135_7 C133_7 1_555 1_555
C136_7 C135_7 1_555 1_555
H85_7 C136_7 1_555 1_555
C137_7 C135_7 1_555 1_555
H86_7 C137_7 1_555 1_555
C138_7 C134_7 1_555 1_555
H87_7 C138_7 1_555 1_555
O106_5 C133_7 1_555 1_555
C139_7 C137_7 1_555 1_555
C140_7 O87_3 1_555 1_555
C141_7 C118_7 1_555 1_555
C142_7 C129_7 1_555 1_555
C143_7 C142_7 1_555 1_555
H88_7 C143_7 1_555 1_555
H89_7 C143_7 1_555 1_555
C144_7 O66_7 1_555 1_555
H90_7 C144_7 1_555 1_555
H91_7 C119_7 1_555 1_555
H92_7 C144_7 1_555 1_555
H93_7 C131_7 1_555 1_555
H94_7 C120_7 1_555 1_555
H95_7 C143_7 1_555 1_555
H96_7 C132_7 1_555 1_555
Zn17_3 O62_7 1_555 1_555
Zn20_3 O63_7 1_555 1_555
O56_4 C116_7 1_555 1_555
C110_7 C116_7 1_555 1_555
C114_7 C115_7 1_555 1_555
C117_7 C120_7 1_555 1_555
C126_7 C127_7 1_555 1_555
C129_7 C132_7 1_555 1_555
O92_3 C140_7 1_555 1_555
C134_7 C140_7 1_555 1_555
C138_7 C139_7 1_555 1_555
C141_7 C142_7 1_555 1_555
C141_7 C144_7 1_555 1_555
Zn15_6 O1_8 1_555 1_555
Zn18_6 O4_4 1_555 1_555
O2_4 C7_4 1_555 1_555
O3_4 Zn15_6 1_555 1_555
C1_4 O93_3 1_555 1_555
O4_4 C8_4 1_555 1_555
C2_4 C4_4 1_555 1_555
C3_4 C1_4 1_555 1_555
O6_8 Zn18_6 1_555 1_555
C4_4 C3_4 1_555 1_555
H1_4 C4_4 1_555 1_555
C5_4 C3_4 1_555 1_555
H2_4 C5_4 1_555 1_555
C6_4 C2_4 1_555 1_555
H3_4 C6_4 1_555 1_555
O101_3 C1_4 1_555 1_555
C7_4 C5_4 1_555 1_555
C8_4 O3_4 1_555 1_555
C9_4 C10_4 1_555 1_555
C10_4 C11_4 1_555 1_555
C11_4 H4_4 1_555 1_555
H5_4 C11_4 1_555 1_555
C12_4 O2_4 1_555 1_555
H6_4 C12_4 1_555 1_555
O10_4 C19_4 1_555 1_555
O11_4 C20_4 1_555 1_555
C13_4 O100_2 1_555 1_555
O12_4 C20_4 1_555 1_555
C14_4 C16_4 1_555 1_555
C15_4 C13_4 1_555 1_555
C16_4 C15_4 1_555 1_555
H7_4 C16_4 1_555 1_555
C17_4 C15_4 1_555 1_555
H8_4 C17_4 1_555 1_555
C18_4 C14_4 1_555 1_555
H9_4 C18_4 1_555 1_555
O108_2 C13_4 1_555 1_555
C19_4 C17_4 1_555 1_555
C20_4 C14_4 1_555 1_555
C21_4 C22_4 1_555 1_555
C22_4 C9_4 1_555 1_555
C23_4 C22_4 1_555 1_555
H10_4 C23_4 1_555 1_555
H11_4 C23_4 1_555 1_555
C24_4 O10_4 1_555 1_555
H12_4 C24_4 1_555 1_555
O15_4 C31_4 1_555 1_555
O86_4 C32_4 1_555 1_555
C25_4 O18_2 1_555 1_555
O91_4 C32_4 1_555 1_555
O18_2 Zn32_2 1_555 1_555
C26_4 C28_4 1_555 1_555
C27_4 C25_4 1_555 1_555
C28_4 C27_4 1_555 1_555
H13_4 C28_4 1_555 1_555
C29_4 C27_4 1_555 1_555
H14_4 C29_4 1_555 1_555
C30_4 C26_4 1_555 1_555
H15_4 C30_4 1_555 1_555
O19_2 C25_4 1_555 1_555
C31_4 C29_4 1_555 1_555
C32_4 C26_4 1_555 1_555
C33_4 C10_4 1_555 1_555
C34_4 C21_4 1_555 1_555
C35_4 C34_4 1_555 1_555
H16_4 C35_4 1_555 1_555
H17_4 C35_4 1_555 1_555
C36_4 O15_4 1_555 1_555
H18_4 C36_4 1_555 1_555
H19_4 C11_4 1_555 1_555
H20_4 C36_4 1_555 1_555
H21_4 C23_4 1_555 1_555
H22_4 C12_4 1_555 1_555
H23_4 C35_4 1_555 1_555
H24_4 C24_4 1_555 1_555
O21_6 C43_6 1_555 1_555
C37_6 O24_4 1_555 1_555
O24_4 Zn31_4 1_555 1_555
C38_6 C40_6 1_555 1_555
C39_6 C37_6 1_555 1_555
C40_6 C39_6 1_555 1_555
H25_6 C40_6 1_555 1_555
C41_6 C39_6 1_555 1_555
H26_6 C41_6 1_555 1_555
C42_6 C38_6 1_555 1_555
H27_6 C42_6 1_555 1_555
O26_4 C37_6 1_555 1_555
C43_6 C41_6 1_555 1_555
C44_6 O83_4 1_555 1_555
C45_6 C46_6 1_555 1_555
C46_6 C47_6 1_555 1_555
C47_6 H28_6 1_555 1_555
H29_6 C47_6 1_555 1_555
C48_6 O21_6 1_555 1_555
H30_6 C48_6 1_555 1_555
O27_6 C55_6 1_555 1_555
O28_6 C56_6 1_555 1_555
C49_6 O96_7 1_555 1_555
O29_6 C56_6 1_555 1_555
C50_6 C52_6 1_555 1_555
C51_6 C49_6 1_555 1_555
C52_6 C51_6 1_555 1_555
H31_6 C52_6 1_555 1_555
C53_6 C51_6 1_555 1_555
H32_6 C53_6 1_555 1_555
C54_6 C50_6 1_555 1_555
H33_6 C54_6 1_555 1_555
O104_7 C49_6 1_555 1_555
C55_6 C53_6 1_555 1_555
C56_6 C50_6 1_555 1_555
C57_6 C58_6 1_555 1_555
C58_6 C45_6 1_555 1_555
C59_6 C58_6 1_555 1_555
H34_6 C59_6 1_555 1_555
H35_6 C59_6 1_555 1_555
C60_6 O27_6 1_555 1_555
H36_6 C60_6 1_555 1_555
O32_6 C67_6 1_555 1_555
O85_3 C68_6 1_555 1_555
C61_6 O99_3 1_555 1_555
O90_3 C68_6 1_555 1_555
C62_6 C64_6 1_555 1_555
C63_6 C61_6 1_555 1_555
C64_6 C63_6 1_555 1_555
H37_6 C64_6 1_555 1_555
C65_6 C63_6 1_555 1_555
H38_6 C65_6 1_555 1_555
C66_6 C62_6 1_555 1_555
H39_6 C66_6 1_555 1_555
O107_3 C61_6 1_555 1_555
C67_6 C65_6 1_555 1_555
C68_6 C62_6 1_555 1_555
C69_6 C46_6 1_555 1_555
C70_6 C57_6 1_555 1_555
C71_6 C70_6 1_555 1_555
H40_6 C71_6 1_555 1_555
H41_6 C71_6 1_555 1_555
C72_6 O32_6 1_555 1_555
H42_6 C72_6 1_555 1_555
H43_6 C47_6 1_555 1_555
H44_6 C72_6 1_555 1_555
H45_6 C59_6 1_555 1_555
H46_6 C48_6 1_555 1_555
H47_6 C71_6 1_555 1_555
H48_6 C60_6 1_555 1_555
O38_5 C79_5 1_555 1_555
C73_5 O41_3 1_555 1_555
O89_3 C80_5 1_555 1_555
O41_3 Zn31_3 1_555 1_555
C74_5 C76_5 1_555 1_555
C75_5 C73_5 1_555 1_555
C76_5 C75_5 1_555 1_555
H49_5 C76_5 1_555 1_555
C77_5 C75_5 1_555 1_555
H50_5 C77_5 1_555 1_555
C78_5 C74_5 1_555 1_555
H51_5 C78_5 1_555 1_555
O43_3 C73_5 1_555 1_555
C79_5 C77_5 1_555 1_555
C80_5 O84_3 1_555 1_555
C81_5 C82_5 1_555 1_555
C82_5 C83_5 1_555 1_555
C83_5 H52_5 1_555 1_555
H53_5 C83_5 1_555 1_555
C84_5 O38_5 1_555 1_555
H54_5 C84_5 1_555 1_555
O44_5 C91_5 1_555 1_555
O45_5 C92_5 1_555 1_555
C85_5 O96_3 1_555 1_555
O46_5 C92_5 1_555 1_555
C86_5 C88_5 1_555 1_555
C87_5 C85_5 1_555 1_555
C88_5 C87_5 1_555 1_555
H55_5 C88_5 1_555 1_555
C89_5 C87_5 1_555 1_555
H56_5 C89_5 1_555 1_555
C90_5 C86_5 1_555 1_555
H57_5 C90_5 1_555 1_555
O104_3 C85_5 1_555 1_555
C91_5 C89_5 1_555 1_555
C92_5 C86_5 1_555 1_555
C93_5 C94_5 1_555 1_555
C94_5 C81_5 1_555 1_555
C95_5 C94_5 1_555 1_555
H58_5 C95_5 1_555 1_555
H59_5 C95_5 1_555 1_555
C96_5 O44_5 1_555 1_555
H60_5 C96_5 1_555 1_555
O49_5 C103_5 1_555 1_555
O50_4 Zn15_6 1_555 1_555
C97_5 O98_3 1_555 1_555
O51_4 Zn18_6 1_555 1_555
C98_5 C100_5 1_555 1_555
C99_5 C97_5 1_555 1_555
C100_5 C99_5 1_555 1_555
H61_5 C100_5 1_555 1_555
C101_5 C99_5 1_555 1_555
H62_5 C101_5 1_555 1_555
C102_5 C98_5 1_555 1_555
H63_5 C102_5 1_555 1_555
O106_3 C97_5 1_555 1_555
C103_5 C101_5 1_555 1_555
C104_5 O50_4 1_555 1_555
C105_5 C82_5 1_555 1_555
C106_5 C93_5 1_555 1_555
C107_5 C106_5 1_555 1_555
H64_5 C107_5 1_555 1_555
H65_5 C107_5 1_555 1_555
C108_5 O49_5 1_555 1_555
H66_5 C108_5 1_555 1_555
H67_5 C83_5 1_555 1_555
H68_5 C108_5 1_555 1_555
H69_5 C95_5 1_555 1_555
H70_5 C84_5 1_555 1_555
H71_5 C107_5 1_555 1_555
H72_5 C96_5 1_555 1_555
Zn16_3 O11_4 1_555 1_555
Zn19_3 O12_4 1_555 1_555
Zn23_4 O26_4 1_555 1_555
Zn23_3 O43_3 1_555 1_555
Zn24_2 O19_2 1_555 1_555
C2_4 C8_4 1_555 1_555
C6_4 C7_4 1_555 1_555
C9_4 C12_4 1_555 1_555
C18_4 C19_4 1_555 1_555
C21_4 C24_4 1_555 1_555
C30_4 C31_4 1_555 1_555
C33_4 C34_4 1_555 1_555
C33_4 C36_4 1_555 1_555
O88_4 C44_6 1_555 1_555
C38_6 C44_6 1_555 1_555
C42_6 C43_6 1_555 1_555
C45_6 C48_6 1_555 1_555
O28_6 Zn16_3 1_555 1_555
O29_6 Zn19_3 1_555 1_555
C54_6 C55_6 1_555 1_555
C57_6 C60_6 1_555 1_555
C66_6 C67_6 1_555 1_555
C69_6 C70_6 1_555 1_555
C69_6 C72_6 1_555 1_555
C74_5 C80_5 1_555 1_555
C78_5 C79_5 1_555 1_555
C81_5 C84_5 1_555 1_555
O45_5 Zn16_3 1_555 1_555
O46_5 Zn19_3 1_555 1_555
C90_5 C91_5 1_555 1_555
C93_5 C96_5 1_555 1_555
O51_4 C104_5 1_555 1_555
C98_5 C104_5 1_555 1_555
C102_5 C103_5 1_555 1_555
C105_5 C106_5 1_555 1_555
C105_5 C108_5 1_555 1_555
O59_7 Zn31_4 1_555 1_555
O60_7 Zn23_4 1_555 1_555
O77_7 Zn23_4 1_555 1_555
O78_7 Zn23_4 1_555 1_555
O94_7 Zn31_4 1_555 1_555
O102_7 Zn23_4 1_555 1_555
Zn15_3 O37_7 1_555 1_555
Zn18_3 O40_4 1_555 1_555
O38_6 C79_6 1_555 1_555
O39_4 Zn15_3 1_555 1_555
C73_6 O41_4 1_555 1_555
O40_4 C80_6 1_555 1_555
O41_4 Zn32_2 1_555 1_555
C74_6 C76_6 1_555 1_555
C75_6 C73_6 1_555 1_555
O42_7 Zn18_3 1_555 1_555
C76_6 C75_6 1_555 1_555
H49_6 C76_6 1_555 1_555
C77_6 C75_6 1_555 1_555
H50_6 C77_6 1_555 1_555
C78_6 C74_6 1_555 1_555
H51_6 C78_6 1_555 1_555
O43_4 C73_6 1_555 1_555
C79_6 C77_6 1_555 1_555
C80_6 O39_4 1_555 1_555
C81_6 C82_6 1_555 1_555
C82_6 C83_6 1_555 1_555
C83_6 H52_6 1_555 1_555
H53_6 C83_6 1_555 1_555
C84_6 O38_6 1_555 1_555
H54_6 C84_6 1_555 1_555
O44_6 C91_6 1_555 1_555
O45_6 C92_6 1_555 1_555
C85_6 O96_2 1_555 1_555
O46_6 C92_6 1_555 1_555
C86_6 C88_6 1_555 1_555
C87_6 C85_6 1_555 1_555
C88_6 C87_6 1_555 1_555
H55_6 C88_6 1_555 1_555
C89_6 C87_6 1_555 1_555
H56_6 C89_6 1_555 1_555
C90_6 C86_6 1_555 1_555
H57_6 C90_6 1_555 1_555
O104_2 C85_6 1_555 1_555
C91_6 C89_6 1_555 1_555
C92_6 C86_6 1_555 1_555
C93_6 C94_6 1_555 1_555
C94_6 C81_6 1_555 1_555
C95_6 C94_6 1_555 1_555
H58_6 C95_6 1_555 1_555
H59_6 C95_6 1_555 1_555
C96_6 O44_6 1_555 1_555
H60_6 C96_6 1_555 1_555
O49_6 C103_6 1_555 1_555
C97_6 O98_2 1_555 1_555
C98_6 C100_6 1_555 1_555
C99_6 C97_6 1_555 1_555
C100_6 C99_6 1_555 1_555
H61_6 C100_6 1_555 1_555
C101_6 C99_6 1_555 1_555
H62_6 C101_6 1_555 1_555
C102_6 C98_6 1_555 1_555
H63_6 C102_6 1_555 1_555
O106_2 C97_6 1_555 1_555
C103_6 C101_6 1_555 1_555
C104_6 O86_3 1_555 1_555
C105_6 C82_6 1_555 1_555
C106_6 C93_6 1_555 1_555
C107_6 C106_6 1_555 1_555
H64_6 C107_6 1_555 1_555
H65_6 C107_6 1_555 1_555
C108_6 O49_6 1_555 1_555
H66_6 C108_6 1_555 1_555
H67_6 C83_6 1_555 1_555
H68_6 C108_6 1_555 1_555
H69_6 C95_6 1_555 1_555
H70_6 C84_6 1_555 1_555
H71_6 C107_6 1_555 1_555
H72_6 C96_6 1_555 1_555
Zn24_2 O43_4 1_555 1_555
C74_6 C80_6 1_555 1_555
C78_6 C79_6 1_555 1_555
C81_6 C84_6 1_555 1_555
O45_6 Zn16_2 1_555 1_555
O46_6 Zn19_2 1_555 1_555
C90_6 C91_6 1_555 1_555
C93_6 C96_6 1_555 1_555
O91_3 C104_6 1_555 1_555
C98_6 C104_6 1_555 1_555
C102_6 C103_6 1_555 1_555
C105_6 C106_6 1_555 1_555
C105_6 C108_6 1_555 1_555
Zn15_4 O37_8 1_555 1_555
O42_8 Zn18_4 1_555 1_555
O84_4 Zn15_4 1_555 1_555
O89_4 Zn18_4 1_555 1_555
O21_7 C43_7 1_555 1_555
C37_7 O24_5 1_555 1_555
O24_5 Zn33_5 1_555 1_555
C38_7 C40_7 1_555 1_555
C39_7 C37_7 1_555 1_555
C40_7 C39_7 1_555 1_555
H25_7 C40_7 1_555 1_555
C41_7 C39_7 1_555 1_555
H26_7 C41_7 1_555 1_555
C42_7 C38_7 1_555 1_555
H27_7 C42_7 1_555 1_555
O26_5 C37_7 1_555 1_555
C43_7 C41_7 1_555 1_555
C44_7 O84_4 1_555 1_555
C45_7 C46_7 1_555 1_555
C46_7 C47_7 1_555 1_555
C47_7 H28_7 1_555 1_555
H29_7 C47_7 1_555 1_555
C48_7 O21_7 1_555 1_555
H30_7 C48_7 1_555 1_555
O27_7 C55_7 1_555 1_555
O28_7 C56_7 1_555 1_555
C49_7 O30_4 1_555 1_555
O29_7 C56_7 1_555 1_555
O30_4 Zn34_4 1_555 1_555
C50_7 C52_7 1_555 1_555
C51_7 C49_7 1_555 1_555
C52_7 C51_7 1_555 1_555
H31_7 C52_7 1_555 1_555
C53_7 C51_7 1_555 1_555
H32_7 C53_7 1_555 1_555
C54_7 C50_7 1_555 1_555
H33_7 C54_7 1_555 1_555
O31_4 C49_7 1_555 1_555
C55_7 C53_7 1_555 1_555
C56_7 C50_7 1_555 1_555
C57_7 C58_7 1_555 1_555
C58_7 C45_7 1_555 1_555
C59_7 C58_7 1_555 1_555
H34_7 C59_7 1_555 1_555
H35_7 C59_7 1_555 1_555
C60_7 O27_7 1_555 1_555
H36_7 C60_7 1_555 1_555
O32_7 C67_7 1_555 1_555
O87_2 C68_7 1_555 1_555
C61_7 O99_4 1_555 1_555
O92_2 C68_7 1_555 1_555
C62_7 C64_7 1_555 1_555
C63_7 C61_7 1_555 1_555
C64_7 C63_7 1_555 1_555
H37_7 C64_7 1_555 1_555
C65_7 C63_7 1_555 1_555
H38_7 C65_7 1_555 1_555
C66_7 C62_7 1_555 1_555
H39_7 C66_7 1_555 1_555
O107_4 C61_7 1_555 1_555
C67_7 C65_7 1_555 1_555
C68_7 C62_7 1_555 1_555
C69_7 C46_7 1_555 1_555
C70_7 C57_7 1_555 1_555
C71_7 C70_7 1_555 1_555
H40_7 C71_7 1_555 1_555
H41_7 C71_7 1_555 1_555
C72_7 O32_7 1_555 1_555
H42_7 C72_7 1_555 1_555
H43_7 C47_7 1_555 1_555
H44_7 C72_7 1_555 1_555
H45_7 C59_7 1_555 1_555
H46_7 C48_7 1_555 1_555
H47_7 C71_7 1_555 1_555
H48_7 C60_7 1_555 1_555
Zn25_5 O26_5 1_555 1_555
Zn26_4 O31_4 1_555 1_555
O89_4 C44_7 1_555 1_555
C38_7 C44_7 1_555 1_555
C42_7 C43_7 1_555 1_555
C45_7 C48_7 1_555 1_555
O28_7 Zn17_2 1_555 1_555
O29_7 Zn20_2 1_555 1_555
C54_7 C55_7 1_555 1_555
C57_7 C60_7 1_555 1_555
C66_7 C67_7 1_555 1_555
C69_7 C70_7 1_555 1_555
C69_7 C72_7 1_555 1_555
O59_8 Zn31_3 1_555 1_555
O60_8 Zn23_3 1_555 1_555
O77_8 Zn23_3 1_555 1_555
O78_8 Zn23_3 1_555 1_555
O94_8 Zn31_3 1_555 1_555
O102_8 Zn23_3 1_555 1_555
O8_6 Zn33_3 1_555 1_555
O9_6 Zn25_3 1_555 1_555
O75_6 Zn25_3 1_555 1_555
O76_6 Zn25_3 1_555 1_555
O95_6 Zn33_3 1_555 1_555
O103_6 Zn25_3 1_555 1_555
O59_9 Zn33 1_555 1_555
O60_9 Zn25 1_555 1_555
O77_9 Zn25 1_555 1_555
O78_9 Zn25 1_555 1_555
O94_9 Zn33 1_555 1_555
O102_9 Zn25 1_555 1_555
Zn33_5 O71_8 1_555 1_555
O72_8 Zn25_5 1_555 1_555
O79_8 Zn25_5 1_555 1_555
O80_8 Zn25_5 1_555 1_555
O97_8 Zn33_5 1_555 1_555
O105_8 Zn25_5 1_555 1_555
Zn32_2 O71_9 1_555 1_555
O72_9 Zn24_2 1_555 1_555
O79_9 Zn24_2 1_555 1_555
O80_9 Zn24_2 1_555 1_555
O97_9 Zn32_2 1_555 1_555
O105_9 Zn24_2 1_555 1_555
O73_8 Zn26_4 1_555 1_555
Zn34_4 O74_8 1_555 1_555
O81_8 Zn26_4 1_555 1_555
O82_8 Zn26_4 1_555 1_555
Zn16_2 O37_9 1_555 1_555
O42_9 Zn19_2 1_555 1_555
O20_9 Zn17_2 1_555 1_555
O25_9 Zn20_2 1_555 1_555
Zn17 O37_10 1_555 1_555
O42_10 Zn20 1_555 1_555
O20_10 Zn16 1_555 1_555
O25_10 Zn19 1_555 1_555
Zn1_7 O1_9 1_555 1_555
O6_9 Zn2_7 1_555 1_555
Zn7_7 O37_11 1_555 1_555
Zn8_7 O40_5 1_555 1_555
O38_7 C79_7 1_555 1_555
O39_5 Zn7_7 1_555 1_555
C73_7 O95 1_555 1_555
O40_5 C80_7 1_555 1_555
C74_7 C76_7 1_555 1_555
C75_7 C73_7 1_555 1_555
O42_11 Zn8_7 1_555 1_555
C76_7 C75_7 1_555 1_555
H49_7 C76_7 1_555 1_555
C77_7 C75_7 1_555 1_555
H50_7 C77_7 1_555 1_555
C78_7 C74_7 1_555 1_555
H51_7 C78_7 1_555 1_555
O103 C73_7 1_555 1_555
C79_7 C77_7 1_555 1_555
C80_7 O39_5 1_555 1_555
C81_7 C82_7 1_555 1_555
C82_7 C83_7 1_555 1_555
C83_7 H52_7 1_555 1_555
H53_7 C83_7 1_555 1_555
C84_7 O38_7 1_555 1_555
H54_7 C84_7 1_555 1_555
O44_7 C91_7 1_555 1_555
O45_7 C92_7 1_555 1_555
C85_7 O97_2 1_555 1_555
O46_7 C92_7 1_555 1_555
C86_7 C88_7 1_555 1_555
C87_7 C85_7 1_555 1_555
C88_7 C87_7 1_555 1_555
H55_7 C88_7 1_555 1_555
C89_7 C87_7 1_555 1_555
H56_7 C89_7 1_555 1_555
C90_7 C86_7 1_555 1_555
H57_7 C90_7 1_555 1_555
O105_2 C85_7 1_555 1_555
C91_7 C89_7 1_555 1_555
C92_7 C86_7 1_555 1_555
C93_7 C94_7 1_555 1_555
C94_7 C81_7 1_555 1_555
C95_7 C94_7 1_555 1_555
H58_7 C95_7 1_555 1_555
H59_7 C95_7 1_555 1_555
C96_7 O44_7 1_555 1_555
H60_7 C96_7 1_555 1_555
O49_7 C103_7 1_555 1_555
O50_5 Zn1_7 1_555 1_555
C97_7 O97_7 1_555 1_555
O51_5 Zn2_7 1_555 1_555
C98_7 C100_7 1_555 1_555
C99_7 C97_7 1_555 1_555
C100_7 C99_7 1_555 1_555
H61_7 C100_7 1_555 1_555
C101_7 C99_7 1_555 1_555
H62_7 C101_7 1_555 1_555
C102_7 C98_7 1_555 1_555
H63_7 C102_7 1_555 1_555
O105_7 C97_7 1_555 1_555
C103_7 C101_7 1_555 1_555
C104_7 O50_5 1_555 1_555
C105_7 C82_7 1_555 1_555
C106_7 C93_7 1_555 1_555
C107_7 C106_7 1_555 1_555
H64_7 C107_7 1_555 1_555
H65_7 C107_7 1_555 1_555
C108_7 O49_7 1_555 1_555
H66_7 C108_7 1_555 1_555
H67_7 C83_7 1_555 1_555
H68_7 C108_7 1_555 1_555
H69_7 C95_7 1_555 1_555
H70_7 C84_7 1_555 1_555
H71_7 C107_7 1_555 1_555
H72_7 C96_7 1_555 1_555
C74_7 C80_7 1_555 1_555
C78_7 C79_7 1_555 1_555
C81_7 C84_7 1_555 1_555
O45_7 Zn17_4 1_555 1_555
O46_7 Zn20_4 1_555 1_555
C90_7 C91_7 1_555 1_555
C93_7 C96_7 1_555 1_555
O51_5 C104_7 1_555 1_555
C98_7 C104_7 1_555 1_555
C102_7 C103_7 1_555 1_555
C105_7 C106_7 1_555 1_555
C105_7 C108_7 1_555 1_555
Zn7_8 O37_12 1_555 1_555
O42_12 Zn8_8 1_555 1_555
O87_4 Zn7_8 1_555 1_555
O92_4 Zn8_8 1_555 1_555
Zn1_8 O1_10 1_555 1_555
Zn2_8 O4_5 1_555 1_555
O2_5 C7_5 1_555 1_555
O3_5 Zn1_8 1_555 1_555
C1_5 O95_5 1_555 1_555
O4_5 C8_5 1_555 1_555
C2_5 C4_5 1_555 1_555
C3_5 C1_5 1_555 1_555
O6_10 Zn2_8 1_555 1_555
C4_5 C3_5 1_555 1_555
H1_5 C4_5 1_555 1_555
C5_5 C3_5 1_555 1_555
H2_5 C5_5 1_555 1_555
C6_5 C2_5 1_555 1_555
H3_5 C6_5 1_555 1_555
O103_5 C1_5 1_555 1_555
C7_5 C5_5 1_555 1_555
C8_5 O3_5 1_555 1_555
C9_5 C10_5 1_555 1_555
C10_5 C11_5 1_555 1_555
C11_5 H4_5 1_555 1_555
H5_5 C11_5 1_555 1_555
C12_5 O2_5 1_555 1_555
H6_5 C12_5 1_555 1_555
O10_5 C19_5 1_555 1_555
O11_5 C20_5 1_555 1_555
C13_5 O95_4 1_555 1_555
O12_5 C20_5 1_555 1_555
C14_5 C16_5 1_555 1_555
C15_5 C13_5 1_555 1_555
C16_5 C15_5 1_555 1_555
H7_5 C16_5 1_555 1_555
C17_5 C15_5 1_555 1_555
H8_5 C17_5 1_555 1_555
C18_5 C14_5 1_555 1_555
H9_5 C18_5 1_555 1_555
O103_4 C13_5 1_555 1_555
C19_5 C17_5 1_555 1_555
C20_5 C14_5 1_555 1_555
C21_5 C22_5 1_555 1_555
C22_5 C9_5 1_555 1_555
C23_5 C22_5 1_555 1_555
H10_5 C23_5 1_555 1_555
H11_5 C23_5 1_555 1_555
C24_5 O10_5 1_555 1_555
H12_5 C24_5 1_555 1_555
O15_5 C31_5 1_555 1_555
O16_4 C32_5 1_555 1_555
C25_5 O97 1_555 1_555
O17_4 C32_5 1_555 1_555
C26_5 C28_5 1_555 1_555
C27_5 C25_5 1_555 1_555
C28_5 C27_5 1_555 1_555
H13_5 C28_5 1_555 1_555
C29_5 C27_5 1_555 1_555
H14_5 C29_5 1_555 1_555
C30_5 C26_5 1_555 1_555
H15_5 C30_5 1_555 1_555
O105 C25_5 1_555 1_555
C31_5 C29_5 1_555 1_555
C32_5 C26_5 1_555 1_555
C33_5 C10_5 1_555 1_555
C34_5 C21_5 1_555 1_555
C35_5 C34_5 1_555 1_555
H16_5 C35_5 1_555 1_555
H17_5 C35_5 1_555 1_555
C36_5 O15_5 1_555 1_555
H18_5 C36_5 1_555 1_555
H19_5 C11_5 1_555 1_555
H20_5 C36_5 1_555 1_555
H21_5 C23_5 1_555 1_555
H22_5 C12_5 1_555 1_555
H23_5 C35_5 1_555 1_555
H24_5 C24_5 1_555 1_555
Zn5_7 O16_4 1_555 1_555
Zn6_7 O17_4 1_555 1_555
O20_11 Zn5_7 1_555 1_555
O25_11 Zn6_7 1_555 1_555
Zn17_6 O11_5 1_555 1_555
Zn20_6 O12_5 1_555 1_555
C2_5 C8_5 1_555 1_555
C6_5 C7_5 1_555 1_555
C9_5 C12_5 1_555 1_555
C18_5 C19_5 1_555 1_555
C21_5 C24_5 1_555 1_555
C30_5 C31_5 1_555 1_555
C33_5 C34_5 1_555 1_555
C33_5 C36_5 1_555 1_555
O20_12 Zn5_8 1_555 1_555
O21_8 C43_8 1_555 1_555
O22_5 Zn5_8 1_555 1_555
C37_8 O94 1_555 1_555
O23_5 Zn6_8 1_555 1_555
C38_8 C40_8 1_555 1_555
C39_8 C37_8 1_555 1_555
O25_12 Zn6_8 1_555 1_555
C40_8 C39_8 1_555 1_555
H25_8 C40_8 1_555 1_555
C41_8 C39_8 1_555 1_555
H26_8 C41_8 1_555 1_555
C42_8 C38_8 1_555 1_555
H27_8 C42_8 1_555 1_555
O102 C37_8 1_555 1_555
C43_8 C41_8 1_555 1_555
C44_8 O22_5 1_555 1_555
C45_8 C46_8 1_555 1_555
C46_8 C47_8 1_555 1_555
C47_8 H28_8 1_555 1_555
H29_8 C47_8 1_555 1_555
C48_8 O21_8 1_555 1_555
H30_8 C48_8 1_555 1_555
O27_8 C55_8 1_555 1_555
O28_8 C56_8 1_555 1_555
C49_8 O94_9 1_555 1_555
O29_8 C56_8 1_555 1_555
C50_8 C52_8 1_555 1_555
C51_8 C49_8 1_555 1_555
C52_8 C51_8 1_555 1_555
H31_8 C52_8 1_555 1_555
C53_8 C51_8 1_555 1_555
H32_8 C53_8 1_555 1_555
C54_8 C50_8 1_555 1_555
H33_8 C54_8 1_555 1_555
O102_9 C49_8 1_555 1_555
C55_8 C53_8 1_555 1_555
C56_8 C50_8 1_555 1_555
C57_8 C58_8 1_555 1_555
C58_8 C45_8 1_555 1_555
C59_8 C58_8 1_555 1_555
H34_8 C59_8 1_555 1_555
H35_8 C59_8 1_555 1_555
C60_8 O27_8 1_555 1_555
H36_8 C60_8 1_555 1_555
O32_8 C67_8 1_555 1_555
O33_5 C68_8 1_555 1_555
C61_8 O97_5 1_555 1_555
O34_5 C68_8 1_555 1_555
C62_8 C64_8 1_555 1_555
C63_8 C61_8 1_555 1_555
C64_8 C63_8 1_555 1_555
H37_8 C64_8 1_555 1_555
C65_8 C63_8 1_555 1_555
H38_8 C65_8 1_555 1_555
C66_8 C62_8 1_555 1_555
H39_8 C66_8 1_555 1_555
O105_5 C61_8 1_555 1_555
C67_8 C65_8 1_555 1_555
C68_8 C62_8 1_555 1_555
C69_8 C46_8 1_555 1_555
C70_8 C57_8 1_555 1_555
C71_8 C70_8 1_555 1_555
H40_8 C71_8 1_555 1_555
H41_8 C71_8 1_555 1_555
C72_8 O32_8 1_555 1_555
H42_8 C72_8 1_555 1_555
H43_8 C47_8 1_555 1_555
H44_8 C72_8 1_555 1_555
H45_8 C59_8 1_555 1_555
H46_8 C48_8 1_555 1_555
H47_8 C71_8 1_555 1_555
H48_8 C60_8 1_555 1_555
Zn15_8 O33_5 1_555 1_555
Zn18_8 O34_5 1_555 1_555
O23_5 C44_8 1_555 1_555
C38_8 C44_8 1_555 1_555
C42_8 C43_8 1_555 1_555
C45_8 C48_8 1_555 1_555
O28_8 Zn17_7 1_555 1_555
O29_8 Zn20_7 1_555 1_555
C54_8 C55_8 1_555 1_555
C57_8 C60_8 1_555 1_555
C66_8 C67_8 1_555 1_555
C69_8 C70_8 1_555 1_555
C69_8 C72_8 1_555 1_555
Zn1_9 O1_11 1_555 1_555
O6_11 Zn2_9 1_555 1_555
Zn7_9 O37_13 1_555 1_555
O42_13 Zn8_9 1_555 1_555
O54_8 C115_8 1_555 1_555
O55_5 Zn1_9 1_555 1_555
C109_8 O97_9 1_555 1_555
O56_5 Zn2_9 1_555 1_555
C110_8 C112_8 1_555 1_555
C111_8 C109_8 1_555 1_555
C112_8 C111_8 1_555 1_555
H73_8 C112_8 1_555 1_555
C113_8 C111_8 1_555 1_555
H74_8 C113_8 1_555 1_555
C114_8 C110_8 1_555 1_555
H75_8 C114_8 1_555 1_555
O105_9 C109_8 1_555 1_555
C115_8 C113_8 1_555 1_555
C116_8 O55_5 1_555 1_555
C117_8 C118_8 1_555 1_555
C118_8 C119_8 1_555 1_555
C119_8 H76_8 1_555 1_555
H77_8 C119_8 1_555 1_555
C120_8 O54_8 1_555 1_555
H78_8 C120_8 1_555 1_555
O61_8 C127_8 1_555 1_555
O62_8 C128_8 1_555 1_555
C121_8 O95_2 1_555 1_555
O63_8 C128_8 1_555 1_555
C122_8 C124_8 1_555 1_555
C123_8 C121_8 1_555 1_555
C124_8 C123_8 1_555 1_555
H79_8 C124_8 1_555 1_555
C125_8 C123_8 1_555 1_555
H80_8 C125_8 1_555 1_555
C126_8 C122_8 1_555 1_555
H81_8 C126_8 1_555 1_555
O103_2 C121_8 1_555 1_555
C127_8 C125_8 1_555 1_555
C128_8 C122_8 1_555 1_555
C129_8 C130_8 1_555 1_555
C130_8 C117_8 1_555 1_555
C131_8 C130_8 1_555 1_555
H82_8 C131_8 1_555 1_555
H83_8 C131_8 1_555 1_555
C132_8 O61_8 1_555 1_555
H84_8 C132_8 1_555 1_555
O66_8 C139_8 1_555 1_555
O67_4 Zn7_9 1_555 1_555
C133_8 O97_3 1_555 1_555
O68_4 Zn8_9 1_555 1_555
C134_8 C136_8 1_555 1_555
C135_8 C133_8 1_555 1_555
C136_8 C135_8 1_555 1_555
H85_8 C136_8 1_555 1_555
C137_8 C135_8 1_555 1_555
H86_8 C137_8 1_555 1_555
C138_8 C134_8 1_555 1_555
H87_8 C138_8 1_555 1_555
O105_3 C133_8 1_555 1_555
C139_8 C137_8 1_555 1_555
C140_8 O67_4 1_555 1_555
C141_8 C118_8 1_555 1_555
C142_8 C129_8 1_555 1_555
C143_8 C142_8 1_555 1_555
H88_8 C143_8 1_555 1_555
H89_8 C143_8 1_555 1_555
C144_8 O66_8 1_555 1_555
H90_8 C144_8 1_555 1_555
H91_8 C119_8 1_555 1_555
H92_8 C144_8 1_555 1_555
H93_8 C131_8 1_555 1_555
H94_8 C120_8 1_555 1_555
H95_8 C143_8 1_555 1_555
H96_8 C132_8 1_555 1_555
Zn16_4 O62_8 1_555 1_555
Zn19_4 O63_8 1_555 1_555
O56_5 C116_8 1_555 1_555
C110_8 C116_8 1_555 1_555
C114_8 C115_8 1_555 1_555
C117_8 C120_8 1_555 1_555
C126_8 C127_8 1_555 1_555
C129_8 C132_8 1_555 1_555
O68_4 C140_8 1_555 1_555
C134_8 C140_8 1_555 1_555
C138_8 C139_8 1_555 1_555
C141_8 C142_8 1_555 1_555
C141_8 C144_8 1_555 1_555
Zn7_10 O37_14 1_555 1_555
O42_14 Zn8_10 1_555 1_555
O84_5 Zn7_10 1_555 1_555
O89_5 Zn8_10 1_555 1_555
Zn1_10 O1_12 1_555 1_555
O6_12 Zn2_10 1_555 1_555
O20_13 Zn5_9 1_555 1_555
O25_13 Zn6_9 1_555 1_555
O83_5 Zn5_9 1_555 1_555
O85_4 Zn1_10 1_555 1_555
O88_5 Zn6_9 1_555 1_555
O90_4 Zn2_10 1_555 1_555
O20_14 Zn5_10 1_555 1_555
O25_14 Zn6_10 1_555 1_555
O86_5 Zn5_10 1_555 1_555
O91_5 Zn6_10 1_555 1_555
Zn15_7 O1_13 1_555 1_555
O6_13 Zn18_7 1_555 1_555
O54_9 C115_9 1_555 1_555
O55_6 Zn15_7 1_555 1_555
C109_9 O94_5 1_555 1_555
O56_6 Zn18_7 1_555 1_555
C110_9 C112_9 1_555 1_555
C111_9 C109_9 1_555 1_555
C112_9 C111_9 1_555 1_555
H73_9 C112_9 1_555 1_555
C113_9 C111_9 1_555 1_555
H74_9 C113_9 1_555 1_555
C114_9 C110_9 1_555 1_555
H75_9 C114_9 1_555 1_555
O102_5 C109_9 1_555 1_555
C115_9 C113_9 1_555 1_555
C116_9 O55_6 1_555 1_555
C117_9 C118_9 1_555 1_555
C118_9 C119_9 1_555 1_555
C119_9 H76_9 1_555 1_555
H77_9 C119_9 1_555 1_555
C120_9 O54_9 1_555 1_555
H78_9 C120_9 1_555 1_555
O61_9 C127_9 1_555 1_555
O62_9 C128_9 1_555 1_555
C121_9 O94_2 1_555 1_555
O63_9 C128_9 1_555 1_555
C122_9 C124_9 1_555 1_555
C123_9 C121_9 1_555 1_555
C124_9 C123_9 1_555 1_555
H79_9 C124_9 1_555 1_555
C125_9 C123_9 1_555 1_555
H80_9 C125_9 1_555 1_555
C126_9 C122_9 1_555 1_555
H81_9 C126_9 1_555 1_555
O102_2 C121_9 1_555 1_555
C127_9 C125_9 1_555 1_555
C128_9 C122_9 1_555 1_555
C129_9 C130_9 1_555 1_555
C130_9 C117_9 1_555 1_555
C131_9 C130_9 1_555 1_555
H82_9 C131_9 1_555 1_555
H83_9 C131_9 1_555 1_555
C132_9 O61_9 1_555 1_555
H84_9 C132_9 1_555 1_555
O66_9 C139_9 1_555 1_555
C133_9 O97_6 1_555 1_555
C134_9 C136_9 1_555 1_555
C135_9 C133_9 1_555 1_555
C136_9 C135_9 1_555 1_555
H85_9 C136_9 1_555 1_555
C137_9 C135_9 1_555 1_555
H86_9 C137_9 1_555 1_555
C138_9 C134_9 1_555 1_555
H87_9 C138_9 1_555 1_555
O105_6 C133_9 1_555 1_555
C139_9 C137_9 1_555 1_555
C140_9 O87_4 1_555 1_555
C141_9 C118_9 1_555 1_555
C142_9 C129_9 1_555 1_555
C143_9 C142_9 1_555 1_555
H88_9 C143_9 1_555 1_555
H89_9 C143_9 1_555 1_555
C144_9 O66_9 1_555 1_555
H90_9 C144_9 1_555 1_555
H91_9 C119_9 1_555 1_555
H92_9 C144_9 1_555 1_555
H93_9 C131_9 1_555 1_555
H94_9 C120_9 1_555 1_555
H95_9 C143_9 1_555 1_555
H96_9 C132_9 1_555 1_555
Zn17_5 O62_9 1_555 1_555
Zn20_5 O63_9 1_555 1_555
O56_6 C116_9 1_555 1_555
C110_9 C116_9 1_555 1_555
C114_9 C115_9 1_555 1_555
C117_9 C120_9 1_555 1_555
C126_9 C127_9 1_555 1_555
C129_9 C132_9 1_555 1_555
O92_4 C140_9 1_555 1_555
C134_9 C140_9 1_555 1_555
C138_9 C139_9 1_555 1_555
C141_9 C142_9 1_555 1_555
C141_9 C144_9 1_555 1_555
Zn15_8 O1_14 1_555 1_555
O6_14 Zn18_8 1_555 1_555
Zn15_9 O1_15 1_555 1_555
O6_15 Zn18_9 1_555 1_555
O38_8 C79_8 1_555 1_555
C73_8 O94_3 1_555 1_555
O89_5 C80_8 1_555 1_555
C74_8 C76_8 1_555 1_555
C75_8 C73_8 1_555 1_555
C76_8 C75_8 1_555 1_555
H49_8 C76_8 1_555 1_555
C77_8 C75_8 1_555 1_555
H50_8 C77_8 1_555 1_555
C78_8 C74_8 1_555 1_555
H51_8 C78_8 1_555 1_555
O102_3 C73_8 1_555 1_555
C79_8 C77_8 1_555 1_555
C80_8 O84_5 1_555 1_555
C81_8 C82_8 1_555 1_555
C82_8 C83_8 1_555 1_555
C83_8 H52_8 1_555 1_555
H53_8 C83_8 1_555 1_555
C84_8 O38_8 1_555 1_555
H54_8 C84_8 1_555 1_555
O44_8 C91_8 1_555 1_555
O45_8 C92_8 1_555 1_555
C85_8 O95_6 1_555 1_555
O46_8 C92_8 1_555 1_555
C86_8 C88_8 1_555 1_555
C87_8 C85_8 1_555 1_555
C88_8 C87_8 1_555 1_555
H55_8 C88_8 1_555 1_555
C89_8 C87_8 1_555 1_555
H56_8 C89_8 1_555 1_555
C90_8 C86_8 1_555 1_555
H57_8 C90_8 1_555 1_555
O103_6 C85_8 1_555 1_555
C91_8 C89_8 1_555 1_555
C92_8 C86_8 1_555 1_555
C93_8 C94_8 1_555 1_555
C94_8 C81_8 1_555 1_555
C95_8 C94_8 1_555 1_555
H58_8 C95_8 1_555 1_555
H59_8 C95_8 1_555 1_555
C96_8 O44_8 1_555 1_555
H60_8 C96_8 1_555 1_555
O49_8 C103_8 1_555 1_555
O50_6 Zn15_9 1_555 1_555
C97_8 O94_7 1_555 1_555
O51_6 Zn18_9 1_555 1_555
C98_8 C100_8 1_555 1_555
C99_8 C97_8 1_555 1_555
C100_8 C99_8 1_555 1_555
H61_8 C100_8 1_555 1_555
C101_8 C99_8 1_555 1_555
H62_8 C101_8 1_555 1_555
C102_8 C98_8 1_555 1_555
H63_8 C102_8 1_555 1_555
O102_7 C97_8 1_555 1_555
C103_8 C101_8 1_555 1_555
C104_8 O50_6 1_555 1_555
C105_8 C82_8 1_555 1_555
C106_8 C93_8 1_555 1_555
C107_8 C106_8 1_555 1_555
H64_8 C107_8 1_555 1_555
H65_8 C107_8 1_555 1_555
C108_8 O49_8 1_555 1_555
H66_8 C108_8 1_555 1_555
H67_8 C83_8 1_555 1_555
H68_8 C108_8 1_555 1_555
H69_8 C95_8 1_555 1_555
H70_8 C84_8 1_555 1_555
H71_8 C107_8 1_555 1_555
H72_8 C96_8 1_555 1_555
C74_8 C80_8 1_555 1_555
C78_8 C79_8 1_555 1_555
C81_8 C84_8 1_555 1_555
O45_8 Zn16_5 1_555 1_555
O46_8 Zn19_5 1_555 1_555
C90_8 C91_8 1_555 1_555
C93_8 C96_8 1_555 1_555
O51_6 C104_8 1_555 1_555
C98_8 C104_8 1_555 1_555
C102_8 C103_8 1_555 1_555
C105_8 C106_8 1_555 1_555
C105_8 C108_8 1_555 1_555
O21_9 C43_9 1_555 1_555
C37_9 O95_3 1_555 1_555
C38_9 C40_9 1_555 1_555
C39_9 C37_9 1_555 1_555
C40_9 C39_9 1_555 1_555
H25_9 C40_9 1_555 1_555
C41_9 C39_9 1_555 1_555
H26_9 C41_9 1_555 1_555
C42_9 C38_9 1_555 1_555
H27_9 C42_9 1_555 1_555
O103_3 C37_9 1_555 1_555
C43_9 C41_9 1_555 1_555
C44_9 O83_5 1_555 1_555
C45_9 C46_9 1_555 1_555
C46_9 C47_9 1_555 1_555
C47_9 H28_9 1_555 1_555
H29_9 C47_9 1_555 1_555
C48_9 O21_9 1_555 1_555
H30_9 C48_9 1_555 1_555
O27_9 C55_9 1_555 1_555
O28_9 C56_9 1_555 1_555
C49_9 O97_4 1_555 1_555
O29_9 C56_9 1_555 1_555
C50_9 C52_9 1_555 1_555
C51_9 C49_9 1_555 1_555
C52_9 C51_9 1_555 1_555
H31_9 C52_9 1_555 1_555
C53_9 C51_9 1_555 1_555
H32_9 C53_9 1_555 1_555
C54_9 C50_9 1_555 1_555
H33_9 C54_9 1_555 1_555
O105_4 C49_9 1_555 1_555
C55_9 C53_9 1_555 1_555
C56_9 C50_9 1_555 1_555
C57_9 C58_9 1_555 1_555
C58_9 C45_9 1_555 1_555
C59_9 C58_9 1_555 1_555
H34_9 C59_9 1_555 1_555
H35_9 C59_9 1_555 1_555
C60_9 O27_9 1_555 1_555
H36_9 C60_9 1_555 1_555
O32_9 C67_9 1_555 1_555
O85_4 C68_9 1_555 1_555
C61_9 O94_8 1_555 1_555
O90_4 C68_9 1_555 1_555
C62_9 C64_9 1_555 1_555
C63_9 C61_9 1_555 1_555
C64_9 C63_9 1_555 1_555
H37_9 C64_9 1_555 1_555
C65_9 C63_9 1_555 1_555
H38_9 C65_9 1_555 1_555
C66_9 C62_9 1_555 1_555
H39_9 C66_9 1_555 1_555
O102_8 C61_9 1_555 1_555
C67_9 C65_9 1_555 1_555
C68_9 C62_9 1_555 1_555
C69_9 C46_9 1_555 1_555
C70_9 C57_9 1_555 1_555
C71_9 C70_9 1_555 1_555
H40_9 C71_9 1_555 1_555
H41_9 C71_9 1_555 1_555
C72_9 O32_9 1_555 1_555
H42_9 C72_9 1_555 1_555
H43_9 C47_9 1_555 1_555
H44_9 C72_9 1_555 1_555
H45_9 C59_9 1_555 1_555
H46_9 C48_9 1_555 1_555
H47_9 C71_9 1_555 1_555
H48_9 C60_9 1_555 1_555
O88_5 C44_9 1_555 1_555
C38_9 C44_9 1_555 1_555
C42_9 C43_9 1_555 1_555
C45_9 C48_9 1_555 1_555
O28_9 Zn16_6 1_555 1_555
O29_9 Zn19_6 1_555 1_555
C54_9 C55_9 1_555 1_555
C57_9 C60_9 1_555 1_555
C66_9 C67_9 1_555 1_555
C69_9 C70_9 1_555 1_555
C69_9 C72_9 1_555 1_555
Zn15_10 O1_16 1_555 1_555
Zn18_10 O4_6 1_555 1_555
O2_6 C7_6 1_555 1_555
O3_6 Zn15_10 1_555 1_555
C1_6 O97_8 1_555 1_555
O4_6 C8_6 1_555 1_555
C2_6 C4_6 1_555 1_555
C3_6 C1_6 1_555 1_555
O6_16 Zn18_10 1_555 1_555
C4_6 C3_6 1_555 1_555
H1_6 C4_6 1_555 1_555
C5_6 C3_6 1_555 1_555
H2_6 C5_6 1_555 1_555
C6_6 C2_6 1_555 1_555
H3_6 C6_6 1_555 1_555
O105_8 C1_6 1_555 1_555
C7_6 C5_6 1_555 1_555
C8_6 O3_6 1_555 1_555
C9_6 C10_6 1_555 1_555
C10_6 C11_6 1_555 1_555
C11_6 H4_6 1_555 1_555
H5_6 C11_6 1_555 1_555
C12_6 O2_6 1_555 1_555
H6_6 C12_6 1_555 1_555
O10_6 C19_6 1_555 1_555
O11_6 C20_6 1_555 1_555
C13_6 O94_4 1_555 1_555
O12_6 C20_6 1_555 1_555
C14_6 C16_6 1_555 1_555
C15_6 C13_6 1_555 1_555
C16_6 C15_6 1_555 1_555
H7_6 C16_6 1_555 1_555
C17_6 C15_6 1_555 1_555
H8_6 C17_6 1_555 1_555
C18_6 C14_6 1_555 1_555
H9_6 C18_6 1_555 1_555
O102_4 C13_6 1_555 1_555
C19_6 C17_6 1_555 1_555
C20_6 C14_6 1_555 1_555
C21_6 C22_6 1_555 1_555
C22_6 C9_6 1_555 1_555
C23_6 C22_6 1_555 1_555
H10_6 C23_6 1_555 1_555
H11_6 C23_6 1_555 1_555
C24_6 O10_6 1_555 1_555
H12_6 C24_6 1_555 1_555
O15_6 C31_6 1_555 1_555
O86_5 C32_6 1_555 1_555
C25_6 O94_6 1_555 1_555
O91_5 C32_6 1_555 1_555
C26_6 C28_6 1_555 1_555
C27_6 C25_6 1_555 1_555
C28_6 C27_6 1_555 1_555
H13_6 C28_6 1_555 1_555
C29_6 C27_6 1_555 1_555
H14_6 C29_6 1_555 1_555
C30_6 C26_6 1_555 1_555
H15_6 C30_6 1_555 1_555
O102_6 C25_6 1_555 1_555
C31_6 C29_6 1_555 1_555
C32_6 C26_6 1_555 1_555
C33_6 C10_6 1_555 1_555
C34_6 C21_6 1_555 1_555
C35_6 C34_6 1_555 1_555
H16_6 C35_6 1_555 1_555
H17_6 C35_6 1_555 1_555
C36_6 O15_6 1_555 1_555
H18_6 C36_6 1_555 1_555
H19_6 C11_6 1_555 1_555
H20_6 C36_6 1_555 1_555
H21_6 C23_6 1_555 1_555
H22_6 C12_6 1_555 1_555
H23_6 C35_6 1_555 1_555
H24_6 C24_6 1_555 1_555
Zn16_7 O11_6 1_555 1_555
Zn19_7 O12_6 1_555 1_555
C2_6 C8_6 1_555 1_555
C6_6 C7_6 1_555 1_555
C9_6 C12_6 1_555 1_555
C18_6 C19_6 1_555 1_555
C21_6 C24_6 1_555 1_555
C30_6 C31_6 1_555 1_555
C33_6 C34_6 1_555 1_555
C33_6 C36_6 1_555 1_555
Zn16_3 O1_17 1_555 1_555
O6_17 Zn19_3 1_555 1_555
O20_15 Zn17_3 1_555 1_555
O25_15 Zn20_3 1_555 1_555
Zn16_4 O1_18 1_555 1_555
O6_18 Zn19_4 1_555 1_555
Zn16_5 O1_19 1_555 1_555
O6_19 Zn19_5 1_555 1_555
Zn16_6 O1_20 1_555 1_555
O6_20 Zn19_6 1_555 1_555
Zn16_7 O1_21 1_555 1_555
O6_21 Zn19_7 1_555 1_555
Zn17_4 O37_15 1_555 1_555
O42_15 Zn20_4 1_555 1_555
Zn17_5 O37_16 1_555 1_555
O42_16 Zn20_5 1_555 1_555
Zn17_6 O37_17 1_555 1_555
O42_17 Zn20_6 1_555 1_555
Zn17_7 O37_18 1_555 1_555
O42_18 Zn20_7 1_555 1_555

#END
