
###############################################################################
#
# This file contains modified crystal structure data generated from the
# MOF subset of the Cambridge Structural Database (CSD) v543 
# hosted by the Cambridge Crystallographic Data Centre (CCDC).
#
# This work is licensed under the Creative Commons
# Attribution-NonCommercial-ShareAlike 4.0 International License.
# To view a copy of this license, visit
# http://creativecommons.org/licenses/by-nc-sa/4.0/
# or send a letter to
# Creative Commons, PO Box 1866, Mountain View, CA 94042, USA.
#
# CIF created using the CSD Python API on 29 September 2022
# The structure has been converted into the P1 space group
# The structure has a 3D framework
# The original CSD entry GUKVIS is in the orthorhombic crystal system
# The framework has been calculated to contain at least 10.0% void space
# The void calculation uses a probe of radius 1.32A, grid spacing 0.4
# H atom positions have been added when not included in the experimental data
#
###############################################################################

data_GUKVIS
_chemical_formula_moiety         '(C40 H8 Al8 O32)n'
_symmetry_cell_setting           triclinic
_symmetry_space_group_name_H-M   'P 1'
_symmetry_Int_Tables_number      1
_space_group_name_Hall           'P 1'
loop_
_symmetry_equiv_pos_site_id
_symmetry_equiv_pos_as_xyz
1 x,y,z
_cell_length_a                   12.13199(12)
_cell_length_b                   6.619279(51)
_cell_length_c                   17.22708(15)
_cell_angle_alpha                90
_cell_angle_beta                 90
_cell_angle_gamma                90
_cell_volume                     1383.42
loop_
_atom_site_label
_atom_site_type_symbol
_atom_site_fract_x
_atom_site_fract_y
_atom_site_fract_z
O12 O 0.67995(78) 0.0009(18) 0.75000
C3 C 0.38017(49) 0.5027(32) 0.00216(48)
O7 O 0.34757(76) 0.3442(11) 0.16946(47)
O8 O 0.35817(63) 0.6685(10) 0.18676(41)
O9 O 0.64417(79) 0.65844(82) 0.17074(42)
O10 O 0.67626(67) 0.32046(78) 0.15465(50)
C6 C 0.55953(47) 0.5123(31) 0.06708(33)
C7 C 0.44490(47) 0.5150(29) 0.07028(32)
C9 C 0.38461(69) 0.5171(16) 0.14746(34)
C10 C 0.63200(62) 0.4885(18) 0.13826(37)
Al3 Al 0.74701(65) 0.7407(15) 0.25000
Al4 Al 0.24701(65) 0.7593(15) 0.25000
Al6 Al 0.25171(73) 0.24394(98) 0.25000
Al7 Al 0.75171(73) 0.25606(98) 0.25000
H1 H 0.290431 0.504719 0.00336948
Al1 Al 0.25299(65) 0.2593(15) 0.75000
Al2 Al 0.74829(73) 0.75606(98) 0.75000
O2 O 0.17995(78) 0.4991(18) 0.75000
O3 O 0.65243(76) 0.6558(11) 0.83054(47)
O4 O 0.64183(63) 0.3315(10) 0.81324(41)
O5 O 0.35583(79) 0.34156(82) 0.82926(42)
O6 O 0.32374(67) 0.67954(78) 0.84535(50)
C1 C 0.44047(47) 0.4877(31) 0.93292(33)
C2 C 0.55510(47) 0.4850(29) 0.92972(32)
C4 C 0.61539(69) 0.4829(16) 0.85254(34)
C5 C 0.36800(62) 0.5115(18) 0.86174(37)
C8 C 0.61983(49) 0.4973(32) 0.99784(48)
Al5 Al 0.75299(65) 0.2407(15) 0.75000
Al9 Al 0.24829(73) 0.74394(98) 0.75000
O11 O 0.81801(79) 0.5102(17) 0.75000
O13 O 0.65243(76) 0.6558(11) 0.66946(47)
O14 O 0.14183(63) 0.1685(10) 0.68676(41)
O15 O 0.14183(63) 0.1685(10) 0.81324(41)
O16 O 0.35583(79) 0.34156(82) 0.67074(42)
O17 O 0.82374(67) 0.82046(78) 0.65465(50)
O18 O 0.82374(67) 0.82046(78) 0.84535(50)
H2 H 0.709569 0.495281 0.996631
O1 O 0.31801(79) 0.9898(17) 0.75000
O1_2 O 0.68199(79) 0.0102(17) 0.25000
O2_2 O 0.82005(78) 0.5009(18) 0.25000
O3_2 O 0.34757(76) 0.3442(11) 0.33054(47)
O4_2 O 0.35817(63) 0.6685(10) 0.31324(41)
O5_2 O 0.64417(79) 0.65844(82) 0.32926(42)
O6_2 O 0.67626(67) 0.32046(78) 0.34535(50)
C1_2 C 0.55953(47) 0.5123(31) 0.43292(33)
C2_2 C 0.44490(47) 0.5150(29) 0.42972(32)
C3_2 C 0.61983(49) 0.4973(32) 0.50216(48)
C4_2 C 0.38461(69) 0.5171(16) 0.35254(34)
C5_2 C 0.63200(62) 0.4885(18) 0.36174(37)
O8_2 O 0.64183(63) 0.3315(10) 0.68676(41)
O10_2 O 0.32374(67) 0.67954(78) 0.65465(50)
C6_2 C 0.44047(47) 0.4877(31) 0.56708(33)
C7_2 C 0.55510(47) 0.4850(29) 0.57028(32)
C8_2 C 0.38017(49) 0.5027(32) 0.49784(48)
C9_2 C 0.61539(69) 0.4829(16) 0.64746(34)
C10_2 C 0.36800(62) 0.5115(18) 0.63826(37)
O11_2 O 0.18199(79) 0.4898(17) 0.25000
O14_2 O 0.85817(63) 0.8315(10) 0.18676(41)
O15_2 O 0.85817(63) 0.8315(10) 0.31324(41)
O17_2 O 0.17626(67) 0.17954(78) 0.15465(50)
O18_2 O 0.17626(67) 0.17954(78) 0.34535(50)
H1_2 H 0.709569 0.495281 0.503369
H2_2 H 0.290431 0.504719 0.496631
O12_2 O 0.32005(78) 0.9991(18) 0.25000
C5_3 C 0.13200(62) 0.0115(18) 0.13826(37)
C3_3 C 0.11983(49) 0.0027(32) 0.99784(48)
C7_3 C 0.05510(47) 0.0150(29) 0.92972(32)
C9_3 C 0.11539(69) 0.0171(16) 0.85254(34)
H1_3 H 0.209569 0.00471878 0.996631
O5_3 O 0.14417(79) 0.84156(82) 0.17074(42)
C1_3 C 0.05953(47) 0.9877(31) 0.06708(33)
O16_2 O 0.14417(79) 0.84156(82) 0.32926(42)
O7_2 O 0.15243(76) 0.8442(11) 0.83054(47)
O3_3 O 0.84757(76) 0.1558(11) 0.16946(47)
O13_2 O 0.84757(76) 0.1558(11) 0.33054(47)
O9_2 O 0.85583(79) 0.15844(82) 0.82926(42)
C6_3 C 0.94047(47) 0.0123(31) 0.93292(33)
C2_3 C 0.94490(47) 0.9850(29) 0.07028(32)
C4_3 C 0.88461(69) 0.9829(16) 0.14746(34)
C8_3 C 0.88017(49) 0.9973(32) 0.00216(48)
H2_3 H 0.790431 0.995281 0.00336948
C10_3 C 0.86800(62) 0.9885(18) 0.86174(37)
C2_4 C 0.05510(47) 0.0150(29) 0.57028(32)
C4_4 C 0.11539(69) 0.0171(16) 0.64746(34)
C8_4 C 0.11983(49) 0.0027(32) 0.50216(48)
C10_4 C 0.13200(62) 0.0115(18) 0.36174(37)
H2_4 H 0.209569 0.00471878 0.503369
O3_4 O 0.15243(76) 0.8442(11) 0.66946(47)
C6_4 C 0.05953(47) 0.9877(31) 0.43292(33)
O5_4 O 0.85583(79) 0.15844(82) 0.67074(42)
C1_4 C 0.94047(47) 0.0123(31) 0.56708(33)
C3_4 C 0.88017(49) 0.9973(32) 0.49784(48)
C5_4 C 0.86800(62) 0.9885(18) 0.63826(37)
C7_4 C 0.94490(47) 0.9850(29) 0.42972(32)
C9_4 C 0.88461(69) 0.9829(16) 0.35254(34)
H1_4 H 0.790431 0.995281 0.496631
loop_
_geom_bond_atom_site_label_1
_geom_bond_atom_site_label_2
_geom_bond_site_symmetry_1
_geom_bond_site_symmetry_2
O7 C9 1_555 1_555
O8 C9 1_555 1_555
O9 C10 1_555 1_555
O10 C10 1_555 1_555
C6 C7 1_555 1_555
C7 C3 1_555 1_555
C9 C7 1_555 1_555
C10 C6 1_555 1_555
Al3 O9 1_555 1_555
Al4 O8 1_555 1_555
Al6 O7 1_555 1_555
Al7 O10 1_555 1_555
C3 H1 1_555 1_555
Al2 O3 1_555 1_555
O2 Al1 1_555 1_555
O3 C4 1_555 1_555
O4 C4 1_555 1_555
O5 Al1 1_555 1_555
O6 C5 1_555 1_555
C1 C2 1_555 1_555
C2 C4 1_555 1_555
C5 O5 1_555 1_555
C8 C2 1_555 1_555
Al5 O4 1_555 1_555
Al9 O2 1_555 1_555
O11 Al2 1_555 1_555
O13 Al2 1_555 1_555
O14 Al1 1_555 1_555
O15 Al1 1_555 1_555
O16 Al1 1_555 1_555
O17 Al2 1_555 1_555
O18 Al2 1_555 1_555
O6 Al9 1_555 1_555
C1 C5 1_555 1_555
Al5 O11 1_555 1_555
C8 H2 1_555 1_555
O1 Al9 1_555 1_555
O1_2 Al7 1_555 1_555
Al6 O3_2 1_555 1_555
O2_2 Al3 1_555 1_555
O3_2 C4_2 1_555 1_555
O4_2 C4_2 1_555 1_555
O5_2 Al3 1_555 1_555
O6_2 C5_2 1_555 1_555
C1_2 C2_2 1_555 1_555
C2_2 C4_2 1_555 1_555
C3_2 C1_2 1_555 1_555
C5_2 O5_2 1_555 1_555
O13 C9_2 1_555 1_555
O8_2 C9_2 1_555 1_555
O16 C10_2 1_555 1_555
O10_2 C10_2 1_555 1_555
C6_2 C7_2 1_555 1_555
C7_2 C3_2 1_555 1_555
C8_2 C2_2 1_555 1_555
C9_2 C7_2 1_555 1_555
C10_2 C6_2 1_555 1_555
Al5 O8_2 1_555 1_555
Al4 O4_2 1_555 1_555
Al9 O10_2 1_555 1_555
Al7 O2_2 1_555 1_555
O11_2 Al6 1_555 1_555
O14_2 Al3 1_555 1_555
O15_2 Al3 1_555 1_555
O17_2 Al6 1_555 1_555
O18_2 Al6 1_555 1_555
O6_2 Al7 1_555 1_555
C1_2 C5_2 1_555 1_555
C6_2 C8_2 1_555 1_555
Al4 O11_2 1_555 1_555
C3_2 H1_2 1_555 1_555
C8_2 H2_2 1_555 1_555
O17_2 C5_3 1_555 1_555
O15 C9_3 1_555 1_555
C7_3 C3_3 1_555 1_555
C9_3 C7_3 1_555 1_555
C3_3 H1_3 1_555 1_555
O12_2 Al4 1_555 1_555
O5_3 Al4 1_555 1_555
O16_2 Al4 1_555 1_555
Al9 O7_2 1_555 1_555
Al7 O3_3 1_555 1_555
O13_2 Al7 1_555 1_555
Al5 O9_2 1_555 1_555
O14_2 C4_3 1_555 1_555
C2_3 C4_3 1_555 1_555
C8_3 C2_3 1_555 1_555
C8_3 H2_3 1_555 1_555
O18 C10_3 1_555 1_555
O14 C4_4 1_555 1_555
C2_4 C4_4 1_555 1_555
O18_2 C10_4 1_555 1_555
C8_4 C2_4 1_555 1_555
C8_4 H2_4 1_555 1_555
Al9 O3_4 1_555 1_555
O12 Al5 1_555 1_555
O5_4 Al5 1_555 1_555
O17 C5_4 1_555 1_555
O15_2 C9_4 1_555 1_555
C7_4 C3_4 1_555 1_555
C9_4 C7_4 1_555 1_555
C3_4 H1_4 1_555 1_555

#END
