
###############################################################################
#
# This file contains modified crystal structure data generated from the
# MOF subset of the Cambridge Structural Database (CSD) v543 
# hosted by the Cambridge Crystallographic Data Centre (CCDC).
#
# This work is licensed under the Creative Commons
# Attribution-NonCommercial-ShareAlike 4.0 International License.
# To view a copy of this license, visit
# http://creativecommons.org/licenses/by-nc-sa/4.0/
# or send a letter to
# Creative Commons, PO Box 1866, Mountain View, CA 94042, USA.
#
# CIF created using the CSD Python API on 29 September 2022
# The structure has been converted into the P1 space group
# The structure has a 3D framework
# The original CSD entry GUKVAK is in the monoclinic crystal system
# The framework has been calculated to contain at least 10.0% void space
# The void calculation uses a probe of radius 1.32A, grid spacing 0.4
# H atom positions have been added when not included in the experimental data
# Generated hydrogen atom positions removed from atoms on special positions
#
###############################################################################

data_GUKVAK
_chemical_formula_moiety         '(C40 H32 Al8 O44)n'
_symmetry_cell_setting           triclinic
_symmetry_space_group_name_H-M   'P 1'
_symmetry_Int_Tables_number      1
_space_group_name_Hall           'P 1'
loop_
_symmetry_equiv_pos_site_id
_symmetry_equiv_pos_as_xyz
1 x,y,z
_cell_length_a                   11.365(3)
_cell_length_b                   6.822(2)
_cell_length_c                   17.733(2)
_cell_angle_alpha                90
_cell_angle_beta                 90.62(4)
_cell_angle_gamma                90
_cell_volume                     1374.79
loop_
_atom_site_label
_atom_site_type_symbol
_atom_site_fract_x
_atom_site_fract_y
_atom_site_fract_z
C6 C 0.6286(7) 0.0341(11) 0.1406(4)
C7 C 0.5574(8) 0.0219(11) 0.0700(4)
C9 C 0.5819(7) 0.1520(11) 0.0109(4)
H2 H 0.6356 0.2532 0.0181
O9 O 0.8034(5) 0.0340(7) 0.2708(3)
O14 O 0.6680(5) 0.1989(8) 0.1591(3)
Al5 Al 0.7582(2) 0.2856(3) 0.24411(12)
C3 C 0.5651(8) 0.2564(13) 0.8767(4)
C5 C 0.5242(8) 0.1284(11) 0.9399(4)
O1 O 0.3554(5) 0.1243(8) 0.8240(3)
O3 O 0.6164(5) 0.1588(8) 0.8248(3)
O5 O 0.1251(7) 0.2575(9) 0.8100(3)
O6 O 0.5469(7) 0.4369(9) 0.8786(3)
Al1 Al 0.2582(2) 0.2144(3) 0.74411(12)
O8 O 0.3034(5) 0.4660(7) 0.7708(3)
O12 O 0.3836(5) 0.1588(8) 0.6752(3)
O15 O 0.1680(5) 0.3011(8) 0.6591(3)
Al4 Al 0.7418(2) 0.2144(3) 0.75589(12)
C8 C 0.4349(8) 0.7436(13) 0.1233(4)
C10 C 0.4758(8) 0.8716(11) 0.0601(4)
O7 O 0.6446(5) 0.8757(8) 0.1760(3)
O10 O 0.6966(5) 0.5340(7) 0.2292(3)
O11 O 0.3836(5) 0.8412(8) 0.1752(3)
O13 O 0.6164(5) 0.8412(8) 0.3248(3)
O16 O 0.8320(5) 0.6989(8) 0.3409(3)
O17 O 0.8749(7) 0.7425(9) 0.1900(3)
O18 O 0.4531(7) 0.5631(9) 0.1214(3)
Al2 Al 0.7418(2) 0.7856(3) 0.25589(12)
Al6 Al 0.2582(2) 0.7856(3) 0.24411(12)
C1 C 0.3714(7) 0.9659(11) 0.8594(4)
C2 C 0.4426(8) 0.9781(11) 0.9300(4)
C4 C 0.4181(7) 0.8480(11) 0.9891(4)
H1 H 0.3644 0.7468 0.9819
O2 O 0.1966(5) 0.9660(7) 0.7292(3)
O4 O 0.3320(5) 0.8011(8) 0.8409(3)
Al3 Al 0.2418(2) 0.7144(3) 0.75589(12)
C6_2 C 0.1286(7) 0.5341(11) 0.1406(4)
C7_2 C 0.0574(8) 0.5219(11) 0.0700(4)
C9_2 C 0.0819(7) 0.6520(11) 0.0109(4)
H2_2 H 0.1356 0.7532 0.0181
O7_2 O 0.1446(5) 0.3757(8) 0.1760(3)
O9_2 O 0.3034(5) 0.5340(7) 0.2708(3)
O10_2 O 0.1966(5) 0.0340(7) 0.2292(3)
O13_2 O 0.1164(5) 0.3412(8) 0.3248(3)
O14_2 O 0.1680(5) 0.6989(8) 0.1591(3)
O16_2 O 0.3320(5) 0.1989(8) 0.3409(3)
O17_2 O 0.3749(7) 0.2425(9) 0.1900(3)
Al2_2 Al 0.2418(2) 0.2856(3) 0.25589(12)
C3_2 C 0.0651(8) 0.7564(13) 0.8767(4)
C5_2 C 0.0242(8) 0.6284(11) 0.9399(4)
O3_2 O 0.1164(5) 0.6588(8) 0.8248(3)
O6_2 O 0.0469(7) 0.9369(9) 0.8786(3)
C8_2 C 0.9349(8) 0.2436(13) 0.1233(4)
C10_2 C 0.9758(8) 0.3716(11) 0.0601(4)
O11_2 O 0.8836(5) 0.3412(8) 0.1752(3)
O18_2 O 0.9531(7) 0.0631(9) 0.1214(3)
C1_2 C 0.8714(7) 0.4659(11) 0.8594(4)
C2_2 C 0.9426(8) 0.4781(11) 0.9300(4)
C4_2 C 0.9181(7) 0.3480(11) 0.9891(4)
H1_2 H 0.8644 0.2468 0.9819
O1_2 O 0.8554(5) 0.6243(8) 0.8240(3)
O2_2 O 0.6966(5) 0.4660(7) 0.7292(3)
O4_2 O 0.8320(5) 0.3011(8) 0.8409(3)
O5_2 O 0.6251(7) 0.7575(9) 0.8100(3)
Al1_2 Al 0.7582(2) 0.7144(3) 0.74411(12)
O8_2 O 0.8034(5) 0.9660(7) 0.7708(3)
O12_2 O 0.8836(5) 0.6588(8) 0.6752(3)
O15_2 O 0.6680(5) 0.8011(8) 0.6591(3)
C3_3 C 0.4349(8) 0.2564(13) 0.6233(4)
C5_3 C 0.4758(8) 0.1284(11) 0.5601(4)
O1_3 O 0.6446(5) 0.1243(8) 0.6760(3)
O5_3 O 0.8749(7) 0.2575(9) 0.6900(3)
O6_3 O 0.4531(7) 0.4369(9) 0.6214(3)
C6_3 C 0.3714(7) 0.0341(11) 0.3594(4)
C7_3 C 0.4426(8) 0.0219(11) 0.4300(4)
C9_3 C 0.4181(7) 0.1520(11) 0.4891(4)
H2_3 H 0.3644 0.2532 0.4819
C1_3 C 0.6286(7) 0.9659(11) 0.6406(4)
C2_3 C 0.5574(8) 0.9781(11) 0.5700(4)
C4_3 C 0.5819(7) 0.8480(11) 0.5109(4)
H1_3 H 0.6356 0.7468 0.5181
C8_3 C 0.5651(8) 0.7436(13) 0.3767(4)
C10_3 C 0.5242(8) 0.8716(11) 0.4399(4)
O7_3 O 0.3554(5) 0.8757(8) 0.3240(3)
O17_3 O 0.1251(7) 0.7425(9) 0.3100(3)
O18_3 O 0.5469(7) 0.5631(9) 0.3786(3)
C1_4 C 0.1286(7) 0.4659(11) 0.6406(4)
C2_4 C 0.0574(8) 0.4781(11) 0.5700(4)
C4_4 C 0.0819(7) 0.3480(11) 0.5109(4)
H1_4 H 0.1356 0.2468 0.5181
O1_4 O 0.1446(5) 0.6243(8) 0.6760(3)
O5_4 O 0.3749(7) 0.7575(9) 0.6900(3)
C8_4 C 0.0651(8) 0.2436(13) 0.3767(4)
C10_4 C 0.0242(8) 0.3716(11) 0.4399(4)
O18_4 O 0.0469(7) 0.0631(9) 0.3786(3)
C3_4 C 0.9349(8) 0.7564(13) 0.6233(4)
C5_4 C 0.9758(8) 0.6284(11) 0.5601(4)
O6_4 O 0.9531(7) 0.9369(9) 0.6214(3)
C6_4 C 0.8714(7) 0.5341(11) 0.3594(4)
C7_4 C 0.9426(8) 0.5219(11) 0.4300(4)
C9_4 C 0.9181(7) 0.6520(11) 0.4891(4)
H2_4 H 0.8644 0.7532 0.4819
O7_4 O 0.8554(5) 0.3757(8) 0.3240(3)
O17_4 O 0.6251(7) 0.2425(9) 0.3100(3)
loop_
_geom_bond_atom_site_label_1
_geom_bond_atom_site_label_2
_geom_bond_site_symmetry_1
_geom_bond_site_symmetry_2
C6 C7 1_555 1_555
C7 C9 1_555 1_555
H2 C9 1_555 1_555
O14 C6 1_555 1_555
Al5 O9 1_555 1_555
O14 Al5 1_555 1_555
C3 C5 1_555 1_555
O3 C3 1_555 1_555
O5 Al1 1_555 1_555
O6 C3 1_555 1_555
Al1 O1 1_555 1_555
O8 Al1 1_555 1_555
O12 Al1 1_555 1_555
O15 Al1 1_555 1_555
Al4 O3 1_555 1_555
C8 C10 1_555 1_555
O10 Al2 1_555 1_555
O11 C8 1_555 1_555
O13 Al2 1_555 1_555
O16 Al2 1_555 1_555
O17 Al2 1_555 1_555
O18 C8 1_555 1_555
Al2 O7 1_555 1_555
Al6 O11 1_555 1_555
C1 C2 1_555 1_555
C2 C4 1_555 1_555
C4 H1 1_555 1_555
O4 C1 1_555 1_555
Al3 O2 1_555 1_555
O4 Al3 1_555 1_555
C6_2 C7_2 1_555 1_555
C7_2 C9_2 1_555 1_555
H2_2 C9_2 1_555 1_555
O7_2 C6_2 1_555 1_555
O9_2 Al2_2 1_555 1_555
O10_2 Al2_2 1_555 1_555
O13_2 Al2_2 1_555 1_555
O14_2 C6_2 1_555 1_555
O16_2 Al2_2 1_555 1_555
O17_2 Al2_2 1_555 1_555
Al2_2 O7_2 1_555 1_555
Al6 O9_2 1_555 1_555
O14_2 Al6 1_555 1_555
C3_2 C5_2 1_555 1_555
O3_2 C3_2 1_555 1_555
O6_2 C3_2 1_555 1_555
Al3 O3_2 1_555 1_555
C8_2 C10_2 1_555 1_555
O11_2 C8_2 1_555 1_555
O18_2 C8_2 1_555 1_555
Al5 O11_2 1_555 1_555
C1_2 C2_2 1_555 1_555
C2_2 C4_2 1_555 1_555
C4_2 H1_2 1_555 1_555
O1_2 C1_2 1_555 1_555
O2_2 Al1_2 1_555 1_555
O4_2 C1_2 1_555 1_555
O5_2 Al1_2 1_555 1_555
Al1_2 O1_2 1_555 1_555
O8_2 Al1_2 1_555 1_555
O12_2 Al1_2 1_555 1_555
O15_2 Al1_2 1_555 1_555
Al4 O2_2 1_555 1_555
O4_2 Al4 1_555 1_555
C3_3 C5_3 1_555 1_555
O12 C3_3 1_555 1_555
O5_3 Al4 1_555 1_555
O6_3 C3_3 1_555 1_555
Al4 O1_3 1_555 1_555
C6_3 C7_3 1_555 1_555
C7_3 C9_3 1_555 1_555
C9_3 C5_3 1_555 1_555
H2_3 C9_3 1_555 1_555
O16_2 C6_3 1_555 1_555
C1_3 C2_3 1_555 1_555
C2_3 C4_3 1_555 1_555
C4_3 H1_3 1_555 1_555
O15_2 C1_3 1_555 1_555
C8_3 C10_3 1_555 1_555
C10_3 C4_3 1_555 1_555
O13 C8_3 1_555 1_555
O17_3 Al6 1_555 1_555
O18_3 C8_3 1_555 1_555
Al6 O7_3 1_555 1_555
C1_4 C2_4 1_555 1_555
C2_4 C4_4 1_555 1_555
C4_4 H1_4 1_555 1_555
O1_4 C1_4 1_555 1_555
O8 Al3 1_555 1_555
O15 C1_4 1_555 1_555
O5_4 Al3 1_555 1_555
Al3 O1_4 1_555 1_555
C8_4 C10_4 1_555 1_555
C10_4 C4_4 1_555 1_555
O13_2 C8_4 1_555 1_555
O18_4 C8_4 1_555 1_555
C3_4 C5_4 1_555 1_555
O12_2 C3_4 1_555 1_555
O6_4 C3_4 1_555 1_555
C6_4 C7_4 1_555 1_555
C7_4 C9_4 1_555 1_555
C9_4 C5_4 1_555 1_555
H2_4 C9_4 1_555 1_555
O7_4 C6_4 1_555 1_555
O10 Al5 1_555 1_555
O16 C6_4 1_555 1_555
O17_4 Al5 1_555 1_555
Al5 O7_4 1_555 1_555

#END
