
###############################################################################
#
# This file contains modified crystal structure data generated from the
# MOF subset of the Cambridge Structural Database (CSD) v543 
# hosted by the Cambridge Crystallographic Data Centre (CCDC).
#
# This work is licensed under the Creative Commons
# Attribution-NonCommercial-ShareAlike 4.0 International License.
# To view a copy of this license, visit
# http://creativecommons.org/licenses/by-nc-sa/4.0/
# or send a letter to
# Creative Commons, PO Box 1866, Mountain View, CA 94042, USA.
#
# CIF created using the CSD Python API on 29 September 2022
# The structure has been converted into the P1 space group
# The structure has a 3D framework
# The original CSD entry GUKVEO is in the orthorhombic crystal system
# The framework has been calculated to contain at least 10.0% void space
# The void calculation uses a probe of radius 1.32A, grid spacing 0.4
# H atom positions have been added when not included in the experimental data
#
###############################################################################

data_GUKVEO
_chemical_formula_moiety         '(C20 H4 Al5 O16)n'
_symmetry_cell_setting           triclinic
_symmetry_space_group_name_H-M   'P 1'
_symmetry_Int_Tables_number      1
_space_group_name_Hall           'P 1'
loop_
_symmetry_equiv_pos_site_id
_symmetry_equiv_pos_as_xyz
1 x,y,z
_cell_length_a                   11.33220(25)
_cell_length_b                   6.61885(14)
_cell_length_c                   8.72167(23)
_cell_angle_alpha                90
_cell_angle_beta                 90
_cell_angle_gamma                90
_cell_volume                     654.179
loop_
_atom_site_label
_atom_site_type_symbol
_atom_site_fract_x
_atom_site_fract_y
_atom_site_fract_z
_atom_site_U_iso_or_equiv
_atom_site_thermal_displace_type
Al8 Al 0.25619(64) 0.17472(82) 0.00000 0.0184 Uiso
O1 O 0.14286(49) 0.09011(72) 0.14943(56) 0.0184 Uiso
O3 O 0.17530(71) 0.4225(15) 0.00000 0.0184 Uiso
Al4 Al 0.24381(64) 0.67472(82) 0.00000 0.0184 Uiso
Al8_2 Al 0.25619(64) 0.17472(82) 1.00000 0.0184 Uiso
O6 O 0.14286(49) 0.09011(72) 0.85057(56) 0.0184 Uiso
O13 O 0.34929(53) 0.25290(66) 0.16386(72) 0.0184 Uiso
O3_2 O 0.17530(71) 0.4225(15) 1.00000 0.0184 Uiso
Al4_2 Al 0.24381(64) 0.67472(82) 1.00000 0.0184 Uiso
O12 O 0.34929(53) 0.25290(66) 0.83614(72) 0.0184 Uiso
O2 O 0.15071(53) 0.75290(66) 0.16386(72) 0.0184 Uiso
C1 C 0.11362(82) 0.8910(18) 0.50000 0.0184 Uiso
C2 C 0.05587(31) 0.9539(10) 0.36617(42) 0.0184 Uiso
C3 C 0.11872(54) 0.92491(68) 0.21575(51) 0.0184 Uiso
O11 O 0.15071(53) 0.75290(66) 0.83614(72) 0.0184 Uiso
O16 O 0.32470(71) 0.9225(15) 0.00000 0.0184 Uiso
C5 C 0.05587(31) 0.9539(10) 0.63383(42) 0.0184 Uiso
C10 C 0.11872(54) 0.92491(68) 0.78425(51) 0.0184 Uiso
H1 H 0.194701 0.802688 0.5 . .
O16_2 O 0.32470(71) 0.9225(15) 1.00000 0.0184 Uiso
Al7 Al 0.75619(64) 0.32528(82) 0.00000 0.0184 Uiso
Al7_2 Al 0.75619(64) 0.32528(82) 1.00000 0.0184 Uiso
O9 O 0.84929(53) 0.24710(66) 0.16386(72) 0.0184 Uiso
O10 O 0.84929(53) 0.24710(66) 0.83614(72) 0.0184 Uiso
O18 O 0.67530(71) 0.0775(15) 0.00000 0.0184 Uiso
C4 C 0.88638(82) 0.1090(18) 0.50000 0.0184 Uiso
C6 C 0.94413(31) 0.0461(10) 0.63383(42) 0.0184 Uiso
C7 C 0.94413(31) 0.0461(10) 0.36617(42) 0.0184 Uiso
C8 C 0.88128(54) 0.07509(68) 0.21575(51) 0.0184 Uiso
C9 C 0.88128(54) 0.07509(68) 0.78425(51) 0.0184 Uiso
H2 H 0.805299 0.197312 0.5 . .
O18_2 O 0.67530(71) 0.0775(15) 1.00000 0.0184 Uiso
Al6 Al 0.74381(64) 0.82528(82) 0.00000 0.0184 Uiso
Al6_2 Al 0.74381(64) 0.82528(82) 1.00000 0.0184 Uiso
O4 O 0.85714(49) 0.90989(72) 0.14943(56) 0.0184 Uiso
O5 O 0.85714(49) 0.90989(72) 0.85057(56) 0.0184 Uiso
O15 O 0.65071(53) 0.74710(66) 0.16386(72) 0.0184 Uiso
O17 O 0.82470(71) 0.5775(15) 0.00000 0.0184 Uiso
O14 O 0.65071(53) 0.74710(66) 0.83614(72) 0.0184 Uiso
O17_2 O 0.82470(71) 0.5775(15) 1.00000 0.0184 Uiso
O7 O 0.64286(49) 0.40989(72) 0.14943(56) 0.0184 Uiso
O8 O 0.35714(49) 0.59011(72) 0.14943(56) 0.0184 Uiso
O1_2 O 0.64286(49) 0.40989(72) 0.85057(56) 0.0184 Uiso
C1_2 C 0.61362(82) 0.6090(18) 0.50000 0.0184 Uiso
C2_2 C 0.55587(31) 0.5461(10) 0.63383(42) 0.0184 Uiso
C3_2 C 0.61872(54) 0.57509(68) 0.78425(51) 0.0184 Uiso
O4_2 O 0.35714(49) 0.59011(72) 0.85057(56) 0.0184 Uiso
C4_2 C 0.38638(82) 0.3910(18) 0.50000 0.0184 Uiso
C5_2 C 0.55587(31) 0.5461(10) 0.36617(42) 0.0184 Uiso
C6_2 C 0.44413(31) 0.4539(10) 0.36617(42) 0.0184 Uiso
C7_2 C 0.44413(31) 0.4539(10) 0.63383(42) 0.0184 Uiso
C8_2 C 0.38128(54) 0.42491(68) 0.78425(51) 0.0184 Uiso
C9_2 C 0.38128(54) 0.42491(68) 0.21575(51) 0.0184 Uiso
C10_2 C 0.61872(54) 0.57509(68) 0.21575(51) 0.0184 Uiso
H1_2 H 0.694701 0.697312 0.5 . .
H2_2 H 0.305299 0.302688 0.5 . .
loop_
_geom_bond_atom_site_label_1
_geom_bond_atom_site_label_2
_geom_bond_site_symmetry_1
_geom_bond_site_symmetry_2
Al8 O1 1_555 1_555
O3 Al8 1_555 1_555
Al4 O3 1_555 1_555
Al8_2 O6 1_555 1_555
O13 Al8 1_555 1_555
O3_2 Al8_2 1_555 1_555
Al4_2 O3_2 1_555 1_555
O12 Al8_2 1_555 1_555
O2 C3 1_555 1_555
C1 C2 1_555 1_555
C2 C3 1_555 1_555
Al4 O2 1_555 1_555
Al4_2 O11 1_555 1_555
O11 C10 1_555 1_555
C5 C1 1_555 1_555
C10 C5 1_555 1_555
Al4 O16 1_555 1_555
C1 H1 1_555 1_555
Al4_2 O16_2 1_555 1_555
Al7 O9 1_555 1_555
Al7_2 O10 1_555 1_555
O9 C8 1_555 1_555
O10 C9 1_555 1_555
C4 C6 1_555 1_555
C8 C7 1_555 1_555
C9 C6 1_555 1_555
Al7 O18 1_555 1_555
C4 C7 1_555 1_555
C4 H2 1_555 1_555
Al7_2 O18_2 1_555 1_555
Al6 O4 1_555 1_555
Al6_2 O5 1_555 1_555
O15 Al6 1_555 1_555
O17 Al6 1_555 1_555
O14 Al6_2 1_555 1_555
O17_2 Al6_2 1_555 1_555
Al7 O17 1_555 1_555
Al7_2 O17_2 1_555 1_555
O7 Al7 1_555 1_555
O8 Al4 1_555 1_555
Al7_2 O1_2 1_555 1_555
O1_2 C3_2 1_555 1_555
O14 C3_2 1_555 1_555
C1_2 C2_2 1_555 1_555
C2_2 C3_2 1_555 1_555
Al4_2 O4_2 1_555 1_555
O4_2 C8_2 1_555 1_555
O8 C9_2 1_555 1_555
O7 C10_2 1_555 1_555
O12 C8_2 1_555 1_555
O13 C9_2 1_555 1_555
O15 C10_2 1_555 1_555
C4_2 C6_2 1_555 1_555
C5_2 C1_2 1_555 1_555
C6_2 C5_2 1_555 1_555
C7_2 C2_2 1_555 1_555
C8_2 C7_2 1_555 1_555
C9_2 C6_2 1_555 1_555
C10_2 C5_2 1_555 1_555
C4_2 C7_2 1_555 1_555
C1_2 H1_2 1_555 1_555
C4_2 H2_2 1_555 1_555

#END
