
###############################################################################
#
# This file contains modified crystal structure data generated from the
# MOF subset of the Cambridge Structural Database (CSD) v543 
# hosted by the Cambridge Crystallographic Data Centre (CCDC).
#
# This work is licensed under the Creative Commons
# Attribution-NonCommercial-ShareAlike 4.0 International License.
# To view a copy of this license, visit
# http://creativecommons.org/licenses/by-nc-sa/4.0/
# or send a letter to
# Creative Commons, PO Box 1866, Mountain View, CA 94042, USA.
#
# CIF created using the CSD Python API on 29 September 2022
# The structure has been converted into the P1 space group
# The structure has a 3D framework
# The original CSD entry GUKYUI is in the monoclinic crystal system
# The framework has been calculated to contain at least 10.0% void space
# The void calculation uses a probe of radius 1.32A, grid spacing 0.4
# The framework is charged, counterions have been retained in the structure
#
###############################################################################

data_GUKYUI
_chemical_formula_moiety         '(C36 H44 Br2 Ca2 N8 O12 2+)n'
_symmetry_cell_setting           triclinic
_symmetry_space_group_name_H-M   'P 1'
_symmetry_Int_Tables_number      1
_space_group_name_Hall           'P 1'
loop_
_symmetry_equiv_pos_site_id
_symmetry_equiv_pos_as_xyz
1 x,y,z
_cell_length_a                   11.8051(15)
_cell_length_b                   14.1508(16)
_cell_length_c                   7.6915(5)
_cell_angle_alpha                90
_cell_angle_beta                 91.038(9)
_cell_angle_gamma                90
_cell_volume                     1284.67
loop_
_atom_site_label
_atom_site_type_symbol
_atom_site_fract_x
_atom_site_fract_y
_atom_site_fract_z
Br1 Br 0.5000 0.11565(7) 0.7500
Br1_2 Br 0.5000 0.88435(7) 0.2500
O9 O 0.5957(6) 0.4387(5) 0.0116(5)
Ca1 Ca 0.5000 0.46819(11) 0.7500
O1 O 0.3766(7) 0.3927(5) 0.2231(6)
O2 O 0.4043(6) 0.4387(5) 0.4884(5)
N1 N 0.2888(6) 0.2243(5) 0.3171(7)
N2 N 0.2430(5) 0.1570(5) 0.0790(6)
C1 C 0.3663(8) 0.3807(6) 0.3772(8)
C2 C 0.3001(9) 0.2978(6) 0.4475(9)
H1 H 0.3387 0.2727 0.5498
H2 H 0.2254 0.3189 0.4813
C3 C 0.3592(6) 0.1507(8) 0.2996(9)
H3 H 0.4189 0.1360 0.3754
C4 C 0.3309(6) 0.1015(6) 0.1574(9)
H4 H 0.3612 0.0448 0.1187
C5 C 0.2209(6) 0.2275(6) 0.1796(8)
H5 H 0.1658 0.2732 0.1583
O3 O 0.4058(11) 0.3329(7) 0.8699(9)
H10 H 0.3891 0.2820 0.8161
H11 H 0.4541 0.3192 0.9535
O6 O 0.5942(11) 0.3329(7) 0.6301(9)
H21 H 0.6109 0.2820 0.6839
H22 H 0.5459 0.3192 0.5465
Ca4 Ca 0.5000 0.53181(11) 0.2500
O7 O 0.6234(7) 0.6073(5) 0.7769(6)
O8 O 0.3766(7) 0.6073(5) 0.7231(6)
O10 O 0.5957(6) 0.5613(5) 0.5116(5)
O11 O 0.4043(6) 0.5613(5) 0.9884(5)
N3 N 0.7112(6) 0.7757(5) 0.6829(7)
N4 N 0.7570(5) 0.8430(5) 0.9210(6)
C10 C 0.6337(8) 0.6193(6) 0.6228(8)
C11 C 0.6999(9) 0.7022(6) 0.5525(9)
H12 H 0.6613 0.7273 0.4502
H13 H 0.7746 0.6811 0.5187
C12 C 0.6408(6) 0.8493(8) 0.7004(9)
H14 H 0.5811 0.8640 0.6246
C13 C 0.6691(6) 0.8985(6) 0.8426(9)
H15 H 0.6388 0.9552 0.8813
C14 C 0.7791(6) 0.7725(6) 0.8204(8)
H16 H 0.8342 0.7268 0.8417
H12_2 H 0.3387 0.7273 0.0498
N3_2 N 0.2888(6) 0.7757(5) 0.8171(7)
N4_2 N 0.2430(5) 0.8430(5) 0.5790(6)
C10_2 C 0.3663(8) 0.6193(6) 0.8772(8)
C11_2 C 0.3001(9) 0.7022(6) 0.9475(9)
H13_2 H 0.2254 0.6811 0.9813
C12_2 C 0.3592(6) 0.8493(8) 0.7996(9)
H14_2 H 0.4189 0.8640 0.8754
C13_2 C 0.3309(6) 0.8985(6) 0.6574(9)
H15_2 H 0.3612 0.9552 0.6187
C14_2 C 0.2209(6) 0.7725(6) 0.6796(8)
H16_2 H 0.1658 0.7268 0.6583
C15 C 0.1813(6) 0.8698(5) 0.4203(7)
H17 H 0.2332 0.8991 0.3402
H18 H 0.1504 0.8136 0.3650
C16 C 0.0862(5) 0.9377(6) 0.4589(6)
O1_2 O 0.6234(7) 0.3927(5) 0.2769(6)
N1_2 N 0.7112(6) 0.2243(5) 0.1829(7)
N2_2 N 0.7570(5) 0.1570(5) 0.4210(6)
C1_2 C 0.6337(8) 0.3807(6) 0.1228(8)
C2_2 C 0.6999(9) 0.2978(6) 0.0525(9)
H2_2 H 0.7746 0.3189 0.0187
C3_2 C 0.6408(6) 0.1507(8) 0.2004(9)
H3_2 H 0.5811 0.1360 0.1246
C4_2 C 0.6691(6) 0.1015(6) 0.3426(9)
H4_2 H 0.6388 0.0448 0.3813
C5_2 C 0.7791(6) 0.2275(6) 0.3204(8)
H5_2 H 0.8342 0.2732 0.3417
C6 C 0.8187(6) 0.1302(5) 0.5797(7)
H6 H 0.7668 0.1009 0.6598
H7 H 0.8496 0.1864 0.6350
C7 C 0.9138(5) 0.0623(6) 0.5411(6)
H1_2 H 0.6613 0.2727 0.9502
O3_2 O 0.5942(11) 0.6671(7) 0.1301(9)
H10_2 H 0.6109 0.7180 0.1839
H11_2 H 0.5459 0.6808 0.0465
O6_2 O 0.4058(11) 0.6671(7) 0.3699(9)
H21_2 H 0.3891 0.7180 0.3161
H22_2 H 0.4541 0.6808 0.4535
C6_2 C 0.1813(6) 0.1302(5) 0.9203(7)
H6_2 H 0.2332 0.1009 0.8402
H7_2 H 0.1504 0.1864 0.8650
C7_2 C 0.0862(5) 0.0623(6) 0.9589(6)
C17 C 0.0173(7) 0.9021(6) 0.0031(8)
H19 H 0.0302 0.8373 0.0033
C18 C 0.1068(6) 0.9674(6) 0.9624(8)
H20 H 0.1788 0.9448 0.9384
C9 C 0.8932(6) 0.0326(6) 0.0376(8)
H9 H 0.8212 0.0552 0.0616
C8 C 0.9827(7) 0.0979(6) 0.9969(8)
H8 H 0.9698 0.1627 0.9967
C15_2 C 0.8187(6) 0.8698(5) 0.0797(7)
H17_2 H 0.7668 0.8991 0.1598
H18_2 H 0.8496 0.8136 0.1350
C16_2 C 0.9138(5) 0.9377(6) 0.0411(6)
C8_2 C 0.0173(7) 0.0979(6) 0.5031(8)
H8_2 H 0.0302 0.1627 0.5033
C9_2 C 0.1068(6) 0.0326(6) 0.4624(8)
H9_2 H 0.1788 0.0552 0.4384
C17_2 C 0.9827(7) 0.9021(6) 0.4969(8)
H19_2 H 0.9698 0.8373 0.4967
C18_2 C 0.8932(6) 0.9674(6) 0.5376(8)
H20_2 H 0.8212 0.9448 0.5616
loop_
_geom_bond_atom_site_label_1
_geom_bond_atom_site_label_2
_geom_bond_site_symmetry_1
_geom_bond_site_symmetry_2
Ca1 O2 1_555 1_555
O1 C1 1_555 1_555
O2 C1 1_555 1_555
N1 C2 1_555 1_555
N2 C4 1_555 1_555
C1 C2 1_555 1_555
C2 H1 1_555 1_555
H2 C2 1_555 1_555
C3 N1 1_555 1_555
H3 C3 1_555 1_555
C4 C3 1_555 1_555
H4 C4 1_555 1_555
C5 N1 1_555 1_555
H5 C5 1_555 1_555
O3 Ca1 1_555 1_555
H10 O3 1_555 1_555
H11 O3 1_555 1_555
O6 Ca1 1_555 1_555
H21 O6 1_555 1_555
H22 O6 1_555 1_555
Ca4 O1 1_555 1_555
O7 Ca1 1_555 1_555
O8 Ca1 1_555 1_555
O10 Ca1 1_555 1_555
O11 Ca1 1_555 1_555
O2 Ca4 1_555 1_555
N2 C5 1_555 1_555
Ca4 O10 1_555 1_555
O7 C10 1_555 1_555
O10 C10 1_555 1_555
N3 C11 1_555 1_555
N4 C13 1_555 1_555
C10 C11 1_555 1_555
C11 H12 1_555 1_555
H13 C11 1_555 1_555
C12 N3 1_555 1_555
H14 C12 1_555 1_555
C13 C12 1_555 1_555
H15 C13 1_555 1_555
C14 N3 1_555 1_555
H16 C14 1_555 1_555
N4 C14 1_555 1_555
O8 C10_2 1_555 1_555
O11 C10_2 1_555 1_555
N3_2 C11_2 1_555 1_555
N4_2 C13_2 1_555 1_555
C10_2 C11_2 1_555 1_555
H13_2 C11_2 1_555 1_555
C12_2 N3_2 1_555 1_555
H14_2 C12_2 1_555 1_555
C13_2 C12_2 1_555 1_555
H15_2 C13_2 1_555 1_555
C14_2 N3_2 1_555 1_555
H16_2 C14_2 1_555 1_555
C15 N4_2 1_555 1_555
H17 C15 1_555 1_555
H18 C15 1_555 1_555
N4_2 C14_2 1_555 1_555
C15 C16 1_555 1_555
O1_2 C1_2 1_555 1_555
O9 C1_2 1_555 1_555
N1_2 C2_2 1_555 1_555
N2_2 C4_2 1_555 1_555
C1_2 C2_2 1_555 1_555
H2_2 C2_2 1_555 1_555
C3_2 N1_2 1_555 1_555
H3_2 C3_2 1_555 1_555
C4_2 C3_2 1_555 1_555
H4_2 C4_2 1_555 1_555
C5_2 N1_2 1_555 1_555
H5_2 C5_2 1_555 1_555
C6 N2_2 1_555 1_555
H6 C6 1_555 1_555
H7 C6 1_555 1_555
C7 C6 1_555 1_555
Ca4 O1_2 1_555 1_555
O9 Ca4 1_555 1_555
N2_2 C5_2 1_555 1_555
O3_2 Ca4 1_555 1_555
H10_2 O3_2 1_555 1_555
H11_2 O3_2 1_555 1_555
O6_2 Ca4 1_555 1_555
H21_2 O6_2 1_555 1_555
H22_2 O6_2 1_555 1_555
H6_2 C6_2 1_555 1_555
H7_2 C6_2 1_555 1_555
C7_2 C6_2 1_555 1_555
H19 C17 1_555 1_555
H20 C18 1_555 1_555
H9 C9 1_555 1_555
H8 C8 1_555 1_555
H17_2 C15_2 1_555 1_555
H18_2 C15_2 1_555 1_555
C15_2 C16_2 1_555 1_555
H8_2 C8_2 1_555 1_555
C9_2 C8_2 1_555 1_555
H9_2 C9_2 1_555 1_555
H19_2 C17_2 1_555 1_555
H20_2 C18_2 1_555 1_555
C17_2 C18_2 1_555 1_555

#END
