
###############################################################################
#
# This file contains modified crystal structure data generated from the
# MOF subset of the Cambridge Structural Database (CSD) v543 
# hosted by the Cambridge Crystallographic Data Centre (CCDC).
#
# This work is licensed under the Creative Commons
# Attribution-NonCommercial-ShareAlike 4.0 International License.
# To view a copy of this license, visit
# http://creativecommons.org/licenses/by-nc-sa/4.0/
# or send a letter to
# Creative Commons, PO Box 1866, Mountain View, CA 94042, USA.
#
# CIF created using the CSD Python API on 29 September 2022
# The structure has been converted into the P1 space group
# The structure has a 3D framework
# The original CSD entry GULVUF is in the orthorhombic crystal system
# The framework has been calculated to contain at least 10.0% void space
# The void calculation uses a probe of radius 1.32A, grid spacing 0.4
# H atom positions have been added when not included in the experimental data
# Generated hydrogen atom positions removed from atoms on special positions
#
###############################################################################

data_GULVUF
_chemical_formula_moiety         '(C1248 H1088 O308 Yb32)n'
_symmetry_cell_setting           triclinic
_symmetry_space_group_name_H-M   'P 1'
_symmetry_Int_Tables_number      1
_space_group_name_Hall           'P 1'
loop_
_symmetry_equiv_pos_site_id
_symmetry_equiv_pos_as_xyz
1 x,y,z
_cell_length_a                   16.247(6)
_cell_length_b                   48.939(19)
_cell_length_c                   80.84(3)
_cell_angle_alpha                90
_cell_angle_beta                 90
_cell_angle_gamma                90
_cell_volume                     64276.8
loop_
_atom_site_label
_atom_site_type_symbol
_atom_site_fract_x
_atom_site_fract_y
_atom_site_fract_z
Yb4 Yb 0.1250 0.1250 0.369679(5)
O22 O 0.1236(6) 0.09543(14) 0.39123(7)
C64 C 0.0561(9) 0.0889(3) 0.39648(12)
C65 C 0.0491(5) 0.07493(14) 0.41221(6)
C66 C 0.1202(4) 0.06290(16) 0.41840(8)
H45 H 0.1691 0.0640 0.4124
C67 C 0.1183(4) 0.04931(16) 0.43349(8)
H46 H 0.1659 0.0413 0.4376
C68 C 0.0452(4) 0.04775(16) 0.44240(7)
C71 C 0.0466(6) 0.0328(3) 0.45874(14)
H49 H 0.0964 0.0245 0.4613
Yb2 Yb 0.1250 0.909695(11) 0.6250
O1 O 0.1024(4) 0.87457(14) 0.64142(6)
O3 O 0.2946(4) 0.67645(13) 0.85444(8)
O4 O 0.1794(4) 0.65251(13) 0.85141(6)
O5 O 0.0123(9) 0.7268(3) 0.72349(13)
O6 O 0.2655(10) 0.7736(3) 0.76022(14)
O8 O 0.0030(5) 0.90563(18) 0.61164(7)
O9 O 0.1134(9) 0.9555(3) 0.50417(15)
O10 O 0.0770(7) 0.9564(2) 0.61628(14)
C1 C 0.0547(7) 0.8554(2) 0.64437(10)
C2 C 0.0743(4) 0.83639(13) 0.65796(6)
C3 C 0.1475(4) 0.84064(13) 0.66650(8)
H1 H 0.1840 0.8541 0.6630
C4 C 0.1660(4) 0.82482(15) 0.68029(8)
H2 H 0.2149 0.8277 0.6860
C5 C 0.1114(4) 0.80475(14) 0.68553(7)
C6 C 0.0382(4) 0.80050(13) 0.67700(9)
H3 H 0.0017 0.7871 0.6805
C7 C 0.0197(4) 0.81631(15) 0.66321(8)
C8 C 0.1296(7) 0.7906(3) 0.70097(15)
H5 H 0.1814 0.7953 0.7049
C9 C 0.0933(8) 0.7731(3) 0.71080(15)
H6 H 0.0414 0.7674 0.7074
C10 C 0.1218(6) 0.76140(17) 0.72621(9)
C11 C 0.0808(6) 0.73920(19) 0.73306(10)
C12 C 0.1054(6) 0.72885(17) 0.74829(10)
H7 H 0.0779 0.7140 0.7529
C13 C 0.1710(6) 0.7407(2) 0.75666(9)
C14 C 0.2121(6) 0.7629(2) 0.74981(11)
C15 C 0.1875(6) 0.77325(19) 0.73458(11)
H8 H 0.2149 0.7881 0.7300
C16 C 0.1948(9) 0.7317(3) 0.77308(15)
H9 H 0.2355 0.7422 0.7781
C17 C 0.1680(9) 0.7112(3) 0.78193(16)
H10 H 0.1273 0.7009 0.7767
C18 C 0.1892(5) 0.70149(17) 0.79797(7)
C19 C 0.2480(5) 0.71405(15) 0.80790(10)
H11 H 0.2764 0.7292 0.8040
C20 C 0.2641(4) 0.70391(17) 0.82362(9)
H12 H 0.3034 0.7123 0.8303
C21 C 0.2216(5) 0.68121(17) 0.82942(7)
C22 C 0.1628(5) 0.66865(14) 0.81950(9)
H13 H 0.1344 0.6535 0.8234
C23 C 0.1467(5) 0.67879(16) 0.80377(8)
H14 H 0.1074 0.6704 0.7971
C24 C 0.2317(7) 0.6690(2) 0.84640(11)
C30 C 0.0259(4) 0.94023(18) 0.56380(8)
H17 H 0.0747 0.9413 0.5578
C31 C 0.0240(4) 0.92664(16) 0.57889(8)
H18 H 0.0715 0.9186 0.5830
C33 C 0.0115(8) 0.9702(3) 0.53022(13)
H20 H 0.0629 0.9628 0.5325
C34 C 0.0010(8) 0.9848(3) 0.51432(11)
C36 C 0.0552(9) 0.9787(3) 0.50153(13)
H24 H 0.0327 0.6904 0.7365
C38 C 0.1665(12) 0.9551(5) 0.4883(2)
H25 H 0.2061 0.9406 0.4890
H26 H 0.1947 0.9723 0.4872
H27 H 0.1318 0.9523 0.4789
C39 C 0.3008(13) 0.7990(3) 0.7490(3)
H28 H 0.3423 0.8087 0.7551
H29 H 0.2565 0.8112 0.7464
H30 H 0.3242 0.7920 0.7390
Yb3 Yb 0.1250 0.6250 0.869679(5)
Yb6 Yb 0.3750 0.659695(11) 0.8750
O12 O 0.1476(4) 0.87457(14) 0.60858(6)
O15 O 0.0446(4) 0.92645(13) 0.64556(8)
O16 O 0.2054(4) 0.92645(13) 0.60444(8)
O25 O 0.2470(5) 0.90563(18) 0.63836(7)
O27 O 0.1730(7) 0.9564(2) 0.63372(14)
C74 C 0.0537(7) 0.9933(2) 0.48682(10)
H51 H 0.0880 0.9887 0.4780
C35 C 0.9463(7) 0.0067(2) 0.51318(10)
H21 H 0.9120 0.0113 0.5220
Yb5 Yb 0.6250 0.1250 0.869679(5)
Yb7 Yb 0.8750 0.090305(11) 0.3750
Yb9 Yb 0.3750 0.090305(11) 0.8750
O14 O 0.4554(4) 0.07355(13) 0.85444(8)
O17 O 0.5706(4) 0.09749(13) 0.85141(6)
O20 O 0.7377(9) 0.0232(3) 0.72349(13)
O24 O 0.9970(5) 0.09437(18) 0.38836(7)
O26 O 0.8866(9) 0.0445(3) 0.49583(15)
C50 C 0.6692(6) 0.01080(19) 0.73306(10)
C51 C 0.6446(6) 0.02115(17) 0.74829(10)
H37 H 0.6721 0.0360 0.7529
C52 C 0.5790(6) 0.0093(2) 0.75666(9)
C55 C 0.5552(9) 0.0183(3) 0.77308(15)
H39 H 0.5145 0.0078 0.7781
C56 C 0.5820(9) 0.0388(3) 0.78193(16)
H40 H 0.6227 0.0491 0.7767
C57 C 0.5608(5) 0.04851(17) 0.79797(7)
C58 C 0.5020(5) 0.03595(15) 0.80790(10)
H41 H 0.4736 0.0208 0.8040
C59 C 0.4859(4) 0.04609(17) 0.82362(9)
H42 H 0.4466 0.0377 0.8303
C60 C 0.5284(5) 0.06879(17) 0.82942(7)
C61 C 0.5872(5) 0.08135(14) 0.81950(9)
H43 H 0.6156 0.0965 0.8234
C62 C 0.6033(5) 0.07121(16) 0.80377(8)
H44 H 0.6426 0.0796 0.7971
C63 C 0.5183(7) 0.0810(2) 0.84640(11)
C69 C 0.9741(4) 0.05977(18) 0.43620(8)
H47 H 0.9253 0.0587 0.4422
C70 C 0.9760(4) 0.07336(16) 0.42111(8)
H48 H 0.9285 0.0814 0.4170
C72 C 0.9885(8) 0.0298(3) 0.46978(13)
H50 H 0.9371 0.0372 0.4675
C73 C 0.9990(8) 0.0152(3) 0.48568(11)
C75 C 0.9448(9) 0.0213(3) 0.49847(13)
C76 C 0.7631(12) 0.0474(3) 0.7352(3)
H52 H 0.8086 0.0571 0.7304
H53 H 0.7790 0.0403 0.7458
H54 H 0.7173 0.0596 0.7365
C77 C 0.8335(12) 0.0449(5) 0.5117(2)
H55 H 0.7939 0.0594 0.5110
H56 H 0.8053 0.0277 0.5128
H57 H 0.8682 0.0477 0.5211
Yb1 Yb 0.8750 0.8750 0.630321(5)
O2 O 0.9896(4) 0.85173(11) 0.63646(7)
O7 O 0.8764(6) 0.90457(14) 0.60877(7)
H4 H 0.9708 0.8135 0.6575
C25 C 0.9439(9) 0.9111(3) 0.60352(12)
C26 C 0.9509(5) 0.92507(14) 0.58779(6)
C27 C 0.8798(4) 0.93710(16) 0.58160(8)
H15 H 0.8309 0.9360 0.5876
C28 C 0.8817(4) 0.95069(16) 0.56651(8)
H16 H 0.8341 0.9587 0.5624
C29 C 0.9548(4) 0.95225(16) 0.55760(7)
C32 C 0.9534(6) 0.9672(3) 0.54126(14)
H19 H 0.9036 0.9755 0.5387
C37 C 0.9869(12) 0.7026(3) 0.7352(3)
H22 H 0.9414 0.6929 0.7304
H23 H 0.9710 0.7097 0.7458
Yb8 Yb 0.6250 0.840305(11) 0.6250
O11 O 0.6476(4) 0.87543(14) 0.64142(6)
O13 O 0.7604(4) 0.89827(11) 0.63646(7)
O18 O 0.9294(4) 0.90251(13) 0.64859(6)
O19 O 0.8206(4) 0.84749(13) 0.64859(6)
O21 O 0.4845(10) 0.9764(3) 0.76022(14)
O23 O 0.8736(6) 0.84543(14) 0.60877(7)
C40 C 0.6953(7) 0.8946(2) 0.64437(10)
C41 C 0.6757(4) 0.91361(13) 0.65796(6)
C42 C 0.6025(4) 0.90936(13) 0.66650(8)
H31 H 0.5660 0.8959 0.6630
C43 C 0.5840(4) 0.92518(15) 0.68029(8)
H32 H 0.5351 0.9223 0.6860
C44 C 0.6386(4) 0.94525(14) 0.68553(7)
C45 C 0.7118(4) 0.94950(13) 0.67700(9)
H33 H 0.7483 0.9629 0.6805
C46 C 0.7303(4) 0.93369(15) 0.66321(8)
H34 H 0.7792 0.9365 0.6575
C47 C 0.6204(7) 0.9594(3) 0.70097(15)
H35 H 0.5686 0.9547 0.7049
C48 C 0.6567(8) 0.9769(3) 0.71080(15)
H36 H 0.7086 0.9826 0.7074
C49 C 0.6282(6) 0.98860(17) 0.72621(9)
C53 C 0.5379(6) 0.9871(2) 0.74981(11)
C54 C 0.5625(6) 0.97675(19) 0.73458(11)
H38 H 0.5351 0.9619 0.7300
C78 C 0.4492(13) 0.9510(3) 0.7490(3)
H58 H 0.4077 0.9413 0.7551
H59 H 0.4935 0.9388 0.7464
H60 H 0.4258 0.9580 0.7390
O8_2 O 0.7470(5) 0.84437(18) 0.61164(7)
O9_2 O 0.6366(9) 0.7945(3) 0.50417(15)
O10_2 O 0.6730(7) 0.7936(2) 0.61628(14)
C25_2 C 0.8061(9) 0.8389(3) 0.60352(12)
C26_2 C 0.7991(5) 0.82493(14) 0.58779(6)
C27_2 C 0.8702(4) 0.81290(16) 0.58160(8)
H15_2 H 0.9191 0.8140 0.5876
C28_2 C 0.8683(4) 0.79931(16) 0.56651(8)
H16_2 H 0.9159 0.7913 0.5624
C29_2 C 0.7952(4) 0.79775(16) 0.55760(7)
C30_2 C 0.7241(4) 0.80977(18) 0.56380(8)
H17_2 H 0.6753 0.8087 0.5578
C31_2 C 0.7260(4) 0.82336(16) 0.57889(8)
H18_2 H 0.6785 0.8314 0.5830
C32_2 C 0.7966(6) 0.7828(3) 0.54126(14)
H19_2 H 0.8464 0.7745 0.5387
C33_2 C 0.7385(8) 0.7798(3) 0.53022(13)
H20_2 H 0.6871 0.7872 0.5325
C34_2 C 0.7490(8) 0.7652(3) 0.51432(11)
C35_2 C 0.8037(7) 0.7433(2) 0.51318(10)
H21_2 H 0.8380 0.7387 0.5220
C36_2 C 0.6948(9) 0.7713(3) 0.50153(13)
C38_2 C 0.5835(12) 0.7949(5) 0.4883(2)
H25_2 H 0.5439 0.8094 0.4890
H26_2 H 0.5553 0.7777 0.4872
H27_2 H 0.6182 0.7977 0.4789
Yb4_2 Yb 0.6250 0.6250 0.369679(5)
Yb7_2 Yb 0.8750 0.659695(11) 0.3750
O12_2 O 0.6024(4) 0.87543(14) 0.60858(6)
O15_2 O 0.7054(4) 0.82355(13) 0.64556(8)
O16_2 O 0.5446(4) 0.82355(13) 0.60444(8)
O22_2 O 0.6264(6) 0.65457(14) 0.39123(7)
O24_2 O 0.7530(5) 0.65563(18) 0.38836(7)
O25_2 O 0.5030(5) 0.84437(18) 0.63836(7)
O26_2 O 0.8634(9) 0.7055(3) 0.49583(15)
O27_2 O 0.5770(7) 0.7936(2) 0.63372(14)
C64_2 C 0.6939(9) 0.6611(3) 0.39648(12)
C65_2 C 0.7009(5) 0.67507(14) 0.41221(6)
C66_2 C 0.6298(4) 0.68710(16) 0.41840(8)
H45_2 H 0.5809 0.6860 0.4124
C67_2 C 0.6317(4) 0.70069(16) 0.43349(8)
H46_2 H 0.5841 0.7087 0.4376
C68_2 C 0.7048(4) 0.70225(16) 0.44240(7)
C69_2 C 0.7759(4) 0.69023(18) 0.43620(8)
H47_2 H 0.8247 0.6913 0.4422
C70_2 C 0.7740(4) 0.67664(16) 0.42111(8)
H48_2 H 0.8215 0.6686 0.4170
C71_2 C 0.7034(6) 0.7172(3) 0.45874(14)
H49_2 H 0.6536 0.7255 0.4613
C72_2 C 0.7615(8) 0.7202(3) 0.46978(13)
H50_2 H 0.8129 0.7128 0.4675
C73_2 C 0.7510(8) 0.7348(3) 0.48568(11)
C74_2 C 0.6963(7) 0.7567(2) 0.48682(10)
H51_2 H 0.6620 0.7613 0.4780
C75_2 C 0.8052(9) 0.7287(3) 0.49847(13)
C77_2 C 0.9165(12) 0.7051(5) 0.5117(2)
H55_2 H 0.9561 0.6906 0.5110
H56_2 H 0.9447 0.7223 0.5128
H57_2 H 0.8818 0.7023 0.5211
Yb5_2 Yb 0.1250 0.1250 0.880321(5)
O14_2 O 0.2946(4) 0.07355(13) 0.89556(8)
O17_2 O 0.1794(4) 0.09749(13) 0.89859(6)
H37_2 H 0.0779 0.0360 0.9971
C52_2 C 0.1710(6) 0.0093(2) 0.99334(9)
C55_2 C 0.1948(9) 0.0183(3) 0.97692(15)
H39_2 H 0.2355 0.0078 0.9719
C56_2 C 0.1680(9) 0.0388(3) 0.96807(16)
H40_2 H 0.1273 0.0491 0.9733
C57_2 C 0.1892(5) 0.04851(17) 0.95203(7)
C58_2 C 0.2480(5) 0.03595(15) 0.94210(10)
H41_2 H 0.2764 0.0208 0.9460
C59_2 C 0.2641(4) 0.04609(17) 0.92638(9)
H42_2 H 0.3034 0.0377 0.9197
C60_2 C 0.2216(5) 0.06879(17) 0.92058(7)
C61_2 C 0.1628(5) 0.08135(14) 0.93050(9)
H43_2 H 0.1344 0.0965 0.9266
C62_2 C 0.1467(5) 0.07121(16) 0.94623(8)
H44_2 H 0.1074 0.0796 0.9529
C63_2 C 0.2317(7) 0.0810(2) 0.90360(11)
Yb8_2 Yb 0.1250 0.840305(11) 0.1250
O11_2 O 0.1024(4) 0.87543(14) 0.10858(6)
C40_2 C 0.0547(7) 0.8946(2) 0.10563(10)
C41_2 C 0.0743(4) 0.91361(13) 0.09204(6)
C42_2 C 0.1475(4) 0.90936(13) 0.08350(8)
H31_2 H 0.1840 0.8959 0.0870
C43_2 C 0.1660(4) 0.92518(15) 0.06971(8)
H32_2 H 0.2149 0.9223 0.0640
C44_2 C 0.1114(4) 0.94525(14) 0.06447(7)
C45_2 C 0.0382(4) 0.94950(13) 0.07300(9)
H33_2 H 0.0017 0.9629 0.0695
C46_2 C 0.0197(4) 0.93369(15) 0.08679(8)
C47_2 C 0.1296(7) 0.9594(3) 0.04903(15)
H35_2 H 0.1814 0.9547 0.0451
C48_2 C 0.0933(8) 0.9769(3) 0.03920(15)
H36_2 H 0.0414 0.9826 0.0426
C49_2 C 0.1218(6) 0.98860(17) 0.02379(9)
C53_2 C 0.2121(6) 0.9871(2) 0.00019(11)
C54_2 C 0.1875(6) 0.97675(19) 0.01542(11)
H38_2 H 0.2149 0.9619 0.0200
C78_2 C 0.3008(13) 0.9510(3) 0.0010(3)
H59_2 H 0.2565 0.9388 0.0036
H60_2 H 0.3242 0.9580 0.0110
C35_3 C 0.8037(7) 0.0067(2) 0.23682(10)
H21_3 H 0.8380 0.0113 0.2280
Yb4_3 Yb 0.6250 0.1250 0.380321(5)
O22_3 O 0.6264(6) 0.09543(14) 0.35877(7)
O24_3 O 0.7530(5) 0.09437(18) 0.36164(7)
O26_3 O 0.8634(9) 0.0445(3) 0.25417(15)
C64_3 C 0.6939(9) 0.0889(3) 0.35352(12)
C65_3 C 0.7009(5) 0.07493(14) 0.33779(6)
C66_3 C 0.6298(4) 0.06290(16) 0.33160(8)
H45_3 H 0.5809 0.0640 0.3376
C67_3 C 0.6317(4) 0.04931(16) 0.31651(8)
H46_3 H 0.5841 0.0413 0.3124
C68_3 C 0.7048(4) 0.04775(16) 0.30760(7)
C69_3 C 0.7759(4) 0.05977(18) 0.31380(8)
H47_3 H 0.8247 0.0587 0.3078
C70_3 C 0.7740(4) 0.07336(16) 0.32889(8)
H48_3 H 0.8215 0.0814 0.3330
C71_3 C 0.7034(6) 0.0328(3) 0.29126(14)
H49_3 H 0.6536 0.0245 0.2887
C72_3 C 0.7615(8) 0.0298(3) 0.28022(13)
H50_3 H 0.8129 0.0372 0.2825
C73_3 C 0.7510(8) 0.0152(3) 0.26432(11)
C75_3 C 0.8052(9) 0.0213(3) 0.25153(13)
C76_2 C 0.9869(12) 0.0474(3) 0.0148(3)
H52_2 H 0.9414 0.0571 0.0196
H53_2 H 0.9710 0.0403 0.0042
C77_3 C 0.9165(12) 0.0449(5) 0.2383(2)
H55_3 H 0.9561 0.0594 0.2390
H56_3 H 0.9447 0.0277 0.2372
H57_3 H 0.8818 0.0477 0.2289
Yb1_2 Yb 0.8750 0.8750 0.119679(5)
Yb2_2 Yb 0.6250 0.909695(11) 0.1250
O1_2 O 0.6476(4) 0.87457(14) 0.10858(6)
O2_2 O 0.7604(4) 0.85173(11) 0.11354(7)
O5_2 O 0.7377(9) 0.7268(3) 0.02651(13)
O7_2 O 0.8736(6) 0.90457(14) 0.14123(7)
O8_3 O 0.7470(5) 0.90563(18) 0.13836(7)
O9_3 O 0.6366(9) 0.9555(3) 0.24583(15)
O10_3 O 0.6730(7) 0.9564(2) 0.13372(14)
C1_2 C 0.6953(7) 0.8554(2) 0.10563(10)
C2_2 C 0.6757(4) 0.83639(13) 0.09204(6)
C3_2 C 0.6025(4) 0.84064(13) 0.08350(8)
H1_2 H 0.5660 0.8541 0.0870
C4_2 C 0.5840(4) 0.82482(15) 0.06971(8)
H2_2 H 0.5351 0.8277 0.0640
C5_2 C 0.6386(4) 0.80475(14) 0.06447(7)
C6_2 C 0.7118(4) 0.80050(13) 0.07300(9)
H3_2 H 0.7483 0.7871 0.0695
C7_2 C 0.7303(4) 0.81631(15) 0.08679(8)
H4_2 H 0.7792 0.8135 0.0925
C8_2 C 0.6204(7) 0.7906(3) 0.04903(15)
H5_2 H 0.5686 0.7953 0.0451
C9_2 C 0.6567(8) 0.7731(3) 0.03920(15)
H6_2 H 0.7086 0.7674 0.0426
C10_2 C 0.6282(6) 0.76140(17) 0.02379(9)
C11_2 C 0.6692(6) 0.73920(19) 0.01694(10)
C12_2 C 0.6446(6) 0.72885(17) 0.00171(10)
C14_2 C 0.5379(6) 0.7629(2) 0.00019(11)
C15_2 C 0.5625(6) 0.77325(19) 0.01542(11)
H8_2 H 0.5351 0.7881 0.0200
C25_3 C 0.8061(9) 0.9111(3) 0.14648(12)
C26_3 C 0.7991(5) 0.92507(14) 0.16221(6)
C27_3 C 0.8702(4) 0.93710(16) 0.16840(8)
H15_3 H 0.9191 0.9360 0.1624
C28_3 C 0.8683(4) 0.95069(16) 0.18349(8)
H16_3 H 0.9159 0.9587 0.1876
C29_3 C 0.7952(4) 0.95225(16) 0.19240(7)
C30_3 C 0.7241(4) 0.94023(18) 0.18620(8)
H17_3 H 0.6753 0.9413 0.1922
C31_3 C 0.7260(4) 0.92664(16) 0.17111(8)
H18_3 H 0.6785 0.9186 0.1670
C32_3 C 0.7966(6) 0.9672(3) 0.20874(14)
H19_3 H 0.8464 0.9755 0.2113
C33_3 C 0.7385(8) 0.9702(3) 0.21978(13)
H20_3 H 0.6871 0.9628 0.2175
C34_3 C 0.7490(8) 0.9848(3) 0.23568(11)
C36_3 C 0.6948(9) 0.9787(3) 0.24847(13)
C37_2 C 0.7631(12) 0.7026(3) 0.0148(3)
H22_2 H 0.8086 0.6929 0.0196
H23_2 H 0.7790 0.7097 0.0042
H24_2 H 0.7173 0.6904 0.0135
C38_3 C 0.5835(12) 0.9551(5) 0.2617(2)
H25_3 H 0.5439 0.9406 0.2610
H26_3 H 0.5553 0.9723 0.2628
H27_3 H 0.6182 0.9523 0.2711
C39_2 C 0.4492(13) 0.7990(3) 0.0010(3)
H29_2 H 0.4935 0.8112 0.0036
H30_2 H 0.4258 0.7920 0.0110
O12_3 O 0.6024(4) 0.87457(14) 0.14142(6)
O13_2 O 0.9896(4) 0.89827(11) 0.11354(7)
O15_3 O 0.7054(4) 0.92645(13) 0.10444(8)
O16_3 O 0.5446(4) 0.92645(13) 0.14556(8)
O18_2 O 0.8206(4) 0.90251(13) 0.10141(6)
O19_2 O 0.9294(4) 0.84749(13) 0.10141(6)
O23_2 O 0.8764(6) 0.84543(14) 0.14123(7)
O25_3 O 0.5030(5) 0.90563(18) 0.11164(7)
O27_3 O 0.5770(7) 0.9564(2) 0.11628(14)
H34_2 H 0.9708 0.9365 0.0925
C74_3 C 0.6963(7) 0.9933(2) 0.26318(10)
H51_3 H 0.6620 0.9887 0.2720
O3_2 O 0.4554(4) 0.67645(13) 0.89556(8)
O4_2 O 0.5706(4) 0.65251(13) 0.89859(6)
O6_2 O 0.4845(10) 0.7736(3) 0.98978(14)
H7_2 H 0.6721 0.7140 0.9971
C13_2 C 0.5790(6) 0.7407(2) 0.99334(9)
C16_2 C 0.5552(9) 0.7317(3) 0.97692(15)
H9_2 H 0.5145 0.7422 0.9719
C17_2 C 0.5820(9) 0.7112(3) 0.96807(16)
H10_2 H 0.6227 0.7009 0.9733
C18_2 C 0.5608(5) 0.70149(17) 0.95203(7)
C19_2 C 0.5020(5) 0.71405(15) 0.94210(10)
H11_2 H 0.4736 0.7292 0.9460
C20_2 C 0.4859(4) 0.70391(17) 0.92638(9)
H12_2 H 0.4466 0.7123 0.9197
C21_2 C 0.5284(5) 0.68121(17) 0.92058(7)
C22_2 C 0.5872(5) 0.66865(14) 0.93050(9)
H13_2 H 0.6156 0.6535 0.9266
C23_2 C 0.6033(5) 0.67879(16) 0.94623(8)
H14_2 H 0.6426 0.6704 0.9529
C24_2 C 0.5183(7) 0.6690(2) 0.90360(11)
H28_2 H 0.4077 0.8087 0.9949
Yb3_2 Yb 0.6250 0.6250 0.880321(5)
O8_4 O 0.0030(5) 0.84437(18) 0.13836(7)
O9_4 O 0.1134(9) 0.7945(3) 0.24583(15)
O10_4 O 0.0770(7) 0.7936(2) 0.13372(14)
C30_4 C 0.0259(4) 0.80977(18) 0.18620(8)
H17_4 H 0.0747 0.8087 0.1922
C31_4 C 0.0240(4) 0.82336(16) 0.17111(8)
H18_4 H 0.0715 0.8314 0.1670
C33_4 C 0.0115(8) 0.7798(3) 0.21978(13)
H20_4 H 0.0629 0.7872 0.2175
C34_4 C 0.0010(8) 0.7652(3) 0.23568(11)
C36_4 C 0.0552(9) 0.7713(3) 0.24847(13)
C38_4 C 0.1665(12) 0.7949(5) 0.2617(2)
H25_4 H 0.2061 0.8094 0.2610
H26_4 H 0.1947 0.7777 0.2628
H27_4 H 0.1318 0.7977 0.2711
Yb4_4 Yb 0.1250 0.6250 0.380321(5)
O12_4 O 0.1476(4) 0.87543(14) 0.14142(6)
O15_4 O 0.0446(4) 0.82355(13) 0.10444(8)
O16_4 O 0.2054(4) 0.82355(13) 0.14556(8)
O22_4 O 0.1236(6) 0.65457(14) 0.35877(7)
O25_4 O 0.2470(5) 0.84437(18) 0.11164(7)
O27_4 O 0.1730(7) 0.7936(2) 0.11628(14)
C64_4 C 0.0561(9) 0.6611(3) 0.35352(12)
C65_4 C 0.0491(5) 0.67507(14) 0.33779(6)
C66_4 C 0.1202(4) 0.68710(16) 0.33160(8)
H45_4 H 0.1691 0.6860 0.3376
C67_4 C 0.1183(4) 0.70069(16) 0.31651(8)
H46_4 H 0.1659 0.7087 0.3124
C68_4 C 0.0452(4) 0.70225(16) 0.30760(7)
C71_4 C 0.0466(6) 0.7172(3) 0.29126(14)
H49_4 H 0.0964 0.7255 0.2887
C74_4 C 0.0537(7) 0.7567(2) 0.26318(10)
H51_4 H 0.0880 0.7613 0.2720
C25_4 C 0.9439(9) 0.8389(3) 0.14648(12)
C26_4 C 0.9509(5) 0.82493(14) 0.16221(6)
C27_4 C 0.8798(4) 0.81290(16) 0.16840(8)
H15_4 H 0.8309 0.8140 0.1624
C28_4 C 0.8817(4) 0.79931(16) 0.18349(8)
H16_4 H 0.8341 0.7913 0.1876
C29_4 C 0.9548(4) 0.79775(16) 0.19240(7)
C32_4 C 0.9534(6) 0.7828(3) 0.20874(14)
H19_4 H 0.9036 0.7745 0.2113
C35_4 C 0.9463(7) 0.7433(2) 0.23682(10)
H21_4 H 0.9120 0.7387 0.2280
O24_4 O 0.9970(5) 0.65563(18) 0.36164(7)
O26_4 O 0.8866(9) 0.7055(3) 0.25417(15)
C69_4 C 0.9741(4) 0.69023(18) 0.31380(8)
H47_4 H 0.9253 0.6913 0.3078
C70_4 C 0.9760(4) 0.67664(16) 0.32889(8)
H48_4 H 0.9285 0.6686 0.3330
C72_4 C 0.9885(8) 0.7202(3) 0.28022(13)
H50_4 H 0.9371 0.7128 0.2825
C73_4 C 0.9990(8) 0.7348(3) 0.26432(11)
C75_4 C 0.9448(9) 0.7287(3) 0.25153(13)
C77_4 C 0.8335(12) 0.7051(5) 0.2383(2)
H55_4 H 0.7939 0.6906 0.2390
H56_4 H 0.8053 0.7223 0.2372
H57_4 H 0.8682 0.7023 0.2289
Yb2_3 Yb 0.1250 0.409695(11) 0.1250
O1_3 O 0.1024(4) 0.37457(14) 0.14142(6)
O3_3 O 0.2946(4) 0.17645(13) 0.35444(8)
O4_3 O 0.1794(4) 0.15251(13) 0.35141(6)
O5_3 O 0.0123(9) 0.2268(3) 0.22349(13)
O6_3 O 0.2655(10) 0.2736(3) 0.26022(14)
O8_5 O 0.0030(5) 0.40563(18) 0.11164(7)
O9_5 O 0.1134(9) 0.4555(3) 0.00417(15)
O10_5 O 0.0770(7) 0.4564(2) 0.11628(14)
C1_3 C 0.0547(7) 0.3554(2) 0.14437(10)
C2_3 C 0.0743(4) 0.33639(13) 0.15796(6)
C3_3 C 0.1475(4) 0.34064(13) 0.16650(8)
H1_3 H 0.1840 0.3541 0.1630
C4_3 C 0.1660(4) 0.32482(15) 0.18029(8)
H2_3 H 0.2149 0.3277 0.1860
C5_3 C 0.1114(4) 0.30475(14) 0.18553(7)
C6_3 C 0.0382(4) 0.30050(13) 0.17700(9)
H3_3 H 0.0017 0.2871 0.1805
C7_3 C 0.0197(4) 0.31631(15) 0.16321(8)
C8_3 C 0.1296(7) 0.2906(3) 0.20097(15)
H5_3 H 0.1814 0.2953 0.2049
C9_3 C 0.0933(8) 0.2731(3) 0.21080(15)
H6_3 H 0.0414 0.2674 0.2074
C10_3 C 0.1218(6) 0.26140(17) 0.22621(9)
C11_3 C 0.0808(6) 0.23920(19) 0.23306(10)
C12_3 C 0.1054(6) 0.22885(17) 0.24829(10)
H7_3 H 0.0779 0.2140 0.2529
C13_3 C 0.1710(6) 0.2407(2) 0.25666(9)
C14_3 C 0.2121(6) 0.2629(2) 0.24981(11)
C15_3 C 0.1875(6) 0.27325(19) 0.23458(11)
H8_3 H 0.2149 0.2881 0.2300
C16_3 C 0.1948(9) 0.2317(3) 0.27308(15)
H9_3 H 0.2355 0.2422 0.2781
C17_3 C 0.1680(9) 0.2112(3) 0.28193(16)
H10_3 H 0.1273 0.2009 0.2767
C18_3 C 0.1892(5) 0.20149(17) 0.29797(7)
C19_3 C 0.2480(5) 0.21405(15) 0.30790(10)
H11_3 H 0.2764 0.2292 0.3040
C20_3 C 0.2641(4) 0.20391(17) 0.32362(9)
H12_3 H 0.3034 0.2123 0.3303
C21_3 C 0.2216(5) 0.18121(17) 0.32942(7)
C22_3 C 0.1628(5) 0.16865(14) 0.31950(9)
H13_3 H 0.1344 0.1535 0.3234
C23_3 C 0.1467(5) 0.17879(16) 0.30377(8)
H14_3 H 0.1074 0.1704 0.2971
C24_3 C 0.2317(7) 0.1690(2) 0.34640(11)
C30_5 C 0.0259(4) 0.44023(18) 0.06380(8)
H17_5 H 0.0747 0.4413 0.0578
C31_5 C 0.0240(4) 0.42664(16) 0.07889(8)
H18_5 H 0.0715 0.4186 0.0830
C33_5 C 0.0115(8) 0.4702(3) 0.03022(13)
H20_5 H 0.0629 0.4628 0.0325
C34_5 C 0.0010(8) 0.4848(3) 0.01432(11)
C36_5 C 0.0552(9) 0.4787(3) 0.00153(13)
H24_3 H 0.0327 0.1904 0.2365
C39_3 C 0.3008(13) 0.2990(3) 0.2490(3)
H28_3 H 0.3423 0.3087 0.2551
H29_3 H 0.2565 0.3112 0.2464
H30_3 H 0.3242 0.2920 0.2390
Yb6_2 Yb 0.3750 0.159695(11) 0.3750
O12_5 O 0.1476(4) 0.37457(14) 0.10858(6)
O15_5 O 0.0446(4) 0.42645(13) 0.14556(8)
O16_5 O 0.2054(4) 0.42645(13) 0.10444(8)
O25_5 O 0.2470(5) 0.40563(18) 0.13836(7)
O27_5 O 0.1730(7) 0.4564(2) 0.13372(14)
C38_5 C 0.1665(12) 0.4551(5) 0.9883(2)
H25_5 H 0.2061 0.4406 0.9890
H26_5 H 0.1947 0.4723 0.9872
H27_5 H 0.1318 0.4523 0.9789
O22_5 O 0.1236(6) 0.59543(14) 0.89123(7)
C64_5 C 0.0561(9) 0.5889(3) 0.89648(12)
C65_5 C 0.0491(5) 0.57493(14) 0.91221(6)
C66_5 C 0.1202(4) 0.56290(16) 0.91840(8)
H45_5 H 0.1691 0.5640 0.9124
C67_5 C 0.1183(4) 0.54931(16) 0.93349(8)
H46_5 H 0.1659 0.5413 0.9376
C68_5 C 0.0452(4) 0.54775(16) 0.94240(7)
C71_5 C 0.0466(6) 0.5328(3) 0.95874(14)
H49_5 H 0.0964 0.5245 0.9613
C74_5 C 0.0537(7) 0.4933(2) 0.98682(10)
H51_5 H 0.0880 0.4887 0.9780
Yb1_3 Yb 0.8750 0.3750 0.130321(5)
O2_3 O 0.9896(4) 0.35173(11) 0.13646(7)
O7_3 O 0.8764(6) 0.40457(14) 0.10877(7)
H4_3 H 0.9708 0.3135 0.1575
C25_5 C 0.9439(9) 0.4111(3) 0.10352(12)
C26_5 C 0.9509(5) 0.42507(14) 0.08779(6)
C27_5 C 0.8798(4) 0.43710(16) 0.08160(8)
H15_5 H 0.8309 0.4360 0.0876
C28_5 C 0.8817(4) 0.45069(16) 0.06651(8)
H16_5 H 0.8341 0.4587 0.0624
C29_5 C 0.9548(4) 0.45225(16) 0.05760(7)
C32_5 C 0.9534(6) 0.4672(3) 0.04126(14)
H19_5 H 0.9036 0.4755 0.0387
C35_5 C 0.9463(7) 0.5067(2) 0.01318(10)
H21_5 H 0.9120 0.5113 0.0220
C37_3 C 0.9869(12) 0.2026(3) 0.2352(3)
H22_3 H 0.9414 0.1929 0.2304
H23_3 H 0.9710 0.2097 0.2458
Yb8_3 Yb 0.6250 0.340305(11) 0.1250
Yb9_2 Yb 0.3750 0.590305(11) 0.3750
O11_3 O 0.6476(4) 0.37543(14) 0.14142(6)
O13_3 O 0.7604(4) 0.39827(11) 0.13646(7)
O14_3 O 0.4554(4) 0.57355(13) 0.35444(8)
O17_3 O 0.5706(4) 0.59749(13) 0.35141(6)
O18_3 O 0.9294(4) 0.40251(13) 0.14859(6)
O19_3 O 0.8206(4) 0.34749(13) 0.14859(6)
O20_2 O 0.7377(9) 0.5232(3) 0.22349(13)
O21_2 O 0.4845(10) 0.4764(3) 0.26022(14)
O23_3 O 0.8736(6) 0.34543(14) 0.10877(7)
C40_3 C 0.6953(7) 0.3946(2) 0.14437(10)
C41_3 C 0.6757(4) 0.41361(13) 0.15796(6)
C42_3 C 0.6025(4) 0.40936(13) 0.16650(8)
H31_3 H 0.5660 0.3959 0.1630
C43_3 C 0.5840(4) 0.42518(15) 0.18029(8)
H32_3 H 0.5351 0.4223 0.1860
C44_3 C 0.6386(4) 0.44525(14) 0.18553(7)
C45_3 C 0.7118(4) 0.44950(13) 0.17700(9)
H33_3 H 0.7483 0.4629 0.1805
C46_3 C 0.7303(4) 0.43369(15) 0.16321(8)
H34_3 H 0.7792 0.4365 0.1575
C47_3 C 0.6204(7) 0.4594(3) 0.20097(15)
H35_3 H 0.5686 0.4547 0.2049
C48_3 C 0.6567(8) 0.4769(3) 0.21080(15)
H36_3 H 0.7086 0.4826 0.2074
C49_3 C 0.6282(6) 0.48860(17) 0.22621(9)
C50_2 C 0.6692(6) 0.51080(19) 0.23306(10)
C51_2 C 0.6446(6) 0.52115(17) 0.24829(10)
H37_3 H 0.6721 0.5360 0.2529
C52_3 C 0.5790(6) 0.5093(2) 0.25666(9)
C53_3 C 0.5379(6) 0.4871(2) 0.24981(11)
C54_3 C 0.5625(6) 0.47675(19) 0.23458(11)
H38_3 H 0.5351 0.4619 0.2300
C55_3 C 0.5552(9) 0.5183(3) 0.27308(15)
H39_3 H 0.5145 0.5078 0.2781
C56_3 C 0.5820(9) 0.5388(3) 0.28193(16)
H40_3 H 0.6227 0.5491 0.2767
C57_3 C 0.5608(5) 0.54851(17) 0.29797(7)
C58_3 C 0.5020(5) 0.53595(15) 0.30790(10)
H41_3 H 0.4736 0.5208 0.3040
C59_3 C 0.4859(4) 0.54609(17) 0.32362(9)
H42_3 H 0.4466 0.5377 0.3303
C60_3 C 0.5284(5) 0.56879(17) 0.32942(7)
C61_3 C 0.5872(5) 0.58135(14) 0.31950(9)
H43_3 H 0.6156 0.5965 0.3234
C62_3 C 0.6033(5) 0.57121(16) 0.30377(8)
H44_3 H 0.6426 0.5796 0.2971
C63_3 C 0.5183(7) 0.5810(2) 0.34640(11)
C76_3 C 0.7631(12) 0.5474(3) 0.2352(3)
H52_3 H 0.8086 0.5571 0.2304
H53_3 H 0.7790 0.5403 0.2458
H54_2 H 0.7173 0.5596 0.2365
C77_5 C 0.8335(12) 0.5449(5) 0.0117(2)
H55_5 H 0.7939 0.5594 0.0110
H56_5 H 0.8053 0.5277 0.0128
H57_5 H 0.8682 0.5477 0.0211
C78_3 C 0.4492(13) 0.4510(3) 0.2490(3)
H58_2 H 0.4077 0.4413 0.2551
H59_3 H 0.4935 0.4388 0.2464
H60_3 H 0.4258 0.4580 0.2390
Yb7_3 Yb 0.8750 0.590305(11) 0.8750
O24_5 O 0.9970(5) 0.59437(18) 0.88836(7)
O26_5 O 0.8866(9) 0.5445(3) 0.99583(15)
C69_5 C 0.9741(4) 0.55977(18) 0.93620(8)
H47_5 H 0.9253 0.5587 0.9422
C70_5 C 0.9760(4) 0.57336(16) 0.92111(8)
H48_5 H 0.9285 0.5814 0.9170
C72_5 C 0.9885(8) 0.5298(3) 0.96978(13)
H50_5 H 0.9371 0.5372 0.9675
C73_5 C 0.9990(8) 0.5152(3) 0.98568(11)
C75_5 C 0.9448(9) 0.5213(3) 0.99847(13)
O8_6 O 0.7470(5) 0.34437(18) 0.11164(7)
O9_6 O 0.6366(9) 0.2945(3) 0.00417(15)
O10_6 O 0.6730(7) 0.2936(2) 0.11628(14)
C25_6 C 0.8061(9) 0.3389(3) 0.10352(12)
C26_6 C 0.7991(5) 0.32493(14) 0.08779(6)
C27_6 C 0.8702(4) 0.31290(16) 0.08160(8)
H15_6 H 0.9191 0.3140 0.0876
C28_6 C 0.8683(4) 0.29931(16) 0.06651(8)
H16_6 H 0.9159 0.2913 0.0624
C29_6 C 0.7952(4) 0.29775(16) 0.05760(7)
C30_6 C 0.7241(4) 0.30977(18) 0.06380(8)
H17_6 H 0.6753 0.3087 0.0578
C31_6 C 0.7260(4) 0.32336(16) 0.07889(8)
H18_6 H 0.6785 0.3314 0.0830
C32_6 C 0.7966(6) 0.2828(3) 0.04126(14)
H19_6 H 0.8464 0.2745 0.0387
C33_6 C 0.7385(8) 0.2798(3) 0.03022(13)
H20_6 H 0.6871 0.2872 0.0325
C34_6 C 0.7490(8) 0.2652(3) 0.01432(11)
C35_6 C 0.8037(7) 0.2433(2) 0.01318(10)
H21_6 H 0.8380 0.2387 0.0220
C36_6 C 0.6948(9) 0.2713(3) 0.00153(13)
O12_6 O 0.6024(4) 0.37543(14) 0.10858(6)
O15_6 O 0.7054(4) 0.32355(13) 0.14556(8)
O16_6 O 0.5446(4) 0.32355(13) 0.10444(8)
O25_6 O 0.5030(5) 0.34437(18) 0.13836(7)
O27_6 O 0.5770(7) 0.2936(2) 0.13372(14)
C77_6 C 0.9165(12) 0.2051(5) 0.0117(2)
H55_6 H 0.9561 0.1906 0.0110
H56_6 H 0.9447 0.2223 0.0128
H57_6 H 0.8818 0.2023 0.0211
C38_6 C 0.5835(12) 0.2949(5) 0.9883(2)
H25_6 H 0.5439 0.3094 0.9890
H26_6 H 0.5553 0.2777 0.9872
H27_6 H 0.6182 0.2977 0.9789
Yb7_4 Yb 0.8750 0.159695(11) 0.8750
O22_6 O 0.6264(6) 0.15457(14) 0.89123(7)
O24_6 O 0.7530(5) 0.15563(18) 0.88836(7)
O26_6 O 0.8634(9) 0.2055(3) 0.99583(15)
C64_6 C 0.6939(9) 0.1611(3) 0.89648(12)
C65_6 C 0.7009(5) 0.17507(14) 0.91221(6)
C66_6 C 0.6298(4) 0.18710(16) 0.91840(8)
H45_6 H 0.5809 0.1860 0.9124
C67_6 C 0.6317(4) 0.20069(16) 0.93349(8)
H46_6 H 0.5841 0.2087 0.9376
C68_6 C 0.7048(4) 0.20225(16) 0.94240(7)
C69_6 C 0.7759(4) 0.19023(18) 0.93620(8)
H47_6 H 0.8247 0.1913 0.9422
C70_6 C 0.7740(4) 0.17664(16) 0.92111(8)
H48_6 H 0.8215 0.1686 0.9170
C71_6 C 0.7034(6) 0.2172(3) 0.95874(14)
H49_6 H 0.6536 0.2255 0.9613
C72_6 C 0.7615(8) 0.2202(3) 0.96978(13)
H50_6 H 0.8129 0.2128 0.9675
C73_6 C 0.7510(8) 0.2348(3) 0.98568(11)
C74_6 C 0.6963(7) 0.2567(2) 0.98682(10)
H51_6 H 0.6620 0.2613 0.9780
C75_6 C 0.8052(9) 0.2287(3) 0.99847(13)
Yb8_4 Yb 0.1250 0.340305(11) 0.6250
O11_4 O 0.1024(4) 0.37543(14) 0.60858(6)
O14_4 O 0.2946(4) 0.57355(13) 0.39556(8)
O17_4 O 0.1794(4) 0.59749(13) 0.39859(6)
O20_3 O 0.0123(9) 0.5232(3) 0.52651(13)
O21_3 O 0.2655(10) 0.4764(3) 0.48978(14)
C40_4 C 0.0547(7) 0.3946(2) 0.60563(10)
C41_4 C 0.0743(4) 0.41361(13) 0.59204(6)
C42_4 C 0.1475(4) 0.40936(13) 0.58350(8)
H31_4 H 0.1840 0.3959 0.5870
C43_4 C 0.1660(4) 0.42518(15) 0.56971(8)
H32_4 H 0.2149 0.4223 0.5640
C44_4 C 0.1114(4) 0.44525(14) 0.56447(7)
C45_4 C 0.0382(4) 0.44950(13) 0.57300(9)
H33_4 H 0.0017 0.4629 0.5695
C46_4 C 0.0197(4) 0.43369(15) 0.58679(8)
C47_4 C 0.1296(7) 0.4594(3) 0.54903(15)
H35_4 H 0.1814 0.4547 0.5451
C48_4 C 0.0933(8) 0.4769(3) 0.53920(15)
H36_4 H 0.0414 0.4826 0.5426
C49_4 C 0.1218(6) 0.48860(17) 0.52379(9)
C50_3 C 0.0808(6) 0.51080(19) 0.51694(10)
C51_3 C 0.1054(6) 0.52115(17) 0.50171(10)
H37_4 H 0.0779 0.5360 0.4971
C52_4 C 0.1710(6) 0.5093(2) 0.49334(9)
C53_4 C 0.2121(6) 0.4871(2) 0.50019(11)
C54_4 C 0.1875(6) 0.47675(19) 0.51542(11)
H38_4 H 0.2149 0.4619 0.5200
C55_4 C 0.1948(9) 0.5183(3) 0.47692(15)
H39_4 H 0.2355 0.5078 0.4719
C56_4 C 0.1680(9) 0.5388(3) 0.46807(16)
H40_4 H 0.1273 0.5491 0.4733
C57_4 C 0.1892(5) 0.54851(17) 0.45203(7)
C58_4 C 0.2480(5) 0.53595(15) 0.44210(10)
H41_4 H 0.2764 0.5208 0.4460
C59_4 C 0.2641(4) 0.54609(17) 0.42638(9)
H42_4 H 0.3034 0.5377 0.4197
C60_4 C 0.2216(5) 0.56879(17) 0.42058(7)
C61_4 C 0.1628(5) 0.58135(14) 0.43050(9)
H43_4 H 0.1344 0.5965 0.4266
C62_4 C 0.1467(5) 0.57121(16) 0.44623(8)
H44_4 H 0.1074 0.5796 0.4529
C63_4 C 0.2317(7) 0.5810(2) 0.40360(11)
H54_3 H 0.0327 0.5596 0.5135
C78_4 C 0.3008(13) 0.4510(3) 0.5010(3)
H58_3 H 0.3423 0.4413 0.4949
H59_4 H 0.2565 0.4388 0.5036
H60_4 H 0.3242 0.4580 0.5110
Yb1_4 Yb 0.8750 0.3750 0.619679(5)
Yb2_4 Yb 0.6250 0.409695(11) 0.6250
O1_4 O 0.6476(4) 0.37457(14) 0.60858(6)
O2_4 O 0.7604(4) 0.35173(11) 0.61354(7)
O3_4 O 0.4554(4) 0.17645(13) 0.39556(8)
O4_4 O 0.5706(4) 0.15251(13) 0.39859(6)
O5_4 O 0.7377(9) 0.2268(3) 0.52651(13)
O6_4 O 0.4845(10) 0.2736(3) 0.48978(14)
O7_4 O 0.8736(6) 0.40457(14) 0.64123(7)
O8_7 O 0.7470(5) 0.40563(18) 0.63836(7)
O9_7 O 0.6366(9) 0.4555(3) 0.74583(15)
O10_7 O 0.6730(7) 0.4564(2) 0.63372(14)
C1_4 C 0.6953(7) 0.3554(2) 0.60563(10)
C2_4 C 0.6757(4) 0.33639(13) 0.59204(6)
C3_4 C 0.6025(4) 0.34064(13) 0.58350(8)
H1_4 H 0.5660 0.3541 0.5870
C4_4 C 0.5840(4) 0.32482(15) 0.56971(8)
H2_4 H 0.5351 0.3277 0.5640
C5_4 C 0.6386(4) 0.30475(14) 0.56447(7)
C6_4 C 0.7118(4) 0.30050(13) 0.57300(9)
H3_4 H 0.7483 0.2871 0.5695
C7_4 C 0.7303(4) 0.31631(15) 0.58679(8)
H4_4 H 0.7792 0.3135 0.5925
C8_4 C 0.6204(7) 0.2906(3) 0.54903(15)
H5_4 H 0.5686 0.2953 0.5451
C9_4 C 0.6567(8) 0.2731(3) 0.53920(15)
H6_4 H 0.7086 0.2674 0.5426
C10_4 C 0.6282(6) 0.26140(17) 0.52379(9)
C11_4 C 0.6692(6) 0.23920(19) 0.51694(10)
C12_4 C 0.6446(6) 0.22885(17) 0.50171(10)
H7_4 H 0.6721 0.2140 0.4971
C13_4 C 0.5790(6) 0.2407(2) 0.49334(9)
C14_4 C 0.5379(6) 0.2629(2) 0.50019(11)
C15_4 C 0.5625(6) 0.27325(19) 0.51542(11)
H8_4 H 0.5351 0.2881 0.5200
C16_4 C 0.5552(9) 0.2317(3) 0.47692(15)
H9_4 H 0.5145 0.2422 0.4719
C17_4 C 0.5820(9) 0.2112(3) 0.46807(16)
H10_4 H 0.6227 0.2009 0.4733
C18_4 C 0.5608(5) 0.20149(17) 0.45203(7)
C19_4 C 0.5020(5) 0.21405(15) 0.44210(10)
H11_4 H 0.4736 0.2292 0.4460
C20_4 C 0.4859(4) 0.20391(17) 0.42638(9)
H12_4 H 0.4466 0.2123 0.4197
C21_4 C 0.5284(5) 0.18121(17) 0.42058(7)
C22_4 C 0.5872(5) 0.16865(14) 0.43050(9)
H13_4 H 0.6156 0.1535 0.4266
C23_4 C 0.6033(5) 0.17879(16) 0.44623(8)
H14_4 H 0.6426 0.1704 0.4529
C24_4 C 0.5183(7) 0.1690(2) 0.40360(11)
C25_7 C 0.8061(9) 0.4111(3) 0.64648(12)
C26_7 C 0.7991(5) 0.42507(14) 0.66221(6)
C27_7 C 0.8702(4) 0.43710(16) 0.66840(8)
H15_7 H 0.9191 0.4360 0.6624
C28_7 C 0.8683(4) 0.45069(16) 0.68349(8)
H16_7 H 0.9159 0.4587 0.6876
C29_7 C 0.7952(4) 0.45225(16) 0.69240(7)
C30_7 C 0.7241(4) 0.44023(18) 0.68620(8)
H17_7 H 0.6753 0.4413 0.6922
C31_7 C 0.7260(4) 0.42664(16) 0.67111(8)
H18_7 H 0.6785 0.4186 0.6670
C32_7 C 0.7966(6) 0.4672(3) 0.70874(14)
H19_7 H 0.8464 0.4755 0.7113
C33_7 C 0.7385(8) 0.4702(3) 0.71978(13)
H20_7 H 0.6871 0.4628 0.7175
C34_7 C 0.7490(8) 0.4848(3) 0.73568(11)
C35_7 C 0.8037(7) 0.5067(2) 0.73682(10)
H21_7 H 0.8380 0.5113 0.7280
C36_7 C 0.6948(9) 0.4787(3) 0.74847(13)
C37_4 C 0.7631(12) 0.2026(3) 0.5148(3)
H22_4 H 0.8086 0.1929 0.5196
H23_4 H 0.7790 0.2097 0.5042
H24_4 H 0.7173 0.1904 0.5135
C38_7 C 0.5835(12) 0.4551(5) 0.7617(2)
H25_7 H 0.5439 0.4406 0.7610
H26_7 H 0.5553 0.4723 0.7628
H27_7 H 0.6182 0.4523 0.7711
C39_4 C 0.4492(13) 0.2990(3) 0.5010(3)
H28_4 H 0.4077 0.3087 0.4949
H29_4 H 0.4935 0.3112 0.5036
H30_4 H 0.4258 0.2920 0.5110
O12_7 O 0.6024(4) 0.37457(14) 0.64142(6)
O13_4 O 0.9896(4) 0.39827(11) 0.61354(7)
O15_7 O 0.7054(4) 0.42645(13) 0.60444(8)
O16_7 O 0.5446(4) 0.42645(13) 0.64556(8)
O18_4 O 0.8206(4) 0.40251(13) 0.60141(6)
O19_4 O 0.9294(4) 0.34749(13) 0.60141(6)
O22_7 O 0.6264(6) 0.59543(14) 0.85877(7)
O23_4 O 0.8764(6) 0.34543(14) 0.64123(7)
O24_7 O 0.7530(5) 0.59437(18) 0.86164(7)
O25_7 O 0.5030(5) 0.40563(18) 0.61164(7)
O26_7 O 0.8634(9) 0.5445(3) 0.75417(15)
O27_7 O 0.5770(7) 0.4564(2) 0.61628(14)
H34_4 H 0.9708 0.4365 0.5925
C64_7 C 0.6939(9) 0.5889(3) 0.85352(12)
C65_7 C 0.7009(5) 0.57493(14) 0.83779(6)
C66_7 C 0.6298(4) 0.56290(16) 0.83160(8)
H45_7 H 0.5809 0.5640 0.8376
C67_7 C 0.6317(4) 0.54931(16) 0.81651(8)
H46_7 H 0.5841 0.5413 0.8124
C68_7 C 0.7048(4) 0.54775(16) 0.80760(7)
C69_7 C 0.7759(4) 0.55977(18) 0.81380(8)
H47_7 H 0.8247 0.5587 0.8078
C70_7 C 0.7740(4) 0.57336(16) 0.82889(8)
H48_7 H 0.8215 0.5814 0.8330
C71_7 C 0.7034(6) 0.5328(3) 0.79126(14)
H49_7 H 0.6536 0.5245 0.7887
C72_7 C 0.7615(8) 0.5298(3) 0.78022(13)
H50_7 H 0.8129 0.5372 0.7825
C73_7 C 0.7510(8) 0.5152(3) 0.76432(11)
C74_7 C 0.6963(7) 0.4933(2) 0.76318(10)
H51_7 H 0.6620 0.4887 0.7720
C75_7 C 0.8052(9) 0.5213(3) 0.75153(13)
C76_4 C 0.9869(12) 0.5474(3) 0.5148(3)
H52_4 H 0.9414 0.5571 0.5196
H53_4 H 0.9710 0.5403 0.5042
C77_7 C 0.9165(12) 0.5449(5) 0.7383(2)
H55_7 H 0.9561 0.5594 0.7390
H56_7 H 0.9447 0.5277 0.7372
H57_7 H 0.8818 0.5477 0.7289
O8_8 O 0.0030(5) 0.34437(18) 0.63836(7)
O9_8 O 0.1134(9) 0.2945(3) 0.74583(15)
O10_8 O 0.0770(7) 0.2936(2) 0.63372(14)
C30_8 C 0.0259(4) 0.30977(18) 0.68620(8)
H17_8 H 0.0747 0.3087 0.6922
C31_8 C 0.0240(4) 0.32336(16) 0.67111(8)
H18_8 H 0.0715 0.3314 0.6670
C33_8 C 0.0115(8) 0.2798(3) 0.71978(13)
H20_8 H 0.0629 0.2872 0.7175
C34_8 C 0.0010(8) 0.2652(3) 0.73568(11)
C36_8 C 0.0552(9) 0.2713(3) 0.74847(13)
C38_8 C 0.1665(12) 0.2949(5) 0.7617(2)
H25_8 H 0.2061 0.3094 0.7610
H26_8 H 0.1947 0.2777 0.7628
H27_8 H 0.1318 0.2977 0.7711
O12_8 O 0.1476(4) 0.37543(14) 0.64142(6)
O15_8 O 0.0446(4) 0.32355(13) 0.60444(8)
O16_8 O 0.2054(4) 0.32355(13) 0.64556(8)
O22_8 O 0.1236(6) 0.15457(14) 0.85877(7)
O25_8 O 0.2470(5) 0.34437(18) 0.61164(7)
O27_8 O 0.1730(7) 0.2936(2) 0.61628(14)
C64_8 C 0.0561(9) 0.1611(3) 0.85352(12)
C65_8 C 0.0491(5) 0.17507(14) 0.83779(6)
C66_8 C 0.1202(4) 0.18710(16) 0.83160(8)
H45_8 H 0.1691 0.1860 0.8376
C67_8 C 0.1183(4) 0.20069(16) 0.81651(8)
H46_8 H 0.1659 0.2087 0.8124
C68_8 C 0.0452(4) 0.20225(16) 0.80760(7)
C71_8 C 0.0466(6) 0.2172(3) 0.79126(14)
H49_8 H 0.0964 0.2255 0.7887
C74_8 C 0.0537(7) 0.2567(2) 0.76318(10)
H51_8 H 0.0880 0.2613 0.7720
C25_8 C 0.9439(9) 0.3389(3) 0.64648(12)
C26_8 C 0.9509(5) 0.32493(14) 0.66221(6)
C27_8 C 0.8798(4) 0.31290(16) 0.66840(8)
H15_8 H 0.8309 0.3140 0.6624
C28_8 C 0.8817(4) 0.29931(16) 0.68349(8)
H16_8 H 0.8341 0.2913 0.6876
C29_8 C 0.9548(4) 0.29775(16) 0.69240(7)
C32_8 C 0.9534(6) 0.2828(3) 0.70874(14)
H19_8 H 0.9036 0.2745 0.7113
C35_8 C 0.9463(7) 0.2433(2) 0.73682(10)
H21_8 H 0.9120 0.2387 0.7280
O24_8 O 0.9970(5) 0.15563(18) 0.86164(7)
O26_8 O 0.8866(9) 0.2055(3) 0.75417(15)
C69_8 C 0.9741(4) 0.19023(18) 0.81380(8)
H47_8 H 0.9253 0.1913 0.8078
C70_8 C 0.9760(4) 0.17664(16) 0.82889(8)
H48_8 H 0.9285 0.1686 0.8330
C72_8 C 0.9885(8) 0.2202(3) 0.78022(13)
H50_8 H 0.9371 0.2128 0.7825
C73_8 C 0.9990(8) 0.2348(3) 0.76432(11)
C75_8 C 0.9448(9) 0.2287(3) 0.75153(13)
C77_8 C 0.8335(12) 0.2051(5) 0.7383(2)
H55_8 H 0.7939 0.1906 0.7390
H56_8 H 0.8053 0.2223 0.7372
H57_8 H 0.8682 0.2023 0.7289
C35_9 C 0.4463(7) 0.0067(2) 0.01318(10)
H21_9 H 0.4120 0.0113 0.0220
O17_5 O 0.0706(4) 0.09749(13) 0.35141(6)
O20_4 O 0.2377(9) 0.0232(3) 0.22349(13)
C50_4 C 0.1692(6) 0.01080(19) 0.23306(10)
C51_4 C 0.1446(6) 0.02115(17) 0.24829(10)
H37_5 H 0.1721 0.0360 0.2529
C52_5 C 0.0790(6) 0.0093(2) 0.25666(9)
C55_5 C 0.0552(9) 0.0183(3) 0.27308(15)
H39_5 H 0.0145 0.0078 0.2781
C56_5 C 0.0820(9) 0.0388(3) 0.28193(16)
H40_5 H 0.1227 0.0491 0.2767
C57_5 C 0.0608(5) 0.04851(17) 0.29797(7)
C58_5 C 0.0020(5) 0.03595(15) 0.30790(10)
C60_5 C 0.0284(5) 0.06879(17) 0.32942(7)
C61_5 C 0.0872(5) 0.08135(14) 0.31950(9)
H43_5 H 0.1156 0.0965 0.3234
C62_5 C 0.1033(5) 0.07121(16) 0.30377(8)
H44_5 H 0.1426 0.0796 0.2971
C63_5 C 0.0183(7) 0.0810(2) 0.34640(11)
C76_5 C 0.2631(12) 0.0474(3) 0.2352(3)
H52_5 H 0.3086 0.0571 0.2304
H53_5 H 0.2790 0.0403 0.2458
H54_4 H 0.2173 0.0596 0.2365
C77_9 C 0.3335(12) 0.0449(5) 0.0117(2)
H55_9 H 0.2939 0.0594 0.0110
H56_9 H 0.3053 0.0277 0.0128
H57_9 H 0.3682 0.0477 0.0211
O22_9 O 0.6236(6) 0.09543(14) 0.89123(7)
O24_9 O 0.4970(5) 0.09437(18) 0.88836(7)
O26_9 O 0.3866(9) 0.0445(3) 0.99583(15)
C64_9 C 0.5561(9) 0.0889(3) 0.89648(12)
C65_9 C 0.5491(5) 0.07493(14) 0.91221(6)
C66_9 C 0.6202(4) 0.06290(16) 0.91840(8)
H45_9 H 0.6691 0.0640 0.9124
C67_9 C 0.6183(4) 0.04931(16) 0.93349(8)
H46_9 H 0.6659 0.0413 0.9376
C68_9 C 0.5452(4) 0.04775(16) 0.94240(7)
C69_9 C 0.4741(4) 0.05977(18) 0.93620(8)
H47_9 H 0.4253 0.0587 0.9422
C70_9 C 0.4760(4) 0.07336(16) 0.92111(8)
H48_9 H 0.4285 0.0814 0.9170
C71_9 C 0.5466(6) 0.0328(3) 0.95874(14)
H49_9 H 0.5964 0.0245 0.9613
C72_9 C 0.4885(8) 0.0298(3) 0.96978(13)
H50_9 H 0.4371 0.0372 0.9675
C73_9 C 0.4990(8) 0.0152(3) 0.98568(11)
C75_9 C 0.4448(9) 0.0213(3) 0.99847(13)
Yb1_5 Yb 0.3750 0.8750 0.130321(5)
O2_5 O 0.4896(4) 0.85173(11) 0.13646(7)
O3_5 O 0.7946(4) 0.67645(13) 0.35444(8)
O4_5 O 0.6794(4) 0.65251(13) 0.35141(6)
O5_5 O 0.5123(9) 0.7268(3) 0.22349(13)
O6_5 O 0.7655(10) 0.7736(3) 0.26022(14)
O7_5 O 0.3764(6) 0.90457(14) 0.10877(7)
O9_9 O 0.6134(9) 0.9555(3) 0.00417(15)
C1_5 C 0.5547(7) 0.8554(2) 0.14437(10)
C2_5 C 0.5743(4) 0.83639(13) 0.15796(6)
C3_5 C 0.6475(4) 0.84064(13) 0.16650(8)
H1_5 H 0.6840 0.8541 0.1630
C4_5 C 0.6660(4) 0.82482(15) 0.18029(8)
H2_5 H 0.7149 0.8277 0.1860
C5_5 C 0.6114(4) 0.80475(14) 0.18553(7)
C6_5 C 0.5382(4) 0.80050(13) 0.17700(9)
H3_5 H 0.5017 0.7871 0.1805
C7_5 C 0.5197(4) 0.81631(15) 0.16321(8)
H4_5 H 0.4708 0.8135 0.1575
C8_5 C 0.6296(7) 0.7906(3) 0.20097(15)
H5_5 H 0.6814 0.7953 0.2049
C9_5 C 0.5933(8) 0.7731(3) 0.21080(15)
H6_5 H 0.5414 0.7674 0.2074
C10_5 C 0.6218(6) 0.76140(17) 0.22621(9)
C11_5 C 0.5808(6) 0.73920(19) 0.23306(10)
C12_5 C 0.6054(6) 0.72885(17) 0.24829(10)
H7_5 H 0.5779 0.7140 0.2529
C13_5 C 0.6710(6) 0.7407(2) 0.25666(9)
C14_5 C 0.7121(6) 0.7629(2) 0.24981(11)
C15_5 C 0.6875(6) 0.77325(19) 0.23458(11)
H8_5 H 0.7149 0.7881 0.2300
C16_5 C 0.6948(9) 0.7317(3) 0.27308(15)
H9_5 H 0.7355 0.7422 0.2781
C17_5 C 0.6680(9) 0.7112(3) 0.28193(16)
H10_5 H 0.6273 0.7009 0.2767
C18_5 C 0.6892(5) 0.70149(17) 0.29797(7)
C19_5 C 0.7480(5) 0.71405(15) 0.30790(10)
H11_5 H 0.7764 0.7292 0.3040
C20_5 C 0.7641(4) 0.70391(17) 0.32362(9)
H12_5 H 0.8034 0.7123 0.3303
C21_5 C 0.7216(5) 0.68121(17) 0.32942(7)
C22_5 C 0.6628(5) 0.66865(14) 0.31950(9)
H13_5 H 0.6344 0.6535 0.3234
C23_5 C 0.6467(5) 0.67879(16) 0.30377(8)
H14_5 H 0.6074 0.6704 0.2971
C24_5 C 0.7317(7) 0.6690(2) 0.34640(11)
C25_9 C 0.4439(9) 0.9111(3) 0.10352(12)
C26_9 C 0.4509(5) 0.92507(14) 0.08779(6)
C27_9 C 0.3798(4) 0.93710(16) 0.08160(8)
H15_9 H 0.3309 0.9360 0.0876
C28_9 C 0.3817(4) 0.95069(16) 0.06651(8)
H16_9 H 0.3341 0.9587 0.0624
C29_9 C 0.4548(4) 0.95225(16) 0.05760(7)
C30_9 C 0.5259(4) 0.94023(18) 0.06380(8)
H17_9 H 0.5747 0.9413 0.0578
C31_9 C 0.5240(4) 0.92664(16) 0.07889(8)
H18_9 H 0.5715 0.9186 0.0830
C32_9 C 0.4534(6) 0.9672(3) 0.04126(14)
H19_9 H 0.4036 0.9755 0.0387
C33_9 C 0.5115(8) 0.9702(3) 0.03022(13)
H20_9 H 0.5629 0.9628 0.0325
C34_9 C 0.5010(8) 0.9848(3) 0.01432(11)
C36_9 C 0.5552(9) 0.9787(3) 0.00153(13)
C37_5 C 0.4869(12) 0.7026(3) 0.2352(3)
H22_5 H 0.4414 0.6929 0.2304
H23_5 H 0.4710 0.7097 0.2458
H24_5 H 0.5327 0.6904 0.2365
C39_5 C 0.8008(13) 0.7990(3) 0.2490(3)
H28_5 H 0.8423 0.8087 0.2551
H29_5 H 0.7565 0.8112 0.2464
H30_5 H 0.8242 0.7920 0.2390
O13_5 O 0.2604(4) 0.89827(11) 0.13646(7)
O18_5 O 0.4294(4) 0.90251(13) 0.14859(6)
O19_5 O 0.3206(4) 0.84749(13) 0.14859(6)
O23_5 O 0.3736(6) 0.84543(14) 0.10877(7)
C40_5 C 0.1953(7) 0.8946(2) 0.14437(10)
C41_5 C 0.1757(4) 0.91361(13) 0.15796(6)
C42_5 C 0.1025(4) 0.90936(13) 0.16650(8)
H31_5 H 0.0660 0.8959 0.1630
C43_5 C 0.0840(4) 0.92518(15) 0.18029(8)
H32_5 H 0.0351 0.9223 0.1860
C44_5 C 0.1386(4) 0.94525(14) 0.18553(7)
C45_5 C 0.2118(4) 0.94950(13) 0.17700(9)
H33_5 H 0.2483 0.9629 0.1805
C46_5 C 0.2303(4) 0.93369(15) 0.16321(8)
H34_5 H 0.2792 0.9365 0.1575
C47_5 C 0.1204(7) 0.9594(3) 0.20097(15)
H35_5 H 0.0686 0.9547 0.2049
C48_5 C 0.1567(8) 0.9769(3) 0.21080(15)
H36_5 H 0.2086 0.9826 0.2074
C49_5 C 0.1282(6) 0.98860(17) 0.22621(9)
C53_5 C 0.0379(6) 0.9871(2) 0.24981(11)
C54_5 C 0.0625(6) 0.97675(19) 0.23458(11)
H38_5 H 0.0351 0.9619 0.2300
C38_9 C 0.6665(12) 0.9551(5) 0.9883(2)
H25_9 H 0.7061 0.9406 0.9890
H26_9 H 0.6947 0.9723 0.9872
H27_9 H 0.6318 0.9523 0.9789
C74_9 C 0.5537(7) 0.9933(2) 0.98682(10)
H51_9 H 0.5880 0.9887 0.9780
O14_5 O 0.9554(4) 0.07355(13) 0.35444(8)
H41_5 H 0.9736 0.0208 0.3040
C59_5 C 0.9859(4) 0.04609(17) 0.32362(9)
H42_5 H 0.9466 0.0377 0.3303
O9_10 O 0.1366(9) 0.7945(3) 0.00417(15)
C25_10 C 0.3061(9) 0.8389(3) 0.10352(12)
C26_10 C 0.2991(5) 0.82493(14) 0.08779(6)
C27_10 C 0.3702(4) 0.81290(16) 0.08160(8)
H15_10 H 0.4191 0.8140 0.0876
C28_10 C 0.3683(4) 0.79931(16) 0.06651(8)
H16_10 H 0.4159 0.7913 0.0624
C29_10 C 0.2952(4) 0.79775(16) 0.05760(7)
C30_10 C 0.2241(4) 0.80977(18) 0.06380(8)
H17_10 H 0.1753 0.8087 0.0578
C31_10 C 0.2260(4) 0.82336(16) 0.07889(8)
H18_10 H 0.1785 0.8314 0.0830
C32_10 C 0.2966(6) 0.7828(3) 0.04126(14)
H19_10 H 0.3464 0.7745 0.0387
C33_10 C 0.2385(8) 0.7798(3) 0.03022(13)
H20_10 H 0.1871 0.7872 0.0325
C34_10 C 0.2490(8) 0.7652(3) 0.01432(11)
C35_10 C 0.3037(7) 0.7433(2) 0.01318(10)
H21_10 H 0.3380 0.7387 0.0220
C36_10 C 0.1948(9) 0.7713(3) 0.00153(13)
C77_10 C 0.4165(12) 0.7051(5) 0.0117(2)
H55_10 H 0.4561 0.6906 0.0110
H56_10 H 0.4447 0.7223 0.0128
H57_10 H 0.3818 0.7023 0.0211
C38_10 C 0.0835(12) 0.7949(5) 0.9883(2)
H25_10 H 0.0439 0.8094 0.9890
H26_10 H 0.0553 0.7777 0.9872
H27_10 H 0.1182 0.7977 0.9789
O22_10 O 0.1264(6) 0.65457(14) 0.89123(7)
O24_10 O 0.2530(5) 0.65563(18) 0.88836(7)
O26_10 O 0.3634(9) 0.7055(3) 0.99583(15)
C64_10 C 0.1939(9) 0.6611(3) 0.89648(12)
C65_10 C 0.2009(5) 0.67507(14) 0.91221(6)
C66_10 C 0.1298(4) 0.68710(16) 0.91840(8)
H45_10 H 0.0809 0.6860 0.9124
C67_10 C 0.1317(4) 0.70069(16) 0.93349(8)
H46_10 H 0.0841 0.7087 0.9376
C68_10 C 0.2048(4) 0.70225(16) 0.94240(7)
C69_10 C 0.2759(4) 0.69023(18) 0.93620(8)
H47_10 H 0.3247 0.6913 0.9422
C70_10 C 0.2740(4) 0.67664(16) 0.92111(8)
H48_10 H 0.3215 0.6686 0.9170
C71_10 C 0.2034(6) 0.7172(3) 0.95874(14)
H49_10 H 0.1536 0.7255 0.9613
C72_10 C 0.2615(8) 0.7202(3) 0.96978(13)
H50_10 H 0.3129 0.7128 0.9675
C73_10 C 0.2510(8) 0.7348(3) 0.98568(11)
C74_10 C 0.1963(7) 0.7567(2) 0.98682(10)
H51_10 H 0.1620 0.7613 0.9780
C75_10 C 0.3052(9) 0.7287(3) 0.99847(13)
C35_11 C 0.3037(7) 0.0067(2) 0.73682(10)
H21_11 H 0.3380 0.0113 0.7280
O14_6 O 0.7946(4) 0.07355(13) 0.39556(8)
O17_6 O 0.6794(4) 0.09749(13) 0.39859(6)
O20_5 O 0.5123(9) 0.0232(3) 0.52651(13)
O22_11 O 0.1264(6) 0.09543(14) 0.85877(7)
O24_11 O 0.2530(5) 0.09437(18) 0.86164(7)
O26_11 O 0.3634(9) 0.0445(3) 0.75417(15)
C50_5 C 0.5808(6) 0.01080(19) 0.51694(10)
C51_5 C 0.6054(6) 0.02115(17) 0.50171(10)
H37_6 H 0.5779 0.0360 0.4971
C52_6 C 0.6710(6) 0.0093(2) 0.49334(9)
C55_6 C 0.6948(9) 0.0183(3) 0.47692(15)
H39_6 H 0.7355 0.0078 0.4719
C56_6 C 0.6680(9) 0.0388(3) 0.46807(16)
H40_6 H 0.6273 0.0491 0.4733
C57_6 C 0.6892(5) 0.04851(17) 0.45203(7)
C58_6 C 0.7480(5) 0.03595(15) 0.44210(10)
H41_6 H 0.7764 0.0208 0.4460
C59_6 C 0.7641(4) 0.04609(17) 0.42638(9)
H42_6 H 0.8034 0.0377 0.4197
C60_6 C 0.7216(5) 0.06879(17) 0.42058(7)
C61_6 C 0.6628(5) 0.08135(14) 0.43050(9)
H43_6 H 0.6344 0.0965 0.4266
C62_6 C 0.6467(5) 0.07121(16) 0.44623(8)
H44_6 H 0.6074 0.0796 0.4529
C63_6 C 0.7317(7) 0.0810(2) 0.40360(11)
C64_11 C 0.1939(9) 0.0889(3) 0.85352(12)
C65_11 C 0.2009(5) 0.07493(14) 0.83779(6)
C66_11 C 0.1298(4) 0.06290(16) 0.83160(8)
H45_11 H 0.0809 0.0640 0.8376
C67_11 C 0.1317(4) 0.04931(16) 0.81651(8)
H46_11 H 0.0841 0.0413 0.8124
C68_11 C 0.2048(4) 0.04775(16) 0.80760(7)
C69_11 C 0.2759(4) 0.05977(18) 0.81380(8)
H47_11 H 0.3247 0.0587 0.8078
C70_11 C 0.2740(4) 0.07336(16) 0.82889(8)
H48_11 H 0.3215 0.0814 0.8330
C71_11 C 0.2034(6) 0.0328(3) 0.79126(14)
H49_11 H 0.1536 0.0245 0.7887
C72_11 C 0.2615(8) 0.0298(3) 0.78022(13)
H50_11 H 0.3129 0.0372 0.7825
C73_11 C 0.2510(8) 0.0152(3) 0.76432(11)
C75_11 C 0.3052(9) 0.0213(3) 0.75153(13)
C76_6 C 0.4869(12) 0.0474(3) 0.5148(3)
H52_6 H 0.4414 0.0571 0.5196
H53_6 H 0.4710 0.0403 0.5042
H54_5 H 0.5327 0.0596 0.5135
C77_11 C 0.4165(12) 0.0449(5) 0.7383(2)
H55_11 H 0.4561 0.0594 0.7390
H56_11 H 0.4447 0.0277 0.7372
H57_11 H 0.3818 0.0477 0.7289
Yb1_6 Yb 0.3750 0.8750 0.619679(5)
O2_6 O 0.2604(4) 0.85173(11) 0.61354(7)
O4_6 O 0.0706(4) 0.65251(13) 0.39859(6)
O5_6 O 0.2377(9) 0.7268(3) 0.52651(13)
O7_6 O 0.3736(6) 0.90457(14) 0.64123(7)
O9_11 O 0.1366(9) 0.9555(3) 0.74583(15)
C1_6 C 0.1953(7) 0.8554(2) 0.60563(10)
C2_6 C 0.1757(4) 0.83639(13) 0.59204(6)
C3_6 C 0.1025(4) 0.84064(13) 0.58350(8)
H1_6 H 0.0660 0.8541 0.5870
C4_6 C 0.0840(4) 0.82482(15) 0.56971(8)
H2_6 H 0.0351 0.8277 0.5640
C5_6 C 0.1386(4) 0.80475(14) 0.56447(7)
C6_6 C 0.2118(4) 0.80050(13) 0.57300(9)
H3_6 H 0.2483 0.7871 0.5695
C7_6 C 0.2303(4) 0.81631(15) 0.58679(8)
H4_6 H 0.2792 0.8135 0.5925
C8_6 C 0.1204(7) 0.7906(3) 0.54903(15)
H5_6 H 0.0686 0.7953 0.5451
C9_6 C 0.1567(8) 0.7731(3) 0.53920(15)
H6_6 H 0.2086 0.7674 0.5426
C10_6 C 0.1282(6) 0.76140(17) 0.52379(9)
C11_6 C 0.1692(6) 0.73920(19) 0.51694(10)
C12_6 C 0.1446(6) 0.72885(17) 0.50171(10)
H7_6 H 0.1721 0.7140 0.4971
C13_6 C 0.0790(6) 0.7407(2) 0.49334(9)
C14_6 C 0.0379(6) 0.7629(2) 0.50019(11)
C15_6 C 0.0625(6) 0.77325(19) 0.51542(11)
H8_6 H 0.0351 0.7881 0.5200
C16_6 C 0.0552(9) 0.7317(3) 0.47692(15)
H9_6 H 0.0145 0.7422 0.4719
C17_6 C 0.0820(9) 0.7112(3) 0.46807(16)
H10_6 H 0.1227 0.7009 0.4733
C18_6 C 0.0608(5) 0.70149(17) 0.45203(7)
C19_6 C 0.0020(5) 0.71405(15) 0.44210(10)
C21_6 C 0.0284(5) 0.68121(17) 0.42058(7)
C22_6 C 0.0872(5) 0.66865(14) 0.43050(9)
H13_6 H 0.1156 0.6535 0.4266
C23_6 C 0.1033(5) 0.67879(16) 0.44623(8)
H14_6 H 0.1426 0.6704 0.4529
C24_6 C 0.0183(7) 0.6690(2) 0.40360(11)
C25_11 C 0.3061(9) 0.9111(3) 0.64648(12)
C26_11 C 0.2991(5) 0.92507(14) 0.66221(6)
C27_11 C 0.3702(4) 0.93710(16) 0.66840(8)
H15_11 H 0.4191 0.9360 0.6624
C28_11 C 0.3683(4) 0.95069(16) 0.68349(8)
H16_11 H 0.4159 0.9587 0.6876
C29_11 C 0.2952(4) 0.95225(16) 0.69240(7)
C30_11 C 0.2241(4) 0.94023(18) 0.68620(8)
H17_11 H 0.1753 0.9413 0.6922
C31_11 C 0.2260(4) 0.92664(16) 0.67111(8)
H18_11 H 0.1785 0.9186 0.6670
C32_11 C 0.2966(6) 0.9672(3) 0.70874(14)
H19_11 H 0.3464 0.9755 0.7113
C33_11 C 0.2385(8) 0.9702(3) 0.71978(13)
H20_11 H 0.1871 0.9628 0.7175
C34_11 C 0.2490(8) 0.9848(3) 0.73568(11)
C36_11 C 0.1948(9) 0.9787(3) 0.74847(13)
C37_6 C 0.2631(12) 0.7026(3) 0.5148(3)
H22_6 H 0.3086 0.6929 0.5196
H23_6 H 0.2790 0.7097 0.5042
H24_6 H 0.2173 0.6904 0.5135
C38_11 C 0.0835(12) 0.9551(5) 0.7617(2)
H25_11 H 0.0439 0.9406 0.7610
H26_11 H 0.0553 0.9723 0.7628
H27_11 H 0.1182 0.9523 0.7711
O13_6 O 0.4896(4) 0.89827(11) 0.61354(7)
O18_6 O 0.3206(4) 0.90251(13) 0.60141(6)
O19_6 O 0.4294(4) 0.84749(13) 0.60141(6)
O21_4 O 0.7655(10) 0.9764(3) 0.48978(14)
O23_6 O 0.3764(6) 0.84543(14) 0.64123(7)
C40_6 C 0.5547(7) 0.8946(2) 0.60563(10)
C41_6 C 0.5743(4) 0.91361(13) 0.59204(6)
C42_6 C 0.6475(4) 0.90936(13) 0.58350(8)
H31_6 H 0.6840 0.8959 0.5870
C43_6 C 0.6660(4) 0.92518(15) 0.56971(8)
H32_6 H 0.7149 0.9223 0.5640
C44_6 C 0.6114(4) 0.94525(14) 0.56447(7)
C45_6 C 0.5382(4) 0.94950(13) 0.57300(9)
H33_6 H 0.5017 0.9629 0.5695
C46_6 C 0.5197(4) 0.93369(15) 0.58679(8)
H34_6 H 0.4708 0.9365 0.5925
C47_6 C 0.6296(7) 0.9594(3) 0.54903(15)
H35_6 H 0.6814 0.9547 0.5451
C48_6 C 0.5933(8) 0.9769(3) 0.53920(15)
H36_6 H 0.5414 0.9826 0.5426
C49_6 C 0.6218(6) 0.98860(17) 0.52379(9)
C53_6 C 0.7121(6) 0.9871(2) 0.50019(11)
C54_6 C 0.6875(6) 0.97675(19) 0.51542(11)
H38_6 H 0.7149 0.9619 0.5200
C74_11 C 0.1963(7) 0.9933(2) 0.76318(10)
H51_11 H 0.1620 0.9887 0.7720
C78_5 C 0.8008(13) 0.9510(3) 0.5010(3)
H58_4 H 0.8423 0.9413 0.4949
H59_5 H 0.7565 0.9388 0.5036
H60_5 H 0.8242 0.9580 0.5110
O3_6 O 0.9554(4) 0.67645(13) 0.39556(8)
O6_6 O 0.9845(10) 0.7736(3) 0.48978(14)
H11_6 H 0.9736 0.7292 0.4460
C20_6 C 0.9859(4) 0.70391(17) 0.42638(9)
H12_6 H 0.9466 0.7123 0.4197
C39_6 C 0.9492(13) 0.7990(3) 0.5010(3)
H28_6 H 0.9077 0.8087 0.4949
H29_6 H 0.9935 0.8112 0.5036
H30_6 H 0.9258 0.7920 0.5110
O9_12 O 0.6134(9) 0.7945(3) 0.74583(15)
C25_12 C 0.4439(9) 0.8389(3) 0.64648(12)
C26_12 C 0.4509(5) 0.82493(14) 0.66221(6)
C27_12 C 0.3798(4) 0.81290(16) 0.66840(8)
H15_12 H 0.3309 0.8140 0.6624
C28_12 C 0.3817(4) 0.79931(16) 0.68349(8)
H16_12 H 0.3341 0.7913 0.6876
C29_12 C 0.4548(4) 0.79775(16) 0.69240(7)
C30_12 C 0.5259(4) 0.80977(18) 0.68620(8)
H17_12 H 0.5747 0.8087 0.6922
C31_12 C 0.5240(4) 0.82336(16) 0.67111(8)
H18_12 H 0.5715 0.8314 0.6670
C32_12 C 0.4534(6) 0.7828(3) 0.70874(14)
H19_12 H 0.4036 0.7745 0.7113
C33_12 C 0.5115(8) 0.7798(3) 0.71978(13)
H20_12 H 0.5629 0.7872 0.7175
C34_12 C 0.5010(8) 0.7652(3) 0.73568(11)
C35_12 C 0.4463(7) 0.7433(2) 0.73682(10)
H21_12 H 0.4120 0.7387 0.7280
C36_12 C 0.5552(9) 0.7713(3) 0.74847(13)
C38_12 C 0.6665(12) 0.7949(5) 0.7617(2)
H25_12 H 0.7061 0.8094 0.7610
H26_12 H 0.6947 0.7777 0.7628
H27_12 H 0.6318 0.7977 0.7711
O22_12 O 0.6236(6) 0.65457(14) 0.85877(7)
O24_12 O 0.4970(5) 0.65563(18) 0.86164(7)
O26_12 O 0.3866(9) 0.7055(3) 0.75417(15)
C64_12 C 0.5561(9) 0.6611(3) 0.85352(12)
C65_12 C 0.5491(5) 0.67507(14) 0.83779(6)
C66_12 C 0.6202(4) 0.68710(16) 0.83160(8)
H45_12 H 0.6691 0.6860 0.8376
C67_12 C 0.6183(4) 0.70069(16) 0.81651(8)
H46_12 H 0.6659 0.7087 0.8124
C68_12 C 0.5452(4) 0.70225(16) 0.80760(7)
C69_12 C 0.4741(4) 0.69023(18) 0.81380(8)
H47_12 H 0.4253 0.6913 0.8078
C70_12 C 0.4760(4) 0.67664(16) 0.82889(8)
H48_12 H 0.4285 0.6686 0.8330
C71_12 C 0.5466(6) 0.7172(3) 0.79126(14)
H49_12 H 0.5964 0.7255 0.7887
C72_12 C 0.4885(8) 0.7202(3) 0.78022(13)
H50_12 H 0.4371 0.7128 0.7825
C73_12 C 0.4990(8) 0.7348(3) 0.76432(11)
C74_12 C 0.5537(7) 0.7567(2) 0.76318(10)
H51_12 H 0.5880 0.7613 0.7720
C75_12 C 0.4448(9) 0.7287(3) 0.75153(13)
C77_12 C 0.3335(12) 0.7051(5) 0.7383(2)
H55_12 H 0.2939 0.6906 0.7390
H56_12 H 0.3053 0.7223 0.7372
H57_12 H 0.3682 0.7023 0.7289
Yb1_7 Yb 0.3750 0.3750 0.630321(5)
O2_7 O 0.4896(4) 0.35173(11) 0.63646(7)
O3_7 O 0.7946(4) 0.17645(13) 0.85444(8)
O4_7 O 0.6794(4) 0.15251(13) 0.85141(6)
O5_7 O 0.5123(9) 0.2268(3) 0.72349(13)
O6_7 O 0.7655(10) 0.2736(3) 0.76022(14)
O7_7 O 0.3764(6) 0.40457(14) 0.60877(7)
O9_13 O 0.6134(9) 0.4555(3) 0.50417(15)
C1_7 C 0.5547(7) 0.3554(2) 0.64437(10)
C2_7 C 0.5743(4) 0.33639(13) 0.65796(6)
C3_7 C 0.6475(4) 0.34064(13) 0.66650(8)
H1_7 H 0.6840 0.3541 0.6630
C4_7 C 0.6660(4) 0.32482(15) 0.68029(8)
H2_7 H 0.7149 0.3277 0.6860
C5_7 C 0.6114(4) 0.30475(14) 0.68553(7)
C6_7 C 0.5382(4) 0.30050(13) 0.67700(9)
H3_7 H 0.5017 0.2871 0.6805
C7_7 C 0.5197(4) 0.31631(15) 0.66321(8)
H4_7 H 0.4708 0.3135 0.6575
C8_7 C 0.6296(7) 0.2906(3) 0.70097(15)
H5_7 H 0.6814 0.2953 0.7049
C9_7 C 0.5933(8) 0.2731(3) 0.71080(15)
H6_7 H 0.5414 0.2674 0.7074
C10_7 C 0.6218(6) 0.26140(17) 0.72621(9)
C11_7 C 0.5808(6) 0.23920(19) 0.73306(10)
C12_7 C 0.6054(6) 0.22885(17) 0.74829(10)
H7_7 H 0.5779 0.2140 0.7529
C13_7 C 0.6710(6) 0.2407(2) 0.75666(9)
C14_7 C 0.7121(6) 0.2629(2) 0.74981(11)
C15_7 C 0.6875(6) 0.27325(19) 0.73458(11)
H8_7 H 0.7149 0.2881 0.7300
C16_7 C 0.6948(9) 0.2317(3) 0.77308(15)
H9_7 H 0.7355 0.2422 0.7781
C17_7 C 0.6680(9) 0.2112(3) 0.78193(16)
H10_7 H 0.6273 0.2009 0.7767
C18_7 C 0.6892(5) 0.20149(17) 0.79797(7)
C19_7 C 0.7480(5) 0.21405(15) 0.80790(10)
H11_7 H 0.7764 0.2292 0.8040
C20_7 C 0.7641(4) 0.20391(17) 0.82362(9)
H12_7 H 0.8034 0.2123 0.8303
C21_7 C 0.7216(5) 0.18121(17) 0.82942(7)
C22_7 C 0.6628(5) 0.16865(14) 0.81950(9)
H13_7 H 0.6344 0.1535 0.8234
C23_7 C 0.6467(5) 0.17879(16) 0.80377(8)
H14_7 H 0.6074 0.1704 0.7971
C24_7 C 0.7317(7) 0.1690(2) 0.84640(11)
C25_13 C 0.4439(9) 0.4111(3) 0.60352(12)
C26_13 C 0.4509(5) 0.42507(14) 0.58779(6)
C27_13 C 0.3798(4) 0.43710(16) 0.58160(8)
H15_13 H 0.3309 0.4360 0.5876
C28_13 C 0.3817(4) 0.45069(16) 0.56651(8)
H16_13 H 0.3341 0.4587 0.5624
C29_13 C 0.4548(4) 0.45225(16) 0.55760(7)
C30_13 C 0.5259(4) 0.44023(18) 0.56380(8)
H17_13 H 0.5747 0.4413 0.5578
C31_13 C 0.5240(4) 0.42664(16) 0.57889(8)
H18_13 H 0.5715 0.4186 0.5830
C32_13 C 0.4534(6) 0.4672(3) 0.54126(14)
H19_13 H 0.4036 0.4755 0.5387
C33_13 C 0.5115(8) 0.4702(3) 0.53022(13)
H20_13 H 0.5629 0.4628 0.5325
C34_13 C 0.5010(8) 0.4848(3) 0.51432(11)
C35_13 C 0.4463(7) 0.5067(2) 0.51318(10)
H21_13 H 0.4120 0.5113 0.5220
C36_13 C 0.5552(9) 0.4787(3) 0.50153(13)
C37_7 C 0.4869(12) 0.2026(3) 0.7352(3)
H22_7 H 0.4414 0.1929 0.7304
H23_7 H 0.4710 0.2097 0.7458
H24_7 H 0.5327 0.1904 0.7365
C38_13 C 0.6665(12) 0.4551(5) 0.4883(2)
H25_13 H 0.7061 0.4406 0.4890
H26_13 H 0.6947 0.4723 0.4872
H27_13 H 0.6318 0.4523 0.4789
C39_7 C 0.8008(13) 0.2990(3) 0.7490(3)
H28_7 H 0.8423 0.3087 0.7551
H29_7 H 0.7565 0.3112 0.7464
H30_7 H 0.8242 0.2920 0.7390
O13_7 O 0.2604(4) 0.39827(11) 0.63646(7)
O17_7 O 0.0706(4) 0.59749(13) 0.85141(6)
O18_7 O 0.4294(4) 0.40251(13) 0.64859(6)
O19_7 O 0.3206(4) 0.34749(13) 0.64859(6)
O20_6 O 0.2377(9) 0.5232(3) 0.72349(13)
O22_13 O 0.6236(6) 0.59543(14) 0.39123(7)
O23_7 O 0.3736(6) 0.34543(14) 0.60877(7)
O24_13 O 0.4970(5) 0.59437(18) 0.38836(7)
O26_13 O 0.3866(9) 0.5445(3) 0.49583(15)
C40_7 C 0.1953(7) 0.3946(2) 0.64437(10)
C41_7 C 0.1757(4) 0.41361(13) 0.65796(6)
C42_7 C 0.1025(4) 0.40936(13) 0.66650(8)
H31_7 H 0.0660 0.3959 0.6630
C43_7 C 0.0840(4) 0.42518(15) 0.68029(8)
H32_7 H 0.0351 0.4223 0.6860
C44_7 C 0.1386(4) 0.44525(14) 0.68553(7)
C45_7 C 0.2118(4) 0.44950(13) 0.67700(9)
H33_7 H 0.2483 0.4629 0.6805
C46_7 C 0.2303(4) 0.43369(15) 0.66321(8)
H34_7 H 0.2792 0.4365 0.6575
C47_7 C 0.1204(7) 0.4594(3) 0.70097(15)
H35_7 H 0.0686 0.4547 0.7049
C48_7 C 0.1567(8) 0.4769(3) 0.71080(15)
H36_7 H 0.2086 0.4826 0.7074
C49_7 C 0.1282(6) 0.48860(17) 0.72621(9)
C50_6 C 0.1692(6) 0.51080(19) 0.73306(10)
C51_6 C 0.1446(6) 0.52115(17) 0.74829(10)
H37_7 H 0.1721 0.5360 0.7529
C52_7 C 0.0790(6) 0.5093(2) 0.75666(9)
C53_7 C 0.0379(6) 0.4871(2) 0.74981(11)
C54_7 C 0.0625(6) 0.47675(19) 0.73458(11)
H38_7 H 0.0351 0.4619 0.7300
C55_7 C 0.0552(9) 0.5183(3) 0.77308(15)
H39_7 H 0.0145 0.5078 0.7781
C56_7 C 0.0820(9) 0.5388(3) 0.78193(16)
H40_7 H 0.1227 0.5491 0.7767
C57_7 C 0.0608(5) 0.54851(17) 0.79797(7)
C58_7 C 0.0020(5) 0.53595(15) 0.80790(10)
C60_7 C 0.0284(5) 0.56879(17) 0.82942(7)
C61_7 C 0.0872(5) 0.58135(14) 0.81950(9)
H43_7 H 0.1156 0.5965 0.8234
C62_7 C 0.1033(5) 0.57121(16) 0.80377(8)
H44_7 H 0.1426 0.5796 0.7971
C63_7 C 0.0183(7) 0.5810(2) 0.84640(11)
C64_13 C 0.5561(9) 0.5889(3) 0.39648(12)
C65_13 C 0.5491(5) 0.57493(14) 0.41221(6)
C66_13 C 0.6202(4) 0.56290(16) 0.41840(8)
H45_13 H 0.6691 0.5640 0.4124
C67_13 C 0.6183(4) 0.54931(16) 0.43349(8)
H46_13 H 0.6659 0.5413 0.4376
C68_13 C 0.5452(4) 0.54775(16) 0.44240(7)
C69_13 C 0.4741(4) 0.55977(18) 0.43620(8)
H47_13 H 0.4253 0.5587 0.4422
C70_13 C 0.4760(4) 0.57336(16) 0.42111(8)
H48_13 H 0.4285 0.5814 0.4170
C71_13 C 0.5466(6) 0.5328(3) 0.45874(14)
H49_13 H 0.5964 0.5245 0.4613
C72_13 C 0.4885(8) 0.5298(3) 0.46978(13)
H50_13 H 0.4371 0.5372 0.4675
C73_13 C 0.4990(8) 0.5152(3) 0.48568(11)
C74_13 C 0.5537(7) 0.4933(2) 0.48682(10)
H51_13 H 0.5880 0.4887 0.4780
C75_13 C 0.4448(9) 0.5213(3) 0.49847(13)
C76_7 C 0.2631(12) 0.5474(3) 0.7352(3)
H52_7 H 0.3086 0.5571 0.7304
H53_7 H 0.2790 0.5403 0.7458
H54_6 H 0.2173 0.5596 0.7365
C77_13 C 0.3335(12) 0.5449(5) 0.5117(2)
H55_13 H 0.2939 0.5594 0.5110
H56_13 H 0.3053 0.5277 0.5128
H57_13 H 0.3682 0.5477 0.5211
O14_7 O 0.9554(4) 0.57355(13) 0.85444(8)
O21_5 O 0.9845(10) 0.4764(3) 0.76022(14)
H41_7 H 0.9736 0.5208 0.8040
C59_7 C 0.9859(4) 0.54609(17) 0.82362(9)
H42_7 H 0.9466 0.5377 0.8303
C78_6 C 0.9492(13) 0.4510(3) 0.7490(3)
H58_5 H 0.9077 0.4413 0.7551
H59_6 H 0.9935 0.4388 0.7464
H60_6 H 0.9258 0.4580 0.7390
O9_14 O 0.1366(9) 0.2945(3) 0.50417(15)
C25_14 C 0.3061(9) 0.3389(3) 0.60352(12)
C26_14 C 0.2991(5) 0.32493(14) 0.58779(6)
C27_14 C 0.3702(4) 0.31290(16) 0.58160(8)
H15_14 H 0.4191 0.3140 0.5876
C28_14 C 0.3683(4) 0.29931(16) 0.56651(8)
H16_14 H 0.4159 0.2913 0.5624
C29_14 C 0.2952(4) 0.29775(16) 0.55760(7)
C30_14 C 0.2241(4) 0.30977(18) 0.56380(8)
H17_14 H 0.1753 0.3087 0.5578
C31_14 C 0.2260(4) 0.32336(16) 0.57889(8)
H18_14 H 0.1785 0.3314 0.5830
C32_14 C 0.2966(6) 0.2828(3) 0.54126(14)
H19_14 H 0.3464 0.2745 0.5387
C33_14 C 0.2385(8) 0.2798(3) 0.53022(13)
H20_14 H 0.1871 0.2872 0.5325
C34_14 C 0.2490(8) 0.2652(3) 0.51432(11)
C35_14 C 0.3037(7) 0.2433(2) 0.51318(10)
H21_14 H 0.3380 0.2387 0.5220
C36_14 C 0.1948(9) 0.2713(3) 0.50153(13)
C38_14 C 0.0835(12) 0.2949(5) 0.4883(2)
H25_14 H 0.0439 0.3094 0.4890
H26_14 H 0.0553 0.2777 0.4872
H27_14 H 0.1182 0.2977 0.4789
O22_14 O 0.1264(6) 0.15457(14) 0.39123(7)
O24_14 O 0.2530(5) 0.15563(18) 0.38836(7)
O26_14 O 0.3634(9) 0.2055(3) 0.49583(15)
C64_14 C 0.1939(9) 0.1611(3) 0.39648(12)
C65_14 C 0.2009(5) 0.17507(14) 0.41221(6)
C66_14 C 0.1298(4) 0.18710(16) 0.41840(8)
H45_14 H 0.0809 0.1860 0.4124
C67_14 C 0.1317(4) 0.20069(16) 0.43349(8)
H46_14 H 0.0841 0.2087 0.4376
C68_14 C 0.2048(4) 0.20225(16) 0.44240(7)
C69_14 C 0.2759(4) 0.19023(18) 0.43620(8)
H47_14 H 0.3247 0.1913 0.4422
C70_14 C 0.2740(4) 0.17664(16) 0.42111(8)
H48_14 H 0.3215 0.1686 0.4170
C71_14 C 0.2034(6) 0.2172(3) 0.45874(14)
H49_14 H 0.1536 0.2255 0.4613
C72_14 C 0.2615(8) 0.2202(3) 0.46978(13)
H50_14 H 0.3129 0.2128 0.4675
C73_14 C 0.2510(8) 0.2348(3) 0.48568(11)
C74_14 C 0.1963(7) 0.2567(2) 0.48682(10)
H51_14 H 0.1620 0.2613 0.4780
C75_14 C 0.3052(9) 0.2287(3) 0.49847(13)
C77_14 C 0.4165(12) 0.2051(5) 0.5117(2)
H55_14 H 0.4561 0.1906 0.5110
H56_14 H 0.4447 0.2223 0.5128
H57_14 H 0.3818 0.2023 0.5211
Yb1_8 Yb 0.3750 0.3750 0.119679(5)
O2_8 O 0.2604(4) 0.35173(11) 0.11354(7)
O5_8 O 0.2377(9) 0.2268(3) 0.02651(13)
O7_8 O 0.3736(6) 0.40457(14) 0.14123(7)
O9_15 O 0.1366(9) 0.4555(3) 0.24583(15)
C1_8 C 0.1953(7) 0.3554(2) 0.10563(10)
C2_8 C 0.1757(4) 0.33639(13) 0.09204(6)
C3_8 C 0.1025(4) 0.34064(13) 0.08350(8)
H1_8 H 0.0660 0.3541 0.0870
C4_8 C 0.0840(4) 0.32482(15) 0.06971(8)
H2_8 H 0.0351 0.3277 0.0640
C5_8 C 0.1386(4) 0.30475(14) 0.06447(7)
C6_8 C 0.2118(4) 0.30050(13) 0.07300(9)
H3_8 H 0.2483 0.2871 0.0695
C7_8 C 0.2303(4) 0.31631(15) 0.08679(8)
H4_8 H 0.2792 0.3135 0.0925
C8_8 C 0.1204(7) 0.2906(3) 0.04903(15)
H5_8 H 0.0686 0.2953 0.0451
C9_8 C 0.1567(8) 0.2731(3) 0.03920(15)
H6_8 H 0.2086 0.2674 0.0426
C10_8 C 0.1282(6) 0.26140(17) 0.02379(9)
C11_8 C 0.1692(6) 0.23920(19) 0.01694(10)
C12_8 C 0.1446(6) 0.22885(17) 0.00171(10)
C14_8 C 0.0379(6) 0.2629(2) 0.00019(11)
C15_8 C 0.0625(6) 0.27325(19) 0.01542(11)
H8_8 H 0.0351 0.2881 0.0200
C25_15 C 0.3061(9) 0.4111(3) 0.14648(12)
C26_15 C 0.2991(5) 0.42507(14) 0.16221(6)
C27_15 C 0.3702(4) 0.43710(16) 0.16840(8)
H15_15 H 0.4191 0.4360 0.1624
C28_15 C 0.3683(4) 0.45069(16) 0.18349(8)
H16_15 H 0.4159 0.4587 0.1876
C29_15 C 0.2952(4) 0.45225(16) 0.19240(7)
C30_15 C 0.2241(4) 0.44023(18) 0.18620(8)
H17_15 H 0.1753 0.4413 0.1922
C31_15 C 0.2260(4) 0.42664(16) 0.17111(8)
H18_15 H 0.1785 0.4186 0.1670
C32_15 C 0.2966(6) 0.4672(3) 0.20874(14)
H19_15 H 0.3464 0.4755 0.2113
C33_15 C 0.2385(8) 0.4702(3) 0.21978(13)
H20_15 H 0.1871 0.4628 0.2175
C34_15 C 0.2490(8) 0.4848(3) 0.23568(11)
C35_15 C 0.3037(7) 0.5067(2) 0.23682(10)
H21_15 H 0.3380 0.5113 0.2280
C36_15 C 0.1948(9) 0.4787(3) 0.24847(13)
C37_8 C 0.2631(12) 0.2026(3) 0.0148(3)
H22_8 H 0.3086 0.1929 0.0196
H23_8 H 0.2790 0.2097 0.0042
H24_8 H 0.2173 0.1904 0.0135
C38_15 C 0.0835(12) 0.4551(5) 0.2617(2)
H25_15 H 0.0439 0.4406 0.2610
H26_15 H 0.0553 0.4723 0.2628
H27_15 H 0.1182 0.4523 0.2711
O13_8 O 0.4896(4) 0.39827(11) 0.11354(7)
O18_8 O 0.3206(4) 0.40251(13) 0.10141(6)
O19_8 O 0.4294(4) 0.34749(13) 0.10141(6)
O20_7 O 0.5123(9) 0.5232(3) 0.02651(13)
O22_15 O 0.1264(6) 0.59543(14) 0.35877(7)
O23_8 O 0.3764(6) 0.34543(14) 0.14123(7)
O24_15 O 0.2530(5) 0.59437(18) 0.36164(7)
O26_15 O 0.3634(9) 0.5445(3) 0.25417(15)
C40_8 C 0.5547(7) 0.3946(2) 0.10563(10)
C41_8 C 0.5743(4) 0.41361(13) 0.09204(6)
C42_8 C 0.6475(4) 0.40936(13) 0.08350(8)
H31_8 H 0.6840 0.3959 0.0870
C43_8 C 0.6660(4) 0.42518(15) 0.06971(8)
H32_8 H 0.7149 0.4223 0.0640
C44_8 C 0.6114(4) 0.44525(14) 0.06447(7)
C45_8 C 0.5382(4) 0.44950(13) 0.07300(9)
H33_8 H 0.5017 0.4629 0.0695
C46_8 C 0.5197(4) 0.43369(15) 0.08679(8)
H34_8 H 0.4708 0.4365 0.0925
C47_8 C 0.6296(7) 0.4594(3) 0.04903(15)
H35_8 H 0.6814 0.4547 0.0451
C48_8 C 0.5933(8) 0.4769(3) 0.03920(15)
H36_8 H 0.5414 0.4826 0.0426
C49_8 C 0.6218(6) 0.48860(17) 0.02379(9)
C50_7 C 0.5808(6) 0.51080(19) 0.01694(10)
C51_7 C 0.6054(6) 0.52115(17) 0.00171(10)
C53_8 C 0.7121(6) 0.4871(2) 0.00019(11)
C54_8 C 0.6875(6) 0.47675(19) 0.01542(11)
H38_8 H 0.7149 0.4619 0.0200
C64_15 C 0.1939(9) 0.5889(3) 0.35352(12)
C65_15 C 0.2009(5) 0.57493(14) 0.33779(6)
C66_15 C 0.1298(4) 0.56290(16) 0.33160(8)
H45_15 H 0.0809 0.5640 0.3376
C67_15 C 0.1317(4) 0.54931(16) 0.31651(8)
H46_15 H 0.0841 0.5413 0.3124
C68_15 C 0.2048(4) 0.54775(16) 0.30760(7)
C69_15 C 0.2759(4) 0.55977(18) 0.31380(8)
H47_15 H 0.3247 0.5587 0.3078
C70_15 C 0.2740(4) 0.57336(16) 0.32889(8)
H48_15 H 0.3215 0.5814 0.3330
C71_15 C 0.2034(6) 0.5328(3) 0.29126(14)
H49_15 H 0.1536 0.5245 0.2887
C72_15 C 0.2615(8) 0.5298(3) 0.28022(13)
H50_15 H 0.3129 0.5372 0.2825
C73_15 C 0.2510(8) 0.5152(3) 0.26432(11)
C74_15 C 0.1963(7) 0.4933(2) 0.26318(10)
H51_15 H 0.1620 0.4887 0.2720
C75_15 C 0.3052(9) 0.5213(3) 0.25153(13)
C76_8 C 0.4869(12) 0.5474(3) 0.0148(3)
H52_8 H 0.4414 0.5571 0.0196
H53_8 H 0.4710 0.5403 0.0042
H54_7 H 0.5327 0.5596 0.0135
C77_15 C 0.4165(12) 0.5449(5) 0.2383(2)
H55_15 H 0.4561 0.5594 0.2390
H56_15 H 0.4447 0.5277 0.2372
H57_15 H 0.3818 0.5477 0.2289
C78_7 C 0.8008(13) 0.4510(3) 0.0010(3)
H59_7 H 0.7565 0.4388 0.0036
H60_7 H 0.8242 0.4580 0.0110
O4_8 O 0.0706(4) 0.15251(13) 0.89859(6)
H7_8 H 0.1721 0.2140 0.9971
C13_8 C 0.0790(6) 0.2407(2) 0.99334(9)
C16_8 C 0.0552(9) 0.2317(3) 0.97692(15)
H9_8 H 0.0145 0.2422 0.9719
C17_8 C 0.0820(9) 0.2112(3) 0.96807(16)
H10_8 H 0.1227 0.2009 0.9733
C18_8 C 0.0608(5) 0.20149(17) 0.95203(7)
C19_8 C 0.0020(5) 0.21405(15) 0.94210(10)
C21_8 C 0.0284(5) 0.18121(17) 0.92058(7)
C22_8 C 0.0872(5) 0.16865(14) 0.93050(9)
H13_8 H 0.1156 0.1535 0.9266
C23_8 C 0.1033(5) 0.17879(16) 0.94623(8)
H14_8 H 0.1426 0.1704 0.9529
C24_8 C 0.0183(7) 0.1690(2) 0.90360(11)
O14_8 O 0.7946(4) 0.57355(13) 0.89556(8)
O17_8 O 0.6794(4) 0.59749(13) 0.89859(6)
O21_6 O 0.7655(10) 0.4764(3) 0.98978(14)
H37_8 H 0.5779 0.5360 0.9971
C52_8 C 0.6710(6) 0.5093(2) 0.99334(9)
C55_8 C 0.6948(9) 0.5183(3) 0.97692(15)
H39_8 H 0.7355 0.5078 0.9719
C56_8 C 0.6680(9) 0.5388(3) 0.96807(16)
H40_8 H 0.6273 0.5491 0.9733
C57_8 C 0.6892(5) 0.54851(17) 0.95203(7)
C58_8 C 0.7480(5) 0.53595(15) 0.94210(10)
H41_8 H 0.7764 0.5208 0.9460
C59_8 C 0.7641(4) 0.54609(17) 0.92638(9)
H42_8 H 0.8034 0.5377 0.9197
C60_8 C 0.7216(5) 0.56879(17) 0.92058(7)
C61_8 C 0.6628(5) 0.58135(14) 0.93050(9)
H43_8 H 0.6344 0.5965 0.9266
C62_8 C 0.6467(5) 0.57121(16) 0.94623(8)
H44_8 H 0.6074 0.5796 0.9529
C63_8 C 0.7317(7) 0.5810(2) 0.90360(11)
H58_6 H 0.8423 0.4413 0.9949
O3_8 O 0.9554(4) 0.17645(13) 0.89556(8)
O6_8 O 0.9845(10) 0.2736(3) 0.98978(14)
H11_8 H 0.9736 0.2292 0.9460
C20_8 C 0.9859(4) 0.20391(17) 0.92638(9)
H12_8 H 0.9466 0.2123 0.9197
H28_8 H 0.9077 0.3087 0.9949
O9_16 O 0.6134(9) 0.2945(3) 0.24583(15)
C25_16 C 0.4439(9) 0.3389(3) 0.14648(12)
C26_16 C 0.4509(5) 0.32493(14) 0.16221(6)
C27_16 C 0.3798(4) 0.31290(16) 0.16840(8)
H15_16 H 0.3309 0.3140 0.1624
C28_16 C 0.3817(4) 0.29931(16) 0.18349(8)
H16_16 H 0.3341 0.2913 0.1876
C29_16 C 0.4548(4) 0.29775(16) 0.19240(7)
C30_16 C 0.5259(4) 0.30977(18) 0.18620(8)
H17_16 H 0.5747 0.3087 0.1922
C31_16 C 0.5240(4) 0.32336(16) 0.17111(8)
H18_16 H 0.5715 0.3314 0.1670
C32_16 C 0.4534(6) 0.2828(3) 0.20874(14)
H19_16 H 0.4036 0.2745 0.2113
C33_16 C 0.5115(8) 0.2798(3) 0.21978(13)
H20_16 H 0.5629 0.2872 0.2175
C34_16 C 0.5010(8) 0.2652(3) 0.23568(11)
C35_16 C 0.4463(7) 0.2433(2) 0.23682(10)
H21_16 H 0.4120 0.2387 0.2280
C36_16 C 0.5552(9) 0.2713(3) 0.24847(13)
C38_16 C 0.6665(12) 0.2949(5) 0.2617(2)
H25_16 H 0.7061 0.3094 0.2610
H26_16 H 0.6947 0.2777 0.2628
H27_16 H 0.6318 0.2977 0.2711
O22_16 O 0.6236(6) 0.15457(14) 0.35877(7)
O24_16 O 0.4970(5) 0.15563(18) 0.36164(7)
O26_16 O 0.3866(9) 0.2055(3) 0.25417(15)
C64_16 C 0.5561(9) 0.1611(3) 0.35352(12)
C65_16 C 0.5491(5) 0.17507(14) 0.33779(6)
C66_16 C 0.6202(4) 0.18710(16) 0.33160(8)
H45_16 H 0.6691 0.1860 0.3376
C67_16 C 0.6183(4) 0.20069(16) 0.31651(8)
H46_16 H 0.6659 0.2087 0.3124
C68_16 C 0.5452(4) 0.20225(16) 0.30760(7)
C69_16 C 0.4741(4) 0.19023(18) 0.31380(8)
H47_16 H 0.4253 0.1913 0.3078
C70_16 C 0.4760(4) 0.17664(16) 0.32889(8)
H48_16 H 0.4285 0.1686 0.3330
C71_16 C 0.5466(6) 0.2172(3) 0.29126(14)
H49_16 H 0.5964 0.2255 0.2887
C72_16 C 0.4885(8) 0.2202(3) 0.28022(13)
H50_16 H 0.4371 0.2128 0.2825
C73_16 C 0.4990(8) 0.2348(3) 0.26432(11)
C74_16 C 0.5537(7) 0.2567(2) 0.26318(10)
H51_16 H 0.5880 0.2613 0.2720
C75_16 C 0.4448(9) 0.2287(3) 0.25153(13)
C77_16 C 0.3335(12) 0.2051(5) 0.2383(2)
H55_16 H 0.2939 0.1906 0.2390
H56_16 H 0.3053 0.2223 0.2372
H57_16 H 0.3682 0.2023 0.2289
O2_9 O 0.0104(4) 0.14827(11) 0.36354(7)
H4_9 H 0.0292 0.1865 0.3425
C37_9 C 0.0131(12) 0.2974(3) 0.2648(3)
H22_9 H 0.0586 0.3071 0.2696
H23_9 H 0.0290 0.2903 0.2542
O11_5 O 0.3524(4) 0.12457(14) 0.35858(6)
O13_9 O 0.2396(4) 0.10173(11) 0.36354(7)
O21_7 O 0.5155(10) 0.0236(3) 0.23978(14)
C40_9 C 0.3047(7) 0.1054(2) 0.35563(10)
C41_9 C 0.3243(4) 0.08639(13) 0.34204(6)
C42_9 C 0.3975(4) 0.09064(13) 0.33350(8)
H31_9 H 0.4340 0.1041 0.3370
C43_9 C 0.4160(4) 0.07482(15) 0.31971(8)
H32_9 H 0.4649 0.0777 0.3140
C44_9 C 0.3614(4) 0.05475(14) 0.31447(7)
C45_9 C 0.2882(4) 0.05050(13) 0.32300(9)
H33_9 H 0.2517 0.0371 0.3195
C46_9 C 0.2697(4) 0.06631(15) 0.33679(8)
H34_9 H 0.2208 0.0635 0.3425
C47_9 C 0.3796(7) 0.0406(3) 0.29903(15)
H35_9 H 0.4314 0.0453 0.2951
C48_9 C 0.3433(8) 0.0231(3) 0.28920(15)
H36_9 H 0.2914 0.0174 0.2926
C49_9 C 0.3718(6) 0.01140(17) 0.27379(9)
C53_9 C 0.4621(6) 0.0129(2) 0.25019(11)
C54_9 C 0.4375(6) 0.02325(19) 0.26542(11)
H38_9 H 0.4649 0.0381 0.2700
C78_8 C 0.5508(13) 0.0490(3) 0.2510(3)
H58_7 H 0.5923 0.0587 0.2449
H59_8 H 0.5065 0.0612 0.2536
H60_8 H 0.5742 0.0420 0.2610
O20_8 O 0.2623(9) 0.9768(3) 0.27651(13)
C50_8 C 0.3308(6) 0.98920(19) 0.26694(10)
C51_8 C 0.3554(6) 0.97885(17) 0.25171(10)
H37_9 H 0.3279 0.9640 0.2471
C52_9 C 0.4210(6) 0.9907(2) 0.24334(9)
C55_9 C 0.4448(9) 0.9817(3) 0.22692(15)
H39_9 H 0.4855 0.9922 0.2219
C56_9 C 0.4180(9) 0.9612(3) 0.21807(16)
H40_9 H 0.3773 0.9509 0.2233
C57_9 C 0.4392(5) 0.95149(17) 0.20203(7)
C58_9 C 0.4980(5) 0.96405(15) 0.19210(10)
H41_9 H 0.5264 0.9792 0.1960
C59_9 C 0.5141(4) 0.95391(17) 0.17638(9)
H42_9 H 0.5534 0.9623 0.1697
C60_9 C 0.4716(5) 0.93121(17) 0.17058(7)
C61_9 C 0.4128(5) 0.91865(14) 0.18050(9)
H43_9 H 0.3844 0.9035 0.1766
C62_9 C 0.3967(5) 0.92879(16) 0.19623(8)
H44_9 H 0.3574 0.9204 0.2029
C63_9 C 0.4817(7) 0.9190(2) 0.15360(11)
C76_9 C 0.2369(12) 0.9526(3) 0.2648(3)
H52_9 H 0.1914 0.9429 0.2696
H53_9 H 0.2210 0.9597 0.2542
H54_8 H 0.2827 0.9404 0.2635
O1_5 O 0.8976(4) 0.12543(14) 0.35858(6)
O5_9 O 0.9877(9) 0.2732(3) 0.27651(13)
O6_9 O 0.7345(10) 0.2264(3) 0.23978(14)
O10_9 O 0.9230(7) 0.0436(2) 0.38372(14)
C1_9 C 0.9453(7) 0.1446(2) 0.35563(10)
C2_9 C 0.9257(4) 0.16361(13) 0.34204(6)
C3_9 C 0.8525(4) 0.15936(13) 0.33350(8)
H1_9 H 0.8160 0.1459 0.3370
C4_9 C 0.8340(4) 0.17518(15) 0.31971(8)
H2_9 H 0.7851 0.1723 0.3140
C5_9 C 0.8886(4) 0.19525(14) 0.31447(7)
C6_9 C 0.9618(4) 0.19950(13) 0.32300(9)
H3_9 H 0.9983 0.2129 0.3195
C7_9 C 0.9803(4) 0.18369(15) 0.33679(8)
C8_9 C 0.8704(7) 0.2094(3) 0.29903(15)
H5_9 H 0.8186 0.2047 0.2951
C9_9 C 0.9067(8) 0.2269(3) 0.28920(15)
H6_9 H 0.9586 0.2326 0.2926
C10_9 C 0.8782(6) 0.23860(17) 0.27379(9)
C11_9 C 0.9192(6) 0.26080(19) 0.26694(10)
C12_9 C 0.8946(6) 0.27115(17) 0.25171(10)
H7_9 H 0.9221 0.2860 0.2471
C13_9 C 0.8290(6) 0.2593(2) 0.24334(9)
C14_9 C 0.7879(6) 0.2371(2) 0.25019(11)
C15_9 C 0.8125(6) 0.22675(19) 0.26542(11)
H8_9 H 0.7851 0.2119 0.2700
C16_9 C 0.8052(9) 0.2683(3) 0.22692(15)
H9_9 H 0.7645 0.2578 0.2219
C17_9 C 0.8320(9) 0.2888(3) 0.21807(16)
H10_9 H 0.8727 0.2991 0.2233
C18_9 C 0.8108(5) 0.29851(17) 0.20203(7)
C19_9 C 0.7520(5) 0.28595(15) 0.19210(10)
H11_9 H 0.7236 0.2708 0.1960
C20_9 C 0.7359(4) 0.29609(17) 0.17638(9)
H12_9 H 0.6966 0.2877 0.1697
C21_9 C 0.7784(5) 0.31879(17) 0.17058(7)
C22_9 C 0.8372(5) 0.33135(14) 0.18050(9)
H13_9 H 0.8656 0.3465 0.1766
C23_9 C 0.8533(5) 0.32121(16) 0.19623(8)
H14_9 H 0.8926 0.3296 0.2029
C24_9 C 0.7683(7) 0.3310(2) 0.15360(11)
H24_9 H 0.9673 0.3096 0.2635
C39_8 C 0.6992(13) 0.2010(3) 0.2510(3)
H28_9 H 0.6577 0.1913 0.2449
H29_8 H 0.7435 0.1888 0.2536
H30_8 H 0.6758 0.2080 0.2610
O12_9 O 0.8524(4) 0.12543(14) 0.39142(6)
O27_9 O 0.8270(7) 0.0436(2) 0.36628(14)
O10_10 O 0.3270(7) 0.2064(2) 0.38372(14)
O12_10 O 0.3976(4) 0.12457(14) 0.39142(6)
O27_10 O 0.4230(7) 0.2064(2) 0.36628(14)
O6_10 O 0.5155(10) 0.2264(3) 0.01022(14)
H7_10 H 0.3279 0.2860 0.0029
C13_10 C 0.4210(6) 0.2593(2) 0.00666(9)
C16_10 C 0.4448(9) 0.2683(3) 0.02308(15)
H9_10 H 0.4855 0.2578 0.0281
C17_10 C 0.4180(9) 0.2888(3) 0.03193(16)
H10_10 H 0.3773 0.2991 0.0267
C18_10 C 0.4392(5) 0.29851(17) 0.04797(7)
C19_10 C 0.4980(5) 0.28595(15) 0.05790(10)
H11_10 H 0.5264 0.2708 0.0540
C20_10 C 0.5141(4) 0.29609(17) 0.07362(9)
H12_10 H 0.5534 0.2877 0.0803
C21_10 C 0.4716(5) 0.31879(17) 0.07942(7)
C22_10 C 0.4128(5) 0.33135(14) 0.06950(9)
H13_10 H 0.3844 0.3465 0.0734
C23_10 C 0.3967(5) 0.32121(16) 0.05377(8)
H14_10 H 0.3574 0.3296 0.0471
C24_10 C 0.4817(7) 0.3310(2) 0.09640(11)
H28_10 H 0.5923 0.1913 0.0051
O1_6 O 0.3524(4) 0.12543(14) 0.89142(6)
O2_10 O 0.2396(4) 0.14827(11) 0.88646(7)
O5_10 O 0.2623(9) 0.2732(3) 0.97349(13)
O10_11 O 0.3270(7) 0.0436(2) 0.86628(14)
C1_10 C 0.3047(7) 0.1446(2) 0.89437(10)
C2_10 C 0.3243(4) 0.16361(13) 0.90796(6)
C3_10 C 0.3975(4) 0.15936(13) 0.91650(8)
H1_10 H 0.4340 0.1459 0.9130
C4_10 C 0.4160(4) 0.17518(15) 0.93029(8)
H2_10 H 0.4649 0.1723 0.9360
C5_10 C 0.3614(4) 0.19525(14) 0.93553(7)
C6_10 C 0.2882(4) 0.19950(13) 0.92700(9)
H3_10 H 0.2517 0.2129 0.9305
C7_10 C 0.2697(4) 0.18369(15) 0.91321(8)
H4_10 H 0.2208 0.1865 0.9075
C8_10 C 0.3796(7) 0.2094(3) 0.95097(15)
H5_10 H 0.4314 0.2047 0.9549
C9_10 C 0.3433(8) 0.2269(3) 0.96080(15)
H6_10 H 0.2914 0.2326 0.9574
C10_10 C 0.3718(6) 0.23860(17) 0.97621(9)
C11_10 C 0.3308(6) 0.26080(19) 0.98306(10)
C12_10 C 0.3554(6) 0.27115(17) 0.99829(10)
C14_10 C 0.4621(6) 0.2371(2) 0.99981(11)
C15_10 C 0.4375(6) 0.22675(19) 0.98458(11)
H8_10 H 0.4649 0.2119 0.9800
C37_10 C 0.2369(12) 0.2974(3) 0.9852(3)
H22_10 H 0.1914 0.3071 0.9804
H23_10 H 0.2210 0.2903 0.9958
H24_10 H 0.2827 0.3096 0.9865
C39_9 C 0.5508(13) 0.2010(3) 0.9990(3)
H29_9 H 0.5065 0.1888 0.9964
H30_9 H 0.5742 0.2080 0.9890
O12_11 O 0.3976(4) 0.12543(14) 0.85858(6)
O13_10 O 0.0104(4) 0.10173(11) 0.88646(7)
O27_11 O 0.4230(7) 0.0436(2) 0.88372(14)
H34_10 H 0.0292 0.0635 0.9075
C76_10 C 0.0131(12) 0.9526(3) 0.9852(3)
H52_10 H 0.0586 0.9429 0.9804
H53_10 H 0.0290 0.9597 0.9958
O11_6 O 0.8976(4) 0.12457(14) 0.89142(6)
C40_10 C 0.9453(7) 0.1054(2) 0.89437(10)
C41_10 C 0.9257(4) 0.08639(13) 0.90796(6)
C42_10 C 0.8525(4) 0.09064(13) 0.91650(8)
H31_10 H 0.8160 0.1041 0.9130
C43_10 C 0.8340(4) 0.07482(15) 0.93029(8)
H32_10 H 0.7851 0.0777 0.9360
C44_10 C 0.8886(4) 0.05475(14) 0.93553(7)
C45_10 C 0.9618(4) 0.05050(13) 0.92700(9)
H33_10 H 0.9983 0.0371 0.9305
C46_10 C 0.9803(4) 0.06631(15) 0.91321(8)
C47_10 C 0.8704(7) 0.0406(3) 0.95097(15)
H35_10 H 0.8186 0.0453 0.9549
C48_10 C 0.9067(8) 0.0231(3) 0.96080(15)
H36_10 H 0.9586 0.0174 0.9574
C49_10 C 0.8782(6) 0.01140(17) 0.97621(9)
C53_10 C 0.7879(6) 0.0129(2) 0.99981(11)
C54_10 C 0.8125(6) 0.02325(19) 0.98458(11)
H38_10 H 0.7851 0.0381 0.9800
C78_9 C 0.6992(13) 0.0490(3) 0.9990(3)
H59_9 H 0.7435 0.0612 0.9964
H60_9 H 0.6758 0.0420 0.9890
H37_10 H 0.9221 0.9640 0.0029
C52_10 C 0.8290(6) 0.9907(2) 0.00666(9)
C55_10 C 0.8052(9) 0.9817(3) 0.02308(15)
H39_10 H 0.7645 0.9922 0.0281
C56_10 C 0.8320(9) 0.9612(3) 0.03193(16)
H40_10 H 0.8727 0.9509 0.0267
C57_10 C 0.8108(5) 0.95149(17) 0.04797(7)
C58_10 C 0.7520(5) 0.96405(15) 0.05790(10)
H41_10 H 0.7236 0.9792 0.0540
C59_10 C 0.7359(4) 0.95391(17) 0.07362(9)
H42_10 H 0.6966 0.9623 0.0803
C60_10 C 0.7784(5) 0.93121(17) 0.07942(7)
C61_10 C 0.8372(5) 0.91865(14) 0.06950(9)
H43_10 H 0.8656 0.9035 0.0734
C62_10 C 0.8533(5) 0.92879(16) 0.05377(8)
H44_10 H 0.8926 0.9204 0.0471
C63_10 C 0.7683(7) 0.9190(2) 0.09640(11)
O10_12 O 0.9230(7) 0.2064(2) 0.86628(14)
O12_12 O 0.8524(4) 0.12457(14) 0.85858(6)
O27_12 O 0.8270(7) 0.2064(2) 0.88372(14)
O2_11 O 0.0104(4) 0.64827(11) 0.86354(7)
H4_11 H 0.0292 0.6865 0.8425
C37_11 C 0.0131(12) 0.7974(3) 0.7648(3)
H22_11 H 0.0586 0.8071 0.7696
H23_11 H 0.0290 0.7903 0.7542
O11_7 O 0.3524(4) 0.62457(14) 0.85858(6)
O13_11 O 0.2396(4) 0.60173(11) 0.86354(7)
O20_9 O 0.2623(9) 0.4768(3) 0.77651(13)
O21_8 O 0.5155(10) 0.5236(3) 0.73978(14)
C40_11 C 0.3047(7) 0.6054(2) 0.85563(10)
C41_11 C 0.3243(4) 0.58639(13) 0.84204(6)
C42_11 C 0.3975(4) 0.59064(13) 0.83350(8)
H31_11 H 0.4340 0.6041 0.8370
C43_11 C 0.4160(4) 0.57482(15) 0.81971(8)
H32_11 H 0.4649 0.5777 0.8140
C44_11 C 0.3614(4) 0.55475(14) 0.81447(7)
C45_11 C 0.2882(4) 0.55050(13) 0.82300(9)
H33_11 H 0.2517 0.5371 0.8195
C46_11 C 0.2697(4) 0.56631(15) 0.83679(8)
H34_11 H 0.2208 0.5635 0.8425
C47_11 C 0.3796(7) 0.5406(3) 0.79903(15)
H35_11 H 0.4314 0.5453 0.7951
C48_11 C 0.3433(8) 0.5231(3) 0.78920(15)
H36_11 H 0.2914 0.5174 0.7926
C49_11 C 0.3718(6) 0.51140(17) 0.77379(9)
C50_9 C 0.3308(6) 0.48920(19) 0.76694(10)
C51_9 C 0.3554(6) 0.47885(17) 0.75171(10)
H37_11 H 0.3279 0.4640 0.7471
C52_11 C 0.4210(6) 0.4907(2) 0.74334(9)
C53_11 C 0.4621(6) 0.5129(2) 0.75019(11)
C54_11 C 0.4375(6) 0.52325(19) 0.76542(11)
H38_11 H 0.4649 0.5381 0.7700
C55_11 C 0.4448(9) 0.4817(3) 0.72692(15)
H39_11 H 0.4855 0.4922 0.7219
C56_11 C 0.4180(9) 0.4612(3) 0.71807(16)
H40_11 H 0.3773 0.4509 0.7233
C57_11 C 0.4392(5) 0.45149(17) 0.70203(7)
C58_11 C 0.4980(5) 0.46405(15) 0.69210(10)
H41_11 H 0.5264 0.4792 0.6960
C59_11 C 0.5141(4) 0.45391(17) 0.67638(9)
H42_11 H 0.5534 0.4623 0.6697
C60_11 C 0.4716(5) 0.43121(17) 0.67058(7)
C61_11 C 0.4128(5) 0.41865(14) 0.68050(9)
H43_11 H 0.3844 0.4035 0.6766
C62_11 C 0.3967(5) 0.42879(16) 0.69623(8)
H44_11 H 0.3574 0.4204 0.7029
C63_11 C 0.4817(7) 0.4190(2) 0.65360(11)
C76_11 C 0.2369(12) 0.4526(3) 0.7648(3)
H52_11 H 0.1914 0.4429 0.7696
H53_11 H 0.2210 0.4597 0.7542
H54_9 H 0.2827 0.4404 0.7635
C78_10 C 0.5508(13) 0.5490(3) 0.7510(3)
H58_8 H 0.5923 0.5587 0.7449
H59_10 H 0.5065 0.5612 0.7536
H60_10 H 0.5742 0.5420 0.7610
O1_7 O 0.8976(4) 0.62543(14) 0.85858(6)
O5_11 O 0.9877(9) 0.7732(3) 0.77651(13)
O6_11 O 0.7345(10) 0.7264(3) 0.73978(14)
O10_13 O 0.9230(7) 0.5436(2) 0.88372(14)
C1_11 C 0.9453(7) 0.6446(2) 0.85563(10)
C2_11 C 0.9257(4) 0.66361(13) 0.84204(6)
C3_11 C 0.8525(4) 0.65936(13) 0.83350(8)
H1_11 H 0.8160 0.6459 0.8370
C4_11 C 0.8340(4) 0.67518(15) 0.81971(8)
H2_11 H 0.7851 0.6723 0.8140
C5_11 C 0.8886(4) 0.69525(14) 0.81447(7)
C6_11 C 0.9618(4) 0.69950(13) 0.82300(9)
H3_11 H 0.9983 0.7129 0.8195
C7_11 C 0.9803(4) 0.68369(15) 0.83679(8)
C8_11 C 0.8704(7) 0.7094(3) 0.79903(15)
H5_11 H 0.8186 0.7047 0.7951
C9_11 C 0.9067(8) 0.7269(3) 0.78920(15)
H6_11 H 0.9586 0.7326 0.7926
C10_11 C 0.8782(6) 0.73860(17) 0.77379(9)
C11_11 C 0.9192(6) 0.76080(19) 0.76694(10)
C12_11 C 0.8946(6) 0.77115(17) 0.75171(10)
H7_11 H 0.9221 0.7860 0.7471
C13_11 C 0.8290(6) 0.7593(2) 0.74334(9)
C14_11 C 0.7879(6) 0.7371(2) 0.75019(11)
C15_11 C 0.8125(6) 0.72675(19) 0.76542(11)
H8_11 H 0.7851 0.7119 0.7700
C16_11 C 0.8052(9) 0.7683(3) 0.72692(15)
H9_11 H 0.7645 0.7578 0.7219
C17_11 C 0.8320(9) 0.7888(3) 0.71807(16)
H10_11 H 0.8727 0.7991 0.7233
C18_11 C 0.8108(5) 0.79851(17) 0.70203(7)
C19_11 C 0.7520(5) 0.78595(15) 0.69210(10)
H11_11 H 0.7236 0.7708 0.6960
C20_11 C 0.7359(4) 0.79609(17) 0.67638(9)
H12_11 H 0.6966 0.7877 0.6697
C21_11 C 0.7784(5) 0.81879(17) 0.67058(7)
C22_11 C 0.8372(5) 0.83135(14) 0.68050(9)
H13_11 H 0.8656 0.8465 0.6766
C23_11 C 0.8533(5) 0.82121(16) 0.69623(8)
H14_11 H 0.8926 0.8296 0.7029
C24_11 C 0.7683(7) 0.8310(2) 0.65360(11)
H24_11 H 0.9673 0.8096 0.7635
C39_10 C 0.6992(13) 0.7010(3) 0.7510(3)
H28_11 H 0.6577 0.6913 0.7449
H29_10 H 0.7435 0.6888 0.7536
H30_10 H 0.6758 0.7080 0.7610
O12_13 O 0.8524(4) 0.62543(14) 0.89142(6)
O27_13 O 0.8270(7) 0.5436(2) 0.86628(14)
O10_14 O 0.3270(7) 0.7064(2) 0.88372(14)
O12_14 O 0.3976(4) 0.62457(14) 0.89142(6)
O27_14 O 0.4230(7) 0.7064(2) 0.86628(14)
O1_8 O 0.3524(4) 0.62543(14) 0.39142(6)
O2_12 O 0.2396(4) 0.64827(11) 0.38646(7)
O5_12 O 0.2623(9) 0.7732(3) 0.47349(13)
O6_12 O 0.5155(10) 0.7264(3) 0.51022(14)
O10_15 O 0.3270(7) 0.5436(2) 0.36628(14)
C1_12 C 0.3047(7) 0.6446(2) 0.39437(10)
C2_12 C 0.3243(4) 0.66361(13) 0.40796(6)
C3_12 C 0.3975(4) 0.65936(13) 0.41650(8)
H1_12 H 0.4340 0.6459 0.4130
C4_12 C 0.4160(4) 0.67518(15) 0.43029(8)
H2_12 H 0.4649 0.6723 0.4360
C5_12 C 0.3614(4) 0.69525(14) 0.43553(7)
C6_12 C 0.2882(4) 0.69950(13) 0.42700(9)
H3_12 H 0.2517 0.7129 0.4305
C7_12 C 0.2697(4) 0.68369(15) 0.41321(8)
H4_12 H 0.2208 0.6865 0.4075
C8_12 C 0.3796(7) 0.7094(3) 0.45097(15)
H5_12 H 0.4314 0.7047 0.4549
C9_12 C 0.3433(8) 0.7269(3) 0.46080(15)
H6_12 H 0.2914 0.7326 0.4574
C10_12 C 0.3718(6) 0.73860(17) 0.47621(9)
C11_12 C 0.3308(6) 0.76080(19) 0.48306(10)
C12_12 C 0.3554(6) 0.77115(17) 0.49829(10)
H7_12 H 0.3279 0.7860 0.5029
C13_12 C 0.4210(6) 0.7593(2) 0.50666(9)
C14_12 C 0.4621(6) 0.7371(2) 0.49981(11)
C15_12 C 0.4375(6) 0.72675(19) 0.48458(11)
H8_12 H 0.4649 0.7119 0.4800
C16_12 C 0.4448(9) 0.7683(3) 0.52308(15)
H9_12 H 0.4855 0.7578 0.5281
C17_12 C 0.4180(9) 0.7888(3) 0.53193(16)
H10_12 H 0.3773 0.7991 0.5267
C18_12 C 0.4392(5) 0.79851(17) 0.54797(7)
C19_12 C 0.4980(5) 0.78595(15) 0.55790(10)
H11_12 H 0.5264 0.7708 0.5540
C20_12 C 0.5141(4) 0.79609(17) 0.57362(9)
H12_12 H 0.5534 0.7877 0.5803
C21_12 C 0.4716(5) 0.81879(17) 0.57942(7)
C22_12 C 0.4128(5) 0.83135(14) 0.56950(9)
H13_12 H 0.3844 0.8465 0.5734
C23_12 C 0.3967(5) 0.82121(16) 0.55377(8)
H14_12 H 0.3574 0.8296 0.5471
C24_12 C 0.4817(7) 0.8310(2) 0.59640(11)
C37_12 C 0.2369(12) 0.7974(3) 0.4852(3)
H22_12 H 0.1914 0.8071 0.4804
H23_12 H 0.2210 0.7903 0.4958
H24_12 H 0.2827 0.8096 0.4865
C39_11 C 0.5508(13) 0.7010(3) 0.4990(3)
H28_12 H 0.5923 0.6913 0.5051
H29_11 H 0.5065 0.6888 0.4964
H30_11 H 0.5742 0.7080 0.4890
O12_15 O 0.3976(4) 0.62543(14) 0.35858(6)
O13_12 O 0.0104(4) 0.60173(11) 0.38646(7)
O27_15 O 0.4230(7) 0.5436(2) 0.38372(14)
H34_12 H 0.0292 0.5635 0.4075
C76_12 C 0.0131(12) 0.4526(3) 0.4852(3)
H52_12 H 0.0586 0.4429 0.4804
H53_12 H 0.0290 0.4597 0.4958
O11_8 O 0.8976(4) 0.62457(14) 0.39142(6)
O20_10 O 0.9877(9) 0.4768(3) 0.47349(13)
O21_9 O 0.7345(10) 0.5236(3) 0.51022(14)
C40_12 C 0.9453(7) 0.6054(2) 0.39437(10)
C41_12 C 0.9257(4) 0.58639(13) 0.40796(6)
C42_12 C 0.8525(4) 0.59064(13) 0.41650(8)
H31_12 H 0.8160 0.6041 0.4130
C43_12 C 0.8340(4) 0.57482(15) 0.43029(8)
H32_12 H 0.7851 0.5777 0.4360
C44_12 C 0.8886(4) 0.55475(14) 0.43553(7)
C45_12 C 0.9618(4) 0.55050(13) 0.42700(9)
H33_12 H 0.9983 0.5371 0.4305
C46_12 C 0.9803(4) 0.56631(15) 0.41321(8)
C47_12 C 0.8704(7) 0.5406(3) 0.45097(15)
H35_12 H 0.8186 0.5453 0.4549
C48_12 C 0.9067(8) 0.5231(3) 0.46080(15)
H36_12 H 0.9586 0.5174 0.4574
C49_12 C 0.8782(6) 0.51140(17) 0.47621(9)
C50_10 C 0.9192(6) 0.48920(19) 0.48306(10)
C51_10 C 0.8946(6) 0.47885(17) 0.49829(10)
H37_12 H 0.9221 0.4640 0.5029
C52_12 C 0.8290(6) 0.4907(2) 0.50666(9)
C53_12 C 0.7879(6) 0.5129(2) 0.49981(11)
C54_12 C 0.8125(6) 0.52325(19) 0.48458(11)
H38_12 H 0.7851 0.5381 0.4800
C55_12 C 0.8052(9) 0.4817(3) 0.52308(15)
H39_12 H 0.7645 0.4922 0.5281
C56_12 C 0.8320(9) 0.4612(3) 0.53193(16)
H40_12 H 0.8727 0.4509 0.5267
C57_12 C 0.8108(5) 0.45149(17) 0.54797(7)
C58_12 C 0.7520(5) 0.46405(15) 0.55790(10)
H41_12 H 0.7236 0.4792 0.5540
C59_12 C 0.7359(4) 0.45391(17) 0.57362(9)
H42_12 H 0.6966 0.4623 0.5803
C60_12 C 0.7784(5) 0.43121(17) 0.57942(7)
C61_12 C 0.8372(5) 0.41865(14) 0.56950(9)
H43_12 H 0.8656 0.4035 0.5734
C62_12 C 0.8533(5) 0.42879(16) 0.55377(8)
H44_12 H 0.8926 0.4204 0.5471
C63_12 C 0.7683(7) 0.4190(2) 0.59640(11)
H54_10 H 0.9673 0.4404 0.4865
C78_11 C 0.6992(13) 0.5490(3) 0.4990(3)
H58_9 H 0.6577 0.5587 0.5051
H59_11 H 0.7435 0.5612 0.4964
H60_11 H 0.6758 0.5420 0.4890
O10_16 O 0.9230(7) 0.7064(2) 0.36628(14)
O12_16 O 0.8524(4) 0.62457(14) 0.35858(6)
O27_16 O 0.8270(7) 0.7064(2) 0.38372(14)
H41_13 H 0.0264 0.9792 0.6960
C59_13 C 0.0141(4) 0.95391(17) 0.67638(9)
H42_13 H 0.0534 0.9623 0.6697
O2_13 O 0.5104(4) 0.14827(11) 0.86354(7)
O5_13 O 0.4877(9) 0.2732(3) 0.77651(13)
O6_13 O 0.2345(10) 0.2264(3) 0.73978(14)
C1_13 C 0.4453(7) 0.1446(2) 0.85563(10)
C2_13 C 0.4257(4) 0.16361(13) 0.84204(6)
C3_13 C 0.3525(4) 0.15936(13) 0.83350(8)
H1_13 H 0.3160 0.1459 0.8370
C4_13 C 0.3340(4) 0.17518(15) 0.81971(8)
H2_13 H 0.2851 0.1723 0.8140
C5_13 C 0.3886(4) 0.19525(14) 0.81447(7)
C6_13 C 0.4618(4) 0.19950(13) 0.82300(9)
H3_13 H 0.4983 0.2129 0.8195
C7_13 C 0.4803(4) 0.18369(15) 0.83679(8)
H4_13 H 0.5292 0.1865 0.8425
C8_13 C 0.3704(7) 0.2094(3) 0.79903(15)
H5_13 H 0.3186 0.2047 0.7951
C9_13 C 0.4067(8) 0.2269(3) 0.78920(15)
H6_13 H 0.4586 0.2326 0.7926
C10_13 C 0.3782(6) 0.23860(17) 0.77379(9)
C11_13 C 0.4192(6) 0.26080(19) 0.76694(10)
C12_13 C 0.3946(6) 0.27115(17) 0.75171(10)
H7_13 H 0.4221 0.2860 0.7471
C13_13 C 0.3290(6) 0.2593(2) 0.74334(9)
C14_13 C 0.2879(6) 0.2371(2) 0.75019(11)
C15_13 C 0.3125(6) 0.22675(19) 0.76542(11)
H8_13 H 0.2851 0.2119 0.7700
C16_13 C 0.3052(9) 0.2683(3) 0.72692(15)
H9_13 H 0.2645 0.2578 0.7219
C17_13 C 0.3320(9) 0.2888(3) 0.71807(16)
H10_13 H 0.3727 0.2991 0.7233
C18_13 C 0.3108(5) 0.29851(17) 0.70203(7)
C19_13 C 0.2520(5) 0.28595(15) 0.69210(10)
H11_13 H 0.2236 0.2708 0.6960
C20_13 C 0.2359(4) 0.29609(17) 0.67638(9)
H12_13 H 0.1966 0.2877 0.6697
C21_13 C 0.2784(5) 0.31879(17) 0.67058(7)
C22_13 C 0.3372(5) 0.33135(14) 0.68050(9)
H13_13 H 0.3656 0.3465 0.6766
C23_13 C 0.3533(5) 0.32121(16) 0.69623(8)
H14_13 H 0.3926 0.3296 0.7029
C24_13 C 0.2683(7) 0.3310(2) 0.65360(11)
C37_13 C 0.5131(12) 0.2974(3) 0.7648(3)
H22_13 H 0.5586 0.3071 0.7696
H23_13 H 0.5290 0.2903 0.7542
H24_13 H 0.4673 0.3096 0.7635
C39_12 C 0.1992(13) 0.2010(3) 0.7510(3)
H28_13 H 0.1577 0.1913 0.7449
H29_12 H 0.2435 0.1888 0.7536
H30_12 H 0.1758 0.2080 0.7610
O13_13 O 0.7396(4) 0.10173(11) 0.86354(7)
C40_13 C 0.8047(7) 0.1054(2) 0.85563(10)
C41_13 C 0.8243(4) 0.08639(13) 0.84204(6)
C42_13 C 0.8975(4) 0.09064(13) 0.83350(8)
H31_13 H 0.9340 0.1041 0.8370
C43_13 C 0.9160(4) 0.07482(15) 0.81971(8)
H32_13 H 0.9649 0.0777 0.8140
C44_13 C 0.8614(4) 0.05475(14) 0.81447(7)
C45_13 C 0.7882(4) 0.05050(13) 0.82300(9)
H33_13 H 0.7517 0.0371 0.8195
C46_13 C 0.7697(4) 0.06631(15) 0.83679(8)
H34_13 H 0.7208 0.0635 0.8425
C47_13 C 0.8796(7) 0.0406(3) 0.79903(15)
H35_13 H 0.9314 0.0453 0.7951
C48_13 C 0.8433(8) 0.0231(3) 0.78920(15)
H36_13 H 0.7914 0.0174 0.7926
C49_13 C 0.8718(6) 0.01140(17) 0.77379(9)
C53_13 C 0.9621(6) 0.0129(2) 0.75019(11)
C54_13 C 0.9375(6) 0.02325(19) 0.76542(11)
H38_13 H 0.9649 0.0381 0.7700
O20_11 O 0.7623(9) 0.9768(3) 0.77651(13)
C50_11 C 0.8308(6) 0.98920(19) 0.76694(10)
C51_11 C 0.8554(6) 0.97885(17) 0.75171(10)
H37_13 H 0.8279 0.9640 0.7471
C52_13 C 0.9210(6) 0.9907(2) 0.74334(9)
C55_13 C 0.9448(9) 0.9817(3) 0.72692(15)
H39_13 H 0.9855 0.9922 0.7219
C56_13 C 0.9180(9) 0.9612(3) 0.71807(16)
H40_13 H 0.8773 0.9509 0.7233
C57_13 C 0.9392(5) 0.95149(17) 0.70203(7)
C58_13 C 0.9980(5) 0.96405(15) 0.69210(10)
C60_13 C 0.9716(5) 0.93121(17) 0.67058(7)
C61_13 C 0.9128(5) 0.91865(14) 0.68050(9)
H43_13 H 0.8844 0.9035 0.6766
C62_13 C 0.8967(5) 0.92879(16) 0.69623(8)
H44_13 H 0.8574 0.9204 0.7029
C63_13 C 0.9817(7) 0.9190(2) 0.65360(11)
C76_13 C 0.7369(12) 0.9526(3) 0.7648(3)
H52_13 H 0.6914 0.9429 0.7696
H53_13 H 0.7210 0.9597 0.7542
H54_11 H 0.7827 0.9404 0.7635
O6_14 O 0.0155(10) 0.2264(3) 0.51022(14)
H11_14 H 0.0264 0.2708 0.5540
C20_14 C 0.0141(4) 0.29609(17) 0.57362(9)
H12_14 H 0.0534 0.2877 0.5803
C39_13 C 0.0508(13) 0.2010(3) 0.4990(3)
H28_14 H 0.0923 0.1913 0.5051
H29_13 H 0.0065 0.1888 0.4964
H30_13 H 0.0742 0.2080 0.4890
O2_14 O 0.7396(4) 0.14827(11) 0.38646(7)
O5_14 O 0.7623(9) 0.2732(3) 0.47349(13)
C1_14 C 0.8047(7) 0.1446(2) 0.39437(10)
C2_14 C 0.8243(4) 0.16361(13) 0.40796(6)
C3_14 C 0.8975(4) 0.15936(13) 0.41650(8)
H1_14 H 0.9340 0.1459 0.4130
C4_14 C 0.9160(4) 0.17518(15) 0.43029(8)
H2_14 H 0.9649 0.1723 0.4360
C5_14 C 0.8614(4) 0.19525(14) 0.43553(7)
C6_14 C 0.7882(4) 0.19950(13) 0.42700(9)
H3_14 H 0.7517 0.2129 0.4305
C7_14 C 0.7697(4) 0.18369(15) 0.41321(8)
H4_14 H 0.7208 0.1865 0.4075
C8_14 C 0.8796(7) 0.2094(3) 0.45097(15)
H5_14 H 0.9314 0.2047 0.4549
C9_14 C 0.8433(8) 0.2269(3) 0.46080(15)
H6_14 H 0.7914 0.2326 0.4574
C10_14 C 0.8718(6) 0.23860(17) 0.47621(9)
C11_14 C 0.8308(6) 0.26080(19) 0.48306(10)
C12_14 C 0.8554(6) 0.27115(17) 0.49829(10)
H7_14 H 0.8279 0.2860 0.5029
C13_14 C 0.9210(6) 0.2593(2) 0.50666(9)
C14_14 C 0.9621(6) 0.2371(2) 0.49981(11)
C15_14 C 0.9375(6) 0.22675(19) 0.48458(11)
H8_14 H 0.9649 0.2119 0.4800
C16_14 C 0.9448(9) 0.2683(3) 0.52308(15)
H9_14 H 0.9855 0.2578 0.5281
C17_14 C 0.9180(9) 0.2888(3) 0.53193(16)
H10_14 H 0.8773 0.2991 0.5267
C18_14 C 0.9392(5) 0.29851(17) 0.54797(7)
C19_14 C 0.9980(5) 0.28595(15) 0.55790(10)
C21_14 C 0.9716(5) 0.31879(17) 0.57942(7)
C22_14 C 0.9128(5) 0.33135(14) 0.56950(9)
H13_14 H 0.8844 0.3465 0.5734
C23_14 C 0.8967(5) 0.32121(16) 0.55377(8)
H14_14 H 0.8574 0.3296 0.5471
C24_14 C 0.9817(7) 0.3310(2) 0.59640(11)
C37_14 C 0.7369(12) 0.2974(3) 0.4852(3)
H22_14 H 0.6914 0.3071 0.4804
H23_14 H 0.7210 0.2903 0.4958
H24_14 H 0.7827 0.3096 0.4865
O13_14 O 0.5104(4) 0.10173(11) 0.38646(7)
O21_10 O 0.2345(10) 0.0236(3) 0.51022(14)
C40_14 C 0.4453(7) 0.1054(2) 0.39437(10)
C41_14 C 0.4257(4) 0.08639(13) 0.40796(6)
C42_14 C 0.3525(4) 0.09064(13) 0.41650(8)
H31_14 H 0.3160 0.1041 0.4130
C43_14 C 0.3340(4) 0.07482(15) 0.43029(8)
H32_14 H 0.2851 0.0777 0.4360
C44_14 C 0.3886(4) 0.05475(14) 0.43553(7)
C45_14 C 0.4618(4) 0.05050(13) 0.42700(9)
H33_14 H 0.4983 0.0371 0.4305
C46_14 C 0.4803(4) 0.06631(15) 0.41321(8)
H34_14 H 0.5292 0.0635 0.4075
C47_14 C 0.3704(7) 0.0406(3) 0.45097(15)
H35_14 H 0.3186 0.0453 0.4549
C48_14 C 0.4067(8) 0.0231(3) 0.46080(15)
H36_14 H 0.4586 0.0174 0.4574
C49_14 C 0.3782(6) 0.01140(17) 0.47621(9)
C53_14 C 0.2879(6) 0.0129(2) 0.49981(11)
C54_14 C 0.3125(6) 0.02325(19) 0.48458(11)
H38_14 H 0.2851 0.0381 0.4800
C78_12 C 0.1992(13) 0.0490(3) 0.4990(3)
H58_10 H 0.1577 0.0587 0.5051
H59_12 H 0.2435 0.0612 0.4964
H60_12 H 0.1758 0.0420 0.4890
O20_12 O 0.4877(9) 0.9768(3) 0.47349(13)
C50_12 C 0.4192(6) 0.98920(19) 0.48306(10)
C51_12 C 0.3946(6) 0.97885(17) 0.49829(10)
H37_14 H 0.4221 0.9640 0.5029
C52_14 C 0.3290(6) 0.9907(2) 0.50666(9)
C55_14 C 0.3052(9) 0.9817(3) 0.52308(15)
H39_14 H 0.2645 0.9922 0.5281
C56_14 C 0.3320(9) 0.9612(3) 0.53193(16)
H40_14 H 0.3727 0.9509 0.5267
C57_14 C 0.3108(5) 0.95149(17) 0.54797(7)
C58_14 C 0.2520(5) 0.96405(15) 0.55790(10)
H41_14 H 0.2236 0.9792 0.5540
C59_14 C 0.2359(4) 0.95391(17) 0.57362(9)
H42_14 H 0.1966 0.9623 0.5803
C60_14 C 0.2784(5) 0.93121(17) 0.57942(7)
C61_14 C 0.3372(5) 0.91865(14) 0.56950(9)
H43_14 H 0.3656 0.9035 0.5734
C62_14 C 0.3533(5) 0.92879(16) 0.55377(8)
H44_14 H 0.3926 0.9204 0.5471
C63_14 C 0.2683(7) 0.9190(2) 0.59640(11)
C76_14 C 0.5131(12) 0.9526(3) 0.4852(3)
H52_14 H 0.5586 0.9429 0.4804
H53_14 H 0.5290 0.9597 0.4958
H54_12 H 0.4673 0.9404 0.4865
O21_11 O 0.0155(10) 0.5236(3) 0.23978(14)
H41_15 H 0.0264 0.4792 0.1960
C59_15 C 0.0141(4) 0.45391(17) 0.17638(9)
H42_15 H 0.0534 0.4623 0.1697
C78_13 C 0.0508(13) 0.5490(3) 0.2510(3)
H58_11 H 0.0923 0.5587 0.2449
H59_13 H 0.0065 0.5612 0.2536
H60_13 H 0.0742 0.5420 0.2610
O2_15 O 0.5104(4) 0.64827(11) 0.36354(7)
O5_15 O 0.4877(9) 0.7732(3) 0.27651(13)
O6_15 O 0.2345(10) 0.7264(3) 0.23978(14)
C1_15 C 0.4453(7) 0.6446(2) 0.35563(10)
C2_15 C 0.4257(4) 0.66361(13) 0.34204(6)
C3_15 C 0.3525(4) 0.65936(13) 0.33350(8)
H1_15 H 0.3160 0.6459 0.3370
C4_15 C 0.3340(4) 0.67518(15) 0.31971(8)
H2_15 H 0.2851 0.6723 0.3140
C5_15 C 0.3886(4) 0.69525(14) 0.31447(7)
C6_15 C 0.4618(4) 0.69950(13) 0.32300(9)
H3_15 H 0.4983 0.7129 0.3195
C7_15 C 0.4803(4) 0.68369(15) 0.33679(8)
H4_15 H 0.5292 0.6865 0.3425
C8_15 C 0.3704(7) 0.7094(3) 0.29903(15)
H5_15 H 0.3186 0.7047 0.2951
C9_15 C 0.4067(8) 0.7269(3) 0.28920(15)
H6_15 H 0.4586 0.7326 0.2926
C10_15 C 0.3782(6) 0.73860(17) 0.27379(9)
C11_15 C 0.4192(6) 0.76080(19) 0.26694(10)
C12_15 C 0.3946(6) 0.77115(17) 0.25171(10)
H7_15 H 0.4221 0.7860 0.2471
C13_15 C 0.3290(6) 0.7593(2) 0.24334(9)
C14_15 C 0.2879(6) 0.7371(2) 0.25019(11)
C15_15 C 0.3125(6) 0.72675(19) 0.26542(11)
H8_15 H 0.2851 0.7119 0.2700
C16_15 C 0.3052(9) 0.7683(3) 0.22692(15)
H9_15 H 0.2645 0.7578 0.2219
C17_15 C 0.3320(9) 0.7888(3) 0.21807(16)
H10_15 H 0.3727 0.7991 0.2233
C18_15 C 0.3108(5) 0.79851(17) 0.20203(7)
C19_15 C 0.2520(5) 0.78595(15) 0.19210(10)
H11_15 H 0.2236 0.7708 0.1960
C20_15 C 0.2359(4) 0.79609(17) 0.17638(9)
H12_15 H 0.1966 0.7877 0.1697
C21_15 C 0.2784(5) 0.81879(17) 0.17058(7)
C22_15 C 0.3372(5) 0.83135(14) 0.18050(9)
H13_15 H 0.3656 0.8465 0.1766
C23_15 C 0.3533(5) 0.82121(16) 0.19623(8)
H14_15 H 0.3926 0.8296 0.2029
C24_15 C 0.2683(7) 0.8310(2) 0.15360(11)
C37_15 C 0.5131(12) 0.7974(3) 0.2648(3)
H22_15 H 0.5586 0.8071 0.2696
H23_15 H 0.5290 0.7903 0.2542
H24_15 H 0.4673 0.8096 0.2635
C39_14 C 0.1992(13) 0.7010(3) 0.2510(3)
H28_15 H 0.1577 0.6913 0.2449
H29_14 H 0.2435 0.6888 0.2536
H30_14 H 0.1758 0.7080 0.2610
O13_15 O 0.7396(4) 0.60173(11) 0.36354(7)
O20_13 O 0.7623(9) 0.4768(3) 0.27651(13)
C40_15 C 0.8047(7) 0.6054(2) 0.35563(10)
C41_15 C 0.8243(4) 0.58639(13) 0.34204(6)
C42_15 C 0.8975(4) 0.59064(13) 0.33350(8)
H31_15 H 0.9340 0.6041 0.3370
C43_15 C 0.9160(4) 0.57482(15) 0.31971(8)
H32_15 H 0.9649 0.5777 0.3140
C44_15 C 0.8614(4) 0.55475(14) 0.31447(7)
C45_15 C 0.7882(4) 0.55050(13) 0.32300(9)
H33_15 H 0.7517 0.5371 0.3195
C46_15 C 0.7697(4) 0.56631(15) 0.33679(8)
H34_15 H 0.7208 0.5635 0.3425
C47_15 C 0.8796(7) 0.5406(3) 0.29903(15)
H35_15 H 0.9314 0.5453 0.2951
C48_15 C 0.8433(8) 0.5231(3) 0.28920(15)
H36_15 H 0.7914 0.5174 0.2926
C49_15 C 0.8718(6) 0.51140(17) 0.27379(9)
C50_13 C 0.8308(6) 0.48920(19) 0.26694(10)
C51_13 C 0.8554(6) 0.47885(17) 0.25171(10)
H37_15 H 0.8279 0.4640 0.2471
C52_15 C 0.9210(6) 0.4907(2) 0.24334(9)
C53_15 C 0.9621(6) 0.5129(2) 0.25019(11)
C54_15 C 0.9375(6) 0.52325(19) 0.26542(11)
H38_15 H 0.9649 0.5381 0.2700
C55_15 C 0.9448(9) 0.4817(3) 0.22692(15)
H39_15 H 0.9855 0.4922 0.2219
C56_15 C 0.9180(9) 0.4612(3) 0.21807(16)
H40_15 H 0.8773 0.4509 0.2233
C57_15 C 0.9392(5) 0.45149(17) 0.20203(7)
C58_15 C 0.9980(5) 0.46405(15) 0.19210(10)
C60_15 C 0.9716(5) 0.43121(17) 0.17058(7)
C61_15 C 0.9128(5) 0.41865(14) 0.18050(9)
H43_15 H 0.8844 0.4035 0.1766
C62_15 C 0.8967(5) 0.42879(16) 0.19623(8)
H44_15 H 0.8574 0.4204 0.2029
C63_15 C 0.9817(7) 0.4190(2) 0.15360(11)
C76_15 C 0.7369(12) 0.4526(3) 0.2648(3)
H52_15 H 0.6914 0.4429 0.2696
H53_15 H 0.7210 0.4597 0.2542
H54_13 H 0.7827 0.4404 0.2635
O6_16 O 0.0155(10) 0.7264(3) 0.01022(14)
H11_16 H 0.0264 0.7708 0.0540
C20_16 C 0.0141(4) 0.79609(17) 0.07362(9)
H12_16 H 0.0534 0.7877 0.0803
H28_16 H 0.0923 0.6913 0.0051
H7_16 H 0.8279 0.7860 0.0029
C13_16 C 0.9210(6) 0.7593(2) 0.00666(9)
C16_16 C 0.9448(9) 0.7683(3) 0.02308(15)
H9_16 H 0.9855 0.7578 0.0281
C17_16 C 0.9180(9) 0.7888(3) 0.03193(16)
H10_16 H 0.8773 0.7991 0.0267
C18_16 C 0.9392(5) 0.79851(17) 0.04797(7)
C19_16 C 0.9980(5) 0.78595(15) 0.05790(10)
C21_16 C 0.9716(5) 0.81879(17) 0.07942(7)
C22_16 C 0.9128(5) 0.83135(14) 0.06950(9)
H13_16 H 0.8844 0.8465 0.0734
C23_16 C 0.8967(5) 0.82121(16) 0.05377(8)
H14_16 H 0.8574 0.8296 0.0471
C24_16 C 0.9817(7) 0.8310(2) 0.09640(11)
O21_12 O 0.2345(10) 0.5236(3) 0.01022(14)
H37_16 H 0.4221 0.4640 0.0029
C52_16 C 0.3290(6) 0.4907(2) 0.00666(9)
C55_16 C 0.3052(9) 0.4817(3) 0.02308(15)
H39_16 H 0.2645 0.4922 0.0281
C56_16 C 0.3320(9) 0.4612(3) 0.03193(16)
H40_16 H 0.3727 0.4509 0.0267
C57_16 C 0.3108(5) 0.45149(17) 0.04797(7)
C58_16 C 0.2520(5) 0.46405(15) 0.05790(10)
H41_16 H 0.2236 0.4792 0.0540
C59_16 C 0.2359(4) 0.45391(17) 0.07362(9)
H42_16 H 0.1966 0.4623 0.0803
C60_16 C 0.2784(5) 0.43121(17) 0.07942(7)
C61_16 C 0.3372(5) 0.41865(14) 0.06950(9)
H43_16 H 0.3656 0.4035 0.0734
C62_16 C 0.3533(5) 0.42879(16) 0.05377(8)
H44_16 H 0.3926 0.4204 0.0471
C63_16 C 0.2683(7) 0.4190(2) 0.09640(11)
H58_12 H 0.1577 0.5587 0.0051
O2_16 O 0.7396(4) 0.64827(11) 0.88646(7)
O5_16 O 0.7623(9) 0.7732(3) 0.97349(13)
C1_16 C 0.8047(7) 0.6446(2) 0.89437(10)
C2_16 C 0.8243(4) 0.66361(13) 0.90796(6)
C3_16 C 0.8975(4) 0.65936(13) 0.91650(8)
H1_16 H 0.9340 0.6459 0.9130
C4_16 C 0.9160(4) 0.67518(15) 0.93029(8)
H2_16 H 0.9649 0.6723 0.9360
C5_16 C 0.8614(4) 0.69525(14) 0.93553(7)
C6_16 C 0.7882(4) 0.69950(13) 0.92700(9)
H3_16 H 0.7517 0.7129 0.9305
C7_16 C 0.7697(4) 0.68369(15) 0.91321(8)
H4_16 H 0.7208 0.6865 0.9075
C8_16 C 0.8796(7) 0.7094(3) 0.95097(15)
H5_16 H 0.9314 0.7047 0.9549
C9_16 C 0.8433(8) 0.7269(3) 0.96080(15)
H6_16 H 0.7914 0.7326 0.9574
C10_16 C 0.8718(6) 0.73860(17) 0.97621(9)
C11_16 C 0.8308(6) 0.76080(19) 0.98306(10)
C12_16 C 0.8554(6) 0.77115(17) 0.99829(10)
C14_16 C 0.9621(6) 0.7371(2) 0.99981(11)
C15_16 C 0.9375(6) 0.72675(19) 0.98458(11)
H8_16 H 0.9649 0.7119 0.9800
C37_16 C 0.7369(12) 0.7974(3) 0.9852(3)
H22_16 H 0.6914 0.8071 0.9804
H23_16 H 0.7210 0.7903 0.9958
H24_16 H 0.7827 0.8096 0.9865
O13_16 O 0.5104(4) 0.60173(11) 0.88646(7)
O20_14 O 0.4877(9) 0.4768(3) 0.97349(13)
C40_16 C 0.4453(7) 0.6054(2) 0.89437(10)
C41_16 C 0.4257(4) 0.58639(13) 0.90796(6)
C42_16 C 0.3525(4) 0.59064(13) 0.91650(8)
H31_16 H 0.3160 0.6041 0.9130
C43_16 C 0.3340(4) 0.57482(15) 0.93029(8)
H32_16 H 0.2851 0.5777 0.9360
C44_16 C 0.3886(4) 0.55475(14) 0.93553(7)
C45_16 C 0.4618(4) 0.55050(13) 0.92700(9)
H33_16 H 0.4983 0.5371 0.9305
C46_16 C 0.4803(4) 0.56631(15) 0.91321(8)
H34_16 H 0.5292 0.5635 0.9075
C47_16 C 0.3704(7) 0.5406(3) 0.95097(15)
H35_16 H 0.3186 0.5453 0.9549
C48_16 C 0.4067(8) 0.5231(3) 0.96080(15)
H36_16 H 0.4586 0.5174 0.9574
C49_16 C 0.3782(6) 0.51140(17) 0.97621(9)
C50_14 C 0.4192(6) 0.48920(19) 0.98306(10)
C51_14 C 0.3946(6) 0.47885(17) 0.99829(10)
C53_16 C 0.2879(6) 0.5129(2) 0.99981(11)
C54_16 C 0.3125(6) 0.52325(19) 0.98458(11)
H38_16 H 0.2851 0.5381 0.9800
C76_16 C 0.5131(12) 0.4526(3) 0.9852(3)
H52_16 H 0.5586 0.4429 0.9804
H53_16 H 0.5290 0.4597 0.9958
H54_14 H 0.4673 0.4404 0.9865
C78_14 C 0.1992(13) 0.5490(3) 0.9990(3)
H59_14 H 0.2435 0.5612 0.9964
H60_14 H 0.1758 0.5420 0.9890
O20_15 O 0.0123(9) 0.0232(3) 0.02651(13)
C50_15 C 0.0808(6) 0.01080(19) 0.01694(10)
C51_15 C 0.1054(6) 0.02115(17) 0.00171(10)
H54_15 H 0.0327 0.0596 0.0135
O21_13 O 0.2655(10) 0.9764(3) 0.98978(14)
H58_13 H 0.3423 0.9413 0.9949
O21_14 O 0.9845(10) 0.9764(3) 0.26022(14)
C78_15 C 0.9492(13) 0.9510(3) 0.2490(3)
H58_14 H 0.9077 0.9413 0.2551
H59_15 H 0.9935 0.9388 0.2464
H60_15 H 0.9258 0.9580 0.2390
C39_15 C 0.9492(13) 0.2990(3) 0.0010(3)
H29_15 H 0.9935 0.3112 0.0036
H30_15 H 0.9258 0.2920 0.0110
O21_15 O 0.7345(10) 0.0236(3) 0.01022(14)
H58_15 H 0.6577 0.0587 0.0051
O20_16 O 0.9877(9) 0.9768(3) 0.97349(13)
C50_16 C 0.9192(6) 0.98920(19) 0.98306(10)
C51_16 C 0.8946(6) 0.97885(17) 0.99829(10)
H54_16 H 0.9673 0.9404 0.9865
O21_16 O 0.0155(10) 0.0236(3) 0.73978(14)
C78_16 C 0.0508(13) 0.0490(3) 0.7510(3)
H58_16 H 0.0923 0.0587 0.7449
H59_16 H 0.0065 0.0612 0.7536
H60_16 H 0.0742 0.0420 0.7610
C39_16 C 0.0508(13) 0.7010(3) 0.9990(3)
H29_16 H 0.0065 0.6888 0.9964
H30_16 H 0.0742 0.7080 0.9890
loop_
_geom_bond_atom_site_label_1
_geom_bond_atom_site_label_2
_geom_bond_site_symmetry_1
_geom_bond_site_symmetry_2
Yb4 O22 1_555 1_555
O22 C64 1_555 1_555
C64 C65 1_555 1_555
C65 C66 1_555 1_555
C66 H45 1_555 1_555
C67 C66 1_555 1_555
H46 C67 1_555 1_555
C68 C67 1_555 1_555
C71 C68 1_555 1_555
H49 C71 1_555 1_555
Yb2 O1 1_555 1_555
O1 C1 1_555 1_555
O3 C24 1_555 1_555
O4 C24 1_555 1_555
O5 C11 1_555 1_555
O6 C14 1_555 1_555
O8 Yb2 1_555 1_555
O9 C36 1_555 1_555
O10 Yb2 1_555 1_555
C1 C2 1_555 1_555
C2 C3 1_555 1_555
C3 H1 1_555 1_555
C4 C3 1_555 1_555
H2 C4 1_555 1_555
C5 C4 1_555 1_555
C6 C5 1_555 1_555
H3 C6 1_555 1_555
C7 C2 1_555 1_555
C8 C5 1_555 1_555
H5 C8 1_555 1_555
C9 C8 1_555 1_555
H6 C9 1_555 1_555
C10 C9 1_555 1_555
C11 C10 1_555 1_555
C12 C11 1_555 1_555
H7 C12 1_555 1_555
C13 C12 1_555 1_555
C14 C13 1_555 1_555
C15 C10 1_555 1_555
H8 C15 1_555 1_555
C16 C13 1_555 1_555
H9 C16 1_555 1_555
C17 C16 1_555 1_555
H10 C17 1_555 1_555
C18 C17 1_555 1_555
C19 C18 1_555 1_555
H11 C19 1_555 1_555
C20 C19 1_555 1_555
H12 C20 1_555 1_555
C21 C20 1_555 1_555
C22 C21 1_555 1_555
H13 C22 1_555 1_555
C23 C18 1_555 1_555
H14 C23 1_555 1_555
C24 C21 1_555 1_555
H17 C30 1_555 1_555
H18 C31 1_555 1_555
H20 C33 1_555 1_555
C34 C33 1_555 1_555
C36 C34 1_555 1_555
C38 O9 1_555 1_555
H25 C38 1_555 1_555
H26 C38 1_555 1_555
H27 C38 1_555 1_555
C39 O6 1_555 1_555
H28 C39 1_555 1_555
H29 C39 1_555 1_555
H30 C39 1_555 1_555
Yb3 O4 1_555 1_555
Yb6 O3 1_555 1_555
O12 Yb2 1_555 1_555
O15 Yb2 1_555 1_555
O16 Yb2 1_555 1_555
O25 Yb2 1_555 1_555
O27 Yb2 1_555 1_555
C74 C36 1_555 1_555
H51 C74 1_555 1_555
C6 C7 1_555 1_555
C14 C15 1_555 1_555
C22 C23 1_555 1_555
C30 C31 1_555 1_555
H21 C35 1_555 1_555
Yb5 O17 1_555 1_555
Yb7 O24 1_555 1_555
Yb9 O14 1_555 1_555
O14 C63 1_555 1_555
O17 C63 1_555 1_555
O20 C50 1_555 1_555
O26 C75 1_555 1_555
C51 C50 1_555 1_555
H37 C51 1_555 1_555
C52 C51 1_555 1_555
C55 C52 1_555 1_555
H39 C55 1_555 1_555
C56 C55 1_555 1_555
H40 C56 1_555 1_555
C57 C56 1_555 1_555
C58 C57 1_555 1_555
H41 C58 1_555 1_555
C59 C58 1_555 1_555
H42 C59 1_555 1_555
C60 C59 1_555 1_555
C61 C60 1_555 1_555
H43 C61 1_555 1_555
C62 C57 1_555 1_555
H44 C62 1_555 1_555
C63 C60 1_555 1_555
H47 C69 1_555 1_555
H48 C70 1_555 1_555
H50 C72 1_555 1_555
C73 C72 1_555 1_555
C75 C35 1_555 1_555
C76 O20 1_555 1_555
H52 C76 1_555 1_555
H53 C76 1_555 1_555
H54 C76 1_555 1_555
C77 O26 1_555 1_555
H55 C77 1_555 1_555
H56 C77 1_555 1_555
H57 C77 1_555 1_555
C61 C62 1_555 1_555
C69 C70 1_555 1_555
C73 C75 1_555 1_555
Yb1 O2 1_555 1_555
O7 Yb1 1_555 1_555
C25 O7 1_555 1_555
C26 C25 1_555 1_555
C27 C26 1_555 1_555
H15 C27 1_555 1_555
C28 C27 1_555 1_555
H16 C28 1_555 1_555
C29 C28 1_555 1_555
C32 C29 1_555 1_555
H19 C32 1_555 1_555
H22 C37 1_555 1_555
H23 C37 1_555 1_555
Yb8 O11 1_555 1_555
O11 C40 1_555 1_555
O13 Yb1 1_555 1_555
O18 Yb1 1_555 1_555
O19 Yb1 1_555 1_555
O21 C53 1_555 1_555
O23 Yb1 1_555 1_555
C40 O13 1_555 1_555
C41 C40 1_555 1_555
C42 C41 1_555 1_555
H31 C42 1_555 1_555
C43 C42 1_555 1_555
H32 C43 1_555 1_555
C44 C43 1_555 1_555
C45 C44 1_555 1_555
H33 C45 1_555 1_555
C46 C41 1_555 1_555
H34 C46 1_555 1_555
C47 C44 1_555 1_555
H35 C47 1_555 1_555
C48 C47 1_555 1_555
H36 C48 1_555 1_555
C49 C48 1_555 1_555
C54 C49 1_555 1_555
H38 C54 1_555 1_555
C78 O21 1_555 1_555
H58 C78 1_555 1_555
H59 C78 1_555 1_555
H60 C78 1_555 1_555
C45 C46 1_555 1_555
C53 C54 1_555 1_555
O8_2 Yb8 1_555 1_555
O9_2 C36_2 1_555 1_555
O10_2 Yb8 1_555 1_555
C25_2 O23 1_555 1_555
C26_2 C25_2 1_555 1_555
C27_2 C26_2 1_555 1_555
H15_2 C27_2 1_555 1_555
C28_2 C27_2 1_555 1_555
H16_2 C28_2 1_555 1_555
C29_2 C28_2 1_555 1_555
C30_2 C29_2 1_555 1_555
H17_2 C30_2 1_555 1_555
C31_2 C26_2 1_555 1_555
H18_2 C31_2 1_555 1_555
C32_2 C29_2 1_555 1_555
H19_2 C32_2 1_555 1_555
C33_2 C32_2 1_555 1_555
H20_2 C33_2 1_555 1_555
C34_2 C33_2 1_555 1_555
C35_2 C34_2 1_555 1_555
H21_2 C35_2 1_555 1_555
C36_2 C34_2 1_555 1_555
C38_2 O9_2 1_555 1_555
H25_2 C38_2 1_555 1_555
H26_2 C38_2 1_555 1_555
H27_2 C38_2 1_555 1_555
Yb4_2 O22_2 1_555 1_555
Yb7_2 O24_2 1_555 1_555
O12_2 Yb8 1_555 1_555
O15_2 Yb8 1_555 1_555
O16_2 Yb8 1_555 1_555
O22_2 C64_2 1_555 1_555
O24_2 C64_2 1_555 1_555
O25_2 Yb8 1_555 1_555
O26_2 C75_2 1_555 1_555
O27_2 Yb8 1_555 1_555
C64_2 C65_2 1_555 1_555
C65_2 C66_2 1_555 1_555
C66_2 H45_2 1_555 1_555
C67_2 C66_2 1_555 1_555
H46_2 C67_2 1_555 1_555
C68_2 C67_2 1_555 1_555
C69_2 C68_2 1_555 1_555
H47_2 C69_2 1_555 1_555
C70_2 C65_2 1_555 1_555
H48_2 C70_2 1_555 1_555
C71_2 C68_2 1_555 1_555
H49_2 C71_2 1_555 1_555
C72_2 C71_2 1_555 1_555
H50_2 C72_2 1_555 1_555
C73_2 C72_2 1_555 1_555
C74_2 C36_2 1_555 1_555
H51_2 C74_2 1_555 1_555
C75_2 C35_2 1_555 1_555
C77_2 O26_2 1_555 1_555
H55_2 C77_2 1_555 1_555
H56_2 C77_2 1_555 1_555
H57_2 C77_2 1_555 1_555
O8_2 C25_2 1_555 1_555
C30_2 C31_2 1_555 1_555
C69_2 C70_2 1_555 1_555
C73_2 C74_2 1_555 1_555
C73_2 C75_2 1_555 1_555
Yb5_2 O17_2 1_555 1_555
Yb9 O14_2 1_555 1_555
O14_2 C63_2 1_555 1_555
O17_2 C63_2 1_555 1_555
C55_2 C52_2 1_555 1_555
H39_2 C55_2 1_555 1_555
C56_2 C55_2 1_555 1_555
H40_2 C56_2 1_555 1_555
C57_2 C56_2 1_555 1_555
C58_2 C57_2 1_555 1_555
H41_2 C58_2 1_555 1_555
C59_2 C58_2 1_555 1_555
H42_2 C59_2 1_555 1_555
C60_2 C59_2 1_555 1_555
C61_2 C60_2 1_555 1_555
H43_2 C61_2 1_555 1_555
C62_2 C57_2 1_555 1_555
H44_2 C62_2 1_555 1_555
C63_2 C60_2 1_555 1_555
C61_2 C62_2 1_555 1_555
Yb8_2 O11_2 1_555 1_555
O11_2 C40_2 1_555 1_555
C41_2 C40_2 1_555 1_555
C42_2 C41_2 1_555 1_555
H31_2 C42_2 1_555 1_555
C43_2 C42_2 1_555 1_555
H32_2 C43_2 1_555 1_555
C44_2 C43_2 1_555 1_555
C45_2 C44_2 1_555 1_555
H33_2 C45_2 1_555 1_555
C46_2 C41_2 1_555 1_555
C47_2 C44_2 1_555 1_555
H35_2 C47_2 1_555 1_555
C48_2 C47_2 1_555 1_555
H36_2 C48_2 1_555 1_555
C49_2 C48_2 1_555 1_555
C54_2 C49_2 1_555 1_555
H38_2 C54_2 1_555 1_555
H59_2 C78_2 1_555 1_555
H60_2 C78_2 1_555 1_555
C45_2 C46_2 1_555 1_555
C53_2 C54_2 1_555 1_555
H21_3 C35_3 1_555 1_555
Yb4_3 O22_3 1_555 1_555
Yb7 O24_3 1_555 1_555
O22_3 C64_3 1_555 1_555
O24_3 C64_3 1_555 1_555
O26_3 C75_3 1_555 1_555
C64_3 C65_3 1_555 1_555
C65_3 C66_3 1_555 1_555
C66_3 H45_3 1_555 1_555
C67_3 C66_3 1_555 1_555
H46_3 C67_3 1_555 1_555
C68_3 C67_3 1_555 1_555
C69_3 C68_3 1_555 1_555
H47_3 C69_3 1_555 1_555
C70_3 C65_3 1_555 1_555
H48_3 C70_3 1_555 1_555
C71_3 C68_3 1_555 1_555
H49_3 C71_3 1_555 1_555
C72_3 C71_3 1_555 1_555
H50_3 C72_3 1_555 1_555
C73_3 C72_3 1_555 1_555
C75_3 C35_3 1_555 1_555
H52_2 C76_2 1_555 1_555
H53_2 C76_2 1_555 1_555
C77_3 O26_3 1_555 1_555
H55_3 C77_3 1_555 1_555
H56_3 C77_3 1_555 1_555
H57_3 C77_3 1_555 1_555
C69_3 C70_3 1_555 1_555
C73_3 C75_3 1_555 1_555
Yb1_2 O2_2 1_555 1_555
Yb2_2 O1_2 1_555 1_555
O1_2 C1_2 1_555 1_555
O2_2 C1_2 1_555 1_555
O5_2 C11_2 1_555 1_555
O7_2 Yb1_2 1_555 1_555
O8_3 Yb2_2 1_555 1_555
O9_3 C36_3 1_555 1_555
O10_3 Yb2_2 1_555 1_555
C1_2 C2_2 1_555 1_555
C2_2 C3_2 1_555 1_555
C3_2 H1_2 1_555 1_555
C4_2 C3_2 1_555 1_555
H2_2 C4_2 1_555 1_555
C5_2 C4_2 1_555 1_555
C6_2 C5_2 1_555 1_555
H3_2 C6_2 1_555 1_555
C7_2 C2_2 1_555 1_555
H4_2 C7_2 1_555 1_555
C8_2 C5_2 1_555 1_555
H5_2 C8_2 1_555 1_555
C9_2 C8_2 1_555 1_555
H6_2 C9_2 1_555 1_555
C10_2 C9_2 1_555 1_555
C11_2 C10_2 1_555 1_555
C12_2 C11_2 1_555 1_555
C15_2 C10_2 1_555 1_555
H8_2 C15_2 1_555 1_555
C25_3 O7_2 1_555 1_555
C26_3 C25_3 1_555 1_555
C27_3 C26_3 1_555 1_555
H15_3 C27_3 1_555 1_555
C28_3 C27_3 1_555 1_555
H16_3 C28_3 1_555 1_555
C29_3 C28_3 1_555 1_555
C30_3 C29_3 1_555 1_555
H17_3 C30_3 1_555 1_555
C31_3 C26_3 1_555 1_555
H18_3 C31_3 1_555 1_555
C32_3 C29_3 1_555 1_555
H19_3 C32_3 1_555 1_555
C33_3 C32_3 1_555 1_555
H20_3 C33_3 1_555 1_555
C34_3 C33_3 1_555 1_555
C36_3 C34_3 1_555 1_555
C37_2 O5_2 1_555 1_555
H22_2 C37_2 1_555 1_555
H23_2 C37_2 1_555 1_555
H24_2 C37_2 1_555 1_555
C38_3 O9_3 1_555 1_555
H25_3 C38_3 1_555 1_555
H26_3 C38_3 1_555 1_555
H27_3 C38_3 1_555 1_555
H29_2 C39_2 1_555 1_555
H30_2 C39_2 1_555 1_555
O12_3 Yb2_2 1_555 1_555
O13_2 Yb1_2 1_555 1_555
O15_3 Yb2_2 1_555 1_555
O16_3 Yb2_2 1_555 1_555
O18_2 Yb1_2 1_555 1_555
O19_2 Yb1_2 1_555 1_555
O23_2 Yb1_2 1_555 1_555
O25_3 Yb2_2 1_555 1_555
O27_3 Yb2_2 1_555 1_555
C74_3 C36_3 1_555 1_555
H51_3 C74_3 1_555 1_555
O8_3 C25_3 1_555 1_555
C6_2 C7_2 1_555 1_555
C14_2 C15_2 1_555 1_555
C30_3 C31_3 1_555 1_555
O3_2 C24_2 1_555 1_555
O4_2 C24_2 1_555 1_555
C16_2 C13_2 1_555 1_555
H9_2 C16_2 1_555 1_555
C17_2 C16_2 1_555 1_555
H10_2 C17_2 1_555 1_555
C18_2 C17_2 1_555 1_555
C19_2 C18_2 1_555 1_555
H11_2 C19_2 1_555 1_555
C20_2 C19_2 1_555 1_555
H12_2 C20_2 1_555 1_555
C21_2 C20_2 1_555 1_555
C22_2 C21_2 1_555 1_555
H13_2 C22_2 1_555 1_555
C23_2 C18_2 1_555 1_555
H14_2 C23_2 1_555 1_555
C24_2 C21_2 1_555 1_555
Yb3_2 O4_2 1_555 1_555
Yb6 O3_2 1_555 1_555
C22_2 C23_2 1_555 1_555
O8_4 Yb8_2 1_555 1_555
O9_4 C36_4 1_555 1_555
O10_4 Yb8_2 1_555 1_555
H17_4 C30_4 1_555 1_555
H18_4 C31_4 1_555 1_555
H20_4 C33_4 1_555 1_555
C34_4 C33_4 1_555 1_555
C36_4 C34_4 1_555 1_555
C38_4 O9_4 1_555 1_555
H25_4 C38_4 1_555 1_555
H26_4 C38_4 1_555 1_555
H27_4 C38_4 1_555 1_555
Yb4_4 O22_4 1_555 1_555
O12_4 Yb8_2 1_555 1_555
O15_4 Yb8_2 1_555 1_555
O16_4 Yb8_2 1_555 1_555
O22_4 C64_4 1_555 1_555
O25_4 Yb8_2 1_555 1_555
O27_4 Yb8_2 1_555 1_555
C64_4 C65_4 1_555 1_555
C65_4 C66_4 1_555 1_555
C66_4 H45_4 1_555 1_555
C67_4 C66_4 1_555 1_555
H46_4 C67_4 1_555 1_555
C68_4 C67_4 1_555 1_555
C71_4 C68_4 1_555 1_555
H49_4 C71_4 1_555 1_555
C74_4 C36_4 1_555 1_555
H51_4 C74_4 1_555 1_555
C30_4 C31_4 1_555 1_555
C25_4 O23_2 1_555 1_555
C26_4 C25_4 1_555 1_555
C27_4 C26_4 1_555 1_555
H15_4 C27_4 1_555 1_555
C28_4 C27_4 1_555 1_555
H16_4 C28_4 1_555 1_555
C29_4 C28_4 1_555 1_555
C32_4 C29_4 1_555 1_555
H19_4 C32_4 1_555 1_555
H21_4 C35_4 1_555 1_555
Yb7_2 O24_4 1_555 1_555
O26_4 C75_4 1_555 1_555
H47_4 C69_4 1_555 1_555
H48_4 C70_4 1_555 1_555
H50_4 C72_4 1_555 1_555
C73_4 C72_4 1_555 1_555
C75_4 C35_4 1_555 1_555
C77_4 O26_4 1_555 1_555
H55_4 C77_4 1_555 1_555
H56_4 C77_4 1_555 1_555
H57_4 C77_4 1_555 1_555
C69_4 C70_4 1_555 1_555
C73_4 C75_4 1_555 1_555
Yb2_3 O1_3 1_555 1_555
O1_3 C1_3 1_555 1_555
O3_3 C24_3 1_555 1_555
O4_3 C24_3 1_555 1_555
O5_3 C11_3 1_555 1_555
O6_3 C14_3 1_555 1_555
O8_5 Yb2_3 1_555 1_555
O9_5 C36_5 1_555 1_555
O10_5 Yb2_3 1_555 1_555
C1_3 C2_3 1_555 1_555
C2_3 C3_3 1_555 1_555
C3_3 H1_3 1_555 1_555
C4_3 C3_3 1_555 1_555
H2_3 C4_3 1_555 1_555
C5_3 C4_3 1_555 1_555
C6_3 C5_3 1_555 1_555
H3_3 C6_3 1_555 1_555
C7_3 C2_3 1_555 1_555
C8_3 C5_3 1_555 1_555
H5_3 C8_3 1_555 1_555
C9_3 C8_3 1_555 1_555
H6_3 C9_3 1_555 1_555
C10_3 C9_3 1_555 1_555
C11_3 C10_3 1_555 1_555
C12_3 C11_3 1_555 1_555
H7_3 C12_3 1_555 1_555
C13_3 C12_3 1_555 1_555
C14_3 C13_3 1_555 1_555
C15_3 C10_3 1_555 1_555
H8_3 C15_3 1_555 1_555
C16_3 C13_3 1_555 1_555
H9_3 C16_3 1_555 1_555
C17_3 C16_3 1_555 1_555
H10_3 C17_3 1_555 1_555
C18_3 C17_3 1_555 1_555
C19_3 C18_3 1_555 1_555
H11_3 C19_3 1_555 1_555
C20_3 C19_3 1_555 1_555
H12_3 C20_3 1_555 1_555
C21_3 C20_3 1_555 1_555
C22_3 C21_3 1_555 1_555
H13_3 C22_3 1_555 1_555
C23_3 C18_3 1_555 1_555
H14_3 C23_3 1_555 1_555
C24_3 C21_3 1_555 1_555
H17_5 C30_5 1_555 1_555
H18_5 C31_5 1_555 1_555
H20_5 C33_5 1_555 1_555
C34_5 C33_5 1_555 1_555
C36_5 C34_5 1_555 1_555
C39_3 O6_3 1_555 1_555
H28_3 C39_3 1_555 1_555
H29_3 C39_3 1_555 1_555
H30_3 C39_3 1_555 1_555
Yb4 O4_3 1_555 1_555
Yb6_2 O3_3 1_555 1_555
O12_5 Yb2_3 1_555 1_555
O15_5 Yb2_3 1_555 1_555
O16_5 Yb2_3 1_555 1_555
O25_5 Yb2_3 1_555 1_555
O27_5 Yb2_3 1_555 1_555
C6_3 C7_3 1_555 1_555
C14_3 C15_3 1_555 1_555
C22_3 C23_3 1_555 1_555
C30_5 C31_5 1_555 1_555
H25_5 C38_5 1_555 1_555
H26_5 C38_5 1_555 1_555
H27_5 C38_5 1_555 1_555
Yb3 O22_5 1_555 1_555
O22_5 C64_5 1_555 1_555
C64_5 C65_5 1_555 1_555
C65_5 C66_5 1_555 1_555
C66_5 H45_5 1_555 1_555
C67_5 C66_5 1_555 1_555
H46_5 C67_5 1_555 1_555
C68_5 C67_5 1_555 1_555
C71_5 C68_5 1_555 1_555
H49_5 C71_5 1_555 1_555
H51_5 C74_5 1_555 1_555
Yb1_3 O2_3 1_555 1_555
O7_3 Yb1_3 1_555 1_555
C25_5 O7_3 1_555 1_555
C26_5 C25_5 1_555 1_555
C27_5 C26_5 1_555 1_555
H15_5 C27_5 1_555 1_555
C28_5 C27_5 1_555 1_555
H16_5 C28_5 1_555 1_555
C29_5 C28_5 1_555 1_555
C32_5 C29_5 1_555 1_555
H19_5 C32_5 1_555 1_555
H21_5 C35_5 1_555 1_555
H22_3 C37_3 1_555 1_555
H23_3 C37_3 1_555 1_555
Yb4_2 O17_3 1_555 1_555
Yb8_3 O11_3 1_555 1_555
Yb9_2 O14_3 1_555 1_555
O11_3 C40_3 1_555 1_555
O13_3 Yb1_3 1_555 1_555
O14_3 C63_3 1_555 1_555
O17_3 C63_3 1_555 1_555
O18_3 Yb1_3 1_555 1_555
O19_3 Yb1_3 1_555 1_555
O20_2 C50_2 1_555 1_555
O21_2 C53_3 1_555 1_555
O23_3 Yb1_3 1_555 1_555
C40_3 O13_3 1_555 1_555
C41_3 C40_3 1_555 1_555
C42_3 C41_3 1_555 1_555
H31_3 C42_3 1_555 1_555
C43_3 C42_3 1_555 1_555
H32_3 C43_3 1_555 1_555
C44_3 C43_3 1_555 1_555
C45_3 C44_3 1_555 1_555
H33_3 C45_3 1_555 1_555
C46_3 C41_3 1_555 1_555
H34_3 C46_3 1_555 1_555
C47_3 C44_3 1_555 1_555
H35_3 C47_3 1_555 1_555
C48_3 C47_3 1_555 1_555
H36_3 C48_3 1_555 1_555
C49_3 C48_3 1_555 1_555
C50_2 C49_3 1_555 1_555
C51_2 C50_2 1_555 1_555
H37_3 C51_2 1_555 1_555
C52_3 C51_2 1_555 1_555
C53_3 C52_3 1_555 1_555
C54_3 C49_3 1_555 1_555
H38_3 C54_3 1_555 1_555
C55_3 C52_3 1_555 1_555
H39_3 C55_3 1_555 1_555
C56_3 C55_3 1_555 1_555
H40_3 C56_3 1_555 1_555
C57_3 C56_3 1_555 1_555
C58_3 C57_3 1_555 1_555
H41_3 C58_3 1_555 1_555
C59_3 C58_3 1_555 1_555
H42_3 C59_3 1_555 1_555
C60_3 C59_3 1_555 1_555
C61_3 C60_3 1_555 1_555
H43_3 C61_3 1_555 1_555
C62_3 C57_3 1_555 1_555
H44_3 C62_3 1_555 1_555
C63_3 C60_3 1_555 1_555
C76_3 O20_2 1_555 1_555
H52_3 C76_3 1_555 1_555
H53_3 C76_3 1_555 1_555
H54_2 C76_3 1_555 1_555
H55_5 C77_5 1_555 1_555
H56_5 C77_5 1_555 1_555
H57_5 C77_5 1_555 1_555
C78_3 O21_2 1_555 1_555
H58_2 C78_3 1_555 1_555
H59_3 C78_3 1_555 1_555
H60_3 C78_3 1_555 1_555
C45_3 C46_3 1_555 1_555
C53_3 C54_3 1_555 1_555
C61_3 C62_3 1_555 1_555
Yb7_3 O24_5 1_555 1_555
O26_5 C75_5 1_555 1_555
H47_5 C69_5 1_555 1_555
H48_5 C70_5 1_555 1_555
H50_5 C72_5 1_555 1_555
C73_5 C72_5 1_555 1_555
C69_5 C70_5 1_555 1_555
C73_5 C75_5 1_555 1_555
O8_6 Yb8_3 1_555 1_555
O9_6 C36_6 1_555 1_555
O10_6 Yb8_3 1_555 1_555
C25_6 O23_3 1_555 1_555
C26_6 C25_6 1_555 1_555
C27_6 C26_6 1_555 1_555
H15_6 C27_6 1_555 1_555
C28_6 C27_6 1_555 1_555
H16_6 C28_6 1_555 1_555
C29_6 C28_6 1_555 1_555
C30_6 C29_6 1_555 1_555
H17_6 C30_6 1_555 1_555
C31_6 C26_6 1_555 1_555
H18_6 C31_6 1_555 1_555
C32_6 C29_6 1_555 1_555
H19_6 C32_6 1_555 1_555
C33_6 C32_6 1_555 1_555
H20_6 C33_6 1_555 1_555
C34_6 C33_6 1_555 1_555
C35_6 C34_6 1_555 1_555
H21_6 C35_6 1_555 1_555
C36_6 C34_6 1_555 1_555
O12_6 Yb8_3 1_555 1_555
O15_6 Yb8_3 1_555 1_555
O16_6 Yb8_3 1_555 1_555
O25_6 Yb8_3 1_555 1_555
O27_6 Yb8_3 1_555 1_555
H55_6 C77_6 1_555 1_555
H56_6 C77_6 1_555 1_555
H57_6 C77_6 1_555 1_555
O8_6 C25_6 1_555 1_555
C30_6 C31_6 1_555 1_555
H25_6 C38_6 1_555 1_555
H26_6 C38_6 1_555 1_555
H27_6 C38_6 1_555 1_555
Yb5 O22_6 1_555 1_555
Yb7_4 O24_6 1_555 1_555
O22_6 C64_6 1_555 1_555
O24_6 C64_6 1_555 1_555
O26_6 C75_6 1_555 1_555
C64_6 C65_6 1_555 1_555
C65_6 C66_6 1_555 1_555
C66_6 H45_6 1_555 1_555
C67_6 C66_6 1_555 1_555
H46_6 C67_6 1_555 1_555
C68_6 C67_6 1_555 1_555
C69_6 C68_6 1_555 1_555
H47_6 C69_6 1_555 1_555
C70_6 C65_6 1_555 1_555
H48_6 C70_6 1_555 1_555
C71_6 C68_6 1_555 1_555
H49_6 C71_6 1_555 1_555
C72_6 C71_6 1_555 1_555
H50_6 C72_6 1_555 1_555
C73_6 C72_6 1_555 1_555
H51_6 C74_6 1_555 1_555
C69_6 C70_6 1_555 1_555
C73_6 C74_6 1_555 1_555
C73_6 C75_6 1_555 1_555
Yb4_4 O17_4 1_555 1_555
Yb8_4 O11_4 1_555 1_555
Yb9_2 O14_4 1_555 1_555
O11_4 C40_4 1_555 1_555
O14_4 C63_4 1_555 1_555
O17_4 C63_4 1_555 1_555
O20_3 C50_3 1_555 1_555
O21_3 C53_4 1_555 1_555
C41_4 C40_4 1_555 1_555
C42_4 C41_4 1_555 1_555
H31_4 C42_4 1_555 1_555
C43_4 C42_4 1_555 1_555
H32_4 C43_4 1_555 1_555
C44_4 C43_4 1_555 1_555
C45_4 C44_4 1_555 1_555
H33_4 C45_4 1_555 1_555
C46_4 C41_4 1_555 1_555
C47_4 C44_4 1_555 1_555
H35_4 C47_4 1_555 1_555
C48_4 C47_4 1_555 1_555
H36_4 C48_4 1_555 1_555
C49_4 C48_4 1_555 1_555
C50_3 C49_4 1_555 1_555
C51_3 C50_3 1_555 1_555
H37_4 C51_3 1_555 1_555
C52_4 C51_3 1_555 1_555
C53_4 C52_4 1_555 1_555
C54_4 C49_4 1_555 1_555
H38_4 C54_4 1_555 1_555
C55_4 C52_4 1_555 1_555
H39_4 C55_4 1_555 1_555
C56_4 C55_4 1_555 1_555
H40_4 C56_4 1_555 1_555
C57_4 C56_4 1_555 1_555
C58_4 C57_4 1_555 1_555
H41_4 C58_4 1_555 1_555
C59_4 C58_4 1_555 1_555
H42_4 C59_4 1_555 1_555
C60_4 C59_4 1_555 1_555
C61_4 C60_4 1_555 1_555
H43_4 C61_4 1_555 1_555
C62_4 C57_4 1_555 1_555
H44_4 C62_4 1_555 1_555
C63_4 C60_4 1_555 1_555
C78_4 O21_3 1_555 1_555
H58_3 C78_4 1_555 1_555
H59_4 C78_4 1_555 1_555
H60_4 C78_4 1_555 1_555
C45_4 C46_4 1_555 1_555
C53_4 C54_4 1_555 1_555
C61_4 C62_4 1_555 1_555
Yb1_4 O2_4 1_555 1_555
Yb2_4 O1_4 1_555 1_555
O1_4 C1_4 1_555 1_555
O2_4 C1_4 1_555 1_555
O3_4 C24_4 1_555 1_555
O4_4 C24_4 1_555 1_555
O5_4 C11_4 1_555 1_555
O6_4 C14_4 1_555 1_555
O7_4 Yb1_4 1_555 1_555
O8_7 Yb2_4 1_555 1_555
O9_7 C36_7 1_555 1_555
O10_7 Yb2_4 1_555 1_555
C1_4 C2_4 1_555 1_555
C2_4 C3_4 1_555 1_555
C3_4 H1_4 1_555 1_555
C4_4 C3_4 1_555 1_555
H2_4 C4_4 1_555 1_555
C5_4 C4_4 1_555 1_555
C6_4 C5_4 1_555 1_555
H3_4 C6_4 1_555 1_555
C7_4 C2_4 1_555 1_555
H4_4 C7_4 1_555 1_555
C8_4 C5_4 1_555 1_555
H5_4 C8_4 1_555 1_555
C9_4 C8_4 1_555 1_555
H6_4 C9_4 1_555 1_555
C10_4 C9_4 1_555 1_555
C11_4 C10_4 1_555 1_555
C12_4 C11_4 1_555 1_555
H7_4 C12_4 1_555 1_555
C13_4 C12_4 1_555 1_555
C14_4 C13_4 1_555 1_555
C15_4 C10_4 1_555 1_555
H8_4 C15_4 1_555 1_555
C16_4 C13_4 1_555 1_555
H9_4 C16_4 1_555 1_555
C17_4 C16_4 1_555 1_555
H10_4 C17_4 1_555 1_555
C18_4 C17_4 1_555 1_555
C19_4 C18_4 1_555 1_555
H11_4 C19_4 1_555 1_555
C20_4 C19_4 1_555 1_555
H12_4 C20_4 1_555 1_555
C21_4 C20_4 1_555 1_555
C22_4 C21_4 1_555 1_555
H13_4 C22_4 1_555 1_555
C23_4 C18_4 1_555 1_555
H14_4 C23_4 1_555 1_555
C24_4 C21_4 1_555 1_555
C25_7 O7_4 1_555 1_555
C26_7 C25_7 1_555 1_555
C27_7 C26_7 1_555 1_555
H15_7 C27_7 1_555 1_555
C28_7 C27_7 1_555 1_555
H16_7 C28_7 1_555 1_555
C29_7 C28_7 1_555 1_555
C30_7 C29_7 1_555 1_555
H17_7 C30_7 1_555 1_555
C31_7 C26_7 1_555 1_555
H18_7 C31_7 1_555 1_555
C32_7 C29_7 1_555 1_555
H19_7 C32_7 1_555 1_555
C33_7 C32_7 1_555 1_555
H20_7 C33_7 1_555 1_555
C34_7 C33_7 1_555 1_555
C35_7 C34_7 1_555 1_555
H21_7 C35_7 1_555 1_555
C36_7 C34_7 1_555 1_555
C37_4 O5_4 1_555 1_555
H22_4 C37_4 1_555 1_555
H23_4 C37_4 1_555 1_555
H24_4 C37_4 1_555 1_555
C38_7 O9_7 1_555 1_555
H25_7 C38_7 1_555 1_555
H26_7 C38_7 1_555 1_555
H27_7 C38_7 1_555 1_555
C39_4 O6_4 1_555 1_555
H28_4 C39_4 1_555 1_555
H29_4 C39_4 1_555 1_555
H30_4 C39_4 1_555 1_555
Yb4_3 O4_4 1_555 1_555
Yb3_2 O22_7 1_555 1_555
Yb6_2 O3_4 1_555 1_555
Yb7_3 O24_7 1_555 1_555
O12_7 Yb2_4 1_555 1_555
O13_4 Yb1_4 1_555 1_555
O15_7 Yb2_4 1_555 1_555
O16_7 Yb2_4 1_555 1_555
O18_4 Yb1_4 1_555 1_555
O19_4 Yb1_4 1_555 1_555
O22_7 C64_7 1_555 1_555
O23_4 Yb1_4 1_555 1_555
O24_7 C64_7 1_555 1_555
O25_7 Yb2_4 1_555 1_555
O26_7 C75_7 1_555 1_555
O27_7 Yb2_4 1_555 1_555
C64_7 C65_7 1_555 1_555
C65_7 C66_7 1_555 1_555
C66_7 H45_7 1_555 1_555
C67_7 C66_7 1_555 1_555
H46_7 C67_7 1_555 1_555
C68_7 C67_7 1_555 1_555
C69_7 C68_7 1_555 1_555
H47_7 C69_7 1_555 1_555
C70_7 C65_7 1_555 1_555
H48_7 C70_7 1_555 1_555
C71_7 C68_7 1_555 1_555
H49_7 C71_7 1_555 1_555
C72_7 C71_7 1_555 1_555
H50_7 C72_7 1_555 1_555
C73_7 C72_7 1_555 1_555
C74_7 C36_7 1_555 1_555
H51_7 C74_7 1_555 1_555
C75_7 C35_7 1_555 1_555
H52_4 C76_4 1_555 1_555
H53_4 C76_4 1_555 1_555
C77_7 O26_7 1_555 1_555
H55_7 C77_7 1_555 1_555
H56_7 C77_7 1_555 1_555
H57_7 C77_7 1_555 1_555
O8_7 C25_7 1_555 1_555
C6_4 C7_4 1_555 1_555
C14_4 C15_4 1_555 1_555
C22_4 C23_4 1_555 1_555
C30_7 C31_7 1_555 1_555
C69_7 C70_7 1_555 1_555
C73_7 C74_7 1_555 1_555
C73_7 C75_7 1_555 1_555
O8_8 Yb8_4 1_555 1_555
O9_8 C36_8 1_555 1_555
O10_8 Yb8_4 1_555 1_555
H17_8 C30_8 1_555 1_555
H18_8 C31_8 1_555 1_555
H20_8 C33_8 1_555 1_555
C34_8 C33_8 1_555 1_555
C36_8 C34_8 1_555 1_555
C38_8 O9_8 1_555 1_555
H25_8 C38_8 1_555 1_555
H26_8 C38_8 1_555 1_555
H27_8 C38_8 1_555 1_555
Yb5_2 O22_8 1_555 1_555
O12_8 Yb8_4 1_555 1_555
O15_8 Yb8_4 1_555 1_555
O16_8 Yb8_4 1_555 1_555
O22_8 C64_8 1_555 1_555
O25_8 Yb8_4 1_555 1_555
O27_8 Yb8_4 1_555 1_555
C64_8 C65_8 1_555 1_555
C65_8 C66_8 1_555 1_555
C66_8 H45_8 1_555 1_555
C67_8 C66_8 1_555 1_555
H46_8 C67_8 1_555 1_555
C68_8 C67_8 1_555 1_555
C71_8 C68_8 1_555 1_555
H49_8 C71_8 1_555 1_555
C74_8 C36_8 1_555 1_555
H51_8 C74_8 1_555 1_555
C30_8 C31_8 1_555 1_555
C25_8 O23_4 1_555 1_555
C26_8 C25_8 1_555 1_555
C27_8 C26_8 1_555 1_555
H15_8 C27_8 1_555 1_555
C28_8 C27_8 1_555 1_555
H16_8 C28_8 1_555 1_555
C29_8 C28_8 1_555 1_555
C32_8 C29_8 1_555 1_555
H19_8 C32_8 1_555 1_555
H21_8 C35_8 1_555 1_555
Yb7_4 O24_8 1_555 1_555
O26_8 C75_8 1_555 1_555
H47_8 C69_8 1_555 1_555
H48_8 C70_8 1_555 1_555
H50_8 C72_8 1_555 1_555
C73_8 C72_8 1_555 1_555
C75_8 C35_8 1_555 1_555
C77_8 O26_8 1_555 1_555
H55_8 C77_8 1_555 1_555
H56_8 C77_8 1_555 1_555
H57_8 C77_8 1_555 1_555
C69_8 C70_8 1_555 1_555
C73_8 C75_8 1_555 1_555
H21_9 C35_9 1_555 1_555
Yb4 O17_5 1_555 1_555
O17_5 C63_5 1_555 1_555
O20_4 C50_4 1_555 1_555
C51_4 C50_4 1_555 1_555
H37_5 C51_4 1_555 1_555
C52_5 C51_4 1_555 1_555
C55_5 C52_5 1_555 1_555
H39_5 C55_5 1_555 1_555
C56_5 C55_5 1_555 1_555
H40_5 C56_5 1_555 1_555
C57_5 C56_5 1_555 1_555
C58_5 C57_5 1_555 1_555
C61_5 C60_5 1_555 1_555
H43_5 C61_5 1_555 1_555
C62_5 C57_5 1_555 1_555
H44_5 C62_5 1_555 1_555
C63_5 C60_5 1_555 1_555
C76_5 O20_4 1_555 1_555
H52_5 C76_5 1_555 1_555
H53_5 C76_5 1_555 1_555
H54_4 C76_5 1_555 1_555
H55_9 C77_9 1_555 1_555
H56_9 C77_9 1_555 1_555
H57_9 C77_9 1_555 1_555
C61_5 C62_5 1_555 1_555
Yb5 O22_9 1_555 1_555
Yb9 O24_9 1_555 1_555
O22_9 C64_9 1_555 1_555
O24_9 C64_9 1_555 1_555
O26_9 C75_9 1_555 1_555
C64_9 C65_9 1_555 1_555
C65_9 C66_9 1_555 1_555
C66_9 H45_9 1_555 1_555
C67_9 C66_9 1_555 1_555
H46_9 C67_9 1_555 1_555
C68_9 C67_9 1_555 1_555
C69_9 C68_9 1_555 1_555
H47_9 C69_9 1_555 1_555
C70_9 C65_9 1_555 1_555
H48_9 C70_9 1_555 1_555
C71_9 C68_9 1_555 1_555
H49_9 C71_9 1_555 1_555
C72_9 C71_9 1_555 1_555
H50_9 C72_9 1_555 1_555
C73_9 C72_9 1_555 1_555
C69_9 C70_9 1_555 1_555
C73_9 C75_9 1_555 1_555
Yb1_5 O2_5 1_555 1_555
O12_3 C1_5 1_555 1_555
O2_5 C1_5 1_555 1_555
O3_5 C24_5 1_555 1_555
O4_5 C24_5 1_555 1_555
O5_5 C11_5 1_555 1_555
O6_5 C14_5 1_555 1_555
O7_5 Yb1_5 1_555 1_555
O9_9 C36_9 1_555 1_555
C1_5 C2_5 1_555 1_555
C2_5 C3_5 1_555 1_555
C3_5 H1_5 1_555 1_555
C4_5 C3_5 1_555 1_555
H2_5 C4_5 1_555 1_555
C5_5 C4_5 1_555 1_555
C6_5 C5_5 1_555 1_555
H3_5 C6_5 1_555 1_555
C7_5 C2_5 1_555 1_555
H4_5 C7_5 1_555 1_555
C8_5 C5_5 1_555 1_555
H5_5 C8_5 1_555 1_555
C9_5 C8_5 1_555 1_555
H6_5 C9_5 1_555 1_555
C10_5 C9_5 1_555 1_555
C11_5 C10_5 1_555 1_555
C12_5 C11_5 1_555 1_555
H7_5 C12_5 1_555 1_555
C13_5 C12_5 1_555 1_555
C14_5 C13_5 1_555 1_555
C15_5 C10_5 1_555 1_555
H8_5 C15_5 1_555 1_555
C16_5 C13_5 1_555 1_555
H9_5 C16_5 1_555 1_555
C17_5 C16_5 1_555 1_555
H10_5 C17_5 1_555 1_555
C18_5 C17_5 1_555 1_555
C19_5 C18_5 1_555 1_555
H11_5 C19_5 1_555 1_555
C20_5 C19_5 1_555 1_555
H12_5 C20_5 1_555 1_555
C21_5 C20_5 1_555 1_555
C22_5 C21_5 1_555 1_555
H13_5 C22_5 1_555 1_555
C23_5 C18_5 1_555 1_555
H14_5 C23_5 1_555 1_555
C24_5 C21_5 1_555 1_555
C25_9 O7_5 1_555 1_555
C26_9 C25_9 1_555 1_555
C27_9 C26_9 1_555 1_555
H15_9 C27_9 1_555 1_555
C28_9 C27_9 1_555 1_555
H16_9 C28_9 1_555 1_555
C29_9 C28_9 1_555 1_555
C30_9 C29_9 1_555 1_555
H17_9 C30_9 1_555 1_555
C31_9 C26_9 1_555 1_555
H18_9 C31_9 1_555 1_555
C32_9 C29_9 1_555 1_555
H19_9 C32_9 1_555 1_555
C33_9 C32_9 1_555 1_555
H20_9 C33_9 1_555 1_555
C34_9 C33_9 1_555 1_555
C36_9 C34_9 1_555 1_555
C37_5 O5_5 1_555 1_555
H22_5 C37_5 1_555 1_555
H23_5 C37_5 1_555 1_555
H24_5 C37_5 1_555 1_555
C39_5 O6_5 1_555 1_555
H28_5 C39_5 1_555 1_555
H29_5 C39_5 1_555 1_555
H30_5 C39_5 1_555 1_555
Yb4_2 O4_5 1_555 1_555
Yb7_2 O3_5 1_555 1_555
O12_4 C40_5 1_555 1_555
O13_5 Yb1_5 1_555 1_555
O18_5 Yb1_5 1_555 1_555
O19_5 Yb1_5 1_555 1_555
O23_5 Yb1_5 1_555 1_555
C40_5 O13_5 1_555 1_555
C41_5 C40_5 1_555 1_555
C42_5 C41_5 1_555 1_555
H31_5 C42_5 1_555 1_555
C43_5 C42_5 1_555 1_555
H32_5 C43_5 1_555 1_555
C44_5 C43_5 1_555 1_555
C45_5 C44_5 1_555 1_555
H33_5 C45_5 1_555 1_555
C46_5 C41_5 1_555 1_555
H34_5 C46_5 1_555 1_555
C47_5 C44_5 1_555 1_555
H35_5 C47_5 1_555 1_555
C48_5 C47_5 1_555 1_555
H36_5 C48_5 1_555 1_555
C49_5 C48_5 1_555 1_555
C54_5 C49_5 1_555 1_555
H38_5 C54_5 1_555 1_555
O25_3 C25_9 1_555 1_555
C6_5 C7_5 1_555 1_555
C14_5 C15_5 1_555 1_555
C22_5 C23_5 1_555 1_555
C30_9 C31_9 1_555 1_555
C45_5 C46_5 1_555 1_555
C53_5 C54_5 1_555 1_555
H25_9 C38_9 1_555 1_555
H26_9 C38_9 1_555 1_555
H27_9 C38_9 1_555 1_555
H51_9 C74_9 1_555 1_555
Yb7 O14_5 1_555 1_555
H42_5 C59_5 1_555 1_555
O9_10 C36_10 1_555 1_555
C25_10 O23_5 1_555 1_555
C26_10 C25_10 1_555 1_555
C27_10 C26_10 1_555 1_555
H15_10 C27_10 1_555 1_555
C28_10 C27_10 1_555 1_555
H16_10 C28_10 1_555 1_555
C29_10 C28_10 1_555 1_555
C30_10 C29_10 1_555 1_555
H17_10 C30_10 1_555 1_555
C31_10 C26_10 1_555 1_555
H18_10 C31_10 1_555 1_555
C32_10 C29_10 1_555 1_555
H19_10 C32_10 1_555 1_555
C33_10 C32_10 1_555 1_555
H20_10 C33_10 1_555 1_555
C34_10 C33_10 1_555 1_555
C35_10 C34_10 1_555 1_555
H21_10 C35_10 1_555 1_555
C36_10 C34_10 1_555 1_555
H55_10 C77_10 1_555 1_555
H56_10 C77_10 1_555 1_555
H57_10 C77_10 1_555 1_555
O25_4 C25_10 1_555 1_555
C30_10 C31_10 1_555 1_555
H25_10 C38_10 1_555 1_555
H26_10 C38_10 1_555 1_555
H27_10 C38_10 1_555 1_555
Yb3 O22_10 1_555 1_555
Yb6 O24_10 1_555 1_555
O22_10 C64_10 1_555 1_555
O24_10 C64_10 1_555 1_555
O26_10 C75_10 1_555 1_555
C64_10 C65_10 1_555 1_555
C65_10 C66_10 1_555 1_555
C66_10 H45_10 1_555 1_555
C67_10 C66_10 1_555 1_555
H46_10 C67_10 1_555 1_555
C68_10 C67_10 1_555 1_555
C69_10 C68_10 1_555 1_555
H47_10 C69_10 1_555 1_555
C70_10 C65_10 1_555 1_555
H48_10 C70_10 1_555 1_555
C71_10 C68_10 1_555 1_555
H49_10 C71_10 1_555 1_555
C72_10 C71_10 1_555 1_555
H50_10 C72_10 1_555 1_555
C73_10 C72_10 1_555 1_555
H51_10 C74_10 1_555 1_555
C69_10 C70_10 1_555 1_555
C73_10 C74_10 1_555 1_555
C73_10 C75_10 1_555 1_555
H21_11 C35_11 1_555 1_555
Yb5_2 O22_11 1_555 1_555
Yb4_3 O17_6 1_555 1_555
Yb9 O24_11 1_555 1_555
Yb7 O14_6 1_555 1_555
O14_6 C63_6 1_555 1_555
O17_6 C63_6 1_555 1_555
O20_5 C50_5 1_555 1_555
O22_11 C64_11 1_555 1_555
O24_11 C64_11 1_555 1_555
O26_11 C75_11 1_555 1_555
C51_5 C50_5 1_555 1_555
H37_6 C51_5 1_555 1_555
C52_6 C51_5 1_555 1_555
C55_6 C52_6 1_555 1_555
H39_6 C55_6 1_555 1_555
C56_6 C55_6 1_555 1_555
H40_6 C56_6 1_555 1_555
C57_6 C56_6 1_555 1_555
C58_6 C57_6 1_555 1_555
H41_6 C58_6 1_555 1_555
C59_6 C58_6 1_555 1_555
H42_6 C59_6 1_555 1_555
C60_6 C59_6 1_555 1_555
C61_6 C60_6 1_555 1_555
H43_6 C61_6 1_555 1_555
C62_6 C57_6 1_555 1_555
H44_6 C62_6 1_555 1_555
C63_6 C60_6 1_555 1_555
C64_11 C65_11 1_555 1_555
C65_11 C66_11 1_555 1_555
C66_11 H45_11 1_555 1_555
C67_11 C66_11 1_555 1_555
H46_11 C67_11 1_555 1_555
C68_11 C67_11 1_555 1_555
C69_11 C68_11 1_555 1_555
H47_11 C69_11 1_555 1_555
C70_11 C65_11 1_555 1_555
H48_11 C70_11 1_555 1_555
C71_11 C68_11 1_555 1_555
H49_11 C71_11 1_555 1_555
C72_11 C71_11 1_555 1_555
H50_11 C72_11 1_555 1_555
C73_11 C72_11 1_555 1_555
C75_11 C35_11 1_555 1_555
C76_6 O20_5 1_555 1_555
H52_6 C76_6 1_555 1_555
H53_6 C76_6 1_555 1_555
H54_5 C76_6 1_555 1_555
C77_11 O26_11 1_555 1_555
H55_11 C77_11 1_555 1_555
H56_11 C77_11 1_555 1_555
H57_11 C77_11 1_555 1_555
C61_6 C62_6 1_555 1_555
C69_11 C70_11 1_555 1_555
C73_11 C75_11 1_555 1_555
Yb1_6 O2_6 1_555 1_555
O12 C1_6 1_555 1_555
O2_6 C1_6 1_555 1_555
O4_6 C24_6 1_555 1_555
O5_6 C11_6 1_555 1_555
O7_6 Yb1_6 1_555 1_555
O9_11 C36_11 1_555 1_555
C1_6 C2_6 1_555 1_555
C2_6 C3_6 1_555 1_555
C3_6 H1_6 1_555 1_555
C4_6 C3_6 1_555 1_555
H2_6 C4_6 1_555 1_555
C5_6 C4_6 1_555 1_555
C6_6 C5_6 1_555 1_555
H3_6 C6_6 1_555 1_555
C7_6 C2_6 1_555 1_555
H4_6 C7_6 1_555 1_555
C8_6 C5_6 1_555 1_555
H5_6 C8_6 1_555 1_555
C9_6 C8_6 1_555 1_555
H6_6 C9_6 1_555 1_555
C10_6 C9_6 1_555 1_555
C11_6 C10_6 1_555 1_555
C12_6 C11_6 1_555 1_555
H7_6 C12_6 1_555 1_555
C13_6 C12_6 1_555 1_555
C14_6 C13_6 1_555 1_555
C15_6 C10_6 1_555 1_555
H8_6 C15_6 1_555 1_555
C16_6 C13_6 1_555 1_555
H9_6 C16_6 1_555 1_555
C17_6 C16_6 1_555 1_555
H10_6 C17_6 1_555 1_555
C18_6 C17_6 1_555 1_555
C19_6 C18_6 1_555 1_555
C22_6 C21_6 1_555 1_555
H13_6 C22_6 1_555 1_555
C23_6 C18_6 1_555 1_555
H14_6 C23_6 1_555 1_555
C24_6 C21_6 1_555 1_555
C25_11 O7_6 1_555 1_555
C26_11 C25_11 1_555 1_555
C27_11 C26_11 1_555 1_555
H15_11 C27_11 1_555 1_555
C28_11 C27_11 1_555 1_555
H16_11 C28_11 1_555 1_555
C29_11 C28_11 1_555 1_555
C30_11 C29_11 1_555 1_555
H17_11 C30_11 1_555 1_555
C31_11 C26_11 1_555 1_555
H18_11 C31_11 1_555 1_555
C32_11 C29_11 1_555 1_555
H19_11 C32_11 1_555 1_555
C33_11 C32_11 1_555 1_555
H20_11 C33_11 1_555 1_555
C34_11 C33_11 1_555 1_555
C36_11 C34_11 1_555 1_555
C37_6 O5_6 1_555 1_555
H22_6 C37_6 1_555 1_555
H23_6 C37_6 1_555 1_555
H24_6 C37_6 1_555 1_555
C38_11 O9_11 1_555 1_555
H25_11 C38_11 1_555 1_555
H26_11 C38_11 1_555 1_555
H27_11 C38_11 1_555 1_555
Yb4_4 O4_6 1_555 1_555
O12_2 C40_6 1_555 1_555
O13_6 Yb1_6 1_555 1_555
O18_6 Yb1_6 1_555 1_555
O19_6 Yb1_6 1_555 1_555
O21_4 C53_6 1_555 1_555
O23_6 Yb1_6 1_555 1_555
C40_6 O13_6 1_555 1_555
C41_6 C40_6 1_555 1_555
C42_6 C41_6 1_555 1_555
H31_6 C42_6 1_555 1_555
C43_6 C42_6 1_555 1_555
H32_6 C43_6 1_555 1_555
C44_6 C43_6 1_555 1_555
C45_6 C44_6 1_555 1_555
H33_6 C45_6 1_555 1_555
C46_6 C41_6 1_555 1_555
H34_6 C46_6 1_555 1_555
C47_6 C44_6 1_555 1_555
H35_6 C47_6 1_555 1_555
C48_6 C47_6 1_555 1_555
H36_6 C48_6 1_555 1_555
C49_6 C48_6 1_555 1_555
C54_6 C49_6 1_555 1_555
H38_6 C54_6 1_555 1_555
C74_11 C36_11 1_555 1_555
H51_11 C74_11 1_555 1_555
C78_5 O21_4 1_555 1_555
H58_4 C78_5 1_555 1_555
H59_5 C78_5 1_555 1_555
H60_5 C78_5 1_555 1_555
O25 C25_11 1_555 1_555
C6_6 C7_6 1_555 1_555
C14_6 C15_6 1_555 1_555
C22_6 C23_6 1_555 1_555
C30_11 C31_11 1_555 1_555
C45_6 C46_6 1_555 1_555
C53_6 C54_6 1_555 1_555
H12_6 C20_6 1_555 1_555
C39_6 O6_6 1_555 1_555
H28_6 C39_6 1_555 1_555
H29_6 C39_6 1_555 1_555
H30_6 C39_6 1_555 1_555
Yb7_2 O3_6 1_555 1_555
O9_12 C36_12 1_555 1_555
C25_12 O23_6 1_555 1_555
C26_12 C25_12 1_555 1_555
C27_12 C26_12 1_555 1_555
H15_12 C27_12 1_555 1_555
C28_12 C27_12 1_555 1_555
H16_12 C28_12 1_555 1_555
C29_12 C28_12 1_555 1_555
C30_12 C29_12 1_555 1_555
H17_12 C30_12 1_555 1_555
C31_12 C26_12 1_555 1_555
H18_12 C31_12 1_555 1_555
C32_12 C29_12 1_555 1_555
H19_12 C32_12 1_555 1_555
C33_12 C32_12 1_555 1_555
H20_12 C33_12 1_555 1_555
C34_12 C33_12 1_555 1_555
C35_12 C34_12 1_555 1_555
H21_12 C35_12 1_555 1_555
C36_12 C34_12 1_555 1_555
C38_12 O9_12 1_555 1_555
H25_12 C38_12 1_555 1_555
H26_12 C38_12 1_555 1_555
H27_12 C38_12 1_555 1_555
Yb3_2 O22_12 1_555 1_555
Yb6 O24_12 1_555 1_555
O22_12 C64_12 1_555 1_555
O24_12 C64_12 1_555 1_555
O26_12 C75_12 1_555 1_555
C64_12 C65_12 1_555 1_555
C65_12 C66_12 1_555 1_555
C66_12 H45_12 1_555 1_555
C67_12 C66_12 1_555 1_555
H46_12 C67_12 1_555 1_555
C68_12 C67_12 1_555 1_555
C69_12 C68_12 1_555 1_555
H47_12 C69_12 1_555 1_555
C70_12 C65_12 1_555 1_555
H48_12 C70_12 1_555 1_555
C71_12 C68_12 1_555 1_555
H49_12 C71_12 1_555 1_555
C72_12 C71_12 1_555 1_555
H50_12 C72_12 1_555 1_555
C73_12 C72_12 1_555 1_555
C74_12 C36_12 1_555 1_555
H51_12 C74_12 1_555 1_555
C75_12 C35_12 1_555 1_555
C77_12 O26_12 1_555 1_555
H55_12 C77_12 1_555 1_555
H56_12 C77_12 1_555 1_555
H57_12 C77_12 1_555 1_555
O25_2 C25_12 1_555 1_555
C30_12 C31_12 1_555 1_555
C69_12 C70_12 1_555 1_555
C73_12 C74_12 1_555 1_555
C73_12 C75_12 1_555 1_555
Yb1_7 O2_7 1_555 1_555
O12_7 C1_7 1_555 1_555
O2_7 C1_7 1_555 1_555
O3_7 C24_7 1_555 1_555
O4_7 C24_7 1_555 1_555
O5_7 C11_7 1_555 1_555
O6_7 C14_7 1_555 1_555
O7_7 Yb1_7 1_555 1_555
O9_13 C36_13 1_555 1_555
C1_7 C2_7 1_555 1_555
C2_7 C3_7 1_555 1_555
C3_7 H1_7 1_555 1_555
C4_7 C3_7 1_555 1_555
H2_7 C4_7 1_555 1_555
C5_7 C4_7 1_555 1_555
C6_7 C5_7 1_555 1_555
H3_7 C6_7 1_555 1_555
C7_7 C2_7 1_555 1_555
H4_7 C7_7 1_555 1_555
C8_7 C5_7 1_555 1_555
H5_7 C8_7 1_555 1_555
C9_7 C8_7 1_555 1_555
H6_7 C9_7 1_555 1_555
C10_7 C9_7 1_555 1_555
C11_7 C10_7 1_555 1_555
C12_7 C11_7 1_555 1_555
H7_7 C12_7 1_555 1_555
C13_7 C12_7 1_555 1_555
C14_7 C13_7 1_555 1_555
C15_7 C10_7 1_555 1_555
H8_7 C15_7 1_555 1_555
C16_7 C13_7 1_555 1_555
H9_7 C16_7 1_555 1_555
C17_7 C16_7 1_555 1_555
H10_7 C17_7 1_555 1_555
C18_7 C17_7 1_555 1_555
C19_7 C18_7 1_555 1_555
H11_7 C19_7 1_555 1_555
C20_7 C19_7 1_555 1_555
H12_7 C20_7 1_555 1_555
C21_7 C20_7 1_555 1_555
C22_7 C21_7 1_555 1_555
H13_7 C22_7 1_555 1_555
C23_7 C18_7 1_555 1_555
H14_7 C23_7 1_555 1_555
C24_7 C21_7 1_555 1_555
C25_13 O7_7 1_555 1_555
C26_13 C25_13 1_555 1_555
C27_13 C26_13 1_555 1_555
H15_13 C27_13 1_555 1_555
C28_13 C27_13 1_555 1_555
H16_13 C28_13 1_555 1_555
C29_13 C28_13 1_555 1_555
C30_13 C29_13 1_555 1_555
H17_13 C30_13 1_555 1_555
C31_13 C26_13 1_555 1_555
H18_13 C31_13 1_555 1_555
C32_13 C29_13 1_555 1_555
H19_13 C32_13 1_555 1_555
C33_13 C32_13 1_555 1_555
H20_13 C33_13 1_555 1_555
C34_13 C33_13 1_555 1_555
C35_13 C34_13 1_555 1_555
H21_13 C35_13 1_555 1_555
C36_13 C34_13 1_555 1_555
C37_7 O5_7 1_555 1_555
H22_7 C37_7 1_555 1_555
H23_7 C37_7 1_555 1_555
H24_7 C37_7 1_555 1_555
C38_13 O9_13 1_555 1_555
H25_13 C38_13 1_555 1_555
H26_13 C38_13 1_555 1_555
H27_13 C38_13 1_555 1_555
C39_7 O6_7 1_555 1_555
H28_7 C39_7 1_555 1_555
H29_7 C39_7 1_555 1_555
H30_7 C39_7 1_555 1_555
Yb5 O4_7 1_555 1_555
Yb4_2 O22_13 1_555 1_555
Yb3 O17_7 1_555 1_555
Yb7_4 O3_7 1_555 1_555
Yb9_2 O24_13 1_555 1_555
O12_8 C40_7 1_555 1_555
O13_7 Yb1_7 1_555 1_555
O17_7 C63_7 1_555 1_555
O18_7 Yb1_7 1_555 1_555
O19_7 Yb1_7 1_555 1_555
O20_6 C50_6 1_555 1_555
O22_13 C64_13 1_555 1_555
O23_7 Yb1_7 1_555 1_555
O24_13 C64_13 1_555 1_555
O26_13 C75_13 1_555 1_555
C40_7 O13_7 1_555 1_555
C41_7 C40_7 1_555 1_555
C42_7 C41_7 1_555 1_555
H31_7 C42_7 1_555 1_555
C43_7 C42_7 1_555 1_555
H32_7 C43_7 1_555 1_555
C44_7 C43_7 1_555 1_555
C45_7 C44_7 1_555 1_555
H33_7 C45_7 1_555 1_555
C46_7 C41_7 1_555 1_555
H34_7 C46_7 1_555 1_555
C47_7 C44_7 1_555 1_555
H35_7 C47_7 1_555 1_555
C48_7 C47_7 1_555 1_555
H36_7 C48_7 1_555 1_555
C49_7 C48_7 1_555 1_555
C50_6 C49_7 1_555 1_555
C51_6 C50_6 1_555 1_555
H37_7 C51_6 1_555 1_555
C52_7 C51_6 1_555 1_555
C53_7 C52_7 1_555 1_555
C54_7 C49_7 1_555 1_555
H38_7 C54_7 1_555 1_555
C55_7 C52_7 1_555 1_555
H39_7 C55_7 1_555 1_555
C56_7 C55_7 1_555 1_555
H40_7 C56_7 1_555 1_555
C57_7 C56_7 1_555 1_555
C58_7 C57_7 1_555 1_555
C61_7 C60_7 1_555 1_555
H43_7 C61_7 1_555 1_555
C62_7 C57_7 1_555 1_555
H44_7 C62_7 1_555 1_555
C63_7 C60_7 1_555 1_555
C64_13 C65_13 1_555 1_555
C65_13 C66_13 1_555 1_555
C66_13 H45_13 1_555 1_555
C67_13 C66_13 1_555 1_555
H46_13 C67_13 1_555 1_555
C68_13 C67_13 1_555 1_555
C69_13 C68_13 1_555 1_555
H47_13 C69_13 1_555 1_555
C70_13 C65_13 1_555 1_555
H48_13 C70_13 1_555 1_555
C71_13 C68_13 1_555 1_555
H49_13 C71_13 1_555 1_555
C72_13 C71_13 1_555 1_555
H50_13 C72_13 1_555 1_555
C73_13 C72_13 1_555 1_555
C74_13 C36_13 1_555 1_555
H51_13 C74_13 1_555 1_555
C75_13 C35_13 1_555 1_555
C76_7 O20_6 1_555 1_555
H52_7 C76_7 1_555 1_555
H53_7 C76_7 1_555 1_555
H54_6 C76_7 1_555 1_555
C77_13 O26_13 1_555 1_555
H55_13 C77_13 1_555 1_555
H56_13 C77_13 1_555 1_555
H57_13 C77_13 1_555 1_555
O25_7 C25_13 1_555 1_555
C6_7 C7_7 1_555 1_555
C14_7 C15_7 1_555 1_555
C22_7 C23_7 1_555 1_555
C30_13 C31_13 1_555 1_555
C45_7 C46_7 1_555 1_555
C53_7 C54_7 1_555 1_555
C61_7 C62_7 1_555 1_555
C69_13 C70_13 1_555 1_555
C73_13 C74_13 1_555 1_555
C73_13 C75_13 1_555 1_555
Yb7_3 O14_7 1_555 1_555
H42_7 C59_7 1_555 1_555
C78_6 O21_5 1_555 1_555
H58_5 C78_6 1_555 1_555
H59_6 C78_6 1_555 1_555
H60_6 C78_6 1_555 1_555
O9_14 C36_14 1_555 1_555
C25_14 O23_7 1_555 1_555
C26_14 C25_14 1_555 1_555
C27_14 C26_14 1_555 1_555
H15_14 C27_14 1_555 1_555
C28_14 C27_14 1_555 1_555
H16_14 C28_14 1_555 1_555
C29_14 C28_14 1_555 1_555
C30_14 C29_14 1_555 1_555
H17_14 C30_14 1_555 1_555
C31_14 C26_14 1_555 1_555
H18_14 C31_14 1_555 1_555
C32_14 C29_14 1_555 1_555
H19_14 C32_14 1_555 1_555
C33_14 C32_14 1_555 1_555
H20_14 C33_14 1_555 1_555
C34_14 C33_14 1_555 1_555
C35_14 C34_14 1_555 1_555
H21_14 C35_14 1_555 1_555
C36_14 C34_14 1_555 1_555
C38_14 O9_14 1_555 1_555
H25_14 C38_14 1_555 1_555
H26_14 C38_14 1_555 1_555
H27_14 C38_14 1_555 1_555
Yb4 O22_14 1_555 1_555
Yb6_2 O24_14 1_555 1_555
O22_14 C64_14 1_555 1_555
O24_14 C64_14 1_555 1_555
O26_14 C75_14 1_555 1_555
C64_14 C65_14 1_555 1_555
C65_14 C66_14 1_555 1_555
C66_14 H45_14 1_555 1_555
C67_14 C66_14 1_555 1_555
H46_14 C67_14 1_555 1_555
C68_14 C67_14 1_555 1_555
C69_14 C68_14 1_555 1_555
H47_14 C69_14 1_555 1_555
C70_14 C65_14 1_555 1_555
H48_14 C70_14 1_555 1_555
C71_14 C68_14 1_555 1_555
H49_14 C71_14 1_555 1_555
C72_14 C71_14 1_555 1_555
H50_14 C72_14 1_555 1_555
C73_14 C72_14 1_555 1_555
C74_14 C36_14 1_555 1_555
H51_14 C74_14 1_555 1_555
C75_14 C35_14 1_555 1_555
C77_14 O26_14 1_555 1_555
H55_14 C77_14 1_555 1_555
H56_14 C77_14 1_555 1_555
H57_14 C77_14 1_555 1_555
O25_8 C25_14 1_555 1_555
C30_14 C31_14 1_555 1_555
C69_14 C70_14 1_555 1_555
C73_14 C74_14 1_555 1_555
C73_14 C75_14 1_555 1_555
Yb1_8 O2_8 1_555 1_555
O12_5 C1_8 1_555 1_555
O2_8 C1_8 1_555 1_555
O5_8 C11_8 1_555 1_555
O7_8 Yb1_8 1_555 1_555
O9_15 C36_15 1_555 1_555
C1_8 C2_8 1_555 1_555
C2_8 C3_8 1_555 1_555
C3_8 H1_8 1_555 1_555
C4_8 C3_8 1_555 1_555
H2_8 C4_8 1_555 1_555
C5_8 C4_8 1_555 1_555
C6_8 C5_8 1_555 1_555
H3_8 C6_8 1_555 1_555
C7_8 C2_8 1_555 1_555
H4_8 C7_8 1_555 1_555
C8_8 C5_8 1_555 1_555
H5_8 C8_8 1_555 1_555
C9_8 C8_8 1_555 1_555
H6_8 C9_8 1_555 1_555
C10_8 C9_8 1_555 1_555
C11_8 C10_8 1_555 1_555
C12_8 C11_8 1_555 1_555
C15_8 C10_8 1_555 1_555
H8_8 C15_8 1_555 1_555
C25_15 O7_8 1_555 1_555
C26_15 C25_15 1_555 1_555
C27_15 C26_15 1_555 1_555
H15_15 C27_15 1_555 1_555
C28_15 C27_15 1_555 1_555
H16_15 C28_15 1_555 1_555
C29_15 C28_15 1_555 1_555
C30_15 C29_15 1_555 1_555
H17_15 C30_15 1_555 1_555
C31_15 C26_15 1_555 1_555
H18_15 C31_15 1_555 1_555
C32_15 C29_15 1_555 1_555
H19_15 C32_15 1_555 1_555
C33_15 C32_15 1_555 1_555
H20_15 C33_15 1_555 1_555
C34_15 C33_15 1_555 1_555
C35_15 C34_15 1_555 1_555
H21_15 C35_15 1_555 1_555
C36_15 C34_15 1_555 1_555
C37_8 O5_8 1_555 1_555
H22_8 C37_8 1_555 1_555
H23_8 C37_8 1_555 1_555
H24_8 C37_8 1_555 1_555
C38_15 O9_15 1_555 1_555
H25_15 C38_15 1_555 1_555
H26_15 C38_15 1_555 1_555
H27_15 C38_15 1_555 1_555
Yb4_4 O22_15 1_555 1_555
Yb9_2 O24_15 1_555 1_555
O12_6 C40_8 1_555 1_555
O13_8 Yb1_8 1_555 1_555
O18_8 Yb1_8 1_555 1_555
O19_8 Yb1_8 1_555 1_555
O20_7 C50_7 1_555 1_555
O22_15 C64_15 1_555 1_555
O23_8 Yb1_8 1_555 1_555
O24_15 C64_15 1_555 1_555
O26_15 C75_15 1_555 1_555
C40_8 O13_8 1_555 1_555
C41_8 C40_8 1_555 1_555
C42_8 C41_8 1_555 1_555
H31_8 C42_8 1_555 1_555
C43_8 C42_8 1_555 1_555
H32_8 C43_8 1_555 1_555
C44_8 C43_8 1_555 1_555
C45_8 C44_8 1_555 1_555
H33_8 C45_8 1_555 1_555
C46_8 C41_8 1_555 1_555
H34_8 C46_8 1_555 1_555
C47_8 C44_8 1_555 1_555
H35_8 C47_8 1_555 1_555
C48_8 C47_8 1_555 1_555
H36_8 C48_8 1_555 1_555
C49_8 C48_8 1_555 1_555
C50_7 C49_8 1_555 1_555
C51_7 C50_7 1_555 1_555
C54_8 C49_8 1_555 1_555
H38_8 C54_8 1_555 1_555
C64_15 C65_15 1_555 1_555
C65_15 C66_15 1_555 1_555
C66_15 H45_15 1_555 1_555
C67_15 C66_15 1_555 1_555
H46_15 C67_15 1_555 1_555
C68_15 C67_15 1_555 1_555
C69_15 C68_15 1_555 1_555
H47_15 C69_15 1_555 1_555
C70_15 C65_15 1_555 1_555
H48_15 C70_15 1_555 1_555
C71_15 C68_15 1_555 1_555
H49_15 C71_15 1_555 1_555
C72_15 C71_15 1_555 1_555
H50_15 C72_15 1_555 1_555
C73_15 C72_15 1_555 1_555
C74_15 C36_15 1_555 1_555
H51_15 C74_15 1_555 1_555
C75_15 C35_15 1_555 1_555
C76_8 O20_7 1_555 1_555
H52_8 C76_8 1_555 1_555
H53_8 C76_8 1_555 1_555
H54_7 C76_8 1_555 1_555
C77_15 O26_15 1_555 1_555
H55_15 C77_15 1_555 1_555
H56_15 C77_15 1_555 1_555
H57_15 C77_15 1_555 1_555
H59_7 C78_7 1_555 1_555
H60_7 C78_7 1_555 1_555
O25_5 C25_15 1_555 1_555
C6_8 C7_8 1_555 1_555
C14_8 C15_8 1_555 1_555
C30_15 C31_15 1_555 1_555
C45_8 C46_8 1_555 1_555
C53_8 C54_8 1_555 1_555
C69_15 C70_15 1_555 1_555
C73_15 C74_15 1_555 1_555
C73_15 C75_15 1_555 1_555
O4_8 C24_8 1_555 1_555
C16_8 C13_8 1_555 1_555
H9_8 C16_8 1_555 1_555
C17_8 C16_8 1_555 1_555
H10_8 C17_8 1_555 1_555
C18_8 C17_8 1_555 1_555
C19_8 C18_8 1_555 1_555
C22_8 C21_8 1_555 1_555
H13_8 C22_8 1_555 1_555
C23_8 C18_8 1_555 1_555
H14_8 C23_8 1_555 1_555
C24_8 C21_8 1_555 1_555
Yb5_2 O4_8 1_555 1_555
Yb3_2 O17_8 1_555 1_555
Yb7_3 O14_8 1_555 1_555
O14_8 C63_8 1_555 1_555
O17_8 C63_8 1_555 1_555
C55_8 C52_8 1_555 1_555
H39_8 C55_8 1_555 1_555
C56_8 C55_8 1_555 1_555
H40_8 C56_8 1_555 1_555
C57_8 C56_8 1_555 1_555
C58_8 C57_8 1_555 1_555
H41_8 C58_8 1_555 1_555
C59_8 C58_8 1_555 1_555
H42_8 C59_8 1_555 1_555
C60_8 C59_8 1_555 1_555
C61_8 C60_8 1_555 1_555
H43_8 C61_8 1_555 1_555
C62_8 C57_8 1_555 1_555
H44_8 C62_8 1_555 1_555
C63_8 C60_8 1_555 1_555
C22_8 C23_8 1_555 1_555
C61_8 C62_8 1_555 1_555
H12_8 C20_8 1_555 1_555
Yb7_4 O3_8 1_555 1_555
O9_16 C36_16 1_555 1_555
C25_16 O23_8 1_555 1_555
C26_16 C25_16 1_555 1_555
C27_16 C26_16 1_555 1_555
H15_16 C27_16 1_555 1_555
C28_16 C27_16 1_555 1_555
H16_16 C28_16 1_555 1_555
C29_16 C28_16 1_555 1_555
C30_16 C29_16 1_555 1_555
H17_16 C30_16 1_555 1_555
C31_16 C26_16 1_555 1_555
H18_16 C31_16 1_555 1_555
C32_16 C29_16 1_555 1_555
H19_16 C32_16 1_555 1_555
C33_16 C32_16 1_555 1_555
H20_16 C33_16 1_555 1_555
C34_16 C33_16 1_555 1_555
C35_16 C34_16 1_555 1_555
H21_16 C35_16 1_555 1_555
C36_16 C34_16 1_555 1_555
C38_16 O9_16 1_555 1_555
H25_16 C38_16 1_555 1_555
H26_16 C38_16 1_555 1_555
H27_16 C38_16 1_555 1_555
Yb4_3 O22_16 1_555 1_555
Yb6_2 O24_16 1_555 1_555
O22_16 C64_16 1_555 1_555
O24_16 C64_16 1_555 1_555
O26_16 C75_16 1_555 1_555
C64_16 C65_16 1_555 1_555
C65_16 C66_16 1_555 1_555
C66_16 H45_16 1_555 1_555
C67_16 C66_16 1_555 1_555
H46_16 C67_16 1_555 1_555
C68_16 C67_16 1_555 1_555
C69_16 C68_16 1_555 1_555
H47_16 C69_16 1_555 1_555
C70_16 C65_16 1_555 1_555
H48_16 C70_16 1_555 1_555
C71_16 C68_16 1_555 1_555
H49_16 C71_16 1_555 1_555
C72_16 C71_16 1_555 1_555
H50_16 C72_16 1_555 1_555
C73_16 C72_16 1_555 1_555
C74_16 C36_16 1_555 1_555
H51_16 C74_16 1_555 1_555
C75_16 C35_16 1_555 1_555
C77_16 O26_16 1_555 1_555
H55_16 C77_16 1_555 1_555
H56_16 C77_16 1_555 1_555
H57_16 C77_16 1_555 1_555
O25_6 C25_16 1_555 1_555
C30_16 C31_16 1_555 1_555
C69_16 C70_16 1_555 1_555
C73_16 C74_16 1_555 1_555
C73_16 C75_16 1_555 1_555
Yb4 O2_9 1_555 1_555
H22_9 C37_9 1_555 1_555
H23_9 C37_9 1_555 1_555
Yb6_2 O11_5 1_555 1_555
O11_5 C40_9 1_555 1_555
O13_9 Yb4 1_555 1_555
O21_7 C53_9 1_555 1_555
C40_9 O13_9 1_555 1_555
C41_9 C40_9 1_555 1_555
C42_9 C41_9 1_555 1_555
H31_9 C42_9 1_555 1_555
C43_9 C42_9 1_555 1_555
H32_9 C43_9 1_555 1_555
C44_9 C43_9 1_555 1_555
C45_9 C44_9 1_555 1_555
H33_9 C45_9 1_555 1_555
C46_9 C41_9 1_555 1_555
H34_9 C46_9 1_555 1_555
C47_9 C44_9 1_555 1_555
H35_9 C47_9 1_555 1_555
C48_9 C47_9 1_555 1_555
H36_9 C48_9 1_555 1_555
C49_9 C48_9 1_555 1_555
C54_9 C49_9 1_555 1_555
H38_9 C54_9 1_555 1_555
C78_8 O21_7 1_555 1_555
H58_7 C78_8 1_555 1_555
H59_8 C78_8 1_555 1_555
H60_8 C78_8 1_555 1_555
C45_9 C46_9 1_555 1_555
C53_9 C54_9 1_555 1_555
O16_3 C63_9 1_555 1_555
O18_5 C63_9 1_555 1_555
O20_8 C50_8 1_555 1_555
C51_8 C50_8 1_555 1_555
H37_9 C51_8 1_555 1_555
C52_9 C51_8 1_555 1_555
C55_9 C52_9 1_555 1_555
H39_9 C55_9 1_555 1_555
C56_9 C55_9 1_555 1_555
H40_9 C56_9 1_555 1_555
C57_9 C56_9 1_555 1_555
C58_9 C57_9 1_555 1_555
H41_9 C58_9 1_555 1_555
C59_9 C58_9 1_555 1_555
H42_9 C59_9 1_555 1_555
C60_9 C59_9 1_555 1_555
C61_9 C60_9 1_555 1_555
H43_9 C61_9 1_555 1_555
C62_9 C57_9 1_555 1_555
H44_9 C62_9 1_555 1_555
C63_9 C60_9 1_555 1_555
C76_9 O20_8 1_555 1_555
H52_9 C76_9 1_555 1_555
H53_9 C76_9 1_555 1_555
H54_8 C76_9 1_555 1_555
C61_9 C62_9 1_555 1_555
Yb7 O1_5 1_555 1_555
O1_5 C1_9 1_555 1_555
O15_6 C24_9 1_555 1_555
O19_3 C24_9 1_555 1_555
O5_9 C11_9 1_555 1_555
O6_9 C14_9 1_555 1_555
O10_9 Yb7 1_555 1_555
C1_9 C2_9 1_555 1_555
C2_9 C3_9 1_555 1_555
C3_9 H1_9 1_555 1_555
C4_9 C3_9 1_555 1_555
H2_9 C4_9 1_555 1_555
C5_9 C4_9 1_555 1_555
C6_9 C5_9 1_555 1_555
H3_9 C6_9 1_555 1_555
C7_9 C2_9 1_555 1_555
C8_9 C5_9 1_555 1_555
H5_9 C8_9 1_555 1_555
C9_9 C8_9 1_555 1_555
H6_9 C9_9 1_555 1_555
C10_9 C9_9 1_555 1_555
C11_9 C10_9 1_555 1_555
C12_9 C11_9 1_555 1_555
H7_9 C12_9 1_555 1_555
C13_9 C12_9 1_555 1_555
C14_9 C13_9 1_555 1_555
C15_9 C10_9 1_555 1_555
H8_9 C15_9 1_555 1_555
C16_9 C13_9 1_555 1_555
H9_9 C16_9 1_555 1_555
C17_9 C16_9 1_555 1_555
H10_9 C17_9 1_555 1_555
C18_9 C17_9 1_555 1_555
C19_9 C18_9 1_555 1_555
H11_9 C19_9 1_555 1_555
C20_9 C19_9 1_555 1_555
H12_9 C20_9 1_555 1_555
C21_9 C20_9 1_555 1_555
C22_9 C21_9 1_555 1_555
H13_9 C22_9 1_555 1_555
C23_9 C18_9 1_555 1_555
H14_9 C23_9 1_555 1_555
C24_9 C21_9 1_555 1_555
C39_8 O6_9 1_555 1_555
H28_9 C39_8 1_555 1_555
H29_8 C39_8 1_555 1_555
H30_8 C39_8 1_555 1_555
O12_9 Yb7 1_555 1_555
O27_9 Yb7 1_555 1_555
C6_9 C7_9 1_555 1_555
C14_9 C15_9 1_555 1_555
C22_9 C23_9 1_555 1_555
O10_10 Yb6_2 1_555 1_555
O12_10 Yb6_2 1_555 1_555
O27_10 Yb6_2 1_555 1_555
O16_6 C24_10 1_555 1_555
O19_8 C24_10 1_555 1_555
C16_10 C13_10 1_555 1_555
H9_10 C16_10 1_555 1_555
C17_10 C16_10 1_555 1_555
H10_10 C17_10 1_555 1_555
C18_10 C17_10 1_555 1_555
C19_10 C18_10 1_555 1_555
H11_10 C19_10 1_555 1_555
C20_10 C19_10 1_555 1_555
H12_10 C20_10 1_555 1_555
C21_10 C20_10 1_555 1_555
C22_10 C21_10 1_555 1_555
H13_10 C22_10 1_555 1_555
C23_10 C18_10 1_555 1_555
H14_10 C23_10 1_555 1_555
C24_10 C21_10 1_555 1_555
C22_10 C23_10 1_555 1_555
Yb5_2 O2_10 1_555 1_555
Yb9 O1_6 1_555 1_555
O1_6 C1_10 1_555 1_555
O2_10 C1_10 1_555 1_555
O5_10 C11_10 1_555 1_555
O10_11 Yb9 1_555 1_555
C1_10 C2_10 1_555 1_555
C2_10 C3_10 1_555 1_555
C3_10 H1_10 1_555 1_555
C4_10 C3_10 1_555 1_555
H2_10 C4_10 1_555 1_555
C5_10 C4_10 1_555 1_555
C6_10 C5_10 1_555 1_555
H3_10 C6_10 1_555 1_555
C7_10 C2_10 1_555 1_555
H4_10 C7_10 1_555 1_555
C8_10 C5_10 1_555 1_555
H5_10 C8_10 1_555 1_555
C9_10 C8_10 1_555 1_555
H6_10 C9_10 1_555 1_555
C10_10 C9_10 1_555 1_555
C11_10 C10_10 1_555 1_555
C12_10 C11_10 1_555 1_555
C15_10 C10_10 1_555 1_555
H8_10 C15_10 1_555 1_555
C37_10 O5_10 1_555 1_555
H22_10 C37_10 1_555 1_555
H23_10 C37_10 1_555 1_555
H24_10 C37_10 1_555 1_555
H29_9 C39_9 1_555 1_555
H30_9 C39_9 1_555 1_555
O12_11 Yb9 1_555 1_555
O13_10 Yb5_2 1_555 1_555
O27_11 Yb9 1_555 1_555
C6_10 C7_10 1_555 1_555
C14_10 C15_10 1_555 1_555
H52_10 C76_10 1_555 1_555
H53_10 C76_10 1_555 1_555
Yb7_4 O11_6 1_555 1_555
O11_6 C40_10 1_555 1_555
C41_10 C40_10 1_555 1_555
C42_10 C41_10 1_555 1_555
H31_10 C42_10 1_555 1_555
C43_10 C42_10 1_555 1_555
H32_10 C43_10 1_555 1_555
C44_10 C43_10 1_555 1_555
C45_10 C44_10 1_555 1_555
H33_10 C45_10 1_555 1_555
C46_10 C41_10 1_555 1_555
C47_10 C44_10 1_555 1_555
H35_10 C47_10 1_555 1_555
C48_10 C47_10 1_555 1_555
H36_10 C48_10 1_555 1_555
C49_10 C48_10 1_555 1_555
C54_10 C49_10 1_555 1_555
H38_10 C54_10 1_555 1_555
H59_9 C78_9 1_555 1_555
H60_9 C78_9 1_555 1_555
C45_10 C46_10 1_555 1_555
C53_10 C54_10 1_555 1_555
O15_3 C63_10 1_555 1_555
O18_2 C63_10 1_555 1_555
C55_10 C52_10 1_555 1_555
H39_10 C55_10 1_555 1_555
C56_10 C55_10 1_555 1_555
H40_10 C56_10 1_555 1_555
C57_10 C56_10 1_555 1_555
C58_10 C57_10 1_555 1_555
H41_10 C58_10 1_555 1_555
C59_10 C58_10 1_555 1_555
H42_10 C59_10 1_555 1_555
C60_10 C59_10 1_555 1_555
C61_10 C60_10 1_555 1_555
H43_10 C61_10 1_555 1_555
C62_10 C57_10 1_555 1_555
H44_10 C62_10 1_555 1_555
C63_10 C60_10 1_555 1_555
C61_10 C62_10 1_555 1_555
O10_12 Yb7_4 1_555 1_555
O12_12 Yb7_4 1_555 1_555
O27_12 Yb7_4 1_555 1_555
Yb3 O2_11 1_555 1_555
H22_11 C37_11 1_555 1_555
H23_11 C37_11 1_555 1_555
Yb6 O11_7 1_555 1_555
O11_7 C40_11 1_555 1_555
O13_11 Yb3 1_555 1_555
O16_7 C63_11 1_555 1_555
O18_7 C63_11 1_555 1_555
O20_9 C50_9 1_555 1_555
O21_8 C53_11 1_555 1_555
C40_11 O13_11 1_555 1_555
C41_11 C40_11 1_555 1_555
C42_11 C41_11 1_555 1_555
H31_11 C42_11 1_555 1_555
C43_11 C42_11 1_555 1_555
H32_11 C43_11 1_555 1_555
C44_11 C43_11 1_555 1_555
C45_11 C44_11 1_555 1_555
H33_11 C45_11 1_555 1_555
C46_11 C41_11 1_555 1_555
H34_11 C46_11 1_555 1_555
C47_11 C44_11 1_555 1_555
H35_11 C47_11 1_555 1_555
C48_11 C47_11 1_555 1_555
H36_11 C48_11 1_555 1_555
C49_11 C48_11 1_555 1_555
C50_9 C49_11 1_555 1_555
C51_9 C50_9 1_555 1_555
H37_11 C51_9 1_555 1_555
C52_11 C51_9 1_555 1_555
C53_11 C52_11 1_555 1_555
C54_11 C49_11 1_555 1_555
H38_11 C54_11 1_555 1_555
C55_11 C52_11 1_555 1_555
H39_11 C55_11 1_555 1_555
C56_11 C55_11 1_555 1_555
H40_11 C56_11 1_555 1_555
C57_11 C56_11 1_555 1_555
C58_11 C57_11 1_555 1_555
H41_11 C58_11 1_555 1_555
C59_11 C58_11 1_555 1_555
H42_11 C59_11 1_555 1_555
C60_11 C59_11 1_555 1_555
C61_11 C60_11 1_555 1_555
H43_11 C61_11 1_555 1_555
C62_11 C57_11 1_555 1_555
H44_11 C62_11 1_555 1_555
C63_11 C60_11 1_555 1_555
C76_11 O20_9 1_555 1_555
H52_11 C76_11 1_555 1_555
H53_11 C76_11 1_555 1_555
H54_9 C76_11 1_555 1_555
C78_10 O21_8 1_555 1_555
H58_8 C78_10 1_555 1_555
H59_10 C78_10 1_555 1_555
H60_10 C78_10 1_555 1_555
C45_11 C46_11 1_555 1_555
C53_11 C54_11 1_555 1_555
C61_11 C62_11 1_555 1_555
Yb7_3 O1_7 1_555 1_555
O1_7 C1_11 1_555 1_555
O15_2 C24_11 1_555 1_555
O19 C24_11 1_555 1_555
O5_11 C11_11 1_555 1_555
O6_11 C14_11 1_555 1_555
O10_13 Yb7_3 1_555 1_555
C1_11 C2_11 1_555 1_555
C2_11 C3_11 1_555 1_555
C3_11 H1_11 1_555 1_555
C4_11 C3_11 1_555 1_555
H2_11 C4_11 1_555 1_555
C5_11 C4_11 1_555 1_555
C6_11 C5_11 1_555 1_555
H3_11 C6_11 1_555 1_555
C7_11 C2_11 1_555 1_555
C8_11 C5_11 1_555 1_555
H5_11 C8_11 1_555 1_555
C9_11 C8_11 1_555 1_555
H6_11 C9_11 1_555 1_555
C10_11 C9_11 1_555 1_555
C11_11 C10_11 1_555 1_555
C12_11 C11_11 1_555 1_555
H7_11 C12_11 1_555 1_555
C13_11 C12_11 1_555 1_555
C14_11 C13_11 1_555 1_555
C15_11 C10_11 1_555 1_555
H8_11 C15_11 1_555 1_555
C16_11 C13_11 1_555 1_555
H9_11 C16_11 1_555 1_555
C17_11 C16_11 1_555 1_555
H10_11 C17_11 1_555 1_555
C18_11 C17_11 1_555 1_555
C19_11 C18_11 1_555 1_555
H11_11 C19_11 1_555 1_555
C20_11 C19_11 1_555 1_555
H12_11 C20_11 1_555 1_555
C21_11 C20_11 1_555 1_555
C22_11 C21_11 1_555 1_555
H13_11 C22_11 1_555 1_555
C23_11 C18_11 1_555 1_555
H14_11 C23_11 1_555 1_555
C24_11 C21_11 1_555 1_555
C39_10 O6_11 1_555 1_555
H28_11 C39_10 1_555 1_555
H29_10 C39_10 1_555 1_555
H30_10 C39_10 1_555 1_555
O12_13 Yb7_3 1_555 1_555
O27_13 Yb7_3 1_555 1_555
C6_11 C7_11 1_555 1_555
C14_11 C15_11 1_555 1_555
C22_11 C23_11 1_555 1_555
O10_14 Yb6 1_555 1_555
O12_14 Yb6 1_555 1_555
O27_14 Yb6 1_555 1_555
Yb4_4 O2_12 1_555 1_555
Yb9_2 O1_8 1_555 1_555
O1_8 C1_12 1_555 1_555
O2_12 C1_12 1_555 1_555
O16_2 C24_12 1_555 1_555
O19_6 C24_12 1_555 1_555
O5_12 C11_12 1_555 1_555
O6_12 C14_12 1_555 1_555
O10_15 Yb9_2 1_555 1_555
C1_12 C2_12 1_555 1_555
C2_12 C3_12 1_555 1_555
C3_12 H1_12 1_555 1_555
C4_12 C3_12 1_555 1_555
H2_12 C4_12 1_555 1_555
C5_12 C4_12 1_555 1_555
C6_12 C5_12 1_555 1_555
H3_12 C6_12 1_555 1_555
C7_12 C2_12 1_555 1_555
H4_12 C7_12 1_555 1_555
C8_12 C5_12 1_555 1_555
H5_12 C8_12 1_555 1_555
C9_12 C8_12 1_555 1_555
H6_12 C9_12 1_555 1_555
C10_12 C9_12 1_555 1_555
C11_12 C10_12 1_555 1_555
C12_12 C11_12 1_555 1_555
H7_12 C12_12 1_555 1_555
C13_12 C12_12 1_555 1_555
C14_12 C13_12 1_555 1_555
C15_12 C10_12 1_555 1_555
H8_12 C15_12 1_555 1_555
C16_12 C13_12 1_555 1_555
H9_12 C16_12 1_555 1_555
C17_12 C16_12 1_555 1_555
H10_12 C17_12 1_555 1_555
C18_12 C17_12 1_555 1_555
C19_12 C18_12 1_555 1_555
H11_12 C19_12 1_555 1_555
C20_12 C19_12 1_555 1_555
H12_12 C20_12 1_555 1_555
C21_12 C20_12 1_555 1_555
C22_12 C21_12 1_555 1_555
H13_12 C22_12 1_555 1_555
C23_12 C18_12 1_555 1_555
H14_12 C23_12 1_555 1_555
C24_12 C21_12 1_555 1_555
C37_12 O5_12 1_555 1_555
H22_12 C37_12 1_555 1_555
H23_12 C37_12 1_555 1_555
H24_12 C37_12 1_555 1_555
C39_11 O6_12 1_555 1_555
H28_12 C39_11 1_555 1_555
H29_11 C39_11 1_555 1_555
H30_11 C39_11 1_555 1_555
O12_15 Yb9_2 1_555 1_555
O13_12 Yb4_4 1_555 1_555
O27_15 Yb9_2 1_555 1_555
H52_12 C76_12 1_555 1_555
H53_12 C76_12 1_555 1_555
C6_12 C7_12 1_555 1_555
C14_12 C15_12 1_555 1_555
C22_12 C23_12 1_555 1_555
Yb7_2 O11_8 1_555 1_555
O11_8 C40_12 1_555 1_555
O15_7 C63_12 1_555 1_555
O18_4 C63_12 1_555 1_555
O20_10 C50_10 1_555 1_555
O21_9 C53_12 1_555 1_555
C41_12 C40_12 1_555 1_555
C42_12 C41_12 1_555 1_555
H31_12 C42_12 1_555 1_555
C43_12 C42_12 1_555 1_555
H32_12 C43_12 1_555 1_555
C44_12 C43_12 1_555 1_555
C45_12 C44_12 1_555 1_555
H33_12 C45_12 1_555 1_555
C46_12 C41_12 1_555 1_555
C47_12 C44_12 1_555 1_555
H35_12 C47_12 1_555 1_555
C48_12 C47_12 1_555 1_555
H36_12 C48_12 1_555 1_555
C49_12 C48_12 1_555 1_555
C50_10 C49_12 1_555 1_555
C51_10 C50_10 1_555 1_555
H37_12 C51_10 1_555 1_555
C52_12 C51_10 1_555 1_555
C53_12 C52_12 1_555 1_555
C54_12 C49_12 1_555 1_555
H38_12 C54_12 1_555 1_555
C55_12 C52_12 1_555 1_555
H39_12 C55_12 1_555 1_555
C56_12 C55_12 1_555 1_555
H40_12 C56_12 1_555 1_555
C57_12 C56_12 1_555 1_555
C58_12 C57_12 1_555 1_555
H41_12 C58_12 1_555 1_555
C59_12 C58_12 1_555 1_555
H42_12 C59_12 1_555 1_555
C60_12 C59_12 1_555 1_555
C61_12 C60_12 1_555 1_555
H43_12 C61_12 1_555 1_555
C62_12 C57_12 1_555 1_555
H44_12 C62_12 1_555 1_555
C63_12 C60_12 1_555 1_555
C78_11 O21_9 1_555 1_555
H58_9 C78_11 1_555 1_555
H59_11 C78_11 1_555 1_555
H60_11 C78_11 1_555 1_555
C45_12 C46_12 1_555 1_555
C53_12 C54_12 1_555 1_555
C61_12 C62_12 1_555 1_555
O10_16 Yb7_2 1_555 1_555
O12_16 Yb7_2 1_555 1_555
O27_16 Yb7_2 1_555 1_555
H42_13 C59_13 1_555 1_555
Yb5 O2_13 1_555 1_555
O12_11 C1_13 1_555 1_555
O2_13 C1_13 1_555 1_555
O16_8 C24_13 1_555 1_555
O19_7 C24_13 1_555 1_555
O5_13 C11_13 1_555 1_555
O6_13 C14_13 1_555 1_555
C1_13 C2_13 1_555 1_555
C2_13 C3_13 1_555 1_555
C3_13 H1_13 1_555 1_555
C4_13 C3_13 1_555 1_555
H2_13 C4_13 1_555 1_555
C5_13 C4_13 1_555 1_555
C6_13 C5_13 1_555 1_555
H3_13 C6_13 1_555 1_555
C7_13 C2_13 1_555 1_555
H4_13 C7_13 1_555 1_555
C8_13 C5_13 1_555 1_555
H5_13 C8_13 1_555 1_555
C9_13 C8_13 1_555 1_555
H6_13 C9_13 1_555 1_555
C10_13 C9_13 1_555 1_555
C11_13 C10_13 1_555 1_555
C12_13 C11_13 1_555 1_555
H7_13 C12_13 1_555 1_555
C13_13 C12_13 1_555 1_555
C14_13 C13_13 1_555 1_555
C15_13 C10_13 1_555 1_555
H8_13 C15_13 1_555 1_555
C16_13 C13_13 1_555 1_555
H9_13 C16_13 1_555 1_555
C17_13 C16_13 1_555 1_555
H10_13 C17_13 1_555 1_555
C18_13 C17_13 1_555 1_555
C19_13 C18_13 1_555 1_555
H11_13 C19_13 1_555 1_555
C20_13 C19_13 1_555 1_555
H12_13 C20_13 1_555 1_555
C21_13 C20_13 1_555 1_555
C22_13 C21_13 1_555 1_555
H13_13 C22_13 1_555 1_555
C23_13 C18_13 1_555 1_555
H14_13 C23_13 1_555 1_555
C24_13 C21_13 1_555 1_555
C37_13 O5_13 1_555 1_555
H22_13 C37_13 1_555 1_555
H23_13 C37_13 1_555 1_555
H24_13 C37_13 1_555 1_555
C39_12 O6_13 1_555 1_555
H28_13 C39_12 1_555 1_555
H29_12 C39_12 1_555 1_555
H30_12 C39_12 1_555 1_555
O12_12 C40_13 1_555 1_555
O13_13 Yb5 1_555 1_555
C40_13 O13_13 1_555 1_555
C41_13 C40_13 1_555 1_555
C42_13 C41_13 1_555 1_555
H31_13 C42_13 1_555 1_555
C43_13 C42_13 1_555 1_555
H32_13 C43_13 1_555 1_555
C44_13 C43_13 1_555 1_555
C45_13 C44_13 1_555 1_555
H33_13 C45_13 1_555 1_555
C46_13 C41_13 1_555 1_555
H34_13 C46_13 1_555 1_555
C47_13 C44_13 1_555 1_555
H35_13 C47_13 1_555 1_555
C48_13 C47_13 1_555 1_555
H36_13 C48_13 1_555 1_555
C49_13 C48_13 1_555 1_555
C54_13 C49_13 1_555 1_555
H38_13 C54_13 1_555 1_555
C6_13 C7_13 1_555 1_555
C14_13 C15_13 1_555 1_555
C22_13 C23_13 1_555 1_555
C45_13 C46_13 1_555 1_555
C53_13 C54_13 1_555 1_555
O18 C63_13 1_555 1_555
O20_11 C50_11 1_555 1_555
C51_11 C50_11 1_555 1_555
H37_13 C51_11 1_555 1_555
C52_13 C51_11 1_555 1_555
C55_13 C52_13 1_555 1_555
H39_13 C55_13 1_555 1_555
C56_13 C55_13 1_555 1_555
H40_13 C56_13 1_555 1_555
C57_13 C56_13 1_555 1_555
C58_13 C57_13 1_555 1_555
C61_13 C60_13 1_555 1_555
H43_13 C61_13 1_555 1_555
C62_13 C57_13 1_555 1_555
H44_13 C62_13 1_555 1_555
C63_13 C60_13 1_555 1_555
C76_13 O20_11 1_555 1_555
H52_13 C76_13 1_555 1_555
H53_13 C76_13 1_555 1_555
H54_11 C76_13 1_555 1_555
C61_13 C62_13 1_555 1_555
H12_14 C20_14 1_555 1_555
C39_13 O6_14 1_555 1_555
H28_14 C39_13 1_555 1_555
H29_13 C39_13 1_555 1_555
H30_13 C39_13 1_555 1_555
Yb4_3 O2_14 1_555 1_555
O12_9 C1_14 1_555 1_555
O2_14 C1_14 1_555 1_555
O19_4 C24_14 1_555 1_555
O5_14 C11_14 1_555 1_555
C1_14 C2_14 1_555 1_555
C2_14 C3_14 1_555 1_555
C3_14 H1_14 1_555 1_555
C4_14 C3_14 1_555 1_555
H2_14 C4_14 1_555 1_555
C5_14 C4_14 1_555 1_555
C6_14 C5_14 1_555 1_555
H3_14 C6_14 1_555 1_555
C7_14 C2_14 1_555 1_555
H4_14 C7_14 1_555 1_555
C8_14 C5_14 1_555 1_555
H5_14 C8_14 1_555 1_555
C9_14 C8_14 1_555 1_555
H6_14 C9_14 1_555 1_555
C10_14 C9_14 1_555 1_555
C11_14 C10_14 1_555 1_555
C12_14 C11_14 1_555 1_555
H7_14 C12_14 1_555 1_555
C13_14 C12_14 1_555 1_555
C14_14 C13_14 1_555 1_555
C15_14 C10_14 1_555 1_555
H8_14 C15_14 1_555 1_555
C16_14 C13_14 1_555 1_555
H9_14 C16_14 1_555 1_555
C17_14 C16_14 1_555 1_555
H10_14 C17_14 1_555 1_555
C18_14 C17_14 1_555 1_555
C19_14 C18_14 1_555 1_555
C22_14 C21_14 1_555 1_555
H13_14 C22_14 1_555 1_555
C23_14 C18_14 1_555 1_555
H14_14 C23_14 1_555 1_555
C24_14 C21_14 1_555 1_555
C37_14 O5_14 1_555 1_555
H22_14 C37_14 1_555 1_555
H23_14 C37_14 1_555 1_555
H24_14 C37_14 1_555 1_555
O12_10 C40_14 1_555 1_555
O13_14 Yb4_3 1_555 1_555
O21_10 C53_14 1_555 1_555
C40_14 O13_14 1_555 1_555
C41_14 C40_14 1_555 1_555
C42_14 C41_14 1_555 1_555
H31_14 C42_14 1_555 1_555
C43_14 C42_14 1_555 1_555
H32_14 C43_14 1_555 1_555
C44_14 C43_14 1_555 1_555
C45_14 C44_14 1_555 1_555
H33_14 C45_14 1_555 1_555
C46_14 C41_14 1_555 1_555
H34_14 C46_14 1_555 1_555
C47_14 C44_14 1_555 1_555
H35_14 C47_14 1_555 1_555
C48_14 C47_14 1_555 1_555
H36_14 C48_14 1_555 1_555
C49_14 C48_14 1_555 1_555
C54_14 C49_14 1_555 1_555
H38_14 C54_14 1_555 1_555
C78_12 O21_10 1_555 1_555
H58_10 C78_12 1_555 1_555
H59_12 C78_12 1_555 1_555
H60_12 C78_12 1_555 1_555
C6_14 C7_14 1_555 1_555
C14_14 C15_14 1_555 1_555
C22_14 C23_14 1_555 1_555
C45_14 C46_14 1_555 1_555
C53_14 C54_14 1_555 1_555
O16 C63_14 1_555 1_555
O18_6 C63_14 1_555 1_555
O20_12 C50_12 1_555 1_555
C51_12 C50_12 1_555 1_555
H37_14 C51_12 1_555 1_555
C52_14 C51_12 1_555 1_555
C55_14 C52_14 1_555 1_555
H39_14 C55_14 1_555 1_555
C56_14 C55_14 1_555 1_555
H40_14 C56_14 1_555 1_555
C57_14 C56_14 1_555 1_555
C58_14 C57_14 1_555 1_555
H41_14 C58_14 1_555 1_555
C59_14 C58_14 1_555 1_555
H42_14 C59_14 1_555 1_555
C60_14 C59_14 1_555 1_555
C61_14 C60_14 1_555 1_555
H43_14 C61_14 1_555 1_555
C62_14 C57_14 1_555 1_555
H44_14 C62_14 1_555 1_555
C63_14 C60_14 1_555 1_555
C76_14 O20_12 1_555 1_555
H52_14 C76_14 1_555 1_555
H53_14 C76_14 1_555 1_555
H54_12 C76_14 1_555 1_555
C61_14 C62_14 1_555 1_555
H42_15 C59_15 1_555 1_555
C78_13 O21_11 1_555 1_555
H58_11 C78_13 1_555 1_555
H59_13 C78_13 1_555 1_555
H60_13 C78_13 1_555 1_555
Yb4_2 O2_15 1_555 1_555
O12_15 C1_15 1_555 1_555
O2_15 C1_15 1_555 1_555
O16_4 C24_15 1_555 1_555
O19_5 C24_15 1_555 1_555
O5_15 C11_15 1_555 1_555
O6_15 C14_15 1_555 1_555
C1_15 C2_15 1_555 1_555
C2_15 C3_15 1_555 1_555
C3_15 H1_15 1_555 1_555
C4_15 C3_15 1_555 1_555
H2_15 C4_15 1_555 1_555
C5_15 C4_15 1_555 1_555
C6_15 C5_15 1_555 1_555
H3_15 C6_15 1_555 1_555
C7_15 C2_15 1_555 1_555
H4_15 C7_15 1_555 1_555
C8_15 C5_15 1_555 1_555
H5_15 C8_15 1_555 1_555
C9_15 C8_15 1_555 1_555
H6_15 C9_15 1_555 1_555
C10_15 C9_15 1_555 1_555
C11_15 C10_15 1_555 1_555
C12_15 C11_15 1_555 1_555
H7_15 C12_15 1_555 1_555
C13_15 C12_15 1_555 1_555
C14_15 C13_15 1_555 1_555
C15_15 C10_15 1_555 1_555
H8_15 C15_15 1_555 1_555
C16_15 C13_15 1_555 1_555
H9_15 C16_15 1_555 1_555
C17_15 C16_15 1_555 1_555
H10_15 C17_15 1_555 1_555
C18_15 C17_15 1_555 1_555
C19_15 C18_15 1_555 1_555
H11_15 C19_15 1_555 1_555
C20_15 C19_15 1_555 1_555
H12_15 C20_15 1_555 1_555
C21_15 C20_15 1_555 1_555
C22_15 C21_15 1_555 1_555
H13_15 C22_15 1_555 1_555
C23_15 C18_15 1_555 1_555
H14_15 C23_15 1_555 1_555
C24_15 C21_15 1_555 1_555
C37_15 O5_15 1_555 1_555
H22_15 C37_15 1_555 1_555
H23_15 C37_15 1_555 1_555
H24_15 C37_15 1_555 1_555
C39_14 O6_15 1_555 1_555
H28_15 C39_14 1_555 1_555
H29_14 C39_14 1_555 1_555
H30_14 C39_14 1_555 1_555
O12_16 C40_15 1_555 1_555
O13_15 Yb4_2 1_555 1_555
O18_3 C63_15 1_555 1_555
O20_13 C50_13 1_555 1_555
C40_15 O13_15 1_555 1_555
C41_15 C40_15 1_555 1_555
C42_15 C41_15 1_555 1_555
H31_15 C42_15 1_555 1_555
C43_15 C42_15 1_555 1_555
H32_15 C43_15 1_555 1_555
C44_15 C43_15 1_555 1_555
C45_15 C44_15 1_555 1_555
H33_15 C45_15 1_555 1_555
C46_15 C41_15 1_555 1_555
H34_15 C46_15 1_555 1_555
C47_15 C44_15 1_555 1_555
H35_15 C47_15 1_555 1_555
C48_15 C47_15 1_555 1_555
H36_15 C48_15 1_555 1_555
C49_15 C48_15 1_555 1_555
C50_13 C49_15 1_555 1_555
C51_13 C50_13 1_555 1_555
H37_15 C51_13 1_555 1_555
C52_15 C51_13 1_555 1_555
C53_15 C52_15 1_555 1_555
C54_15 C49_15 1_555 1_555
H38_15 C54_15 1_555 1_555
C55_15 C52_15 1_555 1_555
H39_15 C55_15 1_555 1_555
C56_15 C55_15 1_555 1_555
H40_15 C56_15 1_555 1_555
C57_15 C56_15 1_555 1_555
C58_15 C57_15 1_555 1_555
C61_15 C60_15 1_555 1_555
H43_15 C61_15 1_555 1_555
C62_15 C57_15 1_555 1_555
H44_15 C62_15 1_555 1_555
C63_15 C60_15 1_555 1_555
C76_15 O20_13 1_555 1_555
H52_15 C76_15 1_555 1_555
H53_15 C76_15 1_555 1_555
H54_13 C76_15 1_555 1_555
C6_15 C7_15 1_555 1_555
C14_15 C15_15 1_555 1_555
C22_15 C23_15 1_555 1_555
C45_15 C46_15 1_555 1_555
C53_15 C54_15 1_555 1_555
C61_15 C62_15 1_555 1_555
H12_16 C20_16 1_555 1_555
O19_2 C24_16 1_555 1_555
C16_16 C13_16 1_555 1_555
H9_16 C16_16 1_555 1_555
C17_16 C16_16 1_555 1_555
H10_16 C17_16 1_555 1_555
C18_16 C17_16 1_555 1_555
C19_16 C18_16 1_555 1_555
C22_16 C21_16 1_555 1_555
H13_16 C22_16 1_555 1_555
C23_16 C18_16 1_555 1_555
H14_16 C23_16 1_555 1_555
C24_16 C21_16 1_555 1_555
O16_5 C63_16 1_555 1_555
O18_8 C63_16 1_555 1_555
C55_16 C52_16 1_555 1_555
H39_16 C55_16 1_555 1_555
C56_16 C55_16 1_555 1_555
H40_16 C56_16 1_555 1_555
C57_16 C56_16 1_555 1_555
C58_16 C57_16 1_555 1_555
H41_16 C58_16 1_555 1_555
C59_16 C58_16 1_555 1_555
H42_16 C59_16 1_555 1_555
C60_16 C59_16 1_555 1_555
C61_16 C60_16 1_555 1_555
H43_16 C61_16 1_555 1_555
C62_16 C57_16 1_555 1_555
H44_16 C62_16 1_555 1_555
C63_16 C60_16 1_555 1_555
C22_16 C23_16 1_555 1_555
C61_16 C62_16 1_555 1_555
Yb3_2 O2_16 1_555 1_555
O12_13 C1_16 1_555 1_555
O2_16 C1_16 1_555 1_555
O5_16 C11_16 1_555 1_555
C1_16 C2_16 1_555 1_555
C2_16 C3_16 1_555 1_555
C3_16 H1_16 1_555 1_555
C4_16 C3_16 1_555 1_555
H2_16 C4_16 1_555 1_555
C5_16 C4_16 1_555 1_555
C6_16 C5_16 1_555 1_555
H3_16 C6_16 1_555 1_555
C7_16 C2_16 1_555 1_555
H4_16 C7_16 1_555 1_555
C8_16 C5_16 1_555 1_555
H5_16 C8_16 1_555 1_555
C9_16 C8_16 1_555 1_555
H6_16 C9_16 1_555 1_555
C10_16 C9_16 1_555 1_555
C11_16 C10_16 1_555 1_555
C12_16 C11_16 1_555 1_555
C15_16 C10_16 1_555 1_555
H8_16 C15_16 1_555 1_555
C37_16 O5_16 1_555 1_555
H22_16 C37_16 1_555 1_555
H23_16 C37_16 1_555 1_555
H24_16 C37_16 1_555 1_555
O12_14 C40_16 1_555 1_555
O13_16 Yb3_2 1_555 1_555
O20_14 C50_14 1_555 1_555
C40_16 O13_16 1_555 1_555
C41_16 C40_16 1_555 1_555
C42_16 C41_16 1_555 1_555
H31_16 C42_16 1_555 1_555
C43_16 C42_16 1_555 1_555
H32_16 C43_16 1_555 1_555
C44_16 C43_16 1_555 1_555
C45_16 C44_16 1_555 1_555
H33_16 C45_16 1_555 1_555
C46_16 C41_16 1_555 1_555
H34_16 C46_16 1_555 1_555
C47_16 C44_16 1_555 1_555
H35_16 C47_16 1_555 1_555
C48_16 C47_16 1_555 1_555
H36_16 C48_16 1_555 1_555
C49_16 C48_16 1_555 1_555
C50_14 C49_16 1_555 1_555
C51_14 C50_14 1_555 1_555
C54_16 C49_16 1_555 1_555
H38_16 C54_16 1_555 1_555
C76_16 O20_14 1_555 1_555
H52_16 C76_16 1_555 1_555
H53_16 C76_16 1_555 1_555
H54_14 C76_16 1_555 1_555
H59_14 C78_14 1_555 1_555
H60_14 C78_14 1_555 1_555
C6_16 C7_16 1_555 1_555
C14_16 C15_16 1_555 1_555
C45_16 C46_16 1_555 1_555
C53_16 C54_16 1_555 1_555
O20_15 C50_15 1_555 1_555
C51_15 C50_15 1_555 1_555
C78_15 O21_14 1_555 1_555
H58_14 C78_15 1_555 1_555
H59_15 C78_15 1_555 1_555
H60_15 C78_15 1_555 1_555
H29_15 C39_15 1_555 1_555
H30_15 C39_15 1_555 1_555
O20_16 C50_16 1_555 1_555
C51_16 C50_16 1_555 1_555
C78_16 O21_16 1_555 1_555
H58_16 C78_16 1_555 1_555
H59_16 C78_16 1_555 1_555
H60_16 C78_16 1_555 1_555
H29_16 C39_16 1_555 1_555
H30_16 C39_16 1_555 1_555

#END
