
###############################################################################
#
# This file contains modified crystal structure data generated from the
# MOF subset of the Cambridge Structural Database (CSD) v543 
# hosted by the Cambridge Crystallographic Data Centre (CCDC).
#
# This work is licensed under the Creative Commons
# Attribution-NonCommercial-ShareAlike 4.0 International License.
# To view a copy of this license, visit
# http://creativecommons.org/licenses/by-nc-sa/4.0/
# or send a letter to
# Creative Commons, PO Box 1866, Mountain View, CA 94042, USA.
#
# CIF created using the CSD Python API on 29 September 2022
# The structure has been converted into the P1 space group
# The structure has a 3D framework
# The original CSD entry GULWOA is in the monoclinic crystal system
# The framework has been calculated to contain at least 10.0% void space
# The void calculation uses a probe of radius 1.32A, grid spacing 0.4
# H atom positions have been added when not included in the experimental data
# Generated hydrogen atom positions removed from atoms on special positions
#
###############################################################################

data_GULWOA
_chemical_formula_moiety         '(C120 H152 Cd28 Cl16 N88 O16)n'
_symmetry_cell_setting           triclinic
_symmetry_space_group_name_H-M   'P 1'
_symmetry_Int_Tables_number      1
_space_group_name_Hall           'P 1'
loop_
_symmetry_equiv_pos_site_id
_symmetry_equiv_pos_as_xyz
1 x,y,z
_cell_length_a                   29.728(5)
_cell_length_b                   12.530(2)
_cell_length_c                   20.920(4)
_cell_angle_alpha                90
_cell_angle_beta                 114.847(4)
_cell_angle_gamma                90
_cell_volume                     7071.2
loop_
_atom_site_label
_atom_site_type_symbol
_atom_site_fract_x
_atom_site_fract_y
_atom_site_fract_z
Cd1 Cd 0.24975(4) 0.11708(7) 0.23966(5)
Cd2 Cd 0.24513(4) 0.39305(7) 0.15466(5)
Cd3 Cd 0.5000 0.0000 0.0000
Cl1 Cl 0.18546(13) 0.2280(2) 0.13232(17)
Cl2 Cl 0.32301(14) 0.0275(3) 0.34932(18)
Cl3 Cl 0.18653(13) 0.0422(3) 0.28246(18)
O2 O 0.5502(6) 0.1385(13) 0.0711(10)
N6 N 0.3328(4) 0.2588(8) 0.1284(6)
N7 N 0.3039(4) 0.2620(8) 0.1648(5)
N8 N 0.3078(4) 0.1689(8) 0.1976(5)
N9 N 0.3387(5) 0.1045(8) 0.1848(6)
N10 N 0.4425(5) 0.0430(11) 0.0416(8)
C3 C 0.2368(5) 0.0504(10) 0.0484(6)
H1 H 0.2230 0.0910 0.0740
C7 C 0.3526(5) 0.1607(11) 0.1426(7)
C8 C 0.3840(6) 0.1212(12) 0.1083(9)
C9 C 0.4065(7) 0.0231(13) 0.1237(10)
C10 C 0.3881(7) 0.1774(14) 0.0561(9)
H6 H 0.3712 0.2434 0.0414
C11 C 0.4179(7) 0.1375(15) 0.0233(10)
Cd6 Cd 0.25025(4) 0.61708(7) 0.26034(5)
Cd10 Cd 0.24513(4) 0.60695(7) 0.65466(5)
Cl5 Cl 0.17699(14) 0.5275(3) 0.15068(18)
Cl8 Cl 0.31347(13) 0.5422(3) 0.21754(18)
N12 N 0.2563(4) 0.4466(7) 0.3181(5)
N14 N 0.2589(4) 0.3688(8) 0.2767(6)
N16 N 0.2584(4) 0.2740(8) 0.3051(5)
N18 N 0.2557(4) 0.2876(8) 0.3666(5)
N19 N 0.2397(4) 0.5440(8) 0.5476(5)
N20 N 0.2397(4) 0.4560(8) 0.0476(5)
C16 C 0.2533(6) 0.3983(10) 0.3745(8)
C17 C 0.2486(5) 0.4462(10) 0.4322(6)
C18 C 0.2632(5) 0.5504(10) 0.4516(6)
H16 H 0.2770 0.5910 0.4260
C19 C 0.2577(4) 0.5957(9) 0.5079(6)
H17 H 0.2673 0.6681 0.5190
C20 C 0.2260(6) 0.4419(10) 0.5312(7)
H18 H 0.2138 0.4021 0.5593
C21 C 0.2294(6) 0.3934(11) 0.4732(7)
H19 H 0.2182 0.3220 0.4616
Cd3_2 Cd 0.5000 0.0000 1.0000
N5 N 0.2603(4) 0.0440(8) 0.9524(5)
C4 C 0.2423(4) 0.0957(9) 0.9921(6)
H2 H 0.2327 0.1681 0.9810
H7 H 0.4208 0.1785 0.9870
Cd9 Cd 0.25487(4) 0.10695(7) 0.84534(5)
O3 O 0.4676(5) 0.1235(10) 0.9130(8)
N13 N 0.7563(4) 0.0534(7) 0.8181(5)
N27 N 0.4103(5) 0.1856(11) 0.8098(8)
H20 H 0.5980 0.0225 0.8432
C27 C 0.5642(7) 0.0082(14) 0.9096(11)
H23 H 0.5472 0.0742 0.8951
C28 C 0.4303(7) 0.1121(15) 0.8554(11)
H24 H 0.4157 0.0432 0.8449
C29 C 0.3682(6) 0.1718(13) 0.7411(9)
H25 H 0.3572 0.0973 0.7355
H26 H 0.3409 0.2182 0.7384
H27 H 0.3782 0.1909 0.7036
C30 C 0.4276(8) 0.2969(16) 0.8264(14)
H28 H 0.4638 0.2990 0.8446
H29 H 0.4130 0.3404 0.7837
H30 H 0.4175 0.3251 0.8621
Cd3_3 Cd 0.5000 1.0000 0.0000
O1 O 0.5324(5) 0.8765(10) 0.0870(8)
N1 N 0.2437(4) 0.9466(7) 0.1819(5)
N2 N 0.2411(4) 0.8688(8) 0.2233(6)
N3 N 0.2416(4) 0.7740(8) 0.1949(5)
N4 N 0.2443(4) 0.7876(8) 0.1334(5)
N11 N 0.5897(5) 0.8144(11) 0.1902(8)
C1 C 0.2467(6) 0.8983(10) 0.1255(8)
C2 C 0.2514(5) 0.9462(10) 0.0678(6)
C6 C 0.2706(6) 0.8934(11) 0.0268(7)
H4 H 0.2818 0.8220 0.0384
H5 H 0.4020 0.9775 0.1568
C12 C 0.4358(7) 0.9918(14) 0.0904(11)
H8 H 0.4528 0.9258 0.1049
C13 C 0.5697(7) 0.8879(15) 0.1446(11)
H9 H 0.5843 0.9568 0.1551
C14 C 0.6318(6) 0.8282(13) 0.2589(9)
H10 H 0.6428 0.9027 0.2645
H11 H 0.6591 0.7818 0.2616
H12 H 0.6218 0.8091 0.2964
C15 C 0.5724(8) 0.7031(16) 0.1736(14)
H13 H 0.5362 0.7010 0.1554
H14 H 0.5870 0.6596 0.2163
H15 H 0.5825 0.6749 0.1379
Cd8 Cd 0.25487(4) 0.89305(7) 0.34534(5)
H22 H 0.5792 0.8215 0.0130
Cd3_4 Cd 0.5000 1.0000 1.0000
C5 C 0.2740(6) 0.9419(10) 0.9688(7)
H3 H 0.2862 0.9021 0.9407
Cd4 Cd 0.75025(4) 0.88292(7) 0.76034(5)
Cd7 Cd 0.75487(4) 0.60695(7) 0.84534(5)
Cl4 Cl 0.81454(13) 0.7720(2) 0.86768(17)
Cl6 Cl 0.67699(14) 0.9725(3) 0.65068(18)
Cl7 Cl 0.82301(14) 0.4725(3) 0.84932(18)
Cl9 Cl 0.81347(13) 0.9578(3) 0.71754(18)
Cl10 Cl 0.68653(13) 0.4578(3) 0.78246(18)
O4 O 0.4498(6) 0.8615(13) 0.9289(10)
N15 N 0.7411(4) 0.6312(8) 0.7233(6)
N17 N 0.7416(4) 0.7260(8) 0.6949(5)
N21 N 0.7603(4) 0.5440(8) 0.9524(5)
N22 N 0.6672(4) 0.7412(8) 0.8716(6)
N23 N 0.6961(4) 0.7380(8) 0.8352(5)
N24 N 0.6922(4) 0.8311(8) 0.8024(5)
N25 N 0.6613(5) 0.8955(8) 0.8152(6)
N26 N 0.5575(5) 0.9570(11) 0.9584(8)
C22 C 0.6474(5) 0.8393(11) 0.8574(7)
C23 C 0.6160(6) 0.8788(12) 0.8917(9)
C24 C 0.5935(7) 0.9769(13) 0.8763(10)
C25 C 0.6119(7) 0.8226(14) 0.9439(9)
H21 H 0.6288 0.7566 0.9586
C26 C 0.5821(7) 0.8625(15) 0.9767(10)
Cd1_2 Cd 0.75025(4) 0.11708(7) 0.26034(5)
Cd2_2 Cd 0.75487(4) 0.39305(7) 0.34534(5)
Cd3_5 Cd 0.5000 0.0000 0.5000
Cl1_2 Cl 0.81454(13) 0.2280(2) 0.36768(17)
Cl2_2 Cl 0.67699(14) 0.0275(3) 0.15068(18)
Cl3_2 Cl 0.81347(13) 0.0422(3) 0.21754(18)
O2_2 O 0.4498(6) 0.1385(13) 0.4289(10)
N5_2 N 0.7397(4) 0.0440(8) 0.5476(5)
N6_2 N 0.6672(4) 0.2588(8) 0.3716(6)
N7_2 N 0.6961(4) 0.2620(8) 0.3352(5)
N8_2 N 0.6922(4) 0.1689(8) 0.3024(5)
N9_2 N 0.6613(5) 0.1045(8) 0.3152(6)
N10_2 N 0.5575(5) 0.0430(11) 0.4584(8)
C3_2 C 0.7632(5) 0.0504(10) 0.4516(6)
H1_2 H 0.7770 0.0910 0.4260
C4_2 C 0.7577(4) 0.0957(9) 0.5079(6)
H2_2 H 0.7673 0.1681 0.5190
C7_2 C 0.6474(5) 0.1607(11) 0.3574(7)
C8_2 C 0.6160(6) 0.1212(12) 0.3917(9)
C9_2 C 0.5935(7) 0.0231(13) 0.3763(10)
C10_2 C 0.6119(7) 0.1774(14) 0.4439(9)
H6_2 H 0.6288 0.2434 0.4586
C11_2 C 0.5821(7) 0.1375(15) 0.4767(10)
H7_2 H 0.5792 0.1785 0.5130
Cd6_2 Cd 0.74975(4) 0.61708(7) 0.23966(5)
Cd9_2 Cd 0.74513(4) 0.10695(7) 0.65466(5)
Cl5_2 Cl 0.82301(14) 0.5275(3) 0.34932(18)
Cl8_2 Cl 0.68653(13) 0.5422(3) 0.28246(18)
O3_2 O 0.5324(5) 0.1235(10) 0.5870(8)
N12_2 N 0.7437(4) 0.4466(7) 0.1819(5)
N13_2 N 0.2437(4) 0.0534(7) 0.6819(5)
N14_2 N 0.7411(4) 0.3688(8) 0.2233(6)
N16_2 N 0.7416(4) 0.2740(8) 0.1949(5)
N18_2 N 0.7443(4) 0.2876(8) 0.1334(5)
N20_2 N 0.7603(4) 0.4560(8) 0.4524(5)
N27_2 N 0.5897(5) 0.1856(11) 0.6902(8)
C16_2 C 0.7467(6) 0.3983(10) 0.1255(8)
C17_2 C 0.7514(5) 0.4462(10) 0.0678(6)
C18_2 C 0.7368(5) 0.5504(10) 0.0484(6)
H16_2 H 0.7230 0.5910 0.0740
C21_2 C 0.7706(6) 0.3934(11) 0.0268(7)
H19_2 H 0.7818 0.3220 0.0384
H20_2 H 0.4020 0.0225 0.6568
C27_2 C 0.4358(7) 0.0082(14) 0.5904(11)
H23_2 H 0.4528 0.0742 0.6049
C28_2 C 0.5697(7) 0.1121(15) 0.6446(11)
H24_2 H 0.5843 0.0432 0.6551
C29_2 C 0.6318(6) 0.1718(13) 0.7589(9)
H25_2 H 0.6428 0.0973 0.7645
H26_2 H 0.6591 0.2182 0.7616
H27_2 H 0.6218 0.1909 0.7964
C30_2 C 0.5724(8) 0.2969(16) 0.6736(14)
H28_2 H 0.5362 0.2990 0.6554
H29_2 H 0.5870 0.3404 0.7163
H30_2 H 0.5825 0.3251 0.6379
C19_2 C 0.7423(4) 0.5957(9) 0.9921(6)
H17_2 H 0.7327 0.6681 0.9810
C20_2 C 0.7740(6) 0.4419(10) 0.9688(7)
H18_2 H 0.7862 0.4021 0.9407
Cd3_6 Cd 0.5000 1.0000 0.5000
O1_2 O 0.4676(5) 0.8765(10) 0.4130(8)
N1_2 N 0.7563(4) 0.9466(7) 0.3181(5)
N2_2 N 0.7589(4) 0.8688(8) 0.2767(6)
N3_2 N 0.7584(4) 0.7740(8) 0.3051(5)
N4_2 N 0.7557(4) 0.7876(8) 0.3666(5)
N11_2 N 0.4103(5) 0.8144(11) 0.3098(8)
C1_2 C 0.7533(6) 0.8983(10) 0.3745(8)
C2_2 C 0.7486(5) 0.9462(10) 0.4322(6)
C5_2 C 0.7260(6) 0.9419(10) 0.5312(7)
H3_2 H 0.7138 0.9021 0.5593
C6_2 C 0.7294(6) 0.8934(11) 0.4732(7)
H4_2 H 0.7182 0.8220 0.4616
H5_2 H 0.5980 0.9775 0.3432
C12_2 C 0.5642(7) 0.9918(14) 0.4096(11)
H8_2 H 0.5472 0.9258 0.3951
C13_2 C 0.4303(7) 0.8879(15) 0.3554(11)
H9_2 H 0.4157 0.9568 0.3449
C14_2 C 0.3682(6) 0.8282(13) 0.2411(9)
H10_2 H 0.3572 0.9027 0.2355
H11_2 H 0.3409 0.7818 0.2384
H12_2 H 0.3782 0.8091 0.2036
C15_2 C 0.4276(8) 0.7031(16) 0.3264(14)
H13_2 H 0.4638 0.7010 0.3446
H14_2 H 0.4130 0.6596 0.2837
H15_2 H 0.4175 0.6749 0.3621
Cd4_2 Cd 0.24975(4) 0.88292(7) 0.73966(5)
Cd8_2 Cd 0.74513(4) 0.89305(7) 0.15466(5)
Cl4_2 Cl 0.18546(13) 0.7720(2) 0.63232(17)
Cl6_2 Cl 0.32301(14) 0.9725(3) 0.84932(18)
Cl7_2 Cl 0.17699(14) 0.4725(3) 0.65068(18)
Cl9_2 Cl 0.18653(13) 0.9578(3) 0.78246(18)
Cl10_2 Cl 0.31347(13) 0.4578(3) 0.71754(18)
O4_2 O 0.5502(6) 0.8615(13) 0.5711(10)
N15_2 N 0.2589(4) 0.6312(8) 0.7767(6)
N17_2 N 0.2584(4) 0.7260(8) 0.8051(5)
N22_2 N 0.3328(4) 0.7412(8) 0.6284(6)
N23_2 N 0.3039(4) 0.7380(8) 0.6648(5)
N24_2 N 0.3078(4) 0.8311(8) 0.6976(5)
N25_2 N 0.3387(5) 0.8955(8) 0.6848(6)
N26_2 N 0.4425(5) 0.9570(11) 0.5416(8)
C22_2 C 0.3526(5) 0.8393(11) 0.6426(7)
C23_2 C 0.3840(6) 0.8788(12) 0.6083(9)
C24_2 C 0.4065(7) 0.9769(13) 0.6237(10)
C25_2 C 0.3881(7) 0.8226(14) 0.5561(9)
H21_2 H 0.3712 0.7566 0.5414
C26_2 C 0.4179(7) 0.8625(15) 0.5233(10)
H22_2 H 0.4208 0.8215 0.4870
Cd3_7 Cd 0.0000 0.5000 0.0000
O1_3 O 0.0324(5) 0.3765(10) 0.0870(8)
O2_3 O 0.0502(6) 0.6385(13) 0.0711(10)
N11_3 N 0.0897(5) 0.3144(11) 0.1902(8)
C13_3 C 0.0697(7) 0.3879(15) 0.1446(11)
H9_3 H 0.0843 0.4568 0.1551
C14_3 C 0.1318(6) 0.3282(13) 0.2589(9)
H10_3 H 0.1428 0.4027 0.2645
H11_3 H 0.1591 0.2818 0.2616
H12_3 H 0.1218 0.3091 0.2964
C15_3 C 0.0724(8) 0.2031(16) 0.1736(14)
H13_3 H 0.0362 0.2010 0.1554
H14_3 H 0.0870 0.1596 0.2163
H15_3 H 0.0825 0.1749 0.1379
H22_3 H 0.0792 0.3215 0.0130
Cd3_8 Cd 0.0000 0.5000 1.0000
Cd4_3 Cd 0.25025(4) 0.38292(7) 0.76034(5)
Cl4_3 Cl 0.31454(13) 0.2720(2) 0.86768(17)
N13_3 N 0.2563(4) 0.5534(7) 0.8181(5)
N15_3 N 0.2411(4) 0.1312(8) 0.7233(6)
N17_3 N 0.2416(4) 0.2260(8) 0.6949(5)
N22_3 N 0.1672(4) 0.2412(8) 0.8716(6)
N23_3 N 0.1961(4) 0.2380(8) 0.8352(5)
N24_3 N 0.1922(4) 0.3311(8) 0.8024(5)
N25_3 N 0.1613(5) 0.3955(8) 0.8152(6)
N26_3 N 0.0575(5) 0.4570(11) 0.9584(8)
C22_3 C 0.1474(5) 0.3393(11) 0.8574(7)
C23_3 C 0.1160(6) 0.3788(12) 0.8917(9)
C24_3 C 0.0935(7) 0.4769(13) 0.8763(10)
H20_3 H 0.0980 0.5225 0.8432
C25_3 C 0.1119(7) 0.3226(14) 0.9439(9)
H21_3 H 0.1288 0.2566 0.9586
C26_3 C 0.0821(7) 0.3625(15) 0.9767(10)
C27_3 C 0.0642(7) 0.5082(14) 0.9096(11)
H23_3 H 0.0472 0.5742 0.8951
Cd3_9 Cd 1.0000 0.5000 0.0000
Cl1_3 Cl 0.68546(13) 0.7280(2) 0.13232(17)
N6_3 N 0.8328(4) 0.7588(8) 0.1284(6)
N7_3 N 0.8039(4) 0.7620(8) 0.1648(5)
N8_3 N 0.8078(4) 0.6689(8) 0.1976(5)
N9_3 N 0.8387(5) 0.6045(8) 0.1848(6)
N10_3 N 0.9425(5) 0.5430(11) 0.0416(8)
C7_3 C 0.8526(5) 0.6607(11) 0.1426(7)
C8_3 C 0.8840(6) 0.6212(12) 0.1083(9)
C9_3 C 0.9065(7) 0.5231(13) 0.1237(10)
H5_3 H 0.9020 0.4775 0.1568
C10_3 C 0.8881(7) 0.6774(14) 0.0561(9)
H6_3 H 0.8712 0.7434 0.0414
C11_3 C 0.9179(7) 0.6375(15) 0.0233(10)
C12_3 C 0.9358(7) 0.4918(14) 0.0904(11)
H8_3 H 0.9528 0.4258 0.1049
N20_3 N 0.7397(4) 0.9560(8) 0.0476(5)
Cd3_10 Cd 1.0000 0.5000 1.0000
H7_3 H 0.9208 0.6785 0.9870
O3_3 O 0.9676(5) 0.6235(10) 0.9130(8)
O4_3 O 0.9498(6) 0.3615(13) 0.9289(10)
N27_3 N 0.9103(5) 0.6856(11) 0.8098(8)
C28_3 C 0.9303(7) 0.6121(15) 0.8554(11)
H24_3 H 0.9157 0.5432 0.8449
C29_3 C 0.8682(6) 0.6718(13) 0.7411(9)
H25_3 H 0.8572 0.5973 0.7355
H26_3 H 0.8409 0.7182 0.7384
H27_3 H 0.8782 0.6909 0.7036
C30_3 C 0.9276(8) 0.7969(16) 0.8264(14)
H28_3 H 0.9638 0.7990 0.8446
H29_3 H 0.9130 0.8404 0.7837
H30_3 H 0.9175 0.8251 0.8621
Cd3_11 Cd 0.0000 0.5000 0.5000
Cl1_4 Cl 0.31454(13) 0.7280(2) 0.36768(17)
N6_4 N 0.1672(4) 0.7588(8) 0.3716(6)
N7_4 N 0.1961(4) 0.7620(8) 0.3352(5)
N8_4 N 0.1922(4) 0.6689(8) 0.3024(5)
N9_4 N 0.1613(5) 0.6045(8) 0.3152(6)
N10_4 N 0.0575(5) 0.5430(11) 0.4584(8)
C7_4 C 0.1474(5) 0.6607(11) 0.3574(7)
C8_4 C 0.1160(6) 0.6212(12) 0.3917(9)
C9_4 C 0.0935(7) 0.5231(13) 0.3763(10)
H5_4 H 0.0980 0.4775 0.3432
C10_4 C 0.1119(7) 0.6774(14) 0.4439(9)
H6_4 H 0.1288 0.7434 0.4586
C11_4 C 0.0821(7) 0.6375(15) 0.4767(10)
H7_4 H 0.0792 0.6785 0.5130
C12_4 C 0.0642(7) 0.4918(14) 0.4096(11)
H8_4 H 0.0472 0.4258 0.3951
O3_4 O 0.0324(5) 0.6235(10) 0.5870(8)
O4_4 O 0.0502(6) 0.3615(13) 0.5711(10)
N20_4 N 0.2603(4) 0.9560(8) 0.4524(5)
N27_4 N 0.0897(5) 0.6856(11) 0.6902(8)
C28_4 C 0.0697(7) 0.6121(15) 0.6446(11)
H24_4 H 0.0843 0.5432 0.6551
C29_4 C 0.1318(6) 0.6718(13) 0.7589(9)
H25_4 H 0.1428 0.5973 0.7645
H26_4 H 0.1591 0.7182 0.7616
H27_4 H 0.1218 0.6909 0.7964
C30_4 C 0.0724(8) 0.7969(16) 0.6736(14)
H28_4 H 0.0362 0.7990 0.6554
H29_4 H 0.0870 0.8404 0.7163
H30_4 H 0.0825 0.8251 0.6379
Cd3_12 Cd 1.0000 0.5000 0.5000
O1_4 O 0.9676(5) 0.3765(10) 0.4130(8)
O2_4 O 0.9498(6) 0.6385(13) 0.4289(10)
N11_4 N 0.9103(5) 0.3144(11) 0.3098(8)
C13_4 C 0.9303(7) 0.3879(15) 0.3554(11)
H9_4 H 0.9157 0.4568 0.3449
C14_4 C 0.8682(6) 0.3282(13) 0.2411(9)
H10_4 H 0.8572 0.4027 0.2355
H11_4 H 0.8409 0.2818 0.2384
H12_4 H 0.8782 0.3091 0.2036
C15_4 C 0.9276(8) 0.2031(16) 0.3264(14)
H13_4 H 0.9638 0.2010 0.3446
H14_4 H 0.9130 0.1596 0.2837
H15_4 H 0.9175 0.1749 0.3621
Cd4_4 Cd 0.74975(4) 0.38292(7) 0.73966(5)
Cl4_4 Cl 0.68546(13) 0.2720(2) 0.63232(17)
N13_4 N 0.7437(4) 0.5534(7) 0.6819(5)
N15_4 N 0.7589(4) 0.1312(8) 0.7767(6)
N17_4 N 0.7584(4) 0.2260(8) 0.8051(5)
N22_4 N 0.8328(4) 0.2412(8) 0.6284(6)
N23_4 N 0.8039(4) 0.2380(8) 0.6648(5)
N24_4 N 0.8078(4) 0.3311(8) 0.6976(5)
N25_4 N 0.8387(5) 0.3955(8) 0.6848(6)
N26_4 N 0.9425(5) 0.4570(11) 0.5416(8)
C22_4 C 0.8526(5) 0.3393(11) 0.6426(7)
C23_4 C 0.8840(6) 0.3788(12) 0.6083(9)
C24_4 C 0.9065(7) 0.4769(13) 0.6237(10)
H20_4 H 0.9020 0.5225 0.6568
C25_4 C 0.8881(7) 0.3226(14) 0.5561(9)
H21_4 H 0.8712 0.2566 0.5414
C26_4 C 0.9179(7) 0.3625(15) 0.5233(10)
H22_4 H 0.9208 0.3215 0.4870
C27_4 C 0.9358(7) 0.5082(14) 0.5904(11)
H23_4 H 0.9528 0.5742 0.6049
C5_3 C 0.7260(6) 0.0581(10) 0.0312(7)
H3_3 H 0.7138 0.0979 0.0593
N4_3 N 0.7557(4) 0.2124(8) 0.8666(5)
C1_3 C 0.7533(6) 0.1017(10) 0.8745(8)
C2_3 C 0.7486(5) 0.0538(10) 0.9322(6)
C6_3 C 0.7294(6) 0.1066(11) 0.9732(7)
H4_3 H 0.7182 0.1780 0.9616
C4_3 C 0.7577(4) 0.9043(9) 0.0079(6)
H2_3 H 0.7673 0.8319 0.0190
C3_3 C 0.7632(5) 0.9496(10) 0.9516(6)
H1_3 H 0.7770 0.9090 0.9260
N18_3 N 0.7443(4) 0.7124(8) 0.6334(5)
C16_3 C 0.7467(6) 0.6017(10) 0.6255(8)
C17_3 C 0.7514(5) 0.5538(10) 0.5678(6)
C18_3 C 0.7368(5) 0.4496(10) 0.5484(6)
H16_3 H 0.7230 0.4090 0.5740
C19_3 C 0.7423(4) 0.4043(9) 0.4921(6)
H17_3 H 0.7327 0.3319 0.4810
C20_3 C 0.7740(6) 0.5581(10) 0.4688(7)
H18_3 H 0.7862 0.5979 0.4407
C21_3 C 0.7706(6) 0.6066(11) 0.5268(7)
H19_3 H 0.7818 0.6780 0.5384
N4_4 N 0.2443(4) 0.2124(8) 0.6334(5)
C1_4 C 0.2467(6) 0.1017(10) 0.6255(8)
C2_4 C 0.2514(5) 0.0538(10) 0.5678(6)
C5_4 C 0.2740(6) 0.0581(10) 0.4688(7)
H3_4 H 0.2862 0.0979 0.4407
C6_4 C 0.2706(6) 0.1066(11) 0.5268(7)
H4_4 H 0.2818 0.1780 0.5384
C19_4 C 0.2577(4) 0.4043(9) 0.0079(6)
H17_4 H 0.2673 0.3319 0.0190
C20_4 C 0.2260(6) 0.5581(10) 0.0312(7)
H18_4 H 0.2138 0.5979 0.0593
C3_4 C 0.2368(5) 0.9496(10) 0.5484(6)
H1_4 H 0.2230 0.9090 0.5740
C4_4 C 0.2423(4) 0.9043(9) 0.4921(6)
H2_4 H 0.2327 0.8319 0.4810
N18_4 N 0.2557(4) 0.7124(8) 0.8666(5)
C16_4 C 0.2533(6) 0.6017(10) 0.8745(8)
C17_4 C 0.2486(5) 0.5538(10) 0.9322(6)
C18_4 C 0.2632(5) 0.4496(10) 0.9516(6)
H16_4 H 0.2770 0.4090 0.9260
C21_4 C 0.2294(6) 0.6066(11) 0.9732(7)
H19_4 H 0.2182 0.6780 0.9616
loop_
_geom_bond_atom_site_label_1
_geom_bond_atom_site_label_2
_geom_bond_site_symmetry_1
_geom_bond_site_symmetry_2
Cd1 Cl1 1_555 1_555
Cd2 Cl1 1_555 1_555
Cl2 Cd1 1_555 1_555
Cl3 Cd1 1_555 1_555
O2 Cd3 1_555 1_555
N6 N7 1_555 1_555
N7 Cd2 1_555 1_555
N8 Cd1 1_555 1_555
N9 N8 1_555 1_555
N10 Cd3 1_555 1_555
H1 C3 1_555 1_555
C7 N6 1_555 1_555
C8 C7 1_555 1_555
C9 C8 1_555 1_555
C10 C8 1_555 1_555
H6 C10 1_555 1_555
C11 N10 1_555 1_555
Cd6 Cl5 1_555 1_555
Cd10 N19 1_555 1_555
Cl5 Cd2 1_555 1_555
Cl8 Cd2 1_555 1_555
N12 Cd6 1_555 1_555
N14 Cd2 1_555 1_555
N16 Cd1 1_555 1_555
N18 N16 1_555 1_555
N19 C19 1_555 1_555
N20 Cd2 1_555 1_555
C16 N12 1_555 1_555
C17 C16 1_555 1_555
C18 C17 1_555 1_555
H16 C18 1_555 1_555
C19 C18 1_555 1_555
H17 C19 1_555 1_555
C20 N19 1_555 1_555
H18 C20 1_555 1_555
C21 C17 1_555 1_555
H19 C21 1_555 1_555
N7 N8 1_555 1_555
N9 C7 1_555 1_555
C10 C11 1_555 1_555
Cd6 Cl8 1_555 1_555
N12 N14 1_555 1_555
N14 N16 1_555 1_555
N18 C16 1_555 1_555
C20 C21 1_555 1_555
N5 C4 1_555 1_555
H2 C4 1_555 1_555
Cd9 N5 1_555 1_555
O3 Cd3_2 1_555 1_555
N27 C28 1_555 1_555
H23 C27 1_555 1_555
C28 O3 1_555 1_555
H24 C28 1_555 1_555
C29 N27 1_555 1_555
H25 C29 1_555 1_555
H26 C29 1_555 1_555
H27 C29 1_555 1_555
C30 N27 1_555 1_555
H28 C30 1_555 1_555
H29 C30 1_555 1_555
H30 C30 1_555 1_555
Cd3_3 O1 1_555 1_555
O1 C13 1_555 1_555
N2 N1 1_555 1_555
N3 N2 1_555 1_555
N4 N3 1_555 1_555
N11 C13 1_555 1_555
C1 N1 1_555 1_555
C2 C1 1_555 1_555
C6 C2 1_555 1_555
H4 C6 1_555 1_555
H8 C12 1_555 1_555
C13 H9 1_555 1_555
C14 N11 1_555 1_555
H10 C14 1_555 1_555
H11 C14 1_555 1_555
H12 C14 1_555 1_555
C15 N11 1_555 1_555
H13 C15 1_555 1_555
H14 C15 1_555 1_555
H15 C15 1_555 1_555
Cd6 N3 1_555 1_555
N2 Cd8 1_555 1_555
N4 C1 1_555 1_555
H3 C5 1_555 1_555
Cd4 Cl4 1_555 1_555
Cd7 Cl4 1_555 1_555
Cl6 Cd4 1_555 1_555
Cl7 Cd7 1_555 1_555
Cl9 Cd4 1_555 1_555
Cl10 Cd7 1_555 1_555
O4 Cd3_4 1_555 1_555
N15 Cd7 1_555 1_555
N17 Cd4 1_555 1_555
N21 Cd7 1_555 1_555
N22 N23 1_555 1_555
N23 Cd7 1_555 1_555
N24 Cd4 1_555 1_555
N25 N24 1_555 1_555
N26 Cd3_4 1_555 1_555
C22 N22 1_555 1_555
C23 C22 1_555 1_555
C24 C23 1_555 1_555
C25 C23 1_555 1_555
H21 C25 1_555 1_555
C26 N26 1_555 1_555
N15 N17 1_555 1_555
N23 N24 1_555 1_555
N25 C22 1_555 1_555
C25 C26 1_555 1_555
Cd1_2 Cl1_2 1_555 1_555
Cd2_2 Cl1_2 1_555 1_555
Cl2_2 Cd1_2 1_555 1_555
Cl3_2 Cd1_2 1_555 1_555
O2_2 Cd3_5 1_555 1_555
N5_2 C4_2 1_555 1_555
N6_2 N7_2 1_555 1_555
N7_2 Cd2_2 1_555 1_555
N8_2 Cd1_2 1_555 1_555
N9_2 N8_2 1_555 1_555
N10_2 Cd3_5 1_555 1_555
H1_2 C3_2 1_555 1_555
C4_2 C3_2 1_555 1_555
H2_2 C4_2 1_555 1_555
C7_2 N6_2 1_555 1_555
C8_2 C7_2 1_555 1_555
C9_2 C8_2 1_555 1_555
C10_2 C8_2 1_555 1_555
H6_2 C10_2 1_555 1_555
C11_2 N10_2 1_555 1_555
H7_2 C11_2 1_555 1_555
Cd6_2 Cl5_2 1_555 1_555
Cd9_2 N5_2 1_555 1_555
Cl5_2 Cd2_2 1_555 1_555
Cl8_2 Cd2_2 1_555 1_555
O3_2 Cd3_5 1_555 1_555
N12_2 Cd6_2 1_555 1_555
N14_2 Cd2_2 1_555 1_555
N16_2 Cd1_2 1_555 1_555
N18_2 N16_2 1_555 1_555
N20_2 Cd2_2 1_555 1_555
N27_2 C28_2 1_555 1_555
C16_2 N12_2 1_555 1_555
C17_2 C16_2 1_555 1_555
C18_2 C17_2 1_555 1_555
H16_2 C18_2 1_555 1_555
C21_2 C17_2 1_555 1_555
H19_2 C21_2 1_555 1_555
H23_2 C27_2 1_555 1_555
C28_2 O3_2 1_555 1_555
H24_2 C28_2 1_555 1_555
C29_2 N27_2 1_555 1_555
H25_2 C29_2 1_555 1_555
H26_2 C29_2 1_555 1_555
H27_2 C29_2 1_555 1_555
C30_2 N27_2 1_555 1_555
H28_2 C30_2 1_555 1_555
H29_2 C30_2 1_555 1_555
H30_2 C30_2 1_555 1_555
N7_2 N8_2 1_555 1_555
N9_2 C7_2 1_555 1_555
C10_2 C11_2 1_555 1_555
Cd6_2 Cl8_2 1_555 1_555
N12_2 N14_2 1_555 1_555
N14_2 N16_2 1_555 1_555
N18_2 C16_2 1_555 1_555
N21 C19_2 1_555 1_555
H17_2 C19_2 1_555 1_555
C20_2 N21 1_555 1_555
H18_2 C20_2 1_555 1_555
Cd3_6 O1_2 1_555 1_555
O1_2 C13_2 1_555 1_555
N2_2 N1_2 1_555 1_555
N3_2 N2_2 1_555 1_555
N4_2 N3_2 1_555 1_555
N11_2 C13_2 1_555 1_555
C1_2 N1_2 1_555 1_555
C2_2 C1_2 1_555 1_555
H3_2 C5_2 1_555 1_555
C6_2 C2_2 1_555 1_555
H4_2 C6_2 1_555 1_555
H8_2 C12_2 1_555 1_555
C13_2 H9_2 1_555 1_555
C14_2 N11_2 1_555 1_555
H10_2 C14_2 1_555 1_555
H11_2 C14_2 1_555 1_555
H12_2 C14_2 1_555 1_555
C15_2 N11_2 1_555 1_555
H13_2 C15_2 1_555 1_555
H14_2 C15_2 1_555 1_555
H15_2 C15_2 1_555 1_555
Cd4_2 Cl4_2 1_555 1_555
Cd6_2 N3_2 1_555 1_555
Cd10 Cl4_2 1_555 1_555
Cl6_2 Cd4_2 1_555 1_555
Cl7_2 Cd10 1_555 1_555
Cl9_2 Cd4_2 1_555 1_555
Cl10_2 Cd10 1_555 1_555
O4_2 Cd3_6 1_555 1_555
N15_2 Cd10 1_555 1_555
N17_2 Cd4_2 1_555 1_555
N22_2 N23_2 1_555 1_555
N23_2 Cd10 1_555 1_555
N24_2 Cd4_2 1_555 1_555
N25_2 N24_2 1_555 1_555
N26_2 Cd3_6 1_555 1_555
C22_2 N22_2 1_555 1_555
C23_2 C22_2 1_555 1_555
C24_2 C23_2 1_555 1_555
C25_2 C23_2 1_555 1_555
H21_2 C25_2 1_555 1_555
C26_2 N26_2 1_555 1_555
H22_2 C26_2 1_555 1_555
N2_2 Cd8_2 1_555 1_555
N4_2 C1_2 1_555 1_555
C5_2 C6_2 1_555 1_555
N15_2 N17_2 1_555 1_555
N23_2 N24_2 1_555 1_555
N25_2 C22_2 1_555 1_555
C25_2 C26_2 1_555 1_555
Cd3_7 O1_3 1_555 1_555
O1_3 C13_3 1_555 1_555
O2_3 Cd3_7 1_555 1_555
N11_3 C13_3 1_555 1_555
C13_3 H9_3 1_555 1_555
C14_3 N11_3 1_555 1_555
H10_3 C14_3 1_555 1_555
H11_3 C14_3 1_555 1_555
H12_3 C14_3 1_555 1_555
C15_3 N11_3 1_555 1_555
H13_3 C15_3 1_555 1_555
H14_3 C15_3 1_555 1_555
H15_3 C15_3 1_555 1_555
Cd4_3 Cl4_3 1_555 1_555
Cd9 Cl4_3 1_555 1_555
Cl7_2 Cd4_3 1_555 1_555
Cl10_2 Cd4_3 1_555 1_555
N13_3 Cd4_3 1_555 1_555
N15_3 Cd9 1_555 1_555
N17_3 Cd4_3 1_555 1_555
N22_3 N23_3 1_555 1_555
N23_3 Cd9 1_555 1_555
N24_3 Cd4_3 1_555 1_555
N25_3 N24_3 1_555 1_555
N26_3 Cd3_8 1_555 1_555
C22_3 N22_3 1_555 1_555
C23_3 C22_3 1_555 1_555
C24_3 C23_3 1_555 1_555
H20_3 C24_3 1_555 1_555
C25_3 C23_3 1_555 1_555
H21_3 C25_3 1_555 1_555
C26_3 N26_3 1_555 1_555
C27_3 N26_3 1_555 1_555
H23_3 C27_3 1_555 1_555
N15_3 N17_3 1_555 1_555
N23_3 N24_3 1_555 1_555
N25_3 C22_3 1_555 1_555
C24_3 C27_3 1_555 1_555
C25_3 C26_3 1_555 1_555
Cd6_2 Cl1_3 1_555 1_555
Cd8_2 Cl1_3 1_555 1_555
N6_3 N7_3 1_555 1_555
N7_3 Cd8_2 1_555 1_555
N8_3 Cd6_2 1_555 1_555
N9_3 N8_3 1_555 1_555
N10_3 Cd3_9 1_555 1_555
C7_3 N6_3 1_555 1_555
C8_3 C7_3 1_555 1_555
C9_3 C8_3 1_555 1_555
H5_3 C9_3 1_555 1_555
C10_3 C8_3 1_555 1_555
H6_3 C10_3 1_555 1_555
C11_3 N10_3 1_555 1_555
C12_3 N10_3 1_555 1_555
H8_3 C12_3 1_555 1_555
N20_3 Cd8_2 1_555 1_555
N7_3 N8_3 1_555 1_555
N9_3 C7_3 1_555 1_555
C9_3 C12_3 1_555 1_555
C10_3 C11_3 1_555 1_555
O3_3 Cd3_10 1_555 1_555
O4_3 Cd3_10 1_555 1_555
N27_3 C28_3 1_555 1_555
C28_3 O3_3 1_555 1_555
H24_3 C28_3 1_555 1_555
C29_3 N27_3 1_555 1_555
H25_3 C29_3 1_555 1_555
H26_3 C29_3 1_555 1_555
H27_3 C29_3 1_555 1_555
C30_3 N27_3 1_555 1_555
H28_3 C30_3 1_555 1_555
H29_3 C30_3 1_555 1_555
H30_3 C30_3 1_555 1_555
Cd6 Cl1_4 1_555 1_555
Cd8 Cl1_4 1_555 1_555
N6_4 N7_4 1_555 1_555
N7_4 Cd8 1_555 1_555
N8_4 Cd6 1_555 1_555
N9_4 N8_4 1_555 1_555
N10_4 Cd3_11 1_555 1_555
C7_4 N6_4 1_555 1_555
C8_4 C7_4 1_555 1_555
C9_4 C8_4 1_555 1_555
H5_4 C9_4 1_555 1_555
C10_4 C8_4 1_555 1_555
H6_4 C10_4 1_555 1_555
C11_4 N10_4 1_555 1_555
H7_4 C11_4 1_555 1_555
C12_4 N10_4 1_555 1_555
H8_4 C12_4 1_555 1_555
O3_4 Cd3_11 1_555 1_555
O4_4 Cd3_11 1_555 1_555
N20_4 Cd8 1_555 1_555
N27_4 C28_4 1_555 1_555
C28_4 O3_4 1_555 1_555
H24_4 C28_4 1_555 1_555
C29_4 N27_4 1_555 1_555
H25_4 C29_4 1_555 1_555
H26_4 C29_4 1_555 1_555
H27_4 C29_4 1_555 1_555
C30_4 N27_4 1_555 1_555
H28_4 C30_4 1_555 1_555
H29_4 C30_4 1_555 1_555
H30_4 C30_4 1_555 1_555
N7_4 N8_4 1_555 1_555
N9_4 C7_4 1_555 1_555
C9_4 C12_4 1_555 1_555
C10_4 C11_4 1_555 1_555
Cd3_12 O1_4 1_555 1_555
O1_4 C13_4 1_555 1_555
O2_4 Cd3_12 1_555 1_555
N11_4 C13_4 1_555 1_555
C13_4 H9_4 1_555 1_555
C14_4 N11_4 1_555 1_555
H10_4 C14_4 1_555 1_555
H11_4 C14_4 1_555 1_555
H12_4 C14_4 1_555 1_555
C15_4 N11_4 1_555 1_555
H13_4 C15_4 1_555 1_555
H14_4 C15_4 1_555 1_555
H15_4 C15_4 1_555 1_555
Cd4_4 Cl4_4 1_555 1_555
Cd9_2 Cl4_4 1_555 1_555
Cl7 Cd4_4 1_555 1_555
Cl10 Cd4_4 1_555 1_555
N13_4 Cd4_4 1_555 1_555
N15_4 Cd9_2 1_555 1_555
N17_4 Cd4_4 1_555 1_555
N22_4 N23_4 1_555 1_555
N23_4 Cd9_2 1_555 1_555
N24_4 Cd4_4 1_555 1_555
N25_4 N24_4 1_555 1_555
N26_4 Cd3_12 1_555 1_555
C22_4 N22_4 1_555 1_555
C23_4 C22_4 1_555 1_555
C24_4 C23_4 1_555 1_555
H20_4 C24_4 1_555 1_555
C25_4 C23_4 1_555 1_555
H21_4 C25_4 1_555 1_555
C26_4 N26_4 1_555 1_555
H22_4 C26_4 1_555 1_555
C27_4 N26_4 1_555 1_555
H23_4 C27_4 1_555 1_555
N15_4 N17_4 1_555 1_555
N23_4 N24_4 1_555 1_555
N25_4 C22_4 1_555 1_555
C24_4 C27_4 1_555 1_555
C25_4 C26_4 1_555 1_555
H3_3 C5_3 1_555 1_555
N15_4 N13 1_555 1_555
N4_3 N17_4 1_555 1_555
C1_3 N13 1_555 1_555
C2_3 C1_3 1_555 1_555
C6_3 C2_3 1_555 1_555
H4_3 C6_3 1_555 1_555
N4_3 C1_3 1_555 1_555
N20_3 C4_3 1_555 1_555
H2_3 C4_3 1_555 1_555
H1_3 C3_3 1_555 1_555
N18_3 N17 1_555 1_555
N20_2 C19_3 1_555 1_555
C16_3 N13_4 1_555 1_555
C17_3 C16_3 1_555 1_555
C18_3 C17_3 1_555 1_555
H16_3 C18_3 1_555 1_555
C19_3 C18_3 1_555 1_555
H17_3 C19_3 1_555 1_555
C20_3 N20_2 1_555 1_555
H18_3 C20_3 1_555 1_555
C21_3 C17_3 1_555 1_555
H19_3 C21_3 1_555 1_555
N13_4 N15 1_555 1_555
N18_3 C16_3 1_555 1_555
C20_3 C21_3 1_555 1_555
N15_3 N13_2 1_555 1_555
N4_4 N17_3 1_555 1_555
C1_4 N13_2 1_555 1_555
C2_4 C1_4 1_555 1_555
H3_4 C5_4 1_555 1_555
C6_4 C2_4 1_555 1_555
H4_4 C6_4 1_555 1_555
N4_4 C1_4 1_555 1_555
C5_4 C6_4 1_555 1_555
N20 C19_4 1_555 1_555
H17_4 C19_4 1_555 1_555
C20_4 N20 1_555 1_555
H18_4 C20_4 1_555 1_555
N20_4 C4_4 1_555 1_555
H1_4 C3_4 1_555 1_555
C4_4 C3_4 1_555 1_555
H2_4 C4_4 1_555 1_555
N18_4 N17_2 1_555 1_555
C16_4 N13_3 1_555 1_555
C17_4 C16_4 1_555 1_555
C18_4 C17_4 1_555 1_555
H16_4 C18_4 1_555 1_555
C21_4 C17_4 1_555 1_555
H19_4 C21_4 1_555 1_555
N13_3 N15_2 1_555 1_555
N18_4 C16_4 1_555 1_555

#END
