
###############################################################################
#
# This file contains modified crystal structure data generated from the
# MOF subset of the Cambridge Structural Database (CSD) v543 
# hosted by the Cambridge Crystallographic Data Centre (CCDC).
#
# This work is licensed under the Creative Commons
# Attribution-NonCommercial-ShareAlike 4.0 International License.
# To view a copy of this license, visit
# http://creativecommons.org/licenses/by-nc-sa/4.0/
# or send a letter to
# Creative Commons, PO Box 1866, Mountain View, CA 94042, USA.
#
# CIF created using the CSD Python API on 29 September 2022
# The structure has been converted into the P1 space group
# The structure has a 3D framework
# The original CSD entry GUMBIA is in the monoclinic crystal system
# The framework has been calculated to contain at least 10.0% void space
# The void calculation uses a probe of radius 1.32A, grid spacing 0.4
# The framework is charged, counterions have been retained in the structure
#
###############################################################################

data_GUMBIA
_chemical_formula_moiety         '(C168 H144 Cl8 Cu14 N24 O72)n'
_symmetry_cell_setting           triclinic
_symmetry_space_group_name_H-M   'P 1'
_symmetry_Int_Tables_number      1
_space_group_name_Hall           'P 1'
loop_
_symmetry_equiv_pos_site_id
_symmetry_equiv_pos_as_xyz
1 x,y,z
_cell_length_a                   19.791(3)
_cell_length_b                   22.674(3)
_cell_length_c                   12.8770(17)
_cell_angle_alpha                90
_cell_angle_beta                 113.271(3)
_cell_angle_gamma                90
_cell_volume                     5308.34
loop_
_atom_site_label
_atom_site_type_symbol
_atom_site_fract_x
_atom_site_fract_y
_atom_site_fract_z
Cu3 Cu 0.004438(16) 0.738848(13) 0.45202(2)
Cu5 Cu 0.0000 0.637882(17) 0.2500
N4 N 0.09571(12) 0.73317(10) 0.59210(19)
N5 N 0.03437(13) 0.82417(10) 0.46741(19)
C22 C 0.12500(16) 0.68375(15) 0.6491(3)
H19 H 0.1032 0.6473 0.6198
C23 C 0.18619(19) 0.6848(2) 0.7496(3)
H20 H 0.2063 0.6494 0.7871
C24 C 0.2170(2) 0.7371(2) 0.7937(3)
H21 H 0.2581 0.7386 0.8629
C25 C 0.1875(2) 0.7883(2) 0.7362(3)
H22 H 0.2083 0.8250 0.7660
C26 C 0.12714(15) 0.78549(14) 0.6344(2)
C27 C 0.09268(16) 0.83684(13) 0.5637(3)
C28 C 0.1165(2) 0.89425(16) 0.5903(3)
H23 H 0.1570 0.9026 0.6579
C29 C 0.0808(2) 0.93916(16) 0.5174(4)
H24 H 0.0967 0.9784 0.5343
C30 C 0.0216(2) 0.92601(14) 0.4197(4)
Cu1 Cu 0.495562(16) 0.761152(13) 0.54798(2)
Cu2 Cu 0.5000 0.862118(17) 0.7500
O1 O 0.57769(11) 0.74239(8) 0.68852(16)
O2 O 0.57671(9) 0.80480(8) 0.82350(15)
O3 O 0.51219(10) 0.84678(8) 0.55999(15)
O4 O 0.62719(12) 0.84826(9) 0.5672(2)
N1 N 0.40429(12) 0.76683(10) 0.40790(19)
N2 N 0.46563(13) 0.67583(10) 0.53259(19)
N3 N 0.57098(12) 0.92887(9) 0.79993(17)
C1 C 0.37500(16) 0.81625(15) 0.3509(3)
H1 H 0.3968 0.8527 0.3802
C2 C 0.31381(19) 0.8152(2) 0.2504(3)
H2 H 0.2937 0.8506 0.2129
C3 C 0.2830(2) 0.7629(2) 0.2063(3)
H3 H 0.2419 0.7614 0.1371
C4 C 0.3125(2) 0.7117(2) 0.2638(3)
H4 H 0.2917 0.6750 0.2340
C5 C 0.37286(15) 0.71451(14) 0.3656(2)
C6 C 0.40732(16) 0.66316(13) 0.4363(3)
C7 C 0.3835(2) 0.60575(16) 0.4097(3)
H5 H 0.3430 0.5974 0.3421
C8 C 0.4192(2) 0.56084(16) 0.4826(4)
H6 H 0.4033 0.5216 0.4657
C9 C 0.4784(2) 0.57399(14) 0.5803(4)
H7 H 0.5036 0.5440 0.6313
C10 C 0.50056(19) 0.63184(13) 0.6027(3)
H8 H 0.5415 0.6408 0.6693
C11 C 0.64426(15) 0.92379(14) 0.8483(2)
H9 H 0.6654 0.8860 0.8652
C12 C 0.68973(18) 0.97286(17) 0.8741(3)
H10 H 0.7411 0.9684 0.9079
C15 C 0.54023(15) 0.98282(11) 0.7764(2)
C16 C 0.60351(13) 0.76330(10) 0.7859(2)
C17 C 0.67324(14) 0.73675(11) 0.8655(2)
H13 H 0.6884 0.7005 0.8464
C18 C 0.71499(13) 0.76198(11) 0.9622(2)
H14 H 0.6984 0.7972 0.9829
C19 C 0.56920(15) 0.87300(11) 0.5588(2)
C20 C 0.56483(15) 0.93821(12) 0.5463(2)
H15 H 0.6090 0.9594 0.5668
C21 C 0.50203(15) 0.96830(11) 0.5078(2)
H16 H 0.4579 0.9473 0.4898
O5 O 0.56874(14) 0.74907(11) 0.4450(2)
H17 H 0.590(2) 0.7160(11) 0.462(4)
H18 H 0.6051(18) 0.7697(17) 0.485(3)
O8 O 0.42329(9) 0.80480(8) 0.67650(15)
N6 N 0.42902(12) 0.92887(9) 0.70007(17)
C32 C 0.35574(15) 0.92379(14) 0.6517(2)
H27 H 0.3346 0.8860 0.6348
C33 C 0.31027(18) 0.97286(17) 0.6259(3)
H28 H 0.2589 0.9684 0.5921
C36 C 0.45977(15) 0.98282(11) 0.7236(2)
N1_2 N 0.59571(12) 0.76683(10) 0.09210(19)
C1_2 C 0.62500(16) 0.81625(15) 0.1491(3)
H1_2 H 0.6032 0.8527 0.1198
C2_2 C 0.68619(19) 0.8152(2) 0.2496(3)
H2_2 H 0.7063 0.8506 0.2871
C3_2 C 0.7170(2) 0.7629(2) 0.2937(3)
H3_2 H 0.7581 0.7614 0.3629
C4_2 C 0.6875(2) 0.7117(2) 0.2362(3)
H4_2 H 0.7083 0.6750 0.2660
C5_2 C 0.62714(15) 0.71451(14) 0.1344(2)
C6_2 C 0.59268(16) 0.66316(13) 0.0637(3)
C7_2 C 0.6165(2) 0.60575(16) 0.0903(3)
H5_2 H 0.6570 0.5974 0.1579
C8_2 C 0.5808(2) 0.56084(16) 0.0174(4)
H6_2 H 0.5967 0.5216 0.0343
H16_2 H 0.5421 0.9473 0.0102
O5_2 O 0.43126(14) 0.74907(11) 0.0550(2)
H17_2 H 0.410(2) 0.7160(11) 0.038(4)
H18_2 H 0.3949(18) 0.7697(17) 0.015(3)
Cu1_2 Cu 0.504438(16) 0.761152(13) 0.95202(2)
O1_2 O 0.42231(11) 0.74239(8) 0.81148(16)
O3_2 O 0.48781(10) 0.84678(8) 0.94001(15)
O4_2 O 0.37281(12) 0.84826(9) 0.9328(2)
N2_2 N 0.53437(13) 0.67583(10) 0.96741(19)
C9_2 C 0.5216(2) 0.57399(14) 0.9197(4)
H7_2 H 0.4964 0.5440 0.8687
C10_2 C 0.49944(19) 0.63184(13) 0.8973(3)
H8_2 H 0.4585 0.6408 0.8307
C16_2 C 0.39649(13) 0.76330(10) 0.7141(2)
C17_2 C 0.32676(14) 0.73675(11) 0.6345(2)
H13_2 H 0.3116 0.7005 0.6536
C18_2 C 0.28501(13) 0.76198(11) 0.5378(2)
H14_2 H 0.3016 0.7972 0.5171
C19_2 C 0.43080(15) 0.87300(11) 0.9412(2)
C20_2 C 0.43517(15) 0.93821(12) 0.9537(2)
H15_2 H 0.3910 0.9594 0.9332
C21_2 C 0.49797(15) 0.96830(11) 0.9922(2)
O6 O 0.07769(11) 0.75761(8) 0.18852(16)
O7 O 0.07671(9) 0.69520(8) 0.32350(15)
O10 O 0.01219(10) 0.65322(8) 0.05999(15)
H25 H 0.0036 0.9560 0.1313
C31 C 0.00056(19) 0.86816(13) 0.1027(3)
H26 H 0.0415 0.8592 0.1693
C37 C 0.10351(13) 0.73670(10) 0.2859(2)
C38 C 0.17324(14) 0.76325(11) 0.3655(2)
H31 H 0.1884 0.7995 0.3464
C39 C 0.21499(13) 0.73802(11) 0.4622(2)
H32 H 0.1984 0.7028 0.4829
O12 O 0.06874(14) 0.75093(11) 0.9450(2)
H35 H 0.090(2) 0.7840(11) 0.962(4)
H36 H 0.1051(18) 0.7303(17) 0.985(3)
Cu2_2 Cu 0.0000 0.362118(17) 0.7500
O1_3 O 0.07769(11) 0.24239(8) 0.68852(16)
O2_2 O 0.07671(9) 0.30480(8) 0.82350(15)
O3_3 O 0.01219(10) 0.34678(8) 0.55999(15)
O4_3 O 0.12719(12) 0.34826(9) 0.5672(2)
N3_2 N 0.07098(12) 0.42887(9) 0.79993(17)
H7_3 H 0.0036 0.0440 0.6313
C10_3 C 0.00056(19) 0.13184(13) 0.6027(3)
H8_3 H 0.0415 0.1408 0.6693
C11_2 C 0.14426(15) 0.42379(14) 0.8483(2)
H9_2 H 0.1654 0.3860 0.8652
C12_2 C 0.18973(18) 0.47286(17) 0.8741(3)
H10_2 H 0.2411 0.4684 0.9079
C13 C 0.1591(2) 0.52738(16) 0.8501(3)
H11 H 0.1893 0.5610 0.8672
C14 C 0.0834(2) 0.53325(13) 0.8003(3)
H12 H 0.0616 0.5708 0.7829
C15_2 C 0.04023(15) 0.48282(11) 0.7764(2)
C16_3 C 0.10351(13) 0.26330(10) 0.7859(2)
C17_3 C 0.17324(14) 0.23675(11) 0.8655(2)
H13_3 H 0.1884 0.2005 0.8464
C18_3 C 0.21499(13) 0.26198(11) 0.9622(2)
H14_3 H 0.1984 0.2972 0.9829
C19_3 C 0.06920(15) 0.37300(11) 0.5588(2)
C20_3 C 0.06483(15) 0.43821(12) 0.5463(2)
H15_3 H 0.1090 0.4594 0.5668
C21_3 C 0.00203(15) 0.46830(11) 0.5078(2)
O5_3 O 0.06874(14) 0.24907(11) 0.4450(2)
H17_3 H 0.090(2) 0.2160(11) 0.462(4)
H18_3 H 0.1051(18) 0.2697(17) 0.485(3)
H34 H 0.0421 0.5527 0.5102
N1_3 N 0.09571(12) 0.26683(10) 0.09210(19)
C1_3 C 0.12500(16) 0.31625(15) 0.1491(3)
H1_3 H 0.1032 0.3527 0.1198
C2_3 C 0.18619(19) 0.3152(2) 0.2496(3)
H2_3 H 0.2063 0.3506 0.2871
C3_3 C 0.2170(2) 0.2629(2) 0.2937(3)
H3_3 H 0.2581 0.2614 0.3629
C4_3 C 0.1875(2) 0.2117(2) 0.2362(3)
H4_3 H 0.2083 0.1750 0.2660
C5_3 C 0.12714(15) 0.21451(14) 0.1344(2)
C6_3 C 0.09268(16) 0.16316(13) 0.0637(3)
C7_3 C 0.1165(2) 0.10575(16) 0.0903(3)
H5_3 H 0.1570 0.0974 0.1579
C8_3 C 0.0808(2) 0.06084(16) 0.0174(4)
H6_3 H 0.0967 0.0216 0.0343
H16_3 H 0.0421 0.4473 0.0102
O11 O 0.12719(12) 0.65174(9) 0.0672(2)
C40 C 0.06920(15) 0.62700(11) 0.0588(2)
C41 C 0.06483(15) 0.56179(12) 0.0463(2)
H33 H 0.1090 0.5406 0.0668
C42 C 0.00203(15) 0.53170(11) 0.0078(2)
Cu1_3 Cu 0.004438(16) 0.261152(13) 0.95202(2)
N2_3 N 0.03437(13) 0.17583(10) 0.96741(19)
C9_3 C 0.0216(2) 0.07399(14) 0.9197(4)
C13_2 C 0.3409(2) 0.97262(16) 0.1499(3)
H11_2 H 0.3107 0.9390 0.1328
C14_2 C 0.4166(2) 0.96675(13) 0.1997(3)
H12_2 H 0.4384 0.9292 0.2171
C34 C 0.6591(2) 0.97262(16) 0.3501(3)
H29 H 0.6893 0.9390 0.3672
C35 C 0.5834(2) 0.96675(13) 0.3003(3)
H30 H 0.5616 0.9292 0.2829
N6_2 N 0.07098(12) 0.57113(9) 0.29993(17)
C32_2 C 0.14426(15) 0.57621(14) 0.3483(2)
H27_2 H 0.1654 0.6140 0.3652
C33_2 C 0.18973(18) 0.52714(17) 0.3741(3)
H28_2 H 0.2411 0.5316 0.4079
C34_2 C 0.1591(2) 0.47262(16) 0.3501(3)
H29_2 H 0.1893 0.4390 0.3672
C35_2 C 0.0834(2) 0.46675(13) 0.3003(3)
H30_2 H 0.0616 0.4292 0.2829
C36_2 C 0.04023(15) 0.51718(11) 0.2764(2)
C13_3 C 0.6591(2) 0.02738(16) 0.8501(3)
H11_3 H 0.6893 0.0610 0.8672
C14_3 C 0.5834(2) 0.03325(13) 0.8003(3)
H12_3 H 0.5616 0.0708 0.7829
Cu4 Cu 0.504438(16) 0.238848(13) 0.45202(2)
O9 O 0.48781(10) 0.15322(8) 0.44001(15)
O11_2 O 0.37281(12) 0.15174(9) 0.4328(2)
C34_3 C 0.3409(2) 0.02738(16) 0.6499(3)
H29_3 H 0.3107 0.0610 0.6328
C35_3 C 0.4166(2) 0.03325(13) 0.6997(3)
H30_3 H 0.4384 0.0708 0.7171
C40_2 C 0.43080(15) 0.12700(11) 0.4412(2)
C41_2 C 0.43517(15) 0.06179(12) 0.4537(2)
H33_2 H 0.3910 0.0406 0.4332
C42_2 C 0.49797(15) 0.03170(11) 0.4922(2)
H34_2 H 0.5421 0.0527 0.5102
Cu5_2 Cu 1.0000 0.637882(17) 0.2500
O6_2 O 0.92231(11) 0.75761(8) 0.31148(16)
O7_2 O 0.92329(9) 0.69520(8) 0.17650(15)
O10_2 O 0.98781(10) 0.65322(8) 0.44001(15)
H25_2 H 0.9964 0.9560 0.3687
C31_2 C 0.99944(19) 0.86816(13) 0.3973(3)
H26_2 H 0.9585 0.8592 0.3307
C37_2 C 0.89649(13) 0.73670(10) 0.2141(2)
C38_2 C 0.82676(14) 0.76325(11) 0.1345(2)
H31_2 H 0.8116 0.7995 0.1536
C39_2 C 0.78501(13) 0.73802(11) 0.0378(2)
H32_2 H 0.8016 0.7028 0.0171
O12_2 O 0.93126(14) 0.75093(11) 0.5550(2)
H35_2 H 0.910(2) 0.7840(11) 0.538(4)
H36_2 H 0.8949(18) 0.7303(17) 0.515(3)
Cu4_2 Cu 0.495562(16) 0.238848(13) 0.04798(2)
O9_2 O 0.51219(10) 0.15322(8) 0.05999(15)
O11_3 O 0.62719(12) 0.15174(9) 0.0672(2)
C40_3 C 0.56920(15) 0.12700(11) 0.0588(2)
C41_3 C 0.56483(15) 0.06179(12) 0.0463(2)
H33_3 H 0.6090 0.0406 0.0668
C42_3 C 0.50203(15) 0.03170(11) 0.0078(2)
H34_3 H 0.4579 0.0527 0.9898
Cu3_2 Cu 0.995562(16) 0.738848(13) 0.04798(2)
N5_2 N 0.96563(13) 0.82417(10) 0.03259(19)
C30_2 C 0.9784(2) 0.92601(14) 0.0803(4)
N4_2 N 0.90429(12) 0.73317(10) 0.90790(19)
C22_2 C 0.87500(16) 0.68375(15) 0.8509(3)
H19_2 H 0.8968 0.6473 0.8802
C23_2 C 0.81381(19) 0.6848(2) 0.7504(3)
H20_2 H 0.7937 0.6494 0.7129
C24_2 C 0.7830(2) 0.7371(2) 0.7063(3)
H21_2 H 0.7419 0.7386 0.6371
C25_2 C 0.8125(2) 0.7883(2) 0.7638(3)
H22_2 H 0.7917 0.8250 0.7340
C26_2 C 0.87286(15) 0.78549(14) 0.8656(2)
C27_2 C 0.90732(16) 0.83684(13) 0.9363(3)
C28_2 C 0.8835(2) 0.89425(16) 0.9097(3)
H23_2 H 0.8430 0.9026 0.8421
C29_2 C 0.9192(2) 0.93916(16) 0.9826(4)
H24_2 H 0.9033 0.9784 0.9657
Cu5_3 Cu 0.5000 0.137882(17) 0.2500
O6_3 O 0.42231(11) 0.25761(8) 0.31148(16)
O7_3 O 0.42329(9) 0.19520(8) 0.17650(15)
N4_3 N 0.59571(12) 0.23317(10) 0.59210(19)
N5_3 N 0.53437(13) 0.32417(10) 0.46741(19)
C22_3 C 0.62500(16) 0.18375(15) 0.6491(3)
H19_3 H 0.6032 0.1473 0.6198
C23_3 C 0.68619(19) 0.1848(2) 0.7496(3)
H20_3 H 0.7063 0.1494 0.7871
C24_3 C 0.7170(2) 0.2371(2) 0.7937(3)
H21_3 H 0.7581 0.2386 0.8629
C25_3 C 0.6875(2) 0.2883(2) 0.7362(3)
H22_3 H 0.7083 0.3250 0.7660
C26_3 C 0.62714(15) 0.28549(14) 0.6344(2)
C27_3 C 0.59268(16) 0.33684(13) 0.5637(3)
C28_3 C 0.6165(2) 0.39425(16) 0.5903(3)
H23_3 H 0.6570 0.4026 0.6579
C29_3 C 0.5808(2) 0.43916(16) 0.5174(4)
H24_3 H 0.5967 0.4784 0.5343
C30_3 C 0.5216(2) 0.42601(14) 0.4197(4)
H25_3 H 0.4964 0.4560 0.3687
C31_3 C 0.49944(19) 0.36816(13) 0.3973(3)
H26_3 H 0.4585 0.3592 0.3307
C37_3 C 0.39649(13) 0.23670(10) 0.2141(2)
C38_3 C 0.32676(14) 0.26325(11) 0.1345(2)
H31_3 H 0.3116 0.2995 0.1536
C39_3 C 0.28501(13) 0.23802(11) 0.0378(2)
H32_3 H 0.3016 0.2028 0.0171
O12_3 O 0.43126(14) 0.25093(11) 0.5550(2)
H35_3 H 0.410(2) 0.2840(11) 0.538(4)
H36_3 H 0.3949(18) 0.2303(17) 0.515(3)
Cu1_4 Cu 0.995562(16) 0.261152(13) 0.54798(2)
Cu2_3 Cu 1.0000 0.362118(17) 0.7500
N1_4 N 0.90429(12) 0.26683(10) 0.40790(19)
N2_4 N 0.96563(13) 0.17583(10) 0.53259(19)
C1_4 C 0.87500(16) 0.31625(15) 0.3509(3)
H1_4 H 0.8968 0.3527 0.3802
C2_4 C 0.81381(19) 0.3152(2) 0.2504(3)
H2_4 H 0.7937 0.3506 0.2129
C3_4 C 0.7830(2) 0.2629(2) 0.2063(3)
H3_4 H 0.7419 0.2614 0.1371
C4_4 C 0.8125(2) 0.2117(2) 0.2638(3)
H4_4 H 0.7917 0.1750 0.2340
C5_4 C 0.87286(15) 0.21451(14) 0.3656(2)
C6_4 C 0.90732(16) 0.16316(13) 0.4363(3)
C7_4 C 0.8835(2) 0.10575(16) 0.4097(3)
H5_4 H 0.8430 0.0974 0.3421
C8_4 C 0.9192(2) 0.06084(16) 0.4826(4)
H6_4 H 0.9033 0.0216 0.4657
C9_4 C 0.9784(2) 0.07399(14) 0.5803(4)
H16_4 H 0.9579 0.4473 0.4898
O8_2 O 0.92329(9) 0.30480(8) 0.67650(15)
O11_4 O 0.87281(12) 0.65174(9) 0.4328(2)
N6_3 N 0.92902(12) 0.42887(9) 0.70007(17)
C32_3 C 0.85574(15) 0.42379(14) 0.6517(2)
H27_3 H 0.8346 0.3860 0.6348
C33_3 C 0.81027(18) 0.47286(17) 0.6259(3)
H28_3 H 0.7589 0.4684 0.5921
C34_4 C 0.8409(2) 0.52738(16) 0.6499(3)
H29_4 H 0.8107 0.5610 0.6328
C35_4 C 0.9166(2) 0.53325(13) 0.6997(3)
H30_4 H 0.9384 0.5708 0.7171
C36_3 C 0.95977(15) 0.48282(11) 0.7236(2)
C40_4 C 0.93080(15) 0.62700(11) 0.4412(2)
C41_4 C 0.93517(15) 0.56179(12) 0.4537(2)
H33_4 H 0.8910 0.5406 0.4332
C42_4 C 0.99797(15) 0.53170(11) 0.4922(2)
O5_4 O 0.93126(14) 0.24907(11) 0.0550(2)
H17_4 H 0.910(2) 0.2160(11) 0.038(4)
H18_4 H 0.8949(18) 0.2697(17) 0.015(3)
O1_4 O 0.92231(11) 0.24239(8) 0.81148(16)
O3_4 O 0.98781(10) 0.34678(8) 0.94001(15)
O4_4 O 0.87281(12) 0.34826(9) 0.9328(2)
H7_4 H 0.9964 0.0440 0.8687
C10_4 C 0.99944(19) 0.13184(13) 0.8973(3)
H8_4 H 0.9585 0.1408 0.8307
C16_4 C 0.89649(13) 0.26330(10) 0.7141(2)
C17_4 C 0.82676(14) 0.23675(11) 0.6345(2)
H13_4 H 0.8116 0.2005 0.6536
C18_4 C 0.78501(13) 0.26198(11) 0.5378(2)
H14_4 H 0.8016 0.2972 0.5171
C19_4 C 0.93080(15) 0.37300(11) 0.9412(2)
C20_4 C 0.93517(15) 0.43821(12) 0.9537(2)
H15_4 H 0.8910 0.4594 0.9332
C21_4 C 0.99797(15) 0.46830(11) 0.9922(2)
O6_4 O 0.57769(11) 0.25761(8) 0.18852(16)
O7_4 O 0.57671(9) 0.19520(8) 0.32350(15)
N5_4 N 0.46563(13) 0.32417(10) 0.03259(19)
C30_4 C 0.4784(2) 0.42601(14) 0.0803(4)
H25_4 H 0.5036 0.4560 0.1313
C31_4 C 0.50056(19) 0.36816(13) 0.1027(3)
H26_4 H 0.5415 0.3592 0.1693
C37_4 C 0.60351(13) 0.23670(10) 0.2859(2)
C38_4 C 0.67324(14) 0.26325(11) 0.3655(2)
H31_4 H 0.6884 0.2995 0.3464
C39_4 C 0.71499(13) 0.23802(11) 0.4622(2)
H32_4 H 0.6984 0.2028 0.4829
H34_4 H 0.9579 0.5527 0.9898
N4_4 N 0.40429(12) 0.23317(10) 0.90790(19)
C22_4 C 0.37500(16) 0.18375(15) 0.8509(3)
H19_4 H 0.3968 0.1473 0.8802
C23_4 C 0.31381(19) 0.1848(2) 0.7504(3)
H20_4 H 0.2937 0.1494 0.7129
C24_4 C 0.2830(2) 0.2371(2) 0.7063(3)
H21_4 H 0.2419 0.2386 0.6371
C25_4 C 0.3125(2) 0.2883(2) 0.7638(3)
H22_4 H 0.2917 0.3250 0.7340
C26_4 C 0.37286(15) 0.28549(14) 0.8656(2)
C27_4 C 0.40732(16) 0.33684(13) 0.9363(3)
C28_4 C 0.3835(2) 0.39425(16) 0.9097(3)
H23_4 H 0.3430 0.4026 0.8421
C29_4 C 0.4192(2) 0.43916(16) 0.9826(4)
H24_4 H 0.4033 0.4784 0.9657
O12_4 O 0.56874(14) 0.25093(11) 0.9450(2)
H35_4 H 0.590(2) 0.2840(11) 0.962(4)
H36_4 H 0.6051(18) 0.2303(17) 0.985(3)
N3_3 N 0.42902(12) 0.07113(9) 0.20007(17)
C11_3 C 0.35574(15) 0.07621(14) 0.1517(2)
H9_3 H 0.3346 0.1140 0.1348
C12_3 C 0.31027(18) 0.02714(17) 0.1259(3)
H10_3 H 0.2589 0.0316 0.0921
C15_3 C 0.45977(15) 0.01718(11) 0.2236(2)
N6_4 N 0.57098(12) 0.07113(9) 0.29993(17)
C32_4 C 0.64426(15) 0.07621(14) 0.3483(2)
H27_4 H 0.6654 0.1140 0.3652
C33_4 C 0.68973(18) 0.02714(17) 0.3741(3)
H28_4 H 0.7411 0.0316 0.4079
C36_4 C 0.54023(15) 0.01718(11) 0.2764(2)
N3_4 N 0.92902(12) 0.57113(9) 0.20007(17)
C11_4 C 0.85574(15) 0.57621(14) 0.1517(2)
H9_4 H 0.8346 0.6140 0.1348
C12_4 C 0.81027(18) 0.52714(17) 0.1259(3)
H10_4 H 0.7589 0.5316 0.0921
C13_4 C 0.8409(2) 0.47262(16) 0.1499(3)
H11_4 H 0.8107 0.4390 0.1328
C14_4 C 0.9166(2) 0.46675(13) 0.1997(3)
H12_4 H 0.9384 0.4292 0.2171
C15_4 C 0.95977(15) 0.51718(11) 0.2236(2)
Cl1 Cl 0.79604(6) 0.94869(4) 0.19777(9)
O13 O 0.8184(2) 0.9333(2) 0.3136(3)
O14 O 0.7236(6) 0.9676(7) 0.1534(7)
O15 O 0.8405(7) 0.9961(4) 0.1859(9)
O16 O 0.8055(8) 0.9027(3) 0.1360(10)
Cl1_2 Cl 0.20396(6) 0.94869(4) 0.30223(9)
O13_2 O 0.1816(2) 0.9333(2) 0.1864(3)
O14_2 O 0.2764(6) 0.9676(7) 0.3466(7)
O15_2 O 0.1595(7) 0.9961(4) 0.3141(9)
O16_2 O 0.1945(8) 0.9027(3) 0.3640(10)
Cl1_3 Cl 0.29604(6) 0.44869(4) 0.19777(9)
O13_3 O 0.3184(2) 0.4333(2) 0.3136(3)
O14_3 O 0.2236(6) 0.4676(7) 0.1534(7)
O15_3 O 0.3405(7) 0.4961(4) 0.1859(9)
O16_3 O 0.3055(8) 0.4027(3) 0.1360(10)
Cl1_4 Cl 0.70396(6) 0.44869(4) 0.30223(9)
O13_4 O 0.6816(2) 0.4333(2) 0.1864(3)
O14_4 O 0.7764(6) 0.4676(7) 0.3466(7)
O15_4 O 0.6595(7) 0.4961(4) 0.3141(9)
O16_4 O 0.6945(8) 0.4027(3) 0.3640(10)
Cl1_5 Cl 0.20396(6) 0.05131(4) 0.80223(9)
O13_5 O 0.1816(2) 0.0667(2) 0.6864(3)
O14_5 O 0.2764(6) 0.0324(7) 0.8466(7)
O15_5 O 0.1595(7) 0.0039(4) 0.8141(9)
O16_5 O 0.1945(8) 0.0973(3) 0.8640(10)
Cl1_6 Cl 0.79604(6) 0.05131(4) 0.69777(9)
O13_6 O 0.8184(2) 0.0667(2) 0.8136(3)
O14_6 O 0.7236(6) 0.0324(7) 0.6534(7)
O15_6 O 0.8405(7) 0.0039(4) 0.6859(9)
O16_6 O 0.8055(8) 0.0973(3) 0.6360(10)
Cl1_7 Cl 0.70396(6) 0.55131(4) 0.80223(9)
O13_7 O 0.6816(2) 0.5667(2) 0.6864(3)
O14_7 O 0.7764(6) 0.5324(7) 0.8466(7)
O15_7 O 0.6595(7) 0.5039(4) 0.8141(9)
O16_7 O 0.6945(8) 0.5973(3) 0.8640(10)
Cl1_8 Cl 0.29604(6) 0.55131(4) 0.69777(9)
O13_8 O 0.3184(2) 0.5667(2) 0.8136(3)
O14_8 O 0.2236(6) 0.5324(7) 0.6534(7)
O15_8 O 0.3405(7) 0.5039(4) 0.6859(9)
O16_8 O 0.3055(8) 0.5973(3) 0.6360(10)
loop_
_geom_bond_atom_site_label_1
_geom_bond_atom_site_label_2
_geom_bond_site_symmetry_1
_geom_bond_site_symmetry_2
N4 Cu3 1_555 1_555
N5 Cu3 1_555 1_555
C22 N4 1_555 1_555
H19 C22 1_555 1_555
C23 C22 1_555 1_555
H20 C23 1_555 1_555
C24 C23 1_555 1_555
H21 C24 1_555 1_555
C25 C24 1_555 1_555
H22 C25 1_555 1_555
C26 N4 1_555 1_555
C27 N5 1_555 1_555
C28 C27 1_555 1_555
H23 C28 1_555 1_555
C29 C28 1_555 1_555
H24 C29 1_555 1_555
C30 C29 1_555 1_555
C25 C26 1_555 1_555
C26 C27 1_555 1_555
Cu1 O1 1_555 1_555
Cu2 O2 1_555 1_555
O1 C16 1_555 1_555
O2 C16 1_555 1_555
O3 Cu1 1_555 1_555
O4 C19 1_555 1_555
N1 Cu1 1_555 1_555
N2 Cu1 1_555 1_555
N3 Cu2 1_555 1_555
C1 N1 1_555 1_555
H1 C1 1_555 1_555
C2 C1 1_555 1_555
H2 C2 1_555 1_555
C3 C2 1_555 1_555
H3 C3 1_555 1_555
C4 C3 1_555 1_555
H4 C4 1_555 1_555
C5 N1 1_555 1_555
C6 N2 1_555 1_555
C7 C6 1_555 1_555
H5 C7 1_555 1_555
C8 C7 1_555 1_555
H6 C8 1_555 1_555
C9 C8 1_555 1_555
H7 C9 1_555 1_555
C10 N2 1_555 1_555
H8 C10 1_555 1_555
C11 N3 1_555 1_555
H9 C11 1_555 1_555
C12 C11 1_555 1_555
H10 C12 1_555 1_555
C15 N3 1_555 1_555
C16 C17 1_555 1_555
C17 H13 1_555 1_555
C18 C17 1_555 1_555
H14 C18 1_555 1_555
C19 O3 1_555 1_555
C20 C19 1_555 1_555
H15 C20 1_555 1_555
C21 C20 1_555 1_555
H16 C21 1_555 1_555
O5 Cu1 1_555 1_555
H17 O5 1_555 1_555
H18 O5 1_555 1_555
O8 Cu2 1_555 1_555
N6 Cu2 1_555 1_555
C32 N6 1_555 1_555
H27 C32 1_555 1_555
C33 C32 1_555 1_555
H28 C33 1_555 1_555
C36 C15 1_555 1_555
C4 C5 1_555 1_555
C5 C6 1_555 1_555
C9 C10 1_555 1_555
N6 C36 1_555 1_555
C1_2 N1_2 1_555 1_555
H1_2 C1_2 1_555 1_555
C2_2 C1_2 1_555 1_555
H2_2 C2_2 1_555 1_555
C3_2 C2_2 1_555 1_555
H3_2 C3_2 1_555 1_555
C4_2 C3_2 1_555 1_555
H4_2 C4_2 1_555 1_555
C5_2 N1_2 1_555 1_555
C7_2 C6_2 1_555 1_555
H5_2 C7_2 1_555 1_555
C8_2 C7_2 1_555 1_555
H6_2 C8_2 1_555 1_555
H17_2 O5_2 1_555 1_555
H18_2 O5_2 1_555 1_555
C4_2 C5_2 1_555 1_555
C5_2 C6_2 1_555 1_555
Cu1_2 O1_2 1_555 1_555
O1_2 C16_2 1_555 1_555
O8 C16_2 1_555 1_555
O3_2 Cu1_2 1_555 1_555
O4_2 C19_2 1_555 1_555
N2_2 Cu1_2 1_555 1_555
H7_2 C9_2 1_555 1_555
C10_2 N2_2 1_555 1_555
H8_2 C10_2 1_555 1_555
C16_2 C17_2 1_555 1_555
C17_2 H13_2 1_555 1_555
C18_2 C17_2 1_555 1_555
H14_2 C18_2 1_555 1_555
C19_2 O3_2 1_555 1_555
C20_2 C19_2 1_555 1_555
H15_2 C20_2 1_555 1_555
C21_2 C20_2 1_555 1_555
Cu5 O7 1_555 1_555
O6 C37 1_555 1_555
O7 C37 1_555 1_555
H26 C31 1_555 1_555
C37 C38 1_555 1_555
C38 H31 1_555 1_555
C39 C18_2 1_555 1_555
H32 C39 1_555 1_555
C9_2 C10_2 1_555 1_555
C38 C39 1_555 1_555
H35 O12 1_555 1_555
H36 O12 1_555 1_555
Cu2_2 O2_2 1_555 1_555
O1_3 C16_3 1_555 1_555
O2_2 C16_3 1_555 1_555
O4_3 C19_3 1_555 1_555
N3_2 Cu2_2 1_555 1_555
H8_3 C10_3 1_555 1_555
C11_2 N3_2 1_555 1_555
H9_2 C11_2 1_555 1_555
C12_2 C11_2 1_555 1_555
H10_2 C12_2 1_555 1_555
C13 C12_2 1_555 1_555
H11 C13 1_555 1_555
C14 C13 1_555 1_555
H12 C14 1_555 1_555
C15_2 N3_2 1_555 1_555
C16_3 C17_3 1_555 1_555
C17_3 H13_3 1_555 1_555
C18_3 C17_3 1_555 1_555
H14_3 C18_3 1_555 1_555
C19_3 O3_3 1_555 1_555
C20_3 C19_3 1_555 1_555
H15_3 C20_3 1_555 1_555
C21_3 C20_3 1_555 1_555
H17_3 O5_3 1_555 1_555
H18_3 O5_3 1_555 1_555
C14 C15_2 1_555 1_555
C1_3 N1_3 1_555 1_555
H1_3 C1_3 1_555 1_555
C2_3 C1_3 1_555 1_555
H2_3 C2_3 1_555 1_555
C3_3 C2_3 1_555 1_555
H3_3 C3_3 1_555 1_555
C4_3 C3_3 1_555 1_555
H4_3 C4_3 1_555 1_555
C5_3 N1_3 1_555 1_555
C7_3 C6_3 1_555 1_555
H5_3 C7_3 1_555 1_555
C8_3 C7_3 1_555 1_555
H6_3 C8_3 1_555 1_555
O10 C40 1_555 1_555
O11 C40 1_555 1_555
C40 C41 1_555 1_555
C41 H33 1_555 1_555
C4_3 C5_3 1_555 1_555
C5_3 C6_3 1_555 1_555
C41 C42 1_555 1_555
N2_3 Cu1_3 1_555 1_555
H11_2 C13_2 1_555 1_555
C14_2 C13_2 1_555 1_555
H12_2 C14_2 1_555 1_555
H29 C34 1_555 1_555
C35 C34 1_555 1_555
H30 C35 1_555 1_555
N6_2 Cu5 1_555 1_555
C32_2 N6_2 1_555 1_555
H27_2 C32_2 1_555 1_555
C33_2 C32_2 1_555 1_555
H28_2 C33_2 1_555 1_555
C34_2 C33_2 1_555 1_555
H29_2 C34_2 1_555 1_555
C35_2 C34_2 1_555 1_555
H30_2 C35_2 1_555 1_555
N6_2 C36_2 1_555 1_555
C35_2 C36_2 1_555 1_555
H11_3 C13_3 1_555 1_555
C14_3 C13_3 1_555 1_555
H12_3 C14_3 1_555 1_555
Cu4 O9 1_555 1_555
O9 C40_2 1_555 1_555
O11_2 C40_2 1_555 1_555
H29_3 C34_3 1_555 1_555
C35_3 C34_3 1_555 1_555
H30_3 C35_3 1_555 1_555
C40_2 C41_2 1_555 1_555
C41_2 H33_2 1_555 1_555
H34_2 C42_2 1_555 1_555
C41_2 C42_2 1_555 1_555
Cu5_2 O7_2 1_555 1_555
O6_2 C37_2 1_555 1_555
O7_2 C37_2 1_555 1_555
H26_2 C31_2 1_555 1_555
C37_2 C38_2 1_555 1_555
C38_2 H31_2 1_555 1_555
H32_2 C39_2 1_555 1_555
H35_2 O12_2 1_555 1_555
H36_2 O12_2 1_555 1_555
C38_2 C39_2 1_555 1_555
Cu4_2 O9_2 1_555 1_555
O9_2 C40_3 1_555 1_555
O11_3 C40_3 1_555 1_555
C40_3 C41_3 1_555 1_555
C41_3 H33_3 1_555 1_555
C41_3 C42_3 1_555 1_555
N5_2 Cu3_2 1_555 1_555
C22_2 N4_2 1_555 1_555
H19_2 C22_2 1_555 1_555
C23_2 C22_2 1_555 1_555
H20_2 C23_2 1_555 1_555
C24_2 C23_2 1_555 1_555
H21_2 C24_2 1_555 1_555
C25_2 C24_2 1_555 1_555
H22_2 C25_2 1_555 1_555
C26_2 N4_2 1_555 1_555
C28_2 C27_2 1_555 1_555
H23_2 C28_2 1_555 1_555
C29_2 C28_2 1_555 1_555
H24_2 C29_2 1_555 1_555
C25_2 C26_2 1_555 1_555
C26_2 C27_2 1_555 1_555
Cu4 O6_3 1_555 1_555
Cu5_3 O7_3 1_555 1_555
O6_3 C37_3 1_555 1_555
O7_3 C37_3 1_555 1_555
N4_3 Cu4 1_555 1_555
N5_3 Cu4 1_555 1_555
C22_3 N4_3 1_555 1_555
H19_3 C22_3 1_555 1_555
C23_3 C22_3 1_555 1_555
H20_3 C23_3 1_555 1_555
C24_3 C23_3 1_555 1_555
H21_3 C24_3 1_555 1_555
C25_3 C24_3 1_555 1_555
H22_3 C25_3 1_555 1_555
C26_3 N4_3 1_555 1_555
C27_3 N5_3 1_555 1_555
C28_3 C27_3 1_555 1_555
H23_3 C28_3 1_555 1_555
C29_3 C28_3 1_555 1_555
H24_3 C29_3 1_555 1_555
C30_3 C29_3 1_555 1_555
H25_3 C30_3 1_555 1_555
C31_3 N5_3 1_555 1_555
H26_3 C31_3 1_555 1_555
C37_3 C38_3 1_555 1_555
C38_3 H31_3 1_555 1_555
H32_3 C39_3 1_555 1_555
O12_3 Cu4 1_555 1_555
H35_3 O12_3 1_555 1_555
H36_3 O12_3 1_555 1_555
C25_3 C26_3 1_555 1_555
C26_3 C27_3 1_555 1_555
C30_3 C31_3 1_555 1_555
C38_3 C39_3 1_555 1_555
N1_4 Cu1_4 1_555 1_555
N2_4 Cu1_4 1_555 1_555
C1_4 N1_4 1_555 1_555
H1_4 C1_4 1_555 1_555
C2_4 C1_4 1_555 1_555
H2_4 C2_4 1_555 1_555
C3_4 C2_4 1_555 1_555
H3_4 C3_4 1_555 1_555
C4_4 C3_4 1_555 1_555
H4_4 C4_4 1_555 1_555
C5_4 N1_4 1_555 1_555
C6_4 N2_4 1_555 1_555
C7_4 C6_4 1_555 1_555
H5_4 C7_4 1_555 1_555
C8_4 C7_4 1_555 1_555
H6_4 C8_4 1_555 1_555
C9_4 C8_4 1_555 1_555
O8_2 Cu2_3 1_555 1_555
O10_2 C40_4 1_555 1_555
O11_4 C40_4 1_555 1_555
N6_3 Cu2_3 1_555 1_555
C32_3 N6_3 1_555 1_555
H27_3 C32_3 1_555 1_555
C33_3 C32_3 1_555 1_555
H28_3 C33_3 1_555 1_555
C34_4 C33_3 1_555 1_555
H29_4 C34_4 1_555 1_555
C35_4 C34_4 1_555 1_555
H30_4 C35_4 1_555 1_555
C40_4 C41_4 1_555 1_555
C41_4 H33_4 1_555 1_555
C4_4 C5_4 1_555 1_555
C5_4 C6_4 1_555 1_555
N6_3 C36_3 1_555 1_555
C35_4 C36_3 1_555 1_555
C41_4 C42_4 1_555 1_555
H17_4 O5_4 1_555 1_555
H18_4 O5_4 1_555 1_555
O1_4 C16_4 1_555 1_555
O8_2 C16_4 1_555 1_555
O4_4 C19_4 1_555 1_555
H8_4 C10_4 1_555 1_555
C16_4 C17_4 1_555 1_555
C17_4 H13_4 1_555 1_555
C18_4 C17_4 1_555 1_555
H14_4 C18_4 1_555 1_555
C19_4 O3_4 1_555 1_555
C20_4 C19_4 1_555 1_555
H15_4 C20_4 1_555 1_555
C21_4 C20_4 1_555 1_555
Cu4_2 O6_4 1_555 1_555
Cu5_3 O7_4 1_555 1_555
O6_4 C37_4 1_555 1_555
O7_4 C37_4 1_555 1_555
N5_4 Cu4_2 1_555 1_555
H25_4 C30_4 1_555 1_555
C31_4 N5_4 1_555 1_555
H26_4 C31_4 1_555 1_555
C37_4 C38_4 1_555 1_555
C38_4 H31_4 1_555 1_555
C39_4 C18_4 1_555 1_555
H32_4 C39_4 1_555 1_555
C30_4 C31_4 1_555 1_555
C38_4 C39_4 1_555 1_555
C22_4 N4_4 1_555 1_555
H19_4 C22_4 1_555 1_555
C23_4 C22_4 1_555 1_555
H20_4 C23_4 1_555 1_555
C24_4 C23_4 1_555 1_555
H21_4 C24_4 1_555 1_555
C25_4 C24_4 1_555 1_555
H22_4 C25_4 1_555 1_555
C26_4 N4_4 1_555 1_555
C28_4 C27_4 1_555 1_555
H23_4 C28_4 1_555 1_555
C29_4 C28_4 1_555 1_555
H24_4 C29_4 1_555 1_555
H35_4 O12_4 1_555 1_555
H36_4 O12_4 1_555 1_555
C25_4 C26_4 1_555 1_555
C26_4 C27_4 1_555 1_555
N3_3 Cu5_3 1_555 1_555
C11_3 N3_3 1_555 1_555
H9_3 C11_3 1_555 1_555
C12_3 C11_3 1_555 1_555
H10_3 C12_3 1_555 1_555
C15_3 N3_3 1_555 1_555
N6_4 Cu5_3 1_555 1_555
C32_4 N6_4 1_555 1_555
H27_4 C32_4 1_555 1_555
C33_4 C32_4 1_555 1_555
H28_4 C33_4 1_555 1_555
C36_4 C15_3 1_555 1_555
N6_4 C36_4 1_555 1_555
N3_4 Cu5_2 1_555 1_555
C11_4 N3_4 1_555 1_555
H9_4 C11_4 1_555 1_555
C12_4 C11_4 1_555 1_555
H10_4 C12_4 1_555 1_555
C13_4 C12_4 1_555 1_555
H11_4 C13_4 1_555 1_555
C14_4 C13_4 1_555 1_555
H12_4 C14_4 1_555 1_555
C15_4 N3_4 1_555 1_555
C14_4 C15_4 1_555 1_555
Cl1 O13 1_555 1_555
O14 Cl1 1_555 1_555
O15 Cl1 1_555 1_555
O16 Cl1 1_555 1_555
Cl1_2 O13_2 1_555 1_555
O14_2 Cl1_2 1_555 1_555
O15_2 Cl1_2 1_555 1_555
O16_2 Cl1_2 1_555 1_555
Cl1_3 O13_3 1_555 1_555
O14_3 Cl1_3 1_555 1_555
O15_3 Cl1_3 1_555 1_555
O16_3 Cl1_3 1_555 1_555
Cl1_4 O13_4 1_555 1_555
O14_4 Cl1_4 1_555 1_555
O15_4 Cl1_4 1_555 1_555
O16_4 Cl1_4 1_555 1_555
Cl1_5 O13_5 1_555 1_555
O14_5 Cl1_5 1_555 1_555
O15_5 Cl1_5 1_555 1_555
O16_5 Cl1_5 1_555 1_555
Cl1_6 O13_6 1_555 1_555
O14_6 Cl1_6 1_555 1_555
O15_6 Cl1_6 1_555 1_555
O16_6 Cl1_6 1_555 1_555
Cl1_7 O13_7 1_555 1_555
O14_7 Cl1_7 1_555 1_555
O15_7 Cl1_7 1_555 1_555
O16_7 Cl1_7 1_555 1_555
Cl1_8 O13_8 1_555 1_555
O14_8 Cl1_8 1_555 1_555
O15_8 Cl1_8 1_555 1_555
O16_8 Cl1_8 1_555 1_555

#END
