
###############################################################################
#
# This file contains modified crystal structure data generated from the
# MOF subset of the Cambridge Structural Database (CSD) v543 
# hosted by the Cambridge Crystallographic Data Centre (CCDC).
#
# This work is licensed under the Creative Commons
# Attribution-NonCommercial-ShareAlike 4.0 International License.
# To view a copy of this license, visit
# http://creativecommons.org/licenses/by-nc-sa/4.0/
# or send a letter to
# Creative Commons, PO Box 1866, Mountain View, CA 94042, USA.
#
# CIF created using the CSD Python API on 29 September 2022
# The structure has been converted into the P1 space group
# The structure has a 3D framework
# The original CSD entry GUNZIA is in the tetragonal crystal system
# The framework has been calculated to contain at least 10.0% void space
# The void calculation uses a probe of radius 1.32A, grid spacing 0.4
#
###############################################################################

data_GUNZIA
_chemical_formula_moiety         '(C368 H240 Cd16 N32 O48)n'
_symmetry_cell_setting           triclinic
_symmetry_space_group_name_H-M   'P 1'
_symmetry_Int_Tables_number      1
_space_group_name_Hall           'P 1'
loop_
_symmetry_equiv_pos_site_id
_symmetry_equiv_pos_as_xyz
1 x,y,z
_cell_length_a                   22.0223(12)
_cell_length_b                   22.0223(12)
_cell_length_c                   21.628(2)
_cell_angle_alpha                90
_cell_angle_beta                 90
_cell_angle_gamma                90
_cell_volume                     10489.2
loop_
_atom_site_label
_atom_site_type_symbol
_atom_site_fract_x
_atom_site_fract_y
_atom_site_fract_z
C22 C 0.4178(3) 0.0128(3) 0.0570(3)
H14 H 0.4188 0.0542 0.0672
H15 H 0.3271 0.0010 0.0736
O4 O 0.74563(19) 0.0910(2) 0.0676(2)
O5 O 0.6940(2) 0.1723(2) 0.0400(3)
C24 C 0.6967(3) 0.1168(3) 0.0509(3)
C25 C 0.6392(3) 0.0796(3) 0.0446(3)
C26 C 0.5875(3) 0.1084(3) 0.0225(3)
H16 H 0.5895 0.1490 0.0095
C27 C 0.5328(3) 0.0767(3) 0.0195(4)
H17 H 0.4978 0.0962 0.0045
C28 C 0.5296(3) 0.0158(3) 0.0388(3)
C30 C 0.6374(3) 0.0190(3) 0.0605(3)
Cd3 Cd 0.79361(2) 0.18953(2) 0.07110(2)
C13 C 0.1396(5) 0.0167(3) 0.8579(3)
H8 H 0.1208 0.0023 0.8217
C14 C 0.1406(4) 0.0790(3) 0.8700(4)
H9 H 0.1202 0.1052 0.8427
C15 C 0.1952(4) 0.0636(3) 0.9560(3)
H10 H 0.2173 0.0792 0.9897
C16 C 0.1928(5) 0.0019(3) 0.9498(3)
N2 N 0.1694(2) 0.1029(2) 0.9190(2)
Cd4 Cd 0.18953(2) 0.20639(2) 0.92890(2)
Cd1 Cd 0.20639(2) 0.81047(2) 0.07110(2)
O1 O 0.2119(2) 0.70818(17) 0.07630(19)
C1 C 0.2042(2) 0.6775(2) 0.0252(3)
O2 O 0.25437(19) 0.9090(2) 0.0676(2)
C2 C 0.2087(3) 0.6146(2) 0.0210(3)
H1 H 0.2187 0.5920 0.0564
O3 O 0.3060(2) 0.8277(2) 0.0400(3)
C17 C 0.3033(3) 0.8832(3) 0.0509(3)
C18 C 0.3608(3) 0.9204(3) 0.0446(3)
C19 C 0.4125(3) 0.8916(3) 0.0225(3)
H12 H 0.4105 0.8510 0.0095
C20 C 0.4672(3) 0.9233(3) 0.0195(4)
H13 H 0.5022 0.9038 0.0045
C21 C 0.4704(3) 0.9842(3) 0.0388(3)
C23 C 0.3626(3) 0.9810(3) 0.0605(3)
C29 C 0.5822(3) 0.9872(3) 0.0570(3)
H18 H 0.5812 0.9458 0.0672
H19 H 0.6729 0.9990 0.0736
C43 C 0.0167(3) 0.8604(5) 0.1421(3)
H27 H 0.0023 0.8792 0.1783
C44 C 0.0790(3) 0.8594(4) 0.1300(4)
H28 H 0.1052 0.8798 0.1573
C45 C 0.0636(3) 0.8048(4) 0.0440(3)
H29 H 0.0792 0.7827 0.0103
C46 C 0.0019(3) 0.8072(5) 0.0502(3)
N4 N 0.1029(2) 0.8306(2) 0.0810(2)
Cd5 Cd 0.20639(2) 0.68953(2) 0.17890(2)
O7 O 0.2119(2) 0.79182(17) 0.17370(19)
Cd2 Cd 0.81047(2) 0.79361(2) 0.92890(2)
O6 O 0.70818(17) 0.7881(2) 0.92370(19)
C31 C 0.6775(2) 0.7958(2) 0.9748(3)
C32 C 0.6146(2) 0.7913(3) 0.9790(3)
H20 H 0.5920 0.7813 0.9436
Cd6 Cd 0.68953(2) 0.79361(2) 0.82110(2)
O8 O 0.79182(17) 0.7881(2) 0.82630(19)
O9 O 0.9090(2) 0.74563(19) 0.9324(2)
O10 O 0.8277(2) 0.6940(2) 0.9600(3)
N5 N 0.8306(2) 0.8971(2) 0.9190(2)
C22_2 C 0.0128(3) 0.5822(3) 0.9430(3)
H14_2 H 0.0542 0.5812 0.9328
H15_2 H 0.0010 0.6729 0.9264
O4_2 O 0.0910(2) 0.25437(19) 0.9324(2)
O5_2 O 0.1723(2) 0.3060(2) 0.9600(3)
C24_2 C 0.1168(3) 0.3033(3) 0.9491(3)
C25_2 C 0.0796(3) 0.3608(3) 0.9554(3)
C26_2 C 0.1084(3) 0.4125(3) 0.9775(3)
H16_2 H 0.1490 0.4105 0.9905
C27_2 C 0.0767(3) 0.4672(3) 0.9805(4)
H17_2 H 0.0962 0.5022 0.9955
C28_2 C 0.0158(3) 0.4704(3) 0.9612(3)
C30_2 C 0.0190(3) 0.3626(3) 0.9395(3)
O6_2 O 0.7881(2) 0.29182(17) 0.07630(19)
C31_2 C 0.7958(2) 0.3225(2) 0.0252(3)
C32_2 C 0.7913(3) 0.3854(2) 0.0210(3)
H20_2 H 0.7813 0.4080 0.0564
Cd6_2 Cd 0.79361(2) 0.31047(2) 0.17890(2)
O8_2 O 0.7881(2) 0.20818(17) 0.17370(19)
N5_2 N 0.8971(2) 0.1694(2) 0.0810(2)
C17_2 C 0.8832(3) 0.6967(3) 0.9491(3)
C18_2 C 0.9204(3) 0.6392(3) 0.9554(3)
C19_2 C 0.8916(3) 0.5875(3) 0.9775(3)
H12_2 H 0.8510 0.5895 0.9905
C20_2 C 0.9233(3) 0.5328(3) 0.9805(4)
H13_2 H 0.9038 0.4978 0.9955
C21_2 C 0.9842(3) 0.5296(3) 0.9612(3)
C23_2 C 0.9810(3) 0.6374(3) 0.9395(3)
C29_2 C 0.9872(3) 0.4178(3) 0.9430(3)
H18_2 H 0.9458 0.4188 0.9328
H19_2 H 0.9990 0.3271 0.9264
C43_2 C 0.8604(5) 0.9833(3) 0.8579(3)
H27_2 H 0.8792 0.9977 0.8217
C44_2 C 0.8594(4) 0.9210(3) 0.8700(4)
H28_2 H 0.8798 0.8948 0.8427
C45_2 C 0.8048(4) 0.9364(3) 0.9560(3)
H29_2 H 0.7827 0.9208 0.9897
C46_2 C 0.8072(5) 0.9981(3) 0.9498(3)
O6_3 O 0.29182(17) 0.2119(2) 0.92370(19)
C31_3 C 0.3225(2) 0.2042(2) 0.9748(3)
C32_3 C 0.3854(2) 0.2087(3) 0.9790(3)
H20_3 H 0.4080 0.2187 0.9436
Cd6_3 Cd 0.31047(2) 0.20639(2) 0.82110(2)
O8_3 O 0.20818(17) 0.2119(2) 0.82630(19)
C43_3 C 0.9833(3) 0.1396(5) 0.1421(3)
H27_3 H 0.9977 0.1208 0.1783
C44_3 C 0.9210(3) 0.1406(4) 0.1300(4)
H28_3 H 0.8948 0.1202 0.1573
C45_3 C 0.9364(3) 0.1952(4) 0.0440(3)
H29_3 H 0.9208 0.2173 0.0103
C46_3 C 0.9981(3) 0.1928(5) 0.0502(3)
N1 N 0.1888(2) 0.72886(19) 0.2785(2)
C1_2 C 0.2042(2) 0.8225(2) 0.2248(3)
O2_2 O 0.25437(19) 0.5910(2) 0.1824(2)
C2_2 C 0.2087(3) 0.8854(2) 0.2290(3)
H1_2 H 0.2187 0.9080 0.1936
O3_2 O 0.3060(2) 0.6723(2) 0.2100(3)
C3 C 0.1985(3) 0.9160(3) 0.2851(4)
H2 H 0.2015 0.9586 0.2861
C4 C 0.1848(3) 0.8868(3) 0.3362(3)
H3 H 0.1777 0.9088 0.3727
C5 C 0.1806(3) 0.8225(3) 0.3370(3)
C6 C 0.1911(2) 0.7907(2) 0.2811(3)
C7 C 0.1698(3) 0.7879(3) 0.3902(3)
H4 H 0.1625 0.8076 0.4280
C8 C 0.1695(3) 0.7252(3) 0.3878(3)
H5 H 0.1634 0.7022 0.4239
C9 C 0.1784(2) 0.6965(2) 0.3309(3)
C10 C 0.1789(3) 0.6311(2) 0.3224(3)
H6 H 0.1919 0.6172 0.2835
C11 C 0.1632(4) 0.5886(3) 0.3629(3)
H7 H 0.1493 0.6016 0.4018
C12 C 0.1657(3) 0.5236(3) 0.3520(3)
C13_2 C 0.1396(5) 0.4833(3) 0.3921(3)
H8_2 H 0.1208 0.4977 0.4283
C14_2 C 0.1406(4) 0.4210(3) 0.3800(4)
H9_2 H 0.1202 0.3948 0.4073
C15_2 C 0.1952(4) 0.4364(3) 0.2940(3)
H10_2 H 0.2173 0.4208 0.2603
C16_2 C 0.1928(5) 0.4981(3) 0.3002(3)
H11 H 0.2095 0.5233 0.2695
C17_3 C 0.3033(3) 0.6168(3) 0.1991(3)
C18_3 C 0.3608(3) 0.5796(3) 0.2054(3)
C19_3 C 0.4125(3) 0.6084(3) 0.2275(3)
H12_3 H 0.4105 0.6490 0.2405
C20_3 C 0.4672(3) 0.5767(3) 0.2305(4)
H13_3 H 0.5022 0.5962 0.2455
C21_3 C 0.4704(3) 0.5158(3) 0.2112(3)
C22_3 C 0.4178(3) 0.4872(3) 0.1930(3)
H14_3 H 0.4188 0.4458 0.1828
C23_3 C 0.3626(3) 0.5190(3) 0.1895(3)
H15_3 H 0.3271 0.4990 0.1764
N2_2 N 0.1694(2) 0.3971(2) 0.3310(2)
O4_3 O 0.74563(19) 0.4090(2) 0.1824(2)
O5_3 O 0.6940(2) 0.3277(2) 0.2100(3)
C24_3 C 0.6967(3) 0.3832(3) 0.1991(3)
C25_3 C 0.6392(3) 0.4204(3) 0.2054(3)
C26_3 C 0.5875(3) 0.3916(3) 0.2275(3)
H16_3 H 0.5895 0.3510 0.2405
C27_3 C 0.5328(3) 0.4233(3) 0.2305(4)
H17_3 H 0.4978 0.4038 0.2455
C28_3 C 0.5296(3) 0.4842(3) 0.2112(3)
C29_3 C 0.5822(3) 0.5128(3) 0.1930(3)
H18_3 H 0.5812 0.5542 0.1828
C30_3 C 0.6374(3) 0.4810(3) 0.1895(3)
H19_3 H 0.6729 0.5010 0.1764
C43_4 C 0.0167(3) 0.6396(5) 0.1079(3)
H27_4 H 0.0023 0.6208 0.0717
C44_4 C 0.0790(3) 0.6406(4) 0.1200(4)
H28_4 H 0.1052 0.6202 0.0927
C45_4 C 0.0636(3) 0.6952(4) 0.2060(3)
H29_4 H 0.0792 0.7173 0.2397
C46_4 C 0.0019(3) 0.6928(5) 0.1998(3)
N4_2 N 0.1029(2) 0.6694(2) 0.1690(2)
Cd4_2 Cd 0.18953(2) 0.29361(2) 0.32110(2)
Cd2_2 Cd 0.81047(2) 0.70639(2) 0.32110(2)
O6_4 O 0.70818(17) 0.7119(2) 0.32630(19)
N3 N 0.77114(19) 0.6888(2) 0.2215(2)
C31_4 C 0.6775(2) 0.7042(2) 0.2752(3)
C32_4 C 0.6146(2) 0.7087(3) 0.2710(3)
H20_4 H 0.5920 0.7187 0.3064
C33 C 0.5840(3) 0.6985(3) 0.2149(4)
H21 H 0.5414 0.7015 0.2139
C34 C 0.6132(3) 0.6848(3) 0.1638(3)
H22 H 0.5912 0.6777 0.1273
C35 C 0.6775(3) 0.6806(3) 0.1630(3)
C36 C 0.7093(2) 0.6911(2) 0.2189(3)
C37 C 0.7121(3) 0.6698(3) 0.1098(3)
H23 H 0.6924 0.6625 0.0720
C38 C 0.7748(3) 0.6695(3) 0.1122(3)
H24 H 0.7978 0.6634 0.0761
C39 C 0.8035(2) 0.6784(2) 0.1691(3)
C40 C 0.8689(2) 0.6789(3) 0.1776(3)
H25 H 0.8828 0.6919 0.2165
C41 C 0.9114(3) 0.6632(4) 0.1371(3)
H26 H 0.8984 0.6493 0.0982
C42 C 0.9764(3) 0.6657(3) 0.1480(3)
H30 H 0.9767 0.7095 0.2305
Cd6_4 Cd 0.68953(2) 0.70639(2) 0.42890(2)
O8_4 O 0.79182(17) 0.7119(2) 0.42370(19)
O9_2 O 0.9090(2) 0.75437(19) 0.3176(2)
O10_2 O 0.8277(2) 0.8060(2) 0.2900(3)
N5_3 N 0.8306(2) 0.6029(2) 0.3310(2)
O6_5 O 0.29182(17) 0.2881(2) 0.32630(19)
N3_2 N 0.22886(19) 0.3112(2) 0.2215(2)
C31_5 C 0.3225(2) 0.2958(2) 0.2752(3)
C32_5 C 0.3854(2) 0.2913(3) 0.2710(3)
H20_5 H 0.4080 0.2813 0.3064
C33_2 C 0.4160(3) 0.3015(3) 0.2149(4)
H21_2 H 0.4586 0.2985 0.2139
C34_2 C 0.3868(3) 0.3152(3) 0.1638(3)
H22_2 H 0.4088 0.3223 0.1273
C35_2 C 0.3225(3) 0.3194(3) 0.1630(3)
C36_2 C 0.2907(2) 0.3089(2) 0.2189(3)
C37_2 C 0.2879(3) 0.3302(3) 0.1098(3)
H23_2 H 0.3076 0.3375 0.0720
C38_2 C 0.2252(3) 0.3305(3) 0.1122(3)
H24_2 H 0.2022 0.3366 0.0761
C39_2 C 0.1965(2) 0.3216(2) 0.1691(3)
C40_2 C 0.1311(2) 0.3211(3) 0.1776(3)
H25_2 H 0.1172 0.3081 0.2165
C41_2 C 0.0886(3) 0.3368(4) 0.1371(3)
H26_2 H 0.1016 0.3507 0.0982
C42_2 C 0.0236(3) 0.3343(3) 0.1480(3)
H30_2 H 0.0233 0.2905 0.2305
Cd6_5 Cd 0.31047(2) 0.29361(2) 0.42890(2)
O8_5 O 0.20818(17) 0.2881(2) 0.42370(19)
O9_3 O 0.0910(2) 0.24563(19) 0.3176(2)
O10_3 O 0.1723(2) 0.1940(2) 0.2900(3)
N1_2 N 0.8112(2) 0.27114(19) 0.2785(2)
C1_3 C 0.7958(2) 0.1775(2) 0.2248(3)
C2_3 C 0.7913(3) 0.1146(2) 0.2290(3)
H1_3 H 0.7813 0.0920 0.1936
C3_2 C 0.8015(3) 0.0840(3) 0.2851(4)
H2_2 H 0.7985 0.0414 0.2861
C4_2 C 0.8152(3) 0.1132(3) 0.3362(3)
H3_2 H 0.8223 0.0912 0.3727
C5_2 C 0.8194(3) 0.1775(3) 0.3370(3)
C6_2 C 0.8089(2) 0.2093(2) 0.2811(3)
C7_2 C 0.8302(3) 0.2121(3) 0.3902(3)
H4_2 H 0.8375 0.1924 0.4280
C8_2 C 0.8305(3) 0.2748(3) 0.3878(3)
H5_2 H 0.8366 0.2978 0.4239
C9_2 C 0.8216(2) 0.3035(2) 0.3309(3)
C10_2 C 0.8211(3) 0.3689(2) 0.3224(3)
H6_2 H 0.8081 0.3828 0.2835
C11_2 C 0.8368(4) 0.4114(3) 0.3629(3)
H7_2 H 0.8507 0.3984 0.4018
C12_2 C 0.8343(3) 0.4764(3) 0.3520(3)
C13_3 C 0.8604(5) 0.5167(3) 0.3921(3)
H8_3 H 0.8792 0.5023 0.4283
C14_3 C 0.8594(4) 0.5790(3) 0.3800(4)
H9_3 H 0.8798 0.6052 0.4073
C15_3 C 0.8048(4) 0.5636(3) 0.2940(3)
H10_3 H 0.7827 0.5792 0.2603
C16_3 C 0.8072(5) 0.5019(3) 0.3002(3)
H11_2 H 0.7905 0.4767 0.2695
C43_5 C 0.9833(3) 0.3604(5) 0.1079(3)
H27_5 H 0.9977 0.3792 0.0717
C44_5 C 0.9210(3) 0.3594(4) 0.1200(4)
H28_5 H 0.8948 0.3798 0.0927
C45_5 C 0.9364(3) 0.3048(4) 0.2060(3)
H29_5 H 0.9208 0.2827 0.2397
C46_5 C 0.9981(3) 0.3072(5) 0.1998(3)
N4_3 N 0.8971(2) 0.3306(2) 0.1690(2)
C17_4 C 0.1168(3) 0.1967(3) 0.3009(3)
C18_4 C 0.0796(3) 0.1392(3) 0.2946(3)
C19_4 C 0.1084(3) 0.0875(3) 0.2725(3)
H12_4 H 0.1490 0.0895 0.2595
C20_4 C 0.0767(3) 0.0328(3) 0.2695(4)
C21_4 C 0.0158(3) 0.0296(3) 0.2888(3)
C23_4 C 0.0190(3) 0.1374(3) 0.3105(3)
H13_4 H 0.0962 0.9978 0.2545
C29_4 C 0.0128(3) 0.9178(3) 0.3070(3)
H18_4 H 0.0542 0.9188 0.3172
H19_4 H 0.0010 0.8271 0.3236
C22_4 C 0.9872(3) 0.0822(3) 0.3070(3)
H14_4 H 0.9458 0.0812 0.3172
H15_4 H 0.9990 0.1729 0.3236
H17_4 H 0.9038 0.0022 0.2545
C24_4 C 0.8832(3) 0.8033(3) 0.3009(3)
C25_4 C 0.9204(3) 0.8608(3) 0.2946(3)
C26_4 C 0.8916(3) 0.9125(3) 0.2725(3)
H16_4 H 0.8510 0.9105 0.2595
C27_4 C 0.9233(3) 0.9672(3) 0.2695(4)
C28_4 C 0.9842(3) 0.9704(3) 0.2888(3)
C30_4 C 0.9810(3) 0.8626(3) 0.3105(3)
H13_5 H 0.0022 0.4038 0.5045
O4_4 O 0.24563(19) 0.5910(2) 0.5676(2)
O5_4 O 0.1940(2) 0.6723(2) 0.5400(3)
C24_5 C 0.1967(3) 0.6168(3) 0.5509(3)
C25_5 C 0.1392(3) 0.5796(3) 0.5446(3)
C26_5 C 0.0875(3) 0.6084(3) 0.5225(3)
H16_5 H 0.0895 0.6490 0.5095
C27_5 C 0.0328(3) 0.5767(3) 0.5195(4)
C28_5 C 0.0296(3) 0.5158(3) 0.5388(3)
C29_5 C 0.0822(3) 0.4872(3) 0.5570(3)
H18_5 H 0.0812 0.4458 0.5672
C30_5 C 0.1374(3) 0.5190(3) 0.5605(3)
H19_5 H 0.1729 0.4990 0.5736
Cd3_2 Cd 0.29361(2) 0.68953(2) 0.57110(2)
Cd1_2 Cd 0.70639(2) 0.31047(2) 0.57110(2)
O1_2 O 0.7119(2) 0.20818(17) 0.57630(19)
N1_3 N 0.6888(2) 0.27114(19) 0.4715(2)
C1_4 C 0.7042(2) 0.1775(2) 0.5252(3)
O2_3 O 0.75437(19) 0.4090(2) 0.5676(2)
C2_4 C 0.7087(3) 0.1146(2) 0.5210(3)
H1_4 H 0.7187 0.0920 0.5564
O3_3 O 0.8060(2) 0.3277(2) 0.5400(3)
C3_3 C 0.6985(3) 0.0840(3) 0.4649(4)
H2_3 H 0.7015 0.0414 0.4639
C4_3 C 0.6848(3) 0.1132(3) 0.4138(3)
H3_3 H 0.6777 0.0912 0.3773
C5_3 C 0.6806(3) 0.1775(3) 0.4130(3)
C6_3 C 0.6911(2) 0.2093(2) 0.4689(3)
C7_3 C 0.6698(3) 0.2121(3) 0.3598(3)
H4_3 H 0.6625 0.1924 0.3220
C8_3 C 0.6695(3) 0.2748(3) 0.3622(3)
H5_3 H 0.6634 0.2978 0.3261
C9_3 C 0.6784(2) 0.3035(2) 0.4191(3)
C10_3 C 0.6789(3) 0.3689(2) 0.4276(3)
H6_3 H 0.6919 0.3828 0.4665
C11_3 C 0.6632(4) 0.4114(3) 0.3871(3)
H7_3 H 0.6493 0.3984 0.3482
C12_3 C 0.6657(3) 0.4764(3) 0.3980(3)
C13_4 C 0.6396(5) 0.5167(3) 0.3579(3)
H8_4 H 0.6208 0.5023 0.3217
C14_4 C 0.6406(4) 0.5790(3) 0.3700(4)
H9_4 H 0.6202 0.6052 0.3427
C15_4 C 0.6952(4) 0.5636(3) 0.4560(3)
H10_4 H 0.7173 0.5792 0.4897
C16_4 C 0.6928(5) 0.5019(3) 0.4498(3)
H11_3 H 0.7095 0.4767 0.4805
C17_5 C 0.8033(3) 0.3832(3) 0.5509(3)
C18_5 C 0.8608(3) 0.4204(3) 0.5446(3)
C19_5 C 0.9125(3) 0.3916(3) 0.5225(3)
H12_5 H 0.9105 0.3510 0.5095
C20_5 C 0.9672(3) 0.4233(3) 0.5195(4)
C21_5 C 0.9704(3) 0.4842(3) 0.5388(3)
C22_5 C 0.9178(3) 0.5128(3) 0.5570(3)
H14_5 H 0.9188 0.5542 0.5672
C23_5 C 0.8626(3) 0.4810(3) 0.5605(3)
H15_5 H 0.8271 0.5010 0.5736
N2_3 N 0.6694(2) 0.6029(2) 0.4190(2)
H17_5 H 0.9978 0.5962 0.5045
N3_3 N 0.27114(19) 0.3112(2) 0.5285(2)
C31_6 C 0.1775(2) 0.2958(2) 0.4748(3)
C32_6 C 0.1146(2) 0.2913(3) 0.4790(3)
H20_6 H 0.0920 0.2813 0.4436
C33_3 C 0.0840(3) 0.3015(3) 0.5351(4)
H21_3 H 0.0414 0.2985 0.5361
C34_3 C 0.1132(3) 0.3152(3) 0.5862(3)
H22_3 H 0.0912 0.3223 0.6227
C35_3 C 0.1775(3) 0.3194(3) 0.5870(3)
C36_3 C 0.2093(2) 0.3089(2) 0.5311(3)
C37_3 C 0.2121(3) 0.3302(3) 0.6402(3)
H23_3 H 0.1924 0.3375 0.6780
C38_3 C 0.2748(3) 0.3305(3) 0.6378(3)
H24_3 H 0.2978 0.3366 0.6739
C39_3 C 0.3035(2) 0.3216(2) 0.5809(3)
C40_3 C 0.3689(2) 0.3211(3) 0.5724(3)
H25_3 H 0.3828 0.3081 0.5335
C41_3 C 0.4114(3) 0.3368(4) 0.6129(3)
H26_3 H 0.3984 0.3507 0.6518
C42_3 C 0.4764(3) 0.3343(3) 0.6020(3)
C43_6 C 0.5167(3) 0.3604(5) 0.6421(3)
H27_6 H 0.5023 0.3792 0.6783
C44_6 C 0.5790(3) 0.3594(4) 0.6300(4)
H28_6 H 0.6052 0.3798 0.6573
C45_6 C 0.5636(3) 0.3048(4) 0.5440(3)
H29_6 H 0.5792 0.2827 0.5103
C46_6 C 0.5019(3) 0.3072(5) 0.5502(3)
H30_3 H 0.4767 0.2905 0.5195
N4_4 N 0.6029(2) 0.3306(2) 0.5810(2)
Cd5_2 Cd 0.70639(2) 0.18953(2) 0.67890(2)
O7_2 O 0.7119(2) 0.29182(17) 0.67370(19)
O9_4 O 0.4090(2) 0.24563(19) 0.4324(2)
O10_4 O 0.3277(2) 0.1940(2) 0.4600(3)
N5_4 N 0.3306(2) 0.3971(2) 0.4190(2)
C17_6 C 0.3832(3) 0.1967(3) 0.4491(3)
C18_6 C 0.4204(3) 0.1392(3) 0.4554(3)
C19_6 C 0.3916(3) 0.0875(3) 0.4775(3)
H12_6 H 0.3510 0.0895 0.4905
C20_6 C 0.4233(3) 0.0328(3) 0.4805(4)
C21_6 C 0.4842(3) 0.0296(3) 0.4612(3)
C22_6 C 0.5128(3) 0.0822(3) 0.4430(3)
H14_6 H 0.5542 0.0812 0.4328
C23_6 C 0.4810(3) 0.1374(3) 0.4395(3)
H15_6 H 0.5010 0.1729 0.4264
H17_6 H 0.5962 0.0022 0.4955
O6_6 O 0.2881(2) 0.79182(17) 0.57630(19)
N3_4 N 0.3112(2) 0.72886(19) 0.4715(2)
C31_7 C 0.2958(2) 0.8225(2) 0.5252(3)
C32_7 C 0.2913(3) 0.8854(2) 0.5210(3)
H20_7 H 0.2813 0.9080 0.5564
C33_4 C 0.3015(3) 0.9160(3) 0.4649(4)
H21_4 H 0.2985 0.9586 0.4639
C34_4 C 0.3152(3) 0.8868(3) 0.4138(3)
H22_4 H 0.3223 0.9088 0.3773
C35_4 C 0.3194(3) 0.8225(3) 0.4130(3)
C36_4 C 0.3089(2) 0.7907(2) 0.4689(3)
C37_4 C 0.3302(3) 0.7879(3) 0.3598(3)
H23_4 H 0.3375 0.8076 0.3220
C38_4 C 0.3305(3) 0.7252(3) 0.3622(3)
H24_4 H 0.3366 0.7022 0.3261
C39_4 C 0.3216(2) 0.6965(2) 0.4191(3)
C40_4 C 0.3211(3) 0.6311(2) 0.4276(3)
H25_4 H 0.3081 0.6172 0.4665
C41_4 C 0.3368(4) 0.5886(3) 0.3871(3)
H26_4 H 0.3507 0.6016 0.3482
C42_4 C 0.3343(3) 0.5236(3) 0.3980(3)
C43_7 C 0.3604(5) 0.4833(3) 0.3579(3)
H27_7 H 0.3792 0.4977 0.3217
C44_7 C 0.3594(4) 0.4210(3) 0.3700(4)
H28_7 H 0.3798 0.3948 0.3427
C45_7 C 0.3048(4) 0.4364(3) 0.4560(3)
H29_7 H 0.2827 0.4208 0.4897
C46_7 C 0.3072(5) 0.4981(3) 0.4498(3)
H30_4 H 0.2905 0.5233 0.4805
Cd6_6 Cd 0.29361(2) 0.81047(2) 0.67890(2)
O8_6 O 0.2881(2) 0.70818(17) 0.67370(19)
N5_5 N 0.3971(2) 0.6694(2) 0.5810(2)
H13_6 H 0.4038 0.9978 0.4955
O4_5 O 0.5910(2) 0.75437(19) 0.4324(2)
O5_5 O 0.6723(2) 0.8060(2) 0.4600(3)
C24_6 C 0.6168(3) 0.8033(3) 0.4491(3)
C25_6 C 0.5796(3) 0.8608(3) 0.4554(3)
C26_6 C 0.6084(3) 0.9125(3) 0.4775(3)
H16_6 H 0.6490 0.9105 0.4905
C27_6 C 0.5767(3) 0.9672(3) 0.4805(4)
C28_6 C 0.5158(3) 0.9704(3) 0.4612(3)
C29_6 C 0.4872(3) 0.9178(3) 0.4430(3)
H18_6 H 0.4458 0.9188 0.4328
C30_6 C 0.5190(3) 0.8626(3) 0.4395(3)
H19_6 H 0.4990 0.8271 0.4264
N3_5 N 0.72886(19) 0.6888(2) 0.5285(2)
C31_8 C 0.8225(2) 0.7042(2) 0.4748(3)
C32_8 C 0.8854(2) 0.7087(3) 0.4790(3)
H20_8 H 0.9080 0.7187 0.4436
C33_5 C 0.9160(3) 0.6985(3) 0.5351(4)
H21_5 H 0.9586 0.7015 0.5361
C34_5 C 0.8868(3) 0.6848(3) 0.5862(3)
H22_5 H 0.9088 0.6777 0.6227
C35_5 C 0.8225(3) 0.6806(3) 0.5870(3)
C36_5 C 0.7907(2) 0.6911(2) 0.5311(3)
C37_5 C 0.7879(3) 0.6698(3) 0.6402(3)
H23_5 H 0.8076 0.6625 0.6780
C38_5 C 0.7252(3) 0.6695(3) 0.6378(3)
H24_5 H 0.7022 0.6634 0.6739
C39_5 C 0.6965(2) 0.6784(2) 0.5809(3)
C40_5 C 0.6311(2) 0.6789(3) 0.5724(3)
H25_5 H 0.6172 0.6919 0.5335
C41_5 C 0.5886(3) 0.6632(4) 0.6129(3)
H26_5 H 0.6016 0.6493 0.6518
C42_5 C 0.5236(3) 0.6657(3) 0.6020(3)
C43_8 C 0.4833(3) 0.6396(5) 0.6421(3)
H27_8 H 0.4977 0.6208 0.6783
C44_8 C 0.4210(3) 0.6406(4) 0.6300(4)
H28_8 H 0.3948 0.6202 0.6573
C45_8 C 0.4364(3) 0.6952(4) 0.5440(3)
H29_8 H 0.4208 0.7173 0.5103
C46_8 C 0.4981(3) 0.6928(5) 0.5502(3)
H30_5 H 0.5233 0.7095 0.5195
H13_7 H 0.0022 0.0962 0.7455
C29_7 C 0.0822(3) 0.0128(3) 0.6930(3)
H18_7 H 0.0812 0.0542 0.6828
H19_7 H 0.1729 0.0010 0.6764
O4_6 O 0.24563(19) 0.9090(2) 0.6824(2)
O5_6 O 0.1940(2) 0.8277(2) 0.7100(3)
C24_7 C 0.1967(3) 0.8832(3) 0.6991(3)
C25_7 C 0.1392(3) 0.9204(3) 0.7054(3)
C26_7 C 0.0875(3) 0.8916(3) 0.7275(3)
H16_7 H 0.0895 0.8510 0.7405
C27_7 C 0.0328(3) 0.9233(3) 0.7305(4)
C28_7 C 0.0296(3) 0.9842(3) 0.7112(3)
C30_7 C 0.1374(3) 0.9810(3) 0.6895(3)
N1_4 N 0.6888(2) 0.22886(19) 0.7785(2)
C1_5 C 0.7042(2) 0.3225(2) 0.7248(3)
O2_4 O 0.75437(19) 0.0910(2) 0.6824(2)
C2_5 C 0.7087(3) 0.3854(2) 0.7290(3)
H1_5 H 0.7187 0.4080 0.6936
O3_4 O 0.8060(2) 0.1723(2) 0.7100(3)
C3_4 C 0.6985(3) 0.4160(3) 0.7851(4)
H2_4 H 0.7015 0.4586 0.7861
C4_4 C 0.6848(3) 0.3868(3) 0.8362(3)
H3_4 H 0.6777 0.4088 0.8727
C5_4 C 0.6806(3) 0.3225(3) 0.8370(3)
C6_4 C 0.6911(2) 0.2907(2) 0.7811(3)
C7_4 C 0.6698(3) 0.2879(3) 0.8902(3)
H4_4 H 0.6625 0.3076 0.9280
C8_4 C 0.6695(3) 0.2252(3) 0.8878(3)
H5_4 H 0.6634 0.2022 0.9239
C9_4 C 0.6784(2) 0.1965(2) 0.8309(3)
C10_4 C 0.6789(3) 0.1311(2) 0.8224(3)
H6_4 H 0.6919 0.1172 0.7835
C11_4 C 0.6632(4) 0.0886(3) 0.8629(3)
H7_4 H 0.6493 0.1016 0.9018
C12_4 C 0.6657(3) 0.0236(3) 0.8520(3)
H11_4 H 0.7095 0.0233 0.7695
C17_7 C 0.8033(3) 0.1168(3) 0.6991(3)
C18_7 C 0.8608(3) 0.0796(3) 0.7054(3)
C19_7 C 0.9125(3) 0.1084(3) 0.7275(3)
H12_7 H 0.9105 0.1490 0.7405
C20_7 C 0.9672(3) 0.0767(3) 0.7305(4)
C21_7 C 0.9704(3) 0.0158(3) 0.7112(3)
C23_7 C 0.8626(3) 0.0190(3) 0.6895(3)
N3_6 N 0.27114(19) 0.1888(2) 0.7215(2)
C31_9 C 0.1775(2) 0.2042(2) 0.7752(3)
C32_9 C 0.1146(2) 0.2087(3) 0.7710(3)
H20_9 H 0.0920 0.2187 0.8064
C33_6 C 0.0840(3) 0.1985(3) 0.7149(4)
H21_6 H 0.0414 0.2015 0.7139
C34_6 C 0.1132(3) 0.1848(3) 0.6638(3)
H22_6 H 0.0912 0.1777 0.6273
C35_6 C 0.1775(3) 0.1806(3) 0.6630(3)
C36_6 C 0.2093(2) 0.1911(2) 0.7189(3)
C37_6 C 0.2121(3) 0.1698(3) 0.6098(3)
H23_6 H 0.1924 0.1625 0.5720
C38_6 C 0.2748(3) 0.1695(3) 0.6122(3)
H24_6 H 0.2978 0.1634 0.5761
C39_6 C 0.3035(2) 0.1784(2) 0.6691(3)
C40_6 C 0.3689(2) 0.1789(3) 0.6776(3)
H25_6 H 0.3828 0.1919 0.7165
C41_6 C 0.4114(3) 0.1632(4) 0.6371(3)
H26_6 H 0.3984 0.1493 0.5982
C42_6 C 0.4764(3) 0.1657(3) 0.6480(3)
C43_9 C 0.5167(3) 0.1396(5) 0.6079(3)
H27_9 H 0.5023 0.1208 0.5717
C44_9 C 0.5790(3) 0.1406(4) 0.6200(4)
H28_9 H 0.6052 0.1202 0.5927
C45_9 C 0.5636(3) 0.1952(4) 0.7060(3)
H29_9 H 0.5792 0.2173 0.7397
C46_9 C 0.5019(3) 0.1928(5) 0.6998(3)
H30_6 H 0.4767 0.2095 0.7305
N4_5 N 0.6029(2) 0.1694(2) 0.6690(2)
O9_5 O 0.4090(2) 0.25437(19) 0.8176(2)
O10_5 O 0.3277(2) 0.3060(2) 0.7900(3)
N5_6 N 0.3306(2) 0.1029(2) 0.8310(2)
C13_5 C 0.6396(5) 0.9833(3) 0.8921(3)
H8_5 H 0.6208 0.9977 0.9283
C14_5 C 0.6406(4) 0.9210(3) 0.8800(4)
H9_5 H 0.6202 0.8948 0.9073
C15_5 C 0.6952(4) 0.9364(3) 0.7940(3)
H10_5 H 0.7173 0.9208 0.7603
C16_5 C 0.6928(5) 0.9981(3) 0.8002(3)
C22_7 C 0.9178(3) 0.9872(3) 0.6930(3)
H14_7 H 0.9188 0.9458 0.6828
H15_7 H 0.8271 0.9990 0.6764
N2_4 N 0.6694(2) 0.8971(2) 0.8310(2)
H17_7 H 0.9978 0.9038 0.7455
C13_6 C 0.3604(5) 0.0167(3) 0.8921(3)
H8_6 H 0.3792 0.0023 0.9283
C14_6 C 0.3594(4) 0.0790(3) 0.8800(4)
H9_6 H 0.3798 0.1052 0.9073
C15_6 C 0.3048(4) 0.0636(3) 0.7940(3)
H10_6 H 0.2827 0.0792 0.7603
C16_6 C 0.3072(5) 0.0019(3) 0.8002(3)
N1_5 N 0.3112(2) 0.77114(19) 0.7785(2)
C1_6 C 0.2958(2) 0.6775(2) 0.7248(3)
C2_6 C 0.2913(3) 0.6146(2) 0.7290(3)
H1_6 H 0.2813 0.5920 0.6936
C3_5 C 0.3015(3) 0.5840(3) 0.7851(4)
H2_5 H 0.2985 0.5414 0.7861
C4_5 C 0.3152(3) 0.6132(3) 0.8362(3)
H3_5 H 0.3223 0.5912 0.8727
C5_5 C 0.3194(3) 0.6775(3) 0.8370(3)
C6_5 C 0.3089(2) 0.7093(2) 0.7811(3)
C7_5 C 0.3302(3) 0.7121(3) 0.8902(3)
H4_5 H 0.3375 0.6924 0.9280
C8_5 C 0.3305(3) 0.7748(3) 0.8878(3)
H5_5 H 0.3366 0.7978 0.9239
C9_5 C 0.3216(2) 0.8035(2) 0.8309(3)
C10_5 C 0.3211(3) 0.8689(2) 0.8224(3)
H6_5 H 0.3081 0.8828 0.7835
C11_5 C 0.3368(4) 0.9114(3) 0.8629(3)
H7_5 H 0.3507 0.8984 0.9018
C12_5 C 0.3343(3) 0.9764(3) 0.8520(3)
H11_5 H 0.2905 0.9767 0.7695
N3_7 N 0.72886(19) 0.8112(2) 0.7215(2)
C31_10 C 0.8225(2) 0.7958(2) 0.7752(3)
C32_10 C 0.8854(2) 0.7913(3) 0.7710(3)
H20_10 H 0.9080 0.7813 0.8064
C33_7 C 0.9160(3) 0.8015(3) 0.7149(4)
H21_7 H 0.9586 0.7985 0.7139
C34_7 C 0.8868(3) 0.8152(3) 0.6638(3)
H22_7 H 0.9088 0.8223 0.6273
C35_7 C 0.8225(3) 0.8194(3) 0.6630(3)
C36_7 C 0.7907(2) 0.8089(2) 0.7189(3)
C37_7 C 0.7879(3) 0.8302(3) 0.6098(3)
H23_7 H 0.8076 0.8375 0.5720
C38_7 C 0.7252(3) 0.8305(3) 0.6122(3)
H24_7 H 0.7022 0.8366 0.5761
C39_7 C 0.6965(2) 0.8216(2) 0.6691(3)
C40_7 C 0.6311(2) 0.8211(3) 0.6776(3)
H25_7 H 0.6172 0.8081 0.7165
C41_7 C 0.5886(3) 0.8368(4) 0.6371(3)
H26_7 H 0.6016 0.8507 0.5982
C42_7 C 0.5236(3) 0.8343(3) 0.6480(3)
C43_10 C 0.4833(3) 0.8604(5) 0.6079(3)
H27_10 H 0.4977 0.8792 0.5717
C44_10 C 0.4210(3) 0.8594(4) 0.6200(4)
H28_10 H 0.3948 0.8798 0.5927
C45_10 C 0.4364(3) 0.8048(4) 0.7060(3)
H29_10 H 0.4208 0.7827 0.7397
C46_10 C 0.4981(3) 0.8072(5) 0.6998(3)
H30_7 H 0.5233 0.7905 0.7305
N4_6 N 0.3971(2) 0.8306(2) 0.6690(2)
O9_6 O 0.5910(2) 0.74563(19) 0.8176(2)
O10_6 O 0.6723(2) 0.6940(2) 0.7900(3)
C17_8 C 0.6168(3) 0.6967(3) 0.8009(3)
C18_8 C 0.5796(3) 0.6392(3) 0.7946(3)
C19_8 C 0.6084(3) 0.5875(3) 0.7725(3)
H12_8 H 0.6490 0.5895 0.7595
C20_8 C 0.5767(3) 0.5328(3) 0.7695(4)
H13_8 H 0.5962 0.4978 0.7545
C21_8 C 0.5158(3) 0.5296(3) 0.7888(3)
C22_8 C 0.4872(3) 0.5822(3) 0.8070(3)
H14_8 H 0.4458 0.5812 0.8172
C23_8 C 0.5190(3) 0.6374(3) 0.8105(3)
H15_8 H 0.4990 0.6729 0.8236
C24_8 C 0.3832(3) 0.3033(3) 0.8009(3)
C25_8 C 0.4204(3) 0.3608(3) 0.7946(3)
C26_8 C 0.3916(3) 0.4125(3) 0.7725(3)
H16_8 H 0.3510 0.4105 0.7595
C27_8 C 0.4233(3) 0.4672(3) 0.7695(4)
H17_8 H 0.4038 0.5022 0.7545
C28_8 C 0.4842(3) 0.4704(3) 0.7888(3)
C29_8 C 0.5128(3) 0.4178(3) 0.8070(3)
H18_8 H 0.5542 0.4188 0.8172
C30_8 C 0.4810(3) 0.3626(3) 0.8105(3)
H19_8 H 0.5010 0.3271 0.8236
N1_6 N 0.1888(2) 0.77114(19) 0.9715(2)
C3_6 C 0.1985(3) 0.5840(3) 0.9649(4)
H2_6 H 0.2015 0.5414 0.9639
C4_6 C 0.1848(3) 0.6132(3) 0.9138(3)
H3_6 H 0.1777 0.5912 0.8773
C5_6 C 0.1806(3) 0.6775(3) 0.9130(3)
C6_6 C 0.1911(2) 0.7093(2) 0.9689(3)
C7_6 C 0.1698(3) 0.7121(3) 0.8598(3)
H4_6 H 0.1625 0.6924 0.8220
C8_6 C 0.1695(3) 0.7748(3) 0.8622(3)
H5_6 H 0.1634 0.7978 0.8261
C9_6 C 0.1784(2) 0.8035(2) 0.9191(3)
C10_6 C 0.1789(3) 0.8689(2) 0.9276(3)
H6_6 H 0.1919 0.8828 0.9665
C11_6 C 0.1632(4) 0.9114(3) 0.8871(3)
H7_6 H 0.1493 0.8984 0.8482
C12_6 C 0.1657(3) 0.9764(3) 0.8980(3)
H11_6 H 0.2095 0.9767 0.9805
N3_8 N 0.77114(19) 0.8112(2) 0.0285(2)
C33_8 C 0.5840(3) 0.8015(3) 0.0351(4)
H21_8 H 0.5414 0.7985 0.0361
C34_8 C 0.6132(3) 0.8152(3) 0.0862(3)
H22_8 H 0.5912 0.8223 0.1227
C35_8 C 0.6775(3) 0.8194(3) 0.0870(3)
C36_8 C 0.7093(2) 0.8089(2) 0.0311(3)
C37_8 C 0.7121(3) 0.8302(3) 0.1402(3)
H23_8 H 0.6924 0.8375 0.1780
C38_8 C 0.7748(3) 0.8305(3) 0.1378(3)
H24_8 H 0.7978 0.8366 0.1739
C39_8 C 0.8035(2) 0.8216(2) 0.0809(3)
C40_8 C 0.8689(2) 0.8211(3) 0.0724(3)
H25_8 H 0.8828 0.8081 0.0335
C41_8 C 0.9114(3) 0.8368(4) 0.1129(3)
H26_8 H 0.8984 0.8507 0.1518
C42_8 C 0.9764(3) 0.8343(3) 0.1020(3)
H30_8 H 0.9767 0.7905 0.0195
N3_9 N 0.8112(2) 0.22886(19) 0.9715(2)
C33_9 C 0.8015(3) 0.4160(3) 0.9649(4)
H21_9 H 0.7985 0.4586 0.9639
C34_9 C 0.8152(3) 0.3868(3) 0.9138(3)
H22_9 H 0.8223 0.4088 0.8773
C35_9 C 0.8194(3) 0.3225(3) 0.9130(3)
C36_9 C 0.8089(2) 0.2907(2) 0.9689(3)
C37_9 C 0.8302(3) 0.2879(3) 0.8598(3)
H23_9 H 0.8375 0.3076 0.8220
C38_9 C 0.8305(3) 0.2252(3) 0.8622(3)
H24_9 H 0.8366 0.2022 0.8261
C39_9 C 0.8216(2) 0.1965(2) 0.9191(3)
C40_9 C 0.8211(3) 0.1311(2) 0.9276(3)
H25_9 H 0.8081 0.1172 0.9665
C41_9 C 0.8368(4) 0.0886(3) 0.8871(3)
H26_9 H 0.8507 0.1016 0.8482
C42_9 C 0.8343(3) 0.0236(3) 0.8980(3)
H30_9 H 0.7905 0.0233 0.9805
N3_10 N 0.22886(19) 0.1888(2) 0.0285(2)
C33_10 C 0.4160(3) 0.1985(3) 0.0351(4)
H21_10 H 0.4586 0.2015 0.0361
C34_10 C 0.3868(3) 0.1848(3) 0.0862(3)
H22_10 H 0.4088 0.1777 0.1227
C35_10 C 0.3225(3) 0.1806(3) 0.0870(3)
C36_10 C 0.2907(2) 0.1911(2) 0.0311(3)
C37_10 C 0.2879(3) 0.1698(3) 0.1402(3)
H23_10 H 0.3076 0.1625 0.1780
C38_10 C 0.2252(3) 0.1695(3) 0.1378(3)
H24_10 H 0.2022 0.1634 0.1739
C39_10 C 0.1965(2) 0.1784(2) 0.0809(3)
C40_10 C 0.1311(2) 0.1789(3) 0.0724(3)
H25_10 H 0.1172 0.1919 0.0335
C41_10 C 0.0886(3) 0.1632(4) 0.1129(3)
H26_10 H 0.1016 0.1493 0.1518
C42_10 C 0.0236(3) 0.1657(3) 0.1020(3)
H30_10 H 0.0233 0.2095 0.0195
loop_
_geom_bond_atom_site_label_1
_geom_bond_atom_site_label_2
_geom_bond_site_symmetry_1
_geom_bond_site_symmetry_2
H14 C22 1_555 1_555
O4 C24 1_555 1_555
O5 C24 1_555 1_555
C24 C25 1_555 1_555
C25 C26 1_555 1_555
C26 H16 1_555 1_555
C27 C26 1_555 1_555
H17 C27 1_555 1_555
C30 C25 1_555 1_555
Cd3 O4 1_555 1_555
O5 Cd3 1_555 1_555
C27 C28 1_555 1_555
H8 C13 1_555 1_555
C14 C13 1_555 1_555
H9 C14 1_555 1_555
C15 H10 1_555 1_555
N2 C14 1_555 1_555
Cd4 N2 1_555 1_555
C15 C16 1_555 1_555
C15 N2 1_555 1_555
Cd1 O1 1_555 1_555
O1 C1 1_555 1_555
C1 C2 1_555 1_555
O2 Cd1 1_555 1_555
C2 H1 1_555 1_555
O3 Cd1 1_555 1_555
C17 O2 1_555 1_555
C18 C17 1_555 1_555
C19 C18 1_555 1_555
H12 C19 1_555 1_555
C20 C19 1_555 1_555
H13 C20 1_555 1_555
C21 C20 1_555 1_555
C23 C18 1_555 1_555
H18 C29 1_555 1_555
H27 C43 1_555 1_555
C44 C43 1_555 1_555
H28 C44 1_555 1_555
C45 H29 1_555 1_555
N4 Cd1 1_555 1_555
Cd5 O1 1_555 1_555
O7 Cd1 1_555 1_555
O3 C17 1_555 1_555
C44 N4 1_555 1_555
C45 C46 1_555 1_555
C45 N4 1_555 1_555
Cd5 O7 1_555 1_555
Cd2 O6 1_555 1_555
O6 C31 1_555 1_555
C31 C32 1_555 1_555
C32 H20 1_555 1_555
Cd6 O6 1_555 1_555
O8 Cd2 1_555 1_555
O9 Cd2 1_555 1_555
O10 Cd2 1_555 1_555
N5 Cd2 1_555 1_555
Cd6 O8 1_555 1_555
H14_2 C22_2 1_555 1_555
O4_2 C24_2 1_555 1_555
O5_2 C24_2 1_555 1_555
C24_2 C25_2 1_555 1_555
C25_2 C26_2 1_555 1_555
C26_2 H16_2 1_555 1_555
C27_2 C26_2 1_555 1_555
H17_2 C27_2 1_555 1_555
C30_2 C25_2 1_555 1_555
Cd4 O4_2 1_555 1_555
O5_2 Cd4 1_555 1_555
C27_2 C28_2 1_555 1_555
Cd3 O6_2 1_555 1_555
O6_2 C31_2 1_555 1_555
C31_2 C32_2 1_555 1_555
C32_2 H20_2 1_555 1_555
Cd6_2 O6_2 1_555 1_555
O8_2 Cd3 1_555 1_555
N5_2 Cd3 1_555 1_555
Cd6_2 O8_2 1_555 1_555
C17_2 O9 1_555 1_555
C18_2 C17_2 1_555 1_555
C19_2 C18_2 1_555 1_555
H12_2 C19_2 1_555 1_555
C20_2 C19_2 1_555 1_555
H13_2 C20_2 1_555 1_555
C21_2 C20_2 1_555 1_555
C23_2 C18_2 1_555 1_555
H18_2 C29_2 1_555 1_555
H27_2 C43_2 1_555 1_555
C44_2 C43_2 1_555 1_555
H28_2 C44_2 1_555 1_555
C45_2 H29_2 1_555 1_555
O10 C17_2 1_555 1_555
C44_2 N5 1_555 1_555
C45_2 C46_2 1_555 1_555
C45_2 N5 1_555 1_555
Cd4 O6_3 1_555 1_555
O6_3 C31_3 1_555 1_555
C31_3 C32_3 1_555 1_555
C32_3 H20_3 1_555 1_555
Cd6_3 O6_3 1_555 1_555
O8_3 Cd4 1_555 1_555
Cd6_3 O8_3 1_555 1_555
H27_3 C43_3 1_555 1_555
C44_3 C43_3 1_555 1_555
H28_3 C44_3 1_555 1_555
C45_3 H29_3 1_555 1_555
C44_3 N5_2 1_555 1_555
C45_3 C46_3 1_555 1_555
C45_3 N5_2 1_555 1_555
O7 C1_2 1_555 1_555
N1 Cd5 1_555 1_555
C1_2 C2_2 1_555 1_555
O2_2 Cd5 1_555 1_555
C2_2 H1_2 1_555 1_555
O3_2 Cd5 1_555 1_555
C3 C2_2 1_555 1_555
H2 C3 1_555 1_555
C4 C3 1_555 1_555
H3 C4 1_555 1_555
C5 C4 1_555 1_555
C6 N1 1_555 1_555
C7 C5 1_555 1_555
H4 C7 1_555 1_555
C8 C7 1_555 1_555
H5 C8 1_555 1_555
C9 N1 1_555 1_555
C10 C9 1_555 1_555
H6 C10 1_555 1_555
C11 C10 1_555 1_555
H7 C11 1_555 1_555
C12 C11 1_555 1_555
C13_2 C12 1_555 1_555
H8_2 C13_2 1_555 1_555
C14_2 C13_2 1_555 1_555
H9_2 C14_2 1_555 1_555
C15_2 H10_2 1_555 1_555
C16_2 C12 1_555 1_555
H11 C16_2 1_555 1_555
C17_3 O2_2 1_555 1_555
C18_3 C17_3 1_555 1_555
C19_3 C18_3 1_555 1_555
H12_3 C19_3 1_555 1_555
C20_3 C19_3 1_555 1_555
H13_3 C20_3 1_555 1_555
C21_3 C20_3 1_555 1_555
C22_3 C21_3 1_555 1_555
H14_3 C22_3 1_555 1_555
C23_3 C18_3 1_555 1_555
H15_3 C23_3 1_555 1_555
N2_2 C14_2 1_555 1_555
O4_3 C24_3 1_555 1_555
O5_3 C24_3 1_555 1_555
C24_3 C25_3 1_555 1_555
C25_3 C26_3 1_555 1_555
C26_3 H16_3 1_555 1_555
C27_3 C26_3 1_555 1_555
H17_3 C27_3 1_555 1_555
C28_3 C21_3 1_555 1_555
C29_3 C28_3 1_555 1_555
H18_3 C29_3 1_555 1_555
C30_3 C25_3 1_555 1_555
H19_3 C30_3 1_555 1_555
H27_4 C43_4 1_555 1_555
C44_4 C43_4 1_555 1_555
H28_4 C44_4 1_555 1_555
C45_4 H29_4 1_555 1_555
N4_2 Cd5 1_555 1_555
Cd6_2 O4_3 1_555 1_555
Cd4_2 N2_2 1_555 1_555
C1_2 C6 1_555 1_555
O3_2 C17_3 1_555 1_555
C5 C6 1_555 1_555
C8 C9 1_555 1_555
C15_2 C16_2 1_555 1_555
C15_2 N2_2 1_555 1_555
C22_3 C23_3 1_555 1_555
O5_3 Cd6_2 1_555 1_555
C27_3 C28_3 1_555 1_555
C29_3 C30_3 1_555 1_555
C44_4 N4_2 1_555 1_555
C45_4 C46_4 1_555 1_555
C45_4 N4_2 1_555 1_555
Cd2_2 O6_4 1_555 1_555
O6_4 C31_4 1_555 1_555
N3 Cd2_2 1_555 1_555
C31_4 C32_4 1_555 1_555
C32_4 H20_4 1_555 1_555
C33 C32_4 1_555 1_555
H21 C33 1_555 1_555
C34 C33 1_555 1_555
H22 C34 1_555 1_555
C35 C34 1_555 1_555
C36 N3 1_555 1_555
C37 C35 1_555 1_555
H23 C37 1_555 1_555
C38 C37 1_555 1_555
H24 C38 1_555 1_555
C39 N3 1_555 1_555
C40 C39 1_555 1_555
H25 C40 1_555 1_555
C41 C40 1_555 1_555
H26 C41 1_555 1_555
C42 C41 1_555 1_555
Cd6_4 O6_4 1_555 1_555
O8_4 Cd2_2 1_555 1_555
O9_2 Cd2_2 1_555 1_555
O10_2 Cd2_2 1_555 1_555
N5_3 Cd2_2 1_555 1_555
C31_4 C36 1_555 1_555
C35 C36 1_555 1_555
C38 C39 1_555 1_555
Cd6_4 O8_4 1_555 1_555
Cd4_2 O6_5 1_555 1_555
O6_5 C31_5 1_555 1_555
N3_2 Cd4_2 1_555 1_555
C31_5 C32_5 1_555 1_555
C32_5 H20_5 1_555 1_555
C33_2 C32_5 1_555 1_555
H21_2 C33_2 1_555 1_555
C34_2 C33_2 1_555 1_555
H22_2 C34_2 1_555 1_555
C35_2 C34_2 1_555 1_555
C36_2 N3_2 1_555 1_555
C37_2 C35_2 1_555 1_555
H23_2 C37_2 1_555 1_555
C38_2 C37_2 1_555 1_555
H24_2 C38_2 1_555 1_555
C39_2 N3_2 1_555 1_555
C40_2 C39_2 1_555 1_555
H25_2 C40_2 1_555 1_555
C41_2 C40_2 1_555 1_555
H26_2 C41_2 1_555 1_555
C42_2 C41_2 1_555 1_555
Cd6_5 O6_5 1_555 1_555
O8_5 Cd4_2 1_555 1_555
O9_3 Cd4_2 1_555 1_555
O10_3 Cd4_2 1_555 1_555
C31_5 C36_2 1_555 1_555
C35_2 C36_2 1_555 1_555
C38_2 C39_2 1_555 1_555
Cd6_5 O8_5 1_555 1_555
O8_2 C1_3 1_555 1_555
N1_2 Cd6_2 1_555 1_555
C1_3 C2_3 1_555 1_555
C2_3 H1_3 1_555 1_555
C3_2 C2_3 1_555 1_555
H2_2 C3_2 1_555 1_555
C4_2 C3_2 1_555 1_555
H3_2 C4_2 1_555 1_555
C5_2 C4_2 1_555 1_555
C6_2 N1_2 1_555 1_555
C7_2 C5_2 1_555 1_555
H4_2 C7_2 1_555 1_555
C8_2 C7_2 1_555 1_555
H5_2 C8_2 1_555 1_555
C9_2 N1_2 1_555 1_555
C10_2 C9_2 1_555 1_555
H6_2 C10_2 1_555 1_555
C11_2 C10_2 1_555 1_555
H7_2 C11_2 1_555 1_555
C12_2 C11_2 1_555 1_555
C13_3 C12_2 1_555 1_555
H8_3 C13_3 1_555 1_555
C14_3 C13_3 1_555 1_555
H9_3 C14_3 1_555 1_555
C15_3 H10_3 1_555 1_555
C16_3 C12_2 1_555 1_555
H11_2 C16_3 1_555 1_555
N5_3 C14_3 1_555 1_555
H27_5 C43_5 1_555 1_555
C44_5 C43_5 1_555 1_555
H28_5 C44_5 1_555 1_555
C45_5 H29_5 1_555 1_555
N4_3 Cd6_2 1_555 1_555
C1_3 C6_2 1_555 1_555
C5_2 C6_2 1_555 1_555
C8_2 C9_2 1_555 1_555
C15_3 C16_3 1_555 1_555
C15_3 N5_3 1_555 1_555
C44_5 N4_3 1_555 1_555
C45_5 C46_5 1_555 1_555
C45_5 N4_3 1_555 1_555
C17_4 O9_3 1_555 1_555
C18_4 C17_4 1_555 1_555
C19_4 C18_4 1_555 1_555
H12_4 C19_4 1_555 1_555
C20_4 C19_4 1_555 1_555
C21_4 C20_4 1_555 1_555
C23_4 C18_4 1_555 1_555
O10_3 C17_4 1_555 1_555
H18_4 C29_4 1_555 1_555
H14_4 C22_4 1_555 1_555
O9_2 C24_4 1_555 1_555
O10_2 C24_4 1_555 1_555
C24_4 C25_4 1_555 1_555
C25_4 C26_4 1_555 1_555
C26_4 H16_4 1_555 1_555
C27_4 C26_4 1_555 1_555
C30_4 C25_4 1_555 1_555
C27_4 C28_4 1_555 1_555
O4_4 C24_5 1_555 1_555
O5_4 C24_5 1_555 1_555
C24_5 C25_5 1_555 1_555
C25_5 C26_5 1_555 1_555
C26_5 H16_5 1_555 1_555
C27_5 C26_5 1_555 1_555
C29_5 C28_5 1_555 1_555
H18_5 C29_5 1_555 1_555
C30_5 C25_5 1_555 1_555
H19_5 C30_5 1_555 1_555
Cd3_2 O4_4 1_555 1_555
O5_4 Cd3_2 1_555 1_555
C27_5 C28_5 1_555 1_555
C29_5 C30_5 1_555 1_555
Cd1_2 O1_2 1_555 1_555
O1_2 C1_4 1_555 1_555
N1_3 Cd1_2 1_555 1_555
C1_4 C2_4 1_555 1_555
O2_3 Cd1_2 1_555 1_555
C2_4 H1_4 1_555 1_555
O3_3 Cd1_2 1_555 1_555
C3_3 C2_4 1_555 1_555
H2_3 C3_3 1_555 1_555
C4_3 C3_3 1_555 1_555
H3_3 C4_3 1_555 1_555
C5_3 C4_3 1_555 1_555
C6_3 N1_3 1_555 1_555
C7_3 C5_3 1_555 1_555
H4_3 C7_3 1_555 1_555
C8_3 C7_3 1_555 1_555
H5_3 C8_3 1_555 1_555
C9_3 N1_3 1_555 1_555
C10_3 C9_3 1_555 1_555
H6_3 C10_3 1_555 1_555
C11_3 C10_3 1_555 1_555
H7_3 C11_3 1_555 1_555
C12_3 C11_3 1_555 1_555
C13_4 C12_3 1_555 1_555
H8_4 C13_4 1_555 1_555
C14_4 C13_4 1_555 1_555
H9_4 C14_4 1_555 1_555
C15_4 H10_4 1_555 1_555
C16_4 C12_3 1_555 1_555
H11_3 C16_4 1_555 1_555
C17_5 O2_3 1_555 1_555
C18_5 C17_5 1_555 1_555
C19_5 C18_5 1_555 1_555
H12_5 C19_5 1_555 1_555
C20_5 C19_5 1_555 1_555
C21_5 C20_5 1_555 1_555
C22_5 C21_5 1_555 1_555
H14_5 C22_5 1_555 1_555
C23_5 C18_5 1_555 1_555
H15_5 C23_5 1_555 1_555
N2_3 C14_4 1_555 1_555
O8_5 C31_6 1_555 1_555
N3_3 Cd6_5 1_555 1_555
C31_6 C32_6 1_555 1_555
C32_6 H20_6 1_555 1_555
C33_3 C32_6 1_555 1_555
H21_3 C33_3 1_555 1_555
C34_3 C33_3 1_555 1_555
H22_3 C34_3 1_555 1_555
C35_3 C34_3 1_555 1_555
C36_3 N3_3 1_555 1_555
C37_3 C35_3 1_555 1_555
H23_3 C37_3 1_555 1_555
C38_3 C37_3 1_555 1_555
H24_3 C38_3 1_555 1_555
C39_3 N3_3 1_555 1_555
C40_3 C39_3 1_555 1_555
H25_3 C40_3 1_555 1_555
C41_3 C40_3 1_555 1_555
H26_3 C41_3 1_555 1_555
C42_3 C41_3 1_555 1_555
C43_6 C42_3 1_555 1_555
H27_6 C43_6 1_555 1_555
C44_6 C43_6 1_555 1_555
H28_6 C44_6 1_555 1_555
C45_6 H29_6 1_555 1_555
C46_6 C42_3 1_555 1_555
H30_3 C46_6 1_555 1_555
N4_4 Cd1_2 1_555 1_555
Cd6_4 N2_3 1_555 1_555
Cd5_2 O1_2 1_555 1_555
O7_2 Cd1_2 1_555 1_555
O9_4 Cd6_5 1_555 1_555
O10_4 Cd6_5 1_555 1_555
N5_4 Cd6_5 1_555 1_555
C1_4 C6_3 1_555 1_555
O3_3 C17_5 1_555 1_555
C5_3 C6_3 1_555 1_555
C8_3 C9_3 1_555 1_555
C15_4 C16_4 1_555 1_555
C15_4 N2_3 1_555 1_555
C22_5 C23_5 1_555 1_555
C31_6 C36_3 1_555 1_555
C35_3 C36_3 1_555 1_555
C38_3 C39_3 1_555 1_555
C44_6 N4_4 1_555 1_555
C45_6 C46_6 1_555 1_555
C45_6 N4_4 1_555 1_555
Cd5_2 O7_2 1_555 1_555
C17_6 O9_4 1_555 1_555
C18_6 C17_6 1_555 1_555
C19_6 C18_6 1_555 1_555
H12_6 C19_6 1_555 1_555
C20_6 C19_6 1_555 1_555
C21_6 C20_6 1_555 1_555
C22_6 C21_6 1_555 1_555
H14_6 C22_6 1_555 1_555
C23_6 C18_6 1_555 1_555
H15_6 C23_6 1_555 1_555
Cd3_2 O6_6 1_555 1_555
O6_6 C31_7 1_555 1_555
N3_4 Cd3_2 1_555 1_555
C31_7 C32_7 1_555 1_555
C32_7 H20_7 1_555 1_555
C33_4 C32_7 1_555 1_555
H21_4 C33_4 1_555 1_555
C34_4 C33_4 1_555 1_555
H22_4 C34_4 1_555 1_555
C35_4 C34_4 1_555 1_555
C36_4 N3_4 1_555 1_555
C37_4 C35_4 1_555 1_555
H23_4 C37_4 1_555 1_555
C38_4 C37_4 1_555 1_555
H24_4 C38_4 1_555 1_555
C39_4 N3_4 1_555 1_555
C40_4 C39_4 1_555 1_555
H25_4 C40_4 1_555 1_555
C41_4 C40_4 1_555 1_555
H26_4 C41_4 1_555 1_555
C42_4 C41_4 1_555 1_555
C43_7 C42_4 1_555 1_555
H27_7 C43_7 1_555 1_555
C44_7 C43_7 1_555 1_555
H28_7 C44_7 1_555 1_555
C45_7 H29_7 1_555 1_555
C46_7 C42_4 1_555 1_555
H30_4 C46_7 1_555 1_555
Cd6_6 O6_6 1_555 1_555
O8_6 Cd3_2 1_555 1_555
N5_5 Cd3_2 1_555 1_555
O10_4 C17_6 1_555 1_555
C22_6 C23_6 1_555 1_555
C31_7 C36_4 1_555 1_555
C35_4 C36_4 1_555 1_555
C38_4 C39_4 1_555 1_555
C44_7 N5_4 1_555 1_555
C45_7 C46_7 1_555 1_555
C45_7 N5_4 1_555 1_555
Cd6_6 O8_6 1_555 1_555
O4_5 C24_6 1_555 1_555
O5_5 C24_6 1_555 1_555
C24_6 C25_6 1_555 1_555
C25_6 C26_6 1_555 1_555
C26_6 H16_6 1_555 1_555
C27_6 C26_6 1_555 1_555
C29_6 C28_6 1_555 1_555
H18_6 C29_6 1_555 1_555
C30_6 C25_6 1_555 1_555
H19_6 C30_6 1_555 1_555
Cd6_4 O4_5 1_555 1_555
O5_5 Cd6_4 1_555 1_555
C27_6 C28_6 1_555 1_555
C29_6 C30_6 1_555 1_555
O8_4 C31_8 1_555 1_555
N3_5 Cd6_4 1_555 1_555
C31_8 C32_8 1_555 1_555
C32_8 H20_8 1_555 1_555
C33_5 C32_8 1_555 1_555
H21_5 C33_5 1_555 1_555
C34_5 C33_5 1_555 1_555
H22_5 C34_5 1_555 1_555
C35_5 C34_5 1_555 1_555
C36_5 N3_5 1_555 1_555
C37_5 C35_5 1_555 1_555
H23_5 C37_5 1_555 1_555
C38_5 C37_5 1_555 1_555
H24_5 C38_5 1_555 1_555
C39_5 N3_5 1_555 1_555
C40_5 C39_5 1_555 1_555
H25_5 C40_5 1_555 1_555
C41_5 C40_5 1_555 1_555
H26_5 C41_5 1_555 1_555
C42_5 C41_5 1_555 1_555
C43_8 C42_5 1_555 1_555
H27_8 C43_8 1_555 1_555
C44_8 C43_8 1_555 1_555
H28_8 C44_8 1_555 1_555
C45_8 H29_8 1_555 1_555
C46_8 C42_5 1_555 1_555
H30_5 C46_8 1_555 1_555
C31_8 C36_5 1_555 1_555
C35_5 C36_5 1_555 1_555
C38_5 C39_5 1_555 1_555
C44_8 N5_5 1_555 1_555
C45_8 C46_8 1_555 1_555
C45_8 N5_5 1_555 1_555
H18_7 C29_7 1_555 1_555
O4_6 C24_7 1_555 1_555
O5_6 C24_7 1_555 1_555
C24_7 C25_7 1_555 1_555
C25_7 C26_7 1_555 1_555
C26_7 H16_7 1_555 1_555
C27_7 C26_7 1_555 1_555
C30_7 C25_7 1_555 1_555
Cd6_6 O4_6 1_555 1_555
O5_6 Cd6_6 1_555 1_555
C27_7 C28_7 1_555 1_555
O7_2 C1_5 1_555 1_555
N1_4 Cd5_2 1_555 1_555
C1_5 C2_5 1_555 1_555
O2_4 Cd5_2 1_555 1_555
C2_5 H1_5 1_555 1_555
O3_4 Cd5_2 1_555 1_555
C3_4 C2_5 1_555 1_555
H2_4 C3_4 1_555 1_555
C4_4 C3_4 1_555 1_555
H3_4 C4_4 1_555 1_555
C5_4 C4_4 1_555 1_555
C6_4 N1_4 1_555 1_555
C7_4 C5_4 1_555 1_555
H4_4 C7_4 1_555 1_555
C8_4 C7_4 1_555 1_555
H5_4 C8_4 1_555 1_555
C9_4 N1_4 1_555 1_555
C10_4 C9_4 1_555 1_555
H6_4 C10_4 1_555 1_555
C11_4 C10_4 1_555 1_555
H7_4 C11_4 1_555 1_555
C12_4 C11_4 1_555 1_555
C17_7 O2_4 1_555 1_555
C18_7 C17_7 1_555 1_555
C19_7 C18_7 1_555 1_555
H12_7 C19_7 1_555 1_555
C20_7 C19_7 1_555 1_555
C21_7 C20_7 1_555 1_555
C23_7 C18_7 1_555 1_555
O8_3 C31_9 1_555 1_555
N3_6 Cd6_3 1_555 1_555
C31_9 C32_9 1_555 1_555
C32_9 H20_9 1_555 1_555
C33_6 C32_9 1_555 1_555
H21_6 C33_6 1_555 1_555
C34_6 C33_6 1_555 1_555
H22_6 C34_6 1_555 1_555
C35_6 C34_6 1_555 1_555
C36_6 N3_6 1_555 1_555
C37_6 C35_6 1_555 1_555
H23_6 C37_6 1_555 1_555
C38_6 C37_6 1_555 1_555
H24_6 C38_6 1_555 1_555
C39_6 N3_6 1_555 1_555
C40_6 C39_6 1_555 1_555
H25_6 C40_6 1_555 1_555
C41_6 C40_6 1_555 1_555
H26_6 C41_6 1_555 1_555
C42_6 C41_6 1_555 1_555
C43_9 C42_6 1_555 1_555
H27_9 C43_9 1_555 1_555
C44_9 C43_9 1_555 1_555
H28_9 C44_9 1_555 1_555
C45_9 H29_9 1_555 1_555
C46_9 C42_6 1_555 1_555
H30_6 C46_9 1_555 1_555
N4_5 Cd5_2 1_555 1_555
O9_5 Cd6_3 1_555 1_555
O10_5 Cd6_3 1_555 1_555
N5_6 Cd6_3 1_555 1_555
C1_5 C6_4 1_555 1_555
O3_4 C17_7 1_555 1_555
C5_4 C6_4 1_555 1_555
C8_4 C9_4 1_555 1_555
C31_9 C36_6 1_555 1_555
C35_6 C36_6 1_555 1_555
C38_6 C39_6 1_555 1_555
C44_9 N4_5 1_555 1_555
C45_9 C46_9 1_555 1_555
C45_9 N4_5 1_555 1_555
H8_5 C13_5 1_555 1_555
C14_5 C13_5 1_555 1_555
H9_5 C14_5 1_555 1_555
C15_5 H10_5 1_555 1_555
H14_7 C22_7 1_555 1_555
N2_4 C14_5 1_555 1_555
Cd6 N2_4 1_555 1_555
C15_5 C16_5 1_555 1_555
C15_5 N2_4 1_555 1_555
H8_6 C13_6 1_555 1_555
C14_6 C13_6 1_555 1_555
H9_6 C14_6 1_555 1_555
C15_6 H10_6 1_555 1_555
N5_6 C14_6 1_555 1_555
C15_6 C16_6 1_555 1_555
C15_6 N5_6 1_555 1_555
O8_6 C1_6 1_555 1_555
N1_5 Cd6_6 1_555 1_555
C1_6 C2_6 1_555 1_555
C2_6 H1_6 1_555 1_555
C3_5 C2_6 1_555 1_555
H2_5 C3_5 1_555 1_555
C4_5 C3_5 1_555 1_555
H3_5 C4_5 1_555 1_555
C5_5 C4_5 1_555 1_555
C6_5 N1_5 1_555 1_555
C7_5 C5_5 1_555 1_555
H4_5 C7_5 1_555 1_555
C8_5 C7_5 1_555 1_555
H5_5 C8_5 1_555 1_555
C9_5 N1_5 1_555 1_555
C10_5 C9_5 1_555 1_555
H6_5 C10_5 1_555 1_555
C11_5 C10_5 1_555 1_555
H7_5 C11_5 1_555 1_555
C12_5 C11_5 1_555 1_555
O8 C31_10 1_555 1_555
N3_7 Cd6 1_555 1_555
C31_10 C32_10 1_555 1_555
C32_10 H20_10 1_555 1_555
C33_7 C32_10 1_555 1_555
H21_7 C33_7 1_555 1_555
C34_7 C33_7 1_555 1_555
H22_7 C34_7 1_555 1_555
C35_7 C34_7 1_555 1_555
C36_7 N3_7 1_555 1_555
C37_7 C35_7 1_555 1_555
H23_7 C37_7 1_555 1_555
C38_7 C37_7 1_555 1_555
H24_7 C38_7 1_555 1_555
C39_7 N3_7 1_555 1_555
C40_7 C39_7 1_555 1_555
H25_7 C40_7 1_555 1_555
C41_7 C40_7 1_555 1_555
H26_7 C41_7 1_555 1_555
C42_7 C41_7 1_555 1_555
C43_10 C42_7 1_555 1_555
H27_10 C43_10 1_555 1_555
C44_10 C43_10 1_555 1_555
H28_10 C44_10 1_555 1_555
C45_10 H29_10 1_555 1_555
C46_10 C42_7 1_555 1_555
H30_7 C46_10 1_555 1_555
N4_6 Cd6_6 1_555 1_555
O9_6 Cd6 1_555 1_555
O10_6 Cd6 1_555 1_555
C1_6 C6_5 1_555 1_555
C5_5 C6_5 1_555 1_555
C8_5 C9_5 1_555 1_555
C31_10 C36_7 1_555 1_555
C35_7 C36_7 1_555 1_555
C38_7 C39_7 1_555 1_555
C44_10 N4_6 1_555 1_555
C45_10 C46_10 1_555 1_555
C45_10 N4_6 1_555 1_555
C17_8 O9_6 1_555 1_555
C18_8 C17_8 1_555 1_555
C19_8 C18_8 1_555 1_555
H12_8 C19_8 1_555 1_555
C20_8 C19_8 1_555 1_555
H13_8 C20_8 1_555 1_555
C21_8 C20_8 1_555 1_555
C22_8 C21_8 1_555 1_555
H14_8 C22_8 1_555 1_555
C23_8 C18_8 1_555 1_555
H15_8 C23_8 1_555 1_555
O9_5 C24_8 1_555 1_555
O10_5 C24_8 1_555 1_555
C24_8 C25_8 1_555 1_555
C25_8 C26_8 1_555 1_555
C26_8 H16_8 1_555 1_555
C27_8 C26_8 1_555 1_555
H17_8 C27_8 1_555 1_555
C28_8 C21_8 1_555 1_555
C29_8 C28_8 1_555 1_555
H18_8 C29_8 1_555 1_555
C30_8 C25_8 1_555 1_555
H19_8 C30_8 1_555 1_555
O10_6 C17_8 1_555 1_555
C22_8 C23_8 1_555 1_555
C27_8 C28_8 1_555 1_555
C29_8 C30_8 1_555 1_555
H2_6 C3_6 1_555 1_555
C4_6 C3_6 1_555 1_555
H3_6 C4_6 1_555 1_555
C5_6 C4_6 1_555 1_555
C6_6 N1_6 1_555 1_555
C7_6 C5_6 1_555 1_555
H4_6 C7_6 1_555 1_555
C8_6 C7_6 1_555 1_555
H5_6 C8_6 1_555 1_555
C9_6 N1_6 1_555 1_555
C10_6 C9_6 1_555 1_555
H6_6 C10_6 1_555 1_555
C11_6 C10_6 1_555 1_555
H7_6 C11_6 1_555 1_555
C12_6 C11_6 1_555 1_555
C5_6 C6_6 1_555 1_555
C8_6 C9_6 1_555 1_555
H21_8 C33_8 1_555 1_555
C34_8 C33_8 1_555 1_555
H22_8 C34_8 1_555 1_555
C35_8 C34_8 1_555 1_555
C36_8 N3_8 1_555 1_555
C37_8 C35_8 1_555 1_555
H23_8 C37_8 1_555 1_555
C38_8 C37_8 1_555 1_555
H24_8 C38_8 1_555 1_555
C39_8 N3_8 1_555 1_555
C40_8 C39_8 1_555 1_555
H25_8 C40_8 1_555 1_555
C41_8 C40_8 1_555 1_555
H26_8 C41_8 1_555 1_555
C42_8 C41_8 1_555 1_555
C35_8 C36_8 1_555 1_555
C38_8 C39_8 1_555 1_555
H21_9 C33_9 1_555 1_555
C34_9 C33_9 1_555 1_555
H22_9 C34_9 1_555 1_555
C35_9 C34_9 1_555 1_555
C36_9 N3_9 1_555 1_555
C37_9 C35_9 1_555 1_555
H23_9 C37_9 1_555 1_555
C38_9 C37_9 1_555 1_555
H24_9 C38_9 1_555 1_555
C39_9 N3_9 1_555 1_555
C40_9 C39_9 1_555 1_555
H25_9 C40_9 1_555 1_555
C41_9 C40_9 1_555 1_555
H26_9 C41_9 1_555 1_555
C42_9 C41_9 1_555 1_555
C35_9 C36_9 1_555 1_555
C38_9 C39_9 1_555 1_555
H21_10 C33_10 1_555 1_555
C34_10 C33_10 1_555 1_555
H22_10 C34_10 1_555 1_555
C35_10 C34_10 1_555 1_555
C36_10 N3_10 1_555 1_555
C37_10 C35_10 1_555 1_555
H23_10 C37_10 1_555 1_555
C38_10 C37_10 1_555 1_555
H24_10 C38_10 1_555 1_555
C39_10 N3_10 1_555 1_555
C40_10 C39_10 1_555 1_555
H25_10 C40_10 1_555 1_555
C41_10 C40_10 1_555 1_555
H26_10 C41_10 1_555 1_555
C42_10 C41_10 1_555 1_555
C35_10 C36_10 1_555 1_555
C38_10 C39_10 1_555 1_555

#END
