
###############################################################################
#
# This file contains modified crystal structure data generated from the
# MOF subset of the Cambridge Structural Database (CSD) v543 
# hosted by the Cambridge Crystallographic Data Centre (CCDC).
#
# This work is licensed under the Creative Commons
# Attribution-NonCommercial-ShareAlike 4.0 International License.
# To view a copy of this license, visit
# http://creativecommons.org/licenses/by-nc-sa/4.0/
# or send a letter to
# Creative Commons, PO Box 1866, Mountain View, CA 94042, USA.
#
# CIF created using the CSD Python API on 29 September 2022
# The structure has been converted into the P1 space group
# The structure has a 3D framework
# The original CSD entry GUPBEZ is in the tetragonal crystal system
# The framework has been calculated to contain at least 10.0% void space
# The void calculation uses a probe of radius 1.32A, grid spacing 0.4
#
###############################################################################

data_GUPBEZ
_chemical_formula_moiety         '(C104 H192 Cu28 I26 N40)n'
_symmetry_cell_setting           triclinic
_symmetry_space_group_name_H-M   'P 1'
_symmetry_Int_Tables_number      1
_space_group_name_Hall           'P 1'
loop_
_symmetry_equiv_pos_site_id
_symmetry_equiv_pos_as_xyz
1 x,y,z
_cell_length_a                   17.9914(2)
_cell_length_b                   17.9914(2)
_cell_length_c                   15.9344(3)
_cell_angle_alpha                90
_cell_angle_beta                 90
_cell_angle_gamma                90
_cell_volume                     5157.81
loop_
_atom_site_label
_atom_site_type_symbol
_atom_site_fract_x
_atom_site_fract_y
_atom_site_fract_z
C1 C 0.3071(2) 0.1272(2) 0.4248(3)
H1 H 0.3523 0.1566 0.4245
H2 H 0.2791 0.1390 0.3746
C2 C 0.1940(3) 0.0996(3) 0.5000
H3 H 0.1644 0.1109 0.4507
C3 C 0.2150(3) 0.0162(3) 0.5000
C4 C 0.3274(2) 0.0439(2) 0.4244(3)
H5 H 0.3074 0.0207 0.3743
H6 H 0.3810 0.0384 0.4234
C5 C 0.1547(2) 0.4659(2) 0.2786(3)
H7 H 0.1204 0.4736 0.3247
H8 H 0.1384 0.4227 0.2472
C6 C 0.2641(2) 0.5259(2) 0.3369(3)
H9 H 0.3114 0.5179 0.3647
H10 H 0.2312 0.5508 0.3761
C7 C 0.2759(2) 0.4242(2) 0.2412(3)
H11 H 0.2611 0.3737 0.2284
H12 H 0.3281 0.4239 0.2564
N1 N 0.23129(18) 0.45278(18) 0.3122(2)
N2 N 0.2623(3) 0.1464(2) 0.5000
N3 N 0.2968(3) 0.0063(3) 0.5000
Cu1 Cu 0.23186(4) 0.25704(4) 0.5000
Cu2 Cu 0.21989(3) 0.38360(3) 0.41613(3)
I1 I 0.11624(2) 0.468027(19) 0.5000
I2 I 0.153778(14) 0.263967(14) 0.353943(17)
I3 I 0.342734(19) 0.35571(2) 0.5000
C8 C 0.3071(2) 0.1272(2) 0.5752(3)
H13 H 0.3523 0.1566 0.5755
H14 H 0.2791 0.1390 0.6254
H15 H 0.1644 0.1109 0.5493
C9 C 0.3274(2) 0.0439(2) 0.5756(3)
H17 H 0.3074 0.0207 0.6257
H18 H 0.3810 0.0384 0.5766
C10 C 0.1547(2) 0.5341(2) 0.2214(3)
H19 H 0.1204 0.5264 0.1753
H20 H 0.1384 0.5773 0.2528
C11 C 0.2641(2) 0.4741(2) 0.1631(3)
H21 H 0.3114 0.4821 0.1353
H22 H 0.2312 0.4492 0.1239
C12 C 0.2759(2) 0.5758(2) 0.2588(3)
H23 H 0.2611 0.6263 0.2716
H24 H 0.3281 0.5761 0.2436
N4 N 0.23129(18) 0.54722(18) 0.1878(2)
N5 N 0.23129(18) 0.45278(18) 0.6878(2)
Cu5 Cu 0.21989(3) 0.38360(3) 0.58387(3)
Cu8 Cu 0.21989(3) 0.61640(3) 0.08387(3)
Cu9 Cu 0.10562(4) 0.32211(4) 0.5000
I5 I 0.153778(14) 0.263967(14) 0.646057(17)
H4 H 0.0075 0.1940 0.5493
H16 H 0.0075 0.1940 0.4507
C1_2 C 0.3071(2) 0.8728(2) 0.0752(3)
H1_2 H 0.3523 0.8434 0.0755
H2_2 H 0.2791 0.8610 0.1254
C2_2 C 0.1940(3) 0.9004(3) 0.0000
H3_2 H 0.1644 0.8891 0.0493
C3_2 C 0.2150(3) 0.9838(3) 0.0000
C4_2 C 0.3274(2) 0.9561(2) 0.0756(3)
H5_2 H 0.3074 0.9793 0.1257
H6_2 H 0.3810 0.9616 0.0766
N2_2 N 0.2623(3) 0.8536(2) 0.0000
N3_2 N 0.2968(3) 0.9937(3) 0.0000
Cu1_2 Cu 0.23186(4) 0.74296(4) 0.0000
I1_2 I 0.11624(2) 0.531973(19) 0.0000
I2_2 I 0.153778(14) 0.736033(14) 0.146057(17)
I3_2 I 0.342734(19) 0.64429(2) 0.0000
Cu9_2 Cu 0.10562(4) 0.67789(4) 0.0000
C2_3 C 0.1940(3) 0.9004(3) 1.0000
C3_3 C 0.2150(3) 0.9838(3) 1.0000
N2_3 N 0.2623(3) 0.8536(2) 1.0000
N3_3 N 0.2968(3) 0.9937(3) 1.0000
Cu1_3 Cu 0.23186(4) 0.74296(4) 1.0000
I1_3 I 0.11624(2) 0.531973(19) 1.0000
I3_3 I 0.342734(19) 0.64429(2) 1.0000
C8_2 C 0.3071(2) 0.8728(2) 0.9248(3)
H13_2 H 0.3523 0.8434 0.9245
H14_2 H 0.2791 0.8610 0.8746
H15_2 H 0.1644 0.8891 0.9507
C9_2 C 0.3274(2) 0.9561(2) 0.9244(3)
H17_2 H 0.3074 0.9793 0.8743
H18_2 H 0.3810 0.9616 0.9234
N5_2 N 0.23129(18) 0.54722(18) 0.8122(2)
Cu5_2 Cu 0.21989(3) 0.61640(3) 0.91613(3)
Cu9_3 Cu 0.10562(4) 0.67789(4) 1.0000
I5_2 I 0.153778(14) 0.736033(14) 0.853943(17)
H16_2 H 0.0075 0.8060 0.0493
H4_2 H 0.0075 0.8060 0.9507
C5_2 C 0.1547(2) 0.4659(2) 0.7214(3)
H7_2 H 0.1204 0.4736 0.6753
H8_2 H 0.1384 0.4227 0.7528
C6_2 C 0.2641(2) 0.5259(2) 0.6631(3)
H9_2 H 0.3114 0.5179 0.6353
H10_2 H 0.2312 0.5508 0.6239
C7_2 C 0.2759(2) 0.4242(2) 0.7588(3)
H11_2 H 0.2611 0.3737 0.7716
H12_2 H 0.3281 0.4239 0.7436
C10_2 C 0.1547(2) 0.5341(2) 0.7786(3)
H19_2 H 0.1204 0.5264 0.8247
H20_2 H 0.1384 0.5773 0.7472
C11_2 C 0.2641(2) 0.4741(2) 0.8369(3)
H21_2 H 0.3114 0.4821 0.8647
H22_2 H 0.2312 0.4492 0.8761
C12_2 C 0.2759(2) 0.5758(2) 0.7412(3)
H23_2 H 0.2611 0.6263 0.7284
H24_2 H 0.3281 0.5761 0.7564
H4_3 H 0.1940 0.9925 0.5493
Cu3 Cu 0.32211(4) 0.89438(4) 0.5000
H16_3 H 0.1940 0.9925 0.4507
Cu4 Cu 0.25704(4) 0.76814(4) 0.5000
Cu6 Cu 0.38360(3) 0.78011(3) 0.41613(3)
Cu7 Cu 0.38360(3) 0.78011(3) 0.58387(3)
I4 I 0.468027(19) 0.88376(2) 0.5000
I6 I 0.263967(14) 0.846222(14) 0.353943(17)
I7 I 0.263967(14) 0.846222(14) 0.646057(17)
C1_3 C 0.1272(2) 0.6929(2) 0.4248(3)
H1_3 H 0.1566 0.6477 0.4245
H2_3 H 0.1390 0.7209 0.3746
C2_4 C 0.0996(3) 0.8060(3) 0.5000
H3_3 H 0.1109 0.8356 0.4507
C3_4 C 0.0162(3) 0.7850(3) 0.5000
C4_3 C 0.0439(2) 0.6726(2) 0.4244(3)
H5_3 H 0.0207 0.6926 0.3743
H6_3 H 0.0384 0.6190 0.4234
C5_3 C 0.4659(2) 0.8453(2) 0.2786(3)
H7_3 H 0.4736 0.8796 0.3247
H8_3 H 0.4227 0.8616 0.2472
C6_3 C 0.5259(2) 0.7359(2) 0.3369(3)
H9_3 H 0.5179 0.6886 0.3647
H10_3 H 0.5508 0.7688 0.3761
C7_3 C 0.4242(2) 0.7241(2) 0.2412(3)
H11_3 H 0.3737 0.7389 0.2284
H12_3 H 0.4239 0.6719 0.2564
N1_2 N 0.45278(18) 0.76871(18) 0.3122(2)
N2_4 N 0.1464(2) 0.7377(3) 0.5000
N3_4 N 0.0063(3) 0.7032(3) 0.5000
I3_4 I 0.35571(2) 0.657266(19) 0.5000
C8_3 C 0.1272(2) 0.6929(2) 0.5752(3)
H13_3 H 0.1566 0.6477 0.5755
H14_3 H 0.1390 0.7209 0.6254
H15_3 H 0.1109 0.8356 0.5493
C9_3 C 0.0439(2) 0.6726(2) 0.5756(3)
H17_3 H 0.0207 0.6926 0.6257
H18_3 H 0.0384 0.6190 0.5766
C10_3 C 0.5341(2) 0.8453(2) 0.2214(3)
H19_3 H 0.5264 0.8796 0.1753
H20_3 H 0.5773 0.8616 0.2528
C11_3 C 0.4741(2) 0.7359(2) 0.1631(3)
H21_3 H 0.4821 0.6886 0.1353
H22_3 H 0.4492 0.7688 0.1239
C12_3 C 0.5758(2) 0.7241(2) 0.2588(3)
H23_3 H 0.6263 0.7389 0.2716
H24_3 H 0.5761 0.6719 0.2436
N4_2 N 0.54722(18) 0.76871(18) 0.1878(2)
N5_3 N 0.45278(18) 0.76871(18) 0.6878(2)
Cu8_2 Cu 0.61640(3) 0.78011(3) 0.08387(3)
Cu3_2 Cu 0.67789(4) 0.89438(4) 0.0000
H16_4 H 0.8060 0.9925 0.0493
Cu4_2 Cu 0.74296(4) 0.76814(4) 0.0000
I4_2 I 0.531973(19) 0.88376(2) 0.0000
I6_2 I 0.736033(14) 0.846222(14) 0.146057(17)
H4_4 H 0.8060 0.9925 0.9507
Cu3_3 Cu 0.67789(4) 0.89438(4) 1.0000
Cu4_3 Cu 0.74296(4) 0.76814(4) 1.0000
Cu7_2 Cu 0.61640(3) 0.78011(3) 0.91613(3)
I4_3 I 0.531973(19) 0.88376(2) 1.0000
I7_2 I 0.736033(14) 0.846222(14) 0.853943(17)
C1_4 C 0.8728(2) 0.6929(2) 0.0752(3)
H1_4 H 0.8434 0.6477 0.0755
H2_4 H 0.8610 0.7209 0.1254
C2_5 C 0.9004(3) 0.8060(3) 0.0000
H3_4 H 0.8891 0.8356 0.0493
C3_5 C 0.9838(3) 0.7850(3) 0.0000
C4_4 C 0.9561(2) 0.6726(2) 0.0756(3)
H5_4 H 0.9793 0.6926 0.1257
H6_4 H 0.9616 0.6190 0.0766
N2_5 N 0.8536(2) 0.7377(3) 0.0000
N3_5 N 0.9937(3) 0.7032(3) 0.0000
I3_5 I 0.64429(2) 0.657266(19) 0.0000
C2_6 C 0.9004(3) 0.8060(3) 1.0000
C3_6 C 0.9838(3) 0.7850(3) 1.0000
N2_6 N 0.8536(2) 0.7377(3) 1.0000
N3_6 N 0.9937(3) 0.7032(3) 1.0000
I3_6 I 0.64429(2) 0.657266(19) 1.0000
C8_4 C 0.8728(2) 0.6929(2) 0.9248(3)
H13_4 H 0.8434 0.6477 0.9245
H14_4 H 0.8610 0.7209 0.8746
H15_4 H 0.8891 0.8356 0.9507
C9_4 C 0.9561(2) 0.6726(2) 0.9244(3)
H17_4 H 0.9793 0.6926 0.8743
H18_4 H 0.9616 0.6190 0.9234
N5_4 N 0.54722(18) 0.76871(18) 0.8122(2)
C5_4 C 0.4659(2) 0.8453(2) 0.7214(3)
H7_4 H 0.4736 0.8796 0.6753
H8_4 H 0.4227 0.8616 0.7528
C6_4 C 0.5259(2) 0.7359(2) 0.6631(3)
H9_4 H 0.5179 0.6886 0.6353
H10_4 H 0.5508 0.7688 0.6239
C7_4 C 0.4242(2) 0.7241(2) 0.7588(3)
H11_4 H 0.3737 0.7389 0.7716
H12_4 H 0.4239 0.6719 0.7436
C10_4 C 0.5341(2) 0.8453(2) 0.7786(3)
H19_4 H 0.5264 0.8796 0.8247
H20_4 H 0.5773 0.8616 0.7472
C11_4 C 0.4741(2) 0.7359(2) 0.8369(3)
H21_4 H 0.4821 0.6886 0.8647
H22_4 H 0.4492 0.7688 0.8761
C12_4 C 0.5758(2) 0.7241(2) 0.7412(3)
H23_4 H 0.6263 0.7389 0.7284
H24_4 H 0.5761 0.6719 0.7564
H4_5 H 0.8060 0.0075 0.5493
Cu3_4 Cu 0.67789(4) 0.10562(4) 0.5000
H16_5 H 0.8060 0.0075 0.4507
Cu4_4 Cu 0.74296(4) 0.23186(4) 0.5000
Cu6_2 Cu 0.61640(3) 0.21989(3) 0.41613(3)
Cu7_3 Cu 0.61640(3) 0.21989(3) 0.58387(3)
I4_4 I 0.531973(19) 0.11624(2) 0.5000
I6_3 I 0.736033(14) 0.153778(14) 0.353943(17)
I7_3 I 0.736033(14) 0.153778(14) 0.646057(17)
C1_5 C 0.8728(2) 0.3071(2) 0.4248(3)
H1_5 H 0.8434 0.3523 0.4245
H2_5 H 0.8610 0.2791 0.3746
C2_7 C 0.9004(3) 0.1940(3) 0.5000
H3_5 H 0.8891 0.1644 0.4507
C3_7 C 0.9838(3) 0.2150(3) 0.5000
C4_5 C 0.9561(2) 0.3274(2) 0.4244(3)
H5_5 H 0.9793 0.3074 0.3743
H6_5 H 0.9616 0.3810 0.4234
C5_5 C 0.5341(2) 0.1547(2) 0.2786(3)
H7_5 H 0.5264 0.1204 0.3247
H8_5 H 0.5773 0.1384 0.2472
C6_5 C 0.4741(2) 0.2641(2) 0.3369(3)
H9_5 H 0.4821 0.3114 0.3647
H10_5 H 0.4492 0.2312 0.3761
C7_5 C 0.5758(2) 0.2759(2) 0.2412(3)
H11_5 H 0.6263 0.2611 0.2284
H12_5 H 0.5761 0.3281 0.2564
N1_3 N 0.54722(18) 0.23129(18) 0.3122(2)
N2_7 N 0.8536(2) 0.2623(3) 0.5000
N3_7 N 0.9937(3) 0.2968(3) 0.5000
I3_7 I 0.64429(2) 0.342734(19) 0.5000
C8_5 C 0.8728(2) 0.3071(2) 0.5752(3)
H13_5 H 0.8434 0.3523 0.5755
H14_5 H 0.8610 0.2791 0.6254
H15_5 H 0.8891 0.1644 0.5493
C9_5 C 0.9561(2) 0.3274(2) 0.5756(3)
H17_5 H 0.9793 0.3074 0.6257
H18_5 H 0.9616 0.3810 0.5766
C10_5 C 0.4659(2) 0.1547(2) 0.2214(3)
H19_5 H 0.4736 0.1204 0.1753
H20_5 H 0.4227 0.1384 0.2528
C11_5 C 0.5259(2) 0.2641(2) 0.1631(3)
H21_5 H 0.5179 0.3114 0.1353
H22_5 H 0.5508 0.2312 0.1239
C12_5 C 0.4242(2) 0.2759(2) 0.2588(3)
H23_5 H 0.3737 0.2611 0.2716
H24_5 H 0.4239 0.3281 0.2436
N4_3 N 0.45278(18) 0.23129(18) 0.1878(2)
N5_5 N 0.54722(18) 0.23129(18) 0.6878(2)
Cu8_3 Cu 0.38360(3) 0.21989(3) 0.08387(3)
Cu3_5 Cu 0.32211(4) 0.10562(4) 0.0000
H16_6 H 0.1940 0.0075 0.0493
Cu4_5 Cu 0.25704(4) 0.23186(4) 0.0000
I4_5 I 0.468027(19) 0.11624(2) 0.0000
I6_4 I 0.263967(14) 0.153778(14) 0.146057(17)
H4_6 H 0.1940 0.0075 0.9507
Cu3_6 Cu 0.32211(4) 0.10562(4) 1.0000
Cu4_6 Cu 0.25704(4) 0.23186(4) 1.0000
Cu7_4 Cu 0.38360(3) 0.21989(3) 0.91613(3)
I4_6 I 0.468027(19) 0.11624(2) 1.0000
I7_4 I 0.263967(14) 0.153778(14) 0.853943(17)
C1_6 C 0.1272(2) 0.3071(2) 0.0752(3)
H1_6 H 0.1566 0.3523 0.0755
H2_6 H 0.1390 0.2791 0.1254
C2_8 C 0.0996(3) 0.1940(3) 0.0000
H3_6 H 0.1109 0.1644 0.0493
C3_8 C 0.0162(3) 0.2150(3) 0.0000
C4_6 C 0.0439(2) 0.3274(2) 0.0756(3)
H5_6 H 0.0207 0.3074 0.1257
H6_6 H 0.0384 0.3810 0.0766
N2_8 N 0.1464(2) 0.2623(3) 0.0000
N3_8 N 0.0063(3) 0.2968(3) 0.0000
I3_8 I 0.35571(2) 0.342734(19) 0.0000
C2_9 C 0.0996(3) 0.1940(3) 1.0000
C3_9 C 0.0162(3) 0.2150(3) 1.0000
N2_9 N 0.1464(2) 0.2623(3) 1.0000
N3_9 N 0.0063(3) 0.2968(3) 1.0000
I3_9 I 0.35571(2) 0.342734(19) 1.0000
C8_6 C 0.1272(2) 0.3071(2) 0.9248(3)
H13_6 H 0.1566 0.3523 0.9245
H14_6 H 0.1390 0.2791 0.8746
H15_6 H 0.1109 0.1644 0.9507
C9_6 C 0.0439(2) 0.3274(2) 0.9244(3)
H17_6 H 0.0207 0.3074 0.8743
H18_6 H 0.0384 0.3810 0.9234
N5_6 N 0.45278(18) 0.23129(18) 0.8122(2)
C5_6 C 0.5341(2) 0.1547(2) 0.7214(3)
H7_6 H 0.5264 0.1204 0.6753
H8_6 H 0.5773 0.1384 0.7528
C6_6 C 0.4741(2) 0.2641(2) 0.6631(3)
H9_6 H 0.4821 0.3114 0.6353
H10_6 H 0.4492 0.2312 0.6239
C7_6 C 0.5758(2) 0.2759(2) 0.7588(3)
H11_6 H 0.6263 0.2611 0.7716
H12_6 H 0.5761 0.3281 0.7436
C10_6 C 0.4659(2) 0.1547(2) 0.7786(3)
H19_6 H 0.4736 0.1204 0.8247
H20_6 H 0.4227 0.1384 0.7472
C11_6 C 0.5259(2) 0.2641(2) 0.8369(3)
H21_6 H 0.5179 0.3114 0.8647
H22_6 H 0.5508 0.2312 0.8761
C12_6 C 0.4242(2) 0.2759(2) 0.7412(3)
H23_6 H 0.3737 0.2611 0.7284
H24_6 H 0.4239 0.3281 0.7564
C1_7 C 0.6929(2) 0.8728(2) 0.4248(3)
H1_7 H 0.6477 0.8434 0.4245
H2_7 H 0.7209 0.8610 0.3746
C2_10 C 0.8060(3) 0.9004(3) 0.5000
H3_7 H 0.8356 0.8891 0.4507
C3_10 C 0.7850(3) 0.9838(3) 0.5000
C4_7 C 0.6726(2) 0.9561(2) 0.4244(3)
H5_7 H 0.6926 0.9793 0.3743
H6_7 H 0.6190 0.9616 0.4234
C5_7 C 0.8453(2) 0.5341(2) 0.2786(3)
H7_7 H 0.8796 0.5264 0.3247
H8_7 H 0.8616 0.5773 0.2472
C6_7 C 0.7359(2) 0.4741(2) 0.3369(3)
H9_7 H 0.6886 0.4821 0.3647
H10_7 H 0.7688 0.4492 0.3761
C7_7 C 0.7241(2) 0.5758(2) 0.2412(3)
H11_7 H 0.7389 0.6263 0.2284
H12_7 H 0.6719 0.5761 0.2564
N1_4 N 0.76871(18) 0.54722(18) 0.3122(2)
N2_10 N 0.7377(3) 0.8536(2) 0.5000
N3_10 N 0.7032(3) 0.9937(3) 0.5000
Cu1_4 Cu 0.76814(4) 0.74296(4) 0.5000
Cu2_2 Cu 0.78011(3) 0.61640(3) 0.41613(3)
I1_4 I 0.88376(2) 0.531973(19) 0.5000
I2_3 I 0.846222(14) 0.736033(14) 0.353943(17)
I3_10 I 0.657266(19) 0.64429(2) 0.5000
C8_7 C 0.6929(2) 0.8728(2) 0.5752(3)
H13_7 H 0.6477 0.8434 0.5755
H14_7 H 0.7209 0.8610 0.6254
H15_7 H 0.8356 0.8891 0.5493
C9_7 C 0.6726(2) 0.9561(2) 0.5756(3)
H17_7 H 0.6926 0.9793 0.6257
H18_7 H 0.6190 0.9616 0.5766
C10_7 C 0.8453(2) 0.4659(2) 0.2214(3)
H19_7 H 0.8796 0.4736 0.1753
H20_7 H 0.8616 0.4227 0.2528
C11_7 C 0.7359(2) 0.5259(2) 0.1631(3)
H21_7 H 0.6886 0.5179 0.1353
H22_7 H 0.7688 0.5508 0.1239
C12_7 C 0.7241(2) 0.4242(2) 0.2588(3)
H23_7 H 0.7389 0.3737 0.2716
H24_7 H 0.6719 0.4239 0.2436
N4_4 N 0.76871(18) 0.45278(18) 0.1878(2)
N5_7 N 0.76871(18) 0.54722(18) 0.6878(2)
Cu5_3 Cu 0.78011(3) 0.61640(3) 0.58387(3)
Cu8_4 Cu 0.78011(3) 0.38360(3) 0.08387(3)
Cu9_4 Cu 0.89438(4) 0.67789(4) 0.5000
I5_3 I 0.846222(14) 0.736033(14) 0.646057(17)
H4_7 H 0.9925 0.8060 0.5493
H16_7 H 0.9925 0.8060 0.4507
C1_8 C 0.6929(2) 0.1272(2) 0.0752(3)
H1_8 H 0.6477 0.1566 0.0755
H2_8 H 0.7209 0.1390 0.1254
C2_11 C 0.8060(3) 0.0996(3) 0.0000
H3_8 H 0.8356 0.1109 0.0493
C3_11 C 0.7850(3) 0.0162(3) 0.0000
C4_8 C 0.6726(2) 0.0439(2) 0.0756(3)
H5_8 H 0.6926 0.0207 0.1257
H6_8 H 0.6190 0.0384 0.0766
N2_11 N 0.7377(3) 0.1464(2) 0.0000
N3_11 N 0.7032(3) 0.0063(3) 0.0000
Cu1_5 Cu 0.76814(4) 0.25704(4) 0.0000
I1_5 I 0.88376(2) 0.468027(19) 0.0000
I2_4 I 0.846222(14) 0.263967(14) 0.146057(17)
I3_11 I 0.657266(19) 0.35571(2) 0.0000
Cu9_5 Cu 0.89438(4) 0.32211(4) 0.0000
C2_12 C 0.8060(3) 0.0996(3) 1.0000
C3_12 C 0.7850(3) 0.0162(3) 1.0000
N2_12 N 0.7377(3) 0.1464(2) 1.0000
N3_12 N 0.7032(3) 0.0063(3) 1.0000
Cu1_6 Cu 0.76814(4) 0.25704(4) 1.0000
I1_6 I 0.88376(2) 0.468027(19) 1.0000
I3_12 I 0.657266(19) 0.35571(2) 1.0000
C8_8 C 0.6929(2) 0.1272(2) 0.9248(3)
H13_8 H 0.6477 0.1566 0.9245
H14_8 H 0.7209 0.1390 0.8746
H15_8 H 0.8356 0.1109 0.9507
C9_8 C 0.6726(2) 0.0439(2) 0.9244(3)
H17_8 H 0.6926 0.0207 0.8743
H18_8 H 0.6190 0.0384 0.9234
N5_8 N 0.76871(18) 0.45278(18) 0.8122(2)
Cu5_4 Cu 0.78011(3) 0.38360(3) 0.91613(3)
Cu9_6 Cu 0.89438(4) 0.32211(4) 1.0000
I5_4 I 0.846222(14) 0.263967(14) 0.853943(17)
H16_8 H 0.9925 0.1940 0.0493
H4_8 H 0.9925 0.1940 0.9507
C5_8 C 0.8453(2) 0.5341(2) 0.7214(3)
H7_8 H 0.8796 0.5264 0.6753
H8_8 H 0.8616 0.5773 0.7528
C6_8 C 0.7359(2) 0.4741(2) 0.6631(3)
H9_8 H 0.6886 0.4821 0.6353
H10_8 H 0.7688 0.4492 0.6239
C7_8 C 0.7241(2) 0.5758(2) 0.7588(3)
H11_8 H 0.7389 0.6263 0.7716
H12_8 H 0.6719 0.5761 0.7436
C10_8 C 0.8453(2) 0.4659(2) 0.7786(3)
H19_8 H 0.8796 0.4736 0.8247
H20_8 H 0.8616 0.4227 0.7472
C11_8 C 0.7359(2) 0.5259(2) 0.8369(3)
H21_8 H 0.6886 0.5179 0.8647
H22_8 H 0.7688 0.5508 0.8761
C12_8 C 0.7241(2) 0.4242(2) 0.7412(3)
H23_8 H 0.7389 0.3737 0.7284
H24_8 H 0.6719 0.4239 0.7564
loop_
_geom_bond_atom_site_label_1
_geom_bond_atom_site_label_2
_geom_bond_site_symmetry_1
_geom_bond_site_symmetry_2
C1 H1 1_555 1_555
H2 C1 1_555 1_555
C2 H3 1_555 1_555
C3 C2 1_555 1_555
C4 C1 1_555 1_555
H5 C4 1_555 1_555
H6 C4 1_555 1_555
C5 H7 1_555 1_555
H8 C5 1_555 1_555
C6 H9 1_555 1_555
H10 C6 1_555 1_555
C7 H11 1_555 1_555
H12 C7 1_555 1_555
N1 C5 1_555 1_555
N2 C1 1_555 1_555
N3 C3 1_555 1_555
Cu1 N2 1_555 1_555
Cu2 N1 1_555 1_555
I1 Cu2 1_555 1_555
I2 Cu1 1_555 1_555
I3 Cu1 1_555 1_555
C8 N2 1_555 1_555
H13 C8 1_555 1_555
H14 C8 1_555 1_555
H15 C2 1_555 1_555
C9 N3 1_555 1_555
H17 C9 1_555 1_555
H18 C9 1_555 1_555
C10 C5 1_555 1_555
H19 C10 1_555 1_555
H20 C10 1_555 1_555
C11 C7 1_555 1_555
H21 C11 1_555 1_555
H22 C11 1_555 1_555
C12 C6 1_555 1_555
H23 C12 1_555 1_555
H24 C12 1_555 1_555
N4 C10 1_555 1_555
N5 Cu5 1_555 1_555
Cu5 Cu1 1_555 1_555
Cu8 N4 1_555 1_555
Cu9 Cu1 1_555 1_555
I5 Cu1 1_555 1_555
C2 N2 1_555 1_555
C4 N3 1_555 1_555
C6 N1 1_555 1_555
C7 N1 1_555 1_555
Cu1 Cu2 1_555 1_555
Cu2 I2 1_555 1_555
Cu2 I3 1_555 1_555
Cu2 Cu5 1_555 1_555
Cu2 Cu9 1_555 1_555
I1 Cu5 1_555 1_555
I1 Cu9 1_555 1_555
I2 Cu9 1_555 1_555
I3 Cu5 1_555 1_555
C8 C9 1_555 1_555
C11 N4 1_555 1_555
C12 N4 1_555 1_555
Cu5 Cu9 1_555 1_555
Cu5 I5 1_555 1_555
Cu9 I5 1_555 1_555
C1_2 H1_2 1_555 1_555
H2_2 C1_2 1_555 1_555
C2_2 H3_2 1_555 1_555
C3_2 C2_2 1_555 1_555
C4_2 C1_2 1_555 1_555
H5_2 C4_2 1_555 1_555
H6_2 C4_2 1_555 1_555
N2_2 C1_2 1_555 1_555
N3_2 C3_2 1_555 1_555
Cu1_2 N2_2 1_555 1_555
I1_2 Cu8 1_555 1_555
I2_2 Cu1_2 1_555 1_555
I3_2 Cu1_2 1_555 1_555
Cu9_2 Cu1_2 1_555 1_555
C2_2 N2_2 1_555 1_555
C4_2 N3_2 1_555 1_555
Cu1_2 Cu8 1_555 1_555
Cu8 I2_2 1_555 1_555
Cu8 I3_2 1_555 1_555
Cu8 Cu9_2 1_555 1_555
I1_2 Cu9_2 1_555 1_555
I2_2 Cu9_2 1_555 1_555
C3_3 C2_3 1_555 1_555
N3_3 C3_3 1_555 1_555
Cu1_3 N2_3 1_555 1_555
I3_3 Cu1_3 1_555 1_555
C8_2 N2_3 1_555 1_555
H13_2 C8_2 1_555 1_555
H14_2 C8_2 1_555 1_555
H15_2 C2_3 1_555 1_555
C9_2 N3_3 1_555 1_555
H17_2 C9_2 1_555 1_555
H18_2 C9_2 1_555 1_555
N5_2 Cu5_2 1_555 1_555
Cu5_2 Cu1_3 1_555 1_555
Cu9_3 Cu1_3 1_555 1_555
I5_2 Cu1_3 1_555 1_555
C2_3 N2_3 1_555 1_555
I1_3 Cu5_2 1_555 1_555
I1_3 Cu9_3 1_555 1_555
I3_3 Cu5_2 1_555 1_555
C8_2 C9_2 1_555 1_555
Cu5_2 Cu9_3 1_555 1_555
Cu5_2 I5_2 1_555 1_555
Cu9_3 I5_2 1_555 1_555
C5_2 H7_2 1_555 1_555
H8_2 C5_2 1_555 1_555
C6_2 H9_2 1_555 1_555
H10_2 C6_2 1_555 1_555
C7_2 H11_2 1_555 1_555
H12_2 C7_2 1_555 1_555
N5 C5_2 1_555 1_555
C10_2 C5_2 1_555 1_555
H19_2 C10_2 1_555 1_555
H20_2 C10_2 1_555 1_555
C11_2 C7_2 1_555 1_555
H21_2 C11_2 1_555 1_555
H22_2 C11_2 1_555 1_555
C12_2 C6_2 1_555 1_555
H23_2 C12_2 1_555 1_555
H24_2 C12_2 1_555 1_555
N5_2 C10_2 1_555 1_555
C6_2 N5 1_555 1_555
C7_2 N5 1_555 1_555
C11_2 N5_2 1_555 1_555
C12_2 N5_2 1_555 1_555
Cu4 Cu3 1_555 1_555
Cu6 Cu3 1_555 1_555
Cu7 Cu3 1_555 1_555
I4 Cu3 1_555 1_555
I6 Cu3 1_555 1_555
I7 Cu3 1_555 1_555
Cu4 Cu6 1_555 1_555
Cu4 Cu7 1_555 1_555
Cu4 I6 1_555 1_555
Cu4 I7 1_555 1_555
Cu6 Cu7 1_555 1_555
Cu6 I4 1_555 1_555
Cu6 I6 1_555 1_555
Cu7 I4 1_555 1_555
Cu7 I7 1_555 1_555
C1_3 H1_3 1_555 1_555
H2_3 C1_3 1_555 1_555
C2_4 H3_3 1_555 1_555
C3_4 C2_4 1_555 1_555
C4_3 C1_3 1_555 1_555
H5_3 C4_3 1_555 1_555
H6_3 C4_3 1_555 1_555
C5_3 H7_3 1_555 1_555
H8_3 C5_3 1_555 1_555
C6_3 H9_3 1_555 1_555
H10_3 C6_3 1_555 1_555
C7_3 H11_3 1_555 1_555
H12_3 C7_3 1_555 1_555
N1_2 C5_3 1_555 1_555
N2_4 C1_3 1_555 1_555
N3_4 C3_4 1_555 1_555
Cu4 N2_4 1_555 1_555
Cu6 N1_2 1_555 1_555
I3_4 Cu4 1_555 1_555
C8_3 N2_4 1_555 1_555
H13_3 C8_3 1_555 1_555
H14_3 C8_3 1_555 1_555
H15_3 C2_4 1_555 1_555
C9_3 N3_4 1_555 1_555
H17_3 C9_3 1_555 1_555
H18_3 C9_3 1_555 1_555
C10_3 C5_3 1_555 1_555
H19_3 C10_3 1_555 1_555
H20_3 C10_3 1_555 1_555
C11_3 C7_3 1_555 1_555
H21_3 C11_3 1_555 1_555
H22_3 C11_3 1_555 1_555
C12_3 C6_3 1_555 1_555
H23_3 C12_3 1_555 1_555
H24_3 C12_3 1_555 1_555
N4_2 C10_3 1_555 1_555
N5_3 Cu7 1_555 1_555
Cu8_2 N4_2 1_555 1_555
C2_4 N2_4 1_555 1_555
C4_3 N3_4 1_555 1_555
C6_3 N1_2 1_555 1_555
C7_3 N1_2 1_555 1_555
Cu6 I3_4 1_555 1_555
I3_4 Cu7 1_555 1_555
C8_3 C9_3 1_555 1_555
C11_3 N4_2 1_555 1_555
C12_3 N4_2 1_555 1_555
Cu4_2 Cu3_2 1_555 1_555
Cu8_2 Cu3_2 1_555 1_555
I4_2 Cu3_2 1_555 1_555
I6_2 Cu3_2 1_555 1_555
Cu4_2 Cu8_2 1_555 1_555
Cu4_2 I6_2 1_555 1_555
Cu8_2 I4_2 1_555 1_555
Cu8_2 I6_2 1_555 1_555
Cu4_3 Cu3_3 1_555 1_555
Cu7_2 Cu3_3 1_555 1_555
I4_3 Cu3_3 1_555 1_555
I7_2 Cu3_3 1_555 1_555
Cu4_3 Cu7_2 1_555 1_555
Cu4_3 I7_2 1_555 1_555
Cu7_2 I4_3 1_555 1_555
Cu7_2 I7_2 1_555 1_555
C1_4 H1_4 1_555 1_555
H2_4 C1_4 1_555 1_555
C2_5 H3_4 1_555 1_555
C3_5 C2_5 1_555 1_555
C4_4 C1_4 1_555 1_555
H5_4 C4_4 1_555 1_555
H6_4 C4_4 1_555 1_555
N2_5 C1_4 1_555 1_555
N3_5 C3_5 1_555 1_555
Cu4_2 N2_5 1_555 1_555
I3_5 Cu4_2 1_555 1_555
C2_5 N2_5 1_555 1_555
C4_4 N3_5 1_555 1_555
Cu8_2 I3_5 1_555 1_555
C3_6 C2_6 1_555 1_555
N3_6 C3_6 1_555 1_555
Cu4_3 N2_6 1_555 1_555
I3_6 Cu4_3 1_555 1_555
C8_4 N2_6 1_555 1_555
H13_4 C8_4 1_555 1_555
H14_4 C8_4 1_555 1_555
H15_4 C2_6 1_555 1_555
C9_4 N3_6 1_555 1_555
H17_4 C9_4 1_555 1_555
H18_4 C9_4 1_555 1_555
N5_4 Cu7_2 1_555 1_555
C2_6 N2_6 1_555 1_555
I3_6 Cu7_2 1_555 1_555
C8_4 C9_4 1_555 1_555
C5_4 H7_4 1_555 1_555
H8_4 C5_4 1_555 1_555
C6_4 H9_4 1_555 1_555
H10_4 C6_4 1_555 1_555
C7_4 H11_4 1_555 1_555
H12_4 C7_4 1_555 1_555
N5_3 C5_4 1_555 1_555
C10_4 C5_4 1_555 1_555
H19_4 C10_4 1_555 1_555
H20_4 C10_4 1_555 1_555
C11_4 C7_4 1_555 1_555
H21_4 C11_4 1_555 1_555
H22_4 C11_4 1_555 1_555
C12_4 C6_4 1_555 1_555
H23_4 C12_4 1_555 1_555
H24_4 C12_4 1_555 1_555
N5_4 C10_4 1_555 1_555
C6_4 N5_3 1_555 1_555
C7_4 N5_3 1_555 1_555
C11_4 N5_4 1_555 1_555
C12_4 N5_4 1_555 1_555
Cu4_4 Cu3_4 1_555 1_555
Cu6_2 Cu3_4 1_555 1_555
Cu7_3 Cu3_4 1_555 1_555
I4_4 Cu3_4 1_555 1_555
I6_3 Cu3_4 1_555 1_555
I7_3 Cu3_4 1_555 1_555
Cu4_4 Cu6_2 1_555 1_555
Cu4_4 Cu7_3 1_555 1_555
Cu4_4 I6_3 1_555 1_555
Cu4_4 I7_3 1_555 1_555
Cu6_2 Cu7_3 1_555 1_555
Cu6_2 I4_4 1_555 1_555
Cu6_2 I6_3 1_555 1_555
Cu7_3 I4_4 1_555 1_555
Cu7_3 I7_3 1_555 1_555
C1_5 H1_5 1_555 1_555
H2_5 C1_5 1_555 1_555
C2_7 H3_5 1_555 1_555
C3_7 C2_7 1_555 1_555
C4_5 C1_5 1_555 1_555
H5_5 C4_5 1_555 1_555
H6_5 C4_5 1_555 1_555
C5_5 H7_5 1_555 1_555
H8_5 C5_5 1_555 1_555
C6_5 H9_5 1_555 1_555
H10_5 C6_5 1_555 1_555
C7_5 H11_5 1_555 1_555
H12_5 C7_5 1_555 1_555
N1_3 C5_5 1_555 1_555
N2_7 C1_5 1_555 1_555
N3_7 C3_7 1_555 1_555
Cu4_4 N2_7 1_555 1_555
Cu6_2 N1_3 1_555 1_555
I3_7 Cu4_4 1_555 1_555
C8_5 N2_7 1_555 1_555
H13_5 C8_5 1_555 1_555
H14_5 C8_5 1_555 1_555
H15_5 C2_7 1_555 1_555
C9_5 N3_7 1_555 1_555
H17_5 C9_5 1_555 1_555
H18_5 C9_5 1_555 1_555
C10_5 C5_5 1_555 1_555
H19_5 C10_5 1_555 1_555
H20_5 C10_5 1_555 1_555
C11_5 C7_5 1_555 1_555
H21_5 C11_5 1_555 1_555
H22_5 C11_5 1_555 1_555
C12_5 C6_5 1_555 1_555
H23_5 C12_5 1_555 1_555
H24_5 C12_5 1_555 1_555
N4_3 C10_5 1_555 1_555
N5_5 Cu7_3 1_555 1_555
Cu8_3 N4_3 1_555 1_555
C2_7 N2_7 1_555 1_555
C4_5 N3_7 1_555 1_555
C6_5 N1_3 1_555 1_555
C7_5 N1_3 1_555 1_555
Cu6_2 I3_7 1_555 1_555
I3_7 Cu7_3 1_555 1_555
C8_5 C9_5 1_555 1_555
C11_5 N4_3 1_555 1_555
C12_5 N4_3 1_555 1_555
Cu4_5 Cu3_5 1_555 1_555
Cu8_3 Cu3_5 1_555 1_555
I4_5 Cu3_5 1_555 1_555
I6_4 Cu3_5 1_555 1_555
Cu4_5 Cu8_3 1_555 1_555
Cu4_5 I6_4 1_555 1_555
Cu8_3 I4_5 1_555 1_555
Cu8_3 I6_4 1_555 1_555
Cu4_6 Cu3_6 1_555 1_555
Cu7_4 Cu3_6 1_555 1_555
I4_6 Cu3_6 1_555 1_555
I7_4 Cu3_6 1_555 1_555
Cu4_6 Cu7_4 1_555 1_555
Cu4_6 I7_4 1_555 1_555
Cu7_4 I4_6 1_555 1_555
Cu7_4 I7_4 1_555 1_555
C1_6 H1_6 1_555 1_555
H2_6 C1_6 1_555 1_555
C2_8 H3_6 1_555 1_555
C3_8 C2_8 1_555 1_555
C4_6 C1_6 1_555 1_555
H5_6 C4_6 1_555 1_555
H6_6 C4_6 1_555 1_555
N2_8 C1_6 1_555 1_555
N3_8 C3_8 1_555 1_555
Cu4_5 N2_8 1_555 1_555
I3_8 Cu4_5 1_555 1_555
C2_8 N2_8 1_555 1_555
C4_6 N3_8 1_555 1_555
Cu8_3 I3_8 1_555 1_555
C3_9 C2_9 1_555 1_555
N3_9 C3_9 1_555 1_555
Cu4_6 N2_9 1_555 1_555
I3_9 Cu4_6 1_555 1_555
C8_6 N2_9 1_555 1_555
H13_6 C8_6 1_555 1_555
H14_6 C8_6 1_555 1_555
H15_6 C2_9 1_555 1_555
C9_6 N3_9 1_555 1_555
H17_6 C9_6 1_555 1_555
H18_6 C9_6 1_555 1_555
N5_6 Cu7_4 1_555 1_555
C2_9 N2_9 1_555 1_555
I3_9 Cu7_4 1_555 1_555
C8_6 C9_6 1_555 1_555
C5_6 H7_6 1_555 1_555
H8_6 C5_6 1_555 1_555
C6_6 H9_6 1_555 1_555
H10_6 C6_6 1_555 1_555
C7_6 H11_6 1_555 1_555
H12_6 C7_6 1_555 1_555
N5_5 C5_6 1_555 1_555
C10_6 C5_6 1_555 1_555
H19_6 C10_6 1_555 1_555
H20_6 C10_6 1_555 1_555
C11_6 C7_6 1_555 1_555
H21_6 C11_6 1_555 1_555
H22_6 C11_6 1_555 1_555
C12_6 C6_6 1_555 1_555
H23_6 C12_6 1_555 1_555
H24_6 C12_6 1_555 1_555
N5_6 C10_6 1_555 1_555
C6_6 N5_5 1_555 1_555
C7_6 N5_5 1_555 1_555
C11_6 N5_6 1_555 1_555
C12_6 N5_6 1_555 1_555
C1_7 H1_7 1_555 1_555
H2_7 C1_7 1_555 1_555
C2_10 H3_7 1_555 1_555
C3_10 C2_10 1_555 1_555
C4_7 C1_7 1_555 1_555
H5_7 C4_7 1_555 1_555
H6_7 C4_7 1_555 1_555
C5_7 H7_7 1_555 1_555
H8_7 C5_7 1_555 1_555
C6_7 H9_7 1_555 1_555
H10_7 C6_7 1_555 1_555
C7_7 H11_7 1_555 1_555
H12_7 C7_7 1_555 1_555
N1_4 C5_7 1_555 1_555
N2_10 C1_7 1_555 1_555
N3_10 C3_10 1_555 1_555
Cu1_4 N2_10 1_555 1_555
Cu2_2 N1_4 1_555 1_555
I1_4 Cu2_2 1_555 1_555
I2_3 Cu1_4 1_555 1_555
I3_10 Cu1_4 1_555 1_555
C8_7 N2_10 1_555 1_555
H13_7 C8_7 1_555 1_555
H14_7 C8_7 1_555 1_555
H15_7 C2_10 1_555 1_555
C9_7 N3_10 1_555 1_555
H17_7 C9_7 1_555 1_555
H18_7 C9_7 1_555 1_555
C10_7 C5_7 1_555 1_555
H19_7 C10_7 1_555 1_555
H20_7 C10_7 1_555 1_555
C11_7 C7_7 1_555 1_555
H21_7 C11_7 1_555 1_555
H22_7 C11_7 1_555 1_555
C12_7 C6_7 1_555 1_555
H23_7 C12_7 1_555 1_555
H24_7 C12_7 1_555 1_555
N4_4 C10_7 1_555 1_555
N5_7 Cu5_3 1_555 1_555
Cu5_3 Cu1_4 1_555 1_555
Cu8_4 N4_4 1_555 1_555
Cu9_4 Cu1_4 1_555 1_555
I5_3 Cu1_4 1_555 1_555
C2_10 N2_10 1_555 1_555
C4_7 N3_10 1_555 1_555
C6_7 N1_4 1_555 1_555
C7_7 N1_4 1_555 1_555
Cu1_4 Cu2_2 1_555 1_555
Cu2_2 I2_3 1_555 1_555
Cu2_2 I3_10 1_555 1_555
Cu2_2 Cu5_3 1_555 1_555
Cu2_2 Cu9_4 1_555 1_555
I1_4 Cu5_3 1_555 1_555
I1_4 Cu9_4 1_555 1_555
I2_3 Cu9_4 1_555 1_555
I3_10 Cu5_3 1_555 1_555
C8_7 C9_7 1_555 1_555
C11_7 N4_4 1_555 1_555
C12_7 N4_4 1_555 1_555
Cu5_3 Cu9_4 1_555 1_555
Cu5_3 I5_3 1_555 1_555
Cu9_4 I5_3 1_555 1_555
C1_8 H1_8 1_555 1_555
H2_8 C1_8 1_555 1_555
C2_11 H3_8 1_555 1_555
C3_11 C2_11 1_555 1_555
C4_8 C1_8 1_555 1_555
H5_8 C4_8 1_555 1_555
H6_8 C4_8 1_555 1_555
N2_11 C1_8 1_555 1_555
N3_11 C3_11 1_555 1_555
Cu1_5 N2_11 1_555 1_555
I1_5 Cu8_4 1_555 1_555
I2_4 Cu1_5 1_555 1_555
I3_11 Cu1_5 1_555 1_555
Cu9_5 Cu1_5 1_555 1_555
C2_11 N2_11 1_555 1_555
C4_8 N3_11 1_555 1_555
Cu1_5 Cu8_4 1_555 1_555
Cu8_4 I2_4 1_555 1_555
Cu8_4 I3_11 1_555 1_555
Cu8_4 Cu9_5 1_555 1_555
I1_5 Cu9_5 1_555 1_555
I2_4 Cu9_5 1_555 1_555
C3_12 C2_12 1_555 1_555
N3_12 C3_12 1_555 1_555
Cu1_6 N2_12 1_555 1_555
I3_12 Cu1_6 1_555 1_555
C8_8 N2_12 1_555 1_555
H13_8 C8_8 1_555 1_555
H14_8 C8_8 1_555 1_555
H15_8 C2_12 1_555 1_555
C9_8 N3_12 1_555 1_555
H17_8 C9_8 1_555 1_555
H18_8 C9_8 1_555 1_555
N5_8 Cu5_4 1_555 1_555
Cu5_4 Cu1_6 1_555 1_555
Cu9_6 Cu1_6 1_555 1_555
I5_4 Cu1_6 1_555 1_555
C2_12 N2_12 1_555 1_555
I1_6 Cu5_4 1_555 1_555
I1_6 Cu9_6 1_555 1_555
I3_12 Cu5_4 1_555 1_555
C8_8 C9_8 1_555 1_555
Cu5_4 Cu9_6 1_555 1_555
Cu5_4 I5_4 1_555 1_555
Cu9_6 I5_4 1_555 1_555
C5_8 H7_8 1_555 1_555
H8_8 C5_8 1_555 1_555
C6_8 H9_8 1_555 1_555
H10_8 C6_8 1_555 1_555
C7_8 H11_8 1_555 1_555
H12_8 C7_8 1_555 1_555
N5_7 C5_8 1_555 1_555
C10_8 C5_8 1_555 1_555
H19_8 C10_8 1_555 1_555
H20_8 C10_8 1_555 1_555
C11_8 C7_8 1_555 1_555
H21_8 C11_8 1_555 1_555
H22_8 C11_8 1_555 1_555
C12_8 C6_8 1_555 1_555
H23_8 C12_8 1_555 1_555
H24_8 C12_8 1_555 1_555
N5_8 C10_8 1_555 1_555
C6_8 N5_7 1_555 1_555
C7_8 N5_7 1_555 1_555
C11_8 N5_8 1_555 1_555
C12_8 N5_8 1_555 1_555

#END
