
###############################################################################
#
# This file contains modified crystal structure data generated from the
# MOF subset of the Cambridge Structural Database (CSD) v543 
# hosted by the Cambridge Crystallographic Data Centre (CCDC).
#
# This work is licensed under the Creative Commons
# Attribution-NonCommercial-ShareAlike 4.0 International License.
# To view a copy of this license, visit
# http://creativecommons.org/licenses/by-nc-sa/4.0/
# or send a letter to
# Creative Commons, PO Box 1866, Mountain View, CA 94042, USA.
#
# CIF created using the CSD Python API on 29 September 2022
# The structure has been converted into the P1 space group
# The structure has a 3D framework
# The original CSD entry GUPBOJ01 is in the monoclinic crystal system
# The framework has been calculated to contain at least 10.0% void space
# The void calculation uses a probe of radius 1.32A, grid spacing 0.4
#
###############################################################################

data_GUPBOJ01
_chemical_formula_moiety         '(C192 H240 Cd24 N96)n'
_symmetry_cell_setting           triclinic
_symmetry_space_group_name_H-M   'P 1'
_symmetry_Int_Tables_number      1
_space_group_name_Hall           'P 1'
loop_
_symmetry_equiv_pos_site_id
_symmetry_equiv_pos_as_xyz
1 x,y,z
_cell_length_a                   16.9693(17)
_cell_length_b                   29.411(3)
_cell_length_c                   14.6756(15)
_cell_angle_alpha                90
_cell_angle_beta                 103.622(2)
_cell_angle_gamma                90
_cell_volume                     7118.33
loop_
_atom_site_label
_atom_site_type_symbol
_atom_site_fract_x
_atom_site_fract_y
_atom_site_fract_z
Cd12 Cd 0.07112(4) 0.13088(2) 0.41444(5)
Cd1 Cd 0.42804(4) 0.18476(2) 0.19376(5)
Cd2 Cd 0.48471(4) 0.39398(2) 0.11140(5)
Cd3 Cd 0.71963(4) 0.04867(2) 0.22886(5)
N1 N 0.6406(6) 0.1073(3) 0.1830(6)
N2 N 0.5373(5) 0.1548(3) 0.1606(6)
N3 N 0.4151(5) 0.1494(2) 0.3218(6)
N4 N 0.4379(5) 0.1160(2) 0.4607(5)
N5 N 0.4544(5) 0.2581(3) 0.2145(7)
N6 N 0.4724(5) 0.3308(3) 0.1838(7)
N7 N 0.4125(5) 0.4527(3) 0.1326(7)
N8 N 0.3431(5) 0.5054(3) 0.1876(7)
N9 N 0.7598(5) 0.0161(3) 0.1132(6)
N11 N 0.7309(5) 0.4385(3) 0.2486(6)
N12 N 0.6124(5) 0.4087(3) 0.1653(6)
N17 N 0.9579(5) 0.0924(3) 0.3959(6)
N18 N 0.8353(5) 0.0649(3) 0.3304(6)
N22 N 0.3105(8) 0.1772(4) 0.0960(8)
C1 C 0.5071(8) 0.0748(4) 0.1894(11)
H1 H 0.5367 0.0467 0.2004
H2 H 0.4644 0.0721 0.1337
H3 H 0.4843 0.0813 0.2419
C2 C 0.5647(7) 0.1133(4) 0.1773(7)
C3 C 0.6660(8) 0.1497(5) 0.1662(11)
H4 H 0.7183 0.1577 0.1631
C4 C 0.6015(9) 0.1784(4) 0.1547(11)
H5 H 0.6027 0.2096 0.1444
C5 C 0.5560(6) 0.1531(4) 0.4203(8)
H6 H 0.5843 0.1426 0.4812
H7 H 0.5594 0.1857 0.4180
H8 H 0.5801 0.1401 0.3734
C6 C 0.4699(6) 0.1393(3) 0.4025(7)
C7 C 0.3579(6) 0.1115(3) 0.4145(8)
H9 H 0.3187 0.0969 0.4388
C8 C 0.3442(6) 0.1306(3) 0.3313(7)
H10 H 0.2949 0.1312 0.2870
C9 C 0.4004(11) 0.2835(5) 0.0499(10)
H11 H 0.3980 0.3116 0.0159
H12 H 0.3463 0.2726 0.0461
H13 H 0.4299 0.2614 0.0232
C10 C 0.4434(6) 0.2915(4) 0.1534(8)
C11 C 0.5071(11) 0.3226(5) 0.2732(10)
H14 H 0.5355 0.3438 0.3154
C12 C 0.4953(12) 0.2800(6) 0.2930(10)
H15 H 0.5124 0.2667 0.3519
C13 C 0.3997(7) 0.4439(4) 0.2959(7)
H16 H 0.3736 0.4604 0.3370
H17 H 0.4570 0.4427 0.3228
H18 H 0.3784 0.4135 0.2877
C14 C 0.3841(6) 0.4676(4) 0.2015(8)
C15 C 0.3871(7) 0.4865(4) 0.0633(8)
H19 H 0.3981 0.4865 0.0042
C16 C 0.3465(7) 0.5170(4) 0.0943(8)
H20 H 0.3230 0.5425 0.0614
C18 C 0.7422(6) 0.0230(3) 0.0221(8)
C21 C 0.6122(7) 0.4912(3) 0.2056(8)
H26 H 0.5563 0.4890 0.1728
H27 H 0.6157 0.5010 0.2688
H28 H 0.6392 0.5129 0.1745
C22 C 0.6524(7) 0.4452(3) 0.2065(7)
C23 C 0.6725(8) 0.3751(4) 0.1836(11)
H29 H 0.6651 0.3447 0.1665
C24 C 0.7424(7) 0.3939(4) 0.2298(10)
H30 H 0.7917 0.3787 0.2466
C33 C 0.8981(7) 0.1128(4) 0.2279(7)
H41 H 0.8482 0.1068 0.1828
H42 H 0.9045 0.1450 0.2377
H43 H 0.9426 0.1011 0.2050
C34 C 0.8964(6) 0.0901(3) 0.3181(7)
C35 C 0.9339(7) 0.0656(4) 0.4599(8)
H44 H 0.9630 0.0602 0.5210
C36 C 0.8607(8) 0.0482(4) 0.4195(9)
H45 H 0.8318 0.0279 0.4479
H50 H 0.0172 0.1360 0.0125
H51 H 0.3746 0.1248 0.0106
C42 C 0.2721(8) 0.1617(4) 0.0240(10)
C43 C 0.1775(10) 0.2009(5) 0.0488(12)
H54 H 0.1271 0.2146 0.0425
C44 C 0.2352(10) 0.2058(5) 0.1101(12)
H55 H 0.2366 0.2245 0.1615
Cd7 Cd 0.48471(4) 0.10602(2) 0.61140(5)
Cd8 Cd 0.28037(4) 0.54867(2) 0.27114(5)
Cd9 Cd 0.81648(4) 0.48282(2) 0.33986(5)
N26 N 0.6569(5) 0.0054(3) 0.3124(7)
N31 N 0.1306(5) 0.3718(3) 0.0642(5)
Cd4 Cd 0.81648(4) 0.01718(2) 0.83986(5)
Cd5 Cd 0.07112(4) 0.36912(2) 0.91444(5)
Cd6 Cd 0.11339(4) 0.15734(2) 0.84824(5)
N10 N 0.7927(5) 0.0045(3) 0.9786(6)
N15 N 0.0423(5) 0.2990(2) 0.8710(5)
N16 N 0.0569(5) 0.2251(3) 0.8450(5)
N20 N 0.0184(4) 0.1139(3) 0.8793(6)
N21 N 0.2031(8) 0.1662(4) 0.9792(7)
N23 N 0.1449(5) 0.1385(3) 0.7174(5)
N24 N 0.1306(5) 0.1282(3) 0.5642(5)
C17 C 0.6676(8) 0.0503(5) 0.9721(9)
H21 H 0.6657 0.0518 0.9062
H22 H 0.6709 0.0805 0.9974
H23 H 0.6194 0.0357 0.9813
H31 H 0.8176 0.0033 0.6350
C29 C 0.1798(6) 0.2740(3) 0.8631(9)
H36 H 0.1918 0.3058 0.8729
H37 H 0.1926 0.2645 0.8057
H38 H 0.2117 0.2569 0.9144
C30 C 0.0927(6) 0.2662(3) 0.8574(6)
H47 H 0.0282 0.0548 0.7397
C41 C 0.3198(10) 0.1276(5) 0.9742(11)
H52 H 0.3201 0.1388 0.9128
H53 H 0.2939 0.0983 0.9688
C45 C 0.0382(9) 0.1841(5) 0.6116(8)
H56 H 0.0161 0.1860 0.5452
H57 H 0.0603 0.2130 0.6347
C46 C 0.1032(6) 0.1492(3) 0.6313(7)
C47 C 0.1897(8) 0.1004(5) 0.6118(9)
H59 H 0.2187 0.0797 0.5846
C48 C 0.2001(7) 0.1074(4) 0.7046(8)
H60 H 0.2386 0.0932 0.7518
N25 N 0.4379(5) 0.3840(2) 0.9607(5)
N27 N 0.7309(5) 0.0615(3) 0.7486(6)
N28 N 0.1296(4) 0.3991(2) 0.8109(5)
N30 N 0.9217(5) 0.0624(3) 0.8806(6)
N13 N 0.8338(4) 0.9520(2) 0.7782(6)
N14 N 0.8704(4) 0.8991(2) 0.6891(5)
C25 C 0.8336(6) 0.9742(3) 0.6156(6)
H32 H 0.7916 0.9627 0.5652
H33 H 0.8828 0.9775 0.5946
C26 C 0.8471(5) 0.9423(3) 0.6953(6)
C27 C 0.8735(6) 0.8814(3) 0.7760(7)
H34 H 0.8890 0.8518 0.7943
C28 C 0.8513(6) 0.9125(3) 0.8306(7)
H35 H 0.8480 0.9085 0.8925
Cd11 Cd 0.92888(4) 0.86912(2) 0.58556(5)
C31 C 0.9773(7) 0.2320(3) 0.8496(8)
H39 H 0.9373 0.2098 0.8427
C32 C 0.9678(6) 0.2767(4) 0.8659(8)
H40 H 0.9202 0.2905 0.8727
C37 C 0.9747(7) 0.0654(4) 0.7394(7)
H46 H 0.9364 0.0412 0.7202
H48 H 0.9611 0.0904 0.6964
C38 C 0.9720(5) 0.0807(3) 0.8350(7)
C39 C 0.9386(7) 0.0859(4) 0.9668(8)
C40 C 0.9953(8) 0.1160(4) 0.9641(8)
H58 H 0.9961 0.1758 0.6421
N29 N 0.9579(5) 0.4076(3) 0.8959(6)
N19 N 0.0783(5) 0.5624(3) 0.6194(6)
C31_2 C 0.0227(7) 0.7320(3) 0.6504(8)
H39_2 H 0.0627 0.7098 0.6573
C32_2 C 0.0322(6) 0.7767(4) 0.6341(8)
H40_2 H 0.0798 0.7905 0.6273
C37_2 C 0.0253(7) 0.5654(4) 0.7606(7)
H46_2 H 0.0636 0.5412 0.7798
H48_2 H 0.0389 0.5904 0.8036
C38_2 C 0.0280(5) 0.5807(3) 0.6650(7)
C39_2 C 0.0614(7) 0.5859(4) 0.5332(8)
H49 H 0.0858 0.5810 0.4836
C40_2 C 0.0047(8) 0.6160(4) 0.5359(8)
H58_2 H 0.0039 0.6758 0.8579
Cd10 Cd 0.18352(4) 0.51718(2) 0.66014(5)
N29_2 N 0.0421(5) 0.9076(3) 0.6041(6)
C16_2 C 0.6535(7) 0.0170(4) 0.4057(8)
H20_2 H 0.6770 0.0425 0.4386
H27_2 H 0.3843 0.0010 0.2312
H28_2 H 0.3608 0.0129 0.3255
Cd13 Cd 0.92888(4) 0.63088(2) 0.08556(5)
Cd1_2 Cd 0.57196(4) 0.68476(2) 0.30624(5)
Cd2_2 Cd 0.51529(4) 0.89398(2) 0.38860(5)
Cd6_2 Cd 0.88661(4) 0.65734(2) 0.65176(5)
N1_2 N 0.3594(6) 0.6073(3) 0.3170(6)
N2_2 N 0.4627(5) 0.6548(3) 0.3394(6)
N3_2 N 0.5849(5) 0.6494(2) 0.1782(6)
N4_2 N 0.5621(5) 0.6160(2) 0.0393(5)
N5_2 N 0.5456(5) 0.7581(3) 0.2855(7)
N6_2 N 0.5276(5) 0.8308(3) 0.3162(7)
N7_2 N 0.5875(5) 0.9527(3) 0.3674(7)
N9_2 N 0.2402(5) 0.5161(3) 0.3868(6)
N10_2 N 0.2073(5) 0.5045(3) 0.5214(6)
N11_2 N 0.2691(5) 0.9385(3) 0.2514(6)
N12_2 N 0.3876(5) 0.9087(3) 0.3347(6)
N13_2 N 0.1662(4) 0.4520(2) 0.7218(6)
N15_2 N 0.9577(5) 0.7990(2) 0.6290(5)
N16_2 N 0.9431(5) 0.7251(3) 0.6550(5)
N17_2 N 0.0421(5) 0.5924(3) 0.1041(6)
N18_2 N 0.1647(5) 0.5649(3) 0.1696(6)
N20_2 N 0.9816(4) 0.6139(3) 0.6207(6)
N21_2 N 0.7969(8) 0.6662(4) 0.5208(7)
N22_2 N 0.6895(8) 0.6772(4) 0.4040(8)
N23_2 N 0.8551(5) 0.6385(3) 0.7826(5)
N24_2 N 0.8694(5) 0.6282(3) 0.9358(5)
C1_2 C 0.4929(8) 0.5748(4) 0.3106(11)
H1_2 H 0.4633 0.5467 0.2996
H2_2 H 0.5356 0.5721 0.3663
H3_2 H 0.5157 0.5813 0.2581
C2_2 C 0.4353(7) 0.6133(4) 0.3227(7)
C3_2 C 0.3340(8) 0.6497(5) 0.3338(11)
H4_2 H 0.2817 0.6577 0.3369
C4_2 C 0.3985(9) 0.6784(4) 0.3453(11)
H5_2 H 0.3973 0.7096 0.3556
C5_2 C 0.4440(6) 0.6531(4) 0.0797(8)
H6_2 H 0.4157 0.6426 0.0188
H7_2 H 0.4406 0.6857 0.0820
H8_2 H 0.4199 0.6401 0.1266
C6_2 C 0.5301(6) 0.6393(3) 0.0975(7)
C7_2 C 0.6421(6) 0.6115(3) 0.0855(8)
H9_2 H 0.6813 0.5969 0.0612
C8_2 C 0.6558(6) 0.6306(3) 0.1687(7)
H10_2 H 0.7051 0.6312 0.2130
C9_2 C 0.5996(11) 0.7835(5) 0.4501(10)
H11_2 H 0.6020 0.8116 0.4841
H12_2 H 0.6537 0.7726 0.4539
H13_2 H 0.5701 0.7614 0.4768
C10_2 C 0.5566(6) 0.7915(4) 0.3466(8)
C11_2 C 0.4929(11) 0.8226(5) 0.2268(10)
H14_2 H 0.4645 0.8438 0.1846
C12_2 C 0.5047(12) 0.7800(6) 0.2070(10)
H15_2 H 0.4876 0.7667 0.1481
C13_2 C 0.6003(7) 0.9439(4) 0.2041(7)
H16_2 H 0.6264 0.9604 0.1630
H17_2 H 0.5430 0.9427 0.1772
H18_2 H 0.6216 0.9135 0.2123
C14_2 C 0.6159(6) 0.9676(4) 0.2985(8)
C15_2 C 0.6129(7) 0.9865(4) 0.4367(8)
H19_2 H 0.6019 0.9865 0.4958
C17_2 C 0.3324(8) 0.5503(5) 0.5279(9)
H21_2 H 0.3343 0.5518 0.5938
H22_2 H 0.3291 0.5805 0.5026
H23_2 H 0.3806 0.5357 0.5187
C18_2 C 0.2578(6) 0.5230(3) 0.4779(8)
C19 C 0.1713(7) 0.4901(4) 0.3713(8)
H24 H 0.1438 0.4788 0.3132
C20 C 0.1499(8) 0.4834(4) 0.4510(8)
H25 H 0.1046 0.4674 0.4587
C21_2 C 0.3878(7) 0.9912(3) 0.2944(8)
H26_2 H 0.4437 0.9890 0.3272
C22_2 C 0.3476(7) 0.9452(3) 0.2935(7)
C23_2 C 0.3275(8) 0.8751(4) 0.3164(11)
H29_2 H 0.3349 0.8447 0.3335
C24_2 C 0.2576(7) 0.8939(4) 0.2702(10)
H30_2 H 0.2083 0.8787 0.2534
C25_2 C 0.1664(6) 0.4742(3) 0.8844(6)
H31_2 H 0.1824 0.5033 0.8650
H32_2 H 0.2084 0.4627 0.9348
H33_2 H 0.1172 0.4775 0.9054
C26_2 C 0.1529(5) 0.4423(3) 0.8047(6)
C27_2 C 0.1265(6) 0.3814(3) 0.7240(7)
H34_2 H 0.1110 0.3518 0.7057
C28_2 C 0.1487(6) 0.4125(3) 0.6694(7)
H35_2 H 0.1520 0.4085 0.6075
C29_2 C 0.8202(6) 0.7740(3) 0.6369(9)
H36_2 H 0.8082 0.8058 0.6271
H37_2 H 0.8074 0.7645 0.6943
H38_2 H 0.7883 0.7569 0.5856
C30_2 C 0.9073(6) 0.7662(3) 0.6426(6)
C33_2 C 0.1019(7) 0.6128(4) 0.2721(7)
H41_2 H 0.1518 0.6068 0.3172
H42_2 H 0.0955 0.6450 0.2623
H43_2 H 0.0574 0.6011 0.2950
C34_2 C 0.1036(6) 0.5901(3) 0.1819(7)
C35_2 C 0.0661(7) 0.5656(4) 0.0401(8)
C36_2 C 0.1393(8) 0.5482(4) 0.0805(9)
H45_2 H 0.1682 0.5279 0.0521
H47_2 H 0.9718 0.5548 0.7603
H50_2 H 0.9828 0.6360 0.4875
C41_2 C 0.6802(10) 0.6276(5) 0.5258(11)
H51_2 H 0.6254 0.6248 0.4894
H52_2 H 0.6799 0.6388 0.5872
H53_2 H 0.7061 0.5983 0.5312
C42_2 C 0.7279(8) 0.6617(4) 0.4760(10)
C43_2 C 0.8225(10) 0.7009(5) 0.4512(12)
H54_2 H 0.8729 0.7146 0.4575
C44_2 C 0.7648(10) 0.7058(5) 0.3899(12)
H55_2 H 0.7634 0.7245 0.3385
C45_2 C 0.9618(9) 0.6841(5) 0.8884(8)
H56_2 H 0.9839 0.6860 0.9548
H57_2 H 0.9397 0.7130 0.8653
C46_2 C 0.8968(6) 0.6492(3) 0.8687(7)
C47_2 C 0.8103(8) 0.6004(5) 0.8882(9)
H59_2 H 0.7813 0.5797 0.9154
C48_2 C 0.7999(7) 0.6074(4) 0.7954(8)
H60_2 H 0.7614 0.5932 0.7482
Cd9_2 Cd 0.18352(4) 0.98282(2) 0.16014(5)
N25_2 N 0.5621(5) 0.8840(2) 0.5393(5)
N27_2 N 0.2691(5) 0.5615(3) 0.7514(6)
N31_2 N 0.8694(5) 0.8718(3) 0.4358(5)
H44_2 H 0.0370 0.5602 0.9790
Cd7_2 Cd 0.51529(4) 0.60602(2) 0.88860(5)
N19_2 N 0.0783(5) 0.9376(3) 0.1194(6)
C31_3 C 0.0227(7) 0.7680(3) 0.1504(8)
H39_3 H 0.0627 0.7902 0.1573
C32_3 C 0.0322(6) 0.7233(4) 0.1341(8)
H40_3 H 0.0798 0.7095 0.1273
C37_3 C 0.0253(7) 0.9346(4) 0.2606(7)
H46_3 H 0.0636 0.9588 0.2798
H48_3 H 0.0389 0.9096 0.3036
C38_3 C 0.0280(5) 0.9193(3) 0.1650(7)
C39_3 C 0.0614(7) 0.9141(4) 0.0332(8)
C40_3 C 0.0047(8) 0.8840(4) 0.0359(8)
H58_3 H 0.0039 0.8242 0.3579
N13_3 N 0.1662(4) 0.0480(2) 0.2218(6)
N14_2 N 0.1296(4) 0.1009(2) 0.3109(5)
C25_3 C 0.1664(6) 0.0258(3) 0.3844(6)
H32_3 H 0.2084 0.0373 0.4348
H33_3 H 0.1172 0.0225 0.4054
C26_3 C 0.1529(5) 0.0577(3) 0.3047(6)
C27_3 C 0.1265(6) 0.1186(3) 0.2240(7)
H34_3 H 0.1110 0.1482 0.2057
C28_3 C 0.1487(6) 0.0875(3) 0.1694(7)
H35_3 H 0.1520 0.0915 0.1075
Cd6_3 Cd 0.88661(4) 0.84266(2) 0.15176(5)
N10_3 N 0.2073(5) 0.9955(3) 0.0214(6)
N15_3 N 0.9577(5) 0.7010(2) 0.1290(5)
N16_3 N 0.9431(5) 0.7749(3) 0.1550(5)
N20_3 N 0.9816(4) 0.8861(3) 0.1207(6)
N21_3 N 0.7969(8) 0.8338(4) 0.0208(7)
N23_3 N 0.8551(5) 0.8615(3) 0.2826(5)
C17_3 C 0.3324(8) 0.9497(5) 0.0279(9)
H21_3 H 0.3343 0.9482 0.0938
H22_3 H 0.3291 0.9195 0.0026
H23_3 H 0.3806 0.9643 0.0187
H31_3 H 0.1824 0.9967 0.3650
C29_3 C 0.8202(6) 0.7260(3) 0.1369(9)
H36_3 H 0.8082 0.6942 0.1271
H37_3 H 0.8074 0.7355 0.1943
H38_3 H 0.7883 0.7431 0.0856
C30_3 C 0.9073(6) 0.7338(3) 0.1426(6)
H47_3 H 0.9718 0.9452 0.2603
C41_3 C 0.6802(10) 0.8724(5) 0.0258(11)
H52_3 H 0.6799 0.8612 0.0872
H53_3 H 0.7061 0.9017 0.0312
C45_3 C 0.9618(9) 0.8159(5) 0.3884(8)
H56_3 H 0.9839 0.8140 0.4548
H57_3 H 0.9397 0.7870 0.3653
C46_3 C 0.8968(6) 0.8508(3) 0.3687(7)
C47_3 C 0.8103(8) 0.8996(5) 0.3882(9)
H59_3 H 0.7813 0.9203 0.4154
C48_3 C 0.7999(7) 0.8926(4) 0.2954(8)
H60_3 H 0.7614 0.9068 0.2482
N28_2 N 0.8704(4) 0.6009(2) 0.1891(5)
Cd1_3 Cd 0.57196(4) 0.81524(2) 0.80624(5)
Cd3_2 Cd 0.28037(4) 0.95133(2) 0.77114(5)
N1_3 N 0.3594(6) 0.8927(3) 0.8170(6)
N2_3 N 0.4627(5) 0.8452(3) 0.8394(6)
N3_3 N 0.5849(5) 0.8506(2) 0.6782(6)
N5_3 N 0.5456(5) 0.7419(3) 0.7855(7)
N6_3 N 0.5276(5) 0.6692(3) 0.8162(7)
N7_3 N 0.5875(5) 0.5473(3) 0.8674(7)
N8_2 N 0.6569(5) 0.4946(3) 0.8124(7)
N9_3 N 0.2402(5) 0.9839(3) 0.8868(6)
N12_3 N 0.3876(5) 0.5913(3) 0.8347(6)
N18_3 N 0.1647(5) 0.9351(3) 0.6696(6)
N22_3 N 0.6895(8) 0.8228(4) 0.9040(8)
C1_3 C 0.4929(8) 0.9252(4) 0.8106(11)
H1_3 H 0.4633 0.9533 0.7996
H2_3 H 0.5356 0.9279 0.8663
H3_3 H 0.5157 0.9187 0.7581
C2_3 C 0.4353(7) 0.8867(4) 0.8227(7)
C3_3 C 0.3340(8) 0.8503(5) 0.8338(11)
H4_3 H 0.2817 0.8423 0.8369
C4_3 C 0.3985(9) 0.8216(4) 0.8453(11)
H5_3 H 0.3973 0.7904 0.8556
C5_3 C 0.4440(6) 0.8469(4) 0.5797(8)
H6_3 H 0.4157 0.8574 0.5188
H7_3 H 0.4406 0.8143 0.5820
H8_3 H 0.4199 0.8599 0.6266
C6_3 C 0.5301(6) 0.8607(3) 0.5975(7)
C7_3 C 0.6421(6) 0.8885(3) 0.5855(8)
H9_3 H 0.6813 0.9031 0.5612
C8_3 C 0.6558(6) 0.8694(3) 0.6687(7)
H10_3 H 0.7051 0.8688 0.7130
C9_3 C 0.5996(11) 0.7165(5) 0.9501(10)
H11_3 H 0.6020 0.6884 0.9841
H12_3 H 0.6537 0.7274 0.9539
H13_3 H 0.5701 0.7386 0.9768
C10_3 C 0.5566(6) 0.7085(4) 0.8466(8)
C11_3 C 0.4929(11) 0.6774(5) 0.7268(10)
H14_3 H 0.4645 0.6562 0.6846
C12_3 C 0.5047(12) 0.7200(6) 0.7070(10)
H15_3 H 0.4876 0.7333 0.6481
C13_3 C 0.6003(7) 0.5561(4) 0.7041(7)
H16_3 H 0.6264 0.5396 0.6630
H17_3 H 0.5430 0.5573 0.6772
H18_3 H 0.6216 0.5865 0.7123
C14_3 C 0.6159(6) 0.5324(4) 0.7985(8)
C15_3 C 0.6129(7) 0.5135(4) 0.9367(8)
H19_3 H 0.6019 0.5135 0.9958
C16_3 C 0.6535(7) 0.4830(4) 0.9057(8)
H20_3 H 0.6770 0.4575 0.9386
C18_3 C 0.2578(6) 0.9770(3) 0.9779(8)
C21_3 C 0.3878(7) 0.5088(3) 0.7944(8)
H26_3 H 0.4437 0.5110 0.8272
H27_3 H 0.3843 0.4990 0.7312
H28_3 H 0.3608 0.4871 0.8255
C22_3 C 0.3476(7) 0.5548(3) 0.7935(7)
C23_3 C 0.3275(8) 0.6249(4) 0.8164(11)
H29_3 H 0.3349 0.6553 0.8335
C24_3 C 0.2576(7) 0.6061(4) 0.7702(10)
H30_3 H 0.2083 0.6213 0.7534
C33_3 C 0.1019(7) 0.8872(4) 0.7721(7)
H41_3 H 0.1518 0.8932 0.8172
H42_3 H 0.0955 0.8550 0.7623
H43_3 H 0.0574 0.8989 0.7950
C34_3 C 0.1036(6) 0.9099(3) 0.6819(7)
C35_3 C 0.0661(7) 0.9344(4) 0.5401(8)
H44_3 H 0.0370 0.9398 0.4790
C36_3 C 0.1393(8) 0.9518(4) 0.5805(9)
H45_3 H 0.1682 0.9721 0.5521
H50_3 H 0.9828 0.8640 0.9875
H51_3 H 0.6254 0.8752 0.9894
C42_3 C 0.7279(8) 0.8383(4) 0.9760(10)
C43_3 C 0.8225(10) 0.7991(5) 0.9512(12)
H54_3 H 0.8729 0.7854 0.9575
C44_3 C 0.7648(10) 0.7942(5) 0.8899(12)
H55_3 H 0.7634 0.7755 0.8385
Cd8_2 Cd 0.71963(4) 0.45133(2) 0.72886(5)
N26_2 N 0.3431(5) 0.9946(3) 0.6876(7)
H44_4 H 0.9630 0.4398 0.0210
Cd1_4 Cd 0.42804(4) 0.31524(2) 0.69376(5)
Cd6_4 Cd 0.11339(4) 0.34266(2) 0.34824(5)
N1_4 N 0.6406(6) 0.3927(3) 0.6830(6)
N2_4 N 0.5373(5) 0.3452(3) 0.6606(6)
N3_4 N 0.4151(5) 0.3506(2) 0.8218(6)
N5_4 N 0.4544(5) 0.2419(3) 0.7145(7)
N6_4 N 0.4724(5) 0.1692(3) 0.6838(7)
N7_4 N 0.4125(5) 0.0473(3) 0.6326(7)
N9_4 N 0.7598(5) 0.4839(3) 0.6132(6)
N10_4 N 0.7927(5) 0.4955(3) 0.4786(6)
N12_4 N 0.6124(5) 0.0913(3) 0.6653(6)
N13_4 N 0.8338(4) 0.5480(2) 0.2782(6)
N15_4 N 0.0423(5) 0.2010(2) 0.3710(5)
N16_4 N 0.0569(5) 0.2749(3) 0.3450(5)
N18_4 N 0.8353(5) 0.4351(3) 0.8304(6)
N20_4 N 0.0184(4) 0.3861(3) 0.3793(6)
N21_4 N 0.2031(8) 0.3338(4) 0.4792(7)
N22_4 N 0.3105(8) 0.3228(4) 0.5960(8)
N23_4 N 0.1449(5) 0.3615(3) 0.2174(5)
C1_4 C 0.5071(8) 0.4252(4) 0.6894(11)
H1_4 H 0.5367 0.4533 0.7004
H2_4 H 0.4644 0.4279 0.6337
H3_4 H 0.4843 0.4187 0.7419
C2_4 C 0.5647(7) 0.3867(4) 0.6773(7)
C3_4 C 0.6660(8) 0.3503(5) 0.6662(11)
H4_4 H 0.7183 0.3423 0.6631
C4_4 C 0.6015(9) 0.3216(4) 0.6547(11)
H5_4 H 0.6027 0.2904 0.6444
C5_4 C 0.5560(6) 0.3469(4) 0.9203(8)
H6_4 H 0.5843 0.3574 0.9812
H7_4 H 0.5594 0.3143 0.9180
H8_4 H 0.5801 0.3599 0.8734
C6_4 C 0.4699(6) 0.3607(3) 0.9025(7)
C7_4 C 0.3579(6) 0.3885(3) 0.9145(8)
H9_4 H 0.3187 0.4031 0.9388
C8_4 C 0.3442(6) 0.3694(3) 0.8313(7)
H10_4 H 0.2949 0.3688 0.7870
C9_4 C 0.4004(11) 0.2165(5) 0.5499(10)
H11_4 H 0.3980 0.1884 0.5159
H12_4 H 0.3463 0.2274 0.5461
H13_4 H 0.4299 0.2386 0.5232
C10_4 C 0.4434(6) 0.2085(4) 0.6534(8)
C11_4 C 0.5071(11) 0.1774(5) 0.7732(10)
H14_4 H 0.5355 0.1562 0.8154
C12_4 C 0.4953(12) 0.2200(6) 0.7930(10)
H15_4 H 0.5124 0.2333 0.8519
C13_4 C 0.3997(7) 0.0561(4) 0.7959(7)
H16_4 H 0.3736 0.0396 0.8370
H17_4 H 0.4570 0.0573 0.8228
H18_4 H 0.3784 0.0865 0.7877
C14_4 C 0.3841(6) 0.0324(4) 0.7015(8)
C15_4 C 0.3871(7) 0.0135(4) 0.5633(8)
H19_4 H 0.3981 0.0135 0.5042
C17_4 C 0.6676(8) 0.4497(5) 0.4721(9)
H21_4 H 0.6657 0.4482 0.4062
H22_4 H 0.6709 0.4195 0.4974
H23_4 H 0.6194 0.4643 0.4813
C18_4 C 0.7422(6) 0.4770(3) 0.5221(8)
C19_2 C 0.8287(7) 0.5099(4) 0.6287(8)
H24_2 H 0.8562 0.5212 0.6868
C20_2 C 0.8501(8) 0.5166(4) 0.5490(8)
H25_2 H 0.8954 0.5326 0.5413
C21_4 C 0.6122(7) 0.0088(3) 0.7056(8)
H26_4 H 0.5563 0.0110 0.6728
C22_4 C 0.6524(7) 0.0548(3) 0.7065(7)
C23_4 C 0.6725(8) 0.1249(4) 0.6836(11)
H29_4 H 0.6651 0.1553 0.6665
C24_4 C 0.7424(7) 0.1061(4) 0.7298(10)
H30_4 H 0.7917 0.1213 0.7466
C25_4 C 0.8336(6) 0.5258(3) 0.1156(6)
H31_4 H 0.8176 0.4967 0.1350
H32_4 H 0.7916 0.5373 0.0652
H33_4 H 0.8828 0.5225 0.0946
C26_4 C 0.8471(5) 0.5577(3) 0.1953(6)
C27_4 C 0.8735(6) 0.6186(3) 0.2760(7)
H34_4 H 0.8890 0.6482 0.2943
C28_4 C 0.8513(6) 0.5875(3) 0.3306(7)
H35_4 H 0.8480 0.5915 0.3925
C29_4 C 0.1798(6) 0.2260(3) 0.3631(9)
H36_4 H 0.1918 0.1942 0.3729
H37_4 H 0.1926 0.2355 0.3057
H38_4 H 0.2117 0.2431 0.4144
C30_4 C 0.0927(6) 0.2338(3) 0.3574(6)
C33_4 C 0.8981(7) 0.3872(4) 0.7279(7)
H41_4 H 0.8482 0.3932 0.6828
H42_4 H 0.9045 0.3550 0.7377
H43_4 H 0.9426 0.3989 0.7050
C34_4 C 0.8964(6) 0.4099(3) 0.8181(7)
C35_4 C 0.9339(7) 0.4344(4) 0.9599(8)
C36_4 C 0.8607(8) 0.4518(4) 0.9195(9)
H45_4 H 0.8318 0.4721 0.9479
H47_4 H 0.0282 0.4452 0.2397
H50_4 H 0.0172 0.3640 0.5125
C41_4 C 0.3198(10) 0.3724(5) 0.4742(11)
H51_4 H 0.3746 0.3752 0.5106
H52_4 H 0.3201 0.3612 0.4128
H53_4 H 0.2939 0.4017 0.4688
C42_4 C 0.2721(8) 0.3383(4) 0.5240(10)
C43_4 C 0.1775(10) 0.2991(5) 0.5488(12)
H54_4 H 0.1271 0.2854 0.5425
C44_4 C 0.2352(10) 0.2942(5) 0.6101(12)
H55_4 H 0.2366 0.2755 0.6615
C45_4 C 0.0382(9) 0.3159(5) 0.1116(8)
H56_4 H 0.0161 0.3140 0.0452
H57_4 H 0.0603 0.2870 0.1347
C46_4 C 0.1032(6) 0.3508(3) 0.1313(7)
C47_4 C 0.1897(8) 0.3996(5) 0.1118(9)
H59_4 H 0.2187 0.4203 0.0846
C48_4 C 0.2001(7) 0.3926(4) 0.2046(8)
H60_4 H 0.2386 0.4068 0.2518
N30_2 N 0.9217(5) 0.4376(3) 0.3806(6)
C16_4 C 0.3465(7) 0.9830(4) 0.5943(8)
H20_4 H 0.3230 0.9575 0.5614
H27_4 H 0.6157 0.9990 0.7688
H28_4 H 0.6392 0.9871 0.6745
C31_4 C 0.9773(7) 0.2680(3) 0.3496(8)
H39_4 H 0.9373 0.2902 0.3427
C32_4 C 0.9678(6) 0.2233(4) 0.3659(8)
H40_4 H 0.9202 0.2095 0.3727
C37_4 C 0.9747(7) 0.4346(4) 0.2394(7)
H46_4 H 0.9364 0.4588 0.2202
H48_4 H 0.9611 0.4096 0.1964
C38_4 C 0.9720(5) 0.4193(3) 0.3350(7)
C39_4 C 0.9386(7) 0.4141(4) 0.4668(8)
H49_2 H 0.9142 0.4190 0.5164
C40_4 C 0.9953(8) 0.3840(4) 0.4641(8)
H58_4 H 0.9961 0.3242 0.1421
C19_3 C 0.8287(7) 0.9901(4) 0.1287(8)
H24_3 H 0.8562 0.9788 0.1868
C20_3 C 0.8501(8) 0.9834(4) 0.0490(8)
H25_3 H 0.8954 0.9674 0.0413
H49_3 H 0.9142 0.0810 0.0164
H49_4 H 0.0858 0.9190 0.9836
C19_4 C 0.1713(7) 0.0099(4) 0.8713(8)
H24_4 H 0.1438 0.0212 0.8132
C20_4 C 0.1499(8) 0.0166(4) 0.9510(8)
H25_4 H 0.1046 0.0326 0.9587
loop_
_geom_bond_atom_site_label_1
_geom_bond_atom_site_label_2
_geom_bond_site_symmetry_1
_geom_bond_site_symmetry_2
Cd1 N2 1_555 1_555
Cd2 N6 1_555 1_555
Cd3 N1 1_555 1_555
N1 C2 1_555 1_555
N2 C2 1_555 1_555
N3 Cd1 1_555 1_555
N4 C6 1_555 1_555
N5 Cd1 1_555 1_555
N6 C10 1_555 1_555
N7 Cd2 1_555 1_555
N8 C14 1_555 1_555
N9 Cd3 1_555 1_555
N11 C22 1_555 1_555
N12 Cd2 1_555 1_555
N17 C34 1_555 1_555
N18 Cd3 1_555 1_555
N22 Cd1 1_555 1_555
C1 H1 1_555 1_555
H2 C1 1_555 1_555
H3 C1 1_555 1_555
C2 C1 1_555 1_555
C3 N1 1_555 1_555
H4 C3 1_555 1_555
C4 N2 1_555 1_555
H5 C4 1_555 1_555
C5 H6 1_555 1_555
H7 C5 1_555 1_555
H8 C5 1_555 1_555
C6 N3 1_555 1_555
C7 N4 1_555 1_555
H9 C7 1_555 1_555
C8 N3 1_555 1_555
H10 C8 1_555 1_555
C9 H11 1_555 1_555
H12 C9 1_555 1_555
H13 C9 1_555 1_555
C10 N5 1_555 1_555
C11 N6 1_555 1_555
H14 C11 1_555 1_555
C12 N5 1_555 1_555
H15 C12 1_555 1_555
C13 H16 1_555 1_555
H17 C13 1_555 1_555
H18 C13 1_555 1_555
C14 N7 1_555 1_555
C15 N7 1_555 1_555
H19 C15 1_555 1_555
C16 N8 1_555 1_555
H20 C16 1_555 1_555
C18 N9 1_555 1_555
C21 H26 1_555 1_555
H27 C21 1_555 1_555
H28 C21 1_555 1_555
C22 N12 1_555 1_555
C23 N12 1_555 1_555
H29 C23 1_555 1_555
C24 N11 1_555 1_555
H30 C24 1_555 1_555
C33 H41 1_555 1_555
H42 C33 1_555 1_555
H43 C33 1_555 1_555
C34 N18 1_555 1_555
C35 N17 1_555 1_555
H44 C35 1_555 1_555
C36 N18 1_555 1_555
H45 C36 1_555 1_555
H54 C43 1_555 1_555
C44 N22 1_555 1_555
H55 C44 1_555 1_555
Cd7 N4 1_555 1_555
Cd8 N8 1_555 1_555
Cd9 N11 1_555 1_555
N26 Cd3 1_555 1_555
N22 C42 1_555 1_555
C3 C4 1_555 1_555
C5 C6 1_555 1_555
C7 C8 1_555 1_555
C9 C10 1_555 1_555
C11 C12 1_555 1_555
C13 C14 1_555 1_555
C15 C16 1_555 1_555
C21 C22 1_555 1_555
C23 C24 1_555 1_555
C33 C34 1_555 1_555
C35 C36 1_555 1_555
C43 C44 1_555 1_555
Cd4 N10 1_555 1_555
Cd5 N15 1_555 1_555
Cd6 N16 1_555 1_555
N15 C30 1_555 1_555
N16 C30 1_555 1_555
N20 Cd6 1_555 1_555
N21 Cd6 1_555 1_555
N23 Cd6 1_555 1_555
N24 C46 1_555 1_555
C17 H21 1_555 1_555
H22 C17 1_555 1_555
H23 C17 1_555 1_555
C29 H36 1_555 1_555
H37 C29 1_555 1_555
H38 C29 1_555 1_555
C30 C29 1_555 1_555
H52 C41 1_555 1_555
H53 C41 1_555 1_555
C45 H56 1_555 1_555
H57 C45 1_555 1_555
C46 N23 1_555 1_555
C47 N24 1_555 1_555
H59 C47 1_555 1_555
C48 N23 1_555 1_555
H60 C48 1_555 1_555
Cd12 N24 1_555 1_555
N27 Cd4 1_555 1_555
N28 Cd5 1_555 1_555
N30 Cd4 1_555 1_555
C45 C46 1_555 1_555
C47 C48 1_555 1_555
N14 C26 1_555 1_555
H32 C25 1_555 1_555
H33 C25 1_555 1_555
C26 N13 1_555 1_555
C27 N14 1_555 1_555
H34 C27 1_555 1_555
C28 N13 1_555 1_555
H35 C28 1_555 1_555
Cd11 N14 1_555 1_555
C25 C26 1_555 1_555
C27 C28 1_555 1_555
N30 C38 1_555 1_555
H39 C31 1_555 1_555
H40 C32 1_555 1_555
C37 H46 1_555 1_555
H48 C37 1_555 1_555
C39 N30 1_555 1_555
C31 C32 1_555 1_555
C37 C38 1_555 1_555
C39 C40 1_555 1_555
N19 C38_2 1_555 1_555
H39_2 C31_2 1_555 1_555
H40_2 C32_2 1_555 1_555
C37_2 H46_2 1_555 1_555
H48_2 C37_2 1_555 1_555
C39_2 N19 1_555 1_555
H49 C39_2 1_555 1_555
Cd10 N19 1_555 1_555
C31_2 C32_2 1_555 1_555
C37_2 C38_2 1_555 1_555
C39_2 C40_2 1_555 1_555
C16_2 N26 1_555 1_555
H20_2 C16_2 1_555 1_555
Cd1_2 N2_2 1_555 1_555
Cd2_2 N6_2 1_555 1_555
Cd8 N1_2 1_555 1_555
Cd10 N10_2 1_555 1_555
Cd11 N15_2 1_555 1_555
Cd6_2 N16_2 1_555 1_555
N1_2 C2_2 1_555 1_555
N2_2 C2_2 1_555 1_555
N3_2 Cd1_2 1_555 1_555
N4_2 C6_2 1_555 1_555
N5_2 Cd1_2 1_555 1_555
N6_2 C10_2 1_555 1_555
N7_2 Cd2_2 1_555 1_555
N9_2 Cd8 1_555 1_555
N10_2 C18_2 1_555 1_555
N11_2 C22_2 1_555 1_555
N12_2 Cd2_2 1_555 1_555
N13_2 Cd10 1_555 1_555
N28 C26_2 1_555 1_555
N15_2 C30_2 1_555 1_555
N16_2 C30_2 1_555 1_555
N17_2 C34_2 1_555 1_555
N18_2 Cd8 1_555 1_555
N20_2 Cd6_2 1_555 1_555
N21_2 Cd6_2 1_555 1_555
N22_2 Cd1_2 1_555 1_555
N23_2 Cd6_2 1_555 1_555
N24_2 C46_2 1_555 1_555
C1_2 H1_2 1_555 1_555
H2_2 C1_2 1_555 1_555
H3_2 C1_2 1_555 1_555
C2_2 C1_2 1_555 1_555
C3_2 N1_2 1_555 1_555
H4_2 C3_2 1_555 1_555
C4_2 N2_2 1_555 1_555
H5_2 C4_2 1_555 1_555
C5_2 H6_2 1_555 1_555
H7_2 C5_2 1_555 1_555
H8_2 C5_2 1_555 1_555
C6_2 N3_2 1_555 1_555
C7_2 N4_2 1_555 1_555
H9_2 C7_2 1_555 1_555
C8_2 N3_2 1_555 1_555
H10_2 C8_2 1_555 1_555
C9_2 H11_2 1_555 1_555
H12_2 C9_2 1_555 1_555
H13_2 C9_2 1_555 1_555
C10_2 N5_2 1_555 1_555
C11_2 N6_2 1_555 1_555
H14_2 C11_2 1_555 1_555
C12_2 N5_2 1_555 1_555
H15_2 C12_2 1_555 1_555
C13_2 H16_2 1_555 1_555
H17_2 C13_2 1_555 1_555
H18_2 C13_2 1_555 1_555
C14_2 N7_2 1_555 1_555
C15_2 N7_2 1_555 1_555
H19_2 C15_2 1_555 1_555
C17_2 H21_2 1_555 1_555
H22_2 C17_2 1_555 1_555
H23_2 C17_2 1_555 1_555
C18_2 N9_2 1_555 1_555
C19 N9_2 1_555 1_555
H24 C19 1_555 1_555
C20 N10_2 1_555 1_555
H25 C20 1_555 1_555
C21_2 H26_2 1_555 1_555
C22_2 N12_2 1_555 1_555
C23_2 N12_2 1_555 1_555
H29_2 C23_2 1_555 1_555
C24_2 N11_2 1_555 1_555
H30_2 C24_2 1_555 1_555
C25_2 H31_2 1_555 1_555
H32_2 C25_2 1_555 1_555
H33_2 C25_2 1_555 1_555
C26_2 N13_2 1_555 1_555
C27_2 N28 1_555 1_555
H34_2 C27_2 1_555 1_555
C28_2 N13_2 1_555 1_555
H35_2 C28_2 1_555 1_555
C29_2 H36_2 1_555 1_555
H37_2 C29_2 1_555 1_555
H38_2 C29_2 1_555 1_555
C30_2 C29_2 1_555 1_555
C33_2 H41_2 1_555 1_555
H42_2 C33_2 1_555 1_555
H43_2 C33_2 1_555 1_555
C34_2 N18_2 1_555 1_555
C35_2 N17_2 1_555 1_555
C36_2 N18_2 1_555 1_555
H45_2 C36_2 1_555 1_555
C41_2 H51_2 1_555 1_555
H52_2 C41_2 1_555 1_555
H53_2 C41_2 1_555 1_555
C42_2 N21_2 1_555 1_555
C43_2 N21_2 1_555 1_555
H54_2 C43_2 1_555 1_555
C44_2 N22_2 1_555 1_555
H55_2 C44_2 1_555 1_555
C45_2 H56_2 1_555 1_555
H57_2 C45_2 1_555 1_555
C46_2 N23_2 1_555 1_555
C47_2 N24_2 1_555 1_555
H59_2 C47_2 1_555 1_555
C48_2 N23_2 1_555 1_555
H60_2 C48_2 1_555 1_555
Cd9_2 N11_2 1_555 1_555
N25_2 Cd2_2 1_555 1_555
N27_2 Cd10 1_555 1_555
N31_2 Cd11 1_555 1_555
N22_2 C42_2 1_555 1_555
C3_2 C4_2 1_555 1_555
C5_2 C6_2 1_555 1_555
C7_2 C8_2 1_555 1_555
C9_2 C10_2 1_555 1_555
C11_2 C12_2 1_555 1_555
C13_2 C14_2 1_555 1_555
C17_2 C18_2 1_555 1_555
C19 C20 1_555 1_555
C21_2 C22_2 1_555 1_555
C23_2 C24_2 1_555 1_555
C25_2 C26_2 1_555 1_555
C27_2 C28_2 1_555 1_555
C33_2 C34_2 1_555 1_555
C35_2 C36_2 1_555 1_555
C41_2 C42_2 1_555 1_555
C43_2 C44_2 1_555 1_555
C45_2 C46_2 1_555 1_555
C47_2 C48_2 1_555 1_555
N19_2 C38_3 1_555 1_555
H39_3 C31_3 1_555 1_555
H40_3 C32_3 1_555 1_555
C37_3 H46_3 1_555 1_555
H48_3 C37_3 1_555 1_555
C39_3 N19_2 1_555 1_555
Cd9_2 N19_2 1_555 1_555
C31_3 C32_3 1_555 1_555
C37_3 C38_3 1_555 1_555
C39_3 C40_3 1_555 1_555
N14_2 C26_3 1_555 1_555
H32_3 C25_3 1_555 1_555
H33_3 C25_3 1_555 1_555
C26_3 N13_3 1_555 1_555
C27_3 N14_2 1_555 1_555
H34_3 C27_3 1_555 1_555
C28_3 N13_3 1_555 1_555
H35_3 C28_3 1_555 1_555
Cd12 N14_2 1_555 1_555
C25_3 C26_3 1_555 1_555
C27_3 C28_3 1_555 1_555
Cd9_2 N10_3 1_555 1_555
Cd13 N15_3 1_555 1_555
Cd6_3 N16_3 1_555 1_555
N15_3 C30_3 1_555 1_555
N16_3 C30_3 1_555 1_555
N20_3 Cd6_3 1_555 1_555
N21_3 Cd6_3 1_555 1_555
N23_3 Cd6_3 1_555 1_555
N31_2 C46_3 1_555 1_555
C17_3 H21_3 1_555 1_555
H22_3 C17_3 1_555 1_555
H23_3 C17_3 1_555 1_555
C29_3 H36_3 1_555 1_555
H37_3 C29_3 1_555 1_555
H38_3 C29_3 1_555 1_555
C30_3 C29_3 1_555 1_555
H52_3 C41_3 1_555 1_555
H53_3 C41_3 1_555 1_555
C45_3 H56_3 1_555 1_555
H57_3 C45_3 1_555 1_555
C46_3 N23_3 1_555 1_555
C47_3 N31_2 1_555 1_555
H59_3 C47_3 1_555 1_555
C48_3 N23_3 1_555 1_555
H60_3 C48_3 1_555 1_555
N28_2 Cd13 1_555 1_555
C45_3 C46_3 1_555 1_555
C47_3 C48_3 1_555 1_555
Cd1_3 N2_3 1_555 1_555
Cd7_2 N6_3 1_555 1_555
Cd3_2 N1_3 1_555 1_555
N1_3 C2_3 1_555 1_555
N2_3 C2_3 1_555 1_555
N3_3 Cd1_3 1_555 1_555
N25_2 C6_3 1_555 1_555
N5_3 Cd1_3 1_555 1_555
N6_3 C10_3 1_555 1_555
N7_3 Cd7_2 1_555 1_555
N8_2 C14_3 1_555 1_555
N9_3 Cd3_2 1_555 1_555
N27_2 C22_3 1_555 1_555
N12_3 Cd7_2 1_555 1_555
N29_2 C34_3 1_555 1_555
N18_3 Cd3_2 1_555 1_555
N22_3 Cd1_3 1_555 1_555
C1_3 H1_3 1_555 1_555
H2_3 C1_3 1_555 1_555
H3_3 C1_3 1_555 1_555
C2_3 C1_3 1_555 1_555
C3_3 N1_3 1_555 1_555
H4_3 C3_3 1_555 1_555
C4_3 N2_3 1_555 1_555
H5_3 C4_3 1_555 1_555
C5_3 H6_3 1_555 1_555
H7_3 C5_3 1_555 1_555
H8_3 C5_3 1_555 1_555
C6_3 N3_3 1_555 1_555
C7_3 N25_2 1_555 1_555
H9_3 C7_3 1_555 1_555
C8_3 N3_3 1_555 1_555
H10_3 C8_3 1_555 1_555
C9_3 H11_3 1_555 1_555
H12_3 C9_3 1_555 1_555
H13_3 C9_3 1_555 1_555
C10_3 N5_3 1_555 1_555
C11_3 N6_3 1_555 1_555
H14_3 C11_3 1_555 1_555
C12_3 N5_3 1_555 1_555
H15_3 C12_3 1_555 1_555
C13_3 H16_3 1_555 1_555
H17_3 C13_3 1_555 1_555
H18_3 C13_3 1_555 1_555
C14_3 N7_3 1_555 1_555
C15_3 N7_3 1_555 1_555
H19_3 C15_3 1_555 1_555
C16_3 N8_2 1_555 1_555
H20_3 C16_3 1_555 1_555
C18_3 N9_3 1_555 1_555
C21_3 H26_3 1_555 1_555
H27_3 C21_3 1_555 1_555
H28_3 C21_3 1_555 1_555
C22_3 N12_3 1_555 1_555
C23_3 N12_3 1_555 1_555
H29_3 C23_3 1_555 1_555
C24_3 N27_2 1_555 1_555
H30_3 C24_3 1_555 1_555
C33_3 H41_3 1_555 1_555
H42_3 C33_3 1_555 1_555
H43_3 C33_3 1_555 1_555
C34_3 N18_3 1_555 1_555
C35_3 N29_2 1_555 1_555
H44_3 C35_3 1_555 1_555
C36_3 N18_3 1_555 1_555
H45_3 C36_3 1_555 1_555
H54_3 C43_3 1_555 1_555
C44_3 N22_3 1_555 1_555
H55_3 C44_3 1_555 1_555
Cd8_2 N8_2 1_555 1_555
N26_2 Cd3_2 1_555 1_555
N22_3 C42_3 1_555 1_555
C3_3 C4_3 1_555 1_555
C5_3 C6_3 1_555 1_555
C7_3 C8_3 1_555 1_555
C9_3 C10_3 1_555 1_555
C11_3 C12_3 1_555 1_555
C13_3 C14_3 1_555 1_555
C15_3 C16_3 1_555 1_555
C21_3 C22_3 1_555 1_555
C23_3 C24_3 1_555 1_555
C33_3 C34_3 1_555 1_555
C35_3 C36_3 1_555 1_555
C43_3 C44_3 1_555 1_555
Cd1_4 N2_4 1_555 1_555
Cd7 N6_4 1_555 1_555
Cd8_2 N1_4 1_555 1_555
Cd9 N10_4 1_555 1_555
Cd12 N15_4 1_555 1_555
Cd6_4 N16_4 1_555 1_555
N1_4 C2_4 1_555 1_555
N2_4 C2_4 1_555 1_555
N3_4 Cd1_4 1_555 1_555
N25 C6_4 1_555 1_555
N5_4 Cd1_4 1_555 1_555
N6_4 C10_4 1_555 1_555
N7_4 Cd7 1_555 1_555
N9_4 Cd8_2 1_555 1_555
N10_4 C18_4 1_555 1_555
N27 C22_4 1_555 1_555
N12_4 Cd7 1_555 1_555
N13_4 Cd9 1_555 1_555
N28_2 C26_4 1_555 1_555
N15_4 C30_4 1_555 1_555
N16_4 C30_4 1_555 1_555
N29 C34_4 1_555 1_555
N18_4 Cd8_2 1_555 1_555
N20_4 Cd6_4 1_555 1_555
N21_4 Cd6_4 1_555 1_555
N22_4 Cd1_4 1_555 1_555
N23_4 Cd6_4 1_555 1_555
N31 C46_4 1_555 1_555
C1_4 H1_4 1_555 1_555
H2_4 C1_4 1_555 1_555
H3_4 C1_4 1_555 1_555
C2_4 C1_4 1_555 1_555
C3_4 N1_4 1_555 1_555
H4_4 C3_4 1_555 1_555
C4_4 N2_4 1_555 1_555
H5_4 C4_4 1_555 1_555
C5_4 H6_4 1_555 1_555
H7_4 C5_4 1_555 1_555
H8_4 C5_4 1_555 1_555
C6_4 N3_4 1_555 1_555
C7_4 N25 1_555 1_555
H9_4 C7_4 1_555 1_555
C8_4 N3_4 1_555 1_555
H10_4 C8_4 1_555 1_555
C9_4 H11_4 1_555 1_555
H12_4 C9_4 1_555 1_555
H13_4 C9_4 1_555 1_555
C10_4 N5_4 1_555 1_555
C11_4 N6_4 1_555 1_555
H14_4 C11_4 1_555 1_555
C12_4 N5_4 1_555 1_555
H15_4 C12_4 1_555 1_555
C13_4 H16_4 1_555 1_555
H17_4 C13_4 1_555 1_555
H18_4 C13_4 1_555 1_555
C14_4 N7_4 1_555 1_555
C15_4 N7_4 1_555 1_555
H19_4 C15_4 1_555 1_555
C17_4 H21_4 1_555 1_555
H22_4 C17_4 1_555 1_555
H23_4 C17_4 1_555 1_555
C18_4 N9_4 1_555 1_555
C19_2 N9_4 1_555 1_555
H24_2 C19_2 1_555 1_555
C20_2 N10_4 1_555 1_555
H25_2 C20_2 1_555 1_555
C21_4 H26_4 1_555 1_555
C22_4 N12_4 1_555 1_555
C23_4 N12_4 1_555 1_555
H29_4 C23_4 1_555 1_555
C24_4 N27 1_555 1_555
H30_4 C24_4 1_555 1_555
C25_4 H31_4 1_555 1_555
H32_4 C25_4 1_555 1_555
H33_4 C25_4 1_555 1_555
C26_4 N13_4 1_555 1_555
C27_4 N28_2 1_555 1_555
H34_4 C27_4 1_555 1_555
C28_4 N13_4 1_555 1_555
H35_4 C28_4 1_555 1_555
C29_4 H36_4 1_555 1_555
H37_4 C29_4 1_555 1_555
H38_4 C29_4 1_555 1_555
C30_4 C29_4 1_555 1_555
C33_4 H41_4 1_555 1_555
H42_4 C33_4 1_555 1_555
H43_4 C33_4 1_555 1_555
C34_4 N18_4 1_555 1_555
C35_4 N29 1_555 1_555
C36_4 N18_4 1_555 1_555
H45_4 C36_4 1_555 1_555
C41_4 H51_4 1_555 1_555
H52_4 C41_4 1_555 1_555
H53_4 C41_4 1_555 1_555
C42_4 N21_4 1_555 1_555
C43_4 N21_4 1_555 1_555
H54_4 C43_4 1_555 1_555
C44_4 N22_4 1_555 1_555
H55_4 C44_4 1_555 1_555
C45_4 H56_4 1_555 1_555
H57_4 C45_4 1_555 1_555
C46_4 N23_4 1_555 1_555
C47_4 N31 1_555 1_555
H59_4 C47_4 1_555 1_555
C48_4 N23_4 1_555 1_555
H60_4 C48_4 1_555 1_555
N30_2 Cd9 1_555 1_555
N22_4 C42_4 1_555 1_555
C3_4 C4_4 1_555 1_555
C5_4 C6_4 1_555 1_555
C7_4 C8_4 1_555 1_555
C9_4 C10_4 1_555 1_555
C11_4 C12_4 1_555 1_555
C13_4 C14_4 1_555 1_555
C17_4 C18_4 1_555 1_555
C19_2 C20_2 1_555 1_555
C21_4 C22_4 1_555 1_555
C23_4 C24_4 1_555 1_555
C25_4 C26_4 1_555 1_555
C27_4 C28_4 1_555 1_555
C33_4 C34_4 1_555 1_555
C35_4 C36_4 1_555 1_555
C41_4 C42_4 1_555 1_555
C43_4 C44_4 1_555 1_555
C45_4 C46_4 1_555 1_555
C47_4 C48_4 1_555 1_555
C16_4 N26_2 1_555 1_555
H20_4 C16_4 1_555 1_555
N30_2 C38_4 1_555 1_555
H39_4 C31_4 1_555 1_555
H40_4 C32_4 1_555 1_555
C37_4 H46_4 1_555 1_555
H48_4 C37_4 1_555 1_555
C39_4 N30_2 1_555 1_555
H49_2 C39_4 1_555 1_555
C31_4 C32_4 1_555 1_555
C37_4 C38_4 1_555 1_555
C39_4 C40_4 1_555 1_555
H24_3 C19_3 1_555 1_555
H25_3 C20_3 1_555 1_555
C19_3 C20_3 1_555 1_555
H24_4 C19_4 1_555 1_555
H25_4 C20_4 1_555 1_555
C19_4 C20_4 1_555 1_555

#END
