
###############################################################################
#
# This file contains modified crystal structure data generated from the
# MOF subset of the Cambridge Structural Database (CSD) v543 
# hosted by the Cambridge Crystallographic Data Centre (CCDC).
#
# This work is licensed under the Creative Commons
# Attribution-NonCommercial-ShareAlike 4.0 International License.
# To view a copy of this license, visit
# http://creativecommons.org/licenses/by-nc-sa/4.0/
# or send a letter to
# Creative Commons, PO Box 1866, Mountain View, CA 94042, USA.
#
# CIF created using the CSD Python API on 29 September 2022
# The structure has been converted into the P1 space group
# The structure has a 3D framework
# The original CSD entry GUPBEZ01 is in the tetragonal crystal system
# The framework has been calculated to contain at least 10.0% void space
# The void calculation uses a probe of radius 1.32A, grid spacing 0.4
#
###############################################################################

data_GUPBEZ01
_chemical_formula_moiety         '(C104 H192 Cu39 I26 N40)n'
_symmetry_cell_setting           triclinic
_symmetry_space_group_name_H-M   'P 1'
_symmetry_Int_Tables_number      1
_space_group_name_Hall           'P 1'
loop_
_symmetry_equiv_pos_site_id
_symmetry_equiv_pos_as_xyz
1 x,y,z
_cell_length_a                   18.2095(14)
_cell_length_b                   18.2095(14)
_cell_length_c                   16.0985(17)
_cell_angle_alpha                90
_cell_angle_beta                 90
_cell_angle_gamma                90
_cell_volume                     5338.04
loop_
_atom_site_label
_atom_site_type_symbol
_atom_site_fract_x
_atom_site_fract_y
_atom_site_fract_z
N1 N 0.2603(3) 0.1482(3) 0.0000
N2 N 0.2954(3) 0.0099(3) 0.0000
N3 N 0.2249(3) 0.4544(2) 0.1877(3)
C1 C 0.2143(4) 0.0198(4) 0.0000
C2 C 0.1930(4) 0.1011(4) 0.0000
C3 C 0.2584(4) 0.5251(3) 0.1653(4)
H3 H 0.2284 0.5493 0.1237
H4 H 0.3067 0.5166 0.1416
C4 C 0.3251(3) 0.0474(3) 0.0747(4)
H5 H 0.3782 0.0428 0.0757
H6 H 0.3058 0.0242 0.1244
C5 C 0.1498(3) 0.4689(4) 0.2188(4)
H7 H 0.1305 0.4248 0.2447
H8 H 0.1181 0.4814 0.1725
C6 C 0.3036(4) 0.1295(3) 0.0740(4)
H9 H 0.2753 0.1407 0.1234
H10 H 0.3478 0.1593 0.0752
C7 C 0.2655(4) 0.4250(3) 0.2577(5)
H11 H 0.3169 0.4204 0.2428
H12 H 0.2471 0.3765 0.2710
I1 I 0.11118(3) 0.46567(3) 0.0000
I2 I 0.15147(2) 0.26530(2) 0.14456(3)
I3 I 0.33702(3) 0.35833(3) 0.0000
Cu1 Cu 0.10134(6) 0.32099(6) 0.0000
Cu2 Cu 0.22911(6) 0.25812(6) 0.0000
Cu3 Cu 0.21480(5) 0.38572(4) 0.08372(5)
N5 N 0.2249(3) 0.5456(2) 0.3123(3)
H14 H 0.1637 0.1119 0.0488
C8 C 0.2584(4) 0.4749(3) 0.3347(4)
H15 H 0.2284 0.4507 0.3763
H16 H 0.3067 0.4834 0.3584
C10 C 0.1498(3) 0.5311(4) 0.2812(4)
H19 H 0.1305 0.5752 0.2553
H20 H 0.1181 0.5186 0.3275
C12 C 0.2655(4) 0.5750(3) 0.2423(5)
H23 H 0.3169 0.5796 0.2572
H24 H 0.2471 0.6235 0.2290
I4 I 0.11118(3) 0.53433(3) 0.5000
I5 I 0.15147(2) 0.73470(2) 0.35544(3)
I7 I 0.33702(3) 0.64167(3) 0.5000
Cu5 Cu 0.10134(6) 0.67901(6) 0.5000
Cu6 Cu 0.22911(6) 0.74188(6) 0.5000
Cu7 Cu 0.21480(5) 0.61428(4) 0.41628(5)
Cu9 Cu 0.21480(5) 0.61428(4) 0.58372(5)
N1_2 N 0.2603(3) 0.1482(3) 1.0000
N2_2 N 0.2954(3) 0.0099(3) 1.0000
C1_2 C 0.2143(4) 0.0198(4) 1.0000
C2_2 C 0.1930(4) 0.1011(4) 1.0000
H2 H 0.1637 0.1119 0.9512
I1_2 I 0.11118(3) 0.46567(3) 1.0000
I3_2 I 0.33702(3) 0.35833(3) 1.0000
Cu1_2 Cu 0.10134(6) 0.32099(6) 1.0000
Cu2_2 Cu 0.22911(6) 0.25812(6) 1.0000
C9 C 0.3251(3) 0.0474(3) 0.9253(4)
H17 H 0.3782 0.0428 0.9243
H18 H 0.3058 0.0242 0.8756
C11 C 0.3036(4) 0.1295(3) 0.9260(4)
H21 H 0.2753 0.1407 0.8766
H22 H 0.3478 0.1593 0.9248
I6 I 0.15147(2) 0.26530(2) 0.85544(3)
Cu8 Cu 0.21480(5) 0.38572(4) 0.91628(5)
N1_3 N 0.2603(3) 0.8518(3) 0.5000
N2_3 N 0.2954(3) 0.9901(3) 0.5000
C1_3 C 0.2143(4) 0.9802(4) 0.5000
C2_3 C 0.1930(4) 0.8989(4) 0.5000
H2_2 H 0.1637 0.8881 0.5488
C4_2 C 0.3251(3) 0.9526(3) 0.4253(4)
H5_2 H 0.3782 0.9572 0.4243
H6_2 H 0.3058 0.9758 0.3756
C6_2 C 0.3036(4) 0.8705(3) 0.4260(4)
H9_2 H 0.2753 0.8593 0.3766
H10_2 H 0.3478 0.8407 0.4248
H14_2 H 0.1637 0.8881 0.4512
C9_2 C 0.3251(3) 0.9526(3) 0.5747(4)
H17_2 H 0.3782 0.9572 0.5757
H18_2 H 0.3058 0.9758 0.6244
C11_2 C 0.3036(4) 0.8705(3) 0.5740(4)
H21_2 H 0.2753 0.8593 0.6234
H22_2 H 0.3478 0.8407 0.5752
I6_2 I 0.15147(2) 0.73470(2) 0.64456(3)
H1 H 0.0038 0.1937 0.0487
H13 H 0.0038 0.1937 0.9513
H1_2 H 0.0038 0.8063 0.4513
H13_2 H 0.0038 0.8063 0.5487
N3_2 N 0.2249(3) 0.4544(2) 0.8123(3)
C3_2 C 0.2584(4) 0.5251(3) 0.8347(4)
H3_2 H 0.2284 0.5493 0.8763
H4_2 H 0.3067 0.5166 0.8584
C5_2 C 0.1498(3) 0.4689(4) 0.7812(4)
H7_2 H 0.1305 0.4248 0.7553
H8_2 H 0.1181 0.4814 0.8275
C7_2 C 0.2655(4) 0.4250(3) 0.7423(5)
H11_2 H 0.3169 0.4204 0.7572
H12_2 H 0.2471 0.3765 0.7290
N5_2 N 0.2249(3) 0.5456(2) 0.6877(3)
C8_2 C 0.2584(4) 0.4749(3) 0.6653(4)
H15_2 H 0.2284 0.4507 0.6237
H16_2 H 0.3067 0.4834 0.6416
C10_2 C 0.1498(3) 0.5311(4) 0.7188(4)
H19_2 H 0.1305 0.5752 0.7447
H20_2 H 0.1181 0.5186 0.6725
C12_2 C 0.2655(4) 0.5750(3) 0.7577(5)
H23_2 H 0.3169 0.5796 0.7428
H24_2 H 0.2471 0.6235 0.7710
H1_3 H 0.1937 0.9962 0.0487
Cu4 Cu 0.32099(6) 0.89866(6) 0.0000
H13_3 H 0.1937 0.9962 0.9513
Cu4_2 Cu 0.32099(6) 0.89866(6) 1.0000
N4 N 0.9901(3) 0.7046(3) 0.5000
N4_2 N 0.0099(3) 0.7046(3) 0.0000
N4_3 N 0.0099(3) 0.7046(3) 1.0000
H1_4 H 0.8063 0.9962 0.4513
H13_4 H 0.8063 0.9962 0.5487
Cu4_3 Cu 0.67901(6) 0.89866(6) 0.5000
N1_4 N 0.1482(3) 0.7397(3) 0.0000
N3_3 N 0.4544(2) 0.7751(3) 0.1877(3)
C1_4 C 0.0198(4) 0.7857(4) 0.0000
C2_4 C 0.1011(4) 0.8070(4) 0.0000
C3_3 C 0.5251(3) 0.7416(4) 0.1653(4)
H3_3 H 0.5493 0.7716 0.1237
H4_3 H 0.5166 0.6933 0.1416
C4_3 C 0.0474(3) 0.6749(3) 0.0747(4)
H5_3 H 0.0428 0.6218 0.0757
H6_3 H 0.0242 0.6942 0.1244
C5_3 C 0.4689(4) 0.8502(3) 0.2188(4)
H7_3 H 0.4248 0.8695 0.2447
H8_3 H 0.4814 0.8819 0.1725
C6_3 C 0.1295(3) 0.6964(4) 0.0740(4)
H9_3 H 0.1407 0.7247 0.1234
H10_3 H 0.1593 0.6522 0.0752
C7_3 C 0.4250(3) 0.7345(4) 0.2577(5)
H11_3 H 0.4204 0.6831 0.2428
H12_3 H 0.3765 0.7529 0.2710
I1_3 I 0.46567(3) 0.88882(3) 0.0000
I2_2 I 0.26530(2) 0.84853(2) 0.14456(3)
I3_3 I 0.35833(3) 0.66298(3) 0.0000
Cu2_3 Cu 0.25812(6) 0.77089(6) 0.0000
Cu3_2 Cu 0.38572(4) 0.78520(5) 0.08372(5)
N5_3 N 0.5456(2) 0.7751(3) 0.3123(3)
H14_3 H 0.1119 0.8363 0.0488
C8_3 C 0.4749(3) 0.7416(4) 0.3347(4)
H15_3 H 0.4507 0.7716 0.3763
H16_3 H 0.4834 0.6933 0.3584
C10_3 C 0.5311(4) 0.8502(3) 0.2812(4)
H19_3 H 0.5752 0.8695 0.2553
H20_3 H 0.5186 0.8819 0.3275
C12_3 C 0.5750(3) 0.7345(4) 0.2423(5)
H23_3 H 0.5796 0.6831 0.2572
H24_3 H 0.6235 0.7529 0.2290
I4_2 I 0.53433(3) 0.88882(3) 0.5000
I5_2 I 0.73470(2) 0.84853(2) 0.35544(3)
I7_2 I 0.64167(3) 0.66298(3) 0.5000
Cu6_2 Cu 0.74188(6) 0.77089(6) 0.5000
Cu7_2 Cu 0.61428(4) 0.78520(5) 0.41628(5)
Cu9_2 Cu 0.61428(4) 0.78520(5) 0.58372(5)
N1_5 N 0.1482(3) 0.7397(3) 1.0000
C1_5 C 0.0198(4) 0.7857(4) 1.0000
C2_5 C 0.1011(4) 0.8070(4) 1.0000
H2_3 H 0.1119 0.8363 0.9512
I1_4 I 0.46567(3) 0.88882(3) 1.0000
I3_4 I 0.35833(3) 0.66298(3) 1.0000
Cu2_4 Cu 0.25812(6) 0.77089(6) 1.0000
C9_3 C 0.0474(3) 0.6749(3) 0.9253(4)
H17_3 H 0.0428 0.6218 0.9243
H18_3 H 0.0242 0.6942 0.8756
C11_3 C 0.1295(3) 0.6964(4) 0.9260(4)
H21_3 H 0.1407 0.7247 0.8766
H22_3 H 0.1593 0.6522 0.9248
I6_3 I 0.26530(2) 0.84853(2) 0.85544(3)
Cu8_2 Cu 0.38572(4) 0.78520(5) 0.91628(5)
N1_6 N 0.8518(3) 0.7397(3) 0.5000
C1_6 C 0.9802(4) 0.7857(4) 0.5000
C2_6 C 0.8989(4) 0.8070(4) 0.5000
H2_4 H 0.8881 0.8363 0.5488
C4_4 C 0.9526(3) 0.6749(3) 0.4253(4)
H5_4 H 0.9572 0.6218 0.4243
H6_4 H 0.9758 0.6942 0.3756
C6_4 C 0.8705(3) 0.6964(4) 0.4260(4)
H9_4 H 0.8593 0.7247 0.3766
H10_4 H 0.8407 0.6522 0.4248
H14_4 H 0.8881 0.8363 0.4512
C9_4 C 0.9526(3) 0.6749(3) 0.5747(4)
H17_4 H 0.9572 0.6218 0.5757
H18_4 H 0.9758 0.6942 0.6244
C11_4 C 0.8705(3) 0.6964(4) 0.5740(4)
H21_4 H 0.8593 0.7247 0.6234
H22_4 H 0.8407 0.6522 0.5752
I6_4 I 0.73470(2) 0.84853(2) 0.64456(3)
N3_4 N 0.5456(2) 0.7751(3) 0.6877(3)
C3_4 C 0.4749(3) 0.7416(4) 0.6653(4)
H3_4 H 0.4507 0.7716 0.6237
H4_4 H 0.4834 0.6933 0.6416
C5_4 C 0.5311(4) 0.8502(3) 0.7188(4)
H7_4 H 0.5752 0.8695 0.7447
H8_4 H 0.5186 0.8819 0.6725
C7_4 C 0.5750(3) 0.7345(4) 0.7577(5)
H11_4 H 0.5796 0.6831 0.7428
H12_4 H 0.6235 0.7529 0.7710
N5_4 N 0.4544(2) 0.7751(3) 0.8123(3)
C8_4 C 0.5251(3) 0.7416(4) 0.8347(4)
H15_4 H 0.5493 0.7716 0.8763
H16_4 H 0.5166 0.6933 0.8584
C10_4 C 0.4689(4) 0.8502(3) 0.7812(4)
H19_4 H 0.4248 0.8695 0.7553
H20_4 H 0.4814 0.8819 0.8275
C12_4 C 0.4250(3) 0.7345(4) 0.7423(5)
H23_4 H 0.4204 0.6831 0.7572
H24_4 H 0.3765 0.7529 0.7290
N4_4 N 0.9901(3) 0.2954(3) 0.0000
N4_5 N 0.9901(3) 0.2954(3) 1.0000
H1_5 H 0.1937 0.0038 0.4513
H13_5 H 0.1937 0.0038 0.5487
Cu4_4 Cu 0.32099(6) 0.10134(6) 0.5000
H1_6 H 0.8063 0.0038 0.0487
Cu4_5 Cu 0.67901(6) 0.10134(6) 0.0000
H13_6 H 0.8063 0.0038 0.9513
Cu4_6 Cu 0.67901(6) 0.10134(6) 1.0000
N4_6 N 0.0099(3) 0.2954(3) 0.5000
N1_7 N 0.1482(3) 0.2603(3) 0.5000
N3_5 N 0.4544(2) 0.2249(3) 0.3123(3)
C1_7 C 0.0198(4) 0.2143(4) 0.5000
C2_7 C 0.1011(4) 0.1930(4) 0.5000
H2_5 H 0.1119 0.1637 0.5488
C3_5 C 0.5251(3) 0.2584(4) 0.3347(4)
H3_5 H 0.5493 0.2284 0.3763
H4_5 H 0.5166 0.3067 0.3584
C4_5 C 0.0474(3) 0.3251(3) 0.4253(4)
H5_5 H 0.0428 0.3782 0.4243
H6_5 H 0.0242 0.3058 0.3756
C5_5 C 0.4689(4) 0.1498(3) 0.2812(4)
H7_5 H 0.4248 0.1305 0.2553
H8_5 H 0.4814 0.1181 0.3275
C6_5 C 0.1295(3) 0.3036(4) 0.4260(4)
H9_5 H 0.1407 0.2753 0.3766
H10_5 H 0.1593 0.3478 0.4248
C7_5 C 0.4250(3) 0.2655(4) 0.2423(5)
H11_5 H 0.4204 0.3169 0.2572
H12_5 H 0.3765 0.2471 0.2290
I1_5 I 0.46567(3) 0.11118(3) 0.5000
I2_3 I 0.26530(2) 0.15147(2) 0.35544(3)
I3_5 I 0.35833(3) 0.33702(3) 0.5000
Cu2_5 Cu 0.25812(6) 0.22911(6) 0.5000
Cu3_3 Cu 0.38572(4) 0.21480(5) 0.41628(5)
N5_5 N 0.5456(2) 0.2249(3) 0.1877(3)
H14_5 H 0.1119 0.1637 0.4512
C8_5 C 0.4749(3) 0.2584(4) 0.1653(4)
H15_5 H 0.4507 0.2284 0.1237
H16_5 H 0.4834 0.3067 0.1416
C9_5 C 0.0474(3) 0.3251(3) 0.5747(4)
H17_5 H 0.0428 0.3782 0.5757
H18_5 H 0.0242 0.3058 0.6244
C10_5 C 0.5311(4) 0.1498(3) 0.2188(4)
H19_5 H 0.5752 0.1305 0.2447
H20_5 H 0.5186 0.1181 0.1725
C11_5 C 0.1295(3) 0.3036(4) 0.5740(4)
H21_5 H 0.1407 0.2753 0.6234
H22_5 H 0.1593 0.3478 0.5752
C12_5 C 0.5750(3) 0.2655(4) 0.2577(5)
H23_5 H 0.5796 0.3169 0.2428
H24_5 H 0.6235 0.2471 0.2710
I4_3 I 0.53433(3) 0.11118(3) 0.0000
I5_3 I 0.73470(2) 0.15147(2) 0.14456(3)
I6_5 I 0.26530(2) 0.15147(2) 0.64456(3)
I7_3 I 0.64167(3) 0.33702(3) 0.0000
Cu6_3 Cu 0.74188(6) 0.22911(6) 0.0000
Cu7_3 Cu 0.61428(4) 0.21480(5) 0.08372(5)
Cu8_3 Cu 0.38572(4) 0.21480(5) 0.58372(5)
I4_4 I 0.53433(3) 0.11118(3) 1.0000
I7_4 I 0.64167(3) 0.33702(3) 1.0000
Cu6_4 Cu 0.74188(6) 0.22911(6) 1.0000
Cu9_3 Cu 0.61428(4) 0.21480(5) 0.91628(5)
N1_8 N 0.8518(3) 0.2603(3) 0.0000
C1_8 C 0.9802(4) 0.2143(4) 0.0000
C2_8 C 0.8989(4) 0.1930(4) 0.0000
C4_6 C 0.9526(3) 0.3251(3) 0.0747(4)
H5_6 H 0.9572 0.3782 0.0757
H6_6 H 0.9758 0.3058 0.1244
C6_6 C 0.8705(3) 0.3036(4) 0.0740(4)
H9_6 H 0.8593 0.2753 0.1234
H10_6 H 0.8407 0.3478 0.0752
H14_6 H 0.8881 0.1637 0.0488
N1_9 N 0.8518(3) 0.2603(3) 1.0000
C1_9 C 0.9802(4) 0.2143(4) 1.0000
C2_9 C 0.8989(4) 0.1930(4) 1.0000
H2_6 H 0.8881 0.1637 0.9512
C9_6 C 0.9526(3) 0.3251(3) 0.9253(4)
H17_6 H 0.9572 0.3782 0.9243
H18_6 H 0.9758 0.3058 0.8756
C11_6 C 0.8705(3) 0.3036(4) 0.9260(4)
H21_6 H 0.8593 0.2753 0.8766
H22_6 H 0.8407 0.3478 0.9248
I6_6 I 0.73470(2) 0.15147(2) 0.85544(3)
N3_6 N 0.5456(2) 0.2249(3) 0.8123(3)
C3_6 C 0.4749(3) 0.2584(4) 0.8347(4)
H3_6 H 0.4507 0.2284 0.8763
H4_6 H 0.4834 0.3067 0.8584
C5_6 C 0.5311(4) 0.1498(3) 0.7812(4)
H7_6 H 0.5752 0.1305 0.7553
H8_6 H 0.5186 0.1181 0.8275
C7_6 C 0.5750(3) 0.2655(4) 0.7423(5)
H11_6 H 0.5796 0.3169 0.7572
H12_6 H 0.6235 0.2471 0.7290
N5_6 N 0.4544(2) 0.2249(3) 0.6877(3)
C8_6 C 0.5251(3) 0.2584(4) 0.6653(4)
H15_6 H 0.5493 0.2284 0.6237
H16_6 H 0.5166 0.3067 0.6416
C10_6 C 0.4689(4) 0.1498(3) 0.7188(4)
H19_6 H 0.4248 0.1305 0.7447
H20_6 H 0.4814 0.1181 0.6725
C12_6 C 0.4250(3) 0.2655(4) 0.7577(5)
H23_6 H 0.4204 0.3169 0.7428
H24_6 H 0.3765 0.2471 0.7710
N1_10 N 0.7397(3) 0.8518(3) 0.0000
N2_4 N 0.7046(3) 0.9901(3) 0.0000
N3_7 N 0.7751(3) 0.5456(2) 0.1877(3)
C1_10 C 0.7857(4) 0.9802(4) 0.0000
C2_10 C 0.8070(4) 0.8989(4) 0.0000
C3_7 C 0.7416(4) 0.4749(3) 0.1653(4)
H3_7 H 0.7716 0.4507 0.1237
H4_7 H 0.6933 0.4834 0.1416
C4_7 C 0.6749(3) 0.9526(3) 0.0747(4)
H5_7 H 0.6218 0.9572 0.0757
H6_7 H 0.6942 0.9758 0.1244
C5_7 C 0.8502(3) 0.5311(4) 0.2188(4)
H7_7 H 0.8695 0.5752 0.2447
H8_7 H 0.8819 0.5186 0.1725
C6_7 C 0.6964(4) 0.8705(3) 0.0740(4)
H9_7 H 0.7247 0.8593 0.1234
H10_7 H 0.6522 0.8407 0.0752
C7_7 C 0.7345(4) 0.5750(3) 0.2577(5)
H11_7 H 0.6831 0.5796 0.2428
H12_7 H 0.7529 0.6235 0.2710
I1_6 I 0.88882(3) 0.53433(3) 0.0000
I2_4 I 0.84853(2) 0.73470(2) 0.14456(3)
I3_6 I 0.66298(3) 0.64167(3) 0.0000
Cu1_3 Cu 0.89866(6) 0.67901(6) 0.0000
Cu2_6 Cu 0.77089(6) 0.74188(6) 0.0000
Cu3_4 Cu 0.78520(5) 0.61428(4) 0.08372(5)
N5_7 N 0.7751(3) 0.4544(2) 0.3123(3)
H14_7 H 0.8363 0.8881 0.0488
C8_7 C 0.7416(4) 0.5251(3) 0.3347(4)
H15_7 H 0.7716 0.5493 0.3763
H16_7 H 0.6933 0.5166 0.3584
C10_7 C 0.8502(3) 0.4689(4) 0.2812(4)
H19_7 H 0.8695 0.4248 0.2553
H20_7 H 0.8819 0.4814 0.3275
C12_7 C 0.7345(4) 0.4250(3) 0.2423(5)
H23_7 H 0.6831 0.4204 0.2572
H24_7 H 0.7529 0.3765 0.2290
I4_5 I 0.88882(3) 0.46567(3) 0.5000
I5_4 I 0.84853(2) 0.26530(2) 0.35544(3)
I7_5 I 0.66298(3) 0.35833(3) 0.5000
Cu5_2 Cu 0.89866(6) 0.32099(6) 0.5000
Cu6_5 Cu 0.77089(6) 0.25812(6) 0.5000
Cu7_4 Cu 0.78520(5) 0.38572(4) 0.41628(5)
Cu9_4 Cu 0.78520(5) 0.38572(4) 0.58372(5)
N1_11 N 0.7397(3) 0.8518(3) 1.0000
N2_5 N 0.7046(3) 0.9901(3) 1.0000
C1_11 C 0.7857(4) 0.9802(4) 1.0000
C2_11 C 0.8070(4) 0.8989(4) 1.0000
H2_7 H 0.8363 0.8881 0.9512
I1_7 I 0.88882(3) 0.53433(3) 1.0000
I3_7 I 0.66298(3) 0.64167(3) 1.0000
Cu1_4 Cu 0.89866(6) 0.67901(6) 1.0000
Cu2_7 Cu 0.77089(6) 0.74188(6) 1.0000
C9_7 C 0.6749(3) 0.9526(3) 0.9253(4)
H17_7 H 0.6218 0.9572 0.9243
H18_7 H 0.6942 0.9758 0.8756
C11_7 C 0.6964(4) 0.8705(3) 0.9260(4)
H21_7 H 0.7247 0.8593 0.8766
H22_7 H 0.6522 0.8407 0.9248
I6_7 I 0.84853(2) 0.73470(2) 0.85544(3)
Cu8_4 Cu 0.78520(5) 0.61428(4) 0.91628(5)
N1_12 N 0.7397(3) 0.1482(3) 0.5000
N2_6 N 0.7046(3) 0.0099(3) 0.5000
C1_12 C 0.7857(4) 0.0198(4) 0.5000
C2_12 C 0.8070(4) 0.1011(4) 0.5000
H2_8 H 0.8363 0.1119 0.5488
C4_8 C 0.6749(3) 0.0474(3) 0.4253(4)
H5_8 H 0.6218 0.0428 0.4243
H6_8 H 0.6942 0.0242 0.3756
C6_8 C 0.6964(4) 0.1295(3) 0.4260(4)
H9_8 H 0.7247 0.1407 0.3766
H10_8 H 0.6522 0.1593 0.4248
H14_8 H 0.8363 0.1119 0.4512
C9_8 C 0.6749(3) 0.0474(3) 0.5747(4)
H17_8 H 0.6218 0.0428 0.5757
H18_8 H 0.6942 0.0242 0.6244
C11_8 C 0.6964(4) 0.1295(3) 0.5740(4)
H21_8 H 0.7247 0.1407 0.6234
H22_8 H 0.6522 0.1593 0.5752
I6_8 I 0.84853(2) 0.26530(2) 0.64456(3)
H1_7 H 0.9962 0.1937 0.4513
H13_7 H 0.9962 0.1937 0.5487
H1_8 H 0.9962 0.8063 0.0487
H13_8 H 0.9962 0.8063 0.9513
N3_8 N 0.7751(3) 0.5456(2) 0.8123(3)
C3_8 C 0.7416(4) 0.4749(3) 0.8347(4)
H3_8 H 0.7716 0.4507 0.8763
H4_8 H 0.6933 0.4834 0.8584
C5_8 C 0.8502(3) 0.5311(4) 0.7812(4)
H7_8 H 0.8695 0.5752 0.7553
H8_8 H 0.8819 0.5186 0.8275
C7_8 C 0.7345(4) 0.5750(3) 0.7423(5)
H11_8 H 0.6831 0.5796 0.7572
H12_8 H 0.7529 0.6235 0.7290
N5_8 N 0.7751(3) 0.4544(2) 0.6877(3)
C8_8 C 0.7416(4) 0.5251(3) 0.6653(4)
H15_8 H 0.7716 0.5493 0.6237
H16_8 H 0.6933 0.5166 0.6416
C10_8 C 0.8502(3) 0.4689(4) 0.7188(4)
H19_8 H 0.8695 0.4248 0.7447
H20_8 H 0.8819 0.4814 0.6725
C12_8 C 0.7345(4) 0.4250(3) 0.7577(5)
H23_8 H 0.6831 0.4204 0.7428
H24_8 H 0.7529 0.3765 0.7710
loop_
_geom_bond_atom_site_label_1
_geom_bond_atom_site_label_2
_geom_bond_site_symmetry_1
_geom_bond_site_symmetry_2
N1 C2 1_555 1_555
N2 C1 1_555 1_555
N3 C3 1_555 1_555
C2 C1 1_555 1_555
C3 H3 1_555 1_555
H4 C3 1_555 1_555
C4 N2 1_555 1_555
H5 C4 1_555 1_555
H6 C4 1_555 1_555
C5 N3 1_555 1_555
H7 C5 1_555 1_555
H8 C5 1_555 1_555
C6 N1 1_555 1_555
H9 C6 1_555 1_555
H10 C6 1_555 1_555
C7 N3 1_555 1_555
H11 C7 1_555 1_555
H12 C7 1_555 1_555
I1 Cu1 1_555 1_555
I2 Cu1 1_555 1_555
I3 Cu2 1_555 1_555
Cu1 Cu2 1_555 1_555
Cu2 N1 1_555 1_555
Cu3 N3 1_555 1_555
N5 C8 1_555 1_555
H14 C2 1_555 1_555
C8 C7 1_555 1_555
H15 C8 1_555 1_555
H16 C8 1_555 1_555
C10 C5 1_555 1_555
H19 C10 1_555 1_555
H20 C10 1_555 1_555
C12 C3 1_555 1_555
H23 C12 1_555 1_555
H24 C12 1_555 1_555
I4 Cu5 1_555 1_555
I5 Cu5 1_555 1_555
I7 Cu6 1_555 1_555
Cu5 Cu6 1_555 1_555
Cu6 I5 1_555 1_555
Cu7 N5 1_555 1_555
Cu9 I4 1_555 1_555
C4 C6 1_555 1_555
I1 Cu3 1_555 1_555
I2 Cu2 1_555 1_555
I2 Cu3 1_555 1_555
I3 Cu3 1_555 1_555
Cu1 Cu3 1_555 1_555
Cu2 Cu3 1_555 1_555
N5 C10 1_555 1_555
N5 C12 1_555 1_555
I4 Cu7 1_555 1_555
I5 Cu7 1_555 1_555
I7 Cu7 1_555 1_555
I7 Cu9 1_555 1_555
Cu5 Cu7 1_555 1_555
Cu5 Cu9 1_555 1_555
Cu6 Cu7 1_555 1_555
Cu6 Cu9 1_555 1_555
Cu7 Cu9 1_555 1_555
N1_2 C2_2 1_555 1_555
N2_2 C1_2 1_555 1_555
C2_2 C1_2 1_555 1_555
H2 C2_2 1_555 1_555
I1_2 Cu1_2 1_555 1_555
I3_2 Cu2_2 1_555 1_555
Cu1_2 Cu2_2 1_555 1_555
Cu2_2 N1_2 1_555 1_555
C9 N2_2 1_555 1_555
H17 C9 1_555 1_555
H18 C9 1_555 1_555
C11 N1_2 1_555 1_555
H21 C11 1_555 1_555
H22 C11 1_555 1_555
I6 Cu1_2 1_555 1_555
Cu8 I1_2 1_555 1_555
I3_2 Cu8 1_555 1_555
Cu1_2 Cu8 1_555 1_555
Cu2_2 I6 1_555 1_555
Cu2_2 Cu8 1_555 1_555
C9 C11 1_555 1_555
I6 Cu8 1_555 1_555
N1_3 C2_3 1_555 1_555
N2_3 C1_3 1_555 1_555
C2_3 C1_3 1_555 1_555
H2_2 C2_3 1_555 1_555
C4_2 N2_3 1_555 1_555
H5_2 C4_2 1_555 1_555
H6_2 C4_2 1_555 1_555
C6_2 N1_3 1_555 1_555
H9_2 C6_2 1_555 1_555
H10_2 C6_2 1_555 1_555
Cu6 N1_3 1_555 1_555
H14_2 C2_3 1_555 1_555
C9_2 N2_3 1_555 1_555
H17_2 C9_2 1_555 1_555
H18_2 C9_2 1_555 1_555
C11_2 N1_3 1_555 1_555
H21_2 C11_2 1_555 1_555
H22_2 C11_2 1_555 1_555
I6_2 Cu5 1_555 1_555
C4_2 C6_2 1_555 1_555
Cu6 I6_2 1_555 1_555
C9_2 C11_2 1_555 1_555
I6_2 Cu9 1_555 1_555
N3_2 C3_2 1_555 1_555
C3_2 H3_2 1_555 1_555
H4_2 C3_2 1_555 1_555
C5_2 N3_2 1_555 1_555
H7_2 C5_2 1_555 1_555
H8_2 C5_2 1_555 1_555
C7_2 N3_2 1_555 1_555
H11_2 C7_2 1_555 1_555
H12_2 C7_2 1_555 1_555
Cu8 N3_2 1_555 1_555
N5_2 C8_2 1_555 1_555
C8_2 C7_2 1_555 1_555
H15_2 C8_2 1_555 1_555
H16_2 C8_2 1_555 1_555
C10_2 C5_2 1_555 1_555
H19_2 C10_2 1_555 1_555
H20_2 C10_2 1_555 1_555
C12_2 C3_2 1_555 1_555
H23_2 C12_2 1_555 1_555
H24_2 C12_2 1_555 1_555
Cu9 N5_2 1_555 1_555
N5_2 C10_2 1_555 1_555
N5_2 C12_2 1_555 1_555
N1_4 C2_4 1_555 1_555
N4_2 C1_4 1_555 1_555
N3_3 C3_3 1_555 1_555
C2_4 C1_4 1_555 1_555
C3_3 H3_3 1_555 1_555
H4_3 C3_3 1_555 1_555
C4_3 N4_2 1_555 1_555
H5_3 C4_3 1_555 1_555
H6_3 C4_3 1_555 1_555
C5_3 N3_3 1_555 1_555
H7_3 C5_3 1_555 1_555
H8_3 C5_3 1_555 1_555
C6_3 N1_4 1_555 1_555
H9_3 C6_3 1_555 1_555
H10_3 C6_3 1_555 1_555
C7_3 N3_3 1_555 1_555
H11_3 C7_3 1_555 1_555
H12_3 C7_3 1_555 1_555
I1_3 Cu4 1_555 1_555
I2_2 Cu4 1_555 1_555
I3_3 Cu2_3 1_555 1_555
Cu4 Cu2_3 1_555 1_555
Cu2_3 N1_4 1_555 1_555
Cu3_2 N3_3 1_555 1_555
N5_3 C8_3 1_555 1_555
H14_3 C2_4 1_555 1_555
C8_3 C7_3 1_555 1_555
H15_3 C8_3 1_555 1_555
H16_3 C8_3 1_555 1_555
C10_3 C5_3 1_555 1_555
H19_3 C10_3 1_555 1_555
H20_3 C10_3 1_555 1_555
C12_3 C3_3 1_555 1_555
H23_3 C12_3 1_555 1_555
H24_3 C12_3 1_555 1_555
I4_2 Cu4_3 1_555 1_555
I5_2 Cu4_3 1_555 1_555
I7_2 Cu6_2 1_555 1_555
Cu4_3 Cu6_2 1_555 1_555
Cu6_2 I5_2 1_555 1_555
Cu7_2 N5_3 1_555 1_555
Cu9_2 I4_2 1_555 1_555
C4_3 C6_3 1_555 1_555
I1_3 Cu3_2 1_555 1_555
I2_2 Cu2_3 1_555 1_555
I2_2 Cu3_2 1_555 1_555
I3_3 Cu3_2 1_555 1_555
Cu4 Cu3_2 1_555 1_555
Cu2_3 Cu3_2 1_555 1_555
N5_3 C10_3 1_555 1_555
N5_3 C12_3 1_555 1_555
I4_2 Cu7_2 1_555 1_555
I5_2 Cu7_2 1_555 1_555
I7_2 Cu7_2 1_555 1_555
I7_2 Cu9_2 1_555 1_555
Cu4_3 Cu7_2 1_555 1_555
Cu4_3 Cu9_2 1_555 1_555
Cu6_2 Cu7_2 1_555 1_555
Cu6_2 Cu9_2 1_555 1_555
Cu7_2 Cu9_2 1_555 1_555
N1_5 C2_5 1_555 1_555
N4_3 C1_5 1_555 1_555
C2_5 C1_5 1_555 1_555
H2_3 C2_5 1_555 1_555
I1_4 Cu4_2 1_555 1_555
I3_4 Cu2_4 1_555 1_555
Cu4_2 Cu2_4 1_555 1_555
Cu2_4 N1_5 1_555 1_555
C9_3 N4_3 1_555 1_555
H17_3 C9_3 1_555 1_555
H18_3 C9_3 1_555 1_555
C11_3 N1_5 1_555 1_555
H21_3 C11_3 1_555 1_555
H22_3 C11_3 1_555 1_555
I6_3 Cu4_2 1_555 1_555
Cu8_2 I1_4 1_555 1_555
I3_4 Cu8_2 1_555 1_555
Cu4_2 Cu8_2 1_555 1_555
Cu2_4 I6_3 1_555 1_555
Cu2_4 Cu8_2 1_555 1_555
C9_3 C11_3 1_555 1_555
I6_3 Cu8_2 1_555 1_555
N1_6 C2_6 1_555 1_555
N4 C1_6 1_555 1_555
C2_6 C1_6 1_555 1_555
H2_4 C2_6 1_555 1_555
C4_4 N4 1_555 1_555
H5_4 C4_4 1_555 1_555
H6_4 C4_4 1_555 1_555
C6_4 N1_6 1_555 1_555
H9_4 C6_4 1_555 1_555
H10_4 C6_4 1_555 1_555
Cu6_2 N1_6 1_555 1_555
H14_4 C2_6 1_555 1_555
C9_4 N4 1_555 1_555
H17_4 C9_4 1_555 1_555
H18_4 C9_4 1_555 1_555
C11_4 N1_6 1_555 1_555
H21_4 C11_4 1_555 1_555
H22_4 C11_4 1_555 1_555
I6_4 Cu4_3 1_555 1_555
C4_4 C6_4 1_555 1_555
Cu6_2 I6_4 1_555 1_555
C9_4 C11_4 1_555 1_555
I6_4 Cu9_2 1_555 1_555
N3_4 C3_4 1_555 1_555
C3_4 H3_4 1_555 1_555
H4_4 C3_4 1_555 1_555
C5_4 N3_4 1_555 1_555
H7_4 C5_4 1_555 1_555
H8_4 C5_4 1_555 1_555
C7_4 N3_4 1_555 1_555
H11_4 C7_4 1_555 1_555
H12_4 C7_4 1_555 1_555
Cu9_2 N3_4 1_555 1_555
N5_4 C8_4 1_555 1_555
C8_4 C7_4 1_555 1_555
H15_4 C8_4 1_555 1_555
H16_4 C8_4 1_555 1_555
C10_4 C5_4 1_555 1_555
H19_4 C10_4 1_555 1_555
H20_4 C10_4 1_555 1_555
C12_4 C3_4 1_555 1_555
H23_4 C12_4 1_555 1_555
H24_4 C12_4 1_555 1_555
Cu8_2 N5_4 1_555 1_555
N5_4 C10_4 1_555 1_555
N5_4 C12_4 1_555 1_555
N1_7 C2_7 1_555 1_555
N4_6 C1_7 1_555 1_555
N3_5 C3_5 1_555 1_555
C2_7 C1_7 1_555 1_555
H2_5 C2_7 1_555 1_555
C3_5 H3_5 1_555 1_555
H4_5 C3_5 1_555 1_555
C4_5 N4_6 1_555 1_555
H5_5 C4_5 1_555 1_555
H6_5 C4_5 1_555 1_555
C5_5 N3_5 1_555 1_555
H7_5 C5_5 1_555 1_555
H8_5 C5_5 1_555 1_555
C6_5 N1_7 1_555 1_555
H9_5 C6_5 1_555 1_555
H10_5 C6_5 1_555 1_555
C7_5 N3_5 1_555 1_555
H11_5 C7_5 1_555 1_555
H12_5 C7_5 1_555 1_555
I1_5 Cu4_4 1_555 1_555
I2_3 Cu4_4 1_555 1_555
I3_5 Cu2_5 1_555 1_555
Cu4_4 Cu2_5 1_555 1_555
Cu2_5 N1_7 1_555 1_555
Cu3_3 N3_5 1_555 1_555
N5_5 C8_5 1_555 1_555
H14_5 C2_7 1_555 1_555
C8_5 C7_5 1_555 1_555
H15_5 C8_5 1_555 1_555
H16_5 C8_5 1_555 1_555
C9_5 N4_6 1_555 1_555
H17_5 C9_5 1_555 1_555
H18_5 C9_5 1_555 1_555
C10_5 C5_5 1_555 1_555
H19_5 C10_5 1_555 1_555
H20_5 C10_5 1_555 1_555
C11_5 N1_7 1_555 1_555
H21_5 C11_5 1_555 1_555
H22_5 C11_5 1_555 1_555
C12_5 C3_5 1_555 1_555
H23_5 C12_5 1_555 1_555
H24_5 C12_5 1_555 1_555
I4_3 Cu4_5 1_555 1_555
I5_3 Cu4_5 1_555 1_555
I6_5 Cu4_4 1_555 1_555
I7_3 Cu6_3 1_555 1_555
Cu4_5 Cu6_3 1_555 1_555
Cu6_3 I5_3 1_555 1_555
Cu7_3 N5_5 1_555 1_555
Cu8_3 I1_5 1_555 1_555
C4_5 C6_5 1_555 1_555
I1_5 Cu3_3 1_555 1_555
I2_3 Cu2_5 1_555 1_555
I2_3 Cu3_3 1_555 1_555
I3_5 Cu3_3 1_555 1_555
I3_5 Cu8_3 1_555 1_555
Cu4_4 Cu3_3 1_555 1_555
Cu4_4 Cu8_3 1_555 1_555
Cu2_5 Cu3_3 1_555 1_555
Cu2_5 I6_5 1_555 1_555
Cu2_5 Cu8_3 1_555 1_555
Cu3_3 Cu8_3 1_555 1_555
N5_5 C10_5 1_555 1_555
N5_5 C12_5 1_555 1_555
C9_5 C11_5 1_555 1_555
I4_3 Cu7_3 1_555 1_555
I5_3 Cu7_3 1_555 1_555
I6_5 Cu8_3 1_555 1_555
I7_3 Cu7_3 1_555 1_555
Cu4_5 Cu7_3 1_555 1_555
Cu6_3 Cu7_3 1_555 1_555
I4_4 Cu4_6 1_555 1_555
I7_4 Cu6_4 1_555 1_555
Cu4_6 Cu6_4 1_555 1_555
Cu9_3 I4_4 1_555 1_555
I7_4 Cu9_3 1_555 1_555
Cu4_6 Cu9_3 1_555 1_555
Cu6_4 Cu9_3 1_555 1_555
N1_8 C2_8 1_555 1_555
N4_4 C1_8 1_555 1_555
C2_8 C1_8 1_555 1_555
C4_6 N4_4 1_555 1_555
H5_6 C4_6 1_555 1_555
H6_6 C4_6 1_555 1_555
C6_6 N1_8 1_555 1_555
H9_6 C6_6 1_555 1_555
H10_6 C6_6 1_555 1_555
Cu6_3 N1_8 1_555 1_555
H14_6 C2_8 1_555 1_555
C4_6 C6_6 1_555 1_555
N1_9 C2_9 1_555 1_555
N4_5 C1_9 1_555 1_555
C2_9 C1_9 1_555 1_555
H2_6 C2_9 1_555 1_555
Cu6_4 N1_9 1_555 1_555
C9_6 N4_5 1_555 1_555
H17_6 C9_6 1_555 1_555
H18_6 C9_6 1_555 1_555
C11_6 N1_9 1_555 1_555
H21_6 C11_6 1_555 1_555
H22_6 C11_6 1_555 1_555
I6_6 Cu4_6 1_555 1_555
Cu6_4 I6_6 1_555 1_555
C9_6 C11_6 1_555 1_555
I6_6 Cu9_3 1_555 1_555
N3_6 C3_6 1_555 1_555
C3_6 H3_6 1_555 1_555
H4_6 C3_6 1_555 1_555
C5_6 N3_6 1_555 1_555
H7_6 C5_6 1_555 1_555
H8_6 C5_6 1_555 1_555
C7_6 N3_6 1_555 1_555
H11_6 C7_6 1_555 1_555
H12_6 C7_6 1_555 1_555
Cu9_3 N3_6 1_555 1_555
N5_6 C8_6 1_555 1_555
C8_6 C7_6 1_555 1_555
H15_6 C8_6 1_555 1_555
H16_6 C8_6 1_555 1_555
C10_6 C5_6 1_555 1_555
H19_6 C10_6 1_555 1_555
H20_6 C10_6 1_555 1_555
C12_6 C3_6 1_555 1_555
H23_6 C12_6 1_555 1_555
H24_6 C12_6 1_555 1_555
Cu8_3 N5_6 1_555 1_555
N5_6 C10_6 1_555 1_555
N5_6 C12_6 1_555 1_555
N1_10 C2_10 1_555 1_555
N2_4 C1_10 1_555 1_555
N3_7 C3_7 1_555 1_555
C2_10 C1_10 1_555 1_555
C3_7 H3_7 1_555 1_555
H4_7 C3_7 1_555 1_555
C4_7 N2_4 1_555 1_555
H5_7 C4_7 1_555 1_555
H6_7 C4_7 1_555 1_555
C5_7 N3_7 1_555 1_555
H7_7 C5_7 1_555 1_555
H8_7 C5_7 1_555 1_555
C6_7 N1_10 1_555 1_555
H9_7 C6_7 1_555 1_555
H10_7 C6_7 1_555 1_555
C7_7 N3_7 1_555 1_555
H11_7 C7_7 1_555 1_555
H12_7 C7_7 1_555 1_555
I1_6 Cu1_3 1_555 1_555
I2_4 Cu1_3 1_555 1_555
I3_6 Cu2_6 1_555 1_555
Cu1_3 Cu2_6 1_555 1_555
Cu2_6 N1_10 1_555 1_555
Cu3_4 N3_7 1_555 1_555
N5_7 C8_7 1_555 1_555
H14_7 C2_10 1_555 1_555
C8_7 C7_7 1_555 1_555
H15_7 C8_7 1_555 1_555
H16_7 C8_7 1_555 1_555
C10_7 C5_7 1_555 1_555
H19_7 C10_7 1_555 1_555
H20_7 C10_7 1_555 1_555
C12_7 C3_7 1_555 1_555
H23_7 C12_7 1_555 1_555
H24_7 C12_7 1_555 1_555
I4_5 Cu5_2 1_555 1_555
I5_4 Cu5_2 1_555 1_555
I7_5 Cu6_5 1_555 1_555
Cu5_2 Cu6_5 1_555 1_555
Cu6_5 I5_4 1_555 1_555
Cu7_4 N5_7 1_555 1_555
Cu9_4 I4_5 1_555 1_555
C4_7 C6_7 1_555 1_555
I1_6 Cu3_4 1_555 1_555
I2_4 Cu2_6 1_555 1_555
I2_4 Cu3_4 1_555 1_555
I3_6 Cu3_4 1_555 1_555
Cu1_3 Cu3_4 1_555 1_555
Cu2_6 Cu3_4 1_555 1_555
N5_7 C10_7 1_555 1_555
N5_7 C12_7 1_555 1_555
I4_5 Cu7_4 1_555 1_555
I5_4 Cu7_4 1_555 1_555
I7_5 Cu7_4 1_555 1_555
I7_5 Cu9_4 1_555 1_555
Cu5_2 Cu7_4 1_555 1_555
Cu5_2 Cu9_4 1_555 1_555
Cu6_5 Cu7_4 1_555 1_555
Cu6_5 Cu9_4 1_555 1_555
Cu7_4 Cu9_4 1_555 1_555
N1_11 C2_11 1_555 1_555
N2_5 C1_11 1_555 1_555
C2_11 C1_11 1_555 1_555
H2_7 C2_11 1_555 1_555
I1_7 Cu1_4 1_555 1_555
I3_7 Cu2_7 1_555 1_555
Cu1_4 Cu2_7 1_555 1_555
Cu2_7 N1_11 1_555 1_555
C9_7 N2_5 1_555 1_555
H17_7 C9_7 1_555 1_555
H18_7 C9_7 1_555 1_555
C11_7 N1_11 1_555 1_555
H21_7 C11_7 1_555 1_555
H22_7 C11_7 1_555 1_555
I6_7 Cu1_4 1_555 1_555
Cu8_4 I1_7 1_555 1_555
I3_7 Cu8_4 1_555 1_555
Cu1_4 Cu8_4 1_555 1_555
Cu2_7 I6_7 1_555 1_555
Cu2_7 Cu8_4 1_555 1_555
C9_7 C11_7 1_555 1_555
I6_7 Cu8_4 1_555 1_555
N1_12 C2_12 1_555 1_555
N2_6 C1_12 1_555 1_555
C2_12 C1_12 1_555 1_555
H2_8 C2_12 1_555 1_555
C4_8 N2_6 1_555 1_555
H5_8 C4_8 1_555 1_555
H6_8 C4_8 1_555 1_555
C6_8 N1_12 1_555 1_555
H9_8 C6_8 1_555 1_555
H10_8 C6_8 1_555 1_555
Cu6_5 N1_12 1_555 1_555
H14_8 C2_12 1_555 1_555
C9_8 N2_6 1_555 1_555
H17_8 C9_8 1_555 1_555
H18_8 C9_8 1_555 1_555
C11_8 N1_12 1_555 1_555
H21_8 C11_8 1_555 1_555
H22_8 C11_8 1_555 1_555
I6_8 Cu5_2 1_555 1_555
C4_8 C6_8 1_555 1_555
Cu6_5 I6_8 1_555 1_555
C9_8 C11_8 1_555 1_555
I6_8 Cu9_4 1_555 1_555
N3_8 C3_8 1_555 1_555
C3_8 H3_8 1_555 1_555
H4_8 C3_8 1_555 1_555
C5_8 N3_8 1_555 1_555
H7_8 C5_8 1_555 1_555
H8_8 C5_8 1_555 1_555
C7_8 N3_8 1_555 1_555
H11_8 C7_8 1_555 1_555
H12_8 C7_8 1_555 1_555
Cu8_4 N3_8 1_555 1_555
N5_8 C8_8 1_555 1_555
C8_8 C7_8 1_555 1_555
H15_8 C8_8 1_555 1_555
H16_8 C8_8 1_555 1_555
C10_8 C5_8 1_555 1_555
H19_8 C10_8 1_555 1_555
H20_8 C10_8 1_555 1_555
C12_8 C3_8 1_555 1_555
H23_8 C12_8 1_555 1_555
H24_8 C12_8 1_555 1_555
Cu9_4 N5_8 1_555 1_555
N5_8 C10_8 1_555 1_555
N5_8 C12_8 1_555 1_555

#END
