
###############################################################################
#
# This file contains modified crystal structure data generated from the
# MOF subset of the Cambridge Structural Database (CSD) v543 
# hosted by the Cambridge Crystallographic Data Centre (CCDC).
#
# This work is licensed under the Creative Commons
# Attribution-NonCommercial-ShareAlike 4.0 International License.
# To view a copy of this license, visit
# http://creativecommons.org/licenses/by-nc-sa/4.0/
# or send a letter to
# Creative Commons, PO Box 1866, Mountain View, CA 94042, USA.
#
# CIF created using the CSD Python API on 29 September 2022
# The structure has been converted into the P1 space group
# The structure has a 3D framework
# The original CSD entry GUPCUQ01 is in the cubic crystal system
# The framework has been calculated to contain at least 10.0% void space
# The void calculation uses a probe of radius 1.32A, grid spacing 0.4
#
###############################################################################

data_GUPCUQ01
_chemical_formula_moiety         '(C72 H48 Cd12 N72 O48)n'
_symmetry_cell_setting           triclinic
_symmetry_space_group_name_H-M   'P 1'
_symmetry_Int_Tables_number      1
_space_group_name_Hall           'P 1'
loop_
_symmetry_equiv_pos_site_id
_symmetry_equiv_pos_as_xyz
1 x,y,z
_cell_length_a                   18.0772(6)
_cell_length_b                   18.0772(6)
_cell_length_c                   18.0772(6)
_cell_angle_alpha                90
_cell_angle_beta                 90
_cell_angle_gamma                90
_cell_volume                     5907.36
loop_
_atom_site_label
_atom_site_type_symbol
_atom_site_fract_x
_atom_site_fract_y
_atom_site_fract_z
Cd1 Cd 0.0000 0.2500 0.5000
N2 N 0.0560(4) 0.4069(3) 0.4069(3)
C1 C 0.0039(7) 0.3659(2) 0.3659(2)
O1 O 0.0773(3) 0.4663(2) 0.3810(2)
Cd2 Cd 0.0000 0.5000 0.2500
Cd3 Cd 0.0000 0.5000 0.7500
N4 N 0.0213(2) 0.3014(2) 0.6111(3)
N5 N 0.0213(2) 0.3889(3) 0.6986(2)
N7 N 0.1111(3) 0.1986(2) 0.4787(2)
C5 C 0.0683(5) 0.2817(4) 0.6656(4)
C6 C 0.0683(5) 0.3344(4) 0.7183(4)
H3 H 0.0963 0.2386 0.6666
H4 H 0.0963 0.3334 0.7614
O2 O 0.0773(3) 0.3810(2) 0.4663(2)
Cd1_2 Cd 1.0000 0.2500 0.5000
N1 N 0.9787(2) 0.3014(2) 0.3889(3)
C2 C 0.9317(5) 0.2817(4) 0.3344(4)
H1 H 0.9037 0.2386 0.3334
Cd2_2 Cd 1.0000 0.5000 0.2500
Cd3_2 Cd 1.0000 0.5000 0.7500
N3 N 0.9787(2) 0.3889(3) 0.3014(2)
N6 N 0.8889(3) 0.1986(2) 0.5213(2)
N8 N 0.9440(4) 0.4069(3) 0.5931(3)
C3 C 0.9961(7) 0.3659(2) 0.6341(2)
C4 C 0.9317(5) 0.3344(4) 0.2817(4)
H2 H 0.9037 0.3334 0.2386
O3 O 0.9227(3) 0.4663(2) 0.6190(2)
O4 O 0.9227(3) 0.3810(2) 0.5337(2)
Cd1_3 Cd 0.0000 0.7500 0.5000
N1_2 N 0.0213(2) 0.6986(2) 0.3889(3)
C2_2 C 0.0683(5) 0.7183(4) 0.3344(4)
H1_2 H 0.0963 0.7614 0.3334
N3_2 N 0.0213(2) 0.6111(3) 0.3014(2)
N6_2 N 0.1111(3) 0.8014(2) 0.5213(2)
N8_2 N 0.0560(4) 0.5931(3) 0.5931(3)
C3_2 C 0.0039(7) 0.6341(2) 0.6341(2)
C4_2 C 0.0683(5) 0.6656(4) 0.2817(4)
H2_2 H 0.0963 0.6666 0.2386
O3_2 O 0.0773(3) 0.5337(2) 0.6190(2)
O4_2 O 0.0773(3) 0.6190(2) 0.5337(2)
Cd1_4 Cd 1.0000 0.7500 0.5000
N2_2 N 0.9440(4) 0.5931(3) 0.4069(3)
C1_2 C 0.9961(7) 0.6341(2) 0.3659(2)
O1_2 O 0.9227(3) 0.5337(2) 0.3810(2)
N4_2 N 0.9787(2) 0.6986(2) 0.6111(3)
N5_2 N 0.9787(2) 0.6111(3) 0.6986(2)
N7_2 N 0.8889(3) 0.8014(2) 0.4787(2)
C5_2 C 0.9317(5) 0.7183(4) 0.6656(4)
C6_2 C 0.9317(5) 0.6656(4) 0.7183(4)
H3_2 H 0.9037 0.7614 0.6666
H4_2 H 0.9037 0.6666 0.7614
O2_2 O 0.9227(3) 0.6190(2) 0.4663(2)
Cd1_5 Cd 0.5000 0.0000 0.2500
N2_3 N 0.4069(3) 0.0560(4) 0.4069(3)
C1_3 C 0.3659(2) 0.0039(7) 0.3659(2)
O1_3 O 0.3810(2) 0.0773(3) 0.4663(2)
Cd2_3 Cd 0.2500 0.0000 0.5000
Cd3_3 Cd 0.7500 0.0000 0.5000
N4_3 N 0.6111(3) 0.0213(2) 0.3014(2)
N5_3 N 0.6986(2) 0.0213(2) 0.3889(3)
N7_3 N 0.4787(2) 0.1111(3) 0.1986(2)
C5_3 C 0.6656(4) 0.0683(5) 0.2817(4)
C6_3 C 0.7183(4) 0.0683(5) 0.3344(4)
H3_3 H 0.6666 0.0963 0.2386
H4_3 H 0.7614 0.0963 0.3334
O2_3 O 0.4663(2) 0.0773(3) 0.3810(2)
Cd1_6 Cd 0.5000 1.0000 0.2500
N1_3 N 0.3889(3) 0.9787(2) 0.3014(2)
C2_3 C 0.3344(4) 0.9317(5) 0.2817(4)
H1_3 H 0.3334 0.9037 0.2386
Cd2_4 Cd 0.2500 1.0000 0.5000
Cd3_4 Cd 0.7500 1.0000 0.5000
N3_3 N 0.3014(2) 0.9787(2) 0.3889(3)
N6_3 N 0.5213(2) 0.8889(3) 0.1986(2)
N8_3 N 0.5931(3) 0.9440(4) 0.4069(3)
C3_3 C 0.6341(2) 0.9961(7) 0.3659(2)
C4_3 C 0.2817(4) 0.9317(5) 0.3344(4)
H2_3 H 0.2386 0.9037 0.3334
O3_3 O 0.6190(2) 0.9227(3) 0.4663(2)
O4_3 O 0.5337(2) 0.9227(3) 0.3810(2)
Cd1_7 Cd 0.5000 0.0000 0.7500
N1_4 N 0.3889(3) 0.0213(2) 0.6986(2)
C2_4 C 0.3344(4) 0.0683(5) 0.7183(4)
H1_4 H 0.3334 0.0963 0.7614
N3_4 N 0.3014(2) 0.0213(2) 0.6111(3)
N6_4 N 0.5213(2) 0.1111(3) 0.8014(2)
N8_4 N 0.5931(3) 0.0560(4) 0.5931(3)
C3_4 C 0.6341(2) 0.0039(7) 0.6341(2)
C4_4 C 0.2817(4) 0.0683(5) 0.6656(4)
H2_4 H 0.2386 0.0963 0.6666
O3_4 O 0.6190(2) 0.0773(3) 0.5337(2)
O4_4 O 0.5337(2) 0.0773(3) 0.6190(2)
Cd1_8 Cd 0.5000 1.0000 0.7500
N2_4 N 0.4069(3) 0.9440(4) 0.5931(3)
C1_4 C 0.3659(2) 0.9961(7) 0.6341(2)
O1_4 O 0.3810(2) 0.9227(3) 0.5337(2)
N4_4 N 0.6111(3) 0.9787(2) 0.6986(2)
N5_4 N 0.6986(2) 0.9787(2) 0.6111(3)
N7_4 N 0.4787(2) 0.8889(3) 0.8014(2)
C5_4 C 0.6656(4) 0.9317(5) 0.7183(4)
C6_4 C 0.7183(4) 0.9317(5) 0.6656(4)
H3_4 H 0.6666 0.9037 0.7614
H4_4 H 0.7614 0.9037 0.6666
O2_4 O 0.4663(2) 0.9227(3) 0.6190(2)
Cd1_9 Cd 0.2500 0.5000 0.0000
N2_5 N 0.4069(3) 0.4069(3) 0.0560(4)
C1_5 C 0.3659(2) 0.3659(2) 0.0039(7)
O1_5 O 0.4663(2) 0.3810(2) 0.0773(3)
Cd2_5 Cd 0.5000 0.2500 0.0000
Cd3_5 Cd 0.5000 0.7500 0.0000
N4_5 N 0.3014(2) 0.6111(3) 0.0213(2)
N5_5 N 0.3889(3) 0.6986(2) 0.0213(2)
N7_5 N 0.1986(2) 0.4787(2) 0.1111(3)
C5_5 C 0.2817(4) 0.6656(4) 0.0683(5)
C6_5 C 0.3344(4) 0.7183(4) 0.0683(5)
H3_5 H 0.2386 0.6666 0.0963
H4_5 H 0.3334 0.7614 0.0963
O2_5 O 0.3810(2) 0.4663(2) 0.0773(3)
Cd1_10 Cd 0.2500 0.5000 1.0000
N1_5 N 0.3014(2) 0.3889(3) 0.9787(2)
C2_5 C 0.2817(4) 0.3344(4) 0.9317(5)
H1_5 H 0.2386 0.3334 0.9037
Cd2_6 Cd 0.5000 0.2500 1.0000
Cd3_6 Cd 0.5000 0.7500 1.0000
N3_5 N 0.3889(3) 0.3014(2) 0.9787(2)
N6_5 N 0.1986(2) 0.5213(2) 0.8889(3)
N8_5 N 0.4069(3) 0.5931(3) 0.9440(4)
C3_5 C 0.3659(2) 0.6341(2) 0.9961(7)
C4_5 C 0.3344(4) 0.2817(4) 0.9317(5)
H2_5 H 0.3334 0.2386 0.9037
O3_5 O 0.4663(2) 0.6190(2) 0.9227(3)
O4_5 O 0.3810(2) 0.5337(2) 0.9227(3)
Cd1_11 Cd 0.7500 0.5000 0.0000
N1_6 N 0.6986(2) 0.3889(3) 0.0213(2)
C2_6 C 0.7183(4) 0.3344(4) 0.0683(5)
H1_6 H 0.7614 0.3334 0.0963
N3_6 N 0.6111(3) 0.3014(2) 0.0213(2)
N6_6 N 0.8014(2) 0.5213(2) 0.1111(3)
N8_6 N 0.5931(3) 0.5931(3) 0.0560(4)
C3_6 C 0.6341(2) 0.6341(2) 0.0039(7)
C4_6 C 0.6656(4) 0.2817(4) 0.0683(5)
H2_6 H 0.6666 0.2386 0.0963
O3_6 O 0.5337(2) 0.6190(2) 0.0773(3)
O4_6 O 0.6190(2) 0.5337(2) 0.0773(3)
Cd1_12 Cd 0.7500 0.5000 1.0000
N2_6 N 0.5931(3) 0.4069(3) 0.9440(4)
C1_6 C 0.6341(2) 0.3659(2) 0.9961(7)
O1_6 O 0.5337(2) 0.3810(2) 0.9227(3)
N4_6 N 0.6986(2) 0.6111(3) 0.9787(2)
N5_6 N 0.6111(3) 0.6986(2) 0.9787(2)
N7_6 N 0.8014(2) 0.4787(2) 0.8889(3)
C5_6 C 0.7183(4) 0.6656(4) 0.9317(5)
C6_6 C 0.6656(4) 0.7183(4) 0.9317(5)
H3_6 H 0.7614 0.6666 0.9037
H4_6 H 0.6666 0.7614 0.9037
O2_6 O 0.6190(2) 0.4663(2) 0.9227(3)
N7_7 N 0.1986(2) 0.1111(3) 0.4787(2)
N6_7 N 0.1986(2) 0.8889(3) 0.5213(2)
N6_8 N 0.8014(2) 0.1111(3) 0.5213(2)
N7_8 N 0.8014(2) 0.8889(3) 0.4787(2)
N7_9 N 0.1111(3) 0.4787(2) 0.1986(2)
N6_9 N 0.8889(3) 0.5213(2) 0.1986(2)
N6_10 N 0.1111(3) 0.5213(2) 0.8014(2)
N7_10 N 0.8889(3) 0.4787(2) 0.8014(2)
N7_11 N 0.4787(2) 0.1986(2) 0.1111(3)
N6_11 N 0.5213(2) 0.1986(2) 0.8889(3)
N6_12 N 0.5213(2) 0.8014(2) 0.1111(3)
N7_12 N 0.4787(2) 0.8014(2) 0.8889(3)
N8_7 N 0.4440(4) 0.9069(3) 0.0931(3)
C3_7 C 0.4961(7) 0.8659(2) 0.1341(2)
C5_7 C 0.5683(5) 0.7817(4) 0.1656(4)
C6_7 C 0.5683(5) 0.8344(4) 0.2183(4)
H3_7 H 0.5963 0.7386 0.1666
H4_7 H 0.5963 0.8334 0.2614
O3_7 O 0.4227(3) 0.9663(2) 0.1190(2)
O4_7 O 0.4227(3) 0.8810(2) 0.0337(2)
N2_7 N 0.5560(4) 0.9069(3) 0.9069(3)
C1_7 C 0.5039(7) 0.8659(2) 0.8659(2)
C2_7 C 0.4317(5) 0.7817(4) 0.8344(4)
H1_7 H 0.4037 0.7386 0.8334
O1_7 O 0.5773(3) 0.9663(2) 0.8810(2)
C4_7 C 0.4317(5) 0.8344(4) 0.7817(4)
H2_7 H 0.4037 0.8334 0.7386
O2_7 O 0.5773(3) 0.8810(2) 0.9663(2)
N8_8 N 0.5560(4) 0.0931(3) 0.0931(3)
C3_8 C 0.5039(7) 0.1341(2) 0.1341(2)
C5_8 C 0.4317(5) 0.2183(4) 0.1656(4)
C6_8 C 0.4317(5) 0.1656(4) 0.2183(4)
H3_8 H 0.4037 0.2614 0.1666
H4_8 H 0.4037 0.1666 0.2614
O3_8 O 0.5773(3) 0.0337(2) 0.1190(2)
O4_8 O 0.5773(3) 0.1190(2) 0.0337(2)
N2_8 N 0.4440(4) 0.0931(3) 0.9069(3)
C1_8 C 0.4961(7) 0.1341(2) 0.8659(2)
C2_8 C 0.5683(5) 0.2183(4) 0.8344(4)
H1_8 H 0.5963 0.2614 0.8334
O1_8 O 0.4227(3) 0.0337(2) 0.8810(2)
C4_8 C 0.5683(5) 0.1656(4) 0.7817(4)
H2_8 H 0.5963 0.1666 0.7386
O2_8 O 0.4227(3) 0.1190(2) 0.9663(2)
N8_9 N 0.0931(3) 0.4440(4) 0.9069(3)
C3_9 C 0.1341(2) 0.4961(7) 0.8659(2)
C5_9 C 0.1656(4) 0.5683(5) 0.7817(4)
C6_9 C 0.2183(4) 0.5683(5) 0.8344(4)
H3_9 H 0.1666 0.5963 0.7386
H4_9 H 0.2614 0.5963 0.8334
O3_9 O 0.1190(2) 0.4227(3) 0.9663(2)
O4_9 O 0.0337(2) 0.4227(3) 0.8810(2)
N2_9 N 0.9069(3) 0.5560(4) 0.9069(3)
C1_9 C 0.8659(2) 0.5039(7) 0.8659(2)
C2_9 C 0.8344(4) 0.4317(5) 0.7817(4)
H1_9 H 0.8334 0.4037 0.7386
O1_9 O 0.8810(2) 0.5773(3) 0.9663(2)
C4_9 C 0.7817(4) 0.4317(5) 0.8344(4)
H2_9 H 0.7386 0.4037 0.8334
O2_9 O 0.9663(2) 0.5773(3) 0.8810(2)
N8_10 N 0.0931(3) 0.5560(4) 0.0931(3)
C3_10 C 0.1341(2) 0.5039(7) 0.1341(2)
C5_10 C 0.1656(4) 0.4317(5) 0.2183(4)
C6_10 C 0.2183(4) 0.4317(5) 0.1656(4)
H3_10 H 0.1666 0.4037 0.2614
H4_10 H 0.2614 0.4037 0.1666
O3_10 O 0.1190(2) 0.5773(3) 0.0337(2)
O4_10 O 0.0337(2) 0.5773(3) 0.1190(2)
N2_10 N 0.9069(3) 0.4440(4) 0.0931(3)
C1_10 C 0.8659(2) 0.4961(7) 0.1341(2)
C2_10 C 0.8344(4) 0.5683(5) 0.2183(4)
H1_10 H 0.8334 0.5963 0.2614
O1_10 O 0.8810(2) 0.4227(3) 0.0337(2)
C4_10 C 0.7817(4) 0.5683(5) 0.1656(4)
H2_10 H 0.7386 0.5963 0.1666
O2_10 O 0.9663(2) 0.4227(3) 0.1190(2)
N8_11 N 0.9069(3) 0.0931(3) 0.4440(4)
C3_11 C 0.8659(2) 0.1341(2) 0.4961(7)
C5_11 C 0.7817(4) 0.1656(4) 0.5683(5)
C6_11 C 0.8344(4) 0.2183(4) 0.5683(5)
H3_11 H 0.7386 0.1666 0.5963
H4_11 H 0.8334 0.2614 0.5963
O3_11 O 0.9663(2) 0.1190(2) 0.4227(3)
O4_11 O 0.8810(2) 0.0337(2) 0.4227(3)
N2_11 N 0.9069(3) 0.9069(3) 0.5560(4)
C1_11 C 0.8659(2) 0.8659(2) 0.5039(7)
C2_11 C 0.7817(4) 0.8344(4) 0.4317(5)
H1_11 H 0.7386 0.8334 0.4037
O1_11 O 0.9663(2) 0.8810(2) 0.5773(3)
C4_11 C 0.8344(4) 0.7817(4) 0.4317(5)
H2_11 H 0.8334 0.7386 0.4037
O2_11 O 0.8810(2) 0.9663(2) 0.5773(3)
N8_12 N 0.0931(3) 0.0931(3) 0.5560(4)
C3_12 C 0.1341(2) 0.1341(2) 0.5039(7)
C5_12 C 0.2183(4) 0.1656(4) 0.4317(5)
C6_12 C 0.1656(4) 0.2183(4) 0.4317(5)
H3_12 H 0.2614 0.1666 0.4037
H4_12 H 0.1666 0.2614 0.4037
O3_12 O 0.0337(2) 0.1190(2) 0.5773(3)
O4_12 O 0.1190(2) 0.0337(2) 0.5773(3)
N2_12 N 0.0931(3) 0.9069(3) 0.4440(4)
C1_12 C 0.1341(2) 0.8659(2) 0.4961(7)
C2_12 C 0.2183(4) 0.8344(4) 0.5683(5)
H1_12 H 0.2614 0.8334 0.5963
O1_12 O 0.0337(2) 0.8810(2) 0.4227(3)
C4_12 C 0.1656(4) 0.7817(4) 0.5683(5)
H2_12 H 0.1666 0.7386 0.5963
O2_12 O 0.1190(2) 0.9663(2) 0.4227(3)
loop_
_geom_bond_atom_site_label_1
_geom_bond_atom_site_label_2
_geom_bond_site_symmetry_1
_geom_bond_site_symmetry_2
N2 C1 1_555 1_555
O1 N2 1_555 1_555
Cd3 N5 1_555 1_555
N4 Cd1 1_555 1_555
N7 Cd1 1_555 1_555
C5 N4 1_555 1_555
C6 N5 1_555 1_555
H3 C5 1_555 1_555
H4 C6 1_555 1_555
O2 N2 1_555 1_555
C5 C6 1_555 1_555
Cd1_2 N1 1_555 1_555
C2 N1 1_555 1_555
H1 C2 1_555 1_555
Cd2_2 N3 1_555 1_555
N3 C4 1_555 1_555
N6 Cd1_2 1_555 1_555
N8 C3 1_555 1_555
C4 C2 1_555 1_555
H2 C4 1_555 1_555
O3 N8 1_555 1_555
O4 N8 1_555 1_555
Cd1_3 N1_2 1_555 1_555
C2_2 N1_2 1_555 1_555
H1_2 C2_2 1_555 1_555
Cd2 N3_2 1_555 1_555
N3_2 C4_2 1_555 1_555
N6_2 Cd1_3 1_555 1_555
N8_2 C3_2 1_555 1_555
C4_2 C2_2 1_555 1_555
H2_2 C4_2 1_555 1_555
O3_2 N8_2 1_555 1_555
O4_2 N8_2 1_555 1_555
N2_2 C1_2 1_555 1_555
O1_2 N2_2 1_555 1_555
Cd3_2 N5_2 1_555 1_555
N4_2 Cd1_4 1_555 1_555
N7_2 Cd1_4 1_555 1_555
C5_2 N4_2 1_555 1_555
C6_2 N5_2 1_555 1_555
H3_2 C5_2 1_555 1_555
H4_2 C6_2 1_555 1_555
O2_2 N2_2 1_555 1_555
C5_2 C6_2 1_555 1_555
N2_3 C1_3 1_555 1_555
O1_3 N2_3 1_555 1_555
Cd3_3 N5_3 1_555 1_555
N4_3 Cd1_5 1_555 1_555
N7_3 Cd1_5 1_555 1_555
C5_3 N4_3 1_555 1_555
C6_3 N5_3 1_555 1_555
H3_3 C5_3 1_555 1_555
H4_3 C6_3 1_555 1_555
O2_3 N2_3 1_555 1_555
C5_3 C6_3 1_555 1_555
Cd1_6 N1_3 1_555 1_555
C2_3 N1_3 1_555 1_555
H1_3 C2_3 1_555 1_555
Cd2_4 N3_3 1_555 1_555
N3_3 C4_3 1_555 1_555
N6_3 Cd1_6 1_555 1_555
N8_3 C3_3 1_555 1_555
C4_3 C2_3 1_555 1_555
H2_3 C4_3 1_555 1_555
O3_3 N8_3 1_555 1_555
O4_3 N8_3 1_555 1_555
Cd1_7 N1_4 1_555 1_555
C2_4 N1_4 1_555 1_555
H1_4 C2_4 1_555 1_555
Cd2_3 N3_4 1_555 1_555
N3_4 C4_4 1_555 1_555
N6_4 Cd1_7 1_555 1_555
N8_4 C3_4 1_555 1_555
C4_4 C2_4 1_555 1_555
H2_4 C4_4 1_555 1_555
O3_4 N8_4 1_555 1_555
O4_4 N8_4 1_555 1_555
N2_4 C1_4 1_555 1_555
O1_4 N2_4 1_555 1_555
Cd3_4 N5_4 1_555 1_555
N4_4 Cd1_8 1_555 1_555
N7_4 Cd1_8 1_555 1_555
C5_4 N4_4 1_555 1_555
C6_4 N5_4 1_555 1_555
H3_4 C5_4 1_555 1_555
H4_4 C6_4 1_555 1_555
O2_4 N2_4 1_555 1_555
C5_4 C6_4 1_555 1_555
N2_5 C1_5 1_555 1_555
O1_5 N2_5 1_555 1_555
Cd3_5 N5_5 1_555 1_555
N4_5 Cd1_9 1_555 1_555
N7_5 Cd1_9 1_555 1_555
C5_5 N4_5 1_555 1_555
C6_5 N5_5 1_555 1_555
H3_5 C5_5 1_555 1_555
H4_5 C6_5 1_555 1_555
O2_5 N2_5 1_555 1_555
C5_5 C6_5 1_555 1_555
Cd1_10 N1_5 1_555 1_555
C2_5 N1_5 1_555 1_555
H1_5 C2_5 1_555 1_555
Cd2_6 N3_5 1_555 1_555
N3_5 C4_5 1_555 1_555
N6_5 Cd1_10 1_555 1_555
N8_5 C3_5 1_555 1_555
C4_5 C2_5 1_555 1_555
H2_5 C4_5 1_555 1_555
O3_5 N8_5 1_555 1_555
O4_5 N8_5 1_555 1_555
Cd1_11 N1_6 1_555 1_555
C2_6 N1_6 1_555 1_555
H1_6 C2_6 1_555 1_555
Cd2_5 N3_6 1_555 1_555
N3_6 C4_6 1_555 1_555
N6_6 Cd1_11 1_555 1_555
N8_6 C3_6 1_555 1_555
C4_6 C2_6 1_555 1_555
H2_6 C4_6 1_555 1_555
O3_6 N8_6 1_555 1_555
O4_6 N8_6 1_555 1_555
N2_6 C1_6 1_555 1_555
O1_6 N2_6 1_555 1_555
Cd3_6 N5_6 1_555 1_555
N4_6 Cd1_12 1_555 1_555
N7_6 Cd1_12 1_555 1_555
C5_6 N4_6 1_555 1_555
C6_6 N5_6 1_555 1_555
H3_6 C5_6 1_555 1_555
H4_6 C6_6 1_555 1_555
O2_6 N2_6 1_555 1_555
C5_6 C6_6 1_555 1_555
N7_7 Cd2_3 1_555 1_555
N6_7 Cd2_4 1_555 1_555
N6_8 Cd3_3 1_555 1_555
N7_8 Cd3_4 1_555 1_555
N7_9 Cd2 1_555 1_555
N6_9 Cd2_2 1_555 1_555
N6_10 Cd3 1_555 1_555
N7_10 Cd3_2 1_555 1_555
N7_11 Cd2_5 1_555 1_555
N6_11 Cd2_6 1_555 1_555
N6_12 Cd3_5 1_555 1_555
N7_12 Cd3_6 1_555 1_555
N6_3 C3_7 1_555 1_555
N8_7 C3_7 1_555 1_555
C3_7 N6_12 1_555 1_555
C5_7 N6_12 1_555 1_555
C6_7 N6_3 1_555 1_555
H3_7 C5_7 1_555 1_555
H4_7 C6_7 1_555 1_555
O3_7 N8_7 1_555 1_555
O4_7 N8_7 1_555 1_555
C5_7 C6_7 1_555 1_555
N7_12 C1_7 1_555 1_555
N2_7 C1_7 1_555 1_555
C1_7 N7_4 1_555 1_555
C2_7 N7_12 1_555 1_555
H1_7 C2_7 1_555 1_555
O1_7 N2_7 1_555 1_555
N7_4 C4_7 1_555 1_555
C4_7 C2_7 1_555 1_555
H2_7 C4_7 1_555 1_555
O2_7 N2_7 1_555 1_555
N7_3 C3_8 1_555 1_555
N8_8 C3_8 1_555 1_555
C3_8 N7_11 1_555 1_555
C5_8 N7_11 1_555 1_555
C6_8 N7_3 1_555 1_555
H3_8 C5_8 1_555 1_555
H4_8 C6_8 1_555 1_555
O3_8 N8_8 1_555 1_555
O4_8 N8_8 1_555 1_555
C5_8 C6_8 1_555 1_555
N6_11 C1_8 1_555 1_555
N2_8 C1_8 1_555 1_555
C1_8 N6_4 1_555 1_555
C2_8 N6_11 1_555 1_555
H1_8 C2_8 1_555 1_555
O1_8 N2_8 1_555 1_555
N6_4 C4_8 1_555 1_555
C4_8 C2_8 1_555 1_555
H2_8 C4_8 1_555 1_555
O2_8 N2_8 1_555 1_555
N6_5 C3_9 1_555 1_555
N8_9 C3_9 1_555 1_555
C3_9 N6_10 1_555 1_555
C5_9 N6_10 1_555 1_555
C6_9 N6_5 1_555 1_555
H3_9 C5_9 1_555 1_555
H4_9 C6_9 1_555 1_555
O3_9 N8_9 1_555 1_555
O4_9 N8_9 1_555 1_555
C5_9 C6_9 1_555 1_555
N7_10 C1_9 1_555 1_555
N2_9 C1_9 1_555 1_555
C1_9 N7_6 1_555 1_555
C2_9 N7_10 1_555 1_555
H1_9 C2_9 1_555 1_555
O1_9 N2_9 1_555 1_555
N7_6 C4_9 1_555 1_555
C4_9 C2_9 1_555 1_555
H2_9 C4_9 1_555 1_555
O2_9 N2_9 1_555 1_555
N7_5 C3_10 1_555 1_555
N8_10 C3_10 1_555 1_555
C3_10 N7_9 1_555 1_555
C5_10 N7_9 1_555 1_555
C6_10 N7_5 1_555 1_555
H3_10 C5_10 1_555 1_555
H4_10 C6_10 1_555 1_555
O3_10 N8_10 1_555 1_555
O4_10 N8_10 1_555 1_555
C5_10 C6_10 1_555 1_555
N6_9 C1_10 1_555 1_555
N2_10 C1_10 1_555 1_555
C1_10 N6_6 1_555 1_555
C2_10 N6_9 1_555 1_555
H1_10 C2_10 1_555 1_555
O1_10 N2_10 1_555 1_555
N6_6 C4_10 1_555 1_555
C4_10 C2_10 1_555 1_555
H2_10 C4_10 1_555 1_555
O2_10 N2_10 1_555 1_555
N6 C3_11 1_555 1_555
N8_11 C3_11 1_555 1_555
C3_11 N6_8 1_555 1_555
C5_11 N6_8 1_555 1_555
C6_11 N6 1_555 1_555
H3_11 C5_11 1_555 1_555
H4_11 C6_11 1_555 1_555
O3_11 N8_11 1_555 1_555
O4_11 N8_11 1_555 1_555
C5_11 C6_11 1_555 1_555
N7_8 C1_11 1_555 1_555
N2_11 C1_11 1_555 1_555
C1_11 N7_2 1_555 1_555
C2_11 N7_8 1_555 1_555
H1_11 C2_11 1_555 1_555
O1_11 N2_11 1_555 1_555
N7_2 C4_11 1_555 1_555
C4_11 C2_11 1_555 1_555
H2_11 C4_11 1_555 1_555
O2_11 N2_11 1_555 1_555
N7 C3_12 1_555 1_555
N8_12 C3_12 1_555 1_555
C3_12 N7_7 1_555 1_555
C5_12 N7_7 1_555 1_555
C6_12 N7 1_555 1_555
H3_12 C5_12 1_555 1_555
H4_12 C6_12 1_555 1_555
O3_12 N8_12 1_555 1_555
O4_12 N8_12 1_555 1_555
C5_12 C6_12 1_555 1_555
N6_7 C1_12 1_555 1_555
N2_12 C1_12 1_555 1_555
C1_12 N6_2 1_555 1_555
C2_12 N6_7 1_555 1_555
H1_12 C2_12 1_555 1_555
O1_12 N2_12 1_555 1_555
N6_2 C4_12 1_555 1_555
C4_12 C2_12 1_555 1_555
H2_12 C4_12 1_555 1_555
O2_12 N2_12 1_555 1_555

#END
