
###############################################################################
#
# This file contains modified crystal structure data generated from the
# MOF subset of the Cambridge Structural Database (CSD) v543 
# hosted by the Cambridge Crystallographic Data Centre (CCDC).
#
# This work is licensed under the Creative Commons
# Attribution-NonCommercial-ShareAlike 4.0 International License.
# To view a copy of this license, visit
# http://creativecommons.org/licenses/by-nc-sa/4.0/
# or send a letter to
# Creative Commons, PO Box 1866, Mountain View, CA 94042, USA.
#
# CIF created using the CSD Python API on 29 September 2022
# The structure has been converted into the P1 space group
# The structure has a 3D framework
# The original CSD entry GUPCOK is in the cubic crystal system
# The framework has been calculated to contain at least 10.0% void space
# The void calculation uses a probe of radius 1.32A, grid spacing 0.4
#
###############################################################################

data_GUPCOK
_chemical_formula_moiety         '(C480 H672 Cd24 N180)n'
_symmetry_cell_setting           triclinic
_symmetry_space_group_name_H-M   'P 1'
_symmetry_Int_Tables_number      1
_space_group_name_Hall           'P 1'
loop_
_symmetry_equiv_pos_site_id
_symmetry_equiv_pos_as_xyz
1 x,y,z
_cell_length_a                   27.9997(8)
_cell_length_b                   27.9997(8)
_cell_length_c                   27.9997(8)
_cell_angle_alpha                90
_cell_angle_beta                 90
_cell_angle_gamma                90
_cell_volume                     21951.3
loop_
_atom_site_label
_atom_site_type_symbol
_atom_site_fract_x
_atom_site_fract_y
_atom_site_fract_z
Cd1 Cd 0.1250 0.839280(18) 0.089280(18)
N2 N 0.06329(19) 0.8682(2) 0.1279(2)
C1 C 0.0646(3) 0.8879(3) 0.1731(3)
H1 H 0.0921 0.8943 0.1907
C2 C 0.0196(3) 0.8963(3) 0.1875(3)
H2 H 0.0107 0.9104 0.2162
C3 C 0.0167(2) 0.8643(2) 0.1179(2)
H3 H 0.0227 0.8214 0.0588
H6 H 0.0168 0.8957 0.0325
N3 N 0.1196(2) 0.8479(2) 0.0115(2)
N4 N 0.1304(2) 0.7615(2) 0.0979(2)
N6 N 0.18671(19) 0.8779(2) 0.1182(2)
C9 C 0.1573(4) 0.9282(3) 0.0013(3)
H11 H 0.1759 0.9219 0.0298
C10 C 0.1224(10) 0.9608(10) 0.0115(10)
H12 H 0.1368 0.9898 0.0230
H14 H 0.1016 0.9481 0.0356
Cd3 Cd 0.160720(18) 0.910720(18) 0.8750
N5 N 0.1318(2) 0.8721(2) 0.93671(19)
C6 C 0.1121(3) 0.8269(3) 0.9354(3)
H8 H 0.1057 0.8093 0.9079
C7 C 0.1037(3) 0.8125(3) 0.9804(3)
H9 H 0.0896 0.7838 0.9893
C8 C 0.1357(2) 0.8821(2) 0.9833(2)
H10 H 0.1786 0.9412 0.9773
H13 H 0.1043 0.9675 0.9832
N1 N 0.9885(2) 0.8804(2) 0.1521(2)
C4 C 0.9987(3) 0.8427(4) 0.0718(3)
H4 H 0.9702 0.8241 0.0781
C5 C 0.9885(10) 0.8776(10) 0.0392(10)
H5 H 0.9770 0.8632 0.0102
H7 H 0.9644 0.8984 0.0519
Cd2 Cd 0.910720(18) 0.8750 0.160720(18)
Cd1_2 Cd 0.3750 0.160720(18) 0.589280(18)
N1_2 N 0.5115(2) 0.1196(2) 0.6521(2)
N2_2 N 0.43671(19) 0.1318(2) 0.6279(2)
C1_2 C 0.4354(3) 0.1121(3) 0.6731(3)
H1_2 H 0.4079 0.1057 0.6907
C2_2 C 0.4804(3) 0.1037(3) 0.6875(3)
H2_2 H 0.4893 0.0896 0.7162
C3_2 C 0.4833(2) 0.1357(2) 0.6179(2)
C4_2 C 0.5013(3) 0.1573(4) 0.5718(3)
H3_2 H 0.4773 0.1786 0.5588
H4_2 H 0.5298 0.1759 0.5781
C5_2 C 0.5115(10) 0.1224(10) 0.5392(10)
H5_2 H 0.5230 0.1368 0.5102
H6_2 H 0.4832 0.1043 0.5325
H7_2 H 0.5356 0.1016 0.5519
Cd2_2 Cd 0.589280(18) 0.1250 0.660720(18)
Cd3_2 Cd 0.339280(18) 0.089280(18) 0.3750
N3_2 N 0.3804(2) 0.1521(2) 0.5115(2)
N4_2 N 0.3696(2) 0.2385(2) 0.5979(2)
N5_2 N 0.3682(2) 0.1279(2) 0.43671(19)
N6_2 N 0.31329(19) 0.1221(2) 0.6182(2)
C6_2 C 0.3879(3) 0.1731(3) 0.4354(3)
H8_2 H 0.3943 0.1907 0.4079
C7_2 C 0.3963(3) 0.1875(3) 0.4804(3)
H9_2 H 0.4104 0.2162 0.4893
C8_2 C 0.3643(2) 0.1179(2) 0.4833(2)
C9_2 C 0.3427(4) 0.0718(3) 0.5013(3)
H10_2 H 0.3214 0.0588 0.4773
H11_2 H 0.3241 0.0781 0.5298
C10_2 C 0.3776(10) 0.0392(10) 0.5115(10)
H12_2 H 0.3632 0.0102 0.5230
H13_2 H 0.3957 0.0325 0.4832
H14_2 H 0.3984 0.0519 0.5356
N1_3 N 0.0115(2) 0.3804(2) 0.3479(2)
C4_3 C 0.0013(3) 0.3427(4) 0.4282(3)
H4_3 H 0.0298 0.3241 0.4219
C5_3 C 0.0115(10) 0.3776(10) 0.4608(10)
H5_3 H 0.0230 0.3632 0.4898
H7_3 H 0.0356 0.3984 0.4481
Cd2_3 Cd 0.089280(18) 0.3750 0.339280(18)
Cd1_3 Cd 0.8750 0.339280(18) 0.410720(18)
N2_3 N 0.93671(19) 0.3682(2) 0.3721(2)
C1_3 C 0.9354(3) 0.3879(3) 0.3269(3)
H1_3 H 0.9079 0.3943 0.3093
C2_3 C 0.9804(3) 0.3963(3) 0.3125(3)
H2_3 H 0.9893 0.4104 0.2838
C3_3 C 0.9833(2) 0.3643(2) 0.3821(2)
H3_3 H 0.9773 0.3214 0.4412
H6_3 H 0.9832 0.3957 0.4675
Cd3_3 Cd 0.839280(18) 0.410720(18) 0.6250
N3_3 N 0.8804(2) 0.3479(2) 0.4885(2)
N4_3 N 0.8696(2) 0.2615(2) 0.4021(2)
N5_3 N 0.8682(2) 0.3721(2) 0.56329(19)
N6_3 N 0.81329(19) 0.3779(2) 0.3818(2)
C6_3 C 0.8879(3) 0.3269(3) 0.5646(3)
H8_3 H 0.8943 0.3093 0.5921
C7_3 C 0.8963(3) 0.3125(3) 0.5196(3)
H9_3 H 0.9104 0.2838 0.5107
C8_3 C 0.8643(2) 0.3821(2) 0.5167(2)
C9_3 C 0.8427(4) 0.4282(3) 0.4987(3)
H10_3 H 0.8214 0.4412 0.5227
H11_3 H 0.8241 0.4219 0.4702
C10_3 C 0.8776(10) 0.4608(10) 0.4885(10)
H12_3 H 0.8632 0.4898 0.4770
H13_3 H 0.8957 0.4675 0.5168
H14_3 H 0.8984 0.4481 0.4644
Cd3_4 Cd 0.660720(18) 0.589280(18) 0.1250
N5_4 N 0.6318(2) 0.6279(2) 0.06329(19)
C6_4 C 0.6121(3) 0.6731(3) 0.0646(3)
H8_4 H 0.6057 0.6907 0.0921
C7_4 C 0.6037(3) 0.6875(3) 0.0196(3)
H9_4 H 0.5896 0.7162 0.0107
C8_4 C 0.6357(2) 0.6179(2) 0.0167(2)
H10_4 H 0.6786 0.5588 0.0227
H13_4 H 0.6043 0.5325 0.0168
Cd1_4 Cd 0.6250 0.660720(18) 0.910720(18)
N1_4 N 0.4885(2) 0.6196(2) 0.8479(2)
N2_4 N 0.56329(19) 0.6318(2) 0.8721(2)
C1_4 C 0.5646(3) 0.6121(3) 0.8269(3)
H1_4 H 0.5921 0.6057 0.8093
C2_4 C 0.5196(3) 0.6037(3) 0.8125(3)
H2_4 H 0.5107 0.5896 0.7838
C3_4 C 0.5167(2) 0.6357(2) 0.8821(2)
C4_4 C 0.4987(3) 0.6573(4) 0.9282(3)
H3_4 H 0.5227 0.6786 0.9412
H4_4 H 0.4702 0.6759 0.9219
C5_4 C 0.4885(10) 0.6224(10) 0.9608(10)
H5_4 H 0.4770 0.6368 0.9898
H6_4 H 0.5168 0.6043 0.9675
H7_4 H 0.4644 0.6016 0.9481
Cd2_4 Cd 0.410720(18) 0.6250 0.839280(18)
N3_4 N 0.6196(2) 0.6521(2) 0.9885(2)
N4_4 N 0.6304(2) 0.7385(2) 0.9021(2)
N6_4 N 0.68671(19) 0.6221(2) 0.8818(2)
C9_4 C 0.6573(4) 0.5718(3) 0.9987(3)
H11_4 H 0.6759 0.5781 0.9702
C10_4 C 0.6224(10) 0.5392(10) 0.9885(10)
H12_4 H 0.6368 0.5102 0.9770
H14_4 H 0.6016 0.5519 0.9644
Cd1_5 Cd 0.089280(18) 0.1250 0.839280(18)
N2_5 N 0.1279(2) 0.06329(19) 0.8682(2)
C1_5 C 0.1731(3) 0.0646(3) 0.8879(3)
H1_5 H 0.1907 0.0921 0.8943
C2_5 C 0.1875(3) 0.0196(3) 0.8963(3)
H2_5 H 0.2162 0.0107 0.9104
C3_5 C 0.1179(2) 0.0167(2) 0.8643(2)
H3_5 H 0.0588 0.0227 0.8214
H6_5 H 0.0325 0.0168 0.8957
N3_5 N 0.0115(2) 0.1196(2) 0.8479(2)
N4_5 N 0.0979(2) 0.1304(2) 0.7615(2)
N6_5 N 0.1182(2) 0.18671(19) 0.8779(2)
C9_5 C 0.0013(3) 0.1573(4) 0.9282(3)
H11_5 H 0.0298 0.1759 0.9219
C10_5 C 0.0115(10) 0.1224(10) 0.9608(10)
H12_5 H 0.0230 0.1368 0.9898
H14_5 H 0.0356 0.1016 0.9481
N1_5 N 0.1521(2) 0.9885(2) 0.8804(2)
C4_5 C 0.0718(3) 0.9987(3) 0.8427(4)
H4_5 H 0.0781 0.9702 0.8241
C5_5 C 0.0392(10) 0.9885(10) 0.8776(10)
H5_5 H 0.0102 0.9770 0.8632
H7_5 H 0.0519 0.9644 0.8984
Cd3_5 Cd 0.8750 0.160720(18) 0.910720(18)
N5_5 N 0.93671(19) 0.1318(2) 0.8721(2)
C6_5 C 0.9354(3) 0.1121(3) 0.8269(3)
H8_5 H 0.9079 0.1057 0.8093
C7_5 C 0.9804(3) 0.1037(3) 0.8125(3)
H9_5 H 0.9893 0.0896 0.7838
C8_5 C 0.9833(2) 0.1357(2) 0.8821(2)
H10_5 H 0.9773 0.1786 0.9412
H13_5 H 0.9832 0.1043 0.9675
Cd1_6 Cd 0.589280(18) 0.3750 0.160720(18)
N1_6 N 0.6521(2) 0.5115(2) 0.1196(2)
N2_6 N 0.6279(2) 0.43671(19) 0.1318(2)
C1_6 C 0.6731(3) 0.4354(3) 0.1121(3)
H1_6 H 0.6907 0.4079 0.1057
C2_6 C 0.6875(3) 0.4804(3) 0.1037(3)
H2_6 H 0.7162 0.4893 0.0896
C3_6 C 0.6179(2) 0.4833(2) 0.1357(2)
C4_6 C 0.5718(3) 0.5013(3) 0.1573(4)
H3_6 H 0.5588 0.4773 0.1786
H4_6 H 0.5781 0.5298 0.1759
C5_6 C 0.5392(10) 0.5115(10) 0.1224(10)
H5_6 H 0.5102 0.5230 0.1368
H6_6 H 0.5325 0.4832 0.1043
H7_6 H 0.5519 0.5356 0.1016
Cd3_6 Cd 0.3750 0.339280(18) 0.089280(18)
N3_6 N 0.5115(2) 0.3804(2) 0.1521(2)
N4_6 N 0.5979(2) 0.3696(2) 0.2385(2)
N5_6 N 0.43671(19) 0.3682(2) 0.1279(2)
N6_6 N 0.6182(2) 0.31329(19) 0.1221(2)
C6_6 C 0.4354(3) 0.3879(3) 0.1731(3)
H8_6 H 0.4079 0.3943 0.1907
C7_6 C 0.4804(3) 0.3963(3) 0.1875(3)
H9_6 H 0.4893 0.4104 0.2162
C8_6 C 0.4833(2) 0.3643(2) 0.1179(2)
C9_6 C 0.5013(3) 0.3427(4) 0.0718(3)
H10_6 H 0.4773 0.3214 0.0588
H11_6 H 0.5298 0.3241 0.0781
C10_6 C 0.5115(10) 0.3776(10) 0.0392(10)
H12_6 H 0.5230 0.3632 0.0102
H13_6 H 0.4832 0.3957 0.0325
H14_6 H 0.5356 0.3984 0.0519
N1_7 N 0.3479(2) 0.0115(2) 0.3804(2)
C4_7 C 0.4282(3) 0.0013(3) 0.3427(4)
H4_7 H 0.4219 0.0298 0.3241
C5_7 C 0.4608(10) 0.0115(10) 0.3776(10)
H5_7 H 0.4898 0.0230 0.3632
H7_7 H 0.4481 0.0356 0.3984
Cd1_7 Cd 0.410720(18) 0.8750 0.339280(18)
N2_7 N 0.3721(2) 0.93671(19) 0.3682(2)
C1_7 C 0.3269(3) 0.9354(3) 0.3879(3)
H1_7 H 0.3093 0.9079 0.3943
C2_7 C 0.3125(3) 0.9804(3) 0.3963(3)
H2_7 H 0.2838 0.9893 0.4104
C3_7 C 0.3821(2) 0.9833(2) 0.3643(2)
H3_7 H 0.4412 0.9773 0.3214
H6_7 H 0.4675 0.9832 0.3957
Cd3_7 Cd 0.6250 0.839280(18) 0.410720(18)
N3_7 N 0.4885(2) 0.8804(2) 0.3479(2)
N4_7 N 0.4021(2) 0.8696(2) 0.2615(2)
N5_7 N 0.56329(19) 0.8682(2) 0.3721(2)
N6_7 N 0.3818(2) 0.81329(19) 0.3779(2)
C6_7 C 0.5646(3) 0.8879(3) 0.3269(3)
H8_7 H 0.5921 0.8943 0.3093
C7_7 C 0.5196(3) 0.8963(3) 0.3125(3)
H9_7 H 0.5107 0.9104 0.2838
C8_7 C 0.5167(2) 0.8643(2) 0.3821(2)
C9_7 C 0.4987(3) 0.8427(4) 0.4282(3)
H10_7 H 0.5227 0.8214 0.4412
H11_7 H 0.4702 0.8241 0.4219
C10_7 C 0.4885(10) 0.8776(10) 0.4608(10)
H12_7 H 0.4770 0.8632 0.4898
H13_7 H 0.5168 0.8957 0.4675
H14_7 H 0.4644 0.8984 0.4481
Cd3_8 Cd 0.1250 0.660720(18) 0.589280(18)
N5_8 N 0.06329(19) 0.6318(2) 0.6279(2)
C6_8 C 0.0646(3) 0.6121(3) 0.6731(3)
H8_8 H 0.0921 0.6057 0.6907
C7_8 C 0.0196(3) 0.6037(3) 0.6875(3)
H9_8 H 0.0107 0.5896 0.7162
C8_8 C 0.0167(2) 0.6357(2) 0.6179(2)
H10_8 H 0.0227 0.6786 0.5588
H13_8 H 0.0168 0.6043 0.5325
Cd1_8 Cd 0.910720(18) 0.6250 0.660720(18)
N1_8 N 0.8479(2) 0.4885(2) 0.6196(2)
N2_8 N 0.8721(2) 0.56329(19) 0.6318(2)
C1_8 C 0.8269(3) 0.5646(3) 0.6121(3)
H1_8 H 0.8093 0.5921 0.6057
C2_8 C 0.8125(3) 0.5196(3) 0.6037(3)
H2_8 H 0.7838 0.5107 0.5896
C3_8 C 0.8821(2) 0.5167(2) 0.6357(2)
C4_8 C 0.9282(3) 0.4987(3) 0.6573(4)
H3_8 H 0.9412 0.5227 0.6786
H4_8 H 0.9219 0.4702 0.6759
C5_8 C 0.9608(10) 0.4885(10) 0.6224(10)
H5_8 H 0.9898 0.4770 0.6368
H6_8 H 0.9675 0.5168 0.6043
H7_8 H 0.9481 0.4644 0.6016
N3_8 N 0.9885(2) 0.6196(2) 0.6521(2)
N4_8 N 0.9021(2) 0.6304(2) 0.7385(2)
N6_8 N 0.8818(2) 0.68671(19) 0.6221(2)
C9_8 C 0.9987(3) 0.6573(4) 0.5718(3)
H11_8 H 0.9702 0.6759 0.5781
C10_8 C 0.9885(10) 0.6224(10) 0.5392(10)
H12_8 H 0.9770 0.6368 0.5102
H14_8 H 0.9644 0.6016 0.5519
Cd1_9 Cd 0.839280(18) 0.089280(18) 0.1250
N2_9 N 0.8682(2) 0.1279(2) 0.06329(19)
C1_9 C 0.8879(3) 0.1731(3) 0.0646(3)
H1_9 H 0.8943 0.1907 0.0921
C2_9 C 0.8963(3) 0.1875(3) 0.0196(3)
H2_9 H 0.9104 0.2162 0.0107
C3_9 C 0.8643(2) 0.1179(2) 0.0167(2)
H3_9 H 0.8214 0.0588 0.0227
H6_9 H 0.8957 0.0325 0.0168
N3_9 N 0.8479(2) 0.0115(2) 0.1196(2)
N4_9 N 0.7615(2) 0.0979(2) 0.1304(2)
N6_9 N 0.8779(2) 0.1182(2) 0.18671(19)
C9_9 C 0.9282(3) 0.0013(3) 0.1573(4)
H11_9 H 0.9219 0.0298 0.1759
C10_9 C 0.9608(10) 0.0115(10) 0.1224(10)
H12_9 H 0.9898 0.0230 0.1368
H14_9 H 0.9481 0.0356 0.1016
N1_9 N 0.8804(2) 0.1521(2) 0.9885(2)
C4_9 C 0.8427(4) 0.0718(3) 0.9987(3)
H4_9 H 0.8241 0.0781 0.9702
C5_9 C 0.8776(10) 0.0392(10) 0.9885(10)
H5_9 H 0.8632 0.0102 0.9770
H7_9 H 0.8984 0.0519 0.9644
N5_9 N 0.8721(2) 0.93671(19) 0.1318(2)
C6_9 C 0.8269(3) 0.9354(3) 0.1121(3)
H8_9 H 0.8093 0.9079 0.1057
C7_9 C 0.8125(3) 0.9804(3) 0.1037(3)
H9_9 H 0.7838 0.9893 0.0896
C8_9 C 0.8821(2) 0.9833(2) 0.1357(2)
H10_9 H 0.9412 0.9773 0.1786
H13_9 H 0.9675 0.9832 0.1043
Cd1_10 Cd 0.160720(18) 0.589280(18) 0.3750
N1_10 N 0.1196(2) 0.6521(2) 0.5115(2)
N2_10 N 0.1318(2) 0.6279(2) 0.43671(19)
C1_10 C 0.1121(3) 0.6731(3) 0.4354(3)
H1_10 H 0.1057 0.6907 0.4079
C2_10 C 0.1037(3) 0.6875(3) 0.4804(3)
H2_10 H 0.0896 0.7162 0.4893
C3_10 C 0.1357(2) 0.6179(2) 0.4833(2)
C4_10 C 0.1573(4) 0.5718(3) 0.5013(3)
H3_10 H 0.1786 0.5588 0.4773
H4_10 H 0.1759 0.5781 0.5298
C5_10 C 0.1224(10) 0.5392(10) 0.5115(10)
H5_10 H 0.1368 0.5102 0.5230
H6_10 H 0.1043 0.5325 0.4832
H7_10 H 0.1016 0.5519 0.5356
N3_10 N 0.1521(2) 0.5115(2) 0.3804(2)
N4_10 N 0.2385(2) 0.5979(2) 0.3696(2)
N5_10 N 0.1279(2) 0.43671(19) 0.3682(2)
N6_10 N 0.1221(2) 0.6182(2) 0.31329(19)
C6_10 C 0.1731(3) 0.4354(3) 0.3879(3)
H8_10 H 0.1907 0.4079 0.3943
C7_10 C 0.1875(3) 0.4804(3) 0.3963(3)
H9_10 H 0.2162 0.4893 0.4104
C8_10 C 0.1179(2) 0.4833(2) 0.3643(2)
C9_10 C 0.0718(3) 0.5013(3) 0.3427(4)
H10_10 H 0.0588 0.4773 0.3214
H11_10 H 0.0781 0.5298 0.3241
C10_10 C 0.0392(10) 0.5115(10) 0.3776(10)
H12_10 H 0.0102 0.5230 0.3632
H13_10 H 0.0325 0.4832 0.3957
H14_10 H 0.0519 0.5356 0.3984
N1_11 N 0.3804(2) 0.3479(2) 0.0115(2)
C4_11 C 0.3427(4) 0.4282(3) 0.0013(3)
H4_11 H 0.3241 0.4219 0.0298
C5_11 C 0.3776(10) 0.4608(10) 0.0115(10)
H5_11 H 0.3632 0.4898 0.0230
H7_11 H 0.3984 0.4481 0.0356
Cd1_11 Cd 0.339280(18) 0.410720(18) 0.8750
N2_11 N 0.3682(2) 0.3721(2) 0.93671(19)
C1_11 C 0.3879(3) 0.3269(3) 0.9354(3)
H1_11 H 0.3943 0.3093 0.9079
C2_11 C 0.3963(3) 0.3125(3) 0.9804(3)
H2_11 H 0.4104 0.2838 0.9893
C3_11 C 0.3643(2) 0.3821(2) 0.9833(2)
H3_11 H 0.3214 0.4412 0.9773
H6_11 H 0.3957 0.4675 0.9832
N3_11 N 0.3479(2) 0.4885(2) 0.8804(2)
N4_11 N 0.2615(2) 0.4021(2) 0.8696(2)
N5_11 N 0.3721(2) 0.56329(19) 0.8682(2)
N6_11 N 0.3779(2) 0.3818(2) 0.81329(19)
C6_11 C 0.3269(3) 0.5646(3) 0.8879(3)
H8_11 H 0.3093 0.5921 0.8943
C7_11 C 0.3125(3) 0.5196(3) 0.8963(3)
H9_11 H 0.2838 0.5107 0.9104
C8_11 C 0.3821(2) 0.5167(2) 0.8643(2)
C9_11 C 0.4282(3) 0.4987(3) 0.8427(4)
H10_11 H 0.4412 0.5227 0.8214
H11_11 H 0.4219 0.4702 0.8241
C10_11 C 0.4608(10) 0.4885(10) 0.8776(10)
H12_11 H 0.4898 0.4770 0.8632
H13_11 H 0.4675 0.5168 0.8957
H14_11 H 0.4481 0.4644 0.8984
N5_12 N 0.6279(2) 0.06329(19) 0.6318(2)
C6_12 C 0.6731(3) 0.0646(3) 0.6121(3)
H8_12 H 0.6907 0.0921 0.6057
C7_12 C 0.6875(3) 0.0196(3) 0.6037(3)
H9_12 H 0.7162 0.0107 0.5896
C8_12 C 0.6179(2) 0.0167(2) 0.6357(2)
H10_12 H 0.5588 0.0227 0.6786
H13_12 H 0.5325 0.0168 0.6043
Cd1_12 Cd 0.660720(18) 0.910720(18) 0.6250
N1_12 N 0.6196(2) 0.8479(2) 0.4885(2)
N2_12 N 0.6318(2) 0.8721(2) 0.56329(19)
C1_12 C 0.6121(3) 0.8269(3) 0.5646(3)
H1_12 H 0.6057 0.8093 0.5921
C2_12 C 0.6037(3) 0.8125(3) 0.5196(3)
H2_12 H 0.5896 0.7838 0.5107
C3_12 C 0.6357(2) 0.8821(2) 0.5167(2)
C4_12 C 0.6573(4) 0.9282(3) 0.4987(3)
H3_12 H 0.6786 0.9412 0.5227
H4_12 H 0.6759 0.9219 0.4702
C5_12 C 0.6224(10) 0.9608(10) 0.4885(10)
H5_12 H 0.6368 0.9898 0.4770
H6_12 H 0.6043 0.9675 0.5168
H7_12 H 0.6016 0.9481 0.4644
N3_12 N 0.6521(2) 0.9885(2) 0.6196(2)
N4_12 N 0.7385(2) 0.9021(2) 0.6304(2)
N6_12 N 0.6221(2) 0.8818(2) 0.68671(19)
C9_12 C 0.5718(3) 0.9987(3) 0.6573(4)
H11_12 H 0.5781 0.9702 0.6759
C10_12 C 0.5392(10) 0.9885(10) 0.6224(10)
H12_12 H 0.5102 0.9770 0.6368
H14_12 H 0.5519 0.9644 0.6016
N1_13 N 0.6304(2) 0.2385(2) 0.0979(2)
C1_13 C 0.6379(3) 0.3146(3) 0.0769(3)
H1_13 H 0.6443 0.3421 0.0593
C2_13 C 0.6463(3) 0.2696(3) 0.0625(3)
H2_13 H 0.6604 0.2607 0.0338
C3_13 C 0.6143(2) 0.2667(2) 0.1321(2)
C4_13 C 0.5927(4) 0.2487(3) 0.1782(3)
H3_13 H 0.5714 0.2727 0.1912
H4_13 H 0.5741 0.2202 0.1719
C5_13 C 0.6276(10) 0.2385(10) 0.2108(10)
H5_13 H 0.6132 0.2270 0.2398
H6_13 H 0.6457 0.2668 0.2175
H7_13 H 0.6484 0.2144 0.1981
Cd2_5 Cd 0.6250 0.160720(18) 0.089280(18)
Cd3_9 Cd 0.660720(18) 0.410720(18) 0.3750
N5_13 N 0.6221(2) 0.3818(2) 0.31329(19)
C6_13 C 0.5769(3) 0.3621(3) 0.3146(3)
H8_13 H 0.5593 0.3557 0.3421
C7_13 C 0.5625(3) 0.3537(3) 0.2696(3)
H9_13 H 0.5338 0.3396 0.2607
C8_13 C 0.6321(2) 0.3857(2) 0.2667(2)
C9_13 C 0.6782(3) 0.4073(4) 0.2487(3)
H10_13 H 0.6912 0.4286 0.2727
H11_13 H 0.6719 0.4259 0.2202
C10_13 C 0.7108(10) 0.3724(10) 0.2385(10)
H12_13 H 0.7398 0.3868 0.2270
H13_13 H 0.7175 0.3543 0.2668
H14_13 H 0.6981 0.3516 0.2144
N1_14 N 0.8696(2) 0.7615(2) 0.5979(2)
C1_14 C 0.8621(3) 0.6854(3) 0.5769(3)
H1_14 H 0.8557 0.6579 0.5593
C2_14 C 0.8537(3) 0.7304(3) 0.5625(3)
H2_14 H 0.8396 0.7393 0.5338
C3_14 C 0.8857(2) 0.7333(2) 0.6321(2)
C4_14 C 0.9073(4) 0.7513(3) 0.6782(3)
H3_14 H 0.9286 0.7273 0.6912
H4_14 H 0.9259 0.7798 0.6719
C5_14 C 0.8724(10) 0.7615(10) 0.7108(10)
H5_14 H 0.8868 0.7730 0.7398
H6_14 H 0.8543 0.7332 0.7175
H7_14 H 0.8516 0.7856 0.6981
Cd2_6 Cd 0.8750 0.839280(18) 0.589280(18)
Cd3_10 Cd 0.839280(18) 0.589280(18) 0.8750
N5_14 N 0.8779(2) 0.6182(2) 0.81329(19)
C6_14 C 0.9231(3) 0.6379(3) 0.8146(3)
H8_14 H 0.9407 0.6443 0.8421
C7_14 C 0.9375(3) 0.6463(3) 0.7696(3)
H9_14 H 0.9662 0.6604 0.7607
C8_14 C 0.8679(2) 0.6143(2) 0.7667(2)
C9_14 C 0.8218(3) 0.5927(4) 0.7487(3)
H10_14 H 0.8088 0.5714 0.7727
H11_14 H 0.8281 0.5741 0.7202
C10_14 C 0.7892(10) 0.6276(10) 0.7385(10)
H12_14 H 0.7602 0.6132 0.7270
H13_14 H 0.7825 0.6457 0.7668
H14_14 H 0.8019 0.6484 0.7144
N1_15 N 0.1304(2) 0.2615(2) 0.9021(2)
C1_15 C 0.1379(3) 0.1854(3) 0.9231(3)
H1_15 H 0.1443 0.1579 0.9407
C2_15 C 0.1463(3) 0.2304(3) 0.9375(3)
H2_15 H 0.1604 0.2393 0.9662
C3_15 C 0.1143(2) 0.2333(2) 0.8679(2)
C4_15 C 0.0927(4) 0.2513(3) 0.8218(3)
H3_15 H 0.0714 0.2273 0.8088
H4_15 H 0.0741 0.2798 0.8281
C5_15 C 0.1276(10) 0.2615(10) 0.7892(10)
H5_15 H 0.1132 0.2730 0.7602
H6_15 H 0.1457 0.2332 0.7825
H7_15 H 0.1484 0.2856 0.8019
Cd2_7 Cd 0.1250 0.339280(18) 0.910720(18)
Cd3_11 Cd 0.160720(18) 0.089280(18) 0.6250
N5_15 N 0.1221(2) 0.1182(2) 0.68671(19)
C6_15 C 0.0769(3) 0.1379(3) 0.6854(3)
H8_15 H 0.0593 0.1443 0.6579
C7_15 C 0.0625(3) 0.1463(3) 0.7304(3)
H9_15 H 0.0338 0.1604 0.7393
C8_15 C 0.1321(2) 0.1143(2) 0.7333(2)
C9_15 C 0.1782(3) 0.0927(4) 0.7513(3)
H10_15 H 0.1912 0.0714 0.7273
H11_15 H 0.1719 0.0741 0.7798
C10_15 C 0.2108(10) 0.1276(10) 0.7615(10)
H12_15 H 0.2398 0.1132 0.7730
H13_15 H 0.2175 0.1457 0.7332
H14_15 H 0.1981 0.1484 0.7856
N1_16 N 0.3696(2) 0.7385(2) 0.4021(2)
C1_16 C 0.3621(3) 0.8146(3) 0.4231(3)
H1_16 H 0.3557 0.8421 0.4407
C2_16 C 0.3537(3) 0.7696(3) 0.4375(3)
H2_16 H 0.3396 0.7607 0.4662
C3_16 C 0.3857(2) 0.7667(2) 0.3679(2)
C4_16 C 0.4073(4) 0.7487(3) 0.3218(3)
H3_16 H 0.4286 0.7727 0.3088
H4_16 H 0.4259 0.7202 0.3281
C5_16 C 0.3724(10) 0.7385(10) 0.2892(10)
H5_16 H 0.3868 0.7270 0.2602
H6_16 H 0.3543 0.7668 0.2825
H7_16 H 0.3516 0.7144 0.3019
Cd2_8 Cd 0.3750 0.660720(18) 0.410720(18)
Cd3_12 Cd 0.339280(18) 0.910720(18) 0.1250
N5_16 N 0.3779(2) 0.8818(2) 0.18671(19)
C6_16 C 0.4231(3) 0.8621(3) 0.1854(3)
H8_16 H 0.4407 0.8557 0.1579
C7_16 C 0.4375(3) 0.8537(3) 0.2304(3)
H9_16 H 0.4662 0.8396 0.2393
C8_16 C 0.3679(2) 0.8857(2) 0.2333(2)
C9_16 C 0.3218(3) 0.9073(4) 0.2513(3)
H10_16 H 0.3088 0.9286 0.2273
H11_16 H 0.3281 0.9259 0.2798
C10_16 C 0.2892(10) 0.8724(10) 0.2615(10)
H12_16 H 0.2602 0.8868 0.2730
H13_16 H 0.2825 0.8543 0.2332
H14_16 H 0.3019 0.8516 0.2856
N1_17 N 0.7385(2) 0.4021(2) 0.3696(2)
C1_17 C 0.8146(3) 0.4231(3) 0.3621(3)
H1_17 H 0.8421 0.4407 0.3557
C2_17 C 0.7696(3) 0.4375(3) 0.3537(3)
H2_17 H 0.7607 0.4662 0.3396
C3_17 C 0.7667(2) 0.3679(2) 0.3857(2)
C4_17 C 0.7487(3) 0.3218(3) 0.4073(4)
H3_17 H 0.7727 0.3088 0.4286
H4_17 H 0.7202 0.3281 0.4259
C5_17 C 0.7385(10) 0.2892(10) 0.3724(10)
H5_17 H 0.7270 0.2602 0.3868
H6_17 H 0.7668 0.2825 0.3543
H7_17 H 0.7144 0.3019 0.3516
Cd3_13 Cd 0.910720(18) 0.1250 0.339280(18)
N5_17 N 0.8818(2) 0.18671(19) 0.3779(2)
C6_17 C 0.8621(3) 0.1854(3) 0.4231(3)
H8_17 H 0.8557 0.1579 0.4407
C7_17 C 0.8537(3) 0.2304(3) 0.4375(3)
H9_17 H 0.8396 0.2393 0.4662
C8_17 C 0.8857(2) 0.2333(2) 0.3679(2)
C9_17 C 0.9073(4) 0.2513(3) 0.3218(3)
H10_17 H 0.9286 0.2273 0.3088
H11_17 H 0.9259 0.2798 0.3281
C10_17 C 0.8724(10) 0.2615(10) 0.2892(10)
H12_17 H 0.8868 0.2730 0.2602
H13_17 H 0.8543 0.2332 0.2825
H14_17 H 0.8516 0.2856 0.3019
N1_18 N 0.2615(2) 0.9021(2) 0.1304(2)
C1_18 C 0.1854(3) 0.9231(3) 0.1379(3)
H1_18 H 0.1579 0.9407 0.1443
C2_18 C 0.2304(3) 0.9375(3) 0.1463(3)
H2_18 H 0.2393 0.9662 0.1604
C3_18 C 0.2333(2) 0.8679(2) 0.1143(2)
C4_18 C 0.2513(3) 0.8218(3) 0.0927(4)
H3_18 H 0.2273 0.8088 0.0714
H4_18 H 0.2798 0.8281 0.0741
C5_18 C 0.2615(10) 0.7892(10) 0.1276(10)
H5_18 H 0.2730 0.7602 0.1132
H6_18 H 0.2332 0.7825 0.1457
H7_18 H 0.2856 0.8019 0.1484
Cd3_14 Cd 0.089280(18) 0.6250 0.160720(18)
N5_18 N 0.1182(2) 0.68671(19) 0.1221(2)
C6_18 C 0.1379(3) 0.6854(3) 0.0769(3)
H8_18 H 0.1443 0.6579 0.0593
C7_18 C 0.1463(3) 0.7304(3) 0.0625(3)
H9_18 H 0.1604 0.7393 0.0338
C8_18 C 0.1143(2) 0.7333(2) 0.1321(2)
C9_18 C 0.0927(4) 0.7513(3) 0.1782(3)
H10_18 H 0.0714 0.7273 0.1912
H11_18 H 0.0741 0.7798 0.1719
C10_18 C 0.1276(10) 0.7615(10) 0.2108(10)
H12_18 H 0.1132 0.7730 0.2398
H13_18 H 0.1457 0.7332 0.2175
H14_18 H 0.1484 0.7856 0.1981
N1_19 N 0.7615(2) 0.5979(2) 0.8696(2)
C1_19 C 0.6854(3) 0.5769(3) 0.8621(3)
H1_19 H 0.6579 0.5593 0.8557
C2_19 C 0.7304(3) 0.5625(3) 0.8537(3)
H2_19 H 0.7393 0.5338 0.8396
C3_19 C 0.7333(2) 0.6321(2) 0.8857(2)
C4_19 C 0.7513(3) 0.6782(3) 0.9073(4)
H3_19 H 0.7273 0.6912 0.9286
H4_19 H 0.7798 0.6719 0.9259
C5_19 C 0.7615(10) 0.7108(10) 0.8724(10)
H5_19 H 0.7730 0.7398 0.8868
H6_19 H 0.7332 0.7175 0.8543
H7_19 H 0.7856 0.6981 0.8516
Cd3_15 Cd 0.589280(18) 0.8750 0.839280(18)
N5_19 N 0.6182(2) 0.81329(19) 0.8779(2)
C6_19 C 0.6379(3) 0.8146(3) 0.9231(3)
H8_19 H 0.6443 0.8421 0.9407
C7_19 C 0.6463(3) 0.7696(3) 0.9375(3)
H9_19 H 0.6604 0.7607 0.9662
C8_19 C 0.6143(2) 0.7667(2) 0.8679(2)
C9_19 C 0.5927(4) 0.7487(3) 0.8218(3)
H10_19 H 0.5714 0.7727 0.8088
H11_19 H 0.5741 0.7202 0.8281
C10_19 C 0.6276(10) 0.7385(10) 0.7892(10)
H12_19 H 0.6132 0.7270 0.7602
H13_19 H 0.6457 0.7668 0.7825
H14_19 H 0.6484 0.7144 0.8019
N1_20 N 0.2385(2) 0.0979(2) 0.6304(2)
C1_20 C 0.3146(3) 0.0769(3) 0.6379(3)
H1_20 H 0.3421 0.0593 0.6443
C2_20 C 0.2696(3) 0.0625(3) 0.6463(3)
H2_20 H 0.2607 0.0338 0.6604
C3_20 C 0.2667(2) 0.1321(2) 0.6143(2)
C4_20 C 0.2487(3) 0.1782(3) 0.5927(4)
H3_20 H 0.2727 0.1912 0.5714
H4_20 H 0.2202 0.1719 0.5741
C5_20 C 0.2385(10) 0.2108(10) 0.6276(10)
H5_20 H 0.2270 0.2398 0.6132
H6_20 H 0.2668 0.2175 0.6457
H7_20 H 0.2144 0.1981 0.6484
Cd3_16 Cd 0.410720(18) 0.3750 0.660720(18)
N5_20 N 0.3818(2) 0.31329(19) 0.6221(2)
C6_20 C 0.3621(3) 0.3146(3) 0.5769(3)
H8_20 H 0.3557 0.3421 0.5593
C7_20 C 0.3537(3) 0.2696(3) 0.5625(3)
H9_20 H 0.3396 0.2607 0.5338
C8_20 C 0.3857(2) 0.2667(2) 0.6321(2)
C9_20 C 0.4073(4) 0.2487(3) 0.6782(3)
H10_20 H 0.4286 0.2727 0.6912
H11_20 H 0.4259 0.2202 0.6719
C10_20 C 0.3724(10) 0.2385(10) 0.7108(10)
H12_20 H 0.3868 0.2270 0.7398
H13_20 H 0.3543 0.2668 0.7175
H14_20 H 0.3516 0.2144 0.6981
N1_21 N 0.9021(2) 0.1304(2) 0.2615(2)
C1_21 C 0.9231(3) 0.1379(3) 0.1854(3)
H1_21 H 0.9407 0.1443 0.1579
C2_21 C 0.9375(3) 0.1463(3) 0.2304(3)
H2_21 H 0.9662 0.1604 0.2393
C3_21 C 0.8679(2) 0.1143(2) 0.2333(2)
C4_21 C 0.8218(3) 0.0927(4) 0.2513(3)
H3_21 H 0.8088 0.0714 0.2273
H4_21 H 0.8281 0.0741 0.2798
C5_21 C 0.7892(10) 0.1276(10) 0.2615(10)
H5_21 H 0.7602 0.1132 0.2730
H6_21 H 0.7825 0.1457 0.2332
H7_21 H 0.8019 0.1484 0.2856
N5_21 N 0.68671(19) 0.1221(2) 0.1182(2)
C6_21 C 0.6854(3) 0.0769(3) 0.1379(3)
H8_21 H 0.6579 0.0593 0.1443
C7_21 C 0.7304(3) 0.0625(3) 0.1463(3)
H9_21 H 0.7393 0.0338 0.1604
C8_21 C 0.7333(2) 0.1321(2) 0.1143(2)
C9_21 C 0.7513(3) 0.1782(3) 0.0927(4)
H10_21 H 0.7273 0.1912 0.0714
H11_21 H 0.7798 0.1719 0.0741
C10_21 C 0.7615(10) 0.2108(10) 0.1276(10)
H12_21 H 0.7730 0.2398 0.1132
H13_21 H 0.7332 0.2175 0.1457
H14_21 H 0.7856 0.1981 0.1484
N1_22 N 0.4021(2) 0.3696(2) 0.7385(2)
C1_22 C 0.4231(3) 0.3621(3) 0.8146(3)
H1_22 H 0.4407 0.3557 0.8421
C2_22 C 0.4375(3) 0.3537(3) 0.7696(3)
H2_22 H 0.4662 0.3396 0.7607
C3_22 C 0.3679(2) 0.3857(2) 0.7667(2)
C4_22 C 0.3218(3) 0.4073(4) 0.7487(3)
H3_22 H 0.3088 0.4286 0.7727
H4_22 H 0.3281 0.4259 0.7202
C5_22 C 0.2892(10) 0.3724(10) 0.7385(10)
H5_22 H 0.2602 0.3868 0.7270
H6_22 H 0.2825 0.3543 0.7668
H7_22 H 0.3019 0.3516 0.7144
N5_22 N 0.18671(19) 0.3779(2) 0.8818(2)
C6_22 C 0.1854(3) 0.4231(3) 0.8621(3)
H8_22 H 0.1579 0.4407 0.8557
C7_22 C 0.2304(3) 0.4375(3) 0.8537(3)
H9_22 H 0.2393 0.4662 0.8396
C8_22 C 0.2333(2) 0.3679(2) 0.8857(2)
C9_22 C 0.2513(3) 0.3218(3) 0.9073(4)
H10_22 H 0.2273 0.3088 0.9286
H11_22 H 0.2798 0.3281 0.9259
C10_22 C 0.2615(10) 0.2892(10) 0.8724(10)
H12_22 H 0.2730 0.2602 0.8868
H13_22 H 0.2332 0.2825 0.8543
H14_22 H 0.2856 0.3019 0.8516
N1_23 N 0.0979(2) 0.6304(2) 0.2385(2)
C1_23 C 0.0769(3) 0.6379(3) 0.3146(3)
H1_23 H 0.0593 0.6443 0.3421
C2_23 C 0.0625(3) 0.6463(3) 0.2696(3)
H2_23 H 0.0338 0.6604 0.2607
C3_23 C 0.1321(2) 0.6143(2) 0.2667(2)
C4_23 C 0.1782(3) 0.5927(4) 0.2487(3)
H3_23 H 0.1912 0.5714 0.2727
H4_23 H 0.1719 0.5741 0.2202
C5_23 C 0.2108(10) 0.6276(10) 0.2385(10)
H5_23 H 0.2398 0.6132 0.2270
H6_23 H 0.2175 0.6457 0.2668
H7_23 H 0.1981 0.6484 0.2144
N5_23 N 0.31329(19) 0.6221(2) 0.3818(2)
C6_23 C 0.3146(3) 0.5769(3) 0.3621(3)
H8_23 H 0.3421 0.5593 0.3557
C7_23 C 0.2696(3) 0.5625(3) 0.3537(3)
H9_23 H 0.2607 0.5338 0.3396
C8_23 C 0.2667(2) 0.6321(2) 0.3857(2)
C9_23 C 0.2487(3) 0.6782(3) 0.4073(4)
H10_23 H 0.2727 0.6912 0.4286
H11_23 H 0.2202 0.6719 0.4259
C10_23 C 0.2385(10) 0.7108(10) 0.3724(10)
H12_23 H 0.2270 0.7398 0.3868
H13_23 H 0.2668 0.7175 0.3543
H14_23 H 0.2144 0.6981 0.3516
N1_24 N 0.5979(2) 0.8696(2) 0.7615(2)
C1_24 C 0.5769(3) 0.8621(3) 0.6854(3)
H1_24 H 0.5593 0.8557 0.6579
C2_24 C 0.5625(3) 0.8537(3) 0.7304(3)
H2_24 H 0.5338 0.8396 0.7393
C3_24 C 0.6321(2) 0.8857(2) 0.7333(2)
C4_24 C 0.6782(3) 0.9073(4) 0.7513(3)
H3_24 H 0.6912 0.9286 0.7273
H4_24 H 0.6719 0.9259 0.7798
C5_24 C 0.7108(10) 0.8724(10) 0.7615(10)
H5_24 H 0.7398 0.8868 0.7730
H6_24 H 0.7175 0.8543 0.7332
H7_24 H 0.6981 0.8516 0.7856
N5_24 N 0.81329(19) 0.8779(2) 0.6182(2)
C6_24 C 0.8146(3) 0.9231(3) 0.6379(3)
H8_24 H 0.8421 0.9407 0.6443
C7_24 C 0.7696(3) 0.9375(3) 0.6463(3)
H9_24 H 0.7607 0.9662 0.6604
C8_24 C 0.7667(2) 0.8679(2) 0.6143(2)
C9_24 C 0.7487(3) 0.8218(3) 0.5927(4)
H10_24 H 0.7727 0.8088 0.5714
H11_24 H 0.7202 0.8281 0.5741
C10_24 C 0.7385(10) 0.7892(10) 0.6276(10)
H12_24 H 0.7270 0.7602 0.6132
H13_24 H 0.7668 0.7825 0.6457
H14_24 H 0.7144 0.8019 0.6484
Cd1_13 Cd 0.6250 0.339280(18) 0.589280(18)
N1_25 N 0.4885(2) 0.3804(2) 0.6521(2)
N2_13 N 0.56329(19) 0.3682(2) 0.6279(2)
C1_25 C 0.5646(3) 0.3879(3) 0.6731(3)
H1_25 H 0.5921 0.3943 0.6907
C2_25 C 0.5196(3) 0.3963(3) 0.6875(3)
H2_25 H 0.5107 0.4104 0.7162
C3_25 C 0.5167(2) 0.3643(2) 0.6179(2)
C4_25 C 0.4987(3) 0.3427(4) 0.5718(3)
H3_25 H 0.5227 0.3214 0.5588
H4_25 H 0.4702 0.3241 0.5781
C5_25 C 0.4885(10) 0.3776(10) 0.5392(10)
H5_25 H 0.4770 0.3632 0.5102
H6_25 H 0.5168 0.3957 0.5325
H7_25 H 0.4644 0.3984 0.5519
N3_13 N 0.6196(2) 0.3479(2) 0.5115(2)
N4_13 N 0.6304(2) 0.2615(2) 0.5979(2)
N5_25 N 0.6318(2) 0.3721(2) 0.43671(19)
N6_13 N 0.68671(19) 0.3779(2) 0.6182(2)
C6_25 C 0.6121(3) 0.3269(3) 0.4354(3)
H8_25 H 0.6057 0.3093 0.4079
C7_25 C 0.6037(3) 0.3125(3) 0.4804(3)
H9_25 H 0.5896 0.2838 0.4893
C8_25 C 0.6357(2) 0.3821(2) 0.4833(2)
C9_25 C 0.6573(4) 0.4282(3) 0.5013(3)
H10_25 H 0.6786 0.4412 0.4773
H11_25 H 0.6759 0.4219 0.5298
C10_25 C 0.6224(10) 0.4608(10) 0.5115(10)
H12_25 H 0.6368 0.4898 0.5230
H13_25 H 0.6043 0.4675 0.4832
H14_25 H 0.6016 0.4481 0.5356
N1_26 N 0.0115(2) 0.6196(2) 0.1521(2)
C4_26 C 0.0013(3) 0.6573(4) 0.0718(3)
H4_26 H 0.0298 0.6759 0.0781
C5_26 C 0.0115(10) 0.6224(10) 0.0392(10)
H5_26 H 0.0230 0.6368 0.0102
H7_26 H 0.0356 0.6016 0.0519
Cd1_14 Cd 0.8750 0.660720(18) 0.089280(18)
N2_14 N 0.93671(19) 0.6318(2) 0.1279(2)
C1_26 C 0.9354(3) 0.6121(3) 0.1731(3)
H1_26 H 0.9079 0.6057 0.1907
C2_26 C 0.9804(3) 0.6037(3) 0.1875(3)
H2_26 H 0.9893 0.5896 0.2162
C3_26 C 0.9833(2) 0.6357(2) 0.1179(2)
H3_26 H 0.9773 0.6786 0.0588
H6_26 H 0.9832 0.6043 0.0325
N3_14 N 0.8804(2) 0.6521(2) 0.0115(2)
N4_14 N 0.8696(2) 0.7385(2) 0.0979(2)
N6_14 N 0.81329(19) 0.6221(2) 0.1182(2)
C9_26 C 0.8427(4) 0.5718(3) 0.0013(3)
H11_26 H 0.8241 0.5781 0.0298
C10_26 C 0.8776(10) 0.5392(10) 0.0115(10)
H12_26 H 0.8632 0.5102 0.0230
H14_26 H 0.8984 0.5519 0.0356
N5_26 N 0.8682(2) 0.6279(2) 0.93671(19)
C6_26 C 0.8879(3) 0.6731(3) 0.9354(3)
H8_26 H 0.8943 0.6907 0.9079
C7_26 C 0.8963(3) 0.6875(3) 0.9804(3)
H9_26 H 0.9104 0.7162 0.9893
C8_26 C 0.8643(2) 0.6179(2) 0.9833(2)
H10_26 H 0.8214 0.5588 0.9773
H13_26 H 0.8957 0.5325 0.9832
N5_27 N 0.3682(2) 0.8721(2) 0.06329(19)
C6_27 C 0.3879(3) 0.8269(3) 0.0646(3)
H8_27 H 0.3943 0.8093 0.0921
C7_27 C 0.3963(3) 0.8125(3) 0.0196(3)
H9_27 H 0.4104 0.7838 0.0107
C8_27 C 0.3643(2) 0.8821(2) 0.0167(2)
H10_27 H 0.3214 0.9412 0.0227
H13_27 H 0.3957 0.9675 0.0168
Cd1_15 Cd 0.3750 0.839280(18) 0.910720(18)
N1_27 N 0.5115(2) 0.8804(2) 0.8479(2)
N2_15 N 0.43671(19) 0.8682(2) 0.8721(2)
C1_27 C 0.4354(3) 0.8879(3) 0.8269(3)
H1_27 H 0.4079 0.8943 0.8093
C2_27 C 0.4804(3) 0.8963(3) 0.8125(3)
H2_27 H 0.4893 0.9104 0.7838
C3_27 C 0.4833(2) 0.8643(2) 0.8821(2)
C4_27 C 0.5013(3) 0.8427(4) 0.9282(3)
H3_27 H 0.4773 0.8214 0.9412
H4_27 H 0.5298 0.8241 0.9219
C5_27 C 0.5115(10) 0.8776(10) 0.9608(10)
H5_27 H 0.5230 0.8632 0.9898
H6_27 H 0.4832 0.8957 0.9675
H7_27 H 0.5356 0.8984 0.9481
N3_15 N 0.3804(2) 0.8479(2) 0.9885(2)
N4_15 N 0.3696(2) 0.7615(2) 0.9021(2)
N6_15 N 0.31329(19) 0.8779(2) 0.8818(2)
C9_27 C 0.3427(4) 0.9282(3) 0.9987(3)
H11_27 H 0.3241 0.9219 0.9702
C10_27 C 0.3776(10) 0.9608(10) 0.9885(10)
H12_27 H 0.3632 0.9898 0.9770
H14_27 H 0.3984 0.9481 0.9644
Cd1_16 Cd 0.1250 0.160720(18) 0.410720(18)
N2_16 N 0.06329(19) 0.1318(2) 0.3721(2)
C1_28 C 0.0646(3) 0.1121(3) 0.3269(3)
H1_28 H 0.0921 0.1057 0.3093
C2_28 C 0.0196(3) 0.1037(3) 0.3125(3)
H2_28 H 0.0107 0.0896 0.2838
C3_28 C 0.0167(2) 0.1357(2) 0.3821(2)
H3_28 H 0.0227 0.1786 0.4412
H6_28 H 0.0168 0.1043 0.4675
N3_16 N 0.1196(2) 0.1521(2) 0.4885(2)
N4_16 N 0.1304(2) 0.2385(2) 0.4021(2)
N5_28 N 0.1318(2) 0.1279(2) 0.56329(19)
N6_16 N 0.18671(19) 0.1221(2) 0.3818(2)
C6_28 C 0.1121(3) 0.1731(3) 0.5646(3)
H8_28 H 0.1057 0.1907 0.5921
C7_28 C 0.1037(3) 0.1875(3) 0.5196(3)
H9_28 H 0.0896 0.2162 0.5107
C8_28 C 0.1357(2) 0.1179(2) 0.5167(2)
C9_28 C 0.1573(4) 0.0718(3) 0.4987(3)
H10_28 H 0.1786 0.0588 0.5227
H11_28 H 0.1759 0.0781 0.4702
C10_28 C 0.1224(10) 0.0392(10) 0.4885(10)
H12_28 H 0.1368 0.0102 0.4770
H13_28 H 0.1043 0.0325 0.5168
H14_28 H 0.1016 0.0519 0.4644
N1_28 N 0.9885(2) 0.1196(2) 0.3479(2)
C4_28 C 0.9987(3) 0.1573(4) 0.4282(3)
H4_28 H 0.9702 0.1759 0.4219
C5_28 C 0.9885(10) 0.1224(10) 0.4608(10)
H5_28 H 0.9770 0.1368 0.4898
H7_28 H 0.9644 0.1016 0.4481
Cd1_17 Cd 0.589280(18) 0.6250 0.339280(18)
N1_29 N 0.6521(2) 0.4885(2) 0.3804(2)
N2_17 N 0.6279(2) 0.56329(19) 0.3682(2)
C1_29 C 0.6731(3) 0.5646(3) 0.3879(3)
H1_29 H 0.6907 0.5921 0.3943
C2_29 C 0.6875(3) 0.5196(3) 0.3963(3)
H2_29 H 0.7162 0.5107 0.4104
C3_29 C 0.6179(2) 0.5167(2) 0.3643(2)
C4_29 C 0.5718(3) 0.4987(3) 0.3427(4)
H3_29 H 0.5588 0.5227 0.3214
H4_29 H 0.5781 0.4702 0.3241
C5_29 C 0.5392(10) 0.4885(10) 0.3776(10)
H5_29 H 0.5102 0.4770 0.3632
H6_29 H 0.5325 0.5168 0.3957
H7_29 H 0.5519 0.4644 0.3984
N3_17 N 0.5115(2) 0.6196(2) 0.3479(2)
N4_17 N 0.5979(2) 0.6304(2) 0.2615(2)
N5_29 N 0.43671(19) 0.6318(2) 0.3721(2)
N6_17 N 0.6182(2) 0.68671(19) 0.3779(2)
C6_29 C 0.4354(3) 0.6121(3) 0.3269(3)
H8_29 H 0.4079 0.6057 0.3093
C7_29 C 0.4804(3) 0.6037(3) 0.3125(3)
H9_29 H 0.4893 0.5896 0.2838
C8_29 C 0.4833(2) 0.6357(2) 0.3821(2)
C9_29 C 0.5013(3) 0.6573(4) 0.4282(3)
H10_29 H 0.4773 0.6786 0.4412
H11_29 H 0.5298 0.6759 0.4219
C10_29 C 0.5115(10) 0.6224(10) 0.4608(10)
H12_29 H 0.5230 0.6368 0.4898
H13_29 H 0.4832 0.6043 0.4675
H14_29 H 0.5356 0.6016 0.4481
N1_30 N 0.1521(2) 0.0115(2) 0.6196(2)
C4_30 C 0.0718(3) 0.0013(3) 0.6573(4)
H4_30 H 0.0781 0.0298 0.6759
C5_30 C 0.0392(10) 0.0115(10) 0.6224(10)
H5_30 H 0.0102 0.0230 0.6368
H7_30 H 0.0519 0.0356 0.6016
Cd1_18 Cd 0.089280(18) 0.8750 0.660720(18)
N2_18 N 0.1279(2) 0.93671(19) 0.6318(2)
C1_30 C 0.1731(3) 0.9354(3) 0.6121(3)
H1_30 H 0.1907 0.9079 0.6057
C2_30 C 0.1875(3) 0.9804(3) 0.6037(3)
H2_30 H 0.2162 0.9893 0.5896
C3_30 C 0.1179(2) 0.9833(2) 0.6357(2)
H3_30 H 0.0588 0.9773 0.6786
H6_30 H 0.0325 0.9832 0.6043
N3_18 N 0.0115(2) 0.8804(2) 0.6521(2)
N4_18 N 0.0979(2) 0.8696(2) 0.7385(2)
N6_18 N 0.1182(2) 0.81329(19) 0.6221(2)
C9_30 C 0.0013(3) 0.8427(4) 0.5718(3)
H11_30 H 0.0298 0.8241 0.5781
C10_30 C 0.0115(10) 0.8776(10) 0.5392(10)
H12_30 H 0.0230 0.8632 0.5102
H14_30 H 0.0356 0.8984 0.5519
N5_30 N 0.93671(19) 0.8682(2) 0.6279(2)
C6_30 C 0.9354(3) 0.8879(3) 0.6731(3)
H8_30 H 0.9079 0.8943 0.6907
C7_30 C 0.9804(3) 0.8963(3) 0.6875(3)
H9_30 H 0.9893 0.9104 0.7162
C8_30 C 0.9833(2) 0.8643(2) 0.6179(2)
H10_30 H 0.9773 0.8214 0.5588
H13_30 H 0.9832 0.8957 0.5325
N5_31 N 0.06329(19) 0.3682(2) 0.8721(2)
C6_31 C 0.0646(3) 0.3879(3) 0.8269(3)
H8_31 H 0.0921 0.3943 0.8093
C7_31 C 0.0196(3) 0.3963(3) 0.8125(3)
H9_31 H 0.0107 0.4104 0.7838
C8_31 C 0.0167(2) 0.3643(2) 0.8821(2)
H10_31 H 0.0227 0.3214 0.9412
H13_31 H 0.0168 0.3957 0.9675
Cd1_19 Cd 0.910720(18) 0.3750 0.839280(18)
N1_31 N 0.8479(2) 0.5115(2) 0.8804(2)
N2_19 N 0.8721(2) 0.43671(19) 0.8682(2)
C1_31 C 0.8269(3) 0.4354(3) 0.8879(3)
H1_31 H 0.8093 0.4079 0.8943
C2_31 C 0.8125(3) 0.4804(3) 0.8963(3)
H2_31 H 0.7838 0.4893 0.9104
C3_31 C 0.8821(2) 0.4833(2) 0.8643(2)
C4_31 C 0.9282(3) 0.5013(3) 0.8427(4)
H3_31 H 0.9412 0.4773 0.8214
H4_31 H 0.9219 0.5298 0.8241
C5_31 C 0.9608(10) 0.5115(10) 0.8776(10)
H5_31 H 0.9898 0.5230 0.8632
H6_31 H 0.9675 0.4832 0.8957
H7_31 H 0.9481 0.5356 0.8984
N3_19 N 0.9885(2) 0.3804(2) 0.8479(2)
N4_19 N 0.9021(2) 0.3696(2) 0.7615(2)
N6_19 N 0.8818(2) 0.31329(19) 0.8779(2)
C9_31 C 0.9987(3) 0.3427(4) 0.9282(3)
H11_31 H 0.9702 0.3241 0.9219
C10_31 C 0.9885(10) 0.3776(10) 0.9608(10)
H12_31 H 0.9770 0.3632 0.9898
H14_31 H 0.9644 0.3984 0.9481
Cd1_20 Cd 0.410720(18) 0.1250 0.160720(18)
N2_20 N 0.3721(2) 0.06329(19) 0.1318(2)
C1_32 C 0.3269(3) 0.0646(3) 0.1121(3)
H1_32 H 0.3093 0.0921 0.1057
C2_32 C 0.3125(3) 0.0196(3) 0.1037(3)
H2_32 H 0.2838 0.0107 0.0896
C3_32 C 0.3821(2) 0.0167(2) 0.1357(2)
H3_32 H 0.4412 0.0227 0.1786
H6_32 H 0.4675 0.0168 0.1043
N3_20 N 0.4885(2) 0.1196(2) 0.1521(2)
N4_20 N 0.4021(2) 0.1304(2) 0.2385(2)
N5_32 N 0.56329(19) 0.1318(2) 0.1279(2)
N6_20 N 0.3818(2) 0.18671(19) 0.1221(2)
C6_32 C 0.5646(3) 0.1121(3) 0.1731(3)
H8_32 H 0.5921 0.1057 0.1907
C7_32 C 0.5196(3) 0.1037(3) 0.1875(3)
H9_32 H 0.5107 0.0896 0.2162
C8_32 C 0.5167(2) 0.1357(2) 0.1179(2)
C9_32 C 0.4987(3) 0.1573(4) 0.0718(3)
H10_32 H 0.5227 0.1786 0.0588
H11_32 H 0.4702 0.1759 0.0781
C10_32 C 0.4885(10) 0.1224(10) 0.0392(10)
H12_32 H 0.4770 0.1368 0.0102
H13_32 H 0.5168 0.1043 0.0325
H14_32 H 0.4644 0.1016 0.0519
N1_32 N 0.3479(2) 0.9885(2) 0.1196(2)
C4_32 C 0.4282(3) 0.9987(3) 0.1573(4)
H4_32 H 0.4219 0.9702 0.1759
C5_32 C 0.4608(10) 0.9885(10) 0.1224(10)
H5_32 H 0.4898 0.9770 0.1368
H7_32 H 0.4481 0.9644 0.1016
Cd1_21 Cd 0.339280(18) 0.589280(18) 0.6250
N1_33 N 0.3804(2) 0.6521(2) 0.4885(2)
N2_21 N 0.3682(2) 0.6279(2) 0.56329(19)
C1_33 C 0.3879(3) 0.6731(3) 0.5646(3)
H1_33 H 0.3943 0.6907 0.5921
C2_33 C 0.3963(3) 0.6875(3) 0.5196(3)
H2_33 H 0.4104 0.7162 0.5107
C3_33 C 0.3643(2) 0.6179(2) 0.5167(2)
C4_33 C 0.3427(4) 0.5718(3) 0.4987(3)
H3_33 H 0.3214 0.5588 0.5227
H4_33 H 0.3241 0.5781 0.4702
C5_33 C 0.3776(10) 0.5392(10) 0.4885(10)
H5_33 H 0.3632 0.5102 0.4770
H6_33 H 0.3957 0.5325 0.5168
H7_33 H 0.3984 0.5519 0.4644
N3_21 N 0.3479(2) 0.5115(2) 0.6196(2)
N4_21 N 0.2615(2) 0.5979(2) 0.6304(2)
N5_33 N 0.3721(2) 0.43671(19) 0.6318(2)
N6_21 N 0.3779(2) 0.6182(2) 0.68671(19)
C6_33 C 0.3269(3) 0.4354(3) 0.6121(3)
H8_33 H 0.3093 0.4079 0.6057
C7_33 C 0.3125(3) 0.4804(3) 0.6037(3)
H9_33 H 0.2838 0.4893 0.5896
C8_33 C 0.3821(2) 0.4833(2) 0.6357(2)
C9_33 C 0.4282(3) 0.5013(3) 0.6573(4)
H10_33 H 0.4412 0.4773 0.6786
H11_33 H 0.4219 0.5298 0.6759
C10_33 C 0.4608(10) 0.5115(10) 0.6224(10)
H12_33 H 0.4898 0.5230 0.6368
H13_33 H 0.4675 0.4832 0.6043
H14_33 H 0.4481 0.5356 0.6016
N1_34 N 0.6196(2) 0.1521(2) 0.0115(2)
C4_34 C 0.6573(4) 0.0718(3) 0.0013(3)
H4_34 H 0.6759 0.0781 0.0298
C5_34 C 0.6224(10) 0.0392(10) 0.0115(10)
H5_34 H 0.6368 0.0102 0.0230
H7_34 H 0.6016 0.0519 0.0356
Cd1_22 Cd 0.660720(18) 0.089280(18) 0.8750
N2_22 N 0.6318(2) 0.1279(2) 0.93671(19)
C1_34 C 0.6121(3) 0.1731(3) 0.9354(3)
H1_34 H 0.6057 0.1907 0.9079
C2_34 C 0.6037(3) 0.1875(3) 0.9804(3)
H2_34 H 0.5896 0.2162 0.9893
C3_34 C 0.6357(2) 0.1179(2) 0.9833(2)
H3_34 H 0.6786 0.0588 0.9773
H6_34 H 0.6043 0.0325 0.9832
N3_22 N 0.6521(2) 0.0115(2) 0.8804(2)
N4_22 N 0.7385(2) 0.0979(2) 0.8696(2)
N6_22 N 0.6221(2) 0.1182(2) 0.81329(19)
C9_34 C 0.5718(3) 0.0013(3) 0.8427(4)
H11_34 H 0.5781 0.0298 0.8241
C10_34 C 0.5392(10) 0.0115(10) 0.8776(10)
H12_34 H 0.5102 0.0230 0.8632
H14_34 H 0.5519 0.0356 0.8984
N5_34 N 0.6279(2) 0.93671(19) 0.8682(2)
C6_34 C 0.6731(3) 0.9354(3) 0.8879(3)
H8_34 H 0.6907 0.9079 0.8943
C7_34 C 0.6875(3) 0.9804(3) 0.8963(3)
H9_34 H 0.7162 0.9893 0.9104
C8_34 C 0.6179(2) 0.9833(2) 0.8643(2)
H10_34 H 0.5588 0.9773 0.8214
H13_34 H 0.5325 0.9832 0.8957
N5_35 N 0.8721(2) 0.06329(19) 0.3682(2)
C6_35 C 0.8269(3) 0.0646(3) 0.3879(3)
H8_35 H 0.8093 0.0921 0.3943
C7_35 C 0.8125(3) 0.0196(3) 0.3963(3)
H9_35 H 0.7838 0.0107 0.4104
C8_35 C 0.8821(2) 0.0167(2) 0.3643(2)
H10_35 H 0.9412 0.0227 0.3214
H13_35 H 0.9675 0.0168 0.3957
Cd1_23 Cd 0.839280(18) 0.910720(18) 0.3750
N1_35 N 0.8804(2) 0.8479(2) 0.5115(2)
N2_23 N 0.8682(2) 0.8721(2) 0.43671(19)
C1_35 C 0.8879(3) 0.8269(3) 0.4354(3)
H1_35 H 0.8943 0.8093 0.4079
C2_35 C 0.8963(3) 0.8125(3) 0.4804(3)
H2_35 H 0.9104 0.7838 0.4893
C3_35 C 0.8643(2) 0.8821(2) 0.4833(2)
C4_35 C 0.8427(4) 0.9282(3) 0.5013(3)
H3_35 H 0.8214 0.9412 0.4773
H4_35 H 0.8241 0.9219 0.5298
C5_35 C 0.8776(10) 0.9608(10) 0.5115(10)
H5_35 H 0.8632 0.9898 0.5230
H6_35 H 0.8957 0.9675 0.4832
H7_35 H 0.8984 0.9481 0.5356
N3_23 N 0.8479(2) 0.9885(2) 0.3804(2)
N4_23 N 0.7615(2) 0.9021(2) 0.3696(2)
N6_23 N 0.8779(2) 0.8818(2) 0.31329(19)
C9_35 C 0.9282(3) 0.9987(3) 0.3427(4)
H11_35 H 0.9219 0.9702 0.3241
C10_35 C 0.9608(10) 0.9885(10) 0.3776(10)
H12_35 H 0.9898 0.9770 0.3632
H14_35 H 0.9481 0.9644 0.3984
Cd1_24 Cd 0.160720(18) 0.410720(18) 0.1250
N2_24 N 0.1318(2) 0.3721(2) 0.06329(19)
C1_36 C 0.1121(3) 0.3269(3) 0.0646(3)
H1_36 H 0.1057 0.3093 0.0921
C2_36 C 0.1037(3) 0.3125(3) 0.0196(3)
H2_36 H 0.0896 0.2838 0.0107
C3_36 C 0.1357(2) 0.3821(2) 0.0167(2)
H3_36 H 0.1786 0.4412 0.0227
H6_36 H 0.1043 0.4675 0.0168
N3_24 N 0.1521(2) 0.4885(2) 0.1196(2)
N4_24 N 0.2385(2) 0.4021(2) 0.1304(2)
N5_36 N 0.1279(2) 0.56329(19) 0.1318(2)
N6_24 N 0.1221(2) 0.3818(2) 0.18671(19)
C6_36 C 0.1731(3) 0.5646(3) 0.1121(3)
H8_36 H 0.1907 0.5921 0.1057
C7_36 C 0.1875(3) 0.5196(3) 0.1037(3)
H9_36 H 0.2162 0.5107 0.0896
C8_36 C 0.1179(2) 0.5167(2) 0.1357(2)
C9_36 C 0.0718(3) 0.4987(3) 0.1573(4)
H10_36 H 0.0588 0.5227 0.1786
H11_36 H 0.0781 0.4702 0.1759
C10_36 C 0.0392(10) 0.4885(10) 0.1224(10)
H12_36 H 0.0102 0.4770 0.1368
H13_36 H 0.0325 0.5168 0.1043
H14_36 H 0.0519 0.4644 0.1016
N1_36 N 0.1196(2) 0.3479(2) 0.9885(2)
C4_36 C 0.1573(4) 0.4282(3) 0.9987(3)
H4_36 H 0.1759 0.4219 0.9702
C5_36 C 0.1224(10) 0.4608(10) 0.9885(10)
H5_36 H 0.1368 0.4898 0.9770
H7_36 H 0.1016 0.4481 0.9644
N1_37 N 0.1304(2) 0.7385(2) 0.5979(2)
C1_37 C 0.1379(3) 0.8146(3) 0.5769(3)
H1_37 H 0.1443 0.8421 0.5593
C2_37 C 0.1463(3) 0.7696(3) 0.5625(3)
H2_37 H 0.1604 0.7607 0.5338
C3_37 C 0.1143(2) 0.7667(2) 0.6321(2)
C4_37 C 0.0927(4) 0.7487(3) 0.6782(3)
H3_37 H 0.0714 0.7727 0.6912
H4_37 H 0.0741 0.7202 0.6719
C5_37 C 0.1276(10) 0.7385(10) 0.7108(10)
H5_37 H 0.1132 0.7270 0.7398
H6_37 H 0.1457 0.7668 0.7175
H7_37 H 0.1484 0.7144 0.6981
N5_37 N 0.1221(2) 0.8818(2) 0.81329(19)
C6_37 C 0.0769(3) 0.8621(3) 0.8146(3)
H8_37 H 0.0593 0.8557 0.8421
C7_37 C 0.0625(3) 0.8537(3) 0.7696(3)
H9_37 H 0.0338 0.8396 0.7607
C8_37 C 0.1321(2) 0.8857(2) 0.7667(2)
C9_37 C 0.1782(3) 0.9073(4) 0.7487(3)
H10_37 H 0.1912 0.9286 0.7727
H11_37 H 0.1719 0.9259 0.7202
C10_37 C 0.2108(10) 0.8724(10) 0.7385(10)
H12_37 H 0.2398 0.8868 0.7270
H13_37 H 0.2175 0.8543 0.7668
H14_37 H 0.1981 0.8516 0.7144
N1_38 N 0.3696(2) 0.2615(2) 0.0979(2)
C1_38 C 0.3621(3) 0.1854(3) 0.0769(3)
H1_38 H 0.3557 0.1579 0.0593
C2_38 C 0.3537(3) 0.2304(3) 0.0625(3)
H2_38 H 0.3396 0.2393 0.0338
C3_38 C 0.3857(2) 0.2333(2) 0.1321(2)
C4_38 C 0.4073(4) 0.2513(3) 0.1782(3)
H3_38 H 0.4286 0.2273 0.1912
H4_38 H 0.4259 0.2798 0.1719
C5_38 C 0.3724(10) 0.2615(10) 0.2108(10)
H5_38 H 0.3868 0.2730 0.2398
H6_38 H 0.3543 0.2332 0.2175
H7_38 H 0.3516 0.2856 0.1981
N5_38 N 0.3779(2) 0.1182(2) 0.31329(19)
C6_38 C 0.4231(3) 0.1379(3) 0.3146(3)
H8_38 H 0.4407 0.1443 0.3421
C7_38 C 0.4375(3) 0.1463(3) 0.2696(3)
H9_38 H 0.4662 0.1604 0.2607
C8_38 C 0.3679(2) 0.1143(2) 0.2667(2)
C9_38 C 0.3218(3) 0.0927(4) 0.2487(3)
H10_38 H 0.3088 0.0714 0.2727
H11_38 H 0.3281 0.0741 0.2202
C10_38 C 0.2892(10) 0.1276(10) 0.2385(10)
H12_38 H 0.2602 0.1132 0.2270
H13_38 H 0.2825 0.1457 0.2668
H14_38 H 0.3019 0.1484 0.2144
N1_39 N 0.6304(2) 0.7615(2) 0.4021(2)
C1_39 C 0.6379(3) 0.6854(3) 0.4231(3)
H1_39 H 0.6443 0.6579 0.4407
C2_39 C 0.6463(3) 0.7304(3) 0.4375(3)
H2_39 H 0.6604 0.7393 0.4662
C3_39 C 0.6143(2) 0.7333(2) 0.3679(2)
C4_39 C 0.5927(4) 0.7513(3) 0.3218(3)
H3_39 H 0.5714 0.7273 0.3088
H4_39 H 0.5741 0.7798 0.3281
C5_39 C 0.6276(10) 0.7615(10) 0.2892(10)
H5_39 H 0.6132 0.7730 0.2602
H6_39 H 0.6457 0.7332 0.2825
H7_39 H 0.6484 0.7856 0.3019
N5_39 N 0.6221(2) 0.6182(2) 0.18671(19)
C6_39 C 0.5769(3) 0.6379(3) 0.1854(3)
H8_39 H 0.5593 0.6443 0.1579
C7_39 C 0.5625(3) 0.6463(3) 0.2304(3)
H9_39 H 0.5338 0.6604 0.2393
C8_39 C 0.6321(2) 0.6143(2) 0.2333(2)
C9_39 C 0.6782(3) 0.5927(4) 0.2513(3)
H10_39 H 0.6912 0.5714 0.2273
H11_39 H 0.6719 0.5741 0.2798
C10_39 C 0.7108(10) 0.6276(10) 0.2615(10)
H12_39 H 0.7398 0.6132 0.2730
H13_39 H 0.7175 0.6457 0.2332
H14_39 H 0.6981 0.6484 0.2856
N1_40 N 0.8696(2) 0.2385(2) 0.9021(2)
C1_40 C 0.8621(3) 0.3146(3) 0.9231(3)
H1_40 H 0.8557 0.3421 0.9407
C2_40 C 0.8537(3) 0.2696(3) 0.9375(3)
H2_40 H 0.8396 0.2607 0.9662
C3_40 C 0.8857(2) 0.2667(2) 0.8679(2)
C4_40 C 0.9073(4) 0.2487(3) 0.8218(3)
H3_40 H 0.9286 0.2727 0.8088
H4_40 H 0.9259 0.2202 0.8281
C5_40 C 0.8724(10) 0.2385(10) 0.7892(10)
H5_40 H 0.8868 0.2270 0.7602
H6_40 H 0.8543 0.2668 0.7825
H7_40 H 0.8516 0.2144 0.8019
N5_40 N 0.8779(2) 0.3818(2) 0.68671(19)
C6_40 C 0.9231(3) 0.3621(3) 0.6854(3)
H8_40 H 0.9407 0.3557 0.6579
C7_40 C 0.9375(3) 0.3537(3) 0.7304(3)
H9_40 H 0.9662 0.3396 0.7393
C8_40 C 0.8679(2) 0.3857(2) 0.7333(2)
C9_40 C 0.8218(3) 0.4073(4) 0.7513(3)
H10_40 H 0.8088 0.4286 0.7273
H11_40 H 0.8281 0.4259 0.7798
C10_40 C 0.7892(10) 0.3724(10) 0.7615(10)
H12_40 H 0.7602 0.3868 0.7730
H13_40 H 0.7825 0.3543 0.7332
H14_40 H 0.8019 0.3516 0.7856
N1_41 N 0.2385(2) 0.9021(2) 0.8696(2)
C1_41 C 0.3146(3) 0.9231(3) 0.8621(3)
H1_41 H 0.3421 0.9407 0.8557
C2_41 C 0.2696(3) 0.9375(3) 0.8537(3)
H2_41 H 0.2607 0.9662 0.8396
C3_41 C 0.2667(2) 0.8679(2) 0.8857(2)
C4_41 C 0.2487(3) 0.8218(3) 0.9073(4)
H3_41 H 0.2727 0.8088 0.9286
H4_41 H 0.2202 0.8281 0.9259
C5_41 C 0.2385(10) 0.7892(10) 0.8724(10)
H5_41 H 0.2270 0.7602 0.8868
H6_41 H 0.2668 0.7825 0.8543
H7_41 H 0.2144 0.8019 0.8516
N5_41 N 0.3818(2) 0.68671(19) 0.8779(2)
C6_41 C 0.3621(3) 0.6854(3) 0.9231(3)
H8_41 H 0.3557 0.6579 0.9407
C7_41 C 0.3537(3) 0.7304(3) 0.9375(3)
H9_41 H 0.3396 0.7393 0.9662
C8_41 C 0.3857(2) 0.7333(2) 0.8679(2)
C9_41 C 0.4073(4) 0.7513(3) 0.8218(3)
H10_41 H 0.4286 0.7273 0.8088
H11_41 H 0.4259 0.7798 0.8281
C10_41 C 0.3724(10) 0.7615(10) 0.7892(10)
H12_41 H 0.3868 0.7730 0.7602
H13_41 H 0.3543 0.7332 0.7825
H14_41 H 0.3516 0.7856 0.8019
N1_42 N 0.7615(2) 0.4021(2) 0.6304(2)
C1_42 C 0.6854(3) 0.4231(3) 0.6379(3)
H1_42 H 0.6579 0.4407 0.6443
C2_42 C 0.7304(3) 0.4375(3) 0.6463(3)
H2_42 H 0.7393 0.4662 0.6604
C3_42 C 0.7333(2) 0.3679(2) 0.6143(2)
C4_42 C 0.7513(3) 0.3218(3) 0.5927(4)
H3_42 H 0.7273 0.3088 0.5714
H4_42 H 0.7798 0.3281 0.5741
C5_42 C 0.7615(10) 0.2892(10) 0.6276(10)
H5_42 H 0.7730 0.2602 0.6132
H6_42 H 0.7332 0.2825 0.6457
H7_42 H 0.7856 0.3019 0.6484
N5_42 N 0.6182(2) 0.18671(19) 0.6221(2)
C6_42 C 0.6379(3) 0.1854(3) 0.5769(3)
H8_42 H 0.6443 0.1579 0.5593
C7_42 C 0.6463(3) 0.2304(3) 0.5625(3)
H9_42 H 0.6604 0.2393 0.5338
C8_42 C 0.6143(2) 0.2333(2) 0.6321(2)
C9_42 C 0.5927(4) 0.2513(3) 0.6782(3)
H10_42 H 0.5714 0.2273 0.6912
H11_42 H 0.5741 0.2798 0.6719
C10_42 C 0.6276(10) 0.2615(10) 0.7108(10)
H12_42 H 0.6132 0.2730 0.7398
H13_42 H 0.6457 0.2332 0.7175
H14_42 H 0.6484 0.2856 0.6981
N1_43 N 0.2615(2) 0.0979(2) 0.3696(2)
C1_43 C 0.1854(3) 0.0769(3) 0.3621(3)
H1_43 H 0.1579 0.0593 0.3557
C2_43 C 0.2304(3) 0.0625(3) 0.3537(3)
H2_43 H 0.2393 0.0338 0.3396
C3_43 C 0.2333(2) 0.1321(2) 0.3857(2)
C4_43 C 0.2513(3) 0.1782(3) 0.4073(4)
H3_43 H 0.2273 0.1912 0.4286
H4_43 H 0.2798 0.1719 0.4259
C5_43 C 0.2615(10) 0.2108(10) 0.3724(10)
H5_43 H 0.2730 0.2398 0.3868
H6_43 H 0.2332 0.2175 0.3543
H7_43 H 0.2856 0.1981 0.3516
N5_43 N 0.1182(2) 0.31329(19) 0.3779(2)
C6_43 C 0.1379(3) 0.3146(3) 0.4231(3)
H8_43 H 0.1443 0.3421 0.4407
C7_43 C 0.1463(3) 0.2696(3) 0.4375(3)
H9_43 H 0.1604 0.2607 0.4662
C8_43 C 0.1143(2) 0.2667(2) 0.3679(2)
C9_43 C 0.0927(4) 0.2487(3) 0.3218(3)
H10_43 H 0.0714 0.2727 0.3088
H11_43 H 0.0741 0.2202 0.3281
C10_43 C 0.1276(10) 0.2385(10) 0.2892(10)
H12_43 H 0.1132 0.2270 0.2602
H13_43 H 0.1457 0.2668 0.2825
H14_43 H 0.1484 0.2144 0.3019
N1_44 N 0.7385(2) 0.5979(2) 0.1304(2)
C1_44 C 0.8146(3) 0.5769(3) 0.1379(3)
H1_44 H 0.8421 0.5593 0.1443
C2_44 C 0.7696(3) 0.5625(3) 0.1463(3)
H2_44 H 0.7607 0.5338 0.1604
C3_44 C 0.7667(2) 0.6321(2) 0.1143(2)
C4_44 C 0.7487(3) 0.6782(3) 0.0927(4)
H3_44 H 0.7727 0.6912 0.0714
H4_44 H 0.7202 0.6719 0.0741
C5_44 C 0.7385(10) 0.7108(10) 0.1276(10)
H5_44 H 0.7270 0.7398 0.1132
H6_44 H 0.7668 0.7175 0.1457
H7_44 H 0.7144 0.6981 0.1484
N5_44 N 0.8818(2) 0.81329(19) 0.1221(2)
C6_44 C 0.8621(3) 0.8146(3) 0.0769(3)
H8_44 H 0.8557 0.8421 0.0593
C7_44 C 0.8537(3) 0.7696(3) 0.0625(3)
H9_44 H 0.8396 0.7607 0.0338
C8_44 C 0.8857(2) 0.7667(2) 0.1321(2)
C9_44 C 0.9073(4) 0.7487(3) 0.1782(3)
H10_44 H 0.9286 0.7727 0.1912
H11_44 H 0.9259 0.7202 0.1719
C10_44 C 0.8724(10) 0.7385(10) 0.2108(10)
H12_44 H 0.8868 0.7270 0.2398
H13_44 H 0.8543 0.7668 0.2175
H14_44 H 0.8516 0.7144 0.1981
N1_45 N 0.4021(2) 0.6304(2) 0.7615(2)
C1_45 C 0.4231(3) 0.6379(3) 0.6854(3)
H1_45 H 0.4407 0.6443 0.6579
C2_45 C 0.4375(3) 0.6463(3) 0.7304(3)
H2_45 H 0.4662 0.6604 0.7393
C3_45 C 0.3679(2) 0.6143(2) 0.7333(2)
C4_45 C 0.3218(3) 0.5927(4) 0.7513(3)
H3_45 H 0.3088 0.5714 0.7273
H4_45 H 0.3281 0.5741 0.7798
C5_45 C 0.2892(10) 0.6276(10) 0.7615(10)
H5_45 H 0.2602 0.6132 0.7730
H6_45 H 0.2825 0.6457 0.7332
H7_45 H 0.3019 0.6484 0.7856
N5_45 N 0.18671(19) 0.6221(2) 0.6182(2)
C6_45 C 0.1854(3) 0.5769(3) 0.6379(3)
H8_45 H 0.1579 0.5593 0.6443
C7_45 C 0.2304(3) 0.5625(3) 0.6463(3)
H9_45 H 0.2393 0.5338 0.6604
C8_45 C 0.2333(2) 0.6321(2) 0.6143(2)
C9_45 C 0.2513(3) 0.6782(3) 0.5927(4)
H10_45 H 0.2273 0.6912 0.5714
H11_45 H 0.2798 0.6719 0.5741
C10_45 C 0.2615(10) 0.7108(10) 0.6276(10)
H12_45 H 0.2730 0.7398 0.6132
H13_45 H 0.2332 0.7175 0.6457
H14_45 H 0.2856 0.6981 0.6484
N1_46 N 0.9021(2) 0.8696(2) 0.2385(2)
C1_46 C 0.9231(3) 0.8621(3) 0.3146(3)
H1_46 H 0.9407 0.8557 0.3421
C2_46 C 0.9375(3) 0.8537(3) 0.2696(3)
H2_46 H 0.9662 0.8396 0.2607
C3_46 C 0.8679(2) 0.8857(2) 0.2667(2)
C4_46 C 0.8218(3) 0.9073(4) 0.2487(3)
H3_46 H 0.8088 0.9286 0.2727
H4_46 H 0.8281 0.9259 0.2202
C5_46 C 0.7892(10) 0.8724(10) 0.2385(10)
H5_46 H 0.7602 0.8868 0.2270
H6_46 H 0.7825 0.8543 0.2668
H7_46 H 0.8019 0.8516 0.2144
N5_46 N 0.68671(19) 0.8779(2) 0.3818(2)
C6_46 C 0.6854(3) 0.9231(3) 0.3621(3)
H8_46 H 0.6579 0.9407 0.3557
C7_46 C 0.7304(3) 0.9375(3) 0.3537(3)
H9_46 H 0.7393 0.9662 0.3396
C8_46 C 0.7333(2) 0.8679(2) 0.3857(2)
C9_46 C 0.7513(3) 0.8218(3) 0.4073(4)
H10_46 H 0.7273 0.8088 0.4286
H11_46 H 0.7798 0.8281 0.4259
C10_46 C 0.7615(10) 0.7892(10) 0.3724(10)
H12_46 H 0.7730 0.7602 0.3868
H13_46 H 0.7332 0.7825 0.3543
H14_46 H 0.7856 0.8019 0.3516
N1_47 N 0.5979(2) 0.1304(2) 0.7385(2)
C1_47 C 0.5769(3) 0.1379(3) 0.8146(3)
H1_47 H 0.5593 0.1443 0.8421
C2_47 C 0.5625(3) 0.1463(3) 0.7696(3)
H2_47 H 0.5338 0.1604 0.7607
C3_47 C 0.6321(2) 0.1143(2) 0.7667(2)
C4_47 C 0.6782(3) 0.0927(4) 0.7487(3)
H3_47 H 0.6912 0.0714 0.7727
H4_47 H 0.6719 0.0741 0.7202
C5_47 C 0.7108(10) 0.1276(10) 0.7385(10)
H5_47 H 0.7398 0.1132 0.7270
H6_47 H 0.7175 0.1457 0.7668
H7_47 H 0.6981 0.1484 0.7144
N5_47 N 0.81329(19) 0.1221(2) 0.8818(2)
C6_47 C 0.8146(3) 0.0769(3) 0.8621(3)
H8_47 H 0.8421 0.0593 0.8557
C7_47 C 0.7696(3) 0.0625(3) 0.8537(3)
H9_47 H 0.7607 0.0338 0.8396
C8_47 C 0.7667(2) 0.1321(2) 0.8857(2)
C9_47 C 0.7487(3) 0.1782(3) 0.9073(4)
H10_47 H 0.7727 0.1912 0.9286
H11_47 H 0.7202 0.1719 0.9259
C10_47 C 0.7385(10) 0.2108(10) 0.8724(10)
H12_47 H 0.7270 0.2398 0.8868
H13_47 H 0.7668 0.2175 0.8543
H14_47 H 0.7144 0.1981 0.8516
N1_48 N 0.0979(2) 0.3696(2) 0.2615(2)
C1_48 C 0.0769(3) 0.3621(3) 0.1854(3)
H1_48 H 0.0593 0.3557 0.1579
C2_48 C 0.0625(3) 0.3537(3) 0.2304(3)
H2_48 H 0.0338 0.3396 0.2393
C3_48 C 0.1321(2) 0.3857(2) 0.2333(2)
C4_48 C 0.1782(3) 0.4073(4) 0.2513(3)
H3_48 H 0.1912 0.4286 0.2273
H4_48 H 0.1719 0.4259 0.2798
C5_48 C 0.2108(10) 0.3724(10) 0.2615(10)
H5_48 H 0.2398 0.3868 0.2730
H6_48 H 0.2175 0.3543 0.2332
H7_48 H 0.1981 0.3516 0.2856
N5_48 N 0.31329(19) 0.3779(2) 0.1182(2)
C6_48 C 0.3146(3) 0.4231(3) 0.1379(3)
H8_48 H 0.3421 0.4407 0.1443
C7_48 C 0.2696(3) 0.4375(3) 0.1463(3)
H9_48 H 0.2607 0.4662 0.1604
C8_48 C 0.2667(2) 0.3679(2) 0.1143(2)
C9_48 C 0.2487(3) 0.3218(3) 0.0927(4)
H10_48 H 0.2727 0.3088 0.0714
H11_48 H 0.2202 0.3281 0.0741
C10_48 C 0.2385(10) 0.2892(10) 0.1276(10)
H12_48 H 0.2270 0.2602 0.1132
H13_48 H 0.2668 0.2825 0.1457
H14_48 H 0.2144 0.3019 0.1484
loop_
_geom_bond_atom_site_label_1
_geom_bond_atom_site_label_2
_geom_bond_site_symmetry_1
_geom_bond_site_symmetry_2
Cd1 N2 1_555 1_555
N2 C1 1_555 1_555
C1 H1 1_555 1_555
C2 C1 1_555 1_555
H2 C2 1_555 1_555
N3 Cd1 1_555 1_555
N4 Cd1 1_555 1_555
N6 Cd1 1_555 1_555
H11 C9 1_555 1_555
C10 C9 1_555 1_555
H12 C10 1_555 1_555
H14 C10 1_555 1_555
N2 C3 1_555 1_555
Cd3 N5 1_555 1_555
N5 C6 1_555 1_555
C6 H8 1_555 1_555
H9 C7 1_555 1_555
N5 C8 1_555 1_555
C6 C7 1_555 1_555
H4 C4 1_555 1_555
C5 C4 1_555 1_555
H5 C5 1_555 1_555
H7 C5 1_555 1_555
Cd2 N1 1_555 1_555
Cd1_2 N2_2 1_555 1_555
N1_2 C2_2 1_555 1_555
N2_2 C1_2 1_555 1_555
C1_2 H1_2 1_555 1_555
C2_2 C1_2 1_555 1_555
H2_2 C2_2 1_555 1_555
C3_2 N1_2 1_555 1_555
C4_2 C3_2 1_555 1_555
H3_2 C4_2 1_555 1_555
H4_2 C4_2 1_555 1_555
C5_2 C4_2 1_555 1_555
H5_2 C5_2 1_555 1_555
H6_2 C5_2 1_555 1_555
H7_2 C5_2 1_555 1_555
Cd2_2 N1_2 1_555 1_555
Cd3_2 N5_2 1_555 1_555
N3_2 Cd1_2 1_555 1_555
N4_2 Cd1_2 1_555 1_555
N5_2 C6_2 1_555 1_555
N6_2 Cd1_2 1_555 1_555
C6_2 H8_2 1_555 1_555
C7_2 N3_2 1_555 1_555
H9_2 C7_2 1_555 1_555
C8_2 N3_2 1_555 1_555
C9_2 C8_2 1_555 1_555
H10_2 C9_2 1_555 1_555
H11_2 C9_2 1_555 1_555
C10_2 C9_2 1_555 1_555
H12_2 C10_2 1_555 1_555
H13_2 C10_2 1_555 1_555
H14_2 C10_2 1_555 1_555
N2_2 C3_2 1_555 1_555
N5_2 C8_2 1_555 1_555
C6_2 C7_2 1_555 1_555
H4_3 C4_3 1_555 1_555
C5_3 C4_3 1_555 1_555
H5_3 C5_3 1_555 1_555
H7_3 C5_3 1_555 1_555
Cd2_3 N1_3 1_555 1_555
Cd1_3 N2_3 1_555 1_555
N2_3 C1_3 1_555 1_555
C1_3 H1_3 1_555 1_555
C2_3 C1_3 1_555 1_555
H2_3 C2_3 1_555 1_555
Cd3_3 N5_3 1_555 1_555
N3_3 Cd1_3 1_555 1_555
N4_3 Cd1_3 1_555 1_555
N5_3 C6_3 1_555 1_555
N6_3 Cd1_3 1_555 1_555
C6_3 H8_3 1_555 1_555
C7_3 N3_3 1_555 1_555
H9_3 C7_3 1_555 1_555
C8_3 N3_3 1_555 1_555
C9_3 C8_3 1_555 1_555
H10_3 C9_3 1_555 1_555
H11_3 C9_3 1_555 1_555
C10_3 C9_3 1_555 1_555
H12_3 C10_3 1_555 1_555
H13_3 C10_3 1_555 1_555
H14_3 C10_3 1_555 1_555
N2_3 C3_3 1_555 1_555
N5_3 C8_3 1_555 1_555
C6_3 C7_3 1_555 1_555
Cd3_4 N5_4 1_555 1_555
N5_4 C6_4 1_555 1_555
C6_4 H8_4 1_555 1_555
H9_4 C7_4 1_555 1_555
N5_4 C8_4 1_555 1_555
C6_4 C7_4 1_555 1_555
Cd1_4 N2_4 1_555 1_555
N1_4 C2_4 1_555 1_555
N2_4 C1_4 1_555 1_555
C1_4 H1_4 1_555 1_555
C2_4 C1_4 1_555 1_555
H2_4 C2_4 1_555 1_555
C3_4 N1_4 1_555 1_555
C4_4 C3_4 1_555 1_555
H3_4 C4_4 1_555 1_555
H4_4 C4_4 1_555 1_555
C5_4 C4_4 1_555 1_555
H5_4 C5_4 1_555 1_555
H6_4 C5_4 1_555 1_555
H7_4 C5_4 1_555 1_555
Cd2_4 N1_4 1_555 1_555
N3_4 Cd1_4 1_555 1_555
N4_4 Cd1_4 1_555 1_555
N6_4 Cd1_4 1_555 1_555
H11_4 C9_4 1_555 1_555
C10_4 C9_4 1_555 1_555
H12_4 C10_4 1_555 1_555
H14_4 C10_4 1_555 1_555
N2_4 C3_4 1_555 1_555
Cd1_5 N2_5 1_555 1_555
N2_5 C1_5 1_555 1_555
C1_5 H1_5 1_555 1_555
C2_5 C1_5 1_555 1_555
H2_5 C2_5 1_555 1_555
N3_5 Cd1_5 1_555 1_555
N4_5 Cd1_5 1_555 1_555
N6_5 Cd1_5 1_555 1_555
H11_5 C9_5 1_555 1_555
C10_5 C9_5 1_555 1_555
H12_5 C10_5 1_555 1_555
H14_5 C10_5 1_555 1_555
N2_5 C3_5 1_555 1_555
H4_5 C4_5 1_555 1_555
C5_5 C4_5 1_555 1_555
H5_5 C5_5 1_555 1_555
H7_5 C5_5 1_555 1_555
Cd3 N1_5 1_555 1_555
Cd3_5 N5_5 1_555 1_555
N5_5 C6_5 1_555 1_555
C6_5 H8_5 1_555 1_555
H9_5 C7_5 1_555 1_555
N5_5 C8_5 1_555 1_555
C6_5 C7_5 1_555 1_555
Cd1_6 N2_6 1_555 1_555
N1_6 C2_6 1_555 1_555
N2_6 C1_6 1_555 1_555
C1_6 H1_6 1_555 1_555
C2_6 C1_6 1_555 1_555
H2_6 C2_6 1_555 1_555
C3_6 N1_6 1_555 1_555
C4_6 C3_6 1_555 1_555
H3_6 C4_6 1_555 1_555
H4_6 C4_6 1_555 1_555
C5_6 C4_6 1_555 1_555
H5_6 C5_6 1_555 1_555
H6_6 C5_6 1_555 1_555
H7_6 C5_6 1_555 1_555
Cd3_4 N1_6 1_555 1_555
Cd3_6 N5_6 1_555 1_555
N3_6 Cd1_6 1_555 1_555
N4_6 Cd1_6 1_555 1_555
N5_6 C6_6 1_555 1_555
N6_6 Cd1_6 1_555 1_555
C6_6 H8_6 1_555 1_555
C7_6 N3_6 1_555 1_555
H9_6 C7_6 1_555 1_555
C8_6 N3_6 1_555 1_555
C9_6 C8_6 1_555 1_555
H10_6 C9_6 1_555 1_555
H11_6 C9_6 1_555 1_555
C10_6 C9_6 1_555 1_555
H12_6 C10_6 1_555 1_555
H13_6 C10_6 1_555 1_555
H14_6 C10_6 1_555 1_555
N2_6 C3_6 1_555 1_555
N5_6 C8_6 1_555 1_555
C6_6 C7_6 1_555 1_555
H4_7 C4_7 1_555 1_555
C5_7 C4_7 1_555 1_555
H5_7 C5_7 1_555 1_555
H7_7 C5_7 1_555 1_555
Cd3_2 N1_7 1_555 1_555
Cd1_7 N2_7 1_555 1_555
N2_7 C1_7 1_555 1_555
C1_7 H1_7 1_555 1_555
C2_7 C1_7 1_555 1_555
H2_7 C2_7 1_555 1_555
Cd3_7 N5_7 1_555 1_555
N3_7 Cd1_7 1_555 1_555
N4_7 Cd1_7 1_555 1_555
N5_7 C6_7 1_555 1_555
N6_7 Cd1_7 1_555 1_555
C6_7 H8_7 1_555 1_555
C7_7 N3_7 1_555 1_555
H9_7 C7_7 1_555 1_555
C8_7 N3_7 1_555 1_555
C9_7 C8_7 1_555 1_555
H10_7 C9_7 1_555 1_555
H11_7 C9_7 1_555 1_555
C10_7 C9_7 1_555 1_555
H12_7 C10_7 1_555 1_555
H13_7 C10_7 1_555 1_555
H14_7 C10_7 1_555 1_555
N2_7 C3_7 1_555 1_555
N5_7 C8_7 1_555 1_555
C6_7 C7_7 1_555 1_555
Cd3_8 N5_8 1_555 1_555
N5_8 C6_8 1_555 1_555
C6_8 H8_8 1_555 1_555
H9_8 C7_8 1_555 1_555
N5_8 C8_8 1_555 1_555
C6_8 C7_8 1_555 1_555
Cd1_8 N2_8 1_555 1_555
N1_8 C2_8 1_555 1_555
N2_8 C1_8 1_555 1_555
C1_8 H1_8 1_555 1_555
C2_8 C1_8 1_555 1_555
H2_8 C2_8 1_555 1_555
C3_8 N1_8 1_555 1_555
C4_8 C3_8 1_555 1_555
H3_8 C4_8 1_555 1_555
H4_8 C4_8 1_555 1_555
C5_8 C4_8 1_555 1_555
H5_8 C5_8 1_555 1_555
H6_8 C5_8 1_555 1_555
H7_8 C5_8 1_555 1_555
Cd3_3 N1_8 1_555 1_555
N3_8 Cd1_8 1_555 1_555
N4_8 Cd1_8 1_555 1_555
N6_8 Cd1_8 1_555 1_555
H11_8 C9_8 1_555 1_555
C10_8 C9_8 1_555 1_555
H12_8 C10_8 1_555 1_555
H14_8 C10_8 1_555 1_555
N2_8 C3_8 1_555 1_555
Cd1_9 N2_9 1_555 1_555
N2_9 C1_9 1_555 1_555
C1_9 H1_9 1_555 1_555
C2_9 C1_9 1_555 1_555
H2_9 C2_9 1_555 1_555
N3_9 Cd1_9 1_555 1_555
N4_9 Cd1_9 1_555 1_555
N6_9 Cd1_9 1_555 1_555
H11_9 C9_9 1_555 1_555
C10_9 C9_9 1_555 1_555
H12_9 C10_9 1_555 1_555
H14_9 C10_9 1_555 1_555
N2_9 C3_9 1_555 1_555
H4_9 C4_9 1_555 1_555
C5_9 C4_9 1_555 1_555
H5_9 C5_9 1_555 1_555
H7_9 C5_9 1_555 1_555
Cd3_5 N1_9 1_555 1_555
Cd2 N5_9 1_555 1_555
N5_9 C6_9 1_555 1_555
C6_9 H8_9 1_555 1_555
H9_9 C7_9 1_555 1_555
N5_9 C8_9 1_555 1_555
C6_9 C7_9 1_555 1_555
Cd1_10 N2_10 1_555 1_555
N1_10 C2_10 1_555 1_555
N2_10 C1_10 1_555 1_555
C1_10 H1_10 1_555 1_555
C2_10 C1_10 1_555 1_555
H2_10 C2_10 1_555 1_555
C3_10 N1_10 1_555 1_555
C4_10 C3_10 1_555 1_555
H3_10 C4_10 1_555 1_555
H4_10 C4_10 1_555 1_555
C5_10 C4_10 1_555 1_555
H5_10 C5_10 1_555 1_555
H6_10 C5_10 1_555 1_555
H7_10 C5_10 1_555 1_555
Cd3_8 N1_10 1_555 1_555
Cd2_3 N5_10 1_555 1_555
N3_10 Cd1_10 1_555 1_555
N4_10 Cd1_10 1_555 1_555
N5_10 C6_10 1_555 1_555
N6_10 Cd1_10 1_555 1_555
C6_10 H8_10 1_555 1_555
C7_10 N3_10 1_555 1_555
H9_10 C7_10 1_555 1_555
C8_10 N3_10 1_555 1_555
C9_10 C8_10 1_555 1_555
H10_10 C9_10 1_555 1_555
H11_10 C9_10 1_555 1_555
C10_10 C9_10 1_555 1_555
H12_10 C10_10 1_555 1_555
H13_10 C10_10 1_555 1_555
H14_10 C10_10 1_555 1_555
N2_10 C3_10 1_555 1_555
N5_10 C8_10 1_555 1_555
C6_10 C7_10 1_555 1_555
H4_11 C4_11 1_555 1_555
C5_11 C4_11 1_555 1_555
H5_11 C5_11 1_555 1_555
H7_11 C5_11 1_555 1_555
Cd3_6 N1_11 1_555 1_555
Cd1_11 N2_11 1_555 1_555
N2_11 C1_11 1_555 1_555
C1_11 H1_11 1_555 1_555
C2_11 C1_11 1_555 1_555
H2_11 C2_11 1_555 1_555
Cd2_4 N5_11 1_555 1_555
N3_11 Cd1_11 1_555 1_555
N4_11 Cd1_11 1_555 1_555
N5_11 C6_11 1_555 1_555
N6_11 Cd1_11 1_555 1_555
C6_11 H8_11 1_555 1_555
C7_11 N3_11 1_555 1_555
H9_11 C7_11 1_555 1_555
C8_11 N3_11 1_555 1_555
C9_11 C8_11 1_555 1_555
H10_11 C9_11 1_555 1_555
H11_11 C9_11 1_555 1_555
C10_11 C9_11 1_555 1_555
H12_11 C10_11 1_555 1_555
H13_11 C10_11 1_555 1_555
H14_11 C10_11 1_555 1_555
N2_11 C3_11 1_555 1_555
N5_11 C8_11 1_555 1_555
C6_11 C7_11 1_555 1_555
Cd2_2 N5_12 1_555 1_555
N5_12 C6_12 1_555 1_555
C6_12 H8_12 1_555 1_555
H9_12 C7_12 1_555 1_555
N5_12 C8_12 1_555 1_555
C6_12 C7_12 1_555 1_555
Cd1_12 N2_12 1_555 1_555
N1_12 C2_12 1_555 1_555
N2_12 C1_12 1_555 1_555
C1_12 H1_12 1_555 1_555
C2_12 C1_12 1_555 1_555
H2_12 C2_12 1_555 1_555
C3_12 N1_12 1_555 1_555
C4_12 C3_12 1_555 1_555
H3_12 C4_12 1_555 1_555
H4_12 C4_12 1_555 1_555
C5_12 C4_12 1_555 1_555
H5_12 C5_12 1_555 1_555
H6_12 C5_12 1_555 1_555
H7_12 C5_12 1_555 1_555
Cd3_7 N1_12 1_555 1_555
N3_12 Cd1_12 1_555 1_555
N4_12 Cd1_12 1_555 1_555
N6_12 Cd1_12 1_555 1_555
H11_12 C9_12 1_555 1_555
C10_12 C9_12 1_555 1_555
H12_12 C10_12 1_555 1_555
H14_12 C10_12 1_555 1_555
N2_12 C3_12 1_555 1_555
N1_13 C2_13 1_555 1_555
N6_6 C1_13 1_555 1_555
C1_13 H1_13 1_555 1_555
C2_13 C1_13 1_555 1_555
H2_13 C2_13 1_555 1_555
C3_13 N1_13 1_555 1_555
C4_13 C3_13 1_555 1_555
H3_13 C4_13 1_555 1_555
H4_13 C4_13 1_555 1_555
C5_13 C4_13 1_555 1_555
H5_13 C5_13 1_555 1_555
H6_13 C5_13 1_555 1_555
H7_13 C5_13 1_555 1_555
Cd2_5 N1_13 1_555 1_555
Cd3_9 N5_13 1_555 1_555
N5_13 C6_13 1_555 1_555
C6_13 H8_13 1_555 1_555
C7_13 N4_6 1_555 1_555
H9_13 C7_13 1_555 1_555
C8_13 N4_6 1_555 1_555
C9_13 C8_13 1_555 1_555
H10_13 C9_13 1_555 1_555
H11_13 C9_13 1_555 1_555
C10_13 C9_13 1_555 1_555
H12_13 C10_13 1_555 1_555
H13_13 C10_13 1_555 1_555
H14_13 C10_13 1_555 1_555
N6_6 C3_13 1_555 1_555
N5_13 C8_13 1_555 1_555
C6_13 C7_13 1_555 1_555
N1_14 C2_14 1_555 1_555
N6_8 C1_14 1_555 1_555
C1_14 H1_14 1_555 1_555
C2_14 C1_14 1_555 1_555
H2_14 C2_14 1_555 1_555
C3_14 N1_14 1_555 1_555
C4_14 C3_14 1_555 1_555
H3_14 C4_14 1_555 1_555
H4_14 C4_14 1_555 1_555
C5_14 C4_14 1_555 1_555
H5_14 C5_14 1_555 1_555
H6_14 C5_14 1_555 1_555
H7_14 C5_14 1_555 1_555
Cd2_6 N1_14 1_555 1_555
Cd3_10 N5_14 1_555 1_555
N5_14 C6_14 1_555 1_555
C6_14 H8_14 1_555 1_555
C7_14 N4_8 1_555 1_555
H9_14 C7_14 1_555 1_555
C8_14 N4_8 1_555 1_555
C9_14 C8_14 1_555 1_555
H10_14 C9_14 1_555 1_555
H11_14 C9_14 1_555 1_555
C10_14 C9_14 1_555 1_555
H12_14 C10_14 1_555 1_555
H13_14 C10_14 1_555 1_555
H14_14 C10_14 1_555 1_555
N6_8 C3_14 1_555 1_555
N5_14 C8_14 1_555 1_555
C6_14 C7_14 1_555 1_555
N1_15 C2_15 1_555 1_555
N6_5 C1_15 1_555 1_555
C1_15 H1_15 1_555 1_555
C2_15 C1_15 1_555 1_555
H2_15 C2_15 1_555 1_555
C3_15 N1_15 1_555 1_555
C4_15 C3_15 1_555 1_555
H3_15 C4_15 1_555 1_555
H4_15 C4_15 1_555 1_555
C5_15 C4_15 1_555 1_555
H5_15 C5_15 1_555 1_555
H6_15 C5_15 1_555 1_555
H7_15 C5_15 1_555 1_555
Cd2_7 N1_15 1_555 1_555
Cd3_11 N5_15 1_555 1_555
N5_15 C6_15 1_555 1_555
C6_15 H8_15 1_555 1_555
C7_15 N4_5 1_555 1_555
H9_15 C7_15 1_555 1_555
C8_15 N4_5 1_555 1_555
C9_15 C8_15 1_555 1_555
H10_15 C9_15 1_555 1_555
H11_15 C9_15 1_555 1_555
C10_15 C9_15 1_555 1_555
H12_15 C10_15 1_555 1_555
H13_15 C10_15 1_555 1_555
H14_15 C10_15 1_555 1_555
N6_5 C3_15 1_555 1_555
N5_15 C8_15 1_555 1_555
C6_15 C7_15 1_555 1_555
N1_16 C2_16 1_555 1_555
N6_7 C1_16 1_555 1_555
C1_16 H1_16 1_555 1_555
C2_16 C1_16 1_555 1_555
H2_16 C2_16 1_555 1_555
C3_16 N1_16 1_555 1_555
C4_16 C3_16 1_555 1_555
H3_16 C4_16 1_555 1_555
H4_16 C4_16 1_555 1_555
C5_16 C4_16 1_555 1_555
H5_16 C5_16 1_555 1_555
H6_16 C5_16 1_555 1_555
H7_16 C5_16 1_555 1_555
Cd2_8 N1_16 1_555 1_555
Cd3_12 N5_16 1_555 1_555
N5_16 C6_16 1_555 1_555
C6_16 H8_16 1_555 1_555
C7_16 N4_7 1_555 1_555
H9_16 C7_16 1_555 1_555
C8_16 N4_7 1_555 1_555
C9_16 C8_16 1_555 1_555
H10_16 C9_16 1_555 1_555
H11_16 C9_16 1_555 1_555
C10_16 C9_16 1_555 1_555
H12_16 C10_16 1_555 1_555
H13_16 C10_16 1_555 1_555
H14_16 C10_16 1_555 1_555
N6_7 C3_16 1_555 1_555
N5_16 C8_16 1_555 1_555
C6_16 C7_16 1_555 1_555
N1_17 C2_17 1_555 1_555
N6_3 C1_17 1_555 1_555
C1_17 H1_17 1_555 1_555
C2_17 C1_17 1_555 1_555
H2_17 C2_17 1_555 1_555
C3_17 N1_17 1_555 1_555
C4_17 C3_17 1_555 1_555
H3_17 C4_17 1_555 1_555
H4_17 C4_17 1_555 1_555
C5_17 C4_17 1_555 1_555
H5_17 C5_17 1_555 1_555
H6_17 C5_17 1_555 1_555
H7_17 C5_17 1_555 1_555
Cd3_9 N1_17 1_555 1_555
Cd3_13 N5_17 1_555 1_555
N5_17 C6_17 1_555 1_555
C6_17 H8_17 1_555 1_555
C7_17 N4_3 1_555 1_555
H9_17 C7_17 1_555 1_555
C8_17 N4_3 1_555 1_555
C9_17 C8_17 1_555 1_555
H10_17 C9_17 1_555 1_555
H11_17 C9_17 1_555 1_555
C10_17 C9_17 1_555 1_555
H12_17 C10_17 1_555 1_555
H13_17 C10_17 1_555 1_555
H14_17 C10_17 1_555 1_555
N6_3 C3_17 1_555 1_555
N5_17 C8_17 1_555 1_555
C6_17 C7_17 1_555 1_555
N1_18 C2_18 1_555 1_555
N6 C1_18 1_555 1_555
C1_18 H1_18 1_555 1_555
C2_18 C1_18 1_555 1_555
H2_18 C2_18 1_555 1_555
C3_18 N1_18 1_555 1_555
C4_18 C3_18 1_555 1_555
H3_18 C4_18 1_555 1_555
H4_18 C4_18 1_555 1_555
C5_18 C4_18 1_555 1_555
H5_18 C5_18 1_555 1_555
H6_18 C5_18 1_555 1_555
H7_18 C5_18 1_555 1_555
Cd3_12 N1_18 1_555 1_555
Cd3_14 N5_18 1_555 1_555
N5_18 C6_18 1_555 1_555
C6_18 H8_18 1_555 1_555
C7_18 N4 1_555 1_555
H9_18 C7_18 1_555 1_555
C8_18 N4 1_555 1_555
C9_18 C8_18 1_555 1_555
H10_18 C9_18 1_555 1_555
H11_18 C9_18 1_555 1_555
C10_18 C9_18 1_555 1_555
H12_18 C10_18 1_555 1_555
H13_18 C10_18 1_555 1_555
H14_18 C10_18 1_555 1_555
N6 C3_18 1_555 1_555
N5_18 C8_18 1_555 1_555
C6_18 C7_18 1_555 1_555
N1_19 C2_19 1_555 1_555
N6_4 C1_19 1_555 1_555
C1_19 H1_19 1_555 1_555
C2_19 C1_19 1_555 1_555
H2_19 C2_19 1_555 1_555
C3_19 N1_19 1_555 1_555
C4_19 C3_19 1_555 1_555
H3_19 C4_19 1_555 1_555
H4_19 C4_19 1_555 1_555
C5_19 C4_19 1_555 1_555
H5_19 C5_19 1_555 1_555
H6_19 C5_19 1_555 1_555
H7_19 C5_19 1_555 1_555
Cd3_10 N1_19 1_555 1_555
Cd3_15 N5_19 1_555 1_555
N5_19 C6_19 1_555 1_555
C6_19 H8_19 1_555 1_555
C7_19 N4_4 1_555 1_555
H9_19 C7_19 1_555 1_555
C8_19 N4_4 1_555 1_555
C9_19 C8_19 1_555 1_555
H10_19 C9_19 1_555 1_555
H11_19 C9_19 1_555 1_555
C10_19 C9_19 1_555 1_555
H12_19 C10_19 1_555 1_555
H13_19 C10_19 1_555 1_555
H14_19 C10_19 1_555 1_555
N6_4 C3_19 1_555 1_555
N5_19 C8_19 1_555 1_555
C6_19 C7_19 1_555 1_555
N1_20 C2_20 1_555 1_555
N6_2 C1_20 1_555 1_555
C1_20 H1_20 1_555 1_555
C2_20 C1_20 1_555 1_555
H2_20 C2_20 1_555 1_555
C3_20 N1_20 1_555 1_555
C4_20 C3_20 1_555 1_555
H3_20 C4_20 1_555 1_555
H4_20 C4_20 1_555 1_555
C5_20 C4_20 1_555 1_555
H5_20 C5_20 1_555 1_555
H6_20 C5_20 1_555 1_555
H7_20 C5_20 1_555 1_555
Cd3_11 N1_20 1_555 1_555
Cd3_16 N5_20 1_555 1_555
N5_20 C6_20 1_555 1_555
C6_20 H8_20 1_555 1_555
C7_20 N4_2 1_555 1_555
H9_20 C7_20 1_555 1_555
C8_20 N4_2 1_555 1_555
C9_20 C8_20 1_555 1_555
H10_20 C9_20 1_555 1_555
H11_20 C9_20 1_555 1_555
C10_20 C9_20 1_555 1_555
H12_20 C10_20 1_555 1_555
H13_20 C10_20 1_555 1_555
H14_20 C10_20 1_555 1_555
N6_2 C3_20 1_555 1_555
N5_20 C8_20 1_555 1_555
C6_20 C7_20 1_555 1_555
N1_21 C2_21 1_555 1_555
N6_9 C1_21 1_555 1_555
C1_21 H1_21 1_555 1_555
C2_21 C1_21 1_555 1_555
H2_21 C2_21 1_555 1_555
C3_21 N1_21 1_555 1_555
C4_21 C3_21 1_555 1_555
H3_21 C4_21 1_555 1_555
H4_21 C4_21 1_555 1_555
C5_21 C4_21 1_555 1_555
H5_21 C5_21 1_555 1_555
H6_21 C5_21 1_555 1_555
H7_21 C5_21 1_555 1_555
Cd3_13 N1_21 1_555 1_555
Cd2_5 N5_21 1_555 1_555
N5_21 C6_21 1_555 1_555
C6_21 H8_21 1_555 1_555
C7_21 N4_9 1_555 1_555
H9_21 C7_21 1_555 1_555
C8_21 N4_9 1_555 1_555
C9_21 C8_21 1_555 1_555
H10_21 C9_21 1_555 1_555
H11_21 C9_21 1_555 1_555
C10_21 C9_21 1_555 1_555
H12_21 C10_21 1_555 1_555
H13_21 C10_21 1_555 1_555
H14_21 C10_21 1_555 1_555
N6_9 C3_21 1_555 1_555
N5_21 C8_21 1_555 1_555
C6_21 C7_21 1_555 1_555
N1_22 C2_22 1_555 1_555
N6_11 C1_22 1_555 1_555
C1_22 H1_22 1_555 1_555
C2_22 C1_22 1_555 1_555
H2_22 C2_22 1_555 1_555
C3_22 N1_22 1_555 1_555
C4_22 C3_22 1_555 1_555
H3_22 C4_22 1_555 1_555
H4_22 C4_22 1_555 1_555
C5_22 C4_22 1_555 1_555
H5_22 C5_22 1_555 1_555
H6_22 C5_22 1_555 1_555
H7_22 C5_22 1_555 1_555
Cd3_16 N1_22 1_555 1_555
Cd2_7 N5_22 1_555 1_555
N5_22 C6_22 1_555 1_555
C6_22 H8_22 1_555 1_555
C7_22 N4_11 1_555 1_555
H9_22 C7_22 1_555 1_555
C8_22 N4_11 1_555 1_555
C9_22 C8_22 1_555 1_555
H10_22 C9_22 1_555 1_555
H11_22 C9_22 1_555 1_555
C10_22 C9_22 1_555 1_555
H12_22 C10_22 1_555 1_555
H13_22 C10_22 1_555 1_555
H14_22 C10_22 1_555 1_555
N6_11 C3_22 1_555 1_555
N5_22 C8_22 1_555 1_555
C6_22 C7_22 1_555 1_555
N1_23 C2_23 1_555 1_555
N6_10 C1_23 1_555 1_555
C1_23 H1_23 1_555 1_555
C2_23 C1_23 1_555 1_555
H2_23 C2_23 1_555 1_555
C3_23 N1_23 1_555 1_555
C4_23 C3_23 1_555 1_555
H3_23 C4_23 1_555 1_555
H4_23 C4_23 1_555 1_555
C5_23 C4_23 1_555 1_555
H5_23 C5_23 1_555 1_555
H6_23 C5_23 1_555 1_555
H7_23 C5_23 1_555 1_555
Cd3_14 N1_23 1_555 1_555
Cd2_8 N5_23 1_555 1_555
N5_23 C6_23 1_555 1_555
C6_23 H8_23 1_555 1_555
C7_23 N4_10 1_555 1_555
H9_23 C7_23 1_555 1_555
C8_23 N4_10 1_555 1_555
C9_23 C8_23 1_555 1_555
H10_23 C9_23 1_555 1_555
H11_23 C9_23 1_555 1_555
C10_23 C9_23 1_555 1_555
H12_23 C10_23 1_555 1_555
H13_23 C10_23 1_555 1_555
H14_23 C10_23 1_555 1_555
N6_10 C3_23 1_555 1_555
N5_23 C8_23 1_555 1_555
C6_23 C7_23 1_555 1_555
N1_24 C2_24 1_555 1_555
N6_12 C1_24 1_555 1_555
C1_24 H1_24 1_555 1_555
C2_24 C1_24 1_555 1_555
H2_24 C2_24 1_555 1_555
C3_24 N1_24 1_555 1_555
C4_24 C3_24 1_555 1_555
H3_24 C4_24 1_555 1_555
H4_24 C4_24 1_555 1_555
C5_24 C4_24 1_555 1_555
H5_24 C5_24 1_555 1_555
H6_24 C5_24 1_555 1_555
H7_24 C5_24 1_555 1_555
Cd3_15 N1_24 1_555 1_555
Cd2_6 N5_24 1_555 1_555
N5_24 C6_24 1_555 1_555
C6_24 H8_24 1_555 1_555
C7_24 N4_12 1_555 1_555
H9_24 C7_24 1_555 1_555
C8_24 N4_12 1_555 1_555
C9_24 C8_24 1_555 1_555
H10_24 C9_24 1_555 1_555
H11_24 C9_24 1_555 1_555
C10_24 C9_24 1_555 1_555
H12_24 C10_24 1_555 1_555
H13_24 C10_24 1_555 1_555
H14_24 C10_24 1_555 1_555
N6_12 C3_24 1_555 1_555
N5_24 C8_24 1_555 1_555
C6_24 C7_24 1_555 1_555
Cd1_13 N2_13 1_555 1_555
N1_25 C2_25 1_555 1_555
N2_13 C1_25 1_555 1_555
C1_25 H1_25 1_555 1_555
C2_25 C1_25 1_555 1_555
H2_25 C2_25 1_555 1_555
C3_25 N1_25 1_555 1_555
C4_25 C3_25 1_555 1_555
H3_25 C4_25 1_555 1_555
H4_25 C4_25 1_555 1_555
C5_25 C4_25 1_555 1_555
H5_25 C5_25 1_555 1_555
H6_25 C5_25 1_555 1_555
H7_25 C5_25 1_555 1_555
Cd3_16 N1_25 1_555 1_555
Cd3_9 N5_25 1_555 1_555
N3_13 Cd1_13 1_555 1_555
N4_13 Cd1_13 1_555 1_555
N5_25 C6_25 1_555 1_555
N6_13 Cd1_13 1_555 1_555
C6_25 H8_25 1_555 1_555
C7_25 N3_13 1_555 1_555
H9_25 C7_25 1_555 1_555
C8_25 N3_13 1_555 1_555
C9_25 C8_25 1_555 1_555
H10_25 C9_25 1_555 1_555
H11_25 C9_25 1_555 1_555
C10_25 C9_25 1_555 1_555
H12_25 C10_25 1_555 1_555
H13_25 C10_25 1_555 1_555
H14_25 C10_25 1_555 1_555
N2_13 C3_25 1_555 1_555
N5_25 C8_25 1_555 1_555
C6_25 C7_25 1_555 1_555
H4_26 C4_26 1_555 1_555
C5_26 C4_26 1_555 1_555
H5_26 C5_26 1_555 1_555
H7_26 C5_26 1_555 1_555
Cd3_14 N1_26 1_555 1_555
Cd1_14 N2_14 1_555 1_555
N2_14 C1_26 1_555 1_555
C1_26 H1_26 1_555 1_555
C2_26 C1_26 1_555 1_555
H2_26 C2_26 1_555 1_555
N3_14 Cd1_14 1_555 1_555
N4_14 Cd1_14 1_555 1_555
N6_14 Cd1_14 1_555 1_555
H11_26 C9_26 1_555 1_555
C10_26 C9_26 1_555 1_555
H12_26 C10_26 1_555 1_555
H14_26 C10_26 1_555 1_555
N2_14 C3_26 1_555 1_555
Cd3_10 N5_26 1_555 1_555
N5_26 C6_26 1_555 1_555
C6_26 H8_26 1_555 1_555
H9_26 C7_26 1_555 1_555
N5_26 C8_26 1_555 1_555
C6_26 C7_26 1_555 1_555
Cd3_12 N5_27 1_555 1_555
N5_27 C6_27 1_555 1_555
C6_27 H8_27 1_555 1_555
H9_27 C7_27 1_555 1_555
N5_27 C8_27 1_555 1_555
C6_27 C7_27 1_555 1_555
Cd1_15 N2_15 1_555 1_555
N1_27 C2_27 1_555 1_555
N2_15 C1_27 1_555 1_555
C1_27 H1_27 1_555 1_555
C2_27 C1_27 1_555 1_555
H2_27 C2_27 1_555 1_555
C3_27 N1_27 1_555 1_555
C4_27 C3_27 1_555 1_555
H3_27 C4_27 1_555 1_555
H4_27 C4_27 1_555 1_555
C5_27 C4_27 1_555 1_555
H5_27 C5_27 1_555 1_555
H6_27 C5_27 1_555 1_555
H7_27 C5_27 1_555 1_555
Cd3_15 N1_27 1_555 1_555
N3_15 Cd1_15 1_555 1_555
N4_15 Cd1_15 1_555 1_555
N6_15 Cd1_15 1_555 1_555
H11_27 C9_27 1_555 1_555
C10_27 C9_27 1_555 1_555
H12_27 C10_27 1_555 1_555
H14_27 C10_27 1_555 1_555
N2_15 C3_27 1_555 1_555
Cd1_16 N2_16 1_555 1_555
N2_16 C1_28 1_555 1_555
C1_28 H1_28 1_555 1_555
C2_28 C1_28 1_555 1_555
H2_28 C2_28 1_555 1_555
Cd3_11 N5_28 1_555 1_555
N3_16 Cd1_16 1_555 1_555
N4_16 Cd1_16 1_555 1_555
N5_28 C6_28 1_555 1_555
N6_16 Cd1_16 1_555 1_555
C6_28 H8_28 1_555 1_555
C7_28 N3_16 1_555 1_555
H9_28 C7_28 1_555 1_555
C8_28 N3_16 1_555 1_555
C9_28 C8_28 1_555 1_555
H10_28 C9_28 1_555 1_555
H11_28 C9_28 1_555 1_555
C10_28 C9_28 1_555 1_555
H12_28 C10_28 1_555 1_555
H13_28 C10_28 1_555 1_555
H14_28 C10_28 1_555 1_555
N2_16 C3_28 1_555 1_555
N5_28 C8_28 1_555 1_555
C6_28 C7_28 1_555 1_555
H4_28 C4_28 1_555 1_555
C5_28 C4_28 1_555 1_555
H5_28 C5_28 1_555 1_555
H7_28 C5_28 1_555 1_555
Cd3_13 N1_28 1_555 1_555
Cd1_17 N2_17 1_555 1_555
N1_29 C2_29 1_555 1_555
N2_17 C1_29 1_555 1_555
C1_29 H1_29 1_555 1_555
C2_29 C1_29 1_555 1_555
H2_29 C2_29 1_555 1_555
C3_29 N1_29 1_555 1_555
C4_29 C3_29 1_555 1_555
H3_29 C4_29 1_555 1_555
H4_29 C4_29 1_555 1_555
C5_29 C4_29 1_555 1_555
H5_29 C5_29 1_555 1_555
H6_29 C5_29 1_555 1_555
H7_29 C5_29 1_555 1_555
Cd3_9 N1_29 1_555 1_555
Cd2_8 N5_29 1_555 1_555
N3_17 Cd1_17 1_555 1_555
N4_17 Cd1_17 1_555 1_555
N5_29 C6_29 1_555 1_555
N6_17 Cd1_17 1_555 1_555
C6_29 H8_29 1_555 1_555
C7_29 N3_17 1_555 1_555
H9_29 C7_29 1_555 1_555
C8_29 N3_17 1_555 1_555
C9_29 C8_29 1_555 1_555
H10_29 C9_29 1_555 1_555
H11_29 C9_29 1_555 1_555
C10_29 C9_29 1_555 1_555
H12_29 C10_29 1_555 1_555
H13_29 C10_29 1_555 1_555
H14_29 C10_29 1_555 1_555
N2_17 C3_29 1_555 1_555
N5_29 C8_29 1_555 1_555
C6_29 C7_29 1_555 1_555
H4_30 C4_30 1_555 1_555
C5_30 C4_30 1_555 1_555
H5_30 C5_30 1_555 1_555
H7_30 C5_30 1_555 1_555
Cd3_11 N1_30 1_555 1_555
Cd1_18 N2_18 1_555 1_555
N2_18 C1_30 1_555 1_555
C1_30 H1_30 1_555 1_555
C2_30 C1_30 1_555 1_555
H2_30 C2_30 1_555 1_555
N3_18 Cd1_18 1_555 1_555
N4_18 Cd1_18 1_555 1_555
N6_18 Cd1_18 1_555 1_555
H11_30 C9_30 1_555 1_555
C10_30 C9_30 1_555 1_555
H12_30 C10_30 1_555 1_555
H14_30 C10_30 1_555 1_555
N2_18 C3_30 1_555 1_555
Cd2_6 N5_30 1_555 1_555
N5_30 C6_30 1_555 1_555
C6_30 H8_30 1_555 1_555
H9_30 C7_30 1_555 1_555
N5_30 C8_30 1_555 1_555
C6_30 C7_30 1_555 1_555
Cd2_7 N5_31 1_555 1_555
N5_31 C6_31 1_555 1_555
C6_31 H8_31 1_555 1_555
H9_31 C7_31 1_555 1_555
N5_31 C8_31 1_555 1_555
C6_31 C7_31 1_555 1_555
Cd1_19 N2_19 1_555 1_555
N1_31 C2_31 1_555 1_555
N2_19 C1_31 1_555 1_555
C1_31 H1_31 1_555 1_555
C2_31 C1_31 1_555 1_555
H2_31 C2_31 1_555 1_555
C3_31 N1_31 1_555 1_555
C4_31 C3_31 1_555 1_555
H3_31 C4_31 1_555 1_555
H4_31 C4_31 1_555 1_555
C5_31 C4_31 1_555 1_555
H5_31 C5_31 1_555 1_555
H6_31 C5_31 1_555 1_555
H7_31 C5_31 1_555 1_555
Cd3_10 N1_31 1_555 1_555
N3_19 Cd1_19 1_555 1_555
N4_19 Cd1_19 1_555 1_555
N6_19 Cd1_19 1_555 1_555
H11_31 C9_31 1_555 1_555
C10_31 C9_31 1_555 1_555
H12_31 C10_31 1_555 1_555
H14_31 C10_31 1_555 1_555
N2_19 C3_31 1_555 1_555
Cd1_20 N2_20 1_555 1_555
N2_20 C1_32 1_555 1_555
C1_32 H1_32 1_555 1_555
C2_32 C1_32 1_555 1_555
H2_32 C2_32 1_555 1_555
Cd2_5 N5_32 1_555 1_555
N3_20 Cd1_20 1_555 1_555
N4_20 Cd1_20 1_555 1_555
N5_32 C6_32 1_555 1_555
N6_20 Cd1_20 1_555 1_555
C6_32 H8_32 1_555 1_555
C7_32 N3_20 1_555 1_555
H9_32 C7_32 1_555 1_555
C8_32 N3_20 1_555 1_555
C9_32 C8_32 1_555 1_555
H10_32 C9_32 1_555 1_555
H11_32 C9_32 1_555 1_555
C10_32 C9_32 1_555 1_555
H12_32 C10_32 1_555 1_555
H13_32 C10_32 1_555 1_555
H14_32 C10_32 1_555 1_555
N2_20 C3_32 1_555 1_555
N5_32 C8_32 1_555 1_555
C6_32 C7_32 1_555 1_555
H4_32 C4_32 1_555 1_555
C5_32 C4_32 1_555 1_555
H5_32 C5_32 1_555 1_555
H7_32 C5_32 1_555 1_555
Cd3_12 N1_32 1_555 1_555
Cd1_21 N2_21 1_555 1_555
N1_33 C2_33 1_555 1_555
N2_21 C1_33 1_555 1_555
C1_33 H1_33 1_555 1_555
C2_33 C1_33 1_555 1_555
H2_33 C2_33 1_555 1_555
C3_33 N1_33 1_555 1_555
C4_33 C3_33 1_555 1_555
H3_33 C4_33 1_555 1_555
H4_33 C4_33 1_555 1_555
C5_33 C4_33 1_555 1_555
H5_33 C5_33 1_555 1_555
H6_33 C5_33 1_555 1_555
H7_33 C5_33 1_555 1_555
Cd2_8 N1_33 1_555 1_555
Cd3_16 N5_33 1_555 1_555
N3_21 Cd1_21 1_555 1_555
N4_21 Cd1_21 1_555 1_555
N5_33 C6_33 1_555 1_555
N6_21 Cd1_21 1_555 1_555
C6_33 H8_33 1_555 1_555
C7_33 N3_21 1_555 1_555
H9_33 C7_33 1_555 1_555
C8_33 N3_21 1_555 1_555
C9_33 C8_33 1_555 1_555
H10_33 C9_33 1_555 1_555
H11_33 C9_33 1_555 1_555
C10_33 C9_33 1_555 1_555
H12_33 C10_33 1_555 1_555
H13_33 C10_33 1_555 1_555
H14_33 C10_33 1_555 1_555
N2_21 C3_33 1_555 1_555
N5_33 C8_33 1_555 1_555
C6_33 C7_33 1_555 1_555
H4_34 C4_34 1_555 1_555
C5_34 C4_34 1_555 1_555
H5_34 C5_34 1_555 1_555
H7_34 C5_34 1_555 1_555
Cd2_5 N1_34 1_555 1_555
Cd1_22 N2_22 1_555 1_555
N2_22 C1_34 1_555 1_555
C1_34 H1_34 1_555 1_555
C2_34 C1_34 1_555 1_555
H2_34 C2_34 1_555 1_555
N3_22 Cd1_22 1_555 1_555
N4_22 Cd1_22 1_555 1_555
N6_22 Cd1_22 1_555 1_555
H11_34 C9_34 1_555 1_555
C10_34 C9_34 1_555 1_555
H12_34 C10_34 1_555 1_555
H14_34 C10_34 1_555 1_555
N2_22 C3_34 1_555 1_555
Cd3_15 N5_34 1_555 1_555
N5_34 C6_34 1_555 1_555
C6_34 H8_34 1_555 1_555
H9_34 C7_34 1_555 1_555
N5_34 C8_34 1_555 1_555
C6_34 C7_34 1_555 1_555
Cd3_13 N5_35 1_555 1_555
N5_35 C6_35 1_555 1_555
C6_35 H8_35 1_555 1_555
H9_35 C7_35 1_555 1_555
N5_35 C8_35 1_555 1_555
C6_35 C7_35 1_555 1_555
Cd1_23 N2_23 1_555 1_555
N1_35 C2_35 1_555 1_555
N2_23 C1_35 1_555 1_555
C1_35 H1_35 1_555 1_555
C2_35 C1_35 1_555 1_555
H2_35 C2_35 1_555 1_555
C3_35 N1_35 1_555 1_555
C4_35 C3_35 1_555 1_555
H3_35 C4_35 1_555 1_555
H4_35 C4_35 1_555 1_555
C5_35 C4_35 1_555 1_555
H5_35 C5_35 1_555 1_555
H6_35 C5_35 1_555 1_555
H7_35 C5_35 1_555 1_555
Cd2_6 N1_35 1_555 1_555
N3_23 Cd1_23 1_555 1_555
N4_23 Cd1_23 1_555 1_555
N6_23 Cd1_23 1_555 1_555
H11_35 C9_35 1_555 1_555
C10_35 C9_35 1_555 1_555
H12_35 C10_35 1_555 1_555
H14_35 C10_35 1_555 1_555
N2_23 C3_35 1_555 1_555
Cd1_24 N2_24 1_555 1_555
N2_24 C1_36 1_555 1_555
C1_36 H1_36 1_555 1_555
C2_36 C1_36 1_555 1_555
H2_36 C2_36 1_555 1_555
Cd3_14 N5_36 1_555 1_555
N3_24 Cd1_24 1_555 1_555
N4_24 Cd1_24 1_555 1_555
N5_36 C6_36 1_555 1_555
N6_24 Cd1_24 1_555 1_555
C6_36 H8_36 1_555 1_555
C7_36 N3_24 1_555 1_555
H9_36 C7_36 1_555 1_555
C8_36 N3_24 1_555 1_555
C9_36 C8_36 1_555 1_555
H10_36 C9_36 1_555 1_555
H11_36 C9_36 1_555 1_555
C10_36 C9_36 1_555 1_555
H12_36 C10_36 1_555 1_555
H13_36 C10_36 1_555 1_555
H14_36 C10_36 1_555 1_555
N2_24 C3_36 1_555 1_555
N5_36 C8_36 1_555 1_555
C6_36 C7_36 1_555 1_555
H4_36 C4_36 1_555 1_555
C5_36 C4_36 1_555 1_555
H5_36 C5_36 1_555 1_555
H7_36 C5_36 1_555 1_555
Cd2_7 N1_36 1_555 1_555
N1_37 C2_37 1_555 1_555
N6_18 C1_37 1_555 1_555
C1_37 H1_37 1_555 1_555
C2_37 C1_37 1_555 1_555
H2_37 C2_37 1_555 1_555
C3_37 N1_37 1_555 1_555
C4_37 C3_37 1_555 1_555
H3_37 C4_37 1_555 1_555
H4_37 C4_37 1_555 1_555
C5_37 C4_37 1_555 1_555
H5_37 C5_37 1_555 1_555
H6_37 C5_37 1_555 1_555
H7_37 C5_37 1_555 1_555
Cd3_8 N1_37 1_555 1_555
Cd3 N5_37 1_555 1_555
N5_37 C6_37 1_555 1_555
C6_37 H8_37 1_555 1_555
C7_37 N4_18 1_555 1_555
H9_37 C7_37 1_555 1_555
C8_37 N4_18 1_555 1_555
C9_37 C8_37 1_555 1_555
H10_37 C9_37 1_555 1_555
H11_37 C9_37 1_555 1_555
C10_37 C9_37 1_555 1_555
H12_37 C10_37 1_555 1_555
H13_37 C10_37 1_555 1_555
H14_37 C10_37 1_555 1_555
N6_18 C3_37 1_555 1_555
N5_37 C8_37 1_555 1_555
C6_37 C7_37 1_555 1_555
N1_38 C2_38 1_555 1_555
N6_20 C1_38 1_555 1_555
C1_38 H1_38 1_555 1_555
C2_38 C1_38 1_555 1_555
H2_38 C2_38 1_555 1_555
C3_38 N1_38 1_555 1_555
C4_38 C3_38 1_555 1_555
H3_38 C4_38 1_555 1_555
H4_38 C4_38 1_555 1_555
C5_38 C4_38 1_555 1_555
H5_38 C5_38 1_555 1_555
H6_38 C5_38 1_555 1_555
H7_38 C5_38 1_555 1_555
Cd3_6 N1_38 1_555 1_555
Cd3_2 N5_38 1_555 1_555
N5_38 C6_38 1_555 1_555
C6_38 H8_38 1_555 1_555
C7_38 N4_20 1_555 1_555
H9_38 C7_38 1_555 1_555
C8_38 N4_20 1_555 1_555
C9_38 C8_38 1_555 1_555
H10_38 C9_38 1_555 1_555
H11_38 C9_38 1_555 1_555
C10_38 C9_38 1_555 1_555
H12_38 C10_38 1_555 1_555
H13_38 C10_38 1_555 1_555
H14_38 C10_38 1_555 1_555
N6_20 C3_38 1_555 1_555
N5_38 C8_38 1_555 1_555
C6_38 C7_38 1_555 1_555
N1_39 C2_39 1_555 1_555
N6_17 C1_39 1_555 1_555
C1_39 H1_39 1_555 1_555
C2_39 C1_39 1_555 1_555
H2_39 C2_39 1_555 1_555
C3_39 N1_39 1_555 1_555
C4_39 C3_39 1_555 1_555
H3_39 C4_39 1_555 1_555
H4_39 C4_39 1_555 1_555
C5_39 C4_39 1_555 1_555
H5_39 C5_39 1_555 1_555
H6_39 C5_39 1_555 1_555
H7_39 C5_39 1_555 1_555
Cd3_7 N1_39 1_555 1_555
Cd3_4 N5_39 1_555 1_555
N5_39 C6_39 1_555 1_555
C6_39 H8_39 1_555 1_555
C7_39 N4_17 1_555 1_555
H9_39 C7_39 1_555 1_555
C8_39 N4_17 1_555 1_555
C9_39 C8_39 1_555 1_555
H10_39 C9_39 1_555 1_555
H11_39 C9_39 1_555 1_555
C10_39 C9_39 1_555 1_555
H12_39 C10_39 1_555 1_555
H13_39 C10_39 1_555 1_555
H14_39 C10_39 1_555 1_555
N6_17 C3_39 1_555 1_555
N5_39 C8_39 1_555 1_555
C6_39 C7_39 1_555 1_555
N1_40 C2_40 1_555 1_555
N6_19 C1_40 1_555 1_555
C1_40 H1_40 1_555 1_555
C2_40 C1_40 1_555 1_555
H2_40 C2_40 1_555 1_555
C3_40 N1_40 1_555 1_555
C4_40 C3_40 1_555 1_555
H3_40 C4_40 1_555 1_555
H4_40 C4_40 1_555 1_555
C5_40 C4_40 1_555 1_555
H5_40 C5_40 1_555 1_555
H6_40 C5_40 1_555 1_555
H7_40 C5_40 1_555 1_555
Cd3_5 N1_40 1_555 1_555
Cd3_3 N5_40 1_555 1_555
N5_40 C6_40 1_555 1_555
C6_40 H8_40 1_555 1_555
C7_40 N4_19 1_555 1_555
H9_40 C7_40 1_555 1_555
C8_40 N4_19 1_555 1_555
C9_40 C8_40 1_555 1_555
H10_40 C9_40 1_555 1_555
H11_40 C9_40 1_555 1_555
C10_40 C9_40 1_555 1_555
H12_40 C10_40 1_555 1_555
H13_40 C10_40 1_555 1_555
H14_40 C10_40 1_555 1_555
N6_19 C3_40 1_555 1_555
N5_40 C8_40 1_555 1_555
C6_40 C7_40 1_555 1_555
N1_41 C2_41 1_555 1_555
N6_15 C1_41 1_555 1_555
C1_41 H1_41 1_555 1_555
C2_41 C1_41 1_555 1_555
H2_41 C2_41 1_555 1_555
C3_41 N1_41 1_555 1_555
C4_41 C3_41 1_555 1_555
H3_41 C4_41 1_555 1_555
H4_41 C4_41 1_555 1_555
C5_41 C4_41 1_555 1_555
H5_41 C5_41 1_555 1_555
H6_41 C5_41 1_555 1_555
H7_41 C5_41 1_555 1_555
Cd3 N1_41 1_555 1_555
Cd2_4 N5_41 1_555 1_555
N5_41 C6_41 1_555 1_555
C6_41 H8_41 1_555 1_555
C7_41 N4_15 1_555 1_555
H9_41 C7_41 1_555 1_555
C8_41 N4_15 1_555 1_555
C9_41 C8_41 1_555 1_555
H10_41 C9_41 1_555 1_555
H11_41 C9_41 1_555 1_555
C10_41 C9_41 1_555 1_555
H12_41 C10_41 1_555 1_555
H13_41 C10_41 1_555 1_555
H14_41 C10_41 1_555 1_555
N6_15 C3_41 1_555 1_555
N5_41 C8_41 1_555 1_555
C6_41 C7_41 1_555 1_555
N1_42 C2_42 1_555 1_555
N6_13 C1_42 1_555 1_555
C1_42 H1_42 1_555 1_555
C2_42 C1_42 1_555 1_555
H2_42 C2_42 1_555 1_555
C3_42 N1_42 1_555 1_555
C4_42 C3_42 1_555 1_555
H3_42 C4_42 1_555 1_555
H4_42 C4_42 1_555 1_555
C5_42 C4_42 1_555 1_555
H5_42 C5_42 1_555 1_555
H6_42 C5_42 1_555 1_555
H7_42 C5_42 1_555 1_555
Cd3_3 N1_42 1_555 1_555
Cd2_2 N5_42 1_555 1_555
N5_42 C6_42 1_555 1_555
C6_42 H8_42 1_555 1_555
C7_42 N4_13 1_555 1_555
H9_42 C7_42 1_555 1_555
C8_42 N4_13 1_555 1_555
C9_42 C8_42 1_555 1_555
H10_42 C9_42 1_555 1_555
H11_42 C9_42 1_555 1_555
C10_42 C9_42 1_555 1_555
H12_42 C10_42 1_555 1_555
H13_42 C10_42 1_555 1_555
H14_42 C10_42 1_555 1_555
N6_13 C3_42 1_555 1_555
N5_42 C8_42 1_555 1_555
C6_42 C7_42 1_555 1_555
N1_43 C2_43 1_555 1_555
N6_16 C1_43 1_555 1_555
C1_43 H1_43 1_555 1_555
C2_43 C1_43 1_555 1_555
H2_43 C2_43 1_555 1_555
C3_43 N1_43 1_555 1_555
C4_43 C3_43 1_555 1_555
H3_43 C4_43 1_555 1_555
H4_43 C4_43 1_555 1_555
C5_43 C4_43 1_555 1_555
H5_43 C5_43 1_555 1_555
H6_43 C5_43 1_555 1_555
H7_43 C5_43 1_555 1_555
Cd3_2 N1_43 1_555 1_555
Cd2_3 N5_43 1_555 1_555
N5_43 C6_43 1_555 1_555
C6_43 H8_43 1_555 1_555
C7_43 N4_16 1_555 1_555
H9_43 C7_43 1_555 1_555
C8_43 N4_16 1_555 1_555
C9_43 C8_43 1_555 1_555
H10_43 C9_43 1_555 1_555
H11_43 C9_43 1_555 1_555
C10_43 C9_43 1_555 1_555
H12_43 C10_43 1_555 1_555
H13_43 C10_43 1_555 1_555
H14_43 C10_43 1_555 1_555
N6_16 C3_43 1_555 1_555
N5_43 C8_43 1_555 1_555
C6_43 C7_43 1_555 1_555
N1_44 C2_44 1_555 1_555
N6_14 C1_44 1_555 1_555
C1_44 H1_44 1_555 1_555
C2_44 C1_44 1_555 1_555
H2_44 C2_44 1_555 1_555
C3_44 N1_44 1_555 1_555
C4_44 C3_44 1_555 1_555
H3_44 C4_44 1_555 1_555
H4_44 C4_44 1_555 1_555
C5_44 C4_44 1_555 1_555
H5_44 C5_44 1_555 1_555
H6_44 C5_44 1_555 1_555
H7_44 C5_44 1_555 1_555
Cd3_4 N1_44 1_555 1_555
Cd2 N5_44 1_555 1_555
N5_44 C6_44 1_555 1_555
C6_44 H8_44 1_555 1_555
C7_44 N4_14 1_555 1_555
H9_44 C7_44 1_555 1_555
C8_44 N4_14 1_555 1_555
C9_44 C8_44 1_555 1_555
H10_44 C9_44 1_555 1_555
H11_44 C9_44 1_555 1_555
C10_44 C9_44 1_555 1_555
H12_44 C10_44 1_555 1_555
H13_44 C10_44 1_555 1_555
H14_44 C10_44 1_555 1_555
N6_14 C3_44 1_555 1_555
N5_44 C8_44 1_555 1_555
C6_44 C7_44 1_555 1_555
N1_45 C2_45 1_555 1_555
N6_21 C1_45 1_555 1_555
C1_45 H1_45 1_555 1_555
C2_45 C1_45 1_555 1_555
H2_45 C2_45 1_555 1_555
C3_45 N1_45 1_555 1_555
C4_45 C3_45 1_555 1_555
H3_45 C4_45 1_555 1_555
H4_45 C4_45 1_555 1_555
C5_45 C4_45 1_555 1_555
H5_45 C5_45 1_555 1_555
H6_45 C5_45 1_555 1_555
H7_45 C5_45 1_555 1_555
Cd2_4 N1_45 1_555 1_555
Cd3_8 N5_45 1_555 1_555
N5_45 C6_45 1_555 1_555
C6_45 H8_45 1_555 1_555
C7_45 N4_21 1_555 1_555
H9_45 C7_45 1_555 1_555
C8_45 N4_21 1_555 1_555
C9_45 C8_45 1_555 1_555
H10_45 C9_45 1_555 1_555
H11_45 C9_45 1_555 1_555
C10_45 C9_45 1_555 1_555
H12_45 C10_45 1_555 1_555
H13_45 C10_45 1_555 1_555
H14_45 C10_45 1_555 1_555
N6_21 C3_45 1_555 1_555
N5_45 C8_45 1_555 1_555
C6_45 C7_45 1_555 1_555
N1_46 C2_46 1_555 1_555
N6_23 C1_46 1_555 1_555
C1_46 H1_46 1_555 1_555
C2_46 C1_46 1_555 1_555
H2_46 C2_46 1_555 1_555
C3_46 N1_46 1_555 1_555
C4_46 C3_46 1_555 1_555
H3_46 C4_46 1_555 1_555
H4_46 C4_46 1_555 1_555
C5_46 C4_46 1_555 1_555
H5_46 C5_46 1_555 1_555
H6_46 C5_46 1_555 1_555
H7_46 C5_46 1_555 1_555
Cd2 N1_46 1_555 1_555
Cd3_7 N5_46 1_555 1_555
N5_46 C6_46 1_555 1_555
C6_46 H8_46 1_555 1_555
C7_46 N4_23 1_555 1_555
H9_46 C7_46 1_555 1_555
C8_46 N4_23 1_555 1_555
C9_46 C8_46 1_555 1_555
H10_46 C9_46 1_555 1_555
H11_46 C9_46 1_555 1_555
C10_46 C9_46 1_555 1_555
H12_46 C10_46 1_555 1_555
H13_46 C10_46 1_555 1_555
H14_46 C10_46 1_555 1_555
N6_23 C3_46 1_555 1_555
N5_46 C8_46 1_555 1_555
C6_46 C7_46 1_555 1_555
N1_47 C2_47 1_555 1_555
N6_22 C1_47 1_555 1_555
C1_47 H1_47 1_555 1_555
C2_47 C1_47 1_555 1_555
H2_47 C2_47 1_555 1_555
C3_47 N1_47 1_555 1_555
C4_47 C3_47 1_555 1_555
H3_47 C4_47 1_555 1_555
H4_47 C4_47 1_555 1_555
C5_47 C4_47 1_555 1_555
H5_47 C5_47 1_555 1_555
H6_47 C5_47 1_555 1_555
H7_47 C5_47 1_555 1_555
Cd2_2 N1_47 1_555 1_555
Cd3_5 N5_47 1_555 1_555
N5_47 C6_47 1_555 1_555
C6_47 H8_47 1_555 1_555
C7_47 N4_22 1_555 1_555
H9_47 C7_47 1_555 1_555
C8_47 N4_22 1_555 1_555
C9_47 C8_47 1_555 1_555
H10_47 C9_47 1_555 1_555
H11_47 C9_47 1_555 1_555
C10_47 C9_47 1_555 1_555
H12_47 C10_47 1_555 1_555
H13_47 C10_47 1_555 1_555
H14_47 C10_47 1_555 1_555
N6_22 C3_47 1_555 1_555
N5_47 C8_47 1_555 1_555
C6_47 C7_47 1_555 1_555
N1_48 C2_48 1_555 1_555
N6_24 C1_48 1_555 1_555
C1_48 H1_48 1_555 1_555
C2_48 C1_48 1_555 1_555
H2_48 C2_48 1_555 1_555
C3_48 N1_48 1_555 1_555
C4_48 C3_48 1_555 1_555
H3_48 C4_48 1_555 1_555
H4_48 C4_48 1_555 1_555
C5_48 C4_48 1_555 1_555
H5_48 C5_48 1_555 1_555
H6_48 C5_48 1_555 1_555
H7_48 C5_48 1_555 1_555
Cd2_3 N1_48 1_555 1_555
Cd3_6 N5_48 1_555 1_555
N5_48 C6_48 1_555 1_555
C6_48 H8_48 1_555 1_555
C7_48 N4_24 1_555 1_555
H9_48 C7_48 1_555 1_555
C8_48 N4_24 1_555 1_555
C9_48 C8_48 1_555 1_555
H10_48 C9_48 1_555 1_555
H11_48 C9_48 1_555 1_555
C10_48 C9_48 1_555 1_555
H12_48 C10_48 1_555 1_555
H13_48 C10_48 1_555 1_555
H14_48 C10_48 1_555 1_555
N6_24 C3_48 1_555 1_555
N5_48 C8_48 1_555 1_555
C6_48 C7_48 1_555 1_555

#END
