
###############################################################################
#
# This file contains modified crystal structure data generated from the
# MOF subset of the Cambridge Structural Database (CSD) v543 
# hosted by the Cambridge Crystallographic Data Centre (CCDC).
#
# This work is licensed under the Creative Commons
# Attribution-NonCommercial-ShareAlike 4.0 International License.
# To view a copy of this license, visit
# http://creativecommons.org/licenses/by-nc-sa/4.0/
# or send a letter to
# Creative Commons, PO Box 1866, Mountain View, CA 94042, USA.
#
# CIF created using the CSD Python API on 29 September 2022
# The structure has been converted into the P1 space group
# The structure has a 3D framework
# The original CSD entry GUPDEB is in the cubic crystal system
# The framework has been calculated to contain at least 10.0% void space
# The void calculation uses a probe of radius 1.32A, grid spacing 0.4
#
###############################################################################

data_GUPDEB
_chemical_formula_moiety         '(C312 H192 Cd24 N312 O192)n'
_symmetry_cell_setting           triclinic
_symmetry_space_group_name_H-M   'P 1'
_symmetry_Int_Tables_number      1
_space_group_name_Hall           'P 1'
loop_
_symmetry_equiv_pos_site_id
_symmetry_equiv_pos_as_xyz
1 x,y,z
_cell_length_a                   30.4997(11)
_cell_length_b                   30.4997(11)
_cell_length_c                   30.4997(11)
_cell_angle_alpha                90
_cell_angle_beta                 90
_cell_angle_gamma                90
_cell_volume                     28371.8
loop_
_atom_site_label
_atom_site_type_symbol
_atom_site_fract_x
_atom_site_fract_y
_atom_site_fract_z
Cd1 Cd 0.39518(2) 0.10482(2) 0.2500
N1 N 0.3943(3) 0.0370(3) 0.2201(4)
N2 N 0.3669(3) 0.1392(3) 0.1915(3)
N3 N 0.3907(4) -0.0000 0.2909(6)
N4 N 0.4105(5) 0.2042(3) 0.2042(3)
O2 O 0.4220(3) 0.2401(3) 0.1901(2)
C1 C 0.3971(4) 0.0239(4) 0.1804(4)
H1 H 0.3989 0.0418 0.1557
C2 C 0.3929(4) -0.0000 0.2453(6)
C3 C 0.3407(4) 0.1262(4) 0.1585(4)
H2 H 0.3252 0.1000 0.1574
C4 C 0.3825(5) 0.1787(4) 0.1787(4)
Cd3 Cd 0.39518(2) 0.2500 0.10482(2)
N6 N 0.4630(3) 0.1057(3) 0.2799(4)
N7 N 0.3669(3) 0.1915(3) 0.1392(3)
N8 N 0.3608(3) 0.1331(3) 0.3085(3)
O3 O 0.3898(3) 0.0351(3) 0.3095(3)
O4 O 0.4220(3) 0.1901(2) 0.2401(3)
C6 C 0.3407(4) 0.1585(4) 0.1262(4)
H4 H 0.3252 0.1574 0.1000
N3_2 N 0.3907(4) 1.0000 0.2909(6)
O1 O 0.3898(3) 0.9649(3) 0.3095(3)
C2_2 C 0.3929(4) 1.0000 0.2453(6)
Cd2 Cd 0.39518(2) 0.89518(2) 0.2500
N5 N 0.3943(3) 0.9630(3) 0.2201(4)
C5 C 0.3971(4) 0.9761(4) 0.1804(4)
H3 H 0.3989 0.9582 0.1557
N3_3 N 0.6093(4) 0.0000 0.2909(6)
O1_2 O 0.6102(3) 0.0351(3) 0.3095(3)
C2_3 C 0.6071(4) 0.0000 0.2453(6)
Cd2_2 Cd 0.60482(2) 0.10482(2) 0.2500
N5_2 N 0.6057(3) 0.0370(3) 0.2201(4)
C5_2 C 0.6029(4) 0.0239(4) 0.1804(4)
H3_2 H 0.6011 0.0418 0.1557
Cd1_2 Cd 0.60482(2) 0.89518(2) 0.2500
N1_2 N 0.6057(3) 0.9630(3) 0.2201(4)
N2_2 N 0.6331(3) 0.8608(3) 0.1915(3)
N3_4 N 0.6093(4) 1.0000 0.2909(6)
N4_2 N 0.5895(5) 0.7958(3) 0.2042(3)
O2_2 O 0.5780(3) 0.7599(3) 0.1901(2)
C1_2 C 0.6029(4) 0.9761(4) 0.1804(4)
H1_2 H 0.6011 0.9582 0.1557
C2_4 C 0.6071(4) 1.0000 0.2453(6)
C3_2 C 0.6593(4) 0.8738(4) 0.1585(4)
H2_2 H 0.6748 0.9000 0.1574
C4_2 C 0.6175(5) 0.8213(4) 0.1787(4)
Cd3_2 Cd 0.60482(2) 0.7500 0.10482(2)
N6_2 N 0.5370(3) 0.8943(3) 0.2799(4)
N7_2 N 0.6331(3) 0.8085(3) 0.1392(3)
N8_2 N 0.6392(3) 0.8669(3) 0.3085(3)
O3_2 O 0.6102(3) 0.9649(3) 0.3095(3)
O4_2 O 0.5780(3) 0.8099(2) 0.2401(3)
C6_2 C 0.6593(4) 0.8415(4) 0.1262(4)
H4_2 H 0.6748 0.8426 0.1000
Cd1_3 Cd 0.60482(2) 0.10482(2) 0.7500
N1_3 N 0.6057(3) 0.0370(3) 0.7799(4)
N2_3 N 0.6331(3) 0.1392(3) 0.8085(3)
N3_5 N 0.6093(4) -0.0000 0.7091(6)
N4_3 N 0.5895(5) 0.2042(3) 0.7958(3)
O2_3 O 0.5780(3) 0.2401(3) 0.8099(2)
C1_3 C 0.6029(4) 0.0239(4) 0.8196(4)
H1_3 H 0.6011 0.0418 0.8443
C2_5 C 0.6071(4) -0.0000 0.7547(6)
C3_3 C 0.6593(4) 0.1262(4) 0.8415(4)
H2_3 H 0.6748 0.1000 0.8426
C4_3 C 0.6175(5) 0.1787(4) 0.8213(4)
Cd3_3 Cd 0.60482(2) 0.2500 0.89518(2)
N6_3 N 0.5370(3) 0.1057(3) 0.7201(4)
N7_3 N 0.6331(3) 0.1915(3) 0.8608(3)
N8_3 N 0.6392(3) 0.1331(3) 0.6915(3)
O3_3 O 0.6102(3) 0.0351(3) 0.6905(3)
O4_3 O 0.5780(3) 0.1901(2) 0.7599(3)
C6_3 C 0.6593(4) 0.1585(4) 0.8738(4)
H4_3 H 0.6748 0.1574 0.9000
N3_6 N 0.6093(4) 1.0000 0.7091(6)
O1_3 O 0.6102(3) 0.9649(3) 0.6905(3)
C2_6 C 0.6071(4) 1.0000 0.7547(6)
Cd2_3 Cd 0.60482(2) 0.89518(2) 0.7500
N5_3 N 0.6057(3) 0.9630(3) 0.7799(4)
C5_3 C 0.6029(4) 0.9761(4) 0.8196(4)
H3_3 H 0.6011 0.9582 0.8443
N3_7 N 0.3907(4) -0.0000 0.7091(6)
O1_4 O 0.3898(3) 0.0351(3) 0.6905(3)
C2_7 C 0.3929(4) -0.0000 0.7547(6)
Cd2_4 Cd 0.39518(2) 0.10482(2) 0.7500
N5_4 N 0.3943(3) 0.0370(3) 0.7799(4)
C5_4 C 0.3971(4) 0.0239(4) 0.8196(4)
H3_4 H 0.3989 0.0418 0.8443
Cd1_4 Cd 0.39518(2) 0.89518(2) 0.7500
N1_4 N 0.3943(3) 0.9630(3) 0.7799(4)
N2_4 N 0.3669(3) 0.8608(3) 0.8085(3)
N3_8 N 0.3907(4) 1.0000 0.7091(6)
N4_4 N 0.4105(5) 0.7958(3) 0.7958(3)
O2_4 O 0.4220(3) 0.7599(3) 0.8099(2)
C1_4 C 0.3971(4) 0.9761(4) 0.8196(4)
H1_4 H 0.3989 0.9582 0.8443
C2_8 C 0.3929(4) 1.0000 0.7547(6)
C3_4 C 0.3407(4) 0.8738(4) 0.8415(4)
H2_4 H 0.3252 0.9000 0.8426
C4_4 C 0.3825(5) 0.8213(4) 0.8213(4)
Cd3_4 Cd 0.39518(2) 0.7500 0.89518(2)
N6_4 N 0.4630(3) 0.8943(3) 0.7201(4)
N7_4 N 0.3669(3) 0.8085(3) 0.8608(3)
N8_4 N 0.3608(3) 0.8669(3) 0.6915(3)
O3_4 O 0.3898(3) 0.9649(3) 0.6905(3)
O4_4 O 0.4220(3) 0.8099(2) 0.7599(3)
C6_4 C 0.3407(4) 0.8415(4) 0.8738(4)
H4_4 H 0.3252 0.8426 0.9000
Cd1_5 Cd 0.2500 0.39518(2) 0.10482(2)
N1_5 N 0.2201(4) 0.3943(3) 0.0370(3)
N2_5 N 0.1915(3) 0.3669(3) 0.1392(3)
N3_9 N 0.2909(6) 0.3907(4) -0.0000
N4_5 N 0.2042(3) 0.4105(5) 0.2042(3)
O2_5 O 0.1901(2) 0.4220(3) 0.2401(3)
C1_5 C 0.1804(4) 0.3971(4) 0.0239(4)
H1_5 H 0.1557 0.3989 0.0418
C2_9 C 0.2453(6) 0.3929(4) -0.0000
C3_5 C 0.1585(4) 0.3407(4) 0.1262(4)
H2_5 H 0.1574 0.3252 0.1000
C4_5 C 0.1787(4) 0.3825(5) 0.1787(4)
Cd3_5 Cd 0.10482(2) 0.39518(2) 0.2500
N6_5 N 0.2799(4) 0.4630(3) 0.1057(3)
N7_5 N 0.1392(3) 0.3669(3) 0.1915(3)
N8_5 N 0.3085(3) 0.3608(3) 0.1331(3)
O3_5 O 0.3095(3) 0.3898(3) 0.0351(3)
O4_5 O 0.2401(3) 0.4220(3) 0.1901(2)
C6_5 C 0.1262(4) 0.3407(4) 0.1585(4)
H4_5 H 0.1000 0.3252 0.1574
N3_10 N 0.2909(6) 0.3907(4) 1.0000
O1_5 O 0.3095(3) 0.3898(3) 0.9649(3)
C2_10 C 0.2453(6) 0.3929(4) 1.0000
Cd2_5 Cd 0.2500 0.39518(2) 0.89518(2)
N5_5 N 0.2201(4) 0.3943(3) 0.9630(3)
C5_5 C 0.1804(4) 0.3971(4) 0.9761(4)
H3_5 H 0.1557 0.3989 0.9582
N3_11 N 0.2909(6) 0.6093(4) 0.0000
O1_6 O 0.3095(3) 0.6102(3) 0.0351(3)
C2_11 C 0.2453(6) 0.6071(4) 0.0000
Cd2_6 Cd 0.2500 0.60482(2) 0.10482(2)
N5_6 N 0.2201(4) 0.6057(3) 0.0370(3)
C5_6 C 0.1804(4) 0.6029(4) 0.0239(4)
H3_6 H 0.1557 0.6011 0.0418
Cd1_6 Cd 0.2500 0.60482(2) 0.89518(2)
N1_6 N 0.2201(4) 0.6057(3) 0.9630(3)
N2_6 N 0.1915(3) 0.6331(3) 0.8608(3)
N3_12 N 0.2909(6) 0.6093(4) 1.0000
N4_6 N 0.2042(3) 0.5895(5) 0.7958(3)
O2_6 O 0.1901(2) 0.5780(3) 0.7599(3)
C1_6 C 0.1804(4) 0.6029(4) 0.9761(4)
H1_6 H 0.1557 0.6011 0.9582
C2_12 C 0.2453(6) 0.6071(4) 1.0000
C3_6 C 0.1585(4) 0.6593(4) 0.8738(4)
H2_6 H 0.1574 0.6748 0.9000
C4_6 C 0.1787(4) 0.6175(5) 0.8213(4)
Cd3_6 Cd 0.10482(2) 0.60482(2) 0.7500
N6_6 N 0.2799(4) 0.5370(3) 0.8943(3)
N7_6 N 0.1392(3) 0.6331(3) 0.8085(3)
N8_6 N 0.3085(3) 0.6392(3) 0.8669(3)
O3_6 O 0.3095(3) 0.6102(3) 0.9649(3)
O4_6 O 0.2401(3) 0.5780(3) 0.8099(2)
C6_6 C 0.1262(4) 0.6593(4) 0.8415(4)
H4_6 H 0.1000 0.6748 0.8426
Cd1_7 Cd 0.7500 0.60482(2) 0.10482(2)
N1_7 N 0.7799(4) 0.6057(3) 0.0370(3)
N2_7 N 0.8085(3) 0.6331(3) 0.1392(3)
N3_13 N 0.7091(6) 0.6093(4) -0.0000
N4_7 N 0.7958(3) 0.5895(5) 0.2042(3)
O2_7 O 0.8099(2) 0.5780(3) 0.2401(3)
C1_7 C 0.8196(4) 0.6029(4) 0.0239(4)
H1_7 H 0.8443 0.6011 0.0418
C2_13 C 0.7547(6) 0.6071(4) -0.0000
C3_7 C 0.8415(4) 0.6593(4) 0.1262(4)
H2_7 H 0.8426 0.6748 0.1000
C4_7 C 0.8213(4) 0.6175(5) 0.1787(4)
Cd3_7 Cd 0.89518(2) 0.60482(2) 0.2500
N6_7 N 0.7201(4) 0.5370(3) 0.1057(3)
N7_7 N 0.8608(3) 0.6331(3) 0.1915(3)
N8_7 N 0.6915(3) 0.6392(3) 0.1331(3)
O3_7 O 0.6905(3) 0.6102(3) 0.0351(3)
O4_7 O 0.7599(3) 0.5780(3) 0.1901(2)
C6_7 C 0.8738(4) 0.6593(4) 0.1585(4)
H4_7 H 0.9000 0.6748 0.1574
N3_14 N 0.7091(6) 0.6093(4) 1.0000
O1_7 O 0.6905(3) 0.6102(3) 0.9649(3)
C2_14 C 0.7547(6) 0.6071(4) 1.0000
Cd2_7 Cd 0.7500 0.60482(2) 0.89518(2)
N5_7 N 0.7799(4) 0.6057(3) 0.9630(3)
C5_7 C 0.8196(4) 0.6029(4) 0.9761(4)
H3_7 H 0.8443 0.6011 0.9582
N3_15 N 0.7091(6) 0.3907(4) 0.0000
O1_8 O 0.6905(3) 0.3898(3) 0.0351(3)
C2_15 C 0.7547(6) 0.3929(4) 0.0000
Cd2_8 Cd 0.7500 0.39518(2) 0.10482(2)
N5_8 N 0.7799(4) 0.3943(3) 0.0370(3)
C5_8 C 0.8196(4) 0.3971(4) 0.0239(4)
H3_8 H 0.8443 0.3989 0.0418
Cd1_8 Cd 0.7500 0.39518(2) 0.89518(2)
N1_8 N 0.7799(4) 0.3943(3) 0.9630(3)
N2_8 N 0.8085(3) 0.3669(3) 0.8608(3)
N3_16 N 0.7091(6) 0.3907(4) 1.0000
N4_8 N 0.7958(3) 0.4105(5) 0.7958(3)
O2_8 O 0.8099(2) 0.4220(3) 0.7599(3)
C1_8 C 0.8196(4) 0.3971(4) 0.9761(4)
H1_8 H 0.8443 0.3989 0.9582
C2_16 C 0.7547(6) 0.3929(4) 1.0000
C3_8 C 0.8415(4) 0.3407(4) 0.8738(4)
H2_8 H 0.8426 0.3252 0.9000
C4_8 C 0.8213(4) 0.3825(5) 0.8213(4)
Cd3_8 Cd 0.89518(2) 0.39518(2) 0.7500
N6_8 N 0.7201(4) 0.4630(3) 0.8943(3)
N7_8 N 0.8608(3) 0.3669(3) 0.8085(3)
N8_8 N 0.6915(3) 0.3608(3) 0.8669(3)
O3_8 O 0.6905(3) 0.3898(3) 0.9649(3)
O4_8 O 0.7599(3) 0.4220(3) 0.8099(2)
C6_8 C 0.8738(4) 0.3407(4) 0.8415(4)
H4_8 H 0.9000 0.3252 0.8426
Cd1_9 Cd 0.10482(2) 0.2500 0.39518(2)
N1_9 N 0.0370(3) 0.2201(4) 0.3943(3)
N2_9 N 0.1392(3) 0.1915(3) 0.3669(3)
N3_17 N -0.0000 0.2909(6) 0.3907(4)
N4_9 N 0.2042(3) 0.2042(3) 0.4105(5)
O2_9 O 0.2401(3) 0.1901(2) 0.4220(3)
C1_9 C 0.0239(4) 0.1804(4) 0.3971(4)
H1_9 H 0.0418 0.1557 0.3989
C2_17 C -0.0000 0.2453(6) 0.3929(4)
C3_9 C 0.1262(4) 0.1585(4) 0.3407(4)
H2_9 H 0.1000 0.1574 0.3252
C4_9 C 0.1787(4) 0.1787(4) 0.3825(5)
Cd3_9 Cd 0.2500 0.10482(2) 0.39518(2)
N6_9 N 0.1057(3) 0.2799(4) 0.4630(3)
N7_9 N 0.1915(3) 0.1392(3) 0.3669(3)
N8_9 N 0.1331(3) 0.3085(3) 0.3608(3)
O3_9 O 0.0351(3) 0.3095(3) 0.3898(3)
O4_9 O 0.1901(2) 0.2401(3) 0.4220(3)
C6_9 C 0.1585(4) 0.1262(4) 0.3407(4)
H4_9 H 0.1574 0.1000 0.3252
N3_18 N 1.0000 0.2909(6) 0.3907(4)
O1_9 O 0.9649(3) 0.3095(3) 0.3898(3)
C2_18 C 1.0000 0.2453(6) 0.3929(4)
Cd2_9 Cd 0.89518(2) 0.2500 0.39518(2)
N5_9 N 0.9630(3) 0.2201(4) 0.3943(3)
C5_9 C 0.9761(4) 0.1804(4) 0.3971(4)
H3_9 H 0.9582 0.1557 0.3989
N3_19 N -0.0000 0.2909(6) 0.6093(4)
O1_10 O 0.0351(3) 0.3095(3) 0.6102(3)
C2_19 C 0.0000 0.2453(6) 0.6071(4)
Cd2_10 Cd 0.10482(2) 0.2500 0.60482(2)
N5_10 N 0.0370(3) 0.2201(4) 0.6057(3)
C5_10 C 0.0239(4) 0.1804(4) 0.6029(4)
H3_10 H 0.0418 0.1557 0.6011
Cd1_10 Cd 0.89518(2) 0.2500 0.60482(2)
N1_10 N 0.9630(3) 0.2201(4) 0.6057(3)
N2_10 N 0.8608(3) 0.1915(3) 0.6331(3)
N3_20 N 1.0000 0.2909(6) 0.6093(4)
N4_10 N 0.7958(3) 0.2042(3) 0.5895(5)
O2_10 O 0.7599(3) 0.1901(2) 0.5780(3)
C1_10 C 0.9761(4) 0.1804(4) 0.6029(4)
H1_10 H 0.9582 0.1557 0.6011
C2_20 C 1.0000 0.2453(6) 0.6071(4)
C3_10 C 0.8738(4) 0.1585(4) 0.6593(4)
H2_10 H 0.9000 0.1574 0.6748
C4_10 C 0.8213(4) 0.1787(4) 0.6175(5)
Cd3_10 Cd 0.7500 0.10482(2) 0.60482(2)
N6_10 N 0.8943(3) 0.2799(4) 0.5370(3)
N7_10 N 0.8085(3) 0.1392(3) 0.6331(3)
N8_10 N 0.8669(3) 0.3085(3) 0.6392(3)
O3_10 O 0.9649(3) 0.3095(3) 0.6102(3)
O4_10 O 0.8099(2) 0.2401(3) 0.5780(3)
C6_10 C 0.8415(4) 0.1262(4) 0.6593(4)
H4_10 H 0.8426 0.1000 0.6748
Cd1_11 Cd 0.10482(2) 0.7500 0.60482(2)
N1_11 N 0.0370(3) 0.7799(4) 0.6057(3)
N2_11 N 0.1392(3) 0.8085(3) 0.6331(3)
N3_21 N -0.0000 0.7091(6) 0.6093(4)
N4_11 N 0.2042(3) 0.7958(3) 0.5895(5)
O2_11 O 0.2401(3) 0.8099(2) 0.5780(3)
C1_11 C 0.0239(4) 0.8196(4) 0.6029(4)
H1_11 H 0.0418 0.8443 0.6011
C2_21 C 0.0000 0.7547(6) 0.6071(4)
C3_11 C 0.1262(4) 0.8415(4) 0.6593(4)
H2_11 H 0.1000 0.8426 0.6748
C4_11 C 0.1787(4) 0.8213(4) 0.6175(5)
Cd3_11 Cd 0.2500 0.89518(2) 0.60482(2)
N6_11 N 0.1057(3) 0.7201(4) 0.5370(3)
N7_11 N 0.1915(3) 0.8608(3) 0.6331(3)
N8_11 N 0.1331(3) 0.6915(3) 0.6392(3)
O3_11 O 0.0351(3) 0.6905(3) 0.6102(3)
O4_11 O 0.1901(2) 0.7599(3) 0.5780(3)
C6_11 C 0.1585(4) 0.8738(4) 0.6593(4)
H4_11 H 0.1574 0.9000 0.6748
N3_22 N 1.0000 0.7091(6) 0.6093(4)
O1_11 O 0.9649(3) 0.6905(3) 0.6102(3)
C2_22 C 1.0000 0.7547(6) 0.6071(4)
Cd2_11 Cd 0.89518(2) 0.7500 0.60482(2)
N5_11 N 0.9630(3) 0.7799(4) 0.6057(3)
C5_11 C 0.9761(4) 0.8196(4) 0.6029(4)
H3_11 H 0.9582 0.8443 0.6011
N3_23 N -0.0000 0.7091(6) 0.3907(4)
O1_12 O 0.0351(3) 0.6905(3) 0.3898(3)
C2_23 C -0.0000 0.7547(6) 0.3929(4)
Cd2_12 Cd 0.10482(2) 0.7500 0.39518(2)
N5_12 N 0.0370(3) 0.7799(4) 0.3943(3)
C5_12 C 0.0239(4) 0.8196(4) 0.3971(4)
H3_12 H 0.0418 0.8443 0.3989
Cd1_12 Cd 0.89518(2) 0.7500 0.39518(2)
N1_12 N 0.9630(3) 0.7799(4) 0.3943(3)
N2_12 N 0.8608(3) 0.8085(3) 0.3669(3)
N3_24 N 1.0000 0.7091(6) 0.3907(4)
N4_12 N 0.7958(3) 0.7958(3) 0.4105(5)
O2_12 O 0.7599(3) 0.8099(2) 0.4220(3)
C1_12 C 0.9761(4) 0.8196(4) 0.3971(4)
H1_12 H 0.9582 0.8443 0.3989
C2_24 C 1.0000 0.7547(6) 0.3929(4)
C3_12 C 0.8738(4) 0.8415(4) 0.3407(4)
H2_12 H 0.9000 0.8426 0.3252
C4_12 C 0.8213(4) 0.8213(4) 0.3825(5)
Cd3_12 Cd 0.7500 0.89518(2) 0.39518(2)
N6_12 N 0.8943(3) 0.7201(4) 0.4630(3)
N7_12 N 0.8085(3) 0.8608(3) 0.3669(3)
N8_12 N 0.8669(3) 0.6915(3) 0.3608(3)
O3_12 O 0.9649(3) 0.6905(3) 0.3898(3)
O4_12 O 0.8099(2) 0.7599(3) 0.4220(3)
C6_12 C 0.8415(4) 0.8738(4) 0.3407(4)
H4_12 H 0.8426 0.9000 0.3252
Cd1_13 Cd 0.10482(2) 0.39518(2) 0.7500
N1_13 N 0.0370(3) 0.3943(3) 0.7799(4)
N2_13 N 0.1392(3) 0.3669(3) 0.8085(3)
N3_25 N -0.0000 0.3907(4) 0.7091(6)
N4_13 N 0.2042(3) 0.4105(5) 0.7958(3)
O2_13 O 0.2401(3) 0.4220(3) 0.8099(2)
C1_13 C 0.0239(4) 0.3971(4) 0.8196(4)
H1_13 H 0.0418 0.3989 0.8443
C2_25 C -0.0000 0.3929(4) 0.7547(6)
C3_13 C 0.1262(4) 0.3407(4) 0.8415(4)
H2_13 H 0.1000 0.3252 0.8426
C4_13 C 0.1787(4) 0.3825(5) 0.8213(4)
N6_13 N 0.1057(3) 0.4630(3) 0.7201(4)
N7_13 N 0.1915(3) 0.3669(3) 0.8608(3)
N8_13 N 0.1331(3) 0.3608(3) 0.6915(3)
O3_13 O 0.0351(3) 0.3898(3) 0.6905(3)
O4_13 O 0.1901(2) 0.4220(3) 0.7599(3)
C6_13 C 0.1585(4) 0.3407(4) 0.8738(4)
H4_13 H 0.1574 0.3252 0.9000
N3_26 N 1.0000 0.3907(4) 0.7091(6)
O1_13 O 0.9649(3) 0.3898(3) 0.6905(3)
C2_26 C 1.0000 0.3929(4) 0.7547(6)
N5_13 N 0.9630(3) 0.3943(3) 0.7799(4)
C5_13 C 0.9761(4) 0.3971(4) 0.8196(4)
H3_13 H 0.9582 0.3989 0.8443
N3_27 N -0.0000 0.6093(4) 0.7091(6)
O1_14 O 0.0351(3) 0.6102(3) 0.6905(3)
C2_27 C 0.0000 0.6071(4) 0.7547(6)
N5_14 N 0.0370(3) 0.6057(3) 0.7799(4)
C5_14 C 0.0239(4) 0.6029(4) 0.8196(4)
H3_14 H 0.0418 0.6011 0.8443
Cd1_14 Cd 0.89518(2) 0.60482(2) 0.7500
N1_14 N 0.9630(3) 0.6057(3) 0.7799(4)
N2_14 N 0.8608(3) 0.6331(3) 0.8085(3)
N3_28 N 1.0000 0.6093(4) 0.7091(6)
N4_14 N 0.7958(3) 0.5895(5) 0.7958(3)
O2_14 O 0.7599(3) 0.5780(3) 0.8099(2)
C1_14 C 0.9761(4) 0.6029(4) 0.8196(4)
H1_14 H 0.9582 0.6011 0.8443
C2_28 C 1.0000 0.6071(4) 0.7547(6)
C3_14 C 0.8738(4) 0.6593(4) 0.8415(4)
H2_14 H 0.9000 0.6748 0.8426
C4_14 C 0.8213(4) 0.6175(5) 0.8213(4)
N6_14 N 0.8943(3) 0.5370(3) 0.7201(4)
N7_14 N 0.8085(3) 0.6331(3) 0.8608(3)
N8_14 N 0.8669(3) 0.6392(3) 0.6915(3)
O3_14 O 0.9649(3) 0.6102(3) 0.6905(3)
O4_14 O 0.8099(2) 0.5780(3) 0.7599(3)
C6_14 C 0.8415(4) 0.6593(4) 0.8738(4)
H4_14 H 0.8426 0.6748 0.9000
Cd1_15 Cd 0.10482(2) 0.60482(2) 0.2500
N1_15 N 0.0370(3) 0.6057(3) 0.2201(4)
N2_15 N 0.1392(3) 0.6331(3) 0.1915(3)
N3_29 N -0.0000 0.6093(4) 0.2909(6)
N4_15 N 0.2042(3) 0.5895(5) 0.2042(3)
O2_15 O 0.2401(3) 0.5780(3) 0.1901(2)
C1_15 C 0.0239(4) 0.6029(4) 0.1804(4)
H1_15 H 0.0418 0.6011 0.1557
C2_29 C 0.0000 0.6071(4) 0.2453(6)
C3_15 C 0.1262(4) 0.6593(4) 0.1585(4)
H2_15 H 0.1000 0.6748 0.1574
C4_15 C 0.1787(4) 0.6175(5) 0.1787(4)
N6_15 N 0.1057(3) 0.5370(3) 0.2799(4)
N7_15 N 0.1915(3) 0.6331(3) 0.1392(3)
N8_15 N 0.1331(3) 0.6392(3) 0.3085(3)
O3_15 O 0.0351(3) 0.6102(3) 0.3095(3)
O4_15 O 0.1901(2) 0.5780(3) 0.2401(3)
C6_15 C 0.1585(4) 0.6593(4) 0.1262(4)
H4_15 H 0.1574 0.6748 0.1000
N3_30 N 1.0000 0.6093(4) 0.2909(6)
O1_15 O 0.9649(3) 0.6102(3) 0.3095(3)
C2_30 C 1.0000 0.6071(4) 0.2453(6)
N5_15 N 0.9630(3) 0.6057(3) 0.2201(4)
C5_15 C 0.9761(4) 0.6029(4) 0.1804(4)
H3_15 H 0.9582 0.6011 0.1557
N3_31 N 0.0000 0.3907(4) 0.2909(6)
O1_16 O 0.0351(3) 0.3898(3) 0.3095(3)
C2_31 C 0.0000 0.3929(4) 0.2453(6)
N5_16 N 0.0370(3) 0.3943(3) 0.2201(4)
C5_16 C 0.0239(4) 0.3971(4) 0.1804(4)
H3_16 H 0.0418 0.3989 0.1557
Cd1_16 Cd 0.89518(2) 0.39518(2) 0.2500
N1_16 N 0.9630(3) 0.3943(3) 0.2201(4)
N2_16 N 0.8608(3) 0.3669(3) 0.1915(3)
N3_32 N 1.0000 0.3907(4) 0.2909(6)
N4_16 N 0.7958(3) 0.4105(5) 0.2042(3)
O2_16 O 0.7599(3) 0.4220(3) 0.1901(2)
C1_16 C 0.9761(4) 0.3971(4) 0.1804(4)
H1_16 H 0.9582 0.3989 0.1557
C2_32 C 1.0000 0.3929(4) 0.2453(6)
C3_16 C 0.8738(4) 0.3407(4) 0.1585(4)
H2_16 H 0.9000 0.3252 0.1574
C4_16 C 0.8213(4) 0.3825(5) 0.1787(4)
N6_16 N 0.8943(3) 0.4630(3) 0.2799(4)
N7_16 N 0.8085(3) 0.3669(3) 0.1392(3)
N8_16 N 0.8669(3) 0.3608(3) 0.3085(3)
O3_16 O 0.9649(3) 0.3898(3) 0.3095(3)
O4_16 O 0.8099(2) 0.4220(3) 0.2401(3)
C6_16 C 0.8415(4) 0.3407(4) 0.1262(4)
H4_16 H 0.8426 0.3252 0.1000
N3_33 N 0.3907(4) 0.2909(6) 0.0000
O1_17 O 0.3898(3) 0.3095(3) 0.0351(3)
C2_33 C 0.3929(4) 0.2453(6) 0.0000
N5_17 N 0.3943(3) 0.2201(4) 0.0370(3)
C5_17 C 0.3971(4) 0.1804(4) 0.0239(4)
H3_17 H 0.3989 0.1557 0.0418
Cd1_17 Cd 0.39518(2) 0.2500 0.89518(2)
N1_17 N 0.3943(3) 0.2201(4) 0.9630(3)
N2_17 N 0.3669(3) 0.1915(3) 0.8608(3)
N3_34 N 0.3907(4) 0.2909(6) 1.0000
N4_17 N 0.4105(5) 0.2042(3) 0.7958(3)
O2_17 O 0.4220(3) 0.1901(2) 0.7599(3)
C1_17 C 0.3971(4) 0.1804(4) 0.9761(4)
H1_17 H 0.3989 0.1557 0.9582
C2_34 C 0.3929(4) 0.2453(6) 1.0000
C3_17 C 0.3407(4) 0.1585(4) 0.8738(4)
H2_17 H 0.3252 0.1574 0.9000
C4_17 C 0.3825(5) 0.1787(4) 0.8213(4)
N6_17 N 0.4630(3) 0.2799(4) 0.8943(3)
N7_17 N 0.3669(3) 0.1392(3) 0.8085(3)
N8_17 N 0.3608(3) 0.3085(3) 0.8669(3)
O3_17 O 0.3898(3) 0.3095(3) 0.9649(3)
O4_17 O 0.4220(3) 0.2401(3) 0.8099(2)
C6_17 C 0.3407(4) 0.1262(4) 0.8415(4)
H4_17 H 0.3252 0.1000 0.8426
Cd1_18 Cd 0.60482(2) 0.2500 0.10482(2)
N1_18 N 0.6057(3) 0.2201(4) 0.0370(3)
N2_18 N 0.6331(3) 0.1915(3) 0.1392(3)
N3_35 N 0.6093(4) 0.2909(6) -0.0000
N4_18 N 0.5895(5) 0.2042(3) 0.2042(3)
O2_18 O 0.5780(3) 0.1901(2) 0.2401(3)
C1_18 C 0.6029(4) 0.1804(4) 0.0239(4)
H1_18 H 0.6011 0.1557 0.0418
C2_35 C 0.6071(4) 0.2453(6) -0.0000
C3_18 C 0.6593(4) 0.1585(4) 0.1262(4)
H2_18 H 0.6748 0.1574 0.1000
C4_18 C 0.6175(5) 0.1787(4) 0.1787(4)
N6_18 N 0.5370(3) 0.2799(4) 0.1057(3)
N7_18 N 0.6331(3) 0.1392(3) 0.1915(3)
N8_18 N 0.6392(3) 0.3085(3) 0.1331(3)
O3_18 O 0.6102(3) 0.3095(3) 0.0351(3)
O4_18 O 0.5780(3) 0.2401(3) 0.1901(2)
C6_18 C 0.6593(4) 0.1262(4) 0.1585(4)
H4_18 H 0.6748 0.1000 0.1574
N3_36 N 0.6093(4) 0.2909(6) 1.0000
O1_18 O 0.6102(3) 0.3095(3) 0.9649(3)
C2_36 C 0.6071(4) 0.2453(6) 1.0000
N5_18 N 0.6057(3) 0.2201(4) 0.9630(3)
C5_18 C 0.6029(4) 0.1804(4) 0.9761(4)
H3_18 H 0.6011 0.1557 0.9582
N3_37 N 0.6093(4) 0.7091(6) 0.0000
O1_19 O 0.6102(3) 0.6905(3) 0.0351(3)
C2_37 C 0.6071(4) 0.7547(6) 0.0000
N5_19 N 0.6057(3) 0.7799(4) 0.0370(3)
C5_19 C 0.6029(4) 0.8196(4) 0.0239(4)
H3_19 H 0.6011 0.8443 0.0418
Cd1_19 Cd 0.60482(2) 0.7500 0.89518(2)
N1_19 N 0.6057(3) 0.7799(4) 0.9630(3)
N2_19 N 0.6331(3) 0.8085(3) 0.8608(3)
N3_38 N 0.6093(4) 0.7091(6) 1.0000
N4_19 N 0.5895(5) 0.7958(3) 0.7958(3)
O2_19 O 0.5780(3) 0.8099(2) 0.7599(3)
C1_19 C 0.6029(4) 0.8196(4) 0.9761(4)
H1_19 H 0.6011 0.8443 0.9582
C2_38 C 0.6071(4) 0.7547(6) 1.0000
C3_19 C 0.6593(4) 0.8415(4) 0.8738(4)
H2_19 H 0.6748 0.8426 0.9000
C4_19 C 0.6175(5) 0.8213(4) 0.8213(4)
N6_19 N 0.5370(3) 0.7201(4) 0.8943(3)
N7_19 N 0.6331(3) 0.8608(3) 0.8085(3)
N8_19 N 0.6392(3) 0.6915(3) 0.8669(3)
O3_19 O 0.6102(3) 0.6905(3) 0.9649(3)
O4_19 O 0.5780(3) 0.7599(3) 0.8099(2)
C6_19 C 0.6593(4) 0.8738(4) 0.8415(4)
H4_19 H 0.6748 0.9000 0.8426
Cd1_20 Cd 0.39518(2) 0.7500 0.10482(2)
N1_20 N 0.3943(3) 0.7799(4) 0.0370(3)
N2_20 N 0.3669(3) 0.8085(3) 0.1392(3)
N3_39 N 0.3907(4) 0.7091(6) -0.0000
N4_20 N 0.4105(5) 0.7958(3) 0.2042(3)
O2_20 O 0.4220(3) 0.8099(2) 0.2401(3)
C1_20 C 0.3971(4) 0.8196(4) 0.0239(4)
H1_20 H 0.3989 0.8443 0.0418
C2_39 C 0.3929(4) 0.7547(6) -0.0000
C3_20 C 0.3407(4) 0.8415(4) 0.1262(4)
H2_20 H 0.3252 0.8426 0.1000
C4_20 C 0.3825(5) 0.8213(4) 0.1787(4)
N6_20 N 0.4630(3) 0.7201(4) 0.1057(3)
N7_20 N 0.3669(3) 0.8608(3) 0.1915(3)
N8_20 N 0.3608(3) 0.6915(3) 0.1331(3)
O3_20 O 0.3898(3) 0.6905(3) 0.0351(3)
O4_20 O 0.4220(3) 0.7599(3) 0.1901(2)
C6_20 C 0.3407(4) 0.8738(4) 0.1585(4)
H4_20 H 0.3252 0.9000 0.1574
N3_40 N 0.3907(4) 0.7091(6) 1.0000
O1_20 O 0.3898(3) 0.6905(3) 0.9649(3)
C2_40 C 0.3929(4) 0.7547(6) 1.0000
N5_20 N 0.3943(3) 0.7799(4) 0.9630(3)
C5_20 C 0.3971(4) 0.8196(4) 0.9761(4)
H3_20 H 0.3989 0.8443 0.9582
Cd1_21 Cd 0.2500 0.10482(2) 0.60482(2)
N1_21 N 0.2201(4) 0.0370(3) 0.6057(3)
N2_21 N 0.1915(3) 0.1392(3) 0.6331(3)
N3_41 N 0.2909(6) -0.0000 0.6093(4)
N4_21 N 0.2042(3) 0.2042(3) 0.5895(5)
O2_21 O 0.1901(2) 0.2401(3) 0.5780(3)
C1_21 C 0.1804(4) 0.0239(4) 0.6029(4)
H1_21 H 0.1557 0.0418 0.6011
C2_41 C 0.2453(6) 0.0000 0.6071(4)
C3_21 C 0.1585(4) 0.1262(4) 0.6593(4)
H2_21 H 0.1574 0.1000 0.6748
C4_21 C 0.1787(4) 0.1787(4) 0.6175(5)
N6_21 N 0.2799(4) 0.1057(3) 0.5370(3)
N7_21 N 0.1392(3) 0.1915(3) 0.6331(3)
N8_21 N 0.3085(3) 0.1331(3) 0.6392(3)
O3_21 O 0.3095(3) 0.0351(3) 0.6102(3)
O4_21 O 0.2401(3) 0.1901(2) 0.5780(3)
C6_21 C 0.1262(4) 0.1585(4) 0.6593(4)
H4_21 H 0.1000 0.1574 0.6748
N3_42 N 0.2909(6) 1.0000 0.6093(4)
O1_21 O 0.3095(3) 0.9649(3) 0.6102(3)
C2_42 C 0.2453(6) 1.0000 0.6071(4)
N5_21 N 0.2201(4) 0.9630(3) 0.6057(3)
C5_21 C 0.1804(4) 0.9761(4) 0.6029(4)
H3_21 H 0.1557 0.9582 0.6011
N3_43 N 0.2909(6) 0.0000 0.3907(4)
O1_22 O 0.3095(3) 0.0351(3) 0.3898(3)
C2_43 C 0.2453(6) 0.0000 0.3929(4)
N5_22 N 0.2201(4) 0.0370(3) 0.3943(3)
C5_22 C 0.1804(4) 0.0239(4) 0.3971(4)
H3_22 H 0.1557 0.0418 0.3989
Cd1_22 Cd 0.2500 0.89518(2) 0.39518(2)
N1_22 N 0.2201(4) 0.9630(3) 0.3943(3)
N2_22 N 0.1915(3) 0.8608(3) 0.3669(3)
N3_44 N 0.2909(6) 1.0000 0.3907(4)
N4_22 N 0.2042(3) 0.7958(3) 0.4105(5)
O2_22 O 0.1901(2) 0.7599(3) 0.4220(3)
C1_22 C 0.1804(4) 0.9761(4) 0.3971(4)
H1_22 H 0.1557 0.9582 0.3989
C2_44 C 0.2453(6) 1.0000 0.3929(4)
C3_22 C 0.1585(4) 0.8738(4) 0.3407(4)
H2_22 H 0.1574 0.9000 0.3252
C4_22 C 0.1787(4) 0.8213(4) 0.3825(5)
N6_22 N 0.2799(4) 0.8943(3) 0.4630(3)
N7_22 N 0.1392(3) 0.8085(3) 0.3669(3)
N8_22 N 0.3085(3) 0.8669(3) 0.3608(3)
O3_22 O 0.3095(3) 0.9649(3) 0.3898(3)
O4_22 O 0.2401(3) 0.8099(2) 0.4220(3)
C6_22 C 0.1262(4) 0.8415(4) 0.3407(4)
H4_22 H 0.1000 0.8426 0.3252
Cd1_23 Cd 0.7500 0.10482(2) 0.39518(2)
N1_23 N 0.7799(4) 0.0370(3) 0.3943(3)
N2_23 N 0.8085(3) 0.1392(3) 0.3669(3)
N3_45 N 0.7091(6) -0.0000 0.3907(4)
N4_23 N 0.7958(3) 0.2042(3) 0.4105(5)
O2_23 O 0.8099(2) 0.2401(3) 0.4220(3)
C1_23 C 0.8196(4) 0.0239(4) 0.3971(4)
H1_23 H 0.8443 0.0418 0.3989
C2_45 C 0.7547(6) -0.0000 0.3929(4)
C3_23 C 0.8415(4) 0.1262(4) 0.3407(4)
H2_23 H 0.8426 0.1000 0.3252
C4_23 C 0.8213(4) 0.1787(4) 0.3825(5)
N6_23 N 0.7201(4) 0.1057(3) 0.4630(3)
N7_23 N 0.8608(3) 0.1915(3) 0.3669(3)
N8_23 N 0.6915(3) 0.1331(3) 0.3608(3)
O3_23 O 0.6905(3) 0.0351(3) 0.3898(3)
O4_23 O 0.7599(3) 0.1901(2) 0.4220(3)
C6_23 C 0.8738(4) 0.1585(4) 0.3407(4)
H4_23 H 0.9000 0.1574 0.3252
N3_46 N 0.7091(6) 1.0000 0.3907(4)
O1_23 O 0.6905(3) 0.9649(3) 0.3898(3)
C2_46 C 0.7547(6) 1.0000 0.3929(4)
N5_23 N 0.7799(4) 0.9630(3) 0.3943(3)
C5_23 C 0.8196(4) 0.9761(4) 0.3971(4)
H3_23 H 0.8443 0.9582 0.3989
N3_47 N 0.7091(6) -0.0000 0.6093(4)
O1_24 O 0.6905(3) 0.0351(3) 0.6102(3)
C2_47 C 0.7547(6) 0.0000 0.6071(4)
N5_24 N 0.7799(4) 0.0370(3) 0.6057(3)
C5_24 C 0.8196(4) 0.0239(4) 0.6029(4)
H3_24 H 0.8443 0.0418 0.6011
Cd1_24 Cd 0.7500 0.89518(2) 0.60482(2)
N1_24 N 0.7799(4) 0.9630(3) 0.6057(3)
N2_24 N 0.8085(3) 0.8608(3) 0.6331(3)
N3_48 N 0.7091(6) 1.0000 0.6093(4)
N4_24 N 0.7958(3) 0.7958(3) 0.5895(5)
O2_24 O 0.8099(2) 0.7599(3) 0.5780(3)
C1_24 C 0.8196(4) 0.9761(4) 0.6029(4)
H1_24 H 0.8443 0.9582 0.6011
C2_48 C 0.7547(6) 1.0000 0.6071(4)
C3_24 C 0.8415(4) 0.8738(4) 0.6593(4)
H2_24 H 0.8426 0.9000 0.6748
C4_24 C 0.8213(4) 0.8213(4) 0.6175(5)
N6_24 N 0.7201(4) 0.8943(3) 0.5370(3)
N7_24 N 0.8608(3) 0.8085(3) 0.6331(3)
N8_24 N 0.6915(3) 0.8669(3) 0.6392(3)
O3_24 O 0.6905(3) 0.9649(3) 0.6102(3)
O4_24 O 0.7599(3) 0.8099(2) 0.5780(3)
C6_24 C 0.8738(4) 0.8415(4) 0.6593(4)
H4_24 H 0.9000 0.8426 0.6748
N3_49 N 0.8907(4) 0.5000 0.7909(6)
N4_25 N 0.9105(5) 0.7042(3) 0.7042(3)
O1_25 O 0.8898(3) 0.4649(3) 0.8095(3)
O2_25 O 0.9220(3) 0.7401(3) 0.6901(2)
C1_25 C 0.8971(4) 0.5239(4) 0.6804(4)
H1_25 H 0.8989 0.5418 0.6557
C2_49 C 0.8929(4) 0.5000 0.7453(6)
C3_25 C 0.8407(4) 0.6262(4) 0.6585(4)
H2_25 H 0.8252 0.6000 0.6574
C4_25 C 0.8825(5) 0.6787(4) 0.6787(4)
N5_25 N 0.8943(3) 0.4630(3) 0.7201(4)
N7_25 N 0.8669(3) 0.6915(3) 0.6392(3)
O3_25 O 0.8898(3) 0.5351(3) 0.8095(3)
O4_25 O 0.9220(3) 0.6901(2) 0.7401(3)
C5_25 C 0.8971(4) 0.4761(4) 0.6804(4)
H3_25 H 0.8989 0.4582 0.6557
C6_25 C 0.8407(4) 0.6585(4) 0.6262(4)
H4_25 H 0.8252 0.6574 0.6000
N3_50 N 0.1093(4) 0.5000 0.7909(6)
N4_26 N 0.0895(5) 0.2958(3) 0.7042(3)
O1_26 O 0.1102(3) 0.5351(3) 0.8095(3)
O2_26 O 0.0780(3) 0.2599(3) 0.6901(2)
C1_26 C 0.1029(4) 0.4761(4) 0.6804(4)
H1_26 H 0.1011 0.4582 0.6557
C2_50 C 0.1071(4) 0.5000 0.7453(6)
C3_26 C 0.1593(4) 0.3738(4) 0.6585(4)
H2_26 H 0.1748 0.4000 0.6574
C4_26 C 0.1175(5) 0.3213(4) 0.6787(4)
N5_26 N 0.1057(3) 0.5370(3) 0.7201(4)
N7_26 N 0.1331(3) 0.3085(3) 0.6392(3)
O3_26 O 0.1102(3) 0.4649(3) 0.8095(3)
O4_26 O 0.0780(3) 0.3099(2) 0.7401(3)
C5_26 C 0.1029(4) 0.5239(4) 0.6804(4)
H3_26 H 0.1011 0.5418 0.6557
C6_26 C 0.1593(4) 0.3415(4) 0.6262(4)
H4_26 H 0.1748 0.3426 0.6000
N3_51 N 0.1093(4) 0.5000 0.2091(6)
N4_27 N 0.0895(5) 0.7042(3) 0.2958(3)
O1_27 O 0.1102(3) 0.4649(3) 0.1905(3)
O2_27 O 0.0780(3) 0.7401(3) 0.3099(2)
C1_27 C 0.1029(4) 0.5239(4) 0.3196(4)
H1_27 H 0.1011 0.5418 0.3443
C2_51 C 0.1071(4) 0.5000 0.2547(6)
C3_27 C 0.1593(4) 0.6262(4) 0.3415(4)
H2_27 H 0.1748 0.6000 0.3426
C4_27 C 0.1175(5) 0.6787(4) 0.3213(4)
N5_27 N 0.1057(3) 0.4630(3) 0.2799(4)
N7_27 N 0.1331(3) 0.6915(3) 0.3608(3)
O3_27 O 0.1102(3) 0.5351(3) 0.1905(3)
O4_27 O 0.0780(3) 0.6901(2) 0.2599(3)
C5_27 C 0.1029(4) 0.4761(4) 0.3196(4)
H3_27 H 0.1011 0.4582 0.3443
C6_27 C 0.1593(4) 0.6585(4) 0.3738(4)
H4_27 H 0.1748 0.6574 0.4000
N3_52 N 0.8907(4) 0.5000 0.2091(6)
N4_28 N 0.9105(5) 0.2958(3) 0.2958(3)
O1_28 O 0.8898(3) 0.5351(3) 0.1905(3)
O2_28 O 0.9220(3) 0.2599(3) 0.3099(2)
C1_28 C 0.8971(4) 0.4761(4) 0.3196(4)
H1_28 H 0.8989 0.4582 0.3443
C2_52 C 0.8929(4) 0.5000 0.2547(6)
C3_28 C 0.8407(4) 0.3738(4) 0.3415(4)
H2_28 H 0.8252 0.4000 0.3426
C4_28 C 0.8825(5) 0.3213(4) 0.3213(4)
N5_28 N 0.8943(3) 0.5370(3) 0.2799(4)
N7_28 N 0.8669(3) 0.3085(3) 0.3608(3)
O3_28 O 0.8898(3) 0.4649(3) 0.1905(3)
O4_28 O 0.9220(3) 0.3099(2) 0.2599(3)
C5_28 C 0.8971(4) 0.5239(4) 0.3196(4)
H3_28 H 0.8989 0.5418 0.3443
C6_28 C 0.8407(4) 0.3415(4) 0.3738(4)
H4_28 H 0.8252 0.3426 0.4000
N3_53 N 0.7909(6) 0.8907(4) 0.5000
N4_29 N 0.7042(3) 0.9105(5) 0.7042(3)
O1_29 O 0.8095(3) 0.8898(3) 0.4649(3)
O2_29 O 0.6901(2) 0.9220(3) 0.7401(3)
C1_29 C 0.6804(4) 0.8971(4) 0.5239(4)
H1_29 H 0.6557 0.8989 0.5418
C2_53 C 0.7453(6) 0.8929(4) 0.5000
C3_29 C 0.6585(4) 0.8407(4) 0.6262(4)
H2_29 H 0.6574 0.8252 0.6000
C4_29 C 0.6787(4) 0.8825(5) 0.6787(4)
N5_29 N 0.7201(4) 0.8943(3) 0.4630(3)
N7_29 N 0.6392(3) 0.8669(3) 0.6915(3)
O3_29 O 0.8095(3) 0.8898(3) 0.5351(3)
O4_29 O 0.7401(3) 0.9220(3) 0.6901(2)
C5_29 C 0.6804(4) 0.8971(4) 0.4761(4)
H3_29 H 0.6557 0.8989 0.4582
C6_29 C 0.6262(4) 0.8407(4) 0.6585(4)
H4_29 H 0.6000 0.8252 0.6574
N3_54 N 0.7909(6) 0.1093(4) 0.5000
N4_30 N 0.7042(3) 0.0895(5) 0.2958(3)
O1_30 O 0.8095(3) 0.1102(3) 0.5351(3)
O2_30 O 0.6901(2) 0.0780(3) 0.2599(3)
C1_30 C 0.6804(4) 0.1029(4) 0.4761(4)
H1_30 H 0.6557 0.1011 0.4582
C2_54 C 0.7453(6) 0.1071(4) 0.5000
C3_30 C 0.6585(4) 0.1593(4) 0.3738(4)
H2_30 H 0.6574 0.1748 0.4000
C4_30 C 0.6787(4) 0.1175(5) 0.3213(4)
N5_30 N 0.7201(4) 0.1057(3) 0.5370(3)
N7_30 N 0.6392(3) 0.1331(3) 0.3085(3)
O3_30 O 0.8095(3) 0.1102(3) 0.4649(3)
O4_30 O 0.7401(3) 0.0780(3) 0.3099(2)
C5_30 C 0.6804(4) 0.1029(4) 0.5239(4)
H3_30 H 0.6557 0.1011 0.5418
C6_30 C 0.6262(4) 0.1593(4) 0.3415(4)
H4_30 H 0.6000 0.1748 0.3426
N3_55 N 0.2091(6) 0.1093(4) 0.5000
N4_31 N 0.2958(3) 0.0895(5) 0.7042(3)
O1_31 O 0.1905(3) 0.1102(3) 0.4649(3)
O2_31 O 0.3099(2) 0.0780(3) 0.7401(3)
C1_31 C 0.3196(4) 0.1029(4) 0.5239(4)
H1_31 H 0.3443 0.1011 0.5418
C2_55 C 0.2547(6) 0.1071(4) 0.5000
C3_31 C 0.3415(4) 0.1593(4) 0.6262(4)
H2_31 H 0.3426 0.1748 0.6000
C4_31 C 0.3213(4) 0.1175(5) 0.6787(4)
N5_31 N 0.2799(4) 0.1057(3) 0.4630(3)
N7_31 N 0.3608(3) 0.1331(3) 0.6915(3)
O3_31 O 0.1905(3) 0.1102(3) 0.5351(3)
O4_31 O 0.2599(3) 0.0780(3) 0.6901(2)
C5_31 C 0.3196(4) 0.1029(4) 0.4761(4)
H3_31 H 0.3443 0.1011 0.4582
C6_31 C 0.3738(4) 0.1593(4) 0.6585(4)
H4_31 H 0.4000 0.1748 0.6574
N3_56 N 0.2091(6) 0.8907(4) 0.5000
N4_32 N 0.2958(3) 0.9105(5) 0.2958(3)
O1_32 O 0.1905(3) 0.8898(3) 0.5351(3)
O2_32 O 0.3099(2) 0.9220(3) 0.2599(3)
C1_32 C 0.3196(4) 0.8971(4) 0.4761(4)
H1_32 H 0.3443 0.8989 0.4582
C2_56 C 0.2547(6) 0.8929(4) 0.5000
C3_32 C 0.3415(4) 0.8407(4) 0.3738(4)
H2_32 H 0.3426 0.8252 0.4000
C4_32 C 0.3213(4) 0.8825(5) 0.3213(4)
N5_32 N 0.2799(4) 0.8943(3) 0.5370(3)
N7_32 N 0.3608(3) 0.8669(3) 0.3085(3)
O3_32 O 0.1905(3) 0.8898(3) 0.4649(3)
O4_32 O 0.2599(3) 0.9220(3) 0.3099(2)
C5_32 C 0.3196(4) 0.8971(4) 0.5239(4)
H3_32 H 0.3443 0.8989 0.5418
C6_32 C 0.3738(4) 0.8407(4) 0.3415(4)
H4_32 H 0.4000 0.8252 0.3426
N3_57 N 0.5000 0.7909(6) 0.8907(4)
N4_33 N 0.7042(3) 0.7042(3) 0.9105(5)
O1_33 O 0.4649(3) 0.8095(3) 0.8898(3)
O2_33 O 0.7401(3) 0.6901(2) 0.9220(3)
C1_33 C 0.5239(4) 0.6804(4) 0.8971(4)
H1_33 H 0.5418 0.6557 0.8989
C2_57 C 0.5000 0.7453(6) 0.8929(4)
C3_33 C 0.6262(4) 0.6585(4) 0.8407(4)
H2_33 H 0.6000 0.6574 0.8252
C4_33 C 0.6787(4) 0.6787(4) 0.8825(5)
N5_33 N 0.4630(3) 0.7201(4) 0.8943(3)
N7_33 N 0.6915(3) 0.6392(3) 0.8669(3)
O3_33 O 0.5351(3) 0.8095(3) 0.8898(3)
O4_33 O 0.6901(2) 0.7401(3) 0.9220(3)
C5_33 C 0.4761(4) 0.6804(4) 0.8971(4)
H3_33 H 0.4582 0.6557 0.8989
C6_33 C 0.6585(4) 0.6262(4) 0.8407(4)
H4_33 H 0.6574 0.6000 0.8252
N3_58 N 0.5000 0.7909(6) 0.1093(4)
N4_34 N 0.2958(3) 0.7042(3) 0.0895(5)
O1_34 O 0.5351(3) 0.8095(3) 0.1102(3)
O2_34 O 0.2599(3) 0.6901(2) 0.0780(3)
C1_34 C 0.4761(4) 0.6804(4) 0.1029(4)
H1_34 H 0.4582 0.6557 0.1011
C2_58 C 0.5000 0.7453(6) 0.1071(4)
C3_34 C 0.3738(4) 0.6585(4) 0.1593(4)
H2_34 H 0.4000 0.6574 0.1748
C4_34 C 0.3213(4) 0.6787(4) 0.1175(5)
N5_34 N 0.5370(3) 0.7201(4) 0.1057(3)
N7_34 N 0.3085(3) 0.6392(3) 0.1331(3)
O3_34 O 0.4649(3) 0.8095(3) 0.1102(3)
O4_34 O 0.3099(2) 0.7401(3) 0.0780(3)
C5_34 C 0.5239(4) 0.6804(4) 0.1029(4)
H3_34 H 0.5418 0.6557 0.1011
C6_34 C 0.3415(4) 0.6262(4) 0.1593(4)
H4_34 H 0.3426 0.6000 0.1748
N3_59 N 0.5000 0.2091(6) 0.1093(4)
N4_35 N 0.7042(3) 0.2958(3) 0.0895(5)
O1_35 O 0.4649(3) 0.1905(3) 0.1102(3)
O2_35 O 0.7401(3) 0.3099(2) 0.0780(3)
C1_35 C 0.5239(4) 0.3196(4) 0.1029(4)
H1_35 H 0.5418 0.3443 0.1011
C2_59 C 0.5000 0.2547(6) 0.1071(4)
C3_35 C 0.6262(4) 0.3415(4) 0.1593(4)
H2_35 H 0.6000 0.3426 0.1748
C4_35 C 0.6787(4) 0.3213(4) 0.1175(5)
N5_35 N 0.4630(3) 0.2799(4) 0.1057(3)
N7_35 N 0.6915(3) 0.3608(3) 0.1331(3)
O3_35 O 0.5351(3) 0.1905(3) 0.1102(3)
O4_35 O 0.6901(2) 0.2599(3) 0.0780(3)
C5_35 C 0.4761(4) 0.3196(4) 0.1029(4)
H3_35 H 0.4582 0.3443 0.1011
C6_35 C 0.6585(4) 0.3738(4) 0.1593(4)
H4_35 H 0.6574 0.4000 0.1748
N3_60 N 0.5000 0.2091(6) 0.8907(4)
N4_36 N 0.2958(3) 0.2958(3) 0.9105(5)
O1_36 O 0.5351(3) 0.1905(3) 0.8898(3)
O2_36 O 0.2599(3) 0.3099(2) 0.9220(3)
C1_36 C 0.4761(4) 0.3196(4) 0.8971(4)
H1_36 H 0.4582 0.3443 0.8989
C2_60 C 0.5000 0.2547(6) 0.8929(4)
C3_36 C 0.3738(4) 0.3415(4) 0.8407(4)
H2_36 H 0.4000 0.3426 0.8252
C4_36 C 0.3213(4) 0.3213(4) 0.8825(5)
N5_36 N 0.5370(3) 0.2799(4) 0.8943(3)
N7_36 N 0.3085(3) 0.3608(3) 0.8669(3)
O3_36 O 0.4649(3) 0.1905(3) 0.8898(3)
O4_36 O 0.3099(2) 0.2599(3) 0.9220(3)
C5_36 C 0.5239(4) 0.3196(4) 0.8971(4)
H3_36 H 0.5418 0.3443 0.8989
C6_36 C 0.3415(4) 0.3738(4) 0.8407(4)
H4_36 H 0.3426 0.4000 0.8252
N3_61 N 0.5000 0.8907(4) 0.2091(6)
N4_37 N 0.7042(3) 0.9105(5) 0.2958(3)
O1_37 O 0.4649(3) 0.8898(3) 0.1905(3)
O2_37 O 0.7401(3) 0.9220(3) 0.3099(2)
C1_37 C 0.5239(4) 0.8971(4) 0.3196(4)
H1_37 H 0.5418 0.8989 0.3443
C2_61 C 0.5000 0.8929(4) 0.2547(6)
C3_37 C 0.6262(4) 0.8407(4) 0.3415(4)
H2_37 H 0.6000 0.8252 0.3426
C4_37 C 0.6787(4) 0.8825(5) 0.3213(4)
N5_37 N 0.4630(3) 0.8943(3) 0.2799(4)
N7_37 N 0.6915(3) 0.8669(3) 0.3608(3)
O3_37 O 0.5351(3) 0.8898(3) 0.1905(3)
O4_37 O 0.6901(2) 0.9220(3) 0.2599(3)
C5_37 C 0.4761(4) 0.8971(4) 0.3196(4)
H3_37 H 0.4582 0.8989 0.3443
C6_37 C 0.6585(4) 0.8407(4) 0.3738(4)
H4_37 H 0.6574 0.8252 0.4000
N3_62 N 0.5000 0.1093(4) 0.2091(6)
N4_38 N 0.2958(3) 0.0895(5) 0.2958(3)
O1_38 O 0.5351(3) 0.1102(3) 0.1905(3)
O2_38 O 0.2599(3) 0.0780(3) 0.3099(2)
C1_38 C 0.4761(4) 0.1029(4) 0.3196(4)
H1_38 H 0.4582 0.1011 0.3443
C2_62 C 0.5000 0.1071(4) 0.2547(6)
C3_38 C 0.3738(4) 0.1593(4) 0.3415(4)
H2_38 H 0.4000 0.1748 0.3426
C4_38 C 0.3213(4) 0.1175(5) 0.3213(4)
N5_38 N 0.5370(3) 0.1057(3) 0.2799(4)
N7_38 N 0.3085(3) 0.1331(3) 0.3608(3)
O3_38 O 0.4649(3) 0.1102(3) 0.1905(3)
O4_38 O 0.3099(2) 0.0780(3) 0.2599(3)
C5_38 C 0.5239(4) 0.1029(4) 0.3196(4)
H3_38 H 0.5418 0.1011 0.3443
C6_38 C 0.3415(4) 0.1593(4) 0.3738(4)
H4_38 H 0.3426 0.1748 0.4000
N3_63 N 0.5000 0.1093(4) 0.7909(6)
N4_39 N 0.7042(3) 0.0895(5) 0.7042(3)
O1_39 O 0.4649(3) 0.1102(3) 0.8095(3)
O2_39 O 0.7401(3) 0.0780(3) 0.6901(2)
C1_39 C 0.5239(4) 0.1029(4) 0.6804(4)
H1_39 H 0.5418 0.1011 0.6557
C2_63 C 0.5000 0.1071(4) 0.7453(6)
C3_39 C 0.6262(4) 0.1593(4) 0.6585(4)
H2_39 H 0.6000 0.1748 0.6574
C4_39 C 0.6787(4) 0.1175(5) 0.6787(4)
N5_39 N 0.4630(3) 0.1057(3) 0.7201(4)
N7_39 N 0.6915(3) 0.1331(3) 0.6392(3)
O3_39 O 0.5351(3) 0.1102(3) 0.8095(3)
O4_39 O 0.6901(2) 0.0780(3) 0.7401(3)
C5_39 C 0.4761(4) 0.1029(4) 0.6804(4)
H3_39 H 0.4582 0.1011 0.6557
C6_39 C 0.6585(4) 0.1593(4) 0.6262(4)
H4_39 H 0.6574 0.1748 0.6000
N3_64 N 0.5000 0.8907(4) 0.7909(6)
N4_40 N 0.2958(3) 0.9105(5) 0.7042(3)
O1_40 O 0.5351(3) 0.8898(3) 0.8095(3)
O2_40 O 0.2599(3) 0.9220(3) 0.6901(2)
C1_40 C 0.4761(4) 0.8971(4) 0.6804(4)
H1_40 H 0.4582 0.8989 0.6557
C2_64 C 0.5000 0.8929(4) 0.7453(6)
C3_40 C 0.3738(4) 0.8407(4) 0.6585(4)
H2_40 H 0.4000 0.8252 0.6574
C4_40 C 0.3213(4) 0.8825(5) 0.6787(4)
N5_40 N 0.5370(3) 0.8943(3) 0.7201(4)
N7_40 N 0.3085(3) 0.8669(3) 0.6392(3)
O3_40 O 0.4649(3) 0.8898(3) 0.8095(3)
O4_40 O 0.3099(2) 0.9220(3) 0.7401(3)
C5_40 C 0.5239(4) 0.8971(4) 0.6804(4)
H3_40 H 0.5418 0.8989 0.6557
C6_40 C 0.3415(4) 0.8407(4) 0.6262(4)
H4_40 H 0.3426 0.8252 0.6000
N3_65 N 0.8907(4) 0.7909(6) 0.5000
N4_41 N 0.9105(5) 0.7042(3) 0.2958(3)
O1_41 O 0.8898(3) 0.8095(3) 0.5351(3)
O2_41 O 0.9220(3) 0.6901(2) 0.2599(3)
C1_41 C 0.8971(4) 0.6804(4) 0.4761(4)
H1_41 H 0.8989 0.6557 0.4582
C2_65 C 0.8929(4) 0.7453(6) 0.5000
C3_41 C 0.8407(4) 0.6585(4) 0.3738(4)
H2_41 H 0.8252 0.6574 0.4000
C4_41 C 0.8825(5) 0.6787(4) 0.3213(4)
N5_41 N 0.8943(3) 0.7201(4) 0.5370(3)
N7_41 N 0.8669(3) 0.6392(3) 0.3085(3)
O3_41 O 0.8898(3) 0.8095(3) 0.4649(3)
O4_41 O 0.9220(3) 0.7401(3) 0.3099(2)
C5_41 C 0.8971(4) 0.6804(4) 0.5239(4)
H3_41 H 0.8989 0.6557 0.5418
C6_41 C 0.8407(4) 0.6262(4) 0.3415(4)
H4_41 H 0.8252 0.6000 0.3426
N3_66 N 0.1093(4) 0.7909(6) 0.5000
N4_42 N 0.0895(5) 0.7042(3) 0.7042(3)
O1_42 O 0.1102(3) 0.8095(3) 0.4649(3)
O2_42 O 0.0780(3) 0.6901(2) 0.7401(3)
C1_42 C 0.1029(4) 0.6804(4) 0.5239(4)
H1_42 H 0.1011 0.6557 0.5418
C2_66 C 0.1071(4) 0.7453(6) 0.5000
C3_42 C 0.1593(4) 0.6585(4) 0.6262(4)
H2_42 H 0.1748 0.6574 0.6000
C4_42 C 0.1175(5) 0.6787(4) 0.6787(4)
N5_42 N 0.1057(3) 0.7201(4) 0.4630(3)
N7_42 N 0.1331(3) 0.6392(3) 0.6915(3)
O3_42 O 0.1102(3) 0.8095(3) 0.5351(3)
O4_42 O 0.0780(3) 0.7401(3) 0.6901(2)
C5_42 C 0.1029(4) 0.6804(4) 0.4761(4)
H3_42 H 0.1011 0.6557 0.4582
C6_42 C 0.1593(4) 0.6262(4) 0.6585(4)
H4_42 H 0.1748 0.6000 0.6574
N3_67 N 0.1093(4) 0.2091(6) 0.5000
N4_43 N 0.0895(5) 0.2958(3) 0.2958(3)
O1_43 O 0.1102(3) 0.1905(3) 0.5351(3)
O2_43 O 0.0780(3) 0.3099(2) 0.2599(3)
C1_43 C 0.1029(4) 0.3196(4) 0.4761(4)
H1_43 H 0.1011 0.3443 0.4582
C2_67 C 0.1071(4) 0.2547(6) 0.5000
C3_43 C 0.1593(4) 0.3415(4) 0.3738(4)
H2_43 H 0.1748 0.3426 0.4000
C4_43 C 0.1175(5) 0.3213(4) 0.3213(4)
N5_43 N 0.1057(3) 0.2799(4) 0.5370(3)
N7_43 N 0.1331(3) 0.3608(3) 0.3085(3)
O3_43 O 0.1102(3) 0.1905(3) 0.4649(3)
O4_43 O 0.0780(3) 0.2599(3) 0.3099(2)
C5_43 C 0.1029(4) 0.3196(4) 0.5239(4)
H3_43 H 0.1011 0.3443 0.5418
C6_43 C 0.1593(4) 0.3738(4) 0.3415(4)
H4_43 H 0.1748 0.4000 0.3426
N3_68 N 0.8907(4) 0.2091(6) 0.5000
N4_44 N 0.9105(5) 0.2958(3) 0.7042(3)
O1_44 O 0.8898(3) 0.1905(3) 0.4649(3)
O2_44 O 0.9220(3) 0.3099(2) 0.7401(3)
C1_44 C 0.8971(4) 0.3196(4) 0.5239(4)
H1_44 H 0.8989 0.3443 0.5418
C2_68 C 0.8929(4) 0.2547(6) 0.5000
C3_44 C 0.8407(4) 0.3415(4) 0.6262(4)
H2_44 H 0.8252 0.3426 0.6000
C4_44 C 0.8825(5) 0.3213(4) 0.6787(4)
N5_44 N 0.8943(3) 0.2799(4) 0.4630(3)
N7_44 N 0.8669(3) 0.3608(3) 0.6915(3)
O3_44 O 0.8898(3) 0.1905(3) 0.5351(3)
O4_44 O 0.9220(3) 0.2599(3) 0.6901(2)
C5_44 C 0.8971(4) 0.3196(4) 0.4761(4)
H3_44 H 0.8989 0.3443 0.4582
C6_44 C 0.8407(4) 0.3738(4) 0.6585(4)
H4_44 H 0.8252 0.4000 0.6574
N3_69 N 0.7909(6) 0.5000 0.1093(4)
N4_45 N 0.7042(3) 0.7042(3) 0.0895(5)
O1_45 O 0.8095(3) 0.4649(3) 0.1102(3)
O2_45 O 0.6901(2) 0.7401(3) 0.0780(3)
C1_45 C 0.6804(4) 0.5239(4) 0.1029(4)
H1_45 H 0.6557 0.5418 0.1011
C2_69 C 0.7453(6) 0.5000 0.1071(4)
C3_45 C 0.6585(4) 0.6262(4) 0.1593(4)
H2_45 H 0.6574 0.6000 0.1748
C4_45 C 0.6787(4) 0.6787(4) 0.1175(5)
N5_45 N 0.7201(4) 0.4630(3) 0.1057(3)
N7_45 N 0.6392(3) 0.6915(3) 0.1331(3)
O3_45 O 0.8095(3) 0.5351(3) 0.1102(3)
O4_45 O 0.7401(3) 0.6901(2) 0.0780(3)
C5_45 C 0.6804(4) 0.4761(4) 0.1029(4)
H3_45 H 0.6557 0.4582 0.1011
C6_45 C 0.6262(4) 0.6585(4) 0.1593(4)
H4_45 H 0.6000 0.6574 0.1748
N3_70 N 0.7909(6) 0.5000 0.8907(4)
N4_46 N 0.7042(3) 0.2958(3) 0.9105(5)
O1_46 O 0.8095(3) 0.5351(3) 0.8898(3)
O2_46 O 0.6901(2) 0.2599(3) 0.9220(3)
C1_46 C 0.6804(4) 0.4761(4) 0.8971(4)
H1_46 H 0.6557 0.4582 0.8989
C2_70 C 0.7453(6) 0.5000 0.8929(4)
C3_46 C 0.6585(4) 0.3738(4) 0.8407(4)
H2_46 H 0.6574 0.4000 0.8252
C4_46 C 0.6787(4) 0.3213(4) 0.8825(5)
N5_46 N 0.7201(4) 0.5370(3) 0.8943(3)
N7_46 N 0.6392(3) 0.3085(3) 0.8669(3)
O3_46 O 0.8095(3) 0.4649(3) 0.8898(3)
O4_46 O 0.7401(3) 0.3099(2) 0.9220(3)
C5_46 C 0.6804(4) 0.5239(4) 0.8971(4)
H3_46 H 0.6557 0.5418 0.8989
C6_46 C 0.6262(4) 0.3415(4) 0.8407(4)
H4_46 H 0.6000 0.3426 0.8252
N3_71 N 0.2091(6) 0.5000 0.8907(4)
N4_47 N 0.2958(3) 0.7042(3) 0.9105(5)
O1_47 O 0.1905(3) 0.4649(3) 0.8898(3)
O2_47 O 0.3099(2) 0.7401(3) 0.9220(3)
C1_47 C 0.3196(4) 0.5239(4) 0.8971(4)
H1_47 H 0.3443 0.5418 0.8989
C2_71 C 0.2547(6) 0.5000 0.8929(4)
C3_47 C 0.3415(4) 0.6262(4) 0.8407(4)
H2_47 H 0.3426 0.6000 0.8252
C4_47 C 0.3213(4) 0.6787(4) 0.8825(5)
N5_47 N 0.2799(4) 0.4630(3) 0.8943(3)
N7_47 N 0.3608(3) 0.6915(3) 0.8669(3)
O3_47 O 0.1905(3) 0.5351(3) 0.8898(3)
O4_47 O 0.2599(3) 0.6901(2) 0.9220(3)
C5_47 C 0.3196(4) 0.4761(4) 0.8971(4)
H3_47 H 0.3443 0.4582 0.8989
C6_47 C 0.3738(4) 0.6585(4) 0.8407(4)
H4_47 H 0.4000 0.6574 0.8252
N3_72 N 0.2091(6) 0.5000 0.1093(4)
N4_48 N 0.2958(3) 0.2958(3) 0.0895(5)
O1_48 O 0.1905(3) 0.5351(3) 0.1102(3)
O2_48 O 0.3099(2) 0.2599(3) 0.0780(3)
C1_48 C 0.3196(4) 0.4761(4) 0.1029(4)
H1_48 H 0.3443 0.4582 0.1011
C2_72 C 0.2547(6) 0.5000 0.1071(4)
C3_48 C 0.3415(4) 0.3738(4) 0.1593(4)
H2_48 H 0.3426 0.4000 0.1748
C4_48 C 0.3213(4) 0.3213(4) 0.1175(5)
N5_48 N 0.2799(4) 0.5370(3) 0.1057(3)
N7_48 N 0.3608(3) 0.3085(3) 0.1331(3)
O3_48 O 0.1905(3) 0.4649(3) 0.1102(3)
O4_48 O 0.2599(3) 0.3099(2) 0.0780(3)
C5_48 C 0.3196(4) 0.5239(4) 0.1029(4)
H3_48 H 0.3443 0.5418 0.1011
C6_48 C 0.3738(4) 0.3415(4) 0.1593(4)
H4_48 H 0.4000 0.3426 0.1748
loop_
_geom_bond_atom_site_label_1
_geom_bond_atom_site_label_2
_geom_bond_site_symmetry_1
_geom_bond_site_symmetry_2
Cd1 N1 1_555 1_555
N1 C1 1_555 1_555
N2 Cd1 1_555 1_555
N4 O2 1_555 1_555
C1 H1 1_555 1_555
C2 N1 1_555 1_555
C3 N2 1_555 1_555
H2 C3 1_555 1_555
C4 N2 1_555 1_555
Cd3 N7 1_555 1_555
N6 Cd1 1_555 1_555
N7 C4 1_555 1_555
N8 Cd1 1_555 1_555
O3 N3 1_555 1_555
O4 N4 1_555 1_555
C6 C3 1_555 1_555
H4 C6 1_555 1_555
N3 C2 1_555 1_555
N4 C4 1_555 1_555
N7 C6 1_555 1_555
N3_2 O1 1_555 1_555
Cd2 N5 1_555 1_555
N5 C2_2 1_555 1_555
H3 C5 1_555 1_555
N3_2 C2_2 1_555 1_555
N5 C5 1_555 1_555
N3_3 O1_2 1_555 1_555
Cd2_2 N5_2 1_555 1_555
N5_2 C2_3 1_555 1_555
H3_2 C5_2 1_555 1_555
N3_3 C2_3 1_555 1_555
N5_2 C5_2 1_555 1_555
Cd1_2 N1_2 1_555 1_555
N1_2 C1_2 1_555 1_555
N2_2 Cd1_2 1_555 1_555
N4_2 O2_2 1_555 1_555
C1_2 H1_2 1_555 1_555
C2_4 N1_2 1_555 1_555
C3_2 N2_2 1_555 1_555
H2_2 C3_2 1_555 1_555
C4_2 N2_2 1_555 1_555
Cd3_2 N7_2 1_555 1_555
N6_2 Cd1_2 1_555 1_555
N7_2 C4_2 1_555 1_555
N8_2 Cd1_2 1_555 1_555
O3_2 N3_4 1_555 1_555
O4_2 N4_2 1_555 1_555
C6_2 C3_2 1_555 1_555
H4_2 C6_2 1_555 1_555
N3_4 C2_4 1_555 1_555
N4_2 C4_2 1_555 1_555
N7_2 C6_2 1_555 1_555
Cd1_3 N1_3 1_555 1_555
N1_3 C1_3 1_555 1_555
N2_3 Cd1_3 1_555 1_555
N4_3 O2_3 1_555 1_555
C1_3 H1_3 1_555 1_555
C2_5 N1_3 1_555 1_555
C3_3 N2_3 1_555 1_555
H2_3 C3_3 1_555 1_555
C4_3 N2_3 1_555 1_555
Cd3_3 N7_3 1_555 1_555
N6_3 Cd1_3 1_555 1_555
N7_3 C4_3 1_555 1_555
N8_3 Cd1_3 1_555 1_555
O3_3 N3_5 1_555 1_555
O4_3 N4_3 1_555 1_555
C6_3 C3_3 1_555 1_555
H4_3 C6_3 1_555 1_555
N3_5 C2_5 1_555 1_555
N4_3 C4_3 1_555 1_555
N7_3 C6_3 1_555 1_555
N3_6 O1_3 1_555 1_555
Cd2_3 N5_3 1_555 1_555
N5_3 C2_6 1_555 1_555
H3_3 C5_3 1_555 1_555
N3_6 C2_6 1_555 1_555
N5_3 C5_3 1_555 1_555
N3_7 O1_4 1_555 1_555
Cd2_4 N5_4 1_555 1_555
N5_4 C2_7 1_555 1_555
H3_4 C5_4 1_555 1_555
N3_7 C2_7 1_555 1_555
N5_4 C5_4 1_555 1_555
Cd1_4 N1_4 1_555 1_555
N1_4 C1_4 1_555 1_555
N2_4 Cd1_4 1_555 1_555
N4_4 O2_4 1_555 1_555
C1_4 H1_4 1_555 1_555
C2_8 N1_4 1_555 1_555
C3_4 N2_4 1_555 1_555
H2_4 C3_4 1_555 1_555
C4_4 N2_4 1_555 1_555
Cd3_4 N7_4 1_555 1_555
N6_4 Cd1_4 1_555 1_555
N7_4 C4_4 1_555 1_555
N8_4 Cd1_4 1_555 1_555
O3_4 N3_8 1_555 1_555
O4_4 N4_4 1_555 1_555
C6_4 C3_4 1_555 1_555
H4_4 C6_4 1_555 1_555
N3_8 C2_8 1_555 1_555
N4_4 C4_4 1_555 1_555
N7_4 C6_4 1_555 1_555
Cd1_5 N1_5 1_555 1_555
N1_5 C1_5 1_555 1_555
N2_5 Cd1_5 1_555 1_555
N4_5 O2_5 1_555 1_555
C1_5 H1_5 1_555 1_555
C2_9 N1_5 1_555 1_555
C3_5 N2_5 1_555 1_555
H2_5 C3_5 1_555 1_555
C4_5 N2_5 1_555 1_555
Cd3_5 N7_5 1_555 1_555
N6_5 Cd1_5 1_555 1_555
N7_5 C4_5 1_555 1_555
N8_5 Cd1_5 1_555 1_555
O3_5 N3_9 1_555 1_555
O4_5 N4_5 1_555 1_555
C6_5 C3_5 1_555 1_555
H4_5 C6_5 1_555 1_555
N3_9 C2_9 1_555 1_555
N4_5 C4_5 1_555 1_555
N7_5 C6_5 1_555 1_555
N3_10 O1_5 1_555 1_555
Cd2_5 N5_5 1_555 1_555
N5_5 C2_10 1_555 1_555
H3_5 C5_5 1_555 1_555
N3_10 C2_10 1_555 1_555
N5_5 C5_5 1_555 1_555
N3_11 O1_6 1_555 1_555
Cd2_6 N5_6 1_555 1_555
N5_6 C2_11 1_555 1_555
H3_6 C5_6 1_555 1_555
N3_11 C2_11 1_555 1_555
N5_6 C5_6 1_555 1_555
Cd1_6 N1_6 1_555 1_555
N1_6 C1_6 1_555 1_555
N2_6 Cd1_6 1_555 1_555
N4_6 O2_6 1_555 1_555
C1_6 H1_6 1_555 1_555
C2_12 N1_6 1_555 1_555
C3_6 N2_6 1_555 1_555
H2_6 C3_6 1_555 1_555
C4_6 N2_6 1_555 1_555
Cd3_6 N7_6 1_555 1_555
N6_6 Cd1_6 1_555 1_555
N7_6 C4_6 1_555 1_555
N8_6 Cd1_6 1_555 1_555
O3_6 N3_12 1_555 1_555
O4_6 N4_6 1_555 1_555
C6_6 C3_6 1_555 1_555
H4_6 C6_6 1_555 1_555
N3_12 C2_12 1_555 1_555
N4_6 C4_6 1_555 1_555
N7_6 C6_6 1_555 1_555
Cd1_7 N1_7 1_555 1_555
N1_7 C1_7 1_555 1_555
N2_7 Cd1_7 1_555 1_555
N4_7 O2_7 1_555 1_555
C1_7 H1_7 1_555 1_555
C2_13 N1_7 1_555 1_555
C3_7 N2_7 1_555 1_555
H2_7 C3_7 1_555 1_555
C4_7 N2_7 1_555 1_555
Cd3_7 N7_7 1_555 1_555
N6_7 Cd1_7 1_555 1_555
N7_7 C4_7 1_555 1_555
N8_7 Cd1_7 1_555 1_555
O3_7 N3_13 1_555 1_555
O4_7 N4_7 1_555 1_555
C6_7 C3_7 1_555 1_555
H4_7 C6_7 1_555 1_555
N3_13 C2_13 1_555 1_555
N4_7 C4_7 1_555 1_555
N7_7 C6_7 1_555 1_555
N3_14 O1_7 1_555 1_555
Cd2_7 N5_7 1_555 1_555
N5_7 C2_14 1_555 1_555
H3_7 C5_7 1_555 1_555
N3_14 C2_14 1_555 1_555
N5_7 C5_7 1_555 1_555
N3_15 O1_8 1_555 1_555
Cd2_8 N5_8 1_555 1_555
N5_8 C2_15 1_555 1_555
H3_8 C5_8 1_555 1_555
N3_15 C2_15 1_555 1_555
N5_8 C5_8 1_555 1_555
Cd1_8 N1_8 1_555 1_555
N1_8 C1_8 1_555 1_555
N2_8 Cd1_8 1_555 1_555
N4_8 O2_8 1_555 1_555
C1_8 H1_8 1_555 1_555
C2_16 N1_8 1_555 1_555
C3_8 N2_8 1_555 1_555
H2_8 C3_8 1_555 1_555
C4_8 N2_8 1_555 1_555
Cd3_8 N7_8 1_555 1_555
N6_8 Cd1_8 1_555 1_555
N7_8 C4_8 1_555 1_555
N8_8 Cd1_8 1_555 1_555
O3_8 N3_16 1_555 1_555
O4_8 N4_8 1_555 1_555
C6_8 C3_8 1_555 1_555
H4_8 C6_8 1_555 1_555
N3_16 C2_16 1_555 1_555
N4_8 C4_8 1_555 1_555
N7_8 C6_8 1_555 1_555
Cd1_9 N1_9 1_555 1_555
N1_9 C1_9 1_555 1_555
N2_9 Cd1_9 1_555 1_555
N4_9 O2_9 1_555 1_555
C1_9 H1_9 1_555 1_555
C2_17 N1_9 1_555 1_555
C3_9 N2_9 1_555 1_555
H2_9 C3_9 1_555 1_555
C4_9 N2_9 1_555 1_555
Cd3_9 N7_9 1_555 1_555
N6_9 Cd1_9 1_555 1_555
N7_9 C4_9 1_555 1_555
N8_9 Cd1_9 1_555 1_555
O3_9 N3_17 1_555 1_555
O4_9 N4_9 1_555 1_555
C6_9 C3_9 1_555 1_555
H4_9 C6_9 1_555 1_555
N3_17 C2_17 1_555 1_555
N4_9 C4_9 1_555 1_555
N7_9 C6_9 1_555 1_555
N3_18 O1_9 1_555 1_555
Cd2_9 N5_9 1_555 1_555
N5_9 C2_18 1_555 1_555
H3_9 C5_9 1_555 1_555
N3_18 C2_18 1_555 1_555
N5_9 C5_9 1_555 1_555
N3_19 O1_10 1_555 1_555
Cd2_10 N5_10 1_555 1_555
N5_10 C2_19 1_555 1_555
H3_10 C5_10 1_555 1_555
N3_19 C2_19 1_555 1_555
N5_10 C5_10 1_555 1_555
Cd1_10 N1_10 1_555 1_555
N1_10 C1_10 1_555 1_555
N2_10 Cd1_10 1_555 1_555
N4_10 O2_10 1_555 1_555
C1_10 H1_10 1_555 1_555
C2_20 N1_10 1_555 1_555
C3_10 N2_10 1_555 1_555
H2_10 C3_10 1_555 1_555
C4_10 N2_10 1_555 1_555
Cd3_10 N7_10 1_555 1_555
N6_10 Cd1_10 1_555 1_555
N7_10 C4_10 1_555 1_555
N8_10 Cd1_10 1_555 1_555
O3_10 N3_20 1_555 1_555
O4_10 N4_10 1_555 1_555
C6_10 C3_10 1_555 1_555
H4_10 C6_10 1_555 1_555
N3_20 C2_20 1_555 1_555
N4_10 C4_10 1_555 1_555
N7_10 C6_10 1_555 1_555
Cd1_11 N1_11 1_555 1_555
N1_11 C1_11 1_555 1_555
N2_11 Cd1_11 1_555 1_555
N4_11 O2_11 1_555 1_555
C1_11 H1_11 1_555 1_555
C2_21 N1_11 1_555 1_555
C3_11 N2_11 1_555 1_555
H2_11 C3_11 1_555 1_555
C4_11 N2_11 1_555 1_555
Cd3_11 N7_11 1_555 1_555
N6_11 Cd1_11 1_555 1_555
N7_11 C4_11 1_555 1_555
N8_11 Cd1_11 1_555 1_555
O3_11 N3_21 1_555 1_555
O4_11 N4_11 1_555 1_555
C6_11 C3_11 1_555 1_555
H4_11 C6_11 1_555 1_555
N3_21 C2_21 1_555 1_555
N4_11 C4_11 1_555 1_555
N7_11 C6_11 1_555 1_555
N3_22 O1_11 1_555 1_555
Cd2_11 N5_11 1_555 1_555
N5_11 C2_22 1_555 1_555
H3_11 C5_11 1_555 1_555
N3_22 C2_22 1_555 1_555
N5_11 C5_11 1_555 1_555
N3_23 O1_12 1_555 1_555
Cd2_12 N5_12 1_555 1_555
N5_12 C2_23 1_555 1_555
H3_12 C5_12 1_555 1_555
N3_23 C2_23 1_555 1_555
N5_12 C5_12 1_555 1_555
Cd1_12 N1_12 1_555 1_555
N1_12 C1_12 1_555 1_555
N2_12 Cd1_12 1_555 1_555
N4_12 O2_12 1_555 1_555
C1_12 H1_12 1_555 1_555
C2_24 N1_12 1_555 1_555
C3_12 N2_12 1_555 1_555
H2_12 C3_12 1_555 1_555
C4_12 N2_12 1_555 1_555
Cd3_12 N7_12 1_555 1_555
N6_12 Cd1_12 1_555 1_555
N7_12 C4_12 1_555 1_555
N8_12 Cd1_12 1_555 1_555
O3_12 N3_24 1_555 1_555
O4_12 N4_12 1_555 1_555
C6_12 C3_12 1_555 1_555
H4_12 C6_12 1_555 1_555
N3_24 C2_24 1_555 1_555
N4_12 C4_12 1_555 1_555
N7_12 C6_12 1_555 1_555
Cd1_13 N1_13 1_555 1_555
N1_13 C1_13 1_555 1_555
N2_13 Cd1_13 1_555 1_555
N4_13 O2_13 1_555 1_555
C1_13 H1_13 1_555 1_555
C2_25 N1_13 1_555 1_555
C3_13 N2_13 1_555 1_555
H2_13 C3_13 1_555 1_555
C4_13 N2_13 1_555 1_555
Cd2_5 N7_13 1_555 1_555
N6_13 Cd1_13 1_555 1_555
N7_13 C4_13 1_555 1_555
N8_13 Cd1_13 1_555 1_555
O3_13 N3_25 1_555 1_555
O4_13 N4_13 1_555 1_555
C6_13 C3_13 1_555 1_555
H4_13 C6_13 1_555 1_555
N3_25 C2_25 1_555 1_555
N4_13 C4_13 1_555 1_555
N7_13 C6_13 1_555 1_555
N3_26 O1_13 1_555 1_555
Cd3_8 N5_13 1_555 1_555
N5_13 C2_26 1_555 1_555
H3_13 C5_13 1_555 1_555
N3_26 C2_26 1_555 1_555
N5_13 C5_13 1_555 1_555
N3_27 O1_14 1_555 1_555
Cd3_6 N5_14 1_555 1_555
N5_14 C2_27 1_555 1_555
H3_14 C5_14 1_555 1_555
N3_27 C2_27 1_555 1_555
N5_14 C5_14 1_555 1_555
Cd1_14 N1_14 1_555 1_555
N1_14 C1_14 1_555 1_555
N2_14 Cd1_14 1_555 1_555
N4_14 O2_14 1_555 1_555
C1_14 H1_14 1_555 1_555
C2_28 N1_14 1_555 1_555
C3_14 N2_14 1_555 1_555
H2_14 C3_14 1_555 1_555
C4_14 N2_14 1_555 1_555
Cd2_7 N7_14 1_555 1_555
N6_14 Cd1_14 1_555 1_555
N7_14 C4_14 1_555 1_555
N8_14 Cd1_14 1_555 1_555
O3_14 N3_28 1_555 1_555
O4_14 N4_14 1_555 1_555
C6_14 C3_14 1_555 1_555
H4_14 C6_14 1_555 1_555
N3_28 C2_28 1_555 1_555
N4_14 C4_14 1_555 1_555
N7_14 C6_14 1_555 1_555
Cd1_15 N1_15 1_555 1_555
N1_15 C1_15 1_555 1_555
N2_15 Cd1_15 1_555 1_555
N4_15 O2_15 1_555 1_555
C1_15 H1_15 1_555 1_555
C2_29 N1_15 1_555 1_555
C3_15 N2_15 1_555 1_555
H2_15 C3_15 1_555 1_555
C4_15 N2_15 1_555 1_555
Cd2_6 N7_15 1_555 1_555
N6_15 Cd1_15 1_555 1_555
N7_15 C4_15 1_555 1_555
N8_15 Cd1_15 1_555 1_555
O3_15 N3_29 1_555 1_555
O4_15 N4_15 1_555 1_555
C6_15 C3_15 1_555 1_555
H4_15 C6_15 1_555 1_555
N3_29 C2_29 1_555 1_555
N4_15 C4_15 1_555 1_555
N7_15 C6_15 1_555 1_555
N3_30 O1_15 1_555 1_555
Cd3_7 N5_15 1_555 1_555
N5_15 C2_30 1_555 1_555
H3_15 C5_15 1_555 1_555
N3_30 C2_30 1_555 1_555
N5_15 C5_15 1_555 1_555
N3_31 O1_16 1_555 1_555
Cd3_5 N5_16 1_555 1_555
N5_16 C2_31 1_555 1_555
H3_16 C5_16 1_555 1_555
N3_31 C2_31 1_555 1_555
N5_16 C5_16 1_555 1_555
Cd1_16 N1_16 1_555 1_555
N1_16 C1_16 1_555 1_555
N2_16 Cd1_16 1_555 1_555
N4_16 O2_16 1_555 1_555
C1_16 H1_16 1_555 1_555
C2_32 N1_16 1_555 1_555
C3_16 N2_16 1_555 1_555
H2_16 C3_16 1_555 1_555
C4_16 N2_16 1_555 1_555
Cd2_8 N7_16 1_555 1_555
N6_16 Cd1_16 1_555 1_555
N7_16 C4_16 1_555 1_555
N8_16 Cd1_16 1_555 1_555
O3_16 N3_32 1_555 1_555
O4_16 N4_16 1_555 1_555
C6_16 C3_16 1_555 1_555
H4_16 C6_16 1_555 1_555
N3_32 C2_32 1_555 1_555
N4_16 C4_16 1_555 1_555
N7_16 C6_16 1_555 1_555
N3_33 O1_17 1_555 1_555
Cd3 N5_17 1_555 1_555
N5_17 C2_33 1_555 1_555
H3_17 C5_17 1_555 1_555
N3_33 C2_33 1_555 1_555
N5_17 C5_17 1_555 1_555
Cd1_17 N1_17 1_555 1_555
N1_17 C1_17 1_555 1_555
N2_17 Cd1_17 1_555 1_555
N4_17 O2_17 1_555 1_555
C1_17 H1_17 1_555 1_555
C2_34 N1_17 1_555 1_555
C3_17 N2_17 1_555 1_555
H2_17 C3_17 1_555 1_555
C4_17 N2_17 1_555 1_555
Cd2_4 N7_17 1_555 1_555
N6_17 Cd1_17 1_555 1_555
N7_17 C4_17 1_555 1_555
N8_17 Cd1_17 1_555 1_555
O3_17 N3_34 1_555 1_555
O4_17 N4_17 1_555 1_555
C6_17 C3_17 1_555 1_555
H4_17 C6_17 1_555 1_555
N3_34 C2_34 1_555 1_555
N4_17 C4_17 1_555 1_555
N7_17 C6_17 1_555 1_555
Cd1_18 N1_18 1_555 1_555
N1_18 C1_18 1_555 1_555
N2_18 Cd1_18 1_555 1_555
N4_18 O2_18 1_555 1_555
C1_18 H1_18 1_555 1_555
C2_35 N1_18 1_555 1_555
C3_18 N2_18 1_555 1_555
H2_18 C3_18 1_555 1_555
C4_18 N2_18 1_555 1_555
Cd2_2 N7_18 1_555 1_555
N6_18 Cd1_18 1_555 1_555
N7_18 C4_18 1_555 1_555
N8_18 Cd1_18 1_555 1_555
O3_18 N3_35 1_555 1_555
O4_18 N4_18 1_555 1_555
C6_18 C3_18 1_555 1_555
H4_18 C6_18 1_555 1_555
N3_35 C2_35 1_555 1_555
N4_18 C4_18 1_555 1_555
N7_18 C6_18 1_555 1_555
N3_36 O1_18 1_555 1_555
Cd3_3 N5_18 1_555 1_555
N5_18 C2_36 1_555 1_555
H3_18 C5_18 1_555 1_555
N3_36 C2_36 1_555 1_555
N5_18 C5_18 1_555 1_555
N3_37 O1_19 1_555 1_555
Cd3_2 N5_19 1_555 1_555
N5_19 C2_37 1_555 1_555
H3_19 C5_19 1_555 1_555
N3_37 C2_37 1_555 1_555
N5_19 C5_19 1_555 1_555
Cd1_19 N1_19 1_555 1_555
N1_19 C1_19 1_555 1_555
N2_19 Cd1_19 1_555 1_555
N4_19 O2_19 1_555 1_555
C1_19 H1_19 1_555 1_555
C2_38 N1_19 1_555 1_555
C3_19 N2_19 1_555 1_555
H2_19 C3_19 1_555 1_555
C4_19 N2_19 1_555 1_555
Cd2_3 N7_19 1_555 1_555
N6_19 Cd1_19 1_555 1_555
N7_19 C4_19 1_555 1_555
N8_19 Cd1_19 1_555 1_555
O3_19 N3_38 1_555 1_555
O4_19 N4_19 1_555 1_555
C6_19 C3_19 1_555 1_555
H4_19 C6_19 1_555 1_555
N3_38 C2_38 1_555 1_555
N4_19 C4_19 1_555 1_555
N7_19 C6_19 1_555 1_555
Cd1_20 N1_20 1_555 1_555
N1_20 C1_20 1_555 1_555
N2_20 Cd1_20 1_555 1_555
N4_20 O2_20 1_555 1_555
C1_20 H1_20 1_555 1_555
C2_39 N1_20 1_555 1_555
C3_20 N2_20 1_555 1_555
H2_20 C3_20 1_555 1_555
C4_20 N2_20 1_555 1_555
Cd2 N7_20 1_555 1_555
N6_20 Cd1_20 1_555 1_555
N7_20 C4_20 1_555 1_555
N8_20 Cd1_20 1_555 1_555
O3_20 N3_39 1_555 1_555
O4_20 N4_20 1_555 1_555
C6_20 C3_20 1_555 1_555
H4_20 C6_20 1_555 1_555
N3_39 C2_39 1_555 1_555
N4_20 C4_20 1_555 1_555
N7_20 C6_20 1_555 1_555
N3_40 O1_20 1_555 1_555
Cd3_4 N5_20 1_555 1_555
N5_20 C2_40 1_555 1_555
H3_20 C5_20 1_555 1_555
N3_40 C2_40 1_555 1_555
N5_20 C5_20 1_555 1_555
Cd1_21 N1_21 1_555 1_555
N1_21 C1_21 1_555 1_555
N2_21 Cd1_21 1_555 1_555
N4_21 O2_21 1_555 1_555
C1_21 H1_21 1_555 1_555
C2_41 N1_21 1_555 1_555
C3_21 N2_21 1_555 1_555
H2_21 C3_21 1_555 1_555
C4_21 N2_21 1_555 1_555
Cd2_10 N7_21 1_555 1_555
N6_21 Cd1_21 1_555 1_555
N7_21 C4_21 1_555 1_555
N8_21 Cd1_21 1_555 1_555
O3_21 N3_41 1_555 1_555
O4_21 N4_21 1_555 1_555
C6_21 C3_21 1_555 1_555
H4_21 C6_21 1_555 1_555
N3_41 C2_41 1_555 1_555
N4_21 C4_21 1_555 1_555
N7_21 C6_21 1_555 1_555
N3_42 O1_21 1_555 1_555
Cd3_11 N5_21 1_555 1_555
N5_21 C2_42 1_555 1_555
H3_21 C5_21 1_555 1_555
N3_42 C2_42 1_555 1_555
N5_21 C5_21 1_555 1_555
N3_43 O1_22 1_555 1_555
Cd3_9 N5_22 1_555 1_555
N5_22 C2_43 1_555 1_555
H3_22 C5_22 1_555 1_555
N3_43 C2_43 1_555 1_555
N5_22 C5_22 1_555 1_555
Cd1_22 N1_22 1_555 1_555
N1_22 C1_22 1_555 1_555
N2_22 Cd1_22 1_555 1_555
N4_22 O2_22 1_555 1_555
C1_22 H1_22 1_555 1_555
C2_44 N1_22 1_555 1_555
C3_22 N2_22 1_555 1_555
H2_22 C3_22 1_555 1_555
C4_22 N2_22 1_555 1_555
Cd2_12 N7_22 1_555 1_555
N6_22 Cd1_22 1_555 1_555
N7_22 C4_22 1_555 1_555
N8_22 Cd1_22 1_555 1_555
O3_22 N3_44 1_555 1_555
O4_22 N4_22 1_555 1_555
C6_22 C3_22 1_555 1_555
H4_22 C6_22 1_555 1_555
N3_44 C2_44 1_555 1_555
N4_22 C4_22 1_555 1_555
N7_22 C6_22 1_555 1_555
Cd1_23 N1_23 1_555 1_555
N1_23 C1_23 1_555 1_555
N2_23 Cd1_23 1_555 1_555
N4_23 O2_23 1_555 1_555
C1_23 H1_23 1_555 1_555
C2_45 N1_23 1_555 1_555
C3_23 N2_23 1_555 1_555
H2_23 C3_23 1_555 1_555
C4_23 N2_23 1_555 1_555
Cd2_9 N7_23 1_555 1_555
N6_23 Cd1_23 1_555 1_555
N7_23 C4_23 1_555 1_555
N8_23 Cd1_23 1_555 1_555
O3_23 N3_45 1_555 1_555
O4_23 N4_23 1_555 1_555
C6_23 C3_23 1_555 1_555
H4_23 C6_23 1_555 1_555
N3_45 C2_45 1_555 1_555
N4_23 C4_23 1_555 1_555
N7_23 C6_23 1_555 1_555
N3_46 O1_23 1_555 1_555
Cd3_12 N5_23 1_555 1_555
N5_23 C2_46 1_555 1_555
H3_23 C5_23 1_555 1_555
N3_46 C2_46 1_555 1_555
N5_23 C5_23 1_555 1_555
N3_47 O1_24 1_555 1_555
Cd3_10 N5_24 1_555 1_555
N5_24 C2_47 1_555 1_555
H3_24 C5_24 1_555 1_555
N3_47 C2_47 1_555 1_555
N5_24 C5_24 1_555 1_555
Cd1_24 N1_24 1_555 1_555
N1_24 C1_24 1_555 1_555
N2_24 Cd1_24 1_555 1_555
N4_24 O2_24 1_555 1_555
C1_24 H1_24 1_555 1_555
C2_48 N1_24 1_555 1_555
C3_24 N2_24 1_555 1_555
H2_24 C3_24 1_555 1_555
C4_24 N2_24 1_555 1_555
Cd2_11 N7_24 1_555 1_555
N6_24 Cd1_24 1_555 1_555
N7_24 C4_24 1_555 1_555
N8_24 Cd1_24 1_555 1_555
O3_24 N3_48 1_555 1_555
O4_24 N4_24 1_555 1_555
C6_24 C3_24 1_555 1_555
H4_24 C6_24 1_555 1_555
N3_48 C2_48 1_555 1_555
N4_24 C4_24 1_555 1_555
N7_24 C6_24 1_555 1_555
N6_14 C1_25 1_555 1_555
N3_49 O1_25 1_555 1_555
N4_25 O2_25 1_555 1_555
C1_25 H1_25 1_555 1_555
C2_49 N6_14 1_555 1_555
C3_25 N8_14 1_555 1_555
H2_25 C3_25 1_555 1_555
C4_25 N8_14 1_555 1_555
Cd3_8 N5_25 1_555 1_555
Cd2_11 N7_25 1_555 1_555
N5_25 C2_49 1_555 1_555
N7_25 C4_25 1_555 1_555
O3_25 N3_49 1_555 1_555
O4_25 N4_25 1_555 1_555
C5_25 C1_25 1_555 1_555
H3_25 C5_25 1_555 1_555
C6_25 C3_25 1_555 1_555
H4_25 C6_25 1_555 1_555
N3_49 C2_49 1_555 1_555
N4_25 C4_25 1_555 1_555
N5_25 C5_25 1_555 1_555
N7_25 C6_25 1_555 1_555
N6_13 C1_26 1_555 1_555
N3_50 O1_26 1_555 1_555
N4_26 O2_26 1_555 1_555
C1_26 H1_26 1_555 1_555
C2_50 N6_13 1_555 1_555
C3_26 N8_13 1_555 1_555
H2_26 C3_26 1_555 1_555
C4_26 N8_13 1_555 1_555
Cd3_6 N5_26 1_555 1_555
Cd2_10 N7_26 1_555 1_555
N5_26 C2_50 1_555 1_555
N7_26 C4_26 1_555 1_555
O3_26 N3_50 1_555 1_555
O4_26 N4_26 1_555 1_555
C5_26 C1_26 1_555 1_555
H3_26 C5_26 1_555 1_555
C6_26 C3_26 1_555 1_555
H4_26 C6_26 1_555 1_555
N3_50 C2_50 1_555 1_555
N4_26 C4_26 1_555 1_555
N5_26 C5_26 1_555 1_555
N7_26 C6_26 1_555 1_555
N6_15 C1_27 1_555 1_555
N3_51 O1_27 1_555 1_555
N4_27 O2_27 1_555 1_555
C1_27 H1_27 1_555 1_555
C2_51 N6_15 1_555 1_555
C3_27 N8_15 1_555 1_555
H2_27 C3_27 1_555 1_555
C4_27 N8_15 1_555 1_555
Cd3_5 N5_27 1_555 1_555
Cd2_12 N7_27 1_555 1_555
N5_27 C2_51 1_555 1_555
N7_27 C4_27 1_555 1_555
O3_27 N3_51 1_555 1_555
O4_27 N4_27 1_555 1_555
C5_27 C1_27 1_555 1_555
H3_27 C5_27 1_555 1_555
C6_27 C3_27 1_555 1_555
H4_27 C6_27 1_555 1_555
N3_51 C2_51 1_555 1_555
N4_27 C4_27 1_555 1_555
N5_27 C5_27 1_555 1_555
N7_27 C6_27 1_555 1_555
N6_16 C1_28 1_555 1_555
N3_52 O1_28 1_555 1_555
N4_28 O2_28 1_555 1_555
C1_28 H1_28 1_555 1_555
C2_52 N6_16 1_555 1_555
C3_28 N8_16 1_555 1_555
H2_28 C3_28 1_555 1_555
C4_28 N8_16 1_555 1_555
Cd3_7 N5_28 1_555 1_555
Cd2_9 N7_28 1_555 1_555
N5_28 C2_52 1_555 1_555
N7_28 C4_28 1_555 1_555
O3_28 N3_52 1_555 1_555
O4_28 N4_28 1_555 1_555
C5_28 C1_28 1_555 1_555
H3_28 C5_28 1_555 1_555
C6_28 C3_28 1_555 1_555
H4_28 C6_28 1_555 1_555
N3_52 C2_52 1_555 1_555
N4_28 C4_28 1_555 1_555
N5_28 C5_28 1_555 1_555
N7_28 C6_28 1_555 1_555
N6_24 C1_29 1_555 1_555
N3_53 O1_29 1_555 1_555
N4_29 O2_29 1_555 1_555
C1_29 H1_29 1_555 1_555
C2_53 N6_24 1_555 1_555
C3_29 N8_24 1_555 1_555
H2_29 C3_29 1_555 1_555
C4_29 N8_24 1_555 1_555
Cd3_12 N5_29 1_555 1_555
Cd2_3 N7_29 1_555 1_555
N5_29 C2_53 1_555 1_555
N7_29 C4_29 1_555 1_555
O3_29 N3_53 1_555 1_555
O4_29 N4_29 1_555 1_555
C5_29 C1_29 1_555 1_555
H3_29 C5_29 1_555 1_555
C6_29 C3_29 1_555 1_555
H4_29 C6_29 1_555 1_555
N3_53 C2_53 1_555 1_555
N4_29 C4_29 1_555 1_555
N5_29 C5_29 1_555 1_555
N7_29 C6_29 1_555 1_555
N6_23 C1_30 1_555 1_555
N3_54 O1_30 1_555 1_555
N4_30 O2_30 1_555 1_555
C1_30 H1_30 1_555 1_555
C2_54 N6_23 1_555 1_555
C3_30 N8_23 1_555 1_555
H2_30 C3_30 1_555 1_555
C4_30 N8_23 1_555 1_555
Cd3_10 N5_30 1_555 1_555
Cd2_2 N7_30 1_555 1_555
N5_30 C2_54 1_555 1_555
N7_30 C4_30 1_555 1_555
O3_30 N3_54 1_555 1_555
O4_30 N4_30 1_555 1_555
C5_30 C1_30 1_555 1_555
H3_30 C5_30 1_555 1_555
C6_30 C3_30 1_555 1_555
H4_30 C6_30 1_555 1_555
N3_54 C2_54 1_555 1_555
N4_30 C4_30 1_555 1_555
N5_30 C5_30 1_555 1_555
N7_30 C6_30 1_555 1_555
N6_21 C1_31 1_555 1_555
N3_55 O1_31 1_555 1_555
N4_31 O2_31 1_555 1_555
C1_31 H1_31 1_555 1_555
C2_55 N6_21 1_555 1_555
C3_31 N8_21 1_555 1_555
H2_31 C3_31 1_555 1_555
C4_31 N8_21 1_555 1_555
Cd3_9 N5_31 1_555 1_555
Cd2_4 N7_31 1_555 1_555
N5_31 C2_55 1_555 1_555
N7_31 C4_31 1_555 1_555
O3_31 N3_55 1_555 1_555
O4_31 N4_31 1_555 1_555
C5_31 C1_31 1_555 1_555
H3_31 C5_31 1_555 1_555
C6_31 C3_31 1_555 1_555
H4_31 C6_31 1_555 1_555
N3_55 C2_55 1_555 1_555
N4_31 C4_31 1_555 1_555
N5_31 C5_31 1_555 1_555
N7_31 C6_31 1_555 1_555
N6_22 C1_32 1_555 1_555
N3_56 O1_32 1_555 1_555
N4_32 O2_32 1_555 1_555
C1_32 H1_32 1_555 1_555
C2_56 N6_22 1_555 1_555
C3_32 N8_22 1_555 1_555
H2_32 C3_32 1_555 1_555
C4_32 N8_22 1_555 1_555
Cd3_11 N5_32 1_555 1_555
Cd2 N7_32 1_555 1_555
N5_32 C2_56 1_555 1_555
N7_32 C4_32 1_555 1_555
O3_32 N3_56 1_555 1_555
O4_32 N4_32 1_555 1_555
C5_32 C1_32 1_555 1_555
H3_32 C5_32 1_555 1_555
C6_32 C3_32 1_555 1_555
H4_32 C6_32 1_555 1_555
N3_56 C2_56 1_555 1_555
N4_32 C4_32 1_555 1_555
N5_32 C5_32 1_555 1_555
N7_32 C6_32 1_555 1_555
N6_19 C1_33 1_555 1_555
N3_57 O1_33 1_555 1_555
N4_33 O2_33 1_555 1_555
C1_33 H1_33 1_555 1_555
C2_57 N6_19 1_555 1_555
C3_33 N8_19 1_555 1_555
H2_33 C3_33 1_555 1_555
C4_33 N8_19 1_555 1_555
Cd3_4 N5_33 1_555 1_555
Cd2_7 N7_33 1_555 1_555
N5_33 C2_57 1_555 1_555
N7_33 C4_33 1_555 1_555
O3_33 N3_57 1_555 1_555
O4_33 N4_33 1_555 1_555
C5_33 C1_33 1_555 1_555
H3_33 C5_33 1_555 1_555
C6_33 C3_33 1_555 1_555
H4_33 C6_33 1_555 1_555
N3_57 C2_57 1_555 1_555
N4_33 C4_33 1_555 1_555
N5_33 C5_33 1_555 1_555
N7_33 C6_33 1_555 1_555
N6_20 C1_34 1_555 1_555
N3_58 O1_34 1_555 1_555
N4_34 O2_34 1_555 1_555
C1_34 H1_34 1_555 1_555
C2_58 N6_20 1_555 1_555
C3_34 N8_20 1_555 1_555
H2_34 C3_34 1_555 1_555
C4_34 N8_20 1_555 1_555
Cd3_2 N5_34 1_555 1_555
Cd2_6 N7_34 1_555 1_555
N5_34 C2_58 1_555 1_555
N7_34 C4_34 1_555 1_555
O3_34 N3_58 1_555 1_555
O4_34 N4_34 1_555 1_555
C5_34 C1_34 1_555 1_555
H3_34 C5_34 1_555 1_555
C6_34 C3_34 1_555 1_555
H4_34 C6_34 1_555 1_555
N3_58 C2_58 1_555 1_555
N4_34 C4_34 1_555 1_555
N5_34 C5_34 1_555 1_555
N7_34 C6_34 1_555 1_555
N6_18 C1_35 1_555 1_555
N3_59 O1_35 1_555 1_555
N4_35 O2_35 1_555 1_555
C1_35 H1_35 1_555 1_555
C2_59 N6_18 1_555 1_555
C3_35 N8_18 1_555 1_555
H2_35 C3_35 1_555 1_555
C4_35 N8_18 1_555 1_555
Cd3 N5_35 1_555 1_555
Cd2_8 N7_35 1_555 1_555
N5_35 C2_59 1_555 1_555
N7_35 C4_35 1_555 1_555
O3_35 N3_59 1_555 1_555
O4_35 N4_35 1_555 1_555
C5_35 C1_35 1_555 1_555
H3_35 C5_35 1_555 1_555
C6_35 C3_35 1_555 1_555
H4_35 C6_35 1_555 1_555
N3_59 C2_59 1_555 1_555
N4_35 C4_35 1_555 1_555
N5_35 C5_35 1_555 1_555
N7_35 C6_35 1_555 1_555
N6_17 C1_36 1_555 1_555
N3_60 O1_36 1_555 1_555
N4_36 O2_36 1_555 1_555
C1_36 H1_36 1_555 1_555
C2_60 N6_17 1_555 1_555
C3_36 N8_17 1_555 1_555
H2_36 C3_36 1_555 1_555
C4_36 N8_17 1_555 1_555
Cd3_3 N5_36 1_555 1_555
Cd2_5 N7_36 1_555 1_555
N5_36 C2_60 1_555 1_555
N7_36 C4_36 1_555 1_555
O3_36 N3_60 1_555 1_555
O4_36 N4_36 1_555 1_555
C5_36 C1_36 1_555 1_555
H3_36 C5_36 1_555 1_555
C6_36 C3_36 1_555 1_555
H4_36 C6_36 1_555 1_555
N3_60 C2_60 1_555 1_555
N4_36 C4_36 1_555 1_555
N5_36 C5_36 1_555 1_555
N7_36 C6_36 1_555 1_555
N6_2 C1_37 1_555 1_555
N3_61 O1_37 1_555 1_555
N4_37 O2_37 1_555 1_555
C1_37 H1_37 1_555 1_555
C2_61 N6_2 1_555 1_555
C3_37 N8_2 1_555 1_555
H2_37 C3_37 1_555 1_555
C4_37 N8_2 1_555 1_555
Cd2 N5_37 1_555 1_555
Cd3_12 N7_37 1_555 1_555
N5_37 C2_61 1_555 1_555
N7_37 C4_37 1_555 1_555
O3_37 N3_61 1_555 1_555
O4_37 N4_37 1_555 1_555
C5_37 C1_37 1_555 1_555
H3_37 C5_37 1_555 1_555
C6_37 C3_37 1_555 1_555
H4_37 C6_37 1_555 1_555
N3_61 C2_61 1_555 1_555
N4_37 C4_37 1_555 1_555
N5_37 C5_37 1_555 1_555
N7_37 C6_37 1_555 1_555
N6 C1_38 1_555 1_555
N3_62 O1_38 1_555 1_555
N4_38 O2_38 1_555 1_555
C1_38 H1_38 1_555 1_555
C2_62 N6 1_555 1_555
C3_38 N8 1_555 1_555
H2_38 C3_38 1_555 1_555
C4_38 N8 1_555 1_555
Cd2_2 N5_38 1_555 1_555
Cd3_9 N7_38 1_555 1_555
N5_38 C2_62 1_555 1_555
N7_38 C4_38 1_555 1_555
O3_38 N3_62 1_555 1_555
O4_38 N4_38 1_555 1_555
C5_38 C1_38 1_555 1_555
H3_38 C5_38 1_555 1_555
C6_38 C3_38 1_555 1_555
H4_38 C6_38 1_555 1_555
N3_62 C2_62 1_555 1_555
N4_38 C4_38 1_555 1_555
N5_38 C5_38 1_555 1_555
N7_38 C6_38 1_555 1_555
N6_3 C1_39 1_555 1_555
N3_63 O1_39 1_555 1_555
N4_39 O2_39 1_555 1_555
C1_39 H1_39 1_555 1_555
C2_63 N6_3 1_555 1_555
C3_39 N8_3 1_555 1_555
H2_39 C3_39 1_555 1_555
C4_39 N8_3 1_555 1_555
Cd2_4 N5_39 1_555 1_555
Cd3_10 N7_39 1_555 1_555
N5_39 C2_63 1_555 1_555
N7_39 C4_39 1_555 1_555
O3_39 N3_63 1_555 1_555
O4_39 N4_39 1_555 1_555
C5_39 C1_39 1_555 1_555
H3_39 C5_39 1_555 1_555
C6_39 C3_39 1_555 1_555
H4_39 C6_39 1_555 1_555
N3_63 C2_63 1_555 1_555
N4_39 C4_39 1_555 1_555
N5_39 C5_39 1_555 1_555
N7_39 C6_39 1_555 1_555
N6_4 C1_40 1_555 1_555
N3_64 O1_40 1_555 1_555
N4_40 O2_40 1_555 1_555
C1_40 H1_40 1_555 1_555
C2_64 N6_4 1_555 1_555
C3_40 N8_4 1_555 1_555
H2_40 C3_40 1_555 1_555
C4_40 N8_4 1_555 1_555
Cd2_3 N5_40 1_555 1_555
Cd3_11 N7_40 1_555 1_555
N5_40 C2_64 1_555 1_555
N7_40 C4_40 1_555 1_555
O3_40 N3_64 1_555 1_555
O4_40 N4_40 1_555 1_555
C5_40 C1_40 1_555 1_555
H3_40 C5_40 1_555 1_555
C6_40 C3_40 1_555 1_555
H4_40 C6_40 1_555 1_555
N3_64 C2_64 1_555 1_555
N4_40 C4_40 1_555 1_555
N5_40 C5_40 1_555 1_555
N7_40 C6_40 1_555 1_555
N6_12 C1_41 1_555 1_555
N3_65 O1_41 1_555 1_555
N4_41 O2_41 1_555 1_555
C1_41 H1_41 1_555 1_555
C2_65 N6_12 1_555 1_555
C3_41 N8_12 1_555 1_555
H2_41 C3_41 1_555 1_555
C4_41 N8_12 1_555 1_555
Cd2_11 N5_41 1_555 1_555
Cd3_7 N7_41 1_555 1_555
N5_41 C2_65 1_555 1_555
N7_41 C4_41 1_555 1_555
O3_41 N3_65 1_555 1_555
O4_41 N4_41 1_555 1_555
C5_41 C1_41 1_555 1_555
H3_41 C5_41 1_555 1_555
C6_41 C3_41 1_555 1_555
H4_41 C6_41 1_555 1_555
N3_65 C2_65 1_555 1_555
N4_41 C4_41 1_555 1_555
N5_41 C5_41 1_555 1_555
N7_41 C6_41 1_555 1_555
N6_11 C1_42 1_555 1_555
N3_66 O1_42 1_555 1_555
N4_42 O2_42 1_555 1_555
C1_42 H1_42 1_555 1_555
C2_66 N6_11 1_555 1_555
C3_42 N8_11 1_555 1_555
H2_42 C3_42 1_555 1_555
C4_42 N8_11 1_555 1_555
Cd2_12 N5_42 1_555 1_555
Cd3_6 N7_42 1_555 1_555
N5_42 C2_66 1_555 1_555
N7_42 C4_42 1_555 1_555
O3_42 N3_66 1_555 1_555
O4_42 N4_42 1_555 1_555
C5_42 C1_42 1_555 1_555
H3_42 C5_42 1_555 1_555
C6_42 C3_42 1_555 1_555
H4_42 C6_42 1_555 1_555
N3_66 C2_66 1_555 1_555
N4_42 C4_42 1_555 1_555
N5_42 C5_42 1_555 1_555
N7_42 C6_42 1_555 1_555
N6_9 C1_43 1_555 1_555
N3_67 O1_43 1_555 1_555
N4_43 O2_43 1_555 1_555
C1_43 H1_43 1_555 1_555
C2_67 N6_9 1_555 1_555
C3_43 N8_9 1_555 1_555
H2_43 C3_43 1_555 1_555
C4_43 N8_9 1_555 1_555
Cd2_10 N5_43 1_555 1_555
Cd3_5 N7_43 1_555 1_555
N5_43 C2_67 1_555 1_555
N7_43 C4_43 1_555 1_555
O3_43 N3_67 1_555 1_555
O4_43 N4_43 1_555 1_555
C5_43 C1_43 1_555 1_555
H3_43 C5_43 1_555 1_555
C6_43 C3_43 1_555 1_555
H4_43 C6_43 1_555 1_555
N3_67 C2_67 1_555 1_555
N4_43 C4_43 1_555 1_555
N5_43 C5_43 1_555 1_555
N7_43 C6_43 1_555 1_555
N6_10 C1_44 1_555 1_555
N3_68 O1_44 1_555 1_555
N4_44 O2_44 1_555 1_555
C1_44 H1_44 1_555 1_555
C2_68 N6_10 1_555 1_555
C3_44 N8_10 1_555 1_555
H2_44 C3_44 1_555 1_555
C4_44 N8_10 1_555 1_555
Cd2_9 N5_44 1_555 1_555
Cd3_8 N7_44 1_555 1_555
N5_44 C2_68 1_555 1_555
N7_44 C4_44 1_555 1_555
O3_44 N3_68 1_555 1_555
O4_44 N4_44 1_555 1_555
C5_44 C1_44 1_555 1_555
H3_44 C5_44 1_555 1_555
C6_44 C3_44 1_555 1_555
H4_44 C6_44 1_555 1_555
N3_68 C2_68 1_555 1_555
N4_44 C4_44 1_555 1_555
N5_44 C5_44 1_555 1_555
N7_44 C6_44 1_555 1_555
N6_7 C1_45 1_555 1_555
N3_69 O1_45 1_555 1_555
N4_45 O2_45 1_555 1_555
C1_45 H1_45 1_555 1_555
C2_69 N6_7 1_555 1_555
C3_45 N8_7 1_555 1_555
H2_45 C3_45 1_555 1_555
C4_45 N8_7 1_555 1_555
Cd2_8 N5_45 1_555 1_555
Cd3_2 N7_45 1_555 1_555
N5_45 C2_69 1_555 1_555
N7_45 C4_45 1_555 1_555
O3_45 N3_69 1_555 1_555
O4_45 N4_45 1_555 1_555
C5_45 C1_45 1_555 1_555
H3_45 C5_45 1_555 1_555
C6_45 C3_45 1_555 1_555
H4_45 C6_45 1_555 1_555
N3_69 C2_69 1_555 1_555
N4_45 C4_45 1_555 1_555
N5_45 C5_45 1_555 1_555
N7_45 C6_45 1_555 1_555
N6_8 C1_46 1_555 1_555
N3_70 O1_46 1_555 1_555
N4_46 O2_46 1_555 1_555
C1_46 H1_46 1_555 1_555
C2_70 N6_8 1_555 1_555
C3_46 N8_8 1_555 1_555
H2_46 C3_46 1_555 1_555
C4_46 N8_8 1_555 1_555
Cd2_7 N5_46 1_555 1_555
Cd3_3 N7_46 1_555 1_555
N5_46 C2_70 1_555 1_555
N7_46 C4_46 1_555 1_555
O3_46 N3_70 1_555 1_555
O4_46 N4_46 1_555 1_555
C5_46 C1_46 1_555 1_555
H3_46 C5_46 1_555 1_555
C6_46 C3_46 1_555 1_555
H4_46 C6_46 1_555 1_555
N3_70 C2_70 1_555 1_555
N4_46 C4_46 1_555 1_555
N5_46 C5_46 1_555 1_555
N7_46 C6_46 1_555 1_555
N6_6 C1_47 1_555 1_555
N3_71 O1_47 1_555 1_555
N4_47 O2_47 1_555 1_555
C1_47 H1_47 1_555 1_555
C2_71 N6_6 1_555 1_555
C3_47 N8_6 1_555 1_555
H2_47 C3_47 1_555 1_555
C4_47 N8_6 1_555 1_555
Cd2_5 N5_47 1_555 1_555
Cd3_4 N7_47 1_555 1_555
N5_47 C2_71 1_555 1_555
N7_47 C4_47 1_555 1_555
O3_47 N3_71 1_555 1_555
O4_47 N4_47 1_555 1_555
C5_47 C1_47 1_555 1_555
H3_47 C5_47 1_555 1_555
C6_47 C3_47 1_555 1_555
H4_47 C6_47 1_555 1_555
N3_71 C2_71 1_555 1_555
N4_47 C4_47 1_555 1_555
N5_47 C5_47 1_555 1_555
N7_47 C6_47 1_555 1_555
N6_5 C1_48 1_555 1_555
N3_72 O1_48 1_555 1_555
N4_48 O2_48 1_555 1_555
C1_48 H1_48 1_555 1_555
C2_72 N6_5 1_555 1_555
C3_48 N8_5 1_555 1_555
H2_48 C3_48 1_555 1_555
C4_48 N8_5 1_555 1_555
Cd2_6 N5_48 1_555 1_555
Cd3 N7_48 1_555 1_555
N5_48 C2_72 1_555 1_555
N7_48 C4_48 1_555 1_555
O3_48 N3_72 1_555 1_555
O4_48 N4_48 1_555 1_555
C5_48 C1_48 1_555 1_555
H3_48 C5_48 1_555 1_555
C6_48 C3_48 1_555 1_555
H4_48 C6_48 1_555 1_555
N3_72 C2_72 1_555 1_555
N4_48 C4_48 1_555 1_555
N5_48 C5_48 1_555 1_555
N7_48 C6_48 1_555 1_555

#END
