
###############################################################################
#
# This file contains modified crystal structure data generated from the
# MOF subset of the Cambridge Structural Database (CSD) v543 
# hosted by the Cambridge Crystallographic Data Centre (CCDC).
#
# This work is licensed under the Creative Commons
# Attribution-NonCommercial-ShareAlike 4.0 International License.
# To view a copy of this license, visit
# http://creativecommons.org/licenses/by-nc-sa/4.0/
# or send a letter to
# Creative Commons, PO Box 1866, Mountain View, CA 94042, USA.
#
# CIF created using the CSD Python API on 29 September 2022
# The structure has been converted into the P1 space group
# The structure has a 3D framework
# The original CSD entry GUPDIF is in the cubic crystal system
# The framework has been calculated to contain at least 10.0% void space
# The void calculation uses a probe of radius 1.32A, grid spacing 0.4
#
###############################################################################

data_GUPDIF
_chemical_formula_moiety         '(C576 H864 Cd24 N174)n'
_symmetry_cell_setting           triclinic
_symmetry_space_group_name_H-M   'P 1'
_symmetry_Int_Tables_number      1
_space_group_name_Hall           'P 1'
loop_
_symmetry_equiv_pos_site_id
_symmetry_equiv_pos_as_xyz
1 x,y,z
_cell_length_a                   28.0174(7)
_cell_length_b                   28.0174(7)
_cell_length_c                   28.0174(7)
_cell_angle_alpha                90
_cell_angle_beta                 90
_cell_angle_gamma                90
_cell_volume                     21993
loop_
_atom_site_label
_atom_site_type_symbol
_atom_site_fract_x
_atom_site_fract_y
_atom_site_fract_z
Cd1 Cd 0.1250 0.660460(11) 0.589540(11)
C1 C 0.1235(5) 0.5373(3) 0.5172(4)
H1 H 0.1020 0.5293 0.4913
H2 H 0.1049 0.5499 0.5435
N1 N 0.12130(14) 0.65271(14) 0.51119(14)
C2 C 0.1522(12) 0.4921(5) 0.5334(8)
H3 H 0.1304 0.4681 0.5443
H4 H 0.1735 0.5007 0.5588
H5 H 0.1703 0.4800 0.5069
N2 N 0.13206(14) 0.62822(13) 0.43717(13)
C3 C 0.10406(19) 0.68719(19) 0.48115(18)
H6 H 0.0901 0.7158 0.4904
C4 C 0.1107(2) 0.67247(19) 0.43560(19)
H7 H 0.1024 0.6892 0.4082
C5 C 0.1592(3) 0.5729(2) 0.5012(2)
H8 H 0.1784 0.5589 0.4760
H9 H 0.1803 0.5802 0.5276
C6 C 0.13784(16) 0.61850(16) 0.48311(16)
Cd2 Cd 0.160460(11) 0.589540(11) 0.3750
H10 H 0.0087 0.6020 0.5293
N4 N 0.12870(14) 0.73881(14) 0.59729(14)
N5 N 0.06283(13) 0.63206(14) 0.62822(13)
N6 N 0.18717(13) 0.62178(13) 0.61794(14)
C9 C 0.01885(18) 0.60406(19) 0.68719(19)
H15 H 0.0096 0.5901 0.7158
C10 C 0.06440(19) 0.6107(2) 0.67247(19)
H16 H 0.0918 0.6024 0.6892
H17 H 0.0240 0.6784 0.5589
C12 C 0.01689(16) 0.63784(16) 0.61850(16)
Cd3 Cd 0.910460(11) 0.6250 0.660460(11)
C7 C 0.9828(4) 0.6235(5) 0.5373(3)
H11 H 0.9565 0.6049 0.5499
N3 N 0.98881(14) 0.62130(14) 0.65271(14)
C8 C 0.9666(8) 0.6522(12) 0.4921(5)
H12 H 0.9557 0.6304 0.4681
H13 H 0.9412 0.6735 0.5007
H14 H 0.9931 0.6703 0.4800
C11 C 0.9988(2) 0.6592(3) 0.5729(2)
H18 H 0.9724 0.6803 0.5802
Cd1_2 Cd 0.3750 0.339540(11) 0.089540(11)
C1_2 C 0.3765(5) 0.4627(3) 0.0172(4)
H2_2 H 0.3951 0.4501 0.0435
N1_2 N 0.37870(14) 0.34729(14) 0.01119(14)
C2_2 C 0.3478(12) 0.5079(5) 0.0334(8)
H3_2 H 0.3696 0.5319 0.0443
H4_2 H 0.3265 0.4993 0.0588
H5_2 H 0.3297 0.5200 0.0069
C5_2 C 0.3408(3) 0.4271(2) 0.0012(2)
H9_2 H 0.3197 0.4198 0.0276
Cd3_2 Cd 0.589540(11) 0.3750 0.160460(11)
C7_2 C 0.5172(4) 0.3765(5) 0.0373(3)
H10_2 H 0.4913 0.3980 0.0293
H11_2 H 0.5435 0.3951 0.0499
N3_2 N 0.51119(14) 0.37870(14) 0.15271(14)
N4_2 N 0.37130(14) 0.26119(14) 0.09729(14)
H13_2 H 0.5588 0.3265 0.0007
N5_2 N 0.43717(13) 0.36794(14) 0.12822(13)
N6_2 N 0.31283(13) 0.37822(13) 0.11794(14)
C9_2 C 0.48115(18) 0.39594(19) 0.18719(19)
H15_2 H 0.4904 0.4099 0.2158
C10_2 C 0.43560(19) 0.3893(2) 0.17247(19)
H16_2 H 0.4082 0.3976 0.1892
C11_2 C 0.5012(2) 0.3408(3) 0.0729(2)
H17_2 H 0.4760 0.3216 0.0589
H18_2 H 0.5276 0.3197 0.0802
C12_2 C 0.48311(16) 0.36216(16) 0.11850(16)
H1_2 H 0.3980 0.4707 0.9913
N2_2 N 0.36794(14) 0.37178(13) 0.93717(13)
C3_2 C 0.39594(19) 0.31281(19) 0.98115(18)
H6_2 H 0.4099 0.2842 0.9904
C4_2 C 0.3893(2) 0.32753(19) 0.93560(19)
H7_2 H 0.3976 0.3108 0.9082
H8_2 H 0.3216 0.4411 0.9760
C6_2 C 0.36216(16) 0.38150(16) 0.98311(16)
Cd2_2 Cd 0.339540(11) 0.410460(11) 0.8750
C8_2 C 0.5334(8) 0.3478(12) 0.9921(5)
H12_2 H 0.5443 0.3696 0.9681
H14_2 H 0.5069 0.3297 0.9800
Cd3_3 Cd 0.089540(11) 0.1250 0.839540(11)
C7_3 C 0.0172(4) 0.1235(5) 0.9627(3)
H11_3 H 0.0435 0.1049 0.9501
N3_3 N 0.01119(14) 0.12130(14) 0.84729(14)
H13_3 H 0.0588 0.1735 0.9993
C11_3 C 0.0012(2) 0.1592(3) 0.9271(2)
H18_3 H 0.0276 0.1803 0.9198
H1_3 H 0.8980 0.0293 0.0087
N2_3 N 0.86794(14) 0.12822(13) 0.06283(13)
C3_3 C 0.89594(19) 0.18719(19) 0.01885(18)
H6_3 H 0.9099 0.2158 0.0096
C4_3 C 0.8893(2) 0.17247(19) 0.06440(19)
H7_3 H 0.8976 0.1892 0.0918
H8_3 H 0.8216 0.0589 0.0240
C6_3 C 0.86216(16) 0.11850(16) 0.01689(16)
Cd2_3 Cd 0.839540(11) 0.089540(11) 0.1250
Cd1_3 Cd 0.8750 0.160460(11) 0.910460(11)
C1_3 C 0.8765(5) 0.0373(3) 0.9828(4)
H2_3 H 0.8951 0.0499 0.9565
N1_3 N 0.87870(14) 0.15271(14) 0.98881(14)
H4_3 H 0.8265 0.0007 0.9412
C5_3 C 0.8408(3) 0.0729(2) 0.9988(2)
H9_3 H 0.8197 0.0802 0.9724
H10_3 H 0.9913 0.1020 0.9707
N4_3 N 0.87130(14) 0.23881(14) 0.90271(14)
N5_3 N 0.93717(13) 0.13206(14) 0.87178(13)
N6_3 N 0.81283(13) 0.12178(13) 0.88206(14)
C9_3 C 0.98115(18) 0.10406(19) 0.81281(19)
H15_3 H 0.9904 0.0901 0.7842
C10_3 C 0.93560(19) 0.1107(2) 0.82753(19)
H16_3 H 0.9082 0.1024 0.8108
H17_3 H 0.9760 0.1784 0.9411
C12_3 C 0.98311(16) 0.13784(16) 0.88150(16)
C2_3 C 0.6522(12) 0.0079(5) 0.4666(8)
H3_3 H 0.6304 0.0319 0.4557
H5_3 H 0.6703 0.0200 0.4931
Cd1_4 Cd 0.6250 0.839540(11) 0.410460(11)
C1_4 C 0.6235(5) 0.9627(3) 0.4828(4)
H1_4 H 0.6020 0.9707 0.5087
H2_4 H 0.6049 0.9501 0.4565
N1_4 N 0.62130(14) 0.84729(14) 0.48881(14)
H4_4 H 0.6735 0.9993 0.4412
N2_4 N 0.63206(14) 0.87178(13) 0.56283(13)
C3_4 C 0.60406(19) 0.81281(19) 0.51885(18)
H6_4 H 0.5901 0.7842 0.5096
C4_4 C 0.6107(2) 0.82753(19) 0.56440(19)
H7_4 H 0.6024 0.8108 0.5918
C5_4 C 0.6592(3) 0.9271(2) 0.4988(2)
H8_4 H 0.6784 0.9411 0.5240
H9_4 H 0.6803 0.9198 0.4724
C6_4 C 0.63784(16) 0.88150(16) 0.51689(16)
Cd2_4 Cd 0.660460(11) 0.910460(11) 0.6250
Cd3_4 Cd 0.410460(11) 0.8750 0.339540(11)
C7_4 C 0.4828(4) 0.8765(5) 0.4627(3)
H10_4 H 0.5087 0.8980 0.4707
H11_4 H 0.4565 0.8951 0.4501
N3_4 N 0.48881(14) 0.87870(14) 0.34729(14)
N4_4 N 0.62870(14) 0.76119(14) 0.40271(14)
C8_3 C 0.4666(8) 0.8478(12) 0.5079(5)
H12_3 H 0.4557 0.8696 0.5319
H13_4 H 0.4412 0.8265 0.4993
H14_3 H 0.4931 0.8297 0.5200
N5_4 N 0.56283(13) 0.86794(14) 0.37178(13)
N6_4 N 0.68717(13) 0.87822(13) 0.38206(14)
C9_4 C 0.51885(18) 0.89594(19) 0.31281(19)
H15_4 H 0.5096 0.9099 0.2842
C10_4 C 0.56440(19) 0.8893(2) 0.32753(19)
H16_4 H 0.5918 0.8976 0.3108
C11_4 C 0.4988(2) 0.8408(3) 0.4271(2)
H17_4 H 0.5240 0.8216 0.4411
H18_4 H 0.4724 0.8197 0.4198
C12_4 C 0.51689(16) 0.86216(16) 0.38150(16)
Cd1_5 Cd 0.589540(11) 0.1250 0.660460(11)
C1_5 C 0.5172(4) 0.1235(5) 0.5373(3)
H1_5 H 0.4913 0.1020 0.5293
H2_5 H 0.5435 0.1049 0.5499
N1_5 N 0.51119(14) 0.12130(14) 0.65271(14)
C2_4 C 0.5334(8) 0.1522(12) 0.4921(5)
H3_4 H 0.5443 0.1304 0.4681
H4_5 H 0.5588 0.1735 0.5007
H5_4 H 0.5069 0.1703 0.4800
N2_5 N 0.43717(13) 0.13206(14) 0.62822(13)
C3_5 C 0.48115(18) 0.10406(19) 0.68719(19)
H6_5 H 0.4904 0.0901 0.7158
C4_5 C 0.43560(19) 0.1107(2) 0.67247(19)
H7_5 H 0.4082 0.1024 0.6892
C5_5 C 0.5012(2) 0.1592(3) 0.5729(2)
H8_5 H 0.4760 0.1784 0.5589
H9_5 H 0.5276 0.1803 0.5802
C6_5 C 0.48311(16) 0.13784(16) 0.61850(16)
Cd2_5 Cd 0.3750 0.160460(11) 0.589540(11)
H10_5 H 0.5293 0.0087 0.6020
N4_5 N 0.59729(14) 0.12870(14) 0.73881(14)
N5_5 N 0.62822(13) 0.06283(13) 0.63206(14)
N6_5 N 0.61794(14) 0.18717(13) 0.62178(13)
C9_5 C 0.68719(19) 0.01885(18) 0.60406(19)
H15_5 H 0.7158 0.0096 0.5901
C10_5 C 0.67247(19) 0.06440(19) 0.6107(2)
H16_5 H 0.6892 0.0918 0.6024
H17_5 H 0.5589 0.0240 0.6784
C12_5 C 0.61850(16) 0.01689(16) 0.63784(16)
C7_5 C 0.5373(3) 0.9828(4) 0.6235(5)
H11_5 H 0.5499 0.9565 0.6049
N3_5 N 0.65271(14) 0.98881(14) 0.62130(14)
C8_4 C 0.4921(5) 0.9666(8) 0.6522(12)
H12_4 H 0.4681 0.9557 0.6304
H13_5 H 0.5007 0.9412 0.6735
H14_4 H 0.4800 0.9931 0.6703
C11_5 C 0.5729(2) 0.9988(2) 0.6592(3)
H18_5 H 0.5802 0.9724 0.6803
Cd1_6 Cd 0.089540(11) 0.3750 0.339540(11)
C1_6 C 0.0172(4) 0.3765(5) 0.4627(3)
H2_6 H 0.0435 0.3951 0.4501
N1_6 N 0.01119(14) 0.37870(14) 0.34729(14)
C2_5 C 0.0334(8) 0.3478(12) 0.5079(5)
H3_5 H 0.0443 0.3696 0.5319
H4_6 H 0.0588 0.3265 0.4993
H5_5 H 0.0069 0.3297 0.5200
C5_6 C 0.0012(2) 0.3408(3) 0.4271(2)
H9_6 H 0.0276 0.3197 0.4198
C7_6 C 0.0373(3) 0.5172(4) 0.3765(5)
H10_6 H 0.0293 0.4913 0.3980
H11_6 H 0.0499 0.5435 0.3951
N3_6 N 0.15271(14) 0.51119(14) 0.37870(14)
N4_6 N 0.09729(14) 0.37130(14) 0.26119(14)
H13_6 H 0.0007 0.5588 0.3265
N5_6 N 0.12822(13) 0.43717(13) 0.36794(14)
N6_6 N 0.11794(14) 0.31283(13) 0.37822(13)
C9_6 C 0.18719(19) 0.48115(18) 0.39594(19)
H15_6 H 0.2158 0.4904 0.4099
C10_6 C 0.17247(19) 0.43560(19) 0.3893(2)
H16_6 H 0.1892 0.4082 0.3976
C11_6 C 0.0729(2) 0.5012(2) 0.3408(3)
H17_6 H 0.0589 0.4760 0.3216
H18_6 H 0.0802 0.5276 0.3197
C12_6 C 0.11850(16) 0.48311(16) 0.36216(16)
H1_6 H 0.9913 0.3980 0.4707
N2_6 N 0.93717(13) 0.36794(14) 0.37178(13)
C3_6 C 0.98115(18) 0.39594(19) 0.31281(19)
H6_6 H 0.9904 0.4099 0.2842
C4_6 C 0.93560(19) 0.3893(2) 0.32753(19)
H7_6 H 0.9082 0.3976 0.3108
H8_6 H 0.9760 0.3216 0.4411
C6_6 C 0.98311(16) 0.36216(16) 0.38150(16)
Cd2_6 Cd 0.8750 0.339540(11) 0.410460(11)
C8_5 C 0.9921(5) 0.5334(8) 0.3478(12)
H12_5 H 0.9681 0.5443 0.3696
H14_5 H 0.9800 0.5069 0.3297
H1_7 H 0.0087 0.8980 0.0293
N2_7 N 0.06283(13) 0.86794(14) 0.12822(13)
C3_7 C 0.01885(18) 0.89594(19) 0.18719(19)
H6_7 H 0.0096 0.9099 0.2158
C4_7 C 0.06440(19) 0.8893(2) 0.17247(19)
H7_7 H 0.0918 0.8976 0.1892
H8_7 H 0.0240 0.8216 0.0589
C6_7 C 0.01689(16) 0.86216(16) 0.11850(16)
Cd2_7 Cd 0.1250 0.839540(11) 0.089540(11)
C7_7 C 0.9627(3) 0.0172(4) 0.1235(5)
H11_7 H 0.9501 0.0435 0.1049
N3_7 N 0.84729(14) 0.01119(14) 0.12130(14)
H13_7 H 0.9993 0.0588 0.1735
C11_7 C 0.9271(2) 0.0012(2) 0.1592(3)
H18_7 H 0.9198 0.0276 0.1803
Cd1_7 Cd 0.910460(11) 0.8750 0.160460(11)
C1_7 C 0.9828(4) 0.8765(5) 0.0373(3)
H2_7 H 0.9565 0.8951 0.0499
N1_7 N 0.98881(14) 0.87870(14) 0.15271(14)
H4_7 H 0.9412 0.8265 0.0007
C5_7 C 0.9988(2) 0.8408(3) 0.0729(2)
H9_7 H 0.9724 0.8197 0.0802
H10_7 H 0.9707 0.9913 0.1020
N4_7 N 0.90271(14) 0.87130(14) 0.23881(14)
N5_7 N 0.87178(13) 0.93717(13) 0.13206(14)
N6_7 N 0.88206(14) 0.81283(13) 0.12178(13)
C9_7 C 0.81281(19) 0.98115(18) 0.10406(19)
H15_7 H 0.7842 0.9904 0.0901
C10_7 C 0.82753(19) 0.93560(19) 0.1107(2)
H16_7 H 0.8108 0.9082 0.1024
H17_7 H 0.9411 0.9760 0.1784
C12_7 C 0.88150(16) 0.98311(16) 0.13784(16)
C2_6 C 0.4666(8) 0.6522(12) 0.0079(5)
H3_6 H 0.4557 0.6304 0.0319
H5_6 H 0.4931 0.6703 0.0200
Cd1_8 Cd 0.410460(11) 0.6250 0.839540(11)
C1_8 C 0.4828(4) 0.6235(5) 0.9627(3)
H1_8 H 0.5087 0.6020 0.9707
H2_8 H 0.4565 0.6049 0.9501
N1_8 N 0.48881(14) 0.62130(14) 0.84729(14)
H4_8 H 0.4412 0.6735 0.9993
N2_8 N 0.56283(13) 0.63206(14) 0.87178(13)
C3_8 C 0.51885(18) 0.60406(19) 0.81281(19)
H6_8 H 0.5096 0.5901 0.7842
C4_8 C 0.56440(19) 0.6107(2) 0.82753(19)
H7_8 H 0.5918 0.6024 0.8108
C5_8 C 0.4988(2) 0.6592(3) 0.9271(2)
H8_8 H 0.5240 0.6784 0.9411
H9_8 H 0.4724 0.6803 0.9198
C6_8 C 0.51689(16) 0.63784(16) 0.88150(16)
Cd2_8 Cd 0.6250 0.660460(11) 0.910460(11)
C7_8 C 0.4627(3) 0.4828(4) 0.8765(5)
H10_8 H 0.4707 0.5087 0.8980
H11_8 H 0.4501 0.4565 0.8951
N3_8 N 0.34729(14) 0.48881(14) 0.87870(14)
N4_8 N 0.40271(14) 0.62870(14) 0.76119(14)
C8_6 C 0.5079(5) 0.4666(8) 0.8478(12)
H12_6 H 0.5319 0.4557 0.8696
H13_8 H 0.4993 0.4412 0.8265
H14_6 H 0.5200 0.4931 0.8297
N5_8 N 0.37178(13) 0.56283(13) 0.86794(14)
N6_8 N 0.38206(14) 0.68717(13) 0.87822(13)
C9_8 C 0.31281(19) 0.51885(18) 0.89594(19)
H15_8 H 0.2842 0.5096 0.9099
C10_8 C 0.32753(19) 0.56440(19) 0.8893(2)
H16_8 H 0.3108 0.5918 0.8976
C11_8 C 0.4271(2) 0.4988(2) 0.8408(3)
H17_8 H 0.4411 0.5240 0.8216
H18_8 H 0.4198 0.4724 0.8197
C12_8 C 0.38150(16) 0.51689(16) 0.86216(16)
Cd1_9 Cd 0.660460(11) 0.589540(11) 0.1250
C1_9 C 0.5373(3) 0.5172(4) 0.1235(5)
H1_9 H 0.5293 0.4913 0.1020
H2_9 H 0.5499 0.5435 0.1049
N1_9 N 0.65271(14) 0.51119(14) 0.12130(14)
C2_7 C 0.4921(5) 0.5334(8) 0.1522(12)
H3_7 H 0.4681 0.5443 0.1304
H4_9 H 0.5007 0.5588 0.1735
H5_7 H 0.4800 0.5069 0.1703
N2_9 N 0.62822(13) 0.43717(13) 0.13206(14)
C3_9 C 0.68719(19) 0.48115(18) 0.10406(19)
H6_9 H 0.7158 0.4904 0.0901
C4_9 C 0.67247(19) 0.43560(19) 0.1107(2)
H7_9 H 0.6892 0.4082 0.1024
C5_9 C 0.5729(2) 0.5012(2) 0.1592(3)
H8_9 H 0.5589 0.4760 0.1784
H9_9 H 0.5802 0.5276 0.1803
C6_9 C 0.61850(16) 0.48311(16) 0.13784(16)
H10_9 H 0.6020 0.5293 0.0087
N4_9 N 0.73881(14) 0.59729(14) 0.12870(14)
N5_9 N 0.63206(14) 0.62822(13) 0.06283(13)
N6_9 N 0.62178(13) 0.61794(14) 0.18717(13)
C9_9 C 0.60406(19) 0.68719(19) 0.01885(18)
H15_9 H 0.5901 0.7158 0.0096
C10_9 C 0.6107(2) 0.67247(19) 0.06440(19)
H16_9 H 0.6024 0.6892 0.0918
H17_9 H 0.6784 0.5589 0.0240
C12_9 C 0.63784(16) 0.61850(16) 0.01689(16)
C7_9 C 0.6235(5) 0.5373(3) 0.9828(4)
H11_9 H 0.6049 0.5499 0.9565
N3_9 N 0.62130(14) 0.65271(14) 0.98881(14)
C8_7 C 0.6522(12) 0.4921(5) 0.9666(8)
H12_7 H 0.6304 0.4681 0.9557
H13_9 H 0.6735 0.5007 0.9412
H14_7 H 0.6703 0.4800 0.9931
C11_9 C 0.6592(3) 0.5729(2) 0.9988(2)
H18_9 H 0.6803 0.5802 0.9724
Cd1_10 Cd 0.339540(11) 0.089540(11) 0.3750
C1_10 C 0.4627(3) 0.0172(4) 0.3765(5)
H2_10 H 0.4501 0.0435 0.3951
N1_10 N 0.34729(14) 0.01119(14) 0.37870(14)
C2_8 C 0.5079(5) 0.0334(8) 0.3478(12)
H3_8 H 0.5319 0.0443 0.3696
H4_10 H 0.4993 0.0588 0.3265
H5_8 H 0.5200 0.0069 0.3297
C5_10 C 0.4271(2) 0.0012(2) 0.3408(3)
H9_10 H 0.4198 0.0276 0.3197
C7_10 C 0.3765(5) 0.0373(3) 0.5172(4)
H10_10 H 0.3980 0.0293 0.4913
H11_10 H 0.3951 0.0499 0.5435
N3_10 N 0.37870(14) 0.15271(14) 0.51119(14)
N4_10 N 0.26119(14) 0.09729(14) 0.37130(14)
H13_10 H 0.3265 0.0007 0.5588
N5_10 N 0.36794(14) 0.12822(13) 0.43717(13)
N6_10 N 0.37822(13) 0.11794(14) 0.31283(13)
C9_10 C 0.39594(19) 0.18719(19) 0.48115(18)
H15_10 H 0.4099 0.2158 0.4904
C10_10 C 0.3893(2) 0.17247(19) 0.43560(19)
H16_10 H 0.3976 0.1892 0.4082
C11_10 C 0.3408(3) 0.0729(2) 0.5012(2)
H17_10 H 0.3216 0.0589 0.4760
H18_10 H 0.3197 0.0802 0.5276
C12_10 C 0.36216(16) 0.11850(16) 0.48311(16)
H1_10 H 0.4707 0.9913 0.3980
N2_10 N 0.37178(13) 0.93717(13) 0.36794(14)
C3_10 C 0.31281(19) 0.98115(18) 0.39594(19)
H6_10 H 0.2842 0.9904 0.4099
C4_10 C 0.32753(19) 0.93560(19) 0.3893(2)
H7_10 H 0.3108 0.9082 0.3976
H8_10 H 0.4411 0.9760 0.3216
C6_10 C 0.38150(16) 0.98311(16) 0.36216(16)
C8_8 C 0.3478(12) 0.9921(5) 0.5334(8)
H12_8 H 0.3696 0.9681 0.5443
H14_8 H 0.3297 0.9800 0.5069
H1_11 H 0.0293 0.0087 0.8980
N2_11 N 0.12822(13) 0.06283(13) 0.86794(14)
C3_11 C 0.18719(19) 0.01885(18) 0.89594(19)
H6_11 H 0.2158 0.0096 0.9099
C4_11 C 0.17247(19) 0.06440(19) 0.8893(2)
H7_11 H 0.1892 0.0918 0.8976
H8_11 H 0.0589 0.0240 0.8216
C6_11 C 0.11850(16) 0.01689(16) 0.86216(16)
C7_11 C 0.1235(5) 0.9627(3) 0.0172(4)
H11_11 H 0.1049 0.9501 0.0435
N3_11 N 0.12130(14) 0.84729(14) 0.01119(14)
H13_11 H 0.1735 0.9993 0.0588
C11_11 C 0.1592(3) 0.9271(2) 0.0012(2)
H18_11 H 0.1803 0.9198 0.0276
Cd1_11 Cd 0.160460(11) 0.910460(11) 0.8750
C1_11 C 0.0373(3) 0.9828(4) 0.8765(5)
H2_11 H 0.0499 0.9565 0.8951
N1_11 N 0.15271(14) 0.98881(14) 0.87870(14)
H4_11 H 0.0007 0.9412 0.8265
C5_11 C 0.0729(2) 0.9988(2) 0.8408(3)
H9_11 H 0.0802 0.9724 0.8197
H10_11 H 0.1020 0.9707 0.9913
N4_11 N 0.23881(14) 0.90271(14) 0.87130(14)
N5_11 N 0.13206(14) 0.87178(13) 0.93717(13)
N6_11 N 0.12178(13) 0.88206(14) 0.81283(13)
C9_11 C 0.10406(19) 0.81281(19) 0.98115(18)
H15_11 H 0.0901 0.7842 0.9904
C10_11 C 0.1107(2) 0.82753(19) 0.93560(19)
H16_11 H 0.1024 0.8108 0.9082
H17_11 H 0.1784 0.9411 0.9760
C12_11 C 0.13784(16) 0.88150(16) 0.98311(16)
C2_9 C 0.0079(5) 0.4666(8) 0.6522(12)
H3_9 H 0.0319 0.4557 0.6304
H5_9 H 0.0200 0.4931 0.6703
Cd1_12 Cd 0.839540(11) 0.410460(11) 0.6250
C1_12 C 0.9627(3) 0.4828(4) 0.6235(5)
H1_12 H 0.9707 0.5087 0.6020
H2_12 H 0.9501 0.4565 0.6049
N1_12 N 0.84729(14) 0.48881(14) 0.62130(14)
H4_12 H 0.9993 0.4412 0.6735
N2_12 N 0.87178(13) 0.56283(13) 0.63206(14)
C3_12 C 0.81281(19) 0.51885(18) 0.60406(19)
H6_12 H 0.7842 0.5096 0.5901
C4_12 C 0.82753(19) 0.56440(19) 0.6107(2)
H7_12 H 0.8108 0.5918 0.6024
C5_12 C 0.9271(2) 0.4988(2) 0.6592(3)
H8_12 H 0.9411 0.5240 0.6784
H9_12 H 0.9198 0.4724 0.6803
C6_12 C 0.88150(16) 0.51689(16) 0.63784(16)
C7_12 C 0.8765(5) 0.4627(3) 0.4828(4)
H10_12 H 0.8980 0.4707 0.5087
H11_12 H 0.8951 0.4501 0.4565
N3_12 N 0.87870(14) 0.34729(14) 0.48881(14)
N4_12 N 0.76119(14) 0.40271(14) 0.62870(14)
C8_9 C 0.8478(12) 0.5079(5) 0.4666(8)
H12_9 H 0.8696 0.5319 0.4557
H13_12 H 0.8265 0.4993 0.4412
H14_9 H 0.8297 0.5200 0.4931
N5_12 N 0.86794(14) 0.37178(13) 0.56283(13)
N6_12 N 0.87822(13) 0.38206(14) 0.68717(13)
C9_12 C 0.89594(19) 0.31281(19) 0.51885(18)
H15_12 H 0.9099 0.2842 0.5096
C10_12 C 0.8893(2) 0.32753(19) 0.56440(19)
H16_12 H 0.8976 0.3108 0.5918
C11_12 C 0.8408(3) 0.4271(2) 0.4988(2)
H17_12 H 0.8216 0.4411 0.5240
H18_12 H 0.8197 0.4198 0.4724
C12_12 C 0.86216(16) 0.38150(16) 0.51689(16)
Cd1_13 Cd 0.410460(11) 0.3750 0.660460(11)
C1_13 C 0.2873(3) 0.3735(5) 0.7328(4)
H1_13 H 0.2793 0.3520 0.7587
H2_13 H 0.2999 0.3549 0.7065
N1_13 N 0.40271(14) 0.37130(14) 0.73881(14)
C2_10 C 0.2421(5) 0.4022(12) 0.7166(8)
H3_10 H 0.2181 0.3804 0.7057
H4_13 H 0.2507 0.4235 0.6912
H5_10 H 0.2300 0.4203 0.7431
N2_13 N 0.37822(13) 0.38206(14) 0.81283(13)
C3_13 C 0.43719(19) 0.35406(19) 0.76885(18)
H6_13 H 0.4658 0.3401 0.7596
C4_13 C 0.42247(19) 0.3607(2) 0.81440(19)
H7_13 H 0.4392 0.3524 0.8418
C5_13 C 0.3229(2) 0.4092(3) 0.7488(2)
H8_13 H 0.3089 0.4284 0.7740
H9_13 H 0.3302 0.4303 0.7224
C6_13 C 0.36850(16) 0.38784(16) 0.76689(16)
C7_13 C 0.3735(5) 0.2328(4) 0.7127(3)
H10_13 H 0.3520 0.2587 0.7207
H11_13 H 0.3549 0.2065 0.7001
N3_13 N 0.37130(14) 0.23881(14) 0.59729(14)
N4_13 N 0.48881(14) 0.37870(14) 0.65271(14)
C8_10 C 0.4022(12) 0.2166(8) 0.7579(5)
H12_10 H 0.3804 0.2057 0.7819
H13_13 H 0.4235 0.1912 0.7493
H14_10 H 0.4203 0.2431 0.7700
N5_13 N 0.38206(14) 0.31283(13) 0.62178(13)
N6_13 N 0.37178(13) 0.43717(13) 0.63206(14)
C9_13 C 0.35406(19) 0.26885(18) 0.56281(19)
H15_13 H 0.3401 0.2596 0.5342
C10_13 C 0.3607(2) 0.31440(19) 0.57753(19)
H16_13 H 0.3524 0.3418 0.5608
C11_13 C 0.4092(3) 0.2488(2) 0.6771(2)
H17_13 H 0.4284 0.2740 0.6911
H18_13 H 0.4303 0.2224 0.6698
C12_13 C 0.38784(16) 0.26689(16) 0.63150(16)
Cd1_14 Cd 0.089540(11) 0.6250 0.160460(11)
C1_14 C 0.2127(3) 0.6265(5) 0.2328(4)
H1_14 H 0.2207 0.6480 0.2587
H2_14 H 0.2001 0.6451 0.2065
N1_14 N 0.09729(14) 0.62870(14) 0.23881(14)
C2_11 C 0.2579(5) 0.5978(12) 0.2166(8)
H3_11 H 0.2819 0.6196 0.2057
H4_14 H 0.2493 0.5765 0.1912
H5_11 H 0.2700 0.5797 0.2431
N2_14 N 0.12178(13) 0.61794(14) 0.31283(13)
C3_14 C 0.06281(19) 0.64594(19) 0.26885(18)
H6_14 H 0.0342 0.6599 0.2596
C4_14 C 0.07753(19) 0.6393(2) 0.31440(19)
H7_14 H 0.0608 0.6476 0.3418
C5_14 C 0.1771(2) 0.5908(3) 0.2488(2)
H8_14 H 0.1911 0.5716 0.2740
H9_14 H 0.1698 0.5697 0.2224
C6_14 C 0.13150(16) 0.61216(16) 0.26689(16)
C7_14 C 0.1265(5) 0.7672(4) 0.2127(3)
H10_14 H 0.1480 0.7413 0.2207
H11_14 H 0.1451 0.7935 0.2001
N3_14 N 0.12870(14) 0.76119(14) 0.09729(14)
N4_14 N 0.01119(14) 0.62130(14) 0.15271(14)
C8_11 C 0.0978(12) 0.7834(8) 0.2579(5)
H12_11 H 0.1196 0.7943 0.2819
H13_14 H 0.0765 0.8088 0.2493
H14_11 H 0.0797 0.7569 0.2700
N5_14 N 0.11794(14) 0.68717(13) 0.12178(13)
N6_14 N 0.12822(13) 0.56283(13) 0.13206(14)
C9_14 C 0.14594(19) 0.73115(18) 0.06281(19)
H15_14 H 0.1599 0.7404 0.0342
C10_14 C 0.1393(2) 0.68560(19) 0.07753(19)
H16_14 H 0.1476 0.6582 0.0608
C11_14 C 0.0908(3) 0.7512(2) 0.1771(2)
H17_14 H 0.0716 0.7260 0.1911
H18_14 H 0.0697 0.7776 0.1698
C12_14 C 0.11216(16) 0.73311(16) 0.13150(16)
Cd1_15 Cd 0.910460(11) 0.1250 0.339540(11)
C1_15 C 0.7873(3) 0.1265(5) 0.2672(4)
H1_15 H 0.7793 0.1480 0.2413
H2_15 H 0.7999 0.1451 0.2935
N1_15 N 0.90271(14) 0.12870(14) 0.26119(14)
C2_12 C 0.7421(5) 0.0978(12) 0.2834(8)
H3_12 H 0.7181 0.1196 0.2943
H4_15 H 0.7507 0.0765 0.3088
H5_12 H 0.7300 0.0797 0.2569
N2_15 N 0.87822(13) 0.11794(14) 0.18717(13)
C3_15 C 0.93719(19) 0.14594(19) 0.23115(18)
H6_15 H 0.9658 0.1599 0.2404
C4_15 C 0.92247(19) 0.1393(2) 0.18560(19)
H7_15 H 0.9392 0.1476 0.1582
C5_15 C 0.8229(2) 0.0908(3) 0.2512(2)
H8_15 H 0.8089 0.0716 0.2260
H9_15 H 0.8302 0.0697 0.2776
C6_15 C 0.86850(16) 0.11216(16) 0.23311(16)
C7_15 C 0.8735(5) 0.2672(4) 0.2873(3)
H10_15 H 0.8520 0.2413 0.2793
H11_15 H 0.8549 0.2935 0.2999
N3_15 N 0.87130(14) 0.26119(14) 0.40271(14)
N4_15 N 0.98881(14) 0.12130(14) 0.34729(14)
C8_12 C 0.9022(12) 0.2834(8) 0.2421(5)
H12_12 H 0.8804 0.2943 0.2181
H13_15 H 0.9235 0.3088 0.2507
H14_12 H 0.9203 0.2569 0.2300
N5_15 N 0.88206(14) 0.18717(13) 0.37822(13)
N6_15 N 0.87178(13) 0.06283(13) 0.36794(14)
C9_15 C 0.85406(19) 0.23115(18) 0.43719(19)
H15_15 H 0.8401 0.2404 0.4658
C10_15 C 0.8607(2) 0.18560(19) 0.42247(19)
H16_15 H 0.8524 0.1582 0.4392
C11_15 C 0.9092(3) 0.2512(2) 0.3229(2)
H17_15 H 0.9284 0.2260 0.3089
H18_15 H 0.9303 0.2776 0.3302
C12_15 C 0.88784(16) 0.23311(16) 0.36850(16)
Cd1_16 Cd 0.589540(11) 0.8750 0.839540(11)
C1_16 C 0.7127(3) 0.8735(5) 0.7672(4)
H1_16 H 0.7207 0.8520 0.7413
H2_16 H 0.7001 0.8549 0.7935
N1_16 N 0.59729(14) 0.87130(14) 0.76119(14)
C2_13 C 0.7579(5) 0.9022(12) 0.7834(8)
H3_13 H 0.7819 0.8804 0.7943
H4_16 H 0.7493 0.9235 0.8088
H5_13 H 0.7700 0.9203 0.7569
N2_16 N 0.62178(13) 0.88206(14) 0.68717(13)
C3_16 C 0.56281(19) 0.85406(19) 0.73115(18)
H6_16 H 0.5342 0.8401 0.7404
C4_16 C 0.57753(19) 0.8607(2) 0.68560(19)
H7_16 H 0.5608 0.8524 0.6582
C5_16 C 0.6771(2) 0.9092(3) 0.7512(2)
H8_16 H 0.6911 0.9284 0.7260
H9_16 H 0.6698 0.9303 0.7776
C6_16 C 0.63150(16) 0.88784(16) 0.73311(16)
C7_16 C 0.6265(5) 0.7328(4) 0.7873(3)
H10_16 H 0.6480 0.7587 0.7793
H11_16 H 0.6451 0.7065 0.7999
N3_16 N 0.62870(14) 0.73881(14) 0.90271(14)
N4_16 N 0.51119(14) 0.87870(14) 0.84729(14)
C8_13 C 0.5978(12) 0.7166(8) 0.7421(5)
H12_13 H 0.6196 0.7057 0.7181
H13_16 H 0.5765 0.6912 0.7507
H14_13 H 0.5797 0.7431 0.7300
N5_16 N 0.61794(14) 0.81283(13) 0.87822(13)
N6_16 N 0.62822(13) 0.93717(13) 0.86794(14)
C9_16 C 0.64594(19) 0.76885(18) 0.93719(19)
H15_16 H 0.6599 0.7596 0.9658
C10_16 C 0.6393(2) 0.81440(19) 0.92247(19)
H16_16 H 0.6476 0.8418 0.9392
C11_16 C 0.5908(3) 0.7488(2) 0.8229(2)
H17_16 H 0.5716 0.7740 0.8089
H18_16 H 0.5697 0.7224 0.8302
C12_16 C 0.61216(16) 0.76689(16) 0.86850(16)
Cd1_17 Cd 0.8750 0.839540(11) 0.589540(11)
C1_17 C 0.8735(5) 0.7672(4) 0.7127(3)
H1_17 H 0.8520 0.7413 0.7207
H2_17 H 0.8549 0.7935 0.7001
N1_17 N 0.87130(14) 0.76119(14) 0.59729(14)
C2_14 C 0.9022(12) 0.7834(8) 0.7579(5)
H3_14 H 0.8804 0.7943 0.7819
H4_17 H 0.9235 0.8088 0.7493
H5_14 H 0.9203 0.7569 0.7700
N2_17 N 0.88206(14) 0.68717(13) 0.62178(13)
C3_17 C 0.85406(19) 0.73115(18) 0.56281(19)
H6_17 H 0.8401 0.7404 0.5342
C4_17 C 0.8607(2) 0.68560(19) 0.57753(19)
H7_17 H 0.8524 0.6582 0.5608
C5_17 C 0.9092(3) 0.7512(2) 0.6771(2)
H8_17 H 0.9284 0.7260 0.6911
H9_17 H 0.9303 0.7776 0.6698
C6_17 C 0.88784(16) 0.73311(16) 0.63150(16)
C7_17 C 0.7328(4) 0.7873(3) 0.6265(5)
H10_17 H 0.7587 0.7793 0.6480
H11_17 H 0.7065 0.7999 0.6451
N3_17 N 0.73881(14) 0.90271(14) 0.62870(14)
N4_17 N 0.87870(14) 0.84729(14) 0.51119(14)
C8_14 C 0.7166(8) 0.7421(5) 0.5978(12)
H12_14 H 0.7057 0.7181 0.6196
H13_17 H 0.6912 0.7507 0.5765
H14_14 H 0.7431 0.7300 0.5797
N5_17 N 0.81283(13) 0.87822(13) 0.61794(14)
N6_17 N 0.93717(13) 0.86794(14) 0.62822(13)
C9_17 C 0.76885(18) 0.93719(19) 0.64594(19)
H15_17 H 0.7596 0.9658 0.6599
C10_17 C 0.81440(19) 0.92247(19) 0.6393(2)
H16_17 H 0.8418 0.9392 0.6476
C11_17 C 0.7488(2) 0.8229(2) 0.5908(3)
H17_17 H 0.7740 0.8089 0.5716
H18_17 H 0.7224 0.8302 0.5697
C12_17 C 0.76689(16) 0.86850(16) 0.61216(16)
Cd1_18 Cd 0.1250 0.339540(11) 0.910460(11)
C1_18 C 0.1265(5) 0.2672(4) 0.7873(3)
H1_18 H 0.1480 0.2413 0.7793
H2_18 H 0.1451 0.2935 0.7999
N1_18 N 0.12870(14) 0.26119(14) 0.90271(14)
C2_15 C 0.0978(12) 0.2834(8) 0.7421(5)
H3_15 H 0.1196 0.2943 0.7181
H4_18 H 0.0765 0.3088 0.7507
H5_15 H 0.0797 0.2569 0.7300
N2_18 N 0.11794(14) 0.18717(13) 0.87822(13)
C3_18 C 0.14594(19) 0.23115(18) 0.93719(19)
H6_18 H 0.1599 0.2404 0.9658
C4_18 C 0.1393(2) 0.18560(19) 0.92247(19)
H7_18 H 0.1476 0.1582 0.9392
C5_18 C 0.0908(3) 0.2512(2) 0.8229(2)
H8_18 H 0.0716 0.2260 0.8089
H9_18 H 0.0697 0.2776 0.8302
C6_18 C 0.11216(16) 0.23311(16) 0.86850(16)
C7_18 C 0.2672(4) 0.2873(3) 0.8735(5)
H10_18 H 0.2413 0.2793 0.8520
H11_18 H 0.2935 0.2999 0.8549
N3_18 N 0.26119(14) 0.40271(14) 0.87130(14)
N4_18 N 0.12130(14) 0.34729(14) 0.98881(14)
C8_15 C 0.2834(8) 0.2421(5) 0.9022(12)
H12_15 H 0.2943 0.2181 0.8804
H13_18 H 0.3088 0.2507 0.9235
H14_15 H 0.2569 0.2300 0.9203
N5_18 N 0.18717(13) 0.37822(13) 0.88206(14)
N6_18 N 0.06283(13) 0.36794(14) 0.87178(13)
C9_18 C 0.23115(18) 0.43719(19) 0.85406(19)
H15_18 H 0.2404 0.4658 0.8401
C10_18 C 0.18560(19) 0.42247(19) 0.8607(2)
H16_18 H 0.1582 0.4392 0.8524
C11_18 C 0.2512(2) 0.3229(2) 0.9092(3)
H17_18 H 0.2260 0.3089 0.9284
H18_18 H 0.2776 0.3302 0.9303
C12_18 C 0.23311(16) 0.36850(16) 0.88784(16)
Cd1_19 Cd 0.6250 0.160460(11) 0.089540(11)
C1_19 C 0.6265(5) 0.2328(4) 0.2127(3)
H1_19 H 0.6480 0.2587 0.2207
H2_19 H 0.6451 0.2065 0.2001
N1_19 N 0.62870(14) 0.23881(14) 0.09729(14)
C2_16 C 0.5978(12) 0.2166(8) 0.2579(5)
H3_16 H 0.6196 0.2057 0.2819
H4_19 H 0.5765 0.1912 0.2493
H5_16 H 0.5797 0.2431 0.2700
N2_19 N 0.61794(14) 0.31283(13) 0.12178(13)
C3_19 C 0.64594(19) 0.26885(18) 0.06281(19)
H6_19 H 0.6599 0.2596 0.0342
C4_19 C 0.6393(2) 0.31440(19) 0.07753(19)
H7_19 H 0.6476 0.3418 0.0608
C5_19 C 0.5908(3) 0.2488(2) 0.1771(2)
H8_19 H 0.5716 0.2740 0.1911
H9_19 H 0.5697 0.2224 0.1698
C6_19 C 0.61216(16) 0.26689(16) 0.13150(16)
C7_19 C 0.7672(4) 0.2127(3) 0.1265(5)
H10_19 H 0.7413 0.2207 0.1480
H11_19 H 0.7935 0.2001 0.1451
N3_19 N 0.76119(14) 0.09729(14) 0.12870(14)
N4_19 N 0.62130(14) 0.15271(14) 0.01119(14)
C8_16 C 0.7834(8) 0.2579(5) 0.0978(12)
H12_16 H 0.7943 0.2819 0.1196
H13_19 H 0.8088 0.2493 0.0765
H14_16 H 0.7569 0.2700 0.0797
N5_19 N 0.68717(13) 0.12178(13) 0.11794(14)
N6_19 N 0.56283(13) 0.13206(14) 0.12822(13)
C9_19 C 0.73115(18) 0.06281(19) 0.14594(19)
H15_19 H 0.7404 0.0342 0.1599
C10_19 C 0.68560(19) 0.07753(19) 0.1393(2)
H16_19 H 0.6582 0.0608 0.1476
C11_19 C 0.7512(2) 0.1771(2) 0.0908(3)
H17_19 H 0.7260 0.1911 0.0716
H18_19 H 0.7776 0.1698 0.0697
C12_19 C 0.73311(16) 0.13150(16) 0.11216(16)
Cd1_20 Cd 0.3750 0.660460(11) 0.410460(11)
C1_20 C 0.3735(5) 0.7328(4) 0.2873(3)
H1_20 H 0.3520 0.7587 0.2793
H2_20 H 0.3549 0.7065 0.2999
N1_20 N 0.37130(14) 0.73881(14) 0.40271(14)
C2_17 C 0.4022(12) 0.7166(8) 0.2421(5)
H3_17 H 0.3804 0.7057 0.2181
H4_20 H 0.4235 0.6912 0.2507
H5_17 H 0.4203 0.7431 0.2300
N2_20 N 0.38206(14) 0.81283(13) 0.37822(13)
C3_20 C 0.35406(19) 0.76885(18) 0.43719(19)
H6_20 H 0.3401 0.7596 0.4658
C4_20 C 0.3607(2) 0.81440(19) 0.42247(19)
H7_20 H 0.3524 0.8418 0.4392
C5_20 C 0.4092(3) 0.7488(2) 0.3229(2)
H8_20 H 0.4284 0.7740 0.3089
H9_20 H 0.4303 0.7224 0.3302
C6_20 C 0.38784(16) 0.76689(16) 0.36850(16)
C7_20 C 0.2328(4) 0.7127(3) 0.3735(5)
H10_20 H 0.2587 0.7207 0.3520
H11_20 H 0.2065 0.7001 0.3549
N3_20 N 0.23881(14) 0.59729(14) 0.37130(14)
N4_20 N 0.37870(14) 0.65271(14) 0.48881(14)
C8_17 C 0.2166(8) 0.7579(5) 0.4022(12)
H12_17 H 0.2057 0.7819 0.3804
H13_20 H 0.1912 0.7493 0.4235
H14_17 H 0.2431 0.7700 0.4203
N5_20 N 0.31283(13) 0.62178(13) 0.38206(14)
N6_20 N 0.43717(13) 0.63206(14) 0.37178(13)
C9_20 C 0.26885(18) 0.56281(19) 0.35406(19)
H15_20 H 0.2596 0.5342 0.3401
C10_20 C 0.31440(19) 0.57753(19) 0.3607(2)
H16_20 H 0.3418 0.5608 0.3524
C11_20 C 0.2488(2) 0.6771(2) 0.4092(3)
H17_20 H 0.2740 0.6911 0.4284
H18_20 H 0.2224 0.6698 0.4303
C12_20 C 0.26689(16) 0.63150(16) 0.38784(16)
Cd1_21 Cd 0.339540(11) 0.910460(11) 0.1250
C1_21 C 0.2672(4) 0.7873(3) 0.1265(5)
H1_21 H 0.2413 0.7793 0.1480
H2_21 H 0.2935 0.7999 0.1451
N1_21 N 0.26119(14) 0.90271(14) 0.12870(14)
C2_18 C 0.2834(8) 0.7421(5) 0.0978(12)
H3_18 H 0.2943 0.7181 0.1196
H4_21 H 0.3088 0.7507 0.0765
H5_18 H 0.2569 0.7300 0.0797
N2_21 N 0.18717(13) 0.87822(13) 0.11794(14)
C3_21 C 0.23115(18) 0.93719(19) 0.14594(19)
H6_21 H 0.2404 0.9658 0.1599
C4_21 C 0.18560(19) 0.92247(19) 0.1393(2)
H7_21 H 0.1582 0.9392 0.1476
C5_21 C 0.2512(2) 0.8229(2) 0.0908(3)
H8_21 H 0.2260 0.8089 0.0716
H9_21 H 0.2776 0.8302 0.0697
C6_21 C 0.23311(16) 0.86850(16) 0.11216(16)
C7_21 C 0.2873(3) 0.8735(5) 0.2672(4)
H10_21 H 0.2793 0.8520 0.2413
H11_21 H 0.2999 0.8549 0.2935
N3_21 N 0.40271(14) 0.87130(14) 0.26119(14)
N4_21 N 0.34729(14) 0.98881(14) 0.12130(14)
C8_18 C 0.2421(5) 0.9022(12) 0.2834(8)
H12_18 H 0.2181 0.8804 0.2943
H13_21 H 0.2507 0.9235 0.3088
H14_18 H 0.2300 0.9203 0.2569
N5_21 N 0.37822(13) 0.88206(14) 0.18717(13)
N6_21 N 0.36794(14) 0.87178(13) 0.06283(13)
C9_21 C 0.43719(19) 0.85406(19) 0.23115(18)
H15_21 H 0.4658 0.8401 0.2404
C10_21 C 0.42247(19) 0.8607(2) 0.18560(19)
H16_21 H 0.4392 0.8524 0.1582
C11_21 C 0.3229(2) 0.9092(3) 0.2512(2)
H17_21 H 0.3089 0.9284 0.2260
H18_21 H 0.3302 0.9303 0.2776
C12_21 C 0.36850(16) 0.88784(16) 0.23311(16)
Cd1_22 Cd 0.839540(11) 0.589540(11) 0.8750
C1_22 C 0.7672(4) 0.7127(3) 0.8735(5)
H1_22 H 0.7413 0.7207 0.8520
H2_22 H 0.7935 0.7001 0.8549
N1_22 N 0.76119(14) 0.59729(14) 0.87130(14)
C2_19 C 0.7834(8) 0.7579(5) 0.9022(12)
H3_19 H 0.7943 0.7819 0.8804
H4_22 H 0.8088 0.7493 0.9235
H5_19 H 0.7569 0.7700 0.9203
N2_22 N 0.68717(13) 0.62178(13) 0.88206(14)
C3_22 C 0.73115(18) 0.56281(19) 0.85406(19)
H6_22 H 0.7404 0.5342 0.8401
C4_22 C 0.68560(19) 0.57753(19) 0.8607(2)
H7_22 H 0.6582 0.5608 0.8524
C5_22 C 0.7512(2) 0.6771(2) 0.9092(3)
H8_22 H 0.7260 0.6911 0.9284
H9_22 H 0.7776 0.6698 0.9303
C6_22 C 0.73311(16) 0.63150(16) 0.88784(16)
C7_22 C 0.7873(3) 0.6265(5) 0.7328(4)
H10_22 H 0.7793 0.6480 0.7587
H11_22 H 0.7999 0.6451 0.7065
N3_22 N 0.90271(14) 0.62870(14) 0.73881(14)
N4_22 N 0.84729(14) 0.51119(14) 0.87870(14)
C8_19 C 0.7421(5) 0.5978(12) 0.7166(8)
H12_19 H 0.7181 0.6196 0.7057
H13_22 H 0.7507 0.5765 0.6912
H14_19 H 0.7300 0.5797 0.7431
N5_22 N 0.87822(13) 0.61794(14) 0.81283(13)
N6_22 N 0.86794(14) 0.62822(13) 0.93717(13)
C9_22 C 0.93719(19) 0.64594(19) 0.76885(18)
H15_22 H 0.9658 0.6599 0.7596
C10_22 C 0.92247(19) 0.6393(2) 0.81440(19)
H16_22 H 0.9392 0.6476 0.8418
C11_22 C 0.8229(2) 0.5908(3) 0.7488(2)
H17_22 H 0.8089 0.5716 0.7740
H18_22 H 0.8302 0.5697 0.7224
C12_22 C 0.86850(16) 0.61216(16) 0.76689(16)
Cd1_23 Cd 0.660460(11) 0.410460(11) 0.3750
C1_23 C 0.7328(4) 0.2873(3) 0.3735(5)
H1_23 H 0.7587 0.2793 0.3520
H2_23 H 0.7065 0.2999 0.3549
N1_23 N 0.73881(14) 0.40271(14) 0.37130(14)
C2_20 C 0.7166(8) 0.2421(5) 0.4022(12)
H3_20 H 0.7057 0.2181 0.3804
H4_23 H 0.6912 0.2507 0.4235
H5_20 H 0.7431 0.2300 0.4203
N2_23 N 0.81283(13) 0.37822(13) 0.38206(14)
C3_23 C 0.76885(18) 0.43719(19) 0.35406(19)
H6_23 H 0.7596 0.4658 0.3401
C4_23 C 0.81440(19) 0.42247(19) 0.3607(2)
H7_23 H 0.8418 0.4392 0.3524
C5_23 C 0.7488(2) 0.3229(2) 0.4092(3)
H8_23 H 0.7740 0.3089 0.4284
H9_23 H 0.7224 0.3302 0.4303
C6_23 C 0.76689(16) 0.36850(16) 0.38784(16)
C7_23 C 0.7127(3) 0.3735(5) 0.2328(4)
H10_23 H 0.7207 0.3520 0.2587
H11_23 H 0.7001 0.3549 0.2065
N3_23 N 0.59729(14) 0.37130(14) 0.23881(14)
N4_23 N 0.65271(14) 0.48881(14) 0.37870(14)
C8_20 C 0.7579(5) 0.4022(12) 0.2166(8)
H12_20 H 0.7819 0.3804 0.2057
H13_23 H 0.7493 0.4235 0.1912
H14_20 H 0.7700 0.4203 0.2431
N5_23 N 0.62178(13) 0.38206(14) 0.31283(13)
N6_23 N 0.63206(14) 0.37178(13) 0.43717(13)
C9_23 C 0.56281(19) 0.35406(19) 0.26885(18)
H15_23 H 0.5342 0.3401 0.2596
C10_23 C 0.57753(19) 0.3607(2) 0.31440(19)
H16_23 H 0.5608 0.3524 0.3418
C11_23 C 0.6771(2) 0.4092(3) 0.2488(2)
H17_23 H 0.6911 0.4284 0.2740
H18_23 H 0.6698 0.4303 0.2224
C12_23 C 0.63150(16) 0.38784(16) 0.26689(16)
Cd1_24 Cd 0.160460(11) 0.089540(11) 0.6250
C1_24 C 0.2328(4) 0.2127(3) 0.6265(5)
H1_24 H 0.2587 0.2207 0.6480
H2_24 H 0.2065 0.2001 0.6451
N1_24 N 0.23881(14) 0.09729(14) 0.62870(14)
C2_21 C 0.2166(8) 0.2579(5) 0.5978(12)
H3_21 H 0.2057 0.2819 0.6196
H4_24 H 0.1912 0.2493 0.5765
H5_21 H 0.2431 0.2700 0.5797
N2_24 N 0.31283(13) 0.12178(13) 0.61794(14)
C3_24 C 0.26885(18) 0.06281(19) 0.64594(19)
H6_24 H 0.2596 0.0342 0.6599
C4_24 C 0.31440(19) 0.07753(19) 0.6393(2)
H7_24 H 0.3418 0.0608 0.6476
C5_24 C 0.2488(2) 0.1771(2) 0.5908(3)
H8_24 H 0.2740 0.1911 0.5716
H9_24 H 0.2224 0.1698 0.5697
C6_24 C 0.26689(16) 0.13150(16) 0.61216(16)
C7_24 C 0.2127(3) 0.1265(5) 0.7672(4)
H10_24 H 0.2207 0.1480 0.7413
H11_24 H 0.2001 0.1451 0.7935
N3_24 N 0.09729(14) 0.12870(14) 0.76119(14)
N4_24 N 0.15271(14) 0.01119(14) 0.62130(14)
C8_21 C 0.2579(5) 0.0978(12) 0.7834(8)
H12_21 H 0.2819 0.1196 0.7943
H13_24 H 0.2493 0.0765 0.8088
H14_21 H 0.2700 0.0797 0.7569
N5_24 N 0.12178(13) 0.11794(14) 0.68717(13)
N6_24 N 0.13206(14) 0.12822(13) 0.56283(13)
C9_24 C 0.06281(19) 0.14594(19) 0.73115(18)
H15_24 H 0.0342 0.1599 0.7404
C10_24 C 0.07753(19) 0.1393(2) 0.68560(19)
H16_24 H 0.0608 0.1476 0.6582
C11_24 C 0.1771(2) 0.0908(3) 0.7512(2)
H17_24 H 0.1911 0.0716 0.7260
H18_24 H 0.1698 0.0697 0.7776
C12_24 C 0.13150(16) 0.11216(16) 0.73311(16)
C1_25 C 0.6235(5) 0.0373(3) 0.0172(4)
H2_25 H 0.6049 0.0499 0.0435
H4_25 H 0.6735 0.0007 0.0588
C5_25 C 0.6592(3) 0.0729(2) 0.0012(2)
H9_25 H 0.6803 0.0802 0.0276
Cd3_5 Cd 0.410460(11) 0.1250 0.160460(11)
C7_25 C 0.4828(4) 0.1235(5) 0.0373(3)
H10_25 H 0.5087 0.1020 0.0293
H11_25 H 0.4565 0.1049 0.0499
N3_25 N 0.48881(14) 0.12130(14) 0.15271(14)
H13_25 H 0.4412 0.1735 0.0007
C9_25 C 0.51885(18) 0.10406(19) 0.18719(19)
H15_25 H 0.5096 0.0901 0.2158
C10_25 C 0.56440(19) 0.1107(2) 0.17247(19)
H16_25 H 0.5918 0.1024 0.1892
C11_25 C 0.4988(2) 0.1592(3) 0.0729(2)
H17_25 H 0.5240 0.1784 0.0589
H18_25 H 0.4724 0.1803 0.0802
C12_25 C 0.51689(16) 0.13784(16) 0.11850(16)
H1_25 H 0.6020 0.0293 0.9913
N2_25 N 0.63206(14) 0.12822(13) 0.93717(13)
C3_25 C 0.60406(19) 0.18719(19) 0.98115(18)
H6_25 H 0.5901 0.2158 0.9904
C4_25 C 0.6107(2) 0.17247(19) 0.93560(19)
H7_25 H 0.6024 0.1892 0.9082
H8_25 H 0.6784 0.0589 0.9760
C6_25 C 0.63784(16) 0.11850(16) 0.98311(16)
Cd2_9 Cd 0.660460(11) 0.089540(11) 0.8750
C8_22 C 0.4666(8) 0.1522(12) 0.9921(5)
H12_22 H 0.4557 0.1304 0.9681
H14_22 H 0.4931 0.1703 0.9800
Cd3_6 Cd 0.089540(11) 0.8750 0.660460(11)
C7_26 C 0.0172(4) 0.8765(5) 0.5373(3)
H11_26 H 0.0435 0.8951 0.5499
N3_26 N 0.01119(14) 0.87870(14) 0.65271(14)
C8_23 C 0.0334(8) 0.8478(12) 0.4921(5)
H12_23 H 0.0443 0.8696 0.4681
H13_26 H 0.0588 0.8265 0.5007
H14_23 H 0.0069 0.8297 0.4800
C11_26 C 0.0012(2) 0.8408(3) 0.5729(2)
H18_26 H 0.0276 0.8197 0.5802
C2_22 C 0.8478(12) 0.0079(5) 0.5334(8)
H3_22 H 0.8696 0.0319 0.5443
H5_22 H 0.8297 0.0200 0.5069
C1_26 C 0.8765(5) 0.9627(3) 0.5172(4)
H1_26 H 0.8980 0.9707 0.4913
H2_26 H 0.8951 0.9501 0.5435
H4_26 H 0.8265 0.9993 0.5588
N2_26 N 0.86794(14) 0.87178(13) 0.43717(13)
C3_26 C 0.89594(19) 0.81281(19) 0.48115(18)
H6_26 H 0.9099 0.7842 0.4904
C4_26 C 0.8893(2) 0.82753(19) 0.43560(19)
H7_26 H 0.8976 0.8108 0.4082
C5_26 C 0.8408(3) 0.9271(2) 0.5012(2)
H8_26 H 0.8216 0.9411 0.4760
H9_26 H 0.8197 0.9198 0.5276
C6_26 C 0.86216(16) 0.88150(16) 0.48311(16)
Cd2_10 Cd 0.839540(11) 0.910460(11) 0.3750
H10_26 H 0.9913 0.8980 0.5293
C9_26 C 0.98115(18) 0.89594(19) 0.68719(19)
H15_26 H 0.9904 0.9099 0.7158
C10_26 C 0.93560(19) 0.8893(2) 0.67247(19)
H16_26 H 0.9082 0.8976 0.6892
H17_26 H 0.9760 0.8216 0.5589
C12_26 C 0.98311(16) 0.86216(16) 0.61850(16)
C1_27 C 0.3765(5) 0.5373(3) 0.4828(4)
H1_27 H 0.3980 0.5293 0.5087
H2_27 H 0.3951 0.5499 0.4565
C2_23 C 0.3478(12) 0.4921(5) 0.4666(8)
H3_23 H 0.3696 0.4681 0.4557
H4_27 H 0.3265 0.5007 0.4412
H5_23 H 0.3297 0.4800 0.4931
N2_27 N 0.36794(14) 0.62822(13) 0.56283(13)
C3_27 C 0.39594(19) 0.68719(19) 0.51885(18)
H6_27 H 0.4099 0.7158 0.5096
C4_27 C 0.3893(2) 0.67247(19) 0.56440(19)
H7_27 H 0.3976 0.6892 0.5918
C5_27 C 0.3408(3) 0.5729(2) 0.4988(2)
H8_27 H 0.3216 0.5589 0.5240
H9_27 H 0.3197 0.5802 0.4724
C6_27 C 0.36216(16) 0.61850(16) 0.51689(16)
Cd2_11 Cd 0.339540(11) 0.589540(11) 0.6250
Cd3_7 Cd 0.589540(11) 0.6250 0.339540(11)
C7_27 C 0.5172(4) 0.6235(5) 0.4627(3)
H10_27 H 0.4913 0.6020 0.4707
H11_27 H 0.5435 0.6049 0.4501
N3_27 N 0.51119(14) 0.62130(14) 0.34729(14)
C8_24 C 0.5334(8) 0.6522(12) 0.5079(5)
H12_24 H 0.5443 0.6304 0.5319
H13_27 H 0.5588 0.6735 0.4993
H14_24 H 0.5069 0.6703 0.5200
C9_27 C 0.48115(18) 0.60406(19) 0.31281(19)
H15_27 H 0.4904 0.5901 0.2842
C10_27 C 0.43560(19) 0.6107(2) 0.32753(19)
H16_27 H 0.4082 0.6024 0.3108
C11_27 C 0.5012(2) 0.6592(3) 0.4271(2)
H17_27 H 0.4760 0.6784 0.4411
H18_27 H 0.5276 0.6803 0.4198
C12_27 C 0.48311(16) 0.63784(16) 0.38150(16)
H1_28 H 0.1020 0.4707 0.0087
N2_28 N 0.13206(14) 0.37178(13) 0.06283(13)
C3_28 C 0.10406(19) 0.31281(19) 0.01885(18)
H6_28 H 0.0901 0.2842 0.0096
C4_28 C 0.1107(2) 0.32753(19) 0.06440(19)
H7_28 H 0.1024 0.3108 0.0918
H8_28 H 0.1784 0.4411 0.0240
C6_28 C 0.13784(16) 0.38150(16) 0.01689(16)
Cd2_12 Cd 0.160460(11) 0.410460(11) 0.1250
C1_28 C 0.1235(5) 0.4627(3) 0.9828(4)
H2_28 H 0.1049 0.4501 0.9565
C2_24 C 0.1522(12) 0.5079(5) 0.9666(8)
H3_24 H 0.1304 0.5319 0.9557
H4_28 H 0.1735 0.4993 0.9412
H5_24 H 0.1703 0.5200 0.9931
C5_28 C 0.1592(3) 0.4271(2) 0.9988(2)
H9_28 H 0.1803 0.4198 0.9724
H10_28 H 0.0087 0.3980 0.9707
C9_28 C 0.01885(18) 0.39594(19) 0.81281(19)
H15_28 H 0.0096 0.4099 0.7842
C10_28 C 0.06440(19) 0.3893(2) 0.82753(19)
H16_28 H 0.0918 0.3976 0.8108
H17_28 H 0.0240 0.3216 0.9411
C12_28 C 0.01689(16) 0.36216(16) 0.88150(16)
Cd3_8 Cd 0.910460(11) 0.3750 0.839540(11)
C7_28 C 0.9828(4) 0.3765(5) 0.9627(3)
H11_28 H 0.9565 0.3951 0.9501
N3_28 N 0.98881(14) 0.37870(14) 0.84729(14)
H13_28 H 0.9412 0.3265 0.9993
C11_28 C 0.9988(2) 0.3408(3) 0.9271(2)
H18_28 H 0.9724 0.3197 0.9198
C1_29 C 0.0172(4) 0.6235(5) 0.0373(3)
H2_29 H 0.0435 0.6049 0.0499
H4_29 H 0.0588 0.6735 0.0007
C5_29 C 0.0012(2) 0.6592(3) 0.0729(2)
H9_29 H 0.0276 0.6803 0.0802
C7_29 C 0.0373(3) 0.4828(4) 0.1235(5)
H10_29 H 0.0293 0.5087 0.1020
H11_29 H 0.0499 0.4565 0.1049
N3_29 N 0.15271(14) 0.48881(14) 0.12130(14)
H13_29 H 0.0007 0.4412 0.1735
C9_29 C 0.18719(19) 0.51885(18) 0.10406(19)
H15_29 H 0.2158 0.5096 0.0901
C10_29 C 0.17247(19) 0.56440(19) 0.1107(2)
H16_29 H 0.1892 0.5918 0.1024
C11_29 C 0.0729(2) 0.4988(2) 0.1592(3)
H17_29 H 0.0589 0.5240 0.1784
H18_29 H 0.0802 0.4724 0.1803
C12_29 C 0.11850(16) 0.51689(16) 0.13784(16)
H1_29 H 0.9913 0.6020 0.0293
N2_29 N 0.93717(13) 0.63206(14) 0.12822(13)
C3_29 C 0.98115(18) 0.60406(19) 0.18719(19)
H6_29 H 0.9904 0.5901 0.2158
C4_29 C 0.93560(19) 0.6107(2) 0.17247(19)
H7_29 H 0.9082 0.6024 0.1892
H8_29 H 0.9760 0.6784 0.0589
C6_29 C 0.98311(16) 0.63784(16) 0.11850(16)
Cd2_13 Cd 0.8750 0.660460(11) 0.089540(11)
C8_25 C 0.9921(5) 0.4666(8) 0.1522(12)
H12_25 H 0.9681 0.4557 0.1304
H14_25 H 0.9800 0.4931 0.1703
C7_30 C 0.5373(3) 0.0172(4) 0.8765(5)
H11_30 H 0.5499 0.0435 0.8951
N3_30 N 0.65271(14) 0.01119(14) 0.87870(14)
C8_26 C 0.4921(5) 0.0334(8) 0.8478(12)
H12_26 H 0.4681 0.0443 0.8696
H13_30 H 0.5007 0.0588 0.8265
H14_26 H 0.4800 0.0069 0.8297
C11_30 C 0.5729(2) 0.0012(2) 0.8408(3)
H18_30 H 0.5802 0.0276 0.8197
C2_25 C 0.5334(8) 0.8478(12) 0.0079(5)
H3_25 H 0.5443 0.8696 0.0319
H5_25 H 0.5069 0.8297 0.0200
C1_30 C 0.5172(4) 0.8765(5) 0.9627(3)
H1_30 H 0.4913 0.8980 0.9707
H2_30 H 0.5435 0.8951 0.9501
H4_30 H 0.5588 0.8265 0.9993
N2_30 N 0.43717(13) 0.86794(14) 0.87178(13)
C3_30 C 0.48115(18) 0.89594(19) 0.81281(19)
H6_30 H 0.4904 0.9099 0.7842
C4_30 C 0.43560(19) 0.8893(2) 0.82753(19)
H7_30 H 0.4082 0.8976 0.8108
C5_30 C 0.5012(2) 0.8408(3) 0.9271(2)
H8_30 H 0.4760 0.8216 0.9411
H9_30 H 0.5276 0.8197 0.9198
C6_30 C 0.48311(16) 0.86216(16) 0.88150(16)
Cd2_14 Cd 0.3750 0.839540(11) 0.910460(11)
H10_30 H 0.5293 0.9913 0.8980
C9_30 C 0.68719(19) 0.98115(18) 0.89594(19)
H15_30 H 0.7158 0.9904 0.9099
C10_30 C 0.67247(19) 0.93560(19) 0.8893(2)
H16_30 H 0.6892 0.9082 0.8976
H17_30 H 0.5589 0.9760 0.8216
C12_30 C 0.61850(16) 0.98311(16) 0.86216(16)
C1_31 C 0.4828(4) 0.3765(5) 0.5373(3)
H1_31 H 0.5087 0.3980 0.5293
H2_31 H 0.4565 0.3951 0.5499
C2_26 C 0.4666(8) 0.3478(12) 0.4921(5)
H3_26 H 0.4557 0.3696 0.4681
H4_31 H 0.4412 0.3265 0.5007
H5_26 H 0.4931 0.3297 0.4800
N2_31 N 0.56283(13) 0.36794(14) 0.62822(13)
C3_31 C 0.51885(18) 0.39594(19) 0.68719(19)
H6_31 H 0.5096 0.4099 0.7158
C4_31 C 0.56440(19) 0.3893(2) 0.67247(19)
H7_31 H 0.5918 0.3976 0.6892
C5_31 C 0.4988(2) 0.3408(3) 0.5729(2)
H8_31 H 0.5240 0.3216 0.5589
H9_31 H 0.4724 0.3197 0.5802
C6_31 C 0.51689(16) 0.36216(16) 0.61850(16)
Cd2_15 Cd 0.6250 0.339540(11) 0.589540(11)
C7_31 C 0.4627(3) 0.5172(4) 0.6235(5)
H10_31 H 0.4707 0.4913 0.6020
H11_31 H 0.4501 0.5435 0.6049
N3_31 N 0.34729(14) 0.51119(14) 0.62130(14)
C8_27 C 0.5079(5) 0.5334(8) 0.6522(12)
H12_27 H 0.5319 0.5443 0.6304
H13_31 H 0.4993 0.5588 0.6735
H14_27 H 0.5200 0.5069 0.6703
C9_31 C 0.31281(19) 0.48115(18) 0.60406(19)
H15_31 H 0.2842 0.4904 0.5901
C10_31 C 0.32753(19) 0.43560(19) 0.6107(2)
H16_31 H 0.3108 0.4082 0.6024
C11_31 C 0.4271(2) 0.5012(2) 0.6592(3)
H17_31 H 0.4411 0.4760 0.6784
H18_31 H 0.4198 0.5276 0.6803
C12_31 C 0.38150(16) 0.48311(16) 0.63784(16)
H1_32 H 0.0087 0.1020 0.4707
N2_32 N 0.06283(13) 0.13206(14) 0.37178(13)
C3_32 C 0.01885(18) 0.10406(19) 0.31281(19)
H6_32 H 0.0096 0.0901 0.2842
C4_32 C 0.06440(19) 0.1107(2) 0.32753(19)
H7_32 H 0.0918 0.1024 0.3108
H8_32 H 0.0240 0.1784 0.4411
C6_32 C 0.01689(16) 0.13784(16) 0.38150(16)
Cd2_16 Cd 0.1250 0.160460(11) 0.410460(11)
C1_32 C 0.9828(4) 0.1235(5) 0.4627(3)
H2_32 H 0.9565 0.1049 0.4501
C2_27 C 0.9666(8) 0.1522(12) 0.5079(5)
H3_27 H 0.9557 0.1304 0.5319
H4_32 H 0.9412 0.1735 0.4993
H5_27 H 0.9931 0.1703 0.5200
C5_32 C 0.9988(2) 0.1592(3) 0.4271(2)
H9_32 H 0.9724 0.1803 0.4198
H10_32 H 0.9707 0.0087 0.3980
C9_32 C 0.81281(19) 0.01885(18) 0.39594(19)
H15_32 H 0.7842 0.0096 0.4099
C10_32 C 0.82753(19) 0.06440(19) 0.3893(2)
H16_32 H 0.8108 0.0918 0.3976
H17_32 H 0.9411 0.0240 0.3216
C12_32 C 0.88150(16) 0.01689(16) 0.36216(16)
C7_32 C 0.9627(3) 0.9828(4) 0.3765(5)
H11_32 H 0.9501 0.9565 0.3951
N3_32 N 0.84729(14) 0.98881(14) 0.37870(14)
H13_32 H 0.9993 0.9412 0.3265
C11_32 C 0.9271(2) 0.9988(2) 0.3408(3)
H18_32 H 0.9198 0.9724 0.3197
C1_33 C 0.0373(3) 0.0172(4) 0.6235(5)
H2_33 H 0.0499 0.0435 0.6049
H4_33 H 0.0007 0.0588 0.6735
C5_33 C 0.0729(2) 0.0012(2) 0.6592(3)
H9_33 H 0.0802 0.0276 0.6803
C7_33 C 0.1235(5) 0.0373(3) 0.4828(4)
H10_33 H 0.1020 0.0293 0.5087
H11_33 H 0.1049 0.0499 0.4565
N3_33 N 0.12130(14) 0.15271(14) 0.48881(14)
H13_33 H 0.1735 0.0007 0.4412
C9_33 C 0.10406(19) 0.18719(19) 0.51885(18)
H15_33 H 0.0901 0.2158 0.5096
C10_33 C 0.1107(2) 0.17247(19) 0.56440(19)
H16_33 H 0.1024 0.1892 0.5918
C11_33 C 0.1592(3) 0.0729(2) 0.4988(2)
H17_33 H 0.1784 0.0589 0.5240
H18_33 H 0.1803 0.0802 0.4724
C12_33 C 0.13784(16) 0.11850(16) 0.51689(16)
H1_33 H 0.0293 0.9913 0.6020
N2_33 N 0.12822(13) 0.93717(13) 0.63206(14)
C3_33 C 0.18719(19) 0.98115(18) 0.60406(19)
H6_33 H 0.2158 0.9904 0.5901
C4_33 C 0.17247(19) 0.93560(19) 0.6107(2)
H7_33 H 0.1892 0.9082 0.6024
H8_33 H 0.0589 0.9760 0.6784
C6_33 C 0.11850(16) 0.98311(16) 0.63784(16)
C8_28 C 0.1522(12) 0.9921(5) 0.4666(8)
H12_28 H 0.1304 0.9681 0.4557
H14_28 H 0.1703 0.9800 0.4931
C2_28 C 0.0079(5) 0.5334(8) 0.8478(12)
H3_28 H 0.0319 0.5443 0.8696
H5_28 H 0.0200 0.5069 0.8297
C7_34 C 0.8765(5) 0.5373(3) 0.0172(4)
H11_34 H 0.8951 0.5499 0.0435
N3_34 N 0.87870(14) 0.65271(14) 0.01119(14)
C8_29 C 0.8478(12) 0.4921(5) 0.0334(8)
H12_29 H 0.8696 0.4681 0.0443
H13_34 H 0.8265 0.5007 0.0588
H14_29 H 0.8297 0.4800 0.0069
C11_34 C 0.8408(3) 0.5729(2) 0.0012(2)
H18_34 H 0.8197 0.5802 0.0276
C1_34 C 0.9627(3) 0.5172(4) 0.8765(5)
H1_34 H 0.9707 0.4913 0.8980
H2_34 H 0.9501 0.5435 0.8951
H4_34 H 0.9993 0.5588 0.8265
N2_34 N 0.87178(13) 0.43717(13) 0.86794(14)
C3_34 C 0.81281(19) 0.48115(18) 0.89594(19)
H6_34 H 0.7842 0.4904 0.9099
C4_34 C 0.82753(19) 0.43560(19) 0.8893(2)
H7_34 H 0.8108 0.4082 0.8976
C5_34 C 0.9271(2) 0.5012(2) 0.8408(3)
H8_34 H 0.9411 0.4760 0.8216
H9_34 H 0.9198 0.5276 0.8197
C6_34 C 0.88150(16) 0.48311(16) 0.86216(16)
H10_34 H 0.8980 0.5293 0.9913
C9_34 C 0.89594(19) 0.68719(19) 0.98115(18)
H15_34 H 0.9099 0.7158 0.9904
C10_34 C 0.8893(2) 0.67247(19) 0.93560(19)
H16_34 H 0.8976 0.6892 0.9082
H17_34 H 0.8216 0.5589 0.9760
C12_34 C 0.86216(16) 0.61850(16) 0.98311(16)
C1_35 C 0.5373(3) 0.4828(4) 0.3765(5)
H1_35 H 0.5293 0.5087 0.3980
H2_35 H 0.5499 0.4565 0.3951
C2_29 C 0.4921(5) 0.4666(8) 0.3478(12)
H3_29 H 0.4681 0.4557 0.3696
H4_35 H 0.5007 0.4412 0.3265
H5_29 H 0.4800 0.4931 0.3297
N2_35 N 0.62822(13) 0.56283(13) 0.36794(14)
C3_35 C 0.68719(19) 0.51885(18) 0.39594(19)
H6_35 H 0.7158 0.5096 0.4099
C4_35 C 0.67247(19) 0.56440(19) 0.3893(2)
H7_35 H 0.6892 0.5918 0.3976
C5_35 C 0.5729(2) 0.4988(2) 0.3408(3)
H8_35 H 0.5589 0.5240 0.3216
H9_35 H 0.5802 0.4724 0.3197
C6_35 C 0.61850(16) 0.51689(16) 0.36216(16)
C7_35 C 0.6235(5) 0.4627(3) 0.5172(4)
H10_35 H 0.6020 0.4707 0.4913
H11_35 H 0.6049 0.4501 0.5435
N3_35 N 0.62130(14) 0.34729(14) 0.51119(14)
C8_30 C 0.6522(12) 0.5079(5) 0.5334(8)
H12_30 H 0.6304 0.5319 0.5443
H13_35 H 0.6735 0.4993 0.5588
H14_30 H 0.6703 0.5200 0.5069
C9_35 C 0.60406(19) 0.31281(19) 0.48115(18)
H15_35 H 0.5901 0.2842 0.4904
C10_35 C 0.6107(2) 0.32753(19) 0.43560(19)
H16_35 H 0.6024 0.3108 0.4082
C11_35 C 0.6592(3) 0.4271(2) 0.5012(2)
H17_35 H 0.6784 0.4411 0.4760
H18_35 H 0.6803 0.4198 0.5276
C12_35 C 0.63784(16) 0.38150(16) 0.48311(16)
H1_36 H 0.4707 0.0087 0.1020
N2_36 N 0.37178(13) 0.06283(13) 0.13206(14)
C3_36 C 0.31281(19) 0.01885(18) 0.10406(19)
H6_36 H 0.2842 0.0096 0.0901
C4_36 C 0.32753(19) 0.06440(19) 0.1107(2)
H7_36 H 0.3108 0.0918 0.1024
H8_36 H 0.4411 0.0240 0.1784
C6_36 C 0.38150(16) 0.01689(16) 0.13784(16)
C1_36 C 0.4627(3) 0.9828(4) 0.1235(5)
H2_36 H 0.4501 0.9565 0.1049
C2_30 C 0.5079(5) 0.9666(8) 0.1522(12)
H3_30 H 0.5319 0.9557 0.1304
H4_36 H 0.4993 0.9412 0.1735
H5_30 H 0.5200 0.9931 0.1703
C5_36 C 0.4271(2) 0.9988(2) 0.1592(3)
H9_36 H 0.4198 0.9724 0.1803
H10_36 H 0.3980 0.9707 0.0087
C9_36 C 0.39594(19) 0.81281(19) 0.01885(18)
H15_36 H 0.4099 0.7842 0.0096
C10_36 C 0.3893(2) 0.82753(19) 0.06440(19)
H16_36 H 0.3976 0.8108 0.0918
H17_36 H 0.3216 0.9411 0.0240
C12_36 C 0.36216(16) 0.88150(16) 0.01689(16)
C7_36 C 0.3765(5) 0.9627(3) 0.9828(4)
H11_36 H 0.3951 0.9501 0.9565
N3_36 N 0.37870(14) 0.84729(14) 0.98881(14)
H13_36 H 0.3265 0.9993 0.9412
C11_36 C 0.3408(3) 0.9271(2) 0.9988(2)
H18_36 H 0.3197 0.9198 0.9724
C1_37 C 0.7873(3) 0.8735(5) 0.2328(4)
H1_37 H 0.7793 0.8520 0.2587
H2_37 H 0.7999 0.8549 0.2065
C2_31 C 0.7421(5) 0.9022(12) 0.2166(8)
H3_31 H 0.7181 0.8804 0.2057
H4_37 H 0.7507 0.9235 0.1912
H5_31 H 0.7300 0.9203 0.2431
N2_37 N 0.87822(13) 0.88206(14) 0.31283(13)
C3_37 C 0.93719(19) 0.85406(19) 0.26885(18)
H6_37 H 0.9658 0.8401 0.2596
C4_37 C 0.92247(19) 0.8607(2) 0.31440(19)
H7_37 H 0.9392 0.8524 0.3418
C5_37 C 0.8229(2) 0.9092(3) 0.2488(2)
H8_37 H 0.8089 0.9284 0.2740
H9_37 H 0.8302 0.9303 0.2224
C6_37 C 0.86850(16) 0.88784(16) 0.26689(16)
C7_37 C 0.8735(5) 0.7328(4) 0.2127(3)
H10_37 H 0.8520 0.7587 0.2207
H11_37 H 0.8549 0.7065 0.2001
N3_37 N 0.87130(14) 0.73881(14) 0.09729(14)
C8_31 C 0.9022(12) 0.7166(8) 0.2579(5)
H12_31 H 0.8804 0.7057 0.2819
H13_37 H 0.9235 0.6912 0.2493
H14_31 H 0.9203 0.7431 0.2700
C9_37 C 0.85406(19) 0.76885(18) 0.06281(19)
H15_37 H 0.8401 0.7596 0.0342
C10_37 C 0.8607(2) 0.81440(19) 0.07753(19)
H16_37 H 0.8524 0.8418 0.0608
C11_37 C 0.9092(3) 0.7488(2) 0.1771(2)
H17_37 H 0.9284 0.7740 0.1911
H18_37 H 0.9303 0.7224 0.1698
C12_37 C 0.88784(16) 0.76689(16) 0.13150(16)
C1_38 C 0.7127(3) 0.1265(5) 0.7328(4)
H1_38 H 0.7207 0.1480 0.7587
H2_38 H 0.7001 0.1451 0.7065
C2_32 C 0.7579(5) 0.0978(12) 0.7166(8)
H3_32 H 0.7819 0.1196 0.7057
H4_38 H 0.7493 0.0765 0.6912
H5_32 H 0.7700 0.0797 0.7431
N2_38 N 0.62178(13) 0.11794(14) 0.81283(13)
C3_38 C 0.56281(19) 0.14594(19) 0.76885(18)
H6_38 H 0.5342 0.1599 0.7596
C4_38 C 0.57753(19) 0.1393(2) 0.81440(19)
H7_38 H 0.5608 0.1476 0.8418
C5_38 C 0.6771(2) 0.0908(3) 0.7488(2)
H8_38 H 0.6911 0.0716 0.7740
H9_38 H 0.6698 0.0697 0.7224
C6_38 C 0.63150(16) 0.11216(16) 0.76689(16)
C7_38 C 0.6265(5) 0.2672(4) 0.7127(3)
H10_38 H 0.6480 0.2413 0.7207
H11_38 H 0.6451 0.2935 0.7001
N3_38 N 0.62870(14) 0.26119(14) 0.59729(14)
C8_32 C 0.5978(12) 0.2834(8) 0.7579(5)
H12_32 H 0.6196 0.2943 0.7819
H13_38 H 0.5765 0.3088 0.7493
H14_32 H 0.5797 0.2569 0.7700
C9_38 C 0.64594(19) 0.23115(18) 0.56281(19)
H15_38 H 0.6599 0.2404 0.5342
C10_38 C 0.6393(2) 0.18560(19) 0.57753(19)
H16_38 H 0.6476 0.1582 0.5608
C11_38 C 0.5908(3) 0.2512(2) 0.6771(2)
H17_38 H 0.5716 0.2260 0.6911
H18_38 H 0.5697 0.2776 0.6698
C12_38 C 0.61216(16) 0.23311(16) 0.63150(16)
C1_39 C 0.2873(3) 0.6265(5) 0.7672(4)
H1_39 H 0.2793 0.6480 0.7413
H2_39 H 0.2999 0.6451 0.7935
C2_33 C 0.2421(5) 0.5978(12) 0.7834(8)
H3_33 H 0.2181 0.6196 0.7943
H4_39 H 0.2507 0.5765 0.8088
H5_33 H 0.2300 0.5797 0.7569
N2_39 N 0.37822(13) 0.61794(14) 0.68717(13)
C3_39 C 0.43719(19) 0.64594(19) 0.73115(18)
H6_39 H 0.4658 0.6599 0.7404
C4_39 C 0.42247(19) 0.6393(2) 0.68560(19)
H7_39 H 0.4392 0.6476 0.6582
C5_39 C 0.3229(2) 0.5908(3) 0.7512(2)
H8_39 H 0.3089 0.5716 0.7260
H9_39 H 0.3302 0.5697 0.7776
C6_39 C 0.36850(16) 0.61216(16) 0.73311(16)
C7_39 C 0.3735(5) 0.7672(4) 0.7873(3)
H10_39 H 0.3520 0.7413 0.7793
H11_39 H 0.3549 0.7935 0.7999
N3_39 N 0.37130(14) 0.76119(14) 0.90271(14)
C8_33 C 0.4022(12) 0.7834(8) 0.7421(5)
H12_33 H 0.3804 0.7943 0.7181
H13_39 H 0.4235 0.8088 0.7507
H14_33 H 0.4203 0.7569 0.7300
C9_39 C 0.35406(19) 0.73115(18) 0.93719(19)
H15_39 H 0.3401 0.7404 0.9658
C10_39 C 0.3607(2) 0.68560(19) 0.92247(19)
H16_39 H 0.3524 0.6582 0.9392
C11_39 C 0.4092(3) 0.7512(2) 0.8229(2)
H17_39 H 0.4284 0.7260 0.8089
H18_39 H 0.4303 0.7776 0.8302
C12_39 C 0.38784(16) 0.73311(16) 0.86850(16)
C1_40 C 0.2127(3) 0.3735(5) 0.2672(4)
H1_40 H 0.2207 0.3520 0.2413
H2_40 H 0.2001 0.3549 0.2935
C2_34 C 0.2579(5) 0.4022(12) 0.2834(8)
H3_34 H 0.2819 0.3804 0.2943
H4_40 H 0.2493 0.4235 0.3088
H5_34 H 0.2700 0.4203 0.2569
N2_40 N 0.12178(13) 0.38206(14) 0.18717(13)
C3_40 C 0.06281(19) 0.35406(19) 0.23115(18)
H6_40 H 0.0342 0.3401 0.2404
C4_40 C 0.07753(19) 0.3607(2) 0.18560(19)
H7_40 H 0.0608 0.3524 0.1582
C5_40 C 0.1771(2) 0.4092(3) 0.2512(2)
H8_40 H 0.1911 0.4284 0.2260
H9_40 H 0.1698 0.4303 0.2776
C6_40 C 0.13150(16) 0.38784(16) 0.23311(16)
C7_40 C 0.1265(5) 0.2328(4) 0.2873(3)
H10_40 H 0.1480 0.2587 0.2793
H11_40 H 0.1451 0.2065 0.2999
N3_40 N 0.12870(14) 0.23881(14) 0.40271(14)
C8_34 C 0.0978(12) 0.2166(8) 0.2421(5)
H12_34 H 0.1196 0.2057 0.2181
H13_40 H 0.0765 0.1912 0.2507
H14_34 H 0.0797 0.2431 0.2300
C9_40 C 0.14594(19) 0.26885(18) 0.43719(19)
H15_40 H 0.1599 0.2596 0.4658
C10_40 C 0.1393(2) 0.31440(19) 0.42247(19)
H16_40 H 0.1476 0.3418 0.4392
C11_40 C 0.0908(3) 0.2488(2) 0.3229(2)
H17_40 H 0.0716 0.2740 0.3089
H18_40 H 0.0697 0.2224 0.3302
C12_40 C 0.11216(16) 0.26689(16) 0.36850(16)
C1_41 C 0.3735(5) 0.2672(4) 0.2127(3)
H1_41 H 0.3520 0.2413 0.2207
H2_41 H 0.3549 0.2935 0.2001
C2_35 C 0.4022(12) 0.2834(8) 0.2579(5)
H3_35 H 0.3804 0.2943 0.2819
H4_41 H 0.4235 0.3088 0.2493
H5_35 H 0.4203 0.2569 0.2700
N2_41 N 0.38206(14) 0.18717(13) 0.12178(13)
C3_41 C 0.35406(19) 0.23115(18) 0.06281(19)
H6_41 H 0.3401 0.2404 0.0342
C4_41 C 0.3607(2) 0.18560(19) 0.07753(19)
H7_41 H 0.3524 0.1582 0.0608
C5_41 C 0.4092(3) 0.2512(2) 0.1771(2)
H8_41 H 0.4284 0.2260 0.1911
H9_41 H 0.4303 0.2776 0.1698
C6_41 C 0.38784(16) 0.23311(16) 0.13150(16)
C7_41 C 0.2328(4) 0.2873(3) 0.1265(5)
H10_41 H 0.2587 0.2793 0.1480
H11_41 H 0.2065 0.2999 0.1451
N3_41 N 0.23881(14) 0.40271(14) 0.12870(14)
C8_35 C 0.2166(8) 0.2421(5) 0.0978(12)
H12_35 H 0.2057 0.2181 0.1196
H13_41 H 0.1912 0.2507 0.0765
H14_35 H 0.2431 0.2300 0.0797
C9_41 C 0.26885(18) 0.43719(19) 0.14594(19)
H15_41 H 0.2596 0.4658 0.1599
C10_41 C 0.31440(19) 0.42247(19) 0.1393(2)
H16_41 H 0.3418 0.4392 0.1476
C11_41 C 0.2488(2) 0.3229(2) 0.0908(3)
H17_41 H 0.2740 0.3089 0.0716
H18_41 H 0.2224 0.3302 0.0697
C12_41 C 0.26689(16) 0.36850(16) 0.11216(16)
C1_42 C 0.6265(5) 0.7672(4) 0.2873(3)
H1_42 H 0.6480 0.7413 0.2793
H2_42 H 0.6451 0.7935 0.2999
C2_36 C 0.5978(12) 0.7834(8) 0.2421(5)
H3_36 H 0.6196 0.7943 0.2181
H4_42 H 0.5765 0.8088 0.2507
H5_36 H 0.5797 0.7569 0.2300
N2_42 N 0.61794(14) 0.68717(13) 0.37822(13)
C3_42 C 0.64594(19) 0.73115(18) 0.43719(19)
H6_42 H 0.6599 0.7404 0.4658
C4_42 C 0.6393(2) 0.68560(19) 0.42247(19)
H7_42 H 0.6476 0.6582 0.4392
C5_42 C 0.5908(3) 0.7512(2) 0.3229(2)
H8_42 H 0.5716 0.7260 0.3089
H9_42 H 0.5697 0.7776 0.3302
C6_42 C 0.61216(16) 0.73311(16) 0.36850(16)
C7_42 C 0.7672(4) 0.7873(3) 0.3735(5)
H10_42 H 0.7413 0.7793 0.3520
H11_42 H 0.7935 0.7999 0.3549
N3_42 N 0.76119(14) 0.90271(14) 0.37130(14)
C8_36 C 0.7834(8) 0.7421(5) 0.4022(12)
H12_36 H 0.7943 0.7181 0.3804
H13_42 H 0.8088 0.7507 0.4235
H14_36 H 0.7569 0.7300 0.4203
C9_42 C 0.73115(18) 0.93719(19) 0.35406(19)
H15_42 H 0.7404 0.9658 0.3401
C10_42 C 0.68560(19) 0.92247(19) 0.3607(2)
H16_42 H 0.6582 0.9392 0.3524
C11_42 C 0.7512(2) 0.8229(2) 0.4092(3)
H17_42 H 0.7260 0.8089 0.4284
H18_42 H 0.7776 0.8302 0.4303
C12_42 C 0.73311(16) 0.86850(16) 0.38784(16)
C1_43 C 0.1265(5) 0.7328(4) 0.7127(3)
H1_43 H 0.1480 0.7587 0.7207
H2_43 H 0.1451 0.7065 0.7001
C2_37 C 0.0978(12) 0.7166(8) 0.7579(5)
H3_37 H 0.1196 0.7057 0.7819
H4_43 H 0.0765 0.6912 0.7493
H5_37 H 0.0797 0.7431 0.7700
N2_43 N 0.11794(14) 0.81283(13) 0.62178(13)
C3_43 C 0.14594(19) 0.76885(18) 0.56281(19)
H6_43 H 0.1599 0.7596 0.5342
C4_43 C 0.1393(2) 0.81440(19) 0.57753(19)
H7_43 H 0.1476 0.8418 0.5608
C5_43 C 0.0908(3) 0.7488(2) 0.6771(2)
H8_43 H 0.0716 0.7740 0.6911
H9_43 H 0.0697 0.7224 0.6698
C6_43 C 0.11216(16) 0.76689(16) 0.63150(16)
C7_43 C 0.2672(4) 0.7127(3) 0.6265(5)
H10_43 H 0.2413 0.7207 0.6480
H11_43 H 0.2935 0.7001 0.6451
N3_43 N 0.26119(14) 0.59729(14) 0.62870(14)
C8_37 C 0.2834(8) 0.7579(5) 0.5978(12)
H12_37 H 0.2943 0.7819 0.6196
H13_43 H 0.3088 0.7493 0.5765
H14_37 H 0.2569 0.7700 0.5797
C9_43 C 0.23115(18) 0.56281(19) 0.64594(19)
H15_43 H 0.2404 0.5342 0.6599
C10_43 C 0.18560(19) 0.57753(19) 0.6393(2)
H16_43 H 0.1582 0.5608 0.6476
C11_43 C 0.2512(2) 0.6771(2) 0.5908(3)
H17_43 H 0.2260 0.6911 0.5716
H18_43 H 0.2776 0.6698 0.5697
C12_43 C 0.23311(16) 0.63150(16) 0.61216(16)
C1_44 C 0.8735(5) 0.2328(4) 0.7873(3)
H1_44 H 0.8520 0.2587 0.7793
H2_44 H 0.8549 0.2065 0.7999
C2_38 C 0.9022(12) 0.2166(8) 0.7421(5)
H3_38 H 0.8804 0.2057 0.7181
H4_44 H 0.9235 0.1912 0.7507
H5_38 H 0.9203 0.2431 0.7300
N2_44 N 0.88206(14) 0.31283(13) 0.87822(13)
C3_44 C 0.85406(19) 0.26885(18) 0.93719(19)
H6_44 H 0.8401 0.2596 0.9658
C4_44 C 0.8607(2) 0.31440(19) 0.92247(19)
H7_44 H 0.8524 0.3418 0.9392
C5_44 C 0.9092(3) 0.2488(2) 0.8229(2)
H8_44 H 0.9284 0.2740 0.8089
H9_44 H 0.9303 0.2224 0.8302
C6_44 C 0.88784(16) 0.26689(16) 0.86850(16)
C7_44 C 0.7328(4) 0.2127(3) 0.8735(5)
H10_44 H 0.7587 0.2207 0.8520
H11_44 H 0.7065 0.2001 0.8549
N3_44 N 0.73881(14) 0.09729(14) 0.87130(14)
C8_38 C 0.7166(8) 0.2579(5) 0.9022(12)
H12_38 H 0.7057 0.2819 0.8804
H13_44 H 0.6912 0.2493 0.9235
H14_38 H 0.7431 0.2700 0.9203
C9_44 C 0.76885(18) 0.06281(19) 0.85406(19)
H15_44 H 0.7596 0.0342 0.8401
C10_44 C 0.81440(19) 0.07753(19) 0.8607(2)
H16_44 H 0.8418 0.0608 0.8524
C11_44 C 0.7488(2) 0.1771(2) 0.9092(3)
H17_44 H 0.7740 0.1911 0.9284
H18_44 H 0.7224 0.1698 0.9303
C12_44 C 0.76689(16) 0.13150(16) 0.88784(16)
C1_45 C 0.7672(4) 0.2873(3) 0.6265(5)
H1_45 H 0.7413 0.2793 0.6480
H2_45 H 0.7935 0.2999 0.6451
C2_39 C 0.7834(8) 0.2421(5) 0.5978(12)
H3_39 H 0.7943 0.2181 0.6196
H4_45 H 0.8088 0.2507 0.5765
H5_39 H 0.7569 0.2300 0.5797
N2_45 N 0.68717(13) 0.37822(13) 0.61794(14)
C3_45 C 0.73115(18) 0.43719(19) 0.64594(19)
H6_45 H 0.7404 0.4658 0.6599
C4_45 C 0.68560(19) 0.42247(19) 0.6393(2)
H7_45 H 0.6582 0.4392 0.6476
C5_45 C 0.7512(2) 0.3229(2) 0.5908(3)
H8_45 H 0.7260 0.3089 0.5716
H9_45 H 0.7776 0.3302 0.5697
C6_45 C 0.73311(16) 0.36850(16) 0.61216(16)
C7_45 C 0.7873(3) 0.3735(5) 0.7672(4)
H10_45 H 0.7793 0.3520 0.7413
H11_45 H 0.7999 0.3549 0.7935
N3_45 N 0.90271(14) 0.37130(14) 0.76119(14)
C8_39 C 0.7421(5) 0.4022(12) 0.7834(8)
H12_39 H 0.7181 0.3804 0.7943
H13_45 H 0.7507 0.4235 0.8088
H14_39 H 0.7300 0.4203 0.7569
C9_45 C 0.93719(19) 0.35406(19) 0.73115(18)
H15_45 H 0.9658 0.3401 0.7404
C10_45 C 0.92247(19) 0.3607(2) 0.68560(19)
H16_45 H 0.9392 0.3524 0.6582
C11_45 C 0.8229(2) 0.4092(3) 0.7512(2)
H17_45 H 0.8089 0.4284 0.7260
H18_45 H 0.8302 0.4303 0.7776
C12_45 C 0.86850(16) 0.38784(16) 0.73311(16)
C1_46 C 0.2672(4) 0.2127(3) 0.3735(5)
H1_46 H 0.2413 0.2207 0.3520
H2_46 H 0.2935 0.2001 0.3549
C2_40 C 0.2834(8) 0.2579(5) 0.4022(12)
H3_40 H 0.2943 0.2819 0.3804
H4_46 H 0.3088 0.2493 0.4235
H5_40 H 0.2569 0.2700 0.4203
N2_46 N 0.18717(13) 0.12178(13) 0.38206(14)
C3_46 C 0.23115(18) 0.06281(19) 0.35406(19)
H6_46 H 0.2404 0.0342 0.3401
C4_46 C 0.18560(19) 0.07753(19) 0.3607(2)
H7_46 H 0.1582 0.0608 0.3524
C5_46 C 0.2512(2) 0.1771(2) 0.4092(3)
H8_46 H 0.2260 0.1911 0.4284
H9_46 H 0.2776 0.1698 0.4303
C6_46 C 0.23311(16) 0.13150(16) 0.38784(16)
C7_46 C 0.2873(3) 0.1265(5) 0.2328(4)
H10_46 H 0.2793 0.1480 0.2587
H11_46 H 0.2999 0.1451 0.2065
N3_46 N 0.40271(14) 0.12870(14) 0.23881(14)
C8_40 C 0.2421(5) 0.0978(12) 0.2166(8)
H12_40 H 0.2181 0.1196 0.2057
H13_46 H 0.2507 0.0765 0.1912
H14_40 H 0.2300 0.0797 0.2431
C9_46 C 0.43719(19) 0.14594(19) 0.26885(18)
H15_46 H 0.4658 0.1599 0.2596
C10_46 C 0.42247(19) 0.1393(2) 0.31440(19)
H16_46 H 0.4392 0.1476 0.3418
C11_46 C 0.3229(2) 0.0908(3) 0.2488(2)
H17_46 H 0.3089 0.0716 0.2740
H18_46 H 0.3302 0.0697 0.2224
C12_46 C 0.36850(16) 0.11216(16) 0.26689(16)
C1_47 C 0.2328(4) 0.7873(3) 0.8735(5)
H1_47 H 0.2587 0.7793 0.8520
H2_47 H 0.2065 0.7999 0.8549
C2_41 C 0.2166(8) 0.7421(5) 0.9022(12)
H3_41 H 0.2057 0.7181 0.8804
H4_47 H 0.1912 0.7507 0.9235
H5_41 H 0.2431 0.7300 0.9203
N2_47 N 0.31283(13) 0.87822(13) 0.88206(14)
C3_47 C 0.26885(18) 0.93719(19) 0.85406(19)
H6_47 H 0.2596 0.9658 0.8401
C4_47 C 0.31440(19) 0.92247(19) 0.8607(2)
H7_47 H 0.3418 0.9392 0.8524
C5_47 C 0.2488(2) 0.8229(2) 0.9092(3)
H8_47 H 0.2740 0.8089 0.9284
H9_47 H 0.2224 0.8302 0.9303
C6_47 C 0.26689(16) 0.86850(16) 0.88784(16)
C7_47 C 0.2127(3) 0.8735(5) 0.7328(4)
H10_47 H 0.2207 0.8520 0.7587
H11_47 H 0.2001 0.8549 0.7065
N3_47 N 0.09729(14) 0.87130(14) 0.73881(14)
C8_41 C 0.2579(5) 0.9022(12) 0.7166(8)
H12_41 H 0.2819 0.8804 0.7057
H13_47 H 0.2493 0.9235 0.6912
H14_41 H 0.2700 0.9203 0.7431
C9_47 C 0.06281(19) 0.85406(19) 0.76885(18)
H15_47 H 0.0342 0.8401 0.7596
C10_47 C 0.07753(19) 0.8607(2) 0.81440(19)
H16_47 H 0.0608 0.8524 0.8418
C11_47 C 0.1771(2) 0.9092(3) 0.7488(2)
H17_47 H 0.1911 0.9284 0.7740
H18_47 H 0.1698 0.9303 0.7224
C12_47 C 0.13150(16) 0.88784(16) 0.76689(16)
C1_48 C 0.7328(4) 0.7127(3) 0.1265(5)
H1_48 H 0.7587 0.7207 0.1480
H2_48 H 0.7065 0.7001 0.1451
C2_42 C 0.7166(8) 0.7579(5) 0.0978(12)
H3_42 H 0.7057 0.7819 0.1196
H4_48 H 0.6912 0.7493 0.0765
H5_42 H 0.7431 0.7700 0.0797
N2_48 N 0.81283(13) 0.62178(13) 0.11794(14)
C3_48 C 0.76885(18) 0.56281(19) 0.14594(19)
H6_48 H 0.7596 0.5342 0.1599
C4_48 C 0.81440(19) 0.57753(19) 0.1393(2)
H7_48 H 0.8418 0.5608 0.1476
C5_48 C 0.7488(2) 0.6771(2) 0.0908(3)
H8_48 H 0.7740 0.6911 0.0716
H9_48 H 0.7224 0.6698 0.0697
C6_48 C 0.76689(16) 0.63150(16) 0.11216(16)
C7_48 C 0.7127(3) 0.6265(5) 0.2672(4)
H10_48 H 0.7207 0.6480 0.2413
H11_48 H 0.7001 0.6451 0.2935
N3_48 N 0.59729(14) 0.62870(14) 0.26119(14)
C8_42 C 0.7579(5) 0.5978(12) 0.2834(8)
H12_42 H 0.7819 0.6196 0.2943
H13_48 H 0.7493 0.5765 0.3088
H14_42 H 0.7700 0.5797 0.2569
C9_48 C 0.56281(19) 0.64594(19) 0.23115(18)
H15_48 H 0.5342 0.6599 0.2404
C10_48 C 0.57753(19) 0.6393(2) 0.18560(19)
H16_48 H 0.5608 0.6476 0.1582
C11_48 C 0.6771(2) 0.5908(3) 0.2512(2)
H17_48 H 0.6911 0.5716 0.2260
H18_48 H 0.6698 0.5697 0.2776
C12_48 C 0.63150(16) 0.61216(16) 0.23311(16)
C8_43 C 0.0334(8) 0.1522(12) 0.0079(5)
H12_43 H 0.0443 0.1304 0.0319
H14_43 H 0.0069 0.1703 0.0200
C2_43 C 0.8478(12) 0.9921(5) 0.9666(8)
H3_43 H 0.8696 0.9681 0.9557
H5_43 H 0.8297 0.9800 0.9931
C8_44 C 0.0079(5) 0.0334(8) 0.1522(12)
H12_44 H 0.0319 0.0443 0.1304
H14_44 H 0.0200 0.0069 0.1703
C2_44 C 0.9666(8) 0.8478(12) 0.9921(5)
H3_44 H 0.9557 0.8696 0.9681
H5_44 H 0.9931 0.8297 0.9800
C8_45 C 0.1522(12) 0.0079(5) 0.0334(8)
H12_45 H 0.1304 0.0319 0.0443
H14_45 H 0.1703 0.0200 0.0069
C2_45 C 0.9921(5) 0.9666(8) 0.8478(12)
H3_45 H 0.9681 0.9557 0.8696
H5_45 H 0.9800 0.9931 0.8297
C2_46 C 0.6522(12) 0.9921(5) 0.0334(8)
H3_46 H 0.6304 0.9681 0.0443
H5_46 H 0.6703 0.9800 0.0069
C8_46 C 0.9666(8) 0.3478(12) 0.0079(5)
H12_46 H 0.9557 0.3696 0.0319
H14_46 H 0.9931 0.3297 0.0200
C2_47 C 0.0334(8) 0.6522(12) 0.9921(5)
H3_47 H 0.0443 0.6304 0.9681
H5_47 H 0.0069 0.6703 0.9800
C8_47 C 0.0079(5) 0.9666(8) 0.3478(12)
H12_47 H 0.0319 0.9557 0.3696
H14_47 H 0.0200 0.9931 0.3297
C2_48 C 0.9921(5) 0.0334(8) 0.6522(12)
H3_48 H 0.9681 0.0443 0.6304
H5_48 H 0.9800 0.0069 0.6703
C8_48 C 0.3478(12) 0.0079(5) 0.9666(8)
H12_48 H 0.3696 0.0319 0.9557
H14_48 H 0.3297 0.0200 0.9931
loop_
_geom_bond_atom_site_label_1
_geom_bond_atom_site_label_2
_geom_bond_site_symmetry_1
_geom_bond_site_symmetry_2
Cd1 N1 1_555 1_555
C1 H1 1_555 1_555
H2 C1 1_555 1_555
N1 C3 1_555 1_555
C2 C1 1_555 1_555
H3 C2 1_555 1_555
H4 C2 1_555 1_555
H5 C2 1_555 1_555
N2 C4 1_555 1_555
C3 H6 1_555 1_555
C4 C3 1_555 1_555
H7 C4 1_555 1_555
C5 C1 1_555 1_555
H8 C5 1_555 1_555
H9 C5 1_555 1_555
C6 N1 1_555 1_555
Cd2 N2 1_555 1_555
N4 Cd1 1_555 1_555
N5 Cd1 1_555 1_555
N6 Cd1 1_555 1_555
C9 H15 1_555 1_555
C10 N5 1_555 1_555
H16 C10 1_555 1_555
N2 C6 1_555 1_555
C5 C6 1_555 1_555
N5 C12 1_555 1_555
C9 C10 1_555 1_555
Cd3 N3 1_555 1_555
H11 C7 1_555 1_555
C8 C7 1_555 1_555
H12 C8 1_555 1_555
H13 C8 1_555 1_555
H14 C8 1_555 1_555
C11 C7 1_555 1_555
H18 C11 1_555 1_555
Cd1_2 N1_2 1_555 1_555
H2_2 C1_2 1_555 1_555
C2_2 C1_2 1_555 1_555
H3_2 C2_2 1_555 1_555
H4_2 C2_2 1_555 1_555
H5_2 C2_2 1_555 1_555
C5_2 C1_2 1_555 1_555
H9_2 C5_2 1_555 1_555
Cd3_2 N3_2 1_555 1_555
C7_2 H10_2 1_555 1_555
H11_2 C7_2 1_555 1_555
N3_2 C9_2 1_555 1_555
N4_2 Cd1_2 1_555 1_555
N5_2 Cd1_2 1_555 1_555
N6_2 Cd1_2 1_555 1_555
C9_2 H15_2 1_555 1_555
C10_2 N5_2 1_555 1_555
H16_2 C10_2 1_555 1_555
C11_2 C7_2 1_555 1_555
H17_2 C11_2 1_555 1_555
H18_2 C11_2 1_555 1_555
C12_2 N3_2 1_555 1_555
N5_2 C12_2 1_555 1_555
C9_2 C10_2 1_555 1_555
C11_2 C12_2 1_555 1_555
N2_2 C4_2 1_555 1_555
C3_2 H6_2 1_555 1_555
C4_2 C3_2 1_555 1_555
H7_2 C4_2 1_555 1_555
Cd2_2 N2_2 1_555 1_555
H12_2 C8_2 1_555 1_555
H14_2 C8_2 1_555 1_555
N2_2 C6_2 1_555 1_555
Cd3_3 N3_3 1_555 1_555
H11_3 C7_3 1_555 1_555
C11_3 C7_3 1_555 1_555
H18_3 C11_3 1_555 1_555
N2_3 C4_3 1_555 1_555
C3_3 H6_3 1_555 1_555
C4_3 C3_3 1_555 1_555
H7_3 C4_3 1_555 1_555
Cd2_3 N2_3 1_555 1_555
N2_3 C6_3 1_555 1_555
Cd1_3 N1_3 1_555 1_555
H2_3 C1_3 1_555 1_555
C5_3 C1_3 1_555 1_555
H9_3 C5_3 1_555 1_555
N4_3 Cd1_3 1_555 1_555
N5_3 Cd1_3 1_555 1_555
N6_3 Cd1_3 1_555 1_555
C9_3 H15_3 1_555 1_555
C10_3 N5_3 1_555 1_555
H16_3 C10_3 1_555 1_555
N5_3 C12_3 1_555 1_555
C9_3 C10_3 1_555 1_555
H3_3 C2_3 1_555 1_555
H5_3 C2_3 1_555 1_555
Cd1_4 N1_4 1_555 1_555
C1_4 H1_4 1_555 1_555
H2_4 C1_4 1_555 1_555
N1_4 C3_4 1_555 1_555
N2_4 C4_4 1_555 1_555
C3_4 H6_4 1_555 1_555
C4_4 C3_4 1_555 1_555
H7_4 C4_4 1_555 1_555
C5_4 C1_4 1_555 1_555
H8_4 C5_4 1_555 1_555
H9_4 C5_4 1_555 1_555
C6_4 N1_4 1_555 1_555
Cd2_4 N2_4 1_555 1_555
Cd3_4 N3_4 1_555 1_555
C7_4 H10_4 1_555 1_555
H11_4 C7_4 1_555 1_555
N3_4 C9_4 1_555 1_555
N4_4 Cd1_4 1_555 1_555
C8_3 C7_4 1_555 1_555
H12_3 C8_3 1_555 1_555
H13_4 C8_3 1_555 1_555
H14_3 C8_3 1_555 1_555
N5_4 Cd1_4 1_555 1_555
N6_4 Cd1_4 1_555 1_555
C9_4 H15_4 1_555 1_555
C10_4 N5_4 1_555 1_555
H16_4 C10_4 1_555 1_555
C11_4 C7_4 1_555 1_555
H17_4 C11_4 1_555 1_555
H18_4 C11_4 1_555 1_555
C12_4 N3_4 1_555 1_555
N2_4 C6_4 1_555 1_555
C5_4 C6_4 1_555 1_555
N5_4 C12_4 1_555 1_555
C9_4 C10_4 1_555 1_555
C11_4 C12_4 1_555 1_555
Cd1_5 N1_5 1_555 1_555
C1_5 H1_5 1_555 1_555
H2_5 C1_5 1_555 1_555
N1_5 C3_5 1_555 1_555
C2_4 C1_5 1_555 1_555
H3_4 C2_4 1_555 1_555
H4_5 C2_4 1_555 1_555
H5_4 C2_4 1_555 1_555
N2_5 C4_5 1_555 1_555
C3_5 H6_5 1_555 1_555
C4_5 C3_5 1_555 1_555
H7_5 C4_5 1_555 1_555
C5_5 C1_5 1_555 1_555
H8_5 C5_5 1_555 1_555
H9_5 C5_5 1_555 1_555
C6_5 N1_5 1_555 1_555
Cd2_5 N2_5 1_555 1_555
N4_5 Cd1_5 1_555 1_555
N5_5 Cd1_5 1_555 1_555
N6_5 Cd1_5 1_555 1_555
C9_5 H15_5 1_555 1_555
C10_5 N5_5 1_555 1_555
H16_5 C10_5 1_555 1_555
N2_5 C6_5 1_555 1_555
C5_5 C6_5 1_555 1_555
N5_5 C12_5 1_555 1_555
C9_5 C10_5 1_555 1_555
Cd2_4 N3_5 1_555 1_555
H11_5 C7_5 1_555 1_555
C8_4 C7_5 1_555 1_555
H12_4 C8_4 1_555 1_555
H13_5 C8_4 1_555 1_555
H14_4 C8_4 1_555 1_555
C11_5 C7_5 1_555 1_555
H18_5 C11_5 1_555 1_555
Cd1_6 N1_6 1_555 1_555
H2_6 C1_6 1_555 1_555
C2_5 C1_6 1_555 1_555
H3_5 C2_5 1_555 1_555
H4_6 C2_5 1_555 1_555
H5_5 C2_5 1_555 1_555
C5_6 C1_6 1_555 1_555
H9_6 C5_6 1_555 1_555
Cd2 N3_6 1_555 1_555
C7_6 H10_6 1_555 1_555
H11_6 C7_6 1_555 1_555
N3_6 C9_6 1_555 1_555
N4_6 Cd1_6 1_555 1_555
N5_6 Cd1_6 1_555 1_555
N6_6 Cd1_6 1_555 1_555
C9_6 H15_6 1_555 1_555
C10_6 N5_6 1_555 1_555
H16_6 C10_6 1_555 1_555
C11_6 C7_6 1_555 1_555
H17_6 C11_6 1_555 1_555
H18_6 C11_6 1_555 1_555
C12_6 N3_6 1_555 1_555
N5_6 C12_6 1_555 1_555
C9_6 C10_6 1_555 1_555
C11_6 C12_6 1_555 1_555
N2_6 C4_6 1_555 1_555
C3_6 H6_6 1_555 1_555
C4_6 C3_6 1_555 1_555
H7_6 C4_6 1_555 1_555
Cd2_6 N2_6 1_555 1_555
H12_5 C8_5 1_555 1_555
H14_5 C8_5 1_555 1_555
N2_6 C6_6 1_555 1_555
N2_7 C4_7 1_555 1_555
C3_7 H6_7 1_555 1_555
C4_7 C3_7 1_555 1_555
H7_7 C4_7 1_555 1_555
Cd2_7 N2_7 1_555 1_555
N2_7 C6_7 1_555 1_555
Cd2_3 N3_7 1_555 1_555
H11_7 C7_7 1_555 1_555
C11_7 C7_7 1_555 1_555
H18_7 C11_7 1_555 1_555
Cd1_7 N1_7 1_555 1_555
H2_7 C1_7 1_555 1_555
C5_7 C1_7 1_555 1_555
H9_7 C5_7 1_555 1_555
N4_7 Cd1_7 1_555 1_555
N5_7 Cd1_7 1_555 1_555
N6_7 Cd1_7 1_555 1_555
C9_7 H15_7 1_555 1_555
C10_7 N5_7 1_555 1_555
H16_7 C10_7 1_555 1_555
N5_7 C12_7 1_555 1_555
C9_7 C10_7 1_555 1_555
H3_6 C2_6 1_555 1_555
H5_6 C2_6 1_555 1_555
Cd1_8 N1_8 1_555 1_555
C1_8 H1_8 1_555 1_555
H2_8 C1_8 1_555 1_555
N1_8 C3_8 1_555 1_555
N2_8 C4_8 1_555 1_555
C3_8 H6_8 1_555 1_555
C4_8 C3_8 1_555 1_555
H7_8 C4_8 1_555 1_555
C5_8 C1_8 1_555 1_555
H8_8 C5_8 1_555 1_555
H9_8 C5_8 1_555 1_555
C6_8 N1_8 1_555 1_555
Cd2_8 N2_8 1_555 1_555
Cd2_2 N3_8 1_555 1_555
C7_8 H10_8 1_555 1_555
H11_8 C7_8 1_555 1_555
N3_8 C9_8 1_555 1_555
N4_8 Cd1_8 1_555 1_555
C8_6 C7_8 1_555 1_555
H12_6 C8_6 1_555 1_555
H13_8 C8_6 1_555 1_555
H14_6 C8_6 1_555 1_555
N5_8 Cd1_8 1_555 1_555
N6_8 Cd1_8 1_555 1_555
C9_8 H15_8 1_555 1_555
C10_8 N5_8 1_555 1_555
H16_8 C10_8 1_555 1_555
C11_8 C7_8 1_555 1_555
H17_8 C11_8 1_555 1_555
H18_8 C11_8 1_555 1_555
C12_8 N3_8 1_555 1_555
N2_8 C6_8 1_555 1_555
C5_8 C6_8 1_555 1_555
N5_8 C12_8 1_555 1_555
C9_8 C10_8 1_555 1_555
C11_8 C12_8 1_555 1_555
Cd1_9 N1_9 1_555 1_555
C1_9 H1_9 1_555 1_555
H2_9 C1_9 1_555 1_555
N1_9 C3_9 1_555 1_555
C2_7 C1_9 1_555 1_555
H3_7 C2_7 1_555 1_555
H4_9 C2_7 1_555 1_555
H5_7 C2_7 1_555 1_555
N2_9 C4_9 1_555 1_555
C3_9 H6_9 1_555 1_555
C4_9 C3_9 1_555 1_555
H7_9 C4_9 1_555 1_555
C5_9 C1_9 1_555 1_555
H8_9 C5_9 1_555 1_555
H9_9 C5_9 1_555 1_555
C6_9 N1_9 1_555 1_555
Cd3_2 N2_9 1_555 1_555
N4_9 Cd1_9 1_555 1_555
N5_9 Cd1_9 1_555 1_555
N6_9 Cd1_9 1_555 1_555
C9_9 H15_9 1_555 1_555
C10_9 N5_9 1_555 1_555
H16_9 C10_9 1_555 1_555
N2_9 C6_9 1_555 1_555
C5_9 C6_9 1_555 1_555
N5_9 C12_9 1_555 1_555
C9_9 C10_9 1_555 1_555
Cd2_8 N3_9 1_555 1_555
H11_9 C7_9 1_555 1_555
C8_7 C7_9 1_555 1_555
H12_7 C8_7 1_555 1_555
H13_9 C8_7 1_555 1_555
H14_7 C8_7 1_555 1_555
C11_9 C7_9 1_555 1_555
H18_9 C11_9 1_555 1_555
Cd1_10 N1_10 1_555 1_555
H2_10 C1_10 1_555 1_555
C2_8 C1_10 1_555 1_555
H3_8 C2_8 1_555 1_555
H4_10 C2_8 1_555 1_555
H5_8 C2_8 1_555 1_555
C5_10 C1_10 1_555 1_555
H9_10 C5_10 1_555 1_555
Cd2_5 N3_10 1_555 1_555
C7_10 H10_10 1_555 1_555
H11_10 C7_10 1_555 1_555
N3_10 C9_10 1_555 1_555
N4_10 Cd1_10 1_555 1_555
N5_10 Cd1_10 1_555 1_555
N6_10 Cd1_10 1_555 1_555
C9_10 H15_10 1_555 1_555
C10_10 N5_10 1_555 1_555
H16_10 C10_10 1_555 1_555
C11_10 C7_10 1_555 1_555
H17_10 C11_10 1_555 1_555
H18_10 C11_10 1_555 1_555
C12_10 N3_10 1_555 1_555
N5_10 C12_10 1_555 1_555
C9_10 C10_10 1_555 1_555
C11_10 C12_10 1_555 1_555
N2_10 C4_10 1_555 1_555
C3_10 H6_10 1_555 1_555
C4_10 C3_10 1_555 1_555
H7_10 C4_10 1_555 1_555
Cd3_4 N2_10 1_555 1_555
H12_8 C8_8 1_555 1_555
H14_8 C8_8 1_555 1_555
N2_10 C6_10 1_555 1_555
N2_11 C4_11 1_555 1_555
C3_11 H6_11 1_555 1_555
C4_11 C3_11 1_555 1_555
H7_11 C4_11 1_555 1_555
Cd3_3 N2_11 1_555 1_555
N2_11 C6_11 1_555 1_555
Cd2_7 N3_11 1_555 1_555
H11_11 C7_11 1_555 1_555
C11_11 C7_11 1_555 1_555
H18_11 C11_11 1_555 1_555
Cd1_11 N1_11 1_555 1_555
H2_11 C1_11 1_555 1_555
C5_11 C1_11 1_555 1_555
H9_11 C5_11 1_555 1_555
N4_11 Cd1_11 1_555 1_555
N5_11 Cd1_11 1_555 1_555
N6_11 Cd1_11 1_555 1_555
C9_11 H15_11 1_555 1_555
C10_11 N5_11 1_555 1_555
H16_11 C10_11 1_555 1_555
N5_11 C12_11 1_555 1_555
C9_11 C10_11 1_555 1_555
H3_9 C2_9 1_555 1_555
H5_9 C2_9 1_555 1_555
Cd1_12 N1_12 1_555 1_555
C1_12 H1_12 1_555 1_555
H2_12 C1_12 1_555 1_555
N1_12 C3_12 1_555 1_555
N2_12 C4_12 1_555 1_555
C3_12 H6_12 1_555 1_555
C4_12 C3_12 1_555 1_555
H7_12 C4_12 1_555 1_555
C5_12 C1_12 1_555 1_555
H8_12 C5_12 1_555 1_555
H9_12 C5_12 1_555 1_555
C6_12 N1_12 1_555 1_555
Cd3 N2_12 1_555 1_555
Cd2_6 N3_12 1_555 1_555
C7_12 H10_12 1_555 1_555
H11_12 C7_12 1_555 1_555
N3_12 C9_12 1_555 1_555
N4_12 Cd1_12 1_555 1_555
C8_9 C7_12 1_555 1_555
H12_9 C8_9 1_555 1_555
H13_12 C8_9 1_555 1_555
H14_9 C8_9 1_555 1_555
N5_12 Cd1_12 1_555 1_555
N6_12 Cd1_12 1_555 1_555
C9_12 H15_12 1_555 1_555
C10_12 N5_12 1_555 1_555
H16_12 C10_12 1_555 1_555
C11_12 C7_12 1_555 1_555
H17_12 C11_12 1_555 1_555
H18_12 C11_12 1_555 1_555
C12_12 N3_12 1_555 1_555
N2_12 C6_12 1_555 1_555
C5_12 C6_12 1_555 1_555
N5_12 C12_12 1_555 1_555
C9_12 C10_12 1_555 1_555
C11_12 C12_12 1_555 1_555
Cd1_13 N1_13 1_555 1_555
C1_13 H1_13 1_555 1_555
H2_13 C1_13 1_555 1_555
N1_13 C3_13 1_555 1_555
C2_10 C1_13 1_555 1_555
H3_10 C2_10 1_555 1_555
H4_13 C2_10 1_555 1_555
H5_10 C2_10 1_555 1_555
N2_13 C4_13 1_555 1_555
C3_13 H6_13 1_555 1_555
C4_13 C3_13 1_555 1_555
H7_13 C4_13 1_555 1_555
C5_13 C1_13 1_555 1_555
H8_13 C5_13 1_555 1_555
H9_13 C5_13 1_555 1_555
C6_13 N1_13 1_555 1_555
Cd2_2 N2_13 1_555 1_555
Cd2_5 N3_13 1_555 1_555
C7_13 H10_13 1_555 1_555
H11_13 C7_13 1_555 1_555
N3_13 C9_13 1_555 1_555
N4_13 Cd1_13 1_555 1_555
C8_10 C7_13 1_555 1_555
H12_10 C8_10 1_555 1_555
H13_13 C8_10 1_555 1_555
H14_10 C8_10 1_555 1_555
N5_13 Cd1_13 1_555 1_555
N6_13 Cd1_13 1_555 1_555
C9_13 H15_13 1_555 1_555
C10_13 N5_13 1_555 1_555
H16_13 C10_13 1_555 1_555
C11_13 C7_13 1_555 1_555
H17_13 C11_13 1_555 1_555
H18_13 C11_13 1_555 1_555
C12_13 N3_13 1_555 1_555
N2_13 C6_13 1_555 1_555
C5_13 C6_13 1_555 1_555
N5_13 C12_13 1_555 1_555
C9_13 C10_13 1_555 1_555
C11_13 C12_13 1_555 1_555
Cd1_14 N1_14 1_555 1_555
C1_14 H1_14 1_555 1_555
H2_14 C1_14 1_555 1_555
N1_14 C3_14 1_555 1_555
C2_11 C1_14 1_555 1_555
H3_11 C2_11 1_555 1_555
H4_14 C2_11 1_555 1_555
H5_11 C2_11 1_555 1_555
N2_14 C4_14 1_555 1_555
C3_14 H6_14 1_555 1_555
C4_14 C3_14 1_555 1_555
H7_14 C4_14 1_555 1_555
C5_14 C1_14 1_555 1_555
H8_14 C5_14 1_555 1_555
H9_14 C5_14 1_555 1_555
C6_14 N1_14 1_555 1_555
Cd2 N2_14 1_555 1_555
Cd2_7 N3_14 1_555 1_555
C7_14 H10_14 1_555 1_555
H11_14 C7_14 1_555 1_555
N3_14 C9_14 1_555 1_555
N4_14 Cd1_14 1_555 1_555
C8_11 C7_14 1_555 1_555
H12_11 C8_11 1_555 1_555
H13_14 C8_11 1_555 1_555
H14_11 C8_11 1_555 1_555
N5_14 Cd1_14 1_555 1_555
N6_14 Cd1_14 1_555 1_555
C9_14 H15_14 1_555 1_555
C10_14 N5_14 1_555 1_555
H16_14 C10_14 1_555 1_555
C11_14 C7_14 1_555 1_555
H17_14 C11_14 1_555 1_555
H18_14 C11_14 1_555 1_555
C12_14 N3_14 1_555 1_555
N2_14 C6_14 1_555 1_555
C5_14 C6_14 1_555 1_555
N5_14 C12_14 1_555 1_555
C9_14 C10_14 1_555 1_555
C11_14 C12_14 1_555 1_555
Cd1_15 N1_15 1_555 1_555
C1_15 H1_15 1_555 1_555
H2_15 C1_15 1_555 1_555
N1_15 C3_15 1_555 1_555
C2_12 C1_15 1_555 1_555
H3_12 C2_12 1_555 1_555
H4_15 C2_12 1_555 1_555
H5_12 C2_12 1_555 1_555
N2_15 C4_15 1_555 1_555
C3_15 H6_15 1_555 1_555
C4_15 C3_15 1_555 1_555
H7_15 C4_15 1_555 1_555
C5_15 C1_15 1_555 1_555
H8_15 C5_15 1_555 1_555
H9_15 C5_15 1_555 1_555
C6_15 N1_15 1_555 1_555
Cd2_3 N2_15 1_555 1_555
Cd2_6 N3_15 1_555 1_555
C7_15 H10_15 1_555 1_555
H11_15 C7_15 1_555 1_555
N3_15 C9_15 1_555 1_555
N4_15 Cd1_15 1_555 1_555
C8_12 C7_15 1_555 1_555
H12_12 C8_12 1_555 1_555
H13_15 C8_12 1_555 1_555
H14_12 C8_12 1_555 1_555
N5_15 Cd1_15 1_555 1_555
N6_15 Cd1_15 1_555 1_555
C9_15 H15_15 1_555 1_555
C10_15 N5_15 1_555 1_555
H16_15 C10_15 1_555 1_555
C11_15 C7_15 1_555 1_555
H17_15 C11_15 1_555 1_555
H18_15 C11_15 1_555 1_555
C12_15 N3_15 1_555 1_555
N2_15 C6_15 1_555 1_555
C5_15 C6_15 1_555 1_555
N5_15 C12_15 1_555 1_555
C9_15 C10_15 1_555 1_555
C11_15 C12_15 1_555 1_555
Cd1_16 N1_16 1_555 1_555
C1_16 H1_16 1_555 1_555
H2_16 C1_16 1_555 1_555
N1_16 C3_16 1_555 1_555
C2_13 C1_16 1_555 1_555
H3_13 C2_13 1_555 1_555
H4_16 C2_13 1_555 1_555
H5_13 C2_13 1_555 1_555
N2_16 C4_16 1_555 1_555
C3_16 H6_16 1_555 1_555
C4_16 C3_16 1_555 1_555
H7_16 C4_16 1_555 1_555
C5_16 C1_16 1_555 1_555
H8_16 C5_16 1_555 1_555
H9_16 C5_16 1_555 1_555
C6_16 N1_16 1_555 1_555
Cd2_4 N2_16 1_555 1_555
Cd2_8 N3_16 1_555 1_555
C7_16 H10_16 1_555 1_555
H11_16 C7_16 1_555 1_555
N3_16 C9_16 1_555 1_555
N4_16 Cd1_16 1_555 1_555
C8_13 C7_16 1_555 1_555
H12_13 C8_13 1_555 1_555
H13_16 C8_13 1_555 1_555
H14_13 C8_13 1_555 1_555
N5_16 Cd1_16 1_555 1_555
N6_16 Cd1_16 1_555 1_555
C9_16 H15_16 1_555 1_555
C10_16 N5_16 1_555 1_555
H16_16 C10_16 1_555 1_555
C11_16 C7_16 1_555 1_555
H17_16 C11_16 1_555 1_555
H18_16 C11_16 1_555 1_555
C12_16 N3_16 1_555 1_555
N2_16 C6_16 1_555 1_555
C5_16 C6_16 1_555 1_555
N5_16 C12_16 1_555 1_555
C9_16 C10_16 1_555 1_555
C11_16 C12_16 1_555 1_555
Cd1_17 N1_17 1_555 1_555
C1_17 H1_17 1_555 1_555
H2_17 C1_17 1_555 1_555
N1_17 C3_17 1_555 1_555
C2_14 C1_17 1_555 1_555
H3_14 C2_14 1_555 1_555
H4_17 C2_14 1_555 1_555
H5_14 C2_14 1_555 1_555
N2_17 C4_17 1_555 1_555
C3_17 H6_17 1_555 1_555
C4_17 C3_17 1_555 1_555
H7_17 C4_17 1_555 1_555
C5_17 C1_17 1_555 1_555
H8_17 C5_17 1_555 1_555
H9_17 C5_17 1_555 1_555
C6_17 N1_17 1_555 1_555
Cd3 N2_17 1_555 1_555
Cd2_4 N3_17 1_555 1_555
C7_17 H10_17 1_555 1_555
H11_17 C7_17 1_555 1_555
N3_17 C9_17 1_555 1_555
N4_17 Cd1_17 1_555 1_555
C8_14 C7_17 1_555 1_555
H12_14 C8_14 1_555 1_555
H13_17 C8_14 1_555 1_555
H14_14 C8_14 1_555 1_555
N5_17 Cd1_17 1_555 1_555
N6_17 Cd1_17 1_555 1_555
C9_17 H15_17 1_555 1_555
C10_17 N5_17 1_555 1_555
H16_17 C10_17 1_555 1_555
C11_17 C7_17 1_555 1_555
H17_17 C11_17 1_555 1_555
H18_17 C11_17 1_555 1_555
C12_17 N3_17 1_555 1_555
N2_17 C6_17 1_555 1_555
C5_17 C6_17 1_555 1_555
N5_17 C12_17 1_555 1_555
C9_17 C10_17 1_555 1_555
C11_17 C12_17 1_555 1_555
Cd1_18 N1_18 1_555 1_555
C1_18 H1_18 1_555 1_555
H2_18 C1_18 1_555 1_555
N1_18 C3_18 1_555 1_555
C2_15 C1_18 1_555 1_555
H3_15 C2_15 1_555 1_555
H4_18 C2_15 1_555 1_555
H5_15 C2_15 1_555 1_555
N2_18 C4_18 1_555 1_555
C3_18 H6_18 1_555 1_555
C4_18 C3_18 1_555 1_555
H7_18 C4_18 1_555 1_555
C5_18 C1_18 1_555 1_555
H8_18 C5_18 1_555 1_555
H9_18 C5_18 1_555 1_555
C6_18 N1_18 1_555 1_555
Cd3_3 N2_18 1_555 1_555
Cd2_2 N3_18 1_555 1_555
C7_18 H10_18 1_555 1_555
H11_18 C7_18 1_555 1_555
N3_18 C9_18 1_555 1_555
N4_18 Cd1_18 1_555 1_555
C8_15 C7_18 1_555 1_555
H12_15 C8_15 1_555 1_555
H13_18 C8_15 1_555 1_555
H14_15 C8_15 1_555 1_555
N5_18 Cd1_18 1_555 1_555
N6_18 Cd1_18 1_555 1_555
C9_18 H15_18 1_555 1_555
C10_18 N5_18 1_555 1_555
H16_18 C10_18 1_555 1_555
C11_18 C7_18 1_555 1_555
H17_18 C11_18 1_555 1_555
H18_18 C11_18 1_555 1_555
C12_18 N3_18 1_555 1_555
N2_18 C6_18 1_555 1_555
C5_18 C6_18 1_555 1_555
N5_18 C12_18 1_555 1_555
C9_18 C10_18 1_555 1_555
C11_18 C12_18 1_555 1_555
Cd1_19 N1_19 1_555 1_555
C1_19 H1_19 1_555 1_555
H2_19 C1_19 1_555 1_555
N1_19 C3_19 1_555 1_555
C2_16 C1_19 1_555 1_555
H3_16 C2_16 1_555 1_555
H4_19 C2_16 1_555 1_555
H5_16 C2_16 1_555 1_555
N2_19 C4_19 1_555 1_555
C3_19 H6_19 1_555 1_555
C4_19 C3_19 1_555 1_555
H7_19 C4_19 1_555 1_555
C5_19 C1_19 1_555 1_555
H8_19 C5_19 1_555 1_555
H9_19 C5_19 1_555 1_555
C6_19 N1_19 1_555 1_555
Cd3_2 N2_19 1_555 1_555
Cd2_3 N3_19 1_555 1_555
C7_19 H10_19 1_555 1_555
H11_19 C7_19 1_555 1_555
N3_19 C9_19 1_555 1_555
N4_19 Cd1_19 1_555 1_555
C8_16 C7_19 1_555 1_555
H12_16 C8_16 1_555 1_555
H13_19 C8_16 1_555 1_555
H14_16 C8_16 1_555 1_555
N5_19 Cd1_19 1_555 1_555
N6_19 Cd1_19 1_555 1_555
C9_19 H15_19 1_555 1_555
C10_19 N5_19 1_555 1_555
H16_19 C10_19 1_555 1_555
C11_19 C7_19 1_555 1_555
H17_19 C11_19 1_555 1_555
H18_19 C11_19 1_555 1_555
C12_19 N3_19 1_555 1_555
N2_19 C6_19 1_555 1_555
C5_19 C6_19 1_555 1_555
N5_19 C12_19 1_555 1_555
C9_19 C10_19 1_555 1_555
C11_19 C12_19 1_555 1_555
Cd1_20 N1_20 1_555 1_555
C1_20 H1_20 1_555 1_555
H2_20 C1_20 1_555 1_555
N1_20 C3_20 1_555 1_555
C2_17 C1_20 1_555 1_555
H3_17 C2_17 1_555 1_555
H4_20 C2_17 1_555 1_555
H5_17 C2_17 1_555 1_555
N2_20 C4_20 1_555 1_555
C3_20 H6_20 1_555 1_555
C4_20 C3_20 1_555 1_555
H7_20 C4_20 1_555 1_555
C5_20 C1_20 1_555 1_555
H8_20 C5_20 1_555 1_555
H9_20 C5_20 1_555 1_555
C6_20 N1_20 1_555 1_555
Cd3_4 N2_20 1_555 1_555
Cd2 N3_20 1_555 1_555
C7_20 H10_20 1_555 1_555
H11_20 C7_20 1_555 1_555
N3_20 C9_20 1_555 1_555
N4_20 Cd1_20 1_555 1_555
C8_17 C7_20 1_555 1_555
H12_17 C8_17 1_555 1_555
H13_20 C8_17 1_555 1_555
H14_17 C8_17 1_555 1_555
N5_20 Cd1_20 1_555 1_555
N6_20 Cd1_20 1_555 1_555
C9_20 H15_20 1_555 1_555
C10_20 N5_20 1_555 1_555
H16_20 C10_20 1_555 1_555
C11_20 C7_20 1_555 1_555
H17_20 C11_20 1_555 1_555
H18_20 C11_20 1_555 1_555
C12_20 N3_20 1_555 1_555
N2_20 C6_20 1_555 1_555
C5_20 C6_20 1_555 1_555
N5_20 C12_20 1_555 1_555
C9_20 C10_20 1_555 1_555
C11_20 C12_20 1_555 1_555
Cd1_21 N1_21 1_555 1_555
C1_21 H1_21 1_555 1_555
H2_21 C1_21 1_555 1_555
N1_21 C3_21 1_555 1_555
C2_18 C1_21 1_555 1_555
H3_18 C2_18 1_555 1_555
H4_21 C2_18 1_555 1_555
H5_18 C2_18 1_555 1_555
N2_21 C4_21 1_555 1_555
C3_21 H6_21 1_555 1_555
C4_21 C3_21 1_555 1_555
H7_21 C4_21 1_555 1_555
C5_21 C1_21 1_555 1_555
H8_21 C5_21 1_555 1_555
H9_21 C5_21 1_555 1_555
C6_21 N1_21 1_555 1_555
Cd2_7 N2_21 1_555 1_555
Cd3_4 N3_21 1_555 1_555
C7_21 H10_21 1_555 1_555
H11_21 C7_21 1_555 1_555
N3_21 C9_21 1_555 1_555
N4_21 Cd1_21 1_555 1_555
C8_18 C7_21 1_555 1_555
H12_18 C8_18 1_555 1_555
H13_21 C8_18 1_555 1_555
H14_18 C8_18 1_555 1_555
N5_21 Cd1_21 1_555 1_555
N6_21 Cd1_21 1_555 1_555
C9_21 H15_21 1_555 1_555
C10_21 N5_21 1_555 1_555
H16_21 C10_21 1_555 1_555
C11_21 C7_21 1_555 1_555
H17_21 C11_21 1_555 1_555
H18_21 C11_21 1_555 1_555
C12_21 N3_21 1_555 1_555
N2_21 C6_21 1_555 1_555
C5_21 C6_21 1_555 1_555
N5_21 C12_21 1_555 1_555
C9_21 C10_21 1_555 1_555
C11_21 C12_21 1_555 1_555
Cd1_22 N1_22 1_555 1_555
C1_22 H1_22 1_555 1_555
H2_22 C1_22 1_555 1_555
N1_22 C3_22 1_555 1_555
C2_19 C1_22 1_555 1_555
H3_19 C2_19 1_555 1_555
H4_22 C2_19 1_555 1_555
H5_19 C2_19 1_555 1_555
N2_22 C4_22 1_555 1_555
C3_22 H6_22 1_555 1_555
C4_22 C3_22 1_555 1_555
H7_22 C4_22 1_555 1_555
C5_22 C1_22 1_555 1_555
H8_22 C5_22 1_555 1_555
H9_22 C5_22 1_555 1_555
C6_22 N1_22 1_555 1_555
Cd2_8 N2_22 1_555 1_555
Cd3 N3_22 1_555 1_555
C7_22 H10_22 1_555 1_555
H11_22 C7_22 1_555 1_555
N3_22 C9_22 1_555 1_555
N4_22 Cd1_22 1_555 1_555
C8_19 C7_22 1_555 1_555
H12_19 C8_19 1_555 1_555
H13_22 C8_19 1_555 1_555
H14_19 C8_19 1_555 1_555
N5_22 Cd1_22 1_555 1_555
N6_22 Cd1_22 1_555 1_555
C9_22 H15_22 1_555 1_555
C10_22 N5_22 1_555 1_555
H16_22 C10_22 1_555 1_555
C11_22 C7_22 1_555 1_555
H17_22 C11_22 1_555 1_555
H18_22 C11_22 1_555 1_555
C12_22 N3_22 1_555 1_555
N2_22 C6_22 1_555 1_555
C5_22 C6_22 1_555 1_555
N5_22 C12_22 1_555 1_555
C9_22 C10_22 1_555 1_555
C11_22 C12_22 1_555 1_555
Cd1_23 N1_23 1_555 1_555
C1_23 H1_23 1_555 1_555
H2_23 C1_23 1_555 1_555
N1_23 C3_23 1_555 1_555
C2_20 C1_23 1_555 1_555
H3_20 C2_20 1_555 1_555
H4_23 C2_20 1_555 1_555
H5_20 C2_20 1_555 1_555
N2_23 C4_23 1_555 1_555
C3_23 H6_23 1_555 1_555
C4_23 C3_23 1_555 1_555
H7_23 C4_23 1_555 1_555
C5_23 C1_23 1_555 1_555
H8_23 C5_23 1_555 1_555
H9_23 C5_23 1_555 1_555
C6_23 N1_23 1_555 1_555
Cd2_6 N2_23 1_555 1_555
Cd3_2 N3_23 1_555 1_555
C7_23 H10_23 1_555 1_555
H11_23 C7_23 1_555 1_555
N3_23 C9_23 1_555 1_555
N4_23 Cd1_23 1_555 1_555
C8_20 C7_23 1_555 1_555
H12_20 C8_20 1_555 1_555
H13_23 C8_20 1_555 1_555
H14_20 C8_20 1_555 1_555
N5_23 Cd1_23 1_555 1_555
N6_23 Cd1_23 1_555 1_555
C9_23 H15_23 1_555 1_555
C10_23 N5_23 1_555 1_555
H16_23 C10_23 1_555 1_555
C11_23 C7_23 1_555 1_555
H17_23 C11_23 1_555 1_555
H18_23 C11_23 1_555 1_555
C12_23 N3_23 1_555 1_555
N2_23 C6_23 1_555 1_555
C5_23 C6_23 1_555 1_555
N5_23 C12_23 1_555 1_555
C9_23 C10_23 1_555 1_555
C11_23 C12_23 1_555 1_555
Cd1_24 N1_24 1_555 1_555
C1_24 H1_24 1_555 1_555
H2_24 C1_24 1_555 1_555
N1_24 C3_24 1_555 1_555
C2_21 C1_24 1_555 1_555
H3_21 C2_21 1_555 1_555
H4_24 C2_21 1_555 1_555
H5_21 C2_21 1_555 1_555
N2_24 C4_24 1_555 1_555
C3_24 H6_24 1_555 1_555
C4_24 C3_24 1_555 1_555
H7_24 C4_24 1_555 1_555
C5_24 C1_24 1_555 1_555
H8_24 C5_24 1_555 1_555
H9_24 C5_24 1_555 1_555
C6_24 N1_24 1_555 1_555
Cd2_5 N2_24 1_555 1_555
Cd3_3 N3_24 1_555 1_555
C7_24 H10_24 1_555 1_555
H11_24 C7_24 1_555 1_555
N3_24 C9_24 1_555 1_555
N4_24 Cd1_24 1_555 1_555
C8_21 C7_24 1_555 1_555
H12_21 C8_21 1_555 1_555
H13_24 C8_21 1_555 1_555
H14_21 C8_21 1_555 1_555
N5_24 Cd1_24 1_555 1_555
N6_24 Cd1_24 1_555 1_555
C9_24 H15_24 1_555 1_555
C10_24 N5_24 1_555 1_555
H16_24 C10_24 1_555 1_555
C11_24 C7_24 1_555 1_555
H17_24 C11_24 1_555 1_555
H18_24 C11_24 1_555 1_555
C12_24 N3_24 1_555 1_555
N2_24 C6_24 1_555 1_555
C5_24 C6_24 1_555 1_555
N5_24 C12_24 1_555 1_555
C9_24 C10_24 1_555 1_555
C11_24 C12_24 1_555 1_555
H2_25 C1_25 1_555 1_555
C5_25 C1_25 1_555 1_555
H9_25 C5_25 1_555 1_555
Cd3_5 N3_25 1_555 1_555
C7_25 H10_25 1_555 1_555
H11_25 C7_25 1_555 1_555
N3_25 C9_25 1_555 1_555
C9_25 H15_25 1_555 1_555
C10_25 N6_19 1_555 1_555
H16_25 C10_25 1_555 1_555
C11_25 C7_25 1_555 1_555
H17_25 C11_25 1_555 1_555
H18_25 C11_25 1_555 1_555
C12_25 N3_25 1_555 1_555
N6_19 C12_25 1_555 1_555
C9_25 C10_25 1_555 1_555
C11_25 C12_25 1_555 1_555
N2_25 C4_25 1_555 1_555
C3_25 H6_25 1_555 1_555
C4_25 C3_25 1_555 1_555
H7_25 C4_25 1_555 1_555
Cd2_9 N2_25 1_555 1_555
H12_22 C8_22 1_555 1_555
H14_22 C8_22 1_555 1_555
N2_25 C6_25 1_555 1_555
Cd3_6 N3_26 1_555 1_555
H11_26 C7_26 1_555 1_555
C8_23 C7_26 1_555 1_555
H12_23 C8_23 1_555 1_555
H13_26 C8_23 1_555 1_555
H14_23 C8_23 1_555 1_555
C11_26 C7_26 1_555 1_555
H18_26 C11_26 1_555 1_555
H3_22 C2_22 1_555 1_555
H5_22 C2_22 1_555 1_555
C1_26 H1_26 1_555 1_555
H2_26 C1_26 1_555 1_555
N4_17 C3_26 1_555 1_555
N2_26 C4_26 1_555 1_555
C3_26 H6_26 1_555 1_555
C4_26 C3_26 1_555 1_555
H7_26 C4_26 1_555 1_555
C5_26 C1_26 1_555 1_555
H8_26 C5_26 1_555 1_555
H9_26 C5_26 1_555 1_555
C6_26 N4_17 1_555 1_555
Cd2_10 N2_26 1_555 1_555
C9_26 H15_26 1_555 1_555
C10_26 N6_17 1_555 1_555
H16_26 C10_26 1_555 1_555
N2_26 C6_26 1_555 1_555
C5_26 C6_26 1_555 1_555
N6_17 C12_26 1_555 1_555
C9_26 C10_26 1_555 1_555
C1_27 H1_27 1_555 1_555
H2_27 C1_27 1_555 1_555
N4_20 C3_27 1_555 1_555
C2_23 C1_27 1_555 1_555
H3_23 C2_23 1_555 1_555
H4_27 C2_23 1_555 1_555
H5_23 C2_23 1_555 1_555
N2_27 C4_27 1_555 1_555
C3_27 H6_27 1_555 1_555
C4_27 C3_27 1_555 1_555
H7_27 C4_27 1_555 1_555
C5_27 C1_27 1_555 1_555
H8_27 C5_27 1_555 1_555
H9_27 C5_27 1_555 1_555
C6_27 N4_20 1_555 1_555
Cd2_11 N2_27 1_555 1_555
Cd3_7 N3_27 1_555 1_555
C7_27 H10_27 1_555 1_555
H11_27 C7_27 1_555 1_555
N3_27 C9_27 1_555 1_555
C8_24 C7_27 1_555 1_555
H12_24 C8_24 1_555 1_555
H13_27 C8_24 1_555 1_555
H14_24 C8_24 1_555 1_555
C9_27 H15_27 1_555 1_555
C10_27 N6_20 1_555 1_555
H16_27 C10_27 1_555 1_555
C11_27 C7_27 1_555 1_555
H17_27 C11_27 1_555 1_555
H18_27 C11_27 1_555 1_555
C12_27 N3_27 1_555 1_555
N2_27 C6_27 1_555 1_555
C5_27 C6_27 1_555 1_555
N6_20 C12_27 1_555 1_555
C9_27 C10_27 1_555 1_555
C11_27 C12_27 1_555 1_555
N2_28 C4_28 1_555 1_555
C3_28 H6_28 1_555 1_555
C4_28 C3_28 1_555 1_555
H7_28 C4_28 1_555 1_555
Cd2_12 N2_28 1_555 1_555
N2_28 C6_28 1_555 1_555
H2_28 C1_28 1_555 1_555
C2_24 C1_28 1_555 1_555
H3_24 C2_24 1_555 1_555
H4_28 C2_24 1_555 1_555
H5_24 C2_24 1_555 1_555
C5_28 C1_28 1_555 1_555
H9_28 C5_28 1_555 1_555
C9_28 H15_28 1_555 1_555
C10_28 N6_18 1_555 1_555
H16_28 C10_28 1_555 1_555
N6_18 C12_28 1_555 1_555
C9_28 C10_28 1_555 1_555
Cd3_8 N3_28 1_555 1_555
H11_28 C7_28 1_555 1_555
C11_28 C7_28 1_555 1_555
H18_28 C11_28 1_555 1_555
H2_29 C1_29 1_555 1_555
C5_29 C1_29 1_555 1_555
H9_29 C5_29 1_555 1_555
Cd2_12 N3_29 1_555 1_555
C7_29 H10_29 1_555 1_555
H11_29 C7_29 1_555 1_555
N3_29 C9_29 1_555 1_555
C9_29 H15_29 1_555 1_555
C10_29 N6_14 1_555 1_555
H16_29 C10_29 1_555 1_555
C11_29 C7_29 1_555 1_555
H17_29 C11_29 1_555 1_555
H18_29 C11_29 1_555 1_555
C12_29 N3_29 1_555 1_555
N6_14 C12_29 1_555 1_555
C9_29 C10_29 1_555 1_555
C11_29 C12_29 1_555 1_555
N2_29 C4_29 1_555 1_555
C3_29 H6_29 1_555 1_555
C4_29 C3_29 1_555 1_555
H7_29 C4_29 1_555 1_555
Cd2_13 N2_29 1_555 1_555
H12_25 C8_25 1_555 1_555
H14_25 C8_25 1_555 1_555
N2_29 C6_29 1_555 1_555
Cd2_9 N3_30 1_555 1_555
H11_30 C7_30 1_555 1_555
C8_26 C7_30 1_555 1_555
H12_26 C8_26 1_555 1_555
H13_30 C8_26 1_555 1_555
H14_26 C8_26 1_555 1_555
C11_30 C7_30 1_555 1_555
H18_30 C11_30 1_555 1_555
H3_25 C2_25 1_555 1_555
H5_25 C2_25 1_555 1_555
C1_30 H1_30 1_555 1_555
H2_30 C1_30 1_555 1_555
N4_16 C3_30 1_555 1_555
N2_30 C4_30 1_555 1_555
C3_30 H6_30 1_555 1_555
C4_30 C3_30 1_555 1_555
H7_30 C4_30 1_555 1_555
C5_30 C1_30 1_555 1_555
H8_30 C5_30 1_555 1_555
H9_30 C5_30 1_555 1_555
C6_30 N4_16 1_555 1_555
Cd2_14 N2_30 1_555 1_555
C9_30 H15_30 1_555 1_555
C10_30 N6_16 1_555 1_555
H16_30 C10_30 1_555 1_555
N2_30 C6_30 1_555 1_555
C5_30 C6_30 1_555 1_555
N6_16 C12_30 1_555 1_555
C9_30 C10_30 1_555 1_555
C1_31 H1_31 1_555 1_555
H2_31 C1_31 1_555 1_555
N4_13 C3_31 1_555 1_555
C2_26 C1_31 1_555 1_555
H3_26 C2_26 1_555 1_555
H4_31 C2_26 1_555 1_555
H5_26 C2_26 1_555 1_555
N2_31 C4_31 1_555 1_555
C3_31 H6_31 1_555 1_555
C4_31 C3_31 1_555 1_555
H7_31 C4_31 1_555 1_555
C5_31 C1_31 1_555 1_555
H8_31 C5_31 1_555 1_555
H9_31 C5_31 1_555 1_555
C6_31 N4_13 1_555 1_555
Cd2_15 N2_31 1_555 1_555
Cd2_11 N3_31 1_555 1_555
C7_31 H10_31 1_555 1_555
H11_31 C7_31 1_555 1_555
N3_31 C9_31 1_555 1_555
C8_27 C7_31 1_555 1_555
H12_27 C8_27 1_555 1_555
H13_31 C8_27 1_555 1_555
H14_27 C8_27 1_555 1_555
C9_31 H15_31 1_555 1_555
C10_31 N6_13 1_555 1_555
H16_31 C10_31 1_555 1_555
C11_31 C7_31 1_555 1_555
H17_31 C11_31 1_555 1_555
H18_31 C11_31 1_555 1_555
C12_31 N3_31 1_555 1_555
N2_31 C6_31 1_555 1_555
C5_31 C6_31 1_555 1_555
N6_13 C12_31 1_555 1_555
C9_31 C10_31 1_555 1_555
C11_31 C12_31 1_555 1_555
N2_32 C4_32 1_555 1_555
C3_32 H6_32 1_555 1_555
C4_32 C3_32 1_555 1_555
H7_32 C4_32 1_555 1_555
Cd2_16 N2_32 1_555 1_555
N2_32 C6_32 1_555 1_555
H2_32 C1_32 1_555 1_555
C2_27 C1_32 1_555 1_555
H3_27 C2_27 1_555 1_555
H4_32 C2_27 1_555 1_555
H5_27 C2_27 1_555 1_555
C5_32 C1_32 1_555 1_555
H9_32 C5_32 1_555 1_555
C9_32 H15_32 1_555 1_555
C10_32 N6_15 1_555 1_555
H16_32 C10_32 1_555 1_555
N6_15 C12_32 1_555 1_555
C9_32 C10_32 1_555 1_555
Cd2_10 N3_32 1_555 1_555
H11_32 C7_32 1_555 1_555
C11_32 C7_32 1_555 1_555
H18_32 C11_32 1_555 1_555
H2_33 C1_33 1_555 1_555
C5_33 C1_33 1_555 1_555
H9_33 C5_33 1_555 1_555
Cd2_16 N3_33 1_555 1_555
C7_33 H10_33 1_555 1_555
H11_33 C7_33 1_555 1_555
N3_33 C9_33 1_555 1_555
C9_33 H15_33 1_555 1_555
C10_33 N6_24 1_555 1_555
H16_33 C10_33 1_555 1_555
C11_33 C7_33 1_555 1_555
H17_33 C11_33 1_555 1_555
H18_33 C11_33 1_555 1_555
C12_33 N3_33 1_555 1_555
N6_24 C12_33 1_555 1_555
C9_33 C10_33 1_555 1_555
C11_33 C12_33 1_555 1_555
N2_33 C4_33 1_555 1_555
C3_33 H6_33 1_555 1_555
C4_33 C3_33 1_555 1_555
H7_33 C4_33 1_555 1_555
Cd3_6 N2_33 1_555 1_555
H12_28 C8_28 1_555 1_555
H14_28 C8_28 1_555 1_555
N2_33 C6_33 1_555 1_555
H3_28 C2_28 1_555 1_555
H5_28 C2_28 1_555 1_555
Cd2_13 N3_34 1_555 1_555
H11_34 C7_34 1_555 1_555
C8_29 C7_34 1_555 1_555
H12_29 C8_29 1_555 1_555
H13_34 C8_29 1_555 1_555
H14_29 C8_29 1_555 1_555
C11_34 C7_34 1_555 1_555
H18_34 C11_34 1_555 1_555
C1_34 H1_34 1_555 1_555
H2_34 C1_34 1_555 1_555
N4_22 C3_34 1_555 1_555
N2_34 C4_34 1_555 1_555
C3_34 H6_34 1_555 1_555
C4_34 C3_34 1_555 1_555
H7_34 C4_34 1_555 1_555
C5_34 C1_34 1_555 1_555
H8_34 C5_34 1_555 1_555
H9_34 C5_34 1_555 1_555
C6_34 N4_22 1_555 1_555
Cd3_8 N2_34 1_555 1_555
C9_34 H15_34 1_555 1_555
C10_34 N6_22 1_555 1_555
H16_34 C10_34 1_555 1_555
N2_34 C6_34 1_555 1_555
C5_34 C6_34 1_555 1_555
N6_22 C12_34 1_555 1_555
C9_34 C10_34 1_555 1_555
C1_35 H1_35 1_555 1_555
H2_35 C1_35 1_555 1_555
N4_23 C3_35 1_555 1_555
C2_29 C1_35 1_555 1_555
H3_29 C2_29 1_555 1_555
H4_35 C2_29 1_555 1_555
H5_29 C2_29 1_555 1_555
N2_35 C4_35 1_555 1_555
C3_35 H6_35 1_555 1_555
C4_35 C3_35 1_555 1_555
H7_35 C4_35 1_555 1_555
C5_35 C1_35 1_555 1_555
H8_35 C5_35 1_555 1_555
H9_35 C5_35 1_555 1_555
C6_35 N4_23 1_555 1_555
Cd3_7 N2_35 1_555 1_555
Cd2_15 N3_35 1_555 1_555
C7_35 H10_35 1_555 1_555
H11_35 C7_35 1_555 1_555
N3_35 C9_35 1_555 1_555
C8_30 C7_35 1_555 1_555
H12_30 C8_30 1_555 1_555
H13_35 C8_30 1_555 1_555
H14_30 C8_30 1_555 1_555
C9_35 H15_35 1_555 1_555
C10_35 N6_23 1_555 1_555
H16_35 C10_35 1_555 1_555
C11_35 C7_35 1_555 1_555
H17_35 C11_35 1_555 1_555
H18_35 C11_35 1_555 1_555
C12_35 N3_35 1_555 1_555
N2_35 C6_35 1_555 1_555
C5_35 C6_35 1_555 1_555
N6_23 C12_35 1_555 1_555
C9_35 C10_35 1_555 1_555
C11_35 C12_35 1_555 1_555
N2_36 C4_36 1_555 1_555
C3_36 H6_36 1_555 1_555
C4_36 C3_36 1_555 1_555
H7_36 C4_36 1_555 1_555
Cd3_5 N2_36 1_555 1_555
N2_36 C6_36 1_555 1_555
H2_36 C1_36 1_555 1_555
C2_30 C1_36 1_555 1_555
H3_30 C2_30 1_555 1_555
H4_36 C2_30 1_555 1_555
H5_30 C2_30 1_555 1_555
C5_36 C1_36 1_555 1_555
H9_36 C5_36 1_555 1_555
C9_36 H15_36 1_555 1_555
C10_36 N6_21 1_555 1_555
H16_36 C10_36 1_555 1_555
N6_21 C12_36 1_555 1_555
C9_36 C10_36 1_555 1_555
Cd2_14 N3_36 1_555 1_555
H11_36 C7_36 1_555 1_555
C11_36 C7_36 1_555 1_555
H18_36 C11_36 1_555 1_555
C1_37 H1_37 1_555 1_555
H2_37 C1_37 1_555 1_555
N4_7 C3_37 1_555 1_555
C2_31 C1_37 1_555 1_555
H3_31 C2_31 1_555 1_555
H4_37 C2_31 1_555 1_555
H5_31 C2_31 1_555 1_555
N2_37 C4_37 1_555 1_555
C3_37 H6_37 1_555 1_555
C4_37 C3_37 1_555 1_555
H7_37 C4_37 1_555 1_555
C5_37 C1_37 1_555 1_555
H8_37 C5_37 1_555 1_555
H9_37 C5_37 1_555 1_555
C6_37 N4_7 1_555 1_555
Cd2_10 N2_37 1_555 1_555
Cd2_13 N3_37 1_555 1_555
C7_37 H10_37 1_555 1_555
H11_37 C7_37 1_555 1_555
N3_37 C9_37 1_555 1_555
C8_31 C7_37 1_555 1_555
H12_31 C8_31 1_555 1_555
H13_37 C8_31 1_555 1_555
H14_31 C8_31 1_555 1_555
C9_37 H15_37 1_555 1_555
C10_37 N6_7 1_555 1_555
H16_37 C10_37 1_555 1_555
C11_37 C7_37 1_555 1_555
H17_37 C11_37 1_555 1_555
H18_37 C11_37 1_555 1_555
C12_37 N3_37 1_555 1_555
N2_37 C6_37 1_555 1_555
C5_37 C6_37 1_555 1_555
N6_7 C12_37 1_555 1_555
C9_37 C10_37 1_555 1_555
C11_37 C12_37 1_555 1_555
C1_38 H1_38 1_555 1_555
H2_38 C1_38 1_555 1_555
N4_5 C3_38 1_555 1_555
C2_32 C1_38 1_555 1_555
H3_32 C2_32 1_555 1_555
H4_38 C2_32 1_555 1_555
H5_32 C2_32 1_555 1_555
N2_38 C4_38 1_555 1_555
C3_38 H6_38 1_555 1_555
C4_38 C3_38 1_555 1_555
H7_38 C4_38 1_555 1_555
C5_38 C1_38 1_555 1_555
H8_38 C5_38 1_555 1_555
H9_38 C5_38 1_555 1_555
C6_38 N4_5 1_555 1_555
Cd2_9 N2_38 1_555 1_555
Cd2_15 N3_38 1_555 1_555
C7_38 H10_38 1_555 1_555
H11_38 C7_38 1_555 1_555
N3_38 C9_38 1_555 1_555
C8_32 C7_38 1_555 1_555
H12_32 C8_32 1_555 1_555
H13_38 C8_32 1_555 1_555
H14_32 C8_32 1_555 1_555
C9_38 H15_38 1_555 1_555
C10_38 N6_5 1_555 1_555
H16_38 C10_38 1_555 1_555
C11_38 C7_38 1_555 1_555
H17_38 C11_38 1_555 1_555
H18_38 C11_38 1_555 1_555
C12_38 N3_38 1_555 1_555
N2_38 C6_38 1_555 1_555
C5_38 C6_38 1_555 1_555
N6_5 C12_38 1_555 1_555
C9_38 C10_38 1_555 1_555
C11_38 C12_38 1_555 1_555
C1_39 H1_39 1_555 1_555
H2_39 C1_39 1_555 1_555
N4_8 C3_39 1_555 1_555
C2_33 C1_39 1_555 1_555
H3_33 C2_33 1_555 1_555
H4_39 C2_33 1_555 1_555
H5_33 C2_33 1_555 1_555
N2_39 C4_39 1_555 1_555
C3_39 H6_39 1_555 1_555
C4_39 C3_39 1_555 1_555
H7_39 C4_39 1_555 1_555
C5_39 C1_39 1_555 1_555
H8_39 C5_39 1_555 1_555
H9_39 C5_39 1_555 1_555
C6_39 N4_8 1_555 1_555
Cd2_11 N2_39 1_555 1_555
Cd2_14 N3_39 1_555 1_555
C7_39 H10_39 1_555 1_555
H11_39 C7_39 1_555 1_555
N3_39 C9_39 1_555 1_555
C8_33 C7_39 1_555 1_555
H12_33 C8_33 1_555 1_555
H13_39 C8_33 1_555 1_555
H14_33 C8_33 1_555 1_555
C9_39 H15_39 1_555 1_555
C10_39 N6_8 1_555 1_555
H16_39 C10_39 1_555 1_555
C11_39 C7_39 1_555 1_555
H17_39 C11_39 1_555 1_555
H18_39 C11_39 1_555 1_555
C12_39 N3_39 1_555 1_555
N2_39 C6_39 1_555 1_555
C5_39 C6_39 1_555 1_555
N6_8 C12_39 1_555 1_555
C9_39 C10_39 1_555 1_555
C11_39 C12_39 1_555 1_555
C1_40 H1_40 1_555 1_555
H2_40 C1_40 1_555 1_555
N4_6 C3_40 1_555 1_555
C2_34 C1_40 1_555 1_555
H3_34 C2_34 1_555 1_555
H4_40 C2_34 1_555 1_555
H5_34 C2_34 1_555 1_555
N2_40 C4_40 1_555 1_555
C3_40 H6_40 1_555 1_555
C4_40 C3_40 1_555 1_555
H7_40 C4_40 1_555 1_555
C5_40 C1_40 1_555 1_555
H8_40 C5_40 1_555 1_555
H9_40 C5_40 1_555 1_555
C6_40 N4_6 1_555 1_555
Cd2_12 N2_40 1_555 1_555
Cd2_16 N3_40 1_555 1_555
C7_40 H10_40 1_555 1_555
H11_40 C7_40 1_555 1_555
N3_40 C9_40 1_555 1_555
C8_34 C7_40 1_555 1_555
H12_34 C8_34 1_555 1_555
H13_40 C8_34 1_555 1_555
H14_34 C8_34 1_555 1_555
C9_40 H15_40 1_555 1_555
C10_40 N6_6 1_555 1_555
H16_40 C10_40 1_555 1_555
C11_40 C7_40 1_555 1_555
H17_40 C11_40 1_555 1_555
H18_40 C11_40 1_555 1_555
C12_40 N3_40 1_555 1_555
N2_40 C6_40 1_555 1_555
C5_40 C6_40 1_555 1_555
N6_6 C12_40 1_555 1_555
C9_40 C10_40 1_555 1_555
C11_40 C12_40 1_555 1_555
C1_41 H1_41 1_555 1_555
H2_41 C1_41 1_555 1_555
N4_2 C3_41 1_555 1_555
C2_35 C1_41 1_555 1_555
H3_35 C2_35 1_555 1_555
H4_41 C2_35 1_555 1_555
H5_35 C2_35 1_555 1_555
N2_41 C4_41 1_555 1_555
C3_41 H6_41 1_555 1_555
C4_41 C3_41 1_555 1_555
H7_41 C4_41 1_555 1_555
C5_41 C1_41 1_555 1_555
H8_41 C5_41 1_555 1_555
H9_41 C5_41 1_555 1_555
C6_41 N4_2 1_555 1_555
Cd3_5 N2_41 1_555 1_555
Cd2_12 N3_41 1_555 1_555
C7_41 H10_41 1_555 1_555
H11_41 C7_41 1_555 1_555
N3_41 C9_41 1_555 1_555
C8_35 C7_41 1_555 1_555
H12_35 C8_35 1_555 1_555
H13_41 C8_35 1_555 1_555
H14_35 C8_35 1_555 1_555
C9_41 H15_41 1_555 1_555
C10_41 N6_2 1_555 1_555
H16_41 C10_41 1_555 1_555
C11_41 C7_41 1_555 1_555
H17_41 C11_41 1_555 1_555
H18_41 C11_41 1_555 1_555
C12_41 N3_41 1_555 1_555
N2_41 C6_41 1_555 1_555
C5_41 C6_41 1_555 1_555
N6_2 C12_41 1_555 1_555
C9_41 C10_41 1_555 1_555
C11_41 C12_41 1_555 1_555
C1_42 H1_42 1_555 1_555
H2_42 C1_42 1_555 1_555
N4_4 C3_42 1_555 1_555
C2_36 C1_42 1_555 1_555
H3_36 C2_36 1_555 1_555
H4_42 C2_36 1_555 1_555
H5_36 C2_36 1_555 1_555
N2_42 C4_42 1_555 1_555
C3_42 H6_42 1_555 1_555
C4_42 C3_42 1_555 1_555
H7_42 C4_42 1_555 1_555
C5_42 C1_42 1_555 1_555
H8_42 C5_42 1_555 1_555
H9_42 C5_42 1_555 1_555
C6_42 N4_4 1_555 1_555
Cd3_7 N2_42 1_555 1_555
Cd2_10 N3_42 1_555 1_555
C7_42 H10_42 1_555 1_555
H11_42 C7_42 1_555 1_555
N3_42 C9_42 1_555 1_555
C8_36 C7_42 1_555 1_555
H12_36 C8_36 1_555 1_555
H13_42 C8_36 1_555 1_555
H14_36 C8_36 1_555 1_555
C9_42 H15_42 1_555 1_555
C10_42 N6_4 1_555 1_555
H16_42 C10_42 1_555 1_555
C11_42 C7_42 1_555 1_555
H17_42 C11_42 1_555 1_555
H18_42 C11_42 1_555 1_555
C12_42 N3_42 1_555 1_555
N2_42 C6_42 1_555 1_555
C5_42 C6_42 1_555 1_555
N6_4 C12_42 1_555 1_555
C9_42 C10_42 1_555 1_555
C11_42 C12_42 1_555 1_555
C1_43 H1_43 1_555 1_555
H2_43 C1_43 1_555 1_555
N4 C3_43 1_555 1_555
C2_37 C1_43 1_555 1_555
H3_37 C2_37 1_555 1_555
H4_43 C2_37 1_555 1_555
H5_37 C2_37 1_555 1_555
N2_43 C4_43 1_555 1_555
C3_43 H6_43 1_555 1_555
C4_43 C3_43 1_555 1_555
H7_43 C4_43 1_555 1_555
C5_43 C1_43 1_555 1_555
H8_43 C5_43 1_555 1_555
H9_43 C5_43 1_555 1_555
C6_43 N4 1_555 1_555
Cd3_6 N2_43 1_555 1_555
Cd2_11 N3_43 1_555 1_555
C7_43 H10_43 1_555 1_555
H11_43 C7_43 1_555 1_555
N3_43 C9_43 1_555 1_555
C8_37 C7_43 1_555 1_555
H12_37 C8_37 1_555 1_555
H13_43 C8_37 1_555 1_555
H14_37 C8_37 1_555 1_555
C9_43 H15_43 1_555 1_555
C10_43 N6 1_555 1_555
H16_43 C10_43 1_555 1_555
C11_43 C7_43 1_555 1_555
H17_43 C11_43 1_555 1_555
H18_43 C11_43 1_555 1_555
C12_43 N3_43 1_555 1_555
N2_43 C6_43 1_555 1_555
C5_43 C6_43 1_555 1_555
N6 C12_43 1_555 1_555
C9_43 C10_43 1_555 1_555
C11_43 C12_43 1_555 1_555
C1_44 H1_44 1_555 1_555
H2_44 C1_44 1_555 1_555
N4_3 C3_44 1_555 1_555
C2_38 C1_44 1_555 1_555
H3_38 C2_38 1_555 1_555
H4_44 C2_38 1_555 1_555
H5_38 C2_38 1_555 1_555
N2_44 C4_44 1_555 1_555
C3_44 H6_44 1_555 1_555
C4_44 C3_44 1_555 1_555
H7_44 C4_44 1_555 1_555
C5_44 C1_44 1_555 1_555
H8_44 C5_44 1_555 1_555
H9_44 C5_44 1_555 1_555
C6_44 N4_3 1_555 1_555
Cd3_8 N2_44 1_555 1_555
Cd2_9 N3_44 1_555 1_555
C7_44 H10_44 1_555 1_555
H11_44 C7_44 1_555 1_555
N3_44 C9_44 1_555 1_555
C8_38 C7_44 1_555 1_555
H12_38 C8_38 1_555 1_555
H13_44 C8_38 1_555 1_555
H14_38 C8_38 1_555 1_555
C9_44 H15_44 1_555 1_555
C10_44 N6_3 1_555 1_555
H16_44 C10_44 1_555 1_555
C11_44 C7_44 1_555 1_555
H17_44 C11_44 1_555 1_555
H18_44 C11_44 1_555 1_555
C12_44 N3_44 1_555 1_555
N2_44 C6_44 1_555 1_555
C5_44 C6_44 1_555 1_555
N6_3 C12_44 1_555 1_555
C9_44 C10_44 1_555 1_555
C11_44 C12_44 1_555 1_555
C1_45 H1_45 1_555 1_555
H2_45 C1_45 1_555 1_555
N4_12 C3_45 1_555 1_555
C2_39 C1_45 1_555 1_555
H3_39 C2_39 1_555 1_555
H4_45 C2_39 1_555 1_555
H5_39 C2_39 1_555 1_555
N2_45 C4_45 1_555 1_555
C3_45 H6_45 1_555 1_555
C4_45 C3_45 1_555 1_555
H7_45 C4_45 1_555 1_555
C5_45 C1_45 1_555 1_555
H8_45 C5_45 1_555 1_555
H9_45 C5_45 1_555 1_555
C6_45 N4_12 1_555 1_555
Cd2_15 N2_45 1_555 1_555
Cd3_8 N3_45 1_555 1_555
C7_45 H10_45 1_555 1_555
H11_45 C7_45 1_555 1_555
N3_45 C9_45 1_555 1_555
C8_39 C7_45 1_555 1_555
H12_39 C8_39 1_555 1_555
H13_45 C8_39 1_555 1_555
H14_39 C8_39 1_555 1_555
C9_45 H15_45 1_555 1_555
C10_45 N6_12 1_555 1_555
H16_45 C10_45 1_555 1_555
C11_45 C7_45 1_555 1_555
H17_45 C11_45 1_555 1_555
H18_45 C11_45 1_555 1_555
C12_45 N3_45 1_555 1_555
N2_45 C6_45 1_555 1_555
C5_45 C6_45 1_555 1_555
N6_12 C12_45 1_555 1_555
C9_45 C10_45 1_555 1_555
C11_45 C12_45 1_555 1_555
C1_46 H1_46 1_555 1_555
H2_46 C1_46 1_555 1_555
N4_10 C3_46 1_555 1_555
C2_40 C1_46 1_555 1_555
H3_40 C2_40 1_555 1_555
H4_46 C2_40 1_555 1_555
H5_40 C2_40 1_555 1_555
N2_46 C4_46 1_555 1_555
C3_46 H6_46 1_555 1_555
C4_46 C3_46 1_555 1_555
H7_46 C4_46 1_555 1_555
C5_46 C1_46 1_555 1_555
H8_46 C5_46 1_555 1_555
H9_46 C5_46 1_555 1_555
C6_46 N4_10 1_555 1_555
Cd2_16 N2_46 1_555 1_555
Cd3_5 N3_46 1_555 1_555
C7_46 H10_46 1_555 1_555
H11_46 C7_46 1_555 1_555
N3_46 C9_46 1_555 1_555
C8_40 C7_46 1_555 1_555
H12_40 C8_40 1_555 1_555
H13_46 C8_40 1_555 1_555
H14_40 C8_40 1_555 1_555
C9_46 H15_46 1_555 1_555
C10_46 N6_10 1_555 1_555
H16_46 C10_46 1_555 1_555
C11_46 C7_46 1_555 1_555
H17_46 C11_46 1_555 1_555
H18_46 C11_46 1_555 1_555
C12_46 N3_46 1_555 1_555
N2_46 C6_46 1_555 1_555
C5_46 C6_46 1_555 1_555
N6_10 C12_46 1_555 1_555
C9_46 C10_46 1_555 1_555
C11_46 C12_46 1_555 1_555
C1_47 H1_47 1_555 1_555
H2_47 C1_47 1_555 1_555
N4_11 C3_47 1_555 1_555
C2_41 C1_47 1_555 1_555
H3_41 C2_41 1_555 1_555
H4_47 C2_41 1_555 1_555
H5_41 C2_41 1_555 1_555
N2_47 C4_47 1_555 1_555
C3_47 H6_47 1_555 1_555
C4_47 C3_47 1_555 1_555
H7_47 C4_47 1_555 1_555
C5_47 C1_47 1_555 1_555
H8_47 C5_47 1_555 1_555
H9_47 C5_47 1_555 1_555
C6_47 N4_11 1_555 1_555
Cd2_14 N2_47 1_555 1_555
Cd3_6 N3_47 1_555 1_555
C7_47 H10_47 1_555 1_555
H11_47 C7_47 1_555 1_555
N3_47 C9_47 1_555 1_555
C8_41 C7_47 1_555 1_555
H12_41 C8_41 1_555 1_555
H13_47 C8_41 1_555 1_555
H14_41 C8_41 1_555 1_555
C9_47 H15_47 1_555 1_555
C10_47 N6_11 1_555 1_555
H16_47 C10_47 1_555 1_555
C11_47 C7_47 1_555 1_555
H17_47 C11_47 1_555 1_555
H18_47 C11_47 1_555 1_555
C12_47 N3_47 1_555 1_555
N2_47 C6_47 1_555 1_555
C5_47 C6_47 1_555 1_555
N6_11 C12_47 1_555 1_555
C9_47 C10_47 1_555 1_555
C11_47 C12_47 1_555 1_555
C1_48 H1_48 1_555 1_555
H2_48 C1_48 1_555 1_555
N4_9 C3_48 1_555 1_555
C2_42 C1_48 1_555 1_555
H3_42 C2_42 1_555 1_555
H4_48 C2_42 1_555 1_555
H5_42 C2_42 1_555 1_555
N2_48 C4_48 1_555 1_555
C3_48 H6_48 1_555 1_555
C4_48 C3_48 1_555 1_555
H7_48 C4_48 1_555 1_555
C5_48 C1_48 1_555 1_555
H8_48 C5_48 1_555 1_555
H9_48 C5_48 1_555 1_555
C6_48 N4_9 1_555 1_555
Cd2_13 N2_48 1_555 1_555
Cd3_7 N3_48 1_555 1_555
C7_48 H10_48 1_555 1_555
H11_48 C7_48 1_555 1_555
N3_48 C9_48 1_555 1_555
C8_42 C7_48 1_555 1_555
H12_42 C8_42 1_555 1_555
H13_48 C8_42 1_555 1_555
H14_42 C8_42 1_555 1_555
C9_48 H15_48 1_555 1_555
C10_48 N6_9 1_555 1_555
H16_48 C10_48 1_555 1_555
C11_48 C7_48 1_555 1_555
H17_48 C11_48 1_555 1_555
H18_48 C11_48 1_555 1_555
C12_48 N3_48 1_555 1_555
N2_48 C6_48 1_555 1_555
C5_48 C6_48 1_555 1_555
N6_9 C12_48 1_555 1_555
C9_48 C10_48 1_555 1_555
C11_48 C12_48 1_555 1_555
H12_43 C8_43 1_555 1_555
H14_43 C8_43 1_555 1_555
H3_43 C2_43 1_555 1_555
H5_43 C2_43 1_555 1_555
H12_44 C8_44 1_555 1_555
H14_44 C8_44 1_555 1_555
H3_44 C2_44 1_555 1_555
H5_44 C2_44 1_555 1_555
H12_45 C8_45 1_555 1_555
H14_45 C8_45 1_555 1_555
H3_45 C2_45 1_555 1_555
H5_45 C2_45 1_555 1_555
H3_46 C2_46 1_555 1_555
H5_46 C2_46 1_555 1_555
H12_46 C8_46 1_555 1_555
H14_46 C8_46 1_555 1_555
H3_47 C2_47 1_555 1_555
H5_47 C2_47 1_555 1_555
H12_47 C8_47 1_555 1_555
H14_47 C8_47 1_555 1_555
H3_48 C2_48 1_555 1_555
H5_48 C2_48 1_555 1_555
H12_48 C8_48 1_555 1_555
H14_48 C8_48 1_555 1_555

#END
