
###############################################################################
#
# This file contains modified crystal structure data generated from the
# MOF subset of the Cambridge Structural Database (CSD) v543 
# hosted by the Cambridge Crystallographic Data Centre (CCDC).
#
# This work is licensed under the Creative Commons
# Attribution-NonCommercial-ShareAlike 4.0 International License.
# To view a copy of this license, visit
# http://creativecommons.org/licenses/by-nc-sa/4.0/
# or send a letter to
# Creative Commons, PO Box 1866, Mountain View, CA 94042, USA.
#
# CIF created using the CSD Python API on 29 September 2022
# The structure has been converted into the P1 space group
# The structure has a 3D framework
# The original CSD entry GUPDOL is in the cubic crystal system
# The framework has been calculated to contain at least 10.0% void space
# The void calculation uses a probe of radius 1.32A, grid spacing 0.4
#
###############################################################################

data_GUPDOL
_chemical_formula_moiety         '(C696 H1056 Cd48 N168)n'
_symmetry_cell_setting           triclinic
_symmetry_space_group_name_H-M   'P 1'
_symmetry_Int_Tables_number      1
_space_group_name_Hall           'P 1'
loop_
_symmetry_equiv_pos_site_id
_symmetry_equiv_pos_as_xyz
1 x,y,z
_cell_length_a                   28.0630(12)
_cell_length_b                   28.0630(12)
_cell_length_c                   28.0630(12)
_cell_angle_alpha                90
_cell_angle_beta                 90
_cell_angle_gamma                90
_cell_volume                     22100.5
loop_
_atom_site_label
_atom_site_type_symbol
_atom_site_fract_x
_atom_site_fract_y
_atom_site_fract_z
Cd1 Cd 0.159154(16) 0.409154(16) 0.1250
N1 N 0.12137(18) 0.38160(18) 0.18748(17)
N2 N 0.09760(17) 0.37243(18) 0.26204(18)
C1 C 0.0649(3) 0.3515(3) 0.2331(3)
H1 H 0.0373 0.3361 0.2430
C2 C 0.0794(3) 0.3569(3) 0.1877(3)
H2 H 0.0635 0.3456 0.1609
C3 C 0.1306(2) 0.3903(2) 0.2333(2)
C4 C 0.1735(3) 0.4175(3) 0.2500(3)
H3 H 0.1842 0.4377 0.2241
H4 H 0.1638 0.4382 0.2759
C5 C 0.2136(3) 0.3896(5) 0.2661(4)
H5 H 0.2256 0.3699 0.2404
H6 H 0.2042 0.3691 0.2923
C6 C 0.2528(6) 0.4256(6) 0.2827(6)
H7 H 0.2604 0.4473 0.2568
H8 H 0.2409 0.4442 0.3093
C7 C 0.2947(10) 0.4006(9) 0.2968(10)
H9 H 0.3186 0.4230 0.3067
H10 H 0.3066 0.3823 0.2704
H11 H 0.2873 0.3796 0.3227
Cd2 Cd 0.090846(16) 0.3750 0.340846(16)
N3 N 0.13160(18) 0.37137(18) 0.06252(17)
N5 N 0.15240(17) 0.48796(18) 0.12243(18)
N6 N 0.23796(18) 0.40240(17) 0.12757(18)
C8 C 0.1015(3) 0.3149(3) 0.0169(3)
H12 H 0.0861 0.2873 0.0070
C9 C 0.1069(3) 0.3294(3) 0.0623(3)
H13 H 0.0956 0.3135 0.0891
C10 C 0.1403(2) 0.3806(2) 0.0167(2)
C11 C 0.1675(3) 0.4235(3) 0.0000(3)
H14 H 0.1877 0.4342 0.0259
H16 H 0.1199 0.4756 0.0096
Cd3 Cd 0.1250 0.340846(16) 0.909154(16)
N4 N 0.12243(18) 0.34760(17) 0.98796(18)
C11_2 C 0.1675(3) 0.4235(3) 1.0000(3)
H15 H 0.1882 0.4138 0.9741
C12 C 0.1396(5) 0.4636(3) 0.9839(4)
H17 H 0.1191 0.4542 0.9577
C13 C 0.1756(6) 0.5028(6) 0.9673(6)
H18 H 0.1973 0.5104 0.9932
H19 H 0.1942 0.4909 0.9407
C14 C 0.1506(9) 0.5447(10) 0.9532(10)
H20 H 0.1730 0.5686 0.9433
H21 H 0.1323 0.5566 0.9796
H22 H 0.1296 0.5373 0.9273
Cd1_2 Cd 0.340846(16) 0.590846(16) 0.6250
N1_2 N 0.37863(18) 0.61840(18) 0.68748(17)
N2_2 N 0.40240(17) 0.62757(18) 0.76204(18)
C1_2 C 0.4351(3) 0.6485(3) 0.7331(3)
H1_2 H 0.4627 0.6639 0.7430
C2_2 C 0.4206(3) 0.6431(3) 0.6877(3)
H2_2 H 0.4365 0.6544 0.6609
C3_2 C 0.3694(2) 0.6097(2) 0.7333(2)
C4_2 C 0.3265(3) 0.5825(3) 0.7500(3)
H3_2 H 0.3158 0.5623 0.7241
H4_2 H 0.3362 0.5618 0.7759
C5_2 C 0.2864(3) 0.6104(5) 0.7661(4)
H5_2 H 0.2744 0.6301 0.7404
H6_2 H 0.2958 0.6309 0.7923
C6_2 C 0.2472(6) 0.5744(6) 0.7827(6)
H7_2 H 0.2396 0.5527 0.7568
H8_2 H 0.2591 0.5558 0.8093
C7_2 C 0.2053(10) 0.5994(9) 0.7968(10)
H9_2 H 0.1814 0.5770 0.8067
H10_2 H 0.1934 0.6177 0.7704
H11_2 H 0.2127 0.6204 0.8227
Cd2_2 Cd 0.409154(16) 0.6250 0.840846(16)
Cd3_2 Cd 0.3750 0.659154(16) 0.409154(16)
N3_2 N 0.36840(18) 0.62863(18) 0.56252(17)
N4_2 N 0.37757(18) 0.65240(17) 0.48796(18)
N5_2 N 0.34760(17) 0.51204(18) 0.62243(18)
N6_2 N 0.26204(18) 0.59760(17) 0.62757(18)
C8_2 C 0.3985(3) 0.6851(3) 0.5169(3)
H12_2 H 0.4139 0.7127 0.5070
C9_2 C 0.3931(3) 0.6706(3) 0.5623(3)
H13_2 H 0.4044 0.6865 0.5891
C10_2 C 0.3597(2) 0.6194(2) 0.5167(2)
C11_3 C 0.3325(3) 0.5765(3) 0.5000(3)
H14_2 H 0.3123 0.5658 0.5259
H15_2 H 0.3118 0.5862 0.4741
C12_2 C 0.3604(5) 0.5364(3) 0.4839(4)
H16_2 H 0.3801 0.5244 0.5096
H17_2 H 0.3809 0.5458 0.4577
C13_2 C 0.3244(6) 0.4972(6) 0.4673(6)
H18_2 H 0.3027 0.4896 0.4932
H19_2 H 0.3058 0.5091 0.4407
C14_2 C 0.3494(9) 0.4553(10) 0.4532(10)
H20_2 H 0.3270 0.4314 0.4433
H21_2 H 0.3677 0.4434 0.4796
H22_2 H 0.3704 0.4627 0.4273
Cd1_3 Cd 0.840846(16) 0.909154(16) 0.3750
N1_3 N 0.87863(18) 0.88160(18) 0.31252(17)
N2_3 N 0.90240(17) 0.87243(18) 0.23796(18)
C1_3 C 0.9351(3) 0.8515(3) 0.2669(3)
H1_3 H 0.9627 0.8361 0.2570
C2_3 C 0.9206(3) 0.8569(3) 0.3123(3)
H2_3 H 0.9365 0.8456 0.3391
C3_3 C 0.8694(2) 0.8903(2) 0.2667(2)
C4_3 C 0.8265(3) 0.9175(3) 0.2500(3)
H3_3 H 0.8158 0.9377 0.2759
H4_3 H 0.8362 0.9382 0.2241
C5_3 C 0.7864(3) 0.8896(5) 0.2339(4)
H5_3 H 0.7744 0.8699 0.2596
H6_3 H 0.7958 0.8691 0.2077
C6_3 C 0.7472(6) 0.9256(6) 0.2173(6)
H7_3 H 0.7396 0.9473 0.2432
H8_3 H 0.7591 0.9442 0.1907
C7_3 C 0.7053(10) 0.9006(9) 0.2032(10)
H9_3 H 0.6814 0.9230 0.1933
H10_3 H 0.6934 0.8823 0.2296
H11_3 H 0.7127 0.8796 0.1773
Cd2_3 Cd 0.909154(16) 0.8750 0.159154(16)
Cd3_3 Cd 0.8750 0.840846(16) 0.590846(16)
N3_3 N 0.86840(18) 0.87137(18) 0.43748(17)
N4_3 N 0.87757(18) 0.84760(17) 0.51204(18)
N5_3 N 0.84760(17) 0.98796(18) 0.37757(18)
N6_3 N 0.76204(18) 0.90240(17) 0.37243(18)
C8_3 C 0.8985(3) 0.8149(3) 0.4831(3)
H12_3 H 0.9139 0.7873 0.4930
C9_3 C 0.8931(3) 0.8294(3) 0.4377(3)
H13_3 H 0.9044 0.8135 0.4109
C10_3 C 0.8597(2) 0.8806(2) 0.4833(2)
C11_4 C 0.8325(3) 0.9235(3) 0.5000(3)
H14_3 H 0.8123 0.9342 0.4741
H15_3 H 0.8118 0.9138 0.5259
C12_3 C 0.8604(5) 0.9636(3) 0.5161(4)
H16_3 H 0.8801 0.9756 0.4904
H17_3 H 0.8809 0.9542 0.5423
H19_3 H 0.8058 0.9909 0.5593
Cd3_4 Cd 0.6250 0.159154(16) 0.090846(16)
N4_4 N 0.62243(18) 0.15240(17) 0.01204(18)
C11_5 C 0.6675(3) 0.0765(3) 0.0000(3)
H15_4 H 0.6882 0.0862 0.0259
C12_4 C 0.6396(5) 0.0364(3) 0.0161(4)
H17_4 H 0.6191 0.0458 0.0423
H19_4 H 0.6942 0.0091 0.0593
Cd1_4 Cd 0.659154(16) 0.090846(16) 0.8750
N1_4 N 0.62137(18) 0.11840(18) 0.81252(17)
N2_4 N 0.59760(17) 0.12757(18) 0.73796(18)
C1_4 C 0.5649(3) 0.1485(3) 0.7669(3)
H1_4 H 0.5373 0.1639 0.7570
C2_4 C 0.5794(3) 0.1431(3) 0.8123(3)
H2_4 H 0.5635 0.1544 0.8391
C3_4 C 0.6306(2) 0.1097(2) 0.7667(2)
C4_4 C 0.6735(3) 0.0825(3) 0.7500(3)
H3_4 H 0.6842 0.0623 0.7759
H4_4 H 0.6638 0.0618 0.7241
C5_4 C 0.7136(3) 0.1104(5) 0.7339(4)
H5_4 H 0.7256 0.1301 0.7596
H6_4 H 0.7042 0.1309 0.7077
C6_4 C 0.7528(6) 0.0744(6) 0.7173(6)
H7_4 H 0.7604 0.0527 0.7432
H8_4 H 0.7409 0.0558 0.6907
C7_4 C 0.7947(10) 0.0994(9) 0.7032(10)
H9_4 H 0.8186 0.0770 0.6933
H10_4 H 0.8066 0.1177 0.7296
H11_4 H 0.7873 0.1204 0.6773
Cd2_4 Cd 0.590846(16) 0.1250 0.659154(16)
N3_4 N 0.63160(18) 0.12863(18) 0.93748(17)
N5_4 N 0.65240(17) 0.01204(18) 0.87757(18)
N6_4 N 0.73796(18) 0.09760(17) 0.87243(18)
C8_4 C 0.6015(3) 0.1851(3) 0.9831(3)
H12_4 H 0.5861 0.2127 0.9930
C9_4 C 0.6069(3) 0.1706(3) 0.9377(3)
H13_4 H 0.5956 0.1865 0.9109
C10_4 C 0.6403(2) 0.1194(2) 0.9833(2)
C11_6 C 0.6675(3) 0.0765(3) 1.0000(3)
H14_4 H 0.6877 0.0658 0.9741
H16_4 H 0.6199 0.0244 0.9904
Cd1_5 Cd 0.1250 0.159154(16) 0.409154(16)
N1_5 N 0.18748(17) 0.12137(18) 0.38160(18)
N2_5 N 0.26204(18) 0.09760(17) 0.37243(18)
C1_5 C 0.2331(3) 0.0649(3) 0.3515(3)
H1_5 H 0.2430 0.0373 0.3361
C2_5 C 0.1877(3) 0.0794(3) 0.3569(3)
H2_5 H 0.1609 0.0635 0.3456
C3_5 C 0.2333(2) 0.1306(2) 0.3903(2)
C4_5 C 0.2500(3) 0.1735(3) 0.4175(3)
H3_5 H 0.2241 0.1842 0.4377
H4_5 H 0.2759 0.1638 0.4382
C5_5 C 0.2661(4) 0.2136(3) 0.3896(5)
H5_5 H 0.2404 0.2256 0.3699
H6_5 H 0.2923 0.2042 0.3691
C6_5 C 0.2827(6) 0.2528(6) 0.4256(6)
H7_5 H 0.2568 0.2604 0.4473
H8_5 H 0.3093 0.2409 0.4442
C7_5 C 0.2968(10) 0.2947(10) 0.4006(9)
H9_5 H 0.3067 0.3186 0.4230
H10_5 H 0.2704 0.3066 0.3823
H11_5 H 0.3227 0.2873 0.3796
Cd2_5 Cd 0.340846(16) 0.090846(16) 0.3750
N3_5 N 0.06252(17) 0.13160(18) 0.37137(18)
N5_5 N 0.12243(18) 0.15240(17) 0.48796(18)
N6_5 N 0.12757(18) 0.23796(18) 0.40240(17)
C8_5 C 0.0169(3) 0.1015(3) 0.3149(3)
H12_5 H 0.0070 0.0861 0.2873
C9_5 C 0.0623(3) 0.1069(3) 0.3294(3)
H13_5 H 0.0891 0.0956 0.3135
C10_5 C 0.0167(2) 0.1403(2) 0.3806(2)
C11_7 C -0.0000(3) 0.1675(3) 0.4235(3)
H14_5 H 0.0259 0.1877 0.4342
H16_5 H 0.0096 0.1199 0.4756
Cd3_5 Cd 0.909154(16) 0.1250 0.340846(16)
N4_5 N 0.98796(18) 0.12243(18) 0.34760(17)
C11_8 C 1.0000(3) 0.1675(3) 0.4235(3)
H15_5 H 0.9741 0.1882 0.4138
C12_5 C 0.9839(4) 0.1396(5) 0.4636(3)
H17_5 H 0.9577 0.1191 0.4542
C13_3 C 0.9673(6) 0.1756(6) 0.5028(6)
H18_3 H 0.9932 0.1973 0.5104
H19_5 H 0.9407 0.1942 0.4909
C14_3 C 0.9532(10) 0.1506(9) 0.5447(10)
H20_3 H 0.9433 0.1730 0.5686
H21_3 H 0.9796 0.1323 0.5566
H22_3 H 0.9273 0.1296 0.5373
Cd1_6 Cd 0.6250 0.340846(16) 0.590846(16)
N1_6 N 0.68748(17) 0.37863(18) 0.61840(18)
N2_6 N 0.76204(18) 0.40240(17) 0.62757(18)
C1_6 C 0.7331(3) 0.4351(3) 0.6485(3)
H1_6 H 0.7430 0.4627 0.6639
C2_6 C 0.6877(3) 0.4206(3) 0.6431(3)
H2_6 H 0.6609 0.4365 0.6544
C3_6 C 0.7333(2) 0.3694(2) 0.6097(2)
C4_6 C 0.7500(3) 0.3265(3) 0.5825(3)
H3_6 H 0.7241 0.3158 0.5623
H4_6 H 0.7759 0.3362 0.5618
C5_6 C 0.7661(4) 0.2864(3) 0.6104(5)
H5_6 H 0.7404 0.2744 0.6301
H6_6 H 0.7923 0.2958 0.6309
C6_6 C 0.7827(6) 0.2472(6) 0.5744(6)
H7_6 H 0.7568 0.2396 0.5527
H8_6 H 0.8093 0.2591 0.5558
C7_6 C 0.7968(10) 0.2053(10) 0.5994(9)
H9_6 H 0.8067 0.1814 0.5770
H10_6 H 0.7704 0.1934 0.6177
H11_6 H 0.8227 0.2127 0.6204
Cd2_6 Cd 0.840846(16) 0.409154(16) 0.6250
Cd3_6 Cd 0.409154(16) 0.3750 0.659154(16)
N3_6 N 0.56252(17) 0.36840(18) 0.62863(18)
N4_6 N 0.48796(18) 0.37757(18) 0.65240(17)
N5_6 N 0.62243(18) 0.34760(17) 0.51204(18)
N6_6 N 0.62757(18) 0.26204(18) 0.59760(17)
C8_6 C 0.5169(3) 0.3985(3) 0.6851(3)
H12_6 H 0.5070 0.4139 0.7127
C9_6 C 0.5623(3) 0.3931(3) 0.6706(3)
H13_6 H 0.5891 0.4044 0.6865
C10_6 C 0.5167(2) 0.3597(2) 0.6194(2)
C11_9 C 0.5000(3) 0.3325(3) 0.5765(3)
H14_6 H 0.5259 0.3123 0.5658
H15_6 H 0.4741 0.3118 0.5862
C12_6 C 0.4839(4) 0.3604(5) 0.5364(3)
H16_6 H 0.5096 0.3801 0.5244
H17_6 H 0.4577 0.3809 0.5458
C13_4 C 0.4673(6) 0.3244(6) 0.4972(6)
H18_4 H 0.4932 0.3027 0.4896
H19_6 H 0.4407 0.3058 0.5091
C14_4 C 0.4532(10) 0.3494(9) 0.4553(10)
H20_4 H 0.4433 0.3270 0.4314
H21_4 H 0.4796 0.3677 0.4434
H22_4 H 0.4273 0.3704 0.4627
Cd1_7 Cd 0.3750 0.840846(16) 0.909154(16)
N1_7 N 0.31252(17) 0.87863(18) 0.88160(18)
N2_7 N 0.23796(18) 0.90240(17) 0.87243(18)
C1_7 C 0.2669(3) 0.9351(3) 0.8515(3)
H1_7 H 0.2570 0.9627 0.8361
C2_7 C 0.3123(3) 0.9206(3) 0.8569(3)
H2_7 H 0.3391 0.9365 0.8456
C3_7 C 0.2667(2) 0.8694(2) 0.8903(2)
C4_7 C 0.2500(3) 0.8265(3) 0.9175(3)
H3_7 H 0.2759 0.8158 0.9377
H4_7 H 0.2241 0.8362 0.9382
C5_7 C 0.2339(4) 0.7864(3) 0.8896(5)
H5_7 H 0.2596 0.7744 0.8699
H6_7 H 0.2077 0.7958 0.8691
C6_7 C 0.2173(6) 0.7472(6) 0.9256(6)
H7_7 H 0.2432 0.7396 0.9473
H8_7 H 0.1907 0.7591 0.9442
C7_7 C 0.2032(10) 0.7053(10) 0.9006(9)
H9_7 H 0.1933 0.6814 0.9230
H10_7 H 0.2296 0.6934 0.8823
H11_7 H 0.1773 0.7127 0.8796
Cd2_7 Cd 0.159154(16) 0.909154(16) 0.8750
Cd3_7 Cd 0.590846(16) 0.8750 0.840846(16)
N3_7 N 0.43748(17) 0.86840(18) 0.87137(18)
N4_7 N 0.51204(18) 0.87757(18) 0.84760(17)
N5_7 N 0.37757(18) 0.84760(17) 0.98796(18)
N6_7 N 0.37243(18) 0.76204(18) 0.90240(17)
C8_7 C 0.4831(3) 0.8985(3) 0.8149(3)
H12_7 H 0.4930 0.9139 0.7873
C9_7 C 0.4377(3) 0.8931(3) 0.8294(3)
H13_7 H 0.4109 0.9044 0.8135
C10_7 C 0.4833(2) 0.8597(2) 0.8806(2)
C11_10 C 0.5000(3) 0.8325(3) 0.9235(3)
H14_7 H 0.4741 0.8123 0.9342
H15_7 H 0.5259 0.8118 0.9138
C12_7 C 0.5161(4) 0.8604(5) 0.9636(3)
H16_7 H 0.4904 0.8801 0.9756
H17_7 H 0.5423 0.8809 0.9542
H19_7 H 0.5593 0.8058 0.9909
Cd3_8 Cd 0.090846(16) 0.6250 0.159154(16)
N4_8 N 0.01204(18) 0.62243(18) 0.15240(17)
C11_11 C 0.0000(3) 0.6675(3) 0.0765(3)
H15_8 H 0.0259 0.6882 0.0862
C12_8 C 0.0161(4) 0.6396(5) 0.0364(3)
H17_8 H 0.0423 0.6191 0.0458
H19_8 H 0.0593 0.6942 0.0091
Cd1_8 Cd 0.8750 0.659154(16) 0.090846(16)
N1_8 N 0.81252(17) 0.62137(18) 0.11840(18)
N2_8 N 0.73796(18) 0.59760(17) 0.12757(18)
C1_8 C 0.7669(3) 0.5649(3) 0.1485(3)
H1_8 H 0.7570 0.5373 0.1639
C2_8 C 0.8123(3) 0.5794(3) 0.1431(3)
H2_8 H 0.8391 0.5635 0.1544
C3_8 C 0.7667(2) 0.6306(2) 0.1097(2)
C4_8 C 0.7500(3) 0.6735(3) 0.0825(3)
H3_8 H 0.7759 0.6842 0.0623
H4_8 H 0.7241 0.6638 0.0618
C5_8 C 0.7339(4) 0.7136(3) 0.1104(5)
H5_8 H 0.7596 0.7256 0.1301
H6_8 H 0.7077 0.7042 0.1309
C6_8 C 0.7173(6) 0.7528(6) 0.0744(6)
H7_8 H 0.7432 0.7604 0.0527
H8_8 H 0.6907 0.7409 0.0558
C7_8 C 0.7032(10) 0.7947(10) 0.0994(9)
H9_8 H 0.6933 0.8186 0.0770
H10_8 H 0.7296 0.8066 0.1177
H11_8 H 0.6773 0.7873 0.1204
Cd2_8 Cd 0.659154(16) 0.590846(16) 0.1250
N3_8 N 0.93748(17) 0.63160(18) 0.12863(18)
N5_8 N 0.87757(18) 0.65240(17) 0.01204(18)
N6_8 N 0.87243(18) 0.73796(18) 0.09760(17)
C8_8 C 0.9831(3) 0.6015(3) 0.1851(3)
H12_8 H 0.9930 0.5861 0.2127
C9_8 C 0.9377(3) 0.6069(3) 0.1706(3)
H13_8 H 0.9109 0.5956 0.1865
C10_8 C 0.9833(2) 0.6403(2) 0.1194(2)
C11_12 C 1.0000(3) 0.6675(3) 0.0765(3)
H14_8 H 0.9741 0.6877 0.0658
H16_8 H 0.9904 0.6199 0.0244
Cd1_9 Cd 0.409154(16) 0.1250 0.159154(16)
N1_9 N 0.38160(18) 0.18748(17) 0.12137(18)
N2_9 N 0.37243(18) 0.26204(18) 0.09760(17)
C1_9 C 0.3515(3) 0.2331(3) 0.0649(3)
H1_9 H 0.3361 0.2430 0.0373
C2_9 C 0.3569(3) 0.1877(3) 0.0794(3)
H2_9 H 0.3456 0.1609 0.0635
C3_9 C 0.3903(2) 0.2333(2) 0.1306(2)
C4_9 C 0.4175(3) 0.2500(3) 0.1735(3)
H3_9 H 0.4377 0.2241 0.1842
H4_9 H 0.4382 0.2759 0.1638
C5_9 C 0.3896(5) 0.2661(4) 0.2136(3)
H5_9 H 0.3699 0.2404 0.2256
H6_9 H 0.3691 0.2923 0.2042
C6_9 C 0.4256(6) 0.2827(6) 0.2528(6)
H7_9 H 0.4473 0.2568 0.2604
H8_9 H 0.4442 0.3093 0.2409
C7_9 C 0.4006(9) 0.2968(10) 0.2947(10)
H9_9 H 0.4230 0.3067 0.3186
H10_9 H 0.3823 0.2704 0.3066
H11_9 H 0.3796 0.3227 0.2873
Cd2_9 Cd 0.3750 0.340846(16) 0.090846(16)
N3_9 N 0.37137(18) 0.06252(17) 0.13160(18)
N5_9 N 0.48796(18) 0.12243(18) 0.15240(17)
N6_9 N 0.40240(17) 0.12757(18) 0.23796(18)
C8_9 C 0.3149(3) 0.0169(3) 0.1015(3)
H12_9 H 0.2873 0.0070 0.0861
C9_9 C 0.3294(3) 0.0623(3) 0.1069(3)
H13_9 H 0.3135 0.0891 0.0956
C10_9 C 0.3806(2) 0.0167(2) 0.1403(2)
C11_13 C 0.4235(3) -0.0000(3) 0.1675(3)
H14_9 H 0.4342 0.0259 0.1877
H16_9 H 0.4756 0.0096 0.1199
Cd3_9 Cd 0.340846(16) 0.909154(16) 0.1250
N4_9 N 0.34760(17) 0.98796(18) 0.12243(18)
C11_14 C 0.4235(3) 1.0000(3) 0.1675(3)
H15_9 H 0.4138 0.9741 0.1882
C12_9 C 0.4636(3) 0.9839(4) 0.1396(5)
H17_9 H 0.4542 0.9577 0.1191
C13_5 C 0.5028(6) 0.9673(6) 0.1756(6)
H18_5 H 0.5104 0.9932 0.1973
H19_9 H 0.4909 0.9407 0.1942
C14_5 C 0.5447(10) 0.9532(10) 0.1506(9)
H20_5 H 0.5686 0.9433 0.1730
H21_5 H 0.5566 0.9796 0.1323
H22_5 H 0.5373 0.9273 0.1296
Cd1_10 Cd 0.590846(16) 0.6250 0.340846(16)
N1_10 N 0.61840(18) 0.68748(17) 0.37863(18)
N2_10 N 0.62757(18) 0.76204(18) 0.40240(17)
C1_10 C 0.6485(3) 0.7331(3) 0.4351(3)
H1_10 H 0.6639 0.7430 0.4627
C2_10 C 0.6431(3) 0.6877(3) 0.4206(3)
H2_10 H 0.6544 0.6609 0.4365
C3_10 C 0.6097(2) 0.7333(2) 0.3694(2)
C4_10 C 0.5825(3) 0.7500(3) 0.3265(3)
H3_10 H 0.5623 0.7241 0.3158
H4_10 H 0.5618 0.7759 0.3362
C5_10 C 0.6104(5) 0.7661(4) 0.2864(3)
H5_10 H 0.6301 0.7404 0.2744
H6_10 H 0.6309 0.7923 0.2958
C6_10 C 0.5744(6) 0.7827(6) 0.2472(6)
H7_10 H 0.5527 0.7568 0.2396
H8_10 H 0.5558 0.8093 0.2591
C7_10 C 0.5994(9) 0.7968(10) 0.2053(10)
H9_10 H 0.5770 0.8067 0.1814
H10_10 H 0.6177 0.7704 0.1934
H11_10 H 0.6204 0.8227 0.2127
Cd2_10 Cd 0.6250 0.840846(16) 0.409154(16)
Cd3_10 Cd 0.659154(16) 0.409154(16) 0.3750
N3_10 N 0.62863(18) 0.56252(17) 0.36840(18)
N4_10 N 0.65240(17) 0.48796(18) 0.37757(18)
N5_10 N 0.51204(18) 0.62243(18) 0.34760(17)
N6_10 N 0.59760(17) 0.62757(18) 0.26204(18)
C8_10 C 0.6851(3) 0.5169(3) 0.3985(3)
H12_10 H 0.7127 0.5070 0.4139
C9_10 C 0.6706(3) 0.5623(3) 0.3931(3)
H13_10 H 0.6865 0.5891 0.4044
C10_10 C 0.6194(2) 0.5167(2) 0.3597(2)
C11_15 C 0.5765(3) 0.5000(3) 0.3325(3)
H14_10 H 0.5658 0.5259 0.3123
H15_10 H 0.5862 0.4741 0.3118
C12_10 C 0.5364(3) 0.4839(4) 0.3604(5)
H16_10 H 0.5244 0.5096 0.3801
H17_10 H 0.5458 0.4577 0.3809
C13_6 C 0.4972(6) 0.4673(6) 0.3244(6)
H18_6 H 0.4896 0.4932 0.3027
H19_10 H 0.5091 0.4407 0.3058
C14_6 C 0.4553(10) 0.4532(10) 0.3494(9)
H20_6 H 0.4314 0.4433 0.3270
H21_6 H 0.4434 0.4796 0.3677
H22_6 H 0.4627 0.4273 0.3704
Cd1_11 Cd 0.909154(16) 0.3750 0.840846(16)
N1_11 N 0.88160(18) 0.31252(17) 0.87863(18)
N2_11 N 0.87243(18) 0.23796(18) 0.90240(17)
C1_11 C 0.8515(3) 0.2669(3) 0.9351(3)
H1_11 H 0.8361 0.2570 0.9627
C2_11 C 0.8569(3) 0.3123(3) 0.9206(3)
H2_11 H 0.8456 0.3391 0.9365
C3_11 C 0.8903(2) 0.2667(2) 0.8694(2)
C4_11 C 0.9175(3) 0.2500(3) 0.8265(3)
H3_11 H 0.9377 0.2759 0.8158
H4_11 H 0.9382 0.2241 0.8362
C5_11 C 0.8896(5) 0.2339(4) 0.7864(3)
H5_11 H 0.8699 0.2596 0.7744
H6_11 H 0.8691 0.2077 0.7958
C6_11 C 0.9256(6) 0.2173(6) 0.7472(6)
H7_11 H 0.9473 0.2432 0.7396
H8_11 H 0.9442 0.1907 0.7591
C7_11 C 0.9006(9) 0.2032(10) 0.7053(10)
H9_11 H 0.9230 0.1933 0.6814
H10_11 H 0.8823 0.2296 0.6934
H11_11 H 0.8796 0.1773 0.7127
Cd2_11 Cd 0.8750 0.159154(16) 0.909154(16)
Cd3_11 Cd 0.840846(16) 0.590846(16) 0.8750
N3_11 N 0.87137(18) 0.43748(17) 0.86840(18)
N4_11 N 0.84760(17) 0.51204(18) 0.87757(18)
N5_11 N 0.98796(18) 0.37757(18) 0.84760(17)
N6_11 N 0.90240(17) 0.37243(18) 0.76204(18)
C8_11 C 0.8149(3) 0.4831(3) 0.8985(3)
H12_11 H 0.7873 0.4930 0.9139
C9_11 C 0.8294(3) 0.4377(3) 0.8931(3)
H13_11 H 0.8135 0.4109 0.9044
C10_11 C 0.8806(2) 0.4833(2) 0.8597(2)
C11_16 C 0.9235(3) 0.5000(3) 0.8325(3)
H14_11 H 0.9342 0.4741 0.8123
H15_11 H 0.9138 0.5259 0.8118
C12_11 C 0.9636(3) 0.5161(4) 0.8604(5)
H16_11 H 0.9756 0.4904 0.8801
H17_11 H 0.9542 0.5423 0.8809
H19_11 H 0.9909 0.5593 0.8058
Cd3_12 Cd 0.159154(16) 0.090846(16) 0.6250
N4_12 N 0.15240(17) 0.01204(18) 0.62243(18)
C11_17 C 0.0765(3) 0.0000(3) 0.6675(3)
H15_12 H 0.0862 0.0259 0.6882
C12_12 C 0.0364(3) 0.0161(4) 0.6396(5)
H17_12 H 0.0458 0.0423 0.6191
H19_12 H 0.0091 0.0593 0.6942
Cd1_12 Cd 0.090846(16) 0.8750 0.659154(16)
N1_12 N 0.11840(18) 0.81252(17) 0.62137(18)
N2_12 N 0.12757(18) 0.73796(18) 0.59760(17)
C1_12 C 0.1485(3) 0.7669(3) 0.5649(3)
H1_12 H 0.1639 0.7570 0.5373
C2_12 C 0.1431(3) 0.8123(3) 0.5794(3)
H2_12 H 0.1544 0.8391 0.5635
C3_12 C 0.1097(2) 0.7667(2) 0.6306(2)
C4_12 C 0.0825(3) 0.7500(3) 0.6735(3)
H3_12 H 0.0623 0.7759 0.6842
H4_12 H 0.0618 0.7241 0.6638
C5_12 C 0.1104(5) 0.7339(4) 0.7136(3)
H5_12 H 0.1301 0.7596 0.7256
H6_12 H 0.1309 0.7077 0.7042
C6_12 C 0.0744(6) 0.7173(6) 0.7528(6)
H7_12 H 0.0527 0.7432 0.7604
H8_12 H 0.0558 0.6907 0.7409
C7_12 C 0.0994(9) 0.7032(10) 0.7947(10)
H9_12 H 0.0770 0.6933 0.8186
H10_12 H 0.1177 0.7296 0.8066
H11_12 H 0.1204 0.6773 0.7873
Cd2_12 Cd 0.1250 0.659154(16) 0.590846(16)
N3_12 N 0.12863(18) 0.93748(17) 0.63160(18)
N5_12 N 0.01204(18) 0.87757(18) 0.65240(17)
N6_12 N 0.09760(17) 0.87243(18) 0.73796(18)
C8_12 C 0.1851(3) 0.9831(3) 0.6015(3)
H12_12 H 0.2127 0.9930 0.5861
C9_12 C 0.1706(3) 0.9377(3) 0.6069(3)
H13_12 H 0.1865 0.9109 0.5956
C10_12 C 0.1194(2) 0.9833(2) 0.6403(2)
C11_18 C 0.0765(3) 1.0000(3) 0.6675(3)
H14_12 H 0.0658 0.9741 0.6877
H16_12 H 0.0244 0.9904 0.6199
Cd1_13 Cd 0.659154(16) 0.909154(16) 0.6250
N1_13 N 0.62137(18) 0.88160(18) 0.68748(17)
N2_13 N 0.59760(17) 0.87243(18) 0.76204(18)
C1_13 C 0.5649(3) 0.8515(3) 0.7331(3)
H1_13 H 0.5373 0.8361 0.7430
C2_13 C 0.5794(3) 0.8569(3) 0.6877(3)
H2_13 H 0.5635 0.8456 0.6609
C3_13 C 0.6306(2) 0.8903(2) 0.7333(2)
C4_13 C 0.6735(3) 0.9175(3) 0.7500(3)
H3_13 H 0.6842 0.9377 0.7241
H4_13 H 0.6638 0.9382 0.7759
C5_13 C 0.7136(3) 0.8896(5) 0.7661(4)
H5_13 H 0.7256 0.8699 0.7404
H6_13 H 0.7042 0.8691 0.7923
C6_13 C 0.7528(6) 0.9256(6) 0.7827(6)
H7_13 H 0.7604 0.9473 0.7568
H8_13 H 0.7409 0.9442 0.8093
C7_13 C 0.7947(10) 0.9006(9) 0.7968(10)
H9_13 H 0.8186 0.9230 0.8067
H10_13 H 0.8066 0.8823 0.7704
H11_13 H 0.7873 0.8796 0.8227
N3_13 N 0.63160(18) 0.87137(18) 0.56252(17)
N4_13 N 0.62243(18) 0.84760(17) 0.48796(18)
N5_13 N 0.65240(17) 0.98796(18) 0.62243(18)
N6_13 N 0.73796(18) 0.90240(17) 0.62757(18)
C8_13 C 0.6015(3) 0.8149(3) 0.5169(3)
H12_13 H 0.5861 0.7873 0.5070
C9_13 C 0.6069(3) 0.8294(3) 0.5623(3)
H13_13 H 0.5956 0.8135 0.5891
C10_13 C 0.6403(2) 0.8806(2) 0.5167(2)
C11_19 C 0.6675(3) 0.9235(3) 0.5000(3)
H14_13 H 0.6877 0.9342 0.5259
H15_13 H 0.6882 0.9138 0.4741
C12_13 C 0.6396(5) 0.9636(3) 0.4839(4)
H16_13 H 0.6199 0.9756 0.5096
H17_13 H 0.6191 0.9542 0.4577
H19_13 H 0.6942 0.9909 0.4407
Cd1_14 Cd 0.840846(16) 0.090846(16) 0.1250
N1_14 N 0.87863(18) 0.11840(18) 0.18748(17)
N2_14 N 0.90240(17) 0.12757(18) 0.26204(18)
C1_14 C 0.9351(3) 0.1485(3) 0.2331(3)
H1_14 H 0.9627 0.1639 0.2430
C2_14 C 0.9206(3) 0.1431(3) 0.1877(3)
H2_14 H 0.9365 0.1544 0.1609
C3_14 C 0.8694(2) 0.1097(2) 0.2333(2)
C4_14 C 0.8265(3) 0.0825(3) 0.2500(3)
H3_14 H 0.8158 0.0623 0.2241
H4_14 H 0.8362 0.0618 0.2759
C5_14 C 0.7864(3) 0.1104(5) 0.2661(4)
H5_14 H 0.7744 0.1301 0.2404
H6_14 H 0.7958 0.1309 0.2923
C6_14 C 0.7472(6) 0.0744(6) 0.2827(6)
H7_14 H 0.7396 0.0527 0.2568
H8_14 H 0.7591 0.0558 0.3093
C7_14 C 0.7053(10) 0.0994(9) 0.2968(10)
H9_14 H 0.6814 0.0770 0.3067
H10_14 H 0.6934 0.1177 0.2704
H11_14 H 0.7127 0.1204 0.3227
N3_14 N 0.86840(18) 0.12863(18) 0.06252(17)
N5_14 N 0.84760(17) 0.01204(18) 0.12243(18)
N6_14 N 0.76204(18) 0.09760(17) 0.12757(18)
C8_14 C 0.8985(3) 0.1851(3) 0.0169(3)
H12_14 H 0.9139 0.2127 0.0070
C9_14 C 0.8931(3) 0.1706(3) 0.0623(3)
H13_14 H 0.9044 0.1865 0.0891
C10_14 C 0.8597(2) 0.1194(2) 0.0167(2)
C11_20 C 0.8325(3) 0.0765(3) 0.0000(3)
H14_14 H 0.8123 0.0658 0.0259
H16_14 H 0.8801 0.0244 0.0096
N4_14 N 0.87757(18) 0.15240(17) 0.98796(18)
C11_21 C 0.8325(3) 0.0765(3) 1.0000(3)
H15_14 H 0.8118 0.0862 0.9741
C12_14 C 0.8604(5) 0.0364(3) 0.9839(4)
H17_14 H 0.8809 0.0458 0.9577
H19_14 H 0.8058 0.0091 0.9407
N4_15 N 0.37757(18) 0.34760(17) 0.01204(18)
C11_22 C 0.3325(3) 0.4235(3) 0.0000(3)
H15_15 H 0.3118 0.4138 0.0259
C12_15 C 0.3604(5) 0.4636(3) 0.0161(4)
H17_15 H 0.3809 0.4542 0.0423
C13_7 C 0.3244(6) 0.5028(6) 0.0327(6)
H18_7 H 0.3027 0.5104 0.0068
H19_15 H 0.3058 0.4909 0.0593
C14_7 C 0.3494(9) 0.5447(10) 0.0468(10)
H20_7 H 0.3270 0.5686 0.0567
H21_7 H 0.3677 0.5566 0.0204
H22_7 H 0.3704 0.5373 0.0727
Cd1_15 Cd 0.340846(16) 0.409154(16) 0.8750
N1_15 N 0.37863(18) 0.38160(18) 0.81252(17)
N2_15 N 0.40240(17) 0.37243(18) 0.73796(18)
C1_15 C 0.4351(3) 0.3515(3) 0.7669(3)
H1_15 H 0.4627 0.3361 0.7570
C2_15 C 0.4206(3) 0.3569(3) 0.8123(3)
H2_15 H 0.4365 0.3456 0.8391
C3_15 C 0.3694(2) 0.3903(2) 0.7667(2)
C4_15 C 0.3265(3) 0.4175(3) 0.7500(3)
H3_15 H 0.3158 0.4377 0.7759
H4_15 H 0.3362 0.4382 0.7241
C5_15 C 0.2864(3) 0.3896(5) 0.7339(4)
H5_15 H 0.2744 0.3699 0.7596
H6_15 H 0.2958 0.3691 0.7077
C6_15 C 0.2472(6) 0.4256(6) 0.7173(6)
H7_15 H 0.2396 0.4473 0.7432
H8_15 H 0.2591 0.4442 0.6907
C7_15 C 0.2053(10) 0.4006(9) 0.7032(10)
H9_15 H 0.1814 0.4230 0.6933
H10_15 H 0.1934 0.3823 0.7296
H11_15 H 0.2127 0.3796 0.6773
N3_15 N 0.36840(18) 0.37137(18) 0.93748(17)
N5_15 N 0.34760(17) 0.48796(18) 0.87757(18)
N6_15 N 0.26204(18) 0.40240(17) 0.87243(18)
C8_15 C 0.3985(3) 0.3149(3) 0.9831(3)
H12_15 H 0.4139 0.2873 0.9930
C9_15 C 0.3931(3) 0.3294(3) 0.9377(3)
H13_15 H 0.4044 0.3135 0.9109
C10_15 C 0.3597(2) 0.3806(2) 0.9833(2)
C11_23 C 0.3325(3) 0.4235(3) 1.0000(3)
H14_15 H 0.3123 0.4342 0.9741
H16_15 H 0.3801 0.4756 0.9904
Cd1_16 Cd 0.159154(16) 0.590846(16) 0.3750
N1_16 N 0.12137(18) 0.61840(18) 0.31252(17)
N2_16 N 0.09760(17) 0.62757(18) 0.23796(18)
C1_16 C 0.0649(3) 0.6485(3) 0.2669(3)
H1_16 H 0.0373 0.6639 0.2570
C2_16 C 0.0794(3) 0.6431(3) 0.3123(3)
H2_16 H 0.0635 0.6544 0.3391
C3_16 C 0.1306(2) 0.6097(2) 0.2667(2)
C4_16 C 0.1735(3) 0.5825(3) 0.2500(3)
H3_16 H 0.1842 0.5623 0.2759
H4_16 H 0.1638 0.5618 0.2241
C5_16 C 0.2136(3) 0.6104(5) 0.2339(4)
H5_16 H 0.2256 0.6301 0.2596
H6_16 H 0.2042 0.6309 0.2077
C6_16 C 0.2528(6) 0.5744(6) 0.2173(6)
H7_16 H 0.2604 0.5527 0.2432
H8_16 H 0.2409 0.5558 0.1907
C7_16 C 0.2947(10) 0.5994(9) 0.2032(10)
H9_16 H 0.3186 0.5770 0.1933
H10_16 H 0.3066 0.6177 0.2296
H11_16 H 0.2873 0.6204 0.1773
N3_16 N 0.13160(18) 0.62863(18) 0.43748(17)
N4_16 N 0.12243(18) 0.65240(17) 0.51204(18)
N5_16 N 0.15240(17) 0.51204(18) 0.37757(18)
N6_16 N 0.23796(18) 0.59760(17) 0.37243(18)
C8_16 C 0.1015(3) 0.6851(3) 0.4831(3)
H12_16 H 0.0861 0.7127 0.4930
C9_16 C 0.1069(3) 0.6706(3) 0.4377(3)
H13_16 H 0.0956 0.6865 0.4109
C10_16 C 0.1403(2) 0.6194(2) 0.4833(2)
C11_24 C 0.1675(3) 0.5765(3) 0.5000(3)
H14_16 H 0.1877 0.5658 0.4741
H15_16 H 0.1882 0.5862 0.5259
C12_16 C 0.1396(5) 0.5364(3) 0.5161(4)
H16_16 H 0.1199 0.5244 0.4904
H17_16 H 0.1191 0.5458 0.5423
C13_8 C 0.1756(6) 0.4972(6) 0.5327(6)
H18_8 H 0.1973 0.4896 0.5068
H19_16 H 0.1942 0.5091 0.5593
C14_8 C 0.1506(9) 0.4553(10) 0.5468(10)
H20_8 H 0.1730 0.4314 0.5567
H21_8 H 0.1323 0.4434 0.5204
H22_8 H 0.1296 0.4627 0.5727
Cd1_17 Cd 0.6250 0.659154(16) 0.909154(16)
N1_17 N 0.68748(17) 0.62137(18) 0.88160(18)
N2_17 N 0.76204(18) 0.59760(17) 0.87243(18)
C1_17 C 0.7331(3) 0.5649(3) 0.8515(3)
H1_17 H 0.7430 0.5373 0.8361
C2_17 C 0.6877(3) 0.5794(3) 0.8569(3)
H2_17 H 0.6609 0.5635 0.8456
C3_17 C 0.7333(2) 0.6306(2) 0.8903(2)
C4_17 C 0.7500(3) 0.6735(3) 0.9175(3)
H3_17 H 0.7241 0.6842 0.9377
H4_17 H 0.7759 0.6638 0.9382
C5_17 C 0.7661(4) 0.7136(3) 0.8896(5)
H5_17 H 0.7404 0.7256 0.8699
H6_17 H 0.7923 0.7042 0.8691
C6_17 C 0.7827(6) 0.7528(6) 0.9256(6)
H7_17 H 0.7568 0.7604 0.9473
H8_17 H 0.8093 0.7409 0.9442
C7_17 C 0.7968(10) 0.7947(10) 0.9006(9)
H9_17 H 0.8067 0.8186 0.9230
H10_17 H 0.7704 0.8066 0.8823
H11_17 H 0.8227 0.7873 0.8796
N3_17 N 0.56252(17) 0.63160(18) 0.87137(18)
N4_17 N 0.48796(18) 0.62243(18) 0.84760(17)
N5_17 N 0.62243(18) 0.65240(17) 0.98796(18)
N6_17 N 0.62757(18) 0.73796(18) 0.90240(17)
C8_17 C 0.5169(3) 0.6015(3) 0.8149(3)
H12_17 H 0.5070 0.5861 0.7873
C9_17 C 0.5623(3) 0.6069(3) 0.8294(3)
H13_17 H 0.5891 0.5956 0.8135
C10_17 C 0.5167(2) 0.6403(2) 0.8806(2)
C11_25 C 0.5000(3) 0.6675(3) 0.9235(3)
H14_17 H 0.5259 0.6877 0.9342
H15_17 H 0.4741 0.6882 0.9138
C12_17 C 0.4839(4) 0.6396(5) 0.9636(3)
H16_17 H 0.5096 0.6199 0.9756
H17_17 H 0.4577 0.6191 0.9542
H19_17 H 0.4407 0.6942 0.9909
Cd1_18 Cd 0.1250 0.840846(16) 0.090846(16)
N1_18 N 0.18748(17) 0.87863(18) 0.11840(18)
N2_18 N 0.26204(18) 0.90240(17) 0.12757(18)
C1_18 C 0.2331(3) 0.9351(3) 0.1485(3)
H1_18 H 0.2430 0.9627 0.1639
C2_18 C 0.1877(3) 0.9206(3) 0.1431(3)
H2_18 H 0.1609 0.9365 0.1544
C3_18 C 0.2333(2) 0.8694(2) 0.1097(2)
C4_18 C 0.2500(3) 0.8265(3) 0.0825(3)
H3_18 H 0.2241 0.8158 0.0623
H4_18 H 0.2759 0.8362 0.0618
C5_18 C 0.2661(4) 0.7864(3) 0.1104(5)
H5_18 H 0.2404 0.7744 0.1301
H6_18 H 0.2923 0.7958 0.1309
C6_18 C 0.2827(6) 0.7472(6) 0.0744(6)
H7_18 H 0.2568 0.7396 0.0527
H8_18 H 0.3093 0.7591 0.0558
C7_18 C 0.2968(10) 0.7053(10) 0.0994(9)
H9_18 H 0.3067 0.6814 0.0770
H10_18 H 0.2704 0.6934 0.1177
H11_18 H 0.3227 0.7127 0.1204
N3_18 N 0.06252(17) 0.86840(18) 0.12863(18)
N5_18 N 0.12243(18) 0.84760(17) 0.01204(18)
N6_18 N 0.12757(18) 0.76204(18) 0.09760(17)
C8_18 C 0.0169(3) 0.8985(3) 0.1851(3)
H12_18 H 0.0070 0.9139 0.2127
C9_18 C 0.0623(3) 0.8931(3) 0.1706(3)
H13_18 H 0.0891 0.9044 0.1865
C10_18 C 0.0167(2) 0.8597(2) 0.1194(2)
C11_26 C -0.0000(3) 0.8325(3) 0.0765(3)
H14_18 H 0.0259 0.8123 0.0658
H16_18 H 0.0096 0.8801 0.0244
N4_18 N 0.98796(18) 0.87757(18) 0.15240(17)
C11_27 C 1.0000(3) 0.8325(3) 0.0765(3)
H15_18 H 0.9741 0.8118 0.0862
C12_18 C 0.9839(4) 0.8604(5) 0.0364(3)
H17_18 H 0.9577 0.8809 0.0458
H19_18 H 0.9407 0.8058 0.0091
N4_19 N 0.01204(18) 0.37757(18) 0.34760(17)
C11_28 C 0.0000(3) 0.3325(3) 0.4235(3)
H15_19 H 0.0259 0.3118 0.4138
C12_19 C 0.0161(4) 0.3604(5) 0.4636(3)
H17_19 H 0.0423 0.3809 0.4542
C13_9 C 0.0327(6) 0.3244(6) 0.5028(6)
H18_9 H 0.0068 0.3027 0.5104
H19_19 H 0.0593 0.3058 0.4909
C14_9 C 0.0468(10) 0.3494(9) 0.5447(10)
H20_9 H 0.0567 0.3270 0.5686
H21_9 H 0.0204 0.3677 0.5566
H22_9 H 0.0727 0.3704 0.5373
Cd1_19 Cd 0.8750 0.340846(16) 0.409154(16)
N1_19 N 0.81252(17) 0.37863(18) 0.38160(18)
N2_19 N 0.73796(18) 0.40240(17) 0.37243(18)
C1_19 C 0.7669(3) 0.4351(3) 0.3515(3)
H1_19 H 0.7570 0.4627 0.3361
C2_19 C 0.8123(3) 0.4206(3) 0.3569(3)
H2_19 H 0.8391 0.4365 0.3456
C3_19 C 0.7667(2) 0.3694(2) 0.3903(2)
C4_19 C 0.7500(3) 0.3265(3) 0.4175(3)
H3_19 H 0.7759 0.3158 0.4377
H4_19 H 0.7241 0.3362 0.4382
C5_19 C 0.7339(4) 0.2864(3) 0.3896(5)
H5_19 H 0.7596 0.2744 0.3699
H6_19 H 0.7077 0.2958 0.3691
C6_19 C 0.7173(6) 0.2472(6) 0.4256(6)
H7_19 H 0.7432 0.2396 0.4473
H8_19 H 0.6907 0.2591 0.4442
C7_19 C 0.7032(10) 0.2053(10) 0.4006(9)
H9_19 H 0.6933 0.1814 0.4230
H10_19 H 0.7296 0.1934 0.3823
H11_19 H 0.6773 0.2127 0.3796
N3_19 N 0.93748(17) 0.36840(18) 0.37137(18)
N5_19 N 0.87757(18) 0.34760(17) 0.48796(18)
N6_19 N 0.87243(18) 0.26204(18) 0.40240(17)
C8_19 C 0.9831(3) 0.3985(3) 0.3149(3)
H12_19 H 0.9930 0.4139 0.2873
C9_19 C 0.9377(3) 0.3931(3) 0.3294(3)
H13_19 H 0.9109 0.4044 0.3135
C10_19 C 0.9833(2) 0.3597(2) 0.3806(2)
C11_29 C 1.0000(3) 0.3325(3) 0.4235(3)
H14_19 H 0.9741 0.3123 0.4342
H16_19 H 0.9904 0.3801 0.4756
Cd1_20 Cd 0.3750 0.159154(16) 0.590846(16)
N1_20 N 0.31252(17) 0.12137(18) 0.61840(18)
N2_20 N 0.23796(18) 0.09760(17) 0.62757(18)
C1_20 C 0.2669(3) 0.0649(3) 0.6485(3)
H1_20 H 0.2570 0.0373 0.6639
C2_20 C 0.3123(3) 0.0794(3) 0.6431(3)
H2_20 H 0.3391 0.0635 0.6544
C3_20 C 0.2667(2) 0.1306(2) 0.6097(2)
C4_20 C 0.2500(3) 0.1735(3) 0.5825(3)
H3_20 H 0.2759 0.1842 0.5623
H4_20 H 0.2241 0.1638 0.5618
C5_20 C 0.2339(4) 0.2136(3) 0.6104(5)
H5_20 H 0.2596 0.2256 0.6301
H6_20 H 0.2077 0.2042 0.6309
C6_20 C 0.2173(6) 0.2528(6) 0.5744(6)
H7_20 H 0.2432 0.2604 0.5527
H8_20 H 0.1907 0.2409 0.5558
C7_20 C 0.2032(10) 0.2947(10) 0.5994(9)
H9_20 H 0.1933 0.3186 0.5770
H10_20 H 0.2296 0.3066 0.6177
H11_20 H 0.1773 0.2873 0.6204
N3_20 N 0.43748(17) 0.13160(18) 0.62863(18)
N4_20 N 0.51204(18) 0.12243(18) 0.65240(17)
N5_20 N 0.37757(18) 0.15240(17) 0.51204(18)
N6_20 N 0.37243(18) 0.23796(18) 0.59760(17)
C8_20 C 0.4831(3) 0.1015(3) 0.6851(3)
H12_20 H 0.4930 0.0861 0.7127
C9_20 C 0.4377(3) 0.1069(3) 0.6706(3)
H13_20 H 0.4109 0.0956 0.6865
C10_20 C 0.4833(2) 0.1403(2) 0.6194(2)
C11_30 C 0.5000(3) 0.1675(3) 0.5765(3)
H14_20 H 0.4741 0.1877 0.5658
H15_20 H 0.5259 0.1882 0.5862
C12_20 C 0.5161(4) 0.1396(5) 0.5364(3)
H16_20 H 0.4904 0.1199 0.5244
H17_20 H 0.5423 0.1191 0.5458
C13_10 C 0.5327(6) 0.1756(6) 0.4972(6)
H18_10 H 0.5068 0.1973 0.4896
H19_20 H 0.5593 0.1942 0.5091
C14_10 C 0.5468(10) 0.1506(9) 0.4553(10)
H20_10 H 0.5567 0.1730 0.4314
H21_10 H 0.5204 0.1323 0.4434
H22_10 H 0.5727 0.1296 0.4627
Cd1_21 Cd 0.909154(16) 0.6250 0.659154(16)
N1_21 N 0.88160(18) 0.68748(17) 0.62137(18)
N2_21 N 0.87243(18) 0.76204(18) 0.59760(17)
C1_21 C 0.8515(3) 0.7331(3) 0.5649(3)
H1_21 H 0.8361 0.7430 0.5373
C2_21 C 0.8569(3) 0.6877(3) 0.5794(3)
H2_21 H 0.8456 0.6609 0.5635
C3_21 C 0.8903(2) 0.7333(2) 0.6306(2)
C4_21 C 0.9175(3) 0.7500(3) 0.6735(3)
H3_21 H 0.9377 0.7241 0.6842
H4_21 H 0.9382 0.7759 0.6638
C5_21 C 0.8896(5) 0.7661(4) 0.7136(3)
H5_21 H 0.8699 0.7404 0.7256
H6_21 H 0.8691 0.7923 0.7042
C6_21 C 0.9256(6) 0.7827(6) 0.7528(6)
H7_21 H 0.9473 0.7568 0.7604
H8_21 H 0.9442 0.8093 0.7409
C7_21 C 0.9006(9) 0.7968(10) 0.7947(10)
H9_21 H 0.9230 0.8067 0.8186
H10_21 H 0.8823 0.7704 0.8066
H11_21 H 0.8796 0.8227 0.7873
N3_21 N 0.87137(18) 0.56252(17) 0.63160(18)
N4_21 N 0.84760(17) 0.48796(18) 0.62243(18)
N5_21 N 0.98796(18) 0.62243(18) 0.65240(17)
N6_21 N 0.90240(17) 0.62757(18) 0.73796(18)
C8_21 C 0.8149(3) 0.5169(3) 0.6015(3)
H12_21 H 0.7873 0.5070 0.5861
C9_21 C 0.8294(3) 0.5623(3) 0.6069(3)
H13_21 H 0.8135 0.5891 0.5956
C10_21 C 0.8806(2) 0.5167(2) 0.6403(2)
C11_31 C 0.9235(3) 0.5000(3) 0.6675(3)
H14_21 H 0.9342 0.5259 0.6877
H15_21 H 0.9138 0.4741 0.6882
C12_21 C 0.9636(3) 0.4839(4) 0.6396(5)
H16_21 H 0.9756 0.5096 0.6199
H17_21 H 0.9542 0.4577 0.6191
H19_21 H 0.9909 0.4407 0.6942
Cd1_22 Cd 0.090846(16) 0.1250 0.840846(16)
N1_22 N 0.11840(18) 0.18748(17) 0.87863(18)
N2_22 N 0.12757(18) 0.26204(18) 0.90240(17)
C1_22 C 0.1485(3) 0.2331(3) 0.9351(3)
H1_22 H 0.1639 0.2430 0.9627
C2_22 C 0.1431(3) 0.1877(3) 0.9206(3)
H2_22 H 0.1544 0.1609 0.9365
C3_22 C 0.1097(2) 0.2333(2) 0.8694(2)
C4_22 C 0.0825(3) 0.2500(3) 0.8265(3)
H3_22 H 0.0623 0.2241 0.8158
H4_22 H 0.0618 0.2759 0.8362
C5_22 C 0.1104(5) 0.2661(4) 0.7864(3)
H5_22 H 0.1301 0.2404 0.7744
H6_22 H 0.1309 0.2923 0.7958
C6_22 C 0.0744(6) 0.2827(6) 0.7472(6)
H7_22 H 0.0527 0.2568 0.7396
H8_22 H 0.0558 0.3093 0.7591
C7_22 C 0.0994(9) 0.2968(10) 0.7053(10)
H9_22 H 0.0770 0.3067 0.6814
H10_22 H 0.1177 0.2704 0.6934
H11_22 H 0.1204 0.3227 0.7127
N3_22 N 0.12863(18) 0.06252(17) 0.86840(18)
N5_22 N 0.01204(18) 0.12243(18) 0.84760(17)
N6_22 N 0.09760(17) 0.12757(18) 0.76204(18)
C8_22 C 0.1851(3) 0.0169(3) 0.8985(3)
H12_22 H 0.2127 0.0070 0.9139
C9_22 C 0.1706(3) 0.0623(3) 0.8931(3)
H13_22 H 0.1865 0.0891 0.9044
C10_22 C 0.1194(2) 0.0167(2) 0.8597(2)
C11_32 C 0.0765(3) -0.0000(3) 0.8325(3)
H14_22 H 0.0658 0.0259 0.8123
H16_22 H 0.0244 0.0096 0.8801
N4_22 N 0.15240(17) 0.98796(18) 0.87757(18)
C11_33 C 0.0765(3) 1.0000(3) 0.8325(3)
H15_22 H 0.0862 0.9741 0.8118
C12_22 C 0.0364(3) 0.9839(4) 0.8604(5)
H17_22 H 0.0458 0.9577 0.8809
H19_22 H 0.0091 0.9407 0.8058
N4_23 N 0.34760(17) 0.01204(18) 0.37757(18)
C11_34 C 0.4235(3) -0.0000(3) 0.3325(3)
H15_23 H 0.4138 0.0259 0.3118
C12_23 C 0.4636(3) 0.0161(4) 0.3604(5)
H17_23 H 0.4542 0.0423 0.3809
C13_11 C 0.5028(6) 0.0327(6) 0.3244(6)
H18_11 H 0.5104 0.0068 0.3027
H19_23 H 0.4909 0.0593 0.3058
C14_11 C 0.5447(10) 0.0468(10) 0.3494(9)
H20_11 H 0.5686 0.0567 0.3270
H21_11 H 0.5566 0.0204 0.3677
H22_11 H 0.5373 0.0727 0.3704
Cd1_23 Cd 0.409154(16) 0.8750 0.340846(16)
N1_23 N 0.38160(18) 0.81252(17) 0.37863(18)
N2_23 N 0.37243(18) 0.73796(18) 0.40240(17)
C1_23 C 0.3515(3) 0.7669(3) 0.4351(3)
H1_23 H 0.3361 0.7570 0.4627
C2_23 C 0.3569(3) 0.8123(3) 0.4206(3)
H2_23 H 0.3456 0.8391 0.4365
C3_23 C 0.3903(2) 0.7667(2) 0.3694(2)
C4_23 C 0.4175(3) 0.7500(3) 0.3265(3)
H3_23 H 0.4377 0.7759 0.3158
H4_23 H 0.4382 0.7241 0.3362
C5_23 C 0.3896(5) 0.7339(4) 0.2864(3)
H5_23 H 0.3699 0.7596 0.2744
H6_23 H 0.3691 0.7077 0.2958
C6_23 C 0.4256(6) 0.7173(6) 0.2472(6)
H7_23 H 0.4473 0.7432 0.2396
H8_23 H 0.4442 0.6907 0.2591
C7_23 C 0.4006(9) 0.7032(10) 0.2053(10)
H9_23 H 0.4230 0.6933 0.1814
H10_23 H 0.3823 0.7296 0.1934
H11_23 H 0.3796 0.6773 0.2127
N3_23 N 0.37137(18) 0.93748(17) 0.36840(18)
N5_23 N 0.48796(18) 0.87757(18) 0.34760(17)
N6_23 N 0.40240(17) 0.87243(18) 0.26204(18)
C8_23 C 0.3149(3) 0.9831(3) 0.3985(3)
H12_23 H 0.2873 0.9930 0.4139
C9_23 C 0.3294(3) 0.9377(3) 0.3931(3)
H13_23 H 0.3135 0.9109 0.4044
C10_23 C 0.3806(2) 0.9833(2) 0.3597(2)
C11_35 C 0.4235(3) 1.0000(3) 0.3325(3)
H14_23 H 0.4342 0.9741 0.3123
H16_23 H 0.4756 0.9904 0.3801
Cd1_24 Cd 0.590846(16) 0.3750 0.159154(16)
N1_24 N 0.61840(18) 0.31252(17) 0.12137(18)
N2_24 N 0.62757(18) 0.23796(18) 0.09760(17)
C1_24 C 0.6485(3) 0.2669(3) 0.0649(3)
H1_24 H 0.6639 0.2570 0.0373
C2_24 C 0.6431(3) 0.3123(3) 0.0794(3)
H2_24 H 0.6544 0.3391 0.0635
C3_24 C 0.6097(2) 0.2667(2) 0.1306(2)
C4_24 C 0.5825(3) 0.2500(3) 0.1735(3)
H3_24 H 0.5623 0.2759 0.1842
H4_24 H 0.5618 0.2241 0.1638
C5_24 C 0.6104(5) 0.2339(4) 0.2136(3)
H5_24 H 0.6301 0.2596 0.2256
H6_24 H 0.6309 0.2077 0.2042
C6_24 C 0.5744(6) 0.2173(6) 0.2528(6)
H7_24 H 0.5527 0.2432 0.2604
H8_24 H 0.5558 0.1907 0.2409
C7_24 C 0.5994(9) 0.2032(10) 0.2947(10)
H9_24 H 0.5770 0.1933 0.3186
H10_24 H 0.6177 0.2296 0.3066
H11_24 H 0.6204 0.1773 0.2873
N3_24 N 0.62863(18) 0.43748(17) 0.13160(18)
N4_24 N 0.65240(17) 0.51204(18) 0.12243(18)
N5_24 N 0.51204(18) 0.37757(18) 0.15240(17)
N6_24 N 0.59760(17) 0.37243(18) 0.23796(18)
C8_24 C 0.6851(3) 0.4831(3) 0.1015(3)
H12_24 H 0.7127 0.4930 0.0861
C9_24 C 0.6706(3) 0.4377(3) 0.1069(3)
H13_24 H 0.6865 0.4109 0.0956
C10_24 C 0.6194(2) 0.4833(2) 0.1403(2)
C11_36 C 0.5765(3) 0.5000(3) 0.1675(3)
H14_24 H 0.5658 0.4741 0.1877
H15_24 H 0.5862 0.5259 0.1882
C12_24 C 0.5364(3) 0.5161(4) 0.1396(5)
H16_24 H 0.5244 0.4904 0.1199
H17_24 H 0.5458 0.5423 0.1191
C13_12 C 0.4972(6) 0.5327(6) 0.1756(6)
H18_12 H 0.4896 0.5068 0.1973
H19_24 H 0.5091 0.5593 0.1942
C14_12 C 0.4553(10) 0.5468(10) 0.1506(9)
H20_12 H 0.4314 0.5567 0.1730
H21_12 H 0.4434 0.5204 0.1323
H22_12 H 0.4627 0.5727 0.1296
C11_37 C 0.8325(3) 0.5765(3) 0.0000(3)
H15_25 H 0.8118 0.5862 0.0259
C12_25 C 0.8604(5) 0.5364(3) 0.0161(4)
H17_25 H 0.8809 0.5458 0.0423
C13_13 C 0.8244(6) 0.4972(6) 0.0327(6)
H18_13 H 0.8027 0.4896 0.0068
H19_25 H 0.8058 0.5091 0.0593
C14_13 C 0.8494(9) 0.4553(10) 0.0468(10)
H20_13 H 0.8270 0.4314 0.0567
H21_13 H 0.8677 0.4434 0.0204
H22_13 H 0.8704 0.4627 0.0727
N1_25 N 0.87863(18) 0.61840(18) 0.81252(17)
C1_25 C 0.9351(3) 0.6485(3) 0.7669(3)
H1_25 H 0.9627 0.6639 0.7570
C2_25 C 0.9206(3) 0.6431(3) 0.8123(3)
H2_25 H 0.9365 0.6544 0.8391
C3_25 C 0.8694(2) 0.6097(2) 0.7667(2)
C4_25 C 0.8265(3) 0.5825(3) 0.7500(3)
H3_25 H 0.8158 0.5623 0.7759
H4_25 H 0.8362 0.5618 0.7241
C5_25 C 0.7864(3) 0.6104(5) 0.7339(4)
H5_25 H 0.7744 0.6301 0.7596
H6_25 H 0.7958 0.6309 0.7077
C6_25 C 0.7472(6) 0.5744(6) 0.7173(6)
H7_25 H 0.7396 0.5527 0.7432
H8_25 H 0.7591 0.5558 0.6907
C7_25 C 0.7053(10) 0.5994(9) 0.7032(10)
H9_25 H 0.6814 0.5770 0.6933
H10_25 H 0.6934 0.6177 0.7296
H11_25 H 0.7127 0.6204 0.6773
N3_25 N 0.86840(18) 0.62863(18) 0.93748(17)
C8_25 C 0.8985(3) 0.6851(3) 0.9831(3)
H12_25 H 0.9139 0.7127 0.9930
C9_25 C 0.8931(3) 0.6706(3) 0.9377(3)
H13_25 H 0.9044 0.6865 0.9109
C10_25 C 0.8597(2) 0.6194(2) 0.9833(2)
C11_38 C 0.8325(3) 0.5765(3) 1.0000(3)
H14_25 H 0.8123 0.5658 0.9741
H16_25 H 0.8801 0.5244 0.9904
N1_26 N 0.62137(18) 0.38160(18) 0.31252(17)
C1_26 C 0.5649(3) 0.3515(3) 0.2669(3)
H1_26 H 0.5373 0.3361 0.2570
C2_26 C 0.5794(3) 0.3569(3) 0.3123(3)
H2_26 H 0.5635 0.3456 0.3391
C3_26 C 0.6306(2) 0.3903(2) 0.2667(2)
C4_26 C 0.6735(3) 0.4175(3) 0.2500(3)
H3_26 H 0.6842 0.4377 0.2759
H4_26 H 0.6638 0.4382 0.2241
C5_26 C 0.7136(3) 0.3896(5) 0.2339(4)
H5_26 H 0.7256 0.3699 0.2596
H6_26 H 0.7042 0.3691 0.2077
C6_26 C 0.7528(6) 0.4256(6) 0.2173(6)
H7_26 H 0.7604 0.4473 0.2432
H8_26 H 0.7409 0.4442 0.1907
C7_26 C 0.7947(10) 0.4006(9) 0.2032(10)
H9_26 H 0.8186 0.4230 0.1933
H10_26 H 0.8066 0.3823 0.2296
H11_26 H 0.7873 0.3796 0.1773
N3_26 N 0.63160(18) 0.37137(18) 0.43748(17)
C8_26 C 0.6015(3) 0.3149(3) 0.4831(3)
H12_26 H 0.5861 0.2873 0.4930
C9_26 C 0.6069(3) 0.3294(3) 0.4377(3)
H13_26 H 0.5956 0.3135 0.4109
C10_26 C 0.6403(2) 0.3806(2) 0.4833(2)
C11_39 C 0.6675(3) 0.4235(3) 0.5000(3)
H14_26 H 0.6877 0.4342 0.4741
H15_26 H 0.6882 0.4138 0.5259
C12_26 C 0.6396(5) 0.4636(3) 0.5161(4)
H16_26 H 0.6199 0.4756 0.4904
H17_26 H 0.6191 0.4542 0.5423
C13_14 C 0.6756(6) 0.5028(6) 0.5327(6)
H18_14 H 0.6973 0.5104 0.5068
H19_26 H 0.6942 0.4909 0.5593
C14_14 C 0.6506(9) 0.5447(10) 0.5468(10)
H20_14 H 0.6730 0.5686 0.5567
H21_14 H 0.6323 0.5566 0.5204
H22_14 H 0.6296 0.5373 0.5727
N1_27 N 0.12137(18) 0.11840(18) 0.68748(17)
C1_27 C 0.0649(3) 0.1485(3) 0.7331(3)
H1_27 H 0.0373 0.1639 0.7430
C2_27 C 0.0794(3) 0.1431(3) 0.6877(3)
H2_27 H 0.0635 0.1544 0.6609
C3_27 C 0.1306(2) 0.1097(2) 0.7333(2)
C4_27 C 0.1735(3) 0.0825(3) 0.7500(3)
H3_27 H 0.1842 0.0623 0.7241
H4_27 H 0.1638 0.0618 0.7759
C5_27 C 0.2136(3) 0.1104(5) 0.7661(4)
H5_27 H 0.2256 0.1301 0.7404
H6_27 H 0.2042 0.1309 0.7923
C6_27 C 0.2528(6) 0.0744(6) 0.7827(6)
H7_27 H 0.2604 0.0527 0.7568
H8_27 H 0.2409 0.0558 0.8093
C7_27 C 0.2947(10) 0.0994(9) 0.7968(10)
H9_27 H 0.3186 0.0770 0.8067
H10_27 H 0.3066 0.1177 0.7704
H11_27 H 0.2873 0.1204 0.8227
N3_27 N 0.13160(18) 0.12863(18) 0.56252(17)
C8_27 C 0.1015(3) 0.1851(3) 0.5169(3)
H12_27 H 0.0861 0.2127 0.5070
C9_27 C 0.1069(3) 0.1706(3) 0.5623(3)
H13_27 H 0.0956 0.1865 0.5891
C10_27 C 0.1403(2) 0.1194(2) 0.5167(2)
C11_40 C 0.1675(3) 0.0765(3) 0.5000(3)
H14_27 H 0.1877 0.0658 0.5259
H15_27 H 0.1882 0.0862 0.4741
C12_27 C 0.1396(5) 0.0364(3) 0.4839(4)
H16_27 H 0.1199 0.0244 0.5096
H17_27 H 0.1191 0.0458 0.4577
H19_27 H 0.1942 0.0091 0.4407
N1_28 N 0.37863(18) 0.88160(18) 0.18748(17)
C1_28 C 0.4351(3) 0.8515(3) 0.2331(3)
H1_28 H 0.4627 0.8361 0.2430
C2_28 C 0.4206(3) 0.8569(3) 0.1877(3)
H2_28 H 0.4365 0.8456 0.1609
C3_28 C 0.3694(2) 0.8903(2) 0.2333(2)
C4_28 C 0.3265(3) 0.9175(3) 0.2500(3)
H3_28 H 0.3158 0.9377 0.2241
H4_28 H 0.3362 0.9382 0.2759
C5_28 C 0.2864(3) 0.8896(5) 0.2661(4)
H5_28 H 0.2744 0.8699 0.2404
H6_28 H 0.2958 0.8691 0.2923
C6_28 C 0.2472(6) 0.9256(6) 0.2827(6)
H7_28 H 0.2396 0.9473 0.2568
H8_28 H 0.2591 0.9442 0.3093
C7_28 C 0.2053(10) 0.9006(9) 0.2968(10)
H9_28 H 0.1814 0.9230 0.3067
H10_28 H 0.1934 0.8823 0.2704
H11_28 H 0.2127 0.8796 0.3227
N3_28 N 0.36840(18) 0.87137(18) 0.06252(17)
C8_28 C 0.3985(3) 0.8149(3) 0.0169(3)
H12_28 H 0.4139 0.7873 0.0070
C9_28 C 0.3931(3) 0.8294(3) 0.0623(3)
H13_28 H 0.4044 0.8135 0.0891
C10_28 C 0.3597(2) 0.8806(2) 0.0167(2)
C11_41 C 0.3325(3) 0.9235(3) 0.0000(3)
H14_28 H 0.3123 0.9342 0.0259
H16_28 H 0.3801 0.9756 0.0096
C11_42 C 0.3325(3) 0.9235(3) 1.0000(3)
H15_28 H 0.3118 0.9138 0.9741
C12_28 C 0.3604(5) 0.9636(3) 0.9839(4)
H17_28 H 0.3809 0.9542 0.9577
H19_28 H 0.3058 0.9909 0.9407
C11_43 C -0.0000(3) 0.8325(3) 0.5765(3)
H15_29 H 0.0259 0.8118 0.5862
C12_29 C 0.0161(4) 0.8604(5) 0.5364(3)
H17_29 H 0.0423 0.8809 0.5458
C13_15 C 0.0327(6) 0.8244(6) 0.4972(6)
H18_15 H 0.0068 0.8027 0.4896
H19_29 H 0.0593 0.8058 0.5091
C14_15 C 0.0468(10) 0.8494(9) 0.4553(10)
H20_15 H 0.0567 0.8270 0.4314
H21_15 H 0.0204 0.8677 0.4434
H22_15 H 0.0727 0.8704 0.4627
N1_29 N 0.81252(17) 0.87863(18) 0.61840(18)
C1_29 C 0.7669(3) 0.9351(3) 0.6485(3)
H1_29 H 0.7570 0.9627 0.6639
C2_29 C 0.8123(3) 0.9206(3) 0.6431(3)
H2_29 H 0.8391 0.9365 0.6544
C3_29 C 0.7667(2) 0.8694(2) 0.6097(2)
C4_29 C 0.7500(3) 0.8265(3) 0.5825(3)
H3_29 H 0.7759 0.8158 0.5623
H4_29 H 0.7241 0.8362 0.5618
C5_29 C 0.7339(4) 0.7864(3) 0.6104(5)
H5_29 H 0.7596 0.7744 0.6301
H6_29 H 0.7077 0.7958 0.6309
C6_29 C 0.7173(6) 0.7472(6) 0.5744(6)
H7_29 H 0.7432 0.7396 0.5527
H8_29 H 0.6907 0.7591 0.5558
C7_29 C 0.7032(10) 0.7053(10) 0.5994(9)
H9_29 H 0.6933 0.6814 0.5770
H10_29 H 0.7296 0.6934 0.6177
H11_29 H 0.6773 0.7127 0.6204
N3_29 N 0.93748(17) 0.86840(18) 0.62863(18)
C8_29 C 0.9831(3) 0.8985(3) 0.6851(3)
H12_29 H 0.9930 0.9139 0.7127
C9_29 C 0.9377(3) 0.8931(3) 0.6706(3)
H13_29 H 0.9109 0.9044 0.6865
C10_29 C 0.9833(2) 0.8597(2) 0.6194(2)
C11_44 C 1.0000(3) 0.8325(3) 0.5765(3)
H14_29 H 0.9741 0.8123 0.5658
H16_29 H 0.9904 0.8801 0.5244
N1_30 N 0.31252(17) 0.62137(18) 0.38160(18)
C1_30 C 0.2669(3) 0.5649(3) 0.3515(3)
H1_30 H 0.2570 0.5373 0.3361
C2_30 C 0.3123(3) 0.5794(3) 0.3569(3)
H2_30 H 0.3391 0.5635 0.3456
C3_30 C 0.2667(2) 0.6306(2) 0.3903(2)
C4_30 C 0.2500(3) 0.6735(3) 0.4175(3)
H3_30 H 0.2759 0.6842 0.4377
H4_30 H 0.2241 0.6638 0.4382
C5_30 C 0.2339(4) 0.7136(3) 0.3896(5)
H5_30 H 0.2596 0.7256 0.3699
H6_30 H 0.2077 0.7042 0.3691
C6_30 C 0.2173(6) 0.7528(6) 0.4256(6)
H7_30 H 0.2432 0.7604 0.4473
H8_30 H 0.1907 0.7409 0.4442
C7_30 C 0.2032(10) 0.7947(10) 0.4006(9)
H9_30 H 0.1933 0.8186 0.4230
H10_30 H 0.2296 0.8066 0.3823
H11_30 H 0.1773 0.7873 0.3796
N3_30 N 0.43748(17) 0.63160(18) 0.37137(18)
C8_30 C 0.4831(3) 0.6015(3) 0.3149(3)
H12_30 H 0.4930 0.5861 0.2873
C9_30 C 0.4377(3) 0.6069(3) 0.3294(3)
H13_30 H 0.4109 0.5956 0.3135
C10_30 C 0.4833(2) 0.6403(2) 0.3806(2)
C11_45 C 0.5000(3) 0.6675(3) 0.4235(3)
H14_30 H 0.4741 0.6877 0.4342
H15_30 H 0.5259 0.6882 0.4138
C12_30 C 0.5161(4) 0.6396(5) 0.4636(3)
H16_30 H 0.4904 0.6199 0.4756
H17_30 H 0.5423 0.6191 0.4542
C13_16 C 0.5327(6) 0.6756(6) 0.5028(6)
H18_16 H 0.5068 0.6973 0.5104
H19_30 H 0.5593 0.6942 0.4909
C14_16 C 0.5468(10) 0.6506(9) 0.5447(10)
H20_16 H 0.5567 0.6730 0.5686
H21_16 H 0.5204 0.6323 0.5566
H22_16 H 0.5727 0.6296 0.5373
N1_31 N 0.68748(17) 0.12137(18) 0.11840(18)
C1_31 C 0.7331(3) 0.0649(3) 0.1485(3)
H1_31 H 0.7430 0.0373 0.1639
C2_31 C 0.6877(3) 0.0794(3) 0.1431(3)
H2_31 H 0.6609 0.0635 0.1544
C3_31 C 0.7333(2) 0.1306(2) 0.1097(2)
C4_31 C 0.7500(3) 0.1735(3) 0.0825(3)
H3_31 H 0.7241 0.1842 0.0623
H4_31 H 0.7759 0.1638 0.0618
C5_31 C 0.7661(4) 0.2136(3) 0.1104(5)
H5_31 H 0.7404 0.2256 0.1301
H6_31 H 0.7923 0.2042 0.1309
C6_31 C 0.7827(6) 0.2528(6) 0.0744(6)
H7_31 H 0.7568 0.2604 0.0527
H8_31 H 0.8093 0.2409 0.0558
C7_31 C 0.7968(10) 0.2947(10) 0.0994(9)
H9_31 H 0.8067 0.3186 0.0770
H10_31 H 0.7704 0.3066 0.1177
H11_31 H 0.8227 0.2873 0.1204
N3_31 N 0.56252(17) 0.13160(18) 0.12863(18)
C8_31 C 0.5169(3) 0.1015(3) 0.1851(3)
H12_31 H 0.5070 0.0861 0.2127
C9_31 C 0.5623(3) 0.1069(3) 0.1706(3)
H13_31 H 0.5891 0.0956 0.1865
C10_31 C 0.5167(2) 0.1403(2) 0.1194(2)
C11_46 C 0.5000(3) 0.1675(3) 0.0765(3)
H14_31 H 0.5259 0.1877 0.0658
H15_31 H 0.4741 0.1882 0.0862
C12_31 C 0.4839(4) 0.1396(5) 0.0364(3)
H16_31 H 0.5096 0.1199 0.0244
H17_31 H 0.4577 0.1191 0.0458
H19_31 H 0.4407 0.1942 0.0091
N1_32 N 0.18748(17) 0.37863(18) 0.88160(18)
C1_32 C 0.2331(3) 0.4351(3) 0.8515(3)
H1_32 H 0.2430 0.4627 0.8361
C2_32 C 0.1877(3) 0.4206(3) 0.8569(3)
H2_32 H 0.1609 0.4365 0.8456
C3_32 C 0.2333(2) 0.3694(2) 0.8903(2)
C4_32 C 0.2500(3) 0.3265(3) 0.9175(3)
H3_32 H 0.2241 0.3158 0.9377
H4_32 H 0.2759 0.3362 0.9382
C5_32 C 0.2661(4) 0.2864(3) 0.8896(5)
H5_32 H 0.2404 0.2744 0.8699
H6_32 H 0.2923 0.2958 0.8691
C6_32 C 0.2827(6) 0.2472(6) 0.9256(6)
H7_32 H 0.2568 0.2396 0.9473
H8_32 H 0.3093 0.2591 0.9442
C7_32 C 0.2968(10) 0.2053(10) 0.9006(9)
H9_32 H 0.3067 0.1814 0.9230
H10_32 H 0.2704 0.1934 0.8823
H11_32 H 0.3227 0.2127 0.8796
N3_32 N 0.06252(17) 0.36840(18) 0.87137(18)
C8_32 C 0.0169(3) 0.3985(3) 0.8149(3)
H12_32 H 0.0070 0.4139 0.7873
C9_32 C 0.0623(3) 0.3931(3) 0.8294(3)
H13_32 H 0.0891 0.4044 0.8135
C10_32 C 0.0167(2) 0.3597(2) 0.8806(2)
C11_47 C -0.0000(3) 0.3325(3) 0.9235(3)
H14_32 H 0.0259 0.3123 0.9342
H16_32 H 0.0096 0.3801 0.9756
C11_48 C 1.0000(3) 0.3325(3) 0.9235(3)
H15_32 H 0.9741 0.3118 0.9138
C12_32 C 0.9839(4) 0.3604(5) 0.9636(3)
H17_32 H 0.9577 0.3809 0.9542
H19_32 H 0.9407 0.3058 0.9909
C11_49 C 0.5765(3) -0.0000(3) 0.8325(3)
H15_33 H 0.5862 0.0259 0.8118
C12_33 C 0.5364(3) 0.0161(4) 0.8604(5)
H17_33 H 0.5458 0.0423 0.8809
C13_17 C 0.4972(6) 0.0327(6) 0.8244(6)
H18_17 H 0.4896 0.0068 0.8027
H19_33 H 0.5091 0.0593 0.8058
C14_17 C 0.4553(10) 0.0468(10) 0.8494(9)
H20_17 H 0.4314 0.0567 0.8270
H21_17 H 0.4434 0.0204 0.8677
H22_17 H 0.4627 0.0727 0.8704
N1_33 N 0.61840(18) 0.81252(17) 0.87863(18)
C1_33 C 0.6485(3) 0.7669(3) 0.9351(3)
H1_33 H 0.6639 0.7570 0.9627
C2_33 C 0.6431(3) 0.8123(3) 0.9206(3)
H2_33 H 0.6544 0.8391 0.9365
C3_33 C 0.6097(2) 0.7667(2) 0.8694(2)
C4_33 C 0.5825(3) 0.7500(3) 0.8265(3)
H3_33 H 0.5623 0.7759 0.8158
H4_33 H 0.5618 0.7241 0.8362
C5_33 C 0.6104(5) 0.7339(4) 0.7864(3)
H5_33 H 0.6301 0.7596 0.7744
H6_33 H 0.6309 0.7077 0.7958
C6_33 C 0.5744(6) 0.7173(6) 0.7472(6)
H7_33 H 0.5527 0.7432 0.7396
H8_33 H 0.5558 0.6907 0.7591
C7_33 C 0.5994(9) 0.7032(10) 0.7053(10)
H9_33 H 0.5770 0.6933 0.6814
H10_33 H 0.6177 0.7296 0.6934
H11_33 H 0.6204 0.6773 0.7127
N3_33 N 0.62863(18) 0.93748(17) 0.86840(18)
C8_33 C 0.6851(3) 0.9831(3) 0.8985(3)
H12_33 H 0.7127 0.9930 0.9139
C9_33 C 0.6706(3) 0.9377(3) 0.8931(3)
H13_33 H 0.6865 0.9109 0.9044
C10_33 C 0.6194(2) 0.9833(2) 0.8597(2)
C11_50 C 0.5765(3) 1.0000(3) 0.8325(3)
H14_33 H 0.5658 0.9741 0.8123
H16_33 H 0.5244 0.9904 0.8801
N1_34 N 0.38160(18) 0.31252(17) 0.62137(18)
C1_34 C 0.3515(3) 0.2669(3) 0.5649(3)
H1_34 H 0.3361 0.2570 0.5373
C2_34 C 0.3569(3) 0.3123(3) 0.5794(3)
H2_34 H 0.3456 0.3391 0.5635
C3_34 C 0.3903(2) 0.2667(2) 0.6306(2)
C4_34 C 0.4175(3) 0.2500(3) 0.6735(3)
H3_34 H 0.4377 0.2759 0.6842
H4_34 H 0.4382 0.2241 0.6638
C5_34 C 0.3896(5) 0.2339(4) 0.7136(3)
H5_34 H 0.3699 0.2596 0.7256
H6_34 H 0.3691 0.2077 0.7042
C6_34 C 0.4256(6) 0.2173(6) 0.7528(6)
H7_34 H 0.4473 0.2432 0.7604
H8_34 H 0.4442 0.1907 0.7409
C7_34 C 0.4006(9) 0.2032(10) 0.7947(10)
H9_34 H 0.4230 0.1933 0.8186
H10_34 H 0.3823 0.2296 0.8066
H11_34 H 0.3796 0.1773 0.7873
N3_34 N 0.37137(18) 0.43748(17) 0.63160(18)
C8_34 C 0.3149(3) 0.4831(3) 0.6015(3)
H12_34 H 0.2873 0.4930 0.5861
C9_34 C 0.3294(3) 0.4377(3) 0.6069(3)
H13_34 H 0.3135 0.4109 0.5956
C10_34 C 0.3806(2) 0.4833(2) 0.6403(2)
C11_51 C 0.4235(3) 0.5000(3) 0.6675(3)
H14_34 H 0.4342 0.4741 0.6877
H15_34 H 0.4138 0.5259 0.6882
C12_34 C 0.4636(3) 0.5161(4) 0.6396(5)
H16_34 H 0.4756 0.4904 0.6199
H17_34 H 0.4542 0.5423 0.6191
C13_18 C 0.5028(6) 0.5327(6) 0.6756(6)
H18_18 H 0.5104 0.5068 0.6973
H19_34 H 0.4909 0.5593 0.6942
C14_18 C 0.5447(10) 0.5468(10) 0.6506(9)
H20_18 H 0.5686 0.5567 0.6730
H21_18 H 0.5566 0.5204 0.6323
H22_18 H 0.5373 0.5727 0.6296
N1_35 N 0.11840(18) 0.68748(17) 0.12137(18)
C1_35 C 0.1485(3) 0.7331(3) 0.0649(3)
H1_35 H 0.1639 0.7430 0.0373
C2_35 C 0.1431(3) 0.6877(3) 0.0794(3)
H2_35 H 0.1544 0.6609 0.0635
C3_35 C 0.1097(2) 0.7333(2) 0.1306(2)
C4_35 C 0.0825(3) 0.7500(3) 0.1735(3)
H3_35 H 0.0623 0.7241 0.1842
H4_35 H 0.0618 0.7759 0.1638
C5_35 C 0.1104(5) 0.7661(4) 0.2136(3)
H5_35 H 0.1301 0.7404 0.2256
H6_35 H 0.1309 0.7923 0.2042
C6_35 C 0.0744(6) 0.7827(6) 0.2528(6)
H7_35 H 0.0527 0.7568 0.2604
H8_35 H 0.0558 0.8093 0.2409
C7_35 C 0.0994(9) 0.7968(10) 0.2947(10)
H9_35 H 0.0770 0.8067 0.3186
H10_35 H 0.1177 0.7704 0.3066
H11_35 H 0.1204 0.8227 0.2873
N3_35 N 0.12863(18) 0.56252(17) 0.13160(18)
C8_35 C 0.1851(3) 0.5169(3) 0.1015(3)
H12_35 H 0.2127 0.5070 0.0861
C9_35 C 0.1706(3) 0.5623(3) 0.1069(3)
H13_35 H 0.1865 0.5891 0.0956
C10_35 C 0.1194(2) 0.5167(2) 0.1403(2)
C11_52 C 0.0765(3) 0.5000(3) 0.1675(3)
H14_35 H 0.0658 0.5259 0.1877
H15_35 H 0.0862 0.4741 0.1882
C12_35 C 0.0364(3) 0.4839(4) 0.1396(5)
H16_35 H 0.0244 0.5096 0.1199
H17_35 H 0.0458 0.4577 0.1191
H19_35 H 0.0091 0.4407 0.1942
N1_36 N 0.88160(18) 0.18748(17) 0.37863(18)
C1_36 C 0.8515(3) 0.2331(3) 0.4351(3)
H1_36 H 0.8361 0.2430 0.4627
C2_36 C 0.8569(3) 0.1877(3) 0.4206(3)
H2_36 H 0.8456 0.1609 0.4365
C3_36 C 0.8903(2) 0.2333(2) 0.3694(2)
C4_36 C 0.9175(3) 0.2500(3) 0.3265(3)
H3_36 H 0.9377 0.2241 0.3158
H4_36 H 0.9382 0.2759 0.3362
C5_36 C 0.8896(5) 0.2661(4) 0.2864(3)
H5_36 H 0.8699 0.2404 0.2744
H6_36 H 0.8691 0.2923 0.2958
C6_36 C 0.9256(6) 0.2827(6) 0.2472(6)
H7_36 H 0.9473 0.2568 0.2396
H8_36 H 0.9442 0.3093 0.2591
C7_36 C 0.9006(9) 0.2968(10) 0.2053(10)
H9_36 H 0.9230 0.3067 0.1814
H10_36 H 0.8823 0.2704 0.1934
H11_36 H 0.8796 0.3227 0.2127
N3_36 N 0.87137(18) 0.06252(17) 0.36840(18)
C8_36 C 0.8149(3) 0.0169(3) 0.3985(3)
H12_36 H 0.7873 0.0070 0.4139
C9_36 C 0.8294(3) 0.0623(3) 0.3931(3)
H13_36 H 0.8135 0.0891 0.4044
C10_36 C 0.8806(2) 0.0167(2) 0.3597(2)
C11_53 C 0.9235(3) -0.0000(3) 0.3325(3)
H14_36 H 0.9342 0.0259 0.3123
H16_36 H 0.9756 0.0096 0.3801
C11_54 C 0.9235(3) 1.0000(3) 0.3325(3)
H15_36 H 0.9138 0.9741 0.3118
C12_36 C 0.9636(3) 0.9839(4) 0.3604(5)
H17_36 H 0.9542 0.9577 0.3809
H19_36 H 0.9909 0.9407 0.3058
N1_37 N 0.37863(18) 0.11840(18) 0.31252(17)
C1_37 C 0.4351(3) 0.1485(3) 0.2669(3)
H1_37 H 0.4627 0.1639 0.2570
C2_37 C 0.4206(3) 0.1431(3) 0.3123(3)
H2_37 H 0.4365 0.1544 0.3391
C3_37 C 0.3694(2) 0.1097(2) 0.2667(2)
C4_37 C 0.3265(3) 0.0825(3) 0.2500(3)
H3_37 H 0.3158 0.0623 0.2759
H4_37 H 0.3362 0.0618 0.2241
C5_37 C 0.2864(3) 0.1104(5) 0.2339(4)
H5_37 H 0.2744 0.1301 0.2596
H6_37 H 0.2958 0.1309 0.2077
C6_37 C 0.2472(6) 0.0744(6) 0.2173(6)
H7_37 H 0.2396 0.0527 0.2432
H8_37 H 0.2591 0.0558 0.1907
C7_37 C 0.2053(10) 0.0994(9) 0.2032(10)
H9_37 H 0.1814 0.0770 0.1933
H10_37 H 0.1934 0.1177 0.2296
H11_37 H 0.2127 0.1204 0.1773
N3_37 N 0.36840(18) 0.12863(18) 0.43748(17)
C8_37 C 0.3985(3) 0.1851(3) 0.4831(3)
H12_37 H 0.4139 0.2127 0.4930
C9_37 C 0.3931(3) 0.1706(3) 0.4377(3)
H13_37 H 0.4044 0.1865 0.4109
C10_37 C 0.3597(2) 0.1194(2) 0.4833(2)
C11_55 C 0.3325(3) 0.0765(3) 0.5000(3)
H14_37 H 0.3123 0.0658 0.4741
H15_37 H 0.3118 0.0862 0.5259
C12_37 C 0.3604(5) 0.0364(3) 0.5161(4)
H16_37 H 0.3801 0.0244 0.4904
H17_37 H 0.3809 0.0458 0.5423
H19_37 H 0.3058 0.0091 0.5593
C11_56 C 0.1675(3) 0.9235(3) 0.0000(3)
H15_38 H 0.1882 0.9138 0.0259
C12_38 C 0.1396(5) 0.9636(3) 0.0161(4)
H17_38 H 0.1191 0.9542 0.0423
H19_38 H 0.1942 0.9909 0.0593
N1_38 N 0.12137(18) 0.88160(18) 0.81252(17)
C1_38 C 0.0649(3) 0.8515(3) 0.7669(3)
H1_38 H 0.0373 0.8361 0.7570
C2_38 C 0.0794(3) 0.8569(3) 0.8123(3)
H2_38 H 0.0635 0.8456 0.8391
C3_38 C 0.1306(2) 0.8903(2) 0.7667(2)
C4_38 C 0.1735(3) 0.9175(3) 0.7500(3)
H3_38 H 0.1842 0.9377 0.7759
H4_38 H 0.1638 0.9382 0.7241
C5_38 C 0.2136(3) 0.8896(5) 0.7339(4)
H5_38 H 0.2256 0.8699 0.7596
H6_38 H 0.2042 0.8691 0.7077
C6_38 C 0.2528(6) 0.9256(6) 0.7173(6)
H7_38 H 0.2604 0.9473 0.7432
H8_38 H 0.2409 0.9442 0.6907
C7_38 C 0.2947(10) 0.9006(9) 0.7032(10)
H9_38 H 0.3186 0.9230 0.6933
H10_38 H 0.3066 0.8823 0.7296
H11_38 H 0.2873 0.8796 0.6773
N3_38 N 0.13160(18) 0.87137(18) 0.93748(17)
C8_38 C 0.1015(3) 0.8149(3) 0.9831(3)
H12_38 H 0.0861 0.7873 0.9930
C9_38 C 0.1069(3) 0.8294(3) 0.9377(3)
H13_38 H 0.0956 0.8135 0.9109
C10_38 C 0.1403(2) 0.8806(2) 0.9833(2)
C11_57 C 0.1675(3) 0.9235(3) 1.0000(3)
H14_38 H 0.1877 0.9342 0.9741
H16_38 H 0.1199 0.9756 0.9904
N1_39 N 0.62137(18) 0.61840(18) 0.18748(17)
C1_39 C 0.5649(3) 0.6485(3) 0.2331(3)
H1_39 H 0.5373 0.6639 0.2430
C2_39 C 0.5794(3) 0.6431(3) 0.1877(3)
H2_39 H 0.5635 0.6544 0.1609
C3_39 C 0.6306(2) 0.6097(2) 0.2333(2)
C4_39 C 0.6735(3) 0.5825(3) 0.2500(3)
H3_39 H 0.6842 0.5623 0.2241
H4_39 H 0.6638 0.5618 0.2759
C5_39 C 0.7136(3) 0.6104(5) 0.2661(4)
H5_39 H 0.7256 0.6301 0.2404
H6_39 H 0.7042 0.6309 0.2923
C6_39 C 0.7528(6) 0.5744(6) 0.2827(6)
H7_39 H 0.7604 0.5527 0.2568
H8_39 H 0.7409 0.5558 0.3093
C7_39 C 0.7947(10) 0.5994(9) 0.2968(10)
H9_39 H 0.8186 0.5770 0.3067
H10_39 H 0.8066 0.6177 0.2704
H11_39 H 0.7873 0.6204 0.3227
N3_39 N 0.63160(18) 0.62863(18) 0.06252(17)
C8_39 C 0.6015(3) 0.6851(3) 0.0169(3)
H12_39 H 0.5861 0.7127 0.0070
C9_39 C 0.6069(3) 0.6706(3) 0.0623(3)
H13_39 H 0.5956 0.6865 0.0891
C10_39 C 0.6403(2) 0.6194(2) 0.0167(2)
C11_58 C 0.6675(3) 0.5765(3) 0.0000(3)
H14_39 H 0.6877 0.5658 0.0259
H16_39 H 0.6199 0.5244 0.0096
C11_59 C 0.6675(3) 0.5765(3) 1.0000(3)
H15_39 H 0.6882 0.5862 0.9741
C12_39 C 0.6396(5) 0.5364(3) 0.9839(4)
H17_39 H 0.6191 0.5458 0.9577
C13_19 C 0.6756(6) 0.4972(6) 0.9673(6)
H18_19 H 0.6973 0.4896 0.9932
H19_39 H 0.6942 0.5091 0.9407
C14_19 C 0.6506(9) 0.4553(10) 0.9532(10)
H20_19 H 0.6730 0.4314 0.9433
H21_19 H 0.6323 0.4434 0.9796
H22_19 H 0.6296 0.4627 0.9273
N1_40 N 0.87863(18) 0.38160(18) 0.68748(17)
C1_40 C 0.9351(3) 0.3515(3) 0.7331(3)
H1_40 H 0.9627 0.3361 0.7430
C2_40 C 0.9206(3) 0.3569(3) 0.6877(3)
H2_40 H 0.9365 0.3456 0.6609
C3_40 C 0.8694(2) 0.3903(2) 0.7333(2)
C4_40 C 0.8265(3) 0.4175(3) 0.7500(3)
H3_40 H 0.8158 0.4377 0.7241
H4_40 H 0.8362 0.4382 0.7759
C5_40 C 0.7864(3) 0.3896(5) 0.7661(4)
H5_40 H 0.7744 0.3699 0.7404
H6_40 H 0.7958 0.3691 0.7923
C6_40 C 0.7472(6) 0.4256(6) 0.7827(6)
H7_40 H 0.7396 0.4473 0.7568
H8_40 H 0.7591 0.4442 0.8093
C7_40 C 0.7053(10) 0.4006(9) 0.7968(10)
H9_40 H 0.6814 0.4230 0.8067
H10_40 H 0.6934 0.3823 0.7704
H11_40 H 0.7127 0.3796 0.8227
N3_40 N 0.86840(18) 0.37137(18) 0.56252(17)
C8_40 C 0.8985(3) 0.3149(3) 0.5169(3)
H12_40 H 0.9139 0.2873 0.5070
C9_40 C 0.8931(3) 0.3294(3) 0.5623(3)
H13_40 H 0.9044 0.3135 0.5891
C10_40 C 0.8597(2) 0.3806(2) 0.5167(2)
C11_60 C 0.8325(3) 0.4235(3) 0.5000(3)
H14_40 H 0.8123 0.4342 0.5259
H15_40 H 0.8118 0.4138 0.4741
C12_40 C 0.8604(5) 0.4636(3) 0.4839(4)
H16_40 H 0.8801 0.4756 0.5096
H17_40 H 0.8809 0.4542 0.4577
C13_20 C 0.8244(6) 0.5028(6) 0.4673(6)
H18_20 H 0.8027 0.5104 0.4932
H19_40 H 0.8058 0.4909 0.4407
C14_20 C 0.8494(9) 0.5447(10) 0.4532(10)
H20_20 H 0.8270 0.5686 0.4433
H21_20 H 0.8677 0.5566 0.4796
H22_20 H 0.8704 0.5373 0.4273
N1_41 N 0.31252(17) 0.37863(18) 0.11840(18)
C1_41 C 0.2669(3) 0.4351(3) 0.1485(3)
H1_41 H 0.2570 0.4627 0.1639
C2_41 C 0.3123(3) 0.4206(3) 0.1431(3)
H2_41 H 0.3391 0.4365 0.1544
C3_41 C 0.2667(2) 0.3694(2) 0.1097(2)
C4_41 C 0.2500(3) 0.3265(3) 0.0825(3)
H3_41 H 0.2759 0.3158 0.0623
H4_41 H 0.2241 0.3362 0.0618
C5_41 C 0.2339(4) 0.2864(3) 0.1104(5)
H5_41 H 0.2596 0.2744 0.1301
H6_41 H 0.2077 0.2958 0.1309
C6_41 C 0.2173(6) 0.2472(6) 0.0744(6)
H7_41 H 0.2432 0.2396 0.0527
H8_41 H 0.1907 0.2591 0.0558
C7_41 C 0.2032(10) 0.2053(10) 0.0994(9)
H9_41 H 0.1933 0.1814 0.0770
H10_41 H 0.2296 0.1934 0.1177
H11_41 H 0.1773 0.2127 0.1204
N3_41 N 0.43748(17) 0.36840(18) 0.12863(18)
C8_41 C 0.4831(3) 0.3985(3) 0.1851(3)
H12_41 H 0.4930 0.4139 0.2127
C9_41 C 0.4377(3) 0.3931(3) 0.1706(3)
H13_41 H 0.4109 0.4044 0.1865
C10_41 C 0.4833(2) 0.3597(2) 0.1194(2)
C11_61 C 0.5000(3) 0.3325(3) 0.0765(3)
H14_41 H 0.4741 0.3123 0.0658
H15_41 H 0.5259 0.3118 0.0862
C12_41 C 0.5161(4) 0.3604(5) 0.0364(3)
H16_41 H 0.4904 0.3801 0.0244
H17_41 H 0.5423 0.3809 0.0458
H19_41 H 0.5593 0.3058 0.0091
C11_62 C -0.0000(3) 0.1675(3) 0.9235(3)
H15_42 H 0.0259 0.1882 0.9138
C12_42 C 0.0161(4) 0.1396(5) 0.9636(3)
H17_42 H 0.0423 0.1191 0.9542
H19_42 H 0.0593 0.1942 0.9909
N1_42 N 0.81252(17) 0.12137(18) 0.88160(18)
C1_42 C 0.7669(3) 0.0649(3) 0.8515(3)
H1_42 H 0.7570 0.0373 0.8361
C2_42 C 0.8123(3) 0.0794(3) 0.8569(3)
H2_42 H 0.8391 0.0635 0.8456
C3_42 C 0.7667(2) 0.1306(2) 0.8903(2)
C4_42 C 0.7500(3) 0.1735(3) 0.9175(3)
H3_42 H 0.7759 0.1842 0.9377
H4_42 H 0.7241 0.1638 0.9382
C5_42 C 0.7339(4) 0.2136(3) 0.8896(5)
H5_42 H 0.7596 0.2256 0.8699
H6_42 H 0.7077 0.2042 0.8691
C6_42 C 0.7173(6) 0.2528(6) 0.9256(6)
H7_42 H 0.7432 0.2604 0.9473
H8_42 H 0.6907 0.2409 0.9442
C7_42 C 0.7032(10) 0.2947(10) 0.9006(9)
H9_42 H 0.6933 0.3186 0.9230
H10_42 H 0.7296 0.3066 0.8823
H11_42 H 0.6773 0.2873 0.8796
N3_42 N 0.93748(17) 0.13160(18) 0.87137(18)
C8_42 C 0.9831(3) 0.1015(3) 0.8149(3)
H12_42 H 0.9930 0.0861 0.7873
C9_42 C 0.9377(3) 0.1069(3) 0.8294(3)
H13_42 H 0.9109 0.0956 0.8135
C10_42 C 0.9833(2) 0.1403(2) 0.8806(2)
C11_63 C 1.0000(3) 0.1675(3) 0.9235(3)
H14_42 H 0.9741 0.1877 0.9342
H16_42 H 0.9904 0.1199 0.9756
N1_43 N 0.18748(17) 0.62137(18) 0.61840(18)
C1_43 C 0.2331(3) 0.5649(3) 0.6485(3)
H1_43 H 0.2430 0.5373 0.6639
C2_43 C 0.1877(3) 0.5794(3) 0.6431(3)
H2_43 H 0.1609 0.5635 0.6544
C3_43 C 0.2333(2) 0.6306(2) 0.6097(2)
C4_43 C 0.2500(3) 0.6735(3) 0.5825(3)
H3_43 H 0.2241 0.6842 0.5623
H4_43 H 0.2759 0.6638 0.5618
C5_43 C 0.2661(4) 0.7136(3) 0.6104(5)
H5_43 H 0.2404 0.7256 0.6301
H6_43 H 0.2923 0.7042 0.6309
C6_43 C 0.2827(6) 0.7528(6) 0.5744(6)
H7_43 H 0.2568 0.7604 0.5527
H8_43 H 0.3093 0.7409 0.5558
C7_43 C 0.2968(10) 0.7947(10) 0.5994(9)
H9_43 H 0.3067 0.8186 0.5770
H10_43 H 0.2704 0.8066 0.6177
H11_43 H 0.3227 0.7873 0.6204
N3_43 N 0.06252(17) 0.63160(18) 0.62863(18)
C8_43 C 0.0169(3) 0.6015(3) 0.6851(3)
H12_43 H 0.0070 0.5861 0.7127
C9_43 C 0.0623(3) 0.6069(3) 0.6706(3)
H13_43 H 0.0891 0.5956 0.6865
C10_43 C 0.0167(2) 0.6403(2) 0.6194(2)
C11_64 C -0.0000(3) 0.6675(3) 0.5765(3)
H14_43 H 0.0259 0.6877 0.5658
H16_43 H 0.0096 0.6199 0.5244
C11_65 C 1.0000(3) 0.6675(3) 0.5765(3)
H15_43 H 0.9741 0.6882 0.5862
C12_43 C 0.9839(4) 0.6396(5) 0.5364(3)
H17_43 H 0.9577 0.6191 0.5458
C13_21 C 0.9673(6) 0.6756(6) 0.4972(6)
H18_21 H 0.9932 0.6973 0.4896
H19_43 H 0.9407 0.6942 0.5091
C14_21 C 0.9532(10) 0.6506(9) 0.4553(10)
H20_21 H 0.9433 0.6730 0.4314
H21_21 H 0.9796 0.6323 0.4434
H22_21 H 0.9273 0.6296 0.4627
N1_44 N 0.68748(17) 0.87863(18) 0.38160(18)
C1_44 C 0.7331(3) 0.9351(3) 0.3515(3)
H1_44 H 0.7430 0.9627 0.3361
C2_44 C 0.6877(3) 0.9206(3) 0.3569(3)
H2_44 H 0.6609 0.9365 0.3456
C3_44 C 0.7333(2) 0.8694(2) 0.3903(2)
C4_44 C 0.7500(3) 0.8265(3) 0.4175(3)
H3_44 H 0.7241 0.8158 0.4377
H4_44 H 0.7759 0.8362 0.4382
C5_44 C 0.7661(4) 0.7864(3) 0.3896(5)
H5_44 H 0.7404 0.7744 0.3699
H6_44 H 0.7923 0.7958 0.3691
C6_44 C 0.7827(6) 0.7472(6) 0.4256(6)
H7_44 H 0.7568 0.7396 0.4473
H8_44 H 0.8093 0.7591 0.4442
C7_44 C 0.7968(10) 0.7053(10) 0.4006(9)
H9_44 H 0.8067 0.6814 0.4230
H10_44 H 0.7704 0.6934 0.3823
H11_44 H 0.8227 0.7127 0.3796
N3_44 N 0.56252(17) 0.86840(18) 0.37137(18)
C8_44 C 0.5169(3) 0.8985(3) 0.3149(3)
H12_44 H 0.5070 0.9139 0.2873
C9_44 C 0.5623(3) 0.8931(3) 0.3294(3)
H13_44 H 0.5891 0.9044 0.3135
C10_44 C 0.5167(2) 0.8597(2) 0.3806(2)
C11_66 C 0.5000(3) 0.8325(3) 0.4235(3)
H14_44 H 0.5259 0.8123 0.4342
H15_44 H 0.4741 0.8118 0.4138
C12_44 C 0.4839(4) 0.8604(5) 0.4636(3)
H16_44 H 0.5096 0.8801 0.4756
H17_44 H 0.4577 0.8809 0.4542
C13_22 C 0.4673(6) 0.8244(6) 0.5028(6)
H18_22 H 0.4932 0.8027 0.5104
H19_44 H 0.4407 0.8058 0.4909
C14_22 C 0.4532(10) 0.8494(9) 0.5447(10)
H20_22 H 0.4433 0.8270 0.5686
H21_22 H 0.4796 0.8677 0.5566
H22_22 H 0.4273 0.8704 0.5373
N1_45 N 0.11840(18) 0.31252(17) 0.37863(18)
C1_45 C 0.1485(3) 0.2669(3) 0.4351(3)
H1_45 H 0.1639 0.2570 0.4627
C2_45 C 0.1431(3) 0.3123(3) 0.4206(3)
H2_45 H 0.1544 0.3391 0.4365
C3_45 C 0.1097(2) 0.2667(2) 0.3694(2)
C4_45 C 0.0825(3) 0.2500(3) 0.3265(3)
H3_45 H 0.0623 0.2759 0.3158
H4_45 H 0.0618 0.2241 0.3362
C5_45 C 0.1104(5) 0.2339(4) 0.2864(3)
H5_45 H 0.1301 0.2596 0.2744
H6_45 H 0.1309 0.2077 0.2958
C6_45 C 0.0744(6) 0.2173(6) 0.2472(6)
H7_45 H 0.0527 0.2432 0.2396
H8_45 H 0.0558 0.1907 0.2591
C7_45 C 0.0994(9) 0.2032(10) 0.2053(10)
H9_45 H 0.0770 0.1933 0.1814
H10_45 H 0.1177 0.2296 0.1934
H11_45 H 0.1204 0.1773 0.2127
N3_45 N 0.12863(18) 0.43748(17) 0.36840(18)
C8_45 C 0.1851(3) 0.4831(3) 0.3985(3)
H12_45 H 0.2127 0.4930 0.4139
C9_45 C 0.1706(3) 0.4377(3) 0.3931(3)
H13_45 H 0.1865 0.4109 0.4044
C10_45 C 0.1194(2) 0.4833(2) 0.3597(2)
C11_67 C 0.0765(3) 0.5000(3) 0.3325(3)
H14_45 H 0.0658 0.4741 0.3123
H15_45 H 0.0862 0.5259 0.3118
C12_45 C 0.0364(3) 0.5161(4) 0.3604(5)
H16_45 H 0.0244 0.4904 0.3801
H17_45 H 0.0458 0.5423 0.3809
H19_45 H 0.0091 0.5593 0.3058
C11_68 C 0.9235(3) -0.0000(3) 0.1675(3)
H15_46 H 0.9138 0.0259 0.1882
C12_46 C 0.9636(3) 0.0161(4) 0.1396(5)
H17_46 H 0.9542 0.0423 0.1191
H19_46 H 0.9909 0.0593 0.1942
N1_46 N 0.88160(18) 0.81252(17) 0.12137(18)
C1_46 C 0.8515(3) 0.7669(3) 0.0649(3)
H1_46 H 0.8361 0.7570 0.0373
C2_46 C 0.8569(3) 0.8123(3) 0.0794(3)
H2_46 H 0.8456 0.8391 0.0635
C3_46 C 0.8903(2) 0.7667(2) 0.1306(2)
C4_46 C 0.9175(3) 0.7500(3) 0.1735(3)
H3_46 H 0.9377 0.7759 0.1842
H4_46 H 0.9382 0.7241 0.1638
C5_46 C 0.8896(5) 0.7339(4) 0.2136(3)
H5_46 H 0.8699 0.7596 0.2256
H6_46 H 0.8691 0.7077 0.2042
C6_46 C 0.9256(6) 0.7173(6) 0.2528(6)
H7_46 H 0.9473 0.7432 0.2604
H8_46 H 0.9442 0.6907 0.2409
C7_46 C 0.9006(9) 0.7032(10) 0.2947(10)
H9_46 H 0.9230 0.6933 0.3186
H10_46 H 0.8823 0.7296 0.3066
H11_46 H 0.8796 0.6773 0.2873
N3_46 N 0.87137(18) 0.93748(17) 0.13160(18)
C8_46 C 0.8149(3) 0.9831(3) 0.1015(3)
H12_46 H 0.7873 0.9930 0.0861
C9_46 C 0.8294(3) 0.9377(3) 0.1069(3)
H13_46 H 0.8135 0.9109 0.0956
C10_46 C 0.8806(2) 0.9833(2) 0.1403(2)
C11_69 C 0.9235(3) 1.0000(3) 0.1675(3)
H14_46 H 0.9342 0.9741 0.1877
H16_46 H 0.9756 0.9904 0.1199
N1_47 N 0.61840(18) 0.18748(17) 0.62137(18)
C1_47 C 0.6485(3) 0.2331(3) 0.5649(3)
H1_47 H 0.6639 0.2430 0.5373
C2_47 C 0.6431(3) 0.1877(3) 0.5794(3)
H2_47 H 0.6544 0.1609 0.5635
C3_47 C 0.6097(2) 0.2333(2) 0.6306(2)
C4_47 C 0.5825(3) 0.2500(3) 0.6735(3)
H3_47 H 0.5623 0.2241 0.6842
H4_47 H 0.5618 0.2759 0.6638
C5_47 C 0.6104(5) 0.2661(4) 0.7136(3)
H5_47 H 0.6301 0.2404 0.7256
H6_47 H 0.6309 0.2923 0.7042
C6_47 C 0.5744(6) 0.2827(6) 0.7528(6)
H7_47 H 0.5527 0.2568 0.7604
H8_47 H 0.5558 0.3093 0.7409
C7_47 C 0.5994(9) 0.2968(10) 0.7947(10)
H9_47 H 0.5770 0.3067 0.8186
H10_47 H 0.6177 0.2704 0.8066
H11_47 H 0.6204 0.3227 0.7873
N3_47 N 0.62863(18) 0.06252(17) 0.63160(18)
C8_47 C 0.6851(3) 0.0169(3) 0.6015(3)
H12_47 H 0.7127 0.0070 0.5861
C9_47 C 0.6706(3) 0.0623(3) 0.6069(3)
H13_47 H 0.6865 0.0891 0.5956
C10_47 C 0.6194(2) 0.0167(2) 0.6403(2)
C11_70 C 0.5765(3) 0.0000(3) 0.6675(3)
H14_47 H 0.5658 0.0259 0.6877
H16_47 H 0.5244 0.0096 0.6199
C11_71 C 0.5765(3) 1.0000(3) 0.6675(3)
H15_47 H 0.5862 0.9741 0.6882
C12_47 C 0.5364(3) 0.9839(4) 0.6396(5)
H17_47 H 0.5458 0.9577 0.6191
C13_23 C 0.4972(6) 0.9673(6) 0.6756(6)
H18_23 H 0.4896 0.9932 0.6973
H19_47 H 0.5091 0.9407 0.6942
C14_23 C 0.4553(10) 0.9532(10) 0.6506(9)
H20_23 H 0.4314 0.9433 0.6730
H21_23 H 0.4434 0.9796 0.6323
H22_23 H 0.4627 0.9273 0.6296
N1_48 N 0.38160(18) 0.68748(17) 0.87863(18)
C1_48 C 0.3515(3) 0.7331(3) 0.9351(3)
H1_48 H 0.3361 0.7430 0.9627
C2_48 C 0.3569(3) 0.6877(3) 0.9206(3)
H2_48 H 0.3456 0.6609 0.9365
C3_48 C 0.3903(2) 0.7333(2) 0.8694(2)
C4_48 C 0.4175(3) 0.7500(3) 0.8265(3)
H3_48 H 0.4377 0.7241 0.8158
H4_48 H 0.4382 0.7759 0.8362
C5_48 C 0.3896(5) 0.7661(4) 0.7864(3)
H5_48 H 0.3699 0.7404 0.7744
H6_48 H 0.3691 0.7923 0.7958
C6_48 C 0.4256(6) 0.7827(6) 0.7472(6)
H7_48 H 0.4473 0.7568 0.7396
H8_48 H 0.4442 0.8093 0.7591
C7_48 C 0.4006(9) 0.7968(10) 0.7053(10)
H9_48 H 0.4230 0.8067 0.6814
H10_48 H 0.3823 0.7704 0.6934
H11_48 H 0.3796 0.8227 0.7127
N3_48 N 0.37137(18) 0.56252(17) 0.86840(18)
C8_48 C 0.3149(3) 0.5169(3) 0.8985(3)
H12_48 H 0.2873 0.5070 0.9139
C9_48 C 0.3294(3) 0.5623(3) 0.8931(3)
H13_48 H 0.3135 0.5891 0.9044
C10_48 C 0.3806(2) 0.5167(2) 0.8597(2)
C11_72 C 0.4235(3) 0.5000(3) 0.8325(3)
H14_48 H 0.4342 0.5259 0.8123
H15_48 H 0.4138 0.4741 0.8118
C12_48 C 0.4636(3) 0.4839(4) 0.8604(5)
H16_48 H 0.4756 0.5096 0.8801
H17_48 H 0.4542 0.4577 0.8809
C13_24 C 0.5028(6) 0.4673(6) 0.8244(6)
H18_24 H 0.5104 0.4932 0.8027
H19_48 H 0.4909 0.4407 0.8058
C14_24 C 0.5447(10) 0.4532(10) 0.8494(9)
H20_24 H 0.5686 0.4433 0.8270
H21_24 H 0.5566 0.4796 0.8677
H22_24 H 0.5373 0.4273 0.8704
C13_25 C 0.8244(6) 0.0028(6) 0.5327(6)
H18_25 H 0.8027 0.0104 0.5068
C14_25 C 0.8494(9) 0.0447(10) 0.5468(10)
H20_25 H 0.8270 0.0686 0.5567
H21_25 H 0.8677 0.0566 0.5204
H22_25 H 0.8704 0.0373 0.5727
C13_26 C 0.6756(6) 0.9972(6) 0.0327(6)
H18_26 H 0.6973 0.9896 0.0068
C14_26 C 0.6506(9) 0.9553(10) 0.0468(10)
H20_26 H 0.6730 0.9314 0.0567
H21_26 H 0.6323 0.9434 0.0204
H22_26 H 0.6296 0.9627 0.0727
C13_27 C 0.5327(6) 0.8244(6) 0.0028(6)
H18_27 H 0.5068 0.8027 0.0104
C14_27 C 0.5468(10) 0.8494(9) 0.0447(10)
H20_27 H 0.5567 0.8270 0.0686
H21_27 H 0.5204 0.8677 0.0566
H22_27 H 0.5727 0.8704 0.0373
C13_28 C 0.0327(6) 0.6756(6) 0.9972(6)
H18_28 H 0.0068 0.6973 0.9896
C14_28 C 0.0468(10) 0.6506(9) 0.9553(10)
H20_28 H 0.0567 0.6730 0.9314
H21_28 H 0.0204 0.6323 0.9434
H22_28 H 0.0727 0.6296 0.9627
C13_29 C 0.0028(6) 0.5327(6) 0.8244(6)
H18_29 H 0.0104 0.5068 0.8027
C14_29 C 0.0447(10) 0.5468(10) 0.8494(9)
H20_29 H 0.0686 0.5567 0.8270
H21_29 H 0.0566 0.5204 0.8677
H22_29 H 0.0373 0.5727 0.8704
C13_30 C 0.9972(6) 0.0327(6) 0.6756(6)
H18_30 H 0.9896 0.0068 0.6973
C14_30 C 0.9553(10) 0.0468(10) 0.6506(9)
H20_30 H 0.9314 0.0567 0.6730
H21_30 H 0.9434 0.0204 0.6323
H22_30 H 0.9627 0.0727 0.6296
C13_31 C 0.6756(6) 0.0028(6) 0.4673(6)
H18_31 H 0.6973 0.0104 0.4932
C14_31 C 0.6506(9) 0.0447(10) 0.4532(10)
H20_31 H 0.6730 0.0686 0.4433
H21_31 H 0.6323 0.0566 0.4796
H22_31 H 0.6296 0.0373 0.4273
C13_32 C 0.8244(6) 0.9972(6) 0.9673(6)
H18_32 H 0.8027 0.9896 0.9932
C14_32 C 0.8494(9) 0.9553(10) 0.9532(10)
H20_32 H 0.8270 0.9314 0.9433
H21_32 H 0.8677 0.9434 0.9796
H22_32 H 0.8704 0.9627 0.9273
C13_33 C 0.4673(6) 0.6756(6) 0.0028(6)
H18_33 H 0.4932 0.6973 0.0104
C14_33 C 0.4532(10) 0.6506(9) 0.0447(10)
H20_33 H 0.4433 0.6730 0.0686
H21_33 H 0.4796 0.6323 0.0566
H22_33 H 0.4273 0.6296 0.0373
C13_34 C 0.9673(6) 0.8244(6) 0.9972(6)
H18_34 H 0.9932 0.8027 0.9896
C14_34 C 0.9532(10) 0.8494(9) 0.9553(10)
H20_34 H 0.9433 0.8270 0.9314
H21_34 H 0.9796 0.8677 0.9434
H22_34 H 0.9273 0.8704 0.9627
C13_35 C 0.0028(6) 0.4673(6) 0.6756(6)
H18_35 H 0.0104 0.4932 0.6973
C14_35 C 0.0447(10) 0.4532(10) 0.6506(9)
H20_35 H 0.0686 0.4433 0.6730
H21_35 H 0.0566 0.4796 0.6323
H22_35 H 0.0373 0.4273 0.6296
C13_36 C 0.9972(6) 0.9673(6) 0.8244(6)
H18_36 H 0.9896 0.9932 0.8027
C14_36 C 0.9553(10) 0.9532(10) 0.8494(9)
H20_36 H 0.9314 0.9433 0.8270
H21_36 H 0.9434 0.9796 0.8677
H22_36 H 0.9627 0.9273 0.8704
C13_37 C 0.1756(6) 0.9972(6) 0.4673(6)
H18_37 H 0.1973 0.9896 0.4932
C14_37 C 0.1506(9) 0.9553(10) 0.4532(10)
H20_37 H 0.1730 0.9314 0.4433
H21_37 H 0.1323 0.9434 0.4796
H22_37 H 0.1296 0.9627 0.4273
C13_38 C 0.3244(6) 0.0028(6) 0.9673(6)
H18_38 H 0.3027 0.0104 0.9932
C14_38 C 0.3494(9) 0.0447(10) 0.9532(10)
H20_38 H 0.3270 0.0686 0.9433
H21_38 H 0.3677 0.0566 0.9796
H22_38 H 0.3704 0.0373 0.9273
C13_39 C 0.4673(6) 0.1756(6) 0.9972(6)
H18_39 H 0.4932 0.1973 0.9896
C14_39 C 0.4532(10) 0.1506(9) 0.9553(10)
H20_39 H 0.4433 0.1730 0.9314
H21_39 H 0.4796 0.1323 0.9434
H22_39 H 0.4273 0.1296 0.9627
C13_40 C 0.9673(6) 0.3244(6) 0.0028(6)
H18_40 H 0.9932 0.3027 0.0104
C14_40 C 0.9532(10) 0.3494(9) 0.0447(10)
H20_40 H 0.9433 0.3270 0.0686
H21_40 H 0.9796 0.3677 0.0566
H22_40 H 0.9273 0.3704 0.0373
C13_41 C 0.9972(6) 0.4673(6) 0.1756(6)
H18_41 H 0.9896 0.4932 0.1973
C14_41 C 0.9553(10) 0.4532(10) 0.1506(9)
H20_41 H 0.9314 0.4433 0.1730
H21_41 H 0.9434 0.4796 0.1323
H22_41 H 0.9627 0.4273 0.1296
C13_42 C 0.0028(6) 0.9673(6) 0.3244(6)
H18_42 H 0.0104 0.9932 0.3027
C14_42 C 0.0447(10) 0.9532(10) 0.3494(9)
H20_42 H 0.0686 0.9433 0.3270
H21_42 H 0.0566 0.9796 0.3677
H22_42 H 0.0373 0.9273 0.3704
C13_43 C 0.3244(6) 0.9972(6) 0.5327(6)
H18_43 H 0.3027 0.9896 0.5068
C14_43 C 0.3494(9) 0.9553(10) 0.5468(10)
H20_43 H 0.3270 0.9314 0.5567
H21_43 H 0.3677 0.9434 0.5204
H22_43 H 0.3704 0.9627 0.5727
C13_44 C 0.1756(6) 0.0028(6) 0.0327(6)
H18_44 H 0.1973 0.0104 0.0068
C14_44 C 0.1506(9) 0.0447(10) 0.0468(10)
H20_44 H 0.1730 0.0686 0.0567
H21_44 H 0.1323 0.0566 0.0204
H22_44 H 0.1296 0.0373 0.0727
C13_45 C 0.5327(6) 0.3244(6) 0.9972(6)
H18_45 H 0.5068 0.3027 0.9896
C14_45 C 0.5468(10) 0.3494(9) 0.9553(10)
H20_45 H 0.5567 0.3270 0.9314
H21_45 H 0.5204 0.3677 0.9434
H22_45 H 0.5727 0.3704 0.9627
C13_46 C 0.0327(6) 0.1756(6) 0.0028(6)
H18_46 H 0.0068 0.1973 0.0104
C14_46 C 0.0468(10) 0.1506(9) 0.0447(10)
H20_46 H 0.0567 0.1730 0.0686
H21_46 H 0.0204 0.1323 0.0566
H22_46 H 0.0727 0.1296 0.0373
C13_47 C 0.9972(6) 0.5327(6) 0.3244(6)
H18_47 H 0.9896 0.5068 0.3027
C14_47 C 0.9553(10) 0.5468(10) 0.3494(9)
H20_47 H 0.9314 0.5567 0.3270
H21_47 H 0.9434 0.5204 0.3677
H22_47 H 0.9627 0.5727 0.3704
C13_48 C 0.0028(6) 0.0327(6) 0.1756(6)
H18_48 H 0.0104 0.0068 0.1973
C14_48 C 0.0447(10) 0.0468(10) 0.1506(9)
H20_48 H 0.0686 0.0567 0.1730
H21_48 H 0.0566 0.0204 0.1323
H22_48 H 0.0373 0.0727 0.1296
loop_
_geom_bond_atom_site_label_1
_geom_bond_atom_site_label_2
_geom_bond_site_symmetry_1
_geom_bond_site_symmetry_2
Cd1 N1 1_555 1_555
N1 C2 1_555 1_555
N2 C1 1_555 1_555
C1 H1 1_555 1_555
C2 C1 1_555 1_555
H2 C2 1_555 1_555
C3 N1 1_555 1_555
C4 C3 1_555 1_555
H3 C4 1_555 1_555
H4 C4 1_555 1_555
C5 C4 1_555 1_555
H5 C5 1_555 1_555
H6 C5 1_555 1_555
C6 C5 1_555 1_555
H7 C6 1_555 1_555
H8 C6 1_555 1_555
C7 C6 1_555 1_555
H9 C7 1_555 1_555
H10 C7 1_555 1_555
H11 C7 1_555 1_555
Cd2 N2 1_555 1_555
N3 Cd1 1_555 1_555
N5 Cd1 1_555 1_555
N6 Cd1 1_555 1_555
C8 H12 1_555 1_555
C9 N3 1_555 1_555
H13 C9 1_555 1_555
C10 N3 1_555 1_555
C11 C10 1_555 1_555
H14 C11 1_555 1_555
N2 C3 1_555 1_555
C8 C9 1_555 1_555
Cd3 N4 1_555 1_555
H15 C11_2 1_555 1_555
C12 C11_2 1_555 1_555
H17 C12 1_555 1_555
C13 C12 1_555 1_555
H18 C13 1_555 1_555
H19 C13 1_555 1_555
C14 C13 1_555 1_555
H20 C14 1_555 1_555
H21 C14 1_555 1_555
H22 C14 1_555 1_555
Cd1_2 N1_2 1_555 1_555
N1_2 C2_2 1_555 1_555
N2_2 C1_2 1_555 1_555
C1_2 H1_2 1_555 1_555
C2_2 C1_2 1_555 1_555
H2_2 C2_2 1_555 1_555
C3_2 N1_2 1_555 1_555
C4_2 C3_2 1_555 1_555
H3_2 C4_2 1_555 1_555
H4_2 C4_2 1_555 1_555
C5_2 C4_2 1_555 1_555
H5_2 C5_2 1_555 1_555
H6_2 C5_2 1_555 1_555
C6_2 C5_2 1_555 1_555
H7_2 C6_2 1_555 1_555
H8_2 C6_2 1_555 1_555
C7_2 C6_2 1_555 1_555
H9_2 C7_2 1_555 1_555
H10_2 C7_2 1_555 1_555
H11_2 C7_2 1_555 1_555
Cd2_2 N2_2 1_555 1_555
Cd3_2 N4_2 1_555 1_555
N3_2 Cd1_2 1_555 1_555
N4_2 C8_2 1_555 1_555
N5_2 Cd1_2 1_555 1_555
N6_2 Cd1_2 1_555 1_555
C8_2 H12_2 1_555 1_555
C9_2 N3_2 1_555 1_555
H13_2 C9_2 1_555 1_555
C10_2 N3_2 1_555 1_555
C11_3 C10_2 1_555 1_555
H14_2 C11_3 1_555 1_555
H15_2 C11_3 1_555 1_555
C12_2 C11_3 1_555 1_555
H16_2 C12_2 1_555 1_555
H17_2 C12_2 1_555 1_555
C13_2 C12_2 1_555 1_555
H18_2 C13_2 1_555 1_555
H19_2 C13_2 1_555 1_555
C14_2 C13_2 1_555 1_555
H20_2 C14_2 1_555 1_555
H21_2 C14_2 1_555 1_555
H22_2 C14_2 1_555 1_555
N2_2 C3_2 1_555 1_555
N4_2 C10_2 1_555 1_555
C8_2 C9_2 1_555 1_555
Cd1_3 N1_3 1_555 1_555
N1_3 C2_3 1_555 1_555
N2_3 C1_3 1_555 1_555
C1_3 H1_3 1_555 1_555
C2_3 C1_3 1_555 1_555
H2_3 C2_3 1_555 1_555
C3_3 N1_3 1_555 1_555
C4_3 C3_3 1_555 1_555
H3_3 C4_3 1_555 1_555
H4_3 C4_3 1_555 1_555
C5_3 C4_3 1_555 1_555
H5_3 C5_3 1_555 1_555
H6_3 C5_3 1_555 1_555
C6_3 C5_3 1_555 1_555
H7_3 C6_3 1_555 1_555
H8_3 C6_3 1_555 1_555
C7_3 C6_3 1_555 1_555
H9_3 C7_3 1_555 1_555
H10_3 C7_3 1_555 1_555
H11_3 C7_3 1_555 1_555
Cd2_3 N2_3 1_555 1_555
Cd3_3 N4_3 1_555 1_555
N3_3 Cd1_3 1_555 1_555
N4_3 C8_3 1_555 1_555
N5_3 Cd1_3 1_555 1_555
N6_3 Cd1_3 1_555 1_555
C8_3 H12_3 1_555 1_555
C9_3 N3_3 1_555 1_555
H13_3 C9_3 1_555 1_555
C10_3 N3_3 1_555 1_555
C11_4 C10_3 1_555 1_555
H14_3 C11_4 1_555 1_555
H15_3 C11_4 1_555 1_555
C12_3 C11_4 1_555 1_555
H16_3 C12_3 1_555 1_555
H17_3 C12_3 1_555 1_555
N2_3 C3_3 1_555 1_555
N4_3 C10_3 1_555 1_555
C8_3 C9_3 1_555 1_555
Cd3_4 N4_4 1_555 1_555
H15_4 C11_5 1_555 1_555
C12_4 C11_5 1_555 1_555
H17_4 C12_4 1_555 1_555
Cd1_4 N1_4 1_555 1_555
N1_4 C2_4 1_555 1_555
N2_4 C1_4 1_555 1_555
C1_4 H1_4 1_555 1_555
C2_4 C1_4 1_555 1_555
H2_4 C2_4 1_555 1_555
C3_4 N1_4 1_555 1_555
C4_4 C3_4 1_555 1_555
H3_4 C4_4 1_555 1_555
H4_4 C4_4 1_555 1_555
C5_4 C4_4 1_555 1_555
H5_4 C5_4 1_555 1_555
H6_4 C5_4 1_555 1_555
C6_4 C5_4 1_555 1_555
H7_4 C6_4 1_555 1_555
H8_4 C6_4 1_555 1_555
C7_4 C6_4 1_555 1_555
H9_4 C7_4 1_555 1_555
H10_4 C7_4 1_555 1_555
H11_4 C7_4 1_555 1_555
Cd2_4 N2_4 1_555 1_555
N3_4 Cd1_4 1_555 1_555
N5_4 Cd1_4 1_555 1_555
N6_4 Cd1_4 1_555 1_555
C8_4 H12_4 1_555 1_555
C9_4 N3_4 1_555 1_555
H13_4 C9_4 1_555 1_555
C10_4 N3_4 1_555 1_555
C11_6 C10_4 1_555 1_555
H14_4 C11_6 1_555 1_555
N2_4 C3_4 1_555 1_555
C8_4 C9_4 1_555 1_555
Cd1_5 N1_5 1_555 1_555
N1_5 C2_5 1_555 1_555
N2_5 C1_5 1_555 1_555
C1_5 H1_5 1_555 1_555
C2_5 C1_5 1_555 1_555
H2_5 C2_5 1_555 1_555
C3_5 N1_5 1_555 1_555
C4_5 C3_5 1_555 1_555
H3_5 C4_5 1_555 1_555
H4_5 C4_5 1_555 1_555
C5_5 C4_5 1_555 1_555
H5_5 C5_5 1_555 1_555
H6_5 C5_5 1_555 1_555
C6_5 C5_5 1_555 1_555
H7_5 C6_5 1_555 1_555
H8_5 C6_5 1_555 1_555
C7_5 C6_5 1_555 1_555
H9_5 C7_5 1_555 1_555
H10_5 C7_5 1_555 1_555
H11_5 C7_5 1_555 1_555
Cd2_5 N2_5 1_555 1_555
N3_5 Cd1_5 1_555 1_555
N5_5 Cd1_5 1_555 1_555
N6_5 Cd1_5 1_555 1_555
C8_5 H12_5 1_555 1_555
C9_5 N3_5 1_555 1_555
H13_5 C9_5 1_555 1_555
C10_5 N3_5 1_555 1_555
C11_7 C10_5 1_555 1_555
H14_5 C11_7 1_555 1_555
N2_5 C3_5 1_555 1_555
C8_5 C9_5 1_555 1_555
Cd3_5 N4_5 1_555 1_555
H15_5 C11_8 1_555 1_555
C12_5 C11_8 1_555 1_555
H17_5 C12_5 1_555 1_555
C13_3 C12_5 1_555 1_555
H18_3 C13_3 1_555 1_555
H19_5 C13_3 1_555 1_555
C14_3 C13_3 1_555 1_555
H20_3 C14_3 1_555 1_555
H21_3 C14_3 1_555 1_555
H22_3 C14_3 1_555 1_555
Cd1_6 N1_6 1_555 1_555
N1_6 C2_6 1_555 1_555
N2_6 C1_6 1_555 1_555
C1_6 H1_6 1_555 1_555
C2_6 C1_6 1_555 1_555
H2_6 C2_6 1_555 1_555
C3_6 N1_6 1_555 1_555
C4_6 C3_6 1_555 1_555
H3_6 C4_6 1_555 1_555
H4_6 C4_6 1_555 1_555
C5_6 C4_6 1_555 1_555
H5_6 C5_6 1_555 1_555
H6_6 C5_6 1_555 1_555
C6_6 C5_6 1_555 1_555
H7_6 C6_6 1_555 1_555
H8_6 C6_6 1_555 1_555
C7_6 C6_6 1_555 1_555
H9_6 C7_6 1_555 1_555
H10_6 C7_6 1_555 1_555
H11_6 C7_6 1_555 1_555
Cd2_6 N2_6 1_555 1_555
Cd3_6 N4_6 1_555 1_555
N3_6 Cd1_6 1_555 1_555
N4_6 C8_6 1_555 1_555
N5_6 Cd1_6 1_555 1_555
N6_6 Cd1_6 1_555 1_555
C8_6 H12_6 1_555 1_555
C9_6 N3_6 1_555 1_555
H13_6 C9_6 1_555 1_555
C10_6 N3_6 1_555 1_555
C11_9 C10_6 1_555 1_555
H14_6 C11_9 1_555 1_555
H15_6 C11_9 1_555 1_555
C12_6 C11_9 1_555 1_555
H16_6 C12_6 1_555 1_555
H17_6 C12_6 1_555 1_555
C13_4 C12_6 1_555 1_555
H18_4 C13_4 1_555 1_555
H19_6 C13_4 1_555 1_555
C14_4 C13_4 1_555 1_555
H20_4 C14_4 1_555 1_555
H21_4 C14_4 1_555 1_555
H22_4 C14_4 1_555 1_555
N2_6 C3_6 1_555 1_555
N4_6 C10_6 1_555 1_555
C8_6 C9_6 1_555 1_555
Cd1_7 N1_7 1_555 1_555
N1_7 C2_7 1_555 1_555
N2_7 C1_7 1_555 1_555
C1_7 H1_7 1_555 1_555
C2_7 C1_7 1_555 1_555
H2_7 C2_7 1_555 1_555
C3_7 N1_7 1_555 1_555
C4_7 C3_7 1_555 1_555
H3_7 C4_7 1_555 1_555
H4_7 C4_7 1_555 1_555
C5_7 C4_7 1_555 1_555
H5_7 C5_7 1_555 1_555
H6_7 C5_7 1_555 1_555
C6_7 C5_7 1_555 1_555
H7_7 C6_7 1_555 1_555
H8_7 C6_7 1_555 1_555
C7_7 C6_7 1_555 1_555
H9_7 C7_7 1_555 1_555
H10_7 C7_7 1_555 1_555
H11_7 C7_7 1_555 1_555
Cd2_7 N2_7 1_555 1_555
Cd3_7 N4_7 1_555 1_555
N3_7 Cd1_7 1_555 1_555
N4_7 C8_7 1_555 1_555
N5_7 Cd1_7 1_555 1_555
N6_7 Cd1_7 1_555 1_555
C8_7 H12_7 1_555 1_555
C9_7 N3_7 1_555 1_555
H13_7 C9_7 1_555 1_555
C10_7 N3_7 1_555 1_555
C11_10 C10_7 1_555 1_555
H14_7 C11_10 1_555 1_555
H15_7 C11_10 1_555 1_555
C12_7 C11_10 1_555 1_555
H16_7 C12_7 1_555 1_555
H17_7 C12_7 1_555 1_555
N2_7 C3_7 1_555 1_555
N4_7 C10_7 1_555 1_555
C8_7 C9_7 1_555 1_555
Cd3_8 N4_8 1_555 1_555
H15_8 C11_11 1_555 1_555
C12_8 C11_11 1_555 1_555
H17_8 C12_8 1_555 1_555
Cd1_8 N1_8 1_555 1_555
N1_8 C2_8 1_555 1_555
N2_8 C1_8 1_555 1_555
C1_8 H1_8 1_555 1_555
C2_8 C1_8 1_555 1_555
H2_8 C2_8 1_555 1_555
C3_8 N1_8 1_555 1_555
C4_8 C3_8 1_555 1_555
H3_8 C4_8 1_555 1_555
H4_8 C4_8 1_555 1_555
C5_8 C4_8 1_555 1_555
H5_8 C5_8 1_555 1_555
H6_8 C5_8 1_555 1_555
C6_8 C5_8 1_555 1_555
H7_8 C6_8 1_555 1_555
H8_8 C6_8 1_555 1_555
C7_8 C6_8 1_555 1_555
H9_8 C7_8 1_555 1_555
H10_8 C7_8 1_555 1_555
H11_8 C7_8 1_555 1_555
Cd2_8 N2_8 1_555 1_555
N3_8 Cd1_8 1_555 1_555
N5_8 Cd1_8 1_555 1_555
N6_8 Cd1_8 1_555 1_555
C8_8 H12_8 1_555 1_555
C9_8 N3_8 1_555 1_555
H13_8 C9_8 1_555 1_555
C10_8 N3_8 1_555 1_555
C11_12 C10_8 1_555 1_555
H14_8 C11_12 1_555 1_555
N2_8 C3_8 1_555 1_555
C8_8 C9_8 1_555 1_555
Cd1_9 N1_9 1_555 1_555
N1_9 C2_9 1_555 1_555
N2_9 C1_9 1_555 1_555
C1_9 H1_9 1_555 1_555
C2_9 C1_9 1_555 1_555
H2_9 C2_9 1_555 1_555
C3_9 N1_9 1_555 1_555
C4_9 C3_9 1_555 1_555
H3_9 C4_9 1_555 1_555
H4_9 C4_9 1_555 1_555
C5_9 C4_9 1_555 1_555
H5_9 C5_9 1_555 1_555
H6_9 C5_9 1_555 1_555
C6_9 C5_9 1_555 1_555
H7_9 C6_9 1_555 1_555
H8_9 C6_9 1_555 1_555
C7_9 C6_9 1_555 1_555
H9_9 C7_9 1_555 1_555
H10_9 C7_9 1_555 1_555
H11_9 C7_9 1_555 1_555
Cd2_9 N2_9 1_555 1_555
N3_9 Cd1_9 1_555 1_555
N5_9 Cd1_9 1_555 1_555
N6_9 Cd1_9 1_555 1_555
C8_9 H12_9 1_555 1_555
C9_9 N3_9 1_555 1_555
H13_9 C9_9 1_555 1_555
C10_9 N3_9 1_555 1_555
C11_13 C10_9 1_555 1_555
H14_9 C11_13 1_555 1_555
N2_9 C3_9 1_555 1_555
C8_9 C9_9 1_555 1_555
Cd3_9 N4_9 1_555 1_555
H15_9 C11_14 1_555 1_555
C12_9 C11_14 1_555 1_555
H17_9 C12_9 1_555 1_555
C13_5 C12_9 1_555 1_555
H18_5 C13_5 1_555 1_555
H19_9 C13_5 1_555 1_555
C14_5 C13_5 1_555 1_555
H20_5 C14_5 1_555 1_555
H21_5 C14_5 1_555 1_555
H22_5 C14_5 1_555 1_555
Cd1_10 N1_10 1_555 1_555
N1_10 C2_10 1_555 1_555
N2_10 C1_10 1_555 1_555
C1_10 H1_10 1_555 1_555
C2_10 C1_10 1_555 1_555
H2_10 C2_10 1_555 1_555
C3_10 N1_10 1_555 1_555
C4_10 C3_10 1_555 1_555
H3_10 C4_10 1_555 1_555
H4_10 C4_10 1_555 1_555
C5_10 C4_10 1_555 1_555
H5_10 C5_10 1_555 1_555
H6_10 C5_10 1_555 1_555
C6_10 C5_10 1_555 1_555
H7_10 C6_10 1_555 1_555
H8_10 C6_10 1_555 1_555
C7_10 C6_10 1_555 1_555
H9_10 C7_10 1_555 1_555
H10_10 C7_10 1_555 1_555
H11_10 C7_10 1_555 1_555
Cd2_10 N2_10 1_555 1_555
Cd3_10 N4_10 1_555 1_555
N3_10 Cd1_10 1_555 1_555
N4_10 C8_10 1_555 1_555
N5_10 Cd1_10 1_555 1_555
N6_10 Cd1_10 1_555 1_555
C8_10 H12_10 1_555 1_555
C9_10 N3_10 1_555 1_555
H13_10 C9_10 1_555 1_555
C10_10 N3_10 1_555 1_555
C11_15 C10_10 1_555 1_555
H14_10 C11_15 1_555 1_555
H15_10 C11_15 1_555 1_555
C12_10 C11_15 1_555 1_555
H16_10 C12_10 1_555 1_555
H17_10 C12_10 1_555 1_555
C13_6 C12_10 1_555 1_555
H18_6 C13_6 1_555 1_555
H19_10 C13_6 1_555 1_555
C14_6 C13_6 1_555 1_555
H20_6 C14_6 1_555 1_555
H21_6 C14_6 1_555 1_555
H22_6 C14_6 1_555 1_555
N2_10 C3_10 1_555 1_555
N4_10 C10_10 1_555 1_555
C8_10 C9_10 1_555 1_555
Cd1_11 N1_11 1_555 1_555
N1_11 C2_11 1_555 1_555
N2_11 C1_11 1_555 1_555
C1_11 H1_11 1_555 1_555
C2_11 C1_11 1_555 1_555
H2_11 C2_11 1_555 1_555
C3_11 N1_11 1_555 1_555
C4_11 C3_11 1_555 1_555
H3_11 C4_11 1_555 1_555
H4_11 C4_11 1_555 1_555
C5_11 C4_11 1_555 1_555
H5_11 C5_11 1_555 1_555
H6_11 C5_11 1_555 1_555
C6_11 C5_11 1_555 1_555
H7_11 C6_11 1_555 1_555
H8_11 C6_11 1_555 1_555
C7_11 C6_11 1_555 1_555
H9_11 C7_11 1_555 1_555
H10_11 C7_11 1_555 1_555
H11_11 C7_11 1_555 1_555
Cd2_11 N2_11 1_555 1_555
Cd3_11 N4_11 1_555 1_555
N3_11 Cd1_11 1_555 1_555
N4_11 C8_11 1_555 1_555
N5_11 Cd1_11 1_555 1_555
N6_11 Cd1_11 1_555 1_555
C8_11 H12_11 1_555 1_555
C9_11 N3_11 1_555 1_555
H13_11 C9_11 1_555 1_555
C10_11 N3_11 1_555 1_555
C11_16 C10_11 1_555 1_555
H14_11 C11_16 1_555 1_555
H15_11 C11_16 1_555 1_555
C12_11 C11_16 1_555 1_555
H16_11 C12_11 1_555 1_555
H17_11 C12_11 1_555 1_555
N2_11 C3_11 1_555 1_555
N4_11 C10_11 1_555 1_555
C8_11 C9_11 1_555 1_555
Cd3_12 N4_12 1_555 1_555
H15_12 C11_17 1_555 1_555
C12_12 C11_17 1_555 1_555
H17_12 C12_12 1_555 1_555
Cd1_12 N1_12 1_555 1_555
N1_12 C2_12 1_555 1_555
N2_12 C1_12 1_555 1_555
C1_12 H1_12 1_555 1_555
C2_12 C1_12 1_555 1_555
H2_12 C2_12 1_555 1_555
C3_12 N1_12 1_555 1_555
C4_12 C3_12 1_555 1_555
H3_12 C4_12 1_555 1_555
H4_12 C4_12 1_555 1_555
C5_12 C4_12 1_555 1_555
H5_12 C5_12 1_555 1_555
H6_12 C5_12 1_555 1_555
C6_12 C5_12 1_555 1_555
H7_12 C6_12 1_555 1_555
H8_12 C6_12 1_555 1_555
C7_12 C6_12 1_555 1_555
H9_12 C7_12 1_555 1_555
H10_12 C7_12 1_555 1_555
H11_12 C7_12 1_555 1_555
Cd2_12 N2_12 1_555 1_555
N3_12 Cd1_12 1_555 1_555
N5_12 Cd1_12 1_555 1_555
N6_12 Cd1_12 1_555 1_555
C8_12 H12_12 1_555 1_555
C9_12 N3_12 1_555 1_555
H13_12 C9_12 1_555 1_555
C10_12 N3_12 1_555 1_555
C11_18 C10_12 1_555 1_555
H14_12 C11_18 1_555 1_555
N2_12 C3_12 1_555 1_555
C8_12 C9_12 1_555 1_555
Cd1_13 N1_13 1_555 1_555
N1_13 C2_13 1_555 1_555
N2_13 C1_13 1_555 1_555
C1_13 H1_13 1_555 1_555
C2_13 C1_13 1_555 1_555
H2_13 C2_13 1_555 1_555
C3_13 N1_13 1_555 1_555
C4_13 C3_13 1_555 1_555
H3_13 C4_13 1_555 1_555
H4_13 C4_13 1_555 1_555
C5_13 C4_13 1_555 1_555
H5_13 C5_13 1_555 1_555
H6_13 C5_13 1_555 1_555
C6_13 C5_13 1_555 1_555
H7_13 C6_13 1_555 1_555
H8_13 C6_13 1_555 1_555
C7_13 C6_13 1_555 1_555
H9_13 C7_13 1_555 1_555
H10_13 C7_13 1_555 1_555
H11_13 C7_13 1_555 1_555
Cd3_7 N2_13 1_555 1_555
Cd2_10 N4_13 1_555 1_555
N3_13 Cd1_13 1_555 1_555
N4_13 C8_13 1_555 1_555
N5_13 Cd1_13 1_555 1_555
N6_13 Cd1_13 1_555 1_555
C8_13 H12_13 1_555 1_555
C9_13 N3_13 1_555 1_555
H13_13 C9_13 1_555 1_555
C10_13 N3_13 1_555 1_555
C11_19 C10_13 1_555 1_555
H14_13 C11_19 1_555 1_555
H15_13 C11_19 1_555 1_555
C12_13 C11_19 1_555 1_555
H16_13 C12_13 1_555 1_555
H17_13 C12_13 1_555 1_555
N2_13 C3_13 1_555 1_555
N4_13 C10_13 1_555 1_555
C8_13 C9_13 1_555 1_555
Cd1_14 N1_14 1_555 1_555
N1_14 C2_14 1_555 1_555
N2_14 C1_14 1_555 1_555
C1_14 H1_14 1_555 1_555
C2_14 C1_14 1_555 1_555
H2_14 C2_14 1_555 1_555
C3_14 N1_14 1_555 1_555
C4_14 C3_14 1_555 1_555
H3_14 C4_14 1_555 1_555
H4_14 C4_14 1_555 1_555
C5_14 C4_14 1_555 1_555
H5_14 C5_14 1_555 1_555
H6_14 C5_14 1_555 1_555
C6_14 C5_14 1_555 1_555
H7_14 C6_14 1_555 1_555
H8_14 C6_14 1_555 1_555
C7_14 C6_14 1_555 1_555
H9_14 C7_14 1_555 1_555
H10_14 C7_14 1_555 1_555
H11_14 C7_14 1_555 1_555
Cd3_5 N2_14 1_555 1_555
N3_14 Cd1_14 1_555 1_555
N5_14 Cd1_14 1_555 1_555
N6_14 Cd1_14 1_555 1_555
C8_14 H12_14 1_555 1_555
C9_14 N3_14 1_555 1_555
H13_14 C9_14 1_555 1_555
C10_14 N3_14 1_555 1_555
C11_20 C10_14 1_555 1_555
H14_14 C11_20 1_555 1_555
N2_14 C3_14 1_555 1_555
C8_14 C9_14 1_555 1_555
Cd2_11 N4_14 1_555 1_555
H15_14 C11_21 1_555 1_555
C12_14 C11_21 1_555 1_555
H17_14 C12_14 1_555 1_555
Cd2_9 N4_15 1_555 1_555
H15_15 C11_22 1_555 1_555
C12_15 C11_22 1_555 1_555
H17_15 C12_15 1_555 1_555
C13_7 C12_15 1_555 1_555
H18_7 C13_7 1_555 1_555
H19_15 C13_7 1_555 1_555
C14_7 C13_7 1_555 1_555
H20_7 C14_7 1_555 1_555
H21_7 C14_7 1_555 1_555
H22_7 C14_7 1_555 1_555
Cd1_15 N1_15 1_555 1_555
N1_15 C2_15 1_555 1_555
N2_15 C1_15 1_555 1_555
C1_15 H1_15 1_555 1_555
C2_15 C1_15 1_555 1_555
H2_15 C2_15 1_555 1_555
C3_15 N1_15 1_555 1_555
C4_15 C3_15 1_555 1_555
H3_15 C4_15 1_555 1_555
H4_15 C4_15 1_555 1_555
C5_15 C4_15 1_555 1_555
H5_15 C5_15 1_555 1_555
H6_15 C5_15 1_555 1_555
C6_15 C5_15 1_555 1_555
H7_15 C6_15 1_555 1_555
H8_15 C6_15 1_555 1_555
C7_15 C6_15 1_555 1_555
H9_15 C7_15 1_555 1_555
H10_15 C7_15 1_555 1_555
H11_15 C7_15 1_555 1_555
Cd3_6 N2_15 1_555 1_555
N3_15 Cd1_15 1_555 1_555
N5_15 Cd1_15 1_555 1_555
N6_15 Cd1_15 1_555 1_555
C8_15 H12_15 1_555 1_555
C9_15 N3_15 1_555 1_555
H13_15 C9_15 1_555 1_555
C10_15 N3_15 1_555 1_555
C11_23 C10_15 1_555 1_555
H14_15 C11_23 1_555 1_555
N2_15 C3_15 1_555 1_555
C8_15 C9_15 1_555 1_555
Cd1_16 N1_16 1_555 1_555
N1_16 C2_16 1_555 1_555
N2_16 C1_16 1_555 1_555
C1_16 H1_16 1_555 1_555
C2_16 C1_16 1_555 1_555
H2_16 C2_16 1_555 1_555
C3_16 N1_16 1_555 1_555
C4_16 C3_16 1_555 1_555
H3_16 C4_16 1_555 1_555
H4_16 C4_16 1_555 1_555
C5_16 C4_16 1_555 1_555
H5_16 C5_16 1_555 1_555
H6_16 C5_16 1_555 1_555
C6_16 C5_16 1_555 1_555
H7_16 C6_16 1_555 1_555
H8_16 C6_16 1_555 1_555
C7_16 C6_16 1_555 1_555
H9_16 C7_16 1_555 1_555
H10_16 C7_16 1_555 1_555
H11_16 C7_16 1_555 1_555
Cd3_8 N2_16 1_555 1_555
Cd2_12 N4_16 1_555 1_555
N3_16 Cd1_16 1_555 1_555
N4_16 C8_16 1_555 1_555
N5_16 Cd1_16 1_555 1_555
N6_16 Cd1_16 1_555 1_555
C8_16 H12_16 1_555 1_555
C9_16 N3_16 1_555 1_555
H13_16 C9_16 1_555 1_555
C10_16 N3_16 1_555 1_555
C11_24 C10_16 1_555 1_555
H14_16 C11_24 1_555 1_555
H15_16 C11_24 1_555 1_555
C12_16 C11_24 1_555 1_555
H16_16 C12_16 1_555 1_555
H17_16 C12_16 1_555 1_555
C13_8 C12_16 1_555 1_555
H18_8 C13_8 1_555 1_555
H19_16 C13_8 1_555 1_555
C14_8 C13_8 1_555 1_555
H20_8 C14_8 1_555 1_555
H21_8 C14_8 1_555 1_555
H22_8 C14_8 1_555 1_555
N2_16 C3_16 1_555 1_555
N4_16 C10_16 1_555 1_555
C8_16 C9_16 1_555 1_555
Cd1_17 N1_17 1_555 1_555
N1_17 C2_17 1_555 1_555
N2_17 C1_17 1_555 1_555
C1_17 H1_17 1_555 1_555
C2_17 C1_17 1_555 1_555
H2_17 C2_17 1_555 1_555
C3_17 N1_17 1_555 1_555
C4_17 C3_17 1_555 1_555
H3_17 C4_17 1_555 1_555
H4_17 C4_17 1_555 1_555
C5_17 C4_17 1_555 1_555
H5_17 C5_17 1_555 1_555
H6_17 C5_17 1_555 1_555
C6_17 C5_17 1_555 1_555
H7_17 C6_17 1_555 1_555
H8_17 C6_17 1_555 1_555
C7_17 C6_17 1_555 1_555
H9_17 C7_17 1_555 1_555
H10_17 C7_17 1_555 1_555
H11_17 C7_17 1_555 1_555
Cd3_11 N2_17 1_555 1_555
Cd2_2 N4_17 1_555 1_555
N3_17 Cd1_17 1_555 1_555
N4_17 C8_17 1_555 1_555
N5_17 Cd1_17 1_555 1_555
N6_17 Cd1_17 1_555 1_555
C8_17 H12_17 1_555 1_555
C9_17 N3_17 1_555 1_555
H13_17 C9_17 1_555 1_555
C10_17 N3_17 1_555 1_555
C11_25 C10_17 1_555 1_555
H14_17 C11_25 1_555 1_555
H15_17 C11_25 1_555 1_555
C12_17 C11_25 1_555 1_555
H16_17 C12_17 1_555 1_555
H17_17 C12_17 1_555 1_555
N2_17 C3_17 1_555 1_555
N4_17 C10_17 1_555 1_555
C8_17 C9_17 1_555 1_555
Cd1_18 N1_18 1_555 1_555
N1_18 C2_18 1_555 1_555
N2_18 C1_18 1_555 1_555
C1_18 H1_18 1_555 1_555
C2_18 C1_18 1_555 1_555
H2_18 C2_18 1_555 1_555
C3_18 N1_18 1_555 1_555
C4_18 C3_18 1_555 1_555
H3_18 C4_18 1_555 1_555
H4_18 C4_18 1_555 1_555
C5_18 C4_18 1_555 1_555
H5_18 C5_18 1_555 1_555
H6_18 C5_18 1_555 1_555
C6_18 C5_18 1_555 1_555
H7_18 C6_18 1_555 1_555
H8_18 C6_18 1_555 1_555
C7_18 C6_18 1_555 1_555
H9_18 C7_18 1_555 1_555
H10_18 C7_18 1_555 1_555
H11_18 C7_18 1_555 1_555
Cd3_9 N2_18 1_555 1_555
N3_18 Cd1_18 1_555 1_555
N5_18 Cd1_18 1_555 1_555
N6_18 Cd1_18 1_555 1_555
C8_18 H12_18 1_555 1_555
C9_18 N3_18 1_555 1_555
H13_18 C9_18 1_555 1_555
C10_18 N3_18 1_555 1_555
C11_26 C10_18 1_555 1_555
H14_18 C11_26 1_555 1_555
N2_18 C3_18 1_555 1_555
C8_18 C9_18 1_555 1_555
Cd2_3 N4_18 1_555 1_555
H15_18 C11_27 1_555 1_555
C12_18 C11_27 1_555 1_555
H17_18 C12_18 1_555 1_555
Cd2 N4_19 1_555 1_555
H15_19 C11_28 1_555 1_555
C12_19 C11_28 1_555 1_555
H17_19 C12_19 1_555 1_555
C13_9 C12_19 1_555 1_555
H18_9 C13_9 1_555 1_555
H19_19 C13_9 1_555 1_555
C14_9 C13_9 1_555 1_555
H20_9 C14_9 1_555 1_555
H21_9 C14_9 1_555 1_555
H22_9 C14_9 1_555 1_555
Cd1_19 N1_19 1_555 1_555
N1_19 C2_19 1_555 1_555
N2_19 C1_19 1_555 1_555
C1_19 H1_19 1_555 1_555
C2_19 C1_19 1_555 1_555
H2_19 C2_19 1_555 1_555
C3_19 N1_19 1_555 1_555
C4_19 C3_19 1_555 1_555
H3_19 C4_19 1_555 1_555
H4_19 C4_19 1_555 1_555
C5_19 C4_19 1_555 1_555
H5_19 C5_19 1_555 1_555
H6_19 C5_19 1_555 1_555
C6_19 C5_19 1_555 1_555
H7_19 C6_19 1_555 1_555
H8_19 C6_19 1_555 1_555
C7_19 C6_19 1_555 1_555
H9_19 C7_19 1_555 1_555
H10_19 C7_19 1_555 1_555
H11_19 C7_19 1_555 1_555
Cd3_10 N2_19 1_555 1_555
N3_19 Cd1_19 1_555 1_555
N5_19 Cd1_19 1_555 1_555
N6_19 Cd1_19 1_555 1_555
C8_19 H12_19 1_555 1_555
C9_19 N3_19 1_555 1_555
H13_19 C9_19 1_555 1_555
C10_19 N3_19 1_555 1_555
C11_29 C10_19 1_555 1_555
H14_19 C11_29 1_555 1_555
N2_19 C3_19 1_555 1_555
C8_19 C9_19 1_555 1_555
Cd1_20 N1_20 1_555 1_555
N1_20 C2_20 1_555 1_555
N2_20 C1_20 1_555 1_555
C1_20 H1_20 1_555 1_555
C2_20 C1_20 1_555 1_555
H2_20 C2_20 1_555 1_555
C3_20 N1_20 1_555 1_555
C4_20 C3_20 1_555 1_555
H3_20 C4_20 1_555 1_555
H4_20 C4_20 1_555 1_555
C5_20 C4_20 1_555 1_555
H5_20 C5_20 1_555 1_555
H6_20 C5_20 1_555 1_555
C6_20 C5_20 1_555 1_555
H7_20 C6_20 1_555 1_555
H8_20 C6_20 1_555 1_555
C7_20 C6_20 1_555 1_555
H9_20 C7_20 1_555 1_555
H10_20 C7_20 1_555 1_555
H11_20 C7_20 1_555 1_555
Cd3_12 N2_20 1_555 1_555
Cd2_4 N4_20 1_555 1_555
N3_20 Cd1_20 1_555 1_555
N4_20 C8_20 1_555 1_555
N5_20 Cd1_20 1_555 1_555
N6_20 Cd1_20 1_555 1_555
C8_20 H12_20 1_555 1_555
C9_20 N3_20 1_555 1_555
H13_20 C9_20 1_555 1_555
C10_20 N3_20 1_555 1_555
C11_30 C10_20 1_555 1_555
H14_20 C11_30 1_555 1_555
H15_20 C11_30 1_555 1_555
C12_20 C11_30 1_555 1_555
H16_20 C12_20 1_555 1_555
H17_20 C12_20 1_555 1_555
C13_10 C12_20 1_555 1_555
H18_10 C13_10 1_555 1_555
H19_20 C13_10 1_555 1_555
C14_10 C13_10 1_555 1_555
H20_10 C14_10 1_555 1_555
H21_10 C14_10 1_555 1_555
H22_10 C14_10 1_555 1_555
N2_20 C3_20 1_555 1_555
N4_20 C10_20 1_555 1_555
C8_20 C9_20 1_555 1_555
Cd1_21 N1_21 1_555 1_555
N1_21 C2_21 1_555 1_555
N2_21 C1_21 1_555 1_555
C1_21 H1_21 1_555 1_555
C2_21 C1_21 1_555 1_555
H2_21 C2_21 1_555 1_555
C3_21 N1_21 1_555 1_555
C4_21 C3_21 1_555 1_555
H3_21 C4_21 1_555 1_555
H4_21 C4_21 1_555 1_555
C5_21 C4_21 1_555 1_555
H5_21 C5_21 1_555 1_555
H6_21 C5_21 1_555 1_555
C6_21 C5_21 1_555 1_555
H7_21 C6_21 1_555 1_555
H8_21 C6_21 1_555 1_555
C7_21 C6_21 1_555 1_555
H9_21 C7_21 1_555 1_555
H10_21 C7_21 1_555 1_555
H11_21 C7_21 1_555 1_555
Cd3_3 N2_21 1_555 1_555
Cd2_6 N4_21 1_555 1_555
N3_21 Cd1_21 1_555 1_555
N4_21 C8_21 1_555 1_555
N5_21 Cd1_21 1_555 1_555
N6_21 Cd1_21 1_555 1_555
C8_21 H12_21 1_555 1_555
C9_21 N3_21 1_555 1_555
H13_21 C9_21 1_555 1_555
C10_21 N3_21 1_555 1_555
C11_31 C10_21 1_555 1_555
H14_21 C11_31 1_555 1_555
H15_21 C11_31 1_555 1_555
C12_21 C11_31 1_555 1_555
H16_21 C12_21 1_555 1_555
H17_21 C12_21 1_555 1_555
N2_21 C3_21 1_555 1_555
N4_21 C10_21 1_555 1_555
C8_21 C9_21 1_555 1_555
Cd1_22 N1_22 1_555 1_555
N1_22 C2_22 1_555 1_555
N2_22 C1_22 1_555 1_555
C1_22 H1_22 1_555 1_555
C2_22 C1_22 1_555 1_555
H2_22 C2_22 1_555 1_555
C3_22 N1_22 1_555 1_555
C4_22 C3_22 1_555 1_555
H3_22 C4_22 1_555 1_555
H4_22 C4_22 1_555 1_555
C5_22 C4_22 1_555 1_555
H5_22 C5_22 1_555 1_555
H6_22 C5_22 1_555 1_555
C6_22 C5_22 1_555 1_555
H7_22 C6_22 1_555 1_555
H8_22 C6_22 1_555 1_555
C7_22 C6_22 1_555 1_555
H9_22 C7_22 1_555 1_555
H10_22 C7_22 1_555 1_555
H11_22 C7_22 1_555 1_555
Cd3 N2_22 1_555 1_555
N3_22 Cd1_22 1_555 1_555
N5_22 Cd1_22 1_555 1_555
N6_22 Cd1_22 1_555 1_555
C8_22 H12_22 1_555 1_555
C9_22 N3_22 1_555 1_555
H13_22 C9_22 1_555 1_555
C10_22 N3_22 1_555 1_555
C11_32 C10_22 1_555 1_555
H14_22 C11_32 1_555 1_555
N2_22 C3_22 1_555 1_555
C8_22 C9_22 1_555 1_555
Cd2_7 N4_22 1_555 1_555
H15_22 C11_33 1_555 1_555
C12_22 C11_33 1_555 1_555
H17_22 C12_22 1_555 1_555
Cd2_5 N4_23 1_555 1_555
H15_23 C11_34 1_555 1_555
C12_23 C11_34 1_555 1_555
H17_23 C12_23 1_555 1_555
C13_11 C12_23 1_555 1_555
H18_11 C13_11 1_555 1_555
H19_23 C13_11 1_555 1_555
C14_11 C13_11 1_555 1_555
H20_11 C14_11 1_555 1_555
H21_11 C14_11 1_555 1_555
H22_11 C14_11 1_555 1_555
Cd1_23 N1_23 1_555 1_555
N1_23 C2_23 1_555 1_555
N2_23 C1_23 1_555 1_555
C1_23 H1_23 1_555 1_555
C2_23 C1_23 1_555 1_555
H2_23 C2_23 1_555 1_555
C3_23 N1_23 1_555 1_555
C4_23 C3_23 1_555 1_555
H3_23 C4_23 1_555 1_555
H4_23 C4_23 1_555 1_555
C5_23 C4_23 1_555 1_555
H5_23 C5_23 1_555 1_555
H6_23 C5_23 1_555 1_555
C6_23 C5_23 1_555 1_555
H7_23 C6_23 1_555 1_555
H8_23 C6_23 1_555 1_555
C7_23 C6_23 1_555 1_555
H9_23 C7_23 1_555 1_555
H10_23 C7_23 1_555 1_555
H11_23 C7_23 1_555 1_555
Cd3_2 N2_23 1_555 1_555
N3_23 Cd1_23 1_555 1_555
N5_23 Cd1_23 1_555 1_555
N6_23 Cd1_23 1_555 1_555
C8_23 H12_23 1_555 1_555
C9_23 N3_23 1_555 1_555
H13_23 C9_23 1_555 1_555
C10_23 N3_23 1_555 1_555
C11_35 C10_23 1_555 1_555
H14_23 C11_35 1_555 1_555
N2_23 C3_23 1_555 1_555
C8_23 C9_23 1_555 1_555
Cd1_24 N1_24 1_555 1_555
N1_24 C2_24 1_555 1_555
N2_24 C1_24 1_555 1_555
C1_24 H1_24 1_555 1_555
C2_24 C1_24 1_555 1_555
H2_24 C2_24 1_555 1_555
C3_24 N1_24 1_555 1_555
C4_24 C3_24 1_555 1_555
H3_24 C4_24 1_555 1_555
H4_24 C4_24 1_555 1_555
C5_24 C4_24 1_555 1_555
H5_24 C5_24 1_555 1_555
H6_24 C5_24 1_555 1_555
C6_24 C5_24 1_555 1_555
H7_24 C6_24 1_555 1_555
H8_24 C6_24 1_555 1_555
C7_24 C6_24 1_555 1_555
H9_24 C7_24 1_555 1_555
H10_24 C7_24 1_555 1_555
H11_24 C7_24 1_555 1_555
Cd3_4 N2_24 1_555 1_555
Cd2_8 N4_24 1_555 1_555
N3_24 Cd1_24 1_555 1_555
N4_24 C8_24 1_555 1_555
N5_24 Cd1_24 1_555 1_555
N6_24 Cd1_24 1_555 1_555
C8_24 H12_24 1_555 1_555
C9_24 N3_24 1_555 1_555
H13_24 C9_24 1_555 1_555
C10_24 N3_24 1_555 1_555
C11_36 C10_24 1_555 1_555
H14_24 C11_36 1_555 1_555
H15_24 C11_36 1_555 1_555
C12_24 C11_36 1_555 1_555
H16_24 C12_24 1_555 1_555
H17_24 C12_24 1_555 1_555
C13_12 C12_24 1_555 1_555
H18_12 C13_12 1_555 1_555
H19_24 C13_12 1_555 1_555
C14_12 C13_12 1_555 1_555
H20_12 C14_12 1_555 1_555
H21_12 C14_12 1_555 1_555
H22_12 C14_12 1_555 1_555
N2_24 C3_24 1_555 1_555
N4_24 C10_24 1_555 1_555
C8_24 C9_24 1_555 1_555
H15_25 C11_37 1_555 1_555
C12_25 C11_37 1_555 1_555
H17_25 C12_25 1_555 1_555
C13_13 C12_25 1_555 1_555
H18_13 C13_13 1_555 1_555
H19_25 C13_13 1_555 1_555
C14_13 C13_13 1_555 1_555
H20_13 C14_13 1_555 1_555
H21_13 C14_13 1_555 1_555
H22_13 C14_13 1_555 1_555
Cd3_11 N1_25 1_555 1_555
N1_25 C2_25 1_555 1_555
N6_21 C1_25 1_555 1_555
C1_25 H1_25 1_555 1_555
C2_25 C1_25 1_555 1_555
H2_25 C2_25 1_555 1_555
C3_25 N1_25 1_555 1_555
C4_25 C3_25 1_555 1_555
H3_25 C4_25 1_555 1_555
H4_25 C4_25 1_555 1_555
C5_25 C4_25 1_555 1_555
H5_25 C5_25 1_555 1_555
H6_25 C5_25 1_555 1_555
C6_25 C5_25 1_555 1_555
H7_25 C6_25 1_555 1_555
H8_25 C6_25 1_555 1_555
C7_25 C6_25 1_555 1_555
H9_25 C7_25 1_555 1_555
H10_25 C7_25 1_555 1_555
H11_25 C7_25 1_555 1_555
N3_25 Cd3_11 1_555 1_555
C8_25 H12_25 1_555 1_555
C9_25 N3_25 1_555 1_555
H13_25 C9_25 1_555 1_555
C10_25 N3_25 1_555 1_555
C11_38 C10_25 1_555 1_555
H14_25 C11_38 1_555 1_555
N6_21 C3_25 1_555 1_555
C8_25 C9_25 1_555 1_555
Cd3_10 N1_26 1_555 1_555
N1_26 C2_26 1_555 1_555
N6_24 C1_26 1_555 1_555
C1_26 H1_26 1_555 1_555
C2_26 C1_26 1_555 1_555
H2_26 C2_26 1_555 1_555
C3_26 N1_26 1_555 1_555
C4_26 C3_26 1_555 1_555
H3_26 C4_26 1_555 1_555
H4_26 C4_26 1_555 1_555
C5_26 C4_26 1_555 1_555
H5_26 C5_26 1_555 1_555
H6_26 C5_26 1_555 1_555
C6_26 C5_26 1_555 1_555
H7_26 C6_26 1_555 1_555
H8_26 C6_26 1_555 1_555
C7_26 C6_26 1_555 1_555
H9_26 C7_26 1_555 1_555
H10_26 C7_26 1_555 1_555
H11_26 C7_26 1_555 1_555
N3_26 Cd3_10 1_555 1_555
N5_6 C8_26 1_555 1_555
C8_26 H12_26 1_555 1_555
C9_26 N3_26 1_555 1_555
H13_26 C9_26 1_555 1_555
C10_26 N3_26 1_555 1_555
C11_39 C10_26 1_555 1_555
H14_26 C11_39 1_555 1_555
H15_26 C11_39 1_555 1_555
C12_26 C11_39 1_555 1_555
H16_26 C12_26 1_555 1_555
H17_26 C12_26 1_555 1_555
C13_14 C12_26 1_555 1_555
H18_14 C13_14 1_555 1_555
H19_26 C13_14 1_555 1_555
C14_14 C13_14 1_555 1_555
H20_14 C14_14 1_555 1_555
H21_14 C14_14 1_555 1_555
H22_14 C14_14 1_555 1_555
N6_24 C3_26 1_555 1_555
N5_6 C10_26 1_555 1_555
C8_26 C9_26 1_555 1_555
Cd3_12 N1_27 1_555 1_555
N1_27 C2_27 1_555 1_555
N6_22 C1_27 1_555 1_555
C1_27 H1_27 1_555 1_555
C2_27 C1_27 1_555 1_555
H2_27 C2_27 1_555 1_555
C3_27 N1_27 1_555 1_555
C4_27 C3_27 1_555 1_555
H3_27 C4_27 1_555 1_555
H4_27 C4_27 1_555 1_555
C5_27 C4_27 1_555 1_555
H5_27 C5_27 1_555 1_555
H6_27 C5_27 1_555 1_555
C6_27 C5_27 1_555 1_555
H7_27 C6_27 1_555 1_555
H8_27 C6_27 1_555 1_555
C7_27 C6_27 1_555 1_555
H9_27 C7_27 1_555 1_555
H10_27 C7_27 1_555 1_555
H11_27 C7_27 1_555 1_555
N3_27 Cd3_12 1_555 1_555
N5_5 C8_27 1_555 1_555
C8_27 H12_27 1_555 1_555
C9_27 N3_27 1_555 1_555
H13_27 C9_27 1_555 1_555
C10_27 N3_27 1_555 1_555
C11_40 C10_27 1_555 1_555
H14_27 C11_40 1_555 1_555
H15_27 C11_40 1_555 1_555
C12_27 C11_40 1_555 1_555
H16_27 C12_27 1_555 1_555
H17_27 C12_27 1_555 1_555
N6_22 C3_27 1_555 1_555
N5_5 C10_27 1_555 1_555
C8_27 C9_27 1_555 1_555
Cd3_9 N1_28 1_555 1_555
N1_28 C2_28 1_555 1_555
N6_23 C1_28 1_555 1_555
C1_28 H1_28 1_555 1_555
C2_28 C1_28 1_555 1_555
H2_28 C2_28 1_555 1_555
C3_28 N1_28 1_555 1_555
C4_28 C3_28 1_555 1_555
H3_28 C4_28 1_555 1_555
H4_28 C4_28 1_555 1_555
C5_28 C4_28 1_555 1_555
H5_28 C5_28 1_555 1_555
H6_28 C5_28 1_555 1_555
C6_28 C5_28 1_555 1_555
H7_28 C6_28 1_555 1_555
H8_28 C6_28 1_555 1_555
C7_28 C6_28 1_555 1_555
H9_28 C7_28 1_555 1_555
H10_28 C7_28 1_555 1_555
H11_28 C7_28 1_555 1_555
N3_28 Cd3_9 1_555 1_555
C8_28 H12_28 1_555 1_555
C9_28 N3_28 1_555 1_555
H13_28 C9_28 1_555 1_555
C10_28 N3_28 1_555 1_555
C11_41 C10_28 1_555 1_555
H14_28 C11_41 1_555 1_555
N6_23 C3_28 1_555 1_555
C8_28 C9_28 1_555 1_555
H15_28 C11_42 1_555 1_555
C12_28 C11_42 1_555 1_555
H17_28 C12_28 1_555 1_555
H15_29 C11_43 1_555 1_555
C12_29 C11_43 1_555 1_555
H17_29 C12_29 1_555 1_555
C13_15 C12_29 1_555 1_555
H18_15 C13_15 1_555 1_555
H19_29 C13_15 1_555 1_555
C14_15 C13_15 1_555 1_555
H20_15 C14_15 1_555 1_555
H21_15 C14_15 1_555 1_555
H22_15 C14_15 1_555 1_555
Cd3_3 N1_29 1_555 1_555
N1_29 C2_29 1_555 1_555
N6_13 C1_29 1_555 1_555
C1_29 H1_29 1_555 1_555
C2_29 C1_29 1_555 1_555
H2_29 C2_29 1_555 1_555
C3_29 N1_29 1_555 1_555
C4_29 C3_29 1_555 1_555
H3_29 C4_29 1_555 1_555
H4_29 C4_29 1_555 1_555
C5_29 C4_29 1_555 1_555
H5_29 C5_29 1_555 1_555
H6_29 C5_29 1_555 1_555
C6_29 C5_29 1_555 1_555
H7_29 C6_29 1_555 1_555
H8_29 C6_29 1_555 1_555
C7_29 C6_29 1_555 1_555
H9_29 C7_29 1_555 1_555
H10_29 C7_29 1_555 1_555
H11_29 C7_29 1_555 1_555
N3_29 Cd3_3 1_555 1_555
C8_29 H12_29 1_555 1_555
C9_29 N3_29 1_555 1_555
H13_29 C9_29 1_555 1_555
C10_29 N3_29 1_555 1_555
C11_44 C10_29 1_555 1_555
H14_29 C11_44 1_555 1_555
N6_13 C3_29 1_555 1_555
C8_29 C9_29 1_555 1_555
Cd3_2 N1_30 1_555 1_555
N1_30 C2_30 1_555 1_555
N6_16 C1_30 1_555 1_555
C1_30 H1_30 1_555 1_555
C2_30 C1_30 1_555 1_555
H2_30 C2_30 1_555 1_555
C3_30 N1_30 1_555 1_555
C4_30 C3_30 1_555 1_555
H3_30 C4_30 1_555 1_555
H4_30 C4_30 1_555 1_555
C5_30 C4_30 1_555 1_555
H5_30 C5_30 1_555 1_555
H6_30 C5_30 1_555 1_555
C6_30 C5_30 1_555 1_555
H7_30 C6_30 1_555 1_555
H8_30 C6_30 1_555 1_555
C7_30 C6_30 1_555 1_555
H9_30 C7_30 1_555 1_555
H10_30 C7_30 1_555 1_555
H11_30 C7_30 1_555 1_555
N3_30 Cd3_2 1_555 1_555
N5_10 C8_30 1_555 1_555
C8_30 H12_30 1_555 1_555
C9_30 N3_30 1_555 1_555
H13_30 C9_30 1_555 1_555
C10_30 N3_30 1_555 1_555
C11_45 C10_30 1_555 1_555
H14_30 C11_45 1_555 1_555
H15_30 C11_45 1_555 1_555
C12_30 C11_45 1_555 1_555
H16_30 C12_30 1_555 1_555
H17_30 C12_30 1_555 1_555
C13_16 C12_30 1_555 1_555
H18_16 C13_16 1_555 1_555
H19_30 C13_16 1_555 1_555
C14_16 C13_16 1_555 1_555
H20_16 C14_16 1_555 1_555
H21_16 C14_16 1_555 1_555
H22_16 C14_16 1_555 1_555
N6_16 C3_30 1_555 1_555
N5_10 C10_30 1_555 1_555
C8_30 C9_30 1_555 1_555
Cd3_4 N1_31 1_555 1_555
N1_31 C2_31 1_555 1_555
N6_14 C1_31 1_555 1_555
C1_31 H1_31 1_555 1_555
C2_31 C1_31 1_555 1_555
H2_31 C2_31 1_555 1_555
C3_31 N1_31 1_555 1_555
C4_31 C3_31 1_555 1_555
H3_31 C4_31 1_555 1_555
H4_31 C4_31 1_555 1_555
C5_31 C4_31 1_555 1_555
H5_31 C5_31 1_555 1_555
H6_31 C5_31 1_555 1_555
C6_31 C5_31 1_555 1_555
H7_31 C6_31 1_555 1_555
H8_31 C6_31 1_555 1_555
C7_31 C6_31 1_555 1_555
H9_31 C7_31 1_555 1_555
H10_31 C7_31 1_555 1_555
H11_31 C7_31 1_555 1_555
N3_31 Cd3_4 1_555 1_555
N5_9 C8_31 1_555 1_555
C8_31 H12_31 1_555 1_555
C9_31 N3_31 1_555 1_555
H13_31 C9_31 1_555 1_555
C10_31 N3_31 1_555 1_555
C11_46 C10_31 1_555 1_555
H14_31 C11_46 1_555 1_555
H15_31 C11_46 1_555 1_555
C12_31 C11_46 1_555 1_555
H16_31 C12_31 1_555 1_555
H17_31 C12_31 1_555 1_555
N6_14 C3_31 1_555 1_555
N5_9 C10_31 1_555 1_555
C8_31 C9_31 1_555 1_555
Cd3 N1_32 1_555 1_555
N1_32 C2_32 1_555 1_555
N6_15 C1_32 1_555 1_555
C1_32 H1_32 1_555 1_555
C2_32 C1_32 1_555 1_555
H2_32 C2_32 1_555 1_555
C3_32 N1_32 1_555 1_555
C4_32 C3_32 1_555 1_555
H3_32 C4_32 1_555 1_555
H4_32 C4_32 1_555 1_555
C5_32 C4_32 1_555 1_555
H5_32 C5_32 1_555 1_555
H6_32 C5_32 1_555 1_555
C6_32 C5_32 1_555 1_555
H7_32 C6_32 1_555 1_555
H8_32 C6_32 1_555 1_555
C7_32 C6_32 1_555 1_555
H9_32 C7_32 1_555 1_555
H10_32 C7_32 1_555 1_555
H11_32 C7_32 1_555 1_555
N3_32 Cd3 1_555 1_555
C8_32 H12_32 1_555 1_555
C9_32 N3_32 1_555 1_555
H13_32 C9_32 1_555 1_555
C10_32 N3_32 1_555 1_555
C11_47 C10_32 1_555 1_555
H14_32 C11_47 1_555 1_555
N6_15 C3_32 1_555 1_555
C8_32 C9_32 1_555 1_555
H15_32 C11_48 1_555 1_555
C12_32 C11_48 1_555 1_555
H17_32 C12_32 1_555 1_555
H15_33 C11_49 1_555 1_555
C12_33 C11_49 1_555 1_555
H17_33 C12_33 1_555 1_555
C13_17 C12_33 1_555 1_555
H18_17 C13_17 1_555 1_555
H19_33 C13_17 1_555 1_555
C14_17 C13_17 1_555 1_555
H20_17 C14_17 1_555 1_555
H21_17 C14_17 1_555 1_555
H22_17 C14_17 1_555 1_555
Cd3_7 N1_33 1_555 1_555
N1_33 C2_33 1_555 1_555
N6_17 C1_33 1_555 1_555
C1_33 H1_33 1_555 1_555
C2_33 C1_33 1_555 1_555
H2_33 C2_33 1_555 1_555
C3_33 N1_33 1_555 1_555
C4_33 C3_33 1_555 1_555
H3_33 C4_33 1_555 1_555
H4_33 C4_33 1_555 1_555
C5_33 C4_33 1_555 1_555
H5_33 C5_33 1_555 1_555
H6_33 C5_33 1_555 1_555
C6_33 C5_33 1_555 1_555
H7_33 C6_33 1_555 1_555
H8_33 C6_33 1_555 1_555
C7_33 C6_33 1_555 1_555
H9_33 C7_33 1_555 1_555
H10_33 C7_33 1_555 1_555
H11_33 C7_33 1_555 1_555
N3_33 Cd3_7 1_555 1_555
C8_33 H12_33 1_555 1_555
C9_33 N3_33 1_555 1_555
H13_33 C9_33 1_555 1_555
C10_33 N3_33 1_555 1_555
C11_50 C10_33 1_555 1_555
H14_33 C11_50 1_555 1_555
N6_17 C3_33 1_555 1_555
C8_33 C9_33 1_555 1_555
Cd3_6 N1_34 1_555 1_555
N1_34 C2_34 1_555 1_555
N6_20 C1_34 1_555 1_555
C1_34 H1_34 1_555 1_555
C2_34 C1_34 1_555 1_555
H2_34 C2_34 1_555 1_555
C3_34 N1_34 1_555 1_555
C4_34 C3_34 1_555 1_555
H3_34 C4_34 1_555 1_555
H4_34 C4_34 1_555 1_555
C5_34 C4_34 1_555 1_555
H5_34 C5_34 1_555 1_555
H6_34 C5_34 1_555 1_555
C6_34 C5_34 1_555 1_555
H7_34 C6_34 1_555 1_555
H8_34 C6_34 1_555 1_555
C7_34 C6_34 1_555 1_555
H9_34 C7_34 1_555 1_555
H10_34 C7_34 1_555 1_555
H11_34 C7_34 1_555 1_555
N3_34 Cd3_6 1_555 1_555
N5_2 C8_34 1_555 1_555
C8_34 H12_34 1_555 1_555
C9_34 N3_34 1_555 1_555
H13_34 C9_34 1_555 1_555
C10_34 N3_34 1_555 1_555
C11_51 C10_34 1_555 1_555
H14_34 C11_51 1_555 1_555
H15_34 C11_51 1_555 1_555
C12_34 C11_51 1_555 1_555
H16_34 C12_34 1_555 1_555
H17_34 C12_34 1_555 1_555
C13_18 C12_34 1_555 1_555
H18_18 C13_18 1_555 1_555
H19_34 C13_18 1_555 1_555
C14_18 C13_18 1_555 1_555
H20_18 C14_18 1_555 1_555
H21_18 C14_18 1_555 1_555
H22_18 C14_18 1_555 1_555
N6_20 C3_34 1_555 1_555
N5_2 C10_34 1_555 1_555
C8_34 C9_34 1_555 1_555
Cd3_8 N1_35 1_555 1_555
N1_35 C2_35 1_555 1_555
N6_18 C1_35 1_555 1_555
C1_35 H1_35 1_555 1_555
C2_35 C1_35 1_555 1_555
H2_35 C2_35 1_555 1_555
C3_35 N1_35 1_555 1_555
C4_35 C3_35 1_555 1_555
H3_35 C4_35 1_555 1_555
H4_35 C4_35 1_555 1_555
C5_35 C4_35 1_555 1_555
H5_35 C5_35 1_555 1_555
H6_35 C5_35 1_555 1_555
C6_35 C5_35 1_555 1_555
H7_35 C6_35 1_555 1_555
H8_35 C6_35 1_555 1_555
C7_35 C6_35 1_555 1_555
H9_35 C7_35 1_555 1_555
H10_35 C7_35 1_555 1_555
H11_35 C7_35 1_555 1_555
N3_35 Cd3_8 1_555 1_555
N5 C8_35 1_555 1_555
C8_35 H12_35 1_555 1_555
C9_35 N3_35 1_555 1_555
H13_35 C9_35 1_555 1_555
C10_35 N3_35 1_555 1_555
C11_52 C10_35 1_555 1_555
H14_35 C11_52 1_555 1_555
H15_35 C11_52 1_555 1_555
C12_35 C11_52 1_555 1_555
H16_35 C12_35 1_555 1_555
H17_35 C12_35 1_555 1_555
N6_18 C3_35 1_555 1_555
N5 C10_35 1_555 1_555
C8_35 C9_35 1_555 1_555
Cd3_5 N1_36 1_555 1_555
N1_36 C2_36 1_555 1_555
N6_19 C1_36 1_555 1_555
C1_36 H1_36 1_555 1_555
C2_36 C1_36 1_555 1_555
H2_36 C2_36 1_555 1_555
C3_36 N1_36 1_555 1_555
C4_36 C3_36 1_555 1_555
H3_36 C4_36 1_555 1_555
H4_36 C4_36 1_555 1_555
C5_36 C4_36 1_555 1_555
H5_36 C5_36 1_555 1_555
H6_36 C5_36 1_555 1_555
C6_36 C5_36 1_555 1_555
H7_36 C6_36 1_555 1_555
H8_36 C6_36 1_555 1_555
C7_36 C6_36 1_555 1_555
H9_36 C7_36 1_555 1_555
H10_36 C7_36 1_555 1_555
H11_36 C7_36 1_555 1_555
N3_36 Cd3_5 1_555 1_555
C8_36 H12_36 1_555 1_555
C9_36 N3_36 1_555 1_555
H13_36 C9_36 1_555 1_555
C10_36 N3_36 1_555 1_555
C11_53 C10_36 1_555 1_555
H14_36 C11_53 1_555 1_555
N6_19 C3_36 1_555 1_555
C8_36 C9_36 1_555 1_555
H15_36 C11_54 1_555 1_555
C12_36 C11_54 1_555 1_555
H17_36 C12_36 1_555 1_555
Cd2_5 N1_37 1_555 1_555
N1_37 C2_37 1_555 1_555
N6_9 C1_37 1_555 1_555
C1_37 H1_37 1_555 1_555
C2_37 C1_37 1_555 1_555
H2_37 C2_37 1_555 1_555
C3_37 N1_37 1_555 1_555
C4_37 C3_37 1_555 1_555
H3_37 C4_37 1_555 1_555
H4_37 C4_37 1_555 1_555
C5_37 C4_37 1_555 1_555
H5_37 C5_37 1_555 1_555
H6_37 C5_37 1_555 1_555
C6_37 C5_37 1_555 1_555
H7_37 C6_37 1_555 1_555
H8_37 C6_37 1_555 1_555
C7_37 C6_37 1_555 1_555
H9_37 C7_37 1_555 1_555
H10_37 C7_37 1_555 1_555
H11_37 C7_37 1_555 1_555
N3_37 Cd2_5 1_555 1_555
N5_20 C8_37 1_555 1_555
C8_37 H12_37 1_555 1_555
C9_37 N3_37 1_555 1_555
H13_37 C9_37 1_555 1_555
C10_37 N3_37 1_555 1_555
C11_55 C10_37 1_555 1_555
H14_37 C11_55 1_555 1_555
H15_37 C11_55 1_555 1_555
C12_37 C11_55 1_555 1_555
H16_37 C12_37 1_555 1_555
H17_37 C12_37 1_555 1_555
N6_9 C3_37 1_555 1_555
N5_20 C10_37 1_555 1_555
C8_37 C9_37 1_555 1_555
H15_38 C11_56 1_555 1_555
C12_38 C11_56 1_555 1_555
H17_38 C12_38 1_555 1_555
Cd2_7 N1_38 1_555 1_555
N1_38 C2_38 1_555 1_555
N6_12 C1_38 1_555 1_555
C1_38 H1_38 1_555 1_555
C2_38 C1_38 1_555 1_555
H2_38 C2_38 1_555 1_555
C3_38 N1_38 1_555 1_555
C4_38 C3_38 1_555 1_555
H3_38 C4_38 1_555 1_555
H4_38 C4_38 1_555 1_555
C5_38 C4_38 1_555 1_555
H5_38 C5_38 1_555 1_555
H6_38 C5_38 1_555 1_555
C6_38 C5_38 1_555 1_555
H7_38 C6_38 1_555 1_555
H8_38 C6_38 1_555 1_555
C7_38 C6_38 1_555 1_555
H9_38 C7_38 1_555 1_555
H10_38 C7_38 1_555 1_555
H11_38 C7_38 1_555 1_555
N3_38 Cd2_7 1_555 1_555
C8_38 H12_38 1_555 1_555
C9_38 N3_38 1_555 1_555
H13_38 C9_38 1_555 1_555
C10_38 N3_38 1_555 1_555
C11_57 C10_38 1_555 1_555
H14_38 C11_57 1_555 1_555
N6_12 C3_38 1_555 1_555
C8_38 C9_38 1_555 1_555
Cd2_8 N1_39 1_555 1_555
N1_39 C2_39 1_555 1_555
N6_10 C1_39 1_555 1_555
C1_39 H1_39 1_555 1_555
C2_39 C1_39 1_555 1_555
H2_39 C2_39 1_555 1_555
C3_39 N1_39 1_555 1_555
C4_39 C3_39 1_555 1_555
H3_39 C4_39 1_555 1_555
H4_39 C4_39 1_555 1_555
C5_39 C4_39 1_555 1_555
H5_39 C5_39 1_555 1_555
H6_39 C5_39 1_555 1_555
C6_39 C5_39 1_555 1_555
H7_39 C6_39 1_555 1_555
H8_39 C6_39 1_555 1_555
C7_39 C6_39 1_555 1_555
H9_39 C7_39 1_555 1_555
H10_39 C7_39 1_555 1_555
H11_39 C7_39 1_555 1_555
N3_39 Cd2_8 1_555 1_555
C8_39 H12_39 1_555 1_555
C9_39 N3_39 1_555 1_555
H13_39 C9_39 1_555 1_555
C10_39 N3_39 1_555 1_555
C11_58 C10_39 1_555 1_555
H14_39 C11_58 1_555 1_555
N6_10 C3_39 1_555 1_555
C8_39 C9_39 1_555 1_555
H15_39 C11_59 1_555 1_555
C12_39 C11_59 1_555 1_555
H17_39 C12_39 1_555 1_555
C13_19 C12_39 1_555 1_555
H18_19 C13_19 1_555 1_555
H19_39 C13_19 1_555 1_555
C14_19 C13_19 1_555 1_555
H20_19 C14_19 1_555 1_555
H21_19 C14_19 1_555 1_555
H22_19 C14_19 1_555 1_555
Cd2_6 N1_40 1_555 1_555
N1_40 C2_40 1_555 1_555
N6_11 C1_40 1_555 1_555
C1_40 H1_40 1_555 1_555
C2_40 C1_40 1_555 1_555
H2_40 C2_40 1_555 1_555
C3_40 N1_40 1_555 1_555
C4_40 C3_40 1_555 1_555
H3_40 C4_40 1_555 1_555
H4_40 C4_40 1_555 1_555
C5_40 C4_40 1_555 1_555
H5_40 C5_40 1_555 1_555
H6_40 C5_40 1_555 1_555
C6_40 C5_40 1_555 1_555
H7_40 C6_40 1_555 1_555
H8_40 C6_40 1_555 1_555
C7_40 C6_40 1_555 1_555
H9_40 C7_40 1_555 1_555
H10_40 C7_40 1_555 1_555
H11_40 C7_40 1_555 1_555
N3_40 Cd2_6 1_555 1_555
N5_19 C8_40 1_555 1_555
C8_40 H12_40 1_555 1_555
C9_40 N3_40 1_555 1_555
H13_40 C9_40 1_555 1_555
C10_40 N3_40 1_555 1_555
C11_60 C10_40 1_555 1_555
H14_40 C11_60 1_555 1_555
H15_40 C11_60 1_555 1_555
C12_40 C11_60 1_555 1_555
H16_40 C12_40 1_555 1_555
H17_40 C12_40 1_555 1_555
C13_20 C12_40 1_555 1_555
H18_20 C13_20 1_555 1_555
H19_40 C13_20 1_555 1_555
C14_20 C13_20 1_555 1_555
H20_20 C14_20 1_555 1_555
H21_20 C14_20 1_555 1_555
H22_20 C14_20 1_555 1_555
N6_11 C3_40 1_555 1_555
N5_19 C10_40 1_555 1_555
C8_40 C9_40 1_555 1_555
Cd2_9 N1_41 1_555 1_555
N1_41 C2_41 1_555 1_555
N6 C1_41 1_555 1_555
C1_41 H1_41 1_555 1_555
C2_41 C1_41 1_555 1_555
H2_41 C2_41 1_555 1_555
C3_41 N1_41 1_555 1_555
C4_41 C3_41 1_555 1_555
H3_41 C4_41 1_555 1_555
H4_41 C4_41 1_555 1_555
C5_41 C4_41 1_555 1_555
H5_41 C5_41 1_555 1_555
H6_41 C5_41 1_555 1_555
C6_41 C5_41 1_555 1_555
H7_41 C6_41 1_555 1_555
H8_41 C6_41 1_555 1_555
C7_41 C6_41 1_555 1_555
H9_41 C7_41 1_555 1_555
H10_41 C7_41 1_555 1_555
H11_41 C7_41 1_555 1_555
N3_41 Cd2_9 1_555 1_555
N5_24 C8_41 1_555 1_555
C8_41 H12_41 1_555 1_555
C9_41 N3_41 1_555 1_555
H13_41 C9_41 1_555 1_555
C10_41 N3_41 1_555 1_555
C11_61 C10_41 1_555 1_555
H14_41 C11_61 1_555 1_555
H15_41 C11_61 1_555 1_555
C12_41 C11_61 1_555 1_555
H16_41 C12_41 1_555 1_555
H17_41 C12_41 1_555 1_555
N6 C3_41 1_555 1_555
N5_24 C10_41 1_555 1_555
C8_41 C9_41 1_555 1_555
H15_42 C11_62 1_555 1_555
C12_42 C11_62 1_555 1_555
H17_42 C12_42 1_555 1_555
Cd2_11 N1_42 1_555 1_555
N1_42 C2_42 1_555 1_555
N6_4 C1_42 1_555 1_555
C1_42 H1_42 1_555 1_555
C2_42 C1_42 1_555 1_555
H2_42 C2_42 1_555 1_555
C3_42 N1_42 1_555 1_555
C4_42 C3_42 1_555 1_555
H3_42 C4_42 1_555 1_555
H4_42 C4_42 1_555 1_555
C5_42 C4_42 1_555 1_555
H5_42 C5_42 1_555 1_555
H6_42 C5_42 1_555 1_555
C6_42 C5_42 1_555 1_555
H7_42 C6_42 1_555 1_555
H8_42 C6_42 1_555 1_555
C7_42 C6_42 1_555 1_555
H9_42 C7_42 1_555 1_555
H10_42 C7_42 1_555 1_555
H11_42 C7_42 1_555 1_555
N3_42 Cd2_11 1_555 1_555
C8_42 H12_42 1_555 1_555
C9_42 N3_42 1_555 1_555
H13_42 C9_42 1_555 1_555
C10_42 N3_42 1_555 1_555
C11_63 C10_42 1_555 1_555
H14_42 C11_63 1_555 1_555
N6_4 C3_42 1_555 1_555
C8_42 C9_42 1_555 1_555
Cd2_12 N1_43 1_555 1_555
N1_43 C2_43 1_555 1_555
N6_2 C1_43 1_555 1_555
C1_43 H1_43 1_555 1_555
C2_43 C1_43 1_555 1_555
H2_43 C2_43 1_555 1_555
C3_43 N1_43 1_555 1_555
C4_43 C3_43 1_555 1_555
H3_43 C4_43 1_555 1_555
H4_43 C4_43 1_555 1_555
C5_43 C4_43 1_555 1_555
H5_43 C5_43 1_555 1_555
H6_43 C5_43 1_555 1_555
C6_43 C5_43 1_555 1_555
H7_43 C6_43 1_555 1_555
H8_43 C6_43 1_555 1_555
C7_43 C6_43 1_555 1_555
H9_43 C7_43 1_555 1_555
H10_43 C7_43 1_555 1_555
H11_43 C7_43 1_555 1_555
N3_43 Cd2_12 1_555 1_555
C8_43 H12_43 1_555 1_555
C9_43 N3_43 1_555 1_555
H13_43 C9_43 1_555 1_555
C10_43 N3_43 1_555 1_555
C11_64 C10_43 1_555 1_555
H14_43 C11_64 1_555 1_555
N6_2 C3_43 1_555 1_555
C8_43 C9_43 1_555 1_555
H15_43 C11_65 1_555 1_555
C12_43 C11_65 1_555 1_555
H17_43 C12_43 1_555 1_555
C13_21 C12_43 1_555 1_555
H18_21 C13_21 1_555 1_555
H19_43 C13_21 1_555 1_555
C14_21 C13_21 1_555 1_555
H20_21 C14_21 1_555 1_555
H21_21 C14_21 1_555 1_555
H22_21 C14_21 1_555 1_555
Cd2_10 N1_44 1_555 1_555
N1_44 C2_44 1_555 1_555
N6_3 C1_44 1_555 1_555
C1_44 H1_44 1_555 1_555
C2_44 C1_44 1_555 1_555
H2_44 C2_44 1_555 1_555
C3_44 N1_44 1_555 1_555
C4_44 C3_44 1_555 1_555
H3_44 C4_44 1_555 1_555
H4_44 C4_44 1_555 1_555
C5_44 C4_44 1_555 1_555
H5_44 C5_44 1_555 1_555
H6_44 C5_44 1_555 1_555
C6_44 C5_44 1_555 1_555
H7_44 C6_44 1_555 1_555
H8_44 C6_44 1_555 1_555
C7_44 C6_44 1_555 1_555
H9_44 C7_44 1_555 1_555
H10_44 C7_44 1_555 1_555
H11_44 C7_44 1_555 1_555
N3_44 Cd2_10 1_555 1_555
N5_23 C8_44 1_555 1_555
C8_44 H12_44 1_555 1_555
C9_44 N3_44 1_555 1_555
H13_44 C9_44 1_555 1_555
C10_44 N3_44 1_555 1_555
C11_66 C10_44 1_555 1_555
H14_44 C11_66 1_555 1_555
H15_44 C11_66 1_555 1_555
C12_44 C11_66 1_555 1_555
H16_44 C12_44 1_555 1_555
H17_44 C12_44 1_555 1_555
C13_22 C12_44 1_555 1_555
H18_22 C13_22 1_555 1_555
H19_44 C13_22 1_555 1_555
C14_22 C13_22 1_555 1_555
H20_22 C14_22 1_555 1_555
H21_22 C14_22 1_555 1_555
H22_22 C14_22 1_555 1_555
N6_3 C3_44 1_555 1_555
N5_23 C10_44 1_555 1_555
C8_44 C9_44 1_555 1_555
Cd2 N1_45 1_555 1_555
N1_45 C2_45 1_555 1_555
N6_5 C1_45 1_555 1_555
C1_45 H1_45 1_555 1_555
C2_45 C1_45 1_555 1_555
H2_45 C2_45 1_555 1_555
C3_45 N1_45 1_555 1_555
C4_45 C3_45 1_555 1_555
H3_45 C4_45 1_555 1_555
H4_45 C4_45 1_555 1_555
C5_45 C4_45 1_555 1_555
H5_45 C5_45 1_555 1_555
H6_45 C5_45 1_555 1_555
C6_45 C5_45 1_555 1_555
H7_45 C6_45 1_555 1_555
H8_45 C6_45 1_555 1_555
C7_45 C6_45 1_555 1_555
H9_45 C7_45 1_555 1_555
H10_45 C7_45 1_555 1_555
H11_45 C7_45 1_555 1_555
N3_45 Cd2 1_555 1_555
N5_16 C8_45 1_555 1_555
C8_45 H12_45 1_555 1_555
C9_45 N3_45 1_555 1_555
H13_45 C9_45 1_555 1_555
C10_45 N3_45 1_555 1_555
C11_67 C10_45 1_555 1_555
H14_45 C11_67 1_555 1_555
H15_45 C11_67 1_555 1_555
C12_45 C11_67 1_555 1_555
H16_45 C12_45 1_555 1_555
H17_45 C12_45 1_555 1_555
N6_5 C3_45 1_555 1_555
N5_16 C10_45 1_555 1_555
C8_45 C9_45 1_555 1_555
H15_46 C11_68 1_555 1_555
C12_46 C11_68 1_555 1_555
H17_46 C12_46 1_555 1_555
Cd2_3 N1_46 1_555 1_555
N1_46 C2_46 1_555 1_555
N6_8 C1_46 1_555 1_555
C1_46 H1_46 1_555 1_555
C2_46 C1_46 1_555 1_555
H2_46 C2_46 1_555 1_555
C3_46 N1_46 1_555 1_555
C4_46 C3_46 1_555 1_555
H3_46 C4_46 1_555 1_555
H4_46 C4_46 1_555 1_555
C5_46 C4_46 1_555 1_555
H5_46 C5_46 1_555 1_555
H6_46 C5_46 1_555 1_555
C6_46 C5_46 1_555 1_555
H7_46 C6_46 1_555 1_555
H8_46 C6_46 1_555 1_555
C7_46 C6_46 1_555 1_555
H9_46 C7_46 1_555 1_555
H10_46 C7_46 1_555 1_555
H11_46 C7_46 1_555 1_555
N3_46 Cd2_3 1_555 1_555
C8_46 H12_46 1_555 1_555
C9_46 N3_46 1_555 1_555
H13_46 C9_46 1_555 1_555
C10_46 N3_46 1_555 1_555
C11_69 C10_46 1_555 1_555
H14_46 C11_69 1_555 1_555
N6_8 C3_46 1_555 1_555
C8_46 C9_46 1_555 1_555
Cd2_4 N1_47 1_555 1_555
N1_47 C2_47 1_555 1_555
N6_6 C1_47 1_555 1_555
C1_47 H1_47 1_555 1_555
C2_47 C1_47 1_555 1_555
H2_47 C2_47 1_555 1_555
C3_47 N1_47 1_555 1_555
C4_47 C3_47 1_555 1_555
H3_47 C4_47 1_555 1_555
H4_47 C4_47 1_555 1_555
C5_47 C4_47 1_555 1_555
H5_47 C5_47 1_555 1_555
H6_47 C5_47 1_555 1_555
C6_47 C5_47 1_555 1_555
H7_47 C6_47 1_555 1_555
H8_47 C6_47 1_555 1_555
C7_47 C6_47 1_555 1_555
H9_47 C7_47 1_555 1_555
H10_47 C7_47 1_555 1_555
H11_47 C7_47 1_555 1_555
N3_47 Cd2_4 1_555 1_555
C8_47 H12_47 1_555 1_555
C9_47 N3_47 1_555 1_555
H13_47 C9_47 1_555 1_555
C10_47 N3_47 1_555 1_555
C11_70 C10_47 1_555 1_555
H14_47 C11_70 1_555 1_555
N6_6 C3_47 1_555 1_555
C8_47 C9_47 1_555 1_555
H15_47 C11_71 1_555 1_555
C12_47 C11_71 1_555 1_555
H17_47 C12_47 1_555 1_555
C13_23 C12_47 1_555 1_555
H18_23 C13_23 1_555 1_555
H19_47 C13_23 1_555 1_555
C14_23 C13_23 1_555 1_555
H20_23 C14_23 1_555 1_555
H21_23 C14_23 1_555 1_555
H22_23 C14_23 1_555 1_555
Cd2_2 N1_48 1_555 1_555
N1_48 C2_48 1_555 1_555
N6_7 C1_48 1_555 1_555
C1_48 H1_48 1_555 1_555
C2_48 C1_48 1_555 1_555
H2_48 C2_48 1_555 1_555
C3_48 N1_48 1_555 1_555
C4_48 C3_48 1_555 1_555
H3_48 C4_48 1_555 1_555
H4_48 C4_48 1_555 1_555
C5_48 C4_48 1_555 1_555
H5_48 C5_48 1_555 1_555
H6_48 C5_48 1_555 1_555
C6_48 C5_48 1_555 1_555
H7_48 C6_48 1_555 1_555
H8_48 C6_48 1_555 1_555
C7_48 C6_48 1_555 1_555
H9_48 C7_48 1_555 1_555
H10_48 C7_48 1_555 1_555
H11_48 C7_48 1_555 1_555
N3_48 Cd2_2 1_555 1_555
N5_15 C8_48 1_555 1_555
C8_48 H12_48 1_555 1_555
C9_48 N3_48 1_555 1_555
H13_48 C9_48 1_555 1_555
C10_48 N3_48 1_555 1_555
C11_72 C10_48 1_555 1_555
H14_48 C11_72 1_555 1_555
H15_48 C11_72 1_555 1_555
C12_48 C11_72 1_555 1_555
H16_48 C12_48 1_555 1_555
H17_48 C12_48 1_555 1_555
C13_24 C12_48 1_555 1_555
H18_24 C13_24 1_555 1_555
H19_48 C13_24 1_555 1_555
C14_24 C13_24 1_555 1_555
H20_24 C14_24 1_555 1_555
H21_24 C14_24 1_555 1_555
H22_24 C14_24 1_555 1_555
N6_7 C3_48 1_555 1_555
N5_15 C10_48 1_555 1_555
C8_48 C9_48 1_555 1_555
H18_25 C13_25 1_555 1_555
C14_25 C13_25 1_555 1_555
H20_25 C14_25 1_555 1_555
H21_25 C14_25 1_555 1_555
H22_25 C14_25 1_555 1_555
H18_26 C13_26 1_555 1_555
C14_26 C13_26 1_555 1_555
H20_26 C14_26 1_555 1_555
H21_26 C14_26 1_555 1_555
H22_26 C14_26 1_555 1_555
H18_27 C13_27 1_555 1_555
C14_27 C13_27 1_555 1_555
H20_27 C14_27 1_555 1_555
H21_27 C14_27 1_555 1_555
H22_27 C14_27 1_555 1_555
H18_28 C13_28 1_555 1_555
C14_28 C13_28 1_555 1_555
H20_28 C14_28 1_555 1_555
H21_28 C14_28 1_555 1_555
H22_28 C14_28 1_555 1_555
H18_29 C13_29 1_555 1_555
C14_29 C13_29 1_555 1_555
H20_29 C14_29 1_555 1_555
H21_29 C14_29 1_555 1_555
H22_29 C14_29 1_555 1_555
H18_30 C13_30 1_555 1_555
C14_30 C13_30 1_555 1_555
H20_30 C14_30 1_555 1_555
H21_30 C14_30 1_555 1_555
H22_30 C14_30 1_555 1_555
H18_31 C13_31 1_555 1_555
C14_31 C13_31 1_555 1_555
H20_31 C14_31 1_555 1_555
H21_31 C14_31 1_555 1_555
H22_31 C14_31 1_555 1_555
H18_32 C13_32 1_555 1_555
C14_32 C13_32 1_555 1_555
H20_32 C14_32 1_555 1_555
H21_32 C14_32 1_555 1_555
H22_32 C14_32 1_555 1_555
H18_33 C13_33 1_555 1_555
C14_33 C13_33 1_555 1_555
H20_33 C14_33 1_555 1_555
H21_33 C14_33 1_555 1_555
H22_33 C14_33 1_555 1_555
H18_34 C13_34 1_555 1_555
C14_34 C13_34 1_555 1_555
H20_34 C14_34 1_555 1_555
H21_34 C14_34 1_555 1_555
H22_34 C14_34 1_555 1_555
H18_35 C13_35 1_555 1_555
C14_35 C13_35 1_555 1_555
H20_35 C14_35 1_555 1_555
H21_35 C14_35 1_555 1_555
H22_35 C14_35 1_555 1_555
H18_36 C13_36 1_555 1_555
C14_36 C13_36 1_555 1_555
H20_36 C14_36 1_555 1_555
H21_36 C14_36 1_555 1_555
H22_36 C14_36 1_555 1_555
H18_37 C13_37 1_555 1_555
C14_37 C13_37 1_555 1_555
H20_37 C14_37 1_555 1_555
H21_37 C14_37 1_555 1_555
H22_37 C14_37 1_555 1_555
H18_38 C13_38 1_555 1_555
C14_38 C13_38 1_555 1_555
H20_38 C14_38 1_555 1_555
H21_38 C14_38 1_555 1_555
H22_38 C14_38 1_555 1_555
H18_39 C13_39 1_555 1_555
C14_39 C13_39 1_555 1_555
H20_39 C14_39 1_555 1_555
H21_39 C14_39 1_555 1_555
H22_39 C14_39 1_555 1_555
H18_40 C13_40 1_555 1_555
C14_40 C13_40 1_555 1_555
H20_40 C14_40 1_555 1_555
H21_40 C14_40 1_555 1_555
H22_40 C14_40 1_555 1_555
H18_41 C13_41 1_555 1_555
C14_41 C13_41 1_555 1_555
H20_41 C14_41 1_555 1_555
H21_41 C14_41 1_555 1_555
H22_41 C14_41 1_555 1_555
H18_42 C13_42 1_555 1_555
C14_42 C13_42 1_555 1_555
H20_42 C14_42 1_555 1_555
H21_42 C14_42 1_555 1_555
H22_42 C14_42 1_555 1_555
H18_43 C13_43 1_555 1_555
C14_43 C13_43 1_555 1_555
H20_43 C14_43 1_555 1_555
H21_43 C14_43 1_555 1_555
H22_43 C14_43 1_555 1_555
H18_44 C13_44 1_555 1_555
C14_44 C13_44 1_555 1_555
H20_44 C14_44 1_555 1_555
H21_44 C14_44 1_555 1_555
H22_44 C14_44 1_555 1_555
H18_45 C13_45 1_555 1_555
C14_45 C13_45 1_555 1_555
H20_45 C14_45 1_555 1_555
H21_45 C14_45 1_555 1_555
H22_45 C14_45 1_555 1_555
H18_46 C13_46 1_555 1_555
C14_46 C13_46 1_555 1_555
H20_46 C14_46 1_555 1_555
H21_46 C14_46 1_555 1_555
H22_46 C14_46 1_555 1_555
H18_47 C13_47 1_555 1_555
C14_47 C13_47 1_555 1_555
H20_47 C14_47 1_555 1_555
H21_47 C14_47 1_555 1_555
H22_47 C14_47 1_555 1_555
H18_48 C13_48 1_555 1_555
C14_48 C13_48 1_555 1_555
H20_48 C14_48 1_555 1_555
H21_48 C14_48 1_555 1_555
H22_48 C14_48 1_555 1_555

#END
