
###############################################################################
#
# This file contains modified crystal structure data generated from the
# MOF subset of the Cambridge Structural Database (CSD) v543 
# hosted by the Cambridge Crystallographic Data Centre (CCDC).
#
# This work is licensed under the Creative Commons
# Attribution-NonCommercial-ShareAlike 4.0 International License.
# To view a copy of this license, visit
# http://creativecommons.org/licenses/by-nc-sa/4.0/
# or send a letter to
# Creative Commons, PO Box 1866, Mountain View, CA 94042, USA.
#
# CIF created using the CSD Python API on 29 September 2022
# The structure has been converted into the P1 space group
# The structure has a 3D framework
# The original CSD entry GUPFAZ is in the rhombohedral crystal system
# The framework has been calculated to contain at least 10.0% void space
# The void calculation uses a probe of radius 1.32A, grid spacing 0.4
#
###############################################################################

data_GUPFAZ
_chemical_formula_moiety         '(C864 H1296 N288 Zn60)n'
_symmetry_cell_setting           triclinic
_symmetry_space_group_name_H-M   'P 1'
_symmetry_Int_Tables_number      1
_space_group_name_Hall           'P 1'
loop_
_symmetry_equiv_pos_site_id
_symmetry_equiv_pos_as_xyz
1 x,y,z
_cell_length_a                   37.4151(18)
_cell_length_b                   37.4151(18)
_cell_length_c                   22.9120(13)
_cell_angle_alpha                90
_cell_angle_beta                 90
_cell_angle_gamma                120
_cell_volume                     27777.1
loop_
_atom_site_label
_atom_site_type_symbol
_atom_site_fract_x
_atom_site_fract_y
_atom_site_fract_z
N2 N 0.1522(2) 0.0458(2) 0.0379(3)
C6 C 0.1532(3) 0.0240(3) 0.0855(4)
H9 H 0.1627 0.0346 0.1226
Zn5 Zn 0.17852(4) 0.10708(3) 0.03587(4)
C1 C 0.0805(5) 0.0319(5) 0.8628(7)
H1 H 0.0523 0.0247 0.8567
H2 H 0.0881 0.0179 0.8346
H3 H 0.0980 0.0612 0.8586
C2 C 0.0855(4) 0.0187(4) 0.9258(5)
H4 H 0.0777 0.0327 0.9545
C3 C 0.1302(3) 0.0298(3) 0.9353(4)
H6 H 0.1377 0.0157 0.9066
H7 H 0.1481 0.0593 0.9298
C4 C 0.1366(2) 0.0183(3) 0.9950(4)
Zn3 Zn 0.13112(4) 0.79778(4) 0.0833
N1 N 0.1275(2) 0.9802(2) 0.0099(3)
N3 N 0.1500(2) 0.6091(2) 0.0483(3)
N6 N 0.1113(2) 0.7518(2) 0.0260(3)
N7 N 0.1416(2) 0.8512(2) 0.0493(3)
N8 N 0.1311(2) 0.8986(2) 0.0061(3)
C5 C 0.1376(3) 0.9842(3) 0.0686(4)
H8 H 0.1343 0.9628 0.0928
C7 C 0.0244(5) 0.6054(6) 0.0880(8)
H11 H 0.0273 0.6317 0.0787
H12 H 0.0310 0.6050 0.1284
C8 C 0.0542(4) 0.5979(4) 0.0492(6)
H13 H 0.0512 0.5712 0.0582
H14 H 0.0476 0.5981 0.0084
C9 C 0.0983(3) 0.6316(3) 0.0608(4)
H15 H 0.1011 0.6581 0.0512
H16 H 0.1043 0.6318 0.1020
C10 C 0.1291(3) 0.6259(3) 0.0259(4)
C11 C 0.1738(3) 0.6089(3) 0.0023(5)
H17 H 0.1922 0.5990 0.0034
H25 H 0.1886 0.7682 0.0266
C18 C 0.0699(3) 0.7244(3) 0.0158(4)
H27 H 0.0480 0.7259 0.0322
H34 H 0.0704 0.7999 0.0064
C22 C 0.1184(3) 0.8593(3) 0.0142(4)
C23 C 0.1722(3) 0.8893(4) 0.0659(4)
H35 H 0.1935 0.8943 0.0915
C24 C 0.1669(3) 0.9186(3) 0.0396(4)
H36 H 0.1840 0.9470 0.0431
Zn4 Zn 0.26189(3) 0.77375(3) 0.20254(4)
Zn7 Zn 0.15481(4) 0.59523(3) 0.13080(4)
Zn8 Zn 0.07144(3) 0.89292(3) 0.46413(4)
N12 N 0.0576(2) 0.8742(3) 0.3816(3)
N15 N 0.0294(2) 0.8331(3) 0.3039(3)
N16 N 0.0370(2) 0.7724(2) 0.2039(3)
N19 N 0.0851(2) 0.7780(2) 0.1407(3)
N20 N 0.1845(2) 0.8083(2) 0.1174(3)
N21 N 0.2319(2) 0.7978(2) 0.1606(3)
C25 C 0.0319(5) 0.9514(7) 0.1372(7)
H37 H 0.0247 0.9724 0.1433
H38 H 0.0179 0.9298 0.1654
H39 H 0.0612 0.9632 0.1414
C26 C 0.0187(4) 0.9332(6) 0.0742(5)
H40 H 0.0327 0.9550 0.0455
C27 C 0.0298(3) 0.8996(4) 0.0647(4)
H42 H 0.0157 0.8780 0.0934
H43 H 0.0593 0.9112 0.0702
C28 C 0.0183(3) 0.8817(4) 0.0050(4)
C31 C 0.0613(6) 0.7523(8) 0.4213(8)
H46 H 0.0827 0.7458 0.4142
H47 H 0.0350 0.7289 0.4120
H48 H 0.0617 0.7593 0.4617
C32 C 0.0688(4) 0.7896(6) 0.3825(6)
H49 H 0.0955 0.8133 0.3915
H50 H 0.0686 0.7828 0.3417
C33 C 0.0351(3) 0.8000(4) 0.3941(4)
H51 H 0.0086 0.7763 0.3845
H52 H 0.0349 0.8058 0.4353
C34 C 0.0408(3) 0.8365(4) 0.3592(4)
C35 C 0.0578(3) 0.8982(4) 0.3356(5)
H53 H 0.0677 0.9265 0.3367
C36 C 0.0409(3) 0.8730(4) 0.2886(4)
H54 H 0.0376 0.8814 0.2518
C37 C 0.1477(5) 0.9089(4) 0.2229(7)
H55 H 0.1709 0.9208 0.2488
H56 H 0.1270 0.9147 0.2371
H57 H 0.1563 0.9205 0.1846
C38 C 0.1295(4) 0.8615(4) 0.2200(6)
H58 H 0.1502 0.8553 0.2057
H59 H 0.1209 0.8495 0.2586
C39 C 0.0923(3) 0.8434(3) 0.1786(4)
H60 H 0.0726 0.8512 0.1923
H61 H 0.1015 0.8553 0.1401
C40 C 0.0709(3) 0.7972(3) 0.1738(4)
C41 C 0.0284(3) 0.7333(3) 0.1887(4)
H62 H 0.0062 0.7087 0.2022
C42 C 0.0577(3) 0.7366(3) 0.1509(4)
H63 H 0.0592 0.7147 0.1345
C43 C 0.1154(5) 0.7150(6) 0.2713(7)
H64 H 0.1102 0.7198 0.3107
H65 H 0.1228 0.6938 0.2708
H66 H 0.0910 0.7064 0.2482
C44 C 0.1515(4) 0.7556(4) 0.2454(5)
H67 H 0.1446 0.7773 0.2464
H68 H 0.1764 0.7644 0.2683
C45 C 0.1586(3) 0.7470(3) 0.1821(4)
H69 H 0.1658 0.7255 0.1819
H70 H 0.1332 0.7371 0.1603
C46 C 0.1926(3) 0.7851(3) 0.1525(4)
C47 C 0.2226(4) 0.8389(3) 0.1008(4)
H71 H 0.2276 0.8602 0.0752
C48 C 0.2519(3) 0.8336(3) 0.1271(4)
H72 H 0.2803 0.8507 0.1236
Zn1 Zn 0.10708(3) 0.92856(3) 0.96413(4)
Zn2 Zn 0.11889(4) 0.6667 0.9167
N4 N 0.1371(2) 0.6373(2) 0.9706(3)
N5 N 0.1057(2) 0.7037(2) 0.9628(3)
H5 H 0.0674 0.9891 0.9306
C12 C 0.1655(3) 0.6258(3) 0.9553(4)
H18 H 0.1772 0.6291 0.9185
C13 C 0.2422(4) 0.8144(5) 0.9438(7)
H19 H 0.2541 0.8376 0.9179
H20 H 0.2480 0.7937 0.9296
H21 H 0.2538 0.8230 0.9821
C14 C 0.1948(4) 0.7962(4) 0.9467(6)
H22 H 0.1886 0.8169 0.9610
H23 H 0.1828 0.7876 0.9081
C15 C 0.1767(3) 0.7590(3) 0.9881(4)
H24 H 0.1845 0.7393 0.9744
C16 C 0.1305(3) 0.7376(3) 0.9929(4)
C17 C 0.0666(3) 0.6951(3) 0.9780(4)
H26 H 0.0420 0.6729 0.9645
C19 C 0.0483(6) 0.7821(5) 0.8954(7)
H28 H 0.0531 0.7769 0.8560
H29 H 0.0271 0.7895 0.8959
H30 H 0.0397 0.7577 0.9185
C20 C 0.0889(4) 0.8182(4) 0.9213(5)
H31 H 0.1106 0.8113 0.9203
H32 H 0.0977 0.8431 0.8984
C21 C 0.0803(3) 0.8253(3) 0.9846(4)
H33 H 0.0588 0.8325 0.9848
N10 N 0.0458(2) 0.8936(3) 0.9621(3)
N11 N 0.1258(3) 0.9424(2) 0.8816(3)
N13 N 0.1665(3) 0.6960(2) 0.8627(3)
N17 N 0.0687(3) 0.6296(2) 0.8705(3)
C30 C 0.0240(3) 0.8708(4) 0.9145(4)
H45 H 0.0346 0.8719 0.8774
H10 H 0.9965 0.5840 0.0809
Zn6 Zn 0.92856(3) 0.82148(4) 0.03587(4)
Zn9 Zn 1.0000 0.78552(4) 0.2500
N14 N 0.9706(2) 0.8038(2) 0.1961(3)
N18 N 0.9630(2) 0.7353(3) 0.2961(3)
H41 H 0.9891 0.9217 0.0694
N9 N 0.9802(2) 0.8527(3) 0.9901(3)
C29 C 0.9842(3) 0.8466(4) 0.9314(4)
H44 H 0.9628 0.8285 0.9072
Zn3_2 Zn 0.20222(4) 0.33334(6) 0.0833
N1_2 N 0.0198(2) 0.1473(3) 0.0099(3)
N3_2 N 0.3909(2) 0.5409(3) 0.0483(3)
N6_2 N 0.2482(2) 0.3595(3) 0.0260(3)
N7_2 N 0.1488(2) 0.2904(3) 0.0493(3)
N8_2 N 0.1014(2) 0.2325(3) 0.0061(3)
C5_2 C 0.0158(3) 0.1534(4) 0.0686(4)
H8_2 H 0.0372 0.1715 0.0928
C7_2 C 0.3946(6) 0.4190(8) 0.0880(8)
H10_2 H 0.4160 0.4125 0.0809
H11_2 H 0.3683 0.3956 0.0787
H12_2 H 0.3950 0.4260 0.1284
C8_2 C 0.4021(4) 0.4563(6) 0.0492(6)
H13_2 H 0.4288 0.4800 0.0582
H14_2 H 0.4019 0.4495 0.0084
C9_2 C 0.3684(3) 0.4667(4) 0.0608(4)
H15_2 H 0.3419 0.4430 0.0512
H16_2 H 0.3682 0.4725 0.1020
C10_2 C 0.3741(3) 0.5032(4) 0.0259(4)
C11_2 C 0.3911(3) 0.5649(4) 0.0023(5)
H17_2 H 0.4010 0.5932 0.0034
H25_2 H 0.2318 0.4204 0.0266
C18_2 C 0.2756(3) 0.3455(4) 0.0158(4)
H27_2 H 0.2741 0.3221 0.0322
H34_2 H 0.2001 0.2705 0.0064
C22_2 C 0.1407(3) 0.2591(4) 0.0142(4)
C23_2 C 0.1107(4) 0.2829(5) 0.0659(4)
H35_2 H 0.1057 0.2992 0.0915
C24_2 C 0.0814(3) 0.2483(4) 0.0396(4)
H36_2 H 0.0530 0.2370 0.0431
Zn4_2 Zn 0.22625(3) 0.48815(4) 0.20254(4)
Zn7_2 Zn 0.40477(3) 0.55959(5) 0.13080(4)
Zn8_2 Zn 0.10708(3) 0.17852(4) 0.46413(4)
Zn9_2 Zn 0.21448(4) 0.21444(4) 0.2500
N12_2 N 0.1258(3) 0.1833(4) 0.3816(3)
N14_2 N 0.1962(2) 0.1669(3) 0.1961(3)
N15_2 N 0.1669(3) 0.1962(4) 0.3039(3)
N16_2 N 0.2276(2) 0.2647(3) 0.2039(3)
N18_2 N 0.2647(3) 0.2276(4) 0.2961(3)
N19_2 N 0.2220(2) 0.3072(3) 0.1407(3)
N20_2 N 0.1917(2) 0.3763(3) 0.1174(3)
N21_2 N 0.2022(2) 0.4342(3) 0.1606(3)
C25_2 C 0.0486(7) 0.0805(9) 0.1372(7)
H37_2 H 0.0276 0.0523 0.1433
H38_2 H 0.0702 0.0881 0.1654
H39_2 H 0.0368 0.0980 0.1414
C26_2 C 0.0668(6) 0.0855(7) 0.0742(5)
H40_2 H 0.0450 0.0777 0.0455
H41_2 H 0.0783 0.0674 0.0694
C27_2 C 0.1004(4) 0.1302(5) 0.0647(4)
H42_2 H 0.1220 0.1377 0.0934
H43_2 H 0.0888 0.1481 0.0702
C28_2 C 0.1183(4) 0.1366(5) 0.0050(4)
C31_2 C 0.2477(8) 0.3089(10) 0.4213(8)
H46_2 H 0.2542 0.3368 0.4142
H47_2 H 0.2711 0.3060 0.4120
H48_2 H 0.2407 0.3023 0.4617
C32_2 C 0.2104(6) 0.2791(7) 0.3825(6)
H49_2 H 0.1867 0.2821 0.3915
H50_2 H 0.2172 0.2857 0.3417
C33_2 C 0.2000(4) 0.2350(5) 0.3941(4)
H51_2 H 0.2237 0.2322 0.3845
H52_2 H 0.1942 0.2290 0.4353
C34_2 C 0.1635(4) 0.2042(5) 0.3592(4)
C35_2 C 0.1018(4) 0.1595(5) 0.3356(5)
H53_2 H 0.0735 0.1411 0.3367
C36_2 C 0.1270(4) 0.1678(5) 0.2886(4)
H54_2 H 0.1186 0.1561 0.2518
C37_2 C 0.0911(4) 0.2389(6) 0.2229(7)
H55_2 H 0.0792 0.2502 0.2488
H56_2 H 0.0853 0.2124 0.2371
H57_2 H 0.0795 0.2359 0.1846
C38_2 C 0.1385(4) 0.2681(6) 0.2200(6)
H58_2 H 0.1447 0.2950 0.2057
H59_2 H 0.1505 0.2715 0.2586
C39_2 C 0.1566(3) 0.2490(4) 0.1786(4)
H60_2 H 0.1488 0.2215 0.1923
H61_2 H 0.1447 0.2463 0.1401
C40_2 C 0.2028(3) 0.2738(4) 0.1738(4)
C41_2 C 0.2667(3) 0.2952(4) 0.1887(4)
H62_2 H 0.2913 0.2976 0.2022
C42_2 C 0.2634(3) 0.3212(4) 0.1509(4)
H63_2 H 0.2853 0.3446 0.1345
C43_2 C 0.2850(6) 0.4005(8) 0.2713(7)
H64_2 H 0.2802 0.3905 0.3107
H65_2 H 0.3062 0.4291 0.2708
H66_2 H 0.2936 0.3847 0.2482
C44_2 C 0.2444(4) 0.3960(6) 0.2454(5)
H67_2 H 0.2227 0.3674 0.2464
H68_2 H 0.2356 0.4121 0.2683
C45_2 C 0.2530(3) 0.4117(4) 0.1821(4)
H69_2 H 0.2745 0.4404 0.1819
H70_2 H 0.2629 0.3962 0.1603
C46_2 C 0.2149(3) 0.4076(4) 0.1525(4)
C47_2 C 0.1611(3) 0.3838(5) 0.1008(4)
H71_2 H 0.1398 0.3675 0.0752
C48_2 C 0.1664(3) 0.4184(4) 0.1271(4)
H72_2 H 0.1493 0.4297 0.1236
Zn1_2 Zn 0.07144(3) 0.17852(4) 0.96413(4)
Zn2_2 Zn 0.3333 0.45219(4) 0.9167
N4_2 N 0.3627(2) 0.4998(3) 0.9706(3)
N5_2 N 0.2963(2) 0.4020(3) 0.9628(3)
H5_2 H 0.0109 0.0783 0.9306
C12_2 C 0.3742(3) 0.5397(4) 0.9553(4)
H18_2 H 0.3709 0.5481 0.9185
C13_2 C 0.1856(5) 0.4278(6) 0.9438(7)
H19_2 H 0.1624 0.4165 0.9179
H20_2 H 0.2063 0.4543 0.9296
H21_2 H 0.1770 0.4308 0.9821
C14_2 C 0.2038(4) 0.3986(6) 0.9467(6)
H22_2 H 0.1831 0.3717 0.9610
H23_2 H 0.2124 0.3952 0.9081
C15_2 C 0.2410(3) 0.4177(4) 0.9881(4)
H24_2 H 0.2607 0.4452 0.9744
C16_2 C 0.2624(3) 0.3929(4) 0.9929(4)
C17_2 C 0.3049(3) 0.3715(4) 0.9780(4)
H26_2 H 0.3271 0.3691 0.9645
C19_2 C 0.2179(5) 0.2662(8) 0.8954(7)
H28_2 H 0.2231 0.2762 0.8560
H29_2 H 0.2105 0.2376 0.8959
H30_2 H 0.2423 0.2820 0.9185
C20_2 C 0.1818(4) 0.2707(6) 0.9213(5)
H31_2 H 0.1887 0.2993 0.9203
H32_2 H 0.1569 0.2546 0.8984
C21_2 C 0.1747(3) 0.2550(4) 0.9846(4)
H33_2 H 0.1675 0.2263 0.9848
N9_2 N 0.1473(3) 0.1275(4) 0.9901(3)
N10_2 N 0.1064(3) 0.1522(4) 0.9621(3)
N11_2 N 0.0576(2) 0.1833(4) 0.8816(3)
N13_2 N 0.3040(2) 0.4704(4) 0.8627(3)
N17_2 N 0.3704(2) 0.4390(4) 0.8705(3)
C29_2 C 0.1534(4) 0.1376(5) 0.9314(4)
H44_2 H 0.1715 0.1343 0.9072
C30_2 C 0.1292(4) 0.1532(5) 0.9145(4)
H45_2 H 0.1281 0.1627 0.8774
N2_2 N 0.9542(2) 0.1064(3) 0.0379(3)
C6_2 C 0.9760(3) 0.1292(4) 0.0855(4)
H9_2 H 0.9654 0.1281 0.1226
Zn5_2 Zn 0.89292(3) 0.07144(5) 0.03587(4)
C1_2 C 0.9681(5) 0.0486(7) 0.8628(7)
H1_2 H 0.9753 0.0276 0.8567
H2_2 H 0.9821 0.0702 0.8346
H3_2 H 0.9388 0.0368 0.8586
C2_2 C 0.9813(4) 0.0668(6) 0.9258(5)
H4_2 H 0.9673 0.0450 0.9545
C3_2 C 0.9702(3) 0.1004(4) 0.9353(4)
H6_2 H 0.9843 0.1220 0.9066
H7_2 H 0.9407 0.0888 0.9298
C4_2 C 0.9817(3) 0.1183(4) 0.9950(4)
H10_3 H 0.5875 0.0035 0.0809
Zn9_3 Zn 0.78556(4) 0.0000 0.2500
N14_3 N 0.8331(3) 0.0294(2) 0.1961(3)
N18_3 N 0.7724(4) 0.0370(2) 0.2961(3)
H41_3 H 0.9326 0.0109 0.0694
N9_3 N 0.8725(4) 0.0198(2) 0.9901(3)
C29_3 C 0.8624(5) 0.0158(3) 0.9314(4)
H44_3 H 0.8657 0.0372 0.9072
Zn3_3 Zn 0.66666(6) 0.86888(4) 0.0833
N1_3 N 0.8527(3) 0.8725(2) 0.0099(3)
N2_3 N 0.8936(3) 0.8478(2) 0.0379(3)
N3_3 N 0.4591(3) 0.8500(2) 0.0483(3)
N6_3 N 0.6405(3) 0.8887(2) 0.0260(3)
N7_3 N 0.7096(3) 0.8584(2) 0.0493(3)
N8_3 N 0.7675(3) 0.8689(2) 0.0061(3)
C5_3 C 0.8466(4) 0.8624(3) 0.0686(4)
H8_3 H 0.8285 0.8657 0.0928
C6_3 C 0.8708(4) 0.8468(3) 0.0855(4)
H9_3 H 0.8719 0.8373 0.1226
C7_3 C 0.5810(8) 0.9756(5) 0.0880(8)
H11_3 H 0.6044 0.9727 0.0787
H12_3 H 0.5740 0.9690 0.1284
C8_3 C 0.5437(6) 0.9458(4) 0.0492(6)
H13_3 H 0.5200 0.9488 0.0582
H14_3 H 0.5505 0.9524 0.0084
C9_3 C 0.5333(4) 0.9017(3) 0.0608(4)
H15_3 H 0.5570 0.8989 0.0512
H16_3 H 0.5275 0.8957 0.1020
C10_3 C 0.4968(4) 0.8709(3) 0.0259(4)
C11_3 C 0.4351(4) 0.8262(3) 0.0023(5)
H17_3 H 0.4068 0.8078 0.0034
H25_3 H 0.5796 0.8114 0.0266
C18_3 C 0.6545(4) 0.9301(3) 0.0158(4)
H27_3 H 0.6779 0.9520 0.0322
H34_3 H 0.7295 0.9296 0.0064
C22_3 C 0.7409(4) 0.8816(3) 0.0142(4)
C23_3 C 0.7171(5) 0.8278(3) 0.0659(4)
H35_3 H 0.7008 0.8065 0.0915
C24_3 C 0.7517(4) 0.8331(3) 0.0396(4)
H36_3 H 0.7630 0.8160 0.0431
Zn4_3 Zn 0.51185(4) 0.73811(3) 0.20254(4)
Zn7_3 Zn 0.44041(5) 0.84519(4) 0.13080(4)
Zn8_3 Zn 0.82148(4) 0.92856(3) 0.46413(4)
N12_3 N 0.8167(4) 0.9424(2) 0.3816(3)
N15_3 N 0.8038(4) 0.9706(2) 0.3039(3)
N16_3 N 0.7353(3) 0.9630(2) 0.2039(3)
N19_3 N 0.6928(3) 0.9149(2) 0.1407(3)
N20_3 N 0.6237(3) 0.8155(2) 0.1174(3)
N21_3 N 0.5658(3) 0.7681(2) 0.1606(3)
C25_3 C 0.9195(9) 0.9681(5) 0.1372(7)
H37_3 H 0.9477 0.9753 0.1433
H38_3 H 0.9119 0.9821 0.1654
H39_3 H 0.9020 0.9388 0.1414
C26_3 C 0.9145(7) 0.9813(4) 0.0742(5)
H40_3 H 0.9223 0.9673 0.0455
C27_3 C 0.8698(5) 0.9702(3) 0.0647(4)
H42_3 H 0.8623 0.9843 0.0934
H43_3 H 0.8519 0.9407 0.0702
C28_3 C 0.8634(5) 0.9817(3) 0.0050(4)
C31_3 C 0.6911(10) 0.9387(6) 0.4213(8)
H46_3 H 0.6632 0.9173 0.4142
H47_3 H 0.6940 0.9650 0.4120
H48_3 H 0.6977 0.9383 0.4617
C32_3 C 0.7209(7) 0.9312(4) 0.3825(6)
H49_3 H 0.7179 0.9045 0.3915
H50_3 H 0.7143 0.9314 0.3417
C33_3 C 0.7650(5) 0.9649(3) 0.3941(4)
H51_3 H 0.7678 0.9914 0.3845
H52_3 H 0.7710 0.9651 0.4353
C34_3 C 0.7958(5) 0.9592(3) 0.3592(4)
C35_3 C 0.8405(5) 0.9422(3) 0.3356(5)
H53_3 H 0.8589 0.9323 0.3367
C36_3 C 0.8322(5) 0.9591(3) 0.2886(4)
H54_3 H 0.8439 0.9624 0.2518
C37_3 C 0.7611(6) 0.8523(5) 0.2229(7)
H55_3 H 0.7498 0.8291 0.2488
H56_3 H 0.7876 0.8730 0.2371
H57_3 H 0.7641 0.8437 0.1846
C38_3 C 0.7319(6) 0.8705(4) 0.2200(6)
H58_3 H 0.7050 0.8498 0.2057
H59_3 H 0.7285 0.8791 0.2586
C39_3 C 0.7510(4) 0.9077(3) 0.1786(4)
H60_3 H 0.7785 0.9274 0.1923
H61_3 H 0.7537 0.8985 0.1401
C40_3 C 0.7262(4) 0.9291(3) 0.1738(4)
C41_3 C 0.7048(4) 0.9716(3) 0.1887(4)
H62_3 H 0.7024 0.9938 0.2022
C42_3 C 0.6788(4) 0.9423(3) 0.1509(4)
H63_3 H 0.6554 0.9408 0.1345
C43_3 C 0.5995(8) 0.8846(5) 0.2713(7)
H64_3 H 0.6095 0.8898 0.3107
H65_3 H 0.5709 0.8772 0.2708
H66_3 H 0.6153 0.9090 0.2482
C44_3 C 0.6040(6) 0.8485(4) 0.2454(5)
H67_3 H 0.6326 0.8554 0.2464
H68_3 H 0.5879 0.8236 0.2683
C45_3 C 0.5883(4) 0.8414(3) 0.1821(4)
H69_3 H 0.5596 0.8342 0.1819
H70_3 H 0.6038 0.8668 0.1603
C46_3 C 0.5924(4) 0.8074(3) 0.1525(4)
C47_3 C 0.6162(5) 0.7774(4) 0.1008(4)
H71_3 H 0.6325 0.7724 0.0752
C48_3 C 0.5816(4) 0.7481(3) 0.1271(4)
H72_3 H 0.5703 0.7197 0.1236
Zn1_3 Zn 0.82148(4) 0.89292(3) 0.96413(4)
Zn2_3 Zn 0.54781(4) 0.88111(4) 0.9167
N4_3 N 0.5002(3) 0.8629(2) 0.9706(3)
N5_3 N 0.5980(3) 0.8943(2) 0.9628(3)
C1_3 C 0.9514(7) 0.9195(5) 0.8628(7)
H1_3 H 0.9724 0.9477 0.8567
H2_3 H 0.9298 0.9119 0.8346
H3_3 H 0.9632 0.9020 0.8586
C2_3 C 0.9332(6) 0.9145(4) 0.9258(5)
H4_3 H 0.9550 0.9223 0.9545
H5_3 H 0.9217 0.9326 0.9306
C3_3 C 0.8996(4) 0.8698(3) 0.9353(4)
H6_3 H 0.8780 0.8623 0.9066
H7_3 H 0.9112 0.8519 0.9298
C4_3 C 0.8817(4) 0.8634(2) 0.9950(4)
C12_3 C 0.4603(4) 0.8345(3) 0.9553(4)
H18_3 H 0.4519 0.8228 0.9185
C13_3 C 0.5722(6) 0.7578(4) 0.9438(7)
H19_3 H 0.5835 0.7459 0.9179
H20_3 H 0.5457 0.7520 0.9296
H21_3 H 0.5692 0.7462 0.9821
C14_3 C 0.6014(6) 0.8052(4) 0.9467(6)
H22_3 H 0.6283 0.8114 0.9610
H23_3 H 0.6048 0.8172 0.9081
C15_3 C 0.5823(4) 0.8233(3) 0.9881(4)
H24_3 H 0.5548 0.8155 0.9744
C16_3 C 0.6071(4) 0.8695(3) 0.9929(4)
C17_3 C 0.6285(4) 0.9334(3) 0.9780(4)
H26_3 H 0.6309 0.9580 0.9645
C19_3 C 0.7338(8) 0.9517(6) 0.8954(7)
H28_3 H 0.7238 0.9469 0.8560
H29_3 H 0.7624 0.9729 0.8959
H30_3 H 0.7180 0.9603 0.9185
C20_3 C 0.7293(6) 0.9111(4) 0.9213(5)
H31_3 H 0.7007 0.8894 0.9203
H32_3 H 0.7454 0.9023 0.8984
C21_3 C 0.7450(4) 0.9197(3) 0.9846(4)
H33_3 H 0.7737 0.9412 0.9848
N10_3 N 0.8478(4) 0.9542(2) 0.9621(3)
N11_3 N 0.8167(4) 0.8742(3) 0.8816(3)
N13_3 N 0.5296(4) 0.8335(3) 0.8627(3)
N17_3 N 0.5610(4) 0.9313(3) 0.8705(3)
C30_3 C 0.8468(5) 0.9760(3) 0.9145(4)
H45_3 H 0.8373 0.9654 0.8774
N2_4 N 0.0458(2) 0.1522(2) 0.4621(3)
C1_4 C 0.0319(5) 0.0805(5) 0.6372(7)
H1_4 H 0.0247 0.0523 0.6433
H2_4 H 0.0179 0.0881 0.6654
H3_4 H 0.0612 0.0980 0.6414
C2_4 C 0.0187(4) 0.0855(4) 0.5742(5)
H4_4 H 0.0327 0.0777 0.5455
C3_4 C 0.0298(3) 0.1302(3) 0.5647(4)
H6_4 H 0.0157 0.1377 0.5934
H7_4 H 0.0593 0.1481 0.5702
C4_4 C 0.0183(3) 0.1366(2) 0.5050(4)
C6_4 C 0.0240(3) 0.1532(3) 0.4145(4)
H9_4 H 0.0346 0.1627 0.3774
Zn1_4 Zn 0.92856(3) 0.10708(3) 0.53587(4)
Zn2_4 Zn 0.6667 0.11889(4) 0.5833
Zn3_4 Zn 0.79778(4) 0.13112(4) 0.4167
N1_4 N 0.9802(2) 0.1275(2) 0.4901(3)
N3_4 N 0.6091(2) 0.1500(2) 0.4517(3)
N4_4 N 0.6373(2) 0.1371(2) 0.5294(3)
N5_4 N 0.7037(2) 0.1057(2) 0.5372(3)
N6_4 N 0.7518(2) 0.1113(2) 0.4740(3)
N7_4 N 0.8512(2) 0.1416(2) 0.4507(3)
N8_4 N 0.8986(2) 0.1311(2) 0.4939(3)
H5_4 H 0.9891 0.0674 0.5694
C5_4 C 0.9842(3) 0.1376(3) 0.4314(4)
H8_4 H 0.9628 0.1343 0.4072
C7_4 C 0.6054(6) 0.0244(5) 0.4120(8)
H11_4 H 0.6317 0.0273 0.4213
H12_4 H 0.6050 0.0310 0.3716
C8_4 C 0.5979(4) 0.0542(4) 0.4508(6)
H13_4 H 0.5712 0.0512 0.4418
H14_4 H 0.5981 0.0476 0.4916
C9_4 C 0.6316(3) 0.0983(3) 0.4392(4)
H15_4 H 0.6581 0.1011 0.4488
H16_4 H 0.6318 0.1043 0.3980
C10_4 C 0.6259(3) 0.1291(3) 0.4741(4)
C11_4 C 0.6089(3) 0.1738(3) 0.4977(5)
H17_4 H 0.5990 0.1922 0.4966
C12_4 C 0.6258(3) 0.1655(3) 0.5447(4)
H18_4 H 0.6291 0.1772 0.5815
C13_4 C 0.8144(5) 0.2422(4) 0.5562(7)
H19_4 H 0.8376 0.2541 0.5821
H20_4 H 0.7937 0.2480 0.5704
H21_4 H 0.8230 0.2538 0.5179
C14_4 C 0.7962(4) 0.1948(4) 0.5533(6)
H22_4 H 0.8169 0.1886 0.5390
H23_4 H 0.7876 0.1828 0.5919
C15_4 C 0.7590(3) 0.1767(3) 0.5119(4)
H24_4 H 0.7393 0.1845 0.5256
H25_4 H 0.7682 0.1886 0.4734
C16_4 C 0.7376(3) 0.1305(3) 0.5071(4)
C17_4 C 0.6951(3) 0.0666(3) 0.5220(4)
H26_4 H 0.6729 0.0420 0.5355
C18_4 C 0.7244(3) 0.0699(3) 0.4842(4)
H27_4 H 0.7259 0.0480 0.4678
C19_4 C 0.7821(5) 0.0483(6) 0.6046(7)
H28_4 H 0.7769 0.0531 0.6440
H29_4 H 0.7895 0.0271 0.6041
H30_4 H 0.7577 0.0397 0.5815
C20_4 C 0.8182(4) 0.0889(4) 0.5787(5)
H31_4 H 0.8113 0.1106 0.5797
H32_4 H 0.8431 0.0977 0.6016
C21_4 C 0.8253(3) 0.0803(3) 0.5154(4)
H33_4 H 0.8325 0.0588 0.5152
H34_4 H 0.7999 0.0704 0.4936
C22_4 C 0.8593(3) 0.1184(3) 0.4858(4)
C23_4 C 0.8893(4) 0.1722(3) 0.4341(4)
H35_4 H 0.8943 0.1935 0.4085
C24_4 C 0.9186(3) 0.1669(3) 0.4604(4)
H36_4 H 0.9470 0.1840 0.4569
Zn4_4 Zn 0.77375(3) 0.26189(3) 0.29746(4)
Zn7_4 Zn 0.59523(3) 0.15481(4) 0.36920(4)
N10_4 N 0.8936(3) 0.0458(2) 0.5379(3)
N11_4 N 0.9424(2) 0.1258(3) 0.6184(3)
N12_4 N 0.8742(3) 0.0576(2) 0.1184(3)
N13_4 N 0.6960(2) 0.1665(3) 0.6373(3)
N17_4 N 0.6296(2) 0.0687(3) 0.6295(3)
N19_4 N 0.7780(2) 0.0851(2) 0.3593(3)
N20_4 N 0.8083(2) 0.1845(2) 0.3826(3)
N21_4 N 0.7978(2) 0.2319(2) 0.3394(3)
C25_4 C 0.9514(7) 0.0319(5) 0.3628(7)
H37_4 H 0.9724 0.0247 0.3567
H38_4 H 0.9298 0.0179 0.3346
H39_4 H 0.9632 0.0612 0.3586
C26_4 C 0.9332(6) 0.0187(4) 0.4258(5)
H40_4 H 0.9550 0.0327 0.4545
C27_4 C 0.8996(4) 0.0298(3) 0.4353(4)
H42_4 H 0.8780 0.0157 0.4066
H43_4 H 0.9112 0.0593 0.4298
C28_4 C 0.8817(4) 0.0183(3) 0.4950(4)
C30_4 C 0.8708(4) 0.0240(3) 0.5855(4)
H45_4 H 0.8719 0.0346 0.6226
C31_4 C 0.7523(8) 0.0613(6) 0.0787(8)
H46_4 H 0.7458 0.0827 0.0858
H47_4 H 0.7289 0.0350 0.0880
H48_4 H 0.7593 0.0617 0.0383
C32_4 C 0.7896(6) 0.0688(4) 0.1175(6)
H49_4 H 0.8133 0.0955 0.1085
H50_4 H 0.7828 0.0686 0.1583
C33_4 C 0.8000(4) 0.0351(3) 0.1059(4)
H51_4 H 0.7763 0.0086 0.1155
H52_4 H 0.8058 0.0349 0.0647
C34_4 C 0.8365(4) 0.0408(3) 0.1408(4)
C35_4 C 0.8982(4) 0.0578(3) 0.1644(5)
H53_4 H 0.9265 0.0677 0.1633
C36_4 C 0.8730(4) 0.0409(3) 0.2114(4)
H54_4 H 0.8814 0.0376 0.2482
C37_4 C 0.9089(4) 0.1477(5) 0.2771(7)
H55_4 H 0.9208 0.1709 0.2512
H56_4 H 0.9147 0.1270 0.2629
H57_4 H 0.9205 0.1563 0.3154
C38_4 C 0.8615(4) 0.1295(4) 0.2800(6)
H58_4 H 0.8553 0.1502 0.2943
H59_4 H 0.8495 0.1209 0.2414
C39_4 C 0.8434(3) 0.0923(3) 0.3214(4)
H60_4 H 0.8512 0.0726 0.3077
H61_4 H 0.8553 0.1015 0.3599
C40_4 C 0.7972(3) 0.0709(3) 0.3262(4)
C41_4 C 0.7333(3) 0.0284(3) 0.3113(4)
H62_4 H 0.7087 0.0062 0.2978
C42_4 C 0.7366(3) 0.0577(3) 0.3491(4)
H63_4 H 0.7147 0.0592 0.3655
C43_4 C 0.7150(6) 0.1154(5) 0.2287(7)
H64_4 H 0.7198 0.1102 0.1893
H65_4 H 0.6938 0.1228 0.2292
H66_4 H 0.7064 0.0910 0.2518
C44_4 C 0.7556(4) 0.1515(4) 0.2546(5)
H67_4 H 0.7773 0.1446 0.2536
H68_4 H 0.7644 0.1764 0.2317
C45_4 C 0.7470(3) 0.1586(3) 0.3179(4)
H69_4 H 0.7255 0.1658 0.3181
H70_4 H 0.7371 0.1332 0.3397
C46_4 C 0.7851(3) 0.1926(3) 0.3475(4)
C47_4 C 0.8389(3) 0.2226(4) 0.3992(4)
H71_4 H 0.8602 0.2276 0.4248
C48_4 C 0.8336(3) 0.2519(3) 0.3729(4)
H72_4 H 0.8507 0.2803 0.3764
H10_4 H 0.5840 0.9965 0.4191
Zn9_4 Zn 0.78552(4) 1.0000 0.2500
N9_4 N 0.8527(3) 0.9802(2) 0.5099(3)
H41_4 H 0.9217 0.9891 0.4306
C29_4 C 0.8466(4) 0.9842(3) 0.5686(4)
H44_4 H 0.8285 0.9628 0.5928
Zn1_5 Zn 0.17852(4) 0.07144(3) 0.53587(4)
Zn2_5 Zn 0.45219(4) 0.3333 0.5833
Zn3_5 Zn 0.33334(6) 0.20222(4) 0.4167
N1_5 N 0.1473(3) 0.0198(2) 0.4901(3)
N3_5 N 0.5409(3) 0.3909(2) 0.4517(3)
N4_5 N 0.4998(3) 0.3627(2) 0.5294(3)
N5_5 N 0.4020(3) 0.2963(2) 0.5372(3)
N6_5 N 0.3595(3) 0.2482(2) 0.4740(3)
N7_5 N 0.2904(3) 0.1488(2) 0.4507(3)
N8_5 N 0.2325(3) 0.1014(2) 0.4939(3)
H5_5 H 0.0783 0.0109 0.5694
C5_5 C 0.1534(4) 0.0158(3) 0.4314(4)
H8_5 H 0.1715 0.0372 0.4072
C7_5 C 0.4190(8) 0.3946(6) 0.4120(8)
H10_5 H 0.4125 0.4160 0.4191
H11_5 H 0.3956 0.3683 0.4213
H12_5 H 0.4260 0.3950 0.3716
C8_5 C 0.4563(6) 0.4021(4) 0.4508(6)
H13_5 H 0.4800 0.4288 0.4418
H14_5 H 0.4495 0.4019 0.4916
C9_5 C 0.4667(4) 0.3684(3) 0.4392(4)
H15_5 H 0.4430 0.3419 0.4488
H16_5 H 0.4725 0.3682 0.3980
C10_5 C 0.5032(4) 0.3741(3) 0.4741(4)
C11_5 C 0.5649(4) 0.3911(3) 0.4977(5)
H17_5 H 0.5932 0.4010 0.4966
C12_5 C 0.5397(4) 0.3742(3) 0.5447(4)
H18_5 H 0.5481 0.3709 0.5815
C13_5 C 0.4278(6) 0.1856(5) 0.5562(7)
H19_5 H 0.4165 0.1624 0.5821
H20_5 H 0.4543 0.2063 0.5704
H21_5 H 0.4308 0.1770 0.5179
C14_5 C 0.3986(6) 0.2038(4) 0.5533(6)
H22_5 H 0.3717 0.1831 0.5390
H23_5 H 0.3952 0.2124 0.5919
C15_5 C 0.4177(4) 0.2410(3) 0.5119(4)
H24_5 H 0.4452 0.2607 0.5256
H25_5 H 0.4204 0.2318 0.4734
C16_5 C 0.3929(4) 0.2624(3) 0.5071(4)
C17_5 C 0.3715(4) 0.3049(3) 0.5220(4)
H26_5 H 0.3691 0.3271 0.5355
C18_5 C 0.3455(4) 0.2756(3) 0.4842(4)
H27_5 H 0.3221 0.2741 0.4678
C19_5 C 0.2662(8) 0.2179(5) 0.6046(7)
H28_5 H 0.2762 0.2231 0.6440
H29_5 H 0.2376 0.2105 0.6041
H30_5 H 0.2820 0.2423 0.5815
C20_5 C 0.2707(6) 0.1818(4) 0.5787(5)
H31_5 H 0.2993 0.1887 0.5797
H32_5 H 0.2546 0.1569 0.6016
C21_5 C 0.2550(4) 0.1747(3) 0.5154(4)
H33_5 H 0.2263 0.1675 0.5152
H34_5 H 0.2705 0.2001 0.4936
C22_5 C 0.2591(4) 0.1407(3) 0.4858(4)
C23_5 C 0.2829(5) 0.1107(4) 0.4341(4)
H35_5 H 0.2992 0.1057 0.4085
C24_5 C 0.2483(4) 0.0814(3) 0.4604(4)
H36_5 H 0.2370 0.0530 0.4569
Zn4_5 Zn 0.48815(4) 0.22625(3) 0.29746(4)
Zn7_5 Zn 0.55959(5) 0.40477(3) 0.36920(4)
N9_5 N 0.1275(4) 0.1473(3) 0.5099(3)
N10_5 N 0.1522(4) 0.1064(3) 0.5379(3)
N11_5 N 0.1833(4) 0.0576(2) 0.6184(3)
N12_5 N 0.1833(4) 0.1258(3) 0.1184(3)
N13_5 N 0.4704(4) 0.3040(2) 0.6373(3)
N17_5 N 0.4390(4) 0.3704(2) 0.6295(3)
N19_5 N 0.3072(3) 0.2220(2) 0.3593(3)
N20_5 N 0.3763(3) 0.1917(2) 0.3826(3)
N21_5 N 0.4342(3) 0.2022(2) 0.3394(3)
C25_5 C 0.0805(9) 0.0486(7) 0.3628(7)
H37_5 H 0.0523 0.0276 0.3567
H38_5 H 0.0881 0.0702 0.3346
H39_5 H 0.0980 0.0368 0.3586
C26_5 C 0.0855(7) 0.0668(6) 0.4258(5)
H40_5 H 0.0777 0.0450 0.4545
H41_5 H 0.0674 0.0783 0.4306
C27_5 C 0.1302(5) 0.1004(4) 0.4353(4)
H42_5 H 0.1377 0.1220 0.4066
H43_5 H 0.1481 0.0888 0.4298
C28_5 C 0.1366(5) 0.1183(4) 0.4950(4)
C29_5 C 0.1376(5) 0.1534(4) 0.5686(4)
H44_5 H 0.1343 0.1715 0.5928
C30_5 C 0.1532(5) 0.1292(4) 0.5855(4)
H45_5 H 0.1627 0.1281 0.6226
C31_5 C 0.3089(10) 0.2477(8) 0.0787(8)
H46_5 H 0.3368 0.2542 0.0858
H47_5 H 0.3060 0.2711 0.0880
H48_5 H 0.3023 0.2407 0.0383
C32_5 C 0.2791(7) 0.2104(6) 0.1175(6)
H49_5 H 0.2821 0.1867 0.1085
H50_5 H 0.2857 0.2172 0.1583
C33_5 C 0.2350(5) 0.2000(4) 0.1059(4)
H51_5 H 0.2322 0.2237 0.1155
H52_5 H 0.2290 0.1942 0.0647
C34_5 C 0.2042(5) 0.1635(4) 0.1408(4)
C35_5 C 0.1595(5) 0.1018(4) 0.1644(5)
H53_5 H 0.1411 0.0735 0.1633
C36_5 C 0.1678(5) 0.1270(4) 0.2114(4)
H54_5 H 0.1561 0.1186 0.2482
C37_5 C 0.2389(6) 0.0911(4) 0.2771(7)
H55_5 H 0.2502 0.0792 0.2512
H56_5 H 0.2124 0.0853 0.2629
H57_5 H 0.2359 0.0795 0.3154
C38_5 C 0.2681(6) 0.1385(4) 0.2800(6)
H58_5 H 0.2950 0.1447 0.2943
H59_5 H 0.2715 0.1505 0.2414
C39_5 C 0.2490(4) 0.1566(3) 0.3214(4)
H60_5 H 0.2215 0.1488 0.3077
H61_5 H 0.2463 0.1447 0.3599
C40_5 C 0.2738(4) 0.2028(3) 0.3262(4)
C41_5 C 0.2952(4) 0.2667(3) 0.3113(4)
H62_5 H 0.2976 0.2913 0.2978
C42_5 C 0.3212(4) 0.2634(3) 0.3491(4)
H63_5 H 0.3446 0.2853 0.3655
C43_5 C 0.4005(8) 0.2850(6) 0.2287(7)
H64_5 H 0.3905 0.2802 0.1893
H65_5 H 0.4291 0.3062 0.2292
H66_5 H 0.3847 0.2936 0.2518
C44_5 C 0.3960(6) 0.2444(4) 0.2546(5)
H67_5 H 0.3674 0.2227 0.2536
H68_5 H 0.4121 0.2356 0.2317
C45_5 C 0.4117(4) 0.2530(3) 0.3179(4)
H69_5 H 0.4404 0.2745 0.3181
H70_5 H 0.3962 0.2629 0.3397
C46_5 C 0.4076(4) 0.2149(3) 0.3475(4)
C47_5 C 0.3838(5) 0.1611(3) 0.3992(4)
H71_5 H 0.3675 0.1398 0.4248
C48_5 C 0.4184(4) 0.1664(3) 0.3729(4)
H72_5 H 0.4297 0.1493 0.3764
N2_5 N 0.1064(3) 0.9542(2) 0.4621(3)
C1_5 C 0.0486(7) 0.9681(5) 0.6372(7)
H1_5 H 0.0276 0.9753 0.6433
H2_5 H 0.0702 0.9821 0.6654
H3_5 H 0.0368 0.9388 0.6414
C2_5 C 0.0668(6) 0.9813(4) 0.5742(5)
H4_5 H 0.0450 0.9673 0.5455
C3_5 C 0.1004(4) 0.9702(3) 0.5647(4)
H6_5 H 0.1220 0.9843 0.5934
H7_5 H 0.0888 0.9407 0.5702
C4_5 C 0.1183(4) 0.9817(3) 0.5050(4)
C6_5 C 0.1292(4) 0.9760(3) 0.4145(4)
H9_5 H 0.1281 0.9654 0.3774
H10_6 H 0.0035 0.5875 0.4191
Zn9_5 Zn 0.0000 0.78556(4) 0.2500
N9_6 N 0.0198(2) 0.8725(4) 0.5099(3)
H41_6 H 0.0109 0.9326 0.4306
C29_6 C 0.0158(3) 0.8624(5) 0.5686(4)
H44_6 H 0.0372 0.8657 0.5928
Zn1_6 Zn 0.89292(3) 0.82148(4) 0.53587(4)
Zn2_6 Zn 0.88111(4) 0.54781(4) 0.5833
Zn3_6 Zn 0.86888(4) 0.66666(6) 0.4167
N1_6 N 0.8725(2) 0.8527(3) 0.4901(3)
N2_6 N 0.8478(2) 0.8936(3) 0.4621(3)
N3_6 N 0.8500(2) 0.4591(3) 0.4517(3)
N4_6 N 0.8629(2) 0.5002(3) 0.5294(3)
N5_6 N 0.8943(2) 0.5980(3) 0.5372(3)
N6_6 N 0.8887(2) 0.6405(3) 0.4740(3)
N7_6 N 0.8584(2) 0.7096(3) 0.4507(3)
N8_6 N 0.8689(2) 0.7675(3) 0.4939(3)
C1_6 C 0.9195(5) 0.9514(7) 0.6372(7)
H1_6 H 0.9477 0.9724 0.6433
H2_6 H 0.9119 0.9298 0.6654
H3_6 H 0.9020 0.9632 0.6414
C2_6 C 0.9145(4) 0.9332(6) 0.5742(5)
H4_6 H 0.9223 0.9550 0.5455
H5_6 H 0.9326 0.9217 0.5694
C3_6 C 0.8698(3) 0.8996(4) 0.5647(4)
H6_6 H 0.8623 0.8780 0.5934
H7_6 H 0.8519 0.9112 0.5702
C4_6 C 0.8634(2) 0.8817(4) 0.5050(4)
C5_6 C 0.8624(3) 0.8466(4) 0.4314(4)
H8_6 H 0.8657 0.8285 0.4072
C6_6 C 0.8468(3) 0.8708(4) 0.4145(4)
H9_6 H 0.8373 0.8719 0.3774
C7_6 C 0.9756(5) 0.5810(8) 0.4120(8)
H11_6 H 0.9727 0.6044 0.4213
H12_6 H 0.9690 0.5740 0.3716
C8_6 C 0.9458(4) 0.5437(6) 0.4508(6)
H13_6 H 0.9488 0.5200 0.4418
H14_6 H 0.9524 0.5505 0.4916
C9_6 C 0.9017(3) 0.5333(4) 0.4392(4)
H15_6 H 0.8989 0.5570 0.4488
H16_6 H 0.8957 0.5275 0.3980
C10_6 C 0.8709(3) 0.4968(4) 0.4741(4)
C11_6 C 0.8262(3) 0.4351(4) 0.4977(5)
H17_6 H 0.8078 0.4068 0.4966
C12_6 C 0.8345(3) 0.4603(4) 0.5447(4)
H18_6 H 0.8228 0.4519 0.5815
C13_6 C 0.7578(4) 0.5722(6) 0.5562(7)
H19_6 H 0.7459 0.5835 0.5821
H20_6 H 0.7520 0.5457 0.5704
H21_6 H 0.7462 0.5692 0.5179
C14_6 C 0.8052(4) 0.6014(6) 0.5533(6)
H22_6 H 0.8114 0.6283 0.5390
H23_6 H 0.8172 0.6048 0.5919
C15_6 C 0.8233(3) 0.5823(4) 0.5119(4)
H24_6 H 0.8155 0.5548 0.5256
H25_6 H 0.8114 0.5796 0.4734
C16_6 C 0.8695(3) 0.6071(4) 0.5071(4)
C17_6 C 0.9334(3) 0.6285(4) 0.5220(4)
H26_6 H 0.9580 0.6309 0.5355
C18_6 C 0.9301(3) 0.6545(4) 0.4842(4)
H27_6 H 0.9520 0.6779 0.4678
C19_6 C 0.9517(6) 0.7338(8) 0.6046(7)
H28_6 H 0.9469 0.7238 0.6440
H29_6 H 0.9729 0.7624 0.6041
H30_6 H 0.9603 0.7180 0.5815
C20_6 C 0.9111(4) 0.7293(6) 0.5787(5)
H31_6 H 0.8894 0.7007 0.5797
H32_6 H 0.9023 0.7454 0.6016
C21_6 C 0.9197(3) 0.7450(4) 0.5154(4)
H33_6 H 0.9412 0.7737 0.5152
H34_6 H 0.9296 0.7295 0.4936
C22_6 C 0.8816(3) 0.7409(4) 0.4858(4)
C23_6 C 0.8278(3) 0.7171(5) 0.4341(4)
H35_6 H 0.8065 0.7008 0.4085
C24_6 C 0.8331(3) 0.7517(4) 0.4604(4)
H36_6 H 0.8160 0.7630 0.4569
Zn4_6 Zn 0.73811(3) 0.51185(4) 0.29746(4)
Zn7_6 Zn 0.84519(4) 0.44041(5) 0.36920(4)
N10_6 N 0.9542(2) 0.8478(4) 0.5379(3)
N11_6 N 0.8742(3) 0.8167(4) 0.6184(3)
N12_6 N 0.9424(2) 0.8167(4) 0.1184(3)
N13_6 N 0.8335(3) 0.5296(4) 0.6373(3)
N17_6 N 0.9313(3) 0.5610(4) 0.6295(3)
N19_6 N 0.9149(2) 0.6928(3) 0.3593(3)
N20_6 N 0.8155(2) 0.6237(3) 0.3826(3)
N21_6 N 0.7681(2) 0.5658(3) 0.3394(3)
C25_6 C 0.9681(5) 0.9195(9) 0.3628(7)
H37_6 H 0.9753 0.9477 0.3567
H38_6 H 0.9821 0.9119 0.3346
H39_6 H 0.9388 0.9020 0.3586
C26_6 C 0.9813(4) 0.9145(7) 0.4258(5)
H40_6 H 0.9673 0.9223 0.4545
C27_6 C 0.9702(3) 0.8698(5) 0.4353(4)
H42_6 H 0.9843 0.8623 0.4066
H43_6 H 0.9407 0.8519 0.4298
C28_6 C 0.9817(3) 0.8634(5) 0.4950(4)
C30_6 C 0.9760(3) 0.8468(5) 0.5855(4)
H45_6 H 0.9654 0.8373 0.6226
C31_6 C 0.9387(6) 0.6911(10) 0.0787(8)
H46_6 H 0.9173 0.6632 0.0858
H47_6 H 0.9650 0.6940 0.0880
H48_6 H 0.9383 0.6977 0.0383
C32_6 C 0.9312(4) 0.7209(7) 0.1175(6)
H49_6 H 0.9045 0.7179 0.1085
H50_6 H 0.9314 0.7143 0.1583
C33_6 C 0.9649(3) 0.7650(5) 0.1059(4)
H51_6 H 0.9914 0.7678 0.1155
H52_6 H 0.9651 0.7710 0.0647
C34_6 C 0.9592(3) 0.7958(5) 0.1408(4)
C35_6 C 0.9422(3) 0.8405(5) 0.1644(5)
H53_6 H 0.9323 0.8589 0.1633
C36_6 C 0.9591(3) 0.8322(5) 0.2114(4)
H54_6 H 0.9624 0.8439 0.2482
C37_6 C 0.8523(5) 0.7611(6) 0.2771(7)
H55_6 H 0.8291 0.7498 0.2512
H56_6 H 0.8730 0.7876 0.2629
H57_6 H 0.8437 0.7641 0.3154
C38_6 C 0.8705(4) 0.7319(6) 0.2800(6)
H58_6 H 0.8498 0.7050 0.2943
H59_6 H 0.8791 0.7285 0.2414
C39_6 C 0.9077(3) 0.7510(4) 0.3214(4)
H60_6 H 0.9274 0.7785 0.3077
H61_6 H 0.8985 0.7537 0.3599
C40_6 C 0.9291(3) 0.7262(4) 0.3262(4)
C41_6 C 0.9716(3) 0.7048(4) 0.3113(4)
H62_6 H 0.9938 0.7024 0.2978
C42_6 C 0.9423(3) 0.6788(4) 0.3491(4)
H63_6 H 0.9408 0.6554 0.3655
C43_6 C 0.8846(5) 0.5995(8) 0.2287(7)
H64_6 H 0.8898 0.6095 0.1893
H65_6 H 0.8772 0.5709 0.2292
H66_6 H 0.9090 0.6153 0.2518
C44_6 C 0.8485(4) 0.6040(6) 0.2546(5)
H67_6 H 0.8554 0.6326 0.2536
H68_6 H 0.8236 0.5879 0.2317
C45_6 C 0.8414(3) 0.5883(4) 0.3179(4)
H69_6 H 0.8342 0.5596 0.3181
H70_6 H 0.8668 0.6038 0.3397
C46_6 C 0.8074(3) 0.5924(4) 0.3475(4)
C47_6 C 0.7774(4) 0.6162(5) 0.3992(4)
H71_6 H 0.7724 0.6325 0.4248
C48_6 C 0.7481(3) 0.5816(4) 0.3729(4)
H72_6 H 0.7197 0.5703 0.3764
N1_7 N 0.7942(2) 0.3135(2) 0.3432(3)
N2_7 N 0.8189(2) 0.3791(2) 0.3712(3)
C1_7 C 0.7472(5) 0.3652(5) 0.1961(7)
H1_7 H 0.7190 0.3580 0.1900
H2_7 H 0.7548 0.3512 0.1679
H3_7 H 0.7647 0.3945 0.1919
C2_7 C 0.7522(4) 0.3520(4) 0.2591(5)
H4_7 H 0.7444 0.3660 0.2878
H5_7 H 0.7341 0.3224 0.2639
C3_7 C 0.7969(3) 0.3631(3) 0.2686(4)
H6_7 H 0.8044 0.3490 0.2399
H7_7 H 0.8148 0.3926 0.2631
C4_7 C 0.8033(2) 0.3516(3) 0.3283(4)
C5_7 C 0.8043(3) 0.3175(3) 0.4019(4)
H8_7 H 0.8010 0.2961 0.4261
C6_7 C 0.8199(3) 0.3573(3) 0.4188(4)
H9_7 H 0.8294 0.3679 0.4559
Zn8_4 Zn 0.73811(3) 0.22625(3) 0.79746(4)
N9_7 N 0.6469(2) 0.1860(3) 0.3234(3)
N10_7 N 0.7125(2) 0.2269(3) 0.2954(3)
N11_7 N 0.7924(3) 0.2758(2) 0.2150(3)
N12_7 N 0.7242(2) 0.2076(3) 0.7150(3)
C25_7 C 0.6986(5) 0.2847(7) 0.4705(7)
H37_7 H 0.6914 0.3057 0.4766
H38_7 H 0.6846 0.2631 0.4987
H39_7 H 0.7279 0.2965 0.4747
C26_7 C 0.6854(4) 0.2665(6) 0.4075(5)
H40_7 H 0.6994 0.2883 0.3788
H41_7 H 0.6558 0.2550 0.4027
C27_7 C 0.6965(3) 0.2329(4) 0.3980(4)
H42_7 H 0.6824 0.2113 0.4267
H43_7 H 0.7260 0.2445 0.4035
C28_7 C 0.6850(3) 0.2150(4) 0.3383(4)
C29_7 C 0.6509(3) 0.1799(4) 0.2647(4)
H44_7 H 0.6295 0.1618 0.2405
C30_7 C 0.6907(3) 0.2041(4) 0.2478(4)
H45_7 H 0.7013 0.2052 0.2107
C31_7 C 0.7279(6) 0.0857(8) 0.7547(8)
H46_7 H 0.7493 0.0792 0.7476
H47_7 H 0.7016 0.0623 0.7454
H48_7 H 0.7283 0.0927 0.7951
C32_7 C 0.7354(4) 0.1230(6) 0.7159(6)
H49_7 H 0.7621 0.1467 0.7249
H50_7 H 0.7352 0.1162 0.6751
C33_7 C 0.7017(3) 0.1334(4) 0.7275(4)
H51_7 H 0.6752 0.1097 0.7179
H52_7 H 0.7015 0.1392 0.7687
C34_7 C 0.7074(3) 0.1699(4) 0.6926(4)
C35_7 C 0.7244(3) 0.2316(4) 0.6690(5)
H53_7 H 0.7343 0.2599 0.6701
C36_7 C 0.7075(3) 0.2064(4) 0.6220(4)
H54_7 H 0.7042 0.2148 0.5852
N1_8 N 0.6865(2) 0.4806(3) 0.3432(3)
N2_8 N 0.6209(2) 0.4397(3) 0.3712(3)
C1_8 C 0.6348(5) 0.3819(7) 0.1961(7)
H1_8 H 0.6420 0.3609 0.1900
H2_8 H 0.6488 0.4035 0.1679
H3_8 H 0.6055 0.3701 0.1919
C2_8 C 0.6480(4) 0.4001(6) 0.2591(5)
H4_8 H 0.6340 0.3783 0.2878
H5_8 H 0.6776 0.4116 0.2639
C3_8 C 0.6369(3) 0.4337(4) 0.2686(4)
H6_8 H 0.6510 0.4553 0.2399
H7_8 H 0.6074 0.4221 0.2631
C4_8 C 0.6484(3) 0.4516(4) 0.3283(4)
C5_8 C 0.6825(3) 0.4867(4) 0.4019(4)
H8_8 H 0.7039 0.5048 0.4261
C6_8 C 0.6427(3) 0.4625(4) 0.4188(4)
H9_8 H 0.6321 0.4614 0.4559
Zn8_5 Zn 0.77375(3) 0.51185(4) 0.79746(4)
N9_8 N 0.8140(3) 0.4608(4) 0.3234(3)
N10_8 N 0.7731(3) 0.4855(4) 0.2954(3)
N11_8 N 0.7242(2) 0.5167(4) 0.2150(3)
N12_8 N 0.7924(3) 0.5167(4) 0.7150(3)
C25_8 C 0.7153(7) 0.4138(9) 0.4705(7)
H37_8 H 0.6943 0.3856 0.4766
H38_8 H 0.7369 0.4214 0.4987
H39_8 H 0.7035 0.4313 0.4747
C26_8 C 0.7335(6) 0.4188(7) 0.4075(5)
H40_8 H 0.7117 0.4110 0.3788
H41_8 H 0.7450 0.4007 0.4027
C27_8 C 0.7671(4) 0.4635(5) 0.3980(4)
H42_8 H 0.7887 0.4710 0.4267
H43_8 H 0.7555 0.4814 0.4035
C28_8 C 0.7850(4) 0.4699(5) 0.3383(4)
C29_8 C 0.8201(4) 0.4709(5) 0.2647(4)
H44_8 H 0.8382 0.4676 0.2405
C30_8 C 0.7959(4) 0.4865(5) 0.2478(4)
H45_8 H 0.7948 0.4960 0.2107
C31_8 C 0.9143(8) 0.6423(10) 0.7547(8)
H46_8 H 0.9208 0.6702 0.7476
H47_8 H 0.9377 0.6394 0.7454
H48_8 H 0.9073 0.6357 0.7951
C32_8 C 0.8770(6) 0.6125(7) 0.7159(6)
H49_8 H 0.8533 0.6155 0.7249
H50_8 H 0.8838 0.6191 0.6751
C33_8 C 0.8666(4) 0.5684(5) 0.7275(4)
H51_8 H 0.8903 0.5656 0.7179
H52_8 H 0.8608 0.5624 0.7687
C34_8 C 0.8301(4) 0.5376(5) 0.6926(4)
C35_8 C 0.7684(4) 0.4929(5) 0.6690(5)
H53_8 H 0.7401 0.4745 0.6701
C36_8 C 0.7936(4) 0.5012(5) 0.6220(4)
H54_8 H 0.7852 0.4895 0.5852
N1_9 N 0.5194(3) 0.2058(2) 0.3432(3)
N2_9 N 0.5603(3) 0.1811(2) 0.3712(3)
C1_9 C 0.6181(7) 0.2528(5) 0.1961(7)
H1_9 H 0.6391 0.2810 0.1900
H2_9 H 0.5965 0.2452 0.1679
H3_9 H 0.6299 0.2353 0.1919
C2_9 C 0.5999(6) 0.2478(4) 0.2591(5)
H4_9 H 0.6217 0.2556 0.2878
H5_9 H 0.5884 0.2659 0.2639
C3_9 C 0.5663(4) 0.2031(3) 0.2686(4)
H6_9 H 0.5447 0.1956 0.2399
H7_9 H 0.5779 0.1852 0.2631
C4_9 C 0.5484(4) 0.1967(2) 0.3283(4)
C5_9 C 0.5133(4) 0.1957(3) 0.4019(4)
H8_9 H 0.4952 0.1990 0.4261
C6_9 C 0.5375(4) 0.1801(3) 0.4188(4)
H9_9 H 0.5386 0.1706 0.4559
Zn8_6 Zn 0.48815(4) 0.26189(3) 0.79746(4)
N9_9 N 0.5392(4) 0.3531(2) 0.3234(3)
N10_9 N 0.5145(4) 0.2875(2) 0.2954(3)
N11_9 N 0.4833(4) 0.2076(3) 0.2150(3)
N12_9 N 0.4833(4) 0.2758(2) 0.7150(3)
C25_9 C 0.5862(9) 0.3014(5) 0.4705(7)
H37_9 H 0.6144 0.3086 0.4766
H38_9 H 0.5786 0.3154 0.4987
H39_9 H 0.5687 0.2721 0.4747
C26_9 C 0.5812(7) 0.3146(4) 0.4075(5)
H40_9 H 0.5890 0.3006 0.3788
H41_9 H 0.5993 0.3442 0.4027
C27_9 C 0.5365(5) 0.3035(3) 0.3980(4)
H42_9 H 0.5290 0.3176 0.4267
H43_9 H 0.5186 0.2740 0.4035
C28_9 C 0.5301(5) 0.3150(3) 0.3383(4)
C29_9 C 0.5291(5) 0.3491(3) 0.2647(4)
H44_9 H 0.5324 0.3705 0.2405
C30_9 C 0.5135(5) 0.3093(3) 0.2478(4)
H45_9 H 0.5040 0.2987 0.2107
C31_9 C 0.3577(10) 0.2721(6) 0.7547(8)
H46_9 H 0.3298 0.2507 0.7476
H47_9 H 0.3606 0.2984 0.7454
H48_9 H 0.3643 0.2717 0.7951
C32_9 C 0.3875(7) 0.2646(4) 0.7159(6)
H49_9 H 0.3845 0.2379 0.7249
H50_9 H 0.3809 0.2648 0.6751
C33_9 C 0.4316(5) 0.2983(3) 0.7275(4)
H51_9 H 0.4344 0.3248 0.7179
H52_9 H 0.4376 0.2985 0.7687
C34_9 C 0.4624(5) 0.2926(3) 0.6926(4)
C35_9 C 0.5071(5) 0.2756(3) 0.6690(5)
H53_9 H 0.5255 0.2657 0.6701
C36_9 C 0.4988(5) 0.2925(3) 0.6220(4)
H54_9 H 0.5105 0.2958 0.5852
Zn1_7 Zn 0.59523(3) 0.44041(3) 0.86920(4)
Zn3_7 Zn 0.46445(4) 0.46445(4) 0.7500
N1_10 N 0.6469(2) 0.4608(2) 0.8234(3)
N2_10 N 0.7125(2) 0.4855(2) 0.7954(3)
N3_7 N 0.2758(2) 0.4833(2) 0.7850(3)
N6_7 N 0.4185(2) 0.4446(2) 0.8073(3)
N7_7 N 0.5179(2) 0.4749(2) 0.7840(3)
N8_7 N 0.5653(2) 0.4644(2) 0.8272(3)
C1_10 C 0.6986(5) 0.4138(5) 0.9705(7)
H1_10 H 0.6914 0.3856 0.9766
H2_10 H 0.6846 0.4214 0.9987
H3_10 H 0.7279 0.4313 0.9747
C2_10 C 0.6854(4) 0.4188(4) 0.9075(5)
H4_10 H 0.6994 0.4110 0.8788
H5_10 H 0.6558 0.4007 0.9027
C3_10 C 0.6965(3) 0.4635(3) 0.8980(4)
H6_10 H 0.6824 0.4710 0.9267
H7_10 H 0.7260 0.4814 0.9035
C4_10 C 0.6850(3) 0.4699(2) 0.8383(4)
C5_10 C 0.6509(3) 0.4709(3) 0.7647(4)
H8_10 H 0.6295 0.4676 0.7405
C6_10 C 0.6907(3) 0.4865(3) 0.7478(4)
H9_10 H 0.7013 0.4960 0.7107
C7_7 C 0.2721(6) 0.3577(5) 0.7453(8)
H10_7 H 0.2507 0.3298 0.7524
H11_7 H 0.2984 0.3606 0.7546
H12_7 H 0.2717 0.3643 0.7049
C8_7 C 0.2646(4) 0.3875(4) 0.7841(6)
H13_7 H 0.2379 0.3845 0.7751
H14_7 H 0.2648 0.3809 0.8249
C9_7 C 0.2983(3) 0.4316(3) 0.7725(4)
H15_7 H 0.3248 0.4344 0.7821
H16_7 H 0.2985 0.4376 0.7313
C10_7 C 0.2926(3) 0.4624(3) 0.8074(4)
C11_7 C 0.2756(3) 0.5071(3) 0.8310(5)
H17_7 H 0.2657 0.5255 0.8299
C12_7 C 0.2925(3) 0.4988(3) 0.8780(4)
H18_7 H 0.2958 0.5105 0.9148
C13_7 C 0.4811(5) 0.5755(4) 0.8895(7)
H19_7 H 0.5043 0.5874 0.9154
H20_7 H 0.4604 0.5813 0.9037
H21_7 H 0.4897 0.5871 0.8512
C14_7 C 0.4629(4) 0.5281(4) 0.8866(6)
H22_7 H 0.4836 0.5219 0.8723
H23_7 H 0.4543 0.5161 0.9252
C15_7 C 0.4257(3) 0.5100(3) 0.8452(4)
H24_7 H 0.4060 0.5178 0.8589
H25_7 H 0.4349 0.5219 0.8067
C16_7 C 0.4043(3) 0.4638(3) 0.8404(4)
C17_7 C 0.3618(3) 0.3999(3) 0.8553(4)
H26_7 H 0.3396 0.3753 0.8688
C18_7 C 0.3911(3) 0.4032(3) 0.8175(4)
H27_7 H 0.3926 0.3813 0.8011
C19_7 C 0.4488(5) 0.3816(6) 0.9379(7)
H28_7 H 0.4436 0.3864 0.9773
H29_7 H 0.4562 0.3604 0.9374
H30_7 H 0.4244 0.3730 0.9148
C20_7 C 0.4849(4) 0.4222(4) 0.9120(5)
H31_7 H 0.4780 0.4439 0.9130
H32_7 H 0.5098 0.4310 0.9349
C21_7 C 0.4920(3) 0.4136(3) 0.8487(4)
H33_7 H 0.4992 0.3921 0.8485
H34_7 H 0.4666 0.4037 0.8269
C22_7 C 0.5260(3) 0.4517(3) 0.8191(4)
C23_7 C 0.5560(4) 0.5055(3) 0.7674(4)
H35_7 H 0.5610 0.5268 0.7418
C24_7 C 0.5853(3) 0.5002(3) 0.7937(4)
H36_7 H 0.6137 0.5173 0.7902
Zn4_7 Zn 0.44041(3) 0.59523(3) 0.63080(4)
Zn7_7 Zn 0.26189(3) 0.48815(4) 0.70254(4)
N9_10 N 0.5194(3) 0.3135(2) 0.8432(3)
N10_10 N 0.5603(3) 0.3791(2) 0.8712(3)
N11_10 N 0.6091(2) 0.4591(3) 0.9517(3)
N19_7 N 0.4446(2) 0.4185(2) 0.6927(3)
N20_7 N 0.4749(2) 0.5179(2) 0.7160(3)
N21_7 N 0.4644(2) 0.5653(2) 0.6728(3)
C25_10 C 0.6181(7) 0.3652(5) 0.6961(7)
H37_10 H 0.6391 0.3580 0.6900
H38_10 H 0.5965 0.3512 0.6679
H39_10 H 0.6299 0.3945 0.6919
C26_10 C 0.5999(6) 0.3520(4) 0.7591(5)
H40_10 H 0.6217 0.3660 0.7878
H41_10 H 0.5884 0.3224 0.7639
C27_10 C 0.5663(4) 0.3631(3) 0.7686(4)
H42_10 H 0.5447 0.3490 0.7399
H43_10 H 0.5779 0.3926 0.7631
C28_10 C 0.5484(4) 0.3516(3) 0.8283(4)
C29_10 C 0.5133(4) 0.3175(3) 0.9019(4)
H44_10 H 0.4952 0.2961 0.9261
C30_10 C 0.5375(4) 0.3573(3) 0.9188(4)
H45_10 H 0.5386 0.3679 0.9559
C37_7 C 0.5755(4) 0.4811(5) 0.6105(7)
H55_7 H 0.5874 0.5043 0.5846
H56_7 H 0.5813 0.4604 0.5963
H57_7 H 0.5871 0.4897 0.6488
C38_7 C 0.5281(4) 0.4629(4) 0.6134(6)
H58_7 H 0.5219 0.4836 0.6277
H59_7 H 0.5161 0.4543 0.5748
C39_7 C 0.5100(3) 0.4257(3) 0.6548(4)
H60_7 H 0.5178 0.4060 0.6411
H61_7 H 0.5219 0.4349 0.6933
C40_7 C 0.4638(3) 0.4043(3) 0.6596(4)
C41_7 C 0.3999(3) 0.3618(3) 0.6447(4)
H62_7 H 0.3753 0.3396 0.6312
C42_7 C 0.4032(3) 0.3911(3) 0.6825(4)
H63_7 H 0.3813 0.3926 0.6989
C43_7 C 0.3816(6) 0.4488(5) 0.5621(7)
H64_7 H 0.3864 0.4436 0.5227
H65_7 H 0.3604 0.4562 0.5626
H66_7 H 0.3730 0.4244 0.5852
C44_7 C 0.4222(4) 0.4849(4) 0.5880(5)
H67_7 H 0.4439 0.4780 0.5870
H68_7 H 0.4310 0.5098 0.5651
C45_7 C 0.4136(3) 0.4920(3) 0.6513(4)
H69_7 H 0.3921 0.4992 0.6515
H70_7 H 0.4037 0.4666 0.6731
C46_7 C 0.4517(3) 0.5260(3) 0.6809(4)
C47_7 C 0.5055(3) 0.5560(4) 0.7326(4)
H71_7 H 0.5268 0.5610 0.7582
C48_7 C 0.5002(3) 0.5853(3) 0.7063(4)
H72_7 H 0.5173 0.6137 0.7098
Zn3_8 Zn 0.00001(6) 0.53555(4) 0.7500
N3_8 N 0.2076(3) 0.7242(2) 0.7850(3)
N6_8 N 0.0262(3) 0.5815(2) 0.8073(3)
C7_8 C 0.0857(8) 0.7279(6) 0.7453(8)
H10_8 H 0.0792 0.7493 0.7524
H11_8 H 0.0623 0.7016 0.7546
H12_8 H 0.0927 0.7283 0.7049
C8_8 C 0.1230(6) 0.7354(4) 0.7841(6)
H13_8 H 0.1467 0.7621 0.7751
H14_8 H 0.1162 0.7352 0.8249
C9_8 C 0.1334(4) 0.7017(3) 0.7725(4)
H15_8 H 0.1097 0.6752 0.7821
H16_8 H 0.1392 0.7015 0.7313
C10_8 C 0.1699(4) 0.7074(3) 0.8074(4)
C11_8 C 0.2316(4) 0.7244(3) 0.8310(5)
H17_8 H 0.2599 0.7343 0.8299
C12_8 C 0.2064(4) 0.7075(3) 0.8780(4)
H18_8 H 0.2148 0.7042 0.9148
C13_8 C 0.0945(6) 0.5189(5) 0.8895(7)
H19_8 H 0.0832 0.4957 0.9154
H20_8 H 0.1210 0.5396 0.9037
H21_8 H 0.0975 0.5103 0.8512
C14_8 C 0.0653(6) 0.5371(4) 0.8866(6)
H22_8 H 0.0384 0.5164 0.8723
H23_8 H 0.0619 0.5457 0.9252
C15_8 C 0.0844(4) 0.5743(3) 0.8452(4)
H24_8 H 0.1119 0.5940 0.8589
H25_8 H 0.0871 0.5651 0.8067
C16_8 C 0.0596(4) 0.5957(3) 0.8404(4)
C17_8 C 0.0382(4) 0.6382(3) 0.8553(4)
H26_8 H 0.0358 0.6604 0.8688
C18_8 C 0.0122(4) 0.6089(3) 0.8175(4)
Zn4_8 Zn 0.15481(4) 0.55959(3) 0.63080(4)
Zn7_8 Zn 0.22625(5) 0.73811(3) 0.70254(4)
N20_8 N 0.0429(3) 0.5251(2) 0.7160(3)
N21_8 N 0.1008(3) 0.5356(2) 0.6728(3)
H63_8 H 0.0112 0.6187 0.6989
C43_8 C 0.0671(8) 0.6184(6) 0.5621(7)
H64_8 H 0.0571 0.6136 0.5227
H65_8 H 0.0957 0.6396 0.5626
H66_8 H 0.0513 0.6270 0.5852
C44_8 C 0.0626(6) 0.5778(4) 0.5880(5)
H67_8 H 0.0340 0.5561 0.5870
H68_8 H 0.0787 0.5690 0.5651
C45_8 C 0.0783(4) 0.5864(3) 0.6513(4)
H69_8 H 0.1070 0.6079 0.6515
H70_8 H 0.0628 0.5963 0.6731
C46_8 C 0.0742(4) 0.5483(3) 0.6809(4)
C47_8 C 0.0504(5) 0.4945(3) 0.7326(4)
H71_8 H 0.0341 0.4732 0.7582
C48_8 C 0.0850(4) 0.4998(3) 0.7063(4)
H72_8 H 0.0963 0.4827 0.7098
Zn1_8 Zn 0.84519(4) 0.40477(3) 0.86920(4)
Zn3_9 Zn 1.00001(6) 0.53555(4) 0.7500
N1_11 N 0.8140(3) 0.3531(2) 0.8234(3)
N2_11 N 0.7731(3) 0.2875(2) 0.7954(3)
N7_8 N 0.9571(3) 0.4821(2) 0.7840(3)
N8_8 N 0.8992(3) 0.4347(2) 0.8272(3)
C1_11 C 0.7153(7) 0.3014(5) 0.9705(7)
H1_11 H 0.6943 0.3086 0.9766
H2_11 H 0.7369 0.3154 0.9987
H3_11 H 0.7035 0.2721 0.9747
C2_11 C 0.7335(6) 0.3146(4) 0.9075(5)
H4_11 H 0.7117 0.3006 0.8788
H5_11 H 0.7450 0.3442 0.9027
C3_11 C 0.7671(4) 0.3035(3) 0.8980(4)
H6_11 H 0.7887 0.3176 0.9267
H7_11 H 0.7555 0.2740 0.9035
C4_11 C 0.7850(4) 0.3150(3) 0.8383(4)
C5_11 C 0.8201(4) 0.3491(3) 0.7647(4)
H8_11 H 0.8382 0.3705 0.7405
C6_11 C 0.7959(4) 0.3093(3) 0.7478(4)
H9_11 H 0.7948 0.2987 0.7107
H27_8 H 0.9888 0.6074 0.8011
C19_8 C 0.9329(8) 0.5512(5) 0.9379(7)
H28_8 H 0.9429 0.5564 0.9773
H29_8 H 0.9043 0.5438 0.9374
H30_8 H 0.9487 0.5756 0.9148
C20_8 C 0.9374(6) 0.5151(4) 0.9120(5)
H31_8 H 0.9660 0.5220 0.9130
H32_8 H 0.9213 0.4902 0.9349
C21_8 C 0.9217(4) 0.5080(3) 0.8487(4)
H33_8 H 0.8930 0.5008 0.8485
H34_8 H 0.9372 0.5334 0.8269
C22_8 C 0.9258(4) 0.4740(3) 0.8191(4)
C23_8 C 0.9496(5) 0.4440(4) 0.7674(4)
H35_8 H 0.9659 0.4390 0.7418
C24_8 C 0.9150(4) 0.4147(3) 0.7937(4)
H36_8 H 0.9037 0.3863 0.7902
N9_11 N 0.7942(4) 0.4806(3) 0.8432(3)
N10_11 N 0.8189(4) 0.4397(3) 0.8712(3)
N11_11 N 0.8500(4) 0.3909(2) 0.9517(3)
N19_8 N 0.9738(3) 0.5554(2) 0.6927(3)
C25_11 C 0.7472(9) 0.3819(7) 0.6961(7)
H37_11 H 0.7190 0.3609 0.6900
H38_11 H 0.7548 0.4035 0.6679
H39_11 H 0.7647 0.3701 0.6919
C26_11 C 0.7522(7) 0.4001(6) 0.7591(5)
H40_11 H 0.7444 0.3783 0.7878
H41_11 H 0.7341 0.4116 0.7639
C27_11 C 0.7969(5) 0.4337(4) 0.7686(4)
H42_11 H 0.8044 0.4553 0.7399
H43_11 H 0.8148 0.4221 0.7631
C28_11 C 0.8033(5) 0.4516(4) 0.8283(4)
C29_11 C 0.8043(5) 0.4867(4) 0.9019(4)
H44_11 H 0.8010 0.5048 0.9261
C30_11 C 0.8199(5) 0.4625(4) 0.9188(4)
H45_11 H 0.8294 0.4614 0.9559
C37_8 C 0.9055(6) 0.4245(4) 0.6105(7)
H55_8 H 0.9168 0.4126 0.5846
H56_8 H 0.8790 0.4187 0.5963
H57_8 H 0.9025 0.4129 0.6488
C38_8 C 0.9347(6) 0.4719(4) 0.6134(6)
H58_8 H 0.9616 0.4781 0.6277
H59_8 H 0.9381 0.4839 0.5748
C39_8 C 0.9156(4) 0.4900(3) 0.6548(4)
H60_8 H 0.8881 0.4822 0.6411
H61_8 H 0.9129 0.4781 0.6933
C40_8 C 0.9404(4) 0.5362(3) 0.6596(4)
C41_8 C 0.9618(4) 0.6001(3) 0.6447(4)
H62_8 H 0.9642 0.6247 0.6312
C42_8 C 0.9878(4) 0.5968(3) 0.6825(4)
Zn1_9 Zn 0.55959(3) 0.15481(4) 0.86920(4)
Zn3_10 Zn 0.53555(4) -0.00001(6) 0.7500
N1_12 N 0.5392(2) 0.1860(3) 0.8234(3)
N2_12 N 0.5145(2) 0.2269(3) 0.7954(3)
N7_9 N 0.5251(2) 0.0429(3) 0.7840(3)
N8_9 N 0.5356(2) 0.1008(3) 0.8272(3)
C1_12 C 0.5862(5) 0.2847(7) 0.9705(7)
H1_12 H 0.6144 0.3057 0.9766
H2_12 H 0.5786 0.2631 0.9987
H3_12 H 0.5687 0.2965 0.9747
C2_12 C 0.5812(4) 0.2665(6) 0.9075(5)
H4_12 H 0.5890 0.2883 0.8788
H5_12 H 0.5993 0.2550 0.9027
C3_12 C 0.5365(3) 0.2329(4) 0.8980(4)
H6_12 H 0.5290 0.2113 0.9267
H7_12 H 0.5186 0.2445 0.9035
C4_12 C 0.5301(2) 0.2150(4) 0.8383(4)
C5_12 C 0.5291(3) 0.1799(4) 0.7647(4)
H8_12 H 0.5324 0.1618 0.7405
C6_12 C 0.5135(3) 0.2041(4) 0.7478(4)
H9_12 H 0.5040 0.2052 0.7107
H27_9 H 0.6187 0.0112 0.8011
C19_9 C 0.6184(6) 0.0671(8) 0.9379(7)
H28_9 H 0.6136 0.0571 0.9773
H29_9 H 0.6396 0.0957 0.9374
H30_9 H 0.6270 0.0513 0.9148
C20_9 C 0.5778(4) 0.0626(6) 0.9120(5)
H31_9 H 0.5561 0.0340 0.9130
H32_9 H 0.5690 0.0787 0.9349
C21_9 C 0.5864(3) 0.0783(4) 0.8487(4)
H33_9 H 0.6079 0.1070 0.8485
H34_9 H 0.5963 0.0628 0.8269
C22_9 C 0.5483(3) 0.0742(4) 0.8191(4)
C23_9 C 0.4945(3) 0.0504(5) 0.7674(4)
H35_9 H 0.4732 0.0341 0.7418
C24_9 C 0.4998(3) 0.0850(4) 0.7937(4)
H36_9 H 0.4827 0.0963 0.7902
N9_12 N 0.6865(2) 0.2058(4) 0.8432(3)
N10_12 N 0.6209(2) 0.1811(4) 0.8712(3)
N11_12 N 0.5409(3) 0.1500(4) 0.9517(3)
N19_9 N 0.5815(2) 0.0262(3) 0.6927(3)
C25_12 C 0.6348(5) 0.2528(9) 0.6961(7)
H37_12 H 0.6420 0.2810 0.6900
H38_12 H 0.6488 0.2452 0.6679
H39_12 H 0.6055 0.2353 0.6919
C26_12 C 0.6480(4) 0.2478(7) 0.7591(5)
H40_12 H 0.6340 0.2556 0.7878
H41_12 H 0.6776 0.2659 0.7639
C27_12 C 0.6369(3) 0.2031(5) 0.7686(4)
H42_12 H 0.6510 0.1956 0.7399
H43_12 H 0.6074 0.1852 0.7631
C28_12 C 0.6484(3) 0.1967(5) 0.8283(4)
C29_12 C 0.6825(3) 0.1957(5) 0.9019(4)
H44_12 H 0.7039 0.1990 0.9261
C30_12 C 0.6427(3) 0.1801(5) 0.9188(4)
H45_12 H 0.6321 0.1706 0.9559
C37_9 C 0.5189(5) 0.0945(6) 0.6105(7)
H55_9 H 0.4957 0.0832 0.5846
H56_9 H 0.5396 0.1210 0.5963
H57_9 H 0.5103 0.0975 0.6488
C38_9 C 0.5371(4) 0.0653(6) 0.6134(6)
H58_9 H 0.5164 0.0384 0.6277
H59_9 H 0.5457 0.0619 0.5748
C39_9 C 0.5743(3) 0.0844(4) 0.6548(4)
H60_9 H 0.5940 0.1119 0.6411
H61_9 H 0.5651 0.0871 0.6933
C40_9 C 0.5957(3) 0.0596(4) 0.6596(4)
C41_9 C 0.6382(3) 0.0382(4) 0.6447(4)
H62_9 H 0.6604 0.0358 0.6312
C42_9 C 0.6089(3) 0.0122(4) 0.6825(4)
Zn3_11 Zn 0.53555(4) 0.99999(6) 0.7500
N3_9 N 0.5167(2) 0.7924(3) 0.7850(3)
N6_9 N 0.5554(2) 0.9738(3) 0.8073(3)
C7_9 C 0.6423(5) 0.9143(8) 0.7453(8)
H10_9 H 0.6702 0.9208 0.7524
H11_9 H 0.6394 0.9377 0.7546
H12_9 H 0.6357 0.9073 0.7049
C8_9 C 0.6125(4) 0.8770(6) 0.7841(6)
H13_9 H 0.6155 0.8533 0.7751
H14_9 H 0.6191 0.8838 0.8249
C9_9 C 0.5684(3) 0.8666(4) 0.7725(4)
H15_9 H 0.5656 0.8903 0.7821
H16_9 H 0.5624 0.8608 0.7313
C10_9 C 0.5376(3) 0.8301(4) 0.8074(4)
C11_9 C 0.4929(3) 0.7684(4) 0.8310(5)
H17_9 H 0.4745 0.7401 0.8299
C12_9 C 0.5012(3) 0.7936(4) 0.8780(4)
H18_9 H 0.4895 0.7852 0.9148
C13_9 C 0.4245(4) 0.9055(6) 0.8895(7)
H19_9 H 0.4126 0.9168 0.9154
H20_9 H 0.4187 0.8790 0.9037
H21_9 H 0.4129 0.9025 0.8512
C14_9 C 0.4719(4) 0.9347(6) 0.8866(6)
H22_9 H 0.4781 0.9616 0.8723
H23_9 H 0.4839 0.9381 0.9252
C15_9 C 0.4900(3) 0.9156(4) 0.8452(4)
H24_9 H 0.4822 0.8881 0.8589
H25_9 H 0.4781 0.9129 0.8067
C16_9 C 0.5362(3) 0.9404(4) 0.8404(4)
C17_9 C 0.6001(3) 0.9618(4) 0.8553(4)
H26_9 H 0.6247 0.9642 0.8688
C18_9 C 0.5968(3) 0.9878(4) 0.8175(4)
Zn4_9 Zn 0.40477(3) 0.84519(4) 0.63080(4)
Zn7_9 Zn 0.51185(4) 0.77375(5) 0.70254(4)
N20_9 N 0.4821(2) 0.9571(3) 0.7160(3)
N21_9 N 0.4347(2) 0.8992(3) 0.6728(3)
H63_9 H 0.6074 0.9888 0.6989
C43_9 C 0.5512(5) 0.9329(8) 0.5621(7)
H64_9 H 0.5564 0.9429 0.5227
H65_9 H 0.5438 0.9043 0.5626
H66_9 H 0.5756 0.9487 0.5852
C44_9 C 0.5151(4) 0.9374(6) 0.5880(5)
H67_9 H 0.5220 0.9660 0.5870
H68_9 H 0.4902 0.9213 0.5651
C45_9 C 0.5080(3) 0.9217(4) 0.6513(4)
H69_9 H 0.5008 0.8930 0.6515
H70_9 H 0.5334 0.9372 0.6731
C46_9 C 0.4740(3) 0.9258(4) 0.6809(4)
C47_9 C 0.4440(4) 0.9496(5) 0.7326(4)
H71_9 H 0.4390 0.9659 0.7582
C48_9 C 0.4147(3) 0.9150(4) 0.7063(4)
H72_9 H 0.3863 0.9037 0.7098
N1_13 N 0.4608(2) 0.6469(2) 0.6766(3)
N2_13 N 0.4855(2) 0.7125(2) 0.7046(3)
C1_13 C 0.4138(5) 0.6986(5) 0.5295(7)
H1_13 H 0.3856 0.6914 0.5234
H2_13 H 0.4214 0.6846 0.5013
H3_13 H 0.4313 0.7279 0.5253
C2_13 C 0.4188(4) 0.6854(4) 0.5925(5)
H4_13 H 0.4110 0.6994 0.6212
H5_13 H 0.4007 0.6558 0.5973
C3_13 C 0.4635(3) 0.6965(3) 0.6020(4)
H6_13 H 0.4710 0.6824 0.5733
H7_13 H 0.4814 0.7260 0.5965
C4_13 C 0.4699(2) 0.6850(3) 0.6617(4)
C5_13 C 0.4709(3) 0.6509(3) 0.7353(4)
H8_13 H 0.4676 0.6295 0.7595
C6_13 C 0.4865(3) 0.6907(3) 0.7522(4)
H9_13 H 0.4960 0.7013 0.7893
N9_13 N 0.3135(2) 0.5194(3) 0.6568(3)
N10_13 N 0.3791(2) 0.5603(3) 0.6288(3)
N11_13 N 0.4591(3) 0.6091(2) 0.5483(3)
C25_13 C 0.3652(5) 0.6181(7) 0.8039(7)
H37_13 H 0.3580 0.6391 0.8100
H38_13 H 0.3512 0.5965 0.8321
H39_13 H 0.3945 0.6299 0.8081
C26_13 C 0.3520(4) 0.5999(6) 0.7409(5)
H40_13 H 0.3660 0.6217 0.7122
H41_13 H 0.3224 0.5884 0.7361
C27_13 C 0.3631(3) 0.5663(4) 0.7314(4)
H42_13 H 0.3490 0.5447 0.7601
H43_13 H 0.3926 0.5779 0.7369
C28_13 C 0.3516(3) 0.5484(4) 0.6717(4)
C29_13 C 0.3175(3) 0.5133(4) 0.5981(4)
H44_13 H 0.2961 0.4952 0.5739
C30_13 C 0.3573(3) 0.5375(4) 0.5812(4)
H45_13 H 0.3679 0.5386 0.5441
N1_14 N 0.3531(2) 0.8140(3) 0.6766(3)
N2_14 N 0.2875(2) 0.7731(3) 0.7046(3)
C1_14 C 0.3014(5) 0.7153(7) 0.5295(7)
H1_14 H 0.3086 0.6943 0.5234
H2_14 H 0.3154 0.7369 0.5013
H3_14 H 0.2721 0.7035 0.5253
C2_14 C 0.3146(4) 0.7335(6) 0.5925(5)
H4_14 H 0.3006 0.7117 0.6212
H5_14 H 0.3442 0.7450 0.5973
C3_14 C 0.3035(3) 0.7671(4) 0.6020(4)
H6_14 H 0.3176 0.7887 0.5733
H7_14 H 0.2740 0.7555 0.5965
C4_14 C 0.3150(3) 0.7850(4) 0.6617(4)
C5_14 C 0.3491(3) 0.8201(4) 0.7353(4)
H8_14 H 0.3705 0.8382 0.7595
C6_14 C 0.3093(3) 0.7959(4) 0.7522(4)
H9_14 H 0.2987 0.7948 0.7893
N9_14 N 0.4806(3) 0.7942(4) 0.6568(3)
N10_14 N 0.4397(3) 0.8189(4) 0.6288(3)
N11_14 N 0.3909(2) 0.8500(4) 0.5483(3)
C25_14 C 0.3819(7) 0.7472(9) 0.8039(7)
H37_14 H 0.3609 0.7190 0.8100
H38_14 H 0.4035 0.7548 0.8321
H39_14 H 0.3701 0.7647 0.8081
C26_14 C 0.4001(6) 0.7522(7) 0.7409(5)
H40_14 H 0.3783 0.7444 0.7122
H41_14 H 0.4116 0.7341 0.7361
C27_14 C 0.4337(4) 0.7969(5) 0.7314(4)
H42_14 H 0.4553 0.8044 0.7601
H43_14 H 0.4221 0.8148 0.7369
C28_14 C 0.4516(4) 0.8033(5) 0.6717(4)
C29_14 C 0.4867(4) 0.8043(5) 0.5981(4)
H44_14 H 0.5048 0.8010 0.5739
C30_14 C 0.4625(4) 0.8199(5) 0.5812(4)
H45_14 H 0.4614 0.8294 0.5441
N1_15 N 0.1860(3) 0.5392(2) 0.6766(3)
N2_15 N 0.2269(3) 0.5145(2) 0.7046(3)
C1_15 C 0.2847(7) 0.5862(5) 0.5295(7)
H1_15 H 0.3057 0.6144 0.5234
H2_15 H 0.2631 0.5786 0.5013
H3_15 H 0.2965 0.5687 0.5253
C2_15 C 0.2665(6) 0.5812(4) 0.5925(5)
H4_15 H 0.2883 0.5890 0.6212
H5_15 H 0.2550 0.5993 0.5973
C3_15 C 0.2329(4) 0.5365(3) 0.6020(4)
H6_15 H 0.2113 0.5290 0.5733
H7_15 H 0.2445 0.5186 0.5965
C4_15 C 0.2150(4) 0.5301(2) 0.6617(4)
C5_15 C 0.1799(4) 0.5291(3) 0.7353(4)
H8_15 H 0.1618 0.5324 0.7595
C6_15 C 0.2041(4) 0.5135(3) 0.7522(4)
H9_15 H 0.2052 0.5040 0.7893
N9_15 N 0.2058(4) 0.6865(2) 0.6568(3)
N10_15 N 0.1811(4) 0.6209(2) 0.6288(3)
N11_15 N 0.1500(4) 0.5409(3) 0.5483(3)
C25_15 C 0.2528(9) 0.6348(5) 0.8039(7)
H37_15 H 0.2810 0.6420 0.8100
H38_15 H 0.2452 0.6488 0.8321
H39_15 H 0.2353 0.6055 0.8081
C26_15 C 0.2478(7) 0.6480(4) 0.7409(5)
H40_15 H 0.2556 0.6340 0.7122
H41_15 H 0.2659 0.6776 0.7361
C27_15 C 0.2031(5) 0.6369(3) 0.7314(4)
H42_15 H 0.1956 0.6510 0.7601
H43_15 H 0.1852 0.6074 0.7369
C28_15 C 0.1967(5) 0.6484(3) 0.6717(4)
C29_15 C 0.1957(5) 0.6825(3) 0.5981(4)
H44_15 H 0.1990 0.7039 0.5739
C30_15 C 0.1801(5) 0.6427(3) 0.5812(4)
H45_15 H 0.1706 0.6321 0.5441
N1_16 N 0.3135(2) 0.7942(2) 0.1568(3)
N2_16 N 0.3791(2) 0.8189(2) 0.1288(3)
C1_16 C 0.3652(5) 0.7472(5) 0.3039(7)
H1_16 H 0.3580 0.7190 0.3100
H2_16 H 0.3512 0.7548 0.3321
H3_16 H 0.3945 0.7647 0.3081
C2_16 C 0.3520(4) 0.7522(4) 0.2409(5)
H4_16 H 0.3660 0.7444 0.2122
H5_16 H 0.3224 0.7341 0.2361
C3_16 C 0.3631(3) 0.7969(3) 0.2314(4)
H6_16 H 0.3490 0.8044 0.2601
H7_16 H 0.3926 0.8148 0.2369
C4_16 C 0.3516(3) 0.8033(2) 0.1717(4)
C5_16 C 0.3175(3) 0.8043(3) 0.0981(4)
H8_16 H 0.2961 0.8010 0.0739
C6_16 C 0.3573(3) 0.8199(3) 0.0812(4)
H9_16 H 0.3679 0.8294 0.0441
N9_16 N 0.1860(3) 0.6469(2) 0.1766(3)
N10_16 N 0.2269(3) 0.7125(2) 0.2046(3)
N11_16 N 0.2758(2) 0.7924(3) 0.2850(3)
C25_16 C 0.2847(7) 0.6986(5) 0.0295(7)
H37_16 H 0.3057 0.6914 0.0234
H38_16 H 0.2631 0.6846 0.0013
H39_16 H 0.2965 0.7279 0.0253
C26_16 C 0.2665(6) 0.6854(4) 0.0925(5)
H40_16 H 0.2883 0.6994 0.1212
H41_16 H 0.2550 0.6558 0.0973
C27_16 C 0.2329(4) 0.6965(3) 0.1020(4)
H42_16 H 0.2113 0.6824 0.0733
H43_16 H 0.2445 0.7260 0.0965
C28_16 C 0.2150(4) 0.6850(3) 0.1617(4)
C29_16 C 0.1799(4) 0.6509(3) 0.2353(4)
H44_16 H 0.1618 0.6295 0.2595
C30_16 C 0.2041(4) 0.6907(3) 0.2522(4)
H45_16 H 0.2052 0.7013 0.2893
N1_17 N 0.4806(3) 0.6865(2) 0.1568(3)
N2_17 N 0.4397(3) 0.6209(2) 0.1288(3)
C1_17 C 0.3819(7) 0.6348(5) 0.3039(7)
H1_17 H 0.3609 0.6420 0.3100
H2_17 H 0.4035 0.6488 0.3321
H3_17 H 0.3701 0.6055 0.3081
C2_17 C 0.4001(6) 0.6480(4) 0.2409(5)
H4_17 H 0.3783 0.6340 0.2122
H5_17 H 0.4116 0.6776 0.2361
C3_17 C 0.4337(4) 0.6369(3) 0.2314(4)
H6_17 H 0.4553 0.6510 0.2601
H7_17 H 0.4221 0.6074 0.2369
C4_17 C 0.4516(4) 0.6484(3) 0.1717(4)
C5_17 C 0.4867(4) 0.6825(3) 0.0981(4)
H8_17 H 0.5048 0.7039 0.0739
C6_17 C 0.4625(4) 0.6427(3) 0.0812(4)
H9_17 H 0.4614 0.6321 0.0441
N9_17 N 0.4608(4) 0.8140(3) 0.1766(3)
N10_17 N 0.4855(4) 0.7731(3) 0.2046(3)
N11_17 N 0.5167(4) 0.7242(2) 0.2850(3)
C25_17 C 0.4138(9) 0.7153(7) 0.0295(7)
H37_17 H 0.3856 0.6943 0.0234
H38_17 H 0.4214 0.7369 0.0013
H39_17 H 0.4313 0.7035 0.0253
C26_17 C 0.4188(7) 0.7335(6) 0.0925(5)
H40_17 H 0.4110 0.7117 0.1212
H41_17 H 0.4007 0.7450 0.0973
C27_17 C 0.4635(5) 0.7671(4) 0.1020(4)
H42_17 H 0.4710 0.7887 0.0733
H43_17 H 0.4814 0.7555 0.0965
C28_17 C 0.4699(5) 0.7850(4) 0.1617(4)
C29_17 C 0.4709(5) 0.8201(4) 0.2353(4)
H44_17 H 0.4676 0.8382 0.2595
C30_17 C 0.4865(5) 0.7959(4) 0.2522(4)
H45_17 H 0.4960 0.7948 0.2893
N1_18 N 0.2058(2) 0.5194(3) 0.1568(3)
N2_18 N 0.1811(2) 0.5603(3) 0.1288(3)
C1_18 C 0.2528(5) 0.6181(7) 0.3039(7)
H1_18 H 0.2810 0.6391 0.3100
H2_18 H 0.2452 0.5965 0.3321
H3_18 H 0.2353 0.6299 0.3081
C2_18 C 0.2478(4) 0.5999(6) 0.2409(5)
H4_18 H 0.2556 0.6217 0.2122
H5_18 H 0.2659 0.5884 0.2361
C3_18 C 0.2031(3) 0.5663(4) 0.2314(4)
H6_18 H 0.1956 0.5447 0.2601
H7_18 H 0.1852 0.5779 0.2369
C4_18 C 0.1967(2) 0.5484(4) 0.1717(4)
C5_18 C 0.1957(3) 0.5133(4) 0.0981(4)
H8_18 H 0.1990 0.4952 0.0739
C6_18 C 0.1801(3) 0.5375(4) 0.0812(4)
H9_18 H 0.1706 0.5386 0.0441
N9_18 N 0.3531(2) 0.5392(4) 0.1766(3)
N10_18 N 0.2875(2) 0.5145(4) 0.2046(3)
N11_18 N 0.2076(3) 0.4833(4) 0.2850(3)
C25_18 C 0.3014(5) 0.5862(9) 0.0295(7)
H37_18 H 0.3086 0.6144 0.0234
H38_18 H 0.3154 0.5786 0.0013
H39_18 H 0.2721 0.5687 0.0253
C26_18 C 0.3146(4) 0.5812(7) 0.0925(5)
H40_18 H 0.3006 0.5890 0.1212
H41_18 H 0.3442 0.5993 0.0973
C27_18 C 0.3035(3) 0.5365(5) 0.1020(4)
H42_18 H 0.3176 0.5290 0.0733
H43_18 H 0.2740 0.5186 0.0965
C28_18 C 0.3150(3) 0.5301(5) 0.1617(4)
C29_18 C 0.3491(3) 0.5291(5) 0.2353(4)
H44_18 H 0.3705 0.5324 0.2595
C30_18 C 0.3093(3) 0.5135(5) 0.2522(4)
H45_18 H 0.2987 0.5040 0.2893
H10_10 H 0.0035 0.4160 0.9191
Zn9_6 Zn 0.0000 0.21448(4) 0.7500
N14_4 N 0.0294(2) 0.1962(2) 0.8039(3)
N18_4 N 0.0370(2) 0.2647(3) 0.7039(3)
Zn2_7 Zn 0.88111(4) 0.3333 0.0833
N4_7 N 0.8629(2) 0.3627(2) 0.0294(3)
N5_7 N 0.8943(2) 0.2963(2) 0.0372(3)
C12_10 C 0.8345(3) 0.3742(3) 0.0447(4)
H18_10 H 0.8228 0.3709 0.0815
C13_10 C 0.7578(4) 0.1856(5) 0.0562(7)
H19_10 H 0.7459 0.1624 0.0821
H20_10 H 0.7520 0.2063 0.0704
H21_10 H 0.7462 0.1770 0.0179
C14_10 C 0.8052(4) 0.2038(4) 0.0533(6)
H22_10 H 0.8114 0.1831 0.0390
H23_10 H 0.8172 0.2124 0.0919
C15_10 C 0.8233(3) 0.2410(3) 0.0119(4)
H24_10 H 0.8155 0.2607 0.0256
C16_10 C 0.8695(3) 0.2624(3) 0.0071(4)
C17_10 C 0.9334(3) 0.3049(3) 0.0220(4)
H26_10 H 0.9580 0.3271 0.0355
C19_10 C 0.9517(6) 0.2179(5) 0.1046(7)
H28_10 H 0.9469 0.2231 0.1440
H29_10 H 0.9729 0.2105 0.1041
H30_10 H 0.9603 0.2423 0.0815
C20_10 C 0.9111(4) 0.1818(4) 0.0787(5)
H31_10 H 0.8894 0.1887 0.0797
H32_10 H 0.9023 0.1569 0.1016
C21_10 C 0.9197(3) 0.1747(3) 0.0154(4)
H33_10 H 0.9412 0.1675 0.0152
N13_7 N 0.8335(3) 0.3040(2) 0.1373(3)
N17_7 N 0.9313(3) 0.3704(2) 0.1295(3)
Zn3_12 Zn 0.86888(4) 0.20222(4) 0.9167
N6_10 N 0.8887(2) 0.2482(2) 0.9740(3)
N7_10 N 0.8584(2) 0.1488(2) 0.9507(3)
N8_10 N 0.8689(2) 0.1014(2) 0.9939(3)
C7_10 C 0.9756(5) 0.3946(6) 0.9120(8)
H11_10 H 0.9727 0.3683 0.9213
H12_10 H 0.9690 0.3950 0.8716
C8_10 C 0.9458(4) 0.4021(4) 0.9508(6)
H13_10 H 0.9488 0.4288 0.9418
H14_10 H 0.9524 0.4019 0.9916
C9_10 C 0.9017(3) 0.3684(3) 0.9392(4)
H15_10 H 0.8989 0.3419 0.9488
H16_10 H 0.8957 0.3682 0.8980
C10_10 C 0.8709(3) 0.3741(3) 0.9741(4)
C11_10 C 0.8262(3) 0.3911(3) 0.9977(5)
H17_10 H 0.8078 0.4010 0.9966
H25_10 H 0.8114 0.2318 0.9734
C18_10 C 0.9301(3) 0.2756(3) 0.9842(4)
H27_10 H 0.9520 0.2741 0.9678
H34_10 H 0.9296 0.2001 0.9936
C22_10 C 0.8816(3) 0.1407(3) 0.9858(4)
C23_10 C 0.8278(3) 0.1107(4) 0.9341(4)
H35_10 H 0.8065 0.1057 0.9085
C24_10 C 0.8331(3) 0.0814(3) 0.9604(4)
H36_10 H 0.8160 0.0530 0.9569
N15_4 N 0.9706(2) 0.1669(3) 0.6961(3)
N16_4 N 0.9630(2) 0.2276(2) 0.7961(3)
N19_10 N 0.9149(2) 0.2220(2) 0.8593(3)
N20_10 N 0.8155(2) 0.1917(2) 0.8826(3)
N21_10 N 0.7681(2) 0.2022(2) 0.8394(3)
C31_10 C 0.9387(6) 0.2477(8) 0.5787(8)
H46_10 H 0.9173 0.2542 0.5858
H47_10 H 0.9650 0.2711 0.5880
H48_10 H 0.9383 0.2407 0.5383
C32_10 C 0.9312(4) 0.2104(6) 0.6175(6)
H49_10 H 0.9045 0.1867 0.6085
H50_10 H 0.9314 0.2172 0.6583
C33_10 C 0.9649(3) 0.2000(4) 0.6059(4)
H51_10 H 0.9914 0.2237 0.6155
H52_10 H 0.9651 0.1942 0.5647
C34_10 C 0.9592(3) 0.1635(4) 0.6408(4)
C35_10 C 0.9422(3) 0.1018(4) 0.6644(5)
H53_10 H 0.9323 0.0735 0.6633
C36_10 C 0.9591(3) 0.1270(4) 0.7114(4)
H54_10 H 0.9624 0.1186 0.7482
C37_10 C 0.8523(5) 0.0911(4) 0.7771(7)
H55_10 H 0.8291 0.0792 0.7512
H56_10 H 0.8730 0.0853 0.7629
H57_10 H 0.8437 0.0795 0.8154
C38_10 C 0.8705(4) 0.1385(4) 0.7800(6)
H58_10 H 0.8498 0.1447 0.7943
H59_10 H 0.8791 0.1505 0.7414
C39_10 C 0.9077(3) 0.1566(3) 0.8214(4)
H60_10 H 0.9274 0.1488 0.8077
H61_10 H 0.8985 0.1447 0.8599
C40_10 C 0.9291(3) 0.2028(3) 0.8262(4)
C41_10 C 0.9716(3) 0.2667(3) 0.8113(4)
H62_10 H 0.9938 0.2913 0.7978
C42_10 C 0.9423(3) 0.2634(3) 0.8491(4)
H63_10 H 0.9408 0.2853 0.8655
C43_10 C 0.8846(5) 0.2850(6) 0.7287(7)
H64_10 H 0.8898 0.2802 0.6893
H65_10 H 0.8772 0.3062 0.7292
H66_10 H 0.9090 0.2936 0.7518
C44_10 C 0.8485(4) 0.2444(4) 0.7546(5)
H67_10 H 0.8554 0.2227 0.7536
H68_10 H 0.8236 0.2356 0.7317
C45_10 C 0.8414(3) 0.2530(3) 0.8179(4)
H69_10 H 0.8342 0.2745 0.8181
H70_10 H 0.8668 0.2629 0.8397
C46_10 C 0.8074(3) 0.2149(3) 0.8475(4)
C47_10 C 0.7774(4) 0.1611(3) 0.8992(4)
H71_10 H 0.7724 0.1398 0.9248
C48_10 C 0.7481(3) 0.1664(3) 0.8729(4)
H72_10 H 0.7197 0.1493 0.8764
Zn2_8 Zn 0.6667 0.54781(4) 0.0833
N4_8 N 0.6373(2) 0.5002(3) 0.0294(3)
N5_8 N 0.7037(2) 0.5980(3) 0.0372(3)
C12_11 C 0.6258(3) 0.4603(4) 0.0447(4)
H18_11 H 0.6291 0.4519 0.0815
C13_11 C 0.8144(5) 0.5722(6) 0.0562(7)
H19_11 H 0.8376 0.5835 0.0821
H20_11 H 0.7937 0.5457 0.0704
H21_11 H 0.8230 0.5692 0.0179
C14_11 C 0.7962(4) 0.6014(6) 0.0533(6)
H22_11 H 0.8169 0.6283 0.0390
H23_11 H 0.7876 0.6048 0.0919
C15_11 C 0.7590(3) 0.5823(4) 0.0119(4)
H24_11 H 0.7393 0.5548 0.0256
C16_11 C 0.7376(3) 0.6071(4) 0.0071(4)
C17_11 C 0.6951(3) 0.6285(4) 0.0220(4)
H26_11 H 0.6729 0.6309 0.0355
C19_11 C 0.7821(5) 0.7338(8) 0.1046(7)
H28_11 H 0.7769 0.7238 0.1440
H29_11 H 0.7895 0.7624 0.1041
H30_11 H 0.7577 0.7180 0.0815
C20_11 C 0.8182(4) 0.7293(6) 0.0787(5)
H31_11 H 0.8113 0.7007 0.0797
H32_11 H 0.8431 0.7454 0.1016
C21_11 C 0.8253(3) 0.7450(4) 0.0154(4)
H33_11 H 0.8325 0.7737 0.0152
N13_8 N 0.6960(2) 0.5296(4) 0.1373(3)
N17_8 N 0.6296(2) 0.5610(4) 0.1295(3)
Zn3_13 Zn 0.79778(4) 0.66666(6) 0.9167
N6_11 N 0.7518(2) 0.6405(3) 0.9740(3)
N7_11 N 0.8512(2) 0.7096(3) 0.9507(3)
N8_11 N 0.8986(2) 0.7675(3) 0.9939(3)
C7_11 C 0.6054(6) 0.5810(8) 0.9120(8)
H10_11 H 0.5840 0.5875 0.9191
H11_11 H 0.6317 0.6044 0.9213
H12_11 H 0.6050 0.5740 0.8716
C8_11 C 0.5979(4) 0.5437(6) 0.9508(6)
H13_11 H 0.5712 0.5200 0.9418
H14_11 H 0.5981 0.5505 0.9916
C9_11 C 0.6316(3) 0.5333(4) 0.9392(4)
H15_11 H 0.6581 0.5570 0.9488
H16_11 H 0.6318 0.5275 0.8980
C10_11 C 0.6259(3) 0.4968(4) 0.9741(4)
C11_11 C 0.6089(3) 0.4351(4) 0.9977(5)
H17_11 H 0.5990 0.4068 0.9966
H25_11 H 0.7682 0.5796 0.9734
C18_11 C 0.7244(3) 0.6545(4) 0.9842(4)
H27_11 H 0.7259 0.6779 0.9678
H34_11 H 0.7999 0.7295 0.9936
C22_11 C 0.8593(3) 0.7409(4) 0.9858(4)
C23_11 C 0.8893(4) 0.7171(5) 0.9341(4)
H35_11 H 0.8943 0.7008 0.9085
C24_11 C 0.9186(3) 0.7517(4) 0.9604(4)
H36_11 H 0.9470 0.7630 0.9569
Zn9_7 Zn 0.78552(4) 0.78556(4) 0.7500
N14_5 N 0.8038(2) 0.8331(3) 0.8039(3)
N15_5 N 0.8331(3) 0.8038(4) 0.6961(3)
N16_5 N 0.7724(2) 0.7353(3) 0.7961(3)
N18_5 N 0.7353(3) 0.7724(4) 0.7039(3)
N19_11 N 0.7780(2) 0.6928(3) 0.8593(3)
N20_11 N 0.8083(2) 0.6237(3) 0.8826(3)
N21_11 N 0.7978(2) 0.5658(3) 0.8394(3)
C31_11 C 0.7523(8) 0.6911(10) 0.5787(8)
H46_11 H 0.7458 0.6632 0.5858
H47_11 H 0.7289 0.6940 0.5880
H48_11 H 0.7593 0.6977 0.5383
C32_11 C 0.7896(6) 0.7209(7) 0.6175(6)
H49_11 H 0.8133 0.7179 0.6085
H50_11 H 0.7828 0.7143 0.6583
C33_11 C 0.8000(4) 0.7650(5) 0.6059(4)
H51_11 H 0.7763 0.7678 0.6155
H52_11 H 0.8058 0.7710 0.5647
C34_11 C 0.8365(4) 0.7958(5) 0.6408(4)
C35_11 C 0.8982(4) 0.8405(5) 0.6644(5)
H53_11 H 0.9265 0.8589 0.6633
C36_11 C 0.8730(4) 0.8322(5) 0.7114(4)
H54_11 H 0.8814 0.8439 0.7482
C37_11 C 0.9089(4) 0.7611(6) 0.7771(7)
H55_11 H 0.9208 0.7498 0.7512
H56_11 H 0.9147 0.7876 0.7629
H57_11 H 0.9205 0.7641 0.8154
C38_11 C 0.8615(4) 0.7319(6) 0.7800(6)
H58_11 H 0.8553 0.7050 0.7943
H59_11 H 0.8495 0.7285 0.7414
C39_11 C 0.8434(3) 0.7510(4) 0.8214(4)
H60_11 H 0.8512 0.7785 0.8077
H61_11 H 0.8553 0.7537 0.8599
C40_11 C 0.7972(3) 0.7262(4) 0.8262(4)
C41_11 C 0.7333(3) 0.7048(4) 0.8113(4)
H62_11 H 0.7087 0.7024 0.7978
C42_11 C 0.7366(3) 0.6788(4) 0.8491(4)
H63_11 H 0.7147 0.6554 0.8655
C43_11 C 0.7150(6) 0.5995(8) 0.7287(7)
H64_11 H 0.7198 0.6095 0.6893
H65_11 H 0.6938 0.5709 0.7292
H66_11 H 0.7064 0.6153 0.7518
C44_11 C 0.7556(4) 0.6040(6) 0.7546(5)
H67_11 H 0.7773 0.6326 0.7536
H68_11 H 0.7644 0.5879 0.7317
C45_11 C 0.7470(3) 0.5883(4) 0.8179(4)
H69_11 H 0.7255 0.5596 0.8181
H70_11 H 0.7371 0.6038 0.8397
C46_11 C 0.7851(3) 0.5924(4) 0.8475(4)
C47_11 C 0.8389(3) 0.6162(5) 0.8992(4)
H71_11 H 0.8602 0.6325 0.9248
C48_11 C 0.8336(3) 0.5816(4) 0.8729(4)
H72_11 H 0.8507 0.5703 0.8764
Zn2_9 Zn 0.45219(4) 0.11889(4) 0.0833
N4_9 N 0.4998(3) 0.1371(2) 0.0294(3)
N5_9 N 0.4020(3) 0.1057(2) 0.0372(3)
C12_12 C 0.5397(4) 0.1655(3) 0.0447(4)
H18_12 H 0.5481 0.1772 0.0815
C13_12 C 0.4278(6) 0.2422(4) 0.0562(7)
H19_12 H 0.4165 0.2541 0.0821
H20_12 H 0.4543 0.2480 0.0704
H21_12 H 0.4308 0.2538 0.0179
C14_12 C 0.3986(6) 0.1948(4) 0.0533(6)
H22_12 H 0.3717 0.1886 0.0390
H23_12 H 0.3952 0.1828 0.0919
C15_12 C 0.4177(4) 0.1767(3) 0.0119(4)
H24_12 H 0.4452 0.1845 0.0256
C16_12 C 0.3929(4) 0.1305(3) 0.0071(4)
C17_12 C 0.3715(4) 0.0666(3) 0.0220(4)
H26_12 H 0.3691 0.0420 0.0355
C19_12 C 0.2662(8) 0.0483(6) 0.1046(7)
H28_12 H 0.2762 0.0531 0.1440
H29_12 H 0.2376 0.0271 0.1041
H30_12 H 0.2820 0.0397 0.0815
C20_12 C 0.2707(6) 0.0889(4) 0.0787(5)
H31_12 H 0.2993 0.1106 0.0797
H32_12 H 0.2546 0.0977 0.1016
C21_12 C 0.2550(4) 0.0803(3) 0.0154(4)
H33_12 H 0.2263 0.0588 0.0152
N13_9 N 0.4704(4) 0.1665(3) 0.1373(3)
N17_9 N 0.4390(4) 0.0687(3) 0.1295(3)
Zn3_14 Zn 0.33334(6) 0.13112(4) 0.9167
N6_12 N 0.3595(3) 0.1113(2) 0.9740(3)
N7_12 N 0.2904(3) 0.1416(2) 0.9507(3)
N8_12 N 0.2325(3) 0.1311(2) 0.9939(3)
C7_12 C 0.4190(8) 0.0244(5) 0.9120(8)
H11_12 H 0.3956 0.0273 0.9213
H12_12 H 0.4260 0.0310 0.8716
C8_12 C 0.4563(6) 0.0542(4) 0.9508(6)
H13_12 H 0.4800 0.0512 0.9418
H14_12 H 0.4495 0.0476 0.9916
C9_12 C 0.4667(4) 0.0983(3) 0.9392(4)
H15_12 H 0.4430 0.1011 0.9488
H16_12 H 0.4725 0.1043 0.8980
C10_12 C 0.5032(4) 0.1291(3) 0.9741(4)
C11_12 C 0.5649(4) 0.1738(3) 0.9977(5)
H17_12 H 0.5932 0.1922 0.9966
H25_12 H 0.4204 0.1886 0.9734
C18_12 C 0.3455(4) 0.0699(3) 0.9842(4)
H27_12 H 0.3221 0.0480 0.9678
H34_12 H 0.2705 0.0704 0.9936
C22_12 C 0.2591(4) 0.1184(3) 0.9858(4)
C23_12 C 0.2829(5) 0.1722(3) 0.9341(4)
H35_12 H 0.2992 0.1935 0.9085
C24_12 C 0.2483(4) 0.1669(3) 0.9604(4)
H36_12 H 0.2370 0.1840 0.9569
N15_6 N 0.1962(4) 0.0294(2) 0.6961(3)
N16_6 N 0.2647(3) 0.0370(2) 0.7961(3)
N19_12 N 0.3072(3) 0.0851(2) 0.8593(3)
N20_12 N 0.3763(3) 0.1845(2) 0.8826(3)
N21_12 N 0.4342(3) 0.2319(2) 0.8394(3)
C31_12 C 0.3089(10) 0.0613(6) 0.5787(8)
H46_12 H 0.3368 0.0827 0.5858
H47_12 H 0.3060 0.0350 0.5880
H48_12 H 0.3023 0.0617 0.5383
C32_12 C 0.2791(7) 0.0688(4) 0.6175(6)
H49_12 H 0.2821 0.0955 0.6085
H50_12 H 0.2857 0.0686 0.6583
C33_12 C 0.2350(5) 0.0351(3) 0.6059(4)
H51_12 H 0.2322 0.0086 0.6155
H52_12 H 0.2290 0.0349 0.5647
C34_12 C 0.2042(5) 0.0408(3) 0.6408(4)
C35_12 C 0.1595(5) 0.0578(3) 0.6644(5)
H53_12 H 0.1411 0.0677 0.6633
C36_12 C 0.1678(5) 0.0409(3) 0.7114(4)
H54_12 H 0.1561 0.0376 0.7482
C37_12 C 0.2389(6) 0.1477(5) 0.7771(7)
H55_12 H 0.2502 0.1709 0.7512
H56_12 H 0.2124 0.1270 0.7629
H57_12 H 0.2359 0.1563 0.8154
C38_12 C 0.2681(6) 0.1295(4) 0.7800(6)
H58_12 H 0.2950 0.1502 0.7943
H59_12 H 0.2715 0.1209 0.7414
C39_12 C 0.2490(4) 0.0923(3) 0.8214(4)
H60_12 H 0.2215 0.0726 0.8077
H61_12 H 0.2463 0.1015 0.8599
C40_12 C 0.2738(4) 0.0709(3) 0.8262(4)
C41_12 C 0.2952(4) 0.0284(3) 0.8113(4)
H62_12 H 0.2976 0.0062 0.7978
C42_12 C 0.3212(4) 0.0577(3) 0.8491(4)
H63_12 H 0.3446 0.0592 0.8655
C43_12 C 0.4005(8) 0.1154(5) 0.7287(7)
H64_12 H 0.3905 0.1102 0.6893
H65_12 H 0.4291 0.1228 0.7292
H66_12 H 0.3847 0.0910 0.7518
C44_12 C 0.3960(6) 0.1515(4) 0.7546(5)
H67_12 H 0.3674 0.1446 0.7536
H68_12 H 0.4121 0.1764 0.7317
C45_12 C 0.4117(4) 0.1586(3) 0.8179(4)
H69_12 H 0.4404 0.1658 0.8181
H70_12 H 0.3962 0.1332 0.8397
C46_12 C 0.4076(4) 0.1926(3) 0.8475(4)
C47_12 C 0.3838(5) 0.2226(4) 0.8992(4)
H71_12 H 0.3675 0.2276 0.9248
C48_12 C 0.4184(4) 0.2519(3) 0.8729(4)
H72_12 H 0.4297 0.2803 0.8764
H10_12 H 0.4125 0.9965 0.9191
Zn9_8 Zn 0.21444(4) 1.0000 0.7500
N14_6 N 0.1669(3) 0.9706(2) 0.8039(3)
N18_6 N 0.2276(4) 0.9630(2) 0.7039(3)
H10_13 H 0.4160 0.0035 0.5809
Zn9_9 Zn 0.21448(4) 0.0000 0.7500
Zn2_10 Zn 0.3333 0.88111(4) 0.4167
Zn3_15 Zn 0.20222(4) 0.86888(4) 0.5833
N4_10 N 0.3627(2) 0.8629(2) 0.4706(3)
N5_10 N 0.2963(2) 0.8943(2) 0.4628(3)
N6_13 N 0.2482(2) 0.8887(2) 0.5260(3)
N7_13 N 0.1488(2) 0.8584(2) 0.5493(3)
N8_13 N 0.1014(2) 0.8689(2) 0.5061(3)
C7_13 C 0.3946(6) 0.9756(5) 0.5880(8)
H11_13 H 0.3683 0.9727 0.5787
H12_13 H 0.3950 0.9690 0.6284
C8_13 C 0.4021(4) 0.9458(4) 0.5492(6)
H13_13 H 0.4288 0.9488 0.5582
H14_13 H 0.4019 0.9524 0.5084
C9_13 C 0.3684(3) 0.9017(3) 0.5608(4)
H15_13 H 0.3419 0.8989 0.5512
H16_13 H 0.3682 0.8957 0.6020
C10_13 C 0.3741(3) 0.8709(3) 0.5259(4)
C11_13 C 0.3911(3) 0.8262(3) 0.5023(5)
H17_13 H 0.4010 0.8078 0.5034
C12_13 C 0.3742(3) 0.8345(3) 0.4553(4)
H18_13 H 0.3709 0.8228 0.4185
C13_13 C 0.1856(5) 0.7578(4) 0.4438(7)
H19_13 H 0.1624 0.7459 0.4179
H20_13 H 0.2063 0.7520 0.4296
H21_13 H 0.1770 0.7462 0.4821
C14_13 C 0.2038(4) 0.8052(4) 0.4467(6)
H22_13 H 0.1831 0.8114 0.4610
H23_13 H 0.2124 0.8172 0.4081
C15_13 C 0.2410(3) 0.8233(3) 0.4881(4)
H24_13 H 0.2607 0.8155 0.4744
H25_13 H 0.2318 0.8114 0.5266
C16_13 C 0.2624(3) 0.8695(3) 0.4929(4)
C17_13 C 0.3049(3) 0.9334(3) 0.4780(4)
H26_13 H 0.3271 0.9580 0.4645
C18_13 C 0.2756(3) 0.9301(3) 0.5158(4)
H27_13 H 0.2741 0.9520 0.5322
C19_13 C 0.2179(5) 0.9517(6) 0.3954(7)
H28_13 H 0.2231 0.9469 0.3560
H29_13 H 0.2105 0.9729 0.3959
H30_13 H 0.2423 0.9603 0.4185
C20_13 C 0.1818(4) 0.9111(4) 0.4213(5)
H31_13 H 0.1887 0.8894 0.4203
H32_13 H 0.1569 0.9023 0.3984
C21_13 C 0.1747(3) 0.9197(3) 0.4846(4)
H33_13 H 0.1675 0.9412 0.4848
H34_13 H 0.2001 0.9296 0.5064
C22_13 C 0.1407(3) 0.8816(3) 0.5142(4)
C23_13 C 0.1107(4) 0.8278(3) 0.5659(4)
H35_13 H 0.1057 0.8065 0.5915
C24_13 C 0.0814(3) 0.8331(3) 0.5396(4)
H36_13 H 0.0530 0.8160 0.5431
N13_10 N 0.3040(2) 0.8335(3) 0.3627(3)
N17_10 N 0.3704(2) 0.9313(3) 0.3705(3)
N19_13 N 0.2220(2) 0.9149(2) 0.6407(3)
N20_13 N 0.1917(2) 0.8155(2) 0.6174(3)
N21_13 N 0.2022(2) 0.7681(2) 0.6606(3)
C31_13 C 0.2477(8) 0.9387(6) 0.9213(8)
H46_13 H 0.2542 0.9173 0.9142
H47_13 H 0.2711 0.9650 0.9120
H48_13 H 0.2407 0.9383 0.9617
C32_13 C 0.2104(6) 0.9312(4) 0.8825(6)
H49_13 H 0.1867 0.9045 0.8915
H50_13 H 0.2172 0.9314 0.8417
C33_13 C 0.2000(4) 0.9649(3) 0.8941(4)
H51_13 H 0.2237 0.9914 0.8845
H52_13 H 0.1942 0.9651 0.9353
C34_13 C 0.1635(4) 0.9592(3) 0.8592(4)
C35_13 C 0.1018(4) 0.9422(3) 0.8356(5)
H53_13 H 0.0735 0.9323 0.8367
C36_13 C 0.1270(4) 0.9591(3) 0.7886(4)
H54_13 H 0.1186 0.9624 0.7518
C37_13 C 0.0911(4) 0.8523(5) 0.7229(7)
H55_13 H 0.0792 0.8291 0.7488
H56_13 H 0.0853 0.8730 0.7371
H57_13 H 0.0795 0.8437 0.6846
C38_13 C 0.1385(4) 0.8705(4) 0.7200(6)
H58_13 H 0.1447 0.8498 0.7057
H59_13 H 0.1505 0.8791 0.7586
C39_13 C 0.1566(3) 0.9077(3) 0.6786(4)
H60_13 H 0.1488 0.9274 0.6923
H61_13 H 0.1447 0.8985 0.6401
C40_13 C 0.2028(3) 0.9291(3) 0.6738(4)
C41_13 C 0.2667(3) 0.9716(3) 0.6887(4)
H62_13 H 0.2913 0.9938 0.7022
C42_13 C 0.2634(3) 0.9423(3) 0.6509(4)
H63_13 H 0.2853 0.9408 0.6345
C43_13 C 0.2850(6) 0.8846(5) 0.7713(7)
H64_13 H 0.2802 0.8898 0.8107
H65_13 H 0.3062 0.8772 0.7708
H66_13 H 0.2936 0.9090 0.7482
C44_13 C 0.2444(4) 0.8485(4) 0.7454(5)
H67_13 H 0.2227 0.8554 0.7464
H68_13 H 0.2356 0.8236 0.7683
C45_13 C 0.2530(3) 0.8414(3) 0.6821(4)
H69_13 H 0.2745 0.8342 0.6819
H70_13 H 0.2629 0.8668 0.6603
C46_13 C 0.2149(3) 0.8074(3) 0.6525(4)
C47_13 C 0.1611(3) 0.7774(4) 0.6008(4)
H71_13 H 0.1398 0.7724 0.5752
C48_13 C 0.1664(3) 0.7481(3) 0.6271(4)
H72_13 H 0.1493 0.7197 0.6236
Zn2_11 Zn 0.54781(4) 0.6667 0.4167
Zn3_16 Zn 0.66666(6) 0.79778(4) 0.5833
N4_11 N 0.5002(3) 0.6373(2) 0.4706(3)
N5_11 N 0.5980(3) 0.7037(2) 0.4628(3)
N6_14 N 0.6405(3) 0.7518(2) 0.5260(3)
N7_14 N 0.7096(3) 0.8512(2) 0.5493(3)
N8_14 N 0.7675(3) 0.8986(2) 0.5061(3)
C7_14 C 0.5810(8) 0.6054(6) 0.5880(8)
H10_14 H 0.5875 0.5840 0.5809
H11_14 H 0.6044 0.6317 0.5787
H12_14 H 0.5740 0.6050 0.6284
C8_14 C 0.5437(6) 0.5979(4) 0.5492(6)
H13_14 H 0.5200 0.5712 0.5582
H14_14 H 0.5505 0.5981 0.5084
C9_14 C 0.5333(4) 0.6316(3) 0.5608(4)
H15_14 H 0.5570 0.6581 0.5512
H16_14 H 0.5275 0.6318 0.6020
C10_14 C 0.4968(4) 0.6259(3) 0.5259(4)
C11_14 C 0.4351(4) 0.6089(3) 0.5023(5)
H17_14 H 0.4068 0.5990 0.5034
C12_14 C 0.4603(4) 0.6258(3) 0.4553(4)
H18_14 H 0.4519 0.6291 0.4185
C13_14 C 0.5722(6) 0.8144(5) 0.4438(7)
H19_14 H 0.5835 0.8376 0.4179
H20_14 H 0.5457 0.7937 0.4296
H21_14 H 0.5692 0.8230 0.4821
C14_14 C 0.6014(6) 0.7962(4) 0.4467(6)
H22_14 H 0.6283 0.8169 0.4610
H23_14 H 0.6048 0.7876 0.4081
C15_14 C 0.5823(4) 0.7590(3) 0.4881(4)
H24_14 H 0.5548 0.7393 0.4744
H25_14 H 0.5796 0.7682 0.5266
C16_14 C 0.6071(4) 0.7376(3) 0.4929(4)
C17_14 C 0.6285(4) 0.6951(3) 0.4780(4)
H26_14 H 0.6309 0.6729 0.4645
C18_14 C 0.6545(4) 0.7244(3) 0.5158(4)
H27_14 H 0.6779 0.7259 0.5322
C19_14 C 0.7338(8) 0.7821(5) 0.3954(7)
H28_14 H 0.7238 0.7769 0.3560
H29_14 H 0.7624 0.7895 0.3959
H30_14 H 0.7180 0.7577 0.4185
C20_14 C 0.7293(6) 0.8182(4) 0.4213(5)
H31_14 H 0.7007 0.8113 0.4203
H32_14 H 0.7454 0.8431 0.3984
C21_14 C 0.7450(4) 0.8253(3) 0.4846(4)
H33_14 H 0.7737 0.8325 0.4848
H34_14 H 0.7295 0.7999 0.5064
C22_14 C 0.7409(4) 0.8593(3) 0.5142(4)
C23_14 C 0.7171(5) 0.8893(4) 0.5659(4)
H35_14 H 0.7008 0.8943 0.5915
C24_14 C 0.7517(4) 0.9186(3) 0.5396(4)
H36_14 H 0.7630 0.9470 0.5431
N13_11 N 0.5296(4) 0.6960(2) 0.3627(3)
N17_11 N 0.5610(4) 0.6296(2) 0.3705(3)
N19_14 N 0.6928(3) 0.7780(2) 0.6407(3)
N20_14 N 0.6237(3) 0.8083(2) 0.6174(3)
N21_14 N 0.5658(3) 0.7978(2) 0.6606(3)
C31_14 C 0.6911(10) 0.7523(8) 0.9213(8)
H46_14 H 0.6632 0.7458 0.9142
H47_14 H 0.6940 0.7289 0.9120
H48_14 H 0.6977 0.7593 0.9617
C32_14 C 0.7209(7) 0.7896(6) 0.8825(6)
H49_14 H 0.7179 0.8133 0.8915
H50_14 H 0.7143 0.7828 0.8417
C33_14 C 0.7650(5) 0.8000(4) 0.8941(4)
H51_14 H 0.7678 0.7763 0.8845
H52_14 H 0.7710 0.8058 0.9353
C34_14 C 0.7958(5) 0.8365(4) 0.8592(4)
C35_14 C 0.8405(5) 0.8982(4) 0.8356(5)
H53_14 H 0.8589 0.9265 0.8367
C36_14 C 0.8322(5) 0.8730(4) 0.7886(4)
H54_14 H 0.8439 0.8814 0.7518
C37_14 C 0.7611(6) 0.9089(4) 0.7229(7)
H55_14 H 0.7498 0.9208 0.7488
H56_14 H 0.7876 0.9147 0.7371
H57_14 H 0.7641 0.9205 0.6846
C38_14 C 0.7319(6) 0.8615(4) 0.7200(6)
H58_14 H 0.7050 0.8553 0.7057
H59_14 H 0.7285 0.8495 0.7586
C39_14 C 0.7510(4) 0.8434(3) 0.6786(4)
H60_14 H 0.7785 0.8512 0.6923
H61_14 H 0.7537 0.8553 0.6401
C40_14 C 0.7262(4) 0.7972(3) 0.6738(4)
C41_14 C 0.7048(4) 0.7333(3) 0.6887(4)
H62_14 H 0.7024 0.7087 0.7022
C42_14 C 0.6788(4) 0.7366(3) 0.6509(4)
H63_14 H 0.6554 0.7147 0.6345
C43_14 C 0.5995(8) 0.7150(6) 0.7713(7)
H64_14 H 0.6095 0.7198 0.8107
H65_14 H 0.5709 0.6938 0.7708
H66_14 H 0.6153 0.7064 0.7482
C44_14 C 0.6040(6) 0.7556(4) 0.7454(5)
H67_14 H 0.6326 0.7773 0.7464
H68_14 H 0.5879 0.7644 0.7683
C45_14 C 0.5883(4) 0.7470(3) 0.6821(4)
H69_14 H 0.5596 0.7255 0.6819
H70_14 H 0.6038 0.7371 0.6603
C46_14 C 0.5924(4) 0.7851(3) 0.6525(4)
C47_14 C 0.6162(5) 0.8389(3) 0.6008(4)
H71_14 H 0.6325 0.8602 0.5752
C48_14 C 0.5816(4) 0.8336(3) 0.6271(4)
H72_14 H 0.5703 0.8507 0.6236
Zn2_12 Zn 0.11889(4) 0.45219(4) 0.4167
Zn3_17 Zn 0.13112(4) 0.33334(6) 0.5833
N4_12 N 0.1371(2) 0.4998(3) 0.4706(3)
N5_12 N 0.1057(2) 0.4020(3) 0.4628(3)
N6_15 N 0.1113(2) 0.3595(3) 0.5260(3)
N7_15 N 0.1416(2) 0.2904(3) 0.5493(3)
N8_15 N 0.1311(2) 0.2325(3) 0.5061(3)
C7_15 C 0.0244(5) 0.4190(8) 0.5880(8)
H11_15 H 0.0273 0.3956 0.5787
H12_15 H 0.0310 0.4260 0.6284
C8_15 C 0.0542(4) 0.4563(6) 0.5492(6)
H13_15 H 0.0512 0.4800 0.5582
H14_15 H 0.0476 0.4495 0.5084
C9_15 C 0.0983(3) 0.4667(4) 0.5608(4)
H15_15 H 0.1011 0.4430 0.5512
H16_15 H 0.1043 0.4725 0.6020
C10_15 C 0.1291(3) 0.5032(4) 0.5259(4)
C11_15 C 0.1738(3) 0.5649(4) 0.5023(5)
H17_15 H 0.1922 0.5932 0.5034
C12_15 C 0.1655(3) 0.5397(4) 0.4553(4)
H18_15 H 0.1772 0.5481 0.4185
C13_15 C 0.2422(4) 0.4278(6) 0.4438(7)
H19_15 H 0.2541 0.4165 0.4179
H20_15 H 0.2480 0.4543 0.4296
H21_15 H 0.2538 0.4308 0.4821
C14_15 C 0.1948(4) 0.3986(6) 0.4467(6)
H22_15 H 0.1886 0.3717 0.4610
H23_15 H 0.1828 0.3952 0.4081
C15_15 C 0.1767(3) 0.4177(4) 0.4881(4)
H24_15 H 0.1845 0.4452 0.4744
H25_15 H 0.1886 0.4204 0.5266
C16_15 C 0.1305(3) 0.3929(4) 0.4929(4)
C17_15 C 0.0666(3) 0.3715(4) 0.4780(4)
H26_15 H 0.0420 0.3691 0.4645
C18_15 C 0.0699(3) 0.3455(4) 0.5158(4)
H27_15 H 0.0480 0.3221 0.5322
C19_15 C 0.0483(6) 0.2662(8) 0.3954(7)
H28_15 H 0.0531 0.2762 0.3560
H29_15 H 0.0271 0.2376 0.3959
H30_15 H 0.0397 0.2820 0.4185
C20_15 C 0.0889(4) 0.2707(6) 0.4213(5)
H31_15 H 0.1106 0.2993 0.4203
H32_15 H 0.0977 0.2546 0.3984
C21_15 C 0.0803(3) 0.2550(4) 0.4846(4)
H33_15 H 0.0588 0.2263 0.4848
H34_15 H 0.0704 0.2705 0.5064
C22_15 C 0.1184(3) 0.2591(4) 0.5142(4)
C23_15 C 0.1722(3) 0.2829(5) 0.5659(4)
H35_15 H 0.1935 0.2992 0.5915
C24_15 C 0.1669(3) 0.2483(4) 0.5396(4)
H36_15 H 0.1840 0.2370 0.5431
N13_12 N 0.1665(3) 0.4704(4) 0.3627(3)
N17_12 N 0.0687(3) 0.4390(4) 0.3705(3)
N19_15 N 0.0851(2) 0.3072(3) 0.6407(3)
N20_15 N 0.1845(2) 0.3763(3) 0.6174(3)
N21_15 N 0.2319(2) 0.4342(3) 0.6606(3)
C31_15 C 0.0613(6) 0.3089(10) 0.9213(8)
H46_15 H 0.0827 0.3368 0.9142
H47_15 H 0.0350 0.3060 0.9120
H48_15 H 0.0617 0.3023 0.9617
C32_15 C 0.0688(4) 0.2791(7) 0.8825(6)
H49_15 H 0.0955 0.2821 0.8915
H50_15 H 0.0686 0.2857 0.8417
C33_15 C 0.0351(3) 0.2350(5) 0.8941(4)
H51_15 H 0.0086 0.2322 0.8845
H52_15 H 0.0349 0.2290 0.9353
C34_15 C 0.0408(3) 0.2042(5) 0.8592(4)
C35_15 C 0.0578(3) 0.1595(5) 0.8356(5)
H53_15 H 0.0677 0.1411 0.8367
C36_15 C 0.0409(3) 0.1678(5) 0.7886(4)
H54_15 H 0.0376 0.1561 0.7518
C37_15 C 0.1477(5) 0.2389(6) 0.7229(7)
H55_15 H 0.1709 0.2502 0.7488
H56_15 H 0.1270 0.2124 0.7371
H57_15 H 0.1563 0.2359 0.6846
C38_15 C 0.1295(4) 0.2681(6) 0.7200(6)
H58_15 H 0.1502 0.2950 0.7057
H59_15 H 0.1209 0.2715 0.7586
C39_15 C 0.0923(3) 0.2490(4) 0.6786(4)
H60_15 H 0.0726 0.2215 0.6923
H61_15 H 0.1015 0.2463 0.6401
C40_15 C 0.0709(3) 0.2738(4) 0.6738(4)
C41_15 C 0.0284(3) 0.2952(4) 0.6887(4)
H62_15 H 0.0062 0.2976 0.7022
C42_15 C 0.0577(3) 0.3212(4) 0.6509(4)
H63_15 H 0.0592 0.3446 0.6345
C43_15 C 0.1154(5) 0.4005(8) 0.7713(7)
H64_15 H 0.1102 0.3905 0.8107
H65_15 H 0.1228 0.4291 0.7708
H66_15 H 0.0910 0.3847 0.7482
C44_15 C 0.1515(4) 0.3960(6) 0.7454(5)
H67_15 H 0.1446 0.3674 0.7464
H68_15 H 0.1764 0.4121 0.7683
C45_15 C 0.1586(3) 0.4117(4) 0.6821(4)
H69_15 H 0.1658 0.4404 0.6819
H70_15 H 0.1332 0.3962 0.6603
C46_15 C 0.1926(3) 0.4076(4) 0.6525(4)
C47_15 C 0.2226(4) 0.3838(5) 0.6008(4)
H71_15 H 0.2276 0.3675 0.5752
C48_15 C 0.2519(3) 0.4184(4) 0.6271(4)
H72_15 H 0.2803 0.4297 0.6236
H10_15 H 0.9965 0.4125 0.5809
Zn9_10 Zn 1.0000 0.21444(4) 0.7500
C31_16 C 0.2721(6) 0.9143(8) 0.2453(8)
H46_16 H 0.2507 0.9208 0.2524
H47_16 H 0.2984 0.9377 0.2546
H48_16 H 0.2717 0.9073 0.2049
C32_16 C 0.2646(4) 0.8770(6) 0.2841(6)
H49_16 H 0.2379 0.8533 0.2751
H50_16 H 0.2648 0.8838 0.3249
C33_16 C 0.2983(3) 0.8666(4) 0.2725(4)
H51_16 H 0.3248 0.8903 0.2821
H52_16 H 0.2985 0.8608 0.2313
C34_16 C 0.2926(3) 0.8301(4) 0.3074(4)
C35_16 C 0.2756(3) 0.7684(4) 0.3310(5)
H53_16 H 0.2657 0.7401 0.3299
C36_16 C 0.2925(3) 0.7936(4) 0.3780(4)
H54_16 H 0.2958 0.7852 0.4148
C31_17 C 0.0857(8) 0.3577(10) 0.2453(8)
H46_17 H 0.0792 0.3298 0.2524
H47_17 H 0.0623 0.3606 0.2546
H48_17 H 0.0927 0.3643 0.2049
C32_17 C 0.1230(6) 0.3875(7) 0.2841(6)
H49_17 H 0.1467 0.3845 0.2751
H50_17 H 0.1162 0.3809 0.3249
C33_17 C 0.1334(4) 0.4316(5) 0.2725(4)
H51_17 H 0.1097 0.4344 0.2821
H52_17 H 0.1392 0.4376 0.2313
C34_17 C 0.1699(4) 0.4624(5) 0.3074(4)
C35_17 C 0.2316(4) 0.5071(5) 0.3310(5)
H53_17 H 0.2599 0.5255 0.3299
C36_17 C 0.2064(4) 0.4988(5) 0.3780(4)
H54_17 H 0.2148 0.5105 0.4148
C31_18 C 0.6423(10) 0.7279(6) 0.2453(8)
H46_18 H 0.6702 0.7493 0.2524
H47_18 H 0.6394 0.7016 0.2546
H48_18 H 0.6357 0.7283 0.2049
C32_18 C 0.6125(7) 0.7354(4) 0.2841(6)
H49_18 H 0.6155 0.7621 0.2751
H50_18 H 0.6191 0.7352 0.3249
C33_18 C 0.5684(5) 0.7017(3) 0.2725(4)
H51_18 H 0.5656 0.6752 0.2821
H52_18 H 0.5624 0.7015 0.2313
C34_18 C 0.5376(5) 0.7074(3) 0.3074(4)
C35_18 C 0.4929(5) 0.7244(3) 0.3310(5)
H53_18 H 0.4745 0.7343 0.3299
C36_18 C 0.5012(5) 0.7075(3) 0.3780(4)
H54_18 H 0.4895 0.7042 0.4148
Zn3_18 Zn 0.53555(4) 0.53555(4) 0.2500
N6_16 N 0.5815(2) 0.5554(2) 0.1927(3)
N7_16 N 0.4821(2) 0.5251(2) 0.2160(3)
N8_16 N 0.4347(2) 0.5356(2) 0.1728(3)
C7_16 C 0.7279(6) 0.6423(5) 0.2547(8)
H10_16 H 0.7493 0.6702 0.2476
H11_16 H 0.7016 0.6394 0.2454
H12_16 H 0.7283 0.6357 0.2951
C8_16 C 0.7354(4) 0.6125(4) 0.2159(6)
H13_16 H 0.7621 0.6155 0.2249
H14_16 H 0.7352 0.6191 0.1751
C9_16 C 0.7017(3) 0.5684(3) 0.2275(4)
H15_16 H 0.6752 0.5656 0.2179
H16_16 H 0.7015 0.5624 0.2687
C10_16 C 0.7074(3) 0.5376(3) 0.1926(4)
C11_16 C 0.7244(3) 0.4929(3) 0.1690(5)
H17_16 H 0.7343 0.4745 0.1701
C12_16 C 0.7075(3) 0.5012(3) 0.1220(4)
H18_16 H 0.7042 0.4895 0.0852
C13_16 C 0.5189(5) 0.4245(4) 0.1105(7)
H19_16 H 0.4957 0.4126 0.0846
H20_16 H 0.5396 0.4187 0.0963
H21_16 H 0.5103 0.4129 0.1488
C14_16 C 0.5371(4) 0.4719(4) 0.1134(6)
H22_16 H 0.5164 0.4781 0.1277
H23_16 H 0.5457 0.4839 0.0748
C15_16 C 0.5743(3) 0.4900(3) 0.1548(4)
H24_16 H 0.5940 0.4822 0.1411
H25_16 H 0.5651 0.4781 0.1933
C16_16 C 0.5957(3) 0.5362(3) 0.1596(4)
C17_16 C 0.6382(3) 0.6001(3) 0.1447(4)
H26_16 H 0.6604 0.6247 0.1312
C18_16 C 0.6089(3) 0.5968(3) 0.1825(4)
H27_16 H 0.6074 0.6187 0.1989
C19_16 C 0.5512(5) 0.6184(6) 0.0621(7)
H28_16 H 0.5564 0.6136 0.0227
H29_16 H 0.5438 0.6396 0.0626
H30_16 H 0.5756 0.6270 0.0852
C20_16 C 0.5151(4) 0.5778(4) 0.0880(5)
H31_16 H 0.5220 0.5561 0.0870
H32_16 H 0.4902 0.5690 0.0651
C21_16 C 0.5080(3) 0.5864(3) 0.1513(4)
H33_16 H 0.5008 0.6079 0.1515
H34_16 H 0.5334 0.5963 0.1731
C22_16 C 0.4740(3) 0.5483(3) 0.1809(4)
C23_16 C 0.4440(4) 0.4945(3) 0.2326(4)
H35_16 H 0.4390 0.4732 0.2582
C24_16 C 0.4147(3) 0.4998(3) 0.2063(4)
H36_16 H 0.3863 0.4827 0.2098
N19_16 N 0.5554(2) 0.5815(2) 0.3073(3)
N20_16 N 0.5251(2) 0.4821(2) 0.2840(3)
N21_16 N 0.5356(2) 0.4347(2) 0.3272(3)
C37_16 C 0.4245(4) 0.5189(5) 0.3895(7)
H55_16 H 0.4126 0.4957 0.4154
H56_16 H 0.4187 0.5396 0.4037
H57_16 H 0.4129 0.5103 0.3512
C38_16 C 0.4719(4) 0.5371(4) 0.3866(6)
H58_16 H 0.4781 0.5164 0.3723
H59_16 H 0.4839 0.5457 0.4252
C39_16 C 0.4900(3) 0.5743(3) 0.3452(4)
H60_16 H 0.4822 0.5940 0.3589
H61_16 H 0.4781 0.5651 0.3067
C40_16 C 0.5362(3) 0.5957(3) 0.3404(4)
C41_16 C 0.6001(3) 0.6382(3) 0.3553(4)
H62_16 H 0.6247 0.6604 0.3688
C42_16 C 0.5968(3) 0.6089(3) 0.3175(4)
H63_16 H 0.6187 0.6074 0.3011
C43_16 C 0.6184(6) 0.5512(5) 0.4379(7)
H64_16 H 0.6136 0.5564 0.4773
H65_16 H 0.6396 0.5438 0.4374
H66_16 H 0.6270 0.5756 0.4148
C44_16 C 0.5778(4) 0.5151(4) 0.4120(5)
H67_16 H 0.5561 0.5220 0.4130
H68_16 H 0.5690 0.4902 0.4349
C45_16 C 0.5864(3) 0.5080(3) 0.3487(4)
H69_16 H 0.6079 0.5008 0.3485
H70_16 H 0.5963 0.5334 0.3269
C46_16 C 0.5483(3) 0.4740(3) 0.3191(4)
C47_16 C 0.4945(3) 0.4440(4) 0.2674(4)
H71_16 H 0.4732 0.4390 0.2418
C48_16 C 0.4998(3) 0.4147(3) 0.2937(4)
H72_16 H 0.4827 0.3863 0.2902
Zn3_19 Zn -0.00001(6) 0.46445(4) 0.2500
N7_17 N 0.0429(3) 0.5179(2) 0.2160(3)
N8_17 N 0.1008(3) 0.5653(2) 0.1728(3)
H27_17 H 0.0112 0.3926 0.1989
C19_17 C 0.0671(8) 0.4488(5) 0.0621(7)
H28_17 H 0.0571 0.4436 0.0227
H29_17 H 0.0957 0.4562 0.0626
H30_17 H 0.0513 0.4244 0.0852
C20_17 C 0.0626(6) 0.4849(4) 0.0880(5)
H31_17 H 0.0340 0.4780 0.0870
H32_17 H 0.0787 0.5098 0.0651
C21_17 C 0.0783(4) 0.4920(3) 0.1513(4)
H33_17 H 0.1070 0.4992 0.1515
H34_17 H 0.0628 0.4666 0.1731
C22_17 C 0.0742(4) 0.5260(3) 0.1809(4)
C23_17 C 0.0504(5) 0.5560(4) 0.2326(4)
H35_17 H 0.0341 0.5610 0.2582
C24_17 C 0.0850(4) 0.5853(3) 0.2063(4)
H36_17 H 0.0963 0.6137 0.2098
N19_17 N 0.0262(3) 0.4446(2) 0.3073(3)
C37_17 C 0.0945(6) 0.5755(4) 0.3895(7)
H55_17 H 0.0832 0.5874 0.4154
H56_17 H 0.1210 0.5813 0.4037
H57_17 H 0.0975 0.5871 0.3512
C38_17 C 0.0653(6) 0.5281(4) 0.3866(6)
H58_17 H 0.0384 0.5219 0.3723
H59_17 H 0.0619 0.5161 0.4252
C39_17 C 0.0844(4) 0.5100(3) 0.3452(4)
H60_17 H 0.1119 0.5178 0.3589
H61_17 H 0.0871 0.5219 0.3067
C40_17 C 0.0596(4) 0.4638(3) 0.3404(4)
C41_17 C 0.0382(4) 0.3999(3) 0.3553(4)
H62_17 H 0.0358 0.3753 0.3688
C42_17 C 0.0122(4) 0.4032(3) 0.3175(4)
Zn3_20 Zn 0.99999(6) 0.46445(4) 0.2500
N6_17 N 0.9738(3) 0.4185(2) 0.1927(3)
C7_17 C 0.9143(8) 0.2721(6) 0.2547(8)
H10_17 H 0.9208 0.2507 0.2476
H11_17 H 0.9377 0.2984 0.2454
H12_17 H 0.9073 0.2717 0.2951
C8_17 C 0.8770(6) 0.2646(4) 0.2159(6)
H13_17 H 0.8533 0.2379 0.2249
H14_17 H 0.8838 0.2648 0.1751
C9_17 C 0.8666(4) 0.2983(3) 0.2275(4)
H15_17 H 0.8903 0.3248 0.2179
H16_17 H 0.8608 0.2985 0.2687
C10_17 C 0.8301(4) 0.2926(3) 0.1926(4)
C11_17 C 0.7684(4) 0.2756(3) 0.1690(5)
H17_17 H 0.7401 0.2657 0.1701
C12_17 C 0.7936(4) 0.2925(3) 0.1220(4)
H18_17 H 0.7852 0.2958 0.0852
C13_17 C 0.9055(6) 0.4811(5) 0.1105(7)
H19_17 H 0.9168 0.5043 0.0846
H20_17 H 0.8790 0.4604 0.0963
H21_17 H 0.9025 0.4897 0.1488
C14_17 C 0.9347(6) 0.4629(4) 0.1134(6)
H22_17 H 0.9616 0.4836 0.1277
H23_17 H 0.9381 0.4543 0.0748
C15_17 C 0.9156(4) 0.4257(3) 0.1548(4)
H24_17 H 0.8881 0.4060 0.1411
H25_17 H 0.9129 0.4349 0.1933
C16_17 C 0.9404(4) 0.4043(3) 0.1596(4)
C17_17 C 0.9618(4) 0.3618(3) 0.1447(4)
H26_17 H 0.9642 0.3396 0.1312
C18_17 C 0.9878(4) 0.3911(3) 0.1825(4)
N20_17 N 0.9571(3) 0.4749(2) 0.2840(3)
N21_17 N 0.8992(3) 0.4644(2) 0.3272(3)
H63_17 H 0.9888 0.3813 0.3011
C43_17 C 0.9329(8) 0.3816(6) 0.4379(7)
H64_17 H 0.9429 0.3864 0.4773
H65_17 H 0.9043 0.3604 0.4374
H66_17 H 0.9487 0.3730 0.4148
C44_17 C 0.9374(6) 0.4222(4) 0.4120(5)
H67_17 H 0.9660 0.4439 0.4130
H68_17 H 0.9213 0.4310 0.4349
C45_17 C 0.9217(4) 0.4136(3) 0.3487(4)
H69_17 H 0.8930 0.3921 0.3485
H70_17 H 0.9372 0.4037 0.3269
C46_17 C 0.9258(4) 0.4517(3) 0.3191(4)
C47_17 C 0.9496(5) 0.5055(3) 0.2674(4)
H71_17 H 0.9659 0.5268 0.2418
C48_17 C 0.9150(4) 0.5002(3) 0.2937(4)
H72_17 H 0.9037 0.5173 0.2902
Zn3_21 Zn 0.46445(4) 0.00001(6) 0.2500
N6_18 N 0.4446(2) 0.0262(3) 0.1927(3)
C7_18 C 0.3577(5) 0.0857(8) 0.2547(8)
H10_18 H 0.3298 0.0792 0.2476
H11_18 H 0.3606 0.0623 0.2454
H12_18 H 0.3643 0.0927 0.2951
C8_18 C 0.3875(4) 0.1230(6) 0.2159(6)
H13_18 H 0.3845 0.1467 0.2249
H14_18 H 0.3809 0.1162 0.1751
C9_18 C 0.4316(3) 0.1334(4) 0.2275(4)
H15_18 H 0.4344 0.1097 0.2179
H16_18 H 0.4376 0.1392 0.2687
C10_18 C 0.4624(3) 0.1699(4) 0.1926(4)
C11_18 C 0.5071(3) 0.2316(4) 0.1690(5)
H17_18 H 0.5255 0.2599 0.1701
C12_18 C 0.4988(3) 0.2064(4) 0.1220(4)
H18_18 H 0.5105 0.2148 0.0852
C13_18 C 0.5755(4) 0.0945(6) 0.1105(7)
H19_18 H 0.5874 0.0832 0.0846
H20_18 H 0.5813 0.1210 0.0963
H21_18 H 0.5871 0.0975 0.1488
C14_18 C 0.5281(4) 0.0653(6) 0.1134(6)
H22_18 H 0.5219 0.0384 0.1277
H23_18 H 0.5161 0.0619 0.0748
C15_18 C 0.5100(3) 0.0844(4) 0.1548(4)
H24_18 H 0.5178 0.1119 0.1411
H25_18 H 0.5219 0.0871 0.1933
C16_18 C 0.4638(3) 0.0596(4) 0.1596(4)
C17_18 C 0.3999(3) 0.0382(4) 0.1447(4)
H26_18 H 0.3753 0.0358 0.1312
C18_18 C 0.4032(3) 0.0122(4) 0.1825(4)
N20_18 N 0.5179(2) 0.0429(3) 0.2840(3)
N21_18 N 0.5653(2) 0.1008(3) 0.3272(3)
H63_18 H 0.3926 0.0112 0.3011
C43_18 C 0.4488(5) 0.0671(8) 0.4379(7)
H64_18 H 0.4436 0.0571 0.4773
H65_18 H 0.4562 0.0957 0.4374
H66_18 H 0.4244 0.0513 0.4148
C44_18 C 0.4849(4) 0.0626(6) 0.4120(5)
H67_18 H 0.4780 0.0340 0.4130
H68_18 H 0.5098 0.0787 0.4349
C45_18 C 0.4920(3) 0.0783(4) 0.3487(4)
H69_18 H 0.4992 0.1070 0.3485
H70_18 H 0.4666 0.0628 0.3269
C46_18 C 0.5260(3) 0.0742(4) 0.3191(4)
C47_18 C 0.5560(4) 0.0504(5) 0.2674(4)
H71_18 H 0.5610 0.0341 0.2418
C48_18 C 0.5853(3) 0.0850(4) 0.2937(4)
H72_18 H 0.6137 0.0963 0.2902
Zn3_22 Zn 0.46445(4) 1.00001(6) 0.2500
N7_18 N 0.4749(2) 0.9571(3) 0.2160(3)
N8_18 N 0.4644(2) 0.8992(3) 0.1728(3)
H27_18 H 0.3813 0.9888 0.1989
C19_18 C 0.3816(6) 0.9329(8) 0.0621(7)
H28_18 H 0.3864 0.9429 0.0227
H29_18 H 0.3604 0.9043 0.0626
H30_18 H 0.3730 0.9487 0.0852
C20_18 C 0.4222(4) 0.9374(6) 0.0880(5)
H31_18 H 0.4439 0.9660 0.0870
H32_18 H 0.4310 0.9213 0.0651
C21_18 C 0.4136(3) 0.9217(4) 0.1513(4)
H33_18 H 0.3921 0.8930 0.1515
H34_18 H 0.4037 0.9372 0.1731
C22_18 C 0.4517(3) 0.9258(4) 0.1809(4)
C23_18 C 0.5055(3) 0.9496(5) 0.2326(4)
H35_18 H 0.5268 0.9659 0.2582
C24_18 C 0.5002(3) 0.9150(4) 0.2063(4)
H36_18 H 0.5173 0.9037 0.2098
N19_18 N 0.4185(2) 0.9738(3) 0.3073(3)
C37_18 C 0.4811(5) 0.9055(6) 0.3895(7)
H55_18 H 0.5043 0.9168 0.4154
H56_18 H 0.4604 0.8790 0.4037
H57_18 H 0.4897 0.9025 0.3512
C38_18 C 0.4629(4) 0.9347(6) 0.3866(6)
H58_18 H 0.4836 0.9616 0.3723
H59_18 H 0.4543 0.9381 0.4252
C39_18 C 0.4257(3) 0.9156(4) 0.3452(4)
H60_18 H 0.4060 0.8881 0.3589
H61_18 H 0.4349 0.9129 0.3067
C40_18 C 0.4043(3) 0.9404(4) 0.3404(4)
C41_18 C 0.3618(3) 0.9618(4) 0.3553(4)
H62_18 H 0.3396 0.9642 0.3688
C42_18 C 0.3911(3) 0.9878(4) 0.3175(4)
loop_
_geom_bond_atom_site_label_1
_geom_bond_atom_site_label_2
_geom_bond_site_symmetry_1
_geom_bond_site_symmetry_2
C6 N2 1_555 1_555
H9 C6 1_555 1_555
Zn5 N2 1_555 1_555
C1 H1 1_555 1_555
H2 C1 1_555 1_555
H3 C1 1_555 1_555
C2 C1 1_555 1_555
H4 C2 1_555 1_555
C3 C2 1_555 1_555
H6 C3 1_555 1_555
H7 C3 1_555 1_555
C4 C3 1_555 1_555
Zn3 N6 1_555 1_555
N3 C10 1_555 1_555
N7 Zn3 1_555 1_555
C5 N1 1_555 1_555
H8 C5 1_555 1_555
H11 C7 1_555 1_555
H12 C7 1_555 1_555
C8 C7 1_555 1_555
H13 C8 1_555 1_555
H14 C8 1_555 1_555
C9 C8 1_555 1_555
H15 C9 1_555 1_555
H16 C9 1_555 1_555
C10 C9 1_555 1_555
C11 N3 1_555 1_555
H17 C11 1_555 1_555
C18 N6 1_555 1_555
H27 C18 1_555 1_555
C22 N7 1_555 1_555
C23 N7 1_555 1_555
H35 C23 1_555 1_555
C24 N8 1_555 1_555
H36 C24 1_555 1_555
Zn4 N21 1_555 1_555
Zn7 N3 1_555 1_555
Zn8 N12 1_555 1_555
N12 C34 1_555 1_555
N19 Zn3 1_555 1_555
N20 Zn3 1_555 1_555
N21 C46 1_555 1_555
C25 H37 1_555 1_555
H38 C25 1_555 1_555
H39 C25 1_555 1_555
C26 C25 1_555 1_555
H40 C26 1_555 1_555
C27 C26 1_555 1_555
H42 C27 1_555 1_555
H43 C27 1_555 1_555
C31 H46 1_555 1_555
H47 C31 1_555 1_555
H48 C31 1_555 1_555
C32 C31 1_555 1_555
H49 C32 1_555 1_555
H50 C32 1_555 1_555
C33 C32 1_555 1_555
H51 C33 1_555 1_555
H52 C33 1_555 1_555
C34 N15 1_555 1_555
C35 N12 1_555 1_555
H53 C35 1_555 1_555
C36 N15 1_555 1_555
H54 C36 1_555 1_555
C37 H55 1_555 1_555
H56 C37 1_555 1_555
H57 C37 1_555 1_555
C38 C37 1_555 1_555
H58 C38 1_555 1_555
H59 C38 1_555 1_555
C39 C38 1_555 1_555
H60 C39 1_555 1_555
H61 C39 1_555 1_555
C40 N16 1_555 1_555
C41 N16 1_555 1_555
H62 C41 1_555 1_555
C42 N19 1_555 1_555
H63 C42 1_555 1_555
C43 H64 1_555 1_555
H65 C43 1_555 1_555
H66 C43 1_555 1_555
C44 C43 1_555 1_555
H67 C44 1_555 1_555
H68 C44 1_555 1_555
C45 C44 1_555 1_555
H69 C45 1_555 1_555
H70 C45 1_555 1_555
C46 N20 1_555 1_555
C47 N20 1_555 1_555
H71 C47 1_555 1_555
C48 N21 1_555 1_555
H72 C48 1_555 1_555
N8 C22 1_555 1_555
C23 C24 1_555 1_555
N19 C40 1_555 1_555
C27 C28 1_555 1_555
C33 C34 1_555 1_555
C35 C36 1_555 1_555
C39 C40 1_555 1_555
C41 C42 1_555 1_555
C45 C46 1_555 1_555
C47 C48 1_555 1_555
Zn2 N4 1_555 1_555
N5 Zn2 1_555 1_555
C12 N4 1_555 1_555
H18 C12 1_555 1_555
C13 H19 1_555 1_555
H20 C13 1_555 1_555
H21 C13 1_555 1_555
C14 C13 1_555 1_555
H22 C14 1_555 1_555
H23 C14 1_555 1_555
C15 C14 1_555 1_555
H24 C15 1_555 1_555
C16 N5 1_555 1_555
C17 N5 1_555 1_555
H26 C17 1_555 1_555
C19 H28 1_555 1_555
H29 C19 1_555 1_555
H30 C19 1_555 1_555
C20 C19 1_555 1_555
H31 C20 1_555 1_555
H32 C20 1_555 1_555
C21 C20 1_555 1_555
H33 C21 1_555 1_555
N10 Zn1 1_555 1_555
N11 Zn1 1_555 1_555
N13 Zn2 1_555 1_555
N17 Zn2 1_555 1_555
C30 N10 1_555 1_555
H45 C30 1_555 1_555
C15 C16 1_555 1_555
Zn9 N14 1_555 1_555
N18 Zn9 1_555 1_555
C29 N9 1_555 1_555
H44 C29 1_555 1_555
Zn3_2 N6_2 1_555 1_555
N3_2 C10_2 1_555 1_555
N7_2 Zn3_2 1_555 1_555
C5_2 N1_2 1_555 1_555
H8_2 C5_2 1_555 1_555
C7_2 H10_2 1_555 1_555
H11_2 C7_2 1_555 1_555
H12_2 C7_2 1_555 1_555
C8_2 C7_2 1_555 1_555
H13_2 C8_2 1_555 1_555
H14_2 C8_2 1_555 1_555
C9_2 C8_2 1_555 1_555
H15_2 C9_2 1_555 1_555
H16_2 C9_2 1_555 1_555
C10_2 C9_2 1_555 1_555
C11_2 N3_2 1_555 1_555
H17_2 C11_2 1_555 1_555
C18_2 N6_2 1_555 1_555
H27_2 C18_2 1_555 1_555
C22_2 N7_2 1_555 1_555
C23_2 N7_2 1_555 1_555
H35_2 C23_2 1_555 1_555
C24_2 N8_2 1_555 1_555
H36_2 C24_2 1_555 1_555
Zn4_2 N21_2 1_555 1_555
Zn7_2 N3_2 1_555 1_555
Zn8_2 N12_2 1_555 1_555
Zn9_2 N14_2 1_555 1_555
N12_2 C34_2 1_555 1_555
N15_2 Zn9_2 1_555 1_555
N16_2 Zn9_2 1_555 1_555
N18_2 Zn9_2 1_555 1_555
N19_2 Zn3_2 1_555 1_555
N20_2 Zn3_2 1_555 1_555
N21_2 C46_2 1_555 1_555
C25_2 H37_2 1_555 1_555
H38_2 C25_2 1_555 1_555
H39_2 C25_2 1_555 1_555
C26_2 C25_2 1_555 1_555
H40_2 C26_2 1_555 1_555
H41_2 C26_2 1_555 1_555
C27_2 C26_2 1_555 1_555
H42_2 C27_2 1_555 1_555
H43_2 C27_2 1_555 1_555
C31_2 H46_2 1_555 1_555
H47_2 C31_2 1_555 1_555
H48_2 C31_2 1_555 1_555
C32_2 C31_2 1_555 1_555
H49_2 C32_2 1_555 1_555
H50_2 C32_2 1_555 1_555
C33_2 C32_2 1_555 1_555
H51_2 C33_2 1_555 1_555
H52_2 C33_2 1_555 1_555
C34_2 N15_2 1_555 1_555
C35_2 N12_2 1_555 1_555
H53_2 C35_2 1_555 1_555
C36_2 N15_2 1_555 1_555
H54_2 C36_2 1_555 1_555
C37_2 H55_2 1_555 1_555
H56_2 C37_2 1_555 1_555
H57_2 C37_2 1_555 1_555
C38_2 C37_2 1_555 1_555
H58_2 C38_2 1_555 1_555
H59_2 C38_2 1_555 1_555
C39_2 C38_2 1_555 1_555
H60_2 C39_2 1_555 1_555
H61_2 C39_2 1_555 1_555
C40_2 N16_2 1_555 1_555
C41_2 N16_2 1_555 1_555
H62_2 C41_2 1_555 1_555
C42_2 N19_2 1_555 1_555
H63_2 C42_2 1_555 1_555
C43_2 H64_2 1_555 1_555
H65_2 C43_2 1_555 1_555
H66_2 C43_2 1_555 1_555
C44_2 C43_2 1_555 1_555
H67_2 C44_2 1_555 1_555
H68_2 C44_2 1_555 1_555
C45_2 C44_2 1_555 1_555
H69_2 C45_2 1_555 1_555
H70_2 C45_2 1_555 1_555
C46_2 N20_2 1_555 1_555
C47_2 N20_2 1_555 1_555
H71_2 C47_2 1_555 1_555
C48_2 N21_2 1_555 1_555
H72_2 C48_2 1_555 1_555
N8_2 C22_2 1_555 1_555
C23_2 C24_2 1_555 1_555
N19_2 C40_2 1_555 1_555
C27_2 C28_2 1_555 1_555
C33_2 C34_2 1_555 1_555
C35_2 C36_2 1_555 1_555
C39_2 C40_2 1_555 1_555
C41_2 C42_2 1_555 1_555
C45_2 C46_2 1_555 1_555
C47_2 C48_2 1_555 1_555
Zn2_2 N4_2 1_555 1_555
N5_2 Zn2_2 1_555 1_555
C12_2 N4_2 1_555 1_555
H18_2 C12_2 1_555 1_555
C13_2 H19_2 1_555 1_555
H20_2 C13_2 1_555 1_555
H21_2 C13_2 1_555 1_555
C14_2 C13_2 1_555 1_555
H22_2 C14_2 1_555 1_555
H23_2 C14_2 1_555 1_555
C15_2 C14_2 1_555 1_555
H24_2 C15_2 1_555 1_555
C16_2 N5_2 1_555 1_555
C17_2 N5_2 1_555 1_555
H26_2 C17_2 1_555 1_555
C19_2 H28_2 1_555 1_555
H29_2 C19_2 1_555 1_555
H30_2 C19_2 1_555 1_555
C20_2 C19_2 1_555 1_555
H31_2 C20_2 1_555 1_555
H32_2 C20_2 1_555 1_555
C21_2 C20_2 1_555 1_555
H33_2 C21_2 1_555 1_555
N10_2 Zn1_2 1_555 1_555
N11_2 Zn1_2 1_555 1_555
N13_2 Zn2_2 1_555 1_555
N17_2 Zn2_2 1_555 1_555
C29_2 N9_2 1_555 1_555
H44_2 C29_2 1_555 1_555
C30_2 N10_2 1_555 1_555
H45_2 C30_2 1_555 1_555
C15_2 C16_2 1_555 1_555
C29_2 C30_2 1_555 1_555
C6_2 N2_2 1_555 1_555
H9_2 C6_2 1_555 1_555
Zn5_2 N2_2 1_555 1_555
C1_2 H1_2 1_555 1_555
H2_2 C1_2 1_555 1_555
H3_2 C1_2 1_555 1_555
C2_2 C1_2 1_555 1_555
H4_2 C2_2 1_555 1_555
C3_2 C2_2 1_555 1_555
H6_2 C3_2 1_555 1_555
H7_2 C3_2 1_555 1_555
C4_2 C3_2 1_555 1_555
Zn9_3 N14_3 1_555 1_555
N18_3 Zn9_3 1_555 1_555
C29_3 N9_3 1_555 1_555
H44_3 C29_3 1_555 1_555
Zn3_3 N6_3 1_555 1_555
N3_3 C10_3 1_555 1_555
N7_3 Zn3_3 1_555 1_555
C5_3 N1_3 1_555 1_555
H8_3 C5_3 1_555 1_555
C6_3 N2_3 1_555 1_555
H9_3 C6_3 1_555 1_555
H11_3 C7_3 1_555 1_555
H12_3 C7_3 1_555 1_555
C8_3 C7_3 1_555 1_555
H13_3 C8_3 1_555 1_555
H14_3 C8_3 1_555 1_555
C9_3 C8_3 1_555 1_555
H15_3 C9_3 1_555 1_555
H16_3 C9_3 1_555 1_555
C10_3 C9_3 1_555 1_555
C11_3 N3_3 1_555 1_555
H17_3 C11_3 1_555 1_555
C18_3 N6_3 1_555 1_555
H27_3 C18_3 1_555 1_555
C22_3 N7_3 1_555 1_555
C23_3 N7_3 1_555 1_555
H35_3 C23_3 1_555 1_555
C24_3 N8_3 1_555 1_555
H36_3 C24_3 1_555 1_555
Zn4_3 N21_3 1_555 1_555
Zn6 N2_3 1_555 1_555
Zn7_3 N3_3 1_555 1_555
Zn8_3 N12_3 1_555 1_555
N12_3 C34_3 1_555 1_555
N19_3 Zn3_3 1_555 1_555
N20_3 Zn3_3 1_555 1_555
N21_3 C46_3 1_555 1_555
C25_3 H37_3 1_555 1_555
H38_3 C25_3 1_555 1_555
H39_3 C25_3 1_555 1_555
C26_3 C25_3 1_555 1_555
H40_3 C26_3 1_555 1_555
C27_3 C26_3 1_555 1_555
H42_3 C27_3 1_555 1_555
H43_3 C27_3 1_555 1_555
C31_3 H46_3 1_555 1_555
H47_3 C31_3 1_555 1_555
H48_3 C31_3 1_555 1_555
C32_3 C31_3 1_555 1_555
H49_3 C32_3 1_555 1_555
H50_3 C32_3 1_555 1_555
C33_3 C32_3 1_555 1_555
H51_3 C33_3 1_555 1_555
H52_3 C33_3 1_555 1_555
C34_3 N15_3 1_555 1_555
C35_3 N12_3 1_555 1_555
H53_3 C35_3 1_555 1_555
C36_3 N15_3 1_555 1_555
H54_3 C36_3 1_555 1_555
C37_3 H55_3 1_555 1_555
H56_3 C37_3 1_555 1_555
H57_3 C37_3 1_555 1_555
C38_3 C37_3 1_555 1_555
H58_3 C38_3 1_555 1_555
H59_3 C38_3 1_555 1_555
C39_3 C38_3 1_555 1_555
H60_3 C39_3 1_555 1_555
H61_3 C39_3 1_555 1_555
C40_3 N16_3 1_555 1_555
C41_3 N16_3 1_555 1_555
H62_3 C41_3 1_555 1_555
C42_3 N19_3 1_555 1_555
H63_3 C42_3 1_555 1_555
C43_3 H64_3 1_555 1_555
H65_3 C43_3 1_555 1_555
H66_3 C43_3 1_555 1_555
C44_3 C43_3 1_555 1_555
H67_3 C44_3 1_555 1_555
H68_3 C44_3 1_555 1_555
C45_3 C44_3 1_555 1_555
H69_3 C45_3 1_555 1_555
H70_3 C45_3 1_555 1_555
C46_3 N20_3 1_555 1_555
C47_3 N20_3 1_555 1_555
H71_3 C47_3 1_555 1_555
C48_3 N21_3 1_555 1_555
H72_3 C48_3 1_555 1_555
N8_3 C22_3 1_555 1_555
C5_3 C6_3 1_555 1_555
C23_3 C24_3 1_555 1_555
N19_3 C40_3 1_555 1_555
C27_3 C28_3 1_555 1_555
C33_3 C34_3 1_555 1_555
C35_3 C36_3 1_555 1_555
C39_3 C40_3 1_555 1_555
C41_3 C42_3 1_555 1_555
C45_3 C46_3 1_555 1_555
C47_3 C48_3 1_555 1_555
Zn2_3 N4_3 1_555 1_555
N5_3 Zn2_3 1_555 1_555
C1_3 H1_3 1_555 1_555
H2_3 C1_3 1_555 1_555
H3_3 C1_3 1_555 1_555
C2_3 C1_3 1_555 1_555
H4_3 C2_3 1_555 1_555
H5_3 C2_3 1_555 1_555
C3_3 C2_3 1_555 1_555
H6_3 C3_3 1_555 1_555
H7_3 C3_3 1_555 1_555
C4_3 C3_3 1_555 1_555
C12_3 N4_3 1_555 1_555
H18_3 C12_3 1_555 1_555
C13_3 H19_3 1_555 1_555
H20_3 C13_3 1_555 1_555
H21_3 C13_3 1_555 1_555
C14_3 C13_3 1_555 1_555
H22_3 C14_3 1_555 1_555
H23_3 C14_3 1_555 1_555
C15_3 C14_3 1_555 1_555
H24_3 C15_3 1_555 1_555
C16_3 N5_3 1_555 1_555
C17_3 N5_3 1_555 1_555
H26_3 C17_3 1_555 1_555
C19_3 H28_3 1_555 1_555
H29_3 C19_3 1_555 1_555
H30_3 C19_3 1_555 1_555
C20_3 C19_3 1_555 1_555
H31_3 C20_3 1_555 1_555
H32_3 C20_3 1_555 1_555
C21_3 C20_3 1_555 1_555
H33_3 C21_3 1_555 1_555
N10_3 Zn1_3 1_555 1_555
N11_3 Zn1_3 1_555 1_555
N13_3 Zn2_3 1_555 1_555
N17_3 Zn2_3 1_555 1_555
C30_3 N10_3 1_555 1_555
H45_3 C30_3 1_555 1_555
C15_3 C16_3 1_555 1_555
N2_4 C4_4 1_555 1_555
C1_4 H1_4 1_555 1_555
H2_4 C1_4 1_555 1_555
H3_4 C1_4 1_555 1_555
C2_4 C1_4 1_555 1_555
H4_4 C2_4 1_555 1_555
C3_4 C2_4 1_555 1_555
H6_4 C3_4 1_555 1_555
H7_4 C3_4 1_555 1_555
C4_4 C3_4 1_555 1_555
C6_4 N2_4 1_555 1_555
H9_4 C6_4 1_555 1_555
Zn8_2 N2_4 1_555 1_555
Zn1_4 N1_4 1_555 1_555
Zn2_4 N4_4 1_555 1_555
Zn3_4 N6_4 1_555 1_555
N3_4 C10_4 1_555 1_555
N4_4 C10_4 1_555 1_555
N5_4 Zn2_4 1_555 1_555
N6_4 C16_4 1_555 1_555
N7_4 Zn3_4 1_555 1_555
N8_4 Zn1_4 1_555 1_555
C5_4 N1_4 1_555 1_555
H8_4 C5_4 1_555 1_555
H11_4 C7_4 1_555 1_555
H12_4 C7_4 1_555 1_555
C8_4 C7_4 1_555 1_555
H13_4 C8_4 1_555 1_555
H14_4 C8_4 1_555 1_555
C9_4 C8_4 1_555 1_555
H15_4 C9_4 1_555 1_555
H16_4 C9_4 1_555 1_555
C10_4 C9_4 1_555 1_555
C11_4 N3_4 1_555 1_555
H17_4 C11_4 1_555 1_555
C12_4 N4_4 1_555 1_555
H18_4 C12_4 1_555 1_555
C13_4 H19_4 1_555 1_555
H20_4 C13_4 1_555 1_555
H21_4 C13_4 1_555 1_555
C14_4 C13_4 1_555 1_555
H22_4 C14_4 1_555 1_555
H23_4 C14_4 1_555 1_555
C15_4 C14_4 1_555 1_555
H24_4 C15_4 1_555 1_555
H25_4 C15_4 1_555 1_555
C16_4 N5_4 1_555 1_555
C17_4 N5_4 1_555 1_555
H26_4 C17_4 1_555 1_555
C18_4 N6_4 1_555 1_555
H27_4 C18_4 1_555 1_555
C19_4 H28_4 1_555 1_555
H29_4 C19_4 1_555 1_555
H30_4 C19_4 1_555 1_555
C20_4 C19_4 1_555 1_555
H31_4 C20_4 1_555 1_555
H32_4 C20_4 1_555 1_555
C21_4 C20_4 1_555 1_555
H33_4 C21_4 1_555 1_555
H34_4 C21_4 1_555 1_555
C22_4 N7_4 1_555 1_555
C23_4 N7_4 1_555 1_555
H35_4 C23_4 1_555 1_555
C24_4 N8_4 1_555 1_555
H36_4 C24_4 1_555 1_555
Zn4_4 N21_4 1_555 1_555
Zn7_4 N3_4 1_555 1_555
Zn5_2 N12_4 1_555 1_555
N10_4 Zn1_4 1_555 1_555
N11_4 Zn1_4 1_555 1_555
N12_4 C34_4 1_555 1_555
N13_4 Zn2_4 1_555 1_555
N17_4 Zn2_4 1_555 1_555
N19_4 Zn3_4 1_555 1_555
N20_4 Zn3_4 1_555 1_555
N21_4 C46_4 1_555 1_555
C25_4 H37_4 1_555 1_555
H38_4 C25_4 1_555 1_555
H39_4 C25_4 1_555 1_555
C26_4 C25_4 1_555 1_555
H40_4 C26_4 1_555 1_555
C27_4 C26_4 1_555 1_555
H42_4 C27_4 1_555 1_555
H43_4 C27_4 1_555 1_555
C28_4 N10_4 1_555 1_555
C30_4 N10_4 1_555 1_555
H45_4 C30_4 1_555 1_555
C31_4 H46_4 1_555 1_555
H47_4 C31_4 1_555 1_555
H48_4 C31_4 1_555 1_555
C32_4 C31_4 1_555 1_555
H49_4 C32_4 1_555 1_555
H50_4 C32_4 1_555 1_555
C33_4 C32_4 1_555 1_555
H51_4 C33_4 1_555 1_555
H52_4 C33_4 1_555 1_555
C34_4 N14_3 1_555 1_555
C35_4 N12_4 1_555 1_555
H53_4 C35_4 1_555 1_555
C36_4 N14_3 1_555 1_555
H54_4 C36_4 1_555 1_555
C37_4 H55_4 1_555 1_555
H56_4 C37_4 1_555 1_555
H57_4 C37_4 1_555 1_555
C38_4 C37_4 1_555 1_555
H58_4 C38_4 1_555 1_555
H59_4 C38_4 1_555 1_555
C39_4 C38_4 1_555 1_555
H60_4 C39_4 1_555 1_555
H61_4 C39_4 1_555 1_555
C40_4 N18_3 1_555 1_555
C41_4 N18_3 1_555 1_555
H62_4 C41_4 1_555 1_555
C42_4 N19_4 1_555 1_555
H63_4 C42_4 1_555 1_555
C43_4 H64_4 1_555 1_555
H65_4 C43_4 1_555 1_555
H66_4 C43_4 1_555 1_555
C44_4 C43_4 1_555 1_555
H67_4 C44_4 1_555 1_555
H68_4 C44_4 1_555 1_555
C45_4 C44_4 1_555 1_555
H69_4 C45_4 1_555 1_555
H70_4 C45_4 1_555 1_555
C46_4 N20_4 1_555 1_555
C47_4 N20_4 1_555 1_555
H71_4 C47_4 1_555 1_555
C48_4 N21_4 1_555 1_555
H72_4 C48_4 1_555 1_555
N8_4 C22_4 1_555 1_555
C11_4 C12_4 1_555 1_555
C15_4 C16_4 1_555 1_555
C17_4 C18_4 1_555 1_555
C21_4 C22_4 1_555 1_555
C23_4 C24_4 1_555 1_555
N19_4 C40_4 1_555 1_555
C27_4 C28_4 1_555 1_555
C33_4 C34_4 1_555 1_555
C35_4 C36_4 1_555 1_555
C39_4 C40_4 1_555 1_555
C41_4 C42_4 1_555 1_555
C45_4 C46_4 1_555 1_555
C47_4 C48_4 1_555 1_555
Zn8_3 N9_4 1_555 1_555
Zn9_4 N15_3 1_555 1_555
N16_3 Zn9_4 1_555 1_555
C29_4 N9_4 1_555 1_555
H44_4 C29_4 1_555 1_555
Zn1_5 N1_5 1_555 1_555
Zn2_5 N4_5 1_555 1_555
Zn3_5 N6_5 1_555 1_555
N3_5 C10_5 1_555 1_555
N4_5 C10_5 1_555 1_555
N5_5 Zn2_5 1_555 1_555
N6_5 C16_5 1_555 1_555
N7_5 Zn3_5 1_555 1_555
N8_5 Zn1_5 1_555 1_555
C5_5 N1_5 1_555 1_555
H8_5 C5_5 1_555 1_555
C7_5 H10_5 1_555 1_555
H11_5 C7_5 1_555 1_555
H12_5 C7_5 1_555 1_555
C8_5 C7_5 1_555 1_555
H13_5 C8_5 1_555 1_555
H14_5 C8_5 1_555 1_555
C9_5 C8_5 1_555 1_555
H15_5 C9_5 1_555 1_555
H16_5 C9_5 1_555 1_555
C10_5 C9_5 1_555 1_555
C11_5 N3_5 1_555 1_555
H17_5 C11_5 1_555 1_555
C12_5 N4_5 1_555 1_555
H18_5 C12_5 1_555 1_555
C13_5 H19_5 1_555 1_555
H20_5 C13_5 1_555 1_555
H21_5 C13_5 1_555 1_555
C14_5 C13_5 1_555 1_555
H22_5 C14_5 1_555 1_555
H23_5 C14_5 1_555 1_555
C15_5 C14_5 1_555 1_555
H24_5 C15_5 1_555 1_555
H25_5 C15_5 1_555 1_555
C16_5 N5_5 1_555 1_555
C17_5 N5_5 1_555 1_555
H26_5 C17_5 1_555 1_555
C18_5 N6_5 1_555 1_555
H27_5 C18_5 1_555 1_555
C19_5 H28_5 1_555 1_555
H29_5 C19_5 1_555 1_555
H30_5 C19_5 1_555 1_555
C20_5 C19_5 1_555 1_555
H31_5 C20_5 1_555 1_555
H32_5 C20_5 1_555 1_555
C21_5 C20_5 1_555 1_555
H33_5 C21_5 1_555 1_555
H34_5 C21_5 1_555 1_555
C22_5 N7_5 1_555 1_555
C23_5 N7_5 1_555 1_555
H35_5 C23_5 1_555 1_555
C24_5 N8_5 1_555 1_555
H36_5 C24_5 1_555 1_555
Zn4_5 N21_5 1_555 1_555
Zn8_2 N9_5 1_555 1_555
Zn7_5 N3_5 1_555 1_555
Zn5 N12_5 1_555 1_555
N9_5 C28_5 1_555 1_555
N10_5 Zn1_5 1_555 1_555
N11_5 Zn1_5 1_555 1_555
N12_5 C34_5 1_555 1_555
N13_5 Zn2_5 1_555 1_555
N17_5 Zn2_5 1_555 1_555
N19_5 Zn3_5 1_555 1_555
N20_5 Zn3_5 1_555 1_555
N21_5 C46_5 1_555 1_555
C25_5 H37_5 1_555 1_555
H38_5 C25_5 1_555 1_555
H39_5 C25_5 1_555 1_555
C26_5 C25_5 1_555 1_555
H40_5 C26_5 1_555 1_555
H41_5 C26_5 1_555 1_555
C27_5 C26_5 1_555 1_555
H42_5 C27_5 1_555 1_555
H43_5 C27_5 1_555 1_555
C28_5 N10_5 1_555 1_555
C29_5 N9_5 1_555 1_555
H44_5 C29_5 1_555 1_555
C30_5 N10_5 1_555 1_555
H45_5 C30_5 1_555 1_555
C31_5 H46_5 1_555 1_555
H47_5 C31_5 1_555 1_555
H48_5 C31_5 1_555 1_555
C32_5 C31_5 1_555 1_555
H49_5 C32_5 1_555 1_555
H50_5 C32_5 1_555 1_555
C33_5 C32_5 1_555 1_555
H51_5 C33_5 1_555 1_555
H52_5 C33_5 1_555 1_555
C34_5 N14_2 1_555 1_555
C35_5 N12_5 1_555 1_555
H53_5 C35_5 1_555 1_555
C36_5 N14_2 1_555 1_555
H54_5 C36_5 1_555 1_555
C37_5 H55_5 1_555 1_555
H56_5 C37_5 1_555 1_555
H57_5 C37_5 1_555 1_555
C38_5 C37_5 1_555 1_555
H58_5 C38_5 1_555 1_555
H59_5 C38_5 1_555 1_555
C39_5 C38_5 1_555 1_555
H60_5 C39_5 1_555 1_555
H61_5 C39_5 1_555 1_555
C40_5 N18_2 1_555 1_555
C41_5 N18_2 1_555 1_555
H62_5 C41_5 1_555 1_555
C42_5 N19_5 1_555 1_555
H63_5 C42_5 1_555 1_555
C43_5 H64_5 1_555 1_555
H65_5 C43_5 1_555 1_555
H66_5 C43_5 1_555 1_555
C44_5 C43_5 1_555 1_555
H67_5 C44_5 1_555 1_555
H68_5 C44_5 1_555 1_555
C45_5 C44_5 1_555 1_555
H69_5 C45_5 1_555 1_555
H70_5 C45_5 1_555 1_555
C46_5 N20_5 1_555 1_555
C47_5 N20_5 1_555 1_555
H71_5 C47_5 1_555 1_555
C48_5 N21_5 1_555 1_555
H72_5 C48_5 1_555 1_555
N8_5 C22_5 1_555 1_555
C11_5 C12_5 1_555 1_555
C15_5 C16_5 1_555 1_555
C17_5 C18_5 1_555 1_555
C21_5 C22_5 1_555 1_555
C23_5 C24_5 1_555 1_555
N19_5 C40_5 1_555 1_555
C27_5 C28_5 1_555 1_555
C29_5 C30_5 1_555 1_555
C33_5 C34_5 1_555 1_555
C35_5 C36_5 1_555 1_555
C39_5 C40_5 1_555 1_555
C41_5 C42_5 1_555 1_555
C45_5 C46_5 1_555 1_555
C47_5 C48_5 1_555 1_555
N2_5 C4_5 1_555 1_555
C1_5 H1_5 1_555 1_555
H2_5 C1_5 1_555 1_555
H3_5 C1_5 1_555 1_555
C2_5 C1_5 1_555 1_555
H4_5 C2_5 1_555 1_555
C3_5 C2_5 1_555 1_555
H6_5 C3_5 1_555 1_555
H7_5 C3_5 1_555 1_555
C4_5 C3_5 1_555 1_555
C6_5 N2_5 1_555 1_555
H9_5 C6_5 1_555 1_555
Zn8 N2_5 1_555 1_555
Zn8 N9_6 1_555 1_555
Zn9_5 N15 1_555 1_555
N16 Zn9_5 1_555 1_555
C29_6 N9_6 1_555 1_555
H44_6 C29_6 1_555 1_555
Zn1_6 N1_6 1_555 1_555
Zn2_6 N4_6 1_555 1_555
Zn3_6 N6_6 1_555 1_555
N1_6 C4_6 1_555 1_555
N2_6 C4_6 1_555 1_555
N3_6 C10_6 1_555 1_555
N4_6 C10_6 1_555 1_555
N5_6 Zn2_6 1_555 1_555
N6_6 C16_6 1_555 1_555
N7_6 Zn3_6 1_555 1_555
N8_6 Zn1_6 1_555 1_555
C1_6 H1_6 1_555 1_555
H2_6 C1_6 1_555 1_555
H3_6 C1_6 1_555 1_555
C2_6 C1_6 1_555 1_555
H4_6 C2_6 1_555 1_555
H5_6 C2_6 1_555 1_555
C3_6 C2_6 1_555 1_555
H6_6 C3_6 1_555 1_555
H7_6 C3_6 1_555 1_555
C4_6 C3_6 1_555 1_555
C5_6 N1_6 1_555 1_555
H8_6 C5_6 1_555 1_555
C6_6 N2_6 1_555 1_555
H9_6 C6_6 1_555 1_555
H11_6 C7_6 1_555 1_555
H12_6 C7_6 1_555 1_555
C8_6 C7_6 1_555 1_555
H13_6 C8_6 1_555 1_555
H14_6 C8_6 1_555 1_555
C9_6 C8_6 1_555 1_555
H15_6 C9_6 1_555 1_555
H16_6 C9_6 1_555 1_555
C10_6 C9_6 1_555 1_555
C11_6 N3_6 1_555 1_555
H17_6 C11_6 1_555 1_555
C12_6 N4_6 1_555 1_555
H18_6 C12_6 1_555 1_555
C13_6 H19_6 1_555 1_555
H20_6 C13_6 1_555 1_555
H21_6 C13_6 1_555 1_555
C14_6 C13_6 1_555 1_555
H22_6 C14_6 1_555 1_555
H23_6 C14_6 1_555 1_555
C15_6 C14_6 1_555 1_555
H24_6 C15_6 1_555 1_555
H25_6 C15_6 1_555 1_555
C16_6 N5_6 1_555 1_555
C17_6 N5_6 1_555 1_555
H26_6 C17_6 1_555 1_555
C18_6 N6_6 1_555 1_555
H27_6 C18_6 1_555 1_555
C19_6 H28_6 1_555 1_555
H29_6 C19_6 1_555 1_555
H30_6 C19_6 1_555 1_555
C20_6 C19_6 1_555 1_555
H31_6 C20_6 1_555 1_555
H32_6 C20_6 1_555 1_555
C21_6 C20_6 1_555 1_555
H33_6 C21_6 1_555 1_555
H34_6 C21_6 1_555 1_555
C22_6 N7_6 1_555 1_555
C23_6 N7_6 1_555 1_555
H35_6 C23_6 1_555 1_555
C24_6 N8_6 1_555 1_555
H36_6 C24_6 1_555 1_555
Zn4_6 N21_6 1_555 1_555
Zn8_3 N2_6 1_555 1_555
Zn7_6 N3_6 1_555 1_555
Zn6 N12_6 1_555 1_555
N10_6 Zn1_6 1_555 1_555
N11_6 Zn1_6 1_555 1_555
N12_6 C34_6 1_555 1_555
N13_6 Zn2_6 1_555 1_555
N17_6 Zn2_6 1_555 1_555
N19_6 Zn3_6 1_555 1_555
N20_6 Zn3_6 1_555 1_555
N21_6 C46_6 1_555 1_555
C25_6 H37_6 1_555 1_555
H38_6 C25_6 1_555 1_555
H39_6 C25_6 1_555 1_555
C26_6 C25_6 1_555 1_555
H40_6 C26_6 1_555 1_555
C27_6 C26_6 1_555 1_555
H42_6 C27_6 1_555 1_555
H43_6 C27_6 1_555 1_555
C28_6 N10_6 1_555 1_555
C30_6 N10_6 1_555 1_555
H45_6 C30_6 1_555 1_555
C31_6 H46_6 1_555 1_555
H47_6 C31_6 1_555 1_555
H48_6 C31_6 1_555 1_555
C32_6 C31_6 1_555 1_555
H49_6 C32_6 1_555 1_555
H50_6 C32_6 1_555 1_555
C33_6 C32_6 1_555 1_555
H51_6 C33_6 1_555 1_555
H52_6 C33_6 1_555 1_555
C34_6 N14 1_555 1_555
C35_6 N12_6 1_555 1_555
H53_6 C35_6 1_555 1_555
C36_6 N14 1_555 1_555
H54_6 C36_6 1_555 1_555
C37_6 H55_6 1_555 1_555
H56_6 C37_6 1_555 1_555
H57_6 C37_6 1_555 1_555
C38_6 C37_6 1_555 1_555
H58_6 C38_6 1_555 1_555
H59_6 C38_6 1_555 1_555
C39_6 C38_6 1_555 1_555
H60_6 C39_6 1_555 1_555
H61_6 C39_6 1_555 1_555
C40_6 N18 1_555 1_555
C41_6 N18 1_555 1_555
H62_6 C41_6 1_555 1_555
C42_6 N19_6 1_555 1_555
H63_6 C42_6 1_555 1_555
C43_6 H64_6 1_555 1_555
H65_6 C43_6 1_555 1_555
H66_6 C43_6 1_555 1_555
C44_6 C43_6 1_555 1_555
H67_6 C44_6 1_555 1_555
H68_6 C44_6 1_555 1_555
C45_6 C44_6 1_555 1_555
H69_6 C45_6 1_555 1_555
H70_6 C45_6 1_555 1_555
C46_6 N20_6 1_555 1_555
C47_6 N20_6 1_555 1_555
H71_6 C47_6 1_555 1_555
C48_6 N21_6 1_555 1_555
H72_6 C48_6 1_555 1_555
N8_6 C22_6 1_555 1_555
C5_6 C6_6 1_555 1_555
C11_6 C12_6 1_555 1_555
C15_6 C16_6 1_555 1_555
C17_6 C18_6 1_555 1_555
C21_6 C22_6 1_555 1_555
C23_6 C24_6 1_555 1_555
N19_6 C40_6 1_555 1_555
C27_6 C28_6 1_555 1_555
C33_6 C34_6 1_555 1_555
C35_6 C36_6 1_555 1_555
C39_6 C40_6 1_555 1_555
C41_6 C42_6 1_555 1_555
C45_6 C46_6 1_555 1_555
C47_6 C48_6 1_555 1_555
Zn4_4 N1_7 1_555 1_555
N1_7 C4_7 1_555 1_555
N2_7 C4_7 1_555 1_555
C1_7 H1_7 1_555 1_555
H2_7 C1_7 1_555 1_555
H3_7 C1_7 1_555 1_555
C2_7 C1_7 1_555 1_555
H4_7 C2_7 1_555 1_555
H5_7 C2_7 1_555 1_555
C3_7 C2_7 1_555 1_555
H6_7 C3_7 1_555 1_555
H7_7 C3_7 1_555 1_555
C4_7 C3_7 1_555 1_555
C5_7 N1_7 1_555 1_555
H8_7 C5_7 1_555 1_555
C6_7 N2_7 1_555 1_555
H9_7 C6_7 1_555 1_555
Zn7_6 N2_7 1_555 1_555
Zn7_4 N9_7 1_555 1_555
Zn8_4 N12_7 1_555 1_555
N9_7 C28_7 1_555 1_555
N10_7 Zn4_4 1_555 1_555
N11_7 Zn4_4 1_555 1_555
N12_7 C34_7 1_555 1_555
C25_7 H37_7 1_555 1_555
H38_7 C25_7 1_555 1_555
H39_7 C25_7 1_555 1_555
C26_7 C25_7 1_555 1_555
H40_7 C26_7 1_555 1_555
H41_7 C26_7 1_555 1_555
C27_7 C26_7 1_555 1_555
H42_7 C27_7 1_555 1_555
H43_7 C27_7 1_555 1_555
C28_7 N10_7 1_555 1_555
C29_7 N9_7 1_555 1_555
H44_7 C29_7 1_555 1_555
C30_7 N10_7 1_555 1_555
H45_7 C30_7 1_555 1_555
C31_7 H46_7 1_555 1_555
H47_7 C31_7 1_555 1_555
H48_7 C31_7 1_555 1_555
C32_7 C31_7 1_555 1_555
H49_7 C32_7 1_555 1_555
H50_7 C32_7 1_555 1_555
C33_7 C32_7 1_555 1_555
H51_7 C33_7 1_555 1_555
H52_7 C33_7 1_555 1_555
C34_7 N13_4 1_555 1_555
C35_7 N12_7 1_555 1_555
H53_7 C35_7 1_555 1_555
C36_7 N13_4 1_555 1_555
H54_7 C36_7 1_555 1_555
C5_7 C6_7 1_555 1_555
C27_7 C28_7 1_555 1_555
C29_7 C30_7 1_555 1_555
C33_7 C34_7 1_555 1_555
C35_7 C36_7 1_555 1_555
Zn4_6 N1_8 1_555 1_555
N1_8 C4_8 1_555 1_555
N2_8 C4_8 1_555 1_555
C1_8 H1_8 1_555 1_555
H2_8 C1_8 1_555 1_555
H3_8 C1_8 1_555 1_555
C2_8 C1_8 1_555 1_555
H4_8 C2_8 1_555 1_555
H5_8 C2_8 1_555 1_555
C3_8 C2_8 1_555 1_555
H6_8 C3_8 1_555 1_555
H7_8 C3_8 1_555 1_555
C4_8 C3_8 1_555 1_555
C5_8 N1_8 1_555 1_555
H8_8 C5_8 1_555 1_555
C6_8 N2_8 1_555 1_555
H9_8 C6_8 1_555 1_555
Zn7_5 N2_8 1_555 1_555
Zn7_6 N9_8 1_555 1_555
Zn8_5 N12_8 1_555 1_555
N9_8 C28_8 1_555 1_555
N10_8 Zn4_6 1_555 1_555
N11_8 Zn4_6 1_555 1_555
N12_8 C34_8 1_555 1_555
C25_8 H37_8 1_555 1_555
H38_8 C25_8 1_555 1_555
H39_8 C25_8 1_555 1_555
C26_8 C25_8 1_555 1_555
H40_8 C26_8 1_555 1_555
H41_8 C26_8 1_555 1_555
C27_8 C26_8 1_555 1_555
H42_8 C27_8 1_555 1_555
H43_8 C27_8 1_555 1_555
C28_8 N10_8 1_555 1_555
C29_8 N9_8 1_555 1_555
H44_8 C29_8 1_555 1_555
C30_8 N10_8 1_555 1_555
H45_8 C30_8 1_555 1_555
C31_8 H46_8 1_555 1_555
H47_8 C31_8 1_555 1_555
H48_8 C31_8 1_555 1_555
C32_8 C31_8 1_555 1_555
H49_8 C32_8 1_555 1_555
H50_8 C32_8 1_555 1_555
C33_8 C32_8 1_555 1_555
H51_8 C33_8 1_555 1_555
H52_8 C33_8 1_555 1_555
C34_8 N13_6 1_555 1_555
C35_8 N12_8 1_555 1_555
H53_8 C35_8 1_555 1_555
C36_8 N13_6 1_555 1_555
H54_8 C36_8 1_555 1_555
C5_8 C6_8 1_555 1_555
C27_8 C28_8 1_555 1_555
C29_8 C30_8 1_555 1_555
C33_8 C34_8 1_555 1_555
C35_8 C36_8 1_555 1_555
Zn4_5 N1_9 1_555 1_555
N1_9 C4_9 1_555 1_555
N2_9 C4_9 1_555 1_555
C1_9 H1_9 1_555 1_555
H2_9 C1_9 1_555 1_555
H3_9 C1_9 1_555 1_555
C2_9 C1_9 1_555 1_555
H4_9 C2_9 1_555 1_555
H5_9 C2_9 1_555 1_555
C3_9 C2_9 1_555 1_555
H6_9 C3_9 1_555 1_555
H7_9 C3_9 1_555 1_555
C4_9 C3_9 1_555 1_555
C5_9 N1_9 1_555 1_555
H8_9 C5_9 1_555 1_555
C6_9 N2_9 1_555 1_555
H9_9 C6_9 1_555 1_555
Zn7_4 N2_9 1_555 1_555
Zn7_5 N9_9 1_555 1_555
Zn8_6 N12_9 1_555 1_555
N9_9 C28_9 1_555 1_555
N10_9 Zn4_5 1_555 1_555
N11_9 Zn4_5 1_555 1_555
N12_9 C34_9 1_555 1_555
C25_9 H37_9 1_555 1_555
H38_9 C25_9 1_555 1_555
H39_9 C25_9 1_555 1_555
C26_9 C25_9 1_555 1_555
H40_9 C26_9 1_555 1_555
H41_9 C26_9 1_555 1_555
C27_9 C26_9 1_555 1_555
H42_9 C27_9 1_555 1_555
H43_9 C27_9 1_555 1_555
C28_9 N10_9 1_555 1_555
C29_9 N9_9 1_555 1_555
H44_9 C29_9 1_555 1_555
C30_9 N10_9 1_555 1_555
H45_9 C30_9 1_555 1_555
C31_9 H46_9 1_555 1_555
H47_9 C31_9 1_555 1_555
H48_9 C31_9 1_555 1_555
C32_9 C31_9 1_555 1_555
H49_9 C32_9 1_555 1_555
H50_9 C32_9 1_555 1_555
C33_9 C32_9 1_555 1_555
H51_9 C33_9 1_555 1_555
H52_9 C33_9 1_555 1_555
C34_9 N13_5 1_555 1_555
C35_9 N12_9 1_555 1_555
H53_9 C35_9 1_555 1_555
C36_9 N13_5 1_555 1_555
H54_9 C36_9 1_555 1_555
C5_9 C6_9 1_555 1_555
C27_9 C28_9 1_555 1_555
C29_9 C30_9 1_555 1_555
C33_9 C34_9 1_555 1_555
C35_9 C36_9 1_555 1_555
Zn1_7 N1_10 1_555 1_555
Zn3_7 N6_7 1_555 1_555
N1_10 C4_10 1_555 1_555
N2_10 C4_10 1_555 1_555
N3_7 C10_7 1_555 1_555
N13_2 C10_7 1_555 1_555
N6_7 C16_7 1_555 1_555
N7_7 Zn3_7 1_555 1_555
N8_7 Zn1_7 1_555 1_555
C1_10 H1_10 1_555 1_555
H2_10 C1_10 1_555 1_555
H3_10 C1_10 1_555 1_555
C2_10 C1_10 1_555 1_555
H4_10 C2_10 1_555 1_555
H5_10 C2_10 1_555 1_555
C3_10 C2_10 1_555 1_555
H6_10 C3_10 1_555 1_555
H7_10 C3_10 1_555 1_555
C4_10 C3_10 1_555 1_555
C5_10 N1_10 1_555 1_555
H8_10 C5_10 1_555 1_555
C6_10 N2_10 1_555 1_555
H9_10 C6_10 1_555 1_555
C7_7 H10_7 1_555 1_555
H11_7 C7_7 1_555 1_555
H12_7 C7_7 1_555 1_555
C8_7 C7_7 1_555 1_555
H13_7 C8_7 1_555 1_555
H14_7 C8_7 1_555 1_555
C9_7 C8_7 1_555 1_555
H15_7 C9_7 1_555 1_555
H16_7 C9_7 1_555 1_555
C10_7 C9_7 1_555 1_555
C11_7 N3_7 1_555 1_555
H17_7 C11_7 1_555 1_555
C12_7 N13_2 1_555 1_555
H18_7 C12_7 1_555 1_555
C13_7 H19_7 1_555 1_555
H20_7 C13_7 1_555 1_555
H21_7 C13_7 1_555 1_555
C14_7 C13_7 1_555 1_555
H22_7 C14_7 1_555 1_555
H23_7 C14_7 1_555 1_555
C15_7 C14_7 1_555 1_555
H24_7 C15_7 1_555 1_555
H25_7 C15_7 1_555 1_555
C16_7 N17_2 1_555 1_555
C17_7 N17_2 1_555 1_555
H26_7 C17_7 1_555 1_555
C18_7 N6_7 1_555 1_555
H27_7 C18_7 1_555 1_555
C19_7 H28_7 1_555 1_555
H29_7 C19_7 1_555 1_555
H30_7 C19_7 1_555 1_555
C20_7 C19_7 1_555 1_555
H31_7 C20_7 1_555 1_555
H32_7 C20_7 1_555 1_555
C21_7 C20_7 1_555 1_555
H33_7 C21_7 1_555 1_555
H34_7 C21_7 1_555 1_555
C22_7 N7_7 1_555 1_555
C23_7 N7_7 1_555 1_555
H35_7 C23_7 1_555 1_555
C24_7 N8_7 1_555 1_555
H36_7 C24_7 1_555 1_555
Zn4_7 N21_7 1_555 1_555
Zn8_5 N2_10 1_555 1_555
Zn8_6 N9_10 1_555 1_555
Zn7_7 N3_7 1_555 1_555
N9_10 C28_10 1_555 1_555
N10_10 Zn1_7 1_555 1_555
N11_10 Zn1_7 1_555 1_555
N19_7 Zn3_7 1_555 1_555
N20_7 Zn3_7 1_555 1_555
N21_7 C46_7 1_555 1_555
C25_10 H37_10 1_555 1_555
H38_10 C25_10 1_555 1_555
H39_10 C25_10 1_555 1_555
C26_10 C25_10 1_555 1_555
H40_10 C26_10 1_555 1_555
H41_10 C26_10 1_555 1_555
C27_10 C26_10 1_555 1_555
H42_10 C27_10 1_555 1_555
H43_10 C27_10 1_555 1_555
C28_10 N10_10 1_555 1_555
C29_10 N9_10 1_555 1_555
H44_10 C29_10 1_555 1_555
C30_10 N10_10 1_555 1_555
H45_10 C30_10 1_555 1_555
C37_7 H55_7 1_555 1_555
H56_7 C37_7 1_555 1_555
H57_7 C37_7 1_555 1_555
C38_7 C37_7 1_555 1_555
H58_7 C38_7 1_555 1_555
H59_7 C38_7 1_555 1_555
C39_7 C38_7 1_555 1_555
H60_7 C39_7 1_555 1_555
H61_7 C39_7 1_555 1_555
C40_7 N17_5 1_555 1_555
C41_7 N17_5 1_555 1_555
H62_7 C41_7 1_555 1_555
C42_7 N19_7 1_555 1_555
H63_7 C42_7 1_555 1_555
C43_7 H64_7 1_555 1_555
H65_7 C43_7 1_555 1_555
H66_7 C43_7 1_555 1_555
C44_7 C43_7 1_555 1_555
H67_7 C44_7 1_555 1_555
H68_7 C44_7 1_555 1_555
C45_7 C44_7 1_555 1_555
H69_7 C45_7 1_555 1_555
H70_7 C45_7 1_555 1_555
C46_7 N20_7 1_555 1_555
C47_7 N20_7 1_555 1_555
H71_7 C47_7 1_555 1_555
C48_7 N21_7 1_555 1_555
H72_7 C48_7 1_555 1_555
N8_7 C22_7 1_555 1_555
C5_10 C6_10 1_555 1_555
C11_7 C12_7 1_555 1_555
C15_7 C16_7 1_555 1_555
C17_7 C18_7 1_555 1_555
C21_7 C22_7 1_555 1_555
C23_7 C24_7 1_555 1_555
N19_7 C40_7 1_555 1_555
C27_10 C28_10 1_555 1_555
C29_10 C30_10 1_555 1_555
C39_7 C40_7 1_555 1_555
C41_7 C42_7 1_555 1_555
C45_7 C46_7 1_555 1_555
C47_7 C48_7 1_555 1_555
Zn3_8 N6_8 1_555 1_555
N3_8 C10_8 1_555 1_555
N13 C10_8 1_555 1_555
N6_8 C16_8 1_555 1_555
C7_8 H10_8 1_555 1_555
H11_8 C7_8 1_555 1_555
H12_8 C7_8 1_555 1_555
C8_8 C7_8 1_555 1_555
H13_8 C8_8 1_555 1_555
H14_8 C8_8 1_555 1_555
C9_8 C8_8 1_555 1_555
H15_8 C9_8 1_555 1_555
H16_8 C9_8 1_555 1_555
C10_8 C9_8 1_555 1_555
C11_8 N3_8 1_555 1_555
H17_8 C11_8 1_555 1_555
C12_8 N13 1_555 1_555
H18_8 C12_8 1_555 1_555
C13_8 H19_8 1_555 1_555
H20_8 C13_8 1_555 1_555
H21_8 C13_8 1_555 1_555
C14_8 C13_8 1_555 1_555
H22_8 C14_8 1_555 1_555
H23_8 C14_8 1_555 1_555
C15_8 C14_8 1_555 1_555
H24_8 C15_8 1_555 1_555
H25_8 C15_8 1_555 1_555
C16_8 N17 1_555 1_555
C17_8 N17 1_555 1_555
H26_8 C17_8 1_555 1_555
C18_8 N6_8 1_555 1_555
Zn4_8 N21_8 1_555 1_555
Zn7_8 N3_8 1_555 1_555
N20_8 Zn3_8 1_555 1_555
N21_8 C46_8 1_555 1_555
C43_8 H64_8 1_555 1_555
H65_8 C43_8 1_555 1_555
H66_8 C43_8 1_555 1_555
C44_8 C43_8 1_555 1_555
H67_8 C44_8 1_555 1_555
H68_8 C44_8 1_555 1_555
C45_8 C44_8 1_555 1_555
H69_8 C45_8 1_555 1_555
H70_8 C45_8 1_555 1_555
C46_8 N20_8 1_555 1_555
C47_8 N20_8 1_555 1_555
H71_8 C47_8 1_555 1_555
C48_8 N21_8 1_555 1_555
H72_8 C48_8 1_555 1_555
C11_8 C12_8 1_555 1_555
C15_8 C16_8 1_555 1_555
C17_8 C18_8 1_555 1_555
C45_8 C46_8 1_555 1_555
C47_8 C48_8 1_555 1_555
Zn1_8 N1_11 1_555 1_555
N1_11 C4_11 1_555 1_555
N2_11 C4_11 1_555 1_555
N7_8 Zn3_9 1_555 1_555
N8_8 Zn1_8 1_555 1_555
C1_11 H1_11 1_555 1_555
H2_11 C1_11 1_555 1_555
H3_11 C1_11 1_555 1_555
C2_11 C1_11 1_555 1_555
H4_11 C2_11 1_555 1_555
H5_11 C2_11 1_555 1_555
C3_11 C2_11 1_555 1_555
H6_11 C3_11 1_555 1_555
H7_11 C3_11 1_555 1_555
C4_11 C3_11 1_555 1_555
C5_11 N1_11 1_555 1_555
H8_11 C5_11 1_555 1_555
C6_11 N2_11 1_555 1_555
H9_11 C6_11 1_555 1_555
C19_8 H28_8 1_555 1_555
H29_8 C19_8 1_555 1_555
H30_8 C19_8 1_555 1_555
C20_8 C19_8 1_555 1_555
H31_8 C20_8 1_555 1_555
H32_8 C20_8 1_555 1_555
C21_8 C20_8 1_555 1_555
H33_8 C21_8 1_555 1_555
H34_8 C21_8 1_555 1_555
C22_8 N7_8 1_555 1_555
C23_8 N7_8 1_555 1_555
H35_8 C23_8 1_555 1_555
C24_8 N8_8 1_555 1_555
H36_8 C24_8 1_555 1_555
Zn8_4 N2_11 1_555 1_555
Zn8_5 N9_11 1_555 1_555
N9_11 C28_11 1_555 1_555
N10_11 Zn1_8 1_555 1_555
N11_11 Zn1_8 1_555 1_555
N19_8 Zn3_9 1_555 1_555
C25_11 H37_11 1_555 1_555
H38_11 C25_11 1_555 1_555
H39_11 C25_11 1_555 1_555
C26_11 C25_11 1_555 1_555
H40_11 C26_11 1_555 1_555
H41_11 C26_11 1_555 1_555
C27_11 C26_11 1_555 1_555
H42_11 C27_11 1_555 1_555
H43_11 C27_11 1_555 1_555
C28_11 N10_11 1_555 1_555
C29_11 N9_11 1_555 1_555
H44_11 C29_11 1_555 1_555
C30_11 N10_11 1_555 1_555
H45_11 C30_11 1_555 1_555
C37_8 H55_8 1_555 1_555
H56_8 C37_8 1_555 1_555
H57_8 C37_8 1_555 1_555
C38_8 C37_8 1_555 1_555
H58_8 C38_8 1_555 1_555
H59_8 C38_8 1_555 1_555
C39_8 C38_8 1_555 1_555
H60_8 C39_8 1_555 1_555
H61_8 C39_8 1_555 1_555
C40_8 N17_6 1_555 1_555
C41_8 N17_6 1_555 1_555
H62_8 C41_8 1_555 1_555
C42_8 N19_8 1_555 1_555
N8_8 C22_8 1_555 1_555
C5_11 C6_11 1_555 1_555
C21_8 C22_8 1_555 1_555
C23_8 C24_8 1_555 1_555
N19_8 C40_8 1_555 1_555
C27_11 C28_11 1_555 1_555
C29_11 C30_11 1_555 1_555
C39_8 C40_8 1_555 1_555
C41_8 C42_8 1_555 1_555
Zn1_9 N1_12 1_555 1_555
N1_12 C4_12 1_555 1_555
N2_12 C4_12 1_555 1_555
N7_9 Zn3_10 1_555 1_555
N8_9 Zn1_9 1_555 1_555
C1_12 H1_12 1_555 1_555
H2_12 C1_12 1_555 1_555
H3_12 C1_12 1_555 1_555
C2_12 C1_12 1_555 1_555
H4_12 C2_12 1_555 1_555
H5_12 C2_12 1_555 1_555
C3_12 C2_12 1_555 1_555
H6_12 C3_12 1_555 1_555
H7_12 C3_12 1_555 1_555
C4_12 C3_12 1_555 1_555
C5_12 N1_12 1_555 1_555
H8_12 C5_12 1_555 1_555
C6_12 N2_12 1_555 1_555
H9_12 C6_12 1_555 1_555
C19_9 H28_9 1_555 1_555
H29_9 C19_9 1_555 1_555
H30_9 C19_9 1_555 1_555
C20_9 C19_9 1_555 1_555
H31_9 C20_9 1_555 1_555
H32_9 C20_9 1_555 1_555
C21_9 C20_9 1_555 1_555
H33_9 C21_9 1_555 1_555
H34_9 C21_9 1_555 1_555
C22_9 N7_9 1_555 1_555
C23_9 N7_9 1_555 1_555
H35_9 C23_9 1_555 1_555
C24_9 N8_9 1_555 1_555
H36_9 C24_9 1_555 1_555
Zn8_6 N2_12 1_555 1_555
Zn8_4 N9_12 1_555 1_555
N9_12 C28_12 1_555 1_555
N10_12 Zn1_9 1_555 1_555
N11_12 Zn1_9 1_555 1_555
N19_9 Zn3_10 1_555 1_555
C25_12 H37_12 1_555 1_555
H38_12 C25_12 1_555 1_555
H39_12 C25_12 1_555 1_555
C26_12 C25_12 1_555 1_555
H40_12 C26_12 1_555 1_555
H41_12 C26_12 1_555 1_555
C27_12 C26_12 1_555 1_555
H42_12 C27_12 1_555 1_555
H43_12 C27_12 1_555 1_555
C28_12 N10_12 1_555 1_555
C29_12 N9_12 1_555 1_555
H44_12 C29_12 1_555 1_555
C30_12 N10_12 1_555 1_555
H45_12 C30_12 1_555 1_555
C37_9 H55_9 1_555 1_555
H56_9 C37_9 1_555 1_555
H57_9 C37_9 1_555 1_555
C38_9 C37_9 1_555 1_555
H58_9 C38_9 1_555 1_555
H59_9 C38_9 1_555 1_555
C39_9 C38_9 1_555 1_555
H60_9 C39_9 1_555 1_555
H61_9 C39_9 1_555 1_555
C40_9 N17_4 1_555 1_555
C41_9 N17_4 1_555 1_555
H62_9 C41_9 1_555 1_555
C42_9 N19_9 1_555 1_555
N8_9 C22_9 1_555 1_555
C5_12 C6_12 1_555 1_555
C21_9 C22_9 1_555 1_555
C23_9 C24_9 1_555 1_555
N19_9 C40_9 1_555 1_555
C27_12 C28_12 1_555 1_555
C29_12 C30_12 1_555 1_555
C39_9 C40_9 1_555 1_555
C41_9 C42_9 1_555 1_555
Zn3_11 N6_9 1_555 1_555
N3_9 C10_9 1_555 1_555
N13_3 C10_9 1_555 1_555
N6_9 C16_9 1_555 1_555
C7_9 H10_9 1_555 1_555
H11_9 C7_9 1_555 1_555
H12_9 C7_9 1_555 1_555
C8_9 C7_9 1_555 1_555
H13_9 C8_9 1_555 1_555
H14_9 C8_9 1_555 1_555
C9_9 C8_9 1_555 1_555
H15_9 C9_9 1_555 1_555
H16_9 C9_9 1_555 1_555
C10_9 C9_9 1_555 1_555
C11_9 N3_9 1_555 1_555
H17_9 C11_9 1_555 1_555
C12_9 N13_3 1_555 1_555
H18_9 C12_9 1_555 1_555
C13_9 H19_9 1_555 1_555
H20_9 C13_9 1_555 1_555
H21_9 C13_9 1_555 1_555
C14_9 C13_9 1_555 1_555
H22_9 C14_9 1_555 1_555
H23_9 C14_9 1_555 1_555
C15_9 C14_9 1_555 1_555
H24_9 C15_9 1_555 1_555
H25_9 C15_9 1_555 1_555
C16_9 N17_3 1_555 1_555
C17_9 N17_3 1_555 1_555
H26_9 C17_9 1_555 1_555
C18_9 N6_9 1_555 1_555
Zn4_9 N21_9 1_555 1_555
Zn7_9 N3_9 1_555 1_555
N20_9 Zn3_11 1_555 1_555
N21_9 C46_9 1_555 1_555
C43_9 H64_9 1_555 1_555
H65_9 C43_9 1_555 1_555
H66_9 C43_9 1_555 1_555
C44_9 C43_9 1_555 1_555
H67_9 C44_9 1_555 1_555
H68_9 C44_9 1_555 1_555
C45_9 C44_9 1_555 1_555
H69_9 C45_9 1_555 1_555
H70_9 C45_9 1_555 1_555
C46_9 N20_9 1_555 1_555
C47_9 N20_9 1_555 1_555
H71_9 C47_9 1_555 1_555
C48_9 N21_9 1_555 1_555
H72_9 C48_9 1_555 1_555
C11_9 C12_9 1_555 1_555
C15_9 C16_9 1_555 1_555
C17_9 C18_9 1_555 1_555
C45_9 C46_9 1_555 1_555
C47_9 C48_9 1_555 1_555
Zn4_7 N1_13 1_555 1_555
N1_13 C4_13 1_555 1_555
N2_13 C4_13 1_555 1_555
C1_13 H1_13 1_555 1_555
H2_13 C1_13 1_555 1_555
H3_13 C1_13 1_555 1_555
C2_13 C1_13 1_555 1_555
H4_13 C2_13 1_555 1_555
H5_13 C2_13 1_555 1_555
C3_13 C2_13 1_555 1_555
H6_13 C3_13 1_555 1_555
H7_13 C3_13 1_555 1_555
C4_13 C3_13 1_555 1_555
C5_13 N1_13 1_555 1_555
H8_13 C5_13 1_555 1_555
C6_13 N2_13 1_555 1_555
H9_13 C6_13 1_555 1_555
Zn7_9 N2_13 1_555 1_555
Zn7_7 N9_13 1_555 1_555
N9_13 C28_13 1_555 1_555
N10_13 Zn4_7 1_555 1_555
N11_13 Zn4_7 1_555 1_555
C25_13 H37_13 1_555 1_555
H38_13 C25_13 1_555 1_555
H39_13 C25_13 1_555 1_555
C26_13 C25_13 1_555 1_555
H40_13 C26_13 1_555 1_555
H41_13 C26_13 1_555 1_555
C27_13 C26_13 1_555 1_555
H42_13 C27_13 1_555 1_555
H43_13 C27_13 1_555 1_555
C28_13 N10_13 1_555 1_555
C29_13 N9_13 1_555 1_555
H44_13 C29_13 1_555 1_555
C30_13 N10_13 1_555 1_555
H45_13 C30_13 1_555 1_555
C5_13 C6_13 1_555 1_555
C27_13 C28_13 1_555 1_555
C29_13 C30_13 1_555 1_555
Zn4_9 N1_14 1_555 1_555
N1_14 C4_14 1_555 1_555
N2_14 C4_14 1_555 1_555
C1_14 H1_14 1_555 1_555
H2_14 C1_14 1_555 1_555
H3_14 C1_14 1_555 1_555
C2_14 C1_14 1_555 1_555
H4_14 C2_14 1_555 1_555
H5_14 C2_14 1_555 1_555
C3_14 C2_14 1_555 1_555
H6_14 C3_14 1_555 1_555
H7_14 C3_14 1_555 1_555
C4_14 C3_14 1_555 1_555
C5_14 N1_14 1_555 1_555
H8_14 C5_14 1_555 1_555
C6_14 N2_14 1_555 1_555
H9_14 C6_14 1_555 1_555
Zn7_8 N2_14 1_555 1_555
Zn7_9 N9_14 1_555 1_555
N9_14 C28_14 1_555 1_555
N10_14 Zn4_9 1_555 1_555
N11_14 Zn4_9 1_555 1_555
C25_14 H37_14 1_555 1_555
H38_14 C25_14 1_555 1_555
H39_14 C25_14 1_555 1_555
C26_14 C25_14 1_555 1_555
H40_14 C26_14 1_555 1_555
H41_14 C26_14 1_555 1_555
C27_14 C26_14 1_555 1_555
H42_14 C27_14 1_555 1_555
H43_14 C27_14 1_555 1_555
C28_14 N10_14 1_555 1_555
C29_14 N9_14 1_555 1_555
H44_14 C29_14 1_555 1_555
C30_14 N10_14 1_555 1_555
H45_14 C30_14 1_555 1_555
C5_14 C6_14 1_555 1_555
C27_14 C28_14 1_555 1_555
C29_14 C30_14 1_555 1_555
Zn4_8 N1_15 1_555 1_555
N1_15 C4_15 1_555 1_555
N2_15 C4_15 1_555 1_555
C1_15 H1_15 1_555 1_555
H2_15 C1_15 1_555 1_555
H3_15 C1_15 1_555 1_555
C2_15 C1_15 1_555 1_555
H4_15 C2_15 1_555 1_555
H5_15 C2_15 1_555 1_555
C3_15 C2_15 1_555 1_555
H6_15 C3_15 1_555 1_555
H7_15 C3_15 1_555 1_555
C4_15 C3_15 1_555 1_555
C5_15 N1_15 1_555 1_555
H8_15 C5_15 1_555 1_555
C6_15 N2_15 1_555 1_555
H9_15 C6_15 1_555 1_555
Zn7_7 N2_15 1_555 1_555
Zn7_8 N9_15 1_555 1_555
N9_15 C28_15 1_555 1_555
N10_15 Zn4_8 1_555 1_555
N11_15 Zn4_8 1_555 1_555
C25_15 H37_15 1_555 1_555
H38_15 C25_15 1_555 1_555
H39_15 C25_15 1_555 1_555
C26_15 C25_15 1_555 1_555
H40_15 C26_15 1_555 1_555
H41_15 C26_15 1_555 1_555
C27_15 C26_15 1_555 1_555
H42_15 C27_15 1_555 1_555
H43_15 C27_15 1_555 1_555
C28_15 N10_15 1_555 1_555
C29_15 N9_15 1_555 1_555
H44_15 C29_15 1_555 1_555
C30_15 N10_15 1_555 1_555
H45_15 C30_15 1_555 1_555
C5_15 C6_15 1_555 1_555
C27_15 C28_15 1_555 1_555
C29_15 C30_15 1_555 1_555
Zn4 N1_16 1_555 1_555
N1_16 C4_16 1_555 1_555
N2_16 C4_16 1_555 1_555
C1_16 H1_16 1_555 1_555
H2_16 C1_16 1_555 1_555
H3_16 C1_16 1_555 1_555
C2_16 C1_16 1_555 1_555
H4_16 C2_16 1_555 1_555
H5_16 C2_16 1_555 1_555
C3_16 C2_16 1_555 1_555
H6_16 C3_16 1_555 1_555
H7_16 C3_16 1_555 1_555
C4_16 C3_16 1_555 1_555
C5_16 N1_16 1_555 1_555
H8_16 C5_16 1_555 1_555
C6_16 N2_16 1_555 1_555
H9_16 C6_16 1_555 1_555
Zn7_3 N2_16 1_555 1_555
Zn7 N9_16 1_555 1_555
N9_16 C28_16 1_555 1_555
N10_16 Zn4 1_555 1_555
N11_16 Zn4 1_555 1_555
C25_16 H37_16 1_555 1_555
H38_16 C25_16 1_555 1_555
H39_16 C25_16 1_555 1_555
C26_16 C25_16 1_555 1_555
H40_16 C26_16 1_555 1_555
H41_16 C26_16 1_555 1_555
C27_16 C26_16 1_555 1_555
H42_16 C27_16 1_555 1_555
H43_16 C27_16 1_555 1_555
C28_16 N10_16 1_555 1_555
C29_16 N9_16 1_555 1_555
H44_16 C29_16 1_555 1_555
C30_16 N10_16 1_555 1_555
H45_16 C30_16 1_555 1_555
C5_16 C6_16 1_555 1_555
C27_16 C28_16 1_555 1_555
C29_16 C30_16 1_555 1_555
Zn4_3 N1_17 1_555 1_555
N1_17 C4_17 1_555 1_555
N2_17 C4_17 1_555 1_555
C1_17 H1_17 1_555 1_555
H2_17 C1_17 1_555 1_555
H3_17 C1_17 1_555 1_555
C2_17 C1_17 1_555 1_555
H4_17 C2_17 1_555 1_555
H5_17 C2_17 1_555 1_555
C3_17 C2_17 1_555 1_555
H6_17 C3_17 1_555 1_555
H7_17 C3_17 1_555 1_555
C4_17 C3_17 1_555 1_555
C5_17 N1_17 1_555 1_555
H8_17 C5_17 1_555 1_555
C6_17 N2_17 1_555 1_555
H9_17 C6_17 1_555 1_555
Zn7_2 N2_17 1_555 1_555
Zn7_3 N9_17 1_555 1_555
N9_17 C28_17 1_555 1_555
N10_17 Zn4_3 1_555 1_555
N11_17 Zn4_3 1_555 1_555
C25_17 H37_17 1_555 1_555
H38_17 C25_17 1_555 1_555
H39_17 C25_17 1_555 1_555
C26_17 C25_17 1_555 1_555
H40_17 C26_17 1_555 1_555
H41_17 C26_17 1_555 1_555
C27_17 C26_17 1_555 1_555
H42_17 C27_17 1_555 1_555
H43_17 C27_17 1_555 1_555
C28_17 N10_17 1_555 1_555
C29_17 N9_17 1_555 1_555
H44_17 C29_17 1_555 1_555
C30_17 N10_17 1_555 1_555
H45_17 C30_17 1_555 1_555
C5_17 C6_17 1_555 1_555
C27_17 C28_17 1_555 1_555
C29_17 C30_17 1_555 1_555
Zn4_2 N1_18 1_555 1_555
N1_18 C4_18 1_555 1_555
N2_18 C4_18 1_555 1_555
C1_18 H1_18 1_555 1_555
H2_18 C1_18 1_555 1_555
H3_18 C1_18 1_555 1_555
C2_18 C1_18 1_555 1_555
H4_18 C2_18 1_555 1_555
H5_18 C2_18 1_555 1_555
C3_18 C2_18 1_555 1_555
H6_18 C3_18 1_555 1_555
H7_18 C3_18 1_555 1_555
C4_18 C3_18 1_555 1_555
C5_18 N1_18 1_555 1_555
H8_18 C5_18 1_555 1_555
C6_18 N2_18 1_555 1_555
H9_18 C6_18 1_555 1_555
Zn7 N2_18 1_555 1_555
Zn7_2 N9_18 1_555 1_555
N9_18 C28_18 1_555 1_555
N10_18 Zn4_2 1_555 1_555
N11_18 Zn4_2 1_555 1_555
C25_18 H37_18 1_555 1_555
H38_18 C25_18 1_555 1_555
H39_18 C25_18 1_555 1_555
C26_18 C25_18 1_555 1_555
H40_18 C26_18 1_555 1_555
H41_18 C26_18 1_555 1_555
C27_18 C26_18 1_555 1_555
H42_18 C27_18 1_555 1_555
H43_18 C27_18 1_555 1_555
C28_18 N10_18 1_555 1_555
C29_18 N9_18 1_555 1_555
H44_18 C29_18 1_555 1_555
C30_18 N10_18 1_555 1_555
H45_18 C30_18 1_555 1_555
C5_18 C6_18 1_555 1_555
C27_18 C28_18 1_555 1_555
C29_18 C30_18 1_555 1_555
Zn9_6 N14_4 1_555 1_555
N18_4 Zn9_6 1_555 1_555
Zn2_7 N4_7 1_555 1_555
N5_7 Zn2_7 1_555 1_555
C12_10 N4_7 1_555 1_555
H18_10 C12_10 1_555 1_555
C13_10 H19_10 1_555 1_555
H20_10 C13_10 1_555 1_555
H21_10 C13_10 1_555 1_555
C14_10 C13_10 1_555 1_555
H22_10 C14_10 1_555 1_555
H23_10 C14_10 1_555 1_555
C15_10 C14_10 1_555 1_555
H24_10 C15_10 1_555 1_555
C16_10 N5_7 1_555 1_555
C17_10 N5_7 1_555 1_555
H26_10 C17_10 1_555 1_555
C19_10 H28_10 1_555 1_555
H29_10 C19_10 1_555 1_555
H30_10 C19_10 1_555 1_555
C20_10 C19_10 1_555 1_555
H31_10 C20_10 1_555 1_555
H32_10 C20_10 1_555 1_555
C21_10 C20_10 1_555 1_555
H33_10 C21_10 1_555 1_555
N13_7 Zn2_7 1_555 1_555
N17_7 Zn2_7 1_555 1_555
C15_10 C16_10 1_555 1_555
Zn3_12 N6_10 1_555 1_555
N11_11 C10_10 1_555 1_555
N7_10 Zn3_12 1_555 1_555
H11_10 C7_10 1_555 1_555
H12_10 C7_10 1_555 1_555
C8_10 C7_10 1_555 1_555
H13_10 C8_10 1_555 1_555
H14_10 C8_10 1_555 1_555
C9_10 C8_10 1_555 1_555
H15_10 C9_10 1_555 1_555
H16_10 C9_10 1_555 1_555
C10_10 C9_10 1_555 1_555
C11_10 N11_11 1_555 1_555
H17_10 C11_10 1_555 1_555
C18_10 N6_10 1_555 1_555
H27_10 C18_10 1_555 1_555
C22_10 N7_10 1_555 1_555
C23_10 N7_10 1_555 1_555
H35_10 C23_10 1_555 1_555
C24_10 N8_10 1_555 1_555
H36_10 C24_10 1_555 1_555
Zn8_4 N21_10 1_555 1_555
N11_4 C34_10 1_555 1_555
N19_10 Zn3_12 1_555 1_555
N20_10 Zn3_12 1_555 1_555
N21_10 C46_10 1_555 1_555
C31_10 H46_10 1_555 1_555
H47_10 C31_10 1_555 1_555
H48_10 C31_10 1_555 1_555
C32_10 C31_10 1_555 1_555
H49_10 C32_10 1_555 1_555
H50_10 C32_10 1_555 1_555
C33_10 C32_10 1_555 1_555
H51_10 C33_10 1_555 1_555
H52_10 C33_10 1_555 1_555
C34_10 N15_4 1_555 1_555
C35_10 N11_4 1_555 1_555
H53_10 C35_10 1_555 1_555
C36_10 N15_4 1_555 1_555
H54_10 C36_10 1_555 1_555
C37_10 H55_10 1_555 1_555
H56_10 C37_10 1_555 1_555
H57_10 C37_10 1_555 1_555
C38_10 C37_10 1_555 1_555
H58_10 C38_10 1_555 1_555
H59_10 C38_10 1_555 1_555
C39_10 C38_10 1_555 1_555
H60_10 C39_10 1_555 1_555
H61_10 C39_10 1_555 1_555
C40_10 N16_4 1_555 1_555
C41_10 N16_4 1_555 1_555
H62_10 C41_10 1_555 1_555
C42_10 N19_10 1_555 1_555
H63_10 C42_10 1_555 1_555
C43_10 H64_10 1_555 1_555
H65_10 C43_10 1_555 1_555
H66_10 C43_10 1_555 1_555
C44_10 C43_10 1_555 1_555
H67_10 C44_10 1_555 1_555
H68_10 C44_10 1_555 1_555
C45_10 C44_10 1_555 1_555
H69_10 C45_10 1_555 1_555
H70_10 C45_10 1_555 1_555
C46_10 N20_10 1_555 1_555
C47_10 N20_10 1_555 1_555
H71_10 C47_10 1_555 1_555
C48_10 N21_10 1_555 1_555
H72_10 C48_10 1_555 1_555
N8_10 C22_10 1_555 1_555
C23_10 C24_10 1_555 1_555
N19_10 C40_10 1_555 1_555
C33_10 C34_10 1_555 1_555
C35_10 C36_10 1_555 1_555
C39_10 C40_10 1_555 1_555
C41_10 C42_10 1_555 1_555
C45_10 C46_10 1_555 1_555
C47_10 C48_10 1_555 1_555
Zn2_8 N4_8 1_555 1_555
N5_8 Zn2_8 1_555 1_555
C12_11 N4_8 1_555 1_555
H18_11 C12_11 1_555 1_555
C13_11 H19_11 1_555 1_555
H20_11 C13_11 1_555 1_555
H21_11 C13_11 1_555 1_555
C14_11 C13_11 1_555 1_555
H22_11 C14_11 1_555 1_555
H23_11 C14_11 1_555 1_555
C15_11 C14_11 1_555 1_555
H24_11 C15_11 1_555 1_555
C16_11 N5_8 1_555 1_555
C17_11 N5_8 1_555 1_555
H26_11 C17_11 1_555 1_555
C19_11 H28_11 1_555 1_555
H29_11 C19_11 1_555 1_555
H30_11 C19_11 1_555 1_555
C20_11 C19_11 1_555 1_555
H31_11 C20_11 1_555 1_555
H32_11 C20_11 1_555 1_555
C21_11 C20_11 1_555 1_555
H33_11 C21_11 1_555 1_555
N13_8 Zn2_8 1_555 1_555
N17_8 Zn2_8 1_555 1_555
C15_11 C16_11 1_555 1_555
Zn3_13 N6_11 1_555 1_555
N11_10 C10_11 1_555 1_555
N7_11 Zn3_13 1_555 1_555
C7_11 H10_11 1_555 1_555
H11_11 C7_11 1_555 1_555
H12_11 C7_11 1_555 1_555
C8_11 C7_11 1_555 1_555
H13_11 C8_11 1_555 1_555
H14_11 C8_11 1_555 1_555
C9_11 C8_11 1_555 1_555
H15_11 C9_11 1_555 1_555
H16_11 C9_11 1_555 1_555
C10_11 C9_11 1_555 1_555
C11_11 N11_10 1_555 1_555
H17_11 C11_11 1_555 1_555
C18_11 N6_11 1_555 1_555
H27_11 C18_11 1_555 1_555
C22_11 N7_11 1_555 1_555
C23_11 N7_11 1_555 1_555
H35_11 C23_11 1_555 1_555
C24_11 N8_11 1_555 1_555
H36_11 C24_11 1_555 1_555
Zn8_5 N21_11 1_555 1_555
Zn9_7 N14_5 1_555 1_555
N11_6 C34_11 1_555 1_555
N15_5 Zn9_7 1_555 1_555
N16_5 Zn9_7 1_555 1_555
N18_5 Zn9_7 1_555 1_555
N19_11 Zn3_13 1_555 1_555
N20_11 Zn3_13 1_555 1_555
N21_11 C46_11 1_555 1_555
C31_11 H46_11 1_555 1_555
H47_11 C31_11 1_555 1_555
H48_11 C31_11 1_555 1_555
C32_11 C31_11 1_555 1_555
H49_11 C32_11 1_555 1_555
H50_11 C32_11 1_555 1_555
C33_11 C32_11 1_555 1_555
H51_11 C33_11 1_555 1_555
H52_11 C33_11 1_555 1_555
C34_11 N15_5 1_555 1_555
C35_11 N11_6 1_555 1_555
H53_11 C35_11 1_555 1_555
C36_11 N15_5 1_555 1_555
H54_11 C36_11 1_555 1_555
C37_11 H55_11 1_555 1_555
H56_11 C37_11 1_555 1_555
H57_11 C37_11 1_555 1_555
C38_11 C37_11 1_555 1_555
H58_11 C38_11 1_555 1_555
H59_11 C38_11 1_555 1_555
C39_11 C38_11 1_555 1_555
H60_11 C39_11 1_555 1_555
H61_11 C39_11 1_555 1_555
C40_11 N16_5 1_555 1_555
C41_11 N16_5 1_555 1_555
H62_11 C41_11 1_555 1_555
C42_11 N19_11 1_555 1_555
H63_11 C42_11 1_555 1_555
C43_11 H64_11 1_555 1_555
H65_11 C43_11 1_555 1_555
H66_11 C43_11 1_555 1_555
C44_11 C43_11 1_555 1_555
H67_11 C44_11 1_555 1_555
H68_11 C44_11 1_555 1_555
C45_11 C44_11 1_555 1_555
H69_11 C45_11 1_555 1_555
H70_11 C45_11 1_555 1_555
C46_11 N20_11 1_555 1_555
C47_11 N20_11 1_555 1_555
H71_11 C47_11 1_555 1_555
C48_11 N21_11 1_555 1_555
H72_11 C48_11 1_555 1_555
N8_11 C22_11 1_555 1_555
C23_11 C24_11 1_555 1_555
N19_11 C40_11 1_555 1_555
C33_11 C34_11 1_555 1_555
C35_11 C36_11 1_555 1_555
C39_11 C40_11 1_555 1_555
C41_11 C42_11 1_555 1_555
C45_11 C46_11 1_555 1_555
C47_11 C48_11 1_555 1_555
Zn2_9 N4_9 1_555 1_555
N5_9 Zn2_9 1_555 1_555
C12_12 N4_9 1_555 1_555
H18_12 C12_12 1_555 1_555
C13_12 H19_12 1_555 1_555
H20_12 C13_12 1_555 1_555
H21_12 C13_12 1_555 1_555
C14_12 C13_12 1_555 1_555
H22_12 C14_12 1_555 1_555
H23_12 C14_12 1_555 1_555
C15_12 C14_12 1_555 1_555
H24_12 C15_12 1_555 1_555
C16_12 N5_9 1_555 1_555
C17_12 N5_9 1_555 1_555
H26_12 C17_12 1_555 1_555
C19_12 H28_12 1_555 1_555
H29_12 C19_12 1_555 1_555
H30_12 C19_12 1_555 1_555
C20_12 C19_12 1_555 1_555
H31_12 C20_12 1_555 1_555
H32_12 C20_12 1_555 1_555
C21_12 C20_12 1_555 1_555
H33_12 C21_12 1_555 1_555
N13_9 Zn2_9 1_555 1_555
N17_9 Zn2_9 1_555 1_555
C15_12 C16_12 1_555 1_555
Zn3_14 N6_12 1_555 1_555
N11_12 C10_12 1_555 1_555
N7_12 Zn3_14 1_555 1_555
H11_12 C7_12 1_555 1_555
H12_12 C7_12 1_555 1_555
C8_12 C7_12 1_555 1_555
H13_12 C8_12 1_555 1_555
H14_12 C8_12 1_555 1_555
C9_12 C8_12 1_555 1_555
H15_12 C9_12 1_555 1_555
H16_12 C9_12 1_555 1_555
C10_12 C9_12 1_555 1_555
C11_12 N11_12 1_555 1_555
H17_12 C11_12 1_555 1_555
C18_12 N6_12 1_555 1_555
H27_12 C18_12 1_555 1_555
C22_12 N7_12 1_555 1_555
C23_12 N7_12 1_555 1_555
H35_12 C23_12 1_555 1_555
C24_12 N8_12 1_555 1_555
H36_12 C24_12 1_555 1_555
Zn8_6 N21_12 1_555 1_555
N11_5 C34_12 1_555 1_555
N19_12 Zn3_14 1_555 1_555
N20_12 Zn3_14 1_555 1_555
N21_12 C46_12 1_555 1_555
C31_12 H46_12 1_555 1_555
H47_12 C31_12 1_555 1_555
H48_12 C31_12 1_555 1_555
C32_12 C31_12 1_555 1_555
H49_12 C32_12 1_555 1_555
H50_12 C32_12 1_555 1_555
C33_12 C32_12 1_555 1_555
H51_12 C33_12 1_555 1_555
H52_12 C33_12 1_555 1_555
C34_12 N15_6 1_555 1_555
C35_12 N11_5 1_555 1_555
H53_12 C35_12 1_555 1_555
C36_12 N15_6 1_555 1_555
H54_12 C36_12 1_555 1_555
C37_12 H55_12 1_555 1_555
H56_12 C37_12 1_555 1_555
H57_12 C37_12 1_555 1_555
C38_12 C37_12 1_555 1_555
H58_12 C38_12 1_555 1_555
H59_12 C38_12 1_555 1_555
C39_12 C38_12 1_555 1_555
H60_12 C39_12 1_555 1_555
H61_12 C39_12 1_555 1_555
C40_12 N16_6 1_555 1_555
C41_12 N16_6 1_555 1_555
H62_12 C41_12 1_555 1_555
C42_12 N19_12 1_555 1_555
H63_12 C42_12 1_555 1_555
C43_12 H64_12 1_555 1_555
H65_12 C43_12 1_555 1_555
H66_12 C43_12 1_555 1_555
C44_12 C43_12 1_555 1_555
H67_12 C44_12 1_555 1_555
H68_12 C44_12 1_555 1_555
C45_12 C44_12 1_555 1_555
H69_12 C45_12 1_555 1_555
H70_12 C45_12 1_555 1_555
C46_12 N20_12 1_555 1_555
C47_12 N20_12 1_555 1_555
H71_12 C47_12 1_555 1_555
C48_12 N21_12 1_555 1_555
H72_12 C48_12 1_555 1_555
N8_12 C22_12 1_555 1_555
C23_12 C24_12 1_555 1_555
N19_12 C40_12 1_555 1_555
C33_12 C34_12 1_555 1_555
C35_12 C36_12 1_555 1_555
C39_12 C40_12 1_555 1_555
C41_12 C42_12 1_555 1_555
C45_12 C46_12 1_555 1_555
C47_12 C48_12 1_555 1_555
Zn9_8 N14_6 1_555 1_555
N18_6 Zn9_8 1_555 1_555
Zn9_9 N15_6 1_555 1_555
N16_6 Zn9_9 1_555 1_555
Zn2_10 N4_10 1_555 1_555
Zn3_15 N6_13 1_555 1_555
N11_14 C10_13 1_555 1_555
N4_10 C10_13 1_555 1_555
N5_10 Zn2_10 1_555 1_555
N6_13 C16_13 1_555 1_555
N7_13 Zn3_15 1_555 1_555
N8_13 Zn8 1_555 1_555
H11_13 C7_13 1_555 1_555
H12_13 C7_13 1_555 1_555
C8_13 C7_13 1_555 1_555
H13_13 C8_13 1_555 1_555
H14_13 C8_13 1_555 1_555
C9_13 C8_13 1_555 1_555
H15_13 C9_13 1_555 1_555
H16_13 C9_13 1_555 1_555
C10_13 C9_13 1_555 1_555
C11_13 N11_14 1_555 1_555
H17_13 C11_13 1_555 1_555
C12_13 N4_10 1_555 1_555
H18_13 C12_13 1_555 1_555
C13_13 H19_13 1_555 1_555
H20_13 C13_13 1_555 1_555
H21_13 C13_13 1_555 1_555
C14_13 C13_13 1_555 1_555
H22_13 C14_13 1_555 1_555
H23_13 C14_13 1_555 1_555
C15_13 C14_13 1_555 1_555
H24_13 C15_13 1_555 1_555
H25_13 C15_13 1_555 1_555
C16_13 N5_10 1_555 1_555
C17_13 N5_10 1_555 1_555
H26_13 C17_13 1_555 1_555
C18_13 N6_13 1_555 1_555
H27_13 C18_13 1_555 1_555
C19_13 H28_13 1_555 1_555
H29_13 C19_13 1_555 1_555
H30_13 C19_13 1_555 1_555
C20_13 C19_13 1_555 1_555
H31_13 C20_13 1_555 1_555
H32_13 C20_13 1_555 1_555
C21_13 C20_13 1_555 1_555
H33_13 C21_13 1_555 1_555
H34_13 C21_13 1_555 1_555
C22_13 N7_13 1_555 1_555
C23_13 N7_13 1_555 1_555
H35_13 C23_13 1_555 1_555
C24_13 N8_13 1_555 1_555
H36_13 C24_13 1_555 1_555
Zn7_8 N21_13 1_555 1_555
N11 C34_13 1_555 1_555
N13_10 Zn2_10 1_555 1_555
N17_10 Zn2_10 1_555 1_555
N19_13 Zn3_15 1_555 1_555
N20_13 Zn3_15 1_555 1_555
N21_13 C46_13 1_555 1_555
C31_13 H46_13 1_555 1_555
H47_13 C31_13 1_555 1_555
H48_13 C31_13 1_555 1_555
C32_13 C31_13 1_555 1_555
H49_13 C32_13 1_555 1_555
H50_13 C32_13 1_555 1_555
C33_13 C32_13 1_555 1_555
H51_13 C33_13 1_555 1_555
H52_13 C33_13 1_555 1_555
C34_13 N14_6 1_555 1_555
C35_13 N11 1_555 1_555
H53_13 C35_13 1_555 1_555
C36_13 N14_6 1_555 1_555
H54_13 C36_13 1_555 1_555
C37_13 H55_13 1_555 1_555
H56_13 C37_13 1_555 1_555
H57_13 C37_13 1_555 1_555
C38_13 C37_13 1_555 1_555
H58_13 C38_13 1_555 1_555
H59_13 C38_13 1_555 1_555
C39_13 C38_13 1_555 1_555
H60_13 C39_13 1_555 1_555
H61_13 C39_13 1_555 1_555
C40_13 N18_6 1_555 1_555
C41_13 N18_6 1_555 1_555
H62_13 C41_13 1_555 1_555
C42_13 N19_13 1_555 1_555
H63_13 C42_13 1_555 1_555
C43_13 H64_13 1_555 1_555
H65_13 C43_13 1_555 1_555
H66_13 C43_13 1_555 1_555
C44_13 C43_13 1_555 1_555
H67_13 C44_13 1_555 1_555
H68_13 C44_13 1_555 1_555
C45_13 C44_13 1_555 1_555
H69_13 C45_13 1_555 1_555
H70_13 C45_13 1_555 1_555
C46_13 N20_13 1_555 1_555
C47_13 N20_13 1_555 1_555
H71_13 C47_13 1_555 1_555
C48_13 N21_13 1_555 1_555
H72_13 C48_13 1_555 1_555
N8_13 C22_13 1_555 1_555
C11_13 C12_13 1_555 1_555
C15_13 C16_13 1_555 1_555
C17_13 C18_13 1_555 1_555
C21_13 C22_13 1_555 1_555
C23_13 C24_13 1_555 1_555
N19_13 C40_13 1_555 1_555
C33_13 C34_13 1_555 1_555
C35_13 C36_13 1_555 1_555
C39_13 C40_13 1_555 1_555
C41_13 C42_13 1_555 1_555
C45_13 C46_13 1_555 1_555
C47_13 C48_13 1_555 1_555
Zn2_11 N4_11 1_555 1_555
Zn3_16 N6_14 1_555 1_555
N11_13 C10_14 1_555 1_555
N4_11 C10_14 1_555 1_555
N5_11 Zn2_11 1_555 1_555
N6_14 C16_14 1_555 1_555
N7_14 Zn3_16 1_555 1_555
N8_14 Zn8_3 1_555 1_555
C7_14 H10_14 1_555 1_555
H11_14 C7_14 1_555 1_555
H12_14 C7_14 1_555 1_555
C8_14 C7_14 1_555 1_555
H13_14 C8_14 1_555 1_555
H14_14 C8_14 1_555 1_555
C9_14 C8_14 1_555 1_555
H15_14 C9_14 1_555 1_555
H16_14 C9_14 1_555 1_555
C10_14 C9_14 1_555 1_555
C11_14 N11_13 1_555 1_555
H17_14 C11_14 1_555 1_555
C12_14 N4_11 1_555 1_555
H18_14 C12_14 1_555 1_555
C13_14 H19_14 1_555 1_555
H20_14 C13_14 1_555 1_555
H21_14 C13_14 1_555 1_555
C14_14 C13_14 1_555 1_555
H22_14 C14_14 1_555 1_555
H23_14 C14_14 1_555 1_555
C15_14 C14_14 1_555 1_555
H24_14 C15_14 1_555 1_555
H25_14 C15_14 1_555 1_555
C16_14 N5_11 1_555 1_555
C17_14 N5_11 1_555 1_555
H26_14 C17_14 1_555 1_555
C18_14 N6_14 1_555 1_555
H27_14 C18_14 1_555 1_555
C19_14 H28_14 1_555 1_555
H29_14 C19_14 1_555 1_555
H30_14 C19_14 1_555 1_555
C20_14 C19_14 1_555 1_555
H31_14 C20_14 1_555 1_555
H32_14 C20_14 1_555 1_555
C21_14 C20_14 1_555 1_555
H33_14 C21_14 1_555 1_555
H34_14 C21_14 1_555 1_555
C22_14 N7_14 1_555 1_555
C23_14 N7_14 1_555 1_555
H35_14 C23_14 1_555 1_555
C24_14 N8_14 1_555 1_555
H36_14 C24_14 1_555 1_555
Zn7_9 N21_14 1_555 1_555
N11_3 C34_14 1_555 1_555
N13_11 Zn2_11 1_555 1_555
N17_11 Zn2_11 1_555 1_555
N19_14 Zn3_16 1_555 1_555
N20_14 Zn3_16 1_555 1_555
N21_14 C46_14 1_555 1_555
C31_14 H46_14 1_555 1_555
H47_14 C31_14 1_555 1_555
H48_14 C31_14 1_555 1_555
C32_14 C31_14 1_555 1_555
H49_14 C32_14 1_555 1_555
H50_14 C32_14 1_555 1_555
C33_14 C32_14 1_555 1_555
H51_14 C33_14 1_555 1_555
H52_14 C33_14 1_555 1_555
C34_14 N14_5 1_555 1_555
C35_14 N11_3 1_555 1_555
H53_14 C35_14 1_555 1_555
C36_14 N14_5 1_555 1_555
H54_14 C36_14 1_555 1_555
C37_14 H55_14 1_555 1_555
H56_14 C37_14 1_555 1_555
H57_14 C37_14 1_555 1_555
C38_14 C37_14 1_555 1_555
H58_14 C38_14 1_555 1_555
H59_14 C38_14 1_555 1_555
C39_14 C38_14 1_555 1_555
H60_14 C39_14 1_555 1_555
H61_14 C39_14 1_555 1_555
C40_14 N18_5 1_555 1_555
C41_14 N18_5 1_555 1_555
H62_14 C41_14 1_555 1_555
C42_14 N19_14 1_555 1_555
H63_14 C42_14 1_555 1_555
C43_14 H64_14 1_555 1_555
H65_14 C43_14 1_555 1_555
H66_14 C43_14 1_555 1_555
C44_14 C43_14 1_555 1_555
H67_14 C44_14 1_555 1_555
H68_14 C44_14 1_555 1_555
C45_14 C44_14 1_555 1_555
H69_14 C45_14 1_555 1_555
H70_14 C45_14 1_555 1_555
C46_14 N20_14 1_555 1_555
C47_14 N20_14 1_555 1_555
H71_14 C47_14 1_555 1_555
C48_14 N21_14 1_555 1_555
H72_14 C48_14 1_555 1_555
N8_14 C22_14 1_555 1_555
C11_14 C12_14 1_555 1_555
C15_14 C16_14 1_555 1_555
C17_14 C18_14 1_555 1_555
C21_14 C22_14 1_555 1_555
C23_14 C24_14 1_555 1_555
N19_14 C40_14 1_555 1_555
C33_14 C34_14 1_555 1_555
C35_14 C36_14 1_555 1_555
C39_14 C40_14 1_555 1_555
C41_14 C42_14 1_555 1_555
C45_14 C46_14 1_555 1_555
C47_14 C48_14 1_555 1_555
Zn2_12 N4_12 1_555 1_555
Zn3_17 N6_15 1_555 1_555
N11_15 C10_15 1_555 1_555
N4_12 C10_15 1_555 1_555
N5_12 Zn2_12 1_555 1_555
N6_15 C16_15 1_555 1_555
N7_15 Zn3_17 1_555 1_555
N8_15 Zn8_2 1_555 1_555
H11_15 C7_15 1_555 1_555
H12_15 C7_15 1_555 1_555
C8_15 C7_15 1_555 1_555
H13_15 C8_15 1_555 1_555
H14_15 C8_15 1_555 1_555
C9_15 C8_15 1_555 1_555
H15_15 C9_15 1_555 1_555
H16_15 C9_15 1_555 1_555
C10_15 C9_15 1_555 1_555
C11_15 N11_15 1_555 1_555
H17_15 C11_15 1_555 1_555
C12_15 N4_12 1_555 1_555
H18_15 C12_15 1_555 1_555
C13_15 H19_15 1_555 1_555
H20_15 C13_15 1_555 1_555
H21_15 C13_15 1_555 1_555
C14_15 C13_15 1_555 1_555
H22_15 C14_15 1_555 1_555
H23_15 C14_15 1_555 1_555
C15_15 C14_15 1_555 1_555
H24_15 C15_15 1_555 1_555
H25_15 C15_15 1_555 1_555
C16_15 N5_12 1_555 1_555
C17_15 N5_12 1_555 1_555
H26_15 C17_15 1_555 1_555
C18_15 N6_15 1_555 1_555
H27_15 C18_15 1_555 1_555
C19_15 H28_15 1_555 1_555
H29_15 C19_15 1_555 1_555
H30_15 C19_15 1_555 1_555
C20_15 C19_15 1_555 1_555
H31_15 C20_15 1_555 1_555
H32_15 C20_15 1_555 1_555
C21_15 C20_15 1_555 1_555
H33_15 C21_15 1_555 1_555
H34_15 C21_15 1_555 1_555
C22_15 N7_15 1_555 1_555
C23_15 N7_15 1_555 1_555
H35_15 C23_15 1_555 1_555
C24_15 N8_15 1_555 1_555
H36_15 C24_15 1_555 1_555
Zn7_7 N21_15 1_555 1_555
N11_2 C34_15 1_555 1_555
N13_12 Zn2_12 1_555 1_555
N17_12 Zn2_12 1_555 1_555
N19_15 Zn3_17 1_555 1_555
N20_15 Zn3_17 1_555 1_555
N21_15 C46_15 1_555 1_555
C31_15 H46_15 1_555 1_555
H47_15 C31_15 1_555 1_555
H48_15 C31_15 1_555 1_555
C32_15 C31_15 1_555 1_555
H49_15 C32_15 1_555 1_555
H50_15 C32_15 1_555 1_555
C33_15 C32_15 1_555 1_555
H51_15 C33_15 1_555 1_555
H52_15 C33_15 1_555 1_555
C34_15 N14_4 1_555 1_555
C35_15 N11_2 1_555 1_555
H53_15 C35_15 1_555 1_555
C36_15 N14_4 1_555 1_555
H54_15 C36_15 1_555 1_555
C37_15 H55_15 1_555 1_555
H56_15 C37_15 1_555 1_555
H57_15 C37_15 1_555 1_555
C38_15 C37_15 1_555 1_555
H58_15 C38_15 1_555 1_555
H59_15 C38_15 1_555 1_555
C39_15 C38_15 1_555 1_555
H60_15 C39_15 1_555 1_555
H61_15 C39_15 1_555 1_555
C40_15 N18_4 1_555 1_555
C41_15 N18_4 1_555 1_555
H62_15 C41_15 1_555 1_555
C42_15 N19_15 1_555 1_555
H63_15 C42_15 1_555 1_555
C43_15 H64_15 1_555 1_555
H65_15 C43_15 1_555 1_555
H66_15 C43_15 1_555 1_555
C44_15 C43_15 1_555 1_555
H67_15 C44_15 1_555 1_555
H68_15 C44_15 1_555 1_555
C45_15 C44_15 1_555 1_555
H69_15 C45_15 1_555 1_555
H70_15 C45_15 1_555 1_555
C46_15 N20_15 1_555 1_555
C47_15 N20_15 1_555 1_555
H71_15 C47_15 1_555 1_555
C48_15 N21_15 1_555 1_555
H72_15 C48_15 1_555 1_555
N8_15 C22_15 1_555 1_555
C11_15 C12_15 1_555 1_555
C15_15 C16_15 1_555 1_555
C17_15 C18_15 1_555 1_555
C21_15 C22_15 1_555 1_555
C23_15 C24_15 1_555 1_555
N19_15 C40_15 1_555 1_555
C33_15 C34_15 1_555 1_555
C35_15 C36_15 1_555 1_555
C39_15 C40_15 1_555 1_555
C41_15 C42_15 1_555 1_555
C45_15 C46_15 1_555 1_555
C47_15 C48_15 1_555 1_555
Zn9_10 N15_4 1_555 1_555
N16_4 Zn9_10 1_555 1_555
N11_16 C34_16 1_555 1_555
C31_16 H46_16 1_555 1_555
H47_16 C31_16 1_555 1_555
H48_16 C31_16 1_555 1_555
C32_16 C31_16 1_555 1_555
H49_16 C32_16 1_555 1_555
H50_16 C32_16 1_555 1_555
C33_16 C32_16 1_555 1_555
H51_16 C33_16 1_555 1_555
H52_16 C33_16 1_555 1_555
C34_16 N13_10 1_555 1_555
C35_16 N11_16 1_555 1_555
H53_16 C35_16 1_555 1_555
C36_16 N13_10 1_555 1_555
H54_16 C36_16 1_555 1_555
C33_16 C34_16 1_555 1_555
C35_16 C36_16 1_555 1_555
N11_18 C34_17 1_555 1_555
C31_17 H46_17 1_555 1_555
H47_17 C31_17 1_555 1_555
H48_17 C31_17 1_555 1_555
C32_17 C31_17 1_555 1_555
H49_17 C32_17 1_555 1_555
H50_17 C32_17 1_555 1_555
C33_17 C32_17 1_555 1_555
H51_17 C33_17 1_555 1_555
H52_17 C33_17 1_555 1_555
C34_17 N13_12 1_555 1_555
C35_17 N11_18 1_555 1_555
H53_17 C35_17 1_555 1_555
C36_17 N13_12 1_555 1_555
H54_17 C36_17 1_555 1_555
C33_17 C34_17 1_555 1_555
C35_17 C36_17 1_555 1_555
N11_17 C34_18 1_555 1_555
C31_18 H46_18 1_555 1_555
H47_18 C31_18 1_555 1_555
H48_18 C31_18 1_555 1_555
C32_18 C31_18 1_555 1_555
H49_18 C32_18 1_555 1_555
H50_18 C32_18 1_555 1_555
C33_18 C32_18 1_555 1_555
H51_18 C33_18 1_555 1_555
H52_18 C33_18 1_555 1_555
C34_18 N13_11 1_555 1_555
C35_18 N11_17 1_555 1_555
H53_18 C35_18 1_555 1_555
C36_18 N13_11 1_555 1_555
H54_18 C36_18 1_555 1_555
C33_18 C34_18 1_555 1_555
C35_18 C36_18 1_555 1_555
Zn3_18 N6_16 1_555 1_555
N11_8 C10_16 1_555 1_555
N13_8 C10_16 1_555 1_555
N6_16 C16_16 1_555 1_555
N7_16 Zn3_18 1_555 1_555
N8_16 Zn7_2 1_555 1_555
C7_16 H10_16 1_555 1_555
H11_16 C7_16 1_555 1_555
H12_16 C7_16 1_555 1_555
C8_16 C7_16 1_555 1_555
H13_16 C8_16 1_555 1_555
H14_16 C8_16 1_555 1_555
C9_16 C8_16 1_555 1_555
H15_16 C9_16 1_555 1_555
H16_16 C9_16 1_555 1_555
C10_16 C9_16 1_555 1_555
C11_16 N11_8 1_555 1_555
H17_16 C11_16 1_555 1_555
C12_16 N13_8 1_555 1_555
H18_16 C12_16 1_555 1_555
C13_16 H19_16 1_555 1_555
H20_16 C13_16 1_555 1_555
H21_16 C13_16 1_555 1_555
C14_16 C13_16 1_555 1_555
H22_16 C14_16 1_555 1_555
H23_16 C14_16 1_555 1_555
C15_16 C14_16 1_555 1_555
H24_16 C15_16 1_555 1_555
H25_16 C15_16 1_555 1_555
C16_16 N17_8 1_555 1_555
C17_16 N17_8 1_555 1_555
H26_16 C17_16 1_555 1_555
C18_16 N6_16 1_555 1_555
H27_16 C18_16 1_555 1_555
C19_16 H28_16 1_555 1_555
H29_16 C19_16 1_555 1_555
H30_16 C19_16 1_555 1_555
C20_16 C19_16 1_555 1_555
H31_16 C20_16 1_555 1_555
H32_16 C20_16 1_555 1_555
C21_16 C20_16 1_555 1_555
H33_16 C21_16 1_555 1_555
H34_16 C21_16 1_555 1_555
C22_16 N7_16 1_555 1_555
C23_16 N7_16 1_555 1_555
H35_16 C23_16 1_555 1_555
C24_16 N8_16 1_555 1_555
H36_16 C24_16 1_555 1_555
Zn7_5 N21_16 1_555 1_555
N19_16 Zn3_18 1_555 1_555
N20_16 Zn3_18 1_555 1_555
N21_16 C46_16 1_555 1_555
C37_16 H55_16 1_555 1_555
H56_16 C37_16 1_555 1_555
H57_16 C37_16 1_555 1_555
C38_16 C37_16 1_555 1_555
H58_16 C38_16 1_555 1_555
H59_16 C38_16 1_555 1_555
C39_16 C38_16 1_555 1_555
H60_16 C39_16 1_555 1_555
H61_16 C39_16 1_555 1_555
C40_16 N17_11 1_555 1_555
C41_16 N17_11 1_555 1_555
H62_16 C41_16 1_555 1_555
C42_16 N19_16 1_555 1_555
H63_16 C42_16 1_555 1_555
C43_16 H64_16 1_555 1_555
H65_16 C43_16 1_555 1_555
H66_16 C43_16 1_555 1_555
C44_16 C43_16 1_555 1_555
H67_16 C44_16 1_555 1_555
H68_16 C44_16 1_555 1_555
C45_16 C44_16 1_555 1_555
H69_16 C45_16 1_555 1_555
H70_16 C45_16 1_555 1_555
C46_16 N20_16 1_555 1_555
C47_16 N20_16 1_555 1_555
H71_16 C47_16 1_555 1_555
C48_16 N21_16 1_555 1_555
H72_16 C48_16 1_555 1_555
N8_16 C22_16 1_555 1_555
C11_16 C12_16 1_555 1_555
C15_16 C16_16 1_555 1_555
C17_16 C18_16 1_555 1_555
C21_16 C22_16 1_555 1_555
C23_16 C24_16 1_555 1_555
N19_16 C40_16 1_555 1_555
C39_16 C40_16 1_555 1_555
C41_16 C42_16 1_555 1_555
C45_16 C46_16 1_555 1_555
C47_16 C48_16 1_555 1_555
N7_17 Zn3_19 1_555 1_555
N8_17 Zn7 1_555 1_555
C19_17 H28_17 1_555 1_555
H29_17 C19_17 1_555 1_555
H30_17 C19_17 1_555 1_555
C20_17 C19_17 1_555 1_555
H31_17 C20_17 1_555 1_555
H32_17 C20_17 1_555 1_555
C21_17 C20_17 1_555 1_555
H33_17 C21_17 1_555 1_555
H34_17 C21_17 1_555 1_555
C22_17 N7_17 1_555 1_555
C23_17 N7_17 1_555 1_555
H35_17 C23_17 1_555 1_555
C24_17 N8_17 1_555 1_555
H36_17 C24_17 1_555 1_555
N19_17 Zn3_19 1_555 1_555
C37_17 H55_17 1_555 1_555
H56_17 C37_17 1_555 1_555
H57_17 C37_17 1_555 1_555
C38_17 C37_17 1_555 1_555
H58_17 C38_17 1_555 1_555
H59_17 C38_17 1_555 1_555
C39_17 C38_17 1_555 1_555
H60_17 C39_17 1_555 1_555
H61_17 C39_17 1_555 1_555
C40_17 N17_12 1_555 1_555
C41_17 N17_12 1_555 1_555
H62_17 C41_17 1_555 1_555
C42_17 N19_17 1_555 1_555
N8_17 C22_17 1_555 1_555
C21_17 C22_17 1_555 1_555
C23_17 C24_17 1_555 1_555
N19_17 C40_17 1_555 1_555
C39_17 C40_17 1_555 1_555
C41_17 C42_17 1_555 1_555
Zn3_20 N6_17 1_555 1_555
N11_7 C10_17 1_555 1_555
N13_7 C10_17 1_555 1_555
N6_17 C16_17 1_555 1_555
C7_17 H10_17 1_555 1_555
H11_17 C7_17 1_555 1_555
H12_17 C7_17 1_555 1_555
C8_17 C7_17 1_555 1_555
H13_17 C8_17 1_555 1_555
H14_17 C8_17 1_555 1_555
C9_17 C8_17 1_555 1_555
H15_17 C9_17 1_555 1_555
H16_17 C9_17 1_555 1_555
C10_17 C9_17 1_555 1_555
C11_17 N11_7 1_555 1_555
H17_17 C11_17 1_555 1_555
C12_17 N13_7 1_555 1_555
H18_17 C12_17 1_555 1_555
C13_17 H19_17 1_555 1_555
H20_17 C13_17 1_555 1_555
H21_17 C13_17 1_555 1_555
C14_17 C13_17 1_555 1_555
H22_17 C14_17 1_555 1_555
H23_17 C14_17 1_555 1_555
C15_17 C14_17 1_555 1_555
H24_17 C15_17 1_555 1_555
H25_17 C15_17 1_555 1_555
C16_17 N17_7 1_555 1_555
C17_17 N17_7 1_555 1_555
H26_17 C17_17 1_555 1_555
C18_17 N6_17 1_555 1_555
Zn7_6 N21_17 1_555 1_555
N20_17 Zn3_20 1_555 1_555
N21_17 C46_17 1_555 1_555
C43_17 H64_17 1_555 1_555
H65_17 C43_17 1_555 1_555
H66_17 C43_17 1_555 1_555
C44_17 C43_17 1_555 1_555
H67_17 C44_17 1_555 1_555
H68_17 C44_17 1_555 1_555
C45_17 C44_17 1_555 1_555
H69_17 C45_17 1_555 1_555
H70_17 C45_17 1_555 1_555
C46_17 N20_17 1_555 1_555
C47_17 N20_17 1_555 1_555
H71_17 C47_17 1_555 1_555
C48_17 N21_17 1_555 1_555
H72_17 C48_17 1_555 1_555
C11_17 C12_17 1_555 1_555
C15_17 C16_17 1_555 1_555
C17_17 C18_17 1_555 1_555
C45_17 C46_17 1_555 1_555
C47_17 C48_17 1_555 1_555
Zn3_21 N6_18 1_555 1_555
N11_9 C10_18 1_555 1_555
N13_9 C10_18 1_555 1_555
N6_18 C16_18 1_555 1_555
C7_18 H10_18 1_555 1_555
H11_18 C7_18 1_555 1_555
H12_18 C7_18 1_555 1_555
C8_18 C7_18 1_555 1_555
H13_18 C8_18 1_555 1_555
H14_18 C8_18 1_555 1_555
C9_18 C8_18 1_555 1_555
H15_18 C9_18 1_555 1_555
H16_18 C9_18 1_555 1_555
C10_18 C9_18 1_555 1_555
C11_18 N11_9 1_555 1_555
H17_18 C11_18 1_555 1_555
C12_18 N13_9 1_555 1_555
H18_18 C12_18 1_555 1_555
C13_18 H19_18 1_555 1_555
H20_18 C13_18 1_555 1_555
H21_18 C13_18 1_555 1_555
C14_18 C13_18 1_555 1_555
H22_18 C14_18 1_555 1_555
H23_18 C14_18 1_555 1_555
C15_18 C14_18 1_555 1_555
H24_18 C15_18 1_555 1_555
H25_18 C15_18 1_555 1_555
C16_18 N17_9 1_555 1_555
C17_18 N17_9 1_555 1_555
H26_18 C17_18 1_555 1_555
C18_18 N6_18 1_555 1_555
Zn7_4 N21_18 1_555 1_555
N20_18 Zn3_21 1_555 1_555
N21_18 C46_18 1_555 1_555
C43_18 H64_18 1_555 1_555
H65_18 C43_18 1_555 1_555
H66_18 C43_18 1_555 1_555
C44_18 C43_18 1_555 1_555
H67_18 C44_18 1_555 1_555
H68_18 C44_18 1_555 1_555
C45_18 C44_18 1_555 1_555
H69_18 C45_18 1_555 1_555
H70_18 C45_18 1_555 1_555
C46_18 N20_18 1_555 1_555
C47_18 N20_18 1_555 1_555
H71_18 C47_18 1_555 1_555
C48_18 N21_18 1_555 1_555
H72_18 C48_18 1_555 1_555
C11_18 C12_18 1_555 1_555
C15_18 C16_18 1_555 1_555
C17_18 C18_18 1_555 1_555
C45_18 C46_18 1_555 1_555
C47_18 C48_18 1_555 1_555
N7_18 Zn3_22 1_555 1_555
N8_18 Zn7_3 1_555 1_555
C19_18 H28_18 1_555 1_555
H29_18 C19_18 1_555 1_555
H30_18 C19_18 1_555 1_555
C20_18 C19_18 1_555 1_555
H31_18 C20_18 1_555 1_555
H32_18 C20_18 1_555 1_555
C21_18 C20_18 1_555 1_555
H33_18 C21_18 1_555 1_555
H34_18 C21_18 1_555 1_555
C22_18 N7_18 1_555 1_555
C23_18 N7_18 1_555 1_555
H35_18 C23_18 1_555 1_555
C24_18 N8_18 1_555 1_555
H36_18 C24_18 1_555 1_555
N19_18 Zn3_22 1_555 1_555
C37_18 H55_18 1_555 1_555
H56_18 C37_18 1_555 1_555
H57_18 C37_18 1_555 1_555
C38_18 C37_18 1_555 1_555
H58_18 C38_18 1_555 1_555
H59_18 C38_18 1_555 1_555
C39_18 C38_18 1_555 1_555
H60_18 C39_18 1_555 1_555
H61_18 C39_18 1_555 1_555
C40_18 N17_10 1_555 1_555
C41_18 N17_10 1_555 1_555
H62_18 C41_18 1_555 1_555
C42_18 N19_18 1_555 1_555
N8_18 C22_18 1_555 1_555
C21_18 C22_18 1_555 1_555
C23_18 C24_18 1_555 1_555
N19_18 C40_18 1_555 1_555
C39_18 C40_18 1_555 1_555
C41_18 C42_18 1_555 1_555

#END
