
###############################################################################
#
# This file contains modified crystal structure data generated from the
# MOF subset of the Cambridge Structural Database (CSD) v543 
# hosted by the Cambridge Crystallographic Data Centre (CCDC).
#
# This work is licensed under the Creative Commons
# Attribution-NonCommercial-ShareAlike 4.0 International License.
# To view a copy of this license, visit
# http://creativecommons.org/licenses/by-nc-sa/4.0/
# or send a letter to
# Creative Commons, PO Box 1866, Mountain View, CA 94042, USA.
#
# CIF created using the CSD Python API on 29 September 2022
# The structure has been converted into the P1 space group
# The structure has a 3D framework
# The original CSD entry GUPJEG is in the monoclinic crystal system
# The framework has been calculated to contain at least 10.0% void space
# The void calculation uses a probe of radius 1.32A, grid spacing 0.4
#
###############################################################################

data_GUPJEG
_chemical_formula_moiety         '(C48 H24 Mn6 N8 O16)n'
_symmetry_cell_setting           triclinic
_symmetry_space_group_name_H-M   'P 1'
_symmetry_Int_Tables_number      1
_space_group_name_Hall           'P 1'
loop_
_symmetry_equiv_pos_site_id
_symmetry_equiv_pos_as_xyz
1 x,y,z
_cell_length_a                   11.959(2)
_cell_length_b                   14.626(3)
_cell_length_c                   9.247(2)
_cell_angle_alpha                90
_cell_angle_beta                 127.40(3)
_cell_angle_gamma                90
_cell_volume                     1284.9
loop_
_atom_site_label
_atom_site_type_symbol
_atom_site_fract_x
_atom_site_fract_y
_atom_site_fract_z
C1 C 0.3335(3) 0.41151(18) 0.3315(4)
C2 C 0.2563(3) 0.3223(2) 0.2946(4)
C3 C 0.1408(3) 0.32264(19) 0.2958(4)
H1 H 0.1137 0.3772 0.3231
C4 C 0.2188(3) 0.1623(2) 0.2324(4)
H2 H 0.2482 0.1061 0.2137
C5 C 0.0652(3) 0.24231(19) 0.2568(4)
C6 C 0.2942(3) 0.2406(2) 0.2589(4)
H3 H 0.3706 0.2384 0.2527
N1 N 0.1060(2) 0.16169(16) 0.2318(3)
O1 O 0.3647(2) 0.42981(15) 0.2268(3)
O2 O 0.3544(2) 0.46223(13) 0.4540(3)
Mn1 Mn 0.0000 0.03461(4) 0.2500
Mn2 Mn 0.5000 0.53461(4) 0.2500
Mn3 Mn 0.5000 0.46539(4) 0.7500
O8 O 0.1456(2) 0.03777(13) 0.5460(3)
O6 O 0.1353(2) 0.92981(15) 0.2732(3)
Mn1_2 Mn 1.0000 0.03461(4) 0.2500
C7 C 0.9348(3) 0.24231(19) 0.2432(4)
C8 C 0.8592(3) 0.32264(19) 0.2042(4)
C9 C 0.7437(3) 0.3223(2) 0.2054(4)
C10 C 0.6665(3) 0.41151(18) 0.1685(4)
O3 O 0.6353(2) 0.42981(15) 0.2732(3)
O4 O 0.6456(2) 0.46223(13) 0.0460(3)
C11 C 0.7058(3) 0.2406(2) 0.2411(4)
C12 C 0.7812(3) 0.1623(2) 0.2676(4)
H4 H 0.7518 0.1061 0.2863
N2 N 0.8940(2) 0.16169(16) 0.2682(3)
H5 H 0.6294 0.2384 0.2473
H6 H 0.8863 0.3772 0.1769
O7 O 0.8544(2) 0.03777(13) 0.9540(3)
O5 O 0.8647(2) 0.92981(15) 0.2268(3)
Mn3_2 Mn 0.0000 0.96539(4) 0.7500
C1_2 C 0.8335(3) 0.91151(18) 0.3315(4)
C2_2 C 0.7563(3) 0.8223(2) 0.2946(4)
C3_2 C 0.6408(3) 0.82264(19) 0.2958(4)
H1_2 H 0.6137 0.8772 0.3231
C4_2 C 0.7188(3) 0.6623(2) 0.2324(4)
H2_2 H 0.7482 0.6061 0.2137
C5_2 C 0.5652(3) 0.74231(19) 0.2568(4)
C6_2 C 0.7942(3) 0.7406(2) 0.2589(4)
H3_2 H 0.8706 0.7384 0.2527
N1_2 N 0.6060(2) 0.66169(16) 0.2318(3)
O2_2 O 0.8544(2) 0.96223(13) 0.4540(3)
C7_2 C 0.4348(3) 0.74231(19) 0.2432(4)
C8_2 C 0.3592(3) 0.82264(19) 0.2042(4)
C9_2 C 0.2437(3) 0.8223(2) 0.2054(4)
C10_2 C 0.1665(3) 0.91151(18) 0.1685(4)
O4_2 O 0.1456(2) 0.96223(13) 0.0460(3)
C11_2 C 0.2058(3) 0.7406(2) 0.2411(4)
C12_2 C 0.2812(3) 0.6623(2) 0.2676(4)
H4_2 H 0.2518 0.6061 0.2863
N2_2 N 0.3940(2) 0.66169(16) 0.2682(3)
H5_2 H 0.1294 0.7384 0.2473
H6_2 H 0.3863 0.8772 0.1769
Mn3_3 Mn 1.0000 0.96539(4) 0.7500
O8_2 O 0.6456(2) 0.53777(13) 0.5460(3)
O7_2 O 0.3544(2) 0.53777(13) 0.9540(3)
O5_2 O 0.1353(2) 0.07019(15) 0.7732(3)
C7_3 C 0.0652(3) 0.75769(19) 0.7568(4)
C8_3 C 0.1408(3) 0.67736(19) 0.7958(4)
C9_3 C 0.2563(3) 0.6777(2) 0.7946(4)
C10_3 C 0.3335(3) 0.58849(18) 0.8315(4)
O3_2 O 0.3647(2) 0.57019(15) 0.7268(3)
C11_3 C 0.2942(3) 0.7594(2) 0.7589(4)
C12_3 C 0.2188(3) 0.8377(2) 0.7324(4)
H4_3 H 0.2482 0.8939 0.7137
N2_3 N 0.1060(2) 0.83831(16) 0.7318(3)
H5_3 H 0.3706 0.7616 0.7527
H6_3 H 0.1137 0.6228 0.8231
O6_2 O 0.8647(2) 0.07019(15) 0.7268(3)
C1_3 C 0.6665(3) 0.58849(18) 0.6685(4)
C2_3 C 0.7437(3) 0.6777(2) 0.7054(4)
C3_3 C 0.8592(3) 0.67736(19) 0.7042(4)
H1_3 H 0.8863 0.6228 0.6769
C4_3 C 0.7812(3) 0.8377(2) 0.7676(4)
H2_3 H 0.7518 0.8939 0.7863
C5_3 C 0.9348(3) 0.75769(19) 0.7432(4)
C6_3 C 0.7058(3) 0.7594(2) 0.7411(4)
H3_3 H 0.6294 0.7616 0.7473
N1_3 N 0.8940(2) 0.83831(16) 0.7682(3)
O1_2 O 0.6353(2) 0.57019(15) 0.7732(3)
C1_4 C 0.1665(3) 0.08849(18) 0.6685(4)
C2_4 C 0.2437(3) 0.1777(2) 0.7054(4)
C3_4 C 0.3592(3) 0.17736(19) 0.7042(4)
H1_4 H 0.3863 0.1228 0.6769
C4_4 C 0.2812(3) 0.3377(2) 0.7676(4)
H2_4 H 0.2518 0.3939 0.7863
C5_4 C 0.4348(3) 0.25769(19) 0.7432(4)
C6_4 C 0.2058(3) 0.2594(2) 0.7411(4)
H3_4 H 0.1294 0.2616 0.7473
N1_4 N 0.3940(2) 0.33831(16) 0.7682(3)
C7_4 C 0.5652(3) 0.25769(19) 0.7568(4)
C8_4 C 0.6408(3) 0.17736(19) 0.7958(4)
C9_4 C 0.7563(3) 0.1777(2) 0.7946(4)
C10_4 C 0.8335(3) 0.08849(18) 0.8315(4)
C11_4 C 0.7942(3) 0.2594(2) 0.7589(4)
C12_4 C 0.7188(3) 0.3377(2) 0.7324(4)
H4_4 H 0.7482 0.3939 0.7137
N2_4 N 0.6060(2) 0.33831(16) 0.7318(3)
H5_4 H 0.8706 0.2616 0.7527
H6_4 H 0.6137 0.1228 0.8231
loop_
_geom_bond_atom_site_label_1
_geom_bond_atom_site_label_2
_geom_bond_site_symmetry_1
_geom_bond_site_symmetry_2
C1 C2 1_555 1_555
C2 C3 1_555 1_555
C3 H1 1_555 1_555
C4 H2 1_555 1_555
C5 C3 1_555 1_555
C6 C2 1_555 1_555
H3 C6 1_555 1_555
N1 C4 1_555 1_555
O1 C1 1_555 1_555
O2 C1 1_555 1_555
Mn1 N1 1_555 1_555
Mn2 O1 1_555 1_555
Mn3 O2 1_555 1_555
O8 Mn1 1_555 1_555
C4 C6 1_555 1_555
C5 N1 1_555 1_555
C8 C7 1_555 1_555
C9 C8 1_555 1_555
C10 C9 1_555 1_555
O3 C10 1_555 1_555
O4 C10 1_555 1_555
C11 C9 1_555 1_555
C12 C11 1_555 1_555
H4 C12 1_555 1_555
N2 Mn1_2 1_555 1_555
H5 C11 1_555 1_555
H6 C8 1_555 1_555
Mn2 O3 1_555 1_555
C7 N2 1_555 1_555
C12 N2 1_555 1_555
C1_2 C2_2 1_555 1_555
C2_2 C3_2 1_555 1_555
C3_2 H1_2 1_555 1_555
C4_2 H2_2 1_555 1_555
C5_2 C3_2 1_555 1_555
C6_2 C2_2 1_555 1_555
H3_2 C6_2 1_555 1_555
N1_2 C4_2 1_555 1_555
O5 C1_2 1_555 1_555
O2_2 C1_2 1_555 1_555
Mn2 N1_2 1_555 1_555
C7_2 C5_2 1_555 1_555
C8_2 C7_2 1_555 1_555
C9_2 C8_2 1_555 1_555
C10_2 C9_2 1_555 1_555
O6 C10_2 1_555 1_555
O4_2 C10_2 1_555 1_555
C11_2 C9_2 1_555 1_555
C12_2 C11_2 1_555 1_555
H4_2 C12_2 1_555 1_555
N2_2 Mn2 1_555 1_555
H5_2 C11_2 1_555 1_555
H6_2 C8_2 1_555 1_555
Mn3_3 O2_2 1_555 1_555
O8_2 Mn2 1_555 1_555
C4_2 C6_2 1_555 1_555
C5_2 N1_2 1_555 1_555
C7_2 N2_2 1_555 1_555
C12_2 N2_2 1_555 1_555
C8_3 C7_3 1_555 1_555
C9_3 C8_3 1_555 1_555
C10_3 C9_3 1_555 1_555
O3_2 C10_3 1_555 1_555
O7_2 C10_3 1_555 1_555
C11_3 C9_3 1_555 1_555
C12_3 C11_3 1_555 1_555
H4_3 C12_3 1_555 1_555
N2_3 Mn3_2 1_555 1_555
H5_3 C11_3 1_555 1_555
H6_3 C8_3 1_555 1_555
Mn3 O3_2 1_555 1_555
C7_3 N2_3 1_555 1_555
C12_3 N2_3 1_555 1_555
C1_3 C2_3 1_555 1_555
C2_3 C3_3 1_555 1_555
C3_3 H1_3 1_555 1_555
C4_3 H2_3 1_555 1_555
C5_3 C3_3 1_555 1_555
C6_3 C2_3 1_555 1_555
H3_3 C6_3 1_555 1_555
N1_3 C4_3 1_555 1_555
O1_2 C1_3 1_555 1_555
O8_2 C1_3 1_555 1_555
Mn3_3 N1_3 1_555 1_555
Mn3 O1_2 1_555 1_555
C4_3 C6_3 1_555 1_555
C5_3 N1_3 1_555 1_555
C1_4 C2_4 1_555 1_555
C2_4 C3_4 1_555 1_555
C3_4 H1_4 1_555 1_555
C4_4 H2_4 1_555 1_555
C5_4 C3_4 1_555 1_555
C6_4 C2_4 1_555 1_555
H3_4 C6_4 1_555 1_555
N1_4 C4_4 1_555 1_555
O5_2 C1_4 1_555 1_555
O8 C1_4 1_555 1_555
Mn3 N1_4 1_555 1_555
C7_4 C5_4 1_555 1_555
C8_4 C7_4 1_555 1_555
C9_4 C8_4 1_555 1_555
C10_4 C9_4 1_555 1_555
O6_2 C10_4 1_555 1_555
O7 C10_4 1_555 1_555
C11_4 C9_4 1_555 1_555
C12_4 C11_4 1_555 1_555
H4_4 C12_4 1_555 1_555
N2_4 Mn3 1_555 1_555
H5_4 C11_4 1_555 1_555
H6_4 C8_4 1_555 1_555
C4_4 C6_4 1_555 1_555
C5_4 N1_4 1_555 1_555
C7_4 N2_4 1_555 1_555
C12_4 N2_4 1_555 1_555

#END
