
###############################################################################
#
# This file contains modified crystal structure data generated from the
# MOF subset of the Cambridge Structural Database (CSD) v543 
# hosted by the Cambridge Crystallographic Data Centre (CCDC).
#
# This work is licensed under the Creative Commons
# Attribution-NonCommercial-ShareAlike 4.0 International License.
# To view a copy of this license, visit
# http://creativecommons.org/licenses/by-nc-sa/4.0/
# or send a letter to
# Creative Commons, PO Box 1866, Mountain View, CA 94042, USA.
#
# CIF created using the CSD Python API on 29 September 2022
# The structure has been converted into the P1 space group
# The structure has a 3D framework
# The original CSD entry GUPJEG01 is in the monoclinic crystal system
# The framework has been calculated to contain at least 10.0% void space
# The void calculation uses a probe of radius 1.32A, grid spacing 0.4
#
###############################################################################

data_GUPJEG01
_chemical_formula_moiety         '(C48 H24 Mn6 N8 O16)n'
_symmetry_cell_setting           triclinic
_symmetry_space_group_name_H-M   'P 1'
_symmetry_Int_Tables_number      1
_space_group_name_Hall           'P 1'
loop_
_symmetry_equiv_pos_site_id
_symmetry_equiv_pos_as_xyz
1 x,y,z
_cell_length_a                   11.9505(9)
_cell_length_b                   14.5679(11)
_cell_length_c                   9.2494(7)
_cell_angle_alpha                90
_cell_angle_beta                 127.7910(10)
_cell_angle_gamma                90
_cell_volume                     1272.51
loop_
_atom_site_label
_atom_site_type_symbol
_atom_site_fract_x
_atom_site_fract_y
_atom_site_fract_z
Mn1 Mn 0.0000 0.03480(3) 0.2500
N1 N 0.10607(19) 0.16170(12) 0.2322(3)
C1 C 0.0651(2) 0.24228(14) 0.2568(3)
C2 C 0.1406(2) 0.32264(14) 0.2957(3)
H1 H 0.1134 0.3774 0.3224
C3 C 0.2566(2) 0.32246(15) 0.2952(3)
C4 C 0.2945(2) 0.24084(15) 0.2584(3)
H2 H 0.3703 0.2391 0.2511
C5 C 0.2191(2) 0.16164(15) 0.2324(3)
H3 H 0.2484 0.1051 0.2141
C6 C 0.3334(2) 0.41155(14) 0.3305(3)
O1 O 0.36425(17) 0.42983(11) 0.2256(2)
O2 O 0.35439(16) 0.46251(10) 0.4541(2)
O8 O 0.14561(16) 0.03749(10) 0.5459(2)
Mn2 Mn 0.5000 0.53480(3) 0.2500
Mn3 Mn 0.5000 0.46520(3) 0.7500
O6 O 0.13575(17) 0.92983(11) 0.2744(2)
Mn1_2 Mn 1.0000 0.03480(3) 0.2500
C7 C 0.9349(2) 0.24228(14) 0.2432(3)
N2 N 0.89393(19) 0.16170(12) 0.2678(3)
C8 C 0.7809(2) 0.16164(15) 0.2676(3)
C9 C 0.7055(2) 0.24084(15) 0.2416(3)
C10 C 0.7434(2) 0.32246(15) 0.2048(3)
C11 C 0.8594(2) 0.32264(14) 0.2043(3)
H4 H 0.8866 0.3774 0.1776
C12 C 0.6666(2) 0.41155(14) 0.1695(3)
O3 O 0.63575(17) 0.42983(11) 0.2744(2)
O4 O 0.64561(16) 0.46251(10) 0.0459(2)
H5 H 0.6297 0.2391 0.2489
H6 H 0.7516 0.1051 0.2859
O7 O 0.85439(16) 0.03749(10) 0.9541(2)
O5 O 0.86425(17) 0.92983(11) 0.2256(2)
Mn3_2 Mn 0.0000 0.96520(3) 0.7500
N1_2 N 0.60607(19) 0.66170(12) 0.2322(3)
C1_2 C 0.5651(2) 0.74228(14) 0.2568(3)
C2_2 C 0.6406(2) 0.82264(14) 0.2957(3)
H1_2 H 0.6134 0.8774 0.3224
C3_2 C 0.7566(2) 0.82246(15) 0.2952(3)
C4_2 C 0.7945(2) 0.74084(15) 0.2584(3)
H2_2 H 0.8703 0.7391 0.2511
C5_2 C 0.7191(2) 0.66164(15) 0.2324(3)
H3_2 H 0.7484 0.6051 0.2141
C6_2 C 0.8334(2) 0.91155(14) 0.3305(3)
O2_2 O 0.85439(16) 0.96251(10) 0.4541(2)
C7_2 C 0.4349(2) 0.74228(14) 0.2432(3)
N2_2 N 0.39393(19) 0.66170(12) 0.2678(3)
C8_2 C 0.2809(2) 0.66164(15) 0.2676(3)
C9_2 C 0.2055(2) 0.74084(15) 0.2416(3)
C10_2 C 0.2434(2) 0.82246(15) 0.2048(3)
C11_2 C 0.3594(2) 0.82264(14) 0.2043(3)
H4_2 H 0.3866 0.8774 0.1776
C12_2 C 0.1666(2) 0.91155(14) 0.1695(3)
O4_2 O 0.14561(16) 0.96251(10) 0.0459(2)
H5_2 H 0.1297 0.7391 0.2489
H6_2 H 0.2516 0.6051 0.2859
O8_2 O 0.64561(16) 0.53749(10) 0.5459(2)
Mn3_3 Mn 1.0000 0.96520(3) 0.7500
O7_2 O 0.35439(16) 0.53749(10) 0.9541(2)
O5_2 O 0.13575(17) 0.07017(11) 0.7744(2)
C7_3 C 0.0651(2) 0.75772(14) 0.7568(3)
N2_3 N 0.10607(19) 0.83830(12) 0.7322(3)
C8_3 C 0.2191(2) 0.83836(15) 0.7324(3)
C9_3 C 0.2945(2) 0.75916(15) 0.7584(3)
C10_3 C 0.2566(2) 0.67754(15) 0.7952(3)
C11_3 C 0.1406(2) 0.67736(14) 0.7957(3)
H4_3 H 0.1134 0.6226 0.8224
C12_3 C 0.3334(2) 0.58845(14) 0.8305(3)
O3_2 O 0.36425(17) 0.57017(11) 0.7256(2)
H5_3 H 0.3703 0.7609 0.7511
H6_3 H 0.2484 0.8949 0.7141
O6_2 O 0.86425(17) 0.07017(11) 0.7256(2)
N1_3 N 0.89393(19) 0.83830(12) 0.7678(3)
C1_3 C 0.9349(2) 0.75772(14) 0.7432(3)
C2_3 C 0.8594(2) 0.67736(14) 0.7043(3)
H1_3 H 0.8866 0.6226 0.6776
C3_3 C 0.7434(2) 0.67754(15) 0.7048(3)
C4_3 C 0.7055(2) 0.75916(15) 0.7416(3)
H2_3 H 0.6297 0.7609 0.7489
C5_3 C 0.7809(2) 0.83836(15) 0.7676(3)
H3_3 H 0.7516 0.8949 0.7859
C6_3 C 0.6666(2) 0.58845(14) 0.6695(3)
O1_2 O 0.63575(17) 0.57017(11) 0.7744(2)
N1_4 N 0.39393(19) 0.33830(12) 0.7678(3)
C1_4 C 0.4349(2) 0.25772(14) 0.7432(3)
C2_4 C 0.3594(2) 0.17736(14) 0.7043(3)
H1_4 H 0.3866 0.1226 0.6776
C3_4 C 0.2434(2) 0.17754(15) 0.7048(3)
C4_4 C 0.2055(2) 0.25916(15) 0.7416(3)
H2_4 H 0.1297 0.2609 0.7489
C5_4 C 0.2809(2) 0.33836(15) 0.7676(3)
H3_4 H 0.2516 0.3949 0.7859
C6_4 C 0.1666(2) 0.08845(14) 0.6695(3)
C7_4 C 0.5651(2) 0.25772(14) 0.7568(3)
N2_4 N 0.60607(19) 0.33830(12) 0.7322(3)
C8_4 C 0.7191(2) 0.33836(15) 0.7324(3)
C9_4 C 0.7945(2) 0.25916(15) 0.7584(3)
C10_4 C 0.7566(2) 0.17754(15) 0.7952(3)
C11_4 C 0.6406(2) 0.17736(14) 0.7957(3)
H4_4 H 0.6134 0.1226 0.8224
C12_4 C 0.8334(2) 0.08845(14) 0.8305(3)
H5_4 H 0.8703 0.2609 0.7511
H6_4 H 0.7484 0.3949 0.7141
loop_
_geom_bond_atom_site_label_1
_geom_bond_atom_site_label_2
_geom_bond_site_symmetry_1
_geom_bond_site_symmetry_2
Mn1 N1 1_555 1_555
N1 C1 1_555 1_555
C1 C2 1_555 1_555
C2 H1 1_555 1_555
C3 C2 1_555 1_555
C4 C3 1_555 1_555
H2 C4 1_555 1_555
C5 N1 1_555 1_555
H3 C5 1_555 1_555
C6 C3 1_555 1_555
O1 C6 1_555 1_555
O2 C6 1_555 1_555
O8 Mn1 1_555 1_555
Mn2 O1 1_555 1_555
Mn3 O2 1_555 1_555
C4 C5 1_555 1_555
N2 Mn1_2 1_555 1_555
C8 N2 1_555 1_555
C9 C8 1_555 1_555
C10 C9 1_555 1_555
C11 C7 1_555 1_555
H4 C11 1_555 1_555
C12 C10 1_555 1_555
O3 C12 1_555 1_555
O4 C12 1_555 1_555
H5 C9 1_555 1_555
H6 C8 1_555 1_555
Mn2 O3 1_555 1_555
C7 N2 1_555 1_555
C10 C11 1_555 1_555
Mn2 N1_2 1_555 1_555
N1_2 C1_2 1_555 1_555
C1_2 C2_2 1_555 1_555
C2_2 H1_2 1_555 1_555
C3_2 C2_2 1_555 1_555
C4_2 C3_2 1_555 1_555
H2_2 C4_2 1_555 1_555
C5_2 N1_2 1_555 1_555
H3_2 C5_2 1_555 1_555
C6_2 C3_2 1_555 1_555
O5 C6_2 1_555 1_555
O2_2 C6_2 1_555 1_555
C7_2 C1_2 1_555 1_555
N2_2 Mn2 1_555 1_555
C8_2 N2_2 1_555 1_555
C9_2 C8_2 1_555 1_555
C10_2 C9_2 1_555 1_555
C11_2 C7_2 1_555 1_555
H4_2 C11_2 1_555 1_555
C12_2 C10_2 1_555 1_555
O6 C12_2 1_555 1_555
O4_2 C12_2 1_555 1_555
H5_2 C9_2 1_555 1_555
H6_2 C8_2 1_555 1_555
O8_2 Mn2 1_555 1_555
Mn3_3 O2_2 1_555 1_555
C4_2 C5_2 1_555 1_555
C7_2 N2_2 1_555 1_555
C10_2 C11_2 1_555 1_555
N2_3 Mn3_2 1_555 1_555
C8_3 N2_3 1_555 1_555
C9_3 C8_3 1_555 1_555
C10_3 C9_3 1_555 1_555
C11_3 C7_3 1_555 1_555
H4_3 C11_3 1_555 1_555
C12_3 C10_3 1_555 1_555
O3_2 C12_3 1_555 1_555
O7_2 C12_3 1_555 1_555
H5_3 C9_3 1_555 1_555
H6_3 C8_3 1_555 1_555
Mn3 O3_2 1_555 1_555
C7_3 N2_3 1_555 1_555
C10_3 C11_3 1_555 1_555
Mn3_3 N1_3 1_555 1_555
N1_3 C1_3 1_555 1_555
C1_3 C2_3 1_555 1_555
C2_3 H1_3 1_555 1_555
C3_3 C2_3 1_555 1_555
C4_3 C3_3 1_555 1_555
H2_3 C4_3 1_555 1_555
C5_3 N1_3 1_555 1_555
H3_3 C5_3 1_555 1_555
C6_3 C3_3 1_555 1_555
O1_2 C6_3 1_555 1_555
O8_2 C6_3 1_555 1_555
Mn3 O1_2 1_555 1_555
C4_3 C5_3 1_555 1_555
Mn3 N1_4 1_555 1_555
N1_4 C1_4 1_555 1_555
C1_4 C2_4 1_555 1_555
C2_4 H1_4 1_555 1_555
C3_4 C2_4 1_555 1_555
C4_4 C3_4 1_555 1_555
H2_4 C4_4 1_555 1_555
C5_4 N1_4 1_555 1_555
H3_4 C5_4 1_555 1_555
C6_4 C3_4 1_555 1_555
O5_2 C6_4 1_555 1_555
O8 C6_4 1_555 1_555
C7_4 C1_4 1_555 1_555
N2_4 Mn3 1_555 1_555
C8_4 N2_4 1_555 1_555
C9_4 C8_4 1_555 1_555
C10_4 C9_4 1_555 1_555
C11_4 C7_4 1_555 1_555
H4_4 C11_4 1_555 1_555
C12_4 C10_4 1_555 1_555
O6_2 C12_4 1_555 1_555
O7 C12_4 1_555 1_555
H5_4 C9_4 1_555 1_555
H6_4 C8_4 1_555 1_555
C4_4 C5_4 1_555 1_555
C7_4 N2_4 1_555 1_555
C10_4 C11_4 1_555 1_555

#END
