
###############################################################################
#
# This file contains modified crystal structure data generated from the
# MOF subset of the Cambridge Structural Database (CSD) v543 
# hosted by the Cambridge Crystallographic Data Centre (CCDC).
#
# This work is licensed under the Creative Commons
# Attribution-NonCommercial-ShareAlike 4.0 International License.
# To view a copy of this license, visit
# http://creativecommons.org/licenses/by-nc-sa/4.0/
# or send a letter to
# Creative Commons, PO Box 1866, Mountain View, CA 94042, USA.
#
# CIF created using the CSD Python API on 29 September 2022
# The structure has been converted into the P1 space group
# The structure has a 3D framework
# The original CSD entry GUQLOW is in the rhombohedral crystal system
# The framework has been calculated to contain at least 10.0% void space
# The void calculation uses a probe of radius 1.32A, grid spacing 0.4
#
###############################################################################

data_GUQLOW
_chemical_formula_moiety         '(C360 H216 N72 Zn12)n'
_symmetry_cell_setting           triclinic
_symmetry_space_group_name_H-M   'P 1'
_symmetry_Int_Tables_number      1
_space_group_name_Hall           'P 1'
loop_
_symmetry_equiv_pos_site_id
_symmetry_equiv_pos_as_xyz
1 x,y,z
_cell_length_a                   33.1219(18)
_cell_length_b                   33.1219(18)
_cell_length_c                   9.2424(5)
_cell_angle_alpha                90
_cell_angle_beta                 90
_cell_angle_gamma                120
_cell_volume                     8781.04
loop_
_atom_site_label
_atom_site_type_symbol
_atom_site_fract_x
_atom_site_fract_y
_atom_site_fract_z
C1 C 0.02525(11) 0.44451(11) 0.2089(3)
C2 C 0.00875(13) 0.41595(12) 0.3367(4)
H1 H 0.0211 0.3986 0.3760
Zn1 Zn -0.0000 0.5000 0.0000
C30 C 0.06133(11) 0.44927(11) 0.1196(3)
C31 C 0.08618(11) 0.42373(11) 0.1633(3)
C32 C 0.12034(13) 0.44088(13) 0.2673(4)
H17 H 0.1282 0.4686 0.3148
C33 C 0.14279(13) 0.41680(12) 0.3007(4)
H18 H 0.1659 0.4291 0.3712
C34 C 0.09998(13) 0.36044(12) 0.1389(4)
H19 H 0.0925 0.3324 0.0939
C35 C 0.07601(13) 0.38238(12) 0.0997(4)
H20 H 0.0528 0.3692 0.0297
N7 N 0.13355(9) 0.37712(10) 0.2384(3)
N9 N 0.04379(10) 0.57690(13) 0.0949(3)
Zn2 Zn 0.1667 0.3333 0.3333
C10 C 0.93867(11) 0.55073(11) 0.8804(3)
C11 C 0.91382(11) 0.57627(11) 0.8367(3)
C12 C 0.87966(13) 0.55912(13) 0.7327(4)
H5 H 0.8718 0.5314 0.6852
C13 C 0.85721(13) 0.58320(12) 0.6993(4)
H6 H 0.8341 0.5709 0.6288
C14 C 0.90002(13) 0.63956(12) 0.8611(4)
H7 H 0.9075 0.6676 0.9061
C15 C 0.92399(13) 0.61762(12) 0.9003(4)
H8 H 0.9472 0.6308 0.9703
N3 N 0.86645(9) 0.62288(10) 0.7616(3)
Zn1_2 Zn 1.0000 0.5000 1.0000
C21 C 0.97475(11) 0.55549(11) 0.7911(3)
C22 C 0.99125(13) 0.58405(12) 0.6633(4)
H13 H 0.9789 0.6014 0.6240
N10 N 0.95621(10) 0.42310(13) 0.9051(3)
Zn3 Zn 0.8333 0.6667 0.6667
C1_2 C 0.55549(11) 0.58074(16) 0.2089(3)
C2_2 C 0.58405(12) 0.59280(18) 0.3367(4)
H1_2 H 0.6014 0.6225 0.3760
C3 C 0.58119(12) 0.55374(18) 0.3889(4)
H2 H 0.5960 0.5511 0.4709
C4 C 0.55045(10) 0.51638(15) 0.2922(3)
C5 C 0.54080(10) 0.47010(15) 0.3028(3)
C6 C 0.51579(10) 0.43503(14) 0.2014(3)
C7 C 0.50191(12) 0.38648(17) 0.2180(4)
H3 H 0.5089 0.3732 0.2958
C8 C 0.47713(12) 0.36414(17) 0.1013(4)
H4 H 0.4640 0.3324 0.0820
C9 C 0.47438(10) 0.39797(15) 0.0106(3)
C16 C 0.55922(12) 0.45727(17) 0.4308(4)
C17 C 0.59278(15) 0.44464(21) 0.4155(5)
H9 H 0.6047 0.4444 0.3245
C18 C 0.6085(2) 0.43239(26) 0.5360(7)
H10 H 0.6314 0.4243 0.5238
C19 C 0.56053(17) 0.44384(25) 0.6833(5)
H11 H 0.5489 0.4435 0.7751
C20 C 0.54372(13) 0.45714(19) 0.5689(4)
H12 H 0.5216 0.4662 0.5846
N1 N 0.53486(8) 0.53378(11) 0.1864(3)
N2 N 0.49893(8) 0.44087(11) 0.0726(3)
N4 N 0.59275(18) 0.43140(25) 0.6693(5)
Zn1_3 Zn 0.5000 0.5000 0.0000
C30_2 C 0.55073(11) 0.61206(16) 0.1196(3)
C31_2 C 0.57627(11) 0.66245(16) 0.1633(3)
C32_2 C 0.55912(13) 0.67946(18) 0.2673(4)
H17_2 H 0.5314 0.6596 0.3148
C33_2 C 0.58320(12) 0.72599(18) 0.3007(4)
H18_2 H 0.5709 0.7368 0.3712
C34_2 C 0.63956(12) 0.73954(18) 0.1389(4)
H19_2 H 0.6676 0.7601 0.0939
C35_2 C 0.61762(12) 0.69363(18) 0.0997(4)
H20_2 H 0.6308 0.6836 0.0297
N7_2 N 0.62288(10) 0.75643(13) 0.2384(3)
N9_2 N 0.42310(13) 0.46688(16) 0.0949(3)
Zn2_2 Zn 0.6667 0.8333 0.3333
C10_2 C 0.44927(11) 0.38794(16) 0.8804(3)
C11_2 C 0.42373(11) 0.33755(16) 0.8367(3)
C12_2 C 0.44088(13) 0.32054(18) 0.7327(4)
H5_2 H 0.4686 0.3404 0.6852
C13_2 C 0.41680(12) 0.27401(18) 0.6993(4)
H6_2 H 0.4291 0.2632 0.6288
C14_2 C 0.36044(12) 0.26046(18) 0.8611(4)
H7_2 H 0.3324 0.2399 0.9061
C15_2 C 0.38238(12) 0.30637(18) 0.9003(4)
H8_2 H 0.3692 0.3164 0.9703
N3_2 N 0.37712(10) 0.24357(13) 0.7616(3)
Zn1_4 Zn 0.5000 0.5000 1.0000
C21_2 C 0.44451(11) 0.41926(16) 0.7911(3)
C22_2 C 0.41595(12) 0.40720(18) 0.6633(4)
H13_2 H 0.3986 0.3775 0.6240
C23 C 0.41881(12) 0.44626(18) 0.6111(4)
H14 H 0.4040 0.4489 0.5291
C24 C 0.44955(10) 0.48362(15) 0.7078(3)
C25 C 0.45920(10) 0.52990(15) 0.6972(3)
C26 C 0.48421(10) 0.56497(14) 0.7986(3)
C27 C 0.49809(12) 0.61352(17) 0.7820(4)
H15 H 0.4911 0.6268 0.7042
C28 C 0.52287(12) 0.63586(17) 0.8987(4)
H16 H 0.5360 0.6676 0.9180
C29 C 0.52562(10) 0.60203(15) 0.9894(3)
C36 C 0.44078(12) 0.54273(17) 0.5692(4)
C37 C 0.40722(15) 0.55536(21) 0.5845(5)
H21 H 0.3953 0.5556 0.6755
C38 C 0.3915(2) 0.56761(26) 0.4640(7)
H22 H 0.3686 0.5757 0.4762
C39 C 0.43947(17) 0.55616(25) 0.3167(5)
H23 H 0.4511 0.5565 0.2249
C40 C 0.45628(13) 0.54286(19) 0.4311(4)
H24 H 0.4784 0.5338 0.4154
N5 N 0.46514(8) 0.46622(11) 0.8136(3)
N6 N 0.50107(8) 0.55913(11) 0.9274(3)
N8 N 0.40725(18) 0.56860(25) 0.3307(5)
N10_2 N 0.57690(13) 0.53312(16) 0.9051(3)
Zn3_2 Zn 0.3333 0.1667 0.6667
C10_3 C 0.61206(16) 0.06133(11) 0.8804(3)
C11_3 C 0.66245(16) 0.08618(11) 0.8367(3)
C12_3 C 0.67946(18) 0.12034(13) 0.7327(4)
H5_3 H 0.6596 0.1282 0.6852
C13_3 C 0.72599(18) 0.14279(13) 0.6993(4)
H6_3 H 0.7368 0.1659 0.6288
C14_3 C 0.73954(18) 0.09998(13) 0.8611(4)
H7_3 H 0.7601 0.0925 0.9061
C15_3 C 0.69363(18) 0.07601(13) 0.9003(4)
H8_3 H 0.6836 0.0528 0.9703
N3_3 N 0.75643(13) 0.13355(9) 0.7616(3)
Zn1_5 Zn 0.5000 0.0000 1.0000
C21_3 C 0.58074(16) 0.02525(11) 0.7911(3)
C22_3 C 0.59280(18) 0.00875(13) 0.6633(4)
H13_3 H 0.6225 0.0211 0.6240
N10_3 N 0.46688(16) 0.04379(10) 0.9051(3)
Zn3_3 Zn 0.8333 0.1667 0.6667
C1_3 C 0.41926(16) 0.97475(11) 0.2089(3)
C2_3 C 0.40720(18) 0.99125(13) 0.3367(4)
H1_3 H 0.3775 0.9789 0.3760
Zn1_6 Zn 0.5000 1.0000 0.0000
C30_3 C 0.38794(16) 0.93867(11) 0.1196(3)
C31_3 C 0.33755(16) 0.91382(11) 0.1633(3)
C32_3 C 0.32054(18) 0.87966(13) 0.2673(4)
H17_3 H 0.3404 0.8718 0.3148
C33_3 C 0.27401(18) 0.85721(13) 0.3007(4)
H18_3 H 0.2632 0.8341 0.3712
C34_3 C 0.26046(18) 0.90002(13) 0.1389(4)
H19_3 H 0.2399 0.9075 0.0939
C35_3 C 0.30637(18) 0.92399(13) 0.0997(4)
H20_3 H 0.3164 0.9472 0.0297
N7_3 N 0.24357(13) 0.86645(9) 0.2384(3)
N9_3 N 0.53312(16) 0.95621(10) 0.0949(3)
Zn2_3 Zn 0.1667 0.8333 0.3333
C1_4 C 0.69192(11) 0.77784(11) 0.5422(3)
C2_4 C 0.67542(13) 0.74928(12) 0.6700(4)
H1_4 H 0.6878 0.7319 0.7093
C3_2 C 0.63922(13) 0.75214(12) 0.7222(4)
H2_2 H 0.6218 0.7373 0.8042
C4_2 C 0.63260(11) 0.78288(10) 0.6255(3)
C5_2 C 0.59597(11) 0.79253(10) 0.6361(3)
C6_2 C 0.58591(10) 0.81754(10) 0.5347(3)
C7_2 C 0.55124(12) 0.83142(12) 0.5513(4)
H3_2 H 0.5310 0.8244 0.6291
C8_2 C 0.55368(12) 0.85620(12) 0.4346(4)
H4_2 H 0.5351 0.8693 0.4153
C9_2 C 0.59026(11) 0.85895(10) 0.3439(3)
C10_4 C 0.60534(11) 0.88406(11) 0.2137(3)
C11_4 C 0.58049(11) 0.90960(11) 0.1700(3)
C12_4 C 0.54633(13) 0.89245(13) 0.0660(4)
H5_4 H 0.5385 0.8647 0.0185
C13_4 C 0.52388(13) 0.91653(12) 0.0326(4)
C14_4 C 0.56669(13) 0.97289(12) 0.1944(4)
C15_4 C 0.59066(13) 0.95095(12) 0.2336(4)
H8_4 H 0.6139 0.9641 0.3036
C16_2 C 0.56472(12) 0.77411(12) 0.7641(4)
C17_2 C 0.51853(14) 0.74055(15) 0.7488(5)
H9_2 H 0.5064 0.7286 0.6578
C18_2 C 0.49056(17) 0.7248(2) 0.8693(7)
H10_2 H 0.4596 0.7019 0.8571
C20_2 C 0.58009(14) 0.78961(13) 0.9022(4)
H12_2 H 0.6113 0.8117 0.9179
N1_2 N 0.66559(8) 0.79847(8) 0.5197(3)
N2_2 N 0.60861(8) 0.83440(8) 0.4059(3)
C21_4 C 0.64142(11) 0.88882(11) 0.1244(3)
C24_2 C 0.70074(11) 0.88378(10) 0.0411(3)
C25_2 C 0.73737(11) 0.87413(10) 0.0305(3)
C26_2 C 0.74743(10) 0.84912(10) 0.1319(3)
C27_2 C 0.78210(12) 0.83524(12) 0.1153(4)
H15_2 H 0.8024 0.8422 0.0375
C28_2 C 0.77966(12) 0.81046(12) 0.2320(4)
H16_2 H 0.7983 0.7973 0.2513
C29_2 C 0.74308(11) 0.80771(10) 0.3227(3)
C30_4 C 0.72800(11) 0.78260(11) 0.4529(3)
C31_4 C 0.75285(11) 0.75706(11) 0.4966(3)
C32_4 C 0.78701(13) 0.77421(13) 0.6006(4)
H17_4 H 0.7949 0.8019 0.6481
C33_4 C 0.80946(13) 0.75013(12) 0.6340(4)
H18_4 H 0.8326 0.7624 0.7045
C34_4 C 0.76665(13) 0.69377(12) 0.4722(4)
H19_4 H 0.7592 0.6657 0.4272
C35_4 C 0.74268(13) 0.71571(12) 0.4330(4)
H20_4 H 0.7195 0.7025 0.3630
H21_2 H 0.8270 0.9380 0.0088
N5_2 N 0.66775(8) 0.86819(8) 0.1469(3)
N6_2 N 0.72473(8) 0.83226(8) 0.2607(3)
N7_4 N 0.80022(9) 0.71045(10) 0.5717(3)
N9_4 N 0.71045(10) 0.91024(13) 0.4283(3)
H16_3 H 0.2027 0.0009 0.2513
C32_5 C 0.22579(13) 0.01279(18) 0.6006(4)
C33_5 C 0.24987(12) 0.05932(18) 0.6340(4)
H18_5 H 0.2376 0.0701 0.7045
C34_5 C 0.30623(12) 0.07287(18) 0.4722(4)
H19_5 H 0.3343 0.0934 0.4272
C35_5 C 0.28429(12) 0.02696(18) 0.4330(4)
H20_5 H 0.2975 0.0169 0.3630
N7_5 N 0.28955(10) 0.08976(13) 0.5717(3)
C1_5 C 0.22216(11) 0.91407(16) 0.5422(3)
C2_5 C 0.25072(12) 0.92613(18) 0.6700(4)
H1_5 H 0.2681 0.9558 0.7093
C3_3 C 0.24786(12) 0.88707(18) 0.7222(4)
H2_3 H 0.2627 0.8844 0.8042
C4_3 C 0.21712(10) 0.84971(15) 0.6255(3)
C5_3 C 0.20747(10) 0.80343(15) 0.6361(3)
C6_3 C 0.18246(10) 0.76836(14) 0.5347(3)
C7_3 C 0.16858(12) 0.71981(17) 0.5513(4)
H3_3 H 0.1756 0.7065 0.6291
C8_3 C 0.14380(12) 0.69747(17) 0.4346(4)
H4_3 H 0.1307 0.6657 0.4153
C9_3 C 0.14105(10) 0.73130(15) 0.3439(3)
C10_5 C 0.11594(11) 0.72127(16) 0.2137(3)
C11_5 C 0.09040(11) 0.67088(16) 0.1700(3)
C12_5 C 0.10755(13) 0.65387(18) 0.0660(4)
H5_5 H 0.1353 0.6737 0.0185
C13_5 C 0.08347(12) 0.60734(18) 0.0326(4)
C14_5 C 0.02711(12) 0.59379(18) 0.1944(4)
C15_5 C 0.04905(12) 0.63970(18) 0.2336(4)
H8_5 H 0.0359 0.6497 0.3036
C16_3 C 0.22589(12) 0.79060(17) 0.7641(4)
C17_3 C 0.25945(15) 0.77797(21) 0.7488(5)
H9_3 H 0.2714 0.7777 0.6578
C18_3 C 0.2752(2) 0.76572(26) 0.8693(7)
H10_3 H 0.2981 0.7576 0.8571
C20_3 C 0.21039(13) 0.79047(19) 0.9022(4)
H12_3 H 0.1883 0.7995 0.9179
N1_3 N 0.20153(8) 0.86711(11) 0.5197(3)
N2_3 N 0.16560(8) 0.77420(11) 0.4059(3)
C21_5 C 0.11118(11) 0.75259(16) 0.1244(3)
C24_3 C 0.11622(10) 0.81695(15) 0.0411(3)
C25_3 C 0.12587(10) 0.86323(15) 0.0305(3)
C26_3 C 0.15088(10) 0.89830(14) 0.1319(3)
C27_3 C 0.16476(12) 0.94685(17) 0.1153(4)
H15_3 H 0.1578 0.9601 0.0375
C28_3 C 0.18954(12) 0.96919(17) 0.2320(4)
C29_3 C 0.19229(10) 0.93536(15) 0.3227(3)
C30_5 C 0.21740(11) 0.94539(16) 0.4529(3)
C31_5 C 0.24294(11) 0.99578(16) 0.4966(3)
H17_5 H 0.1981 0.9929 0.6481
H21_3 H 0.0620 0.8889 0.0088
N5_3 N 0.13181(8) 0.79955(11) 0.1469(3)
N6_3 N 0.16774(8) 0.89246(11) 0.2607(3)
N9_5 N 0.08976(13) 0.80022(16) 0.4283(3)
C1_6 C 0.08593(16) 0.30808(11) 0.5422(3)
C2_6 C 0.07387(18) 0.32458(13) 0.6700(4)
H1_6 H 0.0442 0.3122 0.7093
C3_4 C 0.11293(18) 0.36078(13) 0.7222(4)
H2_4 H 0.1156 0.3782 0.8042
C4_4 C 0.15029(15) 0.36740(11) 0.6255(3)
C5_4 C 0.19657(15) 0.40403(11) 0.6361(3)
C6_4 C 0.23164(14) 0.41409(10) 0.5347(3)
C7_4 C 0.28019(17) 0.44876(12) 0.5513(4)
H3_4 H 0.2935 0.4690 0.6291
C8_4 C 0.30253(17) 0.44632(12) 0.4346(4)
H4_4 H 0.3343 0.4649 0.4153
C9_4 C 0.26870(15) 0.40974(11) 0.3439(3)
C10_6 C 0.27873(16) 0.39466(11) 0.2137(3)
C11_6 C 0.32912(16) 0.41951(11) 0.1700(3)
C12_6 C 0.34613(18) 0.45367(13) 0.0660(4)
H5_6 H 0.3263 0.4615 0.0185
C13_6 C 0.39266(18) 0.47612(13) 0.0326(4)
C14_6 C 0.40621(18) 0.43331(13) 0.1944(4)
H7_4 H 0.4268 0.4258 0.2394
C15_6 C 0.36030(18) 0.40934(13) 0.2336(4)
H8_6 H 0.3503 0.3861 0.3036
C16_4 C 0.20940(17) 0.43528(12) 0.7641(4)
C17_4 C 0.22203(21) 0.48147(14) 0.7488(5)
H9_4 H 0.2223 0.4936 0.6578
C18_4 C 0.23428(26) 0.50944(17) 0.8693(7)
H10_4 H 0.2424 0.5404 0.8571
C20_4 C 0.20953(19) 0.41991(14) 0.9022(4)
H12_4 H 0.2005 0.3887 0.9179
N1_4 N 0.13289(11) 0.33441(8) 0.5197(3)
N2_4 N 0.22580(11) 0.39139(8) 0.4059(3)
C21_6 C 0.24741(16) 0.35858(11) 0.1244(3)
C24_4 C 0.18305(15) 0.29926(11) 0.0411(3)
C25_4 C 0.13677(15) 0.26263(11) 0.0305(3)
C26_4 C 0.10170(14) 0.25257(10) 0.1319(3)
C27_4 C 0.05315(17) 0.21790(12) 0.1153(4)
H15_4 H 0.0399 0.1976 0.0375
C28_4 C 0.03081(17) 0.22034(12) 0.2320(4)
C29_4 C 0.06464(15) 0.25692(11) 0.3227(3)
C30_6 C 0.05461(16) 0.27200(11) 0.4529(3)
C31_6 C 0.00422(16) 0.24715(11) 0.4966(3)
H17_6 H 0.0071 0.2051 0.6481
H21_4 H 0.1111 0.1730 0.0088
N5_4 N 0.20045(11) 0.33225(8) 0.1469(3)
N6_4 N 0.10754(11) 0.27527(8) 0.2607(3)
N9_6 N 0.19978(16) 0.28955(10) 0.4283(3)
H6_4 H 0.4035 0.4992 0.9621
C22_4 C 0.25947(18) 0.34208(13) 0.9966(4)
H13_4 H 0.2892 0.3544 0.9573
C23_2 C 0.22041(18) 0.30588(13) 0.9444(4)
H14_2 H 0.2178 0.2884 0.8624
C36_2 C 0.12394(17) 0.23138(12) 0.9025(4)
C37_2 C 0.11131(21) 0.18519(14) 0.9178(5)
C38_2 C 0.09906(26) 0.15722(17) 0.7973(7)
H22_2 H 0.0910 0.1262 0.8095
C39_2 C 0.11051(25) 0.21664(19) 0.6500(5)
H23_2 H 0.1102 0.2279 0.5582
C40_2 C 0.12381(19) 0.24675(14) 0.7644(4)
H24_2 H 0.1329 0.2779 0.7487
N8_2 N 0.09807(25) 0.17198(17) 0.6640(5)
H16_4 H 0.9991 0.2017 0.2513
C32_6 C 0.98721(18) 0.21299(13) 0.6006(4)
C33_6 C 0.94068(18) 0.19054(13) 0.6340(4)
H18_6 H 0.9299 0.1674 0.7045
C34_6 C 0.92713(18) 0.23335(13) 0.4722(4)
H19_6 H 0.9066 0.2408 0.4272
C35_6 C 0.97304(18) 0.25732(13) 0.4330(4)
H20_6 H 0.9831 0.2805 0.3630
N7_6 N 0.91024(13) 0.19978(9) 0.5717(3)
C1_7 C 0.35858(11) 0.11118(11) 0.8756(3)
C4_5 C 0.29926(11) 0.11622(10) 0.9589(3)
C5_5 C 0.26263(11) 0.12587(10) 0.9695(3)
C6_5 C 0.25257(10) 0.15088(10) 0.8681(3)
C7_5 C 0.21790(12) 0.16476(12) 0.8847(4)
H3_5 H 0.1976 0.1578 0.9625
C8_5 C 0.22034(12) 0.18954(12) 0.7680(4)
H4_5 H 0.2017 0.2027 0.7487
C9_5 C 0.25692(11) 0.19229(10) 0.6773(3)
C10_7 C 0.27200(11) 0.21740(11) 0.5471(3)
C11_7 C 0.24715(11) 0.24294(11) 0.5034(3)
C12_7 C 0.21299(13) 0.22579(13) 0.3994(4)
H5_7 H 0.2051 0.1981 0.3519
C13_7 C 0.19054(13) 0.24987(12) 0.3660(4)
H6_5 H 0.1674 0.2376 0.2955
C14_7 C 0.23335(13) 0.30623(12) 0.5278(4)
H7_5 H 0.2408 0.3343 0.5728
C15_7 C 0.25732(13) 0.28429(12) 0.5670(4)
H8_7 H 0.2805 0.2975 0.6370
H9_5 H 0.1730 0.0620 0.9912
N1_5 N 0.33225(8) 0.13181(8) 0.8531(3)
N2_5 N 0.27527(8) 0.16774(8) 0.7393(3)
C21_7 C 0.30808(11) 0.22216(11) 0.4578(3)
C22_5 C 0.32458(13) 0.25072(12) 0.3300(4)
H13_5 H 0.3122 0.2681 0.2907
C23_3 C 0.36078(13) 0.24786(12) 0.2778(4)
H14_3 H 0.3782 0.2627 0.1958
C24_5 C 0.36740(11) 0.21712(10) 0.3745(3)
C25_5 C 0.40403(11) 0.20747(10) 0.3639(3)
C26_5 C 0.41409(10) 0.18246(10) 0.4653(3)
C27_5 C 0.44876(12) 0.16858(12) 0.4487(4)
H15_5 H 0.4690 0.1756 0.3709
C28_5 C 0.44632(12) 0.14380(12) 0.5654(4)
H16_5 H 0.4649 0.1307 0.5847
C29_5 C 0.40974(11) 0.14105(10) 0.6561(3)
C30_7 C 0.39466(11) 0.11594(11) 0.7863(3)
C31_7 C 0.41951(11) 0.09040(11) 0.8300(3)
C32_7 C 0.45367(13) 0.10755(13) 0.9340(4)
H17_7 H 0.4615 0.1353 0.9815
C33_7 C 0.47612(13) 0.08347(12) 0.9674(4)
C34_7 C 0.43331(13) 0.02711(12) 0.8056(4)
C35_7 C 0.40934(13) 0.04905(12) 0.7664(4)
H20_7 H 0.3861 0.0359 0.6964
C36_3 C 0.43528(12) 0.22589(12) 0.2359(4)
C37_3 C 0.48147(14) 0.25945(15) 0.2512(5)
H21_5 H 0.4936 0.2714 0.3422
C38_3 C 0.50944(17) 0.2752(2) 0.1307(7)
H22_3 H 0.5404 0.2981 0.1429
C40_3 C 0.41991(14) 0.21039(13) 0.0978(4)
H24_3 H 0.3887 0.1883 0.0821
N5_5 N 0.33441(8) 0.20153(8) 0.4803(3)
N6_5 N 0.39139(8) 0.16560(8) 0.5941(3)
C1_8 C 0.88882(11) 0.24741(16) 0.8756(3)
C4_6 C 0.88378(10) 0.18305(15) 0.9589(3)
C5_6 C 0.87413(10) 0.13677(15) 0.9695(3)
C6_6 C 0.84912(10) 0.10170(14) 0.8681(3)
C7_6 C 0.83524(12) 0.05315(17) 0.8847(4)
H3_6 H 0.8422 0.0399 0.9625
C8_6 C 0.81046(12) 0.03081(17) 0.7680(4)
C9_6 C 0.80771(10) 0.06464(15) 0.6773(3)
C10_8 C 0.78260(11) 0.05461(16) 0.5471(3)
C11_8 C 0.75706(11) 0.00422(16) 0.5034(3)
H5_8 H 0.8019 0.0071 0.3519
H9_6 H 0.9380 0.1111 0.9912
N1_6 N 0.86819(8) 0.20045(11) 0.8531(3)
N2_6 N 0.83226(8) 0.10754(11) 0.7393(3)
C21_8 C 0.77784(11) 0.08593(16) 0.4578(3)
C22_6 C 0.74928(12) 0.07387(18) 0.3300(4)
H13_6 H 0.7319 0.0442 0.2907
C23_4 C 0.75214(12) 0.11293(18) 0.2778(4)
H14_4 H 0.7373 0.1156 0.1958
C24_6 C 0.78288(10) 0.15029(15) 0.3745(3)
C25_6 C 0.79253(10) 0.19657(15) 0.3639(3)
C26_6 C 0.81754(10) 0.23164(14) 0.4653(3)
C27_6 C 0.83142(12) 0.28019(17) 0.4487(4)
H15_6 H 0.8244 0.2935 0.3709
C28_6 C 0.85620(12) 0.30253(17) 0.5654(4)
H16_6 H 0.8693 0.3343 0.5847
C29_6 C 0.85895(10) 0.26870(15) 0.6561(3)
C30_8 C 0.88406(11) 0.27873(16) 0.7863(3)
C31_8 C 0.90960(11) 0.32912(16) 0.8300(3)
C32_8 C 0.89245(13) 0.34613(18) 0.9340(4)
H17_8 H 0.8647 0.3263 0.9815
C33_8 C 0.91653(12) 0.39266(18) 0.9674(4)
C34_8 C 0.97289(12) 0.40621(18) 0.8056(4)
C35_8 C 0.95095(12) 0.36030(18) 0.7664(4)
H20_8 H 0.9641 0.3503 0.6964
C36_4 C 0.77411(12) 0.20940(17) 0.2359(4)
C37_4 C 0.74055(15) 0.22203(21) 0.2512(5)
H21_6 H 0.7286 0.2223 0.3422
C38_4 C 0.7248(2) 0.23428(26) 0.1307(7)
H22_4 H 0.7019 0.2424 0.1429
C40_4 C 0.78961(13) 0.20953(19) 0.0978(4)
H24_4 H 0.8117 0.2005 0.0821
N5_6 N 0.79847(8) 0.13289(11) 0.4803(3)
N6_6 N 0.83440(8) 0.22580(11) 0.5941(3)
H4_6 H 0.7973 0.9991 0.7487
C12_8 C 0.77421(13) 0.98721(18) 0.3994(4)
C13_8 C 0.75013(12) 0.94068(18) 0.3660(4)
H6_6 H 0.7624 0.9299 0.2955
C14_8 C 0.69377(12) 0.92713(18) 0.5278(4)
H7_6 H 0.6657 0.9066 0.5728
C15_8 C 0.71571(12) 0.97304(18) 0.5670(4)
H8_8 H 0.7025 0.9831 0.6370
H4_7 H 0.0009 0.7983 0.7487
C12_9 C 0.01279(18) 0.78701(13) 0.3994(4)
C13_9 C 0.05932(18) 0.80946(13) 0.3660(4)
H6_7 H 0.0701 0.8326 0.2955
C14_9 C 0.07287(18) 0.76665(13) 0.5278(4)
H7_7 H 0.0934 0.7592 0.5728
C15_9 C 0.02696(18) 0.74268(13) 0.5670(4)
H8_9 H 0.0169 0.7195 0.6370
C2_7 C 0.74053(18) 0.65792(13) 0.0034(4)
H1_7 H 0.7108 0.6456 0.0427
C3_5 C 0.77959(18) 0.69412(13) 0.0556(4)
H2_5 H 0.7822 0.7116 0.1376
C16_5 C 0.87606(17) 0.76862(12) 0.0975(4)
C17_5 C 0.88869(21) 0.81481(14) 0.0822(5)
C18_5 C 0.90094(26) 0.84278(17) 0.2027(7)
H10_5 H 0.9090 0.8738 0.1905
C19_2 C 0.88949(25) 0.78336(19) 0.3500(5)
H11_2 H 0.8898 0.7721 0.4418
C20_5 C 0.87619(19) 0.75325(14) 0.2356(4)
H12_5 H 0.8671 0.7221 0.2513
N4_2 N 0.90193(25) 0.82802(17) 0.3360(5)
H18_7 H 0.5965 0.5008 0.0379
C1_9 C 0.75259(16) 0.64142(11) 0.8756(3)
C4_7 C 0.81695(15) 0.70074(11) 0.9589(3)
C5_7 C 0.86323(15) 0.73737(11) 0.9695(3)
C6_7 C 0.89830(14) 0.74743(10) 0.8681(3)
C7_7 C 0.94685(17) 0.78210(12) 0.8847(4)
H3_7 H 0.9601 0.8024 0.9625
C8_7 C 0.96919(17) 0.77966(12) 0.7680(4)
C9_7 C 0.93536(15) 0.74308(11) 0.6773(3)
C10_9 C 0.94539(16) 0.72800(11) 0.5471(3)
C11_9 C 0.99578(16) 0.75285(11) 0.5034(3)
H5_9 H 0.9929 0.7949 0.3519
H9_7 H 0.8889 0.8270 0.9912
N1_7 N 0.79955(11) 0.66775(8) 0.8531(3)
N2_7 N 0.89246(11) 0.72473(8) 0.7393(3)
C21_9 C 0.91407(16) 0.69192(11) 0.4578(3)
C22_7 C 0.92613(18) 0.67542(13) 0.3300(4)
H13_7 H 0.9558 0.6878 0.2907
C23_5 C 0.88707(18) 0.63922(13) 0.2778(4)
H14_5 H 0.8844 0.6218 0.1958
C24_7 C 0.84971(15) 0.63260(11) 0.3745(3)
C25_7 C 0.80343(15) 0.59597(11) 0.3639(3)
C26_7 C 0.76836(14) 0.58591(10) 0.4653(3)
C27_7 C 0.71981(17) 0.55124(12) 0.4487(4)
H15_7 H 0.7065 0.5310 0.3709
C28_7 C 0.69747(17) 0.55368(12) 0.5654(4)
H16_7 H 0.6657 0.5351 0.5847
C29_7 C 0.73130(15) 0.59026(11) 0.6561(3)
C30_9 C 0.72127(16) 0.60534(11) 0.7863(3)
C31_9 C 0.67088(16) 0.58049(11) 0.8300(3)
C32_9 C 0.65387(18) 0.54633(13) 0.9340(4)
H17_9 H 0.6737 0.5385 0.9815
C33_9 C 0.60734(18) 0.52388(13) 0.9674(4)
C34_9 C 0.59379(18) 0.56669(13) 0.8056(4)
H19_7 H 0.5732 0.5742 0.7606
C35_9 C 0.63970(18) 0.59066(13) 0.7664(4)
H20_9 H 0.6497 0.6139 0.6964
C36_5 C 0.79060(17) 0.56472(12) 0.2359(4)
C37_5 C 0.77797(21) 0.51853(14) 0.2512(5)
H21_7 H 0.7777 0.5064 0.3422
C38_5 C 0.76572(26) 0.49056(17) 0.1307(7)
H22_5 H 0.7576 0.4596 0.1429
C40_5 C 0.79047(19) 0.58009(14) 0.0978(4)
H24_5 H 0.7995 0.6113 0.0821
N5_7 N 0.86711(11) 0.66559(8) 0.4803(3)
N6_7 N 0.77420(11) 0.60861(8) 0.5941(3)
Zn1_7 Zn -0.0000 0.5000 1.0000
C23_6 C 0.02745(13) 0.58119(12) 0.6111(4)
H14_6 H 0.0449 0.5960 0.5291
C24_8 C 0.03407(11) 0.55045(10) 0.7078(3)
C25_8 C 0.07070(11) 0.54080(10) 0.6972(3)
C26_8 C 0.08076(10) 0.51579(10) 0.7986(3)
C27_8 C 0.11543(12) 0.50191(12) 0.7820(4)
H15_8 H 0.1357 0.5089 0.7042
C28_8 C 0.11299(12) 0.47713(12) 0.8987(4)
H16_8 H 0.1316 0.4640 0.9180
C29_8 C 0.07641(11) 0.47438(10) 0.9894(3)
C36_6 C 0.10195(12) 0.55922(12) 0.5692(4)
C37_6 C 0.14814(14) 0.59278(15) 0.5845(5)
H21_8 H 0.1603 0.6047 0.6755
C38_6 C 0.17611(17) 0.6085(2) 0.4640(7)
H22_6 H 0.2071 0.6314 0.4762
C39_3 C 0.11669(19) 0.56053(17) 0.3167(5)
H23_3 H 0.1054 0.5489 0.2249
C40_6 C 0.08658(14) 0.54372(13) 0.4311(4)
H24_6 H 0.0554 0.5216 0.4154
N5_8 N 0.00108(8) 0.53486(8) 0.8136(3)
N6_8 N 0.05806(8) 0.49893(8) 0.9274(3)
N8_3 N 0.16135(17) 0.59275(18) 0.3307(5)
H6_8 H 0.0958 0.5965 0.9621
C22_8 C 0.08262(12) 0.74053(18) 0.9966(4)
H13_8 H 0.0653 0.7108 0.9573
C23_7 C 0.08548(12) 0.77959(18) 0.9444(4)
H14_7 H 0.0707 0.7822 0.8624
C36_7 C 0.10745(12) 0.87606(17) 0.9025(4)
C37_7 C 0.07389(15) 0.88869(21) 0.9178(5)
C38_7 C 0.0582(2) 0.90094(26) 0.7973(7)
H22_7 H 0.0353 0.9090 0.8095
C39_4 C 0.10614(17) 0.88949(25) 0.6500(5)
H23_4 H 0.1178 0.8898 0.5582
C40_7 C 0.12295(13) 0.87619(19) 0.7644(4)
H24_7 H 0.1451 0.8671 0.7487
N8_4 N 0.07392(18) 0.90193(25) 0.6640(5)
H19_8 H 0.0009 0.4268 0.7606
C3_6 C 0.97255(13) 0.41881(12) 0.3889(4)
H2_6 H 0.9551 0.4040 0.4709
C4_8 C 0.96593(11) 0.44955(10) 0.2922(3)
C5_8 C 0.92930(11) 0.45920(10) 0.3028(3)
C6_8 C 0.91924(10) 0.48421(10) 0.2014(3)
C7_8 C 0.88457(12) 0.49809(12) 0.2180(4)
H3_8 H 0.8643 0.4911 0.2958
C8_8 C 0.88701(12) 0.52287(12) 0.1013(4)
H4_8 H 0.8684 0.5360 0.0820
C9_8 C 0.92359(11) 0.52562(10) 0.0106(3)
C16_6 C 0.89805(12) 0.44078(12) 0.4308(4)
C17_6 C 0.85186(14) 0.40722(15) 0.4155(5)
H9_8 H 0.8397 0.3953 0.3245
C18_6 C 0.82389(17) 0.3915(2) 0.5360(7)
H10_6 H 0.7929 0.3686 0.5238
C19_3 C 0.88331(19) 0.43947(17) 0.6833(5)
H11_3 H 0.8946 0.4511 0.7751
C20_6 C 0.91342(14) 0.45628(13) 0.5689(4)
H12_6 H 0.9446 0.4784 0.5846
N1_8 N 0.99892(8) 0.46514(8) 0.1864(3)
N2_8 N 0.94194(8) 0.50107(8) 0.0726(3)
N4_3 N 0.83865(17) 0.40725(18) 0.6693(5)
Zn1_8 Zn 1.0000 0.5000 0.0000
H7_8 H 0.9991 0.5732 0.2394
C2_8 C 0.91738(12) 0.25947(18) 0.0034(4)
H1_8 H 0.9347 0.2892 0.0427
C3_7 C 0.91452(12) 0.22041(18) 0.0556(4)
H2_7 H 0.9293 0.2178 0.1376
C16_7 C 0.89255(12) 0.12394(17) 0.0975(4)
C17_7 C 0.92611(15) 0.11131(21) 0.0822(5)
C18_7 C 0.9418(2) 0.09906(26) 0.2027(7)
H10_7 H 0.9647 0.0910 0.1905
C19_4 C 0.89386(17) 0.11051(25) 0.3500(5)
H11_4 H 0.8822 0.1102 0.4418
C20_7 C 0.87705(13) 0.12381(19) 0.2356(4)
H12_7 H 0.8549 0.1329 0.2513
N4_4 N 0.92608(18) 0.09807(25) 0.3360(5)
H18_8 H 0.9042 0.4035 0.0379
C3_8 C 0.44626(18) 0.02745(13) 0.3889(4)
H2_8 H 0.4489 0.0449 0.4709
C4_9 C 0.48362(15) 0.03407(11) 0.2922(3)
C5_9 C 0.52990(15) 0.07070(11) 0.3028(3)
C6_9 C 0.56497(14) 0.08076(10) 0.2014(3)
C7_9 C 0.61352(17) 0.11543(12) 0.2180(4)
H3_9 H 0.6268 0.1357 0.2958
C8_9 C 0.63586(17) 0.11299(12) 0.1013(4)
H4_9 H 0.6676 0.1316 0.0820
C9_9 C 0.60203(15) 0.07641(11) 0.0106(3)
C16_8 C 0.54273(17) 0.10195(12) 0.4308(4)
C17_8 C 0.55536(21) 0.14814(14) 0.4155(5)
H9_9 H 0.5556 0.1603 0.3245
C18_8 C 0.56761(26) 0.17611(17) 0.5360(7)
H10_8 H 0.5757 0.2071 0.5238
C19_5 C 0.55616(25) 0.11669(19) 0.6833(5)
H11_5 H 0.5565 0.1054 0.7751
C20_8 C 0.54286(19) 0.08658(14) 0.5689(4)
H12_8 H 0.5338 0.0554 0.5846
N1_9 N 0.46622(11) 0.00108(8) 0.1864(3)
N2_9 N 0.55913(11) 0.05806(8) 0.0726(3)
N4_5 N 0.56860(25) 0.16135(17) 0.6693(5)
Zn1_9 Zn 0.5000 0.0000 0.0000
H7_9 H 0.5742 0.0009 0.2394
C2_9 C 0.34208(13) 0.08262(12) 0.0034(4)
H1_9 H 0.3544 0.0653 0.0427
C3_9 C 0.30588(13) 0.08548(12) 0.0556(4)
H2_9 H 0.2884 0.0707 0.1376
C16_9 C 0.23138(12) 0.10745(12) 0.0975(4)
C17_9 C 0.18519(14) 0.07389(15) 0.0822(5)
C18_9 C 0.15722(17) 0.0582(2) 0.2027(7)
H10_9 H 0.1262 0.0353 0.1905
C19_6 C 0.21664(19) 0.10614(17) 0.3500(5)
H11_6 H 0.2279 0.1178 0.4418
C20_9 C 0.24675(14) 0.12295(13) 0.2356(4)
H12_9 H 0.2779 0.1451 0.2513
N4_6 N 0.17198(17) 0.07392(18) 0.3360(5)
H18_9 H 0.4992 0.0958 0.0379
Zn1_10 Zn 0.5000 1.0000 1.0000
C23_8 C 0.55374(18) 0.97255(13) 0.6111(4)
H14_8 H 0.5511 0.9551 0.5291
C24_9 C 0.51638(15) 0.96593(11) 0.7078(3)
C25_9 C 0.47010(15) 0.92930(11) 0.6972(3)
C26_9 C 0.43503(14) 0.91924(10) 0.7986(3)
C27_9 C 0.38648(17) 0.88457(12) 0.7820(4)
H15_9 H 0.3732 0.8643 0.7042
C28_9 C 0.36414(17) 0.88701(12) 0.8987(4)
H16_9 H 0.3324 0.8684 0.9180
C29_9 C 0.39797(15) 0.92359(11) 0.9894(3)
C36_8 C 0.45727(17) 0.89805(12) 0.5692(4)
C37_8 C 0.44464(21) 0.85186(14) 0.5845(5)
H21_9 H 0.4444 0.8397 0.6755
C38_8 C 0.43239(26) 0.82389(17) 0.4640(7)
H22_8 H 0.4243 0.7929 0.4762
C39_5 C 0.44384(25) 0.88331(19) 0.3167(5)
H23_5 H 0.4435 0.8946 0.2249
C40_8 C 0.45714(19) 0.91342(14) 0.4311(4)
H24_8 H 0.4662 0.9446 0.4154
N5_9 N 0.53378(11) 0.99892(8) 0.8136(3)
N6_9 N 0.44087(11) 0.94194(8) 0.9274(3)
N8_5 N 0.43140(25) 0.83865(17) 0.3307(5)
H6_9 H 0.5008 0.9042 0.9621
C22_9 C 0.65792(13) 0.91738(12) 0.9966(4)
H13_9 H 0.6456 0.9347 0.9573
C23_9 C 0.69412(13) 0.91452(12) 0.9444(4)
H14_9 H 0.7116 0.9293 0.8624
C36_9 C 0.76862(12) 0.89255(12) 0.9025(4)
C37_9 C 0.81481(14) 0.92611(15) 0.9178(5)
C38_9 C 0.84278(17) 0.9418(2) 0.7973(7)
H22_9 H 0.8738 0.9647 0.8095
C39_6 C 0.78336(19) 0.89386(17) 0.6500(5)
H23_6 H 0.7721 0.8822 0.5582
C40_9 C 0.75325(14) 0.87705(13) 0.7644(4)
H24_9 H 0.7221 0.8549 0.7487
N8_6 N 0.82802(17) 0.92608(18) 0.6640(5)
H19_9 H 0.4258 0.9991 0.7606
C19_7 C 0.54998(19) 0.77280(17) 0.0166(5)
H11_7 H 0.5613 0.7844 0.1084
N4_7 N 0.50532(17) 0.74058(18) 0.0026(5)
C19_8 C 0.22720(17) 0.77717(25) 0.0166(5)
H11_8 H 0.2156 0.7768 0.1084
N4_8 N 0.25942(18) 0.76473(25) 0.0026(5)
C19_9 C 0.22283(25) 0.45002(19) 0.0166(5)
H11_9 H 0.2232 0.4387 0.1084
N4_9 N 0.23527(25) 0.49468(17) 0.0026(5)
C39_7 C 0.45002(19) 0.22720(17) 0.9834(5)
H23_7 H 0.4387 0.2156 0.8916
N8_7 N 0.49468(17) 0.25942(18) 0.9974(5)
C39_8 C 0.77280(17) 0.22283(25) 0.9834(5)
H23_8 H 0.7844 0.2232 0.8916
N8_8 N 0.74058(18) 0.23527(25) 0.9974(5)
C39_9 C 0.77717(25) 0.54998(19) 0.9834(5)
H23_9 H 0.7768 0.5613 0.8916
N8_9 N 0.76473(25) 0.50532(17) 0.9974(5)
loop_
_geom_bond_atom_site_label_1
_geom_bond_atom_site_label_2
_geom_bond_site_symmetry_1
_geom_bond_site_symmetry_2
C1 C2 1_555 1_555
C2 H1 1_555 1_555
C30 C1 1_555 1_555
C31 C30 1_555 1_555
C32 C31 1_555 1_555
H17 C32 1_555 1_555
C33 C32 1_555 1_555
H18 C33 1_555 1_555
C34 H19 1_555 1_555
C35 C31 1_555 1_555
H20 C35 1_555 1_555
N7 C33 1_555 1_555
N9 Zn1 1_555 1_555
Zn2 N7 1_555 1_555
C34 C35 1_555 1_555
C34 N7 1_555 1_555
C11 C10 1_555 1_555
C12 C11 1_555 1_555
H5 C12 1_555 1_555
C13 C12 1_555 1_555
H6 C13 1_555 1_555
C14 H7 1_555 1_555
C15 C11 1_555 1_555
H8 C15 1_555 1_555
N3 C13 1_555 1_555
C21 C10 1_555 1_555
C22 C21 1_555 1_555
H13 C22 1_555 1_555
N10 Zn1_2 1_555 1_555
Zn3 N3 1_555 1_555
C14 C15 1_555 1_555
C14 N3 1_555 1_555
C1_2 C2_2 1_555 1_555
C2_2 H1_2 1_555 1_555
C3 C2_2 1_555 1_555
H2 C3 1_555 1_555
C4 C3 1_555 1_555
C5 C4 1_555 1_555
C6 C5 1_555 1_555
C7 C6 1_555 1_555
H3 C7 1_555 1_555
C8 C7 1_555 1_555
H4 C8 1_555 1_555
C9 C8 1_555 1_555
C16 C5 1_555 1_555
C17 C16 1_555 1_555
H9 C17 1_555 1_555
C18 C17 1_555 1_555
H10 C18 1_555 1_555
C19 H11 1_555 1_555
C20 C16 1_555 1_555
H12 C20 1_555 1_555
N1 C1_2 1_555 1_555
N2 C6 1_555 1_555
N4 C18 1_555 1_555
Zn1_3 N1 1_555 1_555
C30_2 C1_2 1_555 1_555
C31_2 C30_2 1_555 1_555
C32_2 C31_2 1_555 1_555
H17_2 C32_2 1_555 1_555
C33_2 C32_2 1_555 1_555
H18_2 C33_2 1_555 1_555
C34_2 H19_2 1_555 1_555
C35_2 C31_2 1_555 1_555
H20_2 C35_2 1_555 1_555
N7_2 C33_2 1_555 1_555
N9_2 Zn1_3 1_555 1_555
Zn2_2 N7_2 1_555 1_555
C4 N1 1_555 1_555
C9 N2 1_555 1_555
C19 C20 1_555 1_555
C19 N4 1_555 1_555
N2 Zn1_3 1_555 1_555
C34_2 C35_2 1_555 1_555
C34_2 N7_2 1_555 1_555
C11_2 C10_2 1_555 1_555
C12_2 C11_2 1_555 1_555
H5_2 C12_2 1_555 1_555
C13_2 C12_2 1_555 1_555
H6_2 C13_2 1_555 1_555
C14_2 H7_2 1_555 1_555
C15_2 C11_2 1_555 1_555
H8_2 C15_2 1_555 1_555
N3_2 C13_2 1_555 1_555
C21_2 C10_2 1_555 1_555
C22_2 C21_2 1_555 1_555
H13_2 C22_2 1_555 1_555
C23 C22_2 1_555 1_555
H14 C23 1_555 1_555
C24 C23 1_555 1_555
C25 C24 1_555 1_555
C26 C25 1_555 1_555
C27 C26 1_555 1_555
H15 C27 1_555 1_555
C28 C27 1_555 1_555
H16 C28 1_555 1_555
C29 C28 1_555 1_555
C36 C25 1_555 1_555
C37 C36 1_555 1_555
H21 C37 1_555 1_555
C38 C37 1_555 1_555
H22 C38 1_555 1_555
C39 H23 1_555 1_555
C40 C36 1_555 1_555
H24 C40 1_555 1_555
N5 Zn1_4 1_555 1_555
N6 Zn1_4 1_555 1_555
N8 C38 1_555 1_555
N10_2 Zn1_4 1_555 1_555
Zn3_2 N3_2 1_555 1_555
C14_2 C15_2 1_555 1_555
C14_2 N3_2 1_555 1_555
C21_2 N5 1_555 1_555
C24 N5 1_555 1_555
C26 N6 1_555 1_555
C29 N6 1_555 1_555
C39 C40 1_555 1_555
C39 N8 1_555 1_555
C11_3 C10_3 1_555 1_555
C12_3 C11_3 1_555 1_555
H5_3 C12_3 1_555 1_555
C13_3 C12_3 1_555 1_555
H6_3 C13_3 1_555 1_555
C14_3 H7_3 1_555 1_555
C15_3 C11_3 1_555 1_555
H8_3 C15_3 1_555 1_555
N3_3 C13_3 1_555 1_555
C21_3 C10_3 1_555 1_555
C22_3 C21_3 1_555 1_555
H13_3 C22_3 1_555 1_555
N10_3 Zn1_5 1_555 1_555
Zn3_3 N3_3 1_555 1_555
C14_3 C15_3 1_555 1_555
C14_3 N3_3 1_555 1_555
C1_3 C2_3 1_555 1_555
C2_3 H1_3 1_555 1_555
C30_3 C1_3 1_555 1_555
C31_3 C30_3 1_555 1_555
C32_3 C31_3 1_555 1_555
H17_3 C32_3 1_555 1_555
C33_3 C32_3 1_555 1_555
H18_3 C33_3 1_555 1_555
C34_3 H19_3 1_555 1_555
C35_3 C31_3 1_555 1_555
H20_3 C35_3 1_555 1_555
N7_3 C33_3 1_555 1_555
N9_3 Zn1_6 1_555 1_555
Zn2_3 N7_3 1_555 1_555
C34_3 C35_3 1_555 1_555
C34_3 N7_3 1_555 1_555
C1_4 C2_4 1_555 1_555
C2_4 H1_4 1_555 1_555
C3_2 C2_4 1_555 1_555
H2_2 C3_2 1_555 1_555
C4_2 C3_2 1_555 1_555
C5_2 C4_2 1_555 1_555
C6_2 C5_2 1_555 1_555
C7_2 C6_2 1_555 1_555
H3_2 C7_2 1_555 1_555
C8_2 C7_2 1_555 1_555
H4_2 C8_2 1_555 1_555
C9_2 C8_2 1_555 1_555
C10_4 C9_2 1_555 1_555
C11_4 C10_4 1_555 1_555
C12_4 C11_4 1_555 1_555
H5_4 C12_4 1_555 1_555
C13_4 C12_4 1_555 1_555
C15_4 C11_4 1_555 1_555
H8_4 C15_4 1_555 1_555
C16_2 C5_2 1_555 1_555
C17_2 C16_2 1_555 1_555
H9_2 C17_2 1_555 1_555
C18_2 C17_2 1_555 1_555
H10_2 C18_2 1_555 1_555
C20_2 C16_2 1_555 1_555
H12_2 C20_2 1_555 1_555
N1_2 C1_4 1_555 1_555
N2_2 C6_2 1_555 1_555
N9_3 C13_4 1_555 1_555
Zn2_2 N1_2 1_555 1_555
C21_4 C10_4 1_555 1_555
C25_2 C24_2 1_555 1_555
C26_2 C25_2 1_555 1_555
C27_2 C26_2 1_555 1_555
H15_2 C27_2 1_555 1_555
C28_2 C27_2 1_555 1_555
H16_2 C28_2 1_555 1_555
C29_2 C28_2 1_555 1_555
C30_4 C1_4 1_555 1_555
C31_4 C30_4 1_555 1_555
C32_4 C31_4 1_555 1_555
H17_4 C32_4 1_555 1_555
C33_4 C32_4 1_555 1_555
H18_4 C33_4 1_555 1_555
C34_4 H19_4 1_555 1_555
C35_4 C31_4 1_555 1_555
H20_4 C35_4 1_555 1_555
N5_2 Zn2_2 1_555 1_555
N6_2 Zn2_2 1_555 1_555
N7_4 C33_4 1_555 1_555
N9_4 Zn2_2 1_555 1_555
Zn3 N7_4 1_555 1_555
C4_2 N1_2 1_555 1_555
C9_2 N2_2 1_555 1_555
C14_4 C15_4 1_555 1_555
C14_4 N9_3 1_555 1_555
N2_2 Zn2_2 1_555 1_555
C21_4 N5_2 1_555 1_555
C24_2 N5_2 1_555 1_555
C26_2 N6_2 1_555 1_555
C29_2 C30_4 1_555 1_555
C29_2 N6_2 1_555 1_555
C34_4 C35_4 1_555 1_555
C34_4 N7_4 1_555 1_555
C33_5 C32_5 1_555 1_555
H18_5 C33_5 1_555 1_555
C34_5 H19_5 1_555 1_555
H20_5 C35_5 1_555 1_555
N7_5 C33_5 1_555 1_555
Zn3_2 N7_5 1_555 1_555
C34_5 C35_5 1_555 1_555
C34_5 N7_5 1_555 1_555
C1_5 C2_5 1_555 1_555
C2_5 H1_5 1_555 1_555
C3_3 C2_5 1_555 1_555
H2_3 C3_3 1_555 1_555
C4_3 C3_3 1_555 1_555
C5_3 C4_3 1_555 1_555
C6_3 C5_3 1_555 1_555
C7_3 C6_3 1_555 1_555
H3_3 C7_3 1_555 1_555
C8_3 C7_3 1_555 1_555
H4_3 C8_3 1_555 1_555
C9_3 C8_3 1_555 1_555
C10_5 C9_3 1_555 1_555
C11_5 C10_5 1_555 1_555
C12_5 C11_5 1_555 1_555
H5_5 C12_5 1_555 1_555
C13_5 C12_5 1_555 1_555
C15_5 C11_5 1_555 1_555
H8_5 C15_5 1_555 1_555
C16_3 C5_3 1_555 1_555
C17_3 C16_3 1_555 1_555
H9_3 C17_3 1_555 1_555
C18_3 C17_3 1_555 1_555
H10_3 C18_3 1_555 1_555
C20_3 C16_3 1_555 1_555
H12_3 C20_3 1_555 1_555
N1_3 C1_5 1_555 1_555
N2_3 C6_3 1_555 1_555
N9 C13_5 1_555 1_555
Zn2_3 N1_3 1_555 1_555
C21_5 C10_5 1_555 1_555
C25_3 C24_3 1_555 1_555
C26_3 C25_3 1_555 1_555
C27_3 C26_3 1_555 1_555
H15_3 C27_3 1_555 1_555
C28_3 C27_3 1_555 1_555
C29_3 C28_3 1_555 1_555
C30_5 C1_5 1_555 1_555
C31_5 C30_5 1_555 1_555
N5_3 Zn2_3 1_555 1_555
N6_3 Zn2_3 1_555 1_555
N9_5 Zn2_3 1_555 1_555
C4_3 N1_3 1_555 1_555
C9_3 N2_3 1_555 1_555
C14_5 C15_5 1_555 1_555
C14_5 N9 1_555 1_555
N2_3 Zn2_3 1_555 1_555
C21_5 N5_3 1_555 1_555
C24_3 N5_3 1_555 1_555
C26_3 N6_3 1_555 1_555
C29_3 C30_5 1_555 1_555
C29_3 N6_3 1_555 1_555
C1_6 C2_6 1_555 1_555
C2_6 H1_6 1_555 1_555
C3_4 C2_6 1_555 1_555
H2_4 C3_4 1_555 1_555
C4_4 C3_4 1_555 1_555
C5_4 C4_4 1_555 1_555
C6_4 C5_4 1_555 1_555
C7_4 C6_4 1_555 1_555
H3_4 C7_4 1_555 1_555
C8_4 C7_4 1_555 1_555
H4_4 C8_4 1_555 1_555
C9_4 C8_4 1_555 1_555
C10_6 C9_4 1_555 1_555
C11_6 C10_6 1_555 1_555
C12_6 C11_6 1_555 1_555
H5_6 C12_6 1_555 1_555
C13_6 C12_6 1_555 1_555
C14_6 H7_4 1_555 1_555
C15_6 C11_6 1_555 1_555
H8_6 C15_6 1_555 1_555
C16_4 C5_4 1_555 1_555
C17_4 C16_4 1_555 1_555
H9_4 C17_4 1_555 1_555
C18_4 C17_4 1_555 1_555
H10_4 C18_4 1_555 1_555
C20_4 C16_4 1_555 1_555
H12_4 C20_4 1_555 1_555
N1_4 C1_6 1_555 1_555
N2_4 C6_4 1_555 1_555
N9_2 C13_6 1_555 1_555
Zn2 N1_4 1_555 1_555
C21_6 C10_6 1_555 1_555
C25_4 C24_4 1_555 1_555
C26_4 C25_4 1_555 1_555
C27_4 C26_4 1_555 1_555
H15_4 C27_4 1_555 1_555
C28_4 C27_4 1_555 1_555
C29_4 C28_4 1_555 1_555
C30_6 C1_6 1_555 1_555
C31_6 C30_6 1_555 1_555
N5_4 Zn2 1_555 1_555
N6_4 Zn2 1_555 1_555
N9_6 Zn2 1_555 1_555
C4_4 N1_4 1_555 1_555
C9_4 N2_4 1_555 1_555
C14_6 C15_6 1_555 1_555
C14_6 N9_2 1_555 1_555
N2_4 Zn2 1_555 1_555
C21_6 N5_4 1_555 1_555
C24_4 N5_4 1_555 1_555
C26_4 N6_4 1_555 1_555
C29_4 C30_6 1_555 1_555
C29_4 N6_4 1_555 1_555
H13_4 C22_4 1_555 1_555
C23_2 C22_4 1_555 1_555
H14_2 C23_2 1_555 1_555
C37_2 C36_2 1_555 1_555
C38_2 C37_2 1_555 1_555
H22_2 C38_2 1_555 1_555
C39_2 H23_2 1_555 1_555
C40_2 C36_2 1_555 1_555
H24_2 C40_2 1_555 1_555
N8_2 C38_2 1_555 1_555
C39_2 C40_2 1_555 1_555
C39_2 N8_2 1_555 1_555
C33_6 C32_6 1_555 1_555
H18_6 C33_6 1_555 1_555
C34_6 H19_6 1_555 1_555
H20_6 C35_6 1_555 1_555
N7_6 C33_6 1_555 1_555
Zn3_3 N7_6 1_555 1_555
C34_6 C35_6 1_555 1_555
C34_6 N7_6 1_555 1_555
C5_5 C4_5 1_555 1_555
C6_5 C5_5 1_555 1_555
C7_5 C6_5 1_555 1_555
H3_5 C7_5 1_555 1_555
C8_5 C7_5 1_555 1_555
H4_5 C8_5 1_555 1_555
C9_5 C8_5 1_555 1_555
C10_7 C9_5 1_555 1_555
C11_7 C10_7 1_555 1_555
C12_7 C11_7 1_555 1_555
H5_7 C12_7 1_555 1_555
C13_7 C12_7 1_555 1_555
H6_5 C13_7 1_555 1_555
C14_7 H7_5 1_555 1_555
C15_7 C11_7 1_555 1_555
H8_7 C15_7 1_555 1_555
N1_5 C1_7 1_555 1_555
N2_5 C6_5 1_555 1_555
N9_6 C13_7 1_555 1_555
Zn3_2 N1_5 1_555 1_555
C21_7 C10_7 1_555 1_555
C22_5 C21_7 1_555 1_555
H13_5 C22_5 1_555 1_555
C23_3 C22_5 1_555 1_555
H14_3 C23_3 1_555 1_555
C24_5 C23_3 1_555 1_555
C25_5 C24_5 1_555 1_555
C26_5 C25_5 1_555 1_555
C27_5 C26_5 1_555 1_555
H15_5 C27_5 1_555 1_555
C28_5 C27_5 1_555 1_555
H16_5 C28_5 1_555 1_555
C29_5 C28_5 1_555 1_555
C30_7 C1_7 1_555 1_555
C31_7 C30_7 1_555 1_555
C32_7 C31_7 1_555 1_555
H17_7 C32_7 1_555 1_555
C33_7 C32_7 1_555 1_555
C35_7 C31_7 1_555 1_555
H20_7 C35_7 1_555 1_555
C36_3 C25_5 1_555 1_555
C37_3 C36_3 1_555 1_555
H21_5 C37_3 1_555 1_555
C38_3 C37_3 1_555 1_555
H22_3 C38_3 1_555 1_555
C40_3 C36_3 1_555 1_555
H24_3 C40_3 1_555 1_555
N5_5 Zn3_2 1_555 1_555
N6_5 Zn3_2 1_555 1_555
N10_3 C33_7 1_555 1_555
C4_5 N1_5 1_555 1_555
C9_5 N2_5 1_555 1_555
C14_7 C15_7 1_555 1_555
C14_7 N9_6 1_555 1_555
N2_5 Zn3_2 1_555 1_555
C21_7 N5_5 1_555 1_555
C24_5 N5_5 1_555 1_555
C26_5 N6_5 1_555 1_555
C29_5 C30_7 1_555 1_555
C29_5 N6_5 1_555 1_555
C34_7 C35_7 1_555 1_555
C34_7 N10_3 1_555 1_555
C5_6 C4_6 1_555 1_555
C6_6 C5_6 1_555 1_555
C7_6 C6_6 1_555 1_555
H3_6 C7_6 1_555 1_555
C8_6 C7_6 1_555 1_555
C9_6 C8_6 1_555 1_555
C10_8 C9_6 1_555 1_555
C11_8 C10_8 1_555 1_555
N1_6 C1_8 1_555 1_555
N2_6 C6_6 1_555 1_555
Zn3_3 N1_6 1_555 1_555
C21_8 C10_8 1_555 1_555
C22_6 C21_8 1_555 1_555
H13_6 C22_6 1_555 1_555
C23_4 C22_6 1_555 1_555
H14_4 C23_4 1_555 1_555
C24_6 C23_4 1_555 1_555
C25_6 C24_6 1_555 1_555
C26_6 C25_6 1_555 1_555
C27_6 C26_6 1_555 1_555
H15_6 C27_6 1_555 1_555
C28_6 C27_6 1_555 1_555
H16_6 C28_6 1_555 1_555
C29_6 C28_6 1_555 1_555
C30_8 C1_8 1_555 1_555
C31_8 C30_8 1_555 1_555
C32_8 C31_8 1_555 1_555
H17_8 C32_8 1_555 1_555
C33_8 C32_8 1_555 1_555
C35_8 C31_8 1_555 1_555
H20_8 C35_8 1_555 1_555
C36_4 C25_6 1_555 1_555
C37_4 C36_4 1_555 1_555
H21_6 C37_4 1_555 1_555
C38_4 C37_4 1_555 1_555
H22_4 C38_4 1_555 1_555
C40_4 C36_4 1_555 1_555
H24_4 C40_4 1_555 1_555
N5_6 Zn3_3 1_555 1_555
N6_6 Zn3_3 1_555 1_555
N10 C33_8 1_555 1_555
C4_6 N1_6 1_555 1_555
C9_6 N2_6 1_555 1_555
N2_6 Zn3_3 1_555 1_555
C21_8 N5_6 1_555 1_555
C24_6 N5_6 1_555 1_555
C26_6 N6_6 1_555 1_555
C29_6 C30_8 1_555 1_555
C29_6 N6_6 1_555 1_555
C34_8 C35_8 1_555 1_555
C34_8 N10 1_555 1_555
C13_8 C12_8 1_555 1_555
H6_6 C13_8 1_555 1_555
C14_8 H7_6 1_555 1_555
H8_8 C15_8 1_555 1_555
N9_4 C13_8 1_555 1_555
C14_8 C15_8 1_555 1_555
C14_8 N9_4 1_555 1_555
C13_9 C12_9 1_555 1_555
H6_7 C13_9 1_555 1_555
C14_9 H7_7 1_555 1_555
H8_9 C15_9 1_555 1_555
N9_5 C13_9 1_555 1_555
C14_9 C15_9 1_555 1_555
C14_9 N9_5 1_555 1_555
C2_7 H1_7 1_555 1_555
C3_5 C2_7 1_555 1_555
H2_5 C3_5 1_555 1_555
C17_5 C16_5 1_555 1_555
C18_5 C17_5 1_555 1_555
H10_5 C18_5 1_555 1_555
C19_2 H11_2 1_555 1_555
C20_5 C16_5 1_555 1_555
H12_5 C20_5 1_555 1_555
N4_2 C18_5 1_555 1_555
C19_2 C20_5 1_555 1_555
C19_2 N4_2 1_555 1_555
C5_7 C4_7 1_555 1_555
C6_7 C5_7 1_555 1_555
C7_7 C6_7 1_555 1_555
H3_7 C7_7 1_555 1_555
C8_7 C7_7 1_555 1_555
C9_7 C8_7 1_555 1_555
C10_9 C9_7 1_555 1_555
C11_9 C10_9 1_555 1_555
N1_7 C1_9 1_555 1_555
N2_7 C6_7 1_555 1_555
Zn3 N1_7 1_555 1_555
C21_9 C10_9 1_555 1_555
C22_7 C21_9 1_555 1_555
H13_7 C22_7 1_555 1_555
C23_5 C22_7 1_555 1_555
H14_5 C23_5 1_555 1_555
C24_7 C23_5 1_555 1_555
C25_7 C24_7 1_555 1_555
C26_7 C25_7 1_555 1_555
C27_7 C26_7 1_555 1_555
H15_7 C27_7 1_555 1_555
C28_7 C27_7 1_555 1_555
H16_7 C28_7 1_555 1_555
C29_7 C28_7 1_555 1_555
C30_9 C1_9 1_555 1_555
C31_9 C30_9 1_555 1_555
C32_9 C31_9 1_555 1_555
H17_9 C32_9 1_555 1_555
C33_9 C32_9 1_555 1_555
C34_9 H19_7 1_555 1_555
C35_9 C31_9 1_555 1_555
H20_9 C35_9 1_555 1_555
C36_5 C25_7 1_555 1_555
C37_5 C36_5 1_555 1_555
H21_7 C37_5 1_555 1_555
C38_5 C37_5 1_555 1_555
H22_5 C38_5 1_555 1_555
C40_5 C36_5 1_555 1_555
H24_5 C40_5 1_555 1_555
N5_7 Zn3 1_555 1_555
N6_7 Zn3 1_555 1_555
N10_2 C33_9 1_555 1_555
C4_7 N1_7 1_555 1_555
C9_7 N2_7 1_555 1_555
N2_7 Zn3 1_555 1_555
C21_9 N5_7 1_555 1_555
C24_7 N5_7 1_555 1_555
C26_7 N6_7 1_555 1_555
C29_7 C30_9 1_555 1_555
C29_7 N6_7 1_555 1_555
C34_9 C35_9 1_555 1_555
C34_9 N10_2 1_555 1_555
H14_6 C23_6 1_555 1_555
C24_8 C23_6 1_555 1_555
C25_8 C24_8 1_555 1_555
C26_8 C25_8 1_555 1_555
C27_8 C26_8 1_555 1_555
H15_8 C27_8 1_555 1_555
C28_8 C27_8 1_555 1_555
H16_8 C28_8 1_555 1_555
C29_8 C28_8 1_555 1_555
C36_6 C25_8 1_555 1_555
C37_6 C36_6 1_555 1_555
H21_8 C37_6 1_555 1_555
C38_6 C37_6 1_555 1_555
H22_6 C38_6 1_555 1_555
C39_3 H23_3 1_555 1_555
C40_6 C36_6 1_555 1_555
H24_6 C40_6 1_555 1_555
N5_8 Zn1_7 1_555 1_555
N6_8 Zn1_7 1_555 1_555
N8_3 C38_6 1_555 1_555
C24_8 N5_8 1_555 1_555
C26_8 N6_8 1_555 1_555
C29_8 N6_8 1_555 1_555
C39_3 C40_6 1_555 1_555
C39_3 N8_3 1_555 1_555
H13_8 C22_8 1_555 1_555
C23_7 C22_8 1_555 1_555
H14_7 C23_7 1_555 1_555
C37_7 C36_7 1_555 1_555
C38_7 C37_7 1_555 1_555
H22_7 C38_7 1_555 1_555
C39_4 H23_4 1_555 1_555
C40_7 C36_7 1_555 1_555
H24_7 C40_7 1_555 1_555
N8_4 C38_7 1_555 1_555
C39_4 C40_7 1_555 1_555
C39_4 N8_4 1_555 1_555
H2_6 C3_6 1_555 1_555
C4_8 C3_6 1_555 1_555
C5_8 C4_8 1_555 1_555
C6_8 C5_8 1_555 1_555
C7_8 C6_8 1_555 1_555
H3_8 C7_8 1_555 1_555
C8_8 C7_8 1_555 1_555
H4_8 C8_8 1_555 1_555
C9_8 C8_8 1_555 1_555
C16_6 C5_8 1_555 1_555
C17_6 C16_6 1_555 1_555
H9_8 C17_6 1_555 1_555
C18_6 C17_6 1_555 1_555
H10_6 C18_6 1_555 1_555
C19_3 H11_3 1_555 1_555
C20_6 C16_6 1_555 1_555
H12_6 C20_6 1_555 1_555
N2_8 C6_8 1_555 1_555
N4_3 C18_6 1_555 1_555
Zn1_8 N1_8 1_555 1_555
C4_8 N1_8 1_555 1_555
C9_8 N2_8 1_555 1_555
C19_3 C20_6 1_555 1_555
C19_3 N4_3 1_555 1_555
N2_8 Zn1_8 1_555 1_555
C2_8 H1_8 1_555 1_555
C3_7 C2_8 1_555 1_555
H2_7 C3_7 1_555 1_555
C17_7 C16_7 1_555 1_555
C18_7 C17_7 1_555 1_555
H10_7 C18_7 1_555 1_555
C19_4 H11_4 1_555 1_555
C20_7 C16_7 1_555 1_555
H12_7 C20_7 1_555 1_555
N4_4 C18_7 1_555 1_555
C19_4 C20_7 1_555 1_555
C19_4 N4_4 1_555 1_555
H2_8 C3_8 1_555 1_555
C4_9 C3_8 1_555 1_555
C5_9 C4_9 1_555 1_555
C6_9 C5_9 1_555 1_555
C7_9 C6_9 1_555 1_555
H3_9 C7_9 1_555 1_555
C8_9 C7_9 1_555 1_555
H4_9 C8_9 1_555 1_555
C9_9 C8_9 1_555 1_555
C16_8 C5_9 1_555 1_555
C17_8 C16_8 1_555 1_555
H9_9 C17_8 1_555 1_555
C18_8 C17_8 1_555 1_555
H10_8 C18_8 1_555 1_555
C19_5 H11_5 1_555 1_555
C20_8 C16_8 1_555 1_555
H12_8 C20_8 1_555 1_555
N2_9 C6_9 1_555 1_555
N4_5 C18_8 1_555 1_555
Zn1_9 N1_9 1_555 1_555
C4_9 N1_9 1_555 1_555
C9_9 N2_9 1_555 1_555
C19_5 C20_8 1_555 1_555
C19_5 N4_5 1_555 1_555
N2_9 Zn1_9 1_555 1_555
C2_9 H1_9 1_555 1_555
C3_9 C2_9 1_555 1_555
H2_9 C3_9 1_555 1_555
C17_9 C16_9 1_555 1_555
C18_9 C17_9 1_555 1_555
H10_9 C18_9 1_555 1_555
C19_6 H11_6 1_555 1_555
C20_9 C16_9 1_555 1_555
H12_9 C20_9 1_555 1_555
N4_6 C18_9 1_555 1_555
C19_6 C20_9 1_555 1_555
C19_6 N4_6 1_555 1_555
H14_8 C23_8 1_555 1_555
C24_9 C23_8 1_555 1_555
C25_9 C24_9 1_555 1_555
C26_9 C25_9 1_555 1_555
C27_9 C26_9 1_555 1_555
H15_9 C27_9 1_555 1_555
C28_9 C27_9 1_555 1_555
H16_9 C28_9 1_555 1_555
C29_9 C28_9 1_555 1_555
C36_8 C25_9 1_555 1_555
C37_8 C36_8 1_555 1_555
H21_9 C37_8 1_555 1_555
C38_8 C37_8 1_555 1_555
H22_8 C38_8 1_555 1_555
C39_5 H23_5 1_555 1_555
C40_8 C36_8 1_555 1_555
H24_8 C40_8 1_555 1_555
N5_9 Zn1_10 1_555 1_555
N6_9 Zn1_10 1_555 1_555
N8_5 C38_8 1_555 1_555
C24_9 N5_9 1_555 1_555
C26_9 N6_9 1_555 1_555
C29_9 N6_9 1_555 1_555
C39_5 C40_8 1_555 1_555
C39_5 N8_5 1_555 1_555
H13_9 C22_9 1_555 1_555
C23_9 C22_9 1_555 1_555
H14_9 C23_9 1_555 1_555
C37_9 C36_9 1_555 1_555
C38_9 C37_9 1_555 1_555
H22_9 C38_9 1_555 1_555
C39_6 H23_6 1_555 1_555
C40_9 C36_9 1_555 1_555
H24_9 C40_9 1_555 1_555
N8_6 C38_9 1_555 1_555
C39_6 C40_9 1_555 1_555
C39_6 N8_6 1_555 1_555
C19_7 H11_7 1_555 1_555
C19_7 N4_7 1_555 1_555
C19_8 H11_8 1_555 1_555
C19_8 N4_8 1_555 1_555
C19_9 H11_9 1_555 1_555
C19_9 N4_9 1_555 1_555
C39_7 H23_7 1_555 1_555
C39_7 N8_7 1_555 1_555
C39_8 H23_8 1_555 1_555
C39_8 N8_8 1_555 1_555
C39_9 H23_9 1_555 1_555
C39_9 N8_9 1_555 1_555

#END
