
###############################################################################
#
# This file contains modified crystal structure data generated from the
# MOF subset of the Cambridge Structural Database (CSD) v543 
# hosted by the Cambridge Crystallographic Data Centre (CCDC).
#
# This work is licensed under the Creative Commons
# Attribution-NonCommercial-ShareAlike 4.0 International License.
# To view a copy of this license, visit
# http://creativecommons.org/licenses/by-nc-sa/4.0/
# or send a letter to
# Creative Commons, PO Box 1866, Mountain View, CA 94042, USA.
#
# CIF created using the CSD Python API on 29 September 2022
# The structure has been converted into the P1 space group
# The structure has a 3D framework
# The original CSD entry GUQWOG is in the monoclinic crystal system
# The framework has been calculated to contain at least 10.0% void space
# The void calculation uses a probe of radius 1.32A, grid spacing 0.4
#
###############################################################################

data_GUQWOG
_chemical_formula_moiety         '(C184 H128 Cd8 N16 O36)n'
_symmetry_cell_setting           triclinic
_symmetry_space_group_name_H-M   'P 1'
_symmetry_Int_Tables_number      1
_space_group_name_Hall           'P 1'
loop_
_symmetry_equiv_pos_site_id
_symmetry_equiv_pos_as_xyz
1 x,y,z
_cell_length_a                   29.479(3)
_cell_length_b                   16.6876(16)
_cell_length_c                   15.7664(15)
_cell_angle_alpha                90
_cell_angle_beta                 113.530(5)
_cell_angle_gamma                90
_cell_volume                     7111.12
loop_
_atom_site_label
_atom_site_type_symbol
_atom_site_fract_x
_atom_site_fract_y
_atom_site_fract_z
N2 N 0.6625(3) 0.2186(4) 0.3018(6)
C2 C 0.6372(7) 0.2838(11) 0.2950(15)
H2 H 0.6529 0.3293 0.3275
C3 C 0.5638(5) 0.2194(8) 0.1952(11)
C4 C 0.5853(7) 0.2864(13) 0.2382(18)
H3 H 0.5672 0.3333 0.2316
C5 C 0.6383(4) 0.1533(9) 0.2744(12)
H4 H 0.6547 0.1044 0.2904
H5 H 0.3426 0.3889 0.0010
C7 C 0.5876(6) 0.1552(13) 0.2205(13)
H6 H 0.5708 0.1069 0.2025
C9 C 0.4099(6) 0.3446(11) 0.0339(14)
H8 H 0.4269 0.3891 0.0669
C10 C 0.4912(6) 0.2800(11) 0.0686(17)
H9 H 0.5122 0.3107 0.0505
C11 C 0.4333(6) 0.2821(9) 0.0241(15)
C22 C 0.5062(7) 0.2228(16) 0.141(2)
H16 H 0.4843 0.1911 0.1557
Cd4 Cd 0.74817(2) 0.21890(3) 0.37496(4)
Cd1 Cd 0.24817(2) 0.28110(3) 0.87496(4)
N1 N 0.3317(3) 0.2827(4) 0.9468(5)
C1 C 0.3587(5) 0.2245(8) 0.9245(9)
H1 H 0.3414 0.1847 0.8830
C6 C 0.3590(5) 0.3435(8) 0.9941(11)
C8 C 0.4107(6) 0.2221(9) 0.9609(10)
H7 H 0.4282 0.1835 0.9440
C12 C 0.1667(6) 0.4154(6) 0.2714(8)
C13 C 0.2459(4) 0.3585(5) 0.7230(6)
C14 C 0.2424(4) 0.4017(4) 0.6371(5)
C15 C 0.2446(3) 0.4839(4) 0.6378(5)
H10 H 0.2480 0.5120 0.6910
C16 C 0.2365(4) 0.3598(4) 0.5583(6)
H11 H 0.2345 0.3042 0.5578
C17 C 0.2336(4) 0.4006(5) 0.4793(6)
C18 C 0.2464(4) 0.6144(4) 0.5638(6)
C19 C 0.2182(5) 0.3898(5) 0.3166(6)
H12 H 0.2254 0.3522 0.2767
H13 H 0.2396 0.4359 0.3252
C20 C 0.2358(3) 0.4841(4) 0.4782(5)
H14 H 0.2333 0.5114 0.4251
C21 C 0.1255(7) 0.4333(10) 0.2347(12)
H15 H 0.0924 0.4476 0.2053
O1 O 0.2461(3) 0.2828(3) 0.7227(4)
O2 O 0.2496(3) 0.6482(3) 0.6355(4)
O3 O 0.2487(2) 0.3991(3) 0.7929(4)
O4 O 0.2470(4) 0.6524(3) 0.4971(5)
C23 C 0.2417(3) 0.5254(4) 0.5589(5)
O5 O 0.2289(3) 0.3525(3) 0.4049(4)
Cd2 Cd 0.25183(2) 0.78110(3) 0.62504(4)
Cd3 Cd 0.24817(2) 0.71890(3) 0.37496(4)
N3 N 0.1625(3) 0.2814(4) 0.8018(6)
O6 O 0.2504(3) 0.1482(3) 0.8645(4)
O7 O 0.2470(4) 0.3476(3) 0.9971(5)
C12_2 C 0.8333(6) 0.4154(6) 0.2286(8)
C17_2 C 0.7664(4) 0.4006(5) 0.0207(6)
C19_2 C 0.7818(5) 0.3898(5) 0.1834(6)
H12_2 H 0.7746 0.3522 0.2233
H13_2 H 0.7604 0.4359 0.1748
C20_2 C 0.7642(3) 0.4841(4) 0.0218(5)
H14_2 H 0.7667 0.5114 0.0749
C21_2 C 0.8745(7) 0.4333(10) 0.2653(12)
H15_2 H 0.9076 0.4476 0.2947
O4_2 O 0.7530(4) 0.6524(3) 0.0029(5)
O5_2 O 0.7711(3) 0.3525(3) 0.0951(4)
Cd3_2 Cd 0.75183(2) 0.71890(3) 0.12504(4)
Cd1_2 Cd 0.75183(2) 0.28110(3) 0.62504(4)
N1_2 N 0.6683(3) 0.2827(4) 0.5532(5)
N2_2 N 0.3375(3) 0.2186(4) 0.1982(6)
C1_2 C 0.6413(5) 0.2245(8) 0.5755(9)
H1_2 H 0.6586 0.1847 0.6170
C2_2 C 0.3628(7) 0.2838(11) 0.2050(15)
H2_2 H 0.3471 0.3293 0.1725
C3_2 C 0.4362(5) 0.2194(8) 0.3048(11)
C4_2 C 0.4147(7) 0.2864(13) 0.2618(18)
H3_2 H 0.4328 0.3333 0.2684
C5_2 C 0.3617(4) 0.1533(9) 0.2256(12)
H4_2 H 0.3453 0.1044 0.2096
C6_2 C 0.6410(5) 0.3435(8) 0.5059(11)
H5_2 H 0.6574 0.3889 0.4990
C7_2 C 0.4124(6) 0.1552(13) 0.2795(13)
H6_2 H 0.4292 0.1069 0.2975
C8_2 C 0.5893(6) 0.2221(9) 0.5391(10)
H7_2 H 0.5718 0.1835 0.5560
C9_2 C 0.5901(6) 0.3446(11) 0.4661(14)
H8_2 H 0.5731 0.3891 0.4331
C10_2 C 0.5088(6) 0.2800(11) 0.4314(17)
H9_2 H 0.4878 0.3107 0.4495
C11_2 C 0.5667(6) 0.2821(9) 0.4759(15)
C13_2 C 0.7541(4) 0.3585(5) 0.7770(6)
C14_2 C 0.7576(4) 0.4017(4) 0.8629(5)
C15_2 C 0.7554(3) 0.4839(4) 0.8622(5)
H10_2 H 0.7520 0.5120 0.8090
C16_2 C 0.7635(4) 0.3598(4) 0.9417(6)
H11_2 H 0.7655 0.3042 0.9422
C18_2 C 0.7536(4) 0.6144(4) 0.9362(6)
C22_2 C 0.4938(7) 0.2228(16) 0.359(2)
H16_2 H 0.5157 0.1911 0.3443
O1_2 O 0.7539(3) 0.2828(3) 0.7773(4)
O2_2 O 0.7504(3) 0.6482(3) 0.8645(4)
O3_2 O 0.7513(2) 0.3991(3) 0.7071(4)
C23_2 C 0.7583(3) 0.5254(4) 0.9411(5)
Cd2_2 Cd 0.74817(2) 0.78110(3) 0.87496(4)
Cd4_2 Cd 0.25183(2) 0.21890(3) 0.12504(4)
N3_2 N 0.8375(3) 0.2814(4) 0.6982(6)
O6_2 O 0.7496(3) 0.1482(3) 0.6355(4)
O7_2 O 0.7530(4) 0.3476(3) 0.5029(5)
N2_3 N 0.1625(3) 0.7186(4) 0.3018(6)
C2_3 C 0.1372(7) 0.7838(11) 0.2950(15)
H2_3 H 0.1529 0.8293 0.3275
C3_3 C 0.0638(5) 0.7194(8) 0.1952(11)
C4_3 C 0.0853(7) 0.7864(13) 0.2382(18)
H3_3 H 0.0672 0.8333 0.2316
C5_3 C 0.1383(4) 0.6533(9) 0.2744(12)
H4_3 H 0.1547 0.6044 0.2904
C7_3 C 0.0876(6) 0.6552(13) 0.2205(13)
H6_3 H 0.0708 0.6069 0.2025
H9_3 H 0.0122 0.8107 0.0505
C22_3 C 0.0062(7) 0.7228(16) 0.141(2)
H10_3 H 0.7480 0.0120 0.6910
C18_3 C 0.7464(4) 0.1144(4) 0.5638(6)
H14_3 H 0.7333 0.0114 0.4251
O4_3 O 0.7470(4) 0.1524(3) 0.4971(5)
C23_3 C 0.7417(3) 0.0254(4) 0.5589(5)
N1_3 N 0.8317(3) 0.7827(4) 0.9468(5)
C1_3 C 0.8587(5) 0.7245(8) 0.9245(9)
H1_3 H 0.8414 0.6847 0.8830
C6_3 C 0.8590(5) 0.8435(8) 0.9941(11)
C8_3 C 0.9107(6) 0.7221(9) 0.9609(10)
H7_3 H 0.9282 0.6835 0.9440
C12_3 C 0.6667(6) 0.9154(6) 0.2714(8)
C13_3 C 0.7459(4) 0.8585(5) 0.7230(6)
C14_3 C 0.7424(4) 0.9017(4) 0.6371(5)
C15_3 C 0.7446(3) 0.9839(4) 0.6378(5)
C16_3 C 0.7365(4) 0.8598(4) 0.5583(6)
H11_3 H 0.7345 0.8042 0.5578
C17_3 C 0.7336(4) 0.9006(5) 0.4793(6)
C19_3 C 0.7182(5) 0.8898(5) 0.3166(6)
H12_3 H 0.7254 0.8522 0.2767
H13_3 H 0.7396 0.9359 0.3252
C20_3 C 0.7358(3) 0.9841(4) 0.4782(5)
C21_3 C 0.6255(7) 0.9333(10) 0.2347(12)
H15_3 H 0.5924 0.9476 0.2053
O1_3 O 0.7461(3) 0.7828(3) 0.7227(4)
O3_3 O 0.7487(2) 0.8991(3) 0.7929(4)
O5_3 O 0.7289(3) 0.8525(3) 0.4049(4)
N3_3 N 0.6625(3) 0.7814(4) 0.8018(6)
O7_3 O 0.7470(4) 0.8476(3) 0.9971(5)
H14_4 H 0.2667 0.0114 0.0749
O4_4 O 0.2530(4) 0.1524(3) 0.0029(5)
H10_4 H 0.2520 0.0120 0.8090
C18_4 C 0.2536(4) 0.1144(4) 0.9362(6)
C23_4 C 0.2583(3) 0.0254(4) 0.9411(5)
N1_4 N 0.1683(3) 0.7827(4) 0.5532(5)
C1_4 C 0.1413(5) 0.7245(8) 0.5755(9)
H1_4 H 0.1586 0.6847 0.6170
C6_4 C 0.1410(5) 0.8435(8) 0.5059(11)
H5_3 H 0.1574 0.8889 0.4990
C8_4 C 0.0893(6) 0.7221(9) 0.5391(10)
H7_4 H 0.0718 0.6835 0.5560
C9_3 C 0.0901(6) 0.8446(11) 0.4661(14)
H8_3 H 0.0731 0.8891 0.4331
C10_3 C 0.0088(6) 0.7800(11) 0.4314(17)
C11_3 C 0.0667(6) 0.7821(9) 0.4759(15)
C13_4 C 0.2541(4) 0.8585(5) 0.7770(6)
C14_4 C 0.2576(4) 0.9017(4) 0.8629(5)
C15_4 C 0.2554(3) 0.9839(4) 0.8622(5)
C16_4 C 0.2635(4) 0.8598(4) 0.9417(6)
H11_4 H 0.2655 0.8042 0.9422
H16_3 H 0.0157 0.6911 0.3443
O1_4 O 0.2539(3) 0.7828(3) 0.7773(4)
O3_4 O 0.2513(2) 0.8991(3) 0.7071(4)
N3_4 N 0.3375(3) 0.7814(4) 0.6982(6)
O7_4 O 0.2530(4) 0.8476(3) 0.5029(5)
N2_4 N 0.8375(3) 0.7186(4) 0.1982(6)
C2_4 C 0.8628(7) 0.7838(11) 0.2050(15)
H2_4 H 0.8471 0.8293 0.1725
C3_4 C 0.9362(5) 0.7194(8) 0.3048(11)
C4_4 C 0.9147(7) 0.7864(13) 0.2618(18)
H3_4 H 0.9328 0.8333 0.2684
C5_4 C 0.8617(4) 0.6533(9) 0.2256(12)
H4_4 H 0.8453 0.6044 0.2096
C7_4 C 0.9124(6) 0.6552(13) 0.2795(13)
H6_4 H 0.9292 0.6069 0.2975
H9_4 H 0.9878 0.8107 0.4495
C22_4 C 0.9938(7) 0.7228(16) 0.359(2)
N1_5 N 0.6683(3) 0.7173(4) 0.0532(5)
C1_5 C 0.6413(5) 0.7755(8) 0.0755(9)
H1_5 H 0.6586 0.8153 0.1170
C6_5 C 0.6410(5) 0.6565(8) 0.0059(11)
C8_5 C 0.5893(6) 0.7779(9) 0.0391(10)
H7_5 H 0.5718 0.8165 0.0560
C12_4 C 0.8333(6) 0.5846(6) 0.7286(8)
C13_5 C 0.7541(4) 0.6415(5) 0.2770(6)
C14_5 C 0.7576(4) 0.5983(4) 0.3629(5)
C15_5 C 0.7554(3) 0.5161(4) 0.3622(5)
H10_5 H 0.7520 0.4880 0.3090
C16_5 C 0.7635(4) 0.6402(4) 0.4417(6)
H11_5 H 0.7655 0.6958 0.4422
C17_4 C 0.7664(4) 0.5994(5) 0.5207(6)
C18_5 C 0.7536(4) 0.3856(4) 0.4362(6)
C19_4 C 0.7818(5) 0.6102(5) 0.6834(6)
H12_4 H 0.7746 0.6478 0.7233
H13_4 H 0.7604 0.5641 0.6748
C20_4 C 0.7642(3) 0.5159(4) 0.5218(5)
H14_5 H 0.7667 0.4886 0.5749
C21_4 C 0.8745(7) 0.5667(10) 0.7653(12)
H15_4 H 0.9076 0.5524 0.7947
O1_5 O 0.7539(3) 0.7172(3) 0.2773(4)
O2_3 O 0.7504(3) 0.3518(3) 0.3645(4)
O3_5 O 0.7513(2) 0.6009(3) 0.2071(4)
C23_5 C 0.7583(3) 0.4746(4) 0.4411(5)
O5_4 O 0.7711(3) 0.6475(3) 0.5951(4)
O6_3 O 0.7496(3) 0.8518(3) 0.1355(4)
C2_5 C 0.3628(7) 0.7162(11) 0.7050(15)
H2_5 H 0.3471 0.6707 0.6725
C3_5 C 0.4362(5) 0.7806(8) 0.8048(11)
C4_5 C 0.4147(7) 0.7136(13) 0.7618(18)
H3_5 H 0.4328 0.6667 0.7684
C5_5 C 0.3617(4) 0.8467(9) 0.7256(12)
H4_5 H 0.3453 0.8956 0.7096
H5_4 H 0.6574 0.6111 0.9990
C7_5 C 0.4124(6) 0.8448(13) 0.7795(13)
H6_5 H 0.4292 0.8931 0.7975
C9_4 C 0.5901(6) 0.6554(11) 0.9661(14)
H8_4 H 0.5731 0.6109 0.9331
C10_4 C 0.5088(6) 0.7200(11) 0.9314(17)
H9_5 H 0.4878 0.6893 0.9495
C11_4 C 0.5667(6) 0.7179(9) 0.9759(15)
C22_5 C 0.4938(7) 0.7772(16) 0.859(2)
H16_4 H 0.5157 0.8089 0.8443
N1_6 N 0.3317(3) 0.7173(4) 0.4468(5)
C1_6 C 0.3587(5) 0.7755(8) 0.4245(9)
H1_6 H 0.3414 0.8153 0.3830
C2_6 C 0.6372(7) 0.7162(11) 0.7950(15)
H2_6 H 0.6529 0.6707 0.8275
C3_6 C 0.5638(5) 0.7806(8) 0.6952(11)
C4_6 C 0.5853(7) 0.7136(13) 0.7382(18)
H3_6 H 0.5672 0.6667 0.7316
C5_6 C 0.6383(4) 0.8467(9) 0.7744(12)
H4_6 H 0.6547 0.8956 0.7904
C6_6 C 0.3590(5) 0.6565(8) 0.4941(11)
H5_5 H 0.3426 0.6111 0.5010
C7_6 C 0.5876(6) 0.8448(13) 0.7205(13)
H6_6 H 0.5708 0.8931 0.7025
C8_6 C 0.4107(6) 0.7779(9) 0.4609(10)
H7_6 H 0.4282 0.8165 0.4440
C9_5 C 0.4099(6) 0.6554(11) 0.5339(14)
H8_5 H 0.4269 0.6109 0.5669
C10_5 C 0.4912(6) 0.7200(11) 0.5686(17)
H9_6 H 0.5122 0.6893 0.5505
C11_5 C 0.4333(6) 0.7179(9) 0.5241(15)
C13_6 C 0.2459(4) 0.6415(5) 0.2230(6)
C14_6 C 0.2424(4) 0.5983(4) 0.1371(5)
C15_6 C 0.2446(3) 0.5161(4) 0.1378(5)
H10_6 H 0.2480 0.4880 0.1910
C16_6 C 0.2365(4) 0.6402(4) 0.0583(6)
H11_6 H 0.2345 0.6958 0.0578
C18_6 C 0.2464(4) 0.3856(4) 0.0638(6)
C22_6 C 0.5062(7) 0.7772(16) 0.641(2)
H16_5 H 0.4843 0.8089 0.6557
O1_6 O 0.2461(3) 0.7172(3) 0.2227(4)
O2_4 O 0.2496(3) 0.3518(3) 0.1355(4)
O3_6 O 0.2487(2) 0.6009(3) 0.2929(4)
C23_6 C 0.2417(3) 0.4746(4) 0.0589(5)
O6_4 O 0.2504(3) 0.8518(3) 0.3645(4)
C12_5 C 0.1667(6) 0.5846(6) 0.7714(8)
C17_5 C 0.2336(4) 0.5994(5) 0.9793(6)
C19_5 C 0.2182(5) 0.6102(5) 0.8166(6)
H12_5 H 0.2254 0.6478 0.7767
H13_5 H 0.2396 0.5641 0.8252
C20_5 C 0.2358(3) 0.5159(4) 0.9782(5)
H14_6 H 0.2333 0.4886 0.9251
C21_5 C 0.1255(7) 0.5667(10) 0.7347(12)
H15_5 H 0.0924 0.5524 0.7053
O5_5 O 0.2289(3) 0.6475(3) 0.9049(4)
N1_7 N 0.1683(3) 0.2173(4) 0.0532(5)
C1_7 C 0.1413(5) 0.2755(8) 0.0755(9)
H1_7 H 0.1586 0.3153 0.1170
C6_7 C 0.1410(5) 0.1565(8) 0.0059(11)
C8_7 C 0.0893(6) 0.2779(9) 0.0391(10)
H7_7 H 0.0718 0.3165 0.0560
C12_6 C 0.3333(6) 0.0846(6) 0.7286(8)
C13_7 C 0.2541(4) 0.1415(5) 0.2770(6)
C14_7 C 0.2576(4) 0.0983(4) 0.3629(5)
C15_7 C 0.2554(3) 0.0161(4) 0.3622(5)
C16_7 C 0.2635(4) 0.1402(4) 0.4417(6)
H11_7 H 0.2655 0.1958 0.4422
C17_6 C 0.2664(4) 0.0994(5) 0.5207(6)
C19_6 C 0.2818(5) 0.1102(5) 0.6834(6)
H12_6 H 0.2746 0.1478 0.7233
H13_6 H 0.2604 0.0641 0.6748
C20_6 C 0.2642(3) 0.0159(4) 0.5218(5)
C21_6 C 0.3745(7) 0.0667(10) 0.7653(12)
H15_6 H 0.4076 0.0524 0.7947
O1_7 O 0.2539(3) 0.2172(3) 0.2773(4)
O3_7 O 0.2513(2) 0.1009(3) 0.2071(4)
O5_6 O 0.2711(3) 0.1475(3) 0.5951(4)
H10_7 H 0.2520 0.9880 0.3090
C18_7 C 0.2536(4) 0.8856(4) 0.4362(6)
H14_7 H 0.2667 0.9886 0.5749
C23_7 C 0.2583(3) 0.9746(4) 0.4411(5)
C2_7 C 0.8628(7) 0.2162(11) 0.7050(15)
H2_7 H 0.8471 0.1707 0.6725
C3_7 C 0.9362(5) 0.2806(8) 0.8048(11)
C4_7 C 0.9147(7) 0.2136(13) 0.7618(18)
H3_7 H 0.9328 0.1667 0.7684
C5_7 C 0.8617(4) 0.3467(9) 0.7256(12)
H4_7 H 0.8453 0.3956 0.7096
C7_7 C 0.9124(6) 0.3448(13) 0.7795(13)
H6_7 H 0.9292 0.3931 0.7975
H9_7 H 0.9878 0.1893 0.9495
C22_7 C 0.9938(7) 0.2772(16) 0.859(2)
C2_8 C 0.1372(7) 0.2162(11) 0.7950(15)
H2_8 H 0.1529 0.1707 0.8275
C3_8 C 0.0638(5) 0.2806(8) 0.6952(11)
C4_8 C 0.0853(7) 0.2136(13) 0.7382(18)
H3_8 H 0.0672 0.1667 0.7316
C5_8 C 0.1383(4) 0.3467(9) 0.7744(12)
H4_8 H 0.1547 0.3956 0.7904
C7_8 C 0.0876(6) 0.3448(13) 0.7205(13)
H6_8 H 0.0708 0.3931 0.7025
H9_8 H 0.0122 0.1893 0.5505
C22_8 C 0.0062(7) 0.2772(16) 0.641(2)
N1_8 N 0.8317(3) 0.2173(4) 0.4468(5)
C1_8 C 0.8587(5) 0.2755(8) 0.4245(9)
H1_8 H 0.8414 0.3153 0.3830
C6_8 C 0.8590(5) 0.1565(8) 0.4941(11)
H5_6 H 0.8426 0.1111 0.5010
C8_8 C 0.9107(6) 0.2779(9) 0.4609(10)
H7_8 H 0.9282 0.3165 0.4440
C9_6 C 0.9099(6) 0.1554(11) 0.5339(14)
H8_6 H 0.9269 0.1109 0.5669
C10_6 C 0.9912(6) 0.2200(11) 0.5686(17)
C11_6 C 0.9333(6) 0.2179(9) 0.5241(15)
C13_8 C 0.7459(4) 0.1415(5) 0.2230(6)
C14_8 C 0.7424(4) 0.0983(4) 0.1371(5)
C15_8 C 0.7446(3) 0.0161(4) 0.1378(5)
C16_8 C 0.7365(4) 0.1402(4) 0.0583(6)
H11_8 H 0.7345 0.1958 0.0578
H16_6 H 0.9843 0.3089 0.6557
O1_8 O 0.7461(3) 0.2172(3) 0.2227(4)
O3_8 O 0.7487(2) 0.1009(3) 0.2929(4)
H10_8 H 0.7480 0.9880 0.1910
C18_8 C 0.7464(4) 0.8856(4) 0.0638(6)
C23_8 C 0.7417(3) 0.9746(4) 0.0589(5)
H14_8 H 0.7333 0.9886 0.9251
H5_7 H 0.8426 0.8889 0.0010
C9_7 C 0.9099(6) 0.8446(11) 0.0339(14)
H8_7 H 0.9269 0.8891 0.0669
C10_7 C 0.9912(6) 0.7800(11) 0.0686(17)
C11_7 C 0.9333(6) 0.7821(9) 0.0241(15)
H16_7 H 0.9843 0.6911 0.1557
C12_7 C 0.3333(6) 0.9154(6) 0.2286(8)
C17_7 C 0.2664(4) 0.9006(5) 0.0207(6)
C19_7 C 0.2818(5) 0.8898(5) 0.1834(6)
H12_7 H 0.2746 0.8522 0.2233
H13_7 H 0.2604 0.9359 0.1748
C20_7 C 0.2642(3) 0.9841(4) 0.0218(5)
C21_7 C 0.3745(7) 0.9333(10) 0.2653(12)
H15_7 H 0.4076 0.9476 0.2947
O5_7 O 0.2711(3) 0.8525(3) 0.0951(4)
H5_8 H 0.1574 0.1111 0.9990
C9_8 C 0.0901(6) 0.1554(11) 0.9661(14)
H8_8 H 0.0731 0.1109 0.9331
C10_8 C 0.0088(6) 0.2200(11) 0.9314(17)
C11_8 C 0.0667(6) 0.2179(9) 0.9759(15)
H16_8 H 0.0157 0.3089 0.8443
C12_8 C 0.6667(6) 0.0846(6) 0.7714(8)
C17_8 C 0.7336(4) 0.0994(5) 0.9793(6)
C19_8 C 0.7182(5) 0.1102(5) 0.8166(6)
H12_8 H 0.7254 0.1478 0.7767
H13_8 H 0.7396 0.0641 0.8252
C20_8 C 0.7358(3) 0.0159(4) 0.9782(5)
C21_8 C 0.6255(7) 0.0667(10) 0.7347(12)
H15_8 H 0.5924 0.0524 0.7053
O5_8 O 0.7289(3) 0.1475(3) 0.9049(4)
loop_
_geom_bond_atom_site_label_1
_geom_bond_atom_site_label_2
_geom_bond_site_symmetry_1
_geom_bond_site_symmetry_2
N2 C2 1_555 1_555
C2 H2 1_555 1_555
C3 C4 1_555 1_555
C4 C2 1_555 1_555
H3 C4 1_555 1_555
C5 N2 1_555 1_555
H4 C5 1_555 1_555
C7 C3 1_555 1_555
H6 C7 1_555 1_555
H8 C9 1_555 1_555
C10 H9 1_555 1_555
C22 C3 1_555 1_555
H16 C22 1_555 1_555
Cd4 N2 1_555 1_555
C5 C7 1_555 1_555
C9 C11 1_555 1_555
C10 C11 1_555 1_555
C10 C22 1_555 1_555
Cd1 N1 1_555 1_555
N1 C1 1_555 1_555
C1 H1 1_555 1_555
C6 N1 1_555 1_555
C8 C1 1_555 1_555
H7 C8 1_555 1_555
C12 C19 1_555 1_555
C13 C14 1_555 1_555
C14 C15 1_555 1_555
C15 H10 1_555 1_555
C16 C14 1_555 1_555
H11 C16 1_555 1_555
C17 C16 1_555 1_555
C18 O2 1_555 1_555
C19 H12 1_555 1_555
H13 C19 1_555 1_555
C20 C17 1_555 1_555
H14 C20 1_555 1_555
C21 C12 1_555 1_555
H15 C21 1_555 1_555
O1 Cd1 1_555 1_555
O2 Cd2 1_555 1_555
O3 Cd1 1_555 1_555
O4 C18 1_555 1_555
C23 C15 1_555 1_555
O5 C17 1_555 1_555
Cd3 O4 1_555 1_555
N3 Cd1 1_555 1_555
O6 Cd1 1_555 1_555
O7 Cd1 1_555 1_555
C13 O1 1_555 1_555
C13 O3 1_555 1_555
C18 C23 1_555 1_555
C19 O5 1_555 1_555
C20 C23 1_555 1_555
C12_2 C19_2 1_555 1_555
C19_2 H12_2 1_555 1_555
H13_2 C19_2 1_555 1_555
C20_2 C17_2 1_555 1_555
H14_2 C20_2 1_555 1_555
C21_2 C12_2 1_555 1_555
H15_2 C21_2 1_555 1_555
O5_2 C17_2 1_555 1_555
Cd3_2 O4_2 1_555 1_555
C19_2 O5_2 1_555 1_555
Cd1_2 N1_2 1_555 1_555
N1_2 C1_2 1_555 1_555
N2_2 C2_2 1_555 1_555
C1_2 H1_2 1_555 1_555
C2_2 H2_2 1_555 1_555
C3_2 C4_2 1_555 1_555
C4_2 C2_2 1_555 1_555
H3_2 C4_2 1_555 1_555
C5_2 N2_2 1_555 1_555
H4_2 C5_2 1_555 1_555
C6_2 N1_2 1_555 1_555
H5_2 C6_2 1_555 1_555
C7_2 C3_2 1_555 1_555
H6_2 C7_2 1_555 1_555
C8_2 C1_2 1_555 1_555
H7_2 C8_2 1_555 1_555
C9_2 C6_2 1_555 1_555
H8_2 C9_2 1_555 1_555
C10_2 H9_2 1_555 1_555
C11_2 C8_2 1_555 1_555
C13_2 C14_2 1_555 1_555
C14_2 C15_2 1_555 1_555
C15_2 H10_2 1_555 1_555
C16_2 C14_2 1_555 1_555
H11_2 C16_2 1_555 1_555
C18_2 O2_2 1_555 1_555
C22_2 C3_2 1_555 1_555
H16_2 C22_2 1_555 1_555
O1_2 Cd1_2 1_555 1_555
O2_2 Cd2_2 1_555 1_555
O3_2 Cd1_2 1_555 1_555
C23_2 C15_2 1_555 1_555
Cd4_2 N2_2 1_555 1_555
N3_2 Cd1_2 1_555 1_555
O6_2 Cd1_2 1_555 1_555
O7_2 Cd1_2 1_555 1_555
C5_2 C7_2 1_555 1_555
C9_2 C11_2 1_555 1_555
C10_2 C11_2 1_555 1_555
C10_2 C22_2 1_555 1_555
C13_2 O1_2 1_555 1_555
C13_2 O3_2 1_555 1_555
C18_2 C23_2 1_555 1_555
N2_3 C2_3 1_555 1_555
C2_3 H2_3 1_555 1_555
C3_3 C4_3 1_555 1_555
C4_3 C2_3 1_555 1_555
H3_3 C4_3 1_555 1_555
C5_3 N2_3 1_555 1_555
H4_3 C5_3 1_555 1_555
C7_3 C3_3 1_555 1_555
H6_3 C7_3 1_555 1_555
C22_3 C3_3 1_555 1_555
Cd3 N2_3 1_555 1_555
C5_3 C7_3 1_555 1_555
C18_3 O6_2 1_555 1_555
O4_3 C18_3 1_555 1_555
Cd4 O4_3 1_555 1_555
C18_3 C23_3 1_555 1_555
Cd2_2 N1_3 1_555 1_555
N1_3 C1_3 1_555 1_555
C1_3 H1_3 1_555 1_555
C6_3 N1_3 1_555 1_555
C8_3 C1_3 1_555 1_555
H7_3 C8_3 1_555 1_555
C12_3 C19_3 1_555 1_555
C13_3 C14_3 1_555 1_555
C14_3 C15_3 1_555 1_555
C16_3 C14_3 1_555 1_555
H11_3 C16_3 1_555 1_555
C17_3 C16_3 1_555 1_555
C19_3 H12_3 1_555 1_555
H13_3 C19_3 1_555 1_555
C20_3 C17_3 1_555 1_555
C21_3 C12_3 1_555 1_555
H15_3 C21_3 1_555 1_555
O1_3 Cd2_2 1_555 1_555
O3_3 Cd2_2 1_555 1_555
O5_3 C17_3 1_555 1_555
N3_3 Cd2_2 1_555 1_555
O7_3 Cd2_2 1_555 1_555
C13_3 O1_3 1_555 1_555
C13_3 O3_3 1_555 1_555
C19_3 O5_3 1_555 1_555
Cd4_2 O4_4 1_555 1_555
C18_4 O6 1_555 1_555
C18_4 C23_4 1_555 1_555
Cd2 N1_4 1_555 1_555
N1_4 C1_4 1_555 1_555
C1_4 H1_4 1_555 1_555
C6_4 N1_4 1_555 1_555
H5_3 C6_4 1_555 1_555
C8_4 C1_4 1_555 1_555
H7_4 C8_4 1_555 1_555
C9_3 C6_4 1_555 1_555
H8_3 C9_3 1_555 1_555
C11_3 C8_4 1_555 1_555
C13_4 C14_4 1_555 1_555
C14_4 C15_4 1_555 1_555
C16_4 C14_4 1_555 1_555
H11_4 C16_4 1_555 1_555
O1_4 Cd2 1_555 1_555
O3_4 Cd2 1_555 1_555
N3_4 Cd2 1_555 1_555
O7_4 Cd2 1_555 1_555
C9_3 C11_3 1_555 1_555
C10_3 C11_3 1_555 1_555
C13_4 O1_4 1_555 1_555
C13_4 O3_4 1_555 1_555
N2_4 C2_4 1_555 1_555
C2_4 H2_4 1_555 1_555
C3_4 C4_4 1_555 1_555
C4_4 C2_4 1_555 1_555
H3_4 C4_4 1_555 1_555
C5_4 N2_4 1_555 1_555
H4_4 C5_4 1_555 1_555
C7_4 C3_4 1_555 1_555
H6_4 C7_4 1_555 1_555
C22_4 C3_4 1_555 1_555
Cd3_2 N2_4 1_555 1_555
C5_4 C7_4 1_555 1_555
Cd3_2 N1_5 1_555 1_555
N1_5 C1_5 1_555 1_555
C1_5 H1_5 1_555 1_555
C6_5 N1_5 1_555 1_555
C8_5 C1_5 1_555 1_555
H7_5 C8_5 1_555 1_555
C12_4 C19_4 1_555 1_555
C13_5 C14_5 1_555 1_555
C14_5 C15_5 1_555 1_555
C15_5 H10_5 1_555 1_555
C16_5 C14_5 1_555 1_555
H11_5 C16_5 1_555 1_555
C17_4 C16_5 1_555 1_555
C18_5 O2_3 1_555 1_555
C19_4 H12_4 1_555 1_555
H13_4 C19_4 1_555 1_555
C20_4 C17_4 1_555 1_555
H14_5 C20_4 1_555 1_555
C21_4 C12_4 1_555 1_555
H15_4 C21_4 1_555 1_555
O1_5 Cd3_2 1_555 1_555
O2_3 Cd4 1_555 1_555
O3_5 Cd3_2 1_555 1_555
O7_2 C18_5 1_555 1_555
C23_5 C15_5 1_555 1_555
O5_4 C17_4 1_555 1_555
O6_3 Cd3_2 1_555 1_555
C13_5 O1_5 1_555 1_555
C13_5 O3_5 1_555 1_555
C18_5 C23_5 1_555 1_555
C19_4 O5_4 1_555 1_555
C20_4 C23_5 1_555 1_555
N3_4 C2_5 1_555 1_555
C2_5 H2_5 1_555 1_555
C3_5 C4_5 1_555 1_555
C4_5 C2_5 1_555 1_555
H3_5 C4_5 1_555 1_555
C5_5 N3_4 1_555 1_555
H4_5 C5_5 1_555 1_555
C7_5 C3_5 1_555 1_555
H6_5 C7_5 1_555 1_555
H8_4 C9_4 1_555 1_555
C10_4 H9_5 1_555 1_555
C22_5 C3_5 1_555 1_555
H16_4 C22_5 1_555 1_555
C5_5 C7_5 1_555 1_555
C9_4 C11_4 1_555 1_555
C10_4 C11_4 1_555 1_555
C10_4 C22_5 1_555 1_555
Cd3 N1_6 1_555 1_555
N1_6 C1_6 1_555 1_555
N3_3 C2_6 1_555 1_555
C1_6 H1_6 1_555 1_555
C2_6 H2_6 1_555 1_555
C3_6 C4_6 1_555 1_555
C4_6 C2_6 1_555 1_555
H3_6 C4_6 1_555 1_555
C5_6 N3_3 1_555 1_555
H4_6 C5_6 1_555 1_555
C6_6 N1_6 1_555 1_555
H5_5 C6_6 1_555 1_555
C7_6 C3_6 1_555 1_555
H6_6 C7_6 1_555 1_555
C8_6 C1_6 1_555 1_555
H7_6 C8_6 1_555 1_555
C9_5 C6_6 1_555 1_555
H8_5 C9_5 1_555 1_555
C10_5 H9_6 1_555 1_555
C11_5 C8_6 1_555 1_555
C13_6 C14_6 1_555 1_555
C14_6 C15_6 1_555 1_555
C15_6 H10_6 1_555 1_555
C16_6 C14_6 1_555 1_555
H11_6 C16_6 1_555 1_555
C18_6 O2_4 1_555 1_555
C22_6 C3_6 1_555 1_555
H16_5 C22_6 1_555 1_555
O1_6 Cd3 1_555 1_555
O2_4 Cd4_2 1_555 1_555
O3_6 Cd3 1_555 1_555
C23_6 C15_6 1_555 1_555
O6_4 Cd3 1_555 1_555
C5_6 C7_6 1_555 1_555
C9_5 C11_5 1_555 1_555
C10_5 C11_5 1_555 1_555
C10_5 C22_6 1_555 1_555
C13_6 O1_6 1_555 1_555
C13_6 O3_6 1_555 1_555
C18_6 C23_6 1_555 1_555
C12_5 C19_5 1_555 1_555
C19_5 H12_5 1_555 1_555
H13_5 C19_5 1_555 1_555
C20_5 C17_5 1_555 1_555
H14_6 C20_5 1_555 1_555
C21_5 C12_5 1_555 1_555
H15_5 C21_5 1_555 1_555
O5_5 C17_5 1_555 1_555
C19_5 O5_5 1_555 1_555
Cd4_2 N1_7 1_555 1_555
N1_7 C1_7 1_555 1_555
C1_7 H1_7 1_555 1_555
C6_7 N1_7 1_555 1_555
C8_7 C1_7 1_555 1_555
H7_7 C8_7 1_555 1_555
C12_6 C19_6 1_555 1_555
C13_7 C14_7 1_555 1_555
C14_7 C15_7 1_555 1_555
C16_7 C14_7 1_555 1_555
H11_7 C16_7 1_555 1_555
C17_6 C16_7 1_555 1_555
C19_6 H12_6 1_555 1_555
H13_6 C19_6 1_555 1_555
C20_6 C17_6 1_555 1_555
C21_6 C12_6 1_555 1_555
H15_6 C21_6 1_555 1_555
O1_7 Cd4_2 1_555 1_555
O3_7 Cd4_2 1_555 1_555
O5_6 C17_6 1_555 1_555
C13_7 O1_7 1_555 1_555
C13_7 O3_7 1_555 1_555
C19_6 O5_6 1_555 1_555
C18_7 O6_4 1_555 1_555
O7_4 C18_7 1_555 1_555
C18_7 C23_7 1_555 1_555
N3_2 C2_7 1_555 1_555
C2_7 H2_7 1_555 1_555
C3_7 C4_7 1_555 1_555
C4_7 C2_7 1_555 1_555
H3_7 C4_7 1_555 1_555
C5_7 N3_2 1_555 1_555
H4_7 C5_7 1_555 1_555
C7_7 C3_7 1_555 1_555
H6_7 C7_7 1_555 1_555
C22_7 C3_7 1_555 1_555
C5_7 C7_7 1_555 1_555
N3 C2_8 1_555 1_555
C2_8 H2_8 1_555 1_555
C3_8 C4_8 1_555 1_555
C4_8 C2_8 1_555 1_555
H3_8 C4_8 1_555 1_555
C5_8 N3 1_555 1_555
H4_8 C5_8 1_555 1_555
C7_8 C3_8 1_555 1_555
H6_8 C7_8 1_555 1_555
C22_8 C3_8 1_555 1_555
C5_8 C7_8 1_555 1_555
Cd4 N1_8 1_555 1_555
N1_8 C1_8 1_555 1_555
C1_8 H1_8 1_555 1_555
C6_8 N1_8 1_555 1_555
H5_6 C6_8 1_555 1_555
C8_8 C1_8 1_555 1_555
H7_8 C8_8 1_555 1_555
C9_6 C6_8 1_555 1_555
H8_6 C9_6 1_555 1_555
C11_6 C8_8 1_555 1_555
C13_8 C14_8 1_555 1_555
C14_8 C15_8 1_555 1_555
C16_8 C14_8 1_555 1_555
H11_8 C16_8 1_555 1_555
O1_8 Cd4 1_555 1_555
O3_8 Cd4 1_555 1_555
C9_6 C11_6 1_555 1_555
C10_6 C11_6 1_555 1_555
C13_8 O1_8 1_555 1_555
C13_8 O3_8 1_555 1_555
C18_8 O6_3 1_555 1_555
C18_8 C23_8 1_555 1_555
H8_7 C9_7 1_555 1_555
C9_7 C11_7 1_555 1_555
C10_7 C11_7 1_555 1_555
C12_7 C19_7 1_555 1_555
C19_7 H12_7 1_555 1_555
H13_7 C19_7 1_555 1_555
C20_7 C17_7 1_555 1_555
C21_7 C12_7 1_555 1_555
H15_7 C21_7 1_555 1_555
O5_7 C17_7 1_555 1_555
C19_7 O5_7 1_555 1_555
H8_8 C9_8 1_555 1_555
C9_8 C11_8 1_555 1_555
C10_8 C11_8 1_555 1_555
C12_8 C19_8 1_555 1_555
C19_8 H12_8 1_555 1_555
H13_8 C19_8 1_555 1_555
C20_8 C17_8 1_555 1_555
C21_8 C12_8 1_555 1_555
H15_8 C21_8 1_555 1_555
O5_8 C17_8 1_555 1_555
C19_8 O5_8 1_555 1_555

#END
