
###############################################################################
#
# This file contains modified crystal structure data generated from the
# MOF subset of the Cambridge Structural Database (CSD) v543 
# hosted by the Cambridge Crystallographic Data Centre (CCDC).
#
# This work is licensed under the Creative Commons
# Attribution-NonCommercial-ShareAlike 4.0 International License.
# To view a copy of this license, visit
# http://creativecommons.org/licenses/by-nc-sa/4.0/
# or send a letter to
# Creative Commons, PO Box 1866, Mountain View, CA 94042, USA.
#
# CIF created using the CSD Python API on 29 September 2022
# The structure has been converted into the P1 space group
# The structure has a 3D framework
# The original CSD entry GURPUF is in the orthorhombic crystal system
# The framework has been calculated to contain at least 10.0% void space
# The void calculation uses a probe of radius 1.32A, grid spacing 0.4
#
###############################################################################

data_GURPUF
_chemical_formula_moiety         '(C48 Cr8 Mn8 O95)n'
_symmetry_cell_setting           triclinic
_symmetry_space_group_name_H-M   'P 1'
_symmetry_Int_Tables_number      1
_space_group_name_Hall           'P 1'
loop_
_symmetry_equiv_pos_site_id
_symmetry_equiv_pos_as_xyz
1 x,y,z
_cell_length_a                   20.4650(3)
_cell_length_b                   21.2430(5)
_cell_length_c                   16.2740(5)
_cell_angle_alpha                90
_cell_angle_beta                 90
_cell_angle_gamma                90
_cell_volume                     7074.93
loop_
_atom_site_label
_atom_site_type_symbol
_atom_site_fract_x
_atom_site_fract_y
_atom_site_fract_z
O25 O 0.1126(3) 0.4957(3) 0.1091(3)
O26 O 0.0473(3) 0.5669(3) 0.0045(3)
O27 O 0.3745(3) 0.5089(3) 0.1181(4)
O28 O 0.4494(3) 0.5767(3) 0.0104(3)
Mn2 Mn 0.37477(6) 0.50538(6) 0.98338(8)
Cr1 Cr 0.11203(6) 0.49831(6) 0.98791(8)
Cr2 Cr 0.00011(7) 0.11672(6) 0.73828(9)
C1 C 0.2402(4) 0.4647(4) 0.9856(5)
C2 C 0.2387(4) 0.5379(4) 0.9834(5)
C3 C 0.0680(4) 0.4579(3) 0.8367(5)
C4 C 0.0327(4) 0.4166(4) 0.9014(5)
C7 C 0.0829(4) 0.0443(4) 0.6459(5)
C8 C 0.0397(4) 0.0813(4) 0.5836(5)
C10 C 0.0345(4) 0.2410(4) 0.7351(5)
O1 O 0.1853(3) 0.4385(2) 0.9842(4)
O2 O 0.1813(3) 0.5619(3) 0.9870(4)
O3 O 0.2943(3) 0.4381(2) 0.9888(4)
O4 O 0.2914(3) 0.5670(3) 0.9813(4)
O5 O 0.1043(3) 0.5016(2) 0.8673(3)
O6 O 0.0467(3) 0.4302(3) 0.9768(3)
O7 O 0.0605(3) 0.4461(3) 0.7643(3)
O13 O 0.1255(3) 0.0089(3) 0.6181(4)
O14 O 0.0506(3) 0.0767(3) 0.5104(3)
O16 O 0.0708(3) 0.0550(3) 0.7215(3)
O18 O 0.0604(3) 0.2926(3) 0.7322(4)
O20 O 0.0620(3) 0.1880(3) 0.7352(4)
O21 O 0.0065(3) 0.1083(3) 0.8588(3)
Mn3 Mn 0.12523(6) 0.00538(6) 0.48338(8)
O29 O 0.4524(3) 0.4368(3) 0.9624(3)
O30 O 0.3765(3) 0.4972(2) 0.8506(4)
Mn1 Mn 0.99111(7) 0.37051(5) 0.74185(8)
C5 C 0.9185(4) 0.4576(4) 0.6411(5)
C6 C 0.9573(4) 0.4166(4) 0.5800(5)
C9 C 0.9577(4) 0.2390(4) 0.7469(5)
C11 C 0.9624(4) 0.0724(4) 0.8892(5)
C12 C 0.9197(4) 0.0393(4) 0.8244(5)
O8 O 0.9952(3) 0.3768(3) 0.8762(4)
O9 O 0.8874(3) 0.5043(3) 0.6091(3)
O10 O 0.9527(3) 0.4331(3) 0.5045(3)
O11 O 0.9203(3) 0.4435(3) 0.7146(3)
O12 O 0.9874(3) 0.3718(3) 0.6075(3)
O15 O 0.9953(3) 0.1158(3) 0.6176(4)
O17 O 0.9274(3) 0.2884(3) 0.7507(3)
O19 O 0.9341(3) 0.1835(3) 0.7487(4)
O22 O 0.9313(3) 0.0525(3) 0.7505(4)
O23 O 0.9524(3) 0.0632(3) 0.9624(3)
O24 O 0.8765(3) 0.0028(2) 0.8506(4)
Cr3 Cr 0.88797(6) 0.50169(6) 0.48791(8)
Mn4 Mn 0.87477(6) 0.99462(6) 0.98338(8)
Mn1_2 Mn 0.00889(7) 0.62949(5) 0.24185(8)
C5_2 C 0.0815(4) 0.5424(4) 0.1411(5)
C6_2 C 0.0427(4) 0.5834(4) 0.0800(5)
C9_2 C 0.0423(4) 0.7610(4) 0.2469(5)
C11_2 C 0.0376(4) 0.9276(4) 0.3892(5)
C12_2 C 0.0803(4) 0.9607(4) 0.3244(5)
O8_2 O 0.0048(3) 0.6232(3) 0.3762(4)
O11_2 O 0.0797(3) 0.5565(3) 0.2146(3)
O12_2 O 0.0126(3) 0.6282(3) 0.1075(3)
O15_2 O 0.0047(3) 0.8842(3) 0.1176(4)
O17_2 O 0.0726(3) 0.7116(3) 0.2507(3)
O19_2 O 0.0659(3) 0.8165(3) 0.2487(4)
O22_2 O 0.0687(3) 0.9475(3) 0.2505(4)
O23_2 O 0.0476(3) 0.9368(3) 0.4624(3)
O24_2 O 0.1235(3) 0.9972(2) 0.3506(4)
Mn2_2 Mn 0.62523(6) 0.49462(6) 0.48338(8)
Cr2_2 Cr 0.99989(7) 0.88328(6) 0.23828(9)
C1_2 C 0.7598(4) 0.5353(4) 0.4856(5)
C2_2 C 0.7613(4) 0.4621(4) 0.4834(5)
C3_2 C 0.9320(4) 0.5421(3) 0.3367(5)
C4_2 C 0.9673(4) 0.5834(4) 0.4014(5)
C7_2 C 0.9171(4) 0.9557(4) 0.1459(5)
C8_2 C 0.9603(4) 0.9187(4) 0.0836(5)
C10_2 C 0.9655(4) 0.7590(4) 0.2351(5)
O1_2 O 0.8147(3) 0.5615(2) 0.4842(4)
O2_2 O 0.8187(3) 0.4381(3) 0.4870(4)
O3_2 O 0.7057(3) 0.5619(2) 0.4888(4)
O4_2 O 0.7086(3) 0.4330(3) 0.4813(4)
O5_2 O 0.8957(3) 0.4984(2) 0.3673(3)
O6_2 O 0.9533(3) 0.5698(3) 0.4768(3)
O7_2 O 0.9395(3) 0.5539(3) 0.2643(3)
O13_2 O 0.8745(3) 0.9911(3) 0.1181(4)
O14_2 O 0.9494(3) 0.9233(3) 0.0104(3)
O16_2 O 0.9292(3) 0.9450(3) 0.2215(3)
O18_2 O 0.9396(3) 0.7074(3) 0.2322(4)
O20_2 O 0.9380(3) 0.8120(3) 0.2352(4)
O21_2 O 0.9935(3) 0.8917(3) 0.3588(3)
O27_2 O 0.6255(3) 0.4911(3) 0.6181(4)
O28_2 O 0.5506(3) 0.4233(3) 0.5104(3)
O29_2 O 0.5476(3) 0.5632(3) 0.4624(3)
O30_2 O 0.6235(3) 0.5028(2) 0.3506(4)
C2_3 C 0.2613(4) 0.0379(4) 0.4834(5)
O2_3 O 0.3187(3) 0.0619(3) 0.4870(4)
O4_3 O 0.2086(3) 0.0670(3) 0.4813(4)
O5_3 O 0.3957(3) 0.0016(2) 0.3673(3)
O9_2 O 0.6126(3) 0.0043(3) 0.1091(3)
O26_2 O 0.4527(3) 0.0669(3) 0.5045(3)
Cr3_2 Cr 0.61203(6) 0.00169(6) 0.98791(8)
Mn1_3 Mn 0.50889(7) 0.87051(5) 0.24185(8)
Cr1_2 Cr 0.38797(6) 0.99831(6) 0.48791(8)
Cr2_3 Cr 0.49989(7) 0.61672(6) 0.23828(9)
C1_3 C 0.2598(4) 0.9647(4) 0.4856(5)
C3_3 C 0.4320(4) 0.9579(3) 0.3367(5)
C4_3 C 0.4673(4) 0.9166(4) 0.4014(5)
C5_3 C 0.5815(4) 0.9576(4) 0.1411(5)
C6_3 C 0.5427(4) 0.9166(4) 0.0800(5)
C7_3 C 0.4171(4) 0.5443(4) 0.1459(5)
C8_3 C 0.4603(4) 0.5813(4) 0.0836(5)
C9_3 C 0.5423(4) 0.7390(4) 0.2469(5)
C10_3 C 0.4655(4) 0.7410(4) 0.2351(5)
C11_3 C 0.5376(4) 0.5724(4) 0.3892(5)
C12_3 C 0.5803(4) 0.5393(4) 0.3244(5)
O1_3 O 0.3147(3) 0.9385(2) 0.4842(4)
O3_3 O 0.2057(3) 0.9381(2) 0.4888(4)
O6_3 O 0.4533(3) 0.9302(3) 0.4768(3)
O7_3 O 0.4395(3) 0.9461(3) 0.2643(3)
O8_3 O 0.5048(3) 0.8768(3) 0.3762(4)
O10_2 O 0.5473(3) 0.9331(3) 0.0045(3)
O11_3 O 0.5797(3) 0.9435(3) 0.2146(3)
O12_3 O 0.5126(3) 0.8718(3) 0.1075(3)
O15_3 O 0.5047(3) 0.6158(3) 0.1176(4)
O16_3 O 0.4292(3) 0.5550(3) 0.2215(3)
O17_3 O 0.5726(3) 0.7884(3) 0.2507(3)
O18_3 O 0.4396(3) 0.7926(3) 0.2322(4)
O19_3 O 0.5659(3) 0.6835(3) 0.2487(4)
O20_3 O 0.4380(3) 0.6880(3) 0.2352(4)
O21_3 O 0.4935(3) 0.6083(3) 0.3588(3)
O22_3 O 0.5687(3) 0.5525(3) 0.2505(4)
O25_2 O 0.3874(3) 0.9957(3) 0.6091(3)
Mn1_4 Mn 0.49111(7) 0.12949(5) 0.74185(8)
Cr2_4 Cr 0.50011(7) 0.38328(6) 0.73828(9)
C1_4 C 0.7402(4) 0.0353(4) 0.9856(5)
C3_4 C 0.5680(4) 0.0421(3) 0.8367(5)
C4_4 C 0.5327(4) 0.0834(4) 0.9014(5)
C5_4 C 0.4185(4) 0.0424(4) 0.6411(5)
C6_4 C 0.4573(4) 0.0834(4) 0.5800(5)
C7_4 C 0.5829(4) 0.4557(4) 0.6459(5)
C8_4 C 0.5397(4) 0.4187(4) 0.5836(5)
C9_4 C 0.4577(4) 0.2610(4) 0.7469(5)
C10_4 C 0.5345(4) 0.2590(4) 0.7351(5)
C11_4 C 0.4624(4) 0.4276(4) 0.8892(5)
C12_4 C 0.4197(4) 0.4607(4) 0.8244(5)
O1_4 O 0.6853(3) 0.0615(2) 0.9842(4)
O3_4 O 0.7943(3) 0.0619(2) 0.9888(4)
O6_4 O 0.5467(3) 0.0698(3) 0.9768(3)
O7_4 O 0.5605(3) 0.0539(3) 0.7643(3)
O8_4 O 0.4952(3) 0.1232(3) 0.8762(4)
O11_4 O 0.4203(3) 0.0565(3) 0.7146(3)
O12_4 O 0.4874(3) 0.1282(3) 0.6075(3)
O15_4 O 0.4953(3) 0.3842(3) 0.6176(4)
O16_4 O 0.5708(3) 0.4450(3) 0.7215(3)
O17_4 O 0.4274(3) 0.2116(3) 0.7507(3)
O18_4 O 0.5604(3) 0.2074(3) 0.7322(4)
O19_4 O 0.4341(3) 0.3165(3) 0.7487(4)
O20_4 O 0.5620(3) 0.3120(3) 0.7352(4)
O21_4 O 0.5065(3) 0.3917(3) 0.8588(3)
O22_4 O 0.4313(3) 0.4475(3) 0.7505(4)
C2_4 C 0.7387(4) 0.9621(4) 0.9834(5)
O2_4 O 0.6813(3) 0.9381(3) 0.9870(4)
O4_4 O 0.7914(3) 0.9330(3) 0.9813(4)
O5_4 O 0.6043(3) 0.9984(2) 0.8673(3)
loop_
_geom_bond_atom_site_label_1
_geom_bond_atom_site_label_2
_geom_bond_site_symmetry_1
_geom_bond_site_symmetry_2
Mn2 O3 1_555 1_555
Cr1 O1 1_555 1_555
C1 C2 1_555 1_555
C2 O2 1_555 1_555
C3 C4 1_555 1_555
C4 O6 1_555 1_555
C7 C8 1_555 1_555
C8 O14 1_555 1_555
C10 O18 1_555 1_555
O1 C1 1_555 1_555
O2 Cr1 1_555 1_555
O3 C1 1_555 1_555
O4 Mn2 1_555 1_555
O5 Cr1 1_555 1_555
O6 Cr1 1_555 1_555
O7 C3 1_555 1_555
O13 C7 1_555 1_555
O14 Mn3 1_555 1_555
O16 Cr2 1_555 1_555
O20 Cr2 1_555 1_555
O21 Cr2 1_555 1_555
Mn3 O13 1_555 1_555
O29 Mn2 1_555 1_555
O30 Mn2 1_555 1_555
C2 O4 1_555 1_555
C3 O5 1_555 1_555
C7 O16 1_555 1_555
C10 O20 1_555 1_555
C5 C6 1_555 1_555
C6 O10 1_555 1_555
C11 C12 1_555 1_555
C12 O22 1_555 1_555
O8 Mn1 1_555 1_555
O9 C5 1_555 1_555
O10 Cr3 1_555 1_555
O11 Mn1 1_555 1_555
O12 Mn1 1_555 1_555
O17 Mn1 1_555 1_555
O23 C11 1_555 1_555
O24 C12 1_555 1_555
Cr3 O9 1_555 1_555
C5 O11 1_555 1_555
C6 O12 1_555 1_555
C9 O17 1_555 1_555
C9 O19 1_555 1_555
C5_2 C6_2 1_555 1_555
C6_2 O26 1_555 1_555
C11_2 C12_2 1_555 1_555
C12_2 O22_2 1_555 1_555
O8_2 Mn1_2 1_555 1_555
O25 C5_2 1_555 1_555
O11_2 Mn1_2 1_555 1_555
O12_2 Mn1_2 1_555 1_555
O17_2 Mn1_2 1_555 1_555
O23_2 C11_2 1_555 1_555
O24_2 C12_2 1_555 1_555
C5_2 O11_2 1_555 1_555
C6_2 O12_2 1_555 1_555
C9_2 O17_2 1_555 1_555
C9_2 O19_2 1_555 1_555
Mn2_2 O3_2 1_555 1_555
Cr3 O1_2 1_555 1_555
C1_2 C2_2 1_555 1_555
C2_2 O2_2 1_555 1_555
C3_2 C4_2 1_555 1_555
C4_2 O6_2 1_555 1_555
C7_2 C8_2 1_555 1_555
C8_2 O14_2 1_555 1_555
C10_2 O18_2 1_555 1_555
O1_2 C1_2 1_555 1_555
O2_2 Cr3 1_555 1_555
O3_2 C1_2 1_555 1_555
O4_2 Mn2_2 1_555 1_555
O5_2 Cr3 1_555 1_555
O6_2 Cr3 1_555 1_555
O7_2 C3_2 1_555 1_555
O13_2 C7_2 1_555 1_555
O16_2 Cr2_2 1_555 1_555
O20_2 Cr2_2 1_555 1_555
O21_2 Cr2_2 1_555 1_555
O27_2 Mn2_2 1_555 1_555
O28_2 Mn2_2 1_555 1_555
O29_2 Mn2_2 1_555 1_555
O30_2 Mn2_2 1_555 1_555
C2_2 O4_2 1_555 1_555
C3_2 O5_2 1_555 1_555
C7_2 O16_2 1_555 1_555
C10_2 O20_2 1_555 1_555
C2_3 O2_3 1_555 1_555
O4_3 Mn3 1_555 1_555
C2_3 O4_3 1_555 1_555
Mn1_3 O7_3 1_555 1_555
Cr1_2 O1_3 1_555 1_555
Cr2_3 O15_3 1_555 1_555
C3_3 C4_3 1_555 1_555
C4_3 O6_3 1_555 1_555
C5_3 C6_3 1_555 1_555
C6_3 O10_2 1_555 1_555
C7_3 C8_3 1_555 1_555
C8_3 O28 1_555 1_555
C9_3 C10_3 1_555 1_555
C10_3 O18_3 1_555 1_555
C11_3 C12_3 1_555 1_555
C12_3 O22_3 1_555 1_555
O1_3 C1_3 1_555 1_555
O3_3 C1_3 1_555 1_555
O6_3 Cr1_2 1_555 1_555
O7_3 C3_3 1_555 1_555
O8_3 Mn1_3 1_555 1_555
O11_3 Mn1_3 1_555 1_555
O12_3 Mn1_3 1_555 1_555
O27 C7_3 1_555 1_555
O15_3 C8_3 1_555 1_555
O16_3 Cr2_3 1_555 1_555
O17_3 Mn1_3 1_555 1_555
O18_3 Mn1_3 1_555 1_555
O19_3 Cr2_3 1_555 1_555
O20_3 Cr2_3 1_555 1_555
O21_3 Cr2_3 1_555 1_555
O22_3 Cr2_3 1_555 1_555
O29_2 C11_3 1_555 1_555
O30_2 C12_3 1_555 1_555
O25_2 Cr1_2 1_555 1_555
C4_3 O8_3 1_555 1_555
C5_3 O11_3 1_555 1_555
C6_3 O12_3 1_555 1_555
C7_3 O16_3 1_555 1_555
C9_3 O17_3 1_555 1_555
C9_3 O19_3 1_555 1_555
C10_3 O20_3 1_555 1_555
C11_3 O21_3 1_555 1_555
Mn1_4 O7_4 1_555 1_555
Cr3_2 O1_4 1_555 1_555
Cr2_4 O15_4 1_555 1_555
C3_4 C4_4 1_555 1_555
C4_4 O6_4 1_555 1_555
C5_4 C6_4 1_555 1_555
C6_4 O26_2 1_555 1_555
C7_4 C8_4 1_555 1_555
C8_4 O28_2 1_555 1_555
C9_4 C10_4 1_555 1_555
C10_4 O18_4 1_555 1_555
C11_4 C12_4 1_555 1_555
C12_4 O22_4 1_555 1_555
O1_4 C1_4 1_555 1_555
O3_4 C1_4 1_555 1_555
O6_4 Cr3_2 1_555 1_555
O7_4 C3_4 1_555 1_555
O8_4 Mn1_4 1_555 1_555
O11_4 Mn1_4 1_555 1_555
O12_4 Mn1_4 1_555 1_555
O27_2 C7_4 1_555 1_555
O15_4 C8_4 1_555 1_555
O16_4 Cr2_4 1_555 1_555
O17_4 Mn1_4 1_555 1_555
O18_4 Mn1_4 1_555 1_555
O19_4 Cr2_4 1_555 1_555
O20_4 Cr2_4 1_555 1_555
O21_4 Cr2_4 1_555 1_555
O22_4 Cr2_4 1_555 1_555
O29 C11_4 1_555 1_555
O30 C12_4 1_555 1_555
C4_4 O8_4 1_555 1_555
C5_4 O11_4 1_555 1_555
C6_4 O12_4 1_555 1_555
C7_4 O16_4 1_555 1_555
C9_4 O17_4 1_555 1_555
C9_4 O19_4 1_555 1_555
C10_4 O20_4 1_555 1_555
C11_4 O21_4 1_555 1_555
C2_4 O2_4 1_555 1_555
O4_4 Mn4 1_555 1_555
C2_4 O4_4 1_555 1_555

#END
