
###############################################################################
#
# This file contains modified crystal structure data generated from the
# MOF subset of the Cambridge Structural Database (CSD) v543 
# hosted by the Cambridge Crystallographic Data Centre (CCDC).
#
# This work is licensed under the Creative Commons
# Attribution-NonCommercial-ShareAlike 4.0 International License.
# To view a copy of this license, visit
# http://creativecommons.org/licenses/by-nc-sa/4.0/
# or send a letter to
# Creative Commons, PO Box 1866, Mountain View, CA 94042, USA.
#
# CIF created using the CSD Python API on 29 September 2022
# The structure has been converted into the P1 space group
# The structure has a 3D framework
# The original CSD entry GURTIX is in the orthorhombic crystal system
# The framework has been calculated to contain at least 10.0% void space
# The void calculation uses a probe of radius 1.32A, grid spacing 0.4
# H atom positions have been added when not included in the experimental data
# Generated hydrogen atom positions removed from atoms on special positions
#
###############################################################################

data_GURTIX
_chemical_formula_moiety         '(C136 H104 In16 O96)n'
_symmetry_cell_setting           triclinic
_symmetry_space_group_name_H-M   'P 1'
_symmetry_Int_Tables_number      1
_space_group_name_Hall           'P 1'
loop_
_symmetry_equiv_pos_site_id
_symmetry_equiv_pos_as_xyz
1 x,y,z
_cell_length_a                   13.502(2)
_cell_length_b                   15.465(2)
_cell_length_c                   32.416(4)
_cell_angle_alpha                90
_cell_angle_beta                 90
_cell_angle_gamma                90
_cell_volume                     6768.73
loop_
_atom_site_label
_atom_site_type_symbol
_atom_site_fract_x
_atom_site_fract_y
_atom_site_fract_z
In1 In 0.27763(4) 0.07624(4) 0.341180(16)
In2 In 0.72279(4) 0.18182(4) 0.618460(16)
H1 H 0.0016 0.0079 0.2404
C10 C 0.6383(7) 0.1213(7) 0.5371(3)
C11 C 0.5754(7) 0.1427(7) 0.5033(3)
C12 C 0.5416(14) 0.2379(13) 0.4968(6)
H4 H 0.5636 0.2806 0.5148
C13 C 0.4840(15) 0.2583(14) 0.4671(6)
H5 H 0.4654 0.3145 0.4606
C14 C 0.4500(7) 0.1782(7) 0.4439(3)
C15 C 0.4987(9) 0.0957(9) 0.4431(4)
H6 H 0.4868 0.0558 0.4222
C16 C 0.5608(10) 0.0792(11) 0.4733(4)
H7 H 0.5941 0.0267 0.4746
C17 C 0.3782(6) 0.1938(6) 0.4133(3)
O1 O 0.2034(4) 0.0066(4) 0.29317(18)
O2 O 0.0764(5) 0.0468(5) 0.3189(2)
O7 O 0.6361(5) 0.1794(5) 0.5675(2)
O8 O 0.6856(6) 0.0476(7) 0.5350(2)
O9 O 0.3263(4) 0.2638(5) 0.42059(19)
O10 O 0.3771(4) 0.1370(4) 0.38256(18)
O11 O 0.1878(4) 0.1726(4) 0.36870(17)
H8 H 0.1252 0.1543 0.3769
In7 In 0.22279(4) 0.31818(4) 0.381540(16)
O13 O 0.3078(4) 0.1896(4) 0.29559(18)
O14 O 0.8229(4) 0.1745(4) 0.66613(19)
O15 O 0.6227(5) 0.1490(5) 0.6638(2)
O16 O 0.3872(4) 0.0038(4) 0.31299(18)
O17 O 0.8263(4) 0.2362(5) 0.57941(19)
O18 O 0.6878(4) 0.3274(4) 0.63130(17)
H10 H 0.6252 0.3457 0.6231
O19 O 0.7497(4) 0.0311(4) 0.61353(17)
H11 H 0.7762 0.0132 0.5885
H14 H 0.685221 0.00136287 0.617506
H16 H 0.737658 0.36291 0.616463
C1 C 0.0811(6) 0.9173(6) 0.2694(3)
C2 C 0.0182(6) 0.9496(6) 0.2421(2)
C4 C 0.0027(7) 0.7853(6) 0.2159(3)
C5 C 0.0652(7) 0.7514(6) 0.2433(3)
H3 H 0.0819 0.6931 0.2447
C6 C 0.1032(6) 0.8169(6) 0.2702(3)
C7 C 0.1217(6) 0.9957(6) 0.2970(3)
C8 C 0.1637(6) 0.7742(5) 0.3022(2)
O3 O 0.1922(4) 0.6896(4) 0.29559(18)
O4 O 0.1771(4) 0.8255(4) 0.33387(19)
O12 O 0.2503(4) 0.9689(4) 0.38647(17)
H9 H 0.2238 0.9868 0.4115
In3 In 0.22237(4) 0.57624(4) 0.341180(16)
In5 In 0.27721(4) 0.81818(4) 0.381540(16)
O6 O 0.8872(4) 0.0038(4) 0.18701(18)
In4 In 0.77763(4) 0.07624(4) 0.158820(16)
C3 C 0.9779(6) 0.8825(6) 0.2149(3)
H2 H 0.9729 0.7489 0.1967
C9 C 0.9089(6) 0.9158(6) 0.1862(2)
O5 O 0.8773(5) 0.8510(5) 0.1638(2)
In6 In 0.77721(4) 0.81818(4) 0.118460(16)
C1_2 C 0.4189(6) 0.0827(6) 0.7694(3)
C2_2 C 0.4818(6) 0.0504(6) 0.7421(2)
C3_2 C 0.5221(6) 0.1175(6) 0.7149(3)
C4_2 C 0.4973(7) 0.2147(6) 0.7159(3)
H2_2 H 0.5271 0.2511 0.6967
C5_2 C 0.4348(7) 0.2486(6) 0.7433(3)
H3_2 H 0.4181 0.3069 0.7447
C6_2 C 0.3968(6) 0.1831(6) 0.7702(3)
C7_2 C 0.3783(6) 0.0043(6) 0.7970(3)
C8_2 C 0.3363(6) 0.2258(5) 0.8022(2)
C9_2 C 0.5911(6) 0.0842(6) 0.6862(2)
O3_2 O 0.3078(4) 0.3104(4) 0.79559(18)
O4_2 O 0.3229(4) 0.1745(4) 0.83387(19)
O12_2 O 0.2497(4) 0.0311(4) 0.88647(17)
H9_2 H 0.2762 0.0132 0.9115
In3_2 In 0.27763(4) 0.42376(4) 0.841180(16)
In5_2 In 0.22279(4) 0.18182(4) 0.881540(16)
In1_2 In 0.22237(4) 0.92376(4) 0.841180(16)
H1_2 H 0.4984 0.9921 0.7404
C13_2 C 0.0160(15) 0.7417(14) 0.9671(6)
H5_2 H 0.0346 0.6855 0.9606
C14_2 C 0.0500(7) 0.8218(7) 0.9439(3)
C15_2 C 0.0013(9) 0.9043(9) 0.9431(4)
H6_2 H 0.0132 0.9442 0.9222
C17_2 C 0.1218(6) 0.8062(6) 0.9133(3)
O1_2 O 0.2966(4) 0.9934(4) 0.79317(18)
O2_2 O 0.4236(5) 0.9532(5) 0.8189(2)
O6_2 O 0.6128(4) 0.9962(4) 0.68701(18)
O9_2 O 0.1737(4) 0.7362(5) 0.92059(19)
O10_2 O 0.1229(4) 0.8630(4) 0.88256(18)
O11_2 O 0.3122(4) 0.8274(4) 0.86870(17)
H8_2 H 0.3748 0.8457 0.8769
In4_2 In 0.72237(4) 0.92376(4) 0.658820(16)
In7_2 In 0.27721(4) 0.68182(4) 0.881540(16)
O13_2 O 0.1922(4) 0.8104(4) 0.79559(18)
O16_2 O 0.1128(4) 0.9962(4) 0.81299(18)
C10_2 C 0.8617(7) 0.8787(7) 0.0371(3)
C11_2 C 0.9246(7) 0.8573(7) 0.0033(3)
H4_2 H 0.9364 0.7194 0.0148
O7_2 O 0.8639(5) 0.8206(5) 0.0675(2)
O8_2 O 0.8144(6) 0.9524(7) 0.0350(2)
O14_2 O 0.6771(4) 0.8255(4) 0.16613(19)
O17_2 O 0.6737(4) 0.7638(5) 0.07941(19)
O18_2 O 0.8122(4) 0.6726(4) 0.13130(17)
H10_2 H 0.8748 0.6543 0.1231
O19_2 O 0.7503(4) 0.9689(4) 0.11353(17)
H11_2 H 0.7238 0.9868 0.0885
H14_2 H 0.814779 0.998637 0.117506
H16_2 H 0.762342 0.63709 0.116463
C3_3 C 0.0221(6) 0.3825(6) 0.2851(3)
H2_3 H 0.0271 0.2489 0.3033
C9_3 C 0.0911(6) 0.4158(6) 0.3138(2)
O5_2 O 0.1227(5) 0.3510(5) 0.3362(2)
O6_3 O 0.1128(4) 0.5038(4) 0.31299(18)
In1_3 In 0.72237(4) 0.57624(4) 0.158820(16)
C1_3 C 0.9189(6) 0.4173(6) 0.2306(3)
C2_3 C 0.9818(6) 0.4496(6) 0.2579(2)
H1_3 H 0.9984 0.5079 0.2596
C4_3 C 0.9973(7) 0.2853(6) 0.2841(3)
C5_3 C 0.9348(7) 0.2514(6) 0.2567(3)
H3_3 H 0.9181 0.1931 0.2553
C6_3 C 0.8968(6) 0.3169(6) 0.2298(3)
C7_3 C 0.8783(6) 0.4957(6) 0.2030(3)
C8_3 C 0.8363(6) 0.2742(5) 0.1978(2)
C12_2 C 0.4584(14) 0.7379(13) 0.0032(6)
C13_3 C 0.5160(15) 0.7583(14) 0.0329(6)
H5_3 H 0.5346 0.8145 0.0394
C14_3 C 0.5500(7) 0.6782(7) 0.0561(3)
C15_3 C 0.5013(9) 0.5957(9) 0.0569(4)
H6_3 H 0.5132 0.5558 0.0778
C16_2 C 0.4392(10) 0.5792(11) 0.0267(4)
H7_2 H 0.4059 0.5267 0.0254
C17_3 C 0.6218(6) 0.6938(6) 0.0867(3)
O1_3 O 0.7966(4) 0.5066(4) 0.20683(18)
O2_3 O 0.9236(5) 0.5468(5) 0.1811(2)
O3_3 O 0.8078(4) 0.1896(4) 0.20441(18)
O4_3 O 0.8229(4) 0.3255(4) 0.16613(19)
O10_3 O 0.6229(4) 0.6370(4) 0.11744(18)
O12_3 O 0.7497(4) 0.4689(4) 0.11353(17)
H9_3 H 0.7762 0.4868 0.0885
In5_3 In 0.72279(4) 0.31818(4) 0.118460(16)
O13_3 O 0.6922(4) 0.6896(4) 0.20441(18)
O16_3 O 0.6128(4) 0.5038(4) 0.18701(18)
C10_3 C 0.3617(7) 0.6213(7) 0.9629(3)
C11_3 C 0.4246(7) 0.6427(7) 0.9967(3)
H4_3 H 0.4364 0.7806 0.9852
O7_3 O 0.3639(5) 0.6794(5) 0.9325(2)
O8_3 O 0.3144(6) 0.5476(7) 0.9650(2)
O14_3 O 0.1771(4) 0.6745(4) 0.83387(19)
O15_2 O 0.3773(5) 0.6490(5) 0.8362(2)
O19_3 O 0.2503(4) 0.5311(4) 0.88647(17)
H11_3 H 0.2238 0.5132 0.9115
H14_3 H 0.314779 0.501363 0.882494
H16_3 H 0.262342 0.86291 0.883537
C10_4 C 0.1383(7) 0.3787(7) 0.4629(3)
C11_4 C 0.0754(7) 0.3573(7) 0.4967(3)
C12_3 C 0.0416(14) 0.2621(13) 0.5032(6)
H4_4 H 0.0636 0.2194 0.4852
C16_3 C 0.0608(10) 0.4208(11) 0.5267(4)
H7_3 H 0.0941 0.4733 0.5254
O7_4 O 0.1361(5) 0.3206(5) 0.4325(2)
O8_4 O 0.1856(6) 0.4524(7) 0.4650(2)
O14_4 O 0.3229(4) 0.3255(4) 0.33387(19)
O19_4 O 0.2497(4) 0.4689(4) 0.38647(17)
H11_4 H 0.2762 0.4868 0.4115
H14_4 H 0.185221 0.498637 0.382494
H16_4 H 0.237658 0.13709 0.383537
In1_4 In 0.77763(4) 0.42376(4) 0.658820(16)
C1_4 C 0.5811(6) 0.5827(6) 0.7306(3)
C2_4 C 0.5182(6) 0.5504(6) 0.7579(2)
H1_4 H 0.5016 0.4921 0.7596
C3_4 C 0.4779(6) 0.6175(6) 0.7851(3)
C4_4 C 0.5027(7) 0.7147(6) 0.7841(3)
H2_4 H 0.4729 0.7511 0.8033
C5_4 C 0.5652(7) 0.7486(6) 0.7567(3)
H3_4 H 0.5819 0.8069 0.7553
C6_4 C 0.6032(6) 0.6831(6) 0.7298(3)
C7_4 C 0.6217(6) 0.5043(6) 0.7030(3)
C8_4 C 0.6637(6) 0.7258(5) 0.6978(2)
C9_4 C 0.4089(6) 0.5842(6) 0.8138(2)
C13_4 C 0.9840(15) 0.2417(14) 0.5329(6)
H5_4 H 0.9654 0.1855 0.5394
C14_4 C 0.9500(7) 0.3218(7) 0.5561(3)
C15_4 C 0.9987(9) 0.4043(9) 0.5569(4)
H6_4 H 0.9868 0.4442 0.5778
C17_4 C 0.8782(6) 0.3062(6) 0.5867(3)
O1_4 O 0.7034(4) 0.4934(4) 0.70683(18)
O2_4 O 0.5764(5) 0.4532(5) 0.6811(2)
O3_4 O 0.6922(4) 0.8104(4) 0.70441(18)
O4_4 O 0.6771(4) 0.6745(4) 0.66613(19)
O6_4 O 0.3872(4) 0.4962(4) 0.81299(18)
O10_4 O 0.8771(4) 0.3630(4) 0.61744(18)
O12_4 O 0.7503(4) 0.5311(4) 0.61353(17)
H9_4 H 0.7238 0.5132 0.5885
In5_4 In 0.77721(4) 0.68182(4) 0.618460(16)
O13_4 O 0.8078(4) 0.3104(4) 0.70441(18)
O16_4 O 0.8872(4) 0.4962(4) 0.68701(18)
C3_5 C 0.0221(6) 0.1175(6) 0.7851(3)
H2_5 H 0.0271 0.2511 0.8033
C9_5 C 0.0911(6) 0.0842(6) 0.8138(2)
O5_3 O 0.1227(5) 0.1490(5) 0.8362(2)
C1_5 C 0.9189(6) 0.0827(6) 0.7306(3)
C2_5 C 0.9818(6) 0.0504(6) 0.7579(2)
C4_5 C 0.9973(7) 0.2147(6) 0.7841(3)
C5_5 C 0.9348(7) 0.2486(6) 0.7567(3)
H3_5 H 0.9181 0.3069 0.7553
C6_5 C 0.8968(6) 0.1831(6) 0.7298(3)
C7_5 C 0.8783(6) 0.0043(6) 0.7030(3)
C8_5 C 0.8363(6) 0.2258(5) 0.6978(2)
H1_5 H 0.9984 0.9921 0.7596
C10_5 C 0.3617(7) 0.8787(7) 0.4629(3)
C11_5 C 0.4246(7) 0.8573(7) 0.4967(3)
C12_4 C 0.4584(14) 0.7621(13) 0.5032(6)
H4_5 H 0.4364 0.7194 0.4852
C13_5 C 0.5160(15) 0.7417(14) 0.5329(6)
H5_5 H 0.5346 0.6855 0.5394
C14_5 C 0.5500(7) 0.8218(7) 0.5561(3)
C15_5 C 0.5013(9) 0.9043(9) 0.5569(4)
H6_5 H 0.5132 0.9442 0.5778
C16_4 C 0.4392(10) 0.9208(11) 0.5267(4)
H7_4 H 0.4059 0.9733 0.5254
C17_5 C 0.6218(6) 0.8062(6) 0.5867(3)
O1_5 O 0.7966(4) 0.9934(4) 0.70683(18)
O2_5 O 0.9236(5) 0.9532(5) 0.6811(2)
O7_5 O 0.3639(5) 0.8206(5) 0.4325(2)
O8_5 O 0.3144(6) 0.9524(7) 0.4650(2)
O9_3 O 0.6737(4) 0.7362(5) 0.57941(19)
O10_5 O 0.6229(4) 0.8630(4) 0.61744(18)
O11_3 O 0.8122(4) 0.8274(4) 0.63130(17)
H8_3 H 0.8748 0.8457 0.6231
O15_3 O 0.3773(5) 0.8510(5) 0.3362(2)
O17_3 O 0.1737(4) 0.7638(5) 0.42059(19)
O18_3 O 0.3122(4) 0.6726(4) 0.36870(17)
H10_3 H 0.3748 0.6543 0.3769
H14_5 H 0.314779 0.998637 0.382494
H16_5 H 0.262342 0.63709 0.383537
C10_6 C 0.1383(7) 0.1213(7) 0.9629(3)
C11_6 C 0.0754(7) 0.1427(7) 0.9967(3)
H4_6 H 0.0636 0.2806 0.9852
O7_6 O 0.1361(5) 0.1794(5) 0.9325(2)
O8_6 O 0.1856(6) 0.0476(7) 0.9650(2)
O17_4 O 0.3263(4) 0.2362(5) 0.92059(19)
O18_4 O 0.1878(4) 0.3274(4) 0.86870(17)
H10_4 H 0.1252 0.3457 0.8769
H14_6 H 0.185221 0.00136287 0.882494
H16_6 H 0.237658 0.36291 0.883537
H1_6 H 0.5016 0.0079 0.2596
C13_6 C 0.9840(15) 0.2583(14) 0.0329(6)
H5_6 H 0.9654 0.3145 0.0394
C14_6 C 0.9500(7) 0.1782(7) 0.0561(3)
C15_6 C 0.9987(9) 0.0957(9) 0.0569(4)
H6_6 H 0.9868 0.0558 0.0778
C17_6 C 0.8782(6) 0.1938(6) 0.0867(3)
O1_6 O 0.7034(4) 0.0066(4) 0.20683(18)
O2_6 O 0.5764(5) 0.0468(5) 0.1811(2)
O9_4 O 0.8263(4) 0.2638(5) 0.07941(19)
O10_6 O 0.8771(4) 0.1370(4) 0.11744(18)
O11_4 O 0.6878(4) 0.1726(4) 0.13130(17)
H8_4 H 0.6252 0.1543 0.1231
C1_6 C 0.5811(6) 0.9173(6) 0.2306(3)
C2_6 C 0.5182(6) 0.9496(6) 0.2579(2)
C3_6 C 0.4779(6) 0.8825(6) 0.2851(3)
C4_6 C 0.5027(7) 0.7853(6) 0.2841(3)
H2_6 H 0.4729 0.7489 0.3033
C5_6 C 0.5652(7) 0.7514(6) 0.2567(3)
H3_6 H 0.5819 0.6931 0.2553
C6_6 C 0.6032(6) 0.8169(6) 0.2298(3)
C7_6 C 0.6217(6) 0.9957(6) 0.2030(3)
C8_6 C 0.6637(6) 0.7742(5) 0.1978(2)
C9_6 C 0.4089(6) 0.9158(6) 0.3138(2)
C10_7 C 0.6383(7) 0.3787(7) 0.0371(3)
C11_7 C 0.5754(7) 0.3573(7) 0.0033(3)
H4_7 H 0.5636 0.2194 0.0148
O7_7 O 0.6361(5) 0.3206(5) 0.0675(2)
O8_7 O 0.6856(6) 0.4524(7) 0.0350(2)
O15_4 O 0.6227(5) 0.3510(5) 0.1638(2)
H14_7 H 0.685221 0.498637 0.117506
H16_7 H 0.737658 0.13709 0.116463
C1_7 C 0.0811(6) 0.5827(6) 0.7694(3)
C2_7 C 0.0182(6) 0.5504(6) 0.7421(2)
H1_7 H 0.0016 0.4921 0.7404
C4_7 C 0.0027(7) 0.7147(6) 0.7159(3)
C5_7 C 0.0652(7) 0.7486(6) 0.7433(3)
H3_7 H 0.0819 0.8069 0.7447
C6_7 C 0.1032(6) 0.6831(6) 0.7702(3)
C7_7 C 0.1217(6) 0.5043(6) 0.7970(3)
C8_7 C 0.1637(6) 0.7258(5) 0.8022(2)
C12_5 C 0.5416(14) 0.2621(13) 0.9968(6)
C13_7 C 0.4840(15) 0.2417(14) 0.9671(6)
H5_7 H 0.4654 0.1855 0.9606
C14_7 C 0.4500(7) 0.3218(7) 0.9439(3)
C15_7 C 0.4987(9) 0.4043(9) 0.9431(4)
H6_7 H 0.4868 0.4442 0.9222
C16_5 C 0.5608(10) 0.4208(11) 0.9733(4)
H7_5 H 0.5941 0.4733 0.9746
C17_7 C 0.3782(6) 0.3062(6) 0.9133(3)
O1_7 O 0.2034(4) 0.4934(4) 0.79317(18)
O2_7 O 0.0764(5) 0.4532(5) 0.8189(2)
O10_7 O 0.3771(4) 0.3630(4) 0.88256(18)
C3_7 C 0.9779(6) 0.6175(6) 0.7149(3)
H2_7 H 0.9729 0.7511 0.6967
C9_7 C 0.9089(6) 0.5842(6) 0.6862(2)
O5_4 O 0.8773(5) 0.6490(5) 0.6638(2)
C1_8 C 0.4189(6) 0.4173(6) 0.2694(3)
C2_8 C 0.4818(6) 0.4496(6) 0.2421(2)
H1_8 H 0.4984 0.5079 0.2404
C3_8 C 0.5221(6) 0.3825(6) 0.2149(3)
C4_8 C 0.4973(7) 0.2853(6) 0.2159(3)
H2_8 H 0.5271 0.2489 0.1967
C5_8 C 0.4348(7) 0.2514(6) 0.2433(3)
H3_8 H 0.4181 0.1931 0.2447
C6_8 C 0.3968(6) 0.3169(6) 0.2702(3)
C7_8 C 0.3783(6) 0.4957(6) 0.2970(3)
C8_8 C 0.3363(6) 0.2742(5) 0.3022(2)
C9_8 C 0.5911(6) 0.4158(6) 0.1862(2)
C13_8 C 0.0160(15) 0.7583(14) 0.4671(6)
H5_8 H 0.0346 0.8145 0.4606
C14_8 C 0.0500(7) 0.6782(7) 0.4439(3)
C15_8 C 0.0013(9) 0.5957(9) 0.4431(4)
H6_8 H 0.0132 0.5558 0.4222
C17_8 C 0.1218(6) 0.6938(6) 0.4133(3)
O1_8 O 0.2966(4) 0.5066(4) 0.29317(18)
O2_8 O 0.4236(5) 0.5468(5) 0.3189(2)
O10_8 O 0.1229(4) 0.6370(4) 0.38256(18)
C10_8 C 0.8617(7) 0.6213(7) 0.5371(3)
C11_8 C 0.9246(7) 0.6427(7) 0.5033(3)
C12_6 C 0.9584(14) 0.7379(13) 0.4968(6)
H4_8 H 0.9364 0.7806 0.5148
C16_6 C 0.9392(10) 0.5792(11) 0.4733(4)
H7_6 H 0.9059 0.5267 0.4746
O7_8 O 0.8639(5) 0.6794(5) 0.5675(2)
O8_8 O 0.8144(6) 0.5476(7) 0.5350(2)
H14_8 H 0.814779 0.501363 0.617506
H16_8 H 0.762342 0.86291 0.616463
C12_7 C 0.9584(14) 0.7621(13) 0.9968(6)
C16_7 C 0.9392(10) 0.9208(11) 0.9733(4)
H7_7 H 0.9059 0.9733 0.9746
C12_8 C 0.0416(14) 0.2379(13) 0.0032(6)
C16_8 C 0.0608(10) 0.0792(11) 0.0267(4)
H7_8 H 0.0941 0.0267 0.0254
O20 O 0.2897(11) 0.9289(15) 0.2193(6)
O20_2 O 0.2103(11) 0.0711(15) 0.7193(6)
O20_3 O 0.7103(11) 0.4289(15) 0.2807(6)
O20_4 O 0.7897(11) 0.5711(15) 0.7807(6)
O20_5 O 0.7103(11) 0.0711(15) 0.7807(6)
O20_6 O 0.7897(11) 0.9289(15) 0.2807(6)
O20_7 O 0.2897(11) 0.5711(15) 0.7193(6)
O20_8 O 0.2103(11) 0.4289(15) 0.2193(6)
loop_
_geom_bond_atom_site_label_1
_geom_bond_atom_site_label_2
_geom_bond_site_symmetry_1
_geom_bond_site_symmetry_2
In1 O1 1_555 1_555
In2 O7 1_555 1_555
C10 C11 1_555 1_555
C11 C12 1_555 1_555
C12 H4 1_555 1_555
C13 C12 1_555 1_555
H5 C13 1_555 1_555
C14 C13 1_555 1_555
C15 C14 1_555 1_555
H6 C15 1_555 1_555
C16 C11 1_555 1_555
H7 C16 1_555 1_555
C17 C14 1_555 1_555
O7 C10 1_555 1_555
O8 C10 1_555 1_555
O9 C17 1_555 1_555
O10 In1 1_555 1_555
O11 In1 1_555 1_555
H8 O11 1_555 1_555
In7 O9 1_555 1_555
O13 In1 1_555 1_555
O14 In2 1_555 1_555
O15 In2 1_555 1_555
O16 In1 1_555 1_555
O17 In2 1_555 1_555
O18 In2 1_555 1_555
H10 O18 1_555 1_555
O19 In2 1_555 1_555
H11 O19 1_555 1_555
C15 C16 1_555 1_555
C17 O10 1_555 1_555
O11 In7 1_555 1_555
O19 H14 1_555 1_555
O18 H16 1_555 1_555
C1 C2 1_555 1_555
C5 C4 1_555 1_555
H3 C5 1_555 1_555
C6 C1 1_555 1_555
C7 C1 1_555 1_555
C8 C6 1_555 1_555
O3 C8 1_555 1_555
O4 C8 1_555 1_555
H9 O12 1_555 1_555
In3 O3 1_555 1_555
In5 O4 1_555 1_555
C5 C6 1_555 1_555
O12 In5 1_555 1_555
In4 O6 1_555 1_555
C9 C3 1_555 1_555
O5 C9 1_555 1_555
In6 O5 1_555 1_555
C1_2 C2_2 1_555 1_555
C3_2 C2_2 1_555 1_555
C4_2 C3_2 1_555 1_555
H2_2 C4_2 1_555 1_555
C5_2 C4_2 1_555 1_555
H3_2 C5_2 1_555 1_555
C6_2 C1_2 1_555 1_555
C7_2 C1_2 1_555 1_555
C8_2 C6_2 1_555 1_555
C9_2 C3_2 1_555 1_555
O3_2 C8_2 1_555 1_555
O4_2 C8_2 1_555 1_555
O15 C9_2 1_555 1_555
H9_2 O12_2 1_555 1_555
In3_2 O3_2 1_555 1_555
In5_2 O4_2 1_555 1_555
C5_2 C6_2 1_555 1_555
O12_2 In5_2 1_555 1_555
In1_2 O1_2 1_555 1_555
H5_2 C13_2 1_555 1_555
C14_2 C13_2 1_555 1_555
C15_2 C14_2 1_555 1_555
H6_2 C15_2 1_555 1_555
C17_2 C14_2 1_555 1_555
O9_2 C17_2 1_555 1_555
O10_2 In1_2 1_555 1_555
O11_2 In1_2 1_555 1_555
H8_2 O11_2 1_555 1_555
In4_2 O6_2 1_555 1_555
In7_2 O9_2 1_555 1_555
O13_2 In1_2 1_555 1_555
O16_2 In1_2 1_555 1_555
C17_2 O10_2 1_555 1_555
O11_2 In7_2 1_555 1_555
In6 O7_2 1_555 1_555
C10_2 C11_2 1_555 1_555
O7_2 C10_2 1_555 1_555
O8_2 C10_2 1_555 1_555
O14_2 In6 1_555 1_555
O17_2 In6 1_555 1_555
O18_2 In6 1_555 1_555
H10_2 O18_2 1_555 1_555
O19_2 In6 1_555 1_555
H11_2 O19_2 1_555 1_555
O19_2 H14_2 1_555 1_555
O18_2 H16_2 1_555 1_555
C9_3 C3_3 1_555 1_555
O5_2 C9_3 1_555 1_555
O6_3 C9_3 1_555 1_555
In3 O6_3 1_555 1_555
In7 O5_2 1_555 1_555
In1_3 O1_3 1_555 1_555
C1_3 C2_3 1_555 1_555
C2_3 H1_3 1_555 1_555
C5_3 C4_3 1_555 1_555
H3_3 C5_3 1_555 1_555
C6_3 C1_3 1_555 1_555
C7_3 C1_3 1_555 1_555
C8_3 C6_3 1_555 1_555
C13_3 C12_2 1_555 1_555
H5_3 C13_3 1_555 1_555
C14_3 C13_3 1_555 1_555
C15_3 C14_3 1_555 1_555
H6_3 C15_3 1_555 1_555
H7_2 C16_2 1_555 1_555
C17_3 C14_3 1_555 1_555
O1_3 C7_3 1_555 1_555
O2_3 C7_3 1_555 1_555
O3_3 C8_3 1_555 1_555
O4_3 C8_3 1_555 1_555
O17_2 C17_3 1_555 1_555
O10_3 In1_3 1_555 1_555
O18_2 In1_3 1_555 1_555
O12_3 In1_3 1_555 1_555
H9_3 O12_3 1_555 1_555
In4 O3_3 1_555 1_555
In5_3 O4_3 1_555 1_555
O13_3 In1_3 1_555 1_555
O16_3 In1_3 1_555 1_555
C5_3 C6_3 1_555 1_555
C15_3 C16_2 1_555 1_555
C17_3 O10_3 1_555 1_555
O12_3 In5_3 1_555 1_555
In7_2 O7_3 1_555 1_555
C10_3 C11_3 1_555 1_555
O7_3 C10_3 1_555 1_555
O8_3 C10_3 1_555 1_555
O14_3 In7_2 1_555 1_555
O15_2 In7_2 1_555 1_555
O19_3 In7_2 1_555 1_555
H11_3 O19_3 1_555 1_555
O19_3 H14_3 1_555 1_555
O11_2 H16_3 1_555 1_555
In7 O7_4 1_555 1_555
C10_4 C11_4 1_555 1_555
C11_4 C12_3 1_555 1_555
C12_3 H4_4 1_555 1_555
C16_3 C11_4 1_555 1_555
H7_3 C16_3 1_555 1_555
O7_4 C10_4 1_555 1_555
O8_4 C10_4 1_555 1_555
O14_4 In7 1_555 1_555
O19_4 In7 1_555 1_555
H11_4 O19_4 1_555 1_555
O19_4 H14_4 1_555 1_555
O11 H16_4 1_555 1_555
In1_4 O1_4 1_555 1_555
C1_4 C2_4 1_555 1_555
C2_4 H1_4 1_555 1_555
C3_4 C2_4 1_555 1_555
C4_4 C3_4 1_555 1_555
H2_4 C4_4 1_555 1_555
C5_4 C4_4 1_555 1_555
H3_4 C5_4 1_555 1_555
C6_4 C1_4 1_555 1_555
C7_4 C1_4 1_555 1_555
C8_4 C6_4 1_555 1_555
C9_4 C3_4 1_555 1_555
H5_4 C13_4 1_555 1_555
C14_4 C13_4 1_555 1_555
C15_4 C14_4 1_555 1_555
H6_4 C15_4 1_555 1_555
C17_4 C14_4 1_555 1_555
O1_4 C7_4 1_555 1_555
O2_4 C7_4 1_555 1_555
O3_4 C8_4 1_555 1_555
O4_4 C8_4 1_555 1_555
O15_2 C9_4 1_555 1_555
O6_4 C9_4 1_555 1_555
O17 C17_4 1_555 1_555
O10_4 In1_4 1_555 1_555
O18 In1_4 1_555 1_555
O12_4 In1_4 1_555 1_555
H9_4 O12_4 1_555 1_555
In4_2 O3_4 1_555 1_555
In3_2 O6_4 1_555 1_555
In5_4 O4_4 1_555 1_555
O13_4 In1_4 1_555 1_555
O16_4 In1_4 1_555 1_555
C5_4 C6_4 1_555 1_555
C17_4 O10_4 1_555 1_555
O12_4 In5_4 1_555 1_555
C9_5 C3_5 1_555 1_555
O5_3 C9_5 1_555 1_555
In5_2 O5_3 1_555 1_555
C1_5 C2_5 1_555 1_555
C5_5 C4_5 1_555 1_555
H3_5 C5_5 1_555 1_555
C6_5 C1_5 1_555 1_555
C7_5 C1_5 1_555 1_555
C8_5 C6_5 1_555 1_555
O13_4 C8_5 1_555 1_555
O14 C8_5 1_555 1_555
C5_5 C6_5 1_555 1_555
In4_2 O1_5 1_555 1_555
In5 O7_5 1_555 1_555
C10_5 C11_5 1_555 1_555
C11_5 C12_4 1_555 1_555
C12_4 H4_5 1_555 1_555
C13_5 C12_4 1_555 1_555
H5_5 C13_5 1_555 1_555
C14_5 C13_5 1_555 1_555
C15_5 C14_5 1_555 1_555
H6_5 C15_5 1_555 1_555
C16_4 C11_5 1_555 1_555
H7_4 C16_4 1_555 1_555
C17_5 C14_5 1_555 1_555
O7_5 C10_5 1_555 1_555
O8_5 C10_5 1_555 1_555
O9_3 C17_5 1_555 1_555
O10_5 In4_2 1_555 1_555
O11_3 In4_2 1_555 1_555
H8_3 O11_3 1_555 1_555
In5_4 O9_3 1_555 1_555
O15_3 In5 1_555 1_555
O17_3 In5 1_555 1_555
O18_3 In5 1_555 1_555
H10_3 O18_3 1_555 1_555
C15_5 C16_4 1_555 1_555
C17_5 O10_5 1_555 1_555
O11_3 In5_4 1_555 1_555
O12 H14_5 1_555 1_555
O18_3 H16_5 1_555 1_555
In5_2 O7_6 1_555 1_555
C10_6 C11_6 1_555 1_555
O7_6 C10_6 1_555 1_555
O8_6 C10_6 1_555 1_555
O17_4 In5_2 1_555 1_555
O18_4 In5_2 1_555 1_555
H10_4 O18_4 1_555 1_555
O12_2 H14_6 1_555 1_555
O18_4 H16_6 1_555 1_555
In4 O1_6 1_555 1_555
H5_6 C13_6 1_555 1_555
C14_6 C13_6 1_555 1_555
C15_6 C14_6 1_555 1_555
H6_6 C15_6 1_555 1_555
C17_6 C14_6 1_555 1_555
O9_4 C17_6 1_555 1_555
O10_6 In4 1_555 1_555
O11_4 In4 1_555 1_555
H8_4 O11_4 1_555 1_555
In5_3 O9_4 1_555 1_555
C17_6 O10_6 1_555 1_555
O11_4 In5_3 1_555 1_555
C1_6 C2_6 1_555 1_555
C3_6 C2_6 1_555 1_555
C4_6 C3_6 1_555 1_555
H2_6 C4_6 1_555 1_555
C5_6 C4_6 1_555 1_555
H3_6 C5_6 1_555 1_555
C6_6 C1_6 1_555 1_555
C7_6 C1_6 1_555 1_555
C8_6 C6_6 1_555 1_555
C9_6 C3_6 1_555 1_555
O13_3 C8_6 1_555 1_555
O14_2 C8_6 1_555 1_555
O15_3 C9_6 1_555 1_555
C5_6 C6_6 1_555 1_555
In5_3 O7_7 1_555 1_555
C10_7 C11_7 1_555 1_555
O7_7 C10_7 1_555 1_555
O8_7 C10_7 1_555 1_555
O15_4 In5_3 1_555 1_555
O12_3 H14_7 1_555 1_555
O11_4 H16_7 1_555 1_555
In3_2 O1_7 1_555 1_555
C1_7 C2_7 1_555 1_555
C2_7 H1_7 1_555 1_555
C5_7 C4_7 1_555 1_555
H3_7 C5_7 1_555 1_555
C6_7 C1_7 1_555 1_555
C7_7 C1_7 1_555 1_555
C8_7 C6_7 1_555 1_555
C13_7 C12_5 1_555 1_555
H5_7 C13_7 1_555 1_555
C14_7 C13_7 1_555 1_555
C15_7 C14_7 1_555 1_555
H6_7 C15_7 1_555 1_555
H7_5 C16_5 1_555 1_555
C17_7 C14_7 1_555 1_555
O1_7 C7_7 1_555 1_555
O2_7 C7_7 1_555 1_555
O13_2 C8_7 1_555 1_555
O14_3 C8_7 1_555 1_555
O17_4 C17_7 1_555 1_555
O10_7 In3_2 1_555 1_555
O18_4 In3_2 1_555 1_555
O19_3 In3_2 1_555 1_555
C5_7 C6_7 1_555 1_555
C15_7 C16_5 1_555 1_555
C17_7 O10_7 1_555 1_555
C9_7 C3_7 1_555 1_555
O5_4 C9_7 1_555 1_555
O16_4 C9_7 1_555 1_555
In5_4 O5_4 1_555 1_555
In3 O1_8 1_555 1_555
C1_8 C2_8 1_555 1_555
C2_8 H1_8 1_555 1_555
C3_8 C2_8 1_555 1_555
C4_8 C3_8 1_555 1_555
H2_8 C4_8 1_555 1_555
C5_8 C4_8 1_555 1_555
H3_8 C5_8 1_555 1_555
C6_8 C1_8 1_555 1_555
C7_8 C1_8 1_555 1_555
C8_8 C6_8 1_555 1_555
C9_8 C3_8 1_555 1_555
H5_8 C13_8 1_555 1_555
C14_8 C13_8 1_555 1_555
C15_8 C14_8 1_555 1_555
H6_8 C15_8 1_555 1_555
C17_8 C14_8 1_555 1_555
O1_8 C7_8 1_555 1_555
O2_8 C7_8 1_555 1_555
O13 C8_8 1_555 1_555
O14_4 C8_8 1_555 1_555
O15_4 C9_8 1_555 1_555
O16_3 C9_8 1_555 1_555
O17_3 C17_8 1_555 1_555
O10_8 In3 1_555 1_555
O18_3 In3 1_555 1_555
O19_4 In3 1_555 1_555
C5_8 C6_8 1_555 1_555
C17_8 O10_8 1_555 1_555
In5_4 O7_8 1_555 1_555
C10_8 C11_8 1_555 1_555
C11_8 C12_6 1_555 1_555
C12_6 H4_8 1_555 1_555
C16_6 C11_8 1_555 1_555
H7_6 C16_6 1_555 1_555
O7_8 C10_8 1_555 1_555
O8_8 C10_8 1_555 1_555
O12_4 H14_8 1_555 1_555
O11_3 H16_8 1_555 1_555
H7_7 C16_7 1_555 1_555
H7_8 C16_8 1_555 1_555

#END
