
###############################################################################
#
# This file contains modified crystal structure data generated from the
# MOF subset of the Cambridge Structural Database (CSD) v543 
# hosted by the Cambridge Crystallographic Data Centre (CCDC).
#
# This work is licensed under the Creative Commons
# Attribution-NonCommercial-ShareAlike 4.0 International License.
# To view a copy of this license, visit
# http://creativecommons.org/licenses/by-nc-sa/4.0/
# or send a letter to
# Creative Commons, PO Box 1866, Mountain View, CA 94042, USA.
#
# CIF created using the CSD Python API on 29 September 2022
# The structure has been converted into the P1 space group
# The structure has a 3D framework
# The original CSD entry GUSCIH is in the triclinic crystal system
# The framework has been calculated to contain at least 10.0% void space
# The void calculation uses a probe of radius 1.32A, grid spacing 0.4
#
###############################################################################

data_GUSCIH
_chemical_formula_moiety         '(C30 H24 Gd2 N3 Ni2 O26)n'
_symmetry_cell_setting           triclinic
_symmetry_space_group_name_H-M   'P 1'
_symmetry_Int_Tables_number      1
_space_group_name_Hall           'P 1'
loop_
_symmetry_equiv_pos_site_id
_symmetry_equiv_pos_as_xyz
1 x,y,z
_cell_length_a                   9.9962(2)
_cell_length_b                   10.6260(2)
_cell_length_c                   10.8273(2)
_cell_angle_alpha                80.5520(10)
_cell_angle_beta                 73.1170(10)
_cell_angle_gamma                74.1290(10)
_cell_volume                     1054.06
loop_
_atom_site_label
_atom_site_type_symbol
_atom_site_fract_x
_atom_site_fract_y
_atom_site_fract_z
_atom_site_U_iso_or_equiv
_atom_site_thermal_displace_type
H7 H 0.484(3) 0.095(2) 0.118(2) 0.0250 Uiso
H8 H 0.5803(17) 0.125(3) 0.017(2) 0.0250 Uiso
H9 H 0.192(3) 0.072(3) 0.0310(17) 0.0250 Uiso
O11 O 0.4997(3) 0.1522(3) 0.0599(2) 0.0390 Uani
C28 C 0.0991(3) 0.3297(3) 0.1989(3) 0.0191 Uani
C30 C 0.4403(3) 0.5228(3) 0.0609(3) 0.0193 Uani
Gd2 Gd 0.674839(14) 0.692828(13) 0.036668(12) 0.0166 Uani
H22 H 0.763(4) 0.911(3) 0.0936(14) 0.0250 Uiso
N5 N 0.0347(3) 0.2902(2) 0.4301(2) 0.0219 Uani
Ni4 Ni 0.21315(4) 0.13247(4) 0.37991(3) 0.0194 Uani
O18 O 0.5264(2) 0.8046(2) 0.20968(19) 0.0257 Uani
O21 O 0.0790(2) 0.3961(2) 0.09702(18) 0.0232 Uani
O23 O 0.2119(2) 0.2384(2) 0.20067(18) 0.0209 Uani
O27 O 0.7465(2) 0.4892(2) 0.1711(2) 0.0287 Uani
O29 O 0.8303(2) 0.6527(2) 0.1935(2) 0.0292 Uani
O30 O 0.4565(2) 0.6083(2) 0.1175(2) 0.0278 Uani
O31 O 0.3363(2) 0.4683(2) 0.09314(19) 0.0251 Uani
O33 O 0.7669(3) 0.8836(3) 0.0269(2) 0.0388 Uani
C1 C 0.4550(3) 0.2689(3) 0.3393(3) 0.0261 Uani
H1 H 0.4362 0.3056 0.2602 0.0310 Uiso
C2 C 0.5737(4) 0.2872(3) 0.3682(3) 0.0314 Uani
H2 H 0.6343 0.3346 0.3093 0.0380 Uiso
C3 C 0.6007(3) 0.2342(3) 0.4855(3) 0.0276 Uani
H3 H 0.6810 0.2443 0.5061 0.0330 Uiso
C4 C 0.5073(3) 0.1650(3) 0.5738(3) 0.0188 Uani
C5 C 0.3911(3) 0.1494(3) 0.5373(3) 0.0184 Uani
C6 C 0.2858(3) 0.0701(3) 0.6194(3) 0.0208 Uani
C7 C 0.5336(3) 0.1165(3) 0.7052(3) 0.0180 Uani
C8 C 0.0458(3) 0.6817(3) 0.4511(3) 0.0279 Uani
H4 H 0.0168 0.7301 0.3797 0.0330 Uiso
C9 C 0.1709(4) 0.5830(3) 0.4309(3) 0.0312 Uani
H5 H 0.2242 0.5640 0.3473 0.0370 Uiso
C10 C 0.2153(3) 0.5129(3) 0.5375(3) 0.0286 Uani
H6 H 0.3003 0.4475 0.5259 0.0340 Uiso
C11 C 0.1325(3) 0.5404(3) 0.6617(3) 0.0204 Uani
C12 C 0.0067(3) 0.6388(3) 0.6732(3) 0.0189 Uani
C14 C 0.1858(3) 0.4620(3) 0.7760(3) 0.0214 Uani
C15 C 0.5597(3) 0.4772(3) 0.9391(3) 0.0193 Uani
Gd1 Gd 0.325161(14) 0.307172(13) 0.963332(12) 0.0166 Uani
H10 H 0.237(4) 0.089(3) 0.9064(14) 0.0250 Uiso
N1 N 0.3664(3) 0.2004(2) 0.4208(2) 0.0205 Uani
O1 O 0.1981(2) 0.0516(2) 0.56454(18) 0.0245 Uani
O2 O 0.2937(2) 0.0267(2) 0.73153(19) 0.0289 Uani
O3 O 0.4736(2) 0.1954(2) 0.79032(19) 0.0257 Uani
O4 O 0.6171(2) 0.0081(2) 0.72265(19) 0.0263 Uani
O7 O 0.2535(2) 0.5108(2) 0.8289(2) 0.0287 Uani
O8 O 0.1697(2) 0.3473(2) 0.8065(2) 0.0292 Uani
O9 O 0.5435(2) 0.3917(2) 0.8825(2) 0.0278 Uani
O10 O 0.6637(2) 0.5317(2) 0.90686(19) 0.0251 Uani
O12 O 0.2331(3) 0.1164(3) 0.9731(2) 0.0388 Uani
O13 O 0.0818(3) 0.0217(3) 0.3599(2) 0.0368 Uani
H12 H 0.0178 0.0691 0.3286 0.0550 Uiso
H19 H 0.516(3) 0.905(2) 0.882(2) 0.0250 Uiso
H20 H 0.4197(17) 0.875(3) 0.983(2) 0.0250 Uiso
H21 H 0.808(3) 0.928(3) 0.9690(17) 0.0250 Uiso
O22 O 0.9210(2) 0.6039(2) 0.90298(18) 0.0232 Uani
O25 O 0.7881(2) 0.7616(2) 0.79933(18) 0.0209 Uani
O32 O 0.5003(3) 0.8478(3) 0.9401(2) 0.0390 Uani
H11 H 0.124(3) 0.967(2) 0.309(2) 0.0250 Uiso
C16 C 0.5450(3) 0.7311(3) 0.6607(3) 0.0261 Uani
H13 H 0.5638 0.6944 0.7398 0.0310 Uiso
C17 C 0.4263(4) 0.7128(3) 0.6318(3) 0.0314 Uani
H14 H 0.3657 0.6654 0.6907 0.0380 Uiso
C18 C 0.3993(3) 0.7658(3) 0.5145(3) 0.0276 Uani
H15 H 0.3190 0.7557 0.4939 0.0330 Uiso
C19 C 0.4927(3) 0.8350(3) 0.4262(3) 0.0188 Uani
C20 C 0.6089(3) 0.8506(3) 0.4627(3) 0.0184 Uani
C21 C 0.7142(3) 0.9299(3) 0.3806(3) 0.0208 Uani
C22 C 0.4664(3) 0.8835(3) 0.2948(3) 0.0180 Uani
N3 N 0.6336(3) 0.7996(2) 0.5792(2) 0.0205 Uani
Ni3 Ni 0.78685(4) 0.86753(4) 0.62009(3) 0.0194 Uani
O14 O 0.8019(2) 0.9484(2) 0.43546(18) 0.0245 Uani
O16 O 0.7063(2) 0.9733(2) 0.26847(19) 0.0289 Uani
O19 O 0.3829(2) 0.9919(2) 0.27735(19) 0.0263 Uani
H23 H 0.876(3) 0.033(2) 0.691(2) 0.0250 Uiso
C23 C 0.9542(3) 0.3183(3) 0.5489(3) 0.0279 Uani
H16 H 0.9832 0.2699 0.6203 0.0330 Uiso
C24 C 0.8291(4) 0.4170(3) 0.5691(3) 0.0312 Uani
H17 H 0.7758 0.4360 0.6527 0.0370 Uiso
C25 C 0.7847(3) 0.4871(3) 0.4625(3) 0.0286 Uani
H18 H 0.6997 0.5525 0.4741 0.0340 Uiso
C26 C 0.8675(3) 0.4596(3) 0.3383(3) 0.0204 Uani
C27 C 0.9933(3) 0.3612(3) 0.3268(3) 0.0189 Uani
C29 C 0.8142(3) 0.5380(3) 0.2240(3) 0.0214 Uani
C13 C 0.9009(3) 0.6703(3) 0.8011(3) 0.0191 Uani
N2 N 0.9653(3) 0.7098(2) 0.5699(2) 0.0219 Uani
O34 O 0.9182(3) 0.9783(3) 0.6401(2) 0.0368 Uani
H24 H 0.9822 0.9309 0.6714 0.0550 Uiso
loop_
_atom_site_aniso_label
_atom_site_aniso_U_11
_atom_site_aniso_U_22
_atom_site_aniso_U_33
_atom_site_aniso_U_23
_atom_site_aniso_U_13
_atom_site_aniso_U_12
O11 0.03 0.0485 0.0237 0.0069 -0.0047 0.0061
C28 0.0212 0.0192 0.0163 -0.0014 -0.0045 -0.0044
C30 0.0197 0.0176 0.0195 -0.0003 -0.0067 -0.002
Gd2 0.01792 0.01639 0.01464 -0.00172 -0.00418 -0.0027
N5 0.023 0.0227 0.0168 0.0002 -0.0052 -0.0014
Ni4 0.02099 0.0204 0.01644 -3e-05 -0.00759 -0.00222
O18 0.0271 0.0277 0.0212 -0.011 -0.0047 -0.0011
O21 0.0208 0.0287 0.0166 0.0023 -0.005 -0.0026
O23 0.0198 0.0219 0.0168 -0.0015 -0.0045 0.0015
O27 0.0303 0.0292 0.0296 0.0074 -0.0145 -0.0107
O29 0.0327 0.0217 0.0335 0.0031 -0.0142 -0.0043
O30 0.0256 0.0323 0.0285 -0.0136 -0.0014 -0.0115
O31 0.0233 0.0292 0.0244 -0.0062 -0.0016 -0.0114
O33 0.0576 0.0393 0.0248 -0.0063 -0.0001 -0.0297
C1 0.036 0.0247 0.0174 0.001 -0.0075 -0.0079
C2 0.0379 0.0335 0.0241 0.0053 -0.0056 -0.0178
C3 0.0295 0.0298 0.0275 0.0021 -0.0102 -0.0135
C4 0.0235 0.0146 0.0167 -0.0032 -0.0054 -0.0006
C5 0.0217 0.0156 0.0166 -0.0016 -0.0066 -0.0006
C6 0.0216 0.0208 0.0178 -0.0013 -0.0049 -0.0018
C7 0.0182 0.0192 0.0171 -0.0015 -0.0053 -0.0045
C8 0.0301 0.0333 0.016 0.0023 -0.0066 -0.0028
C9 0.034 0.0356 0.0172 -0.0065 -0.0005 -0.0014
C10 0.0261 0.0279 0.0248 -0.0034 -0.0032 0.0017
C11 0.0214 0.0209 0.0182 0.0002 -0.0051 -0.0053
C12 0.0208 0.0197 0.0159 -0.0003 -0.0043 -0.0054
C14 0.0165 0.0245 0.0182 -0.0014 -0.0012 -0.0005
C15 0.0197 0.0176 0.0195 -0.0003 -0.0067 -0.002
Gd1 0.01792 0.01639 0.01464 -0.00172 -0.00418 -0.0027
N1 0.0254 0.0175 0.017 -0.0014 -0.0069 -0.0011
O1 0.027 0.0297 0.0192 0.0034 -0.0093 -0.0105
O2 0.0419 0.0317 0.0185 0.0035 -0.0125 -0.0162
O3 0.0271 0.0277 0.0212 -0.011 -0.0047 -0.0011
O4 0.0304 0.0226 0.0213 -0.0033 -0.0099 0.0053
O7 0.0303 0.0292 0.0296 0.0074 -0.0145 -0.0107
O8 0.0327 0.0217 0.0335 0.0031 -0.0142 -0.0043
O9 0.0256 0.0323 0.0285 -0.0136 -0.0014 -0.0115
O10 0.0233 0.0292 0.0244 -0.0062 -0.0016 -0.0114
O12 0.0576 0.0393 0.0248 -0.0063 -0.0001 -0.0297
O13 0.035 0.0432 0.0377 -0.0061 -0.0109 -0.0154
O22 0.0208 0.0287 0.0166 0.0023 -0.005 -0.0026
O25 0.0198 0.0219 0.0168 -0.0015 -0.0045 0.0015
O32 0.03 0.0485 0.0237 0.0069 -0.0047 0.0061
C16 0.036 0.0247 0.0174 0.001 -0.0075 -0.0079
C17 0.0379 0.0335 0.0241 0.0053 -0.0056 -0.0178
C18 0.0295 0.0298 0.0275 0.0021 -0.0102 -0.0135
C19 0.0235 0.0146 0.0167 -0.0032 -0.0054 -0.0006
C20 0.0217 0.0156 0.0166 -0.0016 -0.0066 -0.0006
C21 0.0216 0.0208 0.0178 -0.0013 -0.0049 -0.0018
C22 0.0182 0.0192 0.0171 -0.0015 -0.0053 -0.0045
N3 0.0254 0.0175 0.017 -0.0014 -0.0069 -0.0011
Ni3 0.02099 0.0204 0.01644 -3e-05 -0.00759 -0.00222
O14 0.027 0.0297 0.0192 0.0034 -0.0093 -0.0105
O16 0.0419 0.0317 0.0185 0.0035 -0.0125 -0.0162
O19 0.0304 0.0226 0.0213 -0.0033 -0.0099 0.0053
C23 0.0301 0.0333 0.016 0.0023 -0.0066 -0.0028
C24 0.034 0.0356 0.0172 -0.0065 -0.0005 -0.0014
C25 0.0261 0.0279 0.0248 -0.0034 -0.0032 0.0017
C26 0.0214 0.0209 0.0182 0.0002 -0.0051 -0.0053
C27 0.0208 0.0197 0.0159 -0.0003 -0.0043 -0.0054
C29 0.0165 0.0245 0.0182 -0.0014 -0.0012 -0.0005
C13 0.0212 0.0192 0.0163 -0.0014 -0.0045 -0.0044
N2 0.023 0.0227 0.0168 0.0002 -0.0052 -0.0014
O34 0.035 0.0432 0.0377 -0.0061 -0.0109 -0.0154
loop_
_geom_bond_atom_site_label_1
_geom_bond_atom_site_label_2
_geom_bond_site_symmetry_1
_geom_bond_site_symmetry_2
H7 O11 1_555 1_555
H8 O11 1_555 1_555
H22 O33 1_555 1_555
Ni4 N5 1_555 1_555
O18 Gd2 1_555 1_555
O27 Gd2 1_555 1_555
O29 Gd2 1_555 1_555
O30 C30 1_555 1_555
O33 Gd2 1_555 1_555
C28 O21 1_555 1_555
C28 O23 1_555 1_555
C30 O31 1_555 1_555
Gd2 O30 1_555 1_555
Ni4 O23 1_555 1_555
C1 H1 1_555 1_555
C2 C1 1_555 1_555
H2 C2 1_555 1_555
C3 C2 1_555 1_555
H3 C3 1_555 1_555
C4 C3 1_555 1_555
C5 C4 1_555 1_555
C6 C5 1_555 1_555
C7 C4 1_555 1_555
C8 H4 1_555 1_555
C9 C8 1_555 1_555
H5 C9 1_555 1_555
C10 C9 1_555 1_555
H6 C10 1_555 1_555
C11 C10 1_555 1_555
C12 C11 1_555 1_555
C14 C11 1_555 1_555
C15 O9 1_555 1_555
Gd1 O3 1_555 1_555
H10 O12 1_555 1_555
N1 C1 1_555 1_555
Ni4 N1 1_555 1_555
O1 C6 1_555 1_555
O2 C6 1_555 1_555
O3 C7 1_555 1_555
O4 C7 1_555 1_555
O7 C14 1_555 1_555
O8 C14 1_555 1_555
O9 Gd1 1_555 1_555
O10 C15 1_555 1_555
O12 Gd1 1_555 1_555
O13 Ni4 1_555 1_555
H12 O13 1_555 1_555
H19 O32 1_555 1_555
H20 O32 1_555 1_555
C5 N1 1_555 1_555
Gd1 O7 1_555 1_555
Gd1 O8 1_555 1_555
Ni4 O1 1_555 1_555
C16 H13 1_555 1_555
C17 C16 1_555 1_555
H14 C17 1_555 1_555
C18 C17 1_555 1_555
H15 C18 1_555 1_555
C19 C18 1_555 1_555
C20 C19 1_555 1_555
C21 C20 1_555 1_555
C22 C19 1_555 1_555
N3 C16 1_555 1_555
O14 C21 1_555 1_555
O16 C21 1_555 1_555
O18 C22 1_555 1_555
C20 N3 1_555 1_555
C22 O19 1_555 1_555
N3 Ni3 1_555 1_555
Ni3 O14 1_555 1_555
C23 H16 1_555 1_555
C24 C23 1_555 1_555
H17 C24 1_555 1_555
C25 C24 1_555 1_555
H18 C25 1_555 1_555
C26 C25 1_555 1_555
C27 C26 1_555 1_555
C29 C26 1_555 1_555
O27 C29 1_555 1_555
O29 C29 1_555 1_555
O22 C13 1_555 1_555
O25 C13 1_555 1_555
Ni3 N2 1_555 1_555
O34 Ni3 1_555 1_555
H24 O34 1_555 1_555
O25 Ni3 1_555 1_555

#END
