
###############################################################################
#
# This file contains modified crystal structure data generated from the
# MOF subset of the Cambridge Structural Database (CSD) v543 
# hosted by the Cambridge Crystallographic Data Centre (CCDC).
#
# This work is licensed under the Creative Commons
# Attribution-NonCommercial-ShareAlike 4.0 International License.
# To view a copy of this license, visit
# http://creativecommons.org/licenses/by-nc-sa/4.0/
# or send a letter to
# Creative Commons, PO Box 1866, Mountain View, CA 94042, USA.
#
# CIF created using the CSD Python API on 29 September 2022
# The structure has been converted into the P1 space group
# The structure has a 3D framework
# The original CSD entry GUSLUC is in the cubic crystal system
# The framework has been calculated to contain at least 10.0% void space
# The void calculation uses a probe of radius 1.32A, grid spacing 0.4
#
###############################################################################

data_GUSLUC
_chemical_formula_moiety         '(C642 H576 N96 Nd16 O288)n'
_symmetry_cell_setting           triclinic
_symmetry_space_group_name_H-M   'P 1'
_symmetry_Int_Tables_number      1
_space_group_name_Hall           'P 1'
loop_
_symmetry_equiv_pos_site_id
_symmetry_equiv_pos_as_xyz
1 x,y,z
_cell_length_a                   27.479(2)
_cell_length_b                   27.479(2)
_cell_length_c                   27.479(2)
_cell_angle_alpha                90
_cell_angle_beta                 90
_cell_angle_gamma                90
_cell_volume                     20749.3
loop_
_atom_site_label
_atom_site_type_symbol
_atom_site_fract_x
_atom_site_fract_y
_atom_site_fract_z
Nd9 Nd 0.02283(2) 0.52283(2) 0.97717(2)
Nd1 Nd 0.47717(2) 0.52283(2) 0.02283(2)
N1 N 0.5176(5) 0.3671(4) 0.0160(6)
H1 H 0.5166 0.3361 0.0199
N2 N 0.4922(5) 0.5236(6) 0.1281(4)
O1 O 0.4777(3) 0.4362(3) 0.0139(3)
O2 O 0.6411(5) 0.3406(5) 0.0187(6)
O3 O 0.4617(3) 0.3011(3) 0.0645(3)
O4 O 0.4881(6) 0.5624(4) 0.1046(4)
O5 O 0.4898(4) 0.4851(4) 0.1059(3)
O6 O 0.4955(7) 0.5237(6) 0.1727(3)
C1 C 0.5000 0.2500 0.1250
C2 C 0.4546(4) 0.2559(4) 0.0930(4)
H2 H 0.4510 0.2282 0.0714
H3 H 0.4256 0.2584 0.1130
C3 C 0.4234(4) 0.3185(4) 0.0392(4)
C4 C 0.3790(4) 0.2936(4) 0.0375(5)
H4 H 0.3748 0.2641 0.0535
C5 C 0.3419(6) 0.3144(6) 0.0113(7)
H5 H 0.3124 0.2981 0.0088
C8 C 0.4303(4) 0.3632(4) 0.0180(4)
C9 C 0.4783(5) 0.3906(4) 0.0168(4)
C10 C 0.5644(6) 0.3902(6) 0.0089(10)
H9 H 0.5623 0.4242 0.0178
C11 C 0.6005(5) 0.3670(7) 0.0375(7)
C12 C 0.6038(6) 0.3633(7) 0.0891(7)
H10 H 0.5811 0.3756 0.1110
C13 C 0.6466(7) 0.3386(8) 0.1020(6)
H11 H 0.6576 0.3325 0.1335
C14 C 0.6701(6) 0.3243(7) 0.0578(8)
H12 H 0.6993 0.3074 0.0552
Nd2 Nd 0.22717(2) 0.22717(2) 0.22717(2)
Nd4 Nd 0.77283(2) 0.27283(2) 0.22717(2)
Nd8 Nd 0.77283(2) 0.72717(2) 0.27283(2)
N3 N 0.3829(4) 0.2676(5) 0.2340(6)
N4 N 0.4824(5) 0.1329(4) 0.0160(6)
N5 N 0.6171(4) 0.2324(5) 0.2340(6)
N11 N 0.7324(5) 0.7340(6) 0.1171(4)
N12 N 0.8671(4) 0.5160(6) 0.0176(5)
H13 H 0.4139 0.2666 0.2301
H14 H 0.4834 0.1639 0.0199
H15 H 0.5861 0.2334 0.2301
H21 H 0.7334 0.7301 0.0861
H22 H 0.8361 0.5199 0.0166
N14 N 0.3719(4) 0.5078(5) 0.0236(6)
N15 N 0.4764(6) 0.6281(4) 0.0078(5)
N16 N 0.2264(6) 0.2422(5) 0.1219(4)
N17 N 0.2422(5) 0.1219(4) 0.2264(6)
N18 N 0.1219(4) 0.2264(6) 0.2422(5)
N22 N 0.7736(6) 0.2578(5) 0.1219(4)
N23 N 0.7578(5) 0.3781(4) 0.2264(6)
N24 N 0.8781(4) 0.2736(6) 0.2422(5)
O7 O 0.3138(3) 0.2277(3) 0.2361(3)
O8 O 0.5223(3) 0.0638(3) 0.0139(3)
O9 O 0.6862(3) 0.2723(3) 0.2361(3)
O14 O 0.5638(3) 0.5139(3) 0.0223(3)
O15 O 0.7723(3) 0.7361(3) 0.1862(3)
O18 O 0.2277(3) 0.2361(3) 0.3138(3)
O19 O 0.2361(3) 0.3138(3) 0.2277(3)
O22 O 0.7723(3) 0.2639(3) 0.3138(3)
O23 O 0.7639(3) 0.1862(3) 0.2277(3)
O24 O 0.4094(5) 0.3911(5) 0.2313(6)
O25 O 0.3589(5) 0.1594(5) 0.0187(6)
O26 O 0.5906(5) 0.1089(5) 0.2313(6)
O32 O 0.6089(5) 0.7313(6) 0.0906(5)
O33 O 0.8406(5) 0.5187(6) 0.1411(5)
O35 O 0.4489(3) 0.2117(3) 0.1855(3)
O36 O 0.5383(3) 0.1989(3) 0.0645(3)
O37 O 0.5511(3) 0.2883(3) 0.1855(3)
O42 O 0.6989(3) 0.5645(3) 0.0383(3)
O43 O 0.7883(3) 0.6855(3) 0.0511(3)
O46 O 0.3954(4) 0.5119(6) 0.0624(4)
O47 O 0.4376(4) 0.6046(4) 0.0119(6)
O48 O 0.1876(4) 0.2381(6) 0.1454(4)
O49 O 0.2381(6) 0.1454(4) 0.1876(4)
O50 O 0.1454(4) 0.1876(4) 0.2381(6)
O54 O 0.8124(4) 0.2619(6) 0.1454(4)
O55 O 0.7619(6) 0.3546(4) 0.1876(4)
O56 O 0.8546(4) 0.3124(4) 0.2381(6)
O58 O 0.5149(4) 0.6059(3) 0.0102(4)
O59 O 0.2649(4) 0.2398(4) 0.1441(3)
O60 O 0.2398(4) 0.1441(3) 0.2649(4)
O61 O 0.1441(3) 0.2649(4) 0.2398(4)
O62 O 0.5102(4) 0.0149(4) 0.1059(3)
O65 O 0.7351(4) 0.2602(4) 0.1441(3)
O66 O 0.7602(4) 0.3559(3) 0.2649(4)
O67 O 0.8559(3) 0.2351(4) 0.2398(4)
O68 O 0.3273(3) 0.5045(7) 0.0237(6)
O69 O 0.4763(6) 0.6727(3) 0.0045(7)
O70 O 0.2263(6) 0.2455(7) 0.0773(3)
O71 O 0.2455(7) 0.0773(3) 0.2263(6)
O72 O 0.0773(3) 0.2263(6) 0.2455(7)
O76 O 0.7737(6) 0.2545(7) 0.0773(3)
O77 O 0.7545(7) 0.4227(3) 0.2263(6)
O78 O 0.9227(3) 0.2737(6) 0.2455(7)
C16 C 0.7500 0.6250 0.0000
C17 C 0.4941(4) 0.2046(4) 0.1570(4)
C18 C 0.5454(4) 0.2441(4) 0.0930(4)
C19 C 0.5059(4) 0.2954(4) 0.1570(4)
C24 C 0.7441(4) 0.5930(4) 0.0454(4)
C25 C 0.7954(4) 0.6570(4) 0.0059(4)
H24 H 0.5218 0.2010 0.1786
H25 H 0.5490 0.2718 0.0714
H26 H 0.4782 0.2990 0.1786
H31 H 0.7718 0.5714 0.0490
H34 H 0.7010 0.6786 0.0218
H35 H 0.4916 0.1756 0.1370
H36 H 0.5744 0.2416 0.1130
H37 H 0.5084 0.3244 0.1370
H42 H 0.7416 0.6130 0.0744
H43 H 0.8244 0.6370 0.0084
C28 C 0.4315(4) 0.1734(4) 0.2108(4)
C29 C 0.5766(4) 0.1815(4) 0.0392(4)
C30 C 0.5685(4) 0.3266(4) 0.2108(4)
C35 C 0.6815(4) 0.5392(4) 0.0766(4)
C36 C 0.8266(4) 0.7108(4) 0.0685(4)
C39 C 0.4564(4) 0.1290(4) 0.2125(5)
C40 C 0.6210(4) 0.2064(4) 0.0375(5)
C41 C 0.5436(4) 0.3710(4) 0.2125(5)
C46 C 0.7064(4) 0.5375(5) 0.1210(4)
C47 C 0.8710(4) 0.7125(5) 0.0436(4)
H46 H 0.4859 0.1248 0.1965
H47 H 0.6252 0.2359 0.0535
H48 H 0.5141 0.3752 0.1965
H53 H 0.7359 0.5535 0.1252
H54 H 0.8752 0.6965 0.0141
C50 C 0.4356(6) 0.0919(6) 0.2387(7)
C51 C 0.6581(6) 0.1856(6) 0.0113(7)
C52 C 0.5644(6) 0.4081(6) 0.2387(7)
C57 C 0.6856(6) 0.5113(7) 0.1581(6)
C58 C 0.9081(6) 0.7387(7) 0.0644(6)
H57 H 0.4519 0.0624 0.2412
H58 H 0.6876 0.2019 0.0088
H59 H 0.5481 0.4376 0.2412
H64 H 0.7019 0.5088 0.1876
H65 H 0.9376 0.7412 0.0481
C61 C 0.3915(7) 0.0973(6) 0.2612(8)
C63 C 0.6085(7) 0.4027(6) 0.2612(8)
C68 C 0.6415(7) 0.4888(8) 0.1527(6)
C69 C 0.9027(6) 0.7612(8) 0.1085(7)
H68 H 0.3781 0.0723 0.2797
H70 H 0.6219 0.4277 0.2797
H75 H 0.6281 0.4703 0.1777
H76 H 0.9277 0.7797 0.1219
C72 C 0.3685(6) 0.1396(5) 0.2558(6)
C74 C 0.6315(6) 0.3604(5) 0.2558(6)
C79 C 0.6185(6) 0.4942(6) 0.1104(5)
C80 C 0.8604(5) 0.7558(6) 0.1315(6)
H79 H 0.3375 0.1422 0.2692
H81 H 0.6625 0.3578 0.2692
H86 H 0.5875 0.4808 0.1078
H87 H 0.8578 0.7692 0.1625
C83 C 0.3868(4) 0.1803(4) 0.2320(4)
C84 C 0.5697(4) 0.1368(4) 0.0180(4)
C85 C 0.6132(4) 0.3197(4) 0.2320(4)
C90 C 0.6368(4) 0.5180(4) 0.0697(4)
C91 C 0.8197(4) 0.7320(4) 0.1132(4)
C94 C 0.3594(4) 0.2283(5) 0.2332(4)
C95 C 0.5217(5) 0.1094(4) 0.0168(4)
C96 C 0.6406(4) 0.2717(5) 0.2332(4)
C101 C 0.6094(4) 0.5168(4) 0.0217(5)
C102 C 0.7717(5) 0.7332(4) 0.1406(4)
C105 C 0.3598(6) 0.3144(6) 0.2411(10)
C106 C 0.4356(6) 0.1098(6) 0.0089(10)
C107 C 0.6402(6) 0.1856(6) 0.2411(10)
C113 C 0.6856(6) 0.7411(10) 0.1402(6)
C114 C 0.8902(6) 0.5089(10) 0.0644(6)
H90 H 0.3617 0.3234 0.2752
H92 H 0.6383 0.1766 0.2752
H98 H 0.6766 0.7752 0.1383
H99 H 0.8883 0.4748 0.0734
H101 H 0.3258 0.3123 0.2322
H102 H 0.4377 0.0758 0.0178
H103 H 0.6742 0.1877 0.2322
H109 H 0.6877 0.7322 0.1742
H110 H 0.9242 0.5178 0.0623
C116 C 0.3830(7) 0.3505(5) 0.2125(7)
C117 C 0.3995(5) 0.1330(7) 0.0375(7)
C118 C 0.6170(7) 0.1495(5) 0.2125(7)
C124 C 0.6495(5) 0.7125(7) 0.1170(7)
C125 C 0.8670(7) 0.5375(7) 0.1005(5)
C127 C 0.3867(7) 0.3538(6) 0.1609(7)
C128 C 0.3962(6) 0.1367(7) 0.0891(7)
C129 C 0.6133(7) 0.1462(6) 0.1609(7)
C135 C 0.6462(6) 0.6609(7) 0.1133(7)
C136 C 0.8633(7) 0.5891(7) 0.1038(6)
H112 H 0.3744 0.3311 0.1390
H113 H 0.4189 0.1244 0.1110
H114 H 0.6256 0.1689 0.1390
H120 H 0.6689 0.6390 0.1256
H121 H 0.8756 0.6110 0.0811
C138 C 0.4114(8) 0.3966(7) 0.1480(6)
C139 C 0.3534(7) 0.1614(8) 0.1020(6)
C140 C 0.5886(8) 0.1034(7) 0.1480(6)
C146 C 0.6034(7) 0.6480(6) 0.0886(8)
C147 C 0.8386(8) 0.6020(6) 0.1466(7)
H123 H 0.4175 0.4076 0.1165
H124 H 0.3424 0.1675 0.1335
H125 H 0.5825 0.0924 0.1165
H131 H 0.5924 0.6165 0.0825
H132 H 0.8325 0.6335 0.1576
C149 C 0.4257(7) 0.4201(6) 0.1922(8)
C150 C 0.3299(6) 0.1757(7) 0.0578(8)
C151 C 0.5743(7) 0.0799(6) 0.1922(8)
C157 C 0.5799(6) 0.6922(8) 0.0743(7)
C158 C 0.8243(7) 0.5578(8) 0.1701(6)
H134 H 0.4426 0.4493 0.1948
H135 H 0.3007 0.1926 0.0552
H136 H 0.5574 0.0507 0.1948
H142 H 0.5507 0.6948 0.0574
H143 H 0.8074 0.5552 0.1993
C6 C 0.3473(6) 0.3585(7) 0.9888(8)
H6 H 0.3223 0.3719 0.9703
C7 C 0.3896(5) 0.3815(6) 0.9942(6)
H7 H 0.3922 0.4125 0.9808
H8 H 0.5734 0.3883 0.9748
Nd5 Nd 0.27283(2) 0.77283(2) 0.72717(2)
Nd6 Nd 0.47717(2) 0.47717(2) 0.47717(2)
Nd7 Nd 0.27283(2) 0.22717(2) 0.77283(2)
Nd10 Nd 0.72717(2) 0.72717(2) 0.72717(2)
N6 N 0.4840(6) 0.4824(5) 0.8671(4)
N7 N 0.2660(6) 0.6171(4) 0.7676(5)
N8 N 0.4840(6) 0.5176(5) 0.6329(4)
N9 N 0.2660(6) 0.3829(4) 0.7324(5)
N10 N 0.6329(4) 0.5160(6) 0.9824(5)
N13 N 0.7676(5) 0.7340(6) 0.8829(4)
H16 H 0.4801 0.4834 0.8361
H17 H 0.2699 0.5861 0.7666
H18 H 0.4801 0.5166 0.6639
H19 H 0.2699 0.4139 0.7334
H20 H 0.6639 0.5199 0.9834
H23 H 0.7666 0.7301 0.9139
O10 O 0.4861(3) 0.5223(3) 0.9362(3)
O11 O 0.2639(3) 0.6862(3) 0.7277(3)
O12 O 0.4861(3) 0.4777(3) 0.5638(3)
O13 O 0.2639(3) 0.3138(3) 0.7723(3)
O16 O 0.9362(3) 0.5139(3) 0.9777(3)
O17 O 0.7277(3) 0.7361(3) 0.8138(3)
O27 O 0.4813(6) 0.3589(5) 0.8406(5)
O28 O 0.2687(6) 0.5906(5) 0.8911(5)
O29 O 0.4813(6) 0.6411(5) 0.6594(5)
O30 O 0.2687(6) 0.4094(5) 0.6089(5)
O31 O 0.6594(5) 0.5187(6) 0.8589(5)
O34 O 0.8911(5) 0.7313(6) 0.9094(5)
O38 O 0.4355(3) 0.5383(3) 0.8011(3)
O39 O 0.3145(3) 0.5511(3) 0.7117(3)
O40 O 0.4355(3) 0.4617(3) 0.6989(3)
O41 O 0.3145(3) 0.4489(3) 0.7883(3)
O44 O 0.8011(3) 0.5645(3) 0.9617(3)
O45 O 0.7117(3) 0.6855(3) 0.9489(3)
O57 O 0.3941(3) 0.5102(4) 0.9851(4)
C15 C 0.3750 0.5000 0.7500
C16_2 C 0.7500 0.6250 1.0000
C20 C 0.4070(4) 0.5454(4) 0.7559(4)
C21 C 0.3430(4) 0.5059(4) 0.7046(4)
C22 C 0.4070(4) 0.4546(4) 0.7441(4)
C23 C 0.3430(4) 0.4941(4) 0.7954(4)
C26 C 0.7559(4) 0.5930(4) 0.9546(4)
C27 C 0.7046(4) 0.6570(4) 0.9941(4)
H27 H 0.4286 0.5490 0.7282
H28 H 0.3214 0.4782 0.7010
H29 H 0.4286 0.4510 0.7718
H30 H 0.3214 0.5218 0.7990
H32 H 0.7990 0.6786 0.9782
H33 H 0.7282 0.5714 0.9510
H38 H 0.3870 0.5744 0.7584
H39 H 0.3630 0.5084 0.6756
H40 H 0.3870 0.4256 0.7416
H41 H 0.3630 0.4916 0.8244
H44 H 0.7584 0.6130 0.9256
H45 H 0.6756 0.6370 0.9916
C31 C 0.4608(4) 0.5766(4) 0.8185(4)
C32 C 0.2892(4) 0.5685(4) 0.6734(4)
C33 C 0.4608(4) 0.4234(4) 0.6815(4)
C34 C 0.2892(4) 0.4315(4) 0.8266(4)
C37 C 0.8185(4) 0.5392(4) 0.9234(4)
C38 C 0.6734(4) 0.7108(4) 0.9315(4)
C42 C 0.4625(5) 0.6210(4) 0.7936(4)
C43 C 0.2875(5) 0.5436(4) 0.6290(4)
C44 C 0.4625(5) 0.3790(4) 0.7064(4)
C45 C 0.2875(5) 0.4564(4) 0.8710(4)
C48 C 0.7936(4) 0.5375(5) 0.8790(4)
C49 C 0.6290(4) 0.7125(5) 0.9564(4)
H49 H 0.4465 0.6252 0.7641
H50 H 0.3035 0.5141 0.6248
H51 H 0.4465 0.3748 0.7359
H52 H 0.3035 0.4859 0.8752
H55 H 0.7641 0.5535 0.8748
H56 H 0.6248 0.6965 0.9859
C53 C 0.4887(7) 0.6581(6) 0.8144(6)
C54 C 0.2613(7) 0.5644(6) 0.5919(6)
C55 C 0.4887(7) 0.3419(6) 0.6856(6)
C56 C 0.2613(7) 0.4356(6) 0.9081(6)
C59 C 0.8144(6) 0.5113(7) 0.8419(6)
C60 C 0.5919(6) 0.7387(7) 0.9356(6)
H60 H 0.4912 0.6876 0.7981
H61 H 0.2588 0.5481 0.5624
H62 H 0.4912 0.3124 0.7019
H63 H 0.2588 0.4519 0.9376
H66 H 0.7981 0.5088 0.8124
H67 H 0.5624 0.7412 0.9519
C62 C 0.6527(6) 0.1415(7) 0.9888(8)
C64 C 0.5112(8) 0.6527(6) 0.8585(7)
C65 C 0.2388(8) 0.6085(7) 0.5973(6)
C66 C 0.5112(8) 0.3473(6) 0.6415(7)
C67 C 0.2388(8) 0.3915(7) 0.9027(6)
C70 C 0.8585(7) 0.4888(8) 0.8473(6)
C71 C 0.5973(6) 0.7612(8) 0.8915(7)
H69 H 0.6777 0.1281 0.9703
H71 H 0.5297 0.6777 0.8719
H72 H 0.2203 0.6219 0.5723
H73 H 0.5297 0.3223 0.6281
H74 H 0.2203 0.3781 0.9277
H77 H 0.8719 0.4703 0.8223
H78 H 0.5723 0.7797 0.8781
C73 C 0.6104(5) 0.1185(6) 0.9942(6)
C75 C 0.5058(6) 0.6104(5) 0.8815(6)
C76 C 0.2442(6) 0.6315(6) 0.6396(5)
C77 C 0.5058(6) 0.3896(5) 0.6185(6)
C78 C 0.2442(6) 0.3685(6) 0.8604(5)
C81 C 0.8815(6) 0.4942(6) 0.8896(5)
C82 C 0.6396(5) 0.7558(6) 0.8685(6)
H80 H 0.6078 0.0875 0.9808
H82 H 0.5192 0.6078 0.9125
H83 H 0.2308 0.6625 0.6422
H84 H 0.5192 0.3922 0.5875
H85 H 0.2308 0.3375 0.8578
H88 H 0.9125 0.4808 0.8922
H89 H 0.6422 0.7692 0.8375
C86 C 0.4820(4) 0.5697(4) 0.8632(4)
C87 C 0.2680(4) 0.6132(4) 0.6803(4)
C88 C 0.4820(4) 0.4303(4) 0.6368(4)
C89 C 0.2680(4) 0.3868(4) 0.8197(4)
C92 C 0.8632(4) 0.5180(4) 0.9303(4)
C93 C 0.6803(4) 0.7320(4) 0.8868(4)
C97 C 0.4832(4) 0.5217(5) 0.8906(4)
C98 C 0.2668(4) 0.6406(4) 0.7283(5)
C99 C 0.4832(4) 0.4783(5) 0.6094(4)
C100 C 0.2668(4) 0.3594(4) 0.7717(5)
C103 C 0.8906(4) 0.5168(4) 0.9783(5)
C104 C 0.7283(5) 0.7332(4) 0.8594(4)
C108 C 0.4911(10) 0.4356(6) 0.8902(6)
C109 C 0.2589(10) 0.6402(6) 0.8144(6)
C110 C 0.4911(10) 0.5644(6) 0.6098(6)
C111 C 0.2589(10) 0.3598(6) 0.6856(6)
C112 C 0.6098(6) 0.5089(10) 0.9356(6)
C115 C 0.8144(6) 0.7411(10) 0.8598(6)
H91 H 0.4266 0.1117 0.9748
H93 H 0.5252 0.4266 0.8883
H94 H 0.2248 0.6383 0.8234
H95 H 0.5252 0.5734 0.6117
H96 H 0.2248 0.3617 0.6766
H97 H 0.6117 0.4748 0.9266
H100 H 0.8234 0.7752 0.8617
H104 H 0.4822 0.4377 0.9242
H105 H 0.2678 0.6742 0.8123
H106 H 0.4822 0.5623 0.5758
H107 H 0.2678 0.3258 0.6877
H108 H 0.5758 0.5178 0.9377
H111 H 0.8123 0.7322 0.8258
C119 C 0.4625(7) 0.3995(5) 0.8670(7)
C120 C 0.2875(7) 0.6170(7) 0.8505(5)
C121 C 0.4625(7) 0.6005(5) 0.6330(7)
C122 C 0.2875(7) 0.3830(7) 0.6495(5)
C123 C 0.6330(7) 0.5375(7) 0.8995(5)
C126 C 0.8505(5) 0.7125(7) 0.8830(7)
C130 C 0.4109(7) 0.3962(6) 0.8633(7)
C131 C 0.3391(7) 0.6133(7) 0.8538(6)
C132 C 0.4109(7) 0.6038(6) 0.6367(7)
C133 C 0.3391(7) 0.3867(7) 0.6462(6)
C134 C 0.6367(7) 0.5891(7) 0.8962(6)
C137 C 0.8538(6) 0.6609(7) 0.8867(7)
H115 H 0.3890 0.4189 0.8756
H116 H 0.3610 0.6256 0.8311
H117 H 0.3890 0.5811 0.6244
H118 H 0.3610 0.3744 0.6689
H119 H 0.6244 0.6110 0.9189
H122 H 0.8311 0.6390 0.8744
C141 C 0.3980(6) 0.3534(7) 0.8386(8)
C142 C 0.3520(6) 0.5886(8) 0.8966(7)
C143 C 0.3980(6) 0.6466(7) 0.6614(8)
C144 C 0.3520(6) 0.4114(8) 0.6034(7)
C145 C 0.6614(8) 0.6020(6) 0.8534(7)
C148 C 0.8966(7) 0.6480(6) 0.9114(8)
H126 H 0.3665 0.3424 0.8325
H127 H 0.3835 0.5825 0.9076
H128 H 0.3665 0.6576 0.6675
H129 H 0.3835 0.4175 0.5924
H130 H 0.6675 0.6335 0.8424
H133 H 0.9076 0.6165 0.9175
C152 C 0.4422(8) 0.3299(6) 0.8243(7)
C153 C 0.3078(8) 0.5743(7) 0.9201(6)
C154 C 0.4422(8) 0.6701(6) 0.6757(7)
C155 C 0.3078(8) 0.4257(7) 0.5799(6)
C156 C 0.6757(7) 0.5578(8) 0.8299(6)
C159 C 0.9201(6) 0.6922(8) 0.9257(7)
H137 H 0.4448 0.3007 0.8074
H138 H 0.3052 0.5574 0.9493
H139 H 0.4448 0.6993 0.6926
H140 H 0.3052 0.4426 0.5507
H141 H 0.6926 0.5552 0.8007
H144 H 0.9493 0.6948 0.9426
Nd3 Nd 0.52283(2) 0.97717(2) 0.02283(2)
N19 N 0.5078(5) 0.9764(6) 0.1281(4)
N20 N 0.6281(4) 0.9922(5) 0.0236(6)
N21 N 0.5236(6) 0.8719(4) 0.0078(5)
O21 O 0.4362(3) 0.9861(3) 0.0223(3)
O51 O 0.5119(6) 0.9376(4) 0.1046(4)
O52 O 0.6046(4) 0.9881(6) 0.0624(4)
O53 O 0.5624(4) 0.8954(4) 0.0119(6)
O64 O 0.4851(4) 0.8941(3) 0.0102(4)
O73 O 0.5045(7) 0.9763(6) 0.1727(3)
O74 O 0.6727(3) 0.9955(7) 0.0237(6)
O75 O 0.5237(6) 0.8273(3) 0.0045(7)
O20 O 0.5139(3) 0.9777(3) 0.9362(3)
O63 O 0.6059(3) 0.9898(4) 0.9851(4)
O21_2 O 0.0638(3) 0.0139(3) 0.5223(3)
O64_2 O 0.0149(4) 0.1059(3) 0.5102(4)
Nd1_2 Nd 0.02283(2) 0.47717(2) 0.52283(2)
N2_2 N 0.0078(5) 0.4764(6) 0.6281(4)
O1_2 O 0.0223(3) 0.5638(3) 0.5139(3)
O3_2 O 0.0383(3) 0.6989(3) 0.5645(3)
O4_2 O 0.0119(6) 0.4376(4) 0.6046(4)
O5_2 O 0.0102(4) 0.5149(4) 0.6059(3)
O6_2 O 0.0045(7) 0.4763(6) 0.6727(3)
C1_2 C 0.0000 0.7500 0.6250
C2_2 C 0.0454(4) 0.7441(4) 0.5930(4)
H2_2 H 0.0490 0.7718 0.5714
H3_2 H 0.0744 0.7416 0.6130
C3_2 C 0.0766(4) 0.6815(4) 0.5392(4)
C4_2 C 0.1210(4) 0.7064(4) 0.5375(5)
H4_2 H 0.1252 0.7359 0.5535
C5_2 C 0.1581(6) 0.6856(6) 0.5113(7)
H5_2 H 0.1876 0.7019 0.5088
C6_2 C 0.1527(6) 0.6415(7) 0.4888(8)
H6_2 H 0.1777 0.6281 0.4703
C7_2 C 0.1104(5) 0.6185(6) 0.4942(6)
H7_2 H 0.1078 0.5875 0.4808
C8_2 C 0.0697(4) 0.6368(4) 0.5180(4)
C9_2 C 0.0217(5) 0.6094(4) 0.5168(4)
Nd7_2 Nd 0.22717(2) 0.77283(2) 0.27283(2)
N3_2 N 0.1171(4) 0.7324(5) 0.7340(6)
N4_2 N 0.0176(5) 0.8671(4) 0.5160(6)
N6_2 N 0.0160(6) 0.5176(5) 0.3671(4)
N7_2 N 0.2340(6) 0.3829(4) 0.2676(5)
N8_2 N 0.0160(6) 0.4824(5) 0.1329(4)
N9_2 N 0.2340(6) 0.6171(4) 0.2324(5)
H13_2 H 0.0861 0.7334 0.7301
H14_2 H 0.0166 0.8361 0.5199
H16_2 H 0.0199 0.5166 0.3361
H17_2 H 0.2301 0.4139 0.2666
H18_2 H 0.0199 0.4834 0.1639
H19_2 H 0.2301 0.5861 0.2334
N14_2 N 0.1281(4) 0.4922(5) 0.5236(6)
N15_2 N 0.0236(6) 0.3719(4) 0.5078(5)
N16_2 N 0.2736(6) 0.7578(5) 0.6219(4)
N17_2 N 0.2578(5) 0.8781(4) 0.7264(6)
N18_2 N 0.3781(4) 0.7736(6) 0.7422(5)
O7_2 O 0.1862(3) 0.7723(3) 0.7361(3)
O10_2 O 0.0139(3) 0.4777(3) 0.4362(3)
O12_2 O 0.0139(3) 0.5223(3) 0.0638(3)
O13_2 O 0.2361(3) 0.6862(3) 0.2723(3)
O18_2 O 0.2723(3) 0.7639(3) 0.8138(3)
O24_2 O 0.0906(5) 0.6089(5) 0.7313(6)
O25_2 O 0.1411(5) 0.8406(5) 0.5187(6)
O27_2 O 0.0187(6) 0.6411(5) 0.3406(5)
O28_2 O 0.2313(6) 0.4094(5) 0.3911(5)
O29_2 O 0.0187(6) 0.3589(5) 0.1594(5)
O30_2 O 0.2313(6) 0.5906(5) 0.1089(5)
O35_2 O 0.0511(3) 0.7883(3) 0.6855(3)
O38_2 O 0.0645(3) 0.4617(3) 0.3011(3)
O39_2 O 0.1855(3) 0.4489(3) 0.2117(3)
O40_2 O 0.0645(3) 0.5383(3) 0.1989(3)
O41_2 O 0.1855(3) 0.5511(3) 0.2883(3)
O46_2 O 0.1046(4) 0.4881(6) 0.5624(4)
O47_2 O 0.0624(4) 0.3954(4) 0.5119(6)
O48_2 O 0.3124(4) 0.7619(6) 0.6454(4)
O49_2 O 0.2619(6) 0.8546(4) 0.6876(4)
O50_2 O 0.3546(4) 0.8124(4) 0.7381(6)
O57_2 O 0.1059(3) 0.4898(4) 0.4851(4)
O59_2 O 0.2351(4) 0.7602(4) 0.6441(3)
O60_2 O 0.2602(4) 0.8559(3) 0.7649(4)
O61_2 O 0.3559(3) 0.7351(4) 0.7398(4)
O68_2 O 0.1727(3) 0.4955(7) 0.5237(6)
O69_2 O 0.0237(6) 0.3273(3) 0.5045(7)
O70_2 O 0.2737(6) 0.7545(7) 0.5773(3)
O71_2 O 0.2545(7) 0.9227(3) 0.7263(6)
O72_2 O 0.4227(3) 0.7737(6) 0.7455(7)
C15_2 C 0.1250 0.5000 0.2500
C17_2 C 0.0059(4) 0.7954(4) 0.6570(4)
C20_2 C 0.0930(4) 0.4546(4) 0.2559(4)
C21_2 C 0.1570(4) 0.4941(4) 0.2046(4)
C22_2 C 0.0930(4) 0.5454(4) 0.2441(4)
C23_2 C 0.1570(4) 0.5059(4) 0.2954(4)
H26_2 H 0.0218 0.7010 0.6786
H27_2 H 0.0714 0.4510 0.2282
H28_2 H 0.1786 0.5218 0.2010
H29_2 H 0.0714 0.5490 0.2718
H30_2 H 0.1786 0.4782 0.2990
H35_2 H 0.0084 0.8244 0.6370
H38_2 H 0.1130 0.4256 0.2584
H39_2 H 0.1370 0.4916 0.1756
H40_2 H 0.1130 0.5744 0.2416
H41_2 H 0.1370 0.5084 0.3244
C28_2 C 0.0685(4) 0.8266(4) 0.7108(4)
C31_2 C 0.0392(4) 0.4234(4) 0.3185(4)
C32_2 C 0.2108(4) 0.4315(4) 0.1734(4)
C33_2 C 0.0392(4) 0.5766(4) 0.1815(4)
C34_2 C 0.2108(4) 0.5685(4) 0.3266(4)
C39_2 C 0.0436(4) 0.8710(4) 0.7125(5)
C42_2 C 0.0375(5) 0.3790(4) 0.2936(4)
C43_2 C 0.2125(5) 0.4564(4) 0.1290(4)
C44_2 C 0.0375(5) 0.6210(4) 0.2064(4)
C45_2 C 0.2125(5) 0.5436(4) 0.3710(4)
H46_2 H 0.0141 0.8752 0.6965
H49_2 H 0.0535 0.3748 0.2641
H50_2 H 0.1965 0.4859 0.1248
H51_2 H 0.0535 0.6252 0.2359
H52_2 H 0.1965 0.5141 0.3752
C50_2 C 0.0644(6) 0.9081(6) 0.7387(7)
C53_2 C 0.0113(7) 0.3419(6) 0.3144(6)
C54_2 C 0.2387(7) 0.4356(6) 0.0919(6)
C55_2 C 0.0113(7) 0.6581(6) 0.1856(6)
C56_2 C 0.2387(7) 0.5644(6) 0.4081(6)
H57_2 H 0.0481 0.9376 0.7412
H60_2 H 0.0088 0.3124 0.2981
H61_2 H 0.2412 0.4519 0.0624
H62_2 H 0.0088 0.6876 0.2019
H63_2 H 0.2412 0.5481 0.4376
C61_2 C 0.1085(7) 0.9027(6) 0.7612(8)
C65_2 C 0.2612(8) 0.3915(7) 0.0973(6)
C67_2 C 0.2612(8) 0.6085(7) 0.4027(6)
H68_2 H 0.1219 0.9277 0.7797
H72_2 H 0.2797 0.3781 0.0723
H74_2 H 0.2797 0.6219 0.4277
C72_2 C 0.1315(6) 0.8604(5) 0.7558(6)
C76_2 C 0.2558(6) 0.3685(6) 0.1396(5)
C78_2 C 0.2558(6) 0.6315(6) 0.3604(5)
H79_2 H 0.1625 0.8578 0.7692
H83_2 H 0.2692 0.3375 0.1422
H85_2 H 0.2692 0.6625 0.3578
C83_2 C 0.1132(4) 0.8197(4) 0.7320(4)
C86_2 C 0.0180(4) 0.4303(4) 0.3632(4)
C87_2 C 0.2320(4) 0.3868(4) 0.1803(4)
C88_2 C 0.0180(4) 0.5697(4) 0.1368(4)
C89_2 C 0.2320(4) 0.6132(4) 0.3197(4)
C94_2 C 0.1406(4) 0.7717(5) 0.7332(4)
C97_2 C 0.0168(4) 0.4783(5) 0.3906(4)
C98_2 C 0.2332(4) 0.3594(4) 0.2283(5)
C99_2 C 0.0168(4) 0.5217(5) 0.1094(4)
C100_2 C 0.2332(4) 0.6406(4) 0.2717(5)
C105_2 C 0.1402(6) 0.6856(6) 0.7411(10)
C106_2 C 0.0644(6) 0.8902(6) 0.5089(10)
C108_2 C 0.0089(10) 0.5644(6) 0.3902(6)
C109_2 C 0.2411(10) 0.3598(6) 0.3144(6)
C110_2 C 0.0089(10) 0.4356(6) 0.1098(6)
C111_2 C 0.2411(10) 0.6402(6) 0.1856(6)
H90_2 H 0.1383 0.6766 0.7752
H91_2 H 0.0734 0.8883 0.4748
H94_2 H 0.2752 0.3617 0.3234
H96_2 H 0.2752 0.6383 0.1766
H101_2 H 0.1742 0.6877 0.7322
H102_2 H 0.0623 0.9242 0.5178
H104_2 H 0.0178 0.5623 0.4242
H105_2 H 0.2322 0.3258 0.3123
H106_2 H 0.0178 0.4377 0.0758
H107_2 H 0.2322 0.6742 0.1877
C116_2 C 0.1170(7) 0.6495(5) 0.7125(7)
C117_2 C 0.1005(5) 0.8670(7) 0.5375(7)
C119_2 C 0.0375(7) 0.6005(5) 0.3670(7)
C120_2 C 0.2125(7) 0.3830(7) 0.3505(5)
C121_2 C 0.0375(7) 0.3995(5) 0.1330(7)
C122_2 C 0.2125(7) 0.6170(7) 0.1495(5)
C127_2 C 0.1133(7) 0.6462(6) 0.6609(7)
C128_2 C 0.1038(6) 0.8633(7) 0.5891(7)
C130_2 C 0.0891(7) 0.6038(6) 0.3633(7)
C131_2 C 0.1609(7) 0.3867(7) 0.3538(6)
C132_2 C 0.0891(7) 0.3962(6) 0.1367(7)
C133_2 C 0.1609(7) 0.6133(7) 0.1462(6)
H112_2 H 0.1256 0.6689 0.6390
H113_2 H 0.0811 0.8756 0.6110
H115_2 H 0.1110 0.5811 0.3756
H116_2 H 0.1390 0.3744 0.3311
H117_2 H 0.1110 0.4189 0.1244
H118_2 H 0.1390 0.6256 0.1689
C138_2 C 0.0886(8) 0.6034(7) 0.6480(6)
C139_2 C 0.1466(7) 0.8386(8) 0.6020(6)
C141_2 C 0.1020(6) 0.6466(7) 0.3386(8)
C142_2 C 0.1480(6) 0.4114(8) 0.3966(7)
C143_2 C 0.1020(6) 0.3534(7) 0.1614(8)
C144_2 C 0.1480(6) 0.5886(8) 0.1034(7)
H123_2 H 0.0825 0.5924 0.6165
H124_2 H 0.1576 0.8325 0.6335
H126_2 H 0.1335 0.6576 0.3325
H127_2 H 0.1165 0.4175 0.4076
H128_2 H 0.1335 0.3424 0.1675
H129_2 H 0.1165 0.5825 0.0924
C149_2 C 0.0743(7) 0.5799(6) 0.6922(8)
C150_2 C 0.1701(6) 0.8243(7) 0.5578(8)
C152_2 C 0.0578(8) 0.6701(6) 0.3243(7)
C153_2 C 0.1922(8) 0.4257(7) 0.4201(6)
C154_2 C 0.0578(8) 0.3299(6) 0.1757(7)
C155_2 C 0.1922(8) 0.5743(7) 0.0799(6)
H134_2 H 0.0574 0.5507 0.6948
H135_2 H 0.1993 0.8074 0.5552
H137_2 H 0.0552 0.6993 0.3074
H138_2 H 0.1948 0.4426 0.4493
H139_2 H 0.0552 0.3007 0.1926
H140_2 H 0.1948 0.5574 0.0507
Nd3_2 Nd 0.97717(2) 0.02283(2) 0.52283(2)
N19_2 N 0.9922(5) 0.0236(6) 0.6281(4)
N20_2 N 0.8719(4) 0.0078(5) 0.5236(6)
N21_2 N 0.9764(6) 0.1281(4) 0.5078(5)
O20_2 O 0.9861(3) 0.0223(3) 0.4362(3)
O51_2 O 0.9881(6) 0.0624(4) 0.6046(4)
O52_2 O 0.8954(4) 0.0119(6) 0.5624(4)
O53_2 O 0.9376(4) 0.1046(4) 0.5119(6)
O63_2 O 0.8941(3) 0.0102(4) 0.4851(4)
O73_2 O 0.9955(7) 0.0237(6) 0.6727(3)
O74_2 O 0.8273(3) 0.0045(7) 0.5237(6)
O75_2 O 0.9763(6) 0.1727(3) 0.5045(7)
N1_2 N 0.9824(5) 0.6329(4) 0.5160(6)
H1_2 H 0.9834 0.6639 0.5199
O2_2 O 0.8589(5) 0.6594(5) 0.5187(6)
C1_3 C 1.0000 0.7500 0.6250
C10_2 C 0.9356(6) 0.6098(6) 0.5089(10)
H8_2 H 0.9266 0.6117 0.4748
H9_2 H 0.9377 0.5758 0.5178
C11_2 C 0.8995(5) 0.6330(7) 0.5375(7)
C12_2 C 0.8962(6) 0.6367(7) 0.5891(7)
H10_2 H 0.9189 0.6244 0.6110
C13_2 C 0.8534(7) 0.6614(8) 0.6020(6)
H11_2 H 0.8424 0.6675 0.6335
C14_2 C 0.8299(6) 0.6757(7) 0.5578(8)
H12_2 H 0.8007 0.6926 0.5552
Nd8_2 Nd 0.72717(2) 0.27283(2) 0.77283(2)
N5_2 N 0.8829(4) 0.7676(5) 0.7340(6)
N10_2 N 0.8671(4) 0.4840(6) 0.4824(5)
N11_2 N 0.7676(5) 0.2660(6) 0.6171(4)
N12_2 N 0.6329(4) 0.4840(6) 0.5176(5)
N13_2 N 0.7324(5) 0.2660(6) 0.3829(4)
H15_2 H 0.9139 0.7666 0.7301
H20_2 H 0.8361 0.4801 0.4834
H21_2 H 0.7666 0.2699 0.5861
H22_2 H 0.6639 0.4801 0.5166
H23_2 H 0.7334 0.2699 0.4139
N22_2 N 0.7264(6) 0.7422(5) 0.6219(4)
N23_2 N 0.7422(5) 0.6219(4) 0.7264(6)
N24_2 N 0.6219(4) 0.7264(6) 0.7422(5)
O8_2 O 0.9777(3) 0.9362(3) 0.5139(3)
O9_2 O 0.8138(3) 0.7277(3) 0.7361(3)
O14_2 O 0.9362(3) 0.4861(3) 0.5223(3)
O15_2 O 0.7277(3) 0.2639(3) 0.6862(3)
O16_2 O 0.5638(3) 0.4861(3) 0.4777(3)
O23_2 O 0.7361(3) 0.8138(3) 0.7277(3)
O26_2 O 0.9094(5) 0.8911(5) 0.7313(6)
O31_2 O 0.8406(5) 0.4813(6) 0.3589(5)
O32_2 O 0.8911(5) 0.2687(6) 0.5906(5)
O33_2 O 0.6594(5) 0.4813(6) 0.6411(5)
O34_2 O 0.6089(5) 0.2687(6) 0.4094(5)
O36_2 O 0.9617(3) 0.8011(3) 0.5645(3)
O37_2 O 0.9489(3) 0.7117(3) 0.6855(3)
O42_2 O 0.8011(3) 0.4355(3) 0.5383(3)
O43_2 O 0.7117(3) 0.3145(3) 0.5511(3)
O44_2 O 0.6989(3) 0.4355(3) 0.4617(3)
O45_2 O 0.7883(3) 0.3145(3) 0.4489(3)
O54_2 O 0.6876(4) 0.7381(6) 0.6454(4)
O55_2 O 0.7381(6) 0.6454(4) 0.6876(4)
O56_2 O 0.6454(4) 0.6876(4) 0.7381(6)
O58_2 O 0.9851(4) 0.3941(3) 0.5102(4)
O62_2 O 0.9898(4) 0.9851(4) 0.6059(3)
O65_2 O 0.7649(4) 0.7398(4) 0.6441(3)
O66_2 O 0.7398(4) 0.6441(3) 0.7649(4)
O67_2 O 0.6441(3) 0.7649(4) 0.7398(4)
O76_2 O 0.7263(6) 0.7455(7) 0.5773(3)
O77_2 O 0.7455(7) 0.5773(3) 0.7263(6)
O78_2 O 0.5773(3) 0.7263(6) 0.7455(7)
C16_3 C 0.7500 0.3750 0.5000
C18_2 C 0.9546(4) 0.7559(4) 0.5930(4)
C19_2 C 0.9941(4) 0.7046(4) 0.6570(4)
C24_2 C 0.7559(4) 0.4070(4) 0.5454(4)
C25_2 C 0.7046(4) 0.3430(4) 0.5059(4)
C26_2 C 0.7441(4) 0.4070(4) 0.4546(4)
C27_2 C 0.7954(4) 0.3430(4) 0.4941(4)
H24_2 H 0.9782 0.7990 0.6786
H25_2 H 0.9510 0.7282 0.5714
H31_2 H 0.7282 0.4286 0.5490
H32_2 H 0.7010 0.3214 0.4782
H33_2 H 0.7718 0.4286 0.4510
H34_2 H 0.7990 0.3214 0.5218
H36_2 H 0.9256 0.7584 0.6130
H37_2 H 0.9916 0.6756 0.6370
H42_2 H 0.7584 0.3870 0.5744
H43_2 H 0.6756 0.3630 0.5084
H44_2 H 0.7416 0.3870 0.4256
H45_2 H 0.8244 0.3630 0.4916
C29_2 C 0.9234(4) 0.8185(4) 0.5392(4)
C30_2 C 0.9315(4) 0.6734(4) 0.7108(4)
C35_2 C 0.8185(4) 0.4608(4) 0.5766(4)
C36_2 C 0.6734(4) 0.2892(4) 0.5685(4)
C37_2 C 0.6815(4) 0.4608(4) 0.4234(4)
C38_2 C 0.8266(4) 0.2892(4) 0.4315(4)
C40_2 C 0.8790(4) 0.7936(4) 0.5375(5)
C41_2 C 0.9564(4) 0.6290(4) 0.7125(5)
C46_2 C 0.7936(4) 0.4625(5) 0.6210(4)
C47_2 C 0.6290(4) 0.2875(5) 0.5436(4)
C48_2 C 0.7064(4) 0.4625(5) 0.3790(4)
C49_2 C 0.8710(4) 0.2875(5) 0.4564(4)
H47_2 H 0.8748 0.7641 0.5535
H48_2 H 0.9859 0.6248 0.6965
H53_2 H 0.7641 0.4465 0.6252
H54_2 H 0.6248 0.3035 0.5141
H55_2 H 0.7359 0.4465 0.3748
H56_2 H 0.8752 0.3035 0.4859
C51_2 C 0.8419(6) 0.8144(6) 0.5113(7)
C52_2 C 0.9356(6) 0.5919(6) 0.7387(7)
C57_2 C 0.8144(6) 0.4887(7) 0.6581(6)
C58_2 C 0.5919(6) 0.2613(7) 0.5644(6)
C59_2 C 0.6856(6) 0.4887(7) 0.3419(6)
C60_2 C 0.9081(6) 0.2613(7) 0.4356(6)
H58_2 H 0.8124 0.7981 0.5088
H59_2 H 0.9519 0.5624 0.7412
H64_2 H 0.7981 0.4912 0.6876
H65_2 H 0.5624 0.2588 0.5481
H66_2 H 0.7019 0.4912 0.3124
H67_2 H 0.9376 0.2588 0.4519
C62_2 C 0.8473(6) 0.8585(7) 0.4888(8)
C63_2 C 0.8915(7) 0.5973(6) 0.7612(8)
C64_2 C 0.9888(8) 0.3473(6) 0.3585(7)
C66_2 C 0.9888(8) 0.6527(6) 0.1415(7)
C68_2 C 0.8585(7) 0.5112(8) 0.6527(6)
C69_2 C 0.5973(6) 0.2388(8) 0.6085(7)
C70_2 C 0.6415(7) 0.5112(8) 0.3473(6)
C71_2 C 0.9027(6) 0.2388(8) 0.3915(7)
H69_2 H 0.8223 0.8719 0.4703
H70_2 H 0.8781 0.5723 0.7797
H71_2 H 0.9703 0.3223 0.3719
H73_2 H 0.9703 0.6777 0.1281
H75_2 H 0.8719 0.5297 0.6777
H76_2 H 0.5723 0.2203 0.6219
H77_2 H 0.6281 0.5297 0.3223
H78_2 H 0.9277 0.2203 0.3781
C73_2 C 0.8896(5) 0.8815(6) 0.4942(6)
C74_2 C 0.8685(6) 0.6396(5) 0.7558(6)
C75_2 C 0.9942(6) 0.3896(5) 0.3815(6)
C77_2 C 0.9942(6) 0.6104(5) 0.1185(6)
C79_2 C 0.8815(6) 0.5058(6) 0.6104(5)
C80_2 C 0.6396(5) 0.2442(6) 0.6315(6)
C81_2 C 0.6185(6) 0.5058(6) 0.3896(5)
C82_2 C 0.8604(5) 0.2442(6) 0.3685(6)
H80_2 H 0.8922 0.9125 0.4808
H81_2 H 0.8375 0.6422 0.7692
H82_2 H 0.9808 0.3922 0.4125
H84_2 H 0.9808 0.6078 0.0875
H86_2 H 0.9125 0.5192 0.6078
H87_2 H 0.6422 0.2308 0.6625
H88_2 H 0.5875 0.5192 0.3922
H89_2 H 0.8578 0.2308 0.3375
C84_2 C 0.9303(4) 0.8632(4) 0.5180(4)
C85_2 C 0.8868(4) 0.6803(4) 0.7320(4)
C90_2 C 0.8632(4) 0.4820(4) 0.5697(4)
C91_2 C 0.6803(4) 0.2680(4) 0.6132(4)
C92_2 C 0.6368(4) 0.4820(4) 0.4303(4)
C93_2 C 0.8197(4) 0.2680(4) 0.3868(4)
C95_2 C 0.9783(5) 0.8906(4) 0.5168(4)
C96_2 C 0.8594(4) 0.7283(5) 0.7332(4)
C101_2 C 0.8906(4) 0.4832(4) 0.5217(5)
C102_2 C 0.7283(5) 0.2668(4) 0.6406(4)
C103_2 C 0.6094(4) 0.4832(4) 0.4783(5)
C104_2 C 0.7717(5) 0.2668(4) 0.3594(4)
C107_2 C 0.8598(6) 0.8144(6) 0.7411(10)
C112_2 C 0.8902(6) 0.4911(10) 0.4356(6)
C113_2 C 0.8144(6) 0.2589(10) 0.6402(6)
C114_2 C 0.6098(6) 0.4911(10) 0.5644(6)
C115_2 C 0.6856(6) 0.2589(10) 0.3598(6)
H92_2 H 0.8617 0.8234 0.7752
H93_2 H 0.9748 0.5734 0.3883
H95_2 H 0.9748 0.4266 0.1117
H97_2 H 0.8883 0.5252 0.4266
H98_2 H 0.8234 0.2248 0.6383
H99_2 H 0.6117 0.5252 0.5734
H100_2 H 0.6766 0.2248 0.3617
H103_2 H 0.8258 0.8123 0.7322
H108_2 H 0.9242 0.4822 0.4377
H109_2 H 0.8123 0.2678 0.6742
H110_2 H 0.5758 0.4822 0.5623
H111_2 H 0.6877 0.2678 0.3258
C118_2 C 0.8830(7) 0.8505(5) 0.7125(7)
C123_2 C 0.8670(7) 0.4625(7) 0.3995(5)
C124_2 C 0.8505(5) 0.2875(7) 0.6170(7)
C125_2 C 0.6330(7) 0.4625(7) 0.6005(5)
C126_2 C 0.6495(5) 0.2875(7) 0.3830(7)
C129_2 C 0.8867(7) 0.8538(6) 0.6609(7)
C134_2 C 0.8633(7) 0.4109(7) 0.3962(6)
C135_2 C 0.8538(6) 0.3391(7) 0.6133(7)
C136_2 C 0.6367(7) 0.4109(7) 0.6038(6)
C137_2 C 0.6462(6) 0.3391(7) 0.3867(7)
H114_2 H 0.8744 0.8311 0.6390
H119_2 H 0.8756 0.3890 0.4189
H120_2 H 0.8311 0.3610 0.6256
H121_2 H 0.6244 0.3890 0.5811
H122_2 H 0.6689 0.3610 0.3744
C140_2 C 0.9114(8) 0.8966(7) 0.6480(6)
C145_2 C 0.8386(8) 0.3980(6) 0.3534(7)
C146_2 C 0.8966(7) 0.3520(6) 0.5886(8)
C147_2 C 0.6614(8) 0.3980(6) 0.6466(7)
C148_2 C 0.6034(7) 0.3520(6) 0.4114(8)
H125_2 H 0.9175 0.9076 0.6165
H130_2 H 0.8325 0.3665 0.3424
H131_2 H 0.9076 0.3835 0.5825
H132_2 H 0.6675 0.3665 0.6576
H133_2 H 0.5924 0.3835 0.4175
C151_2 C 0.9257(7) 0.9201(6) 0.6922(8)
C156_2 C 0.8243(7) 0.4422(8) 0.3299(6)
C157_2 C 0.9201(6) 0.3078(8) 0.5743(7)
C158_2 C 0.6757(7) 0.4422(8) 0.6701(6)
C159_2 C 0.5799(6) 0.3078(8) 0.4257(7)
H136_2 H 0.9426 0.9493 0.6948
H141_2 H 0.8074 0.4448 0.3007
H142_2 H 0.9493 0.3052 0.5574
H143_2 H 0.6926 0.4448 0.6993
H144_2 H 0.5507 0.3052 0.4426
Nd1_3 Nd 0.52283(2) 0.02283(2) 0.47717(2)
N2_3 N 0.5078(5) 0.0236(6) 0.3719(4)
O4_3 O 0.5119(6) 0.0624(4) 0.3954(4)
O6_3 O 0.5045(7) 0.0237(6) 0.3273(3)
N7_3 N 0.7340(6) 0.1171(4) 0.7324(5)
N8_3 N 0.5160(6) 0.0176(5) 0.8671(4)
N10_3 N 0.3671(4) 0.0160(6) 0.5176(5)
N11_3 N 0.2676(5) 0.2340(6) 0.3829(4)
N12_3 N 0.1329(4) 0.0160(6) 0.4824(5)
N13_3 N 0.2324(5) 0.2340(6) 0.6171(4)
H17_3 H 0.7301 0.0861 0.7334
H18_3 H 0.5199 0.0166 0.8361
H20_3 H 0.3361 0.0199 0.5166
H21_3 H 0.2666 0.2301 0.4139
H22_3 H 0.1639 0.0199 0.4834
H23_3 H 0.2334 0.2301 0.5861
N14_3 N 0.6281(4) 0.0078(5) 0.4764(6)
N15_3 N 0.5236(6) 0.1281(4) 0.4922(5)
O10_3 O 0.5139(3) 0.0223(3) 0.5638(3)
O11_2 O 0.7361(3) 0.1862(3) 0.7723(3)
O14_3 O 0.4362(3) 0.0139(3) 0.4777(3)
O17_2 O 0.2723(3) 0.2361(3) 0.6862(3)
O28_3 O 0.7313(6) 0.0906(5) 0.6089(5)
O29_3 O 0.5187(6) 0.1411(5) 0.8406(5)
O31_3 O 0.3406(5) 0.0187(6) 0.6411(5)
O32_3 O 0.3911(5) 0.2313(6) 0.4094(5)
O33_3 O 0.1594(5) 0.0187(6) 0.3589(5)
O34_3 O 0.1089(5) 0.2313(6) 0.5906(5)
O38_3 O 0.5645(3) 0.0383(3) 0.6989(3)
O39_3 O 0.6855(3) 0.0511(3) 0.7883(3)
O42_3 O 0.3011(3) 0.0645(3) 0.4617(3)
O43_3 O 0.2117(3) 0.1855(3) 0.4489(3)
O44_3 O 0.1989(3) 0.0645(3) 0.5383(3)
O45_3 O 0.2883(3) 0.1855(3) 0.5511(3)
O46_3 O 0.6046(4) 0.0119(6) 0.4376(4)
O47_3 O 0.5624(4) 0.1046(4) 0.4881(6)
O57_3 O 0.6059(3) 0.0102(4) 0.5149(4)
O58_3 O 0.4851(4) 0.1059(3) 0.4898(4)
O68_3 O 0.6727(3) 0.0045(7) 0.4763(6)
O69_3 O 0.5237(6) 0.1727(3) 0.4955(7)
C15_3 C 0.6250 0.0000 0.7500
C16_4 C 0.2500 0.1250 0.5000
C20_3 C 0.5930(4) 0.0454(4) 0.7441(4)
C21_3 C 0.6570(4) 0.0059(4) 0.7954(4)
C24_3 C 0.2559(4) 0.0930(4) 0.4546(4)
C25_3 C 0.2046(4) 0.1570(4) 0.4941(4)
C26_3 C 0.2441(4) 0.0930(4) 0.5454(4)
C27_3 C 0.2954(4) 0.1570(4) 0.5059(4)
H27_3 H 0.5714 0.0490 0.7718
H30_3 H 0.6786 0.0218 0.7010
H31_3 H 0.2282 0.0714 0.4510
H32_3 H 0.2010 0.1786 0.5218
H33_3 H 0.2718 0.0714 0.5490
H34_3 H 0.2990 0.1786 0.4782
H38_3 H 0.6130 0.0744 0.7416
H39_3 H 0.6370 0.0084 0.8244
H42_3 H 0.2584 0.1130 0.4256
H43_3 H 0.1756 0.1370 0.4916
H44_3 H 0.2416 0.1130 0.5744
H45_3 H 0.3244 0.1370 0.5084
C31_3 C 0.5392(4) 0.0766(4) 0.6815(4)
C32_3 C 0.7108(4) 0.0685(4) 0.8266(4)
C35_3 C 0.3185(4) 0.0392(4) 0.4234(4)
C36_3 C 0.1734(4) 0.2108(4) 0.4315(4)
C37_3 C 0.1815(4) 0.0392(4) 0.5766(4)
C38_3 C 0.3266(4) 0.2108(4) 0.5685(4)
C42_3 C 0.5375(5) 0.1210(4) 0.7064(4)
C43_3 C 0.7125(5) 0.0436(4) 0.8710(4)
C46_3 C 0.2936(4) 0.0375(5) 0.3790(4)
C47_3 C 0.1290(4) 0.2125(5) 0.4564(4)
C48_3 C 0.2064(4) 0.0375(5) 0.6210(4)
C49_3 C 0.3710(4) 0.2125(5) 0.5436(4)
H49_3 H 0.5535 0.1252 0.7359
H50_3 H 0.6965 0.0141 0.8752
H53_3 H 0.2641 0.0535 0.3748
H54_3 H 0.1248 0.1965 0.4859
H55_3 H 0.2359 0.0535 0.6252
H56_3 H 0.3752 0.1965 0.5141
C53_3 C 0.5113(7) 0.1581(6) 0.6856(6)
C54_3 C 0.7387(7) 0.0644(6) 0.9081(6)
C57_3 C 0.3144(6) 0.0113(7) 0.3419(6)
C58_3 C 0.0919(6) 0.2387(7) 0.4356(6)
C59_3 C 0.1856(6) 0.0113(7) 0.6581(6)
C60_3 C 0.4081(6) 0.2387(7) 0.5644(6)
H60_3 H 0.5088 0.1876 0.7019
H61_3 H 0.7412 0.0481 0.9376
H64_3 H 0.2981 0.0088 0.3124
H65_3 H 0.0624 0.2412 0.4519
H66_3 H 0.2019 0.0088 0.6876
H67_3 H 0.4376 0.2412 0.5481
C64_3 C 0.4888(8) 0.1527(6) 0.6415(7)
C65_3 C 0.7612(8) 0.1085(7) 0.9027(6)
C69_3 C 0.0973(6) 0.2612(8) 0.3915(7)
C71_3 C 0.4027(6) 0.2612(8) 0.6085(7)
H71_3 H 0.4703 0.1777 0.6281
H72_3 H 0.7797 0.1219 0.9277
H76_3 H 0.0723 0.2797 0.3781
H78_3 H 0.4277 0.2797 0.6219
C75_3 C 0.4942(6) 0.1104(5) 0.6185(6)
C76_3 C 0.7558(6) 0.1315(6) 0.8604(5)
C80_3 C 0.1396(5) 0.2558(6) 0.3685(6)
C82_3 C 0.3604(5) 0.2558(6) 0.6315(6)
H82_3 H 0.4808 0.1078 0.5875
H83_3 H 0.7692 0.1625 0.8578
H87_3 H 0.1422 0.2692 0.3375
H89_3 H 0.3578 0.2692 0.6625
C86_3 C 0.5180(4) 0.0697(4) 0.6368(4)
C87_3 C 0.7320(4) 0.1132(4) 0.8197(4)
C90_3 C 0.3632(4) 0.0180(4) 0.4303(4)
C91_3 C 0.1803(4) 0.2320(4) 0.3868(4)
C92_3 C 0.1368(4) 0.0180(4) 0.5697(4)
C93_3 C 0.3197(4) 0.2320(4) 0.6132(4)
C97_3 C 0.5168(4) 0.0217(5) 0.6094(4)
C98_3 C 0.7332(4) 0.1406(4) 0.7717(5)
C101_3 C 0.3906(4) 0.0168(4) 0.4783(5)
C102_3 C 0.2283(5) 0.2332(4) 0.3594(4)
C103_3 C 0.1094(4) 0.0168(4) 0.5217(5)
C104_3 C 0.2717(5) 0.2332(4) 0.6406(4)
C109_3 C 0.7411(10) 0.1402(6) 0.6856(6)
C110_3 C 0.5089(10) 0.0644(6) 0.8902(6)
C112_3 C 0.3902(6) 0.0089(10) 0.5644(6)
C113_3 C 0.3144(6) 0.2411(10) 0.3598(6)
C114_3 C 0.1098(6) 0.0089(10) 0.4356(6)
C115_3 C 0.1856(6) 0.2411(10) 0.6402(6)
H94_3 H 0.7752 0.1383 0.6766
H95_3 H 0.4748 0.0734 0.8883
H98_3 H 0.3234 0.2752 0.3617
H100_3 H 0.1766 0.2752 0.6383
H105_3 H 0.7322 0.1742 0.6877
H106_3 H 0.5178 0.0623 0.9242
H108_3 H 0.4242 0.0178 0.5623
H109_3 H 0.3123 0.2322 0.3258
H110_3 H 0.0758 0.0178 0.4377
H111_3 H 0.1877 0.2322 0.6742
C120_3 C 0.7125(7) 0.1170(7) 0.6495(5)
C121_3 C 0.5375(7) 0.1005(5) 0.8670(7)
C123_3 C 0.3670(7) 0.0375(7) 0.6005(5)
C124_3 C 0.3505(5) 0.2125(7) 0.3830(7)
C125_3 C 0.1330(7) 0.0375(7) 0.3995(5)
C126_3 C 0.1495(5) 0.2125(7) 0.6170(7)
C131_3 C 0.6609(7) 0.1133(7) 0.6462(6)
C132_3 C 0.5891(7) 0.1038(6) 0.8633(7)
C134_3 C 0.3633(7) 0.0891(7) 0.6038(6)
C135_3 C 0.3538(6) 0.1609(7) 0.3867(7)
C136_3 C 0.1367(7) 0.0891(7) 0.3962(6)
C137_3 C 0.1462(6) 0.1609(7) 0.6133(7)
H116_3 H 0.6390 0.1256 0.6689
H117_3 H 0.6110 0.0811 0.8756
H119_3 H 0.3756 0.1110 0.5811
H120_3 H 0.3311 0.1390 0.3744
H121_3 H 0.1244 0.1110 0.4189
H122_3 H 0.1689 0.1390 0.6256
C142_3 C 0.6480(6) 0.0886(8) 0.6034(7)
C143_3 C 0.6020(6) 0.1466(7) 0.8386(8)
C145_3 C 0.3386(8) 0.1020(6) 0.6466(7)
C146_3 C 0.3966(7) 0.1480(6) 0.4114(8)
C147_3 C 0.1614(8) 0.1020(6) 0.3534(7)
C148_3 C 0.1034(7) 0.1480(6) 0.5886(8)
H127_3 H 0.6165 0.0825 0.5924
H128_3 H 0.6335 0.1576 0.8325
H130_3 H 0.3325 0.1335 0.6576
H131_3 H 0.4076 0.1165 0.4175
H132_3 H 0.1675 0.1335 0.3424
H133_3 H 0.0924 0.1165 0.5825
C153_3 C 0.6922(8) 0.0743(7) 0.5799(6)
C154_3 C 0.5578(8) 0.1701(6) 0.8243(7)
C156_3 C 0.3243(7) 0.0578(8) 0.6701(6)
C157_3 C 0.4201(6) 0.1922(8) 0.4257(7)
C158_3 C 0.1757(7) 0.0578(8) 0.3299(6)
C159_3 C 0.0799(6) 0.1922(8) 0.5743(7)
H138_3 H 0.6948 0.0574 0.5507
H139_3 H 0.5552 0.1993 0.8074
H141_3 H 0.3074 0.0552 0.6993
H142_3 H 0.4493 0.1948 0.4426
H143_3 H 0.1926 0.0552 0.3007
H144_3 H 0.0507 0.1948 0.5574
N1_3 N 0.4824(5) 0.8671(4) 0.4840(6)
H1_3 H 0.4834 0.8361 0.4801
O1_3 O 0.5223(3) 0.9362(3) 0.4861(3)
O2_3 O 0.3589(5) 0.8406(5) 0.4813(6)
O3_3 O 0.5383(3) 0.8011(3) 0.4355(3)
O5_3 O 0.5102(4) 0.9851(4) 0.3941(3)
C1_4 C 0.5000 0.7500 0.3750
C2_3 C 0.5454(4) 0.7559(4) 0.4070(4)
H2_3 H 0.5490 0.7282 0.4286
H3_3 H 0.5744 0.7584 0.3870
C3_3 C 0.5766(4) 0.8185(4) 0.4608(4)
C4_3 C 0.6210(4) 0.7936(4) 0.4625(5)
H4_3 H 0.6252 0.7641 0.4465
C5_3 C 0.6581(6) 0.8144(6) 0.4887(7)
H5_3 H 0.6876 0.7981 0.4912
C6_3 C 0.6527(6) 0.8585(7) 0.5112(8)
H6_3 H 0.6777 0.8719 0.5297
C7_3 C 0.6104(5) 0.8815(6) 0.5058(6)
H7_3 H 0.6078 0.9125 0.5192
C8_3 C 0.5697(4) 0.8632(4) 0.4820(4)
C9_3 C 0.5217(5) 0.8906(4) 0.4832(4)
C10_3 C 0.4356(6) 0.8902(6) 0.4911(10)
H8_3 H 0.4266 0.8883 0.5252
H9_3 H 0.4377 0.9242 0.4822
C11_3 C 0.3995(5) 0.8670(7) 0.4625(7)
C12_3 C 0.3962(6) 0.8633(7) 0.4109(7)
H10_3 H 0.4189 0.8756 0.3890
C13_3 C 0.3534(7) 0.8386(8) 0.3980(6)
H11_3 H 0.3424 0.8325 0.3665
C14_3 C 0.3299(6) 0.8243(7) 0.4422(8)
H12_3 H 0.3007 0.8074 0.4448
N3_3 N 0.6171(4) 0.7676(5) 0.2660(6)
N4_3 N 0.5176(5) 0.6329(4) 0.4840(6)
N5_3 N 0.3829(4) 0.7324(5) 0.2660(6)
N6_3 N 0.5160(6) 0.9824(5) 0.6329(4)
N9_3 N 0.7340(6) 0.8829(4) 0.7676(5)
H13_3 H 0.5861 0.7666 0.2699
H14_3 H 0.5166 0.6639 0.4801
H15_3 H 0.4139 0.7334 0.2699
H16_3 H 0.5199 0.9834 0.6639
H19_3 H 0.7301 0.9139 0.7666
N16_3 N 0.7736(6) 0.7422(5) 0.3781(4)
N17_3 N 0.7578(5) 0.6219(4) 0.2736(6)
N18_3 N 0.8781(4) 0.7264(6) 0.2578(5)
N19_3 N 0.4922(5) 0.4764(6) 0.3719(4)
N20_3 N 0.3719(4) 0.4922(5) 0.4764(6)
N21_3 N 0.4764(6) 0.3719(4) 0.4922(5)
N22_3 N 0.2264(6) 0.7578(5) 0.3781(4)
N23_3 N 0.2422(5) 0.8781(4) 0.2736(6)
N24_3 N 0.1219(4) 0.7736(6) 0.2578(5)
O7_3 O 0.6862(3) 0.7277(3) 0.2639(3)
O8_3 O 0.4777(3) 0.5638(3) 0.4861(3)
O9_3 O 0.3138(3) 0.7723(3) 0.2639(3)
O19_2 O 0.7639(3) 0.8138(3) 0.2723(3)
O22_2 O 0.2277(3) 0.7639(3) 0.1862(3)
O24_3 O 0.5906(5) 0.8911(5) 0.2687(6)
O25_3 O 0.6411(5) 0.6594(5) 0.4813(6)
O26_3 O 0.4094(5) 0.6089(5) 0.2687(6)
O27_3 O 0.5187(6) 0.8589(5) 0.6594(5)
O30_3 O 0.7313(6) 0.9094(5) 0.8911(5)
O35_3 O 0.5511(3) 0.7117(3) 0.3145(3)
O36_3 O 0.4617(3) 0.6989(3) 0.4355(3)
O37_3 O 0.4489(3) 0.7883(3) 0.3145(3)
O40_3 O 0.5645(3) 0.9617(3) 0.8011(3)
O41_3 O 0.6855(3) 0.9489(3) 0.7117(3)
O48_3 O 0.8124(4) 0.7381(6) 0.3546(4)
O49_3 O 0.7619(6) 0.6454(4) 0.3124(4)
O50_3 O 0.8546(4) 0.6876(4) 0.2619(6)
O51_3 O 0.4881(6) 0.4376(4) 0.3954(4)
O52_3 O 0.3954(4) 0.4881(6) 0.4376(4)
O53_3 O 0.4376(4) 0.3954(4) 0.4881(6)
O54_3 O 0.1876(4) 0.7619(6) 0.3546(4)
O55_3 O 0.2381(6) 0.8546(4) 0.3124(4)
O56_3 O 0.1454(4) 0.8124(4) 0.2619(6)
O59_3 O 0.7351(4) 0.7398(4) 0.3559(3)
O60_3 O 0.7602(4) 0.6441(3) 0.2351(4)
O61_3 O 0.8559(3) 0.7649(4) 0.2602(4)
O62_3 O 0.4898(4) 0.5149(4) 0.3941(3)
O63_3 O 0.3941(3) 0.4898(4) 0.5149(4)
O64_3 O 0.5149(4) 0.3941(3) 0.4898(4)
O65_3 O 0.2649(4) 0.7602(4) 0.3559(3)
O66_3 O 0.2398(4) 0.8559(3) 0.2351(4)
O67_3 O 0.1441(3) 0.7351(4) 0.2602(4)
O70_3 O 0.7737(6) 0.7455(7) 0.4227(3)
O71_3 O 0.7545(7) 0.5773(3) 0.2737(6)
O72_3 O 0.9227(3) 0.7263(6) 0.2545(7)
O73_3 O 0.4955(7) 0.4763(6) 0.3273(3)
O74_3 O 0.3273(3) 0.4955(7) 0.4763(6)
O75_3 O 0.4763(6) 0.3273(3) 0.4955(7)
O76_3 O 0.2263(6) 0.7545(7) 0.4227(3)
O77_3 O 0.2455(7) 0.9227(3) 0.2737(6)
O78_3 O 0.0773(3) 0.7737(6) 0.2545(7)
C15_4 C 0.6250 1.0000 0.7500
C17_3 C 0.5059(4) 0.7046(4) 0.3430(4)
C18_3 C 0.4546(4) 0.7441(4) 0.4070(4)
C19_3 C 0.4941(4) 0.7954(4) 0.3430(4)
C22_3 C 0.5930(4) 0.9546(4) 0.7559(4)
C23_3 C 0.6570(4) 0.9941(4) 0.7046(4)
H24_3 H 0.4782 0.7010 0.3214
H25_3 H 0.4510 0.7718 0.4286
H26_3 H 0.5218 0.7990 0.3214
H28_3 H 0.6786 0.9782 0.7990
H29_3 H 0.5714 0.9510 0.7282
H35_3 H 0.5084 0.6756 0.3630
H36_3 H 0.4256 0.7416 0.3870
H37_3 H 0.4916 0.8244 0.3630
H40_3 H 0.6130 0.9256 0.7584
H41_3 H 0.6370 0.9916 0.6756
C28_3 C 0.5685(4) 0.6734(4) 0.2892(4)
C29_3 C 0.4234(4) 0.6815(4) 0.4608(4)
C30_3 C 0.4315(4) 0.8266(4) 0.2892(4)
C33_3 C 0.5392(4) 0.9234(4) 0.8185(4)
C34_3 C 0.7108(4) 0.9315(4) 0.6734(4)
C39_3 C 0.5436(4) 0.6290(4) 0.2875(5)
C40_3 C 0.3790(4) 0.7064(4) 0.4625(5)
C41_3 C 0.4564(4) 0.8710(4) 0.2875(5)
C44_3 C 0.5375(5) 0.8790(4) 0.7936(4)
C45_3 C 0.7125(5) 0.9564(4) 0.6290(4)
H46_3 H 0.5141 0.6248 0.3035
H47_3 H 0.3748 0.7359 0.4465
H48_3 H 0.4859 0.8752 0.3035
H51_3 H 0.5535 0.8748 0.7641
H52_3 H 0.6965 0.9859 0.6248
C50_3 C 0.5644(6) 0.5919(6) 0.2613(7)
C51_3 C 0.3419(6) 0.6856(6) 0.4887(7)
C52_3 C 0.4356(6) 0.9081(6) 0.2613(7)
C55_3 C 0.5113(7) 0.8419(6) 0.8144(6)
C56_3 C 0.7387(7) 0.9356(6) 0.5919(6)
H57_3 H 0.5481 0.5624 0.2588
H58_3 H 0.3124 0.7019 0.4912
H59_3 H 0.4519 0.9376 0.2588
H62_3 H 0.5088 0.8124 0.7981
H63_3 H 0.7412 0.9519 0.5624
C61_3 C 0.6085(7) 0.5973(6) 0.2388(8)
C62_3 C 0.3473(6) 0.6415(7) 0.5112(8)
C63_3 C 0.3915(7) 0.9027(6) 0.2388(8)
C66_3 C 0.4888(8) 0.8473(6) 0.8585(7)
C67_3 C 0.7612(8) 0.8915(7) 0.5973(6)
C68_3 C 0.3585(7) 0.9888(8) 0.3473(6)
C70_3 C 0.1415(7) 0.9888(8) 0.6527(6)
H68_3 H 0.6219 0.5723 0.2203
H69_3 H 0.3223 0.6281 0.5297
H70_3 H 0.3781 0.9277 0.2203
H73_3 H 0.4703 0.8223 0.8719
H74_3 H 0.7797 0.8781 0.5723
H75_3 H 0.3719 0.9703 0.3223
H77_3 H 0.1281 0.9703 0.6777
C72_3 C 0.6315(6) 0.6396(5) 0.2442(6)
C73_3 C 0.3896(5) 0.6185(6) 0.5058(6)
C74_3 C 0.3685(6) 0.8604(5) 0.2442(6)
C77_3 C 0.4942(6) 0.8896(5) 0.8815(6)
C78_3 C 0.7558(6) 0.8685(6) 0.6396(5)
C79_3 C 0.3815(6) 0.9942(6) 0.3896(5)
C81_3 C 0.1185(6) 0.9942(6) 0.6104(5)
H79_3 H 0.6625 0.6422 0.2308
H80_3 H 0.3922 0.5875 0.5192
H81_3 H 0.3375 0.8578 0.2308
H84_3 H 0.4808 0.8922 0.9125
H85_3 H 0.7692 0.8375 0.6422
H86_3 H 0.4125 0.9808 0.3922
H88_3 H 0.0875 0.9808 0.6078
C83_3 C 0.6132(4) 0.6803(4) 0.2680(4)
C84_3 C 0.4303(4) 0.6368(4) 0.4820(4)
C85_3 C 0.3868(4) 0.8197(4) 0.2680(4)
C88_3 C 0.5180(4) 0.9303(4) 0.8632(4)
C89_3 C 0.7320(4) 0.8868(4) 0.6803(4)
C94_3 C 0.6406(4) 0.7283(5) 0.2668(4)
C95_3 C 0.4783(5) 0.6094(4) 0.4832(4)
C96_3 C 0.3594(4) 0.7717(5) 0.2668(4)
C99_3 C 0.5168(4) 0.9783(5) 0.8906(4)
C100_3 C 0.7332(4) 0.8594(4) 0.7283(5)
C105_3 C 0.6402(6) 0.8144(6) 0.2589(10)
C106_3 C 0.5644(6) 0.6098(6) 0.4911(10)
C107_3 C 0.3598(6) 0.6856(6) 0.2589(10)
C108_3 C 0.5089(10) 0.9356(6) 0.6098(6)
C111_3 C 0.7411(10) 0.8598(6) 0.8144(6)
H90_3 H 0.6383 0.8234 0.2248
H91_3 H 0.5734 0.6117 0.5252
H92_3 H 0.3617 0.6766 0.2248
H93_3 H 0.4748 0.9266 0.6117
H96_3 H 0.7752 0.8617 0.8234
H97_3 H 0.3883 0.9748 0.5734
H99_3 H 0.1117 0.9748 0.4266
H101_3 H 0.6742 0.8123 0.2678
H102_3 H 0.5623 0.5758 0.4822
H103_3 H 0.3258 0.6877 0.2678
H104_3 H 0.5178 0.9377 0.5758
H107_3 H 0.7322 0.8258 0.8123
C116_3 C 0.6170(7) 0.8505(5) 0.2875(7)
C117_3 C 0.6005(5) 0.6330(7) 0.4625(7)
C118_3 C 0.3830(7) 0.6495(5) 0.2875(7)
C119_3 C 0.5375(7) 0.8995(5) 0.6330(7)
C122_3 C 0.7125(7) 0.8830(7) 0.8505(5)
C127_3 C 0.6133(7) 0.8538(6) 0.3391(7)
C128_3 C 0.6038(6) 0.6367(7) 0.4109(7)
C129_3 C 0.3867(7) 0.6462(6) 0.3391(7)
C130_3 C 0.5891(7) 0.8962(6) 0.6367(7)
C133_3 C 0.6609(7) 0.8867(7) 0.8538(6)
H112_3 H 0.6256 0.8311 0.3610
H113_3 H 0.5811 0.6244 0.3890
H114_3 H 0.3744 0.6689 0.3610
H115_3 H 0.6110 0.9189 0.6244
H118_3 H 0.6390 0.8744 0.8311
C138_3 C 0.5886(8) 0.8966(7) 0.3520(6)
C139_3 C 0.6466(7) 0.6614(8) 0.3980(6)
C140_3 C 0.4114(8) 0.6034(7) 0.3520(6)
C141_3 C 0.6020(6) 0.8534(7) 0.6614(8)
C144_3 C 0.6480(6) 0.9114(8) 0.8966(7)
H123_3 H 0.5825 0.9076 0.3835
H124_3 H 0.6576 0.6675 0.3665
H125_3 H 0.4175 0.5924 0.3835
H126_3 H 0.6335 0.8424 0.6675
H129_3 H 0.6165 0.9175 0.9076
C149_3 C 0.5743(7) 0.9201(6) 0.3078(8)
C150_3 C 0.6701(6) 0.6757(7) 0.4422(8)
C151_3 C 0.4257(7) 0.5799(6) 0.3078(8)
C152_3 C 0.5578(8) 0.8299(6) 0.6757(7)
C155_3 C 0.6922(8) 0.9257(7) 0.9201(6)
H134_3 H 0.5574 0.9493 0.3052
H135_3 H 0.6993 0.6926 0.4448
H136_3 H 0.4426 0.5507 0.3052
H137_3 H 0.5552 0.8007 0.6926
H140_3 H 0.6948 0.9426 0.9493
H8_4 H 0.0734 0.1117 0.0252
O63_4 O 0.1059(3) 0.5102(4) 0.0149(4)
C62_4 C 0.1527(6) 0.3585(7) 0.0112(8)
C66_4 C 0.0112(8) 0.1527(6) 0.3585(7)
C70_4 C 0.3585(7) 0.0112(8) 0.1527(6)
H69_4 H 0.1777 0.3719 0.0297
H73_4 H 0.0297 0.1777 0.3719
H77_4 H 0.3719 0.0297 0.1777
C73_4 C 0.1104(5) 0.3815(6) 0.0058(6)
C77_4 C 0.0058(6) 0.1104(5) 0.3815(6)
C81_4 C 0.3815(6) 0.0058(6) 0.1104(5)
H80_4 H 0.1078 0.4125 0.0192
H84_4 H 0.0192 0.1078 0.4125
H88_4 H 0.4125 0.0192 0.1078
H93_4 H 0.0252 0.0734 0.1117
H97_4 H 0.1117 0.0252 0.0734
N1_4 N 0.0176(5) 0.1329(4) 0.9840(6)
H1_4 H 0.0166 0.1639 0.9801
O2_4 O 0.1411(5) 0.1594(5) 0.9813(6)
C1_5 C 0.0000 0.2500 0.8750
C10_4 C 0.0644(6) 0.1098(6) 0.9911(10)
H9_4 H 0.0623 0.0758 0.9822
C11_4 C 0.1005(5) 0.1330(7) 0.9625(7)
C12_4 C 0.1038(6) 0.1367(7) 0.9109(7)
H10_4 H 0.0811 0.1244 0.8890
C13_4 C 0.1466(7) 0.1614(8) 0.8980(6)
H11_4 H 0.1576 0.1675 0.8665
C14_4 C 0.1701(6) 0.1757(7) 0.9422(8)
H12_4 H 0.1993 0.1926 0.9448
N5_4 N 0.1171(4) 0.2676(5) 0.7660(6)
H15_4 H 0.0861 0.2666 0.7699
N19_4 N 0.0078(5) 0.5236(6) 0.8719(4)
N20_4 N 0.1281(4) 0.5078(5) 0.9764(6)
N21_4 N 0.0236(6) 0.6281(4) 0.9922(5)
N22_4 N 0.2736(6) 0.2422(5) 0.8781(4)
N23_4 N 0.2578(5) 0.1219(4) 0.7736(6)
N24_4 N 0.3781(4) 0.2264(6) 0.7578(5)
O8_4 O 0.0223(3) 0.4362(3) 0.9861(3)
O9_4 O 0.1862(3) 0.2277(3) 0.7639(3)
O26_4 O 0.0906(5) 0.3911(5) 0.7687(6)
O36_4 O 0.0383(3) 0.3011(3) 0.9355(3)
O37_4 O 0.0511(3) 0.2117(3) 0.8145(3)
O51_4 O 0.0119(6) 0.5624(4) 0.8954(4)
O52_4 O 0.1046(4) 0.5119(6) 0.9376(4)
O53_4 O 0.0624(4) 0.6046(4) 0.9881(6)
O54_4 O 0.3124(4) 0.2381(6) 0.8546(4)
O55_4 O 0.2619(6) 0.1454(4) 0.8124(4)
O56_4 O 0.3546(4) 0.1876(4) 0.7619(6)
O62_4 O 0.0102(4) 0.4851(4) 0.8941(3)
O65_4 O 0.2351(4) 0.2398(4) 0.8559(3)
O66_4 O 0.2602(4) 0.1441(3) 0.7351(4)
O67_4 O 0.3559(3) 0.2649(4) 0.7602(4)
O73_4 O 0.0045(7) 0.5237(6) 0.8273(3)
O74_4 O 0.1727(3) 0.5045(7) 0.9763(6)
O75_4 O 0.0237(6) 0.6727(3) 0.9955(7)
O76_4 O 0.2737(6) 0.2455(7) 0.9227(3)
O77_4 O 0.2545(7) 0.0773(3) 0.7737(6)
O78_4 O 0.4227(3) 0.2263(6) 0.7545(7)
C18_4 C 0.0454(4) 0.2559(4) 0.9070(4)
C19_4 C 0.0059(4) 0.2046(4) 0.8430(4)
H24_4 H 0.0218 0.2990 0.8214
H25_4 H 0.0490 0.2282 0.9286
H36_4 H 0.0744 0.2584 0.8870
H37_4 H 0.0084 0.1756 0.8630
C29_4 C 0.0766(4) 0.3185(4) 0.9608(4)
C30_4 C 0.0685(4) 0.1734(4) 0.7892(4)
C40_4 C 0.1210(4) 0.2936(4) 0.9625(5)
C41_4 C 0.0436(4) 0.1290(4) 0.7875(5)
H47_4 H 0.1252 0.2641 0.9465
H48_4 H 0.0141 0.1248 0.8035
C51_4 C 0.1581(6) 0.3144(6) 0.9887(7)
C52_4 C 0.0644(6) 0.0919(6) 0.7613(7)
H58_4 H 0.1876 0.2981 0.9912
H59_4 H 0.0481 0.0624 0.7588
C63_4 C 0.1085(7) 0.0973(6) 0.7388(8)
C68_4 C 0.1415(7) 0.0112(8) 0.8473(6)
H70_4 H 0.1219 0.0723 0.7203
H75_4 H 0.1281 0.0297 0.8223
C74_4 C 0.1315(6) 0.1396(5) 0.7442(6)
C79_4 C 0.1185(6) 0.0058(6) 0.8896(5)
H81_4 H 0.1625 0.1422 0.7308
H86_4 H 0.0875 0.0192 0.8922
C84_4 C 0.0697(4) 0.3632(4) 0.9820(4)
C85_4 C 0.1132(4) 0.1803(4) 0.7680(4)
C95_4 C 0.0217(5) 0.3906(4) 0.9832(4)
C96_4 C 0.1406(4) 0.2283(5) 0.7668(4)
C107_4 C 0.1402(6) 0.3144(6) 0.7589(10)
H92_4 H 0.1383 0.3234 0.7248
H99_4 H 0.3883 0.0252 0.9266
H103_4 H 0.1742 0.3123 0.7678
C118_4 C 0.1170(7) 0.3505(5) 0.7875(7)
C129_4 C 0.1133(7) 0.3538(6) 0.8391(7)
H114_4 H 0.1256 0.3311 0.8610
C140_4 C 0.0886(8) 0.3966(7) 0.8520(6)
H125_4 H 0.0825 0.4076 0.8835
C151_4 C 0.0743(7) 0.4201(6) 0.8078(8)
H136_4 H 0.0574 0.4493 0.8052
N10_4 N 0.1329(4) 0.9840(6) 0.0176(5)
N13_4 N 0.2676(5) 0.7660(6) 0.1171(4)
H20_4 H 0.1639 0.9801 0.0166
H23_4 H 0.2666 0.7699 0.0861
O31_4 O 0.1594(5) 0.9813(6) 0.1411(5)
O34_4 O 0.3911(5) 0.7687(6) 0.0906(5)
O44_4 O 0.3011(3) 0.9355(3) 0.0383(3)
O45_4 O 0.2117(3) 0.8145(3) 0.0511(3)
C16_5 C 0.2500 0.8750 0.0000
C26_4 C 0.2559(4) 0.9070(4) 0.0454(4)
C27_4 C 0.2046(4) 0.8430(4) 0.0059(4)
H32_4 H 0.2990 0.8214 0.0218
H33_4 H 0.2282 0.9286 0.0490
H44_4 H 0.2584 0.8870 0.0744
H45_4 H 0.1756 0.8630 0.0084
C37_4 C 0.3185(4) 0.9608(4) 0.0766(4)
C38_4 C 0.1734(4) 0.7892(4) 0.0685(4)
C48_4 C 0.2936(4) 0.9625(5) 0.1210(4)
C49_4 C 0.1290(4) 0.7875(5) 0.0436(4)
H55_4 H 0.2641 0.9465 0.1252
H56_4 H 0.1248 0.8035 0.0141
C59_4 C 0.3144(6) 0.9887(7) 0.1581(6)
C60_4 C 0.0919(6) 0.7613(7) 0.0644(6)
H66_4 H 0.2981 0.9912 0.1876
H67_4 H 0.0624 0.7588 0.0481
C64_4 C 0.0112(8) 0.8473(6) 0.1415(7)
C71_4 C 0.0973(6) 0.7388(8) 0.1085(7)
H71_4 H 0.0297 0.8223 0.1281
H78_4 H 0.0723 0.7203 0.1219
C75_4 C 0.0058(6) 0.8896(5) 0.1185(6)
C82_4 C 0.1396(5) 0.7442(6) 0.1315(6)
H82_4 H 0.0192 0.8922 0.0875
H89_4 H 0.1422 0.7308 0.1625
C92_4 C 0.3632(4) 0.9820(4) 0.0697(4)
C93_4 C 0.1803(4) 0.7680(4) 0.1132(4)
C103_4 C 0.3906(4) 0.9832(4) 0.0217(5)
C104_4 C 0.2283(5) 0.7668(4) 0.1406(4)
C112_4 C 0.1098(6) 0.9911(10) 0.0644(6)
C115_4 C 0.3144(6) 0.7589(10) 0.1402(6)
H95_4 H 0.0252 0.9266 0.3883
H100_4 H 0.3234 0.7248 0.1383
H108_4 H 0.0758 0.9822 0.0623
H111_4 H 0.3123 0.7678 0.1742
C123_4 C 0.1330(7) 0.9625(7) 0.1005(5)
C126_4 C 0.3505(5) 0.7875(7) 0.1170(7)
C134_4 C 0.1367(7) 0.9109(7) 0.1038(6)
C137_4 C 0.3538(6) 0.8391(7) 0.1133(7)
H119_4 H 0.1244 0.8890 0.0811
H122_4 H 0.3311 0.8610 0.1256
C145_4 C 0.1614(8) 0.8980(6) 0.1466(7)
C148_4 C 0.3966(7) 0.8520(6) 0.0886(8)
H130_4 H 0.1675 0.8665 0.1576
H133_4 H 0.4076 0.8835 0.0825
C156_4 C 0.1757(7) 0.9422(8) 0.1701(6)
C159_4 C 0.4201(6) 0.8078(8) 0.0743(7)
H141_4 H 0.1926 0.9448 0.1993
H144_4 H 0.4493 0.8052 0.0574
N11_4 N 0.2324(5) 0.7660(6) 0.8829(4)
N12_4 N 0.3671(4) 0.9840(6) 0.9824(5)
H21_4 H 0.2334 0.7699 0.9139
H22_4 H 0.3361 0.9801 0.9834
O14_4 O 0.0638(3) 0.9861(3) 0.9777(3)
O32_4 O 0.1089(5) 0.7687(6) 0.9094(5)
O33_4 O 0.3406(5) 0.9813(6) 0.8589(5)
O42_4 O 0.1989(3) 0.9355(3) 0.9617(3)
O43_4 O 0.2883(3) 0.8145(3) 0.9489(3)
O58_4 O 0.0149(4) 0.8941(3) 0.9898(4)
C16_6 C 0.2500 0.8750 1.0000
C24_4 C 0.2441(4) 0.9070(4) 0.9546(4)
C25_4 C 0.2954(4) 0.8430(4) 0.9941(4)
H31_4 H 0.2718 0.9286 0.9510
H34_4 H 0.2010 0.8214 0.9782
H42_4 H 0.2416 0.8870 0.9256
H43_4 H 0.3244 0.8630 0.9916
C35_4 C 0.1815(4) 0.9608(4) 0.9234(4)
C36_4 C 0.3266(4) 0.7892(4) 0.9315(4)
C46_4 C 0.2064(4) 0.9625(5) 0.8790(4)
C47_4 C 0.3710(4) 0.7875(5) 0.9564(4)
H53_4 H 0.2359 0.9465 0.8748
H54_4 H 0.3752 0.8035 0.9859
C57_4 C 0.1856(6) 0.9887(7) 0.8419(6)
C58_4 C 0.4081(6) 0.7613(7) 0.9356(6)
H64_4 H 0.2019 0.9912 0.8124
H65_4 H 0.4376 0.7588 0.9519
C69_4 C 0.4027(6) 0.7388(8) 0.8915(7)
H76_4 H 0.4277 0.7203 0.8781
C80_4 C 0.3604(5) 0.7442(6) 0.8685(6)
H87_4 H 0.3578 0.7308 0.8375
C90_4 C 0.1368(4) 0.9820(4) 0.9303(4)
C91_4 C 0.3197(4) 0.7680(4) 0.8868(4)
C101_4 C 0.1094(4) 0.9832(4) 0.9783(5)
C102_4 C 0.2717(5) 0.7668(4) 0.8594(4)
C113_4 C 0.1856(6) 0.7589(10) 0.8598(6)
C114_4 C 0.3902(6) 0.9911(10) 0.9356(6)
H98_4 H 0.1766 0.7248 0.8617
H109_4 H 0.1877 0.7678 0.8258
H110_4 H 0.4242 0.9822 0.9377
C124_4 C 0.1495(5) 0.7875(7) 0.8830(7)
C125_4 C 0.3670(7) 0.9625(7) 0.8995(5)
C135_4 C 0.1462(6) 0.8391(7) 0.8867(7)
C136_4 C 0.3633(7) 0.9109(7) 0.8962(6)
H120_4 H 0.1689 0.8610 0.8744
H121_4 H 0.3756 0.8890 0.9189
C146_4 C 0.1034(7) 0.8520(6) 0.9114(8)
C147_4 C 0.3386(8) 0.8980(6) 0.8534(7)
H131_4 H 0.0924 0.8835 0.9175
H132_4 H 0.3325 0.8665 0.8424
C157_4 C 0.0799(6) 0.8078(8) 0.9257(7)
C158_4 C 0.3243(7) 0.9422(8) 0.8299(6)
H142_4 H 0.0507 0.8052 0.9426
H143_4 H 0.3074 0.9448 0.8007
C6_4 C 0.8473(6) 0.1415(7) 0.0112(8)
H6_4 H 0.8223 0.1281 0.0297
C7_4 C 0.8896(5) 0.1185(6) 0.0058(6)
H7_4 H 0.8922 0.0875 0.0192
N6_4 N 0.9840(6) 0.0176(5) 0.1329(4)
N9_4 N 0.7660(6) 0.1171(4) 0.2676(5)
H16_4 H 0.9801 0.0166 0.1639
H19_4 H 0.7699 0.0861 0.2666
O27_4 O 0.9813(6) 0.1411(5) 0.1594(5)
O30_4 O 0.7687(6) 0.0906(5) 0.3911(5)
O40_4 O 0.9355(3) 0.0383(3) 0.3011(3)
O41_4 O 0.8145(3) 0.0511(3) 0.2117(3)
C15_5 C 0.8750 0.0000 0.2500
C22_4 C 0.9070(4) 0.0454(4) 0.2559(4)
C23_4 C 0.8430(4) 0.0059(4) 0.2046(4)
H28_4 H 0.8214 0.0218 0.2990
H29_4 H 0.9286 0.0490 0.2282
H40_4 H 0.8870 0.0744 0.2584
H41_4 H 0.8630 0.0084 0.1756
C33_4 C 0.9608(4) 0.0766(4) 0.3185(4)
C34_4 C 0.7892(4) 0.0685(4) 0.1734(4)
C44_4 C 0.9625(5) 0.1210(4) 0.2936(4)
C45_4 C 0.7875(5) 0.0436(4) 0.1290(4)
H51_4 H 0.9465 0.1252 0.2641
H52_4 H 0.8035 0.0141 0.1248
C55_4 C 0.9887(7) 0.1581(6) 0.3144(6)
C56_4 C 0.7613(7) 0.0644(6) 0.0919(6)
H62_4 H 0.9912 0.1876 0.2981
H63_4 H 0.7588 0.0481 0.0624
C67_4 C 0.7388(8) 0.1085(7) 0.0973(6)
H74_4 H 0.7203 0.1219 0.0723
C78_4 C 0.7442(6) 0.1315(6) 0.1396(5)
H85_4 H 0.7308 0.1625 0.1422
C88_4 C 0.9820(4) 0.0697(4) 0.3632(4)
C89_4 C 0.7680(4) 0.1132(4) 0.1803(4)
C99_4 C 0.9832(4) 0.0217(5) 0.3906(4)
C100_4 C 0.7668(4) 0.1406(4) 0.2283(5)
C108_4 C 0.9911(10) 0.0644(6) 0.1098(6)
C111_4 C 0.7589(10) 0.1402(6) 0.3144(6)
H91_4 H 0.9266 0.3883 0.0252
H96_4 H 0.7248 0.1383 0.3234
H104_4 H 0.9822 0.0623 0.0758
H107_4 H 0.7678 0.1742 0.3123
C119_4 C 0.9625(7) 0.1005(5) 0.1330(7)
C122_4 C 0.7875(7) 0.1170(7) 0.3505(5)
C130_4 C 0.9109(7) 0.1038(6) 0.1367(7)
C133_4 C 0.8391(7) 0.1133(7) 0.3538(6)
H115_4 H 0.8890 0.0811 0.1244
H118_4 H 0.8610 0.1256 0.3311
C141_4 C 0.8980(6) 0.1466(7) 0.1614(8)
C144_4 C 0.8520(6) 0.0886(8) 0.3966(7)
H126_4 H 0.8665 0.1576 0.1675
H129_4 H 0.8835 0.0825 0.4076
C152_4 C 0.9422(8) 0.1701(6) 0.1757(7)
C155_4 C 0.8078(8) 0.0743(7) 0.4201(6)
H137_4 H 0.9448 0.1993 0.1926
H140_4 H 0.8052 0.0574 0.4493
O1_4 O 0.9777(3) 0.0638(3) 0.9861(3)
O3_4 O 0.9617(3) 0.1989(3) 0.9355(3)
O5_4 O 0.9898(4) 0.0149(4) 0.8941(3)
C1_6 C 1.0000 0.2500 0.8750
C2_4 C 0.9546(4) 0.2441(4) 0.9070(4)
H2_4 H 0.9510 0.2718 0.9286
H3_4 H 0.9256 0.2416 0.8870
C3_4 C 0.9234(4) 0.1815(4) 0.9608(4)
C4_4 C 0.8790(4) 0.2064(4) 0.9625(5)
H4_4 H 0.8748 0.2359 0.9465
C5_4 C 0.8419(6) 0.1856(6) 0.9887(7)
H5_4 H 0.8124 0.2019 0.9912
C8_4 C 0.9303(4) 0.1368(4) 0.9820(4)
C9_4 C 0.9783(5) 0.1094(4) 0.9832(4)
N3_4 N 0.8829(4) 0.2324(5) 0.7660(6)
N4_4 N 0.9824(5) 0.3671(4) 0.9840(6)
H13_4 H 0.9139 0.2334 0.7699
H14_4 H 0.9834 0.3361 0.9801
N16_4 N 0.7264(6) 0.2578(5) 0.8781(4)
N17_4 N 0.7422(5) 0.3781(4) 0.7736(6)
N18_4 N 0.6219(4) 0.2736(6) 0.7578(5)
O7_4 O 0.8138(3) 0.2723(3) 0.7639(3)
O24_4 O 0.9094(5) 0.1089(5) 0.7687(6)
O25_4 O 0.8589(5) 0.3406(5) 0.9813(6)
O35_4 O 0.9489(3) 0.2883(3) 0.8145(3)
O48_4 O 0.6876(4) 0.2619(6) 0.8546(4)
O49_4 O 0.7381(6) 0.3546(4) 0.8124(4)
O50_4 O 0.6454(4) 0.3124(4) 0.7619(6)
O59_4 O 0.7649(4) 0.2602(4) 0.8559(3)
O60_4 O 0.7398(4) 0.3559(3) 0.7351(4)
O61_4 O 0.6441(3) 0.2351(4) 0.7602(4)
O64_4 O 0.9851(4) 0.6059(3) 0.9898(4)
O70_4 O 0.7263(6) 0.2545(7) 0.9227(3)
O71_4 O 0.7455(7) 0.4227(3) 0.7737(6)
O72_4 O 0.5773(3) 0.2737(6) 0.7545(7)
C17_4 C 0.9941(4) 0.2954(4) 0.8430(4)
H26_4 H 0.9782 0.2010 0.8214
H35_4 H 0.9916 0.3244 0.8630
C28_4 C 0.9315(4) 0.3266(4) 0.7892(4)
C39_4 C 0.9564(4) 0.3710(4) 0.7875(5)
H46_4 H 0.9859 0.3752 0.8035
C50_4 C 0.9356(6) 0.4081(6) 0.7613(7)
H57_4 H 0.9519 0.4376 0.7588
C61_4 C 0.8915(7) 0.4027(6) 0.7388(8)
H68_4 H 0.8781 0.4277 0.7203
C72_4 C 0.8685(6) 0.3604(5) 0.7442(6)
H79_4 H 0.8375 0.3578 0.7308
C83_4 C 0.8868(4) 0.3197(4) 0.7680(4)
C94_4 C 0.8594(4) 0.2717(5) 0.7668(4)
C105_4 C 0.8598(6) 0.1856(6) 0.7589(10)
C106_4 C 0.9356(6) 0.3902(6) 0.9911(10)
H90_4 H 0.8617 0.1766 0.7248
H101_4 H 0.8258 0.1877 0.7678
H102_4 H 0.9377 0.4242 0.9822
C116_4 C 0.8830(7) 0.1495(5) 0.7875(7)
C117_4 C 0.8995(5) 0.3670(7) 0.9625(7)
C127_4 C 0.8867(7) 0.1462(6) 0.8391(7)
C128_4 C 0.8962(6) 0.3633(7) 0.9109(7)
H112_4 H 0.8744 0.1689 0.8610
H113_4 H 0.9189 0.3756 0.8890
C138_4 C 0.9114(8) 0.1034(7) 0.8520(6)
C139_4 C 0.8534(7) 0.3386(8) 0.8980(6)
H123_4 H 0.9175 0.0924 0.8835
H124_4 H 0.8424 0.3325 0.8665
C149_4 C 0.9257(7) 0.0799(6) 0.8078(8)
C150_4 C 0.8299(6) 0.3243(7) 0.9422(8)
H134_4 H 0.9426 0.0507 0.8052
H135_4 H 0.8007 0.3074 0.9448
N7_4 N 0.7660(6) 0.8829(4) 0.2324(5)
N8_4 N 0.9840(6) 0.9824(5) 0.3671(4)
H17_4 H 0.7699 0.9139 0.2334
H18_4 H 0.9801 0.9834 0.3361
O10_4 O 0.9861(3) 0.9777(3) 0.0638(3)
O28_4 O 0.7687(6) 0.9094(5) 0.1089(5)
O29_4 O 0.9813(6) 0.8589(5) 0.3406(5)
O38_4 O 0.9355(3) 0.9617(3) 0.1989(3)
O39_4 O 0.8145(3) 0.9489(3) 0.2883(3)
O57_4 O 0.8941(3) 0.9898(4) 0.0149(4)
C15_6 C 0.8750 1.0000 0.2500
C20_4 C 0.9070(4) 0.9546(4) 0.2441(4)
C21_4 C 0.8430(4) 0.9941(4) 0.2954(4)
H27_4 H 0.9286 0.9510 0.2718
H30_4 H 0.8214 0.9782 0.2010
H38_4 H 0.8870 0.9256 0.2416
H39_4 H 0.8630 0.9916 0.3244
C31_4 C 0.9608(4) 0.9234(4) 0.1815(4)
C32_4 C 0.7892(4) 0.9315(4) 0.3266(4)
C42_4 C 0.9625(5) 0.8790(4) 0.2064(4)
C43_4 C 0.7875(5) 0.9564(4) 0.3710(4)
H49_4 H 0.9465 0.8748 0.2359
H50_4 H 0.8035 0.9859 0.3752
C53_4 C 0.9887(7) 0.8419(6) 0.1856(6)
C54_4 C 0.7613(7) 0.9356(6) 0.4081(6)
H60_4 H 0.9912 0.8124 0.2019
H61_4 H 0.7588 0.9519 0.4376
C65_4 C 0.7388(8) 0.8915(7) 0.4027(6)
H72_4 H 0.7203 0.8781 0.4277
C76_4 C 0.7442(6) 0.8685(6) 0.3604(5)
H83_4 H 0.7308 0.8375 0.3578
C86_4 C 0.9820(4) 0.9303(4) 0.1368(4)
C87_4 C 0.7680(4) 0.8868(4) 0.3197(4)
C97_4 C 0.9832(4) 0.9783(5) 0.1094(4)
C98_4 C 0.7668(4) 0.8594(4) 0.2717(5)
C109_4 C 0.7589(10) 0.8598(6) 0.1856(6)
C110_4 C 0.9911(10) 0.9356(6) 0.3902(6)
H94_4 H 0.7248 0.8617 0.1766
H105_4 H 0.7678 0.8258 0.1877
H106_4 H 0.9822 0.9377 0.4242
C120_4 C 0.7875(7) 0.8830(7) 0.1495(5)
C121_4 C 0.9625(7) 0.8995(5) 0.3670(7)
C131_4 C 0.8391(7) 0.8867(7) 0.1462(6)
C132_4 C 0.9109(7) 0.8962(6) 0.3633(7)
H116_4 H 0.8610 0.8744 0.1689
H117_4 H 0.8890 0.9189 0.3756
C142_4 C 0.8520(6) 0.9114(8) 0.1034(7)
C143_4 C 0.8980(6) 0.8534(7) 0.3386(8)
H127_4 H 0.8835 0.9175 0.0924
H128_4 H 0.8665 0.8424 0.3325
C153_4 C 0.8078(8) 0.9257(7) 0.0799(6)
C154_4 C 0.9422(8) 0.8299(6) 0.3243(7)
H138_4 H 0.8052 0.9426 0.0507
H139_4 H 0.9448 0.8007 0.3074
Nd1_4 Nd 0.97717(2) 0.97717(2) 0.97717(2)
N2_4 N 0.9922(5) 0.9764(6) 0.8719(4)
O4_4 O 0.9881(6) 0.9376(4) 0.8954(4)
O6_4 O 0.9955(7) 0.9763(6) 0.8273(3)
N14_4 N 0.8719(4) 0.9922(5) 0.9764(6)
N15_4 N 0.9764(6) 0.8719(4) 0.9922(5)
O46_4 O 0.8954(4) 0.9881(6) 0.9376(4)
O47_4 O 0.9376(4) 0.8954(4) 0.9881(6)
O68_4 O 0.8273(3) 0.9955(7) 0.9763(6)
O69_4 O 0.9763(6) 0.8273(3) 0.9955(7)
loop_
_geom_bond_atom_site_label_1
_geom_bond_atom_site_label_2
_geom_bond_site_symmetry_1
_geom_bond_site_symmetry_2
Nd1 O1 1_555 1_555
N1 H1 1_555 1_555
N2 O4 1_555 1_555
O1 C9 1_555 1_555
O2 C11 1_555 1_555
O3 C2 1_555 1_555
O4 Nd1 1_555 1_555
O5 Nd1 1_555 1_555
O6 N2 1_555 1_555
C1 C2 1_555 1_555
C2 H2 1_555 1_555
H3 C2 1_555 1_555
C3 O3 1_555 1_555
C4 C3 1_555 1_555
H4 C4 1_555 1_555
C5 C4 1_555 1_555
H5 C5 1_555 1_555
C8 C3 1_555 1_555
C9 N1 1_555 1_555
C10 N1 1_555 1_555
H9 C10 1_555 1_555
C11 C10 1_555 1_555
C12 C11 1_555 1_555
H10 C12 1_555 1_555
C13 C12 1_555 1_555
H11 C13 1_555 1_555
C14 O2 1_555 1_555
H12 C14 1_555 1_555
Nd2 O7 1_555 1_555
Nd4 O9 1_555 1_555
Nd8 O15 1_555 1_555
N3 H13 1_555 1_555
N4 H14 1_555 1_555
N5 H15 1_555 1_555
N11 H21 1_555 1_555
N12 H22 1_555 1_555
N14 O46 1_555 1_555
N15 O47 1_555 1_555
N16 O48 1_555 1_555
N17 O49 1_555 1_555
N18 O50 1_555 1_555
N22 O54 1_555 1_555
N23 O55 1_555 1_555
N24 O56 1_555 1_555
O7 C94 1_555 1_555
O8 C95 1_555 1_555
O9 C96 1_555 1_555
O14 Nd1 1_555 1_555
O15 C102 1_555 1_555
O18 Nd2 1_555 1_555
O19 Nd2 1_555 1_555
O22 Nd4 1_555 1_555
O23 Nd4 1_555 1_555
O24 C116 1_555 1_555
O25 C117 1_555 1_555
O26 C118 1_555 1_555
O32 C124 1_555 1_555
O33 C125 1_555 1_555
O35 C17 1_555 1_555
O36 C18 1_555 1_555
O37 C19 1_555 1_555
O42 C24 1_555 1_555
O43 C25 1_555 1_555
O46 Nd1 1_555 1_555
O47 Nd1 1_555 1_555
O48 Nd2 1_555 1_555
O49 Nd2 1_555 1_555
O50 Nd2 1_555 1_555
O54 Nd4 1_555 1_555
O55 Nd4 1_555 1_555
O56 Nd4 1_555 1_555
O58 Nd1 1_555 1_555
O59 Nd2 1_555 1_555
O60 Nd2 1_555 1_555
O61 Nd2 1_555 1_555
O65 Nd4 1_555 1_555
O66 Nd4 1_555 1_555
O67 Nd4 1_555 1_555
O68 N14 1_555 1_555
O69 N15 1_555 1_555
O70 N16 1_555 1_555
O71 N17 1_555 1_555
O72 N18 1_555 1_555
O76 N22 1_555 1_555
O77 N23 1_555 1_555
O78 N24 1_555 1_555
C16 C24 1_555 1_555
C17 C1 1_555 1_555
C18 C1 1_555 1_555
C19 C1 1_555 1_555
C24 H31 1_555 1_555
C25 C16 1_555 1_555
H24 C17 1_555 1_555
H25 C18 1_555 1_555
H26 C19 1_555 1_555
H35 C17 1_555 1_555
H36 C18 1_555 1_555
H37 C19 1_555 1_555
H42 C24 1_555 1_555
H43 C25 1_555 1_555
C28 O35 1_555 1_555
C29 O36 1_555 1_555
C30 O37 1_555 1_555
C35 O42 1_555 1_555
C36 O43 1_555 1_555
C39 C28 1_555 1_555
C40 C29 1_555 1_555
C41 C30 1_555 1_555
C46 C35 1_555 1_555
C47 C36 1_555 1_555
H46 C39 1_555 1_555
H47 C40 1_555 1_555
H48 C41 1_555 1_555
H53 C46 1_555 1_555
H54 C47 1_555 1_555
C50 C39 1_555 1_555
C51 C40 1_555 1_555
C52 C41 1_555 1_555
C57 C46 1_555 1_555
C58 C47 1_555 1_555
H57 C50 1_555 1_555
H58 C51 1_555 1_555
H59 C52 1_555 1_555
H64 C57 1_555 1_555
H65 C58 1_555 1_555
C61 C50 1_555 1_555
C63 C52 1_555 1_555
C68 C57 1_555 1_555
C69 C58 1_555 1_555
H68 C61 1_555 1_555
H70 C63 1_555 1_555
H75 C68 1_555 1_555
H76 C69 1_555 1_555
C72 C61 1_555 1_555
C74 C63 1_555 1_555
C79 C68 1_555 1_555
C80 C69 1_555 1_555
H79 C72 1_555 1_555
H81 C74 1_555 1_555
H86 C79 1_555 1_555
H87 C80 1_555 1_555
C83 C28 1_555 1_555
C84 C29 1_555 1_555
C85 C30 1_555 1_555
C90 C35 1_555 1_555
C91 C36 1_555 1_555
C94 N3 1_555 1_555
C95 N4 1_555 1_555
C96 N5 1_555 1_555
C102 N11 1_555 1_555
C105 N3 1_555 1_555
C106 N4 1_555 1_555
C107 N5 1_555 1_555
C113 N11 1_555 1_555
C114 N12 1_555 1_555
H90 C105 1_555 1_555
H92 C107 1_555 1_555
H98 C113 1_555 1_555
H99 C114 1_555 1_555
H101 C105 1_555 1_555
H102 C106 1_555 1_555
H103 C107 1_555 1_555
H109 C113 1_555 1_555
H110 C114 1_555 1_555
C116 C105 1_555 1_555
C117 C106 1_555 1_555
C118 C107 1_555 1_555
C124 C113 1_555 1_555
C125 C114 1_555 1_555
C127 C116 1_555 1_555
C128 C117 1_555 1_555
C129 C118 1_555 1_555
C135 C124 1_555 1_555
C136 C125 1_555 1_555
H112 C127 1_555 1_555
H113 C128 1_555 1_555
H114 C129 1_555 1_555
H120 C135 1_555 1_555
H121 C136 1_555 1_555
C138 C127 1_555 1_555
C139 C128 1_555 1_555
C140 C129 1_555 1_555
C146 C135 1_555 1_555
C147 C136 1_555 1_555
H123 C138 1_555 1_555
H124 C139 1_555 1_555
H125 C140 1_555 1_555
H131 C146 1_555 1_555
H132 C147 1_555 1_555
C149 O24 1_555 1_555
C150 O25 1_555 1_555
C151 O26 1_555 1_555
C157 O32 1_555 1_555
C158 O33 1_555 1_555
H134 C149 1_555 1_555
H135 C150 1_555 1_555
H136 C151 1_555 1_555
H142 C157 1_555 1_555
H143 C158 1_555 1_555
N2 O5 1_555 1_555
C8 C9 1_555 1_555
C13 C14 1_555 1_555
N15 O58 1_555 1_555
N16 O59 1_555 1_555
N17 O60 1_555 1_555
N18 O61 1_555 1_555
N22 O65 1_555 1_555
N23 O66 1_555 1_555
N24 O67 1_555 1_555
O14 C101 1_555 1_555
C72 C83 1_555 1_555
C74 C85 1_555 1_555
C79 C90 1_555 1_555
C80 C91 1_555 1_555
C83 C94 1_555 1_555
C84 C95 1_555 1_555
C85 C96 1_555 1_555
C90 C101 1_555 1_555
C91 C102 1_555 1_555
C138 C149 1_555 1_555
C139 C150 1_555 1_555
C140 C151 1_555 1_555
C146 C157 1_555 1_555
C147 C158 1_555 1_555
H6 C6 1_555 1_555
C7 C6 1_555 1_555
H7 C7 1_555 1_555
Nd5 O11 1_555 1_555
Nd6 O12 1_555 1_555
Nd7 O13 1_555 1_555
Nd10 O17 1_555 1_555
N6 H16 1_555 1_555
N7 H17 1_555 1_555
N8 H18 1_555 1_555
N9 H19 1_555 1_555
N10 H20 1_555 1_555
N13 H23 1_555 1_555
O11 C98 1_555 1_555
O12 C99 1_555 1_555
O13 C100 1_555 1_555
O16 C103 1_555 1_555
O17 C104 1_555 1_555
O27 C119 1_555 1_555
O28 C120 1_555 1_555
O29 C121 1_555 1_555
O30 C122 1_555 1_555
O31 C123 1_555 1_555
O34 C126 1_555 1_555
O38 C20 1_555 1_555
O39 C21 1_555 1_555
O40 C22 1_555 1_555
O41 C23 1_555 1_555
O44 C26 1_555 1_555
O45 C27 1_555 1_555
C15 C20 1_555 1_555
C20 H27 1_555 1_555
C21 C15 1_555 1_555
C22 C15 1_555 1_555
C23 C15 1_555 1_555
C26 C16_2 1_555 1_555
C27 C16_2 1_555 1_555
H28 C21 1_555 1_555
H29 C22 1_555 1_555
H30 C23 1_555 1_555
H33 C26 1_555 1_555
H38 C20 1_555 1_555
H39 C21 1_555 1_555
H40 C22 1_555 1_555
H41 C23 1_555 1_555
H44 C26 1_555 1_555
H45 C27 1_555 1_555
C31 O38 1_555 1_555
C32 O39 1_555 1_555
C33 O40 1_555 1_555
C34 O41 1_555 1_555
C37 O44 1_555 1_555
C38 O45 1_555 1_555
C42 C31 1_555 1_555
C43 C32 1_555 1_555
C44 C33 1_555 1_555
C45 C34 1_555 1_555
C48 C37 1_555 1_555
C49 C38 1_555 1_555
H49 C42 1_555 1_555
H50 C43 1_555 1_555
H51 C44 1_555 1_555
H52 C45 1_555 1_555
H55 C48 1_555 1_555
H56 C49 1_555 1_555
C53 C42 1_555 1_555
C54 C43 1_555 1_555
C55 C44 1_555 1_555
C56 C45 1_555 1_555
C59 C48 1_555 1_555
C60 C49 1_555 1_555
H60 C53 1_555 1_555
H61 C54 1_555 1_555
H62 C55 1_555 1_555
H63 C56 1_555 1_555
H66 C59 1_555 1_555
H67 C60 1_555 1_555
C64 C53 1_555 1_555
C65 C54 1_555 1_555
C66 C55 1_555 1_555
C67 C56 1_555 1_555
C70 C59 1_555 1_555
C71 C60 1_555 1_555
H69 C62 1_555 1_555
H71 C64 1_555 1_555
H72 C65 1_555 1_555
H73 C66 1_555 1_555
H74 C67 1_555 1_555
H77 C70 1_555 1_555
H78 C71 1_555 1_555
C73 C62 1_555 1_555
C75 C64 1_555 1_555
C76 C65 1_555 1_555
C77 C66 1_555 1_555
C78 C67 1_555 1_555
C81 C70 1_555 1_555
C82 C71 1_555 1_555
H80 C73 1_555 1_555
H82 C75 1_555 1_555
H83 C76 1_555 1_555
H84 C77 1_555 1_555
H85 C78 1_555 1_555
H88 C81 1_555 1_555
H89 C82 1_555 1_555
C86 C31 1_555 1_555
C87 C32 1_555 1_555
C88 C33 1_555 1_555
C89 C34 1_555 1_555
C92 C37 1_555 1_555
C93 C38 1_555 1_555
C97 N6 1_555 1_555
C98 N7 1_555 1_555
C99 N8 1_555 1_555
C100 N9 1_555 1_555
C104 N13 1_555 1_555
C108 N6 1_555 1_555
C109 N7 1_555 1_555
C110 N8 1_555 1_555
C111 N9 1_555 1_555
C112 N10 1_555 1_555
C115 N13 1_555 1_555
H93 C108 1_555 1_555
H94 C109 1_555 1_555
H95 C110 1_555 1_555
H96 C111 1_555 1_555
H97 C112 1_555 1_555
H100 C115 1_555 1_555
H104 C108 1_555 1_555
H105 C109 1_555 1_555
H106 C110 1_555 1_555
H107 C111 1_555 1_555
H108 C112 1_555 1_555
H111 C115 1_555 1_555
C119 C108 1_555 1_555
C120 C109 1_555 1_555
C121 C110 1_555 1_555
C122 C111 1_555 1_555
C123 C112 1_555 1_555
C126 C115 1_555 1_555
C130 C119 1_555 1_555
C131 C120 1_555 1_555
C132 C121 1_555 1_555
C133 C122 1_555 1_555
C134 C123 1_555 1_555
C137 C126 1_555 1_555
H115 C130 1_555 1_555
H116 C131 1_555 1_555
H117 C132 1_555 1_555
H118 C133 1_555 1_555
H119 C134 1_555 1_555
H122 C137 1_555 1_555
C141 C130 1_555 1_555
C142 C131 1_555 1_555
C143 C132 1_555 1_555
C144 C133 1_555 1_555
C145 C134 1_555 1_555
C148 C137 1_555 1_555
H126 C141 1_555 1_555
H127 C142 1_555 1_555
H128 C143 1_555 1_555
H129 C144 1_555 1_555
H130 C145 1_555 1_555
H133 C148 1_555 1_555
C152 O27 1_555 1_555
C153 O28 1_555 1_555
C154 O29 1_555 1_555
C155 O30 1_555 1_555
C156 O31 1_555 1_555
C159 O34 1_555 1_555
H137 C152 1_555 1_555
H138 C153 1_555 1_555
H139 C154 1_555 1_555
H140 C155 1_555 1_555
H141 C156 1_555 1_555
H144 C159 1_555 1_555
O10 C97 1_555 1_555
C75 C86 1_555 1_555
C76 C87 1_555 1_555
C77 C88 1_555 1_555
C78 C89 1_555 1_555
C81 C92 1_555 1_555
C82 C93 1_555 1_555
C86 C97 1_555 1_555
C87 C98 1_555 1_555
C88 C99 1_555 1_555
C89 C100 1_555 1_555
C92 C103 1_555 1_555
C93 C104 1_555 1_555
C141 C152 1_555 1_555
C142 C153 1_555 1_555
C143 C154 1_555 1_555
C144 C155 1_555 1_555
C145 C156 1_555 1_555
C148 C159 1_555 1_555
N19 O51 1_555 1_555
N20 O52 1_555 1_555
N21 O53 1_555 1_555
O21 Nd3 1_555 1_555
O51 Nd3 1_555 1_555
O52 Nd3 1_555 1_555
O53 Nd3 1_555 1_555
O64 Nd3 1_555 1_555
O73 N19 1_555 1_555
O74 N20 1_555 1_555
O75 N21 1_555 1_555
N21 O64 1_555 1_555
Nd1_2 O1_2 1_555 1_555
N2_2 O4_2 1_555 1_555
O1_2 C9_2 1_555 1_555
O3_2 C2_2 1_555 1_555
O4_2 Nd1_2 1_555 1_555
O5_2 Nd1_2 1_555 1_555
O6_2 N2_2 1_555 1_555
C1_2 C2_2 1_555 1_555
C2_2 H2_2 1_555 1_555
H3_2 C2_2 1_555 1_555
C3_2 O3_2 1_555 1_555
C4_2 C3_2 1_555 1_555
H4_2 C4_2 1_555 1_555
C5_2 C4_2 1_555 1_555
H5_2 C5_2 1_555 1_555
C6_2 C5_2 1_555 1_555
H6_2 C6_2 1_555 1_555
C7_2 C6_2 1_555 1_555
H7_2 C7_2 1_555 1_555
C8_2 C3_2 1_555 1_555
Nd5 O7_2 1_555 1_555
Nd7_2 O13_2 1_555 1_555
N3_2 H13_2 1_555 1_555
N4_2 H14_2 1_555 1_555
N6_2 H16_2 1_555 1_555
N7_2 H17_2 1_555 1_555
N8_2 H18_2 1_555 1_555
N9_2 H19_2 1_555 1_555
N14_2 O46_2 1_555 1_555
N15_2 O47_2 1_555 1_555
N16_2 O48_2 1_555 1_555
N17_2 O49_2 1_555 1_555
N18_2 O50_2 1_555 1_555
O7_2 C94_2 1_555 1_555
O10_2 Nd1_2 1_555 1_555
O19 C98_2 1_555 1_555
O12_2 C99_2 1_555 1_555
O13_2 C100_2 1_555 1_555
O18_2 Nd5 1_555 1_555
O24_2 C116_2 1_555 1_555
O25_2 C117_2 1_555 1_555
O27_2 C119_2 1_555 1_555
O28_2 C120_2 1_555 1_555
O29_2 C121_2 1_555 1_555
O30_2 C122_2 1_555 1_555
O35_2 C17_2 1_555 1_555
O38_2 C20_2 1_555 1_555
O39_2 C21_2 1_555 1_555
O40_2 C22_2 1_555 1_555
O41_2 C23_2 1_555 1_555
O46_2 Nd1_2 1_555 1_555
O47_2 Nd1_2 1_555 1_555
O48_2 Nd5 1_555 1_555
O49_2 Nd5 1_555 1_555
O50_2 Nd5 1_555 1_555
O57_2 Nd1_2 1_555 1_555
O59_2 Nd5 1_555 1_555
O60_2 Nd5 1_555 1_555
O61_2 Nd5 1_555 1_555
O68_2 N14_2 1_555 1_555
O69_2 N15_2 1_555 1_555
O70_2 N16_2 1_555 1_555
O71_2 N17_2 1_555 1_555
O72_2 N18_2 1_555 1_555
C15_2 C20_2 1_555 1_555
C17_2 C1_2 1_555 1_555
C20_2 H27_2 1_555 1_555
C21_2 C15_2 1_555 1_555
C22_2 C15_2 1_555 1_555
C23_2 C15_2 1_555 1_555
H28_2 C21_2 1_555 1_555
H29_2 C22_2 1_555 1_555
H30_2 C23_2 1_555 1_555
H35_2 C17_2 1_555 1_555
H38_2 C20_2 1_555 1_555
H39_2 C21_2 1_555 1_555
H40_2 C22_2 1_555 1_555
H41_2 C23_2 1_555 1_555
C28_2 O35_2 1_555 1_555
C31_2 O38_2 1_555 1_555
C32_2 O39_2 1_555 1_555
C33_2 O40_2 1_555 1_555
C34_2 O41_2 1_555 1_555
C39_2 C28_2 1_555 1_555
C42_2 C31_2 1_555 1_555
C43_2 C32_2 1_555 1_555
C44_2 C33_2 1_555 1_555
C45_2 C34_2 1_555 1_555
H46_2 C39_2 1_555 1_555
H49_2 C42_2 1_555 1_555
H50_2 C43_2 1_555 1_555
H51_2 C44_2 1_555 1_555
H52_2 C45_2 1_555 1_555
C50_2 C39_2 1_555 1_555
C53_2 C42_2 1_555 1_555
C54_2 C43_2 1_555 1_555
C55_2 C44_2 1_555 1_555
C56_2 C45_2 1_555 1_555
H57_2 C50_2 1_555 1_555
H60_2 C53_2 1_555 1_555
H61_2 C54_2 1_555 1_555
H62_2 C55_2 1_555 1_555
H63_2 C56_2 1_555 1_555
C61_2 C50_2 1_555 1_555
C65_2 C54_2 1_555 1_555
C67_2 C56_2 1_555 1_555
H68_2 C61_2 1_555 1_555
H72_2 C65_2 1_555 1_555
H74_2 C67_2 1_555 1_555
C72_2 C61_2 1_555 1_555
C76_2 C65_2 1_555 1_555
C78_2 C67_2 1_555 1_555
H79_2 C72_2 1_555 1_555
H83_2 C76_2 1_555 1_555
H85_2 C78_2 1_555 1_555
C83_2 C28_2 1_555 1_555
C86_2 C31_2 1_555 1_555
C87_2 C32_2 1_555 1_555
C88_2 C33_2 1_555 1_555
C89_2 C34_2 1_555 1_555
C94_2 N3_2 1_555 1_555
C97_2 N6_2 1_555 1_555
C98_2 N7_2 1_555 1_555
C99_2 N8_2 1_555 1_555
C100_2 N9_2 1_555 1_555
C105_2 N3_2 1_555 1_555
C106_2 N4_2 1_555 1_555
C108_2 N6_2 1_555 1_555
C109_2 N7_2 1_555 1_555
C110_2 N8_2 1_555 1_555
C111_2 N9_2 1_555 1_555
H90_2 C105_2 1_555 1_555
H91_2 C106_2 1_555 1_555
H94_2 C109_2 1_555 1_555
H96_2 C111_2 1_555 1_555
H101_2 C105_2 1_555 1_555
H102_2 C106_2 1_555 1_555
H104_2 C108_2 1_555 1_555
H105_2 C109_2 1_555 1_555
H106_2 C110_2 1_555 1_555
H107_2 C111_2 1_555 1_555
C116_2 C105_2 1_555 1_555
C117_2 C106_2 1_555 1_555
C119_2 C108_2 1_555 1_555
C120_2 C109_2 1_555 1_555
C121_2 C110_2 1_555 1_555
C122_2 C111_2 1_555 1_555
C127_2 C116_2 1_555 1_555
C128_2 C117_2 1_555 1_555
C130_2 C119_2 1_555 1_555
C131_2 C120_2 1_555 1_555
C132_2 C121_2 1_555 1_555
C133_2 C122_2 1_555 1_555
H112_2 C127_2 1_555 1_555
H113_2 C128_2 1_555 1_555
H115_2 C130_2 1_555 1_555
H116_2 C131_2 1_555 1_555
H117_2 C132_2 1_555 1_555
H118_2 C133_2 1_555 1_555
C138_2 C127_2 1_555 1_555
C139_2 C128_2 1_555 1_555
C141_2 C130_2 1_555 1_555
C142_2 C131_2 1_555 1_555
C143_2 C132_2 1_555 1_555
C144_2 C133_2 1_555 1_555
H123_2 C138_2 1_555 1_555
H124_2 C139_2 1_555 1_555
H126_2 C141_2 1_555 1_555
H127_2 C142_2 1_555 1_555
H128_2 C143_2 1_555 1_555
H129_2 C144_2 1_555 1_555
C149_2 O24_2 1_555 1_555
C150_2 O25_2 1_555 1_555
C152_2 O27_2 1_555 1_555
C153_2 O28_2 1_555 1_555
C154_2 O29_2 1_555 1_555
C155_2 O30_2 1_555 1_555
H134_2 C149_2 1_555 1_555
H135_2 C150_2 1_555 1_555
H137_2 C152_2 1_555 1_555
H138_2 C153_2 1_555 1_555
H139_2 C154_2 1_555 1_555
H140_2 C155_2 1_555 1_555
N2_2 O5_2 1_555 1_555
C7_2 C8_2 1_555 1_555
C8_2 C9_2 1_555 1_555
N14_2 O57_2 1_555 1_555
N16_2 O59_2 1_555 1_555
N17_2 O60_2 1_555 1_555
N18_2 O61_2 1_555 1_555
O10_2 C97_2 1_555 1_555
C72_2 C83_2 1_555 1_555
C76_2 C87_2 1_555 1_555
C78_2 C89_2 1_555 1_555
C83_2 C94_2 1_555 1_555
C86_2 C97_2 1_555 1_555
C87_2 C98_2 1_555 1_555
C88_2 C99_2 1_555 1_555
C89_2 C100_2 1_555 1_555
C138_2 C149_2 1_555 1_555
C139_2 C150_2 1_555 1_555
C141_2 C152_2 1_555 1_555
C142_2 C153_2 1_555 1_555
C143_2 C154_2 1_555 1_555
C144_2 C155_2 1_555 1_555
N19_2 O51_2 1_555 1_555
N20_2 O52_2 1_555 1_555
N21_2 O53_2 1_555 1_555
O20_2 Nd3_2 1_555 1_555
O51_2 Nd3_2 1_555 1_555
O52_2 Nd3_2 1_555 1_555
O53_2 Nd3_2 1_555 1_555
O63_2 Nd3_2 1_555 1_555
O73_2 N19_2 1_555 1_555
O74_2 N20_2 1_555 1_555
O75_2 N21_2 1_555 1_555
N20_2 O63_2 1_555 1_555
N1_2 H1_2 1_555 1_555
O2_2 C11_2 1_555 1_555
C10_2 N1_2 1_555 1_555
H8_2 C10_2 1_555 1_555
H9_2 C10_2 1_555 1_555
C11_2 C10_2 1_555 1_555
C12_2 C11_2 1_555 1_555
H10_2 C12_2 1_555 1_555
C13_2 C12_2 1_555 1_555
H11_2 C13_2 1_555 1_555
C14_2 O2_2 1_555 1_555
H12_2 C14_2 1_555 1_555
Nd10 O9_2 1_555 1_555
Nd8_2 O15_2 1_555 1_555
Nd6 O16_2 1_555 1_555
N5_2 H15_2 1_555 1_555
N10_2 H20_2 1_555 1_555
N11_2 H21_2 1_555 1_555
N12_2 H22_2 1_555 1_555
N13_2 H23_2 1_555 1_555
N22_2 O54_2 1_555 1_555
N23_2 O55_2 1_555 1_555
N24_2 O56_2 1_555 1_555
O8_2 C95_2 1_555 1_555
O9_2 C96_2 1_555 1_555
O15_2 C102_2 1_555 1_555
O16_2 C103_2 1_555 1_555
O22 C104_2 1_555 1_555
O23_2 Nd10 1_555 1_555
O26_2 C118_2 1_555 1_555
O31_2 C123_2 1_555 1_555
O32_2 C124_2 1_555 1_555
O33_2 C125_2 1_555 1_555
O34_2 C126_2 1_555 1_555
O36_2 C18_2 1_555 1_555
O37_2 C19_2 1_555 1_555
O42_2 C24_2 1_555 1_555
O43_2 C25_2 1_555 1_555
O44_2 C26_2 1_555 1_555
O45_2 C27_2 1_555 1_555
O54_2 Nd10 1_555 1_555
O55_2 Nd10 1_555 1_555
O56_2 Nd10 1_555 1_555
O65_2 Nd10 1_555 1_555
O66_2 Nd10 1_555 1_555
O67_2 Nd10 1_555 1_555
O76_2 N22_2 1_555 1_555
O77_2 N23_2 1_555 1_555
O78_2 N24_2 1_555 1_555
C16_3 C24_2 1_555 1_555
C18_2 C1_3 1_555 1_555
C19_2 C1_3 1_555 1_555
C24_2 H31_2 1_555 1_555
C25_2 C16_3 1_555 1_555
C26_2 C16_3 1_555 1_555
C27_2 C16_3 1_555 1_555
H25_2 C18_2 1_555 1_555
H32_2 C25_2 1_555 1_555
H33_2 C26_2 1_555 1_555
H34_2 C27_2 1_555 1_555
H36_2 C18_2 1_555 1_555
H37_2 C19_2 1_555 1_555
H42_2 C24_2 1_555 1_555
H43_2 C25_2 1_555 1_555
H44_2 C26_2 1_555 1_555
H45_2 C27_2 1_555 1_555
C29_2 O36_2 1_555 1_555
C30_2 O37_2 1_555 1_555
C35_2 O42_2 1_555 1_555
C36_2 O43_2 1_555 1_555
C37_2 O44_2 1_555 1_555
C38_2 O45_2 1_555 1_555
C40_2 C29_2 1_555 1_555
C41_2 C30_2 1_555 1_555
C46_2 C35_2 1_555 1_555
C47_2 C36_2 1_555 1_555
C48_2 C37_2 1_555 1_555
C49_2 C38_2 1_555 1_555
H47_2 C40_2 1_555 1_555
H48_2 C41_2 1_555 1_555
H53_2 C46_2 1_555 1_555
H54_2 C47_2 1_555 1_555
H55_2 C48_2 1_555 1_555
H56_2 C49_2 1_555 1_555
C51_2 C40_2 1_555 1_555
C52_2 C41_2 1_555 1_555
C57_2 C46_2 1_555 1_555
C58_2 C47_2 1_555 1_555
C59_2 C48_2 1_555 1_555
C60_2 C49_2 1_555 1_555
H58_2 C51_2 1_555 1_555
H59_2 C52_2 1_555 1_555
H64_2 C57_2 1_555 1_555
H65_2 C58_2 1_555 1_555
H66_2 C59_2 1_555 1_555
H67_2 C60_2 1_555 1_555
C62_2 C51_2 1_555 1_555
C63_2 C52_2 1_555 1_555
C68_2 C57_2 1_555 1_555
C69_2 C58_2 1_555 1_555
C70_2 C59_2 1_555 1_555
C71_2 C60_2 1_555 1_555
H69_2 C62_2 1_555 1_555
H70_2 C63_2 1_555 1_555
H71_2 C64_2 1_555 1_555
H73_2 C66_2 1_555 1_555
H75_2 C68_2 1_555 1_555
H76_2 C69_2 1_555 1_555
H77_2 C70_2 1_555 1_555
H78_2 C71_2 1_555 1_555
C73_2 C62_2 1_555 1_555
C74_2 C63_2 1_555 1_555
C75_2 C64_2 1_555 1_555
C77_2 C66_2 1_555 1_555
C79_2 C68_2 1_555 1_555
C80_2 C69_2 1_555 1_555
C81_2 C70_2 1_555 1_555
C82_2 C71_2 1_555 1_555
H80_2 C73_2 1_555 1_555
H81_2 C74_2 1_555 1_555
H82_2 C75_2 1_555 1_555
H84_2 C77_2 1_555 1_555
H86_2 C79_2 1_555 1_555
H87_2 C80_2 1_555 1_555
H88_2 C81_2 1_555 1_555
H89_2 C82_2 1_555 1_555
C84_2 C29_2 1_555 1_555
C85_2 C30_2 1_555 1_555
C90_2 C35_2 1_555 1_555
C91_2 C36_2 1_555 1_555
C92_2 C37_2 1_555 1_555
C93_2 C38_2 1_555 1_555
C96_2 N5_2 1_555 1_555
C101_2 N10_2 1_555 1_555
C102_2 N11_2 1_555 1_555
C103_2 N12_2 1_555 1_555
C104_2 N13_2 1_555 1_555
C107_2 N5_2 1_555 1_555
C112_2 N10_2 1_555 1_555
C113_2 N11_2 1_555 1_555
C114_2 N12_2 1_555 1_555
C115_2 N13_2 1_555 1_555
H92_2 C107_2 1_555 1_555
H97_2 C112_2 1_555 1_555
H98_2 C113_2 1_555 1_555
H99_2 C114_2 1_555 1_555
H100_2 C115_2 1_555 1_555
H103_2 C107_2 1_555 1_555
H108_2 C112_2 1_555 1_555
H109_2 C113_2 1_555 1_555
H110_2 C114_2 1_555 1_555
H111_2 C115_2 1_555 1_555
C118_2 C107_2 1_555 1_555
C123_2 C112_2 1_555 1_555
C124_2 C113_2 1_555 1_555
C125_2 C114_2 1_555 1_555
C126_2 C115_2 1_555 1_555
C129_2 C118_2 1_555 1_555
C134_2 C123_2 1_555 1_555
C135_2 C124_2 1_555 1_555
C136_2 C125_2 1_555 1_555
C137_2 C126_2 1_555 1_555
H114_2 C129_2 1_555 1_555
H119_2 C134_2 1_555 1_555
H120_2 C135_2 1_555 1_555
H121_2 C136_2 1_555 1_555
H122_2 C137_2 1_555 1_555
C140_2 C129_2 1_555 1_555
C145_2 C134_2 1_555 1_555
C146_2 C135_2 1_555 1_555
C147_2 C136_2 1_555 1_555
C148_2 C137_2 1_555 1_555
H125_2 C140_2 1_555 1_555
H130_2 C145_2 1_555 1_555
H131_2 C146_2 1_555 1_555
H132_2 C147_2 1_555 1_555
H133_2 C148_2 1_555 1_555
C151_2 O26_2 1_555 1_555
C156_2 O31_2 1_555 1_555
C157_2 O32_2 1_555 1_555
C158_2 O33_2 1_555 1_555
C159_2 O34_2 1_555 1_555
H136_2 C151_2 1_555 1_555
H141_2 C156_2 1_555 1_555
H142_2 C157_2 1_555 1_555
H143_2 C158_2 1_555 1_555
H144_2 C159_2 1_555 1_555
C13_2 C14_2 1_555 1_555
N22_2 O65_2 1_555 1_555
N23_2 O66_2 1_555 1_555
N24_2 O67_2 1_555 1_555
O14_2 C101_2 1_555 1_555
C73_2 C84_2 1_555 1_555
C74_2 C85_2 1_555 1_555
C79_2 C90_2 1_555 1_555
C80_2 C91_2 1_555 1_555
C81_2 C92_2 1_555 1_555
C82_2 C93_2 1_555 1_555
C84_2 C95_2 1_555 1_555
C85_2 C96_2 1_555 1_555
C90_2 C101_2 1_555 1_555
C91_2 C102_2 1_555 1_555
C92_2 C103_2 1_555 1_555
C93_2 C104_2 1_555 1_555
C140_2 C151_2 1_555 1_555
C145_2 C156_2 1_555 1_555
C146_2 C157_2 1_555 1_555
C147_2 C158_2 1_555 1_555
C148_2 C159_2 1_555 1_555
N2_3 O4_3 1_555 1_555
O4_3 Nd1_3 1_555 1_555
O6_3 N2_3 1_555 1_555
Nd8_2 O11_2 1_555 1_555
Nd7 O17_2 1_555 1_555
N7_3 H17_3 1_555 1_555
N8_3 H18_3 1_555 1_555
N10_3 H20_3 1_555 1_555
N11_3 H21_3 1_555 1_555
N12_3 H22_3 1_555 1_555
N13_3 H23_3 1_555 1_555
N14_3 O46_3 1_555 1_555
N15_3 O47_3 1_555 1_555
O10_3 Nd1_3 1_555 1_555
O11_2 C98_3 1_555 1_555
O14_3 Nd1_3 1_555 1_555
O18 C102_3 1_555 1_555
O21_2 C103_3 1_555 1_555
O17_2 C104_3 1_555 1_555
O28_3 C120_3 1_555 1_555
O29_3 C121_3 1_555 1_555
O31_3 C123_3 1_555 1_555
O32_3 C124_3 1_555 1_555
O33_3 C125_3 1_555 1_555
O34_3 C126_3 1_555 1_555
O38_3 C20_3 1_555 1_555
O39_3 C21_3 1_555 1_555
O42_3 C24_3 1_555 1_555
O43_3 C25_3 1_555 1_555
O44_3 C26_3 1_555 1_555
O45_3 C27_3 1_555 1_555
O46_3 Nd1_3 1_555 1_555
O47_3 Nd1_3 1_555 1_555
O57_3 Nd1_3 1_555 1_555
O58_3 Nd1_3 1_555 1_555
O68_3 N14_3 1_555 1_555
O69_3 N15_3 1_555 1_555
C15_3 C20_3 1_555 1_555
C16_4 C24_3 1_555 1_555
C20_3 H27_3 1_555 1_555
C21_3 C15_3 1_555 1_555
C24_3 H31_3 1_555 1_555
C25_3 C16_4 1_555 1_555
C26_3 C16_4 1_555 1_555
C27_3 C16_4 1_555 1_555
H32_3 C25_3 1_555 1_555
H33_3 C26_3 1_555 1_555
H34_3 C27_3 1_555 1_555
H38_3 C20_3 1_555 1_555
H39_3 C21_3 1_555 1_555
H42_3 C24_3 1_555 1_555
H43_3 C25_3 1_555 1_555
H44_3 C26_3 1_555 1_555
H45_3 C27_3 1_555 1_555
C31_3 O38_3 1_555 1_555
C32_3 O39_3 1_555 1_555
C35_3 O42_3 1_555 1_555
C36_3 O43_3 1_555 1_555
C37_3 O44_3 1_555 1_555
C38_3 O45_3 1_555 1_555
C42_3 C31_3 1_555 1_555
C43_3 C32_3 1_555 1_555
C46_3 C35_3 1_555 1_555
C47_3 C36_3 1_555 1_555
C48_3 C37_3 1_555 1_555
C49_3 C38_3 1_555 1_555
H49_3 C42_3 1_555 1_555
H50_3 C43_3 1_555 1_555
H53_3 C46_3 1_555 1_555
H54_3 C47_3 1_555 1_555
H55_3 C48_3 1_555 1_555
H56_3 C49_3 1_555 1_555
C53_3 C42_3 1_555 1_555
C54_3 C43_3 1_555 1_555
C57_3 C46_3 1_555 1_555
C58_3 C47_3 1_555 1_555
C59_3 C48_3 1_555 1_555
C60_3 C49_3 1_555 1_555
H60_3 C53_3 1_555 1_555
H61_3 C54_3 1_555 1_555
H64_3 C57_3 1_555 1_555
H65_3 C58_3 1_555 1_555
H66_3 C59_3 1_555 1_555
H67_3 C60_3 1_555 1_555
C64_3 C53_3 1_555 1_555
C65_3 C54_3 1_555 1_555
C69_3 C58_3 1_555 1_555
C71_3 C60_3 1_555 1_555
H71_3 C64_3 1_555 1_555
H72_3 C65_3 1_555 1_555
H76_3 C69_3 1_555 1_555
H78_3 C71_3 1_555 1_555
C75_3 C64_3 1_555 1_555
C76_3 C65_3 1_555 1_555
C80_3 C69_3 1_555 1_555
C82_3 C71_3 1_555 1_555
H82_3 C75_3 1_555 1_555
H83_3 C76_3 1_555 1_555
H87_3 C80_3 1_555 1_555
H89_3 C82_3 1_555 1_555
C86_3 C31_3 1_555 1_555
C87_3 C32_3 1_555 1_555
C90_3 C35_3 1_555 1_555
C91_3 C36_3 1_555 1_555
C92_3 C37_3 1_555 1_555
C93_3 C38_3 1_555 1_555
C98_3 N7_3 1_555 1_555
C101_3 N10_3 1_555 1_555
C102_3 N11_3 1_555 1_555
C103_3 N12_3 1_555 1_555
C104_3 N13_3 1_555 1_555
C109_3 N7_3 1_555 1_555
C110_3 N8_3 1_555 1_555
C112_3 N10_3 1_555 1_555
C113_3 N11_3 1_555 1_555
C114_3 N12_3 1_555 1_555
C115_3 N13_3 1_555 1_555
H94_3 C109_3 1_555 1_555
H95_3 C110_3 1_555 1_555
H98_3 C113_3 1_555 1_555
H100_3 C115_3 1_555 1_555
H105_3 C109_3 1_555 1_555
H106_3 C110_3 1_555 1_555
H108_3 C112_3 1_555 1_555
H109_3 C113_3 1_555 1_555
H110_3 C114_3 1_555 1_555
H111_3 C115_3 1_555 1_555
C120_3 C109_3 1_555 1_555
C121_3 C110_3 1_555 1_555
C123_3 C112_3 1_555 1_555
C124_3 C113_3 1_555 1_555
C125_3 C114_3 1_555 1_555
C126_3 C115_3 1_555 1_555
C131_3 C120_3 1_555 1_555
C132_3 C121_3 1_555 1_555
C134_3 C123_3 1_555 1_555
C135_3 C124_3 1_555 1_555
C136_3 C125_3 1_555 1_555
C137_3 C126_3 1_555 1_555
H116_3 C131_3 1_555 1_555
H117_3 C132_3 1_555 1_555
H119_3 C134_3 1_555 1_555
H120_3 C135_3 1_555 1_555
H121_3 C136_3 1_555 1_555
H122_3 C137_3 1_555 1_555
C142_3 C131_3 1_555 1_555
C143_3 C132_3 1_555 1_555
C145_3 C134_3 1_555 1_555
C146_3 C135_3 1_555 1_555
C147_3 C136_3 1_555 1_555
C148_3 C137_3 1_555 1_555
H127_3 C142_3 1_555 1_555
H128_3 C143_3 1_555 1_555
H130_3 C145_3 1_555 1_555
H131_3 C146_3 1_555 1_555
H132_3 C147_3 1_555 1_555
H133_3 C148_3 1_555 1_555
C153_3 O28_3 1_555 1_555
C154_3 O29_3 1_555 1_555
C156_3 O31_3 1_555 1_555
C157_3 O32_3 1_555 1_555
C158_3 O33_3 1_555 1_555
C159_3 O34_3 1_555 1_555
H138_3 C153_3 1_555 1_555
H139_3 C154_3 1_555 1_555
H141_3 C156_3 1_555 1_555
H142_3 C157_3 1_555 1_555
H143_3 C158_3 1_555 1_555
H144_3 C159_3 1_555 1_555
N14_3 O57_3 1_555 1_555
N15_3 O58_3 1_555 1_555
O10_3 C97_3 1_555 1_555
O14_3 C101_3 1_555 1_555
C75_3 C86_3 1_555 1_555
C76_3 C87_3 1_555 1_555
C80_3 C91_3 1_555 1_555
C82_3 C93_3 1_555 1_555
C86_3 C97_3 1_555 1_555
C87_3 C98_3 1_555 1_555
C90_3 C101_3 1_555 1_555
C91_3 C102_3 1_555 1_555
C92_3 C103_3 1_555 1_555
C93_3 C104_3 1_555 1_555
C142_3 C153_3 1_555 1_555
C143_3 C154_3 1_555 1_555
C145_3 C156_3 1_555 1_555
C146_3 C157_3 1_555 1_555
C147_3 C158_3 1_555 1_555
C148_3 C159_3 1_555 1_555
N1_3 H1_3 1_555 1_555
O1_3 C9_3 1_555 1_555
O2_3 C11_3 1_555 1_555
O3_3 C2_3 1_555 1_555
C1_4 C2_3 1_555 1_555
C2_3 H2_3 1_555 1_555
H3_3 C2_3 1_555 1_555
C3_3 O3_3 1_555 1_555
C4_3 C3_3 1_555 1_555
H4_3 C4_3 1_555 1_555
C5_3 C4_3 1_555 1_555
H5_3 C5_3 1_555 1_555
C6_3 C5_3 1_555 1_555
H6_3 C6_3 1_555 1_555
C7_3 C6_3 1_555 1_555
H7_3 C7_3 1_555 1_555
C8_3 C3_3 1_555 1_555
C9_3 N1_3 1_555 1_555
C10_3 N1_3 1_555 1_555
H8_3 C10_3 1_555 1_555
H9_3 C10_3 1_555 1_555
C11_3 C10_3 1_555 1_555
C12_3 C11_3 1_555 1_555
H10_3 C12_3 1_555 1_555
C13_3 C12_3 1_555 1_555
H11_3 C13_3 1_555 1_555
C14_3 O2_3 1_555 1_555
H12_3 C14_3 1_555 1_555
Nd8 O7_3 1_555 1_555
Nd6 O8_3 1_555 1_555
Nd7_2 O9_3 1_555 1_555
N3_3 H13_3 1_555 1_555
N4_3 H14_3 1_555 1_555
N5_3 H15_3 1_555 1_555
N6_3 H16_3 1_555 1_555
N9_3 H19_3 1_555 1_555
N16_3 O48_3 1_555 1_555
N17_3 O49_3 1_555 1_555
N18_3 O50_3 1_555 1_555
N19_3 O51_3 1_555 1_555
N20_3 O52_3 1_555 1_555
N21_3 O53_3 1_555 1_555
N22_3 O54_3 1_555 1_555
N23_3 O55_3 1_555 1_555
N24_3 O56_3 1_555 1_555
O7_3 C94_3 1_555 1_555
O8_3 C95_3 1_555 1_555
O9_3 C96_3 1_555 1_555
O20 C99_3 1_555 1_555
O23_2 C100_3 1_555 1_555
O19_2 Nd8 1_555 1_555
O22_2 Nd7_2 1_555 1_555
O24_3 C116_3 1_555 1_555
O25_3 C117_3 1_555 1_555
O26_3 C118_3 1_555 1_555
O27_3 C119_3 1_555 1_555
O30_3 C122_3 1_555 1_555
O35_3 C17_3 1_555 1_555
O36_3 C18_3 1_555 1_555
O37_3 C19_3 1_555 1_555
O40_3 C22_3 1_555 1_555
O41_3 C23_3 1_555 1_555
O48_3 Nd8 1_555 1_555
O49_3 Nd8 1_555 1_555
O50_3 Nd8 1_555 1_555
O51_3 Nd6 1_555 1_555
O52_3 Nd6 1_555 1_555
O53_3 Nd6 1_555 1_555
O54_3 Nd7_2 1_555 1_555
O55_3 Nd7_2 1_555 1_555
O56_3 Nd7_2 1_555 1_555
O59_3 Nd8 1_555 1_555
O60_3 Nd8 1_555 1_555
O61_3 Nd8 1_555 1_555
O62_3 Nd6 1_555 1_555
O63_3 Nd6 1_555 1_555
O64_3 Nd6 1_555 1_555
O65_3 Nd7_2 1_555 1_555
O66_3 Nd7_2 1_555 1_555
O67_3 Nd7_2 1_555 1_555
O70_3 N16_3 1_555 1_555
O71_3 N17_3 1_555 1_555
O72_3 N18_3 1_555 1_555
O73_3 N19_3 1_555 1_555
O74_3 N20_3 1_555 1_555
O75_3 N21_3 1_555 1_555
O76_3 N22_3 1_555 1_555
O77_3 N23_3 1_555 1_555
O78_3 N24_3 1_555 1_555
C17_3 C1_4 1_555 1_555
C18_3 C1_4 1_555 1_555
C19_3 C1_4 1_555 1_555
C22_3 C15_4 1_555 1_555
C23_3 C15_4 1_555 1_555
H24_3 C17_3 1_555 1_555
H25_3 C18_3 1_555 1_555
H26_3 C19_3 1_555 1_555
H29_3 C22_3 1_555 1_555
H35_3 C17_3 1_555 1_555
H36_3 C18_3 1_555 1_555
H37_3 C19_3 1_555 1_555
H40_3 C22_3 1_555 1_555
H41_3 C23_3 1_555 1_555
C28_3 O35_3 1_555 1_555
C29_3 O36_3 1_555 1_555
C30_3 O37_3 1_555 1_555
C33_3 O40_3 1_555 1_555
C34_3 O41_3 1_555 1_555
C39_3 C28_3 1_555 1_555
C40_3 C29_3 1_555 1_555
C41_3 C30_3 1_555 1_555
C44_3 C33_3 1_555 1_555
C45_3 C34_3 1_555 1_555
H46_3 C39_3 1_555 1_555
H47_3 C40_3 1_555 1_555
H48_3 C41_3 1_555 1_555
H51_3 C44_3 1_555 1_555
H52_3 C45_3 1_555 1_555
C50_3 C39_3 1_555 1_555
C51_3 C40_3 1_555 1_555
C52_3 C41_3 1_555 1_555
C55_3 C44_3 1_555 1_555
C56_3 C45_3 1_555 1_555
H57_3 C50_3 1_555 1_555
H58_3 C51_3 1_555 1_555
H59_3 C52_3 1_555 1_555
H62_3 C55_3 1_555 1_555
H63_3 C56_3 1_555 1_555
C61_3 C50_3 1_555 1_555
C62_3 C51_3 1_555 1_555
C63_3 C52_3 1_555 1_555
C66_3 C55_3 1_555 1_555
C67_3 C56_3 1_555 1_555
H68_3 C61_3 1_555 1_555
H69_3 C62_3 1_555 1_555
H70_3 C63_3 1_555 1_555
H73_3 C66_3 1_555 1_555
H74_3 C67_3 1_555 1_555
H75_3 C68_3 1_555 1_555
H77_3 C70_3 1_555 1_555
C72_3 C61_3 1_555 1_555
C73_3 C62_3 1_555 1_555
C74_3 C63_3 1_555 1_555
C77_3 C66_3 1_555 1_555
C78_3 C67_3 1_555 1_555
C79_3 C68_3 1_555 1_555
C81_3 C70_3 1_555 1_555
H79_3 C72_3 1_555 1_555
H80_3 C73_3 1_555 1_555
H81_3 C74_3 1_555 1_555
H84_3 C77_3 1_555 1_555
H85_3 C78_3 1_555 1_555
H86_3 C79_3 1_555 1_555
H88_3 C81_3 1_555 1_555
C83_3 C28_3 1_555 1_555
C84_3 C29_3 1_555 1_555
C85_3 C30_3 1_555 1_555
C88_3 C33_3 1_555 1_555
C89_3 C34_3 1_555 1_555
C94_3 N3_3 1_555 1_555
C95_3 N4_3 1_555 1_555
C96_3 N5_3 1_555 1_555
C100_3 N9_3 1_555 1_555
C105_3 N3_3 1_555 1_555
C106_3 N4_3 1_555 1_555
C107_3 N5_3 1_555 1_555
C108_3 N6_3 1_555 1_555
C111_3 N9_3 1_555 1_555
H90_3 C105_3 1_555 1_555
H91_3 C106_3 1_555 1_555
H92_3 C107_3 1_555 1_555
H93_3 C108_3 1_555 1_555
H96_3 C111_3 1_555 1_555
H101_3 C105_3 1_555 1_555
H102_3 C106_3 1_555 1_555
H103_3 C107_3 1_555 1_555
H104_3 C108_3 1_555 1_555
H107_3 C111_3 1_555 1_555
C116_3 C105_3 1_555 1_555
C117_3 C106_3 1_555 1_555
C118_3 C107_3 1_555 1_555
C119_3 C108_3 1_555 1_555
C122_3 C111_3 1_555 1_555
C127_3 C116_3 1_555 1_555
C128_3 C117_3 1_555 1_555
C129_3 C118_3 1_555 1_555
C130_3 C119_3 1_555 1_555
C133_3 C122_3 1_555 1_555
H112_3 C127_3 1_555 1_555
H113_3 C128_3 1_555 1_555
H114_3 C129_3 1_555 1_555
H115_3 C130_3 1_555 1_555
H118_3 C133_3 1_555 1_555
C138_3 C127_3 1_555 1_555
C139_3 C128_3 1_555 1_555
C140_3 C129_3 1_555 1_555
C141_3 C130_3 1_555 1_555
C144_3 C133_3 1_555 1_555
H123_3 C138_3 1_555 1_555
H124_3 C139_3 1_555 1_555
H125_3 C140_3 1_555 1_555
H126_3 C141_3 1_555 1_555
H129_3 C144_3 1_555 1_555
C149_3 O24_3 1_555 1_555
C150_3 O25_3 1_555 1_555
C151_3 O26_3 1_555 1_555
C152_3 O27_3 1_555 1_555
C155_3 O30_3 1_555 1_555
H134_3 C149_3 1_555 1_555
H135_3 C150_3 1_555 1_555
H136_3 C151_3 1_555 1_555
H137_3 C152_3 1_555 1_555
H140_3 C155_3 1_555 1_555
C7_3 C8_3 1_555 1_555
C8_3 C9_3 1_555 1_555
C13_3 C14_3 1_555 1_555
N16_3 O59_3 1_555 1_555
N17_3 O60_3 1_555 1_555
N18_3 O61_3 1_555 1_555
N19_3 O62_3 1_555 1_555
N20_3 O63_3 1_555 1_555
N21_3 O64_3 1_555 1_555
N22_3 O65_3 1_555 1_555
N23_3 O66_3 1_555 1_555
N24_3 O67_3 1_555 1_555
C72_3 C83_3 1_555 1_555
C73_3 C84_3 1_555 1_555
C74_3 C85_3 1_555 1_555
C77_3 C88_3 1_555 1_555
C78_3 C89_3 1_555 1_555
C83_3 C94_3 1_555 1_555
C84_3 C95_3 1_555 1_555
C85_3 C96_3 1_555 1_555
C88_3 C99_3 1_555 1_555
C89_3 C100_3 1_555 1_555
C138_3 C149_3 1_555 1_555
C139_3 C150_3 1_555 1_555
C140_3 C151_3 1_555 1_555
C141_3 C152_3 1_555 1_555
C144_3 C155_3 1_555 1_555
H69_4 C62_4 1_555 1_555
H73_4 C66_4 1_555 1_555
H77_4 C70_4 1_555 1_555
C73_4 C62_4 1_555 1_555
C77_4 C66_4 1_555 1_555
C81_4 C70_4 1_555 1_555
H80_4 C73_4 1_555 1_555
H84_4 C77_4 1_555 1_555
H88_4 C81_4 1_555 1_555
N1_4 H1_4 1_555 1_555
O2_4 C11_4 1_555 1_555
C10_4 N1_4 1_555 1_555
H9_4 C10_4 1_555 1_555
C11_4 C10_4 1_555 1_555
C12_4 C11_4 1_555 1_555
H10_4 C12_4 1_555 1_555
C13_4 C12_4 1_555 1_555
H11_4 C13_4 1_555 1_555
C14_4 O2_4 1_555 1_555
H12_4 C14_4 1_555 1_555
Nd9 O8_4 1_555 1_555
Nd7 O9_4 1_555 1_555
N5_4 H15_4 1_555 1_555
N19_4 O51_4 1_555 1_555
N20_4 O52_4 1_555 1_555
N21_4 O53_4 1_555 1_555
N22_4 O54_4 1_555 1_555
N23_4 O55_4 1_555 1_555
N24_4 O56_4 1_555 1_555
O8_4 C95_4 1_555 1_555
O9_4 C96_4 1_555 1_555
O26_4 C118_4 1_555 1_555
O36_4 C18_4 1_555 1_555
O37_4 C19_4 1_555 1_555
O51_4 Nd9 1_555 1_555
O52_4 Nd9 1_555 1_555
O53_4 Nd9 1_555 1_555
O54_4 Nd7 1_555 1_555
O55_4 Nd7 1_555 1_555
O56_4 Nd7 1_555 1_555
O62_4 Nd9 1_555 1_555
O65_4 Nd7 1_555 1_555
O66_4 Nd7 1_555 1_555
O67_4 Nd7 1_555 1_555
O73_4 N19_4 1_555 1_555
O74_4 N20_4 1_555 1_555
O75_4 N21_4 1_555 1_555
O76_4 N22_4 1_555 1_555
O77_4 N23_4 1_555 1_555
O78_4 N24_4 1_555 1_555
C18_4 C1_5 1_555 1_555
C19_4 C1_5 1_555 1_555
H25_4 C18_4 1_555 1_555
H36_4 C18_4 1_555 1_555
H37_4 C19_4 1_555 1_555
C29_4 O36_4 1_555 1_555
C30_4 O37_4 1_555 1_555
C40_4 C29_4 1_555 1_555
C41_4 C30_4 1_555 1_555
H47_4 C40_4 1_555 1_555
H48_4 C41_4 1_555 1_555
C51_4 C40_4 1_555 1_555
C52_4 C41_4 1_555 1_555
H58_4 C51_4 1_555 1_555
H59_4 C52_4 1_555 1_555
C63_4 C52_4 1_555 1_555
H70_4 C63_4 1_555 1_555
H75_4 C68_4 1_555 1_555
C74_4 C63_4 1_555 1_555
C79_4 C68_4 1_555 1_555
H81_4 C74_4 1_555 1_555
H86_4 C79_4 1_555 1_555
C84_4 C29_4 1_555 1_555
C85_4 C30_4 1_555 1_555
C96_4 N5_4 1_555 1_555
C107_4 N5_4 1_555 1_555
H92_4 C107_4 1_555 1_555
H103_4 C107_4 1_555 1_555
C118_4 C107_4 1_555 1_555
C129_4 C118_4 1_555 1_555
H114_4 C129_4 1_555 1_555
C140_4 C129_4 1_555 1_555
H125_4 C140_4 1_555 1_555
C151_4 O26_4 1_555 1_555
H136_4 C151_4 1_555 1_555
C13_4 C14_4 1_555 1_555
N19_4 O62_4 1_555 1_555
N22_4 O65_4 1_555 1_555
N23_4 O66_4 1_555 1_555
N24_4 O67_4 1_555 1_555
C74_4 C85_4 1_555 1_555
C84_4 C95_4 1_555 1_555
C85_4 C96_4 1_555 1_555
C140_4 C151_4 1_555 1_555
N10_4 H20_4 1_555 1_555
N13_4 H23_4 1_555 1_555
O21 C103_4 1_555 1_555
O22_2 C104_4 1_555 1_555
O31_4 C123_4 1_555 1_555
O34_4 C126_4 1_555 1_555
O44_4 C26_4 1_555 1_555
O45_4 C27_4 1_555 1_555
C26_4 C16_5 1_555 1_555
C27_4 C16_5 1_555 1_555
H33_4 C26_4 1_555 1_555
H44_4 C26_4 1_555 1_555
H45_4 C27_4 1_555 1_555
C37_4 O44_4 1_555 1_555
C38_4 O45_4 1_555 1_555
C48_4 C37_4 1_555 1_555
C49_4 C38_4 1_555 1_555
H55_4 C48_4 1_555 1_555
H56_4 C49_4 1_555 1_555
C59_4 C48_4 1_555 1_555
C60_4 C49_4 1_555 1_555
H66_4 C59_4 1_555 1_555
H67_4 C60_4 1_555 1_555
C71_4 C60_4 1_555 1_555
H71_4 C64_4 1_555 1_555
H78_4 C71_4 1_555 1_555
C75_4 C64_4 1_555 1_555
C82_4 C71_4 1_555 1_555
H82_4 C75_4 1_555 1_555
H89_4 C82_4 1_555 1_555
C92_4 C37_4 1_555 1_555
C93_4 C38_4 1_555 1_555
C104_4 N13_4 1_555 1_555
C112_4 N10_4 1_555 1_555
C115_4 N13_4 1_555 1_555
H100_4 C115_4 1_555 1_555
H108_4 C112_4 1_555 1_555
H111_4 C115_4 1_555 1_555
C123_4 C112_4 1_555 1_555
C126_4 C115_4 1_555 1_555
C134_4 C123_4 1_555 1_555
C137_4 C126_4 1_555 1_555
H119_4 C134_4 1_555 1_555
H122_4 C137_4 1_555 1_555
C145_4 C134_4 1_555 1_555
C148_4 C137_4 1_555 1_555
H130_4 C145_4 1_555 1_555
H133_4 C148_4 1_555 1_555
C156_4 O31_4 1_555 1_555
C159_4 O34_4 1_555 1_555
H141_4 C156_4 1_555 1_555
H144_4 C159_4 1_555 1_555
C82_4 C93_4 1_555 1_555
C92_4 C103_4 1_555 1_555
C93_4 C104_4 1_555 1_555
C145_4 C156_4 1_555 1_555
C148_4 C159_4 1_555 1_555
N11_4 H21_4 1_555 1_555
N12_4 H22_4 1_555 1_555
O18_2 C102_4 1_555 1_555
O32_4 C124_4 1_555 1_555
O33_4 C125_4 1_555 1_555
O42_4 C24_4 1_555 1_555
O43_4 C25_4 1_555 1_555
C16_6 C24_4 1_555 1_555
C24_4 H31_4 1_555 1_555
C25_4 C16_6 1_555 1_555
H42_4 C24_4 1_555 1_555
H43_4 C25_4 1_555 1_555
C35_4 O42_4 1_555 1_555
C36_4 O43_4 1_555 1_555
C46_4 C35_4 1_555 1_555
C47_4 C36_4 1_555 1_555
H53_4 C46_4 1_555 1_555
H54_4 C47_4 1_555 1_555
C57_4 C46_4 1_555 1_555
C58_4 C47_4 1_555 1_555
H64_4 C57_4 1_555 1_555
H65_4 C58_4 1_555 1_555
C69_4 C58_4 1_555 1_555
H76_4 C69_4 1_555 1_555
C80_4 C69_4 1_555 1_555
H87_4 C80_4 1_555 1_555
C90_4 C35_4 1_555 1_555
C91_4 C36_4 1_555 1_555
C102_4 N11_4 1_555 1_555
C113_4 N11_4 1_555 1_555
C114_4 N12_4 1_555 1_555
H98_4 C113_4 1_555 1_555
H109_4 C113_4 1_555 1_555
H110_4 C114_4 1_555 1_555
C124_4 C113_4 1_555 1_555
C125_4 C114_4 1_555 1_555
C135_4 C124_4 1_555 1_555
C136_4 C125_4 1_555 1_555
H120_4 C135_4 1_555 1_555
H121_4 C136_4 1_555 1_555
C146_4 C135_4 1_555 1_555
C147_4 C136_4 1_555 1_555
H131_4 C146_4 1_555 1_555
H132_4 C147_4 1_555 1_555
C157_4 O32_4 1_555 1_555
C158_4 O33_4 1_555 1_555
H142_4 C157_4 1_555 1_555
H143_4 C158_4 1_555 1_555
O14_4 C101_4 1_555 1_555
C80_4 C91_4 1_555 1_555
C90_4 C101_4 1_555 1_555
C91_4 C102_4 1_555 1_555
C146_4 C157_4 1_555 1_555
C147_4 C158_4 1_555 1_555
H6_4 C6_4 1_555 1_555
C7_4 C6_4 1_555 1_555
H7_4 C7_4 1_555 1_555
N6_4 H16_4 1_555 1_555
N9_4 H19_4 1_555 1_555
O20_2 C99_4 1_555 1_555
O23 C100_4 1_555 1_555
O27_4 C119_4 1_555 1_555
O30_4 C122_4 1_555 1_555
O40_4 C22_4 1_555 1_555
O41_4 C23_4 1_555 1_555
C22_4 C15_5 1_555 1_555
C23_4 C15_5 1_555 1_555
H29_4 C22_4 1_555 1_555
H40_4 C22_4 1_555 1_555
H41_4 C23_4 1_555 1_555
C33_4 O40_4 1_555 1_555
C34_4 O41_4 1_555 1_555
C44_4 C33_4 1_555 1_555
C45_4 C34_4 1_555 1_555
H51_4 C44_4 1_555 1_555
H52_4 C45_4 1_555 1_555
C55_4 C44_4 1_555 1_555
C56_4 C45_4 1_555 1_555
H62_4 C55_4 1_555 1_555
H63_4 C56_4 1_555 1_555
C67_4 C56_4 1_555 1_555
H74_4 C67_4 1_555 1_555
C78_4 C67_4 1_555 1_555
H85_4 C78_4 1_555 1_555
C88_4 C33_4 1_555 1_555
C89_4 C34_4 1_555 1_555
C100_4 N9_4 1_555 1_555
C108_4 N6_4 1_555 1_555
C111_4 N9_4 1_555 1_555
H96_4 C111_4 1_555 1_555
H104_4 C108_4 1_555 1_555
H107_4 C111_4 1_555 1_555
C119_4 C108_4 1_555 1_555
C122_4 C111_4 1_555 1_555
C130_4 C119_4 1_555 1_555
C133_4 C122_4 1_555 1_555
H115_4 C130_4 1_555 1_555
H118_4 C133_4 1_555 1_555
C141_4 C130_4 1_555 1_555
C144_4 C133_4 1_555 1_555
H126_4 C141_4 1_555 1_555
H129_4 C144_4 1_555 1_555
C152_4 O27_4 1_555 1_555
C155_4 O30_4 1_555 1_555
H137_4 C152_4 1_555 1_555
H140_4 C155_4 1_555 1_555
C78_4 C89_4 1_555 1_555
C88_4 C99_4 1_555 1_555
C89_4 C100_4 1_555 1_555
C141_4 C152_4 1_555 1_555
C144_4 C155_4 1_555 1_555
O1_4 C9_4 1_555 1_555
O3_4 C2_4 1_555 1_555
C1_6 C2_4 1_555 1_555
C2_4 H2_4 1_555 1_555
H3_4 C2_4 1_555 1_555
C3_4 O3_4 1_555 1_555
C4_4 C3_4 1_555 1_555
H4_4 C4_4 1_555 1_555
C5_4 C4_4 1_555 1_555
H5_4 C5_4 1_555 1_555
C8_4 C3_4 1_555 1_555
Nd8_2 O7_4 1_555 1_555
N3_4 H13_4 1_555 1_555
N4_4 H14_4 1_555 1_555
N16_4 O48_4 1_555 1_555
N17_4 O49_4 1_555 1_555
N18_4 O50_4 1_555 1_555
O7_4 C94_4 1_555 1_555
O24_4 C116_4 1_555 1_555
O25_4 C117_4 1_555 1_555
O35_4 C17_4 1_555 1_555
O48_4 Nd8_2 1_555 1_555
O49_4 Nd8_2 1_555 1_555
O50_4 Nd8_2 1_555 1_555
O59_4 Nd8_2 1_555 1_555
O60_4 Nd8_2 1_555 1_555
O61_4 Nd8_2 1_555 1_555
O70_4 N16_4 1_555 1_555
O71_4 N17_4 1_555 1_555
O72_4 N18_4 1_555 1_555
C17_4 C1_6 1_555 1_555
H35_4 C17_4 1_555 1_555
C28_4 O35_4 1_555 1_555
C39_4 C28_4 1_555 1_555
H46_4 C39_4 1_555 1_555
C50_4 C39_4 1_555 1_555
H57_4 C50_4 1_555 1_555
C61_4 C50_4 1_555 1_555
H68_4 C61_4 1_555 1_555
C72_4 C61_4 1_555 1_555
H79_4 C72_4 1_555 1_555
C83_4 C28_4 1_555 1_555
C94_4 N3_4 1_555 1_555
C105_4 N3_4 1_555 1_555
C106_4 N4_4 1_555 1_555
H90_4 C105_4 1_555 1_555
H101_4 C105_4 1_555 1_555
H102_4 C106_4 1_555 1_555
C116_4 C105_4 1_555 1_555
C117_4 C106_4 1_555 1_555
C127_4 C116_4 1_555 1_555
C128_4 C117_4 1_555 1_555
H112_4 C127_4 1_555 1_555
H113_4 C128_4 1_555 1_555
C138_4 C127_4 1_555 1_555
C139_4 C128_4 1_555 1_555
H123_4 C138_4 1_555 1_555
H124_4 C139_4 1_555 1_555
C149_4 O24_4 1_555 1_555
C150_4 O25_4 1_555 1_555
H134_4 C149_4 1_555 1_555
H135_4 C150_4 1_555 1_555
C8_4 C9_4 1_555 1_555
N16_4 O59_4 1_555 1_555
N17_4 O60_4 1_555 1_555
N18_4 O61_4 1_555 1_555
C72_4 C83_4 1_555 1_555
C83_4 C94_4 1_555 1_555
C138_4 C149_4 1_555 1_555
C139_4 C150_4 1_555 1_555
N7_4 H17_4 1_555 1_555
N8_4 H18_4 1_555 1_555
O19_2 C98_4 1_555 1_555
O28_4 C120_4 1_555 1_555
O29_4 C121_4 1_555 1_555
O38_4 C20_4 1_555 1_555
O39_4 C21_4 1_555 1_555
C15_6 C20_4 1_555 1_555
C20_4 H27_4 1_555 1_555
C21_4 C15_6 1_555 1_555
H38_4 C20_4 1_555 1_555
H39_4 C21_4 1_555 1_555
C31_4 O38_4 1_555 1_555
C32_4 O39_4 1_555 1_555
C42_4 C31_4 1_555 1_555
C43_4 C32_4 1_555 1_555
H49_4 C42_4 1_555 1_555
H50_4 C43_4 1_555 1_555
C53_4 C42_4 1_555 1_555
C54_4 C43_4 1_555 1_555
H60_4 C53_4 1_555 1_555
H61_4 C54_4 1_555 1_555
C65_4 C54_4 1_555 1_555
H72_4 C65_4 1_555 1_555
C76_4 C65_4 1_555 1_555
H83_4 C76_4 1_555 1_555
C86_4 C31_4 1_555 1_555
C87_4 C32_4 1_555 1_555
C98_4 N7_4 1_555 1_555
C109_4 N7_4 1_555 1_555
C110_4 N8_4 1_555 1_555
H94_4 C109_4 1_555 1_555
H105_4 C109_4 1_555 1_555
H106_4 C110_4 1_555 1_555
C120_4 C109_4 1_555 1_555
C121_4 C110_4 1_555 1_555
C131_4 C120_4 1_555 1_555
C132_4 C121_4 1_555 1_555
H116_4 C131_4 1_555 1_555
H117_4 C132_4 1_555 1_555
C142_4 C131_4 1_555 1_555
C143_4 C132_4 1_555 1_555
H127_4 C142_4 1_555 1_555
H128_4 C143_4 1_555 1_555
C153_4 O28_4 1_555 1_555
C154_4 O29_4 1_555 1_555
H138_4 C153_4 1_555 1_555
H139_4 C154_4 1_555 1_555
O10_4 C97_4 1_555 1_555
C76_4 C87_4 1_555 1_555
C86_4 C97_4 1_555 1_555
C87_4 C98_4 1_555 1_555
C142_4 C153_4 1_555 1_555
C143_4 C154_4 1_555 1_555
N2_4 O4_4 1_555 1_555
O4_4 Nd1_4 1_555 1_555
O6_4 N2_4 1_555 1_555
N14_4 O46_4 1_555 1_555
N15_4 O47_4 1_555 1_555
O46_4 Nd1_4 1_555 1_555
O47_4 Nd1_4 1_555 1_555
O68_4 N14_4 1_555 1_555
O69_4 N15_4 1_555 1_555

#END
