
###############################################################################
#
# This file contains modified crystal structure data generated from the
# MOF subset of the Cambridge Structural Database (CSD) v543 
# hosted by the Cambridge Crystallographic Data Centre (CCDC).
#
# This work is licensed under the Creative Commons
# Attribution-NonCommercial-ShareAlike 4.0 International License.
# To view a copy of this license, visit
# http://creativecommons.org/licenses/by-nc-sa/4.0/
# or send a letter to
# Creative Commons, PO Box 1866, Mountain View, CA 94042, USA.
#
# CIF created using the CSD Python API on 29 September 2022
# The structure has been converted into the P1 space group
# The structure has a 3D framework
# The original CSD entry GUSMAJ is in the cubic crystal system
# The framework has been calculated to contain at least 10.0% void space
# The void calculation uses a probe of radius 1.32A, grid spacing 0.4
#
###############################################################################

data_GUSMAJ
_chemical_formula_moiety         '(C642 H576 Eu16 N96 O288)n'
_symmetry_cell_setting           triclinic
_symmetry_space_group_name_H-M   'P 1'
_symmetry_Int_Tables_number      1
_space_group_name_Hall           'P 1'
loop_
_symmetry_equiv_pos_site_id
_symmetry_equiv_pos_as_xyz
1 x,y,z
_cell_length_a                   27.520(3)
_cell_length_b                   27.520(3)
_cell_length_c                   27.520(3)
_cell_angle_alpha                90
_cell_angle_beta                 90
_cell_angle_gamma                90
_cell_volume                     20842.3
loop_
_atom_site_label
_atom_site_type_symbol
_atom_site_fract_x
_atom_site_fract_y
_atom_site_fract_z
Eu9 Eu 0.02383(3) 0.52383(3) 0.97617(3)
Eu1 Eu 0.47617(3) 0.52383(3) 0.02383(3)
N1 N 0.5187(7) 0.3683(6) 0.0170(9)
H1 H 0.5178 0.3370 0.0170
N2 N 0.4892(8) 0.5251(8) 0.1275(5)
O1 O 0.4789(5) 0.4383(3) 0.0163(5)
O2 O 0.6392(9) 0.3441(9) 0.0152(9)
O3 O 0.4619(5) 0.3016(5) 0.0661(5)
O4 O 0.4920(6) 0.4860(6) 0.1053(4)
O5 O 0.4869(8) 0.5635(6) 0.1040(5)
O6 O 0.4950(9) 0.5257(7) 0.1732(4)
C1 C 0.5000 0.2500 0.1250
C2 C 0.4535(6) 0.2560(7) 0.0922(6)
H2 H 0.4504 0.2290 0.0698
H3 H 0.4244 0.2579 0.1119
C3 C 0.4234(7) 0.3184(6) 0.0388(7)
C4 C 0.3785(8) 0.2960(8) 0.0395(10)
H4 H 0.3728 0.2683 0.0579
C5 C 0.3410(7) 0.3176(9) 0.0103(10)
H5 H 0.3112 0.3021 0.0070
C8 C 0.4305(9) 0.3657(7) 0.0206(8)
C9 C 0.4793(9) 0.3938(6) 0.0192(7)
C10 C 0.5660(11) 0.3956(14) 0.0147(15)
H9 H 0.5629 0.4271 0.0301
C11 C 0.5991(10) 0.3680(13) 0.0383(11)
C12 C 0.6027(10) 0.3588(13) 0.0891(10)
H10 H 0.5802 0.3683 0.1125
C13 C 0.6464(11) 0.3326(14) 0.0984(10)
H11 H 0.6588 0.3243 0.1287
C14 C 0.6678(9) 0.3214(12) 0.0519(12)
H12 H 0.6955 0.3027 0.0468
Eu2 Eu 0.22617(3) 0.22617(3) 0.22617(3)
Eu4 Eu 0.77383(3) 0.27383(3) 0.22617(3)
Eu8 Eu 0.77383(3) 0.72617(3) 0.27383(3)
N3 N 0.3817(6) 0.2687(7) 0.2330(9)
N4 N 0.4813(7) 0.1317(6) 0.0170(9)
N5 N 0.6183(6) 0.2313(7) 0.2330(9)
N11 N 0.7313(7) 0.7330(9) 0.1183(6)
N12 N 0.8683(6) 0.5170(9) 0.0187(7)
H13 H 0.4130 0.2678 0.2330
H14 H 0.4822 0.1630 0.0170
H15 H 0.5870 0.2322 0.2330
H21 H 0.7322 0.7330 0.0870
H22 H 0.8370 0.5170 0.0178
N14 N 0.3725(5) 0.5108(8) 0.0251(8)
N15 N 0.4749(8) 0.6275(5) 0.0108(8)
N16 N 0.2249(8) 0.2392(8) 0.1225(5)
N17 N 0.2392(8) 0.1225(5) 0.2249(8)
N18 N 0.1225(5) 0.2249(8) 0.2392(8)
N22 N 0.7751(8) 0.2608(8) 0.1225(5)
N23 N 0.7608(8) 0.3775(5) 0.2249(8)
N24 N 0.8775(5) 0.2751(8) 0.2392(8)
O7 O 0.3117(3) 0.2289(5) 0.2337(5)
O8 O 0.5211(5) 0.0617(3) 0.0163(5)
O9 O 0.6883(3) 0.2711(5) 0.2337(5)
O14 O 0.5617(3) 0.5163(5) 0.0211(5)
O15 O 0.7711(5) 0.7337(5) 0.1883(3)
O18 O 0.2289(5) 0.2337(5) 0.3117(3)
O19 O 0.2337(5) 0.3117(3) 0.2289(5)
O22 O 0.7711(5) 0.2663(5) 0.3117(3)
O23 O 0.7663(5) 0.1883(3) 0.2289(5)
O24 O 0.4059(9) 0.3892(9) 0.2348(9)
O25 O 0.3608(9) 0.1559(9) 0.0152(9)
O26 O 0.5941(9) 0.1108(9) 0.2348(9)
O32 O 0.6108(9) 0.7348(9) 0.0941(9)
O33 O 0.8441(9) 0.5152(9) 0.1392(9)
O35 O 0.4484(5) 0.2119(5) 0.1839(5)
O36 O 0.5381(5) 0.1984(5) 0.0661(5)
O37 O 0.5516(5) 0.2881(5) 0.1839(5)
O42 O 0.6984(5) 0.5661(5) 0.0381(5)
O43 O 0.7881(5) 0.6839(5) 0.0516(5)
O47 O 0.5140(6) 0.6053(4) 0.0080(6)
O48 O 0.2640(6) 0.2420(6) 0.1447(4)
O49 O 0.2420(6) 0.1447(4) 0.2640(6)
O50 O 0.1447(4) 0.2640(6) 0.2420(6)
O51 O 0.5080(6) 0.0140(6) 0.1053(4)
O54 O 0.7360(6) 0.2580(6) 0.1447(4)
O55 O 0.7580(6) 0.3553(4) 0.2640(6)
O56 O 0.8553(4) 0.2360(6) 0.2420(6)
O57 O 0.3960(5) 0.5131(8) 0.0635(6)
O58 O 0.4365(6) 0.6040(5) 0.0131(8)
O59 O 0.1865(6) 0.2369(8) 0.1460(5)
O60 O 0.2369(8) 0.1460(5) 0.1865(6)
O61 O 0.1460(5) 0.1865(6) 0.2369(8)
O65 O 0.8135(6) 0.2631(8) 0.1460(5)
O66 O 0.7631(8) 0.3540(5) 0.1865(6)
O67 O 0.8540(5) 0.3135(6) 0.2369(8)
O68 O 0.3268(4) 0.5050(9) 0.0257(7)
O69 O 0.4743(7) 0.6732(4) 0.0050(9)
O70 O 0.2243(7) 0.2450(9) 0.0768(4)
O71 O 0.2450(9) 0.0768(4) 0.2243(7)
O72 O 0.0768(4) 0.2243(7) 0.2450(9)
O76 O 0.7757(7) 0.2550(9) 0.0768(4)
O77 O 0.7550(9) 0.4232(4) 0.2243(7)
O78 O 0.9232(4) 0.2757(7) 0.2450(9)
C16 C 0.7500 0.6250 0.0000
C17 C 0.4940(7) 0.2035(6) 0.1578(6)
C18 C 0.5465(6) 0.2440(7) 0.0922(6)
C19 C 0.5060(7) 0.2965(6) 0.1578(6)
C24 C 0.7440(7) 0.5922(6) 0.0465(6)
C25 C 0.7965(6) 0.6578(6) 0.0060(7)
H24 H 0.5210 0.2004 0.1802
H25 H 0.5496 0.2710 0.0698
H26 H 0.4790 0.2996 0.1802
H31 H 0.7710 0.5698 0.0496
H34 H 0.7004 0.6802 0.0210
H35 H 0.4921 0.1744 0.1381
H36 H 0.5756 0.2421 0.1119
H37 H 0.5079 0.3256 0.1381
H42 H 0.7421 0.6119 0.0756
H43 H 0.8256 0.6381 0.0079
C28 C 0.4316(6) 0.1734(7) 0.2112(7)
C29 C 0.5766(7) 0.1816(6) 0.0388(7)
C30 C 0.5684(6) 0.3266(7) 0.2112(7)
C35 C 0.6816(6) 0.5388(7) 0.0766(7)
C36 C 0.8266(7) 0.7112(7) 0.0684(6)
C39 C 0.4540(8) 0.1285(8) 0.2105(10)
C40 C 0.6215(8) 0.2040(8) 0.0395(10)
C41 C 0.5460(8) 0.3715(8) 0.2105(10)
C46 C 0.7040(8) 0.5395(10) 0.1215(8)
C47 C 0.8715(8) 0.7105(10) 0.0460(8)
H46 H 0.4817 0.1228 0.1921
H47 H 0.6272 0.2317 0.0579
H48 H 0.5183 0.3772 0.1921
H53 H 0.7317 0.5579 0.1272
H54 H 0.8772 0.6921 0.0183
C50 C 0.4324(9) 0.0910(7) 0.2397(10)
C51 C 0.6590(7) 0.1824(9) 0.0103(10)
C52 C 0.5676(9) 0.4090(7) 0.2397(10)
C57 C 0.6824(9) 0.5103(10) 0.1590(7)
C58 C 0.9090(7) 0.7397(10) 0.0676(9)
H57 H 0.4479 0.0612 0.2430
H58 H 0.6888 0.1979 0.0070
H59 H 0.5521 0.4388 0.2430
H64 H 0.6979 0.5070 0.1888
H65 H 0.9388 0.7430 0.0521
C61 C 0.3914(10) 0.0987(8) 0.2615(10)
C63 C 0.6086(10) 0.4013(8) 0.2615(10)
C68 C 0.6414(10) 0.4885(10) 0.1513(8)
C69 C 0.9013(8) 0.7615(10) 0.1086(10)
H68 H 0.3779 0.0750 0.2814
H70 H 0.6221 0.4250 0.2814
H75 H 0.6279 0.4686 0.1750
H76 H 0.9250 0.7814 0.1221
C72 C 0.3682(9) 0.1420(10) 0.2547(10)
C74 C 0.6318(9) 0.3580(10) 0.2547(10)
C79 C 0.6182(9) 0.4953(10) 0.1080(10)
C80 C 0.8580(10) 0.7547(10) 0.1318(9)
H79 H 0.3379 0.1453 0.2692
H81 H 0.6621 0.3547 0.2692
H86 H 0.5879 0.4808 0.1047
H87 H 0.8547 0.7692 0.1621
C83 C 0.3843(7) 0.1805(9) 0.2294(8)
C84 C 0.5695(9) 0.1343(7) 0.0206(8)
C85 C 0.6157(7) 0.3195(9) 0.2294(8)
C90 C 0.6343(7) 0.5206(8) 0.0695(9)
C91 C 0.8195(9) 0.7294(8) 0.1157(7)
C94 C 0.3562(6) 0.2293(9) 0.2308(7)
C95 C 0.5207(9) 0.1062(6) 0.0192(7)
C96 C 0.6438(6) 0.2707(9) 0.2308(7)
C101 C 0.6062(6) 0.5192(7) 0.0207(9)
C102 C 0.7707(9) 0.7308(7) 0.1438(6)
C105 C 0.3544(14) 0.3160(11) 0.2353(15)
C106 C 0.4340(11) 0.1044(14) 0.0147(15)
C107 C 0.6456(14) 0.1840(11) 0.2353(15)
C113 C 0.6840(11) 0.7353(15) 0.1456(14)
C114 C 0.8956(14) 0.5147(15) 0.0660(11)
H90 H 0.3496 0.3258 0.2689
H92 H 0.6504 0.1742 0.2689
H98 H 0.6742 0.7689 0.1504
H99 H 0.9004 0.4811 0.0758
H101 H 0.3229 0.3129 0.2199
H102 H 0.4371 0.0729 0.0301
H103 H 0.6771 0.1871 0.2199
H109 H 0.6871 0.7199 0.1771
H110 H 0.9271 0.5301 0.0629
C116 C 0.3820(13) 0.3491(10) 0.2117(11)
C117 C 0.4009(10) 0.1320(13) 0.0383(11)
C118 C 0.6180(13) 0.1509(10) 0.2117(11)
C124 C 0.6509(10) 0.7117(11) 0.1180(13)
C125 C 0.8680(13) 0.5383(11) 0.0991(10)
C127 C 0.3912(13) 0.3527(10) 0.1609(10)
C128 C 0.3973(10) 0.1412(13) 0.0891(10)
C129 C 0.6088(13) 0.1473(10) 0.1609(10)
C135 C 0.6473(10) 0.6609(10) 0.1088(13)
C136 C 0.8588(13) 0.5891(10) 0.1027(10)
H112 H 0.3817 0.3302 0.1375
H113 H 0.4198 0.1317 0.1125
H114 H 0.6183 0.1698 0.1375
H120 H 0.6698 0.6375 0.1183
H121 H 0.8683 0.6125 0.0802
C138 C 0.4174(14) 0.3964(11) 0.1516(10)
C139 C 0.3536(11) 0.1674(14) 0.0984(10)
C140 C 0.5826(14) 0.1036(11) 0.1516(10)
C146 C 0.6036(11) 0.6516(10) 0.0826(14)
C147 C 0.8326(14) 0.5984(10) 0.1464(11)
H123 H 0.4257 0.4088 0.1213
H124 H 0.3412 0.1757 0.1287
H125 H 0.5743 0.0912 0.1213
H131 H 0.5912 0.6213 0.0743
H132 H 0.8243 0.6287 0.1588
C149 C 0.4286(12) 0.4178(9) 0.1981(12)
C150 C 0.3322(9) 0.1786(12) 0.0519(12)
C151 C 0.5714(12) 0.0822(9) 0.1981(12)
C157 C 0.5822(9) 0.6981(12) 0.0714(12)
C158 C 0.8214(12) 0.5519(12) 0.1678(9)
H134 H 0.4473 0.4455 0.2032
H135 H 0.3045 0.1973 0.0468
H136 H 0.5527 0.0545 0.2032
H142 H 0.5545 0.7032 0.0527
H143 H 0.8027 0.5468 0.1955
C6 C 0.3487(8) 0.3586(10) 0.9885(10)
H6 H 0.3250 0.3721 0.9686
C7 C 0.3920(10) 0.3818(9) 0.9953(10)
H7 H 0.3953 0.4121 0.9808
H8 H 0.5758 0.4004 0.9811
Eu5 Eu 0.27383(3) 0.77383(3) 0.72617(3)
Eu6 Eu 0.47617(3) 0.47617(3) 0.47617(3)
Eu7 Eu 0.27383(3) 0.22617(3) 0.77383(3)
Eu10 Eu 0.72617(3) 0.72617(3) 0.72617(3)
N6 N 0.4830(9) 0.4813(7) 0.8683(6)
N7 N 0.2670(9) 0.6183(6) 0.7687(7)
N8 N 0.4830(9) 0.5187(7) 0.6317(6)
N9 N 0.2670(9) 0.3817(6) 0.7313(7)
N10 N 0.6317(6) 0.5170(9) 0.9813(7)
N13 N 0.7687(7) 0.7330(9) 0.8817(6)
H16 H 0.4830 0.4822 0.8370
H17 H 0.2670 0.5870 0.7678
H18 H 0.4830 0.5178 0.6630
H19 H 0.2670 0.4130 0.7322
H20 H 0.6630 0.5170 0.9822
H23 H 0.7678 0.7330 0.9130
O10 O 0.4837(5) 0.5211(5) 0.9383(3)
O11 O 0.2663(5) 0.6883(3) 0.7289(5)
O12 O 0.4837(5) 0.4789(5) 0.5617(3)
O13 O 0.2663(5) 0.3117(3) 0.7711(5)
O16 O 0.9383(3) 0.5163(5) 0.9789(5)
O17 O 0.7289(5) 0.7337(5) 0.8117(3)
O27 O 0.4848(9) 0.3608(9) 0.8441(9)
O28 O 0.2652(9) 0.5941(9) 0.8892(9)
O29 O 0.4848(9) 0.6392(9) 0.6559(9)
O30 O 0.2652(9) 0.4059(9) 0.6108(9)
O31 O 0.6559(9) 0.5152(9) 0.8608(9)
O34 O 0.8892(9) 0.7348(9) 0.9059(9)
O38 O 0.4339(5) 0.5381(5) 0.8016(5)
O39 O 0.3161(5) 0.5516(5) 0.7119(5)
O40 O 0.4339(5) 0.4619(5) 0.6984(5)
O41 O 0.3161(5) 0.4484(5) 0.7881(5)
O44 O 0.8016(5) 0.5661(5) 0.9619(5)
O45 O 0.7119(5) 0.6839(5) 0.9484(5)
O46 O 0.3947(4) 0.5080(6) 0.9860(6)
C15 C 0.3750 0.5000 0.7500
C16_2 C 0.7500 0.6250 1.0000
C20 C 0.4078(6) 0.5465(6) 0.7560(7)
C21 C 0.3422(6) 0.5060(7) 0.7035(6)
C22 C 0.4078(6) 0.4535(6) 0.7440(7)
C23 C 0.3422(6) 0.4940(7) 0.7965(6)
C26 C 0.7560(7) 0.5922(6) 0.9535(6)
C27 C 0.7035(6) 0.6578(6) 0.9940(7)
H27 H 0.4302 0.5496 0.7290
H28 H 0.3198 0.4790 0.7004
H29 H 0.4302 0.4504 0.7710
H30 H 0.3198 0.5210 0.7996
H32 H 0.7996 0.6802 0.9790
H33 H 0.7290 0.5698 0.9504
H38 H 0.3881 0.5756 0.7579
H39 H 0.3619 0.5079 0.6744
H40 H 0.3881 0.4244 0.7421
H41 H 0.3619 0.4921 0.8256
H44 H 0.7579 0.6119 0.9244
H45 H 0.6744 0.6381 0.9921
C31 C 0.4612(7) 0.5766(7) 0.8184(6)
C32 C 0.2888(7) 0.5684(6) 0.6734(7)
C33 C 0.4612(7) 0.4234(7) 0.6816(6)
C34 C 0.2888(7) 0.4316(6) 0.8266(7)
C37 C 0.8184(6) 0.5388(7) 0.9234(7)
C38 C 0.6734(7) 0.7112(7) 0.9316(6)
C42 C 0.4605(10) 0.6215(8) 0.7960(8)
C43 C 0.2895(10) 0.5460(8) 0.6285(8)
C44 C 0.4605(10) 0.3785(8) 0.7040(8)
C45 C 0.2895(10) 0.4540(8) 0.8715(8)
C48 C 0.7960(8) 0.5395(10) 0.8785(8)
C49 C 0.6285(8) 0.7105(10) 0.9540(8)
H49 H 0.4421 0.6272 0.7683
H50 H 0.3079 0.5183 0.6228
H51 H 0.4421 0.3728 0.7317
H52 H 0.3079 0.4817 0.8772
H55 H 0.7683 0.5579 0.8728
H56 H 0.6228 0.6921 0.9817
C53 C 0.4897(10) 0.6590(7) 0.8176(9)
C54 C 0.2603(10) 0.5676(9) 0.5910(7)
C55 C 0.4897(10) 0.3410(7) 0.6824(9)
C56 C 0.2603(10) 0.4324(9) 0.9090(7)
C59 C 0.8176(9) 0.5103(10) 0.8410(7)
C60 C 0.5910(7) 0.7397(10) 0.9324(9)
H60 H 0.4930 0.6888 0.8021
H61 H 0.2570 0.5521 0.5612
H62 H 0.4930 0.3112 0.6979
H63 H 0.2570 0.4479 0.9388
H66 H 0.8021 0.5070 0.8112
H67 H 0.5612 0.7430 0.9479
C62 C 0.6513(8) 0.1414(10) 0.9885(10)
C64 C 0.5115(10) 0.6513(8) 0.8586(10)
C65 C 0.2385(10) 0.6086(10) 0.5987(8)
C66 C 0.5115(10) 0.3487(8) 0.6414(10)
C67 C 0.2385(10) 0.3914(10) 0.9013(8)
C70 C 0.8586(10) 0.4885(10) 0.8487(8)
C71 C 0.5987(8) 0.7615(10) 0.8914(10)
H69 H 0.6750 0.1279 0.9686
H71 H 0.5314 0.6750 0.8721
H72 H 0.2186 0.6221 0.5750
H73 H 0.5314 0.3250 0.6279
H74 H 0.2186 0.3779 0.9250
H77 H 0.8721 0.4686 0.8250
H78 H 0.5750 0.7814 0.8779
C73 C 0.6080(10) 0.1182(9) 0.9953(10)
C75 C 0.5047(10) 0.6080(10) 0.8818(9)
C76 C 0.2453(10) 0.6318(9) 0.6420(10)
C77 C 0.5047(10) 0.3920(10) 0.6182(9)
C78 C 0.2453(10) 0.3682(9) 0.8580(10)
C81 C 0.8818(9) 0.4953(10) 0.8920(10)
C82 C 0.6420(10) 0.7547(10) 0.8682(9)
H80 H 0.6047 0.0879 0.9808
H82 H 0.5192 0.6047 0.9121
H83 H 0.2308 0.6621 0.6453
H84 H 0.5192 0.3953 0.5879
H85 H 0.2308 0.3379 0.8547
H88 H 0.9121 0.4808 0.8953
H89 H 0.6453 0.7692 0.8379
C86 C 0.4794(8) 0.5695(9) 0.8657(7)
C87 C 0.2706(8) 0.6157(7) 0.6805(9)
C88 C 0.4794(8) 0.4305(9) 0.6343(7)
C89 C 0.2706(8) 0.3843(7) 0.8195(9)
C92 C 0.8657(7) 0.5206(8) 0.9305(9)
C93 C 0.6805(9) 0.7294(8) 0.8843(7)
C97 C 0.4808(7) 0.5207(9) 0.8938(6)
C98 C 0.2692(7) 0.6438(6) 0.7293(9)
C99 C 0.4808(7) 0.4793(9) 0.6062(6)
C100 C 0.2692(7) 0.3562(6) 0.7707(9)
C103 C 0.8938(6) 0.5192(7) 0.9793(9)
C104 C 0.7293(9) 0.7308(7) 0.8562(6)
C108 C 0.4853(15) 0.4340(11) 0.8956(14)
C109 C 0.2647(15) 0.6456(14) 0.8160(11)
C110 C 0.4853(15) 0.5660(11) 0.6044(14)
C111 C 0.2647(15) 0.3544(14) 0.6840(11)
C112 C 0.6044(14) 0.5147(15) 0.9340(11)
C115 C 0.8160(11) 0.7353(15) 0.8544(14)
H91 H 0.4242 0.0996 0.9811
H93 H 0.5189 0.4242 0.9004
H94 H 0.2311 0.6504 0.8258
H95 H 0.5189 0.5758 0.5996
H96 H 0.2311 0.3496 0.6742
H97 H 0.5996 0.4811 0.9242
H100 H 0.8258 0.7689 0.8496
H104 H 0.4699 0.4371 0.9271
H105 H 0.2801 0.6771 0.8129
H106 H 0.4699 0.5629 0.5729
H107 H 0.2801 0.3229 0.6871
H108 H 0.5729 0.5301 0.9371
H111 H 0.8129 0.7199 0.8229
C119 C 0.4617(11) 0.4009(10) 0.8680(13)
C120 C 0.2883(11) 0.6180(13) 0.8491(10)
C121 C 0.4617(11) 0.5991(10) 0.6320(13)
C122 C 0.2883(11) 0.3820(13) 0.6509(10)
C123 C 0.6320(13) 0.5383(11) 0.9009(10)
C126 C 0.8491(10) 0.7117(11) 0.8820(13)
C130 C 0.4109(10) 0.3973(10) 0.8588(13)
C131 C 0.3391(10) 0.6088(13) 0.8527(10)
C132 C 0.4109(10) 0.6027(10) 0.6412(13)
C133 C 0.3391(10) 0.3912(13) 0.6473(10)
C134 C 0.6412(13) 0.5891(10) 0.8973(10)
C137 C 0.8527(10) 0.6609(10) 0.8912(13)
H115 H 0.3875 0.4198 0.8683
H116 H 0.3625 0.6183 0.8302
H117 H 0.3875 0.5802 0.6317
H118 H 0.3625 0.3817 0.6698
H119 H 0.6317 0.6125 0.9198
H122 H 0.8302 0.6375 0.8817
C141 C 0.4016(10) 0.3536(11) 0.8326(14)
C142 C 0.3484(10) 0.5826(14) 0.8964(11)
C143 C 0.4016(10) 0.6464(11) 0.6674(14)
C144 C 0.3484(10) 0.4174(14) 0.6036(11)
C145 C 0.6674(14) 0.5984(10) 0.8536(11)
C148 C 0.8964(11) 0.6516(10) 0.9174(14)
H126 H 0.3713 0.3412 0.8243
H127 H 0.3787 0.5743 0.9088
H128 H 0.3713 0.6588 0.6757
H129 H 0.3787 0.4257 0.5912
H130 H 0.6757 0.6287 0.8412
H133 H 0.9088 0.6213 0.9257
C152 C 0.4481(12) 0.3322(9) 0.8214(12)
C153 C 0.3019(12) 0.5714(12) 0.9178(9)
C154 C 0.4481(12) 0.6678(9) 0.6786(12)
C155 C 0.3019(12) 0.4286(12) 0.5822(9)
C156 C 0.6786(12) 0.5519(12) 0.8322(9)
C159 C 0.9178(9) 0.6981(12) 0.9286(12)
H137 H 0.4532 0.3045 0.8027
H138 H 0.2968 0.5527 0.9455
H139 H 0.4532 0.6955 0.6973
H140 H 0.2968 0.4473 0.5545
H141 H 0.6973 0.5468 0.8045
H144 H 0.9455 0.7032 0.9473
Eu3 Eu 0.52383(3) 0.97617(3) 0.02383(3)
N19 N 0.5108(8) 0.9749(8) 0.1275(5)
N20 N 0.6275(5) 0.9892(8) 0.0251(8)
N21 N 0.5251(8) 0.8725(5) 0.0108(8)
O21 O 0.4383(3) 0.9837(5) 0.0211(5)
O53 O 0.4860(6) 0.8947(4) 0.0080(6)
O62 O 0.5131(8) 0.9365(6) 0.1040(5)
O63 O 0.6040(5) 0.9869(8) 0.0635(6)
O64 O 0.5635(6) 0.8960(5) 0.0131(8)
O73 O 0.5050(9) 0.9743(7) 0.1732(4)
O74 O 0.6732(4) 0.9950(9) 0.0257(7)
O75 O 0.5257(7) 0.8268(4) 0.0050(9)
O20 O 0.5163(5) 0.9789(5) 0.9383(3)
O52 O 0.6053(4) 0.9920(6) 0.9860(6)
O21_2 O 0.0617(3) 0.0163(5) 0.5211(5)
O53_2 O 0.0140(6) 0.1053(4) 0.5080(6)
Eu1_2 Eu 0.02383(3) 0.47617(3) 0.52383(3)
N2_2 N 0.0108(8) 0.4749(8) 0.6275(5)
O1_2 O 0.0211(5) 0.5617(3) 0.5163(5)
O3_2 O 0.0381(5) 0.6984(5) 0.5661(5)
O4_2 O 0.0080(6) 0.5140(6) 0.6053(4)
O5_2 O 0.0131(8) 0.4365(6) 0.6040(5)
O6_2 O 0.0050(9) 0.4743(7) 0.6732(4)
C1_2 C -0.0000 0.7500 0.6250
C2_2 C 0.0465(6) 0.7440(7) 0.5922(6)
H2_2 H 0.0496 0.7710 0.5698
H3_2 H 0.0756 0.7421 0.6119
C3_2 C 0.0766(7) 0.6816(6) 0.5388(7)
C4_2 C 0.1215(8) 0.7040(8) 0.5395(10)
H4_2 H 0.1272 0.7317 0.5579
C5_2 C 0.1590(7) 0.6824(9) 0.5103(10)
H5_2 H 0.1888 0.6979 0.5070
C6_2 C 0.1513(8) 0.6414(10) 0.4885(10)
H6_2 H 0.1750 0.6279 0.4686
C7_2 C 0.1080(10) 0.6182(9) 0.4953(10)
H7_2 H 0.1047 0.5879 0.4808
C8_2 C 0.0695(9) 0.6343(7) 0.5206(8)
C9_2 C 0.0207(9) 0.6062(6) 0.5192(7)
Eu7_2 Eu 0.22617(3) 0.77383(3) 0.27383(3)
N3_2 N 0.1183(6) 0.7313(7) 0.7330(9)
N4_2 N 0.0187(7) 0.8683(6) 0.5170(9)
N6_2 N 0.0170(9) 0.5187(7) 0.3683(6)
N7_2 N 0.2330(9) 0.3817(6) 0.2687(7)
N8_2 N 0.0170(9) 0.4813(7) 0.1317(6)
N9_2 N 0.2330(9) 0.6183(6) 0.2313(7)
H13_2 H 0.0870 0.7322 0.7330
H14_2 H 0.0178 0.8370 0.5170
H16_2 H 0.0170 0.5178 0.3370
H17_2 H 0.2330 0.4130 0.2678
H18_2 H 0.0170 0.4822 0.1630
H19_2 H 0.2330 0.5870 0.2322
N14_2 N 0.1275(5) 0.4892(8) 0.5251(8)
N15_2 N 0.0251(8) 0.3725(5) 0.5108(8)
N16_2 N 0.2751(8) 0.7608(8) 0.6225(5)
N17_2 N 0.2608(8) 0.8775(5) 0.7249(8)
N18_2 N 0.3775(5) 0.7751(8) 0.7392(8)
O7_2 O 0.1883(3) 0.7711(5) 0.7337(5)
O10_2 O 0.0163(5) 0.4789(5) 0.4383(3)
O12_2 O 0.0163(5) 0.5211(5) 0.0617(3)
O13_2 O 0.2337(5) 0.6883(3) 0.2711(5)
O18_2 O 0.2711(5) 0.7663(5) 0.8117(3)
O24_2 O 0.0941(9) 0.6108(9) 0.7348(9)
O25_2 O 0.1392(9) 0.8441(9) 0.5152(9)
O27_2 O 0.0152(9) 0.6392(9) 0.3441(9)
O28_2 O 0.2348(9) 0.4059(9) 0.3892(9)
O29_2 O 0.0152(9) 0.3608(9) 0.1559(9)
O30_2 O 0.2348(9) 0.5941(9) 0.1108(9)
O35_2 O 0.0516(5) 0.7881(5) 0.6839(5)
O38_2 O 0.0661(5) 0.4619(5) 0.3016(5)
O39_2 O 0.1839(5) 0.4484(5) 0.2119(5)
O40_2 O 0.0661(5) 0.5381(5) 0.1984(5)
O41_2 O 0.1839(5) 0.5516(5) 0.2881(5)
O46_2 O 0.1053(4) 0.4920(6) 0.4860(6)
O48_2 O 0.2360(6) 0.7580(6) 0.6447(4)
O49_2 O 0.2580(6) 0.8553(4) 0.7640(6)
O50_2 O 0.3553(4) 0.7360(6) 0.7420(6)
O57_2 O 0.1040(5) 0.4869(8) 0.5635(6)
O58_2 O 0.0635(6) 0.3960(5) 0.5131(8)
O59_2 O 0.3135(6) 0.7631(8) 0.6460(5)
O60_2 O 0.2631(8) 0.8540(5) 0.6865(6)
O61_2 O 0.3540(5) 0.8135(6) 0.7369(8)
O68_2 O 0.1732(4) 0.4950(9) 0.5257(7)
O69_2 O 0.0257(7) 0.3268(4) 0.5050(9)
O70_2 O 0.2757(7) 0.7550(9) 0.5768(4)
O71_2 O 0.2550(9) 0.9232(4) 0.7243(7)
O72_2 O 0.4232(4) 0.7757(7) 0.7450(9)
C15_2 C 0.1250 0.5000 0.2500
C17_2 C 0.0060(7) 0.7965(6) 0.6578(6)
C20_2 C 0.0922(6) 0.4535(6) 0.2560(7)
C21_2 C 0.1578(6) 0.4940(7) 0.2035(6)
C22_2 C 0.0922(6) 0.5465(6) 0.2440(7)
C23_2 C 0.1578(6) 0.5060(7) 0.2965(6)
H26_2 H 0.0210 0.7004 0.6802
H27_2 H 0.0698 0.4504 0.2290
H28_2 H 0.1802 0.5210 0.2004
H29_2 H 0.0698 0.5496 0.2710
H30_2 H 0.1802 0.4790 0.2996
H35_2 H 0.0079 0.8256 0.6381
H38_2 H 0.1119 0.4244 0.2579
H39_2 H 0.1381 0.4921 0.1744
H40_2 H 0.1119 0.5756 0.2421
H41_2 H 0.1381 0.5079 0.3256
C28_2 C 0.0684(6) 0.8266(7) 0.7112(7)
C31_2 C 0.0388(7) 0.4234(7) 0.3184(6)
C32_2 C 0.2112(7) 0.4316(6) 0.1734(7)
C33_2 C 0.0388(7) 0.5766(7) 0.1816(6)
C34_2 C 0.2112(7) 0.5684(6) 0.3266(7)
C39_2 C 0.0460(8) 0.8715(8) 0.7105(10)
C42_2 C 0.0395(10) 0.3785(8) 0.2960(8)
C43_2 C 0.2105(10) 0.4540(8) 0.1285(8)
C44_2 C 0.0395(10) 0.6215(8) 0.2040(8)
C45_2 C 0.2105(10) 0.5460(8) 0.3715(8)
H46_2 H 0.0183 0.8772 0.6921
H49_2 H 0.0579 0.3728 0.2683
H50_2 H 0.1921 0.4817 0.1228
H51_2 H 0.0579 0.6272 0.2317
H52_2 H 0.1921 0.5183 0.3772
C50_2 C 0.0676(9) 0.9090(7) 0.7397(10)
C53_2 C 0.0103(10) 0.3410(7) 0.3176(9)
C54_2 C 0.2397(10) 0.4324(9) 0.0910(7)
C55_2 C 0.0103(10) 0.6590(7) 0.1824(9)
C56_2 C 0.2397(10) 0.5676(9) 0.4090(7)
H57_2 H 0.0521 0.9388 0.7430
H60_2 H 0.0070 0.3112 0.3021
H61_2 H 0.2430 0.4479 0.0612
H62_2 H 0.0070 0.6888 0.1979
H63_2 H 0.2430 0.5521 0.4388
C61_2 C 0.1086(10) 0.9013(8) 0.7615(10)
C65_2 C 0.2615(10) 0.3914(10) 0.0987(8)
C67_2 C 0.2615(10) 0.6086(10) 0.4013(8)
H68_2 H 0.1221 0.9250 0.7814
H72_2 H 0.2814 0.3779 0.0750
H74_2 H 0.2814 0.6221 0.4250
C72_2 C 0.1318(9) 0.8580(10) 0.7547(10)
C76_2 C 0.2547(10) 0.3682(9) 0.1420(10)
C78_2 C 0.2547(10) 0.6318(9) 0.3580(10)
H79_2 H 0.1621 0.8547 0.7692
H83_2 H 0.2692 0.3379 0.1453
H85_2 H 0.2692 0.6621 0.3547
C83_2 C 0.1157(7) 0.8195(9) 0.7294(8)
C86_2 C 0.0206(8) 0.4305(9) 0.3657(7)
C87_2 C 0.2294(8) 0.3843(7) 0.1805(9)
C88_2 C 0.0206(8) 0.5695(9) 0.1343(7)
C89_2 C 0.2294(8) 0.6157(7) 0.3195(9)
C94_2 C 0.1438(6) 0.7707(9) 0.7308(7)
C97_2 C 0.0192(7) 0.4793(9) 0.3938(6)
C98_2 C 0.2308(7) 0.3562(6) 0.2293(9)
C99_2 C 0.0192(7) 0.5207(9) 0.1062(6)
C100_2 C 0.2308(7) 0.6438(6) 0.2707(9)
C105_2 C 0.1456(14) 0.6840(11) 0.7353(15)
C106_2 C 0.0660(11) 0.8956(14) 0.5147(15)
C108_2 C 0.0147(15) 0.5660(11) 0.3956(14)
C109_2 C 0.2353(15) 0.3544(14) 0.3160(11)
C110_2 C 0.0147(15) 0.4340(11) 0.1044(14)
C111_2 C 0.2353(15) 0.6456(14) 0.1840(11)
H90_2 H 0.1504 0.6742 0.7689
H91_2 H 0.0758 0.9004 0.4811
H94_2 H 0.2689 0.3496 0.3258
H96_2 H 0.2689 0.6504 0.1742
H101_2 H 0.1771 0.6871 0.7199
H102_2 H 0.0629 0.9271 0.5301
H104_2 H 0.0301 0.5629 0.4271
H105_2 H 0.2199 0.3229 0.3129
H106_2 H 0.0301 0.4371 0.0729
H107_2 H 0.2199 0.6771 0.1871
C116_2 C 0.1180(13) 0.6509(10) 0.7117(11)
C117_2 C 0.0991(10) 0.8680(13) 0.5383(11)
C119_2 C 0.0383(11) 0.5991(10) 0.3680(13)
C120_2 C 0.2117(11) 0.3820(13) 0.3491(10)
C121_2 C 0.0383(11) 0.4009(10) 0.1320(13)
C122_2 C 0.2117(11) 0.6180(13) 0.1509(10)
C127_2 C 0.1088(13) 0.6473(10) 0.6609(10)
C128_2 C 0.1027(10) 0.8588(13) 0.5891(10)
C130_2 C 0.0891(10) 0.6027(10) 0.3588(13)
C131_2 C 0.1609(10) 0.3912(13) 0.3527(10)
C132_2 C 0.0891(10) 0.3973(10) 0.1412(13)
C133_2 C 0.1609(10) 0.6088(13) 0.1473(10)
H112_2 H 0.1183 0.6698 0.6375
H113_2 H 0.0802 0.8683 0.6125
H115_2 H 0.1125 0.5802 0.3683
H116_2 H 0.1375 0.3817 0.3302
H117_2 H 0.1125 0.4198 0.1317
H118_2 H 0.1375 0.6183 0.1698
C138_2 C 0.0826(14) 0.6036(11) 0.6516(10)
C139_2 C 0.1464(11) 0.8326(14) 0.5984(10)
C141_2 C 0.0984(10) 0.6464(11) 0.3326(14)
C142_2 C 0.1516(10) 0.4174(14) 0.3964(11)
C143_2 C 0.0984(10) 0.3536(11) 0.1674(14)
C144_2 C 0.1516(10) 0.5826(14) 0.1036(11)
H123_2 H 0.0743 0.5912 0.6213
H124_2 H 0.1588 0.8243 0.6287
H126_2 H 0.1287 0.6588 0.3243
H127_2 H 0.1213 0.4257 0.4088
H128_2 H 0.1287 0.3412 0.1757
H129_2 H 0.1213 0.5743 0.0912
C149_2 C 0.0714(12) 0.5822(9) 0.6981(12)
C150_2 C 0.1678(9) 0.8214(12) 0.5519(12)
C152_2 C 0.0519(12) 0.6678(9) 0.3214(12)
C153_2 C 0.1981(12) 0.4286(12) 0.4178(9)
C154_2 C 0.0519(12) 0.3322(9) 0.1786(12)
C155_2 C 0.1981(12) 0.5714(12) 0.0822(9)
H134_2 H 0.0527 0.5545 0.7032
H135_2 H 0.1955 0.8027 0.5468
H137_2 H 0.0468 0.6955 0.3027
H138_2 H 0.2032 0.4473 0.4455
H139_2 H 0.0468 0.3045 0.1973
H140_2 H 0.2032 0.5527 0.0545
Eu3_2 Eu 0.97617(3) 0.02383(3) 0.52383(3)
N19_2 N 0.9892(8) 0.0251(8) 0.6275(5)
N20_2 N 0.8725(5) 0.0108(8) 0.5251(8)
N21_2 N 0.9749(8) 0.1275(5) 0.5108(8)
O20_2 O 0.9837(5) 0.0211(5) 0.4383(3)
O52_2 O 0.8947(4) 0.0080(6) 0.4860(6)
O62_2 O 0.9869(8) 0.0635(6) 0.6040(5)
O63_2 O 0.8960(5) 0.0131(8) 0.5635(6)
O64_2 O 0.9365(6) 0.1040(5) 0.5131(8)
O73_2 O 0.9950(9) 0.0257(7) 0.6732(4)
O74_2 O 0.8268(4) 0.0050(9) 0.5257(7)
O75_2 O 0.9743(7) 0.1732(4) 0.5050(9)
N1_2 N 0.9813(7) 0.6317(6) 0.5170(9)
H1_2 H 0.9822 0.6630 0.5170
O2_2 O 0.8608(9) 0.6559(9) 0.5152(9)
C1_3 C 1.0000 0.7500 0.6250
C10_2 C 0.9340(11) 0.6044(14) 0.5147(15)
H8_2 H 0.9242 0.5996 0.4811
H9_2 H 0.9371 0.5729 0.5301
C11_2 C 0.9009(10) 0.6320(13) 0.5383(11)
C12_2 C 0.8973(10) 0.6412(13) 0.5891(10)
H10_2 H 0.9198 0.6317 0.6125
C13_2 C 0.8536(11) 0.6674(14) 0.5984(10)
H11_2 H 0.8412 0.6757 0.6287
C14_2 C 0.8322(9) 0.6786(12) 0.5519(12)
H12_2 H 0.8045 0.6973 0.5468
Eu8_2 Eu 0.72617(3) 0.27383(3) 0.77383(3)
N5_2 N 0.8817(6) 0.7687(7) 0.7330(9)
N10_2 N 0.8683(6) 0.4830(9) 0.4813(7)
N11_2 N 0.7687(7) 0.2670(9) 0.6183(6)
N12_2 N 0.6317(6) 0.4830(9) 0.5187(7)
N13_2 N 0.7313(7) 0.2670(9) 0.3817(6)
H15_2 H 0.9130 0.7678 0.7330
H20_2 H 0.8370 0.4830 0.4822
H21_2 H 0.7678 0.2670 0.5870
H22_2 H 0.6630 0.4830 0.5178
H23_2 H 0.7322 0.2670 0.4130
N22_2 N 0.7249(8) 0.7392(8) 0.6225(5)
N23_2 N 0.7392(8) 0.6225(5) 0.7249(8)
N24_2 N 0.6225(5) 0.7249(8) 0.7392(8)
O8_2 O 0.9789(5) 0.9383(3) 0.5163(5)
O9_2 O 0.8117(3) 0.7289(5) 0.7337(5)
O14_2 O 0.9383(3) 0.4837(5) 0.5211(5)
O15_2 O 0.7289(5) 0.2663(5) 0.6883(3)
O16_2 O 0.5617(3) 0.4837(5) 0.4789(5)
O23_2 O 0.7337(5) 0.8117(3) 0.7289(5)
O26_2 O 0.9059(9) 0.8892(9) 0.7348(9)
O31_2 O 0.8441(9) 0.4848(9) 0.3608(9)
O32_2 O 0.8892(9) 0.2652(9) 0.5941(9)
O33_2 O 0.6559(9) 0.4848(9) 0.6392(9)
O34_2 O 0.6108(9) 0.2652(9) 0.4059(9)
O36_2 O 0.9619(5) 0.8016(5) 0.5661(5)
O37_2 O 0.9484(5) 0.7119(5) 0.6839(5)
O42_2 O 0.8016(5) 0.4339(5) 0.5381(5)
O43_2 O 0.7119(5) 0.3161(5) 0.5516(5)
O44_2 O 0.6984(5) 0.4339(5) 0.4619(5)
O45_2 O 0.7881(5) 0.3161(5) 0.4484(5)
O47_2 O 0.9860(6) 0.3947(4) 0.5080(6)
O51_2 O 0.9920(6) 0.9860(6) 0.6053(4)
O54_2 O 0.7640(6) 0.7420(6) 0.6447(4)
O55_2 O 0.7420(6) 0.6447(4) 0.7640(6)
O56_2 O 0.6447(4) 0.7640(6) 0.7420(6)
O65_2 O 0.6865(6) 0.7369(8) 0.6460(5)
O66_2 O 0.7369(8) 0.6460(5) 0.6865(6)
O67_2 O 0.6460(5) 0.6865(6) 0.7369(8)
O76_2 O 0.7243(7) 0.7450(9) 0.5768(4)
O77_2 O 0.7450(9) 0.5768(4) 0.7243(7)
O78_2 O 0.5768(4) 0.7243(7) 0.7450(9)
C16_3 C 0.7500 0.3750 0.5000
C18_2 C 0.9535(6) 0.7560(7) 0.5922(6)
C19_2 C 0.9940(7) 0.7035(6) 0.6578(6)
C24_2 C 0.7560(7) 0.4078(6) 0.5465(6)
C25_2 C 0.7035(6) 0.3422(6) 0.5060(7)
C26_2 C 0.7440(7) 0.4078(6) 0.4535(6)
C27_2 C 0.7965(6) 0.3422(6) 0.4940(7)
H24_2 H 0.9790 0.7996 0.6802
H25_2 H 0.9504 0.7290 0.5698
H31_2 H 0.7290 0.4302 0.5496
H32_2 H 0.7004 0.3198 0.4790
H33_2 H 0.7710 0.4302 0.4504
H34_2 H 0.7996 0.3198 0.5210
H36_2 H 0.9244 0.7579 0.6119
H37_2 H 0.9921 0.6744 0.6381
H42_2 H 0.7579 0.3881 0.5756
H43_2 H 0.6744 0.3619 0.5079
H44_2 H 0.7421 0.3881 0.4244
H45_2 H 0.8256 0.3619 0.4921
C29_2 C 0.9234(7) 0.8184(6) 0.5388(7)
C30_2 C 0.9316(6) 0.6734(7) 0.7112(7)
C35_2 C 0.8184(6) 0.4612(7) 0.5766(7)
C36_2 C 0.6734(7) 0.2888(7) 0.5684(6)
C37_2 C 0.6816(6) 0.4612(7) 0.4234(7)
C38_2 C 0.8266(7) 0.2888(7) 0.4316(6)
C40_2 C 0.8785(8) 0.7960(8) 0.5395(10)
C41_2 C 0.9540(8) 0.6285(8) 0.7105(10)
C46_2 C 0.7960(8) 0.4605(10) 0.6215(8)
C47_2 C 0.6285(8) 0.2895(10) 0.5460(8)
C48_2 C 0.7040(8) 0.4605(10) 0.3785(8)
C49_2 C 0.8715(8) 0.2895(10) 0.4540(8)
H47_2 H 0.8728 0.7683 0.5579
H48_2 H 0.9817 0.6228 0.6921
H53_2 H 0.7683 0.4421 0.6272
H54_2 H 0.6228 0.3079 0.5183
H55_2 H 0.7317 0.4421 0.3728
H56_2 H 0.8772 0.3079 0.4817
C51_2 C 0.8410(7) 0.8176(9) 0.5103(10)
C52_2 C 0.9324(9) 0.5910(7) 0.7397(10)
C57_2 C 0.8176(9) 0.4897(10) 0.6590(7)
C58_2 C 0.5910(7) 0.2603(10) 0.5676(9)
C59_2 C 0.6824(9) 0.4897(10) 0.3410(7)
C60_2 C 0.9090(7) 0.2603(10) 0.4324(9)
H58_2 H 0.8112 0.8021 0.5070
H59_2 H 0.9479 0.5612 0.7430
H64_2 H 0.8021 0.4930 0.6888
H65_2 H 0.5612 0.2570 0.5521
H66_2 H 0.6979 0.4930 0.3112
H67_2 H 0.9388 0.2570 0.4479
C62_2 C 0.8487(8) 0.8586(10) 0.4885(10)
C63_2 C 0.8914(10) 0.5987(8) 0.7615(10)
C64_2 C 0.9885(10) 0.3487(8) 0.3586(10)
C66_2 C 0.9885(10) 0.6513(8) 0.1414(10)
C68_2 C 0.8586(10) 0.5115(10) 0.6513(8)
C69_2 C 0.5987(8) 0.2385(10) 0.6086(10)
C70_2 C 0.6414(10) 0.5115(10) 0.3487(8)
C71_2 C 0.9013(8) 0.2385(10) 0.3914(10)
H69_2 H 0.8250 0.8721 0.4686
H70_2 H 0.8779 0.5750 0.7814
H71_2 H 0.9686 0.3250 0.3721
H73_2 H 0.9686 0.6750 0.1279
H75_2 H 0.8721 0.5314 0.6750
H76_2 H 0.5750 0.2186 0.6221
H77_2 H 0.6279 0.5314 0.3250
H78_2 H 0.9250 0.2186 0.3779
C73_2 C 0.8920(10) 0.8818(9) 0.4953(10)
C74_2 C 0.8682(9) 0.6420(10) 0.7547(10)
C75_2 C 0.9953(10) 0.3920(10) 0.3818(9)
C77_2 C 0.9953(10) 0.6080(10) 0.1182(9)
C79_2 C 0.8818(9) 0.5047(10) 0.6080(10)
C80_2 C 0.6420(10) 0.2453(10) 0.6318(9)
C81_2 C 0.6182(9) 0.5047(10) 0.3920(10)
C82_2 C 0.8580(10) 0.2453(10) 0.3682(9)
H80_2 H 0.8953 0.9121 0.4808
H81_2 H 0.8379 0.6453 0.7692
H82_2 H 0.9808 0.3953 0.4121
H84_2 H 0.9808 0.6047 0.0879
H86_2 H 0.9121 0.5192 0.6047
H87_2 H 0.6453 0.2308 0.6621
H88_2 H 0.5879 0.5192 0.3953
H89_2 H 0.8547 0.2308 0.3379
C84_2 C 0.9305(9) 0.8657(7) 0.5206(8)
C85_2 C 0.8843(7) 0.6805(9) 0.7294(8)
C90_2 C 0.8657(7) 0.4794(8) 0.5695(9)
C91_2 C 0.6805(9) 0.2706(8) 0.6157(7)
C92_2 C 0.6343(7) 0.4794(8) 0.4305(9)
C93_2 C 0.8195(9) 0.2706(8) 0.3843(7)
C95_2 C 0.9793(9) 0.8938(6) 0.5192(7)
C96_2 C 0.8562(6) 0.7293(9) 0.7308(7)
C101_2 C 0.8938(6) 0.4808(7) 0.5207(9)
C102_2 C 0.7293(9) 0.2692(7) 0.6438(6)
C103_2 C 0.6062(6) 0.4808(7) 0.4793(9)
C104_2 C 0.7707(9) 0.2692(7) 0.3562(6)
C107_2 C 0.8544(14) 0.8160(11) 0.7353(15)
C112_2 C 0.8956(14) 0.4853(15) 0.4340(11)
C113_2 C 0.8160(11) 0.2647(15) 0.6456(14)
C114_2 C 0.6044(14) 0.4853(15) 0.5660(11)
C115_2 C 0.6840(11) 0.2647(15) 0.3544(14)
H92_2 H 0.8496 0.8258 0.7689
H93_2 H 0.9811 0.5758 0.4004
H95_2 H 0.9811 0.4242 0.0996
H97_2 H 0.9004 0.5189 0.4242
H98_2 H 0.8258 0.2311 0.6504
H99_2 H 0.5996 0.5189 0.5758
H100_2 H 0.6742 0.2311 0.3496
H103_2 H 0.8229 0.8129 0.7199
H108_2 H 0.9271 0.4699 0.4371
H109_2 H 0.8129 0.2801 0.6771
H110_2 H 0.5729 0.4699 0.5629
H111_2 H 0.6871 0.2801 0.3229
C118_2 C 0.8820(13) 0.8491(10) 0.7117(11)
C123_2 C 0.8680(13) 0.4617(11) 0.4009(10)
C124_2 C 0.8491(10) 0.2883(11) 0.6180(13)
C125_2 C 0.6320(13) 0.4617(11) 0.5991(10)
C126_2 C 0.6509(10) 0.2883(11) 0.3820(13)
C129_2 C 0.8912(13) 0.8527(10) 0.6609(10)
C134_2 C 0.8588(13) 0.4109(10) 0.3973(10)
C135_2 C 0.8527(10) 0.3391(10) 0.6088(13)
C136_2 C 0.6412(13) 0.4109(10) 0.6027(10)
C137_2 C 0.6473(10) 0.3391(10) 0.3912(13)
H114_2 H 0.8817 0.8302 0.6375
H119_2 H 0.8683 0.3875 0.4198
H120_2 H 0.8302 0.3625 0.6183
H121_2 H 0.6317 0.3875 0.5802
H122_2 H 0.6698 0.3625 0.3817
C140_2 C 0.9174(14) 0.8964(11) 0.6516(10)
C145_2 C 0.8326(14) 0.4016(10) 0.3536(11)
C146_2 C 0.8964(11) 0.3484(10) 0.5826(14)
C147_2 C 0.6674(14) 0.4016(10) 0.6464(11)
C148_2 C 0.6036(11) 0.3484(10) 0.4174(14)
H125_2 H 0.9257 0.9088 0.6213
H130_2 H 0.8243 0.3713 0.3412
H131_2 H 0.9088 0.3787 0.5743
H132_2 H 0.6757 0.3713 0.6588
H133_2 H 0.5912 0.3787 0.4257
C151_2 C 0.9286(12) 0.9178(9) 0.6981(12)
C156_2 C 0.8214(12) 0.4481(12) 0.3322(9)
C157_2 C 0.9178(9) 0.3019(12) 0.5714(12)
C158_2 C 0.6786(12) 0.4481(12) 0.6678(9)
C159_2 C 0.5822(9) 0.3019(12) 0.4286(12)
H136_2 H 0.9473 0.9455 0.7032
H141_2 H 0.8027 0.4532 0.3045
H142_2 H 0.9455 0.2968 0.5527
H143_2 H 0.6973 0.4532 0.6955
H144_2 H 0.5545 0.2968 0.4473
Eu1_3 Eu 0.52383(3) 0.02383(3) 0.47617(3)
N2_3 N 0.5108(8) 0.0251(8) 0.3725(5)
O5_3 O 0.5131(8) 0.0635(6) 0.3960(5)
O6_3 O 0.5050(9) 0.0257(7) 0.3268(4)
N7_3 N 0.7330(9) 0.1183(6) 0.7313(7)
N8_3 N 0.5170(9) 0.0187(7) 0.8683(6)
N10_3 N 0.3683(6) 0.0170(9) 0.5187(7)
N11_3 N 0.2687(7) 0.2330(9) 0.3817(6)
N12_3 N 0.1317(6) 0.0170(9) 0.4813(7)
N13_3 N 0.2313(7) 0.2330(9) 0.6183(6)
H17_3 H 0.7330 0.0870 0.7322
H18_3 H 0.5170 0.0178 0.8370
H20_3 H 0.3370 0.0170 0.5178
H21_3 H 0.2678 0.2330 0.4130
H22_3 H 0.1630 0.0170 0.4822
H23_3 H 0.2322 0.2330 0.5870
N14_3 N 0.6275(5) 0.0108(8) 0.4749(8)
N15_3 N 0.5251(8) 0.1275(5) 0.4892(8)
O10_3 O 0.5163(5) 0.0211(5) 0.5617(3)
O11_2 O 0.7337(5) 0.1883(3) 0.7711(5)
O14_3 O 0.4383(3) 0.0163(5) 0.4789(5)
O17_2 O 0.2711(5) 0.2337(5) 0.6883(3)
O28_3 O 0.7348(9) 0.0941(9) 0.6108(9)
O29_3 O 0.5152(9) 0.1392(9) 0.8441(9)
O31_3 O 0.3441(9) 0.0152(9) 0.6392(9)
O32_3 O 0.3892(9) 0.2348(9) 0.4059(9)
O33_3 O 0.1559(9) 0.0152(9) 0.3608(9)
O34_3 O 0.1108(9) 0.2348(9) 0.5941(9)
O38_3 O 0.5661(5) 0.0381(5) 0.6984(5)
O39_3 O 0.6839(5) 0.0516(5) 0.7881(5)
O42_3 O 0.3016(5) 0.0661(5) 0.4619(5)
O43_3 O 0.2119(5) 0.1839(5) 0.4484(5)
O44_3 O 0.1984(5) 0.0661(5) 0.5381(5)
O45_3 O 0.2881(5) 0.1839(5) 0.5516(5)
O46_3 O 0.6053(4) 0.0080(6) 0.5140(6)
O47_3 O 0.4860(6) 0.1053(4) 0.4920(6)
O57_3 O 0.6040(5) 0.0131(8) 0.4365(6)
O58_3 O 0.5635(6) 0.1040(5) 0.4869(8)
O68_3 O 0.6732(4) 0.0050(9) 0.4743(7)
O69_3 O 0.5257(7) 0.1732(4) 0.4950(9)
C15_3 C 0.6250 0.0000 0.7500
C16_4 C 0.2500 0.1250 0.5000
C20_3 C 0.5922(6) 0.0465(6) 0.7440(7)
C21_3 C 0.6578(6) 0.0060(7) 0.7965(6)
C24_3 C 0.2560(7) 0.0922(6) 0.4535(6)
C25_3 C 0.2035(6) 0.1578(6) 0.4940(7)
C26_3 C 0.2440(7) 0.0922(6) 0.5465(6)
C27_3 C 0.2965(6) 0.1578(6) 0.5060(7)
H27_3 H 0.5698 0.0496 0.7710
H30_3 H 0.6802 0.0210 0.7004
H31_3 H 0.2290 0.0698 0.4504
H32_3 H 0.2004 0.1802 0.5210
H33_3 H 0.2710 0.0698 0.5496
H34_3 H 0.2996 0.1802 0.4790
H38_3 H 0.6119 0.0756 0.7421
H39_3 H 0.6381 0.0079 0.8256
H42_3 H 0.2579 0.1119 0.4244
H43_3 H 0.1744 0.1381 0.4921
H44_3 H 0.2421 0.1119 0.5756
H45_3 H 0.3256 0.1381 0.5079
C31_3 C 0.5388(7) 0.0766(7) 0.6816(6)
C32_3 C 0.7112(7) 0.0684(6) 0.8266(7)
C35_3 C 0.3184(6) 0.0388(7) 0.4234(7)
C36_3 C 0.1734(7) 0.2112(7) 0.4316(6)
C37_3 C 0.1816(6) 0.0388(7) 0.5766(7)
C38_3 C 0.3266(7) 0.2112(7) 0.5684(6)
C42_3 C 0.5395(10) 0.1215(8) 0.7040(8)
C43_3 C 0.7105(10) 0.0460(8) 0.8715(8)
C46_3 C 0.2960(8) 0.0395(10) 0.3785(8)
C47_3 C 0.1285(8) 0.2105(10) 0.4540(8)
C48_3 C 0.2040(8) 0.0395(10) 0.6215(8)
C49_3 C 0.3715(8) 0.2105(10) 0.5460(8)
H49_3 H 0.5579 0.1272 0.7317
H50_3 H 0.6921 0.0183 0.8772
H53_3 H 0.2683 0.0579 0.3728
H54_3 H 0.1228 0.1921 0.4817
H55_3 H 0.2317 0.0579 0.6272
H56_3 H 0.3772 0.1921 0.5183
C53_3 C 0.5103(10) 0.1590(7) 0.6824(9)
C54_3 C 0.7397(10) 0.0676(9) 0.9090(7)
C57_3 C 0.3176(9) 0.0103(10) 0.3410(7)
C58_3 C 0.0910(7) 0.2397(10) 0.4324(9)
C59_3 C 0.1824(9) 0.0103(10) 0.6590(7)
C60_3 C 0.4090(7) 0.2397(10) 0.5676(9)
H60_3 H 0.5070 0.1888 0.6979
H61_3 H 0.7430 0.0521 0.9388
H64_3 H 0.3021 0.0070 0.3112
H65_3 H 0.0612 0.2430 0.4479
H66_3 H 0.1979 0.0070 0.6888
H67_3 H 0.4388 0.2430 0.5521
C64_3 C 0.4885(10) 0.1513(8) 0.6414(10)
C65_3 C 0.7615(10) 0.1086(10) 0.9013(8)
C69_3 C 0.0987(8) 0.2615(10) 0.3914(10)
C71_3 C 0.4013(8) 0.2615(10) 0.6086(10)
H71_3 H 0.4686 0.1750 0.6279
H72_3 H 0.7814 0.1221 0.9250
H76_3 H 0.0750 0.2814 0.3779
H78_3 H 0.4250 0.2814 0.6221
C75_3 C 0.4953(10) 0.1080(10) 0.6182(9)
C76_3 C 0.7547(10) 0.1318(9) 0.8580(10)
C80_3 C 0.1420(10) 0.2547(10) 0.3682(9)
C82_3 C 0.3580(10) 0.2547(10) 0.6318(9)
H82_3 H 0.4808 0.1047 0.5879
H83_3 H 0.7692 0.1621 0.8547
H87_3 H 0.1453 0.2692 0.3379
H89_3 H 0.3547 0.2692 0.6621
C86_3 C 0.5206(8) 0.0695(9) 0.6343(7)
C87_3 C 0.7294(8) 0.1157(7) 0.8195(9)
C90_3 C 0.3657(7) 0.0206(8) 0.4305(9)
C91_3 C 0.1805(9) 0.2294(8) 0.3843(7)
C92_3 C 0.1343(7) 0.0206(8) 0.5695(9)
C93_3 C 0.3195(9) 0.2294(8) 0.6157(7)
C97_3 C 0.5192(7) 0.0207(9) 0.6062(6)
C98_3 C 0.7308(7) 0.1438(6) 0.7707(9)
C101_3 C 0.3938(6) 0.0192(7) 0.4793(9)
C102_3 C 0.2293(9) 0.2308(7) 0.3562(6)
C103_3 C 0.1062(6) 0.0192(7) 0.5207(9)
C104_3 C 0.2707(9) 0.2308(7) 0.6438(6)
C109_3 C 0.7353(15) 0.1456(14) 0.6840(11)
C110_3 C 0.5147(15) 0.0660(11) 0.8956(14)
C112_3 C 0.3956(14) 0.0147(15) 0.5660(11)
C113_3 C 0.3160(11) 0.2353(15) 0.3544(14)
C114_3 C 0.1044(14) 0.0147(15) 0.4340(11)
C115_3 C 0.1840(11) 0.2353(15) 0.6456(14)
H94_3 H 0.7689 0.1504 0.6742
H95_3 H 0.4811 0.0758 0.9004
H98_3 H 0.3258 0.2689 0.3496
H100_3 H 0.1742 0.2689 0.6504
H105_3 H 0.7199 0.1771 0.6871
H106_3 H 0.5301 0.0629 0.9271
H108_3 H 0.4271 0.0301 0.5629
H109_3 H 0.3129 0.2199 0.3229
H110_3 H 0.0729 0.0301 0.4371
H111_3 H 0.1871 0.2199 0.6771
C120_3 C 0.7117(11) 0.1180(13) 0.6509(10)
C121_3 C 0.5383(11) 0.0991(10) 0.8680(13)
C123_3 C 0.3680(13) 0.0383(11) 0.5991(10)
C124_3 C 0.3491(10) 0.2117(11) 0.3820(13)
C125_3 C 0.1320(13) 0.0383(11) 0.4009(10)
C126_3 C 0.1509(10) 0.2117(11) 0.6180(13)
C131_3 C 0.6609(10) 0.1088(13) 0.6473(10)
C132_3 C 0.5891(10) 0.1027(10) 0.8588(13)
C134_3 C 0.3588(13) 0.0891(10) 0.6027(10)
C135_3 C 0.3527(10) 0.1609(10) 0.3912(13)
C136_3 C 0.1412(13) 0.0891(10) 0.3973(10)
C137_3 C 0.1473(10) 0.1609(10) 0.6088(13)
H116_3 H 0.6375 0.1183 0.6698
H117_3 H 0.6125 0.0802 0.8683
H119_3 H 0.3683 0.1125 0.5802
H120_3 H 0.3302 0.1375 0.3817
H121_3 H 0.1317 0.1125 0.4198
H122_3 H 0.1698 0.1375 0.6183
C142_3 C 0.6516(10) 0.0826(14) 0.6036(11)
C143_3 C 0.5984(10) 0.1464(11) 0.8326(14)
C145_3 C 0.3326(14) 0.0984(10) 0.6464(11)
C146_3 C 0.3964(11) 0.1516(10) 0.4174(14)
C147_3 C 0.1674(14) 0.0984(10) 0.3536(11)
C148_3 C 0.1036(11) 0.1516(10) 0.5826(14)
H127_3 H 0.6213 0.0743 0.5912
H128_3 H 0.6287 0.1588 0.8243
H130_3 H 0.3243 0.1287 0.6588
H131_3 H 0.4088 0.1213 0.4257
H132_3 H 0.1757 0.1287 0.3412
H133_3 H 0.0912 0.1213 0.5743
C153_3 C 0.6981(12) 0.0714(12) 0.5822(9)
C154_3 C 0.5519(12) 0.1678(9) 0.8214(12)
C156_3 C 0.3214(12) 0.0519(12) 0.6678(9)
C157_3 C 0.4178(9) 0.1981(12) 0.4286(12)
C158_3 C 0.1786(12) 0.0519(12) 0.3322(9)
C159_3 C 0.0822(9) 0.1981(12) 0.5714(12)
H138_3 H 0.7032 0.0527 0.5545
H139_3 H 0.5468 0.1955 0.8027
H141_3 H 0.3027 0.0468 0.6955
H142_3 H 0.4455 0.2032 0.4473
H143_3 H 0.1973 0.0468 0.3045
H144_3 H 0.0545 0.2032 0.5527
N1_3 N 0.4813(7) 0.8683(6) 0.4830(9)
H1_3 H 0.4822 0.8370 0.4830
O1_3 O 0.5211(5) 0.9383(3) 0.4837(5)
O2_3 O 0.3608(9) 0.8441(9) 0.4848(9)
O3_3 O 0.5381(5) 0.8016(5) 0.4339(5)
O4_3 O 0.5080(6) 0.9860(6) 0.3947(4)
C1_4 C 0.5000 0.7500 0.3750
C2_3 C 0.5465(6) 0.7560(7) 0.4078(6)
H2_3 H 0.5496 0.7290 0.4302
H3_3 H 0.5756 0.7579 0.3881
C3_3 C 0.5766(7) 0.8184(6) 0.4612(7)
C4_3 C 0.6215(8) 0.7960(8) 0.4605(10)
H4_3 H 0.6272 0.7683 0.4421
C5_3 C 0.6590(7) 0.8176(9) 0.4897(10)
H5_3 H 0.6888 0.8021 0.4930
C6_3 C 0.6513(8) 0.8586(10) 0.5115(10)
H6_3 H 0.6750 0.8721 0.5314
C7_3 C 0.6080(10) 0.8818(9) 0.5047(10)
H7_3 H 0.6047 0.9121 0.5192
C8_3 C 0.5695(9) 0.8657(7) 0.4794(8)
C9_3 C 0.5207(9) 0.8938(6) 0.4808(7)
C10_3 C 0.4340(11) 0.8956(14) 0.4853(15)
H8_3 H 0.4242 0.9004 0.5189
H9_3 H 0.4371 0.9271 0.4699
C11_3 C 0.4009(10) 0.8680(13) 0.4617(11)
C12_3 C 0.3973(10) 0.8588(13) 0.4109(10)
H10_3 H 0.4198 0.8683 0.3875
C13_3 C 0.3536(11) 0.8326(14) 0.4016(10)
H11_3 H 0.3412 0.8243 0.3713
C14_3 C 0.3322(9) 0.8214(12) 0.4481(12)
H12_3 H 0.3045 0.8027 0.4532
N3_3 N 0.6183(6) 0.7687(7) 0.2670(9)
N4_3 N 0.5187(7) 0.6317(6) 0.4830(9)
N5_3 N 0.3817(6) 0.7313(7) 0.2670(9)
N6_3 N 0.5170(9) 0.9813(7) 0.6317(6)
N9_3 N 0.7330(9) 0.8817(6) 0.7687(7)
H13_3 H 0.5870 0.7678 0.2670
H14_3 H 0.5178 0.6630 0.4830
H15_3 H 0.4130 0.7322 0.2670
H16_3 H 0.5170 0.9822 0.6630
H19_3 H 0.7330 0.9130 0.7678
N16_3 N 0.7751(8) 0.7392(8) 0.3775(5)
N17_3 N 0.7608(8) 0.6225(5) 0.2751(8)
N18_3 N 0.8775(5) 0.7249(8) 0.2608(8)
N19_3 N 0.4892(8) 0.4749(8) 0.3725(5)
N20_3 N 0.3725(5) 0.4892(8) 0.4749(8)
N21_3 N 0.4749(8) 0.3725(5) 0.4892(8)
N22_3 N 0.2249(8) 0.7608(8) 0.3775(5)
N23_3 N 0.2392(8) 0.8775(5) 0.2751(8)
N24_3 N 0.1225(5) 0.7751(8) 0.2608(8)
O7_3 O 0.6883(3) 0.7289(5) 0.2663(5)
O8_3 O 0.4789(5) 0.5617(3) 0.4837(5)
O9_3 O 0.3117(3) 0.7711(5) 0.2663(5)
O19_2 O 0.7663(5) 0.8117(3) 0.2711(5)
O22_2 O 0.2289(5) 0.7663(5) 0.1883(3)
O24_3 O 0.5941(9) 0.8892(9) 0.2652(9)
O25_3 O 0.6392(9) 0.6559(9) 0.4848(9)
O26_3 O 0.4059(9) 0.6108(9) 0.2652(9)
O27_3 O 0.5152(9) 0.8608(9) 0.6559(9)
O30_3 O 0.7348(9) 0.9059(9) 0.8892(9)
O35_3 O 0.5516(5) 0.7119(5) 0.3161(5)
O36_3 O 0.4619(5) 0.6984(5) 0.4339(5)
O37_3 O 0.4484(5) 0.7881(5) 0.3161(5)
O40_3 O 0.5661(5) 0.9619(5) 0.8016(5)
O41_3 O 0.6839(5) 0.9484(5) 0.7119(5)
O48_3 O 0.7360(6) 0.7420(6) 0.3553(4)
O49_3 O 0.7580(6) 0.6447(4) 0.2360(6)
O50_3 O 0.8553(4) 0.7640(6) 0.2580(6)
O51_3 O 0.4920(6) 0.5140(6) 0.3947(4)
O52_3 O 0.3947(4) 0.4920(6) 0.5140(6)
O53_3 O 0.5140(6) 0.3947(4) 0.4920(6)
O54_3 O 0.2640(6) 0.7580(6) 0.3553(4)
O55_3 O 0.2420(6) 0.8553(4) 0.2360(6)
O56_3 O 0.1447(4) 0.7360(6) 0.2580(6)
O59_3 O 0.8135(6) 0.7369(8) 0.3540(5)
O60_3 O 0.7631(8) 0.6460(5) 0.3135(6)
O61_3 O 0.8540(5) 0.6865(6) 0.2631(8)
O62_3 O 0.4869(8) 0.4365(6) 0.3960(5)
O63_3 O 0.3960(5) 0.4869(8) 0.4365(6)
O64_3 O 0.4365(6) 0.3960(5) 0.4869(8)
O65_3 O 0.1865(6) 0.7631(8) 0.3540(5)
O66_3 O 0.2369(8) 0.8540(5) 0.3135(6)
O67_3 O 0.1460(5) 0.8135(6) 0.2631(8)
O70_3 O 0.7757(7) 0.7450(9) 0.4232(4)
O71_3 O 0.7550(9) 0.5768(4) 0.2757(7)
O72_3 O 0.9232(4) 0.7243(7) 0.2550(9)
O73_3 O 0.4950(9) 0.4743(7) 0.3268(4)
O74_3 O 0.3268(4) 0.4950(9) 0.4743(7)
O75_3 O 0.4743(7) 0.3268(4) 0.4950(9)
O76_3 O 0.2243(7) 0.7550(9) 0.4232(4)
O77_3 O 0.2450(9) 0.9232(4) 0.2757(7)
O78_3 O 0.0768(4) 0.7757(7) 0.2550(9)
C15_4 C 0.6250 1.0000 0.7500
C17_3 C 0.5060(7) 0.7035(6) 0.3422(6)
C18_3 C 0.4535(6) 0.7440(7) 0.4078(6)
C19_3 C 0.4940(7) 0.7965(6) 0.3422(6)
C22_3 C 0.5922(6) 0.9535(6) 0.7560(7)
C23_3 C 0.6578(6) 0.9940(7) 0.7035(6)
H24_3 H 0.4790 0.7004 0.3198
H25_3 H 0.4504 0.7710 0.4302
H26_3 H 0.5210 0.7996 0.3198
H28_3 H 0.6802 0.9790 0.7996
H29_3 H 0.5698 0.9504 0.7290
H35_3 H 0.5079 0.6744 0.3619
H36_3 H 0.4244 0.7421 0.3881
H37_3 H 0.4921 0.8256 0.3619
H40_3 H 0.6119 0.9244 0.7579
H41_3 H 0.6381 0.9921 0.6744
C28_3 C 0.5684(6) 0.6734(7) 0.2888(7)
C29_3 C 0.4234(7) 0.6816(6) 0.4612(7)
C30_3 C 0.4316(6) 0.8266(7) 0.2888(7)
C33_3 C 0.5388(7) 0.9234(7) 0.8184(6)
C34_3 C 0.7112(7) 0.9316(6) 0.6734(7)
C39_3 C 0.5460(8) 0.6285(8) 0.2895(10)
C40_3 C 0.3785(8) 0.7040(8) 0.4605(10)
C41_3 C 0.4540(8) 0.8715(8) 0.2895(10)
C44_3 C 0.5395(10) 0.8785(8) 0.7960(8)
C45_3 C 0.7105(10) 0.9540(8) 0.6285(8)
H46_3 H 0.5183 0.6228 0.3079
H47_3 H 0.3728 0.7317 0.4421
H48_3 H 0.4817 0.8772 0.3079
H51_3 H 0.5579 0.8728 0.7683
H52_3 H 0.6921 0.9817 0.6228
C50_3 C 0.5676(9) 0.5910(7) 0.2603(10)
C51_3 C 0.3410(7) 0.6824(9) 0.4897(10)
C52_3 C 0.4324(9) 0.9090(7) 0.2603(10)
C55_3 C 0.5103(10) 0.8410(7) 0.8176(9)
C56_3 C 0.7397(10) 0.9324(9) 0.5910(7)
H57_3 H 0.5521 0.5612 0.2570
H58_3 H 0.3112 0.6979 0.4930
H59_3 H 0.4479 0.9388 0.2570
H62_3 H 0.5070 0.8112 0.8021
H63_3 H 0.7430 0.9479 0.5612
C61_3 C 0.6086(10) 0.5987(8) 0.2385(10)
C62_3 C 0.3487(8) 0.6414(10) 0.5115(10)
C63_3 C 0.3914(10) 0.9013(8) 0.2385(10)
C66_3 C 0.4885(10) 0.8487(8) 0.8586(10)
C67_3 C 0.7615(10) 0.8914(10) 0.5987(8)
C68_3 C 0.3586(10) 0.9885(10) 0.3487(8)
C70_3 C 0.1414(10) 0.9885(10) 0.6513(8)
H68_3 H 0.6221 0.5750 0.2186
H69_3 H 0.3250 0.6279 0.5314
H70_3 H 0.3779 0.9250 0.2186
H73_3 H 0.4686 0.8250 0.8721
H74_3 H 0.7814 0.8779 0.5750
H75_3 H 0.3721 0.9686 0.3250
H77_3 H 0.1279 0.9686 0.6750
C72_3 C 0.6318(9) 0.6420(10) 0.2453(10)
C73_3 C 0.3920(10) 0.6182(9) 0.5047(10)
C74_3 C 0.3682(9) 0.8580(10) 0.2453(10)
C77_3 C 0.4953(10) 0.8920(10) 0.8818(9)
C78_3 C 0.7547(10) 0.8682(9) 0.6420(10)
C79_3 C 0.3818(9) 0.9953(10) 0.3920(10)
C81_3 C 0.1182(9) 0.9953(10) 0.6080(10)
H79_3 H 0.6621 0.6453 0.2308
H80_3 H 0.3953 0.5879 0.5192
H81_3 H 0.3379 0.8547 0.2308
H84_3 H 0.4808 0.8953 0.9121
H85_3 H 0.7692 0.8379 0.6453
H86_3 H 0.4121 0.9808 0.3953
H88_3 H 0.0879 0.9808 0.6047
C83_3 C 0.6157(7) 0.6805(9) 0.2706(8)
C84_3 C 0.4305(9) 0.6343(7) 0.4794(8)
C85_3 C 0.3843(7) 0.8195(9) 0.2706(8)
C88_3 C 0.5206(8) 0.9305(9) 0.8657(7)
C89_3 C 0.7294(8) 0.8843(7) 0.6805(9)
C94_3 C 0.6438(6) 0.7293(9) 0.2692(7)
C95_3 C 0.4793(9) 0.6062(6) 0.4808(7)
C96_3 C 0.3562(6) 0.7707(9) 0.2692(7)
C99_3 C 0.5192(7) 0.9793(9) 0.8938(6)
C100_3 C 0.7308(7) 0.8562(6) 0.7293(9)
C105_3 C 0.6456(14) 0.8160(11) 0.2647(15)
C106_3 C 0.5660(11) 0.6044(14) 0.4853(15)
C107_3 C 0.3544(14) 0.6840(11) 0.2647(15)
C108_3 C 0.5147(15) 0.9340(11) 0.6044(14)
C111_3 C 0.7353(15) 0.8544(14) 0.8160(11)
H90_3 H 0.6504 0.8258 0.2311
H91_3 H 0.5758 0.5996 0.5189
H92_3 H 0.3496 0.6742 0.2311
H93_3 H 0.4811 0.9242 0.5996
H96_3 H 0.7689 0.8496 0.8258
H97_3 H 0.4004 0.9811 0.5758
H99_3 H 0.0996 0.9811 0.4242
H101_3 H 0.6771 0.8129 0.2801
H102_3 H 0.5629 0.5729 0.4699
H103_3 H 0.3229 0.6871 0.2801
H104_3 H 0.5301 0.9371 0.5729
H107_3 H 0.7199 0.8229 0.8129
C116_3 C 0.6180(13) 0.8491(10) 0.2883(11)
C117_3 C 0.5991(10) 0.6320(13) 0.4617(11)
C118_3 C 0.3820(13) 0.6509(10) 0.2883(11)
C119_3 C 0.5383(11) 0.9009(10) 0.6320(13)
C122_3 C 0.7117(11) 0.8820(13) 0.8491(10)
C127_3 C 0.6088(13) 0.8527(10) 0.3391(10)
C128_3 C 0.6027(10) 0.6412(13) 0.4109(10)
C129_3 C 0.3912(13) 0.6473(10) 0.3391(10)
C130_3 C 0.5891(10) 0.8973(10) 0.6412(13)
C133_3 C 0.6609(10) 0.8912(13) 0.8527(10)
H112_3 H 0.6183 0.8302 0.3625
H113_3 H 0.5802 0.6317 0.3875
H114_3 H 0.3817 0.6698 0.3625
H115_3 H 0.6125 0.9198 0.6317
H118_3 H 0.6375 0.8817 0.8302
C138_3 C 0.5826(14) 0.8964(11) 0.3484(10)
C139_3 C 0.6464(11) 0.6674(14) 0.4016(10)
C140_3 C 0.4174(14) 0.6036(11) 0.3484(10)
C141_3 C 0.5984(10) 0.8536(11) 0.6674(14)
C144_3 C 0.6516(10) 0.9174(14) 0.8964(11)
H123_3 H 0.5743 0.9088 0.3787
H124_3 H 0.6588 0.6757 0.3713
H125_3 H 0.4257 0.5912 0.3787
H126_3 H 0.6287 0.8412 0.6757
H129_3 H 0.6213 0.9257 0.9088
C149_3 C 0.5714(12) 0.9178(9) 0.3019(12)
C150_3 C 0.6678(9) 0.6786(12) 0.4481(12)
C151_3 C 0.4286(12) 0.5822(9) 0.3019(12)
C152_3 C 0.5519(12) 0.8322(9) 0.6786(12)
C155_3 C 0.6981(12) 0.9286(12) 0.9178(9)
H134_3 H 0.5527 0.9455 0.2968
H135_3 H 0.6955 0.6973 0.4532
H136_3 H 0.4473 0.5545 0.2968
H137_3 H 0.5468 0.8045 0.6973
H140_3 H 0.7032 0.9473 0.9455
H8_4 H 0.0758 0.0996 0.0189
O52_4 O 0.1053(4) 0.5080(6) 0.0140(6)
C62_4 C 0.1513(8) 0.3586(10) 0.0115(10)
C66_4 C 0.0115(10) 0.1513(8) 0.3586(10)
C70_4 C 0.3586(10) 0.0115(10) 0.1513(8)
H69_4 H 0.1750 0.3721 0.0314
H73_4 H 0.0314 0.1750 0.3721
H77_4 H 0.3721 0.0314 0.1750
C73_4 C 0.1080(10) 0.3818(9) 0.0047(10)
C77_4 C 0.0047(10) 0.1080(10) 0.3818(9)
C81_4 C 0.3818(9) 0.0047(10) 0.1080(10)
H80_4 H 0.1047 0.4121 0.0192
H84_4 H 0.0192 0.1047 0.4121
H88_4 H 0.4121 0.0192 0.1047
H93_4 H 0.0189 0.0758 0.0996
H97_4 H 0.0996 0.0189 0.0758
N1_4 N 0.0187(7) 0.1317(6) 0.9830(9)
H1_4 H 0.0178 0.1630 0.9830
O2_4 O 0.1392(9) 0.1559(9) 0.9848(9)
C1_5 C 0.0000 0.2500 0.8750
C10_4 C 0.0660(11) 0.1044(14) 0.9853(15)
H9_4 H 0.0629 0.0729 0.9699
C11_4 C 0.0991(10) 0.1320(13) 0.9617(11)
C12_4 C 0.1027(10) 0.1412(13) 0.9109(10)
H10_4 H 0.0802 0.1317 0.8875
C13_4 C 0.1464(11) 0.1674(14) 0.9016(10)
H11_4 H 0.1588 0.1757 0.8713
C14_4 C 0.1678(9) 0.1786(12) 0.9481(12)
H12_4 H 0.1955 0.1973 0.9532
N5_4 N 0.1183(6) 0.2687(7) 0.7670(9)
H15_4 H 0.0870 0.2678 0.7670
N19_4 N 0.0108(8) 0.5251(8) 0.8725(5)
N20_4 N 0.1275(5) 0.5108(8) 0.9749(8)
N21_4 N 0.0251(8) 0.6275(5) 0.9892(8)
N22_4 N 0.2751(8) 0.2392(8) 0.8775(5)
N23_4 N 0.2608(8) 0.1225(5) 0.7751(8)
N24_4 N 0.3775(5) 0.2249(8) 0.7608(8)
O8_4 O 0.0211(5) 0.4383(3) 0.9837(5)
O9_4 O 0.1883(3) 0.2289(5) 0.7663(5)
O26_4 O 0.0941(9) 0.3892(9) 0.7652(9)
O36_4 O 0.0381(5) 0.3016(5) 0.9339(5)
O37_4 O 0.0516(5) 0.2119(5) 0.8161(5)
O51_4 O 0.0080(6) 0.4860(6) 0.8947(4)
O54_4 O 0.2360(6) 0.2420(6) 0.8553(4)
O55_4 O 0.2580(6) 0.1447(4) 0.7360(6)
O56_4 O 0.3553(4) 0.2640(6) 0.7580(6)
O62_4 O 0.0131(8) 0.5635(6) 0.8960(5)
O63_4 O 0.1040(5) 0.5131(8) 0.9365(6)
O64_4 O 0.0635(6) 0.6040(5) 0.9869(8)
O65_4 O 0.3135(6) 0.2369(8) 0.8540(5)
O66_4 O 0.2631(8) 0.1460(5) 0.8135(6)
O67_4 O 0.3540(5) 0.1865(6) 0.7631(8)
O73_4 O 0.0050(9) 0.5257(7) 0.8268(4)
O74_4 O 0.1732(4) 0.5050(9) 0.9743(7)
O75_4 O 0.0257(7) 0.6732(4) 0.9950(9)
O76_4 O 0.2757(7) 0.2450(9) 0.9232(4)
O77_4 O 0.2550(9) 0.0768(4) 0.7757(7)
O78_4 O 0.4232(4) 0.2243(7) 0.7550(9)
C18_4 C 0.0465(6) 0.2560(7) 0.9078(6)
C19_4 C 0.0060(7) 0.2035(6) 0.8422(6)
H24_4 H 0.0210 0.2996 0.8198
H25_4 H 0.0496 0.2290 0.9302
H36_4 H 0.0756 0.2579 0.8881
H37_4 H 0.0079 0.1744 0.8619
C29_4 C 0.0766(7) 0.3184(6) 0.9612(7)
C30_4 C 0.0684(6) 0.1734(7) 0.7888(7)
C40_4 C 0.1215(8) 0.2960(8) 0.9605(10)
C41_4 C 0.0460(8) 0.1285(8) 0.7895(10)
H47_4 H 0.1272 0.2683 0.9421
H48_4 H 0.0183 0.1228 0.8079
C51_4 C 0.1590(7) 0.3176(9) 0.9897(10)
C52_4 C 0.0676(9) 0.0910(7) 0.7603(10)
H58_4 H 0.1888 0.3021 0.9930
H59_4 H 0.0521 0.0612 0.7570
C63_4 C 0.1086(10) 0.0987(8) 0.7385(10)
C68_4 C 0.1414(10) 0.0115(10) 0.8487(8)
H70_4 H 0.1221 0.0750 0.7186
H75_4 H 0.1279 0.0314 0.8250
C74_4 C 0.1318(9) 0.1420(10) 0.7453(10)
C79_4 C 0.1182(9) 0.0047(10) 0.8920(10)
H81_4 H 0.1621 0.1453 0.7308
H86_4 H 0.0879 0.0192 0.8953
C84_4 C 0.0695(9) 0.3657(7) 0.9794(8)
C85_4 C 0.1157(7) 0.1805(9) 0.7706(8)
C95_4 C 0.0207(9) 0.3938(6) 0.9808(7)
C96_4 C 0.1438(6) 0.2293(9) 0.7692(7)
C107_4 C 0.1456(14) 0.3160(11) 0.7647(15)
H92_4 H 0.1504 0.3258 0.7311
H99_4 H 0.4004 0.0189 0.9242
H103_4 H 0.1771 0.3129 0.7801
C118_4 C 0.1180(13) 0.3491(10) 0.7883(11)
C129_4 C 0.1088(13) 0.3527(10) 0.8391(10)
H114_4 H 0.1183 0.3302 0.8625
C140_4 C 0.0826(14) 0.3964(11) 0.8484(10)
H125_4 H 0.0743 0.4088 0.8787
C151_4 C 0.0714(12) 0.4178(9) 0.8019(12)
H136_4 H 0.0527 0.4455 0.7968
N10_4 N 0.1317(6) 0.9830(9) 0.0187(7)
N13_4 N 0.2687(7) 0.7670(9) 0.1183(6)
H20_4 H 0.1630 0.9830 0.0178
H23_4 H 0.2678 0.7670 0.0870
O31_4 O 0.1559(9) 0.9848(9) 0.1392(9)
O34_4 O 0.3892(9) 0.7652(9) 0.0941(9)
O44_4 O 0.3016(5) 0.9339(5) 0.0381(5)
O45_4 O 0.2119(5) 0.8161(5) 0.0516(5)
C16_5 C 0.2500 0.8750 0.0000
C26_4 C 0.2560(7) 0.9078(6) 0.0465(6)
C27_4 C 0.2035(6) 0.8422(6) 0.0060(7)
H32_4 H 0.2996 0.8198 0.0210
H33_4 H 0.2290 0.9302 0.0496
H44_4 H 0.2579 0.8881 0.0756
H45_4 H 0.1744 0.8619 0.0079
C37_4 C 0.3184(6) 0.9612(7) 0.0766(7)
C38_4 C 0.1734(7) 0.7888(7) 0.0684(6)
C48_4 C 0.2960(8) 0.9605(10) 0.1215(8)
C49_4 C 0.1285(8) 0.7895(10) 0.0460(8)
H55_4 H 0.2683 0.9421 0.1272
H56_4 H 0.1228 0.8079 0.0183
C59_4 C 0.3176(9) 0.9897(10) 0.1590(7)
C60_4 C 0.0910(7) 0.7603(10) 0.0676(9)
H66_4 H 0.3021 0.9930 0.1888
H67_4 H 0.0612 0.7570 0.0521
C64_4 C 0.0115(10) 0.8487(8) 0.1414(10)
C71_4 C 0.0987(8) 0.7385(10) 0.1086(10)
H71_4 H 0.0314 0.8250 0.1279
H78_4 H 0.0750 0.7186 0.1221
C75_4 C 0.0047(10) 0.8920(10) 0.1182(9)
C82_4 C 0.1420(10) 0.7453(10) 0.1318(9)
H82_4 H 0.0192 0.8953 0.0879
H89_4 H 0.1453 0.7308 0.1621
C92_4 C 0.3657(7) 0.9794(8) 0.0695(9)
C93_4 C 0.1805(9) 0.7706(8) 0.1157(7)
C103_4 C 0.3938(6) 0.9808(7) 0.0207(9)
C104_4 C 0.2293(9) 0.7692(7) 0.1438(6)
C112_4 C 0.1044(14) 0.9853(15) 0.0660(11)
C115_4 C 0.3160(11) 0.7647(15) 0.1456(14)
H95_4 H 0.0189 0.9242 0.4004
H100_4 H 0.3258 0.7311 0.1504
H108_4 H 0.0729 0.9699 0.0629
H111_4 H 0.3129 0.7801 0.1771
C123_4 C 0.1320(13) 0.9617(11) 0.0991(10)
C126_4 C 0.3491(10) 0.7883(11) 0.1180(13)
C134_4 C 0.1412(13) 0.9109(10) 0.1027(10)
C137_4 C 0.3527(10) 0.8391(10) 0.1088(13)
H119_4 H 0.1317 0.8875 0.0802
H122_4 H 0.3302 0.8625 0.1183
C145_4 C 0.1674(14) 0.9016(10) 0.1464(11)
C148_4 C 0.3964(11) 0.8484(10) 0.0826(14)
H130_4 H 0.1757 0.8713 0.1588
H133_4 H 0.4088 0.8787 0.0743
C156_4 C 0.1786(12) 0.9481(12) 0.1678(9)
C159_4 C 0.4178(9) 0.8019(12) 0.0714(12)
H141_4 H 0.1973 0.9532 0.1955
H144_4 H 0.4455 0.7968 0.0527
N11_4 N 0.2313(7) 0.7670(9) 0.8817(6)
N12_4 N 0.3683(6) 0.9830(9) 0.9813(7)
H21_4 H 0.2322 0.7670 0.9130
H22_4 H 0.3370 0.9830 0.9822
O14_4 O 0.0617(3) 0.9837(5) 0.9789(5)
O32_4 O 0.1108(9) 0.7652(9) 0.9059(9)
O33_4 O 0.3441(9) 0.9848(9) 0.8608(9)
O42_4 O 0.1984(5) 0.9339(5) 0.9619(5)
O43_4 O 0.2881(5) 0.8161(5) 0.9484(5)
O47_4 O 0.0140(6) 0.8947(4) 0.9920(6)
C16_6 C 0.2500 0.8750 1.0000
C24_4 C 0.2440(7) 0.9078(6) 0.9535(6)
C25_4 C 0.2965(6) 0.8422(6) 0.9940(7)
H31_4 H 0.2710 0.9302 0.9504
H34_4 H 0.2004 0.8198 0.9790
H42_4 H 0.2421 0.8881 0.9244
H43_4 H 0.3256 0.8619 0.9921
C35_4 C 0.1816(6) 0.9612(7) 0.9234(7)
C36_4 C 0.3266(7) 0.7888(7) 0.9316(6)
C46_4 C 0.2040(8) 0.9605(10) 0.8785(8)
C47_4 C 0.3715(8) 0.7895(10) 0.9540(8)
H53_4 H 0.2317 0.9421 0.8728
H54_4 H 0.3772 0.8079 0.9817
C57_4 C 0.1824(9) 0.9897(10) 0.8410(7)
C58_4 C 0.4090(7) 0.7603(10) 0.9324(9)
H64_4 H 0.1979 0.9930 0.8112
H65_4 H 0.4388 0.7570 0.9479
C69_4 C 0.4013(8) 0.7385(10) 0.8914(10)
H76_4 H 0.4250 0.7186 0.8779
C80_4 C 0.3580(10) 0.7453(10) 0.8682(9)
H87_4 H 0.3547 0.7308 0.8379
C90_4 C 0.1343(7) 0.9794(8) 0.9305(9)
C91_4 C 0.3195(9) 0.7706(8) 0.8843(7)
C101_4 C 0.1062(6) 0.9808(7) 0.9793(9)
C102_4 C 0.2707(9) 0.7692(7) 0.8562(6)
C113_4 C 0.1840(11) 0.7647(15) 0.8544(14)
C114_4 C 0.3956(14) 0.9853(15) 0.9340(11)
H98_4 H 0.1742 0.7311 0.8496
H109_4 H 0.1871 0.7801 0.8229
H110_4 H 0.4271 0.9699 0.9371
C124_4 C 0.1509(10) 0.7883(11) 0.8820(13)
C125_4 C 0.3680(13) 0.9617(11) 0.9009(10)
C135_4 C 0.1473(10) 0.8391(10) 0.8912(13)
C136_4 C 0.3588(13) 0.9109(10) 0.8973(10)
H120_4 H 0.1698 0.8625 0.8817
H121_4 H 0.3683 0.8875 0.9198
C146_4 C 0.1036(11) 0.8484(10) 0.9174(14)
C147_4 C 0.3326(14) 0.9016(10) 0.8536(11)
H131_4 H 0.0912 0.8787 0.9257
H132_4 H 0.3243 0.8713 0.8412
C157_4 C 0.0822(9) 0.8019(12) 0.9286(12)
C158_4 C 0.3214(12) 0.9481(12) 0.8322(9)
H142_4 H 0.0545 0.7968 0.9473
H143_4 H 0.3027 0.9532 0.8045
C6_4 C 0.8487(8) 0.1414(10) 0.0115(10)
H6_4 H 0.8250 0.1279 0.0314
C7_4 C 0.8920(10) 0.1182(9) 0.0047(10)
H7_4 H 0.8953 0.0879 0.0192
N6_4 N 0.9830(9) 0.0187(7) 0.1317(6)
N9_4 N 0.7670(9) 0.1183(6) 0.2687(7)
H16_4 H 0.9830 0.0178 0.1630
H19_4 H 0.7670 0.0870 0.2678
O27_4 O 0.9848(9) 0.1392(9) 0.1559(9)
O30_4 O 0.7652(9) 0.0941(9) 0.3892(9)
O40_4 O 0.9339(5) 0.0381(5) 0.3016(5)
O41_4 O 0.8161(5) 0.0516(5) 0.2119(5)
C15_5 C 0.8750 0.0000 0.2500
C22_4 C 0.9078(6) 0.0465(6) 0.2560(7)
C23_4 C 0.8422(6) 0.0060(7) 0.2035(6)
H28_4 H 0.8198 0.0210 0.2996
H29_4 H 0.9302 0.0496 0.2290
H40_4 H 0.8881 0.0756 0.2579
H41_4 H 0.8619 0.0079 0.1744
C33_4 C 0.9612(7) 0.0766(7) 0.3184(6)
C34_4 C 0.7888(7) 0.0684(6) 0.1734(7)
C44_4 C 0.9605(10) 0.1215(8) 0.2960(8)
C45_4 C 0.7895(10) 0.0460(8) 0.1285(8)
H51_4 H 0.9421 0.1272 0.2683
H52_4 H 0.8079 0.0183 0.1228
C55_4 C 0.9897(10) 0.1590(7) 0.3176(9)
C56_4 C 0.7603(10) 0.0676(9) 0.0910(7)
H62_4 H 0.9930 0.1888 0.3021
H63_4 H 0.7570 0.0521 0.0612
C67_4 C 0.7385(10) 0.1086(10) 0.0987(8)
H74_4 H 0.7186 0.1221 0.0750
C78_4 C 0.7453(10) 0.1318(9) 0.1420(10)
H85_4 H 0.7308 0.1621 0.1453
C88_4 C 0.9794(8) 0.0695(9) 0.3657(7)
C89_4 C 0.7706(8) 0.1157(7) 0.1805(9)
C99_4 C 0.9808(7) 0.0207(9) 0.3938(6)
C100_4 C 0.7692(7) 0.1438(6) 0.2293(9)
C108_4 C 0.9853(15) 0.0660(11) 0.1044(14)
C111_4 C 0.7647(15) 0.1456(14) 0.3160(11)
H91_4 H 0.9242 0.4004 0.0189
H96_4 H 0.7311 0.1504 0.3258
H104_4 H 0.9699 0.0629 0.0729
H107_4 H 0.7801 0.1771 0.3129
C119_4 C 0.9617(11) 0.0991(10) 0.1320(13)
C122_4 C 0.7883(11) 0.1180(13) 0.3491(10)
C130_4 C 0.9109(10) 0.1027(10) 0.1412(13)
C133_4 C 0.8391(10) 0.1088(13) 0.3527(10)
H115_4 H 0.8875 0.0802 0.1317
H118_4 H 0.8625 0.1183 0.3302
C141_4 C 0.9016(10) 0.1464(11) 0.1674(14)
C144_4 C 0.8484(10) 0.0826(14) 0.3964(11)
H126_4 H 0.8713 0.1588 0.1757
H129_4 H 0.8787 0.0743 0.4088
C152_4 C 0.9481(12) 0.1678(9) 0.1786(12)
C155_4 C 0.8019(12) 0.0714(12) 0.4178(9)
H137_4 H 0.9532 0.1955 0.1973
H140_4 H 0.7968 0.0527 0.4455
O1_4 O 0.9789(5) 0.0617(3) 0.9837(5)
O3_4 O 0.9619(5) 0.1984(5) 0.9339(5)
O4_4 O 0.9920(6) 0.0140(6) 0.8947(4)
C1_6 C 1.0000 0.2500 0.8750
C2_4 C 0.9535(6) 0.2440(7) 0.9078(6)
H2_4 H 0.9504 0.2710 0.9302
H3_4 H 0.9244 0.2421 0.8881
C3_4 C 0.9234(7) 0.1816(6) 0.9612(7)
C4_4 C 0.8785(8) 0.2040(8) 0.9605(10)
H4_4 H 0.8728 0.2317 0.9421
C5_4 C 0.8410(7) 0.1824(9) 0.9897(10)
H5_4 H 0.8112 0.1979 0.9930
C8_4 C 0.9305(9) 0.1343(7) 0.9794(8)
C9_4 C 0.9793(9) 0.1062(6) 0.9808(7)
N3_4 N 0.8817(6) 0.2313(7) 0.7670(9)
N4_4 N 0.9813(7) 0.3683(6) 0.9830(9)
H13_4 H 0.9130 0.2322 0.7670
H14_4 H 0.9822 0.3370 0.9830
N16_4 N 0.7249(8) 0.2608(8) 0.8775(5)
N17_4 N 0.7392(8) 0.3775(5) 0.7751(8)
N18_4 N 0.6225(5) 0.2751(8) 0.7608(8)
O7_4 O 0.8117(3) 0.2711(5) 0.7663(5)
O24_4 O 0.9059(9) 0.1108(9) 0.7652(9)
O25_4 O 0.8608(9) 0.3441(9) 0.9848(9)
O35_4 O 0.9484(5) 0.2881(5) 0.8161(5)
O48_4 O 0.7640(6) 0.2580(6) 0.8553(4)
O49_4 O 0.7420(6) 0.3553(4) 0.7360(6)
O50_4 O 0.6447(4) 0.2360(6) 0.7580(6)
O53_4 O 0.9860(6) 0.6053(4) 0.9920(6)
O59_4 O 0.6865(6) 0.2631(8) 0.8540(5)
O60_4 O 0.7369(8) 0.3540(5) 0.8135(6)
O61_4 O 0.6460(5) 0.3135(6) 0.7631(8)
O70_4 O 0.7243(7) 0.2550(9) 0.9232(4)
O71_4 O 0.7450(9) 0.4232(4) 0.7757(7)
O72_4 O 0.5768(4) 0.2757(7) 0.7550(9)
C17_4 C 0.9940(7) 0.2965(6) 0.8422(6)
H26_4 H 0.9790 0.2004 0.8198
H35_4 H 0.9921 0.3256 0.8619
C28_4 C 0.9316(6) 0.3266(7) 0.7888(7)
C39_4 C 0.9540(8) 0.3715(8) 0.7895(10)
H46_4 H 0.9817 0.3772 0.8079
C50_4 C 0.9324(9) 0.4090(7) 0.7603(10)
H57_4 H 0.9479 0.4388 0.7570
C61_4 C 0.8914(10) 0.4013(8) 0.7385(10)
H68_4 H 0.8779 0.4250 0.7186
C72_4 C 0.8682(9) 0.3580(10) 0.7453(10)
H79_4 H 0.8379 0.3547 0.7308
C83_4 C 0.8843(7) 0.3195(9) 0.7706(8)
C94_4 C 0.8562(6) 0.2707(9) 0.7692(7)
C105_4 C 0.8544(14) 0.1840(11) 0.7647(15)
C106_4 C 0.9340(11) 0.3956(14) 0.9853(15)
H90_4 H 0.8496 0.1742 0.7311
H101_4 H 0.8229 0.1871 0.7801
H102_4 H 0.9371 0.4271 0.9699
C116_4 C 0.8820(13) 0.1509(10) 0.7883(11)
C117_4 C 0.9009(10) 0.3680(13) 0.9617(11)
C127_4 C 0.8912(13) 0.1473(10) 0.8391(10)
C128_4 C 0.8973(10) 0.3588(13) 0.9109(10)
H112_4 H 0.8817 0.1698 0.8625
H113_4 H 0.9198 0.3683 0.8875
C138_4 C 0.9174(14) 0.1036(11) 0.8484(10)
C139_4 C 0.8536(11) 0.3326(14) 0.9016(10)
H123_4 H 0.9257 0.0912 0.8787
H124_4 H 0.8412 0.3243 0.8713
C149_4 C 0.9286(12) 0.0822(9) 0.8019(12)
C150_4 C 0.8322(9) 0.3214(12) 0.9481(12)
H134_4 H 0.9473 0.0545 0.7968
H135_4 H 0.8045 0.3027 0.9532
N7_4 N 0.7670(9) 0.8817(6) 0.2313(7)
N8_4 N 0.9830(9) 0.9813(7) 0.3683(6)
H17_4 H 0.7670 0.9130 0.2322
H18_4 H 0.9830 0.9822 0.3370
O10_4 O 0.9837(5) 0.9789(5) 0.0617(3)
O28_4 O 0.7652(9) 0.9059(9) 0.1108(9)
O29_4 O 0.9848(9) 0.8608(9) 0.3441(9)
O38_4 O 0.9339(5) 0.9619(5) 0.1984(5)
O39_4 O 0.8161(5) 0.9484(5) 0.2881(5)
O46_4 O 0.8947(4) 0.9920(6) 0.0140(6)
C15_6 C 0.8750 1.0000 0.2500
C20_4 C 0.9078(6) 0.9535(6) 0.2440(7)
C21_4 C 0.8422(6) 0.9940(7) 0.2965(6)
H27_4 H 0.9302 0.9504 0.2710
H30_4 H 0.8198 0.9790 0.2004
H38_4 H 0.8881 0.9244 0.2421
H39_4 H 0.8619 0.9921 0.3256
C31_4 C 0.9612(7) 0.9234(7) 0.1816(6)
C32_4 C 0.7888(7) 0.9316(6) 0.3266(7)
C42_4 C 0.9605(10) 0.8785(8) 0.2040(8)
C43_4 C 0.7895(10) 0.9540(8) 0.3715(8)
H49_4 H 0.9421 0.8728 0.2317
H50_4 H 0.8079 0.9817 0.3772
C53_4 C 0.9897(10) 0.8410(7) 0.1824(9)
C54_4 C 0.7603(10) 0.9324(9) 0.4090(7)
H60_4 H 0.9930 0.8112 0.1979
H61_4 H 0.7570 0.9479 0.4388
C65_4 C 0.7385(10) 0.8914(10) 0.4013(8)
H72_4 H 0.7186 0.8779 0.4250
C76_4 C 0.7453(10) 0.8682(9) 0.3580(10)
H83_4 H 0.7308 0.8379 0.3547
C86_4 C 0.9794(8) 0.9305(9) 0.1343(7)
C87_4 C 0.7706(8) 0.8843(7) 0.3195(9)
C97_4 C 0.9808(7) 0.9793(9) 0.1062(6)
C98_4 C 0.7692(7) 0.8562(6) 0.2707(9)
C109_4 C 0.7647(15) 0.8544(14) 0.1840(11)
C110_4 C 0.9853(15) 0.9340(11) 0.3956(14)
H94_4 H 0.7311 0.8496 0.1742
H105_4 H 0.7801 0.8229 0.1871
H106_4 H 0.9699 0.9371 0.4271
C120_4 C 0.7883(11) 0.8820(13) 0.1509(10)
C121_4 C 0.9617(11) 0.9009(10) 0.3680(13)
C131_4 C 0.8391(10) 0.8912(13) 0.1473(10)
C132_4 C 0.9109(10) 0.8973(10) 0.3588(13)
H116_4 H 0.8625 0.8817 0.1698
H117_4 H 0.8875 0.9198 0.3683
C142_4 C 0.8484(10) 0.9174(14) 0.1036(11)
C143_4 C 0.9016(10) 0.8536(11) 0.3326(14)
H127_4 H 0.8787 0.9257 0.0912
H128_4 H 0.8713 0.8412 0.3243
C153_4 C 0.8019(12) 0.9286(12) 0.0822(9)
C154_4 C 0.9481(12) 0.8322(9) 0.3214(12)
H138_4 H 0.7968 0.9473 0.0545
H139_4 H 0.9532 0.8045 0.3027
Eu1_4 Eu 0.97617(3) 0.97617(3) 0.97617(3)
N2_4 N 0.9892(8) 0.9749(8) 0.8725(5)
O5_4 O 0.9869(8) 0.9365(6) 0.8960(5)
O6_4 O 0.9950(9) 0.9743(7) 0.8268(4)
N14_4 N 0.8725(5) 0.9892(8) 0.9749(8)
N15_4 N 0.9749(8) 0.8725(5) 0.9892(8)
O57_4 O 0.8960(5) 0.9869(8) 0.9365(6)
O58_4 O 0.9365(6) 0.8960(5) 0.9869(8)
O68_4 O 0.8268(4) 0.9950(9) 0.9743(7)
O69_4 O 0.9743(7) 0.8268(4) 0.9950(9)
loop_
_geom_bond_atom_site_label_1
_geom_bond_atom_site_label_2
_geom_bond_site_symmetry_1
_geom_bond_site_symmetry_2
Eu1 O1 1_555 1_555
N1 H1 1_555 1_555
N2 O4 1_555 1_555
O1 C9 1_555 1_555
O2 C11 1_555 1_555
O3 C2 1_555 1_555
O4 Eu1 1_555 1_555
O5 Eu1 1_555 1_555
O6 N2 1_555 1_555
C1 C2 1_555 1_555
C2 H2 1_555 1_555
H3 C2 1_555 1_555
C3 O3 1_555 1_555
C4 C3 1_555 1_555
H4 C4 1_555 1_555
C5 C4 1_555 1_555
H5 C5 1_555 1_555
C8 C3 1_555 1_555
C9 N1 1_555 1_555
C10 N1 1_555 1_555
H9 C10 1_555 1_555
C11 C10 1_555 1_555
C12 C11 1_555 1_555
H10 C12 1_555 1_555
C13 C12 1_555 1_555
H11 C13 1_555 1_555
C14 O2 1_555 1_555
H12 C14 1_555 1_555
Eu2 O7 1_555 1_555
Eu4 O9 1_555 1_555
Eu8 O15 1_555 1_555
N3 H13 1_555 1_555
N4 H14 1_555 1_555
N5 H15 1_555 1_555
N11 H21 1_555 1_555
N12 H22 1_555 1_555
N15 O47 1_555 1_555
N16 O48 1_555 1_555
N17 O49 1_555 1_555
N18 O50 1_555 1_555
N22 O54 1_555 1_555
N23 O55 1_555 1_555
N24 O56 1_555 1_555
O7 C94 1_555 1_555
O8 C95 1_555 1_555
O9 C96 1_555 1_555
O14 Eu1 1_555 1_555
O15 C102 1_555 1_555
O18 Eu2 1_555 1_555
O19 Eu2 1_555 1_555
O22 Eu4 1_555 1_555
O23 Eu4 1_555 1_555
O24 C116 1_555 1_555
O25 C117 1_555 1_555
O26 C118 1_555 1_555
O32 C124 1_555 1_555
O33 C125 1_555 1_555
O35 C17 1_555 1_555
O36 C18 1_555 1_555
O37 C19 1_555 1_555
O42 C24 1_555 1_555
O43 C25 1_555 1_555
O47 Eu1 1_555 1_555
O48 Eu2 1_555 1_555
O49 Eu2 1_555 1_555
O50 Eu2 1_555 1_555
O54 Eu4 1_555 1_555
O55 Eu4 1_555 1_555
O56 Eu4 1_555 1_555
O57 Eu1 1_555 1_555
O58 Eu1 1_555 1_555
O59 Eu2 1_555 1_555
O60 Eu2 1_555 1_555
O61 Eu2 1_555 1_555
O65 Eu4 1_555 1_555
O66 Eu4 1_555 1_555
O67 Eu4 1_555 1_555
O68 N14 1_555 1_555
O69 N15 1_555 1_555
O70 N16 1_555 1_555
O71 N17 1_555 1_555
O72 N18 1_555 1_555
O76 N22 1_555 1_555
O77 N23 1_555 1_555
O78 N24 1_555 1_555
C16 C24 1_555 1_555
C17 C1 1_555 1_555
C18 C1 1_555 1_555
C19 C1 1_555 1_555
C24 H31 1_555 1_555
C25 C16 1_555 1_555
H24 C17 1_555 1_555
H25 C18 1_555 1_555
H26 C19 1_555 1_555
H35 C17 1_555 1_555
H36 C18 1_555 1_555
H37 C19 1_555 1_555
H42 C24 1_555 1_555
H43 C25 1_555 1_555
C28 O35 1_555 1_555
C29 O36 1_555 1_555
C30 O37 1_555 1_555
C35 O42 1_555 1_555
C36 O43 1_555 1_555
C39 C28 1_555 1_555
C40 C29 1_555 1_555
C41 C30 1_555 1_555
C46 C35 1_555 1_555
C47 C36 1_555 1_555
H46 C39 1_555 1_555
H47 C40 1_555 1_555
H48 C41 1_555 1_555
H53 C46 1_555 1_555
H54 C47 1_555 1_555
C50 C39 1_555 1_555
C51 C40 1_555 1_555
C52 C41 1_555 1_555
C57 C46 1_555 1_555
C58 C47 1_555 1_555
H57 C50 1_555 1_555
H58 C51 1_555 1_555
H59 C52 1_555 1_555
H64 C57 1_555 1_555
H65 C58 1_555 1_555
C61 C50 1_555 1_555
C63 C52 1_555 1_555
C68 C57 1_555 1_555
C69 C58 1_555 1_555
H68 C61 1_555 1_555
H70 C63 1_555 1_555
H75 C68 1_555 1_555
H76 C69 1_555 1_555
C72 C61 1_555 1_555
C74 C63 1_555 1_555
C79 C68 1_555 1_555
C80 C69 1_555 1_555
H79 C72 1_555 1_555
H81 C74 1_555 1_555
H86 C79 1_555 1_555
H87 C80 1_555 1_555
C83 C28 1_555 1_555
C84 C29 1_555 1_555
C85 C30 1_555 1_555
C90 C35 1_555 1_555
C91 C36 1_555 1_555
C94 N3 1_555 1_555
C95 N4 1_555 1_555
C96 N5 1_555 1_555
C102 N11 1_555 1_555
C105 N3 1_555 1_555
C106 N4 1_555 1_555
C107 N5 1_555 1_555
C113 N11 1_555 1_555
C114 N12 1_555 1_555
H90 C105 1_555 1_555
H92 C107 1_555 1_555
H98 C113 1_555 1_555
H99 C114 1_555 1_555
H101 C105 1_555 1_555
H102 C106 1_555 1_555
H103 C107 1_555 1_555
H109 C113 1_555 1_555
H110 C114 1_555 1_555
C116 C105 1_555 1_555
C117 C106 1_555 1_555
C118 C107 1_555 1_555
C124 C113 1_555 1_555
C125 C114 1_555 1_555
C127 C116 1_555 1_555
C128 C117 1_555 1_555
C129 C118 1_555 1_555
C135 C124 1_555 1_555
C136 C125 1_555 1_555
H112 C127 1_555 1_555
H113 C128 1_555 1_555
H114 C129 1_555 1_555
H120 C135 1_555 1_555
H121 C136 1_555 1_555
C138 C127 1_555 1_555
C139 C128 1_555 1_555
C140 C129 1_555 1_555
C146 C135 1_555 1_555
C147 C136 1_555 1_555
H123 C138 1_555 1_555
H124 C139 1_555 1_555
H125 C140 1_555 1_555
H131 C146 1_555 1_555
H132 C147 1_555 1_555
C149 O24 1_555 1_555
C150 O25 1_555 1_555
C151 O26 1_555 1_555
C157 O32 1_555 1_555
C158 O33 1_555 1_555
H134 C149 1_555 1_555
H135 C150 1_555 1_555
H136 C151 1_555 1_555
H142 C157 1_555 1_555
H143 C158 1_555 1_555
N2 O5 1_555 1_555
C8 C9 1_555 1_555
C13 C14 1_555 1_555
N14 O57 1_555 1_555
N15 O58 1_555 1_555
N16 O59 1_555 1_555
N17 O60 1_555 1_555
N18 O61 1_555 1_555
N22 O65 1_555 1_555
N23 O66 1_555 1_555
N24 O67 1_555 1_555
O14 C101 1_555 1_555
C72 C83 1_555 1_555
C74 C85 1_555 1_555
C79 C90 1_555 1_555
C80 C91 1_555 1_555
C83 C94 1_555 1_555
C84 C95 1_555 1_555
C85 C96 1_555 1_555
C90 C101 1_555 1_555
C91 C102 1_555 1_555
C138 C149 1_555 1_555
C139 C150 1_555 1_555
C140 C151 1_555 1_555
C146 C157 1_555 1_555
C147 C158 1_555 1_555
H6 C6 1_555 1_555
C7 C6 1_555 1_555
H7 C7 1_555 1_555
Eu5 O11 1_555 1_555
Eu6 O12 1_555 1_555
Eu7 O13 1_555 1_555
Eu10 O17 1_555 1_555
N6 H16 1_555 1_555
N7 H17 1_555 1_555
N8 H18 1_555 1_555
N9 H19 1_555 1_555
N10 H20 1_555 1_555
N13 H23 1_555 1_555
O11 C98 1_555 1_555
O12 C99 1_555 1_555
O13 C100 1_555 1_555
O16 C103 1_555 1_555
O17 C104 1_555 1_555
O27 C119 1_555 1_555
O28 C120 1_555 1_555
O29 C121 1_555 1_555
O30 C122 1_555 1_555
O31 C123 1_555 1_555
O34 C126 1_555 1_555
O38 C20 1_555 1_555
O39 C21 1_555 1_555
O40 C22 1_555 1_555
O41 C23 1_555 1_555
O44 C26 1_555 1_555
O45 C27 1_555 1_555
C15 C20 1_555 1_555
C20 H27 1_555 1_555
C21 C15 1_555 1_555
C22 C15 1_555 1_555
C23 C15 1_555 1_555
C26 C16_2 1_555 1_555
C27 C16_2 1_555 1_555
H28 C21 1_555 1_555
H29 C22 1_555 1_555
H30 C23 1_555 1_555
H33 C26 1_555 1_555
H38 C20 1_555 1_555
H39 C21 1_555 1_555
H40 C22 1_555 1_555
H41 C23 1_555 1_555
H44 C26 1_555 1_555
H45 C27 1_555 1_555
C31 O38 1_555 1_555
C32 O39 1_555 1_555
C33 O40 1_555 1_555
C34 O41 1_555 1_555
C37 O44 1_555 1_555
C38 O45 1_555 1_555
C42 C31 1_555 1_555
C43 C32 1_555 1_555
C44 C33 1_555 1_555
C45 C34 1_555 1_555
C48 C37 1_555 1_555
C49 C38 1_555 1_555
H49 C42 1_555 1_555
H50 C43 1_555 1_555
H51 C44 1_555 1_555
H52 C45 1_555 1_555
H55 C48 1_555 1_555
H56 C49 1_555 1_555
C53 C42 1_555 1_555
C54 C43 1_555 1_555
C55 C44 1_555 1_555
C56 C45 1_555 1_555
C59 C48 1_555 1_555
C60 C49 1_555 1_555
H60 C53 1_555 1_555
H61 C54 1_555 1_555
H62 C55 1_555 1_555
H63 C56 1_555 1_555
H66 C59 1_555 1_555
H67 C60 1_555 1_555
C64 C53 1_555 1_555
C65 C54 1_555 1_555
C66 C55 1_555 1_555
C67 C56 1_555 1_555
C70 C59 1_555 1_555
C71 C60 1_555 1_555
H69 C62 1_555 1_555
H71 C64 1_555 1_555
H72 C65 1_555 1_555
H73 C66 1_555 1_555
H74 C67 1_555 1_555
H77 C70 1_555 1_555
H78 C71 1_555 1_555
C73 C62 1_555 1_555
C75 C64 1_555 1_555
C76 C65 1_555 1_555
C77 C66 1_555 1_555
C78 C67 1_555 1_555
C81 C70 1_555 1_555
C82 C71 1_555 1_555
H80 C73 1_555 1_555
H82 C75 1_555 1_555
H83 C76 1_555 1_555
H84 C77 1_555 1_555
H85 C78 1_555 1_555
H88 C81 1_555 1_555
H89 C82 1_555 1_555
C86 C31 1_555 1_555
C87 C32 1_555 1_555
C88 C33 1_555 1_555
C89 C34 1_555 1_555
C92 C37 1_555 1_555
C93 C38 1_555 1_555
C97 N6 1_555 1_555
C98 N7 1_555 1_555
C99 N8 1_555 1_555
C100 N9 1_555 1_555
C104 N13 1_555 1_555
C108 N6 1_555 1_555
C109 N7 1_555 1_555
C110 N8 1_555 1_555
C111 N9 1_555 1_555
C112 N10 1_555 1_555
C115 N13 1_555 1_555
H93 C108 1_555 1_555
H94 C109 1_555 1_555
H95 C110 1_555 1_555
H96 C111 1_555 1_555
H97 C112 1_555 1_555
H100 C115 1_555 1_555
H104 C108 1_555 1_555
H105 C109 1_555 1_555
H106 C110 1_555 1_555
H107 C111 1_555 1_555
H108 C112 1_555 1_555
H111 C115 1_555 1_555
C119 C108 1_555 1_555
C120 C109 1_555 1_555
C121 C110 1_555 1_555
C122 C111 1_555 1_555
C123 C112 1_555 1_555
C126 C115 1_555 1_555
C130 C119 1_555 1_555
C131 C120 1_555 1_555
C132 C121 1_555 1_555
C133 C122 1_555 1_555
C134 C123 1_555 1_555
C137 C126 1_555 1_555
H115 C130 1_555 1_555
H116 C131 1_555 1_555
H117 C132 1_555 1_555
H118 C133 1_555 1_555
H119 C134 1_555 1_555
H122 C137 1_555 1_555
C141 C130 1_555 1_555
C142 C131 1_555 1_555
C143 C132 1_555 1_555
C144 C133 1_555 1_555
C145 C134 1_555 1_555
C148 C137 1_555 1_555
H126 C141 1_555 1_555
H127 C142 1_555 1_555
H128 C143 1_555 1_555
H129 C144 1_555 1_555
H130 C145 1_555 1_555
H133 C148 1_555 1_555
C152 O27 1_555 1_555
C153 O28 1_555 1_555
C154 O29 1_555 1_555
C155 O30 1_555 1_555
C156 O31 1_555 1_555
C159 O34 1_555 1_555
H137 C152 1_555 1_555
H138 C153 1_555 1_555
H139 C154 1_555 1_555
H140 C155 1_555 1_555
H141 C156 1_555 1_555
H144 C159 1_555 1_555
O10 C97 1_555 1_555
C75 C86 1_555 1_555
C76 C87 1_555 1_555
C77 C88 1_555 1_555
C78 C89 1_555 1_555
C81 C92 1_555 1_555
C82 C93 1_555 1_555
C86 C97 1_555 1_555
C87 C98 1_555 1_555
C88 C99 1_555 1_555
C89 C100 1_555 1_555
C92 C103 1_555 1_555
C93 C104 1_555 1_555
C141 C152 1_555 1_555
C142 C153 1_555 1_555
C143 C154 1_555 1_555
C144 C155 1_555 1_555
C145 C156 1_555 1_555
C148 C159 1_555 1_555
N21 O53 1_555 1_555
O21 Eu3 1_555 1_555
O53 Eu3 1_555 1_555
O62 Eu3 1_555 1_555
O63 Eu3 1_555 1_555
O64 Eu3 1_555 1_555
O73 N19 1_555 1_555
O74 N20 1_555 1_555
O75 N21 1_555 1_555
N19 O62 1_555 1_555
N20 O63 1_555 1_555
N21 O64 1_555 1_555
Eu1_2 O1_2 1_555 1_555
N2_2 O4_2 1_555 1_555
O1_2 C9_2 1_555 1_555
O3_2 C2_2 1_555 1_555
O4_2 Eu1_2 1_555 1_555
O5_2 Eu1_2 1_555 1_555
O6_2 N2_2 1_555 1_555
C1_2 C2_2 1_555 1_555
C2_2 H2_2 1_555 1_555
H3_2 C2_2 1_555 1_555
C3_2 O3_2 1_555 1_555
C4_2 C3_2 1_555 1_555
H4_2 C4_2 1_555 1_555
C5_2 C4_2 1_555 1_555
H5_2 C5_2 1_555 1_555
C6_2 C5_2 1_555 1_555
H6_2 C6_2 1_555 1_555
C7_2 C6_2 1_555 1_555
H7_2 C7_2 1_555 1_555
C8_2 C3_2 1_555 1_555
Eu5 O7_2 1_555 1_555
Eu7_2 O13_2 1_555 1_555
N3_2 H13_2 1_555 1_555
N4_2 H14_2 1_555 1_555
N6_2 H16_2 1_555 1_555
N7_2 H17_2 1_555 1_555
N8_2 H18_2 1_555 1_555
N9_2 H19_2 1_555 1_555
N14_2 O46_2 1_555 1_555
N16_2 O48_2 1_555 1_555
N17_2 O49_2 1_555 1_555
N18_2 O50_2 1_555 1_555
O7_2 C94_2 1_555 1_555
O10_2 Eu1_2 1_555 1_555
O19 C98_2 1_555 1_555
O12_2 C99_2 1_555 1_555
O13_2 C100_2 1_555 1_555
O18_2 Eu5 1_555 1_555
O24_2 C116_2 1_555 1_555
O25_2 C117_2 1_555 1_555
O27_2 C119_2 1_555 1_555
O28_2 C120_2 1_555 1_555
O29_2 C121_2 1_555 1_555
O30_2 C122_2 1_555 1_555
O35_2 C17_2 1_555 1_555
O38_2 C20_2 1_555 1_555
O39_2 C21_2 1_555 1_555
O40_2 C22_2 1_555 1_555
O41_2 C23_2 1_555 1_555
O46_2 Eu1_2 1_555 1_555
O48_2 Eu5 1_555 1_555
O49_2 Eu5 1_555 1_555
O50_2 Eu5 1_555 1_555
O57_2 Eu1_2 1_555 1_555
O58_2 Eu1_2 1_555 1_555
O59_2 Eu5 1_555 1_555
O60_2 Eu5 1_555 1_555
O61_2 Eu5 1_555 1_555
O68_2 N14_2 1_555 1_555
O69_2 N15_2 1_555 1_555
O70_2 N16_2 1_555 1_555
O71_2 N17_2 1_555 1_555
O72_2 N18_2 1_555 1_555
C15_2 C20_2 1_555 1_555
C17_2 C1_2 1_555 1_555
C20_2 H27_2 1_555 1_555
C21_2 C15_2 1_555 1_555
C22_2 C15_2 1_555 1_555
C23_2 C15_2 1_555 1_555
H28_2 C21_2 1_555 1_555
H29_2 C22_2 1_555 1_555
H30_2 C23_2 1_555 1_555
H35_2 C17_2 1_555 1_555
H38_2 C20_2 1_555 1_555
H39_2 C21_2 1_555 1_555
H40_2 C22_2 1_555 1_555
H41_2 C23_2 1_555 1_555
C28_2 O35_2 1_555 1_555
C31_2 O38_2 1_555 1_555
C32_2 O39_2 1_555 1_555
C33_2 O40_2 1_555 1_555
C34_2 O41_2 1_555 1_555
C39_2 C28_2 1_555 1_555
C42_2 C31_2 1_555 1_555
C43_2 C32_2 1_555 1_555
C44_2 C33_2 1_555 1_555
C45_2 C34_2 1_555 1_555
H46_2 C39_2 1_555 1_555
H49_2 C42_2 1_555 1_555
H50_2 C43_2 1_555 1_555
H51_2 C44_2 1_555 1_555
H52_2 C45_2 1_555 1_555
C50_2 C39_2 1_555 1_555
C53_2 C42_2 1_555 1_555
C54_2 C43_2 1_555 1_555
C55_2 C44_2 1_555 1_555
C56_2 C45_2 1_555 1_555
H57_2 C50_2 1_555 1_555
H60_2 C53_2 1_555 1_555
H61_2 C54_2 1_555 1_555
H62_2 C55_2 1_555 1_555
H63_2 C56_2 1_555 1_555
C61_2 C50_2 1_555 1_555
C65_2 C54_2 1_555 1_555
C67_2 C56_2 1_555 1_555
H68_2 C61_2 1_555 1_555
H72_2 C65_2 1_555 1_555
H74_2 C67_2 1_555 1_555
C72_2 C61_2 1_555 1_555
C76_2 C65_2 1_555 1_555
C78_2 C67_2 1_555 1_555
H79_2 C72_2 1_555 1_555
H83_2 C76_2 1_555 1_555
H85_2 C78_2 1_555 1_555
C83_2 C28_2 1_555 1_555
C86_2 C31_2 1_555 1_555
C87_2 C32_2 1_555 1_555
C88_2 C33_2 1_555 1_555
C89_2 C34_2 1_555 1_555
C94_2 N3_2 1_555 1_555
C97_2 N6_2 1_555 1_555
C98_2 N7_2 1_555 1_555
C99_2 N8_2 1_555 1_555
C100_2 N9_2 1_555 1_555
C105_2 N3_2 1_555 1_555
C106_2 N4_2 1_555 1_555
C108_2 N6_2 1_555 1_555
C109_2 N7_2 1_555 1_555
C110_2 N8_2 1_555 1_555
C111_2 N9_2 1_555 1_555
H90_2 C105_2 1_555 1_555
H91_2 C106_2 1_555 1_555
H94_2 C109_2 1_555 1_555
H96_2 C111_2 1_555 1_555
H101_2 C105_2 1_555 1_555
H102_2 C106_2 1_555 1_555
H104_2 C108_2 1_555 1_555
H105_2 C109_2 1_555 1_555
H106_2 C110_2 1_555 1_555
H107_2 C111_2 1_555 1_555
C116_2 C105_2 1_555 1_555
C117_2 C106_2 1_555 1_555
C119_2 C108_2 1_555 1_555
C120_2 C109_2 1_555 1_555
C121_2 C110_2 1_555 1_555
C122_2 C111_2 1_555 1_555
C127_2 C116_2 1_555 1_555
C128_2 C117_2 1_555 1_555
C130_2 C119_2 1_555 1_555
C131_2 C120_2 1_555 1_555
C132_2 C121_2 1_555 1_555
C133_2 C122_2 1_555 1_555
H112_2 C127_2 1_555 1_555
H113_2 C128_2 1_555 1_555
H115_2 C130_2 1_555 1_555
H116_2 C131_2 1_555 1_555
H117_2 C132_2 1_555 1_555
H118_2 C133_2 1_555 1_555
C138_2 C127_2 1_555 1_555
C139_2 C128_2 1_555 1_555
C141_2 C130_2 1_555 1_555
C142_2 C131_2 1_555 1_555
C143_2 C132_2 1_555 1_555
C144_2 C133_2 1_555 1_555
H123_2 C138_2 1_555 1_555
H124_2 C139_2 1_555 1_555
H126_2 C141_2 1_555 1_555
H127_2 C142_2 1_555 1_555
H128_2 C143_2 1_555 1_555
H129_2 C144_2 1_555 1_555
C149_2 O24_2 1_555 1_555
C150_2 O25_2 1_555 1_555
C152_2 O27_2 1_555 1_555
C153_2 O28_2 1_555 1_555
C154_2 O29_2 1_555 1_555
C155_2 O30_2 1_555 1_555
H134_2 C149_2 1_555 1_555
H135_2 C150_2 1_555 1_555
H137_2 C152_2 1_555 1_555
H138_2 C153_2 1_555 1_555
H139_2 C154_2 1_555 1_555
H140_2 C155_2 1_555 1_555
N2_2 O5_2 1_555 1_555
C7_2 C8_2 1_555 1_555
C8_2 C9_2 1_555 1_555
N14_2 O57_2 1_555 1_555
N15_2 O58_2 1_555 1_555
N16_2 O59_2 1_555 1_555
N17_2 O60_2 1_555 1_555
N18_2 O61_2 1_555 1_555
O10_2 C97_2 1_555 1_555
C72_2 C83_2 1_555 1_555
C76_2 C87_2 1_555 1_555
C78_2 C89_2 1_555 1_555
C83_2 C94_2 1_555 1_555
C86_2 C97_2 1_555 1_555
C87_2 C98_2 1_555 1_555
C88_2 C99_2 1_555 1_555
C89_2 C100_2 1_555 1_555
C138_2 C149_2 1_555 1_555
C139_2 C150_2 1_555 1_555
C141_2 C152_2 1_555 1_555
C142_2 C153_2 1_555 1_555
C143_2 C154_2 1_555 1_555
C144_2 C155_2 1_555 1_555
N20_2 O52_2 1_555 1_555
O20_2 Eu3_2 1_555 1_555
O52_2 Eu3_2 1_555 1_555
O62_2 Eu3_2 1_555 1_555
O63_2 Eu3_2 1_555 1_555
O64_2 Eu3_2 1_555 1_555
O73_2 N19_2 1_555 1_555
O74_2 N20_2 1_555 1_555
O75_2 N21_2 1_555 1_555
N19_2 O62_2 1_555 1_555
N20_2 O63_2 1_555 1_555
N21_2 O64_2 1_555 1_555
N1_2 H1_2 1_555 1_555
O2_2 C11_2 1_555 1_555
C10_2 N1_2 1_555 1_555
H8_2 C10_2 1_555 1_555
H9_2 C10_2 1_555 1_555
C11_2 C10_2 1_555 1_555
C12_2 C11_2 1_555 1_555
H10_2 C12_2 1_555 1_555
C13_2 C12_2 1_555 1_555
H11_2 C13_2 1_555 1_555
C14_2 O2_2 1_555 1_555
H12_2 C14_2 1_555 1_555
Eu10 O9_2 1_555 1_555
Eu8_2 O15_2 1_555 1_555
Eu6 O16_2 1_555 1_555
N5_2 H15_2 1_555 1_555
N10_2 H20_2 1_555 1_555
N11_2 H21_2 1_555 1_555
N12_2 H22_2 1_555 1_555
N13_2 H23_2 1_555 1_555
N22_2 O54_2 1_555 1_555
N23_2 O55_2 1_555 1_555
N24_2 O56_2 1_555 1_555
O8_2 C95_2 1_555 1_555
O9_2 C96_2 1_555 1_555
O15_2 C102_2 1_555 1_555
O16_2 C103_2 1_555 1_555
O22 C104_2 1_555 1_555
O23_2 Eu10 1_555 1_555
O26_2 C118_2 1_555 1_555
O31_2 C123_2 1_555 1_555
O32_2 C124_2 1_555 1_555
O33_2 C125_2 1_555 1_555
O34_2 C126_2 1_555 1_555
O36_2 C18_2 1_555 1_555
O37_2 C19_2 1_555 1_555
O42_2 C24_2 1_555 1_555
O43_2 C25_2 1_555 1_555
O44_2 C26_2 1_555 1_555
O45_2 C27_2 1_555 1_555
O54_2 Eu10 1_555 1_555
O55_2 Eu10 1_555 1_555
O56_2 Eu10 1_555 1_555
O65_2 Eu10 1_555 1_555
O66_2 Eu10 1_555 1_555
O67_2 Eu10 1_555 1_555
O76_2 N22_2 1_555 1_555
O77_2 N23_2 1_555 1_555
O78_2 N24_2 1_555 1_555
C16_3 C24_2 1_555 1_555
C18_2 C1_3 1_555 1_555
C19_2 C1_3 1_555 1_555
C24_2 H31_2 1_555 1_555
C25_2 C16_3 1_555 1_555
C26_2 C16_3 1_555 1_555
C27_2 C16_3 1_555 1_555
H25_2 C18_2 1_555 1_555
H32_2 C25_2 1_555 1_555
H33_2 C26_2 1_555 1_555
H34_2 C27_2 1_555 1_555
H36_2 C18_2 1_555 1_555
H37_2 C19_2 1_555 1_555
H42_2 C24_2 1_555 1_555
H43_2 C25_2 1_555 1_555
H44_2 C26_2 1_555 1_555
H45_2 C27_2 1_555 1_555
C29_2 O36_2 1_555 1_555
C30_2 O37_2 1_555 1_555
C35_2 O42_2 1_555 1_555
C36_2 O43_2 1_555 1_555
C37_2 O44_2 1_555 1_555
C38_2 O45_2 1_555 1_555
C40_2 C29_2 1_555 1_555
C41_2 C30_2 1_555 1_555
C46_2 C35_2 1_555 1_555
C47_2 C36_2 1_555 1_555
C48_2 C37_2 1_555 1_555
C49_2 C38_2 1_555 1_555
H47_2 C40_2 1_555 1_555
H48_2 C41_2 1_555 1_555
H53_2 C46_2 1_555 1_555
H54_2 C47_2 1_555 1_555
H55_2 C48_2 1_555 1_555
H56_2 C49_2 1_555 1_555
C51_2 C40_2 1_555 1_555
C52_2 C41_2 1_555 1_555
C57_2 C46_2 1_555 1_555
C58_2 C47_2 1_555 1_555
C59_2 C48_2 1_555 1_555
C60_2 C49_2 1_555 1_555
H58_2 C51_2 1_555 1_555
H59_2 C52_2 1_555 1_555
H64_2 C57_2 1_555 1_555
H65_2 C58_2 1_555 1_555
H66_2 C59_2 1_555 1_555
H67_2 C60_2 1_555 1_555
C62_2 C51_2 1_555 1_555
C63_2 C52_2 1_555 1_555
C68_2 C57_2 1_555 1_555
C69_2 C58_2 1_555 1_555
C70_2 C59_2 1_555 1_555
C71_2 C60_2 1_555 1_555
H69_2 C62_2 1_555 1_555
H70_2 C63_2 1_555 1_555
H71_2 C64_2 1_555 1_555
H73_2 C66_2 1_555 1_555
H75_2 C68_2 1_555 1_555
H76_2 C69_2 1_555 1_555
H77_2 C70_2 1_555 1_555
H78_2 C71_2 1_555 1_555
C73_2 C62_2 1_555 1_555
C74_2 C63_2 1_555 1_555
C75_2 C64_2 1_555 1_555
C77_2 C66_2 1_555 1_555
C79_2 C68_2 1_555 1_555
C80_2 C69_2 1_555 1_555
C81_2 C70_2 1_555 1_555
C82_2 C71_2 1_555 1_555
H80_2 C73_2 1_555 1_555
H81_2 C74_2 1_555 1_555
H82_2 C75_2 1_555 1_555
H84_2 C77_2 1_555 1_555
H86_2 C79_2 1_555 1_555
H87_2 C80_2 1_555 1_555
H88_2 C81_2 1_555 1_555
H89_2 C82_2 1_555 1_555
C84_2 C29_2 1_555 1_555
C85_2 C30_2 1_555 1_555
C90_2 C35_2 1_555 1_555
C91_2 C36_2 1_555 1_555
C92_2 C37_2 1_555 1_555
C93_2 C38_2 1_555 1_555
C96_2 N5_2 1_555 1_555
C101_2 N10_2 1_555 1_555
C102_2 N11_2 1_555 1_555
C103_2 N12_2 1_555 1_555
C104_2 N13_2 1_555 1_555
C107_2 N5_2 1_555 1_555
C112_2 N10_2 1_555 1_555
C113_2 N11_2 1_555 1_555
C114_2 N12_2 1_555 1_555
C115_2 N13_2 1_555 1_555
H92_2 C107_2 1_555 1_555
H97_2 C112_2 1_555 1_555
H98_2 C113_2 1_555 1_555
H99_2 C114_2 1_555 1_555
H100_2 C115_2 1_555 1_555
H103_2 C107_2 1_555 1_555
H108_2 C112_2 1_555 1_555
H109_2 C113_2 1_555 1_555
H110_2 C114_2 1_555 1_555
H111_2 C115_2 1_555 1_555
C118_2 C107_2 1_555 1_555
C123_2 C112_2 1_555 1_555
C124_2 C113_2 1_555 1_555
C125_2 C114_2 1_555 1_555
C126_2 C115_2 1_555 1_555
C129_2 C118_2 1_555 1_555
C134_2 C123_2 1_555 1_555
C135_2 C124_2 1_555 1_555
C136_2 C125_2 1_555 1_555
C137_2 C126_2 1_555 1_555
H114_2 C129_2 1_555 1_555
H119_2 C134_2 1_555 1_555
H120_2 C135_2 1_555 1_555
H121_2 C136_2 1_555 1_555
H122_2 C137_2 1_555 1_555
C140_2 C129_2 1_555 1_555
C145_2 C134_2 1_555 1_555
C146_2 C135_2 1_555 1_555
C147_2 C136_2 1_555 1_555
C148_2 C137_2 1_555 1_555
H125_2 C140_2 1_555 1_555
H130_2 C145_2 1_555 1_555
H131_2 C146_2 1_555 1_555
H132_2 C147_2 1_555 1_555
H133_2 C148_2 1_555 1_555
C151_2 O26_2 1_555 1_555
C156_2 O31_2 1_555 1_555
C157_2 O32_2 1_555 1_555
C158_2 O33_2 1_555 1_555
C159_2 O34_2 1_555 1_555
H136_2 C151_2 1_555 1_555
H141_2 C156_2 1_555 1_555
H142_2 C157_2 1_555 1_555
H143_2 C158_2 1_555 1_555
H144_2 C159_2 1_555 1_555
C13_2 C14_2 1_555 1_555
N22_2 O65_2 1_555 1_555
N23_2 O66_2 1_555 1_555
N24_2 O67_2 1_555 1_555
O14_2 C101_2 1_555 1_555
C73_2 C84_2 1_555 1_555
C74_2 C85_2 1_555 1_555
C79_2 C90_2 1_555 1_555
C80_2 C91_2 1_555 1_555
C81_2 C92_2 1_555 1_555
C82_2 C93_2 1_555 1_555
C84_2 C95_2 1_555 1_555
C85_2 C96_2 1_555 1_555
C90_2 C101_2 1_555 1_555
C91_2 C102_2 1_555 1_555
C92_2 C103_2 1_555 1_555
C93_2 C104_2 1_555 1_555
C140_2 C151_2 1_555 1_555
C145_2 C156_2 1_555 1_555
C146_2 C157_2 1_555 1_555
C147_2 C158_2 1_555 1_555
C148_2 C159_2 1_555 1_555
O5_3 Eu1_3 1_555 1_555
O6_3 N2_3 1_555 1_555
Eu8_2 O11_2 1_555 1_555
Eu7 O17_2 1_555 1_555
N7_3 H17_3 1_555 1_555
N8_3 H18_3 1_555 1_555
N10_3 H20_3 1_555 1_555
N11_3 H21_3 1_555 1_555
N12_3 H22_3 1_555 1_555
N13_3 H23_3 1_555 1_555
N14_3 O46_3 1_555 1_555
N15_3 O47_3 1_555 1_555
O10_3 Eu1_3 1_555 1_555
O11_2 C98_3 1_555 1_555
O14_3 Eu1_3 1_555 1_555
O18 C102_3 1_555 1_555
O21_2 C103_3 1_555 1_555
O17_2 C104_3 1_555 1_555
O28_3 C120_3 1_555 1_555
O29_3 C121_3 1_555 1_555
O31_3 C123_3 1_555 1_555
O32_3 C124_3 1_555 1_555
O33_3 C125_3 1_555 1_555
O34_3 C126_3 1_555 1_555
O38_3 C20_3 1_555 1_555
O39_3 C21_3 1_555 1_555
O42_3 C24_3 1_555 1_555
O43_3 C25_3 1_555 1_555
O44_3 C26_3 1_555 1_555
O45_3 C27_3 1_555 1_555
O46_3 Eu1_3 1_555 1_555
O47_3 Eu1_3 1_555 1_555
O57_3 Eu1_3 1_555 1_555
O58_3 Eu1_3 1_555 1_555
O68_3 N14_3 1_555 1_555
O69_3 N15_3 1_555 1_555
C15_3 C20_3 1_555 1_555
C16_4 C24_3 1_555 1_555
C20_3 H27_3 1_555 1_555
C21_3 C15_3 1_555 1_555
C24_3 H31_3 1_555 1_555
C25_3 C16_4 1_555 1_555
C26_3 C16_4 1_555 1_555
C27_3 C16_4 1_555 1_555
H32_3 C25_3 1_555 1_555
H33_3 C26_3 1_555 1_555
H34_3 C27_3 1_555 1_555
H38_3 C20_3 1_555 1_555
H39_3 C21_3 1_555 1_555
H42_3 C24_3 1_555 1_555
H43_3 C25_3 1_555 1_555
H44_3 C26_3 1_555 1_555
H45_3 C27_3 1_555 1_555
C31_3 O38_3 1_555 1_555
C32_3 O39_3 1_555 1_555
C35_3 O42_3 1_555 1_555
C36_3 O43_3 1_555 1_555
C37_3 O44_3 1_555 1_555
C38_3 O45_3 1_555 1_555
C42_3 C31_3 1_555 1_555
C43_3 C32_3 1_555 1_555
C46_3 C35_3 1_555 1_555
C47_3 C36_3 1_555 1_555
C48_3 C37_3 1_555 1_555
C49_3 C38_3 1_555 1_555
H49_3 C42_3 1_555 1_555
H50_3 C43_3 1_555 1_555
H53_3 C46_3 1_555 1_555
H54_3 C47_3 1_555 1_555
H55_3 C48_3 1_555 1_555
H56_3 C49_3 1_555 1_555
C53_3 C42_3 1_555 1_555
C54_3 C43_3 1_555 1_555
C57_3 C46_3 1_555 1_555
C58_3 C47_3 1_555 1_555
C59_3 C48_3 1_555 1_555
C60_3 C49_3 1_555 1_555
H60_3 C53_3 1_555 1_555
H61_3 C54_3 1_555 1_555
H64_3 C57_3 1_555 1_555
H65_3 C58_3 1_555 1_555
H66_3 C59_3 1_555 1_555
H67_3 C60_3 1_555 1_555
C64_3 C53_3 1_555 1_555
C65_3 C54_3 1_555 1_555
C69_3 C58_3 1_555 1_555
C71_3 C60_3 1_555 1_555
H71_3 C64_3 1_555 1_555
H72_3 C65_3 1_555 1_555
H76_3 C69_3 1_555 1_555
H78_3 C71_3 1_555 1_555
C75_3 C64_3 1_555 1_555
C76_3 C65_3 1_555 1_555
C80_3 C69_3 1_555 1_555
C82_3 C71_3 1_555 1_555
H82_3 C75_3 1_555 1_555
H83_3 C76_3 1_555 1_555
H87_3 C80_3 1_555 1_555
H89_3 C82_3 1_555 1_555
C86_3 C31_3 1_555 1_555
C87_3 C32_3 1_555 1_555
C90_3 C35_3 1_555 1_555
C91_3 C36_3 1_555 1_555
C92_3 C37_3 1_555 1_555
C93_3 C38_3 1_555 1_555
C98_3 N7_3 1_555 1_555
C101_3 N10_3 1_555 1_555
C102_3 N11_3 1_555 1_555
C103_3 N12_3 1_555 1_555
C104_3 N13_3 1_555 1_555
C109_3 N7_3 1_555 1_555
C110_3 N8_3 1_555 1_555
C112_3 N10_3 1_555 1_555
C113_3 N11_3 1_555 1_555
C114_3 N12_3 1_555 1_555
C115_3 N13_3 1_555 1_555
H94_3 C109_3 1_555 1_555
H95_3 C110_3 1_555 1_555
H98_3 C113_3 1_555 1_555
H100_3 C115_3 1_555 1_555
H105_3 C109_3 1_555 1_555
H106_3 C110_3 1_555 1_555
H108_3 C112_3 1_555 1_555
H109_3 C113_3 1_555 1_555
H110_3 C114_3 1_555 1_555
H111_3 C115_3 1_555 1_555
C120_3 C109_3 1_555 1_555
C121_3 C110_3 1_555 1_555
C123_3 C112_3 1_555 1_555
C124_3 C113_3 1_555 1_555
C125_3 C114_3 1_555 1_555
C126_3 C115_3 1_555 1_555
C131_3 C120_3 1_555 1_555
C132_3 C121_3 1_555 1_555
C134_3 C123_3 1_555 1_555
C135_3 C124_3 1_555 1_555
C136_3 C125_3 1_555 1_555
C137_3 C126_3 1_555 1_555
H116_3 C131_3 1_555 1_555
H117_3 C132_3 1_555 1_555
H119_3 C134_3 1_555 1_555
H120_3 C135_3 1_555 1_555
H121_3 C136_3 1_555 1_555
H122_3 C137_3 1_555 1_555
C142_3 C131_3 1_555 1_555
C143_3 C132_3 1_555 1_555
C145_3 C134_3 1_555 1_555
C146_3 C135_3 1_555 1_555
C147_3 C136_3 1_555 1_555
C148_3 C137_3 1_555 1_555
H127_3 C142_3 1_555 1_555
H128_3 C143_3 1_555 1_555
H130_3 C145_3 1_555 1_555
H131_3 C146_3 1_555 1_555
H132_3 C147_3 1_555 1_555
H133_3 C148_3 1_555 1_555
C153_3 O28_3 1_555 1_555
C154_3 O29_3 1_555 1_555
C156_3 O31_3 1_555 1_555
C157_3 O32_3 1_555 1_555
C158_3 O33_3 1_555 1_555
C159_3 O34_3 1_555 1_555
H138_3 C153_3 1_555 1_555
H139_3 C154_3 1_555 1_555
H141_3 C156_3 1_555 1_555
H142_3 C157_3 1_555 1_555
H143_3 C158_3 1_555 1_555
H144_3 C159_3 1_555 1_555
N2_3 O5_3 1_555 1_555
N14_3 O57_3 1_555 1_555
N15_3 O58_3 1_555 1_555
O10_3 C97_3 1_555 1_555
O14_3 C101_3 1_555 1_555
C75_3 C86_3 1_555 1_555
C76_3 C87_3 1_555 1_555
C80_3 C91_3 1_555 1_555
C82_3 C93_3 1_555 1_555
C86_3 C97_3 1_555 1_555
C87_3 C98_3 1_555 1_555
C90_3 C101_3 1_555 1_555
C91_3 C102_3 1_555 1_555
C92_3 C103_3 1_555 1_555
C93_3 C104_3 1_555 1_555
C142_3 C153_3 1_555 1_555
C143_3 C154_3 1_555 1_555
C145_3 C156_3 1_555 1_555
C146_3 C157_3 1_555 1_555
C147_3 C158_3 1_555 1_555
C148_3 C159_3 1_555 1_555
N1_3 H1_3 1_555 1_555
O1_3 C9_3 1_555 1_555
O2_3 C11_3 1_555 1_555
O3_3 C2_3 1_555 1_555
C1_4 C2_3 1_555 1_555
C2_3 H2_3 1_555 1_555
H3_3 C2_3 1_555 1_555
C3_3 O3_3 1_555 1_555
C4_3 C3_3 1_555 1_555
H4_3 C4_3 1_555 1_555
C5_3 C4_3 1_555 1_555
H5_3 C5_3 1_555 1_555
C6_3 C5_3 1_555 1_555
H6_3 C6_3 1_555 1_555
C7_3 C6_3 1_555 1_555
H7_3 C7_3 1_555 1_555
C8_3 C3_3 1_555 1_555
C9_3 N1_3 1_555 1_555
C10_3 N1_3 1_555 1_555
H8_3 C10_3 1_555 1_555
H9_3 C10_3 1_555 1_555
C11_3 C10_3 1_555 1_555
C12_3 C11_3 1_555 1_555
H10_3 C12_3 1_555 1_555
C13_3 C12_3 1_555 1_555
H11_3 C13_3 1_555 1_555
C14_3 O2_3 1_555 1_555
H12_3 C14_3 1_555 1_555
Eu8 O7_3 1_555 1_555
Eu6 O8_3 1_555 1_555
Eu7_2 O9_3 1_555 1_555
N3_3 H13_3 1_555 1_555
N4_3 H14_3 1_555 1_555
N5_3 H15_3 1_555 1_555
N6_3 H16_3 1_555 1_555
N9_3 H19_3 1_555 1_555
N16_3 O48_3 1_555 1_555
N17_3 O49_3 1_555 1_555
N18_3 O50_3 1_555 1_555
N19_3 O51_3 1_555 1_555
N20_3 O52_3 1_555 1_555
N21_3 O53_3 1_555 1_555
N22_3 O54_3 1_555 1_555
N23_3 O55_3 1_555 1_555
N24_3 O56_3 1_555 1_555
O7_3 C94_3 1_555 1_555
O8_3 C95_3 1_555 1_555
O9_3 C96_3 1_555 1_555
O20 C99_3 1_555 1_555
O23_2 C100_3 1_555 1_555
O19_2 Eu8 1_555 1_555
O22_2 Eu7_2 1_555 1_555
O24_3 C116_3 1_555 1_555
O25_3 C117_3 1_555 1_555
O26_3 C118_3 1_555 1_555
O27_3 C119_3 1_555 1_555
O30_3 C122_3 1_555 1_555
O35_3 C17_3 1_555 1_555
O36_3 C18_3 1_555 1_555
O37_3 C19_3 1_555 1_555
O40_3 C22_3 1_555 1_555
O41_3 C23_3 1_555 1_555
O48_3 Eu8 1_555 1_555
O49_3 Eu8 1_555 1_555
O50_3 Eu8 1_555 1_555
O51_3 Eu6 1_555 1_555
O52_3 Eu6 1_555 1_555
O53_3 Eu6 1_555 1_555
O54_3 Eu7_2 1_555 1_555
O55_3 Eu7_2 1_555 1_555
O56_3 Eu7_2 1_555 1_555
O59_3 Eu8 1_555 1_555
O60_3 Eu8 1_555 1_555
O61_3 Eu8 1_555 1_555
O62_3 Eu6 1_555 1_555
O63_3 Eu6 1_555 1_555
O64_3 Eu6 1_555 1_555
O65_3 Eu7_2 1_555 1_555
O66_3 Eu7_2 1_555 1_555
O67_3 Eu7_2 1_555 1_555
O70_3 N16_3 1_555 1_555
O71_3 N17_3 1_555 1_555
O72_3 N18_3 1_555 1_555
O73_3 N19_3 1_555 1_555
O74_3 N20_3 1_555 1_555
O75_3 N21_3 1_555 1_555
O76_3 N22_3 1_555 1_555
O77_3 N23_3 1_555 1_555
O78_3 N24_3 1_555 1_555
C17_3 C1_4 1_555 1_555
C18_3 C1_4 1_555 1_555
C19_3 C1_4 1_555 1_555
C22_3 C15_4 1_555 1_555
C23_3 C15_4 1_555 1_555
H24_3 C17_3 1_555 1_555
H25_3 C18_3 1_555 1_555
H26_3 C19_3 1_555 1_555
H29_3 C22_3 1_555 1_555
H35_3 C17_3 1_555 1_555
H36_3 C18_3 1_555 1_555
H37_3 C19_3 1_555 1_555
H40_3 C22_3 1_555 1_555
H41_3 C23_3 1_555 1_555
C28_3 O35_3 1_555 1_555
C29_3 O36_3 1_555 1_555
C30_3 O37_3 1_555 1_555
C33_3 O40_3 1_555 1_555
C34_3 O41_3 1_555 1_555
C39_3 C28_3 1_555 1_555
C40_3 C29_3 1_555 1_555
C41_3 C30_3 1_555 1_555
C44_3 C33_3 1_555 1_555
C45_3 C34_3 1_555 1_555
H46_3 C39_3 1_555 1_555
H47_3 C40_3 1_555 1_555
H48_3 C41_3 1_555 1_555
H51_3 C44_3 1_555 1_555
H52_3 C45_3 1_555 1_555
C50_3 C39_3 1_555 1_555
C51_3 C40_3 1_555 1_555
C52_3 C41_3 1_555 1_555
C55_3 C44_3 1_555 1_555
C56_3 C45_3 1_555 1_555
H57_3 C50_3 1_555 1_555
H58_3 C51_3 1_555 1_555
H59_3 C52_3 1_555 1_555
H62_3 C55_3 1_555 1_555
H63_3 C56_3 1_555 1_555
C61_3 C50_3 1_555 1_555
C62_3 C51_3 1_555 1_555
C63_3 C52_3 1_555 1_555
C66_3 C55_3 1_555 1_555
C67_3 C56_3 1_555 1_555
H68_3 C61_3 1_555 1_555
H69_3 C62_3 1_555 1_555
H70_3 C63_3 1_555 1_555
H73_3 C66_3 1_555 1_555
H74_3 C67_3 1_555 1_555
H75_3 C68_3 1_555 1_555
H77_3 C70_3 1_555 1_555
C72_3 C61_3 1_555 1_555
C73_3 C62_3 1_555 1_555
C74_3 C63_3 1_555 1_555
C77_3 C66_3 1_555 1_555
C78_3 C67_3 1_555 1_555
C79_3 C68_3 1_555 1_555
C81_3 C70_3 1_555 1_555
H79_3 C72_3 1_555 1_555
H80_3 C73_3 1_555 1_555
H81_3 C74_3 1_555 1_555
H84_3 C77_3 1_555 1_555
H85_3 C78_3 1_555 1_555
H86_3 C79_3 1_555 1_555
H88_3 C81_3 1_555 1_555
C83_3 C28_3 1_555 1_555
C84_3 C29_3 1_555 1_555
C85_3 C30_3 1_555 1_555
C88_3 C33_3 1_555 1_555
C89_3 C34_3 1_555 1_555
C94_3 N3_3 1_555 1_555
C95_3 N4_3 1_555 1_555
C96_3 N5_3 1_555 1_555
C100_3 N9_3 1_555 1_555
C105_3 N3_3 1_555 1_555
C106_3 N4_3 1_555 1_555
C107_3 N5_3 1_555 1_555
C108_3 N6_3 1_555 1_555
C111_3 N9_3 1_555 1_555
H90_3 C105_3 1_555 1_555
H91_3 C106_3 1_555 1_555
H92_3 C107_3 1_555 1_555
H93_3 C108_3 1_555 1_555
H96_3 C111_3 1_555 1_555
H101_3 C105_3 1_555 1_555
H102_3 C106_3 1_555 1_555
H103_3 C107_3 1_555 1_555
H104_3 C108_3 1_555 1_555
H107_3 C111_3 1_555 1_555
C116_3 C105_3 1_555 1_555
C117_3 C106_3 1_555 1_555
C118_3 C107_3 1_555 1_555
C119_3 C108_3 1_555 1_555
C122_3 C111_3 1_555 1_555
C127_3 C116_3 1_555 1_555
C128_3 C117_3 1_555 1_555
C129_3 C118_3 1_555 1_555
C130_3 C119_3 1_555 1_555
C133_3 C122_3 1_555 1_555
H112_3 C127_3 1_555 1_555
H113_3 C128_3 1_555 1_555
H114_3 C129_3 1_555 1_555
H115_3 C130_3 1_555 1_555
H118_3 C133_3 1_555 1_555
C138_3 C127_3 1_555 1_555
C139_3 C128_3 1_555 1_555
C140_3 C129_3 1_555 1_555
C141_3 C130_3 1_555 1_555
C144_3 C133_3 1_555 1_555
H123_3 C138_3 1_555 1_555
H124_3 C139_3 1_555 1_555
H125_3 C140_3 1_555 1_555
H126_3 C141_3 1_555 1_555
H129_3 C144_3 1_555 1_555
C149_3 O24_3 1_555 1_555
C150_3 O25_3 1_555 1_555
C151_3 O26_3 1_555 1_555
C152_3 O27_3 1_555 1_555
C155_3 O30_3 1_555 1_555
H134_3 C149_3 1_555 1_555
H135_3 C150_3 1_555 1_555
H136_3 C151_3 1_555 1_555
H137_3 C152_3 1_555 1_555
H140_3 C155_3 1_555 1_555
C7_3 C8_3 1_555 1_555
C8_3 C9_3 1_555 1_555
C13_3 C14_3 1_555 1_555
N16_3 O59_3 1_555 1_555
N17_3 O60_3 1_555 1_555
N18_3 O61_3 1_555 1_555
N19_3 O62_3 1_555 1_555
N20_3 O63_3 1_555 1_555
N21_3 O64_3 1_555 1_555
N22_3 O65_3 1_555 1_555
N23_3 O66_3 1_555 1_555
N24_3 O67_3 1_555 1_555
C72_3 C83_3 1_555 1_555
C73_3 C84_3 1_555 1_555
C74_3 C85_3 1_555 1_555
C77_3 C88_3 1_555 1_555
C78_3 C89_3 1_555 1_555
C83_3 C94_3 1_555 1_555
C84_3 C95_3 1_555 1_555
C85_3 C96_3 1_555 1_555
C88_3 C99_3 1_555 1_555
C89_3 C100_3 1_555 1_555
C138_3 C149_3 1_555 1_555
C139_3 C150_3 1_555 1_555
C140_3 C151_3 1_555 1_555
C141_3 C152_3 1_555 1_555
C144_3 C155_3 1_555 1_555
H69_4 C62_4 1_555 1_555
H73_4 C66_4 1_555 1_555
H77_4 C70_4 1_555 1_555
C73_4 C62_4 1_555 1_555
C77_4 C66_4 1_555 1_555
C81_4 C70_4 1_555 1_555
H80_4 C73_4 1_555 1_555
H84_4 C77_4 1_555 1_555
H88_4 C81_4 1_555 1_555
N1_4 H1_4 1_555 1_555
O2_4 C11_4 1_555 1_555
C10_4 N1_4 1_555 1_555
H9_4 C10_4 1_555 1_555
C11_4 C10_4 1_555 1_555
C12_4 C11_4 1_555 1_555
H10_4 C12_4 1_555 1_555
C13_4 C12_4 1_555 1_555
H11_4 C13_4 1_555 1_555
C14_4 O2_4 1_555 1_555
H12_4 C14_4 1_555 1_555
Eu9 O8_4 1_555 1_555
Eu7 O9_4 1_555 1_555
N5_4 H15_4 1_555 1_555
N19_4 O51_4 1_555 1_555
N22_4 O54_4 1_555 1_555
N23_4 O55_4 1_555 1_555
N24_4 O56_4 1_555 1_555
O8_4 C95_4 1_555 1_555
O9_4 C96_4 1_555 1_555
O26_4 C118_4 1_555 1_555
O36_4 C18_4 1_555 1_555
O37_4 C19_4 1_555 1_555
O51_4 Eu9 1_555 1_555
O54_4 Eu7 1_555 1_555
O55_4 Eu7 1_555 1_555
O56_4 Eu7 1_555 1_555
O62_4 Eu9 1_555 1_555
O63_4 Eu9 1_555 1_555
O64_4 Eu9 1_555 1_555
O65_4 Eu7 1_555 1_555
O66_4 Eu7 1_555 1_555
O67_4 Eu7 1_555 1_555
O73_4 N19_4 1_555 1_555
O74_4 N20_4 1_555 1_555
O75_4 N21_4 1_555 1_555
O76_4 N22_4 1_555 1_555
O77_4 N23_4 1_555 1_555
O78_4 N24_4 1_555 1_555
C18_4 C1_5 1_555 1_555
C19_4 C1_5 1_555 1_555
H25_4 C18_4 1_555 1_555
H36_4 C18_4 1_555 1_555
H37_4 C19_4 1_555 1_555
C29_4 O36_4 1_555 1_555
C30_4 O37_4 1_555 1_555
C40_4 C29_4 1_555 1_555
C41_4 C30_4 1_555 1_555
H47_4 C40_4 1_555 1_555
H48_4 C41_4 1_555 1_555
C51_4 C40_4 1_555 1_555
C52_4 C41_4 1_555 1_555
H58_4 C51_4 1_555 1_555
H59_4 C52_4 1_555 1_555
C63_4 C52_4 1_555 1_555
H70_4 C63_4 1_555 1_555
H75_4 C68_4 1_555 1_555
C74_4 C63_4 1_555 1_555
C79_4 C68_4 1_555 1_555
H81_4 C74_4 1_555 1_555
H86_4 C79_4 1_555 1_555
C84_4 C29_4 1_555 1_555
C85_4 C30_4 1_555 1_555
C96_4 N5_4 1_555 1_555
C107_4 N5_4 1_555 1_555
H92_4 C107_4 1_555 1_555
H103_4 C107_4 1_555 1_555
C118_4 C107_4 1_555 1_555
C129_4 C118_4 1_555 1_555
H114_4 C129_4 1_555 1_555
C140_4 C129_4 1_555 1_555
H125_4 C140_4 1_555 1_555
C151_4 O26_4 1_555 1_555
H136_4 C151_4 1_555 1_555
C13_4 C14_4 1_555 1_555
N19_4 O62_4 1_555 1_555
N20_4 O63_4 1_555 1_555
N21_4 O64_4 1_555 1_555
N22_4 O65_4 1_555 1_555
N23_4 O66_4 1_555 1_555
N24_4 O67_4 1_555 1_555
C74_4 C85_4 1_555 1_555
C84_4 C95_4 1_555 1_555
C85_4 C96_4 1_555 1_555
C140_4 C151_4 1_555 1_555
N10_4 H20_4 1_555 1_555
N13_4 H23_4 1_555 1_555
O21 C103_4 1_555 1_555
O22_2 C104_4 1_555 1_555
O31_4 C123_4 1_555 1_555
O34_4 C126_4 1_555 1_555
O44_4 C26_4 1_555 1_555
O45_4 C27_4 1_555 1_555
C26_4 C16_5 1_555 1_555
C27_4 C16_5 1_555 1_555
H33_4 C26_4 1_555 1_555
H44_4 C26_4 1_555 1_555
H45_4 C27_4 1_555 1_555
C37_4 O44_4 1_555 1_555
C38_4 O45_4 1_555 1_555
C48_4 C37_4 1_555 1_555
C49_4 C38_4 1_555 1_555
H55_4 C48_4 1_555 1_555
H56_4 C49_4 1_555 1_555
C59_4 C48_4 1_555 1_555
C60_4 C49_4 1_555 1_555
H66_4 C59_4 1_555 1_555
H67_4 C60_4 1_555 1_555
C71_4 C60_4 1_555 1_555
H71_4 C64_4 1_555 1_555
H78_4 C71_4 1_555 1_555
C75_4 C64_4 1_555 1_555
C82_4 C71_4 1_555 1_555
H82_4 C75_4 1_555 1_555
H89_4 C82_4 1_555 1_555
C92_4 C37_4 1_555 1_555
C93_4 C38_4 1_555 1_555
C104_4 N13_4 1_555 1_555
C112_4 N10_4 1_555 1_555
C115_4 N13_4 1_555 1_555
H100_4 C115_4 1_555 1_555
H108_4 C112_4 1_555 1_555
H111_4 C115_4 1_555 1_555
C123_4 C112_4 1_555 1_555
C126_4 C115_4 1_555 1_555
C134_4 C123_4 1_555 1_555
C137_4 C126_4 1_555 1_555
H119_4 C134_4 1_555 1_555
H122_4 C137_4 1_555 1_555
C145_4 C134_4 1_555 1_555
C148_4 C137_4 1_555 1_555
H130_4 C145_4 1_555 1_555
H133_4 C148_4 1_555 1_555
C156_4 O31_4 1_555 1_555
C159_4 O34_4 1_555 1_555
H141_4 C156_4 1_555 1_555
H144_4 C159_4 1_555 1_555
C82_4 C93_4 1_555 1_555
C92_4 C103_4 1_555 1_555
C93_4 C104_4 1_555 1_555
C145_4 C156_4 1_555 1_555
C148_4 C159_4 1_555 1_555
N11_4 H21_4 1_555 1_555
N12_4 H22_4 1_555 1_555
O18_2 C102_4 1_555 1_555
O32_4 C124_4 1_555 1_555
O33_4 C125_4 1_555 1_555
O42_4 C24_4 1_555 1_555
O43_4 C25_4 1_555 1_555
C16_6 C24_4 1_555 1_555
C24_4 H31_4 1_555 1_555
C25_4 C16_6 1_555 1_555
H42_4 C24_4 1_555 1_555
H43_4 C25_4 1_555 1_555
C35_4 O42_4 1_555 1_555
C36_4 O43_4 1_555 1_555
C46_4 C35_4 1_555 1_555
C47_4 C36_4 1_555 1_555
H53_4 C46_4 1_555 1_555
H54_4 C47_4 1_555 1_555
C57_4 C46_4 1_555 1_555
C58_4 C47_4 1_555 1_555
H64_4 C57_4 1_555 1_555
H65_4 C58_4 1_555 1_555
C69_4 C58_4 1_555 1_555
H76_4 C69_4 1_555 1_555
C80_4 C69_4 1_555 1_555
H87_4 C80_4 1_555 1_555
C90_4 C35_4 1_555 1_555
C91_4 C36_4 1_555 1_555
C102_4 N11_4 1_555 1_555
C113_4 N11_4 1_555 1_555
C114_4 N12_4 1_555 1_555
H98_4 C113_4 1_555 1_555
H109_4 C113_4 1_555 1_555
H110_4 C114_4 1_555 1_555
C124_4 C113_4 1_555 1_555
C125_4 C114_4 1_555 1_555
C135_4 C124_4 1_555 1_555
C136_4 C125_4 1_555 1_555
H120_4 C135_4 1_555 1_555
H121_4 C136_4 1_555 1_555
C146_4 C135_4 1_555 1_555
C147_4 C136_4 1_555 1_555
H131_4 C146_4 1_555 1_555
H132_4 C147_4 1_555 1_555
C157_4 O32_4 1_555 1_555
C158_4 O33_4 1_555 1_555
H142_4 C157_4 1_555 1_555
H143_4 C158_4 1_555 1_555
O14_4 C101_4 1_555 1_555
C80_4 C91_4 1_555 1_555
C90_4 C101_4 1_555 1_555
C91_4 C102_4 1_555 1_555
C146_4 C157_4 1_555 1_555
C147_4 C158_4 1_555 1_555
H6_4 C6_4 1_555 1_555
C7_4 C6_4 1_555 1_555
H7_4 C7_4 1_555 1_555
N6_4 H16_4 1_555 1_555
N9_4 H19_4 1_555 1_555
O20_2 C99_4 1_555 1_555
O23 C100_4 1_555 1_555
O27_4 C119_4 1_555 1_555
O30_4 C122_4 1_555 1_555
O40_4 C22_4 1_555 1_555
O41_4 C23_4 1_555 1_555
C22_4 C15_5 1_555 1_555
C23_4 C15_5 1_555 1_555
H29_4 C22_4 1_555 1_555
H40_4 C22_4 1_555 1_555
H41_4 C23_4 1_555 1_555
C33_4 O40_4 1_555 1_555
C34_4 O41_4 1_555 1_555
C44_4 C33_4 1_555 1_555
C45_4 C34_4 1_555 1_555
H51_4 C44_4 1_555 1_555
H52_4 C45_4 1_555 1_555
C55_4 C44_4 1_555 1_555
C56_4 C45_4 1_555 1_555
H62_4 C55_4 1_555 1_555
H63_4 C56_4 1_555 1_555
C67_4 C56_4 1_555 1_555
H74_4 C67_4 1_555 1_555
C78_4 C67_4 1_555 1_555
H85_4 C78_4 1_555 1_555
C88_4 C33_4 1_555 1_555
C89_4 C34_4 1_555 1_555
C100_4 N9_4 1_555 1_555
C108_4 N6_4 1_555 1_555
C111_4 N9_4 1_555 1_555
H96_4 C111_4 1_555 1_555
H104_4 C108_4 1_555 1_555
H107_4 C111_4 1_555 1_555
C119_4 C108_4 1_555 1_555
C122_4 C111_4 1_555 1_555
C130_4 C119_4 1_555 1_555
C133_4 C122_4 1_555 1_555
H115_4 C130_4 1_555 1_555
H118_4 C133_4 1_555 1_555
C141_4 C130_4 1_555 1_555
C144_4 C133_4 1_555 1_555
H126_4 C141_4 1_555 1_555
H129_4 C144_4 1_555 1_555
C152_4 O27_4 1_555 1_555
C155_4 O30_4 1_555 1_555
H137_4 C152_4 1_555 1_555
H140_4 C155_4 1_555 1_555
C78_4 C89_4 1_555 1_555
C88_4 C99_4 1_555 1_555
C89_4 C100_4 1_555 1_555
C141_4 C152_4 1_555 1_555
C144_4 C155_4 1_555 1_555
O1_4 C9_4 1_555 1_555
O3_4 C2_4 1_555 1_555
C1_6 C2_4 1_555 1_555
C2_4 H2_4 1_555 1_555
H3_4 C2_4 1_555 1_555
C3_4 O3_4 1_555 1_555
C4_4 C3_4 1_555 1_555
H4_4 C4_4 1_555 1_555
C5_4 C4_4 1_555 1_555
H5_4 C5_4 1_555 1_555
C8_4 C3_4 1_555 1_555
Eu8_2 O7_4 1_555 1_555
N3_4 H13_4 1_555 1_555
N4_4 H14_4 1_555 1_555
N16_4 O48_4 1_555 1_555
N17_4 O49_4 1_555 1_555
N18_4 O50_4 1_555 1_555
O7_4 C94_4 1_555 1_555
O24_4 C116_4 1_555 1_555
O25_4 C117_4 1_555 1_555
O35_4 C17_4 1_555 1_555
O48_4 Eu8_2 1_555 1_555
O49_4 Eu8_2 1_555 1_555
O50_4 Eu8_2 1_555 1_555
O59_4 Eu8_2 1_555 1_555
O60_4 Eu8_2 1_555 1_555
O61_4 Eu8_2 1_555 1_555
O70_4 N16_4 1_555 1_555
O71_4 N17_4 1_555 1_555
O72_4 N18_4 1_555 1_555
C17_4 C1_6 1_555 1_555
H35_4 C17_4 1_555 1_555
C28_4 O35_4 1_555 1_555
C39_4 C28_4 1_555 1_555
H46_4 C39_4 1_555 1_555
C50_4 C39_4 1_555 1_555
H57_4 C50_4 1_555 1_555
C61_4 C50_4 1_555 1_555
H68_4 C61_4 1_555 1_555
C72_4 C61_4 1_555 1_555
H79_4 C72_4 1_555 1_555
C83_4 C28_4 1_555 1_555
C94_4 N3_4 1_555 1_555
C105_4 N3_4 1_555 1_555
C106_4 N4_4 1_555 1_555
H90_4 C105_4 1_555 1_555
H101_4 C105_4 1_555 1_555
H102_4 C106_4 1_555 1_555
C116_4 C105_4 1_555 1_555
C117_4 C106_4 1_555 1_555
C127_4 C116_4 1_555 1_555
C128_4 C117_4 1_555 1_555
H112_4 C127_4 1_555 1_555
H113_4 C128_4 1_555 1_555
C138_4 C127_4 1_555 1_555
C139_4 C128_4 1_555 1_555
H123_4 C138_4 1_555 1_555
H124_4 C139_4 1_555 1_555
C149_4 O24_4 1_555 1_555
C150_4 O25_4 1_555 1_555
H134_4 C149_4 1_555 1_555
H135_4 C150_4 1_555 1_555
C8_4 C9_4 1_555 1_555
N16_4 O59_4 1_555 1_555
N17_4 O60_4 1_555 1_555
N18_4 O61_4 1_555 1_555
C72_4 C83_4 1_555 1_555
C83_4 C94_4 1_555 1_555
C138_4 C149_4 1_555 1_555
C139_4 C150_4 1_555 1_555
N7_4 H17_4 1_555 1_555
N8_4 H18_4 1_555 1_555
O19_2 C98_4 1_555 1_555
O28_4 C120_4 1_555 1_555
O29_4 C121_4 1_555 1_555
O38_4 C20_4 1_555 1_555
O39_4 C21_4 1_555 1_555
C15_6 C20_4 1_555 1_555
C20_4 H27_4 1_555 1_555
C21_4 C15_6 1_555 1_555
H38_4 C20_4 1_555 1_555
H39_4 C21_4 1_555 1_555
C31_4 O38_4 1_555 1_555
C32_4 O39_4 1_555 1_555
C42_4 C31_4 1_555 1_555
C43_4 C32_4 1_555 1_555
H49_4 C42_4 1_555 1_555
H50_4 C43_4 1_555 1_555
C53_4 C42_4 1_555 1_555
C54_4 C43_4 1_555 1_555
H60_4 C53_4 1_555 1_555
H61_4 C54_4 1_555 1_555
C65_4 C54_4 1_555 1_555
H72_4 C65_4 1_555 1_555
C76_4 C65_4 1_555 1_555
H83_4 C76_4 1_555 1_555
C86_4 C31_4 1_555 1_555
C87_4 C32_4 1_555 1_555
C98_4 N7_4 1_555 1_555
C109_4 N7_4 1_555 1_555
C110_4 N8_4 1_555 1_555
H94_4 C109_4 1_555 1_555
H105_4 C109_4 1_555 1_555
H106_4 C110_4 1_555 1_555
C120_4 C109_4 1_555 1_555
C121_4 C110_4 1_555 1_555
C131_4 C120_4 1_555 1_555
C132_4 C121_4 1_555 1_555
H116_4 C131_4 1_555 1_555
H117_4 C132_4 1_555 1_555
C142_4 C131_4 1_555 1_555
C143_4 C132_4 1_555 1_555
H127_4 C142_4 1_555 1_555
H128_4 C143_4 1_555 1_555
C153_4 O28_4 1_555 1_555
C154_4 O29_4 1_555 1_555
H138_4 C153_4 1_555 1_555
H139_4 C154_4 1_555 1_555
O10_4 C97_4 1_555 1_555
C76_4 C87_4 1_555 1_555
C86_4 C97_4 1_555 1_555
C87_4 C98_4 1_555 1_555
C142_4 C153_4 1_555 1_555
C143_4 C154_4 1_555 1_555
O5_4 Eu1_4 1_555 1_555
O6_4 N2_4 1_555 1_555
O57_4 Eu1_4 1_555 1_555
O58_4 Eu1_4 1_555 1_555
O68_4 N14_4 1_555 1_555
O69_4 N15_4 1_555 1_555
N2_4 O5_4 1_555 1_555
N14_4 O57_4 1_555 1_555
N15_4 O58_4 1_555 1_555

#END
