
###############################################################################
#
# This file contains modified crystal structure data generated from the
# MOF subset of the Cambridge Structural Database (CSD) v543 
# hosted by the Cambridge Crystallographic Data Centre (CCDC).
#
# This work is licensed under the Creative Commons
# Attribution-NonCommercial-ShareAlike 4.0 International License.
# To view a copy of this license, visit
# http://creativecommons.org/licenses/by-nc-sa/4.0/
# or send a letter to
# Creative Commons, PO Box 1866, Mountain View, CA 94042, USA.
#
# CIF created using the CSD Python API on 29 September 2022
# The structure has been converted into the P1 space group
# The structure has a 3D framework
# The original CSD entry GUSNOY is in the tetragonal crystal system
# The framework has been calculated to contain at least 10.0% void space
# The void calculation uses a probe of radius 1.32A, grid spacing 0.4
# H atom positions have been added when not included in the experimental data
#
###############################################################################

data_GUSNOY
_chemical_formula_moiety         '(C32 H8 N32 Ni16)n'
_symmetry_cell_setting           triclinic
_symmetry_space_group_name_H-M   'P 1'
_symmetry_Int_Tables_number      1
_space_group_name_Hall           'P 1'
loop_
_symmetry_equiv_pos_site_id
_symmetry_equiv_pos_as_xyz
1 x,y,z
_cell_length_a                   10.149(5)
_cell_length_b                   10.149(5)
_cell_length_c                   7.028(5)
_cell_angle_alpha                90
_cell_angle_beta                 90
_cell_angle_gamma                90
_cell_volume                     723.899
loop_
_atom_site_label
_atom_site_type_symbol
_atom_site_fract_x
_atom_site_fract_y
_atom_site_fract_z
_atom_site_U_iso_or_equiv
_atom_site_thermal_displace_type
Ni5 Ni -0.00000 0.00000 0.00000 0.0191 Uiso
Ni5_2 Ni -0.00000 0.00000 1.00000 0.0191 Uiso
Ni5_3 Ni -0.00000 1.00000 0.00000 0.0191 Uiso
Ni6 Ni 0.00000 0.50000 0.00000 0.0187 Uiso
N8 N 0.191(3) 0.50000 0.00000 0.0330 Uiso
C8 C -0.000(6) 0.80500 0.00000 0.0330 Uiso
C9 C -0.000(6) 0.19500 0.00000 0.0330 Uiso
C11 C 0.19500 0.000(6) 0.00000 0.0330 Uiso
N10 N -0.000(3) 0.68900 0.00000 0.0330 Uiso
N11 N -0.000(3) 0.31100 0.00000 0.0330 Uiso
N15 N 0.00000 0.50000 0.294(4) 0.0460 Uiso
Ni5_4 Ni -0.00000 1.00000 1.00000 0.0191 Uiso
Ni6_2 Ni -0.00000 0.50000 1.00000 0.0187 Uiso
N8_2 N 0.191(3) 0.50000 1.00000 0.0330 Uiso
C8_2 C -0.000(6) 0.80500 1.00000 0.0330 Uiso
C9_2 C -0.000(6) 0.19500 1.00000 0.0330 Uiso
C11_2 C 0.19500 0.000(6) 1.00000 0.0330 Uiso
N10_2 N -0.000(3) 0.68900 1.00000 0.0330 Uiso
N11_2 N -0.000(3) 0.31100 1.00000 0.0330 Uiso
N16 N -0.00000 0.50000 0.706(4) 0.0460 Uiso
C11_3 C 0.19500 1.000(6) 0.00000 0.0330 Uiso
C11_4 C 0.19500 1.000(6) 1.00000 0.0330 Uiso
Ni5_5 Ni 1.00000 0.00000 0.00000 0.0191 Uiso
Ni9 Ni 0.50000 0.00000 0.00000 0.0187 Uiso
Ni5_6 Ni 1.00000 0.00000 1.00000 0.0191 Uiso
Ni9_2 Ni 0.50000 0.00000 1.00000 0.0187 Uiso
Ni1 Ni 0.50000 0.50000 0.00000 0.0191 Uiso
C1 C 0.50000 0.307(2) 0.00000 0.0330 Uiso
N1 N 0.50000 0.191(3) 0.00000 0.0330 Uiso
C2 C 0.80500 0.000(6) 0.00000 0.0330 Uiso
N2 N 0.68900 0.000(3) 0.00000 0.0330 Uiso
N3 N 0.50000 0.00000 0.294(4) 0.0460 Uiso
C3 C 0.488(1) 0.133(3) 0.405(4) 0.0460 Uiso
Ni5_7 Ni 1.00000 1.00000 0.00000 0.0191 Uiso
Ni6_3 Ni 1.00000 0.50000 0.00000 0.0187 Uiso
Ni9_3 Ni 0.50000 1.00000 0.00000 0.0187 Uiso
C4 C 0.693(2) 0.50000 0.00000 0.0330 Uiso
C5 C 0.307(2) 0.50000 0.00000 0.0330 Uiso
C6 C 0.50000 0.693(2) 0.00000 0.0330 Uiso
N4 N 0.809(3) 0.50000 0.00000 0.0330 Uiso
N6 N 0.50000 0.809(3) 0.00000 0.0330 Uiso
C8_3 C 1.000(6) 0.80500 0.00000 0.0330 Uiso
C9_3 C 1.000(6) 0.19500 0.00000 0.0330 Uiso
N9 N 0.31100 0.000(3) 0.00000 0.0330 Uiso
N10_3 N 1.000(3) 0.68900 0.00000 0.0330 Uiso
N11_3 N 1.000(3) 0.31100 0.00000 0.0330 Uiso
N12 N 0.50000 0.00000 0.706(4) 0.0460 Uiso
N15_2 N 1.00000 0.50000 0.294(4) 0.0460 Uiso
C12 C 0.488(1) 0.133(3) 0.595(4) 0.0460 Uiso
H1 H 0.479653 0.225514 0.327436 . .
H6 H 0.479653 0.225514 0.672564 . .
Ni1_2 Ni 0.50000 0.50000 1.00000 0.0191 Uiso
C1_2 C 0.50000 0.307(2) 1.00000 0.0330 Uiso
N1_2 N 0.50000 0.191(3) 1.00000 0.0330 Uiso
C2_2 C 0.80500 0.000(6) 1.00000 0.0330 Uiso
N2_2 N 0.68900 0.000(3) 1.00000 0.0330 Uiso
Ni5_8 Ni 1.00000 1.00000 1.00000 0.0191 Uiso
Ni6_4 Ni 1.00000 0.50000 1.00000 0.0187 Uiso
Ni9_4 Ni 0.50000 1.00000 1.00000 0.0187 Uiso
C4_2 C 0.693(2) 0.50000 1.00000 0.0330 Uiso
C5_2 C 0.307(2) 0.50000 1.00000 0.0330 Uiso
C6_2 C 0.50000 0.693(2) 1.00000 0.0330 Uiso
N4_2 N 0.809(3) 0.50000 1.00000 0.0330 Uiso
N6_2 N 0.50000 0.809(3) 1.00000 0.0330 Uiso
C8_4 C 1.000(6) 0.80500 1.00000 0.0330 Uiso
C9_4 C 1.000(6) 0.19500 1.00000 0.0330 Uiso
N9_2 N 0.31100 0.000(3) 1.00000 0.0330 Uiso
N10_4 N 1.000(3) 0.68900 1.00000 0.0330 Uiso
N11_4 N 1.000(3) 0.31100 1.00000 0.0330 Uiso
N16_2 N 1.00000 0.50000 0.706(4) 0.0460 Uiso
C2_3 C 0.80500 1.000(6) 0.00000 0.0330 Uiso
N2_3 N 0.68900 1.000(3) 0.00000 0.0330 Uiso
N3_2 N 0.50000 1.00000 0.294(4) 0.0460 Uiso
N9_3 N 0.31100 1.000(3) 0.00000 0.0330 Uiso
N12_2 N 0.50000 1.00000 0.706(4) 0.0460 Uiso
C13 C 0.512(1) 0.867(3) 0.595(4) 0.0460 Uiso
C14 C 0.512(1) 0.867(3) 0.405(4) 0.0460 Uiso
H3 H 0.520347 0.774486 0.327436 . .
H7 H 0.520347 0.774486 0.672564 . .
C2_4 C 0.80500 1.000(6) 1.00000 0.0330 Uiso
N2_4 N 0.68900 1.000(3) 1.00000 0.0330 Uiso
N9_4 N 0.31100 1.000(3) 1.00000 0.0330 Uiso
C13_2 C 0.133(3) 0.512(1) 0.595(4) 0.0460 Uiso
C14_2 C 0.133(3) 0.512(1) 0.405(4) 0.0460 Uiso
H3_2 H 0.225514 0.520347 0.327436 . .
H7_2 H 0.225514 0.520347 0.672564 . .
C3_2 C 0.867(3) 0.488(1) 0.405(4) 0.0460 Uiso
C12_2 C 0.867(3) 0.488(1) 0.595(4) 0.0460 Uiso
H1_2 H 0.774486 0.479653 0.327436 . .
H6_2 H 0.774486 0.479653 0.672564 . .
loop_
_geom_bond_atom_site_label_1
_geom_bond_atom_site_label_2
_geom_bond_site_symmetry_1
_geom_bond_site_symmetry_2
Ni5_3 C8 1_555 1_555
N8 Ni6 1_555 1_555
C8 N10 1_555 1_555
C9 Ni5 1_555 1_555
C11 Ni5 1_555 1_555
N10 Ni6 1_555 1_555
N11 Ni6 1_555 1_555
N15 Ni6 1_555 1_555
C9 N11 1_555 1_555
Ni5_4 C8_2 1_555 1_555
N8_2 Ni6_2 1_555 1_555
C8_2 N10_2 1_555 1_555
C9_2 Ni5_2 1_555 1_555
C11_2 Ni5_2 1_555 1_555
N10_2 Ni6_2 1_555 1_555
N11_2 Ni6_2 1_555 1_555
N16 Ni6_2 1_555 1_555
C9_2 N11_2 1_555 1_555
C11_3 Ni5_3 1_555 1_555
C11_4 Ni5_4 1_555 1_555
Ni1 C1 1_555 1_555
Ni5_5 C2 1_555 1_555
Ni9 N1 1_555 1_555
C1 N1 1_555 1_555
C2 N2 1_555 1_555
N2 Ni9 1_555 1_555
N3 Ni9 1_555 1_555
C3 N3 1_555 1_555
Ni5_7 C8_3 1_555 1_555
Ni6_3 N4 1_555 1_555
Ni9_2 N12 1_555 1_555
Ni9_3 N6 1_555 1_555
C4 Ni1 1_555 1_555
C5 Ni1 1_555 1_555
C6 Ni1 1_555 1_555
N4 C4 1_555 1_555
N8 C5 1_555 1_555
N6 C6 1_555 1_555
C11 N9 1_555 1_555
C8_3 N10_3 1_555 1_555
C9_3 Ni5_5 1_555 1_555
N9 Ni9 1_555 1_555
N10_3 Ni6_3 1_555 1_555
N11_3 Ni6_3 1_555 1_555
N12 C12 1_555 1_555
N15_2 Ni6_3 1_555 1_555
C12 C3 1_555 1_555
C9_3 N11_3 1_555 1_555
C3 H1 1_555 1_555
C12 H6 1_555 1_555
Ni1_2 C1_2 1_555 1_555
Ni5_6 C2_2 1_555 1_555
Ni9_2 N1_2 1_555 1_555
C1_2 N1_2 1_555 1_555
C2_2 N2_2 1_555 1_555
N2_2 Ni9_2 1_555 1_555
Ni5_8 C8_4 1_555 1_555
Ni6_4 N4_2 1_555 1_555
Ni9_4 N6_2 1_555 1_555
C4_2 Ni1_2 1_555 1_555
C5_2 Ni1_2 1_555 1_555
C6_2 Ni1_2 1_555 1_555
N4_2 C4_2 1_555 1_555
N8_2 C5_2 1_555 1_555
N6_2 C6_2 1_555 1_555
C11_2 N9_2 1_555 1_555
C8_4 N10_4 1_555 1_555
C9_4 Ni5_6 1_555 1_555
N9_2 Ni9_2 1_555 1_555
N10_4 Ni6_4 1_555 1_555
N11_4 Ni6_4 1_555 1_555
N16_2 Ni6_4 1_555 1_555
C9_4 N11_4 1_555 1_555
Ni5_7 C2_3 1_555 1_555
C2_3 N2_3 1_555 1_555
N2_3 Ni9_3 1_555 1_555
N3_2 Ni9_3 1_555 1_555
Ni9_4 N12_2 1_555 1_555
C11_3 N9_3 1_555 1_555
N9_3 Ni9_3 1_555 1_555
C13 N12_2 1_555 1_555
C14 N3_2 1_555 1_555
C13 C14 1_555 1_555
C14 H3 1_555 1_555
C13 H7 1_555 1_555
Ni5_8 C2_4 1_555 1_555
C2_4 N2_4 1_555 1_555
N2_4 Ni9_4 1_555 1_555
C11_4 N9_4 1_555 1_555
N9_4 Ni9_4 1_555 1_555
C13_2 N16 1_555 1_555
C14_2 N15 1_555 1_555
C13_2 C14_2 1_555 1_555
C14_2 H3_2 1_555 1_555
C13_2 H7_2 1_555 1_555
C3_2 N15_2 1_555 1_555
N16_2 C12_2 1_555 1_555
C12_2 C3_2 1_555 1_555
C3_2 H1_2 1_555 1_555
C12_2 H6_2 1_555 1_555

#END
