
###############################################################################
#
# This file contains modified crystal structure data generated from the
# MOF subset of the Cambridge Structural Database (CSD) v543 
# hosted by the Cambridge Crystallographic Data Centre (CCDC).
#
# This work is licensed under the Creative Commons
# Attribution-NonCommercial-ShareAlike 4.0 International License.
# To view a copy of this license, visit
# http://creativecommons.org/licenses/by-nc-sa/4.0/
# or send a letter to
# Creative Commons, PO Box 1866, Mountain View, CA 94042, USA.
#
# CIF created using the CSD Python API on 29 September 2022
# The structure has been converted into the P1 space group
# The structure has a 3D framework
# The original CSD entry GUSNEN is in the monoclinic crystal system
# The framework has been calculated to contain at least 10.0% void space
# The void calculation uses a probe of radius 1.32A, grid spacing 0.4
# H atom positions have been added when not included in the experimental data
#
###############################################################################

data_GUSNEN
_chemical_formula_moiety         '(C32 H16 Cr6 O19)n'
_symmetry_cell_setting           triclinic
_symmetry_space_group_name_H-M   'P 1'
_symmetry_Int_Tables_number      1
_space_group_name_Hall           'P 1'
loop_
_symmetry_equiv_pos_site_id
_symmetry_equiv_pos_as_xyz
1 x,y,z
_cell_length_a                   19.685(4)
_cell_length_b                   7.849(1)
_cell_length_c                   6.782(1)
_cell_angle_alpha                90
_cell_angle_beta                 104.90(2)
_cell_angle_gamma                90
_cell_volume                     1012.64
loop_
_atom_site_label
_atom_site_type_symbol
_atom_site_fract_x
_atom_site_fract_y
_atom_site_fract_z
Cr1 Cr 0.000 0.000 0.000
O5 O 0.000 0.113(1) 0.250
Cr1_2 Cr 0.000 0.000 1.000
Cr2 Cr 0.000 0.000 0.500
O4 O 0.068(1) 0.166(1) 0.945(1)
Cr1_3 Cr 0.000 1.000 0.000
O7 O 0.087(1) 0.859(1) 0.152(1)
Cr1_4 Cr 0.000 1.000 1.000
O1 O 0.000 0.887(1) 0.750
Cr2_2 Cr -0.000 1.000 0.500
Cr1_5 Cr 1.000 0.000 0.000
O5_2 O 1.000 0.113(1) 0.250
Cr1_6 Cr 1.000 0.000 1.000
O2 O 0.932(1) 0.166(1) 0.555(1)
O3 O 0.913(1) 0.141(1) 0.848(1)
C1 C 0.889(1) 0.190(1) 0.670(1)
C2 C 0.802(1) 0.296(2) 0.382(1)
C3 C 0.771(1) 0.180(2) 0.704(1)
C4 C 0.816(1) 0.210(2) 0.579(1)
Cr2_3 Cr 1.000 0.000 0.500
C5 C 0.729(1) 0.320(2) 0.296(1)
C6 C 0.698(1) 0.204(2) 0.618(1)
C7 C 0.684(1) 0.290(2) 0.421(1)
C8 C 0.611(1) 0.310(1) 0.330(1)
O8 O 0.568(1) 0.334(1) 0.445(1)
O9 O 0.587(1) 0.359(1) 0.152(1)
Cr3 Cr 0.500 0.500 0.500
Cr4 Cr 0.500 0.500 0.000
H1 H 0.708803 0.360378 0.138132
H2 H 0.791197 0.139622 0.861868
H3 H 0.657316 0.163182 0.69025
H4 H 0.842684 0.336818 0.30975
Cr4_2 Cr 0.500 0.500 1.000
Cr1_7 Cr 1.000 1.000 0.000
O6 O 0.932(1) 0.834(1) 0.055(1)
Cr1_8 Cr 1.000 1.000 1.000
O1_2 O 1.000 0.887(1) 0.750
Cr2_4 Cr 1.000 1.000 0.500
C2_2 C 0.198(1) 0.296(2) 0.118(1)
C5_2 C 0.271(1) 0.320(2) 0.204(1)
C7_2 C 0.316(1) 0.290(2) 0.079(1)
C8_2 C 0.389(1) 0.310(1) 0.170(1)
O8_2 O 0.432(1) 0.334(1) 0.055(1)
O9_2 O 0.413(1) 0.359(1) 0.348(1)
H1_2 H 0.291197 0.360378 0.361868
H4_2 H 0.157316 0.336818 0.19025
O3_2 O 0.087(1) 0.141(1) 0.652(1)
C1_2 C 0.111(1) 0.190(1) 0.830(1)
C3_2 C 0.229(1) 0.180(2) 0.796(1)
C4_2 C 0.184(1) 0.210(2) 0.921(1)
C6_2 C 0.302(1) 0.204(2) 0.882(1)
H2_2 H 0.208803 0.139622 0.638132
H3_2 H 0.342684 0.163182 0.80975
O6_2 O 0.068(1) 0.834(1) 0.445(1)
O7_2 O 0.913(1) 0.859(1) 0.348(1)
O5_3 O 0.500 0.613(1) 0.250
O1_3 O 0.500 0.387(1) 0.750
O2_2 O 0.432(1) 0.666(1) 0.555(1)
O3_3 O 0.413(1) 0.641(1) 0.848(1)
C1_3 C 0.389(1) 0.690(1) 0.670(1)
C2_3 C 0.302(1) 0.796(2) 0.382(1)
C3_3 C 0.271(1) 0.680(2) 0.704(1)
C4_3 C 0.316(1) 0.710(2) 0.579(1)
O4_2 O 0.568(1) 0.666(1) 0.945(1)
C5_3 C 0.229(1) 0.820(2) 0.296(1)
C6_3 C 0.198(1) 0.704(2) 0.618(1)
C7_3 C 0.184(1) 0.790(2) 0.421(1)
C8_3 C 0.111(1) 0.810(1) 0.330(1)
H1_3 H 0.208803 0.860378 0.138132
H2_3 H 0.291197 0.639622 0.861868
H3_3 H 0.157316 0.663182 0.69025
H4_3 H 0.342684 0.836818 0.30975
C2_4 C 0.698(1) 0.796(2) 0.118(1)
C5_4 C 0.771(1) 0.820(2) 0.204(1)
C7_4 C 0.816(1) 0.790(2) 0.079(1)
C8_4 C 0.889(1) 0.810(1) 0.170(1)
H1_4 H 0.791197 0.860378 0.361868
H4_4 H 0.657316 0.836818 0.19025
O3_4 O 0.587(1) 0.641(1) 0.652(1)
C1_4 C 0.611(1) 0.690(1) 0.830(1)
C3_4 C 0.729(1) 0.680(2) 0.796(1)
C4_4 C 0.684(1) 0.710(2) 0.921(1)
C6_4 C 0.802(1) 0.704(2) 0.882(1)
H2_4 H 0.708803 0.639622 0.638132
H3_4 H 0.842684 0.663182 0.80975
loop_
_geom_bond_atom_site_label_1
_geom_bond_atom_site_label_2
_geom_bond_site_symmetry_1
_geom_bond_site_symmetry_2
O5 Cr1 1_555 1_555
O4 Cr1_2 1_555 1_555
O7 Cr1_3 1_555 1_555
Cr1_4 O1 1_555 1_555
O1 Cr2_2 1_555 1_555
O5_2 Cr1_5 1_555 1_555
O2 C1 1_555 1_555
O3 Cr1_6 1_555 1_555
C1 O3 1_555 1_555
C2 C4 1_555 1_555
C3 C4 1_555 1_555
C4 C1 1_555 1_555
Cr2_3 O2 1_555 1_555
C5 C2 1_555 1_555
C6 C3 1_555 1_555
C7 C5 1_555 1_555
C8 C7 1_555 1_555
O8 C8 1_555 1_555
O9 C8 1_555 1_555
Cr3 O8 1_555 1_555
Cr4 O9 1_555 1_555
C6 C7 1_555 1_555
C5 H1 1_555 1_555
C3 H2 1_555 1_555
C6 H3 1_555 1_555
C2 H4 1_555 1_555
O6 Cr1_7 1_555 1_555
Cr1_8 O1_2 1_555 1_555
O1_2 Cr2_4 1_555 1_555
C5_2 C2_2 1_555 1_555
C7_2 C5_2 1_555 1_555
C8_2 C7_2 1_555 1_555
O8_2 C8_2 1_555 1_555
O9_2 C8_2 1_555 1_555
Cr4 O8_2 1_555 1_555
Cr3 O9_2 1_555 1_555
C5_2 H1_2 1_555 1_555
C2_2 H4_2 1_555 1_555
O4 C1_2 1_555 1_555
O3_2 Cr2 1_555 1_555
C1_2 O3_2 1_555 1_555
C3_2 C4_2 1_555 1_555
C4_2 C1_2 1_555 1_555
O5 Cr2 1_555 1_555
C6_2 C3_2 1_555 1_555
C3_2 H2_2 1_555 1_555
C6_2 H3_2 1_555 1_555
O6_2 Cr2_2 1_555 1_555
O5_2 Cr2_3 1_555 1_555
O7_2 Cr2_4 1_555 1_555
O5_3 Cr4 1_555 1_555
Cr4_2 O1_3 1_555 1_555
O1_3 Cr3 1_555 1_555
O2_2 C1_3 1_555 1_555
O3_3 Cr4_2 1_555 1_555
C1_3 O3_3 1_555 1_555
C2_3 C4_3 1_555 1_555
C3_3 C4_3 1_555 1_555
C4_3 C1_3 1_555 1_555
Cr3 O2_2 1_555 1_555
O4_2 Cr4_2 1_555 1_555
C5_3 C2_3 1_555 1_555
C6_3 C3_3 1_555 1_555
C7_3 C5_3 1_555 1_555
C8_3 C7_3 1_555 1_555
O6_2 C8_3 1_555 1_555
O7 C8_3 1_555 1_555
C6_3 C7_3 1_555 1_555
C5_3 H1_3 1_555 1_555
C3_3 H2_3 1_555 1_555
C6_3 H3_3 1_555 1_555
C2_3 H4_3 1_555 1_555
C5_4 C2_4 1_555 1_555
C7_4 C5_4 1_555 1_555
C8_4 C7_4 1_555 1_555
O6 C8_4 1_555 1_555
O7_2 C8_4 1_555 1_555
C5_4 H1_4 1_555 1_555
C2_4 H4_4 1_555 1_555
O4_2 C1_4 1_555 1_555
O3_4 Cr3 1_555 1_555
C1_4 O3_4 1_555 1_555
C3_4 C4_4 1_555 1_555
C4_4 C1_4 1_555 1_555
O5_3 Cr3 1_555 1_555
C6_4 C3_4 1_555 1_555
C3_4 H2_4 1_555 1_555
C6_4 H3_4 1_555 1_555

#END
