
###############################################################################
#
# This file contains modified crystal structure data generated from the
# MOF subset of the Cambridge Structural Database (CSD) v543 
# hosted by the Cambridge Crystallographic Data Centre (CCDC).
#
# This work is licensed under the Creative Commons
# Attribution-NonCommercial-ShareAlike 4.0 International License.
# To view a copy of this license, visit
# http://creativecommons.org/licenses/by-nc-sa/4.0/
# or send a letter to
# Creative Commons, PO Box 1866, Mountain View, CA 94042, USA.
#
# CIF created using the CSD Python API on 29 September 2022
# The structure has been converted into the P1 space group
# The structure has a 3D framework
# The original CSD entry GUSPUG is in the hexagonal crystal system
# The framework has been calculated to contain at least 10.0% void space
# The void calculation uses a probe of radius 1.32A, grid spacing 0.4
#
###############################################################################

data_GUSPUG
_chemical_formula_moiety         '(C156 H288 Cl84 Cu60 N60 O18)n'
_symmetry_cell_setting           triclinic
_symmetry_space_group_name_H-M   'P 1'
_symmetry_Int_Tables_number      1
_space_group_name_Hall           'P 1'
loop_
_symmetry_equiv_pos_site_id
_symmetry_equiv_pos_as_xyz
1 x,y,z
_cell_length_a                   25.645(9)
_cell_length_b                   25.645(9)
_cell_length_c                   17.105(11)
_cell_angle_alpha                90
_cell_angle_beta                 90
_cell_angle_gamma                120
_cell_volume                     9742.25
loop_
_atom_site_label
_atom_site_type_symbol
_atom_site_fract_x
_atom_site_fract_y
_atom_site_fract_z
Cu4 Cu 0.05278(11) 0.66304(8) 0.0000
Cu4_2 Cu 0.05278(11) 0.66304(8) 1.0000
Cu1 Cu 0.76474(8) 0.57884(8) 0.0000
Cu2 Cu 0.66304(8) 0.61026(8) 0.0000
Cl1 Cl 0.76964(18) 0.67490(18) 0.0000
Cl3 Cl 0.60671(14) 0.56407(14) 0.11501(18)
Cl4 Cl 0.60120(18) 0.41462(17) 0.0000
O1 O 0.6809(4) 0.5460(4) 0.0000
N1 N 0.8531(5) 0.6090(5) 0.0000
N2 N 0.9672(5) 0.6419(5) 0.0000
C1 C 0.8838(5) 0.6467(5) 0.0691(7)
C2 C 0.9502(5) 0.6646(5) 0.0694(7)
C3 C 0.8620(7) 0.5572(7) 0.0000
C4 C 0.9264(7) 0.5748(7) 0.0000
H1 H 0.8647 0.6244 0.1164
H2 H 0.8802 0.6826 0.0682
H3 H 0.9746 0.7082 0.0709
H4 H 0.9588 0.6489 0.1162
H6 H 0.8428 0.5328 0.0458
Cu5 Cu 0.64715(6) 0.49757(6) 0.09080(8)
Cl5 Cl 0.74787(12) 0.52810(13) 0.12703(17)
N4 N 0.6419(5) 0.6747(7) 0.0000
N6 N 0.6083(4) 0.4498(4) 0.1873(5)
H18 H 0.9348 0.5579 0.0458
Cu1_2 Cu 0.76474(8) 0.57884(8) 1.0000
Cu2_2 Cu 0.66304(8) 0.61026(8) 1.0000
Cu3 Cu 0.64715(6) 0.49757(6) 0.90920(8)
Cl1_2 Cl 0.76964(18) 0.67490(18) 1.0000
Cl2 Cl 0.74787(12) 0.52810(13) 0.87297(17)
Cl4_2 Cl 0.60120(18) 0.41462(17) 1.0000
O1_2 O 0.6809(4) 0.5460(4) 1.0000
N1_2 N 0.8531(5) 0.6090(5) 1.0000
N2_2 N 0.9672(5) 0.6419(5) 1.0000
N3 N 0.6083(4) 0.4498(4) 0.8127(5)
C3_2 C 0.8620(7) 0.5572(7) 1.0000
C4_2 C 0.9264(7) 0.5748(7) 1.0000
C5 C 0.6227(5) 0.4014(5) 0.7918(7)
C6 C 0.5415(4) 0.4200(5) 0.8239(7)
C7 C 0.6261(5) 0.4908(5) 0.7430(7)
H5 H 0.8428 0.5328 0.9542
H7 H 0.9348 0.5579 0.9542
H8 H 0.6041 0.3687 0.8293
H9 H 0.6659 0.4175 0.7935
H10 H 0.5291 0.4501 0.8235
H11 H 0.5304 0.3995 0.8740
H12 H 0.6661 0.5009 0.7257
H13 H 0.6267 0.5277 0.7569
Cu6 Cu 0.50243(6) 0.35285(6) 0.59080(8)
Cl6 Cl 0.60671(14) 0.56407(14) 0.88499(18)
N4_2 N 0.6419(5) 0.6747(7) 1.0000
N5 N 0.5502(4) 0.3917(4) 0.6873(5)
C8 C 0.8838(5) 0.6467(5) 0.9309(7)
C9 C 0.9502(5) 0.6646(5) 0.9306(7)
C10 C 0.5986(5) 0.3773(5) 0.7082(7)
C11 C 0.5800(5) 0.4585(4) 0.6761(7)
C12 C 0.5092(5) 0.3739(5) 0.7570(7)
H14 H 0.8647 0.6244 0.8836
H15 H 0.8802 0.6826 0.9318
H16 H 0.9746 0.7082 0.9291
H17 H 0.9588 0.6489 0.8838
H19 H 0.6313 0.3959 0.6707
H20 H 0.5825 0.3341 0.7065
H21 H 0.5499 0.4709 0.6765
H22 H 0.6005 0.4696 0.6260
H23 H 0.4991 0.3339 0.7743
H24 H 0.4723 0.3733 0.7431
N4_3 N 0.3253(7) 0.9672(9) 0.0000
N4_4 N 0.3253(7) 0.9672(9) 1.0000
Cu4_3 Cu 0.61026(14) 0.94722(11) 0.0000
Cu4_4 Cu 0.61026(14) 0.94722(11) 1.0000
Cu1_3 Cu 0.57884(8) 0.81410(11) 0.0000
Cl1_3 Cl 0.67490(18) 0.90526(25) 0.0000
Cl3_2 Cl 0.56407(14) 0.95736(20) 0.11501(18)
Cl4_3 Cl 0.41462(17) 0.81342(25) 0.0000
O1_3 O 0.5460(4) 0.8651(6) 0.0000
N1_3 N 0.6090(5) 0.7559(7) 0.0000
C1_2 C 0.6467(5) 0.7629(7) 0.0691(7)
C2_2 C 0.6646(5) 0.7144(7) 0.0694(7)
C3_3 C 0.5572(7) 0.6952(10) 0.0000
C4_3 C 0.5748(7) 0.6484(10) 0.0000
H1_2 H 0.6244 0.7597 0.1164
H2_2 H 0.6826 0.8024 0.0682
H3_2 H 0.7082 0.7336 0.0709
H4_2 H 0.6489 0.6901 0.1162
H6_2 H 0.5328 0.6900 0.0458
Cu5_2 Cu 0.49757(6) 0.85042(8) 0.09080(8)
Cl5_2 Cl 0.52810(13) 0.78023(18) 0.12703(17)
N6_2 N 0.4498(4) 0.8415(6) 0.1873(5)
H18_2 H 0.5579 0.6231 0.0458
Cu1_4 Cu 0.57884(8) 0.81410(11) 1.0000
Cu3_2 Cu 0.49757(6) 0.85042(8) 0.90920(8)
Cl1_4 Cl 0.67490(18) 0.90526(25) 1.0000
Cl2_2 Cl 0.52810(13) 0.78023(18) 0.87297(17)
Cl4_4 Cl 0.41462(17) 0.81342(25) 1.0000
O1_4 O 0.5460(4) 0.8651(6) 1.0000
N1_4 N 0.6090(5) 0.7559(7) 1.0000
N3_2 N 0.4498(4) 0.8415(6) 0.8127(5)
C3_4 C 0.5572(7) 0.6952(10) 1.0000
C4_4 C 0.5748(7) 0.6484(10) 1.0000
C5_2 C 0.4014(5) 0.7787(7) 0.7918(7)
C6_2 C 0.4200(5) 0.8785(6) 0.8239(7)
C7_2 C 0.4908(5) 0.8647(7) 0.7430(7)
H5_2 H 0.5328 0.6900 0.9542
H7_2 H 0.5579 0.6231 0.9542
H8_2 H 0.3687 0.7646 0.8293
H9_2 H 0.4175 0.7516 0.7935
H10_2 H 0.4501 0.9210 0.8235
H11_2 H 0.3995 0.8691 0.8740
H12_2 H 0.5009 0.8348 0.7257
H13_2 H 0.5277 0.9010 0.7569
Cu6_2 Cu 0.35285(6) 0.85042(8) 0.59080(8)
Cl6_2 Cl 0.56407(14) 0.95736(20) 0.88499(18)
N5_2 N 0.3917(4) 0.8415(6) 0.6873(5)
C8_2 C 0.6467(5) 0.7629(7) 0.9309(7)
C9_2 C 0.6646(5) 0.7144(7) 0.9306(7)
C10_2 C 0.3773(5) 0.7787(7) 0.7082(7)
C11_2 C 0.4585(4) 0.8785(6) 0.6761(7)
C12_2 C 0.3739(5) 0.8647(7) 0.7570(7)
H14_2 H 0.6244 0.7597 0.8836
H15_2 H 0.6826 0.8024 0.9318
H16_2 H 0.7082 0.7336 0.9291
H17_2 H 0.6489 0.6901 0.8838
H19_2 H 0.3959 0.7646 0.6707
H20_2 H 0.3341 0.7516 0.7065
H21_2 H 0.4709 0.9210 0.6765
H22_2 H 0.4696 0.8691 0.6260
H23_2 H 0.3339 0.8348 0.7743
H24_2 H 0.3733 0.9010 0.7431
Cu1_5 Cu 0.18590(11) 0.76474(8) 0.0000
Cl1_5 Cl 0.09474(25) 0.76964(18) 0.0000
Cl3_3 Cl 0.04264(20) 0.60671(14) 0.11501(18)
Cl4_5 Cl 0.18658(25) 0.60120(18) 0.0000
O1_5 O 0.1349(6) 0.6809(4) 0.0000
N1_5 N 0.2441(7) 0.8531(5) 0.0000
C1_3 C 0.2371(7) 0.8838(5) 0.0691(7)
C2_3 C 0.2856(7) 0.9502(5) 0.0694(7)
C3_5 C 0.3048(10) 0.8620(7) 0.0000
C4_5 C 0.3516(10) 0.9264(7) 0.0000
H1_3 H 0.2403 0.8647 0.1164
H2_3 H 0.1976 0.8802 0.0682
H3_3 H 0.2664 0.9746 0.0709
H4_3 H 0.3099 0.9588 0.1162
H6_3 H 0.3100 0.8428 0.0458
Cu5_3 Cu 0.14958(8) 0.64715(6) 0.09080(8)
Cl5_3 Cl 0.21977(18) 0.74787(12) 0.12703(17)
N6_3 N 0.1585(6) 0.6083(4) 0.1873(5)
H18_3 H 0.3769 0.9348 0.0458
Cu1_6 Cu 0.18590(11) 0.76474(8) 1.0000
Cu3_3 Cu 0.14958(8) 0.64715(6) 0.90920(8)
Cl1_6 Cl 0.09474(25) 0.76964(18) 1.0000
Cl2_3 Cl 0.21977(18) 0.74787(12) 0.87297(17)
Cl4_6 Cl 0.18658(25) 0.60120(18) 1.0000
O1_6 O 0.1349(6) 0.6809(4) 1.0000
N1_6 N 0.2441(7) 0.8531(5) 1.0000
N3_3 N 0.1585(6) 0.6083(4) 0.8127(5)
C3_6 C 0.3048(10) 0.8620(7) 1.0000
C4_6 C 0.3516(10) 0.9264(7) 1.0000
C5_3 C 0.2213(7) 0.6227(5) 0.7918(7)
C6_3 C 0.1215(6) 0.5415(4) 0.8239(7)
C7_3 C 0.1353(7) 0.6261(5) 0.7430(7)
H5_3 H 0.3100 0.8428 0.9542
H7_3 H 0.3769 0.9348 0.9542
H8_3 H 0.2354 0.6041 0.8293
H9_3 H 0.2484 0.6659 0.7935
H10_3 H 0.0790 0.5291 0.8235
H11_3 H 0.1309 0.5304 0.8740
H12_3 H 0.1652 0.6661 0.7257
H13_3 H 0.0990 0.6267 0.7569
Cu6_3 Cu 0.14958(8) 0.50243(6) 0.59080(8)
Cl6_3 Cl 0.04264(20) 0.60671(14) 0.88499(18)
N5_3 N 0.1585(6) 0.5502(4) 0.6873(5)
C8_3 C 0.2371(7) 0.8838(5) 0.9309(7)
C9_3 C 0.2856(7) 0.9502(5) 0.9306(7)
C10_3 C 0.2213(7) 0.5986(5) 0.7082(7)
C11_3 C 0.1215(6) 0.5800(5) 0.6761(7)
C12_3 C 0.1353(7) 0.5092(5) 0.7570(7)
H14_3 H 0.2403 0.8647 0.8836
H15_3 H 0.1976 0.8802 0.9318
H16_3 H 0.2664 0.9746 0.9291
H17_3 H 0.3099 0.9588 0.8838
H19_3 H 0.2354 0.6313 0.6707
H20_3 H 0.2484 0.5825 0.7065
H21_3 H 0.0790 0.5499 0.6765
H22_3 H 0.1309 0.6005 0.6260
H23_3 H 0.1652 0.4991 0.7743
H24_3 H 0.0990 0.4723 0.7431
Cu1_7 Cu 0.18590(11) 0.42116(8) 0.5000
Cu2_3 Cu 0.05278(11) 0.38974(8) 0.5000
Cl1_7 Cl 0.09474(25) 0.32510(18) 0.5000
Cl2_4 Cl 0.21977(18) 0.47190(13) 0.62703(17)
Cl3_4 Cl 0.04264(20) 0.43593(14) 0.38499(18)
Cl4_7 Cl 0.18658(25) 0.58538(17) 0.5000
O1_7 O 0.1349(6) 0.4540(4) 0.5000
N1_7 N 0.2441(7) 0.3910(5) 0.5000
N2_3 N 0.3253(7) 0.3581(5) 0.5000
C1_4 C 0.2371(7) 0.3533(5) 0.4309(7)
C2_4 C 0.2856(7) 0.3354(5) 0.4306(7)
C3_7 C 0.3048(10) 0.4428(7) 0.5000
C4_7 C 0.3516(10) 0.4252(7) 0.5000
H1_4 H 0.2403 0.3756 0.3836
H2_4 H 0.1976 0.3174 0.4318
H3_4 H 0.2664 0.2918 0.4291
H4_4 H 0.3099 0.3511 0.3838
H5_4 H 0.3100 0.4672 0.5458
H6_4 H 0.3100 0.4672 0.4542
H7_4 H 0.3769 0.4421 0.5458
Cu4_5 Cu 0.38974(14) 0.33696(8) 0.5000
Cu5_4 Cu 0.14958(8) 0.50243(6) 0.40920(8)
Cl5_4 Cl 0.21977(18) 0.47190(13) 0.37297(17)
Cl6_4 Cl 0.04264(20) 0.43593(14) 0.61501(18)
N6_4 N 0.1585(6) 0.5502(4) 0.3127(5)
C8_4 C 0.2371(7) 0.3533(5) 0.5691(7)
C9_4 C 0.2856(7) 0.3354(5) 0.5694(7)
H14_4 H 0.2403 0.3756 0.6164
H15_4 H 0.1976 0.3174 0.5682
H16_4 H 0.2664 0.2918 0.5709
H17_4 H 0.3099 0.3511 0.6162
H18_4 H 0.3769 0.4421 0.4542
N4_5 N 0.3581(5) 0.0328(9) 0.5000
Cu1_8 Cu 0.23526(8) 0.81410(11) 0.5000
Cu2_4 Cu 0.33696(8) 0.94722(11) 0.5000
Cl1_8 Cl 0.23036(18) 0.90526(25) 0.5000
Cl2_5 Cl 0.25213(12) 0.78023(18) 0.62703(17)
Cl3_5 Cl 0.39329(14) 0.95736(20) 0.38499(18)
Cl4_8 Cl 0.39880(18) 0.81342(25) 0.5000
O1_8 O 0.3191(4) 0.8651(6) 0.5000
N1_8 N 0.1469(5) 0.7559(7) 0.5000
N2_4 N 0.0328(5) 0.6747(7) 0.5000
C1_5 C 0.1162(5) 0.7629(7) 0.4309(7)
C2_5 C 0.0498(5) 0.7144(7) 0.4306(7)
C3_8 C 0.1380(7) 0.6952(10) 0.5000
C4_8 C 0.0736(7) 0.6484(10) 0.5000
H1_5 H 0.1353 0.7597 0.3836
H2_5 H 0.1198 0.8024 0.4318
H3_5 H 0.0254 0.7336 0.4291
H4_5 H 0.0412 0.6901 0.3838
H5_5 H 0.1572 0.6900 0.5458
H6_5 H 0.1572 0.6900 0.4542
H7_5 H 0.0652 0.6231 0.5458
Cu5_5 Cu 0.35285(6) 0.85042(8) 0.40920(8)
Cl5_5 Cl 0.25213(12) 0.78023(18) 0.37297(17)
Cl6_5 Cl 0.39329(14) 0.95736(20) 0.61501(18)
N6_5 N 0.3917(4) 0.8415(6) 0.3127(5)
C8_5 C 0.1162(5) 0.7629(7) 0.5691(7)
C9_5 C 0.0498(5) 0.7144(7) 0.5694(7)
H14_5 H 0.1353 0.7597 0.6164
H15_5 H 0.1198 0.8024 0.5682
H16_5 H 0.0254 0.7336 0.5709
H17_5 H 0.0412 0.6901 0.6162
H18_5 H 0.0652 0.6231 0.4542
Cu1_9 Cu 0.42116(8) 0.23526(8) 0.5000
Cl1_9 Cl 0.32510(18) 0.23036(18) 0.5000
Cl2_6 Cl 0.47190(13) 0.25213(12) 0.62703(17)
Cl3_6 Cl 0.43593(14) 0.39329(14) 0.38499(18)
Cl4_9 Cl 0.58538(17) 0.39880(18) 0.5000
O1_9 O 0.4540(4) 0.3191(4) 0.5000
N1_9 N 0.3910(5) 0.1469(5) 0.5000
C1_6 C 0.3533(5) 0.1162(5) 0.4309(7)
C2_6 C 0.3354(5) 0.0498(5) 0.4306(7)
C3_9 C 0.4428(7) 0.1380(7) 0.5000
C4_9 C 0.4252(7) 0.0736(7) 0.5000
H1_6 H 0.3756 0.1353 0.3836
H2_6 H 0.3174 0.1198 0.4318
H3_6 H 0.2918 0.0254 0.4291
H4_6 H 0.3511 0.0412 0.3838
H5_6 H 0.4672 0.1572 0.5458
H6_6 H 0.4672 0.1572 0.4542
H7_6 H 0.4421 0.0652 0.5458
Cu5_6 Cu 0.50243(6) 0.35285(6) 0.40920(8)
Cl5_6 Cl 0.47190(13) 0.25213(12) 0.37297(17)
Cl6_6 Cl 0.43593(14) 0.39329(14) 0.61501(18)
N6_6 N 0.5502(4) 0.3917(4) 0.3127(5)
C8_6 C 0.3533(5) 0.1162(5) 0.5691(7)
C9_6 C 0.3354(5) 0.0498(5) 0.5694(7)
H14_6 H 0.3756 0.1353 0.6164
H15_6 H 0.3174 0.1198 0.5682
H16_6 H 0.2918 0.0254 0.5709
H17_6 H 0.3511 0.0412 0.6162
H18_6 H 0.4421 0.0652 0.4542
C5_4 C 0.4014(5) 0.7787(7) 0.2082(7)
C6_4 C 0.4200(5) 0.8785(6) 0.1761(7)
C7_4 C 0.4908(5) 0.8647(7) 0.2570(7)
H8_4 H 0.3687 0.7646 0.1707
H9_4 H 0.4175 0.7516 0.2065
H10_4 H 0.4501 0.9210 0.1765
H11_4 H 0.3995 0.8691 0.1260
H12_4 H 0.5009 0.8348 0.2743
H13_4 H 0.5277 0.9010 0.2431
C10_4 C 0.3773(5) 0.7787(7) 0.2918(7)
C11_4 C 0.4585(4) 0.8785(6) 0.3239(7)
C12_4 C 0.3739(5) 0.8647(7) 0.2430(7)
H19_4 H 0.3959 0.7646 0.3293
H20_4 H 0.3341 0.7516 0.2935
H21_4 H 0.4709 0.9210 0.3235
H22_4 H 0.4696 0.8691 0.3740
H23_4 H 0.3339 0.8348 0.2257
H24_4 H 0.3733 0.9010 0.2569
C5_5 C 0.2213(7) 0.6227(5) 0.2082(7)
C6_5 C 0.1215(6) 0.5415(4) 0.1761(7)
C7_5 C 0.1353(7) 0.6261(5) 0.2570(7)
H8_5 H 0.2354 0.6041 0.1707
H9_5 H 0.2484 0.6659 0.2065
H10_5 H 0.0790 0.5291 0.1765
H11_5 H 0.1309 0.5304 0.1260
H12_5 H 0.1652 0.6661 0.2743
H13_5 H 0.0990 0.6267 0.2431
C10_5 C 0.2213(7) 0.5986(5) 0.2918(7)
C11_5 C 0.1215(6) 0.5800(5) 0.3239(7)
C12_5 C 0.1353(7) 0.5092(5) 0.2430(7)
H19_5 H 0.2354 0.6313 0.3293
H20_5 H 0.2484 0.5825 0.2935
H21_5 H 0.0790 0.5499 0.3235
H22_5 H 0.1309 0.6005 0.3740
H23_5 H 0.1652 0.4991 0.2257
H24_5 H 0.0990 0.4723 0.2569
C5_6 C 0.6227(5) 0.4014(5) 0.2082(7)
C6_6 C 0.5415(4) 0.4200(5) 0.1761(7)
C7_6 C 0.6261(5) 0.4908(5) 0.2570(7)
H8_6 H 0.6041 0.3687 0.1707
H9_6 H 0.6659 0.4175 0.2065
H10_6 H 0.5291 0.4501 0.1765
H11_6 H 0.5304 0.3995 0.1260
H12_6 H 0.6661 0.5009 0.2743
H13_6 H 0.6267 0.5277 0.2431
C10_6 C 0.5986(5) 0.3773(5) 0.2918(7)
C11_6 C 0.5800(5) 0.4585(4) 0.3239(7)
C12_6 C 0.5092(5) 0.3739(5) 0.2430(7)
H19_6 H 0.6313 0.3959 0.3293
H20_6 H 0.5825 0.3341 0.2935
H21_6 H 0.5499 0.4709 0.3235
H22_6 H 0.6005 0.4696 0.3740
H23_6 H 0.4991 0.3339 0.2257
H24_6 H 0.4723 0.3733 0.2569
Cu1_10 Cu 0.42116(8) 0.18590(11) 0.0000
Cu2_5 Cu 0.38974(8) 0.05278(11) 0.0000
Cl1_10 Cl 0.32510(18) 0.09474(25) 0.0000
Cl3_7 Cl 0.43593(14) 0.04264(20) 0.11501(18)
Cl4_10 Cl 0.58538(17) 0.18658(25) 0.0000
O1_10 O 0.4540(4) 0.1349(6) 0.0000
N1_10 N 0.3910(5) 0.2441(7) 0.0000
N2_5 N 0.3581(5) 0.3253(7) 0.0000
C1_7 C 0.3533(5) 0.2371(7) 0.0691(7)
C2_7 C 0.3354(5) 0.2856(7) 0.0694(7)
C3_10 C 0.4428(7) 0.3048(10) 0.0000
C4_10 C 0.4252(7) 0.3516(10) 0.0000
H1_7 H 0.3756 0.2403 0.1164
H2_7 H 0.3174 0.1976 0.0682
H3_7 H 0.2918 0.2664 0.0709
H4_7 H 0.3511 0.3099 0.1162
H6_7 H 0.4672 0.3100 0.0458
Cu4_6 Cu 0.33696(8) 0.38974(14) 0.0000
Cu5_7 Cu 0.50243(6) 0.14958(8) 0.09080(8)
Cl5_7 Cl 0.47190(13) 0.21977(18) 0.12703(17)
N6_7 N 0.5502(4) 0.1585(6) 0.1873(5)
H18_7 H 0.4421 0.3769 0.0458
Cu1_11 Cu 0.42116(8) 0.18590(11) 1.0000
Cu2_6 Cu 0.38974(8) 0.05278(11) 1.0000
Cu3_4 Cu 0.50243(6) 0.14958(8) 0.90920(8)
Cl1_11 Cl 0.32510(18) 0.09474(25) 1.0000
Cl2_7 Cl 0.47190(13) 0.21977(18) 0.87297(17)
Cl4_11 Cl 0.58538(17) 0.18658(25) 1.0000
O1_11 O 0.4540(4) 0.1349(6) 1.0000
N1_11 N 0.3910(5) 0.2441(7) 1.0000
N2_6 N 0.3581(5) 0.3253(7) 1.0000
N3_4 N 0.5502(4) 0.1585(6) 0.8127(5)
C3_11 C 0.4428(7) 0.3048(10) 1.0000
C4_11 C 0.4252(7) 0.3516(10) 1.0000
C5_7 C 0.5986(5) 0.2213(7) 0.7918(7)
C6_7 C 0.5800(5) 0.1215(6) 0.8239(7)
C7_7 C 0.5092(5) 0.1353(7) 0.7430(7)
H5_7 H 0.4672 0.3100 0.9542
H7_7 H 0.4421 0.3769 0.9542
H8_7 H 0.6313 0.2354 0.8293
H9_7 H 0.5825 0.2484 0.7935
H10_7 H 0.5499 0.0790 0.8235
H11_7 H 0.6005 0.1309 0.8740
H12_7 H 0.4991 0.1652 0.7257
H13_7 H 0.4723 0.0990 0.7569
Cu4_7 Cu 0.33696(8) 0.38974(14) 1.0000
Cu6_4 Cu 0.64715(6) 0.14958(8) 0.59080(8)
Cl6_7 Cl 0.43593(14) 0.04264(20) 0.88499(18)
N5_4 N 0.6083(4) 0.1585(6) 0.6873(5)
C8_7 C 0.3533(5) 0.2371(7) 0.9309(7)
C9_7 C 0.3354(5) 0.2856(7) 0.9306(7)
C10_7 C 0.6227(5) 0.2213(7) 0.7082(7)
C11_7 C 0.5415(4) 0.1215(6) 0.6761(7)
C12_7 C 0.6261(5) 0.1353(7) 0.7570(7)
H14_7 H 0.3756 0.2403 0.8836
H15_7 H 0.3174 0.1976 0.9318
H16_7 H 0.2918 0.2664 0.9291
H17_7 H 0.3511 0.3099 0.8838
H19_7 H 0.6041 0.2354 0.6707
H20_7 H 0.6659 0.2484 0.7065
H21_7 H 0.5291 0.0790 0.6765
H22_7 H 0.5304 0.1309 0.6260
H23_7 H 0.6661 0.1652 0.7743
H24_7 H 0.6267 0.0990 0.7431
N4_6 N 0.0328(9) 0.3581(5) 0.0000
N4_7 N 0.0328(9) 0.3581(5) 1.0000
Cu1_12 Cu 0.81410(11) 0.23526(8) 0.0000
Cu2_7 Cu 0.94722(11) 0.33696(8) 0.0000
Cl1_12 Cl 0.90526(25) 0.23036(18) 0.0000
Cl3_8 Cl 0.95736(20) 0.39329(14) 0.11501(18)
Cl4_12 Cl 0.81342(25) 0.39880(18) 0.0000
O1_12 O 0.8651(6) 0.3191(4) 0.0000
N1_12 N 0.7559(7) 0.1469(5) 0.0000
N2_7 N 0.6747(7) 0.0328(5) 0.0000
C1_8 C 0.7629(7) 0.1162(5) 0.0691(7)
C2_8 C 0.7144(7) 0.0498(5) 0.0694(7)
C3_12 C 0.6952(10) 0.1380(7) 0.0000
C4_12 C 0.6484(10) 0.0736(7) 0.0000
H1_8 H 0.7597 0.1353 0.1164
H2_8 H 0.8024 0.1198 0.0682
H3_8 H 0.7336 0.0254 0.0709
H4_8 H 0.6901 0.0412 0.1162
H6_8 H 0.6900 0.1572 0.0458
Cu5_8 Cu 0.85042(8) 0.35285(6) 0.09080(8)
Cl5_8 Cl 0.78023(18) 0.25213(12) 0.12703(17)
N6_8 N 0.8415(6) 0.3917(4) 0.1873(5)
H18_8 H 0.6231 0.0652 0.0458
Cu1_13 Cu 0.81410(11) 0.23526(8) 1.0000
Cu2_8 Cu 0.94722(11) 0.33696(8) 1.0000
Cu3_5 Cu 0.85042(8) 0.35285(6) 0.90920(8)
Cl1_13 Cl 0.90526(25) 0.23036(18) 1.0000
Cl2_8 Cl 0.78023(18) 0.25213(12) 0.87297(17)
Cl4_13 Cl 0.81342(25) 0.39880(18) 1.0000
O1_13 O 0.8651(6) 0.3191(4) 1.0000
N1_13 N 0.7559(7) 0.1469(5) 1.0000
N2_8 N 0.6747(7) 0.0328(5) 1.0000
N3_5 N 0.8415(6) 0.3917(4) 0.8127(5)
C3_13 C 0.6952(10) 0.1380(7) 1.0000
C4_13 C 0.6484(10) 0.0736(7) 1.0000
C5_8 C 0.7787(7) 0.3773(5) 0.7918(7)
C6_8 C 0.8785(6) 0.4585(4) 0.8239(7)
C7_8 C 0.8647(7) 0.3739(5) 0.7430(7)
H5_8 H 0.6900 0.1572 0.9542
H7_8 H 0.6231 0.0652 0.9542
H8_8 H 0.7646 0.3959 0.8293
H9_8 H 0.7516 0.3341 0.7935
H10_8 H 0.9210 0.4709 0.8235
H11_8 H 0.8691 0.4696 0.8740
H12_8 H 0.8348 0.3339 0.7257
H13_8 H 0.9010 0.3733 0.7569
Cu6_5 Cu 0.85042(8) 0.49757(6) 0.59080(8)
Cl6_8 Cl 0.95736(20) 0.39329(14) 0.88499(18)
N5_5 N 0.8415(6) 0.4498(4) 0.6873(5)
C8_8 C 0.7629(7) 0.1162(5) 0.9309(7)
C9_8 C 0.7144(7) 0.0498(5) 0.9306(7)
C10_8 C 0.7787(7) 0.4014(5) 0.7082(7)
C11_8 C 0.8785(6) 0.4200(5) 0.6761(7)
C12_8 C 0.8647(7) 0.4908(5) 0.7570(7)
H14_8 H 0.7597 0.1353 0.8836
H15_8 H 0.8024 0.1198 0.9318
H16_8 H 0.7336 0.0254 0.9291
H17_8 H 0.6901 0.0412 0.8838
H19_8 H 0.7646 0.3687 0.6707
H20_8 H 0.7516 0.4175 0.7065
H21_8 H 0.9210 0.4501 0.6765
H22_8 H 0.8691 0.3995 0.6260
H23_8 H 0.8348 0.5009 0.7743
H24_8 H 0.9010 0.5277 0.7431
Cu1_14 Cu 0.23526(8) 0.42116(8) 0.0000
Cl1_14 Cl 0.23036(18) 0.32510(18) 0.0000
Cl3_9 Cl 0.39329(14) 0.43593(14) 0.11501(18)
Cl4_14 Cl 0.39880(18) 0.58538(17) 0.0000
O1_14 O 0.3191(4) 0.4540(4) 0.0000
N1_14 N 0.1469(5) 0.3910(5) 0.0000
C1_9 C 0.1162(5) 0.3533(5) 0.0691(7)
C2_9 C 0.0498(5) 0.3354(5) 0.0694(7)
C3_14 C 0.1380(7) 0.4428(7) 0.0000
C4_14 C 0.0736(7) 0.4252(7) 0.0000
H1_9 H 0.1353 0.3756 0.1164
H2_9 H 0.1198 0.3174 0.0682
H3_9 H 0.0254 0.2918 0.0709
H4_9 H 0.0412 0.3511 0.1162
H6_9 H 0.1572 0.4672 0.0458
Cu5_9 Cu 0.35285(6) 0.50243(6) 0.09080(8)
Cl5_9 Cl 0.25213(12) 0.47190(13) 0.12703(17)
N6_9 N 0.3917(4) 0.5502(4) 0.1873(5)
H18_9 H 0.0652 0.4421 0.0458
Cu1_15 Cu 0.23526(8) 0.42116(8) 1.0000
Cu3_6 Cu 0.35285(6) 0.50243(6) 0.90920(8)
Cl1_15 Cl 0.23036(18) 0.32510(18) 1.0000
Cl2_9 Cl 0.25213(12) 0.47190(13) 0.87297(17)
Cl4_15 Cl 0.39880(18) 0.58538(17) 1.0000
O1_15 O 0.3191(4) 0.4540(4) 1.0000
N1_15 N 0.1469(5) 0.3910(5) 1.0000
N3_6 N 0.3917(4) 0.5502(4) 0.8127(5)
C3_15 C 0.1380(7) 0.4428(7) 1.0000
C4_15 C 0.0736(7) 0.4252(7) 1.0000
C5_9 C 0.3773(5) 0.5986(5) 0.7918(7)
C6_9 C 0.4585(4) 0.5800(5) 0.8239(7)
C7_9 C 0.3739(5) 0.5092(5) 0.7430(7)
H5_9 H 0.1572 0.4672 0.9542
H7_9 H 0.0652 0.4421 0.9542
H8_9 H 0.3959 0.6313 0.8293
H9_9 H 0.3341 0.5825 0.7935
H10_9 H 0.4709 0.5499 0.8235
H11_9 H 0.4696 0.6005 0.8740
H12_9 H 0.3339 0.4991 0.7257
H13_9 H 0.3733 0.4723 0.7569
Cu6_6 Cu 0.49757(6) 0.64715(6) 0.59080(8)
Cl6_9 Cl 0.39329(14) 0.43593(14) 0.88499(18)
N5_6 N 0.4498(4) 0.6083(4) 0.6873(5)
C8_9 C 0.1162(5) 0.3533(5) 0.9309(7)
C9_9 C 0.0498(5) 0.3354(5) 0.9306(7)
C10_9 C 0.4014(5) 0.6227(5) 0.7082(7)
C11_9 C 0.4200(5) 0.5415(4) 0.6761(7)
C12_9 C 0.4908(5) 0.6261(5) 0.7570(7)
H14_9 H 0.1353 0.3756 0.8836
H15_9 H 0.1198 0.3174 0.9318
H16_9 H 0.0254 0.2918 0.9291
H17_9 H 0.0412 0.3511 0.8838
H19_9 H 0.3687 0.6041 0.6707
H20_9 H 0.4175 0.6659 0.7065
H21_9 H 0.4501 0.5291 0.6765
H22_9 H 0.3995 0.5304 0.6260
H23_9 H 0.5009 0.6661 0.7743
H24_9 H 0.5277 0.6267 0.7431
Cu4_8 Cu 0.66304(8) 0.05278(11) 0.5000
Cu1_16 Cu 0.57884(8) 0.76474(8) 0.5000
Cu2_9 Cu 0.61026(8) 0.66304(8) 0.5000
Cl1_16 Cl 0.67490(18) 0.76964(18) 0.5000
Cl2_10 Cl 0.52810(13) 0.74787(12) 0.62703(17)
Cl3_10 Cl 0.56407(14) 0.60671(14) 0.38499(18)
Cl4_16 Cl 0.41462(17) 0.60120(18) 0.5000
O1_16 O 0.5460(4) 0.6809(4) 0.5000
N1_16 N 0.6090(5) 0.8531(5) 0.5000
N2_9 N 0.6419(5) 0.9672(5) 0.5000
C1_10 C 0.6467(5) 0.8838(5) 0.4309(7)
C2_10 C 0.6646(5) 0.9502(5) 0.4306(7)
C3_16 C 0.5572(7) 0.8620(7) 0.5000
C4_16 C 0.5748(7) 0.9264(7) 0.5000
H1_10 H 0.6244 0.8647 0.3836
H2_10 H 0.6826 0.8802 0.4318
H3_10 H 0.7082 0.9746 0.4291
H4_10 H 0.6489 0.9588 0.3838
H5_10 H 0.5328 0.8428 0.5458
H6_10 H 0.5328 0.8428 0.4542
H7_10 H 0.5579 0.9348 0.5458
Cu5_10 Cu 0.49757(6) 0.64715(6) 0.40920(8)
Cl5_10 Cl 0.52810(13) 0.74787(12) 0.37297(17)
Cl6_10 Cl 0.56407(14) 0.60671(14) 0.61501(18)
N4_8 N 0.6747(7) 0.6419(5) 0.5000
N6_10 N 0.4498(4) 0.6083(4) 0.3127(5)
C8_10 C 0.6467(5) 0.8838(5) 0.5691(7)
C9_10 C 0.6646(5) 0.9502(5) 0.5694(7)
H14_10 H 0.6244 0.8647 0.6164
H15_10 H 0.6826 0.8802 0.5682
H16_10 H 0.7082 0.9746 0.5709
H17_10 H 0.6489 0.9588 0.6162
H18_10 H 0.5579 0.9348 0.4542
N4_9 N 0.9672(9) 0.3253(7) 0.5000
Cu4_9 Cu 0.94722(11) 0.61026(14) 0.5000
Cu1_17 Cu 0.81410(11) 0.57884(8) 0.5000
Cl1_17 Cl 0.90526(25) 0.67490(18) 0.5000
Cl2_11 Cl 0.78023(18) 0.52810(13) 0.62703(17)
Cl3_11 Cl 0.95736(20) 0.56407(14) 0.38499(18)
Cl4_17 Cl 0.81342(25) 0.41462(17) 0.5000
O1_17 O 0.8651(6) 0.5460(4) 0.5000
N1_17 N 0.7559(7) 0.6090(5) 0.5000
C1_11 C 0.7629(7) 0.6467(5) 0.4309(7)
C2_11 C 0.7144(7) 0.6646(5) 0.4306(7)
C3_17 C 0.6952(10) 0.5572(7) 0.5000
C4_17 C 0.6484(10) 0.5748(7) 0.5000
H1_11 H 0.7597 0.6244 0.3836
H2_11 H 0.8024 0.6826 0.4318
H3_11 H 0.7336 0.7082 0.4291
H4_11 H 0.6901 0.6489 0.3838
H5_11 H 0.6900 0.5328 0.5458
H6_11 H 0.6900 0.5328 0.4542
H7_11 H 0.6231 0.5579 0.5458
Cu5_11 Cu 0.85042(8) 0.49757(6) 0.40920(8)
Cl5_11 Cl 0.78023(18) 0.52810(13) 0.37297(17)
Cl6_11 Cl 0.95736(20) 0.56407(14) 0.61501(18)
N6_11 N 0.8415(6) 0.4498(4) 0.3127(5)
C8_11 C 0.7629(7) 0.6467(5) 0.5691(7)
C9_11 C 0.7144(7) 0.6646(5) 0.5694(7)
H14_11 H 0.7597 0.6244 0.6164
H15_11 H 0.8024 0.6826 0.5682
H16_11 H 0.7336 0.7082 0.5709
H17_11 H 0.6901 0.6489 0.6162
H18_11 H 0.6231 0.5579 0.4542
Cu1_18 Cu 0.76474(8) 0.18590(11) 0.5000
Cl1_18 Cl 0.76964(18) 0.09474(25) 0.5000
Cl2_12 Cl 0.74787(12) 0.21977(18) 0.62703(17)
Cl3_12 Cl 0.60671(14) 0.04264(20) 0.38499(18)
Cl4_18 Cl 0.60120(18) 0.18658(25) 0.5000
O1_18 O 0.6809(4) 0.1349(6) 0.5000
N1_18 N 0.8531(5) 0.2441(7) 0.5000
C1_12 C 0.8838(5) 0.2371(7) 0.4309(7)
C2_12 C 0.9502(5) 0.2856(7) 0.4306(7)
C3_18 C 0.8620(7) 0.3048(10) 0.5000
C4_18 C 0.9264(7) 0.3516(10) 0.5000
H1_12 H 0.8647 0.2403 0.3836
H2_12 H 0.8802 0.1976 0.4318
H3_12 H 0.9746 0.2664 0.4291
H4_12 H 0.9588 0.3099 0.3838
H5_12 H 0.8428 0.3100 0.5458
H6_12 H 0.8428 0.3100 0.4542
H7_12 H 0.9348 0.3769 0.5458
Cu5_12 Cu 0.64715(6) 0.14958(8) 0.40920(8)
Cl5_12 Cl 0.74787(12) 0.21977(18) 0.37297(17)
Cl6_12 Cl 0.60671(14) 0.04264(20) 0.61501(18)
N6_12 N 0.6083(4) 0.1585(6) 0.3127(5)
C8_12 C 0.8838(5) 0.2371(7) 0.5691(7)
C9_12 C 0.9502(5) 0.2856(7) 0.5694(7)
H14_12 H 0.8647 0.2403 0.6164
H15_12 H 0.8802 0.1976 0.5682
H16_12 H 0.9746 0.2664 0.5709
H17_12 H 0.9588 0.3099 0.6162
H18_12 H 0.9348 0.3769 0.4542
C5_10 C 0.3773(5) 0.5986(5) 0.2082(7)
C6_10 C 0.4585(4) 0.5800(5) 0.1761(7)
C7_10 C 0.3739(5) 0.5092(5) 0.2570(7)
H8_10 H 0.3959 0.6313 0.1707
H9_10 H 0.3341 0.5825 0.2065
H10_10 H 0.4709 0.5499 0.1765
H11_10 H 0.4696 0.6005 0.1260
H12_10 H 0.3339 0.4991 0.2743
H13_10 H 0.3733 0.4723 0.2431
C10_10 C 0.4014(5) 0.6227(5) 0.2918(7)
C11_10 C 0.4200(5) 0.5415(4) 0.3239(7)
C12_10 C 0.4908(5) 0.6261(5) 0.2430(7)
H19_10 H 0.3687 0.6041 0.3293
H20_10 H 0.4175 0.6659 0.2935
H21_10 H 0.4501 0.5291 0.3235
H22_10 H 0.3995 0.5304 0.3740
H23_10 H 0.5009 0.6661 0.2257
H24_10 H 0.5277 0.6267 0.2569
C5_11 C 0.5986(5) 0.2213(7) 0.2082(7)
C6_11 C 0.5800(5) 0.1215(6) 0.1761(7)
C7_11 C 0.5092(5) 0.1353(7) 0.2570(7)
H8_11 H 0.6313 0.2354 0.1707
H9_11 H 0.5825 0.2484 0.2065
H10_11 H 0.5499 0.0790 0.1765
H11_11 H 0.6005 0.1309 0.1260
H12_11 H 0.4991 0.1652 0.2743
H13_11 H 0.4723 0.0990 0.2431
C10_11 C 0.6227(5) 0.2213(7) 0.2918(7)
C11_11 C 0.5415(4) 0.1215(6) 0.3239(7)
C12_11 C 0.6261(5) 0.1353(7) 0.2430(7)
H19_11 H 0.6041 0.2354 0.3293
H20_11 H 0.6659 0.2484 0.2935
H21_11 H 0.5291 0.0790 0.3235
H22_11 H 0.5304 0.1309 0.3740
H23_11 H 0.6661 0.1652 0.2257
H24_11 H 0.6267 0.0990 0.2569
C5_12 C 0.7787(7) 0.3773(5) 0.2082(7)
C6_12 C 0.8785(6) 0.4585(4) 0.1761(7)
C7_12 C 0.8647(7) 0.3739(5) 0.2570(7)
H8_12 H 0.7646 0.3959 0.1707
H9_12 H 0.7516 0.3341 0.2065
H10_12 H 0.9210 0.4709 0.1765
H11_12 H 0.8691 0.4696 0.1260
H12_12 H 0.8348 0.3339 0.2743
H13_12 H 0.9010 0.3733 0.2431
C10_12 C 0.7787(7) 0.4014(5) 0.2918(7)
C11_12 C 0.8785(6) 0.4200(5) 0.3239(7)
C12_12 C 0.8647(7) 0.4908(5) 0.2430(7)
H19_12 H 0.7646 0.3687 0.3293
H20_12 H 0.7516 0.4175 0.2935
H21_12 H 0.9210 0.4501 0.3235
H22_12 H 0.8691 0.3995 0.3740
H23_12 H 0.8348 0.5009 0.2257
H24_12 H 0.9010 0.5277 0.2569
loop_
_geom_bond_atom_site_label_1
_geom_bond_atom_site_label_2
_geom_bond_site_symmetry_1
_geom_bond_site_symmetry_2
Cu1 Cl1 1_555 1_555
Cu2 Cl1 1_555 1_555
Cl3 Cu2 1_555 1_555
O1 Cu1 1_555 1_555
N1 Cu1 1_555 1_555
N2 C2 1_555 1_555
C1 N1 1_555 1_555
C2 C1 1_555 1_555
C3 N1 1_555 1_555
C4 N2 1_555 1_555
H1 C1 1_555 1_555
H2 C1 1_555 1_555
H3 C2 1_555 1_555
H4 C2 1_555 1_555
H6 C3 1_555 1_555
Cu5 Cl3 1_555 1_555
Cl5 Cu1 1_555 1_555
N4 Cu2 1_555 1_555
N6 Cu5 1_555 1_555
H18 C4 1_555 1_555
Cu2 O1 1_555 1_555
Cl4 Cu5 1_555 1_555
O1 Cu5 1_555 1_555
C3 C4 1_555 1_555
Cu5 Cl5 1_555 1_555
Cu1_2 Cl1_2 1_555 1_555
Cu2_2 Cl1_2 1_555 1_555
Cu3 Cl2 1_555 1_555
Cl2 Cu1_2 1_555 1_555
Cl4_2 Cu3 1_555 1_555
O1_2 Cu1_2 1_555 1_555
N1_2 Cu1_2 1_555 1_555
N3 Cu3 1_555 1_555
C3_2 N1_2 1_555 1_555
C4_2 N2_2 1_555 1_555
C5 N3 1_555 1_555
C6 N3 1_555 1_555
C7 N3 1_555 1_555
H5 C3_2 1_555 1_555
H7 C4_2 1_555 1_555
H8 C5 1_555 1_555
H9 C5 1_555 1_555
H10 C6 1_555 1_555
H11 C6 1_555 1_555
H12 C7 1_555 1_555
H13 C7 1_555 1_555
Cu6 N5 1_555 1_555
Cl6 Cu2_2 1_555 1_555
N4_2 Cu2_2 1_555 1_555
N5 C10 1_555 1_555
C8 N1_2 1_555 1_555
C9 N2_2 1_555 1_555
C10 C5 1_555 1_555
C11 C7 1_555 1_555
C12 C6 1_555 1_555
H14 C8 1_555 1_555
H15 C8 1_555 1_555
H16 C9 1_555 1_555
H17 C9 1_555 1_555
H19 C10 1_555 1_555
H20 C10 1_555 1_555
H21 C11 1_555 1_555
H22 C11 1_555 1_555
H23 C12 1_555 1_555
H24 C12 1_555 1_555
Cu2_2 O1_2 1_555 1_555
Cu3 O1_2 1_555 1_555
Cu3 Cl6 1_555 1_555
C3_2 C4_2 1_555 1_555
N5 C11 1_555 1_555
N5 C12 1_555 1_555
C8 C9 1_555 1_555
Cu1_3 Cl1_3 1_555 1_555
Cu4_3 Cl1_3 1_555 1_555
Cl3_2 Cu4_3 1_555 1_555
O1_3 Cu1_3 1_555 1_555
N1_3 Cu1_3 1_555 1_555
N4 C2_2 1_555 1_555
C1_2 N1_3 1_555 1_555
C2_2 C1_2 1_555 1_555
C3_3 N1_3 1_555 1_555
C4_3 N4 1_555 1_555
H1_2 C1_2 1_555 1_555
H2_2 C1_2 1_555 1_555
H3_2 C2_2 1_555 1_555
H4_2 C2_2 1_555 1_555
H6_2 C3_3 1_555 1_555
Cu5_2 Cl3_2 1_555 1_555
Cl5_2 Cu1_3 1_555 1_555
N6_2 Cu5_2 1_555 1_555
H18_2 C4_3 1_555 1_555
Cu4_3 O1_3 1_555 1_555
Cl4_3 Cu5_2 1_555 1_555
O1_3 Cu5_2 1_555 1_555
C3_3 C4_3 1_555 1_555
Cu5_2 Cl5_2 1_555 1_555
Cu1_4 Cl1_4 1_555 1_555
Cu4_4 Cl1_4 1_555 1_555
Cu3_2 Cl2_2 1_555 1_555
Cl2_2 Cu1_4 1_555 1_555
Cl4_4 Cu3_2 1_555 1_555
O1_4 Cu1_4 1_555 1_555
N1_4 Cu1_4 1_555 1_555
N3_2 Cu3_2 1_555 1_555
C3_4 N1_4 1_555 1_555
C4_4 N4_2 1_555 1_555
C5_2 N3_2 1_555 1_555
C6_2 N3_2 1_555 1_555
C7_2 N3_2 1_555 1_555
H5_2 C3_4 1_555 1_555
H7_2 C4_4 1_555 1_555
H8_2 C5_2 1_555 1_555
H9_2 C5_2 1_555 1_555
H10_2 C6_2 1_555 1_555
H11_2 C6_2 1_555 1_555
H12_2 C7_2 1_555 1_555
H13_2 C7_2 1_555 1_555
Cu6_2 N5_2 1_555 1_555
Cl6_2 Cu4_4 1_555 1_555
N5_2 C10_2 1_555 1_555
C8_2 N1_4 1_555 1_555
C9_2 N4_2 1_555 1_555
C10_2 C5_2 1_555 1_555
C11_2 C7_2 1_555 1_555
C12_2 C6_2 1_555 1_555
H14_2 C8_2 1_555 1_555
H15_2 C8_2 1_555 1_555
H16_2 C9_2 1_555 1_555
H17_2 C9_2 1_555 1_555
H19_2 C10_2 1_555 1_555
H20_2 C10_2 1_555 1_555
H21_2 C11_2 1_555 1_555
H22_2 C11_2 1_555 1_555
H23_2 C12_2 1_555 1_555
H24_2 C12_2 1_555 1_555
Cu4_4 O1_4 1_555 1_555
Cu3_2 O1_4 1_555 1_555
Cu3_2 Cl6_2 1_555 1_555
C3_4 C4_4 1_555 1_555
N5_2 C11_2 1_555 1_555
N5_2 C12_2 1_555 1_555
C8_2 C9_2 1_555 1_555
Cu1_5 Cl1_5 1_555 1_555
Cu4 Cl1_5 1_555 1_555
Cl3_3 Cu4 1_555 1_555
O1_5 Cu1_5 1_555 1_555
N1_5 Cu1_5 1_555 1_555
N4_3 C2_3 1_555 1_555
C1_3 N1_5 1_555 1_555
C2_3 C1_3 1_555 1_555
C3_5 N1_5 1_555 1_555
C4_5 N4_3 1_555 1_555
H1_3 C1_3 1_555 1_555
H2_3 C1_3 1_555 1_555
H3_3 C2_3 1_555 1_555
H4_3 C2_3 1_555 1_555
H6_3 C3_5 1_555 1_555
Cu5_3 Cl3_3 1_555 1_555
Cl5_3 Cu1_5 1_555 1_555
N6_3 Cu5_3 1_555 1_555
H18_3 C4_5 1_555 1_555
Cu4 O1_5 1_555 1_555
Cl4_5 Cu5_3 1_555 1_555
O1_5 Cu5_3 1_555 1_555
C3_5 C4_5 1_555 1_555
Cu5_3 Cl5_3 1_555 1_555
Cu1_6 Cl1_6 1_555 1_555
Cu4_2 Cl1_6 1_555 1_555
Cu3_3 Cl2_3 1_555 1_555
Cl2_3 Cu1_6 1_555 1_555
Cl4_6 Cu3_3 1_555 1_555
O1_6 Cu1_6 1_555 1_555
N1_6 Cu1_6 1_555 1_555
N3_3 Cu3_3 1_555 1_555
C3_6 N1_6 1_555 1_555
C4_6 N4_4 1_555 1_555
C5_3 N3_3 1_555 1_555
C6_3 N3_3 1_555 1_555
C7_3 N3_3 1_555 1_555
H5_3 C3_6 1_555 1_555
H7_3 C4_6 1_555 1_555
H8_3 C5_3 1_555 1_555
H9_3 C5_3 1_555 1_555
H10_3 C6_3 1_555 1_555
H11_3 C6_3 1_555 1_555
H12_3 C7_3 1_555 1_555
H13_3 C7_3 1_555 1_555
Cu6_3 N5_3 1_555 1_555
Cl6_3 Cu4_2 1_555 1_555
N5_3 C10_3 1_555 1_555
C8_3 N1_6 1_555 1_555
C9_3 N4_4 1_555 1_555
C10_3 C5_3 1_555 1_555
C11_3 C7_3 1_555 1_555
C12_3 C6_3 1_555 1_555
H14_3 C8_3 1_555 1_555
H15_3 C8_3 1_555 1_555
H16_3 C9_3 1_555 1_555
H17_3 C9_3 1_555 1_555
H19_3 C10_3 1_555 1_555
H20_3 C10_3 1_555 1_555
H21_3 C11_3 1_555 1_555
H22_3 C11_3 1_555 1_555
H23_3 C12_3 1_555 1_555
H24_3 C12_3 1_555 1_555
Cu4_2 O1_6 1_555 1_555
Cu3_3 O1_6 1_555 1_555
Cu3_3 Cl6_3 1_555 1_555
C3_6 C4_6 1_555 1_555
N5_3 C11_3 1_555 1_555
N5_3 C12_3 1_555 1_555
C8_3 C9_3 1_555 1_555
Cu1_7 Cl1_7 1_555 1_555
Cu2_3 Cl1_7 1_555 1_555
Cu6_3 Cl2_4 1_555 1_555
Cl2_4 Cu1_7 1_555 1_555
Cl3_4 Cu2_3 1_555 1_555
Cl4_7 Cu6_3 1_555 1_555
O1_7 Cu1_7 1_555 1_555
N1_7 Cu1_7 1_555 1_555
N2_3 C2_4 1_555 1_555
C1_4 N1_7 1_555 1_555
C2_4 C1_4 1_555 1_555
C3_7 N1_7 1_555 1_555
C4_7 N2_3 1_555 1_555
H1_4 C1_4 1_555 1_555
H2_4 C1_4 1_555 1_555
H3_4 C2_4 1_555 1_555
H4_4 C2_4 1_555 1_555
H5_4 C3_7 1_555 1_555
H6_4 C3_7 1_555 1_555
H7_4 C4_7 1_555 1_555
Cu4_5 N2_3 1_555 1_555
Cu5_4 Cl3_4 1_555 1_555
Cl5_4 Cu1_7 1_555 1_555
Cl6_4 Cu2_3 1_555 1_555
N6_4 Cu5_4 1_555 1_555
C8_4 N1_7 1_555 1_555
C9_4 N2_3 1_555 1_555
H14_4 C8_4 1_555 1_555
H15_4 C8_4 1_555 1_555
H16_4 C9_4 1_555 1_555
H17_4 C9_4 1_555 1_555
H18_4 C4_7 1_555 1_555
Cu2_3 O1_7 1_555 1_555
Cu6_3 O1_7 1_555 1_555
Cu6_3 Cl6_4 1_555 1_555
Cl4_7 Cu5_4 1_555 1_555
O1_7 Cu5_4 1_555 1_555
C3_7 C4_7 1_555 1_555
Cu5_4 Cl5_4 1_555 1_555
C8_4 C9_4 1_555 1_555
Cu1_8 Cl1_8 1_555 1_555
Cu2_4 Cl1_8 1_555 1_555
Cu6_2 Cl2_5 1_555 1_555
Cl2_5 Cu1_8 1_555 1_555
Cl3_5 Cu2_4 1_555 1_555
Cl4_8 Cu6_2 1_555 1_555
O1_8 Cu1_8 1_555 1_555
N1_8 Cu1_8 1_555 1_555
N2_4 C2_5 1_555 1_555
C1_5 N1_8 1_555 1_555
C2_5 C1_5 1_555 1_555
C3_8 N1_8 1_555 1_555
C4_8 N2_4 1_555 1_555
H1_5 C1_5 1_555 1_555
H2_5 C1_5 1_555 1_555
H3_5 C2_5 1_555 1_555
H4_5 C2_5 1_555 1_555
H5_5 C3_8 1_555 1_555
H6_5 C3_8 1_555 1_555
H7_5 C4_8 1_555 1_555
Cu5_5 Cl3_5 1_555 1_555
Cl5_5 Cu1_8 1_555 1_555
Cl6_5 Cu2_4 1_555 1_555
N6_5 Cu5_5 1_555 1_555
C8_5 N1_8 1_555 1_555
C9_5 N2_4 1_555 1_555
H14_5 C8_5 1_555 1_555
H15_5 C8_5 1_555 1_555
H16_5 C9_5 1_555 1_555
H17_5 C9_5 1_555 1_555
H18_5 C4_8 1_555 1_555
Cu2_4 O1_8 1_555 1_555
Cu6_2 O1_8 1_555 1_555
Cu6_2 Cl6_5 1_555 1_555
Cl4_8 Cu5_5 1_555 1_555
O1_8 Cu5_5 1_555 1_555
C3_8 C4_8 1_555 1_555
Cu5_5 Cl5_5 1_555 1_555
C8_5 C9_5 1_555 1_555
Cu1_9 Cl1_9 1_555 1_555
Cu4_5 Cl1_9 1_555 1_555
Cu6 Cl2_6 1_555 1_555
Cl2_6 Cu1_9 1_555 1_555
Cl3_6 Cu4_5 1_555 1_555
Cl4_9 Cu6 1_555 1_555
O1_9 Cu1_9 1_555 1_555
N1_9 Cu1_9 1_555 1_555
N4_5 C2_6 1_555 1_555
C1_6 N1_9 1_555 1_555
C2_6 C1_6 1_555 1_555
C3_9 N1_9 1_555 1_555
C4_9 N4_5 1_555 1_555
H1_6 C1_6 1_555 1_555
H2_6 C1_6 1_555 1_555
H3_6 C2_6 1_555 1_555
H4_6 C2_6 1_555 1_555
H5_6 C3_9 1_555 1_555
H6_6 C3_9 1_555 1_555
H7_6 C4_9 1_555 1_555
Cu5_6 Cl3_6 1_555 1_555
Cl5_6 Cu1_9 1_555 1_555
Cl6_6 Cu4_5 1_555 1_555
N6_6 Cu5_6 1_555 1_555
C8_6 N1_9 1_555 1_555
C9_6 N4_5 1_555 1_555
H14_6 C8_6 1_555 1_555
H15_6 C8_6 1_555 1_555
H16_6 C9_6 1_555 1_555
H17_6 C9_6 1_555 1_555
H18_6 C4_9 1_555 1_555
Cu4_5 O1_9 1_555 1_555
Cu6 O1_9 1_555 1_555
Cu6 Cl6_6 1_555 1_555
Cl4_9 Cu5_6 1_555 1_555
O1_9 Cu5_6 1_555 1_555
C3_9 C4_9 1_555 1_555
Cu5_6 Cl5_6 1_555 1_555
C8_6 C9_6 1_555 1_555
C5_4 N6_2 1_555 1_555
C6_4 N6_2 1_555 1_555
C7_4 N6_2 1_555 1_555
H8_4 C5_4 1_555 1_555
H9_4 C5_4 1_555 1_555
H10_4 C6_4 1_555 1_555
H11_4 C6_4 1_555 1_555
H12_4 C7_4 1_555 1_555
H13_4 C7_4 1_555 1_555
N6_5 C10_4 1_555 1_555
C10_4 C5_4 1_555 1_555
C11_4 C7_4 1_555 1_555
C12_4 C6_4 1_555 1_555
H19_4 C10_4 1_555 1_555
H20_4 C10_4 1_555 1_555
H21_4 C11_4 1_555 1_555
H22_4 C11_4 1_555 1_555
H23_4 C12_4 1_555 1_555
H24_4 C12_4 1_555 1_555
N6_5 C11_4 1_555 1_555
N6_5 C12_4 1_555 1_555
C5_5 N6_3 1_555 1_555
C6_5 N6_3 1_555 1_555
C7_5 N6_3 1_555 1_555
H8_5 C5_5 1_555 1_555
H9_5 C5_5 1_555 1_555
H10_5 C6_5 1_555 1_555
H11_5 C6_5 1_555 1_555
H12_5 C7_5 1_555 1_555
H13_5 C7_5 1_555 1_555
N6_4 C10_5 1_555 1_555
C10_5 C5_5 1_555 1_555
C11_5 C7_5 1_555 1_555
C12_5 C6_5 1_555 1_555
H19_5 C10_5 1_555 1_555
H20_5 C10_5 1_555 1_555
H21_5 C11_5 1_555 1_555
H22_5 C11_5 1_555 1_555
H23_5 C12_5 1_555 1_555
H24_5 C12_5 1_555 1_555
N6_4 C11_5 1_555 1_555
N6_4 C12_5 1_555 1_555
C5_6 N6 1_555 1_555
C6_6 N6 1_555 1_555
C7_6 N6 1_555 1_555
H8_6 C5_6 1_555 1_555
H9_6 C5_6 1_555 1_555
H10_6 C6_6 1_555 1_555
H11_6 C6_6 1_555 1_555
H12_6 C7_6 1_555 1_555
H13_6 C7_6 1_555 1_555
N6_6 C10_6 1_555 1_555
C10_6 C5_6 1_555 1_555
C11_6 C7_6 1_555 1_555
C12_6 C6_6 1_555 1_555
H19_6 C10_6 1_555 1_555
H20_6 C10_6 1_555 1_555
H21_6 C11_6 1_555 1_555
H22_6 C11_6 1_555 1_555
H23_6 C12_6 1_555 1_555
H24_6 C12_6 1_555 1_555
N6_6 C11_6 1_555 1_555
N6_6 C12_6 1_555 1_555
Cu1_10 Cl1_10 1_555 1_555
Cu2_5 Cl1_10 1_555 1_555
Cl3_7 Cu2_5 1_555 1_555
O1_10 Cu1_10 1_555 1_555
N1_10 Cu1_10 1_555 1_555
N2_5 C2_7 1_555 1_555
C1_7 N1_10 1_555 1_555
C2_7 C1_7 1_555 1_555
C3_10 N1_10 1_555 1_555
C4_10 N2_5 1_555 1_555
H1_7 C1_7 1_555 1_555
H2_7 C1_7 1_555 1_555
H3_7 C2_7 1_555 1_555
H4_7 C2_7 1_555 1_555
H6_7 C3_10 1_555 1_555
Cu4_6 N2_5 1_555 1_555
Cu5_7 Cl3_7 1_555 1_555
Cl5_7 Cu1_10 1_555 1_555
N6_7 Cu5_7 1_555 1_555
H18_7 C4_10 1_555 1_555
Cu2_5 O1_10 1_555 1_555
Cl4_10 Cu5_7 1_555 1_555
O1_10 Cu5_7 1_555 1_555
C3_10 C4_10 1_555 1_555
Cu5_7 Cl5_7 1_555 1_555
Cu1_11 Cl1_11 1_555 1_555
Cu2_6 Cl1_11 1_555 1_555
Cu3_4 Cl2_7 1_555 1_555
Cl2_7 Cu1_11 1_555 1_555
Cl4_11 Cu3_4 1_555 1_555
O1_11 Cu1_11 1_555 1_555
N1_11 Cu1_11 1_555 1_555
N3_4 Cu3_4 1_555 1_555
C3_11 N1_11 1_555 1_555
C4_11 N2_6 1_555 1_555
C5_7 N3_4 1_555 1_555
C6_7 N3_4 1_555 1_555
C7_7 N3_4 1_555 1_555
H5_7 C3_11 1_555 1_555
H7_7 C4_11 1_555 1_555
H8_7 C5_7 1_555 1_555
H9_7 C5_7 1_555 1_555
H10_7 C6_7 1_555 1_555
H11_7 C6_7 1_555 1_555
H12_7 C7_7 1_555 1_555
H13_7 C7_7 1_555 1_555
Cu4_7 N2_6 1_555 1_555
Cu6_4 N5_4 1_555 1_555
Cl6_7 Cu2_6 1_555 1_555
N5_4 C10_7 1_555 1_555
C8_7 N1_11 1_555 1_555
C9_7 N2_6 1_555 1_555
C10_7 C5_7 1_555 1_555
C11_7 C7_7 1_555 1_555
C12_7 C6_7 1_555 1_555
H14_7 C8_7 1_555 1_555
H15_7 C8_7 1_555 1_555
H16_7 C9_7 1_555 1_555
H17_7 C9_7 1_555 1_555
H19_7 C10_7 1_555 1_555
H20_7 C10_7 1_555 1_555
H21_7 C11_7 1_555 1_555
H22_7 C11_7 1_555 1_555
H23_7 C12_7 1_555 1_555
H24_7 C12_7 1_555 1_555
Cu2_6 O1_11 1_555 1_555
Cu3_4 O1_11 1_555 1_555
Cu3_4 Cl6_7 1_555 1_555
C3_11 C4_11 1_555 1_555
N5_4 C11_7 1_555 1_555
N5_4 C12_7 1_555 1_555
C8_7 C9_7 1_555 1_555
Cu1_12 Cl1_12 1_555 1_555
Cu2_7 Cl1_12 1_555 1_555
Cl3_8 Cu2_7 1_555 1_555
O1_12 Cu1_12 1_555 1_555
N1_12 Cu1_12 1_555 1_555
N2_7 C2_8 1_555 1_555
C1_8 N1_12 1_555 1_555
C2_8 C1_8 1_555 1_555
C3_12 N1_12 1_555 1_555
C4_12 N2_7 1_555 1_555
H1_8 C1_8 1_555 1_555
H2_8 C1_8 1_555 1_555
H3_8 C2_8 1_555 1_555
H4_8 C2_8 1_555 1_555
H6_8 C3_12 1_555 1_555
Cu5_8 Cl3_8 1_555 1_555
Cl5_8 Cu1_12 1_555 1_555
N6_8 Cu5_8 1_555 1_555
H18_8 C4_12 1_555 1_555
Cu2_7 O1_12 1_555 1_555
Cl4_12 Cu5_8 1_555 1_555
O1_12 Cu5_8 1_555 1_555
C3_12 C4_12 1_555 1_555
Cu5_8 Cl5_8 1_555 1_555
Cu1_13 Cl1_13 1_555 1_555
Cu2_8 Cl1_13 1_555 1_555
Cu3_5 Cl2_8 1_555 1_555
Cl2_8 Cu1_13 1_555 1_555
Cl4_13 Cu3_5 1_555 1_555
O1_13 Cu1_13 1_555 1_555
N1_13 Cu1_13 1_555 1_555
N3_5 Cu3_5 1_555 1_555
C3_13 N1_13 1_555 1_555
C4_13 N2_8 1_555 1_555
C5_8 N3_5 1_555 1_555
C6_8 N3_5 1_555 1_555
C7_8 N3_5 1_555 1_555
H5_8 C3_13 1_555 1_555
H7_8 C4_13 1_555 1_555
H8_8 C5_8 1_555 1_555
H9_8 C5_8 1_555 1_555
H10_8 C6_8 1_555 1_555
H11_8 C6_8 1_555 1_555
H12_8 C7_8 1_555 1_555
H13_8 C7_8 1_555 1_555
Cu6_5 N5_5 1_555 1_555
Cl6_8 Cu2_8 1_555 1_555
N5_5 C10_8 1_555 1_555
C8_8 N1_13 1_555 1_555
C9_8 N2_8 1_555 1_555
C10_8 C5_8 1_555 1_555
C11_8 C7_8 1_555 1_555
C12_8 C6_8 1_555 1_555
H14_8 C8_8 1_555 1_555
H15_8 C8_8 1_555 1_555
H16_8 C9_8 1_555 1_555
H17_8 C9_8 1_555 1_555
H19_8 C10_8 1_555 1_555
H20_8 C10_8 1_555 1_555
H21_8 C11_8 1_555 1_555
H22_8 C11_8 1_555 1_555
H23_8 C12_8 1_555 1_555
H24_8 C12_8 1_555 1_555
Cu2_8 O1_13 1_555 1_555
Cu3_5 O1_13 1_555 1_555
Cu3_5 Cl6_8 1_555 1_555
C3_13 C4_13 1_555 1_555
N5_5 C11_8 1_555 1_555
N5_5 C12_8 1_555 1_555
C8_8 C9_8 1_555 1_555
Cu1_14 Cl1_14 1_555 1_555
Cu4_6 Cl1_14 1_555 1_555
Cl3_9 Cu4_6 1_555 1_555
O1_14 Cu1_14 1_555 1_555
N1_14 Cu1_14 1_555 1_555
N4_6 C2_9 1_555 1_555
C1_9 N1_14 1_555 1_555
C2_9 C1_9 1_555 1_555
C3_14 N1_14 1_555 1_555
C4_14 N4_6 1_555 1_555
H1_9 C1_9 1_555 1_555
H2_9 C1_9 1_555 1_555
H3_9 C2_9 1_555 1_555
H4_9 C2_9 1_555 1_555
H6_9 C3_14 1_555 1_555
Cu5_9 Cl3_9 1_555 1_555
Cl5_9 Cu1_14 1_555 1_555
N6_9 Cu5_9 1_555 1_555
H18_9 C4_14 1_555 1_555
Cu4_6 O1_14 1_555 1_555
Cl4_14 Cu5_9 1_555 1_555
O1_14 Cu5_9 1_555 1_555
C3_14 C4_14 1_555 1_555
Cu5_9 Cl5_9 1_555 1_555
Cu1_15 Cl1_15 1_555 1_555
Cu4_7 Cl1_15 1_555 1_555
Cu3_6 Cl2_9 1_555 1_555
Cl2_9 Cu1_15 1_555 1_555
Cl4_15 Cu3_6 1_555 1_555
O1_15 Cu1_15 1_555 1_555
N1_15 Cu1_15 1_555 1_555
N3_6 Cu3_6 1_555 1_555
C3_15 N1_15 1_555 1_555
C4_15 N4_7 1_555 1_555
C5_9 N3_6 1_555 1_555
C6_9 N3_6 1_555 1_555
C7_9 N3_6 1_555 1_555
H5_9 C3_15 1_555 1_555
H7_9 C4_15 1_555 1_555
H8_9 C5_9 1_555 1_555
H9_9 C5_9 1_555 1_555
H10_9 C6_9 1_555 1_555
H11_9 C6_9 1_555 1_555
H12_9 C7_9 1_555 1_555
H13_9 C7_9 1_555 1_555
Cu6_6 N5_6 1_555 1_555
Cl6_9 Cu4_7 1_555 1_555
N5_6 C10_9 1_555 1_555
C8_9 N1_15 1_555 1_555
C9_9 N4_7 1_555 1_555
C10_9 C5_9 1_555 1_555
C11_9 C7_9 1_555 1_555
C12_9 C6_9 1_555 1_555
H14_9 C8_9 1_555 1_555
H15_9 C8_9 1_555 1_555
H16_9 C9_9 1_555 1_555
H17_9 C9_9 1_555 1_555
H19_9 C10_9 1_555 1_555
H20_9 C10_9 1_555 1_555
H21_9 C11_9 1_555 1_555
H22_9 C11_9 1_555 1_555
H23_9 C12_9 1_555 1_555
H24_9 C12_9 1_555 1_555
Cu4_7 O1_15 1_555 1_555
Cu3_6 O1_15 1_555 1_555
Cu3_6 Cl6_9 1_555 1_555
C3_15 C4_15 1_555 1_555
N5_6 C11_9 1_555 1_555
N5_6 C12_9 1_555 1_555
C8_9 C9_9 1_555 1_555
Cu1_16 Cl1_16 1_555 1_555
Cu2_9 Cl1_16 1_555 1_555
Cu6_6 Cl2_10 1_555 1_555
Cl2_10 Cu1_16 1_555 1_555
Cl3_10 Cu2_9 1_555 1_555
Cl4_16 Cu6_6 1_555 1_555
O1_16 Cu1_16 1_555 1_555
N1_16 Cu1_16 1_555 1_555
N2_9 C2_10 1_555 1_555
C1_10 N1_16 1_555 1_555
C2_10 C1_10 1_555 1_555
C3_16 N1_16 1_555 1_555
C4_16 N2_9 1_555 1_555
H1_10 C1_10 1_555 1_555
H2_10 C1_10 1_555 1_555
H3_10 C2_10 1_555 1_555
H4_10 C2_10 1_555 1_555
H5_10 C3_16 1_555 1_555
H6_10 C3_16 1_555 1_555
H7_10 C4_16 1_555 1_555
Cu5_10 Cl3_10 1_555 1_555
Cl5_10 Cu1_16 1_555 1_555
Cl6_10 Cu2_9 1_555 1_555
N4_8 Cu2_9 1_555 1_555
N6_10 Cu5_10 1_555 1_555
C8_10 N1_16 1_555 1_555
C9_10 N2_9 1_555 1_555
H14_10 C8_10 1_555 1_555
H15_10 C8_10 1_555 1_555
H16_10 C9_10 1_555 1_555
H17_10 C9_10 1_555 1_555
H18_10 C4_16 1_555 1_555
Cu2_9 O1_16 1_555 1_555
Cu6_6 O1_16 1_555 1_555
Cu6_6 Cl6_10 1_555 1_555
Cl4_16 Cu5_10 1_555 1_555
O1_16 Cu5_10 1_555 1_555
C3_16 C4_16 1_555 1_555
Cu5_10 Cl5_10 1_555 1_555
C8_10 C9_10 1_555 1_555
Cu1_17 Cl1_17 1_555 1_555
Cu4_9 Cl1_17 1_555 1_555
Cu6_5 Cl2_11 1_555 1_555
Cl2_11 Cu1_17 1_555 1_555
Cl3_11 Cu4_9 1_555 1_555
Cl4_17 Cu6_5 1_555 1_555
O1_17 Cu1_17 1_555 1_555
N1_17 Cu1_17 1_555 1_555
N4_8 C2_11 1_555 1_555
C1_11 N1_17 1_555 1_555
C2_11 C1_11 1_555 1_555
C3_17 N1_17 1_555 1_555
C4_17 N4_8 1_555 1_555
H1_11 C1_11 1_555 1_555
H2_11 C1_11 1_555 1_555
H3_11 C2_11 1_555 1_555
H4_11 C2_11 1_555 1_555
H5_11 C3_17 1_555 1_555
H6_11 C3_17 1_555 1_555
H7_11 C4_17 1_555 1_555
Cu5_11 Cl3_11 1_555 1_555
Cl5_11 Cu1_17 1_555 1_555
Cl6_11 Cu4_9 1_555 1_555
N6_11 Cu5_11 1_555 1_555
C8_11 N1_17 1_555 1_555
C9_11 N4_8 1_555 1_555
H14_11 C8_11 1_555 1_555
H15_11 C8_11 1_555 1_555
H16_11 C9_11 1_555 1_555
H17_11 C9_11 1_555 1_555
H18_11 C4_17 1_555 1_555
Cu4_9 O1_17 1_555 1_555
Cu6_5 O1_17 1_555 1_555
Cu6_5 Cl6_11 1_555 1_555
Cl4_17 Cu5_11 1_555 1_555
O1_17 Cu5_11 1_555 1_555
C3_17 C4_17 1_555 1_555
Cu5_11 Cl5_11 1_555 1_555
C8_11 C9_11 1_555 1_555
Cu1_18 Cl1_18 1_555 1_555
Cu4_8 Cl1_18 1_555 1_555
Cu6_4 Cl2_12 1_555 1_555
Cl2_12 Cu1_18 1_555 1_555
Cl3_12 Cu4_8 1_555 1_555
Cl4_18 Cu6_4 1_555 1_555
O1_18 Cu1_18 1_555 1_555
N1_18 Cu1_18 1_555 1_555
N4_9 C2_12 1_555 1_555
C1_12 N1_18 1_555 1_555
C2_12 C1_12 1_555 1_555
C3_18 N1_18 1_555 1_555
C4_18 N4_9 1_555 1_555
H1_12 C1_12 1_555 1_555
H2_12 C1_12 1_555 1_555
H3_12 C2_12 1_555 1_555
H4_12 C2_12 1_555 1_555
H5_12 C3_18 1_555 1_555
H6_12 C3_18 1_555 1_555
H7_12 C4_18 1_555 1_555
Cu5_12 Cl3_12 1_555 1_555
Cl5_12 Cu1_18 1_555 1_555
Cl6_12 Cu4_8 1_555 1_555
N6_12 Cu5_12 1_555 1_555
C8_12 N1_18 1_555 1_555
C9_12 N4_9 1_555 1_555
H14_12 C8_12 1_555 1_555
H15_12 C8_12 1_555 1_555
H16_12 C9_12 1_555 1_555
H17_12 C9_12 1_555 1_555
H18_12 C4_18 1_555 1_555
Cu4_8 O1_18 1_555 1_555
Cu6_4 O1_18 1_555 1_555
Cu6_4 Cl6_12 1_555 1_555
Cl4_18 Cu5_12 1_555 1_555
O1_18 Cu5_12 1_555 1_555
C3_18 C4_18 1_555 1_555
Cu5_12 Cl5_12 1_555 1_555
C8_12 C9_12 1_555 1_555
C5_10 N6_9 1_555 1_555
C6_10 N6_9 1_555 1_555
C7_10 N6_9 1_555 1_555
H8_10 C5_10 1_555 1_555
H9_10 C5_10 1_555 1_555
H10_10 C6_10 1_555 1_555
H11_10 C6_10 1_555 1_555
H12_10 C7_10 1_555 1_555
H13_10 C7_10 1_555 1_555
N6_10 C10_10 1_555 1_555
C10_10 C5_10 1_555 1_555
C11_10 C7_10 1_555 1_555
C12_10 C6_10 1_555 1_555
H19_10 C10_10 1_555 1_555
H20_10 C10_10 1_555 1_555
H21_10 C11_10 1_555 1_555
H22_10 C11_10 1_555 1_555
H23_10 C12_10 1_555 1_555
H24_10 C12_10 1_555 1_555
N6_10 C11_10 1_555 1_555
N6_10 C12_10 1_555 1_555
C5_11 N6_7 1_555 1_555
C6_11 N6_7 1_555 1_555
C7_11 N6_7 1_555 1_555
H8_11 C5_11 1_555 1_555
H9_11 C5_11 1_555 1_555
H10_11 C6_11 1_555 1_555
H11_11 C6_11 1_555 1_555
H12_11 C7_11 1_555 1_555
H13_11 C7_11 1_555 1_555
N6_12 C10_11 1_555 1_555
C10_11 C5_11 1_555 1_555
C11_11 C7_11 1_555 1_555
C12_11 C6_11 1_555 1_555
H19_11 C10_11 1_555 1_555
H20_11 C10_11 1_555 1_555
H21_11 C11_11 1_555 1_555
H22_11 C11_11 1_555 1_555
H23_11 C12_11 1_555 1_555
H24_11 C12_11 1_555 1_555
N6_12 C11_11 1_555 1_555
N6_12 C12_11 1_555 1_555
C5_12 N6_8 1_555 1_555
C6_12 N6_8 1_555 1_555
C7_12 N6_8 1_555 1_555
H8_12 C5_12 1_555 1_555
H9_12 C5_12 1_555 1_555
H10_12 C6_12 1_555 1_555
H11_12 C6_12 1_555 1_555
H12_12 C7_12 1_555 1_555
H13_12 C7_12 1_555 1_555
N6_11 C10_12 1_555 1_555
C10_12 C5_12 1_555 1_555
C11_12 C7_12 1_555 1_555
C12_12 C6_12 1_555 1_555
H19_12 C10_12 1_555 1_555
H20_12 C10_12 1_555 1_555
H21_12 C11_12 1_555 1_555
H22_12 C11_12 1_555 1_555
H23_12 C12_12 1_555 1_555
H24_12 C12_12 1_555 1_555
N6_11 C11_12 1_555 1_555
N6_11 C12_12 1_555 1_555

#END
