
###############################################################################
#
# This file contains modified crystal structure data generated from the
# MOF subset of the Cambridge Structural Database (CSD) v543 
# hosted by the Cambridge Crystallographic Data Centre (CCDC).
#
# This work is licensed under the Creative Commons
# Attribution-NonCommercial-ShareAlike 4.0 International License.
# To view a copy of this license, visit
# http://creativecommons.org/licenses/by-nc-sa/4.0/
# or send a letter to
# Creative Commons, PO Box 1866, Mountain View, CA 94042, USA.
#
# CIF created using the CSD Python API on 29 September 2022
# The structure has been converted into the P1 space group
# The structure has a 3D framework
# The original CSD entry GUTCIJ is in the rhombohedral crystal system
# The original CSD entry GUTCIJ is in a Sohncke space group
# The framework has been calculated to contain at least 10.0% void space
# The void calculation uses a probe of radius 1.32A, grid spacing 0.4
# The framework is charged, counterions have been retained in the structure
# H atom positions have been added when not included in the experimental data
# Generated hydrogen atom positions removed from atoms on special positions
#
###############################################################################

data_GUTCIJ
_chemical_formula_moiety         '(C414 H432 Cd30 N72 O186 6-)n'
_symmetry_cell_setting           triclinic
_symmetry_space_group_name_H-M   'P 1'
_symmetry_Int_Tables_number      1
_space_group_name_Hall           'P 1'
loop_
_symmetry_equiv_pos_site_id
_symmetry_equiv_pos_as_xyz
1 x,y,z
_cell_length_a                   26.8706(5)
_cell_length_b                   26.8706(5)
_cell_length_c                   20.9000(8)
_cell_angle_alpha                90
_cell_angle_beta                 90
_cell_angle_gamma                120
_cell_volume                     13068.7
loop_
_atom_site_label
_atom_site_type_symbol
_atom_site_fract_x
_atom_site_fract_y
_atom_site_fract_z
O12 O 0.1446(3) 0.6029(4) 0.0472(4)
O15 O 0.0656(4) 0.1213(6) 0.1726(4)
C31 C 0.0972(4) 0.5570(6) 0.0395(5)
C32 C 0.0621(4) 0.5330(6) 0.0996(5)
H29 H 0.0886 0.5407 0.1354
O17 O 0.0531(4) 0.1895(5) 0.2040(4)
N8 N 0.0262(3) 0.4720(5) 0.0934(4)
C34 C 0.0464(5) 0.1536(7) 0.1636(6)
O18 O 0.1014(3) 0.4564(4) 0.0850(3)
O19 O 0.0767(4) 0.2631(6) 0.0639(4)
C40 C 0.0312(4) 0.3373(6) 0.0849(4)
H37 H 0.0708 0.3537 0.0890
C41 C 0.0496(4) 0.4375(6) 0.0858(4)
C44 C 0.0082(3) 0.3723(5) 0.0819(4)
C45 C 0.0130(5) 0.1455(7) 0.1025(5)
H40 H 0.0389 0.1530 0.0662
C49 C 0.0255(6) 0.5573(8) 0.1156(8)
H45 H 0.0059 0.5411 0.1552
H47 H 0.0488 0.5982 0.1200
C51 C 0.0257(5) 0.2433(7) 0.0813(5)
Cd12 Cd 0.10053(3) 0.16167(3) 0.27346(4)
Cd3 Cd 0.17166(3) 0.60552(4) 0.94013(4)
O16 O 0.0808(3) 0.5346(5) 0.9876(3)
N7 N 0.1262(4) 0.6532(6) 0.8993(5)
C33 C 0.0673(5) 0.6941(6) 0.9101(6)
H31 H 0.0457 0.7028 0.9379
C35 C 0.0986(6) 0.6711(8) 0.9329(5)
H32 H 0.1001 0.6681 0.9771
C36 C 0.0675(5) 0.7042(7) 0.8482(7)
C48 C 0.1317(7) 0.6675(9) 0.8398(7)
H44 H 0.1570 0.6622 0.8143
C50 C 0.1005(8) 0.6908(9) 0.8132(8)
H48 H 0.1027 0.6972 0.7692
C52 C 0.0274(6) 0.7340(5) 0.7566(6)
H49 H 0.0361 0.7124 0.7288
C53 C 0.0044(8) 0.7653(6) 0.7338(5)
H50 H 0.0014 0.7668 0.6896
C54 C 0.0375(7) 0.7342(5) 0.8185(7)
C55 C 0.0008(9) 0.7984(7) 0.8269(7)
C56 C 0.0241(9) 0.7672(8) 0.8535(8)
H52 H 0.0305 0.7694 0.8975
O53 O 0.2776(4) 0.5454(6) 0.4941(4)
O55 O 0.1969(3) 0.4772(5) 0.4627(4)
C125 C 0.2261(5) 0.5131(7) 0.5031(6)
N24 N 0.1392(4) 0.4805(6) 0.5672(5)
H119 H 0.1160 0.4926 0.5571
O57 O 0.1469(4) 0.4036(6) 0.6028(4)
C127 C 0.0523(4) 0.3873(6) 0.5846(4)
C129 C 0.0272(4) 0.3294(6) 0.5818(4)
H123 H 0.0504 0.3130 0.5777
C132 C 0.0174(5) 0.4114(6) 0.5880(5)
H125 H 0.0336 0.4511 0.5871
C134 C 0.2008(5) 0.5212(7) 0.5642(5)
H126 H 0.2192 0.5137 0.6005
C136 C 0.2106(7) 0.5798(10) 0.5703(8)
H127 H 0.1931 0.5829 0.6090
H128 H 0.1940 0.5884 0.5343
H129 H 0.2512 0.6066 0.5716
C138 C 0.1157(5) 0.4234(7) 0.5854(5)
Cd16 Cd 0.27219(4) 0.50499(3) 0.39320(4)
O59 O 0.2316(3) 0.5674(2) 0.9879(4)
O66 O 0.2606(4) 0.6876(3) 0.9707(3)
O69 O 0.0209(3) 0.9273(4) 0.6960(3)
O76 O 0.2120(6) 0.6110(4) 0.8393(4)
O82 O 0.1438(5) 0.5303(3) 0.8707(4)
Cd1 Cd 0.6667 0.3333 0.02898(5)
C1 C 0.5432(3) 0.2592(3) 0.0187(4)
O3 O 0.5674(2) 0.2316(3) 0.0121(4)
N1 N 0.4497(3) 0.1726(3) 0.0269(3)
H1 H 0.4595 0.1508 0.0072
O4 O 0.5730(2) 0.3124(3) 0.0293(3)
C2 C 0.4808(4) 0.2332(3) 0.0136(4)
H2 H 0.4690 0.2518 0.0457
O5 O 0.6667 0.3333 0.1355(5)
H4 H 0.4675 0.0106 0.0945
N4 N 0.1941(4) 0.0079(4) 0.0995(5)
H7 H 0.2173 0.0432 0.1096
C10 C 0.2810(4) 0.0016(4) 0.0821(4)
C11 C 0.3751(5) 0.0849(4) 0.0740(5)
C14 C 0.3992(4) 0.0511(4) 0.0781(4)
H12 H 0.4390 0.0674 0.0785
C15 C 0.3159(5) 0.0606(4) 0.0787(5)
H13 H 0.2997 0.0841 0.0796
C18 C 0.4076(5) 0.1496(5) 0.0670(6)
O11 O 0.4040(6) 0.1780(5) 0.1113(5)
C19 C 0.1227(7) 0.0358(7) 0.0964(8)
H15 H 0.1402 0.0564 0.0577
H16 H 0.1393 0.0610 0.1324
H17 H 0.0821 0.0220 0.0951
H20 H 0.5506 0.0022 0.0822
C29 C 0.7408(3) 0.2840(4) 0.0187(4)
O13 O 0.7684(3) 0.3358(4) 0.0121(4)
N6 N 0.8274(3) 0.2771(4) 0.0269(3)
H27 H 0.8492 0.3087 0.0072
O14 O 0.6876(3) 0.2606(4) 0.0293(3)
C30 C 0.7668(3) 0.2476(5) 0.0136(4)
H28 H 0.7482 0.2172 0.0457
H30 H 0.9894 0.4569 0.0945
N9 N 0.9921(4) 0.1862(6) 0.0995(5)
H33 H 0.9568 0.1741 0.1096
C38 C 0.9984(4) 0.2794(6) 0.0821(4)
C39 C 0.9151(4) 0.2902(6) 0.0740(5)
C42 C 0.9489(4) 0.3481(6) 0.0781(4)
H38 H 0.9326 0.3716 0.0785
C43 C 0.9394(4) 0.2553(6) 0.0787(5)
H39 H 0.9159 0.2156 0.0796
C46 C 0.8504(5) 0.2580(7) 0.0670(6)
O20 O 0.8220(5) 0.2260(8) 0.1113(5)
C47 C 0.9642(7) 0.0869(10) 0.0964(8)
H41 H 0.9436 0.0838 0.0577
H42 H 0.9390 0.0783 0.1324
H43 H 0.9780 0.0601 0.0951
H46 H 0.9978 0.5484 0.0822
O21 O 0.3971(4) 0.5417(3) 0.0472(4)
C57 C 0.7160(4) 0.4568(3) 0.0187(4)
O22 O 0.6642(4) 0.4326(2) 0.0121(4)
N11 N 0.7229(4) 0.5503(3) 0.0269(3)
H53 H 0.6913 0.5405 0.0072
O23 O 0.7394(4) 0.4270(2) 0.0293(3)
C58 C 0.7524(5) 0.5192(4) 0.0136(4)
H54 H 0.7828 0.5310 0.0457
O24 O 0.8787(6) 0.9443(4) 0.1726(4)
C59 C 0.4430(6) 0.5402(4) 0.0395(5)
C60 C 0.4670(6) 0.5291(5) 0.0996(5)
H55 H 0.4593 0.5479 0.1354
O26 O 0.8105(5) 0.8636(3) 0.2040(4)
N13 N 0.5280(5) 0.5542(4) 0.0934(4)
H56 H 0.5431 0.5325 0.0945
C62 C 0.8464(7) 0.8928(5) 0.1636(6)
O27 O 0.5436(4) 0.6450(3) 0.0850(3)
N14 N 0.8138(6) 0.8059(4) 0.0995(5)
H59 H 0.8259 0.7827 0.1096
O28 O 0.7369(6) 0.8136(4) 0.0639(4)
C66 C 0.7206(6) 0.7190(4) 0.0821(4)
C67 C 0.7098(6) 0.6249(5) 0.0740(5)
C68 C 0.6627(6) 0.6939(4) 0.0849(4)
H63 H 0.6463 0.7171 0.0890
C69 C 0.5625(6) 0.6121(4) 0.0858(4)
C70 C 0.6519(6) 0.6008(4) 0.0781(4)
H64 H 0.6284 0.5610 0.0785
C71 C 0.7447(6) 0.6841(5) 0.0787(5)
H65 H 0.7844 0.7003 0.0796
C72 C 0.6277(5) 0.6359(4) 0.0819(4)
C73 C 0.8545(7) 0.8675(5) 0.1025(5)
H66 H 0.8470 0.8859 0.0662
C74 C 0.7420(7) 0.5924(5) 0.0670(6)
O29 O 0.7740(8) 0.5960(6) 0.1113(5)
C75 C 0.9131(10) 0.8773(7) 0.0964(8)
H67 H 0.9162 0.8598 0.0577
H68 H 0.9217 0.8607 0.1324
H69 H 0.9399 0.9179 0.0951
C77 C 0.4427(8) 0.4682(6) 0.1156(8)
H71 H 0.4589 0.4648 0.1552
H72 H 0.4516 0.4494 0.0822
H73 H 0.4018 0.4506 0.1200
C79 C 0.7567(7) 0.7824(5) 0.0813(5)
Cd9 Cd 0.82834(3) 0.43386(3) 0.05987(4)
Cd10 Cd 0.60552(4) 0.17166(3) 0.05987(4)
Cd11 Cd 0.56614(3) 0.39448(4) 0.05987(4)
Cd13 Cd 0.83833(3) 0.93885(4) 0.27346(4)
O1 O 0.6667 0.3333 0.9163(4)
C9 C 0.4639(4) 0.2454(4) 0.9483(5)
H8 H 0.4229 0.2284 0.9462
H9 H 0.4766 0.2294 0.9154
H10 H 0.4815 0.2862 0.9423
N5 N 0.8063(4) 0.0135(6) 0.7674(5)
H25 H 0.8281 0.0045 0.8524
C37 C 0.7546(4) 0.2185(6) 0.9483(5)
H34 H 0.7716 0.1945 0.9462
H35 H 0.7706 0.2472 0.9154
H36 H 0.7138 0.1953 0.9423
N10 N 0.9865(6) 0.7929(4) 0.7674(5)
H51 H 0.9955 0.8237 0.8524
Cd4 Cd 0.39448(4) 0.56614(3) 0.94013(4)
O25 O 0.4654(5) 0.5462(4) 0.9876(3)
N12 N 0.3468(6) 0.4730(4) 0.8993(5)
C61 C 0.3059(6) 0.3732(4) 0.9101(6)
H57 H 0.2972 0.3429 0.9379
C63 C 0.3289(8) 0.4275(5) 0.9329(5)
H58 H 0.3319 0.4320 0.9771
C64 C 0.2958(7) 0.3633(5) 0.8482(7)
C65 C 0.7815(6) 0.5361(4) 0.9483(5)
H60 H 0.8055 0.5771 0.9462
H61 H 0.7528 0.5234 0.9154
H62 H 0.8047 0.5185 0.9423
C76 C 0.3325(9) 0.4642(6) 0.8398(7)
H70 H 0.3378 0.4948 0.8143
C78 C 0.3092(9) 0.4097(5) 0.8132(8)
H74 H 0.3028 0.4055 0.7692
N15 N 0.2071(4) 0.1937(4) 0.7674(5)
C80 C 0.2660(5) 0.2935(4) 0.7566(6)
H75 H 0.2876 0.3238 0.7288
C81 C 0.2347(6) 0.2392(5) 0.7338(5)
H76 H 0.2332 0.2347 0.6896
C82 C 0.2658(5) 0.3034(5) 0.8185(7)
C83 C 0.2016(7) 0.2025(6) 0.8269(7)
H77 H 0.1763 0.1719 0.8524
C84 C 0.2328(8) 0.2570(5) 0.8535(8)
H78 H 0.2306 0.2612 0.8975
Cd5 Cd 0.6666 0.3334 0.63769(5)
Cd6 Cd 0.16167(3) 0.10053(3) 0.72654(4)
O30 O 0.6666 0.3334 0.7504(4)
O31 O 0.1887(3) 0.1250(3) 0.6195(4)
C85 C 0.5925(3) 0.2099(3) 0.6480(4)
O32 O 0.5649(3) 0.2341(2) 0.6546(4)
N16 N 0.5059(3) 0.1164(3) 0.6398(3)
H79 H 0.4841 0.1262 0.6595
O33 O 0.6457(3) 0.2397(2) 0.6374(3)
C86 C 0.5665(3) 0.1475(4) 0.6531(4)
H80 H 0.5851 0.1357 0.6210
O34 O 0.6666 0.3334 0.5312(5)
O36 O 0.2525(3) 0.1205(4) 0.6791(3)
C87 C 0.2361(4) 0.1265(4) 0.6272(5)
C88 C 0.2712(4) 0.1376(5) 0.5671(5)
H81 H 0.2447 0.1188 0.5313
N17 N 0.3071(3) 0.1125(4) 0.5733(4)
H82 H 0.3439 0.1342 0.5722
O38 O 0.2319(3) 0.0217(3) 0.5817(3)
C90 C 0.5787(4) 0.1306(4) 0.7184(5)
H84 H 0.5617 0.0896 0.7205
H85 H 0.5627 0.1433 0.7513
H86 H 0.6195 0.1482 0.7244
C92 C 0.4182(4) 0.0418(5) 0.5927(5)
C94 C 0.2837(4) 0.0546(4) 0.5809(4)
C95 C 0.3844(4) 0.0659(4) 0.5886(4)
H88 H 0.4007 0.1057 0.5882
C97 C 0.3251(3) 0.0308(4) 0.5848(4)
C99 C 0.4829(5) 0.0743(5) 0.5997(6)
O40 O 0.5113(5) 0.0707(6) 0.5554(5)
C101 C 0.3078(6) 0.1985(6) 0.5511(8)
H94 H 0.3274 0.2019 0.5115
H95 H 0.3355 0.2173 0.5845
H96 H 0.2845 0.2161 0.5467
Cd7 Cd 0.93885(4) 0.83833(3) 0.72654(4)
O41 O 0.9362(4) 0.8113(3) 0.6195(4)
C103 C 0.6173(4) 0.4075(3) 0.6480(4)
O42 O 0.6691(4) 0.4351(3) 0.6546(4)
N19 N 0.6104(4) 0.4941(3) 0.6398(3)
H97 H 0.6420 0.5159 0.6595
O43 O 0.5939(4) 0.3543(3) 0.6374(3)
C104 C 0.5809(5) 0.4335(3) 0.6531(4)
H98 H 0.5505 0.4149 0.6210
O44 O 0.4546(6) 0.7323(4) 0.4941(4)
O45 O 0.8679(5) 0.7475(3) 0.6791(3)
C105 C 0.8903(6) 0.7639(4) 0.6272(5)
C106 C 0.8663(6) 0.7288(4) 0.5671(5)
H99 H 0.8740 0.7553 0.5313
O46 O 0.5228(5) 0.7198(4) 0.4627(4)
N20 N 0.8053(5) 0.6929(3) 0.5733(4)
H100 H 0.7902 0.6561 0.5722
C107 C 0.4869(7) 0.7131(5) 0.5031(6)
O47 O 0.7897(4) 0.7681(3) 0.5817(3)
N21 N 0.5195(6) 0.6588(4) 0.5672(5)
H101 H 0.5074 0.6235 0.5571
O48 O 0.5964(6) 0.7434(4) 0.6028(4)
C108 C 0.5518(6) 0.4213(4) 0.7184(5)
H102 H 0.5278 0.4383 0.7205
H103 H 0.5805 0.4373 0.7513
H104 H 0.5286 0.3805 0.7244
C109 C 0.6127(6) 0.6651(4) 0.5846(4)
C110 C 0.6235(6) 0.5818(4) 0.5927(5)
C111 C 0.6706(6) 0.6979(4) 0.5818(4)
H105 H 0.6870 0.7375 0.5777
C112 C 0.7708(6) 0.7163(4) 0.5809(4)
C113 C 0.6814(6) 0.6156(4) 0.5886(4)
H106 H 0.7049 0.5993 0.5882
C114 C 0.5886(6) 0.6061(4) 0.5880(5)
H107 H 0.5489 0.5826 0.5871
C115 C 0.7056(5) 0.6749(3) 0.5848(4)
C116 C 0.4788(7) 0.6797(5) 0.5642(5)
H108 H 0.4863 0.7056 0.6005
C117 C 0.5913(7) 0.5171(5) 0.5997(6)
O49 O 0.5593(8) 0.4887(5) 0.5554(5)
C118 C 0.4202(10) 0.6309(7) 0.5703(8)
H109 H 0.4171 0.6103 0.6090
H110 H 0.4116 0.6057 0.5343
H111 H 0.3934 0.6447 0.5716
C119 C 0.8906(8) 0.6922(6) 0.5511(8)
H112 H 0.8744 0.6726 0.5115
H113 H 0.8817 0.6645 0.5845
H114 H 0.9315 0.7155 0.5467
C120 C 0.5766(7) 0.6924(5) 0.5854(5)
Cd8 Cd 0.89947(3) 0.06115(4) 0.72654(4)
O50 O 0.8750(3) 0.0638(4) 0.6195(4)
C121 C 0.7901(3) 0.3827(4) 0.6480(4)
O51 O 0.7659(2) 0.3309(4) 0.6546(4)
N22 N 0.8836(3) 0.3896(4) 0.6398(3)
H115 H 0.8738 0.3580 0.6595
O52 O 0.7603(2) 0.4061(4) 0.6374(3)
C122 C 0.8525(4) 0.4191(5) 0.6531(4)
H116 H 0.8643 0.4495 0.6210
O54 O 0.8795(4) 0.1321(5) 0.6791(3)
C123 C 0.8735(4) 0.1097(6) 0.6272(5)
C124 C 0.8624(5) 0.1337(6) 0.5671(5)
H117 H 0.8812 0.1260 0.5313
N23 N 0.8875(4) 0.1947(5) 0.5733(4)
H118 H 0.8658 0.2098 0.5722
O56 O 0.9783(3) 0.2103(4) 0.5817(3)
C126 C 0.8694(4) 0.4482(6) 0.7184(5)
H120 H 0.9104 0.4722 0.7205
H121 H 0.8567 0.4195 0.7513
H122 H 0.8518 0.4714 0.7244
C128 C 0.9582(5) 0.3765(6) 0.5927(5)
C130 C 0.9454(4) 0.2292(6) 0.5809(4)
C131 C 0.9341(4) 0.3186(6) 0.5886(4)
H124 H 0.8943 0.2951 0.5882
C133 C 0.9692(4) 0.2944(5) 0.5848(4)
C135 C 0.9257(5) 0.4087(7) 0.5997(6)
O58 O 0.9293(6) 0.4407(8) 0.5554(5)
C137 C 0.8015(6) 0.1094(8) 0.5511(8)
H130 H 0.7981 0.1256 0.5115
H131 H 0.7827 0.1183 0.5845
H132 H 0.7839 0.0685 0.5467
Cd15 Cd 0.49501(3) 0.76719(3) 0.39320(4)
Cd18 Cd 0.76719(3) 0.49501(3) 0.60680(4)
Cd19 Cd 0.50499(3) 0.27219(4) 0.60680(4)
Cd20 Cd 0.72781(4) 0.23281(3) 0.60680(4)
O61 O 0.4326(2) 0.6642(4) 0.9879(4)
O62 O 0.9007(2) 0.8983(3) 0.6788(4)
O63 O 0.1017(3) 0.0025(4) 0.6788(4)
O64 O 0.9975(4) 0.0993(2) 0.6788(4)
O65 O 0.3124(3) 0.5730(2) 0.9707(3)
O70 O 0.0727(4) 0.0937(2) 0.6960(3)
O71 O 0.9344(4) 0.0557(4) 0.8274(4)
O72 O 0.1213(6) 0.0656(4) 0.8274(4)
O73 O 0.9443(4) 0.8787(6) 0.8274(4)
O74 O 0.3890(4) 0.6011(4) 0.8393(4)
O77 O 0.9469(4) 0.1364(3) 0.7960(4)
O78 O 0.1895(5) 0.0531(4) 0.7960(4)
O79 O 0.8636(3) 0.8105(5) 0.7960(4)
O80 O 0.4697(3) 0.6136(4) 0.8707(4)
O2 O 0.4583(3) 0.8554(3) 0.0472(4)
O6 O 0.0557(4) 0.9344(4) 0.1726(4)
C3 C 0.4598(4) 0.9028(4) 0.0395(5)
C4 C 0.4709(5) 0.9379(4) 0.0996(5)
H3 H 0.4521 0.9114 0.1354
O8 O 0.1364(3) 0.9469(4) 0.2040(4)
N3 N 0.4458(4) 0.9738(3) 0.0934(4)
C6 C 0.1072(5) 0.9536(5) 0.1636(6)
O9 O 0.3550(3) 0.8986(3) 0.0850(3)
O10 O 0.1864(4) 0.9233(4) 0.0639(4)
C12 C 0.3061(4) 0.9688(4) 0.0849(4)
H11 H 0.2829 0.9292 0.0890
C13 C 0.3879(4) 0.9504(4) 0.0858(4)
C16 C 0.3641(4) 0.9918(3) 0.0819(4)
C17 C 0.1325(5) 0.9870(5) 0.1025(5)
H14 H 0.1141 0.9611 0.0662
C21 C 0.5318(6) 0.9745(6) 0.1156(8)
H19 H 0.5352 0.9941 0.1552
H21 H 0.5494 0.9512 0.1200
C23 C 0.2176(5) 0.9743(5) 0.0813(5)
Cd14 Cd 0.06115(4) 0.89947(3) 0.27346(4)
Cd2 Cd 0.43386(3) 0.82834(3) 0.94013(4)
O7 O 0.4538(4) 0.9192(3) 0.9876(3)
N2 N 0.5270(4) 0.8738(4) 0.8993(5)
C5 C 0.6268(4) 0.9327(5) 0.9101(6)
H5 H 0.6571 0.9543 0.9379
C7 C 0.5725(5) 0.9014(6) 0.9329(5)
H6 H 0.5680 0.8999 0.9771
C8 C 0.6367(5) 0.9325(5) 0.8482(7)
C20 C 0.5358(6) 0.8683(7) 0.8398(7)
H18 H 0.5052 0.8430 0.8143
C22 C 0.5903(5) 0.8995(8) 0.8132(8)
H22 H 0.5945 0.8973 0.7692
C24 C 0.7065(4) 0.9726(6) 0.7566(6)
H23 H 0.6762 0.9639 0.7288
C25 C 0.7608(5) 0.9956(8) 0.7338(5)
H24 H 0.7653 0.9986 0.6896
C26 C 0.6966(5) 0.9625(7) 0.8185(7)
C27 C 0.7975(6) 0.9992(9) 0.8269(7)
C28 C 0.7430(5) 0.9759(9) 0.8535(8)
H26 H 0.7388 0.9695 0.8975
O35 O 0.2677(4) 0.7224(4) 0.4941(4)
O37 O 0.2802(4) 0.8031(3) 0.4627(4)
C89 C 0.2869(5) 0.7739(5) 0.5031(6)
N18 N 0.3412(4) 0.8608(4) 0.5672(5)
H83 H 0.3765 0.8840 0.5571
O39 O 0.2566(4) 0.8531(4) 0.6028(4)
C91 C 0.3349(4) 0.9477(4) 0.5846(4)
C93 C 0.3021(4) 0.9728(4) 0.5818(4)
H87 H 0.2625 0.9496 0.5777
C96 C 0.3939(4) 0.9826(5) 0.5880(5)
H89 H 0.4174 0.9664 0.5871
C98 C 0.3203(5) 0.7992(5) 0.5642(5)
H90 H 0.2944 0.7808 0.6005
C100 C 0.3691(7) 0.7894(7) 0.5703(8)
H91 H 0.3897 0.8069 0.6090
H92 H 0.3943 0.8060 0.5343
H93 H 0.3553 0.7488 0.5716
C102 C 0.3076(5) 0.8843(5) 0.5854(5)
Cd17 Cd 0.23281(3) 0.72781(4) 0.39320(4)
O60 O 0.3358(4) 0.7684(3) 0.9879(4)
O67 O 0.4270(2) 0.7394(4) 0.9707(3)
O68 O 0.9063(2) 0.9791(3) 0.6960(3)
O75 O 0.3989(4) 0.7880(6) 0.8393(4)
O81 O 0.3864(4) 0.8562(5) 0.8707(4)
O16_2 O 0.5346(5) 0.0808(3) 0.0124(3)
N7_2 N 0.6532(6) 0.1262(4) 0.1007(5)
C33_2 C 0.6941(6) 0.0673(5) 0.0899(6)
H31_2 H 0.7028 0.0457 0.0621
C35_2 C 0.6711(8) 0.0986(6) 0.0671(5)
H32_2 H 0.6681 0.1001 0.0229
C36_2 C 0.7042(7) 0.0675(5) 0.1518(7)
C48_2 C 0.6675(9) 0.1317(7) 0.1602(7)
H44_2 H 0.6622 0.1570 0.1857
C50_2 C 0.6908(9) 0.1005(8) 0.1868(8)
H48_2 H 0.6972 0.1027 0.2308
C52_2 C 0.7340(5) 0.0274(6) 0.2434(6)
H49_2 H 0.7124 0.0361 0.2712
C53_2 C 0.7653(6) 0.0044(8) 0.2662(5)
H50_2 H 0.7668 0.0014 0.3104
C54_2 C 0.7342(5) 0.0375(7) 0.1815(7)
C55_2 C 0.7984(7) 0.0008(9) 0.1731(7)
C56_2 C 0.7672(8) 0.0241(9) 0.1465(8)
H52_2 H 0.7694 0.0305 0.1025
O53_2 O 0.5454(6) 0.2776(4) 0.5059(4)
O55_2 O 0.4772(5) 0.1969(3) 0.5373(4)
C125_2 C 0.5131(7) 0.2261(5) 0.4969(6)
N24_2 N 0.4805(6) 0.1392(4) 0.4328(5)
H119_2 H 0.4926 0.1160 0.4429
O57_2 O 0.4036(6) 0.1469(4) 0.3972(4)
C127_2 C 0.3873(6) 0.0523(4) 0.4154(4)
C129_2 C 0.3294(6) 0.0272(4) 0.4182(4)
H123_2 H 0.3130 0.0504 0.4223
C132_2 C 0.4114(6) 0.0174(5) 0.4120(5)
H125_2 H 0.4511 0.0336 0.4129
C134_2 C 0.5212(7) 0.2008(5) 0.4358(5)
H126_2 H 0.5137 0.2192 0.3995
C136_2 C 0.5798(10) 0.2106(7) 0.4297(8)
H127_2 H 0.5829 0.1931 0.3910
H128_2 H 0.5884 0.1940 0.4657
H129_2 H 0.6066 0.2512 0.4284
C138_2 C 0.4234(7) 0.1157(5) 0.4146(5)
O69_2 O 0.9273(4) 0.0209(3) 0.3040(3)
O76_2 O 0.6110(4) 0.2120(6) 0.1607(4)
O82_2 O 0.5303(3) 0.1438(5) 0.1293(4)
O12_2 O 0.6029(4) 0.1446(3) 0.9528(4)
C31_2 C 0.5570(6) 0.0972(4) 0.9605(5)
C32_2 C 0.5330(6) 0.0621(4) 0.9004(5)
H29_2 H 0.5407 0.0886 0.8646
N8_2 N 0.4720(5) 0.0262(3) 0.9066(4)
C34_2 C 0.1536(7) 0.0464(5) 0.8364(6)
O18_2 O 0.4564(4) 0.1014(3) 0.9150(3)
O19_2 O 0.2631(6) 0.0767(4) 0.9361(4)
C40_2 C 0.3373(6) 0.0312(4) 0.9151(4)
H37_2 H 0.3537 0.0708 0.9110
C41_2 C 0.4375(6) 0.0496(4) 0.9142(4)
C44_2 C 0.3723(5) 0.0082(3) 0.9181(4)
C45_2 C 0.1455(7) 0.0130(5) 0.8975(5)
H40_2 H 0.1530 0.0389 0.9338
C49_2 C 0.5573(8) 0.0255(6) 0.8844(8)
H45_2 H 0.5411 0.0059 0.8448
H47_2 H 0.5982 0.0488 0.8800
C51_2 C 0.2433(7) 0.0257(5) 0.9187(5)
O1_2 O 0.3333 0.6667 0.0837(4)
C9_2 C 0.2454(4) 0.4639(4) 0.0517(5)
H8_2 H 0.2284 0.4229 0.0538
H9_2 H 0.2294 0.4766 0.0846
H10_2 H 0.2862 0.4815 0.0577
N5_2 N 0.0135(6) 0.8063(4) 0.2326(5)
H25_2 H 0.0045 0.8281 0.1476
C37_2 C 0.2185(6) 0.7546(4) 0.0517(5)
H34_2 H 0.1945 0.7716 0.0538
H35_2 H 0.2472 0.7706 0.0846
H36_2 H 0.1953 0.7138 0.0577
N10_2 N 0.7929(4) 0.9865(6) 0.2326(5)
H51_2 H 0.8237 0.9955 0.1476
O25_2 O 0.5462(4) 0.4654(5) 0.0124(3)
N12_2 N 0.4730(4) 0.3468(6) 0.1007(5)
C61_2 C 0.3732(4) 0.3059(6) 0.0899(6)
H57_2 H 0.3429 0.2972 0.0621
C63_2 C 0.4275(5) 0.3289(8) 0.0671(5)
H58_2 H 0.4320 0.3319 0.0229
C64_2 C 0.3633(5) 0.2958(7) 0.1518(7)
C65_2 C 0.5361(4) 0.7815(6) 0.0517(5)
H60_2 H 0.5771 0.8055 0.0538
H61_2 H 0.5234 0.7528 0.0846
H62_2 H 0.5185 0.8047 0.0577
C76_2 C 0.4642(6) 0.3325(9) 0.1602(7)
H70_2 H 0.4948 0.3378 0.1857
C78_2 C 0.4097(5) 0.3092(9) 0.1868(8)
H74_2 H 0.4055 0.3028 0.2308
N15_2 N 0.1937(4) 0.2071(4) 0.2326(5)
C80_2 C 0.2935(4) 0.2660(5) 0.2434(6)
H75_2 H 0.3238 0.2876 0.2712
C81_2 C 0.2392(5) 0.2347(6) 0.2662(5)
H76_2 H 0.2347 0.2332 0.3104
C82_2 C 0.3034(5) 0.2658(5) 0.1815(7)
C83_2 C 0.2025(6) 0.2016(7) 0.1731(7)
H77_2 H 0.1719 0.1763 0.1476
C84_2 C 0.2570(5) 0.2328(8) 0.1465(8)
H78_2 H 0.2612 0.2306 0.1025
Cd5_2 Cd 0.3334 0.6666 0.36231(5)
O30_2 O 0.3334 0.6666 0.2496(4)
O31_2 O 0.1250(3) 0.1887(3) 0.3805(4)
C85_2 C 0.2099(3) 0.5925(3) 0.3520(4)
O32_2 O 0.2341(2) 0.5649(3) 0.3454(4)
N16_2 N 0.1164(3) 0.5059(3) 0.3602(3)
H79_2 H 0.1262 0.4841 0.3405
O33_2 O 0.2397(2) 0.6457(3) 0.3626(3)
C86_2 C 0.1475(4) 0.5665(3) 0.3469(4)
H80_2 H 0.1357 0.5851 0.3790
O34_2 O 0.3334 0.6666 0.4688(5)
O36_2 O 0.1205(4) 0.2525(3) 0.3209(3)
C87_2 C 0.1265(4) 0.2361(4) 0.3728(5)
C88_2 C 0.1376(5) 0.2712(4) 0.4329(5)
H81_2 H 0.1188 0.2447 0.4687
N17_2 N 0.1125(4) 0.3071(3) 0.4267(4)
H82_2 H 0.1342 0.3439 0.4278
O38_2 O 0.0217(3) 0.2319(3) 0.4183(3)
C90_2 C 0.1306(4) 0.5787(4) 0.2816(5)
H84_2 H 0.0896 0.5617 0.2795
H85_2 H 0.1433 0.5627 0.2487
H86_2 H 0.1482 0.6195 0.2756
C92_2 C 0.0418(5) 0.4182(4) 0.4073(5)
C94_2 C 0.0546(4) 0.2837(4) 0.4191(4)
C95_2 C 0.0659(4) 0.3844(4) 0.4114(4)
H88_2 H 0.1057 0.4007 0.4118
C97_2 C 0.0308(4) 0.3251(3) 0.4152(4)
C99_2 C 0.0743(5) 0.4829(5) 0.4003(6)
O40_2 O 0.0707(6) 0.5113(5) 0.4446(5)
C101_2 C 0.1985(6) 0.3078(6) 0.4489(8)
H94_2 H 0.2019 0.3274 0.4885
H95_2 H 0.2173 0.3355 0.4155
H96_2 H 0.2161 0.2845 0.4533
O41_2 O 0.8113(3) 0.9362(4) 0.3805(4)
C103_2 C 0.4075(3) 0.6173(4) 0.3520(4)
O42_2 O 0.4351(3) 0.6691(4) 0.3454(4)
N19_2 N 0.4941(3) 0.6104(4) 0.3602(3)
H97_2 H 0.5159 0.6420 0.3405
O43_2 O 0.3543(3) 0.5939(4) 0.3626(3)
C104_2 C 0.4335(3) 0.5809(5) 0.3469(4)
H98_2 H 0.4149 0.5505 0.3790
O44_2 O 0.7323(4) 0.4546(6) 0.5059(4)
O45_2 O 0.7475(3) 0.8679(5) 0.3209(3)
C105_2 C 0.7639(4) 0.8903(6) 0.3728(5)
C106_2 C 0.7288(4) 0.8663(6) 0.4329(5)
H99_2 H 0.7553 0.8740 0.4687
O46_2 O 0.7198(4) 0.5228(5) 0.5373(4)
N20_2 N 0.6929(3) 0.8053(5) 0.4267(4)
H100_2 H 0.6561 0.7902 0.4278
C107_2 C 0.7131(5) 0.4869(7) 0.4969(6)
O47_2 O 0.7681(3) 0.7897(4) 0.4183(3)
N21_2 N 0.6588(4) 0.5195(6) 0.4328(5)
H101_2 H 0.6235 0.5074 0.4429
O48_2 O 0.7434(4) 0.5964(6) 0.3972(4)
C108_2 C 0.4213(4) 0.5518(6) 0.2816(5)
H102_2 H 0.4383 0.5278 0.2795
H103_2 H 0.4373 0.5805 0.2487
H104_2 H 0.3805 0.5286 0.2756
C109_2 C 0.6651(4) 0.6127(6) 0.4154(4)
C110_2 C 0.5818(4) 0.6235(6) 0.4073(5)
C111_2 C 0.6979(4) 0.6706(6) 0.4182(4)
H105_2 H 0.7375 0.6870 0.4223
C112_2 C 0.7163(4) 0.7708(6) 0.4191(4)
C113_2 C 0.6156(4) 0.6814(6) 0.4114(4)
H106_2 H 0.5993 0.7049 0.4118
C114_2 C 0.6061(4) 0.5886(6) 0.4120(5)
H107_2 H 0.5826 0.5489 0.4129
C115_2 C 0.6749(3) 0.7056(5) 0.4152(4)
C116_2 C 0.6797(5) 0.4788(7) 0.4358(5)
H108_2 H 0.7056 0.4863 0.3995
C117_2 C 0.5171(5) 0.5913(7) 0.4003(6)
O49_2 O 0.4887(5) 0.5593(8) 0.4446(5)
C118_2 C 0.6309(7) 0.4202(10) 0.4297(8)
H109_2 H 0.6103 0.4171 0.3910
H110_2 H 0.6057 0.4116 0.4657
H111_2 H 0.6447 0.3934 0.4284
C119_2 C 0.6922(6) 0.8906(8) 0.4489(8)
H112_2 H 0.6726 0.8744 0.4885
H113_2 H 0.6645 0.8817 0.4155
H114_2 H 0.7155 0.9315 0.4533
C120_2 C 0.6924(5) 0.5766(7) 0.4146(5)
O50_2 O 0.0638(4) 0.8750(3) 0.3805(4)
C121_2 C 0.3827(4) 0.7901(3) 0.3520(4)
O51_2 O 0.3309(4) 0.7659(2) 0.3454(4)
N22_2 N 0.3896(4) 0.8836(3) 0.3602(3)
H115_2 H 0.3580 0.8738 0.3405
O52_2 O 0.4061(4) 0.7603(2) 0.3626(3)
C122_2 C 0.4191(5) 0.8525(4) 0.3469(4)
H116_2 H 0.4495 0.8643 0.3790
O54_2 O 0.1321(5) 0.8795(4) 0.3209(3)
C123_2 C 0.1097(6) 0.8735(4) 0.3728(5)
C124_2 C 0.1337(6) 0.8624(5) 0.4329(5)
H117_2 H 0.1260 0.8812 0.4687
N23_2 N 0.1947(5) 0.8875(4) 0.4267(4)
H118_2 H 0.2098 0.8658 0.4278
O56_2 O 0.2103(4) 0.9783(3) 0.4183(3)
C126_2 C 0.4482(6) 0.8694(4) 0.2816(5)
H120_2 H 0.4722 0.9104 0.2795
H121_2 H 0.4195 0.8567 0.2487
H122_2 H 0.4714 0.8518 0.2756
C128_2 C 0.3765(6) 0.9582(5) 0.4073(5)
C130_2 C 0.2292(6) 0.9454(4) 0.4191(4)
C131_2 C 0.3186(6) 0.9341(4) 0.4114(4)
H124_2 H 0.2951 0.8943 0.4118
C133_2 C 0.2944(5) 0.9692(4) 0.4152(4)
C135_2 C 0.4087(7) 0.9257(5) 0.4003(6)
O58_2 O 0.4407(8) 0.9293(6) 0.4446(5)
C137_2 C 0.1094(8) 0.8015(6) 0.4489(8)
H130_2 H 0.1256 0.7981 0.4885
H131_2 H 0.1183 0.7827 0.4155
H132_2 H 0.0685 0.7839 0.4533
O62_2 O 0.8983(3) 0.9007(2) 0.3212(4)
O63_2 O 0.0025(4) 0.1017(3) 0.3212(4)
O64_2 O 0.0993(2) 0.9975(4) 0.3212(4)
O70_2 O 0.0937(2) 0.0727(4) 0.3040(3)
O74_2 O 0.6011(4) 0.3890(4) 0.1607(4)
O80_2 O 0.6136(4) 0.4697(3) 0.1293(4)
Cd1_2 Cd 0.3333 0.6667 0.97102(5)
C1_2 C 0.2592(3) 0.5432(3) 0.9813(4)
N1_2 N 0.1726(3) 0.4497(3) 0.9731(3)
H1_2 H 0.1508 0.4595 0.9928
C2_2 C 0.2332(3) 0.4808(4) 0.9864(4)
H2_2 H 0.2518 0.4690 0.9543
O5_2 O 0.3333 0.6667 0.8645(5)
H4_2 H 0.0106 0.4675 0.9055
N4_2 N 0.0079(4) 0.1941(4) 0.9005(5)
H7_2 H 0.0432 0.2173 0.8904
C10_2 C 0.0016(4) 0.2810(4) 0.9179(4)
C11_2 C 0.0849(4) 0.3751(5) 0.9260(5)
C14_2 C 0.0511(4) 0.3992(4) 0.9219(4)
H12_2 H 0.0674 0.4390 0.9215
C15_2 C 0.0606(4) 0.3159(5) 0.9213(5)
H13_2 H 0.0841 0.2997 0.9204
C18_2 C 0.1496(5) 0.4076(5) 0.9330(6)
O11_2 O 0.1780(5) 0.4040(6) 0.8887(5)
C19_2 C 0.0358(7) 0.1227(7) 0.9036(8)
H15_2 H 0.0564 0.1402 0.9423
H16_2 H 0.0610 0.1393 0.8676
H17_2 H 0.0220 0.0821 0.9049
H20_2 H 0.0022 0.5506 0.9178
C29_2 C 0.2840(4) 0.7408(3) 0.9813(4)
N6_2 N 0.2771(4) 0.8274(3) 0.9731(3)
H27_2 H 0.3087 0.8492 0.9928
C30_2 C 0.2476(5) 0.7668(3) 0.9864(4)
H28_2 H 0.2172 0.7482 0.9543
H30_2 H 0.4569 0.9894 0.9055
N9_2 N 0.1862(6) 0.9921(4) 0.9005(5)
H33_2 H 0.1741 0.9568 0.8904
C38_2 C 0.2794(6) 0.9984(4) 0.9179(4)
C39_2 C 0.2902(6) 0.9151(4) 0.9260(5)
C42_2 C 0.3481(6) 0.9489(4) 0.9219(4)
H38_2 H 0.3716 0.9326 0.9215
C43_2 C 0.2553(6) 0.9394(4) 0.9213(5)
H39_2 H 0.2156 0.9159 0.9204
C46_2 C 0.2580(7) 0.8504(5) 0.9330(6)
O20_2 O 0.2260(8) 0.8220(5) 0.8887(5)
C47_2 C 0.0869(10) 0.9642(7) 0.9036(8)
H41_2 H 0.0838 0.9436 0.9423
H42_2 H 0.0783 0.9390 0.8676
H43_2 H 0.0601 0.9780 0.9049
H46_2 H 0.5484 0.9978 0.9178
O21_2 O 0.5417(3) 0.3971(4) 0.9528(4)
C57_2 C 0.4568(3) 0.7160(4) 0.9813(4)
N11_2 N 0.5503(3) 0.7229(4) 0.9731(3)
H53_2 H 0.5405 0.6913 0.9928
C58_2 C 0.5192(4) 0.7524(5) 0.9864(4)
H54_2 H 0.5310 0.7828 0.9543
C59_2 C 0.5402(4) 0.4430(6) 0.9605(5)
C60_2 C 0.5291(5) 0.4670(6) 0.9004(5)
H55_2 H 0.5479 0.4593 0.8646
N13_2 N 0.5542(4) 0.5280(5) 0.9066(4)
H56_2 H 0.5325 0.5431 0.9055
C62_2 C 0.8928(5) 0.8464(7) 0.8364(6)
O27_2 O 0.6450(3) 0.5436(4) 0.9150(3)
N14_2 N 0.8059(4) 0.8138(6) 0.9005(5)
H59_2 H 0.7827 0.8259 0.8904
O28_2 O 0.8136(4) 0.7369(6) 0.9361(4)
C66_2 C 0.7190(4) 0.7206(6) 0.9179(4)
C67_2 C 0.6249(5) 0.7098(6) 0.9260(5)
C68_2 C 0.6939(4) 0.6627(6) 0.9151(4)
H63_2 H 0.7171 0.6463 0.9110
C69_2 C 0.6121(4) 0.5625(6) 0.9142(4)
C70_2 C 0.6008(4) 0.6519(6) 0.9219(4)
H64_2 H 0.5610 0.6284 0.9215
C71_2 C 0.6841(5) 0.7447(6) 0.9213(5)
H65_2 H 0.7003 0.7844 0.9204
C72_2 C 0.6359(4) 0.6277(5) 0.9181(4)
C73_2 C 0.8675(5) 0.8545(7) 0.8975(5)
H66_2 H 0.8859 0.8470 0.9338
C74_2 C 0.5924(5) 0.7420(7) 0.9330(6)
O29_2 O 0.5960(6) 0.7740(8) 0.8887(5)
C75_2 C 0.8773(7) 0.9131(10) 0.9036(8)
H67_2 H 0.8598 0.9162 0.9423
H68_2 H 0.8607 0.9217 0.8676
H69_2 H 0.9179 0.9399 0.9049
C77_2 C 0.4682(6) 0.4427(8) 0.8844(8)
H71_2 H 0.4648 0.4589 0.8448
H72_2 H 0.4494 0.4516 0.9178
H73_2 H 0.4506 0.4018 0.8800
C79_2 C 0.7824(5) 0.7567(7) 0.9187(5)
O7_2 O 0.9192(3) 0.4538(4) 0.0124(3)
N2_2 N 0.8738(4) 0.5270(4) 0.1007(5)
C5_2 C 0.9327(5) 0.6268(4) 0.0899(6)
H5_2 H 0.9543 0.6571 0.0621
C7_2 C 0.9014(6) 0.5725(5) 0.0671(5)
H6_2 H 0.8999 0.5680 0.0229
C8_2 C 0.9325(5) 0.6367(5) 0.1518(7)
C20_2 C 0.8683(7) 0.5358(6) 0.1602(7)
H18_2 H 0.8430 0.5052 0.1857
C22_2 C 0.8995(8) 0.5903(5) 0.1868(8)
H22_2 H 0.8973 0.5945 0.2308
C24_2 C 0.9726(6) 0.7065(4) 0.2434(6)
H23_2 H 0.9639 0.6762 0.2712
C25_2 C 0.9956(8) 0.7608(5) 0.2662(5)
H24_2 H 0.9986 0.7653 0.3104
C26_2 C 0.9625(7) 0.6966(5) 0.1815(7)
C27_2 C 0.9992(9) 0.7975(6) 0.1731(7)
C28_2 C 0.9759(9) 0.7430(5) 0.1465(8)
H26_2 H 0.9695 0.7388 0.1025
O35_2 O 0.7224(4) 0.2677(4) 0.5059(4)
O37_2 O 0.8031(3) 0.2802(4) 0.5373(4)
C89_2 C 0.7739(5) 0.2869(5) 0.4969(6)
N18_2 N 0.8608(4) 0.3412(4) 0.4328(5)
H83_2 H 0.8840 0.3765 0.4429
O39_2 O 0.8531(4) 0.2566(4) 0.3972(4)
C91_2 C 0.9477(4) 0.3349(4) 0.4154(4)
C93_2 C 0.9728(4) 0.3021(4) 0.4182(4)
H87_2 H 0.9496 0.2625 0.4223
C96_2 C 0.9826(5) 0.3939(4) 0.4120(5)
H89_2 H 0.9664 0.4174 0.4129
C98_2 C 0.7992(5) 0.3203(5) 0.4358(5)
H90_2 H 0.7808 0.2944 0.3995
C100_2 C 0.7894(7) 0.3691(7) 0.4297(8)
H91_2 H 0.8069 0.3897 0.3910
H92_2 H 0.8060 0.3943 0.4657
H93_2 H 0.7488 0.3553 0.4284
C102_2 C 0.8843(5) 0.3076(5) 0.4146(5)
O68_2 O 0.9791(3) 0.9063(2) 0.3040(3)
O75_2 O 0.7880(6) 0.3989(4) 0.1607(4)
O81_2 O 0.8562(5) 0.3864(4) 0.1293(4)
O2_2 O 0.8554(3) 0.4583(3) 0.9528(4)
C3_2 C 0.9028(4) 0.4598(4) 0.9605(5)
C4_2 C 0.9379(4) 0.4709(5) 0.9004(5)
H3_2 H 0.9114 0.4521 0.8646
N3_2 N 0.9738(3) 0.4458(4) 0.9066(4)
C6_2 C 0.9536(5) 0.1072(5) 0.8364(6)
O9_2 O 0.8986(3) 0.3550(3) 0.9150(3)
O10_2 O 0.9233(4) 0.1864(4) 0.9361(4)
C12_2 C 0.9688(4) 0.3061(4) 0.9151(4)
H11_2 H 0.9292 0.2829 0.9110
C13_2 C 0.9504(4) 0.3879(4) 0.9142(4)
C16_2 C 0.9918(3) 0.3641(4) 0.9181(4)
C17_2 C 0.9870(5) 0.1325(5) 0.8975(5)
H14_2 H 0.9611 0.1141 0.9338
C21_2 C 0.9745(6) 0.5318(6) 0.8844(8)
H19_2 H 0.9941 0.5352 0.8448
H21_2 H 0.9512 0.5494 0.8800
C23_2 C 0.9743(5) 0.2176(5) 0.9187(5)
Cd1_3 Cd -0.0000 0.0000 0.30435(5)
O1_3 O -0.0000 0.0000 0.4170(4)
O5_3 O -0.0000 0.0000 0.1978(5)
O12_3 O 0.2696(4) 0.4779(3) 0.2861(4)
O16_3 O 0.2013(5) 0.4141(3) 0.3457(3)
C31_3 C 0.2237(6) 0.4305(4) 0.2938(5)
C32_3 C 0.1997(6) 0.3954(4) 0.2337(5)
H29_3 H 0.2074 0.4219 0.1979
N7_3 N 0.3199(6) 0.4595(4) 0.4340(5)
N8_3 N 0.1387(5) 0.3595(3) 0.2399(4)
H30_3 H 0.1236 0.3227 0.2388
C33_3 C 0.3608(6) 0.4006(5) 0.4232(6)
H31_3 H 0.3695 0.3790 0.3954
C35_3 C 0.3378(8) 0.4319(6) 0.4004(5)
H32_3 H 0.3348 0.4334 0.3562
C36_3 C 0.3709(7) 0.4008(5) 0.4851(7)
O18_3 O 0.1231(4) 0.4347(3) 0.2483(3)
C40_3 C 0.0040(6) 0.3645(4) 0.2484(4)
H37_3 H 0.0204 0.4041 0.2443
C41_3 C 0.1042(6) 0.3829(4) 0.2475(4)
C42_3 C 0.0148(6) 0.2822(4) 0.2552(4)
H38_3 H 0.0383 0.2659 0.2548
C44_3 C 0.0390(5) 0.3415(3) 0.2514(4)
C48_3 C 0.3342(9) 0.4650(7) 0.4935(7)
H44_3 H 0.3289 0.4903 0.5190
C49_3 C 0.2240(8) 0.3588(6) 0.2177(8)
H45_3 H 0.2078 0.3392 0.1781
H46_3 H 0.2151 0.3311 0.2511
H47_3 H 0.2649 0.3821 0.2133
C50_3 C 0.3575(9) 0.4338(8) 0.5201(8)
H48_3 H 0.3639 0.4360 0.5641
N10_3 N 0.4595(4) 0.3199(6) 0.5660(5)
C52_3 C 0.4006(5) 0.3608(6) 0.5768(6)
H49_3 H 0.3790 0.3695 0.6046
C53_3 C 0.4319(6) 0.3378(8) 0.5996(5)
H50_3 H 0.4334 0.3348 0.6438
C54_3 C 0.4008(5) 0.3709(7) 0.5149(7)
C55_3 C 0.4650(7) 0.3342(9) 0.5065(7)
H51_3 H 0.4903 0.3289 0.4810
C56_3 C 0.4338(8) 0.3575(9) 0.4799(8)
H52_3 H 0.4360 0.3639 0.4359
C57_3 C 0.1235(3) 0.0493(4) 0.3146(4)
N11_3 N 0.2170(3) 0.0562(4) 0.3064(3)
H53_3 H 0.2072 0.0246 0.3261
C58_3 C 0.1859(4) 0.0857(5) 0.3197(4)
H54_3 H 0.1977 0.1161 0.2876
C62_3 C 0.5595(5) 0.1797(7) 0.1697(6)
N14_3 N 0.4726(4) 0.1471(6) 0.2338(5)
H59_3 H 0.4494 0.1592 0.2237
O28_3 O 0.4803(4) 0.0702(6) 0.2694(4)
C65_3 C 0.2028(4) 0.1148(6) 0.3850(5)
H60_3 H 0.2438 0.1388 0.3871
H61_3 H 0.1901 0.0861 0.4179
H62_3 H 0.1852 0.1380 0.3910
C66_3 C 0.3857(4) 0.0539(6) 0.2512(4)
C67_3 C 0.2916(5) 0.0431(6) 0.2593(5)
C71_3 C 0.3508(5) 0.0780(6) 0.2546(5)
H65_3 H 0.3670 0.1177 0.2537
C73_3 C 0.5342(5) 0.1878(7) 0.2308(5)
H66_3 H 0.5526 0.1803 0.2671
C74_3 C 0.2591(5) 0.0753(7) 0.2663(6)
O29_3 O 0.2627(6) 0.1073(8) 0.2220(5)
C75_3 C 0.5440(7) 0.2464(10) 0.2369(8)
H67_3 H 0.5265 0.2495 0.2756
H68_3 H 0.5274 0.2550 0.2009
H69_3 H 0.5846 0.2732 0.2382
C79_3 C 0.4491(5) 0.0900(7) 0.2520(5)
Cd5_3 Cd 0.0000 -0.0000 0.69565(5)
O30_3 O 0.0000 -0.0000 0.5830(4)
O34_3 O 0.0000 -0.0000 0.8022(5)
O41_3 O 0.4779(3) 0.2696(4) 0.7139(4)
O45_3 O 0.4141(3) 0.2013(5) 0.6543(3)
C105_3 C 0.4305(4) 0.2237(6) 0.7062(5)
C106_3 C 0.3954(4) 0.1997(6) 0.7663(5)
H99_3 H 0.4219 0.2074 0.8021
N20_3 N 0.3595(3) 0.1387(5) 0.7601(4)
H100_3 H 0.3227 0.1236 0.7612
O47_3 O 0.4347(3) 0.1231(4) 0.7517(3)
C111_3 C 0.3645(4) 0.0040(6) 0.7516(4)
H105_3 H 0.4041 0.0204 0.7557
C112_3 C 0.3829(4) 0.1042(6) 0.7525(4)
C113_3 C 0.2822(4) 0.0148(6) 0.7448(4)
H106_3 H 0.2659 0.0383 0.7452
C115_3 C 0.3415(3) 0.0390(5) 0.7486(4)
C119_3 C 0.3588(6) 0.2240(8) 0.7823(8)
H112_3 H 0.3392 0.2078 0.8219
H113_3 H 0.3311 0.2151 0.7489
H114_3 H 0.3821 0.2649 0.7867
C121_3 C 0.0493(4) 0.1235(3) 0.6854(4)
N22_3 N 0.0562(4) 0.2170(3) 0.6936(3)
H115_3 H 0.0246 0.2072 0.6739
C122_3 C 0.0857(5) 0.1859(4) 0.6803(4)
H116_3 H 0.1161 0.1977 0.7124
C125_3 C 0.1797(7) 0.5595(5) 0.8303(6)
N24_3 N 0.1471(6) 0.4726(4) 0.7662(5)
H119_3 H 0.1592 0.4494 0.7763
O57_3 O 0.0702(6) 0.4803(4) 0.7306(4)
C126_3 C 0.1148(6) 0.2028(4) 0.6150(5)
H120_3 H 0.1388 0.2438 0.6129
H121_3 H 0.0861 0.1901 0.5821
H122_3 H 0.1380 0.1852 0.6090
C127_3 C 0.0539(6) 0.3857(4) 0.7488(4)
C128_3 C 0.0431(6) 0.2916(5) 0.7407(5)
C132_3 C 0.0780(6) 0.3508(5) 0.7454(5)
H125_3 H 0.1177 0.3670 0.7463
C134_3 C 0.1878(7) 0.5342(5) 0.7692(5)
H126_3 H 0.1803 0.5526 0.7329
C135_3 C 0.0753(7) 0.2591(5) 0.7337(6)
O58_3 O 0.1073(8) 0.2627(6) 0.7780(5)
C136_3 C 0.2464(10) 0.5440(7) 0.7631(8)
H127_3 H 0.2495 0.5265 0.7244
H128_3 H 0.2550 0.5274 0.7991
H129_3 H 0.2732 0.5846 0.7618
C138_3 C 0.0900(7) 0.4491(5) 0.7480(5)
H134 H 0.0344514 0.0352165 0.567129
H136 H 0.0344514 0.0352165 0.818004
H138 H 0.0352165 0.0344514 0.181996
H140 H 0.0352165 0.0344514 0.432871
Cd1_4 Cd -0.0000 1.0000 0.30435(5)
O1_4 O -0.0000 1.0000 0.4170(4)
O5_4 O -0.0000 1.0000 0.1978(5)
O21_3 O 0.2084(3) 0.7304(4) 0.2861(4)
O25_3 O 0.2129(4) 0.7987(5) 0.3457(3)
C59_3 C 0.2069(4) 0.7763(6) 0.2938(5)
C60_3 C 0.1958(5) 0.8003(6) 0.2337(5)
H55_3 H 0.2146 0.7926 0.1979
N12_3 N 0.1397(4) 0.6801(6) 0.4340(5)
N13_3 N 0.2209(4) 0.8613(5) 0.2399(4)
H56_3 H 0.1992 0.8764 0.2388
C61_3 C 0.0399(4) 0.6392(6) 0.4232(6)
H57_3 H 0.0096 0.6305 0.3954
C63_3 C 0.0942(5) 0.6622(8) 0.4004(5)
H58_3 H 0.0987 0.6652 0.3562
C64_3 C 0.0300(5) 0.6291(7) 0.4851(7)
O27_3 O 0.3117(3) 0.8769(4) 0.2483(3)
C68_3 C 0.3606(4) 0.9960(6) 0.2484(4)
H63_3 H 0.3838 0.9796 0.2443
C69_3 C 0.2788(4) 0.8958(6) 0.2475(4)
C70_3 C 0.2675(4) 0.9852(6) 0.2552(4)
H64_3 H 0.2277 0.9617 0.2548
C72_3 C 0.3026(4) 0.9610(5) 0.2514(4)
C76_3 C 0.1309(6) 0.6658(9) 0.4935(7)
H70_3 H 0.1615 0.6711 0.5190
C77_3 C 0.1349(6) 0.7760(8) 0.2177(8)
H71_3 H 0.1315 0.7922 0.1781
H72_3 H 0.1161 0.7849 0.2511
H73_3 H 0.1173 0.7351 0.2133
C78_3 C 0.0764(5) 0.6425(9) 0.5201(8)
H74_3 H 0.0722 0.6361 0.5641
Cd5_4 Cd 0.0000 1.0000 0.69565(5)
O30_4 O 0.0000 1.0000 0.5830(4)
O34_4 O 0.0000 1.0000 0.8022(5)
C103_3 C 0.0741(3) 0.9507(4) 0.6854(4)
N19_3 N 0.1607(3) 0.9438(4) 0.6936(3)
H97_3 H 0.1825 0.9754 0.6739
C104_3 C 0.1001(3) 0.9143(5) 0.6803(4)
H98_3 H 0.0815 0.8839 0.7124
C107_3 C 0.3797(5) 0.8203(7) 0.8303(6)
N21_3 N 0.3254(4) 0.8529(6) 0.7662(5)
H101_3 H 0.2901 0.8408 0.7763
O48_3 O 0.4100(4) 0.9298(6) 0.7306(4)
C108_3 C 0.0879(4) 0.8852(6) 0.6150(5)
H102_3 H 0.1049 0.8612 0.6129
H103_3 H 0.1039 0.9139 0.5821
H104_3 H 0.0471 0.8620 0.6090
C109_3 C 0.3317(4) 0.9461(6) 0.7488(4)
C110_3 C 0.2484(4) 0.9569(6) 0.7407(5)
C114_3 C 0.2727(4) 0.9220(6) 0.7454(5)
H107_3 H 0.2492 0.8823 0.7463
C116_3 C 0.3463(5) 0.8122(7) 0.7692(5)
H108_3 H 0.3722 0.8197 0.7329
C117_3 C 0.1837(5) 0.9247(7) 0.7337(6)
O49_3 O 0.1553(5) 0.8927(8) 0.7780(5)
C118_3 C 0.2975(7) 0.7536(10) 0.7631(8)
H109_3 H 0.2769 0.7505 0.7244
H110_3 H 0.2723 0.7450 0.7991
H111_3 H 0.3113 0.7268 0.7618
C120_3 C 0.3590(5) 0.9100(7) 0.7480(5)
H135 H 0.000865189 0.965549 0.818004
Cd1_5 Cd 1.0000 0.0000 0.30435(5)
O1_5 O 1.0000 0.0000 0.4170(4)
O5_5 O 1.0000 0.0000 0.1978(5)
N5_3 N 0.6801(6) 0.1397(4) 0.5660(5)
C24_3 C 0.6392(6) 0.0399(4) 0.5768(6)
H23_3 H 0.6305 0.0096 0.6046
C25_3 C 0.6622(8) 0.0942(5) 0.5996(5)
H24_3 H 0.6652 0.0987 0.6438
C26_3 C 0.6291(7) 0.0300(5) 0.5149(7)
C27_3 C 0.6658(9) 0.1309(6) 0.5065(7)
H25_3 H 0.6711 0.1615 0.4810
C28_3 C 0.6425(9) 0.0764(5) 0.4799(8)
H26_3 H 0.6361 0.0722 0.4359
C29_3 C 0.9507(4) 0.0741(3) 0.3146(4)
N6_3 N 0.9438(4) 0.1607(3) 0.3064(3)
H27_3 H 0.9754 0.1825 0.3261
C30_3 C 0.9143(5) 0.1001(3) 0.3197(4)
H28_3 H 0.8839 0.0815 0.2876
C34_3 C 0.8203(7) 0.3797(5) 0.1697(6)
N9_3 N 0.8529(6) 0.3254(4) 0.2338(5)
H33_3 H 0.8408 0.2901 0.2237
O19_3 O 0.9298(6) 0.4100(4) 0.2694(4)
C37_3 C 0.8852(6) 0.0879(4) 0.3850(5)
H34_3 H 0.8612 0.1049 0.3871
H35_3 H 0.9139 0.1039 0.4179
H36_3 H 0.8620 0.0471 0.3910
C38_3 C 0.9461(6) 0.3317(4) 0.2512(4)
C39_3 C 0.9569(6) 0.2484(4) 0.2593(5)
C43_3 C 0.9220(6) 0.2727(4) 0.2546(5)
H39_3 H 0.8823 0.2492 0.2537
C45_3 C 0.8122(7) 0.3463(5) 0.2308(5)
H40_3 H 0.8197 0.3722 0.2671
C46_3 C 0.9247(7) 0.1837(5) 0.2663(6)
O20_3 O 0.8927(8) 0.1553(5) 0.2220(5)
C47_3 C 0.7536(10) 0.2975(7) 0.2369(8)
H41_3 H 0.7505 0.2769 0.2756
H42_3 H 0.7450 0.2723 0.2009
H43_3 H 0.7268 0.3113 0.2382
C51_3 C 0.9100(7) 0.3590(5) 0.2520(5)
Cd5_5 Cd 1.0000 -0.0000 0.69565(5)
O30_5 O 1.0000 -0.0000 0.5830(4)
O34_5 O 1.0000 -0.0000 0.8022(5)
O50_3 O 0.7304(4) 0.2084(3) 0.7139(4)
O54_3 O 0.7987(5) 0.2129(4) 0.6543(3)
C123_3 C 0.7763(6) 0.2069(4) 0.7062(5)
C124_3 C 0.8003(6) 0.1958(5) 0.7663(5)
H117_3 H 0.7926 0.2146 0.8021
N23_3 N 0.8613(5) 0.2209(4) 0.7601(4)
H118_3 H 0.8764 0.1992 0.7612
O56_3 O 0.8769(4) 0.3117(3) 0.7517(3)
C129_3 C 0.9960(6) 0.3606(4) 0.7516(4)
H123_3 H 0.9796 0.3838 0.7557
C130_3 C 0.8958(6) 0.2788(4) 0.7525(4)
C131_3 C 0.9852(6) 0.2675(4) 0.7448(4)
H124_3 H 0.9617 0.2277 0.7452
C133_3 C 0.9610(5) 0.3026(4) 0.7486(4)
C137_3 C 0.7760(8) 0.1349(6) 0.7823(8)
H130_3 H 0.7922 0.1315 0.8219
H131_3 H 0.7849 0.1161 0.7489
H132_3 H 0.7351 0.1173 0.7867
H137 H 0.965549 0.000865189 0.181996
Cd1_6 Cd 1.0000 1.0000 0.30435(5)
O1_6 O 1.0000 1.0000 0.4170(4)
O2_3 O 0.5221(3) 0.7916(3) 0.2861(4)
C1_3 C 0.9259(3) 0.8765(3) 0.3146(4)
N1_3 N 0.8393(3) 0.7830(3) 0.3064(3)
H1_3 H 0.8175 0.7928 0.3261
C2_3 C 0.8999(3) 0.8141(4) 0.3197(4)
H2_3 H 0.9185 0.8023 0.2876
O5_6 O 1.0000 1.0000 0.1978(5)
O7_3 O 0.5859(3) 0.7871(4) 0.3457(3)
C3_3 C 0.5695(4) 0.7931(4) 0.2938(5)
C4_3 C 0.6046(4) 0.8042(5) 0.2337(5)
H3_3 H 0.5781 0.7854 0.1979
N2_3 N 0.5405(4) 0.8603(4) 0.4340(5)
N3_3 N 0.6405(3) 0.7791(4) 0.2399(4)
H4_3 H 0.6773 0.8008 0.2388
C5_3 C 0.5994(5) 0.9601(4) 0.4232(6)
H5_3 H 0.6210 0.9904 0.3954
C6_3 C 0.6203(5) 0.4405(5) 0.1697(6)
C7_3 C 0.5681(6) 0.9058(5) 0.4004(5)
H6_3 H 0.5666 0.9013 0.3562
C8_3 C 0.5992(5) 0.9700(5) 0.4851(7)
O9_3 O 0.5653(3) 0.6883(3) 0.2483(3)
N4_3 N 0.6746(4) 0.5274(4) 0.2338(5)
H7_3 H 0.7099 0.5506 0.2237
O10_3 O 0.5900(4) 0.5197(4) 0.2694(4)
C9_3 C 0.9121(4) 0.7972(4) 0.3850(5)
H8_3 H 0.8951 0.7562 0.3871
H9_3 H 0.8961 0.8099 0.4179
H10_3 H 0.9529 0.8148 0.3910
C10_3 C 0.6683(4) 0.6143(4) 0.2512(4)
C11_3 C 0.7516(4) 0.7084(5) 0.2593(5)
C12_3 C 0.6355(4) 0.6394(4) 0.2484(4)
H11_3 H 0.5959 0.6162 0.2443
C13_3 C 0.6171(4) 0.7212(4) 0.2475(4)
C14_3 C 0.7178(4) 0.7325(4) 0.2552(4)
H12_3 H 0.7341 0.7723 0.2548
C15_3 C 0.7273(4) 0.6492(5) 0.2546(5)
H13_3 H 0.7508 0.6330 0.2537
C16_3 C 0.6585(3) 0.6974(4) 0.2514(4)
C17_3 C 0.6537(5) 0.4658(5) 0.2308(5)
H14_3 H 0.6278 0.4474 0.2671
C18_3 C 0.8163(5) 0.7409(5) 0.2663(6)
O11_3 O 0.8447(5) 0.7373(6) 0.2220(5)
C19_3 C 0.7025(7) 0.4560(7) 0.2369(8)
H15_3 H 0.7231 0.4735 0.2756
H16_3 H 0.7277 0.4726 0.2009
H17_3 H 0.6887 0.4154 0.2382
C20_3 C 0.5350(7) 0.8691(6) 0.4935(7)
H18_3 H 0.5097 0.8385 0.5190
C21_3 C 0.6412(6) 0.8651(6) 0.2177(8)
H19_3 H 0.6608 0.8685 0.1781
H20_3 H 0.6689 0.8839 0.2511
H21_3 H 0.6179 0.8827 0.2133
C22_3 C 0.5662(8) 0.9236(5) 0.5201(8)
H22_3 H 0.5640 0.9278 0.5641
C23_3 C 0.6410(5) 0.5509(5) 0.2520(5)
N15_3 N 0.8603(4) 0.5405(4) 0.5660(5)
C80_3 C 0.9601(4) 0.5994(5) 0.5768(6)
H75_3 H 0.9904 0.6210 0.6046
C81_3 C 0.9058(5) 0.5681(6) 0.5996(5)
H76_3 H 0.9013 0.5666 0.6438
C82_3 C 0.9700(5) 0.5992(5) 0.5149(7)
C83_3 C 0.8691(6) 0.5350(7) 0.5065(7)
H77_3 H 0.8385 0.5097 0.4810
C84_3 C 0.9236(5) 0.5662(8) 0.4799(8)
H78_3 H 0.9278 0.5640 0.4359
Cd5_6 Cd 1.0000 1.0000 0.69565(5)
O30_6 O 1.0000 1.0000 0.5830(4)
O31_3 O 0.7916(3) 0.5221(3) 0.7139(4)
C85_3 C 0.8765(3) 0.9259(3) 0.6854(4)
N16_3 N 0.7830(3) 0.8393(3) 0.6936(3)
H79_3 H 0.7928 0.8175 0.6739
C86_3 C 0.8141(4) 0.8999(3) 0.6803(4)
H80_3 H 0.8023 0.9185 0.7124
O34_6 O 1.0000 1.0000 0.8022(5)
O36_3 O 0.7871(4) 0.5859(3) 0.6543(3)
C87_3 C 0.7931(4) 0.5695(4) 0.7062(5)
C88_3 C 0.8042(5) 0.6046(4) 0.7663(5)
H81_3 H 0.7854 0.5781 0.8021
N17_3 N 0.7791(4) 0.6405(3) 0.7601(4)
H82_3 H 0.8008 0.6773 0.7612
C89_3 C 0.4405(5) 0.6203(5) 0.8303(6)
O38_3 O 0.6883(3) 0.5653(3) 0.7517(3)
N18_3 N 0.5274(4) 0.6746(4) 0.7662(5)
H83_3 H 0.5506 0.7099 0.7763
O39_3 O 0.5197(4) 0.5900(4) 0.7306(4)
C90_3 C 0.7972(4) 0.9121(4) 0.6150(5)
H84_3 H 0.7562 0.8951 0.6129
H85_3 H 0.8099 0.8961 0.5821
H86_3 H 0.8148 0.9529 0.6090
C91_3 C 0.6143(4) 0.6683(4) 0.7488(4)
C92_3 C 0.7084(5) 0.7516(4) 0.7407(5)
C93_3 C 0.6394(4) 0.6355(4) 0.7516(4)
H87_3 H 0.6162 0.5959 0.7557
C94_3 C 0.7212(4) 0.6171(4) 0.7525(4)
C95_3 C 0.7325(4) 0.7178(4) 0.7448(4)
H88_3 H 0.7723 0.7341 0.7452
C96_3 C 0.6492(5) 0.7273(4) 0.7454(5)
H89_3 H 0.6330 0.7508 0.7463
C97_3 C 0.6974(4) 0.6585(3) 0.7486(4)
C98_3 C 0.4658(5) 0.6537(5) 0.7692(5)
H90_3 H 0.4474 0.6278 0.7329
C99_3 C 0.7409(5) 0.8163(5) 0.7337(6)
O40_3 O 0.7373(6) 0.8447(5) 0.7780(5)
C100_3 C 0.4560(7) 0.7025(7) 0.7631(8)
H91_3 H 0.4735 0.7231 0.7244
H92_3 H 0.4726 0.7277 0.7991
H93_3 H 0.4154 0.6887 0.7618
C101_3 C 0.8651(6) 0.6412(6) 0.7823(8)
H94_3 H 0.8685 0.6608 0.8219
H95_3 H 0.8839 0.6689 0.7489
H96_3 H 0.8827 0.6179 0.7867
C102_3 C 0.5509(5) 0.6410(5) 0.7480(5)
H133 H 0.964783 0.999135 0.567129
H139 H 0.999135 0.964783 0.432871
H134_2 H 0.000765189 0.965549 0.567129
H139_2 H 0.965649 0.000865189 0.432871
H135_2 H 0.964683 0.999135 0.818004
H138_2 H 0.999235 0.964783 0.181996
loop_
_geom_bond_atom_site_label_1
_geom_bond_atom_site_label_2
_geom_bond_site_symmetry_1
_geom_bond_site_symmetry_2
O12 C31 1_555 1_555
O15 C34 1_555 1_555
C32 C31 1_555 1_555
H29 C32 1_555 1_555
O17 C34 1_555 1_555
N8 C32 1_555 1_555
C34 C45 1_555 1_555
O18 C41 1_555 1_555
O19 C51 1_555 1_555
C40 H37 1_555 1_555
C41 N8 1_555 1_555
C44 C40 1_555 1_555
H40 C45 1_555 1_555
C49 C32 1_555 1_555
H45 C49 1_555 1_555
H47 C49 1_555 1_555
Cd12 O15 1_555 1_555
O17 Cd12 1_555 1_555
C41 C44 1_555 1_555
O16 Cd3 1_555 1_555
N7 Cd3 1_555 1_555
C33 H31 1_555 1_555
C35 N7 1_555 1_555
H32 C35 1_555 1_555
C36 C33 1_555 1_555
C48 N7 1_555 1_555
H44 C48 1_555 1_555
C50 C36 1_555 1_555
H48 C50 1_555 1_555
C52 H49 1_555 1_555
C53 C52 1_555 1_555
H50 C53 1_555 1_555
C54 C36 1_555 1_555
C56 C54 1_555 1_555
H52 C56 1_555 1_555
O53 C125 1_555 1_555
O55 C125 1_555 1_555
C125 C134 1_555 1_555
N24 H119 1_555 1_555
O57 C138 1_555 1_555
C127 C129 1_555 1_555
C129 H123 1_555 1_555
C132 C127 1_555 1_555
H125 C132 1_555 1_555
C134 N24 1_555 1_555
H126 C134 1_555 1_555
C136 C134 1_555 1_555
H127 C136 1_555 1_555
H128 C136 1_555 1_555
H129 C136 1_555 1_555
C138 N24 1_555 1_555
Cd16 O53 1_555 1_555
O59 Cd3 1_555 1_555
O66 Cd3 1_555 1_555
O76 Cd3 1_555 1_555
O82 Cd3 1_555 1_555
C33 C35 1_555 1_555
C48 C50 1_555 1_555
C52 C54 1_555 1_555
C55 C56 1_555 1_555
O55 Cd16 1_555 1_555
C127 C138 1_555 1_555
C1 O3 1_555 1_555
O3 Cd1 1_555 1_555
N1 H1 1_555 1_555
O4 Cd1 1_555 1_555
C2 C1 1_555 1_555
H2 C2 1_555 1_555
O5 Cd1 1_555 1_555
N4 H7 1_555 1_555
C11 C14 1_555 1_555
C14 H12 1_555 1_555
C15 C10 1_555 1_555
H13 C15 1_555 1_555
C18 N1 1_555 1_555
O11 C18 1_555 1_555
H15 C19 1_555 1_555
H16 C19 1_555 1_555
H17 C19 1_555 1_555
C29 O13 1_555 1_555
O13 Cd1 1_555 1_555
N6 H27 1_555 1_555
O14 Cd1 1_555 1_555
C30 C29 1_555 1_555
H28 C30 1_555 1_555
N9 H33 1_555 1_555
C39 C42 1_555 1_555
C42 H38 1_555 1_555
C43 C38 1_555 1_555
H39 C43 1_555 1_555
C46 N6 1_555 1_555
O20 C46 1_555 1_555
H41 C47 1_555 1_555
H42 C47 1_555 1_555
H43 C47 1_555 1_555
O21 C59 1_555 1_555
C57 O22 1_555 1_555
O22 Cd1 1_555 1_555
N11 H53 1_555 1_555
O23 Cd1 1_555 1_555
C58 C57 1_555 1_555
H54 C58 1_555 1_555
O24 C62 1_555 1_555
C60 C59 1_555 1_555
H55 C60 1_555 1_555
O26 C62 1_555 1_555
N13 C60 1_555 1_555
H56 N13 1_555 1_555
C62 C73 1_555 1_555
O27 C69 1_555 1_555
N14 H59 1_555 1_555
O28 C79 1_555 1_555
C66 C68 1_555 1_555
C67 C70 1_555 1_555
C68 H63 1_555 1_555
C69 N13 1_555 1_555
C70 H64 1_555 1_555
C71 C66 1_555 1_555
H65 C71 1_555 1_555
C72 C68 1_555 1_555
C73 N14 1_555 1_555
H66 C73 1_555 1_555
C74 N11 1_555 1_555
O29 C74 1_555 1_555
C75 C73 1_555 1_555
H67 C75 1_555 1_555
H68 C75 1_555 1_555
H69 C75 1_555 1_555
C77 C60 1_555 1_555
H71 C77 1_555 1_555
H72 C77 1_555 1_555
H73 C77 1_555 1_555
C79 N14 1_555 1_555
Cd9 O13 1_555 1_555
Cd10 O3 1_555 1_555
Cd11 O4 1_555 1_555
Cd13 O24 1_555 1_555
C1 O4 1_555 1_555
N1 C2 1_555 1_555
C11 C15 1_555 1_555
C11 C18 1_555 1_555
C29 O14 1_555 1_555
N6 C30 1_555 1_555
O14 Cd10 1_555 1_555
C39 C43 1_555 1_555
C39 C46 1_555 1_555
C57 O23 1_555 1_555
O22 Cd11 1_555 1_555
N11 C58 1_555 1_555
O23 Cd9 1_555 1_555
O26 Cd13 1_555 1_555
C66 C79 1_555 1_555
C67 C71 1_555 1_555
C67 C74 1_555 1_555
C69 C72 1_555 1_555
C70 C72 1_555 1_555
H8 C9 1_555 1_555
H9 C9 1_555 1_555
H10 C9 1_555 1_555
H34 C37 1_555 1_555
H35 C37 1_555 1_555
H36 C37 1_555 1_555
O25 Cd4 1_555 1_555
N12 Cd4 1_555 1_555
C61 H57 1_555 1_555
C63 N12 1_555 1_555
H58 C63 1_555 1_555
C64 C61 1_555 1_555
H60 C65 1_555 1_555
H61 C65 1_555 1_555
H62 C65 1_555 1_555
C76 N12 1_555 1_555
H70 C76 1_555 1_555
C78 C64 1_555 1_555
H74 C78 1_555 1_555
N15 C81 1_555 1_555
C80 H75 1_555 1_555
C81 C80 1_555 1_555
H76 C81 1_555 1_555
C82 C64 1_555 1_555
C83 N15 1_555 1_555
H77 C83 1_555 1_555
C84 C82 1_555 1_555
H78 C84 1_555 1_555
Cd5 O30 1_555 1_555
Cd6 N15 1_555 1_555
O31 Cd6 1_555 1_555
C85 O32 1_555 1_555
O32 Cd5 1_555 1_555
N16 H79 1_555 1_555
O33 Cd5 1_555 1_555
C86 C85 1_555 1_555
H80 C86 1_555 1_555
O34 Cd5 1_555 1_555
O36 Cd6 1_555 1_555
C87 O31 1_555 1_555
C88 C87 1_555 1_555
H81 C88 1_555 1_555
N17 C88 1_555 1_555
H82 N17 1_555 1_555
O38 C94 1_555 1_555
C90 C86 1_555 1_555
H84 C90 1_555 1_555
H85 C90 1_555 1_555
H86 C90 1_555 1_555
C92 C95 1_555 1_555
C94 N17 1_555 1_555
C95 H88 1_555 1_555
C99 N16 1_555 1_555
O40 C99 1_555 1_555
C101 C88 1_555 1_555
H94 C101 1_555 1_555
H95 C101 1_555 1_555
H96 C101 1_555 1_555
Cd7 N10 1_555 1_555
O41 Cd7 1_555 1_555
C103 O42 1_555 1_555
O42 Cd5 1_555 1_555
N19 H97 1_555 1_555
O43 Cd5 1_555 1_555
C104 C103 1_555 1_555
H98 C104 1_555 1_555
O44 C107 1_555 1_555
O45 Cd7 1_555 1_555
C105 O41 1_555 1_555
C106 C105 1_555 1_555
H99 C106 1_555 1_555
O46 C107 1_555 1_555
N20 C106 1_555 1_555
H100 N20 1_555 1_555
C107 C116 1_555 1_555
O47 C112 1_555 1_555
N21 H101 1_555 1_555
O48 C120 1_555 1_555
C108 C104 1_555 1_555
H102 C108 1_555 1_555
H103 C108 1_555 1_555
H104 C108 1_555 1_555
C109 C111 1_555 1_555
C110 C113 1_555 1_555
C111 H105 1_555 1_555
C112 N20 1_555 1_555
C113 H106 1_555 1_555
C114 C109 1_555 1_555
H107 C114 1_555 1_555
C115 C111 1_555 1_555
C116 N21 1_555 1_555
H108 C116 1_555 1_555
C117 N19 1_555 1_555
O49 C117 1_555 1_555
C118 C116 1_555 1_555
H109 C118 1_555 1_555
H110 C118 1_555 1_555
H111 C118 1_555 1_555
C119 C106 1_555 1_555
H112 C119 1_555 1_555
H113 C119 1_555 1_555
H114 C119 1_555 1_555
C120 N21 1_555 1_555
Cd8 N5 1_555 1_555
O50 Cd8 1_555 1_555
C121 O51 1_555 1_555
O51 Cd5 1_555 1_555
N22 H115 1_555 1_555
O52 Cd5 1_555 1_555
C122 C121 1_555 1_555
H116 C122 1_555 1_555
O54 Cd8 1_555 1_555
C123 O50 1_555 1_555
C124 C123 1_555 1_555
H117 C124 1_555 1_555
N23 C124 1_555 1_555
H118 N23 1_555 1_555
O56 C130 1_555 1_555
C126 C122 1_555 1_555
H120 C126 1_555 1_555
H121 C126 1_555 1_555
H122 C126 1_555 1_555
C128 C131 1_555 1_555
C130 N23 1_555 1_555
C131 H124 1_555 1_555
C135 N22 1_555 1_555
O58 C135 1_555 1_555
C137 C124 1_555 1_555
H130 C137 1_555 1_555
H131 C137 1_555 1_555
H132 C137 1_555 1_555
Cd15 O44 1_555 1_555
Cd18 O42 1_555 1_555
Cd19 O32 1_555 1_555
Cd20 O33 1_555 1_555
O61 Cd4 1_555 1_555
O62 Cd7 1_555 1_555
O63 Cd6 1_555 1_555
O64 Cd8 1_555 1_555
O65 Cd4 1_555 1_555
O70 Cd6 1_555 1_555
O71 Cd8 1_555 1_555
O72 Cd6 1_555 1_555
O73 Cd7 1_555 1_555
O74 Cd4 1_555 1_555
O77 Cd8 1_555 1_555
O78 Cd6 1_555 1_555
O79 Cd7 1_555 1_555
O80 Cd4 1_555 1_555
C61 C63 1_555 1_555
C76 C78 1_555 1_555
C80 C82 1_555 1_555
C83 C84 1_555 1_555
C85 O33 1_555 1_555
N16 C86 1_555 1_555
O36 C87 1_555 1_555
C92 C99 1_555 1_555
C94 C97 1_555 1_555
C95 C97 1_555 1_555
C103 O43 1_555 1_555
N19 C104 1_555 1_555
O43 Cd19 1_555 1_555
O45 C105 1_555 1_555
O46 Cd15 1_555 1_555
C109 C120 1_555 1_555
C110 C114 1_555 1_555
C110 C117 1_555 1_555
C112 C115 1_555 1_555
C113 C115 1_555 1_555
C121 O52 1_555 1_555
O51 Cd20 1_555 1_555
N22 C122 1_555 1_555
O52 Cd18 1_555 1_555
O54 C123 1_555 1_555
C128 C135 1_555 1_555
C130 C133 1_555 1_555
C131 C133 1_555 1_555
O2 C3 1_555 1_555
O6 C6 1_555 1_555
C4 C3 1_555 1_555
H3 C4 1_555 1_555
O8 C6 1_555 1_555
N3 C4 1_555 1_555
C6 C17 1_555 1_555
O9 C13 1_555 1_555
O10 C23 1_555 1_555
C12 H11 1_555 1_555
C13 N3 1_555 1_555
C16 C12 1_555 1_555
H14 C17 1_555 1_555
C21 C4 1_555 1_555
H19 C21 1_555 1_555
H21 C21 1_555 1_555
Cd14 O6 1_555 1_555
O8 Cd14 1_555 1_555
C13 C16 1_555 1_555
O7 Cd2 1_555 1_555
N2 Cd2 1_555 1_555
C5 H5 1_555 1_555
C7 N2 1_555 1_555
H6 C7 1_555 1_555
C8 C5 1_555 1_555
C20 N2 1_555 1_555
H18 C20 1_555 1_555
C22 C8 1_555 1_555
H22 C22 1_555 1_555
C24 H23 1_555 1_555
C25 C24 1_555 1_555
H24 C25 1_555 1_555
C26 C8 1_555 1_555
C28 C26 1_555 1_555
H26 C28 1_555 1_555
O35 C89 1_555 1_555
O37 C89 1_555 1_555
C89 C98 1_555 1_555
N18 H83 1_555 1_555
O39 C102 1_555 1_555
C91 C93 1_555 1_555
C93 H87 1_555 1_555
C96 C91 1_555 1_555
H89 C96 1_555 1_555
C98 N18 1_555 1_555
H90 C98 1_555 1_555
C100 C98 1_555 1_555
H91 C100 1_555 1_555
H92 C100 1_555 1_555
H93 C100 1_555 1_555
C102 N18 1_555 1_555
Cd17 O35 1_555 1_555
O60 Cd2 1_555 1_555
O67 Cd2 1_555 1_555
O75 Cd2 1_555 1_555
O81 Cd2 1_555 1_555
C5 C7 1_555 1_555
C20 C22 1_555 1_555
C24 C26 1_555 1_555
C27 C28 1_555 1_555
O37 Cd17 1_555 1_555
C91 C102 1_555 1_555
O16_2 Cd10 1_555 1_555
N7_2 Cd10 1_555 1_555
C33_2 H31_2 1_555 1_555
C35_2 N7_2 1_555 1_555
H32_2 C35_2 1_555 1_555
C36_2 C33_2 1_555 1_555
C48_2 N7_2 1_555 1_555
H44_2 C48_2 1_555 1_555
C50_2 C36_2 1_555 1_555
H48_2 C50_2 1_555 1_555
C52_2 H49_2 1_555 1_555
C53_2 C52_2 1_555 1_555
H50_2 C53_2 1_555 1_555
C54_2 C36_2 1_555 1_555
C56_2 C54_2 1_555 1_555
H52_2 C56_2 1_555 1_555
O53_2 C125_2 1_555 1_555
O55_2 C125_2 1_555 1_555
C125_2 C134_2 1_555 1_555
N24_2 H119_2 1_555 1_555
O57_2 C138_2 1_555 1_555
C127_2 C129_2 1_555 1_555
C129_2 H123_2 1_555 1_555
C132_2 C127_2 1_555 1_555
H125_2 C132_2 1_555 1_555
C134_2 N24_2 1_555 1_555
H126_2 C134_2 1_555 1_555
C136_2 C134_2 1_555 1_555
H127_2 C136_2 1_555 1_555
H128_2 C136_2 1_555 1_555
H129_2 C136_2 1_555 1_555
C138_2 N24_2 1_555 1_555
Cd19 O53_2 1_555 1_555
O76_2 Cd10 1_555 1_555
O82_2 Cd10 1_555 1_555
C33_2 C35_2 1_555 1_555
C48_2 C50_2 1_555 1_555
C52_2 C54_2 1_555 1_555
C55_2 C56_2 1_555 1_555
O55_2 Cd19 1_555 1_555
C127_2 C138_2 1_555 1_555
O12_2 C31_2 1_555 1_555
O72 C34_2 1_555 1_555
C32_2 C31_2 1_555 1_555
H29_2 C32_2 1_555 1_555
O78 C34_2 1_555 1_555
N8_2 C32_2 1_555 1_555
C34_2 C45_2 1_555 1_555
O18_2 C41_2 1_555 1_555
O19_2 C51_2 1_555 1_555
C40_2 H37_2 1_555 1_555
C41_2 N8_2 1_555 1_555
C44_2 C40_2 1_555 1_555
H40_2 C45_2 1_555 1_555
C49_2 C32_2 1_555 1_555
H45_2 C49_2 1_555 1_555
H47_2 C49_2 1_555 1_555
C41_2 C44_2 1_555 1_555
H8_2 C9_2 1_555 1_555
H9_2 C9_2 1_555 1_555
H10_2 C9_2 1_555 1_555
H34_2 C37_2 1_555 1_555
H35_2 C37_2 1_555 1_555
H36_2 C37_2 1_555 1_555
O25_2 Cd11 1_555 1_555
N12_2 Cd11 1_555 1_555
C61_2 H57_2 1_555 1_555
C63_2 N12_2 1_555 1_555
H58_2 C63_2 1_555 1_555
C64_2 C61_2 1_555 1_555
H60_2 C65_2 1_555 1_555
H61_2 C65_2 1_555 1_555
H62_2 C65_2 1_555 1_555
C76_2 N12_2 1_555 1_555
H70_2 C76_2 1_555 1_555
C78_2 C64_2 1_555 1_555
H74_2 C78_2 1_555 1_555
N15_2 C81_2 1_555 1_555
C80_2 H75_2 1_555 1_555
C81_2 C80_2 1_555 1_555
H76_2 C81_2 1_555 1_555
C82_2 C64_2 1_555 1_555
C83_2 N15_2 1_555 1_555
H77_2 C83_2 1_555 1_555
C84_2 C82_2 1_555 1_555
H78_2 C84_2 1_555 1_555
Cd5_2 O30_2 1_555 1_555
Cd12 N15_2 1_555 1_555
O31_2 Cd12 1_555 1_555
C85_2 O32_2 1_555 1_555
O32_2 Cd5_2 1_555 1_555
N16_2 H79_2 1_555 1_555
O33_2 Cd5_2 1_555 1_555
C86_2 C85_2 1_555 1_555
H80_2 C86_2 1_555 1_555
O34_2 Cd5_2 1_555 1_555
O36_2 Cd12 1_555 1_555
C87_2 O31_2 1_555 1_555
C88_2 C87_2 1_555 1_555
H81_2 C88_2 1_555 1_555
N17_2 C88_2 1_555 1_555
H82_2 N17_2 1_555 1_555
O38_2 C94_2 1_555 1_555
C90_2 C86_2 1_555 1_555
H84_2 C90_2 1_555 1_555
H85_2 C90_2 1_555 1_555
H86_2 C90_2 1_555 1_555
C92_2 C95_2 1_555 1_555
C94_2 N17_2 1_555 1_555
C95_2 H88_2 1_555 1_555
C99_2 N16_2 1_555 1_555
O40_2 C99_2 1_555 1_555
C101_2 C88_2 1_555 1_555
H94_2 C101_2 1_555 1_555
H95_2 C101_2 1_555 1_555
H96_2 C101_2 1_555 1_555
Cd13 N10_2 1_555 1_555
O41_2 Cd13 1_555 1_555
C103_2 O42_2 1_555 1_555
O42_2 Cd5_2 1_555 1_555
N19_2 H97_2 1_555 1_555
O43_2 Cd5_2 1_555 1_555
C104_2 C103_2 1_555 1_555
H98_2 C104_2 1_555 1_555
O44_2 C107_2 1_555 1_555
O45_2 Cd13 1_555 1_555
C105_2 O41_2 1_555 1_555
C106_2 C105_2 1_555 1_555
H99_2 C106_2 1_555 1_555
O46_2 C107_2 1_555 1_555
N20_2 C106_2 1_555 1_555
H100_2 N20_2 1_555 1_555
C107_2 C116_2 1_555 1_555
O47_2 C112_2 1_555 1_555
N21_2 H101_2 1_555 1_555
O48_2 C120_2 1_555 1_555
C108_2 C104_2 1_555 1_555
H102_2 C108_2 1_555 1_555
H103_2 C108_2 1_555 1_555
H104_2 C108_2 1_555 1_555
C109_2 C111_2 1_555 1_555
C110_2 C113_2 1_555 1_555
C111_2 H105_2 1_555 1_555
C112_2 N20_2 1_555 1_555
C113_2 H106_2 1_555 1_555
C114_2 C109_2 1_555 1_555
H107_2 C114_2 1_555 1_555
C115_2 C111_2 1_555 1_555
C116_2 N21_2 1_555 1_555
H108_2 C116_2 1_555 1_555
C117_2 N19_2 1_555 1_555
O49_2 C117_2 1_555 1_555
C118_2 C116_2 1_555 1_555
H109_2 C118_2 1_555 1_555
H110_2 C118_2 1_555 1_555
H111_2 C118_2 1_555 1_555
C119_2 C106_2 1_555 1_555
H112_2 C119_2 1_555 1_555
H113_2 C119_2 1_555 1_555
H114_2 C119_2 1_555 1_555
C120_2 N21_2 1_555 1_555
Cd14 N5_2 1_555 1_555
O50_2 Cd14 1_555 1_555
C121_2 O51_2 1_555 1_555
O51_2 Cd5_2 1_555 1_555
N22_2 H115_2 1_555 1_555
O52_2 Cd5_2 1_555 1_555
C122_2 C121_2 1_555 1_555
H116_2 C122_2 1_555 1_555
O54_2 Cd14 1_555 1_555
C123_2 O50_2 1_555 1_555
C124_2 C123_2 1_555 1_555
H117_2 C124_2 1_555 1_555
N23_2 C124_2 1_555 1_555
H118_2 N23_2 1_555 1_555
O56_2 C130_2 1_555 1_555
C126_2 C122_2 1_555 1_555
H120_2 C126_2 1_555 1_555
H121_2 C126_2 1_555 1_555
H122_2 C126_2 1_555 1_555
C128_2 C131_2 1_555 1_555
C130_2 N23_2 1_555 1_555
C131_2 H124_2 1_555 1_555
C135_2 N22_2 1_555 1_555
O58_2 C135_2 1_555 1_555
C137_2 C124_2 1_555 1_555
H130_2 C137_2 1_555 1_555
H131_2 C137_2 1_555 1_555
H132_2 C137_2 1_555 1_555
Cd18 O44_2 1_555 1_555
Cd15 O42_2 1_555 1_555
Cd16 O32_2 1_555 1_555
Cd17 O33_2 1_555 1_555
O62_2 Cd13 1_555 1_555
O63_2 Cd12 1_555 1_555
O64_2 Cd14 1_555 1_555
O70_2 Cd12 1_555 1_555
O74_2 Cd11 1_555 1_555
O80_2 Cd11 1_555 1_555
C61_2 C63_2 1_555 1_555
C76_2 C78_2 1_555 1_555
C80_2 C82_2 1_555 1_555
C83_2 C84_2 1_555 1_555
C85_2 O33_2 1_555 1_555
N16_2 C86_2 1_555 1_555
O36_2 C87_2 1_555 1_555
C92_2 C99_2 1_555 1_555
C94_2 C97_2 1_555 1_555
C95_2 C97_2 1_555 1_555
C103_2 O43_2 1_555 1_555
N19_2 C104_2 1_555 1_555
O43_2 Cd16 1_555 1_555
O45_2 C105_2 1_555 1_555
O46_2 Cd18 1_555 1_555
C109_2 C120_2 1_555 1_555
C110_2 C114_2 1_555 1_555
C110_2 C117_2 1_555 1_555
C112_2 C115_2 1_555 1_555
C113_2 C115_2 1_555 1_555
C121_2 O52_2 1_555 1_555
O51_2 Cd17 1_555 1_555
N22_2 C122_2 1_555 1_555
O52_2 Cd15 1_555 1_555
O54_2 C123_2 1_555 1_555
C128_2 C135_2 1_555 1_555
C130_2 C133_2 1_555 1_555
C131_2 C133_2 1_555 1_555
C1_2 O59 1_555 1_555
O59 Cd1_2 1_555 1_555
N1_2 H1_2 1_555 1_555
O65 Cd1_2 1_555 1_555
C2_2 C1_2 1_555 1_555
H2_2 C2_2 1_555 1_555
O5_2 Cd1_2 1_555 1_555
N4_2 H7_2 1_555 1_555
C11_2 C14_2 1_555 1_555
C14_2 H12_2 1_555 1_555
C15_2 C10_2 1_555 1_555
H13_2 C15_2 1_555 1_555
C18_2 N1_2 1_555 1_555
O11_2 C18_2 1_555 1_555
H15_2 C19_2 1_555 1_555
H16_2 C19_2 1_555 1_555
H17_2 C19_2 1_555 1_555
C29_2 O60 1_555 1_555
O60 Cd1_2 1_555 1_555
N6_2 H27_2 1_555 1_555
O66 Cd1_2 1_555 1_555
C30_2 C29_2 1_555 1_555
H28_2 C30_2 1_555 1_555
N9_2 H33_2 1_555 1_555
C39_2 C42_2 1_555 1_555
C42_2 H38_2 1_555 1_555
C43_2 C38_2 1_555 1_555
H39_2 C43_2 1_555 1_555
C46_2 N6_2 1_555 1_555
O20_2 C46_2 1_555 1_555
H41_2 C47_2 1_555 1_555
H42_2 C47_2 1_555 1_555
H43_2 C47_2 1_555 1_555
O21_2 C59_2 1_555 1_555
C57_2 O61 1_555 1_555
O61 Cd1_2 1_555 1_555
N11_2 H53_2 1_555 1_555
O67 Cd1_2 1_555 1_555
C58_2 C57_2 1_555 1_555
H54_2 C58_2 1_555 1_555
O73 C62_2 1_555 1_555
C60_2 C59_2 1_555 1_555
H55_2 C60_2 1_555 1_555
O79 C62_2 1_555 1_555
N13_2 C60_2 1_555 1_555
H56_2 N13_2 1_555 1_555
C62_2 C73_2 1_555 1_555
O27_2 C69_2 1_555 1_555
N14_2 H59_2 1_555 1_555
O28_2 C79_2 1_555 1_555
C66_2 C68_2 1_555 1_555
C67_2 C70_2 1_555 1_555
C68_2 H63_2 1_555 1_555
C69_2 N13_2 1_555 1_555
C70_2 H64_2 1_555 1_555
C71_2 C66_2 1_555 1_555
H65_2 C71_2 1_555 1_555
C72_2 C68_2 1_555 1_555
C73_2 N14_2 1_555 1_555
H66_2 C73_2 1_555 1_555
C74_2 N11_2 1_555 1_555
O29_2 C74_2 1_555 1_555
C75_2 C73_2 1_555 1_555
H67_2 C75_2 1_555 1_555
H68_2 C75_2 1_555 1_555
H69_2 C75_2 1_555 1_555
C77_2 C60_2 1_555 1_555
H71_2 C77_2 1_555 1_555
H72_2 C77_2 1_555 1_555
H73_2 C77_2 1_555 1_555
C79_2 N14_2 1_555 1_555
C1_2 O65 1_555 1_555
N1_2 C2_2 1_555 1_555
C11_2 C15_2 1_555 1_555
C11_2 C18_2 1_555 1_555
C29_2 O66 1_555 1_555
N6_2 C30_2 1_555 1_555
C39_2 C43_2 1_555 1_555
C39_2 C46_2 1_555 1_555
C57_2 O67 1_555 1_555
N11_2 C58_2 1_555 1_555
C66_2 C79_2 1_555 1_555
C67_2 C71_2 1_555 1_555
C67_2 C74_2 1_555 1_555
C69_2 C72_2 1_555 1_555
C70_2 C72_2 1_555 1_555
O7_2 Cd9 1_555 1_555
N2_2 Cd9 1_555 1_555
C5_2 H5_2 1_555 1_555
C7_2 N2_2 1_555 1_555
H6_2 C7_2 1_555 1_555
C8_2 C5_2 1_555 1_555
C20_2 N2_2 1_555 1_555
H18_2 C20_2 1_555 1_555
C22_2 C8_2 1_555 1_555
H22_2 C22_2 1_555 1_555
C24_2 H23_2 1_555 1_555
C25_2 C24_2 1_555 1_555
H24_2 C25_2 1_555 1_555
C26_2 C8_2 1_555 1_555
C28_2 C26_2 1_555 1_555
H26_2 C28_2 1_555 1_555
O35_2 C89_2 1_555 1_555
O37_2 C89_2 1_555 1_555
C89_2 C98_2 1_555 1_555
N18_2 H83_2 1_555 1_555
O39_2 C102_2 1_555 1_555
C91_2 C93_2 1_555 1_555
C93_2 H87_2 1_555 1_555
C96_2 C91_2 1_555 1_555
H89_2 C96_2 1_555 1_555
C98_2 N18_2 1_555 1_555
H90_2 C98_2 1_555 1_555
C100_2 C98_2 1_555 1_555
H91_2 C100_2 1_555 1_555
H92_2 C100_2 1_555 1_555
H93_2 C100_2 1_555 1_555
C102_2 N18_2 1_555 1_555
Cd20 O35_2 1_555 1_555
O75_2 Cd9 1_555 1_555
O81_2 Cd9 1_555 1_555
C5_2 C7_2 1_555 1_555
C20_2 C22_2 1_555 1_555
C24_2 C26_2 1_555 1_555
C27_2 C28_2 1_555 1_555
O37_2 Cd20 1_555 1_555
C91_2 C102_2 1_555 1_555
O2_2 C3_2 1_555 1_555
O71 C6_2 1_555 1_555
C4_2 C3_2 1_555 1_555
H3_2 C4_2 1_555 1_555
O77 C6_2 1_555 1_555
N3_2 C4_2 1_555 1_555
C6_2 C17_2 1_555 1_555
O9_2 C13_2 1_555 1_555
O10_2 C23_2 1_555 1_555
C12_2 H11_2 1_555 1_555
C13_2 N3_2 1_555 1_555
C16_2 C12_2 1_555 1_555
H14_2 C17_2 1_555 1_555
C21_2 C4_2 1_555 1_555
H19_2 C21_2 1_555 1_555
H21_2 C21_2 1_555 1_555
C13_2 C16_2 1_555 1_555
Cd1_3 O1_3 1_555 1_555
O5_3 Cd1_3 1_555 1_555
Cd16 O12_3 1_555 1_555
O12_3 C31_3 1_555 1_555
O63_2 Cd1_3 1_555 1_555
O16_3 Cd16 1_555 1_555
C31_3 O16_3 1_555 1_555
C32_3 C31_3 1_555 1_555
H29_3 C32_3 1_555 1_555
N7_3 Cd16 1_555 1_555
N8_3 C32_3 1_555 1_555
H30_3 N8_3 1_555 1_555
C33_3 H31_3 1_555 1_555
C35_3 N7_3 1_555 1_555
H32_3 C35_3 1_555 1_555
C36_3 C33_3 1_555 1_555
O18_3 C41_3 1_555 1_555
C40_3 H37_3 1_555 1_555
C41_3 N8_3 1_555 1_555
C42_3 H38_3 1_555 1_555
C44_3 C40_3 1_555 1_555
C48_3 N7_3 1_555 1_555
H44_3 C48_3 1_555 1_555
C49_3 C32_3 1_555 1_555
H45_3 C49_3 1_555 1_555
H46_3 C49_3 1_555 1_555
H47_3 C49_3 1_555 1_555
C50_3 C36_3 1_555 1_555
H48_3 C50_3 1_555 1_555
N10_3 C53_3 1_555 1_555
C52_3 H49_3 1_555 1_555
C53_3 C52_3 1_555 1_555
H50_3 C53_3 1_555 1_555
C54_3 C36_3 1_555 1_555
C55_3 N10_3 1_555 1_555
H51_3 C55_3 1_555 1_555
C56_3 C54_3 1_555 1_555
H52_3 C56_3 1_555 1_555
N11_3 H53_3 1_555 1_555
O70_2 Cd1_3 1_555 1_555
C58_3 C57_3 1_555 1_555
H54_3 C58_3 1_555 1_555
O76_2 C62_3 1_555 1_555
O82_2 C62_3 1_555 1_555
C62_3 C73_3 1_555 1_555
N14_3 H59_3 1_555 1_555
O28_3 C79_3 1_555 1_555
C65_3 C58_3 1_555 1_555
H60_3 C65_3 1_555 1_555
H61_3 C65_3 1_555 1_555
H62_3 C65_3 1_555 1_555
C71_3 C66_3 1_555 1_555
H65_3 C71_3 1_555 1_555
C73_3 N14_3 1_555 1_555
H66_3 C73_3 1_555 1_555
C74_3 N11_3 1_555 1_555
O29_3 C74_3 1_555 1_555
C75_3 C73_3 1_555 1_555
H67_3 C75_3 1_555 1_555
H68_3 C75_3 1_555 1_555
H69_3 C75_3 1_555 1_555
C79_3 N14_3 1_555 1_555
Cd5_3 O30_3 1_555 1_555
O34_3 Cd5_3 1_555 1_555
Cd19 N10_3 1_555 1_555
O41_3 Cd19 1_555 1_555
O63 Cd5_3 1_555 1_555
O45_3 Cd19 1_555 1_555
C105_3 O41_3 1_555 1_555
C106_3 C105_3 1_555 1_555
H99_3 C106_3 1_555 1_555
N20_3 C106_3 1_555 1_555
H100_3 N20_3 1_555 1_555
O47_3 C112_3 1_555 1_555
C111_3 H105_3 1_555 1_555
C112_3 N20_3 1_555 1_555
C113_3 H106_3 1_555 1_555
C115_3 C111_3 1_555 1_555
C119_3 C106_3 1_555 1_555
H112_3 C119_3 1_555 1_555
H113_3 C119_3 1_555 1_555
H114_3 C119_3 1_555 1_555
N22_3 H115_3 1_555 1_555
O70 Cd5_3 1_555 1_555
C122_3 C121_3 1_555 1_555
H116_3 C122_3 1_555 1_555
O76 C125_3 1_555 1_555
O82 C125_3 1_555 1_555
C125_3 C134_3 1_555 1_555
N24_3 H119_3 1_555 1_555
O57_3 C138_3 1_555 1_555
C126_3 C122_3 1_555 1_555
H120_3 C126_3 1_555 1_555
H121_3 C126_3 1_555 1_555
H122_3 C126_3 1_555 1_555
C132_3 C127_3 1_555 1_555
H125_3 C132_3 1_555 1_555
C134_3 N24_3 1_555 1_555
H126_3 C134_3 1_555 1_555
C135_3 N22_3 1_555 1_555
O58_3 C135_3 1_555 1_555
C136_3 C134_3 1_555 1_555
H127_3 C136_3 1_555 1_555
H128_3 C136_3 1_555 1_555
H129_3 C136_3 1_555 1_555
C138_3 N24_3 1_555 1_555
C33_3 C35_3 1_555 1_555
C41_3 C44_3 1_555 1_555
C42_3 C44_3 1_555 1_555
C48_3 C50_3 1_555 1_555
C52_3 C54_3 1_555 1_555
C55_3 C56_3 1_555 1_555
C57_3 O70_2 1_555 1_555
N11_3 C58_3 1_555 1_555
C66_3 C79_3 1_555 1_555
C67_3 C71_3 1_555 1_555
C67_3 C74_3 1_555 1_555
O45_3 C105_3 1_555 1_555
C112_3 C115_3 1_555 1_555
C113_3 C115_3 1_555 1_555
C121_3 O70 1_555 1_555
N22_3 C122_3 1_555 1_555
C127_3 C138_3 1_555 1_555
C128_3 C132_3 1_555 1_555
C128_3 C135_3 1_555 1_555
O30_3 H134 1_555 1_555
O34_3 H136 1_555 1_555
O5_3 H138 1_555 1_555
O1_3 H140 1_555 1_555
Cd1_4 O1_4 1_555 1_555
O5_4 Cd1_4 1_555 1_555
Cd17 O21_3 1_555 1_555
O21_3 C59_3 1_555 1_555
O64_2 Cd1_4 1_555 1_555
O25_3 Cd17 1_555 1_555
C59_3 O25_3 1_555 1_555
C60_3 C59_3 1_555 1_555
H55_3 C60_3 1_555 1_555
N12_3 Cd17 1_555 1_555
N13_3 C60_3 1_555 1_555
H56_3 N13_3 1_555 1_555
C61_3 H57_3 1_555 1_555
C63_3 N12_3 1_555 1_555
H58_3 C63_3 1_555 1_555
C64_3 C61_3 1_555 1_555
O27_3 C69_3 1_555 1_555
C68_3 H63_3 1_555 1_555
C69_3 N13_3 1_555 1_555
C70_3 H64_3 1_555 1_555
C72_3 C68_3 1_555 1_555
C76_3 N12_3 1_555 1_555
H70_3 C76_3 1_555 1_555
C77_3 C60_3 1_555 1_555
H71_3 C77_3 1_555 1_555
H72_3 C77_3 1_555 1_555
H73_3 C77_3 1_555 1_555
C78_3 C64_3 1_555 1_555
H74_3 C78_3 1_555 1_555
Cd5_4 O30_4 1_555 1_555
O34_4 Cd5_4 1_555 1_555
N19_3 H97_3 1_555 1_555
O69 Cd5_4 1_555 1_555
C104_3 C103_3 1_555 1_555
H98_3 C104_3 1_555 1_555
O75 C107_3 1_555 1_555
O81 C107_3 1_555 1_555
C107_3 C116_3 1_555 1_555
N21_3 H101_3 1_555 1_555
O48_3 C120_3 1_555 1_555
C108_3 C104_3 1_555 1_555
H102_3 C108_3 1_555 1_555
H103_3 C108_3 1_555 1_555
H104_3 C108_3 1_555 1_555
C114_3 C109_3 1_555 1_555
H107_3 C114_3 1_555 1_555
C116_3 N21_3 1_555 1_555
H108_3 C116_3 1_555 1_555
C117_3 N19_3 1_555 1_555
O49_3 C117_3 1_555 1_555
C118_3 C116_3 1_555 1_555
H109_3 C118_3 1_555 1_555
H110_3 C118_3 1_555 1_555
H111_3 C118_3 1_555 1_555
C120_3 N21_3 1_555 1_555
C61_3 C63_3 1_555 1_555
C69_3 C72_3 1_555 1_555
C70_3 C72_3 1_555 1_555
C76_3 C78_3 1_555 1_555
C103_3 O69 1_555 1_555
N19_3 C104_3 1_555 1_555
C109_3 C120_3 1_555 1_555
C110_3 C114_3 1_555 1_555
C110_3 C117_3 1_555 1_555
O34_4 H135 1_555 1_555
Cd1_5 O1_5 1_555 1_555
O5_5 Cd1_5 1_555 1_555
N5_3 C25_3 1_555 1_555
C24_3 H23_3 1_555 1_555
C25_3 C24_3 1_555 1_555
H24_3 C25_3 1_555 1_555
C27_3 N5_3 1_555 1_555
H25_3 C27_3 1_555 1_555
C28_3 C26_3 1_555 1_555
H26_3 C28_3 1_555 1_555
N6_3 H27_3 1_555 1_555
O69_2 Cd1_5 1_555 1_555
C30_3 C29_3 1_555 1_555
H28_3 C30_3 1_555 1_555
O75_2 C34_3 1_555 1_555
O81_2 C34_3 1_555 1_555
C34_3 C45_3 1_555 1_555
N9_3 H33_3 1_555 1_555
O19_3 C51_3 1_555 1_555
C37_3 C30_3 1_555 1_555
H34_3 C37_3 1_555 1_555
H35_3 C37_3 1_555 1_555
H36_3 C37_3 1_555 1_555
C43_3 C38_3 1_555 1_555
H39_3 C43_3 1_555 1_555
C45_3 N9_3 1_555 1_555
H40_3 C45_3 1_555 1_555
C46_3 N6_3 1_555 1_555
O20_3 C46_3 1_555 1_555
C47_3 C45_3 1_555 1_555
H41_3 C47_3 1_555 1_555
H42_3 C47_3 1_555 1_555
H43_3 C47_3 1_555 1_555
C51_3 N9_3 1_555 1_555
Cd5_5 O30_5 1_555 1_555
O34_5 Cd5_5 1_555 1_555
Cd20 N5_3 1_555 1_555
O50_3 Cd20 1_555 1_555
O64 Cd5_5 1_555 1_555
O54_3 Cd20 1_555 1_555
C123_3 O50_3 1_555 1_555
C124_3 C123_3 1_555 1_555
H117_3 C124_3 1_555 1_555
N23_3 C124_3 1_555 1_555
H118_3 N23_3 1_555 1_555
O56_3 C130_3 1_555 1_555
C129_3 H123_3 1_555 1_555
C130_3 N23_3 1_555 1_555
C131_3 H124_3 1_555 1_555
C133_3 C129_3 1_555 1_555
C137_3 C124_3 1_555 1_555
H130_3 C137_3 1_555 1_555
H131_3 C137_3 1_555 1_555
H132_3 C137_3 1_555 1_555
C24_3 C26_3 1_555 1_555
C27_3 C28_3 1_555 1_555
C29_3 O69_2 1_555 1_555
N6_3 C30_3 1_555 1_555
C38_3 C51_3 1_555 1_555
C39_3 C43_3 1_555 1_555
C39_3 C46_3 1_555 1_555
O54_3 C123_3 1_555 1_555
C130_3 C133_3 1_555 1_555
C131_3 C133_3 1_555 1_555
O5_5 H137 1_555 1_555
Cd1_6 O1_6 1_555 1_555
Cd15 O2_3 1_555 1_555
O2_3 C3_3 1_555 1_555
C1_3 O62_2 1_555 1_555
O62_2 Cd1_6 1_555 1_555
N1_3 H1_3 1_555 1_555
O68_2 Cd1_6 1_555 1_555
C2_3 C1_3 1_555 1_555
H2_3 C2_3 1_555 1_555
O5_6 Cd1_6 1_555 1_555
O74_2 C6_3 1_555 1_555
O7_3 Cd15 1_555 1_555
C3_3 O7_3 1_555 1_555
C4_3 C3_3 1_555 1_555
H3_3 C4_3 1_555 1_555
N2_3 Cd15 1_555 1_555
O80_2 C6_3 1_555 1_555
N3_3 C4_3 1_555 1_555
H4_3 N3_3 1_555 1_555
C5_3 H5_3 1_555 1_555
C6_3 C17_3 1_555 1_555
C7_3 N2_3 1_555 1_555
H6_3 C7_3 1_555 1_555
C8_3 C5_3 1_555 1_555
O9_3 C13_3 1_555 1_555
N4_3 H7_3 1_555 1_555
O10_3 C23_3 1_555 1_555
C9_3 C2_3 1_555 1_555
H8_3 C9_3 1_555 1_555
H9_3 C9_3 1_555 1_555
H10_3 C9_3 1_555 1_555
C10_3 C12_3 1_555 1_555
C11_3 C14_3 1_555 1_555
C12_3 H11_3 1_555 1_555
C13_3 N3_3 1_555 1_555
C14_3 H12_3 1_555 1_555
C15_3 C10_3 1_555 1_555
H13_3 C15_3 1_555 1_555
C16_3 C12_3 1_555 1_555
C17_3 N4_3 1_555 1_555
H14_3 C17_3 1_555 1_555
C18_3 N1_3 1_555 1_555
O11_3 C18_3 1_555 1_555
C19_3 C17_3 1_555 1_555
H15_3 C19_3 1_555 1_555
H16_3 C19_3 1_555 1_555
H17_3 C19_3 1_555 1_555
C20_3 N2_3 1_555 1_555
H18_3 C20_3 1_555 1_555
C21_3 C4_3 1_555 1_555
H19_3 C21_3 1_555 1_555
H20_3 C21_3 1_555 1_555
H21_3 C21_3 1_555 1_555
C22_3 C8_3 1_555 1_555
H22_3 C22_3 1_555 1_555
C23_3 N4_3 1_555 1_555
N15_3 C81_3 1_555 1_555
C80_3 H75_3 1_555 1_555
C81_3 C80_3 1_555 1_555
H76_3 C81_3 1_555 1_555
C83_3 N15_3 1_555 1_555
H77_3 C83_3 1_555 1_555
C84_3 C82_3 1_555 1_555
H78_3 C84_3 1_555 1_555
Cd5_6 O30_6 1_555 1_555
Cd18 N15_3 1_555 1_555
O31_3 Cd18 1_555 1_555
C85_3 O62 1_555 1_555
O62 Cd5_6 1_555 1_555
N16_3 H79_3 1_555 1_555
O68 Cd5_6 1_555 1_555
C86_3 C85_3 1_555 1_555
H80_3 C86_3 1_555 1_555
O34_6 Cd5_6 1_555 1_555
O74 C89_3 1_555 1_555
O36_3 Cd18 1_555 1_555
C87_3 O31_3 1_555 1_555
C88_3 C87_3 1_555 1_555
H81_3 C88_3 1_555 1_555
O80 C89_3 1_555 1_555
N17_3 C88_3 1_555 1_555
H82_3 N17_3 1_555 1_555
C89_3 C98_3 1_555 1_555
O38_3 C94_3 1_555 1_555
N18_3 H83_3 1_555 1_555
O39_3 C102_3 1_555 1_555
C90_3 C86_3 1_555 1_555
H84_3 C90_3 1_555 1_555
H85_3 C90_3 1_555 1_555
H86_3 C90_3 1_555 1_555
C91_3 C93_3 1_555 1_555
C92_3 C95_3 1_555 1_555
C93_3 H87_3 1_555 1_555
C94_3 N17_3 1_555 1_555
C95_3 H88_3 1_555 1_555
C96_3 C91_3 1_555 1_555
H89_3 C96_3 1_555 1_555
C97_3 C93_3 1_555 1_555
C98_3 N18_3 1_555 1_555
H90_3 C98_3 1_555 1_555
C99_3 N16_3 1_555 1_555
O40_3 C99_3 1_555 1_555
C100_3 C98_3 1_555 1_555
H91_3 C100_3 1_555 1_555
H92_3 C100_3 1_555 1_555
H93_3 C100_3 1_555 1_555
C101_3 C88_3 1_555 1_555
H94_3 C101_3 1_555 1_555
H95_3 C101_3 1_555 1_555
H96_3 C101_3 1_555 1_555
C102_3 N18_3 1_555 1_555
C1_3 O68_2 1_555 1_555
N1_3 C2_3 1_555 1_555
C5_3 C7_3 1_555 1_555
C10_3 C23_3 1_555 1_555
C11_3 C15_3 1_555 1_555
C11_3 C18_3 1_555 1_555
C13_3 C16_3 1_555 1_555
C14_3 C16_3 1_555 1_555
C20_3 C22_3 1_555 1_555
C80_3 C82_3 1_555 1_555
C83_3 C84_3 1_555 1_555
C85_3 O68 1_555 1_555
N16_3 C86_3 1_555 1_555
O36_3 C87_3 1_555 1_555
C91_3 C102_3 1_555 1_555
C92_3 C96_3 1_555 1_555
C92_3 C99_3 1_555 1_555
C94_3 C97_3 1_555 1_555
C95_3 C97_3 1_555 1_555
O30_6 H133 1_555 1_555
O1_6 H139 1_555 1_555
O34_6 H135_2 1_555 1_555
O5_6 H138_2 1_555 1_555

#END
