
###############################################################################
#
# This file contains modified crystal structure data generated from the
# MOF subset of the Cambridge Structural Database (CSD) v543 
# hosted by the Cambridge Crystallographic Data Centre (CCDC).
#
# This work is licensed under the Creative Commons
# Attribution-NonCommercial-ShareAlike 4.0 International License.
# To view a copy of this license, visit
# http://creativecommons.org/licenses/by-nc-sa/4.0/
# or send a letter to
# Creative Commons, PO Box 1866, Mountain View, CA 94042, USA.
#
# CIF created using the CSD Python API on 29 September 2022
# The structure has been converted into the P1 space group
# The structure has a 3D framework
# The original CSD entry GUTCEF is in the rhombohedral crystal system
# The original CSD entry GUTCEF is in a Sohncke space group
# The framework has been calculated to contain at least 10.0% void space
# The void calculation uses a probe of radius 1.32A, grid spacing 0.4
# The framework is charged, counterions have been retained in the structure
# H atom positions have been added when not included in the experimental data
# Generated hydrogen atom positions removed from atoms on special positions
#
###############################################################################

data_GUTCEF
_chemical_formula_moiety         '(C414 H432 Cd30 N72 O186 6-)n'
_symmetry_cell_setting           triclinic
_symmetry_space_group_name_H-M   'P 1'
_symmetry_Int_Tables_number      1
_space_group_name_Hall           'P 1'
loop_
_symmetry_equiv_pos_site_id
_symmetry_equiv_pos_as_xyz
1 x,y,z
_cell_length_a                   26.9207(9)
_cell_length_b                   26.9207(9)
_cell_length_c                   20.9044(14)
_cell_angle_alpha                90
_cell_angle_beta                 90
_cell_angle_gamma                120
_cell_volume                     13120.2
loop_
_atom_site_label
_atom_site_type_symbol
_atom_site_fract_x
_atom_site_fract_y
_atom_site_fract_z
Cd2 Cd 0.56641(2) 0.17178(2) 0.06030(3)
O7 O 0.5465(3) 0.0809(3) 0.0123(3)
N2 N 0.4731(3) 0.1262(3) 0.1008(4)
C5 C 0.3735(4) 0.0675(5) 0.0901(5)
H5 H 0.3430 0.0466 0.0624
C7 C 0.4274(4) 0.0967(5) 0.0664(5)
H6 H 0.4320 0.0956 0.0224
C8 C 0.3632(4) 0.0677(5) 0.1516(6)
C20 C 0.4647(5) 0.1328(6) 0.1600(6)
H18 H 0.4955 0.1581 0.1851
C22 C 0.4091(5) 0.1022(7) 0.1875(7)
H22 H 0.4045 0.1060 0.2310
C24 C 0.2932(4) 0.0273(6) 0.2432(5)
H23 H 0.3237 0.0369 0.2709
C25 C 0.2393(4) 0.0026(6) 0.2669(5)
C26 C 0.3035(4) 0.0378(6) 0.1817(6)
C27 C 0.2020(5) 0.0014(8) 0.1733(6)
C28 C 0.2576(5) 0.0264(9) 0.1458(7)
H26 H 0.2622 0.0348 0.1023
O35 O 0.7323(4) 0.2773(3) 0.5039(4)
O37 O 0.7186(4) 0.1970(3) 0.5360(3)
C89 C 0.7120(4) 0.2263(4) 0.4950(5)
N18 N 0.6576(4) 0.1390(3) 0.4318(4)
H83 H 0.6222 0.1159 0.4411
O39 O 0.7430(3) 0.1474(3) 0.3976(4)
C91 C 0.6641(3) 0.0525(3) 0.4149(3)
C93 C 0.6972(3) 0.0273(3) 0.4173(3)
H87 H 0.7368 0.0508 0.4203
C96 C 0.6054(3) 0.0163(4) 0.4125(4)
H89 H 0.5815 0.0320 0.4139
C98 C 0.6792(5) 0.2006(4) 0.4342(5)
H90 H 0.7055 0.2185 0.3982
C100 C 0.6305(6) 0.2108(6) 0.4260(7)
H91 H 0.6107 0.1933 0.3870
H92 H 0.6446 0.2514 0.4242
H93 H 0.6047 0.1945 0.4615
C102 C 0.6910(4) 0.1167(4) 0.4153(4)
Cd20 Cd 0.76692(2) 0.27204(3) 0.60637(3)
O60 O 0.6640(3) 0.2314(2) 0.0125(3)
O67 O 0.5735(2) 0.2606(3) 0.0297(3)
O68 O 0.0932(2) 0.0204(2) 0.3036(3)
O75 O 0.6011(4) 0.2117(5) 0.1627(4)
O81 O 0.6148(4) 0.1451(5) 0.1306(3)
O2 O 0.5420(2) 0.1452(2) 0.9542(3)
O6 O 0.9440(3) 0.0656(4) 0.8294(4)
C3 C 0.5406(3) 0.0969(3) 0.9608(4)
C4 C 0.5291(4) 0.0619(4) 0.9016(4)
H3 H 0.5480 0.0885 0.8660
O8 O 0.8637(3) 0.0519(4) 0.7973(3)
N3 N 0.5550(3) 0.0259(3) 0.9073(4)
C6 C 0.8930(4) 0.0453(4) 0.8383(5)
O9 O 0.6450(3) 0.1009(2) 0.9149(3)
O10 O 0.8141(3) 0.0763(3) 0.9357(4)
C12 C 0.6940(3) 0.0305(3) 0.9160(3)
H11 H 0.7175 0.0701 0.9130
C13 C 0.6121(3) 0.0485(3) 0.9133(3)
C16 C 0.6362(4) 0.0082(3) 0.9179(3)
C17 C 0.8673(4) 0.0125(5) 0.8991(5)
H14 H 0.8852 0.0388 0.9351
C21 C 0.4688(5) 0.0259(5) 0.8847(7)
H19 H 0.4657 0.0049 0.8464
H20 H 0.4520 0.0496 0.8777
C23 C 0.7834(4) 0.0243(4) 0.9180(4)
Cd17 Cd 0.93870(3) 0.10026(2) 0.72697(3)
O1 O 0.3333 0.6667 0.0836(4)
C9 C 0.5360(4) 0.7541(4) 0.0509(4)
H8 H 0.5769 0.7710 0.0534
H9 H 0.5182 0.7134 0.0567
H10 H 0.5231 0.7700 0.0838
N5 N 0.1936(3) 0.9864(4) 0.2325(4)
H24 H 0.2347 0.9969 0.3109
H25 H 0.1712 0.9959 0.1482
C37 C 0.2459(4) 0.7819(6) 0.0509(4)
H34 H 0.2290 0.8059 0.0534
H35 H 0.2866 0.8048 0.0567
H36 H 0.2300 0.7531 0.0838
N10 N 0.0136(4) 0.2071(3) 0.2325(4)
H50 H 0.0031 0.2377 0.3109
H51 H 0.0041 0.1752 0.1482
Cd4 Cd 0.60537(3) 0.43359(2) 0.06030(3)
O25 O 0.5344(4) 0.4535(3) 0.0123(3)
N12 N 0.6531(4) 0.5269(3) 0.1008(4)
C61 C 0.6940(6) 0.6265(4) 0.0901(5)
H57 H 0.7036 0.6570 0.0624
C63 C 0.6693(6) 0.5726(4) 0.0664(5)
H58 H 0.6636 0.5680 0.0224
C64 C 0.7045(6) 0.6368(4) 0.1516(6)
C65 C 0.2181(6) 0.4640(4) 0.0509(4)
H60 H 0.1941 0.4231 0.0534
H61 H 0.1952 0.4818 0.0567
H62 H 0.2469 0.4769 0.0838
C76 C 0.6681(8) 0.5353(5) 0.1600(6)
H70 H 0.6626 0.5045 0.1851
C78 C 0.6931(9) 0.5909(5) 0.1875(7)
H74 H 0.7015 0.5955 0.2310
N15 N 0.7929(3) 0.8064(3) 0.2325(4)
C80 C 0.7342(5) 0.7068(4) 0.2432(5)
H75 H 0.7133 0.6763 0.2709
C81 C 0.7634(5) 0.7607(4) 0.2669(5)
H76 H 0.7623 0.7653 0.3109
C82 C 0.7344(5) 0.6965(4) 0.1817(6)
C83 C 0.7995(6) 0.7980(5) 0.1733(6)
H77 H 0.8248 0.8288 0.1482
C84 C 0.7689(7) 0.7424(5) 0.1458(7)
H78 H 0.7727 0.7378 0.1023
Cd5 Cd 0.3334 0.6666 0.36278(4)
Cd6 Cd 0.83845(2) 0.89974(2) 0.27303(3)
O30 O 0.3334 0.6666 0.2497(4)
O31 O 0.8119(2) 0.8753(2) 0.3791(3)
C85 C 0.4075(3) 0.7893(3) 0.3526(3)
O32 O 0.4353(2) 0.7659(2) 0.3458(3)
N16 N 0.4936(2) 0.8837(2) 0.3611(3)
H79 H 0.5158 0.8757 0.3394
O33 O 0.3538(2) 0.7598(2) 0.3630(3)
C86 C 0.4334(3) 0.8529(3) 0.3475(3)
H80 H 0.4146 0.8645 0.3796
O34 O 0.3334 0.6666 0.4691(4)
O36 O 0.7476(3) 0.8798(3) 0.3210(3)
C87 C 0.7636(3) 0.8739(3) 0.3725(4)
C88 C 0.7286(4) 0.8624(4) 0.4317(4)
H81 H 0.7552 0.8813 0.4673
N17 N 0.6926(3) 0.8883(3) 0.4260(4)
H82 H 0.6559 0.8666 0.4265
O38 O 0.7676(2) 0.9783(3) 0.4184(3)
C90 C 0.4208(4) 0.8693(4) 0.2824(4)
H84 H 0.4377 0.9102 0.2799
H85 H 0.3801 0.8515 0.2766
H86 H 0.4367 0.8564 0.2495
C92 C 0.5813(3) 0.9579(4) 0.4080(4)
C94 C 0.7152(3) 0.9454(3) 0.4200(3)
C95 C 0.6153(3) 0.9334(4) 0.4110(3)
H88 H 0.5992 0.8937 0.4102
C97 C 0.6749(3) 0.9695(4) 0.4154(3)
C99 C 0.5159(4) 0.9228(5) 0.4044(5)
O40 O 0.4876(4) 0.9276(6) 0.4447(6)
C101 C 0.6926(5) 0.8021(5) 0.4486(7)
H94 H 0.6716 0.7990 0.4869
H95 H 0.7163 0.7853 0.4556
H96 H 0.6663 0.7823 0.4143
Cd7 Cd 0.06130(3) 0.16155(2) 0.27303(3)
O41 O 0.0635(3) 0.1881(2) 0.3791(3)
C103 C 0.3819(4) 0.5925(3) 0.3526(3)
O42 O 0.3307(3) 0.5647(2) 0.3458(3)
N19 N 0.3902(3) 0.5064(2) 0.3611(3)
H97 H 0.3600 0.4842 0.3394
O43 O 0.4061(3) 0.6462(2) 0.3630(3)
C104 C 0.4196(4) 0.5666(3) 0.3475(3)
H98 H 0.4500 0.5854 0.3796
O44 O 0.5451(5) 0.2677(4) 0.5039(4)
O45 O 0.1323(4) 0.2524(3) 0.3210(3)
C105 C 0.1104(4) 0.2364(3) 0.3725(4)
C106 C 0.1339(6) 0.2714(4) 0.4317(4)
H99 H 0.1262 0.2448 0.4673
O46 O 0.4785(5) 0.2814(4) 0.5360(3)
N20 N 0.1958(4) 0.3074(3) 0.4260(4)
H100 H 0.2108 0.3441 0.4265
C107 C 0.5144(6) 0.2880(4) 0.4950(5)
O47 O 0.2108(4) 0.2324(2) 0.4184(3)
N21 N 0.4815(5) 0.3424(4) 0.4318(4)
H101 H 0.4938 0.3778 0.4411
O48 O 0.4045(4) 0.2570(3) 0.3976(4)
C108 C 0.4486(6) 0.5792(4) 0.2824(4)
H102 H 0.4726 0.5623 0.2799
H103 H 0.4715 0.6199 0.2766
H104 H 0.4198 0.5633 0.2495
C109 C 0.3885(4) 0.3359(3) 0.4149(3)
C110 C 0.3767(5) 0.4187(3) 0.4080(4)
C111 C 0.3302(4) 0.3028(3) 0.4173(3)
H105 H 0.3141 0.2632 0.4203
C112 C 0.2303(4) 0.2848(3) 0.4200(3)
C113 C 0.3182(5) 0.3847(3) 0.4110(3)
H106 H 0.2946 0.4008 0.4102
C114 C 0.4110(5) 0.3946(3) 0.4125(4)
H107 H 0.4506 0.4185 0.4139
C115 C 0.2947(5) 0.3251(3) 0.4154(3)
C116 C 0.5215(6) 0.3208(5) 0.4342(5)
H108 H 0.5131 0.2945 0.3982
C117 C 0.4070(6) 0.4841(4) 0.4044(5)
O49 O 0.4401(7) 0.5124(4) 0.4447(6)
C118 C 0.5804(8) 0.3695(6) 0.4260(7)
H109 H 0.5827 0.3893 0.3870
H110 H 0.6069 0.3554 0.4242
H111 H 0.5899 0.3953 0.4615
C119 C 0.1096(7) 0.3074(5) 0.4486(7)
H112 H 0.1275 0.3284 0.4869
H113 H 0.0691 0.2837 0.4556
H114 H 0.1161 0.3337 0.4143
C120 C 0.4258(6) 0.3090(4) 0.4153(4)
Cd8 Cd 0.10026(2) 0.93870(3) 0.27303(3)
O50 O 0.1247(2) 0.9365(3) 0.3791(3)
C121 C 0.2107(3) 0.6181(4) 0.3526(3)
O51 O 0.2341(2) 0.6693(3) 0.3458(3)
N22 N 0.1163(2) 0.6098(3) 0.3611(3)
H115 H 0.1243 0.6400 0.3394
O52 O 0.2402(2) 0.5939(3) 0.3630(3)
C122 C 0.1471(3) 0.5804(4) 0.3475(3)
H116 H 0.1355 0.5500 0.3796
O54 O 0.1202(3) 0.8677(4) 0.3210(3)
C123 C 0.1261(3) 0.8896(4) 0.3725(4)
C124 C 0.1376(4) 0.8661(6) 0.4317(4)
H117 H 0.1187 0.8738 0.4673
N23 N 0.1117(3) 0.8042(4) 0.4260(4)
H118 H 0.1334 0.7892 0.4265
O56 O 0.0217(3) 0.7892(4) 0.4184(3)
C126 C 0.1307(4) 0.5514(6) 0.2824(4)
H120 H 0.0898 0.5274 0.2799
H121 H 0.1485 0.5285 0.2766
H122 H 0.1436 0.5802 0.2495
C128 C 0.0421(4) 0.6233(5) 0.4080(4)
C130 C 0.0546(3) 0.7697(4) 0.4200(3)
C131 C 0.0666(4) 0.6818(5) 0.4110(3)
H124 H 0.1063 0.7054 0.4102
C133 C 0.0305(4) 0.7053(5) 0.4154(3)
C135 C 0.0772(5) 0.5930(6) 0.4044(5)
O58 O 0.0724(6) 0.5599(7) 0.4447(6)
C137 C 0.1979(5) 0.8904(7) 0.4486(7)
H130 H 0.2010 0.8725 0.4869
H131 H 0.2147 0.9309 0.4556
H132 H 0.2177 0.8839 0.4143
Cd12 Cd 0.23308(2) 0.50511(2) 0.39363(3)
Cd13 Cd 0.49489(2) 0.72796(3) 0.39363(3)
Cd14 Cd 0.27204(3) 0.76692(2) 0.39363(3)
Cd18 Cd 0.50511(2) 0.23308(2) 0.60637(3)
O61 O 0.5674(2) 0.3360(3) 0.0125(3)
O62 O 0.0993(2) 0.1019(2) 0.3208(3)
O63 O 0.8981(2) 0.9973(3) 0.3208(3)
O64 O 0.0027(3) 0.9007(2) 0.3208(3)
O65 O 0.6871(2) 0.4265(2) 0.0297(3)
O70 O 0.9273(3) 0.9068(2) 0.3036(3)
O71 O 0.0656(4) 0.9440(3) 0.1706(4)
O72 O 0.8784(5) 0.9344(4) 0.1706(4)
O73 O 0.0560(3) 0.1216(5) 0.1706(4)
O74 O 0.6107(3) 0.3989(4) 0.1627(4)
O77 O 0.0519(4) 0.8637(3) 0.2027(3)
O78 O 0.8118(5) 0.9481(4) 0.2027(3)
O79 O 0.1363(3) 0.1882(5) 0.2027(3)
O80 O 0.5304(3) 0.3852(4) 0.1306(3)
Cd1 Cd 0.3333 0.6667 0.97055(4)
C1 C 0.4560(3) 0.7408(3) 0.9807(3)
O3 O 0.4326(2) 0.7686(2) 0.9875(3)
N1 N 0.5504(2) 0.8269(2) 0.9722(3)
H1 H 0.5424 0.8491 0.9939
O4 O 0.4265(2) 0.6871(2) 0.9703(3)
C2 C 0.5196(3) 0.7667(3) 0.9858(3)
H2 H 0.5312 0.7479 0.9537
O5 O 0.3333 0.6667 0.8642(4)
H4 H 0.5333 0.9892 0.9068
N4 N 0.8057(3) 0.9909(4) 0.9015(4)
H7 H 0.7826 0.9555 0.8922
C10 C 0.7192(3) 0.9974(3) 0.9184(3)
C11 C 0.6246(4) 0.9146(3) 0.9253(4)
C14 C 0.6001(4) 0.9486(3) 0.9223(3)
H12 H 0.5604 0.9325 0.9231
C15 C 0.6830(4) 0.9387(3) 0.9208(4)
H13 H 0.6987 0.9148 0.9194
C18 C 0.5895(5) 0.8492(4) 0.9289(5)
O11 O 0.5943(6) 0.8209(4) 0.8886(6)
C19 C 0.8775(6) 0.9638(6) 0.9073(7)
H15 H 0.8600 0.9440 0.9463
H16 H 0.9181 0.9779 0.9091
H17 H 0.8612 0.9380 0.8718
H21 H 0.4490 0.9996 0.9190
C29 C 0.2592(3) 0.7152(4) 0.9807(3)
O13 O 0.2314(2) 0.6640(3) 0.9875(3)
N6 N 0.1731(2) 0.7235(3) 0.9722(3)
H27 H 0.1509 0.6933 0.9939
O14 O 0.3129(2) 0.7394(3) 0.9703(3)
C30 C 0.2333(3) 0.7529(4) 0.9858(3)
H28 H 0.2521 0.7833 0.9537
H30 H 0.0108 0.5441 0.9068
N9 N 0.0091(4) 0.8148(5) 0.9015(4)
H33 H 0.0445 0.8271 0.8922
C38 C 0.0026(3) 0.7218(4) 0.9184(3)
C39 C 0.0854(3) 0.7100(5) 0.9253(4)
C42 C 0.0514(3) 0.6515(5) 0.9223(3)
H38 H 0.0675 0.6279 0.9231
C43 C 0.0613(3) 0.7443(5) 0.9208(4)
H39 H 0.0852 0.7839 0.9194
C46 C 0.1508(4) 0.7403(6) 0.9289(5)
O20 O 0.1791(4) 0.7734(7) 0.8886(6)
C47 C 0.0362(6) 0.9137(8) 0.9073(7)
H41 H 0.0560 0.9160 0.9463
H42 H 0.0221 0.9402 0.9091
H43 H 0.0620 0.9232 0.8718
H47 H 0.0004 0.4494 0.9190
O21 O 0.6032(3) 0.4580(2) 0.9542(3)
C57 C 0.2848(4) 0.5440(3) 0.9807(3)
O22 O 0.3360(3) 0.5674(2) 0.9875(3)
N11 N 0.2765(3) 0.4496(2) 0.9722(3)
H53 H 0.3067 0.4576 0.9939
O23 O 0.2606(3) 0.5735(2) 0.9703(3)
C58 C 0.2471(4) 0.4804(3) 0.9858(3)
H54 H 0.2167 0.4688 0.9537
O24 O 0.1216(5) 0.0560(3) 0.8294(4)
C59 C 0.5563(4) 0.4594(3) 0.9608(4)
C60 C 0.5328(6) 0.4709(4) 0.9016(4)
H55 H 0.5405 0.4520 0.8660
O26 O 0.1882(5) 0.1363(3) 0.7973(3)
N13 N 0.4709(4) 0.4450(3) 0.9073(4)
H56 H 0.4559 0.4667 0.9068
C62 C 0.1523(6) 0.1070(4) 0.8383(5)
O27 O 0.4559(4) 0.3550(3) 0.9149(3)
N14 N 0.1852(5) 0.1943(3) 0.9015(4)
H59 H 0.1729 0.2174 0.8922
O28 O 0.2622(4) 0.1859(3) 0.9357(4)
C66 C 0.2782(4) 0.2808(3) 0.9184(3)
C67 C 0.2900(5) 0.3754(4) 0.9253(4)
C68 C 0.3365(4) 0.3060(3) 0.9160(3)
H63 H 0.3526 0.2825 0.9130
C69 C 0.4364(4) 0.3879(3) 0.9133(3)
C70 C 0.3485(5) 0.3999(4) 0.9223(3)
H64 H 0.3721 0.4396 0.9231
C71 C 0.2557(5) 0.3170(4) 0.9208(4)
H65 H 0.2161 0.3013 0.9194
C72 C 0.3720(5) 0.3638(4) 0.9179(3)
C73 C 0.1452(6) 0.1327(4) 0.8991(5)
H66 H 0.1536 0.1148 0.9351
C74 C 0.2597(6) 0.4105(5) 0.9289(5)
O29 O 0.2266(7) 0.4057(6) 0.8886(6)
C75 C 0.0863(8) 0.1225(6) 0.9073(7)
H67 H 0.0840 0.1400 0.9463
H68 H 0.0598 0.0819 0.9091
H69 H 0.0768 0.1388 0.8718
C77 C 0.5571(7) 0.5312(5) 0.8847(7)
H71 H 0.5392 0.5343 0.8464
H72 H 0.5976 0.5480 0.8777
H73 H 0.5506 0.5510 0.9190
C79 C 0.2409(6) 0.2166(4) 0.9180(4)
Cd9 Cd 0.17178(2) 0.56641(2) 0.93970(3)
Cd10 Cd 0.39463(3) 0.82822(2) 0.93970(3)
Cd11 Cd 0.43359(2) 0.60537(3) 0.93970(3)
Cd16 Cd 0.16155(2) 0.06130(3) 0.72697(3)
Cd3 Cd 0.82822(2) 0.39463(3) 0.06030(3)
O16 O 0.9191(3) 0.4656(4) 0.0123(3)
N7 N 0.8738(3) 0.3469(4) 0.1008(4)
C33 C 0.9325(5) 0.3060(6) 0.0901(5)
H31 H 0.9534 0.2964 0.0624
C35 C 0.9033(5) 0.3307(6) 0.0664(5)
H32 H 0.9044 0.3364 0.0224
C36 C 0.9323(5) 0.2955(6) 0.1516(6)
C48 C 0.8672(6) 0.3319(8) 0.1600(6)
H44 H 0.8419 0.3374 0.1851
C50 C 0.8978(7) 0.3069(9) 0.1875(7)
H48 H 0.8940 0.2985 0.2310
C52 C 0.9727(6) 0.2658(5) 0.2432(5)
H49 H 0.9631 0.2867 0.2709
C53 C 0.9974(6) 0.2366(5) 0.2669(5)
C54 C 0.9622(6) 0.2656(5) 0.1817(6)
C55 C 0.9986(8) 0.2005(6) 0.1733(6)
C56 C 0.9736(9) 0.2311(7) 0.1458(7)
H52 H 0.9652 0.2273 0.1023
O53 O 0.7227(3) 0.4549(5) 0.5039(4)
O55 O 0.8030(3) 0.5215(5) 0.5360(3)
C125 C 0.7737(4) 0.4856(6) 0.4950(5)
N24 N 0.8610(3) 0.5185(5) 0.4318(4)
H119 H 0.8841 0.5062 0.4411
O57 O 0.8526(3) 0.5955(4) 0.3976(4)
C127 C 0.9475(3) 0.6115(4) 0.4149(3)
C129 C 0.9727(3) 0.6698(4) 0.4173(3)
H123 H 0.9492 0.6859 0.4203
C132 C 0.9837(4) 0.5890(5) 0.4125(4)
H125 H 0.9680 0.5494 0.4139
C134 C 0.7994(4) 0.4785(6) 0.4342(5)
H126 H 0.7815 0.4869 0.3982
C136 C 0.7892(6) 0.4196(8) 0.4260(7)
H127 H 0.8067 0.4173 0.3870
H128 H 0.7486 0.3931 0.4242
H129 H 0.8055 0.4101 0.4615
C138 C 0.8833(4) 0.5742(6) 0.4153(4)
Cd19 Cd 0.72796(3) 0.49489(2) 0.60637(3)
O59 O 0.7686(2) 0.4326(2) 0.0125(3)
O66 O 0.7394(3) 0.3129(2) 0.0297(3)
O69 O 0.9796(2) 0.0727(3) 0.3036(3)
O76 O 0.7883(5) 0.3893(3) 0.1627(4)
O82 O 0.8549(5) 0.4696(3) 0.1306(3)
O12 O 0.8548(2) 0.3968(3) 0.9542(3)
O15 O 0.9344(4) 0.8784(5) 0.8294(4)
C31 C 0.9031(3) 0.4437(4) 0.9608(4)
C32 C 0.9381(4) 0.4672(6) 0.9016(4)
H29 H 0.9115 0.4595 0.8660
O17 O 0.9481(4) 0.8118(5) 0.7973(3)
N8 N 0.9741(3) 0.5291(4) 0.9073(4)
C34 C 0.9547(4) 0.8477(6) 0.8383(5)
O18 O 0.8991(2) 0.5441(4) 0.9149(3)
O19 O 0.9237(3) 0.7378(4) 0.9357(4)
C40 C 0.9695(3) 0.6635(4) 0.9160(3)
H37 H 0.9299 0.6474 0.9130
C41 C 0.9515(3) 0.5636(4) 0.9133(3)
C44 C 0.9918(3) 0.6280(5) 0.9179(3)
C45 C 0.9875(5) 0.8548(6) 0.8991(5)
H40 H 0.9612 0.8464 0.9351
C49 C 0.9741(5) 0.4429(7) 0.8847(7)
H45 H 0.9951 0.4608 0.8464
H46 H 0.9504 0.4024 0.8777
C51 C 0.9757(4) 0.7591(6) 0.9180(4)
Cd15 Cd 0.89974(2) 0.83845(2) 0.72697(3)
O2_2 O 0.1452(2) 0.5420(2) 0.0458(3)
C3_2 C 0.0969(3) 0.5406(3) 0.0392(4)
C4_2 C 0.0619(4) 0.5291(4) 0.0984(4)
H3_2 H 0.0885 0.5480 0.1340
N3_2 N 0.0259(3) 0.5550(3) 0.0927(4)
C6_2 C 0.0453(4) 0.8930(4) 0.1617(5)
O9_2 O 0.1009(2) 0.6450(3) 0.0851(3)
O10_2 O 0.0763(3) 0.8141(3) 0.0643(4)
C12_2 C 0.0305(3) 0.6940(3) 0.0840(3)
H11_2 H 0.0701 0.7175 0.0870
C13_2 C 0.0485(3) 0.6121(3) 0.0867(3)
C16_2 C 0.0082(3) 0.6362(4) 0.0821(3)
C17_2 C 0.0125(5) 0.8673(4) 0.1009(5)
H14_2 H 0.0388 0.8852 0.0649
C21_2 C 0.0259(5) 0.4688(5) 0.1153(7)
H19_2 H 0.0049 0.4657 0.1536
H20_2 H 0.0496 0.4520 0.1223
C23_2 C 0.0243(4) 0.7834(4) 0.0820(4)
O7_2 O 0.0809(3) 0.5465(3) 0.9877(3)
N2_2 N 0.1262(3) 0.4731(3) 0.8992(4)
C5_2 C 0.0675(5) 0.3735(4) 0.9099(5)
H5_2 H 0.0466 0.3430 0.9376
C7_2 C 0.0967(5) 0.4274(4) 0.9336(5)
H6_2 H 0.0956 0.4320 0.9776
C8_2 C 0.0677(5) 0.3632(4) 0.8484(6)
C20_2 C 0.1328(6) 0.4647(5) 0.8400(6)
H18_2 H 0.1581 0.4955 0.8149
C22_2 C 0.1022(7) 0.4091(5) 0.8125(7)
H22_2 H 0.1060 0.4045 0.7690
C24_2 C 0.0273(6) 0.2932(4) 0.7568(5)
H23_2 H 0.0369 0.3237 0.7291
C25_2 C 0.0026(6) 0.2393(4) 0.7331(5)
C26_2 C 0.0378(6) 0.3035(4) 0.8183(6)
C27_2 C 0.0014(8) 0.2020(5) 0.8267(6)
C28_2 C 0.0264(9) 0.2576(5) 0.8542(7)
H26_2 H 0.0348 0.2622 0.8977
O35_2 O 0.2773(3) 0.7323(4) 0.4961(4)
O37_2 O 0.1970(3) 0.7186(4) 0.4640(3)
C89_2 C 0.2263(4) 0.7120(4) 0.5050(5)
N18_2 N 0.1390(3) 0.6576(4) 0.5682(4)
H83_2 H 0.1159 0.6222 0.5589
O39_2 O 0.1474(3) 0.7430(3) 0.6024(4)
C91_2 C 0.0525(3) 0.6641(3) 0.5851(3)
C93_2 C 0.0273(3) 0.6972(3) 0.5827(3)
H87_2 H 0.0508 0.7368 0.5797
C96_2 C 0.0163(4) 0.6054(3) 0.5875(4)
H89_2 H 0.0320 0.5815 0.5861
C98_2 C 0.2006(4) 0.6792(5) 0.5658(5)
H90_2 H 0.2185 0.7055 0.6018
C100_2 C 0.2108(6) 0.6305(6) 0.5740(7)
H91_2 H 0.1933 0.6107 0.6130
H92_2 H 0.2514 0.6446 0.5758
H93_2 H 0.1945 0.6047 0.5385
C102_2 C 0.1167(4) 0.6910(4) 0.5847(4)
O68_2 O 0.0204(2) 0.0932(2) 0.6964(3)
O75_2 O 0.2117(5) 0.6011(4) 0.8373(4)
O81_2 O 0.1451(5) 0.6148(4) 0.8694(3)
Cd1_2 Cd 0.6667 0.3333 0.02945(4)
C1_2 C 0.7408(3) 0.4560(3) 0.0193(3)
N1_2 N 0.8269(2) 0.5504(2) 0.0278(3)
H1_2 H 0.8491 0.5424 0.0061
C2_2 C 0.7667(3) 0.5196(3) 0.0142(3)
H2_2 H 0.7479 0.5312 0.0463
O5_2 O 0.6667 0.3333 0.1358(4)
H4_2 H 0.9892 0.5333 0.0932
N4_2 N 0.9909(4) 0.8057(3) 0.0985(4)
H7_2 H 0.9555 0.7826 0.1078
C10_2 C 0.9974(3) 0.7192(3) 0.0816(3)
C11_2 C 0.9146(3) 0.6246(4) 0.0747(4)
C14_2 C 0.9486(3) 0.6001(4) 0.0777(3)
H12_2 H 0.9325 0.5604 0.0769
C15_2 C 0.9387(3) 0.6830(4) 0.0792(4)
H13_2 H 0.9148 0.6987 0.0806
C18_2 C 0.8492(4) 0.5895(5) 0.0711(5)
O11_2 O 0.8209(4) 0.5943(6) 0.1114(6)
C19_2 C 0.9638(6) 0.8775(6) 0.0927(7)
H15_2 H 0.9440 0.8600 0.0537
H16_2 H 0.9779 0.9181 0.0909
H17_2 H 0.9380 0.8612 0.1282
H21_2 H 0.9996 0.4490 0.0810
C29_2 C 0.7152(4) 0.2592(3) 0.0193(3)
N6_2 N 0.7235(3) 0.1731(2) 0.0278(3)
H27_2 H 0.6933 0.1509 0.0061
C30_2 C 0.7529(4) 0.2333(3) 0.0142(3)
H28_2 H 0.7833 0.2521 0.0463
H30_2 H 0.5441 0.0108 0.0932
N9_2 N 0.8148(5) 0.0091(4) 0.0985(4)
H33_2 H 0.8271 0.0445 0.1078
C38_2 C 0.7218(4) 0.0026(3) 0.0816(3)
C39_2 C 0.7100(5) 0.0854(3) 0.0747(4)
C42_2 C 0.6515(5) 0.0514(3) 0.0777(3)
H38_2 H 0.6279 0.0675 0.0769
C43_2 C 0.7443(5) 0.0613(3) 0.0792(4)
H39_2 H 0.7839 0.0852 0.0806
C46_2 C 0.7403(6) 0.1508(4) 0.0711(5)
O20_2 O 0.7734(7) 0.1791(4) 0.1114(6)
C47_2 C 0.9137(8) 0.0362(6) 0.0927(7)
H41_2 H 0.9160 0.0560 0.0537
H42_2 H 0.9402 0.0221 0.0909
H43_2 H 0.9232 0.0620 0.1282
H47_2 H 0.4494 0.0004 0.0810
O21_2 O 0.4580(2) 0.6032(3) 0.0458(3)
C57_2 C 0.5440(3) 0.2848(4) 0.0193(3)
N11_2 N 0.4496(2) 0.2765(3) 0.0278(3)
H53_2 H 0.4576 0.3067 0.0061
C58_2 C 0.4804(3) 0.2471(4) 0.0142(3)
H54_2 H 0.4688 0.2167 0.0463
C59_2 C 0.4594(3) 0.5563(4) 0.0392(4)
C60_2 C 0.4709(4) 0.5328(6) 0.0984(4)
H55_2 H 0.4520 0.5405 0.1340
N13_2 N 0.4450(3) 0.4709(4) 0.0927(4)
H56_2 H 0.4667 0.4559 0.0932
C62_2 C 0.1070(4) 0.1523(6) 0.1617(5)
O27_2 O 0.3550(3) 0.4559(4) 0.0851(3)
N14_2 N 0.1943(3) 0.1852(5) 0.0985(4)
H59_2 H 0.2174 0.1729 0.1078
O28_2 O 0.1859(3) 0.2622(4) 0.0643(4)
C66_2 C 0.2808(3) 0.2782(4) 0.0816(3)
C67_2 C 0.3754(4) 0.2900(5) 0.0747(4)
C68_2 C 0.3060(3) 0.3365(4) 0.0840(3)
H63_2 H 0.2825 0.3526 0.0870
C69_2 C 0.3879(3) 0.4364(4) 0.0867(3)
C70_2 C 0.3999(4) 0.3485(5) 0.0777(3)
H64_2 H 0.4396 0.3721 0.0769
C71_2 C 0.3170(4) 0.2557(5) 0.0792(4)
H65_2 H 0.3013 0.2161 0.0806
C72_2 C 0.3638(4) 0.3720(5) 0.0821(3)
C73_2 C 0.1327(4) 0.1452(6) 0.1009(5)
H66_2 H 0.1148 0.1536 0.0649
C74_2 C 0.4105(5) 0.2597(6) 0.0711(5)
O29_2 O 0.4057(6) 0.2266(7) 0.1114(6)
C75_2 C 0.1225(6) 0.0863(8) 0.0927(7)
H67_2 H 0.1400 0.0840 0.0537
H68_2 H 0.0819 0.0598 0.0909
H69_2 H 0.1388 0.0768 0.1282
C77_2 C 0.5312(5) 0.5571(7) 0.1153(7)
H71_2 H 0.5343 0.5392 0.1536
H72_2 H 0.5480 0.5976 0.1223
H73_2 H 0.5510 0.5506 0.0810
C79_2 C 0.2166(4) 0.2409(6) 0.0820(4)
O1_2 O 0.6667 0.3333 0.9164(4)
C9_2 C 0.7541(4) 0.5360(4) 0.9491(4)
H8_2 H 0.7710 0.5769 0.9466
H9_2 H 0.7134 0.5182 0.9433
H10_2 H 0.7700 0.5231 0.9162
N5_2 N 0.9864(4) 0.1936(3) 0.7675(4)
H24_2 H 0.9969 0.2347 0.6891
H25_2 H 0.9959 0.1712 0.8518
C37_2 C 0.7819(6) 0.2459(4) 0.9491(4)
H34_2 H 0.8059 0.2290 0.9466
H35_2 H 0.8048 0.2866 0.9433
H36_2 H 0.7531 0.2300 0.9162
N10_2 N 0.2071(3) 0.0136(4) 0.7675(4)
H50_2 H 0.2377 0.0031 0.6891
H51_2 H 0.1752 0.0041 0.8518
O25_2 O 0.4535(3) 0.5344(4) 0.9877(3)
N12_2 N 0.5269(3) 0.6531(4) 0.8992(4)
C61_2 C 0.6265(4) 0.6940(6) 0.9099(5)
H57_2 H 0.6570 0.7036 0.9376
C63_2 C 0.5726(4) 0.6693(6) 0.9336(5)
H58_2 H 0.5680 0.6636 0.9776
C64_2 C 0.6368(4) 0.7045(6) 0.8484(6)
C65_2 C 0.4640(4) 0.2181(6) 0.9491(4)
H60_2 H 0.4231 0.1941 0.9466
H61_2 H 0.4818 0.1952 0.9433
H62_2 H 0.4769 0.2469 0.9162
C76_2 C 0.5353(5) 0.6681(8) 0.8400(6)
H70_2 H 0.5045 0.6626 0.8149
C78_2 C 0.5909(5) 0.6931(9) 0.8125(7)
H74_2 H 0.5955 0.7015 0.7690
N15_2 N 0.8064(3) 0.7929(3) 0.7675(4)
C80_2 C 0.7068(4) 0.7342(5) 0.7568(5)
H75_2 H 0.6763 0.7133 0.7291
C81_2 C 0.7607(4) 0.7634(5) 0.7331(5)
H76_2 H 0.7653 0.7623 0.6891
C82_2 C 0.6965(4) 0.7344(5) 0.8183(6)
C83_2 C 0.7980(5) 0.7995(6) 0.8267(6)
H77_2 H 0.8288 0.8248 0.8518
C84_2 C 0.7424(5) 0.7689(7) 0.8542(7)
H78_2 H 0.7378 0.7727 0.8977
Cd5_2 Cd 0.6666 0.3334 0.63722(4)
O30_2 O 0.6666 0.3334 0.7503(4)
O31_2 O 0.8753(2) 0.8119(2) 0.6209(3)
C85_2 C 0.7893(3) 0.4075(3) 0.6474(3)
O32_2 O 0.7659(2) 0.4353(2) 0.6542(3)
N16_2 N 0.8837(2) 0.4936(2) 0.6389(3)
H79_2 H 0.8757 0.5158 0.6606
O33_2 O 0.7598(2) 0.3538(2) 0.6370(3)
C86_2 C 0.8529(3) 0.4334(3) 0.6525(3)
H80_2 H 0.8645 0.4146 0.6204
O34_2 O 0.6666 0.3334 0.5309(4)
O36_2 O 0.8798(3) 0.7476(3) 0.6790(3)
C87_2 C 0.8739(3) 0.7636(3) 0.6275(4)
C88_2 C 0.8624(4) 0.7286(4) 0.5683(4)
H81_2 H 0.8813 0.7552 0.5327
N17_2 N 0.8883(3) 0.6926(3) 0.5740(4)
H82_2 H 0.8666 0.6559 0.5735
O38_2 O 0.9783(3) 0.7676(2) 0.5816(3)
C90_2 C 0.8693(4) 0.4208(4) 0.7176(4)
H84_2 H 0.9102 0.4377 0.7201
H85_2 H 0.8515 0.3801 0.7234
H86_2 H 0.8564 0.4367 0.7505
C92_2 C 0.9579(4) 0.5813(3) 0.5920(4)
C94_2 C 0.9454(3) 0.7152(3) 0.5800(3)
C95_2 C 0.9334(4) 0.6153(3) 0.5890(3)
H88_2 H 0.8937 0.5992 0.5898
C97_2 C 0.9695(4) 0.6749(3) 0.5846(3)
C99_2 C 0.9228(5) 0.5159(4) 0.5956(5)
O40_2 O 0.9276(6) 0.4876(4) 0.5553(6)
C101_2 C 0.8021(5) 0.6926(5) 0.5514(7)
H94_2 H 0.7990 0.6716 0.5131
H95_2 H 0.7853 0.7163 0.5444
H96_2 H 0.7823 0.6663 0.5857
O41_2 O 0.1881(2) 0.0635(3) 0.6209(3)
C103_2 C 0.5925(3) 0.3819(4) 0.6474(3)
O42_2 O 0.5647(2) 0.3307(3) 0.6542(3)
N19_2 N 0.5064(2) 0.3902(3) 0.6389(3)
H97_2 H 0.4842 0.3600 0.6606
O43_2 O 0.6462(2) 0.4061(3) 0.6370(3)
C104_2 C 0.5666(3) 0.4196(4) 0.6525(3)
H98_2 H 0.5854 0.4500 0.6204
O44_2 O 0.2677(4) 0.5451(5) 0.4961(4)
O45_2 O 0.2524(3) 0.1323(4) 0.6790(3)
C105_2 C 0.2364(3) 0.1104(4) 0.6275(4)
C106_2 C 0.2714(4) 0.1339(6) 0.5683(4)
H99_2 H 0.2448 0.1262 0.5327
O46_2 O 0.2814(4) 0.4785(5) 0.4640(3)
N20_2 N 0.3074(3) 0.1958(4) 0.5740(4)
H100_2 H 0.3441 0.2108 0.5735
C107_2 C 0.2880(4) 0.5144(6) 0.5050(5)
O47_2 O 0.2324(2) 0.2108(4) 0.5816(3)
N21_2 N 0.3424(4) 0.4815(5) 0.5682(4)
H101_2 H 0.3778 0.4938 0.5589
O48_2 O 0.2570(3) 0.4045(4) 0.6024(4)
C108_2 C 0.5792(4) 0.4486(6) 0.7176(4)
H102_2 H 0.5623 0.4726 0.7201
H103_2 H 0.6199 0.4715 0.7234
H104_2 H 0.5633 0.4198 0.7505
C109_2 C 0.3359(3) 0.3885(4) 0.5851(3)
C110_2 C 0.4187(3) 0.3767(5) 0.5920(4)
C111_2 C 0.3028(3) 0.3302(4) 0.5827(3)
H105_2 H 0.2632 0.3141 0.5797
C112_2 C 0.2848(3) 0.2303(4) 0.5800(3)
C113_2 C 0.3847(3) 0.3182(5) 0.5890(3)
H106_2 H 0.4008 0.2946 0.5898
C114_2 C 0.3946(3) 0.4110(5) 0.5875(4)
H107_2 H 0.4185 0.4506 0.5861
C115_2 C 0.3251(3) 0.2947(5) 0.5846(3)
C116_2 C 0.3208(5) 0.5215(6) 0.5658(5)
H108_2 H 0.2945 0.5131 0.6018
C117_2 C 0.4841(4) 0.4070(6) 0.5956(5)
O49_2 O 0.5124(4) 0.4401(7) 0.5553(6)
C118_2 C 0.3695(6) 0.5804(8) 0.5740(7)
H109_2 H 0.3893 0.5827 0.6130
H110_2 H 0.3554 0.6069 0.5758
H111_2 H 0.3953 0.5899 0.5385
C119_2 C 0.3074(5) 0.1096(7) 0.5514(7)
H112_2 H 0.3284 0.1275 0.5131
H113_2 H 0.2837 0.0691 0.5444
H114_2 H 0.3337 0.1161 0.5857
C120_2 C 0.3090(4) 0.4258(6) 0.5847(4)
O50_2 O 0.9365(3) 0.1247(2) 0.6209(3)
C121_2 C 0.6181(4) 0.2107(3) 0.6474(3)
O51_2 O 0.6693(3) 0.2341(2) 0.6542(3)
N22_2 N 0.6098(3) 0.1163(2) 0.6389(3)
H115_2 H 0.6400 0.1243 0.6606
O52_2 O 0.5939(3) 0.2402(2) 0.6370(3)
C122_2 C 0.5804(4) 0.1471(3) 0.6525(3)
H116_2 H 0.5500 0.1355 0.6204
O54_2 O 0.8677(4) 0.1202(3) 0.6790(3)
C123_2 C 0.8896(4) 0.1261(3) 0.6275(4)
C124_2 C 0.8661(6) 0.1376(4) 0.5683(4)
H117_2 H 0.8738 0.1187 0.5327
N23_2 N 0.8042(4) 0.1117(3) 0.5740(4)
H118_2 H 0.7892 0.1334 0.5735
O56_2 O 0.7892(4) 0.0217(3) 0.5816(3)
C126_2 C 0.5514(6) 0.1307(4) 0.7176(4)
H120_2 H 0.5274 0.0898 0.7201
H121_2 H 0.5285 0.1485 0.7234
H122_2 H 0.5802 0.1436 0.7505
C128_2 C 0.6233(5) 0.0421(4) 0.5920(4)
C130_2 C 0.7697(4) 0.0546(3) 0.5800(3)
C131_2 C 0.6818(5) 0.0666(4) 0.5890(3)
H124_2 H 0.7054 0.1063 0.5898
C133_2 C 0.7053(5) 0.0305(4) 0.5846(3)
C135_2 C 0.5930(6) 0.0772(5) 0.5956(5)
O58_2 O 0.5599(7) 0.0724(6) 0.5553(6)
C137_2 C 0.8904(7) 0.1979(5) 0.5514(7)
H130_2 H 0.8725 0.2010 0.5131
H131_2 H 0.9309 0.2147 0.5444
H132_2 H 0.8839 0.2177 0.5857
O62_2 O 0.1019(2) 0.0993(2) 0.6792(3)
O63_2 O 0.9973(3) 0.8981(2) 0.6792(3)
O64_2 O 0.9007(2) 0.0027(3) 0.6792(3)
O70_2 O 0.9068(2) 0.9273(3) 0.6964(3)
O74_2 O 0.3989(4) 0.6107(3) 0.8373(4)
O80_2 O 0.3852(4) 0.5304(3) 0.8694(3)
O12_2 O 0.3968(3) 0.8548(2) 0.0458(3)
C31_2 C 0.4437(4) 0.9031(3) 0.0392(4)
C32_2 C 0.4672(6) 0.9381(4) 0.0984(4)
H29_2 H 0.4595 0.9115 0.1340
N8_2 N 0.5291(4) 0.9741(3) 0.0927(4)
C34_2 C 0.8477(6) 0.9547(4) 0.1617(5)
O18_2 O 0.5441(4) 0.8991(2) 0.0851(3)
O19_2 O 0.7378(4) 0.9237(3) 0.0643(4)
C40_2 C 0.6635(4) 0.9695(3) 0.0840(3)
H37_2 H 0.6474 0.9299 0.0870
C41_2 C 0.5636(4) 0.9515(3) 0.0867(3)
C44_2 C 0.6280(5) 0.9918(3) 0.0821(3)
C45_2 C 0.8548(6) 0.9875(5) 0.1009(5)
H40_2 H 0.8464 0.9612 0.0649
C49_2 C 0.4429(7) 0.9741(5) 0.1153(7)
H45_2 H 0.4608 0.9951 0.1536
H46_2 H 0.4024 0.9504 0.1223
C51_2 C 0.7591(6) 0.9757(4) 0.0820(4)
O16_2 O 0.4656(4) 0.9191(3) 0.9877(3)
N7_2 N 0.3469(4) 0.8738(3) 0.8992(4)
C33_2 C 0.3060(6) 0.9325(5) 0.9099(5)
H31_2 H 0.2964 0.9534 0.9376
C35_2 C 0.3307(6) 0.9033(5) 0.9336(5)
H32_2 H 0.3364 0.9044 0.9776
C36_2 C 0.2955(6) 0.9323(5) 0.8484(6)
C48_2 C 0.3319(8) 0.8672(6) 0.8400(6)
H44_2 H 0.3374 0.8419 0.8149
C50_2 C 0.3069(9) 0.8978(7) 0.8125(7)
H48_2 H 0.2985 0.8940 0.7690
C52_2 C 0.2658(5) 0.9727(6) 0.7568(5)
H49_2 H 0.2867 0.9631 0.7291
C53_2 C 0.2366(5) 0.9974(6) 0.7331(5)
C54_2 C 0.2656(5) 0.9622(6) 0.8183(6)
C55_2 C 0.2005(6) 0.9986(8) 0.8267(6)
C56_2 C 0.2311(7) 0.9736(9) 0.8542(7)
H52_2 H 0.2273 0.9652 0.8977
O53_2 O 0.4549(5) 0.7227(3) 0.4961(4)
O55_2 O 0.5215(5) 0.8030(3) 0.4640(3)
C125_2 C 0.4856(6) 0.7737(4) 0.5050(5)
N24_2 N 0.5185(5) 0.8610(3) 0.5682(4)
H119_2 H 0.5062 0.8841 0.5589
O57_2 O 0.5955(4) 0.8526(3) 0.6024(4)
C127_2 C 0.6115(4) 0.9475(3) 0.5851(3)
C129_2 C 0.6698(4) 0.9727(3) 0.5827(3)
H123_2 H 0.6859 0.9492 0.5797
C132_2 C 0.5890(5) 0.9837(4) 0.5875(4)
H125_2 H 0.5494 0.9680 0.5861
C134_2 C 0.4785(6) 0.7994(4) 0.5658(5)
H126_2 H 0.4869 0.7815 0.6018
C136_2 C 0.4196(8) 0.7892(6) 0.5740(7)
H127_2 H 0.4173 0.8067 0.6130
H128_2 H 0.3931 0.7486 0.5758
H129_2 H 0.4101 0.8055 0.5385
C138_2 C 0.5742(6) 0.8833(4) 0.5847(4)
O69_2 O 0.0727(3) 0.9796(2) 0.6964(3)
O76_2 O 0.3893(3) 0.7883(5) 0.8373(4)
O82_2 O 0.4696(3) 0.8549(5) 0.8694(3)
Cd1_3 Cd -0.0000 0.0000 0.30388(4)
O1_3 O -0.0000 0.0000 0.4169(4)
O2_3 O 0.2087(2) 0.4785(2) 0.2875(3)
C1_3 C 0.1227(3) 0.0741(3) 0.3140(3)
N1_3 N 0.2171(2) 0.1602(2) 0.3055(3)
H1_3 H 0.2091 0.1824 0.3272
C2_3 C 0.1863(3) 0.1000(3) 0.3191(3)
H2_3 H 0.1979 0.0812 0.2870
O5_3 O -0.0000 0.0000 0.1975(4)
O7_3 O 0.2132(3) 0.4142(3) 0.3456(3)
C3_3 C 0.2073(3) 0.4302(3) 0.2941(4)
C4_3 C 0.1958(4) 0.3952(4) 0.2349(4)
H3_3 H 0.2147 0.4218 0.1993
N2_3 N 0.1398(3) 0.4595(3) 0.4341(4)
N3_3 N 0.2217(3) 0.3592(3) 0.2406(4)
H4_3 H 0.2000 0.3225 0.2401
C5_3 C 0.0402(4) 0.4008(5) 0.4234(5)
H5_3 H 0.0097 0.3799 0.3957
C6_3 C 0.5597(4) 0.3786(4) 0.1716(5)
C7_3 C 0.0941(4) 0.4300(5) 0.3997(5)
H6_3 H 0.0987 0.4289 0.3557
C8_3 C 0.0299(4) 0.4010(5) 0.4849(6)
O9_3 O 0.3117(3) 0.4342(2) 0.2482(3)
N4_3 N 0.4724(3) 0.3242(4) 0.2348(4)
H7_3 H 0.4493 0.2888 0.2255
O10_3 O 0.4808(3) 0.4096(3) 0.2690(4)
C9_3 C 0.2027(4) 0.0874(4) 0.3842(4)
H8_3 H 0.2436 0.1043 0.3867
H9_3 H 0.1849 0.0467 0.3900
H10_3 H 0.1898 0.1033 0.4171
C10_3 C 0.3859(3) 0.3307(3) 0.2517(3)
C11_3 C 0.2913(4) 0.2479(3) 0.2586(4)
C12_3 C 0.3607(3) 0.3638(3) 0.2493(3)
H11_3 H 0.3842 0.4034 0.2463
C13_3 C 0.2788(3) 0.3818(3) 0.2466(3)
C14_3 C 0.2668(4) 0.2819(3) 0.2556(3)
H12_3 H 0.2271 0.2658 0.2564
C15_3 C 0.3497(4) 0.2720(3) 0.2541(4)
H13_3 H 0.3654 0.2481 0.2527
C16_3 C 0.3029(4) 0.3415(3) 0.2512(3)
C17_3 C 0.5340(4) 0.3458(5) 0.2324(5)
H14_3 H 0.5519 0.3721 0.2684
C18_3 C 0.2562(5) 0.1825(4) 0.2622(5)
O11_3 O 0.2610(6) 0.1542(4) 0.2219(6)
C19_3 C 0.5442(6) 0.2971(6) 0.2406(7)
H15_3 H 0.5267 0.2773 0.2796
H16_3 H 0.5848 0.3112 0.2424
H17_3 H 0.5279 0.2713 0.2051
C20_3 C 0.1314(5) 0.4661(6) 0.4933(6)
H18_3 H 0.1622 0.4914 0.5184
C21_3 C 0.1355(5) 0.3592(5) 0.2180(7)
H19_3 H 0.1324 0.3382 0.1797
H20_3 H 0.1187 0.3829 0.2110
H21_3 H 0.1157 0.3329 0.2523
C22_3 C 0.0758(5) 0.4355(7) 0.5208(7)
H22_3 H 0.0712 0.4393 0.5643
C23_3 C 0.4501(4) 0.3576(4) 0.2513(4)
N15_3 N 0.4595(3) 0.1398(3) 0.5659(4)
C80_3 C 0.4008(5) 0.0402(4) 0.5766(5)
H75_3 H 0.3799 0.0097 0.6043
C81_3 C 0.4300(5) 0.0941(4) 0.6003(5)
H76_3 H 0.4289 0.0987 0.6443
C82_3 C 0.4010(5) 0.0299(4) 0.5151(6)
C83_3 C 0.4661(6) 0.1314(5) 0.5067(6)
H77_3 H 0.4914 0.1622 0.4816
C84_3 C 0.4355(7) 0.0758(5) 0.4792(7)
H78_3 H 0.4393 0.0712 0.4357
Cd5_3 Cd 0.0000 -0.0000 0.69612(4)
O30_3 O 0.0000 -0.0000 0.5831(4)
O31_3 O 0.4785(2) 0.2087(2) 0.7125(3)
C85_3 C 0.0741(3) 0.1227(3) 0.6860(3)
N16_3 N 0.1602(2) 0.2171(2) 0.6945(3)
H79_3 H 0.1824 0.2091 0.6728
C86_3 C 0.1000(3) 0.1863(3) 0.6809(3)
H80_3 H 0.0812 0.1979 0.7130
O34_3 O 0.0000 -0.0000 0.8025(4)
O36_3 O 0.4142(3) 0.2132(3) 0.6544(3)
C87_3 C 0.4302(3) 0.2073(3) 0.7059(4)
C88_3 C 0.3952(4) 0.1958(4) 0.7651(4)
H81_3 H 0.4218 0.2147 0.8007
N17_3 N 0.3592(3) 0.2217(3) 0.7594(4)
H82_3 H 0.3225 0.2000 0.7599
C89_3 C 0.3786(4) 0.5597(4) 0.8284(5)
O38_3 O 0.4342(2) 0.3117(3) 0.7518(3)
N18_3 N 0.3242(4) 0.4724(3) 0.7652(4)
H83_3 H 0.2888 0.4493 0.7745
O39_3 O 0.4096(3) 0.4808(3) 0.7310(4)
C90_3 C 0.0874(4) 0.2027(4) 0.6158(4)
H84_3 H 0.1043 0.2436 0.6133
H85_3 H 0.0467 0.1849 0.6100
H86_3 H 0.1033 0.1898 0.5829
C91_3 C 0.3307(3) 0.3859(3) 0.7483(3)
C92_3 C 0.2479(3) 0.2913(4) 0.7414(4)
C93_3 C 0.3638(3) 0.3607(3) 0.7507(3)
H87_3 H 0.4034 0.3842 0.7537
C94_3 C 0.3818(3) 0.2788(3) 0.7534(3)
C95_3 C 0.2819(3) 0.2668(4) 0.7444(3)
H88_3 H 0.2658 0.2271 0.7436
C96_3 C 0.2720(3) 0.3497(4) 0.7459(4)
H89_3 H 0.2481 0.3654 0.7473
C97_3 C 0.3415(3) 0.3029(4) 0.7488(3)
C98_3 C 0.3458(5) 0.5340(4) 0.7676(5)
H90_3 H 0.3721 0.5519 0.7316
C99_3 C 0.1825(4) 0.2562(5) 0.7378(5)
O40_3 O 0.1542(4) 0.2610(6) 0.7781(6)
C100_3 C 0.2971(6) 0.5442(6) 0.7594(7)
H91_3 H 0.2773 0.5267 0.7204
H92_3 H 0.3112 0.5848 0.7576
H93_3 H 0.2713 0.5279 0.7949
C101_3 C 0.3592(5) 0.1355(5) 0.7820(7)
H94_3 H 0.3382 0.1324 0.8203
H95_3 H 0.3829 0.1187 0.7890
H96_3 H 0.3329 0.1157 0.7477
C102_3 C 0.3576(4) 0.4501(4) 0.7487(4)
H135 H 0.000931906 0.0351838 0.818301
H139 H 0.0351838 0.000931906 0.181699
Cd1_4 Cd -0.0000 1.0000 0.30388(4)
O1_4 O -0.0000 1.0000 0.4169(4)
O5_4 O -0.0000 1.0000 0.1975(4)
O21_3 O 0.2699(3) 0.7913(2) 0.2875(3)
O25_3 O 0.2011(4) 0.7868(3) 0.3456(3)
C59_3 C 0.2230(4) 0.7927(3) 0.2941(4)
C60_3 C 0.1995(6) 0.8042(4) 0.2349(4)
H55_3 H 0.2072 0.7853 0.1993
N12_3 N 0.3198(4) 0.8602(3) 0.4341(4)
N13_3 N 0.1376(4) 0.7783(3) 0.2406(4)
H56_3 H 0.1226 0.8000 0.2401
C61_3 C 0.3607(6) 0.9598(4) 0.4234(5)
H57_3 H 0.3703 0.9903 0.3957
C63_3 C 0.3360(6) 0.9059(4) 0.3997(5)
H58_3 H 0.3303 0.9013 0.3557
C64_3 C 0.3712(6) 0.9701(4) 0.4849(6)
O27_3 O 0.1226(4) 0.6883(3) 0.2482(3)
C68_3 C 0.0032(4) 0.6393(3) 0.2493(3)
H63_3 H 0.0193 0.6158 0.2463
C69_3 C 0.1031(4) 0.7212(3) 0.2466(3)
C70_3 C 0.0152(5) 0.7332(4) 0.2556(3)
H64_3 H 0.0388 0.7729 0.2564
C72_3 C 0.0387(5) 0.6971(4) 0.2512(3)
C76_3 C 0.3348(8) 0.8686(5) 0.4933(6)
H70_3 H 0.3293 0.8378 0.5184
C77_3 C 0.2238(7) 0.8645(5) 0.2180(7)
H71_3 H 0.2059 0.8676 0.1797
H72_3 H 0.2643 0.8813 0.2110
H73_3 H 0.2173 0.8843 0.2523
C78_3 C 0.3598(9) 0.9242(5) 0.5208(7)
H74_3 H 0.3682 0.9288 0.5643
Cd5_4 Cd 0.0000 1.0000 0.69612(4)
O30_4 O 0.0000 1.0000 0.5831(4)
O34_4 O 0.0000 1.0000 0.8025(4)
C103_3 C 0.0485(4) 0.9259(3) 0.6860(3)
N19_3 N 0.0568(3) 0.8398(2) 0.6945(3)
H97_3 H 0.0266 0.8176 0.6728
C104_3 C 0.0862(4) 0.9000(3) 0.6809(3)
H98_3 H 0.1166 0.9188 0.7130
C107_3 C 0.1810(6) 0.6214(4) 0.8284(5)
N21_3 N 0.1481(5) 0.6758(4) 0.7652(4)
H101_3 H 0.1604 0.7112 0.7745
O48_3 O 0.0711(4) 0.5904(3) 0.7310(4)
C108_3 C 0.1152(6) 0.9126(4) 0.6158(4)
H102_3 H 0.1392 0.8957 0.6133
H103_3 H 0.1381 0.9533 0.6100
H104_3 H 0.0864 0.8967 0.5829
C109_3 C 0.0551(4) 0.6693(3) 0.7483(3)
C110_3 C 0.0433(5) 0.7521(3) 0.7414(4)
C114_3 C 0.0776(5) 0.7280(3) 0.7459(4)
H107_3 H 0.1172 0.7519 0.7473
C116_3 C 0.1881(6) 0.6542(5) 0.7676(5)
H108_3 H 0.1797 0.6279 0.7316
C117_3 C 0.0736(6) 0.8175(4) 0.7378(5)
O49_3 O 0.1067(7) 0.8458(4) 0.7781(6)
C118_3 C 0.2470(8) 0.7029(6) 0.7594(7)
H109_3 H 0.2493 0.7227 0.7204
H110_3 H 0.2735 0.6888 0.7576
H111_3 H 0.2565 0.7287 0.7949
C120_3 C 0.0924(6) 0.6424(4) 0.7487(4)
H133 H 0.0343519 0.999068 0.567233
Cd1_5 Cd 1.0000 0.0000 0.30388(4)
O1_5 O 1.0000 0.0000 0.4169(4)
O5_5 O 1.0000 0.0000 0.1975(4)
N5_3 N 0.8602(3) 0.3198(4) 0.5659(4)
C24_3 C 0.9598(4) 0.3607(6) 0.5766(5)
H23_3 H 0.9903 0.3703 0.6043
C25_3 C 0.9059(4) 0.3360(6) 0.6003(5)
H24_3 H 0.9013 0.3303 0.6443
C26_3 C 0.9701(4) 0.3712(6) 0.5151(6)
C27_3 C 0.8686(5) 0.3348(8) 0.5067(6)
H25_3 H 0.8378 0.3293 0.4816
C28_3 C 0.9242(5) 0.3598(9) 0.4792(7)
H26_3 H 0.9288 0.3682 0.4357
C29_3 C 0.9259(3) 0.0485(4) 0.3140(3)
N6_3 N 0.8398(2) 0.0568(3) 0.3055(3)
H27_3 H 0.8176 0.0266 0.3272
C30_3 C 0.9000(3) 0.0862(4) 0.3191(3)
H28_3 H 0.9188 0.1166 0.2870
C34_3 C 0.6214(4) 0.1810(6) 0.1716(5)
N9_3 N 0.6758(4) 0.1481(5) 0.2348(4)
H33_3 H 0.7112 0.1604 0.2255
O19_3 O 0.5904(3) 0.0711(4) 0.2690(4)
C37_3 C 0.9126(4) 0.1152(6) 0.3842(4)
H34_3 H 0.8957 0.1392 0.3867
H35_3 H 0.9533 0.1381 0.3900
H36_3 H 0.8967 0.0864 0.4171
C38_3 C 0.6693(3) 0.0551(4) 0.2517(3)
C39_3 C 0.7521(3) 0.0433(5) 0.2586(4)
C43_3 C 0.7280(3) 0.0776(5) 0.2541(4)
H39_3 H 0.7519 0.1172 0.2527
C45_3 C 0.6542(5) 0.1881(6) 0.2324(5)
H40_3 H 0.6279 0.1797 0.2684
C46_3 C 0.8175(4) 0.0736(6) 0.2622(5)
O20_3 O 0.8458(4) 0.1067(7) 0.2219(6)
C47_3 C 0.7029(6) 0.2470(8) 0.2406(7)
H41_3 H 0.7227 0.2493 0.2796
H42_3 H 0.6888 0.2735 0.2424
H43_3 H 0.7287 0.2565 0.2051
C51_3 C 0.6424(4) 0.0924(6) 0.2513(4)
Cd5_5 Cd 1.0000 -0.0000 0.69612(4)
O30_5 O 1.0000 -0.0000 0.5831(4)
O34_5 O 1.0000 -0.0000 0.8025(4)
O50_3 O 0.7913(2) 0.2699(3) 0.7125(3)
O54_3 O 0.7868(3) 0.2011(4) 0.6544(3)
C123_3 C 0.7927(3) 0.2230(4) 0.7059(4)
C124_3 C 0.8042(4) 0.1995(6) 0.7651(4)
H117_3 H 0.7853 0.2072 0.8007
N23_3 N 0.7783(3) 0.1376(4) 0.7594(4)
H118_3 H 0.8000 0.1226 0.7599
O56_3 O 0.6883(3) 0.1226(4) 0.7518(3)
C129_3 C 0.6393(3) 0.0032(4) 0.7507(3)
H123_3 H 0.6158 0.0193 0.7537
C130_3 C 0.7212(3) 0.1031(4) 0.7534(3)
C131_3 C 0.7332(4) 0.0152(5) 0.7444(3)
H124_3 H 0.7729 0.0388 0.7436
C133_3 C 0.6971(4) 0.0387(5) 0.7488(3)
C137_3 C 0.8645(5) 0.2238(7) 0.7820(7)
H130_3 H 0.8676 0.2059 0.8203
H131_3 H 0.8813 0.2643 0.7890
H132_3 H 0.8843 0.2173 0.7477
H137 H 0.999068 0.0343519 0.432767
Cd1_6 Cd 1.0000 1.0000 0.30388(4)
O1_6 O 1.0000 1.0000 0.4169(4)
O5_6 O 1.0000 1.0000 0.1975(4)
O12_3 O 0.5215(2) 0.7301(3) 0.2875(3)
O16_3 O 0.5858(3) 0.7989(4) 0.3456(3)
C31_3 C 0.5698(3) 0.7770(4) 0.2941(4)
C32_3 C 0.6048(4) 0.8005(6) 0.2349(4)
H29_3 H 0.5782 0.7928 0.1993
N7_3 N 0.5405(3) 0.6802(4) 0.4341(4)
N8_3 N 0.6408(3) 0.8624(4) 0.2406(4)
H30_3 H 0.6775 0.8774 0.2401
C33_3 C 0.5992(5) 0.6393(6) 0.4234(5)
H31_3 H 0.6201 0.6297 0.3957
C35_3 C 0.5700(5) 0.6640(6) 0.3997(5)
H32_3 H 0.5711 0.6697 0.3557
C36_3 C 0.5990(5) 0.6288(6) 0.4849(6)
O18_3 O 0.5658(2) 0.8774(4) 0.2482(3)
C40_3 C 0.6362(3) 0.9968(4) 0.2493(3)
H37_3 H 0.5966 0.9807 0.2463
C41_3 C 0.6182(3) 0.8969(4) 0.2466(3)
C42_3 C 0.7181(3) 0.9848(5) 0.2556(3)
H38_3 H 0.7342 0.9612 0.2564
C44_3 C 0.6585(3) 0.9613(5) 0.2512(3)
C48_3 C 0.5339(6) 0.6652(8) 0.4933(6)
H44_3 H 0.5086 0.6707 0.5184
C49_3 C 0.6408(5) 0.7762(7) 0.2180(7)
H45_3 H 0.6618 0.7941 0.1797
H46_3 H 0.6171 0.7357 0.2110
H47_3 H 0.6671 0.7827 0.2523
C50_3 C 0.5645(7) 0.6402(9) 0.5208(7)
H48_3 H 0.5607 0.6318 0.5643
N10_3 N 0.6802(4) 0.5405(3) 0.5659(4)
C52_3 C 0.6393(6) 0.5992(5) 0.5766(5)
H49_3 H 0.6297 0.6201 0.6043
C53_3 C 0.6640(6) 0.5700(5) 0.6003(5)
H50_3 H 0.6697 0.5711 0.6443
C54_3 C 0.6288(6) 0.5990(5) 0.5151(6)
C55_3 C 0.6652(8) 0.5339(6) 0.5067(6)
H51_3 H 0.6707 0.5086 0.4816
C56_3 C 0.6402(9) 0.5645(7) 0.4792(7)
H52_3 H 0.6318 0.5607 0.4357
C57_3 C 0.9515(4) 0.8773(3) 0.3140(3)
N11_3 N 0.9432(3) 0.7829(2) 0.3055(3)
H53_3 H 0.9734 0.7909 0.3272
C58_3 C 0.9138(4) 0.8137(3) 0.3191(3)
H54_3 H 0.8834 0.8021 0.2870
C62_3 C 0.8190(6) 0.4403(4) 0.1716(5)
N14_3 N 0.8519(5) 0.5276(3) 0.2348(4)
H59_3 H 0.8396 0.5507 0.2255
O28_3 O 0.9289(4) 0.5192(3) 0.2690(4)
C65_3 C 0.8848(6) 0.7973(4) 0.3842(4)
H60_3 H 0.8608 0.7564 0.3867
H61_3 H 0.8619 0.8151 0.3900
H62_3 H 0.9136 0.8102 0.4171
C66_3 C 0.9449(4) 0.6141(3) 0.2517(3)
C67_3 C 0.9567(5) 0.7087(4) 0.2586(4)
C71_3 C 0.9224(5) 0.6503(4) 0.2541(4)
H65_3 H 0.8828 0.6346 0.2527
C73_3 C 0.8119(6) 0.4660(4) 0.2324(5)
H66_3 H 0.8203 0.4481 0.2684
C74_3 C 0.9264(6) 0.7438(5) 0.2622(5)
O29_3 O 0.8933(7) 0.7390(6) 0.2219(6)
C75_3 C 0.7530(8) 0.4558(6) 0.2406(7)
H67_3 H 0.7507 0.4733 0.2796
H68_3 H 0.7265 0.4152 0.2424
H69_3 H 0.7435 0.4721 0.2051
C79_3 C 0.9076(6) 0.5499(4) 0.2513(4)
Cd5_6 Cd 1.0000 1.0000 0.69612(4)
O30_6 O 1.0000 1.0000 0.5831(4)
O34_6 O 1.0000 1.0000 0.8025(4)
O41_3 O 0.7301(3) 0.5215(2) 0.7125(3)
O45_3 O 0.7989(4) 0.5858(3) 0.6544(3)
C105_3 C 0.7770(4) 0.5698(3) 0.7059(4)
C106_3 C 0.8005(6) 0.6048(4) 0.7651(4)
H99_3 H 0.7928 0.5782 0.8007
N20_3 N 0.8624(4) 0.6408(3) 0.7594(4)
H100_3 H 0.8774 0.6775 0.7599
O47_3 O 0.8774(4) 0.5658(2) 0.7518(3)
C111_3 C 0.9968(4) 0.6362(3) 0.7507(3)
H105_3 H 0.9807 0.5966 0.7537
C112_3 C 0.8969(4) 0.6182(3) 0.7534(3)
C113_3 C 0.9848(5) 0.7181(3) 0.7444(3)
H106_3 H 0.9612 0.7342 0.7436
C115_3 C 0.9613(5) 0.6585(3) 0.7488(3)
C119_3 C 0.7762(7) 0.6408(5) 0.7820(7)
H112_3 H 0.7941 0.6618 0.8203
H113_3 H 0.7357 0.6171 0.7890
H114_3 H 0.7827 0.6671 0.7477
C121_3 C 0.8773(3) 0.9515(4) 0.6860(3)
N22_3 N 0.7829(2) 0.9432(3) 0.6945(3)
H115_3 H 0.7909 0.9734 0.6728
C122_3 C 0.8137(3) 0.9138(4) 0.6809(3)
H116_3 H 0.8021 0.8834 0.7130
C125_3 C 0.4403(4) 0.8190(6) 0.8284(5)
N24_3 N 0.5276(3) 0.8519(5) 0.7652(4)
H119_3 H 0.5507 0.8396 0.7745
O57_3 O 0.5192(3) 0.9289(4) 0.7310(4)
C126_3 C 0.7973(4) 0.8848(6) 0.6158(4)
H120_3 H 0.7564 0.8608 0.6133
H121_3 H 0.8151 0.8619 0.6100
H122_3 H 0.8102 0.9136 0.5829
C127_3 C 0.6141(3) 0.9449(4) 0.7483(3)
C128_3 C 0.7087(4) 0.9567(5) 0.7414(4)
C132_3 C 0.6503(4) 0.9224(5) 0.7459(4)
H125_3 H 0.6346 0.8828 0.7473
C134_3 C 0.4660(4) 0.8119(6) 0.7676(5)
H126_3 H 0.4481 0.8203 0.7316
C135_3 C 0.7438(5) 0.9264(6) 0.7378(5)
O58_3 O 0.7390(6) 0.8933(7) 0.7781(6)
C136_3 C 0.4558(6) 0.7530(8) 0.7594(7)
H127_3 H 0.4733 0.7507 0.7204
H128_3 H 0.4152 0.7265 0.7576
H129_3 H 0.4721 0.7435 0.7949
C138_3 C 0.5499(4) 0.9076(6) 0.7487(4)
H134 H 0.964816 0.965648 0.567233
H136 H 0.964816 0.965648 0.818301
H138 H 0.965648 0.964816 0.432767
H140 H 0.965648 0.964816 0.181699
H133_2 H 0.000931906 0.0352838 0.567233
H138_2 H 0.0351838 0.000831906 0.432767
H136_2 H 0.0343519 0.999168 0.818301
H139_2 H 0.999068 0.0342519 0.181699
loop_
_geom_bond_atom_site_label_1
_geom_bond_atom_site_label_2
_geom_bond_site_symmetry_1
_geom_bond_site_symmetry_2
O7 Cd2 1_555 1_555
N2 Cd2 1_555 1_555
C5 H5 1_555 1_555
C7 N2 1_555 1_555
H6 C7 1_555 1_555
C8 C5 1_555 1_555
C20 N2 1_555 1_555
H18 C20 1_555 1_555
C22 C8 1_555 1_555
H22 C22 1_555 1_555
C24 H23 1_555 1_555
C25 C24 1_555 1_555
C26 C8 1_555 1_555
C28 C26 1_555 1_555
H26 C28 1_555 1_555
O35 C89 1_555 1_555
O37 C89 1_555 1_555
C89 C98 1_555 1_555
N18 H83 1_555 1_555
O39 C102 1_555 1_555
C91 C93 1_555 1_555
C93 H87 1_555 1_555
C96 C91 1_555 1_555
H89 C96 1_555 1_555
C98 N18 1_555 1_555
H90 C98 1_555 1_555
C100 C98 1_555 1_555
H91 C100 1_555 1_555
H92 C100 1_555 1_555
H93 C100 1_555 1_555
C102 N18 1_555 1_555
Cd20 O35 1_555 1_555
O60 Cd2 1_555 1_555
O67 Cd2 1_555 1_555
O75 Cd2 1_555 1_555
O81 Cd2 1_555 1_555
C5 C7 1_555 1_555
C20 C22 1_555 1_555
C24 C26 1_555 1_555
C27 C28 1_555 1_555
O37 Cd20 1_555 1_555
C91 C102 1_555 1_555
O2 C3 1_555 1_555
O6 C6 1_555 1_555
C4 C3 1_555 1_555
H3 C4 1_555 1_555
O8 C6 1_555 1_555
N3 C4 1_555 1_555
C6 C17 1_555 1_555
O9 C13 1_555 1_555
O10 C23 1_555 1_555
C12 H11 1_555 1_555
C13 N3 1_555 1_555
C16 C12 1_555 1_555
H14 C17 1_555 1_555
C21 C4 1_555 1_555
H19 C21 1_555 1_555
H20 C21 1_555 1_555
Cd17 O6 1_555 1_555
O8 Cd17 1_555 1_555
C13 C16 1_555 1_555
H8 C9 1_555 1_555
H9 C9 1_555 1_555
H10 C9 1_555 1_555
H34 C37 1_555 1_555
H35 C37 1_555 1_555
H36 C37 1_555 1_555
O25 Cd4 1_555 1_555
N12 Cd4 1_555 1_555
C61 H57 1_555 1_555
C63 N12 1_555 1_555
H58 C63 1_555 1_555
C64 C61 1_555 1_555
H60 C65 1_555 1_555
H61 C65 1_555 1_555
H62 C65 1_555 1_555
C76 N12 1_555 1_555
H70 C76 1_555 1_555
C78 C64 1_555 1_555
H74 C78 1_555 1_555
N15 C81 1_555 1_555
C80 H75 1_555 1_555
C81 C80 1_555 1_555
H76 C81 1_555 1_555
C82 C64 1_555 1_555
C83 N15 1_555 1_555
H77 C83 1_555 1_555
C84 C82 1_555 1_555
H78 C84 1_555 1_555
Cd5 O30 1_555 1_555
Cd6 N15 1_555 1_555
O31 Cd6 1_555 1_555
C85 O32 1_555 1_555
O32 Cd5 1_555 1_555
N16 H79 1_555 1_555
O33 Cd5 1_555 1_555
C86 C85 1_555 1_555
H80 C86 1_555 1_555
O34 Cd5 1_555 1_555
O36 Cd6 1_555 1_555
C87 O31 1_555 1_555
C88 C87 1_555 1_555
H81 C88 1_555 1_555
N17 C88 1_555 1_555
H82 N17 1_555 1_555
O38 C94 1_555 1_555
C90 C86 1_555 1_555
H84 C90 1_555 1_555
H85 C90 1_555 1_555
H86 C90 1_555 1_555
C92 C95 1_555 1_555
C94 N17 1_555 1_555
C95 H88 1_555 1_555
C99 N16 1_555 1_555
O40 C99 1_555 1_555
C101 C88 1_555 1_555
H94 C101 1_555 1_555
H95 C101 1_555 1_555
H96 C101 1_555 1_555
Cd7 N10 1_555 1_555
O41 Cd7 1_555 1_555
C103 O42 1_555 1_555
O42 Cd5 1_555 1_555
N19 H97 1_555 1_555
O43 Cd5 1_555 1_555
C104 C103 1_555 1_555
H98 C104 1_555 1_555
O44 C107 1_555 1_555
O45 Cd7 1_555 1_555
C105 O41 1_555 1_555
C106 C105 1_555 1_555
H99 C106 1_555 1_555
O46 C107 1_555 1_555
N20 C106 1_555 1_555
H100 N20 1_555 1_555
C107 C116 1_555 1_555
O47 C112 1_555 1_555
N21 H101 1_555 1_555
O48 C120 1_555 1_555
C108 C104 1_555 1_555
H102 C108 1_555 1_555
H103 C108 1_555 1_555
H104 C108 1_555 1_555
C109 C111 1_555 1_555
C110 C113 1_555 1_555
C111 H105 1_555 1_555
C112 N20 1_555 1_555
C113 H106 1_555 1_555
C114 C109 1_555 1_555
H107 C114 1_555 1_555
C115 C111 1_555 1_555
C116 N21 1_555 1_555
H108 C116 1_555 1_555
C117 N19 1_555 1_555
O49 C117 1_555 1_555
C118 C116 1_555 1_555
H109 C118 1_555 1_555
H110 C118 1_555 1_555
H111 C118 1_555 1_555
C119 C106 1_555 1_555
H112 C119 1_555 1_555
H113 C119 1_555 1_555
H114 C119 1_555 1_555
C120 N21 1_555 1_555
Cd8 N5 1_555 1_555
O50 Cd8 1_555 1_555
C121 O51 1_555 1_555
O51 Cd5 1_555 1_555
N22 H115 1_555 1_555
O52 Cd5 1_555 1_555
C122 C121 1_555 1_555
H116 C122 1_555 1_555
O54 Cd8 1_555 1_555
C123 O50 1_555 1_555
C124 C123 1_555 1_555
H117 C124 1_555 1_555
N23 C124 1_555 1_555
H118 N23 1_555 1_555
O56 C130 1_555 1_555
C126 C122 1_555 1_555
H120 C126 1_555 1_555
H121 C126 1_555 1_555
H122 C126 1_555 1_555
C128 C131 1_555 1_555
C130 N23 1_555 1_555
C131 H124 1_555 1_555
C135 N22 1_555 1_555
O58 C135 1_555 1_555
C137 C124 1_555 1_555
H130 C137 1_555 1_555
H131 C137 1_555 1_555
H132 C137 1_555 1_555
Cd12 O42 1_555 1_555
Cd13 O32 1_555 1_555
Cd14 O33 1_555 1_555
Cd18 O44 1_555 1_555
O61 Cd4 1_555 1_555
O62 Cd7 1_555 1_555
O63 Cd6 1_555 1_555
O64 Cd8 1_555 1_555
O65 Cd4 1_555 1_555
O70 Cd6 1_555 1_555
O71 Cd8 1_555 1_555
O72 Cd6 1_555 1_555
O73 Cd7 1_555 1_555
O74 Cd4 1_555 1_555
O77 Cd8 1_555 1_555
O78 Cd6 1_555 1_555
O79 Cd7 1_555 1_555
O80 Cd4 1_555 1_555
C61 C63 1_555 1_555
C76 C78 1_555 1_555
C80 C82 1_555 1_555
C83 C84 1_555 1_555
C85 O33 1_555 1_555
N16 C86 1_555 1_555
O36 C87 1_555 1_555
C92 C99 1_555 1_555
C94 C97 1_555 1_555
C95 C97 1_555 1_555
C103 O43 1_555 1_555
N19 C104 1_555 1_555
O43 Cd13 1_555 1_555
O45 C105 1_555 1_555
O46 Cd18 1_555 1_555
C109 C120 1_555 1_555
C110 C114 1_555 1_555
C110 C117 1_555 1_555
C112 C115 1_555 1_555
C113 C115 1_555 1_555
C121 O52 1_555 1_555
O51 Cd14 1_555 1_555
N22 C122 1_555 1_555
O52 Cd12 1_555 1_555
O54 C123 1_555 1_555
C128 C135 1_555 1_555
C130 C133 1_555 1_555
C131 C133 1_555 1_555
C1 O3 1_555 1_555
O3 Cd1 1_555 1_555
N1 H1 1_555 1_555
O4 Cd1 1_555 1_555
C2 C1 1_555 1_555
H2 C2 1_555 1_555
O5 Cd1 1_555 1_555
N4 H7 1_555 1_555
C11 C14 1_555 1_555
C14 H12 1_555 1_555
C15 C10 1_555 1_555
H13 C15 1_555 1_555
C18 N1 1_555 1_555
O11 C18 1_555 1_555
H15 C19 1_555 1_555
H16 C19 1_555 1_555
H17 C19 1_555 1_555
C29 O13 1_555 1_555
O13 Cd1 1_555 1_555
N6 H27 1_555 1_555
O14 Cd1 1_555 1_555
C30 C29 1_555 1_555
H28 C30 1_555 1_555
N9 H33 1_555 1_555
C39 C42 1_555 1_555
C42 H38 1_555 1_555
C43 C38 1_555 1_555
H39 C43 1_555 1_555
C46 N6 1_555 1_555
O20 C46 1_555 1_555
H41 C47 1_555 1_555
H42 C47 1_555 1_555
H43 C47 1_555 1_555
O21 C59 1_555 1_555
C57 O22 1_555 1_555
O22 Cd1 1_555 1_555
N11 H53 1_555 1_555
O23 Cd1 1_555 1_555
C58 C57 1_555 1_555
H54 C58 1_555 1_555
O24 C62 1_555 1_555
C60 C59 1_555 1_555
H55 C60 1_555 1_555
O26 C62 1_555 1_555
N13 C60 1_555 1_555
H56 N13 1_555 1_555
C62 C73 1_555 1_555
O27 C69 1_555 1_555
N14 H59 1_555 1_555
O28 C79 1_555 1_555
C66 C68 1_555 1_555
C67 C70 1_555 1_555
C68 H63 1_555 1_555
C69 N13 1_555 1_555
C70 H64 1_555 1_555
C71 C66 1_555 1_555
H65 C71 1_555 1_555
C72 C68 1_555 1_555
C73 N14 1_555 1_555
H66 C73 1_555 1_555
C74 N11 1_555 1_555
O29 C74 1_555 1_555
C75 C73 1_555 1_555
H67 C75 1_555 1_555
H68 C75 1_555 1_555
H69 C75 1_555 1_555
C77 C60 1_555 1_555
H71 C77 1_555 1_555
H72 C77 1_555 1_555
H73 C77 1_555 1_555
C79 N14 1_555 1_555
Cd9 O13 1_555 1_555
Cd10 O3 1_555 1_555
Cd11 O4 1_555 1_555
Cd16 O24 1_555 1_555
C1 O4 1_555 1_555
N1 C2 1_555 1_555
C11 C15 1_555 1_555
C11 C18 1_555 1_555
C29 O14 1_555 1_555
N6 C30 1_555 1_555
O14 Cd10 1_555 1_555
C39 C43 1_555 1_555
C39 C46 1_555 1_555
C57 O23 1_555 1_555
O22 Cd11 1_555 1_555
N11 C58 1_555 1_555
O23 Cd9 1_555 1_555
O26 Cd16 1_555 1_555
C66 C79 1_555 1_555
C67 C71 1_555 1_555
C67 C74 1_555 1_555
C69 C72 1_555 1_555
C70 C72 1_555 1_555
O16 Cd3 1_555 1_555
N7 Cd3 1_555 1_555
C33 H31 1_555 1_555
C35 N7 1_555 1_555
H32 C35 1_555 1_555
C36 C33 1_555 1_555
C48 N7 1_555 1_555
H44 C48 1_555 1_555
C50 C36 1_555 1_555
H48 C50 1_555 1_555
C52 H49 1_555 1_555
C53 C52 1_555 1_555
C54 C36 1_555 1_555
C56 C54 1_555 1_555
H52 C56 1_555 1_555
O53 C125 1_555 1_555
O55 C125 1_555 1_555
C125 C134 1_555 1_555
N24 H119 1_555 1_555
O57 C138 1_555 1_555
C127 C129 1_555 1_555
C129 H123 1_555 1_555
C132 C127 1_555 1_555
H125 C132 1_555 1_555
C134 N24 1_555 1_555
H126 C134 1_555 1_555
C136 C134 1_555 1_555
H127 C136 1_555 1_555
H128 C136 1_555 1_555
H129 C136 1_555 1_555
C138 N24 1_555 1_555
Cd19 O53 1_555 1_555
O59 Cd3 1_555 1_555
O66 Cd3 1_555 1_555
O76 Cd3 1_555 1_555
O82 Cd3 1_555 1_555
C33 C35 1_555 1_555
C48 C50 1_555 1_555
C52 C54 1_555 1_555
C55 C56 1_555 1_555
O55 Cd19 1_555 1_555
C127 C138 1_555 1_555
O12 C31 1_555 1_555
O15 C34 1_555 1_555
C32 C31 1_555 1_555
H29 C32 1_555 1_555
O17 C34 1_555 1_555
N8 C32 1_555 1_555
C34 C45 1_555 1_555
O18 C41 1_555 1_555
O19 C51 1_555 1_555
C40 H37 1_555 1_555
C41 N8 1_555 1_555
C44 C40 1_555 1_555
H40 C45 1_555 1_555
C49 C32 1_555 1_555
H45 C49 1_555 1_555
H46 C49 1_555 1_555
Cd15 O15 1_555 1_555
O17 Cd15 1_555 1_555
C41 C44 1_555 1_555
O2_2 C3_2 1_555 1_555
O71 C6_2 1_555 1_555
C4_2 C3_2 1_555 1_555
H3_2 C4_2 1_555 1_555
O77 C6_2 1_555 1_555
N3_2 C4_2 1_555 1_555
C6_2 C17_2 1_555 1_555
O9_2 C13_2 1_555 1_555
O10_2 C23_2 1_555 1_555
C12_2 H11_2 1_555 1_555
C13_2 N3_2 1_555 1_555
C16_2 C12_2 1_555 1_555
H14_2 C17_2 1_555 1_555
C21_2 C4_2 1_555 1_555
H19_2 C21_2 1_555 1_555
H20_2 C21_2 1_555 1_555
C13_2 C16_2 1_555 1_555
O7_2 Cd9 1_555 1_555
N2_2 Cd9 1_555 1_555
C5_2 H5_2 1_555 1_555
C7_2 N2_2 1_555 1_555
H6_2 C7_2 1_555 1_555
C8_2 C5_2 1_555 1_555
C20_2 N2_2 1_555 1_555
H18_2 C20_2 1_555 1_555
C22_2 C8_2 1_555 1_555
H22_2 C22_2 1_555 1_555
C24_2 H23_2 1_555 1_555
C25_2 C24_2 1_555 1_555
C26_2 C8_2 1_555 1_555
C28_2 C26_2 1_555 1_555
H26_2 C28_2 1_555 1_555
O35_2 C89_2 1_555 1_555
O37_2 C89_2 1_555 1_555
C89_2 C98_2 1_555 1_555
N18_2 H83_2 1_555 1_555
O39_2 C102_2 1_555 1_555
C91_2 C93_2 1_555 1_555
C93_2 H87_2 1_555 1_555
C96_2 C91_2 1_555 1_555
H89_2 C96_2 1_555 1_555
C98_2 N18_2 1_555 1_555
H90_2 C98_2 1_555 1_555
C100_2 C98_2 1_555 1_555
H91_2 C100_2 1_555 1_555
H92_2 C100_2 1_555 1_555
H93_2 C100_2 1_555 1_555
C102_2 N18_2 1_555 1_555
Cd14 O35_2 1_555 1_555
O75_2 Cd9 1_555 1_555
O81_2 Cd9 1_555 1_555
C5_2 C7_2 1_555 1_555
C20_2 C22_2 1_555 1_555
C24_2 C26_2 1_555 1_555
C27_2 C28_2 1_555 1_555
O37_2 Cd14 1_555 1_555
C91_2 C102_2 1_555 1_555
C1_2 O59 1_555 1_555
O59 Cd1_2 1_555 1_555
N1_2 H1_2 1_555 1_555
O65 Cd1_2 1_555 1_555
C2_2 C1_2 1_555 1_555
H2_2 C2_2 1_555 1_555
O5_2 Cd1_2 1_555 1_555
N4_2 H7_2 1_555 1_555
C11_2 C14_2 1_555 1_555
C14_2 H12_2 1_555 1_555
C15_2 C10_2 1_555 1_555
H13_2 C15_2 1_555 1_555
C18_2 N1_2 1_555 1_555
O11_2 C18_2 1_555 1_555
H15_2 C19_2 1_555 1_555
H16_2 C19_2 1_555 1_555
H17_2 C19_2 1_555 1_555
C29_2 O60 1_555 1_555
O60 Cd1_2 1_555 1_555
N6_2 H27_2 1_555 1_555
O66 Cd1_2 1_555 1_555
C30_2 C29_2 1_555 1_555
H28_2 C30_2 1_555 1_555
N9_2 H33_2 1_555 1_555
C39_2 C42_2 1_555 1_555
C42_2 H38_2 1_555 1_555
C43_2 C38_2 1_555 1_555
H39_2 C43_2 1_555 1_555
C46_2 N6_2 1_555 1_555
O20_2 C46_2 1_555 1_555
H41_2 C47_2 1_555 1_555
H42_2 C47_2 1_555 1_555
H43_2 C47_2 1_555 1_555
O21_2 C59_2 1_555 1_555
C57_2 O61 1_555 1_555
O61 Cd1_2 1_555 1_555
N11_2 H53_2 1_555 1_555
O67 Cd1_2 1_555 1_555
C58_2 C57_2 1_555 1_555
H54_2 C58_2 1_555 1_555
O73 C62_2 1_555 1_555
C60_2 C59_2 1_555 1_555
H55_2 C60_2 1_555 1_555
O79 C62_2 1_555 1_555
N13_2 C60_2 1_555 1_555
H56_2 N13_2 1_555 1_555
C62_2 C73_2 1_555 1_555
O27_2 C69_2 1_555 1_555
N14_2 H59_2 1_555 1_555
O28_2 C79_2 1_555 1_555
C66_2 C68_2 1_555 1_555
C67_2 C70_2 1_555 1_555
C68_2 H63_2 1_555 1_555
C69_2 N13_2 1_555 1_555
C70_2 H64_2 1_555 1_555
C71_2 C66_2 1_555 1_555
H65_2 C71_2 1_555 1_555
C72_2 C68_2 1_555 1_555
C73_2 N14_2 1_555 1_555
H66_2 C73_2 1_555 1_555
C74_2 N11_2 1_555 1_555
O29_2 C74_2 1_555 1_555
C75_2 C73_2 1_555 1_555
H67_2 C75_2 1_555 1_555
H68_2 C75_2 1_555 1_555
H69_2 C75_2 1_555 1_555
C77_2 C60_2 1_555 1_555
H71_2 C77_2 1_555 1_555
H72_2 C77_2 1_555 1_555
H73_2 C77_2 1_555 1_555
C79_2 N14_2 1_555 1_555
C1_2 O65 1_555 1_555
N1_2 C2_2 1_555 1_555
C11_2 C15_2 1_555 1_555
C11_2 C18_2 1_555 1_555
C29_2 O66 1_555 1_555
N6_2 C30_2 1_555 1_555
C39_2 C43_2 1_555 1_555
C39_2 C46_2 1_555 1_555
C57_2 O67 1_555 1_555
N11_2 C58_2 1_555 1_555
C66_2 C79_2 1_555 1_555
C67_2 C71_2 1_555 1_555
C67_2 C74_2 1_555 1_555
C69_2 C72_2 1_555 1_555
C70_2 C72_2 1_555 1_555
H8_2 C9_2 1_555 1_555
H9_2 C9_2 1_555 1_555
H10_2 C9_2 1_555 1_555
H34_2 C37_2 1_555 1_555
H35_2 C37_2 1_555 1_555
H36_2 C37_2 1_555 1_555
O25_2 Cd11 1_555 1_555
N12_2 Cd11 1_555 1_555
C61_2 H57_2 1_555 1_555
C63_2 N12_2 1_555 1_555
H58_2 C63_2 1_555 1_555
C64_2 C61_2 1_555 1_555
H60_2 C65_2 1_555 1_555
H61_2 C65_2 1_555 1_555
H62_2 C65_2 1_555 1_555
C76_2 N12_2 1_555 1_555
H70_2 C76_2 1_555 1_555
C78_2 C64_2 1_555 1_555
H74_2 C78_2 1_555 1_555
N15_2 C81_2 1_555 1_555
C80_2 H75_2 1_555 1_555
C81_2 C80_2 1_555 1_555
H76_2 C81_2 1_555 1_555
C82_2 C64_2 1_555 1_555
C83_2 N15_2 1_555 1_555
H77_2 C83_2 1_555 1_555
C84_2 C82_2 1_555 1_555
H78_2 C84_2 1_555 1_555
Cd5_2 O30_2 1_555 1_555
Cd15 N15_2 1_555 1_555
O31_2 Cd15 1_555 1_555
C85_2 O32_2 1_555 1_555
O32_2 Cd5_2 1_555 1_555
N16_2 H79_2 1_555 1_555
O33_2 Cd5_2 1_555 1_555
C86_2 C85_2 1_555 1_555
H80_2 C86_2 1_555 1_555
O34_2 Cd5_2 1_555 1_555
O36_2 Cd15 1_555 1_555
C87_2 O31_2 1_555 1_555
C88_2 C87_2 1_555 1_555
H81_2 C88_2 1_555 1_555
N17_2 C88_2 1_555 1_555
H82_2 N17_2 1_555 1_555
O38_2 C94_2 1_555 1_555
C90_2 C86_2 1_555 1_555
H84_2 C90_2 1_555 1_555
H85_2 C90_2 1_555 1_555
H86_2 C90_2 1_555 1_555
C92_2 C95_2 1_555 1_555
C94_2 N17_2 1_555 1_555
C95_2 H88_2 1_555 1_555
C99_2 N16_2 1_555 1_555
O40_2 C99_2 1_555 1_555
C101_2 C88_2 1_555 1_555
H94_2 C101_2 1_555 1_555
H95_2 C101_2 1_555 1_555
H96_2 C101_2 1_555 1_555
Cd16 N10_2 1_555 1_555
O41_2 Cd16 1_555 1_555
C103_2 O42_2 1_555 1_555
O42_2 Cd5_2 1_555 1_555
N19_2 H97_2 1_555 1_555
O43_2 Cd5_2 1_555 1_555
C104_2 C103_2 1_555 1_555
H98_2 C104_2 1_555 1_555
O44_2 C107_2 1_555 1_555
O45_2 Cd16 1_555 1_555
C105_2 O41_2 1_555 1_555
C106_2 C105_2 1_555 1_555
H99_2 C106_2 1_555 1_555
O46_2 C107_2 1_555 1_555
N20_2 C106_2 1_555 1_555
H100_2 N20_2 1_555 1_555
C107_2 C116_2 1_555 1_555
O47_2 C112_2 1_555 1_555
N21_2 H101_2 1_555 1_555
O48_2 C120_2 1_555 1_555
C108_2 C104_2 1_555 1_555
H102_2 C108_2 1_555 1_555
H103_2 C108_2 1_555 1_555
H104_2 C108_2 1_555 1_555
C109_2 C111_2 1_555 1_555
C110_2 C113_2 1_555 1_555
C111_2 H105_2 1_555 1_555
C112_2 N20_2 1_555 1_555
C113_2 H106_2 1_555 1_555
C114_2 C109_2 1_555 1_555
H107_2 C114_2 1_555 1_555
C115_2 C111_2 1_555 1_555
C116_2 N21_2 1_555 1_555
H108_2 C116_2 1_555 1_555
C117_2 N19_2 1_555 1_555
O49_2 C117_2 1_555 1_555
C118_2 C116_2 1_555 1_555
H109_2 C118_2 1_555 1_555
H110_2 C118_2 1_555 1_555
H111_2 C118_2 1_555 1_555
C119_2 C106_2 1_555 1_555
H112_2 C119_2 1_555 1_555
H113_2 C119_2 1_555 1_555
H114_2 C119_2 1_555 1_555
C120_2 N21_2 1_555 1_555
Cd17 N5_2 1_555 1_555
O50_2 Cd17 1_555 1_555
C121_2 O51_2 1_555 1_555
O51_2 Cd5_2 1_555 1_555
N22_2 H115_2 1_555 1_555
O52_2 Cd5_2 1_555 1_555
C122_2 C121_2 1_555 1_555
H116_2 C122_2 1_555 1_555
O54_2 Cd17 1_555 1_555
C123_2 O50_2 1_555 1_555
C124_2 C123_2 1_555 1_555
H117_2 C124_2 1_555 1_555
N23_2 C124_2 1_555 1_555
H118_2 N23_2 1_555 1_555
O56_2 C130_2 1_555 1_555
C126_2 C122_2 1_555 1_555
H120_2 C126_2 1_555 1_555
H121_2 C126_2 1_555 1_555
H122_2 C126_2 1_555 1_555
C128_2 C131_2 1_555 1_555
C130_2 N23_2 1_555 1_555
C131_2 H124_2 1_555 1_555
C135_2 N22_2 1_555 1_555
O58_2 C135_2 1_555 1_555
C137_2 C124_2 1_555 1_555
H130_2 C137_2 1_555 1_555
H131_2 C137_2 1_555 1_555
H132_2 C137_2 1_555 1_555
Cd18 O42_2 1_555 1_555
Cd19 O32_2 1_555 1_555
Cd20 O33_2 1_555 1_555
Cd12 O44_2 1_555 1_555
O62_2 Cd16 1_555 1_555
O63_2 Cd15 1_555 1_555
O64_2 Cd17 1_555 1_555
O70_2 Cd15 1_555 1_555
O74_2 Cd11 1_555 1_555
O80_2 Cd11 1_555 1_555
C61_2 C63_2 1_555 1_555
C76_2 C78_2 1_555 1_555
C80_2 C82_2 1_555 1_555
C83_2 C84_2 1_555 1_555
C85_2 O33_2 1_555 1_555
N16_2 C86_2 1_555 1_555
O36_2 C87_2 1_555 1_555
C92_2 C99_2 1_555 1_555
C94_2 C97_2 1_555 1_555
C95_2 C97_2 1_555 1_555
C103_2 O43_2 1_555 1_555
N19_2 C104_2 1_555 1_555
O43_2 Cd19 1_555 1_555
O45_2 C105_2 1_555 1_555
O46_2 Cd12 1_555 1_555
C109_2 C120_2 1_555 1_555
C110_2 C114_2 1_555 1_555
C110_2 C117_2 1_555 1_555
C112_2 C115_2 1_555 1_555
C113_2 C115_2 1_555 1_555
C121_2 O52_2 1_555 1_555
O51_2 Cd20 1_555 1_555
N22_2 C122_2 1_555 1_555
O52_2 Cd18 1_555 1_555
O54_2 C123_2 1_555 1_555
C128_2 C135_2 1_555 1_555
C130_2 C133_2 1_555 1_555
C131_2 C133_2 1_555 1_555
O12_2 C31_2 1_555 1_555
O72 C34_2 1_555 1_555
C32_2 C31_2 1_555 1_555
H29_2 C32_2 1_555 1_555
O78 C34_2 1_555 1_555
N8_2 C32_2 1_555 1_555
C34_2 C45_2 1_555 1_555
O18_2 C41_2 1_555 1_555
O19_2 C51_2 1_555 1_555
C40_2 H37_2 1_555 1_555
C41_2 N8_2 1_555 1_555
C44_2 C40_2 1_555 1_555
H40_2 C45_2 1_555 1_555
C49_2 C32_2 1_555 1_555
H45_2 C49_2 1_555 1_555
H46_2 C49_2 1_555 1_555
C41_2 C44_2 1_555 1_555
O16_2 Cd10 1_555 1_555
N7_2 Cd10 1_555 1_555
C33_2 H31_2 1_555 1_555
C35_2 N7_2 1_555 1_555
H32_2 C35_2 1_555 1_555
C36_2 C33_2 1_555 1_555
C48_2 N7_2 1_555 1_555
H44_2 C48_2 1_555 1_555
C50_2 C36_2 1_555 1_555
H48_2 C50_2 1_555 1_555
C52_2 H49_2 1_555 1_555
C53_2 C52_2 1_555 1_555
C54_2 C36_2 1_555 1_555
C56_2 C54_2 1_555 1_555
H52_2 C56_2 1_555 1_555
O53_2 C125_2 1_555 1_555
O55_2 C125_2 1_555 1_555
C125_2 C134_2 1_555 1_555
N24_2 H119_2 1_555 1_555
O57_2 C138_2 1_555 1_555
C127_2 C129_2 1_555 1_555
C129_2 H123_2 1_555 1_555
C132_2 C127_2 1_555 1_555
H125_2 C132_2 1_555 1_555
C134_2 N24_2 1_555 1_555
H126_2 C134_2 1_555 1_555
C136_2 C134_2 1_555 1_555
H127_2 C136_2 1_555 1_555
H128_2 C136_2 1_555 1_555
H129_2 C136_2 1_555 1_555
C138_2 N24_2 1_555 1_555
Cd13 O53_2 1_555 1_555
O76_2 Cd10 1_555 1_555
O82_2 Cd10 1_555 1_555
C33_2 C35_2 1_555 1_555
C48_2 C50_2 1_555 1_555
C52_2 C54_2 1_555 1_555
C55_2 C56_2 1_555 1_555
O55_2 Cd13 1_555 1_555
C127_2 C138_2 1_555 1_555
Cd1_3 O1_3 1_555 1_555
Cd12 O2_3 1_555 1_555
O2_3 C3_3 1_555 1_555
C1_3 O62 1_555 1_555
O62 Cd1_3 1_555 1_555
N1_3 H1_3 1_555 1_555
O68 Cd1_3 1_555 1_555
C2_3 C1_3 1_555 1_555
H2_3 C2_3 1_555 1_555
O5_3 Cd1_3 1_555 1_555
O74 C6_3 1_555 1_555
O7_3 Cd12 1_555 1_555
C3_3 O7_3 1_555 1_555
C4_3 C3_3 1_555 1_555
H3_3 C4_3 1_555 1_555
N2_3 Cd12 1_555 1_555
O80 C6_3 1_555 1_555
N3_3 C4_3 1_555 1_555
H4_3 N3_3 1_555 1_555
C5_3 H5_3 1_555 1_555
C6_3 C17_3 1_555 1_555
C7_3 N2_3 1_555 1_555
H6_3 C7_3 1_555 1_555
C8_3 C5_3 1_555 1_555
O9_3 C13_3 1_555 1_555
N4_3 H7_3 1_555 1_555
O10_3 C23_3 1_555 1_555
C9_3 C2_3 1_555 1_555
H8_3 C9_3 1_555 1_555
H9_3 C9_3 1_555 1_555
H10_3 C9_3 1_555 1_555
C10_3 C12_3 1_555 1_555
C11_3 C14_3 1_555 1_555
C12_3 H11_3 1_555 1_555
C13_3 N3_3 1_555 1_555
C14_3 H12_3 1_555 1_555
C15_3 C10_3 1_555 1_555
H13_3 C15_3 1_555 1_555
C16_3 C12_3 1_555 1_555
C17_3 N4_3 1_555 1_555
H14_3 C17_3 1_555 1_555
C18_3 N1_3 1_555 1_555
O11_3 C18_3 1_555 1_555
C19_3 C17_3 1_555 1_555
H15_3 C19_3 1_555 1_555
H16_3 C19_3 1_555 1_555
H17_3 C19_3 1_555 1_555
C20_3 N2_3 1_555 1_555
H18_3 C20_3 1_555 1_555
C21_3 C4_3 1_555 1_555
H19_3 C21_3 1_555 1_555
H20_3 C21_3 1_555 1_555
H21_3 C21_3 1_555 1_555
C22_3 C8_3 1_555 1_555
H22_3 C22_3 1_555 1_555
C23_3 N4_3 1_555 1_555
N15_3 C81_3 1_555 1_555
C80_3 H75_3 1_555 1_555
C81_3 C80_3 1_555 1_555
H76_3 C81_3 1_555 1_555
C83_3 N15_3 1_555 1_555
H77_3 C83_3 1_555 1_555
C84_3 C82_3 1_555 1_555
H78_3 C84_3 1_555 1_555
Cd5_3 O30_3 1_555 1_555
Cd18 N15_3 1_555 1_555
O31_3 Cd18 1_555 1_555
C85_3 O62_2 1_555 1_555
O62_2 Cd5_3 1_555 1_555
N16_3 H79_3 1_555 1_555
O68_2 Cd5_3 1_555 1_555
C86_3 C85_3 1_555 1_555
H80_3 C86_3 1_555 1_555
O34_3 Cd5_3 1_555 1_555
O74_2 C89_3 1_555 1_555
O36_3 Cd18 1_555 1_555
C87_3 O31_3 1_555 1_555
C88_3 C87_3 1_555 1_555
H81_3 C88_3 1_555 1_555
O80_2 C89_3 1_555 1_555
N17_3 C88_3 1_555 1_555
H82_3 N17_3 1_555 1_555
C89_3 C98_3 1_555 1_555
O38_3 C94_3 1_555 1_555
N18_3 H83_3 1_555 1_555
O39_3 C102_3 1_555 1_555
C90_3 C86_3 1_555 1_555
H84_3 C90_3 1_555 1_555
H85_3 C90_3 1_555 1_555
H86_3 C90_3 1_555 1_555
C91_3 C93_3 1_555 1_555
C92_3 C95_3 1_555 1_555
C93_3 H87_3 1_555 1_555
C94_3 N17_3 1_555 1_555
C95_3 H88_3 1_555 1_555
C96_3 C91_3 1_555 1_555
H89_3 C96_3 1_555 1_555
C97_3 C93_3 1_555 1_555
C98_3 N18_3 1_555 1_555
H90_3 C98_3 1_555 1_555
C99_3 N16_3 1_555 1_555
O40_3 C99_3 1_555 1_555
C100_3 C98_3 1_555 1_555
H91_3 C100_3 1_555 1_555
H92_3 C100_3 1_555 1_555
H93_3 C100_3 1_555 1_555
C101_3 C88_3 1_555 1_555
H94_3 C101_3 1_555 1_555
H95_3 C101_3 1_555 1_555
H96_3 C101_3 1_555 1_555
C102_3 N18_3 1_555 1_555
C1_3 O68 1_555 1_555
N1_3 C2_3 1_555 1_555
C5_3 C7_3 1_555 1_555
C10_3 C23_3 1_555 1_555
C11_3 C15_3 1_555 1_555
C11_3 C18_3 1_555 1_555
C13_3 C16_3 1_555 1_555
C14_3 C16_3 1_555 1_555
C20_3 C22_3 1_555 1_555
C80_3 C82_3 1_555 1_555
C83_3 C84_3 1_555 1_555
C85_3 O68_2 1_555 1_555
N16_3 C86_3 1_555 1_555
O36_3 C87_3 1_555 1_555
C91_3 C102_3 1_555 1_555
C92_3 C96_3 1_555 1_555
C92_3 C99_3 1_555 1_555
C94_3 C97_3 1_555 1_555
C95_3 C97_3 1_555 1_555
O34_3 H135 1_555 1_555
O5_3 H139 1_555 1_555
Cd1_4 O1_4 1_555 1_555
O5_4 Cd1_4 1_555 1_555
Cd14 O21_3 1_555 1_555
O21_3 C59_3 1_555 1_555
O64 Cd1_4 1_555 1_555
O25_3 Cd14 1_555 1_555
C59_3 O25_3 1_555 1_555
C60_3 C59_3 1_555 1_555
H55_3 C60_3 1_555 1_555
N12_3 Cd14 1_555 1_555
N13_3 C60_3 1_555 1_555
H56_3 N13_3 1_555 1_555
C61_3 H57_3 1_555 1_555
C63_3 N12_3 1_555 1_555
H58_3 C63_3 1_555 1_555
C64_3 C61_3 1_555 1_555
O27_3 C69_3 1_555 1_555
C68_3 H63_3 1_555 1_555
C69_3 N13_3 1_555 1_555
C70_3 H64_3 1_555 1_555
C72_3 C68_3 1_555 1_555
C76_3 N12_3 1_555 1_555
H70_3 C76_3 1_555 1_555
C77_3 C60_3 1_555 1_555
H71_3 C77_3 1_555 1_555
H72_3 C77_3 1_555 1_555
H73_3 C77_3 1_555 1_555
C78_3 C64_3 1_555 1_555
H74_3 C78_3 1_555 1_555
Cd5_4 O30_4 1_555 1_555
O34_4 Cd5_4 1_555 1_555
N19_3 H97_3 1_555 1_555
O69_2 Cd5_4 1_555 1_555
C104_3 C103_3 1_555 1_555
H98_3 C104_3 1_555 1_555
O75_2 C107_3 1_555 1_555
O81_2 C107_3 1_555 1_555
C107_3 C116_3 1_555 1_555
N21_3 H101_3 1_555 1_555
O48_3 C120_3 1_555 1_555
C108_3 C104_3 1_555 1_555
H102_3 C108_3 1_555 1_555
H103_3 C108_3 1_555 1_555
H104_3 C108_3 1_555 1_555
C114_3 C109_3 1_555 1_555
H107_3 C114_3 1_555 1_555
C116_3 N21_3 1_555 1_555
H108_3 C116_3 1_555 1_555
C117_3 N19_3 1_555 1_555
O49_3 C117_3 1_555 1_555
C118_3 C116_3 1_555 1_555
H109_3 C118_3 1_555 1_555
H110_3 C118_3 1_555 1_555
H111_3 C118_3 1_555 1_555
C120_3 N21_3 1_555 1_555
C61_3 C63_3 1_555 1_555
C69_3 C72_3 1_555 1_555
C70_3 C72_3 1_555 1_555
C76_3 C78_3 1_555 1_555
C103_3 O69_2 1_555 1_555
N19_3 C104_3 1_555 1_555
C109_3 C120_3 1_555 1_555
C110_3 C114_3 1_555 1_555
C110_3 C117_3 1_555 1_555
O30_4 H133 1_555 1_555
Cd1_5 O1_5 1_555 1_555
O5_5 Cd1_5 1_555 1_555
N5_3 C25_3 1_555 1_555
C24_3 H23_3 1_555 1_555
C25_3 C24_3 1_555 1_555
H24_3 C25_3 1_555 1_555
C27_3 N5_3 1_555 1_555
H25_3 C27_3 1_555 1_555
C28_3 C26_3 1_555 1_555
H26_3 C28_3 1_555 1_555
N6_3 H27_3 1_555 1_555
O69 Cd1_5 1_555 1_555
C30_3 C29_3 1_555 1_555
H28_3 C30_3 1_555 1_555
O75 C34_3 1_555 1_555
O81 C34_3 1_555 1_555
C34_3 C45_3 1_555 1_555
N9_3 H33_3 1_555 1_555
O19_3 C51_3 1_555 1_555
C37_3 C30_3 1_555 1_555
H34_3 C37_3 1_555 1_555
H35_3 C37_3 1_555 1_555
H36_3 C37_3 1_555 1_555
C43_3 C38_3 1_555 1_555
H39_3 C43_3 1_555 1_555
C45_3 N9_3 1_555 1_555
H40_3 C45_3 1_555 1_555
C46_3 N6_3 1_555 1_555
O20_3 C46_3 1_555 1_555
C47_3 C45_3 1_555 1_555
H41_3 C47_3 1_555 1_555
H42_3 C47_3 1_555 1_555
H43_3 C47_3 1_555 1_555
C51_3 N9_3 1_555 1_555
Cd5_5 O30_5 1_555 1_555
O34_5 Cd5_5 1_555 1_555
Cd20 N5_3 1_555 1_555
O50_3 Cd20 1_555 1_555
O64_2 Cd5_5 1_555 1_555
O54_3 Cd20 1_555 1_555
C123_3 O50_3 1_555 1_555
C124_3 C123_3 1_555 1_555
H117_3 C124_3 1_555 1_555
N23_3 C124_3 1_555 1_555
H118_3 N23_3 1_555 1_555
O56_3 C130_3 1_555 1_555
C129_3 H123_3 1_555 1_555
C130_3 N23_3 1_555 1_555
C131_3 H124_3 1_555 1_555
C133_3 C129_3 1_555 1_555
C137_3 C124_3 1_555 1_555
H130_3 C137_3 1_555 1_555
H131_3 C137_3 1_555 1_555
H132_3 C137_3 1_555 1_555
C24_3 C26_3 1_555 1_555
C27_3 C28_3 1_555 1_555
C29_3 O69 1_555 1_555
N6_3 C30_3 1_555 1_555
C38_3 C51_3 1_555 1_555
C39_3 C43_3 1_555 1_555
C39_3 C46_3 1_555 1_555
O54_3 C123_3 1_555 1_555
C130_3 C133_3 1_555 1_555
C131_3 C133_3 1_555 1_555
O1_5 H137 1_555 1_555
Cd1_6 O1_6 1_555 1_555
O5_6 Cd1_6 1_555 1_555
Cd13 O12_3 1_555 1_555
O12_3 C31_3 1_555 1_555
O63 Cd1_6 1_555 1_555
O16_3 Cd13 1_555 1_555
C31_3 O16_3 1_555 1_555
C32_3 C31_3 1_555 1_555
H29_3 C32_3 1_555 1_555
N7_3 Cd13 1_555 1_555
N8_3 C32_3 1_555 1_555
H30_3 N8_3 1_555 1_555
C33_3 H31_3 1_555 1_555
C35_3 N7_3 1_555 1_555
H32_3 C35_3 1_555 1_555
C36_3 C33_3 1_555 1_555
O18_3 C41_3 1_555 1_555
C40_3 H37_3 1_555 1_555
C41_3 N8_3 1_555 1_555
C42_3 H38_3 1_555 1_555
C44_3 C40_3 1_555 1_555
C48_3 N7_3 1_555 1_555
H44_3 C48_3 1_555 1_555
C49_3 C32_3 1_555 1_555
H45_3 C49_3 1_555 1_555
H46_3 C49_3 1_555 1_555
H47_3 C49_3 1_555 1_555
C50_3 C36_3 1_555 1_555
H48_3 C50_3 1_555 1_555
N10_3 C53_3 1_555 1_555
C52_3 H49_3 1_555 1_555
C53_3 C52_3 1_555 1_555
H50_3 C53_3 1_555 1_555
C54_3 C36_3 1_555 1_555
C55_3 N10_3 1_555 1_555
H51_3 C55_3 1_555 1_555
C56_3 C54_3 1_555 1_555
H52_3 C56_3 1_555 1_555
N11_3 H53_3 1_555 1_555
O70 Cd1_6 1_555 1_555
C58_3 C57_3 1_555 1_555
H54_3 C58_3 1_555 1_555
O76 C62_3 1_555 1_555
O82 C62_3 1_555 1_555
C62_3 C73_3 1_555 1_555
N14_3 H59_3 1_555 1_555
O28_3 C79_3 1_555 1_555
C65_3 C58_3 1_555 1_555
H60_3 C65_3 1_555 1_555
H61_3 C65_3 1_555 1_555
H62_3 C65_3 1_555 1_555
C71_3 C66_3 1_555 1_555
H65_3 C71_3 1_555 1_555
C73_3 N14_3 1_555 1_555
H66_3 C73_3 1_555 1_555
C74_3 N11_3 1_555 1_555
O29_3 C74_3 1_555 1_555
C75_3 C73_3 1_555 1_555
H67_3 C75_3 1_555 1_555
H68_3 C75_3 1_555 1_555
H69_3 C75_3 1_555 1_555
C79_3 N14_3 1_555 1_555
Cd5_6 O30_6 1_555 1_555
O34_6 Cd5_6 1_555 1_555
Cd19 N10_3 1_555 1_555
O41_3 Cd19 1_555 1_555
O63_2 Cd5_6 1_555 1_555
O45_3 Cd19 1_555 1_555
C105_3 O41_3 1_555 1_555
C106_3 C105_3 1_555 1_555
H99_3 C106_3 1_555 1_555
N20_3 C106_3 1_555 1_555
H100_3 N20_3 1_555 1_555
O47_3 C112_3 1_555 1_555
C111_3 H105_3 1_555 1_555
C112_3 N20_3 1_555 1_555
C113_3 H106_3 1_555 1_555
C115_3 C111_3 1_555 1_555
C119_3 C106_3 1_555 1_555
H112_3 C119_3 1_555 1_555
H113_3 C119_3 1_555 1_555
H114_3 C119_3 1_555 1_555
N22_3 H115_3 1_555 1_555
O70_2 Cd5_6 1_555 1_555
C122_3 C121_3 1_555 1_555
H116_3 C122_3 1_555 1_555
O76_2 C125_3 1_555 1_555
O82_2 C125_3 1_555 1_555
C125_3 C134_3 1_555 1_555
N24_3 H119_3 1_555 1_555
O57_3 C138_3 1_555 1_555
C126_3 C122_3 1_555 1_555
H120_3 C126_3 1_555 1_555
H121_3 C126_3 1_555 1_555
H122_3 C126_3 1_555 1_555
C132_3 C127_3 1_555 1_555
H125_3 C132_3 1_555 1_555
C134_3 N24_3 1_555 1_555
H126_3 C134_3 1_555 1_555
C135_3 N22_3 1_555 1_555
O58_3 C135_3 1_555 1_555
C136_3 C134_3 1_555 1_555
H127_3 C136_3 1_555 1_555
H128_3 C136_3 1_555 1_555
H129_3 C136_3 1_555 1_555
C138_3 N24_3 1_555 1_555
C33_3 C35_3 1_555 1_555
C41_3 C44_3 1_555 1_555
C42_3 C44_3 1_555 1_555
C48_3 C50_3 1_555 1_555
C52_3 C54_3 1_555 1_555
C55_3 C56_3 1_555 1_555
C57_3 O70 1_555 1_555
N11_3 C58_3 1_555 1_555
C66_3 C79_3 1_555 1_555
C67_3 C71_3 1_555 1_555
C67_3 C74_3 1_555 1_555
O45_3 C105_3 1_555 1_555
C112_3 C115_3 1_555 1_555
C113_3 C115_3 1_555 1_555
C121_3 O70_2 1_555 1_555
N22_3 C122_3 1_555 1_555
C127_3 C138_3 1_555 1_555
C128_3 C132_3 1_555 1_555
C128_3 C135_3 1_555 1_555
O30_6 H134 1_555 1_555
O34_6 H136 1_555 1_555
O1_6 H138 1_555 1_555
O5_6 H140 1_555 1_555
O30_3 H133_2 1_555 1_555
O1_3 H138_2 1_555 1_555

#END
