
###############################################################################
#
# This file contains modified crystal structure data generated from the
# MOF subset of the Cambridge Structural Database (CSD) v543 
# hosted by the Cambridge Crystallographic Data Centre (CCDC).
#
# This work is licensed under the Creative Commons
# Attribution-NonCommercial-ShareAlike 4.0 International License.
# To view a copy of this license, visit
# http://creativecommons.org/licenses/by-nc-sa/4.0/
# or send a letter to
# Creative Commons, PO Box 1866, Mountain View, CA 94042, USA.
#
# CIF created using the CSD Python API on 29 September 2022
# The structure has been converted into the P1 space group
# The structure has a 3D framework
# The original CSD entry GUVYAA is in the orthorhombic crystal system
# The framework has been calculated to contain at least 10.0% void space
# The void calculation uses a probe of radius 1.32A, grid spacing 0.4
# The framework is charged, counterions have been retained in the structure
#
###############################################################################

data_GUVYAA
_chemical_formula_moiety         '(C48 H36 O76 P16 S8 Zn16 16-)n'
_symmetry_cell_setting           triclinic
_symmetry_space_group_name_H-M   'P 1'
_symmetry_Int_Tables_number      1
_space_group_name_Hall           'P 1'
loop_
_symmetry_equiv_pos_site_id
_symmetry_equiv_pos_as_xyz
1 x,y,z
_cell_length_a                   19.5786(9)
_cell_length_b                   29.0287(13)
_cell_length_c                   9.9053(4)
_cell_angle_alpha                90
_cell_angle_beta                 90
_cell_angle_gamma                90
_cell_volume                     5629.59
loop_
_atom_site_label
_atom_site_type_symbol
_atom_site_fract_x
_atom_site_fract_y
_atom_site_fract_z
Zn1 Zn 0.07183(3) 0.313179(14) 0.21638(4)
Zn2 Zn 0.15619(2) 0.144054(15) 0.37053(4)
P1 P 0.09507(6) 0.23871(3) 0.43276(10)
H1 H 0.1588 0.2490 0.4342
P2 P 0.22694(6) 0.33226(3) 0.16022(10)
H2 H 0.2370 0.2883 0.1631
O1 O 0.0777(2) 0.23334(11) 0.5783(3)
O2 O 0.09154(16) 0.19472(10) 0.3513(3)
O3 O 0.05084(16) 0.27698(10) 0.3742(3)
O4 O 0.16233(17) 0.34135(11) 0.2384(3)
O5 O 0.28553(17) 0.36112(11) 0.2111(3)
O6 O 0.21979(16) 0.33857(12) 0.0114(3)
O7 O 0.0222(2) 0.39195(12) 0.3772(4)
O8 O 0.0070(2) 0.36091(10) 0.1735(4)
C1 C 0.0017(2) 0.39347(15) 0.2586(5)
Zn3 Zn 0.07183(3) 0.186821(14) 0.71638(4)
Zn4 Zn 0.34381(2) 0.355946(15) 0.37053(4)
O11 O 0.0777(2) 0.26666(11) 0.0783(3)
O12 O 0.21447(17) 0.13888(11) 0.2111(3)
O13 O 0.21979(16) 0.16143(12) 0.5114(3)
O14 O 0.12256(18) 0.08269(10) 0.4059(3)
Zn6 Zn 0.15619(2) 0.355946(15) 0.87053(4)
S1 S 0.96299(7) 0.48414(4) 0.30537(12)
O9 O 0.92307(19) 0.58386(12) 0.3009(4)
O10 O 0.87744(18) 0.58269(10) 0.0941(3)
C2 C 0.9697(2) 0.43591(14) 0.2056(4)
C3 C 0.9447(3) 0.44372(15) 0.0796(5)
H3 H 0.9436 0.4216 0.0118
C4 C 0.9207(3) 0.48893(16) 0.0633(5)
C5 C 0.9271(2) 0.51474(14) 0.1765(5)
C6 C 0.9090(2) 0.56423(15) 0.1950(5)
Zn5 Zn 0.84381(2) 0.644054(15) 0.12947(4)
S1_2 S 0.53701(7) 0.01586(4) 0.30537(12)
Zn1_2 Zn 0.42817(3) 0.186821(14) 0.21638(4)
P1_2 P 0.40493(6) 0.26129(3) 0.43276(10)
H1_2 H 0.3412 0.2510 0.4342
P2_2 P 0.27306(6) 0.16774(3) 0.16022(10)
H2_2 H 0.2630 0.2117 0.1631
O1_2 O 0.4223(2) 0.26666(11) 0.5783(3)
O2_2 O 0.40846(16) 0.30528(10) 0.3513(3)
O3_2 O 0.44916(16) 0.22302(10) 0.3742(3)
O4_2 O 0.33767(17) 0.15865(11) 0.2384(3)
O6_2 O 0.28021(16) 0.16143(12) 0.0114(3)
O7_2 O 0.4778(2) 0.10805(12) 0.3772(4)
O8_2 O 0.4930(2) 0.13909(10) 0.1735(4)
C1_2 C 0.4983(2) 0.10653(15) 0.2586(5)
C2_2 C 0.5303(2) 0.06409(14) 0.2056(4)
C3_2 C 0.5553(3) 0.05628(15) 0.0796(5)
H3_2 H 0.5564 0.0784 0.0118
C4_2 C 0.5793(3) 0.01107(16) 0.0633(5)
Zn3_2 Zn 0.42817(3) 0.313179(14) 0.71638(4)
O11_2 O 0.4223(2) 0.23334(11) 0.0783(3)
O13_2 O 0.28021(16) 0.33857(12) 0.5114(3)
O14_2 O 0.37744(18) 0.41731(10) 0.4059(3)
H4 H 0.5978 0.0000 0.9831
Zn6_2 Zn 0.34381(2) 0.144054(15) 0.87053(4)
O9_2 O 0.57693(19) 0.91614(12) 0.3009(4)
O10_2 O 0.62256(18) 0.91731(10) 0.0941(3)
C5_2 C 0.5729(2) 0.98526(14) 0.1765(5)
C6_2 C 0.5910(2) 0.93577(15) 0.1950(5)
Zn5_2 Zn 0.65619(2) 0.855946(15) 0.12947(4)
O9_3 O 0.07693(19) 0.08386(12) 0.1991(4)
H4_2 H 0.0978 -0.0000 0.5169
C5_3 C 0.0729(2) 0.01474(14) 0.3235(5)
C6_3 C 0.0910(2) 0.06423(15) 0.3050(5)
Zn1_3 Zn 0.92817(3) 0.813179(14) 0.28362(4)
P1_3 P 0.90493(6) 0.73871(3) 0.06724(10)
H1_3 H 0.8412 0.7490 0.0658
P2_3 P 0.77306(6) 0.83226(3) 0.33978(10)
H2_3 H 0.7630 0.7883 0.3369
O2_3 O 0.90846(16) 0.69472(10) 0.1487(3)
O3_3 O 0.94916(16) 0.77698(10) 0.1258(3)
O4_3 O 0.83767(17) 0.84135(11) 0.2616(3)
O5_2 O 0.71447(17) 0.86112(11) 0.2889(3)
O6_3 O 0.78021(16) 0.83857(12) 0.4886(3)
O7_3 O 0.9778(2) 0.89195(12) 0.1228(4)
O8_3 O 0.9930(2) 0.86091(10) 0.3265(4)
C1_3 C 0.9983(2) 0.89347(15) 0.2414(5)
Zn6_3 Zn 0.84381(2) 0.855946(15) 0.62947(4)
O11_3 O 0.9223(2) 0.76666(11) 0.4217(3)
O12_2 O 0.78553(17) 0.63888(11) 0.2889(3)
O1_3 O 0.9223(2) 0.73334(11) 0.9217(3)
Zn3_3 Zn 0.92817(3) 0.686821(14) 0.78362(4)
O13_3 O 0.78021(16) 0.66143(12) 0.9886(3)
S1_3 S 0.46299(7) 0.51586(4) 0.19463(12)
Zn1_4 Zn 0.57183(3) 0.686821(14) 0.28362(4)
P1_4 P 0.59507(6) 0.76129(3) 0.06724(10)
H1_4 H 0.6588 0.7510 0.0658
P2_4 P 0.72694(6) 0.66774(3) 0.33978(10)
H2_4 H 0.7370 0.7117 0.3369
O2_4 O 0.59154(16) 0.80528(10) 0.1487(3)
O3_4 O 0.55084(16) 0.72302(10) 0.1258(3)
O4_4 O 0.66233(17) 0.65865(11) 0.2616(3)
O6_4 O 0.71979(16) 0.66143(12) 0.4886(3)
O7_4 O 0.5222(2) 0.60805(12) 0.1228(4)
O8_4 O 0.5070(2) 0.63909(10) 0.3265(4)
O9_4 O 0.42307(19) 0.41614(12) 0.1991(4)
C1_4 C 0.5017(2) 0.60653(15) 0.2414(5)
C2_3 C 0.4697(2) 0.56409(14) 0.2944(4)
C3_3 C 0.4447(3) 0.55628(15) 0.4204(5)
H3_3 H 0.4436 0.5784 0.4882
C4_3 C 0.4207(3) 0.51107(16) 0.4367(5)
H4_3 H 0.4022 0.5000 0.5169
C5_4 C 0.4271(2) 0.48526(14) 0.3235(5)
C6_4 C 0.4090(2) 0.43577(15) 0.3050(5)
Zn6_4 Zn 0.65619(2) 0.644054(15) 0.62947(4)
O11_4 O 0.5777(2) 0.73334(11) 0.4217(3)
O1_4 O 0.5777(2) 0.76666(11) 0.9217(3)
Zn3_4 Zn 0.57183(3) 0.813179(14) 0.78362(4)
O13_4 O 0.71979(16) 0.83857(12) 0.9886(3)
S1_4 S 0.03701(7) 0.51586(4) 0.69463(12)
O9_5 O 0.07693(19) 0.41614(12) 0.6991(4)
O10_3 O 0.12256(18) 0.41731(10) 0.9059(3)
C2_4 C 0.0303(2) 0.56409(14) 0.7944(4)
C3_4 C 0.0553(3) 0.55628(15) 0.9204(5)
H3_4 H 0.0564 0.5784 0.9882
C4_4 C 0.0793(3) 0.51107(16) 0.9367(5)
C5_5 C 0.0729(2) 0.48526(14) 0.8235(5)
C6_5 C 0.0910(2) 0.43577(15) 0.8050(5)
P1_5 P 0.90493(6) 0.76129(3) 0.56724(10)
H1_5 H 0.8412 0.7510 0.5658
P2_5 P 0.77306(6) 0.66774(3) 0.83978(10)
H2_5 H 0.7630 0.7117 0.8369
O2_5 O 0.90846(16) 0.80528(10) 0.6487(3)
O3_5 O 0.94916(16) 0.72302(10) 0.6258(3)
O4_5 O 0.83767(17) 0.65865(11) 0.7616(3)
O5_3 O 0.71447(17) 0.63888(11) 0.7889(3)
O7_5 O 0.9778(2) 0.60805(12) 0.6228(4)
O8_5 O 0.9930(2) 0.63909(10) 0.8265(4)
C1_5 C 0.9983(2) 0.60653(15) 0.7414(5)
O12_3 O 0.78553(17) 0.86112(11) 0.7889(3)
O14_3 O 0.87744(18) 0.91731(10) 0.5941(3)
O9_6 O 0.42307(19) 0.08386(12) 0.6991(4)
O10_4 O 0.37744(18) 0.08269(10) 0.9059(3)
C5_6 C 0.4271(2) 0.01474(14) 0.8235(5)
C6_6 C 0.4090(2) 0.06423(15) 0.8050(5)
H4_4 H 0.4022 1.0000 0.0169
S1_5 S 0.46299(7) 0.98414(4) 0.69463(12)
P1_6 P 0.59507(6) 0.73871(3) 0.56724(10)
H1_6 H 0.6588 0.7490 0.5658
P2_6 P 0.72694(6) 0.83226(3) 0.83978(10)
H2_6 H 0.7370 0.7883 0.8369
O2_6 O 0.59154(16) 0.69472(10) 0.6487(3)
O3_6 O 0.55084(16) 0.77698(10) 0.6258(3)
O4_6 O 0.66233(17) 0.84135(11) 0.7616(3)
O7_6 O 0.5222(2) 0.89195(12) 0.6228(4)
O8_6 O 0.5070(2) 0.86091(10) 0.8265(4)
C1_6 C 0.5017(2) 0.89347(15) 0.7414(5)
C2_5 C 0.4697(2) 0.93591(14) 0.7944(4)
C3_5 C 0.4447(3) 0.94372(15) 0.9204(5)
H3_5 H 0.4436 0.9216 0.9882
C4_5 C 0.4207(3) 0.98893(16) 0.9367(5)
O14_4 O 0.62256(18) 0.58269(10) 0.5941(3)
P1_7 P 0.09507(6) 0.26129(3) 0.93276(10)
H1_7 H 0.1588 0.2510 0.9342
P2_7 P 0.22694(6) 0.16774(3) 0.66022(10)
H2_7 H 0.2370 0.2117 0.6631
O2_7 O 0.09154(16) 0.30528(10) 0.8513(3)
O3_7 O 0.05084(16) 0.22302(10) 0.8742(3)
O4_7 O 0.16233(17) 0.15865(11) 0.7384(3)
O5_4 O 0.28553(17) 0.13888(11) 0.7111(3)
O7_7 O 0.0222(2) 0.10805(12) 0.8772(4)
O8_7 O 0.0070(2) 0.13909(10) 0.6735(4)
C1_7 C 0.0017(2) 0.10653(15) 0.7586(5)
O12_4 O 0.21447(17) 0.36112(11) 0.7111(3)
O9_7 O 0.92307(19) 0.91614(12) 0.8009(4)
H4_5 H 0.9022 1.0000 0.4831
C5_7 C 0.9271(2) 0.98526(14) 0.6765(5)
C6_7 C 0.9090(2) 0.93577(15) 0.6950(5)
S1_6 S 0.53701(7) 0.48414(4) 0.80537(12)
P1_8 P 0.40493(6) 0.23871(3) 0.93276(10)
H1_8 H 0.3412 0.2490 0.9342
P2_8 P 0.27306(6) 0.33226(3) 0.66022(10)
H2_8 H 0.2630 0.2883 0.6631
O2_8 O 0.40846(16) 0.19472(10) 0.8513(3)
O3_8 O 0.44916(16) 0.27698(10) 0.8742(3)
O4_8 O 0.33767(17) 0.34135(11) 0.7384(3)
O7_8 O 0.4778(2) 0.39195(12) 0.8772(4)
O8_8 O 0.4930(2) 0.36091(10) 0.6735(4)
O9_8 O 0.57693(19) 0.58386(12) 0.8009(4)
C1_8 C 0.4983(2) 0.39347(15) 0.7586(5)
C2_6 C 0.5303(2) 0.43591(14) 0.7056(4)
C3_6 C 0.5553(3) 0.44372(15) 0.5796(5)
H3_6 H 0.5564 0.4216 0.5118
C4_6 C 0.5793(3) 0.48893(16) 0.5633(5)
H4_6 H 0.5978 0.5000 0.4831
C5_8 C 0.5729(2) 0.51474(14) 0.6765(5)
C6_8 C 0.5910(2) 0.56423(15) 0.6950(5)
H4_7 H 0.9022 0.5000 0.9831
H4_8 H 0.5978 1.0000 0.9831
S1_7 S 0.03701(7) 0.98414(4) 0.19463(12)
C2_7 C 0.0303(2) 0.93591(14) 0.2944(4)
C3_7 C 0.0553(3) 0.94372(15) 0.4204(5)
H3_7 H 0.0564 0.9216 0.4882
C4_7 C 0.0793(3) 0.98893(16) 0.4367(5)
H4_9 H 0.0978 1.0000 0.5169
H4_10 H 0.0978 0.5000 0.0169
H4_11 H 0.4022 -0.0000 0.0169
S1_8 S 0.96299(7) 0.01586(4) 0.80537(12)
C2_8 C 0.9697(2) 0.06409(14) 0.7056(4)
C3_8 C 0.9447(3) 0.05628(15) 0.5796(5)
H3_8 H 0.9436 0.0784 0.5118
C4_8 C 0.9207(3) 0.01107(16) 0.5633(5)
H4_12 H 0.9022 0.0000 0.4831
loop_
_geom_bond_atom_site_label_1
_geom_bond_atom_site_label_2
_geom_bond_site_symmetry_1
_geom_bond_site_symmetry_2
Zn1 O3 1_555 1_555
Zn2 O2 1_555 1_555
P1 H1 1_555 1_555
P2 H2 1_555 1_555
O1 P1 1_555 1_555
O2 P1 1_555 1_555
O3 P1 1_555 1_555
O4 Zn1 1_555 1_555
O5 P2 1_555 1_555
O6 P2 1_555 1_555
O7 C1 1_555 1_555
O8 Zn1 1_555 1_555
C1 O8 1_555 1_555
Zn3 O1 1_555 1_555
Zn4 O5 1_555 1_555
O11 Zn1 1_555 1_555
O12 Zn2 1_555 1_555
O13 Zn2 1_555 1_555
O14 Zn2 1_555 1_555
P2 O4 1_555 1_555
S1 C2 1_555 1_555
O9 C6 1_555 1_555
O10 C6 1_555 1_555
C3 C2 1_555 1_555
H3 C3 1_555 1_555
C4 C3 1_555 1_555
C5 S1 1_555 1_555
C6 C5 1_555 1_555
Zn5 O10 1_555 1_555
C4 C5 1_555 1_555
S1_2 C2_2 1_555 1_555
Zn1_2 O3_2 1_555 1_555
Zn4 O2_2 1_555 1_555
P1_2 H1_2 1_555 1_555
P2_2 H2_2 1_555 1_555
O1_2 P1_2 1_555 1_555
O2_2 P1_2 1_555 1_555
O3_2 P1_2 1_555 1_555
O4_2 Zn1_2 1_555 1_555
O12 P2_2 1_555 1_555
O6_2 P2_2 1_555 1_555
O7_2 C1_2 1_555 1_555
O8_2 Zn1_2 1_555 1_555
C1_2 O8_2 1_555 1_555
C2_2 C1_2 1_555 1_555
C3_2 C2_2 1_555 1_555
H3_2 C3_2 1_555 1_555
C4_2 C3_2 1_555 1_555
Zn3_2 O1_2 1_555 1_555
O11_2 Zn1_2 1_555 1_555
O13_2 Zn4 1_555 1_555
O14_2 Zn4 1_555 1_555
P2_2 O4_2 1_555 1_555
O9_2 C6_2 1_555 1_555
O10_2 C6_2 1_555 1_555
C6_2 C5_2 1_555 1_555
Zn5_2 O10_2 1_555 1_555
O9_3 C6_3 1_555 1_555
O14 C6_3 1_555 1_555
C6_3 C5_3 1_555 1_555
Zn1_3 O3_3 1_555 1_555
Zn5 O2_3 1_555 1_555
P1_3 H1_3 1_555 1_555
P2_3 H2_3 1_555 1_555
O2_3 P1_3 1_555 1_555
O3_3 P1_3 1_555 1_555
O4_3 Zn1_3 1_555 1_555
O5_2 P2_3 1_555 1_555
O6_3 P2_3 1_555 1_555
O7_3 C1_3 1_555 1_555
O8_3 Zn1_3 1_555 1_555
C1_3 O8_3 1_555 1_555
Zn5_2 O5_2 1_555 1_555
Zn6_3 O6_3 1_555 1_555
O11_3 Zn1_3 1_555 1_555
O12_2 Zn5 1_555 1_555
P2_3 O4_3 1_555 1_555
Zn3_3 O1_3 1_555 1_555
S1_3 C2_3 1_555 1_555
Zn1_4 O3_4 1_555 1_555
Zn5_2 O2_4 1_555 1_555
P1_4 H1_4 1_555 1_555
P2_4 H2_4 1_555 1_555
O2_4 P1_4 1_555 1_555
O3_4 P1_4 1_555 1_555
O4_4 Zn1_4 1_555 1_555
O12_2 P2_4 1_555 1_555
O6_4 P2_4 1_555 1_555
O7_4 C1_4 1_555 1_555
O8_4 Zn1_4 1_555 1_555
O9_4 C6_4 1_555 1_555
O14_2 C6_4 1_555 1_555
C1_4 O8_4 1_555 1_555
C2_3 C1_4 1_555 1_555
C3_3 C2_3 1_555 1_555
H3_3 C3_3 1_555 1_555
C4_3 C3_3 1_555 1_555
H4_3 C4_3 1_555 1_555
C5_4 S1_3 1_555 1_555
C6_4 C5_4 1_555 1_555
Zn6_4 O6_4 1_555 1_555
O11_4 Zn1_4 1_555 1_555
P2_4 O4_4 1_555 1_555
C4_3 C5_4 1_555 1_555
Zn3_4 O1_4 1_555 1_555
S1_4 C2_4 1_555 1_555
O9_5 C6_5 1_555 1_555
O10_3 C6_5 1_555 1_555
C3_4 C2_4 1_555 1_555
H3_4 C3_4 1_555 1_555
C4_4 C3_4 1_555 1_555
C5_5 S1_4 1_555 1_555
C6_5 C5_5 1_555 1_555
Zn6 O10_3 1_555 1_555
C4_4 C5_5 1_555 1_555
Zn3_3 O3_5 1_555 1_555
Zn6_3 O2_5 1_555 1_555
P1_5 H1_5 1_555 1_555
P2_5 H2_5 1_555 1_555
O11_3 P1_5 1_555 1_555
O2_5 P1_5 1_555 1_555
O3_5 P1_5 1_555 1_555
O4_5 Zn3_3 1_555 1_555
O5_3 P2_5 1_555 1_555
O13_3 P2_5 1_555 1_555
O7_5 C1_5 1_555 1_555
O8_5 Zn3_3 1_555 1_555
C1_5 O8_5 1_555 1_555
Zn6_4 O5_3 1_555 1_555
O12_3 Zn6_3 1_555 1_555
O14_3 Zn6_3 1_555 1_555
P2_5 O4_5 1_555 1_555
O9_6 C6_6 1_555 1_555
O10_4 C6_6 1_555 1_555
C6_6 C5_6 1_555 1_555
Zn6_2 O10_4 1_555 1_555
S1_5 C2_5 1_555 1_555
Zn3_4 O3_6 1_555 1_555
Zn6_4 O2_6 1_555 1_555
P1_6 H1_6 1_555 1_555
P2_6 H2_6 1_555 1_555
O11_4 P1_6 1_555 1_555
O2_6 P1_6 1_555 1_555
O3_6 P1_6 1_555 1_555
O4_6 Zn3_4 1_555 1_555
O12_3 P2_6 1_555 1_555
O13_4 P2_6 1_555 1_555
O7_6 C1_6 1_555 1_555
O8_6 Zn3_4 1_555 1_555
C1_6 O8_6 1_555 1_555
C2_5 C1_6 1_555 1_555
C3_5 C2_5 1_555 1_555
H3_5 C3_5 1_555 1_555
C4_5 C3_5 1_555 1_555
O14_4 Zn6_4 1_555 1_555
P2_6 O4_6 1_555 1_555
Zn3 O3_7 1_555 1_555
Zn6 O2_7 1_555 1_555
P1_7 H1_7 1_555 1_555
P2_7 H2_7 1_555 1_555
O2_7 P1_7 1_555 1_555
O3_7 P1_7 1_555 1_555
O4_7 Zn3 1_555 1_555
O5_4 P2_7 1_555 1_555
O13 P2_7 1_555 1_555
O7_7 C1_7 1_555 1_555
O8_7 Zn3 1_555 1_555
C1_7 O8_7 1_555 1_555
Zn6_2 O5_4 1_555 1_555
O12_4 Zn6 1_555 1_555
P2_7 O4_7 1_555 1_555
O9_7 C6_7 1_555 1_555
O14_3 C6_7 1_555 1_555
C6_7 C5_7 1_555 1_555
S1_6 C2_6 1_555 1_555
Zn3_2 O3_8 1_555 1_555
Zn6_2 O2_8 1_555 1_555
P1_8 H1_8 1_555 1_555
P2_8 H2_8 1_555 1_555
O2_8 P1_8 1_555 1_555
O3_8 P1_8 1_555 1_555
O4_8 Zn3_2 1_555 1_555
O12_4 P2_8 1_555 1_555
O13_2 P2_8 1_555 1_555
O7_8 C1_8 1_555 1_555
O8_8 Zn3_2 1_555 1_555
O9_8 C6_8 1_555 1_555
O14_4 C6_8 1_555 1_555
C1_8 O8_8 1_555 1_555
C2_6 C1_8 1_555 1_555
C3_6 C2_6 1_555 1_555
H3_6 C3_6 1_555 1_555
C4_6 C3_6 1_555 1_555
H4_6 C4_6 1_555 1_555
C5_8 S1_6 1_555 1_555
C6_8 C5_8 1_555 1_555
P2_8 O4_8 1_555 1_555
C4_6 C5_8 1_555 1_555
S1_7 C2_7 1_555 1_555
C3_7 C2_7 1_555 1_555
H3_7 C3_7 1_555 1_555
C4_7 C3_7 1_555 1_555
H4_9 C4_7 1_555 1_555
S1_8 C2_8 1_555 1_555
C3_8 C2_8 1_555 1_555
H3_8 C3_8 1_555 1_555
C4_8 C3_8 1_555 1_555
H4_12 C4_8 1_555 1_555

#END
