
###############################################################################
#
# This file contains modified crystal structure data generated from the
# MOF subset of the Cambridge Structural Database (CSD) v543 
# hosted by the Cambridge Crystallographic Data Centre (CCDC).
#
# This work is licensed under the Creative Commons
# Attribution-NonCommercial-ShareAlike 4.0 International License.
# To view a copy of this license, visit
# http://creativecommons.org/licenses/by-nc-sa/4.0/
# or send a letter to
# Creative Commons, PO Box 1866, Mountain View, CA 94042, USA.
#
# CIF created using the CSD Python API on 29 September 2022
# The structure has been converted into the P1 space group
# The structure has a 3D framework
# The original CSD entry GUVZII is in the rhombohedral crystal system
# The framework has been calculated to contain at least 10.0% void space
# The void calculation uses a probe of radius 1.32A, grid spacing 0.4
#
###############################################################################

data_GUVZII
_chemical_formula_moiety         '(C72 H18 Fe18 O90)n'
_symmetry_cell_setting           triclinic
_symmetry_space_group_name_H-M   'P 1'
_symmetry_Int_Tables_number      1
_space_group_name_Hall           'P 1'
loop_
_symmetry_equiv_pos_site_id
_symmetry_equiv_pos_as_xyz
1 x,y,z
_cell_length_a                   26.0087(13)
_cell_length_b                   26.0087
_cell_length_c                   6.8131(7)
_cell_angle_alpha                90
_cell_angle_beta                 90
_cell_angle_gamma                120
_cell_volume                     3991.28
loop_
_atom_site_label
_atom_site_type_symbol
_atom_site_fract_x
_atom_site_fract_y
_atom_site_fract_z
Fe1 Fe 0.3804(5) 0.3479(6) 0.1410(16)
O1 O 0.3266(7) 0.2968(8) 0.3491(26)
O2 O 0.2997(9) 0.2206(8) 0.6080(26)
O3 O 0.3568(7) 0.2730(6) 0.0073(24)
C1 C 0.3175(8) 0.2465(7) 0.4145(25)
C2 C 0.3336(9) 0.2091(8) 0.3005(29)
C3 C 0.3460(7) 0.2259(7) 0.0971(23)
O4 O 0.4694(14) 0.3893(15) 0.270(5)
O5 O 0.4865(29) 0.366(4) 0.076(16)
O8 O 0.3099(7) 0.0603(6) 0.3260(24)
C6 C 0.3331(9) 0.1242(8) 0.0328(29)
C7 C 0.3207(7) 0.1074(7) 0.2362(23)
C8 C 0.3130(9) 0.1510(8) 0.3494(25)
H2 H 0.2966(11) 0.1411(11) 0.513(4)
Fe4 Fe 0.3008(8) 0.2863(5) 0.8077(16)
Fe6 Fe 0.3188(6) 0.3658(8) 0.4743(16)
Fe8 Fe 0.3658(8) 0.0471(5) 0.5257(16)
O12 O 0.3035(11) 0.3401(7) 0.0158(26)
O16 O 0.3937(6) 0.4171(9) 0.3406(24)
C4 C 0.3537(9) 0.1823(8) 0.9839(25)
H1 H 0.3701(11) 0.1922(11) 0.820(4)
O6 O 0.3401(7) 0.0365(8) 0.9842(26)
O7 O 0.3670(9) 0.1127(8) 0.7253(26)
C5 C 0.3492(8) 0.0868(7) 0.9188(25)
O13 O 0.4461(8) 0.4124(12) 0.9413(26)
O17 O 0.4171(9) 0.0235(7) 0.6594(24)
Fe5 Fe 0.2863(5) 0.9854(6) 0.1923(16)
O14 O 0.4124(12) 0.9664(9) 0.0587(26)
Fe2 Fe 0.3479(6) 0.9675(8) 0.8590(16)
O9 O 0.3893(15) 0.9199(21) 0.730(5)
O10 O 0.366(4) 0.8795(49) 0.924(16)
O11 O 0.2968(8) 0.9702(11) 0.6509(26)
O15 O 0.2730(6) 0.9162(9) 0.9927(24)
Fe5_2 Fe 0.0146(6) 0.3008(8) 0.1923(16)
O14_2 O 0.0336(9) 0.4461(15) 0.0587(26)
Fe2_2 Fe 0.0325(8) 0.3804(10) 0.8590(16)
O9_2 O 0.0801(21) 0.4694(26) 0.730(5)
O10_2 O 0.1205(49) 0.4865(63) 0.924(16)
O11_2 O 0.0298(11) 0.3266(14) 0.6509(26)
O15_2 O 0.0838(9) 0.3568(11) 0.9927(24)
Fe1_2 Fe 0.6521(6) 0.0325(8) 0.1410(16)
O1_2 O 0.7032(8) 0.0298(11) 0.3491(26)
O2_2 O 0.7794(8) 0.0791(12) 0.6080(26)
O3_2 O 0.7270(6) 0.0838(9) 0.0073(24)
C1_2 C 0.7535(7) 0.0710(11) 0.4145(25)
C2_2 C 0.7909(8) 0.1245(12) 0.3005(29)
C3_2 C 0.7741(7) 0.1201(10) 0.0971(23)
O4_2 O 0.6107(15) 0.0801(21) 0.270(5)
O5_2 O 0.634(4) 0.1205(49) 0.076(16)
O8_2 O 0.9397(6) 0.2495(9) 0.3260(24)
C6_2 C 0.8758(8) 0.2088(12) 0.0328(29)
C7_2 C 0.8926(7) 0.2132(10) 0.2362(23)
C8_2 C 0.8490(8) 0.1619(12) 0.3494(25)
H2_2 H 0.8589(11) 0.1554(16) 0.513(4)
Fe4_2 Fe 0.7137(5) 0.0146(9) 0.8077(16)
Fe8_2 Fe 0.9529(5) 0.3188(9) 0.5257(16)
C4_2 C 0.8177(8) 0.1714(12) 0.9839(25)
H1_2 H 0.8078(11) 0.1779(16) 0.820(4)
O6_2 O 0.9635(8) 0.3035(11) 0.9842(26)
O7_2 O 0.8873(8) 0.2542(12) 0.7253(26)
C5_2 C 0.9132(7) 0.2623(11) 0.9188(25)
O13_2 O 0.5876(12) 0.0336(14) 0.9413(26)
O17_2 O 0.9765(7) 0.3937(11) 0.6594(24)
Fe6_2 Fe 0.6342(8) 0.9529(10) 0.4743(16)
O12_2 O 0.6599(7) 0.9635(13) 0.0158(26)
O16_2 O 0.5829(9) 0.9765(11) 0.3406(24)
Fe6_3 Fe 0.0471(10) 0.6812(6) 0.4743(16)
O12_3 O 0.0365(13) 0.6965(11) 0.0158(26)
O16_3 O 0.0235(11) 0.6063(6) 0.3406(24)
Fe1_3 Fe 0.9675(8) 0.6196(5) 0.1410(16)
O1_3 O 0.9702(11) 0.6734(7) 0.3491(26)
O2_3 O 0.9209(12) 0.7003(9) 0.6080(26)
O3_3 O 0.9162(9) 0.6432(7) 0.0073(24)
C1_3 C 0.9290(11) 0.6825(8) 0.4145(25)
C2_3 C 0.8755(12) 0.6664(9) 0.3005(29)
C3_3 C 0.8799(10) 0.6540(7) 0.0971(23)
O4_3 O 0.9199(21) 0.5306(14) 0.270(5)
O5_3 O 0.8795(49) 0.5135(29) 0.076(16)
O8_3 O 0.7505(9) 0.6901(7) 0.3260(24)
C6_3 C 0.7912(12) 0.6669(9) 0.0328(29)
C7_3 C 0.7868(10) 0.6793(7) 0.2362(23)
C8_3 C 0.8381(12) 0.6870(9) 0.3494(25)
H2_3 H 0.8446(16) 0.7034(11) 0.513(4)
Fe4_3 Fe 0.9854(9) 0.6992(8) 0.8077(16)
Fe5_3 Fe 0.6992(8) 0.7137(5) 0.1923(16)
Fe8_3 Fe 0.6812(9) 0.6342(8) 0.5257(16)
O14_3 O 0.5539(15) 0.5876(12) 0.0587(26)
C4_3 C 0.8286(12) 0.6463(9) 0.9839(25)
H1_3 H 0.8221(16) 0.6299(11) 0.820(4)
O6_3 O 0.6965(11) 0.6599(7) 0.9842(26)
O7_3 O 0.7458(12) 0.6330(9) 0.7253(26)
C5_3 C 0.7377(11) 0.6508(8) 0.9188(25)
Fe2_3 Fe 0.6196(10) 0.6521(6) 0.8590(16)
O9_3 O 0.5306(26) 0.6107(15) 0.730(5)
O10_3 O 0.5135(63) 0.634(4) 0.924(16)
O11_3 O 0.6734(14) 0.7032(8) 0.6509(26)
O13_3 O 0.9664(14) 0.5539(8) 0.9413(26)
O15_3 O 0.6432(11) 0.7270(6) 0.9927(24)
O17_3 O 0.6063(11) 0.5829(9) 0.6594(24)
O4_4 O 0.8027(14) 0.0560(15) 0.937(5)
O5_4 O 0.8198(29) 0.033(4) 0.743(16)
O12_4 O 0.6369(11) 0.0067(7) 0.6824(26)
O2_4 O 0.6330(9) 0.8873(8) 0.2747(26)
C1_4 C 0.6508(8) 0.9132(7) 0.0812(25)
C8_4 C 0.6463(9) 0.8177(8) 0.0161(25)
H2_4 H 0.6299(11) 0.8078(11) 0.180(4)
O3_4 O 0.6901(7) 0.9397(6) 0.6740(24)
C2_4 C 0.6669(9) 0.8758(8) 0.9672(29)
C3_4 C 0.6793(7) 0.8926(7) 0.7638(23)
C4_4 C 0.6870(9) 0.8490(8) 0.6506(25)
H1_4 H 0.7034(11) 0.8589(11) 0.487(4)
O7_4 O 0.7003(9) 0.7794(8) 0.3920(26)
C5_4 C 0.6825(8) 0.7535(7) 0.5855(25)
C6_4 C 0.6664(9) 0.7909(8) 0.6995(29)
C7_4 C 0.6540(7) 0.7741(7) 0.9029(23)
O9_4 O 0.7226(15) 0.5866(21) 0.397(5)
O10_4 O 0.699(4) 0.5462(49) 0.591(16)
O11_4 O 0.6301(8) 0.6369(11) 0.3176(26)
O9_5 O 0.4134(21) 0.1361(26) 0.397(5)
O10_5 O 0.4538(49) 0.1532(63) 0.591(16)
O2_5 O 0.1127(8) 0.7458(12) 0.2747(26)
C1_5 C 0.0868(7) 0.7377(11) 0.0812(25)
C8_5 C 0.1823(8) 0.8286(12) 0.0161(25)
H2_5 H 0.1922(11) 0.8221(16) 0.180(4)
O3_5 O 0.0603(6) 0.7505(9) 0.6740(24)
C2_5 C 0.1242(8) 0.7912(12) 0.9672(29)
C3_5 C 0.1074(7) 0.7868(10) 0.7638(23)
C4_5 C 0.1510(8) 0.8381(12) 0.6506(25)
H1_5 H 0.1411(11) 0.8446(16) 0.487(4)
O7_5 O 0.2206(8) 0.9209(12) 0.3920(26)
C5_5 C 0.2465(7) 0.9290(11) 0.5855(25)
C6_5 C 0.2091(8) 0.8755(12) 0.6995(29)
C7_5 C 0.2259(7) 0.8799(10) 0.9029(23)
O11_5 O 0.3631(11) 0.9933(14) 0.3176(26)
O4_5 O 0.9440(15) 0.7468(21) 0.937(5)
O5_5 O 0.967(4) 0.7872(49) 0.743(16)
O12_5 O 0.9933(7) 0.6301(13) 0.6824(26)
O2_6 O 0.2542(12) 0.3670(9) 0.2747(26)
C1_6 C 0.2623(11) 0.3492(8) 0.0812(25)
C8_6 C 0.1714(12) 0.3537(9) 0.0161(25)
H2_6 H 0.1779(16) 0.3701(11) 0.180(4)
O3_6 O 0.2495(9) 0.3099(7) 0.6740(24)
C2_6 C 0.2088(12) 0.3331(9) 0.9672(29)
C3_6 C 0.2132(10) 0.3207(7) 0.7638(23)
C4_6 C 0.1619(12) 0.3130(9) 0.6506(25)
H1_6 H 0.1554(16) 0.2966(11) 0.487(4)
O4_6 O 0.2532(21) 0.1973(14) 0.937(5)
O5_6 O 0.2128(49) 0.1802(29) 0.743(16)
O7_6 O 0.0791(12) 0.2997(9) 0.3920(26)
C5_6 C 0.0710(11) 0.3175(8) 0.5855(25)
C6_6 C 0.1245(12) 0.3336(9) 0.6995(29)
C7_6 C 0.1201(10) 0.3460(7) 0.9029(23)
O11_6 O 0.0067(14) 0.3699(8) 0.3176(26)
O12_6 O 0.3699(13) 0.3631(11) 0.6824(26)
O9_6 O 0.8639(26) 0.2774(15) 0.397(5)
O10_6 O 0.8468(63) 0.301(4) 0.591(16)
C2_7 C 0.0003(9) 0.5424(8) 0.6338(29)
C3_7 C 0.0127(7) 0.5592(7) 0.4304(23)
C4_7 C 0.0204(9) 0.5156(8) 0.3172(25)
H1_7 H 0.0368(11) 0.5255(11) 0.153(4)
O4_7 O 0.1361(14) 0.7226(15) 0.603(5)
O5_7 O 0.1532(29) 0.699(4) 0.409(16)
C5_7 C 0.0158(8) 0.4202(7) 0.2522(25)
O9_7 O 0.0560(15) 0.2532(21) 0.063(5)
O10_7 O 0.033(4) 0.2128(49) 0.257(16)
C1_7 C 0.9842(8) 0.5798(7) 0.7478(25)
C6_7 C 0.9997(9) 0.4576(8) 0.3662(29)
C7_7 C 0.9873(7) 0.4408(7) 0.5696(23)
C8_7 C 0.9796(9) 0.4844(8) 0.6828(25)
H2_7 H 0.9632(11) 0.4745(11) 0.847(4)
C1_8 C 0.4202(7) 0.4043(11) 0.7478(25)
C2_8 C 0.4576(8) 0.4578(12) 0.6338(29)
C3_8 C 0.4408(7) 0.4534(10) 0.4304(23)
C4_8 C 0.4844(8) 0.5047(12) 0.3172(25)
H1_8 H 0.4745(11) 0.5112(16) 0.153(4)
O4_8 O 0.2774(15) 0.4134(21) 0.603(5)
O5_8 O 0.301(4) 0.4538(49) 0.409(16)
C5_8 C 0.5798(7) 0.5957(11) 0.2522(25)
C6_8 C 0.5424(8) 0.5422(12) 0.3662(29)
C7_8 C 0.5592(7) 0.5466(10) 0.5696(23)
C8_8 C 0.5156(8) 0.4953(12) 0.6828(25)
H2_8 H 0.5255(11) 0.4888(16) 0.847(4)
O9_8 O 0.7468(21) 0.8027(26) 0.063(5)
O10_8 O 0.7872(49) 0.8198(63) 0.257(16)
C1_9 C 0.5957(11) 0.0158(8) 0.7478(25)
C6_9 C 0.4578(12) 0.0003(9) 0.3662(29)
C7_9 C 0.4534(10) 0.0127(7) 0.5696(23)
C8_9 C 0.5047(12) 0.0204(9) 0.6828(25)
H2_9 H 0.5112(16) 0.0368(11) 0.847(4)
C2_9 C 0.5422(12) 0.9997(9) 0.6338(29)
C3_9 C 0.5466(10) 0.9873(7) 0.4304(23)
C4_9 C 0.4953(12) 0.9796(9) 0.3172(25)
H1_9 H 0.4888(16) 0.9632(11) 0.153(4)
O4_9 O 0.5866(21) 0.8639(14) 0.603(5)
O5_9 O 0.5462(49) 0.8468(29) 0.409(16)
C5_9 C 0.4043(11) 0.9842(8) 0.2522(25)
O9_9 O 0.1973(26) 0.9440(15) 0.063(5)
O10_9 O 0.1802(63) 0.967(4) 0.257(16)
loop_
_geom_bond_atom_site_label_1
_geom_bond_atom_site_label_2
_geom_bond_site_symmetry_1
_geom_bond_site_symmetry_2
Fe1 O1 1_555 1_555
O1 C1 1_555 1_555
O2 C1 1_555 1_555
O3 Fe1 1_555 1_555
C1 C2 1_555 1_555
C2 C3 1_555 1_555
C3 O3 1_555 1_555
O4 Fe1 1_555 1_555
O5 Fe1 1_555 1_555
O8 C7 1_555 1_555
C7 C6 1_555 1_555
C8 C2 1_555 1_555
H2 C8 1_555 1_555
Fe4 O2 1_555 1_555
Fe6 O1 1_555 1_555
Fe8 O8 1_555 1_555
O12 Fe1 1_555 1_555
O16 Fe1 1_555 1_555
O4 O5 1_555 1_555
C7 C8 1_555 1_555
Fe6 O16 1_555 1_555
H1 C4 1_555 1_555
O6 C5 1_555 1_555
O7 C5 1_555 1_555
Fe8 O7 1_555 1_555
Fe8 O17 1_555 1_555
O9 Fe2 1_555 1_555
O10 Fe2 1_555 1_555
O11 Fe2 1_555 1_555
O15 Fe2 1_555 1_555
O9 O10 1_555 1_555
O9_2 Fe2_2 1_555 1_555
O10_2 Fe2_2 1_555 1_555
O11_2 Fe2_2 1_555 1_555
O15_2 Fe2_2 1_555 1_555
O9_2 O10_2 1_555 1_555
Fe1_2 O1_2 1_555 1_555
O1_2 C1_2 1_555 1_555
O2_2 C1_2 1_555 1_555
O3_2 Fe1_2 1_555 1_555
C1_2 C2_2 1_555 1_555
C2_2 C3_2 1_555 1_555
C3_2 O3_2 1_555 1_555
O4_2 Fe1_2 1_555 1_555
O5_2 Fe1_2 1_555 1_555
O8_2 C7_2 1_555 1_555
C7_2 C6_2 1_555 1_555
C8_2 C2_2 1_555 1_555
H2_2 C8_2 1_555 1_555
Fe4_2 O2_2 1_555 1_555
Fe8_2 O8_2 1_555 1_555
O4_2 O5_2 1_555 1_555
C7_2 C8_2 1_555 1_555
H1_2 C4_2 1_555 1_555
O6_2 C5_2 1_555 1_555
O7_2 C5_2 1_555 1_555
Fe8_2 O7_2 1_555 1_555
Fe8_2 O17_2 1_555 1_555
Fe6_2 O16_2 1_555 1_555
Fe6_3 O16_3 1_555 1_555
Fe1_3 O1_3 1_555 1_555
O1_3 C1_3 1_555 1_555
O2_3 C1_3 1_555 1_555
O3_3 Fe1_3 1_555 1_555
C1_3 C2_3 1_555 1_555
C2_3 C3_3 1_555 1_555
C3_3 O3_3 1_555 1_555
O4_3 Fe1_3 1_555 1_555
O5_3 Fe1_3 1_555 1_555
O8_3 C7_3 1_555 1_555
C7_3 C6_3 1_555 1_555
C8_3 C2_3 1_555 1_555
H2_3 C8_3 1_555 1_555
Fe4_3 O2_3 1_555 1_555
Fe8_3 O8_3 1_555 1_555
O4_3 O5_3 1_555 1_555
O8_3 Fe5_3 1_555 1_555
C7_3 C8_3 1_555 1_555
H1_3 C4_3 1_555 1_555
O6_3 C5_3 1_555 1_555
O7_3 C5_3 1_555 1_555
Fe2_3 O6_3 1_555 1_555
O9_3 Fe2_3 1_555 1_555
O10_3 Fe2_3 1_555 1_555
Fe8_3 O7_3 1_555 1_555
O11_3 Fe2_3 1_555 1_555
O15_3 Fe2_3 1_555 1_555
O17_3 Fe2_3 1_555 1_555
O9_3 O10_3 1_555 1_555
Fe8_3 O11_3 1_555 1_555
Fe8_3 O17_3 1_555 1_555
O4_4 Fe4_2 1_555 1_555
O5_4 Fe4_2 1_555 1_555
O12_4 Fe4_2 1_555 1_555
O4_4 O5_4 1_555 1_555
O12_2 C1_4 1_555 1_555
O2_4 C1_4 1_555 1_555
H2_4 C8_4 1_555 1_555
Fe6_2 O2_4 1_555 1_555
C2_4 C3_4 1_555 1_555
C3_4 O3_4 1_555 1_555
C4_4 C3_4 1_555 1_555
H1_4 C4_4 1_555 1_555
O11_3 C5_4 1_555 1_555
O7_4 C5_4 1_555 1_555
O15_3 C7_4 1_555 1_555
C5_4 C6_4 1_555 1_555
C6_4 C4_4 1_555 1_555
C7_4 C6_4 1_555 1_555
O9_4 Fe8_3 1_555 1_555
O10_4 Fe8_3 1_555 1_555
Fe6_2 O3_4 1_555 1_555
Fe5_3 O7_4 1_555 1_555
O11_4 Fe8_3 1_555 1_555
O9_4 O10_4 1_555 1_555
Fe5_3 O11_4 1_555 1_555
O9_5 Fe8 1_555 1_555
O10_5 Fe8 1_555 1_555
O9_5 O10_5 1_555 1_555
O12_3 C1_5 1_555 1_555
O2_5 C1_5 1_555 1_555
H2_5 C8_5 1_555 1_555
Fe6_3 O2_5 1_555 1_555
C2_5 C3_5 1_555 1_555
C3_5 O3_5 1_555 1_555
C4_5 C3_5 1_555 1_555
H1_5 C4_5 1_555 1_555
O11 C5_5 1_555 1_555
O7_5 C5_5 1_555 1_555
O15 C7_5 1_555 1_555
C5_5 C6_5 1_555 1_555
C6_5 C4_5 1_555 1_555
C7_5 C6_5 1_555 1_555
Fe6_3 O3_5 1_555 1_555
Fe5 O7_5 1_555 1_555
Fe5 O11_5 1_555 1_555
O4_5 Fe4_3 1_555 1_555
O5_5 Fe4_3 1_555 1_555
O12_5 Fe4_3 1_555 1_555
O4_5 O5_5 1_555 1_555
O12 C1_6 1_555 1_555
O2_6 C1_6 1_555 1_555
H2_6 C8_6 1_555 1_555
Fe6 O2_6 1_555 1_555
O3_6 Fe4 1_555 1_555
C2_6 C3_6 1_555 1_555
C3_6 O3_6 1_555 1_555
C4_6 C3_6 1_555 1_555
H1_6 C4_6 1_555 1_555
O4_6 Fe4 1_555 1_555
O5_6 Fe4 1_555 1_555
O11_2 C5_6 1_555 1_555
O7_6 C5_6 1_555 1_555
O15_2 C7_6 1_555 1_555
C5_6 C6_6 1_555 1_555
C6_6 C4_6 1_555 1_555
C7_6 C6_6 1_555 1_555
Fe6 O3_6 1_555 1_555
Fe5_2 O7_6 1_555 1_555
O12_6 Fe4 1_555 1_555
O4_6 O5_6 1_555 1_555
Fe6 O12_6 1_555 1_555
Fe5_2 O11_6 1_555 1_555
O9_6 Fe8_2 1_555 1_555
O10_6 Fe8_2 1_555 1_555
O9_6 O10_6 1_555 1_555
C2_7 C3_7 1_555 1_555
C3_7 O16_3 1_555 1_555
C4_7 C3_7 1_555 1_555
H1_7 C4_7 1_555 1_555
O4_7 Fe6_3 1_555 1_555
O5_7 Fe6_3 1_555 1_555
O11_6 C5_7 1_555 1_555
O14_2 C5_7 1_555 1_555
O9_7 Fe5_2 1_555 1_555
O10_7 Fe5_2 1_555 1_555
O4_7 O5_7 1_555 1_555
O9_7 O10_7 1_555 1_555
O12_5 C1_7 1_555 1_555
O13_3 C1_7 1_555 1_555
O17_2 C7_7 1_555 1_555
C7_7 C6_7 1_555 1_555
H2_7 C8_7 1_555 1_555
C7_7 C8_7 1_555 1_555
O12_6 C1_8 1_555 1_555
O13 C1_8 1_555 1_555
C1_8 C2_8 1_555 1_555
C2_8 C3_8 1_555 1_555
C3_8 O16 1_555 1_555
C4_8 C3_8 1_555 1_555
H1_8 C4_8 1_555 1_555
O4_8 Fe6 1_555 1_555
O5_8 Fe6 1_555 1_555
O11_4 C5_8 1_555 1_555
O14_3 C5_8 1_555 1_555
O17_3 C7_8 1_555 1_555
C5_8 C6_8 1_555 1_555
C6_8 C4_8 1_555 1_555
C7_8 C6_8 1_555 1_555
C8_8 C2_8 1_555 1_555
H2_8 C8_8 1_555 1_555
O9_8 Fe5_3 1_555 1_555
O10_8 Fe5_3 1_555 1_555
O4_8 O5_8 1_555 1_555
C7_8 C8_8 1_555 1_555
O9_8 O10_8 1_555 1_555
O12_4 C1_9 1_555 1_555
O13_2 C1_9 1_555 1_555
O17 C7_9 1_555 1_555
C7_9 C6_9 1_555 1_555
H2_9 C8_9 1_555 1_555
C7_9 C8_9 1_555 1_555
C2_9 C3_9 1_555 1_555
C3_9 O16_2 1_555 1_555
C4_9 C3_9 1_555 1_555
H1_9 C4_9 1_555 1_555
O4_9 Fe6_2 1_555 1_555
O5_9 Fe6_2 1_555 1_555
O11_5 C5_9 1_555 1_555
O14 C5_9 1_555 1_555
O9_9 Fe5 1_555 1_555
O10_9 Fe5 1_555 1_555
O4_9 O5_9 1_555 1_555
O9_9 O10_9 1_555 1_555

#END
