
###############################################################################
#
# This file contains modified crystal structure data generated from the
# MOF subset of the Cambridge Structural Database (CSD) v543 
# hosted by the Cambridge Crystallographic Data Centre (CCDC).
#
# This work is licensed under the Creative Commons
# Attribution-NonCommercial-ShareAlike 4.0 International License.
# To view a copy of this license, visit
# http://creativecommons.org/licenses/by-nc-sa/4.0/
# or send a letter to
# Creative Commons, PO Box 1866, Mountain View, CA 94042, USA.
#
# CIF created using the CSD Python API on 29 September 2022
# The structure has been converted into the P1 space group
# The structure has a 3D framework
# The original CSD entry GUWNUI is in the tetragonal crystal system
# The framework has been calculated to contain at least 10.0% void space
# The void calculation uses a probe of radius 1.32A, grid spacing 0.4
#
###############################################################################

data_GUWNUI
_chemical_formula_moiety         '(C416 H448 Cd24 Cl32 N64)n'
_symmetry_cell_setting           triclinic
_symmetry_space_group_name_H-M   'P 1'
_symmetry_Int_Tables_number      1
_space_group_name_Hall           'P 1'
loop_
_symmetry_equiv_pos_site_id
_symmetry_equiv_pos_as_xyz
1 x,y,z
_cell_length_a                   17.576(2)
_cell_length_b                   17.576(2)
_cell_length_c                   42.923(11)
_cell_angle_alpha                90
_cell_angle_beta                 90
_cell_angle_gamma                90
_cell_volume                     13259.6
loop_
_atom_site_label
_atom_site_type_symbol
_atom_site_fract_x
_atom_site_fract_y
_atom_site_fract_z
H13 H 0.0168 0.3691 0.7781
Cd3 Cd 0.0000 0.2500 0.717882(10)
N5 N 0.4311(2) 0.17703(19) 0.00544(9)
N6 N 0.5689(2) 0.32297(19) 0.00544(9)
C1 C 0.5394(2) 0.3563(2) 0.90920(10)
H1 H 0.4866 0.3533 0.9086
C2 C 0.5751(3) 0.4035(2) 0.88678(10)
H2 H 0.5470 0.4326 0.8728
C3 C 0.6573(2) 0.4044(3) 0.88673(9)
C4 C 0.6905(3) 0.3596(2) 0.91022(10)
H3 H 0.7431 0.3571 0.9123
C5 C 0.6428(2) 0.3184(2) 0.93051(9)
H4 H 0.6664 0.2891 0.9457
C6 C 0.7022(3) 0.4519(2) 0.86605(10)
H5 H 0.7361 0.4838 0.8782
H6 H 0.6689 0.4846 0.8540
C7 C 0.7498(2) 0.4002(2) 0.84352(9)
H7 H 0.7158 0.3678 0.8316
H8 H 0.7835 0.3678 0.8556
C8 C 0.7986(3) 0.4518(3) 0.82039(12)
H9 H 0.7647 0.4833 0.8081
H10 H 0.8313 0.4852 0.8324
C9 C 0.8462(2) 0.4044(2) 0.79919(10)
C10 C 0.8110(2) 0.3586(2) 0.77529(10)
H11 H 0.7583 0.3564 0.7737
C11 C 0.8517(2) 0.3221(2) 0.75686(10)
H12 H 0.8258 0.2932 0.7421
C12 C 0.9640(3) 0.3654(2) 0.77843(10)
C13 C 0.9254(2) 0.4038(2) 0.80044(10)
H14 H 0.9511 0.4294 0.8162
Cd1 Cd 0.5000 0.2500 0.967882(10)
Cl1 Cl 0.39557(6) 0.35362(6) 0.96823(2)
N1 N 0.57307(19) 0.31754(19) 0.93002(9)
N2 N 0.92703(19) 0.3189(2) 0.75544(9)
C14 C 0.4606(2) 0.1437(2) 0.90920(10)
H15 H 0.5134 0.1467 0.9086
C15 C 0.4249(3) 0.0965(2) 0.88678(10)
H16 H 0.4530 0.0674 0.8728
C16 C 0.3427(2) 0.0956(3) 0.88673(9)
C17 C 0.3095(3) 0.1404(2) 0.91022(10)
H17 H 0.2569 0.1429 0.9123
C18 C 0.3572(2) 0.1816(2) 0.93051(9)
H18 H 0.3336 0.2109 0.9457
C19 C 0.2978(3) 0.0481(2) 0.86605(10)
H19 H 0.2639 0.0162 0.8782
H20 H 0.3311 0.0154 0.8540
C20 C 0.2502(2) 0.0998(2) 0.84352(9)
H21 H 0.2842 0.1322 0.8316
H22 H 0.2165 0.1322 0.8556
C21 C 0.2014(3) 0.0482(3) 0.82039(12)
H23 H 0.2353 0.0167 0.8081
H24 H 0.1687 0.0148 0.8324
C22 C 0.1538(2) 0.0956(2) 0.79919(10)
C23 C 0.1890(2) 0.1414(2) 0.77529(10)
H25 H 0.2417 0.1436 0.7737
C24 C 0.1483(2) 0.1779(2) 0.75686(10)
H26 H 0.1742 0.2068 0.7421
C25 C 0.0360(3) 0.1346(2) 0.77843(10)
C26 C 0.0746(2) 0.0962(2) 0.80044(10)
H28 H 0.0489 0.0706 0.8162
Cd3_2 Cd 1.0000 0.2500 0.717882(10)
Cl2 Cl 0.60443(6) 0.14638(6) 0.96823(2)
N3 N 0.42693(19) 0.18246(19) 0.93002(9)
N4 N 0.07297(19) 0.1811(2) 0.75544(9)
H27 H 0.9832 0.1309 0.7781
H1_2 H 0.0134 0.6467 0.4086
Cd1_2 Cd 0.0000 0.7500 0.467882(10)
Cl1_2 Cl 0.10443(6) 0.64638(6) 0.46823(2)
C14_2 C 0.0394(2) 0.8563(2) 0.40920(10)
C15_2 C 0.0751(3) 0.9035(2) 0.38678(10)
H16_2 H 0.0470 0.9326 0.3728
C16_2 C 0.1573(2) 0.9044(3) 0.38673(9)
C17_2 C 0.1905(3) 0.8596(2) 0.41022(10)
H17_2 H 0.2431 0.8571 0.4123
C18_2 C 0.1428(2) 0.8184(2) 0.43051(9)
H18_2 H 0.1664 0.7891 0.4457
C19_2 C 0.2022(3) 0.9519(2) 0.36605(10)
H19_2 H 0.2361 0.9838 0.3782
H20_2 H 0.1689 0.9846 0.3540
C20_2 C 0.2498(2) 0.9002(2) 0.34352(9)
H21_2 H 0.2158 0.8678 0.3316
H22_2 H 0.2835 0.8678 0.3556
C21_2 C 0.2986(3) 0.9518(3) 0.32039(12)
H23_2 H 0.2647 0.9833 0.3081
H24_2 H 0.3313 0.9852 0.3324
C22_2 C 0.3462(2) 0.9044(2) 0.29919(10)
C23_2 C 0.3110(2) 0.8586(2) 0.27529(10)
H25_2 H 0.2583 0.8564 0.2737
C24_2 C 0.3517(2) 0.8221(2) 0.25686(10)
H26_2 H 0.3258 0.7932 0.2421
C25_2 C 0.4640(3) 0.8654(2) 0.27843(10)
H27_2 H 0.5168 0.8691 0.2781
C26_2 C 0.4254(2) 0.9038(2) 0.30044(10)
H28_2 H 0.4511 0.9294 0.3162
Cd2 Cd 0.5000 0.7500 0.217882(10)
N3_2 N 0.07307(19) 0.81754(19) 0.43002(9)
N4_2 N 0.42703(19) 0.8189(2) 0.25544(9)
N5_2 N 0.0689(2) 0.82297(19) 0.50544(9)
C1_2 C 0.9606(2) 0.6437(2) 0.40920(10)
C2_2 C 0.9249(3) 0.5965(2) 0.38678(10)
H2_2 H 0.9530 0.5674 0.3728
C3_2 C 0.8427(2) 0.5956(3) 0.38673(9)
C4_2 C 0.8095(3) 0.6404(2) 0.41022(10)
H3_2 H 0.7569 0.6429 0.4123
C5_2 C 0.8572(2) 0.6816(2) 0.43051(9)
H4_2 H 0.8336 0.7109 0.4457
C6_2 C 0.7978(3) 0.5481(2) 0.36605(10)
H5_2 H 0.7639 0.5162 0.3782
H6_2 H 0.8311 0.5154 0.3540
C7_2 C 0.7502(2) 0.5998(2) 0.34352(9)
H7_2 H 0.7842 0.6322 0.3316
H8_2 H 0.7165 0.6322 0.3556
C8_2 C 0.7014(3) 0.5482(3) 0.32039(12)
H9_2 H 0.7353 0.5167 0.3081
H10_2 H 0.6687 0.5148 0.3324
C9_2 C 0.6538(2) 0.5956(2) 0.29919(10)
C10_2 C 0.6890(2) 0.6414(2) 0.27529(10)
H11_2 H 0.7417 0.6436 0.2737
C11_2 C 0.6483(2) 0.6779(2) 0.25686(10)
H12_2 H 0.6742 0.7068 0.2421
C12_2 C 0.5360(3) 0.6346(2) 0.27843(10)
H13_2 H 0.4832 0.6309 0.2781
C13_2 C 0.5746(2) 0.5962(2) 0.30044(10)
H14_2 H 0.5489 0.5706 0.3162
Cd1_3 Cd 1.0000 0.7500 0.467882(10)
N1_2 N 0.92693(19) 0.68246(19) 0.43002(9)
N2_2 N 0.57297(19) 0.6811(2) 0.25544(9)
H15_2 H 0.9866 0.8533 0.4086
Cl2_2 Cl 0.89557(6) 0.85362(6) 0.46823(2)
N6_2 N 0.9311(2) 0.67703(19) 0.50544(9)
H8_3 H 0.3822 0.0335 0.1056
C8_3 C 0.2982(3) 0.0486(3) 0.07039(12)
H9_3 H 0.2667 0.0147 0.0581
H10_3 H 0.2648 0.0813 0.0824
C9_3 C 0.3456(2) 0.0962(2) 0.04919(10)
C10_3 C 0.3914(2) 0.0610(2) 0.02529(10)
H11_3 H 0.3936 0.0083 0.0237
C11_3 C 0.4279(2) 0.1017(2) 0.00686(10)
C12_3 C 0.3846(2) 0.2140(3) 0.02843(10)
H13_3 H 0.3809 0.2668 0.0281
C13_3 C 0.3462(2) 0.1754(2) 0.05044(10)
H14_3 H 0.3206 0.2011 0.0662
H12_3 H 0.4568 0.0758 0.9921
C1_3 C 0.3937(2) 0.7894(2) 0.15920(10)
H1_3 H 0.3967 0.7366 0.1586
C2_3 C 0.3465(2) 0.8251(3) 0.13678(10)
H2_3 H 0.3174 0.7970 0.1228
C3_3 C 0.3456(3) 0.9073(2) 0.13673(9)
C4_3 C 0.3904(2) 0.9405(3) 0.16022(10)
H3_3 H 0.3929 0.9931 0.1623
C5_3 C 0.4316(2) 0.8928(2) 0.18051(9)
H4_3 H 0.4609 0.9164 0.1957
C6_3 C 0.2981(2) 0.9522(3) 0.11605(10)
H5_3 H 0.2662 0.9861 0.1282
H6_3 H 0.2654 0.9189 0.1040
C7_3 C 0.3498(2) 0.9998(2) 0.09352(9)
H7_3 H 0.3822 0.9658 0.0816
Cl1_3 Cl 0.39638(6) 0.64557(6) 0.21823(2)
N1_3 N 0.43246(19) 0.82307(19) 0.18002(9)
C14_3 C 0.6063(2) 0.7106(2) 0.15920(10)
H15_3 H 0.6033 0.7634 0.1586
C15_3 C 0.6535(2) 0.6749(3) 0.13678(10)
H16_3 H 0.6826 0.7030 0.1228
C16_3 C 0.6544(3) 0.5927(2) 0.13673(9)
C17_3 C 0.6096(2) 0.5595(3) 0.16022(10)
H17_3 H 0.6071 0.5069 0.1623
C18_3 C 0.5684(2) 0.6072(2) 0.18051(9)
H18_3 H 0.5391 0.5836 0.1957
C19_3 C 0.7019(2) 0.5478(3) 0.11605(10)
H19_3 H 0.7338 0.5139 0.1282
H20_3 H 0.7346 0.5811 0.1040
C20_3 C 0.6502(2) 0.5002(2) 0.09352(9)
H21_3 H 0.6178 0.5342 0.0816
H22_3 H 0.6178 0.4665 0.1056
C21_3 C 0.7018(3) 0.4514(3) 0.07039(12)
H23_3 H 0.7333 0.4853 0.0581
H24_3 H 0.7352 0.4187 0.0824
C22_3 C 0.6544(2) 0.4038(2) 0.04919(10)
C23_3 C 0.6086(2) 0.4390(2) 0.02529(10)
H25_3 H 0.6064 0.4917 0.0237
C24_3 C 0.5721(2) 0.3983(2) 0.00686(10)
C25_3 C 0.6154(2) 0.2860(3) 0.02843(10)
H27_3 H 0.6191 0.2332 0.0281
C26_3 C 0.6538(2) 0.3246(2) 0.05044(10)
H28_3 H 0.6794 0.2989 0.0662
Cl2_3 Cl 0.60362(6) 0.85443(6) 0.21823(2)
N3_3 N 0.56754(19) 0.67693(19) 0.18002(9)
H26_3 H 0.5432 0.4242 0.9921
C1_4 C 0.1063(2) 0.2106(2) 0.65920(10)
H1_4 H 0.1033 0.2634 0.6586
C2_4 C 0.1535(2) 0.1749(3) 0.63678(10)
H2_4 H 0.1826 0.2030 0.6228
C3_4 C 0.1544(3) 0.0927(2) 0.63673(9)
C4_4 C 0.1096(2) 0.0595(3) 0.66022(10)
H3_4 H 0.1071 0.0069 0.6623
C5_4 C 0.0684(2) 0.1072(2) 0.68051(9)
H4_4 H 0.0391 0.0836 0.6957
C6_4 C 0.2019(2) 0.0478(3) 0.61605(10)
H5_4 H 0.2338 0.0139 0.6282
H6_4 H 0.2346 0.0811 0.6040
C7_4 C 0.1502(2) 0.0002(2) 0.59352(9)
H7_4 H 0.1178 0.0342 0.5816
Cl1_4 Cl 0.10362(6) 0.35443(6) 0.71823(2)
N1_4 N 0.06754(19) 0.17693(19) 0.68002(9)
H8_4 H 0.1178 0.9665 0.6056
C8_4 C 0.2018(3) 0.9514(3) 0.57039(12)
H9_4 H 0.2333 0.9853 0.5581
H10_4 H 0.2352 0.9187 0.5824
C9_4 C 0.1544(2) 0.9038(2) 0.54919(10)
C10_4 C 0.1086(2) 0.9390(2) 0.52529(10)
H11_4 H 0.1064 0.9917 0.5237
C11_4 C 0.0721(2) 0.8983(2) 0.50686(10)
H12_4 H 0.0432 0.9242 0.4921
C12_4 C 0.1154(2) 0.7860(3) 0.52843(10)
H13_4 H 0.1191 0.7332 0.5281
C13_4 C 0.1538(2) 0.8246(2) 0.55044(10)
H14_4 H 0.1794 0.7989 0.5662
C14_4 C 0.8937(2) 0.2894(2) 0.65920(10)
H15_4 H 0.8967 0.2366 0.6586
C15_4 C 0.8465(2) 0.3251(3) 0.63678(10)
H16_4 H 0.8174 0.2970 0.6228
C16_4 C 0.8456(3) 0.4073(2) 0.63673(9)
C17_4 C 0.8904(2) 0.4405(3) 0.66022(10)
H17_4 H 0.8929 0.4931 0.6623
C18_4 C 0.9316(2) 0.3928(2) 0.68051(9)
H18_4 H 0.9609 0.4164 0.6957
C19_4 C 0.7981(2) 0.4522(3) 0.61605(10)
H19_4 H 0.7662 0.4861 0.6282
H20_4 H 0.7654 0.4189 0.6040
C20_4 C 0.8498(2) 0.4998(2) 0.59352(9)
H21_4 H 0.8822 0.4658 0.5816
H22_4 H 0.8822 0.5335 0.6056
C21_4 C 0.7982(3) 0.5486(3) 0.57039(12)
H23_4 H 0.7667 0.5147 0.5581
H24_4 H 0.7648 0.5813 0.5824
C22_4 C 0.8456(2) 0.5962(2) 0.54919(10)
C23_4 C 0.8914(2) 0.5610(2) 0.52529(10)
H25_4 H 0.8936 0.5083 0.5237
C24_4 C 0.9279(2) 0.6017(2) 0.50686(10)
H26_4 H 0.9568 0.5758 0.4921
C25_4 C 0.8846(2) 0.7140(3) 0.52843(10)
H27_4 H 0.8809 0.7668 0.5281
C26_4 C 0.8462(2) 0.6754(2) 0.55044(10)
H28_4 H 0.8206 0.7011 0.5662
Cl2_4 Cl 0.89638(6) 0.14557(6) 0.71823(2)
N3_4 N 0.93246(19) 0.32307(19) 0.68002(9)
H27_5 H 0.0168 0.8691 0.2219
Cd2_2 Cd -0.0000 0.7500 0.282118(10)
C1_5 C 0.4606(2) 0.6437(2) 0.09080(10)
H1_5 H 0.5134 0.6467 0.0914
C2_5 C 0.4249(3) 0.5965(2) 0.11322(10)
H2_5 H 0.4530 0.5674 0.1272
C3_5 C 0.3427(2) 0.5956(3) 0.11327(9)
C4_5 C 0.3095(3) 0.6404(2) 0.08978(10)
H3_5 H 0.2569 0.6429 0.0877
C5_5 C 0.3572(2) 0.6816(2) 0.06949(9)
H4_5 H 0.3336 0.7109 0.0543
C6_5 C 0.2978(3) 0.5481(2) 0.13395(10)
H5_5 H 0.2639 0.5162 0.1218
H6_5 H 0.3311 0.5154 0.1460
C7_5 C 0.2502(2) 0.5998(2) 0.15648(9)
H7_5 H 0.2842 0.6322 0.1684
H8_5 H 0.2165 0.6322 0.1444
C8_5 C 0.2014(3) 0.5482(3) 0.17961(12)
H9_5 H 0.2353 0.5167 0.1919
H10_5 H 0.1687 0.5148 0.1676
C9_5 C 0.1538(2) 0.5956(2) 0.20081(10)
C10_5 C 0.1890(2) 0.6414(2) 0.22471(10)
H11_5 H 0.2417 0.6436 0.2263
C11_5 C 0.1483(2) 0.6779(2) 0.24314(10)
H12_5 H 0.1742 0.7068 0.2579
C12_5 C 0.0360(3) 0.6346(2) 0.22157(10)
C13_5 C 0.0746(2) 0.5962(2) 0.19956(10)
H14_5 H 0.0489 0.5706 0.1838
Cd1_4 Cd 0.5000 0.7500 0.032118(10)
Cl1_5 Cl 0.60443(6) 0.64638(6) 0.03177(2)
N1_5 N 0.42693(19) 0.68246(19) 0.06998(9)
N2_3 N 0.07297(19) 0.6811(2) 0.24456(9)
C14_5 C 0.5394(2) 0.8563(2) 0.09080(10)
H15_5 H 0.4866 0.8533 0.0914
C15_5 C 0.5751(3) 0.9035(2) 0.11322(10)
H16_5 H 0.5470 0.9326 0.1272
C16_5 C 0.6573(2) 0.9044(3) 0.11327(9)
C17_5 C 0.6905(3) 0.8596(2) 0.08978(10)
H17_5 H 0.7431 0.8571 0.0877
C18_5 C 0.6428(2) 0.8184(2) 0.06949(9)
H18_5 H 0.6664 0.7891 0.0543
C19_5 C 0.7022(3) 0.9519(2) 0.13395(10)
H19_5 H 0.7361 0.9838 0.1218
H20_5 H 0.6689 0.9846 0.1460
C20_5 C 0.7498(2) 0.9002(2) 0.15648(9)
H21_5 H 0.7158 0.8678 0.1684
H22_5 H 0.7835 0.8678 0.1444
C21_5 C 0.7986(3) 0.9518(3) 0.17961(12)
H23_5 H 0.7647 0.9833 0.1919
H24_5 H 0.8313 0.9852 0.1676
C22_5 C 0.8462(2) 0.9044(2) 0.20081(10)
C23_5 C 0.8110(2) 0.8586(2) 0.22471(10)
H25_5 H 0.7583 0.8564 0.2263
C24_5 C 0.8517(2) 0.8221(2) 0.24314(10)
H26_5 H 0.8258 0.7932 0.2579
C25_5 C 0.9640(3) 0.8654(2) 0.22157(10)
C26_5 C 0.9254(2) 0.9038(2) 0.19956(10)
H28_5 H 0.9511 0.9294 0.1838
Cd2_3 Cd 1.0000 0.7500 0.282118(10)
Cl2_5 Cl 0.39557(6) 0.85362(6) 0.03177(2)
N3_5 N 0.57307(19) 0.81754(19) 0.06998(9)
N4_3 N 0.92703(19) 0.8189(2) 0.24456(9)
N5_3 N 0.5689(2) 0.82297(19) 0.99456(9)
N6_3 N 0.4311(2) 0.67703(19) 0.99456(9)
H13_5 H 0.9832 0.6309 0.2219
C1_6 C 0.0394(2) 0.3563(2) 0.59080(10)
C2_6 C 0.0751(3) 0.4035(2) 0.61322(10)
H2_6 H 0.0470 0.4326 0.6272
C3_6 C 0.1573(2) 0.4044(3) 0.61327(9)
C4_6 C 0.1905(3) 0.3596(2) 0.58978(10)
H3_6 H 0.2431 0.3571 0.5877
C5_6 C 0.1428(2) 0.3184(2) 0.56949(9)
H4_6 H 0.1664 0.2891 0.5543
C6_6 C 0.2022(3) 0.4519(2) 0.63395(10)
H5_6 H 0.2361 0.4838 0.6218
H6_6 H 0.1689 0.4846 0.6460
C7_6 C 0.2498(2) 0.4002(2) 0.65648(9)
H7_6 H 0.2158 0.3678 0.6684
H8_6 H 0.2835 0.3678 0.6444
C8_6 C 0.2986(3) 0.4518(3) 0.67961(12)
H9_6 H 0.2647 0.4833 0.6919
H10_6 H 0.3313 0.4852 0.6676
C9_6 C 0.3462(2) 0.4044(2) 0.70081(10)
C10_6 C 0.3110(2) 0.3586(2) 0.72471(10)
H11_6 H 0.2583 0.3564 0.7263
C11_6 C 0.3517(2) 0.3221(2) 0.74314(10)
H12_6 H 0.3258 0.2932 0.7579
C12_6 C 0.4640(3) 0.3654(2) 0.72157(10)
H13_6 H 0.5168 0.3691 0.7219
C13_6 C 0.4254(2) 0.4038(2) 0.69956(10)
H14_6 H 0.4511 0.4294 0.6838
Cd1_5 Cd -0.0000 0.2500 0.532118(10)
N1_6 N 0.07307(19) 0.31754(19) 0.56998(9)
N2_4 N 0.42703(19) 0.3189(2) 0.74456(9)
H15_6 H 0.0134 0.1467 0.5914
Cd3_3 Cd 0.5000 0.2500 0.782118(10)
Cl2_6 Cl 0.10443(6) 0.14638(6) 0.53177(2)
N6_4 N 0.0689(2) 0.32297(19) 0.49456(9)
H1_6 H 0.9866 0.3533 0.5914
Cd1_6 Cd 1.0000 0.2500 0.532118(10)
Cl1_6 Cl 0.89557(6) 0.35362(6) 0.53177(2)
C14_6 C 0.9606(2) 0.1437(2) 0.59080(10)
C15_6 C 0.9249(3) 0.0965(2) 0.61322(10)
H16_6 H 0.9530 0.0674 0.6272
C16_6 C 0.8427(2) 0.0956(3) 0.61327(9)
C17_6 C 0.8095(3) 0.1404(2) 0.58978(10)
H17_6 H 0.7569 0.1429 0.5877
C18_6 C 0.8572(2) 0.1816(2) 0.56949(9)
H18_6 H 0.8336 0.2109 0.5543
C19_6 C 0.7978(3) 0.0481(2) 0.63395(10)
H19_6 H 0.7639 0.0162 0.6218
H20_6 H 0.8311 0.0154 0.6460
C20_6 C 0.7502(2) 0.0998(2) 0.65648(9)
H21_6 H 0.7842 0.1322 0.6684
H22_6 H 0.7165 0.1322 0.6444
C21_6 C 0.7014(3) 0.0482(3) 0.67961(12)
H23_6 H 0.7353 0.0167 0.6919
H24_6 H 0.6687 0.0148 0.6676
C22_6 C 0.6538(2) 0.0956(2) 0.70081(10)
C23_6 C 0.6890(2) 0.1414(2) 0.72471(10)
H25_6 H 0.7417 0.1436 0.7263
C24_6 C 0.6483(2) 0.1779(2) 0.74314(10)
H26_6 H 0.6742 0.2068 0.7579
C25_6 C 0.5360(3) 0.1346(2) 0.72157(10)
H27_6 H 0.4832 0.1309 0.7219
C26_6 C 0.5746(2) 0.0962(2) 0.69956(10)
H28_6 H 0.5489 0.0706 0.6838
N3_6 N 0.92693(19) 0.18246(19) 0.56998(9)
N4_4 N 0.57297(19) 0.1811(2) 0.74456(9)
N5_4 N 0.9311(2) 0.17703(19) 0.49456(9)
H26_7 H 0.4568 0.5758 0.0079
C1_7 C 0.6063(2) 0.2106(2) 0.84080(10)
H1_7 H 0.6033 0.2634 0.8414
C2_7 C 0.6535(2) 0.1749(3) 0.86322(10)
H2_7 H 0.6826 0.2030 0.8772
C3_7 C 0.6544(3) 0.0927(2) 0.86327(9)
C4_7 C 0.6096(2) 0.0595(3) 0.83978(10)
H3_7 H 0.6071 0.0069 0.8377
C5_7 C 0.5684(2) 0.1072(2) 0.81949(9)
H4_7 H 0.5391 0.0836 0.8043
C6_7 C 0.7019(2) 0.0478(3) 0.88395(10)
H5_7 H 0.7338 0.0139 0.8718
H6_7 H 0.7346 0.0811 0.8960
C7_7 C 0.6502(2) 0.0002(2) 0.90648(9)
H7_7 H 0.6178 0.0342 0.9184
Cl1_7 Cl 0.60362(6) 0.35443(6) 0.78177(2)
N1_7 N 0.56754(19) 0.17693(19) 0.81998(9)
C14_7 C 0.3937(2) 0.2894(2) 0.84080(10)
H15_7 H 0.3967 0.2366 0.8414
C15_7 C 0.3465(2) 0.3251(3) 0.86322(10)
H16_7 H 0.3174 0.2970 0.8772
C16_7 C 0.3456(3) 0.4073(2) 0.86327(9)
C17_7 C 0.3904(2) 0.4405(3) 0.83978(10)
H17_7 H 0.3929 0.4931 0.8377
C18_7 C 0.4316(2) 0.3928(2) 0.81949(9)
H18_7 H 0.4609 0.4164 0.8043
C19_7 C 0.2981(2) 0.4522(3) 0.88395(10)
H19_7 H 0.2662 0.4861 0.8718
H20_7 H 0.2654 0.4189 0.8960
C20_7 C 0.3498(2) 0.4998(2) 0.90648(9)
H21_7 H 0.3822 0.4658 0.9184
H22_7 H 0.3822 0.5335 0.8944
C21_7 C 0.2982(3) 0.5486(3) 0.92961(12)
H23_7 H 0.2667 0.5147 0.9419
H24_7 H 0.2648 0.5813 0.9176
C22_7 C 0.3456(2) 0.5962(2) 0.95081(10)
C23_7 C 0.3914(2) 0.5610(2) 0.97471(10)
H25_7 H 0.3936 0.5083 0.9763
C24_7 C 0.4279(2) 0.6017(2) 0.99314(10)
C25_7 C 0.3846(2) 0.7140(3) 0.97157(10)
H27_7 H 0.3809 0.7668 0.9719
C26_7 C 0.3462(2) 0.6754(2) 0.94956(10)
H28_7 H 0.3206 0.7011 0.9338
Cl2_7 Cl 0.39638(6) 0.14557(6) 0.78177(2)
N3_7 N 0.43246(19) 0.32307(19) 0.81998(9)
H12_7 H 0.5432 0.9242 0.0079
H8_7 H 0.6178 0.9665 0.8944
C8_7 C 0.7018(3) 0.9514(3) 0.92961(12)
H9_7 H 0.7333 0.9853 0.9419
H10_7 H 0.7352 0.9187 0.9176
C9_7 C 0.6544(2) 0.9038(2) 0.95081(10)
C10_7 C 0.6086(2) 0.9390(2) 0.97471(10)
H11_7 H 0.6064 0.9917 0.9763
C11_7 C 0.5721(2) 0.8983(2) 0.99314(10)
C12_7 C 0.6154(2) 0.7860(3) 0.97157(10)
H13_7 H 0.6191 0.7332 0.9719
C13_7 C 0.6538(2) 0.8246(2) 0.94956(10)
H14_7 H 0.6794 0.7989 0.9338
C14_8 C 0.1063(2) 0.7106(2) 0.34080(10)
H15_8 H 0.1033 0.7634 0.3414
C15_8 C 0.1535(2) 0.6749(3) 0.36322(10)
H16_8 H 0.1826 0.7030 0.3772
C16_8 C 0.1544(3) 0.5927(2) 0.36327(9)
C17_8 C 0.1096(2) 0.5595(3) 0.33978(10)
H17_8 H 0.1071 0.5069 0.3377
C18_8 C 0.0684(2) 0.6072(2) 0.31949(9)
H18_8 H 0.0391 0.5836 0.3043
C19_8 C 0.2019(2) 0.5478(3) 0.38395(10)
H19_8 H 0.2338 0.5139 0.3718
H20_8 H 0.2346 0.5811 0.3960
C20_8 C 0.1502(2) 0.5002(2) 0.40648(9)
H21_8 H 0.1178 0.5342 0.4184
H22_8 H 0.1178 0.4665 0.3944
C21_8 C 0.2018(3) 0.4514(3) 0.42961(12)
H23_8 H 0.2333 0.4853 0.4419
H24_8 H 0.2352 0.4187 0.4176
C22_8 C 0.1544(2) 0.4038(2) 0.45081(10)
C23_8 C 0.1086(2) 0.4390(2) 0.47471(10)
H25_8 H 0.1064 0.4917 0.4763
C24_8 C 0.0721(2) 0.3983(2) 0.49314(10)
H26_8 H 0.0432 0.4242 0.5079
C25_8 C 0.1154(2) 0.2860(3) 0.47157(10)
H27_8 H 0.1191 0.2332 0.4719
C26_8 C 0.1538(2) 0.3246(2) 0.44956(10)
H28_8 H 0.1794 0.2989 0.4338
Cl2_8 Cl 0.10362(6) 0.85443(6) 0.28177(2)
N3_8 N 0.06754(19) 0.67693(19) 0.31998(9)
H8_8 H 0.8822 0.0335 0.3944
C8_8 C 0.7982(3) 0.0486(3) 0.42961(12)
H9_8 H 0.7667 0.0147 0.4419
H10_8 H 0.7648 0.0813 0.4176
C9_8 C 0.8456(2) 0.0962(2) 0.45081(10)
C10_8 C 0.8914(2) 0.0610(2) 0.47471(10)
H11_8 H 0.8936 0.0083 0.4763
C11_8 C 0.9279(2) 0.1017(2) 0.49314(10)
H12_8 H 0.9568 0.0758 0.5079
C12_8 C 0.8846(2) 0.2140(3) 0.47157(10)
H13_8 H 0.8809 0.2668 0.4719
C13_8 C 0.8462(2) 0.1754(2) 0.44956(10)
H14_8 H 0.8206 0.2011 0.4338
C1_8 C 0.8937(2) 0.7894(2) 0.34080(10)
H1_8 H 0.8967 0.7366 0.3414
C2_8 C 0.8465(2) 0.8251(3) 0.36322(10)
H2_8 H 0.8174 0.7970 0.3772
C3_8 C 0.8456(3) 0.9073(2) 0.36327(9)
C4_8 C 0.8904(2) 0.9405(3) 0.33978(10)
H3_8 H 0.8929 0.9931 0.3377
C5_8 C 0.9316(2) 0.8928(2) 0.31949(9)
H4_8 H 0.9609 0.9164 0.3043
C6_8 C 0.7981(2) 0.9522(3) 0.38395(10)
H5_8 H 0.7662 0.9861 0.3718
H6_8 H 0.7654 0.9189 0.3960
C7_8 C 0.8498(2) 0.9998(2) 0.40648(9)
H7_8 H 0.8822 0.9658 0.4184
Cl1_8 Cl 0.89638(6) 0.64557(6) 0.28177(2)
N1_8 N 0.93246(19) 0.82307(19) 0.31998(9)
H40 H 0.0202 0.6278 0.0371
Cd6 Cd 0.0000 0.7500 0.093857(12)
H37 H 0.7717 0.5092 0.0003
C35 C 0.8426(3) 0.5939(3) 0.01283(11)
C36 C 0.9278(3) 0.5906(3) 0.01257(10)
C37 C 0.9677(3) 0.6329(2) 0.03540(10)
C38 C 0.8539(2) 0.6816(2) 0.05527(10)
H41 H 0.8285 0.7123 0.0696
C39 C 0.8116(3) 0.6360(3) 0.03413(10)
H42 H 0.7588 0.6364 0.0356
N8 N 0.9302(2) 0.6807(2) 0.05478(8)
H51 H 0.2283 0.9908 0.0003
C48 C 0.1574(3) 0.9061(3) 0.01283(11)
C49 C 0.0722(3) 0.9094(3) 0.01257(10)
C50 C 0.0323(3) 0.8671(2) 0.03540(10)
C51 C 0.1461(2) 0.8184(2) 0.05527(10)
H55 H 0.1715 0.7877 0.0696
C52 C 0.1884(3) 0.8640(3) 0.03413(10)
H56 H 0.2412 0.8636 0.0356
Cd6_2 Cd 1.0000 0.7500 0.093857(12)
N10 N 0.0698(2) 0.8193(2) 0.05478(8)
C27 C 0.6441(3) 0.6754(2) 0.88093(10)
H29 H 0.6687 0.6981 0.8641
C28 C 0.6859(2) 0.6361(3) 0.90164(10)
H30 H 0.7386 0.6394 0.9003
C29 C 0.6571(2) 0.5944(3) 0.92309(11)
C30 C 0.5831(3) 0.5948(3) 0.92657(11)
H31 H 0.5615 0.5695 0.9434
C31 C 0.5325(3) 0.6351(3) 0.90401(9)
H32 H 0.4799 0.6297 0.9036
C32 C 0.7085(3) 0.5464(3) 0.94555(10)
H33 H 0.6768 0.5109 0.9570
H34 H 0.7443 0.5171 0.9333
C33 C 0.7532(3) 0.5970(2) 0.96913(11)
H35 H 0.7848 0.6330 0.9579
H36 H 0.7178 0.6255 0.9820
C34 C 0.8030(3) 0.5466(3) 0.98972(11)
H38 H 0.8399 0.5198 0.9770
H39 H 0.9537 0.5616 0.9979
Cd4 Cd 0.5000 0.7500 0.843857(12)
Cl3 Cl 0.60584(6) 0.85119(7) 0.84333(3)
N7 N 0.5740(2) 0.68263(19) 0.88327(8)
C40 C 0.3559(3) 0.8246(2) 0.88093(10)
H43 H 0.3313 0.8019 0.8641
C41 C 0.3141(2) 0.8639(3) 0.90164(10)
H44 H 0.2614 0.8606 0.9003
C42 C 0.3429(2) 0.9056(3) 0.92309(11)
C43 C 0.4169(3) 0.9052(3) 0.92657(11)
H45 H 0.4385 0.9305 0.9434
C44 C 0.4675(3) 0.8649(3) 0.90401(9)
H46 H 0.5201 0.8703 0.9036
C45 C 0.2915(3) 0.9536(3) 0.94555(10)
H47 H 0.3232 0.9891 0.9570
H48 H 0.2557 0.9829 0.9333
C46 C 0.2468(3) 0.9030(2) 0.96913(11)
H49 H 0.2152 0.8670 0.9579
H50 H 0.2822 0.8745 0.9820
C47 C 0.1970(3) 0.9534(3) 0.98972(11)
H52 H 0.1601 0.9802 0.9770
H53 H 0.0463 0.9384 0.9979
Cl4 Cl 0.39416(6) 0.64881(7) 0.84333(3)
N9 N 0.4260(2) 0.81737(19) 0.88327(8)
N11 N 0.4307(2) 0.8198(2) 0.80478(8)
N12 N 0.5693(2) 0.6802(2) 0.80478(8)
H54 H 0.9798 0.8722 0.0371
H32_2 H 0.0201 0.3703 0.4036
Cd4_2 Cd -0.0000 0.2500 0.343857(12)
C40_2 C 0.1441(3) 0.1754(2) 0.38093(10)
H43_2 H 0.1687 0.1981 0.3641
C41_2 C 0.1859(2) 0.1361(3) 0.40164(10)
H44_2 H 0.2386 0.1394 0.4003
C42_2 C 0.1571(2) 0.0944(3) 0.42309(11)
C43_2 C 0.0831(3) 0.0948(3) 0.42657(11)
H45_2 H 0.0615 0.0695 0.4434
C44_2 C 0.0325(3) 0.1351(3) 0.40401(9)
C45_2 C 0.2085(3) 0.0464(3) 0.44555(10)
H47_2 H 0.1768 0.0109 0.4570
H48_2 H 0.2443 0.0171 0.4333
C46_2 C 0.2532(3) 0.0970(2) 0.46913(11)
H49_2 H 0.2848 0.1330 0.4579
H50_2 H 0.2178 0.1255 0.4820
C47_2 C 0.3030(3) 0.0466(3) 0.48972(11)
H51_2 H 0.2717 0.0092 0.5003
H52_2 H 0.3399 0.0198 0.4770
C48_2 C 0.3426(3) 0.0939(3) 0.51283(11)
C49_2 C 0.4278(3) 0.0906(3) 0.51257(10)
H53_2 H 0.4537 0.0616 0.4979
C50_2 C 0.4677(3) 0.1329(2) 0.53540(10)
H54_2 H 0.5202 0.1278 0.5371
C51_2 C 0.3539(2) 0.1816(2) 0.55527(10)
H55_2 H 0.3285 0.2123 0.5696
C52_2 C 0.3116(3) 0.1360(3) 0.53413(10)
H56_2 H 0.2588 0.1364 0.5356
Cd5 Cd 0.5000 0.2500 0.593857(12)
Cl4_2 Cl 0.10584(6) 0.35119(7) 0.34333(3)
N9_2 N 0.0740(2) 0.18263(19) 0.38327(8)
N10_2 N 0.4302(2) 0.1807(2) 0.55478(8)
N11_2 N 0.0693(2) 0.1802(2) 0.30478(8)
C27_2 C 0.8559(3) 0.3246(2) 0.38093(10)
H29_2 H 0.8313 0.3019 0.3641
C28_2 C 0.8141(2) 0.3639(3) 0.40164(10)
H30_2 H 0.7614 0.3606 0.4003
C29_2 C 0.8429(2) 0.4056(3) 0.42309(11)
C30_2 C 0.9169(3) 0.4052(3) 0.42657(11)
H31_2 H 0.9385 0.4305 0.4434
C31_2 C 0.9675(3) 0.3649(3) 0.40401(9)
C32_2 C 0.7915(3) 0.4536(3) 0.44555(10)
H33_2 H 0.8232 0.4891 0.4570
H34_2 H 0.7557 0.4829 0.4333
C33_2 C 0.7468(3) 0.4030(2) 0.46913(11)
H35_2 H 0.7152 0.3670 0.4579
H36_2 H 0.7822 0.3745 0.4820
C34_2 C 0.6970(3) 0.4534(3) 0.48972(11)
H37_2 H 0.7283 0.4908 0.5003
H38_2 H 0.6601 0.4802 0.4770
C35_2 C 0.6574(3) 0.4061(3) 0.51283(11)
C36_2 C 0.5722(3) 0.4094(3) 0.51257(10)
H39_2 H 0.5463 0.4384 0.4979
C37_2 C 0.5323(3) 0.3671(2) 0.53540(10)
H40_2 H 0.4798 0.3722 0.5371
C38_2 C 0.6461(2) 0.3184(2) 0.55527(10)
H41_2 H 0.6715 0.2877 0.5696
C39_2 C 0.6884(3) 0.3640(3) 0.53413(10)
H42_2 H 0.7412 0.3636 0.5356
Cd4_3 Cd 1.0000 0.2500 0.343857(12)
Cl3_2 Cl 0.89416(6) 0.14881(7) 0.34333(3)
N7_2 N 0.9260(2) 0.31737(19) 0.38327(8)
N8_2 N 0.5698(2) 0.3193(2) 0.55478(8)
H46_2 H 0.9799 0.1297 0.4036
N12_2 N 0.9307(2) 0.3198(2) 0.30478(8)
C33_3 C 0.1530(2) 0.0032(3) 0.21913(11)
H35_3 H 0.1170 0.0348 0.2079
C34_3 C 0.2034(3) 0.0530(3) 0.23972(11)
H37_3 H 0.2408 0.0217 0.2503
H38_3 H 0.2302 0.0899 0.2270
C35_3 C 0.1561(3) 0.0926(3) 0.26283(11)
C36_3 C 0.1594(3) 0.1778(3) 0.26257(10)
H39_3 H 0.1884 0.2037 0.2479
C37_3 C 0.1171(2) 0.2177(3) 0.28540(10)
H40_3 H 0.1222 0.2702 0.2871
C38_3 C 0.0684(2) 0.1039(2) 0.30527(10)
H41_3 H 0.0377 0.0785 0.3196
C39_3 C 0.1140(3) 0.0616(3) 0.28413(10)
H42_3 H 0.1136 0.0088 0.2856
C27_3 C 0.0746(2) 0.8941(3) 0.13093(10)
H29_3 H 0.0519 0.9187 0.1141
C28_3 C 0.1139(3) 0.9359(2) 0.15164(10)
H30_3 H 0.1106 0.9886 0.1503
C29_3 C 0.1556(3) 0.9071(2) 0.17309(11)
C30_3 C 0.1552(3) 0.8331(3) 0.17657(11)
H31_3 H 0.1805 0.8115 0.1934
C31_3 C 0.1149(3) 0.7825(3) 0.15401(9)
H32_3 H 0.1203 0.7299 0.1536
C32_3 C 0.2036(3) 0.9585(3) 0.19555(10)
H33_3 H 0.2391 0.9268 0.2070
H34_3 H 0.2329 0.9943 0.1833
H36_3 H 0.1245 0.9678 0.2320
N7_3 N 0.06737(19) 0.8240(2) 0.13327(8)
Cl4_3 Cl 0.10119(7) 0.64416(6) 0.09333(3)
Cl3_3 Cl 0.89881(7) 0.85584(6) 0.09333(3)
C40_3 C 0.9254(2) 0.6059(3) 0.13093(10)
H43_3 H 0.9481 0.5813 0.1141
C41_3 C 0.8861(3) 0.5641(2) 0.15164(10)
H44_3 H 0.8894 0.5114 0.1503
C42_3 C 0.8444(3) 0.5929(2) 0.17309(11)
C43_3 C 0.8448(3) 0.6669(3) 0.17657(11)
H45_3 H 0.8195 0.6885 0.1934
C44_3 C 0.8851(3) 0.7175(3) 0.15401(9)
H46_3 H 0.8797 0.7701 0.1536
C45_3 C 0.7964(3) 0.5415(3) 0.19555(10)
H47_3 H 0.7609 0.5732 0.2070
H48_3 H 0.7671 0.5057 0.1833
C46_3 C 0.8470(2) 0.4968(3) 0.21913(11)
H49_3 H 0.8830 0.4652 0.2079
H50_3 H 0.8755 0.5322 0.2320
C47_3 C 0.7966(3) 0.4470(3) 0.23972(11)
H51_3 H 0.7592 0.4783 0.2503
H52_3 H 0.7698 0.4101 0.2270
C48_3 C 0.8439(3) 0.4074(3) 0.26283(11)
C49_3 C 0.8406(3) 0.3222(3) 0.26257(10)
H53_3 H 0.8116 0.2963 0.2479
C50_3 C 0.8829(2) 0.2823(3) 0.28540(10)
H54_3 H 0.8778 0.2298 0.2871
C51_3 C 0.9316(2) 0.3961(2) 0.30527(10)
H55_3 H 0.9623 0.4215 0.3196
C52_3 C 0.8860(3) 0.4384(3) 0.28413(10)
H56_3 H 0.8864 0.4912 0.2856
N9_3 N 0.93263(19) 0.6760(2) 0.13327(8)
C27_4 C 0.4254(2) 0.1059(3) 0.63093(10)
H29_4 H 0.4481 0.0813 0.6141
C28_4 C 0.3861(3) 0.0641(2) 0.65164(10)
H30_4 H 0.3894 0.0114 0.6503
C29_4 C 0.3444(3) 0.0929(2) 0.67309(11)
C30_4 C 0.3448(3) 0.1669(3) 0.67657(11)
H31_4 H 0.3195 0.1885 0.6934
C31_4 C 0.3851(3) 0.2175(3) 0.65401(9)
H32_4 H 0.3797 0.2701 0.6536
C32_4 C 0.2964(3) 0.0415(3) 0.69555(10)
H33_4 H 0.2609 0.0732 0.7070
H34_4 H 0.2671 0.0057 0.6833
H36_4 H 0.3755 0.0322 0.7320
Cl3_4 Cl 0.60119(7) 0.14416(6) 0.59333(3)
N7_4 N 0.43263(19) 0.1760(2) 0.63327(8)
C40_4 C 0.5746(2) 0.3941(3) 0.63093(10)
H43_4 H 0.5519 0.4187 0.6141
C41_4 C 0.6139(3) 0.4359(2) 0.65164(10)
H44_4 H 0.6106 0.4886 0.6503
C42_4 C 0.6556(3) 0.4071(2) 0.67309(11)
C43_4 C 0.6552(3) 0.3331(3) 0.67657(11)
H45_4 H 0.6805 0.3115 0.6934
C44_4 C 0.6149(3) 0.2825(3) 0.65401(9)
H46_4 H 0.6203 0.2299 0.6536
C45_4 C 0.7036(3) 0.4585(3) 0.69555(10)
H47_4 H 0.7391 0.4268 0.7070
H48_4 H 0.7329 0.4943 0.6833
C46_4 C 0.6530(2) 0.5032(3) 0.71913(11)
H49_4 H 0.6170 0.5348 0.7079
H50_4 H 0.6245 0.4678 0.7320
C47_4 C 0.7034(3) 0.5530(3) 0.73972(11)
H51_4 H 0.7408 0.5217 0.7503
H52_4 H 0.7302 0.5899 0.7270
C48_4 C 0.6561(3) 0.5926(3) 0.76283(11)
C49_4 C 0.6594(3) 0.6778(3) 0.76257(10)
H53_4 H 0.6884 0.7037 0.7479
C50_4 C 0.6171(2) 0.7177(3) 0.78540(10)
H54_4 H 0.6222 0.7702 0.7871
C51_4 C 0.5684(2) 0.6039(2) 0.80527(10)
H55_4 H 0.5377 0.5785 0.8196
C52_4 C 0.6140(3) 0.5616(3) 0.78413(10)
H56_4 H 0.6136 0.5088 0.7856
Cl4_4 Cl 0.39881(7) 0.35584(6) 0.59333(3)
N9_4 N 0.56737(19) 0.3240(2) 0.63327(8)
C33_4 C 0.3470(2) 0.9968(3) 0.71913(11)
H35_4 H 0.3830 0.9652 0.7079
C34_4 C 0.2966(3) 0.9470(3) 0.73972(11)
H37_4 H 0.2592 0.9783 0.7503
H38_4 H 0.2698 0.9101 0.7270
C35_4 C 0.3439(3) 0.9074(3) 0.76283(11)
C36_4 C 0.3406(3) 0.8222(3) 0.76257(10)
H39_4 H 0.3116 0.7963 0.7479
C37_4 C 0.3829(2) 0.7823(3) 0.78540(10)
H40_4 H 0.3778 0.7298 0.7871
C38_4 C 0.4316(2) 0.8961(2) 0.80527(10)
H41_4 H 0.4623 0.9215 0.8196
C39_4 C 0.3860(3) 0.9384(3) 0.78413(10)
H42_4 H 0.3864 0.9912 0.7856
H54_5 H 0.0202 0.1278 0.9629
Cd5_2 Cd -0.0000 0.2500 0.906143(12)
C27_5 C 0.3559(3) 0.3246(2) 0.11907(10)
H29_5 H 0.3313 0.3019 0.1359
C28_5 C 0.3141(2) 0.3639(3) 0.09836(10)
H30_5 H 0.2614 0.3606 0.0997
C29_5 C 0.3429(2) 0.4056(3) 0.07691(11)
C30_5 C 0.4169(3) 0.4052(3) 0.07343(11)
H31_5 H 0.4385 0.4305 0.0566
C31_5 C 0.4675(3) 0.3649(3) 0.09599(9)
H32_5 H 0.5201 0.3703 0.0964
C32_5 C 0.2915(3) 0.4536(3) 0.05445(10)
H33_5 H 0.3232 0.4891 0.0430
H34_5 H 0.2557 0.4829 0.0667
C33_5 C 0.2468(3) 0.4030(2) 0.03087(11)
H35_5 H 0.2152 0.3670 0.0421
H36_5 H 0.2822 0.3745 0.0180
C34_5 C 0.1970(3) 0.4534(3) 0.01028(11)
H38_5 H 0.1601 0.4802 0.0230
H39_5 H 0.0463 0.4384 0.0021
Cd4_4 Cd 0.5000 0.2500 0.156143(12)
Cl3_5 Cl 0.39416(6) 0.14881(7) 0.15667(3)
N7_5 N 0.4260(2) 0.31737(19) 0.11673(8)
C40_5 C 0.6441(3) 0.1754(2) 0.11907(10)
H43_5 H 0.6687 0.1981 0.1359
C41_5 C 0.6859(2) 0.1361(3) 0.09836(10)
H44_5 H 0.7386 0.1394 0.0997
C42_5 C 0.6571(2) 0.0944(3) 0.07691(11)
C43_5 C 0.5831(3) 0.0948(3) 0.07343(11)
H45_5 H 0.5615 0.0695 0.0566
C44_5 C 0.5325(3) 0.1351(3) 0.09599(9)
H46_5 H 0.4799 0.1297 0.0964
C45_5 C 0.7085(3) 0.0464(3) 0.05445(10)
H47_5 H 0.6768 0.0109 0.0430
H48_5 H 0.7443 0.0171 0.0667
C46_5 C 0.7532(3) 0.0970(2) 0.03087(11)
H49_5 H 0.7848 0.1330 0.0421
H50_5 H 0.7178 0.1255 0.0180
C47_5 C 0.8030(3) 0.0466(3) 0.01028(11)
H52_5 H 0.8399 0.0198 0.0230
H53_5 H 0.9537 0.0616 0.0021
Cl4_5 Cl 0.60584(6) 0.35119(7) 0.15667(3)
N9_5 N 0.5740(2) 0.18263(19) 0.11673(8)
N11_3 N 0.5693(2) 0.1802(2) 0.19522(8)
N12_3 N 0.4307(2) 0.3198(2) 0.19522(8)
H37_5 H 0.2283 0.4908 0.9997
C35_5 C 0.1574(3) 0.4061(3) 0.98717(11)
C36_5 C 0.0722(3) 0.4094(3) 0.98743(10)
C37_5 C 0.0323(3) 0.3671(2) 0.96460(10)
C38_5 C 0.1461(2) 0.3184(2) 0.94473(10)
H41_5 H 0.1715 0.2877 0.9304
C39_5 C 0.1884(3) 0.3640(3) 0.96587(10)
H42_5 H 0.2412 0.3636 0.9644
N8_3 N 0.0698(2) 0.3193(2) 0.94522(8)
H51_5 H 0.7717 0.0092 0.9997
C48_5 C 0.8426(3) 0.0939(3) 0.98717(11)
C49_5 C 0.9278(3) 0.0906(3) 0.98743(10)
C50_5 C 0.9677(3) 0.1329(2) 0.96460(10)
C51_5 C 0.8539(2) 0.1816(2) 0.94473(10)
H55_5 H 0.8285 0.2123 0.9304
C52_5 C 0.8116(3) 0.1360(3) 0.96587(10)
H56_5 H 0.7588 0.1364 0.9644
Cd5_3 Cd 1.0000 0.2500 0.906143(12)
N10_3 N 0.9302(2) 0.1807(2) 0.94522(8)
H40_5 H 0.9798 0.3722 0.9629
C27_6 C 0.1441(3) 0.6754(2) 0.61907(10)
H29_6 H 0.1687 0.6981 0.6359
C28_6 C 0.1859(2) 0.6361(3) 0.59836(10)
H30_6 H 0.2386 0.6394 0.5997
C29_6 C 0.1571(2) 0.5944(3) 0.57691(11)
C30_6 C 0.0831(3) 0.5948(3) 0.57343(11)
H31_6 H 0.0615 0.5695 0.5566
C31_6 C 0.0325(3) 0.6351(3) 0.59599(9)
C32_6 C 0.2085(3) 0.5464(3) 0.55445(10)
H33_6 H 0.1768 0.5109 0.5430
H34_6 H 0.2443 0.5171 0.5667
C33_6 C 0.2532(3) 0.5970(2) 0.53087(11)
H35_6 H 0.2848 0.6330 0.5421
H36_6 H 0.2178 0.6255 0.5180
C34_6 C 0.3030(3) 0.5466(3) 0.51028(11)
H37_6 H 0.2717 0.5092 0.4997
H38_6 H 0.3399 0.5198 0.5230
C35_6 C 0.3426(3) 0.5939(3) 0.48717(11)
C36_6 C 0.4278(3) 0.5906(3) 0.48743(10)
H39_6 H 0.4537 0.5616 0.5021
C37_6 C 0.4677(3) 0.6329(2) 0.46460(10)
H40_6 H 0.5202 0.6278 0.4629
C38_6 C 0.3539(2) 0.6816(2) 0.44473(10)
H41_6 H 0.3285 0.7123 0.4304
C39_6 C 0.3116(3) 0.6360(3) 0.46587(10)
H42_6 H 0.2588 0.6364 0.4644
Cd4_5 Cd -0.0000 0.7500 0.656143(12)
Cl3_6 Cl 0.10584(6) 0.85119(7) 0.65667(3)
N7_6 N 0.0740(2) 0.68263(19) 0.61673(8)
N8_4 N 0.4302(2) 0.6807(2) 0.44522(8)
H46_6 H 0.0201 0.8703 0.5964
Cd6_3 Cd 0.5000 0.7500 0.406143(12)
N12_4 N 0.0693(2) 0.6802(2) 0.69522(8)
H32_6 H 0.9799 0.6297 0.5964
Cd4_6 Cd 1.0000 0.7500 0.656143(12)
C40_6 C 0.8559(3) 0.8246(2) 0.61907(10)
H43_6 H 0.8313 0.8019 0.6359
C41_6 C 0.8141(2) 0.8639(3) 0.59836(10)
H44_6 H 0.7614 0.8606 0.5997
C42_6 C 0.8429(2) 0.9056(3) 0.57691(11)
C43_6 C 0.9169(3) 0.9052(3) 0.57343(11)
H45_6 H 0.9385 0.9305 0.5566
C44_6 C 0.9675(3) 0.8649(3) 0.59599(9)
C45_6 C 0.7915(3) 0.9536(3) 0.55445(10)
H47_6 H 0.8232 0.9891 0.5430
H48_6 H 0.7557 0.9829 0.5667
C46_6 C 0.7468(3) 0.9030(2) 0.53087(11)
H49_6 H 0.7152 0.8670 0.5421
H50_6 H 0.7822 0.8745 0.5180
C47_6 C 0.6970(3) 0.9534(3) 0.51028(11)
H51_6 H 0.7283 0.9908 0.4997
H52_6 H 0.6601 0.9802 0.5230
C48_6 C 0.6574(3) 0.9061(3) 0.48717(11)
C49_6 C 0.5722(3) 0.9094(3) 0.48743(10)
H53_6 H 0.5463 0.9384 0.5021
C50_6 C 0.5323(3) 0.8671(2) 0.46460(10)
H54_6 H 0.4798 0.8722 0.4629
C51_6 C 0.6461(2) 0.8184(2) 0.44473(10)
H55_6 H 0.6715 0.7877 0.4304
C52_6 C 0.6884(3) 0.8640(3) 0.46587(10)
H56_6 H 0.7412 0.8636 0.4644
Cl4_6 Cl 0.89416(6) 0.64881(7) 0.65667(3)
N9_6 N 0.9260(2) 0.81737(19) 0.61673(8)
N10_4 N 0.5698(2) 0.8193(2) 0.44522(8)
N11_4 N 0.9307(2) 0.8198(2) 0.69522(8)
Cl3_7 Cl 0.10119(7) 0.14416(6) 0.90667(3)
C40_7 C 0.0746(2) 0.3941(3) 0.86907(10)
H43_7 H 0.0519 0.4187 0.8859
C41_7 C 0.1139(3) 0.4359(2) 0.84836(10)
H44_7 H 0.1106 0.4886 0.8497
C42_7 C 0.1556(3) 0.4071(2) 0.82691(11)
C43_7 C 0.1552(3) 0.3331(3) 0.82343(11)
H45_7 H 0.1805 0.3115 0.8066
C44_7 C 0.1149(3) 0.2825(3) 0.84599(9)
H46_7 H 0.1203 0.2299 0.8464
C45_7 C 0.2036(3) 0.4585(3) 0.80445(10)
H47_7 H 0.2391 0.4268 0.7930
H48_7 H 0.2329 0.4943 0.8167
C46_7 C 0.1530(2) 0.5032(3) 0.78087(11)
H49_7 H 0.1170 0.5348 0.7921
H50_7 H 0.1245 0.4678 0.7680
C47_7 C 0.2034(3) 0.5530(3) 0.76028(11)
H51_7 H 0.2408 0.5217 0.7497
H52_7 H 0.2302 0.5899 0.7730
C48_7 C 0.1561(3) 0.5926(3) 0.73717(11)
C49_7 C 0.1594(3) 0.6778(3) 0.73743(10)
H53_7 H 0.1884 0.7037 0.7521
C50_7 C 0.1171(2) 0.7177(3) 0.71460(10)
H54_7 H 0.1222 0.7702 0.7129
C51_7 C 0.0684(2) 0.6039(2) 0.69473(10)
H55_7 H 0.0377 0.5785 0.6804
C52_7 C 0.1140(3) 0.5616(3) 0.71587(10)
H56_7 H 0.1136 0.5088 0.7144
N9_7 N 0.06737(19) 0.3240(2) 0.86673(8)
C27_7 C 0.9254(2) 0.1059(3) 0.86907(10)
H29_7 H 0.9481 0.0813 0.8859
C28_7 C 0.8861(3) 0.0641(2) 0.84836(10)
H30_7 H 0.8894 0.0114 0.8497
C29_7 C 0.8444(3) 0.0929(2) 0.82691(11)
C30_7 C 0.8448(3) 0.1669(3) 0.82343(11)
H31_7 H 0.8195 0.1885 0.8066
C31_7 C 0.8851(3) 0.2175(3) 0.84599(9)
H32_7 H 0.8797 0.2701 0.8464
C32_7 C 0.7964(3) 0.0415(3) 0.80445(10)
H33_7 H 0.7609 0.0732 0.7930
H34_7 H 0.7671 0.0057 0.8167
H36_7 H 0.8755 0.0322 0.7680
N7_7 N 0.93263(19) 0.1760(2) 0.86673(8)
Cl4_7 Cl 0.89881(7) 0.35584(6) 0.90667(3)
C33_7 C 0.8470(2) 0.9968(3) 0.78087(11)
H35_7 H 0.8830 0.9652 0.7921
C34_7 C 0.7966(3) 0.9470(3) 0.76028(11)
H37_7 H 0.7592 0.9783 0.7497
H38_7 H 0.7698 0.9101 0.7730
C35_7 C 0.8439(3) 0.9074(3) 0.73717(11)
C36_7 C 0.8406(3) 0.8222(3) 0.73743(10)
H39_7 H 0.8116 0.7963 0.7521
C37_7 C 0.8829(2) 0.7823(3) 0.71460(10)
H40_7 H 0.8778 0.7298 0.7129
C38_7 C 0.9316(2) 0.8961(2) 0.69473(10)
H41_7 H 0.9623 0.9215 0.6804
C39_7 C 0.8860(3) 0.9384(3) 0.71587(10)
H42_7 H 0.8864 0.9912 0.7144
C33_8 C 0.6530(2) 0.0032(3) 0.28087(11)
H35_8 H 0.6170 0.0348 0.2921
C34_8 C 0.7034(3) 0.0530(3) 0.26028(11)
H37_8 H 0.7408 0.0217 0.2497
H38_8 H 0.7302 0.0899 0.2730
C35_8 C 0.6561(3) 0.0926(3) 0.23717(11)
C36_8 C 0.6594(3) 0.1778(3) 0.23743(10)
H39_8 H 0.6884 0.2037 0.2521
C37_8 C 0.6171(2) 0.2177(3) 0.21460(10)
H40_8 H 0.6222 0.2702 0.2129
C38_8 C 0.5684(2) 0.1039(2) 0.19473(10)
H41_8 H 0.5377 0.0785 0.1804
C39_8 C 0.6140(3) 0.0616(3) 0.21587(10)
H42_8 H 0.6136 0.0088 0.2144
C27_8 C 0.5746(2) 0.8941(3) 0.36907(10)
H29_8 H 0.5519 0.9187 0.3859
C28_8 C 0.6139(3) 0.9359(2) 0.34836(10)
H30_8 H 0.6106 0.9886 0.3497
C29_8 C 0.6556(3) 0.9071(2) 0.32691(11)
C30_8 C 0.6552(3) 0.8331(3) 0.32343(11)
H31_8 H 0.6805 0.8115 0.3066
C31_8 C 0.6149(3) 0.7825(3) 0.34599(9)
H32_8 H 0.6203 0.7299 0.3464
C32_8 C 0.7036(3) 0.9585(3) 0.30445(10)
H33_8 H 0.7391 0.9268 0.2930
H34_8 H 0.7329 0.9943 0.3167
H36_8 H 0.6245 0.9678 0.2680
Cl3_8 Cl 0.39881(7) 0.85584(6) 0.40667(3)
N7_8 N 0.56737(19) 0.8240(2) 0.36673(8)
C40_8 C 0.4254(2) 0.6059(3) 0.36907(10)
H43_8 H 0.4481 0.5813 0.3859
C41_8 C 0.3861(3) 0.5641(2) 0.34836(10)
H44_8 H 0.3894 0.5114 0.3497
C42_8 C 0.3444(3) 0.5929(2) 0.32691(11)
C43_8 C 0.3448(3) 0.6669(3) 0.32343(11)
H45_8 H 0.3195 0.6885 0.3066
C44_8 C 0.3851(3) 0.7175(3) 0.34599(9)
H46_8 H 0.3797 0.7701 0.3464
C45_8 C 0.2964(3) 0.5415(3) 0.30445(10)
H47_8 H 0.2609 0.5732 0.2930
H48_8 H 0.2671 0.5057 0.3167
C46_8 C 0.3470(2) 0.4968(3) 0.28087(11)
H49_8 H 0.3830 0.4652 0.2921
H50_8 H 0.3755 0.5322 0.2680
C47_8 C 0.2966(3) 0.4470(3) 0.26028(11)
H51_8 H 0.2592 0.4783 0.2497
H52_8 H 0.2698 0.4101 0.2730
C48_8 C 0.3439(3) 0.4074(3) 0.23717(11)
C49_8 C 0.3406(3) 0.3222(3) 0.23743(10)
H53_8 H 0.3116 0.2963 0.2521
C50_8 C 0.3829(2) 0.2823(3) 0.21460(10)
H54_8 H 0.3778 0.2298 0.2129
C51_8 C 0.4316(2) 0.3961(2) 0.19473(10)
H55_8 H 0.4623 0.4215 0.1804
C52_8 C 0.3860(3) 0.4384(3) 0.21587(10)
H56_8 H 0.3864 0.4912 0.2144
Cl4_8 Cl 0.60119(7) 0.64416(6) 0.40667(3)
N9_8 N 0.43263(19) 0.6760(2) 0.36673(8)
loop_
_geom_bond_atom_site_label_1
_geom_bond_atom_site_label_2
_geom_bond_site_symmetry_1
_geom_bond_site_symmetry_2
C1 H1 1_555 1_555
C2 C1 1_555 1_555
H2 C2 1_555 1_555
C3 C2 1_555 1_555
C4 C3 1_555 1_555
H3 C4 1_555 1_555
C5 C4 1_555 1_555
H4 C5 1_555 1_555
C6 C3 1_555 1_555
H5 C6 1_555 1_555
H6 C6 1_555 1_555
C7 C6 1_555 1_555
H7 C7 1_555 1_555
H8 C7 1_555 1_555
C8 C7 1_555 1_555
H9 C8 1_555 1_555
H10 C8 1_555 1_555
C9 C8 1_555 1_555
C10 C9 1_555 1_555
H11 C10 1_555 1_555
C11 C10 1_555 1_555
H12 C11 1_555 1_555
C13 C9 1_555 1_555
H14 C13 1_555 1_555
Cd1 Cl1 1_555 1_555
N1 C1 1_555 1_555
N2 C11 1_555 1_555
C14 H15 1_555 1_555
C15 C14 1_555 1_555
H16 C15 1_555 1_555
C16 C15 1_555 1_555
C17 C16 1_555 1_555
H17 C17 1_555 1_555
C18 C17 1_555 1_555
H18 C18 1_555 1_555
C19 C16 1_555 1_555
H19 C19 1_555 1_555
H20 C19 1_555 1_555
C20 C19 1_555 1_555
H21 C20 1_555 1_555
H22 C20 1_555 1_555
C21 C20 1_555 1_555
H23 C21 1_555 1_555
H24 C21 1_555 1_555
C22 C21 1_555 1_555
C23 C22 1_555 1_555
H25 C23 1_555 1_555
C24 C23 1_555 1_555
H26 C24 1_555 1_555
C26 C22 1_555 1_555
H28 C26 1_555 1_555
Cd3 N4 1_555 1_555
Cd3_2 N2 1_555 1_555
Cl2 Cd1 1_555 1_555
N3 Cd1 1_555 1_555
N4 C24 1_555 1_555
C5 N1 1_555 1_555
C12 C13 1_555 1_555
C12 N2 1_555 1_555
Cd1 N1 1_555 1_555
C14 N3 1_555 1_555
C18 N3 1_555 1_555
C25 C26 1_555 1_555
C25 N4 1_555 1_555
Cd1_2 Cl1_2 1_555 1_555
C15_2 C14_2 1_555 1_555
H16_2 C15_2 1_555 1_555
C16_2 C15_2 1_555 1_555
C17_2 C16_2 1_555 1_555
H17_2 C17_2 1_555 1_555
C18_2 C17_2 1_555 1_555
H18_2 C18_2 1_555 1_555
C19_2 C16_2 1_555 1_555
H19_2 C19_2 1_555 1_555
H20_2 C19_2 1_555 1_555
C20_2 C19_2 1_555 1_555
H21_2 C20_2 1_555 1_555
H22_2 C20_2 1_555 1_555
C21_2 C20_2 1_555 1_555
H23_2 C21_2 1_555 1_555
H24_2 C21_2 1_555 1_555
C22_2 C21_2 1_555 1_555
C23_2 C22_2 1_555 1_555
H25_2 C23_2 1_555 1_555
C24_2 C23_2 1_555 1_555
H26_2 C24_2 1_555 1_555
C25_2 H27_2 1_555 1_555
C26_2 C22_2 1_555 1_555
H28_2 C26_2 1_555 1_555
Cd2 N4_2 1_555 1_555
N3_2 Cd1_2 1_555 1_555
N4_2 C24_2 1_555 1_555
N5_2 Cd1_2 1_555 1_555
C14_2 N3_2 1_555 1_555
C18_2 N3_2 1_555 1_555
C25_2 C26_2 1_555 1_555
C25_2 N4_2 1_555 1_555
C2_2 C1_2 1_555 1_555
H2_2 C2_2 1_555 1_555
C3_2 C2_2 1_555 1_555
C4_2 C3_2 1_555 1_555
H3_2 C4_2 1_555 1_555
C5_2 C4_2 1_555 1_555
H4_2 C5_2 1_555 1_555
C6_2 C3_2 1_555 1_555
H5_2 C6_2 1_555 1_555
H6_2 C6_2 1_555 1_555
C7_2 C6_2 1_555 1_555
H7_2 C7_2 1_555 1_555
H8_2 C7_2 1_555 1_555
C8_2 C7_2 1_555 1_555
H9_2 C8_2 1_555 1_555
H10_2 C8_2 1_555 1_555
C9_2 C8_2 1_555 1_555
C10_2 C9_2 1_555 1_555
H11_2 C10_2 1_555 1_555
C11_2 C10_2 1_555 1_555
H12_2 C11_2 1_555 1_555
C12_2 H13_2 1_555 1_555
C13_2 C9_2 1_555 1_555
H14_2 C13_2 1_555 1_555
N1_2 C1_2 1_555 1_555
N2_2 C11_2 1_555 1_555
Cd2 N2_2 1_555 1_555
Cl2_2 Cd1_3 1_555 1_555
N6_2 Cd1_3 1_555 1_555
C5_2 N1_2 1_555 1_555
C12_2 C13_2 1_555 1_555
C12_2 N2_2 1_555 1_555
Cd1_3 N1_2 1_555 1_555
H9_3 C8_3 1_555 1_555
H10_3 C8_3 1_555 1_555
C9_3 C8_3 1_555 1_555
C10_3 C9_3 1_555 1_555
H11_3 C10_3 1_555 1_555
C11_3 C10_3 1_555 1_555
C12_3 H13_3 1_555 1_555
C13_3 C9_3 1_555 1_555
H14_3 C13_3 1_555 1_555
N5 C11_3 1_555 1_555
C12_3 C13_3 1_555 1_555
C12_3 N5 1_555 1_555
C1_3 H1_3 1_555 1_555
C2_3 C1_3 1_555 1_555
H2_3 C2_3 1_555 1_555
C3_3 C2_3 1_555 1_555
C4_3 C3_3 1_555 1_555
H3_3 C4_3 1_555 1_555
C5_3 C4_3 1_555 1_555
H4_3 C5_3 1_555 1_555
C6_3 C3_3 1_555 1_555
H5_3 C6_3 1_555 1_555
H6_3 C6_3 1_555 1_555
C7_3 C6_3 1_555 1_555
H7_3 C7_3 1_555 1_555
Cd2 Cl1_3 1_555 1_555
N1_3 C1_3 1_555 1_555
C14_3 H15_3 1_555 1_555
C15_3 C14_3 1_555 1_555
H16_3 C15_3 1_555 1_555
C16_3 C15_3 1_555 1_555
C17_3 C16_3 1_555 1_555
H17_3 C17_3 1_555 1_555
C18_3 C17_3 1_555 1_555
H18_3 C18_3 1_555 1_555
C19_3 C16_3 1_555 1_555
H19_3 C19_3 1_555 1_555
H20_3 C19_3 1_555 1_555
C20_3 C19_3 1_555 1_555
H21_3 C20_3 1_555 1_555
H22_3 C20_3 1_555 1_555
C21_3 C20_3 1_555 1_555
H23_3 C21_3 1_555 1_555
H24_3 C21_3 1_555 1_555
C22_3 C21_3 1_555 1_555
C23_3 C22_3 1_555 1_555
H25_3 C23_3 1_555 1_555
C24_3 C23_3 1_555 1_555
C25_3 H27_3 1_555 1_555
C26_3 C22_3 1_555 1_555
H28_3 C26_3 1_555 1_555
Cl2_3 Cd2 1_555 1_555
N3_3 Cd2 1_555 1_555
N6 C24_3 1_555 1_555
C5_3 N1_3 1_555 1_555
Cd2 N1_3 1_555 1_555
C14_3 N3_3 1_555 1_555
C18_3 N3_3 1_555 1_555
C25_3 C26_3 1_555 1_555
C25_3 N6 1_555 1_555
C1_4 H1_4 1_555 1_555
C2_4 C1_4 1_555 1_555
H2_4 C2_4 1_555 1_555
C3_4 C2_4 1_555 1_555
C4_4 C3_4 1_555 1_555
H3_4 C4_4 1_555 1_555
C5_4 C4_4 1_555 1_555
H4_4 C5_4 1_555 1_555
C6_4 C3_4 1_555 1_555
H5_4 C6_4 1_555 1_555
H6_4 C6_4 1_555 1_555
C7_4 C6_4 1_555 1_555
H7_4 C7_4 1_555 1_555
Cd3 Cl1_4 1_555 1_555
N1_4 C1_4 1_555 1_555
C5_4 N1_4 1_555 1_555
Cd3 N1_4 1_555 1_555
H9_4 C8_4 1_555 1_555
H10_4 C8_4 1_555 1_555
C9_4 C8_4 1_555 1_555
C10_4 C9_4 1_555 1_555
H11_4 C10_4 1_555 1_555
C11_4 C10_4 1_555 1_555
H12_4 C11_4 1_555 1_555
C12_4 H13_4 1_555 1_555
C13_4 C9_4 1_555 1_555
H14_4 C13_4 1_555 1_555
N5_2 C11_4 1_555 1_555
C12_4 C13_4 1_555 1_555
C12_4 N5_2 1_555 1_555
C14_4 H15_4 1_555 1_555
C15_4 C14_4 1_555 1_555
H16_4 C15_4 1_555 1_555
C16_4 C15_4 1_555 1_555
C17_4 C16_4 1_555 1_555
H17_4 C17_4 1_555 1_555
C18_4 C17_4 1_555 1_555
H18_4 C18_4 1_555 1_555
C19_4 C16_4 1_555 1_555
H19_4 C19_4 1_555 1_555
H20_4 C19_4 1_555 1_555
C20_4 C19_4 1_555 1_555
H21_4 C20_4 1_555 1_555
H22_4 C20_4 1_555 1_555
C21_4 C20_4 1_555 1_555
H23_4 C21_4 1_555 1_555
H24_4 C21_4 1_555 1_555
C22_4 C21_4 1_555 1_555
C23_4 C22_4 1_555 1_555
H25_4 C23_4 1_555 1_555
C24_4 C23_4 1_555 1_555
H26_4 C24_4 1_555 1_555
C25_4 H27_4 1_555 1_555
C26_4 C22_4 1_555 1_555
H28_4 C26_4 1_555 1_555
Cl2_4 Cd3_2 1_555 1_555
N3_4 Cd3_2 1_555 1_555
N6_2 C24_4 1_555 1_555
C14_4 N3_4 1_555 1_555
C18_4 N3_4 1_555 1_555
C25_4 C26_4 1_555 1_555
C25_4 N6_2 1_555 1_555
C1_5 H1_5 1_555 1_555
C2_5 C1_5 1_555 1_555
H2_5 C2_5 1_555 1_555
C3_5 C2_5 1_555 1_555
C4_5 C3_5 1_555 1_555
H3_5 C4_5 1_555 1_555
C5_5 C4_5 1_555 1_555
H4_5 C5_5 1_555 1_555
C6_5 C3_5 1_555 1_555
H5_5 C6_5 1_555 1_555
H6_5 C6_5 1_555 1_555
C7_5 C6_5 1_555 1_555
H7_5 C7_5 1_555 1_555
H8_5 C7_5 1_555 1_555
C8_5 C7_5 1_555 1_555
H9_5 C8_5 1_555 1_555
H10_5 C8_5 1_555 1_555
C9_5 C8_5 1_555 1_555
C10_5 C9_5 1_555 1_555
H11_5 C10_5 1_555 1_555
C11_5 C10_5 1_555 1_555
H12_5 C11_5 1_555 1_555
C13_5 C9_5 1_555 1_555
H14_5 C13_5 1_555 1_555
Cd1_4 Cl1_5 1_555 1_555
N1_5 C1_5 1_555 1_555
N2_3 C11_5 1_555 1_555
C14_5 H15_5 1_555 1_555
C15_5 C14_5 1_555 1_555
H16_5 C15_5 1_555 1_555
C16_5 C15_5 1_555 1_555
C17_5 C16_5 1_555 1_555
H17_5 C17_5 1_555 1_555
C18_5 C17_5 1_555 1_555
H18_5 C18_5 1_555 1_555
C19_5 C16_5 1_555 1_555
H19_5 C19_5 1_555 1_555
H20_5 C19_5 1_555 1_555
C20_5 C19_5 1_555 1_555
H21_5 C20_5 1_555 1_555
H22_5 C20_5 1_555 1_555
C21_5 C20_5 1_555 1_555
H23_5 C21_5 1_555 1_555
H24_5 C21_5 1_555 1_555
C22_5 C21_5 1_555 1_555
C23_5 C22_5 1_555 1_555
H25_5 C23_5 1_555 1_555
C24_5 C23_5 1_555 1_555
H26_5 C24_5 1_555 1_555
C26_5 C22_5 1_555 1_555
H28_5 C26_5 1_555 1_555
Cd2_3 N4_3 1_555 1_555
Cd2_2 N2_3 1_555 1_555
Cl2_5 Cd1_4 1_555 1_555
N3_5 Cd1_4 1_555 1_555
N4_3 C24_5 1_555 1_555
C5_5 N1_5 1_555 1_555
C12_5 C13_5 1_555 1_555
C12_5 N2_3 1_555 1_555
Cd1_4 N1_5 1_555 1_555
C14_5 N3_5 1_555 1_555
C18_5 N3_5 1_555 1_555
C25_5 C26_5 1_555 1_555
C25_5 N4_3 1_555 1_555
C2_6 C1_6 1_555 1_555
H2_6 C2_6 1_555 1_555
C3_6 C2_6 1_555 1_555
C4_6 C3_6 1_555 1_555
H3_6 C4_6 1_555 1_555
C5_6 C4_6 1_555 1_555
H4_6 C5_6 1_555 1_555
C6_6 C3_6 1_555 1_555
H5_6 C6_6 1_555 1_555
H6_6 C6_6 1_555 1_555
C7_6 C6_6 1_555 1_555
H7_6 C7_6 1_555 1_555
H8_6 C7_6 1_555 1_555
C8_6 C7_6 1_555 1_555
H9_6 C8_6 1_555 1_555
H10_6 C8_6 1_555 1_555
C9_6 C8_6 1_555 1_555
C10_6 C9_6 1_555 1_555
H11_6 C10_6 1_555 1_555
C11_6 C10_6 1_555 1_555
H12_6 C11_6 1_555 1_555
C12_6 H13_6 1_555 1_555
C13_6 C9_6 1_555 1_555
H14_6 C13_6 1_555 1_555
N1_6 C1_6 1_555 1_555
N2_4 C11_6 1_555 1_555
Cd3_3 N2_4 1_555 1_555
Cl2_6 Cd1_5 1_555 1_555
N6_4 Cd1_5 1_555 1_555
C5_6 N1_6 1_555 1_555
C12_6 C13_6 1_555 1_555
C12_6 N2_4 1_555 1_555
Cd1_5 N1_6 1_555 1_555
Cd1_6 Cl1_6 1_555 1_555
C15_6 C14_6 1_555 1_555
H16_6 C15_6 1_555 1_555
C16_6 C15_6 1_555 1_555
C17_6 C16_6 1_555 1_555
H17_6 C17_6 1_555 1_555
C18_6 C17_6 1_555 1_555
H18_6 C18_6 1_555 1_555
C19_6 C16_6 1_555 1_555
H19_6 C19_6 1_555 1_555
H20_6 C19_6 1_555 1_555
C20_6 C19_6 1_555 1_555
H21_6 C20_6 1_555 1_555
H22_6 C20_6 1_555 1_555
C21_6 C20_6 1_555 1_555
H23_6 C21_6 1_555 1_555
H24_6 C21_6 1_555 1_555
C22_6 C21_6 1_555 1_555
C23_6 C22_6 1_555 1_555
H25_6 C23_6 1_555 1_555
C24_6 C23_6 1_555 1_555
H26_6 C24_6 1_555 1_555
C25_6 H27_6 1_555 1_555
C26_6 C22_6 1_555 1_555
H28_6 C26_6 1_555 1_555
Cd3_3 N4_4 1_555 1_555
N3_6 Cd1_6 1_555 1_555
N4_4 C24_6 1_555 1_555
N5_4 Cd1_6 1_555 1_555
C14_6 N3_6 1_555 1_555
C18_6 N3_6 1_555 1_555
C25_6 C26_6 1_555 1_555
C25_6 N4_4 1_555 1_555
C1_7 H1_7 1_555 1_555
C2_7 C1_7 1_555 1_555
H2_7 C2_7 1_555 1_555
C3_7 C2_7 1_555 1_555
C4_7 C3_7 1_555 1_555
H3_7 C4_7 1_555 1_555
C5_7 C4_7 1_555 1_555
H4_7 C5_7 1_555 1_555
C6_7 C3_7 1_555 1_555
H5_7 C6_7 1_555 1_555
H6_7 C6_7 1_555 1_555
C7_7 C6_7 1_555 1_555
H7_7 C7_7 1_555 1_555
Cd3_3 Cl1_7 1_555 1_555
N1_7 C1_7 1_555 1_555
C14_7 H15_7 1_555 1_555
C15_7 C14_7 1_555 1_555
H16_7 C15_7 1_555 1_555
C16_7 C15_7 1_555 1_555
C17_7 C16_7 1_555 1_555
H17_7 C17_7 1_555 1_555
C18_7 C17_7 1_555 1_555
H18_7 C18_7 1_555 1_555
C19_7 C16_7 1_555 1_555
H19_7 C19_7 1_555 1_555
H20_7 C19_7 1_555 1_555
C20_7 C19_7 1_555 1_555
H21_7 C20_7 1_555 1_555
H22_7 C20_7 1_555 1_555
C21_7 C20_7 1_555 1_555
H23_7 C21_7 1_555 1_555
H24_7 C21_7 1_555 1_555
C22_7 C21_7 1_555 1_555
C23_7 C22_7 1_555 1_555
H25_7 C23_7 1_555 1_555
C24_7 C23_7 1_555 1_555
C25_7 H27_7 1_555 1_555
C26_7 C22_7 1_555 1_555
H28_7 C26_7 1_555 1_555
Cl2_7 Cd3_3 1_555 1_555
N3_7 Cd3_3 1_555 1_555
N6_3 C24_7 1_555 1_555
C5_7 N1_7 1_555 1_555
Cd3_3 N1_7 1_555 1_555
C14_7 N3_7 1_555 1_555
C18_7 N3_7 1_555 1_555
C25_7 C26_7 1_555 1_555
C25_7 N6_3 1_555 1_555
H9_7 C8_7 1_555 1_555
H10_7 C8_7 1_555 1_555
C9_7 C8_7 1_555 1_555
C10_7 C9_7 1_555 1_555
H11_7 C10_7 1_555 1_555
C11_7 C10_7 1_555 1_555
C12_7 H13_7 1_555 1_555
C13_7 C9_7 1_555 1_555
H14_7 C13_7 1_555 1_555
N5_3 C11_7 1_555 1_555
C12_7 C13_7 1_555 1_555
C12_7 N5_3 1_555 1_555
C14_8 H15_8 1_555 1_555
C15_8 C14_8 1_555 1_555
H16_8 C15_8 1_555 1_555
C16_8 C15_8 1_555 1_555
C17_8 C16_8 1_555 1_555
H17_8 C17_8 1_555 1_555
C18_8 C17_8 1_555 1_555
H18_8 C18_8 1_555 1_555
C19_8 C16_8 1_555 1_555
H19_8 C19_8 1_555 1_555
H20_8 C19_8 1_555 1_555
C20_8 C19_8 1_555 1_555
H21_8 C20_8 1_555 1_555
H22_8 C20_8 1_555 1_555
C21_8 C20_8 1_555 1_555
H23_8 C21_8 1_555 1_555
H24_8 C21_8 1_555 1_555
C22_8 C21_8 1_555 1_555
C23_8 C22_8 1_555 1_555
H25_8 C23_8 1_555 1_555
C24_8 C23_8 1_555 1_555
H26_8 C24_8 1_555 1_555
C25_8 H27_8 1_555 1_555
C26_8 C22_8 1_555 1_555
H28_8 C26_8 1_555 1_555
Cl2_8 Cd2_2 1_555 1_555
N3_8 Cd2_2 1_555 1_555
N6_4 C24_8 1_555 1_555
C14_8 N3_8 1_555 1_555
C18_8 N3_8 1_555 1_555
C25_8 C26_8 1_555 1_555
C25_8 N6_4 1_555 1_555
H9_8 C8_8 1_555 1_555
H10_8 C8_8 1_555 1_555
C9_8 C8_8 1_555 1_555
C10_8 C9_8 1_555 1_555
H11_8 C10_8 1_555 1_555
C11_8 C10_8 1_555 1_555
H12_8 C11_8 1_555 1_555
C12_8 H13_8 1_555 1_555
C13_8 C9_8 1_555 1_555
H14_8 C13_8 1_555 1_555
N5_4 C11_8 1_555 1_555
C12_8 C13_8 1_555 1_555
C12_8 N5_4 1_555 1_555
C1_8 H1_8 1_555 1_555
C2_8 C1_8 1_555 1_555
H2_8 C2_8 1_555 1_555
C3_8 C2_8 1_555 1_555
C4_8 C3_8 1_555 1_555
H3_8 C4_8 1_555 1_555
C5_8 C4_8 1_555 1_555
H4_8 C5_8 1_555 1_555
C6_8 C3_8 1_555 1_555
H5_8 C6_8 1_555 1_555
H6_8 C6_8 1_555 1_555
C7_8 C6_8 1_555 1_555
H7_8 C7_8 1_555 1_555
Cd2_3 Cl1_8 1_555 1_555
N1_8 C1_8 1_555 1_555
C5_8 N1_8 1_555 1_555
Cd2_3 N1_8 1_555 1_555
C36 C35 1_555 1_555
C37 C36 1_555 1_555
C38 H41 1_555 1_555
C39 C35 1_555 1_555
H42 C39 1_555 1_555
N8 C37 1_555 1_555
C49 C48 1_555 1_555
C50 C49 1_555 1_555
C51 H55 1_555 1_555
C52 C48 1_555 1_555
H56 C52 1_555 1_555
Cd6 N10 1_555 1_555
Cd6_2 N8 1_555 1_555
N10 C50 1_555 1_555
C38 C39 1_555 1_555
C38 N8 1_555 1_555
C51 C52 1_555 1_555
C51 N10 1_555 1_555
C27 H29 1_555 1_555
C28 C27 1_555 1_555
H30 C28 1_555 1_555
C29 C28 1_555 1_555
C30 C29 1_555 1_555
H31 C30 1_555 1_555
C31 C30 1_555 1_555
H32 C31 1_555 1_555
C32 C29 1_555 1_555
H33 C32 1_555 1_555
H34 C32 1_555 1_555
C33 C32 1_555 1_555
H35 C33 1_555 1_555
H36 C33 1_555 1_555
C34 C33 1_555 1_555
H38 C34 1_555 1_555
Cd4 Cl3 1_555 1_555
N7 C27 1_555 1_555
C40 H43 1_555 1_555
C41 C40 1_555 1_555
H44 C41 1_555 1_555
C42 C41 1_555 1_555
C43 C42 1_555 1_555
H45 C43 1_555 1_555
C44 C43 1_555 1_555
H46 C44 1_555 1_555
C45 C42 1_555 1_555
H47 C45 1_555 1_555
H48 C45 1_555 1_555
C46 C45 1_555 1_555
H49 C46 1_555 1_555
H50 C46 1_555 1_555
C47 C46 1_555 1_555
H52 C47 1_555 1_555
Cl4 Cd4 1_555 1_555
N9 Cd4 1_555 1_555
N11 Cd4 1_555 1_555
N12 Cd4 1_555 1_555
C31 N7 1_555 1_555
Cd4 N7 1_555 1_555
C40 N9 1_555 1_555
C44 N9 1_555 1_555
C40_2 H43_2 1_555 1_555
C41_2 C40_2 1_555 1_555
H44_2 C41_2 1_555 1_555
C42_2 C41_2 1_555 1_555
C43_2 C42_2 1_555 1_555
H45_2 C43_2 1_555 1_555
C44_2 C43_2 1_555 1_555
C45_2 C42_2 1_555 1_555
H47_2 C45_2 1_555 1_555
H48_2 C45_2 1_555 1_555
C46_2 C45_2 1_555 1_555
H49_2 C46_2 1_555 1_555
H50_2 C46_2 1_555 1_555
C47_2 C46_2 1_555 1_555
H51_2 C47_2 1_555 1_555
H52_2 C47_2 1_555 1_555
C48_2 C47_2 1_555 1_555
C49_2 C48_2 1_555 1_555
H53_2 C49_2 1_555 1_555
C50_2 C49_2 1_555 1_555
H54_2 C50_2 1_555 1_555
C51_2 H55_2 1_555 1_555
C52_2 C48_2 1_555 1_555
H56_2 C52_2 1_555 1_555
Cd5 N10_2 1_555 1_555
Cl4_2 Cd4_2 1_555 1_555
N9_2 Cd4_2 1_555 1_555
N10_2 C50_2 1_555 1_555
N11_2 Cd4_2 1_555 1_555
C40_2 N9_2 1_555 1_555
C44_2 N9_2 1_555 1_555
C51_2 C52_2 1_555 1_555
C51_2 N10_2 1_555 1_555
C27_2 H29_2 1_555 1_555
C28_2 C27_2 1_555 1_555
H30_2 C28_2 1_555 1_555
C29_2 C28_2 1_555 1_555
C30_2 C29_2 1_555 1_555
H31_2 C30_2 1_555 1_555
C31_2 C30_2 1_555 1_555
C32_2 C29_2 1_555 1_555
H33_2 C32_2 1_555 1_555
H34_2 C32_2 1_555 1_555
C33_2 C32_2 1_555 1_555
H35_2 C33_2 1_555 1_555
H36_2 C33_2 1_555 1_555
C34_2 C33_2 1_555 1_555
H37_2 C34_2 1_555 1_555
H38_2 C34_2 1_555 1_555
C35_2 C34_2 1_555 1_555
C36_2 C35_2 1_555 1_555
H39_2 C36_2 1_555 1_555
C37_2 C36_2 1_555 1_555
H40_2 C37_2 1_555 1_555
C38_2 H41_2 1_555 1_555
C39_2 C35_2 1_555 1_555
H42_2 C39_2 1_555 1_555
Cd4_3 Cl3_2 1_555 1_555
N7_2 C27_2 1_555 1_555
N8_2 C37_2 1_555 1_555
Cd5 N8_2 1_555 1_555
N12_2 Cd4_3 1_555 1_555
C31_2 N7_2 1_555 1_555
C38_2 C39_2 1_555 1_555
C38_2 N8_2 1_555 1_555
Cd4_3 N7_2 1_555 1_555
H35_3 C33_3 1_555 1_555
C34_3 C33_3 1_555 1_555
H37_3 C34_3 1_555 1_555
H38_3 C34_3 1_555 1_555
C35_3 C34_3 1_555 1_555
C36_3 C35_3 1_555 1_555
H39_3 C36_3 1_555 1_555
C37_3 C36_3 1_555 1_555
H40_3 C37_3 1_555 1_555
C38_3 H41_3 1_555 1_555
C39_3 C35_3 1_555 1_555
H42_3 C39_3 1_555 1_555
N11_2 C37_3 1_555 1_555
C38_3 C39_3 1_555 1_555
C38_3 N11_2 1_555 1_555
C27_3 H29_3 1_555 1_555
C28_3 C27_3 1_555 1_555
H30_3 C28_3 1_555 1_555
C29_3 C28_3 1_555 1_555
C30_3 C29_3 1_555 1_555
H31_3 C30_3 1_555 1_555
C31_3 C30_3 1_555 1_555
H32_3 C31_3 1_555 1_555
C32_3 C29_3 1_555 1_555
H33_3 C32_3 1_555 1_555
H34_3 C32_3 1_555 1_555
N7_3 C27_3 1_555 1_555
Cl4_3 Cd6 1_555 1_555
C31_3 N7_3 1_555 1_555
Cd6 N7_3 1_555 1_555
Cd6_2 Cl3_3 1_555 1_555
C40_3 H43_3 1_555 1_555
C41_3 C40_3 1_555 1_555
H44_3 C41_3 1_555 1_555
C42_3 C41_3 1_555 1_555
C43_3 C42_3 1_555 1_555
H45_3 C43_3 1_555 1_555
C44_3 C43_3 1_555 1_555
H46_3 C44_3 1_555 1_555
C45_3 C42_3 1_555 1_555
H47_3 C45_3 1_555 1_555
H48_3 C45_3 1_555 1_555
C46_3 C45_3 1_555 1_555
H49_3 C46_3 1_555 1_555
H50_3 C46_3 1_555 1_555
C47_3 C46_3 1_555 1_555
H51_3 C47_3 1_555 1_555
H52_3 C47_3 1_555 1_555
C48_3 C47_3 1_555 1_555
C49_3 C48_3 1_555 1_555
H53_3 C49_3 1_555 1_555
C50_3 C49_3 1_555 1_555
H54_3 C50_3 1_555 1_555
C51_3 H55_3 1_555 1_555
C52_3 C48_3 1_555 1_555
H56_3 C52_3 1_555 1_555
N9_3 Cd6_2 1_555 1_555
N12_2 C50_3 1_555 1_555
C40_3 N9_3 1_555 1_555
C44_3 N9_3 1_555 1_555
C51_3 C52_3 1_555 1_555
C51_3 N12_2 1_555 1_555
C27_4 H29_4 1_555 1_555
C28_4 C27_4 1_555 1_555
H30_4 C28_4 1_555 1_555
C29_4 C28_4 1_555 1_555
C30_4 C29_4 1_555 1_555
H31_4 C30_4 1_555 1_555
C31_4 C30_4 1_555 1_555
H32_4 C31_4 1_555 1_555
C32_4 C29_4 1_555 1_555
H33_4 C32_4 1_555 1_555
H34_4 C32_4 1_555 1_555
Cd5 Cl3_4 1_555 1_555
N7_4 C27_4 1_555 1_555
C40_4 H43_4 1_555 1_555
C41_4 C40_4 1_555 1_555
H44_4 C41_4 1_555 1_555
C42_4 C41_4 1_555 1_555
C43_4 C42_4 1_555 1_555
H45_4 C43_4 1_555 1_555
C44_4 C43_4 1_555 1_555
H46_4 C44_4 1_555 1_555
C45_4 C42_4 1_555 1_555
H47_4 C45_4 1_555 1_555
H48_4 C45_4 1_555 1_555
C46_4 C45_4 1_555 1_555
H49_4 C46_4 1_555 1_555
H50_4 C46_4 1_555 1_555
C47_4 C46_4 1_555 1_555
H51_4 C47_4 1_555 1_555
H52_4 C47_4 1_555 1_555
C48_4 C47_4 1_555 1_555
C49_4 C48_4 1_555 1_555
H53_4 C49_4 1_555 1_555
C50_4 C49_4 1_555 1_555
H54_4 C50_4 1_555 1_555
C51_4 H55_4 1_555 1_555
C52_4 C48_4 1_555 1_555
H56_4 C52_4 1_555 1_555
Cl4_4 Cd5 1_555 1_555
N9_4 Cd5 1_555 1_555
N12 C50_4 1_555 1_555
C31_4 N7_4 1_555 1_555
Cd5 N7_4 1_555 1_555
C40_4 N9_4 1_555 1_555
C44_4 N9_4 1_555 1_555
C51_4 C52_4 1_555 1_555
C51_4 N12 1_555 1_555
H35_4 C33_4 1_555 1_555
C34_4 C33_4 1_555 1_555
H37_4 C34_4 1_555 1_555
H38_4 C34_4 1_555 1_555
C35_4 C34_4 1_555 1_555
C36_4 C35_4 1_555 1_555
H39_4 C36_4 1_555 1_555
C37_4 C36_4 1_555 1_555
H40_4 C37_4 1_555 1_555
C38_4 H41_4 1_555 1_555
C39_4 C35_4 1_555 1_555
H42_4 C39_4 1_555 1_555
N11 C37_4 1_555 1_555
C38_4 C39_4 1_555 1_555
C38_4 N11 1_555 1_555
C27_5 H29_5 1_555 1_555
C28_5 C27_5 1_555 1_555
H30_5 C28_5 1_555 1_555
C29_5 C28_5 1_555 1_555
C30_5 C29_5 1_555 1_555
H31_5 C30_5 1_555 1_555
C31_5 C30_5 1_555 1_555
H32_5 C31_5 1_555 1_555
C32_5 C29_5 1_555 1_555
H33_5 C32_5 1_555 1_555
H34_5 C32_5 1_555 1_555
C33_5 C32_5 1_555 1_555
H35_5 C33_5 1_555 1_555
H36_5 C33_5 1_555 1_555
C34_5 C33_5 1_555 1_555
H38_5 C34_5 1_555 1_555
Cd4_4 Cl3_5 1_555 1_555
N7_5 C27_5 1_555 1_555
C40_5 H43_5 1_555 1_555
C41_5 C40_5 1_555 1_555
H44_5 C41_5 1_555 1_555
C42_5 C41_5 1_555 1_555
C43_5 C42_5 1_555 1_555
H45_5 C43_5 1_555 1_555
C44_5 C43_5 1_555 1_555
H46_5 C44_5 1_555 1_555
C45_5 C42_5 1_555 1_555
H47_5 C45_5 1_555 1_555
H48_5 C45_5 1_555 1_555
C46_5 C45_5 1_555 1_555
H49_5 C46_5 1_555 1_555
H50_5 C46_5 1_555 1_555
C47_5 C46_5 1_555 1_555
H52_5 C47_5 1_555 1_555
Cl4_5 Cd4_4 1_555 1_555
N9_5 Cd4_4 1_555 1_555
N11_3 Cd4_4 1_555 1_555
N12_3 Cd4_4 1_555 1_555
C31_5 N7_5 1_555 1_555
Cd4_4 N7_5 1_555 1_555
C40_5 N9_5 1_555 1_555
C44_5 N9_5 1_555 1_555
C36_5 C35_5 1_555 1_555
C37_5 C36_5 1_555 1_555
C38_5 H41_5 1_555 1_555
C39_5 C35_5 1_555 1_555
H42_5 C39_5 1_555 1_555
N8_3 C37_5 1_555 1_555
C49_5 C48_5 1_555 1_555
C50_5 C49_5 1_555 1_555
C51_5 H55_5 1_555 1_555
C52_5 C48_5 1_555 1_555
H56_5 C52_5 1_555 1_555
Cd5_3 N10_3 1_555 1_555
Cd5_2 N8_3 1_555 1_555
N10_3 C50_5 1_555 1_555
C38_5 C39_5 1_555 1_555
C38_5 N8_3 1_555 1_555
C51_5 C52_5 1_555 1_555
C51_5 N10_3 1_555 1_555
C27_6 H29_6 1_555 1_555
C28_6 C27_6 1_555 1_555
H30_6 C28_6 1_555 1_555
C29_6 C28_6 1_555 1_555
C30_6 C29_6 1_555 1_555
H31_6 C30_6 1_555 1_555
C31_6 C30_6 1_555 1_555
C32_6 C29_6 1_555 1_555
H33_6 C32_6 1_555 1_555
H34_6 C32_6 1_555 1_555
C33_6 C32_6 1_555 1_555
H35_6 C33_6 1_555 1_555
H36_6 C33_6 1_555 1_555
C34_6 C33_6 1_555 1_555
H37_6 C34_6 1_555 1_555
H38_6 C34_6 1_555 1_555
C35_6 C34_6 1_555 1_555
C36_6 C35_6 1_555 1_555
H39_6 C36_6 1_555 1_555
C37_6 C36_6 1_555 1_555
H40_6 C37_6 1_555 1_555
C38_6 H41_6 1_555 1_555
C39_6 C35_6 1_555 1_555
H42_6 C39_6 1_555 1_555
Cd4_5 Cl3_6 1_555 1_555
N7_6 C27_6 1_555 1_555
N8_4 C37_6 1_555 1_555
Cd6_3 N8_4 1_555 1_555
N12_4 Cd4_5 1_555 1_555
C31_6 N7_6 1_555 1_555
C38_6 C39_6 1_555 1_555
C38_6 N8_4 1_555 1_555
Cd4_5 N7_6 1_555 1_555
C40_6 H43_6 1_555 1_555
C41_6 C40_6 1_555 1_555
H44_6 C41_6 1_555 1_555
C42_6 C41_6 1_555 1_555
C43_6 C42_6 1_555 1_555
H45_6 C43_6 1_555 1_555
C44_6 C43_6 1_555 1_555
C45_6 C42_6 1_555 1_555
H47_6 C45_6 1_555 1_555
H48_6 C45_6 1_555 1_555
C46_6 C45_6 1_555 1_555
H49_6 C46_6 1_555 1_555
H50_6 C46_6 1_555 1_555
C47_6 C46_6 1_555 1_555
H51_6 C47_6 1_555 1_555
H52_6 C47_6 1_555 1_555
C48_6 C47_6 1_555 1_555
C49_6 C48_6 1_555 1_555
H53_6 C49_6 1_555 1_555
C50_6 C49_6 1_555 1_555
H54_6 C50_6 1_555 1_555
C51_6 H55_6 1_555 1_555
C52_6 C48_6 1_555 1_555
H56_6 C52_6 1_555 1_555
Cd6_3 N10_4 1_555 1_555
Cl4_6 Cd4_6 1_555 1_555
N9_6 Cd4_6 1_555 1_555
N10_4 C50_6 1_555 1_555
N11_4 Cd4_6 1_555 1_555
C40_6 N9_6 1_555 1_555
C44_6 N9_6 1_555 1_555
C51_6 C52_6 1_555 1_555
C51_6 N10_4 1_555 1_555
Cd5_2 Cl3_7 1_555 1_555
C40_7 H43_7 1_555 1_555
C41_7 C40_7 1_555 1_555
H44_7 C41_7 1_555 1_555
C42_7 C41_7 1_555 1_555
C43_7 C42_7 1_555 1_555
H45_7 C43_7 1_555 1_555
C44_7 C43_7 1_555 1_555
H46_7 C44_7 1_555 1_555
C45_7 C42_7 1_555 1_555
H47_7 C45_7 1_555 1_555
H48_7 C45_7 1_555 1_555
C46_7 C45_7 1_555 1_555
H49_7 C46_7 1_555 1_555
H50_7 C46_7 1_555 1_555
C47_7 C46_7 1_555 1_555
H51_7 C47_7 1_555 1_555
H52_7 C47_7 1_555 1_555
C48_7 C47_7 1_555 1_555
C49_7 C48_7 1_555 1_555
H53_7 C49_7 1_555 1_555
C50_7 C49_7 1_555 1_555
H54_7 C50_7 1_555 1_555
C51_7 H55_7 1_555 1_555
C52_7 C48_7 1_555 1_555
H56_7 C52_7 1_555 1_555
N9_7 Cd5_2 1_555 1_555
N12_4 C50_7 1_555 1_555
C40_7 N9_7 1_555 1_555
C44_7 N9_7 1_555 1_555
C51_7 C52_7 1_555 1_555
C51_7 N12_4 1_555 1_555
C27_7 H29_7 1_555 1_555
C28_7 C27_7 1_555 1_555
H30_7 C28_7 1_555 1_555
C29_7 C28_7 1_555 1_555
C30_7 C29_7 1_555 1_555
H31_7 C30_7 1_555 1_555
C31_7 C30_7 1_555 1_555
H32_7 C31_7 1_555 1_555
C32_7 C29_7 1_555 1_555
H33_7 C32_7 1_555 1_555
H34_7 C32_7 1_555 1_555
N7_7 C27_7 1_555 1_555
Cl4_7 Cd5_3 1_555 1_555
C31_7 N7_7 1_555 1_555
Cd5_3 N7_7 1_555 1_555
H35_7 C33_7 1_555 1_555
C34_7 C33_7 1_555 1_555
H37_7 C34_7 1_555 1_555
H38_7 C34_7 1_555 1_555
C35_7 C34_7 1_555 1_555
C36_7 C35_7 1_555 1_555
H39_7 C36_7 1_555 1_555
C37_7 C36_7 1_555 1_555
H40_7 C37_7 1_555 1_555
C38_7 H41_7 1_555 1_555
C39_7 C35_7 1_555 1_555
H42_7 C39_7 1_555 1_555
N11_4 C37_7 1_555 1_555
C38_7 C39_7 1_555 1_555
C38_7 N11_4 1_555 1_555
H35_8 C33_8 1_555 1_555
C34_8 C33_8 1_555 1_555
H37_8 C34_8 1_555 1_555
H38_8 C34_8 1_555 1_555
C35_8 C34_8 1_555 1_555
C36_8 C35_8 1_555 1_555
H39_8 C36_8 1_555 1_555
C37_8 C36_8 1_555 1_555
H40_8 C37_8 1_555 1_555
C38_8 H41_8 1_555 1_555
C39_8 C35_8 1_555 1_555
H42_8 C39_8 1_555 1_555
N11_3 C37_8 1_555 1_555
C38_8 C39_8 1_555 1_555
C38_8 N11_3 1_555 1_555
C27_8 H29_8 1_555 1_555
C28_8 C27_8 1_555 1_555
H30_8 C28_8 1_555 1_555
C29_8 C28_8 1_555 1_555
C30_8 C29_8 1_555 1_555
H31_8 C30_8 1_555 1_555
C31_8 C30_8 1_555 1_555
H32_8 C31_8 1_555 1_555
C32_8 C29_8 1_555 1_555
H33_8 C32_8 1_555 1_555
H34_8 C32_8 1_555 1_555
Cd6_3 Cl3_8 1_555 1_555
N7_8 C27_8 1_555 1_555
C40_8 H43_8 1_555 1_555
C41_8 C40_8 1_555 1_555
H44_8 C41_8 1_555 1_555
C42_8 C41_8 1_555 1_555
C43_8 C42_8 1_555 1_555
H45_8 C43_8 1_555 1_555
C44_8 C43_8 1_555 1_555
H46_8 C44_8 1_555 1_555
C45_8 C42_8 1_555 1_555
H47_8 C45_8 1_555 1_555
H48_8 C45_8 1_555 1_555
C46_8 C45_8 1_555 1_555
H49_8 C46_8 1_555 1_555
H50_8 C46_8 1_555 1_555
C47_8 C46_8 1_555 1_555
H51_8 C47_8 1_555 1_555
H52_8 C47_8 1_555 1_555
C48_8 C47_8 1_555 1_555
C49_8 C48_8 1_555 1_555
H53_8 C49_8 1_555 1_555
C50_8 C49_8 1_555 1_555
H54_8 C50_8 1_555 1_555
C51_8 H55_8 1_555 1_555
C52_8 C48_8 1_555 1_555
H56_8 C52_8 1_555 1_555
Cl4_8 Cd6_3 1_555 1_555
N9_8 Cd6_3 1_555 1_555
N12_3 C50_8 1_555 1_555
C31_8 N7_8 1_555 1_555
Cd6_3 N7_8 1_555 1_555
C40_8 N9_8 1_555 1_555
C44_8 N9_8 1_555 1_555
C51_8 C52_8 1_555 1_555
C51_8 N12_3 1_555 1_555

#END
