
###############################################################################
#
# This file contains modified crystal structure data generated from the
# MOF subset of the Cambridge Structural Database (CSD) v543 
# hosted by the Cambridge Crystallographic Data Centre (CCDC).
#
# This work is licensed under the Creative Commons
# Attribution-NonCommercial-ShareAlike 4.0 International License.
# To view a copy of this license, visit
# http://creativecommons.org/licenses/by-nc-sa/4.0/
# or send a letter to
# Creative Commons, PO Box 1866, Mountain View, CA 94042, USA.
#
# CIF created using the CSD Python API on 29 September 2022
# The structure has been converted into the P1 space group
# The structure has a 3D framework
# The original CSD entry GUXJUF is in the monoclinic crystal system
# The framework has been calculated to contain at least 10.0% void space
# The void calculation uses a probe of radius 1.32A, grid spacing 0.4
# H atom positions have been added when not included in the experimental data
# Generated hydrogen atom positions removed from atoms on special positions
#
###############################################################################

data_GUXJUF
_chemical_formula_moiety         '(C256 H216 Cu27 N48 O98)n'
_symmetry_cell_setting           triclinic
_symmetry_space_group_name_H-M   'P 1'
_symmetry_Int_Tables_number      1
_space_group_name_Hall           'P 1'
loop_
_symmetry_equiv_pos_site_id
_symmetry_equiv_pos_as_xyz
1 x,y,z
_cell_length_a                   32.653(2)
_cell_length_b                   13.8474(13)
_cell_length_c                   18.5343(15)
_cell_angle_alpha                90
_cell_angle_beta                 101.242(3)
_cell_angle_gamma                90
_cell_volume                     8219.65
loop_
_atom_site_label
_atom_site_type_symbol
_atom_site_fract_x
_atom_site_fract_y
_atom_site_fract_z
Cu21 Cu 0.0000 0.5000 0.5000
C96 C 0.59362(18) 0.0241(4) 0.6435(4)
H70 H 0.5910 0.0934 0.6486
H71 H 0.6212 0.0037 0.6685
H72 H 0.5898 0.0075 0.5917
O39 O 0.53541(11) 0.0322(3) 0.6997(2)
Cu13 Cu 0.493309(19) 0.00351(4) 0.75374(4)
O49 O 0.48117(12) 0.1382(3) 0.7541(2)
Cu1 Cu 0.5000 -0.0000 0.5000
O2 O 0.45733(11) 0.0283(3) 0.5526(2)
C1 C 0.40099(17) 0.0186(4) 0.6126(3)
H1 H 0.4014 0.0874 0.6031
H2 H 0.4067 0.0074 0.6653
O27 O 0.50985(12) 0.1347(3) 0.4964(2)
H51 H 0.6263 0.0073 0.4088
C66 C 0.56622(15) 0.0307(4) 0.4210(3)
C67 C 0.56346(15) 0.1325(4) 0.4260(3)
C68 C 0.53545(16) 0.1793(4) 0.4632(3)
C69 C 0.5329(2) 0.2867(5) 0.4670(5)
H52 H 0.5495 0.3091 0.5131
H53 H 0.5435 0.3149 0.4263
H54 H 0.5041 0.3060 0.4639
C70 C 0.59410(15) 0.1927(4) 0.3944(3)
C71 C 0.62593(17) 0.2421(5) 0.4402(3)
H55 H 0.6269 0.2431 0.4912
C72 C 0.59299(16) 0.1979(4) 0.3199(3)
H56 H 0.5711 0.1685 0.2866
C73 C 0.62448(16) 0.2469(4) 0.2943(3)
H57 H 0.6234 0.2503 0.2433
C74 C 0.65605(18) 0.2897(5) 0.4117(4)
H58 H 0.6771 0.3233 0.4439
N13 N 0.65658(13) 0.2898(3) 0.3401(2)
Cu8 Cu 0.708088(18) 0.33685(4) 0.30902(4)
Cu10 Cu 0.208088(18) 0.16315(4) 0.80902(4)
O29 O 0.19391(11) 0.0281(2) 0.8234(2)
O30 O 0.69391(11) 0.4719(2) 0.3234(2)
C76 C 0.25198(14) 0.0064(3) 0.7677(2)
N14 N 0.25046(12) 0.1023(3) 0.7583(2)
N15 N 0.75046(12) 0.3977(3) 0.2583(2)
C77 C 0.27777(16) 0.1455(3) 0.7246(3)
H59 H 0.2770 0.2129 0.7182
C78 C 0.30753(17) 0.0905(4) 0.6989(3)
H60 H 0.3261 0.1218 0.6737
O33 O 0.72785(11) 0.2053(2) 0.2988(2)
O35 O 0.75059(11) 0.3182(2) 0.42119(19)
O36 O 0.79462(10) 0.3048(2) 0.52778(18)
C81 C 0.77148(14) 0.3535(3) 0.4776(3)
C82 C 0.77311(13) 0.4615(3) 0.4850(2)
C83 C 0.74457(13) 0.5171(3) 0.5140(2)
N17 N 0.80401(13) 0.5043(3) 0.4573(2)
C84 C 0.80380(15) 0.5994(3) 0.4546(3)
H61 H 0.8240 0.6303 0.4329
C85 C 0.77542(15) 0.6564(3) 0.4819(3)
H62 H 0.7768 0.7241 0.4798
N18 N 0.74612(11) 0.6130(2) 0.5112(2)
C86 C 0.71036(14) 0.4774(3) 0.5500(2)
O37 O 0.70685(10) 0.3892(2) 0.55628(18)
O38 O 0.68763(11) 0.5406(2) 0.5730(2)
Cu11 Cu 0.703953(18) 0.67492(4) 0.56259(4)
Cu12 Cu 0.296047(18) 0.32508(4) 0.43741(4)
N19 N 0.65333(12) 0.7206(3) 0.5978(2)
C87 C 0.65353(18) 0.7219(4) 0.6694(3)
H63 H 0.6757 0.6914 0.7013
C88 C 0.62025(15) 0.7596(4) 0.5524(3)
H64 H 0.6187 0.7547 0.5014
C89 C 0.58831(16) 0.8066(4) 0.5781(3)
H65 H 0.5656 0.8332 0.5450
C90 C 0.62293(16) 0.7657(4) 0.6992(3)
H66 H 0.6239 0.7632 0.7502
C91 C 0.59063(15) 0.8137(4) 0.6536(3)
C92 C 0.5308(2) 0.7177(5) 0.7289(5)
H67 H 0.5032 0.6967 0.7343
H68 H 0.5377 0.6884 0.6852
H69 H 0.5512 0.6982 0.7718
C93 C 0.53127(17) 0.8255(4) 0.7217(4)
C94 C 0.55928(14) 0.8724(4) 0.6838(3)
C95 C 0.56084(15) 0.9736(4) 0.6771(3)
O40 O 0.50497(11) 0.8696(3) 0.7525(2)
Cu15 Cu 0.993309(19) 0.49649(4) 0.25374(4)
Cu16 Cu 0.801209(19) 0.17105(4) 0.49270(4)
O42 O 0.80458(12) 0.0411(2) 0.4514(2)
O43 O 0.22296(12) 0.1061(2) 0.5517(2)
C97 C 0.22202(15) 0.0200(3) 0.5353(3)
N21 N 0.74995(12) 0.1149(3) 0.5204(2)
C101 C 0.28693(14) 0.0318(3) 0.4771(2)
C102 C 0.29489(15) 0.1378(3) 0.4929(3)
O44 O 0.27589(11) 0.1930(2) 0.4439(2)
O45 O 0.72411(11) 0.8070(2) 0.5561(2)
O46 O 0.32088(13) 0.1615(3) 0.5480(2)
N23 N 0.84501(12) 0.2169(3) 0.4405(2)
C103 C 0.83938(16) 0.2115(4) 0.3668(3)
H75 H 0.8162 0.1776 0.3406
C104 C 0.87870(15) 0.2614(4) 0.4768(3)
H76 H 0.8836 0.2625 0.5285
C105 C 0.86694(16) 0.2549(4) 0.3284(3)
H77 H 0.8626 0.2490 0.2770
C106 C 0.90728(17) 0.3070(4) 0.4404(3)
H78 H 0.9310 0.3376 0.4678
C107 C 0.90068(15) 0.3068(4) 0.3655(3)
C108 C 0.9558(2) 0.2102(4) 0.2809(4)
H79 H 0.9821 0.1897 0.2690
H80 H 0.9527 0.1814 0.3272
H81 H 0.9330 0.1897 0.2423
C109 C 0.95536(17) 0.3180(4) 0.2875(3)
C110 C 0.92894(14) 0.3654(4) 0.3275(3)
C111 C 0.92691(14) 0.4671(4) 0.3329(3)
C112 C 0.89538(17) 0.5181(4) 0.3688(3)
H82 H 0.8854 0.5753 0.3407
H83 H 0.8721 0.4751 0.3704
H84 H 0.9084 0.5366 0.4185
O47 O 0.98117(12) 0.3618(3) 0.2541(2)
O50 O 0.95092(11) 0.5256(3) 0.3067(2)
O52 O 0.45092(11) 0.9744(3) 0.8067(2)
O53 O 0.74996(12) 0.6842(2) 0.6718(2)
C113 C 0.77444(14) 0.6445(3) 0.7213(3)
O54 O 0.80072(11) 0.6884(2) 0.76910(19)
O55 O 0.71342(11) 0.6037(2) 0.80368(19)
O56 O 0.68737(12) 0.4549(2) 0.8018(2)
O58 O 0.81263(12) 0.9549(2) 0.6982(2)
C114 C 0.71310(14) 0.5173(3) 0.7874(3)
C115 C 0.74526(14) 0.4789(3) 0.7465(2)
C116 C 0.77539(14) 0.5355(3) 0.7223(2)
N24 N 0.74371(12) 0.3838(2) 0.7348(2)
N26 N 0.75629(12) 0.8838(2) 0.7652(2)
N27 N 0.80492(12) 0.4946(3) 0.6899(2)
C117 C 0.77249(15) 0.3431(3) 0.7028(3)
H85 H 0.7722 0.2759 0.6954
C118 C 0.80309(14) 0.3996(3) 0.6800(3)
H86 H 0.8230 0.3695 0.6571
Cu18 Cu 0.807289(18) 0.82442(4) 0.73756(4)
Cu20 Cu 0.692711(18) 0.32442(4) 0.76244(4)
N28 N 0.85120(13) 0.7804(3) 0.6851(2)
C119 C 0.84695(16) 0.7871(4) 0.6129(3)
H87 H 0.8244 0.8225 0.5865
C120 C 0.87452(17) 0.7438(4) 0.5747(3)
H88 H 0.8704 0.7501 0.5233
C121 C 0.88475(17) 0.7350(4) 0.7223(3)
H89 H 0.8890 0.7329 0.7739
C122 C 0.91373(18) 0.6905(4) 0.6871(3)
H90 H 0.9372 0.6598 0.7150
C123 C 0.90815(15) 0.6914(4) 0.6124(3)
C124 C 0.9667(2) 0.7866(5) 0.5342(5)
H91 H 0.9451 0.8099 0.4944
H92 H 0.9625 0.8140 0.5803
H93 H 0.9939 0.8059 0.5253
C125 C 0.96469(17) 0.6789(4) 0.5379(4)
C126 C 0.93644(16) 0.6321(4) 0.5754(3)
C127 C 0.93344(15) 0.5304(4) 0.5789(3)
C128 C 0.90021(18) 0.4812(4) 0.6115(3)
H94 H 0.9095 0.4757 0.6643
H95 H 0.8747 0.5189 0.6009
H96 H 0.8950 0.4173 0.5902
O59 O 0.99041(12) 0.6352(3) 0.5053(2)
O61 O 0.95733(11) 0.4719(3) 0.5522(2)
Cu21_2 Cu 1.0000 0.5000 0.5000
O63 O 0.84944(12) 0.8450(3) 0.8505(2)
O64 O 0.84375(12) 0.1466(3) 0.6050(2)
Cu1_2 Cu 0.5000 1.0000 0.5000
O1 O 0.49015(12) 0.8653(3) 0.5036(2)
H3 H 0.3737 0.9927 0.5912
C2 C 0.43378(15) 0.9693(4) 0.5790(3)
C3 C 0.43654(15) 0.8675(4) 0.5740(3)
C4 C 0.46455(16) 0.8207(4) 0.5368(3)
C5 C 0.4671(2) 0.7133(5) 0.5330(5)
H4 H 0.4505 0.6909 0.4869
H5 H 0.4565 0.6851 0.5737
H6 H 0.4959 0.6940 0.5361
C6 C 0.40590(15) 0.8073(4) 0.6056(3)
C7 C 0.37407(17) 0.7579(5) 0.5598(3)
H7 H 0.3731 0.7569 0.5088
C8 C 0.40701(16) 0.8021(4) 0.6801(3)
H8 H 0.4289 0.8315 0.7134
C9 C 0.37552(16) 0.7531(4) 0.7057(3)
H9 H 0.3766 0.7497 0.7567
C10 C 0.34395(18) 0.7103(5) 0.5883(4)
H10 H 0.3229 0.6767 0.5561
N1 N 0.34342(13) 0.7102(3) 0.6599(2)
Cu2 Cu 0.291912(18) 0.66315(4) 0.69098(4)
O3 O 0.30609(11) 0.5281(2) 0.6766(2)
C11 C 0.28175(15) 0.4655(3) 0.6960(3)
O4 O 0.28421(12) 0.3774(2) 0.6887(2)
C12 C 0.24802(14) 0.5064(3) 0.7323(2)
N2 N 0.24954(12) 0.6023(3) 0.7417(2)
C13 C 0.22223(16) 0.6455(3) 0.7754(3)
H11 H 0.2230 0.7129 0.7818
C14 C 0.19247(17) 0.5905(4) 0.8011(3)
H12 H 0.1739 0.6218 0.8263
N3 N 0.18920(14) 0.4959(3) 0.7915(2)
C15 C 0.21688(14) 0.4532(3) 0.7568(2)
C16 C 0.20993(16) 0.3464(3) 0.7457(3)
O5 O 0.22785(11) 0.2947(2) 0.7988(2)
O6 O 0.18545(13) 0.3181(3) 0.6907(2)
O7 O 0.24941(11) 0.6818(2) 0.57881(19)
O8 O 0.20538(10) 0.6952(2) 0.47222(18)
C17 C 0.22852(14) 0.6465(3) 0.5224(3)
C18 C 0.22689(13) 0.5385(3) 0.5150(2)
C19 C 0.25543(13) 0.4829(3) 0.4860(2)
N4 N 0.19599(13) 0.4957(3) 0.5427(2)
C20 C 0.19620(15) 0.4006(3) 0.5454(3)
H13 H 0.1760 0.3697 0.5671
C21 C 0.22458(15) 0.3436(3) 0.5181(3)
H14 H 0.2232 0.2759 0.5202
N5 N 0.25388(11) 0.3870(2) 0.4888(2)
C22 C 0.28964(14) 0.5226(3) 0.4500(2)
O9 O 0.29315(10) 0.6108(2) 0.44372(18)
O10 O 0.31237(11) 0.4594(2) 0.4270(2)
N6 N 0.34667(12) 0.2794(3) 0.4022(2)
C23 C 0.34647(18) 0.2781(4) 0.3306(3)
H15 H 0.3243 0.3086 0.2987
C24 C 0.37975(15) 0.2404(4) 0.4476(3)
H16 H 0.3813 0.2453 0.4986
C25 C 0.41169(16) 0.1934(4) 0.4219(3)
H17 H 0.4344 0.1668 0.4550
C26 C 0.37707(16) 0.2343(4) 0.3008(3)
H18 H 0.3761 0.2368 0.2498
C27 C 0.40937(15) 0.1863(4) 0.3464(3)
C28 C 0.4692(2) 0.2823(5) 0.2711(5)
H19 H 0.4968 0.3033 0.2657
H20 H 0.4623 0.3116 0.3148
H21 H 0.4488 0.3018 0.2282
C29 C 0.46873(17) 0.1745(4) 0.2783(4)
C30 C 0.44072(14) 0.1276(4) 0.3162(3)
C31 C 0.43916(15) 0.0264(4) 0.3229(3)
O12 O 0.49503(11) 0.1304(3) 0.2475(2)
Cu5 Cu 0.198791(19) 0.82895(4) 0.50730(4)
N9 N 0.15499(12) 0.7831(3) 0.5595(2)
C39 C 0.16062(16) 0.7885(4) 0.6332(3)
H27 H 0.1838 0.8224 0.6594
C40 C 0.12130(15) 0.7386(4) 0.5232(3)
H28 H 0.1164 0.7375 0.4715
C41 C 0.13306(16) 0.7451(4) 0.6716(3)
H29 H 0.1374 0.7510 0.7230
C42 C 0.09272(17) 0.6930(4) 0.5596(3)
H30 H 0.0690 0.6624 0.5322
C43 C 0.09932(15) 0.6932(4) 0.6345(3)
C44 C 0.0442(2) 0.7898(4) 0.7191(4)
H31 H 0.0179 0.8103 0.7310
H32 H 0.0473 0.8186 0.6728
H33 H 0.0670 0.8103 0.7577
C45 C 0.04464(17) 0.6820(4) 0.7125(3)
C46 C 0.07106(14) 0.6346(4) 0.6725(3)
C47 C 0.07309(14) 0.5329(4) 0.6671(3)
C48 C 0.10462(17) 0.4819(4) 0.6312(3)
H34 H 0.1146 0.4247 0.6593
H35 H 0.1279 0.5249 0.6296
H36 H 0.0916 0.4634 0.5815
O17 O 0.01883(12) 0.6382(3) 0.7459(2)
O18 O 0.04908(11) 0.4744(3) 0.6933(2)
O19 O 0.25004(12) 0.3158(2) 0.3282(2)
C49 C 0.22556(14) 0.3555(3) 0.2787(3)
O20 O 0.19928(11) 0.3116(2) 0.23090(19)
O21 O 0.28658(11) 0.3963(2) 0.19632(19)
O22 O 0.31263(12) 0.5451(2) 0.1982(2)
C50 C 0.28690(14) 0.4827(3) 0.2126(3)
C51 C 0.25474(14) 0.5211(3) 0.2535(2)
C52 C 0.22461(14) 0.4645(3) 0.2777(2)
N10 N 0.25629(12) 0.6162(2) 0.2652(2)
N11 N 0.19508(12) 0.5054(3) 0.3101(2)
C53 C 0.22751(15) 0.6569(3) 0.2972(3)
H37 H 0.2278 0.7241 0.3046
C54 C 0.19691(14) 0.6004(3) 0.3200(3)
H38 H 0.1770 0.6305 0.3429
Cu6 Cu 0.192711(18) 0.17558(4) 0.26244(4)
N12 N 0.14880(13) 0.2196(3) 0.3149(2)
C55 C 0.15305(16) 0.2129(4) 0.3871(3)
H39 H 0.1756 0.1775 0.4135
C56 C 0.12548(17) 0.2562(4) 0.4253(3)
H40 H 0.1296 0.2499 0.4767
C57 C 0.11525(17) 0.2650(4) 0.2777(3)
H41 H 0.1110 0.2671 0.2261
C58 C 0.08627(18) 0.3095(4) 0.3129(3)
H42 H 0.0628 0.3402 0.2850
C59 C 0.09185(15) 0.3086(4) 0.3876(3)
C60 C 0.0333(2) 0.2134(5) 0.4658(5)
H43 H 0.0549 0.1901 0.5056
H44 H 0.0375 0.1860 0.4197
H45 H 0.0061 0.1941 0.4747
C61 C 0.03531(17) 0.3211(4) 0.4621(4)
C62 C 0.06356(16) 0.3679(4) 0.4246(3)
C63 C 0.06656(15) 0.4696(4) 0.4211(3)
C64 C 0.09979(18) 0.5188(4) 0.3885(3)
H46 H 0.0905 0.5243 0.3357
H47 H 0.1253 0.4811 0.3991
H48 H 0.1050 0.5827 0.4098
O23 O 0.00959(12) 0.3648(3) 0.4947(2)
O24 O 0.04267(11) 0.5281(3) 0.4478(2)
O25 O 0.15056(12) 0.1550(3) 0.1495(2)
O26 O 0.15625(12) 0.8534(3) 0.3950(2)
O28 O 0.54267(11) 0.9717(3) 0.4474(2)
C65 C 0.59901(17) 0.9814(4) 0.3874(3)
H49 H 0.5986 0.9126 0.3969
H50 H 0.5933 0.9926 0.3347
C75 C 0.21825(15) 0.9655(3) 0.8040(3)
O31 O 0.21579(12) 0.8774(2) 0.8113(2)
N16 N 0.31080(14) 0.9959(3) 0.7085(2)
C79 C 0.28312(14) 0.9532(3) 0.7432(2)
C80 C 0.29007(16) 0.8464(3) 0.7543(3)
O32 O 0.27215(11) 0.7947(2) 0.7012(2)
O34 O 0.31455(13) 0.8181(3) 0.8093(2)
Cu14 Cu 0.006691(19) 0.50351(4) 0.74626(4)
O41 O 0.19542(12) 0.9589(2) 0.5486(2)
C98 C 0.25446(14) 0.9788(3) 0.4962(3)
N20 N 0.25005(12) 0.8851(3) 0.4796(2)
C99 C 0.27740(15) 0.8431(3) 0.4454(3)
H73 H 0.2747 0.7772 0.4335
C100 C 0.31010(15) 0.8960(3) 0.4272(3)
H74 H 0.3294 0.8645 0.4037
N22 N 0.31499(13) 0.9894(3) 0.4418(2)
O51 O 0.54908(11) 0.0256(3) 0.1933(2)
O57 O 0.18737(12) 0.0451(2) 0.3018(2)
N25 N 0.24371(12) 0.1162(2) 0.2348(2)
Cu19 Cu 0.307289(18) 0.67558(4) 0.23756(4)
C32 C 0.40638(18) 0.9759(4) 0.3565(4)
H22 H 0.4090 0.9066 0.3514
H23 H 0.3788 0.9963 0.3315
H24 H 0.4102 0.9925 0.4083
O11 O 0.46459(11) 0.9678(3) 0.3003(2)
Cu4 Cu 0.506691(19) 0.99649(4) 0.24626(4)
O48 O 0.51883(12) 0.8618(3) 0.2459(2)
Cu1_3 Cu -0.0000 0.5000 0.0000
H4_2 H 0.0495 0.1909 0.0131
O8_2 O 0.29462(10) 0.1952(2) 0.02778(18)
C22_2 C 0.21036(14) 0.0226(3) 0.0500(2)
O9_2 O 0.20685(10) 0.1108(2) 0.05628(18)
H28_2 H 0.3836 0.2375 0.0285
C51_2 C 0.24526(14) 0.0211(3) 0.2465(2)
N11_2 N 0.30492(12) 0.0054(3) 0.1899(2)
C53_2 C 0.27249(15) 0.1569(3) 0.2028(3)
H37_2 H 0.2722 0.2241 0.1954
C54_2 C 0.30309(14) 0.1004(3) 0.1800(3)
H38_2 H 0.3230 0.1305 0.1571
C64_2 C 0.40021(18) 0.0188(4) 0.1115(3)
H46_2 H 0.4095 0.0243 0.1643
H48_2 H 0.3950 0.0827 0.0902
O24_2 O 0.45733(11) 0.0281(3) 0.0522(2)
Cu7 Cu 0.5000 0.0000 0.0000
O26_2 O 0.34375(12) 0.3534(3) 0.1050(2)
Cu12_2 Cu 0.203953(18) 0.82508(4) 0.06259(4)
C98_2 C 0.24554(14) 0.4788(3) 0.0038(3)
N20_2 N 0.24995(12) 0.3851(3) 0.0204(2)
C99_2 C 0.22260(15) 0.3431(3) 0.0546(3)
H73_2 H 0.2253 0.2772 0.0665
C100_2 C 0.18990(15) 0.3960(3) 0.0728(3)
H74_2 H 0.1706 0.3645 0.0963
N22_2 N 0.18501(13) 0.4894(3) 0.0582(2)
C101_2 C 0.21307(14) 0.5318(3) 0.0229(2)
C102_2 C 0.20511(15) 0.6378(3) 0.0071(3)
O44_2 O 0.22411(11) 0.6930(2) 0.0561(2)
Cu1_4 Cu 0.0000 0.5000 1.0000
O1_2 O 0.00985(12) 0.3653(3) 0.9964(2)
O2_2 O 0.04267(11) 0.5283(3) 0.9474(2)
C1_2 C 0.09901(17) 0.5186(4) 0.8874(3)
H1_2 H 0.0986 0.5874 0.8969
H2_2 H 0.0933 0.5074 0.8347
H3_2 H 0.1263 0.4927 0.9088
C2_2 C 0.06622(15) 0.4693(4) 0.9210(3)
C3_2 C 0.06346(15) 0.3675(4) 0.9260(3)
C4_2 C 0.03545(16) 0.3207(4) 0.9632(3)
C5_2 C 0.0329(2) 0.2133(5) 0.9670(5)
H5_2 H 0.0435 0.1851 0.9263
H6_2 H 0.0041 0.1940 0.9639
C6_2 C 0.09410(15) 0.3073(4) 0.8944(3)
C7_2 C 0.12593(17) 0.2579(5) 0.9402(3)
H7_2 H 0.1269 0.2569 0.9912
C8_2 C 0.09299(16) 0.3021(4) 0.8199(3)
H8_2 H 0.0711 0.3315 0.7866
C9_2 C 0.12448(16) 0.2531(4) 0.7943(3)
H9_2 H 0.1234 0.2497 0.7433
C10_2 C 0.15605(18) 0.2103(5) 0.9117(4)
H10_2 H 0.1771 0.1767 0.9439
N1_2 N 0.15658(13) 0.2102(3) 0.8401(2)
O7_2 O 0.25059(11) 0.1818(2) 0.92119(19)
C17_2 C 0.27148(14) 0.1465(3) 0.9776(3)
C18_2 C 0.27311(13) 0.0385(3) 0.9850(2)
Cu5_2 Cu 0.301209(19) 0.32895(4) 0.99270(4)
N9_2 N 0.34501(12) 0.2831(3) 0.9405(2)
C39_2 C 0.33938(16) 0.2885(4) 0.8668(3)
H27_2 H 0.3162 0.3224 0.8406
C40_2 C 0.37870(15) 0.2386(4) 0.9768(3)
C41_2 C 0.36694(16) 0.2451(4) 0.8284(3)
H29_2 H 0.3626 0.2510 0.7770
C42_2 C 0.40728(17) 0.1930(4) 0.9404(3)
H30_2 H 0.4310 0.1624 0.9678
C43_2 C 0.40068(15) 0.1932(4) 0.8655(3)
C44_2 C 0.4558(2) 0.2898(4) 0.7809(4)
H31_2 H 0.4821 0.3103 0.7690
H32_2 H 0.4527 0.3186 0.8272
H33_2 H 0.4330 0.3103 0.7423
C45_2 C 0.45536(17) 0.1820(4) 0.7875(3)
C46_2 C 0.42894(14) 0.1346(4) 0.8275(3)
C47_2 C 0.42691(14) 0.0329(4) 0.8329(3)
H35_2 H 0.3721 0.0249 0.8704
Cu7_2 Cu 0.5000 0.0000 1.0000
O41_2 O 0.30458(12) 0.4589(2) 0.9514(2)
O43_2 O 0.27704(12) 0.6061(2) 0.9483(2)
C97_2 C 0.27798(15) 0.5200(3) 0.9647(3)
O46_2 O 0.17912(13) 0.6615(3) 0.9520(2)
O60 O 0.50959(12) 0.1352(3) 0.9947(2)
C19_2 C 0.24457(13) 0.9829(3) 0.0140(2)
N5_2 N 0.24612(11) 0.8870(2) 0.0112(2)
O10_2 O 0.18763(11) 0.9594(2) 0.0730(2)
N6_2 N 0.15333(12) 0.7794(3) 0.0978(2)
C23_2 C 0.15353(18) 0.7781(4) 0.1694(3)
H15_2 H 0.1757 0.8086 0.2013
C24_2 C 0.12025(15) 0.7404(4) 0.0524(3)
H16_2 H 0.1187 0.7453 0.0014
C25_2 C 0.08831(16) 0.6934(4) 0.0781(3)
H17_2 H 0.0656 0.6668 0.0450
C26_2 C 0.12293(16) 0.7343(4) 0.1992(3)
H18_2 H 0.1239 0.7368 0.2502
C27_2 C 0.09063(15) 0.6863(4) 0.1536(3)
C28_2 C 0.0308(2) 0.7823(5) 0.2289(5)
H19_2 H 0.0032 0.8033 0.2343
H20_2 H 0.0377 0.8116 0.1852
H21_2 H 0.0512 0.8018 0.2718
C29_2 C 0.03127(17) 0.6745(4) 0.2217(4)
C30_2 C 0.05928(14) 0.6276(4) 0.1838(3)
C31_2 C 0.06084(15) 0.5264(4) 0.1771(3)
C32_2 C 0.09362(18) 0.4759(4) 0.1435(4)
H22_2 H 0.0910 0.4066 0.1486
H23_2 H 0.1212 0.4963 0.1685
H24_2 H 0.0898 0.4925 0.0917
O11_2 O 0.03541(11) 0.4678(3) 0.1997(2)
O12_2 O 0.00497(11) 0.6304(3) 0.2525(2)
O19_2 O 0.24996(12) 0.8158(2) 0.1718(2)
C49_2 C 0.27444(14) 0.8555(3) 0.2213(3)
O20_2 O 0.30072(11) 0.8116(2) 0.26910(19)
O21_2 O 0.21342(11) 0.8963(2) 0.30368(19)
C50_2 C 0.21310(14) 0.9827(3) 0.2874(3)
C52_2 C 0.27539(14) 0.9645(3) 0.2223(2)
N12_2 N 0.35120(13) 0.7196(3) 0.1851(2)
C55_2 C 0.34695(16) 0.7129(4) 0.1129(3)
H39_2 H 0.3244 0.6775 0.0865
C56_2 C 0.37452(17) 0.7562(4) 0.0747(3)
H40_2 H 0.3704 0.7499 0.0233
C57_2 C 0.38475(17) 0.7650(4) 0.2223(3)
H41_2 H 0.3890 0.7671 0.2739
C58_2 C 0.41373(18) 0.8095(4) 0.1871(3)
H42_2 H 0.4372 0.8402 0.2150
C59_2 C 0.40815(15) 0.8086(4) 0.1124(3)
C60_2 C 0.4667(2) 0.7134(5) 0.0342(5)
H44_2 H 0.4625 0.6860 0.0803
H45_2 H 0.4939 0.6941 0.0253
C61_2 C 0.46469(17) 0.8211(4) 0.0379(4)
C62_2 C 0.43644(16) 0.8679(4) 0.0754(3)
C63_2 C 0.43344(15) 0.9696(4) 0.0789(3)
H47_2 H 0.3747 0.9811 0.1009
O23_2 O 0.49041(12) 0.8648(3) 0.0053(2)
Cu7_3 Cu 0.5000 1.0000 0.0000
O25_2 O 0.34944(12) 0.6550(3) 0.3505(2)
N4_2 N 0.30401(13) 0.9957(3) 0.9573(2)
C20_2 C 0.30380(15) 0.9006(3) 0.9546(3)
H13_2 H 0.3240 0.8697 0.9329
C21_2 C 0.27542(15) 0.8436(3) 0.9819(3)
H14_2 H 0.2768 0.7759 0.9798
C48_2 C 0.39538(17) 0.9819(4) 0.8688(3)
H34_2 H 0.3854 0.9247 0.8407
H36_2 H 0.4084 0.9634 0.9185
H43_2 H 0.4451 0.6901 0.9944
Cu7_4 Cu 0.5000 1.0000 1.0000
O62 O 0.54267(11) 0.9719(3) 0.9478(2)
N17_2 N 0.69599(13) 0.0043(3) 0.0427(2)
C84_2 C 0.69620(15) 0.0994(3) 0.0454(3)
H61_2 H 0.6760 0.1303 0.0671
C85_2 C 0.72458(15) 0.1564(3) 0.0181(3)
H62_2 H 0.7232 0.2241 0.0202
C112_2 C 0.60462(17) 0.0181(4) 0.1312(3)
H82_2 H 0.6146 0.0753 0.1593
H84_2 H 0.5916 0.0366 0.0815
H91_2 H 0.5549 0.3099 0.0056
C83_2 C 0.75543(13) 0.0171(3) 0.9860(2)
N18_2 N 0.75388(11) 0.1130(2) 0.9888(2)
O38_2 O 0.81237(11) 0.0406(2) 0.9270(2)
Cu11_2 Cu 0.796047(18) 0.17492(4) 0.93741(4)
N19_2 N 0.84667(12) 0.2206(3) 0.9022(2)
C87_2 C 0.84647(18) 0.2219(4) 0.8306(3)
H63_2 H 0.8243 0.1914 0.7987
C88_2 C 0.87975(15) 0.2596(4) 0.9476(3)
H64_2 H 0.8813 0.2547 0.9986
C89_2 C 0.91169(16) 0.3066(4) 0.9219(3)
H65_2 H 0.9344 0.3332 0.9550
C90_2 C 0.87707(16) 0.2657(4) 0.8008(3)
H66_2 H 0.8761 0.2632 0.7498
C91_2 C 0.90937(15) 0.3137(4) 0.8464(3)
C92_2 C 0.9692(2) 0.2177(5) 0.7711(5)
H67_2 H 0.9968 0.1967 0.7657
H68_2 H 0.9623 0.1884 0.8148
H69_2 H 0.9488 0.1982 0.7282
C93_2 C 0.96873(17) 0.3255(4) 0.7783(4)
C94_2 C 0.94072(14) 0.3724(4) 0.8162(3)
C95_2 C 0.93916(15) 0.4736(4) 0.8229(3)
C96_2 C 0.90638(18) 0.5241(4) 0.8565(4)
H70_2 H 0.9090 0.5934 0.8514
H71_2 H 0.8788 0.5037 0.8315
H72_2 H 0.9102 0.5075 0.9083
O39_2 O 0.96459(11) 0.5322(3) 0.8003(2)
O40_2 O 0.99503(11) 0.3696(3) 0.7475(2)
O45_2 O 0.77589(11) 0.3070(2) 0.9439(2)
O53_2 O 0.75004(12) 0.1842(2) 0.8282(2)
C113_2 C 0.72556(14) 0.1445(3) 0.7787(3)
O54_2 O 0.69928(11) 0.1884(2) 0.73090(19)
O55_2 O 0.78658(11) 0.1037(2) 0.69632(19)
C114_2 C 0.78690(14) 0.0173(3) 0.7126(3)
C116_2 C 0.72461(14) 0.0355(3) 0.7777(2)
N28_2 N 0.64880(13) 0.2804(3) 0.8149(2)
C119_2 C 0.65305(16) 0.2871(4) 0.8871(3)
H87_2 H 0.6756 0.3225 0.9135
C120_2 C 0.62548(17) 0.2438(4) 0.9253(3)
H88_2 H 0.6296 0.2501 0.9767
C121_2 C 0.61525(17) 0.2350(4) 0.7777(3)
H89_2 H 0.6110 0.2329 0.7261
C122_2 C 0.58627(18) 0.1905(4) 0.8129(3)
H90_2 H 0.5628 0.1598 0.7850
C123_2 C 0.59185(15) 0.1914(4) 0.8876(3)
C124_2 C 0.5333(2) 0.2866(5) 0.9658(5)
H92_2 H 0.5375 0.3140 0.9197
H93_2 H 0.5061 0.3059 0.9747
C125_2 C 0.53531(17) 0.1789(4) 0.9621(4)
C126_2 C 0.56356(16) 0.1321(4) 0.9246(3)
C127_2 C 0.56656(15) 0.0304(4) 0.9211(3)
H95_2 H 0.6253 0.0189 0.8991
O63_2 O 0.65056(12) 0.3450(3) 0.6495(2)
Cu1_5 Cu 1.0000 0.5000 0.0000
O27_2 O 0.99015(12) 0.6347(3) 0.0036(2)
O28_2 O 0.95733(11) 0.4717(3) 0.0526(2)
C65_2 C 0.90099(17) 0.4814(4) 0.1126(3)
H49_2 H 0.9014 0.4126 0.1031
H50_2 H 0.9067 0.4926 0.1653
H51_2 H 0.8737 0.5073 0.0912
C66_2 C 0.93378(15) 0.5307(4) 0.0790(3)
C67_2 C 0.93654(15) 0.6325(4) 0.0740(3)
C68_2 C 0.96455(16) 0.6793(4) 0.0368(3)
C69_2 C 0.9671(2) 0.7867(5) 0.0330(5)
H53_2 H 0.9565 0.8149 0.0737
H54_2 H 0.9959 0.8060 0.0361
C70_2 C 0.90590(15) 0.6927(4) 0.1056(3)
C71_2 C 0.87407(17) 0.7421(5) 0.0598(3)
H55_2 H 0.8731 0.7431 0.0088
C72_2 C 0.90701(16) 0.6979(4) 0.1801(3)
H56_2 H 0.9289 0.6685 0.2134
C73_2 C 0.87552(16) 0.7469(4) 0.2057(3)
H57_2 H 0.8766 0.7503 0.2567
C74_2 C 0.84395(18) 0.7897(5) 0.0883(4)
H58_2 H 0.8229 0.8233 0.0561
N13_2 N 0.84342(13) 0.7898(3) 0.1599(2)
Cu8_2 Cu 0.791912(18) 0.83685(4) 0.19098(4)
O30_2 O 0.80609(11) 0.9719(2) 0.1766(2)
N15_2 N 0.74954(12) 0.8977(3) 0.2417(2)
O33_2 O 0.77215(11) 0.7053(2) 0.2012(2)
O35_2 O 0.74941(11) 0.8182(2) 0.07881(19)
C81_2 C 0.72852(14) 0.8535(3) 0.0224(3)
C82_2 C 0.72689(13) 0.9615(3) 0.0150(2)
Cu16_2 Cu 0.698791(19) 0.67105(4) 0.00730(4)
O42_2 O 0.69542(12) 0.5411(2) 0.0486(2)
N23_2 N 0.65499(12) 0.7169(3) 0.0595(2)
C103_2 C 0.66062(16) 0.7115(4) 0.1332(3)
H75_2 H 0.6838 0.6776 0.1594
C104_2 C 0.62130(15) 0.7614(4) 0.0232(3)
C105_2 C 0.63306(16) 0.7549(4) 0.1716(3)
H77_2 H 0.6374 0.7490 0.2230
C106_2 C 0.59272(17) 0.8070(4) 0.0596(3)
H78_2 H 0.5690 0.8376 0.0322
C107_2 C 0.59932(15) 0.8068(4) 0.1345(3)
C108_2 C 0.5442(2) 0.7102(4) 0.2191(4)
H79_2 H 0.5179 0.6897 0.2310
H80_2 H 0.5473 0.6814 0.1728
H81_2 H 0.5670 0.6897 0.2577
C109_2 C 0.54464(17) 0.8180(4) 0.2125(3)
C110_2 C 0.57106(14) 0.8654(4) 0.1725(3)
C111_2 C 0.57309(14) 0.9671(4) 0.1671(3)
H83_2 H 0.6279 0.9751 0.1296
Cu1_6 Cu 1.0000 0.5000 1.0000
H52_2 H 0.9505 0.8091 0.9869
O36_2 O 0.70538(10) 0.8048(2) 0.97222(18)
C86_2 C 0.78964(14) 0.9774(3) 0.9500(2)
O37_2 O 0.79315(10) 0.8892(2) 0.94372(18)
N21_2 N 0.75005(12) 0.6149(3) 0.9796(2)
H76_2 H 0.6164 0.7625 0.9715
C115_2 C 0.75474(14) 0.9789(3) 0.7535(2)
N27_2 N 0.69508(12) 0.9946(3) 0.8101(2)
C117_2 C 0.72751(15) 0.8431(3) 0.7972(3)
H85_2 H 0.7278 0.7759 0.8046
C118_2 C 0.69691(14) 0.8996(3) 0.8200(3)
H86_2 H 0.6770 0.8695 0.8429
C128_2 C 0.59979(18) 0.9812(4) 0.8885(3)
H94_2 H 0.5905 0.9757 0.8357
H96_2 H 0.6050 0.9173 0.9098
O64_2 O 0.65625(12) 0.6466(3) 0.8950(2)
C34 C 0.74554(14) 0.0212(3) 0.5038(3)
C35 C 0.72260(15) 0.1569(3) 0.5546(3)
H25 H 0.7253 0.2228 0.5665
C36 C 0.68990(15) 0.1040(3) 0.5728(3)
H26 H 0.6706 0.1355 0.5963
N8 N 0.68501(13) 0.0106(3) 0.5582(2)
C11_2 C 0.71825(15) 0.5345(3) 0.3040(3)
O4_2 O 0.71579(12) 0.6226(2) 0.3113(2)
C12_2 C 0.75198(14) 0.4936(3) 0.2677(2)
C13_2 C 0.77777(16) 0.3545(3) 0.2246(3)
H11_2 H 0.7770 0.2871 0.2182
C14_2 C 0.80753(17) 0.4095(4) 0.1989(3)
H12_2 H 0.8261 0.3782 0.1737
N3_2 N 0.81080(14) 0.5041(3) 0.2085(2)
C15_2 C 0.78312(14) 0.5468(3) 0.2432(2)
C16_2 C 0.79007(16) 0.6536(3) 0.2543(3)
O6_2 O 0.81455(13) 0.6819(3) 0.3093(2)
O14 O 0.77704(12) 0.8939(2) 0.4483(2)
C33 C 0.77798(15) 0.9800(3) 0.4647(3)
C37 C 0.71307(14) 0.9682(3) 0.5229(2)
C38 C 0.70511(15) 0.8622(3) 0.5071(3)
O16 O 0.67912(13) 0.8385(3) 0.4520(2)
C75_2 C 0.78175(15) 0.0345(3) 0.1960(3)
O31_2 O 0.78421(12) 0.1226(2) 0.1887(2)
N16_2 N 0.68920(14) 0.0041(3) 0.2915(2)
C79_2 C 0.71688(14) 0.0468(3) 0.2568(2)
C80_2 C 0.70993(16) 0.1536(3) 0.2457(3)
O34_2 O 0.68545(13) 0.1819(3) 0.1907(2)
C76_2 C 0.74802(14) 0.9936(3) 0.2323(2)
C77_2 C 0.72223(16) 0.8545(3) 0.2754(3)
H59_2 H 0.7230 0.7871 0.2818
C78_2 C 0.69247(17) 0.9095(4) 0.3011(3)
H60_2 H 0.6739 0.8782 0.3263
O14_2 O 0.72296(12) 0.3939(2) 0.0517(2)
C33_2 C 0.72202(15) 0.4800(3) 0.0353(3)
O16_2 O 0.82088(13) 0.3385(3) 0.0480(2)
C34_2 C 0.75446(14) 0.5212(3) 0.9962(3)
C35_2 C 0.77740(15) 0.6569(3) 0.9454(3)
H25_2 H 0.7747 0.7228 0.9335
C36_2 C 0.81010(15) 0.6040(3) 0.9272(3)
H26_2 H 0.8294 0.6355 0.9037
N8_2 N 0.81499(13) 0.5106(3) 0.9418(2)
C37_2 C 0.78693(14) 0.4682(3) 0.9771(2)
C38_2 C 0.79489(15) 0.3622(3) 0.9929(3)
loop_
_geom_bond_atom_site_label_1
_geom_bond_atom_site_label_2
_geom_bond_site_symmetry_1
_geom_bond_site_symmetry_2
H70 C96 1_555 1_555
H71 C96 1_555 1_555
H72 C96 1_555 1_555
Cu13 O39 1_555 1_555
O49 Cu13 1_555 1_555
O2 Cu1 1_555 1_555
C1 H1 1_555 1_555
H2 C1 1_555 1_555
O27 Cu1 1_555 1_555
C67 C66 1_555 1_555
C68 O27 1_555 1_555
C69 C68 1_555 1_555
H52 C69 1_555 1_555
H53 C69 1_555 1_555
H54 C69 1_555 1_555
C70 C67 1_555 1_555
C71 C70 1_555 1_555
H55 C71 1_555 1_555
C72 C70 1_555 1_555
H56 C72 1_555 1_555
C73 C72 1_555 1_555
H57 C73 1_555 1_555
C74 C71 1_555 1_555
H58 C74 1_555 1_555
N13 C73 1_555 1_555
Cu8 N13 1_555 1_555
Cu10 O29 1_555 1_555
O30 Cu8 1_555 1_555
N14 Cu10 1_555 1_555
N15 Cu8 1_555 1_555
C77 N14 1_555 1_555
H59 C77 1_555 1_555
C78 C77 1_555 1_555
H60 C78 1_555 1_555
O33 Cu8 1_555 1_555
O35 Cu8 1_555 1_555
O36 C81 1_555 1_555
C81 O35 1_555 1_555
C82 C81 1_555 1_555
C83 C82 1_555 1_555
N17 C82 1_555 1_555
C84 N17 1_555 1_555
H61 C84 1_555 1_555
C85 C84 1_555 1_555
H62 C85 1_555 1_555
N18 C83 1_555 1_555
C86 C83 1_555 1_555
O37 C86 1_555 1_555
O38 C86 1_555 1_555
Cu11 N18 1_555 1_555
Cu12 O44 1_555 1_555
N19 Cu11 1_555 1_555
C87 N19 1_555 1_555
H63 C87 1_555 1_555
C88 N19 1_555 1_555
H64 C88 1_555 1_555
C89 C88 1_555 1_555
H65 C89 1_555 1_555
C90 C87 1_555 1_555
H66 C90 1_555 1_555
C91 C89 1_555 1_555
C92 H67 1_555 1_555
H68 C92 1_555 1_555
H69 C92 1_555 1_555
C93 C92 1_555 1_555
C94 C91 1_555 1_555
C95 C94 1_555 1_555
O40 C93 1_555 1_555
Cu15 O47 1_555 1_555
Cu16 O36 1_555 1_555
O42 Cu16 1_555 1_555
O43 C97 1_555 1_555
N21 Cu16 1_555 1_555
C102 C101 1_555 1_555
O44 C102 1_555 1_555
O45 Cu11 1_555 1_555
O46 C102 1_555 1_555
N23 Cu16 1_555 1_555
C103 N23 1_555 1_555
H75 C103 1_555 1_555
C104 N23 1_555 1_555
H76 C104 1_555 1_555
C105 C103 1_555 1_555
H77 C105 1_555 1_555
C106 C104 1_555 1_555
H78 C106 1_555 1_555
C107 C105 1_555 1_555
C108 H79 1_555 1_555
H80 C108 1_555 1_555
H81 C108 1_555 1_555
C109 C108 1_555 1_555
C110 C107 1_555 1_555
C111 C110 1_555 1_555
C112 C111 1_555 1_555
H82 C112 1_555 1_555
H83 C112 1_555 1_555
H84 C112 1_555 1_555
O47 C109 1_555 1_555
O50 Cu15 1_555 1_555
O53 Cu11 1_555 1_555
C113 O53 1_555 1_555
O54 C113 1_555 1_555
O55 C114 1_555 1_555
O56 C114 1_555 1_555
O58 Cu18 1_555 1_555
C114 C115 1_555 1_555
C115 C116 1_555 1_555
C116 C113 1_555 1_555
N24 C115 1_555 1_555
N26 Cu18 1_555 1_555
N27 C116 1_555 1_555
C117 N24 1_555 1_555
H85 C117 1_555 1_555
C118 N27 1_555 1_555
H86 C118 1_555 1_555
Cu18 O54 1_555 1_555
Cu20 O56 1_555 1_555
N28 Cu18 1_555 1_555
C119 N28 1_555 1_555
H87 C119 1_555 1_555
C120 C119 1_555 1_555
H88 C120 1_555 1_555
C121 N28 1_555 1_555
H89 C121 1_555 1_555
C122 C121 1_555 1_555
H90 C122 1_555 1_555
C123 C120 1_555 1_555
C124 H91 1_555 1_555
H92 C124 1_555 1_555
H93 C124 1_555 1_555
C125 C124 1_555 1_555
C126 C123 1_555 1_555
C127 C126 1_555 1_555
C128 C127 1_555 1_555
H94 C128 1_555 1_555
H95 C128 1_555 1_555
H96 C128 1_555 1_555
O59 C125 1_555 1_555
O61 C127 1_555 1_555
Cu21_2 O59 1_555 1_555
O63 Cu18 1_555 1_555
O64 Cu16 1_555 1_555
C67 C68 1_555 1_555
C74 N13 1_555 1_555
C76 N14 1_555 1_555
C85 N18 1_555 1_555
O38 Cu11 1_555 1_555
C90 C91 1_555 1_555
C93 C94 1_555 1_555
C106 C107 1_555 1_555
C109 C110 1_555 1_555
C111 O50 1_555 1_555
N24 Cu20 1_555 1_555
C117 C118 1_555 1_555
C122 C123 1_555 1_555
C125 C126 1_555 1_555
O61 Cu21_2 1_555 1_555
Cu1_2 O1 1_555 1_555
O1 C4 1_555 1_555
C3 C2 1_555 1_555
C4 C3 1_555 1_555
C5 C4 1_555 1_555
H4 C5 1_555 1_555
H5 C5 1_555 1_555
H6 C5 1_555 1_555
C6 C3 1_555 1_555
C7 C6 1_555 1_555
H7 C7 1_555 1_555
C8 C6 1_555 1_555
H8 C8 1_555 1_555
C9 C8 1_555 1_555
H9 C9 1_555 1_555
C10 C7 1_555 1_555
H10 C10 1_555 1_555
N1 C9 1_555 1_555
Cu2 N1 1_555 1_555
O3 Cu2 1_555 1_555
C11 O3 1_555 1_555
O4 C11 1_555 1_555
C12 C11 1_555 1_555
N2 Cu2 1_555 1_555
C13 N2 1_555 1_555
H11 C13 1_555 1_555
C14 C13 1_555 1_555
H12 C14 1_555 1_555
N3 C14 1_555 1_555
C15 C12 1_555 1_555
C16 C15 1_555 1_555
O5 C16 1_555 1_555
O6 C16 1_555 1_555
O7 Cu2 1_555 1_555
O8 C17 1_555 1_555
C17 O7 1_555 1_555
C18 C17 1_555 1_555
C19 C18 1_555 1_555
N4 C18 1_555 1_555
C20 N4 1_555 1_555
H13 C20 1_555 1_555
C21 C20 1_555 1_555
H14 C21 1_555 1_555
N5 C19 1_555 1_555
C22 C19 1_555 1_555
O9 C22 1_555 1_555
O10 C22 1_555 1_555
Cu12 N5 1_555 1_555
N6 Cu12 1_555 1_555
C23 N6 1_555 1_555
H15 C23 1_555 1_555
C24 N6 1_555 1_555
H16 C24 1_555 1_555
C25 C24 1_555 1_555
H17 C25 1_555 1_555
C26 C23 1_555 1_555
H18 C26 1_555 1_555
C27 C25 1_555 1_555
C28 H19 1_555 1_555
H20 C28 1_555 1_555
H21 C28 1_555 1_555
C29 C28 1_555 1_555
C30 C27 1_555 1_555
C31 C30 1_555 1_555
O12 C29 1_555 1_555
Cu5 O8 1_555 1_555
N9 Cu5 1_555 1_555
C39 N9 1_555 1_555
H27 C39 1_555 1_555
C40 N9 1_555 1_555
H28 C40 1_555 1_555
C41 C39 1_555 1_555
H29 C41 1_555 1_555
C42 C40 1_555 1_555
H30 C42 1_555 1_555
C43 C41 1_555 1_555
C44 H31 1_555 1_555
H32 C44 1_555 1_555
H33 C44 1_555 1_555
C45 C44 1_555 1_555
C46 C43 1_555 1_555
C47 C46 1_555 1_555
C48 C47 1_555 1_555
H34 C48 1_555 1_555
H35 C48 1_555 1_555
H36 C48 1_555 1_555
O17 C45 1_555 1_555
O18 C47 1_555 1_555
O19 Cu12 1_555 1_555
C49 O19 1_555 1_555
O20 C49 1_555 1_555
O21 C50 1_555 1_555
O22 C50 1_555 1_555
C50 C51 1_555 1_555
C51 C52 1_555 1_555
C52 C49 1_555 1_555
N10 C51 1_555 1_555
N11 C52 1_555 1_555
C53 N10 1_555 1_555
H37 C53 1_555 1_555
C54 N11 1_555 1_555
H38 C54 1_555 1_555
Cu6 O20 1_555 1_555
N12 Cu6 1_555 1_555
C55 N12 1_555 1_555
H39 C55 1_555 1_555
C56 C55 1_555 1_555
H40 C56 1_555 1_555
C57 N12 1_555 1_555
H41 C57 1_555 1_555
C58 C57 1_555 1_555
H42 C58 1_555 1_555
C59 C56 1_555 1_555
C60 H43 1_555 1_555
H44 C60 1_555 1_555
H45 C60 1_555 1_555
C61 C60 1_555 1_555
C62 C59 1_555 1_555
C63 C62 1_555 1_555
C64 C63 1_555 1_555
H46 C64 1_555 1_555
H47 C64 1_555 1_555
H48 C64 1_555 1_555
O23 C61 1_555 1_555
O24 C63 1_555 1_555
Cu21 O23 1_555 1_555
O25 Cu6 1_555 1_555
O26 Cu5 1_555 1_555
O28 Cu1_2 1_555 1_555
C65 H49 1_555 1_555
H50 C65 1_555 1_555
Cu10 O5 1_555 1_555
C75 O31 1_555 1_555
C80 C79 1_555 1_555
O32 Cu2 1_555 1_555
O34 C80 1_555 1_555
Cu14 O17 1_555 1_555
O41 Cu5 1_555 1_555
N20 Cu5 1_555 1_555
C99 N20 1_555 1_555
H73 C99 1_555 1_555
C100 C99 1_555 1_555
H74 C100 1_555 1_555
N22 C100 1_555 1_555
O57 Cu6 1_555 1_555
N25 Cu6 1_555 1_555
Cu19 O22 1_555 1_555
C10 N1 1_555 1_555
C12 N2 1_555 1_555
N3 C15 1_555 1_555
C21 N5 1_555 1_555
O10 Cu12 1_555 1_555
C26 C27 1_555 1_555
C29 C30 1_555 1_555
C42 C43 1_555 1_555
C45 C46 1_555 1_555
O18 Cu14 1_555 1_555
N10 Cu19 1_555 1_555
C53 C54 1_555 1_555
C58 C59 1_555 1_555
C61 C62 1_555 1_555
O24 Cu21 1_555 1_555
N16 C79 1_555 1_555
C80 O32 1_555 1_555
C98 N20 1_555 1_555
H22 C32 1_555 1_555
H23 C32 1_555 1_555
H24 C32 1_555 1_555
Cu4 O11 1_555 1_555
O48 Cu4 1_555 1_555
O9_2 C22_2 1_555 1_555
N25 C51_2 1_555 1_555
C53_2 N25 1_555 1_555
H37_2 C53_2 1_555 1_555
C54_2 N11_2 1_555 1_555
H38_2 C54_2 1_555 1_555
H46_2 C64_2 1_555 1_555
H48_2 C64_2 1_555 1_555
Cu12_2 O44_2 1_555 1_555
C99_2 N20_2 1_555 1_555
H73_2 C99_2 1_555 1_555
C100_2 C99_2 1_555 1_555
H74_2 C100_2 1_555 1_555
N22_2 C100_2 1_555 1_555
C101_2 C98_2 1_555 1_555
C102_2 C101_2 1_555 1_555
O44_2 C102_2 1_555 1_555
C53_2 C54_2 1_555 1_555
O24_2 Cu7 1_555 1_555
C98_2 N20_2 1_555 1_555
N22_2 C101_2 1_555 1_555
Cu1_4 O1_2 1_555 1_555
O1_2 C4_2 1_555 1_555
O2_2 Cu1_4 1_555 1_555
C1_2 H1_2 1_555 1_555
H2_2 C1_2 1_555 1_555
H3_2 C1_2 1_555 1_555
C2_2 O2_2 1_555 1_555
C3_2 C2_2 1_555 1_555
C4_2 C3_2 1_555 1_555
C5_2 C4_2 1_555 1_555
H5_2 C5_2 1_555 1_555
H6_2 C5_2 1_555 1_555
C6_2 C3_2 1_555 1_555
C7_2 C6_2 1_555 1_555
H7_2 C7_2 1_555 1_555
C8_2 C6_2 1_555 1_555
H8_2 C8_2 1_555 1_555
C9_2 C8_2 1_555 1_555
H9_2 C9_2 1_555 1_555
C10_2 C7_2 1_555 1_555
H10_2 C10_2 1_555 1_555
N1_2 C9_2 1_555 1_555
Cu10 N1_2 1_555 1_555
O7_2 Cu10 1_555 1_555
C17_2 O7_2 1_555 1_555
C18_2 C17_2 1_555 1_555
N9_2 Cu5_2 1_555 1_555
C39_2 N9_2 1_555 1_555
H27_2 C39_2 1_555 1_555
C40_2 N9_2 1_555 1_555
C41_2 C39_2 1_555 1_555
H29_2 C41_2 1_555 1_555
C42_2 C40_2 1_555 1_555
H30_2 C42_2 1_555 1_555
C43_2 C41_2 1_555 1_555
C44_2 H31_2 1_555 1_555
H32_2 C44_2 1_555 1_555
H33_2 C44_2 1_555 1_555
C45_2 C44_2 1_555 1_555
C46_2 C43_2 1_555 1_555
C47_2 C46_2 1_555 1_555
O49 C45_2 1_555 1_555
O41_2 Cu5_2 1_555 1_555
O43_2 C97_2 1_555 1_555
C97_2 O41_2 1_555 1_555
O60 Cu7_2 1_555 1_555
C1_2 C2_2 1_555 1_555
C10_2 N1_2 1_555 1_555
C42_2 C43_2 1_555 1_555
C45_2 C46_2 1_555 1_555
N5_2 C19_2 1_555 1_555
Cu12_2 N5_2 1_555 1_555
N6_2 Cu12_2 1_555 1_555
C23_2 N6_2 1_555 1_555
H15_2 C23_2 1_555 1_555
C24_2 N6_2 1_555 1_555
H16_2 C24_2 1_555 1_555
C25_2 C24_2 1_555 1_555
H17_2 C25_2 1_555 1_555
C26_2 C23_2 1_555 1_555
H18_2 C26_2 1_555 1_555
C27_2 C25_2 1_555 1_555
C28_2 H19_2 1_555 1_555
H20_2 C28_2 1_555 1_555
H21_2 C28_2 1_555 1_555
C29_2 C28_2 1_555 1_555
C30_2 C27_2 1_555 1_555
C31_2 C30_2 1_555 1_555
C32_2 C31_2 1_555 1_555
H22_2 C32_2 1_555 1_555
H23_2 C32_2 1_555 1_555
H24_2 C32_2 1_555 1_555
O11_2 C31_2 1_555 1_555
O12_2 C29_2 1_555 1_555
O19_2 Cu12_2 1_555 1_555
C49_2 O19_2 1_555 1_555
O20_2 C49_2 1_555 1_555
O21_2 C50_2 1_555 1_555
C52_2 C49_2 1_555 1_555
Cu19 O20_2 1_555 1_555
N12_2 Cu19 1_555 1_555
C55_2 N12_2 1_555 1_555
H39_2 C55_2 1_555 1_555
C56_2 C55_2 1_555 1_555
H40_2 C56_2 1_555 1_555
C57_2 N12_2 1_555 1_555
H41_2 C57_2 1_555 1_555
C58_2 C57_2 1_555 1_555
H42_2 C58_2 1_555 1_555
C59_2 C56_2 1_555 1_555
H44_2 C60_2 1_555 1_555
H45_2 C60_2 1_555 1_555
C61_2 C60_2 1_555 1_555
C62_2 C59_2 1_555 1_555
C63_2 C62_2 1_555 1_555
O23_2 C61_2 1_555 1_555
Cu7_3 O23_2 1_555 1_555
O25_2 Cu19 1_555 1_555
O10_2 Cu12_2 1_555 1_555
C26_2 C27_2 1_555 1_555
C29_2 C30_2 1_555 1_555
C58_2 C59_2 1_555 1_555
C61_2 C62_2 1_555 1_555
C20_2 N4_2 1_555 1_555
H13_2 C20_2 1_555 1_555
C21_2 C20_2 1_555 1_555
H14_2 C21_2 1_555 1_555
H34_2 C48_2 1_555 1_555
H36_2 C48_2 1_555 1_555
O62 Cu7_4 1_555 1_555
C84_2 N17_2 1_555 1_555
H61_2 C84_2 1_555 1_555
C85_2 C84_2 1_555 1_555
H62_2 C85_2 1_555 1_555
H82_2 C112_2 1_555 1_555
H84_2 C112_2 1_555 1_555
N18_2 C83_2 1_555 1_555
Cu11_2 N18_2 1_555 1_555
N19_2 Cu11_2 1_555 1_555
C87_2 N19_2 1_555 1_555
H63_2 C87_2 1_555 1_555
C88_2 N19_2 1_555 1_555
H64_2 C88_2 1_555 1_555
C89_2 C88_2 1_555 1_555
H65_2 C89_2 1_555 1_555
C90_2 C87_2 1_555 1_555
H66_2 C90_2 1_555 1_555
C91_2 C89_2 1_555 1_555
C92_2 H67_2 1_555 1_555
H68_2 C92_2 1_555 1_555
H69_2 C92_2 1_555 1_555
C93_2 C92_2 1_555 1_555
C94_2 C91_2 1_555 1_555
C95_2 C94_2 1_555 1_555
C96_2 C95_2 1_555 1_555
H70_2 C96_2 1_555 1_555
H71_2 C96_2 1_555 1_555
H72_2 C96_2 1_555 1_555
O39_2 C95_2 1_555 1_555
O40_2 C93_2 1_555 1_555
O45_2 Cu11_2 1_555 1_555
O53_2 Cu11_2 1_555 1_555
C113_2 O53_2 1_555 1_555
O54_2 C113_2 1_555 1_555
O55_2 C114_2 1_555 1_555
C116_2 C113_2 1_555 1_555
Cu20 O54_2 1_555 1_555
N28_2 Cu20 1_555 1_555
C119_2 N28_2 1_555 1_555
H87_2 C119_2 1_555 1_555
C120_2 C119_2 1_555 1_555
H88_2 C120_2 1_555 1_555
C121_2 N28_2 1_555 1_555
H89_2 C121_2 1_555 1_555
C122_2 C121_2 1_555 1_555
H90_2 C122_2 1_555 1_555
C123_2 C120_2 1_555 1_555
H92_2 C124_2 1_555 1_555
H93_2 C124_2 1_555 1_555
C125_2 C124_2 1_555 1_555
C126_2 C123_2 1_555 1_555
C127_2 C126_2 1_555 1_555
O60 C125_2 1_555 1_555
O63_2 Cu20 1_555 1_555
O38_2 Cu11_2 1_555 1_555
C90_2 C91_2 1_555 1_555
C93_2 C94_2 1_555 1_555
C122_2 C123_2 1_555 1_555
C125_2 C126_2 1_555 1_555
O27_2 Cu1_5 1_555 1_555
O28_2 Cu1_5 1_555 1_555
C65_2 H49_2 1_555 1_555
H50_2 C65_2 1_555 1_555
H51_2 C65_2 1_555 1_555
C66_2 O28_2 1_555 1_555
C67_2 C66_2 1_555 1_555
C68_2 O27_2 1_555 1_555
C69_2 C68_2 1_555 1_555
H53_2 C69_2 1_555 1_555
H54_2 C69_2 1_555 1_555
C70_2 C67_2 1_555 1_555
C71_2 C70_2 1_555 1_555
H55_2 C71_2 1_555 1_555
C72_2 C70_2 1_555 1_555
H56_2 C72_2 1_555 1_555
C73_2 C72_2 1_555 1_555
H57_2 C73_2 1_555 1_555
C74_2 C71_2 1_555 1_555
H58_2 C74_2 1_555 1_555
N13_2 C73_2 1_555 1_555
Cu8_2 N13_2 1_555 1_555
O30_2 Cu8_2 1_555 1_555
N15_2 Cu8_2 1_555 1_555
O33_2 Cu8_2 1_555 1_555
O35_2 Cu8_2 1_555 1_555
C81_2 O35_2 1_555 1_555
C82_2 C81_2 1_555 1_555
O42_2 Cu16_2 1_555 1_555
N23_2 Cu16_2 1_555 1_555
C103_2 N23_2 1_555 1_555
H75_2 C103_2 1_555 1_555
C104_2 N23_2 1_555 1_555
C105_2 C103_2 1_555 1_555
H77_2 C105_2 1_555 1_555
C106_2 C104_2 1_555 1_555
H78_2 C106_2 1_555 1_555
C107_2 C105_2 1_555 1_555
C108_2 H79_2 1_555 1_555
H80_2 C108_2 1_555 1_555
H81_2 C108_2 1_555 1_555
C109_2 C108_2 1_555 1_555
C110_2 C107_2 1_555 1_555
C111_2 C110_2 1_555 1_555
O48 C109_2 1_555 1_555
C65_2 C66_2 1_555 1_555
C67_2 C68_2 1_555 1_555
C74_2 N13_2 1_555 1_555
C106_2 C107_2 1_555 1_555
C109_2 C110_2 1_555 1_555
O37_2 C86_2 1_555 1_555
N26 C115_2 1_555 1_555
C117_2 N26 1_555 1_555
H85_2 C117_2 1_555 1_555
C118_2 N27_2 1_555 1_555
H86_2 C118_2 1_555 1_555
H94_2 C128_2 1_555 1_555
H96_2 C128_2 1_555 1_555
C117_2 C118_2 1_555 1_555
C34 N21 1_555 1_555
N21 C35 1_555 1_555
C35 H25 1_555 1_555
C36 C35 1_555 1_555
H26 C36 1_555 1_555
N8 C36 1_555 1_555
C11_2 O30 1_555 1_555
O4_2 C11_2 1_555 1_555
C12_2 C11_2 1_555 1_555
C13_2 N15 1_555 1_555
H11_2 C13_2 1_555 1_555
C14_2 C13_2 1_555 1_555
H12_2 C14_2 1_555 1_555
N3_2 C14_2 1_555 1_555
C15_2 C12_2 1_555 1_555
C16_2 C15_2 1_555 1_555
O33_2 C16_2 1_555 1_555
O6_2 C16_2 1_555 1_555
O14 C33 1_555 1_555
C38 C37 1_555 1_555
O16 C38 1_555 1_555
C75_2 O31_2 1_555 1_555
C80_2 C79_2 1_555 1_555
O34_2 C80_2 1_555 1_555
C12_2 N15 1_555 1_555
N3_2 C15_2 1_555 1_555
C38 O45 1_555 1_555
N16_2 C79_2 1_555 1_555
C80_2 O33 1_555 1_555
C77_2 N15_2 1_555 1_555
H59_2 C77_2 1_555 1_555
C78_2 C77_2 1_555 1_555
H60_2 C78_2 1_555 1_555
C76_2 N15_2 1_555 1_555
O42_2 C33_2 1_555 1_555
O14_2 C33_2 1_555 1_555
C34_2 N21_2 1_555 1_555
N21_2 C35_2 1_555 1_555
C35_2 H25_2 1_555 1_555
C36_2 C35_2 1_555 1_555
H26_2 C36_2 1_555 1_555
N8_2 C36_2 1_555 1_555
C37_2 C34_2 1_555 1_555
C38_2 C37_2 1_555 1_555
N8_2 C37_2 1_555 1_555
C38_2 O45_2 1_555 1_555

#END
