
###############################################################################
#
# This file contains modified crystal structure data generated from the
# MOF subset of the Cambridge Structural Database (CSD) v543 
# hosted by the Cambridge Crystallographic Data Centre (CCDC).
#
# This work is licensed under the Creative Commons
# Attribution-NonCommercial-ShareAlike 4.0 International License.
# To view a copy of this license, visit
# http://creativecommons.org/licenses/by-nc-sa/4.0/
# or send a letter to
# Creative Commons, PO Box 1866, Mountain View, CA 94042, USA.
#
# CIF created using the CSD Python API on 29 September 2022
# The structure has been converted into the P1 space group
# The structure has a 3D framework
# The original CSD entry GUXQAR is in the triclinic crystal system
# The framework has been calculated to contain at least 10.0% void space
# The void calculation uses a probe of radius 1.32A, grid spacing 0.4
# H atom positions have been added when not included in the experimental data
#
###############################################################################

data_GUXQAR
_chemical_formula_moiety         '(C10 H6 O10 V3)n'
_symmetry_cell_setting           triclinic
_symmetry_space_group_name_H-M   'P 1'
_symmetry_Int_Tables_number      1
_space_group_name_Hall           'P 1'
loop_
_symmetry_equiv_pos_site_id
_symmetry_equiv_pos_as_xyz
1 x,y,z
_cell_length_a                   6.3758(5)
_cell_length_b                   6.8840(5)
_cell_length_c                   9.0254(7)
_cell_angle_alpha                69.010(2)
_cell_angle_beta                 85.197(2)
_cell_angle_gamma                79.452(2)
_cell_volume                     363.527
loop_
_atom_site_label
_atom_site_type_symbol
_atom_site_fract_x
_atom_site_fract_y
_atom_site_fract_z
V9 V -0.0000 0.0000 0.5000
V1 V -0.0000 0.5000 0.5000
O10 O 0.0107(5) 0.7989(4) 0.3924(3)
H4 H 0.0657(93) 0.8374(95) 0.3166(69)
O11 O 0.1746(4) 0.4887(4) 0.6848(3)
O12 O 0.2683(4) 0.4221(4) 0.3856(3)
O15 O 0.1933(4) 0.1573(4) 0.3209(3)
V9_2 V -0.0000 1.0000 0.5000
O17 O 0.2520(4) 0.8130(4) 0.6310(3)
V9_3 V 1.0000 0.0000 0.5000
V1_2 V 1.0000 0.5000 0.5000
O1 O 0.9893(5) 0.2011(4) 0.6076(3)
O3 O 0.8254(4) 0.5113(4) 0.3152(3)
O4 O 0.7480(4) 0.1870(4) 0.3690(3)
C1 C 0.6039(6) 0.4561(6) 0.1414(4)
C2 C 0.7323(6) 0.3812(6) 0.2887(4)
C3 C 0.4060(6) 0.3936(6) 0.1443(4)
C4 C 0.2826(6) 0.3141(6) 0.2969(4)
C5 C 0.3055(6) 0.4359(6) 0.0034(4)
H1 H 0.1756(6) 0.3914(6) 0.0057(4)
H2 H 0.9343(93) 0.1626(95) 0.6834(69)
O13 O 0.7317(4) 0.5779(4) 0.6144(3)
V9_4 V 1.0000 1.0000 0.5000
C6 C 0.6945(6) 0.5641(6) 0.9966(4)
C7 C 0.5940(6) 0.6064(6) 0.8557(4)
C8 C 0.3961(6) 0.5439(6) 0.8586(4)
C9 C 0.2677(6) 0.6188(6) 0.7113(4)
C10 C 0.7174(6) 0.6859(6) 0.7031(4)
O8 O 0.8067(4) 0.8427(4) 0.6791(3)
H3 H 0.8244(6) 0.6086(6) 0.9943(4)
H6 H 0.863435 0.784325 0.375153
H6_2 H 0.136565 0.215675 0.624847
loop_
_geom_bond_atom_site_label_1
_geom_bond_atom_site_label_2
_geom_bond_site_symmetry_1
_geom_bond_site_symmetry_2
O10 V1 1_555 1_555
H4 O10 1_555 1_555
O11 V1 1_555 1_555
O12 V1 1_555 1_555
O15 V9 1_555 1_555
V9_2 O10 1_555 1_555
O17 V9_2 1_555 1_555
V1_2 O1 1_555 1_555
V9_3 O1 1_555 1_555
O1 H2 1_555 1_555
O15 C4 1_555 1_555
O3 V1_2 1_555 1_555
O4 V9_3 1_555 1_555
O12 C4 1_555 1_555
C1 C2 1_555 1_555
C2 O3 1_555 1_555
C3 C1 1_555 1_555
C4 C3 1_555 1_555
C5 C3 1_555 1_555
H1 C5 1_555 1_555
O13 V1_2 1_555 1_555
O4 C2 1_555 1_555
C7 C6 1_555 1_555
C9 C8 1_555 1_555
O11 C9 1_555 1_555
O17 C9 1_555 1_555
C10 C7 1_555 1_555
O8 C10 1_555 1_555
O13 C10 1_555 1_555
H3 C6 1_555 1_555
V9_4 O8 1_555 1_555
C7 C8 1_555 1_555

#END
