
###############################################################################
#
# This file contains modified crystal structure data generated from the
# MOF subset of the Cambridge Structural Database (CSD) v543 
# hosted by the Cambridge Crystallographic Data Centre (CCDC).
#
# This work is licensed under the Creative Commons
# Attribution-NonCommercial-ShareAlike 4.0 International License.
# To view a copy of this license, visit
# http://creativecommons.org/licenses/by-nc-sa/4.0/
# or send a letter to
# Creative Commons, PO Box 1866, Mountain View, CA 94042, USA.
#
# CIF created using the CSD Python API on 29 September 2022
# The structure has been converted into the P1 space group
# The structure has a 3D framework
# The original CSD entry GUXQUM is in the monoclinic crystal system
# The original CSD entry GUXQUM is in a Sohncke space group
# The framework has been calculated to contain at least 10.0% void space
# The void calculation uses a probe of radius 1.32A, grid spacing 0.4
# The framework is charged, counterions have been retained in the structure
#
###############################################################################

data_GUXQUM
_chemical_formula_moiety         '(C90 H42 O18 Zn4 4-)n'
_symmetry_cell_setting           triclinic
_symmetry_space_group_name_H-M   'P 1'
_symmetry_Int_Tables_number      1
_space_group_name_Hall           'P 1'
loop_
_symmetry_equiv_pos_site_id
_symmetry_equiv_pos_as_xyz
1 x,y,z
_cell_length_a                   16.783(6)
_cell_length_b                   28.062(11)
_cell_length_c                   13.894(5)
_cell_angle_alpha                90
_cell_angle_beta                 96.420(7)
_cell_angle_gamma                90
_cell_volume                     6502.55
loop_
_atom_site_label
_atom_site_type_symbol
_atom_site_fract_x
_atom_site_fract_y
_atom_site_fract_z
Zn5 Zn 0.00859(5) 0.38144(4) 0.11867(5)
O9 O 0.0777(3) 0.3413(2) 0.9401(4)
O12 O 0.0187(3) 0.44678(19) 0.9264(4)
C1 C 0.1269(5) 0.3444(3) 0.0132(6)
C2 C 0.2059(5) 0.3214(3) 0.0097(5)
C3 C 0.2739(5) 0.3326(3) 0.0741(5)
H1 H 0.2698 0.3564 0.1198
C4 C 0.3464(5) 0.3098(3) 0.0721(6)
H2 H 0.3899 0.3178 0.1167
C5 C 0.3542(5) 0.2750(3) 0.0038(6)
C8 C 0.4291(4) 0.2487(3) 0.0022(6)
C9 C 0.5000 0.2731(4) 0.0000
H5 H 0.5000 0.3063 0.0000
C10 C 0.4304(4) 0.1994(2) 0.0021(5)
H6 H 0.3826 0.1827 0.0035
C11 C 0.5000 0.1745(3) 0.0000
C12 C 0.5000 0.1199(3) 0.0000
C13 C 0.4653(4) 0.0956(2) 0.0718(5)
H7 H 0.4399 0.1121 0.1177
C14 C 0.4693(5) 0.0461(3) 0.0739(6)
H8 H 0.4513 0.0296 0.1253
C15 C 0.5000 0.0210(4) 0.0000
C17 C 0.0102(5) 0.3533(5) 0.2934(5)
C18 C 0.0055(6) 0.3531(4) 0.4011(5)
C19 C 0.0004(6) 0.3951(3) 0.4498(5)
C20 C 0.0040(6) 0.3123(3) 0.4513(3)
H10 H 0.0086 0.2834 0.4195
O1 O 0.1147(3) 0.3669(2) 0.0862(3)
O4 O 0.0027(3) 0.3923(3) 0.2531(3)
O5 O 0.0157(4) 0.3170(3) 0.2497(4)
C26 C 0.7108(5) 0.2619(3) 0.0611(7)
H13 H 0.7058 0.2379 0.1061
C27 C 0.7848(5) 0.2855(3) 0.0583(5)
H14 H 0.8283 0.2770 0.1024
H18 H 0.0026 0.4238 0.5840
O7 O 0.9223(3) 0.3413(2) 0.0599(4)
C6 C 0.2892(5) 0.2619(3) 0.9389(7)
H3 H 0.2942 0.2379 0.8939
C7 C 0.2152(5) 0.2855(3) 0.9417(5)
H4 H 0.1717 0.2770 0.8976
C9_2 C 0.5000 0.2731(4) 1.0000
H5_2 H 0.5000 0.3063 1.0000
C11_2 C 0.5000 0.1745(3) 1.0000
C12_2 C 0.5000 0.1199(3) 1.0000
C15_2 C 0.5000 0.0210(4) 1.0000
Zn2 Zn 0.99141(5) 0.38144(4) 0.88133(5)
C21 C 0.8731(5) 0.3444(3) 0.9868(6)
C22 C 0.7941(5) 0.3214(3) 0.9903(5)
C23 C 0.7261(5) 0.3326(3) 0.9259(5)
H11 H 0.7302 0.3564 0.8802
C24 C 0.6536(5) 0.3098(3) 0.9279(6)
H12 H 0.6101 0.3178 0.8833
C25 C 0.6458(5) 0.2750(3) 0.9962(6)
C28 C 0.5709(4) 0.2487(3) 0.9978(6)
C29 C 0.5696(4) 0.1994(2) 0.9979(5)
H15 H 0.6174 0.1827 0.9965
C30 C 0.5347(4) 0.0956(2) 0.9282(5)
H16 H 0.5601 0.1121 0.8823
C31 C 0.5307(5) 0.0461(3) 0.9261(6)
H17 H 0.5487 0.0296 0.8747
O6 O 0.8853(3) 0.3669(2) 0.9138(3)
O14 O 0.9973(3) 0.3923(3) 0.7469(3)
C16 C 0.5000 0.9670(5) 0.0000
O3 O 0.4813(3) 0.94678(19) 0.0736(4)
Zn4 Zn 0.50859(5) 0.88144(4) 0.11867(5)
C16_2 C 0.5000 0.9670(5) 1.0000
Zn6 Zn 0.49141(5) 0.88144(4) 0.88133(5)
O10 O 0.5187(3) 0.94678(19) 0.9264(4)
H9 H 0.9974 0.4238 0.4160
C32 C 0.9898(5) 0.3533(5) 0.7066(5)
C33 C 0.9945(6) 0.3531(4) 0.5989(5)
C34 C 0.9996(6) 0.3951(3) 0.5502(5)
C35 C 0.9960(6) 0.3123(3) 0.5487(3)
H19 H 0.9914 0.2834 0.5805
O11 O 0.9813(3) 0.44678(19) 0.0736(4)
O15 O 0.9843(4) 0.3170(3) 0.7503(4)
C9_3 C -0.0000 0.7731(4) 0.0000
H5_3 H -0.0000 0.8063 0.0000
C11_3 C -0.0000 0.6745(3) 0.0000
C12_3 C 0.0000 0.6199(3) 0.0000
C15_3 C -0.0000 0.5210(4) 0.0000
C16_3 C 0.0000 0.4670(5) 0.0000
C26_2 C 0.2108(5) 0.7619(3) 0.0611(7)
H13_2 H 0.2058 0.7379 0.1061
C27_2 C 0.2848(5) 0.7855(3) 0.0583(5)
H14_2 H 0.3283 0.7770 0.1024
O7_2 O 0.4223(3) 0.8413(2) 0.0599(4)
C9_4 C -0.0000 0.7731(4) 1.0000
H5_4 H -0.0000 0.8063 1.0000
C11_4 C 0.0000 0.6745(3) 1.0000
C12_4 C 0.0000 0.6199(3) 1.0000
C15_4 C 0.0000 0.5210(4) 1.0000
C16_4 C 0.0000 0.4670(5) 1.0000
C21_2 C 0.3731(5) 0.8444(3) 0.9868(6)
C22_2 C 0.2941(5) 0.8214(3) 0.9903(5)
C23_2 C 0.2261(5) 0.8326(3) 0.9259(5)
H11_2 H 0.2302 0.8564 0.8802
C24_2 C 0.1536(5) 0.8098(3) 0.9279(6)
H12_2 H 0.1101 0.8178 0.8833
C25_2 C 0.1458(5) 0.7750(3) 0.9962(6)
C28_2 C 0.0709(4) 0.7487(3) 0.9978(6)
C29_2 C 0.0696(4) 0.6994(2) 0.9979(5)
H15_2 H 0.1174 0.6827 0.9965
C30_2 C 0.0347(4) 0.5956(2) 0.9282(5)
H16_2 H 0.0601 0.6121 0.8823
C31_2 C 0.0307(5) 0.5461(3) 0.9261(6)
H17_2 H 0.0487 0.5296 0.8747
O6_2 O 0.3853(3) 0.8669(2) 0.9138(3)
O9_2 O 0.5777(3) 0.8413(2) 0.9401(4)
O14_2 O 0.4973(3) 0.8923(3) 0.7469(3)
C1_2 C 0.6269(5) 0.8444(3) 0.0132(6)
C2_2 C 0.7059(5) 0.8214(3) 0.0097(5)
C3_2 C 0.7739(5) 0.8326(3) 0.0741(5)
H1_2 H 0.7698 0.8564 0.1198
C4_2 C 0.8464(5) 0.8098(3) 0.0721(6)
H2_2 H 0.8899 0.8178 0.1167
C5_2 C 0.8542(5) 0.7750(3) 0.0038(6)
C8_2 C 0.9291(4) 0.7487(3) 0.0022(6)
C9_5 C 1.0000 0.7731(4) 0.0000
H5_5 H 1.0000 0.8063 0.0000
C10_2 C 0.9304(4) 0.6994(2) 0.0021(5)
H6_2 H 0.8826 0.6827 0.0035
C11_5 C 1.0000 0.6745(3) 0.0000
C12_5 C 1.0000 0.6199(3) 0.0000
C13_2 C 0.9653(4) 0.5956(2) 0.0718(5)
H7_2 H 0.9399 0.6121 0.1177
C14_2 C 0.9693(5) 0.5461(3) 0.0739(6)
H8_2 H 0.9513 0.5296 0.1253
C15_5 C 1.0000 0.5210(4) 0.0000
C16_5 C 1.0000 0.4670(5) 0.0000
C17_2 C 0.5102(5) 0.8533(5) 0.2934(5)
C18_2 C 0.5055(6) 0.8531(4) 0.4011(5)
C19_2 C 0.5004(6) 0.8951(3) 0.4498(5)
H9_2 H 0.4974 0.9238 0.4160
C20_2 C 0.5040(6) 0.8123(3) 0.4513(3)
H10_2 H 0.5086 0.7834 0.4195
O1_2 O 0.6147(3) 0.8669(2) 0.0862(3)
O4_2 O 0.5027(3) 0.8923(3) 0.2531(3)
O5_2 O 0.5157(4) 0.8170(3) 0.2497(4)
C32_2 C 0.4898(5) 0.8533(5) 0.7066(5)
C33_2 C 0.4945(6) 0.8531(4) 0.5989(5)
C34_2 C 0.4996(6) 0.8951(3) 0.5502(5)
H18_2 H 0.5026 0.9238 0.5840
C35_2 C 0.4960(6) 0.8123(3) 0.5487(3)
H19_2 H 0.4914 0.7834 0.5805
O15_2 O 0.4843(4) 0.8170(3) 0.7503(4)
C6_2 C 0.7892(5) 0.7619(3) 0.9389(7)
H3_2 H 0.7942 0.7379 0.8939
C7_2 C 0.7152(5) 0.7855(3) 0.9417(5)
H4_2 H 0.6717 0.7770 0.8976
C9_6 C 1.0000 0.7731(4) 1.0000
H5_6 H 1.0000 0.8063 1.0000
C11_6 C 1.0000 0.6745(3) 1.0000
C12_6 C 1.0000 0.6199(3) 1.0000
C15_6 C 1.0000 0.5210(4) 1.0000
C16_6 C 1.0000 0.4670(5) 1.0000
loop_
_geom_bond_atom_site_label_1
_geom_bond_atom_site_label_2
_geom_bond_site_symmetry_1
_geom_bond_site_symmetry_2
Zn5 O1 1_555 1_555
C1 C2 1_555 1_555
C2 C3 1_555 1_555
C3 H1 1_555 1_555
C4 C3 1_555 1_555
H2 C4 1_555 1_555
C5 C4 1_555 1_555
C8 C5 1_555 1_555
C9 C8 1_555 1_555
H5 C9 1_555 1_555
C10 C8 1_555 1_555
H6 C10 1_555 1_555
C11 C10 1_555 1_555
C12 C11 1_555 1_555
C13 C12 1_555 1_555
H7 C13 1_555 1_555
C14 C13 1_555 1_555
H8 C14 1_555 1_555
C15 C14 1_555 1_555
C17 C18 1_555 1_555
C18 C19 1_555 1_555
C20 C18 1_555 1_555
H10 C20 1_555 1_555
O1 C1 1_555 1_555
O4 Zn5 1_555 1_555
O5 C17 1_555 1_555
H13 C26 1_555 1_555
H14 C27 1_555 1_555
C17 O4 1_555 1_555
C26 C27 1_555 1_555
H3 C6 1_555 1_555
H4 C7 1_555 1_555
H5_2 C9_2 1_555 1_555
C12_2 C11_2 1_555 1_555
Zn2 O6 1_555 1_555
C21 C22 1_555 1_555
C22 C23 1_555 1_555
C23 H11 1_555 1_555
C24 C23 1_555 1_555
H12 C24 1_555 1_555
C25 C24 1_555 1_555
C28 C9_2 1_555 1_555
C29 C11_2 1_555 1_555
H15 C29 1_555 1_555
C30 C12_2 1_555 1_555
H16 C30 1_555 1_555
C31 C15_2 1_555 1_555
H17 C31 1_555 1_555
O6 C21 1_555 1_555
O14 Zn2 1_555 1_555
C6 C7 1_555 1_555
C25 C28 1_555 1_555
C28 C29 1_555 1_555
C30 C31 1_555 1_555
O3 C16 1_555 1_555
Zn4 O3 1_555 1_555
Zn6 O10 1_555 1_555
O10 C16_2 1_555 1_555
C32 C33 1_555 1_555
C33 C34 1_555 1_555
H19 C35 1_555 1_555
O14 C32 1_555 1_555
O15 C32 1_555 1_555
C33 C35 1_555 1_555
H5_3 C9_3 1_555 1_555
C12_3 C11_3 1_555 1_555
C16_3 C15_3 1_555 1_555
Zn4 O7_2 1_555 1_555
H13_2 C26_2 1_555 1_555
H14_2 C27_2 1_555 1_555
C26_2 C27_2 1_555 1_555
H5_4 C9_4 1_555 1_555
C12_4 C11_4 1_555 1_555
C16_4 C15_4 1_555 1_555
Zn6 O6_2 1_555 1_555
C21_2 C22_2 1_555 1_555
C22_2 C23_2 1_555 1_555
C23_2 H11_2 1_555 1_555
C24_2 C23_2 1_555 1_555
H12_2 C24_2 1_555 1_555
C25_2 C24_2 1_555 1_555
C28_2 C9_4 1_555 1_555
C29_2 C11_4 1_555 1_555
H15_2 C29_2 1_555 1_555
C30_2 C12_4 1_555 1_555
H16_2 C30_2 1_555 1_555
C31_2 C15_4 1_555 1_555
H17_2 C31_2 1_555 1_555
O6_2 C21_2 1_555 1_555
O9_2 Zn6 1_555 1_555
O12 C16_4 1_555 1_555
O14_2 Zn6 1_555 1_555
C25_2 C28_2 1_555 1_555
C28_2 C29_2 1_555 1_555
C30_2 C31_2 1_555 1_555
Zn4 O1_2 1_555 1_555
C1_2 C2_2 1_555 1_555
C2_2 C3_2 1_555 1_555
C3_2 H1_2 1_555 1_555
C4_2 C3_2 1_555 1_555
H2_2 C4_2 1_555 1_555
C5_2 C4_2 1_555 1_555
C8_2 C5_2 1_555 1_555
C9_5 C8_2 1_555 1_555
H5_5 C9_5 1_555 1_555
C10_2 C8_2 1_555 1_555
H6_2 C10_2 1_555 1_555
C11_5 C10_2 1_555 1_555
C12_5 C11_5 1_555 1_555
C13_2 C12_5 1_555 1_555
H7_2 C13_2 1_555 1_555
C14_2 C13_2 1_555 1_555
H8_2 C14_2 1_555 1_555
C15_5 C14_2 1_555 1_555
C16_5 C15_5 1_555 1_555
C17_2 C18_2 1_555 1_555
C18_2 C19_2 1_555 1_555
C19_2 H9_2 1_555 1_555
C20_2 C18_2 1_555 1_555
H10_2 C20_2 1_555 1_555
O1_2 C1_2 1_555 1_555
O11 C16_5 1_555 1_555
O4_2 Zn4 1_555 1_555
O5_2 C17_2 1_555 1_555
C32_2 C33_2 1_555 1_555
C33_2 C34_2 1_555 1_555
C34_2 C19_2 1_555 1_555
H18_2 C34_2 1_555 1_555
C35_2 C20_2 1_555 1_555
H19_2 C35_2 1_555 1_555
O14_2 C32_2 1_555 1_555
O15_2 C32_2 1_555 1_555
C17_2 O4_2 1_555 1_555
C33_2 C35_2 1_555 1_555
H3_2 C6_2 1_555 1_555
H4_2 C7_2 1_555 1_555
H5_6 C9_6 1_555 1_555
C12_6 C11_6 1_555 1_555
C16_6 C15_6 1_555 1_555
C6_2 C7_2 1_555 1_555

#END
