
###############################################################################
#
# This file contains modified crystal structure data generated from the
# MOF subset of the Cambridge Structural Database (CSD) v543 
# hosted by the Cambridge Crystallographic Data Centre (CCDC).
#
# This work is licensed under the Creative Commons
# Attribution-NonCommercial-ShareAlike 4.0 International License.
# To view a copy of this license, visit
# http://creativecommons.org/licenses/by-nc-sa/4.0/
# or send a letter to
# Creative Commons, PO Box 1866, Mountain View, CA 94042, USA.
#
# CIF created using the CSD Python API on 29 September 2022
# The structure has been converted into the P1 space group
# The structure has a 3D framework
# The original CSD entry GUXRAT is in the hexagonal crystal system
# The original CSD entry GUXRAT is in a Sohncke space group
# The framework has been calculated to contain at least 10.0% void space
# The void calculation uses a probe of radius 1.32A, grid spacing 0.4
# The framework is charged, counterions have been retained in the structure
#
###############################################################################

data_GUXRAT
_chemical_formula_moiety         '(C210 H114 O60 Zn7 9-)n'
_symmetry_cell_setting           triclinic
_symmetry_space_group_name_H-M   'P 1'
_symmetry_Int_Tables_number      1
_space_group_name_Hall           'P 1'
loop_
_symmetry_equiv_pos_site_id
_symmetry_equiv_pos_as_xyz
1 x,y,z
_cell_length_a                   16.5748(7)
_cell_length_b                   16.5748(7)
_cell_length_c                   28.129(2)
_cell_angle_alpha                90
_cell_angle_beta                 90
_cell_angle_gamma                120
_cell_volume                     6692.39
loop_
_atom_site_label
_atom_site_type_symbol
_atom_site_fract_x
_atom_site_fract_y
_atom_site_fract_z
Zn1 Zn 0.50631(5) 0.49813(5) 0.14223(2)
C1 C 0.3359(5) 0.4194(5) 0.0859(3)
C2 C 0.2320(2) 0.3699(4) 0.08385(17)
C3 C 0.1841(3) 0.3789(4) 0.04552(15)
H1 H 0.2167 0.4202 0.0210
C4 C 0.0875(3) 0.3263(4) 0.04380(15)
H2 H 0.0554 0.3323 0.0182
C5 C 0.0387(2) 0.2646(3) 0.08040(17)
C6 C 0.0865(3) 0.2556(4) 0.11872(15)
H3 H 0.0539 0.2143 0.1432
C7 C 0.1832(3) 0.3083(4) 0.12045(15)
H4 H 0.2152 0.3023 0.1461
C17 C 0.5628(6) 0.5553(8) 0.2317(3)
C18 C 0.5560(8) 0.5504(8) 0.2846(3)
C19 C 0.6298(9) 0.6272(9) 0.3090(2)
H9 H 0.6789 0.6747 0.2922
C20 C 0.4845(8) 0.4792(9) 0.3083(3)
H10 H 0.4396 0.4275 0.2919
O1 O 0.3721(3) 0.4218(4) 0.12312(19)
O2 O 0.3776(4) 0.4577(4) 0.04896(18)
O4 O 0.4973(4) 0.4943(4) 0.2108(2)
O5 O 0.6342(8) 0.5894(11) 0.2084(3)
Zn3 Zn 0.50187(5) 0.49369(5) 0.02444(2)
Zn7 Zn 0.49813(5) 0.50631(5) 0.52444(2)
C32 C 0.5553(8) 0.5628(6) 0.4350(3)
C33 C 0.5504(8) 0.5560(8) 0.3821(3)
C34 C 0.6272(9) 0.6298(9) 0.3577(2)
H18 H 0.6747 0.6789 0.3745
C35 C 0.4792(9) 0.4845(8) 0.3584(3)
H19 H 0.4275 0.4396 0.3748
O8 O 0.5423(4) 0.6224(4) 0.11771(18)
O11 O 0.5555(5) 0.4192(5) 0.12219(18)
O13 O 0.4943(4) 0.4973(4) 0.4559(2)
O15 O 0.5894(11) 0.6342(8) 0.4583(3)
C8 C 0.9358(4) 0.2139(4) 0.0806(2)
C9 C 0.8838(3) 0.1162(3) 0.0833
H5 H 0.9162 0.0838 0.0833
C10 C 0.8872(4) 0.2590(4) 0.0791(2)
H6 H 0.9189 0.3233 0.0752
C11 C 0.7891(3) 0.2109(3) 0.0833
C12 C 0.7374(3) 0.2626(3) 0.0833
C13 C 0.7618(6) 0.3363(6) 0.0521(3)
H7 H 0.8112 0.3551 0.0310
C14 C 0.7099(6) 0.3808(6) 0.0535(3)
H8 H 0.7255 0.4288 0.0318
C15 C 0.6391(4) 0.3609(4) 0.0833
C16 C 0.5871(4) 0.4129(4) 0.0833
C28 C 0.7861(4) 0.0642(4) 0.0861(2)
C29 C 0.7410(4) 0.1128(4) 0.0876(2)
H15 H 0.6767 0.0811 0.0915
C30 C 0.6637(6) 0.2382(6) 0.1146(3)
H16 H 0.6449 0.1888 0.1357
C31 C 0.6192(6) 0.2901(6) 0.1132(3)
H17 H 0.5712 0.2745 0.1349
O10 O 0.5808(5) 0.4445(5) 0.04448(18)
C21 C 0.5806(5) 0.6641(5) 0.0808(3)
C22 C 0.6301(4) 0.7680(2) 0.08282(17)
C23 C 0.6211(4) 0.8159(3) 0.12115(15)
H11 H 0.5798 0.7833 0.1457
C24 C 0.6737(4) 0.9125(3) 0.12287(15)
H12 H 0.6677 0.9446 0.1485
C25 C 0.7354(3) 0.9613(2) 0.08627(17)
C26 C 0.7444(4) 0.9135(3) 0.04795(15)
H13 H 0.7857 0.9461 0.0235
C27 C 0.6917(4) 0.8168(3) 0.04622(15)
H14 H 0.6977 0.7848 0.0206
O6 O 0.5782(4) 0.6279(3) 0.04355(19)
O14 O 0.5057(4) 0.5027(4) 0.9559(2)
Zn5 Zn 0.49369(5) 0.50187(5) 0.64223(2)
C21_2 C 0.4194(5) 0.3359(5) 0.5808(3)
C22_2 C 0.3699(4) 0.2320(2) 0.58282(17)
C23_2 C 0.3789(4) 0.1841(3) 0.62115(15)
H11_2 H 0.4202 0.2167 0.6457
C24_2 C 0.3263(4) 0.0875(3) 0.62287(15)
H12_2 H 0.3323 0.0554 0.6485
C25_2 C 0.2646(3) 0.0387(2) 0.58627(17)
C26_2 C 0.2556(4) 0.0865(3) 0.54795(15)
H13_2 H 0.2143 0.0539 0.5235
C27_2 C 0.3083(4) 0.1832(3) 0.54622(15)
H14_2 H 0.3023 0.2152 0.5206
O6_2 O 0.4218(4) 0.3721(3) 0.54355(19)
O7 O 0.4577(4) 0.3776(4) 0.61771(18)
O9 O 0.6224(4) 0.5423(4) 0.54896(18)
O12 O 0.4192(5) 0.5555(5) 0.54448(18)
C8_2 C 0.0642(4) 0.7861(4) 0.5806(2)
C9_2 C 0.1162(3) 0.8838(3) 0.5833
H5_2 H 0.0838 0.9162 0.5833
C10_2 C 0.1128(4) 0.7410(4) 0.5791(2)
H6_2 H 0.0811 0.6767 0.5752
C11_2 C 0.2109(3) 0.7891(3) 0.5833
C12_2 C 0.2626(3) 0.7374(3) 0.5833
C13_2 C 0.2382(6) 0.6637(6) 0.5521(3)
H7_2 H 0.1888 0.6449 0.5310
C14_2 C 0.2901(6) 0.6192(6) 0.5535(3)
H8_2 H 0.2745 0.5712 0.5318
C15_2 C 0.3609(4) 0.6391(4) 0.5833
C16_2 C 0.4129(4) 0.5871(4) 0.5833
O3 O 0.4445(5) 0.5808(5) 0.62219(18)
C28_2 C 0.2139(4) 0.9358(4) 0.5861(2)
C29_2 C 0.2590(4) 0.8872(4) 0.5876(2)
H15_2 H 0.3233 0.9189 0.5915
C30_2 C 0.3363(6) 0.7618(6) 0.6146(3)
H16_2 H 0.3551 0.8112 0.6357
C31_2 C 0.3808(6) 0.7099(6) 0.6132(3)
H17_2 H 0.4288 0.7255 0.6349
C1_2 C 0.6641(5) 0.5806(5) 0.5859(3)
C2_2 C 0.7680(2) 0.6301(4) 0.58385(17)
C3_2 C 0.8159(3) 0.6211(4) 0.54552(15)
H1_2 H 0.7833 0.5798 0.5210
C4_2 C 0.9125(3) 0.6737(4) 0.54380(15)
H2_2 H 0.9446 0.6677 0.5182
C5_2 C 0.9613(2) 0.7354(3) 0.58040(17)
C6_2 C 0.9135(3) 0.7444(4) 0.61872(15)
H3_2 H 0.9461 0.7857 0.6432
C7_2 C 0.8168(3) 0.6917(4) 0.62045(15)
H4_2 H 0.7848 0.6977 0.6461
C17_2 C 0.4372(6) 0.4447(8) 0.7317(3)
C18_2 C 0.4440(8) 0.4496(8) 0.7846(3)
C19_2 C 0.3702(9) 0.3728(9) 0.8090(2)
H9_2 H 0.3211 0.3253 0.7922
C20_2 C 0.5155(8) 0.5208(9) 0.8083(3)
H10_2 H 0.5604 0.5725 0.7919
O1_2 O 0.6279(3) 0.5782(4) 0.62312(19)
O4_2 O 0.5027(4) 0.5057(4) 0.7108(2)
O5_2 O 0.3658(8) 0.4106(11) 0.7084(3)
C32_2 C 0.4447(8) 0.4372(6) 0.9350(3)
C33_2 C 0.4496(8) 0.4440(8) 0.8821(3)
C34_2 C 0.3728(9) 0.3702(9) 0.8577(2)
H18_2 H 0.3253 0.3211 0.8745
C35_2 C 0.5208(9) 0.5155(8) 0.8584(3)
H19_2 H 0.5725 0.5604 0.8748
O15_2 O 0.4106(11) 0.3658(8) 0.9583(3)
C17_3 C 0.0075(10) 0.5628(6) 0.0650(3)
C18_3 C 0.0056(11) 0.5560(8) 0.1179(3)
C19_3 C 0.0026(13) 0.6298(9) 0.1423(2)
H9_3 H 0.0042 0.6789 0.1255
C20_3 C 0.0053(12) 0.4845(8) 0.1416(3)
H10_3 H 0.0121 0.4396 0.1252
O4_3 O 0.0030(6) 0.4973(4) 0.0441(2)
O5_3 O 0.0448(14) 0.6342(8) 0.0417(3)
Zn1_2 Zn 0.00818(7) 0.50631(5) 0.97556(2)
Zn3_2 Zn 0.00818(7) 0.50187(5) 0.85777(2)
O11_2 O 0.1363(7) 0.5555(5) 0.95552(18)
O12_2 O 0.1363(7) 0.5808(5) 0.87781(18)
O14_2 O 0.0030(6) 0.5057(4) 0.7892(2)
Zn7_2 Zn 0.99182(7) 0.49813(5) 0.35777(2)
C32_3 C 0.9925(10) 0.5553(8) 0.2683(3)
C33_3 C 0.9944(11) 0.5504(8) 0.2154(3)
C34_3 C 0.9974(13) 0.6272(9) 0.1910(2)
H18_3 H 0.9958 0.6747 0.2078
C35_3 C 0.9947(12) 0.4792(9) 0.1917(3)
H19_3 H 0.9879 0.4275 0.2081
O13_2 O 0.9970(6) 0.4943(4) 0.2892(2)
O15_3 O 0.9552(14) 0.5894(11) 0.2916(3)
C1_3 C 0.9165(7) 0.3359(5) 0.9192(3)
C2_3 C 0.8621(4) 0.2320(2) 0.91718(17)
C3_3 C 0.8052(5) 0.1841(3) 0.87885(15)
H1_3 H 0.7965 0.2167 0.8543
C4_3 C 0.7612(5) 0.0875(3) 0.87713(15)
H2_3 H 0.7231 0.0554 0.8515
C5_3 C 0.7741(4) 0.0387(2) 0.91373(17)
C6_3 C 0.8309(5) 0.0865(3) 0.95205(15)
H3_3 H 0.8396 0.0539 0.9765
C7_3 C 0.8749(5) 0.1832(3) 0.95378(15)
H4_3 H 0.9129 0.2152 0.9794
O1_3 O 0.9503(5) 0.3721(3) 0.95645(19)
O2_2 O 0.9199(6) 0.3776(4) 0.88229(18)
O8_2 O 0.9199(6) 0.5423(4) 0.95104(18)
C8_3 C 0.7219(6) 0.9358(4) 0.9139(2)
C9_3 C 0.7676(4) 0.8838(3) 0.9166
H5_3 H 0.8324 0.9162 0.9166
C10_3 C 0.6282(6) 0.8872(4) 0.9124(2)
H6_3 H 0.5956 0.9189 0.9085
C11_3 C 0.5782(4) 0.7891(3) 0.9166
C12_3 C 0.4748(4) 0.7374(3) 0.9166
C13_3 C 0.4255(8) 0.7618(6) 0.8854(3)
H7_3 H 0.4561 0.8112 0.8643
C14_3 C 0.3291(8) 0.7099(6) 0.8868(3)
H8_3 H 0.2967 0.7255 0.8651
C15_3 C 0.2782(6) 0.6391(4) 0.9166
C16_3 C 0.1742(6) 0.5871(4) 0.9166
C21_3 C 0.9165(7) 0.5806(5) 0.9141(3)
C22_3 C 0.8621(4) 0.6301(4) 0.91615(17)
C23_3 C 0.8052(5) 0.6211(4) 0.95448(15)
H11_3 H 0.7965 0.5798 0.9790
C24_3 C 0.7612(5) 0.6737(4) 0.95620(15)
H12_3 H 0.7231 0.6677 0.9818
C25_3 C 0.7741(4) 0.7354(3) 0.91960(17)
C26_3 C 0.8309(5) 0.7444(4) 0.88128(15)
H13_3 H 0.8396 0.7857 0.8568
C27_3 C 0.8749(5) 0.6917(4) 0.87955(15)
H14_3 H 0.9129 0.6977 0.8539
C28_3 C 0.7219(6) 0.7861(4) 0.9194(2)
C29_3 C 0.6282(6) 0.7410(4) 0.9209(2)
H15_3 H 0.5956 0.6767 0.9248
C30_3 C 0.4255(8) 0.6637(6) 0.9479(3)
H16_3 H 0.4561 0.6449 0.9690
C31_3 C 0.3291(8) 0.6192(6) 0.9465(3)
H17_3 H 0.2967 0.5712 0.9682
O6_3 O 0.9503(5) 0.5782(4) 0.87688(19)
C8_4 C 0.2781(6) 0.0642(4) 0.4139(2)
C9_4 C 0.2324(4) 0.1162(3) 0.4166
H5_4 H 0.1676 0.0838 0.4166
C10_4 C 0.3718(6) 0.1128(4) 0.4124(2)
H6_4 H 0.4044 0.0811 0.4085
C11_4 C 0.4218(4) 0.2109(3) 0.4166
C12_4 C 0.5252(4) 0.2626(3) 0.4166
C13_4 C 0.5745(8) 0.2382(6) 0.3854(3)
H7_4 H 0.5439 0.1888 0.3643
C14_4 C 0.6709(8) 0.2901(6) 0.3868(3)
H8_4 H 0.7033 0.2745 0.3651
C15_4 C 0.7218(6) 0.3609(4) 0.4166
C16_4 C 0.8258(6) 0.4129(4) 0.4166
O3_2 O 0.8637(7) 0.4445(5) 0.45552(18)
Zn4 Zn 0.99182(7) 0.49369(5) 0.47556(2)
C21_4 C 0.0835(7) 0.4194(5) 0.4141(3)
C22_4 C 0.1379(4) 0.3699(4) 0.41615(17)
C23_4 C 0.1948(5) 0.3789(4) 0.45448(15)
H11_4 H 0.2035 0.4202 0.4790
C24_4 C 0.2388(5) 0.3263(4) 0.45620(15)
H12_4 H 0.2769 0.3323 0.4818
C25_4 C 0.2259(4) 0.2646(3) 0.41960(17)
C26_4 C 0.1691(5) 0.2556(4) 0.38128(15)
H13_4 H 0.1604 0.2143 0.3568
C27_4 C 0.1251(5) 0.3083(4) 0.37955(15)
H14_4 H 0.0871 0.3023 0.3539
C28_4 C 0.2781(6) 0.2139(4) 0.4194(2)
C29_4 C 0.3718(6) 0.2590(4) 0.4209(2)
H15_4 H 0.4044 0.3233 0.4248
C30_4 C 0.5745(8) 0.3363(6) 0.4479(3)
H16_4 H 0.5439 0.3551 0.4690
C31_4 C 0.6709(8) 0.3808(6) 0.4465(3)
H17_4 H 0.7033 0.4288 0.4682
O6_4 O 0.0497(5) 0.4218(4) 0.37688(19)
O7_2 O 0.0801(6) 0.4577(4) 0.45104(18)
O9_2 O 0.0801(6) 0.6224(4) 0.38229(18)
O10_2 O 0.8637(7) 0.4192(5) 0.37781(18)
C1_4 C 0.0835(7) 0.6641(5) 0.4192(3)
C2_4 C 0.1379(4) 0.7680(2) 0.41718(17)
C3_4 C 0.1948(5) 0.8159(3) 0.37885(15)
H1_4 H 0.2035 0.7833 0.3543
C4_4 C 0.2388(5) 0.9125(3) 0.37713(15)
H2_4 H 0.2769 0.9446 0.3515
C5_4 C 0.2259(4) 0.9613(2) 0.41373(17)
C6_4 C 0.1691(5) 0.9135(3) 0.45205(15)
H3_4 H 0.1604 0.9461 0.4765
C7_4 C 0.1251(5) 0.8168(3) 0.45378(15)
H4_4 H 0.0871 0.7848 0.4794
O1_4 O 0.0497(5) 0.6279(3) 0.45645(19)
C32_4 C 0.0075(10) 0.4447(8) 0.7683(3)
C33_4 C 0.0056(11) 0.4496(8) 0.7154(3)
C34_4 C 0.0026(13) 0.3728(9) 0.6910(2)
H18_4 H 0.0042 0.3253 0.7078
C35_4 C 0.0053(12) 0.5208(9) 0.6917(3)
H19_4 H 0.0121 0.5725 0.7081
O15_4 O 0.0448(14) 0.4106(11) 0.7916(3)
C17_4 C 0.9925(10) 0.4372(6) 0.5650(3)
C18_4 C 0.9944(11) 0.4440(8) 0.6179(3)
C19_4 C 0.9974(13) 0.3702(9) 0.6423(2)
H9_4 H 0.9958 0.3211 0.6255
C20_4 C 0.9947(12) 0.5155(8) 0.6416(3)
H10_4 H 0.9879 0.5604 0.6252
O4_4 O 0.9970(6) 0.5027(4) 0.5441(2)
O5_4 O 0.9552(14) 0.3658(8) 0.5417(3)
Zn2 Zn 0.50631(5) 0.00818(7) 0.69110(2)
Zn5_2 Zn 0.50187(5) 0.00818(7) 0.80890(2)
O12_3 O 0.5555(5) 0.1363(7) 0.71114(18)
O14_3 O 0.4973(4) 0.0030(6) 0.6225(2)
C21_5 C 0.3359(5) 0.9165(7) 0.7474(3)
C22_5 C 0.2320(2) 0.8621(4) 0.74948(17)
C23_5 C 0.1841(3) 0.8052(5) 0.78781(15)
H11_5 H 0.2167 0.7965 0.8123
C24_5 C 0.0875(3) 0.7612(5) 0.78953(15)
H12_5 H 0.0554 0.7231 0.8151
C25_5 C 0.0387(2) 0.7741(4) 0.75293(17)
C26_5 C 0.0865(3) 0.8309(5) 0.71461(15)
H13_5 H 0.0539 0.8396 0.6901
C27_5 C 0.1832(3) 0.8749(5) 0.71288(15)
H14_5 H 0.2152 0.9129 0.6872
O6_5 O 0.3721(3) 0.9503(5) 0.71021(19)
O7_3 O 0.3776(4) 0.9199(6) 0.78437(18)
O9_3 O 0.5423(4) 0.9199(6) 0.71563(18)
C17_5 C 0.4447(8) 0.0075(10) 0.8984(3)
C18_5 C 0.4496(8) 0.0056(11) 0.9513(3)
C19_5 C 0.3728(9) 0.0026(13) 0.9757(2)
H9_5 H 0.3253 0.0042 0.9589
C20_5 C 0.5208(9) 0.0053(12) 0.9750(3)
H10_5 H 0.5725 0.0121 0.9586
O4_5 O 0.5057(4) 0.0030(6) 0.8775(2)
O5_5 O 0.4106(11) 0.0448(14) 0.8751(3)
O11_3 O 0.5808(5) 0.1363(7) 0.78886(18)
Zn7_3 Zn 0.49369(5) 0.99182(7) 0.19110(2)
C32_5 C 0.4372(6) 0.9925(10) 0.1016(3)
C33_5 C 0.4440(8) 0.9944(11) 0.0487(3)
C34_5 C 0.3702(9) 0.9974(13) 0.0243(2)
H18_5 H 0.3211 0.9958 0.0411
C35_5 C 0.5155(8) 0.9947(12) 0.0250(3)
H19_5 H 0.5604 0.9879 0.0414
O13_3 O 0.5027(4) 0.9970(6) 0.1225(2)
O15_5 O 0.3658(8) 0.9552(14) 0.1249(3)
C1_5 C 0.5806(5) 0.9165(7) 0.7526(3)
C2_5 C 0.6301(4) 0.8621(4) 0.75052(17)
C3_5 C 0.6211(4) 0.8052(5) 0.71219(15)
H1_5 H 0.5798 0.7965 0.6877
C4_5 C 0.6737(4) 0.7612(5) 0.71047(15)
H2_5 H 0.6677 0.7231 0.6849
C5_5 C 0.7354(3) 0.7741(4) 0.74707(17)
C6_5 C 0.7444(4) 0.8309(5) 0.78539(15)
H3_5 H 0.7857 0.8396 0.8099
C7_5 C 0.6917(4) 0.8749(5) 0.78712(15)
H4_5 H 0.6977 0.9129 0.8128
C8_5 C 0.7861(4) 0.7219(6) 0.7473(2)
C9_5 C 0.8838(3) 0.7676(4) 0.7500
H5_5 H 0.9162 0.8324 0.7500
C10_5 C 0.7410(4) 0.6282(6) 0.7458(2)
H6_5 H 0.6767 0.5956 0.7419
C11_5 C 0.7891(3) 0.5782(4) 0.7500
C12_5 C 0.7374(3) 0.4748(4) 0.7500
C13_5 C 0.6637(6) 0.4255(8) 0.7188(3)
H7_5 H 0.6449 0.4561 0.6977
C14_5 C 0.6192(6) 0.3291(8) 0.7202(3)
H8_5 H 0.5712 0.2967 0.6985
C15_5 C 0.6391(4) 0.2782(6) 0.7500
C16_5 C 0.5871(4) 0.1742(6) 0.7500
O1_5 O 0.5782(4) 0.9503(5) 0.78979(19)
C28_5 C 0.9358(4) 0.7219(6) 0.7527(2)
C29_5 C 0.8872(4) 0.6282(6) 0.7542(2)
H15_5 H 0.9189 0.5956 0.7581
C30_5 C 0.7618(6) 0.4255(8) 0.7812(3)
H16_5 H 0.8112 0.4561 0.8023
C31_5 C 0.7099(6) 0.3291(8) 0.7798(3)
H17_5 H 0.7255 0.2967 0.8015
C1_6 C 0.4194(5) 0.0835(7) 0.2526(3)
C2_6 C 0.3699(4) 0.1379(4) 0.25052(17)
C3_6 C 0.3789(4) 0.1948(5) 0.21219(15)
H1_6 H 0.4202 0.2035 0.1877
C4_6 C 0.3263(4) 0.2388(5) 0.21047(15)
H2_6 H 0.3323 0.2769 0.1849
C5_6 C 0.2646(3) 0.2259(4) 0.24707(17)
C6_6 C 0.2556(4) 0.1691(5) 0.28539(15)
H3_6 H 0.2143 0.1604 0.3099
C7_6 C 0.3083(4) 0.1251(5) 0.28712(15)
H4_6 H 0.3023 0.0871 0.3128
C8_6 C 0.2139(4) 0.2781(6) 0.2473(2)
C9_6 C 0.1162(3) 0.2324(4) 0.2500
H5_6 H 0.0838 0.1676 0.2500
C10_6 C 0.2590(4) 0.3718(6) 0.2458(2)
H6_6 H 0.3233 0.4044 0.2419
C11_6 C 0.2109(3) 0.4218(4) 0.2500
C12_6 C 0.2626(3) 0.5252(4) 0.2500
C13_6 C 0.3363(6) 0.5745(8) 0.2188(3)
H7_6 H 0.3551 0.5439 0.1977
C14_6 C 0.3808(6) 0.6709(8) 0.2202(3)
H8_6 H 0.4288 0.7033 0.1985
C15_6 C 0.3609(4) 0.7218(6) 0.2500
C16_6 C 0.4129(4) 0.8258(6) 0.2500
O1_6 O 0.4218(4) 0.0497(5) 0.28979(19)
O2_3 O 0.4577(4) 0.0801(6) 0.21563(18)
O3_3 O 0.4192(5) 0.8637(7) 0.28886(18)
Zn4_2 Zn 0.49813(5) 0.99182(7) 0.30890(2)
C28_6 C 0.0642(4) 0.2781(6) 0.2527(2)
C29_6 C 0.1128(4) 0.3718(6) 0.2542(2)
H15_6 H 0.0811 0.4044 0.2581
C30_6 C 0.2382(6) 0.5745(8) 0.2812(3)
H16_6 H 0.1888 0.5439 0.3023
C31_6 C 0.2901(6) 0.6709(8) 0.2798(3)
H17_6 H 0.2745 0.7033 0.3015
C32_6 C 0.5628(6) 0.0075(10) 0.6016(3)
C33_6 C 0.5560(8) 0.0056(11) 0.5487(3)
C34_6 C 0.6298(9) 0.0026(13) 0.5243(2)
H18_6 H 0.6789 0.0042 0.5411
C35_6 C 0.4845(8) 0.0053(12) 0.5250(3)
H19_6 H 0.4396 0.0121 0.5414
O8_3 O 0.6224(4) 0.0801(6) 0.28437(18)
O10_3 O 0.4445(5) 0.8637(7) 0.21114(18)
O15_6 O 0.6342(8) 0.0448(14) 0.6249(3)
C17_6 C 0.5553(8) 0.9925(10) 0.3984(3)
C18_6 C 0.5504(8) 0.9944(11) 0.4513(3)
C19_6 C 0.6272(9) 0.9974(13) 0.4757(2)
H9_6 H 0.6747 0.9958 0.4589
C20_6 C 0.4792(9) 0.9947(12) 0.4750(3)
H10_6 H 0.4275 0.9879 0.4586
O4_6 O 0.4943(4) 0.9970(6) 0.3775(2)
O5_6 O 0.5894(11) 0.9552(14) 0.3751(3)
C21_6 C 0.6641(5) 0.0835(7) 0.2474(3)
C22_6 C 0.7680(2) 0.1379(4) 0.24948(17)
C23_6 C 0.8159(3) 0.1948(5) 0.28781(15)
H11_6 H 0.7833 0.2035 0.3123
C24_6 C 0.9125(3) 0.2388(5) 0.28953(15)
H12_6 H 0.9446 0.2769 0.3151
C25_6 C 0.9613(2) 0.2259(4) 0.25293(17)
C26_6 C 0.9135(3) 0.1691(5) 0.21461(15)
H13_6 H 0.9461 0.1604 0.1901
C27_6 C 0.8168(3) 0.1251(5) 0.21288(15)
H14_6 H 0.7848 0.0871 0.1872
O6_6 O 0.6279(3) 0.0497(5) 0.21021(19)
loop_
_geom_bond_atom_site_label_1
_geom_bond_atom_site_label_2
_geom_bond_site_symmetry_1
_geom_bond_site_symmetry_2
Zn1 O1 1_555 1_555
C1 C2 1_555 1_555
C2 C3 1_555 1_555
C3 H1 1_555 1_555
C4 C3 1_555 1_555
H2 C4 1_555 1_555
C5 C4 1_555 1_555
C6 C5 1_555 1_555
H3 C6 1_555 1_555
C7 C2 1_555 1_555
H4 C7 1_555 1_555
C17 C18 1_555 1_555
C18 C19 1_555 1_555
C19 H9 1_555 1_555
C20 C18 1_555 1_555
H10 C20 1_555 1_555
O1 C1 1_555 1_555
O2 C1 1_555 1_555
O4 Zn1 1_555 1_555
O5 C17 1_555 1_555
Zn3 O2 1_555 1_555
Zn7 O13 1_555 1_555
C32 C33 1_555 1_555
C33 C34 1_555 1_555
C34 C19 1_555 1_555
H18 C34 1_555 1_555
C35 C20 1_555 1_555
H19 C35 1_555 1_555
O8 Zn1 1_555 1_555
O11 Zn1 1_555 1_555
O13 C32 1_555 1_555
O15 C32 1_555 1_555
C6 C7 1_555 1_555
C17 O4 1_555 1_555
C33 C35 1_555 1_555
C9 C8 1_555 1_555
H5 C9 1_555 1_555
C10 C8 1_555 1_555
H6 C10 1_555 1_555
C11 C10 1_555 1_555
C12 C11 1_555 1_555
C13 C12 1_555 1_555
H7 C13 1_555 1_555
C14 C13 1_555 1_555
H8 C14 1_555 1_555
C15 C14 1_555 1_555
C16 C15 1_555 1_555
O11 C16 1_555 1_555
Zn3 O10 1_555 1_555
C28 C9 1_555 1_555
C29 C11 1_555 1_555
H15 C29 1_555 1_555
C30 C12 1_555 1_555
H16 C30 1_555 1_555
C31 C15 1_555 1_555
H17 C31 1_555 1_555
O10 C16 1_555 1_555
C28 C29 1_555 1_555
C30 C31 1_555 1_555
Zn3 O6 1_555 1_555
C21 C22 1_555 1_555
C22 C23 1_555 1_555
C23 H11 1_555 1_555
C24 C23 1_555 1_555
H12 C24 1_555 1_555
C25 C24 1_555 1_555
C26 C25 1_555 1_555
H13 C26 1_555 1_555
C27 C22 1_555 1_555
H14 C27 1_555 1_555
O6 C21 1_555 1_555
O8 C21 1_555 1_555
C26 C27 1_555 1_555
Zn7 O6_2 1_555 1_555
Zn5 O7 1_555 1_555
C21_2 C22_2 1_555 1_555
C22_2 C23_2 1_555 1_555
C23_2 H11_2 1_555 1_555
C24_2 C23_2 1_555 1_555
H12_2 C24_2 1_555 1_555
C25_2 C24_2 1_555 1_555
C26_2 C25_2 1_555 1_555
H13_2 C26_2 1_555 1_555
C27_2 C22_2 1_555 1_555
H14_2 C27_2 1_555 1_555
O6_2 C21_2 1_555 1_555
O7 C21_2 1_555 1_555
O9 Zn7 1_555 1_555
O12 Zn7 1_555 1_555
C26_2 C27_2 1_555 1_555
C9_2 C8_2 1_555 1_555
H5_2 C9_2 1_555 1_555
C10_2 C8_2 1_555 1_555
H6_2 C10_2 1_555 1_555
C11_2 C10_2 1_555 1_555
C12_2 C11_2 1_555 1_555
C13_2 C12_2 1_555 1_555
H7_2 C13_2 1_555 1_555
C14_2 C13_2 1_555 1_555
H8_2 C14_2 1_555 1_555
C15_2 C14_2 1_555 1_555
C16_2 C15_2 1_555 1_555
O3 C16_2 1_555 1_555
Zn5 O3 1_555 1_555
C28_2 C9_2 1_555 1_555
C29_2 C11_2 1_555 1_555
H15_2 C29_2 1_555 1_555
C30_2 C12_2 1_555 1_555
H16_2 C30_2 1_555 1_555
C31_2 C15_2 1_555 1_555
H17_2 C31_2 1_555 1_555
O12 C16_2 1_555 1_555
C28_2 C29_2 1_555 1_555
C30_2 C31_2 1_555 1_555
Zn5 O1_2 1_555 1_555
C1_2 C2_2 1_555 1_555
C2_2 C3_2 1_555 1_555
C3_2 H1_2 1_555 1_555
C4_2 C3_2 1_555 1_555
H2_2 C4_2 1_555 1_555
C5_2 C4_2 1_555 1_555
C6_2 C5_2 1_555 1_555
H3_2 C6_2 1_555 1_555
C7_2 C2_2 1_555 1_555
H4_2 C7_2 1_555 1_555
C17_2 C18_2 1_555 1_555
C18_2 C19_2 1_555 1_555
C19_2 H9_2 1_555 1_555
C20_2 C18_2 1_555 1_555
H10_2 C20_2 1_555 1_555
O1_2 C1_2 1_555 1_555
O9 C1_2 1_555 1_555
O4_2 Zn5 1_555 1_555
O5_2 C17_2 1_555 1_555
C32_2 C33_2 1_555 1_555
C33_2 C34_2 1_555 1_555
C34_2 C19_2 1_555 1_555
H18_2 C34_2 1_555 1_555
C35_2 C20_2 1_555 1_555
H19_2 C35_2 1_555 1_555
O14 C32_2 1_555 1_555
O15_2 C32_2 1_555 1_555
C6_2 C7_2 1_555 1_555
C17_2 O4_2 1_555 1_555
C33_2 C35_2 1_555 1_555
C17_3 C18_3 1_555 1_555
C18_3 C19_3 1_555 1_555
C19_3 H9_3 1_555 1_555
C20_3 C18_3 1_555 1_555
H10_3 C20_3 1_555 1_555
O5_3 C17_3 1_555 1_555
C17_3 O4_3 1_555 1_555
O11_2 Zn1_2 1_555 1_555
O12_2 Zn3_2 1_555 1_555
O14_2 Zn3_2 1_555 1_555
Zn7_2 O13_2 1_555 1_555
C32_3 C33_3 1_555 1_555
C33_3 C34_3 1_555 1_555
H18_3 C34_3 1_555 1_555
H19_3 C35_3 1_555 1_555
O13_2 C32_3 1_555 1_555
O15_3 C32_3 1_555 1_555
C33_3 C35_3 1_555 1_555
C1_3 C2_3 1_555 1_555
C2_3 C3_3 1_555 1_555
C3_3 H1_3 1_555 1_555
C4_3 C3_3 1_555 1_555
H2_3 C4_3 1_555 1_555
C5_3 C4_3 1_555 1_555
C6_3 C5_3 1_555 1_555
H3_3 C6_3 1_555 1_555
C7_3 C2_3 1_555 1_555
H4_3 C7_3 1_555 1_555
O1_3 C1_3 1_555 1_555
O2_2 C1_3 1_555 1_555
C6_3 C7_3 1_555 1_555
C9_3 C8_3 1_555 1_555
H5_3 C9_3 1_555 1_555
C10_3 C8_3 1_555 1_555
H6_3 C10_3 1_555 1_555
C11_3 C10_3 1_555 1_555
C12_3 C11_3 1_555 1_555
C13_3 C12_3 1_555 1_555
H7_3 C13_3 1_555 1_555
C14_3 C13_3 1_555 1_555
H8_3 C14_3 1_555 1_555
C15_3 C14_3 1_555 1_555
C16_3 C15_3 1_555 1_555
O11_2 C16_3 1_555 1_555
C21_3 C22_3 1_555 1_555
C22_3 C23_3 1_555 1_555
C23_3 H11_3 1_555 1_555
C24_3 C23_3 1_555 1_555
H12_3 C24_3 1_555 1_555
C25_3 C24_3 1_555 1_555
C26_3 C25_3 1_555 1_555
H13_3 C26_3 1_555 1_555
C27_3 C22_3 1_555 1_555
H14_3 C27_3 1_555 1_555
C28_3 C9_3 1_555 1_555
C29_3 C11_3 1_555 1_555
H15_3 C29_3 1_555 1_555
C30_3 C12_3 1_555 1_555
H16_3 C30_3 1_555 1_555
C31_3 C15_3 1_555 1_555
H17_3 C31_3 1_555 1_555
O6_3 C21_3 1_555 1_555
O8_2 C21_3 1_555 1_555
O12_2 C16_3 1_555 1_555
C25_3 C28_3 1_555 1_555
C26_3 C27_3 1_555 1_555
C28_3 C29_3 1_555 1_555
C30_3 C31_3 1_555 1_555
C9_4 C8_4 1_555 1_555
H5_4 C9_4 1_555 1_555
C10_4 C8_4 1_555 1_555
H6_4 C10_4 1_555 1_555
C11_4 C10_4 1_555 1_555
C12_4 C11_4 1_555 1_555
C13_4 C12_4 1_555 1_555
H7_4 C13_4 1_555 1_555
C14_4 C13_4 1_555 1_555
H8_4 C14_4 1_555 1_555
C15_4 C14_4 1_555 1_555
C16_4 C15_4 1_555 1_555
O3_2 C16_4 1_555 1_555
Zn4 O3_2 1_555 1_555
Zn7_2 O10_2 1_555 1_555
C21_4 C22_4 1_555 1_555
C22_4 C23_4 1_555 1_555
C23_4 H11_4 1_555 1_555
C24_4 C23_4 1_555 1_555
H12_4 C24_4 1_555 1_555
C25_4 C24_4 1_555 1_555
C26_4 C25_4 1_555 1_555
H13_4 C26_4 1_555 1_555
C27_4 C22_4 1_555 1_555
H14_4 C27_4 1_555 1_555
C28_4 C9_4 1_555 1_555
C29_4 C11_4 1_555 1_555
H15_4 C29_4 1_555 1_555
C30_4 C12_4 1_555 1_555
H16_4 C30_4 1_555 1_555
C31_4 C15_4 1_555 1_555
H17_4 C31_4 1_555 1_555
O6_4 C21_4 1_555 1_555
O7_2 C21_4 1_555 1_555
O10_2 C16_4 1_555 1_555
C25_4 C28_4 1_555 1_555
C26_4 C27_4 1_555 1_555
C28_4 C29_4 1_555 1_555
C30_4 C31_4 1_555 1_555
C1_4 C2_4 1_555 1_555
C2_4 C3_4 1_555 1_555
C3_4 H1_4 1_555 1_555
C4_4 C3_4 1_555 1_555
H2_4 C4_4 1_555 1_555
C5_4 C4_4 1_555 1_555
C6_4 C5_4 1_555 1_555
H3_4 C6_4 1_555 1_555
C7_4 C2_4 1_555 1_555
H4_4 C7_4 1_555 1_555
O1_4 C1_4 1_555 1_555
O9_2 C1_4 1_555 1_555
C32_4 C33_4 1_555 1_555
C33_4 C34_4 1_555 1_555
H18_4 C34_4 1_555 1_555
H19_4 C35_4 1_555 1_555
O14_2 C32_4 1_555 1_555
O15_4 C32_4 1_555 1_555
C6_4 C7_4 1_555 1_555
C33_4 C35_4 1_555 1_555
C17_4 C18_4 1_555 1_555
C18_4 C19_4 1_555 1_555
C19_4 H9_4 1_555 1_555
C20_4 C18_4 1_555 1_555
H10_4 C20_4 1_555 1_555
O4_4 Zn4 1_555 1_555
O5_4 C17_4 1_555 1_555
C17_4 O4_4 1_555 1_555
O12_3 Zn2 1_555 1_555
O14_3 Zn2 1_555 1_555
C21_5 C22_5 1_555 1_555
C22_5 C23_5 1_555 1_555
C23_5 H11_5 1_555 1_555
C24_5 C23_5 1_555 1_555
H12_5 C24_5 1_555 1_555
C25_5 C24_5 1_555 1_555
C26_5 C25_5 1_555 1_555
H13_5 C26_5 1_555 1_555
C27_5 C22_5 1_555 1_555
H14_5 C27_5 1_555 1_555
O6_5 C21_5 1_555 1_555
O7_3 C21_5 1_555 1_555
C26_5 C27_5 1_555 1_555
C17_5 C18_5 1_555 1_555
C18_5 C19_5 1_555 1_555
C19_5 H9_5 1_555 1_555
C20_5 C18_5 1_555 1_555
H10_5 C20_5 1_555 1_555
O4_5 Zn5_2 1_555 1_555
O5_5 C17_5 1_555 1_555
O11_3 Zn5_2 1_555 1_555
C17_5 O4_5 1_555 1_555
Zn7_3 O13_3 1_555 1_555
C32_5 C33_5 1_555 1_555
C33_5 C34_5 1_555 1_555
H18_5 C34_5 1_555 1_555
H19_5 C35_5 1_555 1_555
O13_3 C32_5 1_555 1_555
O15_5 C32_5 1_555 1_555
C33_5 C35_5 1_555 1_555
C1_5 C2_5 1_555 1_555
C2_5 C3_5 1_555 1_555
C3_5 H1_5 1_555 1_555
C4_5 C3_5 1_555 1_555
H2_5 C4_5 1_555 1_555
C5_5 C4_5 1_555 1_555
C6_5 C5_5 1_555 1_555
H3_5 C6_5 1_555 1_555
C7_5 C2_5 1_555 1_555
H4_5 C7_5 1_555 1_555
C8_5 C5_5 1_555 1_555
C9_5 C8_5 1_555 1_555
H5_5 C9_5 1_555 1_555
C10_5 C8_5 1_555 1_555
H6_5 C10_5 1_555 1_555
C11_5 C10_5 1_555 1_555
C12_5 C11_5 1_555 1_555
C13_5 C12_5 1_555 1_555
H7_5 C13_5 1_555 1_555
C14_5 C13_5 1_555 1_555
H8_5 C14_5 1_555 1_555
C15_5 C14_5 1_555 1_555
C16_5 C15_5 1_555 1_555
O1_5 C1_5 1_555 1_555
O9_3 C1_5 1_555 1_555
O11_3 C16_5 1_555 1_555
C28_5 C9_5 1_555 1_555
C29_5 C11_5 1_555 1_555
H15_5 C29_5 1_555 1_555
C30_5 C12_5 1_555 1_555
H16_5 C30_5 1_555 1_555
C31_5 C15_5 1_555 1_555
H17_5 C31_5 1_555 1_555
O12_3 C16_5 1_555 1_555
C6_5 C7_5 1_555 1_555
C28_5 C29_5 1_555 1_555
C30_5 C31_5 1_555 1_555
C1_6 C2_6 1_555 1_555
C2_6 C3_6 1_555 1_555
C3_6 H1_6 1_555 1_555
C4_6 C3_6 1_555 1_555
H2_6 C4_6 1_555 1_555
C5_6 C4_6 1_555 1_555
C6_6 C5_6 1_555 1_555
H3_6 C6_6 1_555 1_555
C7_6 C2_6 1_555 1_555
H4_6 C7_6 1_555 1_555
C8_6 C5_6 1_555 1_555
C9_6 C8_6 1_555 1_555
H5_6 C9_6 1_555 1_555
C10_6 C8_6 1_555 1_555
H6_6 C10_6 1_555 1_555
C11_6 C10_6 1_555 1_555
C12_6 C11_6 1_555 1_555
C13_6 C12_6 1_555 1_555
H7_6 C13_6 1_555 1_555
C14_6 C13_6 1_555 1_555
H8_6 C14_6 1_555 1_555
C15_6 C14_6 1_555 1_555
C16_6 C15_6 1_555 1_555
O1_6 C1_6 1_555 1_555
O2_3 C1_6 1_555 1_555
O3_3 C16_6 1_555 1_555
Zn4_2 O3_3 1_555 1_555
Zn7_3 O10_3 1_555 1_555
C28_6 C9_6 1_555 1_555
C29_6 C11_6 1_555 1_555
H15_6 C29_6 1_555 1_555
C30_6 C12_6 1_555 1_555
H16_6 C30_6 1_555 1_555
C31_6 C15_6 1_555 1_555
H17_6 C31_6 1_555 1_555
C32_6 C33_6 1_555 1_555
C33_6 C34_6 1_555 1_555
H18_6 C34_6 1_555 1_555
H19_6 C35_6 1_555 1_555
O10_3 C16_6 1_555 1_555
O14_3 C32_6 1_555 1_555
O15_6 C32_6 1_555 1_555
C6_6 C7_6 1_555 1_555
C28_6 C29_6 1_555 1_555
C30_6 C31_6 1_555 1_555
C33_6 C35_6 1_555 1_555
C17_6 C18_6 1_555 1_555
C18_6 C19_6 1_555 1_555
C19_6 H9_6 1_555 1_555
C20_6 C18_6 1_555 1_555
H10_6 C20_6 1_555 1_555
O4_6 Zn4_2 1_555 1_555
O5_6 C17_6 1_555 1_555
C17_6 O4_6 1_555 1_555
C21_6 C22_6 1_555 1_555
C22_6 C23_6 1_555 1_555
C23_6 H11_6 1_555 1_555
C24_6 C23_6 1_555 1_555
H12_6 C24_6 1_555 1_555
C25_6 C24_6 1_555 1_555
C26_6 C25_6 1_555 1_555
H13_6 C26_6 1_555 1_555
C27_6 C22_6 1_555 1_555
H14_6 C27_6 1_555 1_555
O6_6 C21_6 1_555 1_555
O8_3 C21_6 1_555 1_555
C26_6 C27_6 1_555 1_555

#END
