
###############################################################################
#
# This file contains modified crystal structure data generated from the
# MOF subset of the Cambridge Structural Database (CSD) v543 
# hosted by the Cambridge Crystallographic Data Centre (CCDC).
#
# This work is licensed under the Creative Commons
# Attribution-NonCommercial-ShareAlike 4.0 International License.
# To view a copy of this license, visit
# http://creativecommons.org/licenses/by-nc-sa/4.0/
# or send a letter to
# Creative Commons, PO Box 1866, Mountain View, CA 94042, USA.
#
# CIF created using the CSD Python API on 29 September 2022
# The structure has been converted into the P1 space group
# The structure has a 3D framework
# The original CSD entry GUXSIC is in the orthorhombic crystal system
# The framework has been calculated to contain at least 10.0% void space
# The void calculation uses a probe of radius 1.32A, grid spacing 0.4
#
###############################################################################

data_GUXSIC
_chemical_formula_moiety         '(C256 H224 Er8 N48 O128 8+)n'
_symmetry_cell_setting           triclinic
_symmetry_space_group_name_H-M   'P 1'
_symmetry_Int_Tables_number      1
_space_group_name_Hall           'P 1'
loop_
_symmetry_equiv_pos_site_id
_symmetry_equiv_pos_as_xyz
1 x,y,z
_cell_length_a                   26.4473(16)
_cell_length_b                   17.9442(10)
_cell_length_c                   17.3804(11)
_cell_angle_alpha                90
_cell_angle_beta                 90
_cell_angle_gamma                90
_cell_volume                     8248.31
loop_
_atom_site_label
_atom_site_type_symbol
_atom_site_fract_x
_atom_site_fract_y
_atom_site_fract_z
O3 O 0.11390(11) 0.02876(17) 0.33944(18)
N1 N 0.04608(13) 0.13568(19) 0.33308(19)
C3 C 0.01407(16) 0.1929(2) 0.3321(2)
H1 H 0.0193 0.2297 0.2953
C6 C 0.0383(2) 0.0834(4) 0.3842(4)
C7 C 0.0758(2) 0.0191(4) 0.3815(4)
Er3 Er 0.1250 0.1250 0.252830(12)
Er4 Er 0.1250 0.6250 0.497170(12)
O9 O 0.11390(11) 0.72124(17) 0.41056(18)
O12 O 0.0675(2) 0.7869(4) 0.3305(5)
N2 N 0.04608(13) 0.61432(19) 0.41692(19)
C10 C 0.01407(16) 0.5571(2) 0.4179(2)
H4 H 0.0193 0.5203 0.4547
C13 C 0.0383(2) 0.6666(4) 0.3658(4)
C14 C 0.0758(2) 0.7309(4) 0.3685(4)
Er1 Er 0.8750 0.3750 0.502830(12)
O1 O 0.92977(12) 0.30226(19) 0.43530(19)
O2 O 0.92575(12) 0.28598(18) 0.30908(18)
C1 C 0.94037(15) 0.2690(2) 0.3750(3)
C2 C 0.97399(17) 0.2018(3) 0.3812(3)
C4 C 0.9666(3) 0.1478(5) 0.4343(5)
H2 H 0.9405 0.1514 0.4699
C5 C 0.9986(3) 0.0876(6) 0.4345(6)
H3 H 0.9933 0.0492 0.4695
Er2 Er 0.8750 0.3750 0.247170(12)
O5 O 0.92977(12) 0.44774(19) 0.31470(19)
O6 O 0.82023(12) 0.44774(19) 0.43530(19)
O7 O 0.92575(12) 0.46402(18) 0.44092(18)
O8 O 0.82425(12) 0.28598(18) 0.44092(18)
O10 O 0.88610(11) 0.27876(17) 0.58944(18)
O11 O 0.86390(11) 0.47124(17) 0.58944(18)
N3 N 0.95392(13) 0.38568(19) 0.58308(19)
N4 N 0.79608(13) 0.36432(19) 0.58308(19)
C8 C 0.94037(15) 0.4810(2) 0.3750(3)
C9 C 0.97399(17) 0.5482(3) 0.3688(3)
C11 C 0.9666(3) 0.6022(5) 0.3157(5)
H5 H 0.9405 0.5986 0.2801
C12 C 0.9986(3) 0.6624(6) 0.3155(6)
H6 H 0.9933 0.7008 0.2805
O3_2 O 0.13610(11) 0.22124(17) 0.33944(18)
O4 O 0.1825(2) 0.2869(4) 0.4195(5)
N1_2 N 0.20392(13) 0.11432(19) 0.33308(19)
C2_2 C 0.27601(17) 0.0482(3) 0.3812(3)
C3_2 C 0.23593(16) 0.0571(2) 0.3321(2)
H1_2 H 0.2307 0.0203 0.2953
C4_2 C 0.2834(3) 0.1022(5) 0.4343(5)
H2_2 H 0.3095 0.0986 0.4699
C5_2 C 0.2514(3) 0.1624(6) 0.4345(6)
H3_2 H 0.2567 0.2008 0.4695
C6_2 C 0.2117(2) 0.1666(4) 0.3842(4)
C7_2 C 0.1742(2) 0.2309(4) 0.3815(4)
Er1_2 Er 0.3750 0.8750 0.502830(12)
O1_2 O 0.32023(12) 0.94774(19) 0.43530(19)
O2_2 O 0.32425(12) 0.96402(18) 0.30908(18)
C1_2 C 0.30963(15) 0.9810(2) 0.3750(3)
Er2_2 Er 0.3750 0.8750 0.247170(12)
O5_2 O 0.32023(12) 0.80226(19) 0.31470(19)
O6_2 O 0.42977(12) 0.80226(19) 0.43530(19)
O7_2 O 0.32425(12) 0.78598(18) 0.44092(18)
O8_2 O 0.42575(12) 0.96402(18) 0.44092(18)
O9_2 O 0.13610(11) 0.52876(17) 0.41056(18)
O10_2 O 0.36390(11) 0.97124(17) 0.58944(18)
O11_2 O 0.38610(11) 0.77876(17) 0.58944(18)
O12_2 O 0.1825(2) 0.4631(4) 0.3305(5)
N2_2 N 0.20392(13) 0.63568(19) 0.41692(19)
N3_2 N 0.29608(13) 0.86432(19) 0.58308(19)
N4_2 N 0.45392(13) 0.88568(19) 0.58308(19)
C8_2 C 0.30963(15) 0.7690(2) 0.3750(3)
C9_2 C 0.27601(17) 0.7018(3) 0.3688(3)
C10_2 C 0.23593(16) 0.6929(2) 0.4179(2)
H4_2 H 0.2307 0.7297 0.4547
C11_2 C 0.2834(3) 0.6478(5) 0.3157(5)
H5_2 H 0.3095 0.6514 0.2801
C12_2 C 0.2514(3) 0.5876(6) 0.3155(6)
H6_2 H 0.2567 0.5492 0.2805
C13_2 C 0.2117(2) 0.5834(4) 0.3658(4)
C14_2 C 0.1742(2) 0.5191(4) 0.3685(4)
O3_3 O 0.11390(11) 0.22124(17) 0.91056(18)
O4_2 O 0.0675(2) 0.2869(4) 0.8305(5)
N1_3 N 0.04608(13) 0.11432(19) 0.91692(19)
C3_3 C 0.01407(16) 0.0571(2) 0.9179(2)
H1_3 H 0.0193 0.0203 0.9547
C6_3 C 0.0383(2) 0.1666(4) 0.8658(4)
C7_3 C 0.0758(2) 0.2309(4) 0.8685(4)
Er3_2 Er 0.1250 0.1250 0.997170(12)
Er4_2 Er 0.1250 0.6250 0.752830(12)
O9_3 O 0.11390(11) 0.52876(17) 0.83944(18)
O12_3 O 0.0675(2) 0.4631(4) 0.9195(5)
N2_3 N 0.04608(13) 0.63568(19) 0.83308(19)
C10_3 C 0.01407(16) 0.6929(2) 0.8321(2)
H4_3 H 0.0193 0.7297 0.7953
C13_3 C 0.0383(2) 0.5834(4) 0.8842(4)
C14_3 C 0.0758(2) 0.5191(4) 0.8815(4)
Er2_3 Er 0.8750 0.8750 0.002830(12)
Er1_3 Er 0.8750 0.8750 0.747170(12)
O1_3 O 0.92977(12) 0.94774(19) 0.81470(19)
O2_3 O 0.92575(12) 0.96402(18) 0.94092(18)
C1_3 C 0.94037(15) 0.9810(2) 0.8750(3)
O5_3 O 0.92977(12) 0.80226(19) 0.93530(19)
O6_3 O 0.82023(12) 0.80226(19) 0.81470(19)
O7_3 O 0.92575(12) 0.78598(18) 0.80908(18)
O8_3 O 0.82425(12) 0.96402(18) 0.80908(18)
O10_3 O 0.88610(11) 0.97124(17) 0.66056(18)
O11_3 O 0.86390(11) 0.77876(17) 0.66056(18)
N3_3 N 0.95392(13) 0.86432(19) 0.66692(19)
N4_3 N 0.79608(13) 0.88568(19) 0.66692(19)
C8_3 C 0.94037(15) 0.7690(2) 0.8750(3)
C9_3 C 0.97399(17) 0.7018(3) 0.8812(3)
C11_3 C 0.9666(3) 0.6478(5) 0.9343(5)
H5_3 H 0.9405 0.6514 0.9699
C12_3 C 0.9986(3) 0.5876(6) 0.9345(6)
H6_3 H 0.9933 0.5492 0.9695
Er2_4 Er 0.3750 0.3750 0.002830(12)
Er1_4 Er 0.3750 0.3750 0.747170(12)
O1_4 O 0.32023(12) 0.30226(19) 0.81470(19)
O2_4 O 0.32425(12) 0.28598(18) 0.94092(18)
O3_4 O 0.13610(11) 0.02876(17) 0.91056(18)
N1_4 N 0.20392(13) 0.13568(19) 0.91692(19)
C1_4 C 0.30963(15) 0.2690(2) 0.8750(3)
C2_3 C 0.27601(17) 0.2018(3) 0.8688(3)
C3_4 C 0.23593(16) 0.1929(2) 0.9179(2)
H1_4 H 0.2307 0.2297 0.9547
C4_3 C 0.2834(3) 0.1478(5) 0.8157(5)
H2_3 H 0.3095 0.1514 0.7801
C5_3 C 0.2514(3) 0.0876(6) 0.8155(6)
H3_3 H 0.2567 0.0492 0.7805
C6_4 C 0.2117(2) 0.0834(4) 0.8658(4)
C7_4 C 0.1742(2) 0.0191(4) 0.8685(4)
O5_4 O 0.32023(12) 0.44774(19) 0.93530(19)
O6_4 O 0.42977(12) 0.44774(19) 0.81470(19)
O7_4 O 0.32425(12) 0.46402(18) 0.80908(18)
O8_4 O 0.42575(12) 0.28598(18) 0.80908(18)
O9_4 O 0.13610(11) 0.72124(17) 0.83944(18)
O10_4 O 0.36390(11) 0.27876(17) 0.66056(18)
O11_4 O 0.38610(11) 0.47124(17) 0.66056(18)
O12_4 O 0.1825(2) 0.7869(4) 0.9195(5)
N2_4 N 0.20392(13) 0.61432(19) 0.83308(19)
N3_4 N 0.29608(13) 0.38568(19) 0.66692(19)
N4_4 N 0.45392(13) 0.36432(19) 0.66692(19)
C8_4 C 0.30963(15) 0.4810(2) 0.8750(3)
C9_4 C 0.27601(17) 0.5482(3) 0.8812(3)
C10_4 C 0.23593(16) 0.5571(2) 0.8321(2)
H4_4 H 0.2307 0.5203 0.7953
C11_4 C 0.2834(3) 0.6022(5) 0.9343(5)
H5_4 H 0.3095 0.5986 0.9699
C12_4 C 0.2514(3) 0.6624(6) 0.9345(6)
H6_4 H 0.2567 0.7008 0.9695
C13_4 C 0.2117(2) 0.6666(4) 0.8842(4)
C14_4 C 0.1742(2) 0.7309(4) 0.8815(4)
O10_5 O 0.88610(11) 0.77876(17) 0.08944(18)
O11_5 O 0.86390(11) 0.97124(17) 0.08944(18)
N3_5 N 0.95392(13) 0.88568(19) 0.08308(19)
N4_5 N 0.79608(13) 0.86432(19) 0.08308(19)
O6_5 O 0.82023(12) 0.94774(19) 0.93530(19)
O8_5 O 0.82425(12) 0.78598(18) 0.94092(18)
O10_6 O 0.36390(11) 0.47124(17) 0.08944(18)
O11_6 O 0.38610(11) 0.27876(17) 0.08944(18)
N3_6 N 0.29608(13) 0.36432(19) 0.08308(19)
N4_6 N 0.45392(13) 0.38568(19) 0.08308(19)
O6_6 O 0.42977(12) 0.30226(19) 0.93530(19)
O8_6 O 0.42575(12) 0.46402(18) 0.94092(18)
O6_7 O 0.82023(12) 0.30226(19) 0.31470(19)
O8_7 O 0.82425(12) 0.46402(18) 0.30908(18)
O10_7 O 0.88610(11) 0.47124(17) 0.16056(18)
O11_7 O 0.86390(11) 0.27876(17) 0.16056(18)
N3_7 N 0.95392(13) 0.36432(19) 0.16692(19)
N4_7 N 0.79608(13) 0.38568(19) 0.16692(19)
O6_8 O 0.42977(12) 0.94774(19) 0.31470(19)
O8_8 O 0.42575(12) 0.78598(18) 0.30908(18)
O10_8 O 0.36390(11) 0.77876(17) 0.16056(18)
O11_8 O 0.38610(11) 0.97124(17) 0.16056(18)
N3_8 N 0.29608(13) 0.88568(19) 0.16692(19)
N4_8 N 0.45392(13) 0.86432(19) 0.16692(19)
O3_5 O 0.61390(11) 0.02876(17) 0.83944(18)
N1_5 N 0.54608(13) 0.13568(19) 0.83308(19)
C1_5 C 0.44037(15) 0.2690(2) 0.8750(3)
C2_4 C 0.47399(17) 0.2018(3) 0.8812(3)
C3_5 C 0.51407(16) 0.1929(2) 0.8321(2)
H1_5 H 0.5193 0.2297 0.7953
C4_4 C 0.4666(3) 0.1478(5) 0.9343(5)
H2_4 H 0.4405 0.1514 0.9699
C5_4 C 0.4986(3) 0.0876(6) 0.9345(6)
H3_4 H 0.4933 0.0492 0.9695
C6_5 C 0.5383(2) 0.0834(4) 0.8842(4)
C7_5 C 0.5758(2) 0.0191(4) 0.8815(4)
Er3_3 Er 0.6250 0.1250 0.752830(12)
Er4_3 Er 0.6250 0.6250 0.997170(12)
O9_5 O 0.61390(11) 0.72124(17) 0.91056(18)
O12_5 O 0.5675(2) 0.7869(4) 0.8305(5)
N2_5 N 0.54608(13) 0.61432(19) 0.91692(19)
C8_5 C 0.44037(15) 0.4810(2) 0.8750(3)
C9_5 C 0.47399(17) 0.5482(3) 0.8688(3)
C10_5 C 0.51407(16) 0.5571(2) 0.9179(2)
H4_5 H 0.5193 0.5203 0.9547
C11_5 C 0.4666(3) 0.6022(5) 0.8157(5)
H5_5 H 0.4405 0.5986 0.7801
C12_5 C 0.4986(3) 0.6624(6) 0.8155(6)
H6_5 H 0.4933 0.7008 0.7805
C13_5 C 0.5383(2) 0.6666(4) 0.8658(4)
C14_5 C 0.5758(2) 0.7309(4) 0.8685(4)
O3_6 O 0.63610(11) 0.22124(17) 0.83944(18)
O4_3 O 0.6825(2) 0.2869(4) 0.9195(5)
N1_6 N 0.70392(13) 0.11432(19) 0.83308(19)
C2_5 C 0.77601(17) 0.0482(3) 0.8812(3)
C3_6 C 0.73593(16) 0.0571(2) 0.8321(2)
H1_6 H 0.7307 0.0203 0.7953
C4_5 C 0.7834(3) 0.1022(5) 0.9343(5)
H2_5 H 0.8095 0.0986 0.9699
C5_5 C 0.7514(3) 0.1624(6) 0.9345(6)
H3_5 H 0.7567 0.2008 0.9695
C6_6 C 0.7117(2) 0.1666(4) 0.8842(4)
C7_6 C 0.6742(2) 0.2309(4) 0.8815(4)
C1_6 C 0.80963(15) 0.9810(2) 0.8750(3)
O9_6 O 0.63610(11) 0.52876(17) 0.91056(18)
O12_6 O 0.6825(2) 0.4631(4) 0.8305(5)
N2_6 N 0.70392(13) 0.63568(19) 0.91692(19)
C8_6 C 0.80963(15) 0.7690(2) 0.8750(3)
C9_6 C 0.77601(17) 0.7018(3) 0.8688(3)
C10_6 C 0.73593(16) 0.6929(2) 0.9179(2)
H4_6 H 0.7307 0.7297 0.9547
C11_6 C 0.7834(3) 0.6478(5) 0.8157(5)
H5_6 H 0.8095 0.6514 0.7801
C12_6 C 0.7514(3) 0.5876(6) 0.8155(6)
H6_6 H 0.7567 0.5492 0.7805
C13_6 C 0.7117(2) 0.5834(4) 0.8658(4)
C14_6 C 0.6742(2) 0.5191(4) 0.8685(4)
O3_7 O 0.61390(11) 0.22124(17) 0.41056(18)
O4_4 O 0.5675(2) 0.2869(4) 0.3305(5)
N1_7 N 0.54608(13) 0.11432(19) 0.41692(19)
C2_6 C 0.47399(17) 0.0482(3) 0.3688(3)
C3_7 C 0.51407(16) 0.0571(2) 0.4179(2)
H1_7 H 0.5193 0.0203 0.4547
C4_6 C 0.4666(3) 0.1022(5) 0.3157(5)
H2_6 H 0.4405 0.0986 0.2801
C5_6 C 0.4986(3) 0.1624(6) 0.3155(6)
H3_6 H 0.4933 0.2008 0.2805
C6_7 C 0.5383(2) 0.1666(4) 0.3658(4)
C7_7 C 0.5758(2) 0.2309(4) 0.3685(4)
Er3_4 Er 0.6250 0.1250 0.497170(12)
C1_7 C 0.44037(15) 0.9810(2) 0.3750(3)
Er4_4 Er 0.6250 0.6250 0.252830(12)
O9_7 O 0.61390(11) 0.52876(17) 0.33944(18)
O12_7 O 0.5675(2) 0.4631(4) 0.4195(5)
N2_7 N 0.54608(13) 0.63568(19) 0.33308(19)
C8_7 C 0.44037(15) 0.7690(2) 0.3750(3)
C9_7 C 0.47399(17) 0.7018(3) 0.3812(3)
C10_7 C 0.51407(16) 0.6929(2) 0.3321(2)
H4_7 H 0.5193 0.7297 0.2953
C11_7 C 0.4666(3) 0.6478(5) 0.4343(5)
H5_7 H 0.4405 0.6514 0.4699
C12_7 C 0.4986(3) 0.5876(6) 0.4345(6)
H6_7 H 0.4933 0.5492 0.4695
C13_7 C 0.5383(2) 0.5834(4) 0.3842(4)
C14_7 C 0.5758(2) 0.5191(4) 0.3815(4)
O3_8 O 0.63610(11) 0.02876(17) 0.41056(18)
N1_8 N 0.70392(13) 0.13568(19) 0.41692(19)
C1_8 C 0.80963(15) 0.2690(2) 0.3750(3)
C2_7 C 0.77601(17) 0.2018(3) 0.3688(3)
C3_8 C 0.73593(16) 0.1929(2) 0.4179(2)
H1_8 H 0.7307 0.2297 0.4547
C4_7 C 0.7834(3) 0.1478(5) 0.3157(5)
H2_7 H 0.8095 0.1514 0.2801
C5_7 C 0.7514(3) 0.0876(6) 0.3155(6)
H3_7 H 0.7567 0.0492 0.2805
C6_8 C 0.7117(2) 0.0834(4) 0.3658(4)
C7_8 C 0.6742(2) 0.0191(4) 0.3685(4)
O9_8 O 0.63610(11) 0.72124(17) 0.33944(18)
O12_8 O 0.6825(2) 0.7869(4) 0.4195(5)
N2_8 N 0.70392(13) 0.61432(19) 0.33308(19)
C8_8 C 0.80963(15) 0.4810(2) 0.3750(3)
C9_8 C 0.77601(17) 0.5482(3) 0.3812(3)
C10_8 C 0.73593(16) 0.5571(2) 0.3321(2)
H4_8 H 0.7307 0.5203 0.2953
C11_8 C 0.7834(3) 0.6022(5) 0.4343(5)
H5_8 H 0.8095 0.5986 0.4699
C12_8 C 0.7514(3) 0.6624(6) 0.4345(6)
H6_8 H 0.7567 0.7008 0.4695
C13_8 C 0.7117(2) 0.6666(4) 0.3842(4)
C14_8 C 0.6742(2) 0.7309(4) 0.3815(4)
O1_5 O 0.07023(12) 0.69774(19) 0.56470(19)
O2_5 O 0.07425(12) 0.71402(18) 0.69092(18)
C1_9 C 0.05963(15) 0.7310(2) 0.6250(3)
C2_8 C 0.02601(17) 0.7982(3) 0.6188(3)
C4_8 C 0.0334(3) 0.8522(5) 0.5657(5)
H2_8 H 0.0595 0.8486 0.5301
C5_8 C 0.0014(3) 0.9124(6) 0.5655(6)
H3_8 H 0.0067 0.9508 0.5305
O5_5 O 0.07023(12) 0.55226(19) 0.68530(19)
O6_9 O 0.17977(12) 0.55226(19) 0.56470(19)
O7_5 O 0.07425(12) 0.53598(18) 0.55908(18)
O8_9 O 0.17575(12) 0.71402(18) 0.55908(18)
C8_9 C 0.05963(15) 0.5190(2) 0.6250(3)
C9_9 C 0.02601(17) 0.4518(3) 0.6312(3)
C11_9 C 0.0334(3) 0.3978(5) 0.6843(5)
H5_9 H 0.0595 0.4014 0.7199
C12_9 C 0.0014(3) 0.3376(6) 0.6845(6)
H6_9 H 0.0067 0.2992 0.7195
C3_9 C 0.98593(16) 0.8071(2) 0.6679(2)
H1_9 H 0.9807 0.7703 0.7047
C6_9 C 0.9617(2) 0.9166(4) 0.6158(4)
C7_9 C 0.9242(2) 0.9809(4) 0.6185(4)
O12_9 O 0.9325(2) 0.2131(4) 0.6695(5)
C10_9 C 0.98593(16) 0.4429(2) 0.5821(2)
H4_9 H 0.9807 0.4797 0.5453
C13_9 C 0.9617(2) 0.3334(4) 0.6342(4)
C14_9 C 0.9242(2) 0.2691(4) 0.6315(4)
O1_6 O 0.67977(12) 0.05226(19) 0.56470(19)
O2_6 O 0.67575(12) 0.03598(18) 0.69092(18)
C1_10 C 0.69037(15) 0.0190(2) 0.6250(3)
O5_6 O 0.67977(12) 0.19774(19) 0.68530(19)
O6_10 O 0.57023(12) 0.19774(19) 0.56470(19)
O7_6 O 0.67575(12) 0.21402(18) 0.55908(18)
O8_10 O 0.57425(12) 0.03598(18) 0.55908(18)
O12_10 O 0.8175(2) 0.5369(4) 0.6695(5)
C8_10 C 0.69037(15) 0.2310(2) 0.6250(3)
C9_10 C 0.72399(17) 0.2982(3) 0.6312(3)
C10_10 C 0.76407(16) 0.3071(2) 0.5821(2)
H4_10 H 0.7693 0.2703 0.5453
C11_10 C 0.7166(3) 0.3522(5) 0.6843(5)
H5_10 H 0.6905 0.3486 0.7199
C12_10 C 0.7486(3) 0.4124(6) 0.6845(6)
H6_10 H 0.7433 0.4508 0.7195
C13_10 C 0.7883(2) 0.4166(4) 0.6342(4)
C14_10 C 0.8258(2) 0.4809(4) 0.6315(4)
O4_5 O 0.8175(2) 0.7131(4) 0.5805(5)
C2_9 C 0.72399(17) 0.9518(3) 0.6188(3)
C3_10 C 0.76407(16) 0.9429(2) 0.6679(2)
H1_10 H 0.7693 0.9797 0.7047
C4_9 C 0.7166(3) 0.8978(5) 0.5657(5)
H2_9 H 0.6905 0.9014 0.5301
C5_9 C 0.7486(3) 0.8376(6) 0.5655(6)
H3_9 H 0.7433 0.7992 0.5305
C6_10 C 0.7883(2) 0.8334(4) 0.6158(4)
C7_10 C 0.8258(2) 0.7691(4) 0.6185(4)
O1_7 O 0.07023(12) 0.05226(19) 0.18530(19)
O2_7 O 0.07425(12) 0.03598(18) 0.05908(18)
C1_11 C 0.05963(15) 0.0190(2) 0.1250(3)
O5_7 O 0.07023(12) 0.19774(19) 0.06470(19)
O6_11 O 0.17977(12) 0.19774(19) 0.18530(19)
O7_7 O 0.07425(12) 0.21402(18) 0.19092(18)
O8_11 O 0.17575(12) 0.03598(18) 0.19092(18)
C8_11 C 0.05963(15) 0.2310(2) 0.1250(3)
C9_11 C 0.02601(17) 0.2982(3) 0.1188(3)
C11_11 C 0.0334(3) 0.3522(5) 0.0657(5)
H5_11 H 0.0595 0.3486 0.0301
C12_11 C 0.0014(3) 0.4124(6) 0.0655(6)
H6_11 H 0.0067 0.4508 0.0305
O12_11 O 0.9325(2) 0.5369(4) 0.0805(5)
C10_11 C 0.98593(16) 0.3071(2) 0.1679(2)
H4_11 H 0.9807 0.2703 0.2047
C13_11 C 0.9617(2) 0.4166(4) 0.1158(4)
C14_11 C 0.9242(2) 0.4809(4) 0.1185(4)
O4_6 O 0.9325(2) 0.7131(4) 0.1695(5)
C3_11 C 0.98593(16) 0.9429(2) 0.0821(2)
H1_11 H 0.9807 0.9797 0.0453
C6_11 C 0.9617(2) 0.8334(4) 0.1342(4)
C7_11 C 0.9242(2) 0.7691(4) 0.1315(4)
O1_8 O 0.67977(12) 0.69774(19) 0.18530(19)
O2_8 O 0.67575(12) 0.71402(18) 0.05908(18)
C1_12 C 0.69037(15) 0.7310(2) 0.1250(3)
C2_10 C 0.72399(17) 0.7982(3) 0.1312(3)
C3_12 C 0.76407(16) 0.8071(2) 0.0821(2)
H1_12 H 0.7693 0.7703 0.0453
C4_10 C 0.7166(3) 0.8522(5) 0.1843(5)
H2_10 H 0.6905 0.8486 0.2199
C5_10 C 0.7486(3) 0.9124(6) 0.1845(6)
H3_10 H 0.7433 0.9508 0.2195
C6_12 C 0.7883(2) 0.9166(4) 0.1342(4)
C7_12 C 0.8258(2) 0.9809(4) 0.1315(4)
O5_8 O 0.67977(12) 0.55226(19) 0.06470(19)
O6_12 O 0.57023(12) 0.55226(19) 0.18530(19)
O7_8 O 0.67575(12) 0.53598(18) 0.19092(18)
O8_12 O 0.57425(12) 0.71402(18) 0.19092(18)
O12_12 O 0.8175(2) 0.2131(4) 0.0805(5)
C8_12 C 0.69037(15) 0.5190(2) 0.1250(3)
C9_12 C 0.72399(17) 0.4518(3) 0.1188(3)
C10_12 C 0.76407(16) 0.4429(2) 0.1679(2)
H4_12 H 0.7693 0.4797 0.2047
C11_12 C 0.7166(3) 0.3978(5) 0.0657(5)
H5_12 H 0.6905 0.4014 0.0301
C12_12 C 0.7486(3) 0.3376(6) 0.0655(6)
H6_12 H 0.7433 0.2992 0.0305
C13_12 C 0.7883(2) 0.3334(4) 0.1158(4)
C14_12 C 0.8258(2) 0.2691(4) 0.1185(4)
O6_13 O 0.17977(12) 0.05226(19) 0.06470(19)
O8_13 O 0.17575(12) 0.21402(18) 0.05908(18)
O6_14 O 0.57023(12) 0.69774(19) 0.06470(19)
O8_14 O 0.57425(12) 0.53598(18) 0.05908(18)
O6_15 O 0.17977(12) 0.69774(19) 0.68530(19)
O8_15 O 0.17575(12) 0.53598(18) 0.69092(18)
O6_16 O 0.57023(12) 0.05226(19) 0.68530(19)
O8_16 O 0.57425(12) 0.21402(18) 0.69092(18)
C1_13 C 0.55963(15) 0.7310(2) 0.1250(3)
C2_11 C 0.52601(17) 0.7982(3) 0.1188(3)
C3_13 C 0.48593(16) 0.8071(2) 0.1679(2)
H1_13 H 0.4807 0.7703 0.2047
C4_11 C 0.5334(3) 0.8522(5) 0.0657(5)
H2_11 H 0.5595 0.8486 0.0301
C5_11 C 0.5014(3) 0.9124(6) 0.0655(6)
H3_11 H 0.5067 0.9508 0.0305
C6_13 C 0.4617(2) 0.9166(4) 0.1158(4)
C7_13 C 0.4242(2) 0.9809(4) 0.1185(4)
O12_13 O 0.4325(2) 0.2131(4) 0.1695(5)
C8_13 C 0.55963(15) 0.5190(2) 0.1250(3)
C9_13 C 0.52601(17) 0.4518(3) 0.1312(3)
C10_13 C 0.48593(16) 0.4429(2) 0.0821(2)
H4_13 H 0.4807 0.4797 0.0453
C11_13 C 0.5334(3) 0.3978(5) 0.1843(5)
H5_13 H 0.5595 0.4014 0.2199
C12_13 C 0.5014(3) 0.3376(6) 0.1845(6)
H6_13 H 0.5067 0.2992 0.2195
C13_13 C 0.4617(2) 0.3334(4) 0.1342(4)
C14_13 C 0.4242(2) 0.2691(4) 0.1315(4)
C1_14 C 0.19037(15) 0.0190(2) 0.1250(3)
O12_14 O 0.3175(2) 0.5369(4) 0.1695(5)
C8_14 C 0.19037(15) 0.2310(2) 0.1250(3)
C9_14 C 0.22399(17) 0.2982(3) 0.1312(3)
C10_14 C 0.26407(16) 0.3071(2) 0.0821(2)
H4_14 H 0.2693 0.2703 0.0453
C11_14 C 0.2166(3) 0.3522(5) 0.1843(5)
H5_14 H 0.1905 0.3486 0.2199
C12_14 C 0.2486(3) 0.4124(6) 0.1845(6)
H6_14 H 0.2433 0.4508 0.2195
C13_14 C 0.2883(2) 0.4166(4) 0.1342(4)
C14_14 C 0.3258(2) 0.4809(4) 0.1315(4)
O4_7 O 0.3175(2) 0.7131(4) 0.0805(5)
C2_12 C 0.22399(17) 0.9518(3) 0.1188(3)
C3_14 C 0.26407(16) 0.9429(2) 0.1679(2)
H1_14 H 0.2693 0.9797 0.2047
C4_12 C 0.2166(3) 0.8978(5) 0.0657(5)
H2_12 H 0.1905 0.9014 0.0301
C5_12 C 0.2486(3) 0.8376(6) 0.0655(6)
H3_12 H 0.2433 0.7992 0.0305
C6_14 C 0.2883(2) 0.8334(4) 0.1158(4)
C7_14 C 0.3258(2) 0.7691(4) 0.1185(4)
C1_15 C 0.55963(15) 0.0190(2) 0.6250(3)
O12_15 O 0.4325(2) 0.5369(4) 0.5805(5)
C8_15 C 0.55963(15) 0.2310(2) 0.6250(3)
C9_15 C 0.52601(17) 0.2982(3) 0.6188(3)
C10_15 C 0.48593(16) 0.3071(2) 0.6679(2)
H4_15 H 0.4807 0.2703 0.7047
C11_15 C 0.5334(3) 0.3522(5) 0.5657(5)
H5_15 H 0.5595 0.3486 0.5301
C12_15 C 0.5014(3) 0.4124(6) 0.5655(6)
H6_15 H 0.5067 0.4508 0.5305
C13_15 C 0.4617(2) 0.4166(4) 0.6158(4)
C14_15 C 0.4242(2) 0.4809(4) 0.6185(4)
O4_8 O 0.4325(2) 0.7131(4) 0.6695(5)
C2_13 C 0.52601(17) 0.9518(3) 0.6312(3)
C3_15 C 0.48593(16) 0.9429(2) 0.5821(2)
H1_15 H 0.4807 0.9797 0.5453
C4_13 C 0.5334(3) 0.8978(5) 0.6843(5)
H2_13 H 0.5595 0.9014 0.7199
C5_13 C 0.5014(3) 0.8376(6) 0.6845(6)
H3_13 H 0.5067 0.7992 0.7195
C6_15 C 0.4617(2) 0.8334(4) 0.6342(4)
C7_15 C 0.4242(2) 0.7691(4) 0.6315(4)
C1_16 C 0.19037(15) 0.7310(2) 0.6250(3)
C2_14 C 0.22399(17) 0.7982(3) 0.6312(3)
C3_16 C 0.26407(16) 0.8071(2) 0.5821(2)
H1_16 H 0.2693 0.7703 0.5453
C4_14 C 0.2166(3) 0.8522(5) 0.6843(5)
H2_14 H 0.1905 0.8486 0.7199
C5_14 C 0.2486(3) 0.9124(6) 0.6845(6)
H3_14 H 0.2433 0.9508 0.7195
C6_16 C 0.2883(2) 0.9166(4) 0.6342(4)
C7_16 C 0.3258(2) 0.9809(4) 0.6315(4)
O12_16 O 0.3175(2) 0.2131(4) 0.5805(5)
C8_16 C 0.19037(15) 0.5190(2) 0.6250(3)
C9_16 C 0.22399(17) 0.4518(3) 0.6188(3)
C10_16 C 0.26407(16) 0.4429(2) 0.6679(2)
H4_16 H 0.2693 0.4797 0.7047
C11_16 C 0.2166(3) 0.3978(5) 0.5657(5)
H5_16 H 0.1905 0.4014 0.5301
C12_16 C 0.2486(3) 0.3376(6) 0.5655(6)
H6_16 H 0.2433 0.2992 0.5305
C13_16 C 0.2883(2) 0.3334(4) 0.6158(4)
C14_16 C 0.3258(2) 0.2691(4) 0.6185(4)
O4_9 O 0.0675(2) 0.9631(4) 0.4195(5)
C2_15 C 0.97399(17) 0.0482(3) 0.8688(3)
C4_15 C 0.9666(3) 0.1022(5) 0.8157(5)
H2_15 H 0.9405 0.0986 0.7801
C5_15 C 0.9986(3) 0.1624(6) 0.8155(6)
H3_15 H 0.9933 0.2008 0.7805
O4_10 O 0.1825(2) 0.9631(4) 0.8305(5)
O4_11 O 0.5675(2) 0.9631(4) 0.9195(5)
O4_12 O 0.6825(2) 0.9631(4) 0.3305(5)
O4_13 O 0.9325(2) 0.0369(4) 0.5805(5)
C2_16 C 0.02601(17) 0.9518(3) 0.1312(3)
C4_16 C 0.0334(3) 0.8978(5) 0.1843(5)
H2_16 H 0.0595 0.9014 0.2199
C5_16 C 0.0014(3) 0.8376(6) 0.1845(6)
H3_16 H 0.0067 0.7992 0.2195
O4_14 O 0.8175(2) 0.0369(4) 0.1695(5)
O4_15 O 0.4325(2) 0.0369(4) 0.0805(5)
O4_16 O 0.3175(2) 0.0369(4) 0.6695(5)
N5 N 0.1499(3) 0.8750 0.3750
H7 H 0.1297 0.9144 0.3661
C15 C 0.1774(3) 0.8896(4) 0.4438(4)
H8 H 0.2091 0.8637 0.4422
H9 H 0.1581 0.8728 0.4873
H10 H 0.1834 0.9422 0.4482
H11 H 0.1297 0.8356 0.3839
C16 C 0.1774(3) 0.8604(4) 0.3062(4)
H12 H 0.2091 0.8863 0.3078
H13 H 0.1581 0.8772 0.2627
H14 H 0.1834 0.8078 0.3018
N5_2 N 0.1001(3) 0.3750 0.3750
H7_2 H 0.1203 0.3356 0.3661
C15_2 C 0.0726(3) 0.3604(4) 0.4438(4)
H8_2 H 0.0409 0.3863 0.4422
H9_2 H 0.0919 0.3772 0.4873
H10_2 H 0.0666 0.3078 0.4482
H11_2 H 0.1203 0.4144 0.3839
C16_2 C 0.0726(3) 0.3896(4) 0.3062(4)
H12_2 H 0.0409 0.3637 0.3078
H13_2 H 0.0919 0.3728 0.2627
H14_2 H 0.0666 0.4422 0.3018
N5_3 N 0.1499(3) 0.3750 0.8750
H7_3 H 0.1297 0.3356 0.8839
C15_3 C 0.1774(3) 0.3604(4) 0.8062(4)
H8_3 H 0.2091 0.3863 0.8078
H9_3 H 0.1581 0.3772 0.7627
H10_3 H 0.1834 0.3078 0.8018
H11_3 H 0.1297 0.4144 0.8661
C16_3 C 0.1774(3) 0.3896(4) 0.9438(4)
H12_3 H 0.2091 0.3637 0.9422
H13_3 H 0.1581 0.3728 0.9873
H14_3 H 0.1834 0.4422 0.9482
N5_4 N 0.1001(3) 0.8750 0.8750
H7_4 H 0.1203 0.9144 0.8839
C15_4 C 0.0726(3) 0.8896(4) 0.8062(4)
H8_4 H 0.0409 0.8637 0.8078
H9_4 H 0.0919 0.8728 0.7627
H10_4 H 0.0666 0.9422 0.8018
H11_4 H 0.1203 0.8356 0.8661
C16_4 C 0.0726(3) 0.8604(4) 0.9438(4)
H12_4 H 0.0409 0.8863 0.9422
H13_4 H 0.0919 0.8772 0.9873
H14_4 H 0.0666 0.8078 0.9482
N5_5 N 0.6499(3) 0.8750 0.8750
H7_5 H 0.6297 0.9144 0.8661
C15_5 C 0.6774(3) 0.8896(4) 0.9438(4)
H8_5 H 0.7091 0.8637 0.9422
H9_5 H 0.6581 0.8728 0.9873
H10_5 H 0.6834 0.9422 0.9482
H11_5 H 0.6297 0.8356 0.8839
C16_5 C 0.6774(3) 0.8604(4) 0.8062(4)
H12_5 H 0.7091 0.8863 0.8078
H13_5 H 0.6581 0.8772 0.7627
H14_5 H 0.6834 0.8078 0.8018
N5_6 N 0.6001(3) 0.3750 0.8750
H7_6 H 0.6203 0.3356 0.8661
C15_6 C 0.5726(3) 0.3604(4) 0.9438(4)
H8_6 H 0.5409 0.3863 0.9422
H9_6 H 0.5919 0.3772 0.9873
H10_6 H 0.5666 0.3078 0.9482
H11_6 H 0.6203 0.4144 0.8839
C16_6 C 0.5726(3) 0.3896(4) 0.8062(4)
H12_6 H 0.5409 0.3637 0.8078
H13_6 H 0.5919 0.3728 0.7627
H14_6 H 0.5666 0.4422 0.8018
N5_7 N 0.6499(3) 0.3750 0.3750
H7_7 H 0.6297 0.3356 0.3839
C15_7 C 0.6774(3) 0.3604(4) 0.3062(4)
H8_7 H 0.7091 0.3863 0.3078
H9_7 H 0.6581 0.3772 0.2627
H10_7 H 0.6834 0.3078 0.3018
H11_7 H 0.6297 0.4144 0.3661
C16_7 C 0.6774(3) 0.3896(4) 0.4438(4)
H12_7 H 0.7091 0.3637 0.4422
H13_7 H 0.6581 0.3728 0.4873
H14_7 H 0.6834 0.4422 0.4482
N5_8 N 0.6001(3) 0.8750 0.3750
H7_8 H 0.6203 0.9144 0.3839
C15_8 C 0.5726(3) 0.8896(4) 0.3062(4)
H8_8 H 0.5409 0.8637 0.3078
H9_8 H 0.5919 0.8728 0.2627
H10_8 H 0.5666 0.9422 0.3018
H11_8 H 0.6203 0.8356 0.3661
C16_8 C 0.5726(3) 0.8604(4) 0.4438(4)
H12_8 H 0.5409 0.8863 0.4422
H13_8 H 0.5919 0.8772 0.4873
H14_8 H 0.5666 0.8078 0.4482
N5_9 N 0.8501(3) 0.1250 0.6250
H7_9 H 0.8703 0.0856 0.6339
C15_9 C 0.8226(3) 0.1104(4) 0.5562(4)
H8_9 H 0.7909 0.1363 0.5578
H9_9 H 0.8419 0.1272 0.5127
H10_9 H 0.8166 0.0578 0.5518
H11_9 H 0.8703 0.1644 0.6161
C16_9 C 0.8226(3) 0.1396(4) 0.6938(4)
H12_9 H 0.7909 0.1137 0.6922
H13_9 H 0.8419 0.1228 0.7373
H14_9 H 0.8166 0.1922 0.6982
N5_10 N 0.8999(3) 0.6250 0.6250
H7_10 H 0.8797 0.6644 0.6339
C15_10 C 0.9274(3) 0.6396(4) 0.5562(4)
H8_10 H 0.9591 0.6137 0.5578
H9_10 H 0.9081 0.6228 0.5127
H10_10 H 0.9334 0.6922 0.5518
H11_10 H 0.8797 0.5856 0.6161
C16_10 C 0.9274(3) 0.6104(4) 0.6938(4)
H12_10 H 0.9591 0.6363 0.6922
H13_10 H 0.9081 0.6272 0.7373
H14_10 H 0.9334 0.5578 0.6982
N5_11 N 0.8501(3) 0.6250 0.1250
H7_11 H 0.8703 0.6644 0.1161
C15_11 C 0.8226(3) 0.6396(4) 0.1938(4)
H8_11 H 0.7909 0.6137 0.1922
H9_11 H 0.8419 0.6228 0.2373
H10_11 H 0.8166 0.6922 0.1982
H11_11 H 0.8703 0.5856 0.1339
C16_11 C 0.8226(3) 0.6104(4) 0.0562(4)
H12_11 H 0.7909 0.6363 0.0578
H13_11 H 0.8419 0.6272 0.0127
H14_11 H 0.8166 0.5578 0.0518
N5_12 N 0.8999(3) 0.1250 0.1250
H7_12 H 0.8797 0.0856 0.1161
C15_12 C 0.9274(3) 0.1104(4) 0.1938(4)
H8_12 H 0.9591 0.1363 0.1922
H9_12 H 0.9081 0.1272 0.2373
H10_12 H 0.9334 0.0578 0.1982
H11_12 H 0.8797 0.1644 0.1339
C16_12 C 0.9274(3) 0.1396(4) 0.0562(4)
H12_12 H 0.9591 0.1137 0.0578
H13_12 H 0.9081 0.1228 0.0127
H14_12 H 0.9334 0.1922 0.0518
N5_13 N 0.3501(3) 0.1250 0.1250
H7_13 H 0.3703 0.0856 0.1339
C15_13 C 0.3226(3) 0.1104(4) 0.0562(4)
H8_13 H 0.2909 0.1363 0.0578
H9_13 H 0.3419 0.1272 0.0127
H10_13 H 0.3166 0.0578 0.0518
H11_13 H 0.3703 0.1644 0.1161
C16_13 C 0.3226(3) 0.1396(4) 0.1938(4)
H12_13 H 0.2909 0.1137 0.1922
H13_13 H 0.3419 0.1228 0.2373
H14_13 H 0.3166 0.1922 0.1982
N5_14 N 0.3999(3) 0.6250 0.1250
H7_14 H 0.3797 0.6644 0.1339
C15_14 C 0.4274(3) 0.6396(4) 0.0562(4)
H8_14 H 0.4591 0.6137 0.0578
H9_14 H 0.4081 0.6228 0.0127
H10_14 H 0.4334 0.6922 0.0518
H11_14 H 0.3797 0.5856 0.1161
C16_14 C 0.4274(3) 0.6104(4) 0.1938(4)
H12_14 H 0.4591 0.6363 0.1922
H13_14 H 0.4081 0.6272 0.2373
H14_14 H 0.4334 0.5578 0.1982
N5_15 N 0.3501(3) 0.6250 0.6250
H7_15 H 0.3703 0.6644 0.6161
C15_15 C 0.3226(3) 0.6396(4) 0.6938(4)
H8_15 H 0.2909 0.6137 0.6922
H9_15 H 0.3419 0.6228 0.7373
H10_15 H 0.3166 0.6922 0.6982
H11_15 H 0.3703 0.5856 0.6339
C16_15 C 0.3226(3) 0.6104(4) 0.5562(4)
H12_15 H 0.2909 0.6363 0.5578
H13_15 H 0.3419 0.6272 0.5127
H14_15 H 0.3166 0.5578 0.5518
N5_16 N 0.3999(3) 0.1250 0.6250
H7_16 H 0.3797 0.0856 0.6161
C15_16 C 0.4274(3) 0.1104(4) 0.6938(4)
H8_16 H 0.4591 0.1363 0.6922
H9_16 H 0.4081 0.1272 0.7373
H10_16 H 0.4334 0.0578 0.6982
H11_16 H 0.3797 0.1644 0.6339
C16_16 C 0.4274(3) 0.1396(4) 0.5562(4)
H12_16 H 0.4591 0.1137 0.5578
H13_16 H 0.4081 0.1228 0.5127
H14_16 H 0.4334 0.1922 0.5518
loop_
_geom_bond_atom_site_label_1
_geom_bond_atom_site_label_2
_geom_bond_site_symmetry_1
_geom_bond_site_symmetry_2
O3 C7 1_555 1_555
N1 C3 1_555 1_555
C3 H1 1_555 1_555
C6 N1 1_555 1_555
C7 C6 1_555 1_555
Er3 O3 1_555 1_555
Er4 O9 1_555 1_555
O9 C14 1_555 1_555
O12 C14 1_555 1_555
N2 Er4 1_555 1_555
C10 N2 1_555 1_555
H4 C10 1_555 1_555
C13 N2 1_555 1_555
C14 C13 1_555 1_555
N1 Er3 1_555 1_555
Er1 O1 1_555 1_555
O1 C1 1_555 1_555
O2 C1 1_555 1_555
C1 C2 1_555 1_555
C4 C2 1_555 1_555
H2 C4 1_555 1_555
C5 C4 1_555 1_555
H3 C5 1_555 1_555
Er2 O2 1_555 1_555
O5 Er2 1_555 1_555
O6 Er1 1_555 1_555
O7 Er1 1_555 1_555
O8 Er1 1_555 1_555
O10 Er1 1_555 1_555
O11 Er1 1_555 1_555
N3 Er1 1_555 1_555
N4 Er1 1_555 1_555
C8 O5 1_555 1_555
C9 C8 1_555 1_555
C11 C9 1_555 1_555
H5 C11 1_555 1_555
C12 C11 1_555 1_555
H6 C12 1_555 1_555
O7 C8 1_555 1_555
O3_2 C7_2 1_555 1_555
O4 C7_2 1_555 1_555
N1_2 C3_2 1_555 1_555
C2_2 C3_2 1_555 1_555
C3_2 H1_2 1_555 1_555
C4_2 C2_2 1_555 1_555
H2_2 C4_2 1_555 1_555
C5_2 C4_2 1_555 1_555
H3_2 C5_2 1_555 1_555
C6_2 N1_2 1_555 1_555
C7_2 C6_2 1_555 1_555
Er3 O3_2 1_555 1_555
N1_2 Er3 1_555 1_555
C5_2 C6_2 1_555 1_555
Er1_2 O1_2 1_555 1_555
O1_2 C1_2 1_555 1_555
O2_2 C1_2 1_555 1_555
Er2_2 O2_2 1_555 1_555
Er4 O9_2 1_555 1_555
O5_2 Er2_2 1_555 1_555
O6_2 Er1_2 1_555 1_555
O7_2 Er1_2 1_555 1_555
O8_2 Er1_2 1_555 1_555
O9_2 C14_2 1_555 1_555
O10_2 Er1_2 1_555 1_555
O11_2 Er1_2 1_555 1_555
O12_2 C14_2 1_555 1_555
N2_2 Er4 1_555 1_555
N3_2 Er1_2 1_555 1_555
N4_2 Er1_2 1_555 1_555
C8_2 O5_2 1_555 1_555
C9_2 C8_2 1_555 1_555
C10_2 N2_2 1_555 1_555
H4_2 C10_2 1_555 1_555
C11_2 C9_2 1_555 1_555
H5_2 C11_2 1_555 1_555
C12_2 C11_2 1_555 1_555
H6_2 C12_2 1_555 1_555
C13_2 N2_2 1_555 1_555
C14_2 C13_2 1_555 1_555
O7_2 C8_2 1_555 1_555
C9_2 C10_2 1_555 1_555
C12_2 C13_2 1_555 1_555
O3_3 C7_3 1_555 1_555
O4_2 C7_3 1_555 1_555
N1_3 C3_3 1_555 1_555
C3_3 H1_3 1_555 1_555
C6_3 N1_3 1_555 1_555
C7_3 C6_3 1_555 1_555
Er3_2 O3_3 1_555 1_555
N1_3 Er3_2 1_555 1_555
Er4_2 O9_3 1_555 1_555
O9_3 C14_3 1_555 1_555
O12_3 C14_3 1_555 1_555
N2_3 Er4_2 1_555 1_555
C10_3 N2_3 1_555 1_555
H4_3 C10_3 1_555 1_555
C13_3 N2_3 1_555 1_555
C14_3 C13_3 1_555 1_555
Er1_3 O1_3 1_555 1_555
O1_3 C1_3 1_555 1_555
O2_3 C1_3 1_555 1_555
O6_3 Er1_3 1_555 1_555
O7_3 Er1_3 1_555 1_555
O8_3 Er1_3 1_555 1_555
O10_3 Er1_3 1_555 1_555
O11_3 Er1_3 1_555 1_555
N3_3 Er1_3 1_555 1_555
N4_3 Er1_3 1_555 1_555
C8_3 O5_3 1_555 1_555
C9_3 C8_3 1_555 1_555
C11_3 C9_3 1_555 1_555
H5_3 C11_3 1_555 1_555
C12_3 C11_3 1_555 1_555
H6_3 C12_3 1_555 1_555
O7_3 C8_3 1_555 1_555
Er1_4 O1_4 1_555 1_555
O1_4 C1_4 1_555 1_555
O2_4 C1_4 1_555 1_555
O3_4 C7_4 1_555 1_555
N1_4 C3_4 1_555 1_555
C1_4 C2_3 1_555 1_555
C2_3 C3_4 1_555 1_555
C3_4 H1_4 1_555 1_555
C4_3 C2_3 1_555 1_555
H2_3 C4_3 1_555 1_555
C5_3 C4_3 1_555 1_555
H3_3 C5_3 1_555 1_555
C6_4 N1_4 1_555 1_555
C7_4 C6_4 1_555 1_555
Er3_2 O3_4 1_555 1_555
Er4_2 O9_4 1_555 1_555
O6_4 Er1_4 1_555 1_555
O7_4 Er1_4 1_555 1_555
O8_4 Er1_4 1_555 1_555
O9_4 C14_4 1_555 1_555
O10_4 Er1_4 1_555 1_555
O11_4 Er1_4 1_555 1_555
O12_4 C14_4 1_555 1_555
N2_4 Er4_2 1_555 1_555
N3_4 Er1_4 1_555 1_555
N4_4 Er1_4 1_555 1_555
C8_4 O5_4 1_555 1_555
C9_4 C8_4 1_555 1_555
C10_4 N2_4 1_555 1_555
H4_4 C10_4 1_555 1_555
C11_4 C9_4 1_555 1_555
H5_4 C11_4 1_555 1_555
C12_4 C11_4 1_555 1_555
H6_4 C12_4 1_555 1_555
C13_4 N2_4 1_555 1_555
C14_4 C13_4 1_555 1_555
N1_4 Er3_2 1_555 1_555
C5_3 C6_4 1_555 1_555
O7_4 C8_4 1_555 1_555
C9_4 C10_4 1_555 1_555
C12_4 C13_4 1_555 1_555
O10_5 Er2_3 1_555 1_555
O11_5 Er2_3 1_555 1_555
N3_5 Er2_3 1_555 1_555
N4_5 Er2_3 1_555 1_555
O10_6 Er2_4 1_555 1_555
O11_6 Er2_4 1_555 1_555
N3_6 Er2_4 1_555 1_555
N4_6 Er2_4 1_555 1_555
O6_7 Er2 1_555 1_555
O8_7 Er2 1_555 1_555
O10_7 Er2 1_555 1_555
O11_7 Er2 1_555 1_555
N3_7 Er2 1_555 1_555
N4_7 Er2 1_555 1_555
O6_8 Er2_2 1_555 1_555
O8_8 Er2_2 1_555 1_555
O10_8 Er2_2 1_555 1_555
O11_8 Er2_2 1_555 1_555
N3_8 Er2_2 1_555 1_555
N4_8 Er2_2 1_555 1_555
O6_6 C1_5 1_555 1_555
O8_4 C1_5 1_555 1_555
O3_5 C7_5 1_555 1_555
N1_5 C3_5 1_555 1_555
C1_5 C2_4 1_555 1_555
C2_4 C3_5 1_555 1_555
C3_5 H1_5 1_555 1_555
C4_4 C2_4 1_555 1_555
H2_4 C4_4 1_555 1_555
C5_4 C4_4 1_555 1_555
H3_4 C5_4 1_555 1_555
C6_5 N1_5 1_555 1_555
C7_5 C6_5 1_555 1_555
Er3_3 O3_5 1_555 1_555
Er4_3 O9_5 1_555 1_555
O9_5 C14_5 1_555 1_555
O12_5 C14_5 1_555 1_555
N2_5 Er4_3 1_555 1_555
C8_5 O6_4 1_555 1_555
C9_5 C8_5 1_555 1_555
C10_5 N2_5 1_555 1_555
H4_5 C10_5 1_555 1_555
C11_5 C9_5 1_555 1_555
H5_5 C11_5 1_555 1_555
C12_5 C11_5 1_555 1_555
H6_5 C12_5 1_555 1_555
C13_5 N2_5 1_555 1_555
C14_5 C13_5 1_555 1_555
N1_5 Er3_3 1_555 1_555
C5_4 C6_5 1_555 1_555
O8_6 C8_5 1_555 1_555
C9_5 C10_5 1_555 1_555
C12_5 C13_5 1_555 1_555
O3_6 C7_6 1_555 1_555
O4_3 C7_6 1_555 1_555
N1_6 C3_6 1_555 1_555
C2_5 C3_6 1_555 1_555
C3_6 H1_6 1_555 1_555
C4_5 C2_5 1_555 1_555
H2_5 C4_5 1_555 1_555
C5_5 C4_5 1_555 1_555
H3_5 C5_5 1_555 1_555
C6_6 N1_6 1_555 1_555
C7_6 C6_6 1_555 1_555
Er3_3 O3_6 1_555 1_555
N1_6 Er3_3 1_555 1_555
C5_5 C6_6 1_555 1_555
O6_5 C1_6 1_555 1_555
O8_3 C1_6 1_555 1_555
Er4_3 O9_6 1_555 1_555
O9_6 C14_6 1_555 1_555
O12_6 C14_6 1_555 1_555
N2_6 Er4_3 1_555 1_555
C8_6 O6_3 1_555 1_555
C9_6 C8_6 1_555 1_555
C10_6 N2_6 1_555 1_555
H4_6 C10_6 1_555 1_555
C11_6 C9_6 1_555 1_555
H5_6 C11_6 1_555 1_555
C12_6 C11_6 1_555 1_555
H6_6 C12_6 1_555 1_555
C13_6 N2_6 1_555 1_555
C14_6 C13_6 1_555 1_555
O8_5 C8_6 1_555 1_555
C9_6 C10_6 1_555 1_555
C12_6 C13_6 1_555 1_555
O3_7 C7_7 1_555 1_555
O4_4 C7_7 1_555 1_555
N1_7 C3_7 1_555 1_555
C2_6 C3_7 1_555 1_555
C3_7 H1_7 1_555 1_555
C4_6 C2_6 1_555 1_555
H2_6 C4_6 1_555 1_555
C5_6 C4_6 1_555 1_555
H3_6 C5_6 1_555 1_555
C6_7 N1_7 1_555 1_555
C7_7 C6_7 1_555 1_555
Er3_4 O3_7 1_555 1_555
N1_7 Er3_4 1_555 1_555
C5_6 C6_7 1_555 1_555
O6_8 C1_7 1_555 1_555
O8_2 C1_7 1_555 1_555
Er4_4 O9_7 1_555 1_555
O9_7 C14_7 1_555 1_555
O12_7 C14_7 1_555 1_555
N2_7 Er4_4 1_555 1_555
C8_7 O6_2 1_555 1_555
C9_7 C8_7 1_555 1_555
C10_7 N2_7 1_555 1_555
H4_7 C10_7 1_555 1_555
C11_7 C9_7 1_555 1_555
H5_7 C11_7 1_555 1_555
C12_7 C11_7 1_555 1_555
H6_7 C12_7 1_555 1_555
C13_7 N2_7 1_555 1_555
C14_7 C13_7 1_555 1_555
O8_8 C8_7 1_555 1_555
C9_7 C10_7 1_555 1_555
C12_7 C13_7 1_555 1_555
O6_7 C1_8 1_555 1_555
O8 C1_8 1_555 1_555
O3_8 C7_8 1_555 1_555
N1_8 C3_8 1_555 1_555
C1_8 C2_7 1_555 1_555
C2_7 C3_8 1_555 1_555
C3_8 H1_8 1_555 1_555
C4_7 C2_7 1_555 1_555
H2_7 C4_7 1_555 1_555
C5_7 C4_7 1_555 1_555
H3_7 C5_7 1_555 1_555
C6_8 N1_8 1_555 1_555
C7_8 C6_8 1_555 1_555
Er3_4 O3_8 1_555 1_555
Er4_4 O9_8 1_555 1_555
O9_8 C14_8 1_555 1_555
O12_8 C14_8 1_555 1_555
N2_8 Er4_4 1_555 1_555
C8_8 O6 1_555 1_555
C9_8 C8_8 1_555 1_555
C10_8 N2_8 1_555 1_555
H4_8 C10_8 1_555 1_555
C11_8 C9_8 1_555 1_555
H5_8 C11_8 1_555 1_555
C12_8 C11_8 1_555 1_555
H6_8 C12_8 1_555 1_555
C13_8 N2_8 1_555 1_555
C14_8 C13_8 1_555 1_555
N1_8 Er3_4 1_555 1_555
C5_7 C6_8 1_555 1_555
O8_7 C8_8 1_555 1_555
C9_8 C10_8 1_555 1_555
C12_8 C13_8 1_555 1_555
Er4 O1_5 1_555 1_555
O1_5 C1_9 1_555 1_555
O2_5 C1_9 1_555 1_555
C1_9 C2_8 1_555 1_555
C4_8 C2_8 1_555 1_555
H2_8 C4_8 1_555 1_555
C5_8 C4_8 1_555 1_555
H3_8 C5_8 1_555 1_555
Er4_2 O2_5 1_555 1_555
O5_5 Er4_2 1_555 1_555
O6_9 Er4 1_555 1_555
O7_5 Er4 1_555 1_555
O8_9 Er4 1_555 1_555
C8_9 O5_5 1_555 1_555
C9_9 C8_9 1_555 1_555
C11_9 C9_9 1_555 1_555
H5_9 C11_9 1_555 1_555
C12_9 C11_9 1_555 1_555
H6_9 C12_9 1_555 1_555
O7_5 C8_9 1_555 1_555
O10_3 C7_9 1_555 1_555
N3_3 C3_9 1_555 1_555
C3_9 H1_9 1_555 1_555
C6_9 N3_3 1_555 1_555
C7_9 C6_9 1_555 1_555
O10 C14_9 1_555 1_555
O12_9 C14_9 1_555 1_555
C10_9 N3 1_555 1_555
H4_9 C10_9 1_555 1_555
C13_9 N3 1_555 1_555
C14_9 C13_9 1_555 1_555
Er3_4 O1_6 1_555 1_555
O1_6 C1_10 1_555 1_555
O2_6 C1_10 1_555 1_555
Er3_3 O2_6 1_555 1_555
O5_6 Er3_3 1_555 1_555
O6_10 Er3_4 1_555 1_555
O7_6 Er3_4 1_555 1_555
O8_10 Er3_4 1_555 1_555
O11 C14_10 1_555 1_555
O12_10 C14_10 1_555 1_555
C8_10 O5_6 1_555 1_555
C9_10 C8_10 1_555 1_555
C10_10 N4 1_555 1_555
H4_10 C10_10 1_555 1_555
C11_10 C9_10 1_555 1_555
H5_10 C11_10 1_555 1_555
C12_10 C11_10 1_555 1_555
H6_10 C12_10 1_555 1_555
C13_10 N4 1_555 1_555
C14_10 C13_10 1_555 1_555
O7_6 C8_10 1_555 1_555
C9_10 C10_10 1_555 1_555
C12_10 C13_10 1_555 1_555
O11_3 C7_10 1_555 1_555
O4_5 C7_10 1_555 1_555
N4_3 C3_10 1_555 1_555
C2_9 C3_10 1_555 1_555
C3_10 H1_10 1_555 1_555
C4_9 C2_9 1_555 1_555
H2_9 C4_9 1_555 1_555
C5_9 C4_9 1_555 1_555
H3_9 C5_9 1_555 1_555
C6_10 N4_3 1_555 1_555
C7_10 C6_10 1_555 1_555
C5_9 C6_10 1_555 1_555
Er3 O1_7 1_555 1_555
O1_7 C1_11 1_555 1_555
O2_7 C1_11 1_555 1_555
O6_11 Er3 1_555 1_555
O7_7 Er3 1_555 1_555
O8_11 Er3 1_555 1_555
C8_11 O5_7 1_555 1_555
C9_11 C8_11 1_555 1_555
C11_11 C9_11 1_555 1_555
H5_11 C11_11 1_555 1_555
C12_11 C11_11 1_555 1_555
H6_11 C12_11 1_555 1_555
O7_7 C8_11 1_555 1_555
O10_7 C14_11 1_555 1_555
O12_11 C14_11 1_555 1_555
C10_11 N3_7 1_555 1_555
H4_11 C10_11 1_555 1_555
C13_11 N3_7 1_555 1_555
C14_11 C13_11 1_555 1_555
O10_5 C7_11 1_555 1_555
O4_6 C7_11 1_555 1_555
N3_5 C3_11 1_555 1_555
C3_11 H1_11 1_555 1_555
C6_11 N3_5 1_555 1_555
C7_11 C6_11 1_555 1_555
Er4_4 O1_8 1_555 1_555
O1_8 C1_12 1_555 1_555
O2_8 C1_12 1_555 1_555
O11_5 C7_12 1_555 1_555
N4_5 C3_12 1_555 1_555
C1_12 C2_10 1_555 1_555
C2_10 C3_12 1_555 1_555
C3_12 H1_12 1_555 1_555
C4_10 C2_10 1_555 1_555
H2_10 C4_10 1_555 1_555
C5_10 C4_10 1_555 1_555
H3_10 C5_10 1_555 1_555
C6_12 N4_5 1_555 1_555
C7_12 C6_12 1_555 1_555
O6_12 Er4_4 1_555 1_555
O7_8 Er4_4 1_555 1_555
O8_12 Er4_4 1_555 1_555
O11_7 C14_12 1_555 1_555
O12_12 C14_12 1_555 1_555
C8_12 O5_8 1_555 1_555
C9_12 C8_12 1_555 1_555
C10_12 N4_7 1_555 1_555
H4_12 C10_12 1_555 1_555
C11_12 C9_12 1_555 1_555
H5_12 C11_12 1_555 1_555
C12_12 C11_12 1_555 1_555
H6_12 C12_12 1_555 1_555
C13_12 N4_7 1_555 1_555
C14_12 C13_12 1_555 1_555
C5_10 C6_12 1_555 1_555
O7_8 C8_12 1_555 1_555
C9_12 C10_12 1_555 1_555
C12_12 C13_12 1_555 1_555
O6_15 Er4_2 1_555 1_555
O8_15 Er4_2 1_555 1_555
O6_16 Er3_3 1_555 1_555
O8_16 Er3_3 1_555 1_555
O6_14 C1_13 1_555 1_555
O8_12 C1_13 1_555 1_555
O11_8 C7_13 1_555 1_555
N4_8 C3_13 1_555 1_555
C1_13 C2_11 1_555 1_555
C2_11 C3_13 1_555 1_555
C3_13 H1_13 1_555 1_555
C4_11 C2_11 1_555 1_555
H2_11 C4_11 1_555 1_555
C5_11 C4_11 1_555 1_555
H3_11 C5_11 1_555 1_555
C6_13 N4_8 1_555 1_555
C7_13 C6_13 1_555 1_555
O11_6 C14_13 1_555 1_555
O12_13 C14_13 1_555 1_555
C8_13 O6_12 1_555 1_555
C9_13 C8_13 1_555 1_555
C10_13 N4_6 1_555 1_555
H4_13 C10_13 1_555 1_555
C11_13 C9_13 1_555 1_555
H5_13 C11_13 1_555 1_555
C12_13 C11_13 1_555 1_555
H6_13 C12_13 1_555 1_555
C13_13 N4_6 1_555 1_555
C14_13 C13_13 1_555 1_555
C5_11 C6_13 1_555 1_555
O8_14 C8_13 1_555 1_555
C9_13 C10_13 1_555 1_555
C12_13 C13_13 1_555 1_555
O6_13 C1_14 1_555 1_555
O8_11 C1_14 1_555 1_555
O10_6 C14_14 1_555 1_555
O12_14 C14_14 1_555 1_555
C8_14 O6_11 1_555 1_555
C9_14 C8_14 1_555 1_555
C10_14 N3_6 1_555 1_555
H4_14 C10_14 1_555 1_555
C11_14 C9_14 1_555 1_555
H5_14 C11_14 1_555 1_555
C12_14 C11_14 1_555 1_555
H6_14 C12_14 1_555 1_555
C13_14 N3_6 1_555 1_555
C14_14 C13_14 1_555 1_555
O8_13 C8_14 1_555 1_555
C9_14 C10_14 1_555 1_555
C12_14 C13_14 1_555 1_555
O10_8 C7_14 1_555 1_555
O4_7 C7_14 1_555 1_555
N3_8 C3_14 1_555 1_555
C2_12 C3_14 1_555 1_555
C3_14 H1_14 1_555 1_555
C4_12 C2_12 1_555 1_555
H2_12 C4_12 1_555 1_555
C5_12 C4_12 1_555 1_555
H3_12 C5_12 1_555 1_555
C6_14 N3_8 1_555 1_555
C7_14 C6_14 1_555 1_555
C5_12 C6_14 1_555 1_555
O6_16 C1_15 1_555 1_555
O8_10 C1_15 1_555 1_555
O11_4 C14_15 1_555 1_555
O12_15 C14_15 1_555 1_555
C8_15 O6_10 1_555 1_555
C9_15 C8_15 1_555 1_555
C10_15 N4_4 1_555 1_555
H4_15 C10_15 1_555 1_555
C11_15 C9_15 1_555 1_555
H5_15 C11_15 1_555 1_555
C12_15 C11_15 1_555 1_555
H6_15 C12_15 1_555 1_555
C13_15 N4_4 1_555 1_555
C14_15 C13_15 1_555 1_555
O8_16 C8_15 1_555 1_555
C9_15 C10_15 1_555 1_555
C12_15 C13_15 1_555 1_555
O11_2 C7_15 1_555 1_555
O4_8 C7_15 1_555 1_555
N4_2 C3_15 1_555 1_555
C2_13 C3_15 1_555 1_555
C3_15 H1_15 1_555 1_555
C4_13 C2_13 1_555 1_555
H2_13 C4_13 1_555 1_555
C5_13 C4_13 1_555 1_555
H3_13 C5_13 1_555 1_555
C6_15 N4_2 1_555 1_555
C7_15 C6_15 1_555 1_555
C5_13 C6_15 1_555 1_555
O6_15 C1_16 1_555 1_555
O8_9 C1_16 1_555 1_555
O10_2 C7_16 1_555 1_555
N3_2 C3_16 1_555 1_555
C1_16 C2_14 1_555 1_555
C2_14 C3_16 1_555 1_555
C3_16 H1_16 1_555 1_555
C4_14 C2_14 1_555 1_555
H2_14 C4_14 1_555 1_555
C5_14 C4_14 1_555 1_555
H3_14 C5_14 1_555 1_555
C6_16 N3_2 1_555 1_555
C7_16 C6_16 1_555 1_555
O10_4 C14_16 1_555 1_555
O12_16 C14_16 1_555 1_555
C8_16 O6_9 1_555 1_555
C9_16 C8_16 1_555 1_555
C10_16 N3_4 1_555 1_555
H4_16 C10_16 1_555 1_555
C11_16 C9_16 1_555 1_555
H5_16 C11_16 1_555 1_555
C12_16 C11_16 1_555 1_555
H6_16 C12_16 1_555 1_555
C13_16 N3_4 1_555 1_555
C14_16 C13_16 1_555 1_555
C5_14 C6_16 1_555 1_555
O8_15 C8_16 1_555 1_555
C9_16 C10_16 1_555 1_555
C12_16 C13_16 1_555 1_555
C4_15 C2_15 1_555 1_555
H2_15 C4_15 1_555 1_555
C5_15 C4_15 1_555 1_555
H3_15 C5_15 1_555 1_555
C4_16 C2_16 1_555 1_555
H2_16 C4_16 1_555 1_555
C5_16 C4_16 1_555 1_555
H3_16 C5_16 1_555 1_555
N5 H7 1_555 1_555
C15 N5 1_555 1_555
H8 C15 1_555 1_555
H9 C15 1_555 1_555
H10 C15 1_555 1_555
H11 N5 1_555 1_555
C16 N5 1_555 1_555
H12 C16 1_555 1_555
H13 C16 1_555 1_555
H14 C16 1_555 1_555
N5_2 H7_2 1_555 1_555
C15_2 N5_2 1_555 1_555
H8_2 C15_2 1_555 1_555
H9_2 C15_2 1_555 1_555
H10_2 C15_2 1_555 1_555
H11_2 N5_2 1_555 1_555
C16_2 N5_2 1_555 1_555
H12_2 C16_2 1_555 1_555
H13_2 C16_2 1_555 1_555
H14_2 C16_2 1_555 1_555
N5_3 H7_3 1_555 1_555
C15_3 N5_3 1_555 1_555
H8_3 C15_3 1_555 1_555
H9_3 C15_3 1_555 1_555
H10_3 C15_3 1_555 1_555
H11_3 N5_3 1_555 1_555
C16_3 N5_3 1_555 1_555
H12_3 C16_3 1_555 1_555
H13_3 C16_3 1_555 1_555
H14_3 C16_3 1_555 1_555
N5_4 H7_4 1_555 1_555
C15_4 N5_4 1_555 1_555
H8_4 C15_4 1_555 1_555
H9_4 C15_4 1_555 1_555
H10_4 C15_4 1_555 1_555
H11_4 N5_4 1_555 1_555
C16_4 N5_4 1_555 1_555
H12_4 C16_4 1_555 1_555
H13_4 C16_4 1_555 1_555
H14_4 C16_4 1_555 1_555
N5_5 H7_5 1_555 1_555
C15_5 N5_5 1_555 1_555
H8_5 C15_5 1_555 1_555
H9_5 C15_5 1_555 1_555
H10_5 C15_5 1_555 1_555
H11_5 N5_5 1_555 1_555
C16_5 N5_5 1_555 1_555
H12_5 C16_5 1_555 1_555
H13_5 C16_5 1_555 1_555
H14_5 C16_5 1_555 1_555
N5_6 H7_6 1_555 1_555
C15_6 N5_6 1_555 1_555
H8_6 C15_6 1_555 1_555
H9_6 C15_6 1_555 1_555
H10_6 C15_6 1_555 1_555
H11_6 N5_6 1_555 1_555
C16_6 N5_6 1_555 1_555
H12_6 C16_6 1_555 1_555
H13_6 C16_6 1_555 1_555
H14_6 C16_6 1_555 1_555
N5_7 H7_7 1_555 1_555
C15_7 N5_7 1_555 1_555
H8_7 C15_7 1_555 1_555
H9_7 C15_7 1_555 1_555
H10_7 C15_7 1_555 1_555
H11_7 N5_7 1_555 1_555
C16_7 N5_7 1_555 1_555
H12_7 C16_7 1_555 1_555
H13_7 C16_7 1_555 1_555
H14_7 C16_7 1_555 1_555
N5_8 H7_8 1_555 1_555
C15_8 N5_8 1_555 1_555
H8_8 C15_8 1_555 1_555
H9_8 C15_8 1_555 1_555
H10_8 C15_8 1_555 1_555
H11_8 N5_8 1_555 1_555
C16_8 N5_8 1_555 1_555
H12_8 C16_8 1_555 1_555
H13_8 C16_8 1_555 1_555
H14_8 C16_8 1_555 1_555
N5_9 H7_9 1_555 1_555
C15_9 N5_9 1_555 1_555
H8_9 C15_9 1_555 1_555
H9_9 C15_9 1_555 1_555
H10_9 C15_9 1_555 1_555
H11_9 N5_9 1_555 1_555
C16_9 N5_9 1_555 1_555
H12_9 C16_9 1_555 1_555
H13_9 C16_9 1_555 1_555
H14_9 C16_9 1_555 1_555
N5_10 H7_10 1_555 1_555
C15_10 N5_10 1_555 1_555
H8_10 C15_10 1_555 1_555
H9_10 C15_10 1_555 1_555
H10_10 C15_10 1_555 1_555
H11_10 N5_10 1_555 1_555
C16_10 N5_10 1_555 1_555
H12_10 C16_10 1_555 1_555
H13_10 C16_10 1_555 1_555
H14_10 C16_10 1_555 1_555
N5_11 H7_11 1_555 1_555
C15_11 N5_11 1_555 1_555
H8_11 C15_11 1_555 1_555
H9_11 C15_11 1_555 1_555
H10_11 C15_11 1_555 1_555
H11_11 N5_11 1_555 1_555
C16_11 N5_11 1_555 1_555
H12_11 C16_11 1_555 1_555
H13_11 C16_11 1_555 1_555
H14_11 C16_11 1_555 1_555
N5_12 H7_12 1_555 1_555
C15_12 N5_12 1_555 1_555
H8_12 C15_12 1_555 1_555
H9_12 C15_12 1_555 1_555
H10_12 C15_12 1_555 1_555
H11_12 N5_12 1_555 1_555
C16_12 N5_12 1_555 1_555
H12_12 C16_12 1_555 1_555
H13_12 C16_12 1_555 1_555
H14_12 C16_12 1_555 1_555
N5_13 H7_13 1_555 1_555
C15_13 N5_13 1_555 1_555
H8_13 C15_13 1_555 1_555
H9_13 C15_13 1_555 1_555
H10_13 C15_13 1_555 1_555
H11_13 N5_13 1_555 1_555
C16_13 N5_13 1_555 1_555
H12_13 C16_13 1_555 1_555
H13_13 C16_13 1_555 1_555
H14_13 C16_13 1_555 1_555
N5_14 H7_14 1_555 1_555
C15_14 N5_14 1_555 1_555
H8_14 C15_14 1_555 1_555
H9_14 C15_14 1_555 1_555
H10_14 C15_14 1_555 1_555
H11_14 N5_14 1_555 1_555
C16_14 N5_14 1_555 1_555
H12_14 C16_14 1_555 1_555
H13_14 C16_14 1_555 1_555
H14_14 C16_14 1_555 1_555
N5_15 H7_15 1_555 1_555
C15_15 N5_15 1_555 1_555
H8_15 C15_15 1_555 1_555
H9_15 C15_15 1_555 1_555
H10_15 C15_15 1_555 1_555
H11_15 N5_15 1_555 1_555
C16_15 N5_15 1_555 1_555
H12_15 C16_15 1_555 1_555
H13_15 C16_15 1_555 1_555
H14_15 C16_15 1_555 1_555
N5_16 H7_16 1_555 1_555
C15_16 N5_16 1_555 1_555
H8_16 C15_16 1_555 1_555
H9_16 C15_16 1_555 1_555
H10_16 C15_16 1_555 1_555
H11_16 N5_16 1_555 1_555
C16_16 N5_16 1_555 1_555
H12_16 C16_16 1_555 1_555
H13_16 C16_16 1_555 1_555
H14_16 C16_16 1_555 1_555

#END
