
###############################################################################
#
# This file contains modified crystal structure data generated from the
# MOF subset of the Cambridge Structural Database (CSD) v543 
# hosted by the Cambridge Crystallographic Data Centre (CCDC).
#
# This work is licensed under the Creative Commons
# Attribution-NonCommercial-ShareAlike 4.0 International License.
# To view a copy of this license, visit
# http://creativecommons.org/licenses/by-nc-sa/4.0/
# or send a letter to
# Creative Commons, PO Box 1866, Mountain View, CA 94042, USA.
#
# CIF created using the CSD Python API on 29 September 2022
# The structure has been converted into the P1 space group
# The structure has a 3D framework
# The original CSD entry GUXSEY is in the orthorhombic crystal system
# The framework has been calculated to contain at least 10.0% void space
# The void calculation uses a probe of radius 1.32A, grid spacing 0.4
#
###############################################################################

data_GUXSEY
_chemical_formula_moiety         '(C256 H224 Eu8 N48 O128 8+)n'
_symmetry_cell_setting           triclinic
_symmetry_space_group_name_H-M   'P 1'
_symmetry_Int_Tables_number      1
_space_group_name_Hall           'P 1'
loop_
_symmetry_equiv_pos_site_id
_symmetry_equiv_pos_as_xyz
1 x,y,z
_cell_length_a                   26.7127(8)
_cell_length_b                   17.9748(7)
_cell_length_c                   17.8024(7)
_cell_angle_alpha                90
_cell_angle_beta                 90
_cell_angle_gamma                90
_cell_volume                     8547.92
loop_
_atom_site_label
_atom_site_type_symbol
_atom_site_fract_x
_atom_site_fract_y
_atom_site_fract_z
N1 N 0.04515(14) 0.1335(2) 0.3331(2)
O3 O 0.11357(12) 0.02812(19) 0.3412(2)
C3 C 0.01284(18) 0.1896(3) 0.3314(3)
H1 H 0.0169 0.2248 0.2936
C5 C 0.0001(3) 0.0874(6) 0.4345(6)
C6 C 0.0385(2) 0.0818(4) 0.3842(4)
C7 C 0.0764(3) 0.0190(4) 0.3830(4)
Eu2 Eu 0.1250 0.1250 0.252045(17)
Eu4 Eu 0.1250 0.6250 0.497955(17)
N2 N 0.04515(14) 0.6165(2) 0.4169(2)
O9 O 0.11357(12) 0.72188(19) 0.4088(2)
C10 C 0.01284(18) 0.5604(3) 0.4186(3)
H4 H 0.0169 0.5252 0.4564
O12 O 0.0684(2) 0.7865(4) 0.3288(5)
C12 C 0.0001(3) 0.6626(6) 0.3155(6)
C13 C 0.0385(2) 0.6682(4) 0.3658(4)
C14 C 0.0764(3) 0.7310(4) 0.3670(4)
Eu1 Eu 0.8750 0.3750 0.502045(17)
O1 O 0.92637(15) 0.2961(2) 0.4332(2)
C1 C 0.94057(18) 0.2666(3) 0.3743(3)
O2 O 0.93019(14) 0.2879(2) 0.3098(2)
C2 C 0.97421(19) 0.1998(3) 0.3805(3)
C4 C 0.9683(3) 0.1478(5) 0.4335(5)
H2 H 0.9430 0.1523 0.4692
H3 H 0.9954 0.0500 0.4699
Eu3 Eu 0.8750 0.3750 0.247955(17)
O5 O 0.92637(15) 0.4539(2) 0.3168(2)
O6 O 0.82363(15) 0.4539(2) 0.4332(2)
N3 N 0.95485(14) 0.3835(2) 0.5831(2)
N4 N 0.79515(14) 0.3665(2) 0.5831(2)
C8 C 0.94057(18) 0.4834(3) 0.3757(3)
O7 O 0.93019(14) 0.4621(2) 0.4402(2)
O8 O 0.81981(14) 0.2879(2) 0.4402(2)
C9 C 0.97421(19) 0.5502(3) 0.3695(3)
O10 O 0.88643(12) 0.27812(19) 0.5912(2)
O11 O 0.86357(12) 0.47188(19) 0.5912(2)
C11 C 0.9683(3) 0.6022(5) 0.3165(5)
H5 H 0.9430 0.5977 0.2808
H6 H 0.9954 0.7000 0.2801
N1_2 N 0.20485(14) 0.1165(2) 0.3331(2)
C2_2 C 0.27579(19) 0.0502(3) 0.3805(3)
O3_2 O 0.13643(12) 0.22188(19) 0.3412(2)
C3_2 C 0.23716(18) 0.0604(3) 0.3314(3)
H1_2 H 0.2331 0.0252 0.2936
O4 O 0.1816(2) 0.2865(4) 0.4212(5)
C4_2 C 0.2817(3) 0.1022(5) 0.4335(5)
H2_2 H 0.3070 0.0977 0.4692
C5_2 C 0.2499(3) 0.1626(6) 0.4345(6)
H3_2 H 0.2546 0.2000 0.4699
C6_2 C 0.2115(2) 0.1682(4) 0.3842(4)
C7_2 C 0.1736(3) 0.2310(4) 0.3830(4)
Eu1_2 Eu 0.3750 0.8750 0.502045(17)
O1_2 O 0.32363(15) 0.9539(2) 0.4332(2)
C1_2 C 0.30943(18) 0.9834(3) 0.3743(3)
O2_2 O 0.31981(14) 0.9621(2) 0.3098(2)
Eu3_2 Eu 0.3750 0.8750 0.247955(17)
O5_2 O 0.32363(15) 0.7961(2) 0.3168(2)
O6_2 O 0.42637(15) 0.7961(2) 0.4332(2)
N2_2 N 0.20485(14) 0.6335(2) 0.4169(2)
N3_2 N 0.29515(14) 0.8665(2) 0.5831(2)
N4_2 N 0.45485(14) 0.8835(2) 0.5831(2)
C8_2 C 0.30943(18) 0.7666(3) 0.3757(3)
O7_2 O 0.31981(14) 0.7879(2) 0.4402(2)
O8_2 O 0.43019(14) 0.9621(2) 0.4402(2)
C9_2 C 0.27579(19) 0.6998(3) 0.3695(3)
O9_2 O 0.13643(12) 0.52812(19) 0.4088(2)
O10_2 O 0.36357(12) 0.97188(19) 0.5912(2)
O11_2 O 0.38643(12) 0.77812(19) 0.5912(2)
C10_2 C 0.23716(18) 0.6896(3) 0.4186(3)
H4_2 H 0.2331 0.7248 0.4564
O12_2 O 0.1816(2) 0.4635(4) 0.3288(5)
C11_2 C 0.2817(3) 0.6478(5) 0.3165(5)
H5_2 H 0.3070 0.6523 0.2808
C12_2 C 0.2499(3) 0.5874(6) 0.3155(6)
H6_2 H 0.2546 0.5500 0.2801
C13_2 C 0.2115(2) 0.5818(4) 0.3658(4)
C14_2 C 0.1736(3) 0.5190(4) 0.3670(4)
N1_3 N 0.04515(14) 0.1165(2) 0.9169(2)
O3_3 O 0.11357(12) 0.22188(19) 0.9088(2)
C3_3 C 0.01284(18) 0.0604(3) 0.9186(3)
H1_3 H 0.0169 0.0252 0.9564
O4_2 O 0.0684(2) 0.2865(4) 0.8288(5)
C5_3 C 0.0001(3) 0.1626(6) 0.8155(6)
C6_3 C 0.0385(2) 0.1682(4) 0.8658(4)
C7_3 C 0.0764(3) 0.2310(4) 0.8670(4)
Eu2_2 Eu 0.1250 0.1250 0.997955(17)
Eu4_2 Eu 0.1250 0.6250 0.752045(17)
N2_3 N 0.04515(14) 0.6335(2) 0.8331(2)
O9_3 O 0.11357(12) 0.52812(19) 0.8412(2)
C10_3 C 0.01284(18) 0.6896(3) 0.8314(3)
H4_3 H 0.0169 0.7248 0.7936
O12_3 O 0.0684(2) 0.4635(4) 0.9212(5)
C12_3 C 0.0001(3) 0.5874(6) 0.9345(6)
C13_3 C 0.0385(2) 0.5818(4) 0.8842(4)
C14_3 C 0.0764(3) 0.5190(4) 0.8830(4)
Eu3_3 Eu 0.8750 0.8750 0.002045(17)
Eu1_3 Eu 0.8750 0.8750 0.747955(17)
O1_3 O 0.92637(15) 0.9539(2) 0.8168(2)
C1_3 C 0.94057(18) 0.9834(3) 0.8757(3)
O2_3 O 0.93019(14) 0.9621(2) 0.9402(2)
O5_3 O 0.92637(15) 0.7961(2) 0.9332(2)
O6_3 O 0.82363(15) 0.7961(2) 0.8168(2)
N3_3 N 0.95485(14) 0.8665(2) 0.6669(2)
N4_3 N 0.79515(14) 0.8835(2) 0.6669(2)
C8_3 C 0.94057(18) 0.7666(3) 0.8743(3)
O7_3 O 0.93019(14) 0.7879(2) 0.8098(2)
O8_3 O 0.81981(14) 0.9621(2) 0.8098(2)
C9_3 C 0.97421(19) 0.6998(3) 0.8805(3)
O10_3 O 0.88643(12) 0.97188(19) 0.6588(2)
O11_3 O 0.86357(12) 0.77812(19) 0.6588(2)
C11_3 C 0.9683(3) 0.6478(5) 0.9335(5)
H5_3 H 0.9430 0.6523 0.9692
H6_3 H 0.9954 0.5500 0.9699
Eu3_4 Eu 0.3750 0.3750 0.002045(17)
Eu1_4 Eu 0.3750 0.3750 0.747955(17)
O1_4 O 0.32363(15) 0.2961(2) 0.8168(2)
N1_4 N 0.20485(14) 0.1335(2) 0.9169(2)
C1_4 C 0.30943(18) 0.2666(3) 0.8757(3)
O2_4 O 0.31981(14) 0.2879(2) 0.9402(2)
C2_3 C 0.27579(19) 0.1998(3) 0.8695(3)
O3_4 O 0.13643(12) 0.02812(19) 0.9088(2)
C3_4 C 0.23716(18) 0.1896(3) 0.9186(3)
H1_4 H 0.2331 0.2248 0.9564
C4_3 C 0.2817(3) 0.1478(5) 0.8165(5)
H2_3 H 0.3070 0.1523 0.7808
C5_4 C 0.2499(3) 0.0874(6) 0.8155(6)
H3_3 H 0.2546 0.0500 0.7801
C6_4 C 0.2115(2) 0.0818(4) 0.8658(4)
C7_4 C 0.1736(3) 0.0190(4) 0.8670(4)
O5_4 O 0.32363(15) 0.4539(2) 0.9332(2)
O6_4 O 0.42637(15) 0.4539(2) 0.8168(2)
N2_4 N 0.20485(14) 0.6165(2) 0.8331(2)
N3_4 N 0.29515(14) 0.3835(2) 0.6669(2)
N4_4 N 0.45485(14) 0.3665(2) 0.6669(2)
C8_4 C 0.30943(18) 0.4834(3) 0.8743(3)
O7_4 O 0.31981(14) 0.4621(2) 0.8098(2)
O8_4 O 0.43019(14) 0.2879(2) 0.8098(2)
C9_4 C 0.27579(19) 0.5502(3) 0.8805(3)
O9_4 O 0.13643(12) 0.72188(19) 0.8412(2)
O10_4 O 0.36357(12) 0.27812(19) 0.6588(2)
O11_4 O 0.38643(12) 0.47188(19) 0.6588(2)
C10_4 C 0.23716(18) 0.5604(3) 0.8314(3)
H4_4 H 0.2331 0.5252 0.7936
O12_4 O 0.1816(2) 0.7865(4) 0.9212(5)
C11_4 C 0.2817(3) 0.6022(5) 0.9335(5)
H5_4 H 0.3070 0.5977 0.9692
C12_4 C 0.2499(3) 0.6626(6) 0.9345(6)
H6_4 H 0.2546 0.7000 0.9699
C13_4 C 0.2115(2) 0.6682(4) 0.8842(4)
C14_4 C 0.1736(3) 0.7310(4) 0.8830(4)
N3_5 N 0.95485(14) 0.8835(2) 0.0831(2)
N4_5 N 0.79515(14) 0.8665(2) 0.0831(2)
O10_5 O 0.88643(12) 0.77812(19) 0.0912(2)
O11_5 O 0.86357(12) 0.97188(19) 0.0912(2)
O6_5 O 0.82363(15) 0.9539(2) 0.9332(2)
O8_5 O 0.81981(14) 0.7879(2) 0.9402(2)
N3_6 N 0.29515(14) 0.3665(2) 0.0831(2)
N4_6 N 0.45485(14) 0.3835(2) 0.0831(2)
O10_6 O 0.36357(12) 0.47188(19) 0.0912(2)
O11_6 O 0.38643(12) 0.27812(19) 0.0912(2)
O6_6 O 0.42637(15) 0.2961(2) 0.9332(2)
O8_6 O 0.43019(14) 0.4621(2) 0.9402(2)
O6_7 O 0.82363(15) 0.2961(2) 0.3168(2)
N3_7 N 0.95485(14) 0.3665(2) 0.1669(2)
N4_7 N 0.79515(14) 0.3835(2) 0.1669(2)
O8_7 O 0.81981(14) 0.4621(2) 0.3098(2)
O10_7 O 0.88643(12) 0.47188(19) 0.1588(2)
O11_7 O 0.86357(12) 0.27812(19) 0.1588(2)
O6_8 O 0.42637(15) 0.9539(2) 0.3168(2)
N3_8 N 0.29515(14) 0.8835(2) 0.1669(2)
N4_8 N 0.45485(14) 0.8665(2) 0.1669(2)
O8_8 O 0.43019(14) 0.7879(2) 0.3098(2)
O10_8 O 0.36357(12) 0.77812(19) 0.1588(2)
O11_8 O 0.38643(12) 0.97188(19) 0.1588(2)
N1_5 N 0.54515(14) 0.1335(2) 0.8331(2)
C1_5 C 0.44057(18) 0.2666(3) 0.8743(3)
C2_4 C 0.47421(19) 0.1998(3) 0.8805(3)
O3_5 O 0.61357(12) 0.02812(19) 0.8412(2)
C3_5 C 0.51284(18) 0.1896(3) 0.8314(3)
H1_5 H 0.5169 0.2248 0.7936
C4_4 C 0.4683(3) 0.1478(5) 0.9335(5)
H2_4 H 0.4430 0.1523 0.9692
C5_5 C 0.5001(3) 0.0874(6) 0.9345(6)
H3_4 H 0.4954 0.0500 0.9699
C6_5 C 0.5385(2) 0.0818(4) 0.8842(4)
C7_5 C 0.5764(3) 0.0190(4) 0.8830(4)
Eu2_3 Eu 0.6250 0.1250 0.752045(17)
Eu4_3 Eu 0.6250 0.6250 0.997955(17)
N2_5 N 0.54515(14) 0.6165(2) 0.9169(2)
C8_5 C 0.44057(18) 0.4834(3) 0.8757(3)
C9_5 C 0.47421(19) 0.5502(3) 0.8695(3)
O9_5 O 0.61357(12) 0.72188(19) 0.9088(2)
C10_5 C 0.51284(18) 0.5604(3) 0.9186(3)
H4_5 H 0.5169 0.5252 0.9564
O12_5 O 0.5684(2) 0.7865(4) 0.8288(5)
C11_5 C 0.4683(3) 0.6022(5) 0.8165(5)
H5_5 H 0.4430 0.5977 0.7808
C12_5 C 0.5001(3) 0.6626(6) 0.8155(6)
H6_5 H 0.4954 0.7000 0.7801
C13_5 C 0.5385(2) 0.6682(4) 0.8658(4)
C14_5 C 0.5764(3) 0.7310(4) 0.8670(4)
N1_6 N 0.70485(14) 0.1165(2) 0.8331(2)
C2_5 C 0.77579(19) 0.0502(3) 0.8805(3)
O3_6 O 0.63643(12) 0.22188(19) 0.8412(2)
C3_6 C 0.73716(18) 0.0604(3) 0.8314(3)
H1_6 H 0.7331 0.0252 0.7936
O4_3 O 0.6816(2) 0.2865(4) 0.9212(5)
C4_5 C 0.7817(3) 0.1022(5) 0.9335(5)
H2_5 H 0.8070 0.0977 0.9692
C5_6 C 0.7499(3) 0.1626(6) 0.9345(6)
H3_5 H 0.7546 0.2000 0.9699
C6_6 C 0.7115(2) 0.1682(4) 0.8842(4)
C7_6 C 0.6736(3) 0.2310(4) 0.8830(4)
C1_6 C 0.80943(18) 0.9834(3) 0.8743(3)
N2_6 N 0.70485(14) 0.6335(2) 0.9169(2)
C8_6 C 0.80943(18) 0.7666(3) 0.8757(3)
C9_6 C 0.77579(19) 0.6998(3) 0.8695(3)
O9_6 O 0.63643(12) 0.52812(19) 0.9088(2)
C10_6 C 0.73716(18) 0.6896(3) 0.9186(3)
H4_6 H 0.7331 0.7248 0.9564
O12_6 O 0.6816(2) 0.4635(4) 0.8288(5)
C11_6 C 0.7817(3) 0.6478(5) 0.8165(5)
H5_6 H 0.8070 0.6523 0.7808
C12_6 C 0.7499(3) 0.5874(6) 0.8155(6)
H6_6 H 0.7546 0.5500 0.7801
C13_6 C 0.7115(2) 0.5818(4) 0.8658(4)
C14_6 C 0.6736(3) 0.5190(4) 0.8670(4)
N1_7 N 0.54515(14) 0.1165(2) 0.4169(2)
C2_6 C 0.47421(19) 0.0502(3) 0.3695(3)
O3_7 O 0.61357(12) 0.22188(19) 0.4088(2)
C3_7 C 0.51284(18) 0.0604(3) 0.4186(3)
H1_7 H 0.5169 0.0252 0.4564
O4_4 O 0.5684(2) 0.2865(4) 0.3288(5)
C4_6 C 0.4683(3) 0.1022(5) 0.3165(5)
H2_6 H 0.4430 0.0977 0.2808
C5_7 C 0.5001(3) 0.1626(6) 0.3155(6)
H3_6 H 0.4954 0.2000 0.2801
C6_7 C 0.5385(2) 0.1682(4) 0.3658(4)
C7_7 C 0.5764(3) 0.2310(4) 0.3670(4)
Eu2_4 Eu 0.6250 0.1250 0.497955(17)
C1_7 C 0.44057(18) 0.9834(3) 0.3757(3)
Eu4_4 Eu 0.6250 0.6250 0.252045(17)
N2_7 N 0.54515(14) 0.6335(2) 0.3331(2)
C8_7 C 0.44057(18) 0.7666(3) 0.3743(3)
C9_7 C 0.47421(19) 0.6998(3) 0.3805(3)
O9_7 O 0.61357(12) 0.52812(19) 0.3412(2)
C10_7 C 0.51284(18) 0.6896(3) 0.3314(3)
H4_7 H 0.5169 0.7248 0.2936
O12_7 O 0.5684(2) 0.4635(4) 0.4212(5)
C11_7 C 0.4683(3) 0.6478(5) 0.4335(5)
H5_7 H 0.4430 0.6523 0.4692
C12_7 C 0.5001(3) 0.5874(6) 0.4345(6)
H6_7 H 0.4954 0.5500 0.4699
C13_7 C 0.5385(2) 0.5818(4) 0.3842(4)
C14_7 C 0.5764(3) 0.5190(4) 0.3830(4)
N1_8 N 0.70485(14) 0.1335(2) 0.4169(2)
C1_8 C 0.80943(18) 0.2666(3) 0.3757(3)
C2_7 C 0.77579(19) 0.1998(3) 0.3695(3)
O3_8 O 0.63643(12) 0.02812(19) 0.4088(2)
C3_8 C 0.73716(18) 0.1896(3) 0.4186(3)
H1_8 H 0.7331 0.2248 0.4564
C4_7 C 0.7817(3) 0.1478(5) 0.3165(5)
H2_7 H 0.8070 0.1523 0.2808
C5_8 C 0.7499(3) 0.0874(6) 0.3155(6)
H3_7 H 0.7546 0.0500 0.2801
C6_8 C 0.7115(2) 0.0818(4) 0.3658(4)
C7_8 C 0.6736(3) 0.0190(4) 0.3670(4)
N2_8 N 0.70485(14) 0.6165(2) 0.3331(2)
C8_8 C 0.80943(18) 0.4834(3) 0.3743(3)
C9_8 C 0.77579(19) 0.5502(3) 0.3805(3)
O9_8 O 0.63643(12) 0.72188(19) 0.3412(2)
C10_8 C 0.73716(18) 0.5604(3) 0.3314(3)
H4_8 H 0.7331 0.5252 0.2936
O12_8 O 0.6816(2) 0.7865(4) 0.4212(5)
C11_8 C 0.7817(3) 0.6022(5) 0.4335(5)
H5_8 H 0.8070 0.5977 0.4692
C12_8 C 0.7499(3) 0.6626(6) 0.4345(6)
H6_8 H 0.7546 0.7000 0.4699
C13_8 C 0.7115(2) 0.6682(4) 0.3842(4)
C14_8 C 0.6736(3) 0.7310(4) 0.3830(4)
O1_5 O 0.07363(15) 0.7039(2) 0.5668(2)
C1_9 C 0.05943(18) 0.7334(3) 0.6257(3)
O2_5 O 0.06981(14) 0.7121(2) 0.6902(2)
C2_8 C 0.02579(19) 0.8002(3) 0.6195(3)
C4_8 C 0.0317(3) 0.8522(5) 0.5665(5)
H2_8 H 0.0570 0.8477 0.5308
H3_8 H 0.0046 0.9500 0.5301
O5_5 O 0.07363(15) 0.5461(2) 0.6832(2)
O6_9 O 0.17637(15) 0.5461(2) 0.5668(2)
C8_9 C 0.05943(18) 0.5166(3) 0.6243(3)
O7_5 O 0.06981(14) 0.5379(2) 0.5598(2)
O8_9 O 0.18019(14) 0.7121(2) 0.5598(2)
C9_9 C 0.02579(19) 0.4498(3) 0.6305(3)
C11_9 C 0.0317(3) 0.3978(5) 0.6835(5)
H5_9 H 0.0570 0.4023 0.7192
H6_9 H 0.0046 0.3000 0.7199
C3_9 C 0.98716(18) 0.8104(3) 0.6686(3)
H1_9 H 0.9831 0.7752 0.7064
C5_9 C 0.9999(3) 0.9126(6) 0.5655(6)
C6_9 C 0.9615(2) 0.9182(4) 0.6158(4)
C7_9 C 0.9236(3) 0.9810(4) 0.6170(4)
C10_9 C 0.98716(18) 0.4396(3) 0.5814(3)
H4_9 H 0.9831 0.4748 0.5436
O12_9 O 0.9316(2) 0.2135(4) 0.6712(5)
C12_9 C 0.9999(3) 0.3374(6) 0.6845(6)
C13_9 C 0.9615(2) 0.3318(4) 0.6342(4)
C14_9 C 0.9236(3) 0.2690(4) 0.6330(4)
O1_6 O 0.67637(15) 0.0461(2) 0.5668(2)
C1_10 C 0.69057(18) 0.0166(3) 0.6257(3)
O2_6 O 0.68019(14) 0.0379(2) 0.6902(2)
O5_6 O 0.67637(15) 0.2039(2) 0.6832(2)
O6_10 O 0.57363(15) 0.2039(2) 0.5668(2)
C8_10 C 0.69057(18) 0.2334(3) 0.6243(3)
O7_6 O 0.68019(14) 0.2121(2) 0.5598(2)
O8_10 O 0.56981(14) 0.0379(2) 0.5598(2)
C9_10 C 0.72421(19) 0.3002(3) 0.6305(3)
C10_10 C 0.76284(18) 0.3104(3) 0.5814(3)
H4_10 H 0.7669 0.2752 0.5436
O12_10 O 0.8184(2) 0.5365(4) 0.6712(5)
C11_10 C 0.7183(3) 0.3522(5) 0.6835(5)
H5_10 H 0.6930 0.3477 0.7192
C12_10 C 0.7501(3) 0.4126(6) 0.6845(6)
H6_10 H 0.7454 0.4500 0.7199
C13_10 C 0.7885(2) 0.4182(4) 0.6342(4)
C14_10 C 0.8264(3) 0.4810(4) 0.6330(4)
C2_9 C 0.72421(19) 0.9498(3) 0.6195(3)
C3_10 C 0.76284(18) 0.9396(3) 0.6686(3)
H1_10 H 0.7669 0.9748 0.7064
O4_5 O 0.8184(2) 0.7135(4) 0.5788(5)
C4_9 C 0.7183(3) 0.8978(5) 0.5665(5)
H2_9 H 0.6930 0.9023 0.5308
C5_10 C 0.7501(3) 0.8374(6) 0.5655(6)
H3_9 H 0.7454 0.8000 0.5301
C6_10 C 0.7885(2) 0.8318(4) 0.6158(4)
C7_10 C 0.8264(3) 0.7690(4) 0.6170(4)
O1_7 O 0.07363(15) 0.0461(2) 0.1832(2)
C1_11 C 0.05943(18) 0.0166(3) 0.1243(3)
O2_7 O 0.06981(14) 0.0379(2) 0.0598(2)
O5_7 O 0.07363(15) 0.2039(2) 0.0668(2)
O6_11 O 0.17637(15) 0.2039(2) 0.1832(2)
C8_11 C 0.05943(18) 0.2334(3) 0.1257(3)
O7_7 O 0.06981(14) 0.2121(2) 0.1902(2)
O8_11 O 0.18019(14) 0.0379(2) 0.1902(2)
C9_11 C 0.02579(19) 0.3002(3) 0.1195(3)
C11_11 C 0.0317(3) 0.3522(5) 0.0665(5)
H5_11 H 0.0570 0.3477 0.0308
H6_11 H 0.0046 0.4500 0.0301
C10_11 C 0.98716(18) 0.3104(3) 0.1686(3)
H4_11 H 0.9831 0.2752 0.2064
O12_11 O 0.9316(2) 0.5365(4) 0.0788(5)
C12_11 C 0.9999(3) 0.4126(6) 0.0655(6)
C13_11 C 0.9615(2) 0.4182(4) 0.1158(4)
C14_11 C 0.9236(3) 0.4810(4) 0.1170(4)
C3_11 C 0.98716(18) 0.9396(3) 0.0814(3)
H1_11 H 0.9831 0.9748 0.0436
O4_6 O 0.9316(2) 0.7135(4) 0.1712(5)
C5_11 C 0.9999(3) 0.8374(6) 0.1845(6)
C6_11 C 0.9615(2) 0.8318(4) 0.1342(4)
C7_11 C 0.9236(3) 0.7690(4) 0.1330(4)
O1_8 O 0.67637(15) 0.7039(2) 0.1832(2)
C1_12 C 0.69057(18) 0.7334(3) 0.1243(3)
O2_8 O 0.68019(14) 0.7121(2) 0.0598(2)
C2_10 C 0.72421(19) 0.8002(3) 0.1305(3)
C3_12 C 0.76284(18) 0.8104(3) 0.0814(3)
H1_12 H 0.7669 0.7752 0.0436
C4_10 C 0.7183(3) 0.8522(5) 0.1835(5)
H2_10 H 0.6930 0.8477 0.2192
C5_12 C 0.7501(3) 0.9126(6) 0.1845(6)
H3_10 H 0.7454 0.9500 0.2199
C6_12 C 0.7885(2) 0.9182(4) 0.1342(4)
C7_12 C 0.8264(3) 0.9810(4) 0.1330(4)
O5_8 O 0.67637(15) 0.5461(2) 0.0668(2)
O6_12 O 0.57363(15) 0.5461(2) 0.1832(2)
C8_12 C 0.69057(18) 0.5166(3) 0.1257(3)
O7_8 O 0.68019(14) 0.5379(2) 0.1902(2)
O8_12 O 0.56981(14) 0.7121(2) 0.1902(2)
C9_12 C 0.72421(19) 0.4498(3) 0.1195(3)
C10_12 C 0.76284(18) 0.4396(3) 0.1686(3)
H4_12 H 0.7669 0.4748 0.2064
O12_12 O 0.8184(2) 0.2135(4) 0.0788(5)
C11_12 C 0.7183(3) 0.3978(5) 0.0665(5)
H5_12 H 0.6930 0.4023 0.0308
C12_12 C 0.7501(3) 0.3374(6) 0.0655(6)
H6_12 H 0.7454 0.3000 0.0301
C13_12 C 0.7885(2) 0.3318(4) 0.1158(4)
C14_12 C 0.8264(3) 0.2690(4) 0.1170(4)
O6_13 O 0.17637(15) 0.0461(2) 0.0668(2)
O8_13 O 0.18019(14) 0.2121(2) 0.0598(2)
O6_14 O 0.57363(15) 0.7039(2) 0.0668(2)
O8_14 O 0.56981(14) 0.5379(2) 0.0598(2)
O6_15 O 0.17637(15) 0.7039(2) 0.6832(2)
O8_15 O 0.18019(14) 0.5379(2) 0.6902(2)
O6_16 O 0.57363(15) 0.0461(2) 0.6832(2)
O8_16 O 0.56981(14) 0.2121(2) 0.6902(2)
C1_13 C 0.55943(18) 0.7334(3) 0.1257(3)
C2_11 C 0.52579(19) 0.8002(3) 0.1195(3)
C3_13 C 0.48716(18) 0.8104(3) 0.1686(3)
H1_13 H 0.4831 0.7752 0.2064
C4_11 C 0.5317(3) 0.8522(5) 0.0665(5)
H2_11 H 0.5570 0.8477 0.0308
C5_13 C 0.4999(3) 0.9126(6) 0.0655(6)
H3_11 H 0.5046 0.9500 0.0301
C6_13 C 0.4615(2) 0.9182(4) 0.1158(4)
C7_13 C 0.4236(3) 0.9810(4) 0.1170(4)
C8_13 C 0.55943(18) 0.5166(3) 0.1243(3)
C9_13 C 0.52579(19) 0.4498(3) 0.1305(3)
C10_13 C 0.48716(18) 0.4396(3) 0.0814(3)
H4_13 H 0.4831 0.4748 0.0436
O12_13 O 0.4316(2) 0.2135(4) 0.1712(5)
C11_13 C 0.5317(3) 0.3978(5) 0.1835(5)
H5_13 H 0.5570 0.4023 0.2192
C12_13 C 0.4999(3) 0.3374(6) 0.1845(6)
H6_13 H 0.5046 0.3000 0.2199
C13_13 C 0.4615(2) 0.3318(4) 0.1342(4)
C14_13 C 0.4236(3) 0.2690(4) 0.1330(4)
C1_14 C 0.19057(18) 0.0166(3) 0.1257(3)
C8_14 C 0.19057(18) 0.2334(3) 0.1243(3)
C9_14 C 0.22421(19) 0.3002(3) 0.1305(3)
C10_14 C 0.26284(18) 0.3104(3) 0.0814(3)
H4_14 H 0.2669 0.2752 0.0436
O12_14 O 0.3184(2) 0.5365(4) 0.1712(5)
C11_14 C 0.2183(3) 0.3522(5) 0.1835(5)
H5_14 H 0.1930 0.3477 0.2192
C12_14 C 0.2501(3) 0.4126(6) 0.1845(6)
H6_14 H 0.2454 0.4500 0.2199
C13_14 C 0.2885(2) 0.4182(4) 0.1342(4)
C14_14 C 0.3264(3) 0.4810(4) 0.1330(4)
C2_12 C 0.22421(19) 0.9498(3) 0.1195(3)
C3_14 C 0.26284(18) 0.9396(3) 0.1686(3)
H1_14 H 0.2669 0.9748 0.2064
O4_7 O 0.3184(2) 0.7135(4) 0.0788(5)
C4_12 C 0.2183(3) 0.8978(5) 0.0665(5)
H2_12 H 0.1930 0.9023 0.0308
C5_14 C 0.2501(3) 0.8374(6) 0.0655(6)
H3_12 H 0.2454 0.8000 0.0301
C6_14 C 0.2885(2) 0.8318(4) 0.1158(4)
C7_14 C 0.3264(3) 0.7690(4) 0.1170(4)
C1_15 C 0.55943(18) 0.0166(3) 0.6243(3)
C8_15 C 0.55943(18) 0.2334(3) 0.6257(3)
C9_15 C 0.52579(19) 0.3002(3) 0.6195(3)
C10_15 C 0.48716(18) 0.3104(3) 0.6686(3)
H4_15 H 0.4831 0.2752 0.7064
O12_15 O 0.4316(2) 0.5365(4) 0.5788(5)
C11_15 C 0.5317(3) 0.3522(5) 0.5665(5)
H5_15 H 0.5570 0.3477 0.5308
C12_15 C 0.4999(3) 0.4126(6) 0.5655(6)
H6_15 H 0.5046 0.4500 0.5301
C13_15 C 0.4615(2) 0.4182(4) 0.6158(4)
C14_15 C 0.4236(3) 0.4810(4) 0.6170(4)
C2_13 C 0.52579(19) 0.9498(3) 0.6305(3)
C3_15 C 0.48716(18) 0.9396(3) 0.5814(3)
H1_15 H 0.4831 0.9748 0.5436
O4_8 O 0.4316(2) 0.7135(4) 0.6712(5)
C4_13 C 0.5317(3) 0.8978(5) 0.6835(5)
H2_13 H 0.5570 0.9023 0.7192
C5_15 C 0.4999(3) 0.8374(6) 0.6845(6)
H3_13 H 0.5046 0.8000 0.7199
C6_15 C 0.4615(2) 0.8318(4) 0.6342(4)
C7_15 C 0.4236(3) 0.7690(4) 0.6330(4)
C1_16 C 0.19057(18) 0.7334(3) 0.6243(3)
C2_14 C 0.22421(19) 0.8002(3) 0.6305(3)
C3_16 C 0.26284(18) 0.8104(3) 0.5814(3)
H1_16 H 0.2669 0.7752 0.5436
C4_14 C 0.2183(3) 0.8522(5) 0.6835(5)
H2_14 H 0.1930 0.8477 0.7192
C5_16 C 0.2501(3) 0.9126(6) 0.6845(6)
H3_14 H 0.2454 0.9500 0.7199
C6_16 C 0.2885(2) 0.9182(4) 0.6342(4)
C7_16 C 0.3264(3) 0.9810(4) 0.6330(4)
C8_16 C 0.19057(18) 0.5166(3) 0.6257(3)
C9_16 C 0.22421(19) 0.4498(3) 0.6195(3)
C10_16 C 0.26284(18) 0.4396(3) 0.6686(3)
H4_16 H 0.2669 0.4748 0.7064
O12_16 O 0.3184(2) 0.2135(4) 0.5788(5)
C11_16 C 0.2183(3) 0.3978(5) 0.5665(5)
H5_16 H 0.1930 0.4023 0.5308
C12_16 C 0.2501(3) 0.3374(6) 0.5655(6)
H6_16 H 0.2454 0.3000 0.5301
C13_16 C 0.2885(2) 0.3318(4) 0.6158(4)
C14_16 C 0.3264(3) 0.2690(4) 0.6170(4)
O4_9 O 0.0684(2) 0.9635(4) 0.4212(5)
C2_15 C 0.97421(19) 0.0502(3) 0.8695(3)
C4_15 C 0.9683(3) 0.1022(5) 0.8165(5)
H2_15 H 0.9430 0.0977 0.7808
H3_15 H 0.9954 0.2000 0.7801
O4_10 O 0.1816(2) 0.9635(4) 0.8288(5)
O4_11 O 0.5684(2) 0.9635(4) 0.9212(5)
O4_12 O 0.6816(2) 0.9635(4) 0.3288(5)
O4_13 O 0.9316(2) 0.0365(4) 0.5788(5)
C2_16 C 0.02579(19) 0.9498(3) 0.1305(3)
C4_16 C 0.0317(3) 0.8978(5) 0.1835(5)
H2_16 H 0.0570 0.9023 0.2192
H3_16 H 0.0046 0.8000 0.2199
O4_14 O 0.8184(2) 0.0365(4) 0.1712(5)
O4_15 O 0.4316(2) 0.0365(4) 0.0788(5)
O4_16 O 0.3184(2) 0.0365(4) 0.6712(5)
N5 N 0.1499(3) 0.8750 0.3750
H7 H 0.1299 0.8355 0.3832
C15 C 0.1774(3) 0.8885(4) 0.4413(5)
H8 H 0.2064 0.8569 0.4423
H9 H 0.1568 0.8783 0.4842
H10 H 0.1878 0.9396 0.4424
H11 H 0.1299 0.9145 0.3668
C16 C 0.1774(3) 0.8615(4) 0.3087(5)
H12 H 0.2064 0.8931 0.3077
H13 H 0.1568 0.8717 0.2658
H14 H 0.1878 0.8104 0.3076
N5_2 N 0.1001(3) 0.3750 0.3750
H7_2 H 0.1201 0.4145 0.3832
C15_2 C 0.0726(3) 0.3615(4) 0.4413(5)
H8_2 H 0.0436 0.3931 0.4423
H9_2 H 0.0932 0.3717 0.4842
H10_2 H 0.0622 0.3104 0.4424
H11_2 H 0.1201 0.3355 0.3668
C16_2 C 0.0726(3) 0.3885(4) 0.3087(5)
H12_2 H 0.0436 0.3569 0.3077
H13_2 H 0.0932 0.3783 0.2658
H14_2 H 0.0622 0.4396 0.3076
N5_3 N 0.1499(3) 0.3750 0.8750
H7_3 H 0.1299 0.4145 0.8668
C15_3 C 0.1774(3) 0.3615(4) 0.8087(5)
H8_3 H 0.2064 0.3931 0.8077
H9_3 H 0.1568 0.3717 0.7658
H10_3 H 0.1878 0.3104 0.8076
H11_3 H 0.1299 0.3355 0.8832
C16_3 C 0.1774(3) 0.3885(4) 0.9413(5)
H12_3 H 0.2064 0.3569 0.9423
H13_3 H 0.1568 0.3783 0.9842
H14_3 H 0.1878 0.4396 0.9424
N5_4 N 0.1001(3) 0.8750 0.8750
H7_4 H 0.1201 0.8355 0.8668
C15_4 C 0.0726(3) 0.8885(4) 0.8087(5)
H8_4 H 0.0436 0.8569 0.8077
H9_4 H 0.0932 0.8783 0.7658
H10_4 H 0.0622 0.9396 0.8076
H11_4 H 0.1201 0.9145 0.8832
C16_4 C 0.0726(3) 0.8615(4) 0.9413(5)
H12_4 H 0.0436 0.8931 0.9423
H13_4 H 0.0932 0.8717 0.9842
H14_4 H 0.0622 0.8104 0.9424
N5_5 N 0.6499(3) 0.8750 0.8750
H7_5 H 0.6299 0.8355 0.8832
C15_5 C 0.6774(3) 0.8885(4) 0.9413(5)
H8_5 H 0.7064 0.8569 0.9423
H9_5 H 0.6568 0.8783 0.9842
H10_5 H 0.6878 0.9396 0.9424
H11_5 H 0.6299 0.9145 0.8668
C16_5 C 0.6774(3) 0.8615(4) 0.8087(5)
H12_5 H 0.7064 0.8931 0.8077
H13_5 H 0.6568 0.8717 0.7658
H14_5 H 0.6878 0.8104 0.8076
N5_6 N 0.6001(3) 0.3750 0.8750
H7_6 H 0.6201 0.4145 0.8832
C15_6 C 0.5726(3) 0.3615(4) 0.9413(5)
H8_6 H 0.5436 0.3931 0.9423
H9_6 H 0.5932 0.3717 0.9842
H10_6 H 0.5622 0.3104 0.9424
H11_6 H 0.6201 0.3355 0.8668
C16_6 C 0.5726(3) 0.3885(4) 0.8087(5)
H12_6 H 0.5436 0.3569 0.8077
H13_6 H 0.5932 0.3783 0.7658
H14_6 H 0.5622 0.4396 0.8076
N5_7 N 0.6499(3) 0.3750 0.3750
H7_7 H 0.6299 0.4145 0.3668
C15_7 C 0.6774(3) 0.3615(4) 0.3087(5)
H8_7 H 0.7064 0.3931 0.3077
H9_7 H 0.6568 0.3717 0.2658
H10_7 H 0.6878 0.3104 0.3076
H11_7 H 0.6299 0.3355 0.3832
C16_7 C 0.6774(3) 0.3885(4) 0.4413(5)
H12_7 H 0.7064 0.3569 0.4423
H13_7 H 0.6568 0.3783 0.4842
H14_7 H 0.6878 0.4396 0.4424
N5_8 N 0.6001(3) 0.8750 0.3750
H7_8 H 0.6201 0.8355 0.3668
C15_8 C 0.5726(3) 0.8885(4) 0.3087(5)
H8_8 H 0.5436 0.8569 0.3077
H9_8 H 0.5932 0.8783 0.2658
H10_8 H 0.5622 0.9396 0.3076
H11_8 H 0.6201 0.9145 0.3832
C16_8 C 0.5726(3) 0.8615(4) 0.4413(5)
H12_8 H 0.5436 0.8931 0.4423
H13_8 H 0.5932 0.8717 0.4842
H14_8 H 0.5622 0.8104 0.4424
N5_9 N 0.8501(3) 0.1250 0.6250
H7_9 H 0.8701 0.1645 0.6168
C15_9 C 0.8226(3) 0.1115(4) 0.5587(5)
H8_9 H 0.7936 0.1431 0.5577
H9_9 H 0.8432 0.1217 0.5158
H10_9 H 0.8122 0.0604 0.5576
H11_9 H 0.8701 0.0855 0.6332
C16_9 C 0.8226(3) 0.1385(4) 0.6913(5)
H12_9 H 0.7936 0.1069 0.6923
H13_9 H 0.8432 0.1283 0.7342
H14_9 H 0.8122 0.1896 0.6924
N5_10 N 0.8999(3) 0.6250 0.6250
H7_10 H 0.8799 0.5855 0.6168
C15_10 C 0.9274(3) 0.6385(4) 0.5587(5)
H8_10 H 0.9564 0.6069 0.5577
H9_10 H 0.9068 0.6283 0.5158
H10_10 H 0.9378 0.6896 0.5576
H11_10 H 0.8799 0.6645 0.6332
C16_10 C 0.9274(3) 0.6115(4) 0.6913(5)
H12_10 H 0.9564 0.6431 0.6923
H13_10 H 0.9068 0.6217 0.7342
H14_10 H 0.9378 0.5604 0.6924
N5_11 N 0.8501(3) 0.6250 0.1250
H7_11 H 0.8701 0.5855 0.1332
C15_11 C 0.8226(3) 0.6385(4) 0.1913(5)
H8_11 H 0.7936 0.6069 0.1923
H9_11 H 0.8432 0.6283 0.2342
H10_11 H 0.8122 0.6896 0.1924
H11_11 H 0.8701 0.6645 0.1168
C16_11 C 0.8226(3) 0.6115(4) 0.0587(5)
H12_11 H 0.7936 0.6431 0.0577
H13_11 H 0.8432 0.6217 0.0158
H14_11 H 0.8122 0.5604 0.0576
N5_12 N 0.8999(3) 0.1250 0.1250
H7_12 H 0.8799 0.1645 0.1332
C15_12 C 0.9274(3) 0.1115(4) 0.1913(5)
H8_12 H 0.9564 0.1431 0.1923
H9_12 H 0.9068 0.1217 0.2342
H10_12 H 0.9378 0.0604 0.1924
H11_12 H 0.8799 0.0855 0.1168
C16_12 C 0.9274(3) 0.1385(4) 0.0587(5)
H12_12 H 0.9564 0.1069 0.0577
H13_12 H 0.9068 0.1283 0.0158
H14_12 H 0.9378 0.1896 0.0576
N5_13 N 0.3501(3) 0.1250 0.1250
H7_13 H 0.3701 0.1645 0.1168
C15_13 C 0.3226(3) 0.1115(4) 0.0587(5)
H8_13 H 0.2936 0.1431 0.0577
H9_13 H 0.3432 0.1217 0.0158
H10_13 H 0.3122 0.0604 0.0576
H11_13 H 0.3701 0.0855 0.1332
C16_13 C 0.3226(3) 0.1385(4) 0.1913(5)
H12_13 H 0.2936 0.1069 0.1923
H13_13 H 0.3432 0.1283 0.2342
H14_13 H 0.3122 0.1896 0.1924
N5_14 N 0.3999(3) 0.6250 0.1250
H7_14 H 0.3799 0.5855 0.1168
C15_14 C 0.4274(3) 0.6385(4) 0.0587(5)
H8_14 H 0.4564 0.6069 0.0577
H9_14 H 0.4068 0.6283 0.0158
H10_14 H 0.4378 0.6896 0.0576
H11_14 H 0.3799 0.6645 0.1332
C16_14 C 0.4274(3) 0.6115(4) 0.1913(5)
H12_14 H 0.4564 0.6431 0.1923
H13_14 H 0.4068 0.6217 0.2342
H14_14 H 0.4378 0.5604 0.1924
N5_15 N 0.3501(3) 0.6250 0.6250
H7_15 H 0.3701 0.5855 0.6332
C15_15 C 0.3226(3) 0.6385(4) 0.6913(5)
H8_15 H 0.2936 0.6069 0.6923
H9_15 H 0.3432 0.6283 0.7342
H10_15 H 0.3122 0.6896 0.6924
H11_15 H 0.3701 0.6645 0.6168
C16_15 C 0.3226(3) 0.6115(4) 0.5587(5)
H12_15 H 0.2936 0.6431 0.5577
H13_15 H 0.3432 0.6217 0.5158
H14_15 H 0.3122 0.5604 0.5576
N5_16 N 0.3999(3) 0.1250 0.6250
H7_16 H 0.3799 0.1645 0.6332
C15_16 C 0.4274(3) 0.1115(4) 0.6913(5)
H8_16 H 0.4564 0.1431 0.6923
H9_16 H 0.4068 0.1217 0.7342
H10_16 H 0.4378 0.0604 0.6924
H11_16 H 0.3799 0.0855 0.6168
C16_16 C 0.4274(3) 0.1385(4) 0.5587(5)
H12_16 H 0.4564 0.1069 0.5577
H13_16 H 0.4068 0.1283 0.5158
H14_16 H 0.4378 0.1896 0.5576
loop_
_geom_bond_atom_site_label_1
_geom_bond_atom_site_label_2
_geom_bond_site_symmetry_1
_geom_bond_site_symmetry_2
N1 C3 1_555 1_555
O3 C7 1_555 1_555
H1 C3 1_555 1_555
C6 N1 1_555 1_555
C7 C6 1_555 1_555
Eu2 N1 1_555 1_555
Eu4 N2 1_555 1_555
N2 C10 1_555 1_555
O9 Eu4 1_555 1_555
H4 C10 1_555 1_555
O12 C14 1_555 1_555
C13 N2 1_555 1_555
C14 O9 1_555 1_555
O3 Eu2 1_555 1_555
C5 C6 1_555 1_555
C12 C13 1_555 1_555
C13 C14 1_555 1_555
Eu1 O1 1_555 1_555
O1 C1 1_555 1_555
C1 O2 1_555 1_555
O2 Eu3 1_555 1_555
C2 C1 1_555 1_555
C4 C2 1_555 1_555
H2 C4 1_555 1_555
Eu3 O5 1_555 1_555
O5 C8 1_555 1_555
O6 Eu1 1_555 1_555
N3 Eu1 1_555 1_555
N4 Eu1 1_555 1_555
C8 O7 1_555 1_555
O7 Eu1 1_555 1_555
O8 Eu1 1_555 1_555
C9 C8 1_555 1_555
O10 Eu1 1_555 1_555
O11 Eu1 1_555 1_555
C11 C9 1_555 1_555
H5 C11 1_555 1_555
N1_2 C3_2 1_555 1_555
O3_2 C7_2 1_555 1_555
C3_2 C2_2 1_555 1_555
H1_2 C3_2 1_555 1_555
O4 C7_2 1_555 1_555
C4_2 C2_2 1_555 1_555
H2_2 C4_2 1_555 1_555
C5_2 C4_2 1_555 1_555
H3_2 C5_2 1_555 1_555
C6_2 N1_2 1_555 1_555
C7_2 C6_2 1_555 1_555
Eu2 N1_2 1_555 1_555
O3_2 Eu2 1_555 1_555
C5_2 C6_2 1_555 1_555
Eu1_2 O1_2 1_555 1_555
O1_2 C1_2 1_555 1_555
C1_2 O2_2 1_555 1_555
O2_2 Eu3_2 1_555 1_555
Eu3_2 O5_2 1_555 1_555
Eu4 N2_2 1_555 1_555
O5_2 C8_2 1_555 1_555
O6_2 Eu1_2 1_555 1_555
N2_2 C10_2 1_555 1_555
N3_2 Eu1_2 1_555 1_555
N4_2 Eu1_2 1_555 1_555
C8_2 O7_2 1_555 1_555
O7_2 Eu1_2 1_555 1_555
O8_2 Eu1_2 1_555 1_555
C9_2 C8_2 1_555 1_555
O9_2 Eu4 1_555 1_555
O10_2 Eu1_2 1_555 1_555
O11_2 Eu1_2 1_555 1_555
C10_2 C9_2 1_555 1_555
H4_2 C10_2 1_555 1_555
O12_2 C14_2 1_555 1_555
C11_2 C9_2 1_555 1_555
H5_2 C11_2 1_555 1_555
C12_2 C11_2 1_555 1_555
H6_2 C12_2 1_555 1_555
C13_2 N2_2 1_555 1_555
C14_2 O9_2 1_555 1_555
C12_2 C13_2 1_555 1_555
C13_2 C14_2 1_555 1_555
N1_3 C3_3 1_555 1_555
O3_3 C7_3 1_555 1_555
H1_3 C3_3 1_555 1_555
O4_2 C7_3 1_555 1_555
C6_3 N1_3 1_555 1_555
C7_3 C6_3 1_555 1_555
Eu2_2 N1_3 1_555 1_555
O3_3 Eu2_2 1_555 1_555
C5_3 C6_3 1_555 1_555
Eu4_2 N2_3 1_555 1_555
N2_3 C10_3 1_555 1_555
O9_3 Eu4_2 1_555 1_555
H4_3 C10_3 1_555 1_555
O12_3 C14_3 1_555 1_555
C13_3 N2_3 1_555 1_555
C14_3 O9_3 1_555 1_555
C12_3 C13_3 1_555 1_555
C13_3 C14_3 1_555 1_555
Eu1_3 O1_3 1_555 1_555
O1_3 C1_3 1_555 1_555
C1_3 O2_3 1_555 1_555
O5_3 C8_3 1_555 1_555
O6_3 Eu1_3 1_555 1_555
N3_3 Eu1_3 1_555 1_555
N4_3 Eu1_3 1_555 1_555
C8_3 O7_3 1_555 1_555
O7_3 Eu1_3 1_555 1_555
O8_3 Eu1_3 1_555 1_555
C9_3 C8_3 1_555 1_555
O10_3 Eu1_3 1_555 1_555
O11_3 Eu1_3 1_555 1_555
C11_3 C9_3 1_555 1_555
H5_3 C11_3 1_555 1_555
Eu1_4 O1_4 1_555 1_555
O1_4 C1_4 1_555 1_555
N1_4 C3_4 1_555 1_555
C1_4 O2_4 1_555 1_555
C2_3 C1_4 1_555 1_555
O3_4 C7_4 1_555 1_555
C3_4 C2_3 1_555 1_555
H1_4 C3_4 1_555 1_555
C4_3 C2_3 1_555 1_555
H2_3 C4_3 1_555 1_555
C5_4 C4_3 1_555 1_555
H3_3 C5_4 1_555 1_555
C6_4 N1_4 1_555 1_555
C7_4 C6_4 1_555 1_555
Eu2_2 N1_4 1_555 1_555
Eu4_2 N2_4 1_555 1_555
O5_4 C8_4 1_555 1_555
O6_4 Eu1_4 1_555 1_555
N2_4 C10_4 1_555 1_555
N3_4 Eu1_4 1_555 1_555
N4_4 Eu1_4 1_555 1_555
C8_4 O7_4 1_555 1_555
O7_4 Eu1_4 1_555 1_555
O8_4 Eu1_4 1_555 1_555
C9_4 C8_4 1_555 1_555
O9_4 Eu4_2 1_555 1_555
O10_4 Eu1_4 1_555 1_555
O11_4 Eu1_4 1_555 1_555
C10_4 C9_4 1_555 1_555
H4_4 C10_4 1_555 1_555
O12_4 C14_4 1_555 1_555
C11_4 C9_4 1_555 1_555
H5_4 C11_4 1_555 1_555
C12_4 C11_4 1_555 1_555
H6_4 C12_4 1_555 1_555
C13_4 N2_4 1_555 1_555
C14_4 O9_4 1_555 1_555
O3_4 Eu2_2 1_555 1_555
C5_4 C6_4 1_555 1_555
C12_4 C13_4 1_555 1_555
C13_4 C14_4 1_555 1_555
N3_5 Eu3_3 1_555 1_555
N4_5 Eu3_3 1_555 1_555
O10_5 Eu3_3 1_555 1_555
O11_5 Eu3_3 1_555 1_555
N3_6 Eu3_4 1_555 1_555
N4_6 Eu3_4 1_555 1_555
O10_6 Eu3_4 1_555 1_555
O11_6 Eu3_4 1_555 1_555
O6_7 Eu3 1_555 1_555
N3_7 Eu3 1_555 1_555
N4_7 Eu3 1_555 1_555
O8_7 Eu3 1_555 1_555
O10_7 Eu3 1_555 1_555
O11_7 Eu3 1_555 1_555
O6_8 Eu3_2 1_555 1_555
N3_8 Eu3_2 1_555 1_555
N4_8 Eu3_2 1_555 1_555
O8_8 Eu3_2 1_555 1_555
O10_8 Eu3_2 1_555 1_555
O11_8 Eu3_2 1_555 1_555
O6_6 C1_5 1_555 1_555
N1_5 C3_5 1_555 1_555
C1_5 O8_4 1_555 1_555
C2_4 C1_5 1_555 1_555
O3_5 C7_5 1_555 1_555
C3_5 C2_4 1_555 1_555
H1_5 C3_5 1_555 1_555
C4_4 C2_4 1_555 1_555
H2_4 C4_4 1_555 1_555
C5_5 C4_4 1_555 1_555
H3_4 C5_5 1_555 1_555
C6_5 N1_5 1_555 1_555
C7_5 C6_5 1_555 1_555
Eu2_3 N1_5 1_555 1_555
Eu4_3 N2_5 1_555 1_555
O6_4 C8_5 1_555 1_555
N2_5 C10_5 1_555 1_555
C8_5 O8_6 1_555 1_555
C9_5 C8_5 1_555 1_555
O9_5 Eu4_3 1_555 1_555
C10_5 C9_5 1_555 1_555
H4_5 C10_5 1_555 1_555
O12_5 C14_5 1_555 1_555
C11_5 C9_5 1_555 1_555
H5_5 C11_5 1_555 1_555
C12_5 C11_5 1_555 1_555
H6_5 C12_5 1_555 1_555
C13_5 N2_5 1_555 1_555
C14_5 O9_5 1_555 1_555
O3_5 Eu2_3 1_555 1_555
C5_5 C6_5 1_555 1_555
C12_5 C13_5 1_555 1_555
C13_5 C14_5 1_555 1_555
N1_6 C3_6 1_555 1_555
O3_6 C7_6 1_555 1_555
C3_6 C2_5 1_555 1_555
H1_6 C3_6 1_555 1_555
O4_3 C7_6 1_555 1_555
C4_5 C2_5 1_555 1_555
H2_5 C4_5 1_555 1_555
C5_6 C4_5 1_555 1_555
H3_5 C5_6 1_555 1_555
C6_6 N1_6 1_555 1_555
C7_6 C6_6 1_555 1_555
Eu2_3 N1_6 1_555 1_555
O3_6 Eu2_3 1_555 1_555
C5_6 C6_6 1_555 1_555
O6_5 C1_6 1_555 1_555
C1_6 O8_3 1_555 1_555
Eu4_3 N2_6 1_555 1_555
O6_3 C8_6 1_555 1_555
N2_6 C10_6 1_555 1_555
C8_6 O8_5 1_555 1_555
C9_6 C8_6 1_555 1_555
O9_6 Eu4_3 1_555 1_555
C10_6 C9_6 1_555 1_555
H4_6 C10_6 1_555 1_555
O12_6 C14_6 1_555 1_555
C11_6 C9_6 1_555 1_555
H5_6 C11_6 1_555 1_555
C12_6 C11_6 1_555 1_555
H6_6 C12_6 1_555 1_555
C13_6 N2_6 1_555 1_555
C14_6 O9_6 1_555 1_555
C12_6 C13_6 1_555 1_555
C13_6 C14_6 1_555 1_555
N1_7 C3_7 1_555 1_555
O3_7 C7_7 1_555 1_555
C3_7 C2_6 1_555 1_555
H1_7 C3_7 1_555 1_555
O4_4 C7_7 1_555 1_555
C4_6 C2_6 1_555 1_555
H2_6 C4_6 1_555 1_555
C5_7 C4_6 1_555 1_555
H3_6 C5_7 1_555 1_555
C6_7 N1_7 1_555 1_555
C7_7 C6_7 1_555 1_555
Eu2_4 N1_7 1_555 1_555
O3_7 Eu2_4 1_555 1_555
C5_7 C6_7 1_555 1_555
O6_8 C1_7 1_555 1_555
C1_7 O8_2 1_555 1_555
Eu4_4 N2_7 1_555 1_555
O6_2 C8_7 1_555 1_555
N2_7 C10_7 1_555 1_555
C8_7 O8_8 1_555 1_555
C9_7 C8_7 1_555 1_555
O9_7 Eu4_4 1_555 1_555
C10_7 C9_7 1_555 1_555
H4_7 C10_7 1_555 1_555
O12_7 C14_7 1_555 1_555
C11_7 C9_7 1_555 1_555
H5_7 C11_7 1_555 1_555
C12_7 C11_7 1_555 1_555
H6_7 C12_7 1_555 1_555
C13_7 N2_7 1_555 1_555
C14_7 O9_7 1_555 1_555
C12_7 C13_7 1_555 1_555
C13_7 C14_7 1_555 1_555
O6_7 C1_8 1_555 1_555
N1_8 C3_8 1_555 1_555
C1_8 O8 1_555 1_555
C2_7 C1_8 1_555 1_555
O3_8 C7_8 1_555 1_555
C3_8 C2_7 1_555 1_555
H1_8 C3_8 1_555 1_555
C4_7 C2_7 1_555 1_555
H2_7 C4_7 1_555 1_555
C5_8 C4_7 1_555 1_555
H3_7 C5_8 1_555 1_555
C6_8 N1_8 1_555 1_555
C7_8 C6_8 1_555 1_555
Eu2_4 N1_8 1_555 1_555
Eu4_4 N2_8 1_555 1_555
O6 C8_8 1_555 1_555
N2_8 C10_8 1_555 1_555
C8_8 O8_7 1_555 1_555
C9_8 C8_8 1_555 1_555
O9_8 Eu4_4 1_555 1_555
C10_8 C9_8 1_555 1_555
H4_8 C10_8 1_555 1_555
O12_8 C14_8 1_555 1_555
C11_8 C9_8 1_555 1_555
H5_8 C11_8 1_555 1_555
C12_8 C11_8 1_555 1_555
H6_8 C12_8 1_555 1_555
C13_8 N2_8 1_555 1_555
C14_8 O9_8 1_555 1_555
O3_8 Eu2_4 1_555 1_555
C5_8 C6_8 1_555 1_555
C12_8 C13_8 1_555 1_555
C13_8 C14_8 1_555 1_555
Eu4 O1_5 1_555 1_555
O1_5 C1_9 1_555 1_555
C1_9 O2_5 1_555 1_555
O2_5 Eu4_2 1_555 1_555
C2_8 C1_9 1_555 1_555
C4_8 C2_8 1_555 1_555
H2_8 C4_8 1_555 1_555
Eu4_2 O5_5 1_555 1_555
O5_5 C8_9 1_555 1_555
O6_9 Eu4 1_555 1_555
C8_9 O7_5 1_555 1_555
O7_5 Eu4 1_555 1_555
O8_9 Eu4 1_555 1_555
C9_9 C8_9 1_555 1_555
C11_9 C9_9 1_555 1_555
H5_9 C11_9 1_555 1_555
N3_3 C3_9 1_555 1_555
O10_3 C7_9 1_555 1_555
H1_9 C3_9 1_555 1_555
C6_9 N3_3 1_555 1_555
C7_9 C6_9 1_555 1_555
N3 C10_9 1_555 1_555
H4_9 C10_9 1_555 1_555
O12_9 C14_9 1_555 1_555
C13_9 N3 1_555 1_555
C14_9 O10 1_555 1_555
C5_9 C6_9 1_555 1_555
C12_9 C13_9 1_555 1_555
C13_9 C14_9 1_555 1_555
Eu2_4 O1_6 1_555 1_555
O1_6 C1_10 1_555 1_555
C1_10 O2_6 1_555 1_555
O2_6 Eu2_3 1_555 1_555
Eu2_3 O5_6 1_555 1_555
O5_6 C8_10 1_555 1_555
O6_10 Eu2_4 1_555 1_555
N4 C10_10 1_555 1_555
C8_10 O7_6 1_555 1_555
O7_6 Eu2_4 1_555 1_555
O8_10 Eu2_4 1_555 1_555
C9_10 C8_10 1_555 1_555
C10_10 C9_10 1_555 1_555
H4_10 C10_10 1_555 1_555
O12_10 C14_10 1_555 1_555
C11_10 C9_10 1_555 1_555
H5_10 C11_10 1_555 1_555
C12_10 C11_10 1_555 1_555
H6_10 C12_10 1_555 1_555
C13_10 N4 1_555 1_555
C14_10 O11 1_555 1_555
C12_10 C13_10 1_555 1_555
C13_10 C14_10 1_555 1_555
N4_3 C3_10 1_555 1_555
O11_3 C7_10 1_555 1_555
C3_10 C2_9 1_555 1_555
H1_10 C3_10 1_555 1_555
O4_5 C7_10 1_555 1_555
C4_9 C2_9 1_555 1_555
H2_9 C4_9 1_555 1_555
C5_10 C4_9 1_555 1_555
H3_9 C5_10 1_555 1_555
C6_10 N4_3 1_555 1_555
C7_10 C6_10 1_555 1_555
C5_10 C6_10 1_555 1_555
Eu2 O1_7 1_555 1_555
O1_7 C1_11 1_555 1_555
C1_11 O2_7 1_555 1_555
O5_7 C8_11 1_555 1_555
O6_11 Eu2 1_555 1_555
C8_11 O7_7 1_555 1_555
O7_7 Eu2 1_555 1_555
O8_11 Eu2 1_555 1_555
C9_11 C8_11 1_555 1_555
C11_11 C9_11 1_555 1_555
H5_11 C11_11 1_555 1_555
N3_7 C10_11 1_555 1_555
H4_11 C10_11 1_555 1_555
O12_11 C14_11 1_555 1_555
C13_11 N3_7 1_555 1_555
C14_11 O10_7 1_555 1_555
C12_11 C13_11 1_555 1_555
C13_11 C14_11 1_555 1_555
N3_5 C3_11 1_555 1_555
O10_5 C7_11 1_555 1_555
H1_11 C3_11 1_555 1_555
O4_6 C7_11 1_555 1_555
C6_11 N3_5 1_555 1_555
C7_11 C6_11 1_555 1_555
C5_11 C6_11 1_555 1_555
Eu4_4 O1_8 1_555 1_555
O1_8 C1_12 1_555 1_555
N4_5 C3_12 1_555 1_555
C1_12 O2_8 1_555 1_555
C2_10 C1_12 1_555 1_555
O11_5 C7_12 1_555 1_555
C3_12 C2_10 1_555 1_555
H1_12 C3_12 1_555 1_555
C4_10 C2_10 1_555 1_555
H2_10 C4_10 1_555 1_555
C5_12 C4_10 1_555 1_555
H3_10 C5_12 1_555 1_555
C6_12 N4_5 1_555 1_555
C7_12 C6_12 1_555 1_555
O5_8 C8_12 1_555 1_555
O6_12 Eu4_4 1_555 1_555
N4_7 C10_12 1_555 1_555
C8_12 O7_8 1_555 1_555
O7_8 Eu4_4 1_555 1_555
O8_12 Eu4_4 1_555 1_555
C9_12 C8_12 1_555 1_555
C10_12 C9_12 1_555 1_555
H4_12 C10_12 1_555 1_555
O12_12 C14_12 1_555 1_555
C11_12 C9_12 1_555 1_555
H5_12 C11_12 1_555 1_555
C12_12 C11_12 1_555 1_555
H6_12 C12_12 1_555 1_555
C13_12 N4_7 1_555 1_555
C14_12 O11_7 1_555 1_555
C5_12 C6_12 1_555 1_555
C12_12 C13_12 1_555 1_555
C13_12 C14_12 1_555 1_555
O6_15 Eu4_2 1_555 1_555
O8_15 Eu4_2 1_555 1_555
O6_16 Eu2_3 1_555 1_555
O8_16 Eu2_3 1_555 1_555
O6_14 C1_13 1_555 1_555
N4_8 C3_13 1_555 1_555
C1_13 O8_12 1_555 1_555
C2_11 C1_13 1_555 1_555
O11_8 C7_13 1_555 1_555
C3_13 C2_11 1_555 1_555
H1_13 C3_13 1_555 1_555
C4_11 C2_11 1_555 1_555
H2_11 C4_11 1_555 1_555
C5_13 C4_11 1_555 1_555
H3_11 C5_13 1_555 1_555
C6_13 N4_8 1_555 1_555
C7_13 C6_13 1_555 1_555
O6_12 C8_13 1_555 1_555
N4_6 C10_13 1_555 1_555
C8_13 O8_14 1_555 1_555
C9_13 C8_13 1_555 1_555
C10_13 C9_13 1_555 1_555
H4_13 C10_13 1_555 1_555
O12_13 C14_13 1_555 1_555
C11_13 C9_13 1_555 1_555
H5_13 C11_13 1_555 1_555
C12_13 C11_13 1_555 1_555
H6_13 C12_13 1_555 1_555
C13_13 N4_6 1_555 1_555
C14_13 O11_6 1_555 1_555
C5_13 C6_13 1_555 1_555
C12_13 C13_13 1_555 1_555
C13_13 C14_13 1_555 1_555
O6_13 C1_14 1_555 1_555
C1_14 O8_11 1_555 1_555
O6_11 C8_14 1_555 1_555
N3_6 C10_14 1_555 1_555
C8_14 O8_13 1_555 1_555
C9_14 C8_14 1_555 1_555
C10_14 C9_14 1_555 1_555
H4_14 C10_14 1_555 1_555
O12_14 C14_14 1_555 1_555
C11_14 C9_14 1_555 1_555
H5_14 C11_14 1_555 1_555
C12_14 C11_14 1_555 1_555
H6_14 C12_14 1_555 1_555
C13_14 N3_6 1_555 1_555
C14_14 O10_6 1_555 1_555
C12_14 C13_14 1_555 1_555
C13_14 C14_14 1_555 1_555
N3_8 C3_14 1_555 1_555
O10_8 C7_14 1_555 1_555
C3_14 C2_12 1_555 1_555
H1_14 C3_14 1_555 1_555
O4_7 C7_14 1_555 1_555
C4_12 C2_12 1_555 1_555
H2_12 C4_12 1_555 1_555
C5_14 C4_12 1_555 1_555
H3_12 C5_14 1_555 1_555
C6_14 N3_8 1_555 1_555
C7_14 C6_14 1_555 1_555
C5_14 C6_14 1_555 1_555
O6_16 C1_15 1_555 1_555
C1_15 O8_10 1_555 1_555
O6_10 C8_15 1_555 1_555
N4_4 C10_15 1_555 1_555
C8_15 O8_16 1_555 1_555
C9_15 C8_15 1_555 1_555
C10_15 C9_15 1_555 1_555
H4_15 C10_15 1_555 1_555
O12_15 C14_15 1_555 1_555
C11_15 C9_15 1_555 1_555
H5_15 C11_15 1_555 1_555
C12_15 C11_15 1_555 1_555
H6_15 C12_15 1_555 1_555
C13_15 N4_4 1_555 1_555
C14_15 O11_4 1_555 1_555
C12_15 C13_15 1_555 1_555
C13_15 C14_15 1_555 1_555
N4_2 C3_15 1_555 1_555
O11_2 C7_15 1_555 1_555
C3_15 C2_13 1_555 1_555
H1_15 C3_15 1_555 1_555
O4_8 C7_15 1_555 1_555
C4_13 C2_13 1_555 1_555
H2_13 C4_13 1_555 1_555
C5_15 C4_13 1_555 1_555
H3_13 C5_15 1_555 1_555
C6_15 N4_2 1_555 1_555
C7_15 C6_15 1_555 1_555
C5_15 C6_15 1_555 1_555
O6_15 C1_16 1_555 1_555
N3_2 C3_16 1_555 1_555
C1_16 O8_9 1_555 1_555
C2_14 C1_16 1_555 1_555
O10_2 C7_16 1_555 1_555
C3_16 C2_14 1_555 1_555
H1_16 C3_16 1_555 1_555
C4_14 C2_14 1_555 1_555
H2_14 C4_14 1_555 1_555
C5_16 C4_14 1_555 1_555
H3_14 C5_16 1_555 1_555
C6_16 N3_2 1_555 1_555
C7_16 C6_16 1_555 1_555
O6_9 C8_16 1_555 1_555
N3_4 C10_16 1_555 1_555
C8_16 O8_15 1_555 1_555
C9_16 C8_16 1_555 1_555
C10_16 C9_16 1_555 1_555
H4_16 C10_16 1_555 1_555
O12_16 C14_16 1_555 1_555
C11_16 C9_16 1_555 1_555
H5_16 C11_16 1_555 1_555
C12_16 C11_16 1_555 1_555
H6_16 C12_16 1_555 1_555
C13_16 N3_4 1_555 1_555
C14_16 O10_4 1_555 1_555
C5_16 C6_16 1_555 1_555
C12_16 C13_16 1_555 1_555
C13_16 C14_16 1_555 1_555
C4_15 C2_15 1_555 1_555
H2_15 C4_15 1_555 1_555
C4_16 C2_16 1_555 1_555
H2_16 C4_16 1_555 1_555
N5 H7 1_555 1_555
C15 N5 1_555 1_555
H8 C15 1_555 1_555
H9 C15 1_555 1_555
H10 C15 1_555 1_555
H11 N5 1_555 1_555
C16 N5 1_555 1_555
H12 C16 1_555 1_555
H13 C16 1_555 1_555
H14 C16 1_555 1_555
N5_2 H7_2 1_555 1_555
C15_2 N5_2 1_555 1_555
H8_2 C15_2 1_555 1_555
H9_2 C15_2 1_555 1_555
H10_2 C15_2 1_555 1_555
H11_2 N5_2 1_555 1_555
C16_2 N5_2 1_555 1_555
H12_2 C16_2 1_555 1_555
H13_2 C16_2 1_555 1_555
H14_2 C16_2 1_555 1_555
N5_3 H7_3 1_555 1_555
C15_3 N5_3 1_555 1_555
H8_3 C15_3 1_555 1_555
H9_3 C15_3 1_555 1_555
H10_3 C15_3 1_555 1_555
H11_3 N5_3 1_555 1_555
C16_3 N5_3 1_555 1_555
H12_3 C16_3 1_555 1_555
H13_3 C16_3 1_555 1_555
H14_3 C16_3 1_555 1_555
N5_4 H7_4 1_555 1_555
C15_4 N5_4 1_555 1_555
H8_4 C15_4 1_555 1_555
H9_4 C15_4 1_555 1_555
H10_4 C15_4 1_555 1_555
H11_4 N5_4 1_555 1_555
C16_4 N5_4 1_555 1_555
H12_4 C16_4 1_555 1_555
H13_4 C16_4 1_555 1_555
H14_4 C16_4 1_555 1_555
N5_5 H7_5 1_555 1_555
C15_5 N5_5 1_555 1_555
H8_5 C15_5 1_555 1_555
H9_5 C15_5 1_555 1_555
H10_5 C15_5 1_555 1_555
H11_5 N5_5 1_555 1_555
C16_5 N5_5 1_555 1_555
H12_5 C16_5 1_555 1_555
H13_5 C16_5 1_555 1_555
H14_5 C16_5 1_555 1_555
N5_6 H7_6 1_555 1_555
C15_6 N5_6 1_555 1_555
H8_6 C15_6 1_555 1_555
H9_6 C15_6 1_555 1_555
H10_6 C15_6 1_555 1_555
H11_6 N5_6 1_555 1_555
C16_6 N5_6 1_555 1_555
H12_6 C16_6 1_555 1_555
H13_6 C16_6 1_555 1_555
H14_6 C16_6 1_555 1_555
N5_7 H7_7 1_555 1_555
C15_7 N5_7 1_555 1_555
H8_7 C15_7 1_555 1_555
H9_7 C15_7 1_555 1_555
H10_7 C15_7 1_555 1_555
H11_7 N5_7 1_555 1_555
C16_7 N5_7 1_555 1_555
H12_7 C16_7 1_555 1_555
H13_7 C16_7 1_555 1_555
H14_7 C16_7 1_555 1_555
N5_8 H7_8 1_555 1_555
C15_8 N5_8 1_555 1_555
H8_8 C15_8 1_555 1_555
H9_8 C15_8 1_555 1_555
H10_8 C15_8 1_555 1_555
H11_8 N5_8 1_555 1_555
C16_8 N5_8 1_555 1_555
H12_8 C16_8 1_555 1_555
H13_8 C16_8 1_555 1_555
H14_8 C16_8 1_555 1_555
N5_9 H7_9 1_555 1_555
C15_9 N5_9 1_555 1_555
H8_9 C15_9 1_555 1_555
H9_9 C15_9 1_555 1_555
H10_9 C15_9 1_555 1_555
H11_9 N5_9 1_555 1_555
C16_9 N5_9 1_555 1_555
H12_9 C16_9 1_555 1_555
H13_9 C16_9 1_555 1_555
H14_9 C16_9 1_555 1_555
N5_10 H7_10 1_555 1_555
C15_10 N5_10 1_555 1_555
H8_10 C15_10 1_555 1_555
H9_10 C15_10 1_555 1_555
H10_10 C15_10 1_555 1_555
H11_10 N5_10 1_555 1_555
C16_10 N5_10 1_555 1_555
H12_10 C16_10 1_555 1_555
H13_10 C16_10 1_555 1_555
H14_10 C16_10 1_555 1_555
N5_11 H7_11 1_555 1_555
C15_11 N5_11 1_555 1_555
H8_11 C15_11 1_555 1_555
H9_11 C15_11 1_555 1_555
H10_11 C15_11 1_555 1_555
H11_11 N5_11 1_555 1_555
C16_11 N5_11 1_555 1_555
H12_11 C16_11 1_555 1_555
H13_11 C16_11 1_555 1_555
H14_11 C16_11 1_555 1_555
N5_12 H7_12 1_555 1_555
C15_12 N5_12 1_555 1_555
H8_12 C15_12 1_555 1_555
H9_12 C15_12 1_555 1_555
H10_12 C15_12 1_555 1_555
H11_12 N5_12 1_555 1_555
C16_12 N5_12 1_555 1_555
H12_12 C16_12 1_555 1_555
H13_12 C16_12 1_555 1_555
H14_12 C16_12 1_555 1_555
N5_13 H7_13 1_555 1_555
C15_13 N5_13 1_555 1_555
H8_13 C15_13 1_555 1_555
H9_13 C15_13 1_555 1_555
H10_13 C15_13 1_555 1_555
H11_13 N5_13 1_555 1_555
C16_13 N5_13 1_555 1_555
H12_13 C16_13 1_555 1_555
H13_13 C16_13 1_555 1_555
H14_13 C16_13 1_555 1_555
N5_14 H7_14 1_555 1_555
C15_14 N5_14 1_555 1_555
H8_14 C15_14 1_555 1_555
H9_14 C15_14 1_555 1_555
H10_14 C15_14 1_555 1_555
H11_14 N5_14 1_555 1_555
C16_14 N5_14 1_555 1_555
H12_14 C16_14 1_555 1_555
H13_14 C16_14 1_555 1_555
H14_14 C16_14 1_555 1_555
N5_15 H7_15 1_555 1_555
C15_15 N5_15 1_555 1_555
H8_15 C15_15 1_555 1_555
H9_15 C15_15 1_555 1_555
H10_15 C15_15 1_555 1_555
H11_15 N5_15 1_555 1_555
C16_15 N5_15 1_555 1_555
H12_15 C16_15 1_555 1_555
H13_15 C16_15 1_555 1_555
H14_15 C16_15 1_555 1_555
N5_16 H7_16 1_555 1_555
C15_16 N5_16 1_555 1_555
H8_16 C15_16 1_555 1_555
H9_16 C15_16 1_555 1_555
H10_16 C15_16 1_555 1_555
H11_16 N5_16 1_555 1_555
C16_16 N5_16 1_555 1_555
H12_16 C16_16 1_555 1_555
H13_16 C16_16 1_555 1_555
H14_16 C16_16 1_555 1_555

#END
