
###############################################################################
#
# This file contains modified crystal structure data generated from the
# MOF subset of the Cambridge Structural Database (CSD) v543 
# hosted by the Cambridge Crystallographic Data Centre (CCDC).
#
# This work is licensed under the Creative Commons
# Attribution-NonCommercial-ShareAlike 4.0 International License.
# To view a copy of this license, visit
# http://creativecommons.org/licenses/by-nc-sa/4.0/
# or send a letter to
# Creative Commons, PO Box 1866, Mountain View, CA 94042, USA.
#
# CIF created using the CSD Python API on 29 September 2022
# The structure has been converted into the P1 space group
# The structure has a 3D framework
# The original CSD entry GUXZIJ is in the triclinic crystal system
# The framework has been calculated to contain at least 10.0% void space
# The void calculation uses a probe of radius 1.32A, grid spacing 0.4
# The framework is charged, counterions have been retained in the structure
#
###############################################################################

data_GUXZIJ
_chemical_formula_moiety         '(C34 H26 N2 O32 P8 U6 2-)n'
_symmetry_cell_setting           triclinic
_symmetry_space_group_name_H-M   'P 1'
_symmetry_Int_Tables_number      1
_space_group_name_Hall           'P 1'
loop_
_symmetry_equiv_pos_site_id
_symmetry_equiv_pos_as_xyz
1 x,y,z
_cell_length_a                   9.7932(10)
_cell_length_b                   10.6592(11)
_cell_length_c                   17.5643(17)
_cell_angle_alpha                83.846(2)
_cell_angle_beta                 86.318(2)
_cell_angle_gamma                65.184(2)
_cell_volume                     1654.23
loop_
_atom_site_label
_atom_site_type_symbol
_atom_site_fract_x
_atom_site_fract_y
_atom_site_fract_z
_atom_site_U_iso_or_equiv
_atom_site_thermal_displace_type
U11 U 0.37510(4) 0.26083(3) 0.24896(2) 0.0148 Uani
O20 O 0.2779(7) 0.1309(7) 0.1957(4) 0.0247 Uani
O29 O 0.1379(7) 0.3827(7) 0.2950(4) 0.0235 Uani
O36 O 0.6127(7) 0.1383(7) 0.2024(4) 0.0233 Uani
O43 O 0.4533(7) 0.4019(7) 0.3012(4) 0.0246 Uani
O48 O 0.3302(8) 0.3738(7) 0.1625(4) 0.0277 Uani
O49 O 0.4166(7) 0.1504(7) 0.3354(4) 0.0265 Uani
C15 C 0.1603(14) 0.045(2) 0.0515(7) 0.0858 Uani
H10 H 0.0735 0.0955 0.0810 0.1020 Uiso
P2 P 0.0065(2) 0.5038(2) 0.68074(13) 0.0149 Uani
O4 O 0.0353(6) 0.3589(7) 0.7203(4) 0.0175 Uani
O5 O 0.1454(7) 0.5239(6) 0.6994(4) 0.0175 Uani
O13 O 0.0178(7) 0.1179(7) 0.6620(3) 0.0186 Uani
C6 C 0.0727(10) 0.3752(10) 0.5454(5) 0.0191 Uani
H4 H 0.1230 0.2899 0.5754 0.0230 Uiso
U5 U 0.05720(3) 0.81455(3) 0.248897(18) 0.0138 Uani
U8 U 0.31303(3) 0.28899(3) 0.749610(18) 0.0145 Uani
O30 O 0.2126(7) 0.1221(6) 0.7908(4) 0.0193 Uani
C16 C 0.0711(11) 0.3776(10) 0.4668(6) 0.0213 Uani
H11 H 0.1200 0.2925 0.4440 0.0250 Uiso
C17 C 0.0007(10) 0.5003(9) 0.4189(5) 0.0176 Uani
C19 C 0.1494(13) 0.049(2) 0.9740(8) 0.0868 Uani
H13 H 0.0566 0.1087 0.9509 0.1040 Uiso
U7 U 0.68697(3) 0.71101(3) 0.250390(18) 0.0145 Uani
P5 P 0.3137(2) 0.9794(2) 0.18712(13) 0.0142 Uani
O19 O 0.2061(7) 0.9324(6) 0.2343(4) 0.0183 Uani
O21 O 0.4765(7) 0.8877(7) 0.2067(4) 0.0227 Uani
O26 O 0.8546(7) 0.4761(6) 0.3006(4) 0.0175 Uani
O32 O 0.7874(7) 0.8779(6) 0.2092(4) 0.0193 Uani
O38 O 0.2595(7) 0.6481(7) 0.3116(4) 0.0217 Uani
O40 O 0.5282(7) 0.6010(7) 0.2751(4) 0.0209 Uani
O45 O 0.1283(7) 0.7450(7) 0.1588(4) 0.0201 Uani
O46 O 0.7258(7) 0.6504(7) 0.1575(4) 0.0246 Uani
O47 O 0.6491(7) 0.7689(7) 0.3436(4) 0.0211 Uani
C13 C 0.4121(14) 0.8908(15) 0.0425(7) 0.0563 Uani
H9 H 0.5070 0.8362 0.0651 0.0680 Uiso
C14 C 0.2946(10) 0.9681(10) 0.0876(5) 0.0184 Uani
U16 U 0.62490(4) 0.73917(3) 0.75104(2) 0.0148 Uani
P7 P 0.2453(2) 0.9734(2) 0.82817(13) 0.0145 Uani
O33 O 0.1017(7) 0.9573(6) 0.8136(3) 0.0154 Uani
O34 O 0.3873(7) 0.8617(7) 0.7976(4) 0.0233 Uani
C20 C 0.2640(10) 0.9718(10) 0.9286(5) 0.0150 Uani
C21 C 0.3972(15) 0.8897(16) 0.9657(8) 0.0621 Uani
H14 H 0.4807 0.8308 0.9369 0.0750 Uiso
P3 P 0.7547(2) 0.0266(2) 0.17183(13) 0.0145 Uani
O8 O 0.8983(7) 0.0427(6) 0.1864(3) 0.0154 Uani
C8 C 0.7360(10) 0.0282(10) 0.0714(5) 0.0150 Uani
C9 C 0.6028(15) 0.1103(16) 0.0343(8) 0.0621 Uani
H6 H 0.5193 0.1692 0.0631 0.0750 Uiso
U1 U 0.94280(3) 0.18545(3) 0.751103(18) 0.0138 Uani
P1 P 0.6863(2) 0.0206(2) 0.81288(13) 0.0142 Uani
P4 P 0.5755(2) 0.4517(2) 0.67835(13) 0.0149 Uani
O1 O 0.7939(7) 0.0676(6) 0.7657(4) 0.0183 Uani
O3 O 0.5235(7) 0.1123(7) 0.7933(4) 0.0227 Uani
O6 O 0.8621(7) 0.6173(7) 0.7050(4) 0.0235 Uani
O10 O 0.7405(7) 0.3519(7) 0.6884(4) 0.0217 Uani
O11 O 0.4718(7) 0.3990(7) 0.7249(4) 0.0209 Uani
O12 O 0.5467(7) 0.5981(7) 0.6988(4) 0.0246 Uani
O14 O 0.8717(7) 0.2550(7) 0.8412(4) 0.0201 Uani
O15 O 0.2742(7) 0.3496(7) 0.8425(4) 0.0246 Uani
O16 O 0.3509(7) 0.2311(7) 0.6564(4) 0.0211 Uani
C1 C 0.5879(14) 0.1092(15) 0.9575(7) 0.0563 Uani
H1 H 0.4930 0.1638 0.9349 0.0680 Uiso
C2 C 0.7054(10) 0.0319(10) 0.9124(5) 0.0184 Uani
C4 C 0.9289(11) 0.6224(10) 0.5332(6) 0.0213 Uani
H3 H 0.8800 0.7075 0.5560 0.0250 Uiso
C5 C 0.9993(10) 0.4997(9) 0.5811(5) 0.0176 Uani
C10 C 0.3880(10) 0.5101(10) 0.5541(5) 0.0174 Uani
H7 H 0.3104 0.5178 0.5911 0.0210 Uiso
C11 C 0.5349(10) 0.4712(9) 0.5791(5) 0.0182 Uani
C12 C 0.6472(10) 0.4626(10) 0.5228(5) 0.0197 Uani
H8 H 0.7474 0.4379 0.5377 0.0240 Uiso
P6 P 0.9935(2) 0.4962(2) 0.31926(13) 0.0149 Uani
P8 P 0.4245(2) 0.5483(2) 0.32165(13) 0.0149 Uani
O22 O 0.9647(6) 0.6411(7) 0.2797(4) 0.0175 Uani
C18 C 0.9273(10) 0.6248(10) 0.4546(5) 0.0191 Uani
H12 H 0.8770 0.7101 0.4246 0.0230 Uiso
C22 C 0.6120(10) 0.4899(10) 0.4459(5) 0.0174 Uani
H15 H 0.6896 0.4822 0.4089 0.0210 Uiso
C23 C 0.4651(10) 0.5288(9) 0.4209(5) 0.0182 Uani
C24 C 0.3528(10) 0.5374(10) 0.4772(5) 0.0197 Uani
H16 H 0.2526 0.5621 0.4623 0.0240 Uiso
C7 C 0.8506(13) 0.951(2) 0.0260(8) 0.0868 Uani
H5 H 0.9434 0.8913 0.0491 0.1040 Uiso
O44 O 0.9822(7) 0.8821(7) 0.3380(3) 0.0186 Uani
O2 O 0.7221(7) 0.8691(7) 0.8043(4) 0.0247 Uani
O17 O 0.6698(8) 0.6262(7) 0.8375(4) 0.0277 Uani
O18 O 0.5834(7) 0.8496(7) 0.6646(4) 0.0265 Uani
C3 C 0.8397(14) 0.955(2) 0.9485(7) 0.0858 Uani
H2 H 0.9265 0.9045 0.9190 0.1020 Uiso
H22 H 0.1069 0.0452 0.3853 0.0270 Uiso
C30 C 0.0832(10) 0.9710(10) 0.4954(6) 0.0204 Uani
C31 C 0.1608(11) 0.9912(10) 0.4291(6) 0.0226 Uani
C32 C 0.3183(11) 0.9315(11) 0.4274(6) 0.0271 Uani
H23 H 0.3711 0.9414 0.3814 0.0320 Uiso
C33 C 0.3981(12) 0.8583(11) 0.4920(6) 0.0283 Uani
H24 H 0.5050 0.8195 0.4919 0.0340 Uiso
C34 C 0.3157(11) 0.8439(11) 0.5564(6) 0.0271 Uani
H25 H 0.3673 0.7950 0.6017 0.0320 Uiso
N2 N 0.1653(9) 0.8969(8) 0.5570(4) 0.0216 Uani
H26 H 0.1178 0.8831 0.5991 0.0260 Uiso
C25 C 0.9168(10) 0.0290(10) 0.5046(6) 0.0204 Uani
C26 C 0.8392(11) 0.0088(10) 0.5709(6) 0.0226 Uani
C27 C 0.6817(11) 0.0685(11) 0.5726(6) 0.0271 Uani
H18 H 0.6289 0.0586 0.6186 0.0320 Uiso
C28 C 0.6019(12) 0.1417(11) 0.5080(6) 0.0283 Uani
H19 H 0.4950 0.1805 0.5081 0.0340 Uiso
C29 C 0.6843(11) 0.1561(11) 0.4436(6) 0.0271 Uani
H20 H 0.6327 0.2050 0.3983 0.0320 Uiso
N1 N 0.8347(9) 0.1031(8) 0.4430(4) 0.0216 Uani
H21 H 0.8822 0.1169 0.4009 0.0260 Uiso
H17 H 0.8931 0.9548 0.6147 0.0270 Uiso
loop_
_atom_site_aniso_label
_atom_site_aniso_U_11
_atom_site_aniso_U_22
_atom_site_aniso_U_33
_atom_site_aniso_U_23
_atom_site_aniso_U_13
_atom_site_aniso_U_12
U11 0.01139 0.01611 0.0177 -0.00288 -0.0002 -0.00618
O20 0.021 0.025 0.028 -0.002 -0.005 -0.009
O29 0.015 0.029 0.027 -0.005 -0.001 -0.009
O36 0.015 0.029 0.025 -0.005 0.002 -0.008
O43 0.022 0.031 0.025 -0.013 -0.005 -0.012
O48 0.038 0.024 0.024 0.01 -0.004 -0.018
O49 0.023 0.036 0.022 0.005 -0.005 -0.015
C15 0.024 0.157 0.021 -0.033 0.002 0.022
P2 0.0105 0.0166 0.0189 -0.0021 -0.001 -0.0067
O4 0.01 0.024 0.021 0.002 -0.004 -0.01
O5 0.013 0.02 0.019 0.003 -0.004 -0.007
O13 0.019 0.025 0.011 -0.004 0.001 -0.008
C6 0.017 0.018 0.02 0.003 -0.001 -0.006
U5 0.01108 0.01742 0.01454 -0.00129 -0.00061 -0.0075
U8 0.01092 0.01879 0.01575 -0.00128 -0.00058 -0.00801
O30 0.014 0.017 0.027 0 -0.001 -0.007
C16 0.024 0.013 0.025 -0.004 -0.002 -0.005
C17 0.015 0.017 0.022 -0.001 -0.001 -0.008
C19 0.009 0.162 0.025 -0.028 -0.007 0.033
U7 0.01092 0.01879 0.01575 -0.00128 -0.00058 -0.00801
P5 0.0116 0.0197 0.0132 -0.0012 -0.0018 -0.0081
O19 0.021 0.018 0.02 -0.004 0.002 -0.012
O21 0.009 0.027 0.031 0.006 -0.004 -0.008
O26 0.013 0.02 0.019 0.003 -0.004 -0.007
O32 0.014 0.017 0.027 0 -0.001 -0.007
O38 0.011 0.034 0.023 -0.003 -0.002 -0.012
O40 0.019 0.033 0.017 0.002 -0.001 -0.018
O45 0.022 0.021 0.02 -0.007 0.003 -0.011
O46 0.023 0.037 0.019 -0.009 -0.001 -0.016
O47 0.02 0.026 0.016 -0.004 -0.006 -0.007
C13 0.033 0.071 0.027 -0.014 -0.01 0.019
C14 0.016 0.026 0.02 0.001 -0.001 -0.016
U16 0.01139 0.01611 0.0177 -0.00288 -0.0002 -0.00618
P7 0.0108 0.0193 0.0142 -0.0027 0.0014 -0.007
O33 0.018 0.019 0.013 0.002 -0.002 -0.012
O34 0.015 0.029 0.025 -0.005 0.002 -0.008
C20 0.018 0.027 0.005 0.001 0.002 -0.015
C21 0.04 0.07 0.029 -0.011 -0.009 0.026
P3 0.0108 0.0193 0.0142 -0.0027 0.0014 -0.007
O8 0.018 0.019 0.013 0.002 -0.002 -0.012
C8 0.018 0.027 0.005 0.001 0.002 -0.015
C9 0.04 0.07 0.029 -0.011 -0.009 0.026
U1 0.01108 0.01742 0.01454 -0.00129 -0.00061 -0.0075
P1 0.0116 0.0197 0.0132 -0.0012 -0.0018 -0.0081
P4 0.0128 0.017 0.0168 -0.0016 -0.003 -0.0077
O1 0.021 0.018 0.02 -0.004 0.002 -0.012
O3 0.009 0.027 0.031 0.006 -0.004 -0.008
O6 0.015 0.029 0.027 -0.005 -0.001 -0.009
O10 0.011 0.034 0.023 -0.003 -0.002 -0.012
O11 0.019 0.033 0.017 0.002 -0.001 -0.018
O12 0.022 0.031 0.025 -0.013 -0.005 -0.012
O14 0.022 0.021 0.02 -0.007 0.003 -0.011
O15 0.023 0.037 0.019 -0.009 -0.001 -0.016
O16 0.02 0.026 0.016 -0.004 -0.006 -0.007
C1 0.033 0.071 0.027 -0.014 -0.01 0.019
C2 0.016 0.026 0.02 0.001 -0.001 -0.016
C4 0.024 0.013 0.025 -0.004 -0.002 -0.005
C5 0.015 0.017 0.022 -0.001 -0.001 -0.008
C10 0.017 0.029 0.007 0.004 -0.004 -0.011
C11 0.013 0.017 0.024 0.003 -0.005 -0.006
C12 0.011 0.027 0.018 0.002 0.001 -0.006
P6 0.0105 0.0166 0.0189 -0.0021 -0.001 -0.0067
P8 0.0128 0.017 0.0168 -0.0016 -0.003 -0.0077
O22 0.01 0.024 0.021 0.002 -0.004 -0.01
C18 0.017 0.018 0.02 0.003 -0.001 -0.006
C22 0.017 0.029 0.007 0.004 -0.004 -0.011
C23 0.013 0.017 0.024 0.003 -0.005 -0.006
C24 0.011 0.027 0.018 0.002 0.001 -0.006
C7 0.009 0.162 0.025 -0.028 -0.007 0.033
O44 0.019 0.025 0.011 -0.004 0.001 -0.008
O2 0.021 0.025 0.028 -0.002 -0.005 -0.009
O17 0.038 0.024 0.024 0.01 -0.004 -0.018
O18 0.023 0.036 0.022 0.005 -0.005 -0.015
C3 0.024 0.157 0.021 -0.033 0.002 0.022
C30 0.025 0.023 0.022 -0.006 0.002 -0.018
C31 0.025 0.027 0.02 -0.002 0 -0.015
C32 0.028 0.031 0.026 -0.003 0.009 -0.017
C33 0.022 0.031 0.036 -0.008 0 -0.014
C34 0.028 0.027 0.022 0.001 -0.008 -0.007
N2 0.029 0.025 0.016 -0.004 0.001 -0.016
C25 0.025 0.023 0.022 -0.006 0.002 -0.018
C26 0.025 0.027 0.02 -0.002 0 -0.015
C27 0.028 0.031 0.026 -0.003 0.009 -0.017
C28 0.022 0.031 0.036 -0.008 0 -0.014
C29 0.028 0.027 0.022 0.001 -0.008 -0.007
N1 0.029 0.025 0.016 -0.004 0.001 -0.016
loop_
_geom_bond_atom_site_label_1
_geom_bond_atom_site_label_2
_geom_bond_site_symmetry_1
_geom_bond_site_symmetry_2
U11 O20 1_555 1_555
O29 U11 1_555 1_555
O36 U11 1_555 1_555
O43 U11 1_555 1_555
O48 U11 1_555 1_555
O49 U11 1_555 1_555
H10 C15 1_555 1_555
P2 O4 1_555 1_555
O5 P2 1_555 1_555
H4 C6 1_555 1_555
U8 O5 1_555 1_555
C16 C6 1_555 1_555
H11 C16 1_555 1_555
H13 C19 1_555 1_555
U8 O30 1_555 1_555
C16 C17 1_555 1_555
U7 O21 1_555 1_555
P5 O19 1_555 1_555
O19 U5 1_555 1_555
O21 P5 1_555 1_555
O26 U7 1_555 1_555
O32 U7 1_555 1_555
O38 U5 1_555 1_555
O40 U7 1_555 1_555
O45 U5 1_555 1_555
O46 U7 1_555 1_555
O47 U7 1_555 1_555
C13 H9 1_555 1_555
C14 P5 1_555 1_555
C13 C14 1_555 1_555
U16 O34 1_555 1_555
O34 P7 1_555 1_555
C20 P7 1_555 1_555
H14 C21 1_555 1_555
P7 O33 1_555 1_555
C20 C21 1_555 1_555
O8 P3 1_555 1_555
O36 P3 1_555 1_555
C8 P3 1_555 1_555
H6 C9 1_555 1_555
C8 C9 1_555 1_555
U1 O1 1_555 1_555
U8 O3 1_555 1_555
P1 O1 1_555 1_555
P4 O10 1_555 1_555
O3 P1 1_555 1_555
O10 U1 1_555 1_555
O11 U8 1_555 1_555
O12 P4 1_555 1_555
O14 U1 1_555 1_555
O15 U8 1_555 1_555
O16 U8 1_555 1_555
C1 H1 1_555 1_555
C2 P1 1_555 1_555
C4 H3 1_555 1_555
C10 H7 1_555 1_555
C11 P4 1_555 1_555
C12 C11 1_555 1_555
H8 C12 1_555 1_555
U16 O6 1_555 1_555
P6 O22 1_555 1_555
P8 O38 1_555 1_555
O26 P6 1_555 1_555
O43 P8 1_555 1_555
C18 C4 1_555 1_555
H12 C18 1_555 1_555
C22 C12 1_555 1_555
H15 C22 1_555 1_555
C23 P8 1_555 1_555
C24 C10 1_555 1_555
H16 C24 1_555 1_555
P4 O11 1_555 1_555
O12 U16 1_555 1_555
C1 C2 1_555 1_555
C4 C5 1_555 1_555
C10 C11 1_555 1_555
P8 O40 1_555 1_555
C22 C23 1_555 1_555
C23 C24 1_555 1_555
H5 C7 1_555 1_555
U16 O2 1_555 1_555
O17 U16 1_555 1_555
O18 U16 1_555 1_555
H2 C3 1_555 1_555
C31 C30 1_555 1_555
C32 C31 1_555 1_555
H23 C32 1_555 1_555
C33 C32 1_555 1_555
H24 C33 1_555 1_555
C34 C33 1_555 1_555
H25 C34 1_555 1_555
N2 C30 1_555 1_555
H26 N2 1_555 1_555
C34 N2 1_555 1_555
C25 C26 1_555 1_555
C27 C26 1_555 1_555
H18 C27 1_555 1_555
C28 C27 1_555 1_555
H19 C28 1_555 1_555
C29 C28 1_555 1_555
H20 C29 1_555 1_555
N1 C25 1_555 1_555
H21 N1 1_555 1_555
C29 N1 1_555 1_555

#END
