
###############################################################################
#
# This file contains modified crystal structure data generated from the
# MOF subset of the Cambridge Structural Database (CSD) v543 
# hosted by the Cambridge Crystallographic Data Centre (CCDC).
#
# This work is licensed under the Creative Commons
# Attribution-NonCommercial-ShareAlike 4.0 International License.
# To view a copy of this license, visit
# http://creativecommons.org/licenses/by-nc-sa/4.0/
# or send a letter to
# Creative Commons, PO Box 1866, Mountain View, CA 94042, USA.
#
# CIF created using the CSD Python API on 29 September 2022
# The structure has been converted into the P1 space group
# The structure has a 3D framework
# The original CSD entry GUYLUI is in the monoclinic crystal system
# The framework has been calculated to contain at least 10.0% void space
# The void calculation uses a probe of radius 1.32A, grid spacing 0.4
#
###############################################################################

data_GUYLUI
_chemical_formula_moiety         '(C120 H64 N8 O32 S16 Zn5)n'
_symmetry_cell_setting           triclinic
_symmetry_space_group_name_H-M   'P 1'
_symmetry_Int_Tables_number      1
_space_group_name_Hall           'P 1'
loop_
_symmetry_equiv_pos_site_id
_symmetry_equiv_pos_as_xyz
1 x,y,z
_cell_length_a                   17.692(4)
_cell_length_b                   21.743(6)
_cell_length_c                   9.376(3)
_cell_angle_alpha                90
_cell_angle_beta                 108.334(3)
_cell_angle_gamma                90
_cell_volume                     3423.65
loop_
_atom_site_label
_atom_site_type_symbol
_atom_site_fract_x
_atom_site_fract_y
_atom_site_fract_z
O1 O 0.03867(12) 0.71630(9) 0.0748(2)
C6 C 0.08739(16) 0.69192(12) 0.1876(3)
C7 C 0.13808(17) 0.64181(13) 0.1637(3)
C8 C 0.1399(2) 0.61437(15) 0.0338(4)
C9 C 0.1967(2) 0.56672(15) 0.0603(4)
C10 C 0.23764(18) 0.55835(14) 0.2084(3)
S1 S 0.20666(4) 0.60990(3) 0.31845(8)
C11 C 0.29957(18) 0.51394(14) 0.2793(3)
S2 S 0.29806(5) 0.44281(4) 0.19901(9)
C12 C 0.38325(17) 0.42056(13) 0.3368(3)
C13 C 0.40935(19) 0.46582(14) 0.4407(4)
H7 H 0.4542 0.4618 0.5266
C14 C 0.3621(2) 0.51961(15) 0.4062(4)
H8 H 0.3731 0.5555 0.4651
C15 C 0.42353(16) 0.36311(12) 0.3211(3)
O3 O 0.39642(12) 0.33463(9) 0.2002(2)
O4 O 0.48291(12) 0.34774(9) 0.4306(2)
Zn2 Zn 0.050122(17) 0.774458(13) 0.41154(3)
Zn3 Zn 0.449878(17) 0.274458(13) 0.08846(3)
Zn4 Zn 0.550122(17) 0.274458(13) 0.41154(3)
O6 O 0.53867(12) 0.21630(9) 0.0748(2)
O7 O 0.09644(13) 0.70488(9) 0.3224(2)
O8 O 0.40356(13) 0.20488(9) 0.1776(2)
O11 O 0.01709(12) 0.84774(9) 0.0694(2)
O12 O 0.51709(12) 0.34774(9) 0.0694(2)
Zn1 Zn 0.949878(17) 0.774458(13) 0.08846(3)
O2 O 0.90356(13) 0.70488(9) 0.1776(2)
O5 O 0.96133(12) 0.71630(9) 0.4252(2)
C21 C 0.91261(16) 0.69192(12) 0.3124(3)
C22 C 0.86192(17) 0.64181(13) 0.3363(3)
C23 C 0.8601(2) 0.61437(15) 0.4662(4)
H13 H 0.8931 0.6259 0.5623
C24 C 0.8033(2) 0.56672(15) 0.4397(4)
H14 H 0.7945 0.5430 0.5169
C25 C 0.76236(18) 0.55835(14) 0.2916(3)
S3 S 0.79334(4) 0.60990(3) 0.18155(8)
C26 C 0.70043(18) 0.51394(14) 0.2207(3)
S4 S 0.70194(5) 0.44281(4) 0.30099(9)
C27 C 0.61675(17) 0.42056(13) 0.1632(3)
C28 C 0.59065(19) 0.46582(14) 0.0593(4)
C29 C 0.6379(2) 0.51961(15) 0.0938(4)
H16 H 0.6269 0.5555 0.0349
C30 C 0.57647(16) 0.36311(12) 0.1789(3)
O9 O 0.89642(12) 0.83463(9) 0.2002(2)
O10 O 0.60358(12) 0.33463(9) 0.2998(2)
N1 N 0.12536(14) 0.76835(10) 0.6253(3)
C1 C 0.1859(3) 0.73000(17) 0.6610(4)
H1 H 0.1959 0.7070 0.5840
C2 C 0.2356(3) 0.72198(18) 0.8070(4)
H2 H 0.2780 0.6939 0.8262
C3 C 0.22420(15) 0.75364(14) 0.9220(3)
C4 C 0.1637(2) 0.7966(2) 0.8830(4)
H3 H 0.1544 0.8217 0.9574
C5 C 0.1167(2) 0.8027(2) 0.7349(4)
H4 H 0.0765 0.8328 0.7112
O9_2 O 0.10358(12) 0.83463(9) 0.2998(2)
N2 N 0.62536(14) 0.26835(10) 0.6253(3)
O6_2 O 0.46133(12) 0.21630(9) 0.4252(2)
O8_2 O 0.59644(13) 0.20488(9) 0.3224(2)
O11_2 O 0.98291(12) 0.84774(9) 0.4306(2)
C6_2 C 0.58739(16) 0.19192(12) 0.1876(3)
C7_2 C 0.63808(17) 0.14181(13) 0.1637(3)
C8_2 C 0.6399(2) 0.11437(15) 0.0338(4)
C9_2 C 0.6967(2) 0.06672(15) 0.0603(4)
C10_2 C 0.73764(18) 0.05835(14) 0.2084(3)
S1_2 S 0.70666(4) 0.10990(3) 0.31845(8)
C11_2 C 0.79957(18) 0.01394(14) 0.2793(3)
C14_2 C 0.8621(2) 0.01961(15) 0.4062(4)
H8_2 H 0.8731 0.0555 0.4651
C21_2 C 0.41261(16) 0.19192(12) 0.3124(3)
C22_2 C 0.36192(17) 0.14181(13) 0.3363(3)
C23_2 C 0.3601(2) 0.11437(15) 0.4662(4)
H13_2 H 0.3931 0.1259 0.5623
C24_2 C 0.3033(2) 0.06672(15) 0.4397(4)
H14_2 H 0.2945 0.0430 0.5169
C25_2 C 0.26236(18) 0.05835(14) 0.2916(3)
S3_2 S 0.29334(4) 0.10990(3) 0.18155(8)
C26_2 C 0.20043(18) 0.01394(14) 0.2207(3)
C29_2 C 0.1379(2) 0.01961(15) 0.0938(4)
H16_2 H 0.1269 0.0555 0.0349
S2_2 S 0.79806(5) 0.94281(4) 0.19901(9)
C12_2 C 0.88325(17) 0.92056(13) 0.3368(3)
C13_2 C 0.90935(19) 0.96582(14) 0.4407(4)
H7_2 H 0.9542 0.9618 0.5266
C15_2 C 0.92353(16) 0.86311(12) 0.3211(3)
S4_2 S 0.20194(5) 0.94281(4) 0.30099(9)
C27_2 C 0.11675(17) 0.92056(13) 0.1632(3)
C28_2 C 0.09065(19) 0.96582(14) 0.0593(4)
C30_2 C 0.07647(16) 0.86311(12) 0.1789(3)
C1_2 C 0.6859(3) 0.23000(17) 0.6610(4)
H1_2 H 0.6959 0.2070 0.5840
C2_2 C 0.7356(3) 0.22198(18) 0.8070(4)
H2_2 H 0.7780 0.1939 0.8262
C3_2 C 0.72420(15) 0.25364(14) 0.9220(3)
C4_2 C 0.6637(2) 0.2966(2) 0.8830(4)
H3_2 H 0.6544 0.3217 0.9574
C5_2 C 0.6167(2) 0.3027(2) 0.7349(4)
H4_2 H 0.5765 0.3328 0.7112
H5 H 0.1069 0.6259 0.9377
H6 H 0.2055 0.5430 0.9831
N2_2 N 0.37464(14) 0.26835(10) 0.8747(3)
C1_3 C 0.3141(3) 0.23000(17) 0.8390(4)
H1_3 H 0.3041 0.2070 0.9160
C2_3 C 0.2644(3) 0.22198(18) 0.6930(4)
H2_3 H 0.2220 0.1939 0.6738
C3_3 C 0.27580(15) 0.25364(14) 0.5780(3)
C4_3 C 0.3363(2) 0.2966(2) 0.6170(4)
H3_3 H 0.3456 0.3217 0.5426
C5_3 C 0.3833(2) 0.3027(2) 0.7651(4)
H4_3 H 0.4235 0.3328 0.7888
H5_2 H 0.6069 0.1259 0.9377
H6_2 H 0.7055 0.0430 0.9831
N3 N 0.12536(14) 0.23165(10) 0.1253(3)
C16 C 0.1859(3) 0.27000(17) 0.1610(4)
H9 H 0.1959 0.2930 0.0840
C17 C 0.2356(3) 0.27802(18) 0.3070(4)
H10 H 0.2780 0.3061 0.3262
C18 C 0.22420(15) 0.24636(14) 0.4220(3)
C19 C 0.1637(2) 0.2034(2) 0.3830(4)
H11 H 0.1544 0.1783 0.4574
C20 C 0.1167(2) 0.1973(2) 0.2349(4)
H12 H 0.0765 0.1672 0.2112
H15 H 0.4542 0.5382 0.0266
H15_2 H 0.9542 0.0382 0.0266
N1_2 N 0.87464(14) 0.76835(10) 0.8747(3)
C1_4 C 0.8141(3) 0.73000(17) 0.8390(4)
H1_4 H 0.8041 0.7070 0.9160
C2_4 C 0.7644(3) 0.72198(18) 0.6930(4)
H2_4 H 0.7220 0.6939 0.6738
C3_4 C 0.77580(15) 0.75364(14) 0.5780(3)
C4_4 C 0.8363(2) 0.7966(2) 0.6170(4)
H3_4 H 0.8456 0.8217 0.5426
C5_4 C 0.8833(2) 0.8027(2) 0.7651(4)
H4_4 H 0.9235 0.8328 0.7888
N3_2 N 0.62536(14) 0.73165(10) 0.1253(3)
C16_2 C 0.6859(3) 0.77000(17) 0.1610(4)
H9_2 H 0.6959 0.7930 0.0840
C17_2 C 0.7356(3) 0.77802(18) 0.3070(4)
H10_2 H 0.7780 0.8061 0.3262
C18_2 C 0.72420(15) 0.74636(14) 0.4220(3)
C19_2 C 0.6637(2) 0.7034(2) 0.3830(4)
H11_2 H 0.6544 0.6783 0.4574
C20_2 C 0.6167(2) 0.6973(2) 0.2349(4)
H12_2 H 0.5765 0.6672 0.2112
H15_3 H 0.5458 0.4618 0.9734
H15_4 H 0.0458 0.9618 0.9734
H5_3 H 0.8931 0.3741 0.0623
H6_3 H 0.7945 0.4570 0.0169
H5_4 H 0.3931 0.8741 0.0623
H6_4 H 0.2945 0.9570 0.0169
Zn5 Zn 0.550122(17) 0.725542(13) 0.91154(3)
N3_3 N 0.37464(14) 0.73165(10) 0.3747(3)
C16_3 C 0.3141(3) 0.77000(17) 0.3390(4)
H9_3 H 0.3041 0.7930 0.4160
C17_3 C 0.2644(3) 0.77802(18) 0.1930(4)
H10_3 H 0.2220 0.8061 0.1738
C18_3 C 0.27580(15) 0.74636(14) 0.0780(3)
C19_3 C 0.3363(2) 0.7034(2) 0.1170(4)
H11_3 H 0.3456 0.6783 0.0426
C20_3 C 0.3833(2) 0.6973(2) 0.2651(4)
H12_3 H 0.4235 0.6672 0.2888
Zn5_2 Zn 0.449878(17) 0.725542(13) 0.58846(3)
Zn5_3 Zn 0.050122(17) 0.225542(13) 0.91154(3)
N3_4 N 0.87464(14) 0.23165(10) 0.3747(3)
C16_4 C 0.8141(3) 0.27000(17) 0.3390(4)
H9_4 H 0.8041 0.2930 0.4160
C17_4 C 0.7644(3) 0.27802(18) 0.1930(4)
H10_4 H 0.7220 0.3061 0.1738
C18_4 C 0.77580(15) 0.24636(14) 0.0780(3)
C19_4 C 0.8363(2) 0.2034(2) 0.1170(4)
H11_4 H 0.8456 0.1783 0.0426
C20_4 C 0.8833(2) 0.1973(2) 0.2651(4)
H12_4 H 0.9235 0.1672 0.2888
Zn5_4 Zn 0.949878(17) 0.225542(13) 0.58846(3)
O2_2 O 0.09644(13) 0.29512(9) 0.8224(2)
O5_2 O 0.03867(12) 0.28370(9) 0.5748(2)
C21_3 C 0.08739(16) 0.30808(12) 0.6876(3)
C22_3 C 0.13808(17) 0.35819(13) 0.6637(3)
C23_3 C 0.1399(2) 0.38563(15) 0.5338(4)
H13_3 H 0.1069 0.3741 0.4377
C24_3 C 0.1967(2) 0.43328(15) 0.5603(4)
H14_3 H 0.2055 0.4570 0.4831
C25_3 C 0.23764(18) 0.44165(14) 0.7084(3)
S3_3 S 0.20666(4) 0.39010(3) 0.81845(8)
C26_3 C 0.29957(18) 0.48606(14) 0.7793(3)
S4_3 S 0.29806(5) 0.55719(4) 0.69901(9)
C27_3 C 0.38325(17) 0.57944(13) 0.8368(3)
C28_3 C 0.40935(19) 0.53418(14) 0.9407(4)
C29_3 C 0.3621(2) 0.48039(15) 0.9062(4)
H16_3 H 0.3731 0.4445 0.9651
C30_3 C 0.42353(16) 0.63689(12) 0.8211(3)
O9_3 O 0.10358(12) 0.16537(9) 0.7998(2)
O10_2 O 0.39642(12) 0.66537(9) 0.7002(2)
O13 O 0.48291(12) 0.65226(9) 0.9306(2)
O1_2 O 0.96133(12) 0.28370(9) 0.9252(2)
C6_3 C 0.91261(16) 0.30808(12) 0.8124(3)
C7_3 C 0.86192(17) 0.35819(13) 0.8363(3)
C8_3 C 0.8601(2) 0.38563(15) 0.9662(4)
C9_3 C 0.8033(2) 0.43328(15) 0.9397(4)
C10_3 C 0.76236(18) 0.44165(14) 0.7916(3)
S1_3 S 0.79334(4) 0.39010(3) 0.68155(8)
C11_3 C 0.70043(18) 0.48606(14) 0.7207(3)
S2_3 S 0.70194(5) 0.55719(4) 0.80099(9)
C12_3 C 0.61675(17) 0.57944(13) 0.6632(3)
C13_3 C 0.59065(19) 0.53418(14) 0.5593(4)
H7_3 H 0.5458 0.5382 0.4734
C14_3 C 0.6379(2) 0.48039(15) 0.5938(4)
H8_3 H 0.6269 0.4445 0.5349
C15_3 C 0.57647(16) 0.63689(12) 0.6789(3)
O3_2 O 0.60358(12) 0.66537(9) 0.7998(2)
O4_2 O 0.51709(12) 0.65226(9) 0.5694(2)
O6_3 O 0.46133(12) 0.78370(9) 0.9252(2)
O7_2 O 0.90356(13) 0.29512(9) 0.6776(2)
O8_3 O 0.59644(13) 0.79512(9) 0.8224(2)
O11_3 O 0.98291(12) 0.15226(9) 0.9306(2)
O6_4 O 0.53867(12) 0.78370(9) 0.5748(2)
O8_4 O 0.40356(13) 0.79512(9) 0.6776(2)
O11_4 O 0.01709(12) 0.15226(9) 0.5694(2)
O9_4 O 0.89642(12) 0.16537(9) 0.7002(2)
S2_4 S 0.20194(5) 0.05719(4) 0.80099(9)
C12_4 C 0.11675(17) 0.07944(13) 0.6632(3)
C13_4 C 0.09065(19) 0.03418(14) 0.5593(4)
H7_4 H 0.0458 0.0382 0.4734
C15_4 C 0.07647(16) 0.13689(12) 0.6789(3)
S4_4 S 0.79806(5) 0.05719(4) 0.69901(9)
C27_4 C 0.88325(17) 0.07944(13) 0.8368(3)
C28_4 C 0.90935(19) 0.03418(14) 0.9407(4)
C30_4 C 0.92353(16) 0.13689(12) 0.8211(3)
C6_4 C 0.41261(16) 0.80808(12) 0.8124(3)
C7_4 C 0.36192(17) 0.85819(13) 0.8363(3)
C8_4 C 0.3601(2) 0.88563(15) 0.9662(4)
C9_4 C 0.3033(2) 0.93328(15) 0.9397(4)
C10_4 C 0.26236(18) 0.94165(14) 0.7916(3)
S1_4 S 0.29334(4) 0.89010(3) 0.68155(8)
C11_4 C 0.20043(18) 0.98606(14) 0.7207(3)
C14_4 C 0.1379(2) 0.98039(15) 0.5938(4)
H8_4 H 0.1269 0.9445 0.5349
C21_4 C 0.58739(16) 0.80808(12) 0.6876(3)
C22_4 C 0.63808(17) 0.85819(13) 0.6637(3)
C23_4 C 0.6399(2) 0.88563(15) 0.5338(4)
H13_4 H 0.6069 0.8741 0.4377
C24_4 C 0.6967(2) 0.93328(15) 0.5603(4)
H14_4 H 0.7055 0.9570 0.4831
C25_4 C 0.73764(18) 0.94165(14) 0.7084(3)
S3_4 S 0.70666(4) 0.89010(3) 0.81845(8)
C26_4 C 0.79957(18) 0.98606(14) 0.7793(3)
C29_4 C 0.8621(2) 0.98039(15) 0.9062(4)
H16_4 H 0.8731 0.9445 0.9651
loop_
_geom_bond_atom_site_label_1
_geom_bond_atom_site_label_2
_geom_bond_site_symmetry_1
_geom_bond_site_symmetry_2
C6 O1 1_555 1_555
C7 C6 1_555 1_555
C8 C7 1_555 1_555
C9 C8 1_555 1_555
C10 C9 1_555 1_555
S1 C7 1_555 1_555
C11 C10 1_555 1_555
S2 C11 1_555 1_555
C12 S2 1_555 1_555
C13 C12 1_555 1_555
H7 C13 1_555 1_555
C14 C11 1_555 1_555
H8 C14 1_555 1_555
C15 C12 1_555 1_555
O3 C15 1_555 1_555
O4 C15 1_555 1_555
Zn3 O3 1_555 1_555
Zn4 O4 1_555 1_555
O6 Zn3 1_555 1_555
O7 C6 1_555 1_555
O8 Zn3 1_555 1_555
O12 Zn3 1_555 1_555
C10 S1 1_555 1_555
C13 C14 1_555 1_555
Zn2 O7 1_555 1_555
O2 Zn1 1_555 1_555
Zn4 O10 1_555 1_555
O5 C21 1_555 1_555
C21 O2 1_555 1_555
C22 C21 1_555 1_555
C23 C22 1_555 1_555
H13 C23 1_555 1_555
C24 C23 1_555 1_555
H14 C24 1_555 1_555
C25 C24 1_555 1_555
S3 C22 1_555 1_555
C26 C25 1_555 1_555
S4 C26 1_555 1_555
C27 S4 1_555 1_555
C28 C27 1_555 1_555
C29 C26 1_555 1_555
H16 C29 1_555 1_555
C30 C27 1_555 1_555
O9 Zn1 1_555 1_555
O10 C30 1_555 1_555
O12 C30 1_555 1_555
C25 S3 1_555 1_555
C28 C29 1_555 1_555
N1 C1 1_555 1_555
C1 H1 1_555 1_555
C2 C1 1_555 1_555
H2 C2 1_555 1_555
C3 C2 1_555 1_555
C4 C3 1_555 1_555
H3 C4 1_555 1_555
C5 N1 1_555 1_555
H4 C5 1_555 1_555
Zn2 N1 1_555 1_555
O9_2 Zn2 1_555 1_555
C4 C5 1_555 1_555
N2 Zn4 1_555 1_555
O6_2 Zn4 1_555 1_555
O8_2 Zn4 1_555 1_555
C6_2 O6 1_555 1_555
C7_2 C6_2 1_555 1_555
C8_2 C7_2 1_555 1_555
C9_2 C8_2 1_555 1_555
C10_2 C9_2 1_555 1_555
S1_2 C7_2 1_555 1_555
C11_2 C10_2 1_555 1_555
C14_2 C11_2 1_555 1_555
H8_2 C14_2 1_555 1_555
O6_2 C21_2 1_555 1_555
C21_2 O8 1_555 1_555
O8_2 C6_2 1_555 1_555
C22_2 C21_2 1_555 1_555
C23_2 C22_2 1_555 1_555
H13_2 C23_2 1_555 1_555
C24_2 C23_2 1_555 1_555
H14_2 C24_2 1_555 1_555
C25_2 C24_2 1_555 1_555
S3_2 C22_2 1_555 1_555
C26_2 C25_2 1_555 1_555
C29_2 C26_2 1_555 1_555
H16_2 C29_2 1_555 1_555
C10_2 S1_2 1_555 1_555
C25_2 S3_2 1_555 1_555
C12_2 S2_2 1_555 1_555
C13_2 C12_2 1_555 1_555
H7_2 C13_2 1_555 1_555
C15_2 C12_2 1_555 1_555
O9 C15_2 1_555 1_555
O11_2 C15_2 1_555 1_555
C27_2 S4_2 1_555 1_555
C28_2 C27_2 1_555 1_555
C30_2 C27_2 1_555 1_555
O9_2 C30_2 1_555 1_555
O11 C30_2 1_555 1_555
N2 C1_2 1_555 1_555
C1_2 H1_2 1_555 1_555
C2_2 C1_2 1_555 1_555
H2_2 C2_2 1_555 1_555
C3_2 C2_2 1_555 1_555
C4_2 C3_2 1_555 1_555
H3_2 C4_2 1_555 1_555
C5_2 N2 1_555 1_555
H4_2 C5_2 1_555 1_555
C4_2 C5_2 1_555 1_555
N2_2 C1_3 1_555 1_555
C1_3 H1_3 1_555 1_555
C2_3 C1_3 1_555 1_555
H2_3 C2_3 1_555 1_555
C3_3 C2_3 1_555 1_555
C4_3 C3_3 1_555 1_555
H3_3 C4_3 1_555 1_555
C5_3 N2_2 1_555 1_555
H4_3 C5_3 1_555 1_555
N3 C16 1_555 1_555
C16 H9 1_555 1_555
C17 C16 1_555 1_555
H10 C17 1_555 1_555
C18 C3_3 1_555 1_555
C19 C18 1_555 1_555
H11 C19 1_555 1_555
C20 N3 1_555 1_555
H12 C20 1_555 1_555
C4_3 C5_3 1_555 1_555
C17 C18 1_555 1_555
C19 C20 1_555 1_555
N1_2 C1_4 1_555 1_555
C1_4 H1_4 1_555 1_555
C2_4 C1_4 1_555 1_555
H2_4 C2_4 1_555 1_555
C3_4 C2_4 1_555 1_555
C4_4 C3_4 1_555 1_555
H3_4 C4_4 1_555 1_555
C5_4 N1_2 1_555 1_555
H4_4 C5_4 1_555 1_555
N3_2 C16_2 1_555 1_555
C16_2 H9_2 1_555 1_555
C17_2 C16_2 1_555 1_555
H10_2 C17_2 1_555 1_555
C18_2 C3_4 1_555 1_555
C19_2 C18_2 1_555 1_555
H11_2 C19_2 1_555 1_555
C20_2 N3_2 1_555 1_555
H12_2 C20_2 1_555 1_555
C4_4 C5_4 1_555 1_555
C17_2 C18_2 1_555 1_555
C19_2 C20_2 1_555 1_555
N3_3 C16_3 1_555 1_555
C16_3 H9_3 1_555 1_555
C17_3 C16_3 1_555 1_555
H10_3 C17_3 1_555 1_555
C19_3 C18_3 1_555 1_555
H11_3 C19_3 1_555 1_555
C20_3 N3_3 1_555 1_555
H12_3 C20_3 1_555 1_555
Zn5_2 N3_3 1_555 1_555
C17_3 C18_3 1_555 1_555
C19_3 C20_3 1_555 1_555
N3_4 C16_4 1_555 1_555
C16_4 H9_4 1_555 1_555
C17_4 C16_4 1_555 1_555
H10_4 C17_4 1_555 1_555
C19_4 C18_4 1_555 1_555
H11_4 C19_4 1_555 1_555
C20_4 N3_4 1_555 1_555
H12_4 C20_4 1_555 1_555
Zn5_4 N3_4 1_555 1_555
C17_4 C18_4 1_555 1_555
C19_4 C20_4 1_555 1_555
O2_2 Zn5_3 1_555 1_555
Zn5_2 O10_2 1_555 1_555
Zn5 O13 1_555 1_555
O5_2 C21_3 1_555 1_555
C21_3 O2_2 1_555 1_555
C22_3 C21_3 1_555 1_555
C23_3 C22_3 1_555 1_555
H13_3 C23_3 1_555 1_555
C24_3 C23_3 1_555 1_555
H14_3 C24_3 1_555 1_555
C25_3 C24_3 1_555 1_555
S3_3 C22_3 1_555 1_555
C26_3 C25_3 1_555 1_555
S4_3 C26_3 1_555 1_555
C27_3 S4_3 1_555 1_555
C28_3 C27_3 1_555 1_555
C29_3 C26_3 1_555 1_555
H16_3 C29_3 1_555 1_555
C30_3 C27_3 1_555 1_555
O9_3 Zn5_3 1_555 1_555
O10_2 C30_3 1_555 1_555
O13 C30_3 1_555 1_555
C25_3 S3_3 1_555 1_555
C28_3 C29_3 1_555 1_555
C6_3 O1_2 1_555 1_555
C7_3 C6_3 1_555 1_555
C8_3 C7_3 1_555 1_555
C9_3 C8_3 1_555 1_555
C10_3 C9_3 1_555 1_555
S1_3 C7_3 1_555 1_555
C11_3 C10_3 1_555 1_555
S2_3 C11_3 1_555 1_555
C12_3 S2_3 1_555 1_555
C13_3 C12_3 1_555 1_555
H7_3 C13_3 1_555 1_555
C14_3 C11_3 1_555 1_555
H8_3 C14_3 1_555 1_555
C15_3 C12_3 1_555 1_555
O3_2 C15_3 1_555 1_555
O4_2 C15_3 1_555 1_555
Zn5 O3_2 1_555 1_555
Zn5_2 O4_2 1_555 1_555
O6_3 Zn5 1_555 1_555
O7_2 C6_3 1_555 1_555
O8_3 Zn5 1_555 1_555
C10_3 S1_3 1_555 1_555
C13_3 C14_3 1_555 1_555
Zn5_4 O7_2 1_555 1_555
O6_4 Zn5_2 1_555 1_555
O8_4 Zn5_2 1_555 1_555
O9_4 Zn5_4 1_555 1_555
C12_4 S2_4 1_555 1_555
C13_4 C12_4 1_555 1_555
H7_4 C13_4 1_555 1_555
C15_4 C12_4 1_555 1_555
O9_3 C15_4 1_555 1_555
O11_4 C15_4 1_555 1_555
C27_4 S4_4 1_555 1_555
C28_4 C27_4 1_555 1_555
C30_4 C27_4 1_555 1_555
O9_4 C30_4 1_555 1_555
O11_3 C30_4 1_555 1_555
C6_4 O6_3 1_555 1_555
C7_4 C6_4 1_555 1_555
C8_4 C7_4 1_555 1_555
C9_4 C8_4 1_555 1_555
C10_4 C9_4 1_555 1_555
S1_4 C7_4 1_555 1_555
C11_4 C10_4 1_555 1_555
C14_4 C11_4 1_555 1_555
H8_4 C14_4 1_555 1_555
O6_4 C21_4 1_555 1_555
C21_4 O8_3 1_555 1_555
O8_4 C6_4 1_555 1_555
C22_4 C21_4 1_555 1_555
C23_4 C22_4 1_555 1_555
H13_4 C23_4 1_555 1_555
C24_4 C23_4 1_555 1_555
H14_4 C24_4 1_555 1_555
C25_4 C24_4 1_555 1_555
S3_4 C22_4 1_555 1_555
C26_4 C25_4 1_555 1_555
C29_4 C26_4 1_555 1_555
H16_4 C29_4 1_555 1_555
C10_4 S1_4 1_555 1_555
C25_4 S3_4 1_555 1_555

#END
