
###############################################################################
#
# This file contains modified crystal structure data generated from the
# MOF subset of the Cambridge Structural Database (CSD) v543 
# hosted by the Cambridge Crystallographic Data Centre (CCDC).
#
# This work is licensed under the Creative Commons
# Attribution-NonCommercial-ShareAlike 4.0 International License.
# To view a copy of this license, visit
# http://creativecommons.org/licenses/by-nc-sa/4.0/
# or send a letter to
# Creative Commons, PO Box 1866, Mountain View, CA 94042, USA.
#
# CIF created using the CSD Python API on 29 September 2022
# The structure has been converted into the P1 space group
# The structure has a 3D framework
# The original CSD entry GUYLOC is in the monoclinic crystal system
# The framework has been calculated to contain at least 10.0% void space
# The void calculation uses a probe of radius 1.32A, grid spacing 0.4
#
###############################################################################

data_GUYLOC
_chemical_formula_moiety         '(C120 H64 N8 O32 S16 Zn8)n'
_symmetry_cell_setting           triclinic
_symmetry_space_group_name_H-M   'P 1'
_symmetry_Int_Tables_number      1
_space_group_name_Hall           'P 1'
loop_
_symmetry_equiv_pos_site_id
_symmetry_equiv_pos_as_xyz
1 x,y,z
_cell_length_a                   20.472(10)
_cell_length_b                   19.400(8)
_cell_length_c                   13.944(7)
_cell_angle_alpha                90
_cell_angle_beta                 117.185(5)
_cell_angle_gamma                90
_cell_volume                     4926.21
loop_
_atom_site_label
_atom_site_type_symbol
_atom_site_fract_x
_atom_site_fract_y
_atom_site_fract_z
Zn4 Zn 0.02118(3) 0.15467(2) 0.36750(4)
O9 O 0.0625(2) 0.08518(19) 0.2062(3)
O12 O 0.0563(2) 0.23100(19) 0.2039(3)
C13 C 0.0027(3) 0.09255(17) 0.9574(3)
H7 H 0.0124 0.0519 0.9996
C14 C 0.0104(3) 0.0923(2) 0.8634(4)
H8 H 0.0254 0.0514 0.8414
C26 C 0.0257(5) 0.2116(2) 0.6662(5)
H13 H 0.0354 0.2523 0.7084
C27 C 0.0334(4) 0.21187(18) 0.5722(5)
H14 H 0.0483 0.2527 0.5502
N2 N 0.0192(2) 0.15234(19) 0.5104(3)
C30 C 0.0038(4) 0.1518(3) 0.6984(4)
Zn1 Zn 0.97882(3) 0.15467(2) 0.13250(4)
O1 O 0.90738(19) 0.07809(19) 0.1196(3)
O3 O 0.9375(2) 0.08518(19) 0.2938(3)
C1 C 0.9012(3) 0.0612(3) 0.2015(4)
C5 C 0.8442(3) 0.0080(3) 0.1890(5)
Zn2 Zn 0.52118(3) 0.65467(2) 0.36750(4)
Zn7 Zn 0.47882(3) 0.65467(2) 0.13250(4)
S3 S 0.66530(8) 0.48395(7) 0.19998(11)
S4 S 0.84189(8) 0.33322(8) 0.30043(12)
O5 O 0.59262(19) 0.57809(19) 0.3804(3)
O6 O 0.9009(2) 0.22442(19) 0.1181(3)
O7 O 0.5991(2) 0.72442(19) 0.3819(3)
O8 O 0.5625(2) 0.58518(19) 0.2062(3)
O10 O 0.4375(2) 0.58518(19) 0.2938(3)
O11 O 0.9437(2) 0.23100(19) 0.2961(3)
O13 O 0.4437(2) 0.73100(19) 0.2961(3)
C16 C 0.5988(3) 0.5612(3) 0.2985(4)
C17 C 0.9020(3) 0.2475(3) 0.2019(4)
C18 C 0.8440(3) 0.3002(3) 0.1869(4)
C19 C 0.7661(3) 0.3824(3) 0.2221(4)
C20 C 0.6558(3) 0.5080(3) 0.3110(5)
C21 C 0.7442(3) 0.3738(3) 0.1141(5)
H9 H 0.7033 0.3967 0.0587
C22 C 0.7906(3) 0.3261(3) 0.0953(5)
H10 H 0.7843 0.3141 0.0255
C23 C 0.7329(3) 0.4263(3) 0.2732(5)
C24 C 0.7025(4) 0.4745(4) 0.4009(5)
H11 H 0.7061 0.4827 0.4703
C25 C 0.7464(4) 0.4249(4) 0.3794(5)
H12 H 0.7806 0.3948 0.4321
N3 N 0.5192(2) 0.65234(19) 0.5104(3)
C11 C 0.9743(5) 0.2116(2) 0.8338(5)
H5 H 0.9646 0.2523 0.7916
C12 C 0.9666(4) 0.21187(18) 0.9278(5)
H6 H 0.9517 0.2527 0.9498
N1 N 0.9808(2) 0.15234(19) 0.9896(3)
C15 C 0.9962(4) 0.1518(3) 0.8016(4)
C28 C 0.9973(3) 0.09255(17) 0.5426(3)
H15 H 0.9876 0.0519 0.5004
C29 C 0.9896(3) 0.0923(2) 0.6366(4)
H16 H 0.9746 0.0514 0.6586
S1 S 0.83470(8) 0.98395(7) 0.30002(11)
S2 S 0.65811(8) 0.83322(8) 0.19957(12)
O4 O 0.5563(2) 0.73100(19) 0.2039(3)
C2 C 0.5980(3) 0.7475(3) 0.2981(4)
C3 C 0.6560(3) 0.8002(3) 0.3131(4)
C4 C 0.7339(3) 0.8824(3) 0.2779(4)
C6 C 0.7558(3) 0.8738(3) 0.3859(5)
H1 H 0.7967 0.8967 0.4413
C7 C 0.7094(3) 0.8261(3) 0.4047(5)
H2 H 0.7157 0.8141 0.4745
C8 C 0.7671(3) 0.9263(3) 0.2268(5)
C9 C 0.7975(4) 0.9745(4) 0.0991(5)
H3 H 0.7939 0.9827 0.0297
C10 C 0.7536(4) 0.9249(4) 0.1206(5)
H4 H 0.7194 0.8948 0.0679
O1_2 O 0.09262(19) 0.07809(19) 0.3804(3)
C1_2 C 0.0988(3) 0.0612(3) 0.2985(4)
C5_2 C 0.1558(3) 0.0080(3) 0.3110(5)
S3_2 S 0.33470(8) 0.48395(7) 0.30002(11)
S4_2 S 0.15811(8) 0.33322(8) 0.19957(12)
O5_2 O 0.40738(19) 0.57809(19) 0.1196(3)
O6_2 O 0.0991(2) 0.22442(19) 0.3819(3)
O7_2 O 0.4009(2) 0.72442(19) 0.1181(3)
C16_2 C 0.4012(3) 0.5612(3) 0.2015(4)
C17_2 C 0.0980(3) 0.2475(3) 0.2981(4)
C18_2 C 0.1560(3) 0.3002(3) 0.3131(4)
C19_2 C 0.2339(3) 0.3824(3) 0.2779(4)
C20_2 C 0.3442(3) 0.5080(3) 0.1890(5)
C21_2 C 0.2558(3) 0.3738(3) 0.3859(5)
H9_2 H 0.2967 0.3967 0.4413
C22_2 C 0.2094(3) 0.3261(3) 0.4047(5)
H10_2 H 0.2157 0.3141 0.4745
C23_2 C 0.2671(3) 0.4263(3) 0.2268(5)
C24_2 C 0.2975(4) 0.4745(4) 0.0991(5)
H11_2 H 0.2939 0.4827 0.0297
C25_2 C 0.2536(4) 0.4249(4) 0.1206(5)
H12_2 H 0.2194 0.3948 0.0679
N3_2 N 0.4808(2) 0.65234(19) 0.9896(3)
S1_2 S 0.16530(8) 0.98395(7) 0.19998(11)
S2_2 S 0.34189(8) 0.83322(8) 0.30043(12)
C2_2 C 0.4020(3) 0.7475(3) 0.2019(4)
C3_2 C 0.3440(3) 0.8002(3) 0.1869(4)
C4_2 C 0.2661(3) 0.8824(3) 0.2221(4)
C6_2 C 0.2442(3) 0.8738(3) 0.1141(5)
H1_2 H 0.2033 0.8967 0.0587
C7_2 C 0.2906(3) 0.8261(3) 0.0953(5)
H2_2 H 0.2843 0.8141 0.0255
C8_2 C 0.2329(3) 0.9263(3) 0.2732(5)
C9_2 C 0.2025(4) 0.9745(4) 0.4009(5)
H3_2 H 0.2061 0.9827 0.4703
C10_2 C 0.2464(4) 0.9249(4) 0.3794(5)
H4_2 H 0.2806 0.8948 0.4321
C11_2 C 0.4743(5) 0.7116(2) 0.8338(5)
H5_2 H 0.4646 0.7523 0.7916
C12_2 C 0.4666(4) 0.71187(18) 0.9278(5)
H6_2 H 0.4517 0.7527 0.9498
C13_2 C 0.5027(3) 0.59255(17) 0.9574(3)
H7_2 H 0.5124 0.5519 0.9996
C14_2 C 0.5104(3) 0.5923(2) 0.8634(4)
H8_2 H 0.5254 0.5514 0.8414
C15_2 C 0.4962(4) 0.6518(3) 0.8016(4)
C26_2 C 0.5257(5) 0.7116(2) 0.6662(5)
H13_2 H 0.5354 0.7523 0.7084
C27_2 C 0.5334(4) 0.71187(18) 0.5722(5)
H14_2 H 0.5483 0.7527 0.5502
C28_2 C 0.4973(3) 0.59255(17) 0.5426(3)
H15_2 H 0.4876 0.5519 0.5004
C29_2 C 0.4896(3) 0.5923(2) 0.6366(4)
H16_2 H 0.4746 0.5514 0.6586
C30_2 C 0.5038(4) 0.6518(3) 0.6984(4)
S1_3 S 0.16530(8) 0.01605(7) 0.69998(11)
S2_3 S 0.34189(8) 0.16678(8) 0.80043(12)
O2 O 0.4009(2) 0.27558(19) 0.6181(3)
O4_2 O 0.4437(2) 0.26900(19) 0.7961(3)
C2_3 C 0.4020(3) 0.2525(3) 0.7019(4)
C3_3 C 0.3440(3) 0.1998(3) 0.6869(4)
C4_3 C 0.2661(3) 0.1176(3) 0.7221(4)
C6_3 C 0.2442(3) 0.1262(3) 0.6141(5)
H1_3 H 0.2033 0.1033 0.5587
C7_3 C 0.2906(3) 0.1739(3) 0.5953(5)
H2_3 H 0.2843 0.1859 0.5255
C8_3 C 0.2329(3) 0.0737(3) 0.7732(5)
C9_3 C 0.2025(4) 0.0255(4) 0.9009(5)
H3_3 H 0.2061 0.0173 0.9703
C10_3 C 0.2464(4) 0.0751(4) 0.8794(5)
H4_3 H 0.2806 0.1052 0.9321
Zn3 Zn 0.47882(3) 0.34533(2) 0.63250(4)
Zn5 Zn 0.52118(3) 0.34533(2) 0.86750(4)
C11_3 C 0.0257(5) 0.7884(2) 0.1662(5)
H5_3 H 0.0354 0.7477 0.2084
C12_3 C 0.0334(4) 0.78813(18) 0.0722(5)
H6_3 H 0.0483 0.7473 0.0502
N1_2 N 0.0192(2) 0.84766(19) 0.0104(3)
C15_3 C 0.0038(4) 0.8482(3) 0.1984(4)
C28_3 C 0.0027(3) 0.90745(17) 0.4574(3)
H15_3 H 0.0124 0.9481 0.4996
C29_3 C 0.0104(3) 0.9077(2) 0.3634(4)
H16_3 H 0.0254 0.9486 0.3414
Zn1_2 Zn 0.02118(3) 0.84533(2) 0.86750(4)
O1_3 O 0.09262(19) 0.92191(19) 0.8804(3)
O3_2 O 0.0625(2) 0.91482(19) 0.7062(3)
C1_3 C 0.0988(3) 0.9388(3) 0.7985(4)
C5_3 C 0.1558(3) 0.9920(3) 0.8110(5)
S3_3 S 0.33470(8) 0.51605(7) 0.80002(11)
S4_3 S 0.15811(8) 0.66678(8) 0.69957(12)
O5_3 O 0.40738(19) 0.42191(19) 0.6196(3)
O6_3 O 0.0991(2) 0.77558(19) 0.8819(3)
O8_2 O 0.4375(2) 0.41482(19) 0.7938(3)
O10_2 O 0.5625(2) 0.41482(19) 0.7062(3)
O11_2 O 0.0563(2) 0.76900(19) 0.7039(3)
O13_2 O 0.5563(2) 0.26900(19) 0.7039(3)
C16_3 C 0.4012(3) 0.4388(3) 0.7015(4)
C17_3 C 0.0980(3) 0.7525(3) 0.7981(4)
C18_3 C 0.1560(3) 0.6998(3) 0.8131(4)
C19_3 C 0.2339(3) 0.6176(3) 0.7779(4)
C20_3 C 0.3442(3) 0.4920(3) 0.6890(5)
C21_3 C 0.2558(3) 0.6262(3) 0.8859(5)
H9_3 H 0.2967 0.6033 0.9413
C22_3 C 0.2094(3) 0.6739(3) 0.9047(5)
H10_3 H 0.2157 0.6859 0.9745
C23_3 C 0.2671(3) 0.5737(3) 0.7268(5)
C24_3 C 0.2975(4) 0.5255(4) 0.5991(5)
H11_3 H 0.2939 0.5173 0.5297
C25_3 C 0.2536(4) 0.5751(4) 0.6206(5)
H12_3 H 0.2194 0.6052 0.5679
N3_3 N 0.4808(2) 0.34766(19) 0.4896(3)
C13_3 C 0.9973(3) 0.90745(17) 0.0426(3)
H7_3 H 0.9876 0.9481 0.0004
C14_3 C 0.9896(3) 0.9077(2) 0.1366(4)
H8_3 H 0.9746 0.9486 0.1586
Zn6 Zn 0.97882(3) 0.84533(2) 0.63250(4)
C26_3 C 0.9743(5) 0.7884(2) 0.3338(5)
H13_3 H 0.9646 0.7477 0.2916
C27_3 C 0.9666(4) 0.78813(18) 0.4278(5)
H14_3 H 0.9517 0.7473 0.4498
N2_2 N 0.9808(2) 0.84766(19) 0.4896(3)
C30_3 C 0.9962(4) 0.8482(3) 0.3016(4)
O9_2 O 0.9375(2) 0.91482(19) 0.7938(3)
O12_2 O 0.9437(2) 0.76900(19) 0.7961(3)
S1_4 S 0.83470(8) 0.01605(7) 0.80002(11)
S2_4 S 0.65811(8) 0.16678(8) 0.69957(12)
O2_2 O 0.5991(2) 0.27558(19) 0.8819(3)
C2_4 C 0.5980(3) 0.2525(3) 0.7981(4)
C3_4 C 0.6560(3) 0.1998(3) 0.8131(4)
C4_4 C 0.7339(3) 0.1176(3) 0.7779(4)
C6_4 C 0.7558(3) 0.1262(3) 0.8859(5)
H1_4 H 0.7967 0.1033 0.9413
C7_4 C 0.7094(3) 0.1739(3) 0.9047(5)
H2_4 H 0.7157 0.1859 0.9745
C8_4 C 0.7671(3) 0.0737(3) 0.7268(5)
C9_4 C 0.7975(4) 0.0255(4) 0.5991(5)
H3_4 H 0.7939 0.0173 0.5297
C10_4 C 0.7536(4) 0.0751(4) 0.6206(5)
H4_4 H 0.7194 0.1052 0.5679
N3_4 N 0.5192(2) 0.34766(19) 0.0104(3)
O1_4 O 0.90738(19) 0.92191(19) 0.6196(3)
C1_4 C 0.9012(3) 0.9388(3) 0.7015(4)
C5_4 C 0.8442(3) 0.9920(3) 0.6890(5)
S3_4 S 0.66530(8) 0.51605(7) 0.69998(11)
S4_4 S 0.84189(8) 0.66678(8) 0.80043(12)
O5_4 O 0.59262(19) 0.42191(19) 0.8804(3)
O6_4 O 0.9009(2) 0.77558(19) 0.6181(3)
C16_4 C 0.5988(3) 0.4388(3) 0.7985(4)
C17_4 C 0.9020(3) 0.7525(3) 0.7019(4)
C18_4 C 0.8440(3) 0.6998(3) 0.6869(4)
C19_4 C 0.7661(3) 0.6176(3) 0.7221(4)
C20_4 C 0.6558(3) 0.4920(3) 0.8110(5)
C21_4 C 0.7442(3) 0.6262(3) 0.6141(5)
H9_4 H 0.7033 0.6033 0.5587
C22_4 C 0.7906(3) 0.6739(3) 0.5953(5)
H10_4 H 0.7843 0.6859 0.5255
C23_4 C 0.7329(3) 0.5737(3) 0.7732(5)
C24_4 C 0.7025(4) 0.5255(4) 0.9009(5)
H11_4 H 0.7061 0.5173 0.9703
C25_4 C 0.7464(4) 0.5751(4) 0.8794(5)
H12_4 H 0.7806 0.6052 0.9321
C11_4 C 0.5257(5) 0.2884(2) 0.1662(5)
H5_4 H 0.5354 0.2477 0.2084
C12_4 C 0.5334(4) 0.28813(18) 0.0722(5)
H6_4 H 0.5483 0.2473 0.0502
C13_4 C 0.4973(3) 0.40745(17) 0.0426(3)
H7_4 H 0.4876 0.4481 0.0004
C14_4 C 0.4896(3) 0.4077(2) 0.1366(4)
H8_4 H 0.4746 0.4486 0.1586
C15_4 C 0.5038(4) 0.3482(3) 0.1984(4)
C26_4 C 0.4743(5) 0.2884(2) 0.3338(5)
H13_4 H 0.4646 0.2477 0.2916
C27_4 C 0.4666(4) 0.28813(18) 0.4278(5)
H14_4 H 0.4517 0.2473 0.4498
C28_4 C 0.5027(3) 0.40745(17) 0.4574(3)
H15_4 H 0.5124 0.4481 0.4996
C29_4 C 0.5104(3) 0.4077(2) 0.3634(4)
H16_4 H 0.5254 0.4486 0.3414
C30_4 C 0.4962(4) 0.3482(3) 0.3016(4)
loop_
_geom_bond_atom_site_label_1
_geom_bond_atom_site_label_2
_geom_bond_site_symmetry_1
_geom_bond_site_symmetry_2
H7 C13 1_555 1_555
C14 C13 1_555 1_555
H8 C14 1_555 1_555
Zn4 N2 1_555 1_555
C26 H13 1_555 1_555
C27 C26 1_555 1_555
H14 C27 1_555 1_555
N2 C27 1_555 1_555
C26 C30 1_555 1_555
Zn1 O1 1_555 1_555
O1 C1 1_555 1_555
O3 C1 1_555 1_555
C1 C5 1_555 1_555
Zn2 O5 1_555 1_555
Zn7 O8 1_555 1_555
S3 C20 1_555 1_555
S4 C18 1_555 1_555
O5 C16 1_555 1_555
O6 Zn1 1_555 1_555
O7 Zn2 1_555 1_555
O8 C16 1_555 1_555
O10 Zn2 1_555 1_555
O13 Zn2 1_555 1_555
C16 C20 1_555 1_555
C17 O6 1_555 1_555
C18 C17 1_555 1_555
C19 S4 1_555 1_555
C20 C24 1_555 1_555
C21 C19 1_555 1_555
H9 C21 1_555 1_555
C22 C18 1_555 1_555
H10 C22 1_555 1_555
C23 S3 1_555 1_555
C24 H11 1_555 1_555
C25 C23 1_555 1_555
H12 C25 1_555 1_555
N3 Zn2 1_555 1_555
O11 C17 1_555 1_555
C19 C23 1_555 1_555
C21 C22 1_555 1_555
C24 C25 1_555 1_555
C11 H5 1_555 1_555
C12 C11 1_555 1_555
H6 C12 1_555 1_555
C15 C11 1_555 1_555
H15 C28 1_555 1_555
C29 C28 1_555 1_555
H16 C29 1_555 1_555
C12 N1 1_555 1_555
S2 C3 1_555 1_555
O7 C2 1_555 1_555
O4 C2 1_555 1_555
C2 C3 1_555 1_555
C3 C7 1_555 1_555
C4 S2 1_555 1_555
C6 C4 1_555 1_555
H1 C6 1_555 1_555
C7 C6 1_555 1_555
H2 C7 1_555 1_555
C8 S1 1_555 1_555
C9 H3 1_555 1_555
C10 C8 1_555 1_555
H4 C10 1_555 1_555
Zn7 O4 1_555 1_555
C4 C8 1_555 1_555
C9 C10 1_555 1_555
Zn4 O1_2 1_555 1_555
O1_2 C1_2 1_555 1_555
O9 C1_2 1_555 1_555
C1_2 C5_2 1_555 1_555
Zn7 O5_2 1_555 1_555
S3_2 C20_2 1_555 1_555
S4_2 C18_2 1_555 1_555
O5_2 C16_2 1_555 1_555
O6_2 Zn4 1_555 1_555
O7_2 Zn7 1_555 1_555
O10 C16_2 1_555 1_555
C16_2 C20_2 1_555 1_555
C17_2 O6_2 1_555 1_555
C18_2 C17_2 1_555 1_555
C19_2 S4_2 1_555 1_555
C20_2 C24_2 1_555 1_555
C21_2 C19_2 1_555 1_555
H9_2 C21_2 1_555 1_555
C22_2 C18_2 1_555 1_555
H10_2 C22_2 1_555 1_555
C23_2 S3_2 1_555 1_555
C24_2 H11_2 1_555 1_555
C25_2 C23_2 1_555 1_555
H12_2 C25_2 1_555 1_555
O12 C17_2 1_555 1_555
C19_2 C23_2 1_555 1_555
C21_2 C22_2 1_555 1_555
C24_2 C25_2 1_555 1_555
S2_2 C3_2 1_555 1_555
O7_2 C2_2 1_555 1_555
O13 C2_2 1_555 1_555
C2_2 C3_2 1_555 1_555
C3_2 C7_2 1_555 1_555
C4_2 S2_2 1_555 1_555
C6_2 C4_2 1_555 1_555
H1_2 C6_2 1_555 1_555
C7_2 C6_2 1_555 1_555
H2_2 C7_2 1_555 1_555
C8_2 S1_2 1_555 1_555
C9_2 H3_2 1_555 1_555
C10_2 C8_2 1_555 1_555
H4_2 C10_2 1_555 1_555
C4_2 C8_2 1_555 1_555
C9_2 C10_2 1_555 1_555
C11_2 H5_2 1_555 1_555
C12_2 C11_2 1_555 1_555
H6_2 C12_2 1_555 1_555
C13_2 N3_2 1_555 1_555
H7_2 C13_2 1_555 1_555
C14_2 C13_2 1_555 1_555
H8_2 C14_2 1_555 1_555
C15_2 C11_2 1_555 1_555
C26_2 H13_2 1_555 1_555
C27_2 C26_2 1_555 1_555
H14_2 C27_2 1_555 1_555
N3 C27_2 1_555 1_555
C28_2 N3 1_555 1_555
H15_2 C28_2 1_555 1_555
C29_2 C28_2 1_555 1_555
H16_2 C29_2 1_555 1_555
C30_2 C15_2 1_555 1_555
C12_2 N3_2 1_555 1_555
C14_2 C15_2 1_555 1_555
C26_2 C30_2 1_555 1_555
C29_2 C30_2 1_555 1_555
S2_3 C3_3 1_555 1_555
O2 C2_3 1_555 1_555
O4_2 C2_3 1_555 1_555
C2_3 C3_3 1_555 1_555
C3_3 C7_3 1_555 1_555
C4_3 S2_3 1_555 1_555
C6_3 C4_3 1_555 1_555
H1_3 C6_3 1_555 1_555
C7_3 C6_3 1_555 1_555
H2_3 C7_3 1_555 1_555
C8_3 S1_3 1_555 1_555
C9_3 H3_3 1_555 1_555
C10_3 C8_3 1_555 1_555
H4_3 C10_3 1_555 1_555
Zn3 O2 1_555 1_555
Zn5 O4_2 1_555 1_555
C4_3 C8_3 1_555 1_555
C9_3 C10_3 1_555 1_555
C11_3 H5_3 1_555 1_555
C12_3 C11_3 1_555 1_555
H6_3 C12_3 1_555 1_555
C15_3 C11_3 1_555 1_555
H15_3 C28_3 1_555 1_555
C29_3 C28_3 1_555 1_555
H16_3 C29_3 1_555 1_555
C12_3 N1_2 1_555 1_555
Zn1_2 O1_3 1_555 1_555
O1_3 C1_3 1_555 1_555
O3_2 C1_3 1_555 1_555
C1_3 C5_3 1_555 1_555
Zn3 O5_3 1_555 1_555
Zn5 O8_2 1_555 1_555
S3_3 C20_3 1_555 1_555
S4_3 C18_3 1_555 1_555
O5_3 C16_3 1_555 1_555
O6_3 Zn1_2 1_555 1_555
O8_2 C16_3 1_555 1_555
O10_2 Zn3 1_555 1_555
O13_2 Zn3 1_555 1_555
C16_3 C20_3 1_555 1_555
C17_3 O6_3 1_555 1_555
C18_3 C17_3 1_555 1_555
C19_3 S4_3 1_555 1_555
C20_3 C24_3 1_555 1_555
C21_3 C19_3 1_555 1_555
H9_3 C21_3 1_555 1_555
C22_3 C18_3 1_555 1_555
H10_3 C22_3 1_555 1_555
C23_3 S3_3 1_555 1_555
C24_3 H11_3 1_555 1_555
C25_3 C23_3 1_555 1_555
H12_3 C25_3 1_555 1_555
N3_3 Zn3 1_555 1_555
O11_2 C17_3 1_555 1_555
C19_3 C23_3 1_555 1_555
C21_3 C22_3 1_555 1_555
C24_3 C25_3 1_555 1_555
H7_3 C13_3 1_555 1_555
C14_3 C13_3 1_555 1_555
H8_3 C14_3 1_555 1_555
Zn6 N2_2 1_555 1_555
C26_3 H13_3 1_555 1_555
C27_3 C26_3 1_555 1_555
H14_3 C27_3 1_555 1_555
N2_2 C27_3 1_555 1_555
C26_3 C30_3 1_555 1_555
S2_4 C3_4 1_555 1_555
O2_2 C2_4 1_555 1_555
O13_2 C2_4 1_555 1_555
C2_4 C3_4 1_555 1_555
C3_4 C7_4 1_555 1_555
C4_4 S2_4 1_555 1_555
C6_4 C4_4 1_555 1_555
H1_4 C6_4 1_555 1_555
C7_4 C6_4 1_555 1_555
H2_4 C7_4 1_555 1_555
C8_4 S1_4 1_555 1_555
C9_4 H3_4 1_555 1_555
C10_4 C8_4 1_555 1_555
H4_4 C10_4 1_555 1_555
Zn5 O2_2 1_555 1_555
C4_4 C8_4 1_555 1_555
C9_4 C10_4 1_555 1_555
Zn6 O1_4 1_555 1_555
O1_4 C1_4 1_555 1_555
O9_2 C1_4 1_555 1_555
C1_4 C5_4 1_555 1_555
Zn5 O5_4 1_555 1_555
S3_4 C20_4 1_555 1_555
S4_4 C18_4 1_555 1_555
O5_4 C16_4 1_555 1_555
O6_4 Zn6 1_555 1_555
O10_2 C16_4 1_555 1_555
C16_4 C20_4 1_555 1_555
C17_4 O6_4 1_555 1_555
C18_4 C17_4 1_555 1_555
C19_4 S4_4 1_555 1_555
C20_4 C24_4 1_555 1_555
C21_4 C19_4 1_555 1_555
H9_4 C21_4 1_555 1_555
C22_4 C18_4 1_555 1_555
H10_4 C22_4 1_555 1_555
C23_4 S3_4 1_555 1_555
C24_4 H11_4 1_555 1_555
C25_4 C23_4 1_555 1_555
H12_4 C25_4 1_555 1_555
O12_2 C17_4 1_555 1_555
C19_4 C23_4 1_555 1_555
C21_4 C22_4 1_555 1_555
C24_4 C25_4 1_555 1_555
C11_4 H5_4 1_555 1_555
C12_4 C11_4 1_555 1_555
H6_4 C12_4 1_555 1_555
C13_4 N3_4 1_555 1_555
H7_4 C13_4 1_555 1_555
C14_4 C13_4 1_555 1_555
H8_4 C14_4 1_555 1_555
C15_4 C11_4 1_555 1_555
C26_4 H13_4 1_555 1_555
C27_4 C26_4 1_555 1_555
H14_4 C27_4 1_555 1_555
N3_3 C27_4 1_555 1_555
C28_4 N3_3 1_555 1_555
H15_4 C28_4 1_555 1_555
C29_4 C28_4 1_555 1_555
H16_4 C29_4 1_555 1_555
C30_4 C15_4 1_555 1_555
C12_4 N3_4 1_555 1_555
C14_4 C15_4 1_555 1_555
C26_4 C30_4 1_555 1_555
C29_4 C30_4 1_555 1_555

#END
