
###############################################################################
#
# This file contains modified crystal structure data generated from the
# MOF subset of the Cambridge Structural Database (CSD) v543 
# hosted by the Cambridge Crystallographic Data Centre (CCDC).
#
# This work is licensed under the Creative Commons
# Attribution-NonCommercial-ShareAlike 4.0 International License.
# To view a copy of this license, visit
# http://creativecommons.org/licenses/by-nc-sa/4.0/
# or send a letter to
# Creative Commons, PO Box 1866, Mountain View, CA 94042, USA.
#
# CIF created using the CSD Python API on 29 September 2022
# The structure has been converted into the P1 space group
# The structure has a 3D framework
# The original CSD entry GUYMAP is in the monoclinic crystal system
# The framework has been calculated to contain at least 10.0% void space
# The void calculation uses a probe of radius 1.32A, grid spacing 0.4
#
###############################################################################

data_GUYMAP
_chemical_formula_moiety         '(C120 H64 N8 O32 S16 Zn8)n'
_symmetry_cell_setting           triclinic
_symmetry_space_group_name_H-M   'P 1'
_symmetry_Int_Tables_number      1
_space_group_name_Hall           'P 1'
loop_
_symmetry_equiv_pos_site_id
_symmetry_equiv_pos_as_xyz
1 x,y,z
_cell_length_a                   17.510(9)
_cell_length_b                   22.117(10)
_cell_length_c                   14.003(7)
_cell_angle_alpha                90
_cell_angle_beta                 115.781(5)
_cell_angle_gamma                90
_cell_volume                     4883.14
loop_
_atom_site_label
_atom_site_type_symbol
_atom_site_fract_x
_atom_site_fract_y
_atom_site_fract_z
N3 N 0.0142(6) 0.6426(3) 0.0008(9)
Zn1 Zn 0.48042(7) 0.14405(5) 0.63630(11)
S1 S 0.3390(2) 0.31803(14) 0.7975(3)
N1 N 0.4858(6) 0.1426(3) 0.4992(9)
O1 O 0.3936(4) 0.2095(3) 0.6150(7)
O2 O 0.3932(5) 0.0780(3) 0.6179(7)
C1 C 0.3254(7) 0.0086(5) 0.6865(10)
O3 O 0.4315(5) 0.2092(3) 0.7998(8)
C2 C 0.3897(7) 0.2271(5) 0.6981(11)
C3 C 0.5004(6) 0.1437(4) 0.2996(9)
C4 C 0.3914(8) 0.0625(4) 0.7107(12)
C5 C 0.2770(7) 0.3758(5) 0.7284(10)
O4 O 0.4311(5) 0.0793(4) 0.8065(7)
C6 C 0.3411(7) 0.2855(5) 0.6887(10)
C8 C 0.5178(7) 0.0931(6) 0.3700(10)
H1 H 0.5325 0.0565 0.3500
C9 C 0.2890(8) 0.3170(6) 0.5829(12)
H2 H 0.2804 0.3078 0.5141
C10 C 0.5135(8) 0.0964(7) 0.4702(12)
H3 H 0.5319 0.0634 0.5157
C13 C 0.4707(9) 0.1948(7) 0.3431(13)
H6 H 0.4630 0.2327 0.3114
C14 C 0.2560(9) 0.3682(6) 0.6272(13)
H7 H 0.2186 0.3957 0.5796
C15 C 0.4544(11) 0.1868(8) 0.4299(15)
H8 H 0.4188 0.2145 0.4405
Zn2 Zn 0.51958(7) 0.14405(5) 0.86370(11)
Zn4 Zn 0.01958(7) 0.64405(5) 0.86370(11)
S4 S 0.17939(19) 0.47919(13) 0.7038(3)
N2 N 0.5142(6) 0.1426(3) 0.0008(9)
O6 O 0.1064(4) 0.7095(3) 0.8850(7)
O7 O 0.1068(5) 0.5780(3) 0.8821(7)
C16 C 0.1746(7) 0.5086(5) 0.8135(10)
O8 O 0.5685(5) 0.2092(3) 0.7002(8)
C18 C 0.4996(6) 0.1437(4) 0.2004(9)
C19 C 0.1086(8) 0.5625(4) 0.7893(12)
O11 O 0.5689(5) 0.0793(4) 0.6935(7)
O12 O 0.0689(5) 0.5793(4) 0.6935(7)
C22 C 0.2423(7) 0.4211(6) 0.7681(11)
C23 C 0.4822(7) 0.0931(6) 0.1300(10)
H9 H 0.4675 0.0565 0.1500
C25 C 0.4865(8) 0.0964(7) 0.0298(12)
C26 C 0.2179(9) 0.4759(7) 0.9026(14)
H12 H 0.2209 0.4830 0.9697
C27 C 0.2591(8) 0.4268(6) 0.8715(12)
H13 H 0.2960 0.4002 0.9219
C28 C 0.5293(9) 0.1948(7) 0.1569(13)
H14 H 0.5370 0.2327 0.1886
C30 C 0.5456(11) 0.1868(8) 0.0701(15)
H16 H 0.5812 0.2145 0.0595
H11 H 0.4681 0.0634 0.9843
S2 S 0.32061(19) 0.97919(13) 0.7962(3)
C7 C 0.2577(7) 0.9211(6) 0.7319(11)
C11 C 0.2821(9) 0.9759(7) 0.5974(14)
H4 H 0.2791 0.9830 0.5303
C12 C 0.2409(8) 0.9268(6) 0.6285(12)
H5 H 0.2040 0.9002 0.5781
S3 S 0.1610(2) 0.81803(14) 0.7025(3)
O9 O 0.0685(5) 0.7092(3) 0.7002(8)
C17 C 0.1103(7) 0.7271(5) 0.8019(11)
C20 C 0.2230(7) 0.8758(5) 0.7716(10)
C21 C 0.1589(7) 0.7855(5) 0.8113(10)
C24 C 0.2110(8) 0.8170(6) 0.9171(12)
H10 H 0.2196 0.8078 0.9859
C29 C 0.2440(9) 0.8682(6) 0.8728(13)
H15 H 0.2814 0.8957 0.9204
Zn5 Zn 0.98042(7) 0.64405(5) 0.63630(11)
O10 O 0.9315(5) 0.7092(3) 0.7998(8)
O13 O 0.9311(5) 0.5793(4) 0.8065(7)
S1_2 S 0.6610(2) 0.31803(14) 0.7025(3)
O1_2 O 0.6064(4) 0.2095(3) 0.8850(7)
O2_2 O 0.6068(5) 0.0780(3) 0.8821(7)
C1_2 C 0.6746(7) 0.0086(5) 0.8135(10)
C2_2 C 0.6103(7) 0.2271(5) 0.8019(11)
C4_2 C 0.6086(8) 0.0625(4) 0.7893(12)
C5_2 C 0.7230(7) 0.3758(5) 0.7716(10)
C6_2 C 0.6589(7) 0.2855(5) 0.8113(10)
C9_2 C 0.7110(8) 0.3170(6) 0.9171(12)
H2_2 H 0.7196 0.3078 0.9859
C14_2 C 0.7440(9) 0.3682(6) 0.8728(13)
H7_2 H 0.7814 0.3957 0.9204
S4_2 S 0.82061(19) 0.47919(13) 0.7962(3)
N3_2 N 0.9858(6) 0.6426(3) 0.4992(9)
O6_2 O 0.8936(4) 0.7095(3) 0.6150(7)
O7_2 O 0.8932(5) 0.5780(3) 0.6179(7)
C16_2 C 0.8254(7) 0.5086(5) 0.6865(10)
C19_2 C 0.8914(8) 0.5625(4) 0.7107(12)
C22_2 C 0.7577(7) 0.4211(6) 0.7319(11)
C26_2 C 0.7821(9) 0.4759(7) 0.5974(14)
H12_2 H 0.7791 0.4830 0.5303
C27_2 C 0.7409(8) 0.4268(6) 0.6285(12)
H13_2 H 0.7040 0.4002 0.5781
S2_2 S 0.67939(19) 0.97919(13) 0.7038(3)
C7_2 C 0.7423(7) 0.9211(6) 0.7681(11)
C11_2 C 0.7179(9) 0.9759(7) 0.9026(14)
H4_2 H 0.7209 0.9830 0.9697
C12_2 C 0.7591(8) 0.9268(6) 0.8715(12)
H5_2 H 0.7960 0.9002 0.9219
S3_2 S 0.8390(2) 0.81803(14) 0.7975(3)
C17_2 C 0.8897(7) 0.7271(5) 0.6981(11)
C20_2 C 0.7770(7) 0.8758(5) 0.7284(10)
C21_2 C 0.8411(7) 0.7855(5) 0.6887(10)
C24_2 C 0.7890(8) 0.8170(6) 0.5829(12)
H10_2 H 0.7804 0.8078 0.5141
C29_2 C 0.7560(9) 0.8682(6) 0.6272(13)
H15_2 H 0.7186 0.8957 0.5796
C3_2 C 0.0004(6) 0.6437(4) 0.2996(9)
C8_2 C 0.0178(7) 0.5931(6) 0.3700(10)
H1_2 H 0.0325 0.5565 0.3500
C10_2 C 0.0135(8) 0.5964(7) 0.4702(12)
H3_2 H 0.0319 0.5634 0.5157
C28_2 C 0.0293(9) 0.6948(7) 0.1569(13)
H14_2 H 0.0370 0.7327 0.1886
C30_2 C 0.0456(11) 0.6868(8) 0.0701(15)
H16_2 H 0.0812 0.7145 0.0595
C13_2 C 0.9707(9) 0.6948(7) 0.3431(13)
H6_2 H 0.9630 0.7327 0.3114
C15_2 C 0.9544(11) 0.6868(8) 0.4299(15)
H8_2 H 0.9188 0.7145 0.4405
C18_2 C 0.9996(6) 0.6437(4) 0.2004(9)
C23_2 C 0.9822(7) 0.5931(6) 0.1300(10)
H9_2 H 0.9675 0.5565 0.1500
C25_2 C 0.9865(8) 0.5964(7) 0.0298(12)
H11_2 H 0.9681 0.5634 0.9843
Zn7 Zn 0.01958(7) 0.35595(5) 0.36370(11)
O10_2 O 0.0685(5) 0.2908(3) 0.2002(8)
O13_2 O 0.0689(5) 0.4207(4) 0.1935(7)
S2_3 S 0.67939(19) 0.02081(13) 0.2038(3)
C7_3 C 0.7423(7) 0.0789(6) 0.2681(11)
C11_3 C 0.7179(9) 0.0241(7) 0.4026(14)
H4_3 H 0.7209 0.0170 0.4697
C12_3 C 0.7591(8) 0.0732(6) 0.3715(12)
H5_3 H 0.7960 0.0998 0.4219
Zn6 Zn 0.98042(7) 0.35595(5) 0.13630(11)
S3_3 S 0.8390(2) 0.18197(14) 0.2975(3)
O5 O 0.8936(4) 0.2905(3) 0.1150(7)
O9_2 O 0.9315(5) 0.2908(3) 0.2998(8)
C17_3 C 0.8897(7) 0.2729(5) 0.1981(11)
C20_3 C 0.7770(7) 0.1242(5) 0.2284(10)
C21_3 C 0.8411(7) 0.2145(5) 0.1887(10)
C24_3 C 0.7890(8) 0.1830(6) 0.0829(12)
H10_3 H 0.7804 0.1922 0.0141
C29_3 C 0.7560(9) 0.1318(6) 0.1272(13)
H15_3 H 0.7186 0.1043 0.0796
Zn3 Zn 0.48042(7) 0.85595(5) 0.13630(11)
H11_3 H 0.5319 0.9366 0.0157
Zn1_2 Zn 0.51958(7) 0.85595(5) 0.36370(11)
S1_3 S 0.6610(2) 0.68197(14) 0.2025(3)
N1_2 N 0.5142(6) 0.8574(3) 0.5008(9)
O1_3 O 0.6064(4) 0.7905(3) 0.3850(7)
O2_3 O 0.6068(5) 0.9220(3) 0.3821(7)
C1_3 C 0.6746(7) 0.9914(5) 0.3135(10)
O3_2 O 0.5685(5) 0.7908(3) 0.2002(8)
C2_3 C 0.6103(7) 0.7729(5) 0.3019(11)
C3_3 C 0.4996(6) 0.8563(4) 0.7004(9)
C4_3 C 0.6086(8) 0.9375(4) 0.2893(12)
C5_3 C 0.7230(7) 0.6242(5) 0.2716(10)
O4_2 O 0.5689(5) 0.9207(4) 0.1935(7)
C6_3 C 0.6589(7) 0.7145(5) 0.3113(10)
C8_3 C 0.4822(7) 0.9069(6) 0.6300(10)
H1_3 H 0.4675 0.9435 0.6500
C9_3 C 0.7110(8) 0.6830(6) 0.4171(12)
H2_3 H 0.7196 0.6922 0.4859
C10_3 C 0.4865(8) 0.9036(7) 0.5298(12)
H3_3 H 0.4681 0.9366 0.4843
C13_3 C 0.5293(9) 0.8052(7) 0.6569(13)
H6_3 H 0.5370 0.7673 0.6886
C14_3 C 0.7440(9) 0.6318(6) 0.3728(13)
H7_3 H 0.7814 0.6043 0.4204
C15_3 C 0.5456(11) 0.8132(8) 0.5701(15)
H8_3 H 0.5812 0.7855 0.5595
S4_3 S 0.82061(19) 0.52081(13) 0.2962(3)
N2_2 N 0.4858(6) 0.8574(3) 0.9992(9)
O7_3 O 0.8932(5) 0.4220(3) 0.1179(7)
C16_3 C 0.8254(7) 0.4914(5) 0.1865(10)
O8_2 O 0.4315(5) 0.7908(3) 0.2998(8)
C18_3 C 0.5004(6) 0.8563(4) 0.7996(9)
C19_3 C 0.8914(8) 0.4375(4) 0.2107(12)
O11_2 O 0.4311(5) 0.9207(4) 0.3065(7)
O12_2 O 0.9311(5) 0.4207(4) 0.3065(7)
C22_3 C 0.7577(7) 0.5789(6) 0.2319(11)
C23_3 C 0.5178(7) 0.9069(6) 0.8700(10)
H9_3 H 0.5325 0.9435 0.8500
C25_3 C 0.5135(8) 0.9036(7) 0.9702(12)
C26_3 C 0.7821(9) 0.5241(7) 0.0974(14)
H12_3 H 0.7791 0.5170 0.0303
C27_3 C 0.7409(8) 0.5732(6) 0.1285(12)
H13_3 H 0.7040 0.5998 0.0781
C28_3 C 0.4707(9) 0.8052(7) 0.8431(13)
H14_3 H 0.4630 0.7673 0.8114
C30_3 C 0.4544(11) 0.8132(8) 0.9299(15)
H16_3 H 0.4188 0.7855 0.9405
N3_3 N 0.9858(6) 0.3574(3) 0.9992(9)
S2_4 S 0.32061(19) 0.02081(13) 0.2962(3)
C7_4 C 0.2577(7) 0.0789(6) 0.2319(11)
C11_4 C 0.2821(9) 0.0241(7) 0.0974(14)
H4_4 H 0.2791 0.0170 0.0303
C12_4 C 0.2409(8) 0.0732(6) 0.1285(12)
H5_4 H 0.2040 0.0998 0.0781
S3_4 S 0.1610(2) 0.18197(14) 0.2025(3)
O5_2 O 0.1064(4) 0.2905(3) 0.3850(7)
C17_4 C 0.1103(7) 0.2729(5) 0.3019(11)
C20_4 C 0.2230(7) 0.1242(5) 0.2716(10)
C21_4 C 0.1589(7) 0.2145(5) 0.3113(10)
C24_4 C 0.2110(8) 0.1830(6) 0.4171(12)
H10_4 H 0.2196 0.1922 0.4859
C29_4 C 0.2440(9) 0.1318(6) 0.3728(13)
H15_4 H 0.2814 0.1043 0.4204
S1_4 S 0.3390(2) 0.68197(14) 0.2975(3)
O1_4 O 0.3936(4) 0.7905(3) 0.1150(7)
O2_4 O 0.3932(5) 0.9220(3) 0.1179(7)
C1_4 C 0.3254(7) 0.9914(5) 0.1865(10)
C2_4 C 0.3897(7) 0.7729(5) 0.1981(11)
C4_4 C 0.3914(8) 0.9375(4) 0.2107(12)
C5_4 C 0.2770(7) 0.6242(5) 0.2284(10)
C6_4 C 0.3411(7) 0.7145(5) 0.1887(10)
C9_4 C 0.2890(8) 0.6830(6) 0.0829(12)
H2_4 H 0.2804 0.6922 0.0141
C14_4 C 0.2560(9) 0.6318(6) 0.1272(13)
H7_4 H 0.2186 0.6043 0.0796
S4_4 S 0.17939(19) 0.52081(13) 0.2038(3)
N3_4 N 0.0142(6) 0.3574(3) 0.5008(9)
O7_4 O 0.1068(5) 0.4220(3) 0.3821(7)
C16_4 C 0.1746(7) 0.4914(5) 0.3135(10)
C19_4 C 0.1086(8) 0.4375(4) 0.2893(12)
C22_4 C 0.2423(7) 0.5789(6) 0.2681(11)
C26_4 C 0.2179(9) 0.5241(7) 0.4026(14)
H12_4 H 0.2209 0.5170 0.4697
C27_4 C 0.2591(8) 0.5732(6) 0.3715(12)
H13_4 H 0.2960 0.5998 0.4219
H11_4 H 0.0319 0.4366 0.0157
C13_4 C 0.0293(9) 0.3052(7) 0.6569(13)
H6_4 H 0.0370 0.2673 0.6886
C15_4 C 0.0456(11) 0.3132(8) 0.5701(15)
H8_4 H 0.0812 0.2855 0.5595
C18_4 C 0.0004(6) 0.3563(4) 0.7996(9)
C23_4 C 0.0178(7) 0.4069(6) 0.8700(10)
H9_4 H 0.0325 0.4435 0.8500
C25_4 C 0.0135(8) 0.4036(7) 0.9702(12)
C3_4 C 0.9996(6) 0.3563(4) 0.7004(9)
C8_4 C 0.9822(7) 0.4069(6) 0.6300(10)
H1_4 H 0.9675 0.4435 0.6500
C10_4 C 0.9865(8) 0.4036(7) 0.5298(12)
H3_4 H 0.9681 0.4366 0.4843
C28_4 C 0.9707(9) 0.3052(7) 0.8431(13)
H14_4 H 0.9630 0.2673 0.8114
C30_4 C 0.9544(11) 0.3132(8) 0.9299(15)
H16_4 H 0.9188 0.2855 0.9405
loop_
_geom_bond_atom_site_label_1
_geom_bond_atom_site_label_2
_geom_bond_site_symmetry_1
_geom_bond_site_symmetry_2
Zn1 N1 1_555 1_555
S1 C5 1_555 1_555
N1 C10 1_555 1_555
O1 Zn1 1_555 1_555
O2 Zn1 1_555 1_555
C1 C4 1_555 1_555
O3 C2 1_555 1_555
C2 O1 1_555 1_555
C3 C8 1_555 1_555
C4 O2 1_555 1_555
C5 C14 1_555 1_555
O4 C4 1_555 1_555
C6 S1 1_555 1_555
C8 H1 1_555 1_555
C9 C6 1_555 1_555
H2 C9 1_555 1_555
C10 C8 1_555 1_555
H3 C10 1_555 1_555
C13 C3 1_555 1_555
H6 C13 1_555 1_555
C14 C9 1_555 1_555
H7 C14 1_555 1_555
C15 N1 1_555 1_555
H8 C15 1_555 1_555
Zn2 O3 1_555 1_555
S4 C16 1_555 1_555
N2 C25 1_555 1_555
O6 Zn4 1_555 1_555
O7 Zn4 1_555 1_555
C16 C19 1_555 1_555
O8 Zn1 1_555 1_555
C18 C3 1_555 1_555
C19 O7 1_555 1_555
O11 Zn1 1_555 1_555
O12 C19 1_555 1_555
C22 C5 1_555 1_555
C23 C18 1_555 1_555
H9 C23 1_555 1_555
C25 C23 1_555 1_555
C26 C16 1_555 1_555
H12 C26 1_555 1_555
C27 C22 1_555 1_555
H13 C27 1_555 1_555
C28 C18 1_555 1_555
H14 C28 1_555 1_555
C30 N2 1_555 1_555
H16 C30 1_555 1_555
C2 C6 1_555 1_555
O4 Zn2 1_555 1_555
C13 C15 1_555 1_555
S4 C22 1_555 1_555
C26 C27 1_555 1_555
C28 C30 1_555 1_555
C7 S2 1_555 1_555
H4 C11 1_555 1_555
C12 C7 1_555 1_555
H5 C12 1_555 1_555
S3 C20 1_555 1_555
O6 C17 1_555 1_555
O9 C17 1_555 1_555
C17 C21 1_555 1_555
C20 C7 1_555 1_555
C21 S3 1_555 1_555
C24 C21 1_555 1_555
H10 C24 1_555 1_555
C29 C20 1_555 1_555
H15 C29 1_555 1_555
C11 C12 1_555 1_555
C24 C29 1_555 1_555
S1_2 C5_2 1_555 1_555
O1_2 Zn2 1_555 1_555
O2_2 Zn2 1_555 1_555
C1_2 C4_2 1_555 1_555
O8 C2_2 1_555 1_555
C2_2 O1_2 1_555 1_555
C4_2 O2_2 1_555 1_555
C5_2 C14_2 1_555 1_555
O11 C4_2 1_555 1_555
C6_2 S1_2 1_555 1_555
C9_2 C6_2 1_555 1_555
H2_2 C9_2 1_555 1_555
C14_2 C9_2 1_555 1_555
H7_2 C14_2 1_555 1_555
Zn5 N3_2 1_555 1_555
S4_2 C16_2 1_555 1_555
O6_2 Zn5 1_555 1_555
O7_2 Zn5 1_555 1_555
C16_2 C19_2 1_555 1_555
C19_2 O7_2 1_555 1_555
O13 C19_2 1_555 1_555
C22_2 C5_2 1_555 1_555
C26_2 C16_2 1_555 1_555
H12_2 C26_2 1_555 1_555
C27_2 C22_2 1_555 1_555
H13_2 C27_2 1_555 1_555
C2_2 C6_2 1_555 1_555
S4_2 C22_2 1_555 1_555
C26_2 C27_2 1_555 1_555
C7_2 S2_2 1_555 1_555
H4_2 C11_2 1_555 1_555
C12_2 C7_2 1_555 1_555
H5_2 C12_2 1_555 1_555
S3_2 C20_2 1_555 1_555
O6_2 C17_2 1_555 1_555
O10 C17_2 1_555 1_555
C17_2 C21_2 1_555 1_555
C20_2 C7_2 1_555 1_555
C21_2 S3_2 1_555 1_555
C24_2 C21_2 1_555 1_555
H10_2 C24_2 1_555 1_555
C29_2 C20_2 1_555 1_555
H15_2 C29_2 1_555 1_555
C11_2 C12_2 1_555 1_555
C24_2 C29_2 1_555 1_555
C3_2 C8_2 1_555 1_555
C8_2 H1_2 1_555 1_555
C10_2 C8_2 1_555 1_555
H3_2 C10_2 1_555 1_555
H14_2 C28_2 1_555 1_555
C30_2 N3 1_555 1_555
H16_2 C30_2 1_555 1_555
C28_2 C30_2 1_555 1_555
H6_2 C13_2 1_555 1_555
C15_2 N3_2 1_555 1_555
H8_2 C15_2 1_555 1_555
C23_2 C18_2 1_555 1_555
H9_2 C23_2 1_555 1_555
C25_2 C23_2 1_555 1_555
C13_2 C15_2 1_555 1_555
C7_3 S2_3 1_555 1_555
H4_3 C11_3 1_555 1_555
C12_3 C7_3 1_555 1_555
H5_3 C12_3 1_555 1_555
Zn6 O5 1_555 1_555
S3_3 C20_3 1_555 1_555
O5 C17_3 1_555 1_555
O9_2 C17_3 1_555 1_555
C17_3 C21_3 1_555 1_555
C20_3 C7_3 1_555 1_555
C21_3 S3_3 1_555 1_555
C24_3 C21_3 1_555 1_555
H10_3 C24_3 1_555 1_555
C29_3 C20_3 1_555 1_555
H15_3 C29_3 1_555 1_555
C11_3 C12_3 1_555 1_555
C24_3 C29_3 1_555 1_555
Zn1_2 N1_2 1_555 1_555
S1_3 C5_3 1_555 1_555
N1_2 C10_3 1_555 1_555
O1_3 Zn1_2 1_555 1_555
O2_3 Zn1_2 1_555 1_555
C1_3 C4_3 1_555 1_555
O3_2 C2_3 1_555 1_555
C2_3 O1_3 1_555 1_555
C3_3 C8_3 1_555 1_555
C4_3 O2_3 1_555 1_555
C5_3 C14_3 1_555 1_555
O4_2 C4_3 1_555 1_555
C6_3 S1_3 1_555 1_555
C8_3 H1_3 1_555 1_555
C9_3 C6_3 1_555 1_555
H2_3 C9_3 1_555 1_555
C10_3 C8_3 1_555 1_555
H3_3 C10_3 1_555 1_555
C13_3 C3_3 1_555 1_555
H6_3 C13_3 1_555 1_555
C14_3 C9_3 1_555 1_555
H7_3 C14_3 1_555 1_555
C15_3 N1_2 1_555 1_555
H8_3 C15_3 1_555 1_555
Zn3 O3_2 1_555 1_555
S4_3 C16_3 1_555 1_555
N2_2 C25_3 1_555 1_555
O7_3 Zn6 1_555 1_555
C16_3 C19_3 1_555 1_555
O8_2 Zn1_2 1_555 1_555
C18_3 C3_3 1_555 1_555
C19_3 O7_3 1_555 1_555
O11_2 Zn1_2 1_555 1_555
O12_2 C19_3 1_555 1_555
C22_3 C5_3 1_555 1_555
C23_3 C18_3 1_555 1_555
H9_3 C23_3 1_555 1_555
C25_3 C23_3 1_555 1_555
C26_3 C16_3 1_555 1_555
H12_3 C26_3 1_555 1_555
C27_3 C22_3 1_555 1_555
H13_3 C27_3 1_555 1_555
C28_3 C18_3 1_555 1_555
H14_3 C28_3 1_555 1_555
C30_3 N2_2 1_555 1_555
H16_3 C30_3 1_555 1_555
C2_3 C6_3 1_555 1_555
O4_2 Zn3 1_555 1_555
C13_3 C15_3 1_555 1_555
S4_3 C22_3 1_555 1_555
C26_3 C27_3 1_555 1_555
C28_3 C30_3 1_555 1_555
C7_4 S2_4 1_555 1_555
H4_4 C11_4 1_555 1_555
C12_4 C7_4 1_555 1_555
H5_4 C12_4 1_555 1_555
Zn7 O5_2 1_555 1_555
S3_4 C20_4 1_555 1_555
O5_2 C17_4 1_555 1_555
O10_2 C17_4 1_555 1_555
C17_4 C21_4 1_555 1_555
C20_4 C7_4 1_555 1_555
C21_4 S3_4 1_555 1_555
C24_4 C21_4 1_555 1_555
H10_4 C24_4 1_555 1_555
C29_4 C20_4 1_555 1_555
H15_4 C29_4 1_555 1_555
C11_4 C12_4 1_555 1_555
C24_4 C29_4 1_555 1_555
S1_4 C5_4 1_555 1_555
O1_4 Zn3 1_555 1_555
O2_4 Zn3 1_555 1_555
C1_4 C4_4 1_555 1_555
O8_2 C2_4 1_555 1_555
C2_4 O1_4 1_555 1_555
C4_4 O2_4 1_555 1_555
C5_4 C14_4 1_555 1_555
O11_2 C4_4 1_555 1_555
C6_4 S1_4 1_555 1_555
C9_4 C6_4 1_555 1_555
H2_4 C9_4 1_555 1_555
C14_4 C9_4 1_555 1_555
H7_4 C14_4 1_555 1_555
Zn7 N3_4 1_555 1_555
S4_4 C16_4 1_555 1_555
O7_4 Zn7 1_555 1_555
C16_4 C19_4 1_555 1_555
C19_4 O7_4 1_555 1_555
O13_2 C19_4 1_555 1_555
C22_4 C5_4 1_555 1_555
C26_4 C16_4 1_555 1_555
H12_4 C26_4 1_555 1_555
C27_4 C22_4 1_555 1_555
H13_4 C27_4 1_555 1_555
C2_4 C6_4 1_555 1_555
S4_4 C22_4 1_555 1_555
C26_4 C27_4 1_555 1_555
H6_4 C13_4 1_555 1_555
C15_4 N3_4 1_555 1_555
H8_4 C15_4 1_555 1_555
C23_4 C18_4 1_555 1_555
H9_4 C23_4 1_555 1_555
C25_4 C23_4 1_555 1_555
C13_4 C15_4 1_555 1_555
C3_4 C8_4 1_555 1_555
C8_4 H1_4 1_555 1_555
C10_4 C8_4 1_555 1_555
H3_4 C10_4 1_555 1_555
H14_4 C28_4 1_555 1_555
C30_4 N3_3 1_555 1_555
H16_4 C30_4 1_555 1_555
C28_4 C30_4 1_555 1_555

#END
