
###############################################################################
#
# This file contains modified crystal structure data generated from the
# MOF subset of the Cambridge Structural Database (CSD) v543 
# hosted by the Cambridge Crystallographic Data Centre (CCDC).
#
# This work is licensed under the Creative Commons
# Attribution-NonCommercial-ShareAlike 4.0 International License.
# To view a copy of this license, visit
# http://creativecommons.org/licenses/by-nc-sa/4.0/
# or send a letter to
# Creative Commons, PO Box 1866, Mountain View, CA 94042, USA.
#
# CIF created using the CSD Python API on 29 September 2022
# The structure has been converted into the P1 space group
# The structure has a 3D framework
# The original CSD entry GUZVUU is in the cubic crystal system
# The framework has been calculated to contain at least 10.0% void space
# The void calculation uses a probe of radius 1.32A, grid spacing 0.4
# The framework is charged, counterions have been retained in the structure
#
###############################################################################

data_GUZVUU
_chemical_formula_moiety         '(C672 H384 F288 Mn112 N240 O384 12+)n'
_symmetry_cell_setting           triclinic
_symmetry_space_group_name_H-M   'P 1'
_symmetry_Int_Tables_number      1
_space_group_name_Hall           'P 1'
loop_
_symmetry_equiv_pos_site_id
_symmetry_equiv_pos_as_xyz
1 x,y,z
_cell_length_a                   32.9672(2)
_cell_length_b                   32.9672(2)
_cell_length_c                   32.9672(2)
_cell_angle_alpha                90
_cell_angle_beta                 90
_cell_angle_gamma                90
_cell_volume                     35829.9
loop_
_atom_site_label
_atom_site_type_symbol
_atom_site_fract_x
_atom_site_fract_y
_atom_site_fract_z
C1 C 0.1891(6) 0.7131(8) 0.1523(4)
H1 H 0.2097 0.7335 0.1453
H2 H 0.1976 0.6866 0.1420
H3 H 0.1860 0.7118 0.1818
C2 C 0.1109(5) 0.7263(4) 0.1596(4)
H4 H 0.1118 0.7046 0.1798
H5 H 0.0870 0.7228 0.1423
H6 H 0.1094 0.7526 0.1733
N1 N 0.1493(7) 0.7247(3) 0.1334(3)
H7 H 0.1445 0.7068 0.1125
H8 H 0.1526 0.7499 0.1218
C1_2 C 0.3109(6) 0.2869(8) 0.6523(4)
H1_2 H 0.2903 0.2665 0.6453
H2_2 H 0.3024 0.3134 0.6420
H3_2 H 0.3140 0.2882 0.6818
C2_2 C 0.3891(5) 0.2737(4) 0.6596(4)
H4_2 H 0.3882 0.2954 0.6798
H5_2 H 0.4130 0.2772 0.6423
H6_2 H 0.3906 0.2474 0.6733
N1_2 N 0.3507(7) 0.2753(3) 0.6334(3)
H7_2 H 0.3555 0.2932 0.6125
H8_2 H 0.3474 0.2501 0.6218
C1_3 C 0.8109(6) 0.2131(8) 0.3477(4)
H1_3 H 0.7903 0.2335 0.3547
H2_3 H 0.8024 0.1866 0.3580
H3_3 H 0.8140 0.2118 0.3182
C2_3 C 0.8891(5) 0.2263(4) 0.3404(4)
H4_3 H 0.8882 0.2046 0.3202
H5_3 H 0.9130 0.2228 0.3577
H6_3 H 0.8906 0.2526 0.3267
N1_3 N 0.8507(7) 0.2247(3) 0.3666(3)
H7_3 H 0.8555 0.2068 0.3875
H8_3 H 0.8474 0.2499 0.3782
C1_4 C 0.6891(6) 0.7869(8) 0.8477(4)
H1_4 H 0.7097 0.7665 0.8547
H2_4 H 0.6976 0.8134 0.8580
H3_4 H 0.6860 0.7882 0.8182
C2_4 C 0.6109(5) 0.7737(4) 0.8404(4)
H4_4 H 0.6118 0.7954 0.8202
H5_4 H 0.5870 0.7772 0.8577
H6_4 H 0.6094 0.7474 0.8267
N1_4 N 0.6493(7) 0.7753(3) 0.8666(3)
H7_4 H 0.6445 0.7932 0.8875
H8_4 H 0.6526 0.7501 0.8782
C1_5 C 0.1523(4) 0.1891(6) 0.7131(8)
H1_5 H 0.1453 0.2097 0.7335
H2_5 H 0.1420 0.1976 0.6866
H3_5 H 0.1818 0.1860 0.7118
C2_5 C 0.1596(4) 0.1109(5) 0.7263(4)
H4_5 H 0.1798 0.1118 0.7046
H5_5 H 0.1423 0.0870 0.7228
H6_5 H 0.1733 0.1094 0.7526
N1_5 N 0.1334(3) 0.1493(7) 0.7247(3)
H7_5 H 0.1125 0.1445 0.7068
H8_5 H 0.1218 0.1526 0.7499
C1_6 C 0.6523(4) 0.3109(6) 0.2869(8)
H1_6 H 0.6453 0.2903 0.2665
H2_6 H 0.6420 0.3024 0.3134
H3_6 H 0.6818 0.3140 0.2882
C2_6 C 0.6596(4) 0.3891(5) 0.2737(4)
H4_6 H 0.6798 0.3882 0.2954
H5_6 H 0.6423 0.4130 0.2772
H6_6 H 0.6733 0.3906 0.2474
N1_6 N 0.6334(3) 0.3507(7) 0.2753(3)
H7_6 H 0.6125 0.3555 0.2932
H8_6 H 0.6218 0.3474 0.2501
C1_7 C 0.3477(4) 0.8109(6) 0.2131(8)
H1_7 H 0.3547 0.7903 0.2335
H2_7 H 0.3580 0.8024 0.1866
H3_7 H 0.3182 0.8140 0.2118
C2_7 C 0.3404(4) 0.8891(5) 0.2263(4)
H4_7 H 0.3202 0.8882 0.2046
H5_7 H 0.3577 0.9130 0.2228
H6_7 H 0.3267 0.8906 0.2526
N1_7 N 0.3666(3) 0.8507(7) 0.2247(3)
H7_7 H 0.3875 0.8555 0.2068
H8_7 H 0.3782 0.8474 0.2499
C1_8 C 0.8477(4) 0.6891(6) 0.7869(8)
H1_8 H 0.8547 0.7097 0.7665
H2_8 H 0.8580 0.6976 0.8134
H3_8 H 0.8182 0.6860 0.7882
C2_8 C 0.8404(4) 0.6109(5) 0.7737(4)
H4_8 H 0.8202 0.6118 0.7954
H5_8 H 0.8577 0.5870 0.7772
H6_8 H 0.8267 0.6094 0.7474
N1_8 N 0.8666(3) 0.6493(7) 0.7753(3)
H7_8 H 0.8875 0.6445 0.7932
H8_8 H 0.8782 0.6526 0.7501
C1_9 C 0.7131(8) 0.1523(4) 0.1891(6)
H1_9 H 0.7335 0.1453 0.2097
H2_9 H 0.6866 0.1420 0.1976
H3_9 H 0.7118 0.1818 0.1860
C2_9 C 0.7263(4) 0.1596(4) 0.1109(5)
H4_9 H 0.7046 0.1798 0.1118
H5_9 H 0.7228 0.1423 0.0870
H6_9 H 0.7526 0.1733 0.1094
N1_9 N 0.7247(3) 0.1334(3) 0.1493(7)
H7_9 H 0.7068 0.1125 0.1445
H8_9 H 0.7499 0.1218 0.1526
C1_10 C 0.2869(8) 0.6523(4) 0.3109(6)
H1_10 H 0.2665 0.6453 0.2903
H2_10 H 0.3134 0.6420 0.3024
H3_10 H 0.2882 0.6818 0.3140
C2_10 C 0.2737(4) 0.6596(4) 0.3891(5)
H4_10 H 0.2954 0.6798 0.3882
H5_10 H 0.2772 0.6423 0.4130
H6_10 H 0.2474 0.6733 0.3906
N1_10 N 0.2753(3) 0.6334(3) 0.3507(7)
H7_10 H 0.2932 0.6125 0.3555
H8_10 H 0.2501 0.6218 0.3474
C1_11 C 0.2131(8) 0.3477(4) 0.8109(6)
H1_11 H 0.2335 0.3547 0.7903
H2_11 H 0.1866 0.3580 0.8024
H3_11 H 0.2118 0.3182 0.8140
C2_11 C 0.2263(4) 0.3404(4) 0.8891(5)
H4_11 H 0.2046 0.3202 0.8882
H5_11 H 0.2228 0.3577 0.9130
H6_11 H 0.2526 0.3267 0.8906
N1_11 N 0.2247(3) 0.3666(3) 0.8507(7)
H7_11 H 0.2068 0.3875 0.8555
H8_11 H 0.2499 0.3782 0.8474
C1_12 C 0.7869(8) 0.8477(4) 0.6891(6)
H1_12 H 0.7665 0.8547 0.7097
H2_12 H 0.8134 0.8580 0.6976
H3_12 H 0.7882 0.8182 0.6860
C2_12 C 0.7737(4) 0.8404(4) 0.6109(5)
H4_12 H 0.7954 0.8202 0.6118
H5_12 H 0.7772 0.8577 0.5870
H6_12 H 0.7474 0.8267 0.6094
N1_12 N 0.7753(3) 0.8666(3) 0.6493(7)
H7_12 H 0.7932 0.8875 0.6445
H8_12 H 0.7501 0.8782 0.6526
H6_13 H 0.0026 0.3594 0.4233
C1_13 C 0.9631(8) 0.4391(6) 0.4023(4)
H1_13 H 0.9835 0.4597 0.3953
H2_13 H 0.9366 0.4476 0.3920
H3_13 H 0.9618 0.4360 0.4318
C2_13 C 0.9763(4) 0.3609(5) 0.4096(4)
H4_13 H 0.9546 0.3618 0.4298
H5_13 H 0.9728 0.3370 0.3923
N1_13 N 0.9747(3) 0.3993(7) 0.3834(3)
H7_13 H 0.9568 0.3945 0.3625
H8_13 H 0.9999 0.4026 0.3718
C1_14 C 0.5369(8) 0.5609(6) 0.9023(4)
H1_14 H 0.5165 0.5403 0.8953
H2_14 H 0.5634 0.5524 0.8920
H3_14 H 0.5382 0.5640 0.9318
C2_14 C 0.5237(4) 0.6391(5) 0.9096(4)
H4_14 H 0.5454 0.6382 0.9298
H5_14 H 0.5272 0.6630 0.8923
H6_14 H 0.4974 0.6406 0.9233
N1_14 N 0.5253(3) 0.6007(7) 0.8834(3)
H7_14 H 0.5432 0.6055 0.8625
H8_14 H 0.5001 0.5974 0.8718
C1_15 C 0.4631(8) 0.0609(6) 0.5977(4)
H1_15 H 0.4835 0.0403 0.6047
H2_15 H 0.4366 0.0524 0.6080
H3_15 H 0.4618 0.0640 0.5682
C2_15 C 0.4763(4) 0.1391(5) 0.5904(4)
H4_15 H 0.4546 0.1382 0.5702
H5_15 H 0.4728 0.1630 0.6077
H6_15 H 0.5026 0.1406 0.5767
N1_15 N 0.4747(3) 0.1007(7) 0.6166(3)
H7_15 H 0.4568 0.1055 0.6375
H8_15 H 0.4999 0.0974 0.6282
C1_16 C 0.0369(8) 0.9391(6) 0.0977(4)
H1_16 H 0.0165 0.9597 0.1047
H2_16 H 0.0634 0.9476 0.1080
H3_16 H 0.0382 0.9360 0.0682
C2_16 C 0.0237(4) 0.8609(5) 0.0904(4)
H4_16 H 0.0454 0.8618 0.0702
H5_16 H 0.0272 0.8370 0.1077
N1_16 N 0.0253(3) 0.8993(7) 0.1166(3)
H7_16 H 0.0432 0.8945 0.1375
H8_16 H 0.0001 0.9026 0.1282
H6_16 H 0.9974 0.8594 0.0767
H6_17 H 0.3594 0.4233 0.0026
C1_17 C 0.4391(6) 0.4023(4) 0.9631(8)
H1_17 H 0.4597 0.3953 0.9835
H2_17 H 0.4476 0.3920 0.9366
H3_17 H 0.4360 0.4318 0.9618
C2_17 C 0.3609(5) 0.4096(4) 0.9763(4)
H4_17 H 0.3618 0.4298 0.9546
H5_17 H 0.3370 0.3923 0.9728
N1_17 N 0.3993(7) 0.3834(3) 0.9747(3)
H7_17 H 0.3945 0.3625 0.9568
H8_17 H 0.4026 0.3718 0.9999
C1_18 C 0.5609(6) 0.9023(4) 0.5369(8)
H1_18 H 0.5403 0.8953 0.5165
H2_18 H 0.5524 0.8920 0.5634
H3_18 H 0.5640 0.9318 0.5382
C2_18 C 0.6391(5) 0.9096(4) 0.5237(4)
H4_18 H 0.6382 0.9298 0.5454
H5_18 H 0.6630 0.8923 0.5272
H6_18 H 0.6406 0.9233 0.4974
N1_18 N 0.6007(7) 0.8834(3) 0.5253(3)
H7_18 H 0.6055 0.8625 0.5432
H8_18 H 0.5974 0.8718 0.5001
C1_19 C 0.0609(6) 0.5977(4) 0.4631(8)
H1_19 H 0.0403 0.6047 0.4835
H2_19 H 0.0524 0.6080 0.4366
H3_19 H 0.0640 0.5682 0.4618
C2_19 C 0.1391(5) 0.5904(4) 0.4763(4)
H4_19 H 0.1382 0.5702 0.4546
H5_19 H 0.1630 0.6077 0.4728
H6_19 H 0.1406 0.5767 0.5026
N1_19 N 0.1007(7) 0.6166(3) 0.4747(3)
H7_19 H 0.1055 0.6375 0.4568
H8_19 H 0.0974 0.6282 0.4999
C1_20 C 0.9391(6) 0.0977(4) 0.0369(8)
H1_20 H 0.9597 0.1047 0.0165
H2_20 H 0.9476 0.1080 0.0634
H3_20 H 0.9360 0.0682 0.0382
C2_20 C 0.8609(5) 0.0904(4) 0.0237(4)
H4_20 H 0.8618 0.0702 0.0454
H5_20 H 0.8370 0.1077 0.0272
N1_20 N 0.8993(7) 0.1166(3) 0.0253(3)
H7_20 H 0.8945 0.1375 0.0432
H8_20 H 0.9026 0.1282 0.0001
H6_20 H 0.8594 0.0767 0.9974
H6_21 H 0.4233 0.0026 0.3594
C1_21 C 0.4023(4) 0.9631(8) 0.4391(6)
H1_21 H 0.3953 0.9835 0.4597
H2_21 H 0.3920 0.9366 0.4476
H3_21 H 0.4318 0.9618 0.4360
C2_21 C 0.4096(4) 0.9763(4) 0.3609(5)
H4_21 H 0.4298 0.9546 0.3618
H5_21 H 0.3923 0.9728 0.3370
N1_21 N 0.3834(3) 0.9747(3) 0.3993(7)
H7_21 H 0.3625 0.9568 0.3945
H8_21 H 0.3718 0.9999 0.4026
C1_22 C 0.9023(4) 0.5369(8) 0.5609(6)
H1_22 H 0.8953 0.5165 0.5403
H2_22 H 0.8920 0.5634 0.5524
H3_22 H 0.9318 0.5382 0.5640
C2_22 C 0.9096(4) 0.5237(4) 0.6391(5)
H4_22 H 0.9298 0.5454 0.6382
H5_22 H 0.8923 0.5272 0.6630
H6_22 H 0.9233 0.4974 0.6406
N1_22 N 0.8834(3) 0.5253(3) 0.6007(7)
H7_22 H 0.8625 0.5432 0.6055
H8_22 H 0.8718 0.5001 0.5974
C1_23 C 0.5977(4) 0.4631(8) 0.0609(6)
H1_23 H 0.6047 0.4835 0.0403
H2_23 H 0.6080 0.4366 0.0524
H3_23 H 0.5682 0.4618 0.0640
C2_23 C 0.5904(4) 0.4763(4) 0.1391(5)
H4_23 H 0.5702 0.4546 0.1382
H5_23 H 0.6077 0.4728 0.1630
H6_23 H 0.5767 0.5026 0.1406
N1_23 N 0.6166(3) 0.4747(3) 0.1007(7)
H7_23 H 0.6375 0.4568 0.1055
H8_23 H 0.6282 0.4999 0.0974
C1_24 C 0.0977(4) 0.0369(8) 0.9391(6)
H1_24 H 0.1047 0.0165 0.9597
H2_24 H 0.1080 0.0634 0.9476
H3_24 H 0.0682 0.0382 0.9360
C2_24 C 0.0904(4) 0.0237(4) 0.8609(5)
H4_24 H 0.0702 0.0454 0.8618
H5_24 H 0.1077 0.0272 0.8370
N1_24 N 0.1166(3) 0.0253(3) 0.8993(7)
H7_24 H 0.1375 0.0432 0.8945
H8_24 H 0.1282 0.0001 0.9026
H6_24 H 0.0767 0.9974 0.8594
C1_25 C 0.6891(6) 0.2131(8) 0.6523(4)
H1_25 H 0.7097 0.2335 0.6453
H2_25 H 0.6976 0.1866 0.6420
H3_25 H 0.6860 0.2118 0.6818
C2_25 C 0.6109(5) 0.2263(4) 0.6596(4)
H4_25 H 0.6118 0.2046 0.6798
H5_25 H 0.5870 0.2228 0.6423
H6_25 H 0.6094 0.2526 0.6733
N1_25 N 0.6493(7) 0.2247(3) 0.6334(3)
H7_25 H 0.6445 0.2068 0.6125
H8_25 H 0.6526 0.2499 0.6218
C1_26 C 0.8109(6) 0.7869(8) 0.1523(4)
H1_26 H 0.7903 0.7665 0.1453
H2_26 H 0.8024 0.8134 0.1420
H3_26 H 0.8140 0.7882 0.1818
C2_26 C 0.8891(5) 0.7737(4) 0.1596(4)
H4_26 H 0.8882 0.7954 0.1798
H5_26 H 0.9130 0.7772 0.1423
H6_26 H 0.8906 0.7474 0.1733
N1_26 N 0.8507(7) 0.7753(3) 0.1334(3)
H7_26 H 0.8555 0.7932 0.1125
H8_26 H 0.8474 0.7501 0.1218
C1_27 C 0.3109(6) 0.7131(8) 0.8477(4)
H1_27 H 0.2903 0.7335 0.8547
H2_27 H 0.3024 0.6866 0.8580
H3_27 H 0.3140 0.7118 0.8182
C2_27 C 0.3891(5) 0.7263(4) 0.8404(4)
H4_27 H 0.3882 0.7046 0.8202
H5_27 H 0.4130 0.7228 0.8577
H6_27 H 0.3906 0.7526 0.8267
N1_27 N 0.3507(7) 0.7247(3) 0.8666(3)
H7_27 H 0.3555 0.7068 0.8875
H8_27 H 0.3474 0.7499 0.8782
C1_28 C 0.1891(6) 0.2869(8) 0.3477(4)
H1_28 H 0.2097 0.2665 0.3547
H2_28 H 0.1976 0.3134 0.3580
H3_28 H 0.1860 0.2882 0.3182
C2_28 C 0.1109(5) 0.2737(4) 0.3404(4)
H4_28 H 0.1118 0.2954 0.3202
H5_28 H 0.0870 0.2772 0.3577
H6_28 H 0.1094 0.2474 0.3267
N1_28 N 0.1493(7) 0.2753(3) 0.3666(3)
H7_28 H 0.1445 0.2932 0.3875
H8_28 H 0.1526 0.2501 0.3782
C1_29 C 0.6523(4) 0.6891(6) 0.2131(8)
H1_29 H 0.6453 0.7097 0.2335
H2_29 H 0.6420 0.6976 0.1866
H3_29 H 0.6818 0.6860 0.2118
C2_29 C 0.6596(4) 0.6109(5) 0.2263(4)
H4_29 H 0.6798 0.6118 0.2046
H5_29 H 0.6423 0.5870 0.2228
H6_29 H 0.6733 0.6094 0.2526
N1_29 N 0.6334(3) 0.6493(7) 0.2247(3)
H7_29 H 0.6125 0.6445 0.2068
H8_29 H 0.6218 0.6526 0.2499
C1_30 C 0.1523(4) 0.8109(6) 0.7869(8)
H1_30 H 0.1453 0.7903 0.7665
H2_30 H 0.1420 0.8024 0.8134
H3_30 H 0.1818 0.8140 0.7882
C2_30 C 0.1596(4) 0.8891(5) 0.7737(4)
H4_30 H 0.1798 0.8882 0.7954
H5_30 H 0.1423 0.9130 0.7772
H6_30 H 0.1733 0.8906 0.7474
N1_30 N 0.1334(3) 0.8507(7) 0.7753(3)
H7_30 H 0.1125 0.8555 0.7932
H8_30 H 0.1218 0.8474 0.7501
C1_31 C 0.8477(4) 0.3109(6) 0.7131(8)
H1_31 H 0.8547 0.2903 0.7335
H2_31 H 0.8580 0.3024 0.6866
H3_31 H 0.8182 0.3140 0.7118
C2_31 C 0.8404(4) 0.3891(5) 0.7263(4)
H4_31 H 0.8202 0.3882 0.7046
H5_31 H 0.8577 0.4130 0.7228
H6_31 H 0.8267 0.3906 0.7526
N1_31 N 0.8666(3) 0.3507(7) 0.7247(3)
H7_31 H 0.8875 0.3555 0.7068
H8_31 H 0.8782 0.3474 0.7499
C1_32 C 0.3477(4) 0.1891(6) 0.2869(8)
H1_32 H 0.3547 0.2097 0.2665
H2_32 H 0.3580 0.1976 0.3134
H3_32 H 0.3182 0.1860 0.2882
C2_32 C 0.3404(4) 0.1109(5) 0.2737(4)
H4_32 H 0.3202 0.1118 0.2954
H5_32 H 0.3577 0.0870 0.2772
H6_32 H 0.3267 0.1094 0.2474
N1_32 N 0.3666(3) 0.1493(7) 0.2753(3)
H7_32 H 0.3875 0.1445 0.2932
H8_32 H 0.3782 0.1526 0.2501
C1_33 C 0.2131(8) 0.6523(4) 0.6891(6)
H1_33 H 0.2335 0.6453 0.7097
H2_33 H 0.1866 0.6420 0.6976
H3_33 H 0.2118 0.6818 0.6860
C2_33 C 0.2263(4) 0.6596(4) 0.6109(5)
H4_33 H 0.2046 0.6798 0.6118
H5_33 H 0.2228 0.6423 0.5870
H6_33 H 0.2526 0.6733 0.6094
N1_33 N 0.2247(3) 0.6334(3) 0.6493(7)
H7_33 H 0.2068 0.6125 0.6445
H8_33 H 0.2499 0.6218 0.6526
C1_34 C 0.7869(8) 0.1523(4) 0.8109(6)
H1_34 H 0.7665 0.1453 0.7903
H2_34 H 0.8134 0.1420 0.8024
H3_34 H 0.7882 0.1818 0.8140
C2_34 C 0.7737(4) 0.1596(4) 0.8891(5)
H4_34 H 0.7954 0.1798 0.8882
H5_34 H 0.7772 0.1423 0.9130
H6_34 H 0.7474 0.1733 0.8906
N1_34 N 0.7753(3) 0.1334(3) 0.8507(7)
H7_34 H 0.7932 0.1125 0.8555
H8_34 H 0.7501 0.1218 0.8474
C1_35 C 0.7131(8) 0.8477(4) 0.3109(6)
H1_35 H 0.7335 0.8547 0.2903
H2_35 H 0.6866 0.8580 0.3024
H3_35 H 0.7118 0.8182 0.3140
C2_35 C 0.7263(4) 0.8404(4) 0.3891(5)
H4_35 H 0.7046 0.8202 0.3882
H5_35 H 0.7228 0.8577 0.4130
H6_35 H 0.7526 0.8267 0.3906
N1_35 N 0.7247(3) 0.8666(3) 0.3507(7)
H7_35 H 0.7068 0.8875 0.3555
H8_35 H 0.7499 0.8782 0.3474
C1_36 C 0.2869(8) 0.3477(4) 0.1891(6)
H1_36 H 0.2665 0.3547 0.2097
H2_36 H 0.3134 0.3580 0.1976
H3_36 H 0.2882 0.3182 0.1860
C2_36 C 0.2737(4) 0.3404(4) 0.1109(5)
H4_36 H 0.2954 0.3202 0.1118
H5_36 H 0.2772 0.3577 0.0870
H6_36 H 0.2474 0.3267 0.1094
N1_36 N 0.2753(3) 0.3666(3) 0.1493(7)
H7_36 H 0.2932 0.3875 0.1445
H8_36 H 0.2501 0.3782 0.1526
C1_37 C 0.4631(8) 0.9391(6) 0.9023(4)
H1_37 H 0.4835 0.9597 0.8953
H2_37 H 0.4366 0.9476 0.8920
H3_37 H 0.4618 0.9360 0.9318
C2_37 C 0.4763(4) 0.8609(5) 0.9096(4)
H4_37 H 0.4546 0.8618 0.9298
H5_37 H 0.4728 0.8370 0.8923
H6_37 H 0.5026 0.8594 0.9233
N1_37 N 0.4747(3) 0.8993(7) 0.8834(3)
H7_37 H 0.4568 0.8945 0.8625
H8_37 H 0.4999 0.9026 0.8718
C1_38 C 0.0369(8) 0.0609(6) 0.4023(4)
H1_38 H 0.0165 0.0403 0.3953
H2_38 H 0.0634 0.0524 0.3920
H3_38 H 0.0382 0.0640 0.4318
C2_38 C 0.0237(4) 0.1391(5) 0.4096(4)
H4_38 H 0.0454 0.1382 0.4298
H5_38 H 0.0272 0.1630 0.3923
N1_38 N 0.0253(3) 0.1007(7) 0.3834(3)
H7_38 H 0.0432 0.1055 0.3625
H8_38 H 0.0001 0.0974 0.3718
H6_38 H 0.9974 0.1406 0.4233
H6_39 H 0.0026 0.6406 0.0767
C1_39 C 0.9631(8) 0.5609(6) 0.0977(4)
H1_39 H 0.9835 0.5403 0.1047
H2_39 H 0.9366 0.5524 0.1080
H3_39 H 0.9618 0.5640 0.0682
C2_39 C 0.9763(4) 0.6391(5) 0.0904(4)
H4_39 H 0.9546 0.6382 0.0702
H5_39 H 0.9728 0.6630 0.1077
N1_39 N 0.9747(3) 0.6007(7) 0.1166(3)
H7_39 H 0.9568 0.6055 0.1375
H8_39 H 0.9999 0.5974 0.1282
C1_40 C 0.5369(8) 0.4391(6) 0.5977(4)
H1_40 H 0.5165 0.4597 0.6047
H2_40 H 0.5634 0.4476 0.6080
H3_40 H 0.5382 0.4360 0.5682
C2_40 C 0.5237(4) 0.3609(5) 0.5904(4)
H4_40 H 0.5454 0.3618 0.5702
H5_40 H 0.5272 0.3370 0.6077
H6_40 H 0.4974 0.3594 0.5767
N1_40 N 0.5253(3) 0.3993(7) 0.6166(3)
H7_40 H 0.5432 0.3945 0.6375
H8_40 H 0.5001 0.4026 0.6282
C1_41 C 0.9391(6) 0.9023(4) 0.4631(8)
H1_41 H 0.9597 0.8953 0.4835
H2_41 H 0.9476 0.8920 0.4366
H3_41 H 0.9360 0.9318 0.4618
C2_41 C 0.8609(5) 0.9096(4) 0.4763(4)
H4_41 H 0.8618 0.9298 0.4546
H5_41 H 0.8370 0.8923 0.4728
H6_41 H 0.8594 0.9233 0.5026
N1_41 N 0.8993(7) 0.8834(3) 0.4747(3)
H7_41 H 0.8945 0.8625 0.4568
H8_41 H 0.9026 0.8718 0.4999
C1_42 C 0.0609(6) 0.4023(4) 0.0369(8)
H1_42 H 0.0403 0.3953 0.0165
H2_42 H 0.0524 0.3920 0.0634
H3_42 H 0.0640 0.4318 0.0382
C2_42 C 0.1391(5) 0.4096(4) 0.0237(4)
H4_42 H 0.1382 0.4298 0.0454
H5_42 H 0.1630 0.3923 0.0272
N1_42 N 0.1007(7) 0.3834(3) 0.0253(3)
H7_42 H 0.1055 0.3625 0.0432
H8_42 H 0.0974 0.3718 0.0001
H6_42 H 0.1406 0.4233 0.9974
H6_43 H 0.6406 0.0767 0.0026
C1_43 C 0.5609(6) 0.0977(4) 0.9631(8)
H1_43 H 0.5403 0.1047 0.9835
H2_43 H 0.5524 0.1080 0.9366
H3_43 H 0.5640 0.0682 0.9618
C2_43 C 0.6391(5) 0.0904(4) 0.9763(4)
H4_43 H 0.6382 0.0702 0.9546
H5_43 H 0.6630 0.1077 0.9728
N1_43 N 0.6007(7) 0.1166(3) 0.9747(3)
H7_43 H 0.6055 0.1375 0.9568
H8_43 H 0.5974 0.1282 0.9999
C1_44 C 0.4391(6) 0.5977(4) 0.5369(8)
H1_44 H 0.4597 0.6047 0.5165
H2_44 H 0.4476 0.6080 0.5634
H3_44 H 0.4360 0.5682 0.5382
C2_44 C 0.3609(5) 0.5904(4) 0.5237(4)
H4_44 H 0.3618 0.5702 0.5454
H5_44 H 0.3370 0.6077 0.5272
H6_44 H 0.3594 0.5767 0.4974
N1_44 N 0.3993(7) 0.6166(3) 0.5253(3)
H7_44 H 0.3945 0.6375 0.5432
H8_44 H 0.4026 0.6282 0.5001
C1_45 C 0.9023(4) 0.4631(8) 0.9391(6)
H1_45 H 0.8953 0.4835 0.9597
H2_45 H 0.8920 0.4366 0.9476
H3_45 H 0.9318 0.4618 0.9360
C2_45 C 0.9096(4) 0.4763(4) 0.8609(5)
H4_45 H 0.9298 0.4546 0.8618
H5_45 H 0.8923 0.4728 0.8370
H6_45 H 0.9233 0.5026 0.8594
N1_45 N 0.8834(3) 0.4747(3) 0.8993(7)
H7_45 H 0.8625 0.4568 0.8945
H8_45 H 0.8718 0.4999 0.9026
C1_46 C 0.4023(4) 0.0369(8) 0.0609(6)
H1_46 H 0.3953 0.0165 0.0403
H2_46 H 0.3920 0.0634 0.0524
H3_46 H 0.4318 0.0382 0.0640
C2_46 C 0.4096(4) 0.0237(4) 0.1391(5)
H4_46 H 0.4298 0.0454 0.1382
H5_46 H 0.3923 0.0272 0.1630
N1_46 N 0.3834(3) 0.0253(3) 0.1007(7)
H7_46 H 0.3625 0.0432 0.1055
H8_46 H 0.3718 0.0001 0.0974
H6_46 H 0.4233 0.9974 0.1406
H6_47 H 0.0767 0.0026 0.6406
C1_47 C 0.0977(4) 0.9631(8) 0.5609(6)
H1_47 H 0.1047 0.9835 0.5403
H2_47 H 0.1080 0.9366 0.5524
H3_47 H 0.0682 0.9618 0.5640
C2_47 C 0.0904(4) 0.9763(4) 0.6391(5)
H4_47 H 0.0702 0.9546 0.6382
H5_47 H 0.1077 0.9728 0.6630
N1_47 N 0.1166(3) 0.9747(3) 0.6007(7)
H7_47 H 0.1375 0.9568 0.6055
H8_47 H 0.1282 0.9999 0.5974
C1_48 C 0.5977(4) 0.5369(8) 0.4391(6)
H1_48 H 0.6047 0.5165 0.4597
H2_48 H 0.6080 0.5634 0.4476
H3_48 H 0.5682 0.5382 0.4360
C2_48 C 0.5904(4) 0.5237(4) 0.3609(5)
H4_48 H 0.5702 0.5454 0.3618
H5_48 H 0.6077 0.5272 0.3370
H6_48 H 0.5767 0.4974 0.3594
N1_48 N 0.6166(3) 0.5253(3) 0.3993(7)
H7_48 H 0.6375 0.5432 0.3945
H8_48 H 0.6282 0.5001 0.4026
C3 C 0.1184(4) 0.6497(3) 0.0757(3)
C4 C 0.1010(3) 0.6185(2) 0.0471(2)
C5 C 0.0897(3) 0.6169(3) 0.0070(3)
C7 C 0.0847(3) 0.5596(3) 0.0329(3)
C8 C 0.0760(3) 0.5157(3) 0.0383(4)
C9 C 0.1931(3) 0.5339(3) 0.1160(4)
C10 C 0.1640(2) 0.5011(2) 0.1310(3)
C11 C 0.1669(2) 0.4602(3) 0.1393(3)
C12 C 0.1980(4) 0.4279(3) 0.1319(4)
C13 C 0.1090(2) 0.4811(3) 0.1543(2)
C14 C 0.0655(3) 0.4796(3) 0.1680(3)
F1 F 0.0581(2) 0.49834(15) 0.0080(2)
F2 F 0.1076(3) 0.49571(18) 0.0492(3)
F3 F 0.0537(3) 0.50657(18) 0.0694(2)
F4 F 0.0615(2) 0.4667(3) 0.2031(2)
F5 F 0.0444(2) 0.4548(3) 0.1465(3)
F6 F 0.0470(2) 0.5136(3) 0.1606(3)
Mn1 Mn 0.11722(4) 0.57911(4) 0.12967(4)
Mn3 Mn 0.10248(9) 0.72850(5) 0.01999(6)
N2 N 0.0970(2) 0.5808(2) 0.0633(2)
N4 N 0.12690(19) 0.5141(2) 0.14031(17)
N5 N 0.1309(2) 0.4456(2) 0.1532(2)
O1 O 0.1283(3) 0.6410(2) 0.10942(19)
O2 O 0.1155(4) 0.6885(2) 0.0639(3)
O5 O 0.17887(17) 0.56796(17) 0.1139(2)
O6 O 0.2299(2) 0.5247(2) 0.1092(4)
O7 O 0.2283(3) 0.4353(3) 0.1107(4)
O8 O 0.19253(19) 0.39578(18) 0.1501(2)
Mn9 Mn 0.13278(4) 0.37967(4) 0.17089(4)
Mn13 Mn 0.27150(5) 0.48001(6) 0.10248(9)
N15 N 0.1191(2) 0.5968(2) 0.1956(2)
O29 O 0.1107(4) 0.7717(3) 0.0647(3)
O32 O 0.05747(19) 0.5999(2) 0.14578(18)
C6 C 0.0894(3) 0.6480(2) 0.9726(3)
Mn2 Mn 0.06778(4) 0.56778(4) 0.93222(4)
N3 N 0.08009(19) 0.57749(18) 0.9968(2)
O3 O 0.0943(3) 0.6832(2) 0.9794(2)
O4 O 0.0795(2) 0.63293(16) 0.93844(19)
C18 C 0.0274(3) 0.5894(3) 0.8520(2)
N7 N 0.0032(2) 0.58009(19) 0.92251(18)
O11 O 0.0206(2) 0.5943(3) 0.8168(2)
O12 O 0.06156(19) 0.5795(2) 0.86707(16)
C27 C 0.1497(3) 0.4243(3) 0.8816(4)
C28 C 0.1185(2) 0.4529(2) 0.8990(3)
C29 C 0.1169(3) 0.4930(3) 0.9103(3)
C30 C 0.1480(2) 0.5274(3) 0.9106(3)
C31 C 0.0596(3) 0.4671(3) 0.9153(3)
C32 C 0.0157(3) 0.4617(4) 0.9240(3)
C33 C 0.0339(3) 0.3840(4) 0.8069(3)
C34 C 0.0011(2) 0.3690(3) 0.8360(2)
F15 F 0.00657(18) 0.4306(2) 0.9463(3)
F18 F 0.0136(3) 0.3394(3) 0.9530(2)
Mn6 Mn 0.07911(4) 0.37033(4) 0.88278(4)
Mn7 Mn 0.22850(5) 0.48001(6) 0.89752(9)
N10 N 0.0808(2) 0.4367(2) 0.9030(2)
N11 N 0.07749(18) 0.5032(2) 0.91991(19)
N12 N 0.0141(2) 0.35969(17) 0.87310(19)
O17 O 0.1410(2) 0.39058(19) 0.8717(3)
O18 O 0.1885(2) 0.4361(3) 0.8845(4)
O19 O 0.1832(2) 0.5206(2) 0.9057(3)
O20 O 0.13293(16) 0.56156(19) 0.9205(2)
O21 O 0.06796(17) 0.3861(2) 0.82113(17)
O22 O 0.0247(2) 0.3908(4) 0.7701(2)
N16 N 0.0968(2) 0.3044(2) 0.8809(2)
O25 O 0.2701(2) 0.5247(2) 0.8908(4)
O26 O 0.1092(4) 0.7701(2) 0.9753(2)
O27 O 0.0247(2) 0.6092(4) 0.7299(2)
O28 O 0.2717(3) 0.4353(3) 0.8893(4)
O33 O 0.0999(2) 0.35422(18) 0.94253(19)
C23 C 0.8607(3) 0.6669(2) 0.0398(3)
C24 C 0.8681(4) 0.6980(4) 0.0721(3)
C25 C 0.8457(2) 0.6090(2) 0.0189(3)
C26 C 0.8320(3) 0.5655(3) 0.0204(3)
F7 F 0.9920(2) 0.5581(2) 0.00166(15)
F8 F 0.9508(3) 0.6076(3) 0.00429(18)
F10 F 0.7969(2) 0.5615(2) 0.0333(3)
F11 F 0.8535(3) 0.5444(2) 0.0452(3)
N9 N 0.8468(2) 0.6309(2) 0.0544(2)
O15 O 0.8893(4) 0.7283(3) 0.0647(3)
O16 O 0.8499(2) 0.69253(19) 0.10422(18)
Mn8 Mn 0.82911(4) 0.63278(4) 0.12033(4)
Mn11 Mn 0.89752(9) 0.77150(5) 0.01999(6)
C15 C 0.9243(3) 0.6184(4) 0.8503(3)
C16 C 0.9529(2) 0.6010(3) 0.8815(2)
C17 C 0.9930(3) 0.5897(3) 0.8831(3)
C19 C 0.9671(3) 0.5847(3) 0.9404(3)
C20 C 0.9617(4) 0.5760(3) 0.9843(3)
C21 C 0.8840(4) 0.6931(3) 0.9661(3)
C22 C 0.8690(3) 0.6640(2) 0.9989(2)
F9 F 0.9306(2) 0.5537(3) 0.99343(18)
F12 F 0.8394(3) 0.5470(2) 0.9864(3)
Mn4 Mn 0.87033(4) 0.61722(4) 0.92089(4)
Mn5 Mn 0.98001(6) 0.60248(9) 0.77150(5)
N6 N 0.9367(2) 0.5970(2) 0.9192(2)
N8 N 0.85969(17) 0.62690(19) 0.9859(2)
O9 O 0.89058(19) 0.6283(3) 0.8590(2)
O10 O 0.9361(3) 0.6155(4) 0.8115(2)
O13 O 0.8861(2) 0.67887(17) 0.93204(17)
O14 O 0.8908(4) 0.7299(2) 0.9753(2)
C35 C 0.9602(3) 0.3607(3) 0.8331(2)
C36 C 0.9279(3) 0.3681(4) 0.8020(4)
C37 C 0.9811(3) 0.3457(2) 0.8910(2)
C38 C 0.9796(3) 0.3320(3) 0.9345(3)
F13 F 0.99834(15) 0.4920(2) 0.9419(2)
F14 F 0.99571(18) 0.4508(3) 0.8924(3)
F16 F 0.9667(3) 0.2969(2) 0.9385(2)
F17 F 0.9548(3) 0.3535(3) 0.9556(2)
N13 N 0.9456(2) 0.3468(2) 0.8691(2)
O23 O 0.9353(3) 0.3893(4) 0.7717(3)
O24 O 0.89578(18) 0.3499(2) 0.80747(19)
Mn10 Mn 0.87967(4) 0.32911(4) 0.86722(4)
Mn12 Mn 0.98001(6) 0.39752(9) 0.72850(5)
N14 N 0.8044(2) 0.6191(2) 0.9032(2)
O30 O 0.9353(3) 0.6107(4) 0.7283(3)
O31 O 0.85422(18) 0.55747(19) 0.9001(2)
C3_2 C 0.3816(4) 0.3503(3) 0.5757(3)
C4_2 C 0.3990(3) 0.3815(2) 0.5471(2)
C5_2 C 0.4103(3) 0.3831(3) 0.5070(3)
C6_2 C 0.4106(3) 0.3520(2) 0.4726(3)
C7_2 C 0.4153(3) 0.4404(3) 0.5329(3)
C8_2 C 0.4240(3) 0.4843(3) 0.5383(4)
C9_2 C 0.3069(3) 0.4661(3) 0.6160(4)
C10_2 C 0.3360(2) 0.4989(2) 0.6310(3)
C11_2 C 0.3331(2) 0.5398(3) 0.6393(3)
C12_2 C 0.3020(4) 0.5721(3) 0.6319(4)
C13_2 C 0.3910(2) 0.5189(3) 0.6543(2)
C14_2 C 0.4345(3) 0.5204(3) 0.6680(3)
F1_2 F 0.4419(2) 0.50166(15) 0.5080(2)
F2_2 F 0.3924(3) 0.50429(18) 0.5492(3)
F3_2 F 0.4463(3) 0.49343(18) 0.5694(2)
F4_2 F 0.4385(2) 0.5333(3) 0.7031(2)
F5_2 F 0.4556(2) 0.5452(3) 0.6465(3)
F6_2 F 0.4530(2) 0.4864(3) 0.6606(3)
Mn1_2 Mn 0.38278(4) 0.42089(4) 0.62967(4)
Mn2_2 Mn 0.43222(4) 0.43222(4) 0.43222(4)
Mn3_2 Mn 0.39752(9) 0.27150(5) 0.51999(6)
N2_2 N 0.4030(2) 0.4192(2) 0.5633(2)
N3_2 N 0.41991(19) 0.42251(18) 0.4968(2)
N4_2 N 0.37310(19) 0.4859(2) 0.64031(17)
N5_2 N 0.3691(2) 0.5544(2) 0.6532(2)
O1_2 O 0.3717(3) 0.3590(2) 0.60942(19)
O2_2 O 0.3845(4) 0.3115(2) 0.5639(3)
O3_2 O 0.4057(3) 0.3168(2) 0.4794(2)
O4_2 O 0.4205(2) 0.36707(16) 0.43844(19)
O5_2 O 0.32113(17) 0.43204(17) 0.6139(2)
O6_2 O 0.2701(2) 0.4753(2) 0.6092(4)
O7_2 O 0.2717(3) 0.5647(3) 0.6107(4)
O8_2 O 0.30747(19) 0.60422(18) 0.6501(2)
C15_2 C 0.5757(3) 0.3816(4) 0.3503(3)
C16_2 C 0.5471(2) 0.3990(3) 0.3815(2)
C17_2 C 0.5070(3) 0.4103(3) 0.3831(3)
C18_2 C 0.4726(3) 0.4106(3) 0.3520(2)
C19_2 C 0.5329(3) 0.4153(3) 0.4404(3)
C20_2 C 0.5383(4) 0.4240(3) 0.4843(3)
C21_2 C 0.6160(4) 0.3069(3) 0.4661(3)
C22_2 C 0.6310(3) 0.3360(2) 0.4989(2)
C23_2 C 0.6393(3) 0.3331(2) 0.5398(3)
C24_2 C 0.6319(4) 0.3020(4) 0.5721(3)
C25_2 C 0.6543(2) 0.3910(2) 0.5189(3)
C26_2 C 0.6680(3) 0.4345(3) 0.5204(3)
F7_2 F 0.5080(2) 0.4419(2) 0.50166(15)
F8_2 F 0.5492(3) 0.3924(3) 0.50429(18)
F9_2 F 0.5694(2) 0.4463(3) 0.49343(18)
F10_2 F 0.7031(2) 0.4385(2) 0.5333(3)
F11_2 F 0.6465(3) 0.4556(2) 0.5452(3)
F12_2 F 0.6606(3) 0.4530(2) 0.4864(3)
Mn4_2 Mn 0.62967(4) 0.38278(4) 0.42089(4)
Mn5_2 Mn 0.51999(6) 0.39752(9) 0.27150(5)
N6_2 N 0.5633(2) 0.4030(2) 0.4192(2)
N7_2 N 0.4968(2) 0.41991(19) 0.42251(18)
N8_2 N 0.64031(17) 0.37310(19) 0.4859(2)
N9_2 N 0.6532(2) 0.3691(2) 0.5544(2)
O9_2 O 0.60942(19) 0.3717(3) 0.3590(2)
O10_2 O 0.5639(3) 0.3845(4) 0.3115(2)
O11_2 O 0.4794(2) 0.4057(3) 0.3168(2)
O12_2 O 0.43844(19) 0.4205(2) 0.36707(16)
O13_2 O 0.6139(2) 0.32113(17) 0.43204(17)
O14_2 O 0.6092(4) 0.2701(2) 0.4753(2)
O15_2 O 0.6107(4) 0.2717(3) 0.5647(3)
O16_2 O 0.6501(2) 0.30747(19) 0.60422(18)
C27_2 C 0.3503(3) 0.5757(3) 0.3816(4)
C28_2 C 0.3815(2) 0.5471(2) 0.3990(3)
C29_2 C 0.3831(3) 0.5070(3) 0.4103(3)
C30_2 C 0.3520(2) 0.4726(3) 0.4106(3)
C31_2 C 0.4404(3) 0.5329(3) 0.4153(3)
C32_2 C 0.4843(3) 0.5383(4) 0.4240(3)
C33_2 C 0.4661(3) 0.6160(4) 0.3069(3)
C34_2 C 0.4989(2) 0.6310(3) 0.3360(2)
C35_2 C 0.5398(3) 0.6393(3) 0.3331(2)
C36_2 C 0.5721(3) 0.6319(4) 0.3020(4)
C37_2 C 0.5189(3) 0.6543(2) 0.3910(2)
C38_2 C 0.5204(3) 0.6680(3) 0.4345(3)
F13_2 F 0.50166(15) 0.5080(2) 0.4419(2)
F14_2 F 0.50429(18) 0.5492(3) 0.3924(3)
F15_2 F 0.49343(18) 0.5694(2) 0.4463(3)
F16_2 F 0.5333(3) 0.7031(2) 0.4385(2)
F17_2 F 0.5452(3) 0.6465(3) 0.4556(2)
F18_2 F 0.4864(3) 0.6606(3) 0.4530(2)
Mn6_2 Mn 0.42089(4) 0.62967(4) 0.38278(4)
Mn7_2 Mn 0.27150(5) 0.51999(6) 0.39752(9)
N10_2 N 0.4192(2) 0.5633(2) 0.4030(2)
N11_2 N 0.42251(18) 0.4968(2) 0.41991(19)
N12_2 N 0.4859(2) 0.64031(17) 0.37310(19)
N13_2 N 0.5544(2) 0.6532(2) 0.3691(2)
O17_2 O 0.3590(2) 0.60942(19) 0.3717(3)
O18_2 O 0.3115(2) 0.5639(3) 0.3845(4)
O19_2 O 0.3168(2) 0.4794(2) 0.4057(3)
O20_2 O 0.36707(16) 0.43844(19) 0.4205(2)
O21_2 O 0.43204(17) 0.6139(2) 0.32113(17)
O22_2 O 0.4753(2) 0.6092(4) 0.2701(2)
O23_2 O 0.5647(3) 0.6107(4) 0.2717(3)
O24_2 O 0.60422(18) 0.6501(2) 0.30747(19)
Mn8_2 Mn 0.67089(4) 0.36722(4) 0.62033(4)
Mn9_2 Mn 0.36722(4) 0.62033(4) 0.67089(4)
Mn10_2 Mn 0.62033(4) 0.67089(4) 0.36722(4)
Mn11_2 Mn 0.60248(9) 0.22850(5) 0.51999(6)
Mn12_2 Mn 0.51999(6) 0.60248(9) 0.22850(5)
Mn13_2 Mn 0.22850(5) 0.51999(6) 0.60248(9)
N14_2 N 0.6956(2) 0.3809(2) 0.4032(2)
N15_2 N 0.3809(2) 0.4032(2) 0.6956(2)
N16_2 N 0.4032(2) 0.6956(2) 0.3809(2)
O25_2 O 0.2299(2) 0.4753(2) 0.3908(4)
O26_2 O 0.3908(4) 0.2299(2) 0.4753(2)
O27_2 O 0.4753(2) 0.3908(4) 0.2299(2)
O28_2 O 0.2283(3) 0.5647(3) 0.3893(4)
O29_2 O 0.3893(4) 0.2283(3) 0.5647(3)
O30_2 O 0.5647(3) 0.3893(4) 0.2283(3)
O31_2 O 0.64578(18) 0.44253(19) 0.4001(2)
O32_2 O 0.44253(19) 0.4001(2) 0.64578(18)
O33_2 O 0.4001(2) 0.64578(18) 0.44253(19)
C15_3 C 0.0757(3) 0.1184(4) 0.6497(3)
C16_3 C 0.0471(2) 0.1010(3) 0.6185(2)
C17_3 C 0.0070(3) 0.0897(3) 0.6169(3)
C19_3 C 0.0329(3) 0.0847(3) 0.5596(3)
C20_3 C 0.0383(4) 0.0760(3) 0.5157(3)
C21_3 C 0.1160(4) 0.1931(3) 0.5339(3)
C22_3 C 0.1310(3) 0.1640(2) 0.5011(2)
C23_3 C 0.1393(3) 0.1669(2) 0.4602(3)
C24_3 C 0.1319(4) 0.1980(4) 0.4279(3)
C25_3 C 0.1543(2) 0.1090(2) 0.4811(3)
C26_3 C 0.1680(3) 0.0655(3) 0.4796(3)
F7_3 F 0.0080(2) 0.0581(2) 0.49834(15)
F8_3 F 0.0492(3) 0.1076(3) 0.49571(18)
F9_3 F 0.0694(2) 0.0537(3) 0.50657(18)
F10_3 F 0.2031(2) 0.0615(2) 0.4667(3)
F11_3 F 0.1465(3) 0.0444(2) 0.4548(3)
F12_3 F 0.1606(3) 0.0470(2) 0.5136(3)
Mn4_3 Mn 0.12967(4) 0.11722(4) 0.57911(4)
Mn5_3 Mn 0.01999(6) 0.10248(9) 0.72850(5)
N6_3 N 0.0633(2) 0.0970(2) 0.5808(2)
N8_3 N 0.14031(17) 0.12690(19) 0.5141(2)
N9_3 N 0.1532(2) 0.1309(2) 0.4456(2)
O9_3 O 0.10942(19) 0.1283(3) 0.6410(2)
O10_3 O 0.0639(3) 0.1155(4) 0.6885(2)
O13_3 O 0.1139(2) 0.17887(17) 0.56796(17)
O14_3 O 0.1092(4) 0.2299(2) 0.5247(2)
O15_3 O 0.1107(4) 0.2283(3) 0.4353(3)
O16_3 O 0.1501(2) 0.19253(19) 0.39578(18)
Mn8_3 Mn 0.17089(4) 0.13278(4) 0.37967(4)
Mn11_3 Mn 0.10248(9) 0.27150(5) 0.48001(6)
N14_3 N 0.1956(2) 0.1191(2) 0.5968(2)
O30_3 O 0.0647(3) 0.1107(4) 0.7717(3)
O31_3 O 0.14578(18) 0.05747(19) 0.5999(2)
C35_3 C 0.0398(3) 0.8607(3) 0.6669(2)
C36_3 C 0.0721(3) 0.8681(4) 0.6980(4)
C37_3 C 0.0189(3) 0.8457(2) 0.6090(2)
C38_3 C 0.0204(3) 0.8320(3) 0.5655(3)
F13_3 F 0.00166(15) 0.9920(2) 0.5581(2)
F14_3 F 0.00429(18) 0.9508(3) 0.6076(3)
F16_3 F 0.0333(3) 0.7969(2) 0.5615(2)
F17_3 F 0.0452(3) 0.8535(3) 0.5444(2)
N13_3 N 0.0544(2) 0.8468(2) 0.6309(2)
O23_3 O 0.0647(3) 0.8893(4) 0.7283(3)
O24_3 O 0.10422(18) 0.8499(2) 0.69253(19)
Mn10_3 Mn 0.12033(4) 0.82911(4) 0.63278(4)
Mn12_3 Mn 0.01999(6) 0.89752(9) 0.77150(5)
C3_3 C 0.8816(4) 0.1497(3) 0.4243(3)
C4_3 C 0.8990(3) 0.1185(2) 0.4529(2)
C5_3 C 0.9103(3) 0.1169(3) 0.4930(3)
C6_3 C 0.9106(3) 0.1480(2) 0.5274(3)
C7_3 C 0.9153(3) 0.0596(3) 0.4671(3)
C8_3 C 0.9240(3) 0.0157(3) 0.4617(4)
C9_3 C 0.8069(3) 0.0339(3) 0.3840(4)
C10_3 C 0.8360(2) 0.0011(2) 0.3690(3)
F3_3 F 0.9463(3) 0.00657(18) 0.4306(2)
F6_3 F 0.9530(2) 0.0136(3) 0.3394(3)
Mn1_3 Mn 0.88278(4) 0.07911(4) 0.37033(4)
Mn2_3 Mn 0.93222(4) 0.06778(4) 0.56778(4)
Mn3_3 Mn 0.89752(9) 0.22850(5) 0.48001(6)
N2_3 N 0.9030(2) 0.0808(2) 0.4367(2)
N3_3 N 0.91991(19) 0.07749(18) 0.5032(2)
N4_3 N 0.87310(19) 0.0141(2) 0.35969(17)
O1_3 O 0.8717(3) 0.1410(2) 0.39058(19)
O2_3 O 0.8845(4) 0.1885(2) 0.4361(3)
O3_3 O 0.9057(3) 0.1832(2) 0.5206(2)
O4_3 O 0.9205(2) 0.13293(16) 0.56156(19)
O5_3 O 0.82113(17) 0.06796(17) 0.3861(2)
O6_3 O 0.7701(2) 0.0247(2) 0.3908(4)
C18_3 C 0.9726(3) 0.0894(3) 0.6480(2)
N7_3 N 0.9968(2) 0.08009(19) 0.57749(18)
O11_3 O 0.9794(2) 0.0943(3) 0.6832(2)
O12_3 O 0.93844(19) 0.0795(2) 0.63293(16)
C30_3 C 0.8520(2) 0.0274(3) 0.5894(3)
N11_3 N 0.92251(18) 0.0032(2) 0.58009(19)
O19_3 O 0.8168(2) 0.0206(2) 0.5943(3)
O20_3 O 0.86707(16) 0.06156(19) 0.5795(2)
N15_3 N 0.8809(2) 0.0968(2) 0.3044(2)
O25_3 O 0.7299(2) 0.0247(2) 0.6092(4)
O26_3 O 0.8908(4) 0.2701(2) 0.5247(2)
O27_3 O 0.9753(2) 0.1092(4) 0.7701(2)
O29_3 O 0.8893(4) 0.2717(3) 0.4353(3)
O32_3 O 0.94253(19) 0.0999(2) 0.35422(18)
C11_3 C 0.8331(2) 0.9602(3) 0.3607(3)
C12_3 C 0.8020(4) 0.9279(3) 0.3681(4)
C13_3 C 0.8910(2) 0.9811(3) 0.3457(2)
C14_3 C 0.9345(3) 0.9796(3) 0.3320(3)
F1_3 F 0.9419(2) 0.99834(15) 0.4920(2)
F2_3 F 0.8924(3) 0.99571(18) 0.4508(3)
F4_3 F 0.9385(2) 0.9667(3) 0.2969(2)
F5_3 F 0.9556(2) 0.9548(3) 0.3535(3)
N5_3 N 0.8691(2) 0.9456(2) 0.3468(2)
O7_3 O 0.7717(3) 0.9353(3) 0.3893(4)
O8_3 O 0.80747(19) 0.89578(18) 0.3499(2)
C27_3 C 0.8503(3) 0.9243(3) 0.6184(4)
C28_3 C 0.8815(2) 0.9529(2) 0.6010(3)
C29_3 C 0.8831(3) 0.9930(3) 0.5897(3)
C31_3 C 0.9404(3) 0.9671(3) 0.5847(3)
C32_3 C 0.9843(3) 0.9617(4) 0.5760(3)
C33_3 C 0.9661(3) 0.8840(4) 0.6931(3)
C34_3 C 0.9989(2) 0.8690(3) 0.6640(2)
F15_3 F 0.99343(18) 0.9306(2) 0.5537(3)
F18_3 F 0.9864(3) 0.8394(3) 0.5470(2)
Mn6_3 Mn 0.92089(4) 0.87033(4) 0.61722(4)
Mn7_3 Mn 0.77150(5) 0.98001(6) 0.60248(9)
N10_3 N 0.9192(2) 0.9367(2) 0.5970(2)
N12_3 N 0.9859(2) 0.85969(17) 0.62690(19)
O17_3 O 0.8590(2) 0.89058(19) 0.6283(3)
O18_3 O 0.8115(2) 0.9361(3) 0.6155(4)
O21_3 O 0.93204(17) 0.8861(2) 0.67887(17)
O22_3 O 0.9753(2) 0.8908(4) 0.7299(2)
Mn9_3 Mn 0.86722(4) 0.87967(4) 0.32911(4)
Mn13_3 Mn 0.72850(5) 0.98001(6) 0.39752(9)
N16_3 N 0.9032(2) 0.8044(2) 0.6191(2)
O28_3 O 0.7283(3) 0.9353(3) 0.6107(4)
O33_3 O 0.9001(2) 0.85422(18) 0.55747(19)
C27_4 C 0.6497(3) 0.0757(3) 0.1184(4)
C28_4 C 0.6185(2) 0.0471(2) 0.1010(3)
C29_4 C 0.6169(3) 0.0070(3) 0.0897(3)
C31_4 C 0.5596(3) 0.0329(3) 0.0847(3)
C32_4 C 0.5157(3) 0.0383(4) 0.0760(3)
C33_4 C 0.5339(3) 0.1160(4) 0.1931(3)
C34_4 C 0.5011(2) 0.1310(3) 0.1640(2)
C35_4 C 0.4602(3) 0.1393(3) 0.1669(2)
C36_4 C 0.4279(3) 0.1319(4) 0.1980(4)
C37_4 C 0.4811(3) 0.1543(2) 0.1090(2)
C38_4 C 0.4796(3) 0.1680(3) 0.0655(3)
F13_4 F 0.49834(15) 0.0080(2) 0.0581(2)
F14_4 F 0.49571(18) 0.0492(3) 0.1076(3)
F15_4 F 0.50657(18) 0.0694(2) 0.0537(3)
F16_4 F 0.4667(3) 0.2031(2) 0.0615(2)
F17_4 F 0.4548(3) 0.1465(3) 0.0444(2)
F18_4 F 0.5136(3) 0.1606(3) 0.0470(2)
Mn6_4 Mn 0.57911(4) 0.12967(4) 0.11722(4)
Mn7_4 Mn 0.72850(5) 0.01999(6) 0.10248(9)
N10_4 N 0.5808(2) 0.0633(2) 0.0970(2)
N12_4 N 0.5141(2) 0.14031(17) 0.12690(19)
N13_4 N 0.4456(2) 0.1532(2) 0.1309(2)
O17_4 O 0.6410(2) 0.10942(19) 0.1283(3)
O18_4 O 0.6885(2) 0.0639(3) 0.1155(4)
O21_4 O 0.56796(17) 0.1139(2) 0.17887(17)
O22_4 O 0.5247(2) 0.1092(4) 0.2299(2)
O23_4 O 0.4353(3) 0.1107(4) 0.2283(3)
O24_4 O 0.39578(18) 0.1501(2) 0.19253(19)
Mn10_4 Mn 0.37967(4) 0.17089(4) 0.13278(4)
Mn12_4 Mn 0.48001(6) 0.10248(9) 0.27150(5)
N16_4 N 0.5968(2) 0.1956(2) 0.1191(2)
O28_4 O 0.7717(3) 0.0647(3) 0.1107(4)
O33_4 O 0.5999(2) 0.14578(18) 0.05747(19)
C11_4 C 0.6669(2) 0.0398(3) 0.8607(3)
C12_4 C 0.6980(4) 0.0721(3) 0.8681(4)
C13_4 C 0.6090(2) 0.0189(3) 0.8457(2)
C14_4 C 0.5655(3) 0.0204(3) 0.8320(3)
F1_4 F 0.5581(2) 0.00166(15) 0.9920(2)
F2_4 F 0.6076(3) 0.00429(18) 0.9508(3)
F4_4 F 0.5615(2) 0.0333(3) 0.7969(2)
F5_4 F 0.5444(2) 0.0452(3) 0.8535(3)
N5_4 N 0.6309(2) 0.0544(2) 0.8468(2)
O7_4 O 0.7283(3) 0.0647(3) 0.8893(4)
O8_4 O 0.69253(19) 0.10422(18) 0.8499(2)
Mn9_4 Mn 0.63278(4) 0.12033(4) 0.82911(4)
Mn13_4 Mn 0.77150(5) 0.01999(6) 0.89752(9)
C6_4 C 0.5894(3) 0.8520(2) 0.0274(3)
Mn2_4 Mn 0.56778(4) 0.93222(4) 0.06778(4)
N3_4 N 0.58009(19) 0.92251(18) 0.0032(2)
O3_4 O 0.5943(3) 0.8168(2) 0.0206(2)
O4_4 O 0.5795(2) 0.86707(16) 0.06156(19)
C15_4 C 0.4243(3) 0.8816(4) 0.1497(3)
C16_4 C 0.4529(2) 0.8990(3) 0.1185(2)
C17_4 C 0.4930(3) 0.9103(3) 0.1169(3)
C18_4 C 0.5274(3) 0.9106(3) 0.1480(2)
C19_4 C 0.4671(3) 0.9153(3) 0.0596(3)
C20_4 C 0.4617(4) 0.9240(3) 0.0157(3)
C21_4 C 0.3840(4) 0.8069(3) 0.0339(3)
C22_4 C 0.3690(3) 0.8360(2) 0.0011(2)
F9_4 F 0.4306(2) 0.9463(3) 0.00657(18)
F12_4 F 0.3394(3) 0.9530(2) 0.0136(3)
Mn4_4 Mn 0.37033(4) 0.88278(4) 0.07911(4)
Mn5_4 Mn 0.48001(6) 0.89752(9) 0.22850(5)
N6_4 N 0.4367(2) 0.9030(2) 0.0808(2)
N7_4 N 0.5032(2) 0.91991(19) 0.07749(18)
N8_4 N 0.35969(17) 0.87310(19) 0.0141(2)
O9_4 O 0.39058(19) 0.8717(3) 0.1410(2)
O10_4 O 0.4361(3) 0.8845(4) 0.1885(2)
O11_4 O 0.5206(2) 0.9057(3) 0.1832(2)
O12_4 O 0.56156(19) 0.9205(2) 0.13293(16)
O13_4 O 0.3861(2) 0.82113(17) 0.06796(17)
O14_4 O 0.3908(4) 0.7701(2) 0.0247(2)
C30_4 C 0.6480(2) 0.9726(3) 0.0894(3)
N11_4 N 0.57749(18) 0.9968(2) 0.08009(19)
O19_4 O 0.6832(2) 0.9794(2) 0.0943(3)
O20_4 O 0.63293(16) 0.93844(19) 0.0795(2)
N14_4 N 0.3044(2) 0.8809(2) 0.0968(2)
O25_4 O 0.7701(2) 0.9753(2) 0.1092(4)
O26_4 O 0.6092(4) 0.7299(2) 0.0247(2)
O27_4 O 0.5247(2) 0.8908(4) 0.2701(2)
O30_4 O 0.4353(3) 0.8893(4) 0.2717(3)
O31_4 O 0.35422(18) 0.94253(19) 0.0999(2)
C3_4 C 0.6184(4) 0.8503(3) 0.9243(3)
C4_4 C 0.6010(3) 0.8815(2) 0.9529(2)
C5_4 C 0.5897(3) 0.8831(3) 0.9930(3)
C7_4 C 0.5847(3) 0.9404(3) 0.9671(3)
C8_4 C 0.5760(3) 0.9843(3) 0.9617(4)
C9_4 C 0.6931(3) 0.9661(3) 0.8840(4)
C10_4 C 0.6640(2) 0.9989(2) 0.8690(3)
F3_4 F 0.5537(3) 0.99343(18) 0.9306(2)
F6_4 F 0.5470(2) 0.9864(3) 0.8394(3)
Mn1_4 Mn 0.61722(4) 0.92089(4) 0.87033(4)
Mn3_4 Mn 0.60248(9) 0.77150(5) 0.98001(6)
N2_4 N 0.5970(2) 0.9192(2) 0.9367(2)
N4_4 N 0.62690(19) 0.9859(2) 0.85969(17)
O1_4 O 0.6283(3) 0.8590(2) 0.89058(19)
O2_4 O 0.6155(4) 0.8115(2) 0.9361(3)
O5_4 O 0.67887(17) 0.93204(17) 0.8861(2)
O6_4 O 0.7299(2) 0.9753(2) 0.8908(4)
C23_4 C 0.3607(3) 0.8331(2) 0.9602(3)
C24_4 C 0.3681(4) 0.8020(4) 0.9279(3)
C25_4 C 0.3457(2) 0.8910(2) 0.9811(3)
C26_4 C 0.3320(3) 0.9345(3) 0.9796(3)
F7_4 F 0.4920(2) 0.9419(2) 0.99834(15)
F8_4 F 0.4508(3) 0.8924(3) 0.99571(18)
F10_4 F 0.2969(2) 0.9385(2) 0.9667(3)
F11_4 F 0.3535(3) 0.9556(2) 0.9548(3)
N9_4 N 0.3468(2) 0.8691(2) 0.9456(2)
O15_4 O 0.3893(4) 0.7717(3) 0.9353(3)
O16_4 O 0.3499(2) 0.80747(19) 0.89578(18)
Mn8_4 Mn 0.32911(4) 0.86722(4) 0.87967(4)
Mn11_4 Mn 0.39752(9) 0.72850(5) 0.98001(6)
N15_4 N 0.6191(2) 0.9032(2) 0.8044(2)
O29_4 O 0.6107(4) 0.7283(3) 0.9353(3)
O32_4 O 0.55747(19) 0.9001(2) 0.85422(18)
Mn11_5 Mn 0.02150(5) 0.14752(9) 0.26999(6)
O26_5 O 0.0201(2) 0.3592(4) 0.2253(2)
O29_5 O 0.0217(3) 0.3607(4) 0.3147(3)
C3_5 C 0.8997(3) 0.3684(4) 0.3257(3)
C4_5 C 0.8685(2) 0.3510(3) 0.2971(2)
C5_5 C 0.8669(3) 0.3397(3) 0.2570(3)
C6_5 C 0.8980(2) 0.3394(3) 0.2226(3)
C7_5 C 0.8096(3) 0.3347(3) 0.2829(3)
C8_5 C 0.7657(3) 0.3260(3) 0.2883(4)
C9_5 C 0.7839(3) 0.4431(3) 0.3660(4)
C10_5 C 0.7511(2) 0.4140(2) 0.3810(3)
C11_5 C 0.7102(3) 0.4169(2) 0.3893(3)
C12_5 C 0.6779(3) 0.4480(4) 0.3819(4)
C13_5 C 0.7311(3) 0.3590(2) 0.4043(2)
C14_5 C 0.7296(3) 0.3155(3) 0.4180(3)
F1_5 F 0.74834(15) 0.3081(2) 0.2580(2)
F2_5 F 0.74571(18) 0.3576(3) 0.2992(3)
F3_5 F 0.75657(18) 0.3037(3) 0.3194(2)
F4_5 F 0.7167(3) 0.3115(2) 0.4531(2)
F5_5 F 0.7048(3) 0.2944(2) 0.3965(3)
F6_5 F 0.7636(3) 0.2970(2) 0.4106(3)
Mn1_5 Mn 0.82911(4) 0.36722(4) 0.37967(4)
Mn2_5 Mn 0.81778(4) 0.31778(4) 0.18222(4)
Mn3_5 Mn 0.97850(5) 0.35248(9) 0.26999(6)
N2_5 N 0.8308(2) 0.3470(2) 0.3133(2)
N3_5 N 0.82749(18) 0.33009(19) 0.2468(2)
N4_5 N 0.7641(2) 0.37690(19) 0.39031(17)
O1_5 O 0.8910(2) 0.3783(3) 0.35942(19)
O2_5 O 0.9385(2) 0.3655(4) 0.3139(3)
O3_5 O 0.9332(2) 0.3443(3) 0.2294(2)
O4_5 O 0.88293(16) 0.3295(2) 0.18844(19)
O5_5 O 0.81796(17) 0.42887(17) 0.3639(2)
O6_5 O 0.7747(2) 0.4799(2) 0.3592(4)
O7_5 O 0.6853(3) 0.4783(3) 0.3607(4)
C15_5 C 0.8684(4) 0.1743(3) 0.1003(3)
C16_5 C 0.8510(3) 0.2029(2) 0.1315(2)
C17_5 C 0.8397(3) 0.2430(3) 0.1331(3)
C18_5 C 0.8394(3) 0.2774(3) 0.1020(2)
C19_5 C 0.8347(3) 0.2171(3) 0.1904(3)
C20_5 C 0.8260(3) 0.2117(4) 0.2343(3)
C21_5 C 0.9431(3) 0.1340(4) 0.2161(3)
C22_5 C 0.9140(2) 0.1190(3) 0.2489(2)
C23_5 C 0.9169(2) 0.1107(3) 0.2898(3)
C24_5 C 0.9480(4) 0.1181(4) 0.3221(3)
C25_5 C 0.8590(2) 0.0957(2) 0.2689(3)
C26_5 C 0.8155(3) 0.0820(3) 0.2704(3)
F7_5 F 0.8081(2) 0.2420(2) 0.25166(15)
F8_5 F 0.8576(3) 0.2008(3) 0.25429(18)
F9_5 F 0.8037(3) 0.1806(2) 0.24343(18)
F10_5 F 0.8115(2) 0.0469(2) 0.2833(3)
F11_5 F 0.7944(2) 0.1035(3) 0.2952(3)
F12_5 F 0.7970(2) 0.0894(3) 0.2364(3)
Mn4_5 Mn 0.86722(4) 0.12033(4) 0.17089(4)
Mn5_5 Mn 0.85248(9) 0.23001(6) 0.02150(5)
N6_5 N 0.8470(2) 0.1867(2) 0.1692(2)
N7_5 N 0.83009(19) 0.2532(2) 0.17251(18)
N8_5 N 0.87690(19) 0.10969(17) 0.2359(2)
O9_5 O 0.8783(3) 0.14058(19) 0.1090(2)
O10_5 O 0.8655(4) 0.1861(3) 0.0615(2)
O11_5 O 0.8443(3) 0.2706(2) 0.0668(2)
O12_5 O 0.8295(2) 0.31156(19) 0.11707(16)
O13_5 O 0.92887(17) 0.1361(2) 0.18204(17)
O14_5 O 0.9799(2) 0.1408(4) 0.2253(2)
O15_5 O 0.9783(3) 0.1393(4) 0.3147(3)
C27_5 C 0.6743(3) 0.3997(3) 0.1316(4)
C28_5 C 0.7029(2) 0.3685(2) 0.1490(3)
C29_5 C 0.7430(3) 0.3669(3) 0.1603(3)
C30_5 C 0.7774(3) 0.3980(2) 0.1606(3)
C31_5 C 0.7171(3) 0.3096(3) 0.1653(3)
C32_5 C 0.7117(4) 0.2657(3) 0.1740(3)
C33_5 C 0.6340(4) 0.2839(3) 0.0569(3)
C34_5 C 0.6190(3) 0.2511(2) 0.0860(2)
C35_5 C 0.6107(3) 0.2102(3) 0.0831(2)
C36_5 C 0.6181(4) 0.1779(3) 0.0520(4)
C37_5 C 0.5957(2) 0.2311(3) 0.1410(2)
C38_5 C 0.5820(3) 0.2296(3) 0.1845(3)
F13_5 F 0.7420(2) 0.24834(15) 0.1919(2)
F14_5 F 0.7008(3) 0.24571(18) 0.1424(3)
F15_5 F 0.6806(2) 0.25657(18) 0.1963(3)
F16_5 F 0.5469(2) 0.2167(3) 0.1885(2)
F17_5 F 0.6035(3) 0.2048(3) 0.2056(2)
F18_5 F 0.5894(3) 0.2636(3) 0.2030(2)
Mn6_5 Mn 0.62033(4) 0.32911(4) 0.13278(4)
Mn7_5 Mn 0.73001(6) 0.47850(5) 0.14752(9)
N10_5 N 0.6867(2) 0.3308(2) 0.1530(2)
N11_5 N 0.7532(2) 0.32749(18) 0.16991(19)
N12_5 N 0.60969(17) 0.2641(2) 0.12310(19)
O17_5 O 0.64058(19) 0.3910(2) 0.1217(3)
O18_5 O 0.6861(3) 0.4385(2) 0.1345(4)
O19_5 O 0.7706(2) 0.4332(2) 0.1557(3)
O20_5 O 0.81156(19) 0.38293(16) 0.1705(2)
O21_5 O 0.6361(2) 0.31796(17) 0.07113(17)
O22_5 O 0.6408(4) 0.2747(2) 0.0201(2)
O23_5 O 0.6393(4) 0.1853(3) 0.0217(3)
Mn13_5 Mn 0.73001(6) 0.52150(5) 0.35248(9)
N14_5 N 0.8691(2) 0.0544(2) 0.1532(2)
N15_5 N 0.8468(2) 0.3691(2) 0.4456(2)
N16_5 N 0.5544(2) 0.3468(2) 0.1309(2)
O25_5 O 0.7747(2) 0.5201(2) 0.1408(4)
O28_5 O 0.6853(3) 0.5217(3) 0.1393(4)
O31_5 O 0.80747(19) 0.10422(18) 0.1501(2)
O32_5 O 0.8499(2) 0.30747(19) 0.39578(18)
O33_5 O 0.60422(18) 0.3499(2) 0.19253(19)
Mn12_5 Mn 0.64752(9) 0.23001(6) 0.97850(5)
O27_5 O 0.8592(4) 0.2747(2) 0.9799(2)
O30_5 O 0.8607(4) 0.1853(3) 0.9783(3)
C3_6 C 0.6003(3) 0.6316(4) 0.8257(3)
C4_6 C 0.6315(2) 0.6490(3) 0.7971(2)
C5_6 C 0.6331(3) 0.6603(3) 0.7570(3)
C6_6 C 0.6020(2) 0.6606(3) 0.7226(3)
C7_6 C 0.6904(3) 0.6653(3) 0.7829(3)
C8_6 C 0.7343(3) 0.6740(3) 0.7883(4)
C9_6 C 0.7161(3) 0.5569(3) 0.8660(4)
C10_6 C 0.7489(2) 0.5860(2) 0.8810(3)
C11_6 C 0.7898(3) 0.5831(2) 0.8893(3)
C12_6 C 0.8221(3) 0.5520(4) 0.8819(4)
C13_6 C 0.7689(3) 0.6410(2) 0.9043(2)
C14_6 C 0.7704(3) 0.6845(3) 0.9180(3)
F1_6 F 0.75166(15) 0.6919(2) 0.7580(2)
F2_6 F 0.75429(18) 0.6424(3) 0.7992(3)
F3_6 F 0.74343(18) 0.6963(3) 0.8194(2)
F4_6 F 0.7833(3) 0.6885(2) 0.9531(2)
F5_6 F 0.7952(3) 0.7056(2) 0.8965(3)
F6_6 F 0.7364(3) 0.7030(2) 0.9106(3)
Mn1_6 Mn 0.67089(4) 0.63278(4) 0.87967(4)
Mn2_6 Mn 0.68222(4) 0.68222(4) 0.68222(4)
Mn3_6 Mn 0.52150(5) 0.64752(9) 0.76999(6)
N2_6 N 0.6692(2) 0.6530(2) 0.8133(2)
N3_6 N 0.67251(18) 0.66991(19) 0.7468(2)
N4_6 N 0.7359(2) 0.62310(19) 0.89031(17)
O1_6 O 0.6090(2) 0.6217(3) 0.85942(19)
O2_6 O 0.5615(2) 0.6345(4) 0.8139(3)
O3_6 O 0.5668(2) 0.6557(3) 0.7294(2)
O4_6 O 0.61707(16) 0.6705(2) 0.68844(19)
O5_6 O 0.68204(17) 0.57113(17) 0.8639(2)
O6_6 O 0.7253(2) 0.5201(2) 0.8592(4)
O7_6 O 0.8147(3) 0.5217(3) 0.8607(4)
C15_6 C 0.6316(4) 0.8257(3) 0.6003(3)
C16_6 C 0.6490(3) 0.7971(2) 0.6315(2)
C17_6 C 0.6603(3) 0.7570(3) 0.6331(3)
C18_6 C 0.6606(3) 0.7226(3) 0.6020(2)
C19_6 C 0.6653(3) 0.7829(3) 0.6904(3)
C20_6 C 0.6740(3) 0.7883(4) 0.7343(3)
C21_6 C 0.5569(3) 0.8660(4) 0.7161(3)
C22_6 C 0.5860(2) 0.8810(3) 0.7489(2)
C23_6 C 0.5831(2) 0.8893(3) 0.7898(3)
C24_6 C 0.5520(4) 0.8819(4) 0.8221(3)
C25_6 C 0.6410(2) 0.9043(2) 0.7689(3)
C26_6 C 0.6845(3) 0.9180(3) 0.7704(3)
F7_6 F 0.6919(2) 0.7580(2) 0.75166(15)
F8_6 F 0.6424(3) 0.7992(3) 0.75429(18)
F9_6 F 0.6963(3) 0.8194(2) 0.74343(18)
F10_6 F 0.6885(2) 0.9531(2) 0.7833(3)
F11_6 F 0.7056(2) 0.8965(3) 0.7952(3)
F12_6 F 0.7030(2) 0.9106(3) 0.7364(3)
Mn4_6 Mn 0.63278(4) 0.87967(4) 0.67089(4)
Mn5_6 Mn 0.64752(9) 0.76999(6) 0.52150(5)
N6_6 N 0.6530(2) 0.8133(2) 0.6692(2)
N7_6 N 0.66991(19) 0.7468(2) 0.67251(18)
N8_6 N 0.62310(19) 0.89031(17) 0.7359(2)
O9_6 O 0.6217(3) 0.85942(19) 0.6090(2)
O10_6 O 0.6345(4) 0.8139(3) 0.5615(2)
O11_6 O 0.6557(3) 0.7294(2) 0.5668(2)
O12_6 O 0.6705(2) 0.68844(19) 0.61707(16)
O13_6 O 0.57113(17) 0.8639(2) 0.68204(17)
O14_6 O 0.5201(2) 0.8592(4) 0.7253(2)
O15_6 O 0.5217(3) 0.8607(4) 0.8147(3)
C27_6 C 0.8257(3) 0.6003(3) 0.6316(4)
C28_6 C 0.7971(2) 0.6315(2) 0.6490(3)
C29_6 C 0.7570(3) 0.6331(3) 0.6603(3)
C30_6 C 0.7226(3) 0.6020(2) 0.6606(3)
C31_6 C 0.7829(3) 0.6904(3) 0.6653(3)
C32_6 C 0.7883(4) 0.7343(3) 0.6740(3)
C33_6 C 0.8660(4) 0.7161(3) 0.5569(3)
C34_6 C 0.8810(3) 0.7489(2) 0.5860(2)
C35_6 C 0.8893(3) 0.7898(3) 0.5831(2)
C36_6 C 0.8819(4) 0.8221(3) 0.5520(4)
C37_6 C 0.9043(2) 0.7689(3) 0.6410(2)
C38_6 C 0.9180(3) 0.7704(3) 0.6845(3)
F13_6 F 0.7580(2) 0.75166(15) 0.6919(2)
F14_6 F 0.7992(3) 0.75429(18) 0.6424(3)
F15_6 F 0.8194(2) 0.74343(18) 0.6963(3)
F16_6 F 0.9531(2) 0.7833(3) 0.6885(2)
F17_6 F 0.8965(3) 0.7952(3) 0.7056(2)
F18_6 F 0.9106(3) 0.7364(3) 0.7030(2)
Mn6_6 Mn 0.87967(4) 0.67089(4) 0.63278(4)
Mn7_6 Mn 0.76999(6) 0.52150(5) 0.64752(9)
N10_6 N 0.8133(2) 0.6692(2) 0.6530(2)
N11_6 N 0.7468(2) 0.67251(18) 0.66991(19)
N12_6 N 0.89031(17) 0.7359(2) 0.62310(19)
O17_6 O 0.85942(19) 0.6090(2) 0.6217(3)
O18_6 O 0.8139(3) 0.5615(2) 0.6345(4)
O19_6 O 0.7294(2) 0.5668(2) 0.6557(3)
O20_6 O 0.68844(19) 0.61707(16) 0.6705(2)
O21_6 O 0.8639(2) 0.68204(17) 0.57113(17)
O22_6 O 0.8592(4) 0.7253(2) 0.5201(2)
O23_6 O 0.8607(4) 0.8147(3) 0.5217(3)
Mn11_6 Mn 0.47850(5) 0.85248(9) 0.76999(6)
Mn12_6 Mn 0.85248(9) 0.76999(6) 0.47850(5)
Mn13_6 Mn 0.76999(6) 0.47850(5) 0.85248(9)
N14_6 N 0.6309(2) 0.9456(2) 0.6532(2)
N15_6 N 0.6532(2) 0.6309(2) 0.9456(2)
N16_6 N 0.9456(2) 0.6532(2) 0.6309(2)
O25_6 O 0.7253(2) 0.4799(2) 0.6408(4)
O26_6 O 0.4799(2) 0.6408(4) 0.7253(2)
O27_6 O 0.6408(4) 0.7253(2) 0.4799(2)
O28_6 O 0.8147(3) 0.4783(3) 0.6393(4)
O29_6 O 0.4783(3) 0.6393(4) 0.8147(3)
O30_6 O 0.6393(4) 0.8147(3) 0.4783(3)
O31_6 O 0.69253(19) 0.89578(18) 0.6501(2)
O32_6 O 0.6501(2) 0.69253(19) 0.89578(18)
O33_6 O 0.89578(18) 0.6501(2) 0.69253(19)
Mn12_7 Mn 0.14752(9) 0.26999(6) 0.02150(5)
O27_7 O 0.3592(4) 0.2253(2) 0.0201(2)
O30_7 O 0.3607(4) 0.3147(3) 0.0217(3)
C3_7 C 0.3997(3) 0.1316(4) 0.6743(3)
C4_7 C 0.3685(2) 0.1490(3) 0.7029(2)
C5_7 C 0.3669(3) 0.1603(3) 0.7430(3)
C6_7 C 0.3980(2) 0.1606(3) 0.7774(3)
C7_7 C 0.3096(3) 0.1653(3) 0.7171(3)
C8_7 C 0.2657(3) 0.1740(3) 0.7117(4)
C9_7 C 0.2839(3) 0.0569(3) 0.6340(4)
C10_7 C 0.2511(2) 0.0860(2) 0.6190(3)
C11_7 C 0.2102(3) 0.0831(2) 0.6107(3)
C12_7 C 0.1779(3) 0.0520(4) 0.6181(4)
C13_7 C 0.2311(3) 0.1410(2) 0.5957(2)
C14_7 C 0.2296(3) 0.1845(3) 0.5820(3)
F1_7 F 0.24834(15) 0.1919(2) 0.7420(2)
F2_7 F 0.24571(18) 0.1424(3) 0.7008(3)
F3_7 F 0.25657(18) 0.1963(3) 0.6806(2)
F4_7 F 0.2167(3) 0.1885(2) 0.5469(2)
F5_7 F 0.2048(3) 0.2056(2) 0.6035(3)
F6_7 F 0.2636(3) 0.2030(2) 0.5894(3)
Mn1_7 Mn 0.32911(4) 0.13278(4) 0.62033(4)
Mn2_7 Mn 0.31778(4) 0.18222(4) 0.81778(4)
Mn3_7 Mn 0.47850(5) 0.14752(9) 0.73001(6)
N2_7 N 0.3308(2) 0.1530(2) 0.6867(2)
N3_7 N 0.32749(18) 0.16991(19) 0.7532(2)
N4_7 N 0.2641(2) 0.12310(19) 0.60969(17)
O1_7 O 0.3910(2) 0.1217(3) 0.64058(19)
O2_7 O 0.4385(2) 0.1345(4) 0.6861(3)
O3_7 O 0.4332(2) 0.1557(3) 0.7706(2)
O4_7 O 0.38293(16) 0.1705(2) 0.81156(19)
O5_7 O 0.31796(17) 0.07113(17) 0.6361(2)
O6_7 O 0.2747(2) 0.0201(2) 0.6408(4)
O7_7 O 0.1853(3) 0.0217(3) 0.6393(4)
C15_7 C 0.3684(4) 0.3257(3) 0.8997(3)
C16_7 C 0.3510(3) 0.2971(2) 0.8685(2)
C17_7 C 0.3397(3) 0.2570(3) 0.8669(3)
C18_7 C 0.3394(3) 0.2226(3) 0.8980(2)
C19_7 C 0.3347(3) 0.2829(3) 0.8096(3)
C20_7 C 0.3260(3) 0.2883(4) 0.7657(3)
C21_7 C 0.4431(3) 0.3660(4) 0.7839(3)
C22_7 C 0.4140(2) 0.3810(3) 0.7511(2)
C23_7 C 0.4169(2) 0.3893(3) 0.7102(3)
C24_7 C 0.4480(4) 0.3819(4) 0.6779(3)
C25_7 C 0.3590(2) 0.4043(2) 0.7311(3)
C26_7 C 0.3155(3) 0.4180(3) 0.7296(3)
F7_7 F 0.3081(2) 0.2580(2) 0.74834(15)
F8_7 F 0.3576(3) 0.2992(3) 0.74571(18)
F9_7 F 0.3037(3) 0.3194(2) 0.75657(18)
F10_7 F 0.3115(2) 0.4531(2) 0.7167(3)
F11_7 F 0.2944(2) 0.3965(3) 0.7048(3)
F12_7 F 0.2970(2) 0.4106(3) 0.7636(3)
Mn4_7 Mn 0.36722(4) 0.37967(4) 0.82911(4)
Mn5_7 Mn 0.35248(9) 0.26999(6) 0.97850(5)
N6_7 N 0.3470(2) 0.3133(2) 0.8308(2)
N7_7 N 0.33009(19) 0.2468(2) 0.82749(18)
N8_7 N 0.37690(19) 0.39031(17) 0.7641(2)
O9_7 O 0.3783(3) 0.35942(19) 0.8910(2)
O10_7 O 0.3655(4) 0.3139(3) 0.9385(2)
O11_7 O 0.3443(3) 0.2294(2) 0.9332(2)
O12_7 O 0.3295(2) 0.18844(19) 0.88293(16)
O13_7 O 0.42887(17) 0.3639(2) 0.81796(17)
O14_7 O 0.4799(2) 0.3592(4) 0.7747(2)
O15_7 O 0.4783(3) 0.3607(4) 0.6853(3)
C27_7 C 0.1743(3) 0.1003(3) 0.8684(4)
C28_7 C 0.2029(2) 0.1315(2) 0.8510(3)
C29_7 C 0.2430(3) 0.1331(3) 0.8397(3)
C30_7 C 0.2774(3) 0.1020(2) 0.8394(3)
C31_7 C 0.2171(3) 0.1904(3) 0.8347(3)
C32_7 C 0.2117(4) 0.2343(3) 0.8260(3)
C33_7 C 0.1340(4) 0.2161(3) 0.9431(3)
C34_7 C 0.1190(3) 0.2489(2) 0.9140(2)
C35_7 C 0.1107(3) 0.2898(3) 0.9169(2)
C36_7 C 0.1181(4) 0.3221(3) 0.9480(4)
C37_7 C 0.0957(2) 0.2689(3) 0.8590(2)
C38_7 C 0.0820(3) 0.2704(3) 0.8155(3)
F13_7 F 0.2420(2) 0.25166(15) 0.8081(2)
F14_7 F 0.2008(3) 0.25429(18) 0.8576(3)
F15_7 F 0.1806(2) 0.24343(18) 0.8037(3)
F16_7 F 0.0469(2) 0.2833(3) 0.8115(2)
F17_7 F 0.1035(3) 0.2952(3) 0.7944(2)
F18_7 F 0.0894(3) 0.2364(3) 0.7970(2)
Mn6_7 Mn 0.12033(4) 0.17089(4) 0.86722(4)
Mn7_7 Mn 0.23001(6) 0.02150(5) 0.85248(9)
N10_7 N 0.1867(2) 0.1692(2) 0.8470(2)
N11_7 N 0.2532(2) 0.17251(18) 0.83009(19)
N12_7 N 0.10969(17) 0.2359(2) 0.87690(19)
O17_7 O 0.14058(19) 0.1090(2) 0.8783(3)
O18_7 O 0.1861(3) 0.0615(2) 0.8655(4)
O19_7 O 0.2706(2) 0.0668(2) 0.8443(3)
O20_7 O 0.31156(19) 0.11707(16) 0.8295(2)
O21_7 O 0.1361(2) 0.18204(17) 0.92887(17)
O22_7 O 0.1408(4) 0.2253(2) 0.9799(2)
O23_7 O 0.1393(4) 0.3147(3) 0.9783(3)
Mn11_7 Mn 0.52150(5) 0.35248(9) 0.73001(6)
N14_7 N 0.3691(2) 0.4456(2) 0.8468(2)
N15_7 N 0.3468(2) 0.1309(2) 0.5544(2)
N16_7 N 0.0544(2) 0.1532(2) 0.8691(2)
O26_7 O 0.5201(2) 0.1408(4) 0.7747(2)
O29_7 O 0.5217(3) 0.1393(4) 0.6853(3)
O31_7 O 0.30747(19) 0.39578(18) 0.8499(2)
O32_7 O 0.3499(2) 0.19253(19) 0.60422(18)
O33_7 O 0.10422(18) 0.1501(2) 0.80747(19)
Mn13_7 Mn 0.23001(6) 0.97850(5) 0.64752(9)
O25_7 O 0.2747(2) 0.9799(2) 0.8592(4)
O28_7 O 0.1853(3) 0.9783(3) 0.8607(4)
Mn13_8 Mn 0.26999(6) 0.02150(5) 0.14752(9)
O25_8 O 0.2253(2) 0.0201(2) 0.3592(4)
O28_8 O 0.3147(3) 0.0217(3) 0.3607(4)
C3_8 C 0.1003(3) 0.8684(4) 0.1743(3)
C4_8 C 0.1315(2) 0.8510(3) 0.2029(2)
C5_8 C 0.1331(3) 0.8397(3) 0.2430(3)
C6_8 C 0.1020(2) 0.8394(3) 0.2774(3)
C7_8 C 0.1904(3) 0.8347(3) 0.2171(3)
C8_8 C 0.2343(3) 0.8260(3) 0.2117(4)
C9_8 C 0.2161(3) 0.9431(3) 0.1340(4)
C10_8 C 0.2489(2) 0.9140(2) 0.1190(3)
C11_8 C 0.2898(3) 0.9169(2) 0.1107(3)
C12_8 C 0.3221(3) 0.9480(4) 0.1181(4)
C13_8 C 0.2689(3) 0.8590(2) 0.0957(2)
C14_8 C 0.2704(3) 0.8155(3) 0.0820(3)
F1_8 F 0.25166(15) 0.8081(2) 0.2420(2)
F2_8 F 0.25429(18) 0.8576(3) 0.2008(3)
F3_8 F 0.24343(18) 0.8037(3) 0.1806(2)
F4_8 F 0.2833(3) 0.8115(2) 0.0469(2)
F5_8 F 0.2952(3) 0.7944(2) 0.1035(3)
F6_8 F 0.2364(3) 0.7970(2) 0.0894(3)
Mn1_8 Mn 0.17089(4) 0.86722(4) 0.12033(4)
Mn2_8 Mn 0.18222(4) 0.81778(4) 0.31778(4)
Mn3_8 Mn 0.02150(5) 0.85248(9) 0.23001(6)
N2_8 N 0.1692(2) 0.8470(2) 0.1867(2)
N3_8 N 0.17251(18) 0.83009(19) 0.2532(2)
N4_8 N 0.2359(2) 0.87690(19) 0.10969(17)
O1_8 O 0.1090(2) 0.8783(3) 0.14058(19)
O2_8 O 0.0615(2) 0.8655(4) 0.1861(3)
O3_8 O 0.0668(2) 0.8443(3) 0.2706(2)
O4_8 O 0.11707(16) 0.8295(2) 0.31156(19)
O5_8 O 0.18204(17) 0.92887(17) 0.1361(2)
O6_8 O 0.2253(2) 0.9799(2) 0.1408(4)
O7_8 O 0.3147(3) 0.9783(3) 0.1393(4)
C15_8 C 0.1316(4) 0.6743(3) 0.3997(3)
C16_8 C 0.1490(3) 0.7029(2) 0.3685(2)
C17_8 C 0.1603(3) 0.7430(3) 0.3669(3)
C18_8 C 0.1606(3) 0.7774(3) 0.3980(2)
C19_8 C 0.1653(3) 0.7171(3) 0.3096(3)
C20_8 C 0.1740(3) 0.7117(4) 0.2657(3)
C21_8 C 0.0569(3) 0.6340(4) 0.2839(3)
C22_8 C 0.0860(2) 0.6190(3) 0.2511(2)
C23_8 C 0.0831(2) 0.6107(3) 0.2102(3)
C24_8 C 0.0520(4) 0.6181(4) 0.1779(3)
C25_8 C 0.1410(2) 0.5957(2) 0.2311(3)
C26_8 C 0.1845(3) 0.5820(3) 0.2296(3)
F7_8 F 0.1919(2) 0.7420(2) 0.24834(15)
F8_8 F 0.1424(3) 0.7008(3) 0.24571(18)
F9_8 F 0.1963(3) 0.6806(2) 0.25657(18)
F10_8 F 0.1885(2) 0.5469(2) 0.2167(3)
F11_8 F 0.2056(2) 0.6035(3) 0.2048(3)
F12_8 F 0.2030(2) 0.5894(3) 0.2636(3)
Mn4_8 Mn 0.13278(4) 0.62033(4) 0.32911(4)
Mn5_8 Mn 0.14752(9) 0.73001(6) 0.47850(5)
N6_8 N 0.1530(2) 0.6867(2) 0.3308(2)
N7_8 N 0.16991(19) 0.7532(2) 0.32749(18)
N8_8 N 0.12310(19) 0.60969(17) 0.2641(2)
O9_8 O 0.1217(3) 0.64058(19) 0.3910(2)
O10_8 O 0.1345(4) 0.6861(3) 0.4385(2)
O11_8 O 0.1557(3) 0.7706(2) 0.4332(2)
O12_8 O 0.1705(2) 0.81156(19) 0.38293(16)
O13_8 O 0.07113(17) 0.6361(2) 0.31796(17)
O14_8 O 0.0201(2) 0.6408(4) 0.2747(2)
O15_8 O 0.0217(3) 0.6393(4) 0.1853(3)
C27_8 C 0.3257(3) 0.8997(3) 0.3684(4)
C28_8 C 0.2971(2) 0.8685(2) 0.3510(3)
C29_8 C 0.2570(3) 0.8669(3) 0.3397(3)
C30_8 C 0.2226(3) 0.8980(2) 0.3394(3)
C31_8 C 0.2829(3) 0.8096(3) 0.3347(3)
C32_8 C 0.2883(4) 0.7657(3) 0.3260(3)
C33_8 C 0.3660(4) 0.7839(3) 0.4431(3)
C34_8 C 0.3810(3) 0.7511(2) 0.4140(2)
C35_8 C 0.3893(3) 0.7102(3) 0.4169(2)
C36_8 C 0.3819(4) 0.6779(3) 0.4480(4)
C37_8 C 0.4043(2) 0.7311(3) 0.3590(2)
C38_8 C 0.4180(3) 0.7296(3) 0.3155(3)
F13_8 F 0.2580(2) 0.74834(15) 0.3081(2)
F14_8 F 0.2992(3) 0.74571(18) 0.3576(3)
F15_8 F 0.3194(2) 0.75657(18) 0.3037(3)
F16_8 F 0.4531(2) 0.7167(3) 0.3115(2)
F17_8 F 0.3965(3) 0.7048(3) 0.2944(2)
F18_8 F 0.4106(3) 0.7636(3) 0.2970(2)
Mn6_8 Mn 0.37967(4) 0.82911(4) 0.36722(4)
Mn7_8 Mn 0.26999(6) 0.97850(5) 0.35248(9)
N10_8 N 0.3133(2) 0.8308(2) 0.3470(2)
N11_8 N 0.2468(2) 0.82749(18) 0.33009(19)
N12_8 N 0.39031(17) 0.7641(2) 0.37690(19)
O17_8 O 0.35942(19) 0.8910(2) 0.3783(3)
O18_8 O 0.3139(3) 0.9385(2) 0.3655(4)
O19_8 O 0.2294(2) 0.9332(2) 0.3443(3)
O20_8 O 0.18844(19) 0.88293(16) 0.3295(2)
O21_8 O 0.3639(2) 0.81796(17) 0.42887(17)
O22_8 O 0.3592(4) 0.7747(2) 0.4799(2)
O23_8 O 0.3607(4) 0.6853(3) 0.4783(3)
Mn12_8 Mn 0.35248(9) 0.73001(6) 0.52150(5)
N14_8 N 0.1309(2) 0.5544(2) 0.3468(2)
N15_8 N 0.1532(2) 0.8691(2) 0.0544(2)
N16_8 N 0.4456(2) 0.8468(2) 0.3691(2)
O27_8 O 0.1408(4) 0.7747(2) 0.5201(2)
O30_8 O 0.1393(4) 0.6853(3) 0.5217(3)
O31_8 O 0.19253(19) 0.60422(18) 0.3499(2)
O32_8 O 0.1501(2) 0.80747(19) 0.10422(18)
O33_8 O 0.39578(18) 0.8499(2) 0.30747(19)
Mn11_8 Mn 0.97850(5) 0.64752(9) 0.23001(6)
O26_8 O 0.9799(2) 0.8592(4) 0.2747(2)
O29_8 O 0.9783(3) 0.8607(4) 0.1853(3)
C3_9 C 0.6184(4) 0.1497(3) 0.5757(3)
C4_9 C 0.6010(3) 0.1185(2) 0.5471(2)
C5_9 C 0.5897(3) 0.1169(3) 0.5070(3)
C6_9 C 0.5894(3) 0.1480(2) 0.4726(3)
C7_9 C 0.5847(3) 0.0596(3) 0.5329(3)
C8_9 C 0.5760(3) 0.0157(3) 0.5383(4)
C9_9 C 0.6931(3) 0.0339(3) 0.6160(4)
C10_9 C 0.6640(2) 0.0011(2) 0.6310(3)
F3_9 F 0.5537(3) 0.00657(18) 0.5694(2)
F6_9 F 0.5470(2) 0.0136(3) 0.6606(3)
Mn1_9 Mn 0.61722(4) 0.07911(4) 0.62967(4)
Mn2_9 Mn 0.56778(4) 0.06778(4) 0.43222(4)
N2_9 N 0.5970(2) 0.0808(2) 0.5633(2)
N3_9 N 0.58009(19) 0.07749(18) 0.4968(2)
N4_9 N 0.62690(19) 0.0141(2) 0.64031(17)
O1_9 O 0.6283(3) 0.1410(2) 0.60942(19)
O2_9 O 0.6155(4) 0.1885(2) 0.5639(3)
O3_9 O 0.5943(3) 0.1832(2) 0.4794(2)
O4_9 O 0.5795(2) 0.13293(16) 0.43844(19)
O5_9 O 0.67887(17) 0.06796(17) 0.6139(2)
C15_9 C 0.4243(3) 0.1184(4) 0.3503(3)
C16_9 C 0.4529(2) 0.1010(3) 0.3815(2)
C17_9 C 0.4930(3) 0.0897(3) 0.3831(3)
C18_9 C 0.5274(3) 0.0894(3) 0.3520(2)
C19_9 C 0.4671(3) 0.0847(3) 0.4404(3)
C20_9 C 0.4617(4) 0.0760(3) 0.4843(3)
C21_9 C 0.3840(4) 0.1931(3) 0.4661(3)
C22_9 C 0.3690(3) 0.1640(2) 0.4989(2)
C23_9 C 0.3607(3) 0.1669(2) 0.5398(3)
C24_9 C 0.3681(4) 0.1980(4) 0.5721(3)
C25_9 C 0.3457(2) 0.1090(2) 0.5189(3)
C26_9 C 0.3320(3) 0.0655(3) 0.5204(3)
F7_9 F 0.4920(2) 0.0581(2) 0.50166(15)
F8_9 F 0.4508(3) 0.1076(3) 0.50429(18)
F9_9 F 0.4306(2) 0.0537(3) 0.49343(18)
F10_9 F 0.2969(2) 0.0615(2) 0.5333(3)
F11_9 F 0.3535(3) 0.0444(2) 0.5452(3)
F12_9 F 0.3394(3) 0.0470(2) 0.4864(3)
Mn4_9 Mn 0.37033(4) 0.11722(4) 0.42089(4)
N6_9 N 0.4367(2) 0.0970(2) 0.4192(2)
N7_9 N 0.5032(2) 0.08009(19) 0.42251(18)
N8_9 N 0.35969(17) 0.12690(19) 0.4859(2)
O9_9 O 0.39058(19) 0.1283(3) 0.3590(2)
O10_9 O 0.4361(3) 0.1155(4) 0.3115(2)
O11_9 O 0.5206(2) 0.0943(3) 0.3168(2)
O12_9 O 0.56156(19) 0.0795(2) 0.36707(16)
O13_9 O 0.3861(2) 0.17887(17) 0.43204(17)
C30_9 C 0.6480(2) 0.0274(3) 0.4106(3)
N11_9 N 0.57749(18) 0.0032(2) 0.41991(19)
O19_9 O 0.6832(2) 0.0206(2) 0.4057(3)
O20_9 O 0.63293(16) 0.06156(19) 0.4205(2)
N14_9 N 0.3044(2) 0.1191(2) 0.4032(2)
N15_9 N 0.6191(2) 0.0968(2) 0.6956(2)
O31_9 O 0.35422(18) 0.05747(19) 0.4001(2)
O32_9 O 0.55747(19) 0.0999(2) 0.64578(18)
C11_9 C 0.6669(2) 0.9602(3) 0.6393(3)
C12_9 C 0.6980(4) 0.9279(3) 0.6319(4)
C13_9 C 0.6090(2) 0.9811(3) 0.6543(2)
C14_9 C 0.5655(3) 0.9796(3) 0.6680(3)
F1_9 F 0.5581(2) 0.99834(15) 0.5080(2)
F2_9 F 0.6076(3) 0.99571(18) 0.5492(3)
F4_9 F 0.5615(2) 0.9667(3) 0.7031(2)
F5_9 F 0.5444(2) 0.9548(3) 0.6465(3)
C27_9 C 0.6497(3) 0.9243(3) 0.3816(4)
C28_9 C 0.6185(2) 0.9529(2) 0.3990(3)
C29_9 C 0.6169(3) 0.9930(3) 0.4103(3)
C31_9 C 0.5596(3) 0.9671(3) 0.4153(3)
C32_9 C 0.5157(3) 0.9617(4) 0.4240(3)
C33_9 C 0.5339(3) 0.8840(4) 0.3069(3)
C34_9 C 0.5011(2) 0.8690(3) 0.3360(2)
C35_9 C 0.4602(3) 0.8607(3) 0.3331(2)
C36_9 C 0.4279(3) 0.8681(4) 0.3020(4)
C37_9 C 0.4811(3) 0.8457(2) 0.3910(2)
C38_9 C 0.4796(3) 0.8320(3) 0.4345(3)
F13_9 F 0.49834(15) 0.9920(2) 0.4419(2)
F14_9 F 0.49571(18) 0.9508(3) 0.3924(3)
F15_9 F 0.50657(18) 0.9306(2) 0.4463(3)
F16_9 F 0.4667(3) 0.7969(2) 0.4385(2)
F17_9 F 0.4548(3) 0.8535(3) 0.4556(2)
F18_9 F 0.5136(3) 0.8394(3) 0.4530(2)
Mn6_9 Mn 0.57911(4) 0.87033(4) 0.38278(4)
N10_9 N 0.5808(2) 0.9367(2) 0.4030(2)
N12_9 N 0.5141(2) 0.85969(17) 0.37310(19)
O17_9 O 0.6410(2) 0.89058(19) 0.3717(3)
O18_9 O 0.6885(2) 0.9361(3) 0.3845(4)
O21_9 O 0.56796(17) 0.8861(2) 0.32113(17)
N16_9 N 0.5968(2) 0.8044(2) 0.3809(2)
O33_9 O 0.5999(2) 0.85422(18) 0.44253(19)
C35_10 C 0.0398(3) 0.1393(3) 0.8331(2)
C36_10 C 0.0721(3) 0.1319(4) 0.8020(4)
C37_10 C 0.0189(3) 0.1543(2) 0.8910(2)
C38_10 C 0.0204(3) 0.1680(3) 0.9345(3)
F13_10 F 0.00166(15) 0.0080(2) 0.9419(2)
F14_10 F 0.00429(18) 0.0492(3) 0.8924(3)
F16_10 F 0.0333(3) 0.2031(2) 0.9385(2)
F17_10 F 0.0452(3) 0.1465(3) 0.9556(2)
C23_10 C 0.1393(3) 0.8331(2) 0.0398(3)
C24_10 C 0.1319(4) 0.8020(4) 0.0721(3)
C25_10 C 0.1543(2) 0.8910(2) 0.0189(3)
C26_10 C 0.1680(3) 0.9345(3) 0.0204(3)
F7_10 F 0.0080(2) 0.9419(2) 0.00166(15)
F8_10 F 0.0492(3) 0.8924(3) 0.00429(18)
F10_10 F 0.2031(2) 0.9385(2) 0.0333(3)
F11_10 F 0.1465(3) 0.9556(2) 0.0452(3)
C15_10 C 0.0757(3) 0.8816(4) 0.8503(3)
C16_10 C 0.0471(2) 0.8990(3) 0.8815(2)
C17_10 C 0.0070(3) 0.9103(3) 0.8831(3)
C19_10 C 0.0329(3) 0.9153(3) 0.9404(3)
C20_10 C 0.0383(4) 0.9240(3) 0.9843(3)
C21_10 C 0.1160(4) 0.8069(3) 0.9661(3)
C22_10 C 0.1310(3) 0.8360(2) 0.9989(2)
F9_10 F 0.0694(2) 0.9463(3) 0.99343(18)
F12_10 F 0.1606(3) 0.9530(2) 0.9864(3)
Mn4_10 Mn 0.12967(4) 0.88278(4) 0.92089(4)
N6_10 N 0.0633(2) 0.9030(2) 0.9192(2)
N8_10 N 0.14031(17) 0.87310(19) 0.9859(2)
O9_10 O 0.10942(19) 0.8717(3) 0.8590(2)
O10_10 O 0.0639(3) 0.8845(4) 0.8115(2)
O13_10 O 0.1139(2) 0.82113(17) 0.93204(17)
N14_10 N 0.1956(2) 0.8809(2) 0.9032(2)
O31_10 O 0.14578(18) 0.94253(19) 0.9001(2)
C11_10 C 0.8331(2) 0.0398(3) 0.1393(3)
C12_10 C 0.8020(4) 0.0721(3) 0.1319(4)
C13_10 C 0.8910(2) 0.0189(3) 0.1543(2)
C14_10 C 0.9345(3) 0.0204(3) 0.1680(3)
F1_10 F 0.9419(2) 0.00166(15) 0.0080(2)
F2_10 F 0.8924(3) 0.00429(18) 0.0492(3)
F4_10 F 0.9385(2) 0.0333(3) 0.2031(2)
F5_10 F 0.9556(2) 0.0452(3) 0.1465(3)
C27_10 C 0.8503(3) 0.0757(3) 0.8816(4)
C28_10 C 0.8815(2) 0.0471(2) 0.8990(3)
C29_10 C 0.8831(3) 0.0070(3) 0.9103(3)
C31_10 C 0.9404(3) 0.0329(3) 0.9153(3)
C32_10 C 0.9843(3) 0.0383(4) 0.9240(3)
C33_10 C 0.9661(3) 0.1160(4) 0.8069(3)
C34_10 C 0.9989(2) 0.1310(3) 0.8360(2)
F15_10 F 0.99343(18) 0.0694(2) 0.9463(3)
F18_10 F 0.9864(3) 0.1606(3) 0.9530(2)
Mn6_10 Mn 0.92089(4) 0.12967(4) 0.88278(4)
N10_10 N 0.9192(2) 0.0633(2) 0.9030(2)
N12_10 N 0.9859(2) 0.14031(17) 0.87310(19)
O17_10 O 0.8590(2) 0.10942(19) 0.8717(3)
O18_10 O 0.8115(2) 0.0639(3) 0.8845(4)
O21_10 O 0.93204(17) 0.1139(2) 0.82113(17)
N16_10 N 0.9032(2) 0.1956(2) 0.8809(2)
O33_10 O 0.9001(2) 0.14578(18) 0.94253(19)
C3_10 C 0.8816(4) 0.8503(3) 0.0757(3)
C4_10 C 0.8990(3) 0.8815(2) 0.0471(2)
C5_10 C 0.9103(3) 0.8831(3) 0.0070(3)
C7_10 C 0.9153(3) 0.9404(3) 0.0329(3)
C8_10 C 0.9240(3) 0.9843(3) 0.0383(4)
C9_10 C 0.8069(3) 0.9661(3) 0.1160(4)
C10_10 C 0.8360(2) 0.9989(2) 0.1310(3)
F3_10 F 0.9463(3) 0.99343(18) 0.0694(2)
F6_10 F 0.9530(2) 0.9864(3) 0.1606(3)
Mn1_10 Mn 0.88278(4) 0.92089(4) 0.12967(4)
N2_10 N 0.9030(2) 0.9192(2) 0.0633(2)
N4_10 N 0.87310(19) 0.9859(2) 0.14031(17)
O1_10 O 0.8717(3) 0.8590(2) 0.10942(19)
O2_10 O 0.8845(4) 0.8115(2) 0.0639(3)
O5_10 O 0.82113(17) 0.93204(17) 0.1139(2)
N15_10 N 0.8809(2) 0.9032(2) 0.1956(2)
O32_10 O 0.94253(19) 0.9001(2) 0.14578(18)
C6_10 C 0.9106(3) 0.8520(2) 0.9726(3)
Mn2_10 Mn 0.93222(4) 0.93222(4) 0.93222(4)
N3_10 N 0.91991(19) 0.92251(18) 0.9968(2)
O3_10 O 0.9057(3) 0.8168(2) 0.9794(2)
O4_10 O 0.9205(2) 0.86707(16) 0.93844(19)
C18_10 C 0.9726(3) 0.9106(3) 0.8520(2)
N7_10 N 0.9968(2) 0.91991(19) 0.92251(18)
O11_10 O 0.9794(2) 0.9057(3) 0.8168(2)
O12_10 O 0.93844(19) 0.9205(2) 0.86707(16)
C30_10 C 0.8520(2) 0.9726(3) 0.9106(3)
N11_10 N 0.92251(18) 0.9968(2) 0.91991(19)
O19_10 O 0.8168(2) 0.9794(2) 0.9057(3)
O20_10 O 0.86707(16) 0.93844(19) 0.9205(2)
C6_11 C 0.4106(3) 0.6480(2) 0.0274(3)
Mn2_11 Mn 0.43222(4) 0.56778(4) 0.06778(4)
N3_11 N 0.41991(19) 0.57749(18) 0.0032(2)
O3_11 O 0.4057(3) 0.6832(2) 0.0206(2)
O4_11 O 0.4205(2) 0.63293(16) 0.06156(19)
C15_11 C 0.5757(3) 0.6184(4) 0.1497(3)
C16_11 C 0.5471(2) 0.6010(3) 0.1185(2)
C17_11 C 0.5070(3) 0.5897(3) 0.1169(3)
C18_11 C 0.4726(3) 0.5894(3) 0.1480(2)
C19_11 C 0.5329(3) 0.5847(3) 0.0596(3)
C20_11 C 0.5383(4) 0.5760(3) 0.0157(3)
C21_11 C 0.6160(4) 0.6931(3) 0.0339(3)
C22_11 C 0.6310(3) 0.6640(2) 0.0011(2)
F9_11 F 0.5694(2) 0.5537(3) 0.00657(18)
F12_11 F 0.6606(3) 0.5470(2) 0.0136(3)
Mn4_11 Mn 0.62967(4) 0.61722(4) 0.07911(4)
N6_11 N 0.5633(2) 0.5970(2) 0.0808(2)
N7_11 N 0.4968(2) 0.58009(19) 0.07749(18)
N8_11 N 0.64031(17) 0.62690(19) 0.0141(2)
O9_11 O 0.60942(19) 0.6283(3) 0.1410(2)
O10_11 O 0.5639(3) 0.6155(4) 0.1885(2)
O11_11 O 0.4794(2) 0.5943(3) 0.1832(2)
O12_11 O 0.43844(19) 0.5795(2) 0.13293(16)
O13_11 O 0.6139(2) 0.67887(17) 0.06796(17)
C27_11 C 0.3503(3) 0.4243(3) 0.1184(4)
C28_11 C 0.3815(2) 0.4529(2) 0.1010(3)
C29_11 C 0.3831(3) 0.4930(3) 0.0897(3)
C30_11 C 0.3520(2) 0.5274(3) 0.0894(3)
C31_11 C 0.4404(3) 0.4671(3) 0.0847(3)
C32_11 C 0.4843(3) 0.4617(4) 0.0760(3)
C33_11 C 0.4661(3) 0.3840(4) 0.1931(3)
C34_11 C 0.4989(2) 0.3690(3) 0.1640(2)
C35_11 C 0.5398(3) 0.3607(3) 0.1669(2)
C36_11 C 0.5721(3) 0.3681(4) 0.1980(4)
C37_11 C 0.5189(3) 0.3457(2) 0.1090(2)
C38_11 C 0.5204(3) 0.3320(3) 0.0655(3)
F13_11 F 0.50166(15) 0.4920(2) 0.0581(2)
F14_11 F 0.50429(18) 0.4508(3) 0.1076(3)
F15_11 F 0.49343(18) 0.4306(2) 0.0537(3)
F16_11 F 0.5333(3) 0.2969(2) 0.0615(2)
F17_11 F 0.5452(3) 0.3535(3) 0.0444(2)
F18_11 F 0.4864(3) 0.3394(3) 0.0470(2)
Mn6_11 Mn 0.42089(4) 0.37033(4) 0.11722(4)
N10_11 N 0.4192(2) 0.4367(2) 0.0970(2)
N11_11 N 0.42251(18) 0.5032(2) 0.08009(19)
N12_11 N 0.4859(2) 0.35969(17) 0.12690(19)
O17_11 O 0.3590(2) 0.39058(19) 0.1283(3)
O18_11 O 0.3115(2) 0.4361(3) 0.1155(4)
O19_11 O 0.3168(2) 0.5206(2) 0.0943(3)
O20_11 O 0.36707(16) 0.56156(19) 0.0795(2)
O21_11 O 0.43204(17) 0.3861(2) 0.17887(17)
N14_11 N 0.6956(2) 0.6191(2) 0.0968(2)
N16_11 N 0.4032(2) 0.3044(2) 0.1191(2)
O31_11 O 0.64578(18) 0.55747(19) 0.0999(2)
O33_11 O 0.4001(2) 0.35422(18) 0.05747(19)
C3_11 C 0.3816(4) 0.6497(3) 0.9243(3)
C4_11 C 0.3990(3) 0.6185(2) 0.9529(2)
C5_11 C 0.4103(3) 0.6169(3) 0.9930(3)
C7_11 C 0.4153(3) 0.5596(3) 0.9671(3)
C8_11 C 0.4240(3) 0.5157(3) 0.9617(4)
C9_11 C 0.3069(3) 0.5339(3) 0.8840(4)
C10_11 C 0.3360(2) 0.5011(2) 0.8690(3)
C11_11 C 0.3331(2) 0.4602(3) 0.8607(3)
C12_11 C 0.3020(4) 0.4279(3) 0.8681(4)
C13_11 C 0.3910(2) 0.4811(3) 0.8457(2)
C14_11 C 0.4345(3) 0.4796(3) 0.8320(3)
F1_11 F 0.4419(2) 0.49834(15) 0.9920(2)
F2_11 F 0.3924(3) 0.49571(18) 0.9508(3)
F3_11 F 0.4463(3) 0.50657(18) 0.9306(2)
F4_11 F 0.4385(2) 0.4667(3) 0.7969(2)
F5_11 F 0.4556(2) 0.4548(3) 0.8535(3)
F6_11 F 0.4530(2) 0.5136(3) 0.8394(3)
Mn1_11 Mn 0.38278(4) 0.57911(4) 0.87033(4)
N2_11 N 0.4030(2) 0.5808(2) 0.9367(2)
N4_11 N 0.37310(19) 0.5141(2) 0.85969(17)
O1_11 O 0.3717(3) 0.6410(2) 0.89058(19)
O2_11 O 0.3845(4) 0.6885(2) 0.9361(3)
O5_11 O 0.32113(17) 0.56796(17) 0.8861(2)
C23_11 C 0.6393(3) 0.6669(2) 0.9602(3)
C24_11 C 0.6319(4) 0.6980(4) 0.9279(3)
C25_11 C 0.6543(2) 0.6090(2) 0.9811(3)
C26_11 C 0.6680(3) 0.5655(3) 0.9796(3)
F7_11 F 0.5080(2) 0.5581(2) 0.99834(15)
F8_11 F 0.5492(3) 0.6076(3) 0.99571(18)
F10_11 F 0.7031(2) 0.5615(2) 0.9667(3)
F11_11 F 0.6465(3) 0.5444(2) 0.9548(3)
N15_11 N 0.3809(2) 0.5968(2) 0.8044(2)
O32_11 O 0.44253(19) 0.5999(2) 0.85422(18)
C3_12 C 0.1184(4) 0.3503(3) 0.4243(3)
C4_12 C 0.1010(3) 0.3815(2) 0.4529(2)
C5_12 C 0.0897(3) 0.3831(3) 0.4930(3)
C6_12 C 0.0894(3) 0.3520(2) 0.5274(3)
C7_12 C 0.0847(3) 0.4404(3) 0.4671(3)
C8_12 C 0.0760(3) 0.4843(3) 0.4617(4)
C9_12 C 0.1931(3) 0.4661(3) 0.3840(4)
C10_12 C 0.1640(2) 0.4989(2) 0.3690(3)
C11_12 C 0.1669(2) 0.5398(3) 0.3607(3)
C12_12 C 0.1980(4) 0.5721(3) 0.3681(4)
C13_12 C 0.1090(2) 0.5189(3) 0.3457(2)
C14_12 C 0.0655(3) 0.5204(3) 0.3320(3)
F1_12 F 0.0581(2) 0.50166(15) 0.4920(2)
F2_12 F 0.1076(3) 0.50429(18) 0.4508(3)
F3_12 F 0.0537(3) 0.49343(18) 0.4306(2)
F4_12 F 0.0615(2) 0.5333(3) 0.2969(2)
F5_12 F 0.0444(2) 0.5452(3) 0.3535(3)
F6_12 F 0.0470(2) 0.4864(3) 0.3394(3)
Mn1_12 Mn 0.11722(4) 0.42089(4) 0.37033(4)
Mn2_12 Mn 0.06778(4) 0.43222(4) 0.56778(4)
N2_12 N 0.0970(2) 0.4192(2) 0.4367(2)
N3_12 N 0.08009(19) 0.42251(18) 0.5032(2)
N4_12 N 0.12690(19) 0.4859(2) 0.35969(17)
O1_12 O 0.1283(3) 0.3590(2) 0.39058(19)
O2_12 O 0.1155(4) 0.3115(2) 0.4361(3)
O3_12 O 0.0943(3) 0.3168(2) 0.5206(2)
O4_12 O 0.0795(2) 0.36707(16) 0.56156(19)
O5_12 O 0.17887(17) 0.43204(17) 0.3861(2)
C18_12 C 0.0274(3) 0.4106(3) 0.6480(2)
N7_12 N 0.0032(2) 0.41991(19) 0.57749(18)
O11_12 O 0.0206(2) 0.4057(3) 0.6832(2)
O12_12 O 0.06156(19) 0.4205(2) 0.63293(16)
C27_12 C 0.1497(3) 0.5757(3) 0.6184(4)
C28_12 C 0.1185(2) 0.5471(2) 0.6010(3)
C29_12 C 0.1169(3) 0.5070(3) 0.5897(3)
C30_12 C 0.1480(2) 0.4726(3) 0.5894(3)
C31_12 C 0.0596(3) 0.5329(3) 0.5847(3)
C32_12 C 0.0157(3) 0.5383(4) 0.5760(3)
C33_12 C 0.0339(3) 0.6160(4) 0.6931(3)
C34_12 C 0.0011(2) 0.6310(3) 0.6640(2)
F15_12 F 0.00657(18) 0.5694(2) 0.5537(3)
F18_12 F 0.0136(3) 0.6606(3) 0.5470(2)
Mn6_12 Mn 0.07911(4) 0.62967(4) 0.61722(4)
N10_12 N 0.0808(2) 0.5633(2) 0.5970(2)
N11_12 N 0.07749(18) 0.4968(2) 0.58009(19)
N12_12 N 0.0141(2) 0.64031(17) 0.62690(19)
O17_12 O 0.1410(2) 0.60942(19) 0.6283(3)
O18_12 O 0.1885(2) 0.5639(3) 0.6155(4)
O19_12 O 0.1832(2) 0.4794(2) 0.5943(3)
O20_12 O 0.13293(16) 0.43844(19) 0.5795(2)
O21_12 O 0.06796(17) 0.6139(2) 0.67887(17)
N15_12 N 0.1191(2) 0.4032(2) 0.3044(2)
N16_12 N 0.0968(2) 0.6956(2) 0.6191(2)
O32_12 O 0.05747(19) 0.4001(2) 0.35422(18)
O33_12 O 0.0999(2) 0.64578(18) 0.55747(19)
C15_12 C 0.9243(3) 0.3816(4) 0.6497(3)
C16_12 C 0.9529(2) 0.3990(3) 0.6185(2)
C17_12 C 0.9930(3) 0.4103(3) 0.6169(3)
C19_12 C 0.9671(3) 0.4153(3) 0.5596(3)
C20_12 C 0.9617(4) 0.4240(3) 0.5157(3)
C21_12 C 0.8840(4) 0.3069(3) 0.5339(3)
C22_12 C 0.8690(3) 0.3360(2) 0.5011(2)
C23_12 C 0.8607(3) 0.3331(2) 0.4602(3)
C24_12 C 0.8681(4) 0.3020(4) 0.4279(3)
C25_12 C 0.8457(2) 0.3910(2) 0.4811(3)
C26_12 C 0.8320(3) 0.4345(3) 0.4796(3)
F7_12 F 0.9920(2) 0.4419(2) 0.49834(15)
F8_12 F 0.9508(3) 0.3924(3) 0.49571(18)
F9_12 F 0.9306(2) 0.4463(3) 0.50657(18)
F10_12 F 0.7969(2) 0.4385(2) 0.4667(3)
F11_12 F 0.8535(3) 0.4556(2) 0.4548(3)
F12_12 F 0.8394(3) 0.4530(2) 0.5136(3)
Mn4_12 Mn 0.87033(4) 0.38278(4) 0.57911(4)
N6_12 N 0.9367(2) 0.4030(2) 0.5808(2)
N8_12 N 0.85969(17) 0.37310(19) 0.5141(2)
O9_12 O 0.89058(19) 0.3717(3) 0.6410(2)
O10_12 O 0.9361(3) 0.3845(4) 0.6885(2)
O13_12 O 0.8861(2) 0.32113(17) 0.56796(17)
C35_12 C 0.9602(3) 0.6393(3) 0.6669(2)
C36_12 C 0.9279(3) 0.6319(4) 0.6980(4)
C37_12 C 0.9811(3) 0.6543(2) 0.6090(2)
C38_12 C 0.9796(3) 0.6680(3) 0.5655(3)
F13_12 F 0.99834(15) 0.5080(2) 0.5581(2)
F14_12 F 0.99571(18) 0.5492(3) 0.6076(3)
F16_12 F 0.9667(3) 0.7031(2) 0.5615(2)
F17_12 F 0.9548(3) 0.6465(3) 0.5444(2)
N14_12 N 0.8044(2) 0.3809(2) 0.5968(2)
O31_12 O 0.85422(18) 0.44253(19) 0.5999(2)
C3_13 C 0.3997(3) 0.8684(4) 0.8257(3)
C4_13 C 0.3685(2) 0.8510(3) 0.7971(2)
C5_13 C 0.3669(3) 0.8397(3) 0.7570(3)
C6_13 C 0.3980(2) 0.8394(3) 0.7226(3)
C7_13 C 0.3096(3) 0.8347(3) 0.7829(3)
C8_13 C 0.2657(3) 0.8260(3) 0.7883(4)
C9_13 C 0.2839(3) 0.9431(3) 0.8660(4)
C10_13 C 0.2511(2) 0.9140(2) 0.8810(3)
C11_13 C 0.2102(3) 0.9169(2) 0.8893(3)
C12_13 C 0.1779(3) 0.9480(4) 0.8819(4)
C13_13 C 0.2311(3) 0.8590(2) 0.9043(2)
C14_13 C 0.2296(3) 0.8155(3) 0.9180(3)
F1_13 F 0.24834(15) 0.8081(2) 0.7580(2)
F2_13 F 0.24571(18) 0.8576(3) 0.7992(3)
F3_13 F 0.25657(18) 0.8037(3) 0.8194(2)
F4_13 F 0.2167(3) 0.8115(2) 0.9531(2)
F5_13 F 0.2048(3) 0.7944(2) 0.8965(3)
F6_13 F 0.2636(3) 0.7970(2) 0.9106(3)
Mn2_13 Mn 0.31778(4) 0.81778(4) 0.68222(4)
N2_13 N 0.3308(2) 0.8470(2) 0.8133(2)
N3_13 N 0.32749(18) 0.83009(19) 0.7468(2)
N4_13 N 0.2641(2) 0.87690(19) 0.89031(17)
O1_13 O 0.3910(2) 0.8783(3) 0.85942(19)
O2_13 O 0.4385(2) 0.8655(4) 0.8139(3)
O3_13 O 0.4332(2) 0.8443(3) 0.7294(2)
O4_13 O 0.38293(16) 0.8295(2) 0.68844(19)
O5_13 O 0.31796(17) 0.92887(17) 0.8639(2)
C15_13 C 0.3684(4) 0.6743(3) 0.6003(3)
C16_13 C 0.3510(3) 0.7029(2) 0.6315(2)
C17_13 C 0.3397(3) 0.7430(3) 0.6331(3)
C18_13 C 0.3394(3) 0.7774(3) 0.6020(2)
C19_13 C 0.3347(3) 0.7171(3) 0.6904(3)
C20_13 C 0.3260(3) 0.7117(4) 0.7343(3)
C21_13 C 0.4431(3) 0.6340(4) 0.7161(3)
C22_13 C 0.4140(2) 0.6190(3) 0.7489(2)
C23_13 C 0.4169(2) 0.6107(3) 0.7898(3)
C24_13 C 0.4480(4) 0.6181(4) 0.8221(3)
C25_13 C 0.3590(2) 0.5957(2) 0.7689(3)
C26_13 C 0.3155(3) 0.5820(3) 0.7704(3)
F7_13 F 0.3081(2) 0.7420(2) 0.75166(15)
F8_13 F 0.3576(3) 0.7008(3) 0.75429(18)
F9_13 F 0.3037(3) 0.6806(2) 0.74343(18)
F10_13 F 0.3115(2) 0.5469(2) 0.7833(3)
F11_13 F 0.2944(2) 0.6035(3) 0.7952(3)
F12_13 F 0.2970(2) 0.5894(3) 0.7364(3)
N6_13 N 0.3470(2) 0.6867(2) 0.6692(2)
N7_13 N 0.33009(19) 0.7532(2) 0.67251(18)
N8_13 N 0.37690(19) 0.60969(17) 0.7359(2)
O9_13 O 0.3783(3) 0.64058(19) 0.6090(2)
O10_13 O 0.3655(4) 0.6861(3) 0.5615(2)
O11_13 O 0.3443(3) 0.7706(2) 0.5668(2)
O12_13 O 0.3295(2) 0.81156(19) 0.61707(16)
O13_13 O 0.42887(17) 0.6361(2) 0.68204(17)
C27_13 C 0.1743(3) 0.8997(3) 0.6316(4)
C28_13 C 0.2029(2) 0.8685(2) 0.6490(3)
C29_13 C 0.2430(3) 0.8669(3) 0.6603(3)
C30_13 C 0.2774(3) 0.8980(2) 0.6606(3)
C31_13 C 0.2171(3) 0.8096(3) 0.6653(3)
C32_13 C 0.2117(4) 0.7657(3) 0.6740(3)
C33_13 C 0.1340(4) 0.7839(3) 0.5569(3)
C34_13 C 0.1190(3) 0.7511(2) 0.5860(2)
C35_13 C 0.1107(3) 0.7102(3) 0.5831(2)
C36_13 C 0.1181(4) 0.6779(3) 0.5520(4)
C37_13 C 0.0957(2) 0.7311(3) 0.6410(2)
C38_13 C 0.0820(3) 0.7296(3) 0.6845(3)
F13_13 F 0.2420(2) 0.74834(15) 0.6919(2)
F14_13 F 0.2008(3) 0.74571(18) 0.6424(3)
F15_13 F 0.1806(2) 0.75657(18) 0.6963(3)
F16_13 F 0.0469(2) 0.7167(3) 0.6885(2)
F17_13 F 0.1035(3) 0.7048(3) 0.7056(2)
F18_13 F 0.0894(3) 0.7636(3) 0.7030(2)
N10_13 N 0.1867(2) 0.8308(2) 0.6530(2)
N11_13 N 0.2532(2) 0.82749(18) 0.66991(19)
N12_13 N 0.10969(17) 0.7641(2) 0.62310(19)
O17_13 O 0.14058(19) 0.8910(2) 0.6217(3)
O18_13 O 0.1861(3) 0.9385(2) 0.6345(4)
O19_13 O 0.2706(2) 0.9332(2) 0.6557(3)
O20_13 O 0.31156(19) 0.88293(16) 0.6705(2)
O21_13 O 0.1361(2) 0.81796(17) 0.57113(17)
C3_14 C 0.1003(3) 0.1316(4) 0.3257(3)
C4_14 C 0.1315(2) 0.1490(3) 0.2971(2)
C5_14 C 0.1331(3) 0.1603(3) 0.2570(3)
C6_14 C 0.1020(2) 0.1606(3) 0.2226(3)
C7_14 C 0.1904(3) 0.1653(3) 0.2829(3)
C8_14 C 0.2343(3) 0.1740(3) 0.2883(4)
C9_14 C 0.2161(3) 0.0569(3) 0.3660(4)
C10_14 C 0.2489(2) 0.0860(2) 0.3810(3)
C11_14 C 0.2898(3) 0.0831(2) 0.3893(3)
C12_14 C 0.3221(3) 0.0520(4) 0.3819(4)
C13_14 C 0.2689(3) 0.1410(2) 0.4043(2)
C14_14 C 0.2704(3) 0.1845(3) 0.4180(3)
F1_14 F 0.25166(15) 0.1919(2) 0.2580(2)
F2_14 F 0.25429(18) 0.1424(3) 0.2992(3)
F3_14 F 0.24343(18) 0.1963(3) 0.3194(2)
F4_14 F 0.2833(3) 0.1885(2) 0.4531(2)
F5_14 F 0.2952(3) 0.2056(2) 0.3965(3)
F6_14 F 0.2364(3) 0.2030(2) 0.4106(3)
Mn2_14 Mn 0.18222(4) 0.18222(4) 0.18222(4)
N2_14 N 0.1692(2) 0.1530(2) 0.3133(2)
N3_14 N 0.17251(18) 0.16991(19) 0.2468(2)
N4_14 N 0.2359(2) 0.12310(19) 0.39031(17)
O1_14 O 0.1090(2) 0.1217(3) 0.35942(19)
O2_14 O 0.0615(2) 0.1345(4) 0.3139(3)
O3_14 O 0.0668(2) 0.1557(3) 0.2294(2)
O4_14 O 0.11707(16) 0.1705(2) 0.18844(19)
O5_14 O 0.18204(17) 0.07113(17) 0.3639(2)
C15_14 C 0.1316(4) 0.3257(3) 0.1003(3)
C16_14 C 0.1490(3) 0.2971(2) 0.1315(2)
C17_14 C 0.1603(3) 0.2570(3) 0.1331(3)
C18_14 C 0.1606(3) 0.2226(3) 0.1020(2)
C19_14 C 0.1653(3) 0.2829(3) 0.1904(3)
C20_14 C 0.1740(3) 0.2883(4) 0.2343(3)
C21_14 C 0.0569(3) 0.3660(4) 0.2161(3)
C22_14 C 0.0860(2) 0.3810(3) 0.2489(2)
C23_14 C 0.0831(2) 0.3893(3) 0.2898(3)
C24_14 C 0.0520(4) 0.3819(4) 0.3221(3)
C25_14 C 0.1410(2) 0.4043(2) 0.2689(3)
C26_14 C 0.1845(3) 0.4180(3) 0.2704(3)
F7_14 F 0.1919(2) 0.2580(2) 0.25166(15)
F8_14 F 0.1424(3) 0.2992(3) 0.25429(18)
F9_14 F 0.1963(3) 0.3194(2) 0.24343(18)
F10_14 F 0.1885(2) 0.4531(2) 0.2833(3)
F11_14 F 0.2056(2) 0.3965(3) 0.2952(3)
F12_14 F 0.2030(2) 0.4106(3) 0.2364(3)
N6_14 N 0.1530(2) 0.3133(2) 0.1692(2)
N7_14 N 0.16991(19) 0.2468(2) 0.17251(18)
N8_14 N 0.12310(19) 0.39031(17) 0.2359(2)
O9_14 O 0.1217(3) 0.35942(19) 0.1090(2)
O10_14 O 0.1345(4) 0.3139(3) 0.0615(2)
O11_14 O 0.1557(3) 0.2294(2) 0.0668(2)
O12_14 O 0.1705(2) 0.18844(19) 0.11707(16)
O13_14 O 0.07113(17) 0.3639(2) 0.18204(17)
C27_14 C 0.3257(3) 0.1003(3) 0.1316(4)
C28_14 C 0.2971(2) 0.1315(2) 0.1490(3)
C29_14 C 0.2570(3) 0.1331(3) 0.1603(3)
C30_14 C 0.2226(3) 0.1020(2) 0.1606(3)
C31_14 C 0.2829(3) 0.1904(3) 0.1653(3)
C32_14 C 0.2883(4) 0.2343(3) 0.1740(3)
C33_14 C 0.3660(4) 0.2161(3) 0.0569(3)
C34_14 C 0.3810(3) 0.2489(2) 0.0860(2)
C35_14 C 0.3893(3) 0.2898(3) 0.0831(2)
C36_14 C 0.3819(4) 0.3221(3) 0.0520(4)
C37_14 C 0.4043(2) 0.2689(3) 0.1410(2)
C38_14 C 0.4180(3) 0.2704(3) 0.1845(3)
F13_14 F 0.2580(2) 0.25166(15) 0.1919(2)
F14_14 F 0.2992(3) 0.25429(18) 0.1424(3)
F15_14 F 0.3194(2) 0.24343(18) 0.1963(3)
F16_14 F 0.4531(2) 0.2833(3) 0.1885(2)
F17_14 F 0.3965(3) 0.2952(3) 0.2056(2)
F18_14 F 0.4106(3) 0.2364(3) 0.2030(2)
N10_14 N 0.3133(2) 0.1692(2) 0.1530(2)
N11_14 N 0.2468(2) 0.17251(18) 0.16991(19)
N12_14 N 0.39031(17) 0.2359(2) 0.12310(19)
O17_14 O 0.35942(19) 0.1090(2) 0.1217(3)
O18_14 O 0.3139(3) 0.0615(2) 0.1345(4)
O19_14 O 0.2294(2) 0.0668(2) 0.1557(3)
O20_14 O 0.18844(19) 0.11707(16) 0.1705(2)
O21_14 O 0.3639(2) 0.18204(17) 0.07113(17)
C3_15 C 0.8997(3) 0.6316(4) 0.1743(3)
C4_15 C 0.8685(2) 0.6490(3) 0.2029(2)
C5_15 C 0.8669(3) 0.6603(3) 0.2430(3)
C6_15 C 0.8980(2) 0.6606(3) 0.2774(3)
C7_15 C 0.8096(3) 0.6653(3) 0.2171(3)
C8_15 C 0.7657(3) 0.6740(3) 0.2117(4)
C9_15 C 0.7839(3) 0.5569(3) 0.1340(4)
C10_15 C 0.7511(2) 0.5860(2) 0.1190(3)
C11_15 C 0.7102(3) 0.5831(2) 0.1107(3)
C12_15 C 0.6779(3) 0.5520(4) 0.1181(4)
C13_15 C 0.7311(3) 0.6410(2) 0.0957(2)
C14_15 C 0.7296(3) 0.6845(3) 0.0820(3)
F1_15 F 0.74834(15) 0.6919(2) 0.2420(2)
F2_15 F 0.74571(18) 0.6424(3) 0.2008(3)
F3_15 F 0.75657(18) 0.6963(3) 0.1806(2)
F4_15 F 0.7167(3) 0.6885(2) 0.0469(2)
F5_15 F 0.7048(3) 0.7056(2) 0.1035(3)
F6_15 F 0.7636(3) 0.7030(2) 0.0894(3)
Mn2_15 Mn 0.81778(4) 0.68222(4) 0.31778(4)
N2_15 N 0.8308(2) 0.6530(2) 0.1867(2)
N3_15 N 0.82749(18) 0.66991(19) 0.2532(2)
N4_15 N 0.7641(2) 0.62310(19) 0.10969(17)
O1_15 O 0.8910(2) 0.6217(3) 0.14058(19)
O2_15 O 0.9385(2) 0.6345(4) 0.1861(3)
O3_15 O 0.9332(2) 0.6557(3) 0.2706(2)
O4_15 O 0.88293(16) 0.6705(2) 0.31156(19)
O5_15 O 0.81796(17) 0.57113(17) 0.1361(2)
C15_15 C 0.8684(4) 0.8257(3) 0.3997(3)
C16_15 C 0.8510(3) 0.7971(2) 0.3685(2)
C17_15 C 0.8397(3) 0.7570(3) 0.3669(3)
C18_15 C 0.8394(3) 0.7226(3) 0.3980(2)
C19_15 C 0.8347(3) 0.7829(3) 0.3096(3)
C20_15 C 0.8260(3) 0.7883(4) 0.2657(3)
C21_15 C 0.9431(3) 0.8660(4) 0.2839(3)
C22_15 C 0.9140(2) 0.8810(3) 0.2511(2)
C23_15 C 0.9169(2) 0.8893(3) 0.2102(3)
C24_15 C 0.9480(4) 0.8819(4) 0.1779(3)
C25_15 C 0.8590(2) 0.9043(2) 0.2311(3)
C26_15 C 0.8155(3) 0.9180(3) 0.2296(3)
F7_15 F 0.8081(2) 0.7580(2) 0.24834(15)
F8_15 F 0.8576(3) 0.7992(3) 0.24571(18)
F9_15 F 0.8037(3) 0.8194(2) 0.25657(18)
F10_15 F 0.8115(2) 0.9531(2) 0.2167(3)
F11_15 F 0.7944(2) 0.8965(3) 0.2048(3)
F12_15 F 0.7970(2) 0.9106(3) 0.2636(3)
N6_15 N 0.8470(2) 0.8133(2) 0.3308(2)
N7_15 N 0.83009(19) 0.7468(2) 0.32749(18)
N8_15 N 0.87690(19) 0.89031(17) 0.2641(2)
O9_15 O 0.8783(3) 0.85942(19) 0.3910(2)
O10_15 O 0.8655(4) 0.8139(3) 0.4385(2)
O11_15 O 0.8443(3) 0.7294(2) 0.4332(2)
O12_15 O 0.8295(2) 0.68844(19) 0.38293(16)
O13_15 O 0.92887(17) 0.8639(2) 0.31796(17)
C27_15 C 0.6743(3) 0.6003(3) 0.3684(4)
C28_15 C 0.7029(2) 0.6315(2) 0.3510(3)
C29_15 C 0.7430(3) 0.6331(3) 0.3397(3)
C30_15 C 0.7774(3) 0.6020(2) 0.3394(3)
C31_15 C 0.7171(3) 0.6904(3) 0.3347(3)
C32_15 C 0.7117(4) 0.7343(3) 0.3260(3)
C33_15 C 0.6340(4) 0.7161(3) 0.4431(3)
C34_15 C 0.6190(3) 0.7489(2) 0.4140(2)
C35_15 C 0.6107(3) 0.7898(3) 0.4169(2)
C36_15 C 0.6181(4) 0.8221(3) 0.4480(4)
C37_15 C 0.5957(2) 0.7689(3) 0.3590(2)
C38_15 C 0.5820(3) 0.7704(3) 0.3155(3)
F13_15 F 0.7420(2) 0.75166(15) 0.3081(2)
F14_15 F 0.7008(3) 0.75429(18) 0.3576(3)
F15_15 F 0.6806(2) 0.74343(18) 0.3037(3)
F16_15 F 0.5469(2) 0.7833(3) 0.3115(2)
F17_15 F 0.6035(3) 0.7952(3) 0.2944(2)
F18_15 F 0.5894(3) 0.7364(3) 0.2970(2)
N10_15 N 0.6867(2) 0.6692(2) 0.3470(2)
N11_15 N 0.7532(2) 0.67251(18) 0.33009(19)
N12_15 N 0.60969(17) 0.7359(2) 0.37690(19)
O17_15 O 0.64058(19) 0.6090(2) 0.3783(3)
O18_15 O 0.6861(3) 0.5615(2) 0.3655(4)
O19_15 O 0.7706(2) 0.5668(2) 0.3443(3)
O20_15 O 0.81156(19) 0.61707(16) 0.3295(2)
O21_15 O 0.6361(2) 0.68204(17) 0.42887(17)
C3_16 C 0.6003(3) 0.3684(4) 0.6743(3)
C4_16 C 0.6315(2) 0.3510(3) 0.7029(2)
C5_16 C 0.6331(3) 0.3397(3) 0.7430(3)
C6_16 C 0.6020(2) 0.3394(3) 0.7774(3)
C7_16 C 0.6904(3) 0.3347(3) 0.7171(3)
C8_16 C 0.7343(3) 0.3260(3) 0.7117(4)
C9_16 C 0.7161(3) 0.4431(3) 0.6340(4)
C10_16 C 0.7489(2) 0.4140(2) 0.6190(3)
C11_16 C 0.7898(3) 0.4169(2) 0.6107(3)
C12_16 C 0.8221(3) 0.4480(4) 0.6181(4)
C13_16 C 0.7689(3) 0.3590(2) 0.5957(2)
C14_16 C 0.7704(3) 0.3155(3) 0.5820(3)
F1_16 F 0.75166(15) 0.3081(2) 0.7420(2)
F2_16 F 0.75429(18) 0.3576(3) 0.7008(3)
F3_16 F 0.74343(18) 0.3037(3) 0.6806(2)
F4_16 F 0.7833(3) 0.3115(2) 0.5469(2)
F5_16 F 0.7952(3) 0.2944(2) 0.6035(3)
F6_16 F 0.7364(3) 0.2970(2) 0.5894(3)
Mn2_16 Mn 0.68222(4) 0.31778(4) 0.81778(4)
N2_16 N 0.6692(2) 0.3470(2) 0.6867(2)
N3_16 N 0.67251(18) 0.33009(19) 0.7532(2)
N4_16 N 0.7359(2) 0.37690(19) 0.60969(17)
O1_16 O 0.6090(2) 0.3783(3) 0.64058(19)
O2_16 O 0.5615(2) 0.3655(4) 0.6861(3)
O3_16 O 0.5668(2) 0.3443(3) 0.7706(2)
O4_16 O 0.61707(16) 0.3295(2) 0.81156(19)
O5_16 O 0.68204(17) 0.42887(17) 0.6361(2)
C15_16 C 0.6316(4) 0.1743(3) 0.8997(3)
C16_16 C 0.6490(3) 0.2029(2) 0.8685(2)
C17_16 C 0.6603(3) 0.2430(3) 0.8669(3)
C18_16 C 0.6606(3) 0.2774(3) 0.8980(2)
C19_16 C 0.6653(3) 0.2171(3) 0.8096(3)
C20_16 C 0.6740(3) 0.2117(4) 0.7657(3)
C21_16 C 0.5569(3) 0.1340(4) 0.7839(3)
C22_16 C 0.5860(2) 0.1190(3) 0.7511(2)
C23_16 C 0.5831(2) 0.1107(3) 0.7102(3)
C24_16 C 0.5520(4) 0.1181(4) 0.6779(3)
C25_16 C 0.6410(2) 0.0957(2) 0.7311(3)
C26_16 C 0.6845(3) 0.0820(3) 0.7296(3)
F7_16 F 0.6919(2) 0.2420(2) 0.74834(15)
F8_16 F 0.6424(3) 0.2008(3) 0.74571(18)
F9_16 F 0.6963(3) 0.1806(2) 0.75657(18)
F10_16 F 0.6885(2) 0.0469(2) 0.7167(3)
F11_16 F 0.7056(2) 0.1035(3) 0.7048(3)
F12_16 F 0.7030(2) 0.0894(3) 0.7636(3)
N6_16 N 0.6530(2) 0.1867(2) 0.8308(2)
N7_16 N 0.66991(19) 0.2532(2) 0.82749(18)
N8_16 N 0.62310(19) 0.10969(17) 0.7641(2)
O9_16 O 0.6217(3) 0.14058(19) 0.8910(2)
O10_16 O 0.6345(4) 0.1861(3) 0.9385(2)
O11_16 O 0.6557(3) 0.2706(2) 0.9332(2)
O12_16 O 0.6705(2) 0.31156(19) 0.88293(16)
O13_16 O 0.57113(17) 0.1361(2) 0.81796(17)
C27_16 C 0.8257(3) 0.3997(3) 0.8684(4)
C28_16 C 0.7971(2) 0.3685(2) 0.8510(3)
C29_16 C 0.7570(3) 0.3669(3) 0.8397(3)
C30_16 C 0.7226(3) 0.3980(2) 0.8394(3)
C31_16 C 0.7829(3) 0.3096(3) 0.8347(3)
C32_16 C 0.7883(4) 0.2657(3) 0.8260(3)
C33_16 C 0.8660(4) 0.2839(3) 0.9431(3)
C34_16 C 0.8810(3) 0.2511(2) 0.9140(2)
C35_16 C 0.8893(3) 0.2102(3) 0.9169(2)
C36_16 C 0.8819(4) 0.1779(3) 0.9480(4)
C37_16 C 0.9043(2) 0.2311(3) 0.8590(2)
C38_16 C 0.9180(3) 0.2296(3) 0.8155(3)
F13_16 F 0.7580(2) 0.24834(15) 0.8081(2)
F14_16 F 0.7992(3) 0.24571(18) 0.8576(3)
F15_16 F 0.8194(2) 0.25657(18) 0.8037(3)
F16_16 F 0.9531(2) 0.2167(3) 0.8115(2)
F17_16 F 0.8965(3) 0.2048(3) 0.7944(2)
F18_16 F 0.9106(3) 0.2636(3) 0.7970(2)
N10_16 N 0.8133(2) 0.3308(2) 0.8470(2)
N11_16 N 0.7468(2) 0.32749(18) 0.83009(19)
N12_16 N 0.89031(17) 0.2641(2) 0.87690(19)
O17_16 O 0.85942(19) 0.3910(2) 0.8783(3)
O18_16 O 0.8139(3) 0.4385(2) 0.8655(4)
O19_16 O 0.7294(2) 0.4332(2) 0.8443(3)
O20_16 O 0.68844(19) 0.38293(16) 0.8295(2)
O21_16 O 0.8639(2) 0.31796(17) 0.92887(17)
loop_
_geom_bond_atom_site_label_1
_geom_bond_atom_site_label_2
_geom_bond_site_symmetry_1
_geom_bond_site_symmetry_2
C1 H1 1_555 1_555
H2 C1 1_555 1_555
H3 C1 1_555 1_555
C2 H4 1_555 1_555
H5 C2 1_555 1_555
H6 C2 1_555 1_555
N1 C1 1_555 1_555
H7 N1 1_555 1_555
H8 N1 1_555 1_555
C2 N1 1_555 1_555
C1_2 H1_2 1_555 1_555
H2_2 C1_2 1_555 1_555
H3_2 C1_2 1_555 1_555
C2_2 H4_2 1_555 1_555
H5_2 C2_2 1_555 1_555
H6_2 C2_2 1_555 1_555
N1_2 C1_2 1_555 1_555
H7_2 N1_2 1_555 1_555
H8_2 N1_2 1_555 1_555
C2_2 N1_2 1_555 1_555
C1_3 H1_3 1_555 1_555
H2_3 C1_3 1_555 1_555
H3_3 C1_3 1_555 1_555
C2_3 H4_3 1_555 1_555
H5_3 C2_3 1_555 1_555
H6_3 C2_3 1_555 1_555
N1_3 C1_3 1_555 1_555
H7_3 N1_3 1_555 1_555
H8_3 N1_3 1_555 1_555
C2_3 N1_3 1_555 1_555
C1_4 H1_4 1_555 1_555
H2_4 C1_4 1_555 1_555
H3_4 C1_4 1_555 1_555
C2_4 H4_4 1_555 1_555
H5_4 C2_4 1_555 1_555
H6_4 C2_4 1_555 1_555
N1_4 C1_4 1_555 1_555
H7_4 N1_4 1_555 1_555
H8_4 N1_4 1_555 1_555
C2_4 N1_4 1_555 1_555
C1_5 H1_5 1_555 1_555
H2_5 C1_5 1_555 1_555
H3_5 C1_5 1_555 1_555
C2_5 H4_5 1_555 1_555
H5_5 C2_5 1_555 1_555
H6_5 C2_5 1_555 1_555
N1_5 C1_5 1_555 1_555
H7_5 N1_5 1_555 1_555
H8_5 N1_5 1_555 1_555
C2_5 N1_5 1_555 1_555
C1_6 H1_6 1_555 1_555
H2_6 C1_6 1_555 1_555
H3_6 C1_6 1_555 1_555
C2_6 H4_6 1_555 1_555
H5_6 C2_6 1_555 1_555
H6_6 C2_6 1_555 1_555
N1_6 C1_6 1_555 1_555
H7_6 N1_6 1_555 1_555
H8_6 N1_6 1_555 1_555
C2_6 N1_6 1_555 1_555
C1_7 H1_7 1_555 1_555
H2_7 C1_7 1_555 1_555
H3_7 C1_7 1_555 1_555
C2_7 H4_7 1_555 1_555
H5_7 C2_7 1_555 1_555
H6_7 C2_7 1_555 1_555
N1_7 C1_7 1_555 1_555
H7_7 N1_7 1_555 1_555
H8_7 N1_7 1_555 1_555
C2_7 N1_7 1_555 1_555
C1_8 H1_8 1_555 1_555
H2_8 C1_8 1_555 1_555
H3_8 C1_8 1_555 1_555
C2_8 H4_8 1_555 1_555
H5_8 C2_8 1_555 1_555
H6_8 C2_8 1_555 1_555
N1_8 C1_8 1_555 1_555
H7_8 N1_8 1_555 1_555
H8_8 N1_8 1_555 1_555
C2_8 N1_8 1_555 1_555
C1_9 H1_9 1_555 1_555
H2_9 C1_9 1_555 1_555
H3_9 C1_9 1_555 1_555
C2_9 H4_9 1_555 1_555
H5_9 C2_9 1_555 1_555
H6_9 C2_9 1_555 1_555
N1_9 C1_9 1_555 1_555
H7_9 N1_9 1_555 1_555
H8_9 N1_9 1_555 1_555
C2_9 N1_9 1_555 1_555
C1_10 H1_10 1_555 1_555
H2_10 C1_10 1_555 1_555
H3_10 C1_10 1_555 1_555
C2_10 H4_10 1_555 1_555
H5_10 C2_10 1_555 1_555
H6_10 C2_10 1_555 1_555
N1_10 C1_10 1_555 1_555
H7_10 N1_10 1_555 1_555
H8_10 N1_10 1_555 1_555
C2_10 N1_10 1_555 1_555
C1_11 H1_11 1_555 1_555
H2_11 C1_11 1_555 1_555
H3_11 C1_11 1_555 1_555
C2_11 H4_11 1_555 1_555
H5_11 C2_11 1_555 1_555
H6_11 C2_11 1_555 1_555
N1_11 C1_11 1_555 1_555
H7_11 N1_11 1_555 1_555
H8_11 N1_11 1_555 1_555
C2_11 N1_11 1_555 1_555
C1_12 H1_12 1_555 1_555
H2_12 C1_12 1_555 1_555
H3_12 C1_12 1_555 1_555
C2_12 H4_12 1_555 1_555
H5_12 C2_12 1_555 1_555
H6_12 C2_12 1_555 1_555
N1_12 C1_12 1_555 1_555
H7_12 N1_12 1_555 1_555
H8_12 N1_12 1_555 1_555
C2_12 N1_12 1_555 1_555
C1_13 H1_13 1_555 1_555
H2_13 C1_13 1_555 1_555
H3_13 C1_13 1_555 1_555
C2_13 H4_13 1_555 1_555
H5_13 C2_13 1_555 1_555
N1_13 C1_13 1_555 1_555
H7_13 N1_13 1_555 1_555
H8_13 N1_13 1_555 1_555
C2_13 N1_13 1_555 1_555
C1_14 H1_14 1_555 1_555
H2_14 C1_14 1_555 1_555
H3_14 C1_14 1_555 1_555
C2_14 H4_14 1_555 1_555
H5_14 C2_14 1_555 1_555
H6_14 C2_14 1_555 1_555
N1_14 C1_14 1_555 1_555
H7_14 N1_14 1_555 1_555
H8_14 N1_14 1_555 1_555
C2_14 N1_14 1_555 1_555
C1_15 H1_15 1_555 1_555
H2_15 C1_15 1_555 1_555
H3_15 C1_15 1_555 1_555
C2_15 H4_15 1_555 1_555
H5_15 C2_15 1_555 1_555
H6_15 C2_15 1_555 1_555
N1_15 C1_15 1_555 1_555
H7_15 N1_15 1_555 1_555
H8_15 N1_15 1_555 1_555
C2_15 N1_15 1_555 1_555
C1_16 H1_16 1_555 1_555
H2_16 C1_16 1_555 1_555
H3_16 C1_16 1_555 1_555
C2_16 H4_16 1_555 1_555
H5_16 C2_16 1_555 1_555
N1_16 C1_16 1_555 1_555
H7_16 N1_16 1_555 1_555
H8_16 N1_16 1_555 1_555
C2_16 N1_16 1_555 1_555
C1_17 H1_17 1_555 1_555
H2_17 C1_17 1_555 1_555
H3_17 C1_17 1_555 1_555
C2_17 H4_17 1_555 1_555
H5_17 C2_17 1_555 1_555
N1_17 C1_17 1_555 1_555
H7_17 N1_17 1_555 1_555
H8_17 N1_17 1_555 1_555
C2_17 N1_17 1_555 1_555
C1_18 H1_18 1_555 1_555
H2_18 C1_18 1_555 1_555
H3_18 C1_18 1_555 1_555
C2_18 H4_18 1_555 1_555
H5_18 C2_18 1_555 1_555
H6_18 C2_18 1_555 1_555
N1_18 C1_18 1_555 1_555
H7_18 N1_18 1_555 1_555
H8_18 N1_18 1_555 1_555
C2_18 N1_18 1_555 1_555
C1_19 H1_19 1_555 1_555
H2_19 C1_19 1_555 1_555
H3_19 C1_19 1_555 1_555
C2_19 H4_19 1_555 1_555
H5_19 C2_19 1_555 1_555
H6_19 C2_19 1_555 1_555
N1_19 C1_19 1_555 1_555
H7_19 N1_19 1_555 1_555
H8_19 N1_19 1_555 1_555
C2_19 N1_19 1_555 1_555
C1_20 H1_20 1_555 1_555
H2_20 C1_20 1_555 1_555
H3_20 C1_20 1_555 1_555
C2_20 H4_20 1_555 1_555
H5_20 C2_20 1_555 1_555
N1_20 C1_20 1_555 1_555
H7_20 N1_20 1_555 1_555
H8_20 N1_20 1_555 1_555
C2_20 N1_20 1_555 1_555
C1_21 H1_21 1_555 1_555
H2_21 C1_21 1_555 1_555
H3_21 C1_21 1_555 1_555
C2_21 H4_21 1_555 1_555
H5_21 C2_21 1_555 1_555
N1_21 C1_21 1_555 1_555
H7_21 N1_21 1_555 1_555
H8_21 N1_21 1_555 1_555
C2_21 N1_21 1_555 1_555
C1_22 H1_22 1_555 1_555
H2_22 C1_22 1_555 1_555
H3_22 C1_22 1_555 1_555
C2_22 H4_22 1_555 1_555
H5_22 C2_22 1_555 1_555
H6_22 C2_22 1_555 1_555
N1_22 C1_22 1_555 1_555
H7_22 N1_22 1_555 1_555
H8_22 N1_22 1_555 1_555
C2_22 N1_22 1_555 1_555
C1_23 H1_23 1_555 1_555
H2_23 C1_23 1_555 1_555
H3_23 C1_23 1_555 1_555
C2_23 H4_23 1_555 1_555
H5_23 C2_23 1_555 1_555
H6_23 C2_23 1_555 1_555
N1_23 C1_23 1_555 1_555
H7_23 N1_23 1_555 1_555
H8_23 N1_23 1_555 1_555
C2_23 N1_23 1_555 1_555
C1_24 H1_24 1_555 1_555
H2_24 C1_24 1_555 1_555
H3_24 C1_24 1_555 1_555
C2_24 H4_24 1_555 1_555
H5_24 C2_24 1_555 1_555
N1_24 C1_24 1_555 1_555
H7_24 N1_24 1_555 1_555
H8_24 N1_24 1_555 1_555
C2_24 N1_24 1_555 1_555
C1_25 H1_25 1_555 1_555
H2_25 C1_25 1_555 1_555
H3_25 C1_25 1_555 1_555
C2_25 H4_25 1_555 1_555
H5_25 C2_25 1_555 1_555
H6_25 C2_25 1_555 1_555
N1_25 C1_25 1_555 1_555
H7_25 N1_25 1_555 1_555
H8_25 N1_25 1_555 1_555
C2_25 N1_25 1_555 1_555
C1_26 H1_26 1_555 1_555
H2_26 C1_26 1_555 1_555
H3_26 C1_26 1_555 1_555
C2_26 H4_26 1_555 1_555
H5_26 C2_26 1_555 1_555
H6_26 C2_26 1_555 1_555
N1_26 C1_26 1_555 1_555
H7_26 N1_26 1_555 1_555
H8_26 N1_26 1_555 1_555
C2_26 N1_26 1_555 1_555
C1_27 H1_27 1_555 1_555
H2_27 C1_27 1_555 1_555
H3_27 C1_27 1_555 1_555
C2_27 H4_27 1_555 1_555
H5_27 C2_27 1_555 1_555
H6_27 C2_27 1_555 1_555
N1_27 C1_27 1_555 1_555
H7_27 N1_27 1_555 1_555
H8_27 N1_27 1_555 1_555
C2_27 N1_27 1_555 1_555
C1_28 H1_28 1_555 1_555
H2_28 C1_28 1_555 1_555
H3_28 C1_28 1_555 1_555
C2_28 H4_28 1_555 1_555
H5_28 C2_28 1_555 1_555
H6_28 C2_28 1_555 1_555
N1_28 C1_28 1_555 1_555
H7_28 N1_28 1_555 1_555
H8_28 N1_28 1_555 1_555
C2_28 N1_28 1_555 1_555
C1_29 H1_29 1_555 1_555
H2_29 C1_29 1_555 1_555
H3_29 C1_29 1_555 1_555
C2_29 H4_29 1_555 1_555
H5_29 C2_29 1_555 1_555
H6_29 C2_29 1_555 1_555
N1_29 C1_29 1_555 1_555
H7_29 N1_29 1_555 1_555
H8_29 N1_29 1_555 1_555
C2_29 N1_29 1_555 1_555
C1_30 H1_30 1_555 1_555
H2_30 C1_30 1_555 1_555
H3_30 C1_30 1_555 1_555
C2_30 H4_30 1_555 1_555
H5_30 C2_30 1_555 1_555
H6_30 C2_30 1_555 1_555
N1_30 C1_30 1_555 1_555
H7_30 N1_30 1_555 1_555
H8_30 N1_30 1_555 1_555
C2_30 N1_30 1_555 1_555
C1_31 H1_31 1_555 1_555
H2_31 C1_31 1_555 1_555
H3_31 C1_31 1_555 1_555
C2_31 H4_31 1_555 1_555
H5_31 C2_31 1_555 1_555
H6_31 C2_31 1_555 1_555
N1_31 C1_31 1_555 1_555
H7_31 N1_31 1_555 1_555
H8_31 N1_31 1_555 1_555
C2_31 N1_31 1_555 1_555
C1_32 H1_32 1_555 1_555
H2_32 C1_32 1_555 1_555
H3_32 C1_32 1_555 1_555
C2_32 H4_32 1_555 1_555
H5_32 C2_32 1_555 1_555
H6_32 C2_32 1_555 1_555
N1_32 C1_32 1_555 1_555
H7_32 N1_32 1_555 1_555
H8_32 N1_32 1_555 1_555
C2_32 N1_32 1_555 1_555
C1_33 H1_33 1_555 1_555
H2_33 C1_33 1_555 1_555
H3_33 C1_33 1_555 1_555
C2_33 H4_33 1_555 1_555
H5_33 C2_33 1_555 1_555
H6_33 C2_33 1_555 1_555
N1_33 C1_33 1_555 1_555
H7_33 N1_33 1_555 1_555
H8_33 N1_33 1_555 1_555
C2_33 N1_33 1_555 1_555
C1_34 H1_34 1_555 1_555
H2_34 C1_34 1_555 1_555
H3_34 C1_34 1_555 1_555
C2_34 H4_34 1_555 1_555
H5_34 C2_34 1_555 1_555
H6_34 C2_34 1_555 1_555
N1_34 C1_34 1_555 1_555
H7_34 N1_34 1_555 1_555
H8_34 N1_34 1_555 1_555
C2_34 N1_34 1_555 1_555
C1_35 H1_35 1_555 1_555
H2_35 C1_35 1_555 1_555
H3_35 C1_35 1_555 1_555
C2_35 H4_35 1_555 1_555
H5_35 C2_35 1_555 1_555
H6_35 C2_35 1_555 1_555
N1_35 C1_35 1_555 1_555
H7_35 N1_35 1_555 1_555
H8_35 N1_35 1_555 1_555
C2_35 N1_35 1_555 1_555
C1_36 H1_36 1_555 1_555
H2_36 C1_36 1_555 1_555
H3_36 C1_36 1_555 1_555
C2_36 H4_36 1_555 1_555
H5_36 C2_36 1_555 1_555
H6_36 C2_36 1_555 1_555
N1_36 C1_36 1_555 1_555
H7_36 N1_36 1_555 1_555
H8_36 N1_36 1_555 1_555
C2_36 N1_36 1_555 1_555
C1_37 H1_37 1_555 1_555
H2_37 C1_37 1_555 1_555
H3_37 C1_37 1_555 1_555
C2_37 H4_37 1_555 1_555
H5_37 C2_37 1_555 1_555
H6_37 C2_37 1_555 1_555
N1_37 C1_37 1_555 1_555
H7_37 N1_37 1_555 1_555
H8_37 N1_37 1_555 1_555
C2_37 N1_37 1_555 1_555
C1_38 H1_38 1_555 1_555
H2_38 C1_38 1_555 1_555
H3_38 C1_38 1_555 1_555
C2_38 H4_38 1_555 1_555
H5_38 C2_38 1_555 1_555
N1_38 C1_38 1_555 1_555
H7_38 N1_38 1_555 1_555
H8_38 N1_38 1_555 1_555
C2_38 N1_38 1_555 1_555
C1_39 H1_39 1_555 1_555
H2_39 C1_39 1_555 1_555
H3_39 C1_39 1_555 1_555
C2_39 H4_39 1_555 1_555
H5_39 C2_39 1_555 1_555
N1_39 C1_39 1_555 1_555
H7_39 N1_39 1_555 1_555
H8_39 N1_39 1_555 1_555
C2_39 N1_39 1_555 1_555
C1_40 H1_40 1_555 1_555
H2_40 C1_40 1_555 1_555
H3_40 C1_40 1_555 1_555
C2_40 H4_40 1_555 1_555
H5_40 C2_40 1_555 1_555
H6_40 C2_40 1_555 1_555
N1_40 C1_40 1_555 1_555
H7_40 N1_40 1_555 1_555
H8_40 N1_40 1_555 1_555
C2_40 N1_40 1_555 1_555
C1_41 H1_41 1_555 1_555
H2_41 C1_41 1_555 1_555
H3_41 C1_41 1_555 1_555
C2_41 H4_41 1_555 1_555
H5_41 C2_41 1_555 1_555
H6_41 C2_41 1_555 1_555
N1_41 C1_41 1_555 1_555
H7_41 N1_41 1_555 1_555
H8_41 N1_41 1_555 1_555
C2_41 N1_41 1_555 1_555
C1_42 H1_42 1_555 1_555
H2_42 C1_42 1_555 1_555
H3_42 C1_42 1_555 1_555
C2_42 H4_42 1_555 1_555
H5_42 C2_42 1_555 1_555
N1_42 C1_42 1_555 1_555
H7_42 N1_42 1_555 1_555
H8_42 N1_42 1_555 1_555
C2_42 N1_42 1_555 1_555
C1_43 H1_43 1_555 1_555
H2_43 C1_43 1_555 1_555
H3_43 C1_43 1_555 1_555
C2_43 H4_43 1_555 1_555
H5_43 C2_43 1_555 1_555
N1_43 C1_43 1_555 1_555
H7_43 N1_43 1_555 1_555
H8_43 N1_43 1_555 1_555
C2_43 N1_43 1_555 1_555
C1_44 H1_44 1_555 1_555
H2_44 C1_44 1_555 1_555
H3_44 C1_44 1_555 1_555
C2_44 H4_44 1_555 1_555
H5_44 C2_44 1_555 1_555
H6_44 C2_44 1_555 1_555
N1_44 C1_44 1_555 1_555
H7_44 N1_44 1_555 1_555
H8_44 N1_44 1_555 1_555
C2_44 N1_44 1_555 1_555
C1_45 H1_45 1_555 1_555
H2_45 C1_45 1_555 1_555
H3_45 C1_45 1_555 1_555
C2_45 H4_45 1_555 1_555
H5_45 C2_45 1_555 1_555
H6_45 C2_45 1_555 1_555
N1_45 C1_45 1_555 1_555
H7_45 N1_45 1_555 1_555
H8_45 N1_45 1_555 1_555
C2_45 N1_45 1_555 1_555
C1_46 H1_46 1_555 1_555
H2_46 C1_46 1_555 1_555
H3_46 C1_46 1_555 1_555
C2_46 H4_46 1_555 1_555
H5_46 C2_46 1_555 1_555
N1_46 C1_46 1_555 1_555
H7_46 N1_46 1_555 1_555
H8_46 N1_46 1_555 1_555
C2_46 N1_46 1_555 1_555
C1_47 H1_47 1_555 1_555
H2_47 C1_47 1_555 1_555
H3_47 C1_47 1_555 1_555
C2_47 H4_47 1_555 1_555
H5_47 C2_47 1_555 1_555
N1_47 C1_47 1_555 1_555
H7_47 N1_47 1_555 1_555
H8_47 N1_47 1_555 1_555
C2_47 N1_47 1_555 1_555
C1_48 H1_48 1_555 1_555
H2_48 C1_48 1_555 1_555
H3_48 C1_48 1_555 1_555
C2_48 H4_48 1_555 1_555
H5_48 C2_48 1_555 1_555
H6_48 C2_48 1_555 1_555
N1_48 C1_48 1_555 1_555
H7_48 N1_48 1_555 1_555
H8_48 N1_48 1_555 1_555
C2_48 N1_48 1_555 1_555
C3 C4 1_555 1_555
C4 C5 1_555 1_555
C7 C8 1_555 1_555
C8 F1 1_555 1_555
C9 C10 1_555 1_555
C10 C11 1_555 1_555
C11 C12 1_555 1_555
C12 O7 1_555 1_555
C13 C14 1_555 1_555
C14 F4 1_555 1_555
F2 C8 1_555 1_555
F3 C8 1_555 1_555
F5 C14 1_555 1_555
F6 C14 1_555 1_555
Mn1 N2 1_555 1_555
Mn3 O2 1_555 1_555
N2 C4 1_555 1_555
N4 C10 1_555 1_555
N5 C11 1_555 1_555
O1 C3 1_555 1_555
O2 C3 1_555 1_555
O5 C9 1_555 1_555
O6 C9 1_555 1_555
O7 Mn13 1_555 1_555
O8 C12 1_555 1_555
Mn9 N5 1_555 1_555
Mn13 O6 1_555 1_555
N15 Mn1 1_555 1_555
O29 Mn3 1_555 1_555
O32 Mn1 1_555 1_555
C7 N2 1_555 1_555
C13 N4 1_555 1_555
C13 N5 1_555 1_555
Mn1 N4 1_555 1_555
Mn1 O1 1_555 1_555
Mn1 O5 1_555 1_555
O8 Mn9 1_555 1_555
C6 O3 1_555 1_555
Mn2 N3 1_555 1_555
O4 C6 1_555 1_555
C18 O11 1_555 1_555
N7 Mn2 1_555 1_555
O12 Mn2 1_555 1_555
C27 C28 1_555 1_555
C28 C29 1_555 1_555
C29 C30 1_555 1_555
C30 O19 1_555 1_555
C31 C32 1_555 1_555
C33 C34 1_555 1_555
F15 C32 1_555 1_555
Mn6 N10 1_555 1_555
Mn7 O18 1_555 1_555
N10 C28 1_555 1_555
N11 Mn2 1_555 1_555
N12 C34 1_555 1_555
O17 C27 1_555 1_555
O18 C27 1_555 1_555
O19 Mn7 1_555 1_555
O20 Mn2 1_555 1_555
O21 C33 1_555 1_555
O22 C33 1_555 1_555
N16 Mn6 1_555 1_555
O25 Mn7 1_555 1_555
O28 Mn7 1_555 1_555
O33 Mn6 1_555 1_555
Mn2 O4 1_555 1_555
C18 O12 1_555 1_555
C29 N11 1_555 1_555
C30 O20 1_555 1_555
C31 N10 1_555 1_555
C31 N11 1_555 1_555
Mn6 N12 1_555 1_555
Mn6 O17 1_555 1_555
Mn6 O21 1_555 1_555
C23 C24 1_555 1_555
C24 O15 1_555 1_555
C25 C26 1_555 1_555
C26 F10 1_555 1_555
F11 C26 1_555 1_555
N9 C23 1_555 1_555
O15 Mn11 1_555 1_555
O16 C24 1_555 1_555
Mn8 N9 1_555 1_555
C25 N9 1_555 1_555
O16 Mn8 1_555 1_555
C15 C16 1_555 1_555
C16 C17 1_555 1_555
C19 C20 1_555 1_555
C21 C22 1_555 1_555
F9 C20 1_555 1_555
Mn4 N6 1_555 1_555
Mn5 O10 1_555 1_555
N6 C16 1_555 1_555
N8 C22 1_555 1_555
O9 C15 1_555 1_555
O10 C15 1_555 1_555
O13 C21 1_555 1_555
O14 C21 1_555 1_555
C35 C36 1_555 1_555
C36 O23 1_555 1_555
C37 C38 1_555 1_555
C38 F16 1_555 1_555
F17 C38 1_555 1_555
N13 C35 1_555 1_555
O23 Mn12 1_555 1_555
O24 C36 1_555 1_555
Mn10 N13 1_555 1_555
N14 Mn4 1_555 1_555
O30 Mn5 1_555 1_555
O31 Mn4 1_555 1_555
C19 N6 1_555 1_555
Mn4 N8 1_555 1_555
Mn4 O9 1_555 1_555
Mn4 O13 1_555 1_555
C37 N13 1_555 1_555
O24 Mn10 1_555 1_555
C3_2 C4_2 1_555 1_555
C4_2 C5_2 1_555 1_555
C5_2 C6_2 1_555 1_555
C6_2 O3_2 1_555 1_555
C7_2 C8_2 1_555 1_555
C8_2 F1_2 1_555 1_555
C9_2 C10_2 1_555 1_555
C10_2 C11_2 1_555 1_555
C11_2 C12_2 1_555 1_555
C12_2 O7_2 1_555 1_555
C13_2 C14_2 1_555 1_555
C14_2 F4_2 1_555 1_555
F2_2 C8_2 1_555 1_555
F3_2 C8_2 1_555 1_555
F5_2 C14_2 1_555 1_555
F6_2 C14_2 1_555 1_555
Mn1_2 N2_2 1_555 1_555
Mn2_2 N3_2 1_555 1_555
Mn3_2 O2_2 1_555 1_555
N2_2 C4_2 1_555 1_555
N3_2 C5_2 1_555 1_555
N4_2 C10_2 1_555 1_555
N5_2 C11_2 1_555 1_555
O1_2 C3_2 1_555 1_555
O2_2 C3_2 1_555 1_555
O3_2 Mn3_2 1_555 1_555
O4_2 C6_2 1_555 1_555
O5_2 C9_2 1_555 1_555
O6_2 C9_2 1_555 1_555
O7_2 Mn13_2 1_555 1_555
O8_2 C12_2 1_555 1_555
C15_2 C16_2 1_555 1_555
C16_2 C17_2 1_555 1_555
C17_2 C18_2 1_555 1_555
C18_2 O11_2 1_555 1_555
C19_2 C20_2 1_555 1_555
C20_2 F7_2 1_555 1_555
C21_2 C22_2 1_555 1_555
C22_2 C23_2 1_555 1_555
C23_2 C24_2 1_555 1_555
C24_2 O15_2 1_555 1_555
C25_2 C26_2 1_555 1_555
C26_2 F10_2 1_555 1_555
F8_2 C20_2 1_555 1_555
F9_2 C20_2 1_555 1_555
F11_2 C26_2 1_555 1_555
F12_2 C26_2 1_555 1_555
Mn4_2 N6_2 1_555 1_555
Mn5_2 O10_2 1_555 1_555
N6_2 C16_2 1_555 1_555
N7_2 Mn2_2 1_555 1_555
N8_2 C22_2 1_555 1_555
N9_2 C23_2 1_555 1_555
O9_2 C15_2 1_555 1_555
O10_2 C15_2 1_555 1_555
O11_2 Mn5_2 1_555 1_555
O12_2 Mn2_2 1_555 1_555
O13_2 C21_2 1_555 1_555
O14_2 C21_2 1_555 1_555
O15_2 Mn11_2 1_555 1_555
O16_2 C24_2 1_555 1_555
C27_2 C28_2 1_555 1_555
C28_2 C29_2 1_555 1_555
C29_2 C30_2 1_555 1_555
C30_2 O19_2 1_555 1_555
C31_2 C32_2 1_555 1_555
C32_2 F13_2 1_555 1_555
C33_2 C34_2 1_555 1_555
C34_2 C35_2 1_555 1_555
C35_2 C36_2 1_555 1_555
C36_2 O23_2 1_555 1_555
C37_2 C38_2 1_555 1_555
C38_2 F16_2 1_555 1_555
F14_2 C32_2 1_555 1_555
F15_2 C32_2 1_555 1_555
F17_2 C38_2 1_555 1_555
F18_2 C38_2 1_555 1_555
Mn6_2 N10_2 1_555 1_555
Mn7_2 O18_2 1_555 1_555
N10_2 C28_2 1_555 1_555
N11_2 Mn2_2 1_555 1_555
N12_2 C34_2 1_555 1_555
N13_2 C35_2 1_555 1_555
O17_2 C27_2 1_555 1_555
O18_2 C27_2 1_555 1_555
O19_2 Mn7_2 1_555 1_555
O20_2 Mn2_2 1_555 1_555
O21_2 C33_2 1_555 1_555
O22_2 C33_2 1_555 1_555
O23_2 Mn12_2 1_555 1_555
O24_2 C36_2 1_555 1_555
Mn8_2 N9_2 1_555 1_555
Mn9_2 N5_2 1_555 1_555
Mn10_2 N13_2 1_555 1_555
Mn11_2 O14_2 1_555 1_555
Mn12_2 O22_2 1_555 1_555
Mn13_2 O6_2 1_555 1_555
N14_2 Mn4_2 1_555 1_555
N15_2 Mn1_2 1_555 1_555
N16_2 Mn6_2 1_555 1_555
O25_2 Mn7_2 1_555 1_555
O26_2 Mn3_2 1_555 1_555
O27_2 Mn5_2 1_555 1_555
O28_2 Mn7_2 1_555 1_555
O29_2 Mn3_2 1_555 1_555
O30_2 Mn5_2 1_555 1_555
O31_2 Mn4_2 1_555 1_555
O32_2 Mn1_2 1_555 1_555
O33_2 Mn6_2 1_555 1_555
C7_2 N2_2 1_555 1_555
C7_2 N3_2 1_555 1_555
C13_2 N4_2 1_555 1_555
C13_2 N5_2 1_555 1_555
Mn1_2 N4_2 1_555 1_555
Mn1_2 O1_2 1_555 1_555
Mn1_2 O5_2 1_555 1_555
Mn2_2 O4_2 1_555 1_555
O8_2 Mn9_2 1_555 1_555
C17_2 N7_2 1_555 1_555
C18_2 O12_2 1_555 1_555
C19_2 N6_2 1_555 1_555
C19_2 N7_2 1_555 1_555
C25_2 N8_2 1_555 1_555
C25_2 N9_2 1_555 1_555
Mn4_2 N8_2 1_555 1_555
Mn4_2 O9_2 1_555 1_555
Mn4_2 O13_2 1_555 1_555
O16_2 Mn8_2 1_555 1_555
C29_2 N11_2 1_555 1_555
C30_2 O20_2 1_555 1_555
C31_2 N10_2 1_555 1_555
C31_2 N11_2 1_555 1_555
C37_2 N12_2 1_555 1_555
C37_2 N13_2 1_555 1_555
Mn6_2 N12_2 1_555 1_555
Mn6_2 O17_2 1_555 1_555
Mn6_2 O21_2 1_555 1_555
O24_2 Mn10_2 1_555 1_555
C15_3 C16_3 1_555 1_555
C16_3 C17_3 1_555 1_555
C19_3 C20_3 1_555 1_555
C20_3 F7_3 1_555 1_555
C21_3 C22_3 1_555 1_555
C22_3 C23_3 1_555 1_555
C23_3 C24_3 1_555 1_555
C24_3 O15_3 1_555 1_555
C25_3 C26_3 1_555 1_555
C26_3 F10_3 1_555 1_555
F8_3 C20_3 1_555 1_555
F9_3 C20_3 1_555 1_555
F11_3 C26_3 1_555 1_555
F12_3 C26_3 1_555 1_555
Mn4_3 N6_3 1_555 1_555
Mn5_3 O10_3 1_555 1_555
N6_3 C16_3 1_555 1_555
N8_3 C22_3 1_555 1_555
N9_3 C23_3 1_555 1_555
O9_3 C15_3 1_555 1_555
O10_3 C15_3 1_555 1_555
O13_3 C21_3 1_555 1_555
O14_3 C21_3 1_555 1_555
O15_3 Mn11_3 1_555 1_555
O16_3 C24_3 1_555 1_555
Mn8_3 N9_3 1_555 1_555
Mn11_3 O14_3 1_555 1_555
N14_3 Mn4_3 1_555 1_555
O30_3 Mn5_3 1_555 1_555
O31_3 Mn4_3 1_555 1_555
C19_3 N6_3 1_555 1_555
C25_3 N8_3 1_555 1_555
C25_3 N9_3 1_555 1_555
Mn4_3 N8_3 1_555 1_555
Mn4_3 O9_3 1_555 1_555
Mn4_3 O13_3 1_555 1_555
O16_3 Mn8_3 1_555 1_555
C35_3 C36_3 1_555 1_555
C36_3 O23_3 1_555 1_555
C37_3 C38_3 1_555 1_555
C38_3 F16_3 1_555 1_555
F17_3 C38_3 1_555 1_555
N13_3 C35_3 1_555 1_555
O23_3 Mn12_3 1_555 1_555
O24_3 C36_3 1_555 1_555
Mn10_3 N13_3 1_555 1_555
C37_3 N13_3 1_555 1_555
O24_3 Mn10_3 1_555 1_555
C3_3 C4_3 1_555 1_555
C4_3 C5_3 1_555 1_555
C5_3 C6_3 1_555 1_555
C6_3 O3_3 1_555 1_555
C7_3 C8_3 1_555 1_555
C9_3 C10_3 1_555 1_555
F3_3 C8_3 1_555 1_555
Mn1_3 N2_3 1_555 1_555
Mn2_3 N3_3 1_555 1_555
Mn3_3 O2_3 1_555 1_555
N2_3 C4_3 1_555 1_555
N3_3 C5_3 1_555 1_555
N4_3 C10_3 1_555 1_555
O1_3 C3_3 1_555 1_555
O2_3 C3_3 1_555 1_555
O3_3 Mn3_3 1_555 1_555
O4_3 C6_3 1_555 1_555
O5_3 C9_3 1_555 1_555
O6_3 C9_3 1_555 1_555
C18_3 O11_3 1_555 1_555
N7_3 Mn2_3 1_555 1_555
O12_3 Mn2_3 1_555 1_555
C30_3 O19_3 1_555 1_555
N11_3 Mn2_3 1_555 1_555
O20_3 Mn2_3 1_555 1_555
N15_3 Mn1_3 1_555 1_555
O26_3 Mn3_3 1_555 1_555
O29_3 Mn3_3 1_555 1_555
O32_3 Mn1_3 1_555 1_555
C7_3 N2_3 1_555 1_555
C7_3 N3_3 1_555 1_555
Mn1_3 N4_3 1_555 1_555
Mn1_3 O1_3 1_555 1_555
Mn1_3 O5_3 1_555 1_555
Mn2_3 O4_3 1_555 1_555
C18_3 O12_3 1_555 1_555
C30_3 O20_3 1_555 1_555
C11_3 C12_3 1_555 1_555
C12_3 O7_3 1_555 1_555
C13_3 C14_3 1_555 1_555
C14_3 F4_3 1_555 1_555
F5_3 C14_3 1_555 1_555
N5_3 C11_3 1_555 1_555
O7_3 Mn13_3 1_555 1_555
O8_3 C12_3 1_555 1_555
C27_3 C28_3 1_555 1_555
C28_3 C29_3 1_555 1_555
C31_3 C32_3 1_555 1_555
C33_3 C34_3 1_555 1_555
F15_3 C32_3 1_555 1_555
Mn6_3 N10_3 1_555 1_555
Mn7_3 O18_3 1_555 1_555
N10_3 C28_3 1_555 1_555
N12_3 C34_3 1_555 1_555
O17_3 C27_3 1_555 1_555
O18_3 C27_3 1_555 1_555
O21_3 C33_3 1_555 1_555
O22_3 C33_3 1_555 1_555
Mn9_3 N5_3 1_555 1_555
N16_3 Mn6_3 1_555 1_555
O28_3 Mn7_3 1_555 1_555
O33_3 Mn6_3 1_555 1_555
C13_3 N5_3 1_555 1_555
O8_3 Mn9_3 1_555 1_555
C31_3 N10_3 1_555 1_555
Mn6_3 N12_3 1_555 1_555
Mn6_3 O17_3 1_555 1_555
Mn6_3 O21_3 1_555 1_555
C27_4 C28_4 1_555 1_555
C28_4 C29_4 1_555 1_555
C31_4 C32_4 1_555 1_555
C32_4 F13_4 1_555 1_555
C33_4 C34_4 1_555 1_555
C34_4 C35_4 1_555 1_555
C35_4 C36_4 1_555 1_555
C36_4 O23_4 1_555 1_555
C37_4 C38_4 1_555 1_555
C38_4 F16_4 1_555 1_555
F14_4 C32_4 1_555 1_555
F15_4 C32_4 1_555 1_555
F17_4 C38_4 1_555 1_555
F18_4 C38_4 1_555 1_555
Mn6_4 N10_4 1_555 1_555
Mn7_4 O18_4 1_555 1_555
N10_4 C28_4 1_555 1_555
N12_4 C34_4 1_555 1_555
N13_4 C35_4 1_555 1_555
O17_4 C27_4 1_555 1_555
O18_4 C27_4 1_555 1_555
O21_4 C33_4 1_555 1_555
O22_4 C33_4 1_555 1_555
O23_4 Mn12_4 1_555 1_555
O24_4 C36_4 1_555 1_555
Mn10_4 N13_4 1_555 1_555
Mn12_4 O22_4 1_555 1_555
N16_4 Mn6_4 1_555 1_555
O28_4 Mn7_4 1_555 1_555
O33_4 Mn6_4 1_555 1_555
C31_4 N10_4 1_555 1_555
C37_4 N12_4 1_555 1_555
C37_4 N13_4 1_555 1_555
Mn6_4 N12_4 1_555 1_555
Mn6_4 O17_4 1_555 1_555
Mn6_4 O21_4 1_555 1_555
O24_4 Mn10_4 1_555 1_555
C11_4 C12_4 1_555 1_555
C12_4 O7_4 1_555 1_555
C13_4 C14_4 1_555 1_555
C14_4 F4_4 1_555 1_555
F5_4 C14_4 1_555 1_555
N5_4 C11_4 1_555 1_555
O7_4 Mn13_4 1_555 1_555
O8_4 C12_4 1_555 1_555
Mn9_4 N5_4 1_555 1_555
C13_4 N5_4 1_555 1_555
O8_4 Mn9_4 1_555 1_555
C6_4 O3_4 1_555 1_555
Mn2_4 N3_4 1_555 1_555
O4_4 C6_4 1_555 1_555
C15_4 C16_4 1_555 1_555
C16_4 C17_4 1_555 1_555
C17_4 C18_4 1_555 1_555
C18_4 O11_4 1_555 1_555
C19_4 C20_4 1_555 1_555
C21_4 C22_4 1_555 1_555
F9_4 C20_4 1_555 1_555
Mn4_4 N6_4 1_555 1_555
Mn5_4 O10_4 1_555 1_555
N6_4 C16_4 1_555 1_555
N7_4 Mn2_4 1_555 1_555
N8_4 C22_4 1_555 1_555
O9_4 C15_4 1_555 1_555
O10_4 C15_4 1_555 1_555
O11_4 Mn5_4 1_555 1_555
O12_4 Mn2_4 1_555 1_555
O13_4 C21_4 1_555 1_555
O14_4 C21_4 1_555 1_555
C30_4 O19_4 1_555 1_555
N11_4 Mn2_4 1_555 1_555
O20_4 Mn2_4 1_555 1_555
N14_4 Mn4_4 1_555 1_555
O27_4 Mn5_4 1_555 1_555
O30_4 Mn5_4 1_555 1_555
O31_4 Mn4_4 1_555 1_555
Mn2_4 O4_4 1_555 1_555
C17_4 N7_4 1_555 1_555
C18_4 O12_4 1_555 1_555
C19_4 N6_4 1_555 1_555
C19_4 N7_4 1_555 1_555
Mn4_4 N8_4 1_555 1_555
Mn4_4 O9_4 1_555 1_555
Mn4_4 O13_4 1_555 1_555
C30_4 O20_4 1_555 1_555
C3_4 C4_4 1_555 1_555
C4_4 C5_4 1_555 1_555
C7_4 C8_4 1_555 1_555
C9_4 C10_4 1_555 1_555
F3_4 C8_4 1_555 1_555
Mn1_4 N2_4 1_555 1_555
Mn3_4 O2_4 1_555 1_555
N2_4 C4_4 1_555 1_555
N4_4 C10_4 1_555 1_555
O1_4 C3_4 1_555 1_555
O2_4 C3_4 1_555 1_555
O5_4 C9_4 1_555 1_555
O6_4 C9_4 1_555 1_555
C23_4 C24_4 1_555 1_555
C24_4 O15_4 1_555 1_555
C25_4 C26_4 1_555 1_555
C26_4 F10_4 1_555 1_555
F11_4 C26_4 1_555 1_555
N9_4 C23_4 1_555 1_555
O15_4 Mn11_4 1_555 1_555
O16_4 C24_4 1_555 1_555
Mn8_4 N9_4 1_555 1_555
N15_4 Mn1_4 1_555 1_555
O29_4 Mn3_4 1_555 1_555
O32_4 Mn1_4 1_555 1_555
C7_4 N2_4 1_555 1_555
Mn1_4 N4_4 1_555 1_555
Mn1_4 O1_4 1_555 1_555
Mn1_4 O5_4 1_555 1_555
C25_4 N9_4 1_555 1_555
O16_4 Mn8_4 1_555 1_555
C3_5 C4_5 1_555 1_555
C4_5 C5_5 1_555 1_555
C5_5 C6_5 1_555 1_555
C6_5 O3_5 1_555 1_555
C7_5 C8_5 1_555 1_555
C8_5 F1_5 1_555 1_555
C9_5 C10_5 1_555 1_555
C10_5 C11_5 1_555 1_555
C11_5 C12_5 1_555 1_555
C12_5 O7_5 1_555 1_555
C13_5 C14_5 1_555 1_555
C14_5 F4_5 1_555 1_555
F2_5 C8_5 1_555 1_555
F3_5 C8_5 1_555 1_555
F5_5 C14_5 1_555 1_555
F6_5 C14_5 1_555 1_555
Mn1_5 N2_5 1_555 1_555
Mn2_5 N3_5 1_555 1_555
Mn3_5 O2_5 1_555 1_555
N2_5 C4_5 1_555 1_555
N3_5 C5_5 1_555 1_555
N4_5 C10_5 1_555 1_555
N14_2 C11_5 1_555 1_555
O1_5 C3_5 1_555 1_555
O2_5 C3_5 1_555 1_555
O3_5 Mn3_5 1_555 1_555
O4_5 C6_5 1_555 1_555
O5_5 C9_5 1_555 1_555
O6_5 C9_5 1_555 1_555
O7_5 Mn13_5 1_555 1_555
O31_2 C12_5 1_555 1_555
C15_5 C16_5 1_555 1_555
C16_5 C17_5 1_555 1_555
C17_5 C18_5 1_555 1_555
C18_5 O11_5 1_555 1_555
C19_5 C20_5 1_555 1_555
C20_5 F7_5 1_555 1_555
C21_5 C22_5 1_555 1_555
C22_5 C23_5 1_555 1_555
C23_5 C24_5 1_555 1_555
C24_5 O15_5 1_555 1_555
C25_5 C26_5 1_555 1_555
C26_5 F10_5 1_555 1_555
F8_5 C20_5 1_555 1_555
F9_5 C20_5 1_555 1_555
F11_5 C26_5 1_555 1_555
F12_5 C26_5 1_555 1_555
Mn4_5 N6_5 1_555 1_555
Mn5_5 O10_5 1_555 1_555
N6_5 C16_5 1_555 1_555
N7_5 Mn2_5 1_555 1_555
N8_5 C22_5 1_555 1_555
N15_3 C23_5 1_555 1_555
O9_5 C15_5 1_555 1_555
O10_5 C15_5 1_555 1_555
O11_5 Mn5_5 1_555 1_555
O12_5 Mn2_5 1_555 1_555
O13_5 C21_5 1_555 1_555
O14_5 C21_5 1_555 1_555
O32_3 C24_5 1_555 1_555
C27_5 C28_5 1_555 1_555
C28_5 C29_5 1_555 1_555
C29_5 C30_5 1_555 1_555
C30_5 O19_5 1_555 1_555
C31_5 C32_5 1_555 1_555
C32_5 F13_5 1_555 1_555
C33_5 C34_5 1_555 1_555
C34_5 C35_5 1_555 1_555
C35_5 C36_5 1_555 1_555
C36_5 O23_5 1_555 1_555
C37_5 C38_5 1_555 1_555
C38_5 F16_5 1_555 1_555
F14_5 C32_5 1_555 1_555
F15_5 C32_5 1_555 1_555
F17_5 C38_5 1_555 1_555
F18_5 C38_5 1_555 1_555
Mn6_5 N10_5 1_555 1_555
Mn7_5 O18_5 1_555 1_555
N10_5 C28_5 1_555 1_555
N11_5 Mn2_5 1_555 1_555
N12_5 C34_5 1_555 1_555
N16_4 C35_5 1_555 1_555
O17_5 C27_5 1_555 1_555
O18_5 C27_5 1_555 1_555
O19_5 Mn7_5 1_555 1_555
O20_5 Mn2_5 1_555 1_555
O21_5 C33_5 1_555 1_555
O22_5 C33_5 1_555 1_555
O33_4 C36_5 1_555 1_555
Mn13_5 O6_5 1_555 1_555
N14_5 Mn4_5 1_555 1_555
N15_5 Mn1_5 1_555 1_555
N16_5 Mn6_5 1_555 1_555
O25_5 Mn7_5 1_555 1_555
O28_5 Mn7_5 1_555 1_555
O31_5 Mn4_5 1_555 1_555
O32_5 Mn1_5 1_555 1_555
O33_5 Mn6_5 1_555 1_555
C7_5 N2_5 1_555 1_555
C7_5 N3_5 1_555 1_555
C13_5 N4_5 1_555 1_555
C13_5 N14_2 1_555 1_555
Mn1_5 N4_5 1_555 1_555
Mn1_5 O1_5 1_555 1_555
Mn1_5 O5_5 1_555 1_555
Mn2_5 O4_5 1_555 1_555
C17_5 N7_5 1_555 1_555
C18_5 O12_5 1_555 1_555
C19_5 N6_5 1_555 1_555
C19_5 N7_5 1_555 1_555
C25_5 N8_5 1_555 1_555
C25_5 N15_3 1_555 1_555
Mn4_5 N8_5 1_555 1_555
Mn4_5 O9_5 1_555 1_555
Mn4_5 O13_5 1_555 1_555
C29_5 N11_5 1_555 1_555
C30_5 O20_5 1_555 1_555
C31_5 N10_5 1_555 1_555
C31_5 N11_5 1_555 1_555
C37_5 N12_5 1_555 1_555
C37_5 N16_4 1_555 1_555
Mn6_5 N12_5 1_555 1_555
Mn6_5 O17_5 1_555 1_555
Mn6_5 O21_5 1_555 1_555
C3_6 C4_6 1_555 1_555
C4_6 C5_6 1_555 1_555
C5_6 C6_6 1_555 1_555
C6_6 O3_6 1_555 1_555
C7_6 C8_6 1_555 1_555
C8_6 F1_6 1_555 1_555
C9_6 C10_6 1_555 1_555
C10_6 C11_6 1_555 1_555
C11_6 C12_6 1_555 1_555
C12_6 O7_6 1_555 1_555
C13_6 C14_6 1_555 1_555
C14_6 F4_6 1_555 1_555
F2_6 C8_6 1_555 1_555
F3_6 C8_6 1_555 1_555
F5_6 C14_6 1_555 1_555
F6_6 C14_6 1_555 1_555
Mn1_6 N2_6 1_555 1_555
Mn2_6 N3_6 1_555 1_555
Mn3_6 O2_6 1_555 1_555
N2_6 C4_6 1_555 1_555
N3_6 C5_6 1_555 1_555
N4_6 C10_6 1_555 1_555
N14 C11_6 1_555 1_555
O1_6 C3_6 1_555 1_555
O2_6 C3_6 1_555 1_555
O3_6 Mn3_6 1_555 1_555
O4_6 C6_6 1_555 1_555
O5_6 C9_6 1_555 1_555
O6_6 C9_6 1_555 1_555
O7_6 Mn13_6 1_555 1_555
O31 C12_6 1_555 1_555
C15_6 C16_6 1_555 1_555
C16_6 C17_6 1_555 1_555
C17_6 C18_6 1_555 1_555
C18_6 O11_6 1_555 1_555
C19_6 C20_6 1_555 1_555
C20_6 F7_6 1_555 1_555
C21_6 C22_6 1_555 1_555
C22_6 C23_6 1_555 1_555
C23_6 C24_6 1_555 1_555
C24_6 O15_6 1_555 1_555
C25_6 C26_6 1_555 1_555
C26_6 F10_6 1_555 1_555
F8_6 C20_6 1_555 1_555
F9_6 C20_6 1_555 1_555
F11_6 C26_6 1_555 1_555
F12_6 C26_6 1_555 1_555
Mn4_6 N6_6 1_555 1_555
Mn5_6 O10_6 1_555 1_555
N6_6 C16_6 1_555 1_555
N7_6 Mn2_6 1_555 1_555
N8_6 C22_6 1_555 1_555
N15_4 C23_6 1_555 1_555
O9_6 C15_6 1_555 1_555
O10_6 C15_6 1_555 1_555
O11_6 Mn5_6 1_555 1_555
O12_6 Mn2_6 1_555 1_555
O13_6 C21_6 1_555 1_555
O14_6 C21_6 1_555 1_555
O15_6 Mn11_6 1_555 1_555
O32_4 C24_6 1_555 1_555
C27_6 C28_6 1_555 1_555
C28_6 C29_6 1_555 1_555
C29_6 C30_6 1_555 1_555
C30_6 O19_6 1_555 1_555
C31_6 C32_6 1_555 1_555
C32_6 F13_6 1_555 1_555
C33_6 C34_6 1_555 1_555
C34_6 C35_6 1_555 1_555
C35_6 C36_6 1_555 1_555
C36_6 O23_6 1_555 1_555
C37_6 C38_6 1_555 1_555
C38_6 F16_6 1_555 1_555
F14_6 C32_6 1_555 1_555
F15_6 C32_6 1_555 1_555
F17_6 C38_6 1_555 1_555
F18_6 C38_6 1_555 1_555
Mn6_6 N10_6 1_555 1_555
Mn7_6 O18_6 1_555 1_555
N10_6 C28_6 1_555 1_555
N11_6 Mn2_6 1_555 1_555
N12_6 C34_6 1_555 1_555
N16_3 C35_6 1_555 1_555
O17_6 C27_6 1_555 1_555
O18_6 C27_6 1_555 1_555
O19_6 Mn7_6 1_555 1_555
O20_6 Mn2_6 1_555 1_555
O21_6 C33_6 1_555 1_555
O22_6 C33_6 1_555 1_555
O23_6 Mn12_6 1_555 1_555
O33_3 C36_6 1_555 1_555
Mn11_6 O14_6 1_555 1_555
Mn12_6 O22_6 1_555 1_555
Mn13_6 O6_6 1_555 1_555
N14_6 Mn4_6 1_555 1_555
N15_6 Mn1_6 1_555 1_555
N16_6 Mn6_6 1_555 1_555
O25_6 Mn7_6 1_555 1_555
O26_6 Mn3_6 1_555 1_555
O27_6 Mn5_6 1_555 1_555
O28_6 Mn7_6 1_555 1_555
O29_6 Mn3_6 1_555 1_555
O30_6 Mn5_6 1_555 1_555
O31_6 Mn4_6 1_555 1_555
O32_6 Mn1_6 1_555 1_555
O33_6 Mn6_6 1_555 1_555
C7_6 N2_6 1_555 1_555
C7_6 N3_6 1_555 1_555
C13_6 N4_6 1_555 1_555
C13_6 N14 1_555 1_555
Mn1_6 N4_6 1_555 1_555
Mn1_6 O1_6 1_555 1_555
Mn1_6 O5_6 1_555 1_555
Mn2_6 O4_6 1_555 1_555
C17_6 N7_6 1_555 1_555
C18_6 O12_6 1_555 1_555
C19_6 N6_6 1_555 1_555
C19_6 N7_6 1_555 1_555
C25_6 N8_6 1_555 1_555
C25_6 N15_4 1_555 1_555
Mn4_6 N8_6 1_555 1_555
Mn4_6 O9_6 1_555 1_555
Mn4_6 O13_6 1_555 1_555
C29_6 N11_6 1_555 1_555
C30_6 O20_6 1_555 1_555
C31_6 N10_6 1_555 1_555
C31_6 N11_6 1_555 1_555
C37_6 N12_6 1_555 1_555
C37_6 N16_3 1_555 1_555
Mn6_6 N12_6 1_555 1_555
Mn6_6 O17_6 1_555 1_555
Mn6_6 O21_6 1_555 1_555
C3_7 C4_7 1_555 1_555
C4_7 C5_7 1_555 1_555
C5_7 C6_7 1_555 1_555
C6_7 O3_7 1_555 1_555
C7_7 C8_7 1_555 1_555
C8_7 F1_7 1_555 1_555
C9_7 C10_7 1_555 1_555
C10_7 C11_7 1_555 1_555
C11_7 C12_7 1_555 1_555
C12_7 O7_7 1_555 1_555
C13_7 C14_7 1_555 1_555
C14_7 F4_7 1_555 1_555
F2_7 C8_7 1_555 1_555
F3_7 C8_7 1_555 1_555
F5_7 C14_7 1_555 1_555
F6_7 C14_7 1_555 1_555
Mn1_7 N2_7 1_555 1_555
Mn2_7 N3_7 1_555 1_555
Mn3_7 O2_7 1_555 1_555
N2_7 C4_7 1_555 1_555
N3_7 C5_7 1_555 1_555
N4_7 C10_7 1_555 1_555
N14_3 C11_7 1_555 1_555
O1_7 C3_7 1_555 1_555
O2_7 C3_7 1_555 1_555
O3_7 Mn3_7 1_555 1_555
O4_7 C6_7 1_555 1_555
O5_7 C9_7 1_555 1_555
O6_7 C9_7 1_555 1_555
O31_3 C12_7 1_555 1_555
C15_7 C16_7 1_555 1_555
C16_7 C17_7 1_555 1_555
C17_7 C18_7 1_555 1_555
C18_7 O11_7 1_555 1_555
C19_7 C20_7 1_555 1_555
C20_7 F7_7 1_555 1_555
C21_7 C22_7 1_555 1_555
C22_7 C23_7 1_555 1_555
C23_7 C24_7 1_555 1_555
C24_7 O15_7 1_555 1_555
C25_7 C26_7 1_555 1_555
C26_7 F10_7 1_555 1_555
F8_7 C20_7 1_555 1_555
F9_7 C20_7 1_555 1_555
F11_7 C26_7 1_555 1_555
F12_7 C26_7 1_555 1_555
Mn4_7 N6_7 1_555 1_555
Mn5_7 O10_7 1_555 1_555
N6_7 C16_7 1_555 1_555
N7_7 Mn2_7 1_555 1_555
N8_7 C22_7 1_555 1_555
N15_2 C23_7 1_555 1_555
O9_7 C15_7 1_555 1_555
O10_7 C15_7 1_555 1_555
O11_7 Mn5_7 1_555 1_555
O12_7 Mn2_7 1_555 1_555
O13_7 C21_7 1_555 1_555
O14_7 C21_7 1_555 1_555
O15_7 Mn11_7 1_555 1_555
O32_2 C24_7 1_555 1_555
C27_7 C28_7 1_555 1_555
C28_7 C29_7 1_555 1_555
C29_7 C30_7 1_555 1_555
C30_7 O19_7 1_555 1_555
C31_7 C32_7 1_555 1_555
C32_7 F13_7 1_555 1_555
C33_7 C34_7 1_555 1_555
C34_7 C35_7 1_555 1_555
C35_7 C36_7 1_555 1_555
C36_7 O23_7 1_555 1_555
C37_7 C38_7 1_555 1_555
C38_7 F16_7 1_555 1_555
F14_7 C32_7 1_555 1_555
F15_7 C32_7 1_555 1_555
F17_7 C38_7 1_555 1_555
F18_7 C38_7 1_555 1_555
Mn6_7 N10_7 1_555 1_555
Mn7_7 O18_7 1_555 1_555
N10_7 C28_7 1_555 1_555
N11_7 Mn2_7 1_555 1_555
N12_7 C34_7 1_555 1_555
N16 C35_7 1_555 1_555
O17_7 C27_7 1_555 1_555
O18_7 C27_7 1_555 1_555
O19_7 Mn7_7 1_555 1_555
O20_7 Mn2_7 1_555 1_555
O21_7 C33_7 1_555 1_555
O22_7 C33_7 1_555 1_555
O33 C36_7 1_555 1_555
Mn11_7 O14_7 1_555 1_555
N14_7 Mn4_7 1_555 1_555
N15_7 Mn1_7 1_555 1_555
N16_7 Mn6_7 1_555 1_555
O26_7 Mn3_7 1_555 1_555
O29_7 Mn3_7 1_555 1_555
O31_7 Mn4_7 1_555 1_555
O32_7 Mn1_7 1_555 1_555
O33_7 Mn6_7 1_555 1_555
C7_7 N2_7 1_555 1_555
C7_7 N3_7 1_555 1_555
C13_7 N4_7 1_555 1_555
C13_7 N14_3 1_555 1_555
Mn1_7 N4_7 1_555 1_555
Mn1_7 O1_7 1_555 1_555
Mn1_7 O5_7 1_555 1_555
Mn2_7 O4_7 1_555 1_555
C17_7 N7_7 1_555 1_555
C18_7 O12_7 1_555 1_555
C19_7 N6_7 1_555 1_555
C19_7 N7_7 1_555 1_555
C25_7 N8_7 1_555 1_555
C25_7 N15_2 1_555 1_555
Mn4_7 N8_7 1_555 1_555
Mn4_7 O9_7 1_555 1_555
Mn4_7 O13_7 1_555 1_555
C29_7 N11_7 1_555 1_555
C30_7 O20_7 1_555 1_555
C31_7 N10_7 1_555 1_555
C31_7 N11_7 1_555 1_555
C37_7 N12_7 1_555 1_555
C37_7 N16 1_555 1_555
Mn6_7 N12_7 1_555 1_555
Mn6_7 O17_7 1_555 1_555
Mn6_7 O21_7 1_555 1_555
C3_8 C4_8 1_555 1_555
C4_8 C5_8 1_555 1_555
C5_8 C6_8 1_555 1_555
C6_8 O3_8 1_555 1_555
C7_8 C8_8 1_555 1_555
C8_8 F1_8 1_555 1_555
C9_8 C10_8 1_555 1_555
C10_8 C11_8 1_555 1_555
C11_8 C12_8 1_555 1_555
C12_8 O7_8 1_555 1_555
C13_8 C14_8 1_555 1_555
C14_8 F4_8 1_555 1_555
F2_8 C8_8 1_555 1_555
F3_8 C8_8 1_555 1_555
F5_8 C14_8 1_555 1_555
F6_8 C14_8 1_555 1_555
Mn1_8 N2_8 1_555 1_555
Mn2_8 N3_8 1_555 1_555
Mn3_8 O2_8 1_555 1_555
N2_8 C4_8 1_555 1_555
N3_8 C5_8 1_555 1_555
N4_8 C10_8 1_555 1_555
N14_4 C11_8 1_555 1_555
O1_8 C3_8 1_555 1_555
O2_8 C3_8 1_555 1_555
O3_8 Mn3_8 1_555 1_555
O4_8 C6_8 1_555 1_555
O5_8 C9_8 1_555 1_555
O6_8 C9_8 1_555 1_555
O31_4 C12_8 1_555 1_555
C15_8 C16_8 1_555 1_555
C16_8 C17_8 1_555 1_555
C17_8 C18_8 1_555 1_555
C18_8 O11_8 1_555 1_555
C19_8 C20_8 1_555 1_555
C20_8 F7_8 1_555 1_555
C21_8 C22_8 1_555 1_555
C22_8 C23_8 1_555 1_555
C23_8 C24_8 1_555 1_555
C24_8 O15_8 1_555 1_555
C25_8 C26_8 1_555 1_555
C26_8 F10_8 1_555 1_555
F8_8 C20_8 1_555 1_555
F9_8 C20_8 1_555 1_555
F11_8 C26_8 1_555 1_555
F12_8 C26_8 1_555 1_555
Mn4_8 N6_8 1_555 1_555
Mn5_8 O10_8 1_555 1_555
N6_8 C16_8 1_555 1_555
N7_8 Mn2_8 1_555 1_555
N8_8 C22_8 1_555 1_555
N15 C23_8 1_555 1_555
O9_8 C15_8 1_555 1_555
O10_8 C15_8 1_555 1_555
O11_8 Mn5_8 1_555 1_555
O12_8 Mn2_8 1_555 1_555
O13_8 C21_8 1_555 1_555
O14_8 C21_8 1_555 1_555
O32 C24_8 1_555 1_555
C27_8 C28_8 1_555 1_555
C28_8 C29_8 1_555 1_555
C29_8 C30_8 1_555 1_555
C30_8 O19_8 1_555 1_555
C31_8 C32_8 1_555 1_555
C32_8 F13_8 1_555 1_555
C33_8 C34_8 1_555 1_555
C34_8 C35_8 1_555 1_555
C35_8 C36_8 1_555 1_555
C36_8 O23_8 1_555 1_555
C37_8 C38_8 1_555 1_555
C38_8 F16_8 1_555 1_555
F14_8 C32_8 1_555 1_555
F15_8 C32_8 1_555 1_555
F17_8 C38_8 1_555 1_555
F18_8 C38_8 1_555 1_555
Mn6_8 N10_8 1_555 1_555
Mn7_8 O18_8 1_555 1_555
N10_8 C28_8 1_555 1_555
N11_8 Mn2_8 1_555 1_555
N12_8 C34_8 1_555 1_555
N16_2 C35_8 1_555 1_555
O17_8 C27_8 1_555 1_555
O18_8 C27_8 1_555 1_555
O19_8 Mn7_8 1_555 1_555
O20_8 Mn2_8 1_555 1_555
O21_8 C33_8 1_555 1_555
O22_8 C33_8 1_555 1_555
O23_8 Mn12_8 1_555 1_555
O33_2 C36_8 1_555 1_555
Mn12_8 O22_8 1_555 1_555
N14_8 Mn4_8 1_555 1_555
N15_8 Mn1_8 1_555 1_555
N16_8 Mn6_8 1_555 1_555
O27_8 Mn5_8 1_555 1_555
O30_8 Mn5_8 1_555 1_555
O31_8 Mn4_8 1_555 1_555
O32_8 Mn1_8 1_555 1_555
O33_8 Mn6_8 1_555 1_555
C7_8 N2_8 1_555 1_555
C7_8 N3_8 1_555 1_555
C13_8 N4_8 1_555 1_555
C13_8 N14_4 1_555 1_555
Mn1_8 N4_8 1_555 1_555
Mn1_8 O1_8 1_555 1_555
Mn1_8 O5_8 1_555 1_555
Mn2_8 O4_8 1_555 1_555
C17_8 N7_8 1_555 1_555
C18_8 O12_8 1_555 1_555
C19_8 N6_8 1_555 1_555
C19_8 N7_8 1_555 1_555
C25_8 N8_8 1_555 1_555
C25_8 N15 1_555 1_555
Mn4_8 N8_8 1_555 1_555
Mn4_8 O9_8 1_555 1_555
Mn4_8 O13_8 1_555 1_555
C29_8 N11_8 1_555 1_555
C30_8 O20_8 1_555 1_555
C31_8 N10_8 1_555 1_555
C31_8 N11_8 1_555 1_555
C37_8 N12_8 1_555 1_555
C37_8 N16_2 1_555 1_555
Mn6_8 N12_8 1_555 1_555
Mn6_8 O17_8 1_555 1_555
Mn6_8 O21_8 1_555 1_555
C3_9 C4_9 1_555 1_555
C4_9 C5_9 1_555 1_555
C5_9 C6_9 1_555 1_555
C6_9 O3_9 1_555 1_555
C7_9 C8_9 1_555 1_555
C9_9 C10_9 1_555 1_555
F3_9 C8_9 1_555 1_555
Mn1_9 N2_9 1_555 1_555
Mn2_9 N3_9 1_555 1_555
Mn11_2 O2_9 1_555 1_555
N2_9 C4_9 1_555 1_555
N3_9 C5_9 1_555 1_555
N4_9 C10_9 1_555 1_555
O1_9 C3_9 1_555 1_555
O2_9 C3_9 1_555 1_555
O3_9 Mn11_2 1_555 1_555
O4_9 C6_9 1_555 1_555
O5_9 C9_9 1_555 1_555
O25_3 C9_9 1_555 1_555
C15_9 C16_9 1_555 1_555
C16_9 C17_9 1_555 1_555
C17_9 C18_9 1_555 1_555
C18_9 O11_9 1_555 1_555
C19_9 C20_9 1_555 1_555
C20_9 F7_9 1_555 1_555
C21_9 C22_9 1_555 1_555
C22_9 C23_9 1_555 1_555
C23_9 C24_9 1_555 1_555
C24_9 O29_2 1_555 1_555
C25_9 C26_9 1_555 1_555
C26_9 F10_9 1_555 1_555
F8_9 C20_9 1_555 1_555
F9_9 C20_9 1_555 1_555
F11_9 C26_9 1_555 1_555
F12_9 C26_9 1_555 1_555
Mn4_9 N6_9 1_555 1_555
Mn12_4 O10_9 1_555 1_555
N6_9 C16_9 1_555 1_555
N7_9 Mn2_9 1_555 1_555
N8_9 C22_9 1_555 1_555
N15_7 C23_9 1_555 1_555
O9_9 C15_9 1_555 1_555
O10_9 C15_9 1_555 1_555
O11_9 Mn12_4 1_555 1_555
O12_9 Mn2_9 1_555 1_555
O13_9 C21_9 1_555 1_555
O26_2 C21_9 1_555 1_555
O32_7 C24_9 1_555 1_555
C30_9 O19_9 1_555 1_555
N11_9 Mn2_9 1_555 1_555
O20_9 Mn2_9 1_555 1_555
N14_9 Mn4_9 1_555 1_555
N15_9 Mn1_9 1_555 1_555
O31_9 Mn4_9 1_555 1_555
O32_9 Mn1_9 1_555 1_555
C7_9 N2_9 1_555 1_555
C7_9 N3_9 1_555 1_555
Mn1_9 N4_9 1_555 1_555
Mn1_9 O1_9 1_555 1_555
Mn1_9 O5_9 1_555 1_555
Mn2_9 O4_9 1_555 1_555
C17_9 N7_9 1_555 1_555
C18_9 O12_9 1_555 1_555
C19_9 N6_9 1_555 1_555
C19_9 N7_9 1_555 1_555
C25_9 N8_9 1_555 1_555
C25_9 N15_7 1_555 1_555
Mn4_9 N8_9 1_555 1_555
Mn4_9 O9_9 1_555 1_555
Mn4_9 O13_9 1_555 1_555
C30_9 O20_9 1_555 1_555
C11_9 C12_9 1_555 1_555
C12_9 O28_3 1_555 1_555
C13_9 C14_9 1_555 1_555
C14_9 F4_9 1_555 1_555
F5_9 C14_9 1_555 1_555
N14_6 C11_9 1_555 1_555
O31_6 C12_9 1_555 1_555
C27_9 C28_9 1_555 1_555
C28_9 C29_9 1_555 1_555
C31_9 C32_9 1_555 1_555
C32_9 F13_9 1_555 1_555
C33_9 C34_9 1_555 1_555
C34_9 C35_9 1_555 1_555
C35_9 C36_9 1_555 1_555
C36_9 O30_4 1_555 1_555
C37_9 C38_9 1_555 1_555
C38_9 F16_9 1_555 1_555
F14_9 C32_9 1_555 1_555
F15_9 C32_9 1_555 1_555
F17_9 C38_9 1_555 1_555
F18_9 C38_9 1_555 1_555
Mn6_9 N10_9 1_555 1_555
Mn13_3 O18_9 1_555 1_555
N10_9 C28_9 1_555 1_555
N12_9 C34_9 1_555 1_555
N16_8 C35_9 1_555 1_555
O17_9 C27_9 1_555 1_555
O18_9 C27_9 1_555 1_555
O21_9 C33_9 1_555 1_555
O27_4 C33_9 1_555 1_555
O33_8 C36_9 1_555 1_555
N16_9 Mn6_9 1_555 1_555
O33_9 Mn6_9 1_555 1_555
C13_9 N14_6 1_555 1_555
C31_9 N10_9 1_555 1_555
C37_9 N12_9 1_555 1_555
C37_9 N16_8 1_555 1_555
Mn6_9 N12_9 1_555 1_555
Mn6_9 O17_9 1_555 1_555
Mn6_9 O21_9 1_555 1_555
C35_10 C36_10 1_555 1_555
C36_10 O30_3 1_555 1_555
C37_10 C38_10 1_555 1_555
C38_10 F16_10 1_555 1_555
F17_10 C38_10 1_555 1_555
N16_7 C35_10 1_555 1_555
O33_7 C36_10 1_555 1_555
C37_10 N16_7 1_555 1_555
C23_10 C24_10 1_555 1_555
C24_10 O29 1_555 1_555
C25_10 C26_10 1_555 1_555
C26_10 F10_10 1_555 1_555
F11_10 C26_10 1_555 1_555
N15_8 C23_10 1_555 1_555
O32_8 C24_10 1_555 1_555
C25_10 N15_8 1_555 1_555
C15_10 C16_10 1_555 1_555
C16_10 C17_10 1_555 1_555
C19_10 C20_10 1_555 1_555
C21_10 C22_10 1_555 1_555
F9_10 C20_10 1_555 1_555
Mn4_10 N6_10 1_555 1_555
Mn12_3 O10_10 1_555 1_555
N6_10 C16_10 1_555 1_555
N8_10 C22_10 1_555 1_555
O9_10 C15_10 1_555 1_555
O10_10 C15_10 1_555 1_555
O13_10 C21_10 1_555 1_555
O26 C21_10 1_555 1_555
N14_10 Mn4_10 1_555 1_555
O31_10 Mn4_10 1_555 1_555
C19_10 N6_10 1_555 1_555
Mn4_10 N8_10 1_555 1_555
Mn4_10 O9_10 1_555 1_555
Mn4_10 O13_10 1_555 1_555
C11_10 C12_10 1_555 1_555
C12_10 O28_4 1_555 1_555
C13_10 C14_10 1_555 1_555
C14_10 F4_10 1_555 1_555
F5_10 C14_10 1_555 1_555
N14_5 C11_10 1_555 1_555
O31_5 C12_10 1_555 1_555
C13_10 N14_5 1_555 1_555
C27_10 C28_10 1_555 1_555
C28_10 C29_10 1_555 1_555
C31_10 C32_10 1_555 1_555
C33_10 C34_10 1_555 1_555
F15_10 C32_10 1_555 1_555
Mn6_10 N10_10 1_555 1_555
Mn13_4 O18_10 1_555 1_555
N10_10 C28_10 1_555 1_555
N12_10 C34_10 1_555 1_555
O17_10 C27_10 1_555 1_555
O18_10 C27_10 1_555 1_555
O21_10 C33_10 1_555 1_555
O27_3 C33_10 1_555 1_555
N16_10 Mn6_10 1_555 1_555
O33_10 Mn6_10 1_555 1_555
C31_10 N10_10 1_555 1_555
Mn6_10 N12_10 1_555 1_555
Mn6_10 O17_10 1_555 1_555
Mn6_10 O21_10 1_555 1_555
C3_10 C4_10 1_555 1_555
C4_10 C5_10 1_555 1_555
C7_10 C8_10 1_555 1_555
C9_10 C10_10 1_555 1_555
F3_10 C8_10 1_555 1_555
Mn1_10 N2_10 1_555 1_555
Mn11 O2_10 1_555 1_555
N2_10 C4_10 1_555 1_555
N4_10 C10_10 1_555 1_555
O1_10 C3_10 1_555 1_555
O2_10 C3_10 1_555 1_555
O5_10 C9_10 1_555 1_555
O25_4 C9_10 1_555 1_555
N15_10 Mn1_10 1_555 1_555
O32_10 Mn1_10 1_555 1_555
C7_10 N2_10 1_555 1_555
Mn1_10 N4_10 1_555 1_555
Mn1_10 O1_10 1_555 1_555
Mn1_10 O5_10 1_555 1_555
C6_10 O3_10 1_555 1_555
Mn2_10 N3_10 1_555 1_555
O4_10 C6_10 1_555 1_555
C18_10 O11_10 1_555 1_555
N7_10 Mn2_10 1_555 1_555
O12_10 Mn2_10 1_555 1_555
C30_10 O19_10 1_555 1_555
N11_10 Mn2_10 1_555 1_555
O20_10 Mn2_10 1_555 1_555
Mn2_10 O4_10 1_555 1_555
C18_10 O12_10 1_555 1_555
C30_10 O20_10 1_555 1_555
C6_11 O3_11 1_555 1_555
Mn2_11 N3_11 1_555 1_555
O4_11 C6_11 1_555 1_555
C15_11 C16_11 1_555 1_555
C16_11 C17_11 1_555 1_555
C17_11 C18_11 1_555 1_555
C18_11 O11_11 1_555 1_555
C19_11 C20_11 1_555 1_555
C21_11 C22_11 1_555 1_555
F9_11 C20_11 1_555 1_555
Mn4_11 N6_11 1_555 1_555
Mn12_2 O10_11 1_555 1_555
N6_11 C16_11 1_555 1_555
N7_11 Mn2_11 1_555 1_555
N8_11 C22_11 1_555 1_555
O9_11 C15_11 1_555 1_555
O10_11 C15_11 1_555 1_555
O11_11 Mn12_2 1_555 1_555
O12_11 Mn2_11 1_555 1_555
O13_11 C21_11 1_555 1_555
O26_4 C21_11 1_555 1_555
C27_11 C28_11 1_555 1_555
C28_11 C29_11 1_555 1_555
C29_11 C30_11 1_555 1_555
C30_11 O19_11 1_555 1_555
C31_11 C32_11 1_555 1_555
C32_11 F13_11 1_555 1_555
C33_11 C34_11 1_555 1_555
C34_11 C35_11 1_555 1_555
C35_11 C36_11 1_555 1_555
C36_11 O30_2 1_555 1_555
C37_11 C38_11 1_555 1_555
C38_11 F16_11 1_555 1_555
F14_11 C32_11 1_555 1_555
F15_11 C32_11 1_555 1_555
F17_11 C38_11 1_555 1_555
F18_11 C38_11 1_555 1_555
Mn6_11 N10_11 1_555 1_555
Mn13 O18_11 1_555 1_555
N10_11 C28_11 1_555 1_555
N11_11 Mn2_11 1_555 1_555
N12_11 C34_11 1_555 1_555
N16_5 C35_11 1_555 1_555
O17_11 C27_11 1_555 1_555
O18_11 C27_11 1_555 1_555
O19_11 Mn13 1_555 1_555
O20_11 Mn2_11 1_555 1_555
O21_11 C33_11 1_555 1_555
O27_2 C33_11 1_555 1_555
O33_5 C36_11 1_555 1_555
N14_11 Mn4_11 1_555 1_555
N16_11 Mn6_11 1_555 1_555
O31_11 Mn4_11 1_555 1_555
O33_11 Mn6_11 1_555 1_555
Mn2_11 O4_11 1_555 1_555
C17_11 N7_11 1_555 1_555
C18_11 O12_11 1_555 1_555
C19_11 N6_11 1_555 1_555
C19_11 N7_11 1_555 1_555
Mn4_11 N8_11 1_555 1_555
Mn4_11 O9_11 1_555 1_555
Mn4_11 O13_11 1_555 1_555
C29_11 N11_11 1_555 1_555
C30_11 O20_11 1_555 1_555
C31_11 N10_11 1_555 1_555
C31_11 N11_11 1_555 1_555
C37_11 N12_11 1_555 1_555
C37_11 N16_5 1_555 1_555
Mn6_11 N12_11 1_555 1_555
Mn6_11 O17_11 1_555 1_555
Mn6_11 O21_11 1_555 1_555
C3_11 C4_11 1_555 1_555
C4_11 C5_11 1_555 1_555
C7_11 C8_11 1_555 1_555
C8_11 F1_11 1_555 1_555
C9_11 C10_11 1_555 1_555
C10_11 C11_11 1_555 1_555
C11_11 C12_11 1_555 1_555
C12_11 O28 1_555 1_555
C13_11 C14_11 1_555 1_555
C14_11 F4_11 1_555 1_555
F2_11 C8_11 1_555 1_555
F3_11 C8_11 1_555 1_555
F5_11 C14_11 1_555 1_555
F6_11 C14_11 1_555 1_555
Mn1_11 N2_11 1_555 1_555
Mn11_4 O2_11 1_555 1_555
N2_11 C4_11 1_555 1_555
N4_11 C10_11 1_555 1_555
N14_7 C11_11 1_555 1_555
O1_11 C3_11 1_555 1_555
O2_11 C3_11 1_555 1_555
O5_11 C9_11 1_555 1_555
O25 C9_11 1_555 1_555
O31_7 C12_11 1_555 1_555
C23_11 C24_11 1_555 1_555
C24_11 O29_4 1_555 1_555
C25_11 C26_11 1_555 1_555
C26_11 F10_11 1_555 1_555
F11_11 C26_11 1_555 1_555
N15_6 C23_11 1_555 1_555
O32_6 C24_11 1_555 1_555
N15_11 Mn1_11 1_555 1_555
O32_11 Mn1_11 1_555 1_555
C7_11 N2_11 1_555 1_555
C13_11 N4_11 1_555 1_555
C13_11 N14_7 1_555 1_555
Mn1_11 N4_11 1_555 1_555
Mn1_11 O1_11 1_555 1_555
Mn1_11 O5_11 1_555 1_555
C25_11 N15_6 1_555 1_555
C3_12 C4_12 1_555 1_555
C4_12 C5_12 1_555 1_555
C5_12 C6_12 1_555 1_555
C6_12 O3_12 1_555 1_555
C7_12 C8_12 1_555 1_555
C8_12 F1_12 1_555 1_555
C9_12 C10_12 1_555 1_555
C10_12 C11_12 1_555 1_555
C11_12 C12_12 1_555 1_555
C12_12 O28_2 1_555 1_555
C13_12 C14_12 1_555 1_555
C14_12 F4_12 1_555 1_555
F2_12 C8_12 1_555 1_555
F3_12 C8_12 1_555 1_555
F5_12 C14_12 1_555 1_555
F6_12 C14_12 1_555 1_555
Mn1_12 N2_12 1_555 1_555
Mn2_12 N3_12 1_555 1_555
Mn11_3 O2_12 1_555 1_555
N2_12 C4_12 1_555 1_555
N3_12 C5_12 1_555 1_555
N4_12 C10_12 1_555 1_555
N14_8 C11_12 1_555 1_555
O1_12 C3_12 1_555 1_555
O2_12 C3_12 1_555 1_555
O3_12 Mn11_3 1_555 1_555
O4_12 C6_12 1_555 1_555
O5_12 C9_12 1_555 1_555
O25_2 C9_12 1_555 1_555
O31_8 C12_12 1_555 1_555
C18_12 O11_12 1_555 1_555
N7_12 Mn2_12 1_555 1_555
O12_12 Mn2_12 1_555 1_555
C27_12 C28_12 1_555 1_555
C28_12 C29_12 1_555 1_555
C29_12 C30_12 1_555 1_555
C30_12 O19_12 1_555 1_555
C31_12 C32_12 1_555 1_555
C33_12 C34_12 1_555 1_555
F15_12 C32_12 1_555 1_555
Mn6_12 N10_12 1_555 1_555
Mn13_2 O18_12 1_555 1_555
N10_12 C28_12 1_555 1_555
N11_12 Mn2_12 1_555 1_555
N12_12 C34_12 1_555 1_555
O17_12 C27_12 1_555 1_555
O18_12 C27_12 1_555 1_555
O19_12 Mn13_2 1_555 1_555
O20_12 Mn2_12 1_555 1_555
O21_12 C33_12 1_555 1_555
O27 C33_12 1_555 1_555
N15_12 Mn1_12 1_555 1_555
N16_12 Mn6_12 1_555 1_555
O32_12 Mn1_12 1_555 1_555
O33_12 Mn6_12 1_555 1_555
C7_12 N2_12 1_555 1_555
C7_12 N3_12 1_555 1_555
C13_12 N4_12 1_555 1_555
C13_12 N14_8 1_555 1_555
Mn1_12 N4_12 1_555 1_555
Mn1_12 O1_12 1_555 1_555
Mn1_12 O5_12 1_555 1_555
Mn2_12 O4_12 1_555 1_555
C18_12 O12_12 1_555 1_555
C29_12 N11_12 1_555 1_555
C30_12 O20_12 1_555 1_555
C31_12 N10_12 1_555 1_555
C31_12 N11_12 1_555 1_555
Mn6_12 N12_12 1_555 1_555
Mn6_12 O17_12 1_555 1_555
Mn6_12 O21_12 1_555 1_555
C15_12 C16_12 1_555 1_555
C16_12 C17_12 1_555 1_555
C19_12 C20_12 1_555 1_555
C20_12 F7_12 1_555 1_555
C21_12 C22_12 1_555 1_555
C22_12 C23_12 1_555 1_555
C23_12 C24_12 1_555 1_555
C24_12 O29_3 1_555 1_555
C25_12 C26_12 1_555 1_555
C26_12 F10_12 1_555 1_555
F8_12 C20_12 1_555 1_555
F9_12 C20_12 1_555 1_555
F11_12 C26_12 1_555 1_555
F12_12 C26_12 1_555 1_555
Mn4_12 N6_12 1_555 1_555
Mn12 O10_12 1_555 1_555
N6_12 C16_12 1_555 1_555
N8_12 C22_12 1_555 1_555
N15_5 C23_12 1_555 1_555
O9_12 C15_12 1_555 1_555
O10_12 C15_12 1_555 1_555
O13_12 C21_12 1_555 1_555
O26_3 C21_12 1_555 1_555
O32_5 C24_12 1_555 1_555
C35_12 C36_12 1_555 1_555
C36_12 O30 1_555 1_555
C37_12 C38_12 1_555 1_555
C38_12 F16_12 1_555 1_555
F17_12 C38_12 1_555 1_555
N16_6 C35_12 1_555 1_555
O33_6 C36_12 1_555 1_555
N14_12 Mn4_12 1_555 1_555
O31_12 Mn4_12 1_555 1_555
C19_12 N6_12 1_555 1_555
C25_12 N8_12 1_555 1_555
C25_12 N15_5 1_555 1_555
Mn4_12 N8_12 1_555 1_555
Mn4_12 O9_12 1_555 1_555
Mn4_12 O13_12 1_555 1_555
C37_12 N16_6 1_555 1_555
C3_13 C4_13 1_555 1_555
C4_13 C5_13 1_555 1_555
C5_13 C6_13 1_555 1_555
C6_13 O3_13 1_555 1_555
C7_13 C8_13 1_555 1_555
C8_13 F1_13 1_555 1_555
C9_13 C10_13 1_555 1_555
C10_13 C11_13 1_555 1_555
C11_13 C12_13 1_555 1_555
C12_13 O28_7 1_555 1_555
C13_13 C14_13 1_555 1_555
C14_13 F4_13 1_555 1_555
F2_13 C8_13 1_555 1_555
F3_13 C8_13 1_555 1_555
F5_13 C14_13 1_555 1_555
F6_13 C14_13 1_555 1_555
Mn8_4 N2_13 1_555 1_555
Mn2_13 N3_13 1_555 1_555
Mn11_6 O2_13 1_555 1_555
N2_13 C4_13 1_555 1_555
N3_13 C5_13 1_555 1_555
N4_13 C10_13 1_555 1_555
N14_10 C11_13 1_555 1_555
O1_13 C3_13 1_555 1_555
O2_13 C3_13 1_555 1_555
O3_13 Mn11_6 1_555 1_555
O4_13 C6_13 1_555 1_555
O5_13 C9_13 1_555 1_555
O25_7 C9_13 1_555 1_555
O31_10 C12_13 1_555 1_555
C15_13 C16_13 1_555 1_555
C16_13 C17_13 1_555 1_555
C17_13 C18_13 1_555 1_555
C18_13 O11_13 1_555 1_555
C19_13 C20_13 1_555 1_555
C20_13 F7_13 1_555 1_555
C21_13 C22_13 1_555 1_555
C22_13 C23_13 1_555 1_555
C23_13 C24_13 1_555 1_555
C24_13 O29_6 1_555 1_555
C25_13 C26_13 1_555 1_555
C26_13 F10_13 1_555 1_555
F8_13 C20_13 1_555 1_555
F9_13 C20_13 1_555 1_555
F11_13 C26_13 1_555 1_555
F12_13 C26_13 1_555 1_555
Mn9_2 N6_13 1_555 1_555
Mn12_8 O10_13 1_555 1_555
N6_13 C16_13 1_555 1_555
N7_13 Mn2_13 1_555 1_555
N8_13 C22_13 1_555 1_555
N15_11 C23_13 1_555 1_555
O9_13 C15_13 1_555 1_555
O10_13 C15_13 1_555 1_555
O11_13 Mn12_8 1_555 1_555
O12_13 Mn2_13 1_555 1_555
O13_13 C21_13 1_555 1_555
O26_6 C21_13 1_555 1_555
O32_11 C24_13 1_555 1_555
C27_13 C28_13 1_555 1_555
C28_13 C29_13 1_555 1_555
C29_13 C30_13 1_555 1_555
C30_13 O19_13 1_555 1_555
C31_13 C32_13 1_555 1_555
C32_13 F13_13 1_555 1_555
C33_13 C34_13 1_555 1_555
C34_13 C35_13 1_555 1_555
C35_13 C36_13 1_555 1_555
C36_13 O30_8 1_555 1_555
C37_13 C38_13 1_555 1_555
C38_13 F16_13 1_555 1_555
F14_13 C32_13 1_555 1_555
F15_13 C32_13 1_555 1_555
F17_13 C38_13 1_555 1_555
F18_13 C38_13 1_555 1_555
Mn10_3 N10_13 1_555 1_555
Mn13_7 O18_13 1_555 1_555
N10_13 C28_13 1_555 1_555
N11_13 Mn2_13 1_555 1_555
N12_13 C34_13 1_555 1_555
N16_12 C35_13 1_555 1_555
O17_13 C27_13 1_555 1_555
O18_13 C27_13 1_555 1_555
O19_13 Mn13_7 1_555 1_555
O20_13 Mn2_13 1_555 1_555
O21_13 C33_13 1_555 1_555
O27_8 C33_13 1_555 1_555
O33_12 C36_13 1_555 1_555
C7_13 N2_13 1_555 1_555
C7_13 N3_13 1_555 1_555
C13_13 N4_13 1_555 1_555
C13_13 N14_10 1_555 1_555
Mn8_4 N4_13 1_555 1_555
Mn8_4 O1_13 1_555 1_555
Mn8_4 O5_13 1_555 1_555
Mn2_13 O4_13 1_555 1_555
C17_13 N7_13 1_555 1_555
C18_13 O12_13 1_555 1_555
C19_13 N6_13 1_555 1_555
C19_13 N7_13 1_555 1_555
C25_13 N8_13 1_555 1_555
C25_13 N15_11 1_555 1_555
Mn9_2 N8_13 1_555 1_555
Mn9_2 O9_13 1_555 1_555
Mn9_2 O13_13 1_555 1_555
C29_13 N11_13 1_555 1_555
C30_13 O20_13 1_555 1_555
C31_13 N10_13 1_555 1_555
C31_13 N11_13 1_555 1_555
C37_13 N12_13 1_555 1_555
C37_13 N16_12 1_555 1_555
Mn10_3 N12_13 1_555 1_555
Mn10_3 O17_13 1_555 1_555
Mn10_3 O21_13 1_555 1_555
C3_14 C4_14 1_555 1_555
C4_14 C5_14 1_555 1_555
C5_14 C6_14 1_555 1_555
C6_14 O3_14 1_555 1_555
C7_14 C8_14 1_555 1_555
C8_14 F1_14 1_555 1_555
C9_14 C10_14 1_555 1_555
C10_14 C11_14 1_555 1_555
C11_14 C12_14 1_555 1_555
C12_14 O28_8 1_555 1_555
C13_14 C14_14 1_555 1_555
C14_14 F4_14 1_555 1_555
F2_14 C8_14 1_555 1_555
F3_14 C8_14 1_555 1_555
F5_14 C14_14 1_555 1_555
F6_14 C14_14 1_555 1_555
Mn8_3 N2_14 1_555 1_555
Mn2_14 N3_14 1_555 1_555
Mn11_5 O2_14 1_555 1_555
N2_14 C4_14 1_555 1_555
N3_14 C5_14 1_555 1_555
N4_14 C10_14 1_555 1_555
N14_9 C11_14 1_555 1_555
O1_14 C3_14 1_555 1_555
O2_14 C3_14 1_555 1_555
O3_14 Mn11_5 1_555 1_555
O4_14 C6_14 1_555 1_555
O5_14 C9_14 1_555 1_555
O25_8 C9_14 1_555 1_555
O31_9 C12_14 1_555 1_555
C15_14 C16_14 1_555 1_555
C16_14 C17_14 1_555 1_555
C17_14 C18_14 1_555 1_555
C18_14 O11_14 1_555 1_555
C19_14 C20_14 1_555 1_555
C20_14 F7_14 1_555 1_555
C21_14 C22_14 1_555 1_555
C22_14 C23_14 1_555 1_555
C23_14 C24_14 1_555 1_555
C24_14 O29_5 1_555 1_555
C25_14 C26_14 1_555 1_555
C26_14 F10_14 1_555 1_555
F8_14 C20_14 1_555 1_555
F9_14 C20_14 1_555 1_555
F11_14 C26_14 1_555 1_555
F12_14 C26_14 1_555 1_555
Mn9 N6_14 1_555 1_555
Mn12_7 O10_14 1_555 1_555
N6_14 C16_14 1_555 1_555
N7_14 Mn2_14 1_555 1_555
N8_14 C22_14 1_555 1_555
N15_12 C23_14 1_555 1_555
O9_14 C15_14 1_555 1_555
O10_14 C15_14 1_555 1_555
O11_14 Mn12_7 1_555 1_555
O12_14 Mn2_14 1_555 1_555
O13_14 C21_14 1_555 1_555
O26_5 C21_14 1_555 1_555
O32_12 C24_14 1_555 1_555
C27_14 C28_14 1_555 1_555
C28_14 C29_14 1_555 1_555
C29_14 C30_14 1_555 1_555
C30_14 O19_14 1_555 1_555
C31_14 C32_14 1_555 1_555
C32_14 F13_14 1_555 1_555
C33_14 C34_14 1_555 1_555
C34_14 C35_14 1_555 1_555
C35_14 C36_14 1_555 1_555
C36_14 O30_7 1_555 1_555
C37_14 C38_14 1_555 1_555
C38_14 F16_14 1_555 1_555
F14_14 C32_14 1_555 1_555
F15_14 C32_14 1_555 1_555
F17_14 C38_14 1_555 1_555
F18_14 C38_14 1_555 1_555
Mn10_4 N10_14 1_555 1_555
Mn13_8 O18_14 1_555 1_555
N10_14 C28_14 1_555 1_555
N11_14 Mn2_14 1_555 1_555
N12_14 C34_14 1_555 1_555
N16_11 C35_14 1_555 1_555
O17_14 C27_14 1_555 1_555
O18_14 C27_14 1_555 1_555
O19_14 Mn13_8 1_555 1_555
O20_14 Mn2_14 1_555 1_555
O21_14 C33_14 1_555 1_555
O27_7 C33_14 1_555 1_555
O33_11 C36_14 1_555 1_555
C7_14 N2_14 1_555 1_555
C7_14 N3_14 1_555 1_555
C13_14 N4_14 1_555 1_555
C13_14 N14_9 1_555 1_555
Mn8_3 N4_14 1_555 1_555
Mn8_3 O1_14 1_555 1_555
Mn8_3 O5_14 1_555 1_555
Mn2_14 O4_14 1_555 1_555
C17_14 N7_14 1_555 1_555
C18_14 O12_14 1_555 1_555
C19_14 N6_14 1_555 1_555
C19_14 N7_14 1_555 1_555
C25_14 N8_14 1_555 1_555
C25_14 N15_12 1_555 1_555
Mn9 N8_14 1_555 1_555
Mn9 O9_14 1_555 1_555
Mn9 O13_14 1_555 1_555
C29_14 N11_14 1_555 1_555
C30_14 O20_14 1_555 1_555
C31_14 N10_14 1_555 1_555
C31_14 N11_14 1_555 1_555
C37_14 N12_14 1_555 1_555
C37_14 N16_11 1_555 1_555
Mn10_4 N12_14 1_555 1_555
Mn10_4 O17_14 1_555 1_555
Mn10_4 O21_14 1_555 1_555
C3_15 C4_15 1_555 1_555
C4_15 C5_15 1_555 1_555
C5_15 C6_15 1_555 1_555
C6_15 O3_15 1_555 1_555
C7_15 C8_15 1_555 1_555
C8_15 F1_15 1_555 1_555
C9_15 C10_15 1_555 1_555
C10_15 C11_15 1_555 1_555
C11_15 C12_15 1_555 1_555
C12_15 O28_5 1_555 1_555
C13_15 C14_15 1_555 1_555
C14_15 F4_15 1_555 1_555
F2_15 C8_15 1_555 1_555
F3_15 C8_15 1_555 1_555
F5_15 C14_15 1_555 1_555
F6_15 C14_15 1_555 1_555
Mn8 N2_15 1_555 1_555
Mn2_15 N3_15 1_555 1_555
Mn11_8 O2_15 1_555 1_555
N2_15 C4_15 1_555 1_555
N3_15 C5_15 1_555 1_555
N4_15 C10_15 1_555 1_555
N14_11 C11_15 1_555 1_555
O1_15 C3_15 1_555 1_555
O2_15 C3_15 1_555 1_555
O3_15 Mn11_8 1_555 1_555
O4_15 C6_15 1_555 1_555
O5_15 C9_15 1_555 1_555
O25_5 C9_15 1_555 1_555
O31_11 C12_15 1_555 1_555
C15_15 C16_15 1_555 1_555
C16_15 C17_15 1_555 1_555
C17_15 C18_15 1_555 1_555
C18_15 O11_15 1_555 1_555
C19_15 C20_15 1_555 1_555
C20_15 F7_15 1_555 1_555
C21_15 C22_15 1_555 1_555
C22_15 C23_15 1_555 1_555
C23_15 C24_15 1_555 1_555
C24_15 O29_8 1_555 1_555
C25_15 C26_15 1_555 1_555
C26_15 F10_15 1_555 1_555
F8_15 C20_15 1_555 1_555
F9_15 C20_15 1_555 1_555
F11_15 C26_15 1_555 1_555
F12_15 C26_15 1_555 1_555
Mn9_3 N6_15 1_555 1_555
Mn12_6 O10_15 1_555 1_555
N6_15 C16_15 1_555 1_555
N7_15 Mn2_15 1_555 1_555
N8_15 C22_15 1_555 1_555
N15_10 C23_15 1_555 1_555
O9_15 C15_15 1_555 1_555
O10_15 C15_15 1_555 1_555
O11_15 Mn12_6 1_555 1_555
O12_15 Mn2_15 1_555 1_555
O13_15 C21_15 1_555 1_555
O26_8 C21_15 1_555 1_555
O32_10 C24_15 1_555 1_555
C27_15 C28_15 1_555 1_555
C28_15 C29_15 1_555 1_555
C29_15 C30_15 1_555 1_555
C30_15 O19_15 1_555 1_555
C31_15 C32_15 1_555 1_555
C32_15 F13_15 1_555 1_555
C33_15 C34_15 1_555 1_555
C34_15 C35_15 1_555 1_555
C35_15 C36_15 1_555 1_555
C36_15 O30_6 1_555 1_555
C37_15 C38_15 1_555 1_555
C38_15 F16_15 1_555 1_555
F14_15 C32_15 1_555 1_555
F15_15 C32_15 1_555 1_555
F17_15 C38_15 1_555 1_555
F18_15 C38_15 1_555 1_555
Mn10_2 N10_15 1_555 1_555
Mn13_5 O18_15 1_555 1_555
N10_15 C28_15 1_555 1_555
N11_15 Mn2_15 1_555 1_555
N12_15 C34_15 1_555 1_555
N16_9 C35_15 1_555 1_555
O17_15 C27_15 1_555 1_555
O18_15 C27_15 1_555 1_555
O19_15 Mn13_5 1_555 1_555
O20_15 Mn2_15 1_555 1_555
O21_15 C33_15 1_555 1_555
O27_6 C33_15 1_555 1_555
O33_9 C36_15 1_555 1_555
C7_15 N2_15 1_555 1_555
C7_15 N3_15 1_555 1_555
C13_15 N4_15 1_555 1_555
C13_15 N14_11 1_555 1_555
Mn8 N4_15 1_555 1_555
Mn8 O1_15 1_555 1_555
Mn8 O5_15 1_555 1_555
Mn2_15 O4_15 1_555 1_555
C17_15 N7_15 1_555 1_555
C18_15 O12_15 1_555 1_555
C19_15 N6_15 1_555 1_555
C19_15 N7_15 1_555 1_555
C25_15 N8_15 1_555 1_555
C25_15 N15_10 1_555 1_555
Mn9_3 N8_15 1_555 1_555
Mn9_3 O9_15 1_555 1_555
Mn9_3 O13_15 1_555 1_555
C29_15 N11_15 1_555 1_555
C30_15 O20_15 1_555 1_555
C31_15 N10_15 1_555 1_555
C31_15 N11_15 1_555 1_555
C37_15 N12_15 1_555 1_555
C37_15 N16_9 1_555 1_555
Mn10_2 N12_15 1_555 1_555
Mn10_2 O17_15 1_555 1_555
Mn10_2 O21_15 1_555 1_555
C3_16 C4_16 1_555 1_555
C4_16 C5_16 1_555 1_555
C5_16 C6_16 1_555 1_555
C6_16 O3_16 1_555 1_555
C7_16 C8_16 1_555 1_555
C8_16 F1_16 1_555 1_555
C9_16 C10_16 1_555 1_555
C10_16 C11_16 1_555 1_555
C11_16 C12_16 1_555 1_555
C12_16 O28_6 1_555 1_555
C13_16 C14_16 1_555 1_555
C14_16 F4_16 1_555 1_555
F2_16 C8_16 1_555 1_555
F3_16 C8_16 1_555 1_555
F5_16 C14_16 1_555 1_555
F6_16 C14_16 1_555 1_555
Mn8_2 N2_16 1_555 1_555
Mn2_16 N3_16 1_555 1_555
Mn11_7 O2_16 1_555 1_555
N2_16 C4_16 1_555 1_555
N3_16 C5_16 1_555 1_555
N4_16 C10_16 1_555 1_555
N14_12 C11_16 1_555 1_555
O1_16 C3_16 1_555 1_555
O2_16 C3_16 1_555 1_555
O3_16 Mn11_7 1_555 1_555
O4_16 C6_16 1_555 1_555
O5_16 C9_16 1_555 1_555
O25_6 C9_16 1_555 1_555
O31_12 C12_16 1_555 1_555
C15_16 C16_16 1_555 1_555
C16_16 C17_16 1_555 1_555
C17_16 C18_16 1_555 1_555
C18_16 O11_16 1_555 1_555
C19_16 C20_16 1_555 1_555
C20_16 F7_16 1_555 1_555
C21_16 C22_16 1_555 1_555
C22_16 C23_16 1_555 1_555
C23_16 C24_16 1_555 1_555
C24_16 O29_7 1_555 1_555
C25_16 C26_16 1_555 1_555
C26_16 F10_16 1_555 1_555
F8_16 C20_16 1_555 1_555
F9_16 C20_16 1_555 1_555
F11_16 C26_16 1_555 1_555
F12_16 C26_16 1_555 1_555
Mn9_4 N6_16 1_555 1_555
Mn12_5 O10_16 1_555 1_555
N6_16 C16_16 1_555 1_555
N7_16 Mn2_16 1_555 1_555
N8_16 C22_16 1_555 1_555
N15_9 C23_16 1_555 1_555
O9_16 C15_16 1_555 1_555
O10_16 C15_16 1_555 1_555
O11_16 Mn12_5 1_555 1_555
O12_16 Mn2_16 1_555 1_555
O13_16 C21_16 1_555 1_555
O26_7 C21_16 1_555 1_555
O32_9 C24_16 1_555 1_555
C27_16 C28_16 1_555 1_555
C28_16 C29_16 1_555 1_555
C29_16 C30_16 1_555 1_555
C30_16 O19_16 1_555 1_555
C31_16 C32_16 1_555 1_555
C32_16 F13_16 1_555 1_555
C33_16 C34_16 1_555 1_555
C34_16 C35_16 1_555 1_555
C35_16 C36_16 1_555 1_555
C36_16 O30_5 1_555 1_555
C37_16 C38_16 1_555 1_555
C38_16 F16_16 1_555 1_555
F14_16 C32_16 1_555 1_555
F15_16 C32_16 1_555 1_555
F17_16 C38_16 1_555 1_555
F18_16 C38_16 1_555 1_555
Mn10 N10_16 1_555 1_555
Mn13_6 O18_16 1_555 1_555
N10_16 C28_16 1_555 1_555
N11_16 Mn2_16 1_555 1_555
N12_16 C34_16 1_555 1_555
N16_10 C35_16 1_555 1_555
O17_16 C27_16 1_555 1_555
O18_16 C27_16 1_555 1_555
O19_16 Mn13_6 1_555 1_555
O20_16 Mn2_16 1_555 1_555
O21_16 C33_16 1_555 1_555
O27_5 C33_16 1_555 1_555
O33_10 C36_16 1_555 1_555
C7_16 N2_16 1_555 1_555
C7_16 N3_16 1_555 1_555
C13_16 N4_16 1_555 1_555
C13_16 N14_12 1_555 1_555
Mn8_2 N4_16 1_555 1_555
Mn8_2 O1_16 1_555 1_555
Mn8_2 O5_16 1_555 1_555
Mn2_16 O4_16 1_555 1_555
C17_16 N7_16 1_555 1_555
C18_16 O12_16 1_555 1_555
C19_16 N6_16 1_555 1_555
C19_16 N7_16 1_555 1_555
C25_16 N8_16 1_555 1_555
C25_16 N15_9 1_555 1_555
Mn9_4 N8_16 1_555 1_555
Mn9_4 O9_16 1_555 1_555
Mn9_4 O13_16 1_555 1_555
C29_16 N11_16 1_555 1_555
C30_16 O20_16 1_555 1_555
C31_16 N10_16 1_555 1_555
C31_16 N11_16 1_555 1_555
C37_16 N12_16 1_555 1_555
C37_16 N16_10 1_555 1_555
Mn10 N12_16 1_555 1_555
Mn10 O17_16 1_555 1_555
Mn10 O21_16 1_555 1_555

#END
