
###############################################################################
#
# This file contains modified crystal structure data generated from the
# MOF subset of the Cambridge Structural Database (CSD) v543 
# hosted by the Cambridge Crystallographic Data Centre (CCDC).
#
# This work is licensed under the Creative Commons
# Attribution-NonCommercial-ShareAlike 4.0 International License.
# To view a copy of this license, visit
# http://creativecommons.org/licenses/by-nc-sa/4.0/
# or send a letter to
# Creative Commons, PO Box 1866, Mountain View, CA 94042, USA.
#
# CIF created using the CSD Python API on 29 September 2022
# The structure has been converted into the P1 space group
# The structure has a 3D framework
# The original CSD entry HABQUY is in the cubic crystal system
# The framework has been calculated to contain at least 10.0% void space
# The void calculation uses a probe of radius 1.32A, grid spacing 0.4
# H atom positions have been added when not included in the experimental data
# Generated hydrogen atom positions removed from atoms on special positions
#
###############################################################################

data_HABQUY
_chemical_formula_moiety         '(C1920 H1728 Cu144 O528)n'
_symmetry_cell_setting           triclinic
_symmetry_space_group_name_H-M   'P 1'
_symmetry_Int_Tables_number      1
_space_group_name_Hall           'P 1'
loop_
_symmetry_equiv_pos_site_id
_symmetry_equiv_pos_as_xyz
1 x,y,z
_cell_length_a                   59.153(6)
_cell_length_b                   59.153(6)
_cell_length_c                   59.153(6)
_cell_angle_alpha                90
_cell_angle_beta                 90
_cell_angle_gamma                90
_cell_volume                     206981
loop_
_atom_site_label
_atom_site_type_symbol
_atom_site_fract_x
_atom_site_fract_y
_atom_site_fract_z
Cu1 Cu -0.0000 0.09537(4) 0.09537(4)
Cu2 Cu -0.0000 0.12700(5) 0.12700(5)
O1 O 0.0232(2) 0.08177(19) 0.1139(2)
O2 O 0.0229(2) 0.1080(2) 0.1409(2)
O3 O -0.0000 0.0687(2) 0.0687(2)
O4 O 0.0000 0.1560(3) 0.1560(3)
C1 C 0.0305(3) 0.0901(3) 0.1317(3)
C2 C 0.0603(2) 0.0603(2) 0.1332(3)
H1 H 0.0551 0.0551 0.1189
C3 C 0.04956(17) 0.07829(19) 0.1431(3)
C4 C 0.05679(18) 0.08556(16) 0.1644(3)
H2 H 0.0496 0.0980 0.1715
C5 C 0.07456(19) 0.07456(19) 0.1751(3)
C6 C 0.0820(3) 0.0820(3) 0.1969(4)
C7 C 0.0871(3) 0.0871(3) 0.2149(4)
C8 C 0.0945(2) 0.0945(2) 0.2365(4)
C9 C 0.0838(2) 0.1125(2) 0.2471(4)
H3 H 0.0715 0.1199 0.2399
C10 C 0.0911(2) 0.1198(2) 0.2682(4)
H4 H 0.0837 0.1321 0.2754
C11 C 0.1091(3) 0.1091(3) 0.2789(4)
C12 C 0.1166(3) 0.1166(3) 0.3007(5)
C13 C 0.1228(4) 0.1228(4) 0.3188(5)
C14 C 0.1511(5) 0.1223(5) 0.3489(5)
H5 H 0.1562 0.1080 0.3438
C15 C 0.1329(9) 0.1329(9) 0.3383(9)
Cu3 Cu 0.09537(4) -0.0000 0.09537(4)
Cu4 Cu 0.40463(4) 0.09537(4) 0.5000
Cu5 Cu 0.40463(4) 0.0000 0.40463(4)
Cu6 Cu 0.09537(4) 0.40463(4) 0.5000
Cu7 Cu 0.0000 0.40463(4) 0.40463(4)
Cu8 Cu 0.12700(5) 0.0000 0.12700(5)
Cu9 Cu 0.37300(5) 0.12700(5) 0.5000
Cu10 Cu 0.37300(5) -0.0000 0.37300(5)
Cu11 Cu 0.12700(5) 0.37300(5) 0.5000
Cu12 Cu -0.0000 0.37300(5) 0.37300(5)
O7 O 0.0232(2) 0.1139(2) 0.08177(19)
O8 O 0.08177(19) 0.0232(2) 0.1139(2)
O9 O 0.3861(2) 0.08177(19) 0.4768(2)
O10 O 0.3861(2) 0.0232(2) 0.41823(19)
O11 O 0.08177(19) 0.3861(2) 0.4768(2)
O12 O 0.0232(2) 0.3861(2) 0.41823(19)
O14 O 0.1139(2) 0.0232(2) 0.08177(19)
O18 O 0.0229(2) 0.1409(2) 0.1080(2)
O19 O 0.1080(2) 0.0229(2) 0.1409(2)
O20 O 0.3591(2) 0.1080(2) 0.4771(2)
O21 O 0.3591(2) 0.0229(2) 0.3920(2)
O22 O 0.1080(2) 0.3591(2) 0.4771(2)
O23 O 0.0229(2) 0.3591(2) 0.3920(2)
O24 O 0.0687(2) -0.0000 0.0687(2)
C16 C 0.0901(3) 0.0305(3) 0.1317(3)
C17 C 0.3683(3) 0.0901(3) 0.4695(3)
C18 C 0.3683(3) 0.0305(3) 0.4099(3)
C19 C 0.0901(3) 0.3683(3) 0.4695(3)
C20 C 0.0305(3) 0.3683(3) 0.4099(3)
C21 C 0.3668(3) 0.0603(2) 0.4397(2)
C22 C 0.0603(2) 0.3668(3) 0.4397(2)
H6 H 0.3811 0.0551 0.4449
H7 H 0.0551 0.3811 0.4449
C23 C 0.07829(19) 0.04956(17) 0.1431(3)
C24 C 0.3569(3) 0.07829(19) 0.45044(17)
C25 C 0.3569(3) 0.04956(17) 0.42171(19)
C26 C 0.07829(19) 0.3569(3) 0.45044(17)
C27 C 0.04956(17) 0.3569(3) 0.42171(19)
C28 C 0.08556(16) 0.05679(18) 0.1644(3)
C29 C 0.3356(3) 0.05679(18) 0.41444(16)
C30 C 0.3356(3) 0.08556(16) 0.44321(18)
C31 C 0.08556(16) 0.3356(3) 0.44321(18)
C32 C 0.05679(18) 0.3356(3) 0.41444(16)
H8 H 0.0980 0.0496 0.1715
H9 H 0.3285 0.0980 0.4504
H10 H 0.3285 0.0496 0.4020
H11 H 0.0980 0.3285 0.4504
H12 H 0.0496 0.3285 0.4020
C33 C 0.3249(3) 0.07456(19) 0.42544(19)
C34 C 0.07456(19) 0.3249(3) 0.42544(19)
C35 C 0.3031(4) 0.0820(3) 0.4180(3)
C36 C 0.0820(3) 0.3031(4) 0.4180(3)
C37 C 0.2851(4) 0.0871(3) 0.4129(3)
C38 C 0.0871(3) 0.2851(4) 0.4129(3)
C39 C 0.2635(4) 0.0945(2) 0.4055(2)
C40 C 0.0945(2) 0.2635(4) 0.4055(2)
C41 C 0.1125(2) 0.0838(2) 0.2471(4)
C42 C 0.2529(4) 0.1125(2) 0.4162(2)
C43 C 0.2529(4) 0.0838(2) 0.3875(2)
C44 C 0.1125(2) 0.2529(4) 0.4162(2)
C45 C 0.0838(2) 0.2529(4) 0.3875(2)
H13 H 0.1199 0.0715 0.2399
H14 H 0.2601 0.1199 0.4285
H15 H 0.2601 0.0715 0.3801
H16 H 0.1199 0.2601 0.4285
H17 H 0.0715 0.2601 0.3801
C46 C 0.1198(2) 0.0911(2) 0.2682(4)
C47 C 0.2318(4) 0.0911(2) 0.3802(2)
C48 C 0.2318(4) 0.1198(2) 0.4089(2)
C49 C 0.1198(2) 0.2318(4) 0.4089(2)
C50 C 0.0911(2) 0.2318(4) 0.3802(2)
H18 H 0.1321 0.0837 0.2754
H19 H 0.2246 0.1321 0.4163
H20 H 0.2246 0.0837 0.3679
H21 H 0.1321 0.2246 0.4163
H22 H 0.0837 0.2246 0.3679
C51 C 0.2211(4) 0.1091(3) 0.3909(3)
C52 C 0.1091(3) 0.2211(4) 0.3909(3)
C53 C 0.1993(5) 0.1166(3) 0.3834(3)
C54 C 0.1166(3) 0.1993(5) 0.3834(3)
C55 C 0.1812(5) 0.1228(4) 0.3772(4)
C56 C 0.1228(4) 0.1812(5) 0.3772(4)
C57 C 0.1223(5) 0.1511(5) 0.3489(5)
C58 C 0.1511(5) 0.1511(5) 0.3777(5)
H23 H 0.1080 0.1562 0.3438
H24 H 0.1562 0.1562 0.3920
C59 C 0.1617(9) 0.1329(9) 0.3671(9)
C60 C 0.1329(9) 0.1617(9) 0.3671(9)
Cu3_2 Cu 0.09537(4) 1.0000 0.09537(4)
Cu5_2 Cu 0.40463(4) 1.0000 0.40463(4)
Cu8_2 Cu 0.12700(5) 1.0000 0.12700(5)
Cu10_2 Cu 0.37300(5) 1.0000 0.37300(5)
O13 O 0.08177(19) 0.9768(2) 0.1139(2)
O15 O 0.1139(2) 0.9768(2) 0.08177(19)
O24_2 O 0.0687(2) 1.0000 0.0687(2)
Cu1_2 Cu 1.0000 0.09537(4) 0.09537(4)
Cu2_2 Cu 1.0000 0.12700(5) 0.12700(5)
O3_2 O 1.0000 0.0687(2) 0.0687(2)
O4_2 O 1.0000 0.1560(3) 0.1560(3)
Cu7_2 Cu 1.0000 0.40463(4) 0.40463(4)
Cu12_2 Cu 1.0000 0.37300(5) 0.37300(5)
O5 O 0.9768(2) 0.1139(2) 0.08177(19)
O6 O 0.9768(2) 0.08177(19) 0.1139(2)
O16 O 0.9771(2) 0.1409(2) 0.1080(2)
O17 O 0.9771(2) 0.1080(2) 0.1409(2)
Cu1_3 Cu 0.90463(4) -0.0000 0.09537(4)
Cu2_3 Cu 0.87300(5) -0.0000 0.12700(5)
O1_2 O 0.91823(19) 0.0232(2) 0.1139(2)
O2_2 O 0.8920(2) 0.0229(2) 0.1409(2)
O3_3 O 0.9313(2) -0.0000 0.0687(2)
O4_3 O 0.8440(3) 0.0000 0.1560(3)
C1_2 C 0.9099(3) 0.0305(3) 0.1317(3)
C2_2 C 0.9397(2) 0.0603(2) 0.1332(3)
H1_2 H 0.9449 0.0551 0.1189
C3_2 C 0.92171(19) 0.04956(17) 0.1431(3)
C4_2 C 0.91444(16) 0.05679(18) 0.1644(3)
H2_2 H 0.9020 0.0496 0.1715
C5_2 C 0.92544(19) 0.07456(19) 0.1751(3)
C6_2 C 0.9180(3) 0.0820(3) 0.1969(4)
C7_2 C 0.9129(3) 0.0871(3) 0.2149(4)
C8_2 C 0.9055(2) 0.0945(2) 0.2365(4)
C9_2 C 0.8875(2) 0.0838(2) 0.2471(4)
H3_2 H 0.8801 0.0715 0.2399
C10_2 C 0.8802(2) 0.0911(2) 0.2682(4)
H4_2 H 0.8679 0.0837 0.2754
C11_2 C 0.8909(3) 0.1091(3) 0.2789(4)
C12_2 C 0.8834(3) 0.1166(3) 0.3007(5)
C13_2 C 0.8772(4) 0.1228(4) 0.3188(5)
C14_2 C 0.8777(5) 0.1511(5) 0.3489(5)
H5_2 H 0.8920 0.1562 0.3438
C15_2 C 0.8671(9) 0.1329(9) 0.3383(9)
Cu4_2 Cu 0.90463(4) 0.40463(4) 0.5000
Cu6_2 Cu 0.59537(4) 0.09537(4) 0.5000
Cu7_3 Cu 0.59537(4) 0.0000 0.40463(4)
Cu9_2 Cu 0.87300(5) 0.37300(5) 0.5000
Cu11_2 Cu 0.62700(5) 0.12700(5) 0.5000
Cu12_3 Cu 0.62700(5) -0.0000 0.37300(5)
O7_2 O 0.8861(2) 0.0232(2) 0.08177(19)
O9_2 O 0.91823(19) 0.3861(2) 0.4768(2)
O10_2 O 0.9768(2) 0.3861(2) 0.41823(19)
O11_2 O 0.6139(2) 0.08177(19) 0.4768(2)
O12_2 O 0.6139(2) 0.0232(2) 0.41823(19)
O18_2 O 0.8591(2) 0.0229(2) 0.1080(2)
O20_2 O 0.8920(2) 0.3591(2) 0.4771(2)
O21_2 O 0.9771(2) 0.3591(2) 0.3920(2)
O22_2 O 0.6409(2) 0.1080(2) 0.4771(2)
O23_2 O 0.6409(2) 0.0229(2) 0.3920(2)
C16_2 C 0.9695(3) 0.0901(3) 0.1317(3)
C17_2 C 0.9099(3) 0.3683(3) 0.4695(3)
C18_2 C 0.9695(3) 0.3683(3) 0.4099(3)
C19_2 C 0.6317(3) 0.0901(3) 0.4695(3)
C20_2 C 0.6317(3) 0.0305(3) 0.4099(3)
C21_2 C 0.9397(2) 0.3668(3) 0.4397(2)
C22_2 C 0.6332(3) 0.0603(2) 0.4397(2)
H6_2 H 0.9449 0.3811 0.4449
H7_2 H 0.6189 0.0551 0.4449
C23_2 C 0.95044(17) 0.07829(19) 0.1431(3)
C24_2 C 0.92171(19) 0.3569(3) 0.45044(17)
C25_2 C 0.95044(17) 0.3569(3) 0.42171(19)
C26_2 C 0.6431(3) 0.07829(19) 0.45044(17)
C27_2 C 0.6431(3) 0.04956(17) 0.42171(19)
C28_2 C 0.94321(18) 0.08556(16) 0.1644(3)
C29_2 C 0.94321(18) 0.3356(3) 0.41444(16)
C30_2 C 0.91444(16) 0.3356(3) 0.44321(18)
C31_2 C 0.6644(3) 0.08556(16) 0.44321(18)
C32_2 C 0.6644(3) 0.05679(18) 0.41444(16)
H8_2 H 0.9504 0.0980 0.1715
H9_2 H 0.9020 0.3285 0.4504
H10_2 H 0.9504 0.3285 0.4020
H11_2 H 0.6715 0.0980 0.4504
H12_2 H 0.6715 0.0496 0.4020
C33_2 C 0.92544(19) 0.3249(3) 0.42544(19)
C34_2 C 0.6751(3) 0.07456(19) 0.42544(19)
C35_2 C 0.9180(3) 0.3031(4) 0.4180(3)
C36_2 C 0.6969(4) 0.0820(3) 0.4180(3)
C37_2 C 0.9129(3) 0.2851(4) 0.4129(3)
C38_2 C 0.7149(4) 0.0871(3) 0.4129(3)
C39_2 C 0.9055(2) 0.2635(4) 0.4055(2)
C40_2 C 0.7365(4) 0.0945(2) 0.4055(2)
C41_2 C 0.9162(2) 0.1125(2) 0.2471(4)
C42_2 C 0.8875(2) 0.2529(4) 0.4162(2)
C43_2 C 0.9162(2) 0.2529(4) 0.3875(2)
C44_2 C 0.7471(4) 0.1125(2) 0.4162(2)
C45_2 C 0.7471(4) 0.0838(2) 0.3875(2)
H13_2 H 0.9285 0.1199 0.2399
H14_2 H 0.8801 0.2601 0.4285
H15_2 H 0.9285 0.2601 0.3801
H16_2 H 0.7399 0.1199 0.4285
H17_2 H 0.7399 0.0715 0.3801
C46_2 C 0.9089(2) 0.1198(2) 0.2682(4)
C47_2 C 0.9089(2) 0.2318(4) 0.3802(2)
C48_2 C 0.8802(2) 0.2318(4) 0.4089(2)
C49_2 C 0.7682(4) 0.1198(2) 0.4089(2)
C50_2 C 0.7682(4) 0.0911(2) 0.3802(2)
H18_2 H 0.9163 0.1321 0.2754
H19_2 H 0.8679 0.2246 0.4163
H20_2 H 0.9163 0.2246 0.3679
H21_2 H 0.7754 0.1321 0.4163
H22_2 H 0.7754 0.0837 0.3679
C51_2 C 0.8909(3) 0.2211(4) 0.3909(3)
C52_2 C 0.7789(4) 0.1091(3) 0.3909(3)
C53_2 C 0.8834(3) 0.1993(5) 0.3834(3)
C54_2 C 0.8007(5) 0.1166(3) 0.3834(3)
C55_2 C 0.8772(4) 0.1812(5) 0.3772(4)
C56_2 C 0.8188(5) 0.1228(4) 0.3772(4)
C57_2 C 0.8489(5) 0.1223(5) 0.3489(5)
C58_2 C 0.8489(5) 0.1511(5) 0.3777(5)
H23_2 H 0.8438 0.1080 0.3438
H24_2 H 0.8438 0.1562 0.3920
C59_2 C 0.8671(9) 0.1617(9) 0.3671(9)
C60_2 C 0.8383(9) 0.1329(9) 0.3671(9)
Cu1_4 Cu 0.90463(4) 1.0000 0.09537(4)
Cu2_4 Cu 0.87300(5) 1.0000 0.12700(5)
O3_4 O 0.9313(2) 1.0000 0.0687(2)
O4_4 O 0.8440(3) 1.0000 0.1560(3)
Cu7_4 Cu 0.59537(4) 1.0000 0.40463(4)
Cu12_4 Cu 0.62700(5) 1.0000 0.37300(5)
O5_2 O 0.8861(2) 0.9768(2) 0.08177(19)
O6_2 O 0.91823(19) 0.9768(2) 0.1139(2)
O16_2 O 0.8591(2) 0.9771(2) 0.1080(2)
O17_2 O 0.8920(2) 0.9771(2) 0.1409(2)
Cu1_5 Cu -0.0000 0.90463(4) 0.09537(4)
Cu2_5 Cu 0.0000 0.87300(5) 0.12700(5)
O3_5 O 0.0000 0.9313(2) 0.0687(2)
O4_5 O -0.0000 0.8440(3) 0.1560(3)
Cu7_5 Cu 0.0000 0.59537(4) 0.40463(4)
Cu12_5 Cu -0.0000 0.62700(5) 0.37300(5)
O5_3 O 0.0232(2) 0.8861(2) 0.08177(19)
O6_3 O 0.0232(2) 0.91823(19) 0.1139(2)
O16_3 O 0.0229(2) 0.8591(2) 0.1080(2)
O17_3 O 0.0229(2) 0.8920(2) 0.1409(2)
Cu1_6 Cu 1.0000 0.90463(4) 0.09537(4)
Cu2_6 Cu 1.0000 0.87300(5) 0.12700(5)
O1_3 O 0.9768(2) 0.91823(19) 0.1139(2)
O2_3 O 0.9771(2) 0.8920(2) 0.1409(2)
O3_6 O 1.0000 0.9313(2) 0.0687(2)
O4_6 O 1.0000 0.8440(3) 0.1560(3)
C1_3 C 0.9695(3) 0.9099(3) 0.1317(3)
C2_3 C 0.9397(2) 0.9397(2) 0.1332(3)
H1_3 H 0.9449 0.9449 0.1189
C3_3 C 0.95044(17) 0.92171(19) 0.1431(3)
C4_3 C 0.94321(18) 0.91444(16) 0.1644(3)
H2_3 H 0.9504 0.9020 0.1715
C5_3 C 0.92544(19) 0.92544(19) 0.1751(3)
C6_3 C 0.9180(3) 0.9180(3) 0.1969(4)
C7_3 C 0.9129(3) 0.9129(3) 0.2149(4)
C8_3 C 0.9055(2) 0.9055(2) 0.2365(4)
C9_3 C 0.9162(2) 0.8875(2) 0.2471(4)
H3_3 H 0.9285 0.8801 0.2399
C10_3 C 0.9089(2) 0.8802(2) 0.2682(4)
H4_3 H 0.9163 0.8679 0.2754
C11_3 C 0.8909(3) 0.8909(3) 0.2789(4)
C12_3 C 0.8834(3) 0.8834(3) 0.3007(5)
C13_3 C 0.8772(4) 0.8772(4) 0.3188(5)
C14_3 C 0.8489(5) 0.8777(5) 0.3489(5)
H5_3 H 0.8438 0.8920 0.3438
C15_3 C 0.8671(9) 0.8671(9) 0.3383(9)
Cu4_3 Cu 0.59537(4) 0.90463(4) 0.5000
Cu6_3 Cu 0.90463(4) 0.59537(4) 0.5000
Cu7_6 Cu 1.0000 0.59537(4) 0.40463(4)
Cu9_3 Cu 0.62700(5) 0.87300(5) 0.5000
Cu11_3 Cu 0.87300(5) 0.62700(5) 0.5000
Cu12_6 Cu 1.0000 0.62700(5) 0.37300(5)
O7_3 O 0.9768(2) 0.8861(2) 0.08177(19)
O9_3 O 0.6139(2) 0.91823(19) 0.4768(2)
O10_3 O 0.6139(2) 0.9768(2) 0.41823(19)
O11_3 O 0.91823(19) 0.6139(2) 0.4768(2)
O12_3 O 0.9768(2) 0.6139(2) 0.41823(19)
O18_3 O 0.9771(2) 0.8591(2) 0.1080(2)
O20_3 O 0.6409(2) 0.8920(2) 0.4771(2)
O21_3 O 0.6409(2) 0.9771(2) 0.3920(2)
O22_3 O 0.8920(2) 0.6409(2) 0.4771(2)
O23_3 O 0.9771(2) 0.6409(2) 0.3920(2)
C16_3 C 0.9099(3) 0.9695(3) 0.1317(3)
C17_3 C 0.6317(3) 0.9099(3) 0.4695(3)
C18_3 C 0.6317(3) 0.9695(3) 0.4099(3)
C19_3 C 0.9099(3) 0.6317(3) 0.4695(3)
C20_3 C 0.9695(3) 0.6317(3) 0.4099(3)
C21_3 C 0.6332(3) 0.9397(2) 0.4397(2)
C22_3 C 0.9397(2) 0.6332(3) 0.4397(2)
H6_3 H 0.6189 0.9449 0.4449
H7_3 H 0.9449 0.6189 0.4449
C23_3 C 0.92171(19) 0.95044(17) 0.1431(3)
C24_3 C 0.6431(3) 0.92171(19) 0.45044(17)
C25_3 C 0.6431(3) 0.95044(17) 0.42171(19)
C26_3 C 0.92171(19) 0.6431(3) 0.45044(17)
C27_3 C 0.95044(17) 0.6431(3) 0.42171(19)
C28_3 C 0.91444(16) 0.94321(18) 0.1644(3)
C29_3 C 0.6644(3) 0.94321(18) 0.41444(16)
C30_3 C 0.6644(3) 0.91444(16) 0.44321(18)
C31_3 C 0.91444(16) 0.6644(3) 0.44321(18)
C32_3 C 0.94321(18) 0.6644(3) 0.41444(16)
H8_3 H 0.9020 0.9504 0.1715
H9_3 H 0.6715 0.9020 0.4504
H10_3 H 0.6715 0.9504 0.4020
H11_3 H 0.9020 0.6715 0.4504
H12_3 H 0.9504 0.6715 0.4020
C33_3 C 0.6751(3) 0.92544(19) 0.42544(19)
C34_3 C 0.92544(19) 0.6751(3) 0.42544(19)
C35_3 C 0.6969(4) 0.9180(3) 0.4180(3)
C36_3 C 0.9180(3) 0.6969(4) 0.4180(3)
C37_3 C 0.7149(4) 0.9129(3) 0.4129(3)
C38_3 C 0.9129(3) 0.7149(4) 0.4129(3)
C39_3 C 0.7365(4) 0.9055(2) 0.4055(2)
C40_3 C 0.9055(2) 0.7365(4) 0.4055(2)
C41_3 C 0.8875(2) 0.9162(2) 0.2471(4)
C42_3 C 0.7471(4) 0.8875(2) 0.4162(2)
C43_3 C 0.7471(4) 0.9162(2) 0.3875(2)
C44_3 C 0.8875(2) 0.7471(4) 0.4162(2)
C45_3 C 0.9162(2) 0.7471(4) 0.3875(2)
H13_3 H 0.8801 0.9285 0.2399
H14_3 H 0.7399 0.8801 0.4285
H15_3 H 0.7399 0.9285 0.3801
H16_3 H 0.8801 0.7399 0.4285
H17_3 H 0.9285 0.7399 0.3801
C46_3 C 0.8802(2) 0.9089(2) 0.2682(4)
C47_3 C 0.7682(4) 0.9089(2) 0.3802(2)
C48_3 C 0.7682(4) 0.8802(2) 0.4089(2)
C49_3 C 0.8802(2) 0.7682(4) 0.4089(2)
C50_3 C 0.9089(2) 0.7682(4) 0.3802(2)
H18_3 H 0.8679 0.9163 0.2754
H19_3 H 0.7754 0.8679 0.4163
H20_3 H 0.7754 0.9163 0.3679
H21_3 H 0.8679 0.7754 0.4163
H22_3 H 0.9163 0.7754 0.3679
C51_3 C 0.7789(4) 0.8909(3) 0.3909(3)
C52_3 C 0.8909(3) 0.7789(4) 0.3909(3)
C53_3 C 0.8007(5) 0.8834(3) 0.3834(3)
C54_3 C 0.8834(3) 0.8007(5) 0.3834(3)
C55_3 C 0.8188(5) 0.8772(4) 0.3772(4)
C56_3 C 0.8772(4) 0.8188(5) 0.3772(4)
C57_3 C 0.8777(5) 0.8489(5) 0.3489(5)
C58_3 C 0.8489(5) 0.8489(5) 0.3777(5)
H23_3 H 0.8920 0.8438 0.3438
H24_3 H 0.8438 0.8438 0.3920
C59_3 C 0.8383(9) 0.8671(9) 0.3671(9)
C60_3 C 0.8671(9) 0.8383(9) 0.3671(9)
O4_7 O 0.1560(3) -0.0000 0.1560(3)
O16_4 O 0.1409(2) 0.0229(2) 0.1080(2)
O2_4 O 0.1080(2) 0.9771(2) 0.1409(2)
O4_8 O 0.1560(3) 1.0000 0.1560(3)
C1_4 C 0.0901(3) 0.9695(3) 0.1317(3)
C2_4 C 0.0603(2) 0.9397(2) 0.1332(3)
H1_4 H 0.0551 0.9449 0.1189
C3_4 C 0.07829(19) 0.95044(17) 0.1431(3)
C4_4 C 0.08556(16) 0.94321(18) 0.1644(3)
H2_4 H 0.0980 0.9504 0.1715
C5_4 C 0.07456(19) 0.92544(19) 0.1751(3)
C6_4 C 0.0820(3) 0.9180(3) 0.1969(4)
C7_4 C 0.0871(3) 0.9129(3) 0.2149(4)
C8_4 C 0.0945(2) 0.9055(2) 0.2365(4)
C9_4 C 0.1125(2) 0.9162(2) 0.2471(4)
H3_4 H 0.1199 0.9285 0.2399
C10_4 C 0.1198(2) 0.9089(2) 0.2682(4)
H4_4 H 0.1321 0.9163 0.2754
C11_4 C 0.1091(3) 0.8909(3) 0.2789(4)
C12_4 C 0.1166(3) 0.8834(3) 0.3007(5)
C13_4 C 0.1228(4) 0.8772(4) 0.3188(5)
C14_4 C 0.1223(5) 0.8489(5) 0.3489(5)
H5_4 H 0.1080 0.8438 0.3438
C15_4 C 0.1329(9) 0.8671(9) 0.3383(9)
Cu4_4 Cu 0.09537(4) 0.59537(4) 0.5000
Cu6_4 Cu 0.40463(4) 0.90463(4) 0.5000
Cu9_4 Cu 0.12700(5) 0.62700(5) 0.5000
Cu11_4 Cu 0.37300(5) 0.87300(5) 0.5000
O9_4 O 0.08177(19) 0.6139(2) 0.4768(2)
O10_4 O 0.0232(2) 0.6139(2) 0.41823(19)
O11_4 O 0.3861(2) 0.91823(19) 0.4768(2)
O12_4 O 0.3861(2) 0.9768(2) 0.41823(19)
O18_4 O 0.1409(2) 0.9771(2) 0.1080(2)
O20_4 O 0.1080(2) 0.6409(2) 0.4771(2)
O21_4 O 0.0229(2) 0.6409(2) 0.3920(2)
O22_4 O 0.3591(2) 0.8920(2) 0.4771(2)
O23_4 O 0.3591(2) 0.9771(2) 0.3920(2)
C16_4 C 0.0305(3) 0.9099(3) 0.1317(3)
C17_4 C 0.0901(3) 0.6317(3) 0.4695(3)
C18_4 C 0.0305(3) 0.6317(3) 0.4099(3)
C19_4 C 0.3683(3) 0.9099(3) 0.4695(3)
C20_4 C 0.3683(3) 0.9695(3) 0.4099(3)
C21_4 C 0.0603(2) 0.6332(3) 0.4397(2)
C22_4 C 0.3668(3) 0.9397(2) 0.4397(2)
H6_4 H 0.0551 0.6189 0.4449
H7_4 H 0.3811 0.9449 0.4449
C23_4 C 0.04956(17) 0.92171(19) 0.1431(3)
C24_4 C 0.07829(19) 0.6431(3) 0.45044(17)
C25_4 C 0.04956(17) 0.6431(3) 0.42171(19)
C26_4 C 0.3569(3) 0.92171(19) 0.45044(17)
C27_4 C 0.3569(3) 0.95044(17) 0.42171(19)
C28_4 C 0.05679(18) 0.91444(16) 0.1644(3)
C29_4 C 0.05679(18) 0.6644(3) 0.41444(16)
C30_4 C 0.08556(16) 0.6644(3) 0.44321(18)
C31_4 C 0.3356(3) 0.91444(16) 0.44321(18)
C32_4 C 0.3356(3) 0.94321(18) 0.41444(16)
H8_4 H 0.0496 0.9020 0.1715
H9_4 H 0.0980 0.6715 0.4504
H10_4 H 0.0496 0.6715 0.4020
H11_4 H 0.3285 0.9020 0.4504
H12_4 H 0.3285 0.9504 0.4020
C33_4 C 0.07456(19) 0.6751(3) 0.42544(19)
C34_4 C 0.3249(3) 0.92544(19) 0.42544(19)
C35_4 C 0.0820(3) 0.6969(4) 0.4180(3)
C36_4 C 0.3031(4) 0.9180(3) 0.4180(3)
C37_4 C 0.0871(3) 0.7149(4) 0.4129(3)
C38_4 C 0.2851(4) 0.9129(3) 0.4129(3)
C39_4 C 0.0945(2) 0.7365(4) 0.4055(2)
C40_4 C 0.2635(4) 0.9055(2) 0.4055(2)
C41_4 C 0.0838(2) 0.8875(2) 0.2471(4)
C42_4 C 0.1125(2) 0.7471(4) 0.4162(2)
C43_4 C 0.0838(2) 0.7471(4) 0.3875(2)
C44_4 C 0.2529(4) 0.8875(2) 0.4162(2)
C45_4 C 0.2529(4) 0.9162(2) 0.3875(2)
H13_4 H 0.0715 0.8801 0.2399
H14_4 H 0.1199 0.7399 0.4285
H15_4 H 0.0715 0.7399 0.3801
H16_4 H 0.2601 0.8801 0.4285
H17_4 H 0.2601 0.9285 0.3801
C46_4 C 0.0911(2) 0.8802(2) 0.2682(4)
C47_4 C 0.0911(2) 0.7682(4) 0.3802(2)
C48_4 C 0.1198(2) 0.7682(4) 0.4089(2)
C49_4 C 0.2318(4) 0.8802(2) 0.4089(2)
C50_4 C 0.2318(4) 0.9089(2) 0.3802(2)
H18_4 H 0.0837 0.8679 0.2754
H19_4 H 0.1321 0.7754 0.4163
H20_4 H 0.0837 0.7754 0.3679
H21_4 H 0.2246 0.8679 0.4163
H22_4 H 0.2246 0.9163 0.3679
C51_4 C 0.1091(3) 0.7789(4) 0.3909(3)
C52_4 C 0.2211(4) 0.8909(3) 0.3909(3)
C53_4 C 0.1166(3) 0.8007(5) 0.3834(3)
C54_4 C 0.1993(5) 0.8834(3) 0.3834(3)
C55_4 C 0.1228(4) 0.8188(5) 0.3772(4)
C56_4 C 0.1812(5) 0.8772(4) 0.3772(4)
C57_4 C 0.1511(5) 0.8777(5) 0.3489(5)
C58_4 C 0.1511(5) 0.8489(5) 0.3777(5)
H23_4 H 0.1562 0.8920 0.3438
H24_4 H 0.1562 0.8438 0.3920
C59_4 C 0.1329(9) 0.8383(9) 0.3671(9)
C60_4 C 0.1617(9) 0.8671(9) 0.3671(9)
C1_5 C 0.0305(3) 0.8683(3) 0.0901(3)
C2_5 C 0.0603(2) 0.8668(3) 0.0603(2)
H1_5 H 0.0551 0.8811 0.0551
C3_5 C 0.04956(17) 0.8569(3) 0.07829(19)
C4_5 C 0.05679(18) 0.8356(3) 0.08556(16)
H2_5 H 0.0496 0.8285 0.0980
C5_5 C 0.07456(19) 0.8249(3) 0.07456(19)
C6_5 C 0.0820(3) 0.8031(4) 0.0820(3)
C7_5 C 0.0871(3) 0.7851(4) 0.0871(3)
C8_5 C 0.0945(2) 0.7635(4) 0.0945(2)
C9_5 C 0.0838(2) 0.7529(4) 0.1125(2)
H3_5 H 0.0715 0.7601 0.1199
C10_5 C 0.0911(2) 0.7318(4) 0.1198(2)
H4_5 H 0.0837 0.7246 0.1321
C11_5 C 0.1091(3) 0.7211(4) 0.1091(3)
C12_5 C 0.1166(3) 0.6993(5) 0.1166(3)
C13_5 C 0.1228(4) 0.6812(5) 0.1228(4)
C14_5 C 0.1511(5) 0.6511(5) 0.1223(5)
H5_5 H 0.1562 0.6562 0.1080
C15_5 C 0.1329(9) 0.6617(9) 0.1329(9)
Cu3_3 Cu 0.09537(4) 0.90463(4) 0.0000
Cu4_5 Cu 0.40463(4) 0.5000 0.09537(4)
Cu5_3 Cu 0.40463(4) 0.59537(4) 0.0000
Cu6_5 Cu 0.09537(4) 0.5000 0.40463(4)
Cu8_3 Cu 0.12700(5) 0.87300(5) 0.0000
Cu9_5 Cu 0.37300(5) 0.5000 0.12700(5)
Cu10_3 Cu 0.37300(5) 0.62700(5) -0.0000
Cu11_5 Cu 0.12700(5) 0.5000 0.37300(5)
O8_2 O 0.08177(19) 0.8861(2) 0.0232(2)
O9_5 O 0.3861(2) 0.5232(2) 0.08177(19)
O10_5 O 0.3861(2) 0.58177(19) 0.0232(2)
O11_5 O 0.08177(19) 0.5232(2) 0.3861(2)
O12_5 O 0.0232(2) 0.58177(19) 0.3861(2)
O14_2 O 0.1139(2) 0.91823(19) 0.0232(2)
O19_2 O 0.1080(2) 0.8591(2) 0.0229(2)
O20_5 O 0.3591(2) 0.5229(2) 0.1080(2)
O21_5 O 0.3591(2) 0.6080(2) 0.0229(2)
O22_5 O 0.1080(2) 0.5229(2) 0.3591(2)
O23_5 O 0.0229(2) 0.6080(2) 0.3591(2)
O24_3 O 0.0687(2) 0.9313(2) -0.0000
C16_5 C 0.0901(3) 0.8683(3) 0.0305(3)
C17_5 C 0.3683(3) 0.5305(3) 0.0901(3)
C18_5 C 0.3683(3) 0.5901(3) 0.0305(3)
C19_5 C 0.0901(3) 0.5305(3) 0.3683(3)
C20_5 C 0.0305(3) 0.5901(3) 0.3683(3)
C21_5 C 0.3668(3) 0.5603(2) 0.0603(2)
C22_5 C 0.0603(2) 0.5603(2) 0.3668(3)
H6_5 H 0.3811 0.5551 0.0551
H7_5 H 0.0551 0.5551 0.3811
C23_5 C 0.07829(19) 0.8569(3) 0.04956(17)
C24_5 C 0.3569(3) 0.54956(17) 0.07829(19)
C25_5 C 0.3569(3) 0.57829(19) 0.04956(17)
C26_5 C 0.07829(19) 0.54956(17) 0.3569(3)
C27_5 C 0.04956(17) 0.57829(19) 0.3569(3)
C28_5 C 0.08556(16) 0.8356(3) 0.05679(18)
C29_5 C 0.3356(3) 0.58556(16) 0.05679(18)
C30_5 C 0.3356(3) 0.55679(18) 0.08556(16)
C31_5 C 0.08556(16) 0.55679(18) 0.3356(3)
C32_5 C 0.05679(18) 0.58556(16) 0.3356(3)
H8_5 H 0.0980 0.8285 0.0496
H9_5 H 0.3285 0.5496 0.0980
H10_5 H 0.3285 0.5980 0.0496
H11_5 H 0.0980 0.5496 0.3285
H12_5 H 0.0496 0.5980 0.3285
C33_5 C 0.3249(3) 0.57456(19) 0.07456(19)
C34_5 C 0.07456(19) 0.57456(19) 0.3249(3)
C35_5 C 0.3031(4) 0.5820(3) 0.0820(3)
C36_5 C 0.0820(3) 0.5820(3) 0.3031(4)
C37_5 C 0.2851(4) 0.5871(3) 0.0871(3)
C38_5 C 0.0871(3) 0.5871(3) 0.2851(4)
C39_5 C 0.2635(4) 0.5945(2) 0.0945(2)
C40_5 C 0.0945(2) 0.5945(2) 0.2635(4)
C41_5 C 0.1125(2) 0.7529(4) 0.0838(2)
C42_5 C 0.2529(4) 0.5838(2) 0.1125(2)
C43_5 C 0.2529(4) 0.6125(2) 0.0838(2)
C44_5 C 0.1125(2) 0.5838(2) 0.2529(4)
C45_5 C 0.0838(2) 0.6125(2) 0.2529(4)
H13_5 H 0.1199 0.7601 0.0715
H14_5 H 0.2601 0.5715 0.1199
H15_5 H 0.2601 0.6199 0.0715
H16_5 H 0.1199 0.5715 0.2601
H17_5 H 0.0715 0.6199 0.2601
C46_5 C 0.1198(2) 0.7318(4) 0.0911(2)
C47_5 C 0.2318(4) 0.6198(2) 0.0911(2)
C48_5 C 0.2318(4) 0.5911(2) 0.1198(2)
C49_5 C 0.1198(2) 0.5911(2) 0.2318(4)
C50_5 C 0.0911(2) 0.6198(2) 0.2318(4)
H18_5 H 0.1321 0.7246 0.0837
H19_5 H 0.2246 0.5837 0.1321
H20_5 H 0.2246 0.6321 0.0837
H21_5 H 0.1321 0.5837 0.2246
H22_5 H 0.0837 0.6321 0.2246
C51_5 C 0.2211(4) 0.6091(3) 0.1091(3)
C52_5 C 0.1091(3) 0.6091(3) 0.2211(4)
C53_5 C 0.1993(5) 0.6166(3) 0.1166(3)
C54_5 C 0.1166(3) 0.6166(3) 0.1993(5)
C55_5 C 0.1812(5) 0.6228(4) 0.1228(4)
C56_5 C 0.1228(4) 0.6228(4) 0.1812(5)
C57_5 C 0.1223(5) 0.6511(5) 0.1511(5)
C58_5 C 0.1511(5) 0.6223(5) 0.1511(5)
H23_5 H 0.1080 0.6562 0.1562
H24_5 H 0.1562 0.6080 0.1562
C59_5 C 0.1617(9) 0.6329(9) 0.1329(9)
C60_5 C 0.1329(9) 0.6329(9) 0.1617(9)
Cu3_4 Cu 0.09537(4) 0.90463(4) 1.0000
Cu5_4 Cu 0.40463(4) 0.59537(4) 1.0000
Cu8_4 Cu 0.12700(5) 0.87300(5) 1.0000
Cu10_4 Cu 0.37300(5) 0.62700(5) 1.0000
O13_2 O 0.08177(19) 0.8861(2) 0.9768(2)
O15_2 O 0.1139(2) 0.91823(19) 0.9768(2)
O24_4 O 0.0687(2) 0.9313(2) 1.0000
Cu3_5 Cu 0.09537(4) -0.0000 0.90463(4)
Cu5_5 Cu 0.40463(4) -0.0000 0.59537(4)
Cu8_5 Cu 0.12700(5) 0.0000 0.87300(5)
Cu10_5 Cu 0.37300(5) 0.0000 0.62700(5)
O13_3 O 0.08177(19) 0.0232(2) 0.8861(2)
O15_3 O 0.1139(2) 0.0232(2) 0.91823(19)
O24_5 O 0.0687(2) 0.0000 0.9313(2)
Cu1_7 Cu -0.0000 0.90463(4) 0.90463(4)
Cu2_7 Cu 0.0000 0.87300(5) 0.87300(5)
O1_4 O 0.0232(2) 0.91823(19) 0.8861(2)
O2_5 O 0.0229(2) 0.8920(2) 0.8591(2)
O3_7 O 0.0000 0.9313(2) 0.9313(2)
O4_9 O 0.0000 0.8440(3) 0.8440(3)
C1_6 C 0.0305(3) 0.9099(3) 0.8683(3)
C2_6 C 0.0603(2) 0.9397(2) 0.8668(3)
H1_6 H 0.0551 0.9449 0.8811
C3_6 C 0.04956(17) 0.92171(19) 0.8569(3)
C4_6 C 0.05679(18) 0.91444(16) 0.8356(3)
H2_6 H 0.0496 0.9020 0.8285
C5_6 C 0.07456(19) 0.92544(19) 0.8249(3)
C6_6 C 0.0820(3) 0.9180(3) 0.8031(4)
C7_6 C 0.0871(3) 0.9129(3) 0.7851(4)
C8_6 C 0.0945(2) 0.9055(2) 0.7635(4)
C9_6 C 0.0838(2) 0.8875(2) 0.7529(4)
H3_6 H 0.0715 0.8801 0.7601
C10_6 C 0.0911(2) 0.8802(2) 0.7318(4)
H4_6 H 0.0837 0.8679 0.7246
C11_6 C 0.1091(3) 0.8909(3) 0.7211(4)
C12_6 C 0.1166(3) 0.8834(3) 0.6993(5)
C13_6 C 0.1228(4) 0.8772(4) 0.6812(5)
C14_6 C 0.1511(5) 0.8777(5) 0.6511(5)
H5_6 H 0.1562 0.8920 0.6562
C15_6 C 0.1329(9) 0.8671(9) 0.6617(9)
Cu3_6 Cu 0.09537(4) 1.0000 0.90463(4)
Cu5_6 Cu 0.40463(4) 1.0000 0.59537(4)
Cu7_7 Cu 0.0000 0.59537(4) 0.59537(4)
Cu8_6 Cu 0.12700(5) 1.0000 0.87300(5)
Cu10_6 Cu 0.37300(5) 1.0000 0.62700(5)
Cu12_7 Cu -0.0000 0.62700(5) 0.62700(5)
O7_4 O 0.0232(2) 0.8861(2) 0.91823(19)
O8_3 O 0.08177(19) 0.9768(2) 0.8861(2)
O9_6 O 0.3861(2) 0.91823(19) 0.5232(2)
O10_6 O 0.3861(2) 0.9768(2) 0.58177(19)
O11_6 O 0.08177(19) 0.6139(2) 0.5232(2)
O12_6 O 0.0232(2) 0.6139(2) 0.58177(19)
O14_3 O 0.1139(2) 0.9768(2) 0.91823(19)
O18_5 O 0.0229(2) 0.8591(2) 0.8920(2)
O19_3 O 0.1080(2) 0.9771(2) 0.8591(2)
O20_6 O 0.3591(2) 0.8920(2) 0.5229(2)
O21_6 O 0.3591(2) 0.9771(2) 0.6080(2)
O22_6 O 0.1080(2) 0.6409(2) 0.5229(2)
O23_6 O 0.0229(2) 0.6409(2) 0.6080(2)
O24_6 O 0.0687(2) 1.0000 0.9313(2)
C16_6 C 0.0901(3) 0.9695(3) 0.8683(3)
C17_6 C 0.3683(3) 0.9099(3) 0.5305(3)
C18_6 C 0.3683(3) 0.9695(3) 0.5901(3)
C19_6 C 0.0901(3) 0.6317(3) 0.5305(3)
C20_6 C 0.0305(3) 0.6317(3) 0.5901(3)
C21_6 C 0.3668(3) 0.9397(2) 0.5603(2)
C22_6 C 0.0603(2) 0.6332(3) 0.5603(2)
H6_6 H 0.3811 0.9449 0.5551
H7_6 H 0.0551 0.6189 0.5551
C23_6 C 0.07829(19) 0.95044(17) 0.8569(3)
C24_6 C 0.3569(3) 0.92171(19) 0.54956(17)
C25_6 C 0.3569(3) 0.95044(17) 0.57829(19)
C26_6 C 0.07829(19) 0.6431(3) 0.54956(17)
C27_6 C 0.04956(17) 0.6431(3) 0.57829(19)
C28_6 C 0.08556(16) 0.94321(18) 0.8356(3)
C29_6 C 0.3356(3) 0.94321(18) 0.58556(16)
C30_6 C 0.3356(3) 0.91444(16) 0.55679(18)
C31_6 C 0.08556(16) 0.6644(3) 0.55679(18)
C32_6 C 0.05679(18) 0.6644(3) 0.58556(16)
H8_6 H 0.0980 0.9504 0.8285
H9_6 H 0.3285 0.9020 0.5496
H10_6 H 0.3285 0.9504 0.5980
H11_6 H 0.0980 0.6715 0.5496
H12_6 H 0.0496 0.6715 0.5980
C33_6 C 0.3249(3) 0.92544(19) 0.57456(19)
C34_6 C 0.07456(19) 0.6751(3) 0.57456(19)
C35_6 C 0.3031(4) 0.9180(3) 0.5820(3)
C36_6 C 0.0820(3) 0.6969(4) 0.5820(3)
C37_6 C 0.2851(4) 0.9129(3) 0.5871(3)
C38_6 C 0.0871(3) 0.7149(4) 0.5871(3)
C39_6 C 0.2635(4) 0.9055(2) 0.5945(2)
C40_6 C 0.0945(2) 0.7365(4) 0.5945(2)
C41_6 C 0.1125(2) 0.9162(2) 0.7529(4)
C42_6 C 0.2529(4) 0.8875(2) 0.5838(2)
C43_6 C 0.2529(4) 0.9162(2) 0.6125(2)
C44_6 C 0.1125(2) 0.7471(4) 0.5838(2)
C45_6 C 0.0838(2) 0.7471(4) 0.6125(2)
H13_6 H 0.1199 0.9285 0.7601
H14_6 H 0.2601 0.8801 0.5715
H15_6 H 0.2601 0.9285 0.6199
H16_6 H 0.1199 0.7399 0.5715
H17_6 H 0.0715 0.7399 0.6199
C46_6 C 0.1198(2) 0.9089(2) 0.7318(4)
C47_6 C 0.2318(4) 0.9089(2) 0.6198(2)
C48_6 C 0.2318(4) 0.8802(2) 0.5911(2)
C49_6 C 0.1198(2) 0.7682(4) 0.5911(2)
C50_6 C 0.0911(2) 0.7682(4) 0.6198(2)
H18_6 H 0.1321 0.9163 0.7246
H19_6 H 0.2246 0.8679 0.5837
H20_6 H 0.2246 0.9163 0.6321
H21_6 H 0.1321 0.7754 0.5837
H22_6 H 0.0837 0.7754 0.6321
C51_6 C 0.2211(4) 0.8909(3) 0.6091(3)
C52_6 C 0.1091(3) 0.7789(4) 0.6091(3)
C53_6 C 0.1993(5) 0.8834(3) 0.6166(3)
C54_6 C 0.1166(3) 0.8007(5) 0.6166(3)
C55_6 C 0.1812(5) 0.8772(4) 0.6228(4)
C56_6 C 0.1228(4) 0.8188(5) 0.6228(4)
C57_6 C 0.1223(5) 0.8489(5) 0.6511(5)
C58_6 C 0.1511(5) 0.8489(5) 0.6223(5)
H23_6 H 0.1080 0.8438 0.6562
H24_6 H 0.1562 0.8438 0.6080
C59_6 C 0.1617(9) 0.8671(9) 0.6329(9)
C60_6 C 0.1329(9) 0.8383(9) 0.6329(9)
Cu1_8 Cu 1.0000 0.90463(4) 0.90463(4)
Cu2_8 Cu 1.0000 0.87300(5) 0.87300(5)
O3_8 O 1.0000 0.9313(2) 0.9313(2)
O4_10 O 1.0000 0.8440(3) 0.8440(3)
Cu7_8 Cu 1.0000 0.59537(4) 0.59537(4)
Cu12_8 Cu 1.0000 0.62700(5) 0.62700(5)
O5_4 O 0.9768(2) 0.8861(2) 0.91823(19)
O6_4 O 0.9768(2) 0.91823(19) 0.8861(2)
O16_5 O 0.9771(2) 0.8591(2) 0.8920(2)
O17_4 O 0.9771(2) 0.8920(2) 0.8591(2)
Cu3_7 Cu 0.09537(4) 0.09537(4) 0.0000
Cu5_7 Cu 0.40463(4) 0.40463(4) -0.0000
Cu8_7 Cu 0.12700(5) 0.12700(5) 0.0000
Cu10_7 Cu 0.37300(5) 0.37300(5) 0.0000
O13_4 O 0.08177(19) 0.1139(2) 0.0232(2)
O15_4 O 0.1139(2) 0.08177(19) 0.0232(2)
O24_7 O 0.0687(2) 0.0687(2) 0.0000
Cu1_9 Cu -0.0000 0.09537(4) 0.90463(4)
Cu2_9 Cu 0.0000 0.12700(5) 0.87300(5)
O1_5 O 0.0232(2) 0.1139(2) 0.91823(19)
O2_6 O 0.0229(2) 0.1409(2) 0.8920(2)
O3_9 O 0.0000 0.0687(2) 0.9313(2)
O4_11 O 0.0000 0.1560(3) 0.8440(3)
C1_7 C 0.0305(3) 0.1317(3) 0.9099(3)
C2_7 C 0.0603(2) 0.1332(3) 0.9397(2)
H1_7 H 0.0551 0.1189 0.9449
C3_7 C 0.04956(17) 0.1431(3) 0.92171(19)
C4_7 C 0.05679(18) 0.1644(3) 0.91444(16)
H2_7 H 0.0496 0.1715 0.9020
C5_7 C 0.07456(19) 0.1751(3) 0.92544(19)
C6_7 C 0.0820(3) 0.1969(4) 0.9180(3)
C7_7 C 0.0871(3) 0.2149(4) 0.9129(3)
C8_7 C 0.0945(2) 0.2365(4) 0.9055(2)
C9_7 C 0.0838(2) 0.2471(4) 0.8875(2)
H3_7 H 0.0715 0.2399 0.8801
C10_7 C 0.0911(2) 0.2682(4) 0.8802(2)
H4_7 H 0.0837 0.2754 0.8679
C11_7 C 0.1091(3) 0.2789(4) 0.8909(3)
C12_7 C 0.1166(3) 0.3007(5) 0.8834(3)
C13_7 C 0.1228(4) 0.3188(5) 0.8772(4)
C14_7 C 0.1511(5) 0.3489(5) 0.8777(5)
H5_7 H 0.1562 0.3438 0.8920
C15_7 C 0.1329(9) 0.3383(9) 0.8671(9)
Cu3_8 Cu 0.09537(4) 0.09537(4) 1.0000
Cu4_6 Cu 0.40463(4) 0.5000 0.90463(4)
Cu5_8 Cu 0.40463(4) 0.40463(4) 1.0000
Cu6_6 Cu 0.09537(4) 0.5000 0.59537(4)
Cu7_9 Cu -0.0000 0.40463(4) 0.59537(4)
Cu8_8 Cu 0.12700(5) 0.12700(5) 1.0000
Cu9_6 Cu 0.37300(5) 0.5000 0.87300(5)
Cu10_8 Cu 0.37300(5) 0.37300(5) 1.0000
Cu11_6 Cu 0.12700(5) 0.5000 0.62700(5)
Cu12_9 Cu -0.0000 0.37300(5) 0.62700(5)
O7_5 O 0.0232(2) 0.08177(19) 0.8861(2)
O8_4 O 0.08177(19) 0.1139(2) 0.9768(2)
O9_7 O 0.3861(2) 0.4768(2) 0.91823(19)
O10_7 O 0.3861(2) 0.41823(19) 0.9768(2)
O11_7 O 0.08177(19) 0.4768(2) 0.6139(2)
O12_7 O 0.0232(2) 0.41823(19) 0.6139(2)
O14_4 O 0.1139(2) 0.08177(19) 0.9768(2)
O18_6 O 0.0229(2) 0.1080(2) 0.8591(2)
O19_4 O 0.1080(2) 0.1409(2) 0.9771(2)
O20_7 O 0.3591(2) 0.4771(2) 0.8920(2)
O21_7 O 0.3591(2) 0.3920(2) 0.9771(2)
O22_7 O 0.1080(2) 0.4771(2) 0.6409(2)
O23_7 O 0.0229(2) 0.3920(2) 0.6409(2)
O24_8 O 0.0687(2) 0.0687(2) 1.0000
C16_7 C 0.0901(3) 0.1317(3) 0.9695(3)
C17_7 C 0.3683(3) 0.4695(3) 0.9099(3)
C18_7 C 0.3683(3) 0.4099(3) 0.9695(3)
C19_7 C 0.0901(3) 0.4695(3) 0.6317(3)
C20_7 C 0.0305(3) 0.4099(3) 0.6317(3)
C21_7 C 0.3668(3) 0.4397(2) 0.9397(2)
C22_7 C 0.0603(2) 0.4397(2) 0.6332(3)
H6_7 H 0.3811 0.4449 0.9449
H7_7 H 0.0551 0.4449 0.6189
C23_7 C 0.07829(19) 0.1431(3) 0.95044(17)
C24_7 C 0.3569(3) 0.45044(17) 0.92171(19)
C25_7 C 0.3569(3) 0.42171(19) 0.95044(17)
C26_7 C 0.07829(19) 0.45044(17) 0.6431(3)
C27_7 C 0.04956(17) 0.42171(19) 0.6431(3)
C28_7 C 0.08556(16) 0.1644(3) 0.94321(18)
C29_7 C 0.3356(3) 0.41444(16) 0.94321(18)
C30_7 C 0.3356(3) 0.44321(18) 0.91444(16)
C31_7 C 0.08556(16) 0.44321(18) 0.6644(3)
C32_7 C 0.05679(18) 0.41444(16) 0.6644(3)
H8_7 H 0.0980 0.1715 0.9504
H9_7 H 0.3285 0.4504 0.9020
H10_7 H 0.3285 0.4020 0.9504
H11_7 H 0.0980 0.4504 0.6715
H12_7 H 0.0496 0.4020 0.6715
C33_7 C 0.3249(3) 0.42544(19) 0.92544(19)
C34_7 C 0.07456(19) 0.42544(19) 0.6751(3)
C35_7 C 0.3031(4) 0.4180(3) 0.9180(3)
C36_7 C 0.0820(3) 0.4180(3) 0.6969(4)
C37_7 C 0.2851(4) 0.4129(3) 0.9129(3)
C38_7 C 0.0871(3) 0.4129(3) 0.7149(4)
C39_7 C 0.2635(4) 0.4055(2) 0.9055(2)
C40_7 C 0.0945(2) 0.4055(2) 0.7365(4)
C41_7 C 0.1125(2) 0.2471(4) 0.9162(2)
C42_7 C 0.2529(4) 0.4162(2) 0.8875(2)
C43_7 C 0.2529(4) 0.3875(2) 0.9162(2)
C44_7 C 0.1125(2) 0.4162(2) 0.7471(4)
C45_7 C 0.0838(2) 0.3875(2) 0.7471(4)
H13_7 H 0.1199 0.2399 0.9285
H14_7 H 0.2601 0.4285 0.8801
H15_7 H 0.2601 0.3801 0.9285
H16_7 H 0.1199 0.4285 0.7399
H17_7 H 0.0715 0.3801 0.7399
C46_7 C 0.1198(2) 0.2682(4) 0.9089(2)
C47_7 C 0.2318(4) 0.3802(2) 0.9089(2)
C48_7 C 0.2318(4) 0.4089(2) 0.8802(2)
C49_7 C 0.1198(2) 0.4089(2) 0.7682(4)
C50_7 C 0.0911(2) 0.3802(2) 0.7682(4)
H18_7 H 0.1321 0.2754 0.9163
H19_7 H 0.2246 0.4163 0.8679
H20_7 H 0.2246 0.3679 0.9163
H21_7 H 0.1321 0.4163 0.7754
H22_7 H 0.0837 0.3679 0.7754
C51_7 C 0.2211(4) 0.3909(3) 0.8909(3)
C52_7 C 0.1091(3) 0.3909(3) 0.7789(4)
C53_7 C 0.1993(5) 0.3834(3) 0.8834(3)
C54_7 C 0.1166(3) 0.3834(3) 0.8007(5)
C55_7 C 0.1812(5) 0.3772(4) 0.8772(4)
C56_7 C 0.1228(4) 0.3772(4) 0.8188(5)
C57_7 C 0.1223(5) 0.3489(5) 0.8489(5)
C58_7 C 0.1511(5) 0.3777(5) 0.8489(5)
H23_7 H 0.1080 0.3438 0.8438
H24_7 H 0.1562 0.3920 0.8438
C59_7 C 0.1617(9) 0.3671(9) 0.8671(9)
C60_7 C 0.1329(9) 0.3671(9) 0.8383(9)
Cu1_10 Cu 1.0000 0.09537(4) 0.90463(4)
Cu2_10 Cu 1.0000 0.12700(5) 0.87300(5)
O3_10 O 1.0000 0.0687(2) 0.9313(2)
O4_12 O 1.0000 0.1560(3) 0.8440(3)
Cu7_10 Cu 1.0000 0.40463(4) 0.59537(4)
Cu12_10 Cu 1.0000 0.37300(5) 0.62700(5)
O5_5 O 0.9768(2) 0.08177(19) 0.8861(2)
O6_5 O 0.9768(2) 0.1139(2) 0.91823(19)
O16_6 O 0.9771(2) 0.1080(2) 0.8591(2)
O17_5 O 0.9771(2) 0.1409(2) 0.8920(2)
O4_13 O 0.1560(3) 0.1560(3) -0.0000
O16_7 O 0.1080(2) 0.1409(2) 0.0229(2)
O17_6 O 0.1409(2) 0.1080(2) 0.0229(2)
O2_7 O 0.1409(2) 0.1080(2) 0.9771(2)
O4_14 O 0.1560(3) 0.1560(3) 1.0000
C1_8 C 0.1317(3) 0.0901(3) 0.9695(3)
C2_8 C 0.1332(3) 0.0603(2) 0.9397(2)
H1_8 H 0.1189 0.0551 0.9449
C3_8 C 0.1431(3) 0.07829(19) 0.95044(17)
C4_8 C 0.1644(3) 0.08556(16) 0.94321(18)
H2_8 H 0.1715 0.0980 0.9504
C5_8 C 0.1751(3) 0.07456(19) 0.92544(19)
C6_8 C 0.1969(4) 0.0820(3) 0.9180(3)
C7_8 C 0.2149(4) 0.0871(3) 0.9129(3)
C8_8 C 0.2365(4) 0.0945(2) 0.9055(2)
C9_8 C 0.2471(4) 0.1125(2) 0.9162(2)
H3_8 H 0.2399 0.1199 0.9285
C10_8 C 0.2682(4) 0.1198(2) 0.9089(2)
H4_8 H 0.2754 0.1321 0.9163
C11_8 C 0.2789(4) 0.1091(3) 0.8909(3)
C12_8 C 0.3007(5) 0.1166(3) 0.8834(3)
C13_8 C 0.3188(5) 0.1228(4) 0.8772(4)
C14_8 C 0.3489(5) 0.1223(5) 0.8489(5)
H5_8 H 0.3438 0.1080 0.8438
C15_8 C 0.3383(9) 0.1329(9) 0.8671(9)
Cu4_7 Cu 0.5000 0.09537(4) 0.59537(4)
Cu6_7 Cu 0.5000 0.40463(4) 0.90463(4)
Cu9_7 Cu 0.5000 0.12700(5) 0.62700(5)
Cu11_7 Cu 0.5000 0.37300(5) 0.87300(5)
O9_8 O 0.4768(2) 0.08177(19) 0.6139(2)
O10_8 O 0.41823(19) 0.0232(2) 0.6139(2)
O11_8 O 0.4768(2) 0.3861(2) 0.91823(19)
O12_8 O 0.41823(19) 0.3861(2) 0.9768(2)
O19_5 O 0.1409(2) 0.0229(2) 0.8920(2)
O20_8 O 0.4771(2) 0.1080(2) 0.6409(2)
O21_8 O 0.3920(2) 0.0229(2) 0.6409(2)
O22_8 O 0.4771(2) 0.3591(2) 0.8920(2)
O23_8 O 0.3920(2) 0.3591(2) 0.9771(2)
C16_8 C 0.1317(3) 0.0305(3) 0.9099(3)
C17_8 C 0.4695(3) 0.0901(3) 0.6317(3)
C18_8 C 0.4099(3) 0.0305(3) 0.6317(3)
C19_8 C 0.4695(3) 0.3683(3) 0.9099(3)
C20_8 C 0.4099(3) 0.3683(3) 0.9695(3)
C21_8 C 0.4397(2) 0.0603(2) 0.6332(3)
C22_8 C 0.4397(2) 0.3668(3) 0.9397(2)
H6_8 H 0.4449 0.0551 0.6189
H7_8 H 0.4449 0.3811 0.9449
C23_8 C 0.1431(3) 0.04956(17) 0.92171(19)
C24_8 C 0.45044(17) 0.07829(19) 0.6431(3)
C25_8 C 0.42171(19) 0.04956(17) 0.6431(3)
C26_8 C 0.45044(17) 0.3569(3) 0.92171(19)
C27_8 C 0.42171(19) 0.3569(3) 0.95044(17)
C28_8 C 0.1644(3) 0.05679(18) 0.91444(16)
C29_8 C 0.41444(16) 0.05679(18) 0.6644(3)
C30_8 C 0.44321(18) 0.08556(16) 0.6644(3)
C31_8 C 0.44321(18) 0.3356(3) 0.91444(16)
C32_8 C 0.41444(16) 0.3356(3) 0.94321(18)
H8_8 H 0.1715 0.0496 0.9020
H9_8 H 0.4504 0.0980 0.6715
H10_8 H 0.4020 0.0496 0.6715
H11_8 H 0.4504 0.3285 0.9020
H12_8 H 0.4020 0.3285 0.9504
C33_8 C 0.42544(19) 0.07456(19) 0.6751(3)
C34_8 C 0.42544(19) 0.3249(3) 0.92544(19)
C35_8 C 0.4180(3) 0.0820(3) 0.6969(4)
C36_8 C 0.4180(3) 0.3031(4) 0.9180(3)
C37_8 C 0.4129(3) 0.0871(3) 0.7149(4)
C38_8 C 0.4129(3) 0.2851(4) 0.9129(3)
C39_8 C 0.4055(2) 0.0945(2) 0.7365(4)
C40_8 C 0.4055(2) 0.2635(4) 0.9055(2)
C41_8 C 0.2471(4) 0.0838(2) 0.8875(2)
C42_8 C 0.4162(2) 0.1125(2) 0.7471(4)
C43_8 C 0.3875(2) 0.0838(2) 0.7471(4)
C44_8 C 0.4162(2) 0.2529(4) 0.8875(2)
C45_8 C 0.3875(2) 0.2529(4) 0.9162(2)
H13_8 H 0.2399 0.0715 0.8801
H14_8 H 0.4285 0.1199 0.7399
H15_8 H 0.3801 0.0715 0.7399
H16_8 H 0.4285 0.2601 0.8801
H17_8 H 0.3801 0.2601 0.9285
C46_8 C 0.2682(4) 0.0911(2) 0.8802(2)
C47_8 C 0.3802(2) 0.0911(2) 0.7682(4)
C48_8 C 0.4089(2) 0.1198(2) 0.7682(4)
C49_8 C 0.4089(2) 0.2318(4) 0.8802(2)
C50_8 C 0.3802(2) 0.2318(4) 0.9089(2)
H18_8 H 0.2754 0.0837 0.8679
H19_8 H 0.4163 0.1321 0.7754
H20_8 H 0.3679 0.0837 0.7754
H21_8 H 0.4163 0.2246 0.8679
H22_8 H 0.3679 0.2246 0.9163
C51_8 C 0.3909(3) 0.1091(3) 0.7789(4)
C52_8 C 0.3909(3) 0.2211(4) 0.8909(3)
C53_8 C 0.3834(3) 0.1166(3) 0.8007(5)
C54_8 C 0.3834(3) 0.1993(5) 0.8834(3)
C55_8 C 0.3772(4) 0.1228(4) 0.8188(5)
C56_8 C 0.3772(4) 0.1812(5) 0.8772(4)
C57_8 C 0.3489(5) 0.1511(5) 0.8777(5)
C58_8 C 0.3777(5) 0.1511(5) 0.8489(5)
H23_8 H 0.3438 0.1562 0.8920
H24_8 H 0.3920 0.1562 0.8438
C59_8 C 0.3671(9) 0.1329(9) 0.8383(9)
C60_8 C 0.3671(9) 0.1617(9) 0.8671(9)
C1_9 C 0.9695(3) 0.0901(3) 0.8683(3)
C2_9 C 0.9397(2) 0.0603(2) 0.8668(3)
H1_9 H 0.9449 0.0551 0.8811
C3_9 C 0.95044(17) 0.07829(19) 0.8569(3)
C4_9 C 0.94321(18) 0.08556(16) 0.8356(3)
H2_9 H 0.9504 0.0980 0.8285
C5_9 C 0.92544(19) 0.07456(19) 0.8249(3)
C6_9 C 0.9180(3) 0.0820(3) 0.8031(4)
C7_9 C 0.9129(3) 0.0871(3) 0.7851(4)
C8_9 C 0.9055(2) 0.0945(2) 0.7635(4)
C9_9 C 0.9162(2) 0.1125(2) 0.7529(4)
H3_9 H 0.9285 0.1199 0.7601
C10_9 C 0.9089(2) 0.1198(2) 0.7318(4)
H4_9 H 0.9163 0.1321 0.7246
C11_9 C 0.8909(3) 0.1091(3) 0.7211(4)
C12_9 C 0.8834(3) 0.1166(3) 0.6993(5)
C13_9 C 0.8772(4) 0.1228(4) 0.6812(5)
C14_9 C 0.8489(5) 0.1223(5) 0.6511(5)
H5_9 H 0.8438 0.1080 0.6562
C15_9 C 0.8671(9) 0.1329(9) 0.6617(9)
Cu3_9 Cu 0.90463(4) -0.0000 0.90463(4)
Cu5_9 Cu 0.59537(4) -0.0000 0.59537(4)
Cu8_9 Cu 0.87300(5) 0.0000 0.87300(5)
Cu10_9 Cu 0.62700(5) 0.0000 0.62700(5)
O8_5 O 0.91823(19) 0.0232(2) 0.8861(2)
O9_9 O 0.6139(2) 0.08177(19) 0.5232(2)
O10_9 O 0.6139(2) 0.0232(2) 0.58177(19)
O11_9 O 0.91823(19) 0.3861(2) 0.5232(2)
O12_9 O 0.9768(2) 0.3861(2) 0.58177(19)
O14_5 O 0.8861(2) 0.0232(2) 0.91823(19)
O19_6 O 0.8920(2) 0.0229(2) 0.8591(2)
O20_9 O 0.6409(2) 0.1080(2) 0.5229(2)
O21_9 O 0.6409(2) 0.0229(2) 0.6080(2)
O22_9 O 0.8920(2) 0.3591(2) 0.5229(2)
O23_9 O 0.9771(2) 0.3591(2) 0.6080(2)
O24_9 O 0.9313(2) 0.0000 0.9313(2)
C16_9 C 0.9099(3) 0.0305(3) 0.8683(3)
C17_9 C 0.6317(3) 0.0901(3) 0.5305(3)
C18_9 C 0.6317(3) 0.0305(3) 0.5901(3)
C19_9 C 0.9099(3) 0.3683(3) 0.5305(3)
C20_9 C 0.9695(3) 0.3683(3) 0.5901(3)
C21_9 C 0.6332(3) 0.0603(2) 0.5603(2)
C22_9 C 0.9397(2) 0.3668(3) 0.5603(2)
H6_9 H 0.6189 0.0551 0.5551
H7_9 H 0.9449 0.3811 0.5551
C23_9 C 0.92171(19) 0.04956(17) 0.8569(3)
C24_9 C 0.6431(3) 0.07829(19) 0.54956(17)
C25_9 C 0.6431(3) 0.04956(17) 0.57829(19)
C26_9 C 0.92171(19) 0.3569(3) 0.54956(17)
C27_9 C 0.95044(17) 0.3569(3) 0.57829(19)
C28_9 C 0.91444(16) 0.05679(18) 0.8356(3)
C29_9 C 0.6644(3) 0.05679(18) 0.58556(16)
C30_9 C 0.6644(3) 0.08556(16) 0.55679(18)
C31_9 C 0.91444(16) 0.3356(3) 0.55679(18)
C32_9 C 0.94321(18) 0.3356(3) 0.58556(16)
H8_9 H 0.9020 0.0496 0.8285
H9_9 H 0.6715 0.0980 0.5496
H10_9 H 0.6715 0.0496 0.5980
H11_9 H 0.9020 0.3285 0.5496
H12_9 H 0.9504 0.3285 0.5980
C33_9 C 0.6751(3) 0.07456(19) 0.57456(19)
C34_9 C 0.92544(19) 0.3249(3) 0.57456(19)
C35_9 C 0.6969(4) 0.0820(3) 0.5820(3)
C36_9 C 0.9180(3) 0.3031(4) 0.5820(3)
C37_9 C 0.7149(4) 0.0871(3) 0.5871(3)
C38_9 C 0.9129(3) 0.2851(4) 0.5871(3)
C39_9 C 0.7365(4) 0.0945(2) 0.5945(2)
C40_9 C 0.9055(2) 0.2635(4) 0.5945(2)
C41_9 C 0.8875(2) 0.0838(2) 0.7529(4)
C42_9 C 0.7471(4) 0.1125(2) 0.5838(2)
C43_9 C 0.7471(4) 0.0838(2) 0.6125(2)
C44_9 C 0.8875(2) 0.2529(4) 0.5838(2)
C45_9 C 0.9162(2) 0.2529(4) 0.6125(2)
H13_9 H 0.8801 0.0715 0.7601
H14_9 H 0.7399 0.1199 0.5715
H15_9 H 0.7399 0.0715 0.6199
H16_9 H 0.8801 0.2601 0.5715
H17_9 H 0.9285 0.2601 0.6199
C46_9 C 0.8802(2) 0.0911(2) 0.7318(4)
C47_9 C 0.7682(4) 0.0911(2) 0.6198(2)
C48_9 C 0.7682(4) 0.1198(2) 0.5911(2)
C49_9 C 0.8802(2) 0.2318(4) 0.5911(2)
C50_9 C 0.9089(2) 0.2318(4) 0.6198(2)
H18_9 H 0.8679 0.0837 0.7246
H19_9 H 0.7754 0.1321 0.5837
H20_9 H 0.7754 0.0837 0.6321
H21_9 H 0.8679 0.2246 0.5837
H22_9 H 0.9163 0.2246 0.6321
C51_9 C 0.7789(4) 0.1091(3) 0.6091(3)
C52_9 C 0.8909(3) 0.2211(4) 0.6091(3)
C53_9 C 0.8007(5) 0.1166(3) 0.6166(3)
C54_9 C 0.8834(3) 0.1993(5) 0.6166(3)
C55_9 C 0.8188(5) 0.1228(4) 0.6228(4)
C56_9 C 0.8772(4) 0.1812(5) 0.6228(4)
C57_9 C 0.8777(5) 0.1511(5) 0.6511(5)
C58_9 C 0.8489(5) 0.1511(5) 0.6223(5)
H23_9 H 0.8920 0.1562 0.6562
H24_9 H 0.8438 0.1562 0.6080
C59_9 C 0.8383(9) 0.1329(9) 0.6329(9)
C60_9 C 0.8671(9) 0.1617(9) 0.6329(9)
Cu3_10 Cu 0.90463(4) 1.0000 0.90463(4)
Cu5_10 Cu 0.59537(4) 1.0000 0.59537(4)
Cu8_10 Cu 0.87300(5) 1.0000 0.87300(5)
Cu10_10 Cu 0.62700(5) 1.0000 0.62700(5)
O13_5 O 0.91823(19) 0.9768(2) 0.8861(2)
O15_5 O 0.8861(2) 0.9768(2) 0.91823(19)
O24_10 O 0.9313(2) 1.0000 0.9313(2)
Cu1_11 Cu 0.90463(4) 0.09537(4) 0.0000
Cu2_11 Cu 0.87300(5) 0.12700(5) -0.0000
O1_6 O 0.8861(2) 0.08177(19) 0.0232(2)
O2_8 O 0.8591(2) 0.1080(2) 0.0229(2)
O3_11 O 0.9313(2) 0.0687(2) -0.0000
O4_15 O 0.8440(3) 0.1560(3) 0.0000
C1_10 C 0.8683(3) 0.0901(3) 0.0305(3)
C2_10 C 0.8668(3) 0.0603(2) 0.0603(2)
H1_10 H 0.8811 0.0551 0.0551
C3_10 C 0.8569(3) 0.07829(19) 0.04956(17)
C4_10 C 0.8356(3) 0.08556(16) 0.05679(18)
H2_10 H 0.8285 0.0980 0.0496
C5_10 C 0.8249(3) 0.07456(19) 0.07456(19)
C6_10 C 0.8031(4) 0.0820(3) 0.0820(3)
C7_10 C 0.7851(4) 0.0871(3) 0.0871(3)
C8_10 C 0.7635(4) 0.0945(2) 0.0945(2)
C9_10 C 0.7529(4) 0.1125(2) 0.0838(2)
H3_10 H 0.7601 0.1199 0.0715
C10_10 C 0.7318(4) 0.1198(2) 0.0911(2)
H4_10 H 0.7246 0.1321 0.0837
C11_10 C 0.7211(4) 0.1091(3) 0.1091(3)
C12_10 C 0.6993(5) 0.1166(3) 0.1166(3)
C13_10 C 0.6812(5) 0.1228(4) 0.1228(4)
C14_10 C 0.6511(5) 0.1223(5) 0.1511(5)
H5_10 H 0.6562 0.1080 0.1562
C15_10 C 0.6617(9) 0.1329(9) 0.1329(9)
Cu4_8 Cu 0.5000 0.09537(4) 0.40463(4)
Cu6_8 Cu 0.5000 0.40463(4) 0.09537(4)
Cu7_11 Cu 0.59537(4) 0.40463(4) 0.0000
Cu9_8 Cu 0.5000 0.12700(5) 0.37300(5)
Cu11_8 Cu 0.5000 0.37300(5) 0.12700(5)
Cu12_11 Cu 0.62700(5) 0.37300(5) -0.0000
O7_6 O 0.91823(19) 0.1139(2) 0.0232(2)
O9_10 O 0.5232(2) 0.08177(19) 0.3861(2)
O10_10 O 0.58177(19) 0.0232(2) 0.3861(2)
O11_10 O 0.5232(2) 0.3861(2) 0.08177(19)
O12_10 O 0.58177(19) 0.3861(2) 0.0232(2)
O18_7 O 0.8920(2) 0.1409(2) 0.0229(2)
O20_10 O 0.5229(2) 0.1080(2) 0.3591(2)
O21_10 O 0.6080(2) 0.0229(2) 0.3591(2)
O22_10 O 0.5229(2) 0.3591(2) 0.1080(2)
O23_10 O 0.6080(2) 0.3591(2) 0.0229(2)
C16_10 C 0.8683(3) 0.0305(3) 0.0901(3)
C17_10 C 0.5305(3) 0.0901(3) 0.3683(3)
C18_10 C 0.5901(3) 0.0305(3) 0.3683(3)
C19_10 C 0.5305(3) 0.3683(3) 0.0901(3)
C20_10 C 0.5901(3) 0.3683(3) 0.0305(3)
C21_10 C 0.5603(2) 0.0603(2) 0.3668(3)
C22_10 C 0.5603(2) 0.3668(3) 0.0603(2)
H6_10 H 0.5551 0.0551 0.3811
H7_10 H 0.5551 0.3811 0.0551
C23_10 C 0.8569(3) 0.04956(17) 0.07829(19)
C24_10 C 0.54956(17) 0.07829(19) 0.3569(3)
C25_10 C 0.57829(19) 0.04956(17) 0.3569(3)
C26_10 C 0.54956(17) 0.3569(3) 0.07829(19)
C27_10 C 0.57829(19) 0.3569(3) 0.04956(17)
C28_10 C 0.8356(3) 0.05679(18) 0.08556(16)
C29_10 C 0.58556(16) 0.05679(18) 0.3356(3)
C30_10 C 0.55679(18) 0.08556(16) 0.3356(3)
C31_10 C 0.55679(18) 0.3356(3) 0.08556(16)
C32_10 C 0.58556(16) 0.3356(3) 0.05679(18)
H8_10 H 0.8285 0.0496 0.0980
H9_10 H 0.5496 0.0980 0.3285
H10_10 H 0.5980 0.0496 0.3285
H11_10 H 0.5496 0.3285 0.0980
H12_10 H 0.5980 0.3285 0.0496
C33_10 C 0.57456(19) 0.07456(19) 0.3249(3)
C34_10 C 0.57456(19) 0.3249(3) 0.07456(19)
C35_10 C 0.5820(3) 0.0820(3) 0.3031(4)
C36_10 C 0.5820(3) 0.3031(4) 0.0820(3)
C37_10 C 0.5871(3) 0.0871(3) 0.2851(4)
C38_10 C 0.5871(3) 0.2851(4) 0.0871(3)
C39_10 C 0.5945(2) 0.0945(2) 0.2635(4)
C40_10 C 0.5945(2) 0.2635(4) 0.0945(2)
C41_10 C 0.7529(4) 0.0838(2) 0.1125(2)
C42_10 C 0.5838(2) 0.1125(2) 0.2529(4)
C43_10 C 0.6125(2) 0.0838(2) 0.2529(4)
C44_10 C 0.5838(2) 0.2529(4) 0.1125(2)
C45_10 C 0.6125(2) 0.2529(4) 0.0838(2)
H13_10 H 0.7601 0.0715 0.1199
H14_10 H 0.5715 0.1199 0.2601
H15_10 H 0.6199 0.0715 0.2601
H16_10 H 0.5715 0.2601 0.1199
H17_10 H 0.6199 0.2601 0.0715
C46_10 C 0.7318(4) 0.0911(2) 0.1198(2)
C47_10 C 0.6198(2) 0.0911(2) 0.2318(4)
C48_10 C 0.5911(2) 0.1198(2) 0.2318(4)
C49_10 C 0.5911(2) 0.2318(4) 0.1198(2)
C50_10 C 0.6198(2) 0.2318(4) 0.0911(2)
H18_10 H 0.7246 0.0837 0.1321
H19_10 H 0.5837 0.1321 0.2246
H20_10 H 0.6321 0.0837 0.2246
H21_10 H 0.5837 0.2246 0.1321
H22_10 H 0.6321 0.2246 0.0837
C51_10 C 0.6091(3) 0.1091(3) 0.2211(4)
C52_10 C 0.6091(3) 0.2211(4) 0.1091(3)
C53_10 C 0.6166(3) 0.1166(3) 0.1993(5)
C54_10 C 0.6166(3) 0.1993(5) 0.1166(3)
C55_10 C 0.6228(4) 0.1228(4) 0.1812(5)
C56_10 C 0.6228(4) 0.1812(5) 0.1228(4)
C57_10 C 0.6511(5) 0.1511(5) 0.1223(5)
C58_10 C 0.6223(5) 0.1511(5) 0.1511(5)
H23_10 H 0.6562 0.1562 0.1080
H24_10 H 0.6080 0.1562 0.1562
C59_10 C 0.6329(9) 0.1329(9) 0.1617(9)
C60_10 C 0.6329(9) 0.1617(9) 0.1329(9)
Cu1_12 Cu 0.90463(4) 0.09537(4) 1.0000
Cu2_12 Cu 0.87300(5) 0.12700(5) 1.0000
O3_12 O 0.9313(2) 0.0687(2) 1.0000
O4_16 O 0.8440(3) 0.1560(3) 1.0000
Cu7_12 Cu 0.59537(4) 0.40463(4) 1.0000
Cu12_12 Cu 0.62700(5) 0.37300(5) 1.0000
O5_6 O 0.91823(19) 0.1139(2) 0.9768(2)
O6_6 O 0.8861(2) 0.08177(19) 0.9768(2)
O16_8 O 0.8920(2) 0.1409(2) 0.9771(2)
O17_7 O 0.8591(2) 0.1080(2) 0.9771(2)
C1_11 C 0.1317(3) 0.0305(3) 0.0901(3)
C2_11 C 0.1332(3) 0.0603(2) 0.0603(2)
H1_11 H 0.1189 0.0551 0.0551
C3_11 C 0.1431(3) 0.04956(17) 0.07829(19)
C4_11 C 0.1644(3) 0.05679(18) 0.08556(16)
H2_11 H 0.1715 0.0496 0.0980
C5_11 C 0.1751(3) 0.07456(19) 0.07456(19)
C6_11 C 0.1969(4) 0.0820(3) 0.0820(3)
C7_11 C 0.2149(4) 0.0871(3) 0.0871(3)
C8_11 C 0.2365(4) 0.0945(2) 0.0945(2)
C9_11 C 0.2471(4) 0.0838(2) 0.1125(2)
H3_11 H 0.2399 0.0715 0.1199
C10_11 C 0.2682(4) 0.0911(2) 0.1198(2)
H4_11 H 0.2754 0.0837 0.1321
C11_11 C 0.2789(4) 0.1091(3) 0.1091(3)
C12_11 C 0.3007(5) 0.1166(3) 0.1166(3)
C13_11 C 0.3188(5) 0.1228(4) 0.1228(4)
C14_11 C 0.3489(5) 0.1511(5) 0.1223(5)
H5_11 H 0.3438 0.1562 0.1080
C15_11 C 0.3383(9) 0.1329(9) 0.1329(9)
O9_11 O 0.4768(2) 0.3861(2) 0.08177(19)
O10_11 O 0.41823(19) 0.3861(2) 0.0232(2)
O11_11 O 0.4768(2) 0.08177(19) 0.3861(2)
O12_11 O 0.41823(19) 0.0232(2) 0.3861(2)
O20_11 O 0.4771(2) 0.3591(2) 0.1080(2)
O21_11 O 0.3920(2) 0.3591(2) 0.0229(2)
O22_11 O 0.4771(2) 0.1080(2) 0.3591(2)
O23_11 O 0.3920(2) 0.0229(2) 0.3591(2)
C16_11 C 0.1317(3) 0.0901(3) 0.0305(3)
C17_11 C 0.4695(3) 0.3683(3) 0.0901(3)
C18_11 C 0.4099(3) 0.3683(3) 0.0305(3)
C19_11 C 0.4695(3) 0.0901(3) 0.3683(3)
C20_11 C 0.4099(3) 0.0305(3) 0.3683(3)
C21_11 C 0.4397(2) 0.3668(3) 0.0603(2)
C22_11 C 0.4397(2) 0.0603(2) 0.3668(3)
H6_11 H 0.4449 0.3811 0.0551
H7_11 H 0.4449 0.0551 0.3811
C23_11 C 0.1431(3) 0.07829(19) 0.04956(17)
C24_11 C 0.45044(17) 0.3569(3) 0.07829(19)
C25_11 C 0.42171(19) 0.3569(3) 0.04956(17)
C26_11 C 0.45044(17) 0.07829(19) 0.3569(3)
C27_11 C 0.42171(19) 0.04956(17) 0.3569(3)
C28_11 C 0.1644(3) 0.08556(16) 0.05679(18)
C29_11 C 0.41444(16) 0.3356(3) 0.05679(18)
C30_11 C 0.44321(18) 0.3356(3) 0.08556(16)
C31_11 C 0.44321(18) 0.08556(16) 0.3356(3)
C32_11 C 0.41444(16) 0.05679(18) 0.3356(3)
H8_11 H 0.1715 0.0980 0.0496
H9_11 H 0.4504 0.3285 0.0980
H10_11 H 0.4020 0.3285 0.0496
H11_11 H 0.4504 0.0980 0.3285
H12_11 H 0.4020 0.0496 0.3285
C33_11 C 0.42544(19) 0.3249(3) 0.07456(19)
C34_11 C 0.42544(19) 0.07456(19) 0.3249(3)
C35_11 C 0.4180(3) 0.3031(4) 0.0820(3)
C36_11 C 0.4180(3) 0.0820(3) 0.3031(4)
C37_11 C 0.4129(3) 0.2851(4) 0.0871(3)
C38_11 C 0.4129(3) 0.0871(3) 0.2851(4)
C39_11 C 0.4055(2) 0.2635(4) 0.0945(2)
C40_11 C 0.4055(2) 0.0945(2) 0.2635(4)
C41_11 C 0.2471(4) 0.1125(2) 0.0838(2)
C42_11 C 0.4162(2) 0.2529(4) 0.1125(2)
C43_11 C 0.3875(2) 0.2529(4) 0.0838(2)
C44_11 C 0.4162(2) 0.1125(2) 0.2529(4)
C45_11 C 0.3875(2) 0.0838(2) 0.2529(4)
H13_11 H 0.2399 0.1199 0.0715
H14_11 H 0.4285 0.2601 0.1199
H15_11 H 0.3801 0.2601 0.0715
H16_11 H 0.4285 0.1199 0.2601
H17_11 H 0.3801 0.0715 0.2601
C46_11 C 0.2682(4) 0.1198(2) 0.0911(2)
C47_11 C 0.3802(2) 0.2318(4) 0.0911(2)
C48_11 C 0.4089(2) 0.2318(4) 0.1198(2)
C49_11 C 0.4089(2) 0.1198(2) 0.2318(4)
C50_11 C 0.3802(2) 0.0911(2) 0.2318(4)
H18_11 H 0.2754 0.1321 0.0837
H19_11 H 0.4163 0.2246 0.1321
H20_11 H 0.3679 0.2246 0.0837
H21_11 H 0.4163 0.1321 0.2246
H22_11 H 0.3679 0.0837 0.2246
C51_11 C 0.3909(3) 0.2211(4) 0.1091(3)
C52_11 C 0.3909(3) 0.1091(3) 0.2211(4)
C53_11 C 0.3834(3) 0.1993(5) 0.1166(3)
C54_11 C 0.3834(3) 0.1166(3) 0.1993(5)
C55_11 C 0.3772(4) 0.1812(5) 0.1228(4)
C56_11 C 0.3772(4) 0.1228(4) 0.1812(5)
C57_11 C 0.3489(5) 0.1223(5) 0.1511(5)
C58_11 C 0.3777(5) 0.1511(5) 0.1511(5)
H23_11 H 0.3438 0.1080 0.1562
H24_11 H 0.3920 0.1562 0.1562
C59_11 C 0.3671(9) 0.1617(9) 0.1329(9)
C60_11 C 0.3671(9) 0.1329(9) 0.1617(9)
C1_12 C 0.0901(3) 0.1317(3) 0.0305(3)
C2_12 C 0.0603(2) 0.1332(3) 0.0603(2)
H1_12 H 0.0551 0.1189 0.0551
C3_12 C 0.07829(19) 0.1431(3) 0.04956(17)
C4_12 C 0.08556(16) 0.1644(3) 0.05679(18)
H2_12 H 0.0980 0.1715 0.0496
C5_12 C 0.07456(19) 0.1751(3) 0.07456(19)
C6_12 C 0.0820(3) 0.1969(4) 0.0820(3)
C7_12 C 0.0871(3) 0.2149(4) 0.0871(3)
C8_12 C 0.0945(2) 0.2365(4) 0.0945(2)
C9_12 C 0.1125(2) 0.2471(4) 0.0838(2)
H3_12 H 0.1199 0.2399 0.0715
C10_12 C 0.1198(2) 0.2682(4) 0.0911(2)
H4_12 H 0.1321 0.2754 0.0837
C11_12 C 0.1091(3) 0.2789(4) 0.1091(3)
C12_12 C 0.1166(3) 0.3007(5) 0.1166(3)
C13_12 C 0.1228(4) 0.3188(5) 0.1228(4)
C14_12 C 0.1223(5) 0.3489(5) 0.1511(5)
H5_12 H 0.1080 0.3438 0.1562
C15_12 C 0.1329(9) 0.3383(9) 0.1329(9)
O9_12 O 0.08177(19) 0.4768(2) 0.3861(2)
O10_12 O 0.0232(2) 0.41823(19) 0.3861(2)
O11_12 O 0.3861(2) 0.4768(2) 0.08177(19)
O12_12 O 0.3861(2) 0.41823(19) 0.0232(2)
O20_12 O 0.1080(2) 0.4771(2) 0.3591(2)
O21_12 O 0.0229(2) 0.3920(2) 0.3591(2)
O22_12 O 0.3591(2) 0.4771(2) 0.1080(2)
O23_12 O 0.3591(2) 0.3920(2) 0.0229(2)
C16_12 C 0.0305(3) 0.1317(3) 0.0901(3)
C17_12 C 0.0901(3) 0.4695(3) 0.3683(3)
C18_12 C 0.0305(3) 0.4099(3) 0.3683(3)
C19_12 C 0.3683(3) 0.4695(3) 0.0901(3)
C20_12 C 0.3683(3) 0.4099(3) 0.0305(3)
C21_12 C 0.0603(2) 0.4397(2) 0.3668(3)
C22_12 C 0.3668(3) 0.4397(2) 0.0603(2)
H6_12 H 0.0551 0.4449 0.3811
H7_12 H 0.3811 0.4449 0.0551
C23_12 C 0.04956(17) 0.1431(3) 0.07829(19)
C24_12 C 0.07829(19) 0.45044(17) 0.3569(3)
C25_12 C 0.04956(17) 0.42171(19) 0.3569(3)
C26_12 C 0.3569(3) 0.45044(17) 0.07829(19)
C27_12 C 0.3569(3) 0.42171(19) 0.04956(17)
C28_12 C 0.05679(18) 0.1644(3) 0.08556(16)
C29_12 C 0.05679(18) 0.41444(16) 0.3356(3)
C30_12 C 0.08556(16) 0.44321(18) 0.3356(3)
C31_12 C 0.3356(3) 0.44321(18) 0.08556(16)
C32_12 C 0.3356(3) 0.41444(16) 0.05679(18)
H8_12 H 0.0496 0.1715 0.0980
H9_12 H 0.0980 0.4504 0.3285
H10_12 H 0.0496 0.4020 0.3285
H11_12 H 0.3285 0.4504 0.0980
H12_12 H 0.3285 0.4020 0.0496
C33_12 C 0.07456(19) 0.42544(19) 0.3249(3)
C34_12 C 0.3249(3) 0.42544(19) 0.07456(19)
C35_12 C 0.0820(3) 0.4180(3) 0.3031(4)
C36_12 C 0.3031(4) 0.4180(3) 0.0820(3)
C37_12 C 0.0871(3) 0.4129(3) 0.2851(4)
C38_12 C 0.2851(4) 0.4129(3) 0.0871(3)
C39_12 C 0.0945(2) 0.4055(2) 0.2635(4)
C40_12 C 0.2635(4) 0.4055(2) 0.0945(2)
C41_12 C 0.0838(2) 0.2471(4) 0.1125(2)
C42_12 C 0.1125(2) 0.4162(2) 0.2529(4)
C43_12 C 0.0838(2) 0.3875(2) 0.2529(4)
C44_12 C 0.2529(4) 0.4162(2) 0.1125(2)
C45_12 C 0.2529(4) 0.3875(2) 0.0838(2)
H13_12 H 0.0715 0.2399 0.1199
H14_12 H 0.1199 0.4285 0.2601
H15_12 H 0.0715 0.3801 0.2601
H16_12 H 0.2601 0.4285 0.1199
H17_12 H 0.2601 0.3801 0.0715
C46_12 C 0.0911(2) 0.2682(4) 0.1198(2)
C47_12 C 0.0911(2) 0.3802(2) 0.2318(4)
C48_12 C 0.1198(2) 0.4089(2) 0.2318(4)
C49_12 C 0.2318(4) 0.4089(2) 0.1198(2)
C50_12 C 0.2318(4) 0.3802(2) 0.0911(2)
H18_12 H 0.0837 0.2754 0.1321
H19_12 H 0.1321 0.4163 0.2246
H20_12 H 0.0837 0.3679 0.2246
H21_12 H 0.2246 0.4163 0.1321
H22_12 H 0.2246 0.3679 0.0837
C51_12 C 0.1091(3) 0.3909(3) 0.2211(4)
C52_12 C 0.2211(4) 0.3909(3) 0.1091(3)
C53_12 C 0.1166(3) 0.3834(3) 0.1993(5)
C54_12 C 0.1993(5) 0.3834(3) 0.1166(3)
C55_12 C 0.1228(4) 0.3772(4) 0.1812(5)
C56_12 C 0.1812(5) 0.3772(4) 0.1228(4)
C57_12 C 0.1511(5) 0.3489(5) 0.1223(5)
C58_12 C 0.1511(5) 0.3777(5) 0.1511(5)
H23_12 H 0.1562 0.3438 0.1080
H24_12 H 0.1562 0.3920 0.1562
C59_12 C 0.1329(9) 0.3671(9) 0.1617(9)
C60_12 C 0.1617(9) 0.3671(9) 0.1329(9)
Cu1_13 Cu 0.90463(4) 0.90463(4) 0.0000
Cu2_13 Cu 0.87300(5) 0.87300(5) -0.0000
O1_7 O 0.91823(19) 0.8861(2) 0.0232(2)
O2_9 O 0.8920(2) 0.8591(2) 0.0229(2)
O3_13 O 0.9313(2) 0.9313(2) -0.0000
O4_17 O 0.8440(3) 0.8440(3) 0.0000
C1_13 C 0.9099(3) 0.8683(3) 0.0305(3)
C2_13 C 0.9397(2) 0.8668(3) 0.0603(2)
H1_13 H 0.9449 0.8811 0.0551
C3_13 C 0.92171(19) 0.8569(3) 0.04956(17)
C4_13 C 0.91444(16) 0.8356(3) 0.05679(18)
H2_13 H 0.9020 0.8285 0.0496
C5_13 C 0.92544(19) 0.8249(3) 0.07456(19)
C6_13 C 0.9180(3) 0.8031(4) 0.0820(3)
C7_13 C 0.9129(3) 0.7851(4) 0.0871(3)
C8_13 C 0.9055(2) 0.7635(4) 0.0945(2)
C9_13 C 0.8875(2) 0.7529(4) 0.0838(2)
H3_13 H 0.8801 0.7601 0.0715
C10_13 C 0.8802(2) 0.7318(4) 0.0911(2)
H4_13 H 0.8679 0.7246 0.0837
C11_13 C 0.8909(3) 0.7211(4) 0.1091(3)
C12_13 C 0.8834(3) 0.6993(5) 0.1166(3)
C13_13 C 0.8772(4) 0.6812(5) 0.1228(4)
C14_13 C 0.8777(5) 0.6511(5) 0.1511(5)
H5_13 H 0.8920 0.6562 0.1562
C15_13 C 0.8671(9) 0.6617(9) 0.1329(9)
Cu4_9 Cu 0.90463(4) 0.5000 0.40463(4)
Cu6_9 Cu 0.59537(4) 0.5000 0.09537(4)
Cu7_13 Cu 0.59537(4) 0.59537(4) 0.0000
Cu9_9 Cu 0.87300(5) 0.5000 0.37300(5)
Cu11_9 Cu 0.62700(5) 0.5000 0.12700(5)
Cu12_13 Cu 0.62700(5) 0.62700(5) -0.0000
O7_7 O 0.8861(2) 0.91823(19) 0.0232(2)
O9_13 O 0.91823(19) 0.5232(2) 0.3861(2)
O10_13 O 0.9768(2) 0.58177(19) 0.3861(2)
O11_13 O 0.6139(2) 0.5232(2) 0.08177(19)
O12_13 O 0.6139(2) 0.58177(19) 0.0232(2)
O18_8 O 0.8591(2) 0.8920(2) 0.0229(2)
O20_13 O 0.8920(2) 0.5229(2) 0.3591(2)
O21_13 O 0.9771(2) 0.6080(2) 0.3591(2)
O22_13 O 0.6409(2) 0.5229(2) 0.1080(2)
O23_13 O 0.6409(2) 0.6080(2) 0.0229(2)
C16_13 C 0.9695(3) 0.8683(3) 0.0901(3)
C17_13 C 0.9099(3) 0.5305(3) 0.3683(3)
C18_13 C 0.9695(3) 0.5901(3) 0.3683(3)
C19_13 C 0.6317(3) 0.5305(3) 0.0901(3)
C20_13 C 0.6317(3) 0.5901(3) 0.0305(3)
C21_13 C 0.9397(2) 0.5603(2) 0.3668(3)
C22_13 C 0.6332(3) 0.5603(2) 0.0603(2)
H6_13 H 0.9449 0.5551 0.3811
H7_13 H 0.6189 0.5551 0.0551
C23_13 C 0.95044(17) 0.8569(3) 0.07829(19)
C24_13 C 0.92171(19) 0.54956(17) 0.3569(3)
C25_13 C 0.95044(17) 0.57829(19) 0.3569(3)
C26_13 C 0.6431(3) 0.54956(17) 0.07829(19)
C27_13 C 0.6431(3) 0.57829(19) 0.04956(17)
C28_13 C 0.94321(18) 0.8356(3) 0.08556(16)
C29_13 C 0.94321(18) 0.58556(16) 0.3356(3)
C30_13 C 0.91444(16) 0.55679(18) 0.3356(3)
C31_13 C 0.6644(3) 0.55679(18) 0.08556(16)
C32_13 C 0.6644(3) 0.58556(16) 0.05679(18)
H8_13 H 0.9504 0.8285 0.0980
H9_13 H 0.9020 0.5496 0.3285
H10_13 H 0.9504 0.5980 0.3285
H11_13 H 0.6715 0.5496 0.0980
H12_13 H 0.6715 0.5980 0.0496
C33_13 C 0.92544(19) 0.57456(19) 0.3249(3)
C34_13 C 0.6751(3) 0.57456(19) 0.07456(19)
C35_13 C 0.9180(3) 0.5820(3) 0.3031(4)
C36_13 C 0.6969(4) 0.5820(3) 0.0820(3)
C37_13 C 0.9129(3) 0.5871(3) 0.2851(4)
C38_13 C 0.7149(4) 0.5871(3) 0.0871(3)
C39_13 C 0.9055(2) 0.5945(2) 0.2635(4)
C40_13 C 0.7365(4) 0.5945(2) 0.0945(2)
C41_13 C 0.9162(2) 0.7529(4) 0.1125(2)
C42_13 C 0.8875(2) 0.5838(2) 0.2529(4)
C43_13 C 0.9162(2) 0.6125(2) 0.2529(4)
C44_13 C 0.7471(4) 0.5838(2) 0.1125(2)
C45_13 C 0.7471(4) 0.6125(2) 0.0838(2)
H13_13 H 0.9285 0.7601 0.1199
H14_13 H 0.8801 0.5715 0.2601
H15_13 H 0.9285 0.6199 0.2601
H16_13 H 0.7399 0.5715 0.1199
H17_13 H 0.7399 0.6199 0.0715
C46_13 C 0.9089(2) 0.7318(4) 0.1198(2)
C47_13 C 0.9089(2) 0.6198(2) 0.2318(4)
C48_13 C 0.8802(2) 0.5911(2) 0.2318(4)
C49_13 C 0.7682(4) 0.5911(2) 0.1198(2)
C50_13 C 0.7682(4) 0.6198(2) 0.0911(2)
H18_13 H 0.9163 0.7246 0.1321
H19_13 H 0.8679 0.5837 0.2246
H20_13 H 0.9163 0.6321 0.2246
H21_13 H 0.7754 0.5837 0.1321
H22_13 H 0.7754 0.6321 0.0837
C51_13 C 0.8909(3) 0.6091(3) 0.2211(4)
C52_13 C 0.7789(4) 0.6091(3) 0.1091(3)
C53_13 C 0.8834(3) 0.6166(3) 0.1993(5)
C54_13 C 0.8007(5) 0.6166(3) 0.1166(3)
C55_13 C 0.8772(4) 0.6228(4) 0.1812(5)
C56_13 C 0.8188(5) 0.6228(4) 0.1228(4)
C57_13 C 0.8489(5) 0.6511(5) 0.1223(5)
C58_13 C 0.8489(5) 0.6223(5) 0.1511(5)
H23_13 H 0.8438 0.6562 0.1080
H24_13 H 0.8438 0.6080 0.1562
C59_13 C 0.8671(9) 0.6329(9) 0.1617(9)
C60_13 C 0.8383(9) 0.6329(9) 0.1329(9)
Cu1_14 Cu 0.90463(4) 0.90463(4) 1.0000
Cu2_14 Cu 0.87300(5) 0.87300(5) 1.0000
O3_14 O 0.9313(2) 0.9313(2) 1.0000
O4_18 O 0.8440(3) 0.8440(3) 1.0000
Cu7_14 Cu 0.59537(4) 0.59537(4) 1.0000
Cu12_14 Cu 0.62700(5) 0.62700(5) 1.0000
O5_7 O 0.8861(2) 0.91823(19) 0.9768(2)
O6_7 O 0.91823(19) 0.8861(2) 0.9768(2)
O16_9 O 0.8591(2) 0.8920(2) 0.9771(2)
O17_8 O 0.8920(2) 0.8591(2) 0.9771(2)
O4_19 O 0.1560(3) 0.0000 0.8440(3)
O16_10 O 0.1080(2) 0.0229(2) 0.8591(2)
O2_10 O 0.1409(2) 0.9771(2) 0.8920(2)
O4_20 O 0.1560(3) 1.0000 0.8440(3)
C1_14 C 0.1317(3) 0.9695(3) 0.9099(3)
C2_14 C 0.1332(3) 0.9397(2) 0.9397(2)
H1_14 H 0.1189 0.9449 0.9449
C3_14 C 0.1431(3) 0.95044(17) 0.92171(19)
C4_14 C 0.1644(3) 0.94321(18) 0.91444(16)
H2_14 H 0.1715 0.9504 0.9020
C5_14 C 0.1751(3) 0.92544(19) 0.92544(19)
C6_14 C 0.1969(4) 0.9180(3) 0.9180(3)
C7_14 C 0.2149(4) 0.9129(3) 0.9129(3)
C8_14 C 0.2365(4) 0.9055(2) 0.9055(2)
C9_14 C 0.2471(4) 0.9162(2) 0.8875(2)
H3_14 H 0.2399 0.9285 0.8801
C10_14 C 0.2682(4) 0.9089(2) 0.8802(2)
H4_14 H 0.2754 0.9163 0.8679
C11_14 C 0.2789(4) 0.8909(3) 0.8909(3)
C12_14 C 0.3007(5) 0.8834(3) 0.8834(3)
C13_14 C 0.3188(5) 0.8772(4) 0.8772(4)
C14_14 C 0.3489(5) 0.8489(5) 0.8777(5)
H5_14 H 0.3438 0.8438 0.8920
C15_14 C 0.3383(9) 0.8671(9) 0.8671(9)
Cu4_10 Cu 0.5000 0.59537(4) 0.90463(4)
Cu6_10 Cu 0.5000 0.90463(4) 0.59537(4)
Cu9_10 Cu 0.5000 0.62700(5) 0.87300(5)
Cu11_10 Cu 0.5000 0.87300(5) 0.62700(5)
O9_14 O 0.4768(2) 0.6139(2) 0.91823(19)
O10_14 O 0.41823(19) 0.6139(2) 0.9768(2)
O11_14 O 0.4768(2) 0.91823(19) 0.6139(2)
O12_14 O 0.41823(19) 0.9768(2) 0.6139(2)
O19_7 O 0.1409(2) 0.8920(2) 0.9771(2)
O20_14 O 0.4771(2) 0.6409(2) 0.8920(2)
O21_14 O 0.3920(2) 0.6409(2) 0.9771(2)
O22_14 O 0.4771(2) 0.8920(2) 0.6409(2)
O23_14 O 0.3920(2) 0.9771(2) 0.6409(2)
C16_14 C 0.1317(3) 0.9099(3) 0.9695(3)
C17_14 C 0.4695(3) 0.6317(3) 0.9099(3)
C18_14 C 0.4099(3) 0.6317(3) 0.9695(3)
C19_14 C 0.4695(3) 0.9099(3) 0.6317(3)
C20_14 C 0.4099(3) 0.9695(3) 0.6317(3)
C21_14 C 0.4397(2) 0.6332(3) 0.9397(2)
C22_14 C 0.4397(2) 0.9397(2) 0.6332(3)
H6_14 H 0.4449 0.6189 0.9449
H7_14 H 0.4449 0.9449 0.6189
C23_14 C 0.1431(3) 0.92171(19) 0.95044(17)
C24_14 C 0.45044(17) 0.6431(3) 0.92171(19)
C25_14 C 0.42171(19) 0.6431(3) 0.95044(17)
C26_14 C 0.45044(17) 0.92171(19) 0.6431(3)
C27_14 C 0.42171(19) 0.95044(17) 0.6431(3)
C28_14 C 0.1644(3) 0.91444(16) 0.94321(18)
C29_14 C 0.41444(16) 0.6644(3) 0.94321(18)
C30_14 C 0.44321(18) 0.6644(3) 0.91444(16)
C31_14 C 0.44321(18) 0.91444(16) 0.6644(3)
C32_14 C 0.41444(16) 0.94321(18) 0.6644(3)
H8_14 H 0.1715 0.9020 0.9504
H9_14 H 0.4504 0.6715 0.9020
H10_14 H 0.4020 0.6715 0.9504
H11_14 H 0.4504 0.9020 0.6715
H12_14 H 0.4020 0.9504 0.6715
C33_14 C 0.42544(19) 0.6751(3) 0.92544(19)
C34_14 C 0.42544(19) 0.92544(19) 0.6751(3)
C35_14 C 0.4180(3) 0.6969(4) 0.9180(3)
C36_14 C 0.4180(3) 0.9180(3) 0.6969(4)
C37_14 C 0.4129(3) 0.7149(4) 0.9129(3)
C38_14 C 0.4129(3) 0.9129(3) 0.7149(4)
C39_14 C 0.4055(2) 0.7365(4) 0.9055(2)
C40_14 C 0.4055(2) 0.9055(2) 0.7365(4)
C41_14 C 0.2471(4) 0.8875(2) 0.9162(2)
C42_14 C 0.4162(2) 0.7471(4) 0.8875(2)
C43_14 C 0.3875(2) 0.7471(4) 0.9162(2)
C44_14 C 0.4162(2) 0.8875(2) 0.7471(4)
C45_14 C 0.3875(2) 0.9162(2) 0.7471(4)
H13_14 H 0.2399 0.8801 0.9285
H14_14 H 0.4285 0.7399 0.8801
H15_14 H 0.3801 0.7399 0.9285
H16_14 H 0.4285 0.8801 0.7399
H17_14 H 0.3801 0.9285 0.7399
C46_14 C 0.2682(4) 0.8802(2) 0.9089(2)
C47_14 C 0.3802(2) 0.7682(4) 0.9089(2)
C48_14 C 0.4089(2) 0.7682(4) 0.8802(2)
C49_14 C 0.4089(2) 0.8802(2) 0.7682(4)
C50_14 C 0.3802(2) 0.9089(2) 0.7682(4)
H18_14 H 0.2754 0.8679 0.9163
H19_14 H 0.4163 0.7754 0.8679
H20_14 H 0.3679 0.7754 0.9163
H21_14 H 0.4163 0.8679 0.7754
H22_14 H 0.3679 0.9163 0.7754
C51_14 C 0.3909(3) 0.7789(4) 0.8909(3)
C52_14 C 0.3909(3) 0.8909(3) 0.7789(4)
C53_14 C 0.3834(3) 0.8007(5) 0.8834(3)
C54_14 C 0.3834(3) 0.8834(3) 0.8007(5)
C55_14 C 0.3772(4) 0.8188(5) 0.8772(4)
C56_14 C 0.3772(4) 0.8772(4) 0.8188(5)
C57_14 C 0.3489(5) 0.8777(5) 0.8489(5)
C58_14 C 0.3777(5) 0.8489(5) 0.8489(5)
H23_14 H 0.3438 0.8920 0.8438
H24_14 H 0.3920 0.8438 0.8438
C59_14 C 0.3671(9) 0.8383(9) 0.8671(9)
C60_14 C 0.3671(9) 0.8671(9) 0.8383(9)
C1_15 C 0.9099(3) 0.1317(3) 0.9695(3)
C2_15 C 0.9397(2) 0.1332(3) 0.9397(2)
H1_15 H 0.9449 0.1189 0.9449
C3_15 C 0.92171(19) 0.1431(3) 0.95044(17)
C4_15 C 0.91444(16) 0.1644(3) 0.94321(18)
H2_15 H 0.9020 0.1715 0.9504
C5_15 C 0.92544(19) 0.1751(3) 0.92544(19)
C6_15 C 0.9180(3) 0.1969(4) 0.9180(3)
C7_15 C 0.9129(3) 0.2149(4) 0.9129(3)
C8_15 C 0.9055(2) 0.2365(4) 0.9055(2)
C9_15 C 0.8875(2) 0.2471(4) 0.9162(2)
H3_15 H 0.8801 0.2399 0.9285
C10_15 C 0.8802(2) 0.2682(4) 0.9089(2)
H4_15 H 0.8679 0.2754 0.9163
C11_15 C 0.8909(3) 0.2789(4) 0.8909(3)
C12_15 C 0.8834(3) 0.3007(5) 0.8834(3)
C13_15 C 0.8772(4) 0.3188(5) 0.8772(4)
C14_15 C 0.8777(5) 0.3489(5) 0.8489(5)
H5_15 H 0.8920 0.3438 0.8438
C15_15 C 0.8671(9) 0.3383(9) 0.8671(9)
Cu4_11 Cu 0.90463(4) 0.5000 0.59537(4)
Cu6_11 Cu 0.59537(4) 0.5000 0.90463(4)
Cu9_11 Cu 0.87300(5) 0.5000 0.62700(5)
Cu11_11 Cu 0.62700(5) 0.5000 0.87300(5)
O9_15 O 0.91823(19) 0.4768(2) 0.6139(2)
O10_15 O 0.9768(2) 0.41823(19) 0.6139(2)
O11_15 O 0.6139(2) 0.4768(2) 0.91823(19)
O12_15 O 0.6139(2) 0.41823(19) 0.9768(2)
O20_15 O 0.8920(2) 0.4771(2) 0.6409(2)
O21_15 O 0.9771(2) 0.3920(2) 0.6409(2)
O22_15 O 0.6409(2) 0.4771(2) 0.8920(2)
O23_15 O 0.6409(2) 0.3920(2) 0.9771(2)
C16_15 C 0.9695(3) 0.1317(3) 0.9099(3)
C17_15 C 0.9099(3) 0.4695(3) 0.6317(3)
C18_15 C 0.9695(3) 0.4099(3) 0.6317(3)
C19_15 C 0.6317(3) 0.4695(3) 0.9099(3)
C20_15 C 0.6317(3) 0.4099(3) 0.9695(3)
C21_15 C 0.9397(2) 0.4397(2) 0.6332(3)
C22_15 C 0.6332(3) 0.4397(2) 0.9397(2)
H6_15 H 0.9449 0.4449 0.6189
H7_15 H 0.6189 0.4449 0.9449
C23_15 C 0.95044(17) 0.1431(3) 0.92171(19)
C24_15 C 0.92171(19) 0.45044(17) 0.6431(3)
C25_15 C 0.95044(17) 0.42171(19) 0.6431(3)
C26_15 C 0.6431(3) 0.45044(17) 0.92171(19)
C27_15 C 0.6431(3) 0.42171(19) 0.95044(17)
C28_15 C 0.94321(18) 0.1644(3) 0.91444(16)
C29_15 C 0.94321(18) 0.41444(16) 0.6644(3)
C30_15 C 0.91444(16) 0.44321(18) 0.6644(3)
C31_15 C 0.6644(3) 0.44321(18) 0.91444(16)
C32_15 C 0.6644(3) 0.41444(16) 0.94321(18)
H8_15 H 0.9504 0.1715 0.9020
H9_15 H 0.9020 0.4504 0.6715
H10_15 H 0.9504 0.4020 0.6715
H11_15 H 0.6715 0.4504 0.9020
H12_15 H 0.6715 0.4020 0.9504
C33_15 C 0.92544(19) 0.42544(19) 0.6751(3)
C34_15 C 0.6751(3) 0.42544(19) 0.92544(19)
C35_15 C 0.9180(3) 0.4180(3) 0.6969(4)
C36_15 C 0.6969(4) 0.4180(3) 0.9180(3)
C37_15 C 0.9129(3) 0.4129(3) 0.7149(4)
C38_15 C 0.7149(4) 0.4129(3) 0.9129(3)
C39_15 C 0.9055(2) 0.4055(2) 0.7365(4)
C40_15 C 0.7365(4) 0.4055(2) 0.9055(2)
C41_15 C 0.9162(2) 0.2471(4) 0.8875(2)
C42_15 C 0.8875(2) 0.4162(2) 0.7471(4)
C43_15 C 0.9162(2) 0.3875(2) 0.7471(4)
C44_15 C 0.7471(4) 0.4162(2) 0.8875(2)
C45_15 C 0.7471(4) 0.3875(2) 0.9162(2)
H13_15 H 0.9285 0.2399 0.8801
H14_15 H 0.8801 0.4285 0.7399
H15_15 H 0.9285 0.3801 0.7399
H16_15 H 0.7399 0.4285 0.8801
H17_15 H 0.7399 0.3801 0.9285
C46_15 C 0.9089(2) 0.2682(4) 0.8802(2)
C47_15 C 0.9089(2) 0.3802(2) 0.7682(4)
C48_15 C 0.8802(2) 0.4089(2) 0.7682(4)
C49_15 C 0.7682(4) 0.4089(2) 0.8802(2)
C50_15 C 0.7682(4) 0.3802(2) 0.9089(2)
H18_15 H 0.9163 0.2754 0.8679
H19_15 H 0.8679 0.4163 0.7754
H20_15 H 0.9163 0.3679 0.7754
H21_15 H 0.7754 0.4163 0.8679
H22_15 H 0.7754 0.3679 0.9163
C51_15 C 0.8909(3) 0.3909(3) 0.7789(4)
C52_15 C 0.7789(4) 0.3909(3) 0.8909(3)
C53_15 C 0.8834(3) 0.3834(3) 0.8007(5)
C54_15 C 0.8007(5) 0.3834(3) 0.8834(3)
C55_15 C 0.8772(4) 0.3772(4) 0.8188(5)
C56_15 C 0.8188(5) 0.3772(4) 0.8772(4)
C57_15 C 0.8489(5) 0.3489(5) 0.8777(5)
C58_15 C 0.8489(5) 0.3777(5) 0.8489(5)
H23_15 H 0.8438 0.3438 0.8920
H24_15 H 0.8438 0.3920 0.8438
C59_15 C 0.8671(9) 0.3671(9) 0.8383(9)
C60_15 C 0.8383(9) 0.3671(9) 0.8671(9)
C1_16 C 0.8683(3) 0.9695(3) 0.0901(3)
C2_16 C 0.8668(3) 0.9397(2) 0.0603(2)
H1_16 H 0.8811 0.9449 0.0551
C3_16 C 0.8569(3) 0.95044(17) 0.07829(19)
C4_16 C 0.8356(3) 0.94321(18) 0.08556(16)
H2_16 H 0.8285 0.9504 0.0980
C5_16 C 0.8249(3) 0.92544(19) 0.07456(19)
C6_16 C 0.8031(4) 0.9180(3) 0.0820(3)
C7_16 C 0.7851(4) 0.9129(3) 0.0871(3)
C8_16 C 0.7635(4) 0.9055(2) 0.0945(2)
C9_16 C 0.7529(4) 0.9162(2) 0.1125(2)
H3_16 H 0.7601 0.9285 0.1199
C10_16 C 0.7318(4) 0.9089(2) 0.1198(2)
H4_16 H 0.7246 0.9163 0.1321
C11_16 C 0.7211(4) 0.8909(3) 0.1091(3)
C12_16 C 0.6993(5) 0.8834(3) 0.1166(3)
C13_16 C 0.6812(5) 0.8772(4) 0.1228(4)
C14_16 C 0.6511(5) 0.8489(5) 0.1223(5)
H5_16 H 0.6562 0.8438 0.1080
C15_16 C 0.6617(9) 0.8671(9) 0.1329(9)
Cu4_12 Cu 0.5000 0.59537(4) 0.09537(4)
Cu6_12 Cu 0.5000 0.90463(4) 0.40463(4)
Cu9_12 Cu 0.5000 0.62700(5) 0.12700(5)
Cu11_12 Cu 0.5000 0.87300(5) 0.37300(5)
O9_16 O 0.5232(2) 0.6139(2) 0.08177(19)
O10_16 O 0.58177(19) 0.6139(2) 0.0232(2)
O11_16 O 0.5232(2) 0.91823(19) 0.3861(2)
O12_16 O 0.58177(19) 0.9768(2) 0.3861(2)
O20_16 O 0.5229(2) 0.6409(2) 0.1080(2)
O21_16 O 0.6080(2) 0.6409(2) 0.0229(2)
O22_16 O 0.5229(2) 0.8920(2) 0.3591(2)
O23_16 O 0.6080(2) 0.9771(2) 0.3591(2)
C16_16 C 0.8683(3) 0.9099(3) 0.0305(3)
C17_16 C 0.5305(3) 0.6317(3) 0.0901(3)
C18_16 C 0.5901(3) 0.6317(3) 0.0305(3)
C19_16 C 0.5305(3) 0.9099(3) 0.3683(3)
C20_16 C 0.5901(3) 0.9695(3) 0.3683(3)
C21_16 C 0.5603(2) 0.6332(3) 0.0603(2)
C22_16 C 0.5603(2) 0.9397(2) 0.3668(3)
H6_16 H 0.5551 0.6189 0.0551
H7_16 H 0.5551 0.9449 0.3811
C23_16 C 0.8569(3) 0.92171(19) 0.04956(17)
C24_16 C 0.54956(17) 0.6431(3) 0.07829(19)
C25_16 C 0.57829(19) 0.6431(3) 0.04956(17)
C26_16 C 0.54956(17) 0.92171(19) 0.3569(3)
C27_16 C 0.57829(19) 0.95044(17) 0.3569(3)
C28_16 C 0.8356(3) 0.91444(16) 0.05679(18)
C29_16 C 0.58556(16) 0.6644(3) 0.05679(18)
C30_16 C 0.55679(18) 0.6644(3) 0.08556(16)
C31_16 C 0.55679(18) 0.91444(16) 0.3356(3)
C32_16 C 0.58556(16) 0.94321(18) 0.3356(3)
H8_16 H 0.8285 0.9020 0.0496
H9_16 H 0.5496 0.6715 0.0980
H10_16 H 0.5980 0.6715 0.0496
H11_16 H 0.5496 0.9020 0.3285
H12_16 H 0.5980 0.9504 0.3285
C33_16 C 0.57456(19) 0.6751(3) 0.07456(19)
C34_16 C 0.57456(19) 0.92544(19) 0.3249(3)
C35_16 C 0.5820(3) 0.6969(4) 0.0820(3)
C36_16 C 0.5820(3) 0.9180(3) 0.3031(4)
C37_16 C 0.5871(3) 0.7149(4) 0.0871(3)
C38_16 C 0.5871(3) 0.9129(3) 0.2851(4)
C39_16 C 0.5945(2) 0.7365(4) 0.0945(2)
C40_16 C 0.5945(2) 0.9055(2) 0.2635(4)
C41_16 C 0.7529(4) 0.8875(2) 0.0838(2)
C42_16 C 0.5838(2) 0.7471(4) 0.1125(2)
C43_16 C 0.6125(2) 0.7471(4) 0.0838(2)
C44_16 C 0.5838(2) 0.8875(2) 0.2529(4)
C45_16 C 0.6125(2) 0.9162(2) 0.2529(4)
H13_16 H 0.7601 0.8801 0.0715
H14_16 H 0.5715 0.7399 0.1199
H15_16 H 0.6199 0.7399 0.0715
H16_16 H 0.5715 0.8801 0.2601
H17_16 H 0.6199 0.9285 0.2601
C46_16 C 0.7318(4) 0.8802(2) 0.0911(2)
C47_16 C 0.6198(2) 0.7682(4) 0.0911(2)
C48_16 C 0.5911(2) 0.7682(4) 0.1198(2)
C49_16 C 0.5911(2) 0.8802(2) 0.2318(4)
C50_16 C 0.6198(2) 0.9089(2) 0.2318(4)
H18_16 H 0.7246 0.8679 0.0837
H19_16 H 0.5837 0.7754 0.1321
H20_16 H 0.6321 0.7754 0.0837
H21_16 H 0.5837 0.8679 0.2246
H22_16 H 0.6321 0.9163 0.2246
C51_16 C 0.6091(3) 0.7789(4) 0.1091(3)
C52_16 C 0.6091(3) 0.8909(3) 0.2211(4)
C53_16 C 0.6166(3) 0.8007(5) 0.1166(3)
C54_16 C 0.6166(3) 0.8834(3) 0.1993(5)
C55_16 C 0.6228(4) 0.8188(5) 0.1228(4)
C56_16 C 0.6228(4) 0.8772(4) 0.1812(5)
C57_16 C 0.6511(5) 0.8777(5) 0.1511(5)
C58_16 C 0.6223(5) 0.8489(5) 0.1511(5)
H23_16 H 0.6562 0.8920 0.1562
H24_16 H 0.6080 0.8438 0.1562
C59_16 C 0.6329(9) 0.8383(9) 0.1329(9)
C60_16 C 0.6329(9) 0.8671(9) 0.1617(9)
O2_11 O 0.8591(2) 0.0229(2) 0.8920(2)
O4_21 O 0.8440(3) 0.0000 0.8440(3)
C1_17 C 0.8683(3) 0.0305(3) 0.9099(3)
C2_17 C 0.8668(3) 0.0603(2) 0.9397(2)
H1_17 H 0.8811 0.0551 0.9449
C3_17 C 0.8569(3) 0.04956(17) 0.92171(19)
C4_17 C 0.8356(3) 0.05679(18) 0.91444(16)
H2_17 H 0.8285 0.0496 0.9020
C5_17 C 0.8249(3) 0.07456(19) 0.92544(19)
C6_17 C 0.8031(4) 0.0820(3) 0.9180(3)
C7_17 C 0.7851(4) 0.0871(3) 0.9129(3)
C8_17 C 0.7635(4) 0.0945(2) 0.9055(2)
C9_17 C 0.7529(4) 0.0838(2) 0.8875(2)
H3_17 H 0.7601 0.0715 0.8801
C10_17 C 0.7318(4) 0.0911(2) 0.8802(2)
H4_17 H 0.7246 0.0837 0.8679
C11_17 C 0.7211(4) 0.1091(3) 0.8909(3)
C12_17 C 0.6993(5) 0.1166(3) 0.8834(3)
C13_17 C 0.6812(5) 0.1228(4) 0.8772(4)
C14_17 C 0.6511(5) 0.1511(5) 0.8777(5)
H5_17 H 0.6562 0.1562 0.8920
C15_17 C 0.6617(9) 0.1329(9) 0.8671(9)
O9_17 O 0.5232(2) 0.3861(2) 0.91823(19)
O10_17 O 0.58177(19) 0.3861(2) 0.9768(2)
O11_17 O 0.5232(2) 0.08177(19) 0.6139(2)
O12_17 O 0.58177(19) 0.0232(2) 0.6139(2)
O20_17 O 0.5229(2) 0.3591(2) 0.8920(2)
O21_17 O 0.6080(2) 0.3591(2) 0.9771(2)
O22_17 O 0.5229(2) 0.1080(2) 0.6409(2)
O23_17 O 0.6080(2) 0.0229(2) 0.6409(2)
C16_17 C 0.8683(3) 0.0901(3) 0.9695(3)
C17_17 C 0.5305(3) 0.3683(3) 0.9099(3)
C18_17 C 0.5901(3) 0.3683(3) 0.9695(3)
C19_17 C 0.5305(3) 0.0901(3) 0.6317(3)
C20_17 C 0.5901(3) 0.0305(3) 0.6317(3)
C21_17 C 0.5603(2) 0.3668(3) 0.9397(2)
C22_17 C 0.5603(2) 0.0603(2) 0.6332(3)
H6_17 H 0.5551 0.3811 0.9449
H7_17 H 0.5551 0.0551 0.6189
C23_17 C 0.8569(3) 0.07829(19) 0.95044(17)
C24_17 C 0.54956(17) 0.3569(3) 0.92171(19)
C25_17 C 0.57829(19) 0.3569(3) 0.95044(17)
C26_17 C 0.54956(17) 0.07829(19) 0.6431(3)
C27_17 C 0.57829(19) 0.04956(17) 0.6431(3)
C28_17 C 0.8356(3) 0.08556(16) 0.94321(18)
C29_17 C 0.58556(16) 0.3356(3) 0.94321(18)
C30_17 C 0.55679(18) 0.3356(3) 0.91444(16)
C31_17 C 0.55679(18) 0.08556(16) 0.6644(3)
C32_17 C 0.58556(16) 0.05679(18) 0.6644(3)
H8_17 H 0.8285 0.0980 0.9504
H9_17 H 0.5496 0.3285 0.9020
H10_17 H 0.5980 0.3285 0.9504
H11_17 H 0.5496 0.0980 0.6715
H12_17 H 0.5980 0.0496 0.6715
C33_17 C 0.57456(19) 0.3249(3) 0.92544(19)
C34_17 C 0.57456(19) 0.07456(19) 0.6751(3)
C35_17 C 0.5820(3) 0.3031(4) 0.9180(3)
C36_17 C 0.5820(3) 0.0820(3) 0.6969(4)
C37_17 C 0.5871(3) 0.2851(4) 0.9129(3)
C38_17 C 0.5871(3) 0.0871(3) 0.7149(4)
C39_17 C 0.5945(2) 0.2635(4) 0.9055(2)
C40_17 C 0.5945(2) 0.0945(2) 0.7365(4)
C41_17 C 0.7529(4) 0.1125(2) 0.9162(2)
C42_17 C 0.5838(2) 0.2529(4) 0.8875(2)
C43_17 C 0.6125(2) 0.2529(4) 0.9162(2)
C44_17 C 0.5838(2) 0.1125(2) 0.7471(4)
C45_17 C 0.6125(2) 0.0838(2) 0.7471(4)
H13_17 H 0.7601 0.1199 0.9285
H14_17 H 0.5715 0.2601 0.8801
H15_17 H 0.6199 0.2601 0.9285
H16_17 H 0.5715 0.1199 0.7399
H17_17 H 0.6199 0.0715 0.7399
C46_17 C 0.7318(4) 0.1198(2) 0.9089(2)
C47_17 C 0.6198(2) 0.2318(4) 0.9089(2)
C48_17 C 0.5911(2) 0.2318(4) 0.8802(2)
C49_17 C 0.5911(2) 0.1198(2) 0.7682(4)
C50_17 C 0.6198(2) 0.0911(2) 0.7682(4)
H18_17 H 0.7246 0.1321 0.9163
H19_17 H 0.5837 0.2246 0.8679
H20_17 H 0.6321 0.2246 0.9163
H21_17 H 0.5837 0.1321 0.7754
H22_17 H 0.6321 0.0837 0.7754
C51_17 C 0.6091(3) 0.2211(4) 0.8909(3)
C52_17 C 0.6091(3) 0.1091(3) 0.7789(4)
C53_17 C 0.6166(3) 0.1993(5) 0.8834(3)
C54_17 C 0.6166(3) 0.1166(3) 0.8007(5)
C55_17 C 0.6228(4) 0.1812(5) 0.8772(4)
C56_17 C 0.6228(4) 0.1228(4) 0.8188(5)
C57_17 C 0.6511(5) 0.1223(5) 0.8489(5)
C58_17 C 0.6223(5) 0.1511(5) 0.8489(5)
H23_17 H 0.6562 0.1080 0.8438
H24_17 H 0.6080 0.1562 0.8438
C59_17 C 0.6329(9) 0.1617(9) 0.8671(9)
C60_17 C 0.6329(9) 0.1329(9) 0.8383(9)
O4_22 O 0.8440(3) 1.0000 0.8440(3)
O16_11 O 0.8920(2) 0.9771(2) 0.8591(2)
O17_9 O 0.8591(2) 0.9771(2) 0.8920(2)
O4_23 O 0.1560(3) 0.8440(3) -0.0000
O16_12 O 0.1409(2) 0.8920(2) 0.0229(2)
O2_12 O 0.1080(2) 0.8591(2) 0.9771(2)
O4_24 O 0.1560(3) 0.8440(3) 1.0000
C1_18 C 0.0901(3) 0.8683(3) 0.9695(3)
C2_18 C 0.0603(2) 0.8668(3) 0.9397(2)
H1_18 H 0.0551 0.8811 0.9449
C3_18 C 0.07829(19) 0.8569(3) 0.95044(17)
C4_18 C 0.08556(16) 0.8356(3) 0.94321(18)
H2_18 H 0.0980 0.8285 0.9504
C5_18 C 0.07456(19) 0.8249(3) 0.92544(19)
C6_18 C 0.0820(3) 0.8031(4) 0.9180(3)
C7_18 C 0.0871(3) 0.7851(4) 0.9129(3)
C8_18 C 0.0945(2) 0.7635(4) 0.9055(2)
C9_18 C 0.1125(2) 0.7529(4) 0.9162(2)
H3_18 H 0.1199 0.7601 0.9285
C10_18 C 0.1198(2) 0.7318(4) 0.9089(2)
H4_18 H 0.1321 0.7246 0.9163
C11_18 C 0.1091(3) 0.7211(4) 0.8909(3)
C12_18 C 0.1166(3) 0.6993(5) 0.8834(3)
C13_18 C 0.1228(4) 0.6812(5) 0.8772(4)
C14_18 C 0.1223(5) 0.6511(5) 0.8489(5)
H5_18 H 0.1080 0.6562 0.8438
C15_18 C 0.1329(9) 0.6617(9) 0.8671(9)
O9_18 O 0.08177(19) 0.5232(2) 0.6139(2)
O10_18 O 0.0232(2) 0.58177(19) 0.6139(2)
O11_18 O 0.3861(2) 0.5232(2) 0.91823(19)
O12_18 O 0.3861(2) 0.58177(19) 0.9768(2)
O20_18 O 0.1080(2) 0.5229(2) 0.6409(2)
O21_18 O 0.0229(2) 0.6080(2) 0.6409(2)
O22_18 O 0.3591(2) 0.5229(2) 0.8920(2)
O23_18 O 0.3591(2) 0.6080(2) 0.9771(2)
C16_18 C 0.0305(3) 0.8683(3) 0.9099(3)
C17_18 C 0.0901(3) 0.5305(3) 0.6317(3)
C18_18 C 0.0305(3) 0.5901(3) 0.6317(3)
C19_18 C 0.3683(3) 0.5305(3) 0.9099(3)
C20_18 C 0.3683(3) 0.5901(3) 0.9695(3)
C21_18 C 0.0603(2) 0.5603(2) 0.6332(3)
C22_18 C 0.3668(3) 0.5603(2) 0.9397(2)
H6_18 H 0.0551 0.5551 0.6189
H7_18 H 0.3811 0.5551 0.9449
C23_18 C 0.04956(17) 0.8569(3) 0.92171(19)
C24_18 C 0.07829(19) 0.54956(17) 0.6431(3)
C25_18 C 0.04956(17) 0.57829(19) 0.6431(3)
C26_18 C 0.3569(3) 0.54956(17) 0.92171(19)
C27_18 C 0.3569(3) 0.57829(19) 0.95044(17)
C28_18 C 0.05679(18) 0.8356(3) 0.91444(16)
C29_18 C 0.05679(18) 0.58556(16) 0.6644(3)
C30_18 C 0.08556(16) 0.55679(18) 0.6644(3)
C31_18 C 0.3356(3) 0.55679(18) 0.91444(16)
C32_18 C 0.3356(3) 0.58556(16) 0.94321(18)
H8_18 H 0.0496 0.8285 0.9020
H9_18 H 0.0980 0.5496 0.6715
H10_18 H 0.0496 0.5980 0.6715
H11_18 H 0.3285 0.5496 0.9020
H12_18 H 0.3285 0.5980 0.9504
C33_18 C 0.07456(19) 0.57456(19) 0.6751(3)
C34_18 C 0.3249(3) 0.57456(19) 0.92544(19)
C35_18 C 0.0820(3) 0.5820(3) 0.6969(4)
C36_18 C 0.3031(4) 0.5820(3) 0.9180(3)
C37_18 C 0.0871(3) 0.5871(3) 0.7149(4)
C38_18 C 0.2851(4) 0.5871(3) 0.9129(3)
C39_18 C 0.0945(2) 0.5945(2) 0.7365(4)
C40_18 C 0.2635(4) 0.5945(2) 0.9055(2)
C41_18 C 0.0838(2) 0.7529(4) 0.8875(2)
C42_18 C 0.1125(2) 0.5838(2) 0.7471(4)
C43_18 C 0.0838(2) 0.6125(2) 0.7471(4)
C44_18 C 0.2529(4) 0.5838(2) 0.8875(2)
C45_18 C 0.2529(4) 0.6125(2) 0.9162(2)
H13_18 H 0.0715 0.7601 0.8801
H14_18 H 0.1199 0.5715 0.7399
H15_18 H 0.0715 0.6199 0.7399
H16_18 H 0.2601 0.5715 0.8801
H17_18 H 0.2601 0.6199 0.9285
C46_18 C 0.0911(2) 0.7318(4) 0.8802(2)
C47_18 C 0.0911(2) 0.6198(2) 0.7682(4)
C48_18 C 0.1198(2) 0.5911(2) 0.7682(4)
C49_18 C 0.2318(4) 0.5911(2) 0.8802(2)
C50_18 C 0.2318(4) 0.6198(2) 0.9089(2)
H18_18 H 0.0837 0.7246 0.8679
H19_18 H 0.1321 0.5837 0.7754
H20_18 H 0.0837 0.6321 0.7754
H21_18 H 0.2246 0.5837 0.8679
H22_18 H 0.2246 0.6321 0.9163
C51_18 C 0.1091(3) 0.6091(3) 0.7789(4)
C52_18 C 0.2211(4) 0.6091(3) 0.8909(3)
C53_18 C 0.1166(3) 0.6166(3) 0.8007(5)
C54_18 C 0.1993(5) 0.6166(3) 0.8834(3)
C55_18 C 0.1228(4) 0.6228(4) 0.8188(5)
C56_18 C 0.1812(5) 0.6228(4) 0.8772(4)
C57_18 C 0.1511(5) 0.6511(5) 0.8777(5)
C58_18 C 0.1511(5) 0.6223(5) 0.8489(5)
H23_18 H 0.1562 0.6562 0.8920
H24_18 H 0.1562 0.6080 0.8438
C59_18 C 0.1329(9) 0.6329(9) 0.8383(9)
C60_18 C 0.1617(9) 0.6329(9) 0.8671(9)
C1_19 C 0.0901(3) 0.0305(3) 0.8683(3)
C2_19 C 0.0603(2) 0.0603(2) 0.8668(3)
H1_19 H 0.0551 0.0551 0.8811
C3_19 C 0.07829(19) 0.04956(17) 0.8569(3)
C4_19 C 0.08556(16) 0.05679(18) 0.8356(3)
H2_19 H 0.0980 0.0496 0.8285
C5_19 C 0.07456(19) 0.07456(19) 0.8249(3)
C6_19 C 0.0820(3) 0.0820(3) 0.8031(4)
C7_19 C 0.0871(3) 0.0871(3) 0.7851(4)
C8_19 C 0.0945(2) 0.0945(2) 0.7635(4)
C9_19 C 0.1125(2) 0.0838(2) 0.7529(4)
H3_19 H 0.1199 0.0715 0.7601
C10_19 C 0.1198(2) 0.0911(2) 0.7318(4)
H4_19 H 0.1321 0.0837 0.7246
C11_19 C 0.1091(3) 0.1091(3) 0.7211(4)
C12_19 C 0.1166(3) 0.1166(3) 0.6993(5)
C13_19 C 0.1228(4) 0.1228(4) 0.6812(5)
C14_19 C 0.1223(5) 0.1511(5) 0.6511(5)
H5_19 H 0.1080 0.1562 0.6562
C15_19 C 0.1329(9) 0.1329(9) 0.6617(9)
O9_19 O 0.08177(19) 0.3861(2) 0.5232(2)
O10_19 O 0.0232(2) 0.3861(2) 0.58177(19)
O11_19 O 0.3861(2) 0.08177(19) 0.5232(2)
O12_19 O 0.3861(2) 0.0232(2) 0.58177(19)
O20_19 O 0.1080(2) 0.3591(2) 0.5229(2)
O21_19 O 0.0229(2) 0.3591(2) 0.6080(2)
O22_19 O 0.3591(2) 0.1080(2) 0.5229(2)
O23_19 O 0.3591(2) 0.0229(2) 0.6080(2)
C16_19 C 0.0305(3) 0.0901(3) 0.8683(3)
C17_19 C 0.0901(3) 0.3683(3) 0.5305(3)
C18_19 C 0.0305(3) 0.3683(3) 0.5901(3)
C19_19 C 0.3683(3) 0.0901(3) 0.5305(3)
C20_19 C 0.3683(3) 0.0305(3) 0.5901(3)
C21_19 C 0.0603(2) 0.3668(3) 0.5603(2)
C22_19 C 0.3668(3) 0.0603(2) 0.5603(2)
H6_19 H 0.0551 0.3811 0.5551
H7_19 H 0.3811 0.0551 0.5551
C23_19 C 0.04956(17) 0.07829(19) 0.8569(3)
C24_19 C 0.07829(19) 0.3569(3) 0.54956(17)
C25_19 C 0.04956(17) 0.3569(3) 0.57829(19)
C26_19 C 0.3569(3) 0.07829(19) 0.54956(17)
C27_19 C 0.3569(3) 0.04956(17) 0.57829(19)
C28_19 C 0.05679(18) 0.08556(16) 0.8356(3)
C29_19 C 0.05679(18) 0.3356(3) 0.58556(16)
C30_19 C 0.08556(16) 0.3356(3) 0.55679(18)
C31_19 C 0.3356(3) 0.08556(16) 0.55679(18)
C32_19 C 0.3356(3) 0.05679(18) 0.58556(16)
H8_19 H 0.0496 0.0980 0.8285
H9_19 H 0.0980 0.3285 0.5496
H10_19 H 0.0496 0.3285 0.5980
H11_19 H 0.3285 0.0980 0.5496
H12_19 H 0.3285 0.0496 0.5980
C33_19 C 0.07456(19) 0.3249(3) 0.57456(19)
C34_19 C 0.3249(3) 0.07456(19) 0.57456(19)
C35_19 C 0.0820(3) 0.3031(4) 0.5820(3)
C36_19 C 0.3031(4) 0.0820(3) 0.5820(3)
C37_19 C 0.0871(3) 0.2851(4) 0.5871(3)
C38_19 C 0.2851(4) 0.0871(3) 0.5871(3)
C39_19 C 0.0945(2) 0.2635(4) 0.5945(2)
C40_19 C 0.2635(4) 0.0945(2) 0.5945(2)
C41_19 C 0.0838(2) 0.1125(2) 0.7529(4)
C42_19 C 0.1125(2) 0.2529(4) 0.5838(2)
C43_19 C 0.0838(2) 0.2529(4) 0.6125(2)
C44_19 C 0.2529(4) 0.1125(2) 0.5838(2)
C45_19 C 0.2529(4) 0.0838(2) 0.6125(2)
H13_19 H 0.0715 0.1199 0.7601
H14_19 H 0.1199 0.2601 0.5715
H15_19 H 0.0715 0.2601 0.6199
H16_19 H 0.2601 0.1199 0.5715
H17_19 H 0.2601 0.0715 0.6199
C46_19 C 0.0911(2) 0.1198(2) 0.7318(4)
C47_19 C 0.0911(2) 0.2318(4) 0.6198(2)
C48_19 C 0.1198(2) 0.2318(4) 0.5911(2)
C49_19 C 0.2318(4) 0.1198(2) 0.5911(2)
C50_19 C 0.2318(4) 0.0911(2) 0.6198(2)
H18_19 H 0.0837 0.1321 0.7246
H19_19 H 0.1321 0.2246 0.5837
H20_19 H 0.0837 0.2246 0.6321
H21_19 H 0.2246 0.1321 0.5837
H22_19 H 0.2246 0.0837 0.6321
C51_19 C 0.1091(3) 0.2211(4) 0.6091(3)
C52_19 C 0.2211(4) 0.1091(3) 0.6091(3)
C53_19 C 0.1166(3) 0.1993(5) 0.6166(3)
C54_19 C 0.1993(5) 0.1166(3) 0.6166(3)
C55_19 C 0.1228(4) 0.1812(5) 0.6228(4)
C56_19 C 0.1812(5) 0.1228(4) 0.6228(4)
C57_19 C 0.1511(5) 0.1223(5) 0.6511(5)
C58_19 C 0.1511(5) 0.1511(5) 0.6223(5)
H23_19 H 0.1562 0.1080 0.6562
H24_19 H 0.1562 0.1562 0.6080
C59_19 C 0.1329(9) 0.1617(9) 0.6329(9)
C60_19 C 0.1617(9) 0.1329(9) 0.6329(9)
C1_20 C 0.9099(3) 0.9695(3) 0.8683(3)
C2_20 C 0.9397(2) 0.9397(2) 0.8668(3)
H1_20 H 0.9449 0.9449 0.8811
C3_20 C 0.92171(19) 0.95044(17) 0.8569(3)
C4_20 C 0.91444(16) 0.94321(18) 0.8356(3)
H2_20 H 0.9020 0.9504 0.8285
C5_20 C 0.92544(19) 0.92544(19) 0.8249(3)
C6_20 C 0.9180(3) 0.9180(3) 0.8031(4)
C7_20 C 0.9129(3) 0.9129(3) 0.7851(4)
C8_20 C 0.9055(2) 0.9055(2) 0.7635(4)
C9_20 C 0.8875(2) 0.9162(2) 0.7529(4)
H3_20 H 0.8801 0.9285 0.7601
C10_20 C 0.8802(2) 0.9089(2) 0.7318(4)
H4_20 H 0.8679 0.9163 0.7246
C11_20 C 0.8909(3) 0.8909(3) 0.7211(4)
C12_20 C 0.8834(3) 0.8834(3) 0.6993(5)
C13_20 C 0.8772(4) 0.8772(4) 0.6812(5)
C14_20 C 0.8777(5) 0.8489(5) 0.6511(5)
H5_20 H 0.8920 0.8438 0.6562
C15_20 C 0.8671(9) 0.8671(9) 0.6617(9)
O9_20 O 0.91823(19) 0.6139(2) 0.5232(2)
O10_20 O 0.9768(2) 0.6139(2) 0.58177(19)
O11_20 O 0.6139(2) 0.91823(19) 0.5232(2)
O12_20 O 0.6139(2) 0.9768(2) 0.58177(19)
O20_20 O 0.8920(2) 0.6409(2) 0.5229(2)
O21_20 O 0.9771(2) 0.6409(2) 0.6080(2)
O22_20 O 0.6409(2) 0.8920(2) 0.5229(2)
O23_20 O 0.6409(2) 0.9771(2) 0.6080(2)
C16_20 C 0.9695(3) 0.9099(3) 0.8683(3)
C17_20 C 0.9099(3) 0.6317(3) 0.5305(3)
C18_20 C 0.9695(3) 0.6317(3) 0.5901(3)
C19_20 C 0.6317(3) 0.9099(3) 0.5305(3)
C20_20 C 0.6317(3) 0.9695(3) 0.5901(3)
C21_20 C 0.9397(2) 0.6332(3) 0.5603(2)
C22_20 C 0.6332(3) 0.9397(2) 0.5603(2)
H6_20 H 0.9449 0.6189 0.5551
H7_20 H 0.6189 0.9449 0.5551
C23_20 C 0.95044(17) 0.92171(19) 0.8569(3)
C24_20 C 0.92171(19) 0.6431(3) 0.54956(17)
C25_20 C 0.95044(17) 0.6431(3) 0.57829(19)
C26_20 C 0.6431(3) 0.92171(19) 0.54956(17)
C27_20 C 0.6431(3) 0.95044(17) 0.57829(19)
C28_20 C 0.94321(18) 0.91444(16) 0.8356(3)
C29_20 C 0.94321(18) 0.6644(3) 0.58556(16)
C30_20 C 0.91444(16) 0.6644(3) 0.55679(18)
C31_20 C 0.6644(3) 0.91444(16) 0.55679(18)
C32_20 C 0.6644(3) 0.94321(18) 0.58556(16)
H8_20 H 0.9504 0.9020 0.8285
H9_20 H 0.9020 0.6715 0.5496
H10_20 H 0.9504 0.6715 0.5980
H11_20 H 0.6715 0.9020 0.5496
H12_20 H 0.6715 0.9504 0.5980
C33_20 C 0.92544(19) 0.6751(3) 0.57456(19)
C34_20 C 0.6751(3) 0.92544(19) 0.57456(19)
C35_20 C 0.9180(3) 0.6969(4) 0.5820(3)
C36_20 C 0.6969(4) 0.9180(3) 0.5820(3)
C37_20 C 0.9129(3) 0.7149(4) 0.5871(3)
C38_20 C 0.7149(4) 0.9129(3) 0.5871(3)
C39_20 C 0.9055(2) 0.7365(4) 0.5945(2)
C40_20 C 0.7365(4) 0.9055(2) 0.5945(2)
C41_20 C 0.9162(2) 0.8875(2) 0.7529(4)
C42_20 C 0.8875(2) 0.7471(4) 0.5838(2)
C43_20 C 0.9162(2) 0.7471(4) 0.6125(2)
C44_20 C 0.7471(4) 0.8875(2) 0.5838(2)
C45_20 C 0.7471(4) 0.9162(2) 0.6125(2)
H13_20 H 0.9285 0.8801 0.7601
H14_20 H 0.8801 0.7399 0.5715
H15_20 H 0.9285 0.7399 0.6199
H16_20 H 0.7399 0.8801 0.5715
H17_20 H 0.7399 0.9285 0.6199
C46_20 C 0.9089(2) 0.8802(2) 0.7318(4)
C47_20 C 0.9089(2) 0.7682(4) 0.6198(2)
C48_20 C 0.8802(2) 0.7682(4) 0.5911(2)
C49_20 C 0.7682(4) 0.8802(2) 0.5911(2)
C50_20 C 0.7682(4) 0.9089(2) 0.6198(2)
H18_20 H 0.9163 0.8679 0.7246
H19_20 H 0.8679 0.7754 0.5837
H20_20 H 0.9163 0.7754 0.6321
H21_20 H 0.7754 0.8679 0.5837
H22_20 H 0.7754 0.9163 0.6321
C51_20 C 0.8909(3) 0.7789(4) 0.6091(3)
C52_20 C 0.7789(4) 0.8909(3) 0.6091(3)
C53_20 C 0.8834(3) 0.8007(5) 0.6166(3)
C54_20 C 0.8007(5) 0.8834(3) 0.6166(3)
C55_20 C 0.8772(4) 0.8188(5) 0.6228(4)
C56_20 C 0.8188(5) 0.8772(4) 0.6228(4)
C57_20 C 0.8489(5) 0.8777(5) 0.6511(5)
C58_20 C 0.8489(5) 0.8489(5) 0.6223(5)
H23_20 H 0.8438 0.8920 0.6562
H24_20 H 0.8438 0.8438 0.6080
C59_20 C 0.8671(9) 0.8383(9) 0.6329(9)
C60_20 C 0.8383(9) 0.8671(9) 0.6329(9)
C1_21 C 0.9695(3) 0.1317(3) 0.0901(3)
C2_21 C 0.9397(2) 0.1332(3) 0.0603(2)
H1_21 H 0.9449 0.1189 0.0551
C3_21 C 0.95044(17) 0.1431(3) 0.07829(19)
C4_21 C 0.94321(18) 0.1644(3) 0.08556(16)
H2_21 H 0.9504 0.1715 0.0980
C5_21 C 0.92544(19) 0.1751(3) 0.07456(19)
C6_21 C 0.9180(3) 0.1969(4) 0.0820(3)
C7_21 C 0.9129(3) 0.2149(4) 0.0871(3)
C8_21 C 0.9055(2) 0.2365(4) 0.0945(2)
C9_21 C 0.9162(2) 0.2471(4) 0.1125(2)
H3_21 H 0.9285 0.2399 0.1199
C10_21 C 0.9089(2) 0.2682(4) 0.1198(2)
H4_21 H 0.9163 0.2754 0.1321
C11_21 C 0.8909(3) 0.2789(4) 0.1091(3)
C12_21 C 0.8834(3) 0.3007(5) 0.1166(3)
C13_21 C 0.8772(4) 0.3188(5) 0.1228(4)
C14_21 C 0.8489(5) 0.3489(5) 0.1223(5)
H5_21 H 0.8438 0.3438 0.1080
C15_21 C 0.8671(9) 0.3383(9) 0.1329(9)
O9_21 O 0.6139(2) 0.4768(2) 0.08177(19)
O10_21 O 0.6139(2) 0.41823(19) 0.0232(2)
O11_21 O 0.91823(19) 0.4768(2) 0.3861(2)
O12_21 O 0.9768(2) 0.41823(19) 0.3861(2)
O20_21 O 0.6409(2) 0.4771(2) 0.1080(2)
O21_21 O 0.6409(2) 0.3920(2) 0.0229(2)
O22_21 O 0.8920(2) 0.4771(2) 0.3591(2)
O23_21 O 0.9771(2) 0.3920(2) 0.3591(2)
C16_21 C 0.9099(3) 0.1317(3) 0.0305(3)
C17_21 C 0.6317(3) 0.4695(3) 0.0901(3)
C18_21 C 0.6317(3) 0.4099(3) 0.0305(3)
C19_21 C 0.9099(3) 0.4695(3) 0.3683(3)
C20_21 C 0.9695(3) 0.4099(3) 0.3683(3)
C21_21 C 0.6332(3) 0.4397(2) 0.0603(2)
C22_21 C 0.9397(2) 0.4397(2) 0.3668(3)
H6_21 H 0.6189 0.4449 0.0551
H7_21 H 0.9449 0.4449 0.3811
C23_21 C 0.92171(19) 0.1431(3) 0.04956(17)
C24_21 C 0.6431(3) 0.45044(17) 0.07829(19)
C25_21 C 0.6431(3) 0.42171(19) 0.04956(17)
C26_21 C 0.92171(19) 0.45044(17) 0.3569(3)
C27_21 C 0.95044(17) 0.42171(19) 0.3569(3)
C28_21 C 0.91444(16) 0.1644(3) 0.05679(18)
C29_21 C 0.6644(3) 0.41444(16) 0.05679(18)
C30_21 C 0.6644(3) 0.44321(18) 0.08556(16)
C31_21 C 0.91444(16) 0.44321(18) 0.3356(3)
C32_21 C 0.94321(18) 0.41444(16) 0.3356(3)
H8_21 H 0.9020 0.1715 0.0496
H9_21 H 0.6715 0.4504 0.0980
H10_21 H 0.6715 0.4020 0.0496
H11_21 H 0.9020 0.4504 0.3285
H12_21 H 0.9504 0.4020 0.3285
C33_21 C 0.6751(3) 0.42544(19) 0.07456(19)
C34_21 C 0.92544(19) 0.42544(19) 0.3249(3)
C35_21 C 0.6969(4) 0.4180(3) 0.0820(3)
C36_21 C 0.9180(3) 0.4180(3) 0.3031(4)
C37_21 C 0.7149(4) 0.4129(3) 0.0871(3)
C38_21 C 0.9129(3) 0.4129(3) 0.2851(4)
C39_21 C 0.7365(4) 0.4055(2) 0.0945(2)
C40_21 C 0.9055(2) 0.4055(2) 0.2635(4)
C41_21 C 0.8875(2) 0.2471(4) 0.0838(2)
C42_21 C 0.7471(4) 0.4162(2) 0.1125(2)
C43_21 C 0.7471(4) 0.3875(2) 0.0838(2)
C44_21 C 0.8875(2) 0.4162(2) 0.2529(4)
C45_21 C 0.9162(2) 0.3875(2) 0.2529(4)
H13_21 H 0.8801 0.2399 0.0715
H14_21 H 0.7399 0.4285 0.1199
H15_21 H 0.7399 0.3801 0.0715
H16_21 H 0.8801 0.4285 0.2601
H17_21 H 0.9285 0.3801 0.2601
C46_21 C 0.8802(2) 0.2682(4) 0.0911(2)
C47_21 C 0.7682(4) 0.3802(2) 0.0911(2)
C48_21 C 0.7682(4) 0.4089(2) 0.1198(2)
C49_21 C 0.8802(2) 0.4089(2) 0.2318(4)
C50_21 C 0.9089(2) 0.3802(2) 0.2318(4)
H18_21 H 0.8679 0.2754 0.0837
H19_21 H 0.7754 0.4163 0.1321
H20_21 H 0.7754 0.3679 0.0837
H21_21 H 0.8679 0.4163 0.2246
H22_21 H 0.9163 0.3679 0.2246
C51_21 C 0.7789(4) 0.3909(3) 0.1091(3)
C52_21 C 0.8909(3) 0.3909(3) 0.2211(4)
C53_21 C 0.8007(5) 0.3834(3) 0.1166(3)
C54_21 C 0.8834(3) 0.3834(3) 0.1993(5)
C55_21 C 0.8188(5) 0.3772(4) 0.1228(4)
C56_21 C 0.8772(4) 0.3772(4) 0.1812(5)
C57_21 C 0.8777(5) 0.3489(5) 0.1511(5)
C58_21 C 0.8489(5) 0.3777(5) 0.1511(5)
H23_21 H 0.8920 0.3438 0.1562
H24_21 H 0.8438 0.3920 0.1562
C59_21 C 0.8383(9) 0.3671(9) 0.1329(9)
C60_21 C 0.8671(9) 0.3671(9) 0.1617(9)
C1_22 C 0.9695(3) 0.8683(3) 0.9099(3)
C2_22 C 0.9397(2) 0.8668(3) 0.9397(2)
H1_22 H 0.9449 0.8811 0.9449
C3_22 C 0.95044(17) 0.8569(3) 0.92171(19)
C4_22 C 0.94321(18) 0.8356(3) 0.91444(16)
H2_22 H 0.9504 0.8285 0.9020
C5_22 C 0.92544(19) 0.8249(3) 0.92544(19)
C6_22 C 0.9180(3) 0.8031(4) 0.9180(3)
C7_22 C 0.9129(3) 0.7851(4) 0.9129(3)
C8_22 C 0.9055(2) 0.7635(4) 0.9055(2)
C9_22 C 0.9162(2) 0.7529(4) 0.8875(2)
H3_22 H 0.9285 0.7601 0.8801
C10_22 C 0.9089(2) 0.7318(4) 0.8802(2)
H4_22 H 0.9163 0.7246 0.8679
C11_22 C 0.8909(3) 0.7211(4) 0.8909(3)
C12_22 C 0.8834(3) 0.6993(5) 0.8834(3)
C13_22 C 0.8772(4) 0.6812(5) 0.8772(4)
C14_22 C 0.8489(5) 0.6511(5) 0.8777(5)
H5_22 H 0.8438 0.6562 0.8920
C15_22 C 0.8671(9) 0.6617(9) 0.8671(9)
O9_22 O 0.6139(2) 0.5232(2) 0.91823(19)
O10_22 O 0.6139(2) 0.58177(19) 0.9768(2)
O11_22 O 0.91823(19) 0.5232(2) 0.6139(2)
O12_22 O 0.9768(2) 0.58177(19) 0.6139(2)
O20_22 O 0.6409(2) 0.5229(2) 0.8920(2)
O21_22 O 0.6409(2) 0.6080(2) 0.9771(2)
O22_22 O 0.8920(2) 0.5229(2) 0.6409(2)
O23_22 O 0.9771(2) 0.6080(2) 0.6409(2)
C16_22 C 0.9099(3) 0.8683(3) 0.9695(3)
C17_22 C 0.6317(3) 0.5305(3) 0.9099(3)
C18_22 C 0.6317(3) 0.5901(3) 0.9695(3)
C19_22 C 0.9099(3) 0.5305(3) 0.6317(3)
C20_22 C 0.9695(3) 0.5901(3) 0.6317(3)
C21_22 C 0.6332(3) 0.5603(2) 0.9397(2)
C22_22 C 0.9397(2) 0.5603(2) 0.6332(3)
H6_22 H 0.6189 0.5551 0.9449
H7_22 H 0.9449 0.5551 0.6189
C23_22 C 0.92171(19) 0.8569(3) 0.95044(17)
C24_22 C 0.6431(3) 0.54956(17) 0.92171(19)
C25_22 C 0.6431(3) 0.57829(19) 0.95044(17)
C26_22 C 0.92171(19) 0.54956(17) 0.6431(3)
C27_22 C 0.95044(17) 0.57829(19) 0.6431(3)
C28_22 C 0.91444(16) 0.8356(3) 0.94321(18)
C29_22 C 0.6644(3) 0.58556(16) 0.94321(18)
C30_22 C 0.6644(3) 0.55679(18) 0.91444(16)
C31_22 C 0.91444(16) 0.55679(18) 0.6644(3)
C32_22 C 0.94321(18) 0.58556(16) 0.6644(3)
H8_22 H 0.9020 0.8285 0.9504
H9_22 H 0.6715 0.5496 0.9020
H10_22 H 0.6715 0.5980 0.9504
H11_22 H 0.9020 0.5496 0.6715
H12_22 H 0.9504 0.5980 0.6715
C33_22 C 0.6751(3) 0.57456(19) 0.92544(19)
C34_22 C 0.92544(19) 0.57456(19) 0.6751(3)
C35_22 C 0.6969(4) 0.5820(3) 0.9180(3)
C36_22 C 0.9180(3) 0.5820(3) 0.6969(4)
C37_22 C 0.7149(4) 0.5871(3) 0.9129(3)
C38_22 C 0.9129(3) 0.5871(3) 0.7149(4)
C39_22 C 0.7365(4) 0.5945(2) 0.9055(2)
C40_22 C 0.9055(2) 0.5945(2) 0.7365(4)
C41_22 C 0.8875(2) 0.7529(4) 0.9162(2)
C42_22 C 0.7471(4) 0.5838(2) 0.8875(2)
C43_22 C 0.7471(4) 0.6125(2) 0.9162(2)
C44_22 C 0.8875(2) 0.5838(2) 0.7471(4)
C45_22 C 0.9162(2) 0.6125(2) 0.7471(4)
H13_22 H 0.8801 0.7601 0.9285
H14_22 H 0.7399 0.5715 0.8801
H15_22 H 0.7399 0.6199 0.9285
H16_22 H 0.8801 0.5715 0.7399
H17_22 H 0.9285 0.6199 0.7399
C46_22 C 0.8802(2) 0.7318(4) 0.9089(2)
C47_22 C 0.7682(4) 0.6198(2) 0.9089(2)
C48_22 C 0.7682(4) 0.5911(2) 0.8802(2)
C49_22 C 0.8802(2) 0.5911(2) 0.7682(4)
C50_22 C 0.9089(2) 0.6198(2) 0.7682(4)
H18_22 H 0.8679 0.7246 0.9163
H19_22 H 0.7754 0.5837 0.8679
H20_22 H 0.7754 0.6321 0.9163
H21_22 H 0.8679 0.5837 0.7754
H22_22 H 0.9163 0.6321 0.7754
C51_22 C 0.7789(4) 0.6091(3) 0.8909(3)
C52_22 C 0.8909(3) 0.6091(3) 0.7789(4)
C53_22 C 0.8007(5) 0.6166(3) 0.8834(3)
C54_22 C 0.8834(3) 0.6166(3) 0.8007(5)
C55_22 C 0.8188(5) 0.6228(4) 0.8772(4)
C56_22 C 0.8772(4) 0.6228(4) 0.8188(5)
C57_22 C 0.8777(5) 0.6511(5) 0.8489(5)
C58_22 C 0.8489(5) 0.6223(5) 0.8489(5)
H23_22 H 0.8920 0.6562 0.8438
H24_22 H 0.8438 0.6080 0.8438
C59_22 C 0.8383(9) 0.6329(9) 0.8671(9)
C60_22 C 0.8671(9) 0.6329(9) 0.8383(9)
C1_23 C 0.1317(3) 0.9099(3) 0.0305(3)
C2_23 C 0.1332(3) 0.9397(2) 0.0603(2)
H1_23 H 0.1189 0.9449 0.0551
C3_23 C 0.1431(3) 0.92171(19) 0.04956(17)
C4_23 C 0.1644(3) 0.91444(16) 0.05679(18)
H2_23 H 0.1715 0.9020 0.0496
C5_23 C 0.1751(3) 0.92544(19) 0.07456(19)
C6_23 C 0.1969(4) 0.9180(3) 0.0820(3)
C7_23 C 0.2149(4) 0.9129(3) 0.0871(3)
C8_23 C 0.2365(4) 0.9055(2) 0.0945(2)
C9_23 C 0.2471(4) 0.8875(2) 0.0838(2)
H3_23 H 0.2399 0.8801 0.0715
C10_23 C 0.2682(4) 0.8802(2) 0.0911(2)
H4_23 H 0.2754 0.8679 0.0837
C11_23 C 0.2789(4) 0.8909(3) 0.1091(3)
C12_23 C 0.3007(5) 0.8834(3) 0.1166(3)
C13_23 C 0.3188(5) 0.8772(4) 0.1228(4)
C14_23 C 0.3489(5) 0.8777(5) 0.1511(5)
H5_23 H 0.3438 0.8920 0.1562
C15_23 C 0.3383(9) 0.8671(9) 0.1329(9)
O9_23 O 0.4768(2) 0.91823(19) 0.3861(2)
O10_23 O 0.41823(19) 0.9768(2) 0.3861(2)
O11_23 O 0.4768(2) 0.6139(2) 0.08177(19)
O12_23 O 0.41823(19) 0.6139(2) 0.0232(2)
O20_23 O 0.4771(2) 0.8920(2) 0.3591(2)
O21_23 O 0.3920(2) 0.9771(2) 0.3591(2)
O22_23 O 0.4771(2) 0.6409(2) 0.1080(2)
O23_23 O 0.3920(2) 0.6409(2) 0.0229(2)
C16_23 C 0.1317(3) 0.9695(3) 0.0901(3)
C17_23 C 0.4695(3) 0.9099(3) 0.3683(3)
C18_23 C 0.4099(3) 0.9695(3) 0.3683(3)
C19_23 C 0.4695(3) 0.6317(3) 0.0901(3)
C20_23 C 0.4099(3) 0.6317(3) 0.0305(3)
C21_23 C 0.4397(2) 0.9397(2) 0.3668(3)
C22_23 C 0.4397(2) 0.6332(3) 0.0603(2)
H6_23 H 0.4449 0.9449 0.3811
H7_23 H 0.4449 0.6189 0.0551
C23_23 C 0.1431(3) 0.95044(17) 0.07829(19)
C24_23 C 0.45044(17) 0.92171(19) 0.3569(3)
C25_23 C 0.42171(19) 0.95044(17) 0.3569(3)
C26_23 C 0.45044(17) 0.6431(3) 0.07829(19)
C27_23 C 0.42171(19) 0.6431(3) 0.04956(17)
C28_23 C 0.1644(3) 0.94321(18) 0.08556(16)
C29_23 C 0.41444(16) 0.94321(18) 0.3356(3)
C30_23 C 0.44321(18) 0.91444(16) 0.3356(3)
C31_23 C 0.44321(18) 0.6644(3) 0.08556(16)
C32_23 C 0.41444(16) 0.6644(3) 0.05679(18)
H8_23 H 0.1715 0.9504 0.0980
H9_23 H 0.4504 0.9020 0.3285
H10_23 H 0.4020 0.9504 0.3285
H11_23 H 0.4504 0.6715 0.0980
H12_23 H 0.4020 0.6715 0.0496
C33_23 C 0.42544(19) 0.92544(19) 0.3249(3)
C34_23 C 0.42544(19) 0.6751(3) 0.07456(19)
C35_23 C 0.4180(3) 0.9180(3) 0.3031(4)
C36_23 C 0.4180(3) 0.6969(4) 0.0820(3)
C37_23 C 0.4129(3) 0.9129(3) 0.2851(4)
C38_23 C 0.4129(3) 0.7149(4) 0.0871(3)
C39_23 C 0.4055(2) 0.9055(2) 0.2635(4)
C40_23 C 0.4055(2) 0.7365(4) 0.0945(2)
C41_23 C 0.2471(4) 0.9162(2) 0.1125(2)
C42_23 C 0.4162(2) 0.8875(2) 0.2529(4)
C43_23 C 0.3875(2) 0.9162(2) 0.2529(4)
C44_23 C 0.4162(2) 0.7471(4) 0.1125(2)
C45_23 C 0.3875(2) 0.7471(4) 0.0838(2)
H13_23 H 0.2399 0.9285 0.1199
H14_23 H 0.4285 0.8801 0.2601
H15_23 H 0.3801 0.9285 0.2601
H16_23 H 0.4285 0.7399 0.1199
H17_23 H 0.3801 0.7399 0.0715
C46_23 C 0.2682(4) 0.9089(2) 0.1198(2)
C47_23 C 0.3802(2) 0.9089(2) 0.2318(4)
C48_23 C 0.4089(2) 0.8802(2) 0.2318(4)
C49_23 C 0.4089(2) 0.7682(4) 0.1198(2)
C50_23 C 0.3802(2) 0.7682(4) 0.0911(2)
H18_23 H 0.2754 0.9163 0.1321
H19_23 H 0.4163 0.8679 0.2246
H20_23 H 0.3679 0.9163 0.2246
H21_23 H 0.4163 0.7754 0.1321
H22_23 H 0.3679 0.7754 0.0837
C51_23 C 0.3909(3) 0.8909(3) 0.2211(4)
C52_23 C 0.3909(3) 0.7789(4) 0.1091(3)
C53_23 C 0.3834(3) 0.8834(3) 0.1993(5)
C54_23 C 0.3834(3) 0.8007(5) 0.1166(3)
C55_23 C 0.3772(4) 0.8772(4) 0.1812(5)
C56_23 C 0.3772(4) 0.8188(5) 0.1228(4)
C57_23 C 0.3489(5) 0.8489(5) 0.1223(5)
C58_23 C 0.3777(5) 0.8489(5) 0.1511(5)
H23_23 H 0.3438 0.8438 0.1080
H24_23 H 0.3920 0.8438 0.1562
C59_23 C 0.3671(9) 0.8671(9) 0.1617(9)
C60_23 C 0.3671(9) 0.8383(9) 0.1329(9)
C1_24 C 0.8683(3) 0.9099(3) 0.9695(3)
C2_24 C 0.8668(3) 0.9397(2) 0.9397(2)
H1_24 H 0.8811 0.9449 0.9449
C3_24 C 0.8569(3) 0.92171(19) 0.95044(17)
C4_24 C 0.8356(3) 0.91444(16) 0.94321(18)
H2_24 H 0.8285 0.9020 0.9504
C5_24 C 0.8249(3) 0.92544(19) 0.92544(19)
C6_24 C 0.8031(4) 0.9180(3) 0.9180(3)
C7_24 C 0.7851(4) 0.9129(3) 0.9129(3)
C8_24 C 0.7635(4) 0.9055(2) 0.9055(2)
C9_24 C 0.7529(4) 0.8875(2) 0.9162(2)
H3_24 H 0.7601 0.8801 0.9285
C10_24 C 0.7318(4) 0.8802(2) 0.9089(2)
H4_24 H 0.7246 0.8679 0.9163
C11_24 C 0.7211(4) 0.8909(3) 0.8909(3)
C12_24 C 0.6993(5) 0.8834(3) 0.8834(3)
C13_24 C 0.6812(5) 0.8772(4) 0.8772(4)
C14_24 C 0.6511(5) 0.8777(5) 0.8489(5)
H5_24 H 0.6562 0.8920 0.8438
C15_24 C 0.6617(9) 0.8671(9) 0.8671(9)
O9_24 O 0.5232(2) 0.91823(19) 0.6139(2)
O10_24 O 0.58177(19) 0.9768(2) 0.6139(2)
O11_24 O 0.5232(2) 0.6139(2) 0.91823(19)
O12_24 O 0.58177(19) 0.6139(2) 0.9768(2)
O20_24 O 0.5229(2) 0.8920(2) 0.6409(2)
O21_24 O 0.6080(2) 0.9771(2) 0.6409(2)
O22_24 O 0.5229(2) 0.6409(2) 0.8920(2)
O23_24 O 0.6080(2) 0.6409(2) 0.9771(2)
C16_24 C 0.8683(3) 0.9695(3) 0.9099(3)
C17_24 C 0.5305(3) 0.9099(3) 0.6317(3)
C18_24 C 0.5901(3) 0.9695(3) 0.6317(3)
C19_24 C 0.5305(3) 0.6317(3) 0.9099(3)
C20_24 C 0.5901(3) 0.6317(3) 0.9695(3)
C21_24 C 0.5603(2) 0.9397(2) 0.6332(3)
C22_24 C 0.5603(2) 0.6332(3) 0.9397(2)
H6_24 H 0.5551 0.9449 0.6189
H7_24 H 0.5551 0.6189 0.9449
C23_24 C 0.8569(3) 0.95044(17) 0.92171(19)
C24_24 C 0.54956(17) 0.92171(19) 0.6431(3)
C25_24 C 0.57829(19) 0.95044(17) 0.6431(3)
C26_24 C 0.54956(17) 0.6431(3) 0.92171(19)
C27_24 C 0.57829(19) 0.6431(3) 0.95044(17)
C28_24 C 0.8356(3) 0.94321(18) 0.91444(16)
C29_24 C 0.58556(16) 0.94321(18) 0.6644(3)
C30_24 C 0.55679(18) 0.91444(16) 0.6644(3)
C31_24 C 0.55679(18) 0.6644(3) 0.91444(16)
C32_24 C 0.58556(16) 0.6644(3) 0.94321(18)
H8_24 H 0.8285 0.9504 0.9020
H9_24 H 0.5496 0.9020 0.6715
H10_24 H 0.5980 0.9504 0.6715
H11_24 H 0.5496 0.6715 0.9020
H12_24 H 0.5980 0.6715 0.9504
C33_24 C 0.57456(19) 0.92544(19) 0.6751(3)
C34_24 C 0.57456(19) 0.6751(3) 0.92544(19)
C35_24 C 0.5820(3) 0.9180(3) 0.6969(4)
C36_24 C 0.5820(3) 0.6969(4) 0.9180(3)
C37_24 C 0.5871(3) 0.9129(3) 0.7149(4)
C38_24 C 0.5871(3) 0.7149(4) 0.9129(3)
C39_24 C 0.5945(2) 0.9055(2) 0.7365(4)
C40_24 C 0.5945(2) 0.7365(4) 0.9055(2)
C41_24 C 0.7529(4) 0.9162(2) 0.8875(2)
C42_24 C 0.5838(2) 0.8875(2) 0.7471(4)
C43_24 C 0.6125(2) 0.9162(2) 0.7471(4)
C44_24 C 0.5838(2) 0.7471(4) 0.8875(2)
C45_24 C 0.6125(2) 0.7471(4) 0.9162(2)
H13_24 H 0.7601 0.9285 0.8801
H14_24 H 0.5715 0.8801 0.7399
H15_24 H 0.6199 0.9285 0.7399
H16_24 H 0.5715 0.7399 0.8801
H17_24 H 0.6199 0.7399 0.9285
C46_24 C 0.7318(4) 0.9089(2) 0.8802(2)
C47_24 C 0.6198(2) 0.9089(2) 0.7682(4)
C48_24 C 0.5911(2) 0.8802(2) 0.7682(4)
C49_24 C 0.5911(2) 0.7682(4) 0.8802(2)
C50_24 C 0.6198(2) 0.7682(4) 0.9089(2)
H18_24 H 0.7246 0.9163 0.8679
H19_24 H 0.5837 0.8679 0.7754
H20_24 H 0.6321 0.9163 0.7754
H21_24 H 0.5837 0.7754 0.8679
H22_24 H 0.6321 0.7754 0.9163
C51_24 C 0.6091(3) 0.8909(3) 0.7789(4)
C52_24 C 0.6091(3) 0.7789(4) 0.8909(3)
C53_24 C 0.6166(3) 0.8834(3) 0.8007(5)
C54_24 C 0.6166(3) 0.8007(5) 0.8834(3)
C55_24 C 0.6228(4) 0.8772(4) 0.8188(5)
C56_24 C 0.6228(4) 0.8188(5) 0.8772(4)
C57_24 C 0.6511(5) 0.8489(5) 0.8777(5)
C58_24 C 0.6223(5) 0.8489(5) 0.8489(5)
H23_24 H 0.6562 0.8438 0.8920
H24_24 H 0.6080 0.8438 0.8438
C59_24 C 0.6329(9) 0.8671(9) 0.8383(9)
C60_24 C 0.6329(9) 0.8383(9) 0.8671(9)
O3_15 O 0.0000 0.5687(2) 0.5687(2)
O4_25 O -0.0000 0.6560(3) 0.6560(3)
O14_6 O 0.1139(2) 0.5232(2) 0.58177(19)
O15_6 O 0.1139(2) 0.4768(2) 0.58177(19)
O24_11 O 0.0687(2) 0.5000 0.5687(2)
O3_16 O 1.0000 0.5687(2) 0.5687(2)
O4_26 O 1.0000 0.6560(3) 0.6560(3)
O3_17 O 0.9313(2) 0.5000 0.5687(2)
O4_27 O 0.8440(3) 0.5000 0.6560(3)
O5_8 O 0.8861(2) 0.4768(2) 0.58177(19)
O7_8 O 0.8861(2) 0.5232(2) 0.58177(19)
O16_13 O 0.8591(2) 0.4771(2) 0.6080(2)
O18_9 O 0.8591(2) 0.5229(2) 0.6080(2)
O3_18 O 0.0000 0.4313(2) 0.5687(2)
O4_28 O -0.0000 0.3440(3) 0.6560(3)
O3_19 O 1.0000 0.4313(2) 0.5687(2)
O4_29 O 1.0000 0.3440(3) 0.6560(3)
O4_30 O 0.1560(3) 0.5000 0.6560(3)
O16_14 O 0.1409(2) 0.5229(2) 0.6080(2)
O18_10 O 0.1409(2) 0.4771(2) 0.6080(2)
O14_7 O 0.1139(2) 0.41823(19) 0.5232(2)
O15_7 O 0.1139(2) 0.41823(19) 0.4768(2)
O24_12 O 0.0687(2) 0.4313(2) 0.5000
O3_20 O 0.0000 0.4313(2) 0.4313(2)
O4_31 O -0.0000 0.3440(3) 0.3440(3)
O14_8 O 0.1139(2) 0.4768(2) 0.41823(19)
O15_8 O 0.1139(2) 0.5232(2) 0.41823(19)
O24_13 O 0.0687(2) 0.5000 0.4313(2)
O3_21 O 1.0000 0.4313(2) 0.4313(2)
O4_32 O 1.0000 0.3440(3) 0.3440(3)
O3_22 O 0.0000 0.5687(2) 0.4313(2)
O4_33 O 0.0000 0.6560(3) 0.3440(3)
O14_9 O 0.1139(2) 0.58177(19) 0.4768(2)
O15_9 O 0.1139(2) 0.58177(19) 0.5232(2)
O24_14 O 0.0687(2) 0.5687(2) 0.5000
O3_23 O 1.0000 0.5687(2) 0.4313(2)
O4_34 O 1.0000 0.6560(3) 0.3440(3)
O2_13 O 0.1409(2) 0.6080(2) 0.4771(2)
O4_35 O 0.1560(3) 0.6560(3) 0.5000
C1_25 C 0.1317(3) 0.5901(3) 0.4695(3)
C2_25 C 0.1332(3) 0.5603(2) 0.4397(2)
H1_25 H 0.1189 0.5551 0.4449
C3_25 C 0.1431(3) 0.57829(19) 0.45044(17)
C4_25 C 0.1644(3) 0.58556(16) 0.44321(18)
H2_25 H 0.1715 0.5980 0.4504
C5_25 C 0.1751(3) 0.57456(19) 0.42544(19)
C6_25 C 0.1969(4) 0.5820(3) 0.4180(3)
C7_25 C 0.2149(4) 0.5871(3) 0.4129(3)
C8_25 C 0.2365(4) 0.5945(2) 0.4055(2)
C9_25 C 0.2471(4) 0.6125(2) 0.4162(2)
H3_25 H 0.2399 0.6199 0.4285
C10_25 C 0.2682(4) 0.6198(2) 0.4089(2)
H4_25 H 0.2754 0.6321 0.4163
C11_25 C 0.2789(4) 0.6091(3) 0.3909(3)
C12_25 C 0.3007(5) 0.6166(3) 0.3834(3)
C13_25 C 0.3188(5) 0.6228(4) 0.3772(4)
C14_25 C 0.3489(5) 0.6223(5) 0.3489(5)
H5_25 H 0.3438 0.6080 0.3438
C15_25 C 0.3383(9) 0.6329(9) 0.3671(9)
O9_25 O 0.4768(2) 0.58177(19) 0.1139(2)
O10_25 O 0.41823(19) 0.5232(2) 0.1139(2)
O11_25 O 0.4768(2) 0.8861(2) 0.41823(19)
O12_25 O 0.41823(19) 0.8861(2) 0.4768(2)
O17_10 O 0.1409(2) 0.6080(2) 0.5229(2)
O19_8 O 0.1409(2) 0.5229(2) 0.3920(2)
O20_25 O 0.4771(2) 0.6080(2) 0.1409(2)
O21_25 O 0.3920(2) 0.5229(2) 0.1409(2)
O22_25 O 0.4771(2) 0.8591(2) 0.3920(2)
O23_25 O 0.3920(2) 0.8591(2) 0.4771(2)
C16_25 C 0.1317(3) 0.5305(3) 0.4099(3)
C17_25 C 0.4695(3) 0.5901(3) 0.1317(3)
C18_25 C 0.4099(3) 0.5305(3) 0.1317(3)
C19_25 C 0.4695(3) 0.8683(3) 0.4099(3)
C20_25 C 0.4099(3) 0.8683(3) 0.4695(3)
C21_25 C 0.4397(2) 0.5603(2) 0.1332(3)
C22_25 C 0.4397(2) 0.8668(3) 0.4397(2)
H6_25 H 0.4449 0.5551 0.1189
H7_25 H 0.4449 0.8811 0.4449
C23_25 C 0.1431(3) 0.54956(17) 0.42171(19)
C24_25 C 0.45044(17) 0.57829(19) 0.1431(3)
C25_25 C 0.42171(19) 0.54956(17) 0.1431(3)
C26_25 C 0.45044(17) 0.8569(3) 0.42171(19)
C27_25 C 0.42171(19) 0.8569(3) 0.45044(17)
C28_25 C 0.1644(3) 0.55679(18) 0.41444(16)
C29_25 C 0.41444(16) 0.55679(18) 0.1644(3)
C30_25 C 0.44321(18) 0.58556(16) 0.1644(3)
C31_25 C 0.44321(18) 0.8356(3) 0.41444(16)
C32_25 C 0.41444(16) 0.8356(3) 0.44321(18)
H8_25 H 0.1715 0.5496 0.4020
H9_25 H 0.4504 0.5980 0.1715
H10_25 H 0.4020 0.5496 0.1715
H11_25 H 0.4504 0.8285 0.4020
H12_25 H 0.4020 0.8285 0.4504
C33_25 C 0.42544(19) 0.57456(19) 0.1751(3)
C34_25 C 0.42544(19) 0.8249(3) 0.42544(19)
C35_25 C 0.4180(3) 0.5820(3) 0.1969(4)
C36_25 C 0.4180(3) 0.8031(4) 0.4180(3)
C37_25 C 0.4129(3) 0.5871(3) 0.2149(4)
C38_25 C 0.4129(3) 0.7851(4) 0.4129(3)
C39_25 C 0.4055(2) 0.5945(2) 0.2365(4)
C40_25 C 0.4055(2) 0.7635(4) 0.4055(2)
C41_25 C 0.2471(4) 0.5838(2) 0.3875(2)
C42_25 C 0.4162(2) 0.6125(2) 0.2471(4)
C43_25 C 0.3875(2) 0.5838(2) 0.2471(4)
C44_25 C 0.4162(2) 0.7529(4) 0.3875(2)
C45_25 C 0.3875(2) 0.7529(4) 0.4162(2)
H13_25 H 0.2399 0.5715 0.3801
H14_25 H 0.4285 0.6199 0.2399
H15_25 H 0.3801 0.5715 0.2399
H16_25 H 0.4285 0.7601 0.3801
H17_25 H 0.3801 0.7601 0.4285
C46_25 C 0.2682(4) 0.5911(2) 0.3802(2)
C47_25 C 0.3802(2) 0.5911(2) 0.2682(4)
C48_25 C 0.4089(2) 0.6198(2) 0.2682(4)
C49_25 C 0.4089(2) 0.7318(4) 0.3802(2)
C50_25 C 0.3802(2) 0.7318(4) 0.4089(2)
H18_25 H 0.2754 0.5837 0.3679
H19_25 H 0.4163 0.6321 0.2754
H20_25 H 0.3679 0.5837 0.2754
H21_25 H 0.4163 0.7246 0.3679
H22_25 H 0.3679 0.7246 0.4163
C51_25 C 0.3909(3) 0.6091(3) 0.2789(4)
C52_25 C 0.3909(3) 0.7211(4) 0.3909(3)
C53_25 C 0.3834(3) 0.6166(3) 0.3007(5)
C54_25 C 0.3834(3) 0.6993(5) 0.3834(3)
C55_25 C 0.3772(4) 0.6228(4) 0.3188(5)
C56_25 C 0.3772(4) 0.6812(5) 0.3772(4)
C57_25 C 0.3489(5) 0.6511(5) 0.3777(5)
C58_25 C 0.3777(5) 0.6511(5) 0.3489(5)
H23_25 H 0.3438 0.6562 0.3920
H24_25 H 0.3920 0.6562 0.3438
C59_25 C 0.3671(9) 0.6329(9) 0.3383(9)
C60_25 C 0.3671(9) 0.6617(9) 0.3671(9)
O14_10 O 0.8861(2) 0.5232(2) 0.41823(19)
O15_10 O 0.8861(2) 0.4768(2) 0.41823(19)
O24_15 O 0.9313(2) 0.5000 0.4313(2)
O1_8 O 0.8861(2) 0.58177(19) 0.5232(2)
O2_14 O 0.8591(2) 0.6080(2) 0.5229(2)
O3_24 O 0.9313(2) 0.5687(2) 0.5000
O4_36 O 0.8440(3) 0.6560(3) 0.5000
C1_26 C 0.8683(3) 0.5901(3) 0.5305(3)
C2_26 C 0.8668(3) 0.5603(2) 0.5603(2)
H1_26 H 0.8811 0.5551 0.5551
C3_26 C 0.8569(3) 0.57829(19) 0.54956(17)
C4_26 C 0.8356(3) 0.58556(16) 0.55679(18)
H2_26 H 0.8285 0.5980 0.5496
C5_26 C 0.8249(3) 0.57456(19) 0.57456(19)
C6_26 C 0.8031(4) 0.5820(3) 0.5820(3)
C7_26 C 0.7851(4) 0.5871(3) 0.5871(3)
C8_26 C 0.7635(4) 0.5945(2) 0.5945(2)
C9_26 C 0.7529(4) 0.6125(2) 0.5838(2)
H3_26 H 0.7601 0.6199 0.5715
C10_26 C 0.7318(4) 0.6198(2) 0.5911(2)
H4_26 H 0.7246 0.6321 0.5837
C11_26 C 0.7211(4) 0.6091(3) 0.6091(3)
C12_26 C 0.6993(5) 0.6166(3) 0.6166(3)
C13_26 C 0.6812(5) 0.6228(4) 0.6228(4)
C14_26 C 0.6511(5) 0.6223(5) 0.6511(5)
H5_26 H 0.6562 0.6080 0.6562
C15_26 C 0.6617(9) 0.6329(9) 0.6329(9)
O6_8 O 0.8861(2) 0.58177(19) 0.4768(2)
O9_26 O 0.5232(2) 0.58177(19) 0.8861(2)
O10_26 O 0.58177(19) 0.5232(2) 0.8861(2)
O11_26 O 0.5232(2) 0.8861(2) 0.58177(19)
O12_26 O 0.58177(19) 0.8861(2) 0.5232(2)
O17_11 O 0.8591(2) 0.6080(2) 0.4771(2)
O20_26 O 0.5229(2) 0.6080(2) 0.8591(2)
O21_26 O 0.6080(2) 0.5229(2) 0.8591(2)
O22_26 O 0.5229(2) 0.8591(2) 0.6080(2)
O23_26 O 0.6080(2) 0.8591(2) 0.5229(2)
C16_26 C 0.8683(3) 0.5305(3) 0.5901(3)
C17_26 C 0.5305(3) 0.5901(3) 0.8683(3)
C18_26 C 0.5901(3) 0.5305(3) 0.8683(3)
C19_26 C 0.5305(3) 0.8683(3) 0.5901(3)
C20_26 C 0.5901(3) 0.8683(3) 0.5305(3)
C21_26 C 0.5603(2) 0.5603(2) 0.8668(3)
C22_26 C 0.5603(2) 0.8668(3) 0.5603(2)
H6_26 H 0.5551 0.5551 0.8811
H7_26 H 0.5551 0.8811 0.5551
C23_26 C 0.8569(3) 0.54956(17) 0.57829(19)
C24_26 C 0.54956(17) 0.57829(19) 0.8569(3)
C25_26 C 0.57829(19) 0.54956(17) 0.8569(3)
C26_26 C 0.54956(17) 0.8569(3) 0.57829(19)
C27_26 C 0.57829(19) 0.8569(3) 0.54956(17)
C28_26 C 0.8356(3) 0.55679(18) 0.58556(16)
C29_26 C 0.58556(16) 0.55679(18) 0.8356(3)
C30_26 C 0.55679(18) 0.58556(16) 0.8356(3)
C31_26 C 0.55679(18) 0.8356(3) 0.58556(16)
C32_26 C 0.58556(16) 0.8356(3) 0.55679(18)
H8_26 H 0.8285 0.5496 0.5980
H9_26 H 0.5496 0.5980 0.8285
H10_26 H 0.5980 0.5496 0.8285
H11_26 H 0.5496 0.8285 0.5980
H12_26 H 0.5980 0.8285 0.5496
C33_26 C 0.57456(19) 0.57456(19) 0.8249(3)
C34_26 C 0.57456(19) 0.8249(3) 0.57456(19)
C35_26 C 0.5820(3) 0.5820(3) 0.8031(4)
C36_26 C 0.5820(3) 0.8031(4) 0.5820(3)
C37_26 C 0.5871(3) 0.5871(3) 0.7851(4)
C38_26 C 0.5871(3) 0.7851(4) 0.5871(3)
C39_26 C 0.5945(2) 0.5945(2) 0.7635(4)
C40_26 C 0.5945(2) 0.7635(4) 0.5945(2)
C41_26 C 0.7529(4) 0.5838(2) 0.6125(2)
C42_26 C 0.5838(2) 0.6125(2) 0.7529(4)
C43_26 C 0.6125(2) 0.5838(2) 0.7529(4)
C44_26 C 0.5838(2) 0.7529(4) 0.6125(2)
C45_26 C 0.6125(2) 0.7529(4) 0.5838(2)
H13_26 H 0.7601 0.5715 0.6199
H14_26 H 0.5715 0.6199 0.7601
H15_26 H 0.6199 0.5715 0.7601
H16_26 H 0.5715 0.7601 0.6199
H17_26 H 0.6199 0.7601 0.5715
C46_26 C 0.7318(4) 0.5911(2) 0.6198(2)
C47_26 C 0.6198(2) 0.5911(2) 0.7318(4)
C48_26 C 0.5911(2) 0.6198(2) 0.7318(4)
C49_26 C 0.5911(2) 0.7318(4) 0.6198(2)
C50_26 C 0.6198(2) 0.7318(4) 0.5911(2)
H18_26 H 0.7246 0.5837 0.6321
H19_26 H 0.5837 0.6321 0.7246
H20_26 H 0.6321 0.5837 0.7246
H21_26 H 0.5837 0.7246 0.6321
H22_26 H 0.6321 0.7246 0.5837
C51_26 C 0.6091(3) 0.6091(3) 0.7211(4)
C52_26 C 0.6091(3) 0.7211(4) 0.6091(3)
C53_26 C 0.6166(3) 0.6166(3) 0.6993(5)
C54_26 C 0.6166(3) 0.6993(5) 0.6166(3)
C55_26 C 0.6228(4) 0.6228(4) 0.6812(5)
C56_26 C 0.6228(4) 0.6812(5) 0.6228(4)
C57_26 C 0.6511(5) 0.6511(5) 0.6223(5)
C58_26 C 0.6223(5) 0.6511(5) 0.6511(5)
H23_26 H 0.6562 0.6562 0.6080
H24_26 H 0.6080 0.6562 0.6562
C59_26 C 0.6329(9) 0.6329(9) 0.6617(9)
C60_26 C 0.6329(9) 0.6617(9) 0.6329(9)
C1_27 C 0.1317(3) 0.5305(3) 0.5901(3)
C2_27 C 0.1332(3) 0.5603(2) 0.5603(2)
H1_27 H 0.1189 0.5551 0.5551
C3_27 C 0.1431(3) 0.54956(17) 0.57829(19)
C4_27 C 0.1644(3) 0.55679(18) 0.58556(16)
H2_27 H 0.1715 0.5496 0.5980
C5_27 C 0.1751(3) 0.57456(19) 0.57456(19)
C6_27 C 0.1969(4) 0.5820(3) 0.5820(3)
C7_27 C 0.2149(4) 0.5871(3) 0.5871(3)
C8_27 C 0.2365(4) 0.5945(2) 0.5945(2)
C9_27 C 0.2471(4) 0.5838(2) 0.6125(2)
H3_27 H 0.2399 0.5715 0.6199
C10_27 C 0.2682(4) 0.5911(2) 0.6198(2)
H4_27 H 0.2754 0.5837 0.6321
C11_27 C 0.2789(4) 0.6091(3) 0.6091(3)
C12_27 C 0.3007(5) 0.6166(3) 0.6166(3)
C13_27 C 0.3188(5) 0.6228(4) 0.6228(4)
C14_27 C 0.3489(5) 0.6511(5) 0.6223(5)
H5_27 H 0.3438 0.6562 0.6080
C15_27 C 0.3383(9) 0.6329(9) 0.6329(9)
O9_27 O 0.4768(2) 0.8861(2) 0.58177(19)
O10_27 O 0.41823(19) 0.8861(2) 0.5232(2)
O11_27 O 0.4768(2) 0.58177(19) 0.8861(2)
O12_27 O 0.41823(19) 0.5232(2) 0.8861(2)
O20_27 O 0.4771(2) 0.8591(2) 0.6080(2)
O21_27 O 0.3920(2) 0.8591(2) 0.5229(2)
O22_27 O 0.4771(2) 0.6080(2) 0.8591(2)
O23_27 O 0.3920(2) 0.5229(2) 0.8591(2)
C16_27 C 0.1317(3) 0.5901(3) 0.5305(3)
C17_27 C 0.4695(3) 0.8683(3) 0.5901(3)
C18_27 C 0.4099(3) 0.8683(3) 0.5305(3)
C19_27 C 0.4695(3) 0.5901(3) 0.8683(3)
C20_27 C 0.4099(3) 0.5305(3) 0.8683(3)
C21_27 C 0.4397(2) 0.8668(3) 0.5603(2)
C22_27 C 0.4397(2) 0.5603(2) 0.8668(3)
H6_27 H 0.4449 0.8811 0.5551
H7_27 H 0.4449 0.5551 0.8811
C23_27 C 0.1431(3) 0.57829(19) 0.54956(17)
C24_27 C 0.45044(17) 0.8569(3) 0.57829(19)
C25_27 C 0.42171(19) 0.8569(3) 0.54956(17)
C26_27 C 0.45044(17) 0.57829(19) 0.8569(3)
C27_27 C 0.42171(19) 0.54956(17) 0.8569(3)
C28_27 C 0.1644(3) 0.58556(16) 0.55679(18)
C29_27 C 0.41444(16) 0.8356(3) 0.55679(18)
C30_27 C 0.44321(18) 0.8356(3) 0.58556(16)
C31_27 C 0.44321(18) 0.58556(16) 0.8356(3)
C32_27 C 0.41444(16) 0.55679(18) 0.8356(3)
H8_27 H 0.1715 0.5980 0.5496
H9_27 H 0.4504 0.8285 0.5980
H10_27 H 0.4020 0.8285 0.5496
H11_27 H 0.4504 0.5980 0.8285
H12_27 H 0.4020 0.5496 0.8285
C33_27 C 0.42544(19) 0.8249(3) 0.57456(19)
C34_27 C 0.42544(19) 0.57456(19) 0.8249(3)
C35_27 C 0.4180(3) 0.8031(4) 0.5820(3)
C36_27 C 0.4180(3) 0.5820(3) 0.8031(4)
C37_27 C 0.4129(3) 0.7851(4) 0.5871(3)
C38_27 C 0.4129(3) 0.5871(3) 0.7851(4)
C39_27 C 0.4055(2) 0.7635(4) 0.5945(2)
C40_27 C 0.4055(2) 0.5945(2) 0.7635(4)
C41_27 C 0.2471(4) 0.6125(2) 0.5838(2)
C42_27 C 0.4162(2) 0.7529(4) 0.6125(2)
C43_27 C 0.3875(2) 0.7529(4) 0.5838(2)
C44_27 C 0.4162(2) 0.6125(2) 0.7529(4)
C45_27 C 0.3875(2) 0.5838(2) 0.7529(4)
H13_27 H 0.2399 0.6199 0.5715
H14_27 H 0.4285 0.7601 0.6199
H15_27 H 0.3801 0.7601 0.5715
H16_27 H 0.4285 0.6199 0.7601
H17_27 H 0.3801 0.5715 0.7601
C46_27 C 0.2682(4) 0.6198(2) 0.5911(2)
C47_27 C 0.3802(2) 0.7318(4) 0.5911(2)
C48_27 C 0.4089(2) 0.7318(4) 0.6198(2)
C49_27 C 0.4089(2) 0.6198(2) 0.7318(4)
C50_27 C 0.3802(2) 0.5911(2) 0.7318(4)
H18_27 H 0.2754 0.6321 0.5837
H19_27 H 0.4163 0.7246 0.6321
H20_27 H 0.3679 0.7246 0.5837
H21_27 H 0.4163 0.6321 0.7246
H22_27 H 0.3679 0.5837 0.7246
C51_27 C 0.3909(3) 0.7211(4) 0.6091(3)
C52_27 C 0.3909(3) 0.6091(3) 0.7211(4)
C53_27 C 0.3834(3) 0.6993(5) 0.6166(3)
C54_27 C 0.3834(3) 0.6166(3) 0.6993(5)
C55_27 C 0.3772(4) 0.6812(5) 0.6228(4)
C56_27 C 0.3772(4) 0.6228(4) 0.6812(5)
C57_27 C 0.3489(5) 0.6223(5) 0.6511(5)
C58_27 C 0.3777(5) 0.6511(5) 0.6511(5)
H23_27 H 0.3438 0.6080 0.6562
H24_27 H 0.3920 0.6562 0.6562
C59_27 C 0.3671(9) 0.6617(9) 0.6329(9)
C60_27 C 0.3671(9) 0.6329(9) 0.6617(9)
O3_25 O 0.9313(2) 0.4313(2) 0.5000
O4_37 O 0.8440(3) 0.3440(3) 0.5000
O5_9 O 0.8861(2) 0.41823(19) 0.4768(2)
O7_9 O 0.8861(2) 0.41823(19) 0.5232(2)
O16_15 O 0.8591(2) 0.3920(2) 0.4771(2)
O18_11 O 0.8591(2) 0.3920(2) 0.5229(2)
O2_15 O 0.1409(2) 0.4771(2) 0.3920(2)
O4_38 O 0.1560(3) 0.5000 0.3440(3)
C1_28 C 0.1317(3) 0.4695(3) 0.4099(3)
C2_28 C 0.1332(3) 0.4397(2) 0.4397(2)
H1_28 H 0.1189 0.4449 0.4449
C3_28 C 0.1431(3) 0.45044(17) 0.42171(19)
C4_28 C 0.1644(3) 0.44321(18) 0.41444(16)
H2_28 H 0.1715 0.4504 0.4020
C5_28 C 0.1751(3) 0.42544(19) 0.42544(19)
C6_28 C 0.1969(4) 0.4180(3) 0.4180(3)
C7_28 C 0.2149(4) 0.4129(3) 0.4129(3)
C8_28 C 0.2365(4) 0.4055(2) 0.4055(2)
C9_28 C 0.2471(4) 0.4162(2) 0.3875(2)
H3_28 H 0.2399 0.4285 0.3801
C10_28 C 0.2682(4) 0.4089(2) 0.3802(2)
H4_28 H 0.2754 0.4163 0.3679
C11_28 C 0.2789(4) 0.3909(3) 0.3909(3)
C12_28 C 0.3007(5) 0.3834(3) 0.3834(3)
C13_28 C 0.3188(5) 0.3772(4) 0.3772(4)
C14_28 C 0.3489(5) 0.3489(5) 0.3777(5)
H5_28 H 0.3438 0.3438 0.3920
C15_28 C 0.3383(9) 0.3671(9) 0.3671(9)
O9_28 O 0.4768(2) 0.1139(2) 0.41823(19)
O10_28 O 0.41823(19) 0.1139(2) 0.4768(2)
O11_28 O 0.4768(2) 0.41823(19) 0.1139(2)
O12_28 O 0.41823(19) 0.4768(2) 0.1139(2)
O19_9 O 0.1409(2) 0.3920(2) 0.4771(2)
O20_28 O 0.4771(2) 0.1409(2) 0.3920(2)
O21_28 O 0.3920(2) 0.1409(2) 0.4771(2)
O22_28 O 0.4771(2) 0.3920(2) 0.1409(2)
O23_28 O 0.3920(2) 0.4771(2) 0.1409(2)
C16_28 C 0.1317(3) 0.4099(3) 0.4695(3)
C17_28 C 0.4695(3) 0.1317(3) 0.4099(3)
C18_28 C 0.4099(3) 0.1317(3) 0.4695(3)
C19_28 C 0.4695(3) 0.4099(3) 0.1317(3)
C20_28 C 0.4099(3) 0.4695(3) 0.1317(3)
C21_28 C 0.4397(2) 0.1332(3) 0.4397(2)
C22_28 C 0.4397(2) 0.4397(2) 0.1332(3)
H6_28 H 0.4449 0.1189 0.4449
H7_28 H 0.4449 0.4449 0.1189
C23_28 C 0.1431(3) 0.42171(19) 0.45044(17)
C24_28 C 0.45044(17) 0.1431(3) 0.42171(19)
C25_28 C 0.42171(19) 0.1431(3) 0.45044(17)
C26_28 C 0.45044(17) 0.42171(19) 0.1431(3)
C27_28 C 0.42171(19) 0.45044(17) 0.1431(3)
C28_28 C 0.1644(3) 0.41444(16) 0.44321(18)
C29_28 C 0.41444(16) 0.1644(3) 0.44321(18)
C30_28 C 0.44321(18) 0.1644(3) 0.41444(16)
C31_28 C 0.44321(18) 0.41444(16) 0.1644(3)
C32_28 C 0.41444(16) 0.44321(18) 0.1644(3)
H8_28 H 0.1715 0.4020 0.4504
H9_28 H 0.4504 0.1715 0.4020
H10_28 H 0.4020 0.1715 0.4504
H11_28 H 0.4504 0.4020 0.1715
H12_28 H 0.4020 0.4504 0.1715
C33_28 C 0.42544(19) 0.1751(3) 0.42544(19)
C34_28 C 0.42544(19) 0.42544(19) 0.1751(3)
C35_28 C 0.4180(3) 0.1969(4) 0.4180(3)
C36_28 C 0.4180(3) 0.4180(3) 0.1969(4)
C37_28 C 0.4129(3) 0.2149(4) 0.4129(3)
C38_28 C 0.4129(3) 0.4129(3) 0.2149(4)
C39_28 C 0.4055(2) 0.2365(4) 0.4055(2)
C40_28 C 0.4055(2) 0.4055(2) 0.2365(4)
C41_28 C 0.2471(4) 0.3875(2) 0.4162(2)
C42_28 C 0.4162(2) 0.2471(4) 0.3875(2)
C43_28 C 0.3875(2) 0.2471(4) 0.4162(2)
C44_28 C 0.4162(2) 0.3875(2) 0.2471(4)
C45_28 C 0.3875(2) 0.4162(2) 0.2471(4)
H13_28 H 0.2399 0.3801 0.4285
H14_28 H 0.4285 0.2399 0.3801
H15_28 H 0.3801 0.2399 0.4285
H16_28 H 0.4285 0.3801 0.2399
H17_28 H 0.3801 0.4285 0.2399
C46_28 C 0.2682(4) 0.3802(2) 0.4089(2)
C47_28 C 0.3802(2) 0.2682(4) 0.4089(2)
C48_28 C 0.4089(2) 0.2682(4) 0.3802(2)
C49_28 C 0.4089(2) 0.3802(2) 0.2682(4)
C50_28 C 0.3802(2) 0.4089(2) 0.2682(4)
H18_28 H 0.2754 0.3679 0.4163
H19_28 H 0.4163 0.2754 0.3679
H20_28 H 0.3679 0.2754 0.4163
H21_28 H 0.4163 0.3679 0.2754
H22_28 H 0.3679 0.4163 0.2754
C51_28 C 0.3909(3) 0.2789(4) 0.3909(3)
C52_28 C 0.3909(3) 0.3909(3) 0.2789(4)
C53_28 C 0.3834(3) 0.3007(5) 0.3834(3)
C54_28 C 0.3834(3) 0.3834(3) 0.3007(5)
C55_28 C 0.3772(4) 0.3188(5) 0.3772(4)
C56_28 C 0.3772(4) 0.3772(4) 0.3188(5)
C57_28 C 0.3489(5) 0.3777(5) 0.3489(5)
C58_28 C 0.3777(5) 0.3489(5) 0.3489(5)
H23_28 H 0.3438 0.3920 0.3438
H24_28 H 0.3920 0.3438 0.3438
C59_28 C 0.3671(9) 0.3383(9) 0.3671(9)
C60_28 C 0.3671(9) 0.3671(9) 0.3383(9)
C1_29 C 0.8683(3) 0.4695(3) 0.5901(3)
C2_29 C 0.8668(3) 0.4397(2) 0.5603(2)
H1_29 H 0.8811 0.4449 0.5551
C3_29 C 0.8569(3) 0.45044(17) 0.57829(19)
C4_29 C 0.8356(3) 0.44321(18) 0.58556(16)
H2_29 H 0.8285 0.4504 0.5980
C5_29 C 0.8249(3) 0.42544(19) 0.57456(19)
C6_29 C 0.8031(4) 0.4180(3) 0.5820(3)
C7_29 C 0.7851(4) 0.4129(3) 0.5871(3)
C8_29 C 0.7635(4) 0.4055(2) 0.5945(2)
C9_29 C 0.7529(4) 0.4162(2) 0.6125(2)
H3_29 H 0.7601 0.4285 0.6199
C10_29 C 0.7318(4) 0.4089(2) 0.6198(2)
H4_29 H 0.7246 0.4163 0.6321
C11_29 C 0.7211(4) 0.3909(3) 0.6091(3)
C12_29 C 0.6993(5) 0.3834(3) 0.6166(3)
C13_29 C 0.6812(5) 0.3772(4) 0.6228(4)
C14_29 C 0.6511(5) 0.3489(5) 0.6223(5)
H5_29 H 0.6562 0.3438 0.6080
C15_29 C 0.6617(9) 0.3671(9) 0.6329(9)
O9_29 O 0.5232(2) 0.1139(2) 0.58177(19)
O10_29 O 0.58177(19) 0.1139(2) 0.5232(2)
O11_29 O 0.5232(2) 0.41823(19) 0.8861(2)
O12_29 O 0.58177(19) 0.4768(2) 0.8861(2)
O20_29 O 0.5229(2) 0.1409(2) 0.6080(2)
O21_29 O 0.6080(2) 0.1409(2) 0.5229(2)
O22_29 O 0.5229(2) 0.3920(2) 0.8591(2)
O23_29 O 0.6080(2) 0.4771(2) 0.8591(2)
C16_29 C 0.8683(3) 0.4099(3) 0.5305(3)
C17_29 C 0.5305(3) 0.1317(3) 0.5901(3)
C18_29 C 0.5901(3) 0.1317(3) 0.5305(3)
C19_29 C 0.5305(3) 0.4099(3) 0.8683(3)
C20_29 C 0.5901(3) 0.4695(3) 0.8683(3)
C21_29 C 0.5603(2) 0.1332(3) 0.5603(2)
C22_29 C 0.5603(2) 0.4397(2) 0.8668(3)
H6_29 H 0.5551 0.1189 0.5551
H7_29 H 0.5551 0.4449 0.8811
C23_29 C 0.8569(3) 0.42171(19) 0.54956(17)
C24_29 C 0.54956(17) 0.1431(3) 0.57829(19)
C25_29 C 0.57829(19) 0.1431(3) 0.54956(17)
C26_29 C 0.54956(17) 0.42171(19) 0.8569(3)
C27_29 C 0.57829(19) 0.45044(17) 0.8569(3)
C28_29 C 0.8356(3) 0.41444(16) 0.55679(18)
C29_29 C 0.58556(16) 0.1644(3) 0.55679(18)
C30_29 C 0.55679(18) 0.1644(3) 0.58556(16)
C31_29 C 0.55679(18) 0.41444(16) 0.8356(3)
C32_29 C 0.58556(16) 0.44321(18) 0.8356(3)
H8_29 H 0.8285 0.4020 0.5496
H9_29 H 0.5496 0.1715 0.5980
H10_29 H 0.5980 0.1715 0.5496
H11_29 H 0.5496 0.4020 0.8285
H12_29 H 0.5980 0.4504 0.8285
C33_29 C 0.57456(19) 0.1751(3) 0.57456(19)
C34_29 C 0.57456(19) 0.42544(19) 0.8249(3)
C35_29 C 0.5820(3) 0.1969(4) 0.5820(3)
C36_29 C 0.5820(3) 0.4180(3) 0.8031(4)
C37_29 C 0.5871(3) 0.2149(4) 0.5871(3)
C38_29 C 0.5871(3) 0.4129(3) 0.7851(4)
C39_29 C 0.5945(2) 0.2365(4) 0.5945(2)
C40_29 C 0.5945(2) 0.4055(2) 0.7635(4)
C41_29 C 0.7529(4) 0.3875(2) 0.5838(2)
C42_29 C 0.5838(2) 0.2471(4) 0.6125(2)
C43_29 C 0.6125(2) 0.2471(4) 0.5838(2)
C44_29 C 0.5838(2) 0.3875(2) 0.7529(4)
C45_29 C 0.6125(2) 0.4162(2) 0.7529(4)
H13_29 H 0.7601 0.3801 0.5715
H14_29 H 0.5715 0.2399 0.6199
H15_29 H 0.6199 0.2399 0.5715
H16_29 H 0.5715 0.3801 0.7601
H17_29 H 0.6199 0.4285 0.7601
C46_29 C 0.7318(4) 0.3802(2) 0.5911(2)
C47_29 C 0.6198(2) 0.2682(4) 0.5911(2)
C48_29 C 0.5911(2) 0.2682(4) 0.6198(2)
C49_29 C 0.5911(2) 0.3802(2) 0.7318(4)
C50_29 C 0.6198(2) 0.4089(2) 0.7318(4)
H18_29 H 0.7246 0.3679 0.5837
H19_29 H 0.5837 0.2754 0.6321
H20_29 H 0.6321 0.2754 0.5837
H21_29 H 0.5837 0.3679 0.7246
H22_29 H 0.6321 0.4163 0.7246
C51_29 C 0.6091(3) 0.2789(4) 0.6091(3)
C52_29 C 0.6091(3) 0.3909(3) 0.7211(4)
C53_29 C 0.6166(3) 0.3007(5) 0.6166(3)
C54_29 C 0.6166(3) 0.3834(3) 0.6993(5)
C55_29 C 0.6228(4) 0.3188(5) 0.6228(4)
C56_29 C 0.6228(4) 0.3772(4) 0.6812(5)
C57_29 C 0.6511(5) 0.3777(5) 0.6511(5)
C58_29 C 0.6223(5) 0.3489(5) 0.6511(5)
H23_29 H 0.6562 0.3920 0.6562
H24_29 H 0.6080 0.3438 0.6562
C59_29 C 0.6329(9) 0.3383(9) 0.6329(9)
C60_29 C 0.6329(9) 0.3671(9) 0.6617(9)
O2_16 O 0.8591(2) 0.5229(2) 0.3920(2)
O4_39 O 0.8440(3) 0.5000 0.3440(3)
C1_30 C 0.8683(3) 0.5305(3) 0.4099(3)
C2_30 C 0.8668(3) 0.5603(2) 0.4397(2)
H1_30 H 0.8811 0.5551 0.4449
C3_30 C 0.8569(3) 0.54956(17) 0.42171(19)
C4_30 C 0.8356(3) 0.55679(18) 0.41444(16)
H2_30 H 0.8285 0.5496 0.4020
C5_30 C 0.8249(3) 0.57456(19) 0.42544(19)
C6_30 C 0.8031(4) 0.5820(3) 0.4180(3)
C7_30 C 0.7851(4) 0.5871(3) 0.4129(3)
C8_30 C 0.7635(4) 0.5945(2) 0.4055(2)
C9_30 C 0.7529(4) 0.5838(2) 0.3875(2)
H3_30 H 0.7601 0.5715 0.3801
C10_30 C 0.7318(4) 0.5911(2) 0.3802(2)
H4_30 H 0.7246 0.5837 0.3679
C11_30 C 0.7211(4) 0.6091(3) 0.3909(3)
C12_30 C 0.6993(5) 0.6166(3) 0.3834(3)
C13_30 C 0.6812(5) 0.6228(4) 0.3772(4)
C14_30 C 0.6511(5) 0.6511(5) 0.3777(5)
H5_30 H 0.6562 0.6562 0.3920
C15_30 C 0.6617(9) 0.6329(9) 0.3671(9)
O9_30 O 0.5232(2) 0.8861(2) 0.41823(19)
O10_30 O 0.58177(19) 0.8861(2) 0.4768(2)
O11_30 O 0.5232(2) 0.58177(19) 0.1139(2)
O12_30 O 0.58177(19) 0.5232(2) 0.1139(2)
O17_12 O 0.8591(2) 0.4771(2) 0.3920(2)
O20_30 O 0.5229(2) 0.8591(2) 0.3920(2)
O21_30 O 0.6080(2) 0.8591(2) 0.4771(2)
O22_30 O 0.5229(2) 0.6080(2) 0.1409(2)
O23_30 O 0.6080(2) 0.5229(2) 0.1409(2)
C16_30 C 0.8683(3) 0.5901(3) 0.4695(3)
C17_30 C 0.5305(3) 0.8683(3) 0.4099(3)
C18_30 C 0.5901(3) 0.8683(3) 0.4695(3)
C19_30 C 0.5305(3) 0.5901(3) 0.1317(3)
C20_30 C 0.5901(3) 0.5305(3) 0.1317(3)
C21_30 C 0.5603(2) 0.8668(3) 0.4397(2)
C22_30 C 0.5603(2) 0.5603(2) 0.1332(3)
H6_30 H 0.5551 0.8811 0.4449
H7_30 H 0.5551 0.5551 0.1189
C23_30 C 0.8569(3) 0.57829(19) 0.45044(17)
C24_30 C 0.54956(17) 0.8569(3) 0.42171(19)
C25_30 C 0.57829(19) 0.8569(3) 0.45044(17)
C26_30 C 0.54956(17) 0.57829(19) 0.1431(3)
C27_30 C 0.57829(19) 0.54956(17) 0.1431(3)
C28_30 C 0.8356(3) 0.58556(16) 0.44321(18)
C29_30 C 0.58556(16) 0.8356(3) 0.44321(18)
C30_30 C 0.55679(18) 0.8356(3) 0.41444(16)
C31_30 C 0.55679(18) 0.58556(16) 0.1644(3)
C32_30 C 0.58556(16) 0.55679(18) 0.1644(3)
H8_30 H 0.8285 0.5980 0.4504
H9_30 H 0.5496 0.8285 0.4020
H10_30 H 0.5980 0.8285 0.4504
H11_30 H 0.5496 0.5980 0.1715
H12_30 H 0.5980 0.5496 0.1715
C33_30 C 0.57456(19) 0.8249(3) 0.42544(19)
C34_30 C 0.57456(19) 0.57456(19) 0.1751(3)
C35_30 C 0.5820(3) 0.8031(4) 0.4180(3)
C36_30 C 0.5820(3) 0.5820(3) 0.1969(4)
C37_30 C 0.5871(3) 0.7851(4) 0.4129(3)
C38_30 C 0.5871(3) 0.5871(3) 0.2149(4)
C39_30 C 0.5945(2) 0.7635(4) 0.4055(2)
C40_30 C 0.5945(2) 0.5945(2) 0.2365(4)
C41_30 C 0.7529(4) 0.6125(2) 0.4162(2)
C42_30 C 0.5838(2) 0.7529(4) 0.3875(2)
C43_30 C 0.6125(2) 0.7529(4) 0.4162(2)
C44_30 C 0.5838(2) 0.6125(2) 0.2471(4)
C45_30 C 0.6125(2) 0.5838(2) 0.2471(4)
H13_30 H 0.7601 0.6199 0.4285
H14_30 H 0.5715 0.7601 0.3801
H15_30 H 0.6199 0.7601 0.4285
H16_30 H 0.5715 0.6199 0.2399
H17_30 H 0.6199 0.5715 0.2399
C46_30 C 0.7318(4) 0.6198(2) 0.4089(2)
C47_30 C 0.6198(2) 0.7318(4) 0.4089(2)
C48_30 C 0.5911(2) 0.7318(4) 0.3802(2)
C49_30 C 0.5911(2) 0.6198(2) 0.2682(4)
C50_30 C 0.6198(2) 0.5911(2) 0.2682(4)
H18_30 H 0.7246 0.6321 0.4163
H19_30 H 0.5837 0.7246 0.3679
H20_30 H 0.6321 0.7246 0.4163
H21_30 H 0.5837 0.6321 0.2754
H22_30 H 0.6321 0.5837 0.2754
C51_30 C 0.6091(3) 0.7211(4) 0.3909(3)
C52_30 C 0.6091(3) 0.6091(3) 0.2789(4)
C53_30 C 0.6166(3) 0.6993(5) 0.3834(3)
C54_30 C 0.6166(3) 0.6166(3) 0.3007(5)
C55_30 C 0.6228(4) 0.6812(5) 0.3772(4)
C56_30 C 0.6228(4) 0.6228(4) 0.3188(5)
C57_30 C 0.6511(5) 0.6223(5) 0.3489(5)
C58_30 C 0.6223(5) 0.6511(5) 0.3489(5)
H23_30 H 0.6562 0.6080 0.3438
H24_30 H 0.6080 0.6562 0.3438
C59_30 C 0.6329(9) 0.6617(9) 0.3671(9)
C60_30 C 0.6329(9) 0.6329(9) 0.3383(9)
O4_40 O 0.1560(3) 0.3440(3) 0.5000
O16_16 O 0.1409(2) 0.3920(2) 0.5229(2)
C1_31 C 0.1317(3) 0.4099(3) 0.5305(3)
C2_31 C 0.1332(3) 0.4397(2) 0.5603(2)
H1_31 H 0.1189 0.4449 0.5551
C3_31 C 0.1431(3) 0.42171(19) 0.54956(17)
C4_31 C 0.1644(3) 0.41444(16) 0.55679(18)
H2_31 H 0.1715 0.4020 0.5496
C5_31 C 0.1751(3) 0.42544(19) 0.57456(19)
C6_31 C 0.1969(4) 0.4180(3) 0.5820(3)
C7_31 C 0.2149(4) 0.4129(3) 0.5871(3)
C8_31 C 0.2365(4) 0.4055(2) 0.5945(2)
C9_31 C 0.2471(4) 0.3875(2) 0.5838(2)
H3_31 H 0.2399 0.3801 0.5715
C10_31 C 0.2682(4) 0.3802(2) 0.5911(2)
H4_31 H 0.2754 0.3679 0.5837
C11_31 C 0.2789(4) 0.3909(3) 0.6091(3)
C12_31 C 0.3007(5) 0.3834(3) 0.6166(3)
C13_31 C 0.3188(5) 0.3772(4) 0.6228(4)
C14_31 C 0.3489(5) 0.3777(5) 0.6511(5)
H5_31 H 0.3438 0.3920 0.6562
C15_31 C 0.3383(9) 0.3671(9) 0.6329(9)
O9_31 O 0.4768(2) 0.41823(19) 0.8861(2)
O10_31 O 0.41823(19) 0.4768(2) 0.8861(2)
O11_31 O 0.4768(2) 0.1139(2) 0.58177(19)
O12_31 O 0.41823(19) 0.1139(2) 0.5232(2)
O20_31 O 0.4771(2) 0.3920(2) 0.8591(2)
O21_31 O 0.3920(2) 0.4771(2) 0.8591(2)
O22_31 O 0.4771(2) 0.1409(2) 0.6080(2)
O23_31 O 0.3920(2) 0.1409(2) 0.5229(2)
C16_31 C 0.1317(3) 0.4695(3) 0.5901(3)
C17_31 C 0.4695(3) 0.4099(3) 0.8683(3)
C18_31 C 0.4099(3) 0.4695(3) 0.8683(3)
C19_31 C 0.4695(3) 0.1317(3) 0.5901(3)
C20_31 C 0.4099(3) 0.1317(3) 0.5305(3)
C21_31 C 0.4397(2) 0.4397(2) 0.8668(3)
C22_31 C 0.4397(2) 0.1332(3) 0.5603(2)
H6_31 H 0.4449 0.4449 0.8811
H7_31 H 0.4449 0.1189 0.5551
C23_31 C 0.1431(3) 0.45044(17) 0.57829(19)
C24_31 C 0.45044(17) 0.42171(19) 0.8569(3)
C25_31 C 0.42171(19) 0.45044(17) 0.8569(3)
C26_31 C 0.45044(17) 0.1431(3) 0.57829(19)
C27_31 C 0.42171(19) 0.1431(3) 0.54956(17)
C28_31 C 0.1644(3) 0.44321(18) 0.58556(16)
C29_31 C 0.41444(16) 0.44321(18) 0.8356(3)
C30_31 C 0.44321(18) 0.41444(16) 0.8356(3)
C31_31 C 0.44321(18) 0.1644(3) 0.58556(16)
C32_31 C 0.41444(16) 0.1644(3) 0.55679(18)
H8_31 H 0.1715 0.4504 0.5980
H9_31 H 0.4504 0.4020 0.8285
H10_31 H 0.4020 0.4504 0.8285
H11_31 H 0.4504 0.1715 0.5980
H12_31 H 0.4020 0.1715 0.5496
C33_31 C 0.42544(19) 0.42544(19) 0.8249(3)
C34_31 C 0.42544(19) 0.1751(3) 0.57456(19)
C35_31 C 0.4180(3) 0.4180(3) 0.8031(4)
C36_31 C 0.4180(3) 0.1969(4) 0.5820(3)
C37_31 C 0.4129(3) 0.4129(3) 0.7851(4)
C38_31 C 0.4129(3) 0.2149(4) 0.5871(3)
C39_31 C 0.4055(2) 0.4055(2) 0.7635(4)
C40_31 C 0.4055(2) 0.2365(4) 0.5945(2)
C41_31 C 0.2471(4) 0.4162(2) 0.6125(2)
C42_31 C 0.4162(2) 0.3875(2) 0.7529(4)
C43_31 C 0.3875(2) 0.4162(2) 0.7529(4)
C44_31 C 0.4162(2) 0.2471(4) 0.6125(2)
C45_31 C 0.3875(2) 0.2471(4) 0.5838(2)
H13_31 H 0.2399 0.4285 0.6199
H14_31 H 0.4285 0.3801 0.7601
H15_31 H 0.3801 0.4285 0.7601
H16_31 H 0.4285 0.2399 0.6199
H17_31 H 0.3801 0.2399 0.5715
C46_31 C 0.2682(4) 0.4089(2) 0.6198(2)
C47_31 C 0.3802(2) 0.4089(2) 0.7318(4)
C48_31 C 0.4089(2) 0.3802(2) 0.7318(4)
C49_31 C 0.4089(2) 0.2682(4) 0.6198(2)
C50_31 C 0.3802(2) 0.2682(4) 0.5911(2)
H18_31 H 0.2754 0.4163 0.6321
H19_31 H 0.4163 0.3679 0.7246
H20_31 H 0.3679 0.4163 0.7246
H21_31 H 0.4163 0.2754 0.6321
H22_31 H 0.3679 0.2754 0.5837
C51_31 C 0.3909(3) 0.3909(3) 0.7211(4)
C52_31 C 0.3909(3) 0.2789(4) 0.6091(3)
C53_31 C 0.3834(3) 0.3834(3) 0.6993(5)
C54_31 C 0.3834(3) 0.3007(5) 0.6166(3)
C55_31 C 0.3772(4) 0.3772(4) 0.6812(5)
C56_31 C 0.3772(4) 0.3188(5) 0.6228(4)
C57_31 C 0.3489(5) 0.3489(5) 0.6223(5)
C58_31 C 0.3777(5) 0.3489(5) 0.6511(5)
H23_31 H 0.3438 0.3438 0.6080
H24_31 H 0.3920 0.3438 0.6562
C59_31 C 0.3671(9) 0.3671(9) 0.6617(9)
C60_31 C 0.3671(9) 0.3383(9) 0.6329(9)
C1_32 C 0.8683(3) 0.4099(3) 0.4695(3)
C2_32 C 0.8668(3) 0.4397(2) 0.4397(2)
H1_32 H 0.8811 0.4449 0.4449
C3_32 C 0.8569(3) 0.42171(19) 0.45044(17)
C4_32 C 0.8356(3) 0.41444(16) 0.44321(18)
H2_32 H 0.8285 0.4020 0.4504
C5_32 C 0.8249(3) 0.42544(19) 0.42544(19)
C6_32 C 0.8031(4) 0.4180(3) 0.4180(3)
C7_32 C 0.7851(4) 0.4129(3) 0.4129(3)
C8_32 C 0.7635(4) 0.4055(2) 0.4055(2)
C9_32 C 0.7529(4) 0.3875(2) 0.4162(2)
H3_32 H 0.7601 0.3801 0.4285
C10_32 C 0.7318(4) 0.3802(2) 0.4089(2)
H4_32 H 0.7246 0.3679 0.4163
C11_32 C 0.7211(4) 0.3909(3) 0.3909(3)
C12_32 C 0.6993(5) 0.3834(3) 0.3834(3)
C13_32 C 0.6812(5) 0.3772(4) 0.3772(4)
C14_32 C 0.6511(5) 0.3777(5) 0.3489(5)
H5_32 H 0.6562 0.3920 0.3438
C15_32 C 0.6617(9) 0.3671(9) 0.3671(9)
O9_32 O 0.5232(2) 0.41823(19) 0.1139(2)
O10_32 O 0.58177(19) 0.4768(2) 0.1139(2)
O11_32 O 0.5232(2) 0.1139(2) 0.41823(19)
O12_32 O 0.58177(19) 0.1139(2) 0.4768(2)
O20_32 O 0.5229(2) 0.3920(2) 0.1409(2)
O21_32 O 0.6080(2) 0.4771(2) 0.1409(2)
O22_32 O 0.5229(2) 0.1409(2) 0.3920(2)
O23_32 O 0.6080(2) 0.1409(2) 0.4771(2)
C16_32 C 0.8683(3) 0.4695(3) 0.4099(3)
C17_32 C 0.5305(3) 0.4099(3) 0.1317(3)
C18_32 C 0.5901(3) 0.4695(3) 0.1317(3)
C19_32 C 0.5305(3) 0.1317(3) 0.4099(3)
C20_32 C 0.5901(3) 0.1317(3) 0.4695(3)
C21_32 C 0.5603(2) 0.4397(2) 0.1332(3)
C22_32 C 0.5603(2) 0.1332(3) 0.4397(2)
H6_32 H 0.5551 0.4449 0.1189
H7_32 H 0.5551 0.1189 0.4449
C23_32 C 0.8569(3) 0.45044(17) 0.42171(19)
C24_32 C 0.54956(17) 0.42171(19) 0.1431(3)
C25_32 C 0.57829(19) 0.45044(17) 0.1431(3)
C26_32 C 0.54956(17) 0.1431(3) 0.42171(19)
C27_32 C 0.57829(19) 0.1431(3) 0.45044(17)
C28_32 C 0.8356(3) 0.44321(18) 0.41444(16)
C29_32 C 0.58556(16) 0.44321(18) 0.1644(3)
C30_32 C 0.55679(18) 0.41444(16) 0.1644(3)
C31_32 C 0.55679(18) 0.1644(3) 0.41444(16)
C32_32 C 0.58556(16) 0.1644(3) 0.44321(18)
H8_32 H 0.8285 0.4504 0.4020
H9_32 H 0.5496 0.4020 0.1715
H10_32 H 0.5980 0.4504 0.1715
H11_32 H 0.5496 0.1715 0.4020
H12_32 H 0.5980 0.1715 0.4504
C33_32 C 0.57456(19) 0.42544(19) 0.1751(3)
C34_32 C 0.57456(19) 0.1751(3) 0.42544(19)
C35_32 C 0.5820(3) 0.4180(3) 0.1969(4)
C36_32 C 0.5820(3) 0.1969(4) 0.4180(3)
C37_32 C 0.5871(3) 0.4129(3) 0.2149(4)
C38_32 C 0.5871(3) 0.2149(4) 0.4129(3)
C39_32 C 0.5945(2) 0.4055(2) 0.2365(4)
C40_32 C 0.5945(2) 0.2365(4) 0.4055(2)
C41_32 C 0.7529(4) 0.4162(2) 0.3875(2)
C42_32 C 0.5838(2) 0.3875(2) 0.2471(4)
C43_32 C 0.6125(2) 0.4162(2) 0.2471(4)
C44_32 C 0.5838(2) 0.2471(4) 0.3875(2)
C45_32 C 0.6125(2) 0.2471(4) 0.4162(2)
H13_32 H 0.7601 0.4285 0.3801
H14_32 H 0.5715 0.3801 0.2399
H15_32 H 0.6199 0.4285 0.2399
H16_32 H 0.5715 0.2399 0.3801
H17_32 H 0.6199 0.2399 0.4285
C46_32 C 0.7318(4) 0.4089(2) 0.3802(2)
C47_32 C 0.6198(2) 0.4089(2) 0.2682(4)
C48_32 C 0.5911(2) 0.3802(2) 0.2682(4)
C49_32 C 0.5911(2) 0.2682(4) 0.3802(2)
C50_32 C 0.6198(2) 0.2682(4) 0.4089(2)
H18_32 H 0.7246 0.4163 0.3679
H19_32 H 0.5837 0.3679 0.2754
H20_32 H 0.6321 0.4163 0.2754
H21_32 H 0.5837 0.2754 0.3679
H22_32 H 0.6321 0.2754 0.4163
C51_32 C 0.6091(3) 0.3909(3) 0.2789(4)
C52_32 C 0.6091(3) 0.2789(4) 0.3909(3)
C53_32 C 0.6166(3) 0.3834(3) 0.3007(5)
C54_32 C 0.6166(3) 0.3007(5) 0.3834(3)
C55_32 C 0.6228(4) 0.3772(4) 0.3188(5)
C56_32 C 0.6228(4) 0.3188(5) 0.3772(4)
C57_32 C 0.6511(5) 0.3489(5) 0.3777(5)
C58_32 C 0.6223(5) 0.3489(5) 0.3489(5)
H23_32 H 0.6562 0.3438 0.3920
H24_32 H 0.6080 0.3438 0.3438
C59_32 C 0.6329(9) 0.3671(9) 0.3383(9)
C60_32 C 0.6329(9) 0.3383(9) 0.3671(9)
O3_26 O 0.5000 0.0687(2) 0.5687(2)
O4_41 O 0.5000 0.1560(3) 0.6560(3)
O24_16 O 0.5687(2) 0.0000 0.5687(2)
O24_17 O 0.5687(2) 1.0000 0.5687(2)
O3_27 O 0.4313(2) 0.0000 0.5687(2)
O4_42 O 0.3440(3) -0.0000 0.6560(3)
O3_28 O 0.4313(2) 1.0000 0.5687(2)
O4_43 O 0.3440(3) 1.0000 0.6560(3)
O3_29 O 0.5000 0.9313(2) 0.5687(2)
O4_44 O 0.5000 0.8440(3) 0.6560(3)
O4_45 O 0.6560(3) -0.0000 0.6560(3)
O4_46 O 0.6560(3) 1.0000 0.6560(3)
O24_18 O 0.5687(2) 0.9313(2) 0.5000
O24_19 O 0.5687(2) 0.0000 0.4313(2)
O3_30 O 0.5000 0.9313(2) 0.4313(2)
O4_47 O 0.5000 0.8440(3) 0.3440(3)
O24_20 O 0.5687(2) 1.0000 0.4313(2)
O3_31 O 0.5000 0.0687(2) 0.4313(2)
O4_48 O 0.5000 0.1560(3) 0.3440(3)
O24_21 O 0.5687(2) 0.0687(2) 0.5000
O4_49 O 0.6560(3) 0.1560(3) 0.5000
O24_22 O 0.4313(2) 0.0000 0.4313(2)
O24_23 O 0.4313(2) 1.0000 0.4313(2)
O3_32 O 0.4313(2) 0.0687(2) 0.5000
O4_50 O 0.3440(3) 0.1560(3) 0.5000
O3_33 O 0.4313(2) 0.9313(2) 0.5000
O4_51 O 0.3440(3) 0.8440(3) 0.5000
O4_52 O 0.6560(3) -0.0000 0.3440(3)
O4_53 O 0.6560(3) 1.0000 0.3440(3)
O4_54 O 0.3440(3) 0.0000 0.3440(3)
O4_55 O 0.3440(3) 1.0000 0.3440(3)
O4_56 O 0.6560(3) 0.8440(3) 0.5000
O3_34 O 0.5000 0.5687(2) 0.0687(2)
O4_57 O 0.5000 0.6560(3) 0.1560(3)
O24_24 O 0.5687(2) 0.5000 0.0687(2)
O3_35 O 0.4313(2) 0.5000 0.0687(2)
O4_58 O 0.3440(3) 0.5000 0.1560(3)
O3_36 O 0.5000 0.4313(2) 0.0687(2)
O4_59 O 0.5000 0.3440(3) 0.1560(3)
O4_60 O 0.6560(3) 0.5000 0.1560(3)
O24_25 O 0.5687(2) 0.4313(2) -0.0000
O24_26 O 0.5687(2) 0.4313(2) 1.0000
O3_37 O 0.5000 0.4313(2) 0.9313(2)
O4_61 O 0.5000 0.3440(3) 0.8440(3)
O24_27 O 0.5687(2) 0.5000 0.9313(2)
O24_28 O 0.5687(2) 0.5687(2) 0.0000
O3_38 O 0.5000 0.5687(2) 0.9313(2)
O4_62 O 0.5000 0.6560(3) 0.8440(3)
O24_29 O 0.5687(2) 0.5687(2) 1.0000
O4_63 O 0.6560(3) 0.6560(3) -0.0000
O4_64 O 0.6560(3) 0.6560(3) 1.0000
O24_30 O 0.4313(2) 0.5000 0.9313(2)
O3_39 O 0.4313(2) 0.5687(2) -0.0000
O4_65 O 0.3440(3) 0.6560(3) 0.0000
O3_40 O 0.4313(2) 0.5687(2) 1.0000
O4_66 O 0.3440(3) 0.6560(3) 1.0000
O3_41 O 0.4313(2) 0.4313(2) -0.0000
O4_67 O 0.3440(3) 0.3440(3) 0.0000
O3_42 O 0.4313(2) 0.4313(2) 1.0000
O4_68 O 0.3440(3) 0.3440(3) 1.0000
O4_69 O 0.6560(3) 0.5000 0.8440(3)
O4_70 O 0.3440(3) 0.5000 0.8440(3)
O4_71 O 0.6560(3) 0.3440(3) -0.0000
O4_72 O 0.6560(3) 0.3440(3) 1.0000
loop_
_geom_bond_atom_site_label_1
_geom_bond_atom_site_label_2
_geom_bond_site_symmetry_1
_geom_bond_site_symmetry_2
Cu1 Cu2 1_555 1_555
Cu2 O2 1_555 1_555
O1 Cu1 1_555 1_555
O2 C1 1_555 1_555
O3 Cu1 1_555 1_555
O4 Cu2 1_555 1_555
C1 O1 1_555 1_555
C2 H1 1_555 1_555
C3 C1 1_555 1_555
C4 C3 1_555 1_555
H2 C4 1_555 1_555
C5 C4 1_555 1_555
C6 C5 1_555 1_555
C7 C6 1_555 1_555
C8 C7 1_555 1_555
C9 C8 1_555 1_555
H3 C9 1_555 1_555
C10 C9 1_555 1_555
H4 C10 1_555 1_555
C11 C10 1_555 1_555
C12 C11 1_555 1_555
C13 C12 1_555 1_555
C14 H5 1_555 1_555
C15 C13 1_555 1_555
Cu3 Cu8 1_555 1_555
Cu4 O9 1_555 1_555
Cu5 O10 1_555 1_555
Cu6 O11 1_555 1_555
Cu7 O12 1_555 1_555
Cu8 O19 1_555 1_555
Cu9 O20 1_555 1_555
Cu10 O21 1_555 1_555
Cu11 O22 1_555 1_555
Cu12 O23 1_555 1_555
O7 Cu1 1_555 1_555
O8 Cu3 1_555 1_555
O9 C17 1_555 1_555
O10 C18 1_555 1_555
O11 C19 1_555 1_555
O12 C20 1_555 1_555
O14 Cu3 1_555 1_555
O18 Cu2 1_555 1_555
O19 C16 1_555 1_555
O20 C17 1_555 1_555
O21 C18 1_555 1_555
O22 C19 1_555 1_555
O23 C20 1_555 1_555
O24 Cu3 1_555 1_555
C16 O8 1_555 1_555
C17 C24 1_555 1_555
C18 C25 1_555 1_555
C19 C26 1_555 1_555
C20 C27 1_555 1_555
C21 H6 1_555 1_555
C22 H7 1_555 1_555
C23 C2 1_555 1_555
C24 C21 1_555 1_555
C25 C21 1_555 1_555
C26 C22 1_555 1_555
C27 C22 1_555 1_555
C28 C5 1_555 1_555
C29 C25 1_555 1_555
C30 C24 1_555 1_555
C31 C26 1_555 1_555
C32 C27 1_555 1_555
H8 C28 1_555 1_555
H9 C30 1_555 1_555
H10 C29 1_555 1_555
H11 C31 1_555 1_555
H12 C32 1_555 1_555
C33 C29 1_555 1_555
C34 C31 1_555 1_555
C35 C33 1_555 1_555
C36 C34 1_555 1_555
C37 C35 1_555 1_555
C38 C36 1_555 1_555
C39 C37 1_555 1_555
C40 C38 1_555 1_555
C41 C8 1_555 1_555
C42 C39 1_555 1_555
C43 C39 1_555 1_555
C44 C40 1_555 1_555
C45 C40 1_555 1_555
H13 C41 1_555 1_555
H14 C42 1_555 1_555
H15 C43 1_555 1_555
H16 C44 1_555 1_555
H17 C45 1_555 1_555
C46 C11 1_555 1_555
C47 C43 1_555 1_555
C48 C42 1_555 1_555
C49 C44 1_555 1_555
C50 C45 1_555 1_555
H18 C46 1_555 1_555
H19 C48 1_555 1_555
H20 C47 1_555 1_555
H21 C49 1_555 1_555
H22 C50 1_555 1_555
C51 C47 1_555 1_555
C52 C49 1_555 1_555
C53 C51 1_555 1_555
C54 C52 1_555 1_555
C55 C53 1_555 1_555
C56 C54 1_555 1_555
C57 C15 1_555 1_555
C58 H24 1_555 1_555
H23 C57 1_555 1_555
C59 C14 1_555 1_555
C60 C56 1_555 1_555
C2 C3 1_555 1_555
C14 C15 1_555 1_555
C16 C23 1_555 1_555
C23 C28 1_555 1_555
C30 C33 1_555 1_555
C32 C34 1_555 1_555
C41 C46 1_555 1_555
C48 C51 1_555 1_555
C50 C52 1_555 1_555
C55 C59 1_555 1_555
C57 C60 1_555 1_555
C58 C59 1_555 1_555
C58 C60 1_555 1_555
Cu3_2 Cu8_2 1_555 1_555
O13 Cu3_2 1_555 1_555
O15 Cu3_2 1_555 1_555
O24_2 Cu3_2 1_555 1_555
Cu1_2 Cu2_2 1_555 1_555
O3_2 Cu1_2 1_555 1_555
O4_2 Cu2_2 1_555 1_555
O5 Cu1_2 1_555 1_555
O6 Cu1_2 1_555 1_555
O16 Cu2_2 1_555 1_555
O17 Cu2_2 1_555 1_555
Cu1_3 Cu2_3 1_555 1_555
Cu2_3 O2_2 1_555 1_555
O1_2 Cu1_3 1_555 1_555
O2_2 C1_2 1_555 1_555
O3_3 Cu1_3 1_555 1_555
O4_3 Cu2_3 1_555 1_555
C1_2 O1_2 1_555 1_555
C2_2 H1_2 1_555 1_555
C3_2 C1_2 1_555 1_555
C4_2 C3_2 1_555 1_555
H2_2 C4_2 1_555 1_555
C5_2 C4_2 1_555 1_555
C6_2 C5_2 1_555 1_555
C7_2 C6_2 1_555 1_555
C8_2 C7_2 1_555 1_555
C9_2 C8_2 1_555 1_555
H3_2 C9_2 1_555 1_555
C10_2 C9_2 1_555 1_555
H4_2 C10_2 1_555 1_555
C11_2 C10_2 1_555 1_555
C12_2 C11_2 1_555 1_555
C13_2 C12_2 1_555 1_555
C14_2 H5_2 1_555 1_555
C15_2 C13_2 1_555 1_555
Cu4_2 O9_2 1_555 1_555
Cu7_2 O10_2 1_555 1_555
Cu6_2 O11_2 1_555 1_555
Cu7_3 O12_2 1_555 1_555
Cu9_2 O20_2 1_555 1_555
Cu12_2 O21_2 1_555 1_555
Cu11_2 O22_2 1_555 1_555
Cu12_3 O23_2 1_555 1_555
O7_2 Cu1_3 1_555 1_555
O9_2 C17_2 1_555 1_555
O10_2 C18_2 1_555 1_555
O11_2 C19_2 1_555 1_555
O12_2 C20_2 1_555 1_555
O18_2 Cu2_3 1_555 1_555
O17 C16_2 1_555 1_555
O20_2 C17_2 1_555 1_555
O21_2 C18_2 1_555 1_555
O22_2 C19_2 1_555 1_555
O23_2 C20_2 1_555 1_555
C16_2 O6 1_555 1_555
C17_2 C24_2 1_555 1_555
C18_2 C25_2 1_555 1_555
C19_2 C26_2 1_555 1_555
C20_2 C27_2 1_555 1_555
C21_2 H6_2 1_555 1_555
C22_2 H7_2 1_555 1_555
C23_2 C2_2 1_555 1_555
C24_2 C21_2 1_555 1_555
C25_2 C21_2 1_555 1_555
C26_2 C22_2 1_555 1_555
C27_2 C22_2 1_555 1_555
C28_2 C5_2 1_555 1_555
C29_2 C25_2 1_555 1_555
C30_2 C24_2 1_555 1_555
C31_2 C26_2 1_555 1_555
C32_2 C27_2 1_555 1_555
H8_2 C28_2 1_555 1_555
H9_2 C30_2 1_555 1_555
H10_2 C29_2 1_555 1_555
H11_2 C31_2 1_555 1_555
H12_2 C32_2 1_555 1_555
C33_2 C29_2 1_555 1_555
C34_2 C31_2 1_555 1_555
C35_2 C33_2 1_555 1_555
C36_2 C34_2 1_555 1_555
C37_2 C35_2 1_555 1_555
C38_2 C36_2 1_555 1_555
C39_2 C37_2 1_555 1_555
C40_2 C38_2 1_555 1_555
C41_2 C8_2 1_555 1_555
C42_2 C39_2 1_555 1_555
C43_2 C39_2 1_555 1_555
C44_2 C40_2 1_555 1_555
C45_2 C40_2 1_555 1_555
H13_2 C41_2 1_555 1_555
H14_2 C42_2 1_555 1_555
H15_2 C43_2 1_555 1_555
H16_2 C44_2 1_555 1_555
H17_2 C45_2 1_555 1_555
C46_2 C11_2 1_555 1_555
C47_2 C43_2 1_555 1_555
C48_2 C42_2 1_555 1_555
C49_2 C44_2 1_555 1_555
C50_2 C45_2 1_555 1_555
H18_2 C46_2 1_555 1_555
H19_2 C48_2 1_555 1_555
H20_2 C47_2 1_555 1_555
H21_2 C49_2 1_555 1_555
H22_2 C50_2 1_555 1_555
C51_2 C47_2 1_555 1_555
C52_2 C49_2 1_555 1_555
C53_2 C51_2 1_555 1_555
C54_2 C52_2 1_555 1_555
C55_2 C53_2 1_555 1_555
C56_2 C54_2 1_555 1_555
C57_2 C15_2 1_555 1_555
C58_2 H24_2 1_555 1_555
H23_2 C57_2 1_555 1_555
C59_2 C14_2 1_555 1_555
C60_2 C56_2 1_555 1_555
C2_2 C3_2 1_555 1_555
C14_2 C15_2 1_555 1_555
C16_2 C23_2 1_555 1_555
C23_2 C28_2 1_555 1_555
C30_2 C33_2 1_555 1_555
C32_2 C34_2 1_555 1_555
C41_2 C46_2 1_555 1_555
C48_2 C51_2 1_555 1_555
C50_2 C52_2 1_555 1_555
C55_2 C59_2 1_555 1_555
C57_2 C60_2 1_555 1_555
C58_2 C59_2 1_555 1_555
C58_2 C60_2 1_555 1_555
Cu1_4 Cu2_4 1_555 1_555
O3_4 Cu1_4 1_555 1_555
O4_4 Cu2_4 1_555 1_555
O5_2 Cu1_4 1_555 1_555
O6_2 Cu1_4 1_555 1_555
O16_2 Cu2_4 1_555 1_555
O17_2 Cu2_4 1_555 1_555
Cu1_5 Cu2_5 1_555 1_555
O3_5 Cu1_5 1_555 1_555
O4_5 Cu2_5 1_555 1_555
O5_3 Cu1_5 1_555 1_555
O6_3 Cu1_5 1_555 1_555
O16_3 Cu2_5 1_555 1_555
O17_3 Cu2_5 1_555 1_555
Cu1_6 Cu2_6 1_555 1_555
Cu2_6 O2_3 1_555 1_555
O1_3 Cu1_6 1_555 1_555
O2_3 C1_3 1_555 1_555
O3_6 Cu1_6 1_555 1_555
O4_6 Cu2_6 1_555 1_555
C1_3 O1_3 1_555 1_555
C2_3 H1_3 1_555 1_555
C3_3 C1_3 1_555 1_555
C4_3 C3_3 1_555 1_555
H2_3 C4_3 1_555 1_555
C5_3 C4_3 1_555 1_555
C6_3 C5_3 1_555 1_555
C7_3 C6_3 1_555 1_555
C8_3 C7_3 1_555 1_555
C9_3 C8_3 1_555 1_555
H3_3 C9_3 1_555 1_555
C10_3 C9_3 1_555 1_555
H4_3 C10_3 1_555 1_555
C11_3 C10_3 1_555 1_555
C12_3 C11_3 1_555 1_555
C13_3 C12_3 1_555 1_555
C14_3 H5_3 1_555 1_555
C15_3 C13_3 1_555 1_555
Cu4_3 O9_3 1_555 1_555
Cu7_4 O10_3 1_555 1_555
Cu6_3 O11_3 1_555 1_555
Cu7_6 O12_3 1_555 1_555
Cu9_3 O20_3 1_555 1_555
Cu12_4 O21_3 1_555 1_555
Cu11_3 O22_3 1_555 1_555
Cu12_6 O23_3 1_555 1_555
O7_3 Cu1_6 1_555 1_555
O9_3 C17_3 1_555 1_555
O10_3 C18_3 1_555 1_555
O11_3 C19_3 1_555 1_555
O12_3 C20_3 1_555 1_555
O18_3 Cu2_6 1_555 1_555
O17_2 C16_3 1_555 1_555
O20_3 C17_3 1_555 1_555
O21_3 C18_3 1_555 1_555
O22_3 C19_3 1_555 1_555
O23_3 C20_3 1_555 1_555
C16_3 O6_2 1_555 1_555
C17_3 C24_3 1_555 1_555
C18_3 C25_3 1_555 1_555
C19_3 C26_3 1_555 1_555
C20_3 C27_3 1_555 1_555
C21_3 H6_3 1_555 1_555
C22_3 H7_3 1_555 1_555
C23_3 C2_3 1_555 1_555
C24_3 C21_3 1_555 1_555
C25_3 C21_3 1_555 1_555
C26_3 C22_3 1_555 1_555
C27_3 C22_3 1_555 1_555
C28_3 C5_3 1_555 1_555
C29_3 C25_3 1_555 1_555
C30_3 C24_3 1_555 1_555
C31_3 C26_3 1_555 1_555
C32_3 C27_3 1_555 1_555
H8_3 C28_3 1_555 1_555
H9_3 C30_3 1_555 1_555
H10_3 C29_3 1_555 1_555
H11_3 C31_3 1_555 1_555
H12_3 C32_3 1_555 1_555
C33_3 C29_3 1_555 1_555
C34_3 C31_3 1_555 1_555
C35_3 C33_3 1_555 1_555
C36_3 C34_3 1_555 1_555
C37_3 C35_3 1_555 1_555
C38_3 C36_3 1_555 1_555
C39_3 C37_3 1_555 1_555
C40_3 C38_3 1_555 1_555
C41_3 C8_3 1_555 1_555
C42_3 C39_3 1_555 1_555
C43_3 C39_3 1_555 1_555
C44_3 C40_3 1_555 1_555
C45_3 C40_3 1_555 1_555
H13_3 C41_3 1_555 1_555
H14_3 C42_3 1_555 1_555
H15_3 C43_3 1_555 1_555
H16_3 C44_3 1_555 1_555
H17_3 C45_3 1_555 1_555
C46_3 C11_3 1_555 1_555
C47_3 C43_3 1_555 1_555
C48_3 C42_3 1_555 1_555
C49_3 C44_3 1_555 1_555
C50_3 C45_3 1_555 1_555
H18_3 C46_3 1_555 1_555
H19_3 C48_3 1_555 1_555
H20_3 C47_3 1_555 1_555
H21_3 C49_3 1_555 1_555
H22_3 C50_3 1_555 1_555
C51_3 C47_3 1_555 1_555
C52_3 C49_3 1_555 1_555
C53_3 C51_3 1_555 1_555
C54_3 C52_3 1_555 1_555
C55_3 C53_3 1_555 1_555
C56_3 C54_3 1_555 1_555
C57_3 C15_3 1_555 1_555
C58_3 H24_3 1_555 1_555
H23_3 C57_3 1_555 1_555
C59_3 C14_3 1_555 1_555
C60_3 C56_3 1_555 1_555
C2_3 C3_3 1_555 1_555
C14_3 C15_3 1_555 1_555
C16_3 C23_3 1_555 1_555
C23_3 C28_3 1_555 1_555
C30_3 C33_3 1_555 1_555
C32_3 C34_3 1_555 1_555
C41_3 C46_3 1_555 1_555
C48_3 C51_3 1_555 1_555
C50_3 C52_3 1_555 1_555
C55_3 C59_3 1_555 1_555
C57_3 C60_3 1_555 1_555
C58_3 C59_3 1_555 1_555
C58_3 C60_3 1_555 1_555
O4_7 Cu8 1_555 1_555
O16_4 Cu8 1_555 1_555
Cu8_2 O2_4 1_555 1_555
O2_4 C1_4 1_555 1_555
O4_8 Cu8_2 1_555 1_555
C1_4 O13 1_555 1_555
C2_4 H1_4 1_555 1_555
C3_4 C1_4 1_555 1_555
C4_4 C3_4 1_555 1_555
H2_4 C4_4 1_555 1_555
C5_4 C4_4 1_555 1_555
C6_4 C5_4 1_555 1_555
C7_4 C6_4 1_555 1_555
C8_4 C7_4 1_555 1_555
C9_4 C8_4 1_555 1_555
H3_4 C9_4 1_555 1_555
C10_4 C9_4 1_555 1_555
H4_4 C10_4 1_555 1_555
C11_4 C10_4 1_555 1_555
C12_4 C11_4 1_555 1_555
C13_4 C12_4 1_555 1_555
C14_4 H5_4 1_555 1_555
C15_4 C13_4 1_555 1_555
Cu4_4 O9_4 1_555 1_555
Cu7_5 O10_4 1_555 1_555
Cu6_4 O11_4 1_555 1_555
Cu5_2 O12_4 1_555 1_555
Cu9_4 O20_4 1_555 1_555
Cu12_5 O21_4 1_555 1_555
Cu11_4 O22_4 1_555 1_555
Cu10_2 O23_4 1_555 1_555
O9_4 C17_4 1_555 1_555
O10_4 C18_4 1_555 1_555
O11_4 C19_4 1_555 1_555
O12_4 C20_4 1_555 1_555
O18_4 Cu8_2 1_555 1_555
O17_3 C16_4 1_555 1_555
O20_4 C17_4 1_555 1_555
O21_4 C18_4 1_555 1_555
O22_4 C19_4 1_555 1_555
O23_4 C20_4 1_555 1_555
C16_4 O6_3 1_555 1_555
C17_4 C24_4 1_555 1_555
C18_4 C25_4 1_555 1_555
C19_4 C26_4 1_555 1_555
C20_4 C27_4 1_555 1_555
C21_4 H6_4 1_555 1_555
C22_4 H7_4 1_555 1_555
C23_4 C2_4 1_555 1_555
C24_4 C21_4 1_555 1_555
C25_4 C21_4 1_555 1_555
C26_4 C22_4 1_555 1_555
C27_4 C22_4 1_555 1_555
C28_4 C5_4 1_555 1_555
C29_4 C25_4 1_555 1_555
C30_4 C24_4 1_555 1_555
C31_4 C26_4 1_555 1_555
C32_4 C27_4 1_555 1_555
H8_4 C28_4 1_555 1_555
H9_4 C30_4 1_555 1_555
H10_4 C29_4 1_555 1_555
H11_4 C31_4 1_555 1_555
H12_4 C32_4 1_555 1_555
C33_4 C29_4 1_555 1_555
C34_4 C31_4 1_555 1_555
C35_4 C33_4 1_555 1_555
C36_4 C34_4 1_555 1_555
C37_4 C35_4 1_555 1_555
C38_4 C36_4 1_555 1_555
C39_4 C37_4 1_555 1_555
C40_4 C38_4 1_555 1_555
C41_4 C8_4 1_555 1_555
C42_4 C39_4 1_555 1_555
C43_4 C39_4 1_555 1_555
C44_4 C40_4 1_555 1_555
C45_4 C40_4 1_555 1_555
H13_4 C41_4 1_555 1_555
H14_4 C42_4 1_555 1_555
H15_4 C43_4 1_555 1_555
H16_4 C44_4 1_555 1_555
H17_4 C45_4 1_555 1_555
C46_4 C11_4 1_555 1_555
C47_4 C43_4 1_555 1_555
C48_4 C42_4 1_555 1_555
C49_4 C44_4 1_555 1_555
C50_4 C45_4 1_555 1_555
H18_4 C46_4 1_555 1_555
H19_4 C48_4 1_555 1_555
H20_4 C47_4 1_555 1_555
H21_4 C49_4 1_555 1_555
H22_4 C50_4 1_555 1_555
C51_4 C47_4 1_555 1_555
C52_4 C49_4 1_555 1_555
C53_4 C51_4 1_555 1_555
C54_4 C52_4 1_555 1_555
C55_4 C53_4 1_555 1_555
C56_4 C54_4 1_555 1_555
C57_4 C15_4 1_555 1_555
C58_4 H24_4 1_555 1_555
H23_4 C57_4 1_555 1_555
C59_4 C14_4 1_555 1_555
C60_4 C56_4 1_555 1_555
C2_4 C3_4 1_555 1_555
C14_4 C15_4 1_555 1_555
C16_4 C23_4 1_555 1_555
C23_4 C28_4 1_555 1_555
C30_4 C33_4 1_555 1_555
C32_4 C34_4 1_555 1_555
C41_4 C46_4 1_555 1_555
C48_4 C51_4 1_555 1_555
C50_4 C52_4 1_555 1_555
C55_4 C59_4 1_555 1_555
C57_4 C60_4 1_555 1_555
C58_4 C59_4 1_555 1_555
C58_4 C60_4 1_555 1_555
O16_3 C1_5 1_555 1_555
C1_5 O5_3 1_555 1_555
C2_5 H1_5 1_555 1_555
C3_5 C1_5 1_555 1_555
C4_5 C3_5 1_555 1_555
H2_5 C4_5 1_555 1_555
C5_5 C4_5 1_555 1_555
C6_5 C5_5 1_555 1_555
C7_5 C6_5 1_555 1_555
C8_5 C7_5 1_555 1_555
C9_5 C8_5 1_555 1_555
H3_5 C9_5 1_555 1_555
C10_5 C9_5 1_555 1_555
H4_5 C10_5 1_555 1_555
C11_5 C10_5 1_555 1_555
C12_5 C11_5 1_555 1_555
C13_5 C12_5 1_555 1_555
C14_5 H5_5 1_555 1_555
C15_5 C13_5 1_555 1_555
Cu3_3 Cu8_3 1_555 1_555
Cu4_5 O9_5 1_555 1_555
Cu5_3 O10_5 1_555 1_555
Cu6_5 O11_5 1_555 1_555
Cu7_5 O12_5 1_555 1_555
Cu8_3 O19_2 1_555 1_555
Cu9_5 O20_5 1_555 1_555
Cu10_3 O21_5 1_555 1_555
Cu11_5 O22_5 1_555 1_555
Cu12_5 O23_5 1_555 1_555
O8_2 Cu3_3 1_555 1_555
O9_5 C17_5 1_555 1_555
O10_5 C18_5 1_555 1_555
O11_5 C19_5 1_555 1_555
O12_5 C20_5 1_555 1_555
O14_2 Cu3_3 1_555 1_555
O19_2 C16_5 1_555 1_555
O20_5 C17_5 1_555 1_555
O21_5 C18_5 1_555 1_555
O22_5 C19_5 1_555 1_555
O23_5 C20_5 1_555 1_555
O24_3 Cu3_3 1_555 1_555
C16_5 O8_2 1_555 1_555
C17_5 C24_5 1_555 1_555
C18_5 C25_5 1_555 1_555
C19_5 C26_5 1_555 1_555
C20_5 C27_5 1_555 1_555
C21_5 H6_5 1_555 1_555
C22_5 H7_5 1_555 1_555
C23_5 C2_5 1_555 1_555
C24_5 C21_5 1_555 1_555
C25_5 C21_5 1_555 1_555
C26_5 C22_5 1_555 1_555
C27_5 C22_5 1_555 1_555
C28_5 C5_5 1_555 1_555
C29_5 C25_5 1_555 1_555
C30_5 C24_5 1_555 1_555
C31_5 C26_5 1_555 1_555
C32_5 C27_5 1_555 1_555
H8_5 C28_5 1_555 1_555
H9_5 C30_5 1_555 1_555
H10_5 C29_5 1_555 1_555
H11_5 C31_5 1_555 1_555
H12_5 C32_5 1_555 1_555
C33_5 C29_5 1_555 1_555
C34_5 C31_5 1_555 1_555
C35_5 C33_5 1_555 1_555
C36_5 C34_5 1_555 1_555
C37_5 C35_5 1_555 1_555
C38_5 C36_5 1_555 1_555
C39_5 C37_5 1_555 1_555
C40_5 C38_5 1_555 1_555
C41_5 C8_5 1_555 1_555
C42_5 C39_5 1_555 1_555
C43_5 C39_5 1_555 1_555
C44_5 C40_5 1_555 1_555
C45_5 C40_5 1_555 1_555
H13_5 C41_5 1_555 1_555
H14_5 C42_5 1_555 1_555
H15_5 C43_5 1_555 1_555
H16_5 C44_5 1_555 1_555
H17_5 C45_5 1_555 1_555
C46_5 C11_5 1_555 1_555
C47_5 C43_5 1_555 1_555
C48_5 C42_5 1_555 1_555
C49_5 C44_5 1_555 1_555
C50_5 C45_5 1_555 1_555
H18_5 C46_5 1_555 1_555
H19_5 C48_5 1_555 1_555
H20_5 C47_5 1_555 1_555
H21_5 C49_5 1_555 1_555
H22_5 C50_5 1_555 1_555
C51_5 C47_5 1_555 1_555
C52_5 C49_5 1_555 1_555
C53_5 C51_5 1_555 1_555
C54_5 C52_5 1_555 1_555
C55_5 C53_5 1_555 1_555
C56_5 C54_5 1_555 1_555
C57_5 C15_5 1_555 1_555
C58_5 H24_5 1_555 1_555
H23_5 C57_5 1_555 1_555
C59_5 C14_5 1_555 1_555
C60_5 C56_5 1_555 1_555
C2_5 C3_5 1_555 1_555
C14_5 C15_5 1_555 1_555
C16_5 C23_5 1_555 1_555
C23_5 C28_5 1_555 1_555
C30_5 C33_5 1_555 1_555
C32_5 C34_5 1_555 1_555
C41_5 C46_5 1_555 1_555
C48_5 C51_5 1_555 1_555
C50_5 C52_5 1_555 1_555
C55_5 C59_5 1_555 1_555
C57_5 C60_5 1_555 1_555
C58_5 C59_5 1_555 1_555
C58_5 C60_5 1_555 1_555
Cu3_4 Cu8_4 1_555 1_555
O13_2 Cu3_4 1_555 1_555
O15_2 Cu3_4 1_555 1_555
O24_4 Cu3_4 1_555 1_555
Cu3_5 Cu8_5 1_555 1_555
O13_3 Cu3_5 1_555 1_555
O15_3 Cu3_5 1_555 1_555
O24_5 Cu3_5 1_555 1_555
Cu1_7 Cu2_7 1_555 1_555
Cu2_7 O2_5 1_555 1_555
O1_4 Cu1_7 1_555 1_555
O2_5 C1_6 1_555 1_555
O3_7 Cu1_7 1_555 1_555
O4_9 Cu2_7 1_555 1_555
C1_6 O1_4 1_555 1_555
C2_6 H1_6 1_555 1_555
C3_6 C1_6 1_555 1_555
C4_6 C3_6 1_555 1_555
H2_6 C4_6 1_555 1_555
C5_6 C4_6 1_555 1_555
C6_6 C5_6 1_555 1_555
C7_6 C6_6 1_555 1_555
C8_6 C7_6 1_555 1_555
C9_6 C8_6 1_555 1_555
H3_6 C9_6 1_555 1_555
C10_6 C9_6 1_555 1_555
H4_6 C10_6 1_555 1_555
C11_6 C10_6 1_555 1_555
C12_6 C11_6 1_555 1_555
C13_6 C12_6 1_555 1_555
C14_6 H5_6 1_555 1_555
C15_6 C13_6 1_555 1_555
Cu3_6 Cu8_6 1_555 1_555
Cu6_4 O9_6 1_555 1_555
Cu5_6 O10_6 1_555 1_555
Cu4_4 O11_6 1_555 1_555
Cu7_7 O12_6 1_555 1_555
Cu8_6 O19_3 1_555 1_555
Cu11_4 O20_6 1_555 1_555
Cu10_6 O21_6 1_555 1_555
Cu9_4 O22_6 1_555 1_555
Cu12_7 O23_6 1_555 1_555
O7_4 Cu1_7 1_555 1_555
O8_3 Cu3_6 1_555 1_555
O9_6 C17_6 1_555 1_555
O10_6 C18_6 1_555 1_555
O11_6 C19_6 1_555 1_555
O12_6 C20_6 1_555 1_555
O14_3 Cu3_6 1_555 1_555
O18_5 Cu2_7 1_555 1_555
O19_3 C16_6 1_555 1_555
O20_6 C17_6 1_555 1_555
O21_6 C18_6 1_555 1_555
O22_6 C19_6 1_555 1_555
O23_6 C20_6 1_555 1_555
O24_6 Cu3_6 1_555 1_555
C16_6 O8_3 1_555 1_555
C17_6 C24_6 1_555 1_555
C18_6 C25_6 1_555 1_555
C19_6 C26_6 1_555 1_555
C20_6 C27_6 1_555 1_555
C21_6 H6_6 1_555 1_555
C22_6 H7_6 1_555 1_555
C23_6 C2_6 1_555 1_555
C24_6 C21_6 1_555 1_555
C25_6 C21_6 1_555 1_555
C26_6 C22_6 1_555 1_555
C27_6 C22_6 1_555 1_555
C28_6 C5_6 1_555 1_555
C29_6 C25_6 1_555 1_555
C30_6 C24_6 1_555 1_555
C31_6 C26_6 1_555 1_555
C32_6 C27_6 1_555 1_555
H8_6 C28_6 1_555 1_555
H9_6 C30_6 1_555 1_555
H10_6 C29_6 1_555 1_555
H11_6 C31_6 1_555 1_555
H12_6 C32_6 1_555 1_555
C33_6 C29_6 1_555 1_555
C34_6 C31_6 1_555 1_555
C35_6 C33_6 1_555 1_555
C36_6 C34_6 1_555 1_555
C37_6 C35_6 1_555 1_555
C38_6 C36_6 1_555 1_555
C39_6 C37_6 1_555 1_555
C40_6 C38_6 1_555 1_555
C41_6 C8_6 1_555 1_555
C42_6 C39_6 1_555 1_555
C43_6 C39_6 1_555 1_555
C44_6 C40_6 1_555 1_555
C45_6 C40_6 1_555 1_555
H13_6 C41_6 1_555 1_555
H14_6 C42_6 1_555 1_555
H15_6 C43_6 1_555 1_555
H16_6 C44_6 1_555 1_555
H17_6 C45_6 1_555 1_555
C46_6 C11_6 1_555 1_555
C47_6 C43_6 1_555 1_555
C48_6 C42_6 1_555 1_555
C49_6 C44_6 1_555 1_555
C50_6 C45_6 1_555 1_555
H18_6 C46_6 1_555 1_555
H19_6 C48_6 1_555 1_555
H20_6 C47_6 1_555 1_555
H21_6 C49_6 1_555 1_555
H22_6 C50_6 1_555 1_555
C51_6 C47_6 1_555 1_555
C52_6 C49_6 1_555 1_555
C53_6 C51_6 1_555 1_555
C54_6 C52_6 1_555 1_555
C55_6 C53_6 1_555 1_555
C56_6 C54_6 1_555 1_555
C57_6 C15_6 1_555 1_555
C58_6 H24_6 1_555 1_555
H23_6 C57_6 1_555 1_555
C59_6 C14_6 1_555 1_555
C60_6 C56_6 1_555 1_555
C2_6 C3_6 1_555 1_555
C14_6 C15_6 1_555 1_555
C16_6 C23_6 1_555 1_555
C23_6 C28_6 1_555 1_555
C30_6 C33_6 1_555 1_555
C32_6 C34_6 1_555 1_555
C41_6 C46_6 1_555 1_555
C48_6 C51_6 1_555 1_555
C50_6 C52_6 1_555 1_555
C55_6 C59_6 1_555 1_555
C57_6 C60_6 1_555 1_555
C58_6 C59_6 1_555 1_555
C58_6 C60_6 1_555 1_555
Cu1_8 Cu2_8 1_555 1_555
O3_8 Cu1_8 1_555 1_555
O4_10 Cu2_8 1_555 1_555
O5_4 Cu1_8 1_555 1_555
O6_4 Cu1_8 1_555 1_555
O16_5 Cu2_8 1_555 1_555
O17_4 Cu2_8 1_555 1_555
Cu3_7 Cu8_7 1_555 1_555
O13_4 Cu3_7 1_555 1_555
O15_4 Cu3_7 1_555 1_555
O24_7 Cu3_7 1_555 1_555
Cu1_9 Cu2_9 1_555 1_555
Cu2_9 O2_6 1_555 1_555
O1_5 Cu1_9 1_555 1_555
O2_6 C1_7 1_555 1_555
O3_9 Cu1_9 1_555 1_555
O4_11 Cu2_9 1_555 1_555
C1_7 O1_5 1_555 1_555
C2_7 H1_7 1_555 1_555
C3_7 C1_7 1_555 1_555
C4_7 C3_7 1_555 1_555
H2_7 C4_7 1_555 1_555
C5_7 C4_7 1_555 1_555
C6_7 C5_7 1_555 1_555
C7_7 C6_7 1_555 1_555
C8_7 C7_7 1_555 1_555
C9_7 C8_7 1_555 1_555
H3_7 C9_7 1_555 1_555
C10_7 C9_7 1_555 1_555
H4_7 C10_7 1_555 1_555
C11_7 C10_7 1_555 1_555
C12_7 C11_7 1_555 1_555
C13_7 C12_7 1_555 1_555
C14_7 H5_7 1_555 1_555
C15_7 C13_7 1_555 1_555
Cu3_8 Cu8_8 1_555 1_555
Cu4_6 O9_7 1_555 1_555
Cu5_8 O10_7 1_555 1_555
Cu6_6 O11_7 1_555 1_555
Cu7_9 O12_7 1_555 1_555
Cu8_8 O19_4 1_555 1_555
Cu9_6 O20_7 1_555 1_555
Cu10_8 O21_7 1_555 1_555
Cu11_6 O22_7 1_555 1_555
Cu12_9 O23_7 1_555 1_555
O7_5 Cu1_9 1_555 1_555
O8_4 Cu3_8 1_555 1_555
O9_7 C17_7 1_555 1_555
O10_7 C18_7 1_555 1_555
O11_7 C19_7 1_555 1_555
O12_7 C20_7 1_555 1_555
O14_4 Cu3_8 1_555 1_555
O18_6 Cu2_9 1_555 1_555
O19_4 C16_7 1_555 1_555
O20_7 C17_7 1_555 1_555
O21_7 C18_7 1_555 1_555
O22_7 C19_7 1_555 1_555
O23_7 C20_7 1_555 1_555
O24_8 Cu3_8 1_555 1_555
C16_7 O8_4 1_555 1_555
C17_7 C24_7 1_555 1_555
C18_7 C25_7 1_555 1_555
C19_7 C26_7 1_555 1_555
C20_7 C27_7 1_555 1_555
C21_7 H6_7 1_555 1_555
C22_7 H7_7 1_555 1_555
C23_7 C2_7 1_555 1_555
C24_7 C21_7 1_555 1_555
C25_7 C21_7 1_555 1_555
C26_7 C22_7 1_555 1_555
C27_7 C22_7 1_555 1_555
C28_7 C5_7 1_555 1_555
C29_7 C25_7 1_555 1_555
C30_7 C24_7 1_555 1_555
C31_7 C26_7 1_555 1_555
C32_7 C27_7 1_555 1_555
H8_7 C28_7 1_555 1_555
H9_7 C30_7 1_555 1_555
H10_7 C29_7 1_555 1_555
H11_7 C31_7 1_555 1_555
H12_7 C32_7 1_555 1_555
C33_7 C29_7 1_555 1_555
C34_7 C31_7 1_555 1_555
C35_7 C33_7 1_555 1_555
C36_7 C34_7 1_555 1_555
C37_7 C35_7 1_555 1_555
C38_7 C36_7 1_555 1_555
C39_7 C37_7 1_555 1_555
C40_7 C38_7 1_555 1_555
C41_7 C8_7 1_555 1_555
C42_7 C39_7 1_555 1_555
C43_7 C39_7 1_555 1_555
C44_7 C40_7 1_555 1_555
C45_7 C40_7 1_555 1_555
H13_7 C41_7 1_555 1_555
H14_7 C42_7 1_555 1_555
H15_7 C43_7 1_555 1_555
H16_7 C44_7 1_555 1_555
H17_7 C45_7 1_555 1_555
C46_7 C11_7 1_555 1_555
C47_7 C43_7 1_555 1_555
C48_7 C42_7 1_555 1_555
C49_7 C44_7 1_555 1_555
C50_7 C45_7 1_555 1_555
H18_7 C46_7 1_555 1_555
H19_7 C48_7 1_555 1_555
H20_7 C47_7 1_555 1_555
H21_7 C49_7 1_555 1_555
H22_7 C50_7 1_555 1_555
C51_7 C47_7 1_555 1_555
C52_7 C49_7 1_555 1_555
C53_7 C51_7 1_555 1_555
C54_7 C52_7 1_555 1_555
C55_7 C53_7 1_555 1_555
C56_7 C54_7 1_555 1_555
C57_7 C15_7 1_555 1_555
C58_7 H24_7 1_555 1_555
H23_7 C57_7 1_555 1_555
C59_7 C14_7 1_555 1_555
C60_7 C56_7 1_555 1_555
C2_7 C3_7 1_555 1_555
C14_7 C15_7 1_555 1_555
C16_7 C23_7 1_555 1_555
C23_7 C28_7 1_555 1_555
C30_7 C33_7 1_555 1_555
C32_7 C34_7 1_555 1_555
C41_7 C46_7 1_555 1_555
C48_7 C51_7 1_555 1_555
C50_7 C52_7 1_555 1_555
C55_7 C59_7 1_555 1_555
C57_7 C60_7 1_555 1_555
C58_7 C59_7 1_555 1_555
C58_7 C60_7 1_555 1_555
Cu1_10 Cu2_10 1_555 1_555
O3_10 Cu1_10 1_555 1_555
O4_12 Cu2_10 1_555 1_555
O5_5 Cu1_10 1_555 1_555
O6_5 Cu1_10 1_555 1_555
O16_6 Cu2_10 1_555 1_555
O17_5 Cu2_10 1_555 1_555
O4_13 Cu8_7 1_555 1_555
O16_7 Cu8_7 1_555 1_555
O17_6 Cu8_7 1_555 1_555
Cu8_8 O2_7 1_555 1_555
O2_7 C1_8 1_555 1_555
O4_14 Cu8_8 1_555 1_555
C1_8 O14_4 1_555 1_555
C2_8 H1_8 1_555 1_555
C3_8 C1_8 1_555 1_555
C4_8 C3_8 1_555 1_555
H2_8 C4_8 1_555 1_555
C5_8 C4_8 1_555 1_555
C6_8 C5_8 1_555 1_555
C7_8 C6_8 1_555 1_555
C8_8 C7_8 1_555 1_555
C9_8 C8_8 1_555 1_555
H3_8 C9_8 1_555 1_555
C10_8 C9_8 1_555 1_555
H4_8 C10_8 1_555 1_555
C11_8 C10_8 1_555 1_555
C12_8 C11_8 1_555 1_555
C13_8 C12_8 1_555 1_555
C14_8 H5_8 1_555 1_555
C15_8 C13_8 1_555 1_555
Cu4_7 O9_8 1_555 1_555
Cu5_5 O10_8 1_555 1_555
Cu6_7 O11_8 1_555 1_555
Cu5_8 O12_8 1_555 1_555
Cu8_5 O19_5 1_555 1_555
Cu9_7 O20_8 1_555 1_555
Cu10_5 O21_8 1_555 1_555
Cu11_7 O22_8 1_555 1_555
Cu10_8 O23_8 1_555 1_555
O9_8 C17_8 1_555 1_555
O10_8 C18_8 1_555 1_555
O11_8 C19_8 1_555 1_555
O12_8 C20_8 1_555 1_555
O19_5 C16_8 1_555 1_555
O20_8 C17_8 1_555 1_555
O21_8 C18_8 1_555 1_555
O22_8 C19_8 1_555 1_555
O23_8 C20_8 1_555 1_555
C16_8 O15_3 1_555 1_555
C17_8 C24_8 1_555 1_555
C18_8 C25_8 1_555 1_555
C19_8 C26_8 1_555 1_555
C20_8 C27_8 1_555 1_555
C21_8 H6_8 1_555 1_555
C22_8 H7_8 1_555 1_555
C23_8 C2_8 1_555 1_555
C24_8 C21_8 1_555 1_555
C25_8 C21_8 1_555 1_555
C26_8 C22_8 1_555 1_555
C27_8 C22_8 1_555 1_555
C28_8 C5_8 1_555 1_555
C29_8 C25_8 1_555 1_555
C30_8 C24_8 1_555 1_555
C31_8 C26_8 1_555 1_555
C32_8 C27_8 1_555 1_555
H8_8 C28_8 1_555 1_555
H9_8 C30_8 1_555 1_555
H10_8 C29_8 1_555 1_555
H11_8 C31_8 1_555 1_555
H12_8 C32_8 1_555 1_555
C33_8 C29_8 1_555 1_555
C34_8 C31_8 1_555 1_555
C35_8 C33_8 1_555 1_555
C36_8 C34_8 1_555 1_555
C37_8 C35_8 1_555 1_555
C38_8 C36_8 1_555 1_555
C39_8 C37_8 1_555 1_555
C40_8 C38_8 1_555 1_555
C41_8 C8_8 1_555 1_555
C42_8 C39_8 1_555 1_555
C43_8 C39_8 1_555 1_555
C44_8 C40_8 1_555 1_555
C45_8 C40_8 1_555 1_555
H13_8 C41_8 1_555 1_555
H14_8 C42_8 1_555 1_555
H15_8 C43_8 1_555 1_555
H16_8 C44_8 1_555 1_555
H17_8 C45_8 1_555 1_555
C46_8 C11_8 1_555 1_555
C47_8 C43_8 1_555 1_555
C48_8 C42_8 1_555 1_555
C49_8 C44_8 1_555 1_555
C50_8 C45_8 1_555 1_555
H18_8 C46_8 1_555 1_555
H19_8 C48_8 1_555 1_555
H20_8 C47_8 1_555 1_555
H21_8 C49_8 1_555 1_555
H22_8 C50_8 1_555 1_555
C51_8 C47_8 1_555 1_555
C52_8 C49_8 1_555 1_555
C53_8 C51_8 1_555 1_555
C54_8 C52_8 1_555 1_555
C55_8 C53_8 1_555 1_555
C56_8 C54_8 1_555 1_555
C57_8 C15_8 1_555 1_555
C58_8 H24_8 1_555 1_555
H23_8 C57_8 1_555 1_555
C59_8 C14_8 1_555 1_555
C60_8 C56_8 1_555 1_555
C2_8 C3_8 1_555 1_555
C14_8 C15_8 1_555 1_555
C16_8 C23_8 1_555 1_555
C23_8 C28_8 1_555 1_555
C30_8 C33_8 1_555 1_555
C32_8 C34_8 1_555 1_555
C41_8 C46_8 1_555 1_555
C48_8 C51_8 1_555 1_555
C50_8 C52_8 1_555 1_555
C55_8 C59_8 1_555 1_555
C57_8 C60_8 1_555 1_555
C58_8 C59_8 1_555 1_555
C58_8 C60_8 1_555 1_555
O16_6 C1_9 1_555 1_555
C1_9 O5_5 1_555 1_555
C2_9 H1_9 1_555 1_555
C3_9 C1_9 1_555 1_555
C4_9 C3_9 1_555 1_555
H2_9 C4_9 1_555 1_555
C5_9 C4_9 1_555 1_555
C6_9 C5_9 1_555 1_555
C7_9 C6_9 1_555 1_555
C8_9 C7_9 1_555 1_555
C9_9 C8_9 1_555 1_555
H3_9 C9_9 1_555 1_555
C10_9 C9_9 1_555 1_555
H4_9 C10_9 1_555 1_555
C11_9 C10_9 1_555 1_555
C12_9 C11_9 1_555 1_555
C13_9 C12_9 1_555 1_555
C14_9 H5_9 1_555 1_555
C15_9 C13_9 1_555 1_555
Cu3_9 Cu8_9 1_555 1_555
Cu6_2 O9_9 1_555 1_555
Cu5_9 O10_9 1_555 1_555
Cu4_2 O11_9 1_555 1_555
Cu7_10 O12_9 1_555 1_555
Cu8_9 O19_6 1_555 1_555
Cu11_2 O20_9 1_555 1_555
Cu10_9 O21_9 1_555 1_555
Cu9_2 O22_9 1_555 1_555
Cu12_10 O23_9 1_555 1_555
O8_5 Cu3_9 1_555 1_555
O9_9 C17_9 1_555 1_555
O10_9 C18_9 1_555 1_555
O11_9 C19_9 1_555 1_555
O12_9 C20_9 1_555 1_555
O14_5 Cu3_9 1_555 1_555
O19_6 C16_9 1_555 1_555
O20_9 C17_9 1_555 1_555
O21_9 C18_9 1_555 1_555
O22_9 C19_9 1_555 1_555
O23_9 C20_9 1_555 1_555
O24_9 Cu3_9 1_555 1_555
C16_9 O8_5 1_555 1_555
C17_9 C24_9 1_555 1_555
C18_9 C25_9 1_555 1_555
C19_9 C26_9 1_555 1_555
C20_9 C27_9 1_555 1_555
C21_9 H6_9 1_555 1_555
C22_9 H7_9 1_555 1_555
C23_9 C2_9 1_555 1_555
C24_9 C21_9 1_555 1_555
C25_9 C21_9 1_555 1_555
C26_9 C22_9 1_555 1_555
C27_9 C22_9 1_555 1_555
C28_9 C5_9 1_555 1_555
C29_9 C25_9 1_555 1_555
C30_9 C24_9 1_555 1_555
C31_9 C26_9 1_555 1_555
C32_9 C27_9 1_555 1_555
H8_9 C28_9 1_555 1_555
H9_9 C30_9 1_555 1_555
H10_9 C29_9 1_555 1_555
H11_9 C31_9 1_555 1_555
H12_9 C32_9 1_555 1_555
C33_9 C29_9 1_555 1_555
C34_9 C31_9 1_555 1_555
C35_9 C33_9 1_555 1_555
C36_9 C34_9 1_555 1_555
C37_9 C35_9 1_555 1_555
C38_9 C36_9 1_555 1_555
C39_9 C37_9 1_555 1_555
C40_9 C38_9 1_555 1_555
C41_9 C8_9 1_555 1_555
C42_9 C39_9 1_555 1_555
C43_9 C39_9 1_555 1_555
C44_9 C40_9 1_555 1_555
C45_9 C40_9 1_555 1_555
H13_9 C41_9 1_555 1_555
H14_9 C42_9 1_555 1_555
H15_9 C43_9 1_555 1_555
H16_9 C44_9 1_555 1_555
H17_9 C45_9 1_555 1_555
C46_9 C11_9 1_555 1_555
C47_9 C43_9 1_555 1_555
C48_9 C42_9 1_555 1_555
C49_9 C44_9 1_555 1_555
C50_9 C45_9 1_555 1_555
H18_9 C46_9 1_555 1_555
H19_9 C48_9 1_555 1_555
H20_9 C47_9 1_555 1_555
H21_9 C49_9 1_555 1_555
H22_9 C50_9 1_555 1_555
C51_9 C47_9 1_555 1_555
C52_9 C49_9 1_555 1_555
C53_9 C51_9 1_555 1_555
C54_9 C52_9 1_555 1_555
C55_9 C53_9 1_555 1_555
C56_9 C54_9 1_555 1_555
C57_9 C15_9 1_555 1_555
C58_9 H24_9 1_555 1_555
H23_9 C57_9 1_555 1_555
C59_9 C14_9 1_555 1_555
C60_9 C56_9 1_555 1_555
C2_9 C3_9 1_555 1_555
C14_9 C15_9 1_555 1_555
C16_9 C23_9 1_555 1_555
C23_9 C28_9 1_555 1_555
C30_9 C33_9 1_555 1_555
C32_9 C34_9 1_555 1_555
C41_9 C46_9 1_555 1_555
C48_9 C51_9 1_555 1_555
C50_9 C52_9 1_555 1_555
C55_9 C59_9 1_555 1_555
C57_9 C60_9 1_555 1_555
C58_9 C59_9 1_555 1_555
C58_9 C60_9 1_555 1_555
Cu3_10 Cu8_10 1_555 1_555
O13_5 Cu3_10 1_555 1_555
O15_5 Cu3_10 1_555 1_555
O24_10 Cu3_10 1_555 1_555
Cu1_11 Cu2_11 1_555 1_555
Cu2_11 O2_8 1_555 1_555
O1_6 Cu1_11 1_555 1_555
O2_8 C1_10 1_555 1_555
O3_11 Cu1_11 1_555 1_555
O4_15 Cu2_11 1_555 1_555
C1_10 O1_6 1_555 1_555
C2_10 H1_10 1_555 1_555
C3_10 C1_10 1_555 1_555
C4_10 C3_10 1_555 1_555
H2_10 C4_10 1_555 1_555
C5_10 C4_10 1_555 1_555
C6_10 C5_10 1_555 1_555
C7_10 C6_10 1_555 1_555
C8_10 C7_10 1_555 1_555
C9_10 C8_10 1_555 1_555
H3_10 C9_10 1_555 1_555
C10_10 C9_10 1_555 1_555
H4_10 C10_10 1_555 1_555
C11_10 C10_10 1_555 1_555
C12_10 C11_10 1_555 1_555
C13_10 C12_10 1_555 1_555
C14_10 H5_10 1_555 1_555
C15_10 C13_10 1_555 1_555
Cu4_8 O9_10 1_555 1_555
Cu7_3 O10_10 1_555 1_555
Cu6_8 O11_10 1_555 1_555
Cu7_11 O12_10 1_555 1_555
Cu9_8 O20_10 1_555 1_555
Cu12_3 O21_10 1_555 1_555
Cu11_8 O22_10 1_555 1_555
Cu12_11 O23_10 1_555 1_555
O7_6 Cu1_11 1_555 1_555
O9_10 C17_10 1_555 1_555
O10_10 C18_10 1_555 1_555
O11_10 C19_10 1_555 1_555
O12_10 C20_10 1_555 1_555
O18_7 Cu2_11 1_555 1_555
O18_2 C16_10 1_555 1_555
O20_10 C17_10 1_555 1_555
O21_10 C18_10 1_555 1_555
O22_10 C19_10 1_555 1_555
O23_10 C20_10 1_555 1_555
C16_10 O7_2 1_555 1_555
C17_10 C24_10 1_555 1_555
C18_10 C25_10 1_555 1_555
C19_10 C26_10 1_555 1_555
C20_10 C27_10 1_555 1_555
C21_10 H6_10 1_555 1_555
C22_10 H7_10 1_555 1_555
C23_10 C2_10 1_555 1_555
C24_10 C21_10 1_555 1_555
C25_10 C21_10 1_555 1_555
C26_10 C22_10 1_555 1_555
C27_10 C22_10 1_555 1_555
C28_10 C5_10 1_555 1_555
C29_10 C25_10 1_555 1_555
C30_10 C24_10 1_555 1_555
C31_10 C26_10 1_555 1_555
C32_10 C27_10 1_555 1_555
H8_10 C28_10 1_555 1_555
H9_10 C30_10 1_555 1_555
H10_10 C29_10 1_555 1_555
H11_10 C31_10 1_555 1_555
H12_10 C32_10 1_555 1_555
C33_10 C29_10 1_555 1_555
C34_10 C31_10 1_555 1_555
C35_10 C33_10 1_555 1_555
C36_10 C34_10 1_555 1_555
C37_10 C35_10 1_555 1_555
C38_10 C36_10 1_555 1_555
C39_10 C37_10 1_555 1_555
C40_10 C38_10 1_555 1_555
C41_10 C8_10 1_555 1_555
C42_10 C39_10 1_555 1_555
C43_10 C39_10 1_555 1_555
C44_10 C40_10 1_555 1_555
C45_10 C40_10 1_555 1_555
H13_10 C41_10 1_555 1_555
H14_10 C42_10 1_555 1_555
H15_10 C43_10 1_555 1_555
H16_10 C44_10 1_555 1_555
H17_10 C45_10 1_555 1_555
C46_10 C11_10 1_555 1_555
C47_10 C43_10 1_555 1_555
C48_10 C42_10 1_555 1_555
C49_10 C44_10 1_555 1_555
C50_10 C45_10 1_555 1_555
H18_10 C46_10 1_555 1_555
H19_10 C48_10 1_555 1_555
H20_10 C47_10 1_555 1_555
H21_10 C49_10 1_555 1_555
H22_10 C50_10 1_555 1_555
C51_10 C47_10 1_555 1_555
C52_10 C49_10 1_555 1_555
C53_10 C51_10 1_555 1_555
C54_10 C52_10 1_555 1_555
C55_10 C53_10 1_555 1_555
C56_10 C54_10 1_555 1_555
C57_10 C15_10 1_555 1_555
C58_10 H24_10 1_555 1_555
H23_10 C57_10 1_555 1_555
C59_10 C14_10 1_555 1_555
C60_10 C56_10 1_555 1_555
C2_10 C3_10 1_555 1_555
C14_10 C15_10 1_555 1_555
C16_10 C23_10 1_555 1_555
C23_10 C28_10 1_555 1_555
C30_10 C33_10 1_555 1_555
C32_10 C34_10 1_555 1_555
C41_10 C46_10 1_555 1_555
C48_10 C51_10 1_555 1_555
C50_10 C52_10 1_555 1_555
C55_10 C59_10 1_555 1_555
C57_10 C60_10 1_555 1_555
C58_10 C59_10 1_555 1_555
C58_10 C60_10 1_555 1_555
Cu1_12 Cu2_12 1_555 1_555
O3_12 Cu1_12 1_555 1_555
O4_16 Cu2_12 1_555 1_555
O5_6 Cu1_12 1_555 1_555
O6_6 Cu1_12 1_555 1_555
O16_8 Cu2_12 1_555 1_555
O17_7 Cu2_12 1_555 1_555
O16_4 C1_11 1_555 1_555
C1_11 O14 1_555 1_555
C2_11 H1_11 1_555 1_555
C3_11 C1_11 1_555 1_555
C4_11 C3_11 1_555 1_555
H2_11 C4_11 1_555 1_555
C5_11 C4_11 1_555 1_555
C6_11 C5_11 1_555 1_555
C7_11 C6_11 1_555 1_555
C8_11 C7_11 1_555 1_555
C9_11 C8_11 1_555 1_555
H3_11 C9_11 1_555 1_555
C10_11 C9_11 1_555 1_555
H4_11 C10_11 1_555 1_555
C11_11 C10_11 1_555 1_555
C12_11 C11_11 1_555 1_555
C13_11 C12_11 1_555 1_555
C14_11 H5_11 1_555 1_555
C15_11 C13_11 1_555 1_555
Cu6_8 O9_11 1_555 1_555
Cu5_7 O10_11 1_555 1_555
Cu4_8 O11_11 1_555 1_555
Cu5 O12_11 1_555 1_555
Cu11_8 O20_11 1_555 1_555
Cu10_7 O21_11 1_555 1_555
Cu9_8 O22_11 1_555 1_555
Cu10 O23_11 1_555 1_555
O9_11 C17_11 1_555 1_555
O10_11 C18_11 1_555 1_555
O11_11 C19_11 1_555 1_555
O12_11 C20_11 1_555 1_555
O17_6 C16_11 1_555 1_555
O20_11 C17_11 1_555 1_555
O21_11 C18_11 1_555 1_555
O22_11 C19_11 1_555 1_555
O23_11 C20_11 1_555 1_555
C16_11 O15_4 1_555 1_555
C17_11 C24_11 1_555 1_555
C18_11 C25_11 1_555 1_555
C19_11 C26_11 1_555 1_555
C20_11 C27_11 1_555 1_555
C21_11 H6_11 1_555 1_555
C22_11 H7_11 1_555 1_555
C23_11 C2_11 1_555 1_555
C24_11 C21_11 1_555 1_555
C25_11 C21_11 1_555 1_555
C26_11 C22_11 1_555 1_555
C27_11 C22_11 1_555 1_555
C28_11 C5_11 1_555 1_555
C29_11 C25_11 1_555 1_555
C30_11 C24_11 1_555 1_555
C31_11 C26_11 1_555 1_555
C32_11 C27_11 1_555 1_555
H8_11 C28_11 1_555 1_555
H9_11 C30_11 1_555 1_555
H10_11 C29_11 1_555 1_555
H11_11 C31_11 1_555 1_555
H12_11 C32_11 1_555 1_555
C33_11 C29_11 1_555 1_555
C34_11 C31_11 1_555 1_555
C35_11 C33_11 1_555 1_555
C36_11 C34_11 1_555 1_555
C37_11 C35_11 1_555 1_555
C38_11 C36_11 1_555 1_555
C39_11 C37_11 1_555 1_555
C40_11 C38_11 1_555 1_555
C41_11 C8_11 1_555 1_555
C42_11 C39_11 1_555 1_555
C43_11 C39_11 1_555 1_555
C44_11 C40_11 1_555 1_555
C45_11 C40_11 1_555 1_555
H13_11 C41_11 1_555 1_555
H14_11 C42_11 1_555 1_555
H15_11 C43_11 1_555 1_555
H16_11 C44_11 1_555 1_555
H17_11 C45_11 1_555 1_555
C46_11 C11_11 1_555 1_555
C47_11 C43_11 1_555 1_555
C48_11 C42_11 1_555 1_555
C49_11 C44_11 1_555 1_555
C50_11 C45_11 1_555 1_555
H18_11 C46_11 1_555 1_555
H19_11 C48_11 1_555 1_555
H20_11 C47_11 1_555 1_555
H21_11 C49_11 1_555 1_555
H22_11 C50_11 1_555 1_555
C51_11 C47_11 1_555 1_555
C52_11 C49_11 1_555 1_555
C53_11 C51_11 1_555 1_555
C54_11 C52_11 1_555 1_555
C55_11 C53_11 1_555 1_555
C56_11 C54_11 1_555 1_555
C57_11 C15_11 1_555 1_555
C58_11 H24_11 1_555 1_555
H23_11 C57_11 1_555 1_555
C59_11 C14_11 1_555 1_555
C60_11 C56_11 1_555 1_555
C2_11 C3_11 1_555 1_555
C14_11 C15_11 1_555 1_555
C16_11 C23_11 1_555 1_555
C23_11 C28_11 1_555 1_555
C30_11 C33_11 1_555 1_555
C32_11 C34_11 1_555 1_555
C41_11 C46_11 1_555 1_555
C48_11 C51_11 1_555 1_555
C50_11 C52_11 1_555 1_555
C55_11 C59_11 1_555 1_555
C57_11 C60_11 1_555 1_555
C58_11 C59_11 1_555 1_555
C58_11 C60_11 1_555 1_555
O16_7 C1_12 1_555 1_555
C1_12 O13_4 1_555 1_555
C2_12 H1_12 1_555 1_555
C3_12 C1_12 1_555 1_555
C4_12 C3_12 1_555 1_555
H2_12 C4_12 1_555 1_555
C5_12 C4_12 1_555 1_555
C6_12 C5_12 1_555 1_555
C7_12 C6_12 1_555 1_555
C8_12 C7_12 1_555 1_555
C9_12 C8_12 1_555 1_555
H3_12 C9_12 1_555 1_555
C10_12 C9_12 1_555 1_555
H4_12 C10_12 1_555 1_555
C11_12 C10_12 1_555 1_555
C12_12 C11_12 1_555 1_555
C13_12 C12_12 1_555 1_555
C14_12 H5_12 1_555 1_555
C15_12 C13_12 1_555 1_555
Cu6_5 O9_12 1_555 1_555
Cu7 O10_12 1_555 1_555
Cu4_5 O11_12 1_555 1_555
Cu5_7 O12_12 1_555 1_555
Cu11_5 O20_12 1_555 1_555
Cu12 O21_12 1_555 1_555
Cu9_5 O22_12 1_555 1_555
Cu10_7 O23_12 1_555 1_555
O9_12 C17_12 1_555 1_555
O10_12 C18_12 1_555 1_555
O11_12 C19_12 1_555 1_555
O12_12 C20_12 1_555 1_555
O18 C16_12 1_555 1_555
O20_12 C17_12 1_555 1_555
O21_12 C18_12 1_555 1_555
O22_12 C19_12 1_555 1_555
O23_12 C20_12 1_555 1_555
C16_12 O7 1_555 1_555
C17_12 C24_12 1_555 1_555
C18_12 C25_12 1_555 1_555
C19_12 C26_12 1_555 1_555
C20_12 C27_12 1_555 1_555
C21_12 H6_12 1_555 1_555
C22_12 H7_12 1_555 1_555
C23_12 C2_12 1_555 1_555
C24_12 C21_12 1_555 1_555
C25_12 C21_12 1_555 1_555
C26_12 C22_12 1_555 1_555
C27_12 C22_12 1_555 1_555
C28_12 C5_12 1_555 1_555
C29_12 C25_12 1_555 1_555
C30_12 C24_12 1_555 1_555
C31_12 C26_12 1_555 1_555
C32_12 C27_12 1_555 1_555
H8_12 C28_12 1_555 1_555
H9_12 C30_12 1_555 1_555
H10_12 C29_12 1_555 1_555
H11_12 C31_12 1_555 1_555
H12_12 C32_12 1_555 1_555
C33_12 C29_12 1_555 1_555
C34_12 C31_12 1_555 1_555
C35_12 C33_12 1_555 1_555
C36_12 C34_12 1_555 1_555
C37_12 C35_12 1_555 1_555
C38_12 C36_12 1_555 1_555
C39_12 C37_12 1_555 1_555
C40_12 C38_12 1_555 1_555
C41_12 C8_12 1_555 1_555
C42_12 C39_12 1_555 1_555
C43_12 C39_12 1_555 1_555
C44_12 C40_12 1_555 1_555
C45_12 C40_12 1_555 1_555
H13_12 C41_12 1_555 1_555
H14_12 C42_12 1_555 1_555
H15_12 C43_12 1_555 1_555
H16_12 C44_12 1_555 1_555
H17_12 C45_12 1_555 1_555
C46_12 C11_12 1_555 1_555
C47_12 C43_12 1_555 1_555
C48_12 C42_12 1_555 1_555
C49_12 C44_12 1_555 1_555
C50_12 C45_12 1_555 1_555
H18_12 C46_12 1_555 1_555
H19_12 C48_12 1_555 1_555
H20_12 C47_12 1_555 1_555
H21_12 C49_12 1_555 1_555
H22_12 C50_12 1_555 1_555
C51_12 C47_12 1_555 1_555
C52_12 C49_12 1_555 1_555
C53_12 C51_12 1_555 1_555
C54_12 C52_12 1_555 1_555
C55_12 C53_12 1_555 1_555
C56_12 C54_12 1_555 1_555
C57_12 C15_12 1_555 1_555
C58_12 H24_12 1_555 1_555
H23_12 C57_12 1_555 1_555
C59_12 C14_12 1_555 1_555
C60_12 C56_12 1_555 1_555
C2_12 C3_12 1_555 1_555
C14_12 C15_12 1_555 1_555
C16_12 C23_12 1_555 1_555
C23_12 C28_12 1_555 1_555
C30_12 C33_12 1_555 1_555
C32_12 C34_12 1_555 1_555
C41_12 C46_12 1_555 1_555
C48_12 C51_12 1_555 1_555
C50_12 C52_12 1_555 1_555
C55_12 C59_12 1_555 1_555
C57_12 C60_12 1_555 1_555
C58_12 C59_12 1_555 1_555
C58_12 C60_12 1_555 1_555
Cu1_13 Cu2_13 1_555 1_555
Cu2_13 O2_9 1_555 1_555
O1_7 Cu1_13 1_555 1_555
O2_9 C1_13 1_555 1_555
O3_13 Cu1_13 1_555 1_555
O4_17 Cu2_13 1_555 1_555
C1_13 O1_7 1_555 1_555
C2_13 H1_13 1_555 1_555
C3_13 C1_13 1_555 1_555
C4_13 C3_13 1_555 1_555
H2_13 C4_13 1_555 1_555
C5_13 C4_13 1_555 1_555
C6_13 C5_13 1_555 1_555
C7_13 C6_13 1_555 1_555
C8_13 C7_13 1_555 1_555
C9_13 C8_13 1_555 1_555
H3_13 C9_13 1_555 1_555
C10_13 C9_13 1_555 1_555
H4_13 C10_13 1_555 1_555
C11_13 C10_13 1_555 1_555
C12_13 C11_13 1_555 1_555
C13_13 C12_13 1_555 1_555
C14_13 H5_13 1_555 1_555
C15_13 C13_13 1_555 1_555
Cu4_9 O9_13 1_555 1_555
Cu7_6 O10_13 1_555 1_555
Cu6_9 O11_13 1_555 1_555
Cu7_13 O12_13 1_555 1_555
Cu9_9 O20_13 1_555 1_555
Cu12_6 O21_13 1_555 1_555
Cu11_9 O22_13 1_555 1_555
Cu12_13 O23_13 1_555 1_555
O7_7 Cu1_13 1_555 1_555
O9_13 C17_13 1_555 1_555
O10_13 C18_13 1_555 1_555
O11_13 C19_13 1_555 1_555
O12_13 C20_13 1_555 1_555
O18_8 Cu2_13 1_555 1_555
O18_3 C16_13 1_555 1_555
O20_13 C17_13 1_555 1_555
O21_13 C18_13 1_555 1_555
O22_13 C19_13 1_555 1_555
O23_13 C20_13 1_555 1_555
C16_13 O7_3 1_555 1_555
C17_13 C24_13 1_555 1_555
C18_13 C25_13 1_555 1_555
C19_13 C26_13 1_555 1_555
C20_13 C27_13 1_555 1_555
C21_13 H6_13 1_555 1_555
C22_13 H7_13 1_555 1_555
C23_13 C2_13 1_555 1_555
C24_13 C21_13 1_555 1_555
C25_13 C21_13 1_555 1_555
C26_13 C22_13 1_555 1_555
C27_13 C22_13 1_555 1_555
C28_13 C5_13 1_555 1_555
C29_13 C25_13 1_555 1_555
C30_13 C24_13 1_555 1_555
C31_13 C26_13 1_555 1_555
C32_13 C27_13 1_555 1_555
H8_13 C28_13 1_555 1_555
H9_13 C30_13 1_555 1_555
H10_13 C29_13 1_555 1_555
H11_13 C31_13 1_555 1_555
H12_13 C32_13 1_555 1_555
C33_13 C29_13 1_555 1_555
C34_13 C31_13 1_555 1_555
C35_13 C33_13 1_555 1_555
C36_13 C34_13 1_555 1_555
C37_13 C35_13 1_555 1_555
C38_13 C36_13 1_555 1_555
C39_13 C37_13 1_555 1_555
C40_13 C38_13 1_555 1_555
C41_13 C8_13 1_555 1_555
C42_13 C39_13 1_555 1_555
C43_13 C39_13 1_555 1_555
C44_13 C40_13 1_555 1_555
C45_13 C40_13 1_555 1_555
H13_13 C41_13 1_555 1_555
H14_13 C42_13 1_555 1_555
H15_13 C43_13 1_555 1_555
H16_13 C44_13 1_555 1_555
H17_13 C45_13 1_555 1_555
C46_13 C11_13 1_555 1_555
C47_13 C43_13 1_555 1_555
C48_13 C42_13 1_555 1_555
C49_13 C44_13 1_555 1_555
C50_13 C45_13 1_555 1_555
H18_13 C46_13 1_555 1_555
H19_13 C48_13 1_555 1_555
H20_13 C47_13 1_555 1_555
H21_13 C49_13 1_555 1_555
H22_13 C50_13 1_555 1_555
C51_13 C47_13 1_555 1_555
C52_13 C49_13 1_555 1_555
C53_13 C51_13 1_555 1_555
C54_13 C52_13 1_555 1_555
C55_13 C53_13 1_555 1_555
C56_13 C54_13 1_555 1_555
C57_13 C15_13 1_555 1_555
C58_13 H24_13 1_555 1_555
H23_13 C57_13 1_555 1_555
C59_13 C14_13 1_555 1_555
C60_13 C56_13 1_555 1_555
C2_13 C3_13 1_555 1_555
C14_13 C15_13 1_555 1_555
C16_13 C23_13 1_555 1_555
C23_13 C28_13 1_555 1_555
C30_13 C33_13 1_555 1_555
C32_13 C34_13 1_555 1_555
C41_13 C46_13 1_555 1_555
C48_13 C51_13 1_555 1_555
C50_13 C52_13 1_555 1_555
C55_13 C59_13 1_555 1_555
C57_13 C60_13 1_555 1_555
C58_13 C59_13 1_555 1_555
C58_13 C60_13 1_555 1_555
Cu1_14 Cu2_14 1_555 1_555
O3_14 Cu1_14 1_555 1_555
O4_18 Cu2_14 1_555 1_555
O5_7 Cu1_14 1_555 1_555
O6_7 Cu1_14 1_555 1_555
O16_9 Cu2_14 1_555 1_555
O17_8 Cu2_14 1_555 1_555
O4_19 Cu8_5 1_555 1_555
O16_10 Cu8_5 1_555 1_555
Cu8_6 O2_10 1_555 1_555
O2_10 C1_14 1_555 1_555
O4_20 Cu8_6 1_555 1_555
C1_14 O14_3 1_555 1_555
C2_14 H1_14 1_555 1_555
C3_14 C1_14 1_555 1_555
C4_14 C3_14 1_555 1_555
H2_14 C4_14 1_555 1_555
C5_14 C4_14 1_555 1_555
C6_14 C5_14 1_555 1_555
C7_14 C6_14 1_555 1_555
C8_14 C7_14 1_555 1_555
C9_14 C8_14 1_555 1_555
H3_14 C9_14 1_555 1_555
C10_14 C9_14 1_555 1_555
H4_14 C10_14 1_555 1_555
C11_14 C10_14 1_555 1_555
C12_14 C11_14 1_555 1_555
C13_14 C12_14 1_555 1_555
C14_14 H5_14 1_555 1_555
C15_14 C13_14 1_555 1_555
Cu4_10 O9_14 1_555 1_555
Cu5_4 O10_14 1_555 1_555
Cu6_10 O11_14 1_555 1_555
Cu5_6 O12_14 1_555 1_555
Cu8_4 O19_7 1_555 1_555
Cu9_10 O20_14 1_555 1_555
Cu10_4 O21_14 1_555 1_555
Cu11_10 O22_14 1_555 1_555
Cu10_6 O23_14 1_555 1_555
O9_14 C17_14 1_555 1_555
O10_14 C18_14 1_555 1_555
O11_14 C19_14 1_555 1_555
O12_14 C20_14 1_555 1_555
O19_7 C16_14 1_555 1_555
O20_14 C17_14 1_555 1_555
O21_14 C18_14 1_555 1_555
O22_14 C19_14 1_555 1_555
O23_14 C20_14 1_555 1_555
C16_14 O15_2 1_555 1_555
C17_14 C24_14 1_555 1_555
C18_14 C25_14 1_555 1_555
C19_14 C26_14 1_555 1_555
C20_14 C27_14 1_555 1_555
C21_14 H6_14 1_555 1_555
C22_14 H7_14 1_555 1_555
C23_14 C2_14 1_555 1_555
C24_14 C21_14 1_555 1_555
C25_14 C21_14 1_555 1_555
C26_14 C22_14 1_555 1_555
C27_14 C22_14 1_555 1_555
C28_14 C5_14 1_555 1_555
C29_14 C25_14 1_555 1_555
C30_14 C24_14 1_555 1_555
C31_14 C26_14 1_555 1_555
C32_14 C27_14 1_555 1_555
H8_14 C28_14 1_555 1_555
H9_14 C30_14 1_555 1_555
H10_14 C29_14 1_555 1_555
H11_14 C31_14 1_555 1_555
H12_14 C32_14 1_555 1_555
C33_14 C29_14 1_555 1_555
C34_14 C31_14 1_555 1_555
C35_14 C33_14 1_555 1_555
C36_14 C34_14 1_555 1_555
C37_14 C35_14 1_555 1_555
C38_14 C36_14 1_555 1_555
C39_14 C37_14 1_555 1_555
C40_14 C38_14 1_555 1_555
C41_14 C8_14 1_555 1_555
C42_14 C39_14 1_555 1_555
C43_14 C39_14 1_555 1_555
C44_14 C40_14 1_555 1_555
C45_14 C40_14 1_555 1_555
H13_14 C41_14 1_555 1_555
H14_14 C42_14 1_555 1_555
H15_14 C43_14 1_555 1_555
H16_14 C44_14 1_555 1_555
H17_14 C45_14 1_555 1_555
C46_14 C11_14 1_555 1_555
C47_14 C43_14 1_555 1_555
C48_14 C42_14 1_555 1_555
C49_14 C44_14 1_555 1_555
C50_14 C45_14 1_555 1_555
H18_14 C46_14 1_555 1_555
H19_14 C48_14 1_555 1_555
H20_14 C47_14 1_555 1_555
H21_14 C49_14 1_555 1_555
H22_14 C50_14 1_555 1_555
C51_14 C47_14 1_555 1_555
C52_14 C49_14 1_555 1_555
C53_14 C51_14 1_555 1_555
C54_14 C52_14 1_555 1_555
C55_14 C53_14 1_555 1_555
C56_14 C54_14 1_555 1_555
C57_14 C15_14 1_555 1_555
C58_14 H24_14 1_555 1_555
H23_14 C57_14 1_555 1_555
C59_14 C14_14 1_555 1_555
C60_14 C56_14 1_555 1_555
C2_14 C3_14 1_555 1_555
C14_14 C15_14 1_555 1_555
C16_14 C23_14 1_555 1_555
C23_14 C28_14 1_555 1_555
C30_14 C33_14 1_555 1_555
C32_14 C34_14 1_555 1_555
C41_14 C46_14 1_555 1_555
C48_14 C51_14 1_555 1_555
C50_14 C52_14 1_555 1_555
C55_14 C59_14 1_555 1_555
C57_14 C60_14 1_555 1_555
C58_14 C59_14 1_555 1_555
C58_14 C60_14 1_555 1_555
O16_8 C1_15 1_555 1_555
C1_15 O5_6 1_555 1_555
C2_15 H1_15 1_555 1_555
C3_15 C1_15 1_555 1_555
C4_15 C3_15 1_555 1_555
H2_15 C4_15 1_555 1_555
C5_15 C4_15 1_555 1_555
C6_15 C5_15 1_555 1_555
C7_15 C6_15 1_555 1_555
C8_15 C7_15 1_555 1_555
C9_15 C8_15 1_555 1_555
H3_15 C9_15 1_555 1_555
C10_15 C9_15 1_555 1_555
H4_15 C10_15 1_555 1_555
C11_15 C10_15 1_555 1_555
C12_15 C11_15 1_555 1_555
C13_15 C12_15 1_555 1_555
C14_15 H5_15 1_555 1_555
C15_15 C13_15 1_555 1_555
Cu4_11 O9_15 1_555 1_555
Cu7_10 O10_15 1_555 1_555
Cu6_11 O11_15 1_555 1_555
Cu7_12 O12_15 1_555 1_555
Cu9_11 O20_15 1_555 1_555
Cu12_10 O21_15 1_555 1_555
Cu11_11 O22_15 1_555 1_555
Cu12_12 O23_15 1_555 1_555
O9_15 C17_15 1_555 1_555
O10_15 C18_15 1_555 1_555
O11_15 C19_15 1_555 1_555
O12_15 C20_15 1_555 1_555
O17_5 C16_15 1_555 1_555
O20_15 C17_15 1_555 1_555
O21_15 C18_15 1_555 1_555
O22_15 C19_15 1_555 1_555
O23_15 C20_15 1_555 1_555
C16_15 O6_5 1_555 1_555
C17_15 C24_15 1_555 1_555
C18_15 C25_15 1_555 1_555
C19_15 C26_15 1_555 1_555
C20_15 C27_15 1_555 1_555
C21_15 H6_15 1_555 1_555
C22_15 H7_15 1_555 1_555
C23_15 C2_15 1_555 1_555
C24_15 C21_15 1_555 1_555
C25_15 C21_15 1_555 1_555
C26_15 C22_15 1_555 1_555
C27_15 C22_15 1_555 1_555
C28_15 C5_15 1_555 1_555
C29_15 C25_15 1_555 1_555
C30_15 C24_15 1_555 1_555
C31_15 C26_15 1_555 1_555
C32_15 C27_15 1_555 1_555
H8_15 C28_15 1_555 1_555
H9_15 C30_15 1_555 1_555
H10_15 C29_15 1_555 1_555
H11_15 C31_15 1_555 1_555
H12_15 C32_15 1_555 1_555
C33_15 C29_15 1_555 1_555
C34_15 C31_15 1_555 1_555
C35_15 C33_15 1_555 1_555
C36_15 C34_15 1_555 1_555
C37_15 C35_15 1_555 1_555
C38_15 C36_15 1_555 1_555
C39_15 C37_15 1_555 1_555
C40_15 C38_15 1_555 1_555
C41_15 C8_15 1_555 1_555
C42_15 C39_15 1_555 1_555
C43_15 C39_15 1_555 1_555
C44_15 C40_15 1_555 1_555
C45_15 C40_15 1_555 1_555
H13_15 C41_15 1_555 1_555
H14_15 C42_15 1_555 1_555
H15_15 C43_15 1_555 1_555
H16_15 C44_15 1_555 1_555
H17_15 C45_15 1_555 1_555
C46_15 C11_15 1_555 1_555
C47_15 C43_15 1_555 1_555
C48_15 C42_15 1_555 1_555
C49_15 C44_15 1_555 1_555
C50_15 C45_15 1_555 1_555
H18_15 C46_15 1_555 1_555
H19_15 C48_15 1_555 1_555
H20_15 C47_15 1_555 1_555
H21_15 C49_15 1_555 1_555
H22_15 C50_15 1_555 1_555
C51_15 C47_15 1_555 1_555
C52_15 C49_15 1_555 1_555
C53_15 C51_15 1_555 1_555
C54_15 C52_15 1_555 1_555
C55_15 C53_15 1_555 1_555
C56_15 C54_15 1_555 1_555
C57_15 C15_15 1_555 1_555
C58_15 H24_15 1_555 1_555
H23_15 C57_15 1_555 1_555
C59_15 C14_15 1_555 1_555
C60_15 C56_15 1_555 1_555
C2_15 C3_15 1_555 1_555
C14_15 C15_15 1_555 1_555
C16_15 C23_15 1_555 1_555
C23_15 C28_15 1_555 1_555
C30_15 C33_15 1_555 1_555
C32_15 C34_15 1_555 1_555
C41_15 C46_15 1_555 1_555
C48_15 C51_15 1_555 1_555
C50_15 C52_15 1_555 1_555
C55_15 C59_15 1_555 1_555
C57_15 C60_15 1_555 1_555
C58_15 C59_15 1_555 1_555
C58_15 C60_15 1_555 1_555
O16_2 C1_16 1_555 1_555
C1_16 O5_2 1_555 1_555
C2_16 H1_16 1_555 1_555
C3_16 C1_16 1_555 1_555
C4_16 C3_16 1_555 1_555
H2_16 C4_16 1_555 1_555
C5_16 C4_16 1_555 1_555
C6_16 C5_16 1_555 1_555
C7_16 C6_16 1_555 1_555
C8_16 C7_16 1_555 1_555
C9_16 C8_16 1_555 1_555
H3_16 C9_16 1_555 1_555
C10_16 C9_16 1_555 1_555
H4_16 C10_16 1_555 1_555
C11_16 C10_16 1_555 1_555
C12_16 C11_16 1_555 1_555
C13_16 C12_16 1_555 1_555
C14_16 H5_16 1_555 1_555
C15_16 C13_16 1_555 1_555
Cu4_12 O9_16 1_555 1_555
Cu7_13 O10_16 1_555 1_555
Cu6_12 O11_16 1_555 1_555
Cu7_4 O12_16 1_555 1_555
Cu9_12 O20_16 1_555 1_555
Cu12_13 O21_16 1_555 1_555
Cu11_12 O22_16 1_555 1_555
Cu12_4 O23_16 1_555 1_555
O9_16 C17_16 1_555 1_555
O10_16 C18_16 1_555 1_555
O11_16 C19_16 1_555 1_555
O12_16 C20_16 1_555 1_555
O18_8 C16_16 1_555 1_555
O20_16 C17_16 1_555 1_555
O21_16 C18_16 1_555 1_555
O22_16 C19_16 1_555 1_555
O23_16 C20_16 1_555 1_555
C16_16 O7_7 1_555 1_555
C17_16 C24_16 1_555 1_555
C18_16 C25_16 1_555 1_555
C19_16 C26_16 1_555 1_555
C20_16 C27_16 1_555 1_555
C21_16 H6_16 1_555 1_555
C22_16 H7_16 1_555 1_555
C23_16 C2_16 1_555 1_555
C24_16 C21_16 1_555 1_555
C25_16 C21_16 1_555 1_555
C26_16 C22_16 1_555 1_555
C27_16 C22_16 1_555 1_555
C28_16 C5_16 1_555 1_555
C29_16 C25_16 1_555 1_555
C30_16 C24_16 1_555 1_555
C31_16 C26_16 1_555 1_555
C32_16 C27_16 1_555 1_555
H8_16 C28_16 1_555 1_555
H9_16 C30_16 1_555 1_555
H10_16 C29_16 1_555 1_555
H11_16 C31_16 1_555 1_555
H12_16 C32_16 1_555 1_555
C33_16 C29_16 1_555 1_555
C34_16 C31_16 1_555 1_555
C35_16 C33_16 1_555 1_555
C36_16 C34_16 1_555 1_555
C37_16 C35_16 1_555 1_555
C38_16 C36_16 1_555 1_555
C39_16 C37_16 1_555 1_555
C40_16 C38_16 1_555 1_555
C41_16 C8_16 1_555 1_555
C42_16 C39_16 1_555 1_555
C43_16 C39_16 1_555 1_555
C44_16 C40_16 1_555 1_555
C45_16 C40_16 1_555 1_555
H13_16 C41_16 1_555 1_555
H14_16 C42_16 1_555 1_555
H15_16 C43_16 1_555 1_555
H16_16 C44_16 1_555 1_555
H17_16 C45_16 1_555 1_555
C46_16 C11_16 1_555 1_555
C47_16 C43_16 1_555 1_555
C48_16 C42_16 1_555 1_555
C49_16 C44_16 1_555 1_555
C50_16 C45_16 1_555 1_555
H18_16 C46_16 1_555 1_555
H19_16 C48_16 1_555 1_555
H20_16 C47_16 1_555 1_555
H21_16 C49_16 1_555 1_555
H22_16 C50_16 1_555 1_555
C51_16 C47_16 1_555 1_555
C52_16 C49_16 1_555 1_555
C53_16 C51_16 1_555 1_555
C54_16 C52_16 1_555 1_555
C55_16 C53_16 1_555 1_555
C56_16 C54_16 1_555 1_555
C57_16 C15_16 1_555 1_555
C58_16 H24_16 1_555 1_555
H23_16 C57_16 1_555 1_555
C59_16 C14_16 1_555 1_555
C60_16 C56_16 1_555 1_555
C2_16 C3_16 1_555 1_555
C14_16 C15_16 1_555 1_555
C16_16 C23_16 1_555 1_555
C23_16 C28_16 1_555 1_555
C30_16 C33_16 1_555 1_555
C32_16 C34_16 1_555 1_555
C41_16 C46_16 1_555 1_555
C48_16 C51_16 1_555 1_555
C50_16 C52_16 1_555 1_555
C55_16 C59_16 1_555 1_555
C57_16 C60_16 1_555 1_555
C58_16 C59_16 1_555 1_555
C58_16 C60_16 1_555 1_555
Cu8_9 O2_11 1_555 1_555
O2_11 C1_17 1_555 1_555
O4_21 Cu8_9 1_555 1_555
C1_17 O14_5 1_555 1_555
C2_17 H1_17 1_555 1_555
C3_17 C1_17 1_555 1_555
C4_17 C3_17 1_555 1_555
H2_17 C4_17 1_555 1_555
C5_17 C4_17 1_555 1_555
C6_17 C5_17 1_555 1_555
C7_17 C6_17 1_555 1_555
C8_17 C7_17 1_555 1_555
C9_17 C8_17 1_555 1_555
H3_17 C9_17 1_555 1_555
C10_17 C9_17 1_555 1_555
H4_17 C10_17 1_555 1_555
C11_17 C10_17 1_555 1_555
C12_17 C11_17 1_555 1_555
C13_17 C12_17 1_555 1_555
C14_17 H5_17 1_555 1_555
C15_17 C13_17 1_555 1_555
Cu6_7 O9_17 1_555 1_555
Cu7_12 O10_17 1_555 1_555
Cu4_7 O11_17 1_555 1_555
Cu5_9 O12_17 1_555 1_555
Cu11_7 O20_17 1_555 1_555
Cu12_12 O21_17 1_555 1_555
Cu9_7 O22_17 1_555 1_555
Cu10_9 O23_17 1_555 1_555
O9_17 C17_17 1_555 1_555
O10_17 C18_17 1_555 1_555
O11_17 C19_17 1_555 1_555
O12_17 C20_17 1_555 1_555
O17_7 C16_17 1_555 1_555
O20_17 C17_17 1_555 1_555
O21_17 C18_17 1_555 1_555
O22_17 C19_17 1_555 1_555
O23_17 C20_17 1_555 1_555
C16_17 O6_6 1_555 1_555
C17_17 C24_17 1_555 1_555
C18_17 C25_17 1_555 1_555
C19_17 C26_17 1_555 1_555
C20_17 C27_17 1_555 1_555
C21_17 H6_17 1_555 1_555
C22_17 H7_17 1_555 1_555
C23_17 C2_17 1_555 1_555
C24_17 C21_17 1_555 1_555
C25_17 C21_17 1_555 1_555
C26_17 C22_17 1_555 1_555
C27_17 C22_17 1_555 1_555
C28_17 C5_17 1_555 1_555
C29_17 C25_17 1_555 1_555
C30_17 C24_17 1_555 1_555
C31_17 C26_17 1_555 1_555
C32_17 C27_17 1_555 1_555
H8_17 C28_17 1_555 1_555
H9_17 C30_17 1_555 1_555
H10_17 C29_17 1_555 1_555
H11_17 C31_17 1_555 1_555
H12_17 C32_17 1_555 1_555
C33_17 C29_17 1_555 1_555
C34_17 C31_17 1_555 1_555
C35_17 C33_17 1_555 1_555
C36_17 C34_17 1_555 1_555
C37_17 C35_17 1_555 1_555
C38_17 C36_17 1_555 1_555
C39_17 C37_17 1_555 1_555
C40_17 C38_17 1_555 1_555
C41_17 C8_17 1_555 1_555
C42_17 C39_17 1_555 1_555
C43_17 C39_17 1_555 1_555
C44_17 C40_17 1_555 1_555
C45_17 C40_17 1_555 1_555
H13_17 C41_17 1_555 1_555
H14_17 C42_17 1_555 1_555
H15_17 C43_17 1_555 1_555
H16_17 C44_17 1_555 1_555
H17_17 C45_17 1_555 1_555
C46_17 C11_17 1_555 1_555
C47_17 C43_17 1_555 1_555
C48_17 C42_17 1_555 1_555
C49_17 C44_17 1_555 1_555
C50_17 C45_17 1_555 1_555
H18_17 C46_17 1_555 1_555
H19_17 C48_17 1_555 1_555
H20_17 C47_17 1_555 1_555
H21_17 C49_17 1_555 1_555
H22_17 C50_17 1_555 1_555
C51_17 C47_17 1_555 1_555
C52_17 C49_17 1_555 1_555
C53_17 C51_17 1_555 1_555
C54_17 C52_17 1_555 1_555
C55_17 C53_17 1_555 1_555
C56_17 C54_17 1_555 1_555
C57_17 C15_17 1_555 1_555
C58_17 H24_17 1_555 1_555
H23_17 C57_17 1_555 1_555
C59_17 C14_17 1_555 1_555
C60_17 C56_17 1_555 1_555
C2_17 C3_17 1_555 1_555
C14_17 C15_17 1_555 1_555
C16_17 C23_17 1_555 1_555
C23_17 C28_17 1_555 1_555
C30_17 C33_17 1_555 1_555
C32_17 C34_17 1_555 1_555
C41_17 C46_17 1_555 1_555
C48_17 C51_17 1_555 1_555
C50_17 C52_17 1_555 1_555
C55_17 C59_17 1_555 1_555
C57_17 C60_17 1_555 1_555
C58_17 C59_17 1_555 1_555
C58_17 C60_17 1_555 1_555
O4_22 Cu8_10 1_555 1_555
O16_11 Cu8_10 1_555 1_555
O17_9 Cu8_10 1_555 1_555
O4_23 Cu8_3 1_555 1_555
O16_12 Cu8_3 1_555 1_555
Cu8_4 O2_12 1_555 1_555
O2_12 C1_18 1_555 1_555
O4_24 Cu8_4 1_555 1_555
C1_18 O13_2 1_555 1_555
C2_18 H1_18 1_555 1_555
C3_18 C1_18 1_555 1_555
C4_18 C3_18 1_555 1_555
H2_18 C4_18 1_555 1_555
C5_18 C4_18 1_555 1_555
C6_18 C5_18 1_555 1_555
C7_18 C6_18 1_555 1_555
C8_18 C7_18 1_555 1_555
C9_18 C8_18 1_555 1_555
H3_18 C9_18 1_555 1_555
C10_18 C9_18 1_555 1_555
H4_18 C10_18 1_555 1_555
C11_18 C10_18 1_555 1_555
C12_18 C11_18 1_555 1_555
C13_18 C12_18 1_555 1_555
C14_18 H5_18 1_555 1_555
C15_18 C13_18 1_555 1_555
Cu6_6 O9_18 1_555 1_555
Cu7_7 O10_18 1_555 1_555
Cu4_6 O11_18 1_555 1_555
Cu5_4 O12_18 1_555 1_555
Cu11_6 O20_18 1_555 1_555
Cu12_7 O21_18 1_555 1_555
Cu9_6 O22_18 1_555 1_555
Cu10_4 O23_18 1_555 1_555
O9_18 C17_18 1_555 1_555
O10_18 C18_18 1_555 1_555
O11_18 C19_18 1_555 1_555
O12_18 C20_18 1_555 1_555
O18_5 C16_18 1_555 1_555
O20_18 C17_18 1_555 1_555
O21_18 C18_18 1_555 1_555
O22_18 C19_18 1_555 1_555
O23_18 C20_18 1_555 1_555
C16_18 O7_4 1_555 1_555
C17_18 C24_18 1_555 1_555
C18_18 C25_18 1_555 1_555
C19_18 C26_18 1_555 1_555
C20_18 C27_18 1_555 1_555
C21_18 H6_18 1_555 1_555
C22_18 H7_18 1_555 1_555
C23_18 C2_18 1_555 1_555
C24_18 C21_18 1_555 1_555
C25_18 C21_18 1_555 1_555
C26_18 C22_18 1_555 1_555
C27_18 C22_18 1_555 1_555
C28_18 C5_18 1_555 1_555
C29_18 C25_18 1_555 1_555
C30_18 C24_18 1_555 1_555
C31_18 C26_18 1_555 1_555
C32_18 C27_18 1_555 1_555
H8_18 C28_18 1_555 1_555
H9_18 C30_18 1_555 1_555
H10_18 C29_18 1_555 1_555
H11_18 C31_18 1_555 1_555
H12_18 C32_18 1_555 1_555
C33_18 C29_18 1_555 1_555
C34_18 C31_18 1_555 1_555
C35_18 C33_18 1_555 1_555
C36_18 C34_18 1_555 1_555
C37_18 C35_18 1_555 1_555
C38_18 C36_18 1_555 1_555
C39_18 C37_18 1_555 1_555
C40_18 C38_18 1_555 1_555
C41_18 C8_18 1_555 1_555
C42_18 C39_18 1_555 1_555
C43_18 C39_18 1_555 1_555
C44_18 C40_18 1_555 1_555
C45_18 C40_18 1_555 1_555
H13_18 C41_18 1_555 1_555
H14_18 C42_18 1_555 1_555
H15_18 C43_18 1_555 1_555
H16_18 C44_18 1_555 1_555
H17_18 C45_18 1_555 1_555
C46_18 C11_18 1_555 1_555
C47_18 C43_18 1_555 1_555
C48_18 C42_18 1_555 1_555
C49_18 C44_18 1_555 1_555
C50_18 C45_18 1_555 1_555
H18_18 C46_18 1_555 1_555
H19_18 C48_18 1_555 1_555
H20_18 C47_18 1_555 1_555
H21_18 C49_18 1_555 1_555
H22_18 C50_18 1_555 1_555
C51_18 C47_18 1_555 1_555
C52_18 C49_18 1_555 1_555
C53_18 C51_18 1_555 1_555
C54_18 C52_18 1_555 1_555
C55_18 C53_18 1_555 1_555
C56_18 C54_18 1_555 1_555
C57_18 C15_18 1_555 1_555
C58_18 H24_18 1_555 1_555
H23_18 C57_18 1_555 1_555
C59_18 C14_18 1_555 1_555
C60_18 C56_18 1_555 1_555
C2_18 C3_18 1_555 1_555
C14_18 C15_18 1_555 1_555
C16_18 C23_18 1_555 1_555
C23_18 C28_18 1_555 1_555
C30_18 C33_18 1_555 1_555
C32_18 C34_18 1_555 1_555
C41_18 C46_18 1_555 1_555
C48_18 C51_18 1_555 1_555
C50_18 C52_18 1_555 1_555
C55_18 C59_18 1_555 1_555
C57_18 C60_18 1_555 1_555
C58_18 C59_18 1_555 1_555
C58_18 C60_18 1_555 1_555
O16_10 C1_19 1_555 1_555
C1_19 O13_3 1_555 1_555
C2_19 H1_19 1_555 1_555
C3_19 C1_19 1_555 1_555
C4_19 C3_19 1_555 1_555
H2_19 C4_19 1_555 1_555
C5_19 C4_19 1_555 1_555
C6_19 C5_19 1_555 1_555
C7_19 C6_19 1_555 1_555
C8_19 C7_19 1_555 1_555
C9_19 C8_19 1_555 1_555
H3_19 C9_19 1_555 1_555
C10_19 C9_19 1_555 1_555
H4_19 C10_19 1_555 1_555
C11_19 C10_19 1_555 1_555
C12_19 C11_19 1_555 1_555
C13_19 C12_19 1_555 1_555
C14_19 H5_19 1_555 1_555
C15_19 C13_19 1_555 1_555
Cu6 O9_19 1_555 1_555
Cu7_9 O10_19 1_555 1_555
Cu4 O11_19 1_555 1_555
Cu5_5 O12_19 1_555 1_555
Cu11 O20_19 1_555 1_555
Cu12_9 O21_19 1_555 1_555
Cu9 O22_19 1_555 1_555
Cu10_5 O23_19 1_555 1_555
O9_19 C17_19 1_555 1_555
O10_19 C18_19 1_555 1_555
O11_19 C19_19 1_555 1_555
O12_19 C20_19 1_555 1_555
O18_6 C16_19 1_555 1_555
O20_19 C17_19 1_555 1_555
O21_19 C18_19 1_555 1_555
O22_19 C19_19 1_555 1_555
O23_19 C20_19 1_555 1_555
C16_19 O7_5 1_555 1_555
C17_19 C24_19 1_555 1_555
C18_19 C25_19 1_555 1_555
C19_19 C26_19 1_555 1_555
C20_19 C27_19 1_555 1_555
C21_19 H6_19 1_555 1_555
C22_19 H7_19 1_555 1_555
C23_19 C2_19 1_555 1_555
C24_19 C21_19 1_555 1_555
C25_19 C21_19 1_555 1_555
C26_19 C22_19 1_555 1_555
C27_19 C22_19 1_555 1_555
C28_19 C5_19 1_555 1_555
C29_19 C25_19 1_555 1_555
C30_19 C24_19 1_555 1_555
C31_19 C26_19 1_555 1_555
C32_19 C27_19 1_555 1_555
H8_19 C28_19 1_555 1_555
H9_19 C30_19 1_555 1_555
H10_19 C29_19 1_555 1_555
H11_19 C31_19 1_555 1_555
H12_19 C32_19 1_555 1_555
C33_19 C29_19 1_555 1_555
C34_19 C31_19 1_555 1_555
C35_19 C33_19 1_555 1_555
C36_19 C34_19 1_555 1_555
C37_19 C35_19 1_555 1_555
C38_19 C36_19 1_555 1_555
C39_19 C37_19 1_555 1_555
C40_19 C38_19 1_555 1_555
C41_19 C8_19 1_555 1_555
C42_19 C39_19 1_555 1_555
C43_19 C39_19 1_555 1_555
C44_19 C40_19 1_555 1_555
C45_19 C40_19 1_555 1_555
H13_19 C41_19 1_555 1_555
H14_19 C42_19 1_555 1_555
H15_19 C43_19 1_555 1_555
H16_19 C44_19 1_555 1_555
H17_19 C45_19 1_555 1_555
C46_19 C11_19 1_555 1_555
C47_19 C43_19 1_555 1_555
C48_19 C42_19 1_555 1_555
C49_19 C44_19 1_555 1_555
C50_19 C45_19 1_555 1_555
H18_19 C46_19 1_555 1_555
H19_19 C48_19 1_555 1_555
H20_19 C47_19 1_555 1_555
H21_19 C49_19 1_555 1_555
H22_19 C50_19 1_555 1_555
C51_19 C47_19 1_555 1_555
C52_19 C49_19 1_555 1_555
C53_19 C51_19 1_555 1_555
C54_19 C52_19 1_555 1_555
C55_19 C53_19 1_555 1_555
C56_19 C54_19 1_555 1_555
C57_19 C15_19 1_555 1_555
C58_19 H24_19 1_555 1_555
H23_19 C57_19 1_555 1_555
C59_19 C14_19 1_555 1_555
C60_19 C56_19 1_555 1_555
C2_19 C3_19 1_555 1_555
C14_19 C15_19 1_555 1_555
C16_19 C23_19 1_555 1_555
C23_19 C28_19 1_555 1_555
C30_19 C33_19 1_555 1_555
C32_19 C34_19 1_555 1_555
C41_19 C46_19 1_555 1_555
C48_19 C51_19 1_555 1_555
C50_19 C52_19 1_555 1_555
C55_19 C59_19 1_555 1_555
C57_19 C60_19 1_555 1_555
C58_19 C59_19 1_555 1_555
C58_19 C60_19 1_555 1_555
O16_11 C1_20 1_555 1_555
C1_20 O13_5 1_555 1_555
C2_20 H1_20 1_555 1_555
C3_20 C1_20 1_555 1_555
C4_20 C3_20 1_555 1_555
H2_20 C4_20 1_555 1_555
C5_20 C4_20 1_555 1_555
C6_20 C5_20 1_555 1_555
C7_20 C6_20 1_555 1_555
C8_20 C7_20 1_555 1_555
C9_20 C8_20 1_555 1_555
H3_20 C9_20 1_555 1_555
C10_20 C9_20 1_555 1_555
H4_20 C10_20 1_555 1_555
C11_20 C10_20 1_555 1_555
C12_20 C11_20 1_555 1_555
C13_20 C12_20 1_555 1_555
C14_20 H5_20 1_555 1_555
C15_20 C13_20 1_555 1_555
Cu6_3 O9_20 1_555 1_555
Cu7_8 O10_20 1_555 1_555
Cu4_3 O11_20 1_555 1_555
Cu5_10 O12_20 1_555 1_555
Cu11_3 O20_20 1_555 1_555
Cu12_8 O21_20 1_555 1_555
Cu9_3 O22_20 1_555 1_555
Cu10_10 O23_20 1_555 1_555
O9_20 C17_20 1_555 1_555
O10_20 C18_20 1_555 1_555
O11_20 C19_20 1_555 1_555
O12_20 C20_20 1_555 1_555
O17_4 C16_20 1_555 1_555
O20_20 C17_20 1_555 1_555
O21_20 C18_20 1_555 1_555
O22_20 C19_20 1_555 1_555
O23_20 C20_20 1_555 1_555
C16_20 O6_4 1_555 1_555
C17_20 C24_20 1_555 1_555
C18_20 C25_20 1_555 1_555
C19_20 C26_20 1_555 1_555
C20_20 C27_20 1_555 1_555
C21_20 H6_20 1_555 1_555
C22_20 H7_20 1_555 1_555
C23_20 C2_20 1_555 1_555
C24_20 C21_20 1_555 1_555
C25_20 C21_20 1_555 1_555
C26_20 C22_20 1_555 1_555
C27_20 C22_20 1_555 1_555
C28_20 C5_20 1_555 1_555
C29_20 C25_20 1_555 1_555
C30_20 C24_20 1_555 1_555
C31_20 C26_20 1_555 1_555
C32_20 C27_20 1_555 1_555
H8_20 C28_20 1_555 1_555
H9_20 C30_20 1_555 1_555
H10_20 C29_20 1_555 1_555
H11_20 C31_20 1_555 1_555
H12_20 C32_20 1_555 1_555
C33_20 C29_20 1_555 1_555
C34_20 C31_20 1_555 1_555
C35_20 C33_20 1_555 1_555
C36_20 C34_20 1_555 1_555
C37_20 C35_20 1_555 1_555
C38_20 C36_20 1_555 1_555
C39_20 C37_20 1_555 1_555
C40_20 C38_20 1_555 1_555
C41_20 C8_20 1_555 1_555
C42_20 C39_20 1_555 1_555
C43_20 C39_20 1_555 1_555
C44_20 C40_20 1_555 1_555
C45_20 C40_20 1_555 1_555
H13_20 C41_20 1_555 1_555
H14_20 C42_20 1_555 1_555
H15_20 C43_20 1_555 1_555
H16_20 C44_20 1_555 1_555
H17_20 C45_20 1_555 1_555
C46_20 C11_20 1_555 1_555
C47_20 C43_20 1_555 1_555
C48_20 C42_20 1_555 1_555
C49_20 C44_20 1_555 1_555
C50_20 C45_20 1_555 1_555
H18_20 C46_20 1_555 1_555
H19_20 C48_20 1_555 1_555
H20_20 C47_20 1_555 1_555
H21_20 C49_20 1_555 1_555
H22_20 C50_20 1_555 1_555
C51_20 C47_20 1_555 1_555
C52_20 C49_20 1_555 1_555
C53_20 C51_20 1_555 1_555
C54_20 C52_20 1_555 1_555
C55_20 C53_20 1_555 1_555
C56_20 C54_20 1_555 1_555
C57_20 C15_20 1_555 1_555
C58_20 H24_20 1_555 1_555
H23_20 C57_20 1_555 1_555
C59_20 C14_20 1_555 1_555
C60_20 C56_20 1_555 1_555
C2_20 C3_20 1_555 1_555
C14_20 C15_20 1_555 1_555
C16_20 C23_20 1_555 1_555
C23_20 C28_20 1_555 1_555
C30_20 C33_20 1_555 1_555
C32_20 C34_20 1_555 1_555
C41_20 C46_20 1_555 1_555
C48_20 C51_20 1_555 1_555
C50_20 C52_20 1_555 1_555
C55_20 C59_20 1_555 1_555
C57_20 C60_20 1_555 1_555
C58_20 C59_20 1_555 1_555
C58_20 C60_20 1_555 1_555
O16 C1_21 1_555 1_555
C1_21 O5 1_555 1_555
C2_21 H1_21 1_555 1_555
C3_21 C1_21 1_555 1_555
C4_21 C3_21 1_555 1_555
H2_21 C4_21 1_555 1_555
C5_21 C4_21 1_555 1_555
C6_21 C5_21 1_555 1_555
C7_21 C6_21 1_555 1_555
C8_21 C7_21 1_555 1_555
C9_21 C8_21 1_555 1_555
H3_21 C9_21 1_555 1_555
C10_21 C9_21 1_555 1_555
H4_21 C10_21 1_555 1_555
C11_21 C10_21 1_555 1_555
C12_21 C11_21 1_555 1_555
C13_21 C12_21 1_555 1_555
C14_21 H5_21 1_555 1_555
C15_21 C13_21 1_555 1_555
Cu6_9 O9_21 1_555 1_555
Cu7_11 O10_21 1_555 1_555
Cu4_9 O11_21 1_555 1_555
Cu7_2 O12_21 1_555 1_555
Cu11_9 O20_21 1_555 1_555
Cu12_11 O21_21 1_555 1_555
Cu9_9 O22_21 1_555 1_555
Cu12_2 O23_21 1_555 1_555
O9_21 C17_21 1_555 1_555
O10_21 C18_21 1_555 1_555
O11_21 C19_21 1_555 1_555
O12_21 C20_21 1_555 1_555
O18_7 C16_21 1_555 1_555
O20_21 C17_21 1_555 1_555
O21_21 C18_21 1_555 1_555
O22_21 C19_21 1_555 1_555
O23_21 C20_21 1_555 1_555
C16_21 O7_6 1_555 1_555
C17_21 C24_21 1_555 1_555
C18_21 C25_21 1_555 1_555
C19_21 C26_21 1_555 1_555
C20_21 C27_21 1_555 1_555
C21_21 H6_21 1_555 1_555
C22_21 H7_21 1_555 1_555
C23_21 C2_21 1_555 1_555
C24_21 C21_21 1_555 1_555
C25_21 C21_21 1_555 1_555
C26_21 C22_21 1_555 1_555
C27_21 C22_21 1_555 1_555
C28_21 C5_21 1_555 1_555
C29_21 C25_21 1_555 1_555
C30_21 C24_21 1_555 1_555
C31_21 C26_21 1_555 1_555
C32_21 C27_21 1_555 1_555
H8_21 C28_21 1_555 1_555
H9_21 C30_21 1_555 1_555
H10_21 C29_21 1_555 1_555
H11_21 C31_21 1_555 1_555
H12_21 C32_21 1_555 1_555
C33_21 C29_21 1_555 1_555
C34_21 C31_21 1_555 1_555
C35_21 C33_21 1_555 1_555
C36_21 C34_21 1_555 1_555
C37_21 C35_21 1_555 1_555
C38_21 C36_21 1_555 1_555
C39_21 C37_21 1_555 1_555
C40_21 C38_21 1_555 1_555
C41_21 C8_21 1_555 1_555
C42_21 C39_21 1_555 1_555
C43_21 C39_21 1_555 1_555
C44_21 C40_21 1_555 1_555
C45_21 C40_21 1_555 1_555
H13_21 C41_21 1_555 1_555
H14_21 C42_21 1_555 1_555
H15_21 C43_21 1_555 1_555
H16_21 C44_21 1_555 1_555
H17_21 C45_21 1_555 1_555
C46_21 C11_21 1_555 1_555
C47_21 C43_21 1_555 1_555
C48_21 C42_21 1_555 1_555
C49_21 C44_21 1_555 1_555
C50_21 C45_21 1_555 1_555
H18_21 C46_21 1_555 1_555
H19_21 C48_21 1_555 1_555
H20_21 C47_21 1_555 1_555
H21_21 C49_21 1_555 1_555
H22_21 C50_21 1_555 1_555
C51_21 C47_21 1_555 1_555
C52_21 C49_21 1_555 1_555
C53_21 C51_21 1_555 1_555
C54_21 C52_21 1_555 1_555
C55_21 C53_21 1_555 1_555
C56_21 C54_21 1_555 1_555
C57_21 C15_21 1_555 1_555
C58_21 H24_21 1_555 1_555
H23_21 C57_21 1_555 1_555
C59_21 C14_21 1_555 1_555
C60_21 C56_21 1_555 1_555
C2_21 C3_21 1_555 1_555
C14_21 C15_21 1_555 1_555
C16_21 C23_21 1_555 1_555
C23_21 C28_21 1_555 1_555
C30_21 C33_21 1_555 1_555
C32_21 C34_21 1_555 1_555
C41_21 C46_21 1_555 1_555
C48_21 C51_21 1_555 1_555
C50_21 C52_21 1_555 1_555
C55_21 C59_21 1_555 1_555
C57_21 C60_21 1_555 1_555
C58_21 C59_21 1_555 1_555
C58_21 C60_21 1_555 1_555
O16_5 C1_22 1_555 1_555
C1_22 O5_4 1_555 1_555
C2_22 H1_22 1_555 1_555
C3_22 C1_22 1_555 1_555
C4_22 C3_22 1_555 1_555
H2_22 C4_22 1_555 1_555
C5_22 C4_22 1_555 1_555
C6_22 C5_22 1_555 1_555
C7_22 C6_22 1_555 1_555
C8_22 C7_22 1_555 1_555
C9_22 C8_22 1_555 1_555
H3_22 C9_22 1_555 1_555
C10_22 C9_22 1_555 1_555
H4_22 C10_22 1_555 1_555
C11_22 C10_22 1_555 1_555
C12_22 C11_22 1_555 1_555
C13_22 C12_22 1_555 1_555
C14_22 H5_22 1_555 1_555
C15_22 C13_22 1_555 1_555
Cu6_11 O9_22 1_555 1_555
Cu7_14 O10_22 1_555 1_555
Cu4_11 O11_22 1_555 1_555
Cu7_8 O12_22 1_555 1_555
Cu11_11 O20_22 1_555 1_555
Cu12_14 O21_22 1_555 1_555
Cu9_11 O22_22 1_555 1_555
Cu12_8 O23_22 1_555 1_555
O9_22 C17_22 1_555 1_555
O10_22 C18_22 1_555 1_555
O11_22 C19_22 1_555 1_555
O12_22 C20_22 1_555 1_555
O17_8 C16_22 1_555 1_555
O20_22 C17_22 1_555 1_555
O21_22 C18_22 1_555 1_555
O22_22 C19_22 1_555 1_555
O23_22 C20_22 1_555 1_555
C16_22 O6_7 1_555 1_555
C17_22 C24_22 1_555 1_555
C18_22 C25_22 1_555 1_555
C19_22 C26_22 1_555 1_555
C20_22 C27_22 1_555 1_555
C21_22 H6_22 1_555 1_555
C22_22 H7_22 1_555 1_555
C23_22 C2_22 1_555 1_555
C24_22 C21_22 1_555 1_555
C25_22 C21_22 1_555 1_555
C26_22 C22_22 1_555 1_555
C27_22 C22_22 1_555 1_555
C28_22 C5_22 1_555 1_555
C29_22 C25_22 1_555 1_555
C30_22 C24_22 1_555 1_555
C31_22 C26_22 1_555 1_555
C32_22 C27_22 1_555 1_555
H8_22 C28_22 1_555 1_555
H9_22 C30_22 1_555 1_555
H10_22 C29_22 1_555 1_555
H11_22 C31_22 1_555 1_555
H12_22 C32_22 1_555 1_555
C33_22 C29_22 1_555 1_555
C34_22 C31_22 1_555 1_555
C35_22 C33_22 1_555 1_555
C36_22 C34_22 1_555 1_555
C37_22 C35_22 1_555 1_555
C38_22 C36_22 1_555 1_555
C39_22 C37_22 1_555 1_555
C40_22 C38_22 1_555 1_555
C41_22 C8_22 1_555 1_555
C42_22 C39_22 1_555 1_555
C43_22 C39_22 1_555 1_555
C44_22 C40_22 1_555 1_555
C45_22 C40_22 1_555 1_555
H13_22 C41_22 1_555 1_555
H14_22 C42_22 1_555 1_555
H15_22 C43_22 1_555 1_555
H16_22 C44_22 1_555 1_555
H17_22 C45_22 1_555 1_555
C46_22 C11_22 1_555 1_555
C47_22 C43_22 1_555 1_555
C48_22 C42_22 1_555 1_555
C49_22 C44_22 1_555 1_555
C50_22 C45_22 1_555 1_555
H18_22 C46_22 1_555 1_555
H19_22 C48_22 1_555 1_555
H20_22 C47_22 1_555 1_555
H21_22 C49_22 1_555 1_555
H22_22 C50_22 1_555 1_555
C51_22 C47_22 1_555 1_555
C52_22 C49_22 1_555 1_555
C53_22 C51_22 1_555 1_555
C54_22 C52_22 1_555 1_555
C55_22 C53_22 1_555 1_555
C56_22 C54_22 1_555 1_555
C57_22 C15_22 1_555 1_555
C58_22 H24_22 1_555 1_555
H23_22 C57_22 1_555 1_555
C59_22 C14_22 1_555 1_555
C60_22 C56_22 1_555 1_555
C2_22 C3_22 1_555 1_555
C14_22 C15_22 1_555 1_555
C16_22 C23_22 1_555 1_555
C23_22 C28_22 1_555 1_555
C30_22 C33_22 1_555 1_555
C32_22 C34_22 1_555 1_555
C41_22 C46_22 1_555 1_555
C48_22 C51_22 1_555 1_555
C50_22 C52_22 1_555 1_555
C55_22 C59_22 1_555 1_555
C57_22 C60_22 1_555 1_555
C58_22 C59_22 1_555 1_555
C58_22 C60_22 1_555 1_555
O16_12 C1_23 1_555 1_555
C1_23 O14_2 1_555 1_555
C2_23 H1_23 1_555 1_555
C3_23 C1_23 1_555 1_555
C4_23 C3_23 1_555 1_555
H2_23 C4_23 1_555 1_555
C5_23 C4_23 1_555 1_555
C6_23 C5_23 1_555 1_555
C7_23 C6_23 1_555 1_555
C8_23 C7_23 1_555 1_555
C9_23 C8_23 1_555 1_555
H3_23 C9_23 1_555 1_555
C10_23 C9_23 1_555 1_555
H4_23 C10_23 1_555 1_555
C11_23 C10_23 1_555 1_555
C12_23 C11_23 1_555 1_555
C13_23 C12_23 1_555 1_555
C14_23 H5_23 1_555 1_555
C15_23 C13_23 1_555 1_555
Cu6_12 O9_23 1_555 1_555
Cu5_2 O10_23 1_555 1_555
Cu4_12 O11_23 1_555 1_555
Cu5_3 O12_23 1_555 1_555
Cu11_12 O20_23 1_555 1_555
Cu10_2 O21_23 1_555 1_555
Cu9_12 O22_23 1_555 1_555
Cu10_3 O23_23 1_555 1_555
O9_23 C17_23 1_555 1_555
O10_23 C18_23 1_555 1_555
O11_23 C19_23 1_555 1_555
O12_23 C20_23 1_555 1_555
O18_4 C16_23 1_555 1_555
O20_23 C17_23 1_555 1_555
O21_23 C18_23 1_555 1_555
O22_23 C19_23 1_555 1_555
O23_23 C20_23 1_555 1_555
C16_23 O15 1_555 1_555
C17_23 C24_23 1_555 1_555
C18_23 C25_23 1_555 1_555
C19_23 C26_23 1_555 1_555
C20_23 C27_23 1_555 1_555
C21_23 H6_23 1_555 1_555
C22_23 H7_23 1_555 1_555
C23_23 C2_23 1_555 1_555
C24_23 C21_23 1_555 1_555
C25_23 C21_23 1_555 1_555
C26_23 C22_23 1_555 1_555
C27_23 C22_23 1_555 1_555
C28_23 C5_23 1_555 1_555
C29_23 C25_23 1_555 1_555
C30_23 C24_23 1_555 1_555
C31_23 C26_23 1_555 1_555
C32_23 C27_23 1_555 1_555
H8_23 C28_23 1_555 1_555
H9_23 C30_23 1_555 1_555
H10_23 C29_23 1_555 1_555
H11_23 C31_23 1_555 1_555
H12_23 C32_23 1_555 1_555
C33_23 C29_23 1_555 1_555
C34_23 C31_23 1_555 1_555
C35_23 C33_23 1_555 1_555
C36_23 C34_23 1_555 1_555
C37_23 C35_23 1_555 1_555
C38_23 C36_23 1_555 1_555
C39_23 C37_23 1_555 1_555
C40_23 C38_23 1_555 1_555
C41_23 C8_23 1_555 1_555
C42_23 C39_23 1_555 1_555
C43_23 C39_23 1_555 1_555
C44_23 C40_23 1_555 1_555
C45_23 C40_23 1_555 1_555
H13_23 C41_23 1_555 1_555
H14_23 C42_23 1_555 1_555
H15_23 C43_23 1_555 1_555
H16_23 C44_23 1_555 1_555
H17_23 C45_23 1_555 1_555
C46_23 C11_23 1_555 1_555
C47_23 C43_23 1_555 1_555
C48_23 C42_23 1_555 1_555
C49_23 C44_23 1_555 1_555
C50_23 C45_23 1_555 1_555
H18_23 C46_23 1_555 1_555
H19_23 C48_23 1_555 1_555
H20_23 C47_23 1_555 1_555
H21_23 C49_23 1_555 1_555
H22_23 C50_23 1_555 1_555
C51_23 C47_23 1_555 1_555
C52_23 C49_23 1_555 1_555
C53_23 C51_23 1_555 1_555
C54_23 C52_23 1_555 1_555
C55_23 C53_23 1_555 1_555
C56_23 C54_23 1_555 1_555
C57_23 C15_23 1_555 1_555
C58_23 H24_23 1_555 1_555
H23_23 C57_23 1_555 1_555
C59_23 C14_23 1_555 1_555
C60_23 C56_23 1_555 1_555
C2_23 C3_23 1_555 1_555
C14_23 C15_23 1_555 1_555
C16_23 C23_23 1_555 1_555
C23_23 C28_23 1_555 1_555
C30_23 C33_23 1_555 1_555
C32_23 C34_23 1_555 1_555
C41_23 C46_23 1_555 1_555
C48_23 C51_23 1_555 1_555
C50_23 C52_23 1_555 1_555
C55_23 C59_23 1_555 1_555
C57_23 C60_23 1_555 1_555
C58_23 C59_23 1_555 1_555
C58_23 C60_23 1_555 1_555
O16_9 C1_24 1_555 1_555
C1_24 O5_7 1_555 1_555
C2_24 H1_24 1_555 1_555
C3_24 C1_24 1_555 1_555
C4_24 C3_24 1_555 1_555
H2_24 C4_24 1_555 1_555
C5_24 C4_24 1_555 1_555
C6_24 C5_24 1_555 1_555
C7_24 C6_24 1_555 1_555
C8_24 C7_24 1_555 1_555
C9_24 C8_24 1_555 1_555
H3_24 C9_24 1_555 1_555
C10_24 C9_24 1_555 1_555
H4_24 C10_24 1_555 1_555
C11_24 C10_24 1_555 1_555
C12_24 C11_24 1_555 1_555
C13_24 C12_24 1_555 1_555
C14_24 H5_24 1_555 1_555
C15_24 C13_24 1_555 1_555
Cu6_10 O9_24 1_555 1_555
Cu5_10 O10_24 1_555 1_555
Cu4_10 O11_24 1_555 1_555
Cu7_14 O12_24 1_555 1_555
Cu11_10 O20_24 1_555 1_555
Cu10_10 O21_24 1_555 1_555
Cu9_10 O22_24 1_555 1_555
Cu12_14 O23_24 1_555 1_555
O9_24 C17_24 1_555 1_555
O10_24 C18_24 1_555 1_555
O11_24 C19_24 1_555 1_555
O12_24 C20_24 1_555 1_555
O17_9 C16_24 1_555 1_555
O20_24 C17_24 1_555 1_555
O21_24 C18_24 1_555 1_555
O22_24 C19_24 1_555 1_555
O23_24 C20_24 1_555 1_555
C16_24 O15_5 1_555 1_555
C17_24 C24_24 1_555 1_555
C18_24 C25_24 1_555 1_555
C19_24 C26_24 1_555 1_555
C20_24 C27_24 1_555 1_555
C21_24 H6_24 1_555 1_555
C22_24 H7_24 1_555 1_555
C23_24 C2_24 1_555 1_555
C24_24 C21_24 1_555 1_555
C25_24 C21_24 1_555 1_555
C26_24 C22_24 1_555 1_555
C27_24 C22_24 1_555 1_555
C28_24 C5_24 1_555 1_555
C29_24 C25_24 1_555 1_555
C30_24 C24_24 1_555 1_555
C31_24 C26_24 1_555 1_555
C32_24 C27_24 1_555 1_555
H8_24 C28_24 1_555 1_555
H9_24 C30_24 1_555 1_555
H10_24 C29_24 1_555 1_555
H11_24 C31_24 1_555 1_555
H12_24 C32_24 1_555 1_555
C33_24 C29_24 1_555 1_555
C34_24 C31_24 1_555 1_555
C35_24 C33_24 1_555 1_555
C36_24 C34_24 1_555 1_555
C37_24 C35_24 1_555 1_555
C38_24 C36_24 1_555 1_555
C39_24 C37_24 1_555 1_555
C40_24 C38_24 1_555 1_555
C41_24 C8_24 1_555 1_555
C42_24 C39_24 1_555 1_555
C43_24 C39_24 1_555 1_555
C44_24 C40_24 1_555 1_555
C45_24 C40_24 1_555 1_555
H13_24 C41_24 1_555 1_555
H14_24 C42_24 1_555 1_555
H15_24 C43_24 1_555 1_555
H16_24 C44_24 1_555 1_555
H17_24 C45_24 1_555 1_555
C46_24 C11_24 1_555 1_555
C47_24 C43_24 1_555 1_555
C48_24 C42_24 1_555 1_555
C49_24 C44_24 1_555 1_555
C50_24 C45_24 1_555 1_555
H18_24 C46_24 1_555 1_555
H19_24 C48_24 1_555 1_555
H20_24 C47_24 1_555 1_555
H21_24 C49_24 1_555 1_555
H22_24 C50_24 1_555 1_555
C51_24 C47_24 1_555 1_555
C52_24 C49_24 1_555 1_555
C53_24 C51_24 1_555 1_555
C54_24 C52_24 1_555 1_555
C55_24 C53_24 1_555 1_555
C56_24 C54_24 1_555 1_555
C57_24 C15_24 1_555 1_555
C58_24 H24_24 1_555 1_555
H23_24 C57_24 1_555 1_555
C59_24 C14_24 1_555 1_555
C60_24 C56_24 1_555 1_555
C2_24 C3_24 1_555 1_555
C14_24 C15_24 1_555 1_555
C16_24 C23_24 1_555 1_555
C23_24 C28_24 1_555 1_555
C30_24 C33_24 1_555 1_555
C32_24 C34_24 1_555 1_555
C41_24 C46_24 1_555 1_555
C48_24 C51_24 1_555 1_555
C50_24 C52_24 1_555 1_555
C55_24 C59_24 1_555 1_555
C57_24 C60_24 1_555 1_555
C58_24 C59_24 1_555 1_555
C58_24 C60_24 1_555 1_555
Cu7_7 Cu12_7 1_555 1_555
O3_15 Cu7_7 1_555 1_555
O4_25 Cu12_7 1_555 1_555
Cu6_6 Cu11_6 1_555 1_555
O14_6 Cu6_6 1_555 1_555
O15_6 Cu6_6 1_555 1_555
O24_11 Cu6_6 1_555 1_555
Cu7_8 Cu12_8 1_555 1_555
O3_16 Cu7_8 1_555 1_555
O4_26 Cu12_8 1_555 1_555
Cu4_11 Cu9_11 1_555 1_555
O3_17 Cu4_11 1_555 1_555
O4_27 Cu9_11 1_555 1_555
O5_8 Cu4_11 1_555 1_555
O7_8 Cu4_11 1_555 1_555
O16_13 Cu9_11 1_555 1_555
O18_9 Cu9_11 1_555 1_555
Cu7_9 Cu12_9 1_555 1_555
O3_18 Cu7_9 1_555 1_555
O4_28 Cu12_9 1_555 1_555
Cu7_10 Cu12_10 1_555 1_555
O3_19 Cu7_10 1_555 1_555
O4_29 Cu12_10 1_555 1_555
O4_30 Cu11_6 1_555 1_555
O16_14 Cu11_6 1_555 1_555
O18_10 Cu11_6 1_555 1_555
Cu6 Cu11 1_555 1_555
O14_7 Cu6 1_555 1_555
O15_7 Cu6 1_555 1_555
O24_12 Cu6 1_555 1_555
Cu7 Cu12 1_555 1_555
O3_20 Cu7 1_555 1_555
O4_31 Cu12 1_555 1_555
Cu6_5 Cu11_5 1_555 1_555
O14_8 Cu6_5 1_555 1_555
O15_8 Cu6_5 1_555 1_555
O24_13 Cu6_5 1_555 1_555
Cu7_2 Cu12_2 1_555 1_555
O3_21 Cu7_2 1_555 1_555
O4_32 Cu12_2 1_555 1_555
Cu7_5 Cu12_5 1_555 1_555
O3_22 Cu7_5 1_555 1_555
O4_33 Cu12_5 1_555 1_555
Cu4_4 Cu9_4 1_555 1_555
O14_9 Cu4_4 1_555 1_555
O15_9 Cu4_4 1_555 1_555
O24_14 Cu4_4 1_555 1_555
Cu7_6 Cu12_6 1_555 1_555
O3_23 Cu7_6 1_555 1_555
O4_34 Cu12_6 1_555 1_555
Cu9_4 O2_13 1_555 1_555
O2_13 C1_25 1_555 1_555
O4_35 Cu9_4 1_555 1_555
C1_25 O14_9 1_555 1_555
C2_25 H1_25 1_555 1_555
C3_25 C1_25 1_555 1_555
C4_25 C3_25 1_555 1_555
H2_25 C4_25 1_555 1_555
C5_25 C4_25 1_555 1_555
C6_25 C5_25 1_555 1_555
C7_25 C6_25 1_555 1_555
C8_25 C7_25 1_555 1_555
C9_25 C8_25 1_555 1_555
H3_25 C9_25 1_555 1_555
C10_25 C9_25 1_555 1_555
H4_25 C10_25 1_555 1_555
C11_25 C10_25 1_555 1_555
C12_25 C11_25 1_555 1_555
C13_25 C12_25 1_555 1_555
C14_25 H5_25 1_555 1_555
C15_25 C13_25 1_555 1_555
Cu4_12 O9_25 1_555 1_555
Cu4_5 O10_25 1_555 1_555
Cu6_12 O11_25 1_555 1_555
Cu6_4 O12_25 1_555 1_555
Cu11_5 O19_8 1_555 1_555
Cu9_12 O20_25 1_555 1_555
Cu9_5 O21_25 1_555 1_555
Cu11_12 O22_25 1_555 1_555
Cu11_4 O23_25 1_555 1_555
O9_25 C17_25 1_555 1_555
O10_25 C18_25 1_555 1_555
O11_25 C19_25 1_555 1_555
O12_25 C20_25 1_555 1_555
O17_10 Cu9_4 1_555 1_555
O19_8 C16_25 1_555 1_555
O20_25 C17_25 1_555 1_555
O21_25 C18_25 1_555 1_555
O22_25 C19_25 1_555 1_555
O23_25 C20_25 1_555 1_555
C16_25 O15_8 1_555 1_555
C17_25 C24_25 1_555 1_555
C18_25 C25_25 1_555 1_555
C19_25 C26_25 1_555 1_555
C20_25 C27_25 1_555 1_555
C21_25 H6_25 1_555 1_555
C22_25 H7_25 1_555 1_555
C23_25 C2_25 1_555 1_555
C24_25 C21_25 1_555 1_555
C25_25 C21_25 1_555 1_555
C26_25 C22_25 1_555 1_555
C27_25 C22_25 1_555 1_555
C28_25 C5_25 1_555 1_555
C29_25 C25_25 1_555 1_555
C30_25 C24_25 1_555 1_555
C31_25 C26_25 1_555 1_555
C32_25 C27_25 1_555 1_555
H8_25 C28_25 1_555 1_555
H9_25 C30_25 1_555 1_555
H10_25 C29_25 1_555 1_555
H11_25 C31_25 1_555 1_555
H12_25 C32_25 1_555 1_555
C33_25 C29_25 1_555 1_555
C34_25 C31_25 1_555 1_555
C35_25 C33_25 1_555 1_555
C36_25 C34_25 1_555 1_555
C37_25 C35_25 1_555 1_555
C38_25 C36_25 1_555 1_555
C39_25 C37_25 1_555 1_555
C40_25 C38_25 1_555 1_555
C41_25 C8_25 1_555 1_555
C42_25 C39_25 1_555 1_555
C43_25 C39_25 1_555 1_555
C44_25 C40_25 1_555 1_555
C45_25 C40_25 1_555 1_555
H13_25 C41_25 1_555 1_555
H14_25 C42_25 1_555 1_555
H15_25 C43_25 1_555 1_555
H16_25 C44_25 1_555 1_555
H17_25 C45_25 1_555 1_555
C46_25 C11_25 1_555 1_555
C47_25 C43_25 1_555 1_555
C48_25 C42_25 1_555 1_555
C49_25 C44_25 1_555 1_555
C50_25 C45_25 1_555 1_555
H18_25 C46_25 1_555 1_555
H19_25 C48_25 1_555 1_555
H20_25 C47_25 1_555 1_555
H21_25 C49_25 1_555 1_555
H22_25 C50_25 1_555 1_555
C51_25 C47_25 1_555 1_555
C52_25 C49_25 1_555 1_555
C53_25 C51_25 1_555 1_555
C54_25 C52_25 1_555 1_555
C55_25 C53_25 1_555 1_555
C56_25 C54_25 1_555 1_555
C57_25 C15_25 1_555 1_555
C58_25 H24_25 1_555 1_555
H23_25 C57_25 1_555 1_555
C59_25 C14_25 1_555 1_555
C60_25 C56_25 1_555 1_555
C2_25 C3_25 1_555 1_555
C14_25 C15_25 1_555 1_555
C16_25 C23_25 1_555 1_555
C23_25 C28_25 1_555 1_555
C30_25 C33_25 1_555 1_555
C32_25 C34_25 1_555 1_555
C41_25 C46_25 1_555 1_555
C48_25 C51_25 1_555 1_555
C50_25 C52_25 1_555 1_555
C55_25 C59_25 1_555 1_555
C57_25 C60_25 1_555 1_555
C58_25 C59_25 1_555 1_555
C58_25 C60_25 1_555 1_555
Cu4_9 Cu9_9 1_555 1_555
O14_10 Cu4_9 1_555 1_555
O15_10 Cu4_9 1_555 1_555
O24_15 Cu4_9 1_555 1_555
Cu6_3 Cu11_3 1_555 1_555
Cu11_3 O2_14 1_555 1_555
O1_8 Cu6_3 1_555 1_555
O2_14 C1_26 1_555 1_555
O3_24 Cu6_3 1_555 1_555
O4_36 Cu11_3 1_555 1_555
C1_26 O1_8 1_555 1_555
C2_26 H1_26 1_555 1_555
C3_26 C1_26 1_555 1_555
C4_26 C3_26 1_555 1_555
H2_26 C4_26 1_555 1_555
C5_26 C4_26 1_555 1_555
C6_26 C5_26 1_555 1_555
C7_26 C6_26 1_555 1_555
C8_26 C7_26 1_555 1_555
C9_26 C8_26 1_555 1_555
H3_26 C9_26 1_555 1_555
C10_26 C9_26 1_555 1_555
H4_26 C10_26 1_555 1_555
C11_26 C10_26 1_555 1_555
C12_26 C11_26 1_555 1_555
C13_26 C12_26 1_555 1_555
C14_26 H5_26 1_555 1_555
C15_26 C13_26 1_555 1_555
Cu4_10 O9_26 1_555 1_555
Cu6_11 O10_26 1_555 1_555
Cu6_10 O11_26 1_555 1_555
Cu4_3 O12_26 1_555 1_555
Cu9_10 O20_26 1_555 1_555
Cu11_11 O21_26 1_555 1_555
Cu11_10 O22_26 1_555 1_555
Cu9_3 O23_26 1_555 1_555
O6_8 Cu6_3 1_555 1_555
O9_26 C17_26 1_555 1_555
O10_26 C18_26 1_555 1_555
O11_26 C19_26 1_555 1_555
O12_26 C20_26 1_555 1_555
O17_11 Cu11_3 1_555 1_555
O18_9 C16_26 1_555 1_555
O20_26 C17_26 1_555 1_555
O21_26 C18_26 1_555 1_555
O22_26 C19_26 1_555 1_555
O23_26 C20_26 1_555 1_555
C16_26 O7_8 1_555 1_555
C17_26 C24_26 1_555 1_555
C18_26 C25_26 1_555 1_555
C19_26 C26_26 1_555 1_555
C20_26 C27_26 1_555 1_555
C21_26 H6_26 1_555 1_555
C22_26 H7_26 1_555 1_555
C23_26 C2_26 1_555 1_555
C24_26 C21_26 1_555 1_555
C25_26 C21_26 1_555 1_555
C26_26 C22_26 1_555 1_555
C27_26 C22_26 1_555 1_555
C28_26 C5_26 1_555 1_555
C29_26 C25_26 1_555 1_555
C30_26 C24_26 1_555 1_555
C31_26 C26_26 1_555 1_555
C32_26 C27_26 1_555 1_555
H8_26 C28_26 1_555 1_555
H9_26 C30_26 1_555 1_555
H10_26 C29_26 1_555 1_555
H11_26 C31_26 1_555 1_555
H12_26 C32_26 1_555 1_555
C33_26 C29_26 1_555 1_555
C34_26 C31_26 1_555 1_555
C35_26 C33_26 1_555 1_555
C36_26 C34_26 1_555 1_555
C37_26 C35_26 1_555 1_555
C38_26 C36_26 1_555 1_555
C39_26 C37_26 1_555 1_555
C40_26 C38_26 1_555 1_555
C41_26 C8_26 1_555 1_555
C42_26 C39_26 1_555 1_555
C43_26 C39_26 1_555 1_555
C44_26 C40_26 1_555 1_555
C45_26 C40_26 1_555 1_555
H13_26 C41_26 1_555 1_555
H14_26 C42_26 1_555 1_555
H15_26 C43_26 1_555 1_555
H16_26 C44_26 1_555 1_555
H17_26 C45_26 1_555 1_555
C46_26 C11_26 1_555 1_555
C47_26 C43_26 1_555 1_555
C48_26 C42_26 1_555 1_555
C49_26 C44_26 1_555 1_555
C50_26 C45_26 1_555 1_555
H18_26 C46_26 1_555 1_555
H19_26 C48_26 1_555 1_555
H20_26 C47_26 1_555 1_555
H21_26 C49_26 1_555 1_555
H22_26 C50_26 1_555 1_555
C51_26 C47_26 1_555 1_555
C52_26 C49_26 1_555 1_555
C53_26 C51_26 1_555 1_555
C54_26 C52_26 1_555 1_555
C55_26 C53_26 1_555 1_555
C56_26 C54_26 1_555 1_555
C57_26 C15_26 1_555 1_555
C58_26 H24_26 1_555 1_555
H23_26 C57_26 1_555 1_555
C59_26 C14_26 1_555 1_555
C60_26 C56_26 1_555 1_555
C2_26 C3_26 1_555 1_555
C14_26 C15_26 1_555 1_555
C16_26 C23_26 1_555 1_555
C23_26 C28_26 1_555 1_555
C30_26 C33_26 1_555 1_555
C32_26 C34_26 1_555 1_555
C41_26 C46_26 1_555 1_555
C48_26 C51_26 1_555 1_555
C50_26 C52_26 1_555 1_555
C55_26 C59_26 1_555 1_555
C57_26 C60_26 1_555 1_555
C58_26 C59_26 1_555 1_555
C58_26 C60_26 1_555 1_555
O16_14 C1_27 1_555 1_555
C1_27 O14_6 1_555 1_555
C2_27 H1_27 1_555 1_555
C3_27 C1_27 1_555 1_555
C4_27 C3_27 1_555 1_555
H2_27 C4_27 1_555 1_555
C5_27 C4_27 1_555 1_555
C6_27 C5_27 1_555 1_555
C7_27 C6_27 1_555 1_555
C8_27 C7_27 1_555 1_555
C9_27 C8_27 1_555 1_555
H3_27 C9_27 1_555 1_555
C10_27 C9_27 1_555 1_555
H4_27 C10_27 1_555 1_555
C11_27 C10_27 1_555 1_555
C12_27 C11_27 1_555 1_555
C13_27 C12_27 1_555 1_555
C14_27 H5_27 1_555 1_555
C15_27 C13_27 1_555 1_555
Cu6_10 O9_27 1_555 1_555
Cu6_4 O10_27 1_555 1_555
Cu4_10 O11_27 1_555 1_555
Cu4_6 O12_27 1_555 1_555
Cu11_10 O20_27 1_555 1_555
Cu11_4 O21_27 1_555 1_555
Cu9_10 O22_27 1_555 1_555
Cu9_6 O23_27 1_555 1_555
O9_27 C17_27 1_555 1_555
O10_27 C18_27 1_555 1_555
O11_27 C19_27 1_555 1_555
O12_27 C20_27 1_555 1_555
O17_10 C16_27 1_555 1_555
O20_27 C17_27 1_555 1_555
O21_27 C18_27 1_555 1_555
O22_27 C19_27 1_555 1_555
O23_27 C20_27 1_555 1_555
C16_27 O15_9 1_555 1_555
C17_27 C24_27 1_555 1_555
C18_27 C25_27 1_555 1_555
C19_27 C26_27 1_555 1_555
C20_27 C27_27 1_555 1_555
C21_27 H6_27 1_555 1_555
C22_27 H7_27 1_555 1_555
C23_27 C2_27 1_555 1_555
C24_27 C21_27 1_555 1_555
C25_27 C21_27 1_555 1_555
C26_27 C22_27 1_555 1_555
C27_27 C22_27 1_555 1_555
C28_27 C5_27 1_555 1_555
C29_27 C25_27 1_555 1_555
C30_27 C24_27 1_555 1_555
C31_27 C26_27 1_555 1_555
C32_27 C27_27 1_555 1_555
H8_27 C28_27 1_555 1_555
H9_27 C30_27 1_555 1_555
H10_27 C29_27 1_555 1_555
H11_27 C31_27 1_555 1_555
H12_27 C32_27 1_555 1_555
C33_27 C29_27 1_555 1_555
C34_27 C31_27 1_555 1_555
C35_27 C33_27 1_555 1_555
C36_27 C34_27 1_555 1_555
C37_27 C35_27 1_555 1_555
C38_27 C36_27 1_555 1_555
C39_27 C37_27 1_555 1_555
C40_27 C38_27 1_555 1_555
C41_27 C8_27 1_555 1_555
C42_27 C39_27 1_555 1_555
C43_27 C39_27 1_555 1_555
C44_27 C40_27 1_555 1_555
C45_27 C40_27 1_555 1_555
H13_27 C41_27 1_555 1_555
H14_27 C42_27 1_555 1_555
H15_27 C43_27 1_555 1_555
H16_27 C44_27 1_555 1_555
H17_27 C45_27 1_555 1_555
C46_27 C11_27 1_555 1_555
C47_27 C43_27 1_555 1_555
C48_27 C42_27 1_555 1_555
C49_27 C44_27 1_555 1_555
C50_27 C45_27 1_555 1_555
H18_27 C46_27 1_555 1_555
H19_27 C48_27 1_555 1_555
H20_27 C47_27 1_555 1_555
H21_27 C49_27 1_555 1_555
H22_27 C50_27 1_555 1_555
C51_27 C47_27 1_555 1_555
C52_27 C49_27 1_555 1_555
C53_27 C51_27 1_555 1_555
C54_27 C52_27 1_555 1_555
C55_27 C53_27 1_555 1_555
C56_27 C54_27 1_555 1_555
C57_27 C15_27 1_555 1_555
C58_27 H24_27 1_555 1_555
H23_27 C57_27 1_555 1_555
C59_27 C14_27 1_555 1_555
C60_27 C56_27 1_555 1_555
C2_27 C3_27 1_555 1_555
C14_27 C15_27 1_555 1_555
C16_27 C23_27 1_555 1_555
C23_27 C28_27 1_555 1_555
C30_27 C33_27 1_555 1_555
C32_27 C34_27 1_555 1_555
C41_27 C46_27 1_555 1_555
C48_27 C51_27 1_555 1_555
C50_27 C52_27 1_555 1_555
C55_27 C59_27 1_555 1_555
C57_27 C60_27 1_555 1_555
C58_27 C59_27 1_555 1_555
C58_27 C60_27 1_555 1_555
Cu4_2 Cu9_2 1_555 1_555
O3_25 Cu4_2 1_555 1_555
O4_37 Cu9_2 1_555 1_555
O5_9 Cu4_2 1_555 1_555
O7_9 Cu4_2 1_555 1_555
O16_15 Cu9_2 1_555 1_555
O18_11 Cu9_2 1_555 1_555
Cu11_5 O2_15 1_555 1_555
O2_15 C1_28 1_555 1_555
O4_38 Cu11_5 1_555 1_555
C1_28 O14_8 1_555 1_555
C2_28 H1_28 1_555 1_555
C3_28 C1_28 1_555 1_555
C4_28 C3_28 1_555 1_555
H2_28 C4_28 1_555 1_555
C5_28 C4_28 1_555 1_555
C6_28 C5_28 1_555 1_555
C7_28 C6_28 1_555 1_555
C8_28 C7_28 1_555 1_555
C9_28 C8_28 1_555 1_555
H3_28 C9_28 1_555 1_555
C10_28 C9_28 1_555 1_555
H4_28 C10_28 1_555 1_555
C11_28 C10_28 1_555 1_555
C12_28 C11_28 1_555 1_555
C13_28 C12_28 1_555 1_555
C14_28 H5_28 1_555 1_555
C15_28 C13_28 1_555 1_555
Cu4_8 O9_28 1_555 1_555
Cu4 O10_28 1_555 1_555
Cu6_8 O11_28 1_555 1_555
Cu4_5 O12_28 1_555 1_555
Cu11 O19_9 1_555 1_555
Cu9_8 O20_28 1_555 1_555
Cu9 O21_28 1_555 1_555
Cu11_8 O22_28 1_555 1_555
Cu9_5 O23_28 1_555 1_555
O9_28 C17_28 1_555 1_555
O10_28 C18_28 1_555 1_555
O11_28 C19_28 1_555 1_555
O12_28 C20_28 1_555 1_555
O19_9 C16_28 1_555 1_555
O20_28 C17_28 1_555 1_555
O21_28 C18_28 1_555 1_555
O22_28 C19_28 1_555 1_555
O23_28 C20_28 1_555 1_555
C16_28 O15_7 1_555 1_555
C17_28 C24_28 1_555 1_555
C18_28 C25_28 1_555 1_555
C19_28 C26_28 1_555 1_555
C20_28 C27_28 1_555 1_555
C21_28 H6_28 1_555 1_555
C22_28 H7_28 1_555 1_555
C23_28 C2_28 1_555 1_555
C24_28 C21_28 1_555 1_555
C25_28 C21_28 1_555 1_555
C26_28 C22_28 1_555 1_555
C27_28 C22_28 1_555 1_555
C28_28 C5_28 1_555 1_555
C29_28 C25_28 1_555 1_555
C30_28 C24_28 1_555 1_555
C31_28 C26_28 1_555 1_555
C32_28 C27_28 1_555 1_555
H8_28 C28_28 1_555 1_555
H9_28 C30_28 1_555 1_555
H10_28 C29_28 1_555 1_555
H11_28 C31_28 1_555 1_555
H12_28 C32_28 1_555 1_555
C33_28 C29_28 1_555 1_555
C34_28 C31_28 1_555 1_555
C35_28 C33_28 1_555 1_555
C36_28 C34_28 1_555 1_555
C37_28 C35_28 1_555 1_555
C38_28 C36_28 1_555 1_555
C39_28 C37_28 1_555 1_555
C40_28 C38_28 1_555 1_555
C41_28 C8_28 1_555 1_555
C42_28 C39_28 1_555 1_555
C43_28 C39_28 1_555 1_555
C44_28 C40_28 1_555 1_555
C45_28 C40_28 1_555 1_555
H13_28 C41_28 1_555 1_555
H14_28 C42_28 1_555 1_555
H15_28 C43_28 1_555 1_555
H16_28 C44_28 1_555 1_555
H17_28 C45_28 1_555 1_555
C46_28 C11_28 1_555 1_555
C47_28 C43_28 1_555 1_555
C48_28 C42_28 1_555 1_555
C49_28 C44_28 1_555 1_555
C50_28 C45_28 1_555 1_555
H18_28 C46_28 1_555 1_555
H19_28 C48_28 1_555 1_555
H20_28 C47_28 1_555 1_555
H21_28 C49_28 1_555 1_555
H22_28 C50_28 1_555 1_555
C51_28 C47_28 1_555 1_555
C52_28 C49_28 1_555 1_555
C53_28 C51_28 1_555 1_555
C54_28 C52_28 1_555 1_555
C55_28 C53_28 1_555 1_555
C56_28 C54_28 1_555 1_555
C57_28 C15_28 1_555 1_555
C58_28 H24_28 1_555 1_555
H23_28 C57_28 1_555 1_555
C59_28 C14_28 1_555 1_555
C60_28 C56_28 1_555 1_555
C2_28 C3_28 1_555 1_555
C14_28 C15_28 1_555 1_555
C16_28 C23_28 1_555 1_555
C23_28 C28_28 1_555 1_555
C30_28 C33_28 1_555 1_555
C32_28 C34_28 1_555 1_555
C41_28 C46_28 1_555 1_555
C48_28 C51_28 1_555 1_555
C50_28 C52_28 1_555 1_555
C55_28 C59_28 1_555 1_555
C57_28 C60_28 1_555 1_555
C58_28 C59_28 1_555 1_555
C58_28 C60_28 1_555 1_555
O16_13 C1_29 1_555 1_555
C1_29 O5_8 1_555 1_555
C2_29 H1_29 1_555 1_555
C3_29 C1_29 1_555 1_555
C4_29 C3_29 1_555 1_555
H2_29 C4_29 1_555 1_555
C5_29 C4_29 1_555 1_555
C6_29 C5_29 1_555 1_555
C7_29 C6_29 1_555 1_555
C8_29 C7_29 1_555 1_555
C9_29 C8_29 1_555 1_555
H3_29 C9_29 1_555 1_555
C10_29 C9_29 1_555 1_555
H4_29 C10_29 1_555 1_555
C11_29 C10_29 1_555 1_555
C12_29 C11_29 1_555 1_555
C13_29 C12_29 1_555 1_555
C14_29 H5_29 1_555 1_555
C15_29 C13_29 1_555 1_555
Cu4_7 O9_29 1_555 1_555
Cu6_2 O10_29 1_555 1_555
Cu6_7 O11_29 1_555 1_555
Cu6_11 O12_29 1_555 1_555
Cu9_7 O20_29 1_555 1_555
Cu11_2 O21_29 1_555 1_555
Cu11_7 O22_29 1_555 1_555
Cu11_11 O23_29 1_555 1_555
O9_29 C17_29 1_555 1_555
O10_29 C18_29 1_555 1_555
O11_29 C19_29 1_555 1_555
O12_29 C20_29 1_555 1_555
O18_11 C16_29 1_555 1_555
O20_29 C17_29 1_555 1_555
O21_29 C18_29 1_555 1_555
O22_29 C19_29 1_555 1_555
O23_29 C20_29 1_555 1_555
C16_29 O7_9 1_555 1_555
C17_29 C24_29 1_555 1_555
C18_29 C25_29 1_555 1_555
C19_29 C26_29 1_555 1_555
C20_29 C27_29 1_555 1_555
C21_29 H6_29 1_555 1_555
C22_29 H7_29 1_555 1_555
C23_29 C2_29 1_555 1_555
C24_29 C21_29 1_555 1_555
C25_29 C21_29 1_555 1_555
C26_29 C22_29 1_555 1_555
C27_29 C22_29 1_555 1_555
C28_29 C5_29 1_555 1_555
C29_29 C25_29 1_555 1_555
C30_29 C24_29 1_555 1_555
C31_29 C26_29 1_555 1_555
C32_29 C27_29 1_555 1_555
H8_29 C28_29 1_555 1_555
H9_29 C30_29 1_555 1_555
H10_29 C29_29 1_555 1_555
H11_29 C31_29 1_555 1_555
H12_29 C32_29 1_555 1_555
C33_29 C29_29 1_555 1_555
C34_29 C31_29 1_555 1_555
C35_29 C33_29 1_555 1_555
C36_29 C34_29 1_555 1_555
C37_29 C35_29 1_555 1_555
C38_29 C36_29 1_555 1_555
C39_29 C37_29 1_555 1_555
C40_29 C38_29 1_555 1_555
C41_29 C8_29 1_555 1_555
C42_29 C39_29 1_555 1_555
C43_29 C39_29 1_555 1_555
C44_29 C40_29 1_555 1_555
C45_29 C40_29 1_555 1_555
H13_29 C41_29 1_555 1_555
H14_29 C42_29 1_555 1_555
H15_29 C43_29 1_555 1_555
H16_29 C44_29 1_555 1_555
H17_29 C45_29 1_555 1_555
C46_29 C11_29 1_555 1_555
C47_29 C43_29 1_555 1_555
C48_29 C42_29 1_555 1_555
C49_29 C44_29 1_555 1_555
C50_29 C45_29 1_555 1_555
H18_29 C46_29 1_555 1_555
H19_29 C48_29 1_555 1_555
H20_29 C47_29 1_555 1_555
H21_29 C49_29 1_555 1_555
H22_29 C50_29 1_555 1_555
C51_29 C47_29 1_555 1_555
C52_29 C49_29 1_555 1_555
C53_29 C51_29 1_555 1_555
C54_29 C52_29 1_555 1_555
C55_29 C53_29 1_555 1_555
C56_29 C54_29 1_555 1_555
C57_29 C15_29 1_555 1_555
C58_29 H24_29 1_555 1_555
H23_29 C57_29 1_555 1_555
C59_29 C14_29 1_555 1_555
C60_29 C56_29 1_555 1_555
C2_29 C3_29 1_555 1_555
C14_29 C15_29 1_555 1_555
C16_29 C23_29 1_555 1_555
C23_29 C28_29 1_555 1_555
C30_29 C33_29 1_555 1_555
C32_29 C34_29 1_555 1_555
C41_29 C46_29 1_555 1_555
C48_29 C51_29 1_555 1_555
C50_29 C52_29 1_555 1_555
C55_29 C59_29 1_555 1_555
C57_29 C60_29 1_555 1_555
C58_29 C59_29 1_555 1_555
C58_29 C60_29 1_555 1_555
Cu9_9 O2_16 1_555 1_555
O2_16 C1_30 1_555 1_555
O4_39 Cu9_9 1_555 1_555
C1_30 O14_10 1_555 1_555
C2_30 H1_30 1_555 1_555
C3_30 C1_30 1_555 1_555
C4_30 C3_30 1_555 1_555
H2_30 C4_30 1_555 1_555
C5_30 C4_30 1_555 1_555
C6_30 C5_30 1_555 1_555
C7_30 C6_30 1_555 1_555
C8_30 C7_30 1_555 1_555
C9_30 C8_30 1_555 1_555
H3_30 C9_30 1_555 1_555
C10_30 C9_30 1_555 1_555
H4_30 C10_30 1_555 1_555
C11_30 C10_30 1_555 1_555
C12_30 C11_30 1_555 1_555
C13_30 C12_30 1_555 1_555
C14_30 H5_30 1_555 1_555
C15_30 C13_30 1_555 1_555
Cu6_12 O9_30 1_555 1_555
Cu4_3 O10_30 1_555 1_555
Cu4_12 O11_30 1_555 1_555
Cu6_9 O12_30 1_555 1_555
Cu11_12 O20_30 1_555 1_555
Cu9_3 O21_30 1_555 1_555
Cu9_12 O22_30 1_555 1_555
Cu11_9 O23_30 1_555 1_555
O9_30 C17_30 1_555 1_555
O10_30 C18_30 1_555 1_555
O11_30 C19_30 1_555 1_555
O12_30 C20_30 1_555 1_555
O17_12 Cu9_9 1_555 1_555
O17_11 C16_30 1_555 1_555
O20_30 C17_30 1_555 1_555
O21_30 C18_30 1_555 1_555
O22_30 C19_30 1_555 1_555
O23_30 C20_30 1_555 1_555
C16_30 O6_8 1_555 1_555
C17_30 C24_30 1_555 1_555
C18_30 C25_30 1_555 1_555
C19_30 C26_30 1_555 1_555
C20_30 C27_30 1_555 1_555
C21_30 H6_30 1_555 1_555
C22_30 H7_30 1_555 1_555
C23_30 C2_30 1_555 1_555
C24_30 C21_30 1_555 1_555
C25_30 C21_30 1_555 1_555
C26_30 C22_30 1_555 1_555
C27_30 C22_30 1_555 1_555
C28_30 C5_30 1_555 1_555
C29_30 C25_30 1_555 1_555
C30_30 C24_30 1_555 1_555
C31_30 C26_30 1_555 1_555
C32_30 C27_30 1_555 1_555
H8_30 C28_30 1_555 1_555
H9_30 C30_30 1_555 1_555
H10_30 C29_30 1_555 1_555
H11_30 C31_30 1_555 1_555
H12_30 C32_30 1_555 1_555
C33_30 C29_30 1_555 1_555
C34_30 C31_30 1_555 1_555
C35_30 C33_30 1_555 1_555
C36_30 C34_30 1_555 1_555
C37_30 C35_30 1_555 1_555
C38_30 C36_30 1_555 1_555
C39_30 C37_30 1_555 1_555
C40_30 C38_30 1_555 1_555
C41_30 C8_30 1_555 1_555
C42_30 C39_30 1_555 1_555
C43_30 C39_30 1_555 1_555
C44_30 C40_30 1_555 1_555
C45_30 C40_30 1_555 1_555
H13_30 C41_30 1_555 1_555
H14_30 C42_30 1_555 1_555
H15_30 C43_30 1_555 1_555
H16_30 C44_30 1_555 1_555
H17_30 C45_30 1_555 1_555
C46_30 C11_30 1_555 1_555
C47_30 C43_30 1_555 1_555
C48_30 C42_30 1_555 1_555
C49_30 C44_30 1_555 1_555
C50_30 C45_30 1_555 1_555
H18_30 C46_30 1_555 1_555
H19_30 C48_30 1_555 1_555
H20_30 C47_30 1_555 1_555
H21_30 C49_30 1_555 1_555
H22_30 C50_30 1_555 1_555
C51_30 C47_30 1_555 1_555
C52_30 C49_30 1_555 1_555
C53_30 C51_30 1_555 1_555
C54_30 C52_30 1_555 1_555
C55_30 C53_30 1_555 1_555
C56_30 C54_30 1_555 1_555
C57_30 C15_30 1_555 1_555
C58_30 H24_30 1_555 1_555
H23_30 C57_30 1_555 1_555
C59_30 C14_30 1_555 1_555
C60_30 C56_30 1_555 1_555
C2_30 C3_30 1_555 1_555
C14_30 C15_30 1_555 1_555
C16_30 C23_30 1_555 1_555
C23_30 C28_30 1_555 1_555
C30_30 C33_30 1_555 1_555
C32_30 C34_30 1_555 1_555
C41_30 C46_30 1_555 1_555
C48_30 C51_30 1_555 1_555
C50_30 C52_30 1_555 1_555
C55_30 C59_30 1_555 1_555
C57_30 C60_30 1_555 1_555
C58_30 C59_30 1_555 1_555
C58_30 C60_30 1_555 1_555
O4_40 Cu11 1_555 1_555
O16_16 Cu11 1_555 1_555
O16_16 C1_31 1_555 1_555
C1_31 O14_7 1_555 1_555
C2_31 H1_31 1_555 1_555
C3_31 C1_31 1_555 1_555
C4_31 C3_31 1_555 1_555
H2_31 C4_31 1_555 1_555
C5_31 C4_31 1_555 1_555
C6_31 C5_31 1_555 1_555
C7_31 C6_31 1_555 1_555
C8_31 C7_31 1_555 1_555
C9_31 C8_31 1_555 1_555
H3_31 C9_31 1_555 1_555
C10_31 C9_31 1_555 1_555
H4_31 C10_31 1_555 1_555
C11_31 C10_31 1_555 1_555
C12_31 C11_31 1_555 1_555
C13_31 C12_31 1_555 1_555
C14_31 H5_31 1_555 1_555
C15_31 C13_31 1_555 1_555
Cu6_7 O9_31 1_555 1_555
Cu4_6 O10_31 1_555 1_555
Cu4_7 O11_31 1_555 1_555
Cu4 O12_31 1_555 1_555
Cu11_7 O20_31 1_555 1_555
Cu9_6 O21_31 1_555 1_555
Cu9_7 O22_31 1_555 1_555
Cu9 O23_31 1_555 1_555
O9_31 C17_31 1_555 1_555
O10_31 C18_31 1_555 1_555
O11_31 C19_31 1_555 1_555
O12_31 C20_31 1_555 1_555
O18_10 C16_31 1_555 1_555
O20_31 C17_31 1_555 1_555
O21_31 C18_31 1_555 1_555
O22_31 C19_31 1_555 1_555
O23_31 C20_31 1_555 1_555
C16_31 O15_6 1_555 1_555
C17_31 C24_31 1_555 1_555
C18_31 C25_31 1_555 1_555
C19_31 C26_31 1_555 1_555
C20_31 C27_31 1_555 1_555
C21_31 H6_31 1_555 1_555
C22_31 H7_31 1_555 1_555
C23_31 C2_31 1_555 1_555
C24_31 C21_31 1_555 1_555
C25_31 C21_31 1_555 1_555
C26_31 C22_31 1_555 1_555
C27_31 C22_31 1_555 1_555
C28_31 C5_31 1_555 1_555
C29_31 C25_31 1_555 1_555
C30_31 C24_31 1_555 1_555
C31_31 C26_31 1_555 1_555
C32_31 C27_31 1_555 1_555
H8_31 C28_31 1_555 1_555
H9_31 C30_31 1_555 1_555
H10_31 C29_31 1_555 1_555
H11_31 C31_31 1_555 1_555
H12_31 C32_31 1_555 1_555
C33_31 C29_31 1_555 1_555
C34_31 C31_31 1_555 1_555
C35_31 C33_31 1_555 1_555
C36_31 C34_31 1_555 1_555
C37_31 C35_31 1_555 1_555
C38_31 C36_31 1_555 1_555
C39_31 C37_31 1_555 1_555
C40_31 C38_31 1_555 1_555
C41_31 C8_31 1_555 1_555
C42_31 C39_31 1_555 1_555
C43_31 C39_31 1_555 1_555
C44_31 C40_31 1_555 1_555
C45_31 C40_31 1_555 1_555
H13_31 C41_31 1_555 1_555
H14_31 C42_31 1_555 1_555
H15_31 C43_31 1_555 1_555
H16_31 C44_31 1_555 1_555
H17_31 C45_31 1_555 1_555
C46_31 C11_31 1_555 1_555
C47_31 C43_31 1_555 1_555
C48_31 C42_31 1_555 1_555
C49_31 C44_31 1_555 1_555
C50_31 C45_31 1_555 1_555
H18_31 C46_31 1_555 1_555
H19_31 C48_31 1_555 1_555
H20_31 C47_31 1_555 1_555
H21_31 C49_31 1_555 1_555
H22_31 C50_31 1_555 1_555
C51_31 C47_31 1_555 1_555
C52_31 C49_31 1_555 1_555
C53_31 C51_31 1_555 1_555
C54_31 C52_31 1_555 1_555
C55_31 C53_31 1_555 1_555
C56_31 C54_31 1_555 1_555
C57_31 C15_31 1_555 1_555
C58_31 H24_31 1_555 1_555
H23_31 C57_31 1_555 1_555
C59_31 C14_31 1_555 1_555
C60_31 C56_31 1_555 1_555
C2_31 C3_31 1_555 1_555
C14_31 C15_31 1_555 1_555
C16_31 C23_31 1_555 1_555
C23_31 C28_31 1_555 1_555
C30_31 C33_31 1_555 1_555
C32_31 C34_31 1_555 1_555
C41_31 C46_31 1_555 1_555
C48_31 C51_31 1_555 1_555
C50_31 C52_31 1_555 1_555
C55_31 C59_31 1_555 1_555
C57_31 C60_31 1_555 1_555
C58_31 C59_31 1_555 1_555
C58_31 C60_31 1_555 1_555
O16_15 C1_32 1_555 1_555
C1_32 O5_9 1_555 1_555
C2_32 H1_32 1_555 1_555
C3_32 C1_32 1_555 1_555
C4_32 C3_32 1_555 1_555
H2_32 C4_32 1_555 1_555
C5_32 C4_32 1_555 1_555
C6_32 C5_32 1_555 1_555
C7_32 C6_32 1_555 1_555
C8_32 C7_32 1_555 1_555
C9_32 C8_32 1_555 1_555
H3_32 C9_32 1_555 1_555
C10_32 C9_32 1_555 1_555
H4_32 C10_32 1_555 1_555
C11_32 C10_32 1_555 1_555
C12_32 C11_32 1_555 1_555
C13_32 C12_32 1_555 1_555
C14_32 H5_32 1_555 1_555
C15_32 C13_32 1_555 1_555
Cu6_8 O9_32 1_555 1_555
Cu6_9 O10_32 1_555 1_555
Cu4_8 O11_32 1_555 1_555
Cu6_2 O12_32 1_555 1_555
Cu11_8 O20_32 1_555 1_555
Cu11_9 O21_32 1_555 1_555
Cu9_8 O22_32 1_555 1_555
Cu11_2 O23_32 1_555 1_555
O9_32 C17_32 1_555 1_555
O10_32 C18_32 1_555 1_555
O11_32 C19_32 1_555 1_555
O12_32 C20_32 1_555 1_555
O17_12 C16_32 1_555 1_555
O20_32 C17_32 1_555 1_555
O21_32 C18_32 1_555 1_555
O22_32 C19_32 1_555 1_555
O23_32 C20_32 1_555 1_555
C16_32 O15_10 1_555 1_555
C17_32 C24_32 1_555 1_555
C18_32 C25_32 1_555 1_555
C19_32 C26_32 1_555 1_555
C20_32 C27_32 1_555 1_555
C21_32 H6_32 1_555 1_555
C22_32 H7_32 1_555 1_555
C23_32 C2_32 1_555 1_555
C24_32 C21_32 1_555 1_555
C25_32 C21_32 1_555 1_555
C26_32 C22_32 1_555 1_555
C27_32 C22_32 1_555 1_555
C28_32 C5_32 1_555 1_555
C29_32 C25_32 1_555 1_555
C30_32 C24_32 1_555 1_555
C31_32 C26_32 1_555 1_555
C32_32 C27_32 1_555 1_555
H8_32 C28_32 1_555 1_555
H9_32 C30_32 1_555 1_555
H10_32 C29_32 1_555 1_555
H11_32 C31_32 1_555 1_555
H12_32 C32_32 1_555 1_555
C33_32 C29_32 1_555 1_555
C34_32 C31_32 1_555 1_555
C35_32 C33_32 1_555 1_555
C36_32 C34_32 1_555 1_555
C37_32 C35_32 1_555 1_555
C38_32 C36_32 1_555 1_555
C39_32 C37_32 1_555 1_555
C40_32 C38_32 1_555 1_555
C41_32 C8_32 1_555 1_555
C42_32 C39_32 1_555 1_555
C43_32 C39_32 1_555 1_555
C44_32 C40_32 1_555 1_555
C45_32 C40_32 1_555 1_555
H13_32 C41_32 1_555 1_555
H14_32 C42_32 1_555 1_555
H15_32 C43_32 1_555 1_555
H16_32 C44_32 1_555 1_555
H17_32 C45_32 1_555 1_555
C46_32 C11_32 1_555 1_555
C47_32 C43_32 1_555 1_555
C48_32 C42_32 1_555 1_555
C49_32 C44_32 1_555 1_555
C50_32 C45_32 1_555 1_555
H18_32 C46_32 1_555 1_555
H19_32 C48_32 1_555 1_555
H20_32 C47_32 1_555 1_555
H21_32 C49_32 1_555 1_555
H22_32 C50_32 1_555 1_555
C51_32 C47_32 1_555 1_555
C52_32 C49_32 1_555 1_555
C53_32 C51_32 1_555 1_555
C54_32 C52_32 1_555 1_555
C55_32 C53_32 1_555 1_555
C56_32 C54_32 1_555 1_555
C57_32 C15_32 1_555 1_555
C58_32 H24_32 1_555 1_555
H23_32 C57_32 1_555 1_555
C59_32 C14_32 1_555 1_555
C60_32 C56_32 1_555 1_555
C2_32 C3_32 1_555 1_555
C14_32 C15_32 1_555 1_555
C16_32 C23_32 1_555 1_555
C23_32 C28_32 1_555 1_555
C30_32 C33_32 1_555 1_555
C32_32 C34_32 1_555 1_555
C41_32 C46_32 1_555 1_555
C48_32 C51_32 1_555 1_555
C50_32 C52_32 1_555 1_555
C55_32 C59_32 1_555 1_555
C57_32 C60_32 1_555 1_555
C58_32 C59_32 1_555 1_555
C58_32 C60_32 1_555 1_555
Cu4_7 Cu9_7 1_555 1_555
O3_26 Cu4_7 1_555 1_555
O4_41 Cu9_7 1_555 1_555
Cu5_9 Cu10_9 1_555 1_555
O24_16 Cu5_9 1_555 1_555
Cu5_10 Cu10_10 1_555 1_555
O24_17 Cu5_10 1_555 1_555
Cu5_5 Cu10_5 1_555 1_555
O3_27 Cu5_5 1_555 1_555
O4_42 Cu10_5 1_555 1_555
Cu5_6 Cu10_6 1_555 1_555
O3_28 Cu5_6 1_555 1_555
O4_43 Cu10_6 1_555 1_555
Cu6_10 Cu11_10 1_555 1_555
O3_29 Cu6_10 1_555 1_555
O4_44 Cu11_10 1_555 1_555
O4_45 Cu10_9 1_555 1_555
O4_46 Cu10_10 1_555 1_555
Cu4_3 Cu9_3 1_555 1_555
O24_18 Cu4_3 1_555 1_555
Cu7_3 Cu12_3 1_555 1_555
O24_19 Cu7_3 1_555 1_555
Cu6_12 Cu11_12 1_555 1_555
O3_30 Cu6_12 1_555 1_555
O4_47 Cu11_12 1_555 1_555
Cu7_4 Cu12_4 1_555 1_555
O24_20 Cu7_4 1_555 1_555
Cu4_8 Cu9_8 1_555 1_555
O3_31 Cu4_8 1_555 1_555
O4_48 Cu9_8 1_555 1_555
Cu6_2 Cu11_2 1_555 1_555
O24_21 Cu6_2 1_555 1_555
O4_49 Cu11_2 1_555 1_555
Cu5 Cu10 1_555 1_555
O24_22 Cu5 1_555 1_555
Cu5_2 Cu10_2 1_555 1_555
O24_23 Cu5_2 1_555 1_555
Cu4 Cu9 1_555 1_555
O3_32 Cu4 1_555 1_555
O4_50 Cu9 1_555 1_555
Cu6_4 Cu11_4 1_555 1_555
O3_33 Cu6_4 1_555 1_555
O4_51 Cu11_4 1_555 1_555
O4_52 Cu12_3 1_555 1_555
O4_53 Cu12_4 1_555 1_555
O4_54 Cu10 1_555 1_555
O4_55 Cu10_2 1_555 1_555
O4_56 Cu9_3 1_555 1_555
Cu4_12 Cu9_12 1_555 1_555
O3_34 Cu4_12 1_555 1_555
O4_57 Cu9_12 1_555 1_555
Cu6_9 Cu11_9 1_555 1_555
O24_24 Cu6_9 1_555 1_555
Cu4_5 Cu9_5 1_555 1_555
O3_35 Cu4_5 1_555 1_555
O4_58 Cu9_5 1_555 1_555
Cu6_8 Cu11_8 1_555 1_555
O3_36 Cu6_8 1_555 1_555
O4_59 Cu11_8 1_555 1_555
O4_60 Cu11_9 1_555 1_555
Cu7_11 Cu12_11 1_555 1_555
O24_25 Cu7_11 1_555 1_555
Cu7_12 Cu12_12 1_555 1_555
O24_26 Cu7_12 1_555 1_555
Cu6_7 Cu11_7 1_555 1_555
O3_37 Cu6_7 1_555 1_555
O4_61 Cu11_7 1_555 1_555
Cu6_11 Cu11_11 1_555 1_555
O24_27 Cu6_11 1_555 1_555
Cu7_13 Cu12_13 1_555 1_555
O24_28 Cu7_13 1_555 1_555
Cu4_10 Cu9_10 1_555 1_555
O3_38 Cu4_10 1_555 1_555
O4_62 Cu9_10 1_555 1_555
Cu7_14 Cu12_14 1_555 1_555
O24_29 Cu7_14 1_555 1_555
O4_63 Cu12_13 1_555 1_555
O4_64 Cu12_14 1_555 1_555
Cu4_6 Cu9_6 1_555 1_555
O24_30 Cu4_6 1_555 1_555
Cu5_3 Cu10_3 1_555 1_555
O3_39 Cu5_3 1_555 1_555
O4_65 Cu10_3 1_555 1_555
Cu5_4 Cu10_4 1_555 1_555
O3_40 Cu5_4 1_555 1_555
O4_66 Cu10_4 1_555 1_555
Cu5_7 Cu10_7 1_555 1_555
O3_41 Cu5_7 1_555 1_555
O4_67 Cu10_7 1_555 1_555
Cu5_8 Cu10_8 1_555 1_555
O3_42 Cu5_8 1_555 1_555
O4_68 Cu10_8 1_555 1_555
O4_69 Cu11_11 1_555 1_555
O4_70 Cu9_6 1_555 1_555
O4_71 Cu12_11 1_555 1_555
O4_72 Cu12_12 1_555 1_555

#END
