
###############################################################################
#
# This file contains modified crystal structure data generated from the
# MOF subset of the Cambridge Structural Database (CSD) v543 
# hosted by the Cambridge Crystallographic Data Centre (CCDC).
#
# This work is licensed under the Creative Commons
# Attribution-NonCommercial-ShareAlike 4.0 International License.
# To view a copy of this license, visit
# http://creativecommons.org/licenses/by-nc-sa/4.0/
# or send a letter to
# Creative Commons, PO Box 1866, Mountain View, CA 94042, USA.
#
# CIF created using the CSD Python API on 29 September 2022
# The structure has been converted into the P1 space group
# The structure has a 3D framework
# The original CSD entry HABROT is in the monoclinic crystal system
# The framework has been calculated to contain at least 10.0% void space
# The void calculation uses a probe of radius 1.32A, grid spacing 0.4
#
###############################################################################

data_HABROT
_chemical_formula_moiety         '(C84 H60 B4 N32 O24 Zn8)n'
_symmetry_cell_setting           triclinic
_symmetry_space_group_name_H-M   'P 1'
_symmetry_Int_Tables_number      1
_space_group_name_Hall           'P 1'
loop_
_symmetry_equiv_pos_site_id
_symmetry_equiv_pos_as_xyz
1 x,y,z
_cell_length_a                   11.8587(15)
_cell_length_b                   13.7752(16)
_cell_length_c                   16.746(2)
_cell_angle_alpha                90
_cell_angle_beta                 96.469(7)
_cell_angle_gamma                90
_cell_volume                     2718.14
loop_
_atom_site_label
_atom_site_type_symbol
_atom_site_fract_x
_atom_site_fract_y
_atom_site_fract_z
B1 B 0.1851(4) 0.0824(3) 0.4067(3)
O5 O 0.7921(4) 0.1188(3) 0.1281(3)
O6 O 0.6869(3) 0.1260(2) 0.22994(17)
N2 N 0.0779(3) 0.1465(3) 0.3946(2)
N5 N 0.2301(3) 0.0771(2) 0.4971(2)
N6 N 0.3162(3) 0.1312(3) 0.6138(2)
N7 N 0.2808(3) 0.1246(2) 0.36250(19)
N8 N 0.3726(3) 0.2003(3) 0.2723(2)
C2 C 0.0503(7) 0.2219(6) 0.4408(5)
H2 H 0.074(5) 0.239(4) 0.491(3)
C7 C 0.2725(5) 0.0399(3) 0.6247(3)
H7 H 0.283(4) 0.006(4) 0.671(3)
C8 C 0.2211(4) 0.0060(3) 0.5539(3)
C9 C 0.2895(4) 0.1499(3) 0.5367(3)
H9 H 0.307(6) 0.209(5) 0.520(4)
C10 C 0.4491(4) 0.1441(3) 0.3208(3)
H10 H 0.525(5) 0.134(4) 0.314(3)
C11 C 0.3943(4) 0.0981(3) 0.3754(3)
H11 H 0.419(5) 0.067(4) 0.420(3)
C12 C 0.2722(4) 0.1862(3) 0.2989(2)
H12 H 0.205(4) 0.210(4) 0.276(3)
C13 C 0.7119(4) 0.0893(3) 0.1635(3)
C14 C 0.6389(4) 0.0062(3) 0.1304(2)
Zn3 Zn 0.77813(4) 0.24027(3) 0.26169(3)
Zn6 Zn 0.41716(5) 0.22631(4) 0.67917(3)
Zn7 Zn 0.41716(5) 0.27369(4) 0.17917(3)
Zn1 Zn 0.22187(4) 0.74027(3) 0.23831(3)
O3 O 0.4383(3) 0.8363(2) 0.26891(16)
O4 O 0.3135(3) 0.8128(2) 0.16243(17)
N3 N 0.1547(3) 0.9795(2) 0.37427(19)
N4 N 0.1693(3) 0.8393(3) 0.3116(2)
C4 C 0.0636(4) 0.9226(3) 0.3887(3)
H4 H 0.014(4) 0.958(4) 0.422(3)
C5 C 0.0729(4) 0.8366(3) 0.3505(3)
H5 H 0.029(4) 0.785(4) 0.351(3)
C6 C 0.2148(4) 0.9259(3) 0.3274(2)
H6 H 0.292(4) 0.947(4) 0.314(3)
H8 H 0.184(4) 0.945(3) 0.545(3)
C15 C 0.6500(4) 0.9696(3) 0.0539(3)
H13 H 0.710(4) 0.994(3) 0.020(3)
C16 C 0.5771(4) 0.8960(3) 0.0213(2)
C18 C 0.4955(4) 0.8576(3) 0.0649(2)
H14 H 0.452(4) 0.813(4) 0.046(3)
C19 C 0.4882(4) 0.8905(3) 0.1432(2)
C20 C 0.4077(4) 0.8436(3) 0.1946(2)
C21 C 0.5588(4) 0.9652(3) 0.1750(3)
H15 H 0.553(5) 0.987(4) 0.217(3)
Zn5 Zn 0.58284(5) 0.77369(4) 0.32083(3)
O8 O 0.3131(3) 0.6260(2) 0.27006(17)
N9 N 0.0853(3) 0.7081(3) 0.1615(2)
Zn2 Zn 0.58284(5) 0.72631(4) 0.82083(3)
O1 O 0.6767(3) 0.8793(3) 0.9068(2)
O2 O 0.5196(3) 0.7935(2) 0.90954(17)
C17 C 0.5936(4) 0.8562(3) 0.9393(3)
O7 O 0.4383(3) 0.6637(2) 0.76891(16)
N10 N 0.6838(3) 0.6312(3) 0.8862(2)
N11 N 0.6274(3) 0.7997(3) 0.7277(2)
N1 N 0.9147(3) 0.2081(3) 0.3385(2)
C1 C 0.9523(8) 0.2607(6) 0.4047(5)
H1 H 0.9164 0.3152 0.4226
C3 C 0.9931(4) 0.1411(3) 0.3348(3)
H3 H 0.981(4) 0.099(4) 0.291(3)
C1_2 C 0.0477(8) 0.7607(6) 0.0953(5)
H1_2 H 0.0836 0.8152 0.0774
C3_2 C 0.0069(4) 0.6411(3) 0.1652(3)
H3_2 H 0.019(4) 0.599(4) 0.209(3)
B1_2 B 0.8149(4) 0.5824(3) 0.0933(3)
O1_2 O 0.3233(3) 0.3793(3) 0.5932(2)
O2_2 O 0.4804(3) 0.2935(2) 0.59046(17)
O3_2 O 0.5617(3) 0.3363(2) 0.23109(16)
O4_2 O 0.6865(3) 0.3128(2) 0.33757(17)
O5_2 O 0.2079(4) 0.6188(3) 0.3719(3)
N2_2 N 0.9221(3) 0.6465(3) 0.1054(2)
N3_2 N 0.8453(3) 0.4795(2) 0.12573(19)
N4_2 N 0.8307(3) 0.3393(3) 0.1884(2)
N5_2 N 0.7699(3) 0.5771(2) 0.0029(2)
N7_2 N 0.7192(3) 0.6246(2) 0.13750(19)
N8_2 N 0.6274(3) 0.7003(3) 0.2277(2)
C2_2 C 0.9497(7) 0.7219(6) 0.0592(5)
H2_2 H 0.926(5) 0.739(4) 0.009(3)
C4_2 C 0.9364(4) 0.4226(3) 0.1113(3)
H4_2 H 0.986(4) 0.458(4) 0.078(3)
C5_2 C 0.9271(4) 0.3366(3) 0.1495(3)
H5_2 H 0.971(4) 0.285(4) 0.149(3)
C6_2 C 0.7852(4) 0.4259(3) 0.1726(2)
H6_2 H 0.708(4) 0.447(4) 0.186(3)
C10_2 C 0.5509(4) 0.6441(3) 0.1792(3)
H10_2 H 0.475(5) 0.634(4) 0.186(3)
C11_2 C 0.6057(4) 0.5981(3) 0.1246(3)
H11_2 H 0.581(5) 0.567(4) 0.080(3)
C12_2 C 0.7278(4) 0.6862(3) 0.2011(2)
H12_2 H 0.795(4) 0.710(4) 0.224(3)
C13_2 C 0.2881(4) 0.5893(3) 0.3365(3)
C14_2 C 0.3611(4) 0.5062(3) 0.3696(2)
C15_2 C 0.3500(4) 0.4696(3) 0.4461(3)
H13_2 H 0.290(4) 0.494(3) 0.480(3)
C16_2 C 0.4229(4) 0.3960(3) 0.4787(2)
C17_2 C 0.4064(4) 0.3562(3) 0.5607(3)
C18_2 C 0.5045(4) 0.3576(3) 0.4351(2)
H14_2 H 0.548(4) 0.313(4) 0.454(3)
C19_2 C 0.5118(4) 0.3905(3) 0.3568(2)
C20_2 C 0.5923(4) 0.3436(3) 0.3054(2)
C21_2 C 0.4412(4) 0.4652(3) 0.3250(3)
H15_2 H 0.447(5) 0.487(4) 0.283(3)
O7_2 O 0.5617(3) 0.1637(2) 0.73109(16)
N11_2 N 0.3726(3) 0.2997(3) 0.7723(2)
C7_2 C 0.7275(5) 0.5399(3) 0.8753(3)
H7_2 H 0.717(4) 0.506(4) 0.829(3)
C8_2 C 0.7789(4) 0.5060(3) 0.9461(3)
H8_2 H 0.816(4) 0.445(3) 0.955(3)
C9_2 C 0.7105(4) 0.6499(3) 0.9633(3)
H9_2 H 0.693(6) 0.709(5) 0.980(4)
N1_2 N 0.0853(3) 0.7919(3) 0.6615(2)
C1_3 C 0.0477(8) 0.7393(6) 0.5953(5)
H1_3 H 0.0836 0.6848 0.5774
C3_3 C 0.0069(4) 0.8589(3) 0.6652(3)
H3_3 H 0.019(4) 0.901(4) 0.709(3)
Zn4 Zn 0.22187(4) 0.75973(3) 0.73831(3)
O1_3 O 0.3233(3) 0.1207(3) 0.0932(2)
O2_3 O 0.4804(3) 0.2065(2) 0.09046(17)
C17_3 C 0.4064(4) 0.1438(3) 0.0607(3)
N10_2 N 0.3162(3) 0.3688(3) 0.1138(2)
Zn1_2 Zn 0.77813(4) 0.25973(3) 0.76169(3)
O4_3 O 0.6865(3) 0.1872(2) 0.83757(17)
N3_3 N 0.8453(3) 0.0205(2) 0.62573(19)
N4_3 N 0.8307(3) 0.1607(3) 0.6884(2)
C4_3 C 0.9364(4) 0.0774(3) 0.6113(3)
H4_3 H 0.986(4) 0.042(4) 0.578(3)
C5_3 C 0.9271(4) 0.1634(3) 0.6495(3)
H5_3 H 0.971(4) 0.215(4) 0.649(3)
C6_3 C 0.7852(4) 0.0741(3) 0.6726(2)
H6_3 H 0.708(4) 0.053(4) 0.686(3)
H8_3 H 0.816(4) 0.055(3) 0.455(3)
C15_3 C 0.3500(4) 0.0304(3) 0.9461(3)
H13_3 H 0.290(4) 0.006(3) 0.980(3)
C16_3 C 0.4229(4) 0.1040(3) 0.9787(2)
C18_3 C 0.5045(4) 0.1424(3) 0.9351(2)
H14_3 H 0.548(4) 0.187(4) 0.954(3)
C19_3 C 0.5118(4) 0.1095(3) 0.8568(2)
C20_3 C 0.5923(4) 0.1564(3) 0.8054(2)
C21_3 C 0.4412(4) 0.0348(3) 0.8250(3)
H15_3 H 0.447(5) 0.013(4) 0.783(3)
O8_2 O 0.6869(3) 0.3740(2) 0.72994(17)
N9_2 N 0.9147(3) 0.2919(3) 0.8385(2)
B1_3 B 0.8149(4) 0.9176(3) 0.5933(3)
O5_3 O 0.2079(4) 0.8812(3) 0.8719(3)
O6_2 O 0.3131(3) 0.8740(2) 0.77006(17)
N2_3 N 0.9221(3) 0.8535(3) 0.6054(2)
N5_3 N 0.7699(3) 0.9229(2) 0.5029(2)
N6_2 N 0.6838(3) 0.8688(3) 0.3862(2)
N7_3 N 0.7192(3) 0.8754(2) 0.63750(19)
C2_3 C 0.9497(7) 0.7781(6) 0.5592(5)
H2_3 H 0.926(5) 0.761(4) 0.509(3)
C7_3 C 0.7275(5) 0.9601(3) 0.3753(3)
H7_3 H 0.717(4) 0.994(4) 0.329(3)
C8_3 C 0.7789(4) 0.9940(3) 0.4461(3)
C9_3 C 0.7105(4) 0.8501(3) 0.4633(3)
H9_3 H 0.693(6) 0.791(5) 0.480(4)
C10_3 C 0.5509(4) 0.8559(3) 0.6792(3)
H10_3 H 0.475(5) 0.866(4) 0.686(3)
C11_3 C 0.6057(4) 0.9019(3) 0.6246(3)
H11_3 H 0.581(5) 0.933(4) 0.580(3)
C12_3 C 0.7278(4) 0.8138(3) 0.7011(2)
H12_3 H 0.795(4) 0.790(4) 0.724(3)
C13_3 C 0.2881(4) 0.9107(3) 0.8365(3)
C14_3 C 0.3611(4) 0.9938(3) 0.8696(2)
C7_4 C 0.2725(5) 0.4601(3) 0.1247(3)
H7_4 H 0.283(4) 0.494(4) 0.171(3)
C8_4 C 0.2211(4) 0.4940(3) 0.0539(3)
H8_4 H 0.184(4) 0.555(3) 0.045(3)
C9_4 C 0.2895(4) 0.3501(3) 0.0367(3)
H9_4 H 0.307(6) 0.291(5) 0.020(4)
B1_4 B 0.1851(4) 0.4176(3) 0.9067(3)
O1_4 O 0.6767(3) 0.6207(3) 0.4068(2)
O2_4 O 0.5196(3) 0.7065(2) 0.40954(17)
O4_4 O 0.3135(3) 0.6872(2) 0.66243(17)
O5_4 O 0.7921(4) 0.3812(3) 0.6281(3)
N2_4 N 0.0779(3) 0.3535(3) 0.8946(2)
N3_4 N 0.1547(3) 0.5205(2) 0.87427(19)
N4_4 N 0.1693(3) 0.6607(3) 0.8116(2)
N5_4 N 0.2301(3) 0.4229(2) 0.9971(2)
N7_4 N 0.2808(3) 0.3754(2) 0.86250(19)
C2_4 C 0.0503(7) 0.2781(6) 0.9408(5)
H2_4 H 0.074(5) 0.261(4) 0.991(3)
C4_4 C 0.0636(4) 0.5774(3) 0.8887(3)
H4_4 H 0.014(4) 0.542(4) 0.922(3)
C5_4 C 0.0729(4) 0.6634(3) 0.8505(3)
H5_4 H 0.029(4) 0.715(4) 0.851(3)
C6_4 C 0.2148(4) 0.5741(3) 0.8274(2)
H6_4 H 0.292(4) 0.553(4) 0.814(3)
C10_4 C 0.4491(4) 0.3559(3) 0.8208(3)
H10_4 H 0.525(5) 0.366(4) 0.814(3)
C11_4 C 0.3943(4) 0.4019(3) 0.8754(3)
H11_4 H 0.419(5) 0.433(4) 0.920(3)
C12_4 C 0.2722(4) 0.3138(3) 0.7989(2)
H12_4 H 0.205(4) 0.290(4) 0.776(3)
C13_4 C 0.7119(4) 0.4107(3) 0.6635(3)
C14_4 C 0.6389(4) 0.4938(3) 0.6304(2)
C15_4 C 0.6500(4) 0.5304(3) 0.5539(3)
H13_4 H 0.710(4) 0.506(3) 0.520(3)
C16_4 C 0.5771(4) 0.6040(3) 0.5213(2)
C17_4 C 0.5936(4) 0.6438(3) 0.4393(3)
C18_4 C 0.4955(4) 0.6424(3) 0.5649(2)
H14_4 H 0.452(4) 0.687(4) 0.546(3)
C19_4 C 0.4882(4) 0.6095(3) 0.6432(2)
C20_4 C 0.4077(4) 0.6564(3) 0.6946(2)
C21_4 C 0.5588(4) 0.5348(3) 0.6750(3)
H15_4 H 0.553(5) 0.513(4) 0.717(3)
C1_4 C 0.9523(8) 0.2393(6) 0.9047(5)
H1_4 H 0.9164 0.1848 0.9226
C3_4 C 0.9931(4) 0.3589(3) 0.8348(3)
H3_4 H 0.981(4) 0.401(4) 0.791(3)
loop_
_geom_bond_atom_site_label_1
_geom_bond_atom_site_label_2
_geom_bond_site_symmetry_1
_geom_bond_site_symmetry_2
B1 N2 1_555 1_555
O5 C13 1_555 1_555
O6 C13 1_555 1_555
N2 C2 1_555 1_555
N5 B1 1_555 1_555
N6 C7 1_555 1_555
N7 B1 1_555 1_555
N8 C10 1_555 1_555
H2 C2 1_555 1_555
C7 H7 1_555 1_555
C8 N5 1_555 1_555
C9 N5 1_555 1_555
H9 C9 1_555 1_555
C10 H10 1_555 1_555
C11 N7 1_555 1_555
H11 C11 1_555 1_555
C12 N7 1_555 1_555
H12 C12 1_555 1_555
C13 C14 1_555 1_555
Zn3 O6 1_555 1_555
Zn6 N6 1_555 1_555
Zn7 N8 1_555 1_555
N6 C9 1_555 1_555
N8 C12 1_555 1_555
C7 C8 1_555 1_555
C10 C11 1_555 1_555
Zn1 O4 1_555 1_555
O3 C20 1_555 1_555
O4 C20 1_555 1_555
N4 Zn1 1_555 1_555
C4 N3 1_555 1_555
H4 C4 1_555 1_555
C5 N4 1_555 1_555
H5 C5 1_555 1_555
C6 N3 1_555 1_555
H6 C6 1_555 1_555
C15 H13 1_555 1_555
C16 C15 1_555 1_555
C18 C16 1_555 1_555
H14 C18 1_555 1_555
C19 C18 1_555 1_555
C20 C19 1_555 1_555
H15 C21 1_555 1_555
Zn5 O3 1_555 1_555
O8 Zn1 1_555 1_555
N9 Zn1 1_555 1_555
N4 C6 1_555 1_555
C4 C5 1_555 1_555
C19 C21 1_555 1_555
Zn2 O2 1_555 1_555
O1 C17 1_555 1_555
O2 C17 1_555 1_555
O7 Zn2 1_555 1_555
N10 Zn2 1_555 1_555
N11 Zn2 1_555 1_555
N1 C1 1_555 1_555
C1 H1 1_555 1_555
C3 N1 1_555 1_555
H3 C3 1_555 1_555
Zn3 N1 1_555 1_555
N9 C1_2 1_555 1_555
C1_2 H1_2 1_555 1_555
C3_2 N9 1_555 1_555
H3_2 C3_2 1_555 1_555
B1_2 N2_2 1_555 1_555
Zn3 O4_2 1_555 1_555
Zn6 O2_2 1_555 1_555
O1_2 C17_2 1_555 1_555
O2_2 C17_2 1_555 1_555
O3_2 C20_2 1_555 1_555
O4_2 C20_2 1_555 1_555
O5_2 C13_2 1_555 1_555
O8 C13_2 1_555 1_555
N2_2 C2_2 1_555 1_555
N3_2 B1_2 1_555 1_555
N4_2 Zn3 1_555 1_555
N5_2 B1_2 1_555 1_555
N7_2 B1_2 1_555 1_555
N8_2 C10_2 1_555 1_555
H2_2 C2_2 1_555 1_555
C4_2 N3_2 1_555 1_555
H4_2 C4_2 1_555 1_555
C5_2 N4_2 1_555 1_555
H5_2 C5_2 1_555 1_555
C6_2 N3_2 1_555 1_555
H6_2 C6_2 1_555 1_555
C10_2 H10_2 1_555 1_555
C11_2 N7_2 1_555 1_555
H11_2 C11_2 1_555 1_555
C12_2 N7_2 1_555 1_555
H12_2 C12_2 1_555 1_555
C13_2 C14_2 1_555 1_555
C14_2 C15_2 1_555 1_555
C15_2 H13_2 1_555 1_555
C16_2 C15_2 1_555 1_555
C17_2 C16_2 1_555 1_555
C18_2 C16_2 1_555 1_555
H14_2 C18_2 1_555 1_555
C19_2 C18_2 1_555 1_555
C20_2 C19_2 1_555 1_555
C21_2 C14_2 1_555 1_555
H15_2 C21_2 1_555 1_555
Zn7 O3_2 1_555 1_555
Zn5 N8_2 1_555 1_555
O7_2 Zn6 1_555 1_555
N11_2 Zn6 1_555 1_555
N4_2 C6_2 1_555 1_555
N8_2 C12_2 1_555 1_555
C4_2 C5_2 1_555 1_555
C10_2 C11_2 1_555 1_555
C19_2 C21_2 1_555 1_555
N10 C7_2 1_555 1_555
C7_2 H7_2 1_555 1_555
H8_2 C8_2 1_555 1_555
H9_2 C9_2 1_555 1_555
N10 C9_2 1_555 1_555
C7_2 C8_2 1_555 1_555
N1_2 C1_3 1_555 1_555
C1_3 H1_3 1_555 1_555
C3_3 N1_2 1_555 1_555
H3_3 C3_3 1_555 1_555
Zn4 N1_2 1_555 1_555
Zn7 O2_3 1_555 1_555
O1_3 C17_3 1_555 1_555
O2_3 C17_3 1_555 1_555
N10_2 Zn7 1_555 1_555
Zn1_2 O4_3 1_555 1_555
O7_2 C20_3 1_555 1_555
O4_3 C20_3 1_555 1_555
N4_3 Zn1_2 1_555 1_555
C4_3 N3_3 1_555 1_555
H4_3 C4_3 1_555 1_555
C5_3 N4_3 1_555 1_555
H5_3 C5_3 1_555 1_555
C6_3 N3_3 1_555 1_555
H6_3 C6_3 1_555 1_555
C15_3 H13_3 1_555 1_555
C16_3 C15_3 1_555 1_555
C18_3 C16_3 1_555 1_555
H14_3 C18_3 1_555 1_555
C19_3 C18_3 1_555 1_555
C20_3 C19_3 1_555 1_555
H15_3 C21_3 1_555 1_555
O8_2 Zn1_2 1_555 1_555
N9_2 Zn1_2 1_555 1_555
N4_3 C6_3 1_555 1_555
C4_3 C5_3 1_555 1_555
C19_3 C21_3 1_555 1_555
B1_3 N2_3 1_555 1_555
O5_3 C13_3 1_555 1_555
O6_2 C13_3 1_555 1_555
N2_3 C2_3 1_555 1_555
N5_3 B1_3 1_555 1_555
N6_2 C7_3 1_555 1_555
N7_3 B1_3 1_555 1_555
N11 C10_3 1_555 1_555
H2_3 C2_3 1_555 1_555
C7_3 H7_3 1_555 1_555
C8_3 N5_3 1_555 1_555
C9_3 N5_3 1_555 1_555
H9_3 C9_3 1_555 1_555
C10_3 H10_3 1_555 1_555
C11_3 N7_3 1_555 1_555
H11_3 C11_3 1_555 1_555
C12_3 N7_3 1_555 1_555
H12_3 C12_3 1_555 1_555
C13_3 C14_3 1_555 1_555
Zn4 O6_2 1_555 1_555
Zn5 N6_2 1_555 1_555
N6_2 C9_3 1_555 1_555
N11 C12_3 1_555 1_555
C7_3 C8_3 1_555 1_555
C10_3 C11_3 1_555 1_555
N10_2 C7_4 1_555 1_555
C7_4 H7_4 1_555 1_555
H8_4 C8_4 1_555 1_555
H9_4 C9_4 1_555 1_555
N10_2 C9_4 1_555 1_555
C7_4 C8_4 1_555 1_555
B1_4 N2_4 1_555 1_555
Zn4 O4_4 1_555 1_555
Zn5 O2_4 1_555 1_555
O1_4 C17_4 1_555 1_555
O2_4 C17_4 1_555 1_555
O7 C20_4 1_555 1_555
O4_4 C20_4 1_555 1_555
O5_4 C13_4 1_555 1_555
O8_2 C13_4 1_555 1_555
N2_4 C2_4 1_555 1_555
N3_4 B1_4 1_555 1_555
N4_4 Zn4 1_555 1_555
N5_4 B1_4 1_555 1_555
N7_4 B1_4 1_555 1_555
N11_2 C10_4 1_555 1_555
H2_4 C2_4 1_555 1_555
C4_4 N3_4 1_555 1_555
H4_4 C4_4 1_555 1_555
C5_4 N4_4 1_555 1_555
H5_4 C5_4 1_555 1_555
C6_4 N3_4 1_555 1_555
H6_4 C6_4 1_555 1_555
C10_4 H10_4 1_555 1_555
C11_4 N7_4 1_555 1_555
H11_4 C11_4 1_555 1_555
C12_4 N7_4 1_555 1_555
H12_4 C12_4 1_555 1_555
C13_4 C14_4 1_555 1_555
C14_4 C15_4 1_555 1_555
C15_4 H13_4 1_555 1_555
C16_4 C15_4 1_555 1_555
C17_4 C16_4 1_555 1_555
C18_4 C16_4 1_555 1_555
H14_4 C18_4 1_555 1_555
C19_4 C18_4 1_555 1_555
C20_4 C19_4 1_555 1_555
C21_4 C14_4 1_555 1_555
H15_4 C21_4 1_555 1_555
N4_4 C6_4 1_555 1_555
N11_2 C12_4 1_555 1_555
C4_4 C5_4 1_555 1_555
C10_4 C11_4 1_555 1_555
C19_4 C21_4 1_555 1_555
N9_2 C1_4 1_555 1_555
C1_4 H1_4 1_555 1_555
C3_4 N9_2 1_555 1_555
H3_4 C3_4 1_555 1_555

#END
