
###############################################################################
#
# This file contains modified crystal structure data generated from the
# MOF subset of the Cambridge Structural Database (CSD) v543 
# hosted by the Cambridge Crystallographic Data Centre (CCDC).
#
# This work is licensed under the Creative Commons
# Attribution-NonCommercial-ShareAlike 4.0 International License.
# To view a copy of this license, visit
# http://creativecommons.org/licenses/by-nc-sa/4.0/
# or send a letter to
# Creative Commons, PO Box 1866, Mountain View, CA 94042, USA.
#
# CIF created using the CSD Python API on 29 September 2022
# The structure has been converted into the P1 space group
# The structure has a 3D framework
# The original CSD entry HABREJ is in the tetragonal crystal system
# The original CSD entry HABREJ is in a Sohncke space group
# The framework has been calculated to contain at least 10.0% void space
# The void calculation uses a probe of radius 1.32A, grid spacing 0.4
#
###############################################################################

data_HABREJ
_chemical_formula_moiety         '(C184 H152 B8 N76 O32 Zn16)n'
_symmetry_cell_setting           triclinic
_symmetry_space_group_name_H-M   'P 1'
_symmetry_Int_Tables_number      1
_space_group_name_Hall           'P 1'
loop_
_symmetry_equiv_pos_site_id
_symmetry_equiv_pos_as_xyz
1 x,y,z
_cell_length_a                   13.0584(18)
_cell_length_b                   13.0584(18)
_cell_length_c                   53.731(11)
_cell_angle_alpha                90
_cell_angle_beta                 90
_cell_angle_gamma                90
_cell_volume                     9162.31
loop_
_atom_site_label
_atom_site_type_symbol
_atom_site_fract_x
_atom_site_fract_y
_atom_site_fract_z
Zn4 Zn 0.05892(10) 0.32566(10) 0.18485(2)
O2 O 0.7997(9) 0.0297(8) 0.27703(16)
N7 N 0.6403(7) 0.0497(7) 0.07392(16)
C10 C 0.6788(9) 0.0115(9) 0.0948(2)
H10 H 0.6610 0.0359 0.1105
H18 H 0.8684 0.0378 0.2334
H19 H 0.8753 0.0150 0.1899
Zn5 Zn 0.55892(10) 0.17434(10) 0.06515(2)
N11 N 0.6599(8) 0.0836(7) 0.32817(17)
B1 B 0.7372(11) 0.4691(10) 0.1281(2)
Zn1 Zn 0.84236(10) 0.87365(9) 0.11538(2)
Zn2 Zn 0.67434(10) 0.94108(10) 0.31515(2)
O1 O 0.6760(6) 0.9178(6) 0.27969(13)
O3 O 0.8474(6) 0.9261(7) 0.14989(13)
O4 O 0.6975(7) 0.8404(7) 0.15056(15)
N1 N 0.7957(8) 0.4015(8) 0.14782(18)
N2 N 0.9164(7) 0.3401(8) 0.17183(17)
N3 N 0.8060(6) 0.5597(7) 0.12036(16)
N4 N 0.8529(7) 0.7188(7) 0.11350(17)
N5 N 0.6393(7) 0.5095(7) 0.14081(16)
N6 N 0.4855(7) 0.5811(7) 0.14467(16)
N8 N 0.7444(7) 0.9362(8) 0.09151(16)
N9 N 0.7059(7) 0.4089(7) 0.10445(16)
N10 N 0.6270(8) 0.3008(7) 0.07955(18)
C1 C 0.8934(8) 0.4090(8) 0.1544(2)
H1 H 0.9396 0.4558 0.1477
C2 C 0.7536(10) 0.3210(9) 0.1618(2)
H2 H 0.6862 0.2980 0.1615
C3 C 0.8301(10) 0.2841(10) 0.1759(2)
H3 H 0.8250 0.2288 0.1867
C4 C 0.7820(9) 0.6606(9) 0.1224(2)
H4 H 0.7216 0.6848 0.1294
C5 C 0.9246(10) 0.6576(10) 0.1051(2)
H5 H 0.9846 0.6799 0.0975
C6 C 0.9016(9) 0.5625(10) 0.1088(2)
H6 H 0.9414 0.5062 0.1044
C7 C 0.5502(9) 0.5351(9) 0.1294(2)
H7 H 0.5362 0.5218 0.1128
C8 C 0.6287(10) 0.5470(11) 0.1649(2)
H8 H 0.6784 0.5435 0.1772
C9 C 0.5386(9) 0.5879(10) 0.1674(2)
H9 H 0.5132 0.6171 0.1819
C11 C 0.6874(10) 0.9900(10) 0.0560(2)
H11 H 0.6776 0.9962 0.0390
C12 C 0.7482(9) 0.9230(9) 0.0668(2)
H12 H 0.7875 0.8742 0.0586
C13 C 0.6554(8) 0.3204(9) 0.1026(2)
H13 H 0.6418 0.2775 0.1160
C14 C 0.6557(14) 0.3822(11) 0.0653(2)
H14 H 0.6437 0.3908 0.0484
C15 C 0.7040(17) 0.4463(13) 0.0802(3)
H15 H 0.7327 0.5082 0.0752
C16 C 0.7698(10) 0.8891(10) 0.1613(2)
C17 C 0.7629(9) 0.9065(10) 0.1888(2)
C18 C 0.6910(10) 0.8581(10) 0.2034(2)
H16 H 0.6448 0.8131 0.1961
C19 C 0.6863(10) 0.8753(9) 0.2285(2)
H17 H 0.6396 0.8391 0.2382
C20 C 0.7509(10) 0.9467(10) 0.2396(2)
C21 C 0.8221(11) 0.9938(11) 0.2257(2)
C22 C 0.8288(10) 0.9784(10) 0.1995(2)
C23 C 0.7434(11) 0.9689(11) 0.2673(2)
Zn3 Zn 0.34236(10) 0.62635(9) 0.13462(2)
N12 N 0.9855(7) 0.9189(7) 0.10533(16)
N13 N 0.5497(7) 0.8597(7) 0.32392(16)
N14 N 0.8008(7) 0.8730(8) 0.32955(18)
B1_2 B 0.2628(11) 0.5309(10) 0.6281(2)
Zn1_2 Zn 0.15764(10) 0.12635(9) 0.61538(2)
Zn2_2 Zn 0.32566(10) 0.05892(10) 0.81515(2)
O1_2 O 0.3240(6) 0.0822(6) 0.77969(13)
O3_2 O 0.1526(6) 0.0739(7) 0.64989(13)
O4_2 O 0.3025(7) 0.1596(7) 0.65056(15)
N1_2 N 0.2043(8) 0.5985(8) 0.64782(18)
N2_2 N 0.0836(7) 0.6599(8) 0.67183(17)
N3_2 N 0.1940(6) 0.4403(7) 0.62036(16)
N4_2 N 0.1471(7) 0.2812(7) 0.61350(17)
N5_2 N 0.3607(7) 0.4905(7) 0.64081(16)
N6_2 N 0.5145(7) 0.4189(7) 0.64467(16)
N8_2 N 0.2556(7) 0.0638(8) 0.59151(16)
N9_2 N 0.2941(7) 0.5911(7) 0.60445(16)
N10_2 N 0.3730(8) 0.6992(7) 0.57955(18)
C1_2 C 0.1066(8) 0.5910(8) 0.6544(2)
H1_2 H 0.0604 0.5442 0.6477
C2_2 C 0.2464(10) 0.6790(9) 0.6618(2)
H2_2 H 0.3138 0.7020 0.6615
C3_2 C 0.1699(10) 0.7159(10) 0.6759(2)
H3_2 H 0.1750 0.7712 0.6867
C4_2 C 0.2180(9) 0.3394(9) 0.6224(2)
H4_2 H 0.2784 0.3152 0.6294
C5_2 C 0.0754(10) 0.3424(10) 0.6051(2)
H5_2 H 0.0154 0.3201 0.5975
C6_2 C 0.0984(9) 0.4375(10) 0.6088(2)
H6_2 H 0.0586 0.4938 0.6044
C7_2 C 0.4498(9) 0.4649(9) 0.6294(2)
H7_2 H 0.4638 0.4782 0.6128
C8_2 C 0.3713(10) 0.4530(11) 0.6649(2)
H8_2 H 0.3216 0.4565 0.6772
C9_2 C 0.4614(9) 0.4121(10) 0.6674(2)
H9_2 H 0.4868 0.3829 0.6819
C11_2 C 0.3126(10) 0.0100(10) 0.5560(2)
H11_2 H 0.3224 0.0038 0.5390
C12_2 C 0.2518(9) 0.0770(9) 0.5668(2)
H12_2 H 0.2125 0.1258 0.5586
C13_2 C 0.3446(8) 0.6796(9) 0.6026(2)
H13_2 H 0.3582 0.7225 0.6160
C14_2 C 0.3443(14) 0.6178(11) 0.5653(2)
H14_2 H 0.3563 0.6092 0.5484
C15_2 C 0.2960(17) 0.5537(13) 0.5802(3)
H15_2 H 0.2673 0.4918 0.5752
C16_2 C 0.2302(10) 0.1109(10) 0.6613(2)
C17_2 C 0.2371(9) 0.0935(10) 0.6888(2)
C18_2 C 0.3090(10) 0.1419(10) 0.7034(2)
H16_2 H 0.3552 0.1869 0.6961
C19_2 C 0.3137(10) 0.1247(9) 0.7285(2)
H17_2 H 0.3604 0.1609 0.7382
C20_2 C 0.2491(10) 0.0533(10) 0.7396(2)
C21_2 C 0.1779(11) 0.0062(11) 0.7257(2)
C22_2 C 0.1712(10) 0.0216(10) 0.6995(2)
C23_2 C 0.2566(11) 0.0311(11) 0.7673(2)
Zn3_2 Zn 0.65764(10) 0.37365(9) 0.63462(2)
Zn6 Zn 0.44108(10) 0.82566(10) 0.56515(2)
N12_2 N 0.0145(7) 0.0811(7) 0.60533(16)
N13_2 N 0.4503(7) 0.1403(7) 0.82392(16)
N14_2 N 0.1992(7) 0.1270(8) 0.82955(18)
O2_2 O 0.2003(9) 0.9703(8) 0.77703(16)
N7_2 N 0.3597(7) 0.9503(7) 0.57392(16)
C10_2 C 0.3212(9) 0.9885(9) 0.5948(2)
H10_2 H 0.3390 0.9641 0.6105
H18_2 H 0.1316 0.9622 0.7334
H19_2 H 0.1247 0.9850 0.6899
N11_2 N 0.3401(8) 0.9164(7) 0.82817(17)
Zn4_2 Zn 0.94108(10) 0.67434(10) 0.68485(2)
B1_3 B 0.0309(10) 0.2372(11) 0.8781(2)
N1_3 N 0.0985(8) 0.2957(8) 0.89782(18)
N2_3 N 0.1599(8) 0.4164(7) 0.92183(17)
N9_3 N 0.0911(7) 0.2059(7) 0.85445(16)
C1_3 C 0.0910(8) 0.3934(8) 0.9044(2)
H1_3 H 0.0442 0.4396 0.8977
C2_3 C 0.1790(9) 0.2536(10) 0.9118(2)
H2_3 H 0.2020 0.1862 0.9115
C3_3 C 0.2159(10) 0.3301(10) 0.9259(2)
H3_3 H 0.2712 0.3250 0.9367
C13_3 C 0.1796(9) 0.1554(8) 0.8526(2)
H13_3 H 0.2225 0.1418 0.8660
C14_3 C 0.1178(11) 0.1557(14) 0.8153(2)
H14_3 H 0.1092 0.1437 0.7984
C15_3 C 0.0537(13) 0.2040(17) 0.8302(3)
Zn4_3 Zn 0.17434(10) 0.55892(10) 0.93485(2)
O1_3 O 0.5822(6) 0.1760(6) 0.02969(13)
O2_3 O 0.4703(8) 0.2997(9) 0.02703(16)
C23_3 C 0.5311(11) 0.2434(11) 0.0173(2)
N11_3 N 0.4164(7) 0.1599(8) 0.07817(17)
Zn1_3 Zn 0.62635(9) 0.34236(10) 0.86538(2)
O3_3 O 0.5739(7) 0.3474(6) 0.89989(13)
O4_3 O 0.6596(7) 0.1975(7) 0.90056(15)
N3_3 N 0.9403(7) 0.3060(6) 0.87036(16)
N4_3 N 0.7812(7) 0.3529(7) 0.86350(17)
N5_3 N 0.9905(7) 0.1393(7) 0.89081(16)
N8_3 N 0.5638(8) 0.2444(7) 0.84151(16)
C4_3 C 0.8394(9) 0.2820(9) 0.8724(2)
H4_3 H 0.8152 0.2216 0.8794
C5_3 C 0.8424(10) 0.4246(10) 0.8551(2)
H5_3 H 0.8201 0.4846 0.8475
C6_3 C 0.9375(10) 0.4016(9) 0.8588(2)
H6_3 H 0.9938 0.4414 0.8544
C7_3 C 0.9649(9) 0.0502(9) 0.8794(2)
H7_3 H 0.9782 0.0362 0.8628
C8_3 C 0.9530(11) 0.1287(10) 0.9149(2)
H8_3 H 0.9565 0.1784 0.9272
C9_3 C 0.9121(10) 0.0386(9) 0.9174(2)
H9_3 H 0.8829 0.0132 0.9319
C10_3 C 0.4885(9) 0.1788(9) 0.8448(2)
H10_3 H 0.4641 0.1610 0.8605
C11_3 C 0.5100(10) 0.1874(10) 0.8060(2)
H11_3 H 0.5038 0.1776 0.7890
C12_3 C 0.5770(9) 0.2482(9) 0.8168(2)
H12_3 H 0.6258 0.2875 0.8086
H15_3 H 0.9918 0.2327 0.8252
C16_3 C 0.6109(10) 0.2698(10) 0.9113(2)
C17_3 C 0.5935(10) 0.2629(9) 0.9388(2)
C18_3 C 0.6419(10) 0.1910(10) 0.9534(2)
H16_3 H 0.6869 0.1448 0.9461
C19_3 C 0.6247(9) 0.1863(10) 0.9785(2)
H17_3 H 0.6609 0.1396 0.9882
C20_3 C 0.5533(10) 0.2509(10) 0.9896(2)
C21_3 C 0.5062(11) 0.3221(11) 0.9757(2)
H18_3 H 0.4622 0.3684 0.9834
C22_3 C 0.5216(10) 0.3288(10) 0.9495(2)
H19_3 H 0.4850 0.3753 0.9399
N12_3 N 0.5811(7) 0.4855(7) 0.85533(16)
N6_3 N 0.9189(7) 0.9855(7) 0.89467(16)
Zn3_3 Zn 0.87365(9) 0.84236(10) 0.88462(2)
N6_4 N 0.0811(7) 0.0145(7) 0.39467(16)
Zn3_4 Zn 0.12635(9) 0.15764(10) 0.38462(2)
Zn1_4 Zn 0.37365(9) 0.65764(10) 0.36538(2)
O1_4 O 0.4178(6) 0.8240(6) 0.52969(13)
O2_4 O 0.5297(8) 0.7003(9) 0.52703(16)
O3_4 O 0.4261(7) 0.6526(6) 0.39989(13)
O4_4 O 0.3404(7) 0.8025(7) 0.40056(15)
N3_4 N 0.0597(7) 0.6940(6) 0.37036(16)
N4_4 N 0.2188(7) 0.6471(7) 0.36350(17)
N5_4 N 0.0095(7) 0.8607(7) 0.39081(16)
N8_4 N 0.4362(8) 0.7556(7) 0.34151(16)
C4_4 C 0.1606(9) 0.7180(9) 0.3724(2)
H4_4 H 0.1848 0.7784 0.3794
C5_4 C 0.1576(10) 0.5754(10) 0.3551(2)
H5_4 H 0.1799 0.5154 0.3475
C6_4 C 0.0625(10) 0.5984(9) 0.3588(2)
H6_4 H 0.0062 0.5586 0.3544
C7_4 C 0.0351(9) 0.9498(9) 0.3794(2)
H7_4 H 0.0218 0.9638 0.3628
C8_4 C 0.0470(11) 0.8713(10) 0.4149(2)
H8_4 H 0.0435 0.8216 0.4272
C9_4 C 0.0879(10) 0.9614(9) 0.4174(2)
H9_4 H 0.1171 0.9868 0.4319
C10_4 C 0.5115(9) 0.8212(9) 0.3448(2)
H10_4 H 0.5359 0.8390 0.3605
C11_4 C 0.4900(10) 0.8126(10) 0.3060(2)
H11_4 H 0.4962 0.8224 0.2890
C12_4 C 0.4230(9) 0.7518(9) 0.3168(2)
H12_4 H 0.3742 0.7125 0.3086
H15_4 H 0.0082 0.7673 0.3252
C16_4 C 0.3891(10) 0.7302(10) 0.4113(2)
C17_4 C 0.4065(10) 0.7371(9) 0.4388(2)
C18_4 C 0.3581(10) 0.8090(10) 0.4534(2)
H16_4 H 0.3131 0.8552 0.4461
C19_4 C 0.3753(9) 0.8137(10) 0.4785(2)
H17_4 H 0.3391 0.8604 0.4882
C20_4 C 0.4467(10) 0.7491(10) 0.4896(2)
C21_4 C 0.4938(11) 0.6779(11) 0.4757(2)
H18_4 H 0.5378 0.6316 0.4834
C22_4 C 0.4784(10) 0.6712(10) 0.4495(2)
H19_4 H 0.5150 0.6247 0.4399
C23_4 C 0.4689(11) 0.7566(11) 0.5173(2)
N11_4 N 0.5836(7) 0.8401(8) 0.57817(17)
N12_4 N 0.4189(7) 0.5145(7) 0.35533(16)
B1_4 B 0.9691(10) 0.7628(11) 0.3781(2)
N1_4 N 0.9015(8) 0.7043(8) 0.39782(18)
N2_4 N 0.8401(8) 0.5836(7) 0.42183(17)
N9_4 N 0.9089(7) 0.7941(7) 0.35445(16)
C1_4 C 0.9090(8) 0.6066(8) 0.4044(2)
H1_4 H 0.9558 0.5604 0.3977
C2_4 C 0.8210(9) 0.7464(10) 0.4118(2)
H2_4 H 0.7980 0.8138 0.4115
C3_4 C 0.7841(10) 0.6699(10) 0.4259(2)
H3_4 H 0.7288 0.6750 0.4367
C13_4 C 0.8204(9) 0.8446(8) 0.3526(2)
H13_4 H 0.7775 0.8582 0.3660
C14_4 C 0.8822(11) 0.8443(14) 0.3153(2)
H14_4 H 0.8908 0.8563 0.2984
C15_4 C 0.9463(13) 0.7960(17) 0.3302(3)
Zn4_4 Zn 0.82566(10) 0.44108(10) 0.43485(2)
O1_5 O 0.8240(6) 0.4178(6) 0.47031(13)
O2_5 O 0.7003(9) 0.5297(8) 0.47297(16)
O3_5 O 0.6526(6) 0.4261(7) 0.60011(13)
O4_5 O 0.8025(7) 0.3404(7) 0.59944(15)
N3_5 N 0.6940(6) 0.0597(7) 0.62964(16)
N4_5 N 0.6471(7) 0.2188(7) 0.63650(17)
N5_5 N 0.8607(7) 0.0095(7) 0.60919(16)
N7_3 N 0.8597(7) 0.5497(7) 0.67608(16)
N8_5 N 0.7556(7) 0.4362(8) 0.65849(16)
C4_5 C 0.7180(9) 0.1606(9) 0.6276(2)
H4_5 H 0.7784 0.1848 0.6206
C5_5 C 0.5754(10) 0.1576(10) 0.6449(2)
H5_5 H 0.5154 0.1799 0.6525
C6_5 C 0.5984(9) 0.0625(10) 0.6412(2)
H6_5 H 0.5586 0.0062 0.6456
C7_5 C 0.9498(9) 0.0351(9) 0.6206(2)
H7_5 H 0.9638 0.0218 0.6372
C8_5 C 0.8713(10) 0.0470(11) 0.5851(2)
H8_5 H 0.8216 0.0435 0.5728
C9_5 C 0.9614(9) 0.0879(10) 0.5826(2)
H9_5 H 0.9868 0.1171 0.5681
C10_5 C 0.8212(9) 0.5115(9) 0.6552(2)
H10_5 H 0.8390 0.5359 0.6395
C11_5 C 0.8126(10) 0.4900(10) 0.6940(2)
H11_5 H 0.8224 0.4962 0.7110
C12_5 C 0.7518(9) 0.4230(9) 0.6832(2)
H12_5 H 0.7125 0.3742 0.6914
H15_5 H 0.7673 0.0082 0.6748
C16_5 C 0.7302(10) 0.3891(10) 0.5887(2)
C17_5 C 0.7371(9) 0.4065(10) 0.5612(2)
C18_5 C 0.8090(10) 0.3581(10) 0.5466(2)
H16_5 H 0.8552 0.3131 0.5539
C19_5 C 0.8137(10) 0.3753(9) 0.5215(2)
H17_5 H 0.8604 0.3391 0.5118
C20_5 C 0.7491(10) 0.4467(10) 0.5104(2)
C21_5 C 0.6779(11) 0.4938(11) 0.5243(2)
H18_5 H 0.6316 0.5378 0.5166
C22_5 C 0.6712(10) 0.4784(10) 0.5505(2)
H19_5 H 0.6247 0.5150 0.5601
C23_5 C 0.7566(11) 0.4689(11) 0.4827(2)
N13_3 N 0.9503(7) 0.3597(7) 0.42608(16)
N14_3 N 0.6992(7) 0.3730(8) 0.42045(18)
B1_5 B 0.7628(11) 0.9691(10) 0.6219(2)
N1_5 N 0.7043(8) 0.9015(8) 0.60218(18)
N9_5 N 0.7941(7) 0.9089(7) 0.64555(16)
N10_3 N 0.8730(8) 0.8008(7) 0.67045(18)
C1_5 C 0.6066(8) 0.9090(8) 0.5956(2)
H1_5 H 0.5604 0.9558 0.6023
C2_5 C 0.7464(10) 0.8210(9) 0.5882(2)
H2_5 H 0.8138 0.7980 0.5885
C3_5 C 0.6699(10) 0.7841(10) 0.5741(2)
H3_5 H 0.6750 0.7288 0.5633
C13_5 C 0.8446(8) 0.8204(9) 0.6474(2)
H13_5 H 0.8582 0.7775 0.6340
C14_5 C 0.8443(14) 0.8822(11) 0.6847(2)
H14_5 H 0.8563 0.8908 0.7016
C15_5 C 0.7960(17) 0.9463(13) 0.6698(3)
B1_6 B 0.2372(11) 0.0309(10) 0.1219(2)
N1_6 N 0.2957(8) 0.0985(8) 0.10218(18)
N9_6 N 0.2059(7) 0.0911(7) 0.14555(16)
N10_4 N 0.1270(8) 0.1992(7) 0.17045(18)
C1_6 C 0.3934(8) 0.0910(8) 0.0956(2)
H1_6 H 0.4396 0.0442 0.1023
C2_6 C 0.2536(10) 0.1790(9) 0.0882(2)
H2_6 H 0.1862 0.2020 0.0885
C3_6 C 0.3301(10) 0.2159(10) 0.0741(2)
H3_6 H 0.3250 0.2712 0.0633
C13_6 C 0.1554(8) 0.1796(9) 0.1474(2)
H13_6 H 0.1418 0.2225 0.1340
C14_6 C 0.1557(14) 0.1178(11) 0.1847(2)
H14_6 H 0.1437 0.1092 0.2016
C15_6 C 0.2040(17) 0.0537(13) 0.1698(3)
O3_6 O 0.3474(6) 0.5739(7) 0.10011(13)
O4_6 O 0.1975(7) 0.6596(7) 0.09944(15)
N3_6 N 0.3060(6) 0.9403(7) 0.12964(16)
N4_6 N 0.3529(7) 0.7812(7) 0.13650(17)
N5_6 N 0.1393(7) 0.9905(7) 0.10919(16)
N7_4 N 0.1403(7) 0.4503(7) 0.17608(16)
N8_6 N 0.2444(7) 0.5638(8) 0.15849(16)
C4_6 C 0.2820(9) 0.8394(9) 0.1276(2)
H4_6 H 0.2216 0.8152 0.1206
C5_6 C 0.4246(10) 0.8424(10) 0.1449(2)
H5_6 H 0.4846 0.8201 0.1525
C6_6 C 0.4016(9) 0.9375(10) 0.1412(2)
H6_6 H 0.4414 0.9938 0.1456
C7_6 C 0.0502(9) 0.9649(9) 0.1206(2)
H7_6 H 0.0362 0.9782 0.1372
C8_6 C 0.1287(10) 0.9530(11) 0.0851(2)
H8_6 H 0.1784 0.9565 0.0728
C9_6 C 0.0386(9) 0.9121(10) 0.0826(2)
H9_6 H 0.0132 0.8829 0.0681
C10_6 C 0.1788(9) 0.4885(9) 0.1552(2)
H10_6 H 0.1610 0.4641 0.1395
C11_6 C 0.1874(10) 0.5100(10) 0.1940(2)
H11_6 H 0.1776 0.5038 0.2110
C12_6 C 0.2482(9) 0.5770(9) 0.1832(2)
H12_6 H 0.2875 0.6258 0.1914
H15_6 H 0.2327 0.9918 0.1748
C16_6 C 0.2698(10) 0.6109(10) 0.0887(2)
C17_6 C 0.2629(9) 0.5935(10) 0.0612(2)
C18_6 C 0.1910(10) 0.6419(10) 0.0466(2)
H16_6 H 0.1448 0.6869 0.0539
C19_6 C 0.1863(10) 0.6247(9) 0.0215(2)
H17_6 H 0.1396 0.6609 0.0118
C20_6 C 0.2509(10) 0.5533(10) 0.0104(2)
C21_6 C 0.3221(11) 0.5062(11) 0.0243(2)
H18_6 H 0.3684 0.4622 0.0166
C22_6 C 0.3288(10) 0.5216(10) 0.0505(2)
H19_6 H 0.3753 0.4850 0.0601
O1_6 O 0.1760(6) 0.5822(6) 0.97031(13)
O2_6 O 0.2997(9) 0.4703(8) 0.97297(16)
C23_6 C 0.2434(11) 0.5311(11) 0.9827(2)
N13_4 N 0.0497(7) 0.6403(7) 0.92608(16)
N14_4 N 0.3008(7) 0.6270(8) 0.92045(18)
O2_7 O 0.0297(8) 0.7997(9) 0.72297(16)
C10_7 C 0.0115(9) 0.6788(9) 0.9052(2)
H10_7 H 0.0359 0.6610 0.8895
H18_7 H 0.0378 0.8684 0.7666
H19_7 H 0.0150 0.8753 0.8101
B1_7 B 0.4691(10) 0.7372(11) 0.8719(2)
O1_7 O 0.9178(6) 0.6760(6) 0.72031(13)
O3_7 O 0.9261(7) 0.8474(6) 0.85011(13)
O4_7 O 0.8404(7) 0.6975(7) 0.84944(15)
N1_7 N 0.4015(8) 0.7957(8) 0.85218(18)
N3_7 N 0.5597(7) 0.8060(6) 0.87964(16)
N4_7 N 0.7188(7) 0.8529(7) 0.88650(17)
N5_7 N 0.5095(7) 0.6393(7) 0.85919(16)
N8_7 N 0.9362(8) 0.7444(7) 0.90849(16)
N9_7 N 0.4089(7) 0.7059(7) 0.89555(16)
C1_7 C 0.4090(8) 0.8934(8) 0.8456(2)
H1_7 H 0.4558 0.9396 0.8523
C2_7 C 0.3210(9) 0.7536(10) 0.8382(2)
H2_7 H 0.2980 0.6862 0.8385
C3_7 C 0.2841(10) 0.8301(10) 0.8241(2)
H3_7 H 0.2288 0.8250 0.8133
C4_7 C 0.6606(9) 0.7820(9) 0.8776(2)
H4_7 H 0.6848 0.7216 0.8706
C5_7 C 0.6576(10) 0.9246(10) 0.8949(2)
H5_7 H 0.6799 0.9846 0.9025
C6_7 C 0.5625(10) 0.9016(9) 0.8912(2)
H6_7 H 0.5062 0.9414 0.8956
C7_7 C 0.5351(9) 0.5502(9) 0.8706(2)
H7_7 H 0.5218 0.5362 0.8872
C8_7 C 0.5470(11) 0.6287(10) 0.8351(2)
H8_7 H 0.5435 0.6784 0.8228
C9_7 C 0.5879(10) 0.5386(9) 0.8326(2)
H9_7 H 0.6171 0.5132 0.8181
C11_7 C 0.9900(10) 0.6874(10) 0.9440(2)
H11_7 H 0.9962 0.6776 0.9610
C12_7 C 0.9230(9) 0.7482(9) 0.9332(2)
H12_7 H 0.8742 0.7875 0.9414
C13_7 C 0.3204(9) 0.6554(8) 0.8974(2)
H13_7 H 0.2775 0.6418 0.8840
C14_7 C 0.3822(11) 0.6557(14) 0.9347(2)
H14_7 H 0.3908 0.6437 0.9516
C15_7 C 0.4463(13) 0.7040(17) 0.9198(3)
H15_7 H 0.5082 0.7327 0.9248
C16_7 C 0.8891(10) 0.7698(10) 0.8387(2)
C17_7 C 0.9065(10) 0.7629(9) 0.8112(2)
C18_7 C 0.8581(10) 0.6910(10) 0.7966(2)
H16_7 H 0.8131 0.6448 0.8039
C19_7 C 0.8753(9) 0.6863(10) 0.7715(2)
H17_7 H 0.8391 0.6396 0.7618
C20_7 C 0.9467(10) 0.7509(10) 0.7604(2)
C21_7 C 0.9938(11) 0.8221(11) 0.7743(2)
C22_7 C 0.9784(10) 0.8288(10) 0.8005(2)
C23_7 C 0.9689(11) 0.7434(11) 0.7327(2)
B1_8 B 0.5309(10) 0.2628(11) 0.3719(2)
O1_8 O 0.0822(6) 0.3240(6) 0.22031(13)
O3_8 O 0.0739(7) 0.1526(6) 0.35011(13)
O4_8 O 0.1596(7) 0.3025(7) 0.34944(15)
N1_8 N 0.5985(8) 0.2043(8) 0.35218(18)
N3_8 N 0.4403(7) 0.1940(6) 0.37964(16)
N4_8 N 0.2812(7) 0.1471(7) 0.38650(17)
N5_8 N 0.4905(7) 0.3607(7) 0.35919(16)
N8_8 N 0.0638(8) 0.2556(7) 0.40849(16)
N9_8 N 0.5911(7) 0.2941(7) 0.39555(16)
C1_8 C 0.5910(8) 0.1066(8) 0.3456(2)
H1_8 H 0.5442 0.0604 0.3523
C2_8 C 0.6790(9) 0.2464(10) 0.3382(2)
H2_8 H 0.7020 0.3138 0.3385
C3_8 C 0.7159(10) 0.1699(10) 0.3241(2)
H3_8 H 0.7712 0.1750 0.3133
C4_8 C 0.3394(9) 0.2180(9) 0.3776(2)
H4_8 H 0.3152 0.2784 0.3706
C5_8 C 0.3424(10) 0.0754(10) 0.3949(2)
H5_8 H 0.3201 0.0154 0.4025
C6_8 C 0.4375(10) 0.0984(9) 0.3912(2)
H6_8 H 0.4938 0.0586 0.3956
C7_8 C 0.4649(9) 0.4498(9) 0.3706(2)
H7_8 H 0.4782 0.4638 0.3872
C8_8 C 0.4530(11) 0.3713(10) 0.3351(2)
H8_8 H 0.4565 0.3216 0.3228
C9_8 C 0.4121(10) 0.4614(9) 0.3326(2)
H9_8 H 0.3829 0.4868 0.3181
C11_8 C 0.0100(10) 0.3126(10) 0.4440(2)
H11_8 H 0.0038 0.3224 0.4610
C12_8 C 0.0770(9) 0.2518(9) 0.4332(2)
H12_8 H 0.1258 0.2125 0.4414
C13_8 C 0.6796(9) 0.3446(8) 0.3974(2)
H13_8 H 0.7225 0.3582 0.3840
C14_8 C 0.6178(11) 0.3443(14) 0.4347(2)
H14_8 H 0.6092 0.3563 0.4516
C15_8 C 0.5537(13) 0.2960(17) 0.4198(3)
H15_8 H 0.4918 0.2673 0.4248
C16_8 C 0.1109(10) 0.2302(10) 0.3387(2)
C17_8 C 0.0935(10) 0.2371(9) 0.3112(2)
C18_8 C 0.1419(10) 0.3090(10) 0.2966(2)
H16_8 H 0.1869 0.3552 0.3039
C19_8 C 0.1247(9) 0.3137(10) 0.2715(2)
H17_8 H 0.1609 0.3604 0.2618
C20_8 C 0.0533(10) 0.2491(10) 0.2604(2)
C21_8 C 0.0062(11) 0.1779(11) 0.2743(2)
C22_8 C 0.0216(10) 0.1712(10) 0.3005(2)
C23_8 C 0.0311(11) 0.2566(11) 0.2327(2)
O2_8 O 0.9703(8) 0.2003(9) 0.22297(16)
C10_8 C 0.9885(9) 0.3212(9) 0.4052(2)
H10_8 H 0.9641 0.3390 0.3895
H18_8 H 0.9622 0.1316 0.2666
H19_8 H 0.9850 0.1247 0.3101
loop_
_geom_bond_atom_site_label_1
_geom_bond_atom_site_label_2
_geom_bond_site_symmetry_1
_geom_bond_site_symmetry_2
N7 C10 1_555 1_555
H10 C10 1_555 1_555
Zn5 N7 1_555 1_555
B1 N1 1_555 1_555
Zn1 O3 1_555 1_555
Zn2 O1 1_555 1_555
O1 C23 1_555 1_555
O3 C16 1_555 1_555
O4 C16 1_555 1_555
N1 C1 1_555 1_555
N2 C1 1_555 1_555
N3 B1 1_555 1_555
N4 Zn1 1_555 1_555
N5 B1 1_555 1_555
N6 C7 1_555 1_555
N8 Zn1 1_555 1_555
N9 B1 1_555 1_555
N10 C13 1_555 1_555
C1 H1 1_555 1_555
C2 N1 1_555 1_555
H2 C2 1_555 1_555
C3 N2 1_555 1_555
H3 C3 1_555 1_555
C4 N3 1_555 1_555
H4 C4 1_555 1_555
C5 N4 1_555 1_555
H5 C5 1_555 1_555
C6 N3 1_555 1_555
H6 C6 1_555 1_555
C7 N5 1_555 1_555
H7 C7 1_555 1_555
C8 N5 1_555 1_555
H8 C8 1_555 1_555
C9 N6 1_555 1_555
H9 C9 1_555 1_555
H11 C11 1_555 1_555
C12 N8 1_555 1_555
H12 C12 1_555 1_555
C13 N9 1_555 1_555
H13 C13 1_555 1_555
C14 N10 1_555 1_555
H14 C14 1_555 1_555
C15 N9 1_555 1_555
H15 C15 1_555 1_555
C16 C17 1_555 1_555
C17 C18 1_555 1_555
C18 H16 1_555 1_555
C19 C18 1_555 1_555
H17 C19 1_555 1_555
C20 C19 1_555 1_555
C21 C20 1_555 1_555
C22 C17 1_555 1_555
C23 C20 1_555 1_555
Zn3 N6 1_555 1_555
Zn5 N10 1_555 1_555
N12 Zn1 1_555 1_555
N13 Zn2 1_555 1_555
N14 Zn2 1_555 1_555
N4 C4 1_555 1_555
C2 C3 1_555 1_555
C5 C6 1_555 1_555
C8 C9 1_555 1_555
C11 C12 1_555 1_555
C14 C15 1_555 1_555
C21 C22 1_555 1_555
B1_2 N1_2 1_555 1_555
Zn1_2 O3_2 1_555 1_555
Zn2_2 O1_2 1_555 1_555
O1_2 C23_2 1_555 1_555
O3_2 C16_2 1_555 1_555
O4_2 C16_2 1_555 1_555
N1_2 C1_2 1_555 1_555
N2_2 C1_2 1_555 1_555
N3_2 B1_2 1_555 1_555
N4_2 Zn1_2 1_555 1_555
N5_2 B1_2 1_555 1_555
N6_2 C7_2 1_555 1_555
N8_2 Zn1_2 1_555 1_555
N9_2 B1_2 1_555 1_555
N10_2 C13_2 1_555 1_555
C1_2 H1_2 1_555 1_555
C2_2 N1_2 1_555 1_555
H2_2 C2_2 1_555 1_555
C3_2 N2_2 1_555 1_555
H3_2 C3_2 1_555 1_555
C4_2 N3_2 1_555 1_555
H4_2 C4_2 1_555 1_555
C5_2 N4_2 1_555 1_555
H5_2 C5_2 1_555 1_555
C6_2 N3_2 1_555 1_555
H6_2 C6_2 1_555 1_555
C7_2 N5_2 1_555 1_555
H7_2 C7_2 1_555 1_555
C8_2 N5_2 1_555 1_555
H8_2 C8_2 1_555 1_555
C9_2 N6_2 1_555 1_555
H9_2 C9_2 1_555 1_555
H11_2 C11_2 1_555 1_555
C12_2 N8_2 1_555 1_555
H12_2 C12_2 1_555 1_555
C13_2 N9_2 1_555 1_555
H13_2 C13_2 1_555 1_555
C14_2 N10_2 1_555 1_555
H14_2 C14_2 1_555 1_555
C15_2 N9_2 1_555 1_555
H15_2 C15_2 1_555 1_555
C16_2 C17_2 1_555 1_555
C17_2 C18_2 1_555 1_555
C18_2 H16_2 1_555 1_555
C19_2 C18_2 1_555 1_555
H17_2 C19_2 1_555 1_555
C20_2 C19_2 1_555 1_555
C21_2 C20_2 1_555 1_555
C22_2 C17_2 1_555 1_555
C23_2 C20_2 1_555 1_555
Zn3_2 N6_2 1_555 1_555
Zn6 N10_2 1_555 1_555
N12_2 Zn1_2 1_555 1_555
N13_2 Zn2_2 1_555 1_555
N14_2 Zn2_2 1_555 1_555
N4_2 C4_2 1_555 1_555
C2_2 C3_2 1_555 1_555
C5_2 C6_2 1_555 1_555
C8_2 C9_2 1_555 1_555
C11_2 C12_2 1_555 1_555
C14_2 C15_2 1_555 1_555
C21_2 C22_2 1_555 1_555
N7_2 C10_2 1_555 1_555
H10_2 C10_2 1_555 1_555
Zn6 N7_2 1_555 1_555
B1_3 N1_3 1_555 1_555
N1_3 C1_3 1_555 1_555
N2_3 C1_3 1_555 1_555
N9_3 B1_3 1_555 1_555
N14_2 C13_3 1_555 1_555
C1_3 H1_3 1_555 1_555
C2_3 N1_3 1_555 1_555
H2_3 C2_3 1_555 1_555
C3_3 N2_3 1_555 1_555
H3_3 C3_3 1_555 1_555
C13_3 N9_3 1_555 1_555
H13_3 C13_3 1_555 1_555
C14_3 N14_2 1_555 1_555
H14_3 C14_3 1_555 1_555
C15_3 N9_3 1_555 1_555
Zn4_3 N2_3 1_555 1_555
C2_3 C3_3 1_555 1_555
C14_3 C15_3 1_555 1_555
Zn5 O1_3 1_555 1_555
O1_3 C23_3 1_555 1_555
O2_3 C23_3 1_555 1_555
N11_3 Zn5 1_555 1_555
Zn1_3 O3_3 1_555 1_555
O3_3 C16_3 1_555 1_555
O4_3 C16_3 1_555 1_555
N4_3 Zn1_3 1_555 1_555
N13_2 C10_3 1_555 1_555
N8_3 Zn1_3 1_555 1_555
C4_3 N3_3 1_555 1_555
H4_3 C4_3 1_555 1_555
C5_3 N4_3 1_555 1_555
H5_3 C5_3 1_555 1_555
C6_3 N3_3 1_555 1_555
H6_3 C6_3 1_555 1_555
C7_3 N5_3 1_555 1_555
H7_3 C7_3 1_555 1_555
C8_3 N5_3 1_555 1_555
H8_3 C8_3 1_555 1_555
H9_3 C9_3 1_555 1_555
C10_3 N8_3 1_555 1_555
H10_3 C10_3 1_555 1_555
C11_3 N13_2 1_555 1_555
H11_3 C11_3 1_555 1_555
C12_3 N8_3 1_555 1_555
H12_3 C12_3 1_555 1_555
C16_3 C17_3 1_555 1_555
C17_3 C18_3 1_555 1_555
C18_3 H16_3 1_555 1_555
C19_3 C18_3 1_555 1_555
H17_3 C19_3 1_555 1_555
C20_3 C19_3 1_555 1_555
C21_3 C20_3 1_555 1_555
H18_3 C21_3 1_555 1_555
C22_3 C17_3 1_555 1_555
H19_3 C22_3 1_555 1_555
N12_3 Zn1_3 1_555 1_555
N4_3 C4_3 1_555 1_555
C5_3 C6_3 1_555 1_555
C8_3 C9_3 1_555 1_555
C11_3 C12_3 1_555 1_555
C21_3 C22_3 1_555 1_555
Zn3_3 N6_3 1_555 1_555
Zn3_4 N6_4 1_555 1_555
Zn1_4 O3_4 1_555 1_555
Zn6 O1_4 1_555 1_555
O1_4 C23_4 1_555 1_555
O2_4 C23_4 1_555 1_555
O3_4 C16_4 1_555 1_555
O4_4 C16_4 1_555 1_555
N4_4 Zn1_4 1_555 1_555
N13 C10_4 1_555 1_555
N8_4 Zn1_4 1_555 1_555
C4_4 N3_4 1_555 1_555
H4_4 C4_4 1_555 1_555
C5_4 N4_4 1_555 1_555
H5_4 C5_4 1_555 1_555
C6_4 N3_4 1_555 1_555
H6_4 C6_4 1_555 1_555
C7_4 N5_4 1_555 1_555
H7_4 C7_4 1_555 1_555
C8_4 N5_4 1_555 1_555
H8_4 C8_4 1_555 1_555
H9_4 C9_4 1_555 1_555
C10_4 N8_4 1_555 1_555
H10_4 C10_4 1_555 1_555
C11_4 N13 1_555 1_555
H11_4 C11_4 1_555 1_555
C12_4 N8_4 1_555 1_555
H12_4 C12_4 1_555 1_555
C16_4 C17_4 1_555 1_555
C17_4 C18_4 1_555 1_555
C18_4 H16_4 1_555 1_555
C19_4 C18_4 1_555 1_555
H17_4 C19_4 1_555 1_555
C20_4 C19_4 1_555 1_555
C21_4 C20_4 1_555 1_555
H18_4 C21_4 1_555 1_555
C22_4 C17_4 1_555 1_555
H19_4 C22_4 1_555 1_555
C23_4 C20_4 1_555 1_555
N11_4 Zn6 1_555 1_555
N12_4 Zn1_4 1_555 1_555
N4_4 C4_4 1_555 1_555
C5_4 C6_4 1_555 1_555
C8_4 C9_4 1_555 1_555
C11_4 C12_4 1_555 1_555
C21_4 C22_4 1_555 1_555
B1_4 N1_4 1_555 1_555
N1_4 C1_4 1_555 1_555
N2_4 C1_4 1_555 1_555
N9_4 B1_4 1_555 1_555
N14 C13_4 1_555 1_555
C1_4 H1_4 1_555 1_555
C2_4 N1_4 1_555 1_555
H2_4 C2_4 1_555 1_555
C3_4 N2_4 1_555 1_555
H3_4 C3_4 1_555 1_555
C13_4 N9_4 1_555 1_555
H13_4 C13_4 1_555 1_555
C14_4 N14 1_555 1_555
H14_4 C14_4 1_555 1_555
C15_4 N9_4 1_555 1_555
Zn4_4 N2_4 1_555 1_555
C2_4 C3_4 1_555 1_555
C14_4 C15_4 1_555 1_555
Zn3_2 O3_5 1_555 1_555
Zn4_4 O1_5 1_555 1_555
O1_5 C23_5 1_555 1_555
O2_5 C23_5 1_555 1_555
O3_5 C16_5 1_555 1_555
O4_5 C16_5 1_555 1_555
N4_5 Zn3_2 1_555 1_555
N7_3 C10_5 1_555 1_555
N8_5 Zn3_2 1_555 1_555
C4_5 N3_5 1_555 1_555
H4_5 C4_5 1_555 1_555
C5_5 N4_5 1_555 1_555
H5_5 C5_5 1_555 1_555
C6_5 N3_5 1_555 1_555
H6_5 C6_5 1_555 1_555
C7_5 N5_5 1_555 1_555
H7_5 C7_5 1_555 1_555
C8_5 N5_5 1_555 1_555
H8_5 C8_5 1_555 1_555
H9_5 C9_5 1_555 1_555
C10_5 N8_5 1_555 1_555
H10_5 C10_5 1_555 1_555
C11_5 N7_3 1_555 1_555
H11_5 C11_5 1_555 1_555
C12_5 N8_5 1_555 1_555
H12_5 C12_5 1_555 1_555
C16_5 C17_5 1_555 1_555
C17_5 C18_5 1_555 1_555
C18_5 H16_5 1_555 1_555
C19_5 C18_5 1_555 1_555
H17_5 C19_5 1_555 1_555
C20_5 C19_5 1_555 1_555
C21_5 C20_5 1_555 1_555
H18_5 C21_5 1_555 1_555
C22_5 C17_5 1_555 1_555
H19_5 C22_5 1_555 1_555
C23_5 C20_5 1_555 1_555
Zn4_2 N7_3 1_555 1_555
N13_3 Zn4_4 1_555 1_555
N14_3 Zn4_4 1_555 1_555
N4_5 C4_5 1_555 1_555
C5_5 C6_5 1_555 1_555
C8_5 C9_5 1_555 1_555
C11_5 C12_5 1_555 1_555
C21_5 C22_5 1_555 1_555
B1_5 N1_5 1_555 1_555
N1_5 C1_5 1_555 1_555
N11_4 C1_5 1_555 1_555
N9_5 B1_5 1_555 1_555
N10_3 C13_5 1_555 1_555
C1_5 H1_5 1_555 1_555
C2_5 N1_5 1_555 1_555
H2_5 C2_5 1_555 1_555
C3_5 N11_4 1_555 1_555
H3_5 C3_5 1_555 1_555
C13_5 N9_5 1_555 1_555
H13_5 C13_5 1_555 1_555
C14_5 N10_3 1_555 1_555
H14_5 C14_5 1_555 1_555
C15_5 N9_5 1_555 1_555
Zn4_2 N10_3 1_555 1_555
C2_5 C3_5 1_555 1_555
C14_5 C15_5 1_555 1_555
B1_6 N1_6 1_555 1_555
N1_6 C1_6 1_555 1_555
N11_3 C1_6 1_555 1_555
N9_6 B1_6 1_555 1_555
N10_4 C13_6 1_555 1_555
C1_6 H1_6 1_555 1_555
C2_6 N1_6 1_555 1_555
H2_6 C2_6 1_555 1_555
C3_6 N11_3 1_555 1_555
H3_6 C3_6 1_555 1_555
C13_6 N9_6 1_555 1_555
H13_6 C13_6 1_555 1_555
C14_6 N10_4 1_555 1_555
H14_6 C14_6 1_555 1_555
C15_6 N9_6 1_555 1_555
Zn4 N10_4 1_555 1_555
C2_6 C3_6 1_555 1_555
C14_6 C15_6 1_555 1_555
Zn3 O3_6 1_555 1_555
O3_6 C16_6 1_555 1_555
O4_6 C16_6 1_555 1_555
N4_6 Zn3 1_555 1_555
N7_4 C10_6 1_555 1_555
N8_6 Zn3 1_555 1_555
C4_6 N3_6 1_555 1_555
H4_6 C4_6 1_555 1_555
C5_6 N4_6 1_555 1_555
H5_6 C5_6 1_555 1_555
C6_6 N3_6 1_555 1_555
H6_6 C6_6 1_555 1_555
C7_6 N5_6 1_555 1_555
H7_6 C7_6 1_555 1_555
C8_6 N5_6 1_555 1_555
H8_6 C8_6 1_555 1_555
H9_6 C9_6 1_555 1_555
C10_6 N8_6 1_555 1_555
H10_6 C10_6 1_555 1_555
C11_6 N7_4 1_555 1_555
H11_6 C11_6 1_555 1_555
C12_6 N8_6 1_555 1_555
H12_6 C12_6 1_555 1_555
C16_6 C17_6 1_555 1_555
C17_6 C18_6 1_555 1_555
C18_6 H16_6 1_555 1_555
C19_6 C18_6 1_555 1_555
H17_6 C19_6 1_555 1_555
C20_6 C19_6 1_555 1_555
C21_6 C20_6 1_555 1_555
H18_6 C21_6 1_555 1_555
C22_6 C17_6 1_555 1_555
H19_6 C22_6 1_555 1_555
Zn4 N7_4 1_555 1_555
N4_6 C4_6 1_555 1_555
C5_6 C6_6 1_555 1_555
C8_6 C9_6 1_555 1_555
C11_6 C12_6 1_555 1_555
C21_6 C22_6 1_555 1_555
Zn4_3 O1_6 1_555 1_555
O1_6 C23_6 1_555 1_555
O2_6 C23_6 1_555 1_555
N13_4 Zn4_3 1_555 1_555
N14_4 Zn4_3 1_555 1_555
N13_4 C10_7 1_555 1_555
H10_7 C10_7 1_555 1_555
B1_7 N1_7 1_555 1_555
Zn3_3 O3_7 1_555 1_555
Zn4_2 O1_7 1_555 1_555
O1_7 C23_7 1_555 1_555
O3_7 C16_7 1_555 1_555
O4_7 C16_7 1_555 1_555
N1_7 C1_7 1_555 1_555
N11_2 C1_7 1_555 1_555
N3_7 B1_7 1_555 1_555
N4_7 Zn3_3 1_555 1_555
N5_7 B1_7 1_555 1_555
N12_3 C7_7 1_555 1_555
N8_7 Zn3_3 1_555 1_555
N9_7 B1_7 1_555 1_555
N14_4 C13_7 1_555 1_555
C1_7 H1_7 1_555 1_555
C2_7 N1_7 1_555 1_555
H2_7 C2_7 1_555 1_555
C3_7 N11_2 1_555 1_555
H3_7 C3_7 1_555 1_555
C4_7 N3_7 1_555 1_555
H4_7 C4_7 1_555 1_555
C5_7 N4_7 1_555 1_555
H5_7 C5_7 1_555 1_555
C6_7 N3_7 1_555 1_555
H6_7 C6_7 1_555 1_555
C7_7 N5_7 1_555 1_555
H7_7 C7_7 1_555 1_555
C8_7 N5_7 1_555 1_555
H8_7 C8_7 1_555 1_555
C9_7 N12_3 1_555 1_555
H9_7 C9_7 1_555 1_555
H11_7 C11_7 1_555 1_555
C12_7 N8_7 1_555 1_555
H12_7 C12_7 1_555 1_555
C13_7 N9_7 1_555 1_555
H13_7 C13_7 1_555 1_555
C14_7 N14_4 1_555 1_555
H14_7 C14_7 1_555 1_555
C15_7 N9_7 1_555 1_555
H15_7 C15_7 1_555 1_555
C16_7 C17_7 1_555 1_555
C17_7 C18_7 1_555 1_555
C18_7 H16_7 1_555 1_555
C19_7 C18_7 1_555 1_555
H17_7 C19_7 1_555 1_555
C20_7 C19_7 1_555 1_555
C21_7 C20_7 1_555 1_555
C22_7 C17_7 1_555 1_555
C23_7 C20_7 1_555 1_555
N4_7 C4_7 1_555 1_555
C2_7 C3_7 1_555 1_555
C5_7 C6_7 1_555 1_555
C8_7 C9_7 1_555 1_555
C11_7 C12_7 1_555 1_555
C14_7 C15_7 1_555 1_555
C21_7 C22_7 1_555 1_555
B1_8 N1_8 1_555 1_555
Zn3_4 O3_8 1_555 1_555
Zn4 O1_8 1_555 1_555
O1_8 C23_8 1_555 1_555
O3_8 C16_8 1_555 1_555
O4_8 C16_8 1_555 1_555
N1_8 C1_8 1_555 1_555
N11 C1_8 1_555 1_555
N3_8 B1_8 1_555 1_555
N4_8 Zn3_4 1_555 1_555
N5_8 B1_8 1_555 1_555
N12_4 C7_8 1_555 1_555
N8_8 Zn3_4 1_555 1_555
N9_8 B1_8 1_555 1_555
N14_3 C13_8 1_555 1_555
C1_8 H1_8 1_555 1_555
C2_8 N1_8 1_555 1_555
H2_8 C2_8 1_555 1_555
C3_8 N11 1_555 1_555
H3_8 C3_8 1_555 1_555
C4_8 N3_8 1_555 1_555
H4_8 C4_8 1_555 1_555
C5_8 N4_8 1_555 1_555
H5_8 C5_8 1_555 1_555
C6_8 N3_8 1_555 1_555
H6_8 C6_8 1_555 1_555
C7_8 N5_8 1_555 1_555
H7_8 C7_8 1_555 1_555
C8_8 N5_8 1_555 1_555
H8_8 C8_8 1_555 1_555
C9_8 N12_4 1_555 1_555
H9_8 C9_8 1_555 1_555
H11_8 C11_8 1_555 1_555
C12_8 N8_8 1_555 1_555
H12_8 C12_8 1_555 1_555
C13_8 N9_8 1_555 1_555
H13_8 C13_8 1_555 1_555
C14_8 N14_3 1_555 1_555
H14_8 C14_8 1_555 1_555
C15_8 N9_8 1_555 1_555
H15_8 C15_8 1_555 1_555
C16_8 C17_8 1_555 1_555
C17_8 C18_8 1_555 1_555
C18_8 H16_8 1_555 1_555
C19_8 C18_8 1_555 1_555
H17_8 C19_8 1_555 1_555
C20_8 C19_8 1_555 1_555
C21_8 C20_8 1_555 1_555
C22_8 C17_8 1_555 1_555
C23_8 C20_8 1_555 1_555
N4_8 C4_8 1_555 1_555
C2_8 C3_8 1_555 1_555
C5_8 C6_8 1_555 1_555
C8_8 C9_8 1_555 1_555
C11_8 C12_8 1_555 1_555
C14_8 C15_8 1_555 1_555
C21_8 C22_8 1_555 1_555
N13_3 C10_8 1_555 1_555
H10_8 C10_8 1_555 1_555

#END
