
###############################################################################
#
# This file contains modified crystal structure data generated from the
# MOF subset of the Cambridge Structural Database (CSD) v543 
# hosted by the Cambridge Crystallographic Data Centre (CCDC).
#
# This work is licensed under the Creative Commons
# Attribution-NonCommercial-ShareAlike 4.0 International License.
# To view a copy of this license, visit
# http://creativecommons.org/licenses/by-nc-sa/4.0/
# or send a letter to
# Creative Commons, PO Box 1866, Mountain View, CA 94042, USA.
#
# CIF created using the CSD Python API on 29 September 2022
# The structure has been converted into the P1 space group
# The structure has a 3D framework
# The original CSD entry HACNIL is in the tetragonal crystal system
# The framework has been calculated to contain at least 10.0% void space
# The void calculation uses a probe of radius 1.32A, grid spacing 0.4
#
###############################################################################

data_HACNIL
_chemical_formula_moiety         '(C608 H352 N32 O80 Zn16)n'
_symmetry_cell_setting           triclinic
_symmetry_space_group_name_H-M   'P 1'
_symmetry_Int_Tables_number      1
_space_group_name_Hall           'P 1'
loop_
_symmetry_equiv_pos_site_id
_symmetry_equiv_pos_as_xyz
1 x,y,z
_cell_length_a                   33.9529(14)
_cell_length_b                   33.9529(14)
_cell_length_c                   17.1833(8)
_cell_angle_alpha                90
_cell_angle_beta                 90
_cell_angle_gamma                90
_cell_volume                     19808.9
loop_
_atom_site_label
_atom_site_type_symbol
_atom_site_fract_x
_atom_site_fract_y
_atom_site_fract_z
C65 C 0.31157(18) 0.00112(18) 0.8610(6)
C66 C 0.31636(16) 0.04146(15) 0.8518(4)
C67 C 0.28709(15) 0.07332(16) 0.8432(4)
C68 C 0.24643(18) 0.07151(19) 0.8393(6)
H41 H 0.2329 0.0470 0.8392
C69 C 0.22615(17) 0.10704(18) 0.8356(5)
H42 H 0.1982 0.1066 0.8321
C70 C 0.24539(15) 0.14314(15) 0.8369(3)
C71 C 0.28608(14) 0.14404(14) 0.8369(3)
H43 H 0.2996 0.1685 0.8348
C72 C 0.30685(14) 0.10923(13) 0.8401(3)
C73 C 0.34945(14) 0.10149(14) 0.8434(4)
O8 O 0.37554(11) 0.12511(11) 0.8413(3)
C74 C 0.35373(13) 0.05816(13) 0.8517(3)
C75 C 0.38673(14) 0.03505(13) 0.8593(3)
H44 H 0.4122 0.0466 0.8578
C76 C 0.22184(15) 0.17984(16) 0.8399(3)
O9 O 0.24013(9) 0.21175(10) 0.84540(19)
O10 O 0.18481(10) 0.17707(10) 0.8371(2)
Zn6 Zn 0.20159(2) 0.25450(2) 0.85838(3)
C1 C 0.49994(14) 0.73059(13) 0.3901(3)
C2 C 0.50151(14) 0.70664(12) 0.3171(3)
C3 C 0.53257(19) 0.70891(16) 0.2646(3)
H1 H 0.5526 0.7280 0.2727
C4 C 0.53512(18) 0.68429(16) 0.2010(3)
H2 H 0.5572 0.6856 0.1672
C5 C 0.50472(13) 0.65729(11) 0.1866(2)
C6 C 0.47456(12) 0.65436(12) 0.2395(3)
H3 H 0.4543 0.6354 0.2317
C7 C 0.47333(12) 0.67844(12) 0.3035(3)
H4 H 0.4523 0.6755 0.3396
C8 C 0.48954(17) 0.57124(14) 0.0515(3)
H5 H 0.4760 0.5467 0.0524
C9 C 0.48844(18) 0.59439(15) 0.1157(3)
H6 H 0.4747 0.5855 0.1605
C10 C 0.50697(13) 0.63084(12) 0.1177(2)
C11 C 0.52992(12) 0.63867(12) 0.0545(3)
H7 H 0.5459 0.6616 0.0541
C13 C 0.49881(13) 0.70516(12) 0.4616(3)
C14 C 0.47132(14) 0.71022(13) 0.5199(3)
H9 H 0.4532 0.7315 0.5168
C15 C 0.46969(14) 0.68517(13) 0.5822(3)
H10 H 0.4504 0.6892 0.6214
C16 C 0.49611(13) 0.65374(12) 0.5890(2)
C17 C 0.52292(14) 0.64847(13) 0.5301(3)
H11 H 0.5409 0.6271 0.5328
C18 C 0.52423(14) 0.67349(14) 0.4670(3)
H12 H 0.5428 0.6689 0.4267
N2 N 0.49980(11) 0.58221(10) 0.7942(2)
C19 C 0.5284(2) 0.5829(3) 0.7430(4)
H13 H 0.5508 0.5669 0.7525
C20 C 0.5279(2) 0.6054(2) 0.6759(4)
H14 H 0.5499 0.6047 0.6417
C21 C 0.49673(13) 0.62821(12) 0.6586(3)
C22 C 0.46755(16) 0.62814(16) 0.7131(3)
H15 H 0.4449 0.6442 0.7052
C23 C 0.47009(16) 0.60543(15) 0.7791(3)
H16 H 0.4491 0.6067 0.8156
C39 C 0.50006(14) 0.76941(13) 0.3901(3)
C40 C 0.49849(14) 0.79336(12) 0.3171(3)
C41 C 0.46743(19) 0.79109(16) 0.2646(3)
H23 H 0.4474 0.7720 0.2727
C42 C 0.46488(18) 0.81571(16) 0.2010(3)
H24 H 0.4428 0.8144 0.1672
C43 C 0.49528(13) 0.84271(11) 0.1866(2)
C44 C 0.52544(12) 0.84564(12) 0.2395(3)
H25 H 0.5457 0.8646 0.2317
C45 C 0.52667(12) 0.82156(12) 0.3035(3)
H26 H 0.5477 0.8245 0.3396
C46 C 0.51046(17) 0.92876(14) 0.0515(3)
H27 H 0.5240 0.9533 0.0524
C47 C 0.51156(18) 0.90561(15) 0.1157(3)
H28 H 0.5253 0.9145 0.1605
C48 C 0.49303(13) 0.86916(12) 0.1177(2)
C49 C 0.47008(12) 0.86133(12) 0.0545(3)
H29 H 0.4541 0.8384 0.0541
C51 C 0.50119(13) 0.79484(12) 0.4616(3)
C52 C 0.52868(14) 0.78978(13) 0.5199(3)
H31 H 0.5468 0.7685 0.5168
C53 C 0.53031(14) 0.81483(13) 0.5822(3)
H32 H 0.5496 0.8108 0.6214
C54 C 0.50389(13) 0.84626(12) 0.5890(2)
C55 C 0.47708(14) 0.85153(13) 0.5301(3)
H33 H 0.4591 0.8729 0.5328
C56 C 0.47577(14) 0.82651(14) 0.4670(3)
H34 H 0.4572 0.8311 0.4267
N4 N 0.50020(11) 0.91779(10) 0.7942(2)
C57 C 0.4716(2) 0.9171(3) 0.7430(4)
H35 H 0.4492 0.9331 0.7525
C58 C 0.4721(2) 0.8946(2) 0.6759(4)
H36 H 0.4501 0.8953 0.6417
C59 C 0.50327(13) 0.87179(12) 0.6586(3)
C60 C 0.53245(16) 0.87186(16) 0.7131(3)
H37 H 0.5551 0.8558 0.7052
C61 C 0.52991(16) 0.89457(15) 0.7791(3)
H38 H 0.5509 0.8933 0.8156
Zn3 Zn 0.50450(2) 0.54841(2) 0.89162(3)
Zn4 Zn 0.49550(2) 0.95159(2) 0.89162(3)
N1 N 0.50879(10) 0.58154(9) 0.9876(2)
C12 C 0.53031(13) 0.61404(13) 0.9917(3)
H8 H 0.5468 0.6205 0.9489
O1 O 0.54911(9) 0.51336(9) 0.87534(19)
O2 O 0.58625(10) 0.56720(9) 0.8840(2)
C24 C 0.58216(15) 0.53094(14) 0.8772(3)
C25 C 0.61748(14) 0.50511(14) 0.8691(3)
C26 C 0.65492(17) 0.52159(17) 0.8692(5)
H17 H 0.6576 0.5493 0.8751
C27 C 0.68843(18) 0.49888(18) 0.8610(6)
H18 H 0.7139 0.5105 0.8617
C28 C 0.68364(16) 0.45854(15) 0.8518(4)
C29 C 0.71291(15) 0.42668(16) 0.8432(4)
C30 C 0.75357(18) 0.42849(19) 0.8393(6)
H19 H 0.7671 0.4530 0.8392
C31 C 0.77385(17) 0.39296(18) 0.8356(5)
H20 H 0.8018 0.3934 0.8321
C32 C 0.75461(15) 0.35686(15) 0.8369(3)
C33 C 0.71392(14) 0.35596(14) 0.8369(3)
H21 H 0.7004 0.3315 0.8348
C34 C 0.69315(14) 0.39077(13) 0.8401(3)
C35 C 0.65055(14) 0.39851(14) 0.8434(4)
O3 O 0.62446(11) 0.37489(11) 0.8413(3)
C36 C 0.64627(13) 0.44184(13) 0.8517(3)
C37 C 0.61327(14) 0.46495(13) 0.8593(3)
H22 H 0.5878 0.4534 0.8578
C38 C 0.77816(15) 0.32016(16) 0.8399(3)
O4 O 0.75987(9) 0.28825(10) 0.84540(19)
O5 O 0.81519(10) 0.32293(10) 0.8371(2)
N3 N 0.49121(10) 0.91846(9) 0.9876(2)
C50 C 0.46969(13) 0.88596(13) 0.9917(3)
H30 H 0.4532 0.8795 0.9489
O6 O 0.45089(9) 0.98664(9) 0.87534(19)
O7 O 0.41375(10) 0.93280(9) 0.8840(2)
C62 C 0.41784(15) 0.96906(14) 0.8772(3)
C63 C 0.38252(14) 0.99489(14) 0.8691(3)
C64 C 0.34508(17) 0.97841(17) 0.8692(5)
H39 H 0.3424 0.9507 0.8751
H40 H 0.2861 0.9895 0.8617
Zn5 Zn 0.79841(2) 0.24550(2) 0.85838(3)
O11 O 0.53825(10) 0.99013(9) 0.90460(19)
O12 O 0.46175(10) 0.50987(9) 0.90460(19)
C39_2 C 0.01941(13) 0.24994(14) 0.3599(3)
C40_2 C 0.04336(12) 0.25151(14) 0.4329(3)
C41_2 C 0.04109(16) 0.28257(19) 0.4854(3)
H23_2 H 0.0220 0.3026 0.4773
C42_2 C 0.06571(16) 0.28512(18) 0.5490(3)
H24_2 H 0.0644 0.3072 0.5828
C43_2 C 0.09271(11) 0.25472(13) 0.5634(2)
C44_2 C 0.09564(12) 0.22456(12) 0.5105(3)
H25_2 H 0.1146 0.2043 0.5183
C45_2 C 0.07156(12) 0.22333(12) 0.4465(3)
H26_2 H 0.0745 0.2023 0.4104
N3_2 N 0.16846(9) 0.25879(10) 0.7624(2)
C46_2 C 0.17876(14) 0.23954(17) 0.6985(3)
H27_2 H 0.2033 0.2260 0.6976
C47_2 C 0.15561(15) 0.23844(18) 0.6343(3)
H28_2 H 0.1645 0.2247 0.5895
C48_2 C 0.11916(12) 0.25697(13) 0.6323(2)
C49_2 C 0.11133(12) 0.27992(12) 0.6955(3)
H29_2 H 0.0884 0.2959 0.6959
C50_2 C 0.13596(13) 0.28031(13) 0.7583(3)
H30_2 H 0.1295 0.2968 0.8011
C51_2 C 0.04484(12) 0.24881(13) 0.2884(3)
C52_2 C 0.03978(13) 0.22132(14) 0.2301(3)
H31_2 H 0.0185 0.2032 0.2332
C53_2 C 0.06483(13) 0.21969(14) 0.1678(3)
H32_2 H 0.0608 0.2004 0.1286
C54_2 C 0.09626(12) 0.24611(13) 0.1610(2)
C55_2 C 0.10153(13) 0.27292(14) 0.2199(3)
H33_2 H 0.1229 0.2909 0.2172
C56_2 C 0.07651(14) 0.27423(14) 0.2830(3)
H34_2 H 0.0811 0.2928 0.3233
C57_2 C 0.1671(3) 0.2784(2) 0.0070(4)
C58_2 C 0.1446(2) 0.2779(2) 0.0741(4)
H36_2 H 0.1453 0.2999 0.1083
C59_2 C 0.12179(12) 0.24673(13) 0.0914(3)
C60_2 C 0.12186(16) 0.21755(16) 0.0369(3)
H37_2 H 0.1058 0.1949 0.0448
O6_2 O 0.23664(9) 0.29911(9) 0.87466(19)
O7_2 O 0.18280(9) 0.33625(10) 0.8660(2)
C62_2 C 0.21906(14) 0.33216(15) 0.8728(3)
C63_2 C 0.24489(14) 0.36748(14) 0.8809(3)
C64_2 C 0.22841(17) 0.40492(17) 0.8808(5)
H39_2 H 0.2007 0.4076 0.8749
C65_2 C 0.25112(18) 0.43843(18) 0.8890(6)
H40_2 H 0.2395 0.4639 0.8883
C66_2 C 0.29146(15) 0.43364(16) 0.8982(4)
C67_2 C 0.32332(16) 0.46291(15) 0.9068(4)
C68_2 C 0.32151(19) 0.50357(18) 0.9107(6)
H41_2 H 0.2970 0.5171 0.9108
C69_2 C 0.35704(18) 0.52385(17) 0.9144(5)
H42_2 H 0.3566 0.5518 0.9179
C70_2 C 0.39314(15) 0.50461(15) 0.9131(3)
C71_2 C 0.39404(14) 0.46392(14) 0.9131(3)
H43_2 H 0.4185 0.4504 0.9152
C72_2 C 0.35923(13) 0.44315(14) 0.9099(3)
C73_2 C 0.35149(14) 0.40055(14) 0.9066(4)
O8_2 O 0.37511(11) 0.37446(11) 0.9087(3)
C74_2 C 0.30816(13) 0.39627(13) 0.8983(3)
C75_2 C 0.28505(13) 0.36327(14) 0.8907(3)
H44_2 H 0.2966 0.3378 0.8922
C76_2 C 0.42984(16) 0.52816(15) 0.9101(3)
O10_2 O 0.42707(10) 0.56519(10) 0.9129(2)
N6 N 0.16779(10) 0.24980(11) 0.9558(2)
H35_2 H 0.1831 0.3008 0.9975
C61_2 C 0.14457(15) 0.22009(16) 0.9709(3)
H38_2 H 0.1433 0.1991 0.9344
C1_2 C 0.98059(13) 0.25006(14) 0.3599(3)
C2_2 C 0.95664(12) 0.24849(14) 0.4329(3)
C3_2 C 0.95891(16) 0.21743(19) 0.4854(3)
H1_2 H 0.9780 0.1974 0.4773
C4_2 C 0.93429(16) 0.21488(18) 0.5490(3)
H2_2 H 0.9356 0.1928 0.5828
C5_2 C 0.90729(11) 0.24528(13) 0.5634(2)
C6_2 C 0.90436(12) 0.27544(12) 0.5105(3)
H3_2 H 0.8854 0.2957 0.5183
C7_2 C 0.92844(12) 0.27667(12) 0.4465(3)
H4_2 H 0.9255 0.2977 0.4104
N1_2 N 0.83154(9) 0.24121(10) 0.7624(2)
C8_2 C 0.82124(14) 0.26046(17) 0.6985(3)
H5_2 H 0.7967 0.2740 0.6976
C9_2 C 0.84439(15) 0.26156(18) 0.6343(3)
H6_2 H 0.8355 0.2753 0.5895
C10_2 C 0.88084(12) 0.24303(13) 0.6323(2)
C11_2 C 0.88867(12) 0.22008(12) 0.6955(3)
H7_2 H 0.9116 0.2041 0.6959
C12_2 C 0.86404(13) 0.21969(13) 0.7583(3)
H8_2 H 0.8705 0.2032 0.8011
C13_2 C 0.95516(12) 0.25119(13) 0.2884(3)
C14_2 C 0.96022(13) 0.27868(14) 0.2301(3)
H9_2 H 0.9815 0.2968 0.2332
C15_2 C 0.93517(13) 0.28031(14) 0.1678(3)
H10_2 H 0.9392 0.2996 0.1286
C16_2 C 0.90374(12) 0.25389(13) 0.1610(2)
C17_2 C 0.89847(13) 0.22708(14) 0.2199(3)
H11_2 H 0.8771 0.2091 0.2172
C18_2 C 0.92349(14) 0.22577(14) 0.2830(3)
H12_2 H 0.9189 0.2072 0.3233
C19_2 C 0.8329(3) 0.2216(2) 0.0070(4)
C20_2 C 0.8554(2) 0.2221(2) 0.0741(4)
H14_2 H 0.8547 0.2001 0.1083
C21_2 C 0.87821(12) 0.25327(13) 0.0914(3)
C22_2 C 0.87814(16) 0.28245(16) 0.0369(3)
H15_2 H 0.8942 0.3051 0.0448
O1_2 O 0.76336(9) 0.20089(9) 0.87466(19)
O2_2 O 0.81720(9) 0.16375(10) 0.8660(2)
C24_2 C 0.78094(14) 0.16784(15) 0.8728(3)
C25_2 C 0.75511(14) 0.13252(14) 0.8809(3)
C26_2 C 0.77159(17) 0.09508(17) 0.8808(5)
H17_2 H 0.7993 0.0924 0.8749
C27_2 C 0.74888(18) 0.06157(18) 0.8890(6)
H18_2 H 0.7605 0.0361 0.8883
C28_2 C 0.70854(15) 0.06636(16) 0.8982(4)
C29_2 C 0.67668(16) 0.03709(15) 0.9068(4)
C33_2 C 0.60596(14) 0.03608(14) 0.9131(3)
H21_2 H 0.5815 0.0496 0.9152
C34_2 C 0.64077(13) 0.05685(14) 0.9099(3)
C35_2 C 0.64851(14) 0.09945(14) 0.9066(4)
O3_2 O 0.62489(11) 0.12554(11) 0.9087(3)
C36_2 C 0.69184(13) 0.10373(13) 0.8983(3)
C37_2 C 0.71495(13) 0.13673(14) 0.8907(3)
H22_2 H 0.7034 0.1622 0.8922
N5 N 0.83221(10) 0.25020(11) 0.9558(2)
H13_2 H 0.8169 0.1992 0.9975
C23_2 C 0.85543(15) 0.27991(16) 0.9709(3)
H16_2 H 0.8567 0.3009 0.9344
C30_2 C 0.67849(19) 0.99643(18) 0.9107(6)
H19_2 H 0.7030 0.9829 0.9108
C31_2 C 0.64296(18) 0.97615(17) 0.9144(5)
H20_2 H 0.6434 0.9482 0.9179
C32_2 C 0.60686(15) 0.99539(15) 0.9131(3)
C38_2 C 0.57016(16) 0.97184(15) 0.9101(3)
O5_2 O 0.57293(10) 0.93481(10) 0.9129(2)
C14_3 C 0.02868(14) 0.28978(13) 0.0199(3)
H9_3 H 0.0468 0.2685 0.0168
C15_3 C 0.03031(14) 0.31483(13) 0.0822(3)
H10_3 H 0.0496 0.3108 0.1214
C16_3 C 0.00389(13) 0.34626(12) 0.0890(2)
N2_2 N 0.00020(11) 0.41779(10) 0.2942(2)
C21_3 C 0.00327(13) 0.37179(12) 0.1586(3)
C22_3 C 0.03245(16) 0.37186(16) 0.2131(3)
H15_3 H 0.0551 0.3558 0.2052
C23_3 C 0.02991(16) 0.39457(15) 0.2791(3)
H16_3 H 0.0509 0.3933 0.3156
C55_3 C 0.02292(14) 0.14847(13) 0.0301(3)
H33_3 H 0.0409 0.1271 0.0328
C57_3 C 0.0284(2) 0.0829(3) 0.2430(4)
H35_3 H 0.0508 0.0669 0.2525
C58_3 C 0.0279(2) 0.1054(2) 0.1759(4)
H36_3 H 0.0499 0.1047 0.1417
Zn4_2 Zn 0.00450(2) 0.04841(2) 0.39162(3)
C1_3 C 0.00006(14) 0.26941(13) 0.8901(3)
C6_3 C 0.02544(12) 0.34564(12) 0.7395(3)
H3_3 H 0.0457 0.3646 0.7317
C7_3 C 0.02667(12) 0.32156(12) 0.8035(3)
H4_3 H 0.0477 0.3245 0.8396
C8_3 C 0.01046(17) 0.42876(14) 0.5515(3)
H5_3 H 0.0240 0.4533 0.5524
C9_3 C 0.01156(18) 0.40561(15) 0.6157(3)
H6_3 H 0.0253 0.4145 0.6605
C13_3 C 0.00119(13) 0.29484(12) 0.9616(3)
C40_3 C 0.00151(14) 0.20664(12) 0.8171(3)
C41_3 C 0.03257(19) 0.20891(16) 0.7646(3)
H23_3 H 0.0526 0.2280 0.7727
C42_3 C 0.03512(18) 0.18429(16) 0.7010(3)
H24_3 H 0.0572 0.1856 0.6672
C43_3 C 0.00472(13) 0.15729(11) 0.6866(2)
N3_3 N 0.00879(10) 0.08154(9) 0.4876(2)
C48_3 C 0.00697(13) 0.13084(12) 0.6177(2)
C49_3 C 0.02992(12) 0.13867(12) 0.5545(3)
H29_3 H 0.0459 0.1616 0.5541
C50_3 C 0.03031(13) 0.11404(13) 0.4917(3)
H30_3 H 0.0468 0.1205 0.4489
C56_3 C 0.02423(14) 0.17349(14) 0.9670(3)
H34_3 H 0.0428 0.1689 0.9267
O6_3 O 0.04911(9) 0.01336(9) 0.37534(19)
O7_3 O 0.08625(10) 0.06720(9) 0.3840(2)
C62_3 C 0.08216(15) 0.03094(14) 0.3772(3)
C63_3 C 0.11748(14) 0.00511(14) 0.3691(3)
C64_3 C 0.15492(17) 0.02159(17) 0.3692(5)
H39_3 H 0.1576 0.0493 0.3751
H40_3 H 0.2139 0.0105 0.3617
O12_2 O 0.03825(10) 0.49013(9) 0.40460(19)
C65_3 C 0.18843(18) 0.99888(18) 0.3610(6)
C66_3 C 0.18364(16) 0.95854(15) 0.3518(4)
C67_3 C 0.21291(15) 0.92668(16) 0.3432(4)
C68_3 C 0.25357(18) 0.92849(19) 0.3393(6)
H41_3 H 0.2671 0.9530 0.3392
C69_3 C 0.27385(17) 0.89296(18) 0.3356(5)
H42_3 H 0.3018 0.8934 0.3321
C70_3 C 0.25461(15) 0.85686(15) 0.3369(3)
C71_3 C 0.21392(14) 0.85596(14) 0.3369(3)
H43_3 H 0.2004 0.8315 0.3348
C72_3 C 0.19315(14) 0.89077(13) 0.3401(3)
C73_3 C 0.15055(14) 0.89851(14) 0.3434(4)
O8_3 O 0.12446(11) 0.87489(11) 0.3413(3)
C74_3 C 0.14627(13) 0.94184(13) 0.3517(3)
C75_3 C 0.11327(14) 0.96495(13) 0.3593(3)
H44_3 H 0.0878 0.9534 0.3578
C76_3 C 0.27816(15) 0.82016(16) 0.3399(3)
O9_2 O 0.25987(9) 0.78825(10) 0.34540(19)
O10_3 O 0.31519(10) 0.82293(10) 0.3371(2)
Zn6_2 Zn 0.29841(2) 0.74550(2) 0.35838(3)
C17_3 C 0.97708(14) 0.35153(13) 0.0301(3)
H11_3 H 0.9591 0.3729 0.0328
C19_3 C 0.9716(2) 0.4171(3) 0.2430(4)
H13_3 H 0.9492 0.4331 0.2525
C20_3 C 0.9721(2) 0.3946(2) 0.1759(4)
H14_3 H 0.9501 0.3953 0.1417
C52_3 C 0.97132(14) 0.21022(13) 0.0199(3)
H31_3 H 0.9532 0.2315 0.0168
C53_3 C 0.96969(14) 0.18517(13) 0.0822(3)
H32_3 H 0.9504 0.1892 0.1214
C54_3 C 0.99611(13) 0.15374(12) 0.0890(2)
N4_2 N 0.99980(11) 0.08221(10) 0.2942(2)
C59_3 C 0.99673(13) 0.12821(12) 0.1586(3)
C60_3 C 0.96755(16) 0.12814(16) 0.2131(3)
H37_3 H 0.9449 0.1442 0.2052
C61_3 C 0.97009(16) 0.10543(15) 0.2791(3)
H38_3 H 0.9491 0.1067 0.3156
Zn3_2 Zn 0.99550(2) 0.45159(2) 0.39162(3)
C2_3 C 0.99849(14) 0.29336(12) 0.8171(3)
C3_3 C 0.96743(19) 0.29109(16) 0.7646(3)
H1_3 H 0.9474 0.2720 0.7727
C4_3 C 0.96488(18) 0.31571(16) 0.7010(3)
H2_3 H 0.9428 0.3144 0.6672
C5_3 C 0.99528(13) 0.34271(11) 0.6866(2)
N1_3 N 0.99121(10) 0.41846(9) 0.4876(2)
C10_3 C 0.99303(13) 0.36916(12) 0.6177(2)
C11_3 C 0.97008(12) 0.36133(12) 0.5545(3)
H7_3 H 0.9541 0.3384 0.5541
C12_3 C 0.96969(13) 0.38596(13) 0.4917(3)
H8_3 H 0.9532 0.3795 0.4489
C18_3 C 0.97577(14) 0.32651(14) 0.9670(3)
H12_3 H 0.9572 0.3311 0.9267
O1_3 O 0.95089(9) 0.48664(9) 0.37534(19)
O2_3 O 0.91375(10) 0.43280(9) 0.3840(2)
C24_3 C 0.91784(15) 0.46906(14) 0.3772(3)
C25_3 C 0.88252(14) 0.49489(14) 0.3691(3)
C26_3 C 0.84508(17) 0.47841(17) 0.3692(5)
H17_3 H 0.8424 0.4507 0.3751
C27_3 C 0.81157(18) 0.50112(18) 0.3610(6)
H18_3 H 0.7861 0.4895 0.3617
C28_3 C 0.81636(16) 0.54146(15) 0.3518(4)
C29_3 C 0.78709(15) 0.57332(16) 0.3432(4)
C30_3 C 0.74643(18) 0.57151(19) 0.3393(6)
H19_3 H 0.7329 0.5470 0.3392
C31_3 C 0.72615(17) 0.60704(18) 0.3356(5)
H20_3 H 0.6982 0.6066 0.3321
C32_3 C 0.74539(15) 0.64314(15) 0.3369(3)
C33_3 C 0.78608(14) 0.64404(14) 0.3369(3)
H21_3 H 0.7996 0.6685 0.3348
C34_3 C 0.80685(14) 0.60923(13) 0.3401(3)
C35_3 C 0.84945(14) 0.60149(14) 0.3434(4)
O3_3 O 0.87554(11) 0.62511(11) 0.3413(3)
C36_3 C 0.85373(13) 0.55816(13) 0.3517(3)
C37_3 C 0.88673(14) 0.53505(13) 0.3593(3)
H22_3 H 0.9122 0.5466 0.3578
C38_3 C 0.72184(15) 0.67984(16) 0.3399(3)
O4_2 O 0.74013(9) 0.71175(10) 0.34540(19)
O5_3 O 0.68481(10) 0.67707(10) 0.3371(2)
C39_3 C 0.99994(14) 0.23059(13) 0.8901(3)
C44_3 C 0.97456(12) 0.15436(12) 0.7395(3)
H25_3 H 0.9543 0.1354 0.7317
C45_3 C 0.97333(12) 0.17844(12) 0.8035(3)
H26_3 H 0.9523 0.1755 0.8396
C46_3 C 0.98954(17) 0.07124(14) 0.5515(3)
H27_3 H 0.9760 0.0467 0.5524
C47_3 C 0.98844(18) 0.09439(15) 0.6157(3)
H28_3 H 0.9747 0.0855 0.6605
C51_3 C 0.99881(13) 0.20516(12) 0.9616(3)
Zn5_2 Zn 0.70159(2) 0.75450(2) 0.35838(3)
O11_2 O 0.96175(10) 0.00987(9) 0.40460(19)
C30_4 C 0.82151(19) 0.00357(18) 0.4107(6)
H19_4 H 0.7970 0.0171 0.4108
C31_4 C 0.85704(18) 0.02385(17) 0.4144(5)
H20_4 H 0.8566 0.0518 0.4179
C32_4 C 0.89314(15) 0.00461(15) 0.4131(3)
C38_4 C 0.92984(16) 0.02816(15) 0.4101(3)
O5_4 O 0.92707(10) 0.06519(10) 0.4129(2)
C4_4 C 0.56571(16) 0.78512(18) 0.0490(3)
H2_4 H 0.5644 0.8072 0.0828
C5_4 C 0.59271(11) 0.75472(13) 0.0634(2)
C6_4 C 0.59564(12) 0.72456(12) 0.0105(3)
H3_4 H 0.6146 0.7043 0.0183
N1_4 N 0.66846(9) 0.75879(10) 0.2624(2)
C8_4 C 0.67876(14) 0.73954(17) 0.1985(3)
H5_4 H 0.7033 0.7260 0.1976
C9_4 C 0.65561(15) 0.73844(18) 0.1343(3)
H6_4 H 0.6645 0.7247 0.0895
C10_4 C 0.61916(12) 0.75697(13) 0.1323(2)
C11_4 C 0.61133(12) 0.77992(12) 0.1955(3)
H7_4 H 0.5884 0.7959 0.1959
C12_4 C 0.63596(13) 0.78031(13) 0.2583(3)
H8_4 H 0.6295 0.7968 0.3011
O1_4 O 0.73664(9) 0.79911(9) 0.37466(19)
O2_4 O 0.68280(9) 0.83625(10) 0.3660(2)
C24_4 C 0.71906(14) 0.83216(15) 0.3728(3)
C25_4 C 0.74489(14) 0.86748(14) 0.3809(3)
C26_4 C 0.72841(17) 0.90492(17) 0.3808(5)
H17_4 H 0.7007 0.9076 0.3749
C27_4 C 0.75112(18) 0.93843(18) 0.3890(6)
H18_4 H 0.7395 0.9639 0.3883
C28_4 C 0.79146(15) 0.93364(16) 0.3982(4)
C29_4 C 0.82332(16) 0.96291(15) 0.4068(4)
C33_4 C 0.89404(14) 0.96392(14) 0.4131(3)
H21_4 H 0.9185 0.9504 0.4152
C34_4 C 0.85923(13) 0.94315(14) 0.4099(3)
C35_4 C 0.85149(14) 0.90055(14) 0.4066(4)
O3_4 O 0.87511(11) 0.87446(11) 0.4087(3)
C36_4 C 0.80816(13) 0.89627(13) 0.3983(3)
C37_4 C 0.78505(13) 0.86327(14) 0.3907(3)
H22_4 H 0.7966 0.8378 0.3922
C42_4 C 0.43429(16) 0.71488(18) 0.0490(3)
H24_4 H 0.4356 0.6928 0.0828
C43_4 C 0.40729(11) 0.74528(13) 0.0634(2)
C44_4 C 0.40436(12) 0.77544(12) 0.0105(3)
H25_4 H 0.3854 0.7957 0.0183
N3_4 N 0.33154(9) 0.74121(10) 0.2624(2)
C46_4 C 0.32124(14) 0.76046(17) 0.1985(3)
H27_4 H 0.2967 0.7740 0.1976
C47_4 C 0.34439(15) 0.76156(18) 0.1343(3)
H28_4 H 0.3355 0.7753 0.0895
C48_4 C 0.38084(12) 0.74303(13) 0.1323(2)
C49_4 C 0.38867(12) 0.72008(12) 0.1955(3)
H29_4 H 0.4116 0.7041 0.1959
C50_4 C 0.36404(13) 0.71969(13) 0.2583(3)
H30_4 H 0.3705 0.7032 0.3011
O6_4 O 0.26336(9) 0.70089(9) 0.37466(19)
O7_4 O 0.31720(9) 0.66375(10) 0.3660(2)
C62_4 C 0.28094(14) 0.66784(15) 0.3728(3)
C63_4 C 0.25511(14) 0.63252(14) 0.3809(3)
C64_4 C 0.27159(17) 0.59508(17) 0.3808(5)
H39_4 H 0.2993 0.5924 0.3749
C65_4 C 0.24888(18) 0.56157(18) 0.3890(6)
H40_4 H 0.2605 0.5361 0.3883
C66_4 C 0.20854(15) 0.56636(16) 0.3982(4)
C67_4 C 0.17668(16) 0.53709(15) 0.4068(4)
C68_4 C 0.17849(19) 0.49643(18) 0.4107(6)
H41_4 H 0.2030 0.4829 0.4108
C69_4 C 0.14296(18) 0.47615(17) 0.4144(5)
H42_4 H 0.1434 0.4482 0.4179
C70_4 C 0.10686(15) 0.49539(15) 0.4131(3)
C71_4 C 0.10596(14) 0.53608(14) 0.4131(3)
H43_4 H 0.0815 0.5496 0.4152
C72_4 C 0.14077(13) 0.55685(14) 0.4099(3)
C73_4 C 0.14851(14) 0.59945(14) 0.4066(4)
O8_4 O 0.12489(11) 0.62554(11) 0.4087(3)
C74_4 C 0.19184(13) 0.60373(13) 0.3983(3)
C75_4 C 0.21495(13) 0.63673(14) 0.3907(3)
H44_4 H 0.2034 0.6622 0.3922
C76_4 C 0.07016(16) 0.47184(15) 0.4101(3)
O10_4 O 0.07293(10) 0.43481(10) 0.4129(2)
N5_2 N 0.66779(10) 0.74980(11) 0.4558(2)
N6_2 N 0.33221(10) 0.75020(11) 0.4558(2)
C1_4 C 0.51941(13) 0.74994(14) 0.8599(3)
C2_4 C 0.54336(12) 0.75151(14) 0.9329(3)
C3_4 C 0.54109(16) 0.78257(19) 0.9854(3)
H1_4 H 0.5220 0.8026 0.9773
C7_4 C 0.57156(12) 0.72333(12) 0.9465(3)
H4_4 H 0.5745 0.7023 0.9104
C13_4 C 0.54484(12) 0.74881(13) 0.7884(3)
C14_4 C 0.53978(13) 0.72132(14) 0.7301(3)
H9_4 H 0.5185 0.7032 0.7332
C15_4 C 0.56483(13) 0.71969(14) 0.6678(3)
H10_4 H 0.5608 0.7004 0.6286
C16_4 C 0.59626(12) 0.74611(13) 0.6610(2)
C17_4 C 0.60153(13) 0.77292(14) 0.7199(3)
H11_4 H 0.6229 0.7909 0.7172
C18_4 C 0.57651(14) 0.77423(14) 0.7830(3)
H12_4 H 0.5811 0.7928 0.8233
C19_4 C 0.6671(3) 0.7784(2) 0.5070(4)
H13_4 H 0.6831 0.8008 0.4975
C20_4 C 0.6446(2) 0.7779(2) 0.5741(4)
H14_4 H 0.6453 0.7999 0.6083
C21_4 C 0.62179(12) 0.74673(13) 0.5914(3)
C22_4 C 0.62186(16) 0.71755(16) 0.5369(3)
H15_4 H 0.6058 0.6949 0.5448
C23_4 C 0.64457(15) 0.72009(16) 0.4709(3)
H16_4 H 0.6433 0.6991 0.4344
C39_4 C 0.48059(13) 0.75006(14) 0.8599(3)
C40_4 C 0.45664(12) 0.74849(14) 0.9329(3)
C41_4 C 0.45891(16) 0.71743(19) 0.9854(3)
H23_4 H 0.4780 0.6974 0.9773
C45_4 C 0.42844(12) 0.77667(12) 0.9465(3)
H26_4 H 0.4255 0.7977 0.9104
C51_4 C 0.45516(12) 0.75119(13) 0.7884(3)
C52_4 C 0.46022(13) 0.77868(14) 0.7301(3)
H31_4 H 0.4815 0.7968 0.7332
C53_4 C 0.43517(13) 0.78031(14) 0.6678(3)
H32_4 H 0.4392 0.7996 0.6286
C54_4 C 0.40374(12) 0.75389(13) 0.6610(2)
C55_4 C 0.39847(13) 0.72708(14) 0.7199(3)
H33_4 H 0.3771 0.7091 0.7172
C56_4 C 0.42349(14) 0.72577(14) 0.7830(3)
H34_4 H 0.4189 0.7072 0.8233
C57_4 C 0.3329(3) 0.7216(2) 0.5070(4)
H35_4 H 0.3169 0.6992 0.4975
C58_4 C 0.3554(2) 0.7221(2) 0.5741(4)
H36_4 H 0.3547 0.7001 0.6083
C59_4 C 0.37821(12) 0.75327(13) 0.5914(3)
C60_4 C 0.37814(16) 0.78245(16) 0.5369(3)
H37_4 H 0.3942 0.8051 0.5448
C61_4 C 0.35543(15) 0.77991(16) 0.4709(3)
H38_4 H 0.3567 0.8009 0.4344
C30_5 C 0.32151(19) 0.00357(18) 0.0893(6)
H19_5 H 0.2970 0.0171 0.0892
C31_5 C 0.35704(18) 0.02385(17) 0.0856(5)
H20_5 H 0.3566 0.0518 0.0821
C32_5 C 0.39314(15) 0.00461(15) 0.0869(3)
C38_5 C 0.42984(16) 0.02816(15) 0.0899(3)
O4_3 O 0.46175(10) 0.00987(9) 0.09540(19)
O5_5 O 0.42707(10) 0.06519(10) 0.0871(2)
Zn5_3 Zn 0.50450(2) 0.04841(2) 0.10838(3)
N2_3 N 0.16779(10) 0.74980(11) 0.0442(2)
H13_5 H 0.1831 0.8008 0.0025
C23_5 C 0.14457(15) 0.72009(16) 0.0291(3)
H16_5 H 0.1433 0.6991 0.0656
Zn3_3 Zn 0.20159(2) 0.75450(2) 0.14162(3)
C1_5 C 0.01941(13) 0.74994(14) 0.6401(3)
C2_5 C 0.04336(12) 0.75151(14) 0.5671(3)
C3_5 C 0.04109(16) 0.78257(19) 0.5146(3)
H1_5 H 0.0220 0.8026 0.5227
C4_5 C 0.06571(16) 0.78512(18) 0.4510(3)
H2_5 H 0.0644 0.8072 0.4172
C5_5 C 0.09271(11) 0.75472(13) 0.4366(2)
C6_5 C 0.09564(12) 0.72456(12) 0.4895(3)
H3_5 H 0.1146 0.7043 0.4817
C7_5 C 0.07156(12) 0.72333(12) 0.5535(3)
H4_5 H 0.0745 0.7023 0.5896
N1_5 N 0.16846(9) 0.75879(10) 0.2376(2)
C8_5 C 0.17876(14) 0.73954(17) 0.3015(3)
H5_5 H 0.2033 0.7260 0.3024
C9_5 C 0.15561(15) 0.73844(18) 0.3657(3)
H6_5 H 0.1645 0.7247 0.4105
C10_5 C 0.11916(12) 0.75697(13) 0.3677(2)
C11_5 C 0.11133(12) 0.77992(12) 0.3045(3)
H7_5 H 0.0884 0.7959 0.3041
C12_5 C 0.13596(13) 0.78031(13) 0.2417(3)
H8_5 H 0.1295 0.7968 0.1989
C13_5 C 0.04484(12) 0.74881(13) 0.7116(3)
C14_5 C 0.03978(13) 0.72132(14) 0.7699(3)
H9_5 H 0.0185 0.7032 0.7668
C15_5 C 0.06483(13) 0.71969(14) 0.8322(3)
H10_5 H 0.0608 0.7004 0.8714
C16_5 C 0.09626(12) 0.74611(13) 0.8390(2)
C17_5 C 0.10153(13) 0.77292(14) 0.7801(3)
H11_5 H 0.1229 0.7909 0.7828
C18_5 C 0.07651(14) 0.77423(14) 0.7170(3)
H12_5 H 0.0811 0.7928 0.6767
C19_5 C 0.1671(3) 0.7784(2) 0.9930(4)
C20_5 C 0.1446(2) 0.7779(2) 0.9259(4)
H14_5 H 0.1453 0.7999 0.8917
C21_5 C 0.12179(12) 0.74673(13) 0.9086(3)
C22_5 C 0.12186(16) 0.71755(16) 0.9631(3)
H15_5 H 0.1058 0.6949 0.9552
O1_5 O 0.23664(9) 0.79911(9) 0.12534(19)
O2_5 O 0.18280(9) 0.83625(10) 0.1340(2)
C24_5 C 0.21906(14) 0.83216(15) 0.1272(3)
C25_5 C 0.24489(14) 0.86748(14) 0.1191(3)
C26_5 C 0.22841(17) 0.90492(17) 0.1192(5)
H17_5 H 0.2007 0.9076 0.1251
C27_5 C 0.25112(18) 0.93843(18) 0.1110(6)
H18_5 H 0.2395 0.9639 0.1117
C28_5 C 0.29146(15) 0.93364(16) 0.1018(4)
C29_5 C 0.32332(16) 0.96291(15) 0.0932(4)
C33_5 C 0.39404(14) 0.96392(14) 0.0869(3)
H21_5 H 0.4185 0.9504 0.0848
C34_5 C 0.35923(13) 0.94315(14) 0.0901(3)
C35_5 C 0.35149(14) 0.90055(14) 0.0934(4)
O3_5 O 0.37511(11) 0.87446(11) 0.0913(3)
C36_5 C 0.30816(13) 0.89627(13) 0.1017(3)
C37_5 C 0.28505(13) 0.86327(14) 0.1093(3)
H22_5 H 0.2966 0.8378 0.1078
O12_3 O 0.24013(9) 0.71175(10) 0.15460(19)
N4_3 N 0.83221(10) 0.75020(11) 0.0442(2)
H35_5 H 0.8169 0.6992 0.0025
C61_5 C 0.85543(15) 0.77991(16) 0.0291(3)
H38_5 H 0.8567 0.8009 0.0656
Zn4_3 Zn 0.79841(2) 0.74550(2) 0.14162(3)
C39_5 C 0.98059(13) 0.75006(14) 0.6401(3)
C40_5 C 0.95664(12) 0.74849(14) 0.5671(3)
C41_5 C 0.95891(16) 0.71743(19) 0.5146(3)
H23_5 H 0.9780 0.6974 0.5227
C42_5 C 0.93429(16) 0.71488(18) 0.4510(3)
H24_5 H 0.9356 0.6928 0.4172
C43_5 C 0.90729(11) 0.74528(13) 0.4366(2)
C44_5 C 0.90436(12) 0.77544(12) 0.4895(3)
H25_5 H 0.8854 0.7957 0.4817
C45_5 C 0.92844(12) 0.77667(12) 0.5535(3)
H26_5 H 0.9255 0.7977 0.5896
N3_5 N 0.83154(9) 0.74121(10) 0.2376(2)
C46_5 C 0.82124(14) 0.76046(17) 0.3015(3)
H27_5 H 0.7967 0.7740 0.3024
C47_5 C 0.84439(15) 0.76156(18) 0.3657(3)
H28_5 H 0.8355 0.7753 0.4105
C48_5 C 0.88084(12) 0.74303(13) 0.3677(2)
C49_5 C 0.88867(12) 0.72008(12) 0.3045(3)
H29_5 H 0.9116 0.7041 0.3041
C50_5 C 0.86404(13) 0.71969(13) 0.2417(3)
H30_5 H 0.8705 0.7032 0.1989
C51_5 C 0.95516(12) 0.75119(13) 0.7116(3)
C52_5 C 0.96022(13) 0.77868(14) 0.7699(3)
H31_5 H 0.9815 0.7968 0.7668
C53_5 C 0.93517(13) 0.78031(14) 0.8322(3)
H32_5 H 0.9392 0.7996 0.8714
C54_5 C 0.90374(12) 0.75389(13) 0.8390(2)
C55_5 C 0.89847(13) 0.72708(14) 0.7801(3)
H33_5 H 0.8771 0.7091 0.7828
C56_5 C 0.92349(14) 0.72577(14) 0.7170(3)
H34_5 H 0.9189 0.7072 0.6767
C57_5 C 0.8329(3) 0.7216(2) 0.9930(4)
C58_5 C 0.8554(2) 0.7221(2) 0.9259(4)
H36_5 H 0.8547 0.7001 0.8917
C59_5 C 0.87821(12) 0.75327(13) 0.9086(3)
C60_5 C 0.87814(16) 0.78245(16) 0.9631(3)
H37_5 H 0.8942 0.8051 0.9552
O6_5 O 0.76336(9) 0.70089(9) 0.12534(19)
O7_5 O 0.81720(9) 0.66375(10) 0.1340(2)
C62_5 C 0.78094(14) 0.66784(15) 0.1272(3)
C63_5 C 0.75511(14) 0.63252(14) 0.1191(3)
C64_5 C 0.77159(17) 0.59508(17) 0.1192(5)
H39_5 H 0.7993 0.5924 0.1251
C65_5 C 0.74888(18) 0.56157(18) 0.1110(6)
H40_5 H 0.7605 0.5361 0.1117
C66_5 C 0.70854(15) 0.56636(16) 0.1018(4)
C67_5 C 0.67668(16) 0.53709(15) 0.0932(4)
C68_5 C 0.67849(19) 0.49643(18) 0.0893(6)
H41_5 H 0.7030 0.4829 0.0892
C69_5 C 0.64296(18) 0.47615(17) 0.0856(5)
H42_5 H 0.6434 0.4482 0.0821
C70_5 C 0.60686(15) 0.49539(15) 0.0869(3)
C71_5 C 0.60596(14) 0.53608(14) 0.0869(3)
H43_5 H 0.5815 0.5496 0.0848
C72_5 C 0.64077(13) 0.55685(14) 0.0901(3)
C73_5 C 0.64851(14) 0.59945(14) 0.0934(4)
O8_5 O 0.62489(11) 0.62554(11) 0.0913(3)
C74_5 C 0.69184(13) 0.60373(13) 0.1017(3)
C75_5 C 0.71495(13) 0.63673(14) 0.1093(3)
H44_5 H 0.7034 0.6622 0.1078
C76_5 C 0.57016(16) 0.47184(15) 0.0899(3)
O9_3 O 0.53825(10) 0.49013(9) 0.09540(19)
O10_5 O 0.57293(10) 0.43481(10) 0.0871(2)
Zn6_3 Zn 0.49550(2) 0.45159(2) 0.10838(3)
O11_3 O 0.75987(9) 0.78825(10) 0.15460(19)
N1_6 N 0.49121(10) 0.41846(9) 0.0124(2)
C12_6 C 0.46969(13) 0.38596(13) 0.0083(3)
H8_6 H 0.4532 0.3795 0.0511
O1_6 O 0.45089(9) 0.48664(9) 0.12466(19)
O2_6 O 0.41375(10) 0.43280(9) 0.1160(2)
C24_6 C 0.41784(15) 0.46906(14) 0.1228(3)
C25_6 C 0.38252(14) 0.49489(14) 0.1309(3)
C26_6 C 0.34508(17) 0.47841(17) 0.1308(5)
H17_6 H 0.3424 0.4507 0.1249
C27_6 C 0.31157(18) 0.50112(18) 0.1390(6)
H18_6 H 0.2861 0.4895 0.1383
C28_6 C 0.31636(16) 0.54146(15) 0.1482(4)
C29_6 C 0.28709(15) 0.57332(16) 0.1568(4)
C30_6 C 0.24643(18) 0.57151(19) 0.1607(6)
H19_6 H 0.2329 0.5470 0.1608
C31_6 C 0.22615(17) 0.60704(18) 0.1644(5)
H20_6 H 0.1982 0.6066 0.1679
C32_6 C 0.24539(15) 0.64314(15) 0.1631(3)
C33_6 C 0.28608(14) 0.64404(14) 0.1631(3)
H21_6 H 0.2996 0.6685 0.1652
C34_6 C 0.30685(14) 0.60923(13) 0.1599(3)
C35_6 C 0.34945(14) 0.60149(14) 0.1566(4)
O3_6 O 0.37554(11) 0.62511(11) 0.1587(3)
C36_6 C 0.35373(13) 0.55816(13) 0.1483(3)
C37_6 C 0.38673(14) 0.53505(13) 0.1407(3)
H22_6 H 0.4122 0.5466 0.1422
C38_6 C 0.22184(15) 0.67984(16) 0.1601(3)
O5_6 O 0.18481(10) 0.67707(10) 0.1629(2)
N3_6 N 0.50879(10) 0.08154(9) 0.0124(2)
C50_6 C 0.53031(13) 0.11404(13) 0.0083(3)
H30_6 H 0.5468 0.1205 0.0511
O6_6 O 0.54911(9) 0.01336(9) 0.12466(19)
O7_6 O 0.58625(10) 0.06720(9) 0.1160(2)
C62_6 C 0.58216(15) 0.03094(14) 0.1228(3)
C63_6 C 0.61748(14) 0.00511(14) 0.1309(3)
C64_6 C 0.65492(17) 0.02159(17) 0.1308(5)
H39_6 H 0.6576 0.0493 0.1249
H40_6 H 0.7139 0.0105 0.1383
N5_3 N 0.50020(11) 0.41779(10) 0.2058(2)
N6_3 N 0.49980(11) 0.08221(10) 0.2058(2)
C1_6 C 0.50006(14) 0.26941(13) 0.6099(3)
C2_6 C 0.49849(14) 0.29336(12) 0.6829(3)
C3_6 C 0.46743(19) 0.29109(16) 0.7354(3)
H1_6 H 0.4474 0.2720 0.7273
C4_6 C 0.46488(18) 0.31571(16) 0.7990(3)
H2_6 H 0.4428 0.3144 0.8328
C5_6 C 0.49528(13) 0.34271(11) 0.8134(2)
C6_6 C 0.52544(12) 0.34564(12) 0.7605(3)
H3_6 H 0.5457 0.3646 0.7683
C7_6 C 0.52667(12) 0.32156(12) 0.6965(3)
H4_6 H 0.5477 0.3245 0.6604
C8_6 C 0.51046(17) 0.42876(14) 0.9485(3)
H5_6 H 0.5240 0.4533 0.9476
C9_6 C 0.51156(18) 0.40561(15) 0.8843(3)
H6_6 H 0.5253 0.4145 0.8395
C10_6 C 0.49303(13) 0.36916(12) 0.8823(2)
C11_6 C 0.47008(12) 0.36133(12) 0.9455(3)
H7_6 H 0.4541 0.3384 0.9459
C13_6 C 0.50119(13) 0.29484(12) 0.5384(3)
C14_6 C 0.52868(14) 0.28978(13) 0.4801(3)
H9_6 H 0.5468 0.2685 0.4832
C15_6 C 0.53031(14) 0.31483(13) 0.4178(3)
H10_6 H 0.5496 0.3108 0.3786
C16_6 C 0.50389(13) 0.34626(12) 0.4110(2)
C17_6 C 0.47708(14) 0.35153(13) 0.4699(3)
H11_6 H 0.4591 0.3729 0.4672
C18_6 C 0.47577(14) 0.32651(14) 0.5330(3)
H12_6 H 0.4572 0.3311 0.5733
C19_6 C 0.4716(2) 0.4171(3) 0.2570(4)
H13_6 H 0.4492 0.4331 0.2475
C20_6 C 0.4721(2) 0.3946(2) 0.3241(4)
H14_6 H 0.4501 0.3953 0.3583
C21_6 C 0.50327(13) 0.37179(12) 0.3414(3)
C22_6 C 0.53245(16) 0.37186(16) 0.2869(3)
H15_6 H 0.5551 0.3558 0.2948
C23_6 C 0.52991(16) 0.39457(15) 0.2209(3)
H16_6 H 0.5509 0.3933 0.1844
C39_6 C 0.49994(14) 0.23059(13) 0.6099(3)
C40_6 C 0.50151(14) 0.20664(12) 0.6829(3)
C41_6 C 0.53257(19) 0.20891(16) 0.7354(3)
H23_6 H 0.5526 0.2280 0.7273
C42_6 C 0.53512(18) 0.18429(16) 0.7990(3)
H24_6 H 0.5572 0.1856 0.8328
C43_6 C 0.50472(13) 0.15729(11) 0.8134(2)
C44_6 C 0.47456(12) 0.15436(12) 0.7605(3)
H25_6 H 0.4543 0.1354 0.7683
C45_6 C 0.47333(12) 0.17844(12) 0.6965(3)
H26_6 H 0.4523 0.1755 0.6604
C46_6 C 0.48954(17) 0.07124(14) 0.9485(3)
H27_6 H 0.4760 0.0467 0.9476
C47_6 C 0.48844(18) 0.09439(15) 0.8843(3)
H28_6 H 0.4747 0.0855 0.8395
C48_6 C 0.50697(13) 0.13084(12) 0.8823(2)
C49_6 C 0.52992(12) 0.13867(12) 0.9455(3)
H29_6 H 0.5459 0.1616 0.9459
C51_6 C 0.49881(13) 0.20516(12) 0.5384(3)
C52_6 C 0.47132(14) 0.21022(13) 0.4801(3)
H31_6 H 0.4532 0.2315 0.4832
C53_6 C 0.46969(14) 0.18517(13) 0.4178(3)
H32_6 H 0.4504 0.1892 0.3786
C54_6 C 0.49611(13) 0.15374(12) 0.4110(2)
C55_6 C 0.52292(14) 0.14847(13) 0.4699(3)
H33_6 H 0.5409 0.1271 0.4672
C56_6 C 0.52423(14) 0.17349(14) 0.5330(3)
H34_6 H 0.5428 0.1689 0.5733
C57_6 C 0.5284(2) 0.0829(3) 0.2570(4)
H35_6 H 0.5508 0.0669 0.2475
C58_6 C 0.5279(2) 0.1054(2) 0.3241(4)
H36_6 H 0.5499 0.1047 0.3583
C59_6 C 0.49673(13) 0.12821(12) 0.3414(3)
C60_6 C 0.46755(16) 0.12814(16) 0.2869(3)
H37_6 H 0.4449 0.1442 0.2948
C61_6 C 0.47009(16) 0.10543(15) 0.2209(3)
H38_6 H 0.4491 0.1067 0.1844
C65_6 C 0.68843(18) 0.99888(18) 0.1390(6)
C66_6 C 0.68364(16) 0.95854(15) 0.1482(4)
C67_6 C 0.71291(15) 0.92668(16) 0.1568(4)
C68_6 C 0.75357(18) 0.92849(19) 0.1607(6)
H41_6 H 0.7671 0.9530 0.1608
C69_6 C 0.77385(17) 0.89296(18) 0.1644(5)
H42_6 H 0.8018 0.8934 0.1679
C70_6 C 0.75461(15) 0.85686(15) 0.1631(3)
C71_6 C 0.71392(14) 0.85596(14) 0.1631(3)
H43_6 H 0.7004 0.8315 0.1652
C72_6 C 0.69315(14) 0.89077(13) 0.1599(3)
C73_6 C 0.65055(14) 0.89851(14) 0.1566(4)
O8_6 O 0.62446(11) 0.87489(11) 0.1587(3)
C74_6 C 0.64627(13) 0.94184(13) 0.1483(3)
C75_6 C 0.61327(14) 0.96495(13) 0.1407(3)
H44_6 H 0.5878 0.9534 0.1422
C76_6 C 0.77816(15) 0.82016(16) 0.1601(3)
O10_6 O 0.81519(10) 0.82293(10) 0.1629(2)
Zn6_4 Zn 0.00450(2) 0.54841(2) 0.60838(3)
C1_7 C 0.48059(13) 0.25006(14) 0.1401(3)
C2_7 C 0.45664(12) 0.24849(14) 0.0671(3)
C3_7 C 0.45891(16) 0.21743(19) 0.0146(3)
H1_7 H 0.4780 0.1974 0.0227
C7_7 C 0.42844(12) 0.27667(12) 0.0535(3)
H4_7 H 0.4255 0.2977 0.0896
C13_7 C 0.45516(12) 0.25119(13) 0.2116(3)
C14_7 C 0.46022(13) 0.27868(14) 0.2699(3)
H9_7 H 0.4815 0.2968 0.2668
C15_7 C 0.43517(13) 0.28031(14) 0.3322(3)
H10_7 H 0.4392 0.2996 0.3714
C16_7 C 0.40374(12) 0.25389(13) 0.3390(2)
C17_7 C 0.39847(13) 0.22708(14) 0.2801(3)
H11_7 H 0.3771 0.2091 0.2828
C18_7 C 0.42349(14) 0.22577(14) 0.2170(3)
H12_7 H 0.4189 0.2072 0.1767
N2_4 N 0.33221(10) 0.25020(11) 0.5442(2)
C19_7 C 0.3329(3) 0.2216(2) 0.4930(4)
H13_7 H 0.3169 0.1992 0.5025
C20_7 C 0.3554(2) 0.2221(2) 0.4259(4)
H14_7 H 0.3547 0.2001 0.3917
C21_7 C 0.37821(12) 0.25327(13) 0.4086(3)
C22_7 C 0.37814(16) 0.28245(16) 0.4631(3)
H15_7 H 0.3942 0.3051 0.4552
C23_7 C 0.35543(15) 0.27991(16) 0.5291(3)
H16_7 H 0.3567 0.3009 0.5656
C39_7 C 0.51941(13) 0.24994(14) 0.1401(3)
C40_7 C 0.54336(12) 0.25151(14) 0.0671(3)
C41_7 C 0.54109(16) 0.28257(19) 0.0146(3)
H23_7 H 0.5220 0.3026 0.0227
C45_7 C 0.57156(12) 0.22333(12) 0.0535(3)
H26_7 H 0.5745 0.2023 0.0896
C51_7 C 0.54484(12) 0.24881(13) 0.2116(3)
C52_7 C 0.53978(13) 0.22132(14) 0.2699(3)
H31_7 H 0.5185 0.2032 0.2668
C53_7 C 0.56483(13) 0.21969(14) 0.3322(3)
H32_7 H 0.5608 0.2004 0.3714
C54_7 C 0.59626(12) 0.24611(13) 0.3390(2)
C55_7 C 0.60153(13) 0.27292(14) 0.2801(3)
H33_7 H 0.6229 0.2909 0.2828
C56_7 C 0.57651(14) 0.27423(14) 0.2170(3)
H34_7 H 0.5811 0.2928 0.1767
N4_4 N 0.66779(10) 0.24980(11) 0.5442(2)
C57_7 C 0.6671(3) 0.2784(2) 0.4930(4)
H35_7 H 0.6831 0.3008 0.5025
C58_7 C 0.6446(2) 0.2779(2) 0.4259(4)
H36_7 H 0.6453 0.2999 0.3917
C59_7 C 0.62179(12) 0.24673(13) 0.4086(3)
C60_7 C 0.62186(16) 0.21755(16) 0.4631(3)
H37_7 H 0.6058 0.1949 0.4552
C61_7 C 0.64457(15) 0.22009(16) 0.5291(3)
H38_7 H 0.6433 0.1991 0.5656
Zn3_4 Zn 0.29841(2) 0.24550(2) 0.64162(3)
Zn4_4 Zn 0.70159(2) 0.25450(2) 0.64162(3)
C4_7 C 0.43429(16) 0.21488(18) 0.9510(3)
H2_7 H 0.4356 0.1928 0.9172
C5_7 C 0.40729(11) 0.24528(13) 0.9366(2)
C6_7 C 0.40436(12) 0.27544(12) 0.9895(3)
H3_7 H 0.3854 0.2957 0.9817
N1_7 N 0.33154(9) 0.24121(10) 0.7376(2)
C8_7 C 0.32124(14) 0.26046(17) 0.8015(3)
H5_7 H 0.2967 0.2740 0.8024
C9_7 C 0.34439(15) 0.26156(18) 0.8657(3)
H6_7 H 0.3355 0.2753 0.9105
C10_7 C 0.38084(12) 0.24303(13) 0.8677(2)
C11_7 C 0.38867(12) 0.22008(12) 0.8045(3)
H7_7 H 0.4116 0.2041 0.8041
C12_7 C 0.36404(13) 0.21969(13) 0.7417(3)
H8_7 H 0.3705 0.2032 0.6989
O1_7 O 0.26336(9) 0.20089(9) 0.62534(19)
O2_7 O 0.31720(9) 0.16375(10) 0.6340(2)
C24_7 C 0.28094(14) 0.16784(15) 0.6272(3)
C25_7 C 0.25511(14) 0.13252(14) 0.6191(3)
C26_7 C 0.27159(17) 0.09508(17) 0.6192(5)
H17_7 H 0.2993 0.0924 0.6251
C27_7 C 0.24888(18) 0.06157(18) 0.6110(6)
H18_7 H 0.2605 0.0361 0.6117
C28_7 C 0.20854(15) 0.06636(16) 0.6018(4)
C29_7 C 0.17668(16) 0.03709(15) 0.5932(4)
C33_7 C 0.10596(14) 0.03608(14) 0.5869(3)
H21_7 H 0.0815 0.0496 0.5848
C34_7 C 0.14077(13) 0.05685(14) 0.5901(3)
C35_7 C 0.14851(14) 0.09945(14) 0.5934(4)
O3_7 O 0.12489(11) 0.12554(11) 0.5913(3)
C36_7 C 0.19184(13) 0.10373(13) 0.6017(3)
C37_7 C 0.21495(13) 0.13673(14) 0.6093(3)
H22_7 H 0.2034 0.1622 0.6078
C42_7 C 0.56571(16) 0.28512(18) 0.9510(3)
H24_7 H 0.5644 0.3072 0.9172
C43_7 C 0.59271(11) 0.25472(13) 0.9366(2)
C44_7 C 0.59564(12) 0.22456(12) 0.9895(3)
H25_7 H 0.6146 0.2043 0.9817
N3_7 N 0.66846(9) 0.25879(10) 0.7376(2)
C46_7 C 0.67876(14) 0.23954(17) 0.8015(3)
H27_7 H 0.7033 0.2260 0.8024
C47_7 C 0.65561(15) 0.23844(18) 0.8657(3)
H28_7 H 0.6645 0.2247 0.9105
C48_7 C 0.61916(12) 0.25697(13) 0.8677(2)
C49_7 C 0.61133(12) 0.27992(12) 0.8045(3)
H29_7 H 0.5884 0.2959 0.8041
C50_7 C 0.63596(13) 0.28031(13) 0.7417(3)
H30_7 H 0.6295 0.2968 0.6989
O6_7 O 0.73664(9) 0.29911(9) 0.62534(19)
O7_7 O 0.68280(9) 0.33625(10) 0.6340(2)
C62_7 C 0.71906(14) 0.33216(15) 0.6272(3)
C63_7 C 0.74489(14) 0.36748(14) 0.6191(3)
C64_7 C 0.72841(17) 0.40492(17) 0.6192(5)
H39_7 H 0.7007 0.4076 0.6251
C65_7 C 0.75112(18) 0.43843(18) 0.6110(6)
H40_7 H 0.7395 0.4639 0.6117
C66_7 C 0.79146(15) 0.43364(16) 0.6018(4)
C67_7 C 0.82332(16) 0.46291(15) 0.5932(4)
C68_7 C 0.82151(19) 0.50357(18) 0.5893(6)
H41_7 H 0.7970 0.5171 0.5892
C69_7 C 0.85704(18) 0.52385(17) 0.5856(5)
H42_7 H 0.8566 0.5518 0.5821
C70_7 C 0.89314(15) 0.50461(15) 0.5869(3)
C71_7 C 0.89404(14) 0.46392(14) 0.5869(3)
H43_7 H 0.9185 0.4504 0.5848
C72_7 C 0.85923(13) 0.44315(14) 0.5901(3)
C73_7 C 0.85149(14) 0.40055(14) 0.5934(4)
O8_7 O 0.87511(11) 0.37446(11) 0.5913(3)
C74_7 C 0.80816(13) 0.39627(13) 0.6017(3)
C75_7 C 0.78505(13) 0.36327(14) 0.6093(3)
H44_7 H 0.7966 0.3378 0.6078
C76_7 C 0.92984(16) 0.52816(15) 0.5899(3)
O9_4 O 0.96175(10) 0.50987(9) 0.59540(19)
O10_7 O 0.92707(10) 0.56519(10) 0.5871(2)
O11_4 O 0.74013(9) 0.21175(10) 0.65460(19)
O12_4 O 0.25987(9) 0.28825(10) 0.65460(19)
C30_7 C 0.17849(19) 0.99643(18) 0.5893(6)
H19_7 H 0.2030 0.9829 0.5892
C31_7 C 0.14296(18) 0.97615(17) 0.5856(5)
H20_7 H 0.1434 0.9482 0.5821
C32_7 C 0.10686(15) 0.99539(15) 0.5869(3)
C38_7 C 0.07016(16) 0.97184(15) 0.5899(3)
O4_4 O 0.03825(10) 0.99013(9) 0.59540(19)
O5_7 O 0.07293(10) 0.93481(10) 0.5871(2)
Zn5_4 Zn 0.99550(2) 0.95159(2) 0.60838(3)
C2_8 C 0.00151(14) 0.70664(12) 0.1829(3)
C3_8 C 0.03257(19) 0.70891(16) 0.2354(3)
H1_8 H 0.0526 0.7280 0.2273
C4_8 C 0.03512(18) 0.68429(16) 0.2990(3)
H2_8 H 0.0572 0.6856 0.3328
C5_8 C 0.00472(13) 0.65729(11) 0.3134(2)
N1_8 N 0.00879(10) 0.58154(9) 0.5124(2)
C10_8 C 0.00697(13) 0.63084(12) 0.3823(2)
C11_8 C 0.02992(12) 0.63867(12) 0.4455(3)
H7_8 H 0.0459 0.6616 0.4459
C12_8 C 0.03031(13) 0.61404(13) 0.5083(3)
H8_8 H 0.0468 0.6205 0.5511
C18_8 C 0.02423(14) 0.67349(14) 0.0330(3)
H12_8 H 0.0428 0.6689 0.0733
O1_8 O 0.04911(9) 0.51336(9) 0.62466(19)
O2_8 O 0.08625(10) 0.56720(9) 0.6160(2)
C24_8 C 0.08216(15) 0.53094(14) 0.6228(3)
C25_8 C 0.11748(14) 0.50511(14) 0.6309(3)
C26_8 C 0.15492(17) 0.52159(17) 0.6308(5)
H17_8 H 0.1576 0.5493 0.6249
C27_8 C 0.18843(18) 0.49888(18) 0.6390(6)
H18_8 H 0.2139 0.5105 0.6383
C28_8 C 0.18364(16) 0.45854(15) 0.6482(4)
C29_8 C 0.21291(15) 0.42668(16) 0.6568(4)
C30_8 C 0.25357(18) 0.42849(19) 0.6607(6)
H19_8 H 0.2671 0.4530 0.6608
C31_8 C 0.27385(17) 0.39296(18) 0.6644(5)
H20_8 H 0.3018 0.3934 0.6679
C32_8 C 0.25461(15) 0.35686(15) 0.6631(3)
C33_8 C 0.21392(14) 0.35596(14) 0.6631(3)
H21_8 H 0.2004 0.3315 0.6652
C34_8 C 0.19315(14) 0.39077(13) 0.6599(3)
C35_8 C 0.15055(14) 0.39851(14) 0.6566(4)
O3_8 O 0.12446(11) 0.37489(11) 0.6587(3)
C36_8 C 0.14627(13) 0.44184(13) 0.6483(3)
C37_8 C 0.11327(14) 0.46495(13) 0.6407(3)
H22_8 H 0.0878 0.4534 0.6422
C38_8 C 0.27816(15) 0.32016(16) 0.6601(3)
O5_8 O 0.31519(10) 0.32293(10) 0.6629(2)
C39_8 C 0.00006(14) 0.76941(13) 0.1099(3)
C44_8 C 0.02544(12) 0.84564(12) 0.2605(3)
H25_8 H 0.0457 0.8646 0.2683
C45_8 C 0.02667(12) 0.82156(12) 0.1965(3)
H26_8 H 0.0477 0.8245 0.1604
C46_8 C 0.01046(17) 0.92876(14) 0.4485(3)
H27_8 H 0.0240 0.9533 0.4476
C47_8 C 0.01156(18) 0.90561(15) 0.3843(3)
H28_8 H 0.0253 0.9145 0.3395
C51_8 C 0.00119(13) 0.79484(12) 0.0384(3)
N6_4 N 0.00020(11) 0.91779(10) 0.7058(2)
C17_8 C 0.02292(14) 0.64847(13) 0.9699(3)
H11_8 H 0.0409 0.6271 0.9672
C19_8 C 0.0284(2) 0.5829(3) 0.7570(4)
H13_8 H 0.0508 0.5669 0.7475
C20_8 C 0.0279(2) 0.6054(2) 0.8241(4)
H14_8 H 0.0499 0.6047 0.8583
C52_8 C 0.02868(14) 0.78978(13) 0.9801(3)
H31_8 H 0.0468 0.7685 0.9832
C53_8 C 0.03031(14) 0.81483(13) 0.9178(3)
H32_8 H 0.0496 0.8108 0.8786
C54_8 C 0.00389(13) 0.84626(12) 0.9110(2)
C59_8 C 0.00327(13) 0.87179(12) 0.8414(3)
C60_8 C 0.03245(16) 0.87186(16) 0.7869(3)
H37_8 H 0.0551 0.8558 0.7948
C61_8 C 0.02991(16) 0.89457(15) 0.7209(3)
H38_8 H 0.0509 0.8933 0.6844
C65_8 C 0.81157(18) 0.00112(18) 0.6390(6)
C66_8 C 0.81636(16) 0.04146(15) 0.6482(4)
C67_8 C 0.78709(15) 0.07332(16) 0.6568(4)
C68_8 C 0.74643(18) 0.07151(19) 0.6607(6)
H41_8 H 0.7329 0.0470 0.6608
C69_8 C 0.72615(17) 0.10704(18) 0.6644(5)
H42_8 H 0.6982 0.1066 0.6679
C70_8 C 0.74539(15) 0.14314(15) 0.6631(3)
C71_8 C 0.78608(14) 0.14404(14) 0.6631(3)
H43_8 H 0.7996 0.1685 0.6652
C72_8 C 0.80685(14) 0.10923(13) 0.6599(3)
C73_8 C 0.84945(14) 0.10149(14) 0.6566(4)
O8_8 O 0.87554(11) 0.12511(11) 0.6587(3)
C74_8 C 0.85373(13) 0.05816(13) 0.6483(3)
C75_8 C 0.88673(14) 0.03505(13) 0.6407(3)
H44_8 H 0.9122 0.0466 0.6422
C76_8 C 0.72184(15) 0.17984(16) 0.6601(3)
O10_8 O 0.68481(10) 0.17707(10) 0.6629(2)
C1_8 C 0.99994(14) 0.73059(13) 0.1099(3)
C6_8 C 0.97456(12) 0.65436(12) 0.2605(3)
H3_8 H 0.9543 0.6354 0.2683
C7_8 C 0.97333(12) 0.67844(12) 0.1965(3)
H4_8 H 0.9523 0.6755 0.1604
C8_8 C 0.98954(17) 0.57124(14) 0.4485(3)
H5_8 H 0.9760 0.5467 0.4476
C9_8 C 0.98844(18) 0.59439(15) 0.3843(3)
H6_8 H 0.9747 0.5855 0.3395
C13_8 C 0.99881(13) 0.70516(12) 0.0384(3)
C40_8 C 0.99849(14) 0.79336(12) 0.1829(3)
C41_8 C 0.96743(19) 0.79109(16) 0.2354(3)
H23_8 H 0.9474 0.7720 0.2273
C42_8 C 0.96488(18) 0.81571(16) 0.2990(3)
H24_8 H 0.9428 0.8144 0.3328
C43_8 C 0.99528(13) 0.84271(11) 0.3134(2)
N3_8 N 0.99121(10) 0.91846(9) 0.5124(2)
C48_8 C 0.99303(13) 0.86916(12) 0.3823(2)
C49_8 C 0.97008(12) 0.86133(12) 0.4455(3)
H29_8 H 0.9541 0.8384 0.4459
C50_8 C 0.96969(13) 0.88596(13) 0.5083(3)
H30_8 H 0.9532 0.8795 0.5511
C56_8 C 0.97577(14) 0.82651(14) 0.0330(3)
H34_8 H 0.9572 0.8311 0.0733
O6_8 O 0.95089(9) 0.98664(9) 0.62466(19)
O7_8 O 0.91375(10) 0.93280(9) 0.6160(2)
C62_8 C 0.91784(15) 0.96906(14) 0.6228(3)
C63_8 C 0.88252(14) 0.99489(14) 0.6309(3)
C64_8 C 0.84508(17) 0.97841(17) 0.6308(5)
H39_8 H 0.8424 0.9507 0.6249
H40_8 H 0.7861 0.9895 0.6383
N5_4 N 0.99980(11) 0.58221(10) 0.7058(2)
C14_8 C 0.97132(14) 0.71022(13) 0.9801(3)
H9_8 H 0.9532 0.7315 0.9832
C15_8 C 0.96969(14) 0.68517(13) 0.9178(3)
H10_8 H 0.9504 0.6892 0.8786
C16_8 C 0.99611(13) 0.65374(12) 0.9110(2)
C21_8 C 0.99673(13) 0.62821(12) 0.8414(3)
C22_8 C 0.96755(16) 0.62814(16) 0.7869(3)
H15_8 H 0.9449 0.6442 0.7948
C23_8 C 0.97009(16) 0.60543(15) 0.7209(3)
H16_8 H 0.9491 0.6067 0.6844
C55_8 C 0.97708(14) 0.85153(13) 0.9699(3)
H33_8 H 0.9591 0.8729 0.9672
C57_8 C 0.9716(2) 0.9171(3) 0.7570(4)
H35_8 H 0.9492 0.9331 0.7475
C58_8 C 0.9721(2) 0.8946(2) 0.8241(4)
H36_8 H 0.9501 0.8953 0.8583
loop_
_geom_bond_atom_site_label_1
_geom_bond_atom_site_label_2
_geom_bond_site_symmetry_1
_geom_bond_site_symmetry_2
C66 C65 1_555 1_555
C67 C66 1_555 1_555
C68 C67 1_555 1_555
H41 C68 1_555 1_555
C69 C68 1_555 1_555
H42 C69 1_555 1_555
C70 C69 1_555 1_555
C71 C70 1_555 1_555
H43 C71 1_555 1_555
C72 C67 1_555 1_555
C73 C72 1_555 1_555
O8 C73 1_555 1_555
C74 C66 1_555 1_555
H44 C75 1_555 1_555
C76 C70 1_555 1_555
O9 C76 1_555 1_555
O10 C76 1_555 1_555
Zn6 O9 1_555 1_555
C71 C72 1_555 1_555
C73 C74 1_555 1_555
C74 C75 1_555 1_555
C1 C2 1_555 1_555
C2 C3 1_555 1_555
C3 H1 1_555 1_555
C4 C3 1_555 1_555
H2 C4 1_555 1_555
C5 C4 1_555 1_555
C6 C5 1_555 1_555
H3 C6 1_555 1_555
C7 C2 1_555 1_555
H4 C7 1_555 1_555
C8 H5 1_555 1_555
C9 C8 1_555 1_555
H6 C9 1_555 1_555
C10 C5 1_555 1_555
C11 C10 1_555 1_555
H7 C11 1_555 1_555
C13 C1 1_555 1_555
C14 C13 1_555 1_555
H9 C14 1_555 1_555
C15 C14 1_555 1_555
H10 C15 1_555 1_555
C16 C15 1_555 1_555
C17 C16 1_555 1_555
H11 C17 1_555 1_555
C18 C13 1_555 1_555
H12 C18 1_555 1_555
N2 C19 1_555 1_555
C19 H13 1_555 1_555
C20 C19 1_555 1_555
H14 C20 1_555 1_555
C21 C16 1_555 1_555
C22 C21 1_555 1_555
H15 C22 1_555 1_555
C23 N2 1_555 1_555
H16 C23 1_555 1_555
C39 C1 1_555 1_555
C40 C39 1_555 1_555
C41 C40 1_555 1_555
H23 C41 1_555 1_555
C42 C41 1_555 1_555
H24 C42 1_555 1_555
C43 C42 1_555 1_555
C44 C43 1_555 1_555
H25 C44 1_555 1_555
C45 C40 1_555 1_555
H26 C45 1_555 1_555
C46 H27 1_555 1_555
C47 C46 1_555 1_555
H28 C47 1_555 1_555
C48 C43 1_555 1_555
C49 C48 1_555 1_555
H29 C49 1_555 1_555
C51 C39 1_555 1_555
C52 C51 1_555 1_555
H31 C52 1_555 1_555
C53 C52 1_555 1_555
H32 C53 1_555 1_555
C54 C53 1_555 1_555
C55 C54 1_555 1_555
H33 C55 1_555 1_555
C56 C51 1_555 1_555
H34 C56 1_555 1_555
N4 C57 1_555 1_555
C57 H35 1_555 1_555
C58 C57 1_555 1_555
H36 C58 1_555 1_555
C59 C54 1_555 1_555
C60 C59 1_555 1_555
H37 C60 1_555 1_555
C61 N4 1_555 1_555
H38 C61 1_555 1_555
Zn3 N2 1_555 1_555
Zn4 N4 1_555 1_555
C6 C7 1_555 1_555
C9 C10 1_555 1_555
C17 C18 1_555 1_555
C20 C21 1_555 1_555
C22 C23 1_555 1_555
C44 C45 1_555 1_555
C47 C48 1_555 1_555
C55 C56 1_555 1_555
C58 C59 1_555 1_555
C60 C61 1_555 1_555
Zn3 N1 1_555 1_555
C12 N1 1_555 1_555
H8 C12 1_555 1_555
O1 Zn3 1_555 1_555
O2 C24 1_555 1_555
C24 O1 1_555 1_555
C25 C24 1_555 1_555
C26 C25 1_555 1_555
H17 C26 1_555 1_555
C27 C26 1_555 1_555
H18 C27 1_555 1_555
C28 C27 1_555 1_555
C29 C28 1_555 1_555
C30 C29 1_555 1_555
H19 C30 1_555 1_555
C31 C30 1_555 1_555
H20 C31 1_555 1_555
C32 C31 1_555 1_555
C33 C32 1_555 1_555
H21 C33 1_555 1_555
C34 C29 1_555 1_555
C35 C34 1_555 1_555
O3 C35 1_555 1_555
C36 C28 1_555 1_555
C37 C25 1_555 1_555
H22 C37 1_555 1_555
C38 C32 1_555 1_555
O4 C38 1_555 1_555
O5 C38 1_555 1_555
C50 N3 1_555 1_555
H30 C50 1_555 1_555
Zn4 N3 1_555 1_555
O6 Zn4 1_555 1_555
O7 C62 1_555 1_555
C62 O6 1_555 1_555
C63 C62 1_555 1_555
C64 C63 1_555 1_555
H39 C64 1_555 1_555
Zn5 O4 1_555 1_555
O11 Zn4 1_555 1_555
O12 Zn3 1_555 1_555
C33 C34 1_555 1_555
C35 C36 1_555 1_555
C36 C37 1_555 1_555
C40_2 C39_2 1_555 1_555
C41_2 C40_2 1_555 1_555
H23_2 C41_2 1_555 1_555
C42_2 C41_2 1_555 1_555
H24_2 C42_2 1_555 1_555
C43_2 C42_2 1_555 1_555
C44_2 C43_2 1_555 1_555
H25_2 C44_2 1_555 1_555
C45_2 C40_2 1_555 1_555
H26_2 C45_2 1_555 1_555
N3_2 C46_2 1_555 1_555
C46_2 H27_2 1_555 1_555
C47_2 C46_2 1_555 1_555
H28_2 C47_2 1_555 1_555
C48_2 C43_2 1_555 1_555
C49_2 C48_2 1_555 1_555
H29_2 C49_2 1_555 1_555
C50_2 N3_2 1_555 1_555
H30_2 C50_2 1_555 1_555
C51_2 C39_2 1_555 1_555
C52_2 C51_2 1_555 1_555
H31_2 C52_2 1_555 1_555
C53_2 C52_2 1_555 1_555
H32_2 C53_2 1_555 1_555
C54_2 C53_2 1_555 1_555
C55_2 C54_2 1_555 1_555
H33_2 C55_2 1_555 1_555
C56_2 C51_2 1_555 1_555
H34_2 C56_2 1_555 1_555
C58_2 C57_2 1_555 1_555
H36_2 C58_2 1_555 1_555
C59_2 C54_2 1_555 1_555
C60_2 C59_2 1_555 1_555
H37_2 C60_2 1_555 1_555
Zn6 N3_2 1_555 1_555
O6_2 Zn6 1_555 1_555
O7_2 C62_2 1_555 1_555
C62_2 O6_2 1_555 1_555
C63_2 C62_2 1_555 1_555
C64_2 C63_2 1_555 1_555
H39_2 C64_2 1_555 1_555
C65_2 C64_2 1_555 1_555
H40_2 C65_2 1_555 1_555
C66_2 C65_2 1_555 1_555
C67_2 C66_2 1_555 1_555
C68_2 C67_2 1_555 1_555
H41_2 C68_2 1_555 1_555
C69_2 C68_2 1_555 1_555
H42_2 C69_2 1_555 1_555
C70_2 C69_2 1_555 1_555
C71_2 C70_2 1_555 1_555
H43_2 C71_2 1_555 1_555
C72_2 C67_2 1_555 1_555
C73_2 C72_2 1_555 1_555
O8_2 C73_2 1_555 1_555
C74_2 C66_2 1_555 1_555
C75_2 C63_2 1_555 1_555
H44_2 C75_2 1_555 1_555
C76_2 C70_2 1_555 1_555
O12 C76_2 1_555 1_555
O10_2 C76_2 1_555 1_555
N6 Zn6 1_555 1_555
C44_2 C45_2 1_555 1_555
C47_2 C48_2 1_555 1_555
C49_2 C50_2 1_555 1_555
C55_2 C56_2 1_555 1_555
C58_2 C59_2 1_555 1_555
C71_2 C72_2 1_555 1_555
C73_2 C74_2 1_555 1_555
C74_2 C75_2 1_555 1_555
C61_2 N6 1_555 1_555
H38_2 C61_2 1_555 1_555
Zn5 N1_2 1_555 1_555
C1_2 C2_2 1_555 1_555
C2_2 C3_2 1_555 1_555
C3_2 H1_2 1_555 1_555
C4_2 C3_2 1_555 1_555
H2_2 C4_2 1_555 1_555
C5_2 C4_2 1_555 1_555
C6_2 C5_2 1_555 1_555
H3_2 C6_2 1_555 1_555
C7_2 C2_2 1_555 1_555
H4_2 C7_2 1_555 1_555
N1_2 C8_2 1_555 1_555
C8_2 H5_2 1_555 1_555
C9_2 C8_2 1_555 1_555
H6_2 C9_2 1_555 1_555
C10_2 C5_2 1_555 1_555
C11_2 C10_2 1_555 1_555
H7_2 C11_2 1_555 1_555
C12_2 N1_2 1_555 1_555
H8_2 C12_2 1_555 1_555
C13_2 C1_2 1_555 1_555
C14_2 C13_2 1_555 1_555
H9_2 C14_2 1_555 1_555
C15_2 C14_2 1_555 1_555
H10_2 C15_2 1_555 1_555
C16_2 C15_2 1_555 1_555
C17_2 C16_2 1_555 1_555
H11_2 C17_2 1_555 1_555
C18_2 C13_2 1_555 1_555
H12_2 C18_2 1_555 1_555
C20_2 C19_2 1_555 1_555
H14_2 C20_2 1_555 1_555
C21_2 C16_2 1_555 1_555
C22_2 C21_2 1_555 1_555
H15_2 C22_2 1_555 1_555
O1_2 Zn5 1_555 1_555
O2_2 C24_2 1_555 1_555
C24_2 O1_2 1_555 1_555
C25_2 C24_2 1_555 1_555
C26_2 C25_2 1_555 1_555
H17_2 C26_2 1_555 1_555
C27_2 C26_2 1_555 1_555
H18_2 C27_2 1_555 1_555
C28_2 C27_2 1_555 1_555
C29_2 C28_2 1_555 1_555
H21_2 C33_2 1_555 1_555
C34_2 C29_2 1_555 1_555
C35_2 C34_2 1_555 1_555
O3_2 C35_2 1_555 1_555
C36_2 C28_2 1_555 1_555
C37_2 C25_2 1_555 1_555
H22_2 C37_2 1_555 1_555
N5 Zn5 1_555 1_555
C6_2 C7_2 1_555 1_555
C9_2 C10_2 1_555 1_555
C11_2 C12_2 1_555 1_555
C17_2 C18_2 1_555 1_555
C20_2 C21_2 1_555 1_555
C33_2 C34_2 1_555 1_555
C35_2 C36_2 1_555 1_555
C36_2 C37_2 1_555 1_555
C23_2 N5 1_555 1_555
H16_2 C23_2 1_555 1_555
H19_2 C30_2 1_555 1_555
C31_2 C30_2 1_555 1_555
H20_2 C31_2 1_555 1_555
C32_2 C31_2 1_555 1_555
C38_2 C32_2 1_555 1_555
O11 C38_2 1_555 1_555
O5_2 C38_2 1_555 1_555
H9_3 C14_3 1_555 1_555
C15_3 C14_3 1_555 1_555
H10_3 C15_3 1_555 1_555
C16_3 C15_3 1_555 1_555
C21_3 C16_3 1_555 1_555
C22_3 C21_3 1_555 1_555
H15_3 C22_3 1_555 1_555
C23_3 N2_2 1_555 1_555
H16_3 C23_3 1_555 1_555
H33_3 C55_3 1_555 1_555
C57_3 H35_3 1_555 1_555
C58_3 C57_3 1_555 1_555
H36_3 C58_3 1_555 1_555
C22_3 C23_3 1_555 1_555
H3_3 C6_3 1_555 1_555
H4_3 C7_3 1_555 1_555
C8_3 H5_3 1_555 1_555
C9_3 C8_3 1_555 1_555
H6_3 C9_3 1_555 1_555
C13_3 C1_3 1_555 1_555
C41_3 C40_3 1_555 1_555
H23_3 C41_3 1_555 1_555
C42_3 C41_3 1_555 1_555
H24_3 C42_3 1_555 1_555
C43_3 C42_3 1_555 1_555
C48_3 C43_3 1_555 1_555
C49_3 C48_3 1_555 1_555
H29_3 C49_3 1_555 1_555
C50_3 N3_3 1_555 1_555
H30_3 C50_3 1_555 1_555
H34_3 C56_3 1_555 1_555
Zn4_2 N3_3 1_555 1_555
O6_3 Zn4_2 1_555 1_555
O7_3 C62_3 1_555 1_555
C62_3 O6_3 1_555 1_555
C63_3 C62_3 1_555 1_555
C64_3 C63_3 1_555 1_555
H39_3 C64_3 1_555 1_555
C6_3 C7_3 1_555 1_555
C49_3 C50_3 1_555 1_555
C66_3 C65_3 1_555 1_555
C67_3 C66_3 1_555 1_555
C68_3 C67_3 1_555 1_555
H41_3 C68_3 1_555 1_555
C69_3 C68_3 1_555 1_555
H42_3 C69_3 1_555 1_555
C70_3 C69_3 1_555 1_555
C71_3 C70_3 1_555 1_555
H43_3 C71_3 1_555 1_555
C72_3 C67_3 1_555 1_555
C73_3 C72_3 1_555 1_555
O8_3 C73_3 1_555 1_555
C74_3 C66_3 1_555 1_555
H44_3 C75_3 1_555 1_555
C76_3 C70_3 1_555 1_555
O9_2 C76_3 1_555 1_555
O10_3 C76_3 1_555 1_555
Zn6_2 O9_2 1_555 1_555
C71_3 C72_3 1_555 1_555
C73_3 C74_3 1_555 1_555
C74_3 C75_3 1_555 1_555
H11_3 C17_3 1_555 1_555
C19_3 H13_3 1_555 1_555
C20_3 C19_3 1_555 1_555
H14_3 C20_3 1_555 1_555
H31_3 C52_3 1_555 1_555
C53_3 C52_3 1_555 1_555
H32_3 C53_3 1_555 1_555
C54_3 C53_3 1_555 1_555
C59_3 C54_3 1_555 1_555
C60_3 C59_3 1_555 1_555
H37_3 C60_3 1_555 1_555
C61_3 N4_2 1_555 1_555
H38_3 C61_3 1_555 1_555
C60_3 C61_3 1_555 1_555
Zn3_2 N1_3 1_555 1_555
C2_3 C3_3 1_555 1_555
C3_3 H1_3 1_555 1_555
C4_3 C3_3 1_555 1_555
H2_3 C4_3 1_555 1_555
C5_3 C4_3 1_555 1_555
C10_3 C5_3 1_555 1_555
C11_3 C10_3 1_555 1_555
H7_3 C11_3 1_555 1_555
C12_3 N1_3 1_555 1_555
H8_3 C12_3 1_555 1_555
H12_3 C18_3 1_555 1_555
O1_3 Zn3_2 1_555 1_555
O2_3 C24_3 1_555 1_555
C24_3 O1_3 1_555 1_555
C25_3 C24_3 1_555 1_555
C26_3 C25_3 1_555 1_555
H17_3 C26_3 1_555 1_555
C27_3 C26_3 1_555 1_555
H18_3 C27_3 1_555 1_555
C28_3 C27_3 1_555 1_555
C29_3 C28_3 1_555 1_555
C30_3 C29_3 1_555 1_555
H19_3 C30_3 1_555 1_555
C31_3 C30_3 1_555 1_555
H20_3 C31_3 1_555 1_555
C32_3 C31_3 1_555 1_555
C33_3 C32_3 1_555 1_555
H21_3 C33_3 1_555 1_555
C34_3 C29_3 1_555 1_555
C35_3 C34_3 1_555 1_555
O3_3 C35_3 1_555 1_555
C36_3 C28_3 1_555 1_555
C37_3 C25_3 1_555 1_555
H22_3 C37_3 1_555 1_555
C38_3 C32_3 1_555 1_555
O4_2 C38_3 1_555 1_555
O5_3 C38_3 1_555 1_555
H25_3 C44_3 1_555 1_555
H26_3 C45_3 1_555 1_555
C46_3 H27_3 1_555 1_555
C47_3 C46_3 1_555 1_555
H28_3 C47_3 1_555 1_555
C51_3 C39_3 1_555 1_555
Zn5_2 O4_2 1_555 1_555
C11_3 C12_3 1_555 1_555
C33_3 C34_3 1_555 1_555
C35_3 C36_3 1_555 1_555
C36_3 C37_3 1_555 1_555
C44_3 C45_3 1_555 1_555
H19_4 C30_4 1_555 1_555
C31_4 C30_4 1_555 1_555
H20_4 C31_4 1_555 1_555
C32_4 C31_4 1_555 1_555
C38_4 C32_4 1_555 1_555
O11_2 C38_4 1_555 1_555
O5_4 C38_4 1_555 1_555
Zn5_2 N1_4 1_555 1_555
H2_4 C4_4 1_555 1_555
C5_4 C4_4 1_555 1_555
C6_4 C5_4 1_555 1_555
H3_4 C6_4 1_555 1_555
N1_4 C8_4 1_555 1_555
C8_4 H5_4 1_555 1_555
C9_4 C8_4 1_555 1_555
H6_4 C9_4 1_555 1_555
C10_4 C5_4 1_555 1_555
C11_4 C10_4 1_555 1_555
H7_4 C11_4 1_555 1_555
C12_4 N1_4 1_555 1_555
H8_4 C12_4 1_555 1_555
O1_4 Zn5_2 1_555 1_555
O2_4 C24_4 1_555 1_555
C24_4 O1_4 1_555 1_555
C25_4 C24_4 1_555 1_555
C26_4 C25_4 1_555 1_555
H17_4 C26_4 1_555 1_555
C27_4 C26_4 1_555 1_555
H18_4 C27_4 1_555 1_555
C28_4 C27_4 1_555 1_555
C29_4 C28_4 1_555 1_555
H21_4 C33_4 1_555 1_555
C34_4 C29_4 1_555 1_555
C35_4 C34_4 1_555 1_555
O3_4 C35_4 1_555 1_555
C36_4 C28_4 1_555 1_555
C37_4 C25_4 1_555 1_555
H22_4 C37_4 1_555 1_555
H24_4 C42_4 1_555 1_555
C43_4 C42_4 1_555 1_555
C44_4 C43_4 1_555 1_555
H25_4 C44_4 1_555 1_555
N3_4 C46_4 1_555 1_555
C46_4 H27_4 1_555 1_555
C47_4 C46_4 1_555 1_555
H28_4 C47_4 1_555 1_555
C48_4 C43_4 1_555 1_555
C49_4 C48_4 1_555 1_555
H29_4 C49_4 1_555 1_555
C50_4 N3_4 1_555 1_555
H30_4 C50_4 1_555 1_555
Zn6_2 N3_4 1_555 1_555
O6_4 Zn6_2 1_555 1_555
O7_4 C62_4 1_555 1_555
C62_4 O6_4 1_555 1_555
C63_4 C62_4 1_555 1_555
C64_4 C63_4 1_555 1_555
H39_4 C64_4 1_555 1_555
C65_4 C64_4 1_555 1_555
H40_4 C65_4 1_555 1_555
C66_4 C65_4 1_555 1_555
C67_4 C66_4 1_555 1_555
C68_4 C67_4 1_555 1_555
H41_4 C68_4 1_555 1_555
C69_4 C68_4 1_555 1_555
H42_4 C69_4 1_555 1_555
C70_4 C69_4 1_555 1_555
C71_4 C70_4 1_555 1_555
H43_4 C71_4 1_555 1_555
C72_4 C67_4 1_555 1_555
C73_4 C72_4 1_555 1_555
O8_4 C73_4 1_555 1_555
C74_4 C66_4 1_555 1_555
C75_4 C63_4 1_555 1_555
H44_4 C75_4 1_555 1_555
C76_4 C70_4 1_555 1_555
O12_2 C76_4 1_555 1_555
O10_4 C76_4 1_555 1_555
N5_2 Zn5_2 1_555 1_555
N6_2 Zn6_2 1_555 1_555
C9_4 C10_4 1_555 1_555
C11_4 C12_4 1_555 1_555
C33_4 C34_4 1_555 1_555
C35_4 C36_4 1_555 1_555
C36_4 C37_4 1_555 1_555
C47_4 C48_4 1_555 1_555
C49_4 C50_4 1_555 1_555
C71_4 C72_4 1_555 1_555
C73_4 C74_4 1_555 1_555
C74_4 C75_4 1_555 1_555
C1_4 C2_4 1_555 1_555
C2_4 C3_4 1_555 1_555
C3_4 H1_4 1_555 1_555
C7_4 C2_4 1_555 1_555
H4_4 C7_4 1_555 1_555
C13_4 C1_4 1_555 1_555
C14_4 C13_4 1_555 1_555
H9_4 C14_4 1_555 1_555
C15_4 C14_4 1_555 1_555
H10_4 C15_4 1_555 1_555
C16_4 C15_4 1_555 1_555
C17_4 C16_4 1_555 1_555
H11_4 C17_4 1_555 1_555
C18_4 C13_4 1_555 1_555
H12_4 C18_4 1_555 1_555
N5_2 C19_4 1_555 1_555
C19_4 H13_4 1_555 1_555
C20_4 C19_4 1_555 1_555
H14_4 C20_4 1_555 1_555
C21_4 C16_4 1_555 1_555
C22_4 C21_4 1_555 1_555
H15_4 C22_4 1_555 1_555
C23_4 N5_2 1_555 1_555
H16_4 C23_4 1_555 1_555
C39_4 C1_4 1_555 1_555
C40_4 C39_4 1_555 1_555
C41_4 C40_4 1_555 1_555
H23_4 C41_4 1_555 1_555
C45_4 C40_4 1_555 1_555
H26_4 C45_4 1_555 1_555
C51_4 C39_4 1_555 1_555
C52_4 C51_4 1_555 1_555
H31_4 C52_4 1_555 1_555
C53_4 C52_4 1_555 1_555
H32_4 C53_4 1_555 1_555
C54_4 C53_4 1_555 1_555
C55_4 C54_4 1_555 1_555
H33_4 C55_4 1_555 1_555
C56_4 C51_4 1_555 1_555
H34_4 C56_4 1_555 1_555
N6_2 C57_4 1_555 1_555
C57_4 H35_4 1_555 1_555
C58_4 C57_4 1_555 1_555
H36_4 C58_4 1_555 1_555
C59_4 C54_4 1_555 1_555
C60_4 C59_4 1_555 1_555
H37_4 C60_4 1_555 1_555
C61_4 N6_2 1_555 1_555
H38_4 C61_4 1_555 1_555
C17_4 C18_4 1_555 1_555
C20_4 C21_4 1_555 1_555
C22_4 C23_4 1_555 1_555
C55_4 C56_4 1_555 1_555
C58_4 C59_4 1_555 1_555
C60_4 C61_4 1_555 1_555
H19_5 C30_5 1_555 1_555
C31_5 C30_5 1_555 1_555
H20_5 C31_5 1_555 1_555
C32_5 C31_5 1_555 1_555
C38_5 C32_5 1_555 1_555
O4_3 C38_5 1_555 1_555
O5_5 C38_5 1_555 1_555
Zn5_3 O4_3 1_555 1_555
C23_5 N2_3 1_555 1_555
H16_5 C23_5 1_555 1_555
Zn3_3 N2_3 1_555 1_555
Zn3_3 N1_5 1_555 1_555
C1_5 C2_5 1_555 1_555
C2_5 C3_5 1_555 1_555
C3_5 H1_5 1_555 1_555
C4_5 C3_5 1_555 1_555
H2_5 C4_5 1_555 1_555
C5_5 C4_5 1_555 1_555
C6_5 C5_5 1_555 1_555
H3_5 C6_5 1_555 1_555
C7_5 C2_5 1_555 1_555
H4_5 C7_5 1_555 1_555
N1_5 C8_5 1_555 1_555
C8_5 H5_5 1_555 1_555
C9_5 C8_5 1_555 1_555
H6_5 C9_5 1_555 1_555
C10_5 C5_5 1_555 1_555
C11_5 C10_5 1_555 1_555
H7_5 C11_5 1_555 1_555
C12_5 N1_5 1_555 1_555
H8_5 C12_5 1_555 1_555
C13_5 C1_5 1_555 1_555
C14_5 C13_5 1_555 1_555
H9_5 C14_5 1_555 1_555
C15_5 C14_5 1_555 1_555
H10_5 C15_5 1_555 1_555
C16_5 C15_5 1_555 1_555
C17_5 C16_5 1_555 1_555
H11_5 C17_5 1_555 1_555
C18_5 C13_5 1_555 1_555
H12_5 C18_5 1_555 1_555
C20_5 C19_5 1_555 1_555
H14_5 C20_5 1_555 1_555
C21_5 C16_5 1_555 1_555
C22_5 C21_5 1_555 1_555
H15_5 C22_5 1_555 1_555
O1_5 Zn3_3 1_555 1_555
O2_5 C24_5 1_555 1_555
C24_5 O1_5 1_555 1_555
C25_5 C24_5 1_555 1_555
C26_5 C25_5 1_555 1_555
H17_5 C26_5 1_555 1_555
C27_5 C26_5 1_555 1_555
H18_5 C27_5 1_555 1_555
C28_5 C27_5 1_555 1_555
C29_5 C28_5 1_555 1_555
H21_5 C33_5 1_555 1_555
C34_5 C29_5 1_555 1_555
C35_5 C34_5 1_555 1_555
O3_5 C35_5 1_555 1_555
C36_5 C28_5 1_555 1_555
C37_5 C25_5 1_555 1_555
H22_5 C37_5 1_555 1_555
O12_3 Zn3_3 1_555 1_555
C6_5 C7_5 1_555 1_555
C9_5 C10_5 1_555 1_555
C11_5 C12_5 1_555 1_555
C17_5 C18_5 1_555 1_555
C20_5 C21_5 1_555 1_555
C33_5 C34_5 1_555 1_555
C35_5 C36_5 1_555 1_555
C36_5 C37_5 1_555 1_555
C61_5 N4_3 1_555 1_555
H38_5 C61_5 1_555 1_555
Zn4_3 N4_3 1_555 1_555
C40_5 C39_5 1_555 1_555
C41_5 C40_5 1_555 1_555
H23_5 C41_5 1_555 1_555
C42_5 C41_5 1_555 1_555
H24_5 C42_5 1_555 1_555
C43_5 C42_5 1_555 1_555
C44_5 C43_5 1_555 1_555
H25_5 C44_5 1_555 1_555
C45_5 C40_5 1_555 1_555
H26_5 C45_5 1_555 1_555
N3_5 C46_5 1_555 1_555
C46_5 H27_5 1_555 1_555
C47_5 C46_5 1_555 1_555
H28_5 C47_5 1_555 1_555
C48_5 C43_5 1_555 1_555
C49_5 C48_5 1_555 1_555
H29_5 C49_5 1_555 1_555
C50_5 N3_5 1_555 1_555
H30_5 C50_5 1_555 1_555
C51_5 C39_5 1_555 1_555
C52_5 C51_5 1_555 1_555
H31_5 C52_5 1_555 1_555
C53_5 C52_5 1_555 1_555
H32_5 C53_5 1_555 1_555
C54_5 C53_5 1_555 1_555
C55_5 C54_5 1_555 1_555
H33_5 C55_5 1_555 1_555
C56_5 C51_5 1_555 1_555
H34_5 C56_5 1_555 1_555
C58_5 C57_5 1_555 1_555
H36_5 C58_5 1_555 1_555
C59_5 C54_5 1_555 1_555
C60_5 C59_5 1_555 1_555
H37_5 C60_5 1_555 1_555
Zn4_3 N3_5 1_555 1_555
O6_5 Zn4_3 1_555 1_555
O7_5 C62_5 1_555 1_555
C62_5 O6_5 1_555 1_555
C63_5 C62_5 1_555 1_555
C64_5 C63_5 1_555 1_555
H39_5 C64_5 1_555 1_555
C65_5 C64_5 1_555 1_555
H40_5 C65_5 1_555 1_555
C66_5 C65_5 1_555 1_555
C67_5 C66_5 1_555 1_555
C68_5 C67_5 1_555 1_555
H41_5 C68_5 1_555 1_555
C69_5 C68_5 1_555 1_555
H42_5 C69_5 1_555 1_555
C70_5 C69_5 1_555 1_555
C71_5 C70_5 1_555 1_555
H43_5 C71_5 1_555 1_555
C72_5 C67_5 1_555 1_555
C73_5 C72_5 1_555 1_555
O8_5 C73_5 1_555 1_555
C74_5 C66_5 1_555 1_555
C75_5 C63_5 1_555 1_555
H44_5 C75_5 1_555 1_555
C76_5 C70_5 1_555 1_555
O9_3 C76_5 1_555 1_555
O10_5 C76_5 1_555 1_555
Zn6_3 O9_3 1_555 1_555
O11_3 Zn4_3 1_555 1_555
C44_5 C45_5 1_555 1_555
C47_5 C48_5 1_555 1_555
C49_5 C50_5 1_555 1_555
C55_5 C56_5 1_555 1_555
C58_5 C59_5 1_555 1_555
C71_5 C72_5 1_555 1_555
C73_5 C74_5 1_555 1_555
C74_5 C75_5 1_555 1_555
Zn6_3 N1_6 1_555 1_555
C12_6 N1_6 1_555 1_555
H8_6 C12_6 1_555 1_555
O1_6 Zn6_3 1_555 1_555
O2_6 C24_6 1_555 1_555
C24_6 O1_6 1_555 1_555
C25_6 C24_6 1_555 1_555
C26_6 C25_6 1_555 1_555
H17_6 C26_6 1_555 1_555
C27_6 C26_6 1_555 1_555
H18_6 C27_6 1_555 1_555
C28_6 C27_6 1_555 1_555
C29_6 C28_6 1_555 1_555
C30_6 C29_6 1_555 1_555
H19_6 C30_6 1_555 1_555
C31_6 C30_6 1_555 1_555
H20_6 C31_6 1_555 1_555
C32_6 C31_6 1_555 1_555
C33_6 C32_6 1_555 1_555
H21_6 C33_6 1_555 1_555
C34_6 C29_6 1_555 1_555
C35_6 C34_6 1_555 1_555
O3_6 C35_6 1_555 1_555
C36_6 C28_6 1_555 1_555
C37_6 C25_6 1_555 1_555
H22_6 C37_6 1_555 1_555
C38_6 C32_6 1_555 1_555
O12_3 C38_6 1_555 1_555
O5_6 C38_6 1_555 1_555
C50_6 N3_6 1_555 1_555
H30_6 C50_6 1_555 1_555
Zn5_3 N3_6 1_555 1_555
O6_6 Zn5_3 1_555 1_555
O7_6 C62_6 1_555 1_555
C62_6 O6_6 1_555 1_555
C63_6 C62_6 1_555 1_555
C64_6 C63_6 1_555 1_555
H39_6 C64_6 1_555 1_555
N5_3 Zn6_3 1_555 1_555
N6_3 Zn5_3 1_555 1_555
C33_6 C34_6 1_555 1_555
C35_6 C36_6 1_555 1_555
C36_6 C37_6 1_555 1_555
C1_6 C2_6 1_555 1_555
C2_6 C3_6 1_555 1_555
C3_6 H1_6 1_555 1_555
C4_6 C3_6 1_555 1_555
H2_6 C4_6 1_555 1_555
C5_6 C4_6 1_555 1_555
C6_6 C5_6 1_555 1_555
H3_6 C6_6 1_555 1_555
C7_6 C2_6 1_555 1_555
H4_6 C7_6 1_555 1_555
C8_6 H5_6 1_555 1_555
C9_6 C8_6 1_555 1_555
H6_6 C9_6 1_555 1_555
C10_6 C5_6 1_555 1_555
C11_6 C10_6 1_555 1_555
H7_6 C11_6 1_555 1_555
C13_6 C1_6 1_555 1_555
C14_6 C13_6 1_555 1_555
H9_6 C14_6 1_555 1_555
C15_6 C14_6 1_555 1_555
H10_6 C15_6 1_555 1_555
C16_6 C15_6 1_555 1_555
C17_6 C16_6 1_555 1_555
H11_6 C17_6 1_555 1_555
C18_6 C13_6 1_555 1_555
H12_6 C18_6 1_555 1_555
N5_3 C19_6 1_555 1_555
C19_6 H13_6 1_555 1_555
C20_6 C19_6 1_555 1_555
H14_6 C20_6 1_555 1_555
C21_6 C16_6 1_555 1_555
C22_6 C21_6 1_555 1_555
H15_6 C22_6 1_555 1_555
C23_6 N5_3 1_555 1_555
H16_6 C23_6 1_555 1_555
C39_6 C1_6 1_555 1_555
C40_6 C39_6 1_555 1_555
C41_6 C40_6 1_555 1_555
H23_6 C41_6 1_555 1_555
C42_6 C41_6 1_555 1_555
H24_6 C42_6 1_555 1_555
C43_6 C42_6 1_555 1_555
C44_6 C43_6 1_555 1_555
H25_6 C44_6 1_555 1_555
C45_6 C40_6 1_555 1_555
H26_6 C45_6 1_555 1_555
C46_6 H27_6 1_555 1_555
C47_6 C46_6 1_555 1_555
H28_6 C47_6 1_555 1_555
C48_6 C43_6 1_555 1_555
C49_6 C48_6 1_555 1_555
H29_6 C49_6 1_555 1_555
C51_6 C39_6 1_555 1_555
C52_6 C51_6 1_555 1_555
H31_6 C52_6 1_555 1_555
C53_6 C52_6 1_555 1_555
H32_6 C53_6 1_555 1_555
C54_6 C53_6 1_555 1_555
C55_6 C54_6 1_555 1_555
H33_6 C55_6 1_555 1_555
C56_6 C51_6 1_555 1_555
H34_6 C56_6 1_555 1_555
N6_3 C57_6 1_555 1_555
C57_6 H35_6 1_555 1_555
C58_6 C57_6 1_555 1_555
H36_6 C58_6 1_555 1_555
C59_6 C54_6 1_555 1_555
C60_6 C59_6 1_555 1_555
H37_6 C60_6 1_555 1_555
C61_6 N6_3 1_555 1_555
H38_6 C61_6 1_555 1_555
C6_6 C7_6 1_555 1_555
C9_6 C10_6 1_555 1_555
C17_6 C18_6 1_555 1_555
C20_6 C21_6 1_555 1_555
C22_6 C23_6 1_555 1_555
C44_6 C45_6 1_555 1_555
C47_6 C48_6 1_555 1_555
C55_6 C56_6 1_555 1_555
C58_6 C59_6 1_555 1_555
C60_6 C61_6 1_555 1_555
C66_6 C65_6 1_555 1_555
C67_6 C66_6 1_555 1_555
C68_6 C67_6 1_555 1_555
H41_6 C68_6 1_555 1_555
C69_6 C68_6 1_555 1_555
H42_6 C69_6 1_555 1_555
C70_6 C69_6 1_555 1_555
C71_6 C70_6 1_555 1_555
H43_6 C71_6 1_555 1_555
C72_6 C67_6 1_555 1_555
C73_6 C72_6 1_555 1_555
O8_6 C73_6 1_555 1_555
C74_6 C66_6 1_555 1_555
H44_6 C75_6 1_555 1_555
C76_6 C70_6 1_555 1_555
O11_3 C76_6 1_555 1_555
O10_6 C76_6 1_555 1_555
C71_6 C72_6 1_555 1_555
C73_6 C74_6 1_555 1_555
C74_6 C75_6 1_555 1_555
C1_7 C2_7 1_555 1_555
C2_7 C3_7 1_555 1_555
C3_7 H1_7 1_555 1_555
C7_7 C2_7 1_555 1_555
H4_7 C7_7 1_555 1_555
C13_7 C1_7 1_555 1_555
C14_7 C13_7 1_555 1_555
H9_7 C14_7 1_555 1_555
C15_7 C14_7 1_555 1_555
H10_7 C15_7 1_555 1_555
C16_7 C15_7 1_555 1_555
C17_7 C16_7 1_555 1_555
H11_7 C17_7 1_555 1_555
C18_7 C13_7 1_555 1_555
H12_7 C18_7 1_555 1_555
N2_4 C19_7 1_555 1_555
C19_7 H13_7 1_555 1_555
C20_7 C19_7 1_555 1_555
H14_7 C20_7 1_555 1_555
C21_7 C16_7 1_555 1_555
C22_7 C21_7 1_555 1_555
H15_7 C22_7 1_555 1_555
C23_7 N2_4 1_555 1_555
H16_7 C23_7 1_555 1_555
C39_7 C1_7 1_555 1_555
C40_7 C39_7 1_555 1_555
C41_7 C40_7 1_555 1_555
H23_7 C41_7 1_555 1_555
C45_7 C40_7 1_555 1_555
H26_7 C45_7 1_555 1_555
C51_7 C39_7 1_555 1_555
C52_7 C51_7 1_555 1_555
H31_7 C52_7 1_555 1_555
C53_7 C52_7 1_555 1_555
H32_7 C53_7 1_555 1_555
C54_7 C53_7 1_555 1_555
C55_7 C54_7 1_555 1_555
H33_7 C55_7 1_555 1_555
C56_7 C51_7 1_555 1_555
H34_7 C56_7 1_555 1_555
N4_4 C57_7 1_555 1_555
C57_7 H35_7 1_555 1_555
C58_7 C57_7 1_555 1_555
H36_7 C58_7 1_555 1_555
C59_7 C54_7 1_555 1_555
C60_7 C59_7 1_555 1_555
H37_7 C60_7 1_555 1_555
C61_7 N4_4 1_555 1_555
H38_7 C61_7 1_555 1_555
Zn3_4 N2_4 1_555 1_555
Zn4_4 N4_4 1_555 1_555
C17_7 C18_7 1_555 1_555
C20_7 C21_7 1_555 1_555
C22_7 C23_7 1_555 1_555
C55_7 C56_7 1_555 1_555
C58_7 C59_7 1_555 1_555
C60_7 C61_7 1_555 1_555
Zn3_4 N1_7 1_555 1_555
H2_7 C4_7 1_555 1_555
C5_7 C4_7 1_555 1_555
C6_7 C5_7 1_555 1_555
H3_7 C6_7 1_555 1_555
N1_7 C8_7 1_555 1_555
C8_7 H5_7 1_555 1_555
C9_7 C8_7 1_555 1_555
H6_7 C9_7 1_555 1_555
C10_7 C5_7 1_555 1_555
C11_7 C10_7 1_555 1_555
H7_7 C11_7 1_555 1_555
C12_7 N1_7 1_555 1_555
H8_7 C12_7 1_555 1_555
O1_7 Zn3_4 1_555 1_555
O2_7 C24_7 1_555 1_555
C24_7 O1_7 1_555 1_555
C25_7 C24_7 1_555 1_555
C26_7 C25_7 1_555 1_555
H17_7 C26_7 1_555 1_555
C27_7 C26_7 1_555 1_555
H18_7 C27_7 1_555 1_555
C28_7 C27_7 1_555 1_555
C29_7 C28_7 1_555 1_555
H21_7 C33_7 1_555 1_555
C34_7 C29_7 1_555 1_555
C35_7 C34_7 1_555 1_555
O3_7 C35_7 1_555 1_555
C36_7 C28_7 1_555 1_555
C37_7 C25_7 1_555 1_555
H22_7 C37_7 1_555 1_555
H24_7 C42_7 1_555 1_555
C43_7 C42_7 1_555 1_555
C44_7 C43_7 1_555 1_555
H25_7 C44_7 1_555 1_555
N3_7 C46_7 1_555 1_555
C46_7 H27_7 1_555 1_555
C47_7 C46_7 1_555 1_555
H28_7 C47_7 1_555 1_555
C48_7 C43_7 1_555 1_555
C49_7 C48_7 1_555 1_555
H29_7 C49_7 1_555 1_555
C50_7 N3_7 1_555 1_555
H30_7 C50_7 1_555 1_555
Zn4_4 N3_7 1_555 1_555
O6_7 Zn4_4 1_555 1_555
O7_7 C62_7 1_555 1_555
C62_7 O6_7 1_555 1_555
C63_7 C62_7 1_555 1_555
C64_7 C63_7 1_555 1_555
H39_7 C64_7 1_555 1_555
C65_7 C64_7 1_555 1_555
H40_7 C65_7 1_555 1_555
C66_7 C65_7 1_555 1_555
C67_7 C66_7 1_555 1_555
C68_7 C67_7 1_555 1_555
H41_7 C68_7 1_555 1_555
C69_7 C68_7 1_555 1_555
H42_7 C69_7 1_555 1_555
C70_7 C69_7 1_555 1_555
C71_7 C70_7 1_555 1_555
H43_7 C71_7 1_555 1_555
C72_7 C67_7 1_555 1_555
C73_7 C72_7 1_555 1_555
O8_7 C73_7 1_555 1_555
C74_7 C66_7 1_555 1_555
C75_7 C63_7 1_555 1_555
H44_7 C75_7 1_555 1_555
C76_7 C70_7 1_555 1_555
O9_4 C76_7 1_555 1_555
O10_7 C76_7 1_555 1_555
O11_4 Zn4_4 1_555 1_555
O12_4 Zn3_4 1_555 1_555
C9_7 C10_7 1_555 1_555
C11_7 C12_7 1_555 1_555
C33_7 C34_7 1_555 1_555
C35_7 C36_7 1_555 1_555
C36_7 C37_7 1_555 1_555
C47_7 C48_7 1_555 1_555
C49_7 C50_7 1_555 1_555
C71_7 C72_7 1_555 1_555
C73_7 C74_7 1_555 1_555
C74_7 C75_7 1_555 1_555
H19_7 C30_7 1_555 1_555
C31_7 C30_7 1_555 1_555
H20_7 C31_7 1_555 1_555
C32_7 C31_7 1_555 1_555
C38_7 C32_7 1_555 1_555
O4_4 C38_7 1_555 1_555
O5_7 C38_7 1_555 1_555
Zn6_4 N1_8 1_555 1_555
C2_8 C3_8 1_555 1_555
C3_8 H1_8 1_555 1_555
C4_8 C3_8 1_555 1_555
H2_8 C4_8 1_555 1_555
C5_8 C4_8 1_555 1_555
C10_8 C5_8 1_555 1_555
C11_8 C10_8 1_555 1_555
H7_8 C11_8 1_555 1_555
C12_8 N1_8 1_555 1_555
H8_8 C12_8 1_555 1_555
H12_8 C18_8 1_555 1_555
O1_8 Zn6_4 1_555 1_555
O2_8 C24_8 1_555 1_555
C24_8 O1_8 1_555 1_555
C25_8 C24_8 1_555 1_555
C26_8 C25_8 1_555 1_555
H17_8 C26_8 1_555 1_555
C27_8 C26_8 1_555 1_555
H18_8 C27_8 1_555 1_555
C28_8 C27_8 1_555 1_555
C29_8 C28_8 1_555 1_555
C30_8 C29_8 1_555 1_555
H19_8 C30_8 1_555 1_555
C31_8 C30_8 1_555 1_555
H20_8 C31_8 1_555 1_555
C32_8 C31_8 1_555 1_555
C33_8 C32_8 1_555 1_555
H21_8 C33_8 1_555 1_555
C34_8 C29_8 1_555 1_555
C35_8 C34_8 1_555 1_555
O3_8 C35_8 1_555 1_555
C36_8 C28_8 1_555 1_555
C37_8 C25_8 1_555 1_555
H22_8 C37_8 1_555 1_555
C38_8 C32_8 1_555 1_555
O12_4 C38_8 1_555 1_555
O5_8 C38_8 1_555 1_555
H25_8 C44_8 1_555 1_555
H26_8 C45_8 1_555 1_555
C46_8 H27_8 1_555 1_555
C47_8 C46_8 1_555 1_555
H28_8 C47_8 1_555 1_555
C51_8 C39_8 1_555 1_555
C11_8 C12_8 1_555 1_555
C33_8 C34_8 1_555 1_555
C35_8 C36_8 1_555 1_555
C36_8 C37_8 1_555 1_555
C44_8 C45_8 1_555 1_555
H11_8 C17_8 1_555 1_555
C19_8 H13_8 1_555 1_555
C20_8 C19_8 1_555 1_555
H14_8 C20_8 1_555 1_555
H31_8 C52_8 1_555 1_555
C53_8 C52_8 1_555 1_555
H32_8 C53_8 1_555 1_555
C54_8 C53_8 1_555 1_555
C59_8 C54_8 1_555 1_555
C60_8 C59_8 1_555 1_555
H37_8 C60_8 1_555 1_555
C61_8 N6_4 1_555 1_555
H38_8 C61_8 1_555 1_555
C60_8 C61_8 1_555 1_555
C66_8 C65_8 1_555 1_555
C67_8 C66_8 1_555 1_555
C68_8 C67_8 1_555 1_555
H41_8 C68_8 1_555 1_555
C69_8 C68_8 1_555 1_555
H42_8 C69_8 1_555 1_555
C70_8 C69_8 1_555 1_555
C71_8 C70_8 1_555 1_555
H43_8 C71_8 1_555 1_555
C72_8 C67_8 1_555 1_555
C73_8 C72_8 1_555 1_555
O8_8 C73_8 1_555 1_555
C74_8 C66_8 1_555 1_555
H44_8 C75_8 1_555 1_555
C76_8 C70_8 1_555 1_555
O11_4 C76_8 1_555 1_555
O10_8 C76_8 1_555 1_555
C71_8 C72_8 1_555 1_555
C73_8 C74_8 1_555 1_555
C74_8 C75_8 1_555 1_555
H3_8 C6_8 1_555 1_555
H4_8 C7_8 1_555 1_555
C8_8 H5_8 1_555 1_555
C9_8 C8_8 1_555 1_555
H6_8 C9_8 1_555 1_555
C13_8 C1_8 1_555 1_555
C41_8 C40_8 1_555 1_555
H23_8 C41_8 1_555 1_555
C42_8 C41_8 1_555 1_555
H24_8 C42_8 1_555 1_555
C43_8 C42_8 1_555 1_555
C48_8 C43_8 1_555 1_555
C49_8 C48_8 1_555 1_555
H29_8 C49_8 1_555 1_555
C50_8 N3_8 1_555 1_555
H30_8 C50_8 1_555 1_555
H34_8 C56_8 1_555 1_555
Zn5_4 N3_8 1_555 1_555
O6_8 Zn5_4 1_555 1_555
O7_8 C62_8 1_555 1_555
C62_8 O6_8 1_555 1_555
C63_8 C62_8 1_555 1_555
C64_8 C63_8 1_555 1_555
H39_8 C64_8 1_555 1_555
C6_8 C7_8 1_555 1_555
C49_8 C50_8 1_555 1_555
H9_8 C14_8 1_555 1_555
C15_8 C14_8 1_555 1_555
H10_8 C15_8 1_555 1_555
C16_8 C15_8 1_555 1_555
C21_8 C16_8 1_555 1_555
C22_8 C21_8 1_555 1_555
H15_8 C22_8 1_555 1_555
C23_8 N5_4 1_555 1_555
H16_8 C23_8 1_555 1_555
H33_8 C55_8 1_555 1_555
C57_8 H35_8 1_555 1_555
C58_8 C57_8 1_555 1_555
H36_8 C58_8 1_555 1_555
C22_8 C23_8 1_555 1_555

#END
