
###############################################################################
#
# This file contains modified crystal structure data generated from the
# MOF subset of the Cambridge Structural Database (CSD) v543 
# hosted by the Cambridge Crystallographic Data Centre (CCDC).
#
# This work is licensed under the Creative Commons
# Attribution-NonCommercial-ShareAlike 4.0 International License.
# To view a copy of this license, visit
# http://creativecommons.org/licenses/by-nc-sa/4.0/
# or send a letter to
# Creative Commons, PO Box 1866, Mountain View, CA 94042, USA.
#
# CIF created using the CSD Python API on 29 September 2022
# The structure has been converted into the P1 space group
# The structure has a 3D framework
# The original CSD entry HACTEL is in the monoclinic crystal system
# The framework has been calculated to contain at least 10.0% void space
# The void calculation uses a probe of radius 1.32A, grid spacing 0.4
# H atom positions have been added when not included in the experimental data
#
###############################################################################

data_HACTEL
_chemical_formula_moiety         '(C312 H264 Co14 N90 S24)n'
_symmetry_cell_setting           triclinic
_symmetry_space_group_name_H-M   'P 1'
_symmetry_Int_Tables_number      1
_space_group_name_Hall           'P 1'
loop_
_symmetry_equiv_pos_site_id
_symmetry_equiv_pos_as_xyz
1 x,y,z
_cell_length_a                   19.965(1)
_cell_length_b                   18.731(1)
_cell_length_c                   27.203(1)
_cell_angle_alpha                90
_cell_angle_beta                 110.190(1)
_cell_angle_gamma                90
_cell_volume                     9547.86
loop_
_atom_site_label
_atom_site_type_symbol
_atom_site_fract_x
_atom_site_fract_y
_atom_site_fract_z
Co1 Co 0.35499(5) 0.02671(5) 0.08701(4)
S2 S 0.1927(4) 0.2216(3) 0.0547(2)
N3 N 0.3588(4) 0.0420(4) 0.1688(3)
N6 N 0.2749(4) 0.0985(4) 0.0607(3)
C13 C 0.3192(7) 0.0932(7) 0.1821(4)
H12 H 0.2973 0.1286 0.1579
C14 C 0.3112(8) 0.0937(9) 0.2294(5)
H13 H 0.2836 0.1291 0.2370
C15 C 0.3440(8) 0.0415(10) 0.2675(4)
C18 C 0.3190(6) 0.0572(7) 0.3288(7)
C19 C 0.3547(7) 0.0178(7) 0.3437(9)
C20 C 0.4045(5) 0.0063(6) 0.4918(4)
H17 H 0.4487 0.0043 0.5184
C21 C 0.4054(6) 0.0171(6) 0.4449(4)
H18 H 0.4480 0.0220 0.4385
C22 C 0.3399(9) 0.0210(7) 0.4049(5)
N8 N 0.2787(7) 0.0163(8) 0.4166(4)
C23 C 0.2848(6) 0.0028(6) 0.4687(4)
C24 C 0.2655(6) 0.1141(5) 0.3208(4)
H20 H 0.2267 0.1058 0.2886
H21 H 0.2870 0.1594 0.3191
H22 H 0.2478 0.1142 0.3494
C26 C 0.2409(6) 0.1495(6) 0.0565(4)
N9 N 0.4306(4) 0.1121(4) 0.0901(3)
N10 N 0.3472(4) 0.0022(4) 0.0063(3)
S1 S 0.5255(2) 0.8401(2) 0.1266(3)
N1 N 0.2811(3) 0.9380(3) 0.0820(2)
N4 N 0.3472(4) 0.9978(4) 0.5063(3)
N5 N 0.4411(4) 0.9581(4) 0.1127(3)
C1 C 0.2165(5) 0.9500(5) 0.0857(4)
H1 H 0.2036 0.9965 0.0904
C2 C 0.1687(5) 0.8954(5) 0.0826(4)
H2 H 0.1254 0.9065 0.0864
C3 C 0.1823(5) 0.8255(5) 0.0740(4)
C4 C 0.2490(5) 0.8137(5) 0.0696(4)
H3 H 0.2620 0.7678 0.0635
C5 C 0.2960(5) 0.8697(4) 0.0744(4)
H4 H 0.3405 0.8596 0.0721
C6 C 0.1287(5) 0.7664(6) 0.0665(4)
C7 C 0.0915(6) 0.7644(5) 0.0949(4)
H5 H 0.0988 0.8000 0.1200
C9 C 0.0402(5) 0.6730(5) 0.1349(4)
H7 H 0.0779 0.6798 0.1662
C10 C 0.0360(5) 0.7097(5) 0.0921(4)
C12 C 0.1262(6) 0.7107(5) 0.0235(4)
H9 H 0.0921 0.6742 0.0227
H10 H 0.1725 0.6896 0.0311
C16 C 0.3853(9) 0.9891(8) 0.2536(4)
H14 H 0.4088 0.9539 0.2773
C17 C 0.3900(7) 0.9912(7) 0.2051(4)
H15 H 0.4162 0.9557 0.1962
H16 H 0.3838 0.9905 0.3308
H19 H 0.2436 0.9972 0.4768
C25 C 0.4767(5) 0.9090(5) 0.1190(4)
Co3 Co 0.35499(5) 0.97329(5) 0.58701(4)
N2 N 0.9306(4) 0.6121(4) 0.0901(3)
C8 C 0.9881(6) 0.6256(5) 0.1317(4)
H6 H 0.9929 0.5996 0.1618
N7 N 0.9817(6) 0.6982(6) 0.0484(5)
C11 C 0.9260(5) 0.6515(5) 0.0483(5)
H8 H 0.8853 0.6484 0.0185
Co2 Co 0.85499(5) 0.52671(5) 0.08701(4)
S2_2 S 0.6927(4) 0.7216(3) 0.0547(2)
N1_2 N 0.7811(3) 0.4380(3) 0.0820(2)
N3_2 N 0.8588(4) 0.5420(4) 0.1688(3)
N4_2 N 0.8472(4) 0.4978(4) 0.5063(3)
N5_2 N 0.9411(4) 0.4581(4) 0.1127(3)
N6_2 N 0.7749(4) 0.5985(4) 0.0607(3)
C1_2 C 0.7165(5) 0.4500(5) 0.0857(4)
H1_2 H 0.7036 0.4965 0.0904
C2_2 C 0.6687(5) 0.3954(5) 0.0826(4)
H2_2 H 0.6254 0.4065 0.0864
C3_2 C 0.6823(5) 0.3255(5) 0.0740(4)
C4_2 C 0.7490(5) 0.3137(5) 0.0696(4)
H3_2 H 0.7620 0.2678 0.0635
C5_2 C 0.7960(5) 0.3697(4) 0.0744(4)
H4_2 H 0.8405 0.3596 0.0721
C6_2 C 0.6287(5) 0.2664(6) 0.0665(4)
C7_2 C 0.5915(6) 0.2644(5) 0.0949(4)
H5_2 H 0.5988 0.3000 0.1200
C8_2 C 0.4881(6) 0.1256(5) 0.1317(4)
H6_2 H 0.4929 0.0996 0.1618
C9_2 C 0.5402(5) 0.1730(5) 0.1349(4)
H7_2 H 0.5779 0.1798 0.1662
C10_2 C 0.5360(5) 0.2097(5) 0.0921(4)
N7_2 N 0.4817(6) 0.1982(6) 0.0484(5)
C11_2 C 0.4260(5) 0.1515(5) 0.0483(5)
H8_2 H 0.3853 0.1484 0.0185
C12_2 C 0.6262(6) 0.2107(5) 0.0235(4)
H9_2 H 0.5921 0.1742 0.0227
H10_2 H 0.6725 0.1896 0.0311
C13_2 C 0.8192(7) 0.5932(7) 0.1821(4)
H12_2 H 0.7973 0.6286 0.1579
C14_2 C 0.8112(8) 0.5937(9) 0.2294(5)
H13_2 H 0.7836 0.6291 0.2370
C15_2 C 0.8440(8) 0.5415(10) 0.2675(4)
C16_2 C 0.8853(9) 0.4891(8) 0.2536(4)
H14_2 H 0.9088 0.4539 0.2773
C17_2 C 0.8900(7) 0.4912(7) 0.2051(4)
H15_2 H 0.9162 0.4557 0.1962
C18_2 C 0.8190(6) 0.5572(7) 0.3288(7)
C19_2 C 0.8547(7) 0.5178(7) 0.3437(9)
H16_2 H 0.8838 0.4905 0.3308
C20_2 C 0.9045(5) 0.5063(6) 0.4918(4)
H17_2 H 0.9487 0.5043 0.5184
C21_2 C 0.9054(6) 0.5171(6) 0.4449(4)
H18_2 H 0.9480 0.5220 0.4385
C22_2 C 0.8399(9) 0.5210(7) 0.4049(5)
N8_2 N 0.7787(7) 0.5163(8) 0.4166(4)
C23_2 C 0.7848(6) 0.5028(6) 0.4687(4)
H19_2 H 0.7436 0.4972 0.4768
C24_2 C 0.7655(6) 0.6141(5) 0.3208(4)
H20_2 H 0.7267 0.6058 0.2886
H21_2 H 0.7870 0.6594 0.3191
H22_2 H 0.7478 0.6142 0.3494
C25_2 C 0.9767(5) 0.4090(5) 0.1190(4)
C26_2 C 0.7409(6) 0.6495(6) 0.0565(4)
N10_2 N 0.8472(4) 0.5022(4) 0.0063(3)
Co3_2 Co 0.85499(5) 0.47329(5) 0.58701(4)
S2_3 S 0.1927(4) 0.7784(3) 0.5547(2)
N3_3 N 0.3588(4) 0.9580(4) 0.6688(3)
N6_3 N 0.2749(4) 0.9015(4) 0.5607(3)
C13_3 C 0.3192(7) 0.9068(7) 0.6821(4)
H12_3 H 0.2973 0.8714 0.6579
C14_3 C 0.3112(8) 0.9063(9) 0.7294(5)
H13_3 H 0.2836 0.8709 0.7370
C15_3 C 0.3440(8) 0.9585(10) 0.7675(4)
C18_3 C 0.3190(6) 0.9428(7) 0.8288(7)
C19_3 C 0.3547(7) 0.9822(7) 0.8437(9)
C20_3 C 0.4045(5) 0.9937(6) 0.9918(4)
C21_3 C 0.4054(6) 0.9829(6) 0.9449(4)
H18_3 H 0.4480 0.9780 0.9385
C22_3 C 0.3399(9) 0.9790(7) 0.9049(5)
N8_3 N 0.2787(7) 0.9837(8) 0.9166(4)
C23_3 C 0.2848(6) 0.9972(6) 0.9687(4)
C24_3 C 0.2655(6) 0.8859(5) 0.8208(4)
H20_3 H 0.2267 0.8942 0.7886
H21_3 H 0.2870 0.8406 0.8191
H22_3 H 0.2478 0.8858 0.8494
C26_3 C 0.2409(6) 0.8505(6) 0.5565(4)
N9_2 N 0.4306(4) 0.8879(4) 0.5901(3)
N2_2 N 0.9306(4) 0.3879(4) 0.5901(3)
C8_3 C 0.9881(6) 0.3744(5) 0.6317(4)
H6_3 H 0.9929 0.4004 0.6618
N7_3 N 0.9817(6) 0.3018(6) 0.5484(5)
C11_3 C 0.9260(5) 0.3485(5) 0.5483(5)
H8_3 H 0.8853 0.3516 0.5185
H17_3 H 0.9487 0.4957 0.0184
S2_4 S 0.6927(4) 0.2784(3) 0.5547(2)
N1_3 N 0.7811(3) 0.5620(3) 0.5820(2)
N3_4 N 0.8588(4) 0.4580(4) 0.6688(3)
N5_3 N 0.9411(4) 0.5419(4) 0.6127(3)
N6_4 N 0.7749(4) 0.4015(4) 0.5607(3)
C1_3 C 0.7165(5) 0.5500(5) 0.5857(4)
H1_3 H 0.7036 0.5035 0.5904
C2_3 C 0.6687(5) 0.6046(5) 0.5826(4)
H2_3 H 0.6254 0.5935 0.5864
C3_3 C 0.6823(5) 0.6745(5) 0.5740(4)
C4_3 C 0.7490(5) 0.6863(5) 0.5696(4)
H3_3 H 0.7620 0.7322 0.5635
C5_3 C 0.7960(5) 0.6303(4) 0.5744(4)
H4_3 H 0.8405 0.6404 0.5721
C6_3 C 0.6287(5) 0.7336(6) 0.5665(4)
C7_3 C 0.5915(6) 0.7356(5) 0.5949(4)
H5_3 H 0.5988 0.7000 0.6200
C8_4 C 0.4881(6) 0.8744(5) 0.6317(4)
H6_4 H 0.4929 0.9004 0.6618
C9_3 C 0.5402(5) 0.8270(5) 0.6349(4)
H7_3 H 0.5779 0.8202 0.6662
C10_3 C 0.5360(5) 0.7903(5) 0.5921(4)
N7_4 N 0.4817(6) 0.8018(6) 0.5484(5)
C11_4 C 0.4260(5) 0.8485(5) 0.5483(5)
H8_4 H 0.3853 0.8516 0.5185
C12_3 C 0.6262(6) 0.7893(5) 0.5235(4)
H9_3 H 0.5921 0.8258 0.5227
H10_3 H 0.6725 0.8104 0.5311
H11 H 0.6123 0.7660 0.4900
C13_4 C 0.8192(7) 0.4068(7) 0.6821(4)
H12_4 H 0.7973 0.3714 0.6579
C14_4 C 0.8112(8) 0.4063(9) 0.7294(5)
H13_4 H 0.7836 0.3709 0.7370
C15_4 C 0.8440(8) 0.4585(10) 0.7675(4)
C16_3 C 0.8853(9) 0.5109(8) 0.7536(4)
H14_3 H 0.9088 0.5461 0.7773
C17_3 C 0.8900(7) 0.5088(7) 0.7051(4)
H15_3 H 0.9162 0.5443 0.6962
C18_4 C 0.8190(6) 0.4428(7) 0.8288(7)
C19_4 C 0.8547(7) 0.4822(7) 0.8437(9)
H16_3 H 0.8838 0.5095 0.8308
C20_4 C 0.9045(5) 0.4937(6) 0.9918(4)
C21_4 C 0.9054(6) 0.4829(6) 0.9449(4)
H18_4 H 0.9480 0.4780 0.9385
C22_4 C 0.8399(9) 0.4790(7) 0.9049(5)
N8_4 N 0.7787(7) 0.4837(8) 0.9166(4)
C23_4 C 0.7848(6) 0.4972(6) 0.9687(4)
H19_3 H 0.7436 0.5028 0.9768
C24_4 C 0.7655(6) 0.3859(5) 0.8208(4)
H20_4 H 0.7267 0.3942 0.7886
H21_4 H 0.7870 0.3406 0.8191
H22_4 H 0.7478 0.3858 0.8494
C25_3 C 0.9767(5) 0.5910(5) 0.6190(4)
C26_4 C 0.7409(6) 0.3505(6) 0.5565(4)
H11_2 H 0.1123 0.7340 0.9900
S1_2 S 0.0255(2) 0.3401(2) 0.1266(3)
H11_3 H 0.6123 0.2340 0.9900
S1_3 S 0.5255(2) 0.1599(2) 0.6266(3)
N1_4 N 0.2811(3) 0.0620(3) 0.5820(2)
N5_4 N 0.4411(4) 0.0419(4) 0.6127(3)
C1_4 C 0.2165(5) 0.0500(5) 0.5857(4)
H1_4 H 0.2036 0.0035 0.5904
C2_4 C 0.1687(5) 0.1046(5) 0.5826(4)
H2_4 H 0.1254 0.0935 0.5864
C3_4 C 0.1823(5) 0.1745(5) 0.5740(4)
C4_4 C 0.2490(5) 0.1863(5) 0.5696(4)
H3_4 H 0.2620 0.2322 0.5635
C5_4 C 0.2960(5) 0.1303(4) 0.5744(4)
H4_4 H 0.3405 0.1404 0.5721
C6_4 C 0.1287(5) 0.2336(6) 0.5665(4)
C7_4 C 0.0915(6) 0.2356(5) 0.5949(4)
H5_4 H 0.0988 0.2000 0.6200
C9_4 C 0.0402(5) 0.3270(5) 0.6349(4)
H7_4 H 0.0779 0.3202 0.6662
C10_4 C 0.0360(5) 0.2903(5) 0.5921(4)
C12_4 C 0.1262(6) 0.2893(5) 0.5235(4)
H9_4 H 0.0921 0.3258 0.5227
H10_4 H 0.1725 0.3104 0.5311
H11_4 H 0.1123 0.2660 0.4900
C16_4 C 0.3853(9) 0.0109(8) 0.7536(4)
H14_4 H 0.4088 0.0461 0.7773
C17_4 C 0.3900(7) 0.0088(7) 0.7051(4)
H15_4 H 0.4162 0.0443 0.6962
H16_4 H 0.3838 0.0095 0.8308
H19_4 H 0.2436 0.0028 0.9768
C25_4 C 0.4767(5) 0.0910(5) 0.6190(4)
H17_4 H 0.4487 0.9957 0.0184
S1_4 S 0.0255(2) 0.6599(2) 0.6266(3)
N2_3 N 0.0694(4) 0.3879(4) 0.9099(3)
C8_5 C 0.0119(6) 0.3744(5) 0.8683(4)
H6_5 H 0.0071 0.4004 0.8382
N7_5 N 0.0183(6) 0.3018(6) 0.9516(5)
C11_5 C 0.0740(5) 0.3485(5) 0.9517(5)
H8_5 H 0.1147 0.3516 0.9815
Co2_2 Co 0.14501(5) 0.47329(5) 0.91299(4)
S1_5 S 0.4745(2) 0.1599(2) 0.8734(3)
N1_5 N 0.7189(3) 0.0620(3) 0.9180(2)
N4_3 N 0.6528(4) 0.0022(4) 0.4937(3)
N5_5 N 0.5589(4) 0.0419(4) 0.8873(3)
C1_5 C 0.7835(5) 0.0500(5) 0.9143(4)
H1_5 H 0.7964 0.0035 0.9096
C2_5 C 0.8313(5) 0.1046(5) 0.9174(4)
H2_5 H 0.8746 0.0935 0.9136
C3_5 C 0.8177(5) 0.1745(5) 0.9260(4)
C4_5 C 0.7510(5) 0.1863(5) 0.9304(4)
H3_5 H 0.7380 0.2322 0.9365
C5_5 C 0.7040(5) 0.1303(4) 0.9256(4)
H4_5 H 0.6595 0.1404 0.9279
C6_5 C 0.8713(5) 0.2336(6) 0.9335(4)
C7_5 C 0.9085(6) 0.2356(5) 0.9051(4)
H5_5 H 0.9012 0.2000 0.8800
C9_5 C 0.9598(5) 0.3270(5) 0.8651(4)
H7_5 H 0.9221 0.3202 0.8338
C10_5 C 0.9640(5) 0.2903(5) 0.9079(4)
C12_5 C 0.8738(6) 0.2893(5) 0.9765(4)
H9_5 H 0.9079 0.3258 0.9773
H10_5 H 0.8275 0.3104 0.9689
C16_5 C 0.6147(9) 0.0109(8) 0.7464(4)
H14_5 H 0.5912 0.0461 0.7227
C17_5 C 0.6100(7) 0.0088(7) 0.7949(4)
H15_5 H 0.5838 0.0443 0.8038
H16_5 H 0.6162 0.0095 0.6692
H19_5 H 0.7564 0.0028 0.5232
C25_5 C 0.5233(5) 0.0910(5) 0.8810(4)
Co3_3 Co 0.64501(5) 0.02671(5) 0.41299(4)
Co1_2 Co 0.64501(5) 0.97329(5) 0.91299(4)
S2_5 S 0.8073(4) 0.7784(3) 0.9453(2)
N3_5 N 0.6412(4) 0.9580(4) 0.8312(3)
N6_5 N 0.7251(4) 0.9015(4) 0.9393(3)
C13_5 C 0.6808(7) 0.9068(7) 0.8179(4)
H12_5 H 0.7027 0.8714 0.8421
C14_5 C 0.6888(8) 0.9063(9) 0.7706(5)
H13_5 H 0.7164 0.8709 0.7630
C15_5 C 0.6560(8) 0.9585(10) 0.7325(4)
C18_5 C 0.6810(6) 0.9428(7) 0.6712(7)
C19_5 C 0.6453(7) 0.9822(7) 0.6563(9)
C20_5 C 0.5955(5) 0.9937(6) 0.5082(4)
H17_5 H 0.5513 0.9957 0.4816
C21_5 C 0.5946(6) 0.9829(6) 0.5551(4)
H18_5 H 0.5520 0.9780 0.5615
C22_5 C 0.6601(9) 0.9790(7) 0.5951(5)
N8_5 N 0.7213(7) 0.9837(8) 0.5834(4)
C23_5 C 0.7152(6) 0.9972(6) 0.5313(4)
C24_5 C 0.7345(6) 0.8859(5) 0.6792(4)
H20_5 H 0.7733 0.8942 0.7114
H21_5 H 0.7130 0.8406 0.6809
H22_5 H 0.7522 0.8858 0.6506
C26_5 C 0.7591(6) 0.8505(6) 0.9435(4)
N9_3 N 0.5694(4) 0.8879(4) 0.9099(3)
N10_3 N 0.6528(4) 0.9978(4) 0.9937(3)
S2_6 S 0.3073(4) 0.2784(3) 0.9453(2)
N1_6 N 0.2189(3) 0.5620(3) 0.9180(2)
N3_6 N 0.1412(4) 0.4580(4) 0.8312(3)
N4_4 N 0.1528(4) 0.5022(4) 0.4937(3)
N5_6 N 0.0589(4) 0.5419(4) 0.8873(3)
N6_6 N 0.2251(4) 0.4015(4) 0.9393(3)
C1_6 C 0.2835(5) 0.5500(5) 0.9143(4)
H1_6 H 0.2964 0.5035 0.9096
C2_6 C 0.3313(5) 0.6046(5) 0.9174(4)
H2_6 H 0.3746 0.5935 0.9136
C3_6 C 0.3177(5) 0.6745(5) 0.9260(4)
C4_6 C 0.2510(5) 0.6863(5) 0.9304(4)
H3_6 H 0.2380 0.7322 0.9365
C5_6 C 0.2040(5) 0.6303(4) 0.9256(4)
H4_6 H 0.1595 0.6404 0.9279
C6_6 C 0.3713(5) 0.7336(6) 0.9335(4)
C7_6 C 0.4085(6) 0.7356(5) 0.9051(4)
H5_6 H 0.4012 0.7000 0.8800
C8_6 C 0.5119(6) 0.8744(5) 0.8683(4)
H6_6 H 0.5071 0.9004 0.8382
C9_6 C 0.4598(5) 0.8270(5) 0.8651(4)
H7_6 H 0.4221 0.8202 0.8338
C10_6 C 0.4640(5) 0.7903(5) 0.9079(4)
N7_6 N 0.5183(6) 0.8018(6) 0.9516(5)
C11_6 C 0.5740(5) 0.8485(5) 0.9517(5)
H8_6 H 0.6147 0.8516 0.9815
C12_6 C 0.3738(6) 0.7893(5) 0.9765(4)
H9_6 H 0.4079 0.8258 0.9773
H10_6 H 0.3275 0.8104 0.9689
C13_6 C 0.1808(7) 0.4068(7) 0.8179(4)
H12_6 H 0.2027 0.3714 0.8421
C14_6 C 0.1888(8) 0.4063(9) 0.7706(5)
H13_6 H 0.2164 0.3709 0.7630
C15_6 C 0.1560(8) 0.4585(10) 0.7325(4)
C16_6 C 0.1147(9) 0.5109(8) 0.7464(4)
H14_6 H 0.0912 0.5461 0.7227
C17_6 C 0.1100(7) 0.5088(7) 0.7949(4)
H15_6 H 0.0838 0.5443 0.8038
C18_6 C 0.1810(6) 0.4428(7) 0.6712(7)
C19_6 C 0.1453(7) 0.4822(7) 0.6563(9)
H16_6 H 0.1162 0.5095 0.6692
C20_6 C 0.0955(5) 0.4937(6) 0.5082(4)
H17_6 H 0.0513 0.4957 0.4816
C21_6 C 0.0946(6) 0.4829(6) 0.5551(4)
H18_6 H 0.0520 0.4780 0.5615
C22_6 C 0.1601(9) 0.4790(7) 0.5951(5)
N8_6 N 0.2213(7) 0.4837(8) 0.5834(4)
C23_6 C 0.2152(6) 0.4972(6) 0.5313(4)
H19_6 H 0.2564 0.5028 0.5232
C24_6 C 0.2345(6) 0.3859(5) 0.6792(4)
H20_6 H 0.2733 0.3942 0.7114
H21_6 H 0.2130 0.3406 0.6809
H22_6 H 0.2522 0.3858 0.6506
C25_6 C 0.0233(5) 0.5910(5) 0.8810(4)
C26_6 C 0.2591(6) 0.3505(6) 0.9435(4)
N10_4 N 0.1528(4) 0.4978(4) 0.9937(3)
Co3_4 Co 0.14501(5) 0.52671(5) 0.41299(4)
N2_4 N 0.0694(4) 0.6121(4) 0.4099(3)
C8_7 C 0.0119(6) 0.6256(5) 0.3683(4)
H6_7 H 0.0071 0.5996 0.3382
N7_7 N 0.0183(6) 0.6982(6) 0.4516(5)
C11_7 C 0.0740(5) 0.6515(5) 0.4517(5)
H8_7 H 0.1147 0.6484 0.4815
S2_7 S 0.8073(4) 0.2216(3) 0.4453(2)
N3_7 N 0.6412(4) 0.0420(4) 0.3312(3)
N6_7 N 0.7251(4) 0.0985(4) 0.4393(3)
C13_7 C 0.6808(7) 0.0932(7) 0.3179(4)
H12_7 H 0.7027 0.1286 0.3421
C14_7 C 0.6888(8) 0.0937(9) 0.2706(5)
H13_7 H 0.7164 0.1291 0.2630
C15_7 C 0.6560(8) 0.0415(10) 0.2325(4)
C18_7 C 0.6810(6) 0.0572(7) 0.1712(7)
C19_7 C 0.6453(7) 0.0178(7) 0.1563(9)
C20_7 C 0.5955(5) 0.0063(6) 0.0082(4)
C21_7 C 0.5946(6) 0.0171(6) 0.0551(4)
H18_7 H 0.5520 0.0220 0.0615
C22_7 C 0.6601(9) 0.0210(7) 0.0951(5)
N8_7 N 0.7213(7) 0.0163(8) 0.0834(4)
C23_7 C 0.7152(6) 0.0028(6) 0.0313(4)
C24_7 C 0.7345(6) 0.1141(5) 0.1792(4)
H20_7 H 0.7733 0.1058 0.2114
H21_7 H 0.7130 0.1594 0.1809
H22_7 H 0.7522 0.1142 0.1506
C26_7 C 0.7591(6) 0.1495(6) 0.4435(4)
N9_4 N 0.5694(4) 0.1121(4) 0.4099(3)
S2_8 S 0.3073(4) 0.7216(3) 0.4453(2)
N1_7 N 0.2189(3) 0.4380(3) 0.4180(2)
N3_8 N 0.1412(4) 0.5420(4) 0.3312(3)
N5_7 N 0.0589(4) 0.4581(4) 0.3873(3)
N6_8 N 0.2251(4) 0.5985(4) 0.4393(3)
C1_7 C 0.2835(5) 0.4500(5) 0.4143(4)
H1_7 H 0.2964 0.4965 0.4096
C2_7 C 0.3313(5) 0.3954(5) 0.4174(4)
H2_7 H 0.3746 0.4065 0.4136
C3_7 C 0.3177(5) 0.3255(5) 0.4260(4)
C4_7 C 0.2510(5) 0.3137(5) 0.4304(4)
H3_7 H 0.2380 0.2678 0.4365
C5_7 C 0.2040(5) 0.3697(4) 0.4256(4)
H4_7 H 0.1595 0.3596 0.4279
C6_7 C 0.3713(5) 0.2664(6) 0.4335(4)
C7_7 C 0.4085(6) 0.2644(5) 0.4051(4)
H5_7 H 0.4012 0.3000 0.3800
C8_8 C 0.5119(6) 0.1256(5) 0.3683(4)
H6_8 H 0.5071 0.0996 0.3382
C9_7 C 0.4598(5) 0.1730(5) 0.3651(4)
H7_7 H 0.4221 0.1798 0.3338
C10_7 C 0.4640(5) 0.2097(5) 0.4079(4)
N7_8 N 0.5183(6) 0.1982(6) 0.4516(5)
C11_8 C 0.5740(5) 0.1515(5) 0.4517(5)
H8_8 H 0.6147 0.1484 0.4815
C12_7 C 0.3738(6) 0.2107(5) 0.4765(4)
H9_7 H 0.4079 0.1742 0.4773
H10_7 H 0.3275 0.1896 0.4689
H11_5 H 0.3877 0.2340 0.5100
C13_8 C 0.1808(7) 0.5932(7) 0.3179(4)
H12_8 H 0.2027 0.6286 0.3421
C14_8 C 0.1888(8) 0.5937(9) 0.2706(5)
H13_8 H 0.2164 0.6291 0.2630
C15_8 C 0.1560(8) 0.5415(10) 0.2325(4)
C16_7 C 0.1147(9) 0.4891(8) 0.2464(4)
H14_7 H 0.0912 0.4539 0.2227
C17_7 C 0.1100(7) 0.4912(7) 0.2949(4)
H15_7 H 0.0838 0.4557 0.3038
C18_8 C 0.1810(6) 0.5572(7) 0.1712(7)
C19_8 C 0.1453(7) 0.5178(7) 0.1563(9)
H16_7 H 0.1162 0.4905 0.1692
C20_8 C 0.0955(5) 0.5063(6) 0.0082(4)
C21_8 C 0.0946(6) 0.5171(6) 0.0551(4)
H18_8 H 0.0520 0.5220 0.0615
C22_8 C 0.1601(9) 0.5210(7) 0.0951(5)
N8_8 N 0.2213(7) 0.5163(8) 0.0834(4)
C23_8 C 0.2152(6) 0.5028(6) 0.0313(4)
H19_7 H 0.2564 0.4972 0.0232
C24_8 C 0.2345(6) 0.6141(5) 0.1792(4)
H20_8 H 0.2733 0.6058 0.2114
H21_8 H 0.2130 0.6594 0.1809
H22_8 H 0.2522 0.6142 0.1506
C25_7 C 0.0233(5) 0.4090(5) 0.3810(4)
C26_8 C 0.2591(6) 0.6495(6) 0.4435(4)
H17_7 H 0.0513 0.5043 0.9816
H11_6 H 0.8877 0.2660 0.0100
H11_7 H 0.3877 0.7660 0.0100
S1_6 S 0.9745(2) 0.6599(2) 0.8734(3)
H17_8 H 0.5513 0.0043 0.9816
S1_7 S 0.4745(2) 0.8401(2) 0.3734(3)
N1_8 N 0.7189(3) 0.9380(3) 0.4180(2)
N5_8 N 0.5589(4) 0.9581(4) 0.3873(3)
C1_8 C 0.7835(5) 0.9500(5) 0.4143(4)
H1_8 H 0.7964 0.9965 0.4096
C2_8 C 0.8313(5) 0.8954(5) 0.4174(4)
H2_8 H 0.8746 0.9065 0.4136
C3_8 C 0.8177(5) 0.8255(5) 0.4260(4)
C4_8 C 0.7510(5) 0.8137(5) 0.4304(4)
H3_8 H 0.7380 0.7678 0.4365
C5_8 C 0.7040(5) 0.8697(4) 0.4256(4)
H4_8 H 0.6595 0.8596 0.4279
C6_8 C 0.8713(5) 0.7664(6) 0.4335(4)
C7_8 C 0.9085(6) 0.7644(5) 0.4051(4)
H5_8 H 0.9012 0.8000 0.3800
C9_8 C 0.9598(5) 0.6730(5) 0.3651(4)
H7_8 H 0.9221 0.6798 0.3338
C10_8 C 0.9640(5) 0.7097(5) 0.4079(4)
C12_8 C 0.8738(6) 0.7107(5) 0.4765(4)
H9_8 H 0.9079 0.6742 0.4773
H10_8 H 0.8275 0.6896 0.4689
H11_8 H 0.8877 0.7340 0.5100
C16_8 C 0.6147(9) 0.9891(8) 0.2464(4)
H14_8 H 0.5912 0.9539 0.2227
C17_8 C 0.6100(7) 0.9912(7) 0.2949(4)
H15_8 H 0.5838 0.9557 0.3038
H16_8 H 0.6162 0.9905 0.1692
H19_8 H 0.7564 0.9972 0.0232
C25_8 C 0.5233(5) 0.9090(5) 0.3810(4)
S1_8 S 0.9745(2) 0.3401(2) 0.3734(3)
Co4 Co 0.0000 0.11630(7) 0.2500
N11 N 0.0763(4) 0.1962(4) 0.2473(3)
N12 N 0.4287(3) 0.5304(3) 0.2547(3)
C27 C 0.1019(6) 0.2471(5) 0.2811(5)
H23 H 0.0833 0.2527 0.3078
C28 C 0.1555(7) 0.2935(6) 0.2795(7)
H24 H 0.1720 0.3286 0.3050
C29 C 0.1843(6) 0.2877(8) 0.2400(9)
C30 C 0.1587(5) 0.2375(6) 0.2072(7)
H25 H 0.1768 0.2304 0.1804
C31 C 0.1052(5) 0.1934(5) 0.2103(5)
H26 H 0.0881 0.1589 0.1843
C32 C 0.2470(13) 0.3398(9) 0.2239(8)
C33 C 0.2612(14) 0.3622(11) 0.2617(6)
C34 C 0.4119(7) 0.5116(6) 0.2944(5)
H27 H 0.4342 0.5375 0.3249
C35 C 0.3668(8) 0.4599(8) 0.2988(6)
H28 H 0.3611 0.4497 0.3306
C36 C 0.3304(5) 0.4240(6) 0.2543(6)
N14 N 0.3474(6) 0.4377(6) 0.2092(5)
C37 C 0.3953(6) 0.4918(6) 0.2135(5)
H29 H 0.4052 0.5025 0.1834
C38 C 0.2440(14) 0.3266(14) 0.1706(8)
S4 S 0.1441(2) 0.1381(2) 0.43046(14)
N18 N 0.0466(4) 0.1190(4) 0.3306(3)
C52 C 0.0872(5) 0.1269(4) 0.3720(4)
N20 N 0.0713(3) 0.0304(3) 0.2453(3)
Co5 Co 0.5000 0.61630(7) 0.2500
H37 H 0.190961 0.339663 0.143494
H38 H 0.283456 0.359695 0.162031
H39 H 0.255332 0.270539 0.166289
H40 H 0.242007 0.352545 0.294035
Co4_2 Co 1.0000 0.11630(7) 0.2500
S3 S 0.8559(2) 0.1381(2) 0.06954(14)
N13 N 0.9534(4) 0.1190(4) 0.1694(3)
C39 C 0.9128(5) 0.1269(4) 0.1280(4)
N15 N 0.9237(4) 0.1962(4) 0.2527(3)
N16 N 0.5713(3) 0.5304(3) 0.2453(3)
C40 C 0.8981(6) 0.2471(5) 0.2189(5)
H30 H 0.9167 0.2527 0.1922
C41 C 0.8445(7) 0.2935(6) 0.2205(7)
H31 H 0.8280 0.3286 0.1950
C42 C 0.8157(6) 0.2877(8) 0.2600(9)
C43 C 0.8413(5) 0.2375(6) 0.2928(7)
H32 H 0.8232 0.2304 0.3196
C44 C 0.8948(5) 0.1934(5) 0.2897(5)
H33 H 0.9119 0.1589 0.3157
C45 C 0.7530(13) 0.3398(9) 0.2761(8)
C46 C 0.7388(14) 0.3622(11) 0.2383(6)
C47 C 0.5881(7) 0.5116(6) 0.2056(5)
H34 H 0.5658 0.5375 0.1751
C48 C 0.6332(8) 0.4599(8) 0.2012(6)
H35 H 0.6389 0.4497 0.1694
C49 C 0.6696(5) 0.4240(6) 0.2457(6)
N17 N 0.6526(6) 0.4377(6) 0.2908(5)
C50 C 0.6047(6) 0.4918(6) 0.2865(5)
H36 H 0.5948 0.5025 0.3166
C51 C 0.7560(14) 0.3266(14) 0.3294(8)
N19 N 0.9287(3) 0.0304(3) 0.2547(3)
H41 H 0.757993 0.352545 0.205965
H42 H 0.809039 0.339663 0.356506
H43 H 0.716544 0.359695 0.337969
H44 H 0.744668 0.270539 0.333711
C34_2 C 0.9119(7) 0.0116(6) 0.2944(5)
H27_2 H 0.9342 0.0375 0.3249
H29_2 H 0.9052 0.0025 0.1834
C47_2 C 0.0881(7) 0.0116(6) 0.2056(5)
H34_2 H 0.0658 0.0375 0.1751
H36_2 H 0.0948 0.0025 0.3166
S3_2 S 0.3559(2) 0.6381(2) 0.06954(14)
N11_2 N 0.5763(4) 0.6962(4) 0.2473(3)
N13_2 N 0.4534(4) 0.6190(4) 0.1694(3)
C27_2 C 0.6019(6) 0.7471(5) 0.2811(5)
H23_2 H 0.5833 0.7527 0.3078
C28_2 C 0.6555(7) 0.7935(6) 0.2795(7)
H24_2 H 0.6720 0.8286 0.3050
C29_2 C 0.6843(6) 0.7877(8) 0.2400(9)
C30_2 C 0.6587(5) 0.7375(6) 0.2072(7)
H25_2 H 0.6768 0.7304 0.1804
C31_2 C 0.6052(5) 0.6934(5) 0.2103(5)
H26_2 H 0.5881 0.6589 0.1843
C32_2 C 0.7470(13) 0.8398(9) 0.2239(8)
C33_2 C 0.7612(14) 0.8622(11) 0.2617(6)
C35_2 C 0.8668(8) 0.9599(8) 0.2988(6)
H28_2 H 0.8611 0.9497 0.3306
C36_2 C 0.8304(5) 0.9240(6) 0.2543(6)
N14_2 N 0.8474(6) 0.9377(6) 0.2092(5)
C37_2 C 0.8953(6) 0.9918(6) 0.2135(5)
C38_2 C 0.7440(14) 0.8266(14) 0.1706(8)
C39_2 C 0.4128(5) 0.6269(4) 0.1280(4)
N15_2 N 0.4237(4) 0.6962(4) 0.2527(3)
C40_2 C 0.3981(6) 0.7471(5) 0.2189(5)
H30_2 H 0.4167 0.7527 0.1922
C41_2 C 0.3445(7) 0.7935(6) 0.2205(7)
H31_2 H 0.3280 0.8286 0.1950
C42_2 C 0.3157(6) 0.7877(8) 0.2600(9)
C43_2 C 0.3413(5) 0.7375(6) 0.2928(7)
H32_2 H 0.3232 0.7304 0.3196
C44_2 C 0.3948(5) 0.6934(5) 0.2897(5)
H33_2 H 0.4119 0.6589 0.3157
C45_2 C 0.2530(13) 0.8398(9) 0.2761(8)
C46_2 C 0.2388(14) 0.8622(11) 0.2383(6)
C48_2 C 0.1332(8) 0.9599(8) 0.2012(6)
H35_2 H 0.1389 0.9497 0.1694
C49_2 C 0.1696(5) 0.9240(6) 0.2457(6)
N17_2 N 0.1526(6) 0.9377(6) 0.2908(5)
C50_2 C 0.1047(6) 0.9918(6) 0.2865(5)
C51_2 C 0.2560(14) 0.8266(14) 0.3294(8)
S4_2 S 0.6441(2) 0.6381(2) 0.43046(14)
N18_2 N 0.5466(4) 0.6190(4) 0.3306(3)
C52_2 C 0.5872(5) 0.6269(4) 0.3720(4)
H37_2 H 0.690961 0.839663 0.143494
H38_2 H 0.783456 0.859695 0.162031
H39_2 H 0.755332 0.770539 0.166289
H40_2 H 0.742007 0.852545 0.294035
H41_2 H 0.257993 0.852545 0.205965
H42_2 H 0.309039 0.839663 0.356506
H43_2 H 0.216544 0.859695 0.337969
H44_2 H 0.244668 0.770539 0.333711
Co4_3 Co 0.0000 0.88370(7) 0.7500
N11_3 N 0.0763(4) 0.8038(4) 0.7473(3)
N12_2 N 0.4287(3) 0.4696(3) 0.7547(3)
C27_3 C 0.1019(6) 0.7529(5) 0.7811(5)
H23_3 H 0.0833 0.7473 0.8078
C28_3 C 0.1555(7) 0.7065(6) 0.7795(7)
H24_3 H 0.1720 0.6714 0.8050
C29_3 C 0.1843(6) 0.7123(8) 0.7400(9)
C30_3 C 0.1587(5) 0.7625(6) 0.7072(7)
H25_3 H 0.1768 0.7696 0.6804
C31_3 C 0.1052(5) 0.8066(5) 0.7103(5)
H26_3 H 0.0881 0.8411 0.6843
C32_3 C 0.2470(13) 0.6602(9) 0.7239(8)
C33_3 C 0.2612(14) 0.6378(11) 0.7617(6)
C34_3 C 0.4119(7) 0.4884(6) 0.7944(5)
H27_3 H 0.4342 0.4625 0.8249
C35_3 C 0.3668(8) 0.5401(8) 0.7988(6)
H28_3 H 0.3611 0.5503 0.8306
C36_3 C 0.3304(5) 0.5760(6) 0.7543(6)
N14_3 N 0.3474(6) 0.5623(6) 0.7092(5)
C37_3 C 0.3953(6) 0.5082(6) 0.7135(5)
H29_3 H 0.4052 0.4975 0.6834
C38_3 C 0.2440(14) 0.6734(14) 0.6706(8)
S4_3 S 0.1441(2) 0.8619(2) 0.93046(14)
N18_3 N 0.0466(4) 0.8810(4) 0.8306(3)
C52_3 C 0.0872(5) 0.8731(4) 0.8720(4)
N20_2 N 0.0713(3) 0.9696(3) 0.7453(3)
Co5_2 Co 0.5000 0.38370(7) 0.7500
H37_3 H 0.190961 0.660337 0.643494
H38_3 H 0.283456 0.640305 0.662031
H39_3 H 0.255332 0.729461 0.666289
H40_3 H 0.242007 0.647455 0.794035
Co4_4 Co 1.0000 0.88370(7) 0.7500
S3_3 S 0.8559(2) 0.8619(2) 0.56954(14)
N13_3 N 0.9534(4) 0.8810(4) 0.6694(3)
C39_3 C 0.9128(5) 0.8731(4) 0.6280(4)
N15_3 N 0.9237(4) 0.8038(4) 0.7527(3)
N16_2 N 0.5713(3) 0.4696(3) 0.7453(3)
C40_3 C 0.8981(6) 0.7529(5) 0.7189(5)
H30_3 H 0.9167 0.7473 0.6922
C41_3 C 0.8445(7) 0.7065(6) 0.7205(7)
H31_3 H 0.8280 0.6714 0.6950
C42_3 C 0.8157(6) 0.7123(8) 0.7600(9)
C43_3 C 0.8413(5) 0.7625(6) 0.7928(7)
H32_3 H 0.8232 0.7696 0.8196
C44_3 C 0.8948(5) 0.8066(5) 0.7897(5)
H33_3 H 0.9119 0.8411 0.8157
C45_3 C 0.7530(13) 0.6602(9) 0.7761(8)
C46_3 C 0.7388(14) 0.6378(11) 0.7383(6)
C47_3 C 0.5881(7) 0.4884(6) 0.7056(5)
H34_3 H 0.5658 0.4625 0.6751
C48_3 C 0.6332(8) 0.5401(8) 0.7012(6)
H35_3 H 0.6389 0.5503 0.6694
C49_3 C 0.6696(5) 0.5760(6) 0.7457(6)
N17_3 N 0.6526(6) 0.5623(6) 0.7908(5)
C50_3 C 0.6047(6) 0.5082(6) 0.7865(5)
H36_3 H 0.5948 0.4975 0.8166
C51_3 C 0.7560(14) 0.6734(14) 0.8294(8)
N19_2 N 0.9287(3) 0.9696(3) 0.7547(3)
H41_3 H 0.757993 0.647455 0.705965
H42_3 H 0.809039 0.660337 0.856506
H43_3 H 0.716544 0.640305 0.837969
H44_3 H 0.744668 0.729461 0.833711
S3_4 S 0.3559(2) 0.3619(2) 0.56954(14)
N11_4 N 0.5763(4) 0.3038(4) 0.7473(3)
N13_4 N 0.4534(4) 0.3810(4) 0.6694(3)
C27_4 C 0.6019(6) 0.2529(5) 0.7811(5)
H23_4 H 0.5833 0.2473 0.8078
C28_4 C 0.6555(7) 0.2065(6) 0.7795(7)
H24_4 H 0.6720 0.1714 0.8050
C29_4 C 0.6843(6) 0.2123(8) 0.7400(9)
C30_4 C 0.6587(5) 0.2625(6) 0.7072(7)
H25_4 H 0.6768 0.2696 0.6804
C31_4 C 0.6052(5) 0.3066(5) 0.7103(5)
H26_4 H 0.5881 0.3411 0.6843
C32_4 C 0.7470(13) 0.1602(9) 0.7239(8)
C33_4 C 0.7612(14) 0.1378(11) 0.7617(6)
C35_4 C 0.8668(8) 0.0401(8) 0.7988(6)
H28_4 H 0.8611 0.0503 0.8306
C36_4 C 0.8304(5) 0.0760(6) 0.7543(6)
N14_4 N 0.8474(6) 0.0623(6) 0.7092(5)
C37_4 C 0.8953(6) 0.0082(6) 0.7135(5)
C38_4 C 0.7440(14) 0.1734(14) 0.6706(8)
C39_4 C 0.4128(5) 0.3731(4) 0.6280(4)
N15_4 N 0.4237(4) 0.3038(4) 0.7527(3)
C40_4 C 0.3981(6) 0.2529(5) 0.7189(5)
H30_4 H 0.4167 0.2473 0.6922
C41_4 C 0.3445(7) 0.2065(6) 0.7205(7)
H31_4 H 0.3280 0.1714 0.6950
C42_4 C 0.3157(6) 0.2123(8) 0.7600(9)
C43_4 C 0.3413(5) 0.2625(6) 0.7928(7)
H32_4 H 0.3232 0.2696 0.8196
C44_4 C 0.3948(5) 0.3066(5) 0.7897(5)
H33_4 H 0.4119 0.3411 0.8157
C45_4 C 0.2530(13) 0.1602(9) 0.7761(8)
C46_4 C 0.2388(14) 0.1378(11) 0.7383(6)
C48_4 C 0.1332(8) 0.0401(8) 0.7012(6)
H35_4 H 0.1389 0.0503 0.6694
C49_4 C 0.1696(5) 0.0760(6) 0.7457(6)
N17_4 N 0.1526(6) 0.0623(6) 0.7908(5)
C50_4 C 0.1047(6) 0.0082(6) 0.7865(5)
C51_4 C 0.2560(14) 0.1734(14) 0.8294(8)
S4_4 S 0.6441(2) 0.3619(2) 0.93046(14)
N18_4 N 0.5466(4) 0.3810(4) 0.8306(3)
C52_4 C 0.5872(5) 0.3731(4) 0.8720(4)
H37_4 H 0.690961 0.160337 0.643494
H38_4 H 0.783456 0.140305 0.662031
H39_4 H 0.755332 0.229461 0.666289
H40_4 H 0.742007 0.147455 0.794035
H41_4 H 0.257993 0.147455 0.705965
H42_4 H 0.309039 0.160337 0.856506
H43_4 H 0.216544 0.140305 0.837969
H44_4 H 0.244668 0.229461 0.833711
C34_4 C 0.9119(7) 0.9884(6) 0.7944(5)
H27_4 H 0.9342 0.9625 0.8249
H29_4 H 0.9052 0.9975 0.6834
C47_4 C 0.0881(7) 0.9884(6) 0.7056(5)
H34_4 H 0.0658 0.9625 0.6751
H36_4 H 0.0948 0.9975 0.8166
loop_
_geom_bond_atom_site_label_1
_geom_bond_atom_site_label_2
_geom_bond_site_symmetry_1
_geom_bond_site_symmetry_2
S2 C26 1_555 1_555
N3 Co1 1_555 1_555
N6 Co1 1_555 1_555
C13 N3 1_555 1_555
H12 C13 1_555 1_555
C14 C13 1_555 1_555
H13 C14 1_555 1_555
C15 C14 1_555 1_555
C18 C15 1_555 1_555
C19 C18 1_555 1_555
C20 H17 1_555 1_555
C21 C20 1_555 1_555
H18 C21 1_555 1_555
C22 C19 1_555 1_555
N8 C22 1_555 1_555
C24 C18 1_555 1_555
H20 C24 1_555 1_555
H21 C24 1_555 1_555
H22 C24 1_555 1_555
C26 N6 1_555 1_555
N9 Co1 1_555 1_555
N10 Co1 1_555 1_555
C21 C22 1_555 1_555
N8 C23 1_555 1_555
S1 C25 1_555 1_555
N1 C1 1_555 1_555
C1 H1 1_555 1_555
C2 C1 1_555 1_555
H2 C2 1_555 1_555
C3 C2 1_555 1_555
C4 C3 1_555 1_555
H3 C4 1_555 1_555
C5 N1 1_555 1_555
H4 C5 1_555 1_555
C6 C3 1_555 1_555
C7 C6 1_555 1_555
H5 C7 1_555 1_555
H7 C9 1_555 1_555
C10 C7 1_555 1_555
C12 C6 1_555 1_555
H9 C12 1_555 1_555
H10 C12 1_555 1_555
H14 C16 1_555 1_555
H15 C17 1_555 1_555
C25 N5 1_555 1_555
Co3 N4 1_555 1_555
C4 C5 1_555 1_555
C9 C10 1_555 1_555
C16 C17 1_555 1_555
N2 C8 1_555 1_555
C8 H6 1_555 1_555
C11 N2 1_555 1_555
H8 C11 1_555 1_555
Co2 N2 1_555 1_555
N7 C11 1_555 1_555
Co2 N1_2 1_555 1_555
S2_2 C26_2 1_555 1_555
N1_2 C1_2 1_555 1_555
N9 C8_2 1_555 1_555
N3_2 Co2 1_555 1_555
N4_2 C20_2 1_555 1_555
N5_2 Co2 1_555 1_555
N6_2 Co2 1_555 1_555
C1_2 H1_2 1_555 1_555
C2_2 C1_2 1_555 1_555
H2_2 C2_2 1_555 1_555
C3_2 C2_2 1_555 1_555
C4_2 C3_2 1_555 1_555
H3_2 C4_2 1_555 1_555
C5_2 N1_2 1_555 1_555
H4_2 C5_2 1_555 1_555
C6_2 C3_2 1_555 1_555
C7_2 C6_2 1_555 1_555
H5_2 C7_2 1_555 1_555
C8_2 H6_2 1_555 1_555
C9_2 C8_2 1_555 1_555
H7_2 C9_2 1_555 1_555
C10_2 C7_2 1_555 1_555
N7_2 C10_2 1_555 1_555
C11_2 N9 1_555 1_555
H8_2 C11_2 1_555 1_555
C12_2 C6_2 1_555 1_555
H9_2 C12_2 1_555 1_555
H10_2 C12_2 1_555 1_555
C13_2 N3_2 1_555 1_555
H12_2 C13_2 1_555 1_555
C14_2 C13_2 1_555 1_555
H13_2 C14_2 1_555 1_555
C15_2 C14_2 1_555 1_555
C16_2 C15_2 1_555 1_555
H14_2 C16_2 1_555 1_555
C17_2 N3_2 1_555 1_555
H15_2 C17_2 1_555 1_555
C18_2 C15_2 1_555 1_555
C19_2 C18_2 1_555 1_555
H16_2 C19_2 1_555 1_555
C20_2 H17_2 1_555 1_555
C21_2 C20_2 1_555 1_555
H18_2 C21_2 1_555 1_555
C22_2 C19_2 1_555 1_555
N8_2 C22_2 1_555 1_555
C23_2 N4_2 1_555 1_555
H19_2 C23_2 1_555 1_555
C24_2 C18_2 1_555 1_555
H20_2 C24_2 1_555 1_555
H21_2 C24_2 1_555 1_555
H22_2 C24_2 1_555 1_555
C25_2 N5_2 1_555 1_555
C26_2 N6_2 1_555 1_555
N10_2 Co2 1_555 1_555
Co3_2 N4_2 1_555 1_555
C4_2 C5_2 1_555 1_555
C9_2 C10_2 1_555 1_555
N7_2 C11_2 1_555 1_555
C16_2 C17_2 1_555 1_555
C21_2 C22_2 1_555 1_555
N8_2 C23_2 1_555 1_555
S2_3 C26_3 1_555 1_555
N3_3 Co3 1_555 1_555
N6_3 Co3 1_555 1_555
C13_3 N3_3 1_555 1_555
H12_3 C13_3 1_555 1_555
C14_3 C13_3 1_555 1_555
H13_3 C14_3 1_555 1_555
C15_3 C14_3 1_555 1_555
C18_3 C15_3 1_555 1_555
C19_3 C18_3 1_555 1_555
C21_3 C20_3 1_555 1_555
H18_3 C21_3 1_555 1_555
C22_3 C19_3 1_555 1_555
N8_3 C22_3 1_555 1_555
C24_3 C18_3 1_555 1_555
H20_3 C24_3 1_555 1_555
H21_3 C24_3 1_555 1_555
H22_3 C24_3 1_555 1_555
C26_3 N6_3 1_555 1_555
N9_2 Co3 1_555 1_555
C21_3 C22_3 1_555 1_555
N8_3 C23_3 1_555 1_555
N2_2 C8_3 1_555 1_555
C8_3 H6_3 1_555 1_555
C11_3 N2_2 1_555 1_555
H8_3 C11_3 1_555 1_555
Co3_2 N2_2 1_555 1_555
N7_3 C11_3 1_555 1_555
Co3_2 N1_3 1_555 1_555
S2_4 C26_4 1_555 1_555
N1_3 C1_3 1_555 1_555
N9_2 C8_4 1_555 1_555
N3_4 Co3_2 1_555 1_555
N5_3 Co3_2 1_555 1_555
N6_4 Co3_2 1_555 1_555
C1_3 H1_3 1_555 1_555
C2_3 C1_3 1_555 1_555
H2_3 C2_3 1_555 1_555
C3_3 C2_3 1_555 1_555
C4_3 C3_3 1_555 1_555
H3_3 C4_3 1_555 1_555
C5_3 N1_3 1_555 1_555
H4_3 C5_3 1_555 1_555
C6_3 C3_3 1_555 1_555
C7_3 C6_3 1_555 1_555
H5_3 C7_3 1_555 1_555
C8_4 H6_4 1_555 1_555
C9_3 C8_4 1_555 1_555
H7_3 C9_3 1_555 1_555
C10_3 C7_3 1_555 1_555
N7_4 C10_3 1_555 1_555
C11_4 N9_2 1_555 1_555
H8_4 C11_4 1_555 1_555
C12_3 C6_3 1_555 1_555
H9_3 C12_3 1_555 1_555
H10_3 C12_3 1_555 1_555
H11 C12_3 1_555 1_555
C13_4 N3_4 1_555 1_555
H12_4 C13_4 1_555 1_555
C14_4 C13_4 1_555 1_555
H13_4 C14_4 1_555 1_555
C15_4 C14_4 1_555 1_555
C16_3 C15_4 1_555 1_555
H14_3 C16_3 1_555 1_555
C17_3 N3_4 1_555 1_555
H15_3 C17_3 1_555 1_555
C18_4 C15_4 1_555 1_555
C19_4 C18_4 1_555 1_555
H16_3 C19_4 1_555 1_555
C21_4 C20_4 1_555 1_555
H18_4 C21_4 1_555 1_555
C22_4 C19_4 1_555 1_555
N8_4 C22_4 1_555 1_555
H19_3 C23_4 1_555 1_555
C24_4 C18_4 1_555 1_555
H20_4 C24_4 1_555 1_555
H21_4 C24_4 1_555 1_555
H22_4 C24_4 1_555 1_555
C25_3 N5_3 1_555 1_555
C26_4 N6_4 1_555 1_555
C4_3 C5_3 1_555 1_555
C9_3 C10_3 1_555 1_555
N7_4 C11_4 1_555 1_555
C16_3 C17_3 1_555 1_555
C21_4 C22_4 1_555 1_555
N8_4 C23_4 1_555 1_555
S1_3 C25_4 1_555 1_555
N1_4 C1_4 1_555 1_555
C1_4 H1_4 1_555 1_555
C2_4 C1_4 1_555 1_555
H2_4 C2_4 1_555 1_555
C3_4 C2_4 1_555 1_555
C4_4 C3_4 1_555 1_555
H3_4 C4_4 1_555 1_555
C5_4 N1_4 1_555 1_555
H4_4 C5_4 1_555 1_555
C6_4 C3_4 1_555 1_555
C7_4 C6_4 1_555 1_555
H5_4 C7_4 1_555 1_555
H7_4 C9_4 1_555 1_555
C10_4 C7_4 1_555 1_555
C12_4 C6_4 1_555 1_555
H9_4 C12_4 1_555 1_555
H10_4 C12_4 1_555 1_555
H11_4 C12_4 1_555 1_555
H14_4 C16_4 1_555 1_555
H15_4 C17_4 1_555 1_555
C25_4 N5_4 1_555 1_555
C4_4 C5_4 1_555 1_555
C9_4 C10_4 1_555 1_555
C16_4 C17_4 1_555 1_555
N2_3 C8_5 1_555 1_555
C8_5 H6_5 1_555 1_555
C11_5 N2_3 1_555 1_555
H8_5 C11_5 1_555 1_555
Co2_2 N2_3 1_555 1_555
N7_5 C11_5 1_555 1_555
S1_5 C25_5 1_555 1_555
N1_5 C1_5 1_555 1_555
C1_5 H1_5 1_555 1_555
C2_5 C1_5 1_555 1_555
H2_5 C2_5 1_555 1_555
C3_5 C2_5 1_555 1_555
C4_5 C3_5 1_555 1_555
H3_5 C4_5 1_555 1_555
C5_5 N1_5 1_555 1_555
H4_5 C5_5 1_555 1_555
C6_5 C3_5 1_555 1_555
C7_5 C6_5 1_555 1_555
H5_5 C7_5 1_555 1_555
H7_5 C9_5 1_555 1_555
C10_5 C7_5 1_555 1_555
C12_5 C6_5 1_555 1_555
H9_5 C12_5 1_555 1_555
H10_5 C12_5 1_555 1_555
H14_5 C16_5 1_555 1_555
H15_5 C17_5 1_555 1_555
C25_5 N5_5 1_555 1_555
Co3_3 N4_3 1_555 1_555
C4_5 C5_5 1_555 1_555
C9_5 C10_5 1_555 1_555
C16_5 C17_5 1_555 1_555
S2_5 C26_5 1_555 1_555
N3_5 Co1_2 1_555 1_555
N6_5 Co1_2 1_555 1_555
C13_5 N3_5 1_555 1_555
H12_5 C13_5 1_555 1_555
C14_5 C13_5 1_555 1_555
H13_5 C14_5 1_555 1_555
C15_5 C14_5 1_555 1_555
C18_5 C15_5 1_555 1_555
C19_5 C18_5 1_555 1_555
C20_5 H17_5 1_555 1_555
C21_5 C20_5 1_555 1_555
H18_5 C21_5 1_555 1_555
C22_5 C19_5 1_555 1_555
N8_5 C22_5 1_555 1_555
C24_5 C18_5 1_555 1_555
H20_5 C24_5 1_555 1_555
H21_5 C24_5 1_555 1_555
H22_5 C24_5 1_555 1_555
C26_5 N6_5 1_555 1_555
N9_3 Co1_2 1_555 1_555
N10_3 Co1_2 1_555 1_555
C21_5 C22_5 1_555 1_555
N8_5 C23_5 1_555 1_555
Co2_2 N1_6 1_555 1_555
S2_6 C26_6 1_555 1_555
N1_6 C1_6 1_555 1_555
N9_3 C8_6 1_555 1_555
N3_6 Co2_2 1_555 1_555
N4_4 C20_6 1_555 1_555
N5_6 Co2_2 1_555 1_555
N6_6 Co2_2 1_555 1_555
C1_6 H1_6 1_555 1_555
C2_6 C1_6 1_555 1_555
H2_6 C2_6 1_555 1_555
C3_6 C2_6 1_555 1_555
C4_6 C3_6 1_555 1_555
H3_6 C4_6 1_555 1_555
C5_6 N1_6 1_555 1_555
H4_6 C5_6 1_555 1_555
C6_6 C3_6 1_555 1_555
C7_6 C6_6 1_555 1_555
H5_6 C7_6 1_555 1_555
C8_6 H6_6 1_555 1_555
C9_6 C8_6 1_555 1_555
H7_6 C9_6 1_555 1_555
C10_6 C7_6 1_555 1_555
N7_6 C10_6 1_555 1_555
C11_6 N9_3 1_555 1_555
H8_6 C11_6 1_555 1_555
C12_6 C6_6 1_555 1_555
H9_6 C12_6 1_555 1_555
H10_6 C12_6 1_555 1_555
C13_6 N3_6 1_555 1_555
H12_6 C13_6 1_555 1_555
C14_6 C13_6 1_555 1_555
H13_6 C14_6 1_555 1_555
C15_6 C14_6 1_555 1_555
C16_6 C15_6 1_555 1_555
H14_6 C16_6 1_555 1_555
C17_6 N3_6 1_555 1_555
H15_6 C17_6 1_555 1_555
C18_6 C15_6 1_555 1_555
C19_6 C18_6 1_555 1_555
H16_6 C19_6 1_555 1_555
C20_6 H17_6 1_555 1_555
C21_6 C20_6 1_555 1_555
H18_6 C21_6 1_555 1_555
C22_6 C19_6 1_555 1_555
N8_6 C22_6 1_555 1_555
C23_6 N4_4 1_555 1_555
H19_6 C23_6 1_555 1_555
C24_6 C18_6 1_555 1_555
H20_6 C24_6 1_555 1_555
H21_6 C24_6 1_555 1_555
H22_6 C24_6 1_555 1_555
C25_6 N5_6 1_555 1_555
C26_6 N6_6 1_555 1_555
N10_4 Co2_2 1_555 1_555
Co3_4 N4_4 1_555 1_555
C4_6 C5_6 1_555 1_555
C9_6 C10_6 1_555 1_555
N7_6 C11_6 1_555 1_555
C16_6 C17_6 1_555 1_555
C21_6 C22_6 1_555 1_555
N8_6 C23_6 1_555 1_555
N2_4 C8_7 1_555 1_555
C8_7 H6_7 1_555 1_555
C11_7 N2_4 1_555 1_555
H8_7 C11_7 1_555 1_555
Co3_4 N2_4 1_555 1_555
N7_7 C11_7 1_555 1_555
S2_7 C26_7 1_555 1_555
N3_7 Co3_3 1_555 1_555
N6_7 Co3_3 1_555 1_555
C13_7 N3_7 1_555 1_555
H12_7 C13_7 1_555 1_555
C14_7 C13_7 1_555 1_555
H13_7 C14_7 1_555 1_555
C15_7 C14_7 1_555 1_555
C18_7 C15_7 1_555 1_555
C19_7 C18_7 1_555 1_555
C21_7 C20_7 1_555 1_555
H18_7 C21_7 1_555 1_555
C22_7 C19_7 1_555 1_555
N8_7 C22_7 1_555 1_555
C24_7 C18_7 1_555 1_555
H20_7 C24_7 1_555 1_555
H21_7 C24_7 1_555 1_555
H22_7 C24_7 1_555 1_555
C26_7 N6_7 1_555 1_555
N9_4 Co3_3 1_555 1_555
C21_7 C22_7 1_555 1_555
N8_7 C23_7 1_555 1_555
Co3_4 N1_7 1_555 1_555
S2_8 C26_8 1_555 1_555
N1_7 C1_7 1_555 1_555
N9_4 C8_8 1_555 1_555
N3_8 Co3_4 1_555 1_555
N5_7 Co3_4 1_555 1_555
N6_8 Co3_4 1_555 1_555
C1_7 H1_7 1_555 1_555
C2_7 C1_7 1_555 1_555
H2_7 C2_7 1_555 1_555
C3_7 C2_7 1_555 1_555
C4_7 C3_7 1_555 1_555
H3_7 C4_7 1_555 1_555
C5_7 N1_7 1_555 1_555
H4_7 C5_7 1_555 1_555
C6_7 C3_7 1_555 1_555
C7_7 C6_7 1_555 1_555
H5_7 C7_7 1_555 1_555
C8_8 H6_8 1_555 1_555
C9_7 C8_8 1_555 1_555
H7_7 C9_7 1_555 1_555
C10_7 C7_7 1_555 1_555
N7_8 C10_7 1_555 1_555
C11_8 N9_4 1_555 1_555
H8_8 C11_8 1_555 1_555
C12_7 C6_7 1_555 1_555
H9_7 C12_7 1_555 1_555
H10_7 C12_7 1_555 1_555
H11_5 C12_7 1_555 1_555
C13_8 N3_8 1_555 1_555
H12_8 C13_8 1_555 1_555
C14_8 C13_8 1_555 1_555
H13_8 C14_8 1_555 1_555
C15_8 C14_8 1_555 1_555
C16_7 C15_8 1_555 1_555
H14_7 C16_7 1_555 1_555
C17_7 N3_8 1_555 1_555
H15_7 C17_7 1_555 1_555
C18_8 C15_8 1_555 1_555
C19_8 C18_8 1_555 1_555
H16_7 C19_8 1_555 1_555
C21_8 C20_8 1_555 1_555
H18_8 C21_8 1_555 1_555
C22_8 C19_8 1_555 1_555
N8_8 C22_8 1_555 1_555
H19_7 C23_8 1_555 1_555
C24_8 C18_8 1_555 1_555
H20_8 C24_8 1_555 1_555
H21_8 C24_8 1_555 1_555
H22_8 C24_8 1_555 1_555
C25_7 N5_7 1_555 1_555
C26_8 N6_8 1_555 1_555
C4_7 C5_7 1_555 1_555
C9_7 C10_7 1_555 1_555
N7_8 C11_8 1_555 1_555
C16_7 C17_7 1_555 1_555
C21_8 C22_8 1_555 1_555
N8_8 C23_8 1_555 1_555
S1_7 C25_8 1_555 1_555
N1_8 C1_8 1_555 1_555
C1_8 H1_8 1_555 1_555
C2_8 C1_8 1_555 1_555
H2_8 C2_8 1_555 1_555
C3_8 C2_8 1_555 1_555
C4_8 C3_8 1_555 1_555
H3_8 C4_8 1_555 1_555
C5_8 N1_8 1_555 1_555
H4_8 C5_8 1_555 1_555
C6_8 C3_8 1_555 1_555
C7_8 C6_8 1_555 1_555
H5_8 C7_8 1_555 1_555
H7_8 C9_8 1_555 1_555
C10_8 C7_8 1_555 1_555
C12_8 C6_8 1_555 1_555
H9_8 C12_8 1_555 1_555
H10_8 C12_8 1_555 1_555
H11_8 C12_8 1_555 1_555
H14_8 C16_8 1_555 1_555
H15_8 C17_8 1_555 1_555
C25_8 N5_8 1_555 1_555
C4_8 C5_8 1_555 1_555
C9_8 C10_8 1_555 1_555
C16_8 C17_8 1_555 1_555
Co4 N11 1_555 1_555
N11 C27 1_555 1_555
N12 C34 1_555 1_555
C27 H23 1_555 1_555
C28 C27 1_555 1_555
H24 C28 1_555 1_555
C29 C28 1_555 1_555
C30 C29 1_555 1_555
H25 C30 1_555 1_555
C31 N11 1_555 1_555
H26 C31 1_555 1_555
C32 C29 1_555 1_555
C33 C32 1_555 1_555
C34 H27 1_555 1_555
C35 C34 1_555 1_555
H28 C35 1_555 1_555
C36 C33 1_555 1_555
N14 C36 1_555 1_555
C37 N12 1_555 1_555
H29 C37 1_555 1_555
C38 C32 1_555 1_555
S4 C52 1_555 1_555
N18 Co4 1_555 1_555
C52 N18 1_555 1_555
N20 Co4 1_555 1_555
Co5 N12 1_555 1_555
C30 C31 1_555 1_555
C35 C36 1_555 1_555
N14 C37 1_555 1_555
C38 H37 1_555 1_555
C38 H38 1_555 1_555
C38 H39 1_555 1_555
C33 H40 1_555 1_555
S3 C39 1_555 1_555
N13 Co4_2 1_555 1_555
C39 N13 1_555 1_555
N15 Co4_2 1_555 1_555
N16 C47 1_555 1_555
C40 N15 1_555 1_555
H30 C40 1_555 1_555
C41 C40 1_555 1_555
H31 C41 1_555 1_555
C42 C41 1_555 1_555
C43 C42 1_555 1_555
H32 C43 1_555 1_555
C44 N15 1_555 1_555
H33 C44 1_555 1_555
C45 C42 1_555 1_555
C46 C45 1_555 1_555
C47 H34 1_555 1_555
C48 C47 1_555 1_555
H35 C48 1_555 1_555
C49 C46 1_555 1_555
N17 C49 1_555 1_555
C50 N16 1_555 1_555
H36 C50 1_555 1_555
C51 C45 1_555 1_555
N19 Co4_2 1_555 1_555
Co5 N16 1_555 1_555
C43 C44 1_555 1_555
C48 C49 1_555 1_555
N17 C50 1_555 1_555
C46 H41 1_555 1_555
C51 H42 1_555 1_555
C51 H43 1_555 1_555
C51 H44 1_555 1_555
N19 C34_2 1_555 1_555
C34_2 H27_2 1_555 1_555
N20 C47_2 1_555 1_555
C47_2 H34_2 1_555 1_555
Co5 N11_2 1_555 1_555
S3_2 C39_2 1_555 1_555
N11_2 C27_2 1_555 1_555
N13_2 Co5 1_555 1_555
C27_2 H23_2 1_555 1_555
C28_2 C27_2 1_555 1_555
H24_2 C28_2 1_555 1_555
C29_2 C28_2 1_555 1_555
C30_2 C29_2 1_555 1_555
H25_2 C30_2 1_555 1_555
C31_2 N11_2 1_555 1_555
H26_2 C31_2 1_555 1_555
C32_2 C29_2 1_555 1_555
C33_2 C32_2 1_555 1_555
H28_2 C35_2 1_555 1_555
C36_2 C33_2 1_555 1_555
N14_2 C36_2 1_555 1_555
C38_2 C32_2 1_555 1_555
C39_2 N13_2 1_555 1_555
N15_2 Co5 1_555 1_555
C40_2 N15_2 1_555 1_555
H30_2 C40_2 1_555 1_555
C41_2 C40_2 1_555 1_555
H31_2 C41_2 1_555 1_555
C42_2 C41_2 1_555 1_555
C43_2 C42_2 1_555 1_555
H32_2 C43_2 1_555 1_555
C44_2 N15_2 1_555 1_555
H33_2 C44_2 1_555 1_555
C45_2 C42_2 1_555 1_555
C46_2 C45_2 1_555 1_555
H35_2 C48_2 1_555 1_555
C49_2 C46_2 1_555 1_555
N17_2 C49_2 1_555 1_555
C51_2 C45_2 1_555 1_555
S4_2 C52_2 1_555 1_555
N18_2 Co5 1_555 1_555
C52_2 N18_2 1_555 1_555
C30_2 C31_2 1_555 1_555
C35_2 C36_2 1_555 1_555
N14_2 C37_2 1_555 1_555
C43_2 C44_2 1_555 1_555
C48_2 C49_2 1_555 1_555
N17_2 C50_2 1_555 1_555
C38_2 H37_2 1_555 1_555
C38_2 H38_2 1_555 1_555
C38_2 H39_2 1_555 1_555
C33_2 H40_2 1_555 1_555
C46_2 H41_2 1_555 1_555
C51_2 H42_2 1_555 1_555
C51_2 H43_2 1_555 1_555
C51_2 H44_2 1_555 1_555
Co4_3 N11_3 1_555 1_555
N11_3 C27_3 1_555 1_555
N12_2 C34_3 1_555 1_555
C27_3 H23_3 1_555 1_555
C28_3 C27_3 1_555 1_555
H24_3 C28_3 1_555 1_555
C29_3 C28_3 1_555 1_555
C30_3 C29_3 1_555 1_555
H25_3 C30_3 1_555 1_555
C31_3 N11_3 1_555 1_555
H26_3 C31_3 1_555 1_555
C32_3 C29_3 1_555 1_555
C33_3 C32_3 1_555 1_555
C34_3 H27_3 1_555 1_555
C35_3 C34_3 1_555 1_555
H28_3 C35_3 1_555 1_555
C36_3 C33_3 1_555 1_555
N14_3 C36_3 1_555 1_555
C37_3 N12_2 1_555 1_555
H29_3 C37_3 1_555 1_555
C38_3 C32_3 1_555 1_555
S4_3 C52_3 1_555 1_555
N18_3 Co4_3 1_555 1_555
C52_3 N18_3 1_555 1_555
N20_2 Co4_3 1_555 1_555
Co5_2 N12_2 1_555 1_555
C30_3 C31_3 1_555 1_555
C35_3 C36_3 1_555 1_555
N14_3 C37_3 1_555 1_555
C38_3 H37_3 1_555 1_555
C38_3 H38_3 1_555 1_555
C38_3 H39_3 1_555 1_555
C33_3 H40_3 1_555 1_555
S3_3 C39_3 1_555 1_555
N13_3 Co4_4 1_555 1_555
C39_3 N13_3 1_555 1_555
N15_3 Co4_4 1_555 1_555
N16_2 C47_3 1_555 1_555
C40_3 N15_3 1_555 1_555
H30_3 C40_3 1_555 1_555
C41_3 C40_3 1_555 1_555
H31_3 C41_3 1_555 1_555
C42_3 C41_3 1_555 1_555
C43_3 C42_3 1_555 1_555
H32_3 C43_3 1_555 1_555
C44_3 N15_3 1_555 1_555
H33_3 C44_3 1_555 1_555
C45_3 C42_3 1_555 1_555
C46_3 C45_3 1_555 1_555
C47_3 H34_3 1_555 1_555
C48_3 C47_3 1_555 1_555
H35_3 C48_3 1_555 1_555
C49_3 C46_3 1_555 1_555
N17_3 C49_3 1_555 1_555
C50_3 N16_2 1_555 1_555
H36_3 C50_3 1_555 1_555
C51_3 C45_3 1_555 1_555
N19_2 Co4_4 1_555 1_555
Co5_2 N16_2 1_555 1_555
C43_3 C44_3 1_555 1_555
C48_3 C49_3 1_555 1_555
N17_3 C50_3 1_555 1_555
C46_3 H41_3 1_555 1_555
C51_3 H42_3 1_555 1_555
C51_3 H43_3 1_555 1_555
C51_3 H44_3 1_555 1_555
Co5_2 N11_4 1_555 1_555
S3_4 C39_4 1_555 1_555
N11_4 C27_4 1_555 1_555
N13_4 Co5_2 1_555 1_555
C27_4 H23_4 1_555 1_555
C28_4 C27_4 1_555 1_555
H24_4 C28_4 1_555 1_555
C29_4 C28_4 1_555 1_555
C30_4 C29_4 1_555 1_555
H25_4 C30_4 1_555 1_555
C31_4 N11_4 1_555 1_555
H26_4 C31_4 1_555 1_555
C32_4 C29_4 1_555 1_555
C33_4 C32_4 1_555 1_555
H28_4 C35_4 1_555 1_555
C36_4 C33_4 1_555 1_555
N14_4 C36_4 1_555 1_555
C38_4 C32_4 1_555 1_555
C39_4 N13_4 1_555 1_555
N15_4 Co5_2 1_555 1_555
C40_4 N15_4 1_555 1_555
H30_4 C40_4 1_555 1_555
C41_4 C40_4 1_555 1_555
H31_4 C41_4 1_555 1_555
C42_4 C41_4 1_555 1_555
C43_4 C42_4 1_555 1_555
H32_4 C43_4 1_555 1_555
C44_4 N15_4 1_555 1_555
H33_4 C44_4 1_555 1_555
C45_4 C42_4 1_555 1_555
C46_4 C45_4 1_555 1_555
H35_4 C48_4 1_555 1_555
C49_4 C46_4 1_555 1_555
N17_4 C49_4 1_555 1_555
C51_4 C45_4 1_555 1_555
S4_4 C52_4 1_555 1_555
N18_4 Co5_2 1_555 1_555
C52_4 N18_4 1_555 1_555
C30_4 C31_4 1_555 1_555
C35_4 C36_4 1_555 1_555
N14_4 C37_4 1_555 1_555
C43_4 C44_4 1_555 1_555
C48_4 C49_4 1_555 1_555
N17_4 C50_4 1_555 1_555
C38_4 H37_4 1_555 1_555
C38_4 H38_4 1_555 1_555
C38_4 H39_4 1_555 1_555
C33_4 H40_4 1_555 1_555
C46_4 H41_4 1_555 1_555
C51_4 H42_4 1_555 1_555
C51_4 H43_4 1_555 1_555
C51_4 H44_4 1_555 1_555
N19_2 C34_4 1_555 1_555
C34_4 H27_4 1_555 1_555
N20_2 C47_4 1_555 1_555
C47_4 H34_4 1_555 1_555

#END
