
###############################################################################
#
# This file contains modified crystal structure data generated from the
# MOF subset of the Cambridge Structural Database (CSD) v543 
# hosted by the Cambridge Crystallographic Data Centre (CCDC).
#
# This work is licensed under the Creative Commons
# Attribution-NonCommercial-ShareAlike 4.0 International License.
# To view a copy of this license, visit
# http://creativecommons.org/licenses/by-nc-sa/4.0/
# or send a letter to
# Creative Commons, PO Box 1866, Mountain View, CA 94042, USA.
#
# CIF created using the CSD Python API on 29 September 2022
# The structure has been converted into the P1 space group
# The structure has a 3D framework
# The original CSD entry HADLOQ is in the tetragonal crystal system
# The original CSD entry HADLOQ is in a Sohncke space group
# The framework has been calculated to contain at least 10.0% void space
# The void calculation uses a probe of radius 1.32A, grid spacing 0.4
#
###############################################################################

data_HADLOQ
_chemical_formula_moiety         '(C72 H32 Co4 N16)n'
_symmetry_cell_setting           triclinic
_symmetry_space_group_name_H-M   'P 1'
_symmetry_Int_Tables_number      1
_space_group_name_Hall           'P 1'
loop_
_symmetry_equiv_pos_site_id
_symmetry_equiv_pos_as_xyz
1 x,y,z
_cell_length_a                   13.2708(4)
_cell_length_b                   13.2708(4)
_cell_length_c                   14.3502(5)
_cell_angle_alpha                90
_cell_angle_beta                 90
_cell_angle_gamma                90
_cell_volume                     2527.27
loop_
_atom_site_label
_atom_site_type_symbol
_atom_site_fract_x
_atom_site_fract_y
_atom_site_fract_z
N7 N 0.11114(15) 0.9935(2) 0.29660(14)
N2 N 0.11114(15) 0.0065(2) 0.20340(14)
C2 C 0.2716(3) 0.0000 0.2500
C3 C 0.7071(3) 0.0000 0.2500
C4 C 0.2071(2) 0.0101(3) 0.1757(2)
H2 H 0.2280 0.0186 0.1129
C5 C 0.5955(3) 0.0000 0.2500
C6 C 0.3839(3) 0.0000 0.2500
C7 C 0.4377(2) 0.0226(4) 0.1711(2)
H3 H 0.4027 0.0396 0.1156
C8 C 0.5411(2) 0.0211(4) 0.1708(2)
H4 H 0.5759 0.0350 0.1145
N3 N 0.86742(15) 0.0160(2) 0.20509(14)
C9 C 0.77203(19) 0.0248(3) 0.1786(2)
H5 H 0.7512 0.0454 0.1182
Co4 Co 0.98884(2) 0.01116(2) 0.1250
N6 N 0.9935(2) 0.11114(15) 0.45340(14)
Co1 Co 0.98884(2) 0.98884(2) 0.3750
N1 N 0.86742(15) 0.9840(2) 0.29491(14)
C1 C 0.77203(19) 0.9752(3) 0.3214(2)
H1 H 0.7512 0.9546 0.3818
C2_2 C 0.2716(3) 1.0000 0.2500
C3_2 C 0.7071(3) 1.0000 0.2500
C5_2 C 0.5955(3) 1.0000 0.2500
C6_2 C 0.3839(3) 1.0000 0.2500
C10 C 0.2071(2) 0.9899(3) 0.3243(2)
H6 H 0.2280 0.9814 0.3871
C11 C 0.4377(2) 0.9774(4) 0.3289(2)
H7 H 0.4027 0.9604 0.3844
C12 C 0.5411(2) 0.9789(4) 0.3292(2)
H8 H 0.5759 0.9650 0.3855
N5 N 0.9840(2) 0.86742(15) 0.45509(14)
Co2 Co 0.01116(2) 0.01116(2) 0.8750
Co3 Co 0.01116(2) 0.98884(2) 0.6250
N1_2 N 0.13258(15) 0.0160(2) 0.79491(14)
C1_2 C 0.22797(19) 0.0248(3) 0.8214(2)
H1_2 H 0.2488 0.0454 0.8818
C2_3 C 0.7284(3) 0.0000 0.7500
C3_3 C 0.2929(3) 0.0000 0.7500
C5_3 C 0.4045(3) 0.0000 0.7500
C6_3 C 0.6161(3) 0.0000 0.7500
N4 N 0.88886(15) 0.0065(2) 0.79660(14)
C10_2 C 0.7929(2) 0.0101(3) 0.8243(2)
H6_2 H 0.7720 0.0186 0.8871
C11_2 C 0.5623(2) 0.0226(4) 0.8289(2)
H7_2 H 0.5973 0.0396 0.8844
C12_2 C 0.4589(2) 0.0211(4) 0.8292(2)
H8_2 H 0.4241 0.0350 0.8855
N5_2 N 0.0160(2) 0.13258(15) 0.95509(14)
N2_2 N 0.88886(15) 0.9935(2) 0.70340(14)
C2_4 C 0.7284(3) 1.0000 0.7500
C3_4 C 0.2929(3) 1.0000 0.7500
C4_2 C 0.7929(2) 0.9899(3) 0.6757(2)
H2_2 H 0.7720 0.9814 0.6129
C5_4 C 0.4045(3) 1.0000 0.7500
C6_4 C 0.6161(3) 1.0000 0.7500
C7_2 C 0.5623(2) 0.9774(4) 0.6711(2)
H3_2 H 0.5973 0.9604 0.6156
C8_2 C 0.4589(2) 0.9789(4) 0.6708(2)
H4_2 H 0.4241 0.9650 0.6145
N3_2 N 0.13258(15) 0.9840(2) 0.70509(14)
C9_2 C 0.22797(19) 0.9752(3) 0.6786(2)
H5_2 H 0.2488 0.9546 0.6182
N6_2 N 0.0065(2) 0.88886(15) 0.95340(14)
N7_2 N 0.0065(2) 0.11114(15) 0.54660(14)
N1_3 N 0.0160(2) 0.86742(15) 0.54491(14)
C1_3 C 0.0248(3) 0.77203(19) 0.5714(2)
H1_3 H 0.0454 0.7512 0.6318
C2_5 C -0.0000 0.2716(3) 0.5000
C3_5 C -0.0000 0.7071(3) 0.5000
C5_5 C 0.0000 0.5955(3) 0.5000
C6_5 C 0.0000 0.3839(3) 0.5000
C10_3 C 0.0101(3) 0.2071(2) 0.5743(2)
H6_3 H 0.0186 0.2280 0.6371
C11_3 C 0.0226(4) 0.4377(2) 0.5789(2)
H7_3 H 0.0396 0.4027 0.6344
C12_3 C 0.0211(4) 0.5411(2) 0.5792(2)
H8_3 H 0.0350 0.5759 0.6355
C2_6 C 1.0000 0.2716(3) 0.5000
C3_6 C 1.0000 0.7071(3) 0.5000
C4_3 C 0.9899(3) 0.2071(2) 0.4257(2)
H2_3 H 0.9814 0.2280 0.3629
C5_6 C 1.0000 0.5955(3) 0.5000
C6_6 C 1.0000 0.3839(3) 0.5000
C7_3 C 0.9774(4) 0.4377(2) 0.4211(2)
H3_3 H 0.9604 0.4027 0.3656
C8_3 C 0.9789(4) 0.5411(2) 0.4208(2)
H4_3 H 0.9650 0.5759 0.3645
C9_3 C 0.9752(3) 0.77203(19) 0.4286(2)
H5_3 H 0.9546 0.7512 0.3682
C2_7 C -0.0000 0.7284(3) 0.0000
C3_7 C -0.0000 0.2929(3) 0.0000
C5_7 C -0.0000 0.4045(3) 0.0000
C6_7 C -0.0000 0.6161(3) 0.0000
C2_8 C 0.0000 0.7284(3) 1.0000
C3_8 C 0.0000 0.2929(3) 1.0000
C4_4 C 0.0101(3) 0.7929(2) 0.9257(2)
H2_4 H 0.0186 0.7720 0.8629
C5_8 C -0.0000 0.4045(3) 1.0000
C6_8 C 0.0000 0.6161(3) 1.0000
C7_4 C 0.0226(4) 0.5623(2) 0.9211(2)
H3_4 H 0.0396 0.5973 0.8656
C8_4 C 0.0211(4) 0.4589(2) 0.9208(2)
H4_4 H 0.0350 0.4241 0.8645
C9_4 C 0.0248(3) 0.22797(19) 0.9286(2)
H5_4 H 0.0454 0.2488 0.8682
N1_4 N 0.9840(2) 0.13258(15) 0.04491(14)
C1_4 C 0.9752(3) 0.22797(19) 0.0714(2)
H1_4 H 0.9546 0.2488 0.1318
C2_9 C 1.0000 0.7284(3) 0.0000
C3_9 C 1.0000 0.2929(3) 0.0000
C5_9 C 1.0000 0.4045(3) 0.0000
C6_9 C 1.0000 0.6161(3) 0.0000
N4_2 N 0.9935(2) 0.88886(15) 0.04660(14)
C10_4 C 0.9899(3) 0.7929(2) 0.0743(2)
H6_4 H 0.9814 0.7720 0.1371
C11_4 C 0.9774(4) 0.5623(2) 0.0789(2)
H7_4 H 0.9604 0.5973 0.1344
C12_4 C 0.9789(4) 0.4589(2) 0.0792(2)
H8_4 H 0.9650 0.4241 0.1355
C2_10 C 1.0000 0.7284(3) 1.0000
C3_10 C 1.0000 0.2929(3) 1.0000
C5_10 C 1.0000 0.4045(3) 1.0000
C6_10 C 1.0000 0.6161(3) 1.0000
loop_
_geom_bond_atom_site_label_1
_geom_bond_atom_site_label_2
_geom_bond_site_symmetry_1
_geom_bond_site_symmetry_2
N2 C4 1_555 1_555
C2 C4 1_555 1_555
C4 H2 1_555 1_555
C5 C3 1_555 1_555
C6 C2 1_555 1_555
C7 C6 1_555 1_555
H3 C7 1_555 1_555
C8 C5 1_555 1_555
H4 C8 1_555 1_555
C9 C3 1_555 1_555
H5 C9 1_555 1_555
Co4 N3 1_555 1_555
C7 C8 1_555 1_555
N3 C9 1_555 1_555
Co1 N1 1_555 1_555
N1 C1 1_555 1_555
C1 H1 1_555 1_555
C3_2 C1 1_555 1_555
C5_2 C3_2 1_555 1_555
C6_2 C2_2 1_555 1_555
C10 C2_2 1_555 1_555
H6 C10 1_555 1_555
C11 C6_2 1_555 1_555
H7 C11 1_555 1_555
C12 C5_2 1_555 1_555
H8 C12 1_555 1_555
N5 Co1 1_555 1_555
N7 C10 1_555 1_555
C11 C12 1_555 1_555
Co2 N1_2 1_555 1_555
N1_2 C1_2 1_555 1_555
C1_2 H1_2 1_555 1_555
C3_3 C1_2 1_555 1_555
C5_3 C3_3 1_555 1_555
C6_3 C2_3 1_555 1_555
C10_2 C2_3 1_555 1_555
H6_2 C10_2 1_555 1_555
C11_2 C6_3 1_555 1_555
H7_2 C11_2 1_555 1_555
C12_2 C5_3 1_555 1_555
H8_2 C12_2 1_555 1_555
N5_2 Co2 1_555 1_555
N4 C10_2 1_555 1_555
C11_2 C12_2 1_555 1_555
N2_2 C4_2 1_555 1_555
C2_4 C4_2 1_555 1_555
C4_2 H2_2 1_555 1_555
C5_4 C3_4 1_555 1_555
C6_4 C2_4 1_555 1_555
C7_2 C6_4 1_555 1_555
H3_2 C7_2 1_555 1_555
C8_2 C5_4 1_555 1_555
H4_2 C8_2 1_555 1_555
C9_2 C3_4 1_555 1_555
H5_2 C9_2 1_555 1_555
Co3 N3_2 1_555 1_555
C7_2 C8_2 1_555 1_555
N3_2 C9_2 1_555 1_555
Co3 N1_3 1_555 1_555
N1_3 C1_3 1_555 1_555
C1_3 H1_3 1_555 1_555
C3_5 C1_3 1_555 1_555
C5_5 C3_5 1_555 1_555
C6_5 C2_5 1_555 1_555
C10_3 C2_5 1_555 1_555
H6_3 C10_3 1_555 1_555
C11_3 C6_5 1_555 1_555
H7_3 C11_3 1_555 1_555
C12_3 C5_5 1_555 1_555
H8_3 C12_3 1_555 1_555
N7_2 C10_3 1_555 1_555
C11_3 C12_3 1_555 1_555
N6 C4_3 1_555 1_555
C2_6 C4_3 1_555 1_555
C4_3 H2_3 1_555 1_555
C5_6 C3_6 1_555 1_555
C6_6 C2_6 1_555 1_555
C7_3 C6_6 1_555 1_555
H3_3 C7_3 1_555 1_555
C8_3 C5_6 1_555 1_555
H4_3 C8_3 1_555 1_555
C9_3 C3_6 1_555 1_555
H5_3 C9_3 1_555 1_555
C7_3 C8_3 1_555 1_555
N5 C9_3 1_555 1_555
C5_7 C3_7 1_555 1_555
C6_7 C2_7 1_555 1_555
N6_2 C4_4 1_555 1_555
C2_8 C4_4 1_555 1_555
C4_4 H2_4 1_555 1_555
C5_8 C3_8 1_555 1_555
C6_8 C2_8 1_555 1_555
C7_4 C6_8 1_555 1_555
H3_4 C7_4 1_555 1_555
C8_4 C5_8 1_555 1_555
H4_4 C8_4 1_555 1_555
C9_4 C3_8 1_555 1_555
H5_4 C9_4 1_555 1_555
C7_4 C8_4 1_555 1_555
N5_2 C9_4 1_555 1_555
Co4 N1_4 1_555 1_555
N1_4 C1_4 1_555 1_555
C1_4 H1_4 1_555 1_555
C3_9 C1_4 1_555 1_555
C5_9 C3_9 1_555 1_555
C6_9 C2_9 1_555 1_555
C10_4 C2_9 1_555 1_555
H6_4 C10_4 1_555 1_555
C11_4 C6_9 1_555 1_555
H7_4 C11_4 1_555 1_555
C12_4 C5_9 1_555 1_555
H8_4 C12_4 1_555 1_555
N4_2 C10_4 1_555 1_555
C11_4 C12_4 1_555 1_555
C5_10 C3_10 1_555 1_555
C6_10 C2_10 1_555 1_555

#END
