
###############################################################################
#
# This file contains modified crystal structure data generated from the
# MOF subset of the Cambridge Structural Database (CSD) v543 
# hosted by the Cambridge Crystallographic Data Centre (CCDC).
#
# This work is licensed under the Creative Commons
# Attribution-NonCommercial-ShareAlike 4.0 International License.
# To view a copy of this license, visit
# http://creativecommons.org/licenses/by-nc-sa/4.0/
# or send a letter to
# Creative Commons, PO Box 1866, Mountain View, CA 94042, USA.
#
# CIF created using the CSD Python API on 29 September 2022
# The structure has been converted into the P1 space group
# The structure has a 3D framework
# The original CSD entry HADLEH is in the orthorhombic crystal system
# The original CSD entry HADLEH is in a Sohncke space group
# The framework has been calculated to contain at least 10.0% void space
# The void calculation uses a probe of radius 1.32A, grid spacing 0.4
#
###############################################################################

data_HADLEH
_chemical_formula_moiety         '(C137 H57 Eu14 N32 O80 S16)n'
_symmetry_cell_setting           triclinic
_symmetry_space_group_name_H-M   'P 1'
_symmetry_Int_Tables_number      1
_space_group_name_Hall           'P 1'
loop_
_symmetry_equiv_pos_site_id
_symmetry_equiv_pos_as_xyz
1 x,y,z
_cell_length_a                   14.7170(6)
_cell_length_b                   14.3696(6)
_cell_length_c                   23.7326(10)
_cell_angle_alpha                90
_cell_angle_beta                 90
_cell_angle_gamma                90
_cell_volume                     5018.91
loop_
_atom_site_label
_atom_site_type_symbol
_atom_site_fract_x
_atom_site_fract_y
_atom_site_fract_z
O17 O 0.0525(5) 0.8010(8) 0.0862(4)
Eu1 Eu 0.500000 0.62833(4) 0.250000
S1 S 0.4053(5) 0.4386(6) 0.3258(3)
Eu2 Eu 0.07664(3) 0.17882(3) 0.41336(2)
S2 S 0.2756(6) 0.7607(6) 0.5257(3)
O1 O 0.0678(6) 0.2603(5) 0.3030(3)
O2 O 0.0245(9) 0.3375(7) 0.4175(5)
H2 H 0.060899 0.396020 0.414345
O3 O 0.1872(6) 0.2689(7) 0.3592(4)
O4 O 0.2926(6) 0.5745(7) 0.1167(4)
O5 O 0.4138(6) 0.5741(6) 0.1710(3)
O7 O 0.0029(6) 0.7964(7) 0.4995(3)
O8 O 0.4247(6) 0.6625(8) 0.3886(4)
O9 O 0.3717(6) 0.6764(7) 0.3014(3)
O10 O 0.0642(9) 0.0307(7) 0.4575(5)
N1 N 0.3339(12) 0.3858(11) 0.3336(6)
N2 N 0.4040(9) 0.4868(9) 0.2770(7)
N3 N 0.1887(12) 0.7802(10) 0.5145(5)
N4 N 0.3225(12) 0.7350(13) 0.4799(8)
C1 C 0.1458(9) 0.2925(7) 0.3137(5)
C2 C 0.1934(7) 0.3576(7) 0.2752(4)
C3 C 0.2786(7) 0.3960(8) 0.2883(5)
C4 C 0.3242(10) 0.4582(10) 0.2526(6)
C5 C 0.2847(7) 0.4854(8) 0.2015(5)
C6 C 0.1550(8) 0.3869(8) 0.2242(4)
H3 H 0.097635 0.365277 0.214385
C7 C 0.2003(7) 0.4475(8) 0.1877(5)
H4 H 0.173546 0.462941 0.153392
C8 C 0.3312(8) 0.5472(7) 0.1601(5)
C9 C 0.0088(8) 0.7936(8) 0.4453(5)
C10 C 0.1033(6) 0.7731(9) 0.4231(4)
C11 C 0.1811(6) 0.7661(8) 0.4566(4)
C12 C 0.2650(9) 0.7363(12) 0.4347(5)
C13 C 0.1144(8) 0.7563(10) 0.3652(4)
H5 H 0.065184 0.762465 0.340892
C14 C 0.1993(7) 0.7302(10) 0.3441(5)
H6 H 0.205431 0.721629 0.305457
C15 C 0.2748(7) 0.7165(9) 0.3779(4)
C16 C 0.3630(8) 0.6837(9) 0.3549(4)
C17 C 0.0272(16) 0.000000 0.500000
O18 O 0.9971(6) 0.7964(7) 0.0005(3)
O19 O 0.5753(6) 0.6625(8) 0.1114(4)
O20 O 0.6283(6) 0.6764(7) 0.1986(3)
N8 N 0.6775(12) 0.7350(13) 0.0201(8)
C26 C 0.9912(8) 0.7936(8) 0.0547(5)
C27 C 0.8967(6) 0.7731(9) 0.0769(4)
C28 C 0.8189(6) 0.7661(8) 0.0434(4)
C29 C 0.7350(9) 0.7363(12) 0.0653(5)
C30 C 0.8856(8) 0.7563(10) 0.1348(4)
H12 H 0.934816 0.762465 0.159108
C31 C 0.8007(7) 0.7302(10) 0.1559(5)
H13 H 0.794569 0.721629 0.194543
C32 C 0.7252(7) 0.7165(9) 0.1221(4)
C33 C 0.6370(8) 0.6837(9) 0.1451(4)
Eu5 Eu 0.000000 0.12833(4) 0.250000
Eu8 Eu 0.07664(3) 0.82118(3) 0.58664(2)
Eu9 Eu 0.57664(3) 0.67882(3) 0.41336(2)
Eu11 Eu 0.42336(3) 0.67882(3) 0.08664(2)
O21 O 0.5678(6) 0.7603(5) 0.3030(3)
O22 O 0.4322(6) 0.7603(5) 0.1970(3)
O24 O 0.2074(6) 0.0745(7) 0.3833(4)
O25 O 0.5862(6) 0.5741(6) 0.3290(3)
O27 O 0.0862(6) 0.0741(6) 0.3290(3)
O29 O 0.0029(6) 0.2036(7) 0.5005(3)
N9 N 0.5960(9) 0.4868(9) 0.2230(7)
N11 N 0.1887(12) 0.2198(10) 0.4855(5)
S4 S 0.7244(6) 0.7607(6) 0.9743(3)
N7 N 0.8113(12) 0.7802(10) 0.9855(5)
Eu7 Eu 0.92336(3) 0.82118(3) 0.91336(2)
C17_2 C 0.0272(16) 1.000000 0.500000
O11 O 0.0642(9) 0.9693(7) 0.5425(5)
S3 S 0.4053(5) 0.5614(6) 0.6742(3)
O12 O 0.0678(6) 0.7397(5) 0.6970(3)
O13 O 0.0245(9) 0.6625(7) 0.5825(5)
H9 H 0.060899 0.603980 0.585655
O14 O 0.1872(6) 0.7311(7) 0.6408(4)
O15 O 0.2926(6) 0.4255(7) 0.8833(4)
O16 O 0.4138(6) 0.4259(6) 0.8290(3)
N5 N 0.3339(12) 0.6142(11) 0.6664(6)
N6 N 0.4040(9) 0.5132(9) 0.7230(7)
C18 C 0.1458(9) 0.7075(7) 0.6863(5)
C19 C 0.1934(7) 0.6424(7) 0.7248(4)
C20 C 0.2786(7) 0.6040(8) 0.7117(5)
C21 C 0.3242(10) 0.5418(10) 0.7474(6)
C22 C 0.2847(7) 0.5146(8) 0.7985(5)
C23 C 0.1550(8) 0.6131(8) 0.7758(4)
H10 H 0.097635 0.634723 0.785615
C24 C 0.2003(7) 0.5525(8) 0.8123(5)
H11 H 0.173546 0.537059 0.846608
C25 C 0.3312(8) 0.4528(7) 0.8399(5)
Eu4 Eu 0.500000 0.37167(4) 0.750000
Eu6 Eu -0.000000 0.87167(4) 0.750000
Eu10 Eu 0.42336(3) 0.32118(3) 0.91336(2)
O23 O 0.2074(6) 0.9255(7) 0.6167(4)
O26 O 0.0862(6) 0.9259(6) 0.6710(3)
H1 H 0.960811 0.359678 0.422718
O6 O 0.9475(5) 0.8010(8) 0.4138(4)
H7 H 0.963966 -0.000004 0.499998
Eu5_2 Eu 1.000000 0.12833(4) 0.250000
O30 O 0.9247(6) 0.1625(8) 0.3886(4)
H7_2 H 0.963966 0.999996 0.499998
H8 H 0.960811 0.640322 0.577282
Eu6_2 Eu 1.000000 0.87167(4) 0.750000
O31 O 0.9247(6) 0.8375(8) 0.6114(4)
H7_3 H 0.036034 0.000004 -0.000002
H8_2 H 0.039189 0.359678 0.077282
O31_2 O 0.0753(6) 0.1625(8) 0.1114(4)
H1_2 H 0.039189 0.640322 0.922718
O6_2 O 0.0525(5) 0.1990(8) 0.9138(4)
H7_4 H 0.036034 1.000004 0.999998
O30_2 O 0.0753(6) 0.8375(8) 0.8886(4)
C17_3 C 0.9728(16) 0.000000 0.000000
O11_2 O 0.9358(9) 0.0307(7) 0.0425(5)
S3_2 S 0.5947(5) 0.4386(6) 0.1742(3)
Eu3 Eu 0.92336(3) 0.17882(3) 0.08664(2)
O12_2 O 0.9322(6) 0.2603(5) 0.1970(3)
O13_2 O 0.9755(9) 0.3375(7) 0.0825(5)
H9_2 H 0.939101 0.396020 0.085655
O14_2 O 0.8128(6) 0.2689(7) 0.1408(4)
O15_2 O 0.7074(6) 0.5745(7) 0.3833(4)
N5_2 N 0.6661(12) 0.3858(11) 0.1664(6)
C18_2 C 0.8542(9) 0.2925(7) 0.1863(5)
C19_2 C 0.8066(7) 0.3576(7) 0.2248(4)
C20_2 C 0.7214(7) 0.3960(8) 0.2117(5)
C21_2 C 0.6758(10) 0.4582(10) 0.2474(6)
C22_2 C 0.7153(7) 0.4854(8) 0.2985(5)
C23_2 C 0.8450(8) 0.3869(8) 0.2758(4)
H10_2 H 0.902365 0.365277 0.285615
C24_2 C 0.7997(7) 0.4475(8) 0.3123(5)
H11_2 H 0.826454 0.462941 0.346608
C25_2 C 0.6688(8) 0.5472(7) 0.3399(5)
O23_2 O 0.7926(6) 0.0745(7) 0.1167(4)
O26_2 O 0.9138(6) 0.0741(6) 0.1710(3)
N10 N 0.8113(12) 0.2198(10) 0.0145(5)
C17_4 C 0.9728(16) 0.000000 1.000000
O28 O 0.9971(6) 0.2036(7) 0.9995(3)
S2_2 S 0.7244(6) 0.2393(6) 0.0257(3)
C17_5 C 0.9728(16) 1.000000 0.000000
S1_2 S 0.5947(5) 0.5614(6) 0.8258(3)
O1_2 O 0.9322(6) 0.7397(5) 0.8030(3)
O2_2 O 0.9755(9) 0.6625(7) 0.9175(5)
H2_2 H 0.939101 0.603980 0.914345
O3_2 O 0.8128(6) 0.7311(7) 0.8592(4)
O4_2 O 0.7074(6) 0.4255(7) 0.6167(4)
O5_2 O 0.5862(6) 0.4259(6) 0.6710(3)
O8_2 O 0.5753(6) 0.3375(8) 0.8886(4)
O9_2 O 0.6283(6) 0.3236(7) 0.8014(3)
O10_2 O 0.9358(9) 0.9693(7) 0.9575(5)
N1_2 N 0.6661(12) 0.6142(11) 0.8336(6)
N2_2 N 0.5960(9) 0.5132(9) 0.7770(7)
N4_2 N 0.6775(12) 0.2650(13) 0.9799(8)
C1_2 C 0.8542(9) 0.7075(7) 0.8137(5)
C2_2 C 0.8066(7) 0.6424(7) 0.7752(4)
C3_2 C 0.7214(7) 0.6040(8) 0.7883(5)
C4_2 C 0.6758(10) 0.5418(10) 0.7526(6)
C5_2 C 0.7153(7) 0.5146(8) 0.7015(5)
C6_2 C 0.8450(8) 0.6131(8) 0.7242(4)
H3_2 H 0.902365 0.634723 0.714385
C7_2 C 0.7997(7) 0.5525(8) 0.6877(5)
H4_2 H 0.826454 0.537059 0.653392
C8_2 C 0.6688(8) 0.4528(7) 0.6601(5)
C9_2 C 0.9912(8) 0.2064(8) 0.9453(5)
C10_2 C 0.8967(6) 0.2269(9) 0.9231(4)
C11_2 C 0.8189(6) 0.2339(8) 0.9566(4)
C12_2 C 0.7350(9) 0.2637(12) 0.9347(5)
C13_2 C 0.8856(8) 0.2437(10) 0.8652(4)
H5_2 H 0.934816 0.237535 0.840892
C14_2 C 0.8007(7) 0.2698(10) 0.8441(5)
H6_2 H 0.794569 0.278371 0.805457
C15_2 C 0.7252(7) 0.2835(9) 0.8779(4)
C16_2 C 0.6370(8) 0.3163(9) 0.8549(4)
C17_6 C 0.9728(16) 1.000000 1.000000
S4_2 S 0.2756(6) 0.2393(6) 0.4743(3)
O19_2 O 0.4247(6) 0.3375(8) 0.6114(4)
O20_2 O 0.3717(6) 0.3236(7) 0.6986(3)
N8_2 N 0.3225(12) 0.2650(13) 0.5201(8)
C26_2 C 0.0088(8) 0.2064(8) 0.5547(5)
C27_2 C 0.1033(6) 0.2269(9) 0.5769(4)
C28_2 C 0.1811(6) 0.2339(8) 0.5434(4)
C29_2 C 0.2650(9) 0.2637(12) 0.5653(5)
C30_2 C 0.1144(8) 0.2437(10) 0.6348(4)
H12_2 H 0.065184 0.237535 0.659108
C31_2 C 0.1993(7) 0.2698(10) 0.6559(5)
H13_2 H 0.205431 0.278371 0.694543
C32_2 C 0.2748(7) 0.2835(9) 0.6221(4)
C33_2 C 0.3630(8) 0.3163(9) 0.6451(4)
Eu11_2 Eu 0.57664(3) 0.32118(3) 0.58664(2)
O21_2 O 0.4322(6) 0.2397(5) 0.8030(3)
O22_2 O 0.5678(6) 0.2397(5) 0.6970(3)
O24_2 O 0.7926(6) 0.9255(7) 0.8833(4)
O27_2 O 0.9138(6) 0.9259(6) 0.8290(3)
O17_2 O 0.9475(5) 0.1990(8) 0.5862(4)
O17_3 O 0.5525(5) 0.3010(8) 0.0862(4)
O18_2 O 0.4971(6) 0.2964(7) 0.0005(3)
O20_3 O 0.1283(6) 0.1764(7) 0.1986(3)
N8_3 N 0.1775(12) 0.2350(13) 0.0201(8)
C26_3 C 0.4912(8) 0.2936(8) 0.0547(5)
C27_3 C 0.3967(6) 0.2731(9) 0.0769(4)
C28_3 C 0.3189(6) 0.2661(8) 0.0434(4)
C29_3 C 0.2350(9) 0.2363(12) 0.0653(5)
C30_3 C 0.3856(8) 0.2563(10) 0.1348(4)
H12_3 H 0.434816 0.262465 0.159108
C31_3 C 0.3007(7) 0.2302(10) 0.1559(5)
H13_3 H 0.294569 0.221629 0.194543
C32_3 C 0.2252(7) 0.2165(9) 0.1221(4)
C33_3 C 0.1370(8) 0.1837(9) 0.1451(4)
S4_3 S 0.2244(6) 0.2607(6) 0.9743(3)
N7_2 N 0.3113(12) 0.2802(10) 0.9855(5)
N9_2 N 0.0960(9) 0.9868(9) 0.2230(7)
S2_3 S 0.7756(6) 0.2607(6) 0.5257(3)
O6_3 O 0.4475(5) 0.3010(8) 0.4138(4)
O7_2 O 0.5029(6) 0.2964(7) 0.4995(3)
O9_3 O 0.8717(6) 0.1764(7) 0.3014(3)
N3_2 N 0.6887(12) 0.2802(10) 0.5145(5)
N4_3 N 0.8225(12) 0.2350(13) 0.4799(8)
C8_3 C 0.8312(8) 0.0472(7) 0.1601(5)
C9_3 C 0.5088(8) 0.2936(8) 0.4453(5)
C10_3 C 0.6033(6) 0.2731(9) 0.4231(4)
C11_3 C 0.6811(6) 0.2661(8) 0.4566(4)
C12_3 C 0.7650(9) 0.2363(12) 0.4347(5)
C13_3 C 0.6144(8) 0.2563(10) 0.3652(4)
H5_3 H 0.565184 0.262465 0.340892
C14_3 C 0.6993(7) 0.2302(10) 0.3441(5)
H6_3 H 0.705431 0.221629 0.305457
C15_3 C 0.7748(7) 0.2165(9) 0.3779(4)
C16_3 C 0.8630(8) 0.1837(9) 0.3549(4)
S1_3 S 0.9053(5) 0.9386(6) 0.3258(3)
O2_3 O 0.5245(9) 0.8375(7) 0.4175(5)
H1_3 H 0.460811 0.859678 0.422718
H2_3 H 0.560899 0.896020 0.414345
O3_3 O 0.6872(6) 0.7689(7) 0.3592(4)
O10_3 O 0.5642(9) 0.5307(7) 0.4575(5)
N1_3 N 0.8339(12) 0.8858(11) 0.3336(6)
N2_3 N 0.9040(9) 0.9868(9) 0.2770(7)
C1_3 C 0.6458(9) 0.7925(7) 0.3137(5)
C2_3 C 0.6934(7) 0.8576(7) 0.2752(4)
C3_3 C 0.7786(7) 0.8960(8) 0.2883(5)
C4_3 C 0.8242(10) 0.9582(10) 0.2526(6)
C5_3 C 0.7847(7) 0.9854(8) 0.2015(5)
C6_3 C 0.6550(8) 0.8869(8) 0.2242(4)
H3_3 H 0.597635 0.865277 0.214385
C7_3 C 0.7003(7) 0.9475(8) 0.1877(5)
H4_3 H 0.673546 0.962941 0.153392
C17_7 C 0.5272(16) 0.500000 0.500000
H7_5 H 0.463966 0.499996 0.499998
O11_3 O 0.5642(9) 0.4693(7) 0.5425(5)
S3_3 S 0.9053(5) 0.0614(6) 0.6742(3)
O13_3 O 0.5245(9) 0.1625(7) 0.5825(5)
H8_3 H 0.460811 0.140322 0.577282
H9_3 H 0.560899 0.103980 0.585655
O14_3 O 0.6872(6) 0.2311(7) 0.6408(4)
N5_3 N 0.8339(12) 0.1142(11) 0.6664(6)
N6_2 N 0.9040(9) 0.0132(9) 0.7230(7)
C18_3 C 0.6458(9) 0.2075(7) 0.6863(5)
C19_3 C 0.6934(7) 0.1424(7) 0.7248(4)
C20_3 C 0.7786(7) 0.1040(8) 0.7117(5)
C21_3 C 0.8242(10) 0.0418(10) 0.7474(6)
C22_3 C 0.7847(7) 0.0146(8) 0.7985(5)
C23_3 C 0.6550(8) 0.1131(8) 0.7758(4)
H10_3 H 0.597635 0.134723 0.785615
C24_3 C 0.7003(7) 0.0525(8) 0.8123(5)
H11_3 H 0.673546 0.037059 0.846608
O29_2 O 0.5029(6) 0.7036(7) 0.5005(3)
N11_2 N 0.6887(12) 0.7198(10) 0.4855(5)
C25_3 C 0.8312(8) 0.9528(7) 0.8399(5)
C25_4 C 0.1688(8) 0.0472(7) 0.3399(5)
C17_8 C 0.4728(16) 0.500000 0.000000
H7_6 H 0.536034 0.500004 -0.000002
O11_4 O 0.4358(9) 0.5307(7) 0.0425(5)
S3_4 S 0.0947(5) 0.9386(6) 0.1742(3)
O13_4 O 0.4755(9) 0.8375(7) 0.0825(5)
H8_4 H 0.539189 0.859678 0.077282
H9_4 H 0.439101 0.896020 0.085655
O14_4 O 0.3128(6) 0.7689(7) 0.1408(4)
N5_4 N 0.1661(12) 0.8858(11) 0.1664(6)
C18_4 C 0.3542(9) 0.7925(7) 0.1863(5)
C19_4 C 0.3066(7) 0.8576(7) 0.2248(4)
C20_4 C 0.2214(7) 0.8960(8) 0.2117(5)
C21_4 C 0.1758(10) 0.9582(10) 0.2474(6)
C22_4 C 0.2153(7) 0.9854(8) 0.2985(5)
C23_4 C 0.3450(8) 0.8869(8) 0.2758(4)
H10_4 H 0.402365 0.865277 0.285615
C24_4 C 0.2997(7) 0.9475(8) 0.3123(5)
H11_4 H 0.326454 0.962941 0.346608
N10_2 N 0.3113(12) 0.7198(10) 0.0145(5)
S1_4 S 0.0947(5) 0.0614(6) 0.8258(3)
O2_4 O 0.4755(9) 0.1625(7) 0.9175(5)
H1_4 H 0.539189 0.140322 0.922718
H2_4 H 0.439101 0.103980 0.914345
O3_4 O 0.3128(6) 0.2311(7) 0.8592(4)
O10_4 O 0.4358(9) 0.4693(7) 0.9575(5)
N1_4 N 0.1661(12) 0.1142(11) 0.8336(6)
N2_4 N 0.0960(9) 0.0132(9) 0.7770(7)
C1_4 C 0.3542(9) 0.2075(7) 0.8137(5)
C2_4 C 0.3066(7) 0.1424(7) 0.7752(4)
C3_4 C 0.2214(7) 0.1040(8) 0.7883(5)
C4_4 C 0.1758(10) 0.0418(10) 0.7526(6)
C5_4 C 0.2153(7) 0.0146(8) 0.7015(5)
C6_4 C 0.3450(8) 0.1131(8) 0.7242(4)
H3_4 H 0.402365 0.134723 0.714385
C7_4 C 0.2997(7) 0.0525(8) 0.6877(5)
H4_4 H 0.326454 0.037059 0.653392
C17_9 C 0.4728(16) 0.500000 1.000000
H7_7 H 0.536034 0.500004 0.999998
O28_2 O 0.4971(6) 0.7036(7) 0.9995(3)
S2_4 S 0.2244(6) 0.7393(6) 0.0257(3)
O6_4 O 0.5525(5) 0.6990(8) 0.9138(4)
O9_4 O 0.1283(6) 0.8236(7) 0.8014(3)
N4_4 N 0.1775(12) 0.7650(13) 0.9799(8)
C8_4 C 0.1688(8) 0.9528(7) 0.6601(5)
C9_4 C 0.4912(8) 0.7064(8) 0.9453(5)
C10_4 C 0.3967(6) 0.7269(9) 0.9231(4)
C11_4 C 0.3189(6) 0.7339(8) 0.9566(4)
C12_4 C 0.2350(9) 0.7637(12) 0.9347(5)
C13_4 C 0.3856(8) 0.7437(10) 0.8652(4)
H5_4 H 0.434816 0.737535 0.840892
C14_4 C 0.3007(7) 0.7698(10) 0.8441(5)
H6_4 H 0.294569 0.778371 0.805457
C15_4 C 0.2252(7) 0.7835(9) 0.8779(4)
C16_4 C 0.1370(8) 0.8163(9) 0.8549(4)
S4_4 S 0.7756(6) 0.7393(6) 0.4743(3)
O17_4 O 0.4475(5) 0.6990(8) 0.5862(4)
O20_4 O 0.8717(6) 0.8236(7) 0.6986(3)
N8_4 N 0.8225(12) 0.7650(13) 0.5201(8)
C26_4 C 0.5088(8) 0.7064(8) 0.5547(5)
C27_4 C 0.6033(6) 0.7269(9) 0.5769(4)
C28_4 C 0.6811(6) 0.7339(8) 0.5434(4)
C29_4 C 0.7650(9) 0.7637(12) 0.5653(5)
C30_4 C 0.6144(8) 0.7437(10) 0.6348(4)
H12_4 H 0.565184 0.737535 0.659108
C31_4 C 0.6993(7) 0.7698(10) 0.6559(5)
H13_4 H 0.705431 0.778371 0.694543
C32_4 C 0.7748(7) 0.7835(9) 0.6221(4)
C33_4 C 0.8630(8) 0.8163(9) 0.6451(4)
H7_8 H 0.036034 0.000004 0.999998
H7_9 H 0.036034 1.000004 -0.000002
loop_
_geom_bond_atom_site_label_1
_geom_bond_atom_site_label_2
_geom_bond_site_symmetry_1
_geom_bond_site_symmetry_2
Eu1 O5 1_555 1_555
S1 N1 1_555 1_555
Eu2 O1 1_555 1_555
S2 N3 1_555 1_555
O1 C1 1_555 1_555
O2 Eu2 1_555 1_555
H2 O2 1_555 1_555
O3 Eu2 1_555 1_555
O4 C8 1_555 1_555
O5 C8 1_555 1_555
O7 C9 1_555 1_555
O8 C16 1_555 1_555
O9 Eu1 1_555 1_555
O10 Eu2 1_555 1_555
N1 C3 1_555 1_555
N2 Eu1 1_555 1_555
N3 C11 1_555 1_555
N4 S2 1_555 1_555
C1 O3 1_555 1_555
C2 C1 1_555 1_555
C3 C2 1_555 1_555
C4 N2 1_555 1_555
C5 C4 1_555 1_555
C6 C2 1_555 1_555
H3 C6 1_555 1_555
C7 C5 1_555 1_555
H4 C7 1_555 1_555
C8 C5 1_555 1_555
C9 C10 1_555 1_555
C10 C11 1_555 1_555
C11 C12 1_555 1_555
C12 N4 1_555 1_555
C13 C10 1_555 1_555
H5 C13 1_555 1_555
C14 C13 1_555 1_555
H6 C14 1_555 1_555
C15 C12 1_555 1_555
C16 O9 1_555 1_555
C17 O10 1_555 1_555
O18 C26 1_555 1_555
O19 C33 1_555 1_555
O20 Eu1 1_555 1_555
C26 C27 1_555 1_555
C27 C28 1_555 1_555
C28 C29 1_555 1_555
C29 N8 1_555 1_555
C30 C27 1_555 1_555
H12 C30 1_555 1_555
C31 C30 1_555 1_555
H13 C31 1_555 1_555
C32 C29 1_555 1_555
C33 O20 1_555 1_555
Eu5 O1 1_555 1_555
Eu8 O7 1_555 1_555
Eu9 O8 1_555 1_555
Eu11 O4 1_555 1_555
O21 Eu1 1_555 1_555
O22 Eu1 1_555 1_555
O24 Eu2 1_555 1_555
O25 Eu1 1_555 1_555
O27 Eu2 1_555 1_555
O29 Eu2 1_555 1_555
N9 Eu1 1_555 1_555
N11 Eu2 1_555 1_555
S1 N2 1_555 1_555
O5 Eu11 1_555 1_555
N3 Eu8 1_555 1_555
C3 C4 1_555 1_555
C6 C7 1_555 1_555
C14 C15 1_555 1_555
C15 C16 1_555 1_555
O19 Eu11 1_555 1_555
C31 C32 1_555 1_555
C32 C33 1_555 1_555
Eu5 O27 1_555 1_555
Eu9 O21 1_555 1_555
Eu9 O25 1_555 1_555
Eu11 O22 1_555 1_555
S4 N7 1_555 1_555
N7 Eu7 1_555 1_555
O11 C17_2 1_555 1_555
S3 N5 1_555 1_555
Eu8 O11 1_555 1_555
O12 Eu8 1_555 1_555
O13 Eu8 1_555 1_555
H9 O13 1_555 1_555
O14 Eu8 1_555 1_555
O15 C25 1_555 1_555
O16 C25 1_555 1_555
N5 C20 1_555 1_555
N6 S3 1_555 1_555
C18 O12 1_555 1_555
C19 C18 1_555 1_555
C20 C19 1_555 1_555
C21 N6 1_555 1_555
C22 C21 1_555 1_555
C23 C19 1_555 1_555
H10 C23 1_555 1_555
C24 C22 1_555 1_555
H11 C24 1_555 1_555
C25 C22 1_555 1_555
Eu4 O16 1_555 1_555
Eu6 O12 1_555 1_555
Eu10 O15 1_555 1_555
O23 Eu8 1_555 1_555
O26 Eu8 1_555 1_555
O14 C18 1_555 1_555
O16 Eu10 1_555 1_555
N6 Eu4 1_555 1_555
C20 C21 1_555 1_555
C23 C24 1_555 1_555
Eu6 O26 1_555 1_555
O11_2 C17_3 1_555 1_555
S3_2 N5_2 1_555 1_555
Eu3 O11_2 1_555 1_555
O12_2 Eu3 1_555 1_555
O13_2 Eu3 1_555 1_555
H9_2 O13_2 1_555 1_555
O14_2 Eu3 1_555 1_555
O15_2 C25_2 1_555 1_555
O25 C25_2 1_555 1_555
N5_2 C20_2 1_555 1_555
N9 S3_2 1_555 1_555
C18_2 O12_2 1_555 1_555
C19_2 C18_2 1_555 1_555
C20_2 C19_2 1_555 1_555
C21_2 N9 1_555 1_555
C22_2 C21_2 1_555 1_555
C23_2 C19_2 1_555 1_555
H10_2 C23_2 1_555 1_555
C24_2 C22_2 1_555 1_555
H11_2 C24_2 1_555 1_555
C25_2 C22_2 1_555 1_555
Eu5_2 O12_2 1_555 1_555
Eu9 O15_2 1_555 1_555
O23_2 Eu3 1_555 1_555
O26_2 Eu3 1_555 1_555
N10 Eu3 1_555 1_555
O14_2 C18_2 1_555 1_555
C20_2 C21_2 1_555 1_555
C23_2 C24_2 1_555 1_555
Eu5_2 O26_2 1_555 1_555
S2_2 N10 1_555 1_555
Eu4 O5_2 1_555 1_555
S1_2 N1_2 1_555 1_555
Eu7 O1_2 1_555 1_555
O1_2 C1_2 1_555 1_555
O2_2 Eu7 1_555 1_555
H2_2 O2_2 1_555 1_555
O3_2 Eu7 1_555 1_555
O4_2 C8_2 1_555 1_555
O5_2 C8_2 1_555 1_555
O28 C9_2 1_555 1_555
O8_2 C16_2 1_555 1_555
O9_2 Eu4 1_555 1_555
O10_2 Eu7 1_555 1_555
N1_2 C3_2 1_555 1_555
N2_2 Eu4 1_555 1_555
C1_2 O3_2 1_555 1_555
C2_2 C1_2 1_555 1_555
C3_2 C2_2 1_555 1_555
C4_2 N2_2 1_555 1_555
C5_2 C4_2 1_555 1_555
C6_2 C2_2 1_555 1_555
H3_2 C6_2 1_555 1_555
C7_2 C5_2 1_555 1_555
H4_2 C7_2 1_555 1_555
C8_2 C5_2 1_555 1_555
C9_2 C10_2 1_555 1_555
C10_2 C11_2 1_555 1_555
C11_2 C12_2 1_555 1_555
C12_2 N4_2 1_555 1_555
C13_2 C10_2 1_555 1_555
H5_2 C13_2 1_555 1_555
C14_2 C13_2 1_555 1_555
H6_2 C14_2 1_555 1_555
C15_2 C12_2 1_555 1_555
C16_2 O9_2 1_555 1_555
C17_6 O10_2 1_555 1_555
S4_2 N11 1_555 1_555
O29 C26_2 1_555 1_555
O19_2 C33_2 1_555 1_555
O20_2 Eu4 1_555 1_555
N11 C28_2 1_555 1_555
N8_2 S4_2 1_555 1_555
C26_2 C27_2 1_555 1_555
C27_2 C28_2 1_555 1_555
C28_2 C29_2 1_555 1_555
C29_2 N8_2 1_555 1_555
C30_2 C27_2 1_555 1_555
H12_2 C30_2 1_555 1_555
C31_2 C30_2 1_555 1_555
H13_2 C31_2 1_555 1_555
C32_2 C29_2 1_555 1_555
C33_2 O20_2 1_555 1_555
Eu6_2 O1_2 1_555 1_555
Eu10 O8_2 1_555 1_555
Eu11_2 O4_2 1_555 1_555
O21_2 Eu4 1_555 1_555
O22_2 Eu4 1_555 1_555
O24_2 Eu7 1_555 1_555
O27_2 Eu7 1_555 1_555
S1_2 N2_2 1_555 1_555
O5_2 Eu11_2 1_555 1_555
C3_2 C4_2 1_555 1_555
C6_2 C7_2 1_555 1_555
C14_2 C15_2 1_555 1_555
C15_2 C16_2 1_555 1_555
O19_2 Eu11_2 1_555 1_555
C31_2 C32_2 1_555 1_555
C32_2 C33_2 1_555 1_555
Eu6_2 O27_2 1_555 1_555
Eu10 O21_2 1_555 1_555
Eu11_2 O22_2 1_555 1_555
O17_3 C26_3 1_555 1_555
O18_2 C26_3 1_555 1_555
O31_2 C33_3 1_555 1_555
O20_3 Eu5 1_555 1_555
C26_3 C27_3 1_555 1_555
C27_3 C28_3 1_555 1_555
C28_3 C29_3 1_555 1_555
C29_3 N8_3 1_555 1_555
C30_3 C27_3 1_555 1_555
H12_3 C30_3 1_555 1_555
C31_3 C30_3 1_555 1_555
H13_3 C31_3 1_555 1_555
C32_3 C29_3 1_555 1_555
C33_3 O20_3 1_555 1_555
C31_3 C32_3 1_555 1_555
C32_3 C33_3 1_555 1_555
S4_3 N7_2 1_555 1_555
N7_2 Eu10 1_555 1_555
S2_3 N3_2 1_555 1_555
O23_2 C8_3 1_555 1_555
O26_2 C8_3 1_555 1_555
O6_3 C9_3 1_555 1_555
O7_2 C9_3 1_555 1_555
O30 C16_3 1_555 1_555
O9_3 Eu5_2 1_555 1_555
N3_2 C11_3 1_555 1_555
N4_3 S2_3 1_555 1_555
C9_3 C10_3 1_555 1_555
C10_3 C11_3 1_555 1_555
C11_3 C12_3 1_555 1_555
C12_3 N4_3 1_555 1_555
C13_3 C10_3 1_555 1_555
H5_3 C13_3 1_555 1_555
C14_3 C13_3 1_555 1_555
H6_3 C14_3 1_555 1_555
C15_3 C12_3 1_555 1_555
C16_3 O9_3 1_555 1_555
Eu11_2 O7_2 1_555 1_555
N3_2 Eu11_2 1_555 1_555
C14_3 C15_3 1_555 1_555
C15_3 C16_3 1_555 1_555
S1_3 N1_3 1_555 1_555
O21 C1_3 1_555 1_555
O2_3 Eu9 1_555 1_555
H1_3 O2_3 1_555 1_555
H2_3 O2_3 1_555 1_555
O3_3 Eu9 1_555 1_555
O10_3 Eu9 1_555 1_555
N1_3 C3_3 1_555 1_555
C1_3 O3_3 1_555 1_555
C2_3 C1_3 1_555 1_555
C3_3 C2_3 1_555 1_555
C4_3 N2_3 1_555 1_555
C5_3 C4_3 1_555 1_555
C6_3 C2_3 1_555 1_555
H3_3 C6_3 1_555 1_555
C7_3 C5_3 1_555 1_555
H4_3 C7_3 1_555 1_555
C17_7 O10_3 1_555 1_555
H7_5 C17_7 1_555 1_555
O11_3 C17_7 1_555 1_555
S3_3 N5_3 1_555 1_555
Eu11_2 O11_3 1_555 1_555
O13_3 Eu11_2 1_555 1_555
H8_3 O13_3 1_555 1_555
H9_3 O13_3 1_555 1_555
O14_3 Eu11_2 1_555 1_555
N5_3 C20_3 1_555 1_555
N6_2 S3_3 1_555 1_555
C18_3 O22_2 1_555 1_555
C19_3 C18_3 1_555 1_555
C20_3 C19_3 1_555 1_555
C21_3 N6_2 1_555 1_555
C22_3 C21_3 1_555 1_555
C23_3 C19_3 1_555 1_555
H10_3 C23_3 1_555 1_555
C24_3 C22_3 1_555 1_555
H11_3 C24_3 1_555 1_555
O29_2 Eu9 1_555 1_555
N11_2 Eu9 1_555 1_555
S1_3 N2_3 1_555 1_555
C3_3 C4_3 1_555 1_555
C6_3 C7_3 1_555 1_555
O14_3 C18_3 1_555 1_555
C20_3 C21_3 1_555 1_555
C23_3 C24_3 1_555 1_555
O24_2 C25_3 1_555 1_555
O27_2 C25_3 1_555 1_555
O24 C25_4 1_555 1_555
O27 C25_4 1_555 1_555
H7_6 C17_8 1_555 1_555
O11_4 C17_8 1_555 1_555
S3_4 N5_4 1_555 1_555
Eu11 O11_4 1_555 1_555
O13_4 Eu11 1_555 1_555
H8_4 O13_4 1_555 1_555
H9_4 O13_4 1_555 1_555
O14_4 Eu11 1_555 1_555
N5_4 C20_4 1_555 1_555
N9_2 S3_4 1_555 1_555
C18_4 O22 1_555 1_555
C19_4 C18_4 1_555 1_555
C20_4 C19_4 1_555 1_555
C21_4 N9_2 1_555 1_555
C22_4 C21_4 1_555 1_555
C23_4 C19_4 1_555 1_555
H10_4 C23_4 1_555 1_555
C24_4 C22_4 1_555 1_555
H11_4 C24_4 1_555 1_555
N10_2 Eu11 1_555 1_555
O14_4 C18_4 1_555 1_555
C20_4 C21_4 1_555 1_555
C23_4 C24_4 1_555 1_555
S1_4 N1_4 1_555 1_555
O21_2 C1_4 1_555 1_555
O2_4 Eu10 1_555 1_555
H1_4 O2_4 1_555 1_555
H2_4 O2_4 1_555 1_555
O3_4 Eu10 1_555 1_555
O10_4 Eu10 1_555 1_555
N1_4 C3_4 1_555 1_555
C1_4 O3_4 1_555 1_555
C2_4 C1_4 1_555 1_555
C3_4 C2_4 1_555 1_555
C4_4 N2_4 1_555 1_555
C5_4 C4_4 1_555 1_555
C6_4 C2_4 1_555 1_555
H3_4 C6_4 1_555 1_555
C7_4 C5_4 1_555 1_555
H4_4 C7_4 1_555 1_555
C17_9 O10_4 1_555 1_555
H7_7 C17_9 1_555 1_555
S1_4 N2_4 1_555 1_555
C3_4 C4_4 1_555 1_555
C6_4 C7_4 1_555 1_555
S2_4 N10_2 1_555 1_555
O23 C8_4 1_555 1_555
O26 C8_4 1_555 1_555
O6_4 C9_4 1_555 1_555
O28_2 C9_4 1_555 1_555
O30_2 C16_4 1_555 1_555
O9_4 Eu6 1_555 1_555
C9_4 C10_4 1_555 1_555
C10_4 C11_4 1_555 1_555
C11_4 C12_4 1_555 1_555
C12_4 N4_4 1_555 1_555
C13_4 C10_4 1_555 1_555
H5_4 C13_4 1_555 1_555
C14_4 C13_4 1_555 1_555
H6_4 C14_4 1_555 1_555
C15_4 C12_4 1_555 1_555
C16_4 O9_4 1_555 1_555
C14_4 C15_4 1_555 1_555
C15_4 C16_4 1_555 1_555
S4_4 N11_2 1_555 1_555
O17_4 C26_4 1_555 1_555
O29_2 C26_4 1_555 1_555
O31 C33_4 1_555 1_555
O20_4 Eu6_2 1_555 1_555
N11_2 C28_4 1_555 1_555
N8_4 S4_4 1_555 1_555
C26_4 C27_4 1_555 1_555
C27_4 C28_4 1_555 1_555
C28_4 C29_4 1_555 1_555
C29_4 N8_4 1_555 1_555
C30_4 C27_4 1_555 1_555
H12_4 C30_4 1_555 1_555
C31_4 C30_4 1_555 1_555
H13_4 C31_4 1_555 1_555
C32_4 C29_4 1_555 1_555
C33_4 O20_4 1_555 1_555
C31_4 C32_4 1_555 1_555
C32_4 C33_4 1_555 1_555

#END
