
###############################################################################
#
# This file contains modified crystal structure data generated from the
# MOF subset of the Cambridge Structural Database (CSD) v543 
# hosted by the Cambridge Crystallographic Data Centre (CCDC).
#
# This work is licensed under the Creative Commons
# Attribution-NonCommercial-ShareAlike 4.0 International License.
# To view a copy of this license, visit
# http://creativecommons.org/licenses/by-nc-sa/4.0/
# or send a letter to
# Creative Commons, PO Box 1866, Mountain View, CA 94042, USA.
#
# CIF created using the CSD Python API on 29 September 2022
# The structure has been converted into the P1 space group
# The structure has a 3D framework
# The original CSD entry HADLOQ01 is in the tetragonal crystal system
# The original CSD entry HADLOQ01 is in a Sohncke space group
# The framework has been calculated to contain at least 10.0% void space
# The void calculation uses a probe of radius 1.32A, grid spacing 0.4
#
###############################################################################

data_HADLOQ01
_chemical_formula_moiety         '(C72 H32 N16)n'
_symmetry_cell_setting           triclinic
_symmetry_space_group_name_H-M   'P 1'
_symmetry_Int_Tables_number      1
_space_group_name_Hall           'P 1'
loop_
_symmetry_equiv_pos_site_id
_symmetry_equiv_pos_as_xyz
1 x,y,z
_cell_length_a                   13.2909(5)
_cell_length_b                   13.2909(5)
_cell_length_c                   14.3560(6)
_cell_angle_alpha                90
_cell_angle_beta                 90
_cell_angle_gamma                90
_cell_volume                     2535.96
loop_
_atom_site_label
_atom_site_type_symbol
_atom_site_fract_x
_atom_site_fract_y
_atom_site_fract_z
N2 N 0.86751(13) 0.01515(18) 0.29506(12)
C2 C 0.2724(2) -0.0000 0.2500
C3 C 0.3835(2) -0.0000 0.2500
C4 C 0.43648(19) 0.0233(3) 0.32953(19)
D1 D 0.4020 0.0402 0.3837
C5 C 0.5417(2) 0.0219(3) 0.32961(19)
D2 D 0.5759 0.0361 0.3846
C6 C 0.5961(2) -0.0000 0.2500
C7 C 0.7071(2) -0.0000 0.2500
C8 C 0.77138(16) 0.0245(3) 0.32160(16)
H2 H 0.7508 0.0449 0.3806
N3 N 0.11116(13) 0.00718(19) 0.29687(11)
C9 C 0.20793(17) 0.0108(3) 0.32450(17)
H3 H 0.2286 0.0194 0.3859
Co4 Co 0.98912(2) 0.01088(2) 0.3750
N1 N 0.11116(13) 0.99282(19) 0.20313(11)
C1 C 0.20793(17) 0.9892(3) 0.17550(17)
H1 H 0.2286 0.9806 0.1141
C2_2 C 0.2724(2) 1.0000 0.2500
C3_2 C 0.3835(2) 1.0000 0.2500
C6_2 C 0.5961(2) 1.0000 0.2500
C7_2 C 0.7071(2) 1.0000 0.2500
N4 N 0.86751(13) 0.98485(18) 0.20494(12)
C10 C 0.43648(19) 0.9767(3) 0.17047(19)
D3 D 0.4020 0.9598 0.1163
C11 C 0.5417(2) 0.9781(3) 0.17039(19)
D4 D 0.5759 0.9639 0.1154
C12 C 0.77138(16) 0.9755(3) 0.17840(16)
H4 H 0.7508 0.9551 0.1194
Co2 Co 0.98912(2) 0.98912(2) 0.1250
N5 N 0.99282(19) 0.11116(13) 0.04687(11)
N6 N 0.98485(18) 0.86751(13) 0.04506(12)
Co1 Co 0.01088(2) 0.01088(2) 0.6250
N6_2 N 0.01515(18) 0.13249(13) 0.54506(12)
N7 N 0.13249(13) 0.01515(18) 0.70494(12)
Co3 Co 0.01088(2) 0.98912(2) 0.8750
N5_2 N 0.00718(19) 0.88884(13) 0.54687(11)
N1_2 N 0.88884(13) 0.00718(19) 0.70313(11)
C1_2 C 0.79207(17) 0.0108(3) 0.67550(17)
H1_2 H 0.7714 0.0194 0.6141
C2_3 C 0.7276(2) 0.0000 0.7500
C3_3 C 0.6165(2) 0.0000 0.7500
C6_3 C 0.4039(2) 0.0000 0.7500
C7_3 C 0.2929(2) 0.0000 0.7500
C10_2 C 0.56352(19) 0.0233(3) 0.67047(19)
D3_2 D 0.5980 0.0402 0.6163
C11_2 C 0.4583(2) 0.0219(3) 0.67039(19)
D4_2 D 0.4241 0.0361 0.6154
C12_2 C 0.22862(16) 0.0245(3) 0.67840(16)
H4_2 H 0.2492 0.0449 0.6194
N2_2 N 0.13249(13) 0.98485(18) 0.79506(12)
C2_4 C 0.7276(2) 1.0000 0.7500
C3_4 C 0.6165(2) 1.0000 0.7500
C4_2 C 0.56352(19) 0.9767(3) 0.82953(19)
D1_2 D 0.5980 0.9598 0.8837
C5_2 C 0.4583(2) 0.9781(3) 0.82961(19)
D2_2 D 0.4241 0.9639 0.8846
C6_4 C 0.4039(2) 1.0000 0.7500
C7_4 C 0.2929(2) 1.0000 0.7500
C8_2 C 0.22862(16) 0.9755(3) 0.82160(16)
H2_2 H 0.2492 0.9551 0.8806
N3_2 N 0.88884(13) 0.99282(19) 0.79687(11)
C9_2 C 0.79207(17) 0.9892(3) 0.82450(17)
H3_2 H 0.7714 0.9806 0.8859
N1_3 N 0.00718(19) 0.11116(13) 0.95313(11)
C1_3 C 0.0108(3) 0.20793(17) 0.92550(17)
H1_3 H 0.0194 0.2286 0.8641
C2_5 C -0.0000 0.2724(2) 1.0000
C3_5 C 0.0000 0.3835(2) 1.0000
C6_5 C -0.0000 0.5961(2) 1.0000
C7_5 C 0.0000 0.7071(2) 1.0000
N4_2 N 0.01515(18) 0.86751(13) 0.95494(12)
C10_3 C 0.0233(3) 0.43648(19) 0.92047(19)
D3_3 D 0.0402 0.4020 0.8663
C11_3 C 0.0219(3) 0.5417(2) 0.92039(19)
D4_3 D 0.0361 0.5759 0.8654
C12_3 C 0.0245(3) 0.77138(16) 0.92840(16)
H4_3 H 0.0449 0.7508 0.8694
C2_6 C 1.0000 0.2724(2) 0.0000
C3_6 C 1.0000 0.3835(2) 0.0000
C4_3 C 0.9767(3) 0.43648(19) 0.07953(19)
D1_3 D 0.9598 0.4020 0.1337
C5_3 C 0.9781(3) 0.5417(2) 0.07961(19)
D2_3 D 0.9639 0.5759 0.1346
C6_6 C 1.0000 0.5961(2) 0.0000
C7_6 C 1.0000 0.7071(2) 0.0000
C8_3 C 0.9755(3) 0.77138(16) 0.07160(16)
H2_3 H 0.9551 0.7508 0.1306
C9_3 C 0.9892(3) 0.20793(17) 0.07450(17)
H3_3 H 0.9806 0.2286 0.1359
C2_7 C 0.0000 0.7276(2) 0.5000
C3_7 C -0.0000 0.6165(2) 0.5000
C4_4 C 0.0233(3) 0.56352(19) 0.57953(19)
D1_4 D 0.0402 0.5980 0.6337
C5_4 C 0.0219(3) 0.4583(2) 0.57961(19)
D2_4 D 0.0361 0.4241 0.6346
C6_7 C 0.0000 0.4039(2) 0.5000
C7_7 C -0.0000 0.2929(2) 0.5000
C8_4 C 0.0245(3) 0.22862(16) 0.57160(16)
H2_4 H 0.0449 0.2492 0.6306
C9_4 C 0.0108(3) 0.79207(17) 0.57450(17)
H3_4 H 0.0194 0.7714 0.6359
N7_2 N 0.98485(18) 0.13249(13) 0.45494(12)
N1_4 N 0.99282(19) 0.88884(13) 0.45313(11)
C1_4 C 0.9892(3) 0.79207(17) 0.42550(17)
H1_4 H 0.9806 0.7714 0.3641
C2_8 C 1.0000 0.7276(2) 0.5000
C3_8 C 1.0000 0.6165(2) 0.5000
C6_8 C 1.0000 0.4039(2) 0.5000
C7_8 C 1.0000 0.2929(2) 0.5000
C10_4 C 0.9767(3) 0.56352(19) 0.42047(19)
D3_4 D 0.9598 0.5980 0.3663
C11_4 C 0.9781(3) 0.4583(2) 0.42039(19)
D4_4 D 0.9639 0.4241 0.3654
C12_4 C 0.9755(3) 0.22862(16) 0.42840(16)
H4_4 H 0.9551 0.2492 0.3694
C2_9 C 0.0000 0.2724(2) 0.0000
C3_9 C 0.0000 0.3835(2) 0.0000
C6_9 C -0.0000 0.5961(2) 0.0000
C7_9 C -0.0000 0.7071(2) 0.0000
C2_10 C 1.0000 0.2724(2) 1.0000
C3_10 C 1.0000 0.3835(2) 1.0000
C6_10 C 1.0000 0.5961(2) 1.0000
C7_10 C 1.0000 0.7071(2) 1.0000
loop_
_geom_bond_atom_site_label_1
_geom_bond_atom_site_label_2
_geom_bond_site_symmetry_1
_geom_bond_site_symmetry_2
N2 C8 1_555 1_555
C3 C2 1_555 1_555
C4 C3 1_555 1_555
D1 C4 1_555 1_555
C5 C4 1_555 1_555
D2 C5 1_555 1_555
C6 C5 1_555 1_555
C7 C6 1_555 1_555
C8 C7 1_555 1_555
H2 C8 1_555 1_555
C9 C2 1_555 1_555
H3 C9 1_555 1_555
Co4 N2 1_555 1_555
N3 C9 1_555 1_555
N1 C1 1_555 1_555
C1 H1 1_555 1_555
C2_2 C1 1_555 1_555
C3_2 C2_2 1_555 1_555
C7_2 C6_2 1_555 1_555
C10 C3_2 1_555 1_555
D3 C10 1_555 1_555
C11 C6_2 1_555 1_555
D4 C11 1_555 1_555
C12 C7_2 1_555 1_555
H4 C12 1_555 1_555
Co2 N4 1_555 1_555
N4 C12 1_555 1_555
C10 C11 1_555 1_555
N6 Co2 1_555 1_555
N6_2 Co1 1_555 1_555
N7 Co1 1_555 1_555
N1_2 C1_2 1_555 1_555
C1_2 H1_2 1_555 1_555
C2_3 C1_2 1_555 1_555
C3_3 C2_3 1_555 1_555
C7_3 C6_3 1_555 1_555
C10_2 C3_3 1_555 1_555
D3_2 C10_2 1_555 1_555
C11_2 C6_3 1_555 1_555
D4_2 C11_2 1_555 1_555
C12_2 C7_3 1_555 1_555
H4_2 C12_2 1_555 1_555
N7 C12_2 1_555 1_555
C10_2 C11_2 1_555 1_555
N2_2 C8_2 1_555 1_555
C3_4 C2_4 1_555 1_555
C4_2 C3_4 1_555 1_555
D1_2 C4_2 1_555 1_555
C5_2 C4_2 1_555 1_555
D2_2 C5_2 1_555 1_555
C6_4 C5_2 1_555 1_555
C7_4 C6_4 1_555 1_555
C8_2 C7_4 1_555 1_555
H2_2 C8_2 1_555 1_555
C9_2 C2_4 1_555 1_555
H3_2 C9_2 1_555 1_555
Co3 N2_2 1_555 1_555
N3_2 C9_2 1_555 1_555
N1_3 C1_3 1_555 1_555
C1_3 H1_3 1_555 1_555
C2_5 C1_3 1_555 1_555
C3_5 C2_5 1_555 1_555
C7_5 C6_5 1_555 1_555
C10_3 C3_5 1_555 1_555
D3_3 C10_3 1_555 1_555
C11_3 C6_5 1_555 1_555
D4_3 C11_3 1_555 1_555
C12_3 C7_5 1_555 1_555
H4_3 C12_3 1_555 1_555
Co3 N4_2 1_555 1_555
N4_2 C12_3 1_555 1_555
C10_3 C11_3 1_555 1_555
N6 C8_3 1_555 1_555
C3_6 C2_6 1_555 1_555
C4_3 C3_6 1_555 1_555
D1_3 C4_3 1_555 1_555
C5_3 C4_3 1_555 1_555
D2_3 C5_3 1_555 1_555
C6_6 C5_3 1_555 1_555
C7_6 C6_6 1_555 1_555
C8_3 C7_6 1_555 1_555
H2_3 C8_3 1_555 1_555
C9_3 C2_6 1_555 1_555
H3_3 C9_3 1_555 1_555
N5 C9_3 1_555 1_555
N6_2 C8_4 1_555 1_555
C3_7 C2_7 1_555 1_555
C4_4 C3_7 1_555 1_555
D1_4 C4_4 1_555 1_555
C5_4 C4_4 1_555 1_555
D2_4 C5_4 1_555 1_555
C6_7 C5_4 1_555 1_555
C7_7 C6_7 1_555 1_555
C8_4 C7_7 1_555 1_555
H2_4 C8_4 1_555 1_555
C9_4 C2_7 1_555 1_555
H3_4 C9_4 1_555 1_555
N5_2 C9_4 1_555 1_555
N7_2 Co4 1_555 1_555
N1_4 C1_4 1_555 1_555
C1_4 H1_4 1_555 1_555
C2_8 C1_4 1_555 1_555
C3_8 C2_8 1_555 1_555
C7_8 C6_8 1_555 1_555
C10_4 C3_8 1_555 1_555
D3_4 C10_4 1_555 1_555
C11_4 C6_8 1_555 1_555
D4_4 C11_4 1_555 1_555
C12_4 C7_8 1_555 1_555
H4_4 C12_4 1_555 1_555
N7_2 C12_4 1_555 1_555
C10_4 C11_4 1_555 1_555
C3_9 C2_9 1_555 1_555
C7_9 C6_9 1_555 1_555
C3_10 C2_10 1_555 1_555
C7_10 C6_10 1_555 1_555

#END
