
###############################################################################
#
# This file contains modified crystal structure data generated from the
# MOF subset of the Cambridge Structural Database (CSD) v543 
# hosted by the Cambridge Crystallographic Data Centre (CCDC).
#
# This work is licensed under the Creative Commons
# Attribution-NonCommercial-ShareAlike 4.0 International License.
# To view a copy of this license, visit
# http://creativecommons.org/licenses/by-nc-sa/4.0/
# or send a letter to
# Creative Commons, PO Box 1866, Mountain View, CA 94042, USA.
#
# CIF created using the CSD Python API on 29 September 2022
# The structure has been converted into the P1 space group
# The structure has a 3D framework
# The original CSD entry HADMAD is in the monoclinic crystal system
# The framework has been calculated to contain at least 10.0% void space
# The void calculation uses a probe of radius 1.32A, grid spacing 0.4
#
###############################################################################

data_HADMAD
_chemical_formula_moiety         '(C56 H24 Co1 F8 N16)n'
_symmetry_cell_setting           triclinic
_symmetry_space_group_name_H-M   'P 1'
_symmetry_Int_Tables_number      1
_space_group_name_Hall           'P 1'
loop_
_symmetry_equiv_pos_site_id
_symmetry_equiv_pos_as_xyz
1 x,y,z
_cell_length_a                   20.9119(96)
_cell_length_b                   16.5299(52)
_cell_length_c                   6.9496(12)
_cell_angle_alpha                90
_cell_angle_beta                 98.143(16)
_cell_angle_gamma                90
_cell_volume                     2378.06
loop_
_atom_site_label
_atom_site_type_symbol
_atom_site_fract_x
_atom_site_fract_y
_atom_site_fract_z
_atom_site_U_iso_or_equiv
_atom_site_thermal_displace_type
Co1 Co 0.500 0.5161(24) 0.250 0.0001 Uiso
C1 C 0.222(6) 0.244(13) 0.16(2) 0.0001 Uiso
C2 C 0.278(6) 0.282(13) 0.16(2) 0.0010 Uiso
C3 C 0.311(6) 0.288(13) 0.00(2) 0.0001 Uiso
C4 C 0.362(6) 0.345(13) 0(2) 0.0001 Uiso
C5 C 0.378(6) 0.403(13) 0.13(2) 0.0001 Uiso
F1 F 0.306(6) 0.324(13) 0.32(2) 0.0008 Uiso
N1 N 0.432(6) 0.440(13) 0.11(2) 0.0001 Uiso
H1 H 0.202564 0.239408 0.295267 0.0001 Uiso
H2 H 0.348835 0.418491 0.242413 0.0001 Uiso
C9 C 0.189(6) 0.212(13) 0.00(2) 0.0001 Uiso
C10 C 0.138(6) 0.155(13) 0(2) 0.0001 Uiso
C12 C 0.093(6) 0.156(13) 0.12(2) 0.0003 Uiso
N4 N 0.052(6) 0.096(13) 0.08(2) 0.0010 Uiso
H6 H 0.090754 0.201437 0.228129 0.0001 Uiso
Co4 Co 0.000 0.0161(24) 0.250 0.0001 Uiso
N5 N 0.568(6) 0.440(13) 0.39(2) 0.0001 Uiso
N6 N 0.552(6) 0.596(13) 0.08(2) 0.0010 Uiso
N7 N 0.448(6) 0.596(13) 0.42(2) 0.0010 Uiso
C3_2 C 0.311(6) 0.288(13) 1.00(2) 0.0001 Uiso
C4_2 C 0.362(6) 0.345(13) 1(2) 0.0001 Uiso
C6 C 0.407(6) 0.344(13) 0.88(2) 0.0003 Uiso
N2 N 0.448(6) 0.404(13) 0.92(2) 0.0010 Uiso
H3 H 0.409246 0.298563 0.771871 0.0001 Uiso
C7 C 0.278(6) 0.256(13) 0.84(2) 0.0001 Uiso
C8 C 0.222(6) 0.218(13) 0.84(2) 0.0010 Uiso
C9_2 C 0.189(6) 0.212(13) 1.00(2) 0.0001 Uiso
C10_2 C 0.138(6) 0.155(13) 1(2) 0.0001 Uiso
C11 C 0.122(6) 0.097(13) 0.87(2) 0.0001 Uiso
F2 F 0.194(6) 0.176(13) 0.68(2) 0.0008 Uiso
N3 N 0.068(6) 0.060(13) 0.89(2) 0.0001 Uiso
H4 H 0.297436 0.260592 0.704733 0.0001 Uiso
H5 H 0.151165 0.081509 0.757587 0.0001 Uiso
Co2 Co 0.500 0.4839(24) 0.750 0.0001 Uiso
Co3 Co 0.000 0.9839(24) 0.750 0.0001 Uiso
Co4_2 Co 1.000 0.0161(24) 0.250 0.0001 Uiso
Co3_2 Co 1.000 0.9839(24) 0.750 0.0001 Uiso
C1_2 C 0.778(6) 0.244(13) 0.34(2) 0.0001 Uiso
C2_2 C 0.722(6) 0.282(13) 0.34(2) 0.0010 Uiso
C3_3 C 0.689(6) 0.288(13) 0.50(2) 0.0001 Uiso
C4_3 C 0.638(6) 0.345(13) 0(2) 0.0001 Uiso
C5_2 C 0.622(6) 0.403(13) 0.37(2) 0.0001 Uiso
C6_2 C 0.593(6) 0.344(13) 0.62(2) 0.0003 Uiso
F1_2 F 0.694(6) 0.324(13) 0.18(2) 0.0008 Uiso
N2_2 N 0.552(6) 0.404(13) 0.58(2) 0.0010 Uiso
H1_2 H 0.797436 0.239408 0.204733 0.0001 Uiso
H2_2 H 0.651165 0.418491 0.257587 0.0001 Uiso
H3_2 H 0.590754 0.298563 0.728129 0.0001 Uiso
C7_2 C 0.722(6) 0.256(13) 0.66(2) 0.0001 Uiso
C8_2 C 0.778(6) 0.218(13) 0.66(2) 0.0010 Uiso
C9_3 C 0.811(6) 0.212(13) 0.50(2) 0.0001 Uiso
C10_3 C 0.862(6) 0.155(13) 0(2) 0.0001 Uiso
C11_2 C 0.878(6) 0.097(13) 0.63(2) 0.0001 Uiso
C12_2 C 0.907(6) 0.156(13) 0.38(2) 0.0003 Uiso
F2_2 F 0.806(6) 0.176(13) 0.82(2) 0.0008 Uiso
N3_2 N 0.932(6) 0.060(13) 0.61(2) 0.0001 Uiso
N4_2 N 0.948(6) 0.096(13) 0.42(2) 0.0010 Uiso
H4_2 H 0.702564 0.260592 0.795267 0.0001 Uiso
H5_2 H 0.848835 0.081509 0.742413 0.0001 Uiso
H6_2 H 0.909246 0.201437 0.271871 0.0001 Uiso
C1_3 C 0.278(6) 0.744(13) 0.34(2) 0.0001 Uiso
C2_3 C 0.222(6) 0.782(13) 0.34(2) 0.0010 Uiso
C3_4 C 0.189(6) 0.788(13) 0.50(2) 0.0001 Uiso
C4_4 C 0.138(6) 0.845(13) 0(2) 0.0001 Uiso
C5_3 C 0.122(6) 0.903(13) 0.37(2) 0.0001 Uiso
C6_3 C 0.093(6) 0.844(13) 0.62(2) 0.0003 Uiso
F1_3 F 0.194(6) 0.824(13) 0.18(2) 0.0008 Uiso
N1_2 N 0.068(6) 0.940(13) 0.39(2) 0.0001 Uiso
N2_3 N 0.052(6) 0.904(13) 0.58(2) 0.0010 Uiso
H1_3 H 0.297436 0.739408 0.204733 0.0001 Uiso
H2_3 H 0.151165 0.918491 0.257587 0.0001 Uiso
H3_3 H 0.090754 0.798563 0.728129 0.0001 Uiso
C7_3 C 0.222(6) 0.756(13) 0.66(2) 0.0001 Uiso
C8_3 C 0.278(6) 0.718(13) 0.66(2) 0.0010 Uiso
C9_4 C 0.311(6) 0.712(13) 0.50(2) 0.0001 Uiso
C10_4 C 0.362(6) 0.655(13) 0(2) 0.0001 Uiso
C11_3 C 0.378(6) 0.597(13) 0.63(2) 0.0001 Uiso
C12_3 C 0.407(6) 0.656(13) 0.38(2) 0.0003 Uiso
F2_3 F 0.306(6) 0.676(13) 0.82(2) 0.0008 Uiso
N3_3 N 0.432(6) 0.560(13) 0.61(2) 0.0001 Uiso
H4_3 H 0.202564 0.760592 0.795267 0.0001 Uiso
H5_3 H 0.348835 0.581509 0.742413 0.0001 Uiso
H6_3 H 0.409246 0.701437 0.271871 0.0001 Uiso
N5_2 N 0.932(6) 0.940(13) 0.11(2) 0.0001 Uiso
C1_4 C 0.722(6) 0.744(13) 0.16(2) 0.0001 Uiso
C2_4 C 0.778(6) 0.782(13) 0.16(2) 0.0010 Uiso
C3_5 C 0.811(6) 0.788(13) 0.00(2) 0.0001 Uiso
C4_5 C 0.862(6) 0.845(13) 0(2) 0.0001 Uiso
C5_4 C 0.878(6) 0.903(13) 0.13(2) 0.0001 Uiso
F1_4 F 0.806(6) 0.824(13) 0.32(2) 0.0008 Uiso
H1_4 H 0.702564 0.739408 0.295267 0.0001 Uiso
H2_4 H 0.848835 0.918491 0.242413 0.0001 Uiso
C9_5 C 0.689(6) 0.712(13) 0.00(2) 0.0001 Uiso
C10_5 C 0.638(6) 0.655(13) 0(2) 0.0001 Uiso
C12_4 C 0.593(6) 0.656(13) 0.12(2) 0.0003 Uiso
H6_4 H 0.590754 0.701437 0.228129 0.0001 Uiso
C3_6 C 0.811(6) 0.788(13) 1.00(2) 0.0001 Uiso
C4_6 C 0.862(6) 0.845(13) 1(2) 0.0001 Uiso
C6_4 C 0.907(6) 0.844(13) 0.88(2) 0.0003 Uiso
N2_4 N 0.948(6) 0.904(13) 0.92(2) 0.0010 Uiso
H3_4 H 0.909246 0.798563 0.771871 0.0001 Uiso
C7_4 C 0.778(6) 0.756(13) 0.84(2) 0.0001 Uiso
C8_4 C 0.722(6) 0.718(13) 0.84(2) 0.0010 Uiso
C9_6 C 0.689(6) 0.712(13) 1.00(2) 0.0001 Uiso
C10_6 C 0.638(6) 0.655(13) 1(2) 0.0001 Uiso
C11_4 C 0.622(6) 0.597(13) 0.87(2) 0.0001 Uiso
F2_4 F 0.694(6) 0.676(13) 0.68(2) 0.0008 Uiso
N3_4 N 0.568(6) 0.560(13) 0.89(2) 0.0001 Uiso
H4_4 H 0.797436 0.760592 0.704733 0.0001 Uiso
H5_4 H 0.651165 0.581509 0.757587 0.0001 Uiso
loop_
_geom_bond_atom_site_label_1
_geom_bond_atom_site_label_2
_geom_bond_site_symmetry_1
_geom_bond_site_symmetry_2
Co1 N1 1_555 1_555
C1 C2 1_555 1_555
C2 C3 1_555 1_555
C3 C4 1_555 1_555
C4 C5 1_555 1_555
C5 N1 1_555 1_555
F1 C2 1_555 1_555
H1 C1 1_555 1_555
H2 C5 1_555 1_555
C9 C1 1_555 1_555
C10 C9 1_555 1_555
C12 C10 1_555 1_555
N4 C12 1_555 1_555
H6 C12 1_555 1_555
Co4 N4 1_555 1_555
N5 Co1 1_555 1_555
N6 Co1 1_555 1_555
N7 Co1 1_555 1_555
C3_2 C4_2 1_555 1_555
C6 C4_2 1_555 1_555
N2 C6 1_555 1_555
H3 C6 1_555 1_555
C7 C3_2 1_555 1_555
C8 C7 1_555 1_555
C10_2 C9_2 1_555 1_555
C11 C10_2 1_555 1_555
F2 C8 1_555 1_555
N3 C11 1_555 1_555
H4 C7 1_555 1_555
H5 C11 1_555 1_555
Co2 N2 1_555 1_555
C8 C9_2 1_555 1_555
C1_2 C2_2 1_555 1_555
C2_2 C3_3 1_555 1_555
C3_3 C4_3 1_555 1_555
C4_3 C5_2 1_555 1_555
C5_2 N5 1_555 1_555
C6_2 C4_3 1_555 1_555
F1_2 C2_2 1_555 1_555
N5 N2_2 1_555 1_555
N2_2 C6_2 1_555 1_555
H1_2 C1_2 1_555 1_555
H2_2 C5_2 1_555 1_555
H3_2 C6_2 1_555 1_555
C7_2 C3_3 1_555 1_555
C8_2 C7_2 1_555 1_555
C9_3 C1_2 1_555 1_555
C10_3 C9_3 1_555 1_555
C11_2 C10_3 1_555 1_555
C12_2 C10_3 1_555 1_555
F2_2 C8_2 1_555 1_555
N3_2 C11_2 1_555 1_555
N4_2 C12_2 1_555 1_555
H4_2 C7_2 1_555 1_555
H5_2 C11_2 1_555 1_555
H6_2 C12_2 1_555 1_555
Co2 N2_2 1_555 1_555
Co4_2 N4_2 1_555 1_555
C8_2 C9_3 1_555 1_555
N3_2 N4_2 1_555 1_555
C1_3 C2_3 1_555 1_555
C2_3 C3_4 1_555 1_555
C3_4 C4_4 1_555 1_555
C4_4 C5_3 1_555 1_555
C5_3 N1_2 1_555 1_555
C6_3 C4_4 1_555 1_555
F1_3 C2_3 1_555 1_555
N1_2 N2_3 1_555 1_555
N2_3 C6_3 1_555 1_555
H1_3 C1_3 1_555 1_555
H2_3 C5_3 1_555 1_555
H3_3 C6_3 1_555 1_555
C7_3 C3_4 1_555 1_555
C8_3 C7_3 1_555 1_555
C9_4 C1_3 1_555 1_555
C10_4 C9_4 1_555 1_555
C11_3 C10_4 1_555 1_555
C12_3 C10_4 1_555 1_555
F2_3 C8_3 1_555 1_555
N3_3 C11_3 1_555 1_555
N7 C12_3 1_555 1_555
H4_3 C7_3 1_555 1_555
H5_3 C11_3 1_555 1_555
H6_3 C12_3 1_555 1_555
Co3 N2_3 1_555 1_555
Co2 N3_3 1_555 1_555
C8_3 C9_4 1_555 1_555
N3_3 N7 1_555 1_555
C1_4 C2_4 1_555 1_555
C2_4 C3_5 1_555 1_555
C3_5 C4_5 1_555 1_555
C4_5 C5_4 1_555 1_555
C5_4 N5_2 1_555 1_555
F1_4 C2_4 1_555 1_555
H1_4 C1_4 1_555 1_555
H2_4 C5_4 1_555 1_555
C9_5 C1_4 1_555 1_555
C10_5 C9_5 1_555 1_555
C12_4 C10_5 1_555 1_555
N6 C12_4 1_555 1_555
H6_4 C12_4 1_555 1_555
C3_6 C4_6 1_555 1_555
C6_4 C4_6 1_555 1_555
N2_4 C6_4 1_555 1_555
H3_4 C6_4 1_555 1_555
C7_4 C3_6 1_555 1_555
C8_4 C7_4 1_555 1_555
C10_6 C9_6 1_555 1_555
C11_4 C10_6 1_555 1_555
F2_4 C8_4 1_555 1_555
N3_4 C11_4 1_555 1_555
H4_4 C7_4 1_555 1_555
H5_4 C11_4 1_555 1_555
Co3_2 N2_4 1_555 1_555
Co2 N3_4 1_555 1_555
C8_4 C9_6 1_555 1_555

#END
