
###############################################################################
#
# This file contains modified crystal structure data generated from the
# MOF subset of the Cambridge Structural Database (CSD) v543 
# hosted by the Cambridge Crystallographic Data Centre (CCDC).
#
# This work is licensed under the Creative Commons
# Attribution-NonCommercial-ShareAlike 4.0 International License.
# To view a copy of this license, visit
# http://creativecommons.org/licenses/by-nc-sa/4.0/
# or send a letter to
# Creative Commons, PO Box 1866, Mountain View, CA 94042, USA.
#
# CIF created using the CSD Python API on 29 September 2022
# The structure has been converted into the P1 space group
# The structure has a 3D framework
# The original CSD entry HADMIL is in the monoclinic crystal system
# The framework has been calculated to contain at least 10.0% void space
# The void calculation uses a probe of radius 1.32A, grid spacing 0.4
#
###############################################################################

data_HADMIL
_chemical_formula_moiety         '(C56 H48 Co2 N16)n'
_symmetry_cell_setting           triclinic
_symmetry_space_group_name_H-M   'P 1'
_symmetry_Int_Tables_number      1
_space_group_name_Hall           'P 1'
loop_
_symmetry_equiv_pos_site_id
_symmetry_equiv_pos_as_xyz
1 x,y,z
_cell_length_a                   24.6401(30)
_cell_length_b                   8.69621(90)
_cell_length_c                   7.12945(63)
_cell_angle_alpha                90
_cell_angle_beta                 90.081(13)
_cell_angle_gamma                90
_cell_volume                     1527.66
loop_
_atom_site_label
_atom_site_type_symbol
_atom_site_fract_x
_atom_site_fract_y
_atom_site_fract_z
_atom_site_U_iso_or_equiv
_atom_site_thermal_displace_type
Co1 Co 0.500 0.03517(71) 0.250 0.0002 Uiso
C1 C 0.4050(4) 0.203(1) 0.393(3) 0.0002 Uiso
C2 C 0.3892(4) 0.117(1) 0.678(3) 0.0002 Uiso
C3 C 0.3658(4) 0.183(1) 0.525(3) 0.0002 Uiso
C4 C 0.3072(4) 0.226(1) 0.505(3) 0.0002 Uiso
C5 C 0.2807(4) 0.303(1) 0.652(3) 0.0002 Uiso
C6 C 0.3127(4) 0.363(1) 0.815(3) 0.0002 Uiso
C7 C 0.2245(4) 0.325(1) 0.645(3) 0.0002 Uiso
N1 N 0.4525(4) 0.149(1) 0.464(3) 0.0002 Uiso
N2 N 0.4428(4) 0.096(1) 0.640(3) 0.0002 Uiso
H1 H 0.399288 0.253488 0.254591 0.0002 Uiso
H2 H 0.368676 0.086379 0.807919 0.0002 Uiso
H3 H 0.34253 0.445895 0.765351 0.0002 Uiso
H4 H 0.285428 0.418747 0.913983 0.0002 Uiso
H5 H 0.333416 0.267998 0.884219 0.0002 Uiso
H6 H 0.204737 0.384138 0.760934 0.0002 Uiso
C8 C 0.0950(4) 0.297(1) 0.607(3) 0.0002 Uiso
C9 C 0.1108(4) 0.383(1) 0.322(3) 0.0002 Uiso
C10 C 0.1342(4) 0.317(1) 0.475(3) 0.0002 Uiso
C11 C 0.1928(4) 0.274(1) 0.495(3) 0.0002 Uiso
C12 C 0.2193(4) 0.197(1) 0.348(3) 0.0002 Uiso
C13 C 0.1873(4) 0.137(1) 0.185(3) 0.0002 Uiso
C14 C 0.2755(4) 0.175(1) 0.355(3) 0.0002 Uiso
N3 N 0.0475(4) 0.351(1) 0.536(3) 0.0002 Uiso
N4 N 0.0572(4) 0.404(1) 0.360(3) 0.0002 Uiso
H7 H 0.100712 0.246512 0.745409 0.0002 Uiso
H8 H 0.131324 0.413621 0.192081 0.0002 Uiso
H9 H 0.15747 0.054105 0.234649 0.0002 Uiso
H10 H 0.214572 0.081253 0.086017 0.0002 Uiso
H11 H 0.166584 0.232002 0.115781 0.0002 Uiso
H12 H 0.295263 0.115862 0.239066 0.0002 Uiso
Co3 Co 0.000 0.46483(71) 0.750 0.0002 Uiso
Co4 Co 0.000 0.53517(71) 0.250 0.0002 Uiso
N5 N 0.5475(4) 0.149(1) 0.036(3) 0.0002 Uiso
Co2 Co 0.500 0.96483(71) 0.750 0.0002 Uiso
N6 N 0.5572(4) 0.904(1) 0.360(3) 0.0002 Uiso
N7 N 0.4428(4) 0.904(1) 0.140(3) 0.0002 Uiso
Co3_2 Co 1.000 0.46483(71) 0.750 0.0002 Uiso
Co4_2 Co 1.000 0.53517(71) 0.250 0.0002 Uiso
C1_2 C 0.5950(4) 0.203(1) 0.107(3) 0.0002 Uiso
H1_2 H 0.600712 0.253488 0.245409 0.0002 Uiso
C9_2 C 0.8892(4) 0.383(1) 0.178(3) 0.0002 Uiso
C10_2 C 0.8658(4) 0.317(1) 0.025(3) 0.0002 Uiso
C11_2 C 0.8072(4) 0.274(1) 0.005(3) 0.0002 Uiso
C12_2 C 0.7807(4) 0.197(1) 0.152(3) 0.0002 Uiso
C13_2 C 0.8127(4) 0.137(1) 0.315(3) 0.0002 Uiso
C14_2 C 0.7245(4) 0.175(1) 0.145(3) 0.0002 Uiso
N4_2 N 0.9428(4) 0.404(1) 0.140(3) 0.0002 Uiso
H8_2 H 0.868676 0.413621 0.307919 0.0002 Uiso
H9_2 H 0.84253 0.054105 0.265351 0.0002 Uiso
H10_2 H 0.785428 0.081253 0.413983 0.0002 Uiso
H11_2 H 0.833416 0.232002 0.384219 0.0002 Uiso
H12_2 H 0.704737 0.115862 0.260934 0.0002 Uiso
C2_2 C 0.6108(4) 0.117(1) 0.822(3) 0.0002 Uiso
C3_2 C 0.6342(4) 0.183(1) 0.975(3) 0.0002 Uiso
C4_2 C 0.6928(4) 0.226(1) 0.995(3) 0.0002 Uiso
C5_2 C 0.7193(4) 0.303(1) 0.848(3) 0.0002 Uiso
C6_2 C 0.6873(4) 0.363(1) 0.685(3) 0.0002 Uiso
C7_2 C 0.7755(4) 0.325(1) 0.855(3) 0.0002 Uiso
N2_2 N 0.5572(4) 0.096(1) 0.860(3) 0.0002 Uiso
H2_2 H 0.631324 0.086379 0.692081 0.0002 Uiso
H3_2 H 0.65747 0.445895 0.734649 0.0002 Uiso
H4_2 H 0.714572 0.418747 0.586017 0.0002 Uiso
H5_2 H 0.666584 0.267998 0.615781 0.0002 Uiso
H6_2 H 0.795263 0.384138 0.739066 0.0002 Uiso
C8_2 C 0.9050(4) 0.297(1) 0.893(3) 0.0002 Uiso
N3_2 N 0.9525(4) 0.351(1) 0.964(3) 0.0002 Uiso
H7_2 H 0.899288 0.246512 0.754591 0.0002 Uiso
C1_3 C 0.0950(4) 0.703(1) 0.107(3) 0.0002 Uiso
N1_2 N 0.0475(4) 0.649(1) 0.036(3) 0.0002 Uiso
H1_3 H 0.100712 0.753488 0.245409 0.0002 Uiso
C9_3 C 0.3892(4) 0.883(1) 0.178(3) 0.0002 Uiso
C10_3 C 0.3658(4) 0.817(1) 0.025(3) 0.0002 Uiso
C11_3 C 0.3072(4) 0.774(1) 0.005(3) 0.0002 Uiso
C12_3 C 0.2807(4) 0.697(1) 0.152(3) 0.0002 Uiso
C13_3 C 0.3127(4) 0.637(1) 0.315(3) 0.0002 Uiso
C14_3 C 0.2245(4) 0.675(1) 0.145(3) 0.0002 Uiso
H8_3 H 0.368676 0.913621 0.307919 0.0002 Uiso
H9_3 H 0.34253 0.554105 0.265351 0.0002 Uiso
H10_3 H 0.285428 0.581253 0.413983 0.0002 Uiso
H11_3 H 0.333416 0.732002 0.384219 0.0002 Uiso
H12_3 H 0.204737 0.615862 0.260934 0.0002 Uiso
C2_3 C 0.1108(4) 0.617(1) 0.822(3) 0.0002 Uiso
C3_3 C 0.1342(4) 0.683(1) 0.975(3) 0.0002 Uiso
C4_3 C 0.1928(4) 0.726(1) 0.995(3) 0.0002 Uiso
C5_3 C 0.2193(4) 0.803(1) 0.848(3) 0.0002 Uiso
C6_3 C 0.1873(4) 0.863(1) 0.685(3) 0.0002 Uiso
C7_3 C 0.2755(4) 0.825(1) 0.855(3) 0.0002 Uiso
N2_3 N 0.0572(4) 0.596(1) 0.860(3) 0.0002 Uiso
H2_3 H 0.131324 0.586379 0.692081 0.0002 Uiso
H3_3 H 0.15747 0.945895 0.734649 0.0002 Uiso
H4_3 H 0.214572 0.918747 0.586017 0.0002 Uiso
H5_3 H 0.166584 0.767998 0.615781 0.0002 Uiso
H6_3 H 0.295263 0.884138 0.739066 0.0002 Uiso
C8_3 C 0.4050(4) 0.797(1) 0.893(3) 0.0002 Uiso
N3_3 N 0.4525(4) 0.851(1) 0.964(3) 0.0002 Uiso
H7_3 H 0.399288 0.746512 0.754591 0.0002 Uiso
N5_2 N 0.9525(4) 0.649(1) 0.464(3) 0.0002 Uiso
C1_4 C 0.9050(4) 0.703(1) 0.393(3) 0.0002 Uiso
C2_4 C 0.8892(4) 0.617(1) 0.678(3) 0.0002 Uiso
C3_4 C 0.8658(4) 0.683(1) 0.525(3) 0.0002 Uiso
C4_4 C 0.8072(4) 0.726(1) 0.505(3) 0.0002 Uiso
C5_4 C 0.7807(4) 0.803(1) 0.652(3) 0.0002 Uiso
C6_4 C 0.8127(4) 0.863(1) 0.815(3) 0.0002 Uiso
C7_4 C 0.7245(4) 0.825(1) 0.645(3) 0.0002 Uiso
N2_4 N 0.9428(4) 0.596(1) 0.640(3) 0.0002 Uiso
H1_4 H 0.899288 0.753488 0.254591 0.0002 Uiso
H2_4 H 0.868676 0.586379 0.807919 0.0002 Uiso
H3_4 H 0.84253 0.945895 0.765351 0.0002 Uiso
H4_4 H 0.785428 0.918747 0.913983 0.0002 Uiso
H5_4 H 0.833416 0.767998 0.884219 0.0002 Uiso
H6_4 H 0.704737 0.884138 0.760934 0.0002 Uiso
C8_4 C 0.5950(4) 0.797(1) 0.607(3) 0.0002 Uiso
C9_4 C 0.6108(4) 0.883(1) 0.322(3) 0.0002 Uiso
C10_4 C 0.6342(4) 0.817(1) 0.475(3) 0.0002 Uiso
C11_4 C 0.6928(4) 0.774(1) 0.495(3) 0.0002 Uiso
C12_4 C 0.7193(4) 0.697(1) 0.348(3) 0.0002 Uiso
C13_4 C 0.6873(4) 0.637(1) 0.185(3) 0.0002 Uiso
C14_4 C 0.7755(4) 0.675(1) 0.355(3) 0.0002 Uiso
N3_4 N 0.5475(4) 0.851(1) 0.536(3) 0.0002 Uiso
H7_4 H 0.600712 0.746512 0.745409 0.0002 Uiso
H8_4 H 0.631324 0.913621 0.192081 0.0002 Uiso
H9_4 H 0.65747 0.554105 0.234649 0.0002 Uiso
H10_4 H 0.714572 0.581253 0.086017 0.0002 Uiso
H11_4 H 0.666584 0.732002 0.115781 0.0002 Uiso
H12_4 H 0.795263 0.615862 0.239066 0.0002 Uiso
loop_
_geom_bond_atom_site_label_1
_geom_bond_atom_site_label_2
_geom_bond_site_symmetry_1
_geom_bond_site_symmetry_2
Co1 N1 1_555 1_555
C1 C3 1_555 1_555
C2 C3 1_555 1_555
C3 C4 1_555 1_555
C4 C5 1_555 1_555
C5 C6 1_555 1_555
C6 H3 1_555 1_555
C7 C5 1_555 1_555
N1 C1 1_555 1_555
N2 C2 1_555 1_555
H1 C1 1_555 1_555
H2 C2 1_555 1_555
H4 C6 1_555 1_555
H5 C6 1_555 1_555
H6 C7 1_555 1_555
C8 C10 1_555 1_555
C9 C10 1_555 1_555
C10 C11 1_555 1_555
C11 C7 1_555 1_555
C12 C11 1_555 1_555
C13 C12 1_555 1_555
C14 C4 1_555 1_555
N3 C8 1_555 1_555
N4 C9 1_555 1_555
H7 C8 1_555 1_555
H8 C9 1_555 1_555
H9 C13 1_555 1_555
H10 C13 1_555 1_555
H11 C13 1_555 1_555
H12 C14 1_555 1_555
Co3 N3 1_555 1_555
Co4 N4 1_555 1_555
N5 Co1 1_555 1_555
N1 N2 1_555 1_555
C12 C14 1_555 1_555
N3 N4 1_555 1_555
N5 C1_2 1_555 1_555
H1_2 C1_2 1_555 1_555
C9_2 C10_2 1_555 1_555
C10_2 C11_2 1_555 1_555
C12_2 C11_2 1_555 1_555
C13_2 C12_2 1_555 1_555
N4_2 C9_2 1_555 1_555
H8_2 C9_2 1_555 1_555
H9_2 C13_2 1_555 1_555
H10_2 C13_2 1_555 1_555
H11_2 C13_2 1_555 1_555
H12_2 C14_2 1_555 1_555
Co4_2 N4_2 1_555 1_555
C12_2 C14_2 1_555 1_555
C2_2 C3_2 1_555 1_555
C3_2 C4_2 1_555 1_555
C4_2 C5_2 1_555 1_555
C5_2 C6_2 1_555 1_555
C6_2 H3_2 1_555 1_555
C7_2 C5_2 1_555 1_555
N2_2 C2_2 1_555 1_555
H2_2 C2_2 1_555 1_555
H4_2 C6_2 1_555 1_555
H5_2 C6_2 1_555 1_555
H6_2 C7_2 1_555 1_555
N3_2 C8_2 1_555 1_555
H7_2 C8_2 1_555 1_555
Co3_2 N3_2 1_555 1_555
Co4 N1_2 1_555 1_555
N1_2 C1_3 1_555 1_555
H1_3 C1_3 1_555 1_555
C9_3 C10_3 1_555 1_555
C10_3 C11_3 1_555 1_555
C12_3 C11_3 1_555 1_555
C13_3 C12_3 1_555 1_555
N7 C9_3 1_555 1_555
H8_3 C9_3 1_555 1_555
H9_3 C13_3 1_555 1_555
H10_3 C13_3 1_555 1_555
H11_3 C13_3 1_555 1_555
H12_3 C14_3 1_555 1_555
C12_3 C14_3 1_555 1_555
C2_3 C3_3 1_555 1_555
C3_3 C4_3 1_555 1_555
C4_3 C5_3 1_555 1_555
C5_3 C6_3 1_555 1_555
C6_3 H3_3 1_555 1_555
C7_3 C5_3 1_555 1_555
N2_3 C2_3 1_555 1_555
H2_3 C2_3 1_555 1_555
H4_3 C6_3 1_555 1_555
H5_3 C6_3 1_555 1_555
H6_3 C7_3 1_555 1_555
N3_3 C8_3 1_555 1_555
H7_3 C8_3 1_555 1_555
Co3 N2_3 1_555 1_555
Co2 N3_3 1_555 1_555
N5_2 Co4_2 1_555 1_555
C1_4 C3_4 1_555 1_555
C2_4 C3_4 1_555 1_555
C3_4 C4_4 1_555 1_555
C4_4 C5_4 1_555 1_555
C5_4 C6_4 1_555 1_555
C6_4 H3_4 1_555 1_555
C7_4 C5_4 1_555 1_555
N5_2 C1_4 1_555 1_555
N2_4 C2_4 1_555 1_555
H1_4 C1_4 1_555 1_555
H2_4 C2_4 1_555 1_555
H4_4 C6_4 1_555 1_555
H5_4 C6_4 1_555 1_555
H6_4 C7_4 1_555 1_555
C8_4 C10_4 1_555 1_555
C9_4 C10_4 1_555 1_555
C10_4 C11_4 1_555 1_555
C11_4 C7_4 1_555 1_555
C12_4 C11_4 1_555 1_555
C13_4 C12_4 1_555 1_555
C14_4 C4_4 1_555 1_555
N3_4 C8_4 1_555 1_555
N6 C9_4 1_555 1_555
H7_4 C8_4 1_555 1_555
H8_4 C9_4 1_555 1_555
H9_4 C13_4 1_555 1_555
H10_4 C13_4 1_555 1_555
H11_4 C13_4 1_555 1_555
H12_4 C14_4 1_555 1_555
Co3_2 N2_4 1_555 1_555
Co2 N3_4 1_555 1_555
N5_2 N2_4 1_555 1_555
C12_4 C14_4 1_555 1_555
N3_4 N6 1_555 1_555

#END
