
###############################################################################
#
# This file contains modified crystal structure data generated from the
# MOF subset of the Cambridge Structural Database (CSD) v543 
# hosted by the Cambridge Crystallographic Data Centre (CCDC).
#
# This work is licensed under the Creative Commons
# Attribution-NonCommercial-ShareAlike 4.0 International License.
# To view a copy of this license, visit
# http://creativecommons.org/licenses/by-nc-sa/4.0/
# or send a letter to
# Creative Commons, PO Box 1866, Mountain View, CA 94042, USA.
#
# CIF created using the CSD Python API on 29 September 2022
# The structure has been converted into the P1 space group
# The structure has a 3D framework
# The original CSD entry HADMAD01 is in the tetragonal crystal system
# The original CSD entry HADMAD01 is in a Sohncke space group
# The framework has been calculated to contain at least 10.0% void space
# The void calculation uses a probe of radius 1.32A, grid spacing 0.4
#
###############################################################################

data_HADMAD01
_chemical_formula_moiety         '(C48 H24 Co4 F8 N16)n'
_symmetry_cell_setting           triclinic
_symmetry_space_group_name_H-M   'P 1'
_symmetry_Int_Tables_number      1
_space_group_name_Hall           'P 1'
loop_
_symmetry_equiv_pos_site_id
_symmetry_equiv_pos_as_xyz
1 x,y,z
_cell_length_a                   13.2715(5)
_cell_length_b                   13.2715(5)
_cell_length_c                   14.6258(6)
_cell_angle_alpha                90
_cell_angle_beta                 90
_cell_angle_gamma                90
_cell_volume                     2576.08
loop_
_atom_site_label
_atom_site_type_symbol
_atom_site_fract_x
_atom_site_fract_y
_atom_site_fract_z
N1 N 0.4850(5) 0.3911(4) 0.4537(3)
C1 C 0.4768(6) 0.2930(4) 0.4268(4)
H1 H 0.4594 0.2727 0.3680
N4 N 0.5068(4) 0.3887(4) 0.5427(3)
C3 C 0.4972(7) 0.2283(2) 0.4969(6)
C4 C 0.5093(6) 0.2939(4) 0.5716(5)
H3 H 0.5177 0.2740 0.6320
C9 C 0.4683(6) 0.0623(5) 0.4210(4)
H5 H 0.4485 0.0969 0.3687
C10 C 0.4881(6) 0.1152(3) 0.5034(5)
C11 C 0.5075(6) 0.0619(5) 0.5768(5)
F1 F 0.5351(5) 0.1058(2) 0.6554(3)
Co2 Co 0.50752(6) 0.51205(4) 0.62164(14)
Co4 Co 0.48795(4) 0.50752(6) 0.37164(14)
N2 N 0.4867(4) 0.6284(4) 0.4469(3)
N3 N 0.5006(4) 0.6334(3) 0.5402(3)
C2 C 0.4883(6) 0.7237(4) 0.4183(4)
H2 H 0.4854 0.7429 0.3572
C5 C 0.4949(7) 0.7911(3) 0.4914(5)
C6 C 0.5165(7) 0.9573(5) 0.5767(5)
H4 H 0.5364 0.9236 0.6294
C7 C 0.4951(6) 0.9027(2) 0.4962(5)
C8 C 0.4787(7) 0.9584(5) 0.4195(4)
C12 C 0.5063(6) 0.7290(5) 0.5657(4)
H6 H 0.5164 0.7508 0.6254
F2 F 0.4611(6) 0.9161(2) 0.3384(3)
N5 N 0.3911(4) 0.5150(5) 0.7037(3)
N6 N 0.6284(4) 0.5133(4) 0.6969(3)
Co1 Co 0.49248(6) 0.48795(4) 0.12164(14)
N3_2 N 0.4994(4) 0.3666(3) 0.0402(3)
C6_2 C 0.4835(7) 0.0427(5) 0.0767(5)
H4_2 H 0.4636 0.0764 0.1294
C12_2 C 0.4937(6) 0.2710(5) 0.0657(4)
H6_2 H 0.4836 0.2492 0.1254
N5_2 N 0.6089(4) 0.4850(5) 0.2037(3)
N6_2 N 0.3716(4) 0.4867(4) 0.1969(3)
N7 N 0.4932(4) 0.6113(4) 0.0427(3)
N2_2 N 0.5133(4) 0.3716(4) 0.9469(3)
C2_2 C 0.5117(6) 0.2763(4) 0.9183(4)
H2_2 H 0.5146 0.2571 0.8572
C5_2 C 0.5051(7) 0.2089(3) 0.9914(5)
C7_2 C 0.5049(6) 0.0973(2) 0.9962(5)
C8_2 C 0.5213(7) 0.0416(5) 0.9195(4)
F2_2 F 0.5389(6) 0.0839(2) 0.8384(3)
Co3 Co 0.51205(4) 0.49248(6) 0.87164(14)
C4_2 C 0.4907(6) 0.7061(4) 0.0716(5)
H3_2 H 0.4823 0.7260 0.1320
C10_2 C 0.5119(6) 0.8848(3) 0.0034(5)
C11_2 C 0.4925(6) 0.9381(5) 0.0768(5)
F1_2 F 0.4649(5) 0.8942(2) 0.1554(3)
N1_2 N 0.5150(5) 0.6089(4) 0.9537(3)
C1_2 C 0.5232(6) 0.7070(4) 0.9268(4)
H1_2 H 0.5406 0.7273 0.8680
C3_2 C 0.5028(7) 0.7717(2) 0.9969(6)
C9_2 C 0.5317(6) 0.9377(5) 0.9210(4)
H5_2 H 0.5515 0.9031 0.8687
N3_3 N 0.3666(3) 0.5006(4) 0.2902(3)
C2_3 C 0.2763(4) 0.4883(6) 0.1683(4)
H2_3 H 0.2571 0.4854 0.1072
C5_3 C 0.2089(3) 0.4949(7) 0.2414(5)
C6_3 C 0.0427(5) 0.5165(7) 0.3267(5)
H4_3 H 0.0764 0.5364 0.3794
C7_3 C 0.0973(2) 0.4951(6) 0.2462(5)
C8_3 C 0.0416(5) 0.4787(7) 0.1695(4)
C12_3 C 0.2710(5) 0.5063(6) 0.3157(4)
H6_3 H 0.2492 0.5164 0.3754
F2_3 F 0.0839(2) 0.4611(6) 0.0884(3)
N7_2 N 0.6113(4) 0.5068(4) 0.2927(3)
C1_3 C 0.7070(4) 0.4768(6) 0.1768(4)
H1_3 H 0.7273 0.4594 0.1180
C3_3 C 0.7717(2) 0.4972(7) 0.2469(6)
C4_3 C 0.7061(4) 0.5093(6) 0.3216(5)
H3_3 H 0.7260 0.5177 0.3820
C9_3 C 0.9377(5) 0.4683(6) 0.1710(4)
H5_3 H 0.9031 0.4485 0.1187
C10_3 C 0.8848(3) 0.4881(6) 0.2534(5)
C11_3 C 0.9381(5) 0.5075(6) 0.3268(5)
F1_3 F 0.8942(2) 0.5351(5) 0.4054(3)
C1_4 C 0.2930(4) 0.5232(6) 0.6768(4)
H1_4 H 0.2727 0.5406 0.6180
N4_2 N 0.3887(4) 0.4932(4) 0.7927(3)
C3_4 C 0.2283(2) 0.5028(7) 0.7469(6)
C4_4 C 0.2939(4) 0.4907(6) 0.8216(5)
H3_4 H 0.2740 0.4823 0.8820
C9_4 C 0.0623(5) 0.5317(6) 0.6710(4)
H5_4 H 0.0969 0.5515 0.6187
C10_4 C 0.1152(3) 0.5119(6) 0.7534(5)
C11_4 C 0.0619(5) 0.4925(6) 0.8268(5)
F1_4 F 0.1058(2) 0.4649(5) 0.9054(3)
N3_4 N 0.6334(3) 0.4994(4) 0.7902(3)
C2_4 C 0.7237(4) 0.5117(6) 0.6683(4)
H2_4 H 0.7429 0.5146 0.6072
C5_4 C 0.7911(3) 0.5051(7) 0.7414(5)
C6_4 C 0.9573(5) 0.4835(7) 0.8267(5)
H4_4 H 0.9236 0.4636 0.8794
C7_4 C 0.9027(2) 0.5049(6) 0.7462(5)
C8_4 C 0.9584(5) 0.5213(7) 0.6695(4)
C12_4 C 0.7290(5) 0.4937(6) 0.8157(4)
H6_4 H 0.7508 0.4836 0.8754
F2_4 F 0.9161(2) 0.5389(6) 0.5884(3)
loop_
_geom_bond_atom_site_label_1
_geom_bond_atom_site_label_2
_geom_bond_site_symmetry_1
_geom_bond_site_symmetry_2
N1 C1 1_555 1_555
C1 H1 1_555 1_555
N4 N1 1_555 1_555
C3 C1 1_555 1_555
C4 N4 1_555 1_555
H3 C4 1_555 1_555
H5 C9 1_555 1_555
C10 C3 1_555 1_555
F1 C11 1_555 1_555
Co2 N4 1_555 1_555
Co4 N1 1_555 1_555
C3 C4 1_555 1_555
C9 C10 1_555 1_555
C10 C11 1_555 1_555
Co2 N3 1_555 1_555
N2 N3 1_555 1_555
N3 C12 1_555 1_555
C2 N2 1_555 1_555
H2 C2 1_555 1_555
C5 C2 1_555 1_555
C6 H4 1_555 1_555
C7 C5 1_555 1_555
C8 C7 1_555 1_555
C12 C5 1_555 1_555
H6 C12 1_555 1_555
F2 C8 1_555 1_555
Co4 N2 1_555 1_555
N5 Co2 1_555 1_555
N6 Co2 1_555 1_555
C6 C7 1_555 1_555
Co1 N3_2 1_555 1_555
N3_2 C12_2 1_555 1_555
C6_2 H4_2 1_555 1_555
H6_2 C12_2 1_555 1_555
N5_2 Co1 1_555 1_555
N6_2 Co1 1_555 1_555
N7 Co1 1_555 1_555
C2_2 N2_2 1_555 1_555
H2_2 C2_2 1_555 1_555
C5_2 C2_2 1_555 1_555
C7_2 C5_2 1_555 1_555
C8_2 C7_2 1_555 1_555
F2_2 C8_2 1_555 1_555
Co3 N2_2 1_555 1_555
C4_2 N7 1_555 1_555
H3_2 C4_2 1_555 1_555
F1_2 C11_2 1_555 1_555
C10_2 C11_2 1_555 1_555
N1_2 C1_2 1_555 1_555
C1_2 H1_2 1_555 1_555
C3_2 C1_2 1_555 1_555
H5_2 C9_2 1_555 1_555
Co3 N1_2 1_555 1_555
Co4 N3_3 1_555 1_555
N6_2 N3_3 1_555 1_555
N3_3 C12_3 1_555 1_555
C2_3 N6_2 1_555 1_555
H2_3 C2_3 1_555 1_555
C5_3 C2_3 1_555 1_555
C6_3 H4_3 1_555 1_555
C7_3 C5_3 1_555 1_555
C8_3 C7_3 1_555 1_555
C12_3 C5_3 1_555 1_555
H6_3 C12_3 1_555 1_555
F2_3 C8_3 1_555 1_555
N7_2 Co4 1_555 1_555
C6_3 C7_3 1_555 1_555
N5_2 C1_3 1_555 1_555
C1_3 H1_3 1_555 1_555
N7_2 N5_2 1_555 1_555
C3_3 C1_3 1_555 1_555
C4_3 N7_2 1_555 1_555
H3_3 C4_3 1_555 1_555
H5_3 C9_3 1_555 1_555
C10_3 C3_3 1_555 1_555
F1_3 C11_3 1_555 1_555
C3_3 C4_3 1_555 1_555
C9_3 C10_3 1_555 1_555
C10_3 C11_3 1_555 1_555
N5 C1_4 1_555 1_555
C1_4 H1_4 1_555 1_555
N4_2 N5 1_555 1_555
C3_4 C1_4 1_555 1_555
C4_4 N4_2 1_555 1_555
H3_4 C4_4 1_555 1_555
H5_4 C9_4 1_555 1_555
C10_4 C3_4 1_555 1_555
F1_4 C11_4 1_555 1_555
Co3 N4_2 1_555 1_555
C3_4 C4_4 1_555 1_555
C9_4 C10_4 1_555 1_555
C10_4 C11_4 1_555 1_555
Co3 N3_4 1_555 1_555
N6 N3_4 1_555 1_555
N3_4 C12_4 1_555 1_555
C2_4 N6 1_555 1_555
H2_4 C2_4 1_555 1_555
C5_4 C2_4 1_555 1_555
C6_4 H4_4 1_555 1_555
C7_4 C5_4 1_555 1_555
C8_4 C7_4 1_555 1_555
C12_4 C5_4 1_555 1_555
H6_4 C12_4 1_555 1_555
F2_4 C8_4 1_555 1_555
C6_4 C7_4 1_555 1_555

#END
