
###############################################################################
#
# This file contains modified crystal structure data generated from the
# MOF subset of the Cambridge Structural Database (CSD) v543 
# hosted by the Cambridge Crystallographic Data Centre (CCDC).
#
# This work is licensed under the Creative Commons
# Attribution-NonCommercial-ShareAlike 4.0 International License.
# To view a copy of this license, visit
# http://creativecommons.org/licenses/by-nc-sa/4.0/
# or send a letter to
# Creative Commons, PO Box 1866, Mountain View, CA 94042, USA.
#
# CIF created using the CSD Python API on 29 September 2022
# The structure has been converted into the P1 space group
# The structure has a 3D framework
# The original CSD entry HAFGUT is in the rhombohedral crystal system
# The original CSD entry HAFGUT is in a Sohncke space group
# The framework has been calculated to contain at least 10.0% void space
# The void calculation uses a probe of radius 1.32A, grid spacing 0.4
#
###############################################################################

data_HAFGUT
_chemical_formula_moiety         '(C342 H198 Cu18 N54 O90)n'
_symmetry_cell_setting           triclinic
_symmetry_space_group_name_H-M   'P 1'
_symmetry_Int_Tables_number      1
_space_group_name_Hall           'P 1'
loop_
_symmetry_equiv_pos_site_id
_symmetry_equiv_pos_as_xyz
1 x,y,z
_cell_length_a                   18.16557(17)
_cell_length_b                   18.16557(17)
_cell_length_c                   48.6439(14)
_cell_angle_alpha                90
_cell_angle_beta                 90
_cell_angle_gamma                120
_cell_volume                     13901.4
loop_
_atom_site_label
_atom_site_type_symbol
_atom_site_fract_x
_atom_site_fract_y
_atom_site_fract_z
_atom_site_U_iso_or_equiv
_atom_site_thermal_displace_type
H7 H 0.0119(12) 0.8318(14) 0.3181(5) 0.0635 Uiso
C18 C 0.002(3) 0.8768(15) 0.2192(6) 0.0528 Uiso
N3 N 0.0458(17) 0.9235(13) 0.2416(8) 0.0528 Uiso
C19 C 0.0137(10) 0.8964(8) 0.2667(7) 0.0528 Uiso
H9 H 0.0426(12) 0.9274(10) 0.2820(8) 0.0635 Uiso
H10 H 0.025(3) 0.896(2) 0.2021(8) 0.0635 Uiso
Cu4 Cu 0.0509(12) 0.5381(9) 0.4797(3) 0.0528 Uiso
Cu1 Cu 0.5128(8) 0.4619(9) 0.5203(3) 0.0528 Uiso
C1 C 0.6279(6) 0.5427(10) 0.4757(3) 0.0528 Uiso
O1 O 0.608(2) 0.4998(18) 0.4978(5) 0.0528 Uiso
O2 O 0.5746(19) 0.559(3) 0.4640(5) 0.0528 Uiso
C2 C 0.8061(10) 0.637(2) 0.4235(4) 0.0528 Uiso
C3 C 0.8666(14) 0.624(4) 0.4365(4) 0.0528 Uiso
H1 H 0.9176(18) 0.639(6) 0.4280(5) 0.0635 Uiso
C4 C 0.850(2) 0.587(5) 0.4625(5) 0.0528 Uiso
C5 C 0.7732(16) 0.563(3) 0.4754(4) 0.0528 Uiso
H2 H 0.762(2) 0.539(4) 0.4926(5) 0.0635 Uiso
C6 C 0.7126(6) 0.5760(6) 0.4623(2) 0.0528 Uiso
C7 C 0.7290(11) 0.6129(16) 0.4364(3) 0.0528 Uiso
H3 H 0.689(2) 0.622(3) 0.4277(5) 0.0635 Uiso
C8 C 0.9076(10) 0.5622(10) 0.4777(3) 0.0528 Uiso
O3 O 0.8852(17) 0.528(2) 0.5013(4) 0.0528 Uiso
O4 O 0.9721(16) 0.566(3) 0.4658(5) 0.0528 Uiso
N1 N 0.8404(6) 0.6799(9) 0.3975(3) 0.0528 Uiso
C9 C 0.794(4) 0.696(6) 0.3797(6) 0.0528 Uiso
O5 O 0.719(5) 0.672(11) 0.3829(10) 0.0528 Uiso
H4 H 0.8935(8) 0.699(3) 0.3930(4) 0.0635 Uiso
C10 C 0.8326(8) 0.7295(6) 0.35041(16) 0.0528 Uiso
C11 C 0.7788(10) 0.7157(10) 0.3283(2) 0.0528 Uiso
C12 C 0.8126(15) 0.7456(12) 0.3023(2) 0.0528 Uiso
C13 C 0.9002(16) 0.7892(10) 0.2985(2) 0.0528 Uiso
C14 C 0.9540(11) 0.8030(10) 0.3206(4) 0.0528 Uiso
C15 C 0.9202(8) 0.7731(9) 0.3466(3) 0.0528 Uiso
H5 H 0.7209(10) 0.6869(14) 0.3308(4) 0.0635 Uiso
H6 H 0.7770(19) 0.7365(17) 0.2877(3) 0.0635 Uiso
H8 H 0.9557(8) 0.7822(13) 0.3612(4) 0.0635 Uiso
C16 C 0.9355(7) 0.8205(6) 0.2713(3) 0.0528 Uiso
C17 C 0.8944(13) 0.7759(9) 0.2470(3) 0.0528 Uiso
N2 N 0.926(2) 0.8030(13) 0.2219(3) 0.0528 Uiso
H11 H 0.8432(14) 0.7259(10) 0.2481(5) 0.0635 Uiso
Cu2 Cu 0.9491(12) 0.4872(8) 0.5203(3) 0.0528 Uiso
Cu3 Cu 0.4619(9) 0.5128(8) 0.4797(3) 0.0528 Uiso
Cu5 Cu 0.8714(9) 0.7176(12) 0.1870(3) 0.0528 Uiso
O6 O 0.559(3) 0.5746(19) 0.5360(5) 0.0528 Uiso
O7 O 0.472(2) 0.3572(26) 0.5013(4) 0.0528 Uiso
O8 O 0.4061(34) 0.434(3) 0.5342(5) 0.0528 Uiso
N4 N 0.5437(24) 0.407(2) 0.5552(3) 0.0528 Uiso
O6_2 O 0.0156(36) 0.441(3) 0.5360(5) 0.0528 Uiso
O8_2 O 0.0279(45) 0.5939(34) 0.5342(5) 0.0528 Uiso
C1_2 C 0.9148(12) 0.3721(6) 0.4757(3) 0.0528 Uiso
O1_2 O 0.8918(27) 0.392(2) 0.4978(5) 0.0528 Uiso
O2_2 O 0.9844(36) 0.4254(19) 0.4640(5) 0.0528 Uiso
C2_2 C 0.8309(22) 0.1939(10) 0.4235(4) 0.0528 Uiso
C3_2 C 0.7574(42) 0.1334(14) 0.4365(4) 0.0528 Uiso
H1_2 H 0.7214(63) 0.0824(18) 0.4280(5) 0.0635 Uiso
C4_2 C 0.737(5) 0.150(2) 0.4625(5) 0.0528 Uiso
C5_2 C 0.7898(34) 0.2268(16) 0.4754(4) 0.0528 Uiso
H2_2 H 0.777(4) 0.238(2) 0.4926(5) 0.0635 Uiso
C6_2 C 0.8634(8) 0.2874(6) 0.4623(2) 0.0528 Uiso
C7_2 C 0.8839(19) 0.2710(11) 0.4364(3) 0.0528 Uiso
H3_2 H 0.933(4) 0.311(2) 0.4277(5) 0.0635 Uiso
C8_2 C 0.6546(14) 0.0924(10) 0.4777(3) 0.0528 Uiso
O3_2 O 0.6428(26) 0.1148(17) 0.5013(4) 0.0528 Uiso
O4_2 O 0.5939(34) 0.0279(16) 0.4658(5) 0.0528 Uiso
N1_2 N 0.8395(11) 0.1596(6) 0.3975(3) 0.0528 Uiso
C9_2 C 0.902(7) 0.206(4) 0.3797(6) 0.0528 Uiso
O5_2 O 0.953(12) 0.281(5) 0.3829(10) 0.0528 Uiso
H4_2 H 0.8055(31) 0.1065(8) 0.3930(4) 0.0635 Uiso
C10_2 C 0.8969(10) 0.1674(8) 0.35041(16) 0.0528 Uiso
C11_2 C 0.9369(14) 0.2212(10) 0.3283(2) 0.0528 Uiso
C12_2 C 0.9330(19) 0.1874(15) 0.3023(2) 0.0528 Uiso
C13_2 C 0.8890(19) 0.0998(16) 0.2985(2) 0.0528 Uiso
C14_2 C 0.8490(15) 0.0460(11) 0.3206(4) 0.0528 Uiso
C15_2 C 0.8529(12) 0.0798(8) 0.3466(3) 0.0528 Uiso
H5_2 H 0.9660(17) 0.2791(10) 0.3308(4) 0.0635 Uiso
H6_2 H 0.9595(25) 0.2230(19) 0.2877(3) 0.0635 Uiso
H8_2 H 0.8265(15) 0.0443(8) 0.3612(4) 0.0635 Uiso
C16_2 C 0.8850(9) 0.0645(7) 0.2713(3) 0.0528 Uiso
C17_2 C 0.8815(16) 0.1056(13) 0.2470(3) 0.0528 Uiso
N2_2 N 0.8770(24) 0.074(2) 0.2219(3) 0.0528 Uiso
H11_2 H 0.8827(17) 0.1568(14) 0.2481(5) 0.0635 Uiso
Cu2_2 Cu 0.5381(14) 0.0509(12) 0.5203(3) 0.0528 Uiso
Cu5_2 Cu 0.8461(15) 0.1286(9) 0.1870(3) 0.0528 Uiso
N4_2 N 0.8637(31) 0.4563(24) 0.5552(3) 0.0528 Uiso
H7_2 H 0.8199(18) 0.9881(12) 0.3181(5) 0.0635 Uiso
C18_2 C 0.8748(34) 0.998(3) 0.2192(6) 0.0528 Uiso
N3_2 N 0.8777(21) 0.9542(17) 0.2416(8) 0.0528 Uiso
C19_2 C 0.8827(13) 0.9863(10) 0.2667(7) 0.0528 Uiso
H9_2 H 0.8848(16) 0.9574(12) 0.2820(8) 0.0635 Uiso
H10_2 H 0.871(4) 0.975(3) 0.2021(8) 0.0635 Uiso
Cu4_2 Cu 0.4872(15) 0.9491(12) 0.4797(3) 0.0528 Uiso
C1_3 C 0.4573(10) 0.0852(12) 0.4757(3) 0.0528 Uiso
O1_3 O 0.5002(18) 0.1082(27) 0.4978(5) 0.0528 Uiso
O2_3 O 0.441(3) 0.0156(36) 0.4640(5) 0.0528 Uiso
C2_3 C 0.363(2) 0.1691(22) 0.4235(4) 0.0528 Uiso
C3_3 C 0.376(4) 0.2426(42) 0.4365(4) 0.0528 Uiso
H1_3 H 0.361(6) 0.2786(63) 0.4280(5) 0.0635 Uiso
C4_3 C 0.413(5) 0.263(5) 0.4625(5) 0.0528 Uiso
C5_3 C 0.437(3) 0.2102(34) 0.4754(4) 0.0528 Uiso
H2_3 H 0.461(4) 0.223(4) 0.4926(5) 0.0635 Uiso
C6_3 C 0.4240(6) 0.1366(8) 0.4623(2) 0.0528 Uiso
C7_3 C 0.3871(16) 0.1161(19) 0.4364(3) 0.0528 Uiso
H3_3 H 0.378(3) 0.067(4) 0.4277(5) 0.0635 Uiso
C8_3 C 0.4378(10) 0.3454(14) 0.4777(3) 0.0528 Uiso
O4_3 O 0.434(3) 0.4061(34) 0.4658(5) 0.0528 Uiso
N1_3 N 0.3201(9) 0.1605(11) 0.3975(3) 0.0528 Uiso
C9_3 C 0.304(6) 0.098(7) 0.3797(6) 0.0528 Uiso
O5_3 O 0.328(11) 0.047(12) 0.3829(10) 0.0528 Uiso
H4_3 H 0.301(3) 0.1945(31) 0.3930(4) 0.0635 Uiso
C10_3 C 0.2705(6) 0.1031(10) 0.35041(16) 0.0528 Uiso
C11_3 C 0.2843(10) 0.0631(14) 0.3283(2) 0.0528 Uiso
C12_3 C 0.2544(12) 0.0670(19) 0.3023(2) 0.0528 Uiso
C13_3 C 0.2108(10) 0.1110(19) 0.2985(2) 0.0528 Uiso
C14_3 C 0.1970(10) 0.1510(15) 0.3206(4) 0.0528 Uiso
C15_3 C 0.2269(9) 0.1471(12) 0.3466(3) 0.0528 Uiso
H5_3 H 0.3131(14) 0.0340(17) 0.3308(4) 0.0635 Uiso
H6_3 H 0.2635(17) 0.0405(25) 0.2877(3) 0.0635 Uiso
H7_3 H 0.1682(14) 0.1801(18) 0.3181(5) 0.0635 Uiso
H8_3 H 0.2178(13) 0.1735(15) 0.3612(4) 0.0635 Uiso
C16_3 C 0.1795(6) 0.1150(9) 0.2713(3) 0.0528 Uiso
C17_3 C 0.2241(9) 0.1185(16) 0.2470(3) 0.0528 Uiso
N2_3 N 0.1970(13) 0.1230(24) 0.2219(3) 0.0528 Uiso
C18_3 C 0.1232(15) 0.1252(34) 0.2192(6) 0.0528 Uiso
N3_3 N 0.0765(13) 0.1223(21) 0.2416(8) 0.0528 Uiso
C19_3 C 0.1036(8) 0.1173(13) 0.2667(7) 0.0528 Uiso
H9_3 H 0.0726(10) 0.1152(16) 0.2820(8) 0.0635 Uiso
H10_3 H 0.104(2) 0.129(4) 0.2021(8) 0.0635 Uiso
H11_3 H 0.2741(10) 0.1173(17) 0.2481(5) 0.0635 Uiso
Cu5_3 Cu 0.2824(12) 0.1539(15) 0.1870(3) 0.0528 Uiso
N4_3 N 0.593(2) 0.1363(31) 0.5552(3) 0.0528 Uiso
O6_3 O 0.4254(19) 0.9844(36) 0.5360(5) 0.0528 Uiso
O8_3 O 0.566(3) 0.9721(45) 0.5342(5) 0.0528 Uiso
H7_4 H 0.8318(14) 0.0119(12) 0.6819(5) 0.0635 Uiso
C18_4 C 0.8768(15) 0.002(3) 0.7808(6) 0.0528 Uiso
N3_4 N 0.9235(13) 0.0458(17) 0.7584(8) 0.0528 Uiso
C19_4 C 0.8964(8) 0.0137(10) 0.7333(7) 0.0528 Uiso
H9_4 H 0.9274(10) 0.0426(12) 0.7180(8) 0.0635 Uiso
H10_4 H 0.896(2) 0.025(3) 0.7979(8) 0.0635 Uiso
C1_4 C 0.5427(10) 0.6279(6) 0.5243(3) 0.0528 Uiso
O1_4 O 0.4998(18) 0.608(2) 0.5022(5) 0.0528 Uiso
C2_4 C 0.637(2) 0.8061(10) 0.5765(4) 0.0528 Uiso
C3_4 C 0.624(4) 0.8666(14) 0.5635(4) 0.0528 Uiso
H1_4 H 0.639(6) 0.9176(18) 0.5720(5) 0.0635 Uiso
C4_4 C 0.587(5) 0.850(2) 0.5375(5) 0.0528 Uiso
C5_4 C 0.563(3) 0.7732(16) 0.5246(4) 0.0528 Uiso
H2_4 H 0.539(4) 0.762(2) 0.5074(5) 0.0635 Uiso
C6_4 C 0.5760(6) 0.7126(6) 0.5377(2) 0.0528 Uiso
C7_4 C 0.6129(16) 0.7290(11) 0.5636(3) 0.0528 Uiso
H3_4 H 0.622(3) 0.689(2) 0.5723(5) 0.0635 Uiso
C8_4 C 0.5622(10) 0.9076(10) 0.5223(3) 0.0528 Uiso
O3_3 O 0.528(2) 0.8852(17) 0.4987(4) 0.0528 Uiso
N1_4 N 0.6799(9) 0.8404(6) 0.6025(3) 0.0528 Uiso
C9_4 C 0.696(6) 0.794(4) 0.6203(6) 0.0528 Uiso
O5_4 O 0.672(11) 0.719(5) 0.6171(10) 0.0528 Uiso
H4_4 H 0.699(3) 0.8935(8) 0.6070(4) 0.0635 Uiso
C10_4 C 0.7295(6) 0.8326(8) 0.64959(16) 0.0528 Uiso
C11_4 C 0.7157(10) 0.7788(10) 0.6717(2) 0.0528 Uiso
C12_4 C 0.7456(12) 0.8126(15) 0.6977(2) 0.0528 Uiso
C13_4 C 0.7892(10) 0.9002(16) 0.7015(2) 0.0528 Uiso
C14_4 C 0.8030(10) 0.9540(11) 0.6794(4) 0.0528 Uiso
C15_4 C 0.7731(9) 0.9202(8) 0.6534(3) 0.0528 Uiso
H5_4 H 0.6869(14) 0.7209(10) 0.6692(4) 0.0635 Uiso
H6_4 H 0.7365(17) 0.7770(19) 0.7123(3) 0.0635 Uiso
H8_4 H 0.7822(13) 0.9557(8) 0.6388(4) 0.0635 Uiso
C16_4 C 0.8205(6) 0.9355(7) 0.7287(3) 0.0528 Uiso
C17_4 C 0.7759(9) 0.8944(13) 0.7530(3) 0.0528 Uiso
N2_4 N 0.8030(13) 0.926(2) 0.7781(3) 0.0528 Uiso
H11_4 H 0.7259(10) 0.8432(14) 0.7519(5) 0.0635 Uiso
Cu5_4 Cu 0.7176(12) 0.8714(9) 0.8130(3) 0.0528 Uiso
O7_2 O 0.3572(26) 0.472(2) 0.4987(4) 0.0528 Uiso
N4_4 N 0.407(2) 0.5437(24) 0.4448(3) 0.0528 Uiso
C1_5 C 0.0852(12) 0.4573(10) 0.5243(3) 0.0528 Uiso
O1_5 O 0.1082(27) 0.5002(18) 0.5022(5) 0.0528 Uiso
C2_5 C 0.1691(22) 0.363(2) 0.5765(4) 0.0528 Uiso
C3_5 C 0.2426(42) 0.376(4) 0.5635(4) 0.0528 Uiso
H1_5 H 0.2786(63) 0.361(6) 0.5720(5) 0.0635 Uiso
C4_5 C 0.263(5) 0.413(5) 0.5375(5) 0.0528 Uiso
C5_5 C 0.2102(34) 0.437(3) 0.5246(4) 0.0528 Uiso
H2_5 H 0.223(4) 0.461(4) 0.5074(5) 0.0635 Uiso
C6_5 C 0.1366(8) 0.4240(6) 0.5377(2) 0.0528 Uiso
C7_5 C 0.1161(19) 0.3871(16) 0.5636(3) 0.0528 Uiso
H3_5 H 0.067(4) 0.378(3) 0.5723(5) 0.0635 Uiso
C8_5 C 0.3454(14) 0.4378(10) 0.5223(3) 0.0528 Uiso
N1_5 N 0.1605(11) 0.3201(9) 0.6025(3) 0.0528 Uiso
C9_5 C 0.098(7) 0.304(6) 0.6203(6) 0.0528 Uiso
O5_5 O 0.047(12) 0.328(11) 0.6171(10) 0.0528 Uiso
H4_5 H 0.1945(31) 0.301(3) 0.6070(4) 0.0635 Uiso
C10_5 C 0.1031(10) 0.2705(6) 0.64959(16) 0.0528 Uiso
C11_5 C 0.0631(14) 0.2843(10) 0.6717(2) 0.0528 Uiso
C12_5 C 0.0670(19) 0.2544(12) 0.6977(2) 0.0528 Uiso
C13_5 C 0.1110(19) 0.2108(10) 0.7015(2) 0.0528 Uiso
C14_5 C 0.1510(15) 0.1970(10) 0.6794(4) 0.0528 Uiso
C15_5 C 0.1471(12) 0.2269(9) 0.6534(3) 0.0528 Uiso
H5_5 H 0.0340(17) 0.3131(14) 0.6692(4) 0.0635 Uiso
H6_5 H 0.0405(25) 0.2635(17) 0.7123(3) 0.0635 Uiso
H7_5 H 0.1801(18) 0.1682(14) 0.6819(5) 0.0635 Uiso
H8_5 H 0.1735(15) 0.2178(13) 0.6388(4) 0.0635 Uiso
C16_5 C 0.1150(9) 0.1795(6) 0.7287(3) 0.0528 Uiso
C17_5 C 0.1185(16) 0.2241(9) 0.7530(3) 0.0528 Uiso
N2_5 N 0.1230(24) 0.1970(13) 0.7781(3) 0.0528 Uiso
C18_5 C 0.1252(34) 0.1232(15) 0.7808(6) 0.0528 Uiso
N3_5 N 0.1223(21) 0.0765(13) 0.7584(8) 0.0528 Uiso
C19_5 C 0.1173(13) 0.1036(8) 0.7333(7) 0.0528 Uiso
H9_5 H 0.1152(16) 0.0726(10) 0.7180(8) 0.0635 Uiso
H10_5 H 0.129(4) 0.104(2) 0.7979(8) 0.0635 Uiso
H11_5 H 0.1173(17) 0.2741(10) 0.7519(5) 0.0635 Uiso
Cu5_5 Cu 0.1539(15) 0.2824(12) 0.8130(3) 0.0528 Uiso
O7_3 O 0.1148(33) 0.6428(26) 0.4987(4) 0.0528 Uiso
N4_5 N 0.1363(31) 0.593(2) 0.4448(3) 0.0528 Uiso
C1_6 C 0.3721(6) 0.9148(12) 0.5243(3) 0.0528 Uiso
O1_6 O 0.392(2) 0.8918(27) 0.5022(5) 0.0528 Uiso
C2_6 C 0.1939(10) 0.8309(22) 0.5765(4) 0.0528 Uiso
C3_6 C 0.1334(14) 0.7574(42) 0.5635(4) 0.0528 Uiso
H1_6 H 0.0824(18) 0.7214(63) 0.5720(5) 0.0635 Uiso
C4_6 C 0.150(2) 0.737(5) 0.5375(5) 0.0528 Uiso
C5_6 C 0.2268(16) 0.7898(34) 0.5246(4) 0.0528 Uiso
H2_6 H 0.238(2) 0.777(4) 0.5074(5) 0.0635 Uiso
C6_6 C 0.2874(6) 0.8634(8) 0.5377(2) 0.0528 Uiso
C7_6 C 0.2710(11) 0.8839(19) 0.5636(3) 0.0528 Uiso
H3_6 H 0.311(2) 0.933(4) 0.5723(5) 0.0635 Uiso
C8_6 C 0.0924(10) 0.6546(14) 0.5223(3) 0.0528 Uiso
N1_6 N 0.1596(6) 0.8395(11) 0.6025(3) 0.0528 Uiso
C9_6 C 0.206(4) 0.902(7) 0.6203(6) 0.0528 Uiso
O5_6 O 0.281(5) 0.953(12) 0.6171(10) 0.0528 Uiso
H4_6 H 0.1065(8) 0.8055(31) 0.6070(4) 0.0635 Uiso
C10_6 C 0.1674(8) 0.8969(10) 0.64959(16) 0.0528 Uiso
C11_6 C 0.2212(10) 0.9369(14) 0.6717(2) 0.0528 Uiso
C12_6 C 0.1874(15) 0.9330(19) 0.6977(2) 0.0528 Uiso
C13_6 C 0.0998(16) 0.8890(19) 0.7015(2) 0.0528 Uiso
C14_6 C 0.0460(11) 0.8490(15) 0.6794(4) 0.0528 Uiso
C15_6 C 0.0798(8) 0.8529(12) 0.6534(3) 0.0528 Uiso
H5_6 H 0.2791(10) 0.9660(17) 0.6692(4) 0.0635 Uiso
H6_6 H 0.2230(19) 0.9595(25) 0.7123(3) 0.0635 Uiso
H8_6 H 0.0443(8) 0.8265(15) 0.6388(4) 0.0635 Uiso
C16_6 C 0.0645(7) 0.8850(9) 0.7287(3) 0.0528 Uiso
C17_6 C 0.1056(13) 0.8815(16) 0.7530(3) 0.0528 Uiso
N2_6 N 0.074(2) 0.8770(24) 0.7781(3) 0.0528 Uiso
H11_6 H 0.1568(14) 0.8827(17) 0.7519(5) 0.0635 Uiso
Cu5_6 Cu 0.1286(9) 0.8461(15) 0.8130(3) 0.0528 Uiso
N4_6 N 0.4563(24) 0.8637(31) 0.4448(3) 0.0528 Uiso
H7_6 H 0.9881(12) 0.8199(18) 0.6819(5) 0.0635 Uiso
C18_6 C 0.998(3) 0.8748(34) 0.7808(6) 0.0528 Uiso
N3_6 N 0.9542(17) 0.8777(21) 0.7584(8) 0.0528 Uiso
C19_6 C 0.9863(10) 0.8827(13) 0.7333(7) 0.0528 Uiso
H9_6 H 0.9574(12) 0.8848(16) 0.7180(8) 0.0635 Uiso
H10_6 H 0.975(3) 0.871(4) 0.7979(8) 0.0635 Uiso
N1_7 N 0.5071(6) 0.0132(9) 0.7308(3) 0.0528 Uiso
C9_7 C 0.461(4) 0.029(6) 0.7130(6) 0.0528 Uiso
O5_7 O 0.386(5) 0.005(11) 0.7162(10) 0.0528 Uiso
H4_7 H 0.5602(8) 0.032(3) 0.7263(4) 0.0635 Uiso
C10_7 C 0.4993(8) 0.0628(6) 0.68374(16) 0.0528 Uiso
C11_7 C 0.4455(10) 0.0490(10) 0.6616(2) 0.0528 Uiso
C12_7 C 0.4793(15) 0.0789(12) 0.6356(2) 0.0528 Uiso
C13_7 C 0.5669(16) 0.1225(10) 0.6318(2) 0.0528 Uiso
C14_7 C 0.6207(11) 0.1363(10) 0.6539(4) 0.0528 Uiso
C15_7 C 0.5869(8) 0.1064(9) 0.6799(3) 0.0528 Uiso
H5_7 H 0.3876(10) 0.0202(14) 0.6641(4) 0.0635 Uiso
H6_7 H 0.4437(19) 0.0698(17) 0.6210(3) 0.0635 Uiso
H7_7 H 0.6786(12) 0.1651(14) 0.6514(5) 0.0635 Uiso
H8_7 H 0.6224(8) 0.1155(13) 0.6945(4) 0.0635 Uiso
C16_7 C 0.6022(7) 0.1538(6) 0.6046(3) 0.0528 Uiso
C17_7 C 0.5611(13) 0.1092(9) 0.5803(3) 0.0528 Uiso
C18_7 C 0.669(3) 0.2101(15) 0.5525(6) 0.0528 Uiso
N3_7 N 0.7125(17) 0.2568(13) 0.5749(8) 0.0528 Uiso
C19_7 C 0.6804(10) 0.2297(8) 0.6000(7) 0.0528 Uiso
H9_7 H 0.7093(12) 0.2607(10) 0.6153(8) 0.0635 Uiso
H10_7 H 0.692(3) 0.229(2) 0.5354(8) 0.0635 Uiso
H11_7 H 0.5099(14) 0.0592(10) 0.5814(5) 0.0635 Uiso
Cu1_2 Cu 0.1795(8) 0.7952(9) 0.8536(3) 0.0528 Uiso
C1_7 C 0.2946(6) 0.8760(10) 0.8090(3) 0.0528 Uiso
O1_7 O 0.275(2) 0.8331(18) 0.8311(5) 0.0528 Uiso
O2_4 O 0.2413(19) 0.892(3) 0.7973(5) 0.0528 Uiso
C2_7 C 0.4728(10) 0.970(2) 0.7568(4) 0.0528 Uiso
C3_7 C 0.5333(14) 0.957(4) 0.7698(4) 0.0528 Uiso
H1_7 H 0.5843(18) 0.972(6) 0.7613(5) 0.0635 Uiso
C4_7 C 0.517(2) 0.920(5) 0.7958(5) 0.0528 Uiso
C5_7 C 0.4399(16) 0.896(3) 0.8087(4) 0.0528 Uiso
H2_7 H 0.429(2) 0.872(4) 0.8259(5) 0.0635 Uiso
C6_7 C 0.3793(6) 0.9093(6) 0.7956(2) 0.0528 Uiso
C7_7 C 0.3957(11) 0.9462(16) 0.7697(3) 0.0528 Uiso
H3_7 H 0.356(2) 0.955(3) 0.7610(5) 0.0635 Uiso
C8_7 C 0.5743(10) 0.8955(10) 0.8110(3) 0.0528 Uiso
O3_4 O 0.5519(17) 0.861(2) 0.8346(4) 0.0528 Uiso
O4_4 O 0.6388(16) 0.899(3) 0.7991(5) 0.0528 Uiso
Cu2_3 Cu 0.6158(12) 0.8205(8) 0.8536(3) 0.0528 Uiso
O6_4 O 0.226(3) 0.9079(19) 0.8693(5) 0.0528 Uiso
O7_4 O 0.139(2) 0.6905(26) 0.8346(4) 0.0528 Uiso
O8_4 O 0.0728(34) 0.767(3) 0.8675(5) 0.0528 Uiso
N4_7 N 0.2103(24) 0.741(2) 0.8886(3) 0.0528 Uiso
C1_8 C 0.5815(12) 0.7054(6) 0.8090(3) 0.0528 Uiso
O1_8 O 0.5585(27) 0.725(2) 0.8311(5) 0.0528 Uiso
O2_5 O 0.6511(36) 0.7587(19) 0.7973(5) 0.0528 Uiso
C2_8 C 0.4976(22) 0.5272(10) 0.7568(4) 0.0528 Uiso
C3_8 C 0.4241(42) 0.4667(14) 0.7698(4) 0.0528 Uiso
H1_8 H 0.3881(63) 0.4157(18) 0.7613(5) 0.0635 Uiso
C4_8 C 0.404(5) 0.483(2) 0.7958(5) 0.0528 Uiso
C5_8 C 0.4565(34) 0.5601(16) 0.8087(4) 0.0528 Uiso
H2_8 H 0.444(4) 0.571(2) 0.8259(5) 0.0635 Uiso
C6_8 C 0.5301(8) 0.6207(6) 0.7956(2) 0.0528 Uiso
C7_8 C 0.5506(19) 0.6043(11) 0.7697(3) 0.0528 Uiso
H3_8 H 0.600(4) 0.644(2) 0.7610(5) 0.0635 Uiso
C8_8 C 0.3213(14) 0.4257(10) 0.8110(3) 0.0528 Uiso
O3_5 O 0.3095(26) 0.4481(17) 0.8346(4) 0.0528 Uiso
O4_5 O 0.2606(34) 0.3612(16) 0.7991(5) 0.0528 Uiso
N1_8 N 0.5062(11) 0.4929(6) 0.7308(3) 0.0528 Uiso
C9_8 C 0.569(7) 0.539(4) 0.7130(6) 0.0528 Uiso
O5_8 O 0.620(12) 0.614(5) 0.7162(10) 0.0528 Uiso
H4_8 H 0.4722(31) 0.4398(8) 0.7263(4) 0.0635 Uiso
C10_8 C 0.5636(10) 0.5007(8) 0.68374(16) 0.0528 Uiso
C11_8 C 0.6036(14) 0.5545(10) 0.6616(2) 0.0528 Uiso
C12_8 C 0.5997(19) 0.5207(15) 0.6356(2) 0.0528 Uiso
C13_8 C 0.5557(19) 0.4331(16) 0.6318(2) 0.0528 Uiso
C14_8 C 0.5157(15) 0.3793(11) 0.6539(4) 0.0528 Uiso
C15_8 C 0.5196(12) 0.4131(8) 0.6799(3) 0.0528 Uiso
H5_8 H 0.6327(17) 0.6124(10) 0.6641(4) 0.0635 Uiso
H6_8 H 0.6262(25) 0.5563(19) 0.6210(3) 0.0635 Uiso
H7_8 H 0.4866(18) 0.3214(12) 0.6514(5) 0.0635 Uiso
H8_8 H 0.4932(15) 0.3776(8) 0.6945(4) 0.0635 Uiso
C16_8 C 0.5517(9) 0.3978(7) 0.6046(3) 0.0528 Uiso
C17_8 C 0.5482(16) 0.4389(13) 0.5803(3) 0.0528 Uiso
C18_8 C 0.5415(34) 0.331(3) 0.5525(6) 0.0528 Uiso
N3_8 N 0.5444(21) 0.2875(17) 0.5749(8) 0.0528 Uiso
C19_8 C 0.5494(13) 0.3196(10) 0.6000(7) 0.0528 Uiso
H9_8 H 0.5515(16) 0.2907(12) 0.6153(8) 0.0635 Uiso
H10_8 H 0.538(4) 0.308(3) 0.5354(8) 0.0635 Uiso
H11_8 H 0.5494(17) 0.4901(14) 0.5814(5) 0.0635 Uiso
Cu2_4 Cu 0.2048(14) 0.3842(12) 0.8536(3) 0.0528 Uiso
O6_5 O 0.6823(36) 0.774(3) 0.8693(5) 0.0528 Uiso
O8_5 O 0.6946(45) 0.9272(34) 0.8675(5) 0.0528 Uiso
N4_8 N 0.5303(31) 0.7897(24) 0.8886(3) 0.0528 Uiso
C1_9 C 0.1240(10) 0.4185(12) 0.8090(3) 0.0528 Uiso
O1_9 O 0.1669(18) 0.4415(27) 0.8311(5) 0.0528 Uiso
O2_6 O 0.108(3) 0.3489(36) 0.7973(5) 0.0528 Uiso
C2_9 C 0.030(2) 0.5024(22) 0.7568(4) 0.0528 Uiso
C3_9 C 0.043(4) 0.5759(42) 0.7698(4) 0.0528 Uiso
H1_9 H 0.028(6) 0.6119(63) 0.7613(5) 0.0635 Uiso
C4_9 C 0.080(5) 0.596(5) 0.7958(5) 0.0528 Uiso
C5_9 C 0.104(3) 0.5435(34) 0.8087(4) 0.0528 Uiso
H2_9 H 0.128(4) 0.556(4) 0.8259(5) 0.0635 Uiso
C6_9 C 0.0907(6) 0.4699(8) 0.7956(2) 0.0528 Uiso
C7_9 C 0.0538(16) 0.4494(19) 0.7697(3) 0.0528 Uiso
H3_9 H 0.045(3) 0.400(4) 0.7610(5) 0.0635 Uiso
C8_9 C 0.1045(10) 0.6787(14) 0.8110(3) 0.0528 Uiso
O4_6 O 0.101(3) 0.7394(34) 0.7991(5) 0.0528 Uiso
O6_6 O 0.0921(19) 0.3177(36) 0.8693(5) 0.0528 Uiso
O8_6 O 0.233(3) 0.3054(45) 0.8675(5) 0.0528 Uiso
N4_9 N 0.259(2) 0.4697(31) 0.8886(3) 0.0528 Uiso
N1_9 N 0.9868(9) 0.4938(11) 0.7308(3) 0.0528 Uiso
C9_9 C 0.971(6) 0.431(7) 0.7130(6) 0.0528 Uiso
O5_9 O 0.995(11) 0.380(12) 0.7162(10) 0.0528 Uiso
H4_9 H 0.968(3) 0.5278(31) 0.7263(4) 0.0635 Uiso
C10_9 C 0.9372(6) 0.4364(10) 0.68374(16) 0.0528 Uiso
C11_9 C 0.9510(10) 0.3964(14) 0.6616(2) 0.0528 Uiso
C12_9 C 0.9211(12) 0.4003(19) 0.6356(2) 0.0528 Uiso
C13_9 C 0.8775(10) 0.4443(19) 0.6318(2) 0.0528 Uiso
C14_9 C 0.8637(10) 0.4843(15) 0.6539(4) 0.0528 Uiso
C15_9 C 0.8936(9) 0.4804(12) 0.6799(3) 0.0528 Uiso
H5_9 H 0.9798(14) 0.3673(17) 0.6641(4) 0.0635 Uiso
H6_9 H 0.9302(17) 0.3738(25) 0.6210(3) 0.0635 Uiso
H7_9 H 0.8349(14) 0.5134(18) 0.6514(5) 0.0635 Uiso
H8_9 H 0.8845(13) 0.5068(15) 0.6945(4) 0.0635 Uiso
C16_9 C 0.8462(6) 0.4483(9) 0.6046(3) 0.0528 Uiso
C17_9 C 0.8908(9) 0.4518(16) 0.5803(3) 0.0528 Uiso
C18_9 C 0.7899(15) 0.4585(34) 0.5525(6) 0.0528 Uiso
N3_9 N 0.7432(13) 0.4556(21) 0.5749(8) 0.0528 Uiso
C19_9 C 0.7703(8) 0.4506(13) 0.6000(7) 0.0528 Uiso
H9_9 H 0.7393(10) 0.4485(16) 0.6153(8) 0.0635 Uiso
H10_9 H 0.771(2) 0.462(4) 0.5354(8) 0.0635 Uiso
H11_9 H 0.9408(10) 0.4506(17) 0.5814(5) 0.0635 Uiso
C11_10 C 0.3824(10) 0.1121(10) 0.0050(2) 0.0528 Uiso
C12_10 C 0.4123(12) 0.1459(15) 0.0310(2) 0.0528 Uiso
C13_10 C 0.4559(10) 0.2335(16) 0.0348(2) 0.0528 Uiso
C14_10 C 0.4697(10) 0.2873(11) 0.0127(4) 0.0528 Uiso
H5_10 H 0.3536(14) 0.0542(10) 0.0025(4) 0.0635 Uiso
H6_10 H 0.4032(17) 0.1103(19) 0.0456(3) 0.0635 Uiso
H7_10 H 0.4985(14) 0.3452(12) 0.0152(5) 0.0635 Uiso
C16_10 C 0.4872(6) 0.2688(7) 0.0620(3) 0.0528 Uiso
C17_10 C 0.4426(9) 0.2277(13) 0.0863(3) 0.0528 Uiso
N2_7 N 0.4697(13) 0.259(2) 0.1114(3) 0.0528 Uiso
C18_10 C 0.5435(15) 0.335(3) 0.1141(6) 0.0528 Uiso
N3_10 N 0.5902(13) 0.3791(17) 0.0917(8) 0.0528 Uiso
C19_10 C 0.5631(8) 0.3470(10) 0.0666(7) 0.0528 Uiso
H9_10 H 0.5941(10) 0.3759(12) 0.0513(8) 0.0635 Uiso
H10_10 H 0.563(2) 0.358(3) 0.1312(8) 0.0635 Uiso
H11_10 H 0.3926(10) 0.1765(14) 0.0852(5) 0.0635 Uiso
Cu5_7 Cu 0.3842(12) 0.2048(9) 0.1464(3) 0.0528 Uiso
C2_10 C 0.304(2) 0.1394(10) 0.9098(4) 0.0528 Uiso
C3_10 C 0.291(4) 0.1999(14) 0.8968(4) 0.0528 Uiso
H1_10 H 0.306(6) 0.2509(18) 0.9053(5) 0.0635 Uiso
C4_10 C 0.254(5) 0.183(2) 0.8708(5) 0.0528 Uiso
C5_10 C 0.230(3) 0.1065(16) 0.8579(4) 0.0528 Uiso
H2_10 H 0.206(4) 0.095(2) 0.8407(5) 0.0635 Uiso
C6_10 C 0.2427(6) 0.0459(6) 0.8710(2) 0.0528 Uiso
C7_10 C 0.2796(16) 0.0623(11) 0.8969(3) 0.0528 Uiso
H3_10 H 0.289(3) 0.022(2) 0.9056(5) 0.0635 Uiso
C8_10 C 0.2289(10) 0.2409(10) 0.8556(3) 0.0528 Uiso
O3_6 O 0.195(2) 0.2185(17) 0.8320(4) 0.0528 Uiso
N1_10 N 0.3466(9) 0.1737(6) 0.9358(3) 0.0528 Uiso
C9_10 C 0.363(6) 0.127(4) 0.9536(6) 0.0528 Uiso
O5_10 O 0.339(11) 0.052(5) 0.9504(10) 0.0528 Uiso
H4_10 H 0.366(3) 0.2268(8) 0.9403(4) 0.0635 Uiso
C10_10 C 0.3962(6) 0.1659(8) 0.98292(16) 0.0528 Uiso
C15_10 C 0.4398(9) 0.2535(8) 0.9867(3) 0.0528 Uiso
H8_10 H 0.4489(13) 0.2890(8) 0.9721(4) 0.0635 Uiso
C1_10 C 0.2094(10) 0.9612(6) 0.8576(3) 0.0528 Uiso
O1_10 O 0.1665(18) 0.941(2) 0.8355(5) 0.0528 Uiso
O7_5 O 0.0239(26) 0.805(2) 0.8320(4) 0.0528 Uiso
C8_11 C 0.0121(14) 0.7711(10) 0.8556(3) 0.0528 Uiso
C11_11 C 0.7298(14) 0.6176(10) 0.0050(2) 0.0528 Uiso
C12_11 C 0.7337(19) 0.5877(12) 0.0310(2) 0.0528 Uiso
C13_11 C 0.7777(19) 0.5441(10) 0.0348(2) 0.0528 Uiso
C14_11 C 0.8177(15) 0.5303(10) 0.0127(4) 0.0528 Uiso
H5_11 H 0.7007(17) 0.6464(14) 0.0025(4) 0.0635 Uiso
H6_11 H 0.7072(25) 0.5968(17) 0.0456(3) 0.0635 Uiso
H7_11 H 0.8468(18) 0.5015(14) 0.0152(5) 0.0635 Uiso
C16_11 C 0.7817(9) 0.5128(6) 0.0620(3) 0.0528 Uiso
C17_11 C 0.7852(16) 0.5574(9) 0.0863(3) 0.0528 Uiso
N2_8 N 0.7897(24) 0.5303(13) 0.1114(3) 0.0528 Uiso
C18_11 C 0.7919(34) 0.4565(15) 0.1141(6) 0.0528 Uiso
N3_11 N 0.7890(21) 0.4098(13) 0.0917(8) 0.0528 Uiso
C19_11 C 0.7840(13) 0.4369(8) 0.0666(7) 0.0528 Uiso
H9_11 H 0.7819(16) 0.4059(10) 0.0513(8) 0.0635 Uiso
H10_11 H 0.796(4) 0.437(2) 0.1312(8) 0.0635 Uiso
H11_11 H 0.7840(17) 0.6074(10) 0.0852(5) 0.0635 Uiso
Cu5_8 Cu 0.8205(15) 0.6158(12) 0.1464(3) 0.0528 Uiso
C1_11 C 0.7519(12) 0.7906(10) 0.8576(3) 0.0528 Uiso
O1_11 O 0.7749(27) 0.8335(18) 0.8355(5) 0.0528 Uiso
C2_11 C 0.8358(22) 0.696(2) 0.9098(4) 0.0528 Uiso
C3_11 C 0.9093(42) 0.709(4) 0.8968(4) 0.0528 Uiso
H1_11 H 0.9453(63) 0.694(6) 0.9053(5) 0.0635 Uiso
C4_11 C 0.930(5) 0.746(5) 0.8708(5) 0.0528 Uiso
C5_11 C 0.8769(34) 0.770(3) 0.8579(4) 0.0528 Uiso
H2_11 H 0.890(4) 0.794(4) 0.8407(5) 0.0635 Uiso
C6_11 C 0.8033(8) 0.7573(6) 0.8710(2) 0.0528 Uiso
C7_11 C 0.7828(19) 0.7204(16) 0.8969(3) 0.0528 Uiso
H3_11 H 0.734(4) 0.711(3) 0.9056(5) 0.0635 Uiso
N1_11 N 0.8272(11) 0.6534(9) 0.9358(3) 0.0528 Uiso
C9_11 C 0.765(7) 0.637(6) 0.9536(6) 0.0528 Uiso
O5_11 O 0.714(12) 0.661(11) 0.9504(10) 0.0528 Uiso
H4_11 H 0.8612(31) 0.634(3) 0.9403(4) 0.0635 Uiso
C10_11 C 0.7698(10) 0.6038(6) 0.98292(16) 0.0528 Uiso
C15_11 C 0.8138(12) 0.5602(9) 0.9867(3) 0.0528 Uiso
H8_11 H 0.8402(15) 0.5511(13) 0.9721(4) 0.0635 Uiso
O7_6 O 0.7815(33) 0.9761(26) 0.8320(4) 0.0528 Uiso
C1_12 C 0.0388(6) 0.2481(12) 0.8576(3) 0.0528 Uiso
O1_12 O 0.059(2) 0.2251(27) 0.8355(5) 0.0528 Uiso
C11_12 C 0.8879(10) 0.2702(14) 0.0050(2) 0.0528 Uiso
C12_12 C 0.8541(15) 0.2663(19) 0.0310(2) 0.0528 Uiso
C13_12 C 0.7665(16) 0.2223(19) 0.0348(2) 0.0528 Uiso
C14_12 C 0.7127(11) 0.1823(15) 0.0127(4) 0.0528 Uiso
H5_12 H 0.9458(10) 0.2993(17) 0.0025(4) 0.0635 Uiso
H6_12 H 0.8897(19) 0.2928(25) 0.0456(3) 0.0635 Uiso
H7_12 H 0.6548(12) 0.1532(18) 0.0152(5) 0.0635 Uiso
C16_12 C 0.7312(7) 0.2183(9) 0.0620(3) 0.0528 Uiso
C17_12 C 0.7723(13) 0.2148(16) 0.0863(3) 0.0528 Uiso
N2_9 N 0.741(2) 0.2103(24) 0.1114(3) 0.0528 Uiso
C18_12 C 0.665(3) 0.2081(34) 0.1141(6) 0.0528 Uiso
N3_12 N 0.6209(17) 0.2110(21) 0.0917(8) 0.0528 Uiso
C19_12 C 0.6530(10) 0.2160(13) 0.0666(7) 0.0528 Uiso
H9_12 H 0.6241(12) 0.2181(16) 0.0513(8) 0.0635 Uiso
H10_12 H 0.642(3) 0.204(4) 0.1312(8) 0.0635 Uiso
H11_12 H 0.8235(14) 0.2160(17) 0.0852(5) 0.0635 Uiso
Cu5_9 Cu 0.7952(9) 0.1795(15) 0.1464(3) 0.0528 Uiso
C8_12 C 0.7591(10) 0.9879(14) 0.8556(3) 0.0528 Uiso
C2_12 C 0.1394(10) 0.304(2) 0.0902(4) 0.0528 Uiso
C3_12 C 0.1999(14) 0.291(4) 0.1032(4) 0.0528 Uiso
H1_12 H 0.2509(18) 0.306(6) 0.0947(5) 0.0635 Uiso
C4_12 C 0.183(2) 0.254(5) 0.1292(5) 0.0528 Uiso
C5_12 C 0.1065(16) 0.230(3) 0.1421(4) 0.0528 Uiso
H2_12 H 0.095(2) 0.206(4) 0.1593(5) 0.0635 Uiso
C6_12 C 0.0459(6) 0.2427(6) 0.1290(2) 0.0528 Uiso
C7_12 C 0.0623(11) 0.2796(16) 0.1031(3) 0.0528 Uiso
H3_12 H 0.022(2) 0.289(3) 0.0944(5) 0.0635 Uiso
C8_13 C 0.2409(10) 0.2289(10) 0.1444(3) 0.0528 Uiso
O3_7 O 0.2185(17) 0.195(2) 0.1680(4) 0.0528 Uiso
O4_7 O 0.3054(16) 0.233(3) 0.1325(5) 0.0528 Uiso
N1_12 N 0.1737(6) 0.3466(9) 0.0642(3) 0.0528 Uiso
C9_12 C 0.127(4) 0.363(6) 0.0464(6) 0.0528 Uiso
O5_12 O 0.052(5) 0.339(11) 0.0496(10) 0.0528 Uiso
H4_12 H 0.2268(8) 0.366(3) 0.0597(4) 0.0635 Uiso
C10_12 C 0.1659(8) 0.3962(6) 0.01708(16) 0.0528 Uiso
C15_12 C 0.2535(8) 0.4398(9) 0.0133(3) 0.0528 Uiso
H8_12 H 0.2890(8) 0.4489(13) 0.0279(4) 0.0635 Uiso
C11_13 C 0.1121(10) 0.3824(10) 0.9950(2) 0.0528 Uiso
C12_13 C 0.1459(15) 0.4123(12) 0.9690(2) 0.0528 Uiso
C13_13 C 0.2335(16) 0.4559(10) 0.9652(2) 0.0528 Uiso
C14_13 C 0.2873(11) 0.4697(10) 0.9873(4) 0.0528 Uiso
H5_13 H 0.0542(10) 0.3536(14) 0.9975(4) 0.0635 Uiso
H6_13 H 0.1103(19) 0.4032(17) 0.9544(3) 0.0635 Uiso
H7_13 H 0.3452(12) 0.4985(14) 0.9848(5) 0.0635 Uiso
C16_13 C 0.2688(7) 0.4872(6) 0.9380(3) 0.0528 Uiso
C17_13 C 0.2277(13) 0.4426(9) 0.9137(3) 0.0528 Uiso
C18_13 C 0.335(3) 0.5435(15) 0.8859(6) 0.0528 Uiso
N3_13 N 0.3791(17) 0.5902(13) 0.9083(8) 0.0528 Uiso
C19_13 C 0.3470(10) 0.5631(8) 0.9334(7) 0.0528 Uiso
H9_13 H 0.3759(12) 0.5941(10) 0.9487(8) 0.0635 Uiso
H10_13 H 0.358(3) 0.563(2) 0.8688(8) 0.0635 Uiso
H11_13 H 0.1765(14) 0.3926(10) 0.9148(5) 0.0635 Uiso
C1_13 C 0.9612(6) 0.2094(10) 0.1424(3) 0.0528 Uiso
O1_13 O 0.941(2) 0.1665(18) 0.1645(5) 0.0528 Uiso
O2_7 O 0.9079(19) 0.226(3) 0.1307(5) 0.0528 Uiso
O6_7 O 0.892(3) 0.2413(19) 0.2027(5) 0.0528 Uiso
O7_7 O 0.805(2) 0.0239(26) 0.1680(4) 0.0528 Uiso
O8_7 O 0.7394(34) 0.101(3) 0.2009(5) 0.0528 Uiso
C1_14 C 0.2481(12) 0.0388(6) 0.1424(3) 0.0528 Uiso
O1_14 O 0.2251(27) 0.059(2) 0.1645(5) 0.0528 Uiso
O2_8 O 0.3177(36) 0.0921(19) 0.1307(5) 0.0528 Uiso
O6_8 O 0.3489(36) 0.108(3) 0.2027(5) 0.0528 Uiso
O8_8 O 0.3612(45) 0.2606(34) 0.2009(5) 0.0528 Uiso
C11_14 C 0.2702(14) 0.8879(10) 0.9950(2) 0.0528 Uiso
C12_14 C 0.2663(19) 0.8541(15) 0.9690(2) 0.0528 Uiso
C13_14 C 0.2223(19) 0.7665(16) 0.9652(2) 0.0528 Uiso
C14_14 C 0.1823(15) 0.7127(11) 0.9873(4) 0.0528 Uiso
H5_14 H 0.2993(17) 0.9458(10) 0.9975(4) 0.0635 Uiso
H6_14 H 0.2928(25) 0.8897(19) 0.9544(3) 0.0635 Uiso
H7_14 H 0.1532(18) 0.6548(12) 0.9848(5) 0.0635 Uiso
C16_14 C 0.2183(9) 0.7312(7) 0.9380(3) 0.0528 Uiso
C17_14 C 0.2148(16) 0.7723(13) 0.9137(3) 0.0528 Uiso
C18_14 C 0.2081(34) 0.665(3) 0.8859(6) 0.0528 Uiso
N3_14 N 0.2110(21) 0.6209(17) 0.9083(8) 0.0528 Uiso
C19_14 C 0.2160(13) 0.6530(10) 0.9334(7) 0.0528 Uiso
H9_14 H 0.2181(16) 0.6241(12) 0.9487(8) 0.0635 Uiso
H10_14 H 0.204(4) 0.642(3) 0.8688(8) 0.0635 Uiso
H11_14 H 0.2160(17) 0.8235(14) 0.9148(5) 0.0635 Uiso
C8_14 C 0.9879(14) 0.7591(10) 0.1444(3) 0.0528 Uiso
O3_8 O 0.9761(26) 0.7815(17) 0.1680(4) 0.0528 Uiso
O4_8 O 0.9272(34) 0.6946(16) 0.1325(5) 0.0528 Uiso
C8_15 C 0.7711(10) 0.0121(14) 0.1444(3) 0.0528 Uiso
O4_9 O 0.767(3) 0.0728(34) 0.1325(5) 0.0528 Uiso
C1_15 C 0.7906(10) 0.7519(12) 0.1424(3) 0.0528 Uiso
O1_15 O 0.8335(18) 0.7749(27) 0.1645(5) 0.0528 Uiso
O2_9 O 0.774(3) 0.6823(36) 0.1307(5) 0.0528 Uiso
C2_13 C 0.696(2) 0.8358(22) 0.0902(4) 0.0528 Uiso
C3_13 C 0.709(4) 0.9093(42) 0.1032(4) 0.0528 Uiso
H1_13 H 0.694(6) 0.9453(63) 0.0947(5) 0.0635 Uiso
C4_13 C 0.746(5) 0.930(5) 0.1292(5) 0.0528 Uiso
C5_13 C 0.770(3) 0.8769(34) 0.1421(4) 0.0528 Uiso
H2_13 H 0.794(4) 0.890(4) 0.1593(5) 0.0635 Uiso
C6_13 C 0.7573(6) 0.8033(8) 0.1290(2) 0.0528 Uiso
C7_13 C 0.7204(16) 0.7828(19) 0.1031(3) 0.0528 Uiso
H3_13 H 0.711(3) 0.734(4) 0.0944(5) 0.0635 Uiso
N1_13 N 0.6534(9) 0.8272(11) 0.0642(3) 0.0528 Uiso
C9_13 C 0.637(6) 0.765(7) 0.0464(6) 0.0528 Uiso
O5_13 O 0.661(11) 0.714(12) 0.0496(10) 0.0528 Uiso
H4_13 H 0.634(3) 0.8612(31) 0.0597(4) 0.0635 Uiso
C10_13 C 0.6038(6) 0.7698(10) 0.01708(16) 0.0528 Uiso
C15_13 C 0.5602(9) 0.8138(12) 0.0133(3) 0.0528 Uiso
H8_13 H 0.5511(13) 0.8402(15) 0.0279(4) 0.0635 Uiso
O6_9 O 0.7587(19) 0.6511(36) 0.2027(5) 0.0528 Uiso
O8_9 O 0.899(3) 0.6388(45) 0.2009(5) 0.0528 Uiso
C11_15 C 0.6176(10) 0.7298(14) 0.9950(2) 0.0528 Uiso
C12_15 C 0.5877(12) 0.7337(19) 0.9690(2) 0.0528 Uiso
C13_15 C 0.5441(10) 0.7777(19) 0.9652(2) 0.0528 Uiso
C14_15 C 0.5303(10) 0.8177(15) 0.9873(4) 0.0528 Uiso
H5_15 H 0.6464(14) 0.7007(17) 0.9975(4) 0.0635 Uiso
H6_15 H 0.5968(17) 0.7072(25) 0.9544(3) 0.0635 Uiso
H7_15 H 0.5015(14) 0.8468(18) 0.9848(5) 0.0635 Uiso
C16_15 C 0.5128(6) 0.7817(9) 0.9380(3) 0.0528 Uiso
C17_15 C 0.5574(9) 0.7852(16) 0.9137(3) 0.0528 Uiso
C18_15 C 0.4565(15) 0.7919(34) 0.8859(6) 0.0528 Uiso
N3_15 N 0.4098(13) 0.7890(21) 0.9083(8) 0.0528 Uiso
C19_15 C 0.4369(8) 0.7840(13) 0.9334(7) 0.0528 Uiso
H9_15 H 0.4059(10) 0.7819(16) 0.9487(8) 0.0635 Uiso
H10_15 H 0.437(2) 0.796(4) 0.8688(8) 0.0635 Uiso
H11_15 H 0.6074(10) 0.7840(17) 0.9148(5) 0.0635 Uiso
N1_14 N 0.0132(9) 0.5071(6) 0.2692(3) 0.0528 Uiso
C9_14 C 0.029(6) 0.461(4) 0.2870(6) 0.0528 Uiso
O5_14 O 0.005(11) 0.386(5) 0.2838(10) 0.0528 Uiso
H4_14 H 0.032(3) 0.5602(8) 0.2737(4) 0.0635 Uiso
C10_14 C 0.0628(6) 0.4993(8) 0.31626(16) 0.0528 Uiso
C11_16 C 0.0490(10) 0.4455(10) 0.3384(2) 0.0528 Uiso
C12_16 C 0.0789(12) 0.4793(15) 0.3644(2) 0.0528 Uiso
C13_16 C 0.1225(10) 0.5669(16) 0.3682(2) 0.0528 Uiso
C14_16 C 0.1363(10) 0.6207(11) 0.3461(4) 0.0528 Uiso
C15_14 C 0.1064(9) 0.5869(8) 0.3201(3) 0.0528 Uiso
H5_16 H 0.0202(14) 0.3876(10) 0.3359(4) 0.0635 Uiso
H6_16 H 0.0698(17) 0.4437(19) 0.3790(3) 0.0635 Uiso
H7_16 H 0.1651(14) 0.6786(12) 0.3486(5) 0.0635 Uiso
H8_14 H 0.1155(13) 0.6224(8) 0.3055(4) 0.0635 Uiso
C16_16 C 0.1538(6) 0.6022(7) 0.3954(3) 0.0528 Uiso
C17_16 C 0.1092(9) 0.5611(13) 0.4197(3) 0.0528 Uiso
C18_16 C 0.2101(15) 0.669(3) 0.4475(6) 0.0528 Uiso
N3_16 N 0.2568(13) 0.7125(17) 0.4251(8) 0.0528 Uiso
C19_16 C 0.2297(8) 0.6804(10) 0.4000(7) 0.0528 Uiso
H9_16 H 0.2607(10) 0.7093(12) 0.3847(8) 0.0635 Uiso
H10_16 H 0.229(2) 0.692(3) 0.4646(8) 0.0635 Uiso
H11_16 H 0.0592(10) 0.5099(14) 0.4186(5) 0.0635 Uiso
C1_16 C 0.8760(10) 0.2946(6) 0.1910(3) 0.0528 Uiso
O1_16 O 0.8331(18) 0.275(2) 0.1689(5) 0.0528 Uiso
C2_14 C 0.970(2) 0.4728(10) 0.2432(4) 0.0528 Uiso
C3_14 C 0.957(4) 0.5333(14) 0.2302(4) 0.0528 Uiso
H1_14 H 0.972(6) 0.5843(18) 0.2387(5) 0.0635 Uiso
C4_14 C 0.920(5) 0.517(2) 0.2042(5) 0.0528 Uiso
C5_14 C 0.896(3) 0.4399(16) 0.1913(4) 0.0528 Uiso
H2_14 H 0.872(4) 0.429(2) 0.1741(5) 0.0635 Uiso
C6_14 C 0.9093(6) 0.3793(6) 0.2044(2) 0.0528 Uiso
C7_14 C 0.9462(16) 0.3957(11) 0.2303(3) 0.0528 Uiso
H3_14 H 0.955(3) 0.356(2) 0.2390(5) 0.0635 Uiso
C8_16 C 0.8955(10) 0.5743(10) 0.1890(3) 0.0528 Uiso
O3_9 O 0.861(2) 0.5519(17) 0.1654(4) 0.0528 Uiso
O7_8 O 0.6905(26) 0.139(2) 0.1654(4) 0.0528 Uiso
C1_17 C 0.4185(12) 0.1240(10) 0.1910(3) 0.0528 Uiso
O1_17 O 0.4415(27) 0.1669(18) 0.1689(5) 0.0528 Uiso
C2_15 C 0.5024(22) 0.030(2) 0.2432(4) 0.0528 Uiso
C3_15 C 0.5759(42) 0.043(4) 0.2302(4) 0.0528 Uiso
H1_15 H 0.6119(63) 0.028(6) 0.2387(5) 0.0635 Uiso
C4_15 C 0.596(5) 0.080(5) 0.2042(5) 0.0528 Uiso
C5_15 C 0.5435(34) 0.104(3) 0.1913(4) 0.0528 Uiso
H2_15 H 0.556(4) 0.128(4) 0.1741(5) 0.0635 Uiso
C6_15 C 0.4699(8) 0.0907(6) 0.2044(2) 0.0528 Uiso
C7_15 C 0.4494(19) 0.0538(16) 0.2303(3) 0.0528 Uiso
H3_15 H 0.400(4) 0.045(3) 0.2390(5) 0.0635 Uiso
C8_17 C 0.6787(14) 0.1045(10) 0.1890(3) 0.0528 Uiso
O7_9 O 0.4481(33) 0.3095(26) 0.1654(4) 0.0528 Uiso
N1_15 N 0.4938(11) 0.9868(9) 0.2692(3) 0.0528 Uiso
C9_15 C 0.431(7) 0.971(6) 0.2870(6) 0.0528 Uiso
O5_15 O 0.380(12) 0.995(11) 0.2838(10) 0.0528 Uiso
H4_15 H 0.5278(31) 0.968(3) 0.2737(4) 0.0635 Uiso
C10_15 C 0.4364(10) 0.9372(6) 0.31626(16) 0.0528 Uiso
C11_17 C 0.3964(14) 0.9510(10) 0.3384(2) 0.0528 Uiso
C12_17 C 0.4003(19) 0.9211(12) 0.3644(2) 0.0528 Uiso
C13_17 C 0.4443(19) 0.8775(10) 0.3682(2) 0.0528 Uiso
C14_17 C 0.4843(15) 0.8637(10) 0.3461(4) 0.0528 Uiso
C15_15 C 0.4804(12) 0.8936(9) 0.3201(3) 0.0528 Uiso
H5_17 H 0.3673(17) 0.9798(14) 0.3359(4) 0.0635 Uiso
H6_17 H 0.3738(25) 0.9302(17) 0.3790(3) 0.0635 Uiso
H7_17 H 0.5134(18) 0.8349(14) 0.3486(5) 0.0635 Uiso
H8_15 H 0.5068(15) 0.8845(13) 0.3055(4) 0.0635 Uiso
C16_17 C 0.4483(9) 0.8462(6) 0.3954(3) 0.0528 Uiso
C17_17 C 0.4518(16) 0.8908(9) 0.4197(3) 0.0528 Uiso
C18_17 C 0.4585(34) 0.7899(15) 0.4475(6) 0.0528 Uiso
N3_17 N 0.4556(21) 0.7432(13) 0.4251(8) 0.0528 Uiso
C19_17 C 0.4506(13) 0.7703(8) 0.4000(7) 0.0528 Uiso
H9_17 H 0.4485(16) 0.7393(10) 0.3847(8) 0.0635 Uiso
H10_17 H 0.462(4) 0.771(2) 0.4646(8) 0.0635 Uiso
H11_17 H 0.4506(17) 0.9408(10) 0.4186(5) 0.0635 Uiso
C1_18 C 0.7054(6) 0.5815(12) 0.1910(3) 0.0528 Uiso
O1_18 O 0.725(2) 0.5585(27) 0.1689(5) 0.0528 Uiso
C2_16 C 0.5272(10) 0.4976(22) 0.2432(4) 0.0528 Uiso
C3_16 C 0.4667(14) 0.4241(42) 0.2302(4) 0.0528 Uiso
H1_16 H 0.4157(18) 0.3881(63) 0.2387(5) 0.0635 Uiso
C4_16 C 0.483(2) 0.404(5) 0.2042(5) 0.0528 Uiso
C5_16 C 0.5601(16) 0.4565(34) 0.1913(4) 0.0528 Uiso
H2_16 H 0.571(2) 0.444(4) 0.1741(5) 0.0635 Uiso
C6_16 C 0.6207(6) 0.5301(8) 0.2044(2) 0.0528 Uiso
C7_16 C 0.6043(11) 0.5506(19) 0.2303(3) 0.0528 Uiso
H3_16 H 0.644(2) 0.600(4) 0.2390(5) 0.0635 Uiso
C8_18 C 0.4257(10) 0.3213(14) 0.1890(3) 0.0528 Uiso
N1_16 N 0.4929(6) 0.5062(11) 0.2692(3) 0.0528 Uiso
C9_16 C 0.539(4) 0.569(7) 0.2870(6) 0.0528 Uiso
O5_16 O 0.614(5) 0.620(12) 0.2838(10) 0.0528 Uiso
H4_16 H 0.4398(8) 0.4722(31) 0.2737(4) 0.0635 Uiso
C10_16 C 0.5007(8) 0.5636(10) 0.31626(16) 0.0528 Uiso
C11_18 C 0.5545(10) 0.6036(14) 0.3384(2) 0.0528 Uiso
C12_18 C 0.5207(15) 0.5997(19) 0.3644(2) 0.0528 Uiso
C13_18 C 0.4331(16) 0.5557(19) 0.3682(2) 0.0528 Uiso
C14_18 C 0.3793(11) 0.5157(15) 0.3461(4) 0.0528 Uiso
C15_16 C 0.4131(8) 0.5196(12) 0.3201(3) 0.0528 Uiso
H5_18 H 0.6124(10) 0.6327(17) 0.3359(4) 0.0635 Uiso
H6_18 H 0.5563(19) 0.6262(25) 0.3790(3) 0.0635 Uiso
H7_18 H 0.3214(12) 0.4866(18) 0.3486(5) 0.0635 Uiso
H8_16 H 0.3776(8) 0.4932(15) 0.3055(4) 0.0635 Uiso
C16_18 C 0.3978(7) 0.5517(9) 0.3954(3) 0.0528 Uiso
C17_18 C 0.4389(13) 0.5482(16) 0.4197(3) 0.0528 Uiso
C18_18 C 0.331(3) 0.5415(34) 0.4475(6) 0.0528 Uiso
N3_18 N 0.2875(17) 0.5444(21) 0.4251(8) 0.0528 Uiso
C19_18 C 0.3196(10) 0.5494(13) 0.4000(7) 0.0528 Uiso
H9_18 H 0.2907(12) 0.5515(16) 0.3847(8) 0.0635 Uiso
H10_18 H 0.308(3) 0.538(4) 0.4646(8) 0.0635 Uiso
H11_18 H 0.4901(14) 0.5494(17) 0.4186(5) 0.0635 Uiso
C2_17 C 0.8606(10) 0.1642(22) 0.9098(4) 0.0528 Uiso
C3_17 C 0.8001(14) 0.0907(42) 0.8968(4) 0.0528 Uiso
H1_17 H 0.7491(18) 0.0547(63) 0.9053(5) 0.0635 Uiso
C4_17 C 0.817(2) 0.070(5) 0.8708(5) 0.0528 Uiso
C5_17 C 0.8935(16) 0.1231(34) 0.8579(4) 0.0528 Uiso
H2_17 H 0.905(2) 0.110(4) 0.8407(5) 0.0635 Uiso
C6_17 C 0.9541(6) 0.1967(8) 0.8710(2) 0.0528 Uiso
C7_17 C 0.9377(11) 0.2172(19) 0.8969(3) 0.0528 Uiso
H3_17 H 0.978(2) 0.266(4) 0.9056(5) 0.0635 Uiso
N1_17 N 0.8263(6) 0.1728(11) 0.9358(3) 0.0528 Uiso
C9_17 C 0.873(4) 0.235(7) 0.9536(6) 0.0528 Uiso
O5_17 O 0.948(5) 0.286(12) 0.9504(10) 0.0528 Uiso
H4_17 H 0.7732(8) 0.1388(31) 0.9403(4) 0.0635 Uiso
C10_17 C 0.8341(8) 0.2302(10) 0.98292(16) 0.0528 Uiso
C15_17 C 0.7465(8) 0.1862(12) 0.9867(3) 0.0528 Uiso
H8_17 H 0.7110(8) 0.1598(15) 0.9721(4) 0.0635 Uiso
C2_18 C 0.1642(22) 0.8606(10) 0.0902(4) 0.0528 Uiso
C3_18 C 0.0907(42) 0.8001(14) 0.1032(4) 0.0528 Uiso
H1_18 H 0.0547(63) 0.7491(18) 0.0947(5) 0.0635 Uiso
C4_18 C 0.070(5) 0.817(2) 0.1292(5) 0.0528 Uiso
C5_18 C 0.1231(34) 0.8935(16) 0.1421(4) 0.0528 Uiso
H2_18 H 0.110(4) 0.905(2) 0.1593(5) 0.0635 Uiso
C6_18 C 0.1967(8) 0.9541(6) 0.1290(2) 0.0528 Uiso
C7_18 C 0.2172(19) 0.9377(11) 0.1031(3) 0.0528 Uiso
H3_18 H 0.266(4) 0.978(2) 0.0944(5) 0.0635 Uiso
N1_18 N 0.1728(11) 0.8263(6) 0.0642(3) 0.0528 Uiso
C9_18 C 0.235(7) 0.873(4) 0.0464(6) 0.0528 Uiso
O5_18 O 0.286(12) 0.948(5) 0.0496(10) 0.0528 Uiso
H4_18 H 0.1388(31) 0.7732(8) 0.0597(4) 0.0635 Uiso
C10_18 C 0.2302(10) 0.8341(8) 0.01708(16) 0.0528 Uiso
C15_18 C 0.1862(12) 0.7465(8) 0.0133(3) 0.0528 Uiso
H8_18 H 0.1598(15) 0.7110(8) 0.0279(4) 0.0635 Uiso
loop_
_geom_bond_atom_site_label_1
_geom_bond_atom_site_label_2
_geom_bond_site_symmetry_1
_geom_bond_site_symmetry_2
N3 C18 1_555 1_555
H9 C19 1_555 1_555
H10 C18 1_555 1_555
N3 C19 1_555 1_555
Cu1 O1 1_555 1_555
C1 O1 1_555 1_555
O2 C1 1_555 1_555
C2 C3 1_555 1_555
C3 H1 1_555 1_555
C4 C3 1_555 1_555
C5 C4 1_555 1_555
H2 C5 1_555 1_555
C6 C1 1_555 1_555
C7 C2 1_555 1_555
H3 C7 1_555 1_555
C8 C4 1_555 1_555
O3 C8 1_555 1_555
O4 C8 1_555 1_555
N1 C2 1_555 1_555
C9 N1 1_555 1_555
O5 C9 1_555 1_555
H4 N1 1_555 1_555
C10 C9 1_555 1_555
C11 C10 1_555 1_555
C12 C11 1_555 1_555
C13 C12 1_555 1_555
C14 C13 1_555 1_555
C15 C10 1_555 1_555
H5 C11 1_555 1_555
H6 C12 1_555 1_555
H8 C15 1_555 1_555
C16 C13 1_555 1_555
C17 C16 1_555 1_555
N2 C17 1_555 1_555
H11 C17 1_555 1_555
Cu2 O3 1_555 1_555
Cu3 Cu1 1_555 1_555
Cu5 N2 1_555 1_555
O6 Cu1 1_555 1_555
O7 Cu1 1_555 1_555
O8 Cu1 1_555 1_555
N4 Cu1 1_555 1_555
O2 Cu3 1_555 1_555
C5 C6 1_555 1_555
C6 C7 1_555 1_555
C14 C15 1_555 1_555
Cu2 O1_2 1_555 1_555
C1_2 O1_2 1_555 1_555
O2_2 C1_2 1_555 1_555
C2_2 C3_2 1_555 1_555
C3_2 H1_2 1_555 1_555
C4_2 C3_2 1_555 1_555
C5_2 C4_2 1_555 1_555
H2_2 C5_2 1_555 1_555
C6_2 C1_2 1_555 1_555
C7_2 C2_2 1_555 1_555
H3_2 C7_2 1_555 1_555
C8_2 C4_2 1_555 1_555
O3_2 C8_2 1_555 1_555
O4_2 C8_2 1_555 1_555
N1_2 C2_2 1_555 1_555
C9_2 N1_2 1_555 1_555
O5_2 C9_2 1_555 1_555
H4_2 N1_2 1_555 1_555
C10_2 C9_2 1_555 1_555
C11_2 C10_2 1_555 1_555
C12_2 C11_2 1_555 1_555
C13_2 C12_2 1_555 1_555
C14_2 C13_2 1_555 1_555
C15_2 C10_2 1_555 1_555
H5_2 C11_2 1_555 1_555
H6_2 C12_2 1_555 1_555
H8_2 C15_2 1_555 1_555
C16_2 C13_2 1_555 1_555
C17_2 C16_2 1_555 1_555
N2_2 C17_2 1_555 1_555
H11_2 C17_2 1_555 1_555
Cu2_2 O3_2 1_555 1_555
Cu5_2 N2_2 1_555 1_555
N4_2 Cu2 1_555 1_555
C5_2 C6_2 1_555 1_555
C6_2 C7_2 1_555 1_555
C14_2 C15_2 1_555 1_555
N3_2 C18_2 1_555 1_555
H9_2 C19_2 1_555 1_555
H10_2 C18_2 1_555 1_555
N3_2 C19_2 1_555 1_555
Cu2_2 O1_3 1_555 1_555
C1_3 O1_3 1_555 1_555
O2_3 C1_3 1_555 1_555
C2_3 C3_3 1_555 1_555
C3_3 H1_3 1_555 1_555
C4_3 C3_3 1_555 1_555
C5_3 C4_3 1_555 1_555
H2_3 C5_3 1_555 1_555
C6_3 C1_3 1_555 1_555
C7_3 C2_3 1_555 1_555
H3_3 C7_3 1_555 1_555
C8_3 C4_3 1_555 1_555
O7 C8_3 1_555 1_555
O4_3 C8_3 1_555 1_555
N1_3 C2_3 1_555 1_555
C9_3 N1_3 1_555 1_555
O5_3 C9_3 1_555 1_555
H4_3 N1_3 1_555 1_555
C10_3 C9_3 1_555 1_555
C11_3 C10_3 1_555 1_555
C12_3 C11_3 1_555 1_555
C13_3 C12_3 1_555 1_555
C14_3 C13_3 1_555 1_555
C15_3 C10_3 1_555 1_555
H5_3 C11_3 1_555 1_555
H6_3 C12_3 1_555 1_555
H7_3 C14_3 1_555 1_555
H8_3 C15_3 1_555 1_555
C16_3 C13_3 1_555 1_555
C17_3 C16_3 1_555 1_555
N2_3 C17_3 1_555 1_555
C18_3 N2_3 1_555 1_555
N3_3 C18_3 1_555 1_555
C19_3 C16_3 1_555 1_555
H9_3 C19_3 1_555 1_555
H10_3 C18_3 1_555 1_555
H11_3 C17_3 1_555 1_555
Cu3 O4_3 1_555 1_555
Cu5_3 N2_3 1_555 1_555
N4_3 Cu2_2 1_555 1_555
C5_3 C6_3 1_555 1_555
C6_3 C7_3 1_555 1_555
C14_3 C15_3 1_555 1_555
N3_3 C19_3 1_555 1_555
N3_4 C18_4 1_555 1_555
H9_4 C19_4 1_555 1_555
H10_4 C18_4 1_555 1_555
N3_4 C19_4 1_555 1_555
Cu3 O1_4 1_555 1_555
C1_4 O1_4 1_555 1_555
O6 C1_4 1_555 1_555
C2_4 C3_4 1_555 1_555
C3_4 H1_4 1_555 1_555
C4_4 C3_4 1_555 1_555
C5_4 C4_4 1_555 1_555
H2_4 C5_4 1_555 1_555
C6_4 C1_4 1_555 1_555
C7_4 C2_4 1_555 1_555
H3_4 C7_4 1_555 1_555
C8_4 C4_4 1_555 1_555
O3_3 C8_4 1_555 1_555
O8_3 C8_4 1_555 1_555
N1_4 C2_4 1_555 1_555
C9_4 N1_4 1_555 1_555
O5_4 C9_4 1_555 1_555
H4_4 N1_4 1_555 1_555
C10_4 C9_4 1_555 1_555
C11_4 C10_4 1_555 1_555
C12_4 C11_4 1_555 1_555
C13_4 C12_4 1_555 1_555
C14_4 C13_4 1_555 1_555
C15_4 C10_4 1_555 1_555
H5_4 C11_4 1_555 1_555
H6_4 C12_4 1_555 1_555
H8_4 C15_4 1_555 1_555
C16_4 C13_4 1_555 1_555
C17_4 C16_4 1_555 1_555
N2_4 C17_4 1_555 1_555
H11_4 C17_4 1_555 1_555
Cu4_2 O3_3 1_555 1_555
Cu5_4 N2_4 1_555 1_555
O7_2 Cu3 1_555 1_555
N4_4 Cu3 1_555 1_555
C5_4 C6_4 1_555 1_555
C6_4 C7_4 1_555 1_555
C14_4 C15_4 1_555 1_555
Cu4 O1_5 1_555 1_555
C1_5 O1_5 1_555 1_555
O6_2 C1_5 1_555 1_555
C2_5 C3_5 1_555 1_555
C3_5 H1_5 1_555 1_555
C4_5 C3_5 1_555 1_555
C5_5 C4_5 1_555 1_555
H2_5 C5_5 1_555 1_555
C6_5 C1_5 1_555 1_555
C7_5 C2_5 1_555 1_555
H3_5 C7_5 1_555 1_555
C8_5 C4_5 1_555 1_555
O7_2 C8_5 1_555 1_555
O8 C8_5 1_555 1_555
N1_5 C2_5 1_555 1_555
C9_5 N1_5 1_555 1_555
O5_5 C9_5 1_555 1_555
H4_5 N1_5 1_555 1_555
C10_5 C9_5 1_555 1_555
C11_5 C10_5 1_555 1_555
C12_5 C11_5 1_555 1_555
C13_5 C12_5 1_555 1_555
C14_5 C13_5 1_555 1_555
C15_5 C10_5 1_555 1_555
H5_5 C11_5 1_555 1_555
H6_5 C12_5 1_555 1_555
H7_5 C14_5 1_555 1_555
H8_5 C15_5 1_555 1_555
C16_5 C13_5 1_555 1_555
C17_5 C16_5 1_555 1_555
N2_5 C17_5 1_555 1_555
C18_5 N2_5 1_555 1_555
N3_5 C18_5 1_555 1_555
C19_5 C16_5 1_555 1_555
H9_5 C19_5 1_555 1_555
H10_5 C18_5 1_555 1_555
H11_5 C17_5 1_555 1_555
Cu5_5 N2_5 1_555 1_555
O7_3 Cu4 1_555 1_555
N4_5 Cu4 1_555 1_555
C5_5 C6_5 1_555 1_555
C6_5 C7_5 1_555 1_555
C14_5 C15_5 1_555 1_555
N3_5 C19_5 1_555 1_555
Cu4_2 O1_6 1_555 1_555
C1_6 O1_6 1_555 1_555
O6_3 C1_6 1_555 1_555
C2_6 C3_6 1_555 1_555
C3_6 H1_6 1_555 1_555
C4_6 C3_6 1_555 1_555
C5_6 C4_6 1_555 1_555
H2_6 C5_6 1_555 1_555
C6_6 C1_6 1_555 1_555
C7_6 C2_6 1_555 1_555
H3_6 C7_6 1_555 1_555
C8_6 C4_6 1_555 1_555
O7_3 C8_6 1_555 1_555
O8_2 C8_6 1_555 1_555
N1_6 C2_6 1_555 1_555
C9_6 N1_6 1_555 1_555
O5_6 C9_6 1_555 1_555
H4_6 N1_6 1_555 1_555
C10_6 C9_6 1_555 1_555
C11_6 C10_6 1_555 1_555
C12_6 C11_6 1_555 1_555
C13_6 C12_6 1_555 1_555
C14_6 C13_6 1_555 1_555
C15_6 C10_6 1_555 1_555
H5_6 C11_6 1_555 1_555
H6_6 C12_6 1_555 1_555
H8_6 C15_6 1_555 1_555
C16_6 C13_6 1_555 1_555
C17_6 C16_6 1_555 1_555
N2_6 C17_6 1_555 1_555
H11_6 C17_6 1_555 1_555
Cu5_6 N2_6 1_555 1_555
N4_6 Cu4_2 1_555 1_555
C5_6 C6_6 1_555 1_555
C6_6 C7_6 1_555 1_555
C14_6 C15_6 1_555 1_555
N3_6 C18_6 1_555 1_555
H9_6 C19_6 1_555 1_555
H10_6 C18_6 1_555 1_555
N3_6 C19_6 1_555 1_555
C9_7 N1_7 1_555 1_555
O5_7 C9_7 1_555 1_555
H4_7 N1_7 1_555 1_555
C10_7 C9_7 1_555 1_555
C11_7 C10_7 1_555 1_555
C12_7 C11_7 1_555 1_555
C13_7 C12_7 1_555 1_555
C14_7 C13_7 1_555 1_555
C15_7 C10_7 1_555 1_555
H5_7 C11_7 1_555 1_555
H6_7 C12_7 1_555 1_555
H7_7 C14_7 1_555 1_555
H8_7 C15_7 1_555 1_555
C16_7 C13_7 1_555 1_555
C17_7 C16_7 1_555 1_555
N4_3 C17_7 1_555 1_555
C18_7 N4_3 1_555 1_555
N3_7 C18_7 1_555 1_555
C19_7 C16_7 1_555 1_555
H9_7 C19_7 1_555 1_555
H10_7 C18_7 1_555 1_555
H11_7 C17_7 1_555 1_555
C14_7 C15_7 1_555 1_555
N3_7 C19_7 1_555 1_555
Cu1_2 O1_7 1_555 1_555
C1_7 O1_7 1_555 1_555
O2_4 C1_7 1_555 1_555
C2_7 C3_7 1_555 1_555
C3_7 H1_7 1_555 1_555
C4_7 C3_7 1_555 1_555
C5_7 C4_7 1_555 1_555
H2_7 C5_7 1_555 1_555
C6_7 C1_7 1_555 1_555
C7_7 C2_7 1_555 1_555
H3_7 C7_7 1_555 1_555
C8_7 C4_7 1_555 1_555
O3_4 C8_7 1_555 1_555
O4_4 C8_7 1_555 1_555
Cu2_3 O3_4 1_555 1_555
Cu5_6 Cu1_2 1_555 1_555
Cu5_4 O4_4 1_555 1_555
O6_4 Cu1_2 1_555 1_555
O7_4 Cu1_2 1_555 1_555
O8_4 Cu1_2 1_555 1_555
N4_7 Cu1_2 1_555 1_555
O2_4 Cu5_6 1_555 1_555
C5_7 C6_7 1_555 1_555
C6_7 C7_7 1_555 1_555
Cu2_3 Cu5_4 1_555 1_555
Cu2_3 O1_8 1_555 1_555
C1_8 O1_8 1_555 1_555
O2_5 C1_8 1_555 1_555
C2_8 C3_8 1_555 1_555
C3_8 H1_8 1_555 1_555
C4_8 C3_8 1_555 1_555
C5_8 C4_8 1_555 1_555
H2_8 C5_8 1_555 1_555
C6_8 C1_8 1_555 1_555
C7_8 C2_8 1_555 1_555
H3_8 C7_8 1_555 1_555
C8_8 C4_8 1_555 1_555
O3_5 C8_8 1_555 1_555
O4_5 C8_8 1_555 1_555
N1_8 C2_8 1_555 1_555
C9_8 N1_8 1_555 1_555
O5_8 C9_8 1_555 1_555
H4_8 N1_8 1_555 1_555
C10_8 C9_8 1_555 1_555
C11_8 C10_8 1_555 1_555
C12_8 C11_8 1_555 1_555
C13_8 C12_8 1_555 1_555
C14_8 C13_8 1_555 1_555
C15_8 C10_8 1_555 1_555
H5_8 C11_8 1_555 1_555
H6_8 C12_8 1_555 1_555
H7_8 C14_8 1_555 1_555
H8_8 C15_8 1_555 1_555
C16_8 C13_8 1_555 1_555
C17_8 C16_8 1_555 1_555
N4 C17_8 1_555 1_555
C18_8 N4 1_555 1_555
N3_8 C18_8 1_555 1_555
C19_8 C16_8 1_555 1_555
H9_8 C19_8 1_555 1_555
H10_8 C18_8 1_555 1_555
H11_8 C17_8 1_555 1_555
Cu2_4 O3_5 1_555 1_555
Cu5_5 O4_5 1_555 1_555
O6_5 Cu2_3 1_555 1_555
O8_5 Cu2_3 1_555 1_555
N4_8 Cu2_3 1_555 1_555
O2_5 Cu5_4 1_555 1_555
C5_8 C6_8 1_555 1_555
C6_8 C7_8 1_555 1_555
C14_8 C15_8 1_555 1_555
N3_8 C19_8 1_555 1_555
Cu2_4 Cu5_5 1_555 1_555
Cu2_4 O1_9 1_555 1_555
C1_9 O1_9 1_555 1_555
O2_6 C1_9 1_555 1_555
C2_9 C3_9 1_555 1_555
C3_9 H1_9 1_555 1_555
C4_9 C3_9 1_555 1_555
C5_9 C4_9 1_555 1_555
H2_9 C5_9 1_555 1_555
C6_9 C1_9 1_555 1_555
C7_9 C2_9 1_555 1_555
H3_9 C7_9 1_555 1_555
C8_9 C4_9 1_555 1_555
O7_4 C8_9 1_555 1_555
O4_6 C8_9 1_555 1_555
Cu5_6 O4_6 1_555 1_555
O6_6 Cu2_4 1_555 1_555
O8_6 Cu2_4 1_555 1_555
N4_9 Cu2_4 1_555 1_555
O2_6 Cu5_5 1_555 1_555
C5_9 C6_9 1_555 1_555
C6_9 C7_9 1_555 1_555
C9_9 N1_9 1_555 1_555
O5_9 C9_9 1_555 1_555
H4_9 N1_9 1_555 1_555
C10_9 C9_9 1_555 1_555
C11_9 C10_9 1_555 1_555
C12_9 C11_9 1_555 1_555
C13_9 C12_9 1_555 1_555
C14_9 C13_9 1_555 1_555
C15_9 C10_9 1_555 1_555
H5_9 C11_9 1_555 1_555
H6_9 C12_9 1_555 1_555
H7_9 C14_9 1_555 1_555
H8_9 C15_9 1_555 1_555
C16_9 C13_9 1_555 1_555
C17_9 C16_9 1_555 1_555
N4_2 C17_9 1_555 1_555
C18_9 N4_2 1_555 1_555
N3_9 C18_9 1_555 1_555
C19_9 C16_9 1_555 1_555
H9_9 C19_9 1_555 1_555
H10_9 C18_9 1_555 1_555
H11_9 C17_9 1_555 1_555
C14_9 C15_9 1_555 1_555
N3_9 C19_9 1_555 1_555
C12_10 C11_10 1_555 1_555
C13_10 C12_10 1_555 1_555
C14_10 C13_10 1_555 1_555
H5_10 C11_10 1_555 1_555
H6_10 C12_10 1_555 1_555
H7_10 C14_10 1_555 1_555
C16_10 C13_10 1_555 1_555
C17_10 C16_10 1_555 1_555
N2_7 C17_10 1_555 1_555
C18_10 N2_7 1_555 1_555
N3_10 C18_10 1_555 1_555
C19_10 C16_10 1_555 1_555
H9_10 C19_10 1_555 1_555
H10_10 C18_10 1_555 1_555
H11_10 C17_10 1_555 1_555
Cu5_7 N2_7 1_555 1_555
N3_10 C19_10 1_555 1_555
C2_10 C3_10 1_555 1_555
C3_10 H1_10 1_555 1_555
C4_10 C3_10 1_555 1_555
C5_10 C4_10 1_555 1_555
H2_10 C5_10 1_555 1_555
C7_10 C2_10 1_555 1_555
H3_10 C7_10 1_555 1_555
C8_10 C4_10 1_555 1_555
O3_6 C8_10 1_555 1_555
O8_6 C8_10 1_555 1_555
N1_10 C2_10 1_555 1_555
C9_10 N1_10 1_555 1_555
O5_10 C9_10 1_555 1_555
H4_10 N1_10 1_555 1_555
C10_10 C9_10 1_555 1_555
C15_10 C10_10 1_555 1_555
H8_10 C15_10 1_555 1_555
Cu5_5 O3_6 1_555 1_555
C5_10 C6_10 1_555 1_555
C6_10 C7_10 1_555 1_555
Cu5_6 O1_10 1_555 1_555
C1_10 O1_10 1_555 1_555
O6_4 C1_10 1_555 1_555
O7_5 Cu5_6 1_555 1_555
O7_5 C8_11 1_555 1_555
O8_4 C8_11 1_555 1_555
C12_11 C11_11 1_555 1_555
C13_11 C12_11 1_555 1_555
C14_11 C13_11 1_555 1_555
H5_11 C11_11 1_555 1_555
H6_11 C12_11 1_555 1_555
H7_11 C14_11 1_555 1_555
C16_11 C13_11 1_555 1_555
C17_11 C16_11 1_555 1_555
N2_8 C17_11 1_555 1_555
C18_11 N2_8 1_555 1_555
N3_11 C18_11 1_555 1_555
C19_11 C16_11 1_555 1_555
H9_11 C19_11 1_555 1_555
H10_11 C18_11 1_555 1_555
H11_11 C17_11 1_555 1_555
Cu5_8 N2_8 1_555 1_555
N3_11 C19_11 1_555 1_555
Cu5_4 O1_11 1_555 1_555
C1_11 O1_11 1_555 1_555
O6_5 C1_11 1_555 1_555
C2_11 C3_11 1_555 1_555
C3_11 H1_11 1_555 1_555
C4_11 C3_11 1_555 1_555
C5_11 C4_11 1_555 1_555
H2_11 C5_11 1_555 1_555
C6_11 C1_11 1_555 1_555
C7_11 C2_11 1_555 1_555
H3_11 C7_11 1_555 1_555
N1_11 C2_11 1_555 1_555
C9_11 N1_11 1_555 1_555
O5_11 C9_11 1_555 1_555
H4_11 N1_11 1_555 1_555
C10_11 C9_11 1_555 1_555
C15_11 C10_11 1_555 1_555
H8_11 C15_11 1_555 1_555
O7_6 Cu5_4 1_555 1_555
C5_11 C6_11 1_555 1_555
C6_11 C7_11 1_555 1_555
Cu5_5 O1_12 1_555 1_555
C1_12 O1_12 1_555 1_555
O6_6 C1_12 1_555 1_555
C12_12 C11_12 1_555 1_555
C13_12 C12_12 1_555 1_555
C14_12 C13_12 1_555 1_555
H5_12 C11_12 1_555 1_555
H6_12 C12_12 1_555 1_555
H7_12 C14_12 1_555 1_555
C16_12 C13_12 1_555 1_555
C17_12 C16_12 1_555 1_555
N2_9 C17_12 1_555 1_555
C18_12 N2_9 1_555 1_555
N3_12 C18_12 1_555 1_555
C19_12 C16_12 1_555 1_555
H9_12 C19_12 1_555 1_555
H10_12 C18_12 1_555 1_555
H11_12 C17_12 1_555 1_555
Cu5_9 N2_9 1_555 1_555
N3_12 C19_12 1_555 1_555
O7_6 C8_12 1_555 1_555
O8_5 C8_12 1_555 1_555
C2_12 C3_12 1_555 1_555
C3_12 H1_12 1_555 1_555
C4_12 C3_12 1_555 1_555
C5_12 C4_12 1_555 1_555
H2_12 C5_12 1_555 1_555
C7_12 C2_12 1_555 1_555
H3_12 C7_12 1_555 1_555
C8_13 C4_12 1_555 1_555
O3_7 C8_13 1_555 1_555
O4_7 C8_13 1_555 1_555
N1_12 C2_12 1_555 1_555
C9_12 N1_12 1_555 1_555
O5_12 C9_12 1_555 1_555
H4_12 N1_12 1_555 1_555
C10_12 C9_12 1_555 1_555
C15_12 C10_12 1_555 1_555
H8_12 C15_12 1_555 1_555
Cu5_3 O3_7 1_555 1_555
Cu5_7 O4_7 1_555 1_555
C5_12 C6_12 1_555 1_555
C6_12 C7_12 1_555 1_555
Cu5_3 Cu5_7 1_555 1_555
C12_13 C11_13 1_555 1_555
C13_13 C12_13 1_555 1_555
C14_13 C13_13 1_555 1_555
H5_13 C11_13 1_555 1_555
H6_13 C12_13 1_555 1_555
H7_13 C14_13 1_555 1_555
C16_13 C13_13 1_555 1_555
C17_13 C16_13 1_555 1_555
N4_9 C17_13 1_555 1_555
C18_13 N4_9 1_555 1_555
N3_13 C18_13 1_555 1_555
C19_13 C16_13 1_555 1_555
H9_13 C19_13 1_555 1_555
H10_13 C18_13 1_555 1_555
H11_13 C17_13 1_555 1_555
N3_13 C19_13 1_555 1_555
Cu5_2 O1_13 1_555 1_555
C1_13 O1_13 1_555 1_555
O2_7 C1_13 1_555 1_555
Cu5_9 Cu5_2 1_555 1_555
O6_7 Cu5_2 1_555 1_555
O7_7 Cu5_2 1_555 1_555
O8_7 Cu5_2 1_555 1_555
O2_7 Cu5_9 1_555 1_555
Cu5_3 O1_14 1_555 1_555
C1_14 O1_14 1_555 1_555
O2_8 C1_14 1_555 1_555
O6_8 Cu5_3 1_555 1_555
O8_8 Cu5_3 1_555 1_555
O2_8 Cu5_7 1_555 1_555
C12_14 C11_14 1_555 1_555
C13_14 C12_14 1_555 1_555
C14_14 C13_14 1_555 1_555
H5_14 C11_14 1_555 1_555
H6_14 C12_14 1_555 1_555
H7_14 C14_14 1_555 1_555
C16_14 C13_14 1_555 1_555
C17_14 C16_14 1_555 1_555
N4_7 C17_14 1_555 1_555
C18_14 N4_7 1_555 1_555
N3_14 C18_14 1_555 1_555
C19_14 C16_14 1_555 1_555
H9_14 C19_14 1_555 1_555
H10_14 C18_14 1_555 1_555
H11_14 C17_14 1_555 1_555
N3_14 C19_14 1_555 1_555
O3_8 C8_14 1_555 1_555
O4_8 C8_14 1_555 1_555
Cu5 O3_8 1_555 1_555
Cu5_8 O4_8 1_555 1_555
Cu5 Cu5_8 1_555 1_555
O7_7 C8_15 1_555 1_555
O4_9 C8_15 1_555 1_555
Cu5_9 O4_9 1_555 1_555
Cu5 O1_15 1_555 1_555
C1_15 O1_15 1_555 1_555
O2_9 C1_15 1_555 1_555
C2_13 C3_13 1_555 1_555
C3_13 H1_13 1_555 1_555
C4_13 C3_13 1_555 1_555
C5_13 C4_13 1_555 1_555
H2_13 C5_13 1_555 1_555
C6_13 C1_15 1_555 1_555
C7_13 C2_13 1_555 1_555
H3_13 C7_13 1_555 1_555
N1_13 C2_13 1_555 1_555
C9_13 N1_13 1_555 1_555
O5_13 C9_13 1_555 1_555
H4_13 N1_13 1_555 1_555
C10_13 C9_13 1_555 1_555
C15_13 C10_13 1_555 1_555
H8_13 C15_13 1_555 1_555
O6_9 Cu5 1_555 1_555
O8_9 Cu5 1_555 1_555
O2_9 Cu5_8 1_555 1_555
C5_13 C6_13 1_555 1_555
C6_13 C7_13 1_555 1_555
C12_15 C11_15 1_555 1_555
C13_15 C12_15 1_555 1_555
C14_15 C13_15 1_555 1_555
H5_15 C11_15 1_555 1_555
H6_15 C12_15 1_555 1_555
H7_15 C14_15 1_555 1_555
C16_15 C13_15 1_555 1_555
C17_15 C16_15 1_555 1_555
N4_8 C17_15 1_555 1_555
C18_15 N4_8 1_555 1_555
N3_15 C18_15 1_555 1_555
C19_15 C16_15 1_555 1_555
H9_15 C19_15 1_555 1_555
H10_15 C18_15 1_555 1_555
H11_15 C17_15 1_555 1_555
N3_15 C19_15 1_555 1_555
C9_14 N1_14 1_555 1_555
O5_14 C9_14 1_555 1_555
H4_14 N1_14 1_555 1_555
C10_14 C9_14 1_555 1_555
C11_16 C10_14 1_555 1_555
C12_16 C11_16 1_555 1_555
C13_16 C12_16 1_555 1_555
C14_16 C13_16 1_555 1_555
C15_14 C10_14 1_555 1_555
H5_16 C11_16 1_555 1_555
H6_16 C12_16 1_555 1_555
H7_16 C14_16 1_555 1_555
H8_14 C15_14 1_555 1_555
C16_16 C13_16 1_555 1_555
C17_16 C16_16 1_555 1_555
N4_5 C17_16 1_555 1_555
C18_16 N4_5 1_555 1_555
N3_16 C18_16 1_555 1_555
C19_16 C16_16 1_555 1_555
H9_16 C19_16 1_555 1_555
H10_16 C18_16 1_555 1_555
H11_16 C17_16 1_555 1_555
C14_16 C15_14 1_555 1_555
N3_16 C19_16 1_555 1_555
Cu5_9 O1_16 1_555 1_555
C1_16 O1_16 1_555 1_555
O6_7 C1_16 1_555 1_555
C2_14 C3_14 1_555 1_555
C3_14 H1_14 1_555 1_555
C4_14 C3_14 1_555 1_555
C5_14 C4_14 1_555 1_555
H2_14 C5_14 1_555 1_555
C6_14 C1_16 1_555 1_555
C7_14 C2_14 1_555 1_555
H3_14 C7_14 1_555 1_555
C8_16 C4_14 1_555 1_555
O3_9 C8_16 1_555 1_555
O8_9 C8_16 1_555 1_555
Cu5_8 O3_9 1_555 1_555
O7_8 Cu5_9 1_555 1_555
C5_14 C6_14 1_555 1_555
C6_14 C7_14 1_555 1_555
Cu5_7 O1_17 1_555 1_555
C1_17 O1_17 1_555 1_555
O6_8 C1_17 1_555 1_555
C2_15 C3_15 1_555 1_555
C3_15 H1_15 1_555 1_555
C4_15 C3_15 1_555 1_555
C5_15 C4_15 1_555 1_555
H2_15 C5_15 1_555 1_555
C6_15 C1_17 1_555 1_555
C7_15 C2_15 1_555 1_555
H3_15 C7_15 1_555 1_555
C8_17 C4_15 1_555 1_555
O7_8 C8_17 1_555 1_555
O8_7 C8_17 1_555 1_555
O7_9 Cu5_7 1_555 1_555
C5_15 C6_15 1_555 1_555
C6_15 C7_15 1_555 1_555
C9_15 N1_15 1_555 1_555
O5_15 C9_15 1_555 1_555
H4_15 N1_15 1_555 1_555
C10_15 C9_15 1_555 1_555
C11_17 C10_15 1_555 1_555
C12_17 C11_17 1_555 1_555
C13_17 C12_17 1_555 1_555
C14_17 C13_17 1_555 1_555
C15_15 C10_15 1_555 1_555
H5_17 C11_17 1_555 1_555
H6_17 C12_17 1_555 1_555
H7_17 C14_17 1_555 1_555
H8_15 C15_15 1_555 1_555
C16_17 C13_17 1_555 1_555
C17_17 C16_17 1_555 1_555
N4_6 C17_17 1_555 1_555
C18_17 N4_6 1_555 1_555
N3_17 C18_17 1_555 1_555
C19_17 C16_17 1_555 1_555
H9_17 C19_17 1_555 1_555
H10_17 C18_17 1_555 1_555
H11_17 C17_17 1_555 1_555
C14_17 C15_15 1_555 1_555
N3_17 C19_17 1_555 1_555
Cu5_8 O1_18 1_555 1_555
C1_18 O1_18 1_555 1_555
O6_9 C1_18 1_555 1_555
C2_16 C3_16 1_555 1_555
C3_16 H1_16 1_555 1_555
C4_16 C3_16 1_555 1_555
C5_16 C4_16 1_555 1_555
H2_16 C5_16 1_555 1_555
C6_16 C1_18 1_555 1_555
C7_16 C2_16 1_555 1_555
H3_16 C7_16 1_555 1_555
C8_18 C4_16 1_555 1_555
O7_9 C8_18 1_555 1_555
O8_8 C8_18 1_555 1_555
N1_16 C2_16 1_555 1_555
C9_16 N1_16 1_555 1_555
O5_16 C9_16 1_555 1_555
H4_16 N1_16 1_555 1_555
C10_16 C9_16 1_555 1_555
C11_18 C10_16 1_555 1_555
C12_18 C11_18 1_555 1_555
C13_18 C12_18 1_555 1_555
C14_18 C13_18 1_555 1_555
C15_16 C10_16 1_555 1_555
H5_18 C11_18 1_555 1_555
H6_18 C12_18 1_555 1_555
H7_18 C14_18 1_555 1_555
H8_16 C15_16 1_555 1_555
C16_18 C13_18 1_555 1_555
C17_18 C16_18 1_555 1_555
N4_4 C17_18 1_555 1_555
C18_18 N4_4 1_555 1_555
N3_18 C18_18 1_555 1_555
C19_18 C16_18 1_555 1_555
H9_18 C19_18 1_555 1_555
H10_18 C18_18 1_555 1_555
H11_18 C17_18 1_555 1_555
C5_16 C6_16 1_555 1_555
C6_16 C7_16 1_555 1_555
C14_18 C15_16 1_555 1_555
N3_18 C19_18 1_555 1_555
C2_17 C3_17 1_555 1_555
C3_17 H1_17 1_555 1_555
C4_17 C3_17 1_555 1_555
C5_17 C4_17 1_555 1_555
H2_17 C5_17 1_555 1_555
C7_17 C2_17 1_555 1_555
H3_17 C7_17 1_555 1_555
N1_17 C2_17 1_555 1_555
C9_17 N1_17 1_555 1_555
O5_17 C9_17 1_555 1_555
H4_17 N1_17 1_555 1_555
C10_17 C9_17 1_555 1_555
C15_17 C10_17 1_555 1_555
H8_17 C15_17 1_555 1_555
C5_17 C6_17 1_555 1_555
C6_17 C7_17 1_555 1_555
C2_18 C3_18 1_555 1_555
C3_18 H1_18 1_555 1_555
C4_18 C3_18 1_555 1_555
C5_18 C4_18 1_555 1_555
H2_18 C5_18 1_555 1_555
C7_18 C2_18 1_555 1_555
H3_18 C7_18 1_555 1_555
N1_18 C2_18 1_555 1_555
C9_18 N1_18 1_555 1_555
O5_18 C9_18 1_555 1_555
H4_18 N1_18 1_555 1_555
C10_18 C9_18 1_555 1_555
C15_18 C10_18 1_555 1_555
H8_18 C15_18 1_555 1_555
C5_18 C6_18 1_555 1_555
C6_18 C7_18 1_555 1_555

#END
