
###############################################################################
#
# This file contains modified crystal structure data generated from the
# MOF subset of the Cambridge Structural Database (CSD) v543 
# hosted by the Cambridge Crystallographic Data Centre (CCDC).
#
# This work is licensed under the Creative Commons
# Attribution-NonCommercial-ShareAlike 4.0 International License.
# To view a copy of this license, visit
# http://creativecommons.org/licenses/by-nc-sa/4.0/
# or send a letter to
# Creative Commons, PO Box 1866, Mountain View, CA 94042, USA.
#
# CIF created using the CSD Python API on 29 September 2022
# The structure has been converted into the P1 space group
# The structure has a 3D framework
# The original CSD entry HAFPUB is in the triclinic crystal system
# The framework has been calculated to contain at least 10.0% void space
# The void calculation uses a probe of radius 1.32A, grid spacing 0.4
#
###############################################################################

data_HAFPUB
_chemical_formula_moiety         '(C28 H12 Ag2 La2 N4 O12)n'
_symmetry_cell_setting           triclinic
_symmetry_space_group_name_H-M   'P 1'
_symmetry_Int_Tables_number      1
_space_group_name_Hall           'P 1'
loop_
_symmetry_equiv_pos_site_id
_symmetry_equiv_pos_as_xyz
1 x,y,z
_cell_length_a                   7.445(5)
_cell_length_b                   10.617(7)
_cell_length_c                   11.720(8)
_cell_angle_alpha                101.816(8)
_cell_angle_beta                 100.422(7)
_cell_angle_gamma                97.006(8)
_cell_volume                     879.55
loop_
_atom_site_label
_atom_site_type_symbol
_atom_site_fract_x
_atom_site_fract_y
_atom_site_fract_z
La6 La 0.25561(8) 0.46838(6) 0.06903(5)
O7 O 0.9614(14) 0.2451(9) 0.1162(8)
C14 C 0.8799(14) 0.2579(11) 0.0198(10)
O5 O 0.5422(9) 0.3694(7) 0.9986(6)
O6 O 0.2869(11) 0.2318(8) 0.9841(9)
O8 O 0.9189(10) 0.3544(8) 0.9749(7)
C8 C 0.4517(15) 0.2549(11) 0.9723(11)
C9 C 0.5435(15) 0.1416(11) 0.9236(11)
C10 C 0.4301(16) 0.0266(11) 0.8585(12)
H4 H 0.3027 0.0246 0.8459
C12 C 0.8015(17) 0.0352(12) 0.8938(11)
H6 H 0.9283 0.0352 0.9044
C13 C 0.7360(15) 0.1469(11) 0.9440(10)
La5 La 0.74439(8) 0.53162(6) 0.93097(5)
Ag1 Ag 0.28958(15) 0.74788(11) 0.71133(10)
N1 N 0.0389(14) 0.6754(10) 0.5716(9)
N2 N 0.4915(14) 0.9193(10) 0.8132(10)
O4 O 0.0899(11) 0.5300(8) 0.2302(7)
C5 C 0.0535(15) 0.6423(11) 0.4580(9)
H3 H 0.1711 0.6481 0.4410
C11 C 0.6804(17) 0.9252(13) 0.8289(12)
H5 H 0.7272 0.8528 0.7945
O9 O 0.5051(10) 0.5752(8) 0.7470(7)
O1 O 0.4949(10) 0.4248(8) 0.2530(7)
O2 O 0.4700(11) 0.6299(8) 0.2538(7)
O3 O 0.8071(10) 0.5649(8) 0.1548(6)
C1 C 0.5505(14) 0.5455(12) 0.2891(9)
C2 C 0.7249(15) 0.5940(10) 0.3869(9)
C3 C 0.7084(16) 0.6252(12) 0.5049(9)
H1 H 0.5922 0.6172 0.5240
C4 C 0.8689(16) 0.6690(12) 0.5952(10)
H2 H 0.8569 0.6944 0.6739
C6 C 0.9007(14) 0.5996(11) 0.3640(9)
C7 C 0.9327(14) 0.5605(10) 0.2370(9)
Ag2 Ag 0.71042(15) 0.25212(11) 0.28867(10)
O13 O 0.4578(9) 0.6306(7) 0.0014(6)
O16 O 0.0811(10) 0.6456(8) 0.0251(7)
O10 O 0.1929(10) 0.4351(8) 0.8452(6)
O14 O 0.7131(11) 0.7682(8) 0.0159(9)
O2_2 O 0.5300(11) 0.3701(8) 0.7462(7)
C1_2 C 0.4495(14) 0.4545(12) 0.7109(9)
C2_2 C 0.2751(15) 0.4060(10) 0.6131(9)
C3_2 C 0.2916(16) 0.3748(12) 0.4951(9)
H1_2 H 0.4078 0.3828 0.4760
C4_2 C 0.1311(16) 0.3310(12) 0.4048(10)
H2_2 H 0.1431 0.3056 0.3261
C6_2 C 0.0993(14) 0.4004(11) 0.6360(9)
C7_2 C 0.0673(14) 0.4395(10) 0.7630(9)
O11 O 0.9101(11) 0.4700(8) 0.7698(7)
N1_2 N 0.9611(14) 0.3246(10) 0.4284(9)
N2_2 N 0.5085(14) 0.0807(10) 0.1868(10)
C5_2 C 0.9465(15) 0.3577(11) 0.5420(9)
H3_2 H 0.8289 0.3519 0.5590
C11_2 C 0.3196(17) 0.0748(13) 0.1711(12)
H5_2 H 0.2728 0.1472 0.2055
C8_2 C 0.5483(15) 0.7451(11) 0.0277(11)
C9_2 C 0.4565(15) 0.8584(11) 0.0764(11)
C10_2 C 0.5699(16) 0.9734(11) 0.1415(12)
H4_2 H 0.6973 0.9754 0.1541
C12_2 C 0.1985(17) 0.9648(12) 0.1062(11)
H6_2 H 0.0717 0.9648 0.0956
C13_2 C 0.2640(15) 0.8531(11) 0.0560(10)
O7_2 O 0.0386(14) 0.7549(9) 0.8838(8)
C14_2 C 0.1201(14) 0.7421(11) 0.9802(10)
loop_
_geom_bond_atom_site_label_1
_geom_bond_atom_site_label_2
_geom_bond_site_symmetry_1
_geom_bond_site_symmetry_2
O7 C14 1_555 1_555
O5 C8 1_555 1_555
O6 C8 1_555 1_555
C8 C9 1_555 1_555
C9 C10 1_555 1_555
H4 C10 1_555 1_555
H6 C12 1_555 1_555
C13 C9 1_555 1_555
La5 O5 1_555 1_555
O8 La5 1_555 1_555
C12 C13 1_555 1_555
Ag1 N1 1_555 1_555
N2 Ag1 1_555 1_555
C5 N1 1_555 1_555
H3 C5 1_555 1_555
C11 N2 1_555 1_555
H5 C11 1_555 1_555
La6 O4 1_555 1_555
O9 Ag1 1_555 1_555
La6 O1 1_555 1_555
O1 C1 1_555 1_555
O2 La6 1_555 1_555
O3 C7 1_555 1_555
C1 O2 1_555 1_555
C2 C1 1_555 1_555
C3 C2 1_555 1_555
H1 C3 1_555 1_555
C4 C3 1_555 1_555
H2 C4 1_555 1_555
C6 C2 1_555 1_555
C7 C6 1_555 1_555
Ag2 O1 1_555 1_555
O13 La6 1_555 1_555
O16 La6 1_555 1_555
La5 O9 1_555 1_555
O9 C1_2 1_555 1_555
O2_2 La5 1_555 1_555
O10 C7_2 1_555 1_555
C1_2 O2_2 1_555 1_555
C2_2 C1_2 1_555 1_555
C3_2 C2_2 1_555 1_555
H1_2 C3_2 1_555 1_555
C4_2 C3_2 1_555 1_555
H2_2 C4_2 1_555 1_555
C6_2 C2_2 1_555 1_555
C7_2 C6_2 1_555 1_555
O11 La5 1_555 1_555
Ag2 N1_2 1_555 1_555
N2_2 Ag2 1_555 1_555
C5_2 N1_2 1_555 1_555
H3_2 C5_2 1_555 1_555
C11_2 N2_2 1_555 1_555
H5_2 C11_2 1_555 1_555
O13 C8_2 1_555 1_555
O14 C8_2 1_555 1_555
C8_2 C9_2 1_555 1_555
C9_2 C10_2 1_555 1_555
H4_2 C10_2 1_555 1_555
H6_2 C12_2 1_555 1_555
C13_2 C9_2 1_555 1_555
C12_2 C13_2 1_555 1_555
O7_2 C14_2 1_555 1_555

#END
