
###############################################################################
#
# This file contains modified crystal structure data generated from the
# MOF subset of the Cambridge Structural Database (CSD) v543 
# hosted by the Cambridge Crystallographic Data Centre (CCDC).
#
# This work is licensed under the Creative Commons
# Attribution-NonCommercial-ShareAlike 4.0 International License.
# To view a copy of this license, visit
# http://creativecommons.org/licenses/by-nc-sa/4.0/
# or send a letter to
# Creative Commons, PO Box 1866, Mountain View, CA 94042, USA.
#
# CIF created using the CSD Python API on 29 September 2022
# The structure has been converted into the P1 space group
# The structure has a 3D framework
# The original CSD entry HAFVOB is in the orthorhombic crystal system
# The framework has been calculated to contain at least 10.0% void space
# The void calculation uses a probe of radius 1.32A, grid spacing 0.4
#
###############################################################################

data_HAFVOB
_chemical_formula_moiety         '(C192 H152 Ca16 N8 O50 P8)n'
_symmetry_cell_setting           triclinic
_symmetry_space_group_name_H-M   'P 1'
_symmetry_Int_Tables_number      1
_space_group_name_Hall           'P 1'
loop_
_symmetry_equiv_pos_site_id
_symmetry_equiv_pos_as_xyz
1 x,y,z
_cell_length_a                   23.476(5)
_cell_length_b                   9.5054(19)
_cell_length_c                   27.629(6)
_cell_angle_alpha                90
_cell_angle_beta                 90
_cell_angle_gamma                90
_cell_volume                     6165.38
loop_
_atom_site_label
_atom_site_type_symbol
_atom_site_fract_x
_atom_site_fract_y
_atom_site_fract_z
Ca2 Ca 0.2500 0.0000 0.10670(5)
Ca3 Ca 0.20144(5) 0.34928(14) 0.12792(4)
Ca7 Ca 0.29856(5) 0.65072(14) 0.12792(4)
Ca13 Ca 0.7500 0.0000 0.39330(5)
P2 P 0.58372(7) 0.3116(2) 0.16110(5)
O9 O 0.29779(17) 0.2140(5) 0.12372(15)
O10 O 0.29905(16) 0.4181(5) 0.16123(13)
O12 O 0.20095(16) 0.5819(5) 0.16123(13)
O15 O 0.3164(2) 0.0309(6) 0.03907(15)
O18 O 0.19751(18) 0.1888(5) 0.06219(14)
O21 O 0.19655(19) 0.1123(5) 0.16583(14)
O24 O 0.1360(2) 0.2635(6) 0.19505(18)
O25 O 0.2500 0.5000 0.06696(17)
C25 C 0.5063(2) 0.2991(7) 0.15542(18)
C26 C 0.4749(2) 0.3873(7) 0.18388(19)
H20 H 0.4939 0.4479 0.2060
C27 C 0.4153(2) 0.3899(7) 0.18111(19)
H21 H 0.3943 0.4537 0.2006
C28 C 0.3873(2) 0.2996(6) 0.14992(17)
C29 C 0.4187(3) 0.2097(8) 0.1222(2)
H22 H 0.3996 0.1453 0.1015
C30 C 0.4767(3) 0.2098(8) 0.1234(2)
H23 H 0.4974 0.1492 0.1024
C31 C 0.3244(2) 0.3108(7) 0.14510(19)
C32 C 0.6100(2) 0.2386(8) 0.10331(19)
C33 C 0.6301(3) 0.3354(7) 0.0699(2)
H24 H 0.6296 0.4329 0.0775
C34 C 0.6509(3) 0.2917(7) 0.0257(2)
H25 H 0.6635 0.3594 0.0028
C35 C 0.6536(2) 0.1480(7) 0.01429(18)
C36 C 0.6330(3) 0.0510(8) 0.0478(2)
C37 C 0.6121(3) 0.0985(8) 0.0919(2)
H27 H 0.5988 0.0317 0.1149
C39 C 0.6008(2) 0.1709(7) 0.20466(18)
C40 C 0.6534(3) 0.1815(7) 0.2278(2)
H28 H 0.6776 0.2590 0.2208
C41 C 0.6708(3) 0.0813(7) 0.26065(19)
H29 H 0.7068 0.0906 0.2761
C44 C 0.5659(3) 0.0607(8) 0.2160(2)
H31 H 0.5292 0.0545 0.2016
N2 N 0.0257(4) 0.3258(15) 0.0749(6)
C46 C 0.0348(10) 0.186(2) 0.0880(13)
H32 H 0.0756 0.1699 0.0931
H33 H 0.0212 0.1238 0.0621
H34 H 0.0141 0.1651 0.1179
C48 C 0.0693(5) 0.4190(13) 0.0770(4)
H38 H 0.0618 0.5087 0.0632
O26 O 0.1149(2) 0.4042(7) 0.09344(18)
Ca8 Ca 0.70144(5) 0.34928(14) 0.87208(4)
Ca12 Ca 0.7500 0.0000 0.89330(5)
O16 O 0.69751(18) 0.1888(5) 0.93781(14)
C38 C 0.6795(3) 0.0994(8) 0.9687(2)
Ca2_2 Ca 0.2500 1.0000 0.10670(5)
O1 O 0.20221(17) 0.7860(5) 0.12372(15)
C2 C 0.0251(2) 0.6127(7) 0.18388(19)
H1 H 0.0061 0.5521 0.2060
C3 C 0.0847(2) 0.6101(7) 0.18111(19)
H2 H 0.1057 0.5463 0.2006
C4 C 0.1127(2) 0.7004(6) 0.14992(17)
C5 C 0.0813(3) 0.7903(8) 0.1222(2)
H3 H 0.1004 0.8547 0.1015
C6 C 0.0233(3) 0.7902(8) 0.1234(2)
H4 H 0.0026 0.8508 0.1024
C7 C 0.1756(2) 0.6892(7) 0.14510(19)
N1 N 0.4743(4) 0.6742(15) 0.0749(6)
C22 C 0.4652(10) 0.814(2) 0.0880(13)
H13 H 0.4244 0.8301 0.0931
H14 H 0.4788 0.8762 0.0621
H15 H 0.4859 0.8349 0.1179
C23 C 0.5286(9) 0.640(3) 0.0599(14)
H16 H 0.5282 0.5476 0.0443
H17 H 0.5541 0.6377 0.0880
H18 H 0.5421 0.7110 0.0369
C24 C 0.4307(5) 0.5810(13) 0.0770(4)
H19 H 0.4382 0.4913 0.0632
O8 O 0.3851(2) 0.5958(7) 0.09344(18)
Ca9 Ca 0.70144(5) 0.65072(14) 0.37208(4)
Ca13_2 Ca 0.7500 1.0000 0.39330(5)
O14 O 0.1836(2) 0.9691(6) 0.03907(15)
O17 O 0.30249(18) 0.8112(5) 0.06219(14)
O19 O 0.69655(19) 0.8877(5) 0.33417(14)
O20 O 0.30345(19) 0.8877(5) 0.16583(14)
O22 O 0.6360(2) 0.7365(6) 0.30495(18)
O23 O 0.3640(2) 0.7365(6) 0.19505(18)
H26 H 0.6331 0.9534 0.0405
C42 C 0.6367(2) 0.9682(7) 0.27132(18)
C43 C 0.5839(3) 0.9549(8) 0.2493(2)
H30 H 0.5602 0.8766 0.2562
C45 C 0.6574(3) 0.8576(9) 0.30541(19)
Ca12_2 Ca 0.7500 1.0000 0.89330(5)
O13 O 0.6836(2) 0.9691(6) 0.96093(15)
O5 O 0.80345(19) 0.1123(5) 0.33417(14)
O6 O 0.8640(2) 0.2635(6) 0.30495(18)
H7 H 0.8669 0.0466 0.0405
C18 C 0.8633(2) 0.0318(7) 0.27132(18)
C19 C 0.9161(3) 0.0451(8) 0.2493(2)
H11 H 0.9398 0.1234 0.2562
C21 C 0.8426(3) 0.1424(9) 0.30541(19)
Ca6 Ca 0.79856(5) 0.34928(14) 0.37208(4)
C47 C 0.9714(9) 0.360(3) 0.0599(14)
H35 H 0.9718 0.4524 0.0443
H36 H 0.9459 0.3623 0.0880
H37 H 0.9579 0.2890 0.0369
O3 O 0.8164(2) 0.0309(6) 0.96093(15)
P1 P 0.91628(7) 0.6884(2) 0.16110(5)
C1 C 0.9937(2) 0.7009(7) 0.15542(18)
C8 C 0.8900(2) 0.7614(8) 0.10331(19)
C9 C 0.8699(3) 0.6646(7) 0.0699(2)
H5 H 0.8704 0.5671 0.0775
C10 C 0.8491(3) 0.7083(7) 0.0257(2)
H6 H 0.8365 0.6406 0.0028
C11 C 0.8464(2) 0.8520(7) 0.01429(18)
C12 C 0.8670(3) 0.9490(8) 0.0478(2)
C13 C 0.8879(3) 0.9015(8) 0.0919(2)
H8 H 0.9012 0.9683 0.1149
C15 C 0.8992(2) 0.8291(7) 0.20466(18)
C16 C 0.8466(3) 0.8185(7) 0.2278(2)
H9 H 0.8224 0.7410 0.2208
C17 C 0.8292(3) 0.9187(7) 0.26065(19)
H10 H 0.7932 0.9094 0.2761
C20 C 0.9341(3) 0.9393(8) 0.2160(2)
H12 H 0.9708 0.9455 0.2016
O4 O 0.80249(18) 0.8112(5) 0.93781(14)
C14 C 0.8205(3) 0.9006(8) 0.9687(2)
Ca5 Ca 0.79856(5) 0.65072(14) 0.87208(4)
O3_2 O 0.1836(2) 0.0309(6) 0.53907(15)
H7_2 H 0.1331 0.0466 0.4595
C18_2 C 0.1367(2) 0.0318(7) 0.22868(18)
C19_2 C 0.0839(3) 0.0451(8) 0.2507(2)
H11_2 H 0.0602 0.1234 0.2438
C21_2 C 0.1574(3) 0.1424(9) 0.19459(19)
Ca10 Ca 0.2500 0.0000 0.60670(5)
C47_2 C 0.0286(9) 0.360(3) 0.4401(14)
H35_2 H 0.0282 0.4524 0.4557
H36_2 H 0.0541 0.3623 0.4120
H37_2 H 0.0421 0.2890 0.4631
P1_2 P 0.08372(7) 0.6884(2) 0.33890(5)
O4_2 O 0.19751(18) 0.8112(5) 0.56219(14)
C1_2 C 0.0063(2) 0.7009(7) 0.34458(18)
C8_2 C 0.1100(2) 0.7614(8) 0.39669(19)
C9_2 C 0.1301(3) 0.6646(7) 0.4301(2)
H5_2 H 0.1296 0.5671 0.4225
C10_2 C 0.1509(3) 0.7083(7) 0.4743(2)
H6_2 H 0.1635 0.6406 0.4972
C11_2 C 0.1536(2) 0.8520(7) 0.48571(18)
C12_2 C 0.1330(3) 0.9490(8) 0.4522(2)
C13_2 C 0.1121(3) 0.9015(8) 0.4081(2)
H8_2 H 0.0988 0.9683 0.3851
C14_2 C 0.1795(3) 0.9006(8) 0.5313(2)
C15_2 C 0.1008(2) 0.8291(7) 0.29534(18)
C16_2 C 0.1534(3) 0.8185(7) 0.2722(2)
H9_2 H 0.1776 0.7410 0.2792
C17_2 C 0.1708(3) 0.9187(7) 0.23935(19)
H10_2 H 0.2068 0.9094 0.2239
C20_2 C 0.0659(3) 0.9393(8) 0.2840(2)
H12_2 H 0.0292 0.9455 0.2984
Ca5_2 Ca 0.20144(5) 0.65072(14) 0.62792(4)
Ca10_2 Ca 0.2500 1.0000 0.60670(5)
Ca8_2 Ca 0.29856(5) 0.34928(14) 0.62792(4)
P2_2 P 0.41628(7) 0.3116(2) 0.33890(5)
O9_2 O 0.70221(17) 0.2140(5) 0.37628(15)
O10_2 O 0.70095(16) 0.4181(5) 0.33877(13)
O12_2 O 0.79905(16) 0.5819(5) 0.33877(13)
O15_2 O 0.6836(2) 0.0309(6) 0.46093(15)
O16_2 O 0.30249(18) 0.1888(5) 0.56219(14)
O18_2 O 0.80249(18) 0.1888(5) 0.43781(14)
O25_2 O 0.7500 0.5000 0.43304(17)
C25_2 C 0.4937(2) 0.2991(7) 0.34458(18)
C26_2 C 0.5251(2) 0.3873(7) 0.31612(19)
H20_2 H 0.5061 0.4479 0.2940
C27_2 C 0.5847(2) 0.3899(7) 0.31889(19)
H21_2 H 0.6057 0.4537 0.2994
C28_2 C 0.6127(2) 0.2996(6) 0.35008(17)
C29_2 C 0.5813(3) 0.2097(8) 0.3778(2)
H22_2 H 0.6004 0.1453 0.3985
C30_2 C 0.5233(3) 0.2098(8) 0.3766(2)
H23_2 H 0.5026 0.1492 0.3976
C31_2 C 0.6756(2) 0.3108(7) 0.35490(19)
C32_2 C 0.3900(2) 0.2386(8) 0.39669(19)
C33_2 C 0.3699(3) 0.3354(7) 0.4301(2)
H24_2 H 0.3704 0.4329 0.4225
C34_2 C 0.3491(3) 0.2917(7) 0.4743(2)
H25_2 H 0.3365 0.3594 0.4972
C35_2 C 0.3464(2) 0.1480(7) 0.48571(18)
C36_2 C 0.3670(3) 0.0510(8) 0.4522(2)
C37_2 C 0.3879(3) 0.0985(8) 0.4081(2)
H27_2 H 0.4012 0.0317 0.3851
C38_2 C 0.3205(3) 0.0994(8) 0.5313(2)
C39_2 C 0.3992(2) 0.1709(7) 0.29534(18)
C40_2 C 0.3466(3) 0.1815(7) 0.2722(2)
H28_2 H 0.3224 0.2590 0.2792
C41_2 C 0.3292(3) 0.0813(7) 0.23935(19)
H29_2 H 0.2932 0.0906 0.2239
C44_2 C 0.4341(3) 0.0607(8) 0.2840(2)
H31_2 H 0.4708 0.0545 0.2984
N2_2 N 0.9743(4) 0.3258(15) 0.4251(6)
C46_2 C 0.9652(10) 0.186(2) 0.4120(13)
H32_2 H 0.9244 0.1699 0.4069
H33_2 H 0.9788 0.1238 0.4379
H34_2 H 0.9859 0.1651 0.3821
C48_2 C 0.9307(5) 0.4190(13) 0.4230(4)
H38_2 H 0.9382 0.5087 0.4368
O26_2 O 0.8851(2) 0.4042(7) 0.40656(18)
O1_2 O 0.79779(17) 0.7860(5) 0.37628(15)
C2_2 C 0.9749(2) 0.6127(7) 0.31612(19)
H1_2 H 0.9939 0.5521 0.2940
C3_2 C 0.9153(2) 0.6101(7) 0.31889(19)
H2_2 H 0.8943 0.5463 0.2994
C4_2 C 0.8873(2) 0.7004(6) 0.35008(17)
C5_2 C 0.9187(3) 0.7903(8) 0.3778(2)
H3_2 H 0.8996 0.8547 0.3985
C6_2 C 0.9767(3) 0.7902(8) 0.3766(2)
H4_2 H 0.9974 0.8508 0.3976
C7_2 C 0.8244(2) 0.6892(7) 0.35490(19)
N1_2 N 0.5257(4) 0.6742(15) 0.4251(6)
C22_2 C 0.5348(10) 0.814(2) 0.4120(13)
H13_2 H 0.5756 0.8301 0.4069
H14_2 H 0.5212 0.8762 0.4379
H15_2 H 0.5141 0.8349 0.3821
C23_2 C 0.4714(9) 0.640(3) 0.4401(14)
H16_2 H 0.4718 0.5476 0.4557
H17_2 H 0.4459 0.6377 0.4120
H18_2 H 0.4579 0.7110 0.4631
C24_2 C 0.5693(5) 0.5810(13) 0.4230(4)
H19_2 H 0.5618 0.4913 0.4368
O8_2 O 0.6149(2) 0.5958(7) 0.40656(18)
O13_2 O 0.3164(2) 0.9691(6) 0.53907(15)
O14_2 O 0.8164(2) 0.9691(6) 0.46093(15)
O17_2 O 0.69751(18) 0.8112(5) 0.43781(14)
H26_2 H 0.3669 0.9534 0.4595
C42_2 C 0.3633(2) 0.9682(7) 0.22868(18)
C43_2 C 0.4161(3) 0.9549(8) 0.2507(2)
H30_2 H 0.4398 0.8766 0.2438
C45_2 C 0.3426(3) 0.8576(9) 0.19459(19)
C14_3 C 0.1795(3) 0.0994(8) 0.0313(2)
P1_3 P 0.08372(7) 0.3116(2) 0.83890(5)
C1_3 C 0.0063(2) 0.2991(7) 0.84458(18)
C8_3 C 0.1100(2) 0.2386(8) 0.89669(19)
C9_3 C 0.1301(3) 0.3354(7) 0.9301(2)
H5_3 H 0.1296 0.4329 0.9225
C10_3 C 0.1509(3) 0.2917(7) 0.9743(2)
H6_3 H 0.1635 0.3594 0.9972
C11_3 C 0.1536(2) 0.1480(7) 0.98571(18)
C12_3 C 0.1330(3) 0.0510(8) 0.9522(2)
C13_3 C 0.1121(3) 0.0985(8) 0.9081(2)
H8_3 H 0.0988 0.0317 0.8851
C15_3 C 0.1008(2) 0.1709(7) 0.79534(18)
C16_3 C 0.1534(3) 0.1815(7) 0.7722(2)
H9_3 H 0.1776 0.2590 0.7792
C17_3 C 0.1708(3) 0.0813(7) 0.73935(19)
H10_3 H 0.2068 0.0906 0.7239
C20_3 C 0.0659(3) 0.0607(8) 0.7840(2)
H12_3 H 0.0292 0.0545 0.7984
O5_2 O 0.19655(19) 0.8877(5) 0.66583(14)
O6_2 O 0.1360(2) 0.7365(6) 0.69505(18)
H7_3 H 0.1331 0.9534 0.9595
C18_3 C 0.1367(2) 0.9682(7) 0.72868(18)
C19_3 C 0.0839(3) 0.9549(8) 0.7507(2)
H11_3 H 0.0602 0.8766 0.7438
C21_3 C 0.1574(3) 0.8576(9) 0.69459(19)
C47_3 C 0.0286(9) 0.640(3) 0.9401(14)
H35_3 H 0.0282 0.5476 0.9557
H36_3 H 0.0541 0.6377 0.9120
H37_3 H 0.0421 0.7110 0.9631
O1_3 O 0.79779(17) 0.2140(5) 0.87628(15)
O2 O 0.79905(16) 0.4181(5) 0.83877(13)
O7 O 0.7500 0.5000 0.93304(17)
C2_3 C 0.9749(2) 0.3873(7) 0.81612(19)
H1_3 H 0.9939 0.4479 0.7940
C3_3 C 0.9153(2) 0.3899(7) 0.81889(19)
H2_3 H 0.8943 0.4537 0.7994
C4_3 C 0.8873(2) 0.2996(6) 0.85008(17)
C5_3 C 0.9187(3) 0.2097(8) 0.8778(2)
H3_3 H 0.8996 0.1453 0.8985
C6_3 C 0.9767(3) 0.2098(8) 0.8766(2)
H4_3 H 0.9974 0.1492 0.8976
C7_3 C 0.8244(2) 0.3108(7) 0.85490(19)
N1_3 N 0.5257(4) 0.3258(15) 0.9251(6)
C22_3 C 0.5348(10) 0.186(2) 0.9120(13)
H13_3 H 0.5756 0.1699 0.9069
H14_3 H 0.5212 0.1238 0.9379
H15_3 H 0.5141 0.1651 0.8821
C23_3 C 0.4714(9) 0.360(3) 0.9401(14)
H16_3 H 0.4718 0.4524 0.9557
H17_3 H 0.4459 0.3623 0.9120
H18_3 H 0.4579 0.2890 0.9631
C24_3 C 0.5693(5) 0.4190(13) 0.9230(4)
H19_3 H 0.5618 0.5087 0.9368
O8_3 O 0.6149(2) 0.4042(7) 0.90656(18)
O11 O 0.70095(16) 0.5819(5) 0.83877(13)
O19_2 O 0.30345(19) 0.1123(5) 0.66583(14)
O20_2 O 0.69655(19) 0.1123(5) 0.83417(14)
O22_2 O 0.3640(2) 0.2635(6) 0.69505(18)
O23_2 O 0.6360(2) 0.2635(6) 0.80495(18)
H26_3 H 0.3669 0.0466 0.9595
C42_3 C 0.3633(2) 0.0318(7) 0.72868(18)
C43_3 C 0.4161(3) 0.0451(8) 0.7507(2)
H30_3 H 0.4398 0.1234 0.7438
C45_3 C 0.3426(3) 0.1424(9) 0.69459(19)
C38_3 C 0.3205(3) 0.9006(8) 0.0313(2)
P2_3 P 0.41628(7) 0.6884(2) 0.83890(5)
O9_3 O 0.70221(17) 0.7860(5) 0.87628(15)
O21_2 O 0.80345(19) 0.8877(5) 0.83417(14)
O24_2 O 0.8640(2) 0.7365(6) 0.80495(18)
C25_3 C 0.4937(2) 0.7009(7) 0.84458(18)
C26_3 C 0.5251(2) 0.6127(7) 0.81612(19)
H20_3 H 0.5061 0.5521 0.7940
C27_3 C 0.5847(2) 0.6101(7) 0.81889(19)
H21_3 H 0.6057 0.5463 0.7994
C28_3 C 0.6127(2) 0.7004(6) 0.85008(17)
C29_3 C 0.5813(3) 0.7903(8) 0.8778(2)
H22_3 H 0.6004 0.8547 0.8985
C30_3 C 0.5233(3) 0.7902(8) 0.8766(2)
H23_3 H 0.5026 0.8508 0.8976
C31_3 C 0.6756(2) 0.6892(7) 0.85490(19)
C32_3 C 0.3900(2) 0.7614(8) 0.89669(19)
C33_3 C 0.3699(3) 0.6646(7) 0.9301(2)
H24_3 H 0.3704 0.5671 0.9225
C34_3 C 0.3491(3) 0.7083(7) 0.9743(2)
H25_3 H 0.3365 0.6406 0.9972
C35_3 C 0.3464(2) 0.8520(7) 0.98571(18)
C36_3 C 0.3670(3) 0.9490(8) 0.9522(2)
C37_3 C 0.3879(3) 0.9015(8) 0.9081(2)
H27_3 H 0.4012 0.9683 0.8851
C39_3 C 0.3992(2) 0.8291(7) 0.79534(18)
C40_3 C 0.3466(3) 0.8185(7) 0.7722(2)
H28_3 H 0.3224 0.7410 0.7792
C41_3 C 0.3292(3) 0.9187(7) 0.73935(19)
H29_3 H 0.2932 0.9094 0.7239
C44_3 C 0.4341(3) 0.9393(8) 0.7840(2)
H31_3 H 0.4708 0.9455 0.7984
N2_3 N 0.9743(4) 0.6742(15) 0.9251(6)
C46_3 C 0.9652(10) 0.814(2) 0.9120(13)
H32_3 H 0.9244 0.8301 0.9069
H33_3 H 0.9788 0.8762 0.9379
H34_3 H 0.9859 0.8349 0.8821
C48_3 C 0.9307(5) 0.5810(13) 0.9230(4)
H38_3 H 0.9382 0.4913 0.9368
O26_3 O 0.8851(2) 0.5958(7) 0.90656(18)
O1_4 O 0.20221(17) 0.2140(5) 0.62372(15)
O2_2 O 0.20095(16) 0.4181(5) 0.66123(13)
O7_2 O 0.2500 0.5000 0.56696(17)
C2_4 C 0.0251(2) 0.3873(7) 0.68388(19)
H1_4 H 0.0061 0.4479 0.7060
C3_4 C 0.0847(2) 0.3899(7) 0.68111(19)
H2_4 H 0.1057 0.4537 0.7006
C4_4 C 0.1127(2) 0.2996(6) 0.64992(17)
C5_4 C 0.0813(3) 0.2097(8) 0.6222(2)
H3_4 H 0.1004 0.1453 0.6015
C6_4 C 0.0233(3) 0.2098(8) 0.6234(2)
H4_4 H 0.0026 0.1492 0.6024
C7_4 C 0.1756(2) 0.3108(7) 0.64510(19)
N1_4 N 0.4743(4) 0.3258(15) 0.5749(6)
C22_4 C 0.4652(10) 0.186(2) 0.5880(13)
H13_4 H 0.4244 0.1699 0.5931
H14_4 H 0.4788 0.1238 0.5621
H15_4 H 0.4859 0.1651 0.6179
C23_4 C 0.5286(9) 0.360(3) 0.5599(14)
H16_4 H 0.5282 0.4524 0.5443
H17_4 H 0.5541 0.3623 0.5880
H18_4 H 0.5421 0.2890 0.5369
C24_4 C 0.4307(5) 0.4190(13) 0.5770(4)
H19_4 H 0.4382 0.5087 0.5632
O8_4 O 0.3851(2) 0.4042(7) 0.59344(18)
O11_2 O 0.29905(16) 0.5819(5) 0.66123(13)
H26_4 H 0.6331 0.0466 0.5405
C42_4 C 0.6367(2) 0.0318(7) 0.77132(18)
C43_4 C 0.5839(3) 0.0451(8) 0.7493(2)
H30_4 H 0.5602 0.1234 0.7562
C45_4 C 0.6574(3) 0.1424(9) 0.80541(19)
P2_4 P 0.58372(7) 0.6884(2) 0.66110(5)
O9_4 O 0.29779(17) 0.7860(5) 0.62372(15)
C25_4 C 0.5063(2) 0.7009(7) 0.65542(18)
C26_4 C 0.4749(2) 0.6127(7) 0.68388(19)
H20_4 H 0.4939 0.5521 0.7060
C27_4 C 0.4153(2) 0.6101(7) 0.68111(19)
H21_4 H 0.3943 0.5463 0.7006
C28_4 C 0.3873(2) 0.7004(6) 0.64992(17)
C29_4 C 0.4187(3) 0.7903(8) 0.6222(2)
H22_4 H 0.3996 0.8547 0.6015
C30_4 C 0.4767(3) 0.7902(8) 0.6234(2)
H23_4 H 0.4974 0.8508 0.6024
C31_4 C 0.3244(2) 0.6892(7) 0.64510(19)
C32_4 C 0.6100(2) 0.7614(8) 0.60331(19)
C33_4 C 0.6301(3) 0.6646(7) 0.5699(2)
H24_4 H 0.6296 0.5671 0.5775
C34_4 C 0.6509(3) 0.7083(7) 0.5257(2)
H25_4 H 0.6635 0.6406 0.5028
C35_4 C 0.6536(2) 0.8520(7) 0.51429(18)
C36_4 C 0.6330(3) 0.9490(8) 0.5478(2)
C37_4 C 0.6121(3) 0.9015(8) 0.5919(2)
H27_4 H 0.5988 0.9683 0.6149
C38_4 C 0.6795(3) 0.9006(8) 0.4687(2)
C39_4 C 0.6008(2) 0.8291(7) 0.70466(18)
C40_4 C 0.6534(3) 0.8185(7) 0.7278(2)
H28_4 H 0.6776 0.7410 0.7208
C41_4 C 0.6708(3) 0.9187(7) 0.76065(19)
H29_4 H 0.7068 0.9094 0.7761
C44_4 C 0.5659(3) 0.9393(8) 0.7160(2)
H31_4 H 0.5292 0.9455 0.7016
N2_4 N 0.0257(4) 0.6742(15) 0.5749(6)
C46_4 C 0.0348(10) 0.814(2) 0.5880(13)
H32_4 H 0.0756 0.8301 0.5931
H33_4 H 0.0212 0.8762 0.5621
H34_4 H 0.0141 0.8349 0.6179
C48_4 C 0.0693(5) 0.5810(13) 0.5770(4)
H38_4 H 0.0618 0.4913 0.5632
O26_4 O 0.1149(2) 0.5958(7) 0.59344(18)
P1_4 P 0.91628(7) 0.3116(2) 0.66110(5)
C1_4 C 0.9937(2) 0.2991(7) 0.65542(18)
C8_4 C 0.8900(2) 0.2386(8) 0.60331(19)
C9_4 C 0.8699(3) 0.3354(7) 0.5699(2)
H5_4 H 0.8704 0.4329 0.5775
C10_4 C 0.8491(3) 0.2917(7) 0.5257(2)
H6_4 H 0.8365 0.3594 0.5028
C11_4 C 0.8464(2) 0.1480(7) 0.51429(18)
C12_4 C 0.8670(3) 0.0510(8) 0.5478(2)
C13_4 C 0.8879(3) 0.0985(8) 0.5919(2)
H8_4 H 0.9012 0.0317 0.6149
C14_4 C 0.8205(3) 0.0994(8) 0.4687(2)
C15_4 C 0.8992(2) 0.1709(7) 0.70466(18)
C16_4 C 0.8466(3) 0.1815(7) 0.7278(2)
H9_4 H 0.8224 0.2590 0.7208
C17_4 C 0.8292(3) 0.0813(7) 0.76065(19)
H10_4 H 0.7932 0.0906 0.7761
C20_4 C 0.9341(3) 0.0607(8) 0.7160(2)
H12_4 H 0.9708 0.0545 0.7016
H7_4 H 0.8669 0.9534 0.5405
C18_4 C 0.8633(2) 0.9682(7) 0.77132(18)
C19_4 C 0.9161(3) 0.9549(8) 0.7493(2)
H11_4 H 0.9398 0.8766 0.7562
C21_4 C 0.8426(3) 0.8576(9) 0.80541(19)
C47_4 C 0.9714(9) 0.640(3) 0.5599(14)
H35_4 H 0.9718 0.5476 0.5443
H36_4 H 0.9459 0.6377 0.5880
H37_4 H 0.9579 0.7110 0.5369
loop_
_geom_bond_atom_site_label_1
_geom_bond_atom_site_label_2
_geom_bond_site_symmetry_1
_geom_bond_site_symmetry_2
Ca3 O9 1_555 1_555
Ca7 O10 1_555 1_555
P2 C25 1_555 1_555
O9 Ca2 1_555 1_555
O10 Ca3 1_555 1_555
O12 Ca3 1_555 1_555
O15 Ca2 1_555 1_555
O18 Ca2 1_555 1_555
O21 Ca2 1_555 1_555
O24 Ca3 1_555 1_555
O25 Ca3 1_555 1_555
C25 C26 1_555 1_555
C26 H20 1_555 1_555
C27 C26 1_555 1_555
H21 C27 1_555 1_555
C28 C27 1_555 1_555
C29 C28 1_555 1_555
H22 C29 1_555 1_555
C30 C25 1_555 1_555
H23 C30 1_555 1_555
C31 O9 1_555 1_555
C32 P2 1_555 1_555
C33 C32 1_555 1_555
H24 C33 1_555 1_555
C34 C33 1_555 1_555
H25 C34 1_555 1_555
C35 C34 1_555 1_555
C36 C35 1_555 1_555
C37 C32 1_555 1_555
H27 C37 1_555 1_555
C39 P2 1_555 1_555
C40 C39 1_555 1_555
H28 C40 1_555 1_555
C41 C40 1_555 1_555
H29 C41 1_555 1_555
C44 C39 1_555 1_555
H31 C44 1_555 1_555
N2 C46 1_555 1_555
C46 H32 1_555 1_555
H33 C46 1_555 1_555
H34 C46 1_555 1_555
C48 N2 1_555 1_555
H38 C48 1_555 1_555
O26 Ca3 1_555 1_555
Ca3 O18 1_555 1_555
Ca3 O21 1_555 1_555
Ca7 O12 1_555 1_555
Ca7 O25 1_555 1_555
O10 C31 1_555 1_555
C28 C31 1_555 1_555
C29 C30 1_555 1_555
C36 C37 1_555 1_555
C48 O26 1_555 1_555
Ca8 O16 1_555 1_555
O16 Ca12 1_555 1_555
C38 O16 1_555 1_555
Ca7 O1 1_555 1_555
Ca2_2 O1 1_555 1_555
O1 C7 1_555 1_555
C2 H1 1_555 1_555
C3 C2 1_555 1_555
H2 C3 1_555 1_555
C4 C3 1_555 1_555
C5 C4 1_555 1_555
H3 C5 1_555 1_555
H4 C6 1_555 1_555
C7 O12 1_555 1_555
N1 C22 1_555 1_555
C22 H13 1_555 1_555
H14 C22 1_555 1_555
H15 C22 1_555 1_555
C23 N1 1_555 1_555
H16 C23 1_555 1_555
H17 C23 1_555 1_555
H18 C23 1_555 1_555
C24 N1 1_555 1_555
H19 C24 1_555 1_555
O8 Ca7 1_555 1_555
Ca9 O19 1_555 1_555
Ca13_2 O19 1_555 1_555
O14 Ca2_2 1_555 1_555
O17 Ca7 1_555 1_555
O19 C45 1_555 1_555
O20 Ca7 1_555 1_555
O22 Ca9 1_555 1_555
O23 Ca7 1_555 1_555
C43 C42 1_555 1_555
H30 C43 1_555 1_555
C45 O22 1_555 1_555
Ca2_2 O17 1_555 1_555
Ca2_2 O20 1_555 1_555
C4 C7 1_555 1_555
C5 C6 1_555 1_555
C24 O8 1_555 1_555
C42 C45 1_555 1_555
Ca12_2 O13 1_555 1_555
O5 C21 1_555 1_555
O6 C21 1_555 1_555
C19 C18 1_555 1_555
H11 C19 1_555 1_555
C21 C18 1_555 1_555
Ca6 O5 1_555 1_555
Ca13 O5 1_555 1_555
H35 C47 1_555 1_555
H36 C47 1_555 1_555
H37 C47 1_555 1_555
O6 Ca6 1_555 1_555
Ca12 O3 1_555 1_555
P1 C1 1_555 1_555
C8 P1 1_555 1_555
C9 C8 1_555 1_555
H5 C9 1_555 1_555
C10 C9 1_555 1_555
H6 C10 1_555 1_555
C11 C10 1_555 1_555
C12 C11 1_555 1_555
C13 C8 1_555 1_555
H8 C13 1_555 1_555
C15 P1 1_555 1_555
C16 C15 1_555 1_555
H9 C16 1_555 1_555
C17 C16 1_555 1_555
H10 C17 1_555 1_555
C20 C15 1_555 1_555
H12 C20 1_555 1_555
C12 C13 1_555 1_555
O4 C14 1_555 1_555
Ca5 O4 1_555 1_555
O4 Ca12_2 1_555 1_555
O21 C21_2 1_555 1_555
O24 C21_2 1_555 1_555
C19_2 C18_2 1_555 1_555
H11_2 C19_2 1_555 1_555
C21_2 C18_2 1_555 1_555
Ca10 O3_2 1_555 1_555
H35_2 C47_2 1_555 1_555
H36_2 C47_2 1_555 1_555
H37_2 C47_2 1_555 1_555
P1_2 C1_2 1_555 1_555
O4_2 C14_2 1_555 1_555
C8_2 P1_2 1_555 1_555
C9_2 C8_2 1_555 1_555
H5_2 C9_2 1_555 1_555
C10_2 C9_2 1_555 1_555
H6_2 C10_2 1_555 1_555
C11_2 C10_2 1_555 1_555
C12_2 C11_2 1_555 1_555
C13_2 C8_2 1_555 1_555
H8_2 C13_2 1_555 1_555
C14_2 C11_2 1_555 1_555
C15_2 P1_2 1_555 1_555
C16_2 C15_2 1_555 1_555
H9_2 C16_2 1_555 1_555
C17_2 C16_2 1_555 1_555
H10_2 C17_2 1_555 1_555
C20_2 C15_2 1_555 1_555
H12_2 C20_2 1_555 1_555
Ca5_2 O4_2 1_555 1_555
O4_2 Ca10_2 1_555 1_555
C12_2 C13_2 1_555 1_555
Ca6 O9_2 1_555 1_555
Ca9 O10_2 1_555 1_555
Ca8_2 O16_2 1_555 1_555
P2_2 C25_2 1_555 1_555
O9_2 Ca13 1_555 1_555
O10_2 Ca6 1_555 1_555
O12_2 Ca6 1_555 1_555
O15_2 Ca13 1_555 1_555
O16_2 Ca10 1_555 1_555
O18_2 Ca13 1_555 1_555
O25_2 Ca6 1_555 1_555
C25_2 C26_2 1_555 1_555
C26_2 H20_2 1_555 1_555
C27_2 C26_2 1_555 1_555
H21_2 C27_2 1_555 1_555
C28_2 C27_2 1_555 1_555
C29_2 C28_2 1_555 1_555
H22_2 C29_2 1_555 1_555
C30_2 C25_2 1_555 1_555
H23_2 C30_2 1_555 1_555
C31_2 O9_2 1_555 1_555
C32_2 P2_2 1_555 1_555
C33_2 C32_2 1_555 1_555
H24_2 C33_2 1_555 1_555
C34_2 C33_2 1_555 1_555
H25_2 C34_2 1_555 1_555
C35_2 C34_2 1_555 1_555
C36_2 C35_2 1_555 1_555
C37_2 C32_2 1_555 1_555
H27_2 C37_2 1_555 1_555
C38_2 O16_2 1_555 1_555
C39_2 P2_2 1_555 1_555
C40_2 C39_2 1_555 1_555
H28_2 C40_2 1_555 1_555
C41_2 C40_2 1_555 1_555
H29_2 C41_2 1_555 1_555
C44_2 C39_2 1_555 1_555
H31_2 C44_2 1_555 1_555
N2_2 C46_2 1_555 1_555
C46_2 H32_2 1_555 1_555
H33_2 C46_2 1_555 1_555
H34_2 C46_2 1_555 1_555
C48_2 N2_2 1_555 1_555
H38_2 C48_2 1_555 1_555
O26_2 Ca6 1_555 1_555
Ca6 O18_2 1_555 1_555
Ca9 O12_2 1_555 1_555
Ca9 O25_2 1_555 1_555
O10_2 C31_2 1_555 1_555
C28_2 C31_2 1_555 1_555
C29_2 C30_2 1_555 1_555
C35_2 C38_2 1_555 1_555
C36_2 C37_2 1_555 1_555
C48_2 O26_2 1_555 1_555
Ca9 O1_2 1_555 1_555
Ca13_2 O1_2 1_555 1_555
O1_2 C7_2 1_555 1_555
C2_2 H1_2 1_555 1_555
C3_2 C2_2 1_555 1_555
H2_2 C3_2 1_555 1_555
C4_2 C3_2 1_555 1_555
C5_2 C4_2 1_555 1_555
H3_2 C5_2 1_555 1_555
H4_2 C6_2 1_555 1_555
C7_2 O12_2 1_555 1_555
N1_2 C22_2 1_555 1_555
C22_2 H13_2 1_555 1_555
H14_2 C22_2 1_555 1_555
H15_2 C22_2 1_555 1_555
C23_2 N1_2 1_555 1_555
H16_2 C23_2 1_555 1_555
H17_2 C23_2 1_555 1_555
H18_2 C23_2 1_555 1_555
C24_2 N1_2 1_555 1_555
H19_2 C24_2 1_555 1_555
O8_2 Ca9 1_555 1_555
Ca10_2 O13_2 1_555 1_555
O14_2 Ca13_2 1_555 1_555
O17_2 Ca9 1_555 1_555
O20 C45_2 1_555 1_555
C43_2 C42_2 1_555 1_555
H30_2 C43_2 1_555 1_555
C45_2 O23 1_555 1_555
Ca13_2 O17_2 1_555 1_555
C4_2 C7_2 1_555 1_555
C5_2 C6_2 1_555 1_555
C24_2 O8_2 1_555 1_555
C42_2 C45_2 1_555 1_555
O18 C14_3 1_555 1_555
P1_3 C1_3 1_555 1_555
C8_3 P1_3 1_555 1_555
C9_3 C8_3 1_555 1_555
H5_3 C9_3 1_555 1_555
C10_3 C9_3 1_555 1_555
H6_3 C10_3 1_555 1_555
C11_3 C10_3 1_555 1_555
C12_3 C11_3 1_555 1_555
C13_3 C8_3 1_555 1_555
H8_3 C13_3 1_555 1_555
C15_3 P1_3 1_555 1_555
C16_3 C15_3 1_555 1_555
H9_3 C16_3 1_555 1_555
C17_3 C16_3 1_555 1_555
H10_3 C17_3 1_555 1_555
C20_3 C15_3 1_555 1_555
H12_3 C20_3 1_555 1_555
C12_3 C13_3 1_555 1_555
O5_2 C21_3 1_555 1_555
O6_2 C21_3 1_555 1_555
C19_3 C18_3 1_555 1_555
H11_3 C19_3 1_555 1_555
C21_3 C18_3 1_555 1_555
Ca5_2 O5_2 1_555 1_555
Ca10_2 O5_2 1_555 1_555
H35_3 C47_3 1_555 1_555
H36_3 C47_3 1_555 1_555
H37_3 C47_3 1_555 1_555
O6_2 Ca5_2 1_555 1_555
Ca8 O1_3 1_555 1_555
Ca12 O1_3 1_555 1_555
O1_3 C7_3 1_555 1_555
O2 Ca8 1_555 1_555
O7 Ca8 1_555 1_555
C2_3 H1_3 1_555 1_555
C3_3 C2_3 1_555 1_555
H2_3 C3_3 1_555 1_555
C4_3 C3_3 1_555 1_555
C5_3 C4_3 1_555 1_555
H3_3 C5_3 1_555 1_555
H4_3 C6_3 1_555 1_555
C7_3 O2 1_555 1_555
N1_3 C22_3 1_555 1_555
C22_3 H13_3 1_555 1_555
H14_3 C22_3 1_555 1_555
H15_3 C22_3 1_555 1_555
C23_3 N1_3 1_555 1_555
H16_3 C23_3 1_555 1_555
H17_3 C23_3 1_555 1_555
H18_3 C23_3 1_555 1_555
C24_3 N1_3 1_555 1_555
H19_3 C24_3 1_555 1_555
O8_3 Ca8 1_555 1_555
Ca5 O2 1_555 1_555
Ca8_2 O19_2 1_555 1_555
Ca10 O19_2 1_555 1_555
O11 Ca8 1_555 1_555
O19_2 C45_3 1_555 1_555
O20_2 Ca8 1_555 1_555
O22_2 Ca8_2 1_555 1_555
O23_2 Ca8 1_555 1_555
C43_3 C42_3 1_555 1_555
H30_3 C43_3 1_555 1_555
C45_3 O22_2 1_555 1_555
Ca12 O20_2 1_555 1_555
O7 Ca5 1_555 1_555
C4_3 C7_3 1_555 1_555
C5_3 C6_3 1_555 1_555
C24_3 O8_3 1_555 1_555
Ca5 O11 1_555 1_555
C42_3 C45_3 1_555 1_555
C38_3 O17 1_555 1_555
Ca5 O9_3 1_555 1_555
P2_3 C25_3 1_555 1_555
O9_3 Ca12_2 1_555 1_555
O21_2 Ca12_2 1_555 1_555
O24_2 Ca5 1_555 1_555
C25_3 C26_3 1_555 1_555
C26_3 H20_3 1_555 1_555
C27_3 C26_3 1_555 1_555
H21_3 C27_3 1_555 1_555
C28_3 C27_3 1_555 1_555
C29_3 C28_3 1_555 1_555
H22_3 C29_3 1_555 1_555
C30_3 C25_3 1_555 1_555
H23_3 C30_3 1_555 1_555
C31_3 O9_3 1_555 1_555
C32_3 P2_3 1_555 1_555
C33_3 C32_3 1_555 1_555
H24_3 C33_3 1_555 1_555
C34_3 C33_3 1_555 1_555
H25_3 C34_3 1_555 1_555
C35_3 C34_3 1_555 1_555
C36_3 C35_3 1_555 1_555
C37_3 C32_3 1_555 1_555
H27_3 C37_3 1_555 1_555
C39_3 P2_3 1_555 1_555
C40_3 C39_3 1_555 1_555
H28_3 C40_3 1_555 1_555
C41_3 C40_3 1_555 1_555
H29_3 C41_3 1_555 1_555
C44_3 C39_3 1_555 1_555
H31_3 C44_3 1_555 1_555
N2_3 C46_3 1_555 1_555
C46_3 H32_3 1_555 1_555
H33_3 C46_3 1_555 1_555
H34_3 C46_3 1_555 1_555
C48_3 N2_3 1_555 1_555
H38_3 C48_3 1_555 1_555
O26_3 Ca5 1_555 1_555
Ca5 O21_2 1_555 1_555
O11 C31_3 1_555 1_555
C28_3 C31_3 1_555 1_555
C29_3 C30_3 1_555 1_555
C36_3 C37_3 1_555 1_555
C48_3 O26_3 1_555 1_555
Ca8_2 O1_4 1_555 1_555
Ca10 O1_4 1_555 1_555
O1_4 C7_4 1_555 1_555
O2_2 Ca8_2 1_555 1_555
O7_2 Ca8_2 1_555 1_555
C2_4 H1_4 1_555 1_555
C3_4 C2_4 1_555 1_555
H2_4 C3_4 1_555 1_555
C4_4 C3_4 1_555 1_555
C5_4 C4_4 1_555 1_555
H3_4 C5_4 1_555 1_555
H4_4 C6_4 1_555 1_555
C7_4 O2_2 1_555 1_555
N1_4 C22_4 1_555 1_555
C22_4 H13_4 1_555 1_555
H14_4 C22_4 1_555 1_555
H15_4 C22_4 1_555 1_555
C23_4 N1_4 1_555 1_555
H16_4 C23_4 1_555 1_555
H17_4 C23_4 1_555 1_555
H18_4 C23_4 1_555 1_555
C24_4 N1_4 1_555 1_555
H19_4 C24_4 1_555 1_555
O8_4 Ca8_2 1_555 1_555
Ca5_2 O2_2 1_555 1_555
O11_2 Ca8_2 1_555 1_555
O20_2 C45_4 1_555 1_555
C43_4 C42_4 1_555 1_555
H30_4 C43_4 1_555 1_555
C45_4 O23_2 1_555 1_555
O7_2 Ca5_2 1_555 1_555
C4_4 C7_4 1_555 1_555
C5_4 C6_4 1_555 1_555
C24_4 O8_4 1_555 1_555
Ca5_2 O11_2 1_555 1_555
C42_4 C45_4 1_555 1_555
Ca5_2 O9_4 1_555 1_555
P2_4 C25_4 1_555 1_555
O9_4 Ca10_2 1_555 1_555
C25_4 C26_4 1_555 1_555
C26_4 H20_4 1_555 1_555
C27_4 C26_4 1_555 1_555
H21_4 C27_4 1_555 1_555
C28_4 C27_4 1_555 1_555
C29_4 C28_4 1_555 1_555
H22_4 C29_4 1_555 1_555
C30_4 C25_4 1_555 1_555
H23_4 C30_4 1_555 1_555
C31_4 O9_4 1_555 1_555
C32_4 P2_4 1_555 1_555
C33_4 C32_4 1_555 1_555
H24_4 C33_4 1_555 1_555
C34_4 C33_4 1_555 1_555
H25_4 C34_4 1_555 1_555
C35_4 C34_4 1_555 1_555
C36_4 C35_4 1_555 1_555
C37_4 C32_4 1_555 1_555
H27_4 C37_4 1_555 1_555
C38_4 O17_2 1_555 1_555
C39_4 P2_4 1_555 1_555
C40_4 C39_4 1_555 1_555
H28_4 C40_4 1_555 1_555
C41_4 C40_4 1_555 1_555
H29_4 C41_4 1_555 1_555
C44_4 C39_4 1_555 1_555
H31_4 C44_4 1_555 1_555
N2_4 C46_4 1_555 1_555
C46_4 H32_4 1_555 1_555
H33_4 C46_4 1_555 1_555
H34_4 C46_4 1_555 1_555
C48_4 N2_4 1_555 1_555
H38_4 C48_4 1_555 1_555
O26_4 Ca5_2 1_555 1_555
O11_2 C31_4 1_555 1_555
C28_4 C31_4 1_555 1_555
C29_4 C30_4 1_555 1_555
C35_4 C38_4 1_555 1_555
C36_4 C37_4 1_555 1_555
C48_4 O26_4 1_555 1_555
P1_4 C1_4 1_555 1_555
O18_2 C14_4 1_555 1_555
C8_4 P1_4 1_555 1_555
C9_4 C8_4 1_555 1_555
H5_4 C9_4 1_555 1_555
C10_4 C9_4 1_555 1_555
H6_4 C10_4 1_555 1_555
C11_4 C10_4 1_555 1_555
C12_4 C11_4 1_555 1_555
C13_4 C8_4 1_555 1_555
H8_4 C13_4 1_555 1_555
C14_4 C11_4 1_555 1_555
C15_4 P1_4 1_555 1_555
C16_4 C15_4 1_555 1_555
H9_4 C16_4 1_555 1_555
C17_4 C16_4 1_555 1_555
H10_4 C17_4 1_555 1_555
C20_4 C15_4 1_555 1_555
H12_4 C20_4 1_555 1_555
C12_4 C13_4 1_555 1_555
O21_2 C21_4 1_555 1_555
O24_2 C21_4 1_555 1_555
C19_4 C18_4 1_555 1_555
H11_4 C19_4 1_555 1_555
C21_4 C18_4 1_555 1_555
H35_4 C47_4 1_555 1_555
H36_4 C47_4 1_555 1_555
H37_4 C47_4 1_555 1_555

#END
