
###############################################################################
#
# This file contains modified crystal structure data generated from the
# MOF subset of the Cambridge Structural Database (CSD) v543 
# hosted by the Cambridge Crystallographic Data Centre (CCDC).
#
# This work is licensed under the Creative Commons
# Attribution-NonCommercial-ShareAlike 4.0 International License.
# To view a copy of this license, visit
# http://creativecommons.org/licenses/by-nc-sa/4.0/
# or send a letter to
# Creative Commons, PO Box 1866, Mountain View, CA 94042, USA.
#
# CIF created using the CSD Python API on 29 September 2022
# The structure has been converted into the P1 space group
# The structure has a 3D framework
# The original CSD entry HAFWUI01 is in the monoclinic crystal system
# The framework has been calculated to contain at least 10.0% void space
# The void calculation uses a probe of radius 1.32A, grid spacing 0.4
# The framework is charged, counterions have been retained in the structure
#
###############################################################################

data_HAFWUI01
_chemical_formula_moiety         '(C176 H136 Co8 N16 Na3 O57)n'
_symmetry_cell_setting           triclinic
_symmetry_space_group_name_H-M   'P 1'
_symmetry_Int_Tables_number      1
_space_group_name_Hall           'P 1'
loop_
_symmetry_equiv_pos_site_id
_symmetry_equiv_pos_as_xyz
1 x,y,z
_cell_length_a                   21.5119(5)
_cell_length_b                   11.8062(3)
_cell_length_c                   19.4114(5)
_cell_angle_alpha                90
_cell_angle_beta                 94.591(2)
_cell_angle_gamma                90
_cell_volume                     4914.17
loop_
_atom_site_label
_atom_site_type_symbol
_atom_site_fract_x
_atom_site_fract_y
_atom_site_fract_z
O12 O 0.56278(9) 0.07380(17) 0.09442(11)
O13 O 0.48800(11) 0.0421(2) 0.16391(11)
O14 O 0.51200(11) 0.0421(2) 0.33609(11)
O21 O 0.65037(11) 0.1380(3) 0.22583(14)
C20 C 0.45997(12) 0.1277(2) 0.05542(14)
C21 C 0.39903(13) 0.1438(3) 0.07091(15)
H8 H 0.3875 0.1269 0.1149
C22 C 0.35489(13) 0.1850(3) 0.02113(15)
H9 H 0.3143 0.1974 0.0325
C30 C 0.50649(13) 0.0773(2) 0.10963(15)
Co2 Co 0.376242(16) 0.00132(3) 0.838311(19)
Co4 Co 0.123758(16) 0.50132(3) 0.661689(19)
Na2 Na 0.5000 0.09731(16) 0.7500
O9 O 0.49668(12) 0.2593(3) 0.85316(13)
O10 O 0.41763(9) 0.14825(17) 0.81933(10)
O15 O 0.30442(9) 0.00476(17) 0.89626(10)
O16 O 0.20659(11) 0.0487(2) 0.90923(17)
O17 O 0.19029(16) 0.5251(2) 0.75517(13)
O19 O 0.30971(16) 0.0251(2) 0.74483(13)
O20 O 0.15037(11) 0.3620(3) 0.72583(14)
C17 C 0.37061(13) 0.2078(2) 0.95488(14)
C18 C 0.43225(12) 0.1923(2) 0.93883(14)
C19 C 0.47663(13) 0.1543(2) 0.98990(14)
H7 H 0.5180 0.1468 0.9798
C23 C 0.32279(13) 0.2568(2) 0.90351(14)
C24 C 0.27054(12) 0.1960(2) 0.87649(14)
C25 C 0.22681(13) 0.2500(3) 0.83076(14)
H10 H 0.1924 0.2097 0.8119
C26 C 0.23364(14) 0.3625(3) 0.81297(15)
C27 C 0.28480(17) 0.4221(3) 0.84030(17)
H11 H 0.2896 0.4979 0.8288
C28 C 0.32892(16) 0.3693(3) 0.88470(18)
H12 H 0.3636 0.4101 0.9024
C29 C 0.45094(14) 0.2035(3) 0.86591(15)
C31 C 0.25925(13) 0.0744(3) 0.89529(16)
C32 C 0.18828(16) 0.4208(3) 0.76188(16)
Co1 Co 0.623758(16) 0.99868(3) 0.161689(19)
Na1 Na 0.5000 0.90269(16) 0.2500
O1 O 0.50332(12) 0.7407(3) 0.14684(13)
O2 O 0.58237(9) 0.85175(17) 0.18067(10)
O5 O 0.69558(9) 0.99524(17) 0.10374(10)
O6 O 0.79341(11) 0.9513(2) 0.09077(17)
O7 O 0.80971(16) 0.4749(2) 0.24483(13)
O8 O 0.84963(11) 0.6380(3) 0.27417(14)
C1 C 0.62939(13) 0.7922(2) 0.04512(14)
C2 C 0.56775(12) 0.8077(2) 0.06117(14)
C3 C 0.52337(13) 0.8457(2) 0.01010(14)
H1 H 0.4820 0.8532 0.0202
C7 C 0.67721(13) 0.7432(2) 0.09649(14)
C8 C 0.72946(12) 0.8040(2) 0.12351(14)
C9 C 0.77319(13) 0.7500(3) 0.16924(14)
H4 H 0.8076 0.7903 0.1881
C10 C 0.76636(14) 0.6375(3) 0.18703(15)
C11 C 0.71520(17) 0.5779(3) 0.15970(17)
H5 H 0.7104 0.5021 0.1712
C12 C 0.67108(16) 0.6307(3) 0.11530(18)
H6 H 0.6364 0.5899 0.0976
C13 C 0.54906(14) 0.7965(3) 0.13409(15)
C15 C 0.74075(13) 0.9256(3) 0.10471(16)
C16 C 0.81172(16) 0.5792(3) 0.23812(16)
Co3 Co 0.876242(16) 0.49868(3) 0.338311(19)
O11 O 0.41763(9) 0.85175(17) 0.31933(10)
O18 O 0.69029(16) 0.9749(2) 0.25517(13)
O3 O 0.43722(9) 0.92620(17) 0.90558(11)
O4 O 0.51200(11) 0.9579(2) 0.83609(11)
C4 C 0.54003(12) 0.8723(2) 0.94458(14)
C5 C 0.60097(13) 0.8562(3) 0.92909(15)
H2 H 0.6125 0.8731 0.8851
C6 C 0.64511(13) 0.8150(3) 0.97887(15)
H3 H 0.6857 0.8026 0.9675
C14 C 0.49351(13) 0.9227(2) 0.89037(15)
O22 O 0.34963(11) 0.8620(3) 0.77417(14)
Co2_2 Co 0.623758(16) 0.00132(3) 0.661689(19)
Co4_2 Co 0.876242(16) 0.50132(3) 0.838311(19)
O9_2 O 0.50332(12) 0.2593(3) 0.64684(13)
O10_2 O 0.58237(9) 0.14825(17) 0.68067(10)
O12_2 O 0.43722(9) 0.07380(17) 0.40558(11)
O15_2 O 0.69558(9) 0.00476(17) 0.60374(10)
O16_2 O 0.79341(11) 0.0487(2) 0.59077(17)
O17_2 O 0.80971(16) 0.5251(2) 0.74483(13)
O19_2 O 0.69029(16) 0.0251(2) 0.75517(13)
O20_2 O 0.84963(11) 0.3620(3) 0.77417(14)
O21_2 O 0.34963(11) 0.1380(3) 0.27417(14)
C17_2 C 0.62939(13) 0.2078(2) 0.54512(14)
C18_2 C 0.56775(12) 0.1923(2) 0.56117(14)
C19_2 C 0.52337(13) 0.1543(2) 0.51010(14)
H7_2 H 0.4820 0.1468 0.5202
C20_2 C 0.54003(12) 0.1277(2) 0.44458(14)
C21_2 C 0.60097(13) 0.1438(3) 0.42909(15)
H8_2 H 0.6125 0.1269 0.3851
C22_2 C 0.64511(13) 0.1850(3) 0.47887(15)
H9_2 H 0.6857 0.1974 0.4675
C23_2 C 0.67721(13) 0.2568(2) 0.59649(14)
C24_2 C 0.72946(12) 0.1960(2) 0.62351(14)
C25_2 C 0.77319(13) 0.2500(3) 0.66924(14)
H10_2 H 0.8076 0.2097 0.6881
C26_2 C 0.76636(14) 0.3625(3) 0.68703(15)
C27_2 C 0.71520(17) 0.4221(3) 0.65970(17)
H11_2 H 0.7104 0.4979 0.6712
C28_2 C 0.67108(16) 0.3693(3) 0.61530(18)
H12_2 H 0.6364 0.4101 0.5976
C29_2 C 0.54906(14) 0.2035(3) 0.63409(15)
C30_2 C 0.49351(13) 0.0773(2) 0.39037(15)
C31_2 C 0.74075(13) 0.0744(3) 0.60471(16)
C32_2 C 0.81172(16) 0.4208(3) 0.73812(16)
Co1_2 Co 0.376242(16) 0.99868(3) 0.338311(19)
O1_2 O 0.49668(12) 0.7407(3) 0.35316(13)
O3_2 O 0.56278(9) 0.92620(17) 0.59442(11)
O4_2 O 0.48800(11) 0.9579(2) 0.66391(11)
O5_2 O 0.30442(9) 0.99524(17) 0.39626(10)
O6_2 O 0.20659(11) 0.9513(2) 0.40923(17)
O7_2 O 0.19029(16) 0.4749(2) 0.25517(13)
O8_2 O 0.15037(11) 0.6380(3) 0.22583(14)
C1_2 C 0.37061(13) 0.7922(2) 0.45488(14)
C2_2 C 0.43225(12) 0.8077(2) 0.43883(14)
C3_2 C 0.47663(13) 0.8457(2) 0.48990(14)
H1_2 H 0.5180 0.8532 0.4798
C4_2 C 0.45997(12) 0.8723(2) 0.55542(14)
C5_2 C 0.39903(13) 0.8562(3) 0.57091(15)
H2_2 H 0.3875 0.8731 0.6149
C6_2 C 0.35489(13) 0.8150(3) 0.52113(15)
H3_2 H 0.3143 0.8026 0.5325
C7_2 C 0.32279(13) 0.7432(2) 0.40351(14)
C8_2 C 0.27054(12) 0.8040(2) 0.37649(14)
C9_2 C 0.22681(13) 0.7500(3) 0.33076(14)
H4_2 H 0.1924 0.7903 0.3119
C10_2 C 0.23364(14) 0.6375(3) 0.31297(15)
C11_2 C 0.28480(17) 0.5779(3) 0.34030(17)
H5_2 H 0.2896 0.5021 0.3288
C12_2 C 0.32892(16) 0.6307(3) 0.38470(18)
H6_2 H 0.3636 0.5899 0.4024
C13_2 C 0.45094(14) 0.7965(3) 0.36591(15)
C14_2 C 0.50649(13) 0.9227(2) 0.60963(15)
C15_2 C 0.25925(13) 0.9256(3) 0.39529(16)
C16_2 C 0.18828(16) 0.5792(3) 0.26188(16)
Co3_2 Co 0.123758(16) 0.49868(3) 0.161689(19)
O18_2 O 0.30971(16) 0.9749(2) 0.24483(13)
O22_2 O 0.65037(11) 0.8620(3) 0.72583(14)
Na1_2 Na 0.0000 0.40269(16) 0.2500
O1_3 O 0.00332(12) 0.2407(3) 0.14684(13)
O2_2 O 0.08237(9) 0.35175(17) 0.18067(10)
O5_3 O 0.19558(9) 0.49524(17) 0.10374(10)
O6_3 O 0.29341(11) 0.4513(2) 0.09077(17)
C1_3 C 0.12939(13) 0.2922(2) 0.04512(14)
C2_3 C 0.06775(12) 0.3077(2) 0.06117(14)
C3_3 C 0.02337(13) 0.3457(2) 0.01010(14)
C7_3 C 0.17721(13) 0.2432(2) 0.09649(14)
C8_3 C 0.22946(12) 0.3040(2) 0.12351(14)
C9_3 C 0.27319(13) 0.2500(3) 0.16924(14)
H4_3 H 0.3076 0.2903 0.1881
C10_3 C 0.26636(14) 0.1375(3) 0.18703(15)
C11_3 C 0.21520(17) 0.0779(3) 0.15970(17)
H5_3 H 0.2104 0.0021 0.1712
C12_3 C 0.17108(16) 0.1307(3) 0.11530(18)
H6_3 H 0.1364 0.0899 0.0976
C13_3 C 0.04906(14) 0.2965(3) 0.13409(15)
C15_3 C 0.24075(13) 0.4256(3) 0.10471(16)
C16_3 C 0.31172(16) 0.0792(3) 0.23812(16)
O12_3 O 0.06278(9) 0.57380(17) 0.09442(11)
O14_2 O 0.01200(11) 0.5421(2) 0.33609(11)
C30_3 C 0.00649(13) 0.5773(2) 0.10963(15)
O4_3 O 0.01200(11) 0.4579(2) 0.83609(11)
C4_3 C 0.04003(12) 0.3723(2) 0.94458(14)
C5_3 C 0.10097(13) 0.3562(3) 0.92909(15)
H2_3 H 0.1125 0.3731 0.8851
C6_3 C 0.14511(13) 0.3150(3) 0.97887(15)
H3_3 H 0.1857 0.3026 0.9675
Na2_2 Na -0.0000 0.59731(16) 0.7500
H7_3 H 0.0180 0.6468 0.9798
Na1_3 Na 1.0000 0.40269(16) 0.2500
H1_3 H 0.9820 0.3532 0.0202
O11_2 O 0.91763(9) 0.35175(17) 0.31933(10)
O13_2 O 0.98800(11) 0.5421(2) 0.16391(11)
C20_3 C 0.95997(12) 0.6277(2) 0.05542(14)
C21_3 C 0.89903(13) 0.6438(3) 0.07091(15)
H8_3 H 0.8875 0.6269 0.1149
C22_3 C 0.85489(13) 0.6850(3) 0.02113(15)
H9_3 H 0.8143 0.6974 0.0325
O3_3 O 0.93722(9) 0.42620(17) 0.90558(11)
C14_3 C 0.99351(13) 0.4227(2) 0.89037(15)
Na2_3 Na 1.0000 0.59731(16) 0.7500
O9_3 O 0.99668(12) 0.7593(3) 0.85316(13)
O10_3 O 0.91763(9) 0.64825(17) 0.81933(10)
O15_3 O 0.80442(9) 0.50476(17) 0.89626(10)
O16_3 O 0.70659(11) 0.5487(2) 0.90923(17)
C17_3 C 0.87061(13) 0.7078(2) 0.95488(14)
C18_3 C 0.93225(12) 0.6923(2) 0.93883(14)
C19_3 C 0.97663(13) 0.6543(2) 0.98990(14)
C23_3 C 0.82279(13) 0.7568(2) 0.90351(14)
C24_3 C 0.77054(12) 0.6960(2) 0.87649(14)
C25_3 C 0.72681(13) 0.7500(3) 0.83076(14)
H10_3 H 0.6924 0.7097 0.8119
C26_3 C 0.73364(14) 0.8625(3) 0.81297(15)
C27_3 C 0.78480(17) 0.9221(3) 0.84030(17)
H11_3 H 0.7896 0.9979 0.8288
C28_3 C 0.82892(16) 0.8693(3) 0.88470(18)
H12_3 H 0.8636 0.9101 0.9024
C29_3 C 0.95094(14) 0.7035(3) 0.86591(15)
C31_3 C 0.75925(13) 0.5744(3) 0.89529(16)
C32_3 C 0.68828(16) 0.9208(3) 0.76188(16)
O3_4 O 0.06278(9) 0.42620(17) 0.59442(11)
H1_4 H 0.0180 0.3532 0.4798
C14_4 C 0.00649(13) 0.4227(2) 0.60963(15)
O9_4 O 0.00332(12) 0.7593(3) 0.64684(13)
O10_4 O 0.08237(9) 0.64825(17) 0.68067(10)
O15_4 O 0.19558(9) 0.50476(17) 0.60374(10)
O16_4 O 0.29341(11) 0.5487(2) 0.59077(17)
C17_4 C 0.12939(13) 0.7078(2) 0.54512(14)
C18_4 C 0.06775(12) 0.6923(2) 0.56117(14)
C19_4 C 0.02337(13) 0.6543(2) 0.51010(14)
C20_4 C 0.04003(12) 0.6277(2) 0.44458(14)
C21_4 C 0.10097(13) 0.6438(3) 0.42909(15)
H8_4 H 0.1125 0.6269 0.3851
C22_4 C 0.14511(13) 0.6850(3) 0.47887(15)
H9_4 H 0.1857 0.6974 0.4675
C23_4 C 0.17721(13) 0.7568(2) 0.59649(14)
C24_4 C 0.22946(12) 0.6960(2) 0.62351(14)
C25_4 C 0.27319(13) 0.7500(3) 0.66924(14)
H10_4 H 0.3076 0.7097 0.6881
C26_4 C 0.26636(14) 0.8625(3) 0.68703(15)
C27_4 C 0.21520(17) 0.9221(3) 0.65970(17)
H11_4 H 0.2104 0.9979 0.6712
C28_4 C 0.17108(16) 0.8693(3) 0.61530(18)
H12_4 H 0.1364 0.9101 0.5976
C29_4 C 0.04906(14) 0.7035(3) 0.63409(15)
C31_4 C 0.24075(13) 0.5744(3) 0.60471(16)
C32_4 C 0.31172(16) 0.9208(3) 0.73812(16)
O1_4 O 0.99668(12) 0.2407(3) 0.35316(13)
O4_4 O 0.98800(11) 0.4579(2) 0.66391(11)
O5_4 O 0.80442(9) 0.49524(17) 0.39626(10)
O6_4 O 0.70659(11) 0.4513(2) 0.40923(17)
C1_4 C 0.87061(13) 0.2922(2) 0.45488(14)
C2_4 C 0.93225(12) 0.3077(2) 0.43883(14)
C3_4 C 0.97663(13) 0.3457(2) 0.48990(14)
C4_4 C 0.95997(12) 0.3723(2) 0.55542(14)
C5_4 C 0.89903(13) 0.3562(3) 0.57091(15)
H2_4 H 0.8875 0.3731 0.6149
C6_4 C 0.85489(13) 0.3150(3) 0.52113(15)
H3_4 H 0.8143 0.3026 0.5325
C7_4 C 0.82279(13) 0.2432(2) 0.40351(14)
C8_4 C 0.77054(12) 0.3040(2) 0.37649(14)
C9_4 C 0.72681(13) 0.2500(3) 0.33076(14)
H4_4 H 0.6924 0.2903 0.3119
C10_4 C 0.73364(14) 0.1375(3) 0.31297(15)
C11_4 C 0.78480(17) 0.0779(3) 0.34030(17)
H5_4 H 0.7896 0.0021 0.3288
C12_4 C 0.82892(16) 0.1307(3) 0.38470(18)
H6_4 H 0.8636 0.0899 0.4024
C13_4 C 0.95094(14) 0.2965(3) 0.36591(15)
C15_4 C 0.75925(13) 0.4256(3) 0.39529(16)
C16_4 C 0.68828(16) 0.0792(3) 0.26188(16)
O12_4 O 0.93722(9) 0.57380(17) 0.40558(11)
H7_4 H 0.9820 0.6468 0.5202
C30_4 C 0.99351(13) 0.5773(2) 0.39037(15)
C33 C 0.32470(16) 0.6923(3) 0.06313(18)
H13 H 0.3130 0.6164 0.0619
C34 C 0.35199(18) 0.8603(3) 0.10029(19)
H14 H 0.3622 0.9207 0.1299
C35 C 0.35080(16) 0.8625(3) 0.03155(18)
H15 H 0.3601 0.9240 0.0043
C36 C 0.3291(3) 0.7146(4) 0.1906(2)
H16 H 0.3171 0.6362 0.1897
H17 H 0.2977 0.7586 0.2107
H18 H 0.3682 0.7232 0.2176
N1 N 0.33562(14) 0.7540(2) 0.11961(14)
N2 N 0.33310(13) 0.7563(2) 0.00871(14)
C37 C 0.32732(19) 0.7183(3) 0.93613(19)
H19 H 0.3174 0.7828 0.9063
H20 H 0.2933 0.6644 0.9296
C38 C 0.3855(2) 0.6648(4) 0.9163(2)
H21 H 0.3801 0.6413 0.8688
H22 H 0.3950 0.6000 0.9451
H23 H 0.4191 0.7183 0.9220
C33_2 C 0.67530(16) 0.6923(3) 0.43687(18)
H13_2 H 0.6870 0.6164 0.4381
C34_2 C 0.64801(18) 0.8603(3) 0.39971(19)
H14_2 H 0.6378 0.9207 0.3701
C35_2 C 0.64920(16) 0.8625(3) 0.46845(18)
H15_2 H 0.6399 0.9240 0.4957
C36_2 C 0.6709(3) 0.7146(4) 0.3094(2)
H16_2 H 0.6829 0.6362 0.3103
H17_2 H 0.7023 0.7586 0.2893
H18_2 H 0.6318 0.7232 0.2824
C37_2 C 0.67268(19) 0.7183(3) 0.56387(19)
H19_2 H 0.6826 0.7828 0.5937
H20_2 H 0.7067 0.6644 0.5704
C38_2 C 0.6145(2) 0.6648(4) 0.5837(2)
H21_2 H 0.6199 0.6413 0.6312
H22_2 H 0.6050 0.6000 0.5549
H23_2 H 0.5809 0.7183 0.5780
N1_2 N 0.66438(14) 0.7540(2) 0.38039(14)
N2_2 N 0.66690(13) 0.7563(2) 0.49129(14)
C33_3 C 0.82470(16) 0.1923(3) 0.06313(18)
H13_3 H 0.8130 0.1164 0.0619
C34_3 C 0.85199(18) 0.3603(3) 0.10029(19)
H14_3 H 0.8622 0.4207 0.1299
C35_3 C 0.85080(16) 0.3625(3) 0.03155(18)
H15_3 H 0.8601 0.4240 0.0043
C36_3 C 0.8291(3) 0.2146(4) 0.1906(2)
H16_3 H 0.8171 0.1362 0.1897
H17_3 H 0.7977 0.2586 0.2107
H18_3 H 0.8682 0.2232 0.2176
N1_3 N 0.83562(14) 0.2540(2) 0.11961(14)
N2_3 N 0.83310(13) 0.2563(2) 0.00871(14)
C37_3 C 0.82732(19) 0.2183(3) 0.93613(19)
H19_3 H 0.8174 0.2828 0.9063
H20_3 H 0.7933 0.1644 0.9296
C38_3 C 0.8855(2) 0.1648(4) 0.9163(2)
H21_3 H 0.8801 0.1413 0.8688
H22_3 H 0.8950 0.1000 0.9451
H23_3 H 0.9191 0.2183 0.9220
C33_4 C 0.17530(16) 0.1923(3) 0.43687(18)
H13_4 H 0.1870 0.1164 0.4381
C34_4 C 0.14801(18) 0.3603(3) 0.39971(19)
H14_4 H 0.1378 0.4207 0.3701
C35_4 C 0.14920(16) 0.3625(3) 0.46845(18)
H15_4 H 0.1399 0.4240 0.4957
C36_4 C 0.1709(3) 0.2146(4) 0.3094(2)
H16_4 H 0.1829 0.1362 0.3103
H17_4 H 0.2023 0.2586 0.2893
H18_4 H 0.1318 0.2232 0.2824
C37_4 C 0.17268(19) 0.2183(3) 0.56387(19)
H19_4 H 0.1826 0.2828 0.5937
H20_4 H 0.2067 0.1644 0.5704
C38_4 C 0.1145(2) 0.1648(4) 0.5837(2)
H21_4 H 0.1199 0.1413 0.6312
H22_4 H 0.1050 0.1000 0.5549
H23_4 H 0.0809 0.2183 0.5780
N1_4 N 0.16438(14) 0.2540(2) 0.38039(14)
N2_4 N 0.16690(13) 0.2563(2) 0.49129(14)
C37_5 C 0.67268(19) 0.2817(3) 0.06387(19)
H19_5 H 0.6826 0.2172 0.0937
H20_5 H 0.7067 0.3356 0.0704
C38_5 C 0.6145(2) 0.3352(4) 0.0837(2)
H21_5 H 0.6199 0.3587 0.1312
H22_5 H 0.6050 0.4000 0.0549
H23_5 H 0.5809 0.2817 0.0780
C33_5 C 0.67530(16) 0.3077(3) 0.93687(18)
H13_5 H 0.6870 0.3836 0.9381
C34_5 C 0.64801(18) 0.1397(3) 0.89971(19)
H14_5 H 0.6378 0.0793 0.8701
C35_5 C 0.64920(16) 0.1375(3) 0.96845(18)
H15_5 H 0.6399 0.0760 0.9957
C36_5 C 0.6709(3) 0.2854(4) 0.8094(2)
H16_5 H 0.6829 0.3638 0.8103
H17_5 H 0.7023 0.2414 0.7893
H18_5 H 0.6318 0.2768 0.7824
N1_5 N 0.66438(14) 0.2460(2) 0.88039(14)
N2_5 N 0.66690(13) 0.2437(2) 0.99129(14)
C33_6 C 0.32470(16) 0.3077(3) 0.56313(18)
H13_6 H 0.3130 0.3836 0.5619
C34_6 C 0.35199(18) 0.1397(3) 0.60029(19)
H14_6 H 0.3622 0.0793 0.6299
C35_6 C 0.35080(16) 0.1375(3) 0.53155(18)
H15_6 H 0.3601 0.0760 0.5043
C36_6 C 0.3291(3) 0.2854(4) 0.6906(2)
H16_6 H 0.3171 0.3638 0.6897
H17_6 H 0.2977 0.2414 0.7107
H18_6 H 0.3682 0.2768 0.7176
C37_6 C 0.32732(19) 0.2817(3) 0.43613(19)
H19_6 H 0.3174 0.2172 0.4063
H20_6 H 0.2933 0.3356 0.4296
C38_6 C 0.3855(2) 0.3352(4) 0.4163(2)
H21_6 H 0.3801 0.3587 0.3688
H22_6 H 0.3950 0.4000 0.4451
H23_6 H 0.4191 0.2817 0.4220
N1_6 N 0.33562(14) 0.2460(2) 0.61961(14)
N2_6 N 0.33310(13) 0.2437(2) 0.50871(14)
C37_7 C 0.17268(19) 0.7817(3) 0.06387(19)
H19_7 H 0.1826 0.7172 0.0937
H20_7 H 0.2067 0.8356 0.0704
C38_7 C 0.1145(2) 0.8352(4) 0.0837(2)
H21_7 H 0.1199 0.8587 0.1312
H22_7 H 0.1050 0.9000 0.0549
H23_7 H 0.0809 0.7817 0.0780
C33_7 C 0.17530(16) 0.8077(3) 0.93687(18)
H13_7 H 0.1870 0.8836 0.9381
C34_7 C 0.14801(18) 0.6397(3) 0.89971(19)
H14_7 H 0.1378 0.5793 0.8701
C35_7 C 0.14920(16) 0.6375(3) 0.96845(18)
H15_7 H 0.1399 0.5760 0.9957
C36_7 C 0.1709(3) 0.7854(4) 0.8094(2)
H16_7 H 0.1829 0.8638 0.8103
H17_7 H 0.2023 0.7414 0.7893
H18_7 H 0.1318 0.7768 0.7824
N1_7 N 0.16438(14) 0.7460(2) 0.88039(14)
N2_7 N 0.16690(13) 0.7437(2) 0.99129(14)
C33_8 C 0.82470(16) 0.8077(3) 0.56313(18)
H13_8 H 0.8130 0.8836 0.5619
C34_8 C 0.85199(18) 0.6397(3) 0.60029(19)
H14_8 H 0.8622 0.5793 0.6299
C35_8 C 0.85080(16) 0.6375(3) 0.53155(18)
H15_8 H 0.8601 0.5760 0.5043
C36_8 C 0.8291(3) 0.7854(4) 0.6906(2)
H16_8 H 0.8171 0.8638 0.6897
H17_8 H 0.7977 0.7414 0.7107
H18_8 H 0.8682 0.7768 0.7176
C37_8 C 0.82732(19) 0.7817(3) 0.43613(19)
H19_8 H 0.8174 0.7172 0.4063
H20_8 H 0.7933 0.8356 0.4296
C38_8 C 0.8855(2) 0.8352(4) 0.4163(2)
H21_8 H 0.8801 0.8587 0.3688
H22_8 H 0.8950 0.9000 0.4451
H23_8 H 0.9191 0.7817 0.4220
N1_8 N 0.83562(14) 0.7460(2) 0.61961(14)
N2_8 N 0.83310(13) 0.7437(2) 0.50871(14)
loop_
_geom_bond_atom_site_label_1
_geom_bond_atom_site_label_2
_geom_bond_site_symmetry_1
_geom_bond_site_symmetry_2
C21 C20 1_555 1_555
H8 C21 1_555 1_555
H9 C22 1_555 1_555
C30 O12 1_555 1_555
O13 C30 1_555 1_555
C20 C30 1_555 1_555
C21 C22 1_555 1_555
Co4 O17 1_555 1_555
O9 C29 1_555 1_555
O10 Co2 1_555 1_555
O15 Co2 1_555 1_555
O16 C31 1_555 1_555
O17 C32 1_555 1_555
O19 Co2 1_555 1_555
O20 Co4 1_555 1_555
C17 C18 1_555 1_555
C18 C19 1_555 1_555
C19 H7 1_555 1_555
C23 C17 1_555 1_555
C24 C23 1_555 1_555
C25 C24 1_555 1_555
H10 C25 1_555 1_555
C26 C25 1_555 1_555
C27 C26 1_555 1_555
H11 C27 1_555 1_555
C28 C23 1_555 1_555
H12 C28 1_555 1_555
C29 O10 1_555 1_555
C31 O15 1_555 1_555
C32 O20 1_555 1_555
Na2 O10 1_555 1_555
C18 C29 1_555 1_555
C24 C31 1_555 1_555
C26 C32 1_555 1_555
C27 C28 1_555 1_555
Co1 O2 1_555 1_555
Na1 O2 1_555 1_555
O1 C13 1_555 1_555
O2 C13 1_555 1_555
O5 Co1 1_555 1_555
O6 C15 1_555 1_555
O7 C16 1_555 1_555
O8 C16 1_555 1_555
C1 C2 1_555 1_555
C2 C3 1_555 1_555
C3 H1 1_555 1_555
C7 C1 1_555 1_555
C8 C7 1_555 1_555
C9 C8 1_555 1_555
H4 C9 1_555 1_555
C10 C9 1_555 1_555
C11 C10 1_555 1_555
H5 C11 1_555 1_555
C12 C7 1_555 1_555
H6 C12 1_555 1_555
C13 C2 1_555 1_555
C15 O5 1_555 1_555
C16 C10 1_555 1_555
Co3 O7 1_555 1_555
O11 Na1 1_555 1_555
O18 Co1 1_555 1_555
O8 Co3 1_555 1_555
C8 C15 1_555 1_555
C11 C12 1_555 1_555
O3 C14 1_555 1_555
O4 C14 1_555 1_555
C5 C4 1_555 1_555
H2 C5 1_555 1_555
H3 C6 1_555 1_555
C14 C4 1_555 1_555
C5 C6 1_555 1_555
Co4_2 O17_2 1_555 1_555
O9_2 C29_2 1_555 1_555
O10_2 Co2_2 1_555 1_555
O15_2 Co2_2 1_555 1_555
O16_2 C31_2 1_555 1_555
O17_2 C32_2 1_555 1_555
O19_2 Co2_2 1_555 1_555
O20_2 Co4_2 1_555 1_555
C17_2 C18_2 1_555 1_555
C18_2 C19_2 1_555 1_555
C19_2 H7_2 1_555 1_555
C20_2 C19_2 1_555 1_555
C21_2 C20_2 1_555 1_555
H8_2 C21_2 1_555 1_555
C22_2 C17_2 1_555 1_555
H9_2 C22_2 1_555 1_555
C23_2 C17_2 1_555 1_555
C24_2 C23_2 1_555 1_555
C25_2 C24_2 1_555 1_555
H10_2 C25_2 1_555 1_555
C26_2 C25_2 1_555 1_555
C27_2 C26_2 1_555 1_555
H11_2 C27_2 1_555 1_555
C28_2 C23_2 1_555 1_555
H12_2 C28_2 1_555 1_555
C29_2 O10_2 1_555 1_555
C30_2 O12_2 1_555 1_555
C31_2 O15_2 1_555 1_555
C32_2 O20_2 1_555 1_555
Na2 O10_2 1_555 1_555
O14 C30_2 1_555 1_555
C18_2 C29_2 1_555 1_555
C20_2 C30_2 1_555 1_555
C21_2 C22_2 1_555 1_555
C24_2 C31_2 1_555 1_555
C26_2 C32_2 1_555 1_555
C27_2 C28_2 1_555 1_555
Co1_2 O11 1_555 1_555
O1_2 C13_2 1_555 1_555
O11 C13_2 1_555 1_555
O3_2 C14_2 1_555 1_555
O4_2 C14_2 1_555 1_555
O5_2 Co1_2 1_555 1_555
O6_2 C15_2 1_555 1_555
O7_2 C16_2 1_555 1_555
O8_2 C16_2 1_555 1_555
C1_2 C2_2 1_555 1_555
C2_2 C3_2 1_555 1_555
C3_2 H1_2 1_555 1_555
C4_2 C3_2 1_555 1_555
C5_2 C4_2 1_555 1_555
H2_2 C5_2 1_555 1_555
C6_2 C1_2 1_555 1_555
H3_2 C6_2 1_555 1_555
C7_2 C1_2 1_555 1_555
C8_2 C7_2 1_555 1_555
C9_2 C8_2 1_555 1_555
H4_2 C9_2 1_555 1_555
C10_2 C9_2 1_555 1_555
C11_2 C10_2 1_555 1_555
H5_2 C11_2 1_555 1_555
C12_2 C7_2 1_555 1_555
H6_2 C12_2 1_555 1_555
C13_2 C2_2 1_555 1_555
C14_2 C4_2 1_555 1_555
C15_2 O5_2 1_555 1_555
C16_2 C10_2 1_555 1_555
Co3_2 O7_2 1_555 1_555
O18_2 Co1_2 1_555 1_555
O8_2 Co3_2 1_555 1_555
C5_2 C6_2 1_555 1_555
C8_2 C15_2 1_555 1_555
C11_2 C12_2 1_555 1_555
Co3_2 O2_2 1_555 1_555
Na1_2 O2_2 1_555 1_555
O1_3 C13_3 1_555 1_555
O2_2 C13_3 1_555 1_555
O5_3 Co3_2 1_555 1_555
O6_3 C15_3 1_555 1_555
O21_2 C16_3 1_555 1_555
C1_3 C2_3 1_555 1_555
C2_3 C3_3 1_555 1_555
C7_3 C1_3 1_555 1_555
C8_3 C7_3 1_555 1_555
C9_3 C8_3 1_555 1_555
H4_3 C9_3 1_555 1_555
C10_3 C9_3 1_555 1_555
C11_3 C10_3 1_555 1_555
H5_3 C11_3 1_555 1_555
C12_3 C7_3 1_555 1_555
H6_3 C12_3 1_555 1_555
C13_3 C2_3 1_555 1_555
C15_3 O5_3 1_555 1_555
C16_3 C10_3 1_555 1_555
O12_3 Co3_2 1_555 1_555
O14_2 Na1_2 1_555 1_555
C30_3 O12_3 1_555 1_555
C8_3 C15_3 1_555 1_555
C11_3 C12_3 1_555 1_555
C5_3 C4_3 1_555 1_555
H2_3 C5_3 1_555 1_555
H3_3 C6_3 1_555 1_555
Na2_2 O4_3 1_555 1_555
C5_3 C6_3 1_555 1_555
O11_2 Na1_3 1_555 1_555
O13_2 Na1_3 1_555 1_555
C21_3 C20_3 1_555 1_555
H8_3 C21_3 1_555 1_555
H9_3 C22_3 1_555 1_555
C21_3 C22_3 1_555 1_555
O3_3 C14_3 1_555 1_555
Co4_2 O3_3 1_555 1_555
O9_3 C29_3 1_555 1_555
O10_3 Co4_2 1_555 1_555
O15_3 Co4_2 1_555 1_555
O16_3 C31_3 1_555 1_555
C17_3 C18_3 1_555 1_555
C18_3 C19_3 1_555 1_555
C23_3 C17_3 1_555 1_555
C24_3 C23_3 1_555 1_555
C25_3 C24_3 1_555 1_555
H10_3 C25_3 1_555 1_555
C26_3 C25_3 1_555 1_555
C27_3 C26_3 1_555 1_555
H11_3 C27_3 1_555 1_555
C28_3 C23_3 1_555 1_555
H12_3 C28_3 1_555 1_555
C29_3 O10_3 1_555 1_555
C31_3 O15_3 1_555 1_555
C32_3 O22_2 1_555 1_555
Na2_3 O10_3 1_555 1_555
C18_3 C29_3 1_555 1_555
C24_3 C31_3 1_555 1_555
C26_3 C32_3 1_555 1_555
C27_3 C28_3 1_555 1_555
O3_4 C14_4 1_555 1_555
Co4 O3_4 1_555 1_555
O9_4 C29_4 1_555 1_555
O10_4 Co4 1_555 1_555
O15_4 Co4 1_555 1_555
O16_4 C31_4 1_555 1_555
C17_4 C18_4 1_555 1_555
C18_4 C19_4 1_555 1_555
C20_4 C19_4 1_555 1_555
C21_4 C20_4 1_555 1_555
H8_4 C21_4 1_555 1_555
C22_4 C17_4 1_555 1_555
H9_4 C22_4 1_555 1_555
C23_4 C17_4 1_555 1_555
C24_4 C23_4 1_555 1_555
C25_4 C24_4 1_555 1_555
H10_4 C25_4 1_555 1_555
C26_4 C25_4 1_555 1_555
C27_4 C26_4 1_555 1_555
H11_4 C27_4 1_555 1_555
C28_4 C23_4 1_555 1_555
H12_4 C28_4 1_555 1_555
C29_4 O10_4 1_555 1_555
C31_4 O15_4 1_555 1_555
C32_4 O22 1_555 1_555
Na2_2 O10_4 1_555 1_555
C18_4 C29_4 1_555 1_555
C21_4 C22_4 1_555 1_555
C24_4 C31_4 1_555 1_555
C26_4 C32_4 1_555 1_555
C27_4 C28_4 1_555 1_555
Co3 O11_2 1_555 1_555
O1_4 C13_4 1_555 1_555
O11_2 C13_4 1_555 1_555
O5_4 Co3 1_555 1_555
O6_4 C15_4 1_555 1_555
O21 C16_4 1_555 1_555
C1_4 C2_4 1_555 1_555
C2_4 C3_4 1_555 1_555
C4_4 C3_4 1_555 1_555
C5_4 C4_4 1_555 1_555
H2_4 C5_4 1_555 1_555
C6_4 C1_4 1_555 1_555
H3_4 C6_4 1_555 1_555
C7_4 C1_4 1_555 1_555
C8_4 C7_4 1_555 1_555
C9_4 C8_4 1_555 1_555
H4_4 C9_4 1_555 1_555
C10_4 C9_4 1_555 1_555
C11_4 C10_4 1_555 1_555
H5_4 C11_4 1_555 1_555
C12_4 C7_4 1_555 1_555
H6_4 C12_4 1_555 1_555
C13_4 C2_4 1_555 1_555
C15_4 O5_4 1_555 1_555
C16_4 C10_4 1_555 1_555
Na2_3 O4_4 1_555 1_555
O12_4 Co3 1_555 1_555
C30_4 O12_4 1_555 1_555
C5_4 C6_4 1_555 1_555
C8_4 C15_4 1_555 1_555
C11_4 C12_4 1_555 1_555
C33 H13 1_555 1_555
C34 H14 1_555 1_555
C35 C34 1_555 1_555
H15 C35 1_555 1_555
C36 H16 1_555 1_555
H17 C36 1_555 1_555
H18 C36 1_555 1_555
N1 C33 1_555 1_555
N2 C33 1_555 1_555
C34 N1 1_555 1_555
C35 N2 1_555 1_555
C36 N1 1_555 1_555
C37 H19 1_555 1_555
H20 C37 1_555 1_555
C38 C37 1_555 1_555
H21 C38 1_555 1_555
H22 C38 1_555 1_555
H23 C38 1_555 1_555
C33_2 H13_2 1_555 1_555
C34_2 H14_2 1_555 1_555
C35_2 C34_2 1_555 1_555
H15_2 C35_2 1_555 1_555
C36_2 H16_2 1_555 1_555
H17_2 C36_2 1_555 1_555
H18_2 C36_2 1_555 1_555
C37_2 H19_2 1_555 1_555
H20_2 C37_2 1_555 1_555
C38_2 C37_2 1_555 1_555
H21_2 C38_2 1_555 1_555
H22_2 C38_2 1_555 1_555
H23_2 C38_2 1_555 1_555
N1_2 C33_2 1_555 1_555
N2_2 C33_2 1_555 1_555
C34_2 N1_2 1_555 1_555
C35_2 N2_2 1_555 1_555
C36_2 N1_2 1_555 1_555
C37_2 N2_2 1_555 1_555
C33_3 H13_3 1_555 1_555
C34_3 H14_3 1_555 1_555
C35_3 C34_3 1_555 1_555
H15_3 C35_3 1_555 1_555
C36_3 H16_3 1_555 1_555
H17_3 C36_3 1_555 1_555
H18_3 C36_3 1_555 1_555
N1_3 C33_3 1_555 1_555
N2_3 C33_3 1_555 1_555
C34_3 N1_3 1_555 1_555
C35_3 N2_3 1_555 1_555
C36_3 N1_3 1_555 1_555
C37_3 H19_3 1_555 1_555
H20_3 C37_3 1_555 1_555
C38_3 C37_3 1_555 1_555
H21_3 C38_3 1_555 1_555
H22_3 C38_3 1_555 1_555
H23_3 C38_3 1_555 1_555
C33_4 H13_4 1_555 1_555
C34_4 H14_4 1_555 1_555
C35_4 C34_4 1_555 1_555
H15_4 C35_4 1_555 1_555
C36_4 H16_4 1_555 1_555
H17_4 C36_4 1_555 1_555
H18_4 C36_4 1_555 1_555
C37_4 H19_4 1_555 1_555
H20_4 C37_4 1_555 1_555
C38_4 C37_4 1_555 1_555
H21_4 C38_4 1_555 1_555
H22_4 C38_4 1_555 1_555
H23_4 C38_4 1_555 1_555
N1_4 C33_4 1_555 1_555
N2_4 C33_4 1_555 1_555
C34_4 N1_4 1_555 1_555
C35_4 N2_4 1_555 1_555
C36_4 N1_4 1_555 1_555
C37_4 N2_4 1_555 1_555
C37_5 H19_5 1_555 1_555
H20_5 C37_5 1_555 1_555
C38_5 C37_5 1_555 1_555
H21_5 C38_5 1_555 1_555
H22_5 C38_5 1_555 1_555
H23_5 C38_5 1_555 1_555
C33_5 H13_5 1_555 1_555
C34_5 H14_5 1_555 1_555
C35_5 C34_5 1_555 1_555
H15_5 C35_5 1_555 1_555
C36_5 H16_5 1_555 1_555
H17_5 C36_5 1_555 1_555
H18_5 C36_5 1_555 1_555
N1_5 C33_5 1_555 1_555
N2_5 C33_5 1_555 1_555
C34_5 N1_5 1_555 1_555
C35_5 N2_5 1_555 1_555
C36_5 N1_5 1_555 1_555
C33_6 H13_6 1_555 1_555
C34_6 H14_6 1_555 1_555
C35_6 C34_6 1_555 1_555
H15_6 C35_6 1_555 1_555
C36_6 H16_6 1_555 1_555
H17_6 C36_6 1_555 1_555
H18_6 C36_6 1_555 1_555
C37_6 H19_6 1_555 1_555
H20_6 C37_6 1_555 1_555
C38_6 C37_6 1_555 1_555
H21_6 C38_6 1_555 1_555
H22_6 C38_6 1_555 1_555
H23_6 C38_6 1_555 1_555
N1_6 C33_6 1_555 1_555
N2_6 C33_6 1_555 1_555
C34_6 N1_6 1_555 1_555
C35_6 N2_6 1_555 1_555
C36_6 N1_6 1_555 1_555
C37_6 N2_6 1_555 1_555
C37_7 H19_7 1_555 1_555
H20_7 C37_7 1_555 1_555
C38_7 C37_7 1_555 1_555
H21_7 C38_7 1_555 1_555
H22_7 C38_7 1_555 1_555
H23_7 C38_7 1_555 1_555
C33_7 H13_7 1_555 1_555
C34_7 H14_7 1_555 1_555
C35_7 C34_7 1_555 1_555
H15_7 C35_7 1_555 1_555
C36_7 H16_7 1_555 1_555
H17_7 C36_7 1_555 1_555
H18_7 C36_7 1_555 1_555
N1_7 C33_7 1_555 1_555
N2_7 C33_7 1_555 1_555
C34_7 N1_7 1_555 1_555
C35_7 N2_7 1_555 1_555
C36_7 N1_7 1_555 1_555
C33_8 H13_8 1_555 1_555
C34_8 H14_8 1_555 1_555
C35_8 C34_8 1_555 1_555
H15_8 C35_8 1_555 1_555
C36_8 H16_8 1_555 1_555
H17_8 C36_8 1_555 1_555
H18_8 C36_8 1_555 1_555
C37_8 H19_8 1_555 1_555
H20_8 C37_8 1_555 1_555
C38_8 C37_8 1_555 1_555
H21_8 C38_8 1_555 1_555
H22_8 C38_8 1_555 1_555
H23_8 C38_8 1_555 1_555
N1_8 C33_8 1_555 1_555
N2_8 C33_8 1_555 1_555
C34_8 N1_8 1_555 1_555
C35_8 N2_8 1_555 1_555
C36_8 N1_8 1_555 1_555
C37_8 N2_8 1_555 1_555

#END
