
###############################################################################
#
# This file contains modified crystal structure data generated from the
# MOF subset of the Cambridge Structural Database (CSD) v543 
# hosted by the Cambridge Crystallographic Data Centre (CCDC).
#
# This work is licensed under the Creative Commons
# Attribution-NonCommercial-ShareAlike 4.0 International License.
# To view a copy of this license, visit
# http://creativecommons.org/licenses/by-nc-sa/4.0/
# or send a letter to
# Creative Commons, PO Box 1866, Mountain View, CA 94042, USA.
#
# CIF created using the CSD Python API on 29 September 2022
# The structure has been converted into the P1 space group
# The structure has a 3D framework
# The original CSD entry HAFXOE is in the cubic crystal system
# The original CSD entry HAFXOE is in a Sohncke space group
# The framework has been calculated to contain at least 10.0% void space
# The void calculation uses a probe of radius 1.32A, grid spacing 0.4
# The framework is charged, counterions have been retained in the structure
#
###############################################################################

data_HAFXOE
_chemical_formula_moiety         '(C144 H96 N24 Na4 O48 Ru4 Zn4 2-)n'
_symmetry_cell_setting           triclinic
_symmetry_space_group_name_H-M   'P 1'
_symmetry_Int_Tables_number      1
_space_group_name_Hall           'P 1'
loop_
_symmetry_equiv_pos_site_id
_symmetry_equiv_pos_as_xyz
1 x,y,z
_cell_length_a                   15.75499(19)
_cell_length_b                   15.75499(19)
_cell_length_c                   15.75499(19)
_cell_angle_alpha                90
_cell_angle_beta                 90
_cell_angle_gamma                90
_cell_volume                     3910.7
loop_
_atom_site_label
_atom_site_type_symbol
_atom_site_fract_x
_atom_site_fract_y
_atom_site_fract_z
O5 O 0.1090(5) 0.0891(4) 0.2293(4)
C3 C 0.1237(6) 0.0137(6) 0.2538(7)
Ru3 Ru 0.10244(5) 0.10244(5) 0.10244(5)
Na1 Na 0.1535(3) 0.8465(3) 0.3465(3)
O2 O 0.0263(4) 0.6063(4) 0.3867(5)
O3 O 0.1288(5) 0.6985(5) 0.3611(6)
O4 O 0.0078(5) 0.8275(5) 0.3663(6)
C2 C 0.0557(7) 0.6813(6) 0.3737(7)
O6 O 0.1133(5) 0.9737(4) 0.1063(4)
O7 O 0.1389(6) 0.8712(5) 0.1985(5)
O8 O 0.1337(6) 0.9922(5) 0.3275(5)
C4 C 0.1263(7) 0.9443(7) 0.1813(6)
O9 O 0.2707(4) 0.8910(5) 0.5891(4)
O10 O 0.3937(4) 0.8867(5) 0.4737(4)
O11 O 0.3015(5) 0.8611(6) 0.3712(5)
O12 O 0.1725(5) 0.8663(6) 0.4922(5)
C5 C 0.2462(7) 0.8763(6) 0.5137(6)
C6 C 0.3187(6) 0.8737(7) 0.4443(7)
Ru2 Ru 0.39756(5) 0.89756(5) 0.60244(5)
Ru1 Ru 0.89756(5) 0.60244(5) 0.39756(5)
O1 O 0.9109(4) 0.7293(4) 0.3910(5)
C1 C 0.9863(6) 0.7538(7) 0.3763(6)
O13 O 0.8910(5) 0.5891(4) 0.2707(4)
O14 O 0.7707(4) 0.6090(5) 0.4109(4)
O15 O 0.8867(5) 0.4737(4) 0.3937(4)
O16 O 0.8937(4) 0.6133(5) 0.5263(4)
O9_2 O 0.2293(4) 0.1090(5) 0.0891(4)
C5_2 C 0.2538(7) 0.1237(6) 0.0137(6)
O16_2 O 0.6063(4) 0.3867(5) 0.0263(4)
Ru1_2 Ru 0.60244(5) 0.39756(5) 0.89756(5)
Na1_2 Na 0.3465(3) 0.1535(3) 0.8465(3)
O1_2 O 0.5891(4) 0.2707(4) 0.8910(5)
O2_2 O 0.4737(4) 0.3937(4) 0.8867(5)
O3_2 O 0.3712(5) 0.3015(5) 0.8611(6)
O4_2 O 0.4922(5) 0.1725(5) 0.8663(6)
C1_2 C 0.5137(6) 0.2462(7) 0.8763(6)
C2_2 C 0.4443(7) 0.3187(6) 0.8737(7)
O6_2 O 0.3867(5) 0.0263(4) 0.6063(4)
O7_2 O 0.3611(6) 0.1288(5) 0.6985(5)
O8_2 O 0.3663(6) 0.0078(5) 0.8275(5)
C4_2 C 0.3737(7) 0.0557(7) 0.6813(6)
O10_2 O 0.1063(4) 0.1133(5) 0.9737(4)
O11_2 O 0.1985(5) 0.1389(6) 0.8712(5)
O12_2 O 0.3275(5) 0.1337(6) 0.9922(5)
C6_2 C 0.1813(6) 0.1263(7) 0.9443(7)
O13_2 O 0.6090(5) 0.4109(4) 0.7707(4)
O14_2 O 0.7293(4) 0.3910(5) 0.9109(4)
O15_2 O 0.6133(5) 0.5263(4) 0.8937(4)
O5_2 O 0.3910(5) 0.9109(4) 0.7293(4)
C3_2 C 0.3763(6) 0.9863(6) 0.7538(7)
Na1_3 Na 0.6535(3) 0.6535(3) 0.6535(3)
O1_3 O 0.4109(4) 0.7707(4) 0.6090(5)
O2_3 O 0.5263(4) 0.8937(4) 0.6133(5)
O3_3 O 0.6288(5) 0.8015(5) 0.6389(6)
O4_3 O 0.5078(5) 0.6725(5) 0.6337(6)
C1_3 C 0.4863(6) 0.7462(7) 0.6237(6)
C2_3 C 0.5557(7) 0.8187(6) 0.6263(7)
O7_3 O 0.6389(6) 0.6288(5) 0.8015(5)
O8_3 O 0.6337(6) 0.5078(5) 0.6725(5)
C3_3 C 0.6237(6) 0.4863(6) 0.7462(7)
C4_3 C 0.6263(7) 0.5557(7) 0.8187(6)
O11_3 O 0.8015(5) 0.6389(6) 0.6288(5)
O12_3 O 0.6725(5) 0.6337(6) 0.5078(5)
C5_3 C 0.7462(7) 0.6237(6) 0.4863(6)
C6_3 C 0.8187(6) 0.6263(7) 0.5557(7)
O1_4 O 0.0891(4) 0.2293(4) 0.1090(5)
C1_4 C 0.0137(6) 0.2538(7) 0.1237(6)
Na1_4 Na 0.8465(3) 0.3465(3) 0.1535(3)
O2_4 O 0.9737(4) 0.1063(4) 0.1133(5)
O3_4 O 0.8712(5) 0.1985(5) 0.1389(6)
O4_4 O 0.9922(5) 0.3275(5) 0.1337(6)
C2_4 C 0.9443(7) 0.1813(6) 0.1263(7)
O7_4 O 0.8611(6) 0.3712(5) 0.3015(5)
O8_4 O 0.8663(6) 0.4922(5) 0.1725(5)
C3_4 C 0.8763(6) 0.5137(6) 0.2462(7)
C4_4 C 0.8737(7) 0.4443(7) 0.3187(6)
O11_4 O 0.6985(5) 0.3611(6) 0.1288(5)
O12_4 O 0.8275(5) 0.3663(6) 0.0078(5)
C6_4 C 0.6813(6) 0.3737(7) 0.0557(7)
C5_4 C 0.7538(7) 0.3763(6) 0.9863(6)
Zn1 Zn 0.62487(9) 0.12487(9) 0.37513(9)
N1 N 0.7598(5) 0.1100(7) 0.3693(6)
C7 C 0.8149(8) 0.1744(9) 0.3619(8)
H1 H 0.7947 0.2299 0.3604
C8 C 0.9015(9) 0.1597(12) 0.3564(10)
H2 H 0.9388 0.2053 0.3523
C9 C 0.9319(8) 0.0800(13) 0.3568(10)
H3 H 0.9898 0.0698 0.3512
C10 C 0.8753(9) 0.0133(10) 0.3658(9)
C11 C 0.7892(7) 0.0317(8) 0.3715(7)
N3 N 0.6307(6) 0.2598(5) 0.3900(7)
N4 N 0.6175(6) 0.1415(6) 0.5088(5)
C17 C 0.6381(8) 0.3149(8) 0.3256(9)
H9 H 0.6396 0.2947 0.2701
C18 C 0.6436(10) 0.4015(9) 0.3403(12)
H10 H 0.6477 0.4388 0.2947
C19 C 0.6432(10) 0.4319(8) 0.4200(13)
H11 H 0.6488 0.4898 0.4302
C20 C 0.6342(9) 0.3753(9) 0.4867(10)
H12 H 0.632 0.3944 0.5425
C21 C 0.6285(7) 0.2892(7) 0.4683(8)
C22 C 0.6202(7) 0.2239(8) 0.5363(7)
C23 C 0.6163(9) 0.2419(10) 0.6217(8)
H13 H 0.6207 0.2978 0.6402
C24 C 0.6059(11) 0.1765(13) 0.6807(8)
H14 H 0.602 0.1884 0.7384
C25 C 0.6015(11) 0.0947(13) 0.6520(8)
H15 H 0.5948 0.0498 0.6898
C26 C 0.6071(9) 0.0799(9) 0.5656(7)
H16 H 0.6035 0.0242 0.5463
N5 N 0.6100(7) 0.1307(6) 0.2402(5)
N6 N 0.4912(5) 0.1175(6) 0.3585(6)
C27 C 0.6744(9) 0.1381(8) 0.1851(8)
H17 H 0.7299 0.1396 0.2053
C28 C 0.6597(12) 0.1436(10) 0.0985(9)
H18 H 0.7053 0.1477 0.0612
C29 C 0.5800(13) 0.1432(10) 0.0681(8)
H19 H 0.5698 0.1488 0.0102
C30 C 0.5133(10) 0.1342(9) 0.1247(9)
H20 H 0.4575 0.132 0.1056
C31 C 0.5317(8) 0.1285(7) 0.2108(7)
C32 C 0.4637(7) 0.1202(7) 0.2761(8)
C33 C 0.3783(8) 0.1163(9) 0.2581(10)
H21 H 0.3598 0.1207 0.2022
C34 C 0.3193(8) 0.1059(11) 0.3235(13)
H22 H 0.2616 0.102 0.3116
C35 C 0.3480(8) 0.1015(11) 0.4053(13)
H23 H 0.3102 0.0948 0.4502
C36 C 0.4344(7) 0.1071(9) 0.4201(9)
H24 H 0.4537 0.1035 0.4758
N2 N 0.6415(6) 0.9912(5) 0.3825(6)
H4 H 0.8944 0.9575 0.368
C12 C 0.7239(8) 0.9637(7) 0.3798(7)
C13 C 0.7419(10) 0.8783(8) 0.3837(9)
H5 H 0.7978 0.8598 0.3793
C14 C 0.6765(13) 0.8193(8) 0.3941(11)
H6 H 0.6884 0.7616 0.398
C15 C 0.5947(13) 0.8480(8) 0.3985(11)
H7 H 0.5498 0.8102 0.4052
C16 C 0.5799(9) 0.9344(7) 0.3929(9)
H8 H 0.5242 0.9537 0.3965
N6_2 N 0.0088(5) 0.8825(6) 0.8585(6)
H20_2 H 0.0425 0.868 0.6056
C32_2 C 0.0363(7) 0.8798(7) 0.7761(8)
C33_2 C 0.1217(8) 0.8837(9) 0.7581(10)
H21_2 H 0.1402 0.8793 0.7022
C34_2 C 0.1807(8) 0.8941(11) 0.8235(13)
H22_2 H 0.2384 0.898 0.8116
C35_2 C 0.1520(8) 0.8985(11) 0.9053(13)
H23_2 H 0.1898 0.9052 0.9502
C36_2 C 0.0656(7) 0.8929(9) 0.9201(9)
H24_2 H 0.0463 0.8965 0.9758
N2_2 N 0.8585(6) 0.0088(5) 0.8825(6)
H4_2 H 0.6056 0.0425 0.868
C12_2 C 0.7761(8) 0.0363(7) 0.8798(7)
C13_2 C 0.7581(10) 0.1217(8) 0.8837(9)
H5_2 H 0.7022 0.1402 0.8793
C14_2 C 0.8235(13) 0.1807(8) 0.8941(11)
H6_2 H 0.8116 0.2384 0.898
C15_2 C 0.9053(13) 0.1520(8) 0.8985(11)
H7_2 H 0.9502 0.1898 0.9052
C16_2 C 0.9201(9) 0.0656(7) 0.8929(9)
H8_2 H 0.9758 0.0463 0.8965
N4_2 N 0.8825(6) 0.8585(6) 0.0088(5)
H12_2 H 0.868 0.6056 0.0425
C22_2 C 0.8798(7) 0.7761(8) 0.0363(7)
C23_2 C 0.8837(9) 0.7581(10) 0.1217(8)
H13_2 H 0.8793 0.7022 0.1402
C24_2 C 0.8941(11) 0.8235(13) 0.1807(8)
H14_2 H 0.898 0.8116 0.2384
C25_2 C 0.8985(11) 0.9053(13) 0.1520(8)
H15_2 H 0.9052 0.9502 0.1898
C26_2 C 0.8929(9) 0.9201(9) 0.0656(7)
H16_2 H 0.8965 0.9758 0.0463
Zn1_2 Zn 0.87513(9) 0.87513(9) 0.87513(9)
N1_2 N 0.7402(5) 0.8900(7) 0.8693(6)
C7_2 C 0.6851(8) 0.8256(9) 0.8619(8)
H1_2 H 0.7053 0.7701 0.8604
C8_2 C 0.5985(9) 0.8403(12) 0.8564(10)
H2_2 H 0.5612 0.7947 0.8523
C9_2 C 0.5681(8) 0.9200(13) 0.8568(10)
H3_2 H 0.5102 0.9302 0.8512
C10_2 C 0.6247(9) 0.9867(10) 0.8658(9)
C11_2 C 0.7108(7) 0.9683(8) 0.8715(7)
N3_2 N 0.8693(6) 0.7402(5) 0.8900(7)
C17_2 C 0.8619(8) 0.6851(8) 0.8256(9)
H9_2 H 0.8604 0.7053 0.7701
C18_2 C 0.8564(10) 0.5985(9) 0.8403(12)
H10_2 H 0.8523 0.5612 0.7947
C19_2 C 0.8568(10) 0.5681(8) 0.9200(13)
H11_2 H 0.8512 0.5102 0.9302
C20_2 C 0.8658(9) 0.6247(9) 0.9867(10)
C21_2 C 0.8715(7) 0.7108(7) 0.9683(8)
N5_2 N 0.8900(7) 0.8693(6) 0.7402(5)
C27_2 C 0.8256(9) 0.8619(8) 0.6851(8)
H17_2 H 0.7701 0.8604 0.7053
C28_2 C 0.8403(12) 0.8564(10) 0.5985(9)
H18_2 H 0.7947 0.8523 0.5612
C29_2 C 0.9200(13) 0.8568(10) 0.5681(8)
H19_2 H 0.9302 0.8512 0.5102
C30_2 C 0.9867(10) 0.8658(9) 0.6247(9)
C31_2 C 0.9683(8) 0.8715(7) 0.7108(7)
Zn1_3 Zn 0.12487(9) 0.37513(9) 0.62487(9)
N1_3 N 0.2598(5) 0.3900(7) 0.6307(6)
N2_3 N 0.1415(6) 0.5088(5) 0.6175(6)
C7_3 C 0.3149(8) 0.3256(9) 0.6381(8)
H1_3 H 0.2947 0.2701 0.6396
C8_3 C 0.4015(9) 0.3403(12) 0.6436(10)
H2_3 H 0.4388 0.2947 0.6477
C9_3 C 0.4319(8) 0.4200(13) 0.6432(10)
H3_3 H 0.4898 0.4302 0.6488
C10_3 C 0.3753(9) 0.4867(10) 0.6342(9)
H4_3 H 0.3944 0.5425 0.632
C11_3 C 0.2892(7) 0.4683(8) 0.6285(7)
C12_3 C 0.2239(8) 0.5363(7) 0.6202(7)
C13_3 C 0.2419(10) 0.6217(8) 0.6163(9)
H5_3 H 0.2978 0.6402 0.6207
C14_3 C 0.1765(13) 0.6807(8) 0.6059(11)
H6_3 H 0.1884 0.7384 0.602
C15_3 C 0.0947(13) 0.6520(8) 0.6015(11)
H7_3 H 0.0498 0.6898 0.5948
C16_3 C 0.0799(9) 0.5656(7) 0.6071(9)
H8_3 H 0.0242 0.5463 0.6035
N3_3 N 0.1307(6) 0.2402(5) 0.6100(7)
N4_3 N 0.1175(6) 0.3585(6) 0.4912(5)
C17_3 C 0.1381(8) 0.1851(8) 0.6744(9)
H9_3 H 0.1396 0.2053 0.7299
C18_3 C 0.1436(10) 0.0985(9) 0.6597(12)
H10_3 H 0.1477 0.0612 0.7053
C19_3 C 0.1432(10) 0.0681(8) 0.5800(13)
H11_3 H 0.1488 0.0102 0.5698
C20_3 C 0.1342(9) 0.1247(9) 0.5133(10)
H12_3 H 0.132 0.1056 0.4575
C21_3 C 0.1285(7) 0.2108(7) 0.5317(8)
C22_3 C 0.1202(7) 0.2761(8) 0.4637(7)
C23_3 C 0.1163(9) 0.2581(10) 0.3783(8)
H13_3 H 0.1207 0.2022 0.3598
C24_3 C 0.1059(11) 0.3235(13) 0.3193(8)
H14_3 H 0.102 0.3116 0.2616
C25_3 C 0.1015(11) 0.4053(13) 0.3480(8)
H15_3 H 0.0948 0.4502 0.3102
C26_3 C 0.1071(9) 0.4201(9) 0.4344(7)
H16_3 H 0.1035 0.4758 0.4537
N5_3 N 0.1100(7) 0.3693(6) 0.7598(5)
C27_3 C 0.1744(9) 0.3619(8) 0.8149(8)
H17_3 H 0.2299 0.3604 0.7947
C28_3 C 0.1597(12) 0.3564(10) 0.9015(9)
H18_3 H 0.2053 0.3523 0.9388
C29_3 C 0.0800(13) 0.3568(10) 0.9319(8)
H19_3 H 0.0698 0.3512 0.9898
C30_3 C 0.0133(10) 0.3658(9) 0.8753(9)
C31_3 C 0.0317(8) 0.3715(7) 0.7892(7)
N6_3 N 0.9912(5) 0.3825(6) 0.6415(6)
H20_3 H 0.9575 0.368 0.8944
C32_3 C 0.9637(7) 0.3798(7) 0.7239(8)
C33_3 C 0.8783(8) 0.3837(9) 0.7419(10)
H21_3 H 0.8598 0.3793 0.7978
C34_3 C 0.8193(8) 0.3941(11) 0.6765(13)
H22_3 H 0.7616 0.398 0.6884
C35_3 C 0.8480(8) 0.3985(11) 0.5947(13)
H23_3 H 0.8102 0.4052 0.5498
C36_3 C 0.9344(7) 0.3929(9) 0.5799(9)
H24_3 H 0.9537 0.3965 0.5242
Zn1_4 Zn 0.37513(9) 0.62487(9) 0.12487(9)
N1_4 N 0.2402(5) 0.6100(7) 0.1307(6)
N2_4 N 0.3585(6) 0.4912(5) 0.1175(6)
C7_4 C 0.1851(8) 0.6744(9) 0.1381(8)
H1_4 H 0.2053 0.7299 0.1396
C8_4 C 0.0985(9) 0.6597(12) 0.1436(10)
H2_4 H 0.0612 0.7053 0.1477
C9_4 C 0.0681(8) 0.5800(13) 0.1432(10)
H3_4 H 0.0102 0.5698 0.1488
C10_4 C 0.1247(9) 0.5133(10) 0.1342(9)
H4_4 H 0.1056 0.4575 0.132
C11_4 C 0.2108(7) 0.5317(8) 0.1285(7)
C12_4 C 0.2761(8) 0.4637(7) 0.1202(7)
C13_4 C 0.2581(10) 0.3783(8) 0.1163(9)
H5_4 H 0.2022 0.3598 0.1207
C14_4 C 0.3235(13) 0.3193(8) 0.1059(11)
H6_4 H 0.3116 0.2616 0.102
C15_4 C 0.4053(13) 0.3480(8) 0.1015(11)
H7_4 H 0.4502 0.3102 0.0948
C16_4 C 0.4201(9) 0.4344(7) 0.1071(9)
H8_4 H 0.4758 0.4537 0.1035
N3_4 N 0.3693(6) 0.7598(5) 0.1100(7)
C17_4 C 0.3619(8) 0.8149(8) 0.1744(9)
H9_4 H 0.3604 0.7947 0.2299
C18_4 C 0.3564(10) 0.9015(9) 0.1597(12)
H10_4 H 0.3523 0.9388 0.2053
C19_4 C 0.3568(10) 0.9319(8) 0.0800(13)
H11_4 H 0.3512 0.9898 0.0698
C20_4 C 0.3658(9) 0.8753(9) 0.0133(10)
C21_4 C 0.3715(7) 0.7892(7) 0.0317(8)
N5_4 N 0.3900(7) 0.6307(6) 0.2598(5)
N6_4 N 0.5088(5) 0.6175(6) 0.1415(6)
C27_4 C 0.3256(9) 0.6381(8) 0.3149(8)
H17_4 H 0.2701 0.6396 0.2947
C28_4 C 0.3403(12) 0.6436(10) 0.4015(9)
H18_4 H 0.2947 0.6477 0.4388
C29_4 C 0.4200(13) 0.6432(10) 0.4319(8)
H19_4 H 0.4302 0.6488 0.4898
C30_4 C 0.4867(10) 0.6342(9) 0.3753(9)
H20_4 H 0.5425 0.632 0.3944
C31_4 C 0.4683(8) 0.6285(7) 0.2892(7)
C32_4 C 0.5363(7) 0.6202(7) 0.2239(8)
C33_4 C 0.6217(8) 0.6163(9) 0.2419(10)
H21_4 H 0.6402 0.6207 0.2978
C34_4 C 0.6807(8) 0.6059(11) 0.1765(13)
H22_4 H 0.7384 0.602 0.1884
C35_4 C 0.6520(8) 0.6015(11) 0.0947(13)
H23_4 H 0.6898 0.5948 0.0498
C36_4 C 0.5656(7) 0.6071(9) 0.0799(9)
H24_4 H 0.5463 0.6035 0.0242
N4_4 N 0.3825(6) 0.6415(6) 0.9912(5)
H12_4 H 0.368 0.8944 0.9575
C22_4 C 0.3798(7) 0.7239(8) 0.9637(7)
C23_4 C 0.3837(9) 0.7419(10) 0.8783(8)
H13_4 H 0.3793 0.7978 0.8598
C24_4 C 0.3941(11) 0.6765(13) 0.8193(8)
H14_4 H 0.398 0.6884 0.7616
C25_4 C 0.3985(11) 0.5947(13) 0.8480(8)
H15_4 H 0.4052 0.5498 0.8102
C26_4 C 0.3929(9) 0.5799(9) 0.9344(7)
H16_4 H 0.3965 0.5242 0.9537
loop_
_geom_bond_atom_site_label_1
_geom_bond_atom_site_label_2
_geom_bond_site_symmetry_1
_geom_bond_site_symmetry_2
O5 C3 1_555 1_555
Ru3 O5 1_555 1_555
Na1 O3 1_555 1_555
O3 C2 1_555 1_555
O4 Na1 1_555 1_555
C2 O2 1_555 1_555
O6 C4 1_555 1_555
O7 Na1 1_555 1_555
O8 Na1 1_555 1_555
C4 O7 1_555 1_555
O9 C5 1_555 1_555
O10 C6 1_555 1_555
O11 Na1 1_555 1_555
O12 Na1 1_555 1_555
C5 O12 1_555 1_555
C6 O11 1_555 1_555
Ru2 O9 1_555 1_555
O10 Ru2 1_555 1_555
C5 C6 1_555 1_555
Ru1 O1 1_555 1_555
O1 C1 1_555 1_555
O13 Ru1 1_555 1_555
O14 Ru1 1_555 1_555
O15 Ru1 1_555 1_555
O16 Ru1 1_555 1_555
O9_2 C5_2 1_555 1_555
Ru3 O9_2 1_555 1_555
Ru1_2 O1_2 1_555 1_555
Na1_2 O3_2 1_555 1_555
O1_2 C1_2 1_555 1_555
O2_2 Ru1_2 1_555 1_555
O3_2 C2_2 1_555 1_555
O4_2 Na1_2 1_555 1_555
C1_2 O4_2 1_555 1_555
C2_2 O2_2 1_555 1_555
O6_2 C4_2 1_555 1_555
O7_2 Na1_2 1_555 1_555
O8_2 Na1_2 1_555 1_555
C4_2 O7_2 1_555 1_555
O10_2 C6_2 1_555 1_555
O11_2 Na1_2 1_555 1_555
O12_2 Na1_2 1_555 1_555
C6_2 O11_2 1_555 1_555
O13_2 Ru1_2 1_555 1_555
O14_2 Ru1_2 1_555 1_555
O15_2 Ru1_2 1_555 1_555
C1_2 C2_2 1_555 1_555
O5_2 C3_2 1_555 1_555
Ru2 O5_2 1_555 1_555
Ru2 O1_3 1_555 1_555
Na1_3 O3_3 1_555 1_555
O1_3 C1_3 1_555 1_555
O2_3 Ru2 1_555 1_555
O3_3 C2_3 1_555 1_555
O4_3 Na1_3 1_555 1_555
C1_3 O4_3 1_555 1_555
C2_3 O2_3 1_555 1_555
O13_2 C3_3 1_555 1_555
O15_2 C4_3 1_555 1_555
O7_3 Na1_3 1_555 1_555
O8_3 Na1_3 1_555 1_555
C3_3 O8_3 1_555 1_555
C4_3 O7_3 1_555 1_555
O14 C5_3 1_555 1_555
O16 C6_3 1_555 1_555
O11_3 Na1_3 1_555 1_555
O12_3 Na1_3 1_555 1_555
C5_3 O12_3 1_555 1_555
C6_3 O11_3 1_555 1_555
C1_3 C2_3 1_555 1_555
C3_3 C4_3 1_555 1_555
C5_3 C6_3 1_555 1_555
Ru3 O1_4 1_555 1_555
O1_4 C1_4 1_555 1_555
Na1_4 O3_4 1_555 1_555
O3_4 C2_4 1_555 1_555
O4_4 Na1_4 1_555 1_555
C2_4 O2_4 1_555 1_555
O13 C3_4 1_555 1_555
O15 C4_4 1_555 1_555
O7_4 Na1_4 1_555 1_555
O8_4 Na1_4 1_555 1_555
C3_4 O8_4 1_555 1_555
C4_4 O7_4 1_555 1_555
O16_2 C6_4 1_555 1_555
O11_4 Na1_4 1_555 1_555
O12_4 Na1_4 1_555 1_555
C6_4 O11_4 1_555 1_555
C3_4 C4_4 1_555 1_555
O14_2 C5_4 1_555 1_555
Zn1 N1 1_555 1_555
N1 C7 1_555 1_555
C7 H1 1_555 1_555
C8 C7 1_555 1_555
H2 C8 1_555 1_555
C9 C8 1_555 1_555
H3 C9 1_555 1_555
C10 C9 1_555 1_555
C11 N1 1_555 1_555
N3 Zn1 1_555 1_555
N4 Zn1 1_555 1_555
C17 N3 1_555 1_555
H9 C17 1_555 1_555
C18 C17 1_555 1_555
H10 C18 1_555 1_555
C19 C18 1_555 1_555
H11 C19 1_555 1_555
C20 C19 1_555 1_555
H12 C20 1_555 1_555
C21 N3 1_555 1_555
C22 N4 1_555 1_555
C23 C22 1_555 1_555
H13 C23 1_555 1_555
C24 C23 1_555 1_555
H14 C24 1_555 1_555
C25 C24 1_555 1_555
H15 C25 1_555 1_555
C26 N4 1_555 1_555
H16 C26 1_555 1_555
N5 Zn1 1_555 1_555
N6 Zn1 1_555 1_555
C27 N5 1_555 1_555
H17 C27 1_555 1_555
C28 C27 1_555 1_555
H18 C28 1_555 1_555
C29 C28 1_555 1_555
H19 C29 1_555 1_555
C30 C29 1_555 1_555
H20 C30 1_555 1_555
C31 N5 1_555 1_555
C32 N6 1_555 1_555
C33 C32 1_555 1_555
H21 C33 1_555 1_555
C34 C33 1_555 1_555
H22 C34 1_555 1_555
C35 C34 1_555 1_555
H23 C35 1_555 1_555
C36 N6 1_555 1_555
H24 C36 1_555 1_555
C10 C11 1_555 1_555
C20 C21 1_555 1_555
C21 C22 1_555 1_555
C25 C26 1_555 1_555
C30 C31 1_555 1_555
C31 C32 1_555 1_555
C35 C36 1_555 1_555
C12 N2 1_555 1_555
C13 C12 1_555 1_555
H5 C13 1_555 1_555
C14 C13 1_555 1_555
H6 C14 1_555 1_555
C15 C14 1_555 1_555
H7 C15 1_555 1_555
C16 N2 1_555 1_555
H8 C16 1_555 1_555
C15 C16 1_555 1_555
C32_2 N6_2 1_555 1_555
C33_2 C32_2 1_555 1_555
H21_2 C33_2 1_555 1_555
C34_2 C33_2 1_555 1_555
H22_2 C34_2 1_555 1_555
C35_2 C34_2 1_555 1_555
H23_2 C35_2 1_555 1_555
C36_2 N6_2 1_555 1_555
H24_2 C36_2 1_555 1_555
C35_2 C36_2 1_555 1_555
C12_2 N2_2 1_555 1_555
C13_2 C12_2 1_555 1_555
H5_2 C13_2 1_555 1_555
C14_2 C13_2 1_555 1_555
H6_2 C14_2 1_555 1_555
C15_2 C14_2 1_555 1_555
H7_2 C15_2 1_555 1_555
C16_2 N2_2 1_555 1_555
H8_2 C16_2 1_555 1_555
C15_2 C16_2 1_555 1_555
C22_2 N4_2 1_555 1_555
C23_2 C22_2 1_555 1_555
H13_2 C23_2 1_555 1_555
C24_2 C23_2 1_555 1_555
H14_2 C24_2 1_555 1_555
C25_2 C24_2 1_555 1_555
H15_2 C25_2 1_555 1_555
C26_2 N4_2 1_555 1_555
H16_2 C26_2 1_555 1_555
C25_2 C26_2 1_555 1_555
Zn1_2 N1_2 1_555 1_555
N1_2 C7_2 1_555 1_555
C7_2 H1_2 1_555 1_555
C8_2 C7_2 1_555 1_555
H2_2 C8_2 1_555 1_555
C9_2 C8_2 1_555 1_555
H3_2 C9_2 1_555 1_555
C10_2 C9_2 1_555 1_555
C11_2 N1_2 1_555 1_555
N3_2 Zn1_2 1_555 1_555
C17_2 N3_2 1_555 1_555
H9_2 C17_2 1_555 1_555
C18_2 C17_2 1_555 1_555
H10_2 C18_2 1_555 1_555
C19_2 C18_2 1_555 1_555
H11_2 C19_2 1_555 1_555
C20_2 C19_2 1_555 1_555
C21_2 N3_2 1_555 1_555
N5_2 Zn1_2 1_555 1_555
C27_2 N5_2 1_555 1_555
H17_2 C27_2 1_555 1_555
C28_2 C27_2 1_555 1_555
H18_2 C28_2 1_555 1_555
C29_2 C28_2 1_555 1_555
H19_2 C29_2 1_555 1_555
C30_2 C29_2 1_555 1_555
C31_2 N5_2 1_555 1_555
C10_2 C11_2 1_555 1_555
C20_2 C21_2 1_555 1_555
C30_2 C31_2 1_555 1_555
Zn1_3 N1_3 1_555 1_555
N1_3 C7_3 1_555 1_555
N2_3 Zn1_3 1_555 1_555
C7_3 H1_3 1_555 1_555
C8_3 C7_3 1_555 1_555
H2_3 C8_3 1_555 1_555
C9_3 C8_3 1_555 1_555
H3_3 C9_3 1_555 1_555
C10_3 C9_3 1_555 1_555
H4_3 C10_3 1_555 1_555
C11_3 N1_3 1_555 1_555
C12_3 N2_3 1_555 1_555
C13_3 C12_3 1_555 1_555
H5_3 C13_3 1_555 1_555
C14_3 C13_3 1_555 1_555
H6_3 C14_3 1_555 1_555
C15_3 C14_3 1_555 1_555
H7_3 C15_3 1_555 1_555
C16_3 N2_3 1_555 1_555
H8_3 C16_3 1_555 1_555
N3_3 Zn1_3 1_555 1_555
N4_3 Zn1_3 1_555 1_555
C17_3 N3_3 1_555 1_555
H9_3 C17_3 1_555 1_555
C18_3 C17_3 1_555 1_555
H10_3 C18_3 1_555 1_555
C19_3 C18_3 1_555 1_555
H11_3 C19_3 1_555 1_555
C20_3 C19_3 1_555 1_555
H12_3 C20_3 1_555 1_555
C21_3 N3_3 1_555 1_555
C22_3 N4_3 1_555 1_555
C23_3 C22_3 1_555 1_555
H13_3 C23_3 1_555 1_555
C24_3 C23_3 1_555 1_555
H14_3 C24_3 1_555 1_555
C25_3 C24_3 1_555 1_555
H15_3 C25_3 1_555 1_555
C26_3 N4_3 1_555 1_555
H16_3 C26_3 1_555 1_555
N5_3 Zn1_3 1_555 1_555
C27_3 N5_3 1_555 1_555
H17_3 C27_3 1_555 1_555
C28_3 C27_3 1_555 1_555
H18_3 C28_3 1_555 1_555
C29_3 C28_3 1_555 1_555
H19_3 C29_3 1_555 1_555
C30_3 C29_3 1_555 1_555
C31_3 N5_3 1_555 1_555
C10_3 C11_3 1_555 1_555
C11_3 C12_3 1_555 1_555
C15_3 C16_3 1_555 1_555
C20_3 C21_3 1_555 1_555
C21_3 C22_3 1_555 1_555
C25_3 C26_3 1_555 1_555
C30_3 C31_3 1_555 1_555
C32_3 N6_3 1_555 1_555
C33_3 C32_3 1_555 1_555
H21_3 C33_3 1_555 1_555
C34_3 C33_3 1_555 1_555
H22_3 C34_3 1_555 1_555
C35_3 C34_3 1_555 1_555
H23_3 C35_3 1_555 1_555
C36_3 N6_3 1_555 1_555
H24_3 C36_3 1_555 1_555
C35_3 C36_3 1_555 1_555
Zn1_4 N1_4 1_555 1_555
N1_4 C7_4 1_555 1_555
N2_4 Zn1_4 1_555 1_555
C7_4 H1_4 1_555 1_555
C8_4 C7_4 1_555 1_555
H2_4 C8_4 1_555 1_555
C9_4 C8_4 1_555 1_555
H3_4 C9_4 1_555 1_555
C10_4 C9_4 1_555 1_555
H4_4 C10_4 1_555 1_555
C11_4 N1_4 1_555 1_555
C12_4 N2_4 1_555 1_555
C13_4 C12_4 1_555 1_555
H5_4 C13_4 1_555 1_555
C14_4 C13_4 1_555 1_555
H6_4 C14_4 1_555 1_555
C15_4 C14_4 1_555 1_555
H7_4 C15_4 1_555 1_555
C16_4 N2_4 1_555 1_555
H8_4 C16_4 1_555 1_555
N3_4 Zn1_4 1_555 1_555
C17_4 N3_4 1_555 1_555
H9_4 C17_4 1_555 1_555
C18_4 C17_4 1_555 1_555
H10_4 C18_4 1_555 1_555
C19_4 C18_4 1_555 1_555
H11_4 C19_4 1_555 1_555
C20_4 C19_4 1_555 1_555
C21_4 N3_4 1_555 1_555
N5_4 Zn1_4 1_555 1_555
N6_4 Zn1_4 1_555 1_555
C27_4 N5_4 1_555 1_555
H17_4 C27_4 1_555 1_555
C28_4 C27_4 1_555 1_555
H18_4 C28_4 1_555 1_555
C29_4 C28_4 1_555 1_555
H19_4 C29_4 1_555 1_555
C30_4 C29_4 1_555 1_555
H20_4 C30_4 1_555 1_555
C31_4 N5_4 1_555 1_555
C32_4 N6_4 1_555 1_555
C33_4 C32_4 1_555 1_555
H21_4 C33_4 1_555 1_555
C34_4 C33_4 1_555 1_555
H22_4 C34_4 1_555 1_555
C35_4 C34_4 1_555 1_555
H23_4 C35_4 1_555 1_555
C36_4 N6_4 1_555 1_555
H24_4 C36_4 1_555 1_555
C10_4 C11_4 1_555 1_555
C11_4 C12_4 1_555 1_555
C15_4 C16_4 1_555 1_555
C20_4 C21_4 1_555 1_555
C30_4 C31_4 1_555 1_555
C31_4 C32_4 1_555 1_555
C35_4 C36_4 1_555 1_555
C22_4 N4_4 1_555 1_555
C23_4 C22_4 1_555 1_555
H13_4 C23_4 1_555 1_555
C24_4 C23_4 1_555 1_555
H14_4 C24_4 1_555 1_555
C25_4 C24_4 1_555 1_555
H15_4 C25_4 1_555 1_555
C26_4 N4_4 1_555 1_555
H16_4 C26_4 1_555 1_555
C25_4 C26_4 1_555 1_555

#END
