
###############################################################################
#
# This file contains modified crystal structure data generated from the
# MOF subset of the Cambridge Structural Database (CSD) v543 
# hosted by the Cambridge Crystallographic Data Centre (CCDC).
#
# This work is licensed under the Creative Commons
# Attribution-NonCommercial-ShareAlike 4.0 International License.
# To view a copy of this license, visit
# http://creativecommons.org/licenses/by-nc-sa/4.0/
# or send a letter to
# Creative Commons, PO Box 1866, Mountain View, CA 94042, USA.
#
# CIF created using the CSD Python API on 29 September 2022
# The structure has been converted into the P1 space group
# The structure has a 3D framework
# The original CSD entry HAGTIV is in the rhombohedral crystal system
# The framework has been calculated to contain at least 10.0% void space
# The void calculation uses a probe of radius 1.32A, grid spacing 0.4
#
###############################################################################

data_HAGTIV
_chemical_formula_moiety         '(C396 H270 Co11 N54)n'
_symmetry_cell_setting           triclinic
_symmetry_space_group_name_H-M   'P 1'
_symmetry_Int_Tables_number      1
_space_group_name_Hall           'P 1'
loop_
_symmetry_equiv_pos_site_id
_symmetry_equiv_pos_as_xyz
1 x,y,z
_cell_length_a                   32.6467(11)
_cell_length_b                   32.6467(11)
_cell_length_c                   9.2525(4)
_cell_angle_alpha                90
_cell_angle_beta                 90
_cell_angle_gamma                120
_cell_volume                     8540.21
loop_
_atom_site_label
_atom_site_type_symbol
_atom_site_fract_x
_atom_site_fract_y
_atom_site_fract_z
C34 C 0.54400(9) 0.08673(9) 0.0676(3)
H20 H 0.5347 0.0550 0.0795
C35 C 0.55753(9) 0.11620(10) 0.1876(3)
H21 H 0.5576 0.1039 0.2782
C36 C 0.57096(9) 0.16355(10) 0.1748(3)
C37 C 0.57103(9) 0.18082(10) 0.0379(3)
H22 H 0.5801 0.2125 0.0267
C39 C 0.58387(11) 0.19476(11) 0.3067(3)
H24 H 0.5978 0.1841 0.3780
H25 H 0.6061 0.2268 0.2802
H26 H 0.5559 0.1932 0.3459
Co1 Co 0.5000 -0.0000 0.5000
C1 C 0.58084(8) 0.02491(8) 0.2941(3)
C2 C 0.59315(9) 0.00912(9) 0.1648(3)
H1 H 0.6232 0.0220 0.1245
N4 N 0.46680(7) 0.00208(7) 0.6789(2)
N5 N 0.55833(7) 0.05679(7) 0.5708(2)
C25 C 0.44687(9) 0.02774(9) 0.8870(3)
H17 H 0.4498 0.0451 0.9698
C26 C 0.48417(8) 0.03497(8) 0.7897(3)
C27 C 0.53053(8) 0.07218(8) 0.8012(3)
C28 C 0.56511(8) 0.08167(8) 0.6979(3)
C29 C 0.61378(8) 0.11801(9) 0.7112(3)
H18 H 0.6270 0.1396 0.7867
C30 C 0.63662(9) 0.11508(9) 0.5946(3)
H19 H 0.6686 0.1343 0.5740
C31 C 0.60244(8) 0.07662(8) 0.5076(3)
C32 C 0.61334(8) 0.06169(8) 0.3808(3)
C33 C 0.54414(8) 0.10384(9) 0.9308(3)
C38 C 0.55785(9) 0.15161(9) 0.9170(3)
H23 H 0.5582 0.1640 0.8263
C40 C 0.66402(9) 0.08698(9) 0.3357(3)
C41 C 0.68028(9) 0.12001(9) 0.2257(3)
H27 H 0.6594 0.1262 0.1747
C42 C 0.69693(9) 0.07928(9) 0.4078(3)
H28 H 0.6874 0.0573 0.4823
N6 N 0.76009(10) 0.13683(7) 0.2612(2)
C43 C 0.72789(13) 0.14374(9) 0.1927(3)
H29 H 0.7382 0.1659 0.1183
C44 C 0.74403(13) 0.10479(9) 0.3674(3)
H30 H 0.7657 0.0994 0.4169
Co3 Co 0.8333 0.1667 0.1667
N7 N 0.47016(7) 0.04341(12) 0.4055(2)
Co1_2 Co 0.5000 1.0000 0.5000
N1 N 0.53320(7) 0.99792(7) 0.3211(2)
N2 N 0.44167(7) 0.94321(7) 0.4292(2)
N3 N 0.23991(10) 0.86317(7) 0.7388(2)
C3 C 0.55313(9) 0.97226(9) 0.1130(3)
H2 H 0.5502 0.9549 0.0302
C4 C 0.51583(8) 0.96503(8) 0.2103(3)
C5 C 0.46947(8) 0.92782(8) 0.1988(3)
C6 C 0.43489(8) 0.91833(8) 0.3021(3)
C7 C 0.38622(8) 0.88199(9) 0.2888(3)
H3 H 0.3730 0.8604 0.2133
C8 C 0.36338(9) 0.88492(9) 0.4054(3)
H4 H 0.3314 0.8657 0.4260
C9 C 0.39756(8) 0.92338(8) 0.4924(3)
C10 C 0.38666(8) 0.93831(8) 0.6192(3)
C11 C 0.45586(8) 0.89616(9) 0.0692(3)
C16 C 0.44215(9) 0.84839(9) 0.0830(3)
H8 H 0.4418 0.8360 0.1737
C18 C 0.33598(9) 0.91302(9) 0.6643(3)
C19 C 0.31972(9) 0.87999(9) 0.7743(3)
H12 H 0.3406 0.8738 0.8253
C20 C 0.27211(13) 0.85626(9) 0.8073(3)
H13 H 0.2618 0.8341 0.8817
C21 C 0.25597(13) 0.89521(9) 0.6326(3)
H14 H 0.2343 0.9006 0.5831
C22 C 0.30307(9) 0.92072(9) 0.5922(3)
H15 H 0.3126 0.9427 0.5177
C23 C 0.41916(8) 0.97509(8) 0.7059(3)
C24 C 0.40685(9) 0.99088(9) 0.8352(3)
H16 H 0.3768 0.9780 0.8755
Co2 Co 0.1667 0.8333 0.8333
N8 N 0.52984(7) 0.95659(12) 0.5945(2)
Co1_3 Co 0.0000 0.5000 0.5000
N1_2 N 0.00208(7) 0.53528(10) 0.3211(2)
N2_2 N 0.05679(7) 0.49846(10) 0.4292(2)
N3_2 N 0.13683(7) 0.37674(12) 0.7388(2)
C3_2 C 0.02774(9) 0.58087(13) 0.1130(3)
H2_2 H 0.0451 0.5953 0.0302
C4_2 C 0.03497(8) 0.55080(11) 0.2103(3)
C5_2 C 0.07218(8) 0.54165(11) 0.1988(3)
C6_2 C 0.08167(8) 0.51656(11) 0.3021(3)
C7_2 C 0.11801(9) 0.50423(12) 0.2888(3)
H3_2 H 0.1396 0.5126 0.2133
C8_2 C 0.11508(9) 0.47846(13) 0.4054(3)
H4_2 H 0.1343 0.4657 0.4260
C9_2 C 0.07662(8) 0.47418(11) 0.4924(3)
C10_2 C 0.06169(8) 0.44835(11) 0.6192(3)
C11_2 C 0.10384(9) 0.55970(12) 0.0692(3)
C16_2 C 0.15161(9) 0.59376(13) 0.0830(3)
H8_2 H 0.1640 0.6058 0.1737
C18_2 C 0.08698(9) 0.42296(13) 0.6643(3)
C19_2 C 0.12001(9) 0.43973(13) 0.7743(3)
H12_2 H 0.1262 0.4668 0.8253
C20_2 C 0.14374(9) 0.41585(16) 0.8073(3)
H13_2 H 0.1659 0.4277 0.8817
C21_2 C 0.10479(9) 0.36076(16) 0.6326(3)
H14_2 H 0.0994 0.3337 0.5831
C22_2 C 0.07928(9) 0.38235(13) 0.5922(3)
H15_2 H 0.0573 0.3699 0.5177
C23_2 C 0.02491(8) 0.44407(11) 0.7059(3)
C24_2 C 0.00912(9) 0.41597(13) 0.8352(3)
H16_2 H 0.0220 0.3988 0.8755
Co2_2 Co 0.1667 0.3333 0.8333
N8_2 N 0.04341(12) 0.57324(14) 0.5945(2)
Co1_4 Co 1.0000 0.5000 0.5000
C1_2 C 0.97509(8) 0.55593(11) 0.2941(3)
C2_2 C 0.99088(9) 0.58403(13) 0.1648(3)
H1_2 H 0.9780 0.6012 0.1245
N4_2 N 0.99792(7) 0.46472(10) 0.6789(2)
N5_2 N 0.94321(7) 0.50154(10) 0.5708(2)
C25_2 C 0.97226(9) 0.41913(13) 0.8870(3)
H17_2 H 0.9549 0.4047 0.9698
C26_2 C 0.96503(8) 0.44920(11) 0.7897(3)
C27_2 C 0.92782(8) 0.45835(11) 0.8012(3)
C28_2 C 0.91833(8) 0.48344(11) 0.6979(3)
C29_2 C 0.88199(9) 0.49577(12) 0.7112(3)
H18_2 H 0.8604 0.4874 0.7867
C30_2 C 0.88492(9) 0.52154(13) 0.5946(3)
H19_2 H 0.8657 0.5343 0.5740
C31_2 C 0.92338(8) 0.52582(11) 0.5076(3)
C32_2 C 0.93831(8) 0.55165(11) 0.3808(3)
C33_2 C 0.89616(9) 0.44030(12) 0.9308(3)
C38_2 C 0.84839(9) 0.40624(13) 0.9170(3)
H23_2 H 0.8360 0.3942 0.8263
C40_2 C 0.91302(9) 0.57704(13) 0.3357(3)
C41_2 C 0.87999(9) 0.56027(13) 0.2257(3)
H27_2 H 0.8738 0.5332 0.1747
C42_2 C 0.92072(9) 0.61765(13) 0.4078(3)
H28_2 H 0.9427 0.6301 0.4823
N6_2 N 0.86317(7) 0.62326(12) 0.2612(2)
C43_2 C 0.85626(9) 0.58415(16) 0.1927(3)
H29_2 H 0.8341 0.5723 0.1183
C44_2 C 0.89521(9) 0.63924(16) 0.3674(3)
H30_2 H 0.9006 0.6663 0.4169
Co3_2 Co 0.8333 0.6667 0.1667
N7_2 N 0.95659(12) 0.42676(14) 0.4055(2)
Co1_5 Co 0.5000 0.5000 0.5000
N1_3 N 0.46472(10) 0.46680(7) 0.3211(2)
N2_3 N 0.50154(10) 0.55833(7) 0.4292(2)
N3_3 N 0.62326(12) 0.76009(10) 0.7388(2)
C1_3 C 0.44407(11) 0.41916(8) 0.2941(3)
C2_3 C 0.41597(13) 0.40685(9) 0.1648(3)
H1_3 H 0.3988 0.3768 0.1245
C3_3 C 0.41913(13) 0.44687(9) 0.1130(3)
H2_3 H 0.4047 0.4498 0.0302
C4_3 C 0.44920(11) 0.48417(8) 0.2103(3)
C5_3 C 0.45835(11) 0.53053(8) 0.1988(3)
C6_3 C 0.48344(11) 0.56511(8) 0.3021(3)
C7_3 C 0.49577(12) 0.61378(8) 0.2888(3)
H3_3 H 0.4874 0.6270 0.2133
C8_3 C 0.52154(13) 0.63662(9) 0.4054(3)
H4_3 H 0.5343 0.6686 0.4260
C9_3 C 0.52582(11) 0.60244(8) 0.4924(3)
C10_3 C 0.55165(11) 0.61334(8) 0.6192(3)
C11_3 C 0.44030(12) 0.54414(8) 0.0692(3)
C16_3 C 0.40624(13) 0.55785(9) 0.0830(3)
H8_3 H 0.3942 0.5582 0.1737
C18_3 C 0.57704(13) 0.66402(9) 0.6643(3)
C19_3 C 0.56027(13) 0.68028(9) 0.7743(3)
H12_3 H 0.5332 0.6594 0.8253
C20_3 C 0.58415(16) 0.72789(13) 0.8073(3)
H13_3 H 0.5723 0.7382 0.8817
C21_3 C 0.63924(16) 0.74403(13) 0.6326(3)
H14_3 H 0.6663 0.7657 0.5831
C22_3 C 0.61765(13) 0.69693(9) 0.5922(3)
H15_3 H 0.6301 0.6874 0.5177
N4_3 N 0.53528(10) 0.53320(7) 0.6789(2)
N5_3 N 0.49846(10) 0.44167(7) 0.5708(2)
C23_3 C 0.55593(11) 0.58084(8) 0.7059(3)
C24_3 C 0.58403(13) 0.59315(9) 0.8352(3)
H16_3 H 0.6012 0.6232 0.8755
C25_3 C 0.58087(13) 0.55313(9) 0.8870(3)
H17_3 H 0.5953 0.5502 0.9698
C26_3 C 0.55080(11) 0.51583(8) 0.7897(3)
C27_3 C 0.54165(11) 0.46947(8) 0.8012(3)
C28_3 C 0.51656(11) 0.43489(8) 0.6979(3)
C29_3 C 0.50423(12) 0.38622(8) 0.7112(3)
H18_3 H 0.5126 0.3730 0.7867
C30_3 C 0.47846(13) 0.36338(9) 0.5946(3)
H19_3 H 0.4657 0.3314 0.5740
C31_3 C 0.47418(11) 0.39756(8) 0.5076(3)
C32_3 C 0.44835(11) 0.38666(8) 0.3808(3)
C33_3 C 0.55970(12) 0.45586(8) 0.9308(3)
C38_3 C 0.59376(13) 0.44215(9) 0.9170(3)
H23_3 H 0.6058 0.4418 0.8263
C40_3 C 0.42296(13) 0.33598(9) 0.3357(3)
C41_3 C 0.43973(13) 0.31972(9) 0.2257(3)
H27_3 H 0.4668 0.3406 0.1747
C42_3 C 0.38235(13) 0.30307(9) 0.4078(3)
H28_3 H 0.3699 0.3126 0.4823
N6_3 N 0.37674(12) 0.23991(10) 0.2612(2)
C43_3 C 0.41585(16) 0.27211(13) 0.1927(3)
H29_3 H 0.4277 0.2618 0.1183
C44_3 C 0.36076(16) 0.25597(13) 0.3674(3)
H30_3 H 0.3337 0.2343 0.4169
Co2_3 Co 0.6667 0.8333 0.8333
Co3_3 Co 0.3333 0.1667 0.1667
N7_3 N 0.57324(14) 0.52984(7) 0.4055(2)
N8_3 N 0.42676(14) 0.47016(7) 0.5945(2)
N1_4 N 0.19987(7) 0.33125(7) 0.6544(2)
N2_4 N 0.10834(7) 0.27654(7) 0.7625(2)
C1_4 C 0.24751(8) 0.35824(8) 0.6274(3)
C2_4 C 0.25982(9) 0.34245(9) 0.4981(3)
H1_4 H 0.2899 0.3553 0.4578
C3_4 C 0.21980(9) 0.30559(9) 0.4463(3)
H2_4 H 0.2169 0.2882 0.3635
C4_4 C 0.18250(8) 0.29836(8) 0.5436(3)
C5_4 C 0.13614(8) 0.26115(8) 0.5321(3)
C6_4 C 0.10156(8) 0.25166(8) 0.6354(3)
C7_4 C 0.05289(8) 0.21532(9) 0.6221(3)
H3_4 H 0.0397 0.1937 0.5466
C8_4 C 0.03005(9) 0.21825(9) 0.7387(3)
C9_4 C 0.06423(8) 0.25671(8) 0.8257(3)
C10_4 C 0.05333(8) 0.27164(8) 0.9525(3)
C11_4 C 0.12253(8) 0.22949(9) 0.4025(3)
C12 C 0.12267(9) 0.24660(9) 0.2657(3)
H5 H 0.1320 0.2783 0.2538
C13 C 0.10914(9) 0.21713(10) 0.1457(3)
H6 H 0.1091 0.2294 0.0551
C14 C 0.09571(9) 0.16978(10) 0.1585(3)
C15 C 0.09564(9) 0.15251(10) 0.2954(3)
H7 H 0.0866 0.1208 0.3066
C16_4 C 0.10882(9) 0.18172(9) 0.4163(3)
H8_4 H 0.1085 0.1693 0.5070
C17 C 0.08280(11) 0.13857(11) 0.0266(3)
H10 H 0.0606 0.1065 0.0531
C18_4 C 0.00265(9) 0.24635(9) 0.9976(3)
N5_4 N 0.22500(7) 0.39012(7) 0.9041(2)
C30_4 C 0.30329(9) 0.44841(9) 0.9279(3)
H19_4 H 0.3353 0.4676 0.9073
C31_4 C 0.26911(8) 0.40995(8) 0.8409(3)
C32_4 C 0.28001(8) 0.39502(8) 0.7141(3)
C40_4 C 0.33069(9) 0.42031(9) 0.6690(3)
C41_4 C 0.34695(9) 0.45334(9) 0.5590(3)
H27_4 H 0.3261 0.4595 0.5080
C42_4 C 0.36360(9) 0.41261(9) 0.7411(3)
H28_4 H 0.3541 0.3906 0.8156
C43_4 C 0.39456(13) 0.47707(9) 0.5260(3)
H29_4 H 0.4049 0.4992 0.4516
C44_4 C 0.41070(13) 0.43812(9) 0.7007(3)
H30_4 H 0.4324 0.4327 0.7502
N8_4 N 0.19650(7) 0.28993(12) 0.9279(2)
N3_4 N 0.90658(10) 0.19650(7) 0.0721(2)
C19_4 C 0.98639(9) 0.21332(9) 0.1076(3)
C20_4 C 0.93878(13) 0.18959(9) 0.1406(3)
H13_4 H 0.9285 0.1674 0.2150
N3_5 N 0.80350(7) 0.71007(12) 0.0721(2)
C19_5 C 0.78668(9) 0.77306(13) 0.1076(3)
H12_4 H 0.7929 0.8001 0.1586
C20_5 C 0.81041(9) 0.74918(16) 0.1406(3)
H13_5 H 0.8326 0.7610 0.2150
N4_4 N 0.66459(7) 0.79805(10) 0.0122(2)
C23_4 C 0.69158(8) 0.77740(11) 0.0392(3)
C24_4 C 0.67579(9) 0.74930(13) 0.1685(3)
H16_4 H 0.6887 0.7321 0.2088
C25_4 C 0.63893(9) 0.75246(13) 0.2203(3)
H17_4 H 0.6216 0.7380 0.3031
C26_4 C 0.63170(8) 0.78253(11) 0.1230(3)
C27_4 C 0.59449(8) 0.79168(11) 0.1345(3)
C28_4 C 0.58500(8) 0.81677(11) 0.0312(3)
C29_4 C 0.54866(9) 0.82910(12) 0.0445(3)
H18_4 H 0.5271 0.8207 0.1200
C33_4 C 0.56283(9) 0.77363(12) 0.2641(3)
C34_2 C 0.57994(9) 0.79060(13) 0.4009(3)
H20_2 H 0.6117 0.8130 0.4128
C35_2 C 0.55047(10) 0.77466(13) 0.5209(3)
H21_2 H 0.5628 0.7870 0.6115
C36_2 C 0.50312(10) 0.74074(13) 0.5081(3)
C37_2 C 0.48585(10) 0.72354(13) 0.3712(3)
H22_2 H 0.4542 0.7009 0.3600
C38_4 C 0.51506(9) 0.73957(13) 0.2503(3)
H23_4 H 0.5027 0.7275 0.1596
C39_2 C 0.47191(11) 0.72244(16) 0.6400(3)
H24_2 H 0.4826 0.7470 0.7113
H25_2 H 0.4399 0.7126 0.6135
H26_2 H 0.4735 0.6960 0.6792
N1_5 N 0.66875(7) 0.86861(10) 0.6544(2)
N2_5 N 0.72346(7) 0.83179(10) 0.7625(2)
C1_5 C 0.64176(8) 0.88926(11) 0.6274(3)
C2_5 C 0.65755(9) 0.91736(13) 0.4981(3)
H1_5 H 0.6447 0.9345 0.4578
C3_5 C 0.69441(9) 0.91420(13) 0.4463(3)
H2_5 H 0.7118 0.9286 0.3635
C4_5 C 0.70164(8) 0.88413(11) 0.5436(3)
C5_5 C 0.73885(8) 0.87498(11) 0.5321(3)
C6_5 C 0.74834(8) 0.84989(11) 0.6354(3)
C7_5 C 0.78468(9) 0.83756(12) 0.6221(3)
H3_5 H 0.8063 0.8459 0.5466
C8_5 C 0.78175(9) 0.81179(13) 0.7387(3)
H4_4 H 0.8010 0.7990 0.7593
C9_5 C 0.74329(8) 0.80751(11) 0.8257(3)
C10_5 C 0.72836(8) 0.78168(11) 0.9525(3)
C11_5 C 0.77051(9) 0.89303(12) 0.4025(3)
C12_2 C 0.75340(9) 0.87606(13) 0.2657(3)
H5_2 H 0.7217 0.8536 0.2538
C13_2 C 0.78287(10) 0.89200(13) 0.1457(3)
H6_2 H 0.7706 0.8796 0.0551
C14_2 C 0.83022(10) 0.92592(13) 0.1585(3)
C15_2 C 0.84749(10) 0.94312(13) 0.2954(3)
H7_2 H 0.8792 0.9657 0.3066
C16_5 C 0.81828(9) 0.92709(13) 0.4163(3)
H8_5 H 0.8307 0.9391 0.5070
C17_2 C 0.86143(11) 0.94422(16) 0.0266(3)
H10_2 H 0.8935 0.9540 0.0531
C18_5 C 0.75365(9) 0.75629(13) 0.9976(3)
C21_4 C 0.77146(9) 0.69409(16) 0.9659(3)
H14_4 H 0.7661 0.6670 0.9164
C22_4 C 0.74595(9) 0.71568(13) 0.9255(3)
H15_4 H 0.7240 0.7032 0.8510
N5_5 N 0.60988(7) 0.83487(10) 0.9041(2)
C30_5 C 0.55159(9) 0.85487(13) 0.9279(3)
H19_5 H 0.5324 0.8676 0.9073
C31_5 C 0.59005(8) 0.85915(11) 0.8409(3)
C32_5 C 0.60498(8) 0.88498(11) 0.7141(3)
C40_5 C 0.57969(9) 0.91037(13) 0.6690(3)
C41_5 C 0.54666(9) 0.89360(13) 0.5590(3)
H27_5 H 0.5405 0.8665 0.5080
C42_5 C 0.58739(9) 0.95098(13) 0.7411(3)
H28_5 H 0.6094 0.9634 0.8156
C43_5 C 0.52293(9) 0.91748(16) 0.5260(3)
H29_5 H 0.5008 0.9056 0.4516
C44_5 C 0.56188(9) 0.97257(16) 0.7007(3)
H30_5 H 0.5673 0.9996 0.7502
N8_5 N 0.71007(12) 0.90658(14) 0.9279(2)
N3_6 N 0.28993(12) 0.09342(10) 0.0721(2)
C19_6 C 0.22694(13) 0.01361(9) 0.1076(3)
C20_6 C 0.25082(16) 0.06122(13) 0.1406(3)
H13_6 H 0.2390 0.0715 0.2150
N1_6 N 0.13139(10) 0.80013(7) 0.6544(2)
N2_6 N 0.16821(10) 0.89166(7) 0.7625(2)
C1_6 C 0.11074(11) 0.75249(8) 0.6274(3)
C2_6 C 0.08264(13) 0.74018(9) 0.4981(3)
H1_6 H 0.0655 0.7101 0.4578
C3_6 C 0.08580(13) 0.78020(9) 0.4463(3)
H2_6 H 0.0714 0.7831 0.3635
C4_6 C 0.11587(11) 0.81750(8) 0.5436(3)
C5_6 C 0.12502(11) 0.86386(8) 0.5321(3)
C6_6 C 0.15011(11) 0.89844(8) 0.6354(3)
C7_6 C 0.16244(12) 0.94711(8) 0.6221(3)
H3_6 H 0.1541 0.9603 0.5466
C8_6 C 0.18821(13) 0.96995(9) 0.7387(3)
C9_6 C 0.19249(11) 0.93577(8) 0.8257(3)
C10_6 C 0.21832(11) 0.94667(8) 0.9525(3)
C11_6 C 0.10697(12) 0.87747(8) 0.4025(3)
C12_3 C 0.12394(13) 0.87733(9) 0.2657(3)
H5_3 H 0.1464 0.8680 0.2538
C13_3 C 0.10800(13) 0.89086(9) 0.1457(3)
H6_3 H 0.1204 0.8909 0.0551
C14_3 C 0.07408(13) 0.90429(9) 0.1585(3)
C15_3 C 0.05688(13) 0.90436(9) 0.2954(3)
H7_3 H 0.0343 0.9134 0.3066
C16_6 C 0.07291(13) 0.89118(9) 0.4163(3)
H8_6 H 0.0609 0.8915 0.5070
C17_3 C 0.05578(16) 0.91720(11) 0.0266(3)
H10_3 H 0.0460 0.9394 0.0531
C18_6 C 0.24371(13) 0.99735(9) 0.9976(3)
N5_6 N 0.16513(10) 0.77500(7) 0.9041(2)
C30_6 C 0.14513(13) 0.69671(9) 0.9279(3)
H19_6 H 0.1324 0.6647 0.9073
C31_6 C 0.14085(11) 0.73089(8) 0.8409(3)
C32_6 C 0.11502(11) 0.71999(8) 0.7141(3)
C40_6 C 0.08963(13) 0.66931(9) 0.6690(3)
C41_6 C 0.10640(13) 0.65305(9) 0.5590(3)
H27_6 H 0.1335 0.6739 0.5080
C42_6 C 0.04902(13) 0.63640(9) 0.7411(3)
H28_6 H 0.0366 0.6459 0.8156
C43_6 C 0.08252(16) 0.60544(13) 0.5260(3)
H29_6 H 0.0944 0.5951 0.4516
C44_6 C 0.02743(16) 0.58930(13) 0.7007(3)
H30_6 H 0.0004 0.5676 0.7502
N8_6 N 0.09342(14) 0.80350(7) 0.9279(2)
C41_7 C 0.01361(9) 0.78668(9) 0.8924(3)
C43_7 C 0.06122(13) 0.81041(9) 0.8594(3)
H29_7 H 0.0715 0.8326 0.7850
N2_7 N 0.77500(7) 0.60988(7) 0.0959(2)
C8_7 C 0.69671(9) 0.55159(9) 0.0721(3)
H4_5 H 0.6647 0.5324 0.0927
C9_7 C 0.73089(8) 0.59005(8) 0.1591(3)
C10_7 C 0.71999(8) 0.60498(8) 0.2859(3)
C18_7 C 0.66931(9) 0.57969(9) 0.3310(3)
C19_7 C 0.65305(9) 0.54666(9) 0.4410(3)
H12_5 H 0.6739 0.5405 0.4920
C20_7 C 0.60544(13) 0.52293(9) 0.4740(3)
H13_7 H 0.5951 0.5008 0.5484
C21_5 C 0.58930(13) 0.56188(9) 0.2993(3)
H14_5 H 0.5676 0.5673 0.2498
C22_5 C 0.63640(9) 0.58739(9) 0.2589(3)
H15_5 H 0.6459 0.6094 0.1844
N4_5 N 0.80013(7) 0.66875(7) 0.3456(2)
N5_7 N 0.89166(7) 0.72346(7) 0.2375(2)
C23_5 C 0.75249(8) 0.64176(8) 0.3726(3)
C24_5 C 0.74018(9) 0.65755(9) 0.5019(3)
H16_5 H 0.7101 0.6447 0.5422
C25_5 C 0.78020(9) 0.69441(9) 0.5537(3)
H17_5 H 0.7831 0.7118 0.6365
C26_5 C 0.81750(8) 0.70164(8) 0.4564(3)
C27_5 C 0.86386(8) 0.73885(8) 0.4679(3)
C28_5 C 0.89844(8) 0.74834(8) 0.3646(3)
C29_5 C 0.94711(8) 0.78468(9) 0.3779(3)
H18_5 H 0.9603 0.8063 0.4534
C30_7 C 0.96995(9) 0.78175(9) 0.2613(3)
C31_7 C 0.93577(8) 0.74329(8) 0.1743(3)
C32_7 C 0.94667(8) 0.72836(8) 0.0475(3)
C33_5 C 0.87747(8) 0.77051(9) 0.5975(3)
C34_3 C 0.87733(9) 0.75340(9) 0.7343(3)
H20_3 H 0.8680 0.7217 0.7462
C35_3 C 0.89086(9) 0.78287(10) 0.8543(3)
H21_3 H 0.8909 0.7706 0.9449
C36_3 C 0.90429(9) 0.83022(10) 0.8415(3)
C37_3 C 0.90436(9) 0.84749(10) 0.7046(3)
H22_3 H 0.9134 0.8792 0.6934
C38_5 C 0.89118(9) 0.81828(9) 0.5837(3)
H23_5 H 0.8915 0.8307 0.4930
C39_3 C 0.91720(11) 0.86143(11) 0.9734(3)
H25_3 H 0.9394 0.8935 0.9469
C40_7 C 0.99735(9) 0.75365(9) 0.0024(3)
N2_8 N 0.39012(7) 0.16513(10) 0.0959(2)
C8_8 C 0.44841(9) 0.14513(13) 0.0721(3)
H4_6 H 0.4676 0.1324 0.0927
C9_8 C 0.40995(8) 0.14085(11) 0.1591(3)
C10_8 C 0.39502(8) 0.11502(11) 0.2859(3)
C18_8 C 0.42031(9) 0.08963(13) 0.3310(3)
C19_8 C 0.45334(9) 0.10640(13) 0.4410(3)
H12_6 H 0.4595 0.1335 0.4920
C20_8 C 0.47707(9) 0.08252(16) 0.4740(3)
H13_8 H 0.4992 0.0944 0.5484
C21_6 C 0.43812(9) 0.02743(16) 0.2993(3)
H14_6 H 0.4327 0.0004 0.2498
C22_6 C 0.41261(9) 0.04902(13) 0.2589(3)
H15_6 H 0.3906 0.0366 0.1844
N4_6 N 0.33125(7) 0.13139(10) 0.3456(2)
N5_8 N 0.27654(7) 0.16821(10) 0.2375(2)
C23_6 C 0.35824(8) 0.11074(11) 0.3726(3)
C24_6 C 0.34245(9) 0.08264(13) 0.5019(3)
H16_6 H 0.3553 0.0655 0.5422
C25_6 C 0.30559(9) 0.08580(13) 0.5537(3)
H17_6 H 0.2882 0.0714 0.6365
C26_6 C 0.29836(8) 0.11587(11) 0.4564(3)
C27_6 C 0.26115(8) 0.12502(11) 0.4679(3)
C28_6 C 0.25166(8) 0.15011(11) 0.3646(3)
C29_6 C 0.21532(9) 0.16244(12) 0.3779(3)
H18_6 H 0.1937 0.1541 0.4534
C30_8 C 0.21825(9) 0.18821(13) 0.2613(3)
H19_7 H 0.1990 0.2010 0.2407
C31_8 C 0.25671(8) 0.19249(11) 0.1743(3)
C32_8 C 0.27164(8) 0.21832(11) 0.0475(3)
C33_6 C 0.22949(9) 0.10697(12) 0.5975(3)
C34_4 C 0.24660(9) 0.12394(13) 0.7343(3)
H20_4 H 0.2783 0.1464 0.7462
C35_4 C 0.21713(10) 0.10800(13) 0.8543(3)
H21_4 H 0.2294 0.1204 0.9449
C36_4 C 0.16978(10) 0.07408(13) 0.8415(3)
C37_4 C 0.15251(10) 0.05688(13) 0.7046(3)
H22_4 H 0.1208 0.0343 0.6934
C38_6 C 0.18172(9) 0.07291(13) 0.5837(3)
H23_6 H 0.1693 0.0609 0.4930
C39_4 C 0.13857(11) 0.05578(16) 0.9734(3)
H25_4 H 0.1065 0.0460 0.9469
C40_8 C 0.24635(9) 0.24371(13) 0.0024(3)
C42_7 C 0.25405(9) 0.28432(13) 0.0745(3)
H28_7 H 0.2760 0.2968 0.1490
C44_7 C 0.22854(9) 0.30591(16) 0.0341(3)
H30_7 H 0.2339 0.3330 0.0836
N1_7 N 0.33541(7) 0.20195(10) 0.9878(2)
C1_7 C 0.30842(8) 0.22260(11) 0.9608(3)
C2_7 C 0.32421(9) 0.25070(13) 0.8315(3)
H1_7 H 0.3113 0.2679 0.7912
C3_7 C 0.36107(9) 0.24754(13) 0.7797(3)
H2_7 H 0.3784 0.2620 0.6969
C4_7 C 0.36830(8) 0.21747(11) 0.8770(3)
C5_7 C 0.40551(8) 0.20832(11) 0.8655(3)
C6_7 C 0.41500(8) 0.18323(11) 0.9688(3)
C7_7 C 0.45134(9) 0.17090(12) 0.9555(3)
H3_7 H 0.4729 0.1793 0.8800
C11_7 C 0.43717(9) 0.22637(12) 0.7359(3)
C12_4 C 0.42006(9) 0.20940(13) 0.5991(3)
H5_4 H 0.3883 0.1870 0.5872
C13_4 C 0.44953(10) 0.22534(13) 0.4791(3)
H6_4 H 0.4372 0.2130 0.3885
C14_4 C 0.49688(10) 0.25926(13) 0.4919(3)
C15_4 C 0.51415(10) 0.27646(13) 0.6288(3)
H7_4 H 0.5458 0.2991 0.6400
C16_7 C 0.48494(9) 0.26043(13) 0.7497(3)
H8_7 H 0.4973 0.2725 0.8404
C17_4 C 0.52809(11) 0.27756(16) 0.3600(3)
H9 H 0.5174 0.2530 0.2887
H10_4 H 0.5601 0.2874 0.3865
H11 H 0.5265 0.3040 0.3208
C41_8 C 0.21332(9) 0.22694(13) 0.8924(3)
H27_7 H 0.2071 0.1999 0.8414
C43_8 C 0.18959(9) 0.25082(16) 0.8594(3)
H29_8 H 0.1674 0.2390 0.7850
N2_9 N 0.83487(10) 0.22500(7) 0.0959(2)
C8_9 C 0.85487(13) 0.30329(9) 0.0721(3)
H4_7 H 0.8676 0.3353 0.0927
C9_9 C 0.85915(11) 0.26911(8) 0.1591(3)
C10_9 C 0.88498(11) 0.28001(8) 0.2859(3)
C18_9 C 0.91037(13) 0.33069(9) 0.3310(3)
C19_9 C 0.89360(13) 0.34695(9) 0.4410(3)
H12_7 H 0.8665 0.3261 0.4920
C20_9 C 0.91748(16) 0.39456(13) 0.4740(3)
H13_9 H 0.9056 0.4049 0.5484
C21_7 C 0.97257(16) 0.41070(13) 0.2993(3)
H14_7 H 0.9996 0.4324 0.2498
C22_7 C 0.95098(13) 0.36360(9) 0.2589(3)
H15_7 H 0.9634 0.3541 0.1844
N4_7 N 0.86861(10) 0.19987(7) 0.3456(2)
N5_9 N 0.83179(10) 0.10834(7) 0.2375(2)
C23_7 C 0.88926(11) 0.24751(8) 0.3726(3)
C24_7 C 0.91736(13) 0.25982(9) 0.5019(3)
H16_7 H 0.9345 0.2899 0.5422
C25_7 C 0.91420(13) 0.21980(9) 0.5537(3)
H17_7 H 0.9286 0.2169 0.6365
C26_7 C 0.88413(11) 0.18250(8) 0.4564(3)
C27_7 C 0.87498(11) 0.13614(8) 0.4679(3)
C28_7 C 0.84989(11) 0.10156(8) 0.3646(3)
C29_7 C 0.83756(12) 0.05289(8) 0.3779(3)
H18_7 H 0.8459 0.0397 0.4534
C30_9 C 0.81179(13) 0.03005(9) 0.2613(3)
C31_9 C 0.80751(11) 0.06423(8) 0.1743(3)
C32_9 C 0.78168(11) 0.05333(8) 0.0475(3)
C33_7 C 0.89303(12) 0.12253(8) 0.5975(3)
C34_5 C 0.87606(13) 0.12267(9) 0.7343(3)
H20_5 H 0.8536 0.1320 0.7462
C35_5 C 0.89200(13) 0.10914(9) 0.8543(3)
H21_5 H 0.8796 0.1091 0.9449
C36_5 C 0.92592(13) 0.09571(9) 0.8415(3)
C37_5 C 0.94312(13) 0.09564(9) 0.7046(3)
H22_5 H 0.9657 0.0866 0.6934
C38_7 C 0.92709(13) 0.10882(9) 0.5837(3)
H23_7 H 0.9391 0.1085 0.4930
C39_5 C 0.94422(16) 0.08280(11) 0.9734(3)
H25_5 H 0.9540 0.0606 0.9469
C40_9 C 0.75629(13) 0.00265(9) 0.0024(3)
C41_9 C 0.77306(13) 0.98639(9) 0.8924(3)
C43_9 C 0.74918(16) 0.93878(13) 0.8594(3)
H29_9 H 0.7610 0.9285 0.7850
C12_5 C 0.45600(9) 0.91327(9) 0.9324(3)
H5_5 H 0.4653 0.9450 0.9205
C13_5 C 0.44247(9) 0.88380(10) 0.8124(3)
H6_5 H 0.4424 0.8961 0.7218
C14_5 C 0.42904(9) 0.83645(10) 0.8252(3)
C15_5 C 0.42897(9) 0.81918(10) 0.9621(3)
H7_5 H 0.4199 0.7875 0.9733
C17_5 C 0.41613(11) 0.80524(11) 0.6933(3)
H9_2 H 0.4022 0.8159 0.6220
H10_5 H 0.3939 0.7732 0.7198
H11_2 H 0.4441 0.8068 0.6541
C12_6 C 0.08673(9) 0.54273(13) 0.9324(3)
H5_6 H 0.0550 0.5203 0.9205
C13_6 C 0.11620(10) 0.55867(13) 0.8124(3)
H6_6 H 0.1039 0.5463 0.7218
C14_6 C 0.16355(10) 0.59259(13) 0.8252(3)
C15_6 C 0.18082(10) 0.60979(13) 0.9621(3)
H7_6 H 0.2125 0.6324 0.9733
C17_6 C 0.19476(11) 0.61089(16) 0.6933(3)
H9_3 H 0.1841 0.5863 0.6220
H10_6 H 0.2268 0.6207 0.7198
H11_3 H 0.1932 0.6373 0.6541
C34_6 C 0.91327(9) 0.45727(13) 0.0676(3)
H20_6 H 0.9450 0.4797 0.0795
C35_6 C 0.88380(10) 0.44133(13) 0.1876(3)
H21_6 H 0.8961 0.4537 0.2782
C36_6 C 0.83645(10) 0.40741(13) 0.1748(3)
C37_6 C 0.81918(10) 0.39021(13) 0.0379(3)
H22_6 H 0.7875 0.3676 0.0267
C39_6 C 0.80524(11) 0.38911(16) 0.3067(3)
H24_3 H 0.8159 0.4137 0.3780
H25_6 H 0.7732 0.3793 0.2802
H26_3 H 0.8068 0.3627 0.3459
C34_7 C 0.54273(13) 0.45600(9) 0.0676(3)
H20_7 H 0.5203 0.4653 0.0795
C35_7 C 0.55867(13) 0.44247(9) 0.1876(3)
H21_7 H 0.5463 0.4424 0.2782
C36_7 C 0.59259(13) 0.42904(9) 0.1748(3)
C37_7 C 0.60979(13) 0.42897(9) 0.0379(3)
H22_7 H 0.6324 0.4199 0.0267
C39_7 C 0.61089(16) 0.41613(11) 0.3067(3)
H24_4 H 0.5863 0.4022 0.3780
H25_7 H 0.6207 0.3939 0.2802
H26_4 H 0.6373 0.4441 0.3459
C12_7 C 0.45727(13) 0.54400(9) 0.9324(3)
H5_7 H 0.4797 0.5347 0.9205
C13_7 C 0.44133(13) 0.55753(9) 0.8124(3)
H6_7 H 0.4537 0.5576 0.7218
C14_7 C 0.40741(13) 0.57096(9) 0.8252(3)
C15_7 C 0.39021(13) 0.57103(9) 0.9621(3)
H7_7 H 0.3676 0.5801 0.9733
C17_7 C 0.38911(16) 0.58387(11) 0.6933(3)
H9_4 H 0.4137 0.5978 0.6220
H10_7 H 0.3793 0.6061 0.7198
H11_4 H 0.3627 0.5559 0.6541
H12_8 H 0.0073 0.2071 0.1586
N4_8 N 0.13347(7) 0.33541(7) 0.0122(2)
C23_8 C 0.08583(8) 0.30842(8) 0.0392(3)
C24_8 C 0.07352(9) 0.32421(9) 0.1685(3)
H16_8 H 0.0435 0.3113 0.2088
C25_8 C 0.11354(9) 0.36107(9) 0.2203(3)
H17_8 H 0.1165 0.3784 0.3031
C26_8 C 0.15084(8) 0.36830(8) 0.1230(3)
C27_8 C 0.19720(8) 0.40551(8) 0.1345(3)
C28_8 C 0.23178(8) 0.41500(8) 0.0312(3)
C29_8 C 0.28045(8) 0.45134(9) 0.0445(3)
H18_8 H 0.2937 0.4729 0.1200
C33_8 C 0.21081(8) 0.43717(9) 0.2641(3)
C34_8 C 0.21067(9) 0.42006(9) 0.4009(3)
H20_8 H 0.2014 0.3883 0.4128
C35_8 C 0.22420(9) 0.44953(10) 0.5209(3)
H21_8 H 0.2243 0.4372 0.6115
C36_8 C 0.23763(9) 0.49688(10) 0.5081(3)
C37_8 C 0.23770(9) 0.51415(10) 0.3712(3)
H22_8 H 0.2468 0.5458 0.3600
C38_8 C 0.22452(9) 0.48494(9) 0.2503(3)
H23_8 H 0.2249 0.4973 0.1596
C39_8 C 0.25054(11) 0.52809(11) 0.6400(3)
H24_5 H 0.2645 0.5174 0.7113
H25_8 H 0.2728 0.5601 0.6135
H26_5 H 0.2226 0.5265 0.6792
H9_5 H 0.0689 0.1492 0.9553
H11_5 H 0.1108 0.1401 0.9874
H4_8 H 0.9981 0.1990 0.7593
C21_8 C 0.92264(13) 0.22854(9) 0.9659(3)
H14_8 H 0.9010 0.2339 0.9164
C22_8 C 0.96974(9) 0.25405(9) 0.9255(3)
H15_8 H 0.9793 0.2760 0.8510
H9_6 H 0.8508 0.9196 0.9553
H11_6 H 0.8599 0.9706 0.9874
H4_9 H 0.2010 0.0019 0.7593
C21_9 C 0.30591(16) 0.07736(13) 0.9659(3)
H14_9 H 0.3330 0.0990 0.9164
C22_9 C 0.28432(13) 0.03026(9) 0.9255(3)
H15_9 H 0.2968 0.0207 0.8510
H12_9 H 0.1999 0.9927 0.1586
N4_9 N 0.20195(10) 0.86653(7) 0.0122(2)
C23_9 C 0.22260(11) 0.91417(8) 0.0392(3)
C24_9 C 0.25070(13) 0.92648(9) 0.1685(3)
H16_9 H 0.2679 0.9565 0.2088
C25_9 C 0.24754(13) 0.88646(9) 0.2203(3)
H17_9 H 0.2620 0.8835 0.3031
C26_9 C 0.21747(11) 0.84916(8) 0.1230(3)
C27_9 C 0.20832(11) 0.80280(8) 0.1345(3)
C28_9 C 0.18323(11) 0.76822(8) 0.0312(3)
C29_9 C 0.17090(12) 0.71955(8) 0.0445(3)
H18_9 H 0.1793 0.7063 0.1200
C33_9 C 0.22637(12) 0.78919(8) 0.2641(3)
C34_9 C 0.20940(13) 0.78933(9) 0.4009(3)
H20_9 H 0.1870 0.7986 0.4128
C35_9 C 0.22534(13) 0.77580(9) 0.5209(3)
H21_9 H 0.2130 0.7757 0.6115
C36_9 C 0.25926(13) 0.76237(9) 0.5081(3)
C37_9 C 0.27646(13) 0.76230(9) 0.3712(3)
H22_9 H 0.2991 0.7532 0.3600
C38_9 C 0.26043(13) 0.77548(9) 0.2503(3)
H23_9 H 0.2725 0.7751 0.1596
C39_9 C 0.27756(16) 0.74946(11) 0.6400(3)
H24_6 H 0.2530 0.7355 0.7113
H25_9 H 0.2874 0.7272 0.6135
H26_6 H 0.3040 0.7774 0.6792
H9_7 H 0.0804 0.9311 0.9553
H11_7 H 0.0294 0.8892 0.9874
H19_8 H 0.0019 0.8010 0.2407
C42_8 C 0.03026(9) 0.74595(9) 0.0745(3)
H28_8 H 0.0207 0.7240 0.1490
C44_8 C 0.07736(13) 0.77146(9) 0.0341(3)
H30_8 H 0.0990 0.7661 0.0836
H24_7 H 0.9311 0.8508 0.0447
H26_7 H 0.8892 0.8599 0.0126
N1_8 N 0.86653(7) 0.66459(7) 0.9878(2)
C1_8 C 0.91417(8) 0.69158(8) 0.9608(3)
C2_8 C 0.92648(9) 0.67579(9) 0.8315(3)
H1_8 H 0.9565 0.6887 0.7912
C3_8 C 0.88646(9) 0.63893(9) 0.7797(3)
H2_8 H 0.8835 0.6216 0.6969
C4_8 C 0.84916(8) 0.63170(8) 0.8770(3)
C5_8 C 0.80280(8) 0.59449(8) 0.8655(3)
C6_8 C 0.76822(8) 0.58500(8) 0.9688(3)
C7_8 C 0.71955(8) 0.54866(9) 0.9555(3)
H3_8 H 0.7063 0.5271 0.8800
C11_8 C 0.78919(8) 0.56283(9) 0.7359(3)
C12_8 C 0.78933(9) 0.57994(9) 0.5991(3)
H5_8 H 0.7986 0.6117 0.5872
C13_8 C 0.77580(9) 0.55047(10) 0.4791(3)
H6_8 H 0.7757 0.5628 0.3885
C14_8 C 0.76237(9) 0.50312(10) 0.4919(3)
C15_8 C 0.76230(9) 0.48585(10) 0.6288(3)
H7_8 H 0.7532 0.4542 0.6400
C16_8 C 0.77548(9) 0.51506(9) 0.7497(3)
H8_8 H 0.7751 0.5027 0.8404
C17_8 C 0.74946(11) 0.47191(11) 0.3600(3)
H9_8 H 0.7355 0.4826 0.2887
H10_8 H 0.7272 0.4399 0.3865
H11_8 H 0.7774 0.4735 0.3208
H27_8 H 0.9927 0.7929 0.8414
H24_8 H 0.1492 0.0804 0.0447
H26_8 H 0.1401 0.0294 0.0126
H24_9 H 0.9196 0.0689 0.0447
H26_9 H 0.9706 0.1108 0.0126
N1_9 N 0.79805(10) 0.13347(7) 0.9878(2)
C1_9 C 0.77740(11) 0.08583(8) 0.9608(3)
C2_9 C 0.74930(13) 0.07352(9) 0.8315(3)
H1_9 H 0.7321 0.0435 0.7912
C3_9 C 0.75246(13) 0.11354(9) 0.7797(3)
H2_9 H 0.7380 0.1165 0.6969
C4_9 C 0.78253(11) 0.15084(8) 0.8770(3)
C5_9 C 0.79168(11) 0.19720(8) 0.8655(3)
C6_9 C 0.81677(11) 0.23178(8) 0.9688(3)
C7_9 C 0.82910(12) 0.28045(8) 0.9555(3)
H3_9 H 0.8207 0.2937 0.8800
C11_9 C 0.77363(12) 0.21081(8) 0.7359(3)
C12_9 C 0.79060(13) 0.21067(9) 0.5991(3)
H5_9 H 0.8130 0.2014 0.5872
C13_9 C 0.77466(13) 0.22420(9) 0.4791(3)
H6_9 H 0.7870 0.2243 0.3885
C14_9 C 0.74074(13) 0.23763(9) 0.4919(3)
C15_9 C 0.72354(13) 0.23770(9) 0.6288(3)
H7_9 H 0.7009 0.2468 0.6400
C16_9 C 0.73957(13) 0.22452(9) 0.7497(3)
H8_9 H 0.7275 0.2249 0.8404
C17_9 C 0.72244(16) 0.25054(11) 0.3600(3)
H9_9 H 0.7470 0.2645 0.2887
H10_9 H 0.7126 0.2728 0.3865
H11_9 H 0.6960 0.2226 0.3208
H27_9 H 0.8001 0.0073 0.8414
H19_9 H 0.7990 0.9981 0.2407
C42_9 C 0.71568(13) 0.96974(9) 0.0745(3)
H28_9 H 0.7032 0.9793 0.1490
C44_9 C 0.69409(16) 0.92264(13) 0.0341(3)
H30_9 H 0.6670 0.9010 0.0836
loop_
_geom_bond_atom_site_label_1
_geom_bond_atom_site_label_2
_geom_bond_site_symmetry_1
_geom_bond_site_symmetry_2
H20 C34 1_555 1_555
C35 C34 1_555 1_555
H21 C35 1_555 1_555
C36 C35 1_555 1_555
C37 C36 1_555 1_555
H22 C37 1_555 1_555
C39 C36 1_555 1_555
H24 C39 1_555 1_555
H25 C39 1_555 1_555
H26 C39 1_555 1_555
C1 C2 1_555 1_555
C2 H1 1_555 1_555
N4 Co1 1_555 1_555
N5 Co1 1_555 1_555
H17 C25 1_555 1_555
C26 N4 1_555 1_555
C27 C26 1_555 1_555
C28 N5 1_555 1_555
C29 C28 1_555 1_555
H18 C29 1_555 1_555
C30 C29 1_555 1_555
H19 C30 1_555 1_555
C31 N5 1_555 1_555
C32 C1 1_555 1_555
C33 C27 1_555 1_555
C38 C33 1_555 1_555
H23 C38 1_555 1_555
C40 C32 1_555 1_555
C41 C40 1_555 1_555
H27 C41 1_555 1_555
C42 C40 1_555 1_555
H28 C42 1_555 1_555
N6 C43 1_555 1_555
C43 C41 1_555 1_555
H29 C43 1_555 1_555
C44 C42 1_555 1_555
H30 C44 1_555 1_555
Co3 N6 1_555 1_555
N7 Co1 1_555 1_555
C25 C26 1_555 1_555
C27 C28 1_555 1_555
C30 C31 1_555 1_555
C31 C32 1_555 1_555
N6 C44 1_555 1_555
Co1_2 N1 1_555 1_555
N2 Co1_2 1_555 1_555
N3 C20 1_555 1_555
H2 C3 1_555 1_555
C4 N1 1_555 1_555
C5 C4 1_555 1_555
C6 N2 1_555 1_555
C7 C6 1_555 1_555
H3 C7 1_555 1_555
C8 C7 1_555 1_555
H4 C8 1_555 1_555
C9 N2 1_555 1_555
C10 C9 1_555 1_555
C11 C5 1_555 1_555
C16 C11 1_555 1_555
H8 C16 1_555 1_555
C18 C10 1_555 1_555
C19 C18 1_555 1_555
H12 C19 1_555 1_555
C20 C19 1_555 1_555
H13 C20 1_555 1_555
C21 N3 1_555 1_555
H14 C21 1_555 1_555
C22 C18 1_555 1_555
H15 C22 1_555 1_555
C23 C10 1_555 1_555
C24 C23 1_555 1_555
H16 C24 1_555 1_555
Co2 N3 1_555 1_555
N8 Co1_2 1_555 1_555
C3 C4 1_555 1_555
C5 C6 1_555 1_555
C8 C9 1_555 1_555
C21 C22 1_555 1_555
Co1_3 N1_2 1_555 1_555
N2_2 Co1_3 1_555 1_555
N3_2 C20_2 1_555 1_555
H2_2 C3_2 1_555 1_555
C4_2 N1_2 1_555 1_555
C5_2 C4_2 1_555 1_555
C6_2 N2_2 1_555 1_555
C7_2 C6_2 1_555 1_555
H3_2 C7_2 1_555 1_555
C8_2 C7_2 1_555 1_555
H4_2 C8_2 1_555 1_555
C9_2 N2_2 1_555 1_555
C10_2 C9_2 1_555 1_555
C11_2 C5_2 1_555 1_555
C16_2 C11_2 1_555 1_555
H8_2 C16_2 1_555 1_555
C18_2 C10_2 1_555 1_555
C19_2 C18_2 1_555 1_555
H12_2 C19_2 1_555 1_555
C20_2 C19_2 1_555 1_555
H13_2 C20_2 1_555 1_555
C21_2 N3_2 1_555 1_555
H14_2 C21_2 1_555 1_555
C22_2 C18_2 1_555 1_555
H15_2 C22_2 1_555 1_555
C23_2 C10_2 1_555 1_555
C24_2 C23_2 1_555 1_555
H16_2 C24_2 1_555 1_555
Co2_2 N3_2 1_555 1_555
N8_2 Co1_3 1_555 1_555
C3_2 C4_2 1_555 1_555
C5_2 C6_2 1_555 1_555
C8_2 C9_2 1_555 1_555
C21_2 C22_2 1_555 1_555
C1_2 C2_2 1_555 1_555
C2_2 H1_2 1_555 1_555
N4_2 Co1_4 1_555 1_555
N5_2 Co1_4 1_555 1_555
H17_2 C25_2 1_555 1_555
C26_2 N4_2 1_555 1_555
C27_2 C26_2 1_555 1_555
C28_2 N5_2 1_555 1_555
C29_2 C28_2 1_555 1_555
H18_2 C29_2 1_555 1_555
C30_2 C29_2 1_555 1_555
H19_2 C30_2 1_555 1_555
C31_2 N5_2 1_555 1_555
C32_2 C1_2 1_555 1_555
C33_2 C27_2 1_555 1_555
C38_2 C33_2 1_555 1_555
H23_2 C38_2 1_555 1_555
C40_2 C32_2 1_555 1_555
C41_2 C40_2 1_555 1_555
H27_2 C41_2 1_555 1_555
C42_2 C40_2 1_555 1_555
H28_2 C42_2 1_555 1_555
N6_2 C43_2 1_555 1_555
C43_2 C41_2 1_555 1_555
H29_2 C43_2 1_555 1_555
C44_2 C42_2 1_555 1_555
H30_2 C44_2 1_555 1_555
Co3_2 N6_2 1_555 1_555
N7_2 Co1_4 1_555 1_555
C25_2 C26_2 1_555 1_555
C27_2 C28_2 1_555 1_555
C30_2 C31_2 1_555 1_555
C31_2 C32_2 1_555 1_555
N6_2 C44_2 1_555 1_555
Co1_5 N1_3 1_555 1_555
N1_3 C1_3 1_555 1_555
N2_3 Co1_5 1_555 1_555
N3_3 C20_3 1_555 1_555
C1_3 C2_3 1_555 1_555
C2_3 H1_3 1_555 1_555
C3_3 C2_3 1_555 1_555
H2_3 C3_3 1_555 1_555
C4_3 N1_3 1_555 1_555
C5_3 C4_3 1_555 1_555
C6_3 N2_3 1_555 1_555
C7_3 C6_3 1_555 1_555
H3_3 C7_3 1_555 1_555
C8_3 C7_3 1_555 1_555
H4_3 C8_3 1_555 1_555
C9_3 N2_3 1_555 1_555
C10_3 C9_3 1_555 1_555
C11_3 C5_3 1_555 1_555
C16_3 C11_3 1_555 1_555
H8_3 C16_3 1_555 1_555
C18_3 C10_3 1_555 1_555
C19_3 C18_3 1_555 1_555
H12_3 C19_3 1_555 1_555
C20_3 C19_3 1_555 1_555
H13_3 C20_3 1_555 1_555
C21_3 N3_3 1_555 1_555
H14_3 C21_3 1_555 1_555
C22_3 C18_3 1_555 1_555
H15_3 C22_3 1_555 1_555
N4_3 Co1_5 1_555 1_555
N5_3 Co1_5 1_555 1_555
C23_3 C10_3 1_555 1_555
C24_3 C23_3 1_555 1_555
H16_3 C24_3 1_555 1_555
C25_3 C24_3 1_555 1_555
H17_3 C25_3 1_555 1_555
C26_3 N4_3 1_555 1_555
C27_3 C26_3 1_555 1_555
C28_3 N5_3 1_555 1_555
C29_3 C28_3 1_555 1_555
H18_3 C29_3 1_555 1_555
C30_3 C29_3 1_555 1_555
H19_3 C30_3 1_555 1_555
C31_3 N5_3 1_555 1_555
C32_3 C1_3 1_555 1_555
C33_3 C27_3 1_555 1_555
C38_3 C33_3 1_555 1_555
H23_3 C38_3 1_555 1_555
C40_3 C32_3 1_555 1_555
C41_3 C40_3 1_555 1_555
H27_3 C41_3 1_555 1_555
C42_3 C40_3 1_555 1_555
H28_3 C42_3 1_555 1_555
N6_3 C43_3 1_555 1_555
C43_3 C41_3 1_555 1_555
H29_3 C43_3 1_555 1_555
C44_3 C42_3 1_555 1_555
H30_3 C44_3 1_555 1_555
Co2_3 N3_3 1_555 1_555
Co3_3 N6_3 1_555 1_555
N7_3 Co1_5 1_555 1_555
N8_3 Co1_5 1_555 1_555
C3_3 C4_3 1_555 1_555
C5_3 C6_3 1_555 1_555
C8_3 C9_3 1_555 1_555
C21_3 C22_3 1_555 1_555
N4_3 C23_3 1_555 1_555
C25_3 C26_3 1_555 1_555
C27_3 C28_3 1_555 1_555
C30_3 C31_3 1_555 1_555
C31_3 C32_3 1_555 1_555
N6_3 C44_3 1_555 1_555
Co2_2 N1_4 1_555 1_555
N1_4 C1_4 1_555 1_555
N2_4 Co2_2 1_555 1_555
C1_4 C2_4 1_555 1_555
C2_4 H1_4 1_555 1_555
C3_4 C2_4 1_555 1_555
H2_4 C3_4 1_555 1_555
C4_4 N1_4 1_555 1_555
C5_4 C4_4 1_555 1_555
C6_4 N2_4 1_555 1_555
C7_4 C6_4 1_555 1_555
H3_4 C7_4 1_555 1_555
C8_4 C7_4 1_555 1_555
C9_4 N2_4 1_555 1_555
C10_4 C9_4 1_555 1_555
C11_4 C5_4 1_555 1_555
C12 C11_4 1_555 1_555
H5 C12 1_555 1_555
C13 C12 1_555 1_555
H6 C13 1_555 1_555
C14 C13 1_555 1_555
C15 C14 1_555 1_555
H7 C15 1_555 1_555
C16_4 C11_4 1_555 1_555
H8_4 C16_4 1_555 1_555
C17 C14 1_555 1_555
H10 C17 1_555 1_555
C18_4 C10_4 1_555 1_555
N5_4 Co2_2 1_555 1_555
H19_4 C30_4 1_555 1_555
C31_4 N5_4 1_555 1_555
C32_4 C1_4 1_555 1_555
C40_4 C32_4 1_555 1_555
C41_4 C40_4 1_555 1_555
H27_4 C41_4 1_555 1_555
C42_4 C40_4 1_555 1_555
H28_4 C42_4 1_555 1_555
N8_3 C43_4 1_555 1_555
C43_4 C41_4 1_555 1_555
H29_4 C43_4 1_555 1_555
C44_4 C42_4 1_555 1_555
H30_4 C44_4 1_555 1_555
N8_4 Co2_2 1_555 1_555
C3_4 C4_4 1_555 1_555
C5_4 C6_4 1_555 1_555
C8_4 C9_4 1_555 1_555
C15 C16_4 1_555 1_555
C30_4 C31_4 1_555 1_555
C31_4 C32_4 1_555 1_555
N8_3 C44_4 1_555 1_555
N3_4 C20_4 1_555 1_555
C20_4 C19_4 1_555 1_555
H13_4 C20_4 1_555 1_555
Co3 N3_4 1_555 1_555
N3_5 C20_5 1_555 1_555
H12_4 C19_5 1_555 1_555
C20_5 C19_5 1_555 1_555
H13_5 C20_5 1_555 1_555
C24_4 C23_4 1_555 1_555
H16_4 C24_4 1_555 1_555
C25_4 C24_4 1_555 1_555
H17_4 C25_4 1_555 1_555
C26_4 N4_4 1_555 1_555
C27_4 C26_4 1_555 1_555
C29_4 C28_4 1_555 1_555
H18_4 C29_4 1_555 1_555
C33_4 C27_4 1_555 1_555
C34_2 C33_4 1_555 1_555
H20_2 C34_2 1_555 1_555
C35_2 C34_2 1_555 1_555
H21_2 C35_2 1_555 1_555
C36_2 C35_2 1_555 1_555
C37_2 C36_2 1_555 1_555
H22_2 C37_2 1_555 1_555
C38_4 C33_4 1_555 1_555
H23_4 C38_4 1_555 1_555
C39_2 C36_2 1_555 1_555
H24_2 C39_2 1_555 1_555
H25_2 C39_2 1_555 1_555
H26_2 C39_2 1_555 1_555
Co3_2 N3_5 1_555 1_555
N4_4 C23_4 1_555 1_555
C25_4 C26_4 1_555 1_555
C27_4 C28_4 1_555 1_555
C37_2 C38_4 1_555 1_555
Co2_3 N1_5 1_555 1_555
N1_5 C1_5 1_555 1_555
N2_5 Co2_3 1_555 1_555
C1_5 C2_5 1_555 1_555
C2_5 H1_5 1_555 1_555
C3_5 C2_5 1_555 1_555
H2_5 C3_5 1_555 1_555
C4_5 N1_5 1_555 1_555
C5_5 C4_5 1_555 1_555
C6_5 N2_5 1_555 1_555
C7_5 C6_5 1_555 1_555
H3_5 C7_5 1_555 1_555
C8_5 C7_5 1_555 1_555
H4_4 C8_5 1_555 1_555
C9_5 N2_5 1_555 1_555
C10_5 C9_5 1_555 1_555
C11_5 C5_5 1_555 1_555
C12_2 C11_5 1_555 1_555
H5_2 C12_2 1_555 1_555
C13_2 C12_2 1_555 1_555
H6_2 C13_2 1_555 1_555
C14_2 C13_2 1_555 1_555
C15_2 C14_2 1_555 1_555
H7_2 C15_2 1_555 1_555
C16_5 C11_5 1_555 1_555
H8_5 C16_5 1_555 1_555
C17_2 C14_2 1_555 1_555
H10_2 C17_2 1_555 1_555
C18_5 C10_5 1_555 1_555
H14_4 C21_4 1_555 1_555
C22_4 C18_5 1_555 1_555
H15_4 C22_4 1_555 1_555
N5_5 Co2_3 1_555 1_555
H19_5 C30_5 1_555 1_555
C31_5 N5_5 1_555 1_555
C32_5 C1_5 1_555 1_555
C40_5 C32_5 1_555 1_555
C41_5 C40_5 1_555 1_555
H27_5 C41_5 1_555 1_555
C42_5 C40_5 1_555 1_555
H28_5 C42_5 1_555 1_555
N8 C43_5 1_555 1_555
C43_5 C41_5 1_555 1_555
H29_5 C43_5 1_555 1_555
C44_5 C42_5 1_555 1_555
H30_5 C44_5 1_555 1_555
N8_5 Co2_3 1_555 1_555
C3_5 C4_5 1_555 1_555
C5_5 C6_5 1_555 1_555
C8_5 C9_5 1_555 1_555
C15_2 C16_5 1_555 1_555
C21_4 C22_4 1_555 1_555
C30_5 C31_5 1_555 1_555
C31_5 C32_5 1_555 1_555
N8 C44_5 1_555 1_555
N3_6 C20_6 1_555 1_555
C20_6 C19_6 1_555 1_555
H13_6 C20_6 1_555 1_555
Co3_3 N3_6 1_555 1_555
Co2 N1_6 1_555 1_555
N1_6 C1_6 1_555 1_555
N2_6 Co2 1_555 1_555
C1_6 C2_6 1_555 1_555
C2_6 H1_6 1_555 1_555
C3_6 C2_6 1_555 1_555
H2_6 C3_6 1_555 1_555
C4_6 N1_6 1_555 1_555
C5_6 C4_6 1_555 1_555
C6_6 N2_6 1_555 1_555
C7_6 C6_6 1_555 1_555
H3_6 C7_6 1_555 1_555
C8_6 C7_6 1_555 1_555
C9_6 N2_6 1_555 1_555
C10_6 C9_6 1_555 1_555
C11_6 C5_6 1_555 1_555
C12_3 C11_6 1_555 1_555
H5_3 C12_3 1_555 1_555
C13_3 C12_3 1_555 1_555
H6_3 C13_3 1_555 1_555
C14_3 C13_3 1_555 1_555
C15_3 C14_3 1_555 1_555
H7_3 C15_3 1_555 1_555
C16_6 C11_6 1_555 1_555
H8_6 C16_6 1_555 1_555
C17_3 C14_3 1_555 1_555
H10_3 C17_3 1_555 1_555
C18_6 C10_6 1_555 1_555
N5_6 Co2 1_555 1_555
H19_6 C30_6 1_555 1_555
C31_6 N5_6 1_555 1_555
C32_6 C1_6 1_555 1_555
C40_6 C32_6 1_555 1_555
C41_6 C40_6 1_555 1_555
H27_6 C41_6 1_555 1_555
C42_6 C40_6 1_555 1_555
H28_6 C42_6 1_555 1_555
N8_2 C43_6 1_555 1_555
C43_6 C41_6 1_555 1_555
H29_6 C43_6 1_555 1_555
C44_6 C42_6 1_555 1_555
H30_6 C44_6 1_555 1_555
N8_6 Co2 1_555 1_555
C3_6 C4_6 1_555 1_555
C5_6 C6_6 1_555 1_555
C8_6 C9_6 1_555 1_555
C15_3 C16_6 1_555 1_555
C30_6 C31_6 1_555 1_555
C31_6 C32_6 1_555 1_555
N8_2 C44_6 1_555 1_555
N8_6 C43_7 1_555 1_555
C43_7 C41_7 1_555 1_555
H29_7 C43_7 1_555 1_555
N2_7 Co3_2 1_555 1_555
N7_3 C20_7 1_555 1_555
H4_5 C8_7 1_555 1_555
C9_7 N2_7 1_555 1_555
C10_7 C9_7 1_555 1_555
C18_7 C10_7 1_555 1_555
C19_7 C18_7 1_555 1_555
H12_5 C19_7 1_555 1_555
C20_7 C19_7 1_555 1_555
H13_7 C20_7 1_555 1_555
C21_5 N7_3 1_555 1_555
H14_5 C21_5 1_555 1_555
C22_5 C18_7 1_555 1_555
H15_5 C22_5 1_555 1_555
N4_5 Co3_2 1_555 1_555
N5_7 Co3_2 1_555 1_555
C23_5 C10_7 1_555 1_555
C24_5 C23_5 1_555 1_555
H16_5 C24_5 1_555 1_555
C25_5 C24_5 1_555 1_555
H17_5 C25_5 1_555 1_555
C26_5 N4_5 1_555 1_555
C27_5 C26_5 1_555 1_555
C28_5 N5_7 1_555 1_555
C29_5 C28_5 1_555 1_555
H18_5 C29_5 1_555 1_555
C30_7 C29_5 1_555 1_555
C31_7 N5_7 1_555 1_555
C33_5 C27_5 1_555 1_555
C34_3 C33_5 1_555 1_555
H20_3 C34_3 1_555 1_555
C35_3 C34_3 1_555 1_555
H21_3 C35_3 1_555 1_555
C36_3 C35_3 1_555 1_555
C37_3 C36_3 1_555 1_555
H22_3 C37_3 1_555 1_555
C38_5 C33_5 1_555 1_555
H23_5 C38_5 1_555 1_555
C39_3 C36_3 1_555 1_555
H25_3 C39_3 1_555 1_555
C40_7 C32_7 1_555 1_555
C8_7 C9_7 1_555 1_555
C21_5 C22_5 1_555 1_555
N4_5 C23_5 1_555 1_555
C25_5 C26_5 1_555 1_555
C27_5 C28_5 1_555 1_555
C30_7 C31_7 1_555 1_555
C31_7 C32_7 1_555 1_555
C37_3 C38_5 1_555 1_555
N2_8 Co3_3 1_555 1_555
N7 C20_8 1_555 1_555
H4_6 C8_8 1_555 1_555
C9_8 N2_8 1_555 1_555
C10_8 C9_8 1_555 1_555
C18_8 C10_8 1_555 1_555
C19_8 C18_8 1_555 1_555
H12_6 C19_8 1_555 1_555
C20_8 C19_8 1_555 1_555
H13_8 C20_8 1_555 1_555
C21_6 N7 1_555 1_555
H14_6 C21_6 1_555 1_555
C22_6 C18_8 1_555 1_555
H15_6 C22_6 1_555 1_555
N4_6 Co3_3 1_555 1_555
N5_8 Co3_3 1_555 1_555
C23_6 C10_8 1_555 1_555
C24_6 C23_6 1_555 1_555
H16_6 C24_6 1_555 1_555
C25_6 C24_6 1_555 1_555
H17_6 C25_6 1_555 1_555
C26_6 N4_6 1_555 1_555
C27_6 C26_6 1_555 1_555
C28_6 N5_8 1_555 1_555
C29_6 C28_6 1_555 1_555
H18_6 C29_6 1_555 1_555
C30_8 C29_6 1_555 1_555
H19_7 C30_8 1_555 1_555
C31_8 N5_8 1_555 1_555
C33_6 C27_6 1_555 1_555
C34_4 C33_6 1_555 1_555
H20_4 C34_4 1_555 1_555
C35_4 C34_4 1_555 1_555
H21_4 C35_4 1_555 1_555
C36_4 C35_4 1_555 1_555
C37_4 C36_4 1_555 1_555
H22_4 C37_4 1_555 1_555
C38_6 C33_6 1_555 1_555
H23_6 C38_6 1_555 1_555
C39_4 C36_4 1_555 1_555
H25_4 C39_4 1_555 1_555
C40_8 C32_8 1_555 1_555
C42_7 C40_8 1_555 1_555
H28_7 C42_7 1_555 1_555
C44_7 C42_7 1_555 1_555
H30_7 C44_7 1_555 1_555
C8_8 C9_8 1_555 1_555
C21_6 C22_6 1_555 1_555
N4_6 C23_6 1_555 1_555
C25_6 C26_6 1_555 1_555
C27_6 C28_6 1_555 1_555
C30_8 C31_8 1_555 1_555
C31_8 C32_8 1_555 1_555
C37_4 C38_6 1_555 1_555
N1_7 C1_7 1_555 1_555
C1_7 C2_7 1_555 1_555
C2_7 H1_7 1_555 1_555
C3_7 C2_7 1_555 1_555
H2_7 C3_7 1_555 1_555
C4_7 N1_7 1_555 1_555
C5_7 C4_7 1_555 1_555
C7_7 C6_7 1_555 1_555
H3_7 C7_7 1_555 1_555
C11_7 C5_7 1_555 1_555
C12_4 C11_7 1_555 1_555
H5_4 C12_4 1_555 1_555
C13_4 C12_4 1_555 1_555
H6_4 C13_4 1_555 1_555
C14_4 C13_4 1_555 1_555
C15_4 C14_4 1_555 1_555
H7_4 C15_4 1_555 1_555
C16_7 C11_7 1_555 1_555
H8_7 C16_7 1_555 1_555
C17_4 C14_4 1_555 1_555
H9 C17_4 1_555 1_555
H10_4 C17_4 1_555 1_555
H11 C17_4 1_555 1_555
H27_7 C41_8 1_555 1_555
N8_4 C43_8 1_555 1_555
C43_8 C41_8 1_555 1_555
H29_8 C43_8 1_555 1_555
C3_7 C4_7 1_555 1_555
C5_7 C6_7 1_555 1_555
C15_4 C16_7 1_555 1_555
N2_9 Co3 1_555 1_555
N7_2 C20_9 1_555 1_555
H4_7 C8_9 1_555 1_555
C9_9 N2_9 1_555 1_555
C10_9 C9_9 1_555 1_555
C18_9 C10_9 1_555 1_555
C19_9 C18_9 1_555 1_555
H12_7 C19_9 1_555 1_555
C20_9 C19_9 1_555 1_555
H13_9 C20_9 1_555 1_555
C21_7 N7_2 1_555 1_555
H14_7 C21_7 1_555 1_555
C22_7 C18_9 1_555 1_555
H15_7 C22_7 1_555 1_555
N4_7 Co3 1_555 1_555
N5_9 Co3 1_555 1_555
C23_7 C10_9 1_555 1_555
C24_7 C23_7 1_555 1_555
H16_7 C24_7 1_555 1_555
C25_7 C24_7 1_555 1_555
H17_7 C25_7 1_555 1_555
C26_7 N4_7 1_555 1_555
C27_7 C26_7 1_555 1_555
C28_7 N5_9 1_555 1_555
C29_7 C28_7 1_555 1_555
H18_7 C29_7 1_555 1_555
C30_9 C29_7 1_555 1_555
C31_9 N5_9 1_555 1_555
C33_7 C27_7 1_555 1_555
C34_5 C33_7 1_555 1_555
H20_5 C34_5 1_555 1_555
C35_5 C34_5 1_555 1_555
H21_5 C35_5 1_555 1_555
C36_5 C35_5 1_555 1_555
C37_5 C36_5 1_555 1_555
H22_5 C37_5 1_555 1_555
C38_7 C33_7 1_555 1_555
H23_7 C38_7 1_555 1_555
C39_5 C36_5 1_555 1_555
H25_5 C39_5 1_555 1_555
C40_9 C32_9 1_555 1_555
C8_9 C9_9 1_555 1_555
C21_7 C22_7 1_555 1_555
N4_7 C23_7 1_555 1_555
C25_7 C26_7 1_555 1_555
C27_7 C28_7 1_555 1_555
C30_9 C31_9 1_555 1_555
C31_9 C32_9 1_555 1_555
C37_5 C38_7 1_555 1_555
N8_5 C43_9 1_555 1_555
C43_9 C41_9 1_555 1_555
H29_9 C43_9 1_555 1_555
H5_5 C12_5 1_555 1_555
C13_5 C12_5 1_555 1_555
H6_5 C13_5 1_555 1_555
C14_5 C13_5 1_555 1_555
C15_5 C14_5 1_555 1_555
H7_5 C15_5 1_555 1_555
C17_5 C14_5 1_555 1_555
H9_2 C17_5 1_555 1_555
H10_5 C17_5 1_555 1_555
H11_2 C17_5 1_555 1_555
H5_6 C12_6 1_555 1_555
C13_6 C12_6 1_555 1_555
H6_6 C13_6 1_555 1_555
C14_6 C13_6 1_555 1_555
C15_6 C14_6 1_555 1_555
H7_6 C15_6 1_555 1_555
C17_6 C14_6 1_555 1_555
H9_3 C17_6 1_555 1_555
H10_6 C17_6 1_555 1_555
H11_3 C17_6 1_555 1_555
H20_6 C34_6 1_555 1_555
C35_6 C34_6 1_555 1_555
H21_6 C35_6 1_555 1_555
C36_6 C35_6 1_555 1_555
C37_6 C36_6 1_555 1_555
H22_6 C37_6 1_555 1_555
C39_6 C36_6 1_555 1_555
H24_3 C39_6 1_555 1_555
H25_6 C39_6 1_555 1_555
H26_3 C39_6 1_555 1_555
H20_7 C34_7 1_555 1_555
C35_7 C34_7 1_555 1_555
H21_7 C35_7 1_555 1_555
C36_7 C35_7 1_555 1_555
C37_7 C36_7 1_555 1_555
H22_7 C37_7 1_555 1_555
C39_7 C36_7 1_555 1_555
H24_4 C39_7 1_555 1_555
H25_7 C39_7 1_555 1_555
H26_4 C39_7 1_555 1_555
H5_7 C12_7 1_555 1_555
C13_7 C12_7 1_555 1_555
H6_7 C13_7 1_555 1_555
C14_7 C13_7 1_555 1_555
C15_7 C14_7 1_555 1_555
H7_7 C15_7 1_555 1_555
C17_7 C14_7 1_555 1_555
H9_4 C17_7 1_555 1_555
H10_7 C17_7 1_555 1_555
H11_4 C17_7 1_555 1_555
C24_8 C23_8 1_555 1_555
H16_8 C24_8 1_555 1_555
C25_8 C24_8 1_555 1_555
H17_8 C25_8 1_555 1_555
C26_8 N4_8 1_555 1_555
C27_8 C26_8 1_555 1_555
C29_8 C28_8 1_555 1_555
H18_8 C29_8 1_555 1_555
C33_8 C27_8 1_555 1_555
C34_8 C33_8 1_555 1_555
H20_8 C34_8 1_555 1_555
C35_8 C34_8 1_555 1_555
H21_8 C35_8 1_555 1_555
C36_8 C35_8 1_555 1_555
C37_8 C36_8 1_555 1_555
H22_8 C37_8 1_555 1_555
C38_8 C33_8 1_555 1_555
H23_8 C38_8 1_555 1_555
C39_8 C36_8 1_555 1_555
H24_5 C39_8 1_555 1_555
H25_8 C39_8 1_555 1_555
H26_5 C39_8 1_555 1_555
N4_8 C23_8 1_555 1_555
C25_8 C26_8 1_555 1_555
C27_8 C28_8 1_555 1_555
C37_8 C38_8 1_555 1_555
H14_8 C21_8 1_555 1_555
H15_8 C22_8 1_555 1_555
C21_8 C22_8 1_555 1_555
H14_9 C21_9 1_555 1_555
H15_9 C22_9 1_555 1_555
C21_9 C22_9 1_555 1_555
C24_9 C23_9 1_555 1_555
H16_9 C24_9 1_555 1_555
C25_9 C24_9 1_555 1_555
H17_9 C25_9 1_555 1_555
C26_9 N4_9 1_555 1_555
C27_9 C26_9 1_555 1_555
C29_9 C28_9 1_555 1_555
H18_9 C29_9 1_555 1_555
C33_9 C27_9 1_555 1_555
C34_9 C33_9 1_555 1_555
H20_9 C34_9 1_555 1_555
C35_9 C34_9 1_555 1_555
H21_9 C35_9 1_555 1_555
C36_9 C35_9 1_555 1_555
C37_9 C36_9 1_555 1_555
H22_9 C37_9 1_555 1_555
C38_9 C33_9 1_555 1_555
H23_9 C38_9 1_555 1_555
C39_9 C36_9 1_555 1_555
H24_6 C39_9 1_555 1_555
H25_9 C39_9 1_555 1_555
H26_6 C39_9 1_555 1_555
N4_9 C23_9 1_555 1_555
C25_9 C26_9 1_555 1_555
C27_9 C28_9 1_555 1_555
C37_9 C38_9 1_555 1_555
H28_8 C42_8 1_555 1_555
C44_8 C42_8 1_555 1_555
H30_8 C44_8 1_555 1_555
N1_8 C1_8 1_555 1_555
C1_8 C2_8 1_555 1_555
C2_8 H1_8 1_555 1_555
C3_8 C2_8 1_555 1_555
H2_8 C3_8 1_555 1_555
C4_8 N1_8 1_555 1_555
C5_8 C4_8 1_555 1_555
C7_8 C6_8 1_555 1_555
H3_8 C7_8 1_555 1_555
C11_8 C5_8 1_555 1_555
C12_8 C11_8 1_555 1_555
H5_8 C12_8 1_555 1_555
C13_8 C12_8 1_555 1_555
H6_8 C13_8 1_555 1_555
C14_8 C13_8 1_555 1_555
C15_8 C14_8 1_555 1_555
H7_8 C15_8 1_555 1_555
C16_8 C11_8 1_555 1_555
H8_8 C16_8 1_555 1_555
C17_8 C14_8 1_555 1_555
H9_8 C17_8 1_555 1_555
H10_8 C17_8 1_555 1_555
H11_8 C17_8 1_555 1_555
C3_8 C4_8 1_555 1_555
C5_8 C6_8 1_555 1_555
C15_8 C16_8 1_555 1_555
N1_9 C1_9 1_555 1_555
C1_9 C2_9 1_555 1_555
C2_9 H1_9 1_555 1_555
C3_9 C2_9 1_555 1_555
H2_9 C3_9 1_555 1_555
C4_9 N1_9 1_555 1_555
C5_9 C4_9 1_555 1_555
C7_9 C6_9 1_555 1_555
H3_9 C7_9 1_555 1_555
C11_9 C5_9 1_555 1_555
C12_9 C11_9 1_555 1_555
H5_9 C12_9 1_555 1_555
C13_9 C12_9 1_555 1_555
H6_9 C13_9 1_555 1_555
C14_9 C13_9 1_555 1_555
C15_9 C14_9 1_555 1_555
H7_9 C15_9 1_555 1_555
C16_9 C11_9 1_555 1_555
H8_9 C16_9 1_555 1_555
C17_9 C14_9 1_555 1_555
H9_9 C17_9 1_555 1_555
H10_9 C17_9 1_555 1_555
H11_9 C17_9 1_555 1_555
C3_9 C4_9 1_555 1_555
C5_9 C6_9 1_555 1_555
C15_9 C16_9 1_555 1_555
H28_9 C42_9 1_555 1_555
C44_9 C42_9 1_555 1_555
H30_9 C44_9 1_555 1_555

#END
