
###############################################################################
#
# This file contains modified crystal structure data generated from the
# MOF subset of the Cambridge Structural Database (CSD) v543 
# hosted by the Cambridge Crystallographic Data Centre (CCDC).
#
# This work is licensed under the Creative Commons
# Attribution-NonCommercial-ShareAlike 4.0 International License.
# To view a copy of this license, visit
# http://creativecommons.org/licenses/by-nc-sa/4.0/
# or send a letter to
# Creative Commons, PO Box 1866, Mountain View, CA 94042, USA.
#
# CIF created using the CSD Python API on 29 September 2022
# The structure has been converted into the P1 space group
# The structure has a 3D framework
# The original CSD entry HAGTAN is in the monoclinic crystal system
# The framework has been calculated to contain at least 10.0% void space
# The void calculation uses a probe of radius 1.32A, grid spacing 0.4
# The framework is charged, counterions have been retained in the structure
#
###############################################################################

data_HAGTAN
_chemical_formula_moiety         '(C176 H192 Cd13 N32 O62 4-)n'
_symmetry_cell_setting           triclinic
_symmetry_space_group_name_H-M   'P 1'
_symmetry_Int_Tables_number      1
_space_group_name_Hall           'P 1'
loop_
_symmetry_equiv_pos_site_id
_symmetry_equiv_pos_as_xyz
1 x,y,z
_cell_length_a                   23.859(5)
_cell_length_b                   8.7350(17)
_cell_length_c                   29.497(6)
_cell_angle_alpha                90
_cell_angle_beta                 112.35(3)
_cell_angle_gamma                90
_cell_volume                     5685.62
loop_
_atom_site_label
_atom_site_type_symbol
_atom_site_fract_x
_atom_site_fract_y
_atom_site_fract_z
Cd4 Cd 0.082808(18) 0.00898(5) 0.003552(13)
Cd2 Cd 0.2500 0.2500 0.0000
O1 O 0.3451(2) 0.1291(6) 0.03634(16)
H1 H 0.372(2) 0.095(8) 0.0667(11)
H2 H 0.3661(10) 0.171(6) 0.0184(16)
O3 O 0.18986(18) 0.0479(5) 0.00780(15)
O5 O 0.07543(19) 0.2848(5) 0.00666(16)
C3 C 0.0222(3) 0.2861(7) 0.0051(2)
C8 C 0.1384(3) 0.0544(8) 0.1697(2)
H9 H 0.1401 0.1349 0.1908
C9 C 0.1173(3) 0.0786(8) 0.1201(2)
H10 H 0.1038 0.1761 0.1083
H13 H 0.2442 0.0299 0.2751
H14 H 0.1787 0.0824 0.2687
H27 H 0.0524 0.5781 0.0231
N7 N 0.2611(2) 0.3414(6) 0.07600(16)
Cd2_2 Cd 0.2500 0.2500 1.0000
N3 N 0.0457(2) 0.0010(6) 0.91840(17)
C17 C 0.0225(3) 0.1244(8) 0.8901(2)
H19 H 0.0207 0.2163 0.9055
C18 C 0.0011(3) 0.1216(10) 0.8390(2)
O8 O 0.00472(19) 0.8379(6) 0.99624(16)
C26 C 0.0130(4) 0.5683(9) 0.9967(3)
H28 H 0.0198 0.5607 0.9664
H30 H 0.0133 0.2102 0.6792
H34 H 0.0503 0.0615 0.7526
O10 O 0.1549(2) 0.3709(6) 0.96366(16)
H47 H 0.128(2) 0.405(8) 0.9333(11)
H48 H 0.1339(10) 0.329(6) 0.9816(16)
O13 O 0.31014(18) 0.4521(5) 0.99220(15)
O14 O 0.00472(19) 0.1621(6) 0.49624(16)
N8 N 0.2389(2) 0.1586(6) 0.92400(16)
O2 O 0.15087(18) 0.8201(5) 0.00273(15)
N1 N 0.1150(2) 0.9697(6) 0.08776(17)
N2 N 0.2389(2) 0.8414(6) 0.42400(16)
C1 C 0.1932(3) 0.9041(7) 0.0041(2)
C2 C 0.2493(3) 0.8351(7) 0.0011(3)
H4 H 0.2839 0.8685 0.0295
C5 C 0.1328(3) 0.8286(8) 0.1052(2)
H7 H 0.1304 0.7506 0.0831
C6 C 0.1543(3) 0.7944(8) 0.1540(2)
H8 H 0.1671 0.6954 0.1645
C7 C 0.1573(3) 0.9080(8) 0.1884(2)
C10 C 0.1799(4) 0.8647(9) 0.2421(2)
H11 H 0.2105 0.7857 0.2483
H12 H 0.1464 0.8213 0.2488
C11 C 0.2066(4) 0.9967(9) 0.2774(2)
C12 C 0.2186(3) 0.9467(8) 0.3295(2)
C13 C 0.1743(3) 0.9435(11) 0.3477(2)
H15 H 0.1358 0.9791 0.3285
C14 C 0.1848(3) 0.8889(9) 0.3940(2)
H16 H 0.1527 0.8853 0.4046
C15 C 0.2835(3) 0.8480(8) 0.4074(2)
H17 H 0.3219 0.8167 0.4283
C16 C 0.2764(3) 0.8978(9) 0.3617(2)
H18 H 0.3092 0.8994 0.3519
H25 H 0.2457 0.6243 0.0277
Cd10 Cd 0.2500 0.7500 0.5000
H3 H 0.2543 0.8757 0.9723
C19 C 0.0017(3) 0.9831(10) 0.8158(2)
C20 C 0.0248(3) 0.8581(10) 0.8453(2)
H21 H 0.0259 0.7639 0.8310
C21 C 0.0466(3) 0.8695(8) 0.8960(2)
H22 H 0.0623 0.7828 0.9148
O6 O 0.34913(18) 0.6799(5) 0.99727(15)
C23 C 0.3068(3) 0.5959(7) 0.9959(2)
C24 C 0.2507(3) 0.6649(7) 0.9989(3)
H26 H 0.2161 0.6315 0.9705
C32 C 0.0236(4) 0.9747(12) 0.7396(2)
H33 H 0.0477 0.8823 0.7498
Cd7 Cd 0.417192(18) 0.49102(5) 0.996448(13)
O4 O 0.99528(19) 0.1621(6) 0.00376(16)
C4 C 0.9870(4) 0.4317(9) 0.0033(3)
H6 H 0.9802 0.4393 0.0336
H5 H 0.9476 0.4219 0.9769
H20 H 0.9867 0.2102 0.8208
H24 H 0.9497 0.0615 0.7474
O9 O 0.92457(19) 0.7152(5) 0.99334(16)
C25 C 0.9778(3) 0.7139(7) 0.9949(2)
N4 N 0.9543(2) 0.0010(6) 0.58160(17)
C27 C 0.9775(3) 0.1244(8) 0.6099(2)
H29 H 0.9793 0.2163 0.5945
C28 C 0.9989(3) 0.1216(10) 0.6610(2)
Cd3 Cd 0.917192(18) 0.00898(5) 0.496448(13)
C36 C 0.8616(3) 0.0544(8) 0.3303(2)
H37 H 0.8599 0.1349 0.3092
C37 C 0.8827(3) 0.0786(8) 0.3799(2)
H38 H 0.8962 0.1761 0.3917
H41 H 0.7558 0.0299 0.2249
H42 H 0.8213 0.0824 0.2313
Cd6 Cd 0.917192(18) 0.99102(5) 0.996448(13)
O12 O 0.81014(18) 0.0479(5) 0.49220(15)
O17 O 0.92457(19) 0.2848(5) 0.49334(16)
C22 C 0.9764(4) 0.9747(12) 0.7604(2)
H23 H 0.9523 0.8823 0.7502
C29 C 0.9983(3) 0.9831(10) 0.6842(2)
C30 C 0.9752(3) 0.8581(10) 0.6547(2)
H31 H 0.9741 0.7639 0.6690
C31 C 0.9534(3) 0.8695(8) 0.6040(2)
H32 H 0.9377 0.7828 0.5852
N5 N 0.8850(2) 0.9697(6) 0.41224(17)
N6 N 0.7611(2) 0.8414(6) 0.07600(16)
C33 C 0.8672(3) 0.8286(8) 0.3948(2)
H35 H 0.8696 0.7506 0.4169
C34 C 0.8457(3) 0.7944(8) 0.3460(2)
H36 H 0.8329 0.6954 0.3355
C35 C 0.8427(3) 0.9080(8) 0.3116(2)
C38 C 0.8201(4) 0.8647(9) 0.2579(2)
H39 H 0.7895 0.7857 0.2517
H40 H 0.8536 0.8213 0.2512
C39 C 0.7934(4) 0.9967(9) 0.2226(2)
C40 C 0.7814(3) 0.9467(8) 0.1705(2)
C41 C 0.8257(3) 0.9435(11) 0.1523(2)
H43 H 0.8642 0.9791 0.1715
C42 C 0.8152(3) 0.8889(9) 0.1060(2)
H44 H 0.8473 0.8853 0.0954
C43 C 0.7165(3) 0.8480(8) 0.0926(2)
H45 H 0.6781 0.8167 0.0717
C44 C 0.7236(3) 0.8978(9) 0.1383(2)
H46 H 0.6908 0.8994 0.1481
Cd9 Cd 0.7500 0.7500 0.0000
O11 O 0.84913(18) 0.8201(5) 0.49727(15)
O16 O 0.99528(19) 0.8379(6) 0.50376(16)
Cd9_2 Cd 0.7500 0.7500 1.0000
C4_2 C 0.0130(4) 0.4317(9) 0.4967(3)
H5_2 H 0.0524 0.4219 0.5231
H6_2 H 0.0198 0.4393 0.4664
O9_2 O 0.07543(19) 0.7152(5) 0.50666(16)
C25_2 C 0.0222(3) 0.7139(7) 0.5051(2)
Cd6_2 Cd 0.082808(18) 0.99102(5) 0.503552(13)
Cd2_3 Cd 0.7500 0.2500 0.5000
O1_2 O 0.6549(2) 0.1291(6) 0.46366(16)
H1_2 H 0.628(2) 0.095(8) 0.4333(11)
H2_2 H 0.6339(10) 0.171(6) 0.4816(16)
C3_2 C 0.9778(3) 0.2861(7) 0.4949(2)
C26_2 C 0.9870(4) 0.5683(9) 0.5033(3)
H27_2 H 0.9476 0.5781 0.4769
H28_2 H 0.9802 0.5607 0.5336
O10_2 O 0.8451(2) 0.3709(6) 0.53634(16)
H47_2 H 0.872(2) 0.405(8) 0.5667(11)
H48_2 H 0.8661(10) 0.329(6) 0.5184(16)
O13_2 O 0.68986(18) 0.4521(5) 0.50780(15)
N7_2 N 0.7389(2) 0.3414(6) 0.42400(16)
N8_2 N 0.7611(2) 0.1586(6) 0.57600(16)
C1_2 C 0.8068(3) 0.9041(7) 0.4959(2)
C2_2 C 0.7507(3) 0.8351(7) 0.4989(3)
H3_2 H 0.7457 0.8757 0.5277
H4_2 H 0.7161 0.8685 0.4705
O6_2 O 0.65087(18) 0.6799(5) 0.50273(15)
C23_2 C 0.6932(3) 0.5959(7) 0.5041(2)
C24_2 C 0.7493(3) 0.6649(7) 0.5011(3)
H25_2 H 0.7543 0.6243 0.4723
H26_2 H 0.7839 0.6315 0.5295
Cd7_2 Cd 0.582808(18) 0.49102(5) 0.503552(13)
H27_3 H 0.5524 0.0781 0.0231
Cd4_2 Cd 0.582808(18) 0.50898(5) 0.003552(13)
O8_2 O 0.50472(19) 0.3379(6) 0.99624(16)
O9_3 O 0.42457(19) 0.2152(5) 0.99334(16)
C25_3 C 0.4778(3) 0.2139(7) 0.9949(2)
C26_3 C 0.5130(4) 0.0683(9) 0.9967(3)
H28_3 H 0.5198 0.0607 0.9664
O1_3 O 0.8451(2) 0.6291(6) 0.03634(16)
H1_3 H 0.872(2) 0.595(8) 0.0667(11)
H2_3 H 0.8661(10) 0.671(6) 0.0184(16)
O2_2 O 0.65087(18) 0.3201(5) 0.00273(15)
O3_2 O 0.68986(18) 0.5479(5) 0.00780(15)
O4_2 O 0.49528(19) 0.6621(6) 0.00376(16)
O5_2 O 0.57543(19) 0.7848(5) 0.00666(16)
N1_2 N 0.6150(2) 0.4697(6) 0.08776(17)
C1_3 C 0.6932(3) 0.4041(7) 0.0041(2)
C2_3 C 0.7493(3) 0.3351(7) 0.0011(3)
H4_3 H 0.7839 0.3685 0.0295
C3_3 C 0.5222(3) 0.7861(7) 0.0051(2)
C4_3 C 0.4870(4) 0.9317(9) 0.0033(3)
H6_3 H 0.4802 0.9393 0.0336
C5_2 C 0.6328(3) 0.3286(8) 0.1052(2)
H7_2 H 0.6304 0.2506 0.0831
C6_2 C 0.6543(3) 0.2944(8) 0.1540(2)
H8_2 H 0.6671 0.1954 0.1645
C7_2 C 0.6573(3) 0.4080(8) 0.1884(2)
C8_2 C 0.6384(3) 0.5544(8) 0.1697(2)
H9_2 H 0.6401 0.6349 0.1908
C9_2 C 0.6173(3) 0.5786(8) 0.1201(2)
H10_2 H 0.6038 0.6761 0.1083
C10_2 C 0.6799(4) 0.3647(9) 0.2421(2)
H11_2 H 0.7105 0.2857 0.2483
H12_2 H 0.6464 0.3213 0.2488
C11_2 C 0.7066(4) 0.4967(9) 0.2774(2)
H13_2 H 0.7442 0.5299 0.2751
H14_2 H 0.6787 0.5824 0.2687
C12_2 C 0.7186(3) 0.4467(8) 0.3295(2)
C13_2 C 0.6743(3) 0.4435(11) 0.3477(2)
H15_2 H 0.6358 0.4791 0.3285
C14_2 C 0.6848(3) 0.3889(9) 0.3940(2)
H16_2 H 0.6527 0.3853 0.4046
C15_2 C 0.7835(3) 0.3480(8) 0.4074(2)
H17_2 H 0.8219 0.3167 0.4283
C16_2 C 0.7764(3) 0.3978(9) 0.3617(2)
H18_2 H 0.8092 0.3994 0.3519
H25_3 H 0.7457 0.1243 0.0277
N3_2 N 0.5457(2) 0.5010(6) 0.91840(17)
H3_3 H 0.7543 0.3757 0.9723
H5_3 H 0.4476 0.9219 0.9769
C17_2 C 0.5225(3) 0.6244(8) 0.8901(2)
H19_2 H 0.5207 0.7163 0.9055
C18_2 C 0.5011(3) 0.6216(10) 0.8390(2)
H20_2 H 0.4867 0.7102 0.8208
C19_2 C 0.5017(3) 0.4831(10) 0.8158(2)
C20_2 C 0.5248(3) 0.3581(10) 0.8453(2)
H21_2 H 0.5259 0.2639 0.8310
C21_2 C 0.5466(3) 0.3695(8) 0.8960(2)
H22_2 H 0.5623 0.2828 0.9148
C22_2 C 0.4764(4) 0.4747(12) 0.7604(2)
H23_2 H 0.4523 0.3823 0.7502
H24_2 H 0.4497 0.5615 0.7474
O6_3 O 0.84913(18) 0.1799(5) 0.99727(15)
C23_3 C 0.8068(3) 0.0959(7) 0.9959(2)
C24_3 C 0.7507(3) 0.1649(7) 0.9989(3)
H26_3 H 0.7161 0.1315 0.9705
N4_2 N 0.4543(2) 0.5010(6) 0.58160(17)
C27_2 C 0.4775(3) 0.6244(8) 0.6099(2)
H29_2 H 0.4793 0.7163 0.5945
C28_2 C 0.4989(3) 0.6216(10) 0.6610(2)
H30_2 H 0.5133 0.7102 0.6792
C29_2 C 0.4983(3) 0.4831(10) 0.6842(2)
C30_2 C 0.4752(3) 0.3581(10) 0.6547(2)
H31_2 H 0.4741 0.2639 0.6690
C31_2 C 0.4534(3) 0.3695(8) 0.6040(2)
H32_2 H 0.4377 0.2828 0.5852
C32_2 C 0.5236(4) 0.4747(12) 0.7396(2)
H33_2 H 0.5477 0.3823 0.7498
H34_2 H 0.5503 0.5615 0.7526
Cd3_2 Cd 0.417192(18) 0.50898(5) 0.496448(13)
N5_2 N 0.3850(2) 0.4697(6) 0.41224(17)
C33_2 C 0.3672(3) 0.3286(8) 0.3948(2)
H35_2 H 0.3696 0.2506 0.4169
C34_2 C 0.3457(3) 0.2944(8) 0.3460(2)
H36_2 H 0.3329 0.1954 0.3355
C35_2 C 0.3427(3) 0.4080(8) 0.3116(2)
C36_2 C 0.3616(3) 0.5544(8) 0.3303(2)
H37_2 H 0.3599 0.6349 0.3092
C37_2 C 0.3827(3) 0.5786(8) 0.3799(2)
H38_2 H 0.3962 0.6761 0.3917
C38_2 C 0.3201(4) 0.3647(9) 0.2579(2)
H39_2 H 0.2895 0.2857 0.2517
H40_2 H 0.3536 0.3213 0.2512
C39_2 C 0.2934(4) 0.4967(9) 0.2226(2)
H41_2 H 0.2558 0.5299 0.2249
H42_2 H 0.3213 0.5824 0.2313
C40_2 C 0.2814(3) 0.4467(8) 0.1705(2)
C41_2 C 0.3257(3) 0.4435(11) 0.1523(2)
H43_2 H 0.3642 0.4791 0.1715
C42_2 C 0.3152(3) 0.3889(9) 0.1060(2)
H44_2 H 0.3473 0.3853 0.0954
C43_2 C 0.2165(3) 0.3480(8) 0.0926(2)
H45_2 H 0.1781 0.3167 0.0717
C44_2 C 0.2236(3) 0.3978(9) 0.1383(2)
H46_2 H 0.1908 0.3994 0.1481
O10_3 O 0.6549(2) 0.8709(6) 0.96366(16)
H47_3 H 0.628(2) 0.905(8) 0.9333(11)
H48_3 H 0.6339(10) 0.829(6) 0.9816(16)
O11_2 O 0.34913(18) 0.3201(5) 0.49727(15)
O12_2 O 0.31014(18) 0.5479(5) 0.49220(15)
O13_3 O 0.81014(18) 0.9521(5) 0.99220(15)
O14_2 O 0.50472(19) 0.6621(6) 0.49624(16)
O16_2 O 0.49528(19) 0.3379(6) 0.50376(16)
O17_2 O 0.42457(19) 0.7848(5) 0.49334(16)
N8_3 N 0.7389(2) 0.6586(6) 0.92400(16)
O9_4 O 0.57543(19) 0.2152(5) 0.50666(16)
C25_4 C 0.5222(3) 0.2139(7) 0.5051(2)
C26_4 C 0.4870(4) 0.0683(9) 0.5033(3)
H27_4 H 0.4476 0.0781 0.4769
H28_4 H 0.4802 0.0607 0.5336
O1_4 O 0.1549(2) 0.6291(6) 0.46366(16)
H1_4 H 0.128(2) 0.595(8) 0.4333(11)
H2_4 H 0.1339(10) 0.671(6) 0.4816(16)
C1_4 C 0.3068(3) 0.4041(7) 0.4959(2)
C2_4 C 0.2507(3) 0.3351(7) 0.4989(3)
H3_4 H 0.2457 0.3757 0.5277
H4_4 H 0.2161 0.3685 0.4705
C3_4 C 0.4778(3) 0.7861(7) 0.4949(2)
C4_4 C 0.5130(4) 0.9317(9) 0.4967(3)
H5_4 H 0.5524 0.9219 0.5231
H6_4 H 0.5198 0.9393 0.4664
O6_4 O 0.15087(18) 0.1799(5) 0.50273(15)
C23_4 C 0.1932(3) 0.0959(7) 0.5041(2)
C24_4 C 0.2493(3) 0.1649(7) 0.5011(3)
H25_4 H 0.2543 0.1243 0.4723
H26_4 H 0.2839 0.1315 0.5295
O10_4 O 0.3451(2) 0.8709(6) 0.53634(16)
H47_4 H 0.372(2) 0.905(8) 0.5667(11)
H48_4 H 0.3661(10) 0.829(6) 0.5184(16)
O13_4 O 0.18986(18) 0.9521(5) 0.50780(15)
N8_4 N 0.2611(2) 0.6586(6) 0.57600(16)
C22_3 C 0.0236(4) 0.0253(12) 0.2396(2)
H23_3 H 0.0477 0.1177 0.2498
C29_3 C 0.0017(3) 0.0169(10) 0.3158(2)
C30_3 C 0.0248(3) 0.1419(10) 0.3453(2)
H31_3 H 0.0259 0.2361 0.3310
C31_3 C 0.0466(3) 0.1305(8) 0.3960(2)
H32_3 H 0.0623 0.2172 0.4148
N5_3 N 0.1150(2) 0.0303(6) 0.58776(17)
C33_3 C 0.1328(3) 0.1714(8) 0.6052(2)
H35_3 H 0.1304 0.2494 0.5831
C34_3 C 0.1543(3) 0.2056(8) 0.6540(2)
H36_3 H 0.1671 0.3046 0.6645
C35_3 C 0.1573(3) 0.0920(8) 0.6884(2)
C38_3 C 0.1799(4) 0.1353(9) 0.7421(2)
H39_3 H 0.2105 0.2143 0.7483
H40_3 H 0.1464 0.1787 0.7488
C39_3 C 0.2066(4) 0.0033(9) 0.7774(2)
C40_3 C 0.2186(3) 0.0533(8) 0.8295(2)
C41_3 C 0.1743(3) 0.0565(11) 0.8477(2)
H43_3 H 0.1358 0.0209 0.8285
C42_3 C 0.1848(3) 0.1111(9) 0.8940(2)
H44_3 H 0.1527 0.1147 0.9046
C43_3 C 0.2835(3) 0.1520(8) 0.9074(2)
H45_3 H 0.3219 0.1833 0.9283
C44_3 C 0.2764(3) 0.1022(9) 0.8617(2)
H46_3 H 0.3092 0.1006 0.8519
H20_3 H 0.0133 0.7898 0.1792
H24_3 H 0.0503 0.9385 0.2526
N4_3 N 0.0457(2) 0.9990(6) 0.41840(17)
C27_3 C 0.0225(3) 0.8756(8) 0.3901(2)
H29_3 H 0.0207 0.7837 0.4055
C28_3 C 0.0011(3) 0.8784(10) 0.3390(2)
C36_3 C 0.1384(3) 0.9456(8) 0.6697(2)
H37_3 H 0.1401 0.8651 0.6908
C37_3 C 0.1173(3) 0.9214(8) 0.6201(2)
H38_3 H 0.1038 0.8239 0.6083
H41_3 H 0.2442 0.9701 0.7751
H42_3 H 0.1787 0.9176 0.7687
C19_3 C 0.9983(3) 0.0169(10) 0.1842(2)
C20_3 C 0.9752(3) 0.1419(10) 0.1547(2)
H21_3 H 0.9741 0.2361 0.1690
C21_3 C 0.9534(3) 0.1305(8) 0.1040(2)
H22_3 H 0.9377 0.2172 0.0852
C32_3 C 0.9764(4) 0.0253(12) 0.2604(2)
H33_3 H 0.9523 0.1177 0.2502
N1_3 N 0.8850(2) 0.0303(6) 0.91224(17)
C5_3 C 0.8672(3) 0.1714(8) 0.8948(2)
H7_3 H 0.8696 0.2494 0.9169
C6_3 C 0.8457(3) 0.2056(8) 0.8460(2)
H8_3 H 0.8329 0.3046 0.8355
C7_3 C 0.8427(3) 0.0920(8) 0.8116(2)
C10_3 C 0.8201(4) 0.1353(9) 0.7579(2)
H11_3 H 0.7895 0.2143 0.7517
H12_3 H 0.8536 0.1787 0.7512
C11_3 C 0.7934(4) 0.0033(9) 0.7226(2)
C12_3 C 0.7814(3) 0.0533(8) 0.6705(2)
C13_3 C 0.8257(3) 0.0565(11) 0.6523(2)
H15_3 H 0.8642 0.0209 0.6715
C14_3 C 0.8152(3) 0.1111(9) 0.6060(2)
H16_3 H 0.8473 0.1147 0.5954
C15_3 C 0.7165(3) 0.1520(8) 0.5926(2)
H17_3 H 0.6781 0.1833 0.5717
C16_3 C 0.7236(3) 0.1022(9) 0.6383(2)
H18_3 H 0.6908 0.1006 0.6481
N3_3 N 0.9543(2) 0.9990(6) 0.08160(17)
C17_3 C 0.9775(3) 0.8756(8) 0.1099(2)
H19_3 H 0.9793 0.7837 0.0945
C18_3 C 0.9989(3) 0.8784(10) 0.1610(2)
H30_3 H 0.9867 0.7898 0.3208
H34_3 H 0.9497 0.9385 0.2474
C8_3 C 0.8616(3) 0.9456(8) 0.8303(2)
H9_3 H 0.8599 0.8651 0.8092
C9_3 C 0.8827(3) 0.9214(8) 0.8799(2)
H10_3 H 0.8962 0.8239 0.8917
H13_3 H 0.7558 0.9701 0.7249
H14_3 H 0.8213 0.9176 0.7313
N3_4 N 0.4543(2) 0.4990(6) 0.08160(17)
C17_4 C 0.4775(3) 0.3756(8) 0.1099(2)
H19_4 H 0.4793 0.2837 0.0945
C18_4 C 0.4989(3) 0.3784(10) 0.1610(2)
H20_4 H 0.5133 0.2898 0.1792
C19_4 C 0.4983(3) 0.5169(10) 0.1842(2)
C20_4 C 0.4752(3) 0.6419(10) 0.1547(2)
H21_4 H 0.4741 0.7361 0.1690
C21_4 C 0.4534(3) 0.6305(8) 0.1040(2)
H22_4 H 0.4377 0.7172 0.0852
C22_4 C 0.5236(4) 0.5253(12) 0.2396(2)
H23_4 H 0.5477 0.6177 0.2498
H24_4 H 0.5503 0.4385 0.2526
N4_4 N 0.5457(2) 0.4990(6) 0.41840(17)
C27_4 C 0.5225(3) 0.3756(8) 0.3901(2)
H29_4 H 0.5207 0.2837 0.4055
C28_4 C 0.5011(3) 0.3784(10) 0.3390(2)
H30_4 H 0.4867 0.2898 0.3208
C29_4 C 0.5017(3) 0.5169(10) 0.3158(2)
C30_4 C 0.5248(3) 0.6419(10) 0.3453(2)
H31_4 H 0.5259 0.7361 0.3310
C31_4 C 0.5466(3) 0.6305(8) 0.3960(2)
H32_4 H 0.5623 0.7172 0.4148
C32_4 C 0.4764(4) 0.5253(12) 0.2604(2)
H33_4 H 0.4523 0.6177 0.2502
H34_4 H 0.4497 0.4385 0.2474
N5_4 N 0.6150(2) 0.5303(6) 0.58776(17)
C33_4 C 0.6328(3) 0.6714(8) 0.6052(2)
H35_4 H 0.6304 0.7494 0.5831
C34_4 C 0.6543(3) 0.7056(8) 0.6540(2)
H36_4 H 0.6671 0.8046 0.6645
C35_4 C 0.6573(3) 0.5920(8) 0.6884(2)
C36_4 C 0.6384(3) 0.4456(8) 0.6697(2)
H37_4 H 0.6401 0.3651 0.6908
C37_4 C 0.6173(3) 0.4214(8) 0.6201(2)
H38_4 H 0.6038 0.3239 0.6083
C38_4 C 0.6799(4) 0.6353(9) 0.7421(2)
H39_4 H 0.7105 0.7143 0.7483
H40_4 H 0.6464 0.6787 0.7488
C39_4 C 0.7066(4) 0.5033(9) 0.7774(2)
H41_4 H 0.7442 0.4701 0.7751
H42_4 H 0.6787 0.4176 0.7687
C40_4 C 0.7186(3) 0.5533(8) 0.8295(2)
C41_4 C 0.6743(3) 0.5565(11) 0.8477(2)
H43_4 H 0.6358 0.5209 0.8285
C42_4 C 0.6848(3) 0.6111(9) 0.8940(2)
H44_4 H 0.6527 0.6147 0.9046
C43_4 C 0.7835(3) 0.6520(8) 0.9074(2)
H45_4 H 0.8219 0.6833 0.9283
C44_4 C 0.7764(3) 0.6022(9) 0.8617(2)
H46_4 H 0.8092 0.6006 0.8519
N1_4 N 0.3850(2) 0.5303(6) 0.91224(17)
C5_4 C 0.3672(3) 0.6714(8) 0.8948(2)
H7_4 H 0.3696 0.7494 0.9169
C6_4 C 0.3457(3) 0.7056(8) 0.8460(2)
H8_4 H 0.3329 0.8046 0.8355
C7_4 C 0.3427(3) 0.5920(8) 0.8116(2)
C8_4 C 0.3616(3) 0.4456(8) 0.8303(2)
H9_4 H 0.3599 0.3651 0.8092
C9_4 C 0.3827(3) 0.4214(8) 0.8799(2)
H10_4 H 0.3962 0.3239 0.8917
C10_4 C 0.3201(4) 0.6353(9) 0.7579(2)
H11_4 H 0.2895 0.7143 0.7517
H12_4 H 0.3536 0.6787 0.7512
C11_4 C 0.2934(4) 0.5033(9) 0.7226(2)
H13_4 H 0.2558 0.4701 0.7249
H14_4 H 0.3213 0.4176 0.7313
C12_4 C 0.2814(3) 0.5533(8) 0.6705(2)
C13_4 C 0.3257(3) 0.5565(11) 0.6523(2)
H15_4 H 0.3642 0.5209 0.6715
C14_4 C 0.3152(3) 0.6111(9) 0.6060(2)
H16_4 H 0.3473 0.6147 0.5954
C15_4 C 0.2165(3) 0.6520(8) 0.5926(2)
H17_4 H 0.1781 0.6833 0.5717
C16_4 C 0.2236(3) 0.6022(9) 0.6383(2)
H18_4 H 0.1908 0.6006 0.6481
N9 N 0.0757(6) 0.4723(12) 0.1770(5)
O18 O 0.1289(6) 0.4310(11) 0.1996(4)
O19 O 0.0456(6) 0.5122(12) 0.2003(5)
O20 O 0.0570(8) 0.4691(14) 0.1353(4)
N9_2 N 0.9243(6) 0.4723(12) 0.3230(5)
O18_2 O 0.8711(6) 0.4310(11) 0.3004(4)
O19_2 O 0.9544(6) 0.5122(12) 0.2997(5)
O20_2 O 0.9430(8) 0.4691(14) 0.3647(4)
O19_3 O 0.5456(6) 0.0122(12) 0.2003(5)
N9_3 N 0.5757(6) 0.9723(12) 0.1770(5)
O18_3 O 0.6289(6) 0.9310(11) 0.1996(4)
O20_3 O 0.5570(8) 0.9691(14) 0.1353(4)
O19_4 O 0.4544(6) 0.0122(12) 0.2997(5)
N9_4 N 0.4243(6) 0.9723(12) 0.3230(5)
O18_4 O 0.3711(6) 0.9310(11) 0.3004(4)
O20_4 O 0.4430(8) 0.9691(14) 0.3647(4)
N9_5 N 0.9243(6) 0.5277(12) 0.8230(5)
O18_5 O 0.8711(6) 0.5690(11) 0.8004(4)
O19_5 O 0.9544(6) 0.4878(12) 0.7997(5)
O20_5 O 0.9430(8) 0.5309(14) 0.8647(4)
N9_6 N 0.0757(6) 0.5277(12) 0.6770(5)
O18_6 O 0.1289(6) 0.5690(11) 0.6996(4)
O19_6 O 0.0456(6) 0.4878(12) 0.7003(5)
O20_6 O 0.0570(8) 0.5309(14) 0.6353(4)
N9_7 N 0.4243(6) 0.0277(12) 0.8230(5)
O18_7 O 0.3711(6) 0.0690(11) 0.8004(4)
O20_7 O 0.4430(8) 0.0309(14) 0.8647(4)
O19_7 O 0.4544(6) 0.9878(12) 0.7997(5)
N9_8 N 0.5757(6) 0.0277(12) 0.6770(5)
O18_8 O 0.6289(6) 0.0690(11) 0.6996(4)
O20_8 O 0.5570(8) 0.0309(14) 0.6353(4)
O19_8 O 0.5456(6) 0.9878(12) 0.7003(5)
loop_
_geom_bond_atom_site_label_1
_geom_bond_atom_site_label_2
_geom_bond_site_symmetry_1
_geom_bond_site_symmetry_2
Cd2 O1 1_555 1_555
O1 H1 1_555 1_555
H2 O1 1_555 1_555
O3 Cd4 1_555 1_555
O5 Cd4 1_555 1_555
H9 C8 1_555 1_555
H10 C9 1_555 1_555
N7 Cd2 1_555 1_555
Cd2 O3 1_555 1_555
O5 C3 1_555 1_555
C8 C9 1_555 1_555
C17 N3 1_555 1_555
H19 C17 1_555 1_555
C18 C17 1_555 1_555
H28 C26 1_555 1_555
O10 Cd2_2 1_555 1_555
H47 O10 1_555 1_555
H48 O10 1_555 1_555
O13 Cd2_2 1_555 1_555
N8 Cd2_2 1_555 1_555
O2 C1 1_555 1_555
N2 C14 1_555 1_555
C2 C1 1_555 1_555
H4 C2 1_555 1_555
C5 N1 1_555 1_555
H7 C5 1_555 1_555
C6 C5 1_555 1_555
H8 C6 1_555 1_555
C7 C6 1_555 1_555
C10 C7 1_555 1_555
H11 C10 1_555 1_555
H12 C10 1_555 1_555
C11 C10 1_555 1_555
C12 C11 1_555 1_555
C13 C12 1_555 1_555
H15 C13 1_555 1_555
C14 C13 1_555 1_555
H16 C14 1_555 1_555
C15 N2 1_555 1_555
H17 C15 1_555 1_555
C16 C12 1_555 1_555
H18 C16 1_555 1_555
Cd10 N2 1_555 1_555
C15 C16 1_555 1_555
C20 C19 1_555 1_555
H21 C20 1_555 1_555
H22 C21 1_555 1_555
O6 C23 1_555 1_555
O13 C23 1_555 1_555
C23 C24 1_555 1_555
H26 C24 1_555 1_555
H33 C32 1_555 1_555
Cd7 O6 1_555 1_555
C20 C21 1_555 1_555
O13 Cd7 1_555 1_555
H6 C4 1_555 1_555
O9 C25 1_555 1_555
N4 C27 1_555 1_555
C27 H29 1_555 1_555
C28 C27 1_555 1_555
Cd3 N4 1_555 1_555
H37 C36 1_555 1_555
H38 C37 1_555 1_555
O12 Cd3 1_555 1_555
O17 Cd3 1_555 1_555
O9 Cd6 1_555 1_555
C36 C37 1_555 1_555
H23 C22 1_555 1_555
C30 C29 1_555 1_555
H31 C30 1_555 1_555
H32 C31 1_555 1_555
N6 C42 1_555 1_555
C33 N5 1_555 1_555
H35 C33 1_555 1_555
C34 C33 1_555 1_555
H36 C34 1_555 1_555
C35 C34 1_555 1_555
C38 C35 1_555 1_555
H39 C38 1_555 1_555
H40 C38 1_555 1_555
C39 C38 1_555 1_555
C40 C39 1_555 1_555
C41 C40 1_555 1_555
H43 C41 1_555 1_555
C42 C41 1_555 1_555
H44 C42 1_555 1_555
C43 N6 1_555 1_555
H45 C43 1_555 1_555
C44 C40 1_555 1_555
H46 C44 1_555 1_555
Cd9 N6 1_555 1_555
C30 C31 1_555 1_555
C43 C44 1_555 1_555
H5_2 C4_2 1_555 1_555
H6_2 C4_2 1_555 1_555
O9_2 C25_2 1_555 1_555
O9_2 Cd6_2 1_555 1_555
Cd2_3 O1_2 1_555 1_555
O1_2 H1_2 1_555 1_555
H2_2 O1_2 1_555 1_555
H27_2 C26_2 1_555 1_555
H28_2 C26_2 1_555 1_555
O10_2 Cd2_3 1_555 1_555
H47_2 O10_2 1_555 1_555
H48_2 O10_2 1_555 1_555
O13_2 Cd2_3 1_555 1_555
N7_2 Cd2_3 1_555 1_555
N8_2 Cd2_3 1_555 1_555
Cd2_3 O12 1_555 1_555
O17 C3_2 1_555 1_555
O11 C1_2 1_555 1_555
C2_2 C1_2 1_555 1_555
H3_2 C2_2 1_555 1_555
H4_2 C2_2 1_555 1_555
O6_2 C23_2 1_555 1_555
O13_2 C23_2 1_555 1_555
C23_2 C24_2 1_555 1_555
C24_2 C2_2 1_555 1_555
H25_2 C24_2 1_555 1_555
H26_2 C24_2 1_555 1_555
Cd7_2 O6_2 1_555 1_555
O13_2 Cd7_2 1_555 1_555
O8_2 C25_3 1_555 1_555
O9_3 C25_3 1_555 1_555
C25_3 C26_3 1_555 1_555
H28_3 C26_3 1_555 1_555
Cd7 O8_2 1_555 1_555
O9_3 Cd7 1_555 1_555
Cd4_2 O2_2 1_555 1_555
Cd9 O1_3 1_555 1_555
O1_3 H1_3 1_555 1_555
H2_3 O1_3 1_555 1_555
O2_2 C1_3 1_555 1_555
O3_2 Cd4_2 1_555 1_555
O4_2 Cd4_2 1_555 1_555
O5_2 Cd4_2 1_555 1_555
N1_2 Cd4_2 1_555 1_555
N7_2 C14_2 1_555 1_555
C1_3 O3_2 1_555 1_555
C2_3 C1_3 1_555 1_555
H4_3 C2_3 1_555 1_555
C3_3 O4_2 1_555 1_555
C4_3 C3_3 1_555 1_555
H6_3 C4_3 1_555 1_555
C5_2 N1_2 1_555 1_555
H7_2 C5_2 1_555 1_555
C6_2 C5_2 1_555 1_555
H8_2 C6_2 1_555 1_555
C7_2 C6_2 1_555 1_555
C8_2 C7_2 1_555 1_555
H9_2 C8_2 1_555 1_555
C9_2 N1_2 1_555 1_555
H10_2 C9_2 1_555 1_555
C10_2 C7_2 1_555 1_555
H11_2 C10_2 1_555 1_555
H12_2 C10_2 1_555 1_555
C11_2 C10_2 1_555 1_555
H13_2 C11_2 1_555 1_555
H14_2 C11_2 1_555 1_555
C12_2 C11_2 1_555 1_555
C13_2 C12_2 1_555 1_555
H15_2 C13_2 1_555 1_555
C14_2 C13_2 1_555 1_555
H16_2 C14_2 1_555 1_555
C15_2 N7_2 1_555 1_555
H17_2 C15_2 1_555 1_555
C16_2 C12_2 1_555 1_555
H18_2 C16_2 1_555 1_555
Cd9 O3_2 1_555 1_555
O5_2 C3_3 1_555 1_555
C8_2 C9_2 1_555 1_555
C15_2 C16_2 1_555 1_555
C17_2 N3_2 1_555 1_555
H19_2 C17_2 1_555 1_555
C18_2 C17_2 1_555 1_555
H20_2 C18_2 1_555 1_555
C19_2 C18_2 1_555 1_555
C20_2 C19_2 1_555 1_555
H21_2 C20_2 1_555 1_555
C21_2 N3_2 1_555 1_555
H22_2 C21_2 1_555 1_555
C22_2 C19_2 1_555 1_555
H23_2 C22_2 1_555 1_555
H24_2 C22_2 1_555 1_555
O6_3 C23_3 1_555 1_555
C23_3 C24_3 1_555 1_555
H26_3 C24_3 1_555 1_555
N4_2 C27_2 1_555 1_555
C27_2 H29_2 1_555 1_555
C28_2 C27_2 1_555 1_555
H30_2 C28_2 1_555 1_555
C29_2 C28_2 1_555 1_555
C30_2 C29_2 1_555 1_555
H31_2 C30_2 1_555 1_555
C31_2 N4_2 1_555 1_555
H32_2 C31_2 1_555 1_555
C32_2 C22_2 1_555 1_555
H33_2 C32_2 1_555 1_555
H34_2 C32_2 1_555 1_555
Cd3_2 N4_2 1_555 1_555
N5_2 Cd3_2 1_555 1_555
N7 C42_2 1_555 1_555
C33_2 N5_2 1_555 1_555
H35_2 C33_2 1_555 1_555
C34_2 C33_2 1_555 1_555
H36_2 C34_2 1_555 1_555
C35_2 C34_2 1_555 1_555
C36_2 C35_2 1_555 1_555
H37_2 C36_2 1_555 1_555
C37_2 N5_2 1_555 1_555
H38_2 C37_2 1_555 1_555
C38_2 C35_2 1_555 1_555
H39_2 C38_2 1_555 1_555
H40_2 C38_2 1_555 1_555
C39_2 C38_2 1_555 1_555
H41_2 C39_2 1_555 1_555
H42_2 C39_2 1_555 1_555
C40_2 C39_2 1_555 1_555
C41_2 C40_2 1_555 1_555
H43_2 C41_2 1_555 1_555
C42_2 C41_2 1_555 1_555
H44_2 C42_2 1_555 1_555
C43_2 N7 1_555 1_555
H45_2 C43_2 1_555 1_555
C44_2 C40_2 1_555 1_555
H46_2 C44_2 1_555 1_555
O10_3 Cd9_2 1_555 1_555
H47_3 O10_3 1_555 1_555
H48_3 O10_3 1_555 1_555
O11_2 Cd3_2 1_555 1_555
O12_2 Cd3_2 1_555 1_555
O13_3 Cd9_2 1_555 1_555
O14_2 Cd3_2 1_555 1_555
O16_2 Cd3_2 1_555 1_555
O17_2 Cd3_2 1_555 1_555
N8_3 Cd9_2 1_555 1_555
C20_2 C21_2 1_555 1_555
C29_2 C32_2 1_555 1_555
C30_2 C31_2 1_555 1_555
C36_2 C37_2 1_555 1_555
C43_2 C44_2 1_555 1_555
O13_3 Cd6 1_555 1_555
O16_2 C25_4 1_555 1_555
O9_4 C25_4 1_555 1_555
C25_4 C26_4 1_555 1_555
H27_4 C26_4 1_555 1_555
H28_4 C26_4 1_555 1_555
Cd7_2 O16_2 1_555 1_555
O9_4 Cd7_2 1_555 1_555
Cd10 O1_4 1_555 1_555
O1_4 H1_4 1_555 1_555
H2_4 O1_4 1_555 1_555
O11_2 C1_4 1_555 1_555
C1_4 O12_2 1_555 1_555
C2_4 C1_4 1_555 1_555
H3_4 C2_4 1_555 1_555
H4_4 C2_4 1_555 1_555
C3_4 O14_2 1_555 1_555
C4_4 C3_4 1_555 1_555
H5_4 C4_4 1_555 1_555
H6_4 C4_4 1_555 1_555
O6_4 C23_4 1_555 1_555
C23_4 C24_4 1_555 1_555
C24_4 C2_4 1_555 1_555
H25_4 C24_4 1_555 1_555
H26_4 C24_4 1_555 1_555
O10_4 Cd10 1_555 1_555
H47_4 O10_4 1_555 1_555
H48_4 O10_4 1_555 1_555
Cd7_2 O14_2 1_555 1_555
O13_4 Cd10 1_555 1_555
N8_4 Cd10 1_555 1_555
Cd10 O12_2 1_555 1_555
O17_2 C3_4 1_555 1_555
O13_4 Cd6_2 1_555 1_555
H23_3 C22_3 1_555 1_555
C30_3 C29_3 1_555 1_555
H31_3 C30_3 1_555 1_555
H32_3 C31_3 1_555 1_555
N8 C42_3 1_555 1_555
C33_3 N5_3 1_555 1_555
H35_3 C33_3 1_555 1_555
C34_3 C33_3 1_555 1_555
H36_3 C34_3 1_555 1_555
C35_3 C34_3 1_555 1_555
C38_3 C35_3 1_555 1_555
H39_3 C38_3 1_555 1_555
H40_3 C38_3 1_555 1_555
C39_3 C38_3 1_555 1_555
C40_3 C39_3 1_555 1_555
C41_3 C40_3 1_555 1_555
H43_3 C41_3 1_555 1_555
C42_3 C41_3 1_555 1_555
H44_3 C42_3 1_555 1_555
C43_3 N8 1_555 1_555
H45_3 C43_3 1_555 1_555
C44_3 C40_3 1_555 1_555
H46_3 C44_3 1_555 1_555
C30_3 C31_3 1_555 1_555
C43_3 C44_3 1_555 1_555
N4_3 C27_3 1_555 1_555
C27_3 H29_3 1_555 1_555
C28_3 C27_3 1_555 1_555
Cd6_2 N4_3 1_555 1_555
H37_3 C36_3 1_555 1_555
H38_3 C37_3 1_555 1_555
C36_3 C37_3 1_555 1_555
C20_3 C19_3 1_555 1_555
H21_3 C20_3 1_555 1_555
H22_3 C21_3 1_555 1_555
H33_3 C32_3 1_555 1_555
C20_3 C21_3 1_555 1_555
N8_2 C14_3 1_555 1_555
C5_3 N1_3 1_555 1_555
H7_3 C5_3 1_555 1_555
C6_3 C5_3 1_555 1_555
H8_3 C6_3 1_555 1_555
C7_3 C6_3 1_555 1_555
C10_3 C7_3 1_555 1_555
H11_3 C10_3 1_555 1_555
H12_3 C10_3 1_555 1_555
C11_3 C10_3 1_555 1_555
C12_3 C11_3 1_555 1_555
C13_3 C12_3 1_555 1_555
H15_3 C13_3 1_555 1_555
C14_3 C13_3 1_555 1_555
H16_3 C14_3 1_555 1_555
C15_3 N8_2 1_555 1_555
H17_3 C15_3 1_555 1_555
C16_3 C12_3 1_555 1_555
H18_3 C16_3 1_555 1_555
C15_3 C16_3 1_555 1_555
C17_3 N3_3 1_555 1_555
H19_3 C17_3 1_555 1_555
C18_3 C17_3 1_555 1_555
H9_3 C8_3 1_555 1_555
H10_3 C9_3 1_555 1_555
C8_3 C9_3 1_555 1_555
C17_4 N3_4 1_555 1_555
H19_4 C17_4 1_555 1_555
C18_4 C17_4 1_555 1_555
H20_4 C18_4 1_555 1_555
C19_4 C18_4 1_555 1_555
C20_4 C19_4 1_555 1_555
H21_4 C20_4 1_555 1_555
C21_4 N3_4 1_555 1_555
H22_4 C21_4 1_555 1_555
C22_4 C19_4 1_555 1_555
H23_4 C22_4 1_555 1_555
H24_4 C22_4 1_555 1_555
N4_4 C27_4 1_555 1_555
C27_4 H29_4 1_555 1_555
C28_4 C27_4 1_555 1_555
H30_4 C28_4 1_555 1_555
C29_4 C28_4 1_555 1_555
C30_4 C29_4 1_555 1_555
H31_4 C30_4 1_555 1_555
C31_4 N4_4 1_555 1_555
H32_4 C31_4 1_555 1_555
C32_4 C22_4 1_555 1_555
H33_4 C32_4 1_555 1_555
H34_4 C32_4 1_555 1_555
Cd7_2 N4_4 1_555 1_555
N5_4 Cd7_2 1_555 1_555
N8_3 C42_4 1_555 1_555
C33_4 N5_4 1_555 1_555
H35_4 C33_4 1_555 1_555
C34_4 C33_4 1_555 1_555
H36_4 C34_4 1_555 1_555
C35_4 C34_4 1_555 1_555
C36_4 C35_4 1_555 1_555
H37_4 C36_4 1_555 1_555
C37_4 N5_4 1_555 1_555
H38_4 C37_4 1_555 1_555
C38_4 C35_4 1_555 1_555
H39_4 C38_4 1_555 1_555
H40_4 C38_4 1_555 1_555
C39_4 C38_4 1_555 1_555
H41_4 C39_4 1_555 1_555
H42_4 C39_4 1_555 1_555
C40_4 C39_4 1_555 1_555
C41_4 C40_4 1_555 1_555
H43_4 C41_4 1_555 1_555
C42_4 C41_4 1_555 1_555
H44_4 C42_4 1_555 1_555
C43_4 N8_3 1_555 1_555
H45_4 C43_4 1_555 1_555
C44_4 C40_4 1_555 1_555
H46_4 C44_4 1_555 1_555
C20_4 C21_4 1_555 1_555
C29_4 C32_4 1_555 1_555
C30_4 C31_4 1_555 1_555
C36_4 C37_4 1_555 1_555
C43_4 C44_4 1_555 1_555
N1_4 Cd7 1_555 1_555
N8_4 C14_4 1_555 1_555
C5_4 N1_4 1_555 1_555
H7_4 C5_4 1_555 1_555
C6_4 C5_4 1_555 1_555
H8_4 C6_4 1_555 1_555
C7_4 C6_4 1_555 1_555
C8_4 C7_4 1_555 1_555
H9_4 C8_4 1_555 1_555
C9_4 N1_4 1_555 1_555
H10_4 C9_4 1_555 1_555
C10_4 C7_4 1_555 1_555
H11_4 C10_4 1_555 1_555
H12_4 C10_4 1_555 1_555
C11_4 C10_4 1_555 1_555
H13_4 C11_4 1_555 1_555
H14_4 C11_4 1_555 1_555
C12_4 C11_4 1_555 1_555
C13_4 C12_4 1_555 1_555
H15_4 C13_4 1_555 1_555
C14_4 C13_4 1_555 1_555
H16_4 C14_4 1_555 1_555
C15_4 N8_4 1_555 1_555
H17_4 C15_4 1_555 1_555
C16_4 C12_4 1_555 1_555
H18_4 C16_4 1_555 1_555
C8_4 C9_4 1_555 1_555
C15_4 C16_4 1_555 1_555
N9 O18 1_555 1_555
O19 N9 1_555 1_555
O20 N9 1_555 1_555
N9_2 O18_2 1_555 1_555
O19_2 N9_2 1_555 1_555
O20_2 N9_2 1_555 1_555
N9_3 O18_3 1_555 1_555
O20_3 N9_3 1_555 1_555
N9_4 O18_4 1_555 1_555
O20_4 N9_4 1_555 1_555
N9_5 O18_5 1_555 1_555
O19_5 N9_5 1_555 1_555
O20_5 N9_5 1_555 1_555
N9_6 O18_6 1_555 1_555
O19_6 N9_6 1_555 1_555
O20_6 N9_6 1_555 1_555
N9_7 O18_7 1_555 1_555
O20_7 N9_7 1_555 1_555
N9_8 O18_8 1_555 1_555
O20_8 N9_8 1_555 1_555

#END
