
###############################################################################
#
# This file contains modified crystal structure data generated from the
# MOF subset of the Cambridge Structural Database (CSD) v543 
# hosted by the Cambridge Crystallographic Data Centre (CCDC).
#
# This work is licensed under the Creative Commons
# Attribution-NonCommercial-ShareAlike 4.0 International License.
# To view a copy of this license, visit
# http://creativecommons.org/licenses/by-nc-sa/4.0/
# or send a letter to
# Creative Commons, PO Box 1866, Mountain View, CA 94042, USA.
#
# CIF created using the CSD Python API on 29 September 2022
# The structure has been converted into the P1 space group
# The structure has a 3D framework
# The original CSD entry HAHTIX is in the monoclinic crystal system
# The framework has been calculated to contain at least 10.0% void space
# The void calculation uses a probe of radius 1.32A, grid spacing 0.4
# The framework is charged, counterions have been retained in the structure
#
###############################################################################

data_HAHTIX
_chemical_formula_moiety         '(C228 H164 Ag4 Cl4 Fe4 N8 O36 P8)n'
_symmetry_cell_setting           triclinic
_symmetry_space_group_name_H-M   'P 1'
_symmetry_Int_Tables_number      1
_space_group_name_Hall           'P 1'
loop_
_symmetry_equiv_pos_site_id
_symmetry_equiv_pos_as_xyz
1 x,y,z
_cell_length_a                   16.3537(19)
_cell_length_b                   18.213(3)
_cell_length_c                   26.477(4)
_cell_angle_alpha                90
_cell_angle_beta                 94.678(2)
_cell_angle_gamma                90
_cell_volume                     7859.9
loop_
_atom_site_label
_atom_site_type_symbol
_atom_site_fract_x
_atom_site_fract_y
_atom_site_fract_z
N1 N 0.0692(4) 0.7624(3) 0.6165(2)
C28 C 0.0057(4) 0.7363(4) 0.6118(3)
C39 C 0.0120(4) 0.2344(4) 0.5294(2)
C40 C 0.0909(4) 0.2506(4) 0.5512(3)
H26 H 0.113435 0.298179 0.547620
C41 C 0.1356(4) 0.1973(4) 0.5778(2)
H27 H 0.189335 0.207927 0.592394
C42 C 0.1024(4) 0.1282(4) 0.5833(2)
H28 H 0.133644 0.091279 0.601371
C43 C 0.0241(4) 0.1127(4) 0.5628(2)
H29 H 0.001674 0.065122 0.566894
Ag2 Ag 0.14783(2) 0.86453(2) 0.58386(2)
Fe1 Fe 0.55711(5) 0.52044(4) 0.54698(3)
P1 P 0.26615(8) 0.88273(7) 0.64528(5)
P2 P 0.87355(9) 0.14733(8) 0.50830(5)
O1 O 0.4991(2) 0.6152(2) 0.55826(15)
O2 O 0.6622(2) 0.5786(2) 0.55548(15)
O3 O 0.6246(2) 0.4301(2) 0.54562(14)
O4 O 0.5532(2) 0.5018(2) 0.62037(15)
O5 O 0.5521(2) 0.52533(19) 0.47187(14)
N2 N 0.4665(4) 0.4420(3) 0.8877(2)
C1 C 0.5284(3) 0.6698(3) 0.5842(2)
C2 C 0.6118(3) 0.6817(3) 0.5976(2)
H1 H 0.626817 0.722247 0.618993
C3 C 0.6744(3) 0.6374(3) 0.5813(2)
C4 C 0.3481(3) 0.8216(3) 0.62947(19)
C5 C 0.3292(3) 0.7475(3) 0.6226(2)
H2 H 0.275616 0.730537 0.627954
C6 C 0.3874(3) 0.6984(3) 0.6082(2)
H3 H 0.374047 0.647882 0.604092
C7 C 0.4665(3) 0.7233(3) 0.59949(19)
C8 C 0.4853(3) 0.7972(3) 0.6061(2)
H4 H 0.538943 0.814225 0.601135
C9 C 0.4258(3) 0.8465(3) 0.6200(2)
H5 H 0.438435 0.897358 0.622904
C10 C 0.2545(4) 0.8601(3) 0.7109(2)
C11 C 0.3196(4) 0.8353(3) 0.7444(2)
H6 H 0.372702 0.829549 0.732717
C12 C 0.3071(4) 0.8192(4) 0.7939(2)
H7 H 0.351579 0.802068 0.816170
C13 C 0.2306(4) 0.8277(4) 0.8116(2)
H8 H 0.222510 0.817283 0.846001
C14 C 0.1659(5) 0.8515(5) 0.7790(3)
H9 H 0.112963 0.857029 0.790898
C15 C 0.1781(4) 0.8673(4) 0.7291(2)
H10 H 0.133055 0.883391 0.706951
C16 C 0.3128(4) 0.9734(3) 0.6450(2)
H11 H 0.265478 0.998142 0.574247
C21 C 0.3680(4) 0.9985(3) 0.6847(2)
H15 H 0.379267 0.969327 0.714246
C22 C 0.7612(3) 0.6601(3) 0.5917(2)
C23 C 0.8207(4) 0.6309(4) 0.5638(3)
H16 H 0.806073 0.593835 0.539531
C24 C 0.9012(4) 0.6543(4) 0.5704(3)
H17 H 0.941317 0.633929 0.550444
C25 C 0.9230(4) 0.7074(3) 0.6061(3)
C26 C 0.8646(4) 0.7330(4) 0.6381(3)
H18 H 0.880447 0.766671 0.664453
C27 C 0.7841(4) 0.7091(4) 0.6311(3)
H19 H 0.744709 0.725837 0.652960
C29 C 0.6626(3) 0.3959(3) 0.5823(2)
C30 C 0.6545(3) 0.4095(3) 0.6333(2)
H20 H 0.689658 0.384469 0.657916
C31 C 0.5966(3) 0.4587(3) 0.6497(2)
C32 C 0.8129(3) 0.2208(3) 0.5329(2)
C33 C 0.7423(3) 0.2437(3) 0.5040(2)
H21 H 0.726530 0.219930 0.472781
C34 C 0.6951(3) 0.3004(3) 0.5201(2)
H22 H 0.648175 0.316404 0.499479
C35 C 0.7159(3) 0.3344(3) 0.5665(2)
C36 C 0.7850(3) 0.3113(3) 0.5962(2)
H23 H 0.799190 0.333863 0.628075
C37 C 0.8336(4) 0.2548(3) 0.5791(2)
H24 H 0.881214 0.239571 0.599325
C38 C 0.9773(3) 0.1666(3) 0.5359(2)
H25 H 0.982136 0.270751 0.509957
C44 C 0.8420(4) 0.0650(3) 0.5400(2)
C48 C 0.7811(8) 0.0004(5) 0.6065(4)
H33 H 0.757006 0.001410 0.637927
C49 C 0.8059(7) 0.0653(4) 0.5856(3)
H34 H 0.798157 0.110403 0.602504
C50 C 0.5761(3) 0.4586(3) 0.7036(2)
C51 C 0.6256(5) 0.4254(4) 0.7412(3)
H35 H 0.676048 0.403690 0.733800
C52 C 0.6013(5) 0.4239(4) 0.7901(3)
H36 H 0.635395 0.400950 0.816278
C53 C 0.5276(4) 0.4555(3) 0.8012(2)
C54 C 0.4811(5) 0.4911(4) 0.7641(3)
H37 H 0.431869 0.514741 0.771914
C55 C 0.5043(4) 0.4935(4) 0.7151(3)
H38 H 0.471414 0.518762 0.689481
C56 C 0.4972(4) 0.4488(4) 0.8511(2)
C57 C 0.6218(3) 0.5138(3) 0.4436(2)
H39 H 0.666050 0.547124 0.456005
H40 H 0.606695 0.523581 0.407672
H41 H 0.640423 0.462892 0.447835
Ag3 Ag 0.35217(2) 0.36453(2) 0.91614(2)
Ag4 Ag 0.85217(2) 0.13547(2) 0.41614(2)
Fe2 Fe 0.44289(5) 0.47956(4) 0.45302(3)
P3 P 0.12645(9) 0.85267(8) 0.49170(5)
O6 O 0.4479(2) 0.47467(19) 0.52813(14)
N4 N 0.0335(4) 0.9420(3) 0.6123(2)
P1_2 P 0.23385(8) 0.38273(7) 0.85472(5)
O1_2 O 0.0009(2) 0.1152(2) 0.94174(15)
C4_2 C 0.1519(3) 0.3216(3) 0.87053(19)
C5_2 C 0.1708(3) 0.2475(3) 0.8774(2)
H2_2 H 0.224384 0.230537 0.872046
C6_2 C 0.1126(3) 0.1984(3) 0.8918(2)
H3_2 H 0.125953 0.147882 0.895908
C7_2 C 0.0335(3) 0.2233(3) 0.90051(19)
C8_2 C 0.0147(3) 0.2972(3) 0.8939(2)
C9_2 C 0.0742(3) 0.3465(3) 0.8800(2)
H5_2 H 0.061565 0.397358 0.877096
C10_2 C 0.2455(4) 0.3601(3) 0.7891(2)
C11_2 C 0.1804(4) 0.3353(3) 0.7556(2)
H6_2 H 0.127298 0.329549 0.767283
C12_2 C 0.1929(4) 0.3192(4) 0.7061(2)
H7_2 H 0.148421 0.302068 0.683830
C13_2 C 0.2694(4) 0.3277(4) 0.6884(2)
H8_2 H 0.277490 0.317283 0.653999
C14_2 C 0.3341(5) 0.3515(5) 0.7210(3)
H9_2 H 0.387037 0.357029 0.709102
C15_2 C 0.3219(4) 0.3673(4) 0.7709(2)
H10_2 H 0.366945 0.383391 0.793049
C16_2 C 0.1872(4) 0.4734(3) 0.8550(2)
C17 C 0.1999(4) 0.5158(3) 0.8978(2)
H11_2 H 0.234522 0.498142 0.925753
C18 C 0.1633(4) 0.5835(4) 0.9009(3)
H12 H 0.174465 0.612996 0.930232
C19 C 0.1107(5) 0.6084(4) 0.8616(3)
H13 H 0.085785 0.655303 0.863946
C20 C 0.0937(5) 0.5669(4) 0.8195(3)
H14 H 0.056052 0.584084 0.792890
C21_2 C 0.1320(4) 0.4985(3) 0.8153(2)
H15_2 H 0.120733 0.469327 0.785754
H37_2 H 0.068131 0.014741 0.728086
H38_2 H 0.028586 0.018762 0.810519
N3 N 0.4308(4) 0.2624(3) 0.8835(2)
Fe2_2 Fe 0.05711(5) 0.97956(4) 0.04698(3)
C54_2 C 0.0189(5) 0.9911(4) 0.7359(3)
C56_2 C 0.0028(4) 0.9488(4) 0.6489(2)
O6_2 O 0.0521(2) 0.97467(19) 0.97187(14)
O5_2 O 0.9479(2) 0.02533(19) 0.02813(14)
C57_2 C 0.8782(3) 0.0138(3) 0.0564(2)
H39_2 H 0.833950 0.047124 0.043995
H40_2 H 0.893305 0.023581 0.092328
Fe1_2 Fe 0.94289(5) 0.02044(4) 0.95302(3)
O2_2 O 0.8378(2) 0.0786(2) 0.94452(15)
O4_2 O 0.9468(2) 0.0018(2) 0.87963(15)
C1_2 C 0.9716(3) 0.1698(3) 0.9158(2)
C2_2 C 0.8882(3) 0.1817(3) 0.9024(2)
H1_2 H 0.873183 0.222247 0.881007
C3_2 C 0.8256(3) 0.1374(3) 0.9187(2)
H4_2 H 0.961057 0.314225 0.898865
C22_2 C 0.7388(3) 0.1601(3) 0.9083(2)
C23_2 C 0.6793(4) 0.1309(4) 0.9362(3)
H16_2 H 0.693927 0.093835 0.960469
C24_2 C 0.5988(4) 0.1543(4) 0.9296(3)
H17_2 H 0.558683 0.133929 0.949556
C25_2 C 0.5770(4) 0.2074(3) 0.8939(3)
C26_2 C 0.6354(4) 0.2330(4) 0.8619(3)
H18_2 H 0.619553 0.266671 0.835547
C27_2 C 0.7159(4) 0.2091(4) 0.8689(3)
H19_2 H 0.755291 0.225837 0.847040
C28_2 C 0.4943(4) 0.2363(4) 0.8882(3)
H21_2 H 0.773470 0.719930 0.027219
H22_2 H 0.851825 0.816404 0.000521
H30 H 0.621156 0.496217 0.014728
H41_2 H 0.859577 0.962892 0.052165
Ag4_2 Ag 0.64783(2) 0.63547(2) 0.08386(2)
P1_3 P 0.73385(8) 0.11727(7) 0.35472(5)
O1_3 O 0.5009(2) 0.3848(2) 0.44174(15)
O2_3 O 0.3378(2) 0.4214(2) 0.44452(15)
O3_2 O 0.3754(2) 0.5699(2) 0.45438(14)
O4_3 O 0.4468(2) 0.4982(2) 0.37963(15)
N2_2 N 0.5335(4) 0.5580(3) 0.1123(2)
C1_3 C 0.4716(3) 0.3302(3) 0.4158(2)
C2_3 C 0.3882(3) 0.3183(3) 0.4024(2)
H1_3 H 0.373183 0.277753 0.381007
C3_3 C 0.3256(3) 0.3626(3) 0.4187(2)
C4_3 C 0.6519(3) 0.1784(3) 0.37053(19)
C5_3 C 0.6708(3) 0.2525(3) 0.3774(2)
H2_3 H 0.724384 0.269463 0.372046
C6_3 C 0.6126(3) 0.3016(3) 0.3918(2)
H3_3 H 0.625953 0.352118 0.395908
C7_3 C 0.5335(3) 0.2767(3) 0.40051(19)
C8_3 C 0.5147(3) 0.2028(3) 0.3939(2)
H4_3 H 0.461057 0.185775 0.398865
C9_3 C 0.5742(3) 0.1535(3) 0.3800(2)
H5_3 H 0.561565 0.102642 0.377096
C10_3 C 0.7455(4) 0.1399(3) 0.2891(2)
C11_3 C 0.6804(4) 0.1647(3) 0.2556(2)
H6_3 H 0.627298 0.170451 0.267283
C12_3 C 0.6929(4) 0.1808(4) 0.2061(2)
H7_3 H 0.648421 0.197932 0.183830
C13_3 C 0.7694(4) 0.1723(4) 0.1884(2)
H8_3 H 0.777490 0.182717 0.153999
C14_3 C 0.8341(5) 0.1485(5) 0.2210(3)
H9_3 H 0.887037 0.142971 0.209102
C15_3 C 0.8219(4) 0.1327(4) 0.2709(2)
H10_3 H 0.866945 0.116609 0.293049
C16_3 C 0.6872(4) 0.0266(3) 0.3550(2)
H11_3 H 0.734522 0.001858 0.425753
C21_3 C 0.6320(4) 0.0015(3) 0.3153(2)
H15_3 H 0.620733 0.030673 0.285754
C22_3 C 0.2388(3) 0.3399(3) 0.4083(2)
C23_3 C 0.1793(4) 0.3691(4) 0.4362(3)
H16_3 H 0.193927 0.406165 0.460469
C24_3 C 0.0988(4) 0.3457(4) 0.4296(3)
H17_3 H 0.058683 0.366071 0.449556
C25_3 C 0.0770(4) 0.2926(3) 0.3939(3)
C26_3 C 0.1354(4) 0.2670(4) 0.3619(3)
H18_3 H 0.119553 0.233329 0.335547
C27_3 C 0.2159(4) 0.2909(4) 0.3689(3)
H19_3 H 0.255291 0.274163 0.347040
C29_2 C 0.3374(3) 0.6041(3) 0.4177(2)
C30_2 C 0.3455(3) 0.5905(3) 0.3667(2)
H20_2 H 0.310342 0.615531 0.342084
C31_2 C 0.4034(3) 0.5413(3) 0.3503(2)
C32_2 C 0.1871(3) 0.7792(3) 0.4671(2)
C33_2 C 0.2577(3) 0.7563(3) 0.4960(2)
H21_3 H 0.273470 0.780070 0.527219
C34_2 C 0.3049(3) 0.6996(3) 0.4799(2)
H22_3 H 0.351825 0.683596 0.500521
C35_2 C 0.2841(3) 0.6656(3) 0.4335(2)
C36_2 C 0.2150(3) 0.6887(3) 0.4038(2)
H23_2 H 0.200810 0.666137 0.371925
C37_2 C 0.1664(4) 0.7452(3) 0.4209(2)
H24_2 H 0.118786 0.760429 0.400675
C38_2 C 0.0227(3) 0.8334(3) 0.4641(2)
H25_2 H 0.017864 0.729249 0.490043
C44_2 C 0.1580(4) 0.9350(3) 0.4600(2)
C48_2 C 0.2189(8) 0.9996(5) 0.3935(4)
H33_2 H 0.242994 0.998590 0.362073
C49_2 C 0.1941(7) 0.9347(4) 0.4144(3)
H34_2 H 0.201843 0.889597 0.397496
C50_2 C 0.4239(3) 0.5414(3) 0.2964(2)
C51_2 C 0.3744(5) 0.5746(4) 0.2588(3)
H35_2 H 0.323952 0.596310 0.266200
C52_2 C 0.3987(5) 0.5761(4) 0.2099(3)
H36_2 H 0.364605 0.599050 0.183722
C53_2 C 0.4724(4) 0.5445(3) 0.1988(2)
C54_3 C 0.5189(5) 0.5089(4) 0.2359(3)
H37_3 H 0.568131 0.485259 0.228086
C55_2 C 0.4957(4) 0.5065(4) 0.2849(3)
H38_3 H 0.528586 0.481238 0.310519
C56_3 C 0.5028(4) 0.5512(4) 0.1489(2)
C57_3 C 0.3782(3) 0.4862(3) 0.5564(2)
H39_3 H 0.333950 0.452876 0.543995
H40_3 H 0.393305 0.476419 0.592328
H41_3 H 0.359577 0.537108 0.552165
N3_2 N 0.9308(4) 0.2376(3) 0.3835(2)
N4_2 N 0.9665(4) 0.0580(3) 0.3877(2)
C28_3 C 0.9943(4) 0.2637(4) 0.3882(3)
C39_2 C 0.9880(4) 0.7656(4) 0.4706(2)
C40_2 C 0.9091(4) 0.7494(4) 0.4488(3)
H26_2 H 0.886565 0.701821 0.452380
C41_2 C 0.8644(4) 0.8027(4) 0.4222(2)
H27_2 H 0.810665 0.792073 0.407606
C42_2 C 0.8976(4) 0.8718(4) 0.4167(2)
H28_2 H 0.866356 0.908721 0.398629
C43_2 C 0.9759(4) 0.8873(4) 0.4372(2)
H29_2 H 0.998326 0.934878 0.433106
H21_4 H 0.226530 0.280070 0.972781
H22_4 H 0.148175 0.183596 0.999479
H30_2 H 0.378844 0.503783 0.985272
H41_4 H 0.140423 0.037108 0.947835
O2_4 O 0.1622(2) 0.9214(2) 0.05548(15)
O4_4 O 0.0532(2) 0.9982(2) 0.12037(15)
N1_2 N 0.5692(4) 0.7376(3) 0.1165(2)
C1_4 C 0.0284(3) 0.8302(3) 0.0842(2)
C2_4 C 0.1118(3) 0.8183(3) 0.0976(2)
H1_4 H 0.126817 0.777753 0.118993
C3_4 C 0.1744(3) 0.8626(3) 0.0813(2)
H4_4 H 0.038943 0.685775 0.101135
C22_4 C 0.2612(3) 0.8399(3) 0.0917(2)
C23_4 C 0.3207(4) 0.8691(4) 0.0638(3)
H16_4 H 0.306073 0.906165 0.039531
C24_4 C 0.4012(4) 0.8457(4) 0.0704(3)
H17_4 H 0.441317 0.866071 0.050444
C25_4 C 0.4230(4) 0.7926(3) 0.1061(3)
C26_4 C 0.3646(4) 0.7670(4) 0.1381(3)
H18_4 H 0.380447 0.733329 0.164453
C27_4 C 0.2841(4) 0.7909(4) 0.1311(3)
H19_4 H 0.244709 0.774163 0.152960
C28_4 C 0.5057(4) 0.7637(4) 0.1118(3)
C57_4 C 0.1218(3) 0.9862(3) 0.9436(2)
H39_4 H 0.166050 0.952876 0.956005
H40_4 H 0.106695 0.976419 0.907672
C54_4 C 0.9811(5) 0.0089(4) 0.2641(3)
C56_4 C 0.9972(4) 0.0512(4) 0.3511(2)
P1_4 P 0.76615(8) 0.61727(7) 0.14528(5)
O1_4 O 0.9991(2) 0.8848(2) 0.05826(15)
C4_4 C 0.8481(3) 0.6784(3) 0.12947(19)
C5_4 C 0.8292(3) 0.7525(3) 0.1226(2)
H2_4 H 0.775616 0.769463 0.127954
C6_4 C 0.8874(3) 0.8016(3) 0.1082(2)
H3_4 H 0.874047 0.852118 0.104092
C7_4 C 0.9665(3) 0.7767(3) 0.09949(19)
C8_4 C 0.9853(3) 0.7028(3) 0.1061(2)
C9_4 C 0.9258(3) 0.6535(3) 0.1200(2)
H5_4 H 0.938435 0.602642 0.122904
C10_4 C 0.7545(4) 0.6399(3) 0.2109(2)
C11_4 C 0.8196(4) 0.6647(3) 0.2444(2)
H6_4 H 0.872702 0.670451 0.232717
C12_4 C 0.8071(4) 0.6808(4) 0.2939(2)
H7_4 H 0.851579 0.697932 0.316170
C13_4 C 0.7306(4) 0.6723(4) 0.3116(2)
H8_4 H 0.722510 0.682717 0.346001
C14_4 C 0.6659(5) 0.6485(5) 0.2790(3)
H9_4 H 0.612963 0.642971 0.290898
C15_4 C 0.6781(4) 0.6327(4) 0.2291(2)
H10_4 H 0.633055 0.616609 0.206951
C16_4 C 0.8128(4) 0.5266(3) 0.1450(2)
C17_2 C 0.8001(4) 0.4842(3) 0.1022(2)
H11_4 H 0.765478 0.501858 0.074247
C18_2 C 0.8367(4) 0.4165(4) 0.0991(3)
H12_2 H 0.825535 0.387004 0.069768
C19_2 C 0.8893(5) 0.3916(4) 0.1384(3)
H13_2 H 0.914215 0.344697 0.136054
C20_2 C 0.9063(5) 0.4331(4) 0.1805(3)
H14_2 H 0.943948 0.415916 0.207110
C21_4 C 0.8680(4) 0.5015(3) 0.1847(2)
H15_4 H 0.879267 0.530673 0.214246
H37_4 H 0.931869 0.985259 0.271914
H38_4 H 0.971414 0.981238 0.189481
C17_3 C 0.3001(4) 0.0158(3) 0.6022(2)
C18_3 C 0.3367(4) 0.0835(4) 0.5991(3)
H12_3 H 0.325535 0.112996 0.569768
C19_3 C 0.3893(5) 0.1084(4) 0.6384(3)
H13_3 H 0.414215 0.155303 0.636054
C20_3 C 0.4063(5) 0.0669(4) 0.6805(3)
H14_3 H 0.443948 0.084084 0.707110
C45 C 0.8536(4) 0.9975(3) 0.5163(2)
H30_3 H 0.878844 0.996217 0.485272
C46 C 0.8288(5) 0.9330(4) 0.5376(3)
H31 H 0.837910 0.887463 0.521430
C47 C 0.7907(7) 0.9344(5) 0.5824(3)
H32 H 0.771491 0.890214 0.596441
P3_2 P 0.37355(9) 0.35267(8) 0.00830(5)
O3_3 O 0.1246(2) 0.0699(2) 0.04562(14)
C29_3 C 0.1626(3) 0.1041(3) 0.0823(2)
C30_3 C 0.1545(3) 0.0905(3) 0.1333(2)
H20_3 H 0.189658 0.115531 0.157916
C31_3 C 0.0966(3) 0.0413(3) 0.1497(2)
C32_3 C 0.3129(3) 0.2792(3) 0.0329(2)
C33_3 C 0.2423(3) 0.2563(3) 0.0040(2)
C34_3 C 0.1951(3) 0.1996(3) 0.0201(2)
C35_3 C 0.2159(3) 0.1656(3) 0.0665(2)
C36_3 C 0.2850(3) 0.1887(3) 0.0962(2)
H23_3 H 0.299190 0.166137 0.128075
C37_3 C 0.3336(4) 0.2452(3) 0.0791(2)
H24_3 H 0.381214 0.260429 0.099325
C38_3 C 0.4773(3) 0.3334(3) 0.0359(2)
C39_3 C 0.5120(4) 0.2656(4) 0.0294(2)
H25_3 H 0.482136 0.229249 0.009957
C40_3 C 0.5909(4) 0.2494(4) 0.0512(3)
H26_3 H 0.613435 0.201821 0.047620
C41_3 C 0.6356(4) 0.3027(4) 0.0778(2)
H27_3 H 0.689335 0.292073 0.092394
C42_3 C 0.6024(4) 0.3718(4) 0.0833(2)
H28_3 H 0.633644 0.408721 0.101371
C43_3 C 0.5241(4) 0.3873(4) 0.0628(2)
H29_3 H 0.501674 0.434878 0.066894
C44_3 C 0.3420(4) 0.4350(3) 0.0400(2)
C45_2 C 0.3536(4) 0.5025(3) 0.0163(2)
C46_2 C 0.3288(5) 0.5670(4) 0.0376(3)
H31_2 H 0.337910 0.612537 0.021430
C47_2 C 0.2907(7) 0.5656(5) 0.0824(3)
H32_2 H 0.271491 0.609786 0.096441
C48_3 C 0.2811(8) 0.4996(5) 0.1065(4)
H33_3 H 0.257006 0.498590 0.137927
C49_3 C 0.3059(7) 0.4347(4) 0.0856(3)
H34_3 H 0.298157 0.389597 0.102504
C50_3 C 0.0761(3) 0.0414(3) 0.2036(2)
C51_3 C 0.1256(5) 0.0746(4) 0.2412(3)
H35_3 H 0.176048 0.096310 0.233800
C52_3 C 0.1013(5) 0.0761(4) 0.2901(3)
H36_3 H 0.135395 0.099050 0.316278
C53_3 C 0.0276(4) 0.0445(3) 0.3012(2)
C55_3 C 0.0043(4) 0.0065(4) 0.2151(3)
P2_2 P 0.62645(9) 0.64733(8) 0.99170(5)
O3_4 O 0.8754(2) 0.9301(2) 0.95438(14)
C29_4 C 0.8374(3) 0.8959(3) 0.9177(2)
C30_4 C 0.8455(3) 0.9095(3) 0.8667(2)
H20_4 H 0.810342 0.884469 0.842084
C31_4 C 0.9034(3) 0.9587(3) 0.8503(2)
C32_4 C 0.6871(3) 0.7208(3) 0.9671(2)
C33_4 C 0.7577(3) 0.7437(3) 0.9960(2)
C34_4 C 0.8049(3) 0.8004(3) 0.9799(2)
C35_4 C 0.7841(3) 0.8344(3) 0.9335(2)
C36_4 C 0.7150(3) 0.8113(3) 0.9038(2)
H23_4 H 0.700810 0.833863 0.871925
C37_4 C 0.6664(4) 0.7548(3) 0.9209(2)
H24_4 H 0.618786 0.739571 0.900675
C38_4 C 0.5227(3) 0.6666(3) 0.9641(2)
C39_4 C 0.4880(4) 0.7344(4) 0.9706(2)
H25_4 H 0.517864 0.770751 0.990043
C40_4 C 0.4091(4) 0.7506(4) 0.9488(3)
H26_4 H 0.386565 0.798179 0.952380
C41_4 C 0.3644(4) 0.6973(4) 0.9222(2)
H27_4 H 0.310665 0.707927 0.907606
C42_4 C 0.3976(4) 0.6282(4) 0.9167(2)
H28_4 H 0.366356 0.591279 0.898629
C43_4 C 0.4759(4) 0.6127(4) 0.9372(2)
H29_4 H 0.498326 0.565122 0.933106
C44_4 C 0.6580(4) 0.5650(3) 0.9600(2)
C45_3 C 0.6464(4) 0.4975(3) 0.9837(2)
C46_3 C 0.6712(5) 0.4330(4) 0.9624(3)
H31_3 H 0.662090 0.387463 0.978570
C47_3 C 0.7093(7) 0.4344(5) 0.9176(3)
H32_3 H 0.728509 0.390214 0.903559
C48_4 C 0.7189(8) 0.5004(5) 0.8935(4)
H33_4 H 0.742994 0.501410 0.862073
C49_4 C 0.6941(7) 0.5653(4) 0.9144(3)
H34_4 H 0.701843 0.610403 0.897496
C50_4 C 0.9239(3) 0.9586(3) 0.7964(2)
C51_4 C 0.8744(5) 0.9254(4) 0.7588(3)
H35_4 H 0.823952 0.903690 0.766200
C52_4 C 0.8987(5) 0.9239(4) 0.7099(3)
H36_4 H 0.864605 0.900950 0.683722
C53_4 C 0.9724(4) 0.9555(3) 0.6988(2)
C55_4 C 0.9957(4) 0.9935(4) 0.7849(3)
C45_4 C 0.1464(4) 0.0025(3) 0.4837(2)
H30_4 H 0.121156 0.003783 0.514728
C46_4 C 0.1712(5) 0.0670(4) 0.4624(3)
H31_4 H 0.162090 0.112537 0.478570
C47_4 C 0.2093(7) 0.0656(5) 0.4176(3)
H32_4 H 0.228509 0.109786 0.403559
C17_4 C 0.6999(4) 0.9842(3) 0.3978(2)
C18_4 C 0.6633(4) 0.9165(4) 0.4009(3)
H12_4 H 0.674465 0.887004 0.430232
C19_4 C 0.6107(5) 0.8916(4) 0.3616(3)
H13_4 H 0.585785 0.844697 0.363946
C20_4 C 0.5937(5) 0.9331(4) 0.3195(3)
H14_4 H 0.556052 0.915916 0.292890
Cl1 Cl 0.8443(2) 0.3644(2) 0.78666(14)
O7 O 0.8288(5) 0.3457(4) 0.8365(3)
O8 O 0.7925(4) 0.3164(4) 0.7547(3)
O9 O 0.8117(5) 0.4374(4) 0.7780(3)
O10 O 0.9272(4) 0.3579(4) 0.7787(3)
Cl1_2 Cl 0.6557(2) 0.8644(2) 0.71334(14)
O7_2 O 0.6712(5) 0.8457(4) 0.6635(3)
O8_2 O 0.7075(4) 0.8164(4) 0.7453(3)
O9_2 O 0.6883(5) 0.9374(4) 0.7220(3)
O10_2 O 0.5728(4) 0.8579(4) 0.7213(3)
Cl1_3 Cl 0.1557(2) 0.6356(2) 0.21334(14)
O7_3 O 0.1712(5) 0.6543(4) 0.1635(3)
O8_3 O 0.2075(4) 0.6836(4) 0.2453(3)
O9_3 O 0.1883(5) 0.5626(4) 0.2220(3)
O10_3 O 0.0728(4) 0.6421(4) 0.2213(3)
Cl1_4 Cl 0.3443(2) 0.1356(2) 0.28666(14)
O7_4 O 0.3288(5) 0.1543(4) 0.3365(3)
O8_4 O 0.2925(4) 0.1836(4) 0.2547(3)
O9_4 O 0.3117(5) 0.0626(4) 0.2780(3)
O10_4 O 0.4272(4) 0.1421(4) 0.2787(3)
loop_
_geom_bond_atom_site_label_1
_geom_bond_atom_site_label_2
_geom_bond_site_symmetry_1
_geom_bond_site_symmetry_2
N1 C28 1_555 1_555
C40 C39 1_555 1_555
H26 C40 1_555 1_555
C41 C40 1_555 1_555
H27 C41 1_555 1_555
C42 C41 1_555 1_555
H28 C42 1_555 1_555
H29 C43 1_555 1_555
Ag2 N1 1_555 1_555
C42 C43 1_555 1_555
Ag2 P1 1_555 1_555
Fe1 O1 1_555 1_555
P1 C4 1_555 1_555
P2 C32 1_555 1_555
O1 C1 1_555 1_555
O2 Fe1 1_555 1_555
O3 Fe1 1_555 1_555
O4 Fe1 1_555 1_555
O5 Fe1 1_555 1_555
N2 C56 1_555 1_555
C1 C2 1_555 1_555
C2 H1 1_555 1_555
C3 O2 1_555 1_555
C4 C5 1_555 1_555
C5 H2 1_555 1_555
C6 C5 1_555 1_555
H3 C6 1_555 1_555
C7 C1 1_555 1_555
C8 C7 1_555 1_555
H4 C8 1_555 1_555
C9 C4 1_555 1_555
H5 C9 1_555 1_555
C10 P1 1_555 1_555
C11 C10 1_555 1_555
H6 C11 1_555 1_555
C12 C11 1_555 1_555
H7 C12 1_555 1_555
C13 C12 1_555 1_555
H8 C13 1_555 1_555
C14 C13 1_555 1_555
H9 C14 1_555 1_555
C15 C10 1_555 1_555
H10 C15 1_555 1_555
C16 P1 1_555 1_555
C21 C16 1_555 1_555
H15 C21 1_555 1_555
C22 C3 1_555 1_555
C23 C22 1_555 1_555
H16 C23 1_555 1_555
C24 C23 1_555 1_555
H17 C24 1_555 1_555
C25 C24 1_555 1_555
C26 C25 1_555 1_555
H18 C26 1_555 1_555
C27 C22 1_555 1_555
H19 C27 1_555 1_555
C29 O3 1_555 1_555
C30 C29 1_555 1_555
H20 C30 1_555 1_555
C31 O4 1_555 1_555
C32 C33 1_555 1_555
C33 H21 1_555 1_555
C34 C33 1_555 1_555
H22 C34 1_555 1_555
C35 C29 1_555 1_555
C36 C35 1_555 1_555
H23 C36 1_555 1_555
C37 C32 1_555 1_555
H24 C37 1_555 1_555
C38 P2 1_555 1_555
C44 P2 1_555 1_555
H33 C48 1_555 1_555
C49 C44 1_555 1_555
H34 C49 1_555 1_555
C50 C31 1_555 1_555
C51 C50 1_555 1_555
H35 C51 1_555 1_555
C52 C51 1_555 1_555
H36 C52 1_555 1_555
C53 C52 1_555 1_555
C54 C53 1_555 1_555
H37 C54 1_555 1_555
C55 C50 1_555 1_555
H38 C55 1_555 1_555
C56 C53 1_555 1_555
C57 O5 1_555 1_555
H39 C57 1_555 1_555
H40 C57 1_555 1_555
H41 C57 1_555 1_555
Ag3 N2 1_555 1_555
Ag4 P2 1_555 1_555
Fe2 O5 1_555 1_555
P3 Ag2 1_555 1_555
O6 Fe1 1_555 1_555
N4 Ag2 1_555 1_555
C2 C3 1_555 1_555
C6 C7 1_555 1_555
C8 C9 1_555 1_555
C14 C15 1_555 1_555
C26 C27 1_555 1_555
C30 C31 1_555 1_555
C34 C35 1_555 1_555
C36 C37 1_555 1_555
C48 C49 1_555 1_555
C54 C55 1_555 1_555
Fe2 O6 1_555 1_555
Ag3 P1_2 1_555 1_555
P1_2 C4_2 1_555 1_555
C4_2 C5_2 1_555 1_555
C5_2 H2_2 1_555 1_555
C6_2 C5_2 1_555 1_555
H3_2 C6_2 1_555 1_555
C8_2 C7_2 1_555 1_555
C9_2 C4_2 1_555 1_555
H5_2 C9_2 1_555 1_555
C10_2 P1_2 1_555 1_555
C11_2 C10_2 1_555 1_555
H6_2 C11_2 1_555 1_555
C12_2 C11_2 1_555 1_555
H7_2 C12_2 1_555 1_555
C13_2 C12_2 1_555 1_555
H8_2 C13_2 1_555 1_555
C14_2 C13_2 1_555 1_555
H9_2 C14_2 1_555 1_555
C15_2 C10_2 1_555 1_555
H10_2 C15_2 1_555 1_555
C16_2 P1_2 1_555 1_555
C17 C16_2 1_555 1_555
H11_2 C17 1_555 1_555
C18 C17 1_555 1_555
H12 C18 1_555 1_555
C19 C18 1_555 1_555
H13 C19 1_555 1_555
C20 C19 1_555 1_555
H14 C20 1_555 1_555
C21_2 C16_2 1_555 1_555
H15_2 C21_2 1_555 1_555
N3 Ag3 1_555 1_555
C6_2 C7_2 1_555 1_555
C8_2 C9_2 1_555 1_555
C14_2 C15_2 1_555 1_555
C20 C21_2 1_555 1_555
N4 C56_2 1_555 1_555
C57_2 O5_2 1_555 1_555
H39_2 C57_2 1_555 1_555
H40_2 C57_2 1_555 1_555
O2_2 Fe1_2 1_555 1_555
O4_2 Fe1_2 1_555 1_555
N3 C28_2 1_555 1_555
C1_2 C2_2 1_555 1_555
C2_2 H1_2 1_555 1_555
C3_2 O2_2 1_555 1_555
C22_2 C3_2 1_555 1_555
C23_2 C22_2 1_555 1_555
H16_2 C23_2 1_555 1_555
C24_2 C23_2 1_555 1_555
H17_2 C24_2 1_555 1_555
C25_2 C24_2 1_555 1_555
C26_2 C25_2 1_555 1_555
H18_2 C26_2 1_555 1_555
C27_2 C22_2 1_555 1_555
H19_2 C27_2 1_555 1_555
C28_2 C25_2 1_555 1_555
C2_2 C3_2 1_555 1_555
C26_2 C27_2 1_555 1_555
Ag4 P1_3 1_555 1_555
Fe2 O1_3 1_555 1_555
P1_3 C4_3 1_555 1_555
P3 C32_2 1_555 1_555
O1_3 C1_3 1_555 1_555
O2_3 Fe2 1_555 1_555
O3_2 Fe2 1_555 1_555
O4_3 Fe2 1_555 1_555
N2_2 C56_3 1_555 1_555
C1_3 C2_3 1_555 1_555
C2_3 H1_3 1_555 1_555
C3_3 O2_3 1_555 1_555
C4_3 C5_3 1_555 1_555
C5_3 H2_3 1_555 1_555
C6_3 C5_3 1_555 1_555
H3_3 C6_3 1_555 1_555
C7_3 C1_3 1_555 1_555
C8_3 C7_3 1_555 1_555
H4_3 C8_3 1_555 1_555
C9_3 C4_3 1_555 1_555
H5_3 C9_3 1_555 1_555
C10_3 P1_3 1_555 1_555
C11_3 C10_3 1_555 1_555
H6_3 C11_3 1_555 1_555
C12_3 C11_3 1_555 1_555
H7_3 C12_3 1_555 1_555
C13_3 C12_3 1_555 1_555
H8_3 C13_3 1_555 1_555
C14_3 C13_3 1_555 1_555
H9_3 C14_3 1_555 1_555
C15_3 C10_3 1_555 1_555
H10_3 C15_3 1_555 1_555
C16_3 P1_3 1_555 1_555
C21_3 C16_3 1_555 1_555
H15_3 C21_3 1_555 1_555
C22_3 C3_3 1_555 1_555
C23_3 C22_3 1_555 1_555
H16_3 C23_3 1_555 1_555
C24_3 C23_3 1_555 1_555
H17_3 C24_3 1_555 1_555
C25_3 C24_3 1_555 1_555
C26_3 C25_3 1_555 1_555
H18_3 C26_3 1_555 1_555
C27_3 C22_3 1_555 1_555
H19_3 C27_3 1_555 1_555
C29_2 O3_2 1_555 1_555
C30_2 C29_2 1_555 1_555
H20_2 C30_2 1_555 1_555
C31_2 O4_3 1_555 1_555
C32_2 C33_2 1_555 1_555
C33_2 H21_3 1_555 1_555
C34_2 C33_2 1_555 1_555
H22_3 C34_2 1_555 1_555
C35_2 C29_2 1_555 1_555
C36_2 C35_2 1_555 1_555
H23_2 C36_2 1_555 1_555
C37_2 C32_2 1_555 1_555
H24_2 C37_2 1_555 1_555
C38_2 P3 1_555 1_555
C44_2 P3 1_555 1_555
H33_2 C48_2 1_555 1_555
C49_2 C44_2 1_555 1_555
H34_2 C49_2 1_555 1_555
C50_2 C31_2 1_555 1_555
C51_2 C50_2 1_555 1_555
H35_2 C51_2 1_555 1_555
C52_2 C51_2 1_555 1_555
H36_2 C52_2 1_555 1_555
C53_2 C52_2 1_555 1_555
C54_3 C53_2 1_555 1_555
H37_3 C54_3 1_555 1_555
C55_2 C50_2 1_555 1_555
H38_3 C55_2 1_555 1_555
C56_3 C53_2 1_555 1_555
C57_3 O6 1_555 1_555
H39_3 C57_3 1_555 1_555
H40_3 C57_3 1_555 1_555
H41_3 C57_3 1_555 1_555
Ag4_2 N2_2 1_555 1_555
N3_2 Ag4 1_555 1_555
N4_2 Ag4 1_555 1_555
C2_3 C3_3 1_555 1_555
C6_3 C7_3 1_555 1_555
C8_3 C9_3 1_555 1_555
C14_3 C15_3 1_555 1_555
C26_3 C27_3 1_555 1_555
C30_2 C31_2 1_555 1_555
C34_2 C35_2 1_555 1_555
C36_2 C37_2 1_555 1_555
C48_2 C49_2 1_555 1_555
C54_3 C55_2 1_555 1_555
N3_2 C28_3 1_555 1_555
C40_2 C39_2 1_555 1_555
H26_2 C40_2 1_555 1_555
C41_2 C40_2 1_555 1_555
H27_2 C41_2 1_555 1_555
C42_2 C41_2 1_555 1_555
H28_2 C42_2 1_555 1_555
H29_2 C43_2 1_555 1_555
C42_2 C43_2 1_555 1_555
O2_4 Fe2_2 1_555 1_555
O4_4 Fe2_2 1_555 1_555
N1_2 C28_4 1_555 1_555
C1_4 C2_4 1_555 1_555
C2_4 H1_4 1_555 1_555
C3_4 O2_4 1_555 1_555
C22_4 C3_4 1_555 1_555
C23_4 C22_4 1_555 1_555
H16_4 C23_4 1_555 1_555
C24_4 C23_4 1_555 1_555
H17_4 C24_4 1_555 1_555
C25_4 C24_4 1_555 1_555
C26_4 C25_4 1_555 1_555
H18_4 C26_4 1_555 1_555
C27_4 C22_4 1_555 1_555
H19_4 C27_4 1_555 1_555
C28_4 C25_4 1_555 1_555
Ag4_2 N1_2 1_555 1_555
C2_4 C3_4 1_555 1_555
C26_4 C27_4 1_555 1_555
C57_4 O6_2 1_555 1_555
H39_4 C57_4 1_555 1_555
H40_4 C57_4 1_555 1_555
N4_2 C56_4 1_555 1_555
Ag4_2 P1_4 1_555 1_555
P1_4 C4_4 1_555 1_555
C4_4 C5_4 1_555 1_555
C5_4 H2_4 1_555 1_555
C6_4 C5_4 1_555 1_555
H3_4 C6_4 1_555 1_555
C8_4 C7_4 1_555 1_555
C9_4 C4_4 1_555 1_555
H5_4 C9_4 1_555 1_555
C10_4 P1_4 1_555 1_555
C11_4 C10_4 1_555 1_555
H6_4 C11_4 1_555 1_555
C12_4 C11_4 1_555 1_555
H7_4 C12_4 1_555 1_555
C13_4 C12_4 1_555 1_555
H8_4 C13_4 1_555 1_555
C14_4 C13_4 1_555 1_555
H9_4 C14_4 1_555 1_555
C15_4 C10_4 1_555 1_555
H10_4 C15_4 1_555 1_555
C16_4 P1_4 1_555 1_555
C17_2 C16_4 1_555 1_555
H11_4 C17_2 1_555 1_555
C18_2 C17_2 1_555 1_555
H12_2 C18_2 1_555 1_555
C19_2 C18_2 1_555 1_555
H13_2 C19_2 1_555 1_555
C20_2 C19_2 1_555 1_555
H14_2 C20_2 1_555 1_555
C21_4 C16_4 1_555 1_555
H15_4 C21_4 1_555 1_555
C6_4 C7_4 1_555 1_555
C8_4 C9_4 1_555 1_555
C14_4 C15_4 1_555 1_555
C20_2 C21_4 1_555 1_555
C18_3 C17_3 1_555 1_555
H12_3 C18_3 1_555 1_555
C19_3 C18_3 1_555 1_555
H13_3 C19_3 1_555 1_555
C20_3 C19_3 1_555 1_555
H14_3 C20_3 1_555 1_555
H30_3 C45 1_555 1_555
C46 C45 1_555 1_555
H31 C46 1_555 1_555
C47 C46 1_555 1_555
H32 C47 1_555 1_555
P3_2 C32_3 1_555 1_555
C29_3 O3_3 1_555 1_555
C30_3 C29_3 1_555 1_555
H20_3 C30_3 1_555 1_555
C32_3 C33_3 1_555 1_555
C34_3 C33_3 1_555 1_555
C35_3 C29_3 1_555 1_555
C36_3 C35_3 1_555 1_555
H23_3 C36_3 1_555 1_555
C37_3 C32_3 1_555 1_555
H24_3 C37_3 1_555 1_555
C38_3 P3_2 1_555 1_555
C39_3 C38_3 1_555 1_555
H25_3 C39_3 1_555 1_555
C40_3 C39_3 1_555 1_555
H26_3 C40_3 1_555 1_555
C41_3 C40_3 1_555 1_555
H27_3 C41_3 1_555 1_555
C42_3 C41_3 1_555 1_555
H28_3 C42_3 1_555 1_555
C43_3 C38_3 1_555 1_555
H29_3 C43_3 1_555 1_555
C44_3 P3_2 1_555 1_555
C45_2 C44_3 1_555 1_555
C46_2 C45_2 1_555 1_555
H31_2 C46_2 1_555 1_555
C47_2 C46_2 1_555 1_555
H32_2 C47_2 1_555 1_555
C48_3 C47_2 1_555 1_555
H33_3 C48_3 1_555 1_555
C49_3 C44_3 1_555 1_555
H34_3 C49_3 1_555 1_555
C50_3 C31_3 1_555 1_555
C51_3 C50_3 1_555 1_555
H35_3 C51_3 1_555 1_555
C52_3 C51_3 1_555 1_555
H36_3 C52_3 1_555 1_555
C53_3 C52_3 1_555 1_555
C55_3 C50_3 1_555 1_555
C30_3 C31_3 1_555 1_555
C34_3 C35_3 1_555 1_555
C36_3 C37_3 1_555 1_555
C42_3 C43_3 1_555 1_555
C48_3 C49_3 1_555 1_555
P2_2 C32_4 1_555 1_555
C29_4 O3_4 1_555 1_555
C30_4 C29_4 1_555 1_555
H20_4 C30_4 1_555 1_555
C32_4 C33_4 1_555 1_555
C34_4 C33_4 1_555 1_555
C35_4 C29_4 1_555 1_555
C36_4 C35_4 1_555 1_555
H23_4 C36_4 1_555 1_555
C37_4 C32_4 1_555 1_555
H24_4 C37_4 1_555 1_555
C38_4 P2_2 1_555 1_555
C39_4 C38_4 1_555 1_555
H25_4 C39_4 1_555 1_555
C40_4 C39_4 1_555 1_555
H26_4 C40_4 1_555 1_555
C41_4 C40_4 1_555 1_555
H27_4 C41_4 1_555 1_555
C42_4 C41_4 1_555 1_555
H28_4 C42_4 1_555 1_555
C43_4 C38_4 1_555 1_555
H29_4 C43_4 1_555 1_555
C44_4 P2_2 1_555 1_555
C45_3 C44_4 1_555 1_555
C46_3 C45_3 1_555 1_555
H31_3 C46_3 1_555 1_555
C47_3 C46_3 1_555 1_555
H32_3 C47_3 1_555 1_555
C48_4 C47_3 1_555 1_555
H33_4 C48_4 1_555 1_555
C49_4 C44_4 1_555 1_555
H34_4 C49_4 1_555 1_555
C50_4 C31_4 1_555 1_555
C51_4 C50_4 1_555 1_555
H35_4 C51_4 1_555 1_555
C52_4 C51_4 1_555 1_555
H36_4 C52_4 1_555 1_555
C53_4 C52_4 1_555 1_555
C55_4 C50_4 1_555 1_555
C30_4 C31_4 1_555 1_555
C34_4 C35_4 1_555 1_555
C36_4 C37_4 1_555 1_555
C42_4 C43_4 1_555 1_555
C48_4 C49_4 1_555 1_555
H30_4 C45_4 1_555 1_555
C46_4 C45_4 1_555 1_555
H31_4 C46_4 1_555 1_555
C47_4 C46_4 1_555 1_555
H32_4 C47_4 1_555 1_555
C18_4 C17_4 1_555 1_555
H12_4 C18_4 1_555 1_555
C19_4 C18_4 1_555 1_555
H13_4 C19_4 1_555 1_555
C20_4 C19_4 1_555 1_555
H14_4 C20_4 1_555 1_555
Cl1 O7 1_555 1_555
O8 Cl1 1_555 1_555
O9 Cl1 1_555 1_555
O10 Cl1 1_555 1_555
Cl1_2 O7_2 1_555 1_555
O8_2 Cl1_2 1_555 1_555
O9_2 Cl1_2 1_555 1_555
O10_2 Cl1_2 1_555 1_555
Cl1_3 O7_3 1_555 1_555
O8_3 Cl1_3 1_555 1_555
O9_3 Cl1_3 1_555 1_555
O10_3 Cl1_3 1_555 1_555
Cl1_4 O7_4 1_555 1_555
O8_4 Cl1_4 1_555 1_555
O9_4 Cl1_4 1_555 1_555
O10_4 Cl1_4 1_555 1_555

#END
