
###############################################################################
#
# This file contains modified crystal structure data generated from the
# MOF subset of the Cambridge Structural Database (CSD) v543 
# hosted by the Cambridge Crystallographic Data Centre (CCDC).
#
# This work is licensed under the Creative Commons
# Attribution-NonCommercial-ShareAlike 4.0 International License.
# To view a copy of this license, visit
# http://creativecommons.org/licenses/by-nc-sa/4.0/
# or send a letter to
# Creative Commons, PO Box 1866, Mountain View, CA 94042, USA.
#
# CIF created using the CSD Python API on 29 September 2022
# The structure has been converted into the P1 space group
# The structure has a 3D framework
# The original CSD entry HAJDII is in the hexagonal crystal system
# The original CSD entry HAJDII is in a Sohncke space group
# The framework has been calculated to contain at least 10.0% void space
# The void calculation uses a probe of radius 1.32A, grid spacing 0.4
# The framework is charged, counterions have been retained in the structure
#
###############################################################################

data_HAJDII
_chemical_formula_moiety         '(C264 H480 N48 O60 Tb10 42+)n'
_symmetry_cell_setting           triclinic
_symmetry_space_group_name_H-M   'P 1'
_symmetry_Int_Tables_number      1
_space_group_name_Hall           'P 1'
loop_
_symmetry_equiv_pos_site_id
_symmetry_equiv_pos_as_xyz
1 x,y,z
_cell_length_a                   15.1834(4)
_cell_length_b                   15.1834(4)
_cell_length_c                   26.5282(9)
_cell_angle_alpha                90
_cell_angle_beta                 90
_cell_angle_gamma                120
_cell_volume                     5296.35
loop_
_atom_site_label
_atom_site_type_symbol
_atom_site_fract_x
_atom_site_fract_y
_atom_site_fract_z
H4 H 0.1448 0.0227 0.8102
C2 C 0.094(3) 0.066(2) 0.7536(15)
H6 H 0.0907 0.0517 0.7182
H7 H 0.1512 0.1322 0.7603
H8 H 0.0326 0.0649 0.7638
C1 C 0.006(3) 0.906(3) 0.7884(14)
H1 H 0.0121 0.8549 0.8070
N1 N 0.104(2) 0.993(3) 0.7807(13)
H5 H 0.1410 0.9704 0.7591
H2 H 0.9638 0.9251 0.8070
H3 H 0.9745 0.8782 0.7564
C1_2 C 0.100(4) 0.006(3) 0.4551(14)
H1_2 H 0.1572 0.0121 0.4737
N1_2 N 0.111(4) 0.104(2) 0.4474(13)
H4_2 H 0.1221 0.1448 0.4769
H5_2 H 0.1706 0.1410 0.4258
C2_2 C 0.028(4) 0.094(3) 0.4203(15)
H6_2 H 0.0390 0.0907 0.3849
H7_2 H 0.0190 0.1512 0.4270
H2_2 H 0.0387 0.9638 0.4737
H3_2 H 0.0963 0.9745 0.4231
H8_2 H 0.9677 0.0326 0.4305
C1_3 C 0.094(3) 0.100(4) 0.1217(14)
H1_3 H 0.1451 0.1572 0.1403
H2_3 H 0.0749 0.0387 0.1403
H3_3 H 0.1218 0.0963 0.0897
N1_3 N 0.007(3) 0.111(4) 0.1140(13)
H5_3 H 0.0296 0.1706 0.0924
H4_3 H 0.9773 0.1221 0.1435
C2_3 C 0.934(2) 0.028(4) 0.0869(15)
H6_3 H 0.9483 0.0390 0.0515
H7_3 H 0.8678 0.0190 0.0936
H8_3 H 0.9351 0.9677 0.0971
H2_4 H 0.0362 0.0749 0.8070
H3_4 H 0.0255 0.1218 0.7564
C1_4 C 0.994(3) 0.094(3) 0.7884(14)
H1_4 H 0.9879 0.1451 0.8070
N1_4 N 0.896(2) 0.007(3) 0.7807(13)
H5_4 H 0.8590 0.0296 0.7591
H4_4 H 0.8552 0.9773 0.8102
C2_4 C 0.906(3) 0.934(2) 0.7536(15)
H6_4 H 0.9093 0.9483 0.7182
H7_4 H 0.8488 0.8678 0.7603
H8_4 H 0.9674 0.9351 0.7638
H8_5 H 0.0323 0.9674 0.4305
H2_5 H 0.9613 0.0362 0.4737
H3_5 H 0.9037 0.0255 0.4231
C1_5 C 0.900(4) 0.994(3) 0.4551(14)
H1_5 H 0.8428 0.9879 0.4737
N1_5 N 0.889(4) 0.896(2) 0.4474(13)
H4_5 H 0.8779 0.8552 0.4769
H5_5 H 0.8294 0.8590 0.4258
C2_5 C 0.972(4) 0.906(3) 0.4203(15)
H6_5 H 0.9610 0.9093 0.3849
H7_5 H 0.9810 0.8488 0.4270
H8_6 H 0.0649 0.0323 0.0971
H4_6 H 0.0227 0.8779 0.1435
C2_6 C 0.066(2) 0.972(4) 0.0869(15)
H6_6 H 0.0517 0.9610 0.0515
H7_6 H 0.1322 0.9810 0.0936
C1_6 C 0.906(3) 0.900(4) 0.1217(14)
H1_6 H 0.8549 0.8428 0.1403
H2_6 H 0.9251 0.9613 0.1403
H3_6 H 0.8782 0.9037 0.0897
N1_6 N 0.993(3) 0.889(4) 0.1140(13)
H5_6 H 0.9704 0.8294 0.0924
C1_7 C 0.100(4) 0.094(3) 0.2116(14)
H1_7 H 0.1572 0.1451 0.1930
H2_7 H 0.0387 0.0749 0.1930
H3_7 H 0.0963 0.1218 0.2436
N1_7 N 0.111(4) 0.007(3) 0.2193(13)
H5_7 H 0.1706 0.0296 0.2409
H4_7 H 0.1221 0.9773 0.1898
C2_7 C 0.028(4) 0.934(2) 0.2464(15)
H6_7 H 0.0390 0.9483 0.2818
H7_7 H 0.0190 0.8678 0.2397
H8_7 H 0.9677 0.9351 0.2362
H2_8 H 0.0362 0.9613 0.8597
H3_8 H 0.0255 0.9037 0.9103
H8_8 H 0.9674 0.0323 0.9029
C1_8 C 0.994(3) 0.900(4) 0.8783(14)
H1_8 H 0.9879 0.8428 0.8597
N1_8 N 0.896(2) 0.889(4) 0.8860(13)
H4_8 H 0.8552 0.8779 0.8565
H5_8 H 0.8590 0.8294 0.9076
C2_8 C 0.906(3) 0.972(4) 0.9131(15)
H6_8 H 0.9093 0.9610 0.9485
H7_8 H 0.8488 0.9810 0.9064
H4_9 H 0.0227 0.1448 0.5231
C2_9 C 0.066(2) 0.094(3) 0.5797(15)
H6_9 H 0.0517 0.0907 0.6151
H7_9 H 0.1322 0.1512 0.5730
H8_9 H 0.0649 0.0326 0.5695
C1_9 C 0.906(3) 0.006(3) 0.5449(14)
H1_9 H 0.8549 0.0121 0.5263
N1_9 N 0.993(3) 0.104(2) 0.5526(13)
H5_9 H 0.9704 0.1410 0.5742
H2_9 H 0.9251 0.9638 0.5263
H3_9 H 0.8782 0.9745 0.5769
H2_10 H 0.0749 0.0362 0.5263
H3_10 H 0.1218 0.0255 0.5769
C1_10 C 0.094(3) 0.994(3) 0.5449(14)
H1_10 H 0.1451 0.9879 0.5263
N1_10 N 0.007(3) 0.896(2) 0.5526(13)
H5_10 H 0.0296 0.8590 0.5742
H4_10 H 0.9773 0.8552 0.5231
C2_10 C 0.934(2) 0.906(3) 0.5797(15)
H6_10 H 0.9483 0.9093 0.6151
H7_10 H 0.8678 0.8488 0.5730
H8_10 H 0.9351 0.9674 0.5695
H8_11 H 0.0323 0.0649 0.2362
H4_11 H 0.8779 0.0227 0.1898
C2_11 C 0.972(4) 0.066(2) 0.2464(15)
H6_11 H 0.9610 0.0517 0.2818
H7_11 H 0.9810 0.1322 0.2397
C1_11 C 0.900(4) 0.906(3) 0.2116(14)
H1_11 H 0.8428 0.8549 0.1930
H2_11 H 0.9613 0.9251 0.1930
H3_11 H 0.9037 0.8782 0.2436
N1_11 N 0.889(4) 0.993(3) 0.2193(13)
H5_11 H 0.8294 0.9704 0.2409
C1_12 C 0.006(3) 0.100(4) 0.8783(14)
H1_12 H 0.0121 0.1572 0.8597
N1_12 N 0.104(2) 0.111(4) 0.8860(13)
H4_12 H 0.1448 0.1221 0.8565
H5_12 H 0.1410 0.1706 0.9076
C2_12 C 0.094(3) 0.028(4) 0.9131(15)
H6_12 H 0.0907 0.0390 0.9485
H7_12 H 0.1512 0.0190 0.9064
H8_12 H 0.0326 0.9677 0.9029
H2_12 H 0.9638 0.0387 0.8597
H3_12 H 0.9745 0.0963 0.9103
H10 H 0.0362 0.0749 0.8070
H11 H 0.0255 0.1218 0.7564
C3 C 0.994(3) 0.094(3) 0.7884(14)
H9 H 0.9879 0.1451 0.8070
N2 N 0.896(2) 0.007(3) 0.7807(13)
H13 H 0.8590 0.0296 0.7591
H12 H 0.8552 0.9773 0.8102
C4 C 0.906(3) 0.934(2) 0.7536(15)
H14 H 0.9093 0.9483 0.7182
H15 H 0.8488 0.8678 0.7603
H16 H 0.9674 0.9351 0.7638
H16_2 H 0.0323 0.9674 0.4305
H10_2 H 0.9613 0.0362 0.4737
H11_2 H 0.9037 0.0255 0.4231
C3_2 C 0.900(4) 0.994(3) 0.4551(14)
H9_2 H 0.8428 0.9879 0.4737
N2_2 N 0.889(4) 0.896(2) 0.4474(13)
H12_2 H 0.8779 0.8552 0.4769
H13_2 H 0.8294 0.8590 0.4258
C4_2 C 0.972(4) 0.906(3) 0.4203(15)
H14_2 H 0.9610 0.9093 0.3849
H15_2 H 0.9810 0.8488 0.4270
H16_3 H 0.0649 0.0323 0.0971
H12_3 H 0.0227 0.8779 0.1435
C4_3 C 0.066(2) 0.972(4) 0.0869(15)
H14_3 H 0.0517 0.9610 0.0515
H15_3 H 0.1322 0.9810 0.0936
C3_3 C 0.906(3) 0.900(4) 0.1217(14)
H9_3 H 0.8549 0.8428 0.1403
H10_3 H 0.9251 0.9613 0.1403
H11_3 H 0.8782 0.9037 0.0897
N2_3 N 0.993(3) 0.889(4) 0.1140(13)
H13_3 H 0.9704 0.8294 0.0924
H12_4 H 0.1448 0.0227 0.8102
C4_4 C 0.094(3) 0.066(2) 0.7536(15)
H14_4 H 0.0907 0.0517 0.7182
H15_4 H 0.1512 0.1322 0.7603
H16_4 H 0.0326 0.0649 0.7638
C3_4 C 0.006(3) 0.906(3) 0.7884(14)
H9_4 H 0.0121 0.8549 0.8070
N2_4 N 0.104(2) 0.993(3) 0.7807(13)
H13_4 H 0.1410 0.9704 0.7591
H10_4 H 0.9638 0.9251 0.8070
H11_4 H 0.9745 0.8782 0.7564
C3_5 C 0.100(4) 0.006(3) 0.4551(14)
H9_5 H 0.1572 0.0121 0.4737
N2_5 N 0.111(4) 0.104(2) 0.4474(13)
H12_5 H 0.1221 0.1448 0.4769
H13_5 H 0.1706 0.1410 0.4258
C4_5 C 0.028(4) 0.094(3) 0.4203(15)
H14_5 H 0.0390 0.0907 0.3849
H15_5 H 0.0190 0.1512 0.4270
H10_5 H 0.0387 0.9638 0.4737
H11_5 H 0.0963 0.9745 0.4231
H16_5 H 0.9677 0.0326 0.4305
C3_6 C 0.094(3) 0.100(4) 0.1217(14)
H9_6 H 0.1451 0.1572 0.1403
H10_6 H 0.0749 0.0387 0.1403
H11_6 H 0.1218 0.0963 0.0897
N2_6 N 0.007(3) 0.111(4) 0.1140(13)
H13_6 H 0.0296 0.1706 0.0924
H12_6 H 0.9773 0.1221 0.1435
C4_6 C 0.934(2) 0.028(4) 0.0869(15)
H14_6 H 0.9483 0.0390 0.0515
H15_6 H 0.8678 0.0190 0.0936
H16_6 H 0.9351 0.9677 0.0971
H16_7 H 0.0323 0.0649 0.2362
H12_7 H 0.8779 0.0227 0.1898
C4_7 C 0.972(4) 0.066(2) 0.2464(15)
H14_7 H 0.9610 0.0517 0.2818
H15_7 H 0.9810 0.1322 0.2397
C3_7 C 0.900(4) 0.906(3) 0.2116(14)
H9_7 H 0.8428 0.8549 0.1930
H10_7 H 0.9613 0.9251 0.1930
H11_7 H 0.9037 0.8782 0.2436
N2_7 N 0.889(4) 0.993(3) 0.2193(13)
H13_7 H 0.8294 0.9704 0.2409
C3_8 C 0.006(3) 0.100(4) 0.8783(14)
H9_8 H 0.0121 0.1572 0.8597
N2_8 N 0.104(2) 0.111(4) 0.8860(13)
H12_8 H 0.1448 0.1221 0.8565
H13_8 H 0.1410 0.1706 0.9076
C4_8 C 0.094(3) 0.028(4) 0.9131(15)
H14_8 H 0.0907 0.0390 0.9485
H15_8 H 0.1512 0.0190 0.9064
H16_8 H 0.0326 0.9677 0.9029
H10_8 H 0.9638 0.0387 0.8597
H11_8 H 0.9745 0.0963 0.9103
H10_9 H 0.0749 0.0362 0.5263
H11_9 H 0.1218 0.0255 0.5769
C3_9 C 0.094(3) 0.994(3) 0.5449(14)
H9_9 H 0.1451 0.9879 0.5263
N2_9 N 0.007(3) 0.896(2) 0.5526(13)
H13_9 H 0.0296 0.8590 0.5742
H12_9 H 0.9773 0.8552 0.5231
C4_9 C 0.934(2) 0.906(3) 0.5797(15)
H14_9 H 0.9483 0.9093 0.6151
H15_9 H 0.8678 0.8488 0.5730
H16_9 H 0.9351 0.9674 0.5695
H12_10 H 0.0227 0.1448 0.5231
C4_10 C 0.066(2) 0.094(3) 0.5797(15)
H14_10 H 0.0517 0.0907 0.6151
H15_10 H 0.1322 0.1512 0.5730
H16_10 H 0.0649 0.0326 0.5695
C3_10 C 0.906(3) 0.006(3) 0.5449(14)
H9_10 H 0.8549 0.0121 0.5263
N2_10 N 0.993(3) 0.104(2) 0.5526(13)
H13_10 H 0.9704 0.1410 0.5742
H10_10 H 0.9251 0.9638 0.5263
H11_10 H 0.8782 0.9745 0.5769
C3_11 C 0.100(4) 0.094(3) 0.2116(14)
H9_11 H 0.1572 0.1451 0.1930
H10_11 H 0.0387 0.0749 0.1930
H11_11 H 0.0963 0.1218 0.2436
N2_11 N 0.111(4) 0.007(3) 0.2193(13)
H13_11 H 0.1706 0.0296 0.2409
H12_11 H 0.1221 0.9773 0.1898
C4_11 C 0.028(4) 0.934(2) 0.2464(15)
H14_11 H 0.0390 0.9483 0.2818
H15_11 H 0.0190 0.8678 0.2397
H16_11 H 0.9677 0.9351 0.2362
H10_12 H 0.0362 0.9613 0.8597
H11_12 H 0.0255 0.9037 0.9103
H16_12 H 0.9674 0.0323 0.9029
C3_12 C 0.994(3) 0.900(4) 0.8783(14)
H9_12 H 0.9879 0.8428 0.8597
N2_12 N 0.896(2) 0.889(4) 0.8860(13)
H12_12 H 0.8552 0.8779 0.8565
H13_12 H 0.8590 0.8294 0.9076
C4_12 C 0.906(3) 0.972(4) 0.9131(15)
H14_12 H 0.9093 0.9610 0.9485
H15_12 H 0.8488 0.9810 0.9064
H20 H 0.0227 0.1448 0.5231
C6 C 0.066(2) 0.094(3) 0.5797(15)
H22 H 0.0517 0.0907 0.6151
H23 H 0.1322 0.1512 0.5730
H24 H 0.0649 0.0326 0.5695
C5 C 0.906(3) 0.006(3) 0.5449(14)
H17 H 0.8549 0.0121 0.5263
N3 N 0.993(3) 0.104(2) 0.5526(13)
H21 H 0.9704 0.1410 0.5742
H18 H 0.9251 0.9638 0.5263
H19 H 0.8782 0.9745 0.5769
H24_2 H 0.0323 0.0649 0.2362
H20_2 H 0.8779 0.0227 0.1898
C6_2 C 0.972(4) 0.066(2) 0.2464(15)
H22_2 H 0.9610 0.0517 0.2818
H23_2 H 0.9810 0.1322 0.2397
C5_2 C 0.900(4) 0.906(3) 0.2116(14)
H17_2 H 0.8428 0.8549 0.1930
H18_2 H 0.9613 0.9251 0.1930
H19_2 H 0.9037 0.8782 0.2436
N3_2 N 0.889(4) 0.993(3) 0.2193(13)
H21_2 H 0.8294 0.9704 0.2409
H18_3 H 0.0362 0.9613 0.8597
H19_3 H 0.0255 0.9037 0.9103
H24_3 H 0.9674 0.0323 0.9029
C5_3 C 0.994(3) 0.900(4) 0.8783(14)
H17_3 H 0.9879 0.8428 0.8597
N3_3 N 0.896(2) 0.889(4) 0.8860(13)
H20_3 H 0.8552 0.8779 0.8565
H21_3 H 0.8590 0.8294 0.9076
C6_3 C 0.906(3) 0.972(4) 0.9131(15)
H22_3 H 0.9093 0.9610 0.9485
H23_3 H 0.8488 0.9810 0.9064
H18_4 H 0.0749 0.0362 0.5263
H19_4 H 0.1218 0.0255 0.5769
C5_4 C 0.094(3) 0.994(3) 0.5449(14)
H17_4 H 0.1451 0.9879 0.5263
N3_4 N 0.007(3) 0.896(2) 0.5526(13)
H21_4 H 0.0296 0.8590 0.5742
H20_4 H 0.9773 0.8552 0.5231
C6_4 C 0.934(2) 0.906(3) 0.5797(15)
H22_4 H 0.9483 0.9093 0.6151
H23_4 H 0.8678 0.8488 0.5730
H24_4 H 0.9351 0.9674 0.5695
C5_5 C 0.100(4) 0.094(3) 0.2116(14)
H17_5 H 0.1572 0.1451 0.1930
H18_5 H 0.0387 0.0749 0.1930
H19_5 H 0.0963 0.1218 0.2436
N3_5 N 0.111(4) 0.007(3) 0.2193(13)
H21_5 H 0.1706 0.0296 0.2409
H20_5 H 0.1221 0.9773 0.1898
C6_5 C 0.028(4) 0.934(2) 0.2464(15)
H22_5 H 0.0390 0.9483 0.2818
H23_5 H 0.0190 0.8678 0.2397
H24_5 H 0.9677 0.9351 0.2362
C5_6 C 0.006(3) 0.100(4) 0.8783(14)
H17_6 H 0.0121 0.1572 0.8597
N3_6 N 0.104(2) 0.111(4) 0.8860(13)
H20_6 H 0.1448 0.1221 0.8565
H21_6 H 0.1410 0.1706 0.9076
C6_6 C 0.094(3) 0.028(4) 0.9131(15)
H22_6 H 0.0907 0.0390 0.9485
H23_6 H 0.1512 0.0190 0.9064
H24_6 H 0.0326 0.9677 0.9029
H18_6 H 0.9638 0.0387 0.8597
H19_6 H 0.9745 0.0963 0.9103
H24_7 H 0.0323 0.9674 0.4305
H18_7 H 0.9613 0.0362 0.4737
H19_7 H 0.9037 0.0255 0.4231
C5_7 C 0.900(4) 0.994(3) 0.4551(14)
H17_7 H 0.8428 0.9879 0.4737
N3_7 N 0.889(4) 0.896(2) 0.4474(13)
H20_7 H 0.8779 0.8552 0.4769
H21_7 H 0.8294 0.8590 0.4258
C6_7 C 0.972(4) 0.906(3) 0.4203(15)
H22_7 H 0.9610 0.9093 0.3849
H23_7 H 0.9810 0.8488 0.4270
C5_8 C 0.094(3) 0.100(4) 0.1217(14)
H17_8 H 0.1451 0.1572 0.1403
H18_8 H 0.0749 0.0387 0.1403
H19_8 H 0.1218 0.0963 0.0897
N3_8 N 0.007(3) 0.111(4) 0.1140(13)
H21_8 H 0.0296 0.1706 0.0924
H20_8 H 0.9773 0.1221 0.1435
C6_8 C 0.934(2) 0.028(4) 0.0869(15)
H22_8 H 0.9483 0.0390 0.0515
H23_8 H 0.8678 0.0190 0.0936
H24_8 H 0.9351 0.9677 0.0971
H20_9 H 0.1448 0.0227 0.8102
C6_9 C 0.094(3) 0.066(2) 0.7536(15)
H22_9 H 0.0907 0.0517 0.7182
H23_9 H 0.1512 0.1322 0.7603
H24_9 H 0.0326 0.0649 0.7638
C5_9 C 0.006(3) 0.906(3) 0.7884(14)
H17_9 H 0.0121 0.8549 0.8070
N3_9 N 0.104(2) 0.993(3) 0.7807(13)
H21_9 H 0.1410 0.9704 0.7591
H18_9 H 0.9638 0.9251 0.8070
H19_9 H 0.9745 0.8782 0.7564
H18_10 H 0.0362 0.0749 0.8070
H19_10 H 0.0255 0.1218 0.7564
C5_10 C 0.994(3) 0.094(3) 0.7884(14)
H17_10 H 0.9879 0.1451 0.8070
N3_10 N 0.896(2) 0.007(3) 0.7807(13)
H21_10 H 0.8590 0.0296 0.7591
H20_10 H 0.8552 0.9773 0.8102
C6_10 C 0.906(3) 0.934(2) 0.7536(15)
H22_10 H 0.9093 0.9483 0.7182
H23_10 H 0.8488 0.8678 0.7603
H24_10 H 0.9674 0.9351 0.7638
C5_11 C 0.100(4) 0.006(3) 0.4551(14)
H17_11 H 0.1572 0.0121 0.4737
N3_11 N 0.111(4) 0.104(2) 0.4474(13)
H20_11 H 0.1221 0.1448 0.4769
H21_11 H 0.1706 0.1410 0.4258
C6_11 C 0.028(4) 0.094(3) 0.4203(15)
H22_11 H 0.0390 0.0907 0.3849
H23_11 H 0.0190 0.1512 0.4270
H18_11 H 0.0387 0.9638 0.4737
H19_11 H 0.0963 0.9745 0.4231
H24_11 H 0.9677 0.0326 0.4305
H24_12 H 0.0649 0.0323 0.0971
H20_12 H 0.0227 0.8779 0.1435
C6_12 C 0.066(2) 0.972(4) 0.0869(15)
H22_12 H 0.0517 0.9610 0.0515
H23_12 H 0.1322 0.9810 0.0936
C5_12 C 0.906(3) 0.900(4) 0.1217(14)
H17_12 H 0.8549 0.8428 0.1403
H18_12 H 0.9251 0.9613 0.1403
H19_12 H 0.8782 0.9037 0.0897
N3_12 N 0.993(3) 0.889(4) 0.1140(13)
H21_12 H 0.9704 0.8294 0.0924
H26 H 0.0749 0.0362 0.5263
H27 H 0.1218 0.0255 0.5769
C7 C 0.094(3) 0.994(3) 0.5449(14)
H25 H 0.1451 0.9879 0.5263
N4 N 0.007(3) 0.896(2) 0.5526(13)
H29 H 0.0296 0.8590 0.5742
H28 H 0.9773 0.8552 0.5231
C8 C 0.934(2) 0.906(3) 0.5797(15)
H30 H 0.9483 0.9093 0.6151
H31 H 0.8678 0.8488 0.5730
H32 H 0.9351 0.9674 0.5695
C7_2 C 0.100(4) 0.094(3) 0.2116(14)
H25_2 H 0.1572 0.1451 0.1930
H26_2 H 0.0387 0.0749 0.1930
H27_2 H 0.0963 0.1218 0.2436
N4_2 N 0.111(4) 0.007(3) 0.2193(13)
H29_2 H 0.1706 0.0296 0.2409
H28_2 H 0.1221 0.9773 0.1898
C8_2 C 0.028(4) 0.934(2) 0.2464(15)
H30_2 H 0.0390 0.9483 0.2818
H31_2 H 0.0190 0.8678 0.2397
H32_2 H 0.9677 0.9351 0.2362
C7_3 C 0.006(3) 0.100(4) 0.8783(14)
H25_3 H 0.0121 0.1572 0.8597
N4_3 N 0.104(2) 0.111(4) 0.8860(13)
H28_3 H 0.1448 0.1221 0.8565
H29_3 H 0.1410 0.1706 0.9076
C8_3 C 0.094(3) 0.028(4) 0.9131(15)
H30_3 H 0.0907 0.0390 0.9485
H31_3 H 0.1512 0.0190 0.9064
H32_3 H 0.0326 0.9677 0.9029
H26_3 H 0.9638 0.0387 0.8597
H27_3 H 0.9745 0.0963 0.9103
H28_4 H 0.0227 0.1448 0.5231
C8_4 C 0.066(2) 0.094(3) 0.5797(15)
H30_4 H 0.0517 0.0907 0.6151
H31_4 H 0.1322 0.1512 0.5730
H32_4 H 0.0649 0.0326 0.5695
C7_4 C 0.906(3) 0.006(3) 0.5449(14)
H25_4 H 0.8549 0.0121 0.5263
N4_4 N 0.993(3) 0.104(2) 0.5526(13)
H29_4 H 0.9704 0.1410 0.5742
H26_4 H 0.9251 0.9638 0.5263
H27_4 H 0.8782 0.9745 0.5769
H32_5 H 0.0323 0.0649 0.2362
H28_5 H 0.8779 0.0227 0.1898
C8_5 C 0.972(4) 0.066(2) 0.2464(15)
H30_5 H 0.9610 0.0517 0.2818
H31_5 H 0.9810 0.1322 0.2397
C7_5 C 0.900(4) 0.906(3) 0.2116(14)
H25_5 H 0.8428 0.8549 0.1930
H26_5 H 0.9613 0.9251 0.1930
H27_5 H 0.9037 0.8782 0.2436
N4_5 N 0.889(4) 0.993(3) 0.2193(13)
H29_5 H 0.8294 0.9704 0.2409
H26_6 H 0.0362 0.9613 0.8597
H27_6 H 0.0255 0.9037 0.9103
H32_6 H 0.9674 0.0323 0.9029
C7_6 C 0.994(3) 0.900(4) 0.8783(14)
H25_6 H 0.9879 0.8428 0.8597
N4_6 N 0.896(2) 0.889(4) 0.8860(13)
H28_6 H 0.8552 0.8779 0.8565
H29_6 H 0.8590 0.8294 0.9076
C8_6 C 0.906(3) 0.972(4) 0.9131(15)
H30_6 H 0.9093 0.9610 0.9485
H31_6 H 0.8488 0.9810 0.9064
C7_7 C 0.100(4) 0.006(3) 0.4551(14)
H25_7 H 0.1572 0.0121 0.4737
N4_7 N 0.111(4) 0.104(2) 0.4474(13)
H28_7 H 0.1221 0.1448 0.4769
H29_7 H 0.1706 0.1410 0.4258
C8_7 C 0.028(4) 0.094(3) 0.4203(15)
H30_7 H 0.0390 0.0907 0.3849
H31_7 H 0.0190 0.1512 0.4270
H26_7 H 0.0387 0.9638 0.4737
H27_7 H 0.0963 0.9745 0.4231
H32_7 H 0.9677 0.0326 0.4305
H32_8 H 0.0649 0.0323 0.0971
H28_8 H 0.0227 0.8779 0.1435
C8_8 C 0.066(2) 0.972(4) 0.0869(15)
H30_8 H 0.0517 0.9610 0.0515
H31_8 H 0.1322 0.9810 0.0936
C7_8 C 0.906(3) 0.900(4) 0.1217(14)
H25_8 H 0.8549 0.8428 0.1403
H26_8 H 0.9251 0.9613 0.1403
H27_8 H 0.8782 0.9037 0.0897
N4_8 N 0.993(3) 0.889(4) 0.1140(13)
H29_8 H 0.9704 0.8294 0.0924
H26_9 H 0.0362 0.0749 0.8070
H27_9 H 0.0255 0.1218 0.7564
C7_9 C 0.994(3) 0.094(3) 0.7884(14)
H25_9 H 0.9879 0.1451 0.8070
N4_9 N 0.896(2) 0.007(3) 0.7807(13)
H29_9 H 0.8590 0.0296 0.7591
H28_9 H 0.8552 0.9773 0.8102
C8_9 C 0.906(3) 0.934(2) 0.7536(15)
H30_9 H 0.9093 0.9483 0.7182
H31_9 H 0.8488 0.8678 0.7603
H32_9 H 0.9674 0.9351 0.7638
H28_10 H 0.1448 0.0227 0.8102
C8_10 C 0.094(3) 0.066(2) 0.7536(15)
H30_10 H 0.0907 0.0517 0.7182
H31_10 H 0.1512 0.1322 0.7603
H32_10 H 0.0326 0.0649 0.7638
C7_10 C 0.006(3) 0.906(3) 0.7884(14)
H25_10 H 0.0121 0.8549 0.8070
N4_10 N 0.104(2) 0.993(3) 0.7807(13)
H29_10 H 0.1410 0.9704 0.7591
H26_10 H 0.9638 0.9251 0.8070
H27_10 H 0.9745 0.8782 0.7564
H32_11 H 0.0323 0.9674 0.4305
H26_11 H 0.9613 0.0362 0.4737
H27_11 H 0.9037 0.0255 0.4231
C7_11 C 0.900(4) 0.994(3) 0.4551(14)
H25_11 H 0.8428 0.9879 0.4737
N4_11 N 0.889(4) 0.896(2) 0.4474(13)
H28_11 H 0.8779 0.8552 0.4769
H29_11 H 0.8294 0.8590 0.4258
C8_11 C 0.972(4) 0.906(3) 0.4203(15)
H30_11 H 0.9610 0.9093 0.3849
H31_11 H 0.9810 0.8488 0.4270
C7_12 C 0.094(3) 0.100(4) 0.1217(14)
H25_12 H 0.1451 0.1572 0.1403
H26_12 H 0.0749 0.0387 0.1403
H27_12 H 0.1218 0.0963 0.0897
N4_12 N 0.007(3) 0.111(4) 0.1140(13)
H29_12 H 0.0296 0.1706 0.0924
H28_12 H 0.9773 0.1221 0.1435
C8_12 C 0.934(2) 0.028(4) 0.0869(15)
H30_12 H 0.9483 0.0390 0.0515
H31_12 H 0.8678 0.0190 0.0936
H32_12 H 0.9351 0.9677 0.0971
Tb3 Tb -0.0000 0.5000 0.75536(2)
Tb5 Tb -0.0000 0.5000 0.91131(2)
C10 C 0.2287(7) 0.8000(7) 0.8352(4)
O4 O 0.1149(6) 0.6673(5) 0.7806(3)
C12 C 0.2588(9) 0.8358(9) 0.8828(4)
H33 H 0.2279 0.7925 0.9100
O5 O 0.1062(6) 0.6350(5) 0.8628(3)
C18 C 0.1432(7) 0.6932(7) 0.8250(4)
C19 C 0.3350(10) 0.9362(9) 0.8917(4)
H37 H 0.3543 0.9594 0.9245
C20 C 0.2799(10) 0.8639(8) 0.7955(4)
H38 H 0.2633 0.8393 0.7627
C22 C 0.3544(11) 0.9626(8) 0.8031(4)
O1 O 0.1326(8) 0.5715(6) 0.6898(2)
C9 C 0.1189(10) 0.4830(7) 0.6757(3)
C10_2 C 0.4287(10) 0.2287(7) 0.5019(4)
O2 O 0.3607(9) 0.4587(7) 0.5227(3)
O3 O 0.0574(7) 0.4148(4) 0.6978(3)
O4_2 O 0.4476(8) 0.1149(6) 0.4473(3)
C11 C 0.3809(13) 0.3812(9) 0.5183(4)
C12_2 C 0.4230(13) 0.2588(9) 0.5495(4)
H33_2 H 0.4354 0.2279 0.5767
C13 C 0.2276(13) 0.3743(9) 0.5851(5)
H34 H 0.2166 0.3105 0.5758
C14 C 0.3007(13) 0.4595(9) 0.5615(5)
C15 C 0.1814(11) 0.4759(8) 0.6358(4)
C16 C 0.1701(12) 0.3832(9) 0.6227(5)
H35 H 0.1225 0.3252 0.6397
C17 C 0.2525(12) 0.5602(9) 0.6111(4)
H36 H 0.2616 0.6236 0.6197
O5_2 O 0.4712(8) 0.1062(6) 0.5295(3)
C18_2 C 0.4500(10) 0.1432(7) 0.4917(4)
C19_2 C 0.3988(13) 0.3350(10) 0.5584(4)
H37_2 H 0.3949 0.3543 0.5912
C20_2 C 0.4160(13) 0.2799(10) 0.4622(4)
H38_2 H 0.4240 0.2633 0.4294
C21 C 0.3127(13) 0.5528(10) 0.5726(5)
H39 H 0.3596 0.6104 0.5551
C22_2 C 0.3918(14) 0.3544(11) 0.4698(4)
H40 H 0.3826 0.3871 0.4423
Tb2 Tb 0.5000 0.0000 0.42202(2)
Tb4 Tb 0.5000 -0.0000 0.57798(2)
O13 O 0.1062(9) 0.4712(8) 0.8039(3)
O1_2 O 0.5611(6) 0.1326(8) 0.3564(2)
C9_2 C 0.6359(7) 0.1189(10) 0.3423(3)
O2_2 O 0.9020(6) 0.3607(9) 0.1893(3)
O3_2 O 0.6426(6) 0.0574(7) 0.3644(3)
C11_2 C 0.9997(10) 0.3809(13) 0.1849(4)
C13_2 C 0.8533(10) 0.2276(13) 0.2517(5)
H34_2 H 0.9061 0.2166 0.2424
C14_2 C 0.8412(9) 0.3007(13) 0.2281(5)
C15_2 C 0.7055(8) 0.1814(11) 0.3024(4)
C16_2 C 0.7869(8) 0.1701(12) 0.2893(5)
H35_2 H 0.7973 0.1225 0.3063
C17_2 C 0.6923(8) 0.2525(12) 0.2777(4)
H36_2 H 0.6380 0.2616 0.2863
C21_2 C 0.7599(9) 0.3127(13) 0.2392(5)
H39_2 H 0.7492 0.3596 0.2217
H40_2 H 0.9955 0.3826 0.1089
O13_2 O 0.6350(5) 0.1062(9) 0.4705(3)
O1_3 O 0.1326(8) 0.5611(6) 0.9769(2)
C9_3 C 0.1189(10) 0.6359(7) 0.9910(3)
O3_3 O 0.0574(7) 0.6426(6) 0.9689(3)
O12 O 0.1149(9) 0.4476(8) 0.8861(3)
O6 O 0.5715(6) 0.1326(8) 0.6436(2)
C23 C 0.4830(7) 0.1189(10) 0.6577(3)
C24 C 0.2287(7) 0.4287(10) 0.8315(4)
O7 O 0.4587(7) 0.3607(9) 0.8107(3)
O8 O 0.4148(4) 0.0574(7) 0.6356(3)
C25 C 0.3812(9) 0.3809(13) 0.8151(4)
C26 C 0.2588(9) 0.4230(13) 0.7839(4)
H41 H 0.2279 0.4354 0.7567
C27 C 0.3743(9) 0.2276(13) 0.7483(5)
H42 H 0.3105 0.2166 0.7576
C28 C 0.4595(9) 0.3007(13) 0.7719(5)
C29 C 0.4759(8) 0.1814(11) 0.6976(4)
C30 C 0.3832(9) 0.1701(12) 0.7107(5)
H43 H 0.3252 0.1225 0.6937
C31 C 0.5602(9) 0.2525(12) 0.7223(4)
H44 H 0.6236 0.2616 0.7137
C32 C 0.1432(7) 0.4500(10) 0.8417(4)
C33 C 0.3350(10) 0.3988(13) 0.7750(4)
H45 H 0.3543 0.3949 0.7422
C34 C 0.2799(10) 0.4160(13) 0.8712(4)
H46 H 0.2633 0.4240 0.9040
C35 C 0.5528(10) 0.3127(13) 0.7608(5)
H47 H 0.6104 0.3596 0.7783
C36 C 0.3544(11) 0.3918(14) 0.8636(4)
H48 H 0.3871 0.3826 0.8911
O11 O 0.6673(5) 0.1149(9) 0.5527(3)
C10_3 C 0.8000(7) 0.2287(7) 0.4981(4)
C12_3 C 0.8358(9) 0.2588(9) 0.4505(4)
H33_3 H 0.7925 0.2279 0.4233
C18_3 C 0.6932(7) 0.1432(7) 0.5083(4)
C19_3 C 0.9362(9) 0.3350(10) 0.4416(4)
H37_3 H 0.9594 0.3543 0.4088
C20_3 C 0.8639(8) 0.2799(10) 0.5378(4)
H38_3 H 0.8393 0.2633 0.5706
C22_3 C 0.9626(8) 0.3544(11) 0.5302(4)
C24_2 C 0.7713(7) 0.2000(7) 0.8352(4)
O9 O 0.8851(6) 0.3327(5) 0.7806(3)
C26_2 C 0.7412(9) 0.1642(9) 0.8828(4)
H41_2 H 0.7721 0.2075 0.9100
O10 O 0.8938(6) 0.3650(5) 0.8628(3)
C32_2 C 0.8568(7) 0.3068(7) 0.8250(4)
C33_2 C 0.6650(10) 0.0638(9) 0.8917(4)
H45_2 H 0.6457 0.0406 0.9245
C34_2 C 0.7201(10) 0.1361(8) 0.7955(4)
H46_2 H 0.7367 0.1607 0.7627
C36_2 C 0.6456(11) 0.0374(8) 0.8031(4)
Tb3_2 Tb 1.0000 0.5000 0.75536(2)
Tb5_2 Tb 1.0000 0.5000 0.91131(2)
Tb2_2 Tb 0.5000 1.0000 0.42202(2)
Tb4_2 Tb 0.5000 1.0000 0.57798(2)
O6_2 O 0.8674(8) 0.4285(6) 0.6898(2)
C23_2 C 0.8811(10) 0.5170(7) 0.6757(3)
C24_3 C 0.5713(10) 0.7713(7) 0.5019(4)
O7_2 O 0.6393(9) 0.5413(7) 0.5227(3)
O8_2 O 0.9426(7) 0.5852(4) 0.6978(3)
O9_2 O 0.5524(8) 0.8851(6) 0.4473(3)
C25_2 C 0.6191(13) 0.6188(9) 0.5183(4)
C26_3 C 0.5770(13) 0.7412(9) 0.5495(4)
H41_3 H 0.5646 0.7721 0.5767
C27_2 C 0.7724(13) 0.6257(9) 0.5851(5)
H42_2 H 0.7834 0.6895 0.5758
C28_2 C 0.6993(13) 0.5405(9) 0.5615(5)
C29_2 C 0.8186(11) 0.5241(8) 0.6358(4)
C30_2 C 0.8299(12) 0.6168(9) 0.6227(5)
H43_2 H 0.8775 0.6748 0.6397
C31_2 C 0.7475(12) 0.4398(9) 0.6111(4)
H44_2 H 0.7384 0.3764 0.6197
O10_2 O 0.5288(8) 0.8938(6) 0.5295(3)
C32_3 C 0.5500(10) 0.8568(7) 0.4917(4)
C33_3 C 0.6012(13) 0.6650(10) 0.5584(4)
H45_3 H 0.6051 0.6457 0.5912
C34_3 C 0.5840(13) 0.7201(10) 0.4622(4)
H46_3 H 0.5760 0.7367 0.4294
C35_2 C 0.6873(13) 0.4472(10) 0.5726(5)
H47_2 H 0.6404 0.3896 0.5551
C36_3 C 0.6082(14) 0.6456(11) 0.4698(4)
H48_2 H 0.6174 0.6129 0.4423
O14 O 0.8938(9) 0.5288(8) 0.8039(3)
O6_3 O 0.4389(6) 0.8674(8) 0.3564(2)
C23_3 C 0.3641(7) 0.8811(10) 0.3423(3)
O7_3 O 0.0980(6) 0.6393(9) 0.1893(3)
O8_3 O 0.3574(6) 0.9426(7) 0.3644(3)
C25_3 C 0.0003(10) 0.6191(13) 0.1849(4)
C27_3 C 0.1467(10) 0.7724(13) 0.2517(5)
H42_3 H 0.0939 0.7834 0.2424
C28_3 C 0.1588(9) 0.6993(13) 0.2281(5)
C29_3 C 0.2945(8) 0.8186(11) 0.3024(4)
C30_3 C 0.2131(8) 0.8299(12) 0.2893(5)
H43_3 H 0.2027 0.8775 0.3063
C31_3 C 0.3077(8) 0.7475(12) 0.2777(4)
H44_3 H 0.3620 0.7384 0.2863
C35_3 C 0.2401(9) 0.6873(13) 0.2392(5)
H47_3 H 0.2508 0.6404 0.2217
H48_3 H 0.0045 0.6174 0.1089
O14_2 O 0.3650(5) 0.8938(9) 0.4705(3)
O6_4 O 0.8674(8) 0.4389(6) 0.9769(2)
C23_4 C 0.8811(10) 0.3641(7) 0.9910(3)
O8_4 O 0.9426(7) 0.3574(6) 0.9689(3)
O11_2 O 0.8851(9) 0.5524(8) 0.8861(3)
O1_4 O 0.4285(6) 0.8674(8) 0.6436(2)
C9_4 C 0.5170(7) 0.8811(10) 0.6577(3)
C10_4 C 0.7713(7) 0.5713(10) 0.8315(4)
O2_3 O 0.5413(7) 0.6393(9) 0.8107(3)
O3_4 O 0.5852(4) 0.9426(7) 0.6356(3)
C11_3 C 0.6188(9) 0.6191(13) 0.8151(4)
C12_4 C 0.7412(9) 0.5770(13) 0.7839(4)
H33_4 H 0.7721 0.5646 0.7567
C13_3 C 0.6257(9) 0.7724(13) 0.7483(5)
H34_3 H 0.6895 0.7834 0.7576
C14_3 C 0.5405(9) 0.6993(13) 0.7719(5)
C15_3 C 0.5241(8) 0.8186(11) 0.6976(4)
C16_3 C 0.6168(9) 0.8299(12) 0.7107(5)
H35_3 H 0.6748 0.8775 0.6937
C17_3 C 0.4398(9) 0.7475(12) 0.7223(4)
H36_3 H 0.3764 0.7384 0.7137
C18_4 C 0.8568(7) 0.5500(10) 0.8417(4)
C19_4 C 0.6650(10) 0.6012(13) 0.7750(4)
H37_4 H 0.6457 0.6051 0.7422
C20_4 C 0.7201(10) 0.5840(13) 0.8712(4)
H38_4 H 0.7367 0.5760 0.9040
C21_3 C 0.4472(10) 0.6873(13) 0.7608(5)
H39_3 H 0.3896 0.6404 0.7783
C22_4 C 0.6456(11) 0.6082(14) 0.8636(4)
H40_3 H 0.6129 0.6174 0.8911
O12_2 O 0.3327(5) 0.8851(9) 0.5527(3)
C24_4 C 0.2000(7) 0.7713(7) 0.4981(4)
C26_4 C 0.1642(9) 0.7412(9) 0.4505(4)
H41_4 H 0.2075 0.7721 0.4233
C32_4 C 0.3068(7) 0.8568(7) 0.5083(4)
C33_4 C 0.0638(9) 0.6650(10) 0.4416(4)
H45_4 H 0.0406 0.6457 0.4088
C34_4 C 0.1361(8) 0.7201(10) 0.5378(4)
H46_4 H 0.1607 0.7367 0.5706
C36_4 C 0.0374(8) 0.6456(11) 0.5302(4)
Tb1 Tb 0.5000 0.5000 0.08869(2)
O1_5 O 0.5715(6) 0.4389(6) 0.0231(2)
C9_5 C 0.4830(7) 0.3641(7) 0.0090(3)
O3_5 O 0.4148(4) 0.3574(6) 0.0311(3)
O6_5 O 0.4285(6) 0.5611(6) 0.0231(2)
C23_5 C 0.5170(7) 0.6359(7) 0.0090(3)
O8_5 O 0.5852(4) 0.6426(6) 0.0311(3)
O11_3 O 0.3327(5) 0.4476(8) 0.1139(3)
O12_3 O 0.6673(5) 0.5524(8) 0.1139(3)
O13_3 O 0.4712(8) 0.3650(5) 0.1372(3)
O14_3 O 0.5288(8) 0.6350(5) 0.1372(3)
C10_5 C 0.2000(7) 0.4287(10) 0.1685(4)
C12_5 C 0.1642(9) 0.4230(13) 0.2161(4)
H33_5 H 0.2075 0.4354 0.2433
O5_3 O 0.3650(5) 0.4712(8) 0.1961(3)
C18_5 C 0.3068(7) 0.4500(10) 0.1583(4)
C19_5 C 0.0638(9) 0.3988(13) 0.2250(4)
H37_5 H 0.0406 0.3949 0.2578
C20_5 C 0.1361(8) 0.4160(13) 0.1288(4)
H38_5 H 0.1607 0.4240 0.0960
C22_5 C 0.0374(8) 0.3918(14) 0.1364(4)
Tb4_3 Tb 0.5000 0.5000 0.24464(2)
C24_5 C 0.8000(7) 0.5713(10) 0.1685(4)
C26_5 C 0.8358(9) 0.5770(13) 0.2161(4)
H41_5 H 0.7925 0.5646 0.2433
O10_3 O 0.6350(5) 0.5288(8) 0.1961(3)
C32_5 C 0.6932(7) 0.5500(10) 0.1583(4)
C33_5 C 0.9362(9) 0.6012(13) 0.2250(4)
H45_5 H 0.9594 0.6051 0.2578
C34_5 C 0.8639(8) 0.5840(13) 0.1288(4)
H46_5 H 0.8393 0.5760 0.0960
C36_5 C 0.9626(8) 0.6082(14) 0.1364(4)
C10_6 C 0.4287(10) 0.2000(7) 0.1648(4)
O4_3 O 0.4476(8) 0.3327(5) 0.2194(3)
C12_6 C 0.4230(13) 0.1642(9) 0.1172(4)
H33_6 H 0.4354 0.2075 0.0900
C18_6 C 0.4500(10) 0.3068(7) 0.1750(4)
C19_6 C 0.3988(13) 0.0638(9) 0.1083(4)
H37_6 H 0.3949 0.0406 0.0755
C20_6 C 0.4160(13) 0.1361(8) 0.2045(4)
H38_6 H 0.4240 0.1607 0.2373
C22_6 C 0.3918(14) 0.0374(8) 0.1969(4)
C24_6 C 0.5713(10) 0.8000(7) 0.1648(4)
O9_3 O 0.5524(8) 0.6673(5) 0.2194(3)
C26_6 C 0.5770(13) 0.8358(9) 0.1172(4)
H41_6 H 0.5646 0.7925 0.0900
C32_6 C 0.5500(10) 0.6932(7) 0.1750(4)
C33_6 C 0.6012(13) 0.9362(9) 0.1083(4)
H45_6 H 0.6051 0.9594 0.0755
C34_6 C 0.5840(13) 0.8639(8) 0.2045(4)
H46_6 H 0.5760 0.8393 0.2373
C36_6 C 0.6082(14) 0.9626(8) 0.1969(4)
O1_6 O 0.4389(6) 0.5715(6) 0.3102(2)
C9_6 C 0.3641(7) 0.4830(7) 0.3243(3)
O2_4 O 0.0980(6) 0.4587(7) 0.4773(3)
O3_6 O 0.3574(6) 0.4148(4) 0.3022(3)
C11_4 C 0.0003(10) 0.3812(9) 0.4817(4)
C13_4 C 0.1467(10) 0.3743(9) 0.4149(5)
H34_4 H 0.0939 0.3105 0.4242
C14_4 C 0.1588(9) 0.4595(9) 0.4385(5)
C15_4 C 0.2945(8) 0.4759(8) 0.3642(4)
C16_4 C 0.2131(8) 0.3832(9) 0.3773(5)
H35_4 H 0.2027 0.3252 0.3603
C17_4 C 0.3077(8) 0.5602(9) 0.3889(4)
H36_4 H 0.3620 0.6236 0.3803
C21_4 C 0.2401(9) 0.5528(10) 0.4274(5)
H39_4 H 0.2508 0.6104 0.4449
H40_4 H 0.0045 0.3871 0.5577
O6_6 O 0.5611(6) 0.4285(6) 0.3102(2)
C23_6 C 0.6359(7) 0.5170(7) 0.3243(3)
O7_4 O 0.9020(6) 0.5413(7) 0.4773(3)
O8_6 O 0.6426(6) 0.5852(4) 0.3022(3)
C25_4 C 0.9997(10) 0.6188(9) 0.4817(4)
C27_4 C 0.8533(10) 0.6257(9) 0.4149(5)
H42_4 H 0.9061 0.6895 0.4242
C28_4 C 0.8412(9) 0.5405(9) 0.4385(5)
C29_4 C 0.7055(8) 0.5241(8) 0.3642(4)
C30_4 C 0.7869(8) 0.6168(9) 0.3773(5)
H43_4 H 0.7973 0.6748 0.3603
C31_4 C 0.6923(8) 0.4398(9) 0.3889(4)
H44_4 H 0.6380 0.3764 0.3803
C35_4 C 0.7599(9) 0.4472(10) 0.4274(5)
H47_4 H 0.7492 0.3896 0.4449
H48_4 H 0.9955 0.6129 0.5577
O2_5 O 0.4587(7) 0.0980(6) 0.8560(3)
C11_5 C 0.3812(9) 0.0003(10) 0.8516(4)
C13_5 C 0.3743(9) 0.1467(10) 0.9184(5)
H34_5 H 0.3105 0.0939 0.9091
C14_5 C 0.4595(9) 0.1588(9) 0.8948(5)
C15_5 C 0.4759(8) 0.2945(8) 0.9691(4)
C16_5 C 0.3832(9) 0.2131(8) 0.9560(5)
H35_5 H 0.3252 0.2027 0.9730
C17_5 C 0.5602(9) 0.3077(8) 0.9444(4)
H36_5 H 0.6236 0.3620 0.9530
C21_5 C 0.5528(10) 0.2401(9) 0.9059(5)
H39_5 H 0.6104 0.2508 0.8884
H40_5 H 0.3871 0.0045 0.7756
O7_5 O 0.5413(7) 0.9020(6) 0.8560(3)
C25_5 C 0.6188(9) 0.9997(10) 0.8516(4)
C27_5 C 0.6257(9) 0.8533(10) 0.9184(5)
H42_5 H 0.6895 0.9061 0.9091
C28_5 C 0.5405(9) 0.8412(9) 0.8948(5)
C29_5 C 0.5241(8) 0.7055(8) 0.9691(4)
C30_5 C 0.6168(9) 0.7869(8) 0.9560(5)
H43_5 H 0.6748 0.7973 0.9730
C31_5 C 0.4398(9) 0.6923(8) 0.9444(4)
H44_5 H 0.3764 0.6380 0.9530
C35_5 C 0.4472(10) 0.7599(9) 0.9059(5)
H47_5 H 0.3896 0.7492 0.8884
H48_5 H 0.6129 0.9955 0.7756
O2_6 O 0.3607(9) 0.9020(6) 0.1440(3)
C11_6 C 0.3809(13) 0.9997(10) 0.1484(4)
C13_6 C 0.2276(13) 0.8533(10) 0.0816(5)
H34_6 H 0.2166 0.9061 0.0909
C14_6 C 0.3007(13) 0.8412(9) 0.1052(5)
C15_6 C 0.1814(11) 0.7055(8) 0.0309(4)
C16_6 C 0.1701(12) 0.7869(8) 0.0440(5)
H35_6 H 0.1225 0.7973 0.0270
C17_6 C 0.2525(12) 0.6923(8) 0.0556(4)
H36_6 H 0.2616 0.6380 0.0470
C21_6 C 0.3127(13) 0.7599(9) 0.0941(5)
H39_6 H 0.3596 0.7492 0.1116
H40_6 H 0.3826 0.9955 0.2244
O7_6 O 0.6393(9) 0.0980(6) 0.1440(3)
C25_6 C 0.6191(13) 0.0003(10) 0.1484(4)
C27_6 C 0.7724(13) 0.1467(10) 0.0816(5)
H42_6 H 0.7834 0.0939 0.0909
C28_6 C 0.6993(13) 0.1588(9) 0.1052(5)
C29_6 C 0.8186(11) 0.2945(8) 0.0309(4)
C30_6 C 0.8299(12) 0.2131(8) 0.0440(5)
H43_6 H 0.8775 0.2027 0.0270
C31_6 C 0.7475(12) 0.3077(8) 0.0556(4)
H44_6 H 0.7384 0.3620 0.0470
C35_6 C 0.6873(13) 0.2401(9) 0.0941(5)
H47_6 H 0.6404 0.2508 0.1116
H48_6 H 0.6174 0.0045 0.2244
loop_
_geom_bond_atom_site_label_1
_geom_bond_atom_site_label_2
_geom_bond_site_symmetry_1
_geom_bond_site_symmetry_2
H6 C2 1_555 1_555
H7 C2 1_555 1_555
H8 C2 1_555 1_555
C1 H1 1_555 1_555
N1 C1 1_555 1_555
H5 N1 1_555 1_555
C1_2 H1_2 1_555 1_555
N1_2 C1_2 1_555 1_555
H4_2 N1_2 1_555 1_555
H5_2 N1_2 1_555 1_555
C2_2 N1_2 1_555 1_555
H6_2 C2_2 1_555 1_555
H7_2 C2_2 1_555 1_555
C1_3 H1_3 1_555 1_555
H2_3 C1_3 1_555 1_555
H3_3 C1_3 1_555 1_555
N1_3 C1_3 1_555 1_555
H5_3 N1_3 1_555 1_555
H6_3 C2_3 1_555 1_555
H7_3 C2_3 1_555 1_555
C1_4 H1_4 1_555 1_555
N1_4 C1_4 1_555 1_555
H5_4 N1_4 1_555 1_555
H6_4 C2_4 1_555 1_555
H7_4 C2_4 1_555 1_555
H8_4 C2_4 1_555 1_555
C1_5 H1_5 1_555 1_555
N1_5 C1_5 1_555 1_555
H4_5 N1_5 1_555 1_555
H5_5 N1_5 1_555 1_555
C2_5 N1_5 1_555 1_555
H6_5 C2_5 1_555 1_555
H7_5 C2_5 1_555 1_555
H6_6 C2_6 1_555 1_555
H7_6 C2_6 1_555 1_555
C1_6 H1_6 1_555 1_555
H2_6 C1_6 1_555 1_555
H3_6 C1_6 1_555 1_555
N1_6 C1_6 1_555 1_555
H5_6 N1_6 1_555 1_555
C1_7 H1_7 1_555 1_555
H2_7 C1_7 1_555 1_555
H3_7 C1_7 1_555 1_555
N1_7 C1_7 1_555 1_555
H5_7 N1_7 1_555 1_555
H6_7 C2_7 1_555 1_555
H7_7 C2_7 1_555 1_555
C1_8 H1_8 1_555 1_555
N1_8 C1_8 1_555 1_555
H4_8 N1_8 1_555 1_555
H5_8 N1_8 1_555 1_555
C2_8 N1_8 1_555 1_555
H6_8 C2_8 1_555 1_555
H7_8 C2_8 1_555 1_555
H6_9 C2_9 1_555 1_555
H7_9 C2_9 1_555 1_555
H8_9 C2_9 1_555 1_555
C1_9 H1_9 1_555 1_555
N1_9 C1_9 1_555 1_555
H5_9 N1_9 1_555 1_555
C1_10 H1_10 1_555 1_555
N1_10 C1_10 1_555 1_555
H5_10 N1_10 1_555 1_555
H6_10 C2_10 1_555 1_555
H7_10 C2_10 1_555 1_555
H8_10 C2_10 1_555 1_555
H6_11 C2_11 1_555 1_555
H7_11 C2_11 1_555 1_555
C1_11 H1_11 1_555 1_555
H2_11 C1_11 1_555 1_555
H3_11 C1_11 1_555 1_555
N1_11 C1_11 1_555 1_555
H5_11 N1_11 1_555 1_555
C1_12 H1_12 1_555 1_555
N1_12 C1_12 1_555 1_555
H4_12 N1_12 1_555 1_555
H5_12 N1_12 1_555 1_555
C2_12 N1_12 1_555 1_555
H6_12 C2_12 1_555 1_555
H7_12 C2_12 1_555 1_555
C3 H9 1_555 1_555
N2 C3 1_555 1_555
H13 N2 1_555 1_555
H14 C4 1_555 1_555
H15 C4 1_555 1_555
H16 C4 1_555 1_555
C3_2 H9_2 1_555 1_555
N2_2 C3_2 1_555 1_555
H12_2 N2_2 1_555 1_555
H13_2 N2_2 1_555 1_555
C4_2 N2_2 1_555 1_555
H14_2 C4_2 1_555 1_555
H15_2 C4_2 1_555 1_555
H14_3 C4_3 1_555 1_555
H15_3 C4_3 1_555 1_555
C3_3 H9_3 1_555 1_555
H10_3 C3_3 1_555 1_555
H11_3 C3_3 1_555 1_555
N2_3 C3_3 1_555 1_555
H13_3 N2_3 1_555 1_555
H14_4 C4_4 1_555 1_555
H15_4 C4_4 1_555 1_555
H16_4 C4_4 1_555 1_555
C3_4 H9_4 1_555 1_555
N2_4 C3_4 1_555 1_555
H13_4 N2_4 1_555 1_555
C3_5 H9_5 1_555 1_555
N2_5 C3_5 1_555 1_555
H12_5 N2_5 1_555 1_555
H13_5 N2_5 1_555 1_555
C4_5 N2_5 1_555 1_555
H14_5 C4_5 1_555 1_555
H15_5 C4_5 1_555 1_555
C3_6 H9_6 1_555 1_555
H10_6 C3_6 1_555 1_555
H11_6 C3_6 1_555 1_555
N2_6 C3_6 1_555 1_555
H13_6 N2_6 1_555 1_555
H14_6 C4_6 1_555 1_555
H15_6 C4_6 1_555 1_555
H14_7 C4_7 1_555 1_555
H15_7 C4_7 1_555 1_555
C3_7 H9_7 1_555 1_555
H10_7 C3_7 1_555 1_555
H11_7 C3_7 1_555 1_555
N2_7 C3_7 1_555 1_555
H13_7 N2_7 1_555 1_555
C3_8 H9_8 1_555 1_555
N2_8 C3_8 1_555 1_555
H12_8 N2_8 1_555 1_555
H13_8 N2_8 1_555 1_555
C4_8 N2_8 1_555 1_555
H14_8 C4_8 1_555 1_555
H15_8 C4_8 1_555 1_555
C3_9 H9_9 1_555 1_555
N2_9 C3_9 1_555 1_555
H13_9 N2_9 1_555 1_555
H14_9 C4_9 1_555 1_555
H15_9 C4_9 1_555 1_555
H16_9 C4_9 1_555 1_555
H14_10 C4_10 1_555 1_555
H15_10 C4_10 1_555 1_555
H16_10 C4_10 1_555 1_555
C3_10 H9_10 1_555 1_555
N2_10 C3_10 1_555 1_555
H13_10 N2_10 1_555 1_555
C3_11 H9_11 1_555 1_555
H10_11 C3_11 1_555 1_555
H11_11 C3_11 1_555 1_555
N2_11 C3_11 1_555 1_555
H13_11 N2_11 1_555 1_555
H14_11 C4_11 1_555 1_555
H15_11 C4_11 1_555 1_555
C3_12 H9_12 1_555 1_555
N2_12 C3_12 1_555 1_555
H12_12 N2_12 1_555 1_555
H13_12 N2_12 1_555 1_555
C4_12 N2_12 1_555 1_555
H14_12 C4_12 1_555 1_555
H15_12 C4_12 1_555 1_555
H22 C6 1_555 1_555
H23 C6 1_555 1_555
H24 C6 1_555 1_555
C5 H17 1_555 1_555
N3 C5 1_555 1_555
H21 N3 1_555 1_555
H22_2 C6_2 1_555 1_555
H23_2 C6_2 1_555 1_555
C5_2 H17_2 1_555 1_555
H18_2 C5_2 1_555 1_555
H19_2 C5_2 1_555 1_555
N3_2 C5_2 1_555 1_555
H21_2 N3_2 1_555 1_555
C5_3 H17_3 1_555 1_555
N3_3 C5_3 1_555 1_555
H20_3 N3_3 1_555 1_555
H21_3 N3_3 1_555 1_555
C6_3 N3_3 1_555 1_555
H22_3 C6_3 1_555 1_555
H23_3 C6_3 1_555 1_555
C5_4 H17_4 1_555 1_555
N3_4 C5_4 1_555 1_555
H21_4 N3_4 1_555 1_555
H22_4 C6_4 1_555 1_555
H23_4 C6_4 1_555 1_555
H24_4 C6_4 1_555 1_555
C5_5 H17_5 1_555 1_555
H18_5 C5_5 1_555 1_555
H19_5 C5_5 1_555 1_555
N3_5 C5_5 1_555 1_555
H21_5 N3_5 1_555 1_555
H22_5 C6_5 1_555 1_555
H23_5 C6_5 1_555 1_555
C5_6 H17_6 1_555 1_555
N3_6 C5_6 1_555 1_555
H20_6 N3_6 1_555 1_555
H21_6 N3_6 1_555 1_555
C6_6 N3_6 1_555 1_555
H22_6 C6_6 1_555 1_555
H23_6 C6_6 1_555 1_555
C5_7 H17_7 1_555 1_555
N3_7 C5_7 1_555 1_555
H20_7 N3_7 1_555 1_555
H21_7 N3_7 1_555 1_555
C6_7 N3_7 1_555 1_555
H22_7 C6_7 1_555 1_555
H23_7 C6_7 1_555 1_555
C5_8 H17_8 1_555 1_555
H18_8 C5_8 1_555 1_555
H19_8 C5_8 1_555 1_555
N3_8 C5_8 1_555 1_555
H21_8 N3_8 1_555 1_555
H22_8 C6_8 1_555 1_555
H23_8 C6_8 1_555 1_555
H22_9 C6_9 1_555 1_555
H23_9 C6_9 1_555 1_555
H24_9 C6_9 1_555 1_555
C5_9 H17_9 1_555 1_555
N3_9 C5_9 1_555 1_555
H21_9 N3_9 1_555 1_555
C5_10 H17_10 1_555 1_555
N3_10 C5_10 1_555 1_555
H21_10 N3_10 1_555 1_555
H22_10 C6_10 1_555 1_555
H23_10 C6_10 1_555 1_555
H24_10 C6_10 1_555 1_555
C5_11 H17_11 1_555 1_555
N3_11 C5_11 1_555 1_555
H20_11 N3_11 1_555 1_555
H21_11 N3_11 1_555 1_555
C6_11 N3_11 1_555 1_555
H22_11 C6_11 1_555 1_555
H23_11 C6_11 1_555 1_555
H22_12 C6_12 1_555 1_555
H23_12 C6_12 1_555 1_555
C5_12 H17_12 1_555 1_555
H18_12 C5_12 1_555 1_555
H19_12 C5_12 1_555 1_555
N3_12 C5_12 1_555 1_555
H21_12 N3_12 1_555 1_555
C7 H25 1_555 1_555
N4 C7 1_555 1_555
H29 N4 1_555 1_555
H30 C8 1_555 1_555
H31 C8 1_555 1_555
H32 C8 1_555 1_555
C7_2 H25_2 1_555 1_555
H26_2 C7_2 1_555 1_555
H27_2 C7_2 1_555 1_555
N4_2 C7_2 1_555 1_555
H29_2 N4_2 1_555 1_555
H30_2 C8_2 1_555 1_555
H31_2 C8_2 1_555 1_555
C7_3 H25_3 1_555 1_555
N4_3 C7_3 1_555 1_555
H28_3 N4_3 1_555 1_555
H29_3 N4_3 1_555 1_555
C8_3 N4_3 1_555 1_555
H30_3 C8_3 1_555 1_555
H31_3 C8_3 1_555 1_555
H30_4 C8_4 1_555 1_555
H31_4 C8_4 1_555 1_555
H32_4 C8_4 1_555 1_555
C7_4 H25_4 1_555 1_555
N4_4 C7_4 1_555 1_555
H29_4 N4_4 1_555 1_555
H30_5 C8_5 1_555 1_555
H31_5 C8_5 1_555 1_555
C7_5 H25_5 1_555 1_555
H26_5 C7_5 1_555 1_555
H27_5 C7_5 1_555 1_555
N4_5 C7_5 1_555 1_555
H29_5 N4_5 1_555 1_555
C7_6 H25_6 1_555 1_555
N4_6 C7_6 1_555 1_555
H28_6 N4_6 1_555 1_555
H29_6 N4_6 1_555 1_555
C8_6 N4_6 1_555 1_555
H30_6 C8_6 1_555 1_555
H31_6 C8_6 1_555 1_555
C7_7 H25_7 1_555 1_555
N4_7 C7_7 1_555 1_555
H28_7 N4_7 1_555 1_555
H29_7 N4_7 1_555 1_555
C8_7 N4_7 1_555 1_555
H30_7 C8_7 1_555 1_555
H31_7 C8_7 1_555 1_555
H30_8 C8_8 1_555 1_555
H31_8 C8_8 1_555 1_555
C7_8 H25_8 1_555 1_555
H26_8 C7_8 1_555 1_555
H27_8 C7_8 1_555 1_555
N4_8 C7_8 1_555 1_555
H29_8 N4_8 1_555 1_555
C7_9 H25_9 1_555 1_555
N4_9 C7_9 1_555 1_555
H29_9 N4_9 1_555 1_555
H30_9 C8_9 1_555 1_555
H31_9 C8_9 1_555 1_555
H32_9 C8_9 1_555 1_555
H30_10 C8_10 1_555 1_555
H31_10 C8_10 1_555 1_555
H32_10 C8_10 1_555 1_555
C7_10 H25_10 1_555 1_555
N4_10 C7_10 1_555 1_555
H29_10 N4_10 1_555 1_555
C7_11 H25_11 1_555 1_555
N4_11 C7_11 1_555 1_555
H28_11 N4_11 1_555 1_555
H29_11 N4_11 1_555 1_555
C8_11 N4_11 1_555 1_555
H30_11 C8_11 1_555 1_555
H31_11 C8_11 1_555 1_555
C7_12 H25_12 1_555 1_555
H26_12 C7_12 1_555 1_555
H27_12 C7_12 1_555 1_555
N4_12 C7_12 1_555 1_555
H29_12 N4_12 1_555 1_555
H30_12 C8_12 1_555 1_555
H31_12 C8_12 1_555 1_555
C10 C12 1_555 1_555
O4 C18 1_555 1_555
C12 H33 1_555 1_555
O5 C18 1_555 1_555
C18 C10 1_555 1_555
C19 C12 1_555 1_555
H37 C19 1_555 1_555
C20 C10 1_555 1_555
H38 C20 1_555 1_555
Tb3 O4 1_555 1_555
Tb5 O5 1_555 1_555
C20 C22 1_555 1_555
Tb3 O1 1_555 1_555
O1 C9 1_555 1_555
C9 O3 1_555 1_555
C10_2 C12_2 1_555 1_555
O2 C11 1_555 1_555
O3 Tb3 1_555 1_555
O4_2 C18_2 1_555 1_555
C11 C19_2 1_555 1_555
C12_2 H33_2 1_555 1_555
C13 H34 1_555 1_555
C14 O2 1_555 1_555
C15 C9 1_555 1_555
C16 C13 1_555 1_555
H35 C16 1_555 1_555
C17 C15 1_555 1_555
H36 C17 1_555 1_555
O5_2 C18_2 1_555 1_555
C18_2 C10_2 1_555 1_555
C19_2 C12_2 1_555 1_555
H37_2 C19_2 1_555 1_555
C20_2 C10_2 1_555 1_555
H38_2 C20_2 1_555 1_555
C21 C14 1_555 1_555
H39 C21 1_555 1_555
C22_2 C11 1_555 1_555
H40 C22_2 1_555 1_555
Tb2 O4_2 1_555 1_555
Tb4 O5_2 1_555 1_555
O13 Tb3 1_555 1_555
C13 C14 1_555 1_555
C15 C16 1_555 1_555
C17 C21 1_555 1_555
C20_2 C22_2 1_555 1_555
Tb2 O1_2 1_555 1_555
O1_2 C9_2 1_555 1_555
C9_2 O3_2 1_555 1_555
O2_2 C11_2 1_555 1_555
O3_2 Tb2 1_555 1_555
C13_2 H34_2 1_555 1_555
C14_2 O2_2 1_555 1_555
C15_2 C9_2 1_555 1_555
C16_2 C13_2 1_555 1_555
H35_2 C16_2 1_555 1_555
C17_2 C15_2 1_555 1_555
H36_2 C17_2 1_555 1_555
C21_2 C14_2 1_555 1_555
H39_2 C21_2 1_555 1_555
O13_2 Tb2 1_555 1_555
C13_2 C14_2 1_555 1_555
C15_2 C16_2 1_555 1_555
C17_2 C21_2 1_555 1_555
Tb5 O1_3 1_555 1_555
O1_3 C9_3 1_555 1_555
C9_3 O3_3 1_555 1_555
O3_3 Tb5 1_555 1_555
O12 Tb5 1_555 1_555
O6 Tb4 1_555 1_555
C23 O6 1_555 1_555
C24 C26 1_555 1_555
O7 C25 1_555 1_555
O8 Tb4 1_555 1_555
O12 C32 1_555 1_555
C25 C33 1_555 1_555
C26 H41 1_555 1_555
C27 H42 1_555 1_555
C28 O7 1_555 1_555
C29 C23 1_555 1_555
C30 C27 1_555 1_555
H43 C30 1_555 1_555
C31 C29 1_555 1_555
H44 C31 1_555 1_555
O13 C32 1_555 1_555
C32 C24 1_555 1_555
C33 C26 1_555 1_555
H45 C33 1_555 1_555
C34 C24 1_555 1_555
H46 C34 1_555 1_555
C35 C28 1_555 1_555
H47 C35 1_555 1_555
C36 C25 1_555 1_555
H48 C36 1_555 1_555
O11 Tb4 1_555 1_555
C23 O8 1_555 1_555
C27 C28 1_555 1_555
C29 C30 1_555 1_555
C31 C35 1_555 1_555
C34 C36 1_555 1_555
C10_3 C12_3 1_555 1_555
O11 C18_3 1_555 1_555
C12_3 H33_3 1_555 1_555
O13_2 C18_3 1_555 1_555
C18_3 C10_3 1_555 1_555
C19_3 C12_3 1_555 1_555
H37_3 C19_3 1_555 1_555
C20_3 C10_3 1_555 1_555
H38_3 C20_3 1_555 1_555
C20_3 C22_3 1_555 1_555
C24_2 C26_2 1_555 1_555
O9 C32_2 1_555 1_555
C26_2 H41_2 1_555 1_555
O10 C32_2 1_555 1_555
C32_2 C24_2 1_555 1_555
C33_2 C26_2 1_555 1_555
H45_2 C33_2 1_555 1_555
C34_2 C24_2 1_555 1_555
H46_2 C34_2 1_555 1_555
Tb3_2 O9 1_555 1_555
Tb5_2 O10 1_555 1_555
C34_2 C36_2 1_555 1_555
O6_2 Tb3_2 1_555 1_555
C23_2 O6_2 1_555 1_555
C24_3 C26_3 1_555 1_555
O7_2 C25_2 1_555 1_555
O8_2 Tb3_2 1_555 1_555
O9_2 C32_3 1_555 1_555
C25_2 C33_3 1_555 1_555
C26_3 H41_3 1_555 1_555
C27_2 H42_2 1_555 1_555
C28_2 O7_2 1_555 1_555
C29_2 C23_2 1_555 1_555
C30_2 C27_2 1_555 1_555
H43_2 C30_2 1_555 1_555
C31_2 C29_2 1_555 1_555
H44_2 C31_2 1_555 1_555
O10_2 C32_3 1_555 1_555
C32_3 C24_3 1_555 1_555
C33_3 C26_3 1_555 1_555
H45_3 C33_3 1_555 1_555
C34_3 C24_3 1_555 1_555
H46_3 C34_3 1_555 1_555
C35_2 C28_2 1_555 1_555
H47_2 C35_2 1_555 1_555
C36_3 C25_2 1_555 1_555
H48_2 C36_3 1_555 1_555
Tb2_2 O9_2 1_555 1_555
Tb4_2 O10_2 1_555 1_555
O14 Tb3_2 1_555 1_555
C23_2 O8_2 1_555 1_555
C27_2 C28_2 1_555 1_555
C29_2 C30_2 1_555 1_555
C31_2 C35_2 1_555 1_555
C34_3 C36_3 1_555 1_555
O6_3 Tb2_2 1_555 1_555
C23_3 O6_3 1_555 1_555
O7_3 C25_3 1_555 1_555
O8_3 Tb2_2 1_555 1_555
C27_3 H42_3 1_555 1_555
C28_3 O7_3 1_555 1_555
C29_3 C23_3 1_555 1_555
C30_3 C27_3 1_555 1_555
H43_3 C30_3 1_555 1_555
C31_3 C29_3 1_555 1_555
H44_3 C31_3 1_555 1_555
C35_3 C28_3 1_555 1_555
H47_3 C35_3 1_555 1_555
O14_2 Tb2_2 1_555 1_555
C23_3 O8_3 1_555 1_555
C27_3 C28_3 1_555 1_555
C29_3 C30_3 1_555 1_555
C31_3 C35_3 1_555 1_555
O6_4 Tb5_2 1_555 1_555
C23_4 O6_4 1_555 1_555
O8_4 Tb5_2 1_555 1_555
O11_2 Tb5_2 1_555 1_555
C23_4 O8_4 1_555 1_555
Tb4_2 O1_4 1_555 1_555
O1_4 C9_4 1_555 1_555
C9_4 O3_4 1_555 1_555
C10_4 C12_4 1_555 1_555
O2_3 C11_3 1_555 1_555
O3_4 Tb4_2 1_555 1_555
O11_2 C18_4 1_555 1_555
C11_3 C19_4 1_555 1_555
C12_4 H33_4 1_555 1_555
C13_3 H34_3 1_555 1_555
C14_3 O2_3 1_555 1_555
C15_3 C9_4 1_555 1_555
C16_3 C13_3 1_555 1_555
H35_3 C16_3 1_555 1_555
C17_3 C15_3 1_555 1_555
H36_3 C17_3 1_555 1_555
O14 C18_4 1_555 1_555
C18_4 C10_4 1_555 1_555
C19_4 C12_4 1_555 1_555
H37_4 C19_4 1_555 1_555
C20_4 C10_4 1_555 1_555
H38_4 C20_4 1_555 1_555
C21_3 C14_3 1_555 1_555
H39_3 C21_3 1_555 1_555
C22_4 C11_3 1_555 1_555
H40_3 C22_4 1_555 1_555
O12_2 Tb4_2 1_555 1_555
C13_3 C14_3 1_555 1_555
C15_3 C16_3 1_555 1_555
C17_3 C21_3 1_555 1_555
C20_4 C22_4 1_555 1_555
C24_4 C26_4 1_555 1_555
O12_2 C32_4 1_555 1_555
C26_4 H41_4 1_555 1_555
O14_2 C32_4 1_555 1_555
C32_4 C24_4 1_555 1_555
C33_4 C26_4 1_555 1_555
H45_4 C33_4 1_555 1_555
C34_4 C24_4 1_555 1_555
H46_4 C34_4 1_555 1_555
C34_4 C36_4 1_555 1_555
Tb1 O1_5 1_555 1_555
O1_5 C9_5 1_555 1_555
C9_5 O3_5 1_555 1_555
O3_5 Tb1 1_555 1_555
O6_5 Tb1 1_555 1_555
C23_5 O6_5 1_555 1_555
O8_5 Tb1 1_555 1_555
O11_3 Tb1 1_555 1_555
O12_3 Tb1 1_555 1_555
O13_3 Tb1 1_555 1_555
O14_3 Tb1 1_555 1_555
C23_5 O8_5 1_555 1_555
C10_5 C12_5 1_555 1_555
O11_3 C18_5 1_555 1_555
C12_5 H33_5 1_555 1_555
O5_3 C18_5 1_555 1_555
C18_5 C10_5 1_555 1_555
C19_5 C12_5 1_555 1_555
H37_5 C19_5 1_555 1_555
C20_5 C10_5 1_555 1_555
H38_5 C20_5 1_555 1_555
Tb4_3 O5_3 1_555 1_555
C20_5 C22_5 1_555 1_555
C24_5 C26_5 1_555 1_555
O12_3 C32_5 1_555 1_555
C26_5 H41_5 1_555 1_555
O10_3 C32_5 1_555 1_555
C32_5 C24_5 1_555 1_555
C33_5 C26_5 1_555 1_555
H45_5 C33_5 1_555 1_555
C34_5 C24_5 1_555 1_555
H46_5 C34_5 1_555 1_555
Tb4_3 O10_3 1_555 1_555
C34_5 C36_5 1_555 1_555
C10_6 C12_6 1_555 1_555
O4_3 C18_6 1_555 1_555
C12_6 H33_6 1_555 1_555
O13_3 C18_6 1_555 1_555
C18_6 C10_6 1_555 1_555
C19_6 C12_6 1_555 1_555
H37_6 C19_6 1_555 1_555
C20_6 C10_6 1_555 1_555
H38_6 C20_6 1_555 1_555
Tb4_3 O4_3 1_555 1_555
C20_6 C22_6 1_555 1_555
C24_6 C26_6 1_555 1_555
O9_3 C32_6 1_555 1_555
C26_6 H41_6 1_555 1_555
O14_3 C32_6 1_555 1_555
C32_6 C24_6 1_555 1_555
C33_6 C26_6 1_555 1_555
H45_6 C33_6 1_555 1_555
C34_6 C24_6 1_555 1_555
H46_6 C34_6 1_555 1_555
Tb4_3 O9_3 1_555 1_555
C34_6 C36_6 1_555 1_555
Tb4_3 O1_6 1_555 1_555
O1_6 C9_6 1_555 1_555
C9_6 O3_6 1_555 1_555
O2_4 C11_4 1_555 1_555
O3_6 Tb4_3 1_555 1_555
C13_4 H34_4 1_555 1_555
C14_4 O2_4 1_555 1_555
C15_4 C9_6 1_555 1_555
C16_4 C13_4 1_555 1_555
H35_4 C16_4 1_555 1_555
C17_4 C15_4 1_555 1_555
H36_4 C17_4 1_555 1_555
C21_4 C14_4 1_555 1_555
H39_4 C21_4 1_555 1_555
O6_6 Tb4_3 1_555 1_555
C23_6 O6_6 1_555 1_555
O7_4 C25_4 1_555 1_555
O8_6 Tb4_3 1_555 1_555
C27_4 H42_4 1_555 1_555
C28_4 O7_4 1_555 1_555
C29_4 C23_6 1_555 1_555
C30_4 C27_4 1_555 1_555
H43_4 C30_4 1_555 1_555
C31_4 C29_4 1_555 1_555
H44_4 C31_4 1_555 1_555
C35_4 C28_4 1_555 1_555
H47_4 C35_4 1_555 1_555
C13_4 C14_4 1_555 1_555
C15_4 C16_4 1_555 1_555
C17_4 C21_4 1_555 1_555
C23_6 O8_6 1_555 1_555
C27_4 C28_4 1_555 1_555
C29_4 C30_4 1_555 1_555
C31_4 C35_4 1_555 1_555
O2_5 C11_5 1_555 1_555
C13_5 H34_5 1_555 1_555
C14_5 O2_5 1_555 1_555
C16_5 C13_5 1_555 1_555
H35_5 C16_5 1_555 1_555
C17_5 C15_5 1_555 1_555
H36_5 C17_5 1_555 1_555
C21_5 C14_5 1_555 1_555
H39_5 C21_5 1_555 1_555
O7_5 C25_5 1_555 1_555
C27_5 H42_5 1_555 1_555
C28_5 O7_5 1_555 1_555
C30_5 C27_5 1_555 1_555
H43_5 C30_5 1_555 1_555
C31_5 C29_5 1_555 1_555
H44_5 C31_5 1_555 1_555
C35_5 C28_5 1_555 1_555
H47_5 C35_5 1_555 1_555
C13_5 C14_5 1_555 1_555
C15_5 C16_5 1_555 1_555
C17_5 C21_5 1_555 1_555
C27_5 C28_5 1_555 1_555
C29_5 C30_5 1_555 1_555
C31_5 C35_5 1_555 1_555
O2_6 C11_6 1_555 1_555
C13_6 H34_6 1_555 1_555
C14_6 O2_6 1_555 1_555
C16_6 C13_6 1_555 1_555
H35_6 C16_6 1_555 1_555
C17_6 C15_6 1_555 1_555
H36_6 C17_6 1_555 1_555
C21_6 C14_6 1_555 1_555
H39_6 C21_6 1_555 1_555
C13_6 C14_6 1_555 1_555
C15_6 C16_6 1_555 1_555
C17_6 C21_6 1_555 1_555
O7_6 C25_6 1_555 1_555
C27_6 H42_6 1_555 1_555
C28_6 O7_6 1_555 1_555
C30_6 C27_6 1_555 1_555
H43_6 C30_6 1_555 1_555
C31_6 C29_6 1_555 1_555
H44_6 C31_6 1_555 1_555
C35_6 C28_6 1_555 1_555
H47_6 C35_6 1_555 1_555
C27_6 C28_6 1_555 1_555
C29_6 C30_6 1_555 1_555
C31_6 C35_6 1_555 1_555

#END
