
###############################################################################
#
# This file contains modified crystal structure data generated from the
# MOF subset of the Cambridge Structural Database (CSD) v543 
# hosted by the Cambridge Crystallographic Data Centre (CCDC).
#
# This work is licensed under the Creative Commons
# Attribution-NonCommercial-ShareAlike 4.0 International License.
# To view a copy of this license, visit
# http://creativecommons.org/licenses/by-nc-sa/4.0/
# or send a letter to
# Creative Commons, PO Box 1866, Mountain View, CA 94042, USA.
#
# CIF created using the CSD Python API on 29 September 2022
# The structure has been converted into the P1 space group
# The structure has a 3D framework
# The original CSD entry HAJJAE is in the monoclinic crystal system
# The framework has been calculated to contain at least 10.0% void space
# The void calculation uses a probe of radius 1.32A, grid spacing 0.4
#
###############################################################################

data_HAJJAE
_chemical_formula_moiety         '(C32 H16 Cu4 N12 O16)n'
_symmetry_cell_setting           triclinic
_symmetry_space_group_name_H-M   'P 1'
_symmetry_Int_Tables_number      1
_space_group_name_Hall           'P 1'
loop_
_symmetry_equiv_pos_site_id
_symmetry_equiv_pos_as_xyz
1 x,y,z
_cell_length_a                   4.70959
_cell_length_b                   20.04170
_cell_length_c                   11.09470
_cell_angle_alpha                90
_cell_angle_beta                 96.8435
_cell_angle_gamma                90
_cell_volume                     1039.75
loop_
_atom_site_label
_atom_site_type_symbol
_atom_site_fract_x
_atom_site_fract_y
_atom_site_fract_z
_atom_site_U_iso_or_equiv
_atom_site_thermal_displace_type
O2 O 0.131(5) 0.173(1) 0.381(2) 0.0215 Uiso
O3 O 0.507(5) 0.311(1) 0.401(2) 0.0215 Uiso
O4 O 0.130(5) 0.332(1) 0.490(2) 0.0215 Uiso
C2 C 0.04(1) 0.309(2) 0.286(5) 0.0329 Uiso
C5 C 0.001(8) 0.178(2) 0.278(4) 0.0329 Uiso
C6 C 0.242(8) 0.312(2) 0.402(4) 0.0329 Uiso
Cu3 Cu 0.696(1) 0.3395(3) 0.5579(6) 0.0326 Uiso
O9 O 0.130(5) 0.168(1) 0.990(2) 0.0215 Uiso
Cu1 Cu 0.696(1) 0.1605(3) 0.0579(6) 0.0326 Uiso
O1 O 0.887(6) 0.127(1) 0.229(2) 0.0215 Uiso
N1 N 0.763(6) 0.248(1) 0.121(3) 0.0025 Uiso
N2 N 0.952(6) 0.369(1) 0.240(3) 0.0025 Uiso
N3 N 0.589(7) 0.060(1) 0.027(4) 0.0025 Uiso
C1 C 0.946(8) 0.250(3) 0.227(4) 0.0329 Uiso
C3 C 0.79(1) 0.371(2) 0.132(4) 0.0329 Uiso
C4 C 0.691(9) 0.311(2) 0.077(4) 0.0329 Uiso
C7 C 0.44(1) 0.031(3) 0.095(4) 0.0329 Uiso
H1 H 0.73455 0.40716 0.08716 0.0105 Uiso
H3 H 0.3777 0.04599 0.1731 0.0105 Uiso
C8 C 0.653(6) 0.032(3) 0.931(4) 0.0329 Uiso
H2 H 0.56177 0.30709 0.99556 0.0105 Uiso
H4 H 0.77956 0.05866 0.88532 0.0105 Uiso
O6 O 0.131(5) 0.327(1) 0.881(2) 0.0215 Uiso
O7 O 0.507(5) 0.189(1) 0.901(2) 0.0215 Uiso
C12 C 0.04(1) 0.191(2) 0.786(5) 0.0329 Uiso
C15 C 0.001(8) 0.322(2) 0.778(4) 0.0329 Uiso
C16 C 0.242(8) 0.188(2) 0.902(4) 0.0329 Uiso
C9 C 0.347(6) 0.968(3) 0.069(4) 0.0329 Uiso
H6 H 0.22044 0.94134 0.11468 0.0105 Uiso
N4 N 0.411(7) 0.940(1) 0.973(4) 0.0025 Uiso
C10 C 0.56(1) 0.969(3) 0.905(4) 0.0329 Uiso
H5 H 0.6223 0.95401 0.8269 0.0105 Uiso
Cu5 Cu 0.304(1) 0.8395(3) 0.9421(6) 0.0326 Uiso
O5 O 0.887(6) 0.373(1) 0.729(2) 0.0215 Uiso
N5 N 0.763(6) 0.252(1) 0.621(3) 0.0025 Uiso
N6 N 0.952(6) 0.131(1) 0.740(3) 0.0025 Uiso
C11 C 0.946(8) 0.250(3) 0.727(4) 0.0329 Uiso
C13 C 0.79(1) 0.129(2) 0.632(4) 0.0329 Uiso
C14 C 0.691(9) 0.189(2) 0.577(4) 0.0329 Uiso
H7 H 0.73455 0.09284 0.58716 0.0105 Uiso
H8 H 0.56177 0.19291 0.49556 0.0105 Uiso
N7 N 0.589(7) 0.440(1) 0.527(4) 0.0025 Uiso
C7_2 C 0.44(1) 0.469(3) 0.595(4) 0.0329 Uiso
C8_2 C 0.653(6) 0.468(3) 0.431(4) 0.0329 Uiso
H3_2 H 0.3777 0.45401 0.6731 0.0105 Uiso
H4_2 H 0.77956 0.44134 0.38532 0.0105 Uiso
C9_2 C 0.347(6) 0.532(3) 0.569(4) 0.0329 Uiso
N4_2 N 0.411(7) 0.560(1) 0.473(4) 0.0025 Uiso
C10_2 C 0.56(1) 0.531(3) 0.405(4) 0.0329 Uiso
H5_2 H 0.6223 0.54599 0.3269 0.0105 Uiso
H6_2 H 0.22044 0.55866 0.61468 0.0105 Uiso
Cu5_2 Cu 0.304(1) 0.6605(3) 0.4421(6) 0.0326 Uiso
O5_2 O 0.113(6) 0.627(1) 0.271(2) 0.0215 Uiso
N5_2 N 0.237(6) 0.748(1) 0.379(3) 0.0025 Uiso
N6_2 N 0.048(6) 0.869(1) 0.260(3) 0.0025 Uiso
C11_2 C 0.054(8) 0.750(3) 0.273(4) 0.0329 Uiso
C13_2 C 0.21(1) 0.871(2) 0.368(4) 0.0329 Uiso
C14_2 C 0.309(9) 0.811(2) 0.423(4) 0.0329 Uiso
H7_2 H 0.26545 0.90716 0.41284 0.0105 Uiso
H8_2 H 0.43823 0.80709 0.50444 0.0105 Uiso
O10 O 0.493(5) 0.689(1) 0.599(2) 0.0215 Uiso
H2_2 H 0.43823 0.69291 0.00444 0.0105 Uiso
O6_2 O 0.869(5) 0.673(1) 0.119(2) 0.0215 Uiso
O7_2 O 0.493(5) 0.811(1) 0.099(2) 0.0215 Uiso
O8 O 0.870(5) 0.832(1) 0.010(2) 0.0215 Uiso
C12_2 C 0.96(1) 0.809(2) 0.214(5) 0.0329 Uiso
C15_2 C 0.999(8) 0.678(2) 0.222(4) 0.0329 Uiso
C16_2 C 0.758(8) 0.812(2) 0.098(4) 0.0329 Uiso
O11 O 0.870(5) 0.668(1) 0.510(2) 0.0215 Uiso
O1_2 O 0.113(6) 0.873(1) 0.771(2) 0.0215 Uiso
N1_2 N 0.237(6) 0.752(1) 0.879(3) 0.0025 Uiso
N2_2 N 0.048(6) 0.631(1) 0.760(3) 0.0025 Uiso
C1_2 C 0.054(8) 0.750(3) 0.773(4) 0.0329 Uiso
C3_2 C 0.21(1) 0.629(2) 0.868(4) 0.0329 Uiso
C4_2 C 0.309(9) 0.689(2) 0.923(4) 0.0329 Uiso
H1_2 H 0.26545 0.59284 0.91284 0.0105 Uiso
O2_2 O 0.869(5) 0.827(1) 0.619(2) 0.0215 Uiso
C2_2 C 0.96(1) 0.691(2) 0.714(5) 0.0329 Uiso
C5_2 C 0.999(8) 0.822(2) 0.722(4) 0.0329 Uiso
C6_2 C 0.758(8) 0.688(2) 0.598(4) 0.0329 Uiso
loop_
_geom_bond_atom_site_label_1
_geom_bond_atom_site_label_2
_geom_bond_site_symmetry_1
_geom_bond_site_symmetry_2
O2 C5 1_555 1_555
O3 C6 1_555 1_555
O4 C6 1_555 1_555
C6 C2 1_555 1_555
Cu3 O3 1_555 1_555
Cu1 O1 1_555 1_555
N1 Cu1 1_555 1_555
N3 Cu1 1_555 1_555
C1 N1 1_555 1_555
C3 N2 1_555 1_555
C4 N1 1_555 1_555
C7 N3 1_555 1_555
H1 C3 1_555 1_555
H3 C7 1_555 1_555
C3 C4 1_555 1_555
H4 C8 1_555 1_555
O6 C15 1_555 1_555
O9 C16 1_555 1_555
C12 C16 1_555 1_555
C16 O7 1_555 1_555
H6 C9 1_555 1_555
H5 C10 1_555 1_555
Cu5 N4 1_555 1_555
N4 C10 1_555 1_555
N5 C11 1_555 1_555
C13 N6 1_555 1_555
C14 N5 1_555 1_555
H7 C13 1_555 1_555
H8 C14 1_555 1_555
Cu3 O5 1_555 1_555
N7 Cu3 1_555 1_555
N5 Cu3 1_555 1_555
C13 C14 1_555 1_555
C7_2 N7 1_555 1_555
C8_2 N7 1_555 1_555
H3_2 C7_2 1_555 1_555
H4_2 C8_2 1_555 1_555
C9_2 C7_2 1_555 1_555
N4_2 C9_2 1_555 1_555
C10_2 C8_2 1_555 1_555
H5_2 C10_2 1_555 1_555
H6_2 C9_2 1_555 1_555
Cu5_2 N4_2 1_555 1_555
N4_2 C10_2 1_555 1_555
N5_2 C11_2 1_555 1_555
C13_2 N6_2 1_555 1_555
C14_2 N5_2 1_555 1_555
H7_2 C13_2 1_555 1_555
H8_2 C14_2 1_555 1_555
Cu5_2 O5_2 1_555 1_555
O10 Cu5_2 1_555 1_555
N5_2 Cu5_2 1_555 1_555
C13_2 C14_2 1_555 1_555
O6_2 C15_2 1_555 1_555
O8 C16_2 1_555 1_555
C12_2 C16_2 1_555 1_555
C16_2 O7_2 1_555 1_555
Cu5 O1_2 1_555 1_555
N1_2 Cu5 1_555 1_555
C1_2 N1_2 1_555 1_555
C3_2 N2_2 1_555 1_555
C4_2 N1_2 1_555 1_555
H1_2 C3_2 1_555 1_555
C3_2 C4_2 1_555 1_555
O2_2 C5_2 1_555 1_555
O10 C6_2 1_555 1_555
O11 C6_2 1_555 1_555
C6_2 C2_2 1_555 1_555

#END
