
###############################################################################
#
# This file contains modified crystal structure data generated from the
# MOF subset of the Cambridge Structural Database (CSD) v543 
# hosted by the Cambridge Crystallographic Data Centre (CCDC).
#
# This work is licensed under the Creative Commons
# Attribution-NonCommercial-ShareAlike 4.0 International License.
# To view a copy of this license, visit
# http://creativecommons.org/licenses/by-nc-sa/4.0/
# or send a letter to
# Creative Commons, PO Box 1866, Mountain View, CA 94042, USA.
#
# CIF created using the CSD Python API on 29 September 2022
# The structure has been converted into the P1 space group
# The structure has a 3D framework
# The original CSD entry HAJJAH is in the rhombohedral crystal system
# The original CSD entry HAJJAH is in a Sohncke space group
# The framework has been calculated to contain at least 10.0% void space
# The void calculation uses a probe of radius 1.32A, grid spacing 0.4
# H atom positions have been added when not included in the experimental data
#
###############################################################################

data_HAJJAH
_chemical_formula_moiety         '(C450 H270 Fe26 O126)n'
_symmetry_cell_setting           triclinic
_symmetry_space_group_name_H-M   'P 1'
_symmetry_Int_Tables_number      1
_space_group_name_Hall           'P 1'
loop_
_symmetry_equiv_pos_site_id
_symmetry_equiv_pos_as_xyz
1 x,y,z
_cell_length_a                   32.9145
_cell_length_b                   32.9145
_cell_length_c                   46.0360
_cell_angle_alpha                90
_cell_angle_beta                 90
_cell_angle_gamma                120
_cell_volume                     43191.9
loop_
_atom_site_label
_atom_site_type_symbol
_atom_site_fract_x
_atom_site_fract_y
_atom_site_fract_z
C1 C 0.2032 0.4174 0.0436
C2 C 0.2282 0.4677 0.0522
C3 C 0.2142 0.4984 0.0405
C4 C 0.2388 0.5464 0.047
C5 C 0.2777 0.5649 0.0659
C6 C 0.291 0.534 0.0782
C7 C 0.2668 0.4858 0.0713
C8 C 0.306 0.6169 0.0706
C9 C 0.284 0.6444 0.0711
Fe1 Fe 0.2171 0.3374 0.029
Fe2 Fe 0.116 0.3377 0.0272
H1 H 0.185 0.4856 0.0254
H2 H 0.2283 0.5692 0.0364
H3 H 0.3205 0.547 0.0931
H4 H 0.2781 0.4629 0.0808
H5 H 0.2458 0.6272 0.0701
O1 O 0.1612 0.3257 0.0087
O2 O 0.1621 0.4007 0.0331
O3 O 0.2236 0.393 0.0469
C40 C 0.2074 0.0178 0.0219
C41 C 0.2078 0.0607 0.0211
C45 C 0.2269 0.2027 0.0108
C50 C 0.229 0.161 0.0105
H21 H 0.2157 0.0068 0.0421
H24 H 0.2572 0.16 0.0222
H26 H 0.2531 0.2326 0.0229
H27 H 0.2158 0.0813 0.0407
O13 O 0.2158 0.2831 0.0128
C51 C 0.5826 0.7858 0.0436
C52 C 0.5323 0.7605 0.0522
C53 C 0.5016 0.7158 0.0405
C54 C 0.4536 0.6924 0.047
C55 C 0.4351 0.7128 0.0659
C56 C 0.466 0.757 0.0782
C57 C 0.5142 0.7810 0.0713
C58 C 0.3831 0.6891 0.0706
C59 C 0.3556 0.6396 0.0711
H30 H 0.5144 0.6994 0.0254
H31 H 0.4308 0.6591 0.0364
H32 H 0.453 0.7735 0.0931
H33 H 0.5371 0.8152 0.0808
H34 H 0.3728 0.6186 0.0701
O15 O 0.5993 0.7614 0.0331
O16 O 0.607 0.8306 0.0469
C60 C 0.2142 0.7968 0.0436
C61 C 0.2395 0.7718 0.0522
C62 C 0.2842 0.7858 0.0405
C63 C 0.3076 0.7612 0.047
C64 C 0.2872 0.7223 0.0659
C65 C 0.243 0.709 0.0782
C66 C 0.2190 0.7332 0.0713
C67 C 0.3109 0.694 0.0706
C68 C 0.3604 0.716 0.0711
H35 H 0.3006 0.815 0.0254
H36 H 0.3409 0.7717 0.0364
H37 H 0.2265 0.6795 0.0931
H38 H 0.1848 0.7219 0.0808
H39 H 0.3814 0.7542 0.0701
O17 O 0.2386 0.8379 0.0331
O18 O 0.1694 0.7764 0.0469
O26 O 0.0685 0.2748 0.0217
Fe10 Fe 0.6626 0.8797 0.029
Fe11 Fe 0.1203 0.7829 0.029
Fe16 Fe 0.6623 0.7783 0.0272
Fe18 Fe 0.2217 0.884 0.0272
O48 O 0.1816 0.2990 0.0599
O51 O 0.1274 0.3207 0.0641
C10 C 0.2525 0.3711 0.9722
C11 C 0.2939 0.4038 0.9545
C12 C 0.339 0.4283 0.967
C13 C 0.3776 0.4618 0.9511
C14 C 0.372 0.4723 0.9225
C15 C 0.3268 0.4469 0.9098
C16 C 0.2883 0.4128 0.9256
C17 C 0.4127 0.5103 0.9064
C18 C 0.4466 0.5513 0.9208
C19 C 0.4855 0.5872 0.906
C20 C 0.4898 0.5825 0.8763
C21 C 0.4566 0.5419 0.8614
C22 C 0.4182 0.5059 0.8766
C23 C 0.4635 0.5364 0.8302
C24 C 0.4247 0.5141 0.8113
C25 C 0.4315 0.5081 0.7822
C26 C 0.4773 0.5249 0.7713
C27 C 0.516 0.5479 0.79
C28 C 0.5092 0.5532 0.8191
C29 C 0.4851 0.5163 0.741
C30 C 0.5226 0.6289 0.9218
C31 C 0.539 0.6231 0.9486
C32 C 0.5744 0.662 0.9634
C33 C 0.5943 0.7077 0.9516
C34 C 0.5781 0.7135 0.9247
C35 C 0.5427 0.6745 0.9099
C36 C 0.6298 0.7492 0.9681
Fe3 Fe 0.1505 0.3029 0.97
H6 H 0.3446 0.4218 0.9891
H7 H 0.412 0.4796 0.9614
H8 H 0.321 0.4543 0.888
H9 H 0.2538 0.3947 0.9155
H10 H 0.4424 0.5558 0.9435
H11 H 0.5196 0.6105 0.8649
H12 H 0.3935 0.4738 0.8656
H13 H 0.389 0.5013 0.819
H14 H 0.401 0.4903 0.7682
H15 H 0.5518 0.5606 0.7824
H16 H 0.5399 0.5695 0.8331
H17 H 0.5247 0.5883 0.9581
H18 H 0.5859 0.6562 0.9841
H19 H 0.5923 0.7483 0.9152
H20 H 0.5305 0.6802 0.8894
O4 O 0.2558 0.3763 0.9993
O5 O 0.2154 0.3395 0.9597
O6 O 0.4508 0.4851 0.7266
O7 O 0.5267 0.5393 0.7308
O8 O 0.6458 0.7901 0.9575
O9 O 0.643 0.7426 0.9926
C38 C 0.1849 0.0047 0.9716
C42 C 0.1966 0.0762 0.9956
C43 C 0.1855 0.0478 0.9708
C44 C 0.1878 0.2492 0.9964
C46 C 0.1910 0.2055 0.9956
C47 C 0.1577 0.1658 0.98
C48 C 0.1598 0.1241 0.9798
C49 C 0.1954 0.1211 0.9951
H22 H 0.1773 0.059 0.9507
H23 H 0.1295 0.1666 0.9683
H28 H 0.1330 0.0938 0.9681
O12 O 0.1570 0.2511 0.9807
H29 H 0.119667 0.2995 0.931333
O14 O 0.1392 0.2798 0.9313
C96 C 0.0573 0.2510 0.9985
C98 C 0.0109 0.2066 0.9972
H59 H 0.0164 0.1923 0.9522
O27 O 0.084 0.2639 0.9763
Fe14 Fe 0.4536 0.4496 0.695667
Fe21 Fe 0.5550 0.550667 0.6939
Fe23 Fe 0.6971 0.8476 0.97
O55 O 0.1443 0.3542 0.9575
O58 O 0.0996 0.357 0.9926
H90 H 0.119993 0.245232 0.92901
O10 O 0.2063 0.9315 0.0217
O31 O 0.1645 0.8388 0.0087
O41 O 0.0673 0.7842 0.0128
O47 O 0.1175 0.8184 0.0599
O50 O 0.1934 0.8726 0.0641
C37 C 0.1937 0.9427 0.9985
C39 C 0.1957 0.9891 0.9972
H25 H 0.1759 0.9836 0.9522
O11 O 0.1799 0.916 0.9763
C110 C 0.1186 0.7475 0.9722
C111 C 0.1099 0.7061 0.9545
C112 C 0.0893 0.661 0.967
C113 C 0.0842 0.6224 0.9511
C114 C 0.1003 0.628 0.9225
C115 C 0.1201 0.6732 0.9098
C116 C 0.1245 0.7117 0.9256
C117 C 0.0976 0.5873 0.9064
C118 C 0.1047 0.5534 0.9208
C119 C 0.1017 0.5145 0.906
C120 C 0.0927 0.5102 0.8763
C121 C 0.0853 0.5434 0.8614
C122 C 0.0877 0.5818 0.8766
C123 C 0.0729 0.5365 0.8302
C124 C 0.0894 0.5753 0.8113
C125 C 0.0766 0.5685 0.7822
C126 C 0.0476 0.5227 0.7713
C127 C 0.0319 0.484 0.79
C128 C 0.0440 0.4908 0.8191
C129 C 0.0312 0.5149 0.741
C130 C 0.1063 0.4774 0.9218
C131 C 0.0841 0.461 0.9486
C132 C 0.0876 0.4256 0.9634
C133 C 0.1134 0.4057 0.9516
C134 C 0.1354 0.4219 0.9247
C135 C 0.1318 0.4573 0.9099
C136 C 0.1194 0.3702 0.9681
Fe9 Fe 0.1524 0.8495 0.97
H64 H 0.0772 0.6554 0.9891
H65 H 0.0676 0.588 0.9614
H66 H 0.1333 0.679 0.888
H67 H 0.1409 0.7462 0.9155
H68 H 0.1134 0.5576 0.9435
H69 H 0.0909 0.4804 0.8649
H70 H 0.0803 0.6065 0.8656
H71 H 0.1123 0.611 0.819
H72 H 0.0893 0.599 0.7682
H73 H 0.0088 0.4482 0.7824
H74 H 0.0296 0.4601 0.8331
H75 H 0.0636 0.4753 0.9581
H76 H 0.0703 0.4141 0.9841
H77 H 0.1560 0.4077 0.9152
H78 H 0.1497 0.4695 0.8894
O32 O 0.1205 0.7442 0.9993
O33 O 0.1241 0.7846 0.9597
O34 O 0.0343 0.5492 0.7266
O35 O 0.0126 0.4733 0.7308
C144 C 0.0614 0.8122 0.9964
C146 C 0.0145 0.8090 0.9956
C147 C 0.0081 0.8423 0.98
H81 H 0.0371 0.8705 0.9683
O40 O 0.0941 0.8430 0.9807
H87 H 0.179833 0.880333 0.931333
O42 O 0.1406 0.8608 0.9313
O54 O 0.2099 0.8557 0.9575
O57 O 0.2574 0.9004 0.9926
H89 H 0.125238 0.880007 0.92901
C97 C 0.9953 0.1802 0.9716
C101 C 0.9238 0.1204 0.9956
C102 C 0.9522 0.1377 0.9708
C107 C 0.8759 0.0357 0.9798
C108 C 0.8789 0.0743 0.9951
H56 H 0.941 0.1183 0.9507
H62 H 0.9062 0.0392 0.9681
Fe12 Fe 0.5504 0.0041 0.695667
Fe19 Fe 0.449333 0.0044 0.6939
O19 O 0.6743 0.8355 0.0087
O29 O 0.7169 0.9327 0.0128
C140 C 0.8104 0.7926 0.0219
C141 C 0.8529 0.7922 0.0211
C145 C 0.9758 0.7731 0.0108
C150 C 0.932 0.771 0.0105
H79 H 0.7911 0.7843 0.0421
H82 H 0.9028 0.7428 0.0222
H84 H 0.9795 0.7469 0.0229
H85 H 0.8655 0.7842 0.0407
O38 O 0.7252 0.7937 0.0217
O49 O 0.7010 0.8825 0.0599
O52 O 0.6793 0.8066 0.0641
C69 C 0.6289 0.8814 0.9722
C70 C 0.5962 0.8901 0.9545
C71 C 0.5717 0.9107 0.967
C72 C 0.5382 0.9158 0.9511
C73 C 0.5277 0.8997 0.9225
C74 C 0.5531 0.8799 0.9098
C75 C 0.5872 0.8755 0.9256
C76 C 0.4897 0.9024 0.9064
C77 C 0.4487 0.8953 0.9208
C78 C 0.4128 0.8983 0.906
C79 C 0.4175 0.9073 0.8763
C80 C 0.4581 0.9147 0.8614
C81 C 0.4941 0.9123 0.8766
C82 C 0.4636 0.9271 0.8302
C83 C 0.4859 0.9106 0.8113
C84 C 0.4919 0.9234 0.7822
C85 C 0.4751 0.9524 0.7713
C86 C 0.4521 0.9681 0.79
C87 C 0.4468 0.9560 0.8191
C88 C 0.4837 0.9688 0.741
C89 C 0.3711 0.8937 0.9218
C90 C 0.3769 0.9159 0.9486
C91 C 0.338 0.9124 0.9634
C92 C 0.2923 0.8866 0.9516
C93 C 0.2865 0.8646 0.9247
C94 C 0.3255 0.8682 0.9099
C95 C 0.2508 0.8806 0.9681
H40 H 0.5782 0.9228 0.9891
H41 H 0.5204 0.9324 0.9614
H42 H 0.5457 0.8667 0.888
H43 H 0.6053 0.8591 0.9155
H44 H 0.4442 0.8866 0.9435
H45 H 0.3895 0.9091 0.8649
H46 H 0.5262 0.9197 0.8656
H47 H 0.4987 0.8877 0.819
H48 H 0.5097 0.9107 0.7682
H49 H 0.4394 0.9912 0.7824
H50 H 0.4305 0.9704 0.8331
H51 H 0.4117 0.9364 0.9581
H52 H 0.3438 0.9297 0.9841
H53 H 0.2517 0.8440 0.9152
H54 H 0.3198 0.8503 0.8894
O20 O 0.6237 0.8795 0.9993
O21 O 0.6605 0.8759 0.9597
O22 O 0.5149 0.9657 0.7266
O23 O 0.4607 0.9874 0.7308
C103 C 0.7508 0.9386 0.9964
C105 C 0.7945 0.9855 0.9956
C106 C 0.8342 0.9919 0.98
H57 H 0.8334 0.9629 0.9683
O28 O 0.7489 0.9059 0.9807
H63 H 0.7005 0.820167 0.931333
O30 O 0.7202 0.8594 0.9313
C137 C 0.7490 0.8063 0.9985
C138 C 0.8198 0.8151 0.9716
C139 C 0.7934 0.8043 0.9972
C142 C 0.8796 0.8034 0.9956
C143 C 0.8623 0.8145 0.9708
C148 C 0.9643 0.8402 0.9798
C149 C 0.9257 0.8046 0.9951
H80 H 0.8817 0.8227 0.9507
H83 H 0.8077 0.8241 0.9522
H86 H 0.9608 0.8670 0.9681
O39 O 0.7361 0.8201 0.9763
Fe13 Fe 0.9959 0.5464 0.695667
Fe20 Fe 0.9956 0.4450 0.6939
H88 H 0.754768 0.874762 0.92901
C33_2 C 0.2610 0.0410 0.2849
C34_2 C 0.2448 0.0468 0.2580
C35_2 C 0.2094 0.0078 0.2432
C36_2 C 0.2965 0.0825 0.3014
H19_2 H 0.2590 0.0816 0.2485
H20_2 H 0.1972 0.0135 0.2227
O8_2 O 0.3125 0.1234 0.2908
O9_2 O 0.309667 0.0759 0.3259
C51_2 C 0.2493 0.1191 0.3769
C52_2 C 0.1990 0.0938 0.3855
C53_2 C 0.1683 0.0491 0.3738
C54_2 C 0.1203 0.0257 0.380333
C55_2 C 0.1018 0.0461 0.3992
C56_2 C 0.132667 0.090333 0.4115
C57_2 C 0.1809 0.1143 0.4046
C58_2 C 0.0498 0.0224 0.4039
H30_2 H 0.1811 0.0327 0.3587
H32_2 H 0.119667 0.1068 0.4264
H33_2 H 0.2038 0.1485 0.4141
O15_2 O 0.2660 0.0947 0.3664
O16_2 O 0.273667 0.1639 0.3802
C68_2 C 0.0271 0.049333 0.4044
H36_2 H 0.0076 0.1050 0.3697
H39_2 H 0.0481 0.0875 0.4034
Fe10_2 Fe 0.3293 0.2130 0.362333
Fe16_2 Fe 0.3290 0.1116 0.3605
Fe23_2 Fe 0.3638 0.1809 0.303333
C12_2 C 0.005667 0.7616 0.300333
C13_2 C 0.0443 0.7951 0.2844
C14_2 C 0.038667 0.8056 0.2558
C17_2 C 0.0794 0.8436 0.2397
C18_2 C 0.1133 0.8846 0.2541
C19_2 C 0.1522 0.9205 0.239333
C20_2 C 0.1565 0.9158 0.2096
C21_2 C 0.1233 0.8752 0.1947
C22_2 C 0.0849 0.8392 0.2099
C23_2 C 0.1302 0.8697 0.1635
C24_2 C 0.0914 0.8474 0.1446
C25_2 C 0.0982 0.8414 0.1155
C26_2 C 0.1440 0.8582 0.1046
C27_2 C 0.182667 0.8812 0.123333
C28_2 C 0.1759 0.8865 0.1524
C29_2 C 0.1518 0.8496 0.074333
C30_2 C 0.1893 0.9622 0.2551
C31_2 C 0.205667 0.9564 0.2819
C32_2 C 0.2411 0.995333 0.2967
H6_2 H 0.0113 0.7551 0.3224
H7_2 H 0.078667 0.8129 0.2947
H10_2 H 0.1091 0.8891 0.2768
H11_2 H 0.1863 0.9438 0.1982
H12_2 H 0.0602 0.8071 0.1989
H13_2 H 0.055667 0.8346 0.152333
H14_2 H 0.067667 0.8236 0.1015
H15_2 H 0.2185 0.8939 0.1157
H16_2 H 0.2066 0.9028 0.1664
H17_2 H 0.1914 0.9216 0.2914
H18_2 H 0.2526 0.9895 0.3174
C59_2 C 0.0223 0.9729 0.4044
H31_2 H 0.0975 0.9924 0.3697
H34_2 H 0.0395 0.9519 0.4034
C60_2 C 0.8809 0.1301 0.3769
C61_2 C 0.9062 0.1051 0.3855
C62_2 C 0.9509 0.1191 0.3738
C63_2 C 0.9743 0.0945 0.380333
C64_2 C 0.9539 0.0556 0.3992
C65_2 C 0.909667 0.042333 0.4115
C66_2 C 0.8857 0.0665 0.4046
C67_2 C 0.9776 0.027333 0.4039
H35_2 H 0.9673 0.148333 0.3587
H37_2 H 0.8932 0.0128 0.4264
H38_2 H 0.8515 0.0552 0.4141
O17_2 O 0.9053 0.1712 0.3664
O18_2 O 0.8361 0.1097 0.3802
Fe11_2 Fe 0.7870 0.1162 0.362333
Fe18_2 Fe 0.8884 0.217333 0.3605
C1_2 C 0.8699 0.7507 0.3769
C2_2 C 0.8949 0.8010 0.3855
C3_2 C 0.8809 0.8317 0.3738
C4_2 C 0.9055 0.8797 0.380333
C5_2 C 0.9444 0.8982 0.3992
C6_2 C 0.957667 0.867333 0.4115
C7_2 C 0.9335 0.8191 0.4046
C8_2 C 0.972667 0.9502 0.4039
C9_2 C 0.950667 0.9777 0.4044
Fe1_2 Fe 0.8838 0.6707 0.362333
Fe2_2 Fe 0.782667 0.6710 0.3605
H1_2 H 0.851667 0.8189 0.3587
H2_2 H 0.8950 0.9025 0.3697
H3_2 H 0.9872 0.880333 0.4264
H4_2 H 0.9448 0.7962 0.4141
H5_2 H 0.9125 0.9605 0.4034
O1_2 O 0.8279 0.6590 0.3420
O2_2 O 0.8288 0.7340 0.3664
O3_2 O 0.8903 0.726333 0.3802
C10_2 C 0.9192 0.7044 0.3055
C11_2 C 0.9606 0.7371 0.2878
C15_2 C 0.9935 0.7802 0.2431
C16_2 C 0.9550 0.7461 0.2589
Fe3_2 Fe 0.8172 0.6362 0.303333
H8_2 H 0.987667 0.7876 0.221333
H9_2 H 0.9205 0.7280 0.2488
O4_2 O 0.9225 0.7096 0.3326
O5_2 O 0.8821 0.6728 0.2930
C37_2 C 0.8604 0.2760 0.3318
C38_2 C 0.8516 0.3380 0.3049
C39_2 C 0.8624 0.3224 0.3305
C40_2 C 0.8741 0.3511 0.3552
C41_2 C 0.8745 0.3940 0.3544
C42_2 C 0.8633 0.4095 0.3289
C43_2 C 0.8522 0.3811 0.3041
C44_2 C 0.8545 0.5825 0.3297
C45_2 C 0.8936 0.5360 0.3441
C46_2 C 0.8577 0.5388 0.3289
C47_2 C 0.8244 0.4991 0.313333
C48_2 C 0.8265 0.4574 0.3131
C49_2 C 0.8621 0.4544 0.3284
C50_2 C 0.895667 0.494333 0.3438
H21_2 H 0.8824 0.3401 0.3754
H22_2 H 0.8440 0.392333 0.2840
H23_2 H 0.7962 0.4999 0.3016
H24_2 H 0.9239 0.493333 0.3555
H25_2 H 0.8426 0.3169 0.2855
H26_2 H 0.9198 0.5659 0.3562
H27_2 H 0.8825 0.4146 0.3740
H28_2 H 0.7997 0.4271 0.3014
O10_2 O 0.8730 0.2648 0.3550
O11_2 O 0.8466 0.249333 0.3096
O12_2 O 0.8237 0.5844 0.3140
O13_2 O 0.8825 0.6164 0.3461
H29_2 H 0.786334 0.6328 0.264666
O14_2 O 0.8059 0.6131 0.2646
O19_2 O 0.3410 0.1688 0.3420
C69_2 C 0.2956 0.2147 0.3055
C70_2 C 0.2629 0.2234 0.2878
C71_2 C 0.2384 0.2440 0.300333
C72_2 C 0.2049 0.2491 0.2844
C73_2 C 0.1944 0.2330 0.2558
C74_2 C 0.2198 0.2132 0.2431
C75_2 C 0.2539 0.2088 0.2589
C76_2 C 0.1564 0.2357 0.2397
C77_2 C 0.1154 0.2286 0.2541
C78_2 C 0.0795 0.2316 0.239333
C79_2 C 0.0842 0.2406 0.2096
C80_2 C 0.1248 0.2480 0.1947
C81_2 C 0.1608 0.2456 0.2099
C82_2 C 0.1303 0.2604 0.1635
C83_2 C 0.1526 0.2439 0.1446
C84_2 C 0.1586 0.2567 0.1155
C85_2 C 0.1418 0.2857 0.1046
C86_2 C 0.1188 0.3014 0.123333
C87_2 C 0.1135 0.2893 0.1524
C88_2 C 0.1504 0.3021 0.074333
C89_2 C 0.0378 0.2270 0.2551
C90_2 C 0.0436 0.2492 0.2819
C91_2 C 0.004667 0.2457 0.2967
H40_2 H 0.2449 0.2561 0.3224
H41_2 H 0.1871 0.2657 0.2947
H42_2 H 0.2124 0.2000 0.221333
H43_2 H 0.2720 0.1924 0.2488
H44_2 H 0.1109 0.2199 0.2768
H45_2 H 0.0562 0.2424 0.1982
H46_2 H 0.1929 0.2530 0.1989
H47_2 H 0.1654 0.2210 0.152333
H48_2 H 0.1764 0.2440 0.1015
H49_2 H 0.1061 0.3245 0.1157
H50_2 H 0.0972 0.3037 0.1664
H51_2 H 0.0784 0.2697 0.2914
H52_2 H 0.0105 0.2630 0.3174
O20_2 O 0.2904 0.2128 0.3326
O21_2 O 0.3272 0.2092 0.2930
C96_2 C 0.7240 0.5843 0.3318
C97_2 C 0.6620 0.5135 0.3049
C98_2 C 0.6776 0.5399 0.3305
C99 C 0.6489 0.5229 0.3552
C100 C 0.6060 0.4804 0.3544
C101_2 C 0.5905 0.4537 0.3289
C102_2 C 0.6189 0.4710 0.3041
C103_2 C 0.4175 0.2719 0.3297
C104 C 0.4640 0.3575 0.3441
C105_2 C 0.4612 0.3188 0.3289
C106_2 C 0.5009 0.3252 0.313333
C107_2 C 0.5426 0.3690 0.3131
C108_2 C 0.5456 0.4076 0.3284
C109 C 0.505667 0.401333 0.3438
H55 H 0.6599 0.5422 0.3754
H56_2 H 0.607667 0.4516 0.2840
H57_2 H 0.5001 0.2962 0.3016
H58 H 0.506667 0.4305 0.3555
H59_2 H 0.6831 0.5256 0.2855
H60 H 0.4341 0.3538 0.3562
H61 H 0.5854 0.4678 0.3740
H62_2 H 0.5729 0.3725 0.3014
O26_2 O 0.7352 0.6081 0.3550
O27_2 O 0.750667 0.5972 0.3096
O28_2 O 0.4156 0.2392 0.3140
O29_2 O 0.3836 0.2660 0.3461
H63_2 H 0.3672 0.153500 0.264666
O30_2 O 0.3869 0.1927 0.2646
O31_2 O 0.8312 0.1721 0.3420
C110_2 C 0.7853 0.0808 0.3055
C111_2 C 0.7766 0.0394 0.2878
C115_2 C 0.7868 0.0065 0.2431
C116_2 C 0.7912 0.0450 0.2589
Fe9_2 Fe 0.8191 0.1828 0.303333
H66_2 H 0.8000 0.012333 0.221333
H67_2 H 0.8076 0.0795 0.2488
O32_2 O 0.7872 0.0775 0.3326
O33_2 O 0.7908 0.1179 0.2930
C137_2 C 0.4157 0.1396 0.3318
C138_2 C 0.4865 0.1484 0.3049
C139_2 C 0.4601 0.1376 0.3305
C140_2 C 0.4771 0.1259 0.3552
C141_2 C 0.5196 0.1255 0.3544
C142_2 C 0.5463 0.1367 0.3289
C143_2 C 0.5290 0.1478 0.3041
C144_2 C 0.7281 0.1455 0.3297
C145_2 C 0.6425 0.1064 0.3441
C146_2 C 0.6812 0.1423 0.3289
C147_2 C 0.6748 0.1756 0.313333
C148_2 C 0.6310 0.1735 0.3131
C149_2 C 0.5924 0.1379 0.3284
C150_2 C 0.598667 0.104333 0.3438
H79_2 H 0.4578 0.1176 0.3754
H80_2 H 0.5484 0.1560 0.2840
H81_2 H 0.7038 0.2038 0.3016
H82_2 H 0.5695 0.0761 0.3555
H83_2 H 0.4744 0.1574 0.2855
H84_2 H 0.6462 0.0802 0.3562
H85_2 H 0.5322 0.1175 0.3740
H86_2 H 0.6275 0.2003 0.3014
O38_2 O 0.3919 0.1270 0.3550
O39_2 O 0.4028 0.1534 0.3096
O40_2 O 0.7608 0.1763 0.3140
O41_2 O 0.7340 0.1175 0.3461
H87_2 H 0.846500 0.213666 0.264666
O42_2 O 0.8073 0.1941 0.2646
O47_2 O 0.7841 0.1518 0.3933
O48_2 O 0.8482 0.6324 0.3933
O49_2 O 0.3676 0.2159 0.3933
O50_2 O 0.8600 0.2060 0.3975
O51_2 O 0.7940 0.6541 0.3975
O52_2 O 0.3459 0.1400 0.3975
O54_2 O 0.8766 0.1890 0.2908
O55_2 O 0.8110 0.6875 0.2908
O57_2 O 0.9241 0.2337 0.3259
O58_2 O 0.7663 0.690333 0.3259
H88_2 H 0.421435 0.208095 0.262343
H89_2 H 0.791905 0.21334 0.262343
H90_2 H 0.78666 0.578565 0.262343
C112_2 C 0.7560 0.994333 0.300333
C113_2 C 0.7509 0.9557 0.2844
C114_2 C 0.7670 0.961333 0.2558
C117_2 C 0.7643 0.9206 0.2397
C118_2 C 0.7714 0.8867 0.2541
C119_2 C 0.7684 0.8478 0.239333
C120_2 C 0.7594 0.8435 0.2096
C121_2 C 0.7520 0.8767 0.1947
C122_2 C 0.7544 0.9151 0.2099
C123_2 C 0.7396 0.8698 0.1635
C124_2 C 0.7561 0.9086 0.1446
C125_2 C 0.7433 0.9018 0.1155
C126_2 C 0.7143 0.8560 0.1046
C127_2 C 0.6986 0.817333 0.123333
C128_2 C 0.7107 0.8241 0.1524
C129_2 C 0.6979 0.8482 0.074333
C130_2 C 0.7730 0.8107 0.2551
C131_2 C 0.7508 0.794333 0.2819
C132_2 C 0.7543 0.7589 0.2967
C133_2 C 0.7801 0.7390 0.2849
C134_2 C 0.8021 0.7552 0.2580
C135_2 C 0.7985 0.7906 0.2432
C136_2 C 0.7861 0.7035 0.3014
H64_2 H 0.7439 0.9887 0.3224
H65_2 H 0.7343 0.921333 0.2947
H68_2 H 0.7801 0.8909 0.2768
H69_2 H 0.7576 0.8137 0.1982
H70_2 H 0.7470 0.9398 0.1989
H71_2 H 0.7790 0.944333 0.152333
H72_2 H 0.7560 0.932333 0.1015
H73_2 H 0.6755 0.7815 0.1157
H74_2 H 0.6963 0.7934 0.1664
H75_2 H 0.7303 0.8086 0.2914
H76_2 H 0.7370 0.7474 0.3174
H77_2 H 0.8227 0.7410 0.2485
H78_2 H 0.8164 0.8028 0.2227
C92_2 C 0.9590 0.2199 0.2849
C93_2 C 0.9532 0.1979 0.2580
C94_2 C 0.9922 0.2015 0.2432
C95_2 C 0.9175 0.2139 0.3014
H53_2 H 0.9184 0.1773 0.2485
H54_2 H 0.9865 0.1836 0.2227
Fe23_3 Fe 0.0304 0.5143 0.636667
C1_3 C 0.5365 0.0841 0.7103
C2_3 C 0.5615 0.1344 0.7189
C3_3 C 0.5475 0.1651 0.7072
C4_3 C 0.5721 0.2131 0.713667
C5_3 C 0.6110 0.2316 0.7326
C6_3 C 0.624333 0.200667 0.7449
C7_3 C 0.6001 0.1525 0.7380
C8_3 C 0.639333 0.2836 0.7373
C9_3 C 0.617333 0.3111 0.7378
H1_3 H 0.518333 0.1523 0.6921
H2_3 H 0.5616 0.2359 0.7031
H3_3 H 0.6538 0.213667 0.7598
H4_3 H 0.6114 0.1296 0.7475
H5_3 H 0.5791 0.2939 0.7368
O2_3 O 0.4954 0.0674 0.6998
O3_3 O 0.5569 0.059667 0.7136
C10_3 C 0.5858 0.0378 0.6389
C11_3 C 0.6272 0.0705 0.6212
C12_3 C 0.672333 0.0950 0.633667
C13_3 C 0.7109 0.1285 0.6178
C14_3 C 0.705333 0.1390 0.5892
C15_3 C 0.6601 0.1136 0.5765
C16_3 C 0.6216 0.0795 0.5923
C17_3 C 0.7460 0.1770 0.5731
C18_3 C 0.7799 0.2180 0.5875
C19_3 C 0.8188 0.2539 0.572667
C20_3 C 0.8231 0.2492 0.5430
C21_3 C 0.7899 0.2086 0.5281
C22_3 C 0.7515 0.1726 0.5433
C23_3 C 0.7968 0.2031 0.4969
C24_3 C 0.7580 0.1808 0.4780
C25_3 C 0.7648 0.1748 0.4489
C26_3 C 0.8106 0.1916 0.4380
C27_3 C 0.849333 0.2146 0.456667
C28_3 C 0.8425 0.2199 0.4858
C29_3 C 0.8184 0.1830 0.407667
C30_3 C 0.8559 0.2956 0.5885
C31_3 C 0.872333 0.2898 0.6153
C32_3 C 0.9077 0.328667 0.6301
C33_3 C 0.9276 0.3744 0.6183
C34_3 C 0.9114 0.3802 0.5914
C35_3 C 0.8760 0.3412 0.5766
C36_3 C 0.9631 0.4159 0.6348
H6_3 H 0.6779 0.0885 0.6558
H7_3 H 0.745333 0.1463 0.6281
H8_3 H 0.654333 0.1210 0.554667
H9_3 H 0.5871 0.0614 0.5822
H10_3 H 0.7757 0.2225 0.6102
H11_3 H 0.8529 0.2772 0.5316
H12_3 H 0.7268 0.1405 0.5323
H13_3 H 0.722333 0.1680 0.485667
H14_3 H 0.734333 0.1570 0.4349
H15_3 H 0.8851 0.2273 0.4491
H16_3 H 0.8732 0.2362 0.4998
H17_3 H 0.8580 0.2550 0.6248
H18_3 H 0.9192 0.3229 0.6508
H19_3 H 0.9256 0.4150 0.5819
H20_3 H 0.8638 0.3469 0.5561
O4_3 O 0.5891 0.0430 0.6660
O5_3 O 0.5487 0.0062 0.6264
O8_3 O 0.9791 0.4568 0.6242
O9_3 O 0.976333 0.4093 0.6593
C51_3 C 0.9159 0.4525 0.7103
C52_3 C 0.8656 0.4272 0.7189
C53_3 C 0.8349 0.3825 0.7072
C54_3 C 0.7869 0.3591 0.713667
C55_3 C 0.7684 0.3795 0.7326
C56_3 C 0.799333 0.423667 0.7449
C57_3 C 0.8475 0.4477 0.7380
C58_3 C 0.7164 0.3558 0.7373
C59_3 C 0.6889 0.3063 0.7378
H30_3 H 0.8477 0.3661 0.6921
H31_3 H 0.7641 0.3258 0.7031
H32_3 H 0.786333 0.4402 0.7598
H33_3 H 0.8704 0.4819 0.7475
H34_3 H 0.7061 0.2853 0.7368
O15_3 O 0.9326 0.4281 0.6998
O16_3 O 0.940333 0.4973 0.7136
C60_3 C 0.5475 0.4635 0.7103
C61_3 C 0.5728 0.4385 0.7189
C62_3 C 0.6175 0.4525 0.7072
C63_3 C 0.6409 0.4279 0.713667
C64_3 C 0.6205 0.3890 0.7326
C65_3 C 0.576333 0.375667 0.7449
C66_3 C 0.5523 0.3999 0.7380
C67_3 C 0.6442 0.360667 0.7373
C68_3 C 0.6937 0.382667 0.7378
H35_3 H 0.6339 0.481667 0.6921
H36_3 H 0.6742 0.4384 0.7031
H37_3 H 0.5598 0.3462 0.7598
H38_3 H 0.5181 0.3886 0.7475
H39_3 H 0.7147 0.4209 0.7368
O17_3 O 0.5719 0.5046 0.6998
O18_3 O 0.5027 0.4431 0.7136
O55_3 O 0.4776 0.0209 0.6242
O58_3 O 0.4329 0.023667 0.6593
O1_3 O 0.4945 0.9924 0.6754
Fe3_3 Fe 0.4838 0.9696 0.636667
C37_3 C 0.5270 0.6094 0.6652
C38_3 C 0.5182 0.6714 0.6383
C39_3 C 0.5290 0.6558 0.6639
C40_3 C 0.5407 0.6845 0.6886
C41_3 C 0.5411 0.7274 0.6878
C42_3 C 0.5299 0.7429 0.6623
C43_3 C 0.5188 0.7145 0.6375
C44_3 C 0.5211 0.9159 0.6631
C45_3 C 0.5602 0.8694 0.6775
C46_3 C 0.5243 0.8722 0.6623
C47_3 C 0.4910 0.8325 0.646667
C48_3 C 0.4931 0.7908 0.6465
C49_3 C 0.5287 0.7878 0.6618
C50_3 C 0.562333 0.827667 0.6772
H21_3 H 0.5490 0.6735 0.7088
H22_3 H 0.5106 0.725667 0.6174
H23_3 H 0.4628 0.8333 0.6350
H24_3 H 0.5905 0.826667 0.6889
H25_3 H 0.5092 0.6503 0.6189
H26_3 H 0.5864 0.8993 0.6896
H27_3 H 0.5491 0.7480 0.7074
H28_3 H 0.4663 0.7605 0.6348
O10_3 O 0.5396 0.5982 0.6884
O11_3 O 0.5132 0.582667 0.6430
O12_3 O 0.4903 0.9178 0.6474
O13_3 O 0.5491 0.9498 0.6795
H29_3 H 0.453000 0.9662 0.598000
O14_3 O 0.4725 0.9465 0.5980
O19_3 O 0.0076 0.5022 0.6754
C96_3 C 0.3906 0.9177 0.6652
C97_3 C 0.3286 0.8469 0.6383
C98_3 C 0.3442 0.8733 0.6639
C99_2 C 0.3155 0.8563 0.6886
C100_2 C 0.2726 0.8138 0.6878
C101_3 C 0.2571 0.7871 0.6623
C102_3 C 0.2855 0.8044 0.6375
C103_3 C 0.0841 0.6053 0.6631
C104_2 C 0.1306 0.6909 0.6775
C105_3 C 0.1278 0.6522 0.6623
C106_3 C 0.1675 0.6586 0.646667
C107_3 C 0.2092 0.7024 0.6465
C108_3 C 0.2122 0.7410 0.6618
C109_2 C 0.172333 0.734667 0.6772
H55_2 H 0.3265 0.8756 0.7088
H56_3 H 0.274333 0.7850 0.6174
H57_3 H 0.1667 0.6296 0.6350
H58_2 H 0.173333 0.7639 0.6889
H59_3 H 0.3497 0.8590 0.6189
H60_2 H 0.1007 0.6872 0.6896
H61_2 H 0.2520 0.8012 0.7074
H62_3 H 0.2395 0.7059 0.6348
O26_3 O 0.4018 0.9415 0.6884
O27_3 O 0.417333 0.9306 0.6430
O28_3 O 0.0822 0.5726 0.6474
O29_3 O 0.0502 0.5994 0.6795
H63_3 H 0.0338 0.486834 0.598000
O30_3 O 0.0535 0.5261 0.5980
O31_3 O 0.4978 0.5055 0.6754
C110_3 C 0.4519 0.4142 0.6389
C111_3 C 0.4432 0.3728 0.6212
C112_3 C 0.4226 0.327667 0.633667
C113_3 C 0.4175 0.2891 0.6178
C114_3 C 0.4336 0.294667 0.5892
C115_3 C 0.4534 0.3399 0.5765
C116_3 C 0.4578 0.3784 0.5923
C117_3 C 0.4309 0.2540 0.5731
C118_3 C 0.4380 0.2201 0.5875
C119_3 C 0.4350 0.1812 0.572667
C120_3 C 0.4260 0.1769 0.5430
C121_3 C 0.4186 0.2101 0.5281
C122_3 C 0.4210 0.2485 0.5433
C123_3 C 0.4062 0.2032 0.4969
C124_3 C 0.4227 0.2420 0.4780
C125_3 C 0.4099 0.2352 0.4489
C126_3 C 0.3809 0.1894 0.4380
C127_3 C 0.3652 0.150667 0.456667
C128_3 C 0.3773 0.1575 0.4858
C129_3 C 0.3645 0.1816 0.407667
C130_3 C 0.4396 0.1441 0.5885
C131_3 C 0.4174 0.127667 0.6153
C132_3 C 0.4209 0.0923 0.6301
C133_3 C 0.4467 0.0724 0.6183
C134_3 C 0.4687 0.0886 0.5914
C135_3 C 0.4651 0.1240 0.5766
C136_3 C 0.4527 0.0369 0.6348
Fe9_3 Fe 0.4857 0.5162 0.636667
H64_3 H 0.4105 0.3221 0.6558
H65_3 H 0.4009 0.254667 0.6281
H66_3 H 0.4666 0.345667 0.554667
H67_3 H 0.4742 0.4129 0.5822
H68_3 H 0.4467 0.2243 0.6102
H69_3 H 0.4242 0.1471 0.5316
H70_3 H 0.4136 0.2732 0.5323
H71_3 H 0.4456 0.277667 0.485667
H72_3 H 0.4226 0.265667 0.4349
H73_3 H 0.3421 0.1149 0.4491
H74_3 H 0.3629 0.1268 0.4998
H75_3 H 0.3969 0.1420 0.6248
H76_3 H 0.4036 0.0808 0.6508
H77_3 H 0.4893 0.0744 0.5819
H78_3 H 0.4830 0.1362 0.5561
O32_3 O 0.4538 0.4109 0.6660
O33_3 O 0.4574 0.4513 0.6264
C137_3 C 0.0823 0.4730 0.6652
C138_3 C 0.1531 0.4818 0.6383
C139_3 C 0.1267 0.4710 0.6639
C140_3 C 0.1437 0.4593 0.6886
C141_3 C 0.1862 0.4589 0.6878
C142_3 C 0.2129 0.4701 0.6623
C143_3 C 0.1956 0.4812 0.6375
C144_3 C 0.3947 0.4789 0.6631
C145_3 C 0.3091 0.4398 0.6775
C146_3 C 0.3478 0.4757 0.6623
C147_3 C 0.3414 0.5090 0.646667
C148_3 C 0.2976 0.5069 0.6465
C149_3 C 0.2590 0.4713 0.6618
C150_3 C 0.265333 0.437667 0.6772
H79_3 H 0.1244 0.4510 0.7088
H80_3 H 0.2150 0.4894 0.6174
H81_3 H 0.3704 0.5372 0.6350
H82_3 H 0.2361 0.4095 0.6889
H83_3 H 0.1410 0.4908 0.6189
H84_3 H 0.3128 0.4136 0.6896
H85_3 H 0.1988 0.4509 0.7074
H86_3 H 0.2941 0.5337 0.6348
O38_3 O 0.0585 0.4604 0.6884
O39_3 O 0.0694 0.4868 0.6430
O40_3 O 0.4274 0.5097 0.6474
O41_3 O 0.4006 0.4509 0.6795
H87_3 H 0.513166 0.547000 0.598000
O42_3 O 0.4739 0.5275 0.5980
O54_3 O 0.5432 0.5224 0.6242
O57_3 O 0.5907 0.5671 0.6593
H88_3 H 0.0881015 0.541428 0.595677
H89_3 H 0.458572 0.546673 0.595677
H90_3 H 0.453327 0.911898 0.595677
C69_3 C 0.9622 0.5481 0.6389
C70_3 C 0.9295 0.5568 0.6212
C71_3 C 0.9050 0.5774 0.633667
C72_3 C 0.8715 0.5825 0.6178
C73_3 C 0.8610 0.5664 0.5892
C74_3 C 0.8864 0.5466 0.5765
C75_3 C 0.9205 0.5422 0.5923
C76_3 C 0.8230 0.5691 0.5731
C77_3 C 0.7820 0.5620 0.5875
C78_3 C 0.7461 0.5650 0.572667
C79_3 C 0.7508 0.5740 0.5430
C80_3 C 0.7914 0.5814 0.5281
C81_3 C 0.8274 0.5790 0.5433
C82_3 C 0.7969 0.5938 0.4969
C83_3 C 0.8192 0.5773 0.4780
C84_3 C 0.8252 0.5901 0.4489
C85_3 C 0.8084 0.6191 0.4380
C86_3 C 0.7854 0.6348 0.456667
C87_3 C 0.7801 0.6227 0.4858
C88_3 C 0.8170 0.6355 0.407667
C89_3 C 0.7044 0.5604 0.5885
C90_3 C 0.7102 0.5826 0.6153
C91_3 C 0.671333 0.5791 0.6301
C92_3 C 0.6256 0.5533 0.6183
C93_3 C 0.6198 0.5313 0.5914
C94_3 C 0.6588 0.5349 0.5766
C95_3 C 0.5841 0.5473 0.6348
H40_3 H 0.9115 0.5895 0.6558
H41_3 H 0.8537 0.5991 0.6281
H42_3 H 0.8790 0.5334 0.554667
H43_3 H 0.9386 0.5258 0.5822
H44_3 H 0.7775 0.5533 0.6102
H45_3 H 0.7228 0.5758 0.5316
H46_3 H 0.8595 0.5864 0.5323
H47_3 H 0.8320 0.5544 0.485667
H48_3 H 0.8430 0.5774 0.4349
H49_3 H 0.7727 0.6579 0.4491
H50_3 H 0.7638 0.6371 0.4998
H51_3 H 0.7450 0.6031 0.6248
H52_3 H 0.6771 0.5964 0.6508
H53_3 H 0.5850 0.5107 0.5819
H54_3 H 0.6531 0.5170 0.5561
O20_3 O 0.9570 0.5462 0.6660
O21_3 O 0.9938 0.5426 0.6264
C99_3 C 0.9822 0.1896 0.0219
C100_3 C 0.9393 0.1471 0.0211
C104_3 C 0.7973 0.0242 0.0108
C109_3 C 0.839 0.068 0.0105
H55_3 H 0.9932 0.2089 0.0421
H58_3 H 0.84 0.0972 0.0222
H60_3 H 0.7674 0.0205 0.0229
H61_3 H 0.9187 0.1345 0.0407
loop_
_geom_bond_atom_site_label_1
_geom_bond_atom_site_label_2
_geom_bond_site_symmetry_1
_geom_bond_site_symmetry_2
C1 C2 1_555 1_555
C2 C3 1_555 1_555
C3 C4 1_555 1_555
C4 C5 1_555 1_555
C5 C6 1_555 1_555
C6 C7 1_555 1_555
C7 C2 1_555 1_555
C8 C5 1_555 1_555
C9 C8 1_555 1_555
Fe1 O1 1_555 1_555
Fe2 O1 1_555 1_555
H1 C3 1_555 1_555
H2 C4 1_555 1_555
H3 C6 1_555 1_555
H4 C7 1_555 1_555
H5 C9 1_555 1_555
O2 C1 1_555 1_555
O3 C1 1_555 1_555
C40 C41 1_555 1_555
C50 C45 1_555 1_555
H21 C40 1_555 1_555
H24 C50 1_555 1_555
H26 C45 1_555 1_555
H27 C41 1_555 1_555
O13 Fe1 1_555 1_555
C51 C52 1_555 1_555
C52 C53 1_555 1_555
C53 C54 1_555 1_555
C54 C55 1_555 1_555
C55 C56 1_555 1_555
C56 C57 1_555 1_555
C57 C52 1_555 1_555
C58 C55 1_555 1_555
C59 C8 1_555 1_555
H30 C53 1_555 1_555
H31 C54 1_555 1_555
H32 C56 1_555 1_555
H33 C57 1_555 1_555
H34 C59 1_555 1_555
O15 C51 1_555 1_555
O16 C51 1_555 1_555
C60 C61 1_555 1_555
C61 C62 1_555 1_555
C62 C63 1_555 1_555
C63 C64 1_555 1_555
C64 C65 1_555 1_555
C65 C66 1_555 1_555
C66 C61 1_555 1_555
C67 C9 1_555 1_555
C68 C58 1_555 1_555
H35 C62 1_555 1_555
H36 C63 1_555 1_555
H37 C65 1_555 1_555
H38 C66 1_555 1_555
H39 C68 1_555 1_555
O17 C60 1_555 1_555
O18 C60 1_555 1_555
O26 Fe2 1_555 1_555
Fe10 O16 1_555 1_555
Fe11 O18 1_555 1_555
Fe18 O17 1_555 1_555
O48 Fe1 1_555 1_555
O51 Fe2 1_555 1_555
Fe1 O3 1_555 1_555
Fe2 O2 1_555 1_555
C58 C59 1_555 1_555
O15 Fe16 1_555 1_555
C64 C67 1_555 1_555
C67 C68 1_555 1_555
C10 C11 1_555 1_555
C11 C12 1_555 1_555
C12 C13 1_555 1_555
C13 C14 1_555 1_555
C14 C15 1_555 1_555
C15 C16 1_555 1_555
C16 C11 1_555 1_555
C17 C14 1_555 1_555
C18 C17 1_555 1_555
C19 C18 1_555 1_555
C20 C19 1_555 1_555
C21 C20 1_555 1_555
C22 C17 1_555 1_555
C23 C21 1_555 1_555
C24 C23 1_555 1_555
C25 C24 1_555 1_555
C26 C25 1_555 1_555
C27 C26 1_555 1_555
C28 C23 1_555 1_555
C29 C26 1_555 1_555
C30 C19 1_555 1_555
C31 C30 1_555 1_555
C32 C31 1_555 1_555
C33 C32 1_555 1_555
C34 C33 1_555 1_555
C35 C30 1_555 1_555
C36 C33 1_555 1_555
Fe3 O5 1_555 1_555
H6 C12 1_555 1_555
H7 C13 1_555 1_555
H8 C15 1_555 1_555
H9 C16 1_555 1_555
H10 C18 1_555 1_555
H11 C20 1_555 1_555
H12 C22 1_555 1_555
H13 C24 1_555 1_555
H14 C25 1_555 1_555
H15 C27 1_555 1_555
H16 C28 1_555 1_555
H17 C31 1_555 1_555
H18 C32 1_555 1_555
H19 C34 1_555 1_555
H20 C35 1_555 1_555
O5 C10 1_555 1_555
O6 C29 1_555 1_555
O7 C29 1_555 1_555
O8 C36 1_555 1_555
O9 C36 1_555 1_555
C42 C43 1_555 1_555
C43 C38 1_555 1_555
C44 C46 1_555 1_555
C46 C47 1_555 1_555
C47 C48 1_555 1_555
C48 C49 1_555 1_555
C49 C42 1_555 1_555
H22 C43 1_555 1_555
H23 C47 1_555 1_555
H28 C48 1_555 1_555
O12 Fe3 1_555 1_555
H29 O14 1_555 1_555
O14 Fe3 1_555 1_555
C96 C98 1_555 1_555
O27 Fe3 1_555 1_555
Fe14 O6 1_555 1_555
Fe21 O7 1_555 1_555
Fe23 O8 1_555 1_555
O55 Fe3 1_555 1_555
C10 O4 1_555 1_555
C21 C22 1_555 1_555
C27 C28 1_555 1_555
C34 C35 1_555 1_555
C44 O12 1_555 1_555
C96 O27 1_555 1_555
O14 H90 1_555 1_555
Fe11 O31 1_555 1_555
Fe18 O10 1_555 1_555
O31 Fe18 1_555 1_555
O41 Fe11 1_555 1_555
O47 Fe11 1_555 1_555
O50 Fe18 1_555 1_555
C37 C39 1_555 1_555
O11 C37 1_555 1_555
C110 C111 1_555 1_555
C111 C112 1_555 1_555
C112 C113 1_555 1_555
C113 C114 1_555 1_555
C114 C115 1_555 1_555
C115 C116 1_555 1_555
C116 C111 1_555 1_555
C117 C114 1_555 1_555
C118 C117 1_555 1_555
C119 C118 1_555 1_555
C120 C119 1_555 1_555
C121 C120 1_555 1_555
C122 C117 1_555 1_555
C123 C121 1_555 1_555
C124 C123 1_555 1_555
C125 C124 1_555 1_555
C126 C125 1_555 1_555
C127 C126 1_555 1_555
C128 C123 1_555 1_555
C129 C126 1_555 1_555
C130 C119 1_555 1_555
C131 C130 1_555 1_555
C132 C131 1_555 1_555
C133 C132 1_555 1_555
C134 C133 1_555 1_555
C135 C130 1_555 1_555
C136 C133 1_555 1_555
Fe9 O11 1_555 1_555
H64 C112 1_555 1_555
H65 C113 1_555 1_555
H66 C115 1_555 1_555
H67 C116 1_555 1_555
H68 C118 1_555 1_555
H69 C120 1_555 1_555
H70 C122 1_555 1_555
H71 C124 1_555 1_555
H72 C125 1_555 1_555
H73 C127 1_555 1_555
H74 C128 1_555 1_555
H75 C131 1_555 1_555
H76 C132 1_555 1_555
H77 C134 1_555 1_555
H78 C135 1_555 1_555
O33 C110 1_555 1_555
O34 C129 1_555 1_555
O35 C129 1_555 1_555
O55 C136 1_555 1_555
O58 C136 1_555 1_555
C144 C146 1_555 1_555
C146 C147 1_555 1_555
H81 C147 1_555 1_555
O40 Fe9 1_555 1_555
H87 O42 1_555 1_555
O42 Fe9 1_555 1_555
O54 Fe9 1_555 1_555
C110 O32 1_555 1_555
C121 C122 1_555 1_555
C127 C128 1_555 1_555
C134 C135 1_555 1_555
Fe9 O33 1_555 1_555
C144 O40 1_555 1_555
O42 H89 1_555 1_555
C101 C102 1_555 1_555
C102 C97 1_555 1_555
C107 C108 1_555 1_555
C108 C101 1_555 1_555
H56 C102 1_555 1_555
H62 C107 1_555 1_555
Fe10 O19 1_555 1_555
Fe16 O19 1_555 1_555
O29 Fe10 1_555 1_555
C140 C141 1_555 1_555
C150 C145 1_555 1_555
H79 C140 1_555 1_555
H82 C150 1_555 1_555
H84 C145 1_555 1_555
H85 C141 1_555 1_555
O38 Fe16 1_555 1_555
O49 Fe10 1_555 1_555
O52 Fe16 1_555 1_555
C69 C70 1_555 1_555
C70 C71 1_555 1_555
C71 C72 1_555 1_555
C72 C73 1_555 1_555
C73 C74 1_555 1_555
C74 C75 1_555 1_555
C75 C70 1_555 1_555
C76 C73 1_555 1_555
C77 C76 1_555 1_555
C78 C77 1_555 1_555
C79 C78 1_555 1_555
C80 C79 1_555 1_555
C81 C76 1_555 1_555
C82 C80 1_555 1_555
C83 C82 1_555 1_555
C84 C83 1_555 1_555
C85 C84 1_555 1_555
C86 C85 1_555 1_555
C87 C82 1_555 1_555
C88 C85 1_555 1_555
C89 C78 1_555 1_555
C90 C89 1_555 1_555
C91 C90 1_555 1_555
C92 C91 1_555 1_555
C93 C92 1_555 1_555
C94 C89 1_555 1_555
C95 C92 1_555 1_555
Fe23 O21 1_555 1_555
H40 C71 1_555 1_555
H41 C72 1_555 1_555
H42 C74 1_555 1_555
H43 C75 1_555 1_555
H44 C77 1_555 1_555
H45 C79 1_555 1_555
H46 C81 1_555 1_555
H47 C83 1_555 1_555
H48 C84 1_555 1_555
H49 C86 1_555 1_555
H50 C87 1_555 1_555
H51 C90 1_555 1_555
H52 C91 1_555 1_555
H53 C93 1_555 1_555
H54 C94 1_555 1_555
O21 C69 1_555 1_555
O22 C88 1_555 1_555
O23 C88 1_555 1_555
O54 C95 1_555 1_555
O57 C95 1_555 1_555
C103 C105 1_555 1_555
C105 C106 1_555 1_555
H57 C106 1_555 1_555
O28 Fe23 1_555 1_555
H63 O30 1_555 1_555
O30 Fe23 1_555 1_555
C137 C139 1_555 1_555
C138 C139 1_555 1_555
C142 C143 1_555 1_555
C143 C138 1_555 1_555
C148 C149 1_555 1_555
C149 C142 1_555 1_555
H80 C143 1_555 1_555
H83 C138 1_555 1_555
H86 C148 1_555 1_555
O39 Fe23 1_555 1_555
C69 O20 1_555 1_555
C80 C81 1_555 1_555
C86 C87 1_555 1_555
C93 C94 1_555 1_555
C103 O28 1_555 1_555
C137 O39 1_555 1_555
O30 H88 1_555 1_555
C34_2 C33_2 1_555 1_555
C36_2 C33_2 1_555 1_555
H19_2 C34_2 1_555 1_555
H20_2 C35_2 1_555 1_555
O8_2 C36_2 1_555 1_555
O9_2 C36_2 1_555 1_555
C51_2 C52_2 1_555 1_555
C52_2 C53_2 1_555 1_555
C53_2 C54_2 1_555 1_555
C54_2 C55_2 1_555 1_555
C55_2 C56_2 1_555 1_555
C56_2 C57_2 1_555 1_555
C57_2 C52_2 1_555 1_555
C58_2 C55_2 1_555 1_555
H30_2 C53_2 1_555 1_555
H32_2 C56_2 1_555 1_555
H33_2 C57_2 1_555 1_555
O15_2 C51_2 1_555 1_555
O16_2 C51_2 1_555 1_555
C68_2 C58_2 1_555 1_555
H39_2 C68_2 1_555 1_555
Fe10_2 O16_2 1_555 1_555
Fe16_2 O9_2 1_555 1_555
Fe23_2 O8_2 1_555 1_555
C34_2 C35_2 1_555 1_555
O15_2 Fe16_2 1_555 1_555
C12_2 C13_2 1_555 1_555
C13_2 C14_2 1_555 1_555
C17_2 C14_2 1_555 1_555
C18_2 C17_2 1_555 1_555
C19_2 C18_2 1_555 1_555
C20_2 C19_2 1_555 1_555
C21_2 C20_2 1_555 1_555
C22_2 C17_2 1_555 1_555
C23_2 C21_2 1_555 1_555
C24_2 C23_2 1_555 1_555
C25_2 C24_2 1_555 1_555
C26_2 C25_2 1_555 1_555
C27_2 C26_2 1_555 1_555
C28_2 C23_2 1_555 1_555
C29_2 C26_2 1_555 1_555
C30_2 C19_2 1_555 1_555
C31_2 C30_2 1_555 1_555
C32_2 C31_2 1_555 1_555
H6_2 C12_2 1_555 1_555
H7_2 C13_2 1_555 1_555
H10_2 C18_2 1_555 1_555
H11_2 C20_2 1_555 1_555
H12_2 C22_2 1_555 1_555
H13_2 C24_2 1_555 1_555
H14_2 C25_2 1_555 1_555
H15_2 C27_2 1_555 1_555
H16_2 C28_2 1_555 1_555
H17_2 C31_2 1_555 1_555
H18_2 C32_2 1_555 1_555
O47 C29_2 1_555 1_555
O50 C29_2 1_555 1_555
H34_2 C59_2 1_555 1_555
C21_2 C22_2 1_555 1_555
C27_2 C28_2 1_555 1_555
C60_2 C61_2 1_555 1_555
C61_2 C62_2 1_555 1_555
C62_2 C63_2 1_555 1_555
C63_2 C64_2 1_555 1_555
C64_2 C65_2 1_555 1_555
C65_2 C66_2 1_555 1_555
C66_2 C61_2 1_555 1_555
H35_2 C62_2 1_555 1_555
H37_2 C65_2 1_555 1_555
H38_2 C66_2 1_555 1_555
O17_2 C60_2 1_555 1_555
O18_2 C60_2 1_555 1_555
Fe11_2 O18_2 1_555 1_555
Fe18_2 O17_2 1_555 1_555
C64_2 C67_2 1_555 1_555
C1_2 C2_2 1_555 1_555
C2_2 C3_2 1_555 1_555
C3_2 C4_2 1_555 1_555
C4_2 C5_2 1_555 1_555
C5_2 C6_2 1_555 1_555
C6_2 C7_2 1_555 1_555
C7_2 C2_2 1_555 1_555
C8_2 C5_2 1_555 1_555
C9_2 C8_2 1_555 1_555
Fe1_2 O1_2 1_555 1_555
Fe2_2 O1_2 1_555 1_555
H1_2 C3_2 1_555 1_555
H2_2 C4_2 1_555 1_555
H3_2 C6_2 1_555 1_555
H4_2 C7_2 1_555 1_555
H5_2 C9_2 1_555 1_555
O1_2 Fe3_2 1_555 1_555
O2_2 C1_2 1_555 1_555
O3_2 C1_2 1_555 1_555
C10_2 C11_2 1_555 1_555
C15_2 C16_2 1_555 1_555
C16_2 C11_2 1_555 1_555
Fe3_2 O5_2 1_555 1_555
H8_2 C15_2 1_555 1_555
H9_2 C16_2 1_555 1_555
O4_2 Fe1_2 1_555 1_555
O5_2 C10_2 1_555 1_555
C37_2 C39_2 1_555 1_555
C38_2 C39_2 1_555 1_555
C39_2 C40_2 1_555 1_555
C40_2 C41_2 1_555 1_555
C41_2 C42_2 1_555 1_555
C42_2 C43_2 1_555 1_555
C43_2 C38_2 1_555 1_555
C44_2 C46_2 1_555 1_555
C45_2 C46_2 1_555 1_555
C46_2 C47_2 1_555 1_555
C47_2 C48_2 1_555 1_555
C48_2 C49_2 1_555 1_555
C49_2 C42_2 1_555 1_555
C50_2 C45_2 1_555 1_555
H21_2 C40_2 1_555 1_555
H22_2 C43_2 1_555 1_555
H23_2 C47_2 1_555 1_555
H24_2 C50_2 1_555 1_555
H25_2 C38_2 1_555 1_555
H26_2 C45_2 1_555 1_555
H27_2 C41_2 1_555 1_555
H28_2 C48_2 1_555 1_555
O10_2 C37_2 1_555 1_555
O11_2 C37_2 1_555 1_555
O12_2 Fe3_2 1_555 1_555
O13_2 Fe1_2 1_555 1_555
H29_2 O14_2 1_555 1_555
O14_2 Fe3_2 1_555 1_555
Fe10_2 O19_2 1_555 1_555
Fe16_2 O19_2 1_555 1_555
O19_2 Fe23_2 1_555 1_555
C69_2 C70_2 1_555 1_555
C70_2 C71_2 1_555 1_555
C71_2 C72_2 1_555 1_555
C72_2 C73_2 1_555 1_555
C73_2 C74_2 1_555 1_555
C74_2 C75_2 1_555 1_555
C75_2 C70_2 1_555 1_555
C76_2 C73_2 1_555 1_555
C77_2 C76_2 1_555 1_555
C78_2 C77_2 1_555 1_555
C79_2 C78_2 1_555 1_555
C80_2 C79_2 1_555 1_555
C81_2 C76_2 1_555 1_555
C82_2 C80_2 1_555 1_555
C83_2 C82_2 1_555 1_555
C84_2 C83_2 1_555 1_555
C85_2 C84_2 1_555 1_555
C86_2 C85_2 1_555 1_555
C87_2 C82_2 1_555 1_555
C88_2 C85_2 1_555 1_555
C89_2 C78_2 1_555 1_555
C90_2 C89_2 1_555 1_555
C91_2 C90_2 1_555 1_555
Fe23_2 O21_2 1_555 1_555
H40_2 C71_2 1_555 1_555
H41_2 C72_2 1_555 1_555
H42_2 C74_2 1_555 1_555
H43_2 C75_2 1_555 1_555
H44_2 C77_2 1_555 1_555
H45_2 C79_2 1_555 1_555
H46_2 C81_2 1_555 1_555
H47_2 C83_2 1_555 1_555
H48_2 C84_2 1_555 1_555
H49_2 C86_2 1_555 1_555
H50_2 C87_2 1_555 1_555
H51_2 C90_2 1_555 1_555
H52_2 C91_2 1_555 1_555
O20_2 Fe10_2 1_555 1_555
O21_2 C69_2 1_555 1_555
O48 C88_2 1_555 1_555
O51 C88_2 1_555 1_555
C96_2 C98_2 1_555 1_555
C97_2 C98_2 1_555 1_555
C98_2 C99 1_555 1_555
C99 C100 1_555 1_555
C100 C101_2 1_555 1_555
C101_2 C102_2 1_555 1_555
C102_2 C97_2 1_555 1_555
C103_2 C105_2 1_555 1_555
C104 C105_2 1_555 1_555
C105_2 C106_2 1_555 1_555
C106_2 C107_2 1_555 1_555
C107_2 C108_2 1_555 1_555
C108_2 C101_2 1_555 1_555
C109 C104 1_555 1_555
H55 C99 1_555 1_555
H56_2 C102_2 1_555 1_555
H57_2 C106_2 1_555 1_555
H58 C109 1_555 1_555
H59_2 C97_2 1_555 1_555
H60 C104 1_555 1_555
H61 C100 1_555 1_555
H62_2 C107_2 1_555 1_555
O26_2 Fe2_2 1_555 1_555
O27_2 Fe3_2 1_555 1_555
O28_2 Fe23_2 1_555 1_555
O29_2 Fe10_2 1_555 1_555
H63_2 O30_2 1_555 1_555
O30_2 Fe23_2 1_555 1_555
Fe11_2 O31_2 1_555 1_555
Fe18_2 O10_2 1_555 1_555
O31_2 Fe18_2 1_555 1_555
C110_2 C111_2 1_555 1_555
C115_2 C116_2 1_555 1_555
C116_2 C111_2 1_555 1_555
Fe9_2 O11_2 1_555 1_555
H66_2 C115_2 1_555 1_555
H67_2 C116_2 1_555 1_555
O32_2 Fe11_2 1_555 1_555
O33_2 C110_2 1_555 1_555
C137_2 C139_2 1_555 1_555
C138_2 C139_2 1_555 1_555
C139_2 C140_2 1_555 1_555
C140_2 C141_2 1_555 1_555
C141_2 C142_2 1_555 1_555
C142_2 C143_2 1_555 1_555
C143_2 C138_2 1_555 1_555
C144_2 C146_2 1_555 1_555
C145_2 C146_2 1_555 1_555
C146_2 C147_2 1_555 1_555
C147_2 C148_2 1_555 1_555
C148_2 C149_2 1_555 1_555
C149_2 C142_2 1_555 1_555
C150_2 C145_2 1_555 1_555
H79_2 C140_2 1_555 1_555
H80_2 C143_2 1_555 1_555
H81_2 C147_2 1_555 1_555
H82_2 C150_2 1_555 1_555
H83_2 C138_2 1_555 1_555
H84_2 C145_2 1_555 1_555
H85_2 C141_2 1_555 1_555
H86_2 C148_2 1_555 1_555
O38_2 Fe16_2 1_555 1_555
O39_2 Fe23_2 1_555 1_555
O40_2 Fe9_2 1_555 1_555
O41_2 Fe11_2 1_555 1_555
H87_2 O42_2 1_555 1_555
O42_2 Fe9_2 1_555 1_555
O47_2 Fe11_2 1_555 1_555
O48_2 Fe1_2 1_555 1_555
O49_2 Fe10_2 1_555 1_555
O50_2 Fe18_2 1_555 1_555
O51_2 Fe2_2 1_555 1_555
O52_2 Fe16_2 1_555 1_555
O54_2 Fe9_2 1_555 1_555
O55_2 Fe3_2 1_555 1_555
O57_2 Fe18_2 1_555 1_555
O58_2 Fe2_2 1_555 1_555
Fe1_2 O3_2 1_555 1_555
Fe2_2 O2_2 1_555 1_555
C10_2 O4_2 1_555 1_555
C44_2 O12_2 1_555 1_555
C44_2 O13_2 1_555 1_555
C49_2 C50_2 1_555 1_555
C69_2 O20_2 1_555 1_555
C80_2 C81_2 1_555 1_555
C86_2 C87_2 1_555 1_555
C96_2 O26_2 1_555 1_555
C96_2 O27_2 1_555 1_555
C103_2 O28_2 1_555 1_555
C103_2 O29_2 1_555 1_555
C108_2 C109 1_555 1_555
O31_2 Fe9_2 1_555 1_555
C110_2 O32_2 1_555 1_555
Fe9_2 O33_2 1_555 1_555
C137_2 O38_2 1_555 1_555
C137_2 O39_2 1_555 1_555
C144_2 O40_2 1_555 1_555
C144_2 O41_2 1_555 1_555
C149_2 C150_2 1_555 1_555
O30_2 H88_2 1_555 1_555
O42_2 H89_2 1_555 1_555
O14_2 H90_2 1_555 1_555
C112_2 C113_2 1_555 1_555
C113_2 C114_2 1_555 1_555
C117_2 C114_2 1_555 1_555
C118_2 C117_2 1_555 1_555
C119_2 C118_2 1_555 1_555
C120_2 C119_2 1_555 1_555
C121_2 C120_2 1_555 1_555
C122_2 C117_2 1_555 1_555
C123_2 C121_2 1_555 1_555
C124_2 C123_2 1_555 1_555
C125_2 C124_2 1_555 1_555
C126_2 C125_2 1_555 1_555
C127_2 C126_2 1_555 1_555
C128_2 C123_2 1_555 1_555
C129_2 C126_2 1_555 1_555
C130_2 C119_2 1_555 1_555
C131_2 C130_2 1_555 1_555
C132_2 C131_2 1_555 1_555
C133_2 C132_2 1_555 1_555
C134_2 C133_2 1_555 1_555
C135_2 C130_2 1_555 1_555
C136_2 C133_2 1_555 1_555
H64_2 C112_2 1_555 1_555
H65_2 C113_2 1_555 1_555
H68_2 C118_2 1_555 1_555
H69_2 C120_2 1_555 1_555
H70_2 C122_2 1_555 1_555
H71_2 C124_2 1_555 1_555
H72_2 C125_2 1_555 1_555
H73_2 C127_2 1_555 1_555
H74_2 C128_2 1_555 1_555
H75_2 C131_2 1_555 1_555
H76_2 C132_2 1_555 1_555
H77_2 C134_2 1_555 1_555
H78_2 C135_2 1_555 1_555
O49 C129_2 1_555 1_555
O52 C129_2 1_555 1_555
O55_2 C136_2 1_555 1_555
O58_2 C136_2 1_555 1_555
C121_2 C122_2 1_555 1_555
C127_2 C128_2 1_555 1_555
C134_2 C135_2 1_555 1_555
C93_2 C92_2 1_555 1_555
C95_2 C92_2 1_555 1_555
H53_2 C93_2 1_555 1_555
H54_2 C94_2 1_555 1_555
O54_2 C95_2 1_555 1_555
O57_2 C95_2 1_555 1_555
C93_2 C94_2 1_555 1_555
C1_3 C2_3 1_555 1_555
C2_3 C3_3 1_555 1_555
C3_3 C4_3 1_555 1_555
C4_3 C5_3 1_555 1_555
C5_3 C6_3 1_555 1_555
C6_3 C7_3 1_555 1_555
C7_3 C2_3 1_555 1_555
C8_3 C5_3 1_555 1_555
C9_3 C8_3 1_555 1_555
H1_3 C3_3 1_555 1_555
H2_3 C4_3 1_555 1_555
H3_3 C6_3 1_555 1_555
H4_3 C7_3 1_555 1_555
H5_3 C9_3 1_555 1_555
O2_3 C1_3 1_555 1_555
O3_3 C1_3 1_555 1_555
C10_3 C11_3 1_555 1_555
C11_3 C12_3 1_555 1_555
C12_3 C13_3 1_555 1_555
C13_3 C14_3 1_555 1_555
C14_3 C15_3 1_555 1_555
C15_3 C16_3 1_555 1_555
C16_3 C11_3 1_555 1_555
C17_3 C14_3 1_555 1_555
C18_3 C17_3 1_555 1_555
C19_3 C18_3 1_555 1_555
C20_3 C19_3 1_555 1_555
C21_3 C20_3 1_555 1_555
C22_3 C17_3 1_555 1_555
C23_3 C21_3 1_555 1_555
C24_3 C23_3 1_555 1_555
C25_3 C24_3 1_555 1_555
C26_3 C25_3 1_555 1_555
C27_3 C26_3 1_555 1_555
C28_3 C23_3 1_555 1_555
C29_3 C26_3 1_555 1_555
C30_3 C19_3 1_555 1_555
C31_3 C30_3 1_555 1_555
C32_3 C31_3 1_555 1_555
C33_3 C32_3 1_555 1_555
C34_3 C33_3 1_555 1_555
C35_3 C30_3 1_555 1_555
C36_3 C33_3 1_555 1_555
H6_3 C12_3 1_555 1_555
H7_3 C13_3 1_555 1_555
H8_3 C15_3 1_555 1_555
H9_3 C16_3 1_555 1_555
H10_3 C18_3 1_555 1_555
H11_3 C20_3 1_555 1_555
H12_3 C22_3 1_555 1_555
H13_3 C24_3 1_555 1_555
H14_3 C25_3 1_555 1_555
H15_3 C27_3 1_555 1_555
H16_3 C28_3 1_555 1_555
H17_3 C31_3 1_555 1_555
H18_3 C32_3 1_555 1_555
H19_3 C34_3 1_555 1_555
H20_3 C35_3 1_555 1_555
O4_3 Fe12 1_555 1_555
O5_3 C10_3 1_555 1_555
O47_2 C29_3 1_555 1_555
O50_2 C29_3 1_555 1_555
O8_3 C36_3 1_555 1_555
O9_3 C36_3 1_555 1_555
C51_3 C52_3 1_555 1_555
C52_3 C53_3 1_555 1_555
C53_3 C54_3 1_555 1_555
C54_3 C55_3 1_555 1_555
C55_3 C56_3 1_555 1_555
C56_3 C57_3 1_555 1_555
C57_3 C52_3 1_555 1_555
C58_3 C55_3 1_555 1_555
C59_3 C8_3 1_555 1_555
H30_3 C53_3 1_555 1_555
H31_3 C54_3 1_555 1_555
H32_3 C56_3 1_555 1_555
H33_3 C57_3 1_555 1_555
H34_3 C59_3 1_555 1_555
O15_3 C51_3 1_555 1_555
O16_3 C51_3 1_555 1_555
C60_3 C61_3 1_555 1_555
C61_3 C62_3 1_555 1_555
C62_3 C63_3 1_555 1_555
C63_3 C64_3 1_555 1_555
C64_3 C65_3 1_555 1_555
C65_3 C66_3 1_555 1_555
C66_3 C61_3 1_555 1_555
C67_3 C9_3 1_555 1_555
C68_3 C58_3 1_555 1_555
H35_3 C62_3 1_555 1_555
H36_3 C63_3 1_555 1_555
H37_3 C65_3 1_555 1_555
H38_3 C66_3 1_555 1_555
H39_3 C68_3 1_555 1_555
O17_3 C60_3 1_555 1_555
O18_3 C60_3 1_555 1_555
Fe13 O16_3 1_555 1_555
Fe14 O18_3 1_555 1_555
Fe20 O9_3 1_555 1_555
Fe21 O17_3 1_555 1_555
O58_3 Fe19 1_555 1_555
Fe12 O3_3 1_555 1_555
Fe19 O2_3 1_555 1_555
C10_3 O4_3 1_555 1_555
C21_3 C22_3 1_555 1_555
C27_3 C28_3 1_555 1_555
C34_3 C35_3 1_555 1_555
C58_3 C59_3 1_555 1_555
O15_3 Fe20 1_555 1_555
C64_3 C67_3 1_555 1_555
C67_3 C68_3 1_555 1_555
O1_3 Fe3_3 1_555 1_555
C37_3 C39_3 1_555 1_555
C38_3 C39_3 1_555 1_555
C39_3 C40_3 1_555 1_555
C40_3 C41_3 1_555 1_555
C41_3 C42_3 1_555 1_555
C42_3 C43_3 1_555 1_555
C43_3 C38_3 1_555 1_555
C44_3 C46_3 1_555 1_555
C45_3 C46_3 1_555 1_555
C46_3 C47_3 1_555 1_555
C47_3 C48_3 1_555 1_555
C48_3 C49_3 1_555 1_555
C49_3 C42_3 1_555 1_555
C50_3 C45_3 1_555 1_555
H21_3 C40_3 1_555 1_555
H22_3 C43_3 1_555 1_555
H23_3 C47_3 1_555 1_555
H24_3 C50_3 1_555 1_555
H25_3 C38_3 1_555 1_555
H26_3 C45_3 1_555 1_555
H27_3 C41_3 1_555 1_555
H28_3 C48_3 1_555 1_555
O10_3 C37_3 1_555 1_555
O11_3 C37_3 1_555 1_555
O12_3 Fe3_3 1_555 1_555
H29_3 O14_3 1_555 1_555
O14_3 Fe3_3 1_555 1_555
O19_3 Fe23_3 1_555 1_555
C96_3 C98_3 1_555 1_555
C97_3 C98_3 1_555 1_555
C98_3 C99_2 1_555 1_555
C99_2 C100_2 1_555 1_555
C100_2 C101_3 1_555 1_555
C101_3 C102_3 1_555 1_555
C102_3 C97_3 1_555 1_555
C103_3 C105_3 1_555 1_555
C104_2 C105_3 1_555 1_555
C105_3 C106_3 1_555 1_555
C106_3 C107_3 1_555 1_555
C107_3 C108_3 1_555 1_555
C108_3 C101_3 1_555 1_555
C109_2 C104_2 1_555 1_555
H55_2 C99_2 1_555 1_555
H56_3 C102_3 1_555 1_555
H57_3 C106_3 1_555 1_555
H58_2 C109_2 1_555 1_555
H59_3 C97_3 1_555 1_555
H60_2 C104_2 1_555 1_555
H61_2 C100_2 1_555 1_555
H62_3 C107_3 1_555 1_555
O27_3 Fe3_3 1_555 1_555
O28_3 Fe23_3 1_555 1_555
H63_3 O30_3 1_555 1_555
O30_3 Fe23_3 1_555 1_555
Fe14 O31_3 1_555 1_555
Fe21 O10_3 1_555 1_555
O31_3 Fe21 1_555 1_555
C110_3 C111_3 1_555 1_555
C111_3 C112_3 1_555 1_555
C112_3 C113_3 1_555 1_555
C113_3 C114_3 1_555 1_555
C114_3 C115_3 1_555 1_555
C115_3 C116_3 1_555 1_555
C116_3 C111_3 1_555 1_555
C117_3 C114_3 1_555 1_555
C118_3 C117_3 1_555 1_555
C119_3 C118_3 1_555 1_555
C120_3 C119_3 1_555 1_555
C121_3 C120_3 1_555 1_555
C122_3 C117_3 1_555 1_555
C123_3 C121_3 1_555 1_555
C124_3 C123_3 1_555 1_555
C125_3 C124_3 1_555 1_555
C126_3 C125_3 1_555 1_555
C127_3 C126_3 1_555 1_555
C128_3 C123_3 1_555 1_555
C129_3 C126_3 1_555 1_555
C130_3 C119_3 1_555 1_555
C131_3 C130_3 1_555 1_555
C132_3 C131_3 1_555 1_555
C133_3 C132_3 1_555 1_555
C134_3 C133_3 1_555 1_555
C135_3 C130_3 1_555 1_555
C136_3 C133_3 1_555 1_555
Fe9_3 O11_3 1_555 1_555
H64_3 C112_3 1_555 1_555
H65_3 C113_3 1_555 1_555
H66_3 C115_3 1_555 1_555
H67_3 C116_3 1_555 1_555
H68_3 C118_3 1_555 1_555
H69_3 C120_3 1_555 1_555
H70_3 C122_3 1_555 1_555
H71_3 C124_3 1_555 1_555
H72_3 C125_3 1_555 1_555
H73_3 C127_3 1_555 1_555
H74_3 C128_3 1_555 1_555
H75_3 C131_3 1_555 1_555
H76_3 C132_3 1_555 1_555
H77_3 C134_3 1_555 1_555
H78_3 C135_3 1_555 1_555
O32_3 Fe14 1_555 1_555
O33_3 C110_3 1_555 1_555
O49_2 C129_3 1_555 1_555
O52_2 C129_3 1_555 1_555
O55_3 C136_3 1_555 1_555
O58_3 C136_3 1_555 1_555
C137_3 C139_3 1_555 1_555
C138_3 C139_3 1_555 1_555
C139_3 C140_3 1_555 1_555
C140_3 C141_3 1_555 1_555
C141_3 C142_3 1_555 1_555
C142_3 C143_3 1_555 1_555
C143_3 C138_3 1_555 1_555
C144_3 C146_3 1_555 1_555
C145_3 C146_3 1_555 1_555
C146_3 C147_3 1_555 1_555
C147_3 C148_3 1_555 1_555
C148_3 C149_3 1_555 1_555
C149_3 C142_3 1_555 1_555
C150_3 C145_3 1_555 1_555
H79_3 C140_3 1_555 1_555
H80_3 C143_3 1_555 1_555
H81_3 C147_3 1_555 1_555
H82_3 C150_3 1_555 1_555
H83_3 C138_3 1_555 1_555
H84_3 C145_3 1_555 1_555
H85_3 C141_3 1_555 1_555
H86_3 C148_3 1_555 1_555
O39_3 Fe23_3 1_555 1_555
O40_3 Fe9_3 1_555 1_555
O41_3 Fe14 1_555 1_555
H87_3 O42_3 1_555 1_555
O42_3 Fe9_3 1_555 1_555
O54_3 Fe9_3 1_555 1_555
O57_3 Fe21 1_555 1_555
C44_3 O12_3 1_555 1_555
C44_3 O13_3 1_555 1_555
C49_3 C50_3 1_555 1_555
C96_3 O26_3 1_555 1_555
C96_3 O27_3 1_555 1_555
C103_3 O28_3 1_555 1_555
C103_3 O29_3 1_555 1_555
C108_3 C109_2 1_555 1_555
O31_3 Fe9_3 1_555 1_555
C110_3 O32_3 1_555 1_555
C121_3 C122_3 1_555 1_555
C127_3 C128_3 1_555 1_555
C134_3 C135_3 1_555 1_555
Fe9_3 O33_3 1_555 1_555
C137_3 O38_3 1_555 1_555
C137_3 O39_3 1_555 1_555
C144_3 O40_3 1_555 1_555
C144_3 O41_3 1_555 1_555
C149_3 C150_3 1_555 1_555
O30_3 H88_3 1_555 1_555
O42_3 H89_3 1_555 1_555
O14_3 H90_3 1_555 1_555
C69_3 C70_3 1_555 1_555
C70_3 C71_3 1_555 1_555
C71_3 C72_3 1_555 1_555
C72_3 C73_3 1_555 1_555
C73_3 C74_3 1_555 1_555
C74_3 C75_3 1_555 1_555
C75_3 C70_3 1_555 1_555
C76_3 C73_3 1_555 1_555
C77_3 C76_3 1_555 1_555
C78_3 C77_3 1_555 1_555
C79_3 C78_3 1_555 1_555
C80_3 C79_3 1_555 1_555
C81_3 C76_3 1_555 1_555
C82_3 C80_3 1_555 1_555
C83_3 C82_3 1_555 1_555
C84_3 C83_3 1_555 1_555
C85_3 C84_3 1_555 1_555
C86_3 C85_3 1_555 1_555
C87_3 C82_3 1_555 1_555
C88_3 C85_3 1_555 1_555
C89_3 C78_3 1_555 1_555
C90_3 C89_3 1_555 1_555
C91_3 C90_3 1_555 1_555
C92_3 C91_3 1_555 1_555
C93_3 C92_3 1_555 1_555
C94_3 C89_3 1_555 1_555
C95_3 C92_3 1_555 1_555
H40_3 C71_3 1_555 1_555
H41_3 C72_3 1_555 1_555
H42_3 C74_3 1_555 1_555
H43_3 C75_3 1_555 1_555
H44_3 C77_3 1_555 1_555
H45_3 C79_3 1_555 1_555
H46_3 C81_3 1_555 1_555
H47_3 C83_3 1_555 1_555
H48_3 C84_3 1_555 1_555
H49_3 C86_3 1_555 1_555
H50_3 C87_3 1_555 1_555
H51_3 C90_3 1_555 1_555
H52_3 C91_3 1_555 1_555
H53_3 C93_3 1_555 1_555
H54_3 C94_3 1_555 1_555
O20_3 Fe13 1_555 1_555
O21_3 C69_3 1_555 1_555
O48_2 C88_3 1_555 1_555
O51_2 C88_3 1_555 1_555
O54_3 C95_3 1_555 1_555
O57_3 C95_3 1_555 1_555
C69_3 O20_3 1_555 1_555
C80_3 C81_3 1_555 1_555
C86_3 C87_3 1_555 1_555
C93_3 C94_3 1_555 1_555
C99_3 C100_3 1_555 1_555
C109_3 C104_3 1_555 1_555
H55_3 C99_3 1_555 1_555
H58_3 C109_3 1_555 1_555
H60_3 C104_3 1_555 1_555
H61_3 C100_3 1_555 1_555

#END
