
###############################################################################
#
# This file contains modified crystal structure data generated from the
# MOF subset of the Cambridge Structural Database (CSD) v543 
# hosted by the Cambridge Crystallographic Data Centre (CCDC).
#
# This work is licensed under the Creative Commons
# Attribution-NonCommercial-ShareAlike 4.0 International License.
# To view a copy of this license, visit
# http://creativecommons.org/licenses/by-nc-sa/4.0/
# or send a letter to
# Creative Commons, PO Box 1866, Mountain View, CA 94042, USA.
#
# CIF created using the CSD Python API on 29 September 2022
# The structure has been converted into the P1 space group
# The structure has a 3D framework
# The original CSD entry HAJJEL is in the rhombohedral crystal system
# The original CSD entry HAJJEL is in a Sohncke space group
# The framework has been calculated to contain at least 10.0% void space
# The void calculation uses a probe of radius 1.32A, grid spacing 0.4
# H atom positions have been added when not included in the experimental data
#
###############################################################################

data_HAJJEL
_chemical_formula_moiety         '(C450 H270 Fe27 N18 O124)n'
_symmetry_cell_setting           triclinic
_symmetry_space_group_name_H-M   'P 1'
_symmetry_Int_Tables_number      1
_space_group_name_Hall           'P 1'
loop_
_symmetry_equiv_pos_site_id
_symmetry_equiv_pos_as_xyz
1 x,y,z
_cell_length_a                   32.2658
_cell_length_b                   32.2658
_cell_length_c                   45.8488
_cell_angle_alpha                90
_cell_angle_beta                 90
_cell_angle_gamma                120
_cell_volume                     41337.4
loop_
_atom_site_label
_atom_site_type_symbol
_atom_site_fract_x
_atom_site_fract_y
_atom_site_fract_z
O1 O 0.0917 0.2684 0.0163
O5 O 0.274 0.3962 0.0076
C42 C 0.203 0.4189 0.0436
C43 C 0.2237 0.4691 0.0497
C44 C 0.2105 0.4965 0.0333
C45 C 0.2359 0.545 0.0356
C46 C 0.2747 0.5667 0.0544
C47 C 0.2861 0.5391 0.0719
C48 C 0.2609 0.4909 0.0696
C49 C 0.3046 0.618 0.0547
C50 C 0.285 0.6468 0.0547
Fe2 Fe 0.2347 0.3522 0.0357
Fe3 Fe 0.1288 0.3328 0.023
H24 H 0.1822 0.4807 0.0176
H25 H 0.2264 0.5654 0.0217
H26 H 0.3151 0.5549 0.087
H27 H 0.2717 0.4707 0.0827
H28 H 0.2476 0.6313 0.0545
O11 O 0.1826 0.3314 0.0101
O12 O 0.165 0.3974 0.0295
O13 O 0.2253 0.3992 0.0522
C51 C 0.5811 0.7841 0.0436
C52 C 0.5309 0.7546 0.0497
C53 C 0.5035 0.7140 0.0333
C54 C 0.455 0.6909 0.0356
C55 C 0.4333 0.7080 0.0544
C56 C 0.4609 0.7470 0.0719
C57 C 0.5091 0.7700 0.0696
C58 C 0.382 0.6866 0.0547
C59 C 0.3532 0.6382 0.0547
H30 H 0.5193 0.7015 0.0176
H31 H 0.4346 0.6610 0.0217
H32 H 0.4451 0.7602 0.087
H33 H 0.5293 0.8010 0.0827
H34 H 0.3687 0.6163 0.0545
O15 O 0.6026 0.7676 0.0295
O16 O 0.6008 0.8261 0.0522
C60 C 0.2159 0.797 0.0436
C61 C 0.2454 0.7763 0.0497
C62 C 0.2860 0.7895 0.0333
C63 C 0.3091 0.7641 0.0356
C64 C 0.2920 0.7253 0.0544
C65 C 0.2530 0.7139 0.0719
C66 C 0.2300 0.7391 0.0696
C67 C 0.3134 0.6954 0.0547
C68 C 0.3618 0.715 0.0547
H35 H 0.2985 0.8178 0.0176
H36 H 0.3390 0.7736 0.0217
H37 H 0.2398 0.6849 0.087
H38 H 0.1990 0.7283 0.0827
H39 H 0.3837 0.7524 0.0545
O17 O 0.2324 0.835 0.0295
O18 O 0.1739 0.7747 0.0522
O46 O 0.2492 0.3073 0.0215
O48 O 0.1974 0.3093 0.0648
O51 O 0.1364 0.3199 0.0626
Fe15 Fe 0.6478 0.8825 0.0357
Fe17 Fe 0.1175 0.7653 0.0357
Fe22 Fe 0.6672 0.7960 0.023
Fe23 Fe 0.2040 0.8712 0.023
C1 C 0.0907 0.2466 0.993
C2 C 0.0628 0.1673 0.9733
C3 C 0.0532 0.1982 0.9886
C4 C 0.0078 0.1828 0.9987
C7 C 0.0278 0.1217 0.9681
C15 C 0.277 0.391 0.9802
C16 C 0.315 0.4285 0.963
C17 C 0.3582 0.4588 0.9757
C18 C 0.3938 0.4934 0.9586
C19 C 0.3864 0.499 0.9287
C20 C 0.3425 0.4693 0.9164
C21 C 0.3075 0.4342 0.9332
C22 C 0.4241 0.5348 0.9099
C23 C 0.4573 0.5779 0.9217
C24 C 0.4931 0.6114 0.9041
C25 C 0.4947 0.6023 0.874
C26 C 0.4622 0.5592 0.8618
C27 C 0.4275 0.5257 0.88
C28 C 0.4659 0.5477 0.8305
C29 C 0.4259 0.5187 0.8138
C30 C 0.4297 0.5052 0.7852
C31 C 0.4735 0.521 0.7724
C32 C 0.5134 0.5509 0.7888
C33 C 0.5097 0.5638 0.8175
C34 C 0.4784 0.5061 0.7426
C35 C 0.5308 0.6541 0.9178
C36 C 0.5519 0.6504 0.9436
C37 C 0.5868 0.6899 0.9573
C38 C 0.6015 0.7344 0.9458
C39 C 0.5809 0.7382 0.9196
C40 C 0.5461 0.6983 0.9056
C41 C 0.6352 0.7758 0.9627
Fe1 Fe 0.1846 0.3109 0.9712
H3 H 0.0356 0.098 0.9564
H7 H 0.3648 0.455 0.9987
H8 H 0.4273 0.5152 0.9688
H9 H 0.3349 0.4733 0.8937
H10 H 0.2741 0.412 0.923
H11 H 0.4554 0.5856 0.9447
H12 H 0.5221 0.6285 0.8604
H13 H 0.404 0.4916 0.8712
H14 H 0.3916 0.5064 0.8229
H15 H 0.3984 0.4825 0.7731
H16 H 0.5477 0.5634 0.7796
H17 H 0.5413 0.5852 0.8297
H18 H 0.5413 0.6167 0.9532
H19 H 0.6016 0.6855 0.9775
H20 H 0.5911 0.772 0.9103
H21 H 0.5303 0.7019 0.8856
H22 H 0.0976 0.1783 0.9654
O2 O 0.1208 0.2647 0.9725
O6 O 0.2482 0.3548 0.9663
O7 O 0.4453 0.4693 0.7315
O8 O 0.5169 0.5303 0.7293
O9 O 0.6441 0.8161 0.9551
O10 O 0.6541 0.7693 0.985
H29 H 0.1668 0.3093 0.932333
O14 O 0.186000 0.290000 0.9323
Fe12 Fe 0.6891 0.8737 0.9712
O44 O 0.1982 0.2661 0.9862
O54 O 0.1720 0.3559 0.9551
O56 O 0.1152 0.3459 0.985
Fe20 Fe 0.4508 0.4320 0.7024
Fe26 Fe 0.5373 0.5379 0.689667
H88 H 0.167772 0.255116 0.928206
C76 C 0.0428 0.7711 0.005
O22 O 0.0581 0.7508 0.0215
H43 H 0.0014 0.8211 0.9891
O21 O 0.0679 0.8018 0.9862
Fe13 Fe 0.1263 0.8154 0.9712
C9 C 0.7538 0.038 0.0221
C10 C 0.7646 0.0066 0.0084
C12 C 0.8453 0.0684 0.0045
C13 C 0.8338 0.0993 0.0182
C14 C 0.7882 0.084 0.0267
H1 H 0.9998 0.2064 0.0103
H5 H 0.8601 0.135 0.0222
H6 H 0.7795 0.1079 0.0373
H23 H 0.7187 0.0269 0.0292
N1 N 0.9258 0.1231 0.0017
C117 C 0.2289 0.2717 0.005
C118 C 0.2842 0.2462 0.0221
C119 C 0.2420 0.2354 0.0084
C121 C 0.2231 0.1547 0.0045
C122 C 0.2655 0.1662 0.0182
C123 C 0.2958 0.2118 0.0267
H64 H 0.2066 0.0002 0.0103
H68 H 0.2749 0.1399 0.0222
H69 H 0.3284 0.2205 0.0373
H86 H 0.3082 0.2813 0.0292
N5 N 0.1973 0.0742 0.0017
C5 C 0.9723 0.1372 0.9928
C6 C 0.9827 0.1066 0.9777
C11 C 0.8105 0.0223 0.9994
H2 H 0.9559 0.0713 0.973
N2 N 0.892 0.0827 0.9961
C114 C 0.1649 0.0277 0.9928
C115 C 0.1239 0.0173 0.9777
C120 C 0.2118 0.1895 0.9994
H65 H 0.1154 0.0441 0.973
H67 H 0.1789 0.1803 0.9891
N6 N 0.1907 0.108 0.9961
Fe18 Fe 0.5680 0.0189 0.7024
C8 C 0.7283 0.9572 0.005
O4 O 0.6927 0.9419 0.0215
C77 C 0.962 0.7158 0.0221
C78 C 0.9934 0.7580 0.0084
C80 C 0.9316 0.7769 0.0045
C81 C 0.9007 0.7345 0.0182
C82 C 0.916 0.7042 0.0267
H40 H 0.7936 0.7934 0.0103
H44 H 0.865 0.7251 0.0222
H45 H 0.8921 0.6716 0.0373
H62 H 0.9731 0.6918 0.0292
N3 N 0.8769 0.8027 0.0017
O19 O 0.7316 0.8233 0.0163
O23 O 0.6038 0.8778 0.0076
O29 O 0.6686 0.8512 0.0101
O31 O 0.1767 0.9083 0.0163
O35 O 0.1222 0.726 0.0076
O41 O 0.1488 0.8174 0.0101
O47 O 0.1120 0.8026 0.0648
O49 O 0.6907 0.8880 0.0648
O50 O 0.1836 0.8636 0.0626
O52 O 0.6801 0.8164 0.0626
H4 H 0.8197 0.9986 0.9891
O3 O 0.7339 0.9321 0.9862
C69 C 0.7534 0.8441 0.993
C70 C 0.8327 0.8955 0.9733
C71 C 0.8018 0.8550 0.9886
C72 C 0.8172 0.8250 0.9987
C73 C 0.8628 0.8351 0.9928
C74 C 0.8934 0.8761 0.9777
C75 C 0.8783 0.9061 0.9681
C79 C 0.9777 0.7882 0.9994
C83 C 0.609 0.886 0.9802
C84 C 0.5715 0.8865 0.963
C85 C 0.5412 0.8994 0.9757
C86 C 0.5066 0.9004 0.9586
C87 C 0.501 0.8874 0.9287
C88 C 0.5307 0.8732 0.9164
C89 C 0.5658 0.8733 0.9332
C90 C 0.4652 0.8893 0.9099
C91 C 0.4221 0.8794 0.9217
C92 C 0.3886 0.8817 0.9041
C93 C 0.3977 0.8924 0.874
C94 C 0.4408 0.9030 0.8618
C95 C 0.4743 0.9018 0.88
C96 C 0.4523 0.9182 0.8305
C97 C 0.4813 0.9072 0.8138
C98 C 0.4948 0.9245 0.7852
C99 C 0.479 0.9525 0.7724
C100 C 0.4491 0.9625 0.7888
C101 C 0.4362 0.9459 0.8175
C102 C 0.4939 0.9723 0.7426
C103 C 0.3459 0.8767 0.9178
C104 C 0.3496 0.9015 0.9436
C105 C 0.3101 0.8969 0.9573
C106 C 0.2656 0.8671 0.9458
C107 C 0.2618 0.8427 0.9196
C108 C 0.3017 0.8478 0.9056
C109 C 0.2242 0.8594 0.9627
H41 H 0.9287 0.8846 0.973
H42 H 0.902 0.9376 0.9564
H46 H 0.545 0.9098 0.9987
H47 H 0.4848 0.9121 0.9688
H48 H 0.5267 0.8616 0.8937
H49 H 0.588 0.8621 0.923
H50 H 0.4144 0.8698 0.9447
H51 H 0.3715 0.8936 0.8604
H52 H 0.5084 0.9124 0.8712
H53 H 0.4936 0.8852 0.8229
H54 H 0.5175 0.9159 0.7731
H55 H 0.4366 0.9843 0.7796
H56 H 0.4148 0.9561 0.8297
H57 H 0.3833 0.9246 0.9532
H58 H 0.3145 0.9161 0.9775
H59 H 0.228 0.8191 0.9103
H60 H 0.2981 0.8284 0.8856
H61 H 0.8217 0.9193 0.9654
N4 N 0.9173 0.8093 0.9961
O20 O 0.7353 0.8561 0.9725
O24 O 0.6452 0.8934 0.9663
O25 O 0.5307 0.9760 0.7315
O26 O 0.4697 0.9866 0.7293
O27 O 0.1839 0.8280 0.9551
O28 O 0.2307 0.8848 0.985
H63 H 0.6907 0.8575 0.932333
O30 O 0.710000 0.896000 0.9323
C110 C 0.1559 0.9093 0.993
C111 C 0.1045 0.9372 0.9733
C112 C 0.1450 0.9468 0.9886
C113 C 0.1750 0.9922 0.9987
C116 C 0.0939 0.9722 0.9681
C124 C 0.114 0.723 0.9802
C125 C 0.1135 0.685 0.963
C126 C 0.1006 0.6418 0.9757
C127 C 0.0996 0.6062 0.9586
C128 C 0.1126 0.6136 0.9287
C129 C 0.1268 0.6575 0.9164
C130 C 0.1267 0.6925 0.9332
C131 C 0.1107 0.5759 0.9099
C132 C 0.1206 0.5427 0.9217
C133 C 0.1183 0.5069 0.9041
C134 C 0.1076 0.5053 0.874
C135 C 0.0970 0.5378 0.8618
C136 C 0.0982 0.5725 0.88
C137 C 0.0818 0.5341 0.8305
C138 C 0.0928 0.5741 0.8138
C139 C 0.0755 0.5703 0.7852
C140 C 0.0475 0.5265 0.7724
C141 C 0.0375 0.4866 0.7888
C142 C 0.0541 0.4903 0.8175
C143 C 0.0277 0.5216 0.7426
C144 C 0.1233 0.4692 0.9178
C145 C 0.0985 0.4481 0.9436
C146 C 0.1031 0.4132 0.9573
C147 C 0.1329 0.3985 0.9458
C148 C 0.1573 0.4191 0.9196
C149 C 0.1522 0.4539 0.9056
C150 C 0.1406 0.3648 0.9627
H66 H 0.0624 0.9644 0.9564
H70 H 0.0902 0.6352 0.9987
H71 H 0.0879 0.5727 0.9688
H72 H 0.1384 0.6651 0.8937
H73 H 0.1379 0.7259 0.923
H74 H 0.1302 0.5446 0.9447
H75 H 0.1064 0.4779 0.8604
H76 H 0.0876 0.596 0.8712
H77 H 0.1148 0.6084 0.8229
H78 H 0.0841 0.6016 0.7731
H79 H 0.0157 0.4523 0.7796
H80 H 0.0439 0.4587 0.8297
H81 H 0.0754 0.4587 0.9532
H82 H 0.0839 0.3984 0.9775
H83 H 0.1809 0.4089 0.9103
H84 H 0.1716 0.4697 0.8856
H85 H 0.0807 0.9024 0.9654
O32 O 0.1439 0.8792 0.9725
O36 O 0.1066 0.7518 0.9663
O37 O 0.0240 0.5547 0.7315
O38 O 0.0134 0.4831 0.7293
H87 H 0.1425 0.8332 0.932333
O42 O 0.104000 0.814000 0.9323
Fe24 Fe 0.4621 0.9995 0.689667
Fe25 Fe 0.0005 0.4627 0.689667
H89 H 0.744884 0.912656 0.928206
H90 H 0.0873437 0.832228 0.928206
Fe19 Fe 0.9811 0.5492 0.7024
C37_2 C 0.2535 0.0232 0.2906
C38_2 C 0.2682 0.0677 0.2791
C39_2 C 0.2476 0.0715 0.2529
C40_2 C 0.2128 0.0316 0.2389
C41_2 C 0.3019 0.1091 0.2960
H19_2 H 0.2683 0.0188 0.3108
H20_2 H 0.2578 0.105333 0.2436
H21_2 H 0.1970 0.0352 0.2189
O9_2 O 0.3108 0.1494 0.2884
O10_2 O 0.3208 0.1026 0.318333
C51_2 C 0.2478 0.1174 0.3769
C52_2 C 0.1976 0.0879 0.3830
C53_2 C 0.1702 0.0473 0.3666
C54_2 C 0.121667 0.0242 0.3689
C55_2 C 0.1000 0.0413 0.3877
C56_2 C 0.1276 0.0803 0.4052
C57_2 C 0.1758 0.1033 0.4029
C58_2 C 0.048667 0.0199 0.3880
H30_2 H 0.1860 0.0348 0.3509
H32_2 H 0.1118 0.0935 0.420333
H33_2 H 0.1960 0.1343 0.4160
O15_2 O 0.2693 0.1009 0.3628
O16_2 O 0.2675 0.1594 0.3855
C68_2 C 0.0285 0.048333 0.3880
H36_2 H 0.0057 0.1069 0.3550
H39_2 H 0.0504 0.0857 0.3878
Fe12_2 Fe 0.3558 0.2070 0.3045
Fe15_2 Fe 0.3145 0.2158 0.3690
Fe22_2 Fe 0.3339 0.1293 0.356333
C17_2 C 0.0249 0.7921 0.3090
C18_2 C 0.0605 0.8267 0.2919
C19_2 C 0.0531 0.832333 0.2620
C20_2 C 0.0092 0.8026 0.2497
C22_2 C 0.0908 0.8681 0.2432
C23_2 C 0.1240 0.9112 0.2550
C24_2 C 0.1598 0.9447 0.2374
C25_2 C 0.1614 0.9356 0.207333
C26_2 C 0.1289 0.8925 0.1951
C27_2 C 0.0942 0.8590 0.213333
C28_2 C 0.1326 0.8810 0.1638
C29_2 C 0.0926 0.8520 0.1471
C30_2 C 0.0964 0.8385 0.1185
C31_2 C 0.1402 0.854333 0.1057
C32_2 C 0.1801 0.8842 0.1221
C33_2 C 0.1764 0.8971 0.1508
C34_2 C 0.1451 0.8394 0.0759
C35_2 C 0.1975 0.9874 0.2511
C36_2 C 0.2186 0.9837 0.2769
H7_2 H 0.0315 0.788333 0.3320
H8_2 H 0.0940 0.8485 0.3021
H9_2 H 0.0016 0.8066 0.2270
H11_2 H 0.1221 0.9189 0.2780
H12_2 H 0.1888 0.9618 0.1937
H13_2 H 0.070667 0.8249 0.2045
H14_2 H 0.0583 0.8397 0.1562
H15_2 H 0.0651 0.8158 0.1064
H16_2 H 0.2144 0.8967 0.1129
H17_2 H 0.2080 0.9185 0.1630
H18_2 H 0.2080 0.9500 0.2865
C59_2 C 0.0199 0.9715 0.3880
H31_2 H 0.1013 0.9943 0.3550
H34_2 H 0.0354 0.9496 0.3878
C60_2 C 0.8826 0.130333 0.3769
C61_2 C 0.9121 0.1096 0.3830
C62_2 C 0.9527 0.1228 0.3666
C63_2 C 0.9758 0.0974 0.3689
C64_2 C 0.9587 0.0586 0.3877
C65_2 C 0.9197 0.0472 0.4052
C66_2 C 0.8967 0.0724 0.4029
C67_2 C 0.9801 0.0287 0.3880
H35_2 H 0.9652 0.1511 0.3509
H37_2 H 0.9065 0.0182 0.420333
H38_2 H 0.8657 0.0616 0.4160
O17_2 O 0.8991 0.168333 0.3628
O18_2 O 0.8406 0.1080 0.3855
Fe17_2 Fe 0.7842 0.0986 0.3690
Fe23_2 Fe 0.8707 0.2045 0.356333
C1_2 C 0.7574 0.5799 0.326333
C2_2 C 0.7295 0.5006 0.3066
C3_2 C 0.7199 0.5315 0.3219
C4_2 C 0.6745 0.5161 0.3320
C5_2 C 0.6390 0.4705 0.3261
C6_2 C 0.6494 0.4399 0.3110
C7_2 C 0.6945 0.4550 0.3014
C8_2 C 0.3950 0.2905 0.338333
C9_2 C 0.4205 0.371333 0.3554
C10_2 C 0.4313 0.3399 0.3417
C11_2 C 0.4772 0.3556 0.3327
C12_2 C 0.5120 0.4017 0.3378
C13_2 C 0.5005 0.4326 0.3515
C14_2 C 0.4549 0.417333 0.3600
C15_2 C 0.943667 0.724333 0.3135
C16_2 C 0.981667 0.7618 0.296333
C21_2 C 0.9742 0.7675 0.2665
Fe1_2 Fe 0.8513 0.6442 0.3045
H1_2 H 0.6665 0.5397 0.3436
H2_2 H 0.6226 0.4046 0.306333
H3_2 H 0.7023 0.431333 0.2897
H4_2 H 0.4864 0.3319 0.3224
H5_2 H 0.5268 0.468333 0.3555
H6_2 H 0.4462 0.4412 0.3706
H10_2 H 0.9408 0.745333 0.256333
H22_2 H 0.7643 0.5116 0.2987
H23_2 H 0.3854 0.3602 0.3625
N1_2 N 0.5925 0.4564 0.3350
N2_2 N 0.558667 0.4160 0.3294
O1_2 O 0.7584 0.6017 0.3496
O2_2 O 0.7875 0.5980 0.3058
O3_2 O 0.4006 0.2654 0.3195
O4_2 O 0.3594 0.2752 0.3548
O5_2 O 0.940667 0.7295 0.3409
O6_2 O 0.9149 0.6881 0.2996
C42_2 C 0.869667 0.7522 0.3769
C43_2 C 0.8904 0.8024 0.3830
C44_2 C 0.8772 0.8298 0.3666
C45_2 C 0.9026 0.878333 0.3689
C46_2 C 0.9414 0.9000 0.3877
C47_2 C 0.9528 0.8724 0.4052
C48_2 C 0.9276 0.8242 0.4029
C49_2 C 0.9713 0.951333 0.3880
C50_2 C 0.951667 0.9801 0.3880
Fe2_2 Fe 0.9014 0.6855 0.3690
Fe3_2 Fe 0.7955 0.6661 0.356333
H24_2 H 0.8489 0.8140 0.3509
H25_2 H 0.8931 0.8987 0.3550
H26_2 H 0.9818 0.8882 0.420333
H27_2 H 0.9384 0.8040 0.4160
H28_2 H 0.9143 0.9646 0.3878
O11_2 O 0.8493 0.6647 0.3434
O12_2 O 0.831667 0.7307 0.3628
O13_2 O 0.8920 0.7325 0.3855
H29_2 H 0.8335 0.6426 0.265666
O14_2 O 0.852667 0.623333 0.2656
C69_2 C 0.4201 0.1774 0.326333
C70_2 C 0.4994 0.2288 0.3066
C71_2 C 0.4685 0.1883 0.3219
C72_2 C 0.4839 0.1583 0.3320
C73_2 C 0.5295 0.1684 0.3261
C74_2 C 0.5601 0.2094 0.3110
C75_2 C 0.5450 0.2394 0.3014
C76_2 C 0.7095 0.1044 0.338333
C77_2 C 0.628667 0.0491 0.3554
C78_2 C 0.6601 0.0913 0.3417
C79_2 C 0.6444 0.1215 0.3327
C80_2 C 0.5983 0.1102 0.3378
C81_2 C 0.5674 0.0678 0.3515
C82_2 C 0.582667 0.0375 0.3600
C83_2 C 0.275667 0.219333 0.3135
C84_2 C 0.2382 0.2198 0.296333
C85_2 C 0.2079 0.2327 0.3090
C86_2 C 0.1733 0.2337 0.2919
C87_2 C 0.167667 0.2207 0.2620
C88_2 C 0.1974 0.2065 0.2497
C89_2 C 0.2325 0.2066 0.2665
C90_2 C 0.1319 0.2226 0.2432
C91_2 C 0.0888 0.2127 0.2550
C92_2 C 0.0553 0.2150 0.2374
C93_2 C 0.0644 0.2257 0.207333
C94_2 C 0.1075 0.2363 0.1951
C95_2 C 0.1410 0.2351 0.213333
C96_2 C 0.1190 0.2515 0.1638
C97_2 C 0.1480 0.2405 0.1471
C98_2 C 0.1615 0.2578 0.1185
C99_2 C 0.145667 0.2858 0.1057
C100_2 C 0.1158 0.2958 0.1221
C101_2 C 0.1029 0.2792 0.1508
C102_2 C 0.1606 0.3056 0.0759
C103_2 C 0.0126 0.2100 0.2511
C104_2 C 0.0163 0.2348 0.2769
H40_2 H 0.4603 0.1267 0.3436
H41_2 H 0.5954 0.2179 0.306333
H42_2 H 0.568667 0.2709 0.2897
H43_2 H 0.6681 0.1544 0.3224
H44_2 H 0.531667 0.0584 0.3555
H45_2 H 0.5588 0.0049 0.3706
H46_2 H 0.211667 0.2431 0.3320
H47_2 H 0.1515 0.2454 0.3021
H48_2 H 0.1934 0.1949 0.2270
H49_2 H 0.254667 0.1954 0.256333
H50_2 H 0.0811 0.2031 0.2780
H51_2 H 0.0382 0.2269 0.1937
H52_2 H 0.1751 0.2457 0.2045
H53_2 H 0.1603 0.2185 0.1562
H54_2 H 0.1842 0.2492 0.1064
H55_2 H 0.1033 0.3176 0.1129
H56_2 H 0.0815 0.2894 0.1630
H57_2 H 0.0500 0.2579 0.2865
H61_2 H 0.4884 0.2526 0.2987
H62_2 H 0.6398 0.0251 0.3625
N3_2 N 0.5436 0.1360 0.3350
N4_2 N 0.5840 0.1426 0.3294
O19_2 O 0.3983 0.1566 0.3496
O20_2 O 0.4020 0.1894 0.3058
O21_2 O 0.7346 0.1351 0.3195
O22_2 O 0.7248 0.0841 0.3548
O23_2 O 0.2705 0.2111 0.3409
O24_2 O 0.3119 0.2267 0.2996
O29_2 O 0.3353 0.1845 0.3434
H63_2 H 0.3574 0.1908 0.265666
O30_2 O 0.376667 0.229333 0.2656
Fe13_2 Fe 0.7930 0.1487 0.3045
O44_2 O 0.8649 0.5994 0.3195
O46_2 O 0.9159 0.6406 0.3548
O48_2 O 0.8640 0.6427 0.3982
O49_2 O 0.3573 0.2214 0.3982
O51_2 O 0.8030 0.6533 0.3960
O52_2 O 0.3467 0.1498 0.3960
O54_2 O 0.8387 0.6892 0.2884
O56_2 O 0.7819 0.6792 0.318333
H88_2 H 0.834439 0.588449 0.261539
H89_2 H 0.411551 0.24599 0.261539
C105_2 C 0.9768 0.2302 0.2906
C106_2 C 0.9323 0.2004 0.2791
C107_2 C 0.9285 0.1760 0.2529
C108_2 C 0.9684 0.1811 0.2389
C109_2 C 0.8909 0.1927 0.2960
H58_2 H 0.9812 0.2494 0.3108
H59_2 H 0.894667 0.1524 0.2436
H60_2 H 0.9648 0.1617 0.2189
O27_2 O 0.8506 0.1613 0.2884
O28_2 O 0.8974 0.2181 0.318333
C110_2 C 0.8226 0.2426 0.326333
C111_2 C 0.7712 0.2705 0.3066
C112_2 C 0.8117 0.2801 0.3219
C113_2 C 0.8417 0.3255 0.3320
C114_2 C 0.8316 0.3610 0.3261
C115_2 C 0.7906 0.3506 0.3110
C116_2 C 0.7606 0.3055 0.3014
C117_2 C 0.8956 0.6050 0.338333
C118_2 C 0.9509 0.5795 0.3554
C119_2 C 0.9087 0.5687 0.3417
C120_2 C 0.8785 0.5228 0.3327
C121_2 C 0.8898 0.4880 0.3378
C122_2 C 0.9322 0.4995 0.3515
C123_2 C 0.9625 0.5451 0.3600
C124_2 C 0.780667 0.056333 0.3135
C125_2 C 0.7802 0.018333 0.296333
C130_2 C 0.7934 0.0258 0.2665
H64_2 H 0.8733 0.3335 0.3436
H65_2 H 0.7821 0.3774 0.306333
H66_2 H 0.7291 0.2977 0.2897
H67_2 H 0.8456 0.5136 0.3224
H68_2 H 0.9416 0.4732 0.3555
H69_2 H 0.9951 0.5538 0.3706
H73_2 H 0.8046 0.0592 0.256333
H85_2 H 0.7474 0.2357 0.2987
H86_2 H 0.9749 0.6146 0.3625
N5_2 N 0.8640 0.4075 0.3350
N6_2 N 0.8574 0.441333 0.3294
O31_2 O 0.8434 0.2416 0.3496
O32_2 O 0.8106 0.2125 0.3058
O35_2 O 0.7889 0.059333 0.3409
O36_2 O 0.7733 0.0851 0.2996
O41_2 O 0.8155 0.1507 0.3434
H87_2 H 0.8092 0.1665 0.265666
O42_2 O 0.770667 0.147333 0.2656
O47_2 O 0.7786 0.1360 0.3982
O50_2 O 0.8502 0.1970 0.3960
H90_2 H 0.75401 0.165561 0.261539
C126_2 C 0.7673 0.9751 0.3090
C127_2 C 0.7663 0.9395 0.2919
C128_2 C 0.7793 0.9469 0.2620
C129_2 C 0.7935 0.9908 0.2497
C131_2 C 0.7774 0.9092 0.2432
C132_2 C 0.7873 0.8760 0.2550
C133_2 C 0.7850 0.8402 0.2374
C134_2 C 0.7743 0.8386 0.207333
C135_2 C 0.7637 0.8711 0.1951
C136_2 C 0.7649 0.9058 0.213333
C137_2 C 0.7485 0.8674 0.1638
C138_2 C 0.7595 0.9074 0.1471
C139_2 C 0.7422 0.9036 0.1185
C140_2 C 0.7142 0.8598 0.1057
C141_2 C 0.7042 0.8199 0.1221
C142_2 C 0.7208 0.8236 0.1508
C143_2 C 0.6944 0.8549 0.0759
C144_2 C 0.7900 0.8025 0.2511
C145_2 C 0.7652 0.7814 0.2769
C146_2 C 0.7698 0.7465 0.2906
C147_2 C 0.7996 0.7318 0.2791
C148_2 C 0.8240 0.7524 0.2529
C149_2 C 0.8189 0.7872 0.2389
C150_2 C 0.8073 0.6981 0.2960
H70_2 H 0.7569 0.9685 0.3320
H71_2 H 0.7546 0.9060 0.3021
H72_2 H 0.8051 0.9984 0.2270
H74_2 H 0.7969 0.8779 0.2780
H75_2 H 0.7731 0.8112 0.1937
H76_2 H 0.7543 0.929333 0.2045
H77_2 H 0.7815 0.9417 0.1562
H78_2 H 0.7508 0.9349 0.1064
H79_2 H 0.6824 0.7856 0.1129
H80_2 H 0.7106 0.7920 0.1630
H81_2 H 0.7421 0.7920 0.2865
H82_2 H 0.7506 0.7317 0.3108
H83_2 H 0.8476 0.7422 0.2436
H84_2 H 0.8383 0.8030 0.2189
Fe12_3 Fe 0.0224 0.5404 0.6379
C15_3 C 0.610333 0.057667 0.6469
C16_3 C 0.648333 0.0952 0.629667
C17_3 C 0.6915 0.1255 0.6424
C18_3 C 0.7271 0.1601 0.6253
C19_3 C 0.7197 0.165667 0.5954
C20_3 C 0.6758 0.1360 0.5831
C21_3 C 0.6408 0.1009 0.5999
C22_3 C 0.7574 0.2015 0.5766
C23_3 C 0.7906 0.2446 0.5884
C24_3 C 0.8264 0.2781 0.5708
C25_3 C 0.8280 0.2690 0.540667
C26_3 C 0.7955 0.2259 0.5285
C27_3 C 0.7608 0.1924 0.546667
C28_3 C 0.7992 0.2144 0.4972
C29_3 C 0.7592 0.1854 0.4805
C30_3 C 0.7630 0.1719 0.4519
C31_3 C 0.8068 0.187667 0.4391
C32_3 C 0.8467 0.2176 0.4555
C33_3 C 0.8430 0.2305 0.4842
C34_3 C 0.8117 0.1728 0.4093
C35_3 C 0.8641 0.3208 0.5845
C36_3 C 0.8852 0.3171 0.6103
C37_3 C 0.9201 0.3566 0.6240
C38_3 C 0.9348 0.4011 0.6125
C39_3 C 0.9142 0.4049 0.5863
C40_3 C 0.8794 0.3650 0.5723
C41_3 C 0.9685 0.4425 0.6294
H7_3 H 0.6981 0.121667 0.6654
H8_3 H 0.7606 0.1819 0.6355
H9_3 H 0.6682 0.1400 0.5604
H10_3 H 0.6074 0.078667 0.589667
H11_3 H 0.7887 0.2523 0.6114
H12_3 H 0.8554 0.2952 0.5271
H13_3 H 0.737333 0.1583 0.5379
H14_3 H 0.7249 0.1731 0.4896
H15_3 H 0.7317 0.1492 0.4398
H16_3 H 0.8810 0.2301 0.4463
H17_3 H 0.8746 0.2519 0.4964
H18_3 H 0.8746 0.2834 0.6199
H19_3 H 0.9349 0.3522 0.6442
H20_3 H 0.9244 0.438667 0.5770
H21_3 H 0.8636 0.3686 0.5523
O5_3 O 0.607333 0.0629 0.6743
O6_3 O 0.5815 0.0215 0.6330
O9_3 O 0.9774 0.4828 0.6218
O10_3 O 0.9874 0.4360 0.651667
C42_3 C 0.536333 0.0856 0.7103
C43_3 C 0.5570 0.1358 0.7164
C44_3 C 0.5438 0.1632 0.7000
C45_3 C 0.5692 0.211667 0.7023
C46_3 C 0.6080 0.2334 0.7211
C47_3 C 0.6194 0.2058 0.7386
C48_3 C 0.5942 0.1576 0.7363
C49_3 C 0.6379 0.284667 0.7214
C50_3 C 0.618333 0.3135 0.7214
H24_3 H 0.5155 0.1474 0.6843
H25_3 H 0.5597 0.2321 0.6884
H26_3 H 0.6484 0.2216 0.753667
H27_3 H 0.6050 0.1374 0.7494
H28_3 H 0.5809 0.2980 0.7212
O12_3 O 0.498333 0.0641 0.6962
O13_3 O 0.5586 0.0659 0.7189
C51_3 C 0.9144 0.4508 0.7103
C52_3 C 0.8642 0.4213 0.7164
C53_3 C 0.8368 0.3807 0.7000
C54_3 C 0.788333 0.3576 0.7023
C55_3 C 0.7666 0.3747 0.7211
C56_3 C 0.7942 0.4137 0.7386
C57_3 C 0.8424 0.4367 0.7363
C58_3 C 0.715333 0.3533 0.7214
C59_3 C 0.6865 0.3049 0.7214
H30_3 H 0.8526 0.3682 0.6843
H31_3 H 0.7679 0.3277 0.6884
H32_3 H 0.7784 0.4269 0.753667
H33_3 H 0.8626 0.4677 0.7494
H34_3 H 0.7020 0.2830 0.7212
O15_3 O 0.9359 0.4343 0.6962
O16_3 O 0.9341 0.4928 0.7189
C60_3 C 0.5492 0.463667 0.7103
C61_3 C 0.5787 0.4430 0.7164
C62_3 C 0.6193 0.4562 0.7000
C63_3 C 0.6424 0.4308 0.7023
C64_3 C 0.6253 0.3920 0.7211
C65_3 C 0.5863 0.3806 0.7386
C66_3 C 0.5633 0.4058 0.7363
C67_3 C 0.6467 0.3621 0.7214
C68_3 C 0.6951 0.381667 0.7214
H35_3 H 0.6318 0.4845 0.6843
H36_3 H 0.6723 0.4403 0.6884
H37_3 H 0.5731 0.3516 0.753667
H38_3 H 0.5323 0.3950 0.7494
H39_3 H 0.7170 0.4191 0.7212
O17_3 O 0.5657 0.501667 0.6962
O18_3 O 0.5072 0.4414 0.7189
O54_3 O 0.5053 0.0226 0.6218
O56_3 O 0.4485 0.0126 0.651667
C1_3 C 0.4240 0.9133 0.659667
C2_3 C 0.3961 0.8340 0.6400
C3_3 C 0.3865 0.8649 0.6553
C4_3 C 0.3411 0.8495 0.6654
C5_3 C 0.3056 0.8039 0.6595
C6_3 C 0.3160 0.7733 0.6444
C7_3 C 0.3611 0.7884 0.6348
C8_3 C 0.0616 0.6239 0.671667
C9_3 C 0.0871 0.704667 0.6888
C10_3 C 0.0979 0.6733 0.6751
C11_3 C 0.1438 0.6890 0.6661
C12_3 C 0.1786 0.7351 0.6712
C13_3 C 0.1671 0.7660 0.6849
C14_3 C 0.1215 0.750667 0.6934
Fe1_3 Fe 0.5179 0.9776 0.6379
H1_3 H 0.3331 0.8731 0.6770
H2_3 H 0.2892 0.7380 0.639667
H3_3 H 0.3689 0.764667 0.6231
H4_3 H 0.1530 0.6653 0.6558
H5_3 H 0.1934 0.801667 0.6889
H6_3 H 0.1128 0.7746 0.7040
H22_3 H 0.4309 0.8450 0.6321
H23_3 H 0.0520 0.6936 0.6959
N1_3 N 0.2591 0.7898 0.6684
N2_3 N 0.225333 0.7494 0.6628
O1_3 O 0.4250 0.9351 0.6830
O2_3 O 0.4541 0.9314 0.6392
O3_3 O 0.0672 0.5988 0.6529
O4_3 O 0.0260 0.6086 0.6882
O11_3 O 0.5159 0.9981 0.6768
H29_3 H 0.5001 0.9760 0.599000
O14_3 O 0.519333 0.956667 0.5990
C69_3 C 0.0867 0.5108 0.659667
C70_3 C 0.1660 0.5622 0.6400
C71_3 C 0.1351 0.5217 0.6553
C72_3 C 0.1505 0.4917 0.6654
C73_3 C 0.1961 0.5018 0.6595
C74_3 C 0.2267 0.5428 0.6444
C75_3 C 0.2116 0.5728 0.6348
C76_3 C 0.3761 0.4378 0.671667
C77_3 C 0.295333 0.3825 0.6888
C78_3 C 0.3267 0.4247 0.6751
C79_3 C 0.3110 0.4549 0.6661
C80_3 C 0.2649 0.4436 0.6712
C81_3 C 0.2340 0.4012 0.6849
C82_3 C 0.249333 0.3709 0.6934
H40_3 H 0.1269 0.4601 0.6770
H41_3 H 0.2620 0.5513 0.639667
H42_3 H 0.235333 0.6043 0.6231
H43_3 H 0.3347 0.4878 0.6558
H44_3 H 0.198333 0.3918 0.6889
H45_3 H 0.2254 0.3383 0.7040
H61_3 H 0.1550 0.5860 0.6321
H62_3 H 0.3064 0.3585 0.6959
N3_3 N 0.2102 0.4694 0.6684
N4_3 N 0.2506 0.4760 0.6628
O19_3 O 0.0649 0.4900 0.6830
O20_3 O 0.0686 0.5228 0.6392
O21_3 O 0.4012 0.4685 0.6529
O22_3 O 0.3914 0.4175 0.6882
O29_3 O 0.0019 0.5179 0.6768
H63_3 H 0.0240 0.5242 0.599000
O30_3 O 0.043333 0.562667 0.5990
Fe13_3 Fe 0.4596 0.4821 0.6379
O44_3 O 0.5315 0.9328 0.6529
O46_3 O 0.5825 0.9740 0.6882
H88_3 H 0.501106 0.921783 0.594872
H89_3 H 0.0782174 0.579323 0.594872
C83_3 C 0.942333 0.552667 0.6469
C84_3 C 0.9048 0.5532 0.629667
C85_3 C 0.8745 0.5661 0.6424
C86_3 C 0.8399 0.5671 0.6253
C87_3 C 0.834333 0.5541 0.5954
C88_3 C 0.8640 0.5399 0.5831
C89_3 C 0.8991 0.5400 0.5999
C90_3 C 0.7985 0.5560 0.5766
C91_3 C 0.7554 0.5461 0.5884
C92_3 C 0.7219 0.5484 0.5708
C93_3 C 0.7310 0.5591 0.540667
C94_3 C 0.7741 0.5697 0.5285
C95_3 C 0.8076 0.5685 0.546667
C96_3 C 0.7856 0.5849 0.4972
C97_3 C 0.8146 0.5739 0.4805
C98_3 C 0.8281 0.5912 0.4519
C99_3 C 0.812333 0.6192 0.4391
C100_3 C 0.7824 0.6292 0.4555
C101_3 C 0.7695 0.6126 0.4842
C102_3 C 0.8272 0.6390 0.4093
C103_3 C 0.6792 0.5434 0.5845
C104_3 C 0.6829 0.5682 0.6103
C105_3 C 0.6434 0.5636 0.6240
C106_3 C 0.5989 0.5338 0.6125
C107_3 C 0.5951 0.5094 0.5863
C108_3 C 0.6350 0.5145 0.5723
C109_3 C 0.5575 0.5261 0.6294
H46_3 H 0.878333 0.5765 0.6654
H47_3 H 0.8181 0.5788 0.6355
H48_3 H 0.8600 0.5283 0.5604
H49_3 H 0.921333 0.5288 0.589667
H50_3 H 0.7477 0.5365 0.6114
H51_3 H 0.7048 0.5603 0.5271
H52_3 H 0.8417 0.5791 0.5379
H53_3 H 0.8269 0.5519 0.4896
H54_3 H 0.8508 0.5826 0.4398
H55_3 H 0.7699 0.6510 0.4463
H56_3 H 0.7481 0.6228 0.4964
H57_3 H 0.7166 0.5913 0.6199
H58_3 H 0.6478 0.5828 0.6442
H59_3 H 0.561333 0.4858 0.5770
H60_3 H 0.6314 0.4951 0.5523
O23_3 O 0.9371 0.5445 0.6743
O24_3 O 0.9785 0.5601 0.6330
O27_3 O 0.5172 0.4947 0.6218
O28_3 O 0.5640 0.5515 0.651667
C110_3 C 0.4892 0.5760 0.659667
C111_3 C 0.4378 0.6039 0.6400
C112_3 C 0.4783 0.6135 0.6553
C113_3 C 0.5083 0.6589 0.6654
C114_3 C 0.4982 0.6944 0.6595
C115_3 C 0.4572 0.6840 0.6444
C116_3 C 0.4272 0.6389 0.6348
C117_3 C 0.5622 0.9384 0.671667
C118_3 C 0.6175 0.9129 0.6888
C119_3 C 0.5753 0.9021 0.6751
C120_3 C 0.5451 0.8562 0.6661
C121_3 C 0.5564 0.8214 0.6712
C122_3 C 0.5988 0.8329 0.6849
C123_3 C 0.6291 0.8785 0.6934
C124_3 C 0.447333 0.389667 0.6469
C125_3 C 0.4468 0.351667 0.629667
C126_3 C 0.4339 0.3085 0.6424
C127_3 C 0.4329 0.2729 0.6253
C128_3 C 0.4459 0.2803 0.5954
C129_3 C 0.4601 0.3242 0.5831
C130_3 C 0.4600 0.3592 0.5999
C131_3 C 0.4440 0.2426 0.5766
C132_3 C 0.4539 0.2094 0.5884
C133_3 C 0.4516 0.1736 0.5708
C134_3 C 0.4409 0.1720 0.540667
C135_3 C 0.4303 0.2045 0.5285
C136_3 C 0.4315 0.2392 0.546667
C137_3 C 0.4151 0.2008 0.4972
C138_3 C 0.4261 0.2408 0.4805
C139_3 C 0.4088 0.2370 0.4519
C140_3 C 0.3808 0.1932 0.4391
C141_3 C 0.3708 0.1533 0.4555
C142_3 C 0.3874 0.1570 0.4842
C143_3 C 0.3610 0.1883 0.4093
C144_3 C 0.4566 0.1359 0.5845
C145_3 C 0.4318 0.1148 0.6103
C146_3 C 0.4364 0.0799 0.6240
C147_3 C 0.4662 0.0652 0.6125
C148_3 C 0.4906 0.0858 0.5863
C149_3 C 0.4855 0.1206 0.5723
C150_3 C 0.4739 0.0315 0.6294
H64_3 H 0.5399 0.6669 0.6770
H65_3 H 0.4487 0.7108 0.639667
H66_3 H 0.3957 0.6311 0.6231
H67_3 H 0.5122 0.8470 0.6558
H68_3 H 0.6082 0.8066 0.6889
H69_3 H 0.6617 0.8872 0.7040
H70_3 H 0.4235 0.3019 0.6654
H71_3 H 0.4212 0.2394 0.6355
H72_3 H 0.4717 0.3318 0.5604
H73_3 H 0.4712 0.3926 0.589667
H74_3 H 0.4635 0.2113 0.6114
H75_3 H 0.4397 0.1446 0.5271
H76_3 H 0.4209 0.262667 0.5379
H77_3 H 0.4481 0.2751 0.4896
H78_3 H 0.4174 0.2683 0.4398
H79_3 H 0.3490 0.1190 0.4463
H80_3 H 0.3772 0.1254 0.4964
H81_3 H 0.4087 0.1254 0.6199
H82_3 H 0.4172 0.0651 0.6442
H83_3 H 0.5142 0.0756 0.5770
H84_3 H 0.5049 0.1364 0.5523
H85_3 H 0.4140 0.5691 0.6321
H86_3 H 0.6415 0.9480 0.6959
N5_3 N 0.5306 0.7409 0.6684
N6_3 N 0.5240 0.774667 0.6628
O31_3 O 0.5100 0.5750 0.6830
O32_3 O 0.4772 0.5459 0.6392
O35_3 O 0.4555 0.392667 0.6743
O36_3 O 0.4399 0.4185 0.6330
O41_3 O 0.4821 0.4841 0.6768
H87_3 H 0.4758 0.4999 0.599000
O42_3 O 0.437333 0.480667 0.5990
H90_3 H 0.420677 0.498894 0.594872
loop_
_geom_bond_atom_site_label_1
_geom_bond_atom_site_label_2
_geom_bond_site_symmetry_1
_geom_bond_site_symmetry_2
C42 C43 1_555 1_555
C43 C44 1_555 1_555
C44 C45 1_555 1_555
C45 C46 1_555 1_555
C46 C47 1_555 1_555
C47 C48 1_555 1_555
C48 C43 1_555 1_555
C49 C46 1_555 1_555
C50 C49 1_555 1_555
Fe2 O5 1_555 1_555
Fe3 O1 1_555 1_555
H24 C44 1_555 1_555
H25 C45 1_555 1_555
H26 C47 1_555 1_555
H27 C48 1_555 1_555
H28 C50 1_555 1_555
O12 C42 1_555 1_555
O13 C42 1_555 1_555
C51 C52 1_555 1_555
C52 C53 1_555 1_555
C53 C54 1_555 1_555
C54 C55 1_555 1_555
C55 C56 1_555 1_555
C56 C57 1_555 1_555
C57 C52 1_555 1_555
C58 C55 1_555 1_555
C59 C49 1_555 1_555
H30 C53 1_555 1_555
H31 C54 1_555 1_555
H32 C56 1_555 1_555
H33 C57 1_555 1_555
H34 C59 1_555 1_555
O15 C51 1_555 1_555
O16 C51 1_555 1_555
C60 C61 1_555 1_555
C61 C62 1_555 1_555
C62 C63 1_555 1_555
C63 C64 1_555 1_555
C64 C65 1_555 1_555
C65 C66 1_555 1_555
C66 C61 1_555 1_555
C67 C50 1_555 1_555
C68 C58 1_555 1_555
H35 C62 1_555 1_555
H36 C63 1_555 1_555
H37 C65 1_555 1_555
H38 C66 1_555 1_555
H39 C68 1_555 1_555
O17 C60 1_555 1_555
O18 C60 1_555 1_555
O46 Fe2 1_555 1_555
O48 Fe2 1_555 1_555
O51 Fe3 1_555 1_555
Fe15 O16 1_555 1_555
Fe17 O18 1_555 1_555
Fe23 O17 1_555 1_555
Fe2 O11 1_555 1_555
Fe2 O13 1_555 1_555
Fe3 O11 1_555 1_555
Fe3 O12 1_555 1_555
C58 C59 1_555 1_555
O15 Fe22 1_555 1_555
C64 C67 1_555 1_555
C67 C68 1_555 1_555
C1 C3 1_555 1_555
C2 C3 1_555 1_555
C3 C4 1_555 1_555
C7 C2 1_555 1_555
C15 C16 1_555 1_555
C16 C17 1_555 1_555
C17 C18 1_555 1_555
C18 C19 1_555 1_555
C19 C20 1_555 1_555
C20 C21 1_555 1_555
C21 C16 1_555 1_555
C22 C19 1_555 1_555
C23 C22 1_555 1_555
C24 C23 1_555 1_555
C25 C24 1_555 1_555
C26 C25 1_555 1_555
C27 C22 1_555 1_555
C28 C26 1_555 1_555
C29 C28 1_555 1_555
C30 C29 1_555 1_555
C31 C30 1_555 1_555
C32 C31 1_555 1_555
C33 C28 1_555 1_555
C34 C31 1_555 1_555
C35 C24 1_555 1_555
C36 C35 1_555 1_555
C37 C36 1_555 1_555
C38 C37 1_555 1_555
C39 C38 1_555 1_555
C40 C35 1_555 1_555
C41 C38 1_555 1_555
Fe1 O2 1_555 1_555
H3 C7 1_555 1_555
H7 C17 1_555 1_555
H8 C18 1_555 1_555
H9 C20 1_555 1_555
H10 C21 1_555 1_555
H11 C23 1_555 1_555
H12 C25 1_555 1_555
H13 C27 1_555 1_555
H14 C29 1_555 1_555
H15 C30 1_555 1_555
H16 C32 1_555 1_555
H17 C33 1_555 1_555
H18 C36 1_555 1_555
H19 C37 1_555 1_555
H20 C39 1_555 1_555
H21 C40 1_555 1_555
H22 C2 1_555 1_555
O2 C1 1_555 1_555
O6 C15 1_555 1_555
O7 C34 1_555 1_555
O8 C34 1_555 1_555
O9 C41 1_555 1_555
O10 C41 1_555 1_555
H29 O14 1_555 1_555
O14 Fe1 1_555 1_555
Fe12 O9 1_555 1_555
O44 Fe1 1_555 1_555
O54 Fe1 1_555 1_555
Fe20 O7 1_555 1_555
Fe26 O8 1_555 1_555
C26 C27 1_555 1_555
C32 C33 1_555 1_555
C39 C40 1_555 1_555
Fe1 O6 1_555 1_555
O14 H88 1_555 1_555
O22 C76 1_555 1_555
Fe17 O22 1_555 1_555
Fe13 O21 1_555 1_555
C9 C10 1_555 1_555
C12 C13 1_555 1_555
C13 C14 1_555 1_555
C14 C9 1_555 1_555
H5 C13 1_555 1_555
H6 C14 1_555 1_555
H23 C9 1_555 1_555
C117 C119 1_555 1_555
C118 C119 1_555 1_555
C121 C122 1_555 1_555
C122 C123 1_555 1_555
C123 C118 1_555 1_555
H68 C122 1_555 1_555
H69 C123 1_555 1_555
H86 C118 1_555 1_555
O46 C117 1_555 1_555
C5 C6 1_555 1_555
H2 C6 1_555 1_555
C114 C115 1_555 1_555
H65 C115 1_555 1_555
H67 C120 1_555 1_555
O4 C8 1_555 1_555
C77 C78 1_555 1_555
C80 C81 1_555 1_555
C81 C82 1_555 1_555
C82 C77 1_555 1_555
H44 C81 1_555 1_555
H45 C82 1_555 1_555
H62 C77 1_555 1_555
Fe15 O4 1_555 1_555
Fe22 O19 1_555 1_555
Fe17 O35 1_555 1_555
O47 Fe17 1_555 1_555
O49 Fe15 1_555 1_555
O50 Fe23 1_555 1_555
O52 Fe22 1_555 1_555
O23 Fe15 1_555 1_555
Fe15 O29 1_555 1_555
Fe22 O29 1_555 1_555
O31 Fe23 1_555 1_555
Fe17 O41 1_555 1_555
Fe23 O41 1_555 1_555
C69 C71 1_555 1_555
C70 C71 1_555 1_555
C71 C72 1_555 1_555
C72 C73 1_555 1_555
C73 C74 1_555 1_555
C74 C75 1_555 1_555
C75 C70 1_555 1_555
C83 C84 1_555 1_555
C84 C85 1_555 1_555
C85 C86 1_555 1_555
C86 C87 1_555 1_555
C87 C88 1_555 1_555
C88 C89 1_555 1_555
C89 C84 1_555 1_555
C90 C87 1_555 1_555
C91 C90 1_555 1_555
C92 C91 1_555 1_555
C93 C92 1_555 1_555
C94 C93 1_555 1_555
C95 C90 1_555 1_555
C96 C94 1_555 1_555
C97 C96 1_555 1_555
C98 C97 1_555 1_555
C99 C98 1_555 1_555
C100 C99 1_555 1_555
C101 C96 1_555 1_555
C102 C99 1_555 1_555
C103 C92 1_555 1_555
C104 C103 1_555 1_555
C105 C104 1_555 1_555
C106 C105 1_555 1_555
C107 C106 1_555 1_555
C108 C103 1_555 1_555
C109 C106 1_555 1_555
Fe12 O3 1_555 1_555
H41 C74 1_555 1_555
H42 C75 1_555 1_555
H46 C85 1_555 1_555
H47 C86 1_555 1_555
H48 C88 1_555 1_555
H49 C89 1_555 1_555
H50 C91 1_555 1_555
H51 C93 1_555 1_555
H52 C95 1_555 1_555
H53 C97 1_555 1_555
H54 C98 1_555 1_555
H55 C100 1_555 1_555
H56 C101 1_555 1_555
H57 C104 1_555 1_555
H58 C105 1_555 1_555
H59 C107 1_555 1_555
H60 C108 1_555 1_555
H61 C70 1_555 1_555
O20 C69 1_555 1_555
O24 C83 1_555 1_555
O25 C102 1_555 1_555
O26 C102 1_555 1_555
O27 C109 1_555 1_555
O28 C109 1_555 1_555
H63 O30 1_555 1_555
O30 Fe12 1_555 1_555
C110 C112 1_555 1_555
C111 C112 1_555 1_555
C112 C113 1_555 1_555
C116 C111 1_555 1_555
C124 C125 1_555 1_555
C125 C126 1_555 1_555
C126 C127 1_555 1_555
C127 C128 1_555 1_555
C128 C129 1_555 1_555
C129 C130 1_555 1_555
C130 C125 1_555 1_555
C131 C128 1_555 1_555
C132 C131 1_555 1_555
C133 C132 1_555 1_555
C134 C133 1_555 1_555
C135 C134 1_555 1_555
C136 C131 1_555 1_555
C137 C135 1_555 1_555
C138 C137 1_555 1_555
C139 C138 1_555 1_555
C140 C139 1_555 1_555
C141 C140 1_555 1_555
C142 C137 1_555 1_555
C143 C140 1_555 1_555
C144 C133 1_555 1_555
C145 C144 1_555 1_555
C146 C145 1_555 1_555
C147 C146 1_555 1_555
C148 C147 1_555 1_555
C149 C144 1_555 1_555
C150 C147 1_555 1_555
Fe13 O27 1_555 1_555
H66 C116 1_555 1_555
H70 C126 1_555 1_555
H71 C127 1_555 1_555
H72 C129 1_555 1_555
H73 C130 1_555 1_555
H74 C132 1_555 1_555
H75 C134 1_555 1_555
H76 C136 1_555 1_555
H77 C138 1_555 1_555
H78 C139 1_555 1_555
H79 C141 1_555 1_555
H80 C142 1_555 1_555
H81 C145 1_555 1_555
H82 C146 1_555 1_555
H83 C148 1_555 1_555
H84 C149 1_555 1_555
H85 C111 1_555 1_555
O32 C110 1_555 1_555
O36 C124 1_555 1_555
O37 C143 1_555 1_555
O38 C143 1_555 1_555
O54 C150 1_555 1_555
O56 C150 1_555 1_555
H87 O42 1_555 1_555
O42 Fe13 1_555 1_555
Fe24 O26 1_555 1_555
Fe25 O38 1_555 1_555
C94 C95 1_555 1_555
C100 C101 1_555 1_555
C107 C108 1_555 1_555
Fe12 O20 1_555 1_555
Fe12 O24 1_555 1_555
C135 C136 1_555 1_555
C141 C142 1_555 1_555
C148 C149 1_555 1_555
Fe13 O32 1_555 1_555
Fe13 O36 1_555 1_555
O30 H89 1_555 1_555
O42 H90 1_555 1_555
C38_2 C37_2 1_555 1_555
C39_2 C38_2 1_555 1_555
C41_2 C38_2 1_555 1_555
H19_2 C37_2 1_555 1_555
H20_2 C39_2 1_555 1_555
H21_2 C40_2 1_555 1_555
O9_2 C41_2 1_555 1_555
O10_2 C41_2 1_555 1_555
C51_2 C52_2 1_555 1_555
C52_2 C53_2 1_555 1_555
C53_2 C54_2 1_555 1_555
C54_2 C55_2 1_555 1_555
C55_2 C56_2 1_555 1_555
C56_2 C57_2 1_555 1_555
C57_2 C52_2 1_555 1_555
C58_2 C55_2 1_555 1_555
H30_2 C53_2 1_555 1_555
H32_2 C56_2 1_555 1_555
H33_2 C57_2 1_555 1_555
O15_2 C51_2 1_555 1_555
O16_2 C51_2 1_555 1_555
C68_2 C58_2 1_555 1_555
H39_2 C68_2 1_555 1_555
Fe12_2 O9_2 1_555 1_555
Fe15_2 O16_2 1_555 1_555
Fe22_2 O10_2 1_555 1_555
C39_2 C40_2 1_555 1_555
O15_2 Fe22_2 1_555 1_555
C17_2 C18_2 1_555 1_555
C18_2 C19_2 1_555 1_555
C19_2 C20_2 1_555 1_555
C22_2 C19_2 1_555 1_555
C23_2 C22_2 1_555 1_555
C24_2 C23_2 1_555 1_555
C25_2 C24_2 1_555 1_555
C26_2 C25_2 1_555 1_555
C27_2 C22_2 1_555 1_555
C28_2 C26_2 1_555 1_555
C29_2 C28_2 1_555 1_555
C30_2 C29_2 1_555 1_555
C31_2 C30_2 1_555 1_555
C32_2 C31_2 1_555 1_555
C33_2 C28_2 1_555 1_555
C34_2 C31_2 1_555 1_555
C35_2 C24_2 1_555 1_555
C36_2 C35_2 1_555 1_555
H7_2 C17_2 1_555 1_555
H8_2 C18_2 1_555 1_555
H9_2 C20_2 1_555 1_555
H11_2 C23_2 1_555 1_555
H12_2 C25_2 1_555 1_555
H13_2 C27_2 1_555 1_555
H14_2 C29_2 1_555 1_555
H15_2 C30_2 1_555 1_555
H16_2 C32_2 1_555 1_555
H17_2 C33_2 1_555 1_555
H18_2 C36_2 1_555 1_555
O47 C34_2 1_555 1_555
O50 C34_2 1_555 1_555
H34_2 C59_2 1_555 1_555
C26_2 C27_2 1_555 1_555
C32_2 C33_2 1_555 1_555
C60_2 C61_2 1_555 1_555
C61_2 C62_2 1_555 1_555
C62_2 C63_2 1_555 1_555
C63_2 C64_2 1_555 1_555
C64_2 C65_2 1_555 1_555
C65_2 C66_2 1_555 1_555
C66_2 C61_2 1_555 1_555
H35_2 C62_2 1_555 1_555
H37_2 C65_2 1_555 1_555
H38_2 C66_2 1_555 1_555
O17_2 C60_2 1_555 1_555
O18_2 C60_2 1_555 1_555
Fe17_2 O18_2 1_555 1_555
Fe23_2 O17_2 1_555 1_555
C64_2 C67_2 1_555 1_555
C1_2 C3_2 1_555 1_555
C2_2 C3_2 1_555 1_555
C3_2 C4_2 1_555 1_555
C4_2 C5_2 1_555 1_555
C5_2 C6_2 1_555 1_555
C6_2 C7_2 1_555 1_555
C7_2 C2_2 1_555 1_555
C8_2 C10_2 1_555 1_555
C9_2 C10_2 1_555 1_555
C10_2 C11_2 1_555 1_555
C11_2 C12_2 1_555 1_555
C12_2 C13_2 1_555 1_555
C13_2 C14_2 1_555 1_555
C14_2 C9_2 1_555 1_555
C15_2 C16_2 1_555 1_555
C21_2 C16_2 1_555 1_555
Fe1_2 O2_2 1_555 1_555
H1_2 C4_2 1_555 1_555
H2_2 C6_2 1_555 1_555
H3_2 C7_2 1_555 1_555
H4_2 C11_2 1_555 1_555
H5_2 C13_2 1_555 1_555
H6_2 C14_2 1_555 1_555
H10_2 C21_2 1_555 1_555
H22_2 C2_2 1_555 1_555
H23_2 C9_2 1_555 1_555
N1_2 C5_2 1_555 1_555
N2_2 C12_2 1_555 1_555
O1_2 C1_2 1_555 1_555
O2_2 C1_2 1_555 1_555
O3_2 C8_2 1_555 1_555
O4_2 C8_2 1_555 1_555
O5_2 C15_2 1_555 1_555
O6_2 C15_2 1_555 1_555
C42_2 C43_2 1_555 1_555
C43_2 C44_2 1_555 1_555
C44_2 C45_2 1_555 1_555
C45_2 C46_2 1_555 1_555
C46_2 C47_2 1_555 1_555
C47_2 C48_2 1_555 1_555
C48_2 C43_2 1_555 1_555
C49_2 C46_2 1_555 1_555
C50_2 C49_2 1_555 1_555
Fe2_2 O5_2 1_555 1_555
Fe3_2 O1_2 1_555 1_555
H24_2 C44_2 1_555 1_555
H25_2 C45_2 1_555 1_555
H26_2 C47_2 1_555 1_555
H27_2 C48_2 1_555 1_555
H28_2 C50_2 1_555 1_555
O11_2 Fe1_2 1_555 1_555
O12_2 C42_2 1_555 1_555
O13_2 C42_2 1_555 1_555
H29_2 O14_2 1_555 1_555
O14_2 Fe1_2 1_555 1_555
C69_2 C71_2 1_555 1_555
C70_2 C71_2 1_555 1_555
C71_2 C72_2 1_555 1_555
C72_2 C73_2 1_555 1_555
C73_2 C74_2 1_555 1_555
C74_2 C75_2 1_555 1_555
C75_2 C70_2 1_555 1_555
C76_2 C78_2 1_555 1_555
C77_2 C78_2 1_555 1_555
C78_2 C79_2 1_555 1_555
C79_2 C80_2 1_555 1_555
C80_2 C81_2 1_555 1_555
C81_2 C82_2 1_555 1_555
C82_2 C77_2 1_555 1_555
C83_2 C84_2 1_555 1_555
C84_2 C85_2 1_555 1_555
C85_2 C86_2 1_555 1_555
C86_2 C87_2 1_555 1_555
C87_2 C88_2 1_555 1_555
C88_2 C89_2 1_555 1_555
C89_2 C84_2 1_555 1_555
C90_2 C87_2 1_555 1_555
C91_2 C90_2 1_555 1_555
C92_2 C91_2 1_555 1_555
C93_2 C92_2 1_555 1_555
C94_2 C93_2 1_555 1_555
C95_2 C90_2 1_555 1_555
C96_2 C94_2 1_555 1_555
C97_2 C96_2 1_555 1_555
C98_2 C97_2 1_555 1_555
C99_2 C98_2 1_555 1_555
C100_2 C99_2 1_555 1_555
C101_2 C96_2 1_555 1_555
C102_2 C99_2 1_555 1_555
C103_2 C92_2 1_555 1_555
C104_2 C103_2 1_555 1_555
Fe12_2 O3_2 1_555 1_555
H40_2 C72_2 1_555 1_555
H41_2 C74_2 1_555 1_555
H42_2 C75_2 1_555 1_555
H43_2 C79_2 1_555 1_555
H44_2 C81_2 1_555 1_555
H45_2 C82_2 1_555 1_555
H46_2 C85_2 1_555 1_555
H47_2 C86_2 1_555 1_555
H48_2 C88_2 1_555 1_555
H49_2 C89_2 1_555 1_555
H50_2 C91_2 1_555 1_555
H51_2 C93_2 1_555 1_555
H52_2 C95_2 1_555 1_555
H53_2 C97_2 1_555 1_555
H54_2 C98_2 1_555 1_555
H55_2 C100_2 1_555 1_555
H56_2 C101_2 1_555 1_555
H57_2 C104_2 1_555 1_555
H61_2 C70_2 1_555 1_555
H62_2 C77_2 1_555 1_555
N3_2 C73_2 1_555 1_555
N4_2 C80_2 1_555 1_555
O19_2 C69_2 1_555 1_555
O20_2 C69_2 1_555 1_555
O21_2 C76_2 1_555 1_555
O22_2 C76_2 1_555 1_555
O23_2 C83_2 1_555 1_555
O24_2 C83_2 1_555 1_555
O48 C102_2 1_555 1_555
O51 C102_2 1_555 1_555
Fe15_2 O4_2 1_555 1_555
Fe22_2 O19_2 1_555 1_555
O29_2 Fe12_2 1_555 1_555
H63_2 O30_2 1_555 1_555
O30_2 Fe12_2 1_555 1_555
Fe13_2 O21_2 1_555 1_555
O44_2 Fe1_2 1_555 1_555
O46_2 Fe2_2 1_555 1_555
O48_2 Fe2_2 1_555 1_555
O49_2 Fe15_2 1_555 1_555
O51_2 Fe3_2 1_555 1_555
O52_2 Fe22_2 1_555 1_555
O54_2 Fe1_2 1_555 1_555
O56_2 Fe3_2 1_555 1_555
Fe17_2 O22_2 1_555 1_555
Fe1_2 O6_2 1_555 1_555
N1_2 N2_2 1_555 1_555
Fe2_2 O11_2 1_555 1_555
Fe2_2 O13_2 1_555 1_555
Fe3_2 O11_2 1_555 1_555
Fe3_2 O12_2 1_555 1_555
C94_2 C95_2 1_555 1_555
C100_2 C101_2 1_555 1_555
Fe12_2 O20_2 1_555 1_555
Fe12_2 O24_2 1_555 1_555
N3_2 N4_2 1_555 1_555
O23_2 Fe15_2 1_555 1_555
Fe15_2 O29_2 1_555 1_555
Fe22_2 O29_2 1_555 1_555
O14_2 H88_2 1_555 1_555
O30_2 H89_2 1_555 1_555
C106_2 C105_2 1_555 1_555
C107_2 C106_2 1_555 1_555
C109_2 C106_2 1_555 1_555
H58_2 C105_2 1_555 1_555
H59_2 C107_2 1_555 1_555
H60_2 C108_2 1_555 1_555
O27_2 C109_2 1_555 1_555
O28_2 C109_2 1_555 1_555
C110_2 C112_2 1_555 1_555
C111_2 C112_2 1_555 1_555
C112_2 C113_2 1_555 1_555
C113_2 C114_2 1_555 1_555
C114_2 C115_2 1_555 1_555
C115_2 C116_2 1_555 1_555
C116_2 C111_2 1_555 1_555
C117_2 C119_2 1_555 1_555
C118_2 C119_2 1_555 1_555
C119_2 C120_2 1_555 1_555
C120_2 C121_2 1_555 1_555
C121_2 C122_2 1_555 1_555
C122_2 C123_2 1_555 1_555
C123_2 C118_2 1_555 1_555
C124_2 C125_2 1_555 1_555
C130_2 C125_2 1_555 1_555
Fe13_2 O27_2 1_555 1_555
H64_2 C113_2 1_555 1_555
H65_2 C115_2 1_555 1_555
H66_2 C116_2 1_555 1_555
H67_2 C120_2 1_555 1_555
H68_2 C122_2 1_555 1_555
H69_2 C123_2 1_555 1_555
H73_2 C130_2 1_555 1_555
H85_2 C111_2 1_555 1_555
H86_2 C118_2 1_555 1_555
N5_2 C114_2 1_555 1_555
N6_2 C121_2 1_555 1_555
O31_2 C110_2 1_555 1_555
O32_2 C110_2 1_555 1_555
O44_2 C117_2 1_555 1_555
O46_2 C117_2 1_555 1_555
O35_2 C124_2 1_555 1_555
O36_2 C124_2 1_555 1_555
Fe17_2 O35_2 1_555 1_555
Fe23_2 O28_2 1_555 1_555
O41_2 Fe13_2 1_555 1_555
H87_2 O42_2 1_555 1_555
O42_2 Fe13_2 1_555 1_555
O47_2 Fe17_2 1_555 1_555
O50_2 Fe23_2 1_555 1_555
C107_2 C108_2 1_555 1_555
Fe13_2 O32_2 1_555 1_555
Fe13_2 O36_2 1_555 1_555
N5_2 N6_2 1_555 1_555
O31_2 Fe23_2 1_555 1_555
Fe17_2 O41_2 1_555 1_555
Fe23_2 O41_2 1_555 1_555
O42_2 H90_2 1_555 1_555
C126_2 C127_2 1_555 1_555
C127_2 C128_2 1_555 1_555
C128_2 C129_2 1_555 1_555
C131_2 C128_2 1_555 1_555
C132_2 C131_2 1_555 1_555
C133_2 C132_2 1_555 1_555
C134_2 C133_2 1_555 1_555
C135_2 C134_2 1_555 1_555
C136_2 C131_2 1_555 1_555
C137_2 C135_2 1_555 1_555
C138_2 C137_2 1_555 1_555
C139_2 C138_2 1_555 1_555
C140_2 C139_2 1_555 1_555
C141_2 C140_2 1_555 1_555
C142_2 C137_2 1_555 1_555
C143_2 C140_2 1_555 1_555
C144_2 C133_2 1_555 1_555
C145_2 C144_2 1_555 1_555
C146_2 C145_2 1_555 1_555
C147_2 C146_2 1_555 1_555
C148_2 C147_2 1_555 1_555
C149_2 C144_2 1_555 1_555
C150_2 C147_2 1_555 1_555
H70_2 C126_2 1_555 1_555
H71_2 C127_2 1_555 1_555
H72_2 C129_2 1_555 1_555
H74_2 C132_2 1_555 1_555
H75_2 C134_2 1_555 1_555
H76_2 C136_2 1_555 1_555
H77_2 C138_2 1_555 1_555
H78_2 C139_2 1_555 1_555
H79_2 C141_2 1_555 1_555
H80_2 C142_2 1_555 1_555
H81_2 C145_2 1_555 1_555
H82_2 C146_2 1_555 1_555
H83_2 C148_2 1_555 1_555
H84_2 C149_2 1_555 1_555
O49 C143_2 1_555 1_555
O52 C143_2 1_555 1_555
O54_2 C150_2 1_555 1_555
O56_2 C150_2 1_555 1_555
C135_2 C136_2 1_555 1_555
C141_2 C142_2 1_555 1_555
C148_2 C149_2 1_555 1_555
C15_3 C16_3 1_555 1_555
C16_3 C17_3 1_555 1_555
C17_3 C18_3 1_555 1_555
C18_3 C19_3 1_555 1_555
C19_3 C20_3 1_555 1_555
C20_3 C21_3 1_555 1_555
C21_3 C16_3 1_555 1_555
C22_3 C19_3 1_555 1_555
C23_3 C22_3 1_555 1_555
C24_3 C23_3 1_555 1_555
C25_3 C24_3 1_555 1_555
C26_3 C25_3 1_555 1_555
C27_3 C22_3 1_555 1_555
C28_3 C26_3 1_555 1_555
C29_3 C28_3 1_555 1_555
C30_3 C29_3 1_555 1_555
C31_3 C30_3 1_555 1_555
C32_3 C31_3 1_555 1_555
C33_3 C28_3 1_555 1_555
C34_3 C31_3 1_555 1_555
C35_3 C24_3 1_555 1_555
C36_3 C35_3 1_555 1_555
C37_3 C36_3 1_555 1_555
C38_3 C37_3 1_555 1_555
C39_3 C38_3 1_555 1_555
C40_3 C35_3 1_555 1_555
C41_3 C38_3 1_555 1_555
H7_3 C17_3 1_555 1_555
H8_3 C18_3 1_555 1_555
H9_3 C20_3 1_555 1_555
H10_3 C21_3 1_555 1_555
H11_3 C23_3 1_555 1_555
H12_3 C25_3 1_555 1_555
H13_3 C27_3 1_555 1_555
H14_3 C29_3 1_555 1_555
H15_3 C30_3 1_555 1_555
H16_3 C32_3 1_555 1_555
H17_3 C33_3 1_555 1_555
H18_3 C36_3 1_555 1_555
H19_3 C37_3 1_555 1_555
H20_3 C39_3 1_555 1_555
H21_3 C40_3 1_555 1_555
O5_3 C15_3 1_555 1_555
O6_3 C15_3 1_555 1_555
O47_2 C34_3 1_555 1_555
O50_2 C34_3 1_555 1_555
O9_3 C41_3 1_555 1_555
O10_3 C41_3 1_555 1_555
C42_3 C43_3 1_555 1_555
C43_3 C44_3 1_555 1_555
C44_3 C45_3 1_555 1_555
C45_3 C46_3 1_555 1_555
C46_3 C47_3 1_555 1_555
C47_3 C48_3 1_555 1_555
C48_3 C43_3 1_555 1_555
C49_3 C46_3 1_555 1_555
C50_3 C49_3 1_555 1_555
Fe18 O5_3 1_555 1_555
H24_3 C44_3 1_555 1_555
H25_3 C45_3 1_555 1_555
H26_3 C47_3 1_555 1_555
H27_3 C48_3 1_555 1_555
H28_3 C50_3 1_555 1_555
O12_3 C42_3 1_555 1_555
O13_3 C42_3 1_555 1_555
C51_3 C52_3 1_555 1_555
C52_3 C53_3 1_555 1_555
C53_3 C54_3 1_555 1_555
C54_3 C55_3 1_555 1_555
C55_3 C56_3 1_555 1_555
C56_3 C57_3 1_555 1_555
C57_3 C52_3 1_555 1_555
C58_3 C55_3 1_555 1_555
C59_3 C49_3 1_555 1_555
H30_3 C53_3 1_555 1_555
H31_3 C54_3 1_555 1_555
H32_3 C56_3 1_555 1_555
H33_3 C57_3 1_555 1_555
H34_3 C59_3 1_555 1_555
O15_3 C51_3 1_555 1_555
O16_3 C51_3 1_555 1_555
C60_3 C61_3 1_555 1_555
C61_3 C62_3 1_555 1_555
C62_3 C63_3 1_555 1_555
C63_3 C64_3 1_555 1_555
C64_3 C65_3 1_555 1_555
C65_3 C66_3 1_555 1_555
C66_3 C61_3 1_555 1_555
C67_3 C50_3 1_555 1_555
C68_3 C58_3 1_555 1_555
H35_3 C62_3 1_555 1_555
H36_3 C63_3 1_555 1_555
H37_3 C65_3 1_555 1_555
H38_3 C66_3 1_555 1_555
H39_3 C68_3 1_555 1_555
O17_3 C60_3 1_555 1_555
O18_3 C60_3 1_555 1_555
Fe19 O16_3 1_555 1_555
Fe20 O18_3 1_555 1_555
Fe26 O17_3 1_555 1_555
C26_3 C27_3 1_555 1_555
C32_3 C33_3 1_555 1_555
C39_3 C40_3 1_555 1_555
Fe18 O13_3 1_555 1_555
C58_3 C59_3 1_555 1_555
C64_3 C67_3 1_555 1_555
C67_3 C68_3 1_555 1_555
C1_3 C3_3 1_555 1_555
C2_3 C3_3 1_555 1_555
C3_3 C4_3 1_555 1_555
C4_3 C5_3 1_555 1_555
C5_3 C6_3 1_555 1_555
C6_3 C7_3 1_555 1_555
C7_3 C2_3 1_555 1_555
C8_3 C10_3 1_555 1_555
C9_3 C10_3 1_555 1_555
C10_3 C11_3 1_555 1_555
C11_3 C12_3 1_555 1_555
C12_3 C13_3 1_555 1_555
C13_3 C14_3 1_555 1_555
C14_3 C9_3 1_555 1_555
Fe1_3 O2_3 1_555 1_555
H1_3 C4_3 1_555 1_555
H2_3 C6_3 1_555 1_555
H3_3 C7_3 1_555 1_555
H4_3 C11_3 1_555 1_555
H5_3 C13_3 1_555 1_555
H6_3 C14_3 1_555 1_555
H22_3 C2_3 1_555 1_555
H23_3 C9_3 1_555 1_555
N1_3 C5_3 1_555 1_555
N2_3 C12_3 1_555 1_555
O1_3 C1_3 1_555 1_555
O2_3 C1_3 1_555 1_555
O3_3 C8_3 1_555 1_555
O4_3 C8_3 1_555 1_555
Fe24 O1_3 1_555 1_555
O11_3 Fe1_3 1_555 1_555
H29_3 O14_3 1_555 1_555
O14_3 Fe1_3 1_555 1_555
C69_3 C71_3 1_555 1_555
C70_3 C71_3 1_555 1_555
C71_3 C72_3 1_555 1_555
C72_3 C73_3 1_555 1_555
C73_3 C74_3 1_555 1_555
C74_3 C75_3 1_555 1_555
C75_3 C70_3 1_555 1_555
C76_3 C78_3 1_555 1_555
C77_3 C78_3 1_555 1_555
C78_3 C79_3 1_555 1_555
C79_3 C80_3 1_555 1_555
C80_3 C81_3 1_555 1_555
C81_3 C82_3 1_555 1_555
C82_3 C77_3 1_555 1_555
Fe12_3 O3_3 1_555 1_555
H40_3 C72_3 1_555 1_555
H41_3 C74_3 1_555 1_555
H42_3 C75_3 1_555 1_555
H43_3 C79_3 1_555 1_555
H44_3 C81_3 1_555 1_555
H45_3 C82_3 1_555 1_555
H61_3 C70_3 1_555 1_555
H62_3 C77_3 1_555 1_555
N3_3 C73_3 1_555 1_555
N4_3 C80_3 1_555 1_555
O19_3 C69_3 1_555 1_555
O20_3 C69_3 1_555 1_555
O21_3 C76_3 1_555 1_555
O22_3 C76_3 1_555 1_555
Fe25 O19_3 1_555 1_555
O29_3 Fe12_3 1_555 1_555
H63_3 O30_3 1_555 1_555
O30_3 Fe12_3 1_555 1_555
Fe13_3 O21_3 1_555 1_555
O44_3 Fe1_3 1_555 1_555
Fe20 O22_3 1_555 1_555
N1_3 N2_3 1_555 1_555
Fe24 O11_3 1_555 1_555
Fe12_3 O20_3 1_555 1_555
N3_3 N4_3 1_555 1_555
Fe25 O29_3 1_555 1_555
O14_3 H88_3 1_555 1_555
O30_3 H89_3 1_555 1_555
C83_3 C84_3 1_555 1_555
C84_3 C85_3 1_555 1_555
C85_3 C86_3 1_555 1_555
C86_3 C87_3 1_555 1_555
C87_3 C88_3 1_555 1_555
C88_3 C89_3 1_555 1_555
C89_3 C84_3 1_555 1_555
C90_3 C87_3 1_555 1_555
C91_3 C90_3 1_555 1_555
C92_3 C91_3 1_555 1_555
C93_3 C92_3 1_555 1_555
C94_3 C93_3 1_555 1_555
C95_3 C90_3 1_555 1_555
C96_3 C94_3 1_555 1_555
C97_3 C96_3 1_555 1_555
C98_3 C97_3 1_555 1_555
C99_3 C98_3 1_555 1_555
C100_3 C99_3 1_555 1_555
C101_3 C96_3 1_555 1_555
C102_3 C99_3 1_555 1_555
C103_3 C92_3 1_555 1_555
C104_3 C103_3 1_555 1_555
C105_3 C104_3 1_555 1_555
C106_3 C105_3 1_555 1_555
C107_3 C106_3 1_555 1_555
C108_3 C103_3 1_555 1_555
C109_3 C106_3 1_555 1_555
H46_3 C85_3 1_555 1_555
H47_3 C86_3 1_555 1_555
H48_3 C88_3 1_555 1_555
H49_3 C89_3 1_555 1_555
H50_3 C91_3 1_555 1_555
H51_3 C93_3 1_555 1_555
H52_3 C95_3 1_555 1_555
H53_3 C97_3 1_555 1_555
H54_3 C98_3 1_555 1_555
H55_3 C100_3 1_555 1_555
H56_3 C101_3 1_555 1_555
H57_3 C104_3 1_555 1_555
H58_3 C105_3 1_555 1_555
H59_3 C107_3 1_555 1_555
H60_3 C108_3 1_555 1_555
O23_3 C83_3 1_555 1_555
O24_3 C83_3 1_555 1_555
O48_2 C102_3 1_555 1_555
O51_2 C102_3 1_555 1_555
O27_3 C109_3 1_555 1_555
O28_3 C109_3 1_555 1_555
C110_3 C112_3 1_555 1_555
C111_3 C112_3 1_555 1_555
C112_3 C113_3 1_555 1_555
C113_3 C114_3 1_555 1_555
C114_3 C115_3 1_555 1_555
C115_3 C116_3 1_555 1_555
C116_3 C111_3 1_555 1_555
C117_3 C119_3 1_555 1_555
C118_3 C119_3 1_555 1_555
C119_3 C120_3 1_555 1_555
C120_3 C121_3 1_555 1_555
C121_3 C122_3 1_555 1_555
C122_3 C123_3 1_555 1_555
C123_3 C118_3 1_555 1_555
C124_3 C125_3 1_555 1_555
C125_3 C126_3 1_555 1_555
C126_3 C127_3 1_555 1_555
C127_3 C128_3 1_555 1_555
C128_3 C129_3 1_555 1_555
C129_3 C130_3 1_555 1_555
C130_3 C125_3 1_555 1_555
C131_3 C128_3 1_555 1_555
C132_3 C131_3 1_555 1_555
C133_3 C132_3 1_555 1_555
C134_3 C133_3 1_555 1_555
C135_3 C134_3 1_555 1_555
C136_3 C131_3 1_555 1_555
C137_3 C135_3 1_555 1_555
C138_3 C137_3 1_555 1_555
C139_3 C138_3 1_555 1_555
C140_3 C139_3 1_555 1_555
C141_3 C140_3 1_555 1_555
C142_3 C137_3 1_555 1_555
C143_3 C140_3 1_555 1_555
C144_3 C133_3 1_555 1_555
C145_3 C144_3 1_555 1_555
C146_3 C145_3 1_555 1_555
C147_3 C146_3 1_555 1_555
C148_3 C147_3 1_555 1_555
C149_3 C144_3 1_555 1_555
C150_3 C147_3 1_555 1_555
Fe13_3 O27_3 1_555 1_555
H64_3 C113_3 1_555 1_555
H65_3 C115_3 1_555 1_555
H66_3 C116_3 1_555 1_555
H67_3 C120_3 1_555 1_555
H68_3 C122_3 1_555 1_555
H69_3 C123_3 1_555 1_555
H70_3 C126_3 1_555 1_555
H71_3 C127_3 1_555 1_555
H72_3 C129_3 1_555 1_555
H73_3 C130_3 1_555 1_555
H74_3 C132_3 1_555 1_555
H75_3 C134_3 1_555 1_555
H76_3 C136_3 1_555 1_555
H77_3 C138_3 1_555 1_555
H78_3 C139_3 1_555 1_555
H79_3 C141_3 1_555 1_555
H80_3 C142_3 1_555 1_555
H81_3 C145_3 1_555 1_555
H82_3 C146_3 1_555 1_555
H83_3 C148_3 1_555 1_555
H84_3 C149_3 1_555 1_555
H85_3 C111_3 1_555 1_555
H86_3 C118_3 1_555 1_555
N5_3 C114_3 1_555 1_555
N6_3 C121_3 1_555 1_555
O31_3 C110_3 1_555 1_555
O32_3 C110_3 1_555 1_555
O44_3 C117_3 1_555 1_555
O46_3 C117_3 1_555 1_555
O35_3 C124_3 1_555 1_555
O36_3 C124_3 1_555 1_555
O49_2 C143_3 1_555 1_555
O52_2 C143_3 1_555 1_555
O54_3 C150_3 1_555 1_555
O56_3 C150_3 1_555 1_555
Fe20 O35_3 1_555 1_555
Fe26 O28_3 1_555 1_555
O41_3 Fe13_3 1_555 1_555
H87_3 O42_3 1_555 1_555
O42_3 Fe13_3 1_555 1_555
C94_3 C95_3 1_555 1_555
C100_3 C101_3 1_555 1_555
C107_3 C108_3 1_555 1_555
O23_3 Fe19 1_555 1_555
C135_3 C136_3 1_555 1_555
C141_3 C142_3 1_555 1_555
C148_3 C149_3 1_555 1_555
Fe13_3 O32_3 1_555 1_555
Fe13_3 O36_3 1_555 1_555
N5_3 N6_3 1_555 1_555
O31_3 Fe26 1_555 1_555
Fe20 O41_3 1_555 1_555
Fe26 O41_3 1_555 1_555
O42_3 H90_3 1_555 1_555

#END
