
###############################################################################
#
# This file contains modified crystal structure data generated from the
# MOF subset of the Cambridge Structural Database (CSD) v543 
# hosted by the Cambridge Crystallographic Data Centre (CCDC).
#
# This work is licensed under the Creative Commons
# Attribution-NonCommercial-ShareAlike 4.0 International License.
# To view a copy of this license, visit
# http://creativecommons.org/licenses/by-nc-sa/4.0/
# or send a letter to
# Creative Commons, PO Box 1866, Mountain View, CA 94042, USA.
#
# CIF created using the CSD Python API on 29 September 2022
# The structure has been converted into the P1 space group
# The structure has a 3D framework
# The original CSD entry HAJKIO is in the orthorhombic crystal system
# The framework has been calculated to contain at least 10.0% void space
# The void calculation uses a probe of radius 1.32A, grid spacing 0.4
#
###############################################################################

data_HAJKIO
_chemical_formula_moiety         '(C192 H160 Cd16 N64 O64)n'
_symmetry_cell_setting           triclinic
_symmetry_space_group_name_H-M   'P 1'
_symmetry_Int_Tables_number      1
_space_group_name_Hall           'P 1'
loop_
_symmetry_equiv_pos_site_id
_symmetry_equiv_pos_as_xyz
1 x,y,z
_cell_length_a                   12.869(5)
_cell_length_b                   23.643(10)
_cell_length_c                   24.900(11)
_cell_angle_alpha                90
_cell_angle_beta                 90
_cell_angle_gamma                90
_cell_volume                     7576.12
loop_
_atom_site_label
_atom_site_type_symbol
_atom_site_fract_x
_atom_site_fract_y
_atom_site_fract_z
C3 C 0.5794(4) 0.2053(2) 0.0068(2)
C4 C 0.6102(3) 0.2429(3) 0.0454(3)
H2 H 0.6811 0.2464 0.0519
C5 C 0.4429(3) 0.27088(18) 0.06552(19)
C6 C 0.4051(3) 0.2345(2) 0.0251(2)
H3 H 0.3341 0.2321 0.0185
Cd1 Cd 0.6250 0.342120(16) 0.1250
N1 N 0.5449(3) 0.27523(15) 0.07489(16)
N2 N 0.3780(3) 0.3014(3) 0.0967(3)
H4 H 0.4025 0.3410 0.0987
H5 H 0.3170 0.3025 0.0840
C7 C 0.8171(3) 0.16316(18) 0.2968(2)
C8 C 0.7767(3) 0.20260(18) 0.25430(17)
C9 C 0.6706(4) 0.2053(2) 0.2432(2)
H6 H 0.6230 0.1827 0.2613
C10 C 0.6398(3) 0.2429(3) 0.2046(3)
H7 H 0.5689 0.2464 0.1981
C11 C 0.8071(3) 0.27088(18) 0.18448(19)
C12 C 0.8449(3) 0.2345(2) 0.2249(2)
H8 H 0.9159 0.2321 0.2315
Cd3 Cd 0.8750 0.092120(16) 0.3750
N3 N 0.7051(3) 0.27523(15) 0.17511(16)
N4 N 0.8720(3) 0.3014(3) 0.1533(3)
H9 H 0.8475 0.3410 0.1513
H10 H 0.9330 0.3025 0.1660
O3 O 0.9114(3) 0.16495(17) 0.30967(17)
O4 O 0.5886(3) 0.41495(17) 0.05967(17)
O5 O 0.6614(3) 0.41495(17) 0.19033(17)
O6 O 0.7540(3) 0.12917(13) 0.31815(15)
O7 O 0.7460(3) 0.37917(13) 0.06815(15)
O8 O 0.5040(3) 0.37917(13) 0.18185(15)
C1 C 0.4329(3) 0.16316(18) 0.9532(2)
C2 C 0.4733(3) 0.20260(18) 0.99570(17)
H1 H 0.6270 0.1827 0.9887
O1 O 0.3386(3) 0.16495(17) 0.94033(17)
O2 O 0.4960(3) 0.12917(13) 0.93185(15)
Cd2 Cd 0.3750 0.092120(16) 0.8750
C1_2 C 0.4329(3) 0.66316(18) 0.4532(2)
C2_2 C 0.4733(3) 0.70260(18) 0.49570(17)
C3_2 C 0.5794(4) 0.7053(2) 0.5068(2)
H1_2 H 0.6270 0.6827 0.4887
C4_2 C 0.6102(3) 0.7429(3) 0.5454(3)
H2_2 H 0.6811 0.7464 0.5519
C5_2 C 0.4429(3) 0.77088(18) 0.56552(19)
C6_2 C 0.4051(3) 0.7345(2) 0.5251(2)
H3_2 H 0.3341 0.7321 0.5185
Cd1_2 Cd 0.6250 0.842120(16) 0.6250
N1_2 N 0.5449(3) 0.77523(15) 0.57489(16)
N2_2 N 0.3780(3) 0.8014(3) 0.5967(3)
H4_2 H 0.4025 0.8410 0.5987
H5_2 H 0.3170 0.8025 0.5840
O1_2 O 0.3386(3) 0.66495(17) 0.44033(17)
O2_2 O 0.4960(3) 0.62917(13) 0.43185(15)
C7_2 C 0.8171(3) 0.66316(18) 0.7968(2)
C8_2 C 0.7767(3) 0.70260(18) 0.75430(17)
C9_2 C 0.6706(4) 0.7053(2) 0.7432(2)
H6_2 H 0.6230 0.6827 0.7613
C10_2 C 0.6398(3) 0.7429(3) 0.7046(3)
H7_2 H 0.5689 0.7464 0.6981
C11_2 C 0.8071(3) 0.77088(18) 0.68448(19)
C12_2 C 0.8449(3) 0.7345(2) 0.7249(2)
H8_2 H 0.9159 0.7321 0.7315
Cd2_2 Cd 0.3750 0.592120(16) 0.3750
Cd3_2 Cd 0.8750 0.592120(16) 0.8750
N3_2 N 0.7051(3) 0.77523(15) 0.67511(16)
N4_2 N 0.8720(3) 0.8014(3) 0.6533(3)
H9_2 H 0.8475 0.8410 0.6513
H10_2 H 0.9330 0.8025 0.6660
O3_2 O 0.9114(3) 0.66495(17) 0.80967(17)
O4_2 O 0.5886(3) 0.91495(17) 0.55967(17)
O5_2 O 0.6614(3) 0.91495(17) 0.69033(17)
O6_2 O 0.7540(3) 0.62917(13) 0.81815(15)
O7_2 O 0.7460(3) 0.87917(13) 0.56815(15)
O8_2 O 0.5040(3) 0.87917(13) 0.68185(15)
C3_3 C 0.0794(4) 0.2053(2) 0.5068(2)
H1_3 H 0.1270 0.1827 0.4887
C4_3 C 0.1102(3) 0.2429(3) 0.5454(3)
H2_3 H 0.1811 0.2464 0.5519
Cd1_3 Cd 0.1250 0.342120(16) 0.6250
N1_3 N 0.0449(3) 0.27523(15) 0.57489(16)
C7_3 C 0.3171(3) 0.16316(18) 0.7968(2)
C8_3 C 0.2767(3) 0.20260(18) 0.75430(17)
C9_3 C 0.1706(4) 0.2053(2) 0.7432(2)
H6_3 H 0.1230 0.1827 0.7613
C10_3 C 0.1398(3) 0.2429(3) 0.7046(3)
H7_3 H 0.0689 0.2464 0.6981
C11_3 C 0.3071(3) 0.27088(18) 0.68448(19)
C12_3 C 0.3449(3) 0.2345(2) 0.7249(2)
H8_3 H 0.4159 0.2321 0.7315
N3_3 N 0.2051(3) 0.27523(15) 0.67511(16)
N4_3 N 0.3720(3) 0.3014(3) 0.6533(3)
H9_3 H 0.3475 0.3410 0.6513
H10_3 H 0.4330 0.3025 0.6660
O3_3 O 0.4114(3) 0.16495(17) 0.80967(17)
O4_3 O 0.0886(3) 0.41495(17) 0.55967(17)
O5_3 O 0.1614(3) 0.41495(17) 0.69033(17)
O6_3 O 0.2540(3) 0.12917(13) 0.81815(15)
O7_3 O 0.2460(3) 0.37917(13) 0.56815(15)
O8_3 O 0.0040(3) 0.37917(13) 0.68185(15)
C1_3 C 0.9329(3) 0.16316(18) 0.4532(2)
C2_3 C 0.9733(3) 0.20260(18) 0.49570(17)
C5_3 C 0.9429(3) 0.27088(18) 0.56552(19)
C6_3 C 0.9051(3) 0.2345(2) 0.5251(2)
H3_3 H 0.8341 0.2321 0.5185
N2_3 N 0.8780(3) 0.3014(3) 0.5967(3)
H4_3 H 0.9025 0.3410 0.5987
H5_3 H 0.8170 0.3025 0.5840
O1_3 O 0.8386(3) 0.16495(17) 0.44033(17)
O2_3 O 0.9960(3) 0.12917(13) 0.43185(15)
C3_4 C 0.0794(4) 0.7053(2) 0.0068(2)
C4_4 C 0.1102(3) 0.7429(3) 0.0454(3)
H2_4 H 0.1811 0.7464 0.0519
Cd1_4 Cd 0.1250 0.842120(16) 0.1250
N1_4 N 0.0449(3) 0.77523(15) 0.07489(16)
C7_4 C 0.3171(3) 0.66316(18) 0.2968(2)
C8_4 C 0.2767(3) 0.70260(18) 0.25430(17)
C9_4 C 0.1706(4) 0.7053(2) 0.2432(2)
H6_4 H 0.1230 0.6827 0.2613
C10_4 C 0.1398(3) 0.7429(3) 0.2046(3)
H7_4 H 0.0689 0.7464 0.1981
C11_4 C 0.3071(3) 0.77088(18) 0.18448(19)
C12_4 C 0.3449(3) 0.7345(2) 0.2249(2)
H8_4 H 0.4159 0.7321 0.2315
N3_4 N 0.2051(3) 0.77523(15) 0.17511(16)
N4_4 N 0.3720(3) 0.8014(3) 0.1533(3)
H9_4 H 0.3475 0.8410 0.1513
H10_4 H 0.4330 0.8025 0.1660
O3_4 O 0.4114(3) 0.66495(17) 0.30967(17)
O4_4 O 0.0886(3) 0.91495(17) 0.05967(17)
O5_4 O 0.1614(3) 0.91495(17) 0.19033(17)
O6_4 O 0.2540(3) 0.62917(13) 0.31815(15)
O7_4 O 0.2460(3) 0.87917(13) 0.06815(15)
O8_4 O 0.0040(3) 0.87917(13) 0.18185(15)
C1_4 C 0.9329(3) 0.66316(18) 0.9532(2)
C2_4 C 0.9733(3) 0.70260(18) 0.99570(17)
O1_4 O 0.8386(3) 0.66495(17) 0.94033(17)
O2_4 O 0.9960(3) 0.62917(13) 0.93185(15)
C5_4 C 0.1929(3) 0.02088(18) 0.93448(19)
N1_5 N 0.2949(3) 0.02523(15) 0.92511(16)
N2_4 N 0.1280(3) 0.0514(3) 0.9033(3)
H4_4 H 0.1525 0.0910 0.9013
H5_4 H 0.0670 0.0525 0.9160
C11_5 C 0.5571(3) 0.02088(18) 0.81552(19)
N3_5 N 0.4551(3) 0.02523(15) 0.82489(16)
N4_5 N 0.6220(3) 0.0514(3) 0.8467(3)
H9_5 H 0.5975 0.0910 0.8487
H10_5 H 0.6830 0.0525 0.8340
C1_5 C 0.1829(3) 0.91316(18) 0.0468(2)
C2_5 C 0.2233(3) 0.95260(18) 0.00430(17)
H1_4 H 0.3770 0.9327 0.0113
C3_5 C 0.3294(4) 0.9553(2) 0.9932(2)
C4_5 C 0.3602(3) 0.9929(3) 0.9546(3)
H2_5 H 0.4311 0.9964 0.9481
C6_4 C 0.1551(3) 0.9845(2) 0.9749(2)
H3_4 H 0.0841 0.9821 0.9815
C7_5 C 0.5671(3) 0.91316(18) 0.7032(2)
C8_5 C 0.5267(3) 0.95260(18) 0.74570(17)
C9_5 C 0.4206(4) 0.9553(2) 0.7568(2)
H6_5 H 0.3730 0.9327 0.7387
C10_5 C 0.3898(3) 0.9929(3) 0.7954(3)
H7_5 H 0.3189 0.9964 0.8019
C12_5 C 0.5949(3) 0.9845(2) 0.7751(2)
H8_5 H 0.6659 0.9821 0.7685
C1_6 C 0.1829(3) 0.41316(18) 0.5468(2)
C2_6 C 0.2233(3) 0.45260(18) 0.50430(17)
C3_6 C 0.3294(4) 0.4553(2) 0.4932(2)
H1_5 H 0.3770 0.4327 0.5113
C4_6 C 0.3602(3) 0.4929(3) 0.4546(3)
H2_6 H 0.4311 0.4964 0.4481
C5_5 C 0.1929(3) 0.52088(18) 0.43448(19)
C6_5 C 0.1551(3) 0.4845(2) 0.4749(2)
H3_5 H 0.0841 0.4821 0.4815
N1_6 N 0.2949(3) 0.52523(15) 0.42511(16)
N2_5 N 0.1280(3) 0.5514(3) 0.4033(3)
H4_5 H 0.1525 0.5910 0.4013
H5_5 H 0.0670 0.5525 0.4160
C7_6 C 0.5671(3) 0.41316(18) 0.2032(2)
C8_6 C 0.5267(3) 0.45260(18) 0.24570(17)
C9_6 C 0.4206(4) 0.4553(2) 0.2568(2)
H6_6 H 0.3730 0.4327 0.2387
C10_6 C 0.3898(3) 0.4929(3) 0.2954(3)
H7_6 H 0.3189 0.4964 0.3019
C11_6 C 0.5571(3) 0.52088(18) 0.31552(19)
C12_6 C 0.5949(3) 0.4845(2) 0.2751(2)
H8_6 H 0.6659 0.4821 0.2685
N3_6 N 0.4551(3) 0.52523(15) 0.32489(16)
N4_6 N 0.6220(3) 0.5514(3) 0.3467(3)
H9_6 H 0.5975 0.5910 0.3487
H10_6 H 0.6830 0.5525 0.3340
C7_7 C 0.0671(3) 0.91316(18) 0.2032(2)
C8_7 C 0.0267(3) 0.95260(18) 0.24570(17)
C12_7 C 0.0949(3) 0.9845(2) 0.2751(2)
H8_7 H 0.1659 0.9821 0.2685
C5_6 C 0.6929(3) 0.02088(18) 0.43448(19)
N1_7 N 0.7949(3) 0.02523(15) 0.42511(16)
N2_6 N 0.6280(3) 0.0514(3) 0.4033(3)
H4_6 H 0.6525 0.0910 0.4013
H5_6 H 0.5670 0.0525 0.4160
N3_7 N 0.9551(3) 0.02523(15) 0.32489(16)
C1_7 C 0.6829(3) 0.91316(18) 0.5468(2)
C2_7 C 0.7233(3) 0.95260(18) 0.50430(17)
C3_7 C 0.8294(4) 0.9553(2) 0.4932(2)
H1_6 H 0.8770 0.9327 0.5113
C4_7 C 0.8602(3) 0.9929(3) 0.4546(3)
H2_7 H 0.9311 0.9964 0.4481
C6_6 C 0.6551(3) 0.9845(2) 0.4749(2)
H3_6 H 0.5841 0.9821 0.4815
C9_7 C 0.9206(4) 0.9553(2) 0.2568(2)
H6_7 H 0.8730 0.9327 0.2387
C10_7 C 0.8898(3) 0.9929(3) 0.2954(3)
H7_7 H 0.8189 0.9964 0.3019
C7_8 C 0.0671(3) 0.41316(18) 0.7032(2)
C8_8 C 0.0267(3) 0.45260(18) 0.74570(17)
C11_7 C 0.0571(3) 0.52088(18) 0.81552(19)
C12_8 C 0.0949(3) 0.4845(2) 0.7751(2)
H8_8 H 0.1659 0.4821 0.7685
N4_7 N 0.1220(3) 0.5514(3) 0.8467(3)
H9_7 H 0.0975 0.5910 0.8487
H10_7 H 0.1830 0.5525 0.8340
C1_8 C 0.6829(3) 0.41316(18) 0.0468(2)
C2_8 C 0.7233(3) 0.45260(18) 0.00430(17)
H1_7 H 0.8770 0.4327 0.0113
C3_8 C 0.8294(4) 0.4553(2) 0.9932(2)
C4_8 C 0.8602(3) 0.4929(3) 0.9546(3)
H2_8 H 0.9311 0.4964 0.9481
C5_7 C 0.6929(3) 0.52088(18) 0.93448(19)
C6_7 C 0.6551(3) 0.4845(2) 0.9749(2)
H3_7 H 0.5841 0.4821 0.9815
N1_8 N 0.7949(3) 0.52523(15) 0.92511(16)
N2_7 N 0.6280(3) 0.5514(3) 0.9033(3)
H4_7 H 0.6525 0.5910 0.9013
H5_7 H 0.5670 0.5525 0.9160
C9_8 C 0.9206(4) 0.4553(2) 0.7568(2)
H6_8 H 0.8730 0.4327 0.7387
C10_8 C 0.8898(3) 0.4929(3) 0.7954(3)
H7_8 H 0.8189 0.4964 0.8019
N3_8 N 0.9551(3) 0.52523(15) 0.82489(16)
C3_9 C 0.6706(4) 0.0447(2) 0.0068(2)
C4_9 C 0.6398(3) 0.0071(3) 0.0454(3)
H2_9 H 0.5689 0.0036 0.0519
C6_8 C 0.8449(3) 0.0155(2) 0.0251(2)
H3_8 H 0.9159 0.0179 0.0185
C7_9 C 0.4329(3) 0.08684(18) 0.2968(2)
C8_9 C 0.4733(3) 0.04740(18) 0.25430(17)
C9_9 C 0.5794(4) 0.0447(2) 0.2432(2)
H6_9 H 0.6270 0.0673 0.2613
C10_9 C 0.6102(3) 0.0071(3) 0.2046(3)
H7_9 H 0.6811 0.0036 0.1981
C12_9 C 0.4051(3) 0.0155(2) 0.2249(2)
H8_9 H 0.3341 0.0179 0.2315
Cd3_3 Cd 0.3750 0.157880(16) 0.3750
O3_5 O 0.3386(3) 0.08505(17) 0.30967(17)
O6_5 O 0.4960(3) 0.12083(13) 0.31815(15)
C1_9 C 0.8171(3) 0.08684(18) 0.9532(2)
C2_9 C 0.7767(3) 0.04740(18) 0.99570(17)
H1_8 H 0.6230 0.0673 0.9887
O1_5 O 0.9114(3) 0.08505(17) 0.94033(17)
O2_5 O 0.7540(3) 0.12083(13) 0.93185(15)
Cd2_3 Cd 0.8750 0.157880(16) 0.8750
C5_8 C 0.8071(3) 0.97912(18) 0.06552(19)
Cd1_5 Cd 0.6250 0.907880(16) 0.1250
N1_9 N 0.7051(3) 0.97477(15) 0.07489(16)
N2_8 N 0.8720(3) 0.9486(3) 0.0967(3)
H4_8 H 0.8475 0.9090 0.0987
H5_8 H 0.9330 0.9475 0.0840
C11_8 C 0.4429(3) 0.97912(18) 0.18448(19)
N3_9 N 0.5449(3) 0.97477(15) 0.17511(16)
N4_8 N 0.3780(3) 0.9486(3) 0.1533(3)
H9_8 H 0.4025 0.9090 0.1513
H10_8 H 0.3170 0.9475 0.1660
O4_5 O 0.6614(3) 0.83505(17) 0.05967(17)
O5_5 O 0.5886(3) 0.83505(17) 0.19033(17)
O7_5 O 0.5040(3) 0.87083(13) 0.06815(15)
O8_5 O 0.7460(3) 0.87083(13) 0.18185(15)
C1_10 C 0.8171(3) 0.58684(18) 0.4532(2)
C2_10 C 0.7767(3) 0.54740(18) 0.49570(17)
C3_10 C 0.6706(4) 0.5447(2) 0.5068(2)
H1_9 H 0.6230 0.5673 0.4887
C4_10 C 0.6398(3) 0.5071(3) 0.5454(3)
H2_10 H 0.5689 0.5036 0.5519
C5_9 C 0.8071(3) 0.47912(18) 0.56552(19)
C6_9 C 0.8449(3) 0.5155(2) 0.5251(2)
H3_9 H 0.9159 0.5179 0.5185
Cd1_6 Cd 0.6250 0.407880(16) 0.6250
N1_10 N 0.7051(3) 0.47477(15) 0.57489(16)
N2_9 N 0.8720(3) 0.4486(3) 0.5967(3)
H4_9 H 0.8475 0.4090 0.5987
H5_9 H 0.9330 0.4475 0.5840
O1_6 O 0.9114(3) 0.58505(17) 0.44033(17)
O2_6 O 0.7540(3) 0.62083(13) 0.43185(15)
C7_10 C 0.4329(3) 0.58684(18) 0.7968(2)
C8_10 C 0.4733(3) 0.54740(18) 0.75430(17)
C9_10 C 0.5794(4) 0.5447(2) 0.7432(2)
H6_10 H 0.6270 0.5673 0.7613
C10_10 C 0.6102(3) 0.5071(3) 0.7046(3)
H7_10 H 0.6811 0.5036 0.6981
C11_9 C 0.4429(3) 0.47912(18) 0.68448(19)
C12_10 C 0.4051(3) 0.5155(2) 0.7249(2)
H8_10 H 0.3341 0.5179 0.7315
Cd2_4 Cd 0.8750 0.657880(16) 0.3750
Cd3_4 Cd 0.3750 0.657880(16) 0.8750
N3_10 N 0.5449(3) 0.47477(15) 0.67511(16)
N4_9 N 0.3780(3) 0.4486(3) 0.6533(3)
H9_9 H 0.4025 0.4090 0.6513
H10_9 H 0.3170 0.4475 0.6660
O3_6 O 0.3386(3) 0.58505(17) 0.80967(17)
O4_6 O 0.6614(3) 0.33505(17) 0.55967(17)
O5_6 O 0.5886(3) 0.33505(17) 0.69033(17)
O6_6 O 0.4960(3) 0.62083(13) 0.81815(15)
O7_6 O 0.5040(3) 0.37083(13) 0.56815(15)
O8_6 O 0.7460(3) 0.37083(13) 0.68185(15)
C1_11 C 0.3171(3) 0.08684(18) 0.4532(2)
C2_11 C 0.2767(3) 0.04740(18) 0.49570(17)
C3_11 C 0.1706(4) 0.0447(2) 0.5068(2)
H1_10 H 0.1230 0.0673 0.4887
C4_11 C 0.1398(3) 0.0071(3) 0.5454(3)
H2_11 H 0.0689 0.0036 0.5519
C6_10 C 0.3449(3) 0.0155(2) 0.5251(2)
H3_10 H 0.4159 0.0179 0.5185
O1_7 O 0.4114(3) 0.08505(17) 0.44033(17)
O2_7 O 0.2540(3) 0.12083(13) 0.43185(15)
C9_11 C 0.0794(4) 0.0447(2) 0.7432(2)
H6_11 H 0.1270 0.0673 0.7613
C10_11 C 0.1102(3) 0.0071(3) 0.7046(3)
H7_11 H 0.1811 0.0036 0.6981
C5_10 C 0.3071(3) 0.97912(18) 0.56552(19)
Cd1_7 Cd 0.1250 0.907880(16) 0.6250
N1_11 N 0.2051(3) 0.97477(15) 0.57489(16)
N2_10 N 0.3720(3) 0.9486(3) 0.5967(3)
H4_10 H 0.3475 0.9090 0.5987
H5_10 H 0.4330 0.9475 0.5840
N3_11 N 0.0449(3) 0.97477(15) 0.67511(16)
O4_7 O 0.1614(3) 0.83505(17) 0.55967(17)
O5_7 O 0.0886(3) 0.83505(17) 0.69033(17)
O7_7 O 0.0040(3) 0.87083(13) 0.56815(15)
O8_7 O 0.2460(3) 0.87083(13) 0.68185(15)
C7_11 C 0.9329(3) 0.08684(18) 0.7968(2)
C8_11 C 0.9733(3) 0.04740(18) 0.75430(17)
C12_11 C 0.9051(3) 0.0155(2) 0.7249(2)
H8_11 H 0.8341 0.0179 0.7315
O3_7 O 0.8386(3) 0.08505(17) 0.80967(17)
O6_7 O 0.9960(3) 0.12083(13) 0.81815(15)
C3_12 C 0.1706(4) 0.5447(2) 0.0068(2)
C4_12 C 0.1398(3) 0.5071(3) 0.0454(3)
H2_12 H 0.0689 0.5036 0.0519
C5_11 C 0.3071(3) 0.47912(18) 0.06552(19)
C6_11 C 0.3449(3) 0.5155(2) 0.0251(2)
H3_11 H 0.4159 0.5179 0.0185
Cd1_8 Cd 0.1250 0.407880(16) 0.1250
N1_12 N 0.2051(3) 0.47477(15) 0.07489(16)
N2_11 N 0.3720(3) 0.4486(3) 0.0967(3)
H4_11 H 0.3475 0.4090 0.0987
H5_11 H 0.4330 0.4475 0.0840
C9_12 C 0.0794(4) 0.5447(2) 0.2432(2)
H6_12 H 0.1270 0.5673 0.2613
C10_12 C 0.1102(3) 0.5071(3) 0.2046(3)
H7_12 H 0.1811 0.5036 0.1981
N3_12 N 0.0449(3) 0.47477(15) 0.17511(16)
O4_8 O 0.1614(3) 0.33505(17) 0.05967(17)
O5_8 O 0.0886(3) 0.33505(17) 0.19033(17)
O7_8 O 0.0040(3) 0.37083(13) 0.06815(15)
O8_8 O 0.2460(3) 0.37083(13) 0.18185(15)
C1_12 C 0.3171(3) 0.58684(18) 0.9532(2)
C2_12 C 0.2767(3) 0.54740(18) 0.99570(17)
H1_11 H 0.1230 0.5673 0.9887
O1_8 O 0.4114(3) 0.58505(17) 0.94033(17)
O2_8 O 0.2540(3) 0.62083(13) 0.93185(15)
C7_12 C 0.9329(3) 0.58684(18) 0.2968(2)
C8_12 C 0.9733(3) 0.54740(18) 0.25430(17)
C11_10 C 0.9429(3) 0.47912(18) 0.18448(19)
C12_12 C 0.9051(3) 0.5155(2) 0.2249(2)
H8_12 H 0.8341 0.5179 0.2315
N4_10 N 0.8780(3) 0.4486(3) 0.1533(3)
H9_10 H 0.9025 0.4090 0.1513
H10_10 H 0.8170 0.4475 0.1660
O3_8 O 0.8386(3) 0.58505(17) 0.30967(17)
O6_8 O 0.9960(3) 0.62083(13) 0.31815(15)
C1_13 C 0.5671(3) 0.83684(18) 0.0468(2)
C2_13 C 0.5267(3) 0.79740(18) 0.00430(17)
H1_12 H 0.3730 0.8173 0.0113
C3_13 C 0.4206(4) 0.7947(2) 0.9932(2)
C4_13 C 0.3898(3) 0.7571(3) 0.9546(3)
H2_13 H 0.3189 0.7536 0.9481
C5_12 C 0.5571(3) 0.72912(18) 0.93448(19)
C6_12 C 0.5949(3) 0.7655(2) 0.9749(2)
H3_12 H 0.6659 0.7679 0.9815
N1_13 N 0.4551(3) 0.72477(15) 0.92511(16)
N2_12 N 0.6220(3) 0.6986(3) 0.9033(3)
H4_12 H 0.5975 0.6590 0.9013
H5_12 H 0.6830 0.6975 0.9160
C7_13 C 0.1829(3) 0.83684(18) 0.7032(2)
C8_13 C 0.2233(3) 0.79740(18) 0.74570(17)
C9_13 C 0.3294(4) 0.7947(2) 0.7568(2)
H6_13 H 0.3770 0.8173 0.7387
C10_13 C 0.3602(3) 0.7571(3) 0.7954(3)
H7_13 H 0.4311 0.7536 0.8019
C11_11 C 0.1929(3) 0.72912(18) 0.81552(19)
C12_13 C 0.1551(3) 0.7655(2) 0.7751(2)
H8_13 H 0.0841 0.7679 0.7685
N3_13 N 0.2949(3) 0.72477(15) 0.82489(16)
N4_11 N 0.1280(3) 0.6986(3) 0.8467(3)
H9_11 H 0.1525 0.6590 0.8487
H10_11 H 0.0670 0.6975 0.8340
C1_14 C 0.5671(3) 0.33684(18) 0.5468(2)
C2_14 C 0.5267(3) 0.29740(18) 0.50430(17)
C3_14 C 0.4206(4) 0.2947(2) 0.4932(2)
H1_13 H 0.3730 0.3173 0.5113
C4_14 C 0.3898(3) 0.2571(3) 0.4546(3)
H2_14 H 0.3189 0.2536 0.4481
C5_13 C 0.5571(3) 0.22912(18) 0.43448(19)
C6_13 C 0.5949(3) 0.2655(2) 0.4749(2)
H3_13 H 0.6659 0.2679 0.4815
N1_14 N 0.4551(3) 0.22477(15) 0.42511(16)
N2_13 N 0.6220(3) 0.1986(3) 0.4033(3)
H4_13 H 0.5975 0.1590 0.4013
H5_13 H 0.6830 0.1975 0.4160
C7_14 C 0.1829(3) 0.33684(18) 0.2032(2)
C8_14 C 0.2233(3) 0.29740(18) 0.24570(17)
C9_14 C 0.3294(4) 0.2947(2) 0.2568(2)
H6_14 H 0.3770 0.3173 0.2387
C10_14 C 0.3602(3) 0.2571(3) 0.2954(3)
H7_14 H 0.4311 0.2536 0.3019
C11_12 C 0.1929(3) 0.22912(18) 0.31552(19)
C12_14 C 0.1551(3) 0.2655(2) 0.2751(2)
H8_14 H 0.0841 0.2679 0.2685
N3_14 N 0.2949(3) 0.22477(15) 0.32489(16)
N4_12 N 0.1280(3) 0.1986(3) 0.3467(3)
H9_12 H 0.1525 0.1590 0.3487
H10_12 H 0.0670 0.1975 0.3340
C1_15 C 0.0671(3) 0.83684(18) 0.5468(2)
C2_15 C 0.0267(3) 0.79740(18) 0.50430(17)
C5_14 C 0.0571(3) 0.72912(18) 0.43448(19)
C6_14 C 0.0949(3) 0.7655(2) 0.4749(2)
H3_14 H 0.1659 0.7679 0.4815
N2_14 N 0.1220(3) 0.6986(3) 0.4033(3)
H4_14 H 0.0975 0.6590 0.4013
H5_14 H 0.1830 0.6975 0.4160
C3_15 C 0.9206(4) 0.7947(2) 0.4932(2)
H1_14 H 0.8730 0.8173 0.5113
C4_15 C 0.8898(3) 0.7571(3) 0.4546(3)
H2_15 H 0.8189 0.7536 0.4481
N1_15 N 0.9551(3) 0.72477(15) 0.42511(16)
C7_15 C 0.6829(3) 0.83684(18) 0.2032(2)
C8_15 C 0.7233(3) 0.79740(18) 0.24570(17)
C9_15 C 0.8294(4) 0.7947(2) 0.2568(2)
H6_15 H 0.8770 0.8173 0.2387
C10_15 C 0.8602(3) 0.7571(3) 0.2954(3)
H7_15 H 0.9311 0.7536 0.3019
C11_13 C 0.6929(3) 0.72912(18) 0.31552(19)
C12_15 C 0.6551(3) 0.7655(2) 0.2751(2)
H8_15 H 0.5841 0.7679 0.2685
N3_15 N 0.7949(3) 0.72477(15) 0.32489(16)
N4_13 N 0.6280(3) 0.6986(3) 0.3467(3)
H9_13 H 0.6525 0.6590 0.3487
H10_13 H 0.5670 0.6975 0.3340
C1_16 C 0.0671(3) 0.33684(18) 0.0468(2)
C2_16 C 0.0267(3) 0.29740(18) 0.00430(17)
C3_16 C 0.9206(4) 0.2947(2) 0.9932(2)
C4_16 C 0.8898(3) 0.2571(3) 0.9546(3)
H2_16 H 0.8189 0.2536 0.9481
N1_16 N 0.9551(3) 0.22477(15) 0.92511(16)
C7_16 C 0.6829(3) 0.33684(18) 0.7032(2)
C8_16 C 0.7233(3) 0.29740(18) 0.74570(17)
C9_16 C 0.8294(4) 0.2947(2) 0.7568(2)
H6_16 H 0.8770 0.3173 0.7387
C10_16 C 0.8602(3) 0.2571(3) 0.7954(3)
H7_16 H 0.9311 0.2536 0.8019
C11_14 C 0.6929(3) 0.22912(18) 0.81552(19)
C12_16 C 0.6551(3) 0.2655(2) 0.7751(2)
H8_16 H 0.5841 0.2679 0.7685
N3_16 N 0.7949(3) 0.22477(15) 0.82489(16)
N4_14 N 0.6280(3) 0.1986(3) 0.8467(3)
H9_14 H 0.6525 0.1590 0.8487
H10_14 H 0.5670 0.1975 0.8340
C11_15 C 0.9429(3) 0.97912(18) 0.68448(19)
N4_15 N 0.8780(3) 0.9486(3) 0.6533(3)
H9_15 H 0.9025 0.9090 0.6513
H10_15 H 0.8170 0.9475 0.6660
H1_15 H 0.1270 0.6827 0.9887
C5_15 C 0.9429(3) 0.77088(18) 0.06552(19)
C6_15 C 0.9051(3) 0.7345(2) 0.0251(2)
H3_15 H 0.8341 0.7321 0.0185
N2_15 N 0.8780(3) 0.8014(3) 0.0967(3)
H4_15 H 0.9025 0.8410 0.0987
H5_15 H 0.8170 0.8025 0.0840
C11_16 C 0.0571(3) 0.02088(18) 0.31552(19)
N4_16 N 0.1220(3) 0.0514(3) 0.3467(3)
H9_16 H 0.0975 0.0910 0.3487
H10_16 H 0.1830 0.0525 0.3340
C5_16 C 0.0571(3) 0.22912(18) 0.93448(19)
C6_16 C 0.0949(3) 0.2655(2) 0.9749(2)
H3_16 H 0.1659 0.2679 0.9815
N2_16 N 0.1220(3) 0.1986(3) 0.9033(3)
H4_16 H 0.0975 0.1590 0.9013
H5_16 H 0.1830 0.1975 0.9160
H1_16 H 0.8730 0.3173 0.0113
loop_
_geom_bond_atom_site_label_1
_geom_bond_atom_site_label_2
_geom_bond_site_symmetry_1
_geom_bond_site_symmetry_2
C4 C3 1_555 1_555
H2 C4 1_555 1_555
C5 C6 1_555 1_555
H3 C6 1_555 1_555
Cd1 N1 1_555 1_555
N1 C4 1_555 1_555
N2 C5 1_555 1_555
H4 N2 1_555 1_555
H5 N2 1_555 1_555
C7 C8 1_555 1_555
C8 C9 1_555 1_555
C9 H6 1_555 1_555
C10 C9 1_555 1_555
H7 C10 1_555 1_555
C11 C12 1_555 1_555
C12 C8 1_555 1_555
H8 C12 1_555 1_555
Cd3 O3 1_555 1_555
N3 Cd1 1_555 1_555
N4 C11 1_555 1_555
H9 N4 1_555 1_555
H10 N4 1_555 1_555
O3 C7 1_555 1_555
O4 Cd1 1_555 1_555
O5 Cd1 1_555 1_555
O6 C7 1_555 1_555
O7 Cd1 1_555 1_555
O8 Cd1 1_555 1_555
C5 N1 1_555 1_555
C10 N3 1_555 1_555
C11 N3 1_555 1_555
Cd3 O6 1_555 1_555
C1 C2 1_555 1_555
O1 C1 1_555 1_555
O2 C1 1_555 1_555
Cd2 O1 1_555 1_555
O2 Cd2 1_555 1_555
C1_2 C2_2 1_555 1_555
C2_2 C3_2 1_555 1_555
C3_2 H1_2 1_555 1_555
C4_2 C3_2 1_555 1_555
H2_2 C4_2 1_555 1_555
C5_2 C6_2 1_555 1_555
C6_2 C2_2 1_555 1_555
H3_2 C6_2 1_555 1_555
Cd1_2 N1_2 1_555 1_555
N1_2 C4_2 1_555 1_555
N2_2 C5_2 1_555 1_555
H4_2 N2_2 1_555 1_555
H5_2 N2_2 1_555 1_555
O1_2 C1_2 1_555 1_555
O2_2 C1_2 1_555 1_555
C7_2 C8_2 1_555 1_555
C8_2 C9_2 1_555 1_555
C9_2 H6_2 1_555 1_555
C10_2 C9_2 1_555 1_555
H7_2 C10_2 1_555 1_555
C11_2 C12_2 1_555 1_555
C12_2 C8_2 1_555 1_555
H8_2 C12_2 1_555 1_555
Cd2_2 O1_2 1_555 1_555
Cd3_2 O3_2 1_555 1_555
N3_2 Cd1_2 1_555 1_555
N4_2 C11_2 1_555 1_555
H9_2 N4_2 1_555 1_555
H10_2 N4_2 1_555 1_555
O3_2 C7_2 1_555 1_555
O4_2 Cd1_2 1_555 1_555
O5_2 Cd1_2 1_555 1_555
O6_2 C7_2 1_555 1_555
O7_2 Cd1_2 1_555 1_555
O8_2 Cd1_2 1_555 1_555
C5_2 N1_2 1_555 1_555
O2_2 Cd2_2 1_555 1_555
C10_2 N3_2 1_555 1_555
C11_2 N3_2 1_555 1_555
Cd3_2 O6_2 1_555 1_555
C3_3 H1_3 1_555 1_555
C4_3 C3_3 1_555 1_555
H2_3 C4_3 1_555 1_555
Cd1_3 N1_3 1_555 1_555
N1_3 C4_3 1_555 1_555
C7_3 C8_3 1_555 1_555
C8_3 C9_3 1_555 1_555
C9_3 H6_3 1_555 1_555
C10_3 C9_3 1_555 1_555
H7_3 C10_3 1_555 1_555
C11_3 C12_3 1_555 1_555
C12_3 C8_3 1_555 1_555
H8_3 C12_3 1_555 1_555
Cd2 O3_3 1_555 1_555
N3_3 Cd1_3 1_555 1_555
N4_3 C11_3 1_555 1_555
H9_3 N4_3 1_555 1_555
H10_3 N4_3 1_555 1_555
O3_3 C7_3 1_555 1_555
O4_3 Cd1_3 1_555 1_555
O5_3 Cd1_3 1_555 1_555
O6_3 C7_3 1_555 1_555
O7_3 Cd1_3 1_555 1_555
O8_3 Cd1_3 1_555 1_555
C10_3 N3_3 1_555 1_555
C11_3 N3_3 1_555 1_555
Cd2 O6_3 1_555 1_555
C1_3 C2_3 1_555 1_555
C5_3 C6_3 1_555 1_555
C6_3 C2_3 1_555 1_555
H3_3 C6_3 1_555 1_555
N2_3 C5_3 1_555 1_555
H4_3 N2_3 1_555 1_555
H5_3 N2_3 1_555 1_555
O1_3 C1_3 1_555 1_555
O2_3 C1_3 1_555 1_555
Cd3 O1_3 1_555 1_555
O2_3 Cd3 1_555 1_555
C4_4 C3_4 1_555 1_555
H2_4 C4_4 1_555 1_555
Cd1_4 N1_4 1_555 1_555
N1_4 C4_4 1_555 1_555
C7_4 C8_4 1_555 1_555
C8_4 C9_4 1_555 1_555
C9_4 H6_4 1_555 1_555
C10_4 C9_4 1_555 1_555
H7_4 C10_4 1_555 1_555
C11_4 C12_4 1_555 1_555
C12_4 C8_4 1_555 1_555
H8_4 C12_4 1_555 1_555
Cd2_2 O3_4 1_555 1_555
N3_4 Cd1_4 1_555 1_555
N4_4 C11_4 1_555 1_555
H9_4 N4_4 1_555 1_555
H10_4 N4_4 1_555 1_555
O3_4 C7_4 1_555 1_555
O4_4 Cd1_4 1_555 1_555
O5_4 Cd1_4 1_555 1_555
O6_4 C7_4 1_555 1_555
O7_4 Cd1_4 1_555 1_555
O8_4 Cd1_4 1_555 1_555
C10_4 N3_4 1_555 1_555
C11_4 N3_4 1_555 1_555
Cd2_2 O6_4 1_555 1_555
C1_4 C2_4 1_555 1_555
O1_4 C1_4 1_555 1_555
O2_4 C1_4 1_555 1_555
Cd3_2 O1_4 1_555 1_555
O2_4 Cd3_2 1_555 1_555
Cd2 N1_5 1_555 1_555
N2_4 C5_4 1_555 1_555
H4_4 N2_4 1_555 1_555
H5_4 N2_4 1_555 1_555
N3_5 Cd2 1_555 1_555
N4_5 C11_5 1_555 1_555
H9_5 N4_5 1_555 1_555
H10_5 N4_5 1_555 1_555
C5_4 N1_5 1_555 1_555
C11_5 N3_5 1_555 1_555
C1_5 C2_5 1_555 1_555
O4_4 C1_5 1_555 1_555
O7_4 C1_5 1_555 1_555
C4_5 C3_5 1_555 1_555
H2_5 C4_5 1_555 1_555
H3_4 C6_4 1_555 1_555
C7_5 C8_5 1_555 1_555
C8_5 C9_5 1_555 1_555
C9_5 H6_5 1_555 1_555
C10_5 C9_5 1_555 1_555
H7_5 C10_5 1_555 1_555
C12_5 C8_5 1_555 1_555
H8_5 C12_5 1_555 1_555
O5_2 C7_5 1_555 1_555
O8_2 C7_5 1_555 1_555
C1_6 C2_6 1_555 1_555
C2_6 C3_6 1_555 1_555
C3_6 H1_5 1_555 1_555
C4_6 C3_6 1_555 1_555
H2_6 C4_6 1_555 1_555
C5_5 C6_5 1_555 1_555
C6_5 C2_6 1_555 1_555
H3_5 C6_5 1_555 1_555
Cd2_2 N1_6 1_555 1_555
N1_6 C4_6 1_555 1_555
N2_5 C5_5 1_555 1_555
H4_5 N2_5 1_555 1_555
H5_5 N2_5 1_555 1_555
O4_3 C1_6 1_555 1_555
O7_3 C1_6 1_555 1_555
C7_6 C8_6 1_555 1_555
C8_6 C9_6 1_555 1_555
C9_6 H6_6 1_555 1_555
C10_6 C9_6 1_555 1_555
H7_6 C10_6 1_555 1_555
C11_6 C12_6 1_555 1_555
C12_6 C8_6 1_555 1_555
H8_6 C12_6 1_555 1_555
N3_6 Cd2_2 1_555 1_555
N4_6 C11_6 1_555 1_555
H9_6 N4_6 1_555 1_555
H10_6 N4_6 1_555 1_555
O5 C7_6 1_555 1_555
O8 C7_6 1_555 1_555
C5_5 N1_6 1_555 1_555
C10_6 N3_6 1_555 1_555
C11_6 N3_6 1_555 1_555
C7_7 C8_7 1_555 1_555
C12_7 C8_7 1_555 1_555
H8_7 C12_7 1_555 1_555
O5_4 C7_7 1_555 1_555
O8_4 C7_7 1_555 1_555
Cd3 N1_7 1_555 1_555
N2_6 C5_6 1_555 1_555
H4_6 N2_6 1_555 1_555
H5_6 N2_6 1_555 1_555
N3_7 Cd3 1_555 1_555
C5_6 N1_7 1_555 1_555
C1_7 C2_7 1_555 1_555
C2_7 C3_7 1_555 1_555
C3_7 H1_6 1_555 1_555
C4_7 C3_7 1_555 1_555
H2_7 C4_7 1_555 1_555
C6_6 C2_7 1_555 1_555
H3_6 C6_6 1_555 1_555
O4_2 C1_7 1_555 1_555
O7_2 C1_7 1_555 1_555
C9_7 H6_7 1_555 1_555
C10_7 C9_7 1_555 1_555
H7_7 C10_7 1_555 1_555
C7_8 C8_8 1_555 1_555
C11_7 C12_8 1_555 1_555
C12_8 C8_8 1_555 1_555
H8_8 C12_8 1_555 1_555
N4_7 C11_7 1_555 1_555
H9_7 N4_7 1_555 1_555
H10_7 N4_7 1_555 1_555
O5_3 C7_8 1_555 1_555
O8_3 C7_8 1_555 1_555
C1_8 C2_8 1_555 1_555
O4 C1_8 1_555 1_555
O7 C1_8 1_555 1_555
C4_8 C3_8 1_555 1_555
H2_8 C4_8 1_555 1_555
C5_7 C6_7 1_555 1_555
H3_7 C6_7 1_555 1_555
Cd3_2 N1_8 1_555 1_555
N1_8 C4_8 1_555 1_555
N2_7 C5_7 1_555 1_555
H4_7 N2_7 1_555 1_555
H5_7 N2_7 1_555 1_555
C9_8 H6_8 1_555 1_555
C10_8 C9_8 1_555 1_555
H7_8 C10_8 1_555 1_555
N3_8 Cd3_2 1_555 1_555
C5_7 N1_8 1_555 1_555
C10_8 N3_8 1_555 1_555
C4_9 C3_9 1_555 1_555
H2_9 C4_9 1_555 1_555
H3_8 C6_8 1_555 1_555
C7_9 C8_9 1_555 1_555
C8_9 C9_9 1_555 1_555
C9_9 H6_9 1_555 1_555
C10_9 C9_9 1_555 1_555
H7_9 C10_9 1_555 1_555
C12_9 C8_9 1_555 1_555
H8_9 C12_9 1_555 1_555
Cd3_3 O3_5 1_555 1_555
O3_5 C7_9 1_555 1_555
O6_5 C7_9 1_555 1_555
Cd3_3 O6_5 1_555 1_555
C1_9 C2_9 1_555 1_555
O1_5 C1_9 1_555 1_555
O2_5 C1_9 1_555 1_555
Cd2_3 O1_5 1_555 1_555
O2_5 Cd2_3 1_555 1_555
Cd1_5 N1_9 1_555 1_555
N2_8 C5_8 1_555 1_555
H4_8 N2_8 1_555 1_555
H5_8 N2_8 1_555 1_555
N3_9 Cd1_5 1_555 1_555
N4_8 C11_8 1_555 1_555
H9_8 N4_8 1_555 1_555
H10_8 N4_8 1_555 1_555
O4_5 Cd1_5 1_555 1_555
O5_5 Cd1_5 1_555 1_555
O7_5 Cd1_5 1_555 1_555
O8_5 Cd1_5 1_555 1_555
C5_8 N1_9 1_555 1_555
C11_8 N3_9 1_555 1_555
C1_10 C2_10 1_555 1_555
C2_10 C3_10 1_555 1_555
C3_10 H1_9 1_555 1_555
C4_10 C3_10 1_555 1_555
H2_10 C4_10 1_555 1_555
C5_9 C6_9 1_555 1_555
C6_9 C2_10 1_555 1_555
H3_9 C6_9 1_555 1_555
Cd1_6 N1_10 1_555 1_555
N1_10 C4_10 1_555 1_555
N2_9 C5_9 1_555 1_555
H4_9 N2_9 1_555 1_555
H5_9 N2_9 1_555 1_555
O1_6 C1_10 1_555 1_555
O2_6 C1_10 1_555 1_555
C7_10 C8_10 1_555 1_555
C8_10 C9_10 1_555 1_555
C9_10 H6_10 1_555 1_555
C10_10 C9_10 1_555 1_555
H7_10 C10_10 1_555 1_555
C11_9 C12_10 1_555 1_555
C12_10 C8_10 1_555 1_555
H8_10 C12_10 1_555 1_555
Cd2_4 O1_6 1_555 1_555
Cd3_4 O3_6 1_555 1_555
N3_10 Cd1_6 1_555 1_555
N4_9 C11_9 1_555 1_555
H9_9 N4_9 1_555 1_555
H10_9 N4_9 1_555 1_555
O3_6 C7_10 1_555 1_555
O4_6 Cd1_6 1_555 1_555
O5_6 Cd1_6 1_555 1_555
O6_6 C7_10 1_555 1_555
O7_6 Cd1_6 1_555 1_555
O8_6 Cd1_6 1_555 1_555
C5_9 N1_10 1_555 1_555
O2_6 Cd2_4 1_555 1_555
C10_10 N3_10 1_555 1_555
C11_9 N3_10 1_555 1_555
Cd3_4 O6_6 1_555 1_555
C1_11 C2_11 1_555 1_555
C2_11 C3_11 1_555 1_555
C3_11 H1_10 1_555 1_555
C4_11 C3_11 1_555 1_555
H2_11 C4_11 1_555 1_555
C6_10 C2_11 1_555 1_555
H3_10 C6_10 1_555 1_555
O1_7 C1_11 1_555 1_555
O2_7 C1_11 1_555 1_555
C9_11 H6_11 1_555 1_555
C10_11 C9_11 1_555 1_555
H7_11 C10_11 1_555 1_555
Cd3_3 O1_7 1_555 1_555
O2_7 Cd3_3 1_555 1_555
Cd1_7 N1_11 1_555 1_555
N2_10 C5_10 1_555 1_555
H4_10 N2_10 1_555 1_555
H5_10 N2_10 1_555 1_555
N3_11 Cd1_7 1_555 1_555
O4_7 Cd1_7 1_555 1_555
O5_7 Cd1_7 1_555 1_555
O7_7 Cd1_7 1_555 1_555
O8_7 Cd1_7 1_555 1_555
C5_10 N1_11 1_555 1_555
C7_11 C8_11 1_555 1_555
C12_11 C8_11 1_555 1_555
H8_11 C12_11 1_555 1_555
Cd2_3 O3_7 1_555 1_555
O3_7 C7_11 1_555 1_555
O6_7 C7_11 1_555 1_555
Cd2_3 O6_7 1_555 1_555
C4_12 C3_12 1_555 1_555
H2_12 C4_12 1_555 1_555
C5_11 C6_11 1_555 1_555
H3_11 C6_11 1_555 1_555
Cd1_8 N1_12 1_555 1_555
N1_12 C4_12 1_555 1_555
N2_11 C5_11 1_555 1_555
H4_11 N2_11 1_555 1_555
H5_11 N2_11 1_555 1_555
C9_12 H6_12 1_555 1_555
C10_12 C9_12 1_555 1_555
H7_12 C10_12 1_555 1_555
N3_12 Cd1_8 1_555 1_555
O4_8 Cd1_8 1_555 1_555
O5_8 Cd1_8 1_555 1_555
O7_8 Cd1_8 1_555 1_555
O8_8 Cd1_8 1_555 1_555
C5_11 N1_12 1_555 1_555
C10_12 N3_12 1_555 1_555
C1_12 C2_12 1_555 1_555
O1_8 C1_12 1_555 1_555
O2_8 C1_12 1_555 1_555
Cd3_4 O1_8 1_555 1_555
O2_8 Cd3_4 1_555 1_555
C7_12 C8_12 1_555 1_555
C11_10 C12_12 1_555 1_555
C12_12 C8_12 1_555 1_555
H8_12 C12_12 1_555 1_555
Cd2_4 O3_8 1_555 1_555
N4_10 C11_10 1_555 1_555
H9_10 N4_10 1_555 1_555
H10_10 N4_10 1_555 1_555
O3_8 C7_12 1_555 1_555
O6_8 C7_12 1_555 1_555
Cd2_4 O6_8 1_555 1_555
C1_13 C2_13 1_555 1_555
O4_5 C1_13 1_555 1_555
O7_5 C1_13 1_555 1_555
C4_13 C3_13 1_555 1_555
H2_13 C4_13 1_555 1_555
C5_12 C6_12 1_555 1_555
H3_12 C6_12 1_555 1_555
Cd3_4 N1_13 1_555 1_555
N1_13 C4_13 1_555 1_555
N2_12 C5_12 1_555 1_555
H4_12 N2_12 1_555 1_555
H5_12 N2_12 1_555 1_555
C7_13 C8_13 1_555 1_555
C8_13 C9_13 1_555 1_555
C9_13 H6_13 1_555 1_555
C10_13 C9_13 1_555 1_555
H7_13 C10_13 1_555 1_555
C11_11 C12_13 1_555 1_555
C12_13 C8_13 1_555 1_555
H8_13 C12_13 1_555 1_555
N3_13 Cd3_4 1_555 1_555
N4_11 C11_11 1_555 1_555
H9_11 N4_11 1_555 1_555
H10_11 N4_11 1_555 1_555
O5_7 C7_13 1_555 1_555
O8_7 C7_13 1_555 1_555
C5_12 N1_13 1_555 1_555
C10_13 N3_13 1_555 1_555
C11_11 N3_13 1_555 1_555
C1_14 C2_14 1_555 1_555
C2_14 C3_14 1_555 1_555
C3_14 H1_13 1_555 1_555
C4_14 C3_14 1_555 1_555
H2_14 C4_14 1_555 1_555
C5_13 C6_13 1_555 1_555
C6_13 C2_14 1_555 1_555
H3_13 C6_13 1_555 1_555
Cd3_3 N1_14 1_555 1_555
N1_14 C4_14 1_555 1_555
N2_13 C5_13 1_555 1_555
H4_13 N2_13 1_555 1_555
H5_13 N2_13 1_555 1_555
O4_6 C1_14 1_555 1_555
O7_6 C1_14 1_555 1_555
C7_14 C8_14 1_555 1_555
C8_14 C9_14 1_555 1_555
C9_14 H6_14 1_555 1_555
C10_14 C9_14 1_555 1_555
H7_14 C10_14 1_555 1_555
C11_12 C12_14 1_555 1_555
C12_14 C8_14 1_555 1_555
H8_14 C12_14 1_555 1_555
N3_14 Cd3_3 1_555 1_555
N4_12 C11_12 1_555 1_555
H9_12 N4_12 1_555 1_555
H10_12 N4_12 1_555 1_555
O5_8 C7_14 1_555 1_555
O8_8 C7_14 1_555 1_555
C5_13 N1_14 1_555 1_555
C10_14 N3_14 1_555 1_555
C11_12 N3_14 1_555 1_555
C1_15 C2_15 1_555 1_555
C5_14 C6_14 1_555 1_555
C6_14 C2_15 1_555 1_555
H3_14 C6_14 1_555 1_555
N2_14 C5_14 1_555 1_555
H4_14 N2_14 1_555 1_555
H5_14 N2_14 1_555 1_555
O4_7 C1_15 1_555 1_555
O7_7 C1_15 1_555 1_555
C3_15 H1_14 1_555 1_555
C4_15 C3_15 1_555 1_555
H2_15 C4_15 1_555 1_555
Cd2_4 N1_15 1_555 1_555
N1_15 C4_15 1_555 1_555
C7_15 C8_15 1_555 1_555
C8_15 C9_15 1_555 1_555
C9_15 H6_15 1_555 1_555
C10_15 C9_15 1_555 1_555
H7_15 C10_15 1_555 1_555
C11_13 C12_15 1_555 1_555
C12_15 C8_15 1_555 1_555
H8_15 C12_15 1_555 1_555
N3_15 Cd2_4 1_555 1_555
N4_13 C11_13 1_555 1_555
H9_13 N4_13 1_555 1_555
H10_13 N4_13 1_555 1_555
O5_5 C7_15 1_555 1_555
O8_5 C7_15 1_555 1_555
C10_15 N3_15 1_555 1_555
C11_13 N3_15 1_555 1_555
C1_16 C2_16 1_555 1_555
O4_8 C1_16 1_555 1_555
O7_8 C1_16 1_555 1_555
C4_16 C3_16 1_555 1_555
H2_16 C4_16 1_555 1_555
Cd2_3 N1_16 1_555 1_555
N1_16 C4_16 1_555 1_555
C7_16 C8_16 1_555 1_555
C8_16 C9_16 1_555 1_555
C9_16 H6_16 1_555 1_555
C10_16 C9_16 1_555 1_555
H7_16 C10_16 1_555 1_555
C11_14 C12_16 1_555 1_555
C12_16 C8_16 1_555 1_555
H8_16 C12_16 1_555 1_555
N3_16 Cd2_3 1_555 1_555
N4_14 C11_14 1_555 1_555
H9_14 N4_14 1_555 1_555
H10_14 N4_14 1_555 1_555
O5_6 C7_16 1_555 1_555
O8_6 C7_16 1_555 1_555
C10_16 N3_16 1_555 1_555
C11_14 N3_16 1_555 1_555
N4_15 C11_15 1_555 1_555
H9_15 N4_15 1_555 1_555
H10_15 N4_15 1_555 1_555
C5_15 C6_15 1_555 1_555
H3_15 C6_15 1_555 1_555
N2_15 C5_15 1_555 1_555
H4_15 N2_15 1_555 1_555
H5_15 N2_15 1_555 1_555
N4_16 C11_16 1_555 1_555
H9_16 N4_16 1_555 1_555
H10_16 N4_16 1_555 1_555
C5_16 C6_16 1_555 1_555
H3_16 C6_16 1_555 1_555
N2_16 C5_16 1_555 1_555
H4_16 N2_16 1_555 1_555
H5_16 N2_16 1_555 1_555

#END
