
###############################################################################
#
# This file contains modified crystal structure data generated from the
# MOF subset of the Cambridge Structural Database (CSD) v543 
# hosted by the Cambridge Crystallographic Data Centre (CCDC).
#
# This work is licensed under the Creative Commons
# Attribution-NonCommercial-ShareAlike 4.0 International License.
# To view a copy of this license, visit
# http://creativecommons.org/licenses/by-nc-sa/4.0/
# or send a letter to
# Creative Commons, PO Box 1866, Mountain View, CA 94042, USA.
#
# CIF created using the CSD Python API on 29 September 2022
# The structure has been converted into the P1 space group
# The structure has a 3D framework
# The original CSD entry HAJKOU is in the orthorhombic crystal system
# The framework has been calculated to contain at least 10.0% void space
# The void calculation uses a probe of radius 1.32A, grid spacing 0.4
#
###############################################################################

data_HAJKOU
_chemical_formula_moiety         '(C192 H160 Co16 N64 O64)n'
_symmetry_cell_setting           triclinic
_symmetry_space_group_name_H-M   'P 1'
_symmetry_Int_Tables_number      1
_space_group_name_Hall           'P 1'
loop_
_symmetry_equiv_pos_site_id
_symmetry_equiv_pos_as_xyz
1 x,y,z
_cell_length_a                   12.819(2)
_cell_length_b                   23.058(4)
_cell_length_c                   23.654(4)
_cell_angle_alpha                90
_cell_angle_beta                 90
_cell_angle_gamma                90
_cell_volume                     6991.66
loop_
_atom_site_label
_atom_site_type_symbol
_atom_site_fract_x
_atom_site_fract_y
_atom_site_fract_z
C7 C 0.0538(2) 0.02282(11) 0.31521(11)
N4 N 0.11856(18) 0.05393(12) 0.34880(12)
H9 H 0.0975 0.0910 0.3487
H10 H 0.1830 0.0525 0.3340
C8 C 0.0945(2) 0.98519(12) 0.27402(12)
H6 H 0.1660 0.9838 0.2676
C9 C 0.0287(2) 0.95048(10) 0.24327(10)
C10 C 0.0741(2) 0.90894(11) 0.20086(10)
Co3 Co 0.1250 0.837342(18) 0.1250
O5 O 0.01394(13) 0.87190(7) 0.17810(7)
O8 O 0.16845(14) 0.91088(8) 0.18878(8)
C1 C 0.6962(2) 0.02282(11) 0.43479(11)
Co1 Co 0.8750 0.087342(18) 0.3750
N1 N 0.79907(15) 0.02715(8) 0.42608(8)
N2 N 0.63144(18) 0.05393(12) 0.40120(12)
H4 H 0.6525 0.0910 0.4013
H5 H 0.5670 0.0525 0.4160
N3 N 0.95093(15) 0.02715(8) 0.32392(8)
O3 O 0.76394(13) 0.12190(7) 0.32190(7)
O4 O 0.98606(13) 0.12190(7) 0.42810(7)
O6 O 0.91845(14) 0.16088(8) 0.31122(8)
O7 O 0.83155(14) 0.16088(8) 0.43878(8)
C2 C 0.6555(2) 0.98519(12) 0.47598(12)
H1 H 0.5840 0.9838 0.4824
C3 C 0.7213(2) 0.95048(10) 0.50673(10)
C4 C 0.6759(2) 0.90894(11) 0.54914(10)
C5 C 0.8283(2) 0.95370(12) 0.49668(11)
H2 H 0.8750 0.9305 0.5166
C6 C 0.86260(19) 0.99198(12) 0.45670(11)
H3 H 0.9340 0.9941 0.4500
O1 O 0.73606(13) 0.87190(7) 0.57190(7)
O2 O 0.58155(14) 0.91088(8) 0.56122(8)
C11 C 0.9217(2) 0.95370(12) 0.25332(11)
H7 H 0.8750 0.9305 0.2334
C12 C 0.88740(19) 0.99198(12) 0.29330(11)
H8 H 0.8160 0.9941 0.3000
Co2 Co 0.6250 0.837342(18) 0.6250
C7_2 C 0.0538(2) 0.52282(11) 0.81521(11)
C8_2 C 0.0945(2) 0.48519(12) 0.77402(12)
H6_2 H 0.1660 0.4838 0.7676
C9_2 C 0.0287(2) 0.45048(10) 0.74327(10)
C10_2 C 0.0741(2) 0.40894(11) 0.70086(10)
Co3_2 Co 0.1250 0.337342(18) 0.6250
N4_2 N 0.11856(18) 0.55393(12) 0.84880(12)
H9_2 H 0.0975 0.5910 0.8487
H10_2 H 0.1830 0.5525 0.8340
O5_2 O 0.01394(13) 0.37190(7) 0.67810(7)
O8_2 O 0.16845(14) 0.41088(8) 0.68878(8)
C3_2 C 0.7213(2) 0.45048(10) 0.00673(10)
C4_2 C 0.6759(2) 0.40894(11) 0.04914(10)
H2_2 H 0.8750 0.4305 0.0166
O1_2 O 0.73606(13) 0.37190(7) 0.07190(7)
O2_2 O 0.58155(14) 0.41088(8) 0.06122(8)
Co2_2 Co 0.6250 0.337342(18) 0.1250
C1_2 C 0.6962(2) 0.52282(11) 0.93479(11)
C2_2 C 0.6555(2) 0.48519(12) 0.97598(12)
H1_2 H 0.5840 0.4838 0.9824
C5_2 C 0.8283(2) 0.45370(12) 0.99668(11)
C6_2 C 0.86260(19) 0.49198(12) 0.95670(11)
H3_2 H 0.9340 0.4941 0.9500
Co1_2 Co 0.8750 0.587342(18) 0.8750
N1_2 N 0.79907(15) 0.52715(8) 0.92608(8)
N2_2 N 0.63144(18) 0.55393(12) 0.90120(12)
H4_2 H 0.6525 0.5910 0.9013
H5_2 H 0.5670 0.5525 0.9160
C11_2 C 0.9217(2) 0.45370(12) 0.75332(11)
H7_2 H 0.8750 0.4305 0.7334
C12_2 C 0.88740(19) 0.49198(12) 0.79330(11)
H8_2 H 0.8160 0.4941 0.8000
N3_2 N 0.95093(15) 0.52715(8) 0.82392(8)
O3_2 O 0.76394(13) 0.62190(7) 0.82190(7)
O4_2 O 0.98606(13) 0.62190(7) 0.92810(7)
O6_2 O 0.91845(14) 0.66088(8) 0.81122(8)
O7_2 O 0.83155(14) 0.66088(8) 0.93878(8)
C1_3 C 0.1962(2) 0.02282(11) 0.93479(11)
Co1_3 Co 0.3750 0.087342(18) 0.8750
N1_3 N 0.29907(15) 0.02715(8) 0.92608(8)
N2_3 N 0.13144(18) 0.05393(12) 0.90120(12)
H4_3 H 0.1525 0.0910 0.9013
H5_3 H 0.0670 0.0525 0.9160
C7_3 C 0.5538(2) 0.02282(11) 0.81521(11)
N3_3 N 0.45093(15) 0.02715(8) 0.82392(8)
N4_3 N 0.61856(18) 0.05393(12) 0.84880(12)
H9_3 H 0.5975 0.0910 0.8487
H10_3 H 0.6830 0.0525 0.8340
O3_3 O 0.26394(13) 0.12190(7) 0.82190(7)
O4_3 O 0.48606(13) 0.12190(7) 0.92810(7)
O6_3 O 0.41845(14) 0.16088(8) 0.81122(8)
O7_3 O 0.33155(14) 0.16088(8) 0.93878(8)
C3_3 C 0.2213(2) 0.95048(10) 0.00673(10)
C4_3 C 0.1759(2) 0.90894(11) 0.04914(10)
H2_3 H 0.3750 0.9305 0.0166
O1_3 O 0.23606(13) 0.87190(7) 0.07190(7)
O2_3 O 0.08155(14) 0.91088(8) 0.06122(8)
C2_3 C 0.1555(2) 0.98519(12) 0.97598(12)
H1_3 H 0.0840 0.9838 0.9824
C5_3 C 0.3283(2) 0.95370(12) 0.99668(11)
C6_3 C 0.36260(19) 0.99198(12) 0.95670(11)
H3_3 H 0.4340 0.9941 0.9500
C8_3 C 0.5945(2) 0.98519(12) 0.77402(12)
H6_3 H 0.6660 0.9838 0.7676
C9_3 C 0.5287(2) 0.95048(10) 0.74327(10)
C10_3 C 0.5741(2) 0.90894(11) 0.70086(10)
C11_3 C 0.4217(2) 0.95370(12) 0.75332(11)
H7_3 H 0.3750 0.9305 0.7334
C12_3 C 0.38740(19) 0.99198(12) 0.79330(11)
H8_3 H 0.3160 0.9941 0.8000
O5_3 O 0.51394(13) 0.87190(7) 0.67810(7)
O8_3 O 0.66845(14) 0.91088(8) 0.68878(8)
C1_4 C 0.1962(2) 0.52282(11) 0.43479(11)
C2_4 C 0.1555(2) 0.48519(12) 0.47598(12)
H1_4 H 0.0840 0.4838 0.4824
C3_4 C 0.2213(2) 0.45048(10) 0.50673(10)
C4_4 C 0.1759(2) 0.40894(11) 0.54914(10)
C5_4 C 0.3283(2) 0.45370(12) 0.49668(11)
H2_4 H 0.3750 0.4305 0.5166
C6_4 C 0.36260(19) 0.49198(12) 0.45670(11)
H3_4 H 0.4340 0.4941 0.4500
Co1_4 Co 0.3750 0.587342(18) 0.3750
N1_4 N 0.29907(15) 0.52715(8) 0.42608(8)
N2_4 N 0.13144(18) 0.55393(12) 0.40120(12)
H4_4 H 0.1525 0.5910 0.4013
H5_4 H 0.0670 0.5525 0.4160
O1_4 O 0.23606(13) 0.37190(7) 0.57190(7)
O2_4 O 0.08155(14) 0.41088(8) 0.56122(8)
C7_4 C 0.5538(2) 0.52282(11) 0.31521(11)
C8_4 C 0.5945(2) 0.48519(12) 0.27402(12)
H6_4 H 0.6660 0.4838 0.2676
C9_4 C 0.5287(2) 0.45048(10) 0.24327(10)
C10_4 C 0.5741(2) 0.40894(11) 0.20086(10)
C11_4 C 0.4217(2) 0.45370(12) 0.25332(11)
H7_4 H 0.3750 0.4305 0.2334
C12_4 C 0.38740(19) 0.49198(12) 0.29330(11)
H8_4 H 0.3160 0.4941 0.3000
N3_4 N 0.45093(15) 0.52715(8) 0.32392(8)
N4_4 N 0.61856(18) 0.55393(12) 0.34880(12)
H9_4 H 0.5975 0.5910 0.3487
H10_4 H 0.6830 0.5525 0.3340
O3_4 O 0.26394(13) 0.62190(7) 0.32190(7)
O4_4 O 0.48606(13) 0.62190(7) 0.42810(7)
O5_4 O 0.51394(13) 0.37190(7) 0.17810(7)
O6_4 O 0.41845(14) 0.66088(8) 0.31122(8)
O7_4 O 0.33155(14) 0.66088(8) 0.43878(8)
O8_4 O 0.66845(14) 0.41088(8) 0.18878(8)
C5_5 C 0.0783(2) 0.20370(12) 0.50332(11)
H2_5 H 0.1250 0.1805 0.4834
C6_5 C 0.11260(19) 0.24198(12) 0.54330(11)
H3_5 H 0.1840 0.2441 0.5500
N1_5 N 0.04907(15) 0.27715(8) 0.57392(8)
C7_5 C 0.3038(2) 0.27282(11) 0.68479(11)
C8_5 C 0.3445(2) 0.23519(12) 0.72598(12)
H6_5 H 0.4160 0.2338 0.7324
C9_5 C 0.2787(2) 0.20048(10) 0.75673(10)
C10_5 C 0.3241(2) 0.15894(11) 0.79914(10)
C11_5 C 0.1717(2) 0.20370(12) 0.74668(11)
H7_5 H 0.1250 0.1805 0.7666
C12_5 C 0.13740(19) 0.24198(12) 0.70670(11)
H8_5 H 0.0660 0.2441 0.7000
N3_5 N 0.20093(15) 0.27715(8) 0.67608(8)
N4_5 N 0.36856(18) 0.30393(12) 0.65120(12)
H9_5 H 0.3475 0.3410 0.6513
H10_5 H 0.4330 0.3025 0.6660
C1_5 C 0.9462(2) 0.27282(11) 0.56521(11)
C2_5 C 0.9055(2) 0.23519(12) 0.52402(12)
H1_5 H 0.8340 0.2338 0.5176
C3_5 C 0.9713(2) 0.20048(10) 0.49327(10)
C4_5 C 0.9259(2) 0.15894(11) 0.45086(10)
N2_5 N 0.88144(18) 0.30393(12) 0.59880(12)
H4_5 H 0.9025 0.3410 0.5987
H5_5 H 0.8170 0.3025 0.5840
C5_6 C 0.0783(2) 0.70370(12) 0.00332(11)
C6_6 C 0.11260(19) 0.74198(12) 0.04330(11)
H3_6 H 0.1840 0.7441 0.0500
N1_6 N 0.04907(15) 0.77715(8) 0.07392(8)
C7_6 C 0.3038(2) 0.77282(11) 0.18479(11)
C8_6 C 0.3445(2) 0.73519(12) 0.22598(12)
H6_6 H 0.4160 0.7338 0.2324
C9_6 C 0.2787(2) 0.70048(10) 0.25673(10)
C10_6 C 0.3241(2) 0.65894(11) 0.29914(10)
C11_6 C 0.1717(2) 0.70370(12) 0.24668(11)
H7_6 H 0.1250 0.6805 0.2666
C12_6 C 0.13740(19) 0.74198(12) 0.20670(11)
H8_6 H 0.0660 0.7441 0.2000
N3_6 N 0.20093(15) 0.77715(8) 0.17608(8)
N4_6 N 0.36856(18) 0.80393(12) 0.15120(12)
H9_6 H 0.3475 0.8410 0.1513
H10_6 H 0.4330 0.8025 0.1660
C3_6 C 0.9713(2) 0.70048(10) 0.99327(10)
C4_6 C 0.9259(2) 0.65894(11) 0.95086(10)
C1_6 C 0.4462(2) 0.27282(11) 0.06521(11)
C2_6 C 0.4055(2) 0.23519(12) 0.02402(12)
H1_6 H 0.3340 0.2338 0.0176
C5_7 C 0.5783(2) 0.20370(12) 0.00332(11)
C6_7 C 0.61260(19) 0.24198(12) 0.04330(11)
H3_7 H 0.6840 0.2441 0.0500
N1_7 N 0.54907(15) 0.27715(8) 0.07392(8)
N2_6 N 0.38144(18) 0.30393(12) 0.09880(12)
H4_6 H 0.4025 0.3410 0.0987
H5_6 H 0.3170 0.3025 0.0840
C7_7 C 0.8038(2) 0.27282(11) 0.18479(11)
C8_7 C 0.8445(2) 0.23519(12) 0.22598(12)
H6_7 H 0.9160 0.2338 0.2324
C9_7 C 0.7787(2) 0.20048(10) 0.25673(10)
C10_7 C 0.8241(2) 0.15894(11) 0.29914(10)
C11_7 C 0.6717(2) 0.20370(12) 0.24668(11)
H7_7 H 0.6250 0.1805 0.2666
C12_7 C 0.63740(19) 0.24198(12) 0.20670(11)
H8_7 H 0.5660 0.2441 0.2000
N3_7 N 0.70093(15) 0.27715(8) 0.17608(8)
N4_7 N 0.86856(18) 0.30393(12) 0.15120(12)
H9_7 H 0.8475 0.3410 0.1513
H10_7 H 0.9330 0.3025 0.1660
C3_7 C 0.4713(2) 0.20048(10) 0.99327(10)
C4_7 C 0.4259(2) 0.15894(11) 0.95086(10)
H2_6 H 0.6250 0.1805 0.9834
C1_7 C 0.4462(2) 0.77282(11) 0.56521(11)
C2_7 C 0.4055(2) 0.73519(12) 0.52402(12)
H1_7 H 0.3340 0.7338 0.5176
C3_8 C 0.4713(2) 0.70048(10) 0.49327(10)
C4_8 C 0.4259(2) 0.65894(11) 0.45086(10)
C5_8 C 0.5783(2) 0.70370(12) 0.50332(11)
H2_7 H 0.6250 0.6805 0.4834
C6_8 C 0.61260(19) 0.74198(12) 0.54330(11)
H3_8 H 0.6840 0.7441 0.5500
N1_8 N 0.54907(15) 0.77715(8) 0.57392(8)
N2_7 N 0.38144(18) 0.80393(12) 0.59880(12)
H4_7 H 0.4025 0.8410 0.5987
H5_7 H 0.3170 0.8025 0.5840
C7_8 C 0.8038(2) 0.77282(11) 0.68479(11)
C8_8 C 0.8445(2) 0.73519(12) 0.72598(12)
H6_8 H 0.9160 0.7338 0.7324
C9_8 C 0.7787(2) 0.70048(10) 0.75673(10)
C10_8 C 0.8241(2) 0.65894(11) 0.79914(10)
C11_8 C 0.6717(2) 0.70370(12) 0.74668(11)
H7_8 H 0.6250 0.6805 0.7666
C12_8 C 0.63740(19) 0.74198(12) 0.70670(11)
H8_8 H 0.5660 0.7441 0.7000
N3_8 N 0.70093(15) 0.77715(8) 0.67608(8)
N4_8 N 0.86856(18) 0.80393(12) 0.65120(12)
H9_8 H 0.8475 0.8410 0.6513
H10_8 H 0.9330 0.8025 0.6660
C1_8 C 0.0538(2) 0.72718(11) 0.43479(11)
C2_8 C 0.0945(2) 0.76481(12) 0.47598(12)
H1_8 H 0.1660 0.7662 0.4824
C3_9 C 0.0287(2) 0.79952(10) 0.50673(10)
C4_9 C 0.0741(2) 0.84106(11) 0.54914(10)
N2_8 N 0.11856(18) 0.69607(12) 0.40120(12)
H4_8 H 0.0975 0.6590 0.4013
H5_8 H 0.1830 0.6975 0.4160
O1_5 O 0.01394(13) 0.87810(7) 0.57190(7)
O2_5 O 0.16845(14) 0.83912(8) 0.56122(8)
Co2_3 Co 0.1250 0.912658(18) 0.6250
C5_9 C 0.9217(2) 0.79630(12) 0.49668(11)
H2_8 H 0.8750 0.8195 0.5166
C6_9 C 0.88740(19) 0.75802(12) 0.45670(11)
H3_9 H 0.8160 0.7559 0.4500
Co1_5 Co 0.8750 0.662658(18) 0.3750
N1_9 N 0.95093(15) 0.72285(8) 0.42608(8)
C7_9 C 0.6962(2) 0.72718(11) 0.31521(11)
C8_9 C 0.6555(2) 0.76481(12) 0.27402(12)
H6_9 H 0.5840 0.7662 0.2676
C9_9 C 0.7213(2) 0.79952(10) 0.24327(10)
C10_9 C 0.6759(2) 0.84106(11) 0.20086(10)
C11_9 C 0.8283(2) 0.79630(12) 0.25332(11)
H7_9 H 0.8750 0.8195 0.2334
C12_9 C 0.86260(19) 0.75802(12) 0.29330(11)
H8_9 H 0.9340 0.7559 0.3000
Co3_3 Co 0.6250 0.912658(18) 0.1250
N3_9 N 0.79907(15) 0.72285(8) 0.32392(8)
N4_9 N 0.63144(18) 0.69607(12) 0.34880(12)
H9_9 H 0.6525 0.6590 0.3487
H10_9 H 0.5670 0.6975 0.3340
O3_5 O 0.98606(13) 0.62810(7) 0.32190(7)
O4_5 O 0.76394(13) 0.62810(7) 0.42810(7)
O5_5 O 0.73606(13) 0.87810(7) 0.17810(7)
O6_5 O 0.83155(14) 0.58912(8) 0.31122(8)
O7_5 O 0.91845(14) 0.58912(8) 0.43878(8)
O8_5 O 0.58155(14) 0.83912(8) 0.18878(8)
C3_10 C 0.0287(2) 0.29952(10) 0.00673(10)
C4_10 C 0.0741(2) 0.34106(11) 0.04914(10)
O1_6 O 0.01394(13) 0.37810(7) 0.07190(7)
O2_6 O 0.16845(14) 0.33912(8) 0.06122(8)
Co2_4 Co 0.1250 0.412658(18) 0.1250
C5_10 C 0.9217(2) 0.29630(12) 0.99668(11)
C6_10 C 0.88740(19) 0.25802(12) 0.95670(11)
H3_10 H 0.8160 0.2559 0.9500
Co1_6 Co 0.8750 0.162658(18) 0.8750
N1_10 N 0.95093(15) 0.22285(8) 0.92608(8)
C7_10 C 0.6962(2) 0.22718(11) 0.81521(11)
C8_10 C 0.6555(2) 0.26481(12) 0.77402(12)
H6_10 H 0.5840 0.2662 0.7676
C9_10 C 0.7213(2) 0.29952(10) 0.74327(10)
C10_10 C 0.6759(2) 0.34106(11) 0.70086(10)
C11_10 C 0.8283(2) 0.29630(12) 0.75332(11)
H7_10 H 0.8750 0.3195 0.7334
C12_10 C 0.86260(19) 0.25802(12) 0.79330(11)
H8_10 H 0.9340 0.2559 0.8000
Co3_4 Co 0.6250 0.412658(18) 0.6250
N3_10 N 0.79907(15) 0.22285(8) 0.82392(8)
N4_10 N 0.63144(18) 0.19607(12) 0.84880(12)
H9_10 H 0.6525 0.1590 0.8487
H10_10 H 0.5670 0.1975 0.8340
O3_6 O 0.98606(13) 0.12810(7) 0.82190(7)
O4_6 O 0.76394(13) 0.12810(7) 0.92810(7)
O5_6 O 0.73606(13) 0.37810(7) 0.67810(7)
O6_6 O 0.83155(14) 0.08912(8) 0.81122(8)
O7_6 O 0.91845(14) 0.08912(8) 0.93878(8)
O8_6 O 0.58155(14) 0.33912(8) 0.68878(8)
C3_11 C 0.5287(2) 0.79952(10) 0.00673(10)
C4_11 C 0.5741(2) 0.84106(11) 0.04914(10)
H2_9 H 0.3750 0.8195 0.0166
O1_7 O 0.51394(13) 0.87810(7) 0.07190(7)
O2_7 O 0.66845(14) 0.83912(8) 0.06122(8)
C1_9 C 0.5538(2) 0.72718(11) 0.93479(11)
C2_9 C 0.5945(2) 0.76481(12) 0.97598(12)
H1_9 H 0.6660 0.7662 0.9824
C5_11 C 0.4217(2) 0.79630(12) 0.99668(11)
C6_11 C 0.38740(19) 0.75802(12) 0.95670(11)
H3_11 H 0.3160 0.7559 0.9500
Co1_7 Co 0.3750 0.662658(18) 0.8750
N1_11 N 0.45093(15) 0.72285(8) 0.92608(8)
N2_9 N 0.61856(18) 0.69607(12) 0.90120(12)
H4_9 H 0.5975 0.6590 0.9013
H5_9 H 0.6830 0.6975 0.9160
C7_11 C 0.1962(2) 0.72718(11) 0.81521(11)
C8_11 C 0.1555(2) 0.76481(12) 0.77402(12)
H6_11 H 0.0840 0.7662 0.7676
C9_11 C 0.2213(2) 0.79952(10) 0.74327(10)
C10_11 C 0.1759(2) 0.84106(11) 0.70086(10)
C11_11 C 0.3283(2) 0.79630(12) 0.75332(11)
H7_11 H 0.3750 0.8195 0.7334
C12_11 C 0.36260(19) 0.75802(12) 0.79330(11)
H8_11 H 0.4340 0.7559 0.8000
N3_11 N 0.29907(15) 0.72285(8) 0.82392(8)
N4_11 N 0.13144(18) 0.69607(12) 0.84880(12)
H9_11 H 0.1525 0.6590 0.8487
H10_11 H 0.0670 0.6975 0.8340
O3_7 O 0.48606(13) 0.62810(7) 0.82190(7)
O4_7 O 0.26394(13) 0.62810(7) 0.92810(7)
O5_7 O 0.23606(13) 0.87810(7) 0.67810(7)
O6_7 O 0.33155(14) 0.58912(8) 0.81122(8)
O7_7 O 0.41845(14) 0.58912(8) 0.93878(8)
O8_7 O 0.08155(14) 0.83912(8) 0.68878(8)
C1_10 C 0.5538(2) 0.22718(11) 0.43479(11)
C2_10 C 0.5945(2) 0.26481(12) 0.47598(12)
H1_10 H 0.6660 0.2662 0.4824
C3_12 C 0.5287(2) 0.29952(10) 0.50673(10)
C4_12 C 0.5741(2) 0.34106(11) 0.54914(10)
C5_12 C 0.4217(2) 0.29630(12) 0.49668(11)
H2_10 H 0.3750 0.3195 0.5166
C6_12 C 0.38740(19) 0.25802(12) 0.45670(11)
H3_12 H 0.3160 0.2559 0.4500
Co1_8 Co 0.3750 0.162658(18) 0.3750
N1_12 N 0.45093(15) 0.22285(8) 0.42608(8)
N2_10 N 0.61856(18) 0.19607(12) 0.40120(12)
H4_10 H 0.5975 0.1590 0.4013
H5_10 H 0.6830 0.1975 0.4160
O1_8 O 0.51394(13) 0.37810(7) 0.57190(7)
O2_8 O 0.66845(14) 0.33912(8) 0.56122(8)
C7_12 C 0.1962(2) 0.22718(11) 0.31521(11)
C8_12 C 0.1555(2) 0.26481(12) 0.27402(12)
H6_12 H 0.0840 0.2662 0.2676
C9_12 C 0.2213(2) 0.29952(10) 0.24327(10)
C10_12 C 0.1759(2) 0.34106(11) 0.20086(10)
C11_12 C 0.3283(2) 0.29630(12) 0.25332(11)
H7_12 H 0.3750 0.3195 0.2334
C12_12 C 0.36260(19) 0.25802(12) 0.29330(11)
H8_12 H 0.4340 0.2559 0.3000
N3_12 N 0.29907(15) 0.22285(8) 0.32392(8)
N4_12 N 0.13144(18) 0.19607(12) 0.34880(12)
H9_12 H 0.1525 0.1590 0.3487
H10_12 H 0.0670 0.1975 0.3340
O3_8 O 0.48606(13) 0.12810(7) 0.32190(7)
O4_8 O 0.26394(13) 0.12810(7) 0.42810(7)
O5_8 O 0.23606(13) 0.37810(7) 0.17810(7)
O6_8 O 0.33155(14) 0.08912(8) 0.31122(8)
O7_8 O 0.41845(14) 0.08912(8) 0.43878(8)
O8_8 O 0.08155(14) 0.33912(8) 0.18878(8)
C2_11 C 0.3445(2) 0.01481(12) 0.52402(12)
H1_11 H 0.4160 0.0162 0.5176
C3_13 C 0.2787(2) 0.04952(10) 0.49327(10)
C4_13 C 0.3241(2) 0.09106(11) 0.45086(10)
C5_13 C 0.1717(2) 0.04630(12) 0.50332(11)
H2_11 H 0.1250 0.0695 0.4834
C6_13 C 0.13740(19) 0.00802(12) 0.54330(11)
H3_13 H 0.0660 0.0059 0.5500
C11_13 C 0.0783(2) 0.04630(12) 0.74668(11)
H7_13 H 0.1250 0.0695 0.7666
C12_13 C 0.11260(19) 0.00802(12) 0.70670(11)
H8_13 H 0.1840 0.0059 0.7000
C1_11 C 0.3038(2) 0.97718(11) 0.56521(11)
N1_13 N 0.20093(15) 0.97285(8) 0.57392(8)
N2_11 N 0.36856(18) 0.94607(12) 0.59880(12)
H4_11 H 0.3475 0.9090 0.5987
H5_11 H 0.4330 0.9475 0.5840
N3_13 N 0.04907(15) 0.97285(8) 0.67608(8)
C8_13 C 0.9055(2) 0.01481(12) 0.72598(12)
H6_13 H 0.8340 0.0162 0.7324
C9_13 C 0.9713(2) 0.04952(10) 0.75673(10)
C10_13 C 0.9259(2) 0.09106(11) 0.79914(10)
C1_12 C 0.3038(2) 0.47718(11) 0.06521(11)
C2_12 C 0.3445(2) 0.51481(12) 0.02402(12)
H1_12 H 0.4160 0.5162 0.0176
C5_14 C 0.1717(2) 0.54630(12) 0.00332(11)
C6_14 C 0.13740(19) 0.50802(12) 0.04330(11)
H3_14 H 0.0660 0.5059 0.0500
N1_14 N 0.20093(15) 0.47285(8) 0.07392(8)
N2_12 N 0.36856(18) 0.44607(12) 0.09880(12)
H4_12 H 0.3475 0.4090 0.0987
H5_12 H 0.4330 0.4475 0.0840
C11_14 C 0.0783(2) 0.54630(12) 0.24668(11)
H7_14 H 0.1250 0.5695 0.2666
C12_14 C 0.11260(19) 0.50802(12) 0.20670(11)
H8_14 H 0.1840 0.5059 0.2000
N3_14 N 0.04907(15) 0.47285(8) 0.17608(8)
C3_14 C 0.2787(2) 0.54952(10) 0.99327(10)
C4_14 C 0.3241(2) 0.59106(11) 0.95086(10)
H2_12 H 0.1250 0.5695 0.9834
C7_13 C 0.9462(2) 0.47718(11) 0.18479(11)
C8_14 C 0.9055(2) 0.51481(12) 0.22598(12)
H6_14 H 0.8340 0.5162 0.2324
C9_14 C 0.9713(2) 0.54952(10) 0.25673(10)
C10_14 C 0.9259(2) 0.59106(11) 0.29914(10)
N4_13 N 0.88144(18) 0.44607(12) 0.15120(12)
H9_13 H 0.9025 0.4090 0.1513
H10_13 H 0.8170 0.4475 0.1660
C2_13 C 0.8445(2) 0.01481(12) 0.02402(12)
H1_13 H 0.9160 0.0162 0.0176
C5_15 C 0.6717(2) 0.04630(12) 0.00332(11)
C6_15 C 0.63740(19) 0.00802(12) 0.04330(11)
H3_15 H 0.5660 0.0059 0.0500
C8_15 C 0.4055(2) 0.01481(12) 0.22598(12)
H6_15 H 0.3340 0.0162 0.2324
C9_15 C 0.4713(2) 0.04952(10) 0.25673(10)
C10_15 C 0.4259(2) 0.09106(11) 0.29914(10)
C11_15 C 0.5783(2) 0.04630(12) 0.24668(11)
H7_15 H 0.6250 0.0695 0.2666
C12_15 C 0.61260(19) 0.00802(12) 0.20670(11)
H8_15 H 0.6840 0.0059 0.2000
C3_15 C 0.7787(2) 0.04952(10) 0.99327(10)
C4_15 C 0.8241(2) 0.09106(11) 0.95086(10)
H2_13 H 0.6250 0.0695 0.9834
C1_13 C 0.8038(2) 0.97718(11) 0.06521(11)
N1_15 N 0.70093(15) 0.97285(8) 0.07392(8)
N2_13 N 0.86856(18) 0.94607(12) 0.09880(12)
H4_13 H 0.8475 0.9090 0.0987
H5_13 H 0.9330 0.9475 0.0840
C7_14 C 0.4462(2) 0.97718(11) 0.18479(11)
N3_15 N 0.54907(15) 0.97285(8) 0.17608(8)
N4_14 N 0.38144(18) 0.94607(12) 0.15120(12)
H9_14 H 0.4025 0.9090 0.1513
H10_14 H 0.3170 0.9475 0.1660
C1_14 C 0.8038(2) 0.47718(11) 0.56521(11)
C2_14 C 0.8445(2) 0.51481(12) 0.52402(12)
H1_14 H 0.9160 0.5162 0.5176
C3_16 C 0.7787(2) 0.54952(10) 0.49327(10)
C4_16 C 0.8241(2) 0.59106(11) 0.45086(10)
C5_16 C 0.6717(2) 0.54630(12) 0.50332(11)
H2_14 H 0.6250 0.5695 0.4834
C6_16 C 0.63740(19) 0.50802(12) 0.54330(11)
H3_16 H 0.5660 0.5059 0.5500
N1_16 N 0.70093(15) 0.47285(8) 0.57392(8)
N2_14 N 0.86856(18) 0.44607(12) 0.59880(12)
H4_14 H 0.8475 0.4090 0.5987
H5_14 H 0.9330 0.4475 0.5840
C7_15 C 0.4462(2) 0.47718(11) 0.68479(11)
C8_16 C 0.4055(2) 0.51481(12) 0.72598(12)
H6_16 H 0.3340 0.5162 0.7324
C9_16 C 0.4713(2) 0.54952(10) 0.75673(10)
C10_16 C 0.4259(2) 0.59106(11) 0.79914(10)
C11_16 C 0.5783(2) 0.54630(12) 0.74668(11)
H7_16 H 0.6250 0.5695 0.7666
C12_16 C 0.61260(19) 0.50802(12) 0.70670(11)
H8_16 H 0.6840 0.5059 0.7000
N3_16 N 0.54907(15) 0.47285(8) 0.67608(8)
N4_15 N 0.38144(18) 0.44607(12) 0.65120(12)
H9_15 H 0.4025 0.4090 0.6513
H10_15 H 0.3170 0.4475 0.6660
C1_15 C 0.0538(2) 0.22718(11) 0.93479(11)
C2_15 C 0.0945(2) 0.26481(12) 0.97598(12)
H1_15 H 0.1660 0.2662 0.9824
N2_15 N 0.11856(18) 0.19607(12) 0.90120(12)
H4_15 H 0.0975 0.1590 0.9013
H5_15 H 0.1830 0.1975 0.9160
H2_15 H 0.8750 0.3195 0.0166
C7_16 C 0.9462(2) 0.97718(11) 0.68479(11)
N4_16 N 0.88144(18) 0.94607(12) 0.65120(12)
H9_16 H 0.9025 0.9090 0.6513
H10_16 H 0.8170 0.9475 0.6660
H2_16 H 0.1250 0.6805 0.9834
C1_16 C 0.9462(2) 0.77282(11) 0.06521(11)
C2_16 C 0.9055(2) 0.73519(12) 0.02402(12)
H1_16 H 0.8340 0.7338 0.0176
N2_16 N 0.88144(18) 0.80393(12) 0.09880(12)
H4_16 H 0.9025 0.8410 0.0987
H5_16 H 0.8170 0.8025 0.0840
loop_
_geom_bond_atom_site_label_1
_geom_bond_atom_site_label_2
_geom_bond_site_symmetry_1
_geom_bond_site_symmetry_2
N4 C7 1_555 1_555
H9 N4 1_555 1_555
H10 N4 1_555 1_555
C8 H6 1_555 1_555
C9 C8 1_555 1_555
C10 C9 1_555 1_555
Co3 O5 1_555 1_555
O5 C10 1_555 1_555
O8 C10 1_555 1_555
Co3 O8 1_555 1_555
Co1 N1 1_555 1_555
N1 C1 1_555 1_555
N2 C1 1_555 1_555
H4 N2 1_555 1_555
H5 N2 1_555 1_555
N3 Co1 1_555 1_555
O3 Co1 1_555 1_555
O4 Co1 1_555 1_555
O6 Co1 1_555 1_555
O7 Co1 1_555 1_555
C2 H1 1_555 1_555
C3 C2 1_555 1_555
C4 C3 1_555 1_555
C5 C3 1_555 1_555
H2 C5 1_555 1_555
C6 C5 1_555 1_555
H3 C6 1_555 1_555
O1 C4 1_555 1_555
O2 C4 1_555 1_555
H7 C11 1_555 1_555
C12 C11 1_555 1_555
H8 C12 1_555 1_555
Co2 O1 1_555 1_555
O2 Co2 1_555 1_555
C7_2 C8_2 1_555 1_555
C8_2 H6_2 1_555 1_555
C9_2 C8_2 1_555 1_555
C10_2 C9_2 1_555 1_555
Co3_2 O5_2 1_555 1_555
N4_2 C7_2 1_555 1_555
H9_2 N4_2 1_555 1_555
H10_2 N4_2 1_555 1_555
O5_2 C10_2 1_555 1_555
O8_2 C10_2 1_555 1_555
Co3_2 O8_2 1_555 1_555
C4_2 C3_2 1_555 1_555
O1_2 C4_2 1_555 1_555
O2_2 C4_2 1_555 1_555
Co2_2 O1_2 1_555 1_555
O2_2 Co2_2 1_555 1_555
C1_2 C2_2 1_555 1_555
C2_2 H1_2 1_555 1_555
C6_2 C5_2 1_555 1_555
H3_2 C6_2 1_555 1_555
Co1_2 N1_2 1_555 1_555
N1_2 C1_2 1_555 1_555
N2_2 C1_2 1_555 1_555
H4_2 N2_2 1_555 1_555
H5_2 N2_2 1_555 1_555
H7_2 C11_2 1_555 1_555
C12_2 C11_2 1_555 1_555
H8_2 C12_2 1_555 1_555
N3_2 Co1_2 1_555 1_555
O3_2 Co1_2 1_555 1_555
O4_2 Co1_2 1_555 1_555
O6_2 Co1_2 1_555 1_555
O7_2 Co1_2 1_555 1_555
C6_2 N1_2 1_555 1_555
C12_2 N3_2 1_555 1_555
Co1_3 N1_3 1_555 1_555
N1_3 C1_3 1_555 1_555
N2_3 C1_3 1_555 1_555
H4_3 N2_3 1_555 1_555
H5_3 N2_3 1_555 1_555
N3_3 Co1_3 1_555 1_555
N4_3 C7_3 1_555 1_555
H9_3 N4_3 1_555 1_555
H10_3 N4_3 1_555 1_555
O3_3 Co1_3 1_555 1_555
O4_3 Co1_3 1_555 1_555
O6_3 Co1_3 1_555 1_555
O7_3 Co1_3 1_555 1_555
C7_3 N3_3 1_555 1_555
C4_3 C3_3 1_555 1_555
O1_3 C4_3 1_555 1_555
O2_3 C4_3 1_555 1_555
Co3 O1_3 1_555 1_555
O2_3 Co3 1_555 1_555
C2_3 H1_3 1_555 1_555
C6_3 C5_3 1_555 1_555
H3_3 C6_3 1_555 1_555
C8_3 H6_3 1_555 1_555
C9_3 C8_3 1_555 1_555
C10_3 C9_3 1_555 1_555
C11_3 C9_3 1_555 1_555
H7_3 C11_3 1_555 1_555
C12_3 C11_3 1_555 1_555
H8_3 C12_3 1_555 1_555
Co2 O5_3 1_555 1_555
O5_3 C10_3 1_555 1_555
O8_3 C10_3 1_555 1_555
Co2 O8_3 1_555 1_555
C1_4 C2_4 1_555 1_555
C2_4 H1_4 1_555 1_555
C3_4 C2_4 1_555 1_555
C4_4 C3_4 1_555 1_555
C5_4 C3_4 1_555 1_555
H2_4 C5_4 1_555 1_555
C6_4 C5_4 1_555 1_555
H3_4 C6_4 1_555 1_555
Co1_4 N1_4 1_555 1_555
N1_4 C1_4 1_555 1_555
N2_4 C1_4 1_555 1_555
H4_4 N2_4 1_555 1_555
H5_4 N2_4 1_555 1_555
O1_4 C4_4 1_555 1_555
O2_4 C4_4 1_555 1_555
C7_4 C8_4 1_555 1_555
C8_4 H6_4 1_555 1_555
C9_4 C8_4 1_555 1_555
C10_4 C9_4 1_555 1_555
C11_4 C9_4 1_555 1_555
H7_4 C11_4 1_555 1_555
C12_4 C11_4 1_555 1_555
H8_4 C12_4 1_555 1_555
Co3_2 O1_4 1_555 1_555
Co2_2 O5_4 1_555 1_555
N3_4 Co1_4 1_555 1_555
N4_4 C7_4 1_555 1_555
H9_4 N4_4 1_555 1_555
H10_4 N4_4 1_555 1_555
O3_4 Co1_4 1_555 1_555
O4_4 Co1_4 1_555 1_555
O5_4 C10_4 1_555 1_555
O6_4 Co1_4 1_555 1_555
O7_4 Co1_4 1_555 1_555
O8_4 C10_4 1_555 1_555
C6_4 N1_4 1_555 1_555
O2_4 Co3_2 1_555 1_555
C7_4 N3_4 1_555 1_555
C12_4 N3_4 1_555 1_555
Co2_2 O8_4 1_555 1_555
H2_5 C5_5 1_555 1_555
C6_5 C5_5 1_555 1_555
H3_5 C6_5 1_555 1_555
Co3_2 N1_5 1_555 1_555
C7_5 C8_5 1_555 1_555
C8_5 H6_5 1_555 1_555
C9_5 C8_5 1_555 1_555
C10_5 C9_5 1_555 1_555
C11_5 C9_5 1_555 1_555
H7_5 C11_5 1_555 1_555
C12_5 C11_5 1_555 1_555
H8_5 C12_5 1_555 1_555
N3_5 Co3_2 1_555 1_555
N4_5 C7_5 1_555 1_555
H9_5 N4_5 1_555 1_555
H10_5 N4_5 1_555 1_555
O3_3 C10_5 1_555 1_555
O6_3 C10_5 1_555 1_555
C6_5 N1_5 1_555 1_555
C7_5 N3_5 1_555 1_555
C12_5 N3_5 1_555 1_555
C1_5 C2_5 1_555 1_555
C2_5 H1_5 1_555 1_555
C3_5 C2_5 1_555 1_555
C4_5 C3_5 1_555 1_555
N2_5 C1_5 1_555 1_555
H4_5 N2_5 1_555 1_555
H5_5 N2_5 1_555 1_555
O4 C4_5 1_555 1_555
O7 C4_5 1_555 1_555
C6_6 C5_6 1_555 1_555
H3_6 C6_6 1_555 1_555
Co3 N1_6 1_555 1_555
C7_6 C8_6 1_555 1_555
C8_6 H6_6 1_555 1_555
C9_6 C8_6 1_555 1_555
C10_6 C9_6 1_555 1_555
C11_6 C9_6 1_555 1_555
H7_6 C11_6 1_555 1_555
C12_6 C11_6 1_555 1_555
H8_6 C12_6 1_555 1_555
N3_6 Co3 1_555 1_555
N4_6 C7_6 1_555 1_555
H9_6 N4_6 1_555 1_555
H10_6 N4_6 1_555 1_555
O3_4 C10_6 1_555 1_555
O6_4 C10_6 1_555 1_555
C6_6 N1_6 1_555 1_555
C7_6 N3_6 1_555 1_555
C12_6 N3_6 1_555 1_555
C4_6 C3_6 1_555 1_555
O4_2 C4_6 1_555 1_555
O7_2 C4_6 1_555 1_555
C1_6 C2_6 1_555 1_555
C2_6 H1_6 1_555 1_555
C6_7 C5_7 1_555 1_555
H3_7 C6_7 1_555 1_555
Co2_2 N1_7 1_555 1_555
N1_7 C1_6 1_555 1_555
N2_6 C1_6 1_555 1_555
H4_6 N2_6 1_555 1_555
H5_6 N2_6 1_555 1_555
C7_7 C8_7 1_555 1_555
C8_7 H6_7 1_555 1_555
C9_7 C8_7 1_555 1_555
C10_7 C9_7 1_555 1_555
C11_7 C9_7 1_555 1_555
H7_7 C11_7 1_555 1_555
C12_7 C11_7 1_555 1_555
H8_7 C12_7 1_555 1_555
N3_7 Co2_2 1_555 1_555
N4_7 C7_7 1_555 1_555
H9_7 N4_7 1_555 1_555
H10_7 N4_7 1_555 1_555
O3 C10_7 1_555 1_555
O6 C10_7 1_555 1_555
C6_7 N1_7 1_555 1_555
C7_7 N3_7 1_555 1_555
C12_7 N3_7 1_555 1_555
C4_7 C3_7 1_555 1_555
O4_3 C4_7 1_555 1_555
O7_3 C4_7 1_555 1_555
C1_7 C2_7 1_555 1_555
C2_7 H1_7 1_555 1_555
C3_8 C2_7 1_555 1_555
C4_8 C3_8 1_555 1_555
C5_8 C3_8 1_555 1_555
H2_7 C5_8 1_555 1_555
C6_8 C5_8 1_555 1_555
H3_8 C6_8 1_555 1_555
Co2 N1_8 1_555 1_555
N1_8 C1_7 1_555 1_555
N2_7 C1_7 1_555 1_555
H4_7 N2_7 1_555 1_555
H5_7 N2_7 1_555 1_555
O4_4 C4_8 1_555 1_555
O7_4 C4_8 1_555 1_555
C7_8 C8_8 1_555 1_555
C8_8 H6_8 1_555 1_555
C9_8 C8_8 1_555 1_555
C10_8 C9_8 1_555 1_555
C11_8 C9_8 1_555 1_555
H7_8 C11_8 1_555 1_555
C12_8 C11_8 1_555 1_555
H8_8 C12_8 1_555 1_555
N3_8 Co2 1_555 1_555
N4_8 C7_8 1_555 1_555
H9_8 N4_8 1_555 1_555
H10_8 N4_8 1_555 1_555
O3_2 C10_8 1_555 1_555
O6_2 C10_8 1_555 1_555
C6_8 N1_8 1_555 1_555
C7_8 N3_8 1_555 1_555
C12_8 N3_8 1_555 1_555
C1_8 C2_8 1_555 1_555
C2_8 H1_8 1_555 1_555
C3_9 C2_8 1_555 1_555
C4_9 C3_9 1_555 1_555
N2_8 C1_8 1_555 1_555
H4_8 N2_8 1_555 1_555
H5_8 N2_8 1_555 1_555
O1_5 C4_9 1_555 1_555
O2_5 C4_9 1_555 1_555
Co2_3 O1_5 1_555 1_555
O2_5 Co2_3 1_555 1_555
H2_8 C5_9 1_555 1_555
C6_9 C5_9 1_555 1_555
H3_9 C6_9 1_555 1_555
Co1_5 N1_9 1_555 1_555
C7_9 C8_9 1_555 1_555
C8_9 H6_9 1_555 1_555
C9_9 C8_9 1_555 1_555
C10_9 C9_9 1_555 1_555
C11_9 C9_9 1_555 1_555
H7_9 C11_9 1_555 1_555
C12_9 C11_9 1_555 1_555
H8_9 C12_9 1_555 1_555
Co3_3 O5_5 1_555 1_555
N3_9 Co1_5 1_555 1_555
N4_9 C7_9 1_555 1_555
H9_9 N4_9 1_555 1_555
H10_9 N4_9 1_555 1_555
O3_5 Co1_5 1_555 1_555
O4_5 Co1_5 1_555 1_555
O5_5 C10_9 1_555 1_555
O6_5 Co1_5 1_555 1_555
O7_5 Co1_5 1_555 1_555
O8_5 C10_9 1_555 1_555
C6_9 N1_9 1_555 1_555
C7_9 N3_9 1_555 1_555
C12_9 N3_9 1_555 1_555
Co3_3 O8_5 1_555 1_555
C4_10 C3_10 1_555 1_555
O1_6 C4_10 1_555 1_555
O2_6 C4_10 1_555 1_555
Co2_4 O1_6 1_555 1_555
O2_6 Co2_4 1_555 1_555
C6_10 C5_10 1_555 1_555
H3_10 C6_10 1_555 1_555
Co1_6 N1_10 1_555 1_555
C7_10 C8_10 1_555 1_555
C8_10 H6_10 1_555 1_555
C9_10 C8_10 1_555 1_555
C10_10 C9_10 1_555 1_555
C11_10 C9_10 1_555 1_555
H7_10 C11_10 1_555 1_555
C12_10 C11_10 1_555 1_555
H8_10 C12_10 1_555 1_555
Co3_4 O5_6 1_555 1_555
N3_10 Co1_6 1_555 1_555
N4_10 C7_10 1_555 1_555
H9_10 N4_10 1_555 1_555
H10_10 N4_10 1_555 1_555
O3_6 Co1_6 1_555 1_555
O4_6 Co1_6 1_555 1_555
O5_6 C10_10 1_555 1_555
O6_6 Co1_6 1_555 1_555
O7_6 Co1_6 1_555 1_555
O8_6 C10_10 1_555 1_555
C6_10 N1_10 1_555 1_555
C7_10 N3_10 1_555 1_555
C12_10 N3_10 1_555 1_555
Co3_4 O8_6 1_555 1_555
C4_11 C3_11 1_555 1_555
O1_7 C4_11 1_555 1_555
O2_7 C4_11 1_555 1_555
Co3_3 O1_7 1_555 1_555
O2_7 Co3_3 1_555 1_555
C1_9 C2_9 1_555 1_555
C2_9 H1_9 1_555 1_555
C6_11 C5_11 1_555 1_555
H3_11 C6_11 1_555 1_555
Co1_7 N1_11 1_555 1_555
N1_11 C1_9 1_555 1_555
N2_9 C1_9 1_555 1_555
H4_9 N2_9 1_555 1_555
H5_9 N2_9 1_555 1_555
C7_11 C8_11 1_555 1_555
C8_11 H6_11 1_555 1_555
C9_11 C8_11 1_555 1_555
C10_11 C9_11 1_555 1_555
C11_11 C9_11 1_555 1_555
H7_11 C11_11 1_555 1_555
C12_11 C11_11 1_555 1_555
H8_11 C12_11 1_555 1_555
Co2_3 O5_7 1_555 1_555
N3_11 Co1_7 1_555 1_555
N4_11 C7_11 1_555 1_555
H9_11 N4_11 1_555 1_555
H10_11 N4_11 1_555 1_555
O3_7 Co1_7 1_555 1_555
O4_7 Co1_7 1_555 1_555
O5_7 C10_11 1_555 1_555
O6_7 Co1_7 1_555 1_555
O7_7 Co1_7 1_555 1_555
O8_7 C10_11 1_555 1_555
C6_11 N1_11 1_555 1_555
C7_11 N3_11 1_555 1_555
C12_11 N3_11 1_555 1_555
Co2_3 O8_7 1_555 1_555
C1_10 C2_10 1_555 1_555
C2_10 H1_10 1_555 1_555
C3_12 C2_10 1_555 1_555
C4_12 C3_12 1_555 1_555
C5_12 C3_12 1_555 1_555
H2_10 C5_12 1_555 1_555
C6_12 C5_12 1_555 1_555
H3_12 C6_12 1_555 1_555
Co1_8 N1_12 1_555 1_555
N1_12 C1_10 1_555 1_555
N2_10 C1_10 1_555 1_555
H4_10 N2_10 1_555 1_555
H5_10 N2_10 1_555 1_555
O1_8 C4_12 1_555 1_555
O2_8 C4_12 1_555 1_555
C7_12 C8_12 1_555 1_555
C8_12 H6_12 1_555 1_555
C9_12 C8_12 1_555 1_555
C10_12 C9_12 1_555 1_555
C11_12 C9_12 1_555 1_555
H7_12 C11_12 1_555 1_555
C12_12 C11_12 1_555 1_555
H8_12 C12_12 1_555 1_555
Co3_4 O1_8 1_555 1_555
Co2_4 O5_8 1_555 1_555
N3_12 Co1_8 1_555 1_555
N4_12 C7_12 1_555 1_555
H9_12 N4_12 1_555 1_555
H10_12 N4_12 1_555 1_555
O3_8 Co1_8 1_555 1_555
O4_8 Co1_8 1_555 1_555
O5_8 C10_12 1_555 1_555
O6_8 Co1_8 1_555 1_555
O7_8 Co1_8 1_555 1_555
O8_8 C10_12 1_555 1_555
C6_12 N1_12 1_555 1_555
O2_8 Co3_4 1_555 1_555
C7_12 N3_12 1_555 1_555
C12_12 N3_12 1_555 1_555
Co2_4 O8_8 1_555 1_555
C2_11 H1_11 1_555 1_555
C3_13 C2_11 1_555 1_555
C4_13 C3_13 1_555 1_555
C5_13 C3_13 1_555 1_555
H2_11 C5_13 1_555 1_555
C6_13 C5_13 1_555 1_555
H3_13 C6_13 1_555 1_555
O4_8 C4_13 1_555 1_555
O7_8 C4_13 1_555 1_555
H7_13 C11_13 1_555 1_555
C12_13 C11_13 1_555 1_555
H8_13 C12_13 1_555 1_555
Co2_3 N1_13 1_555 1_555
N1_13 C1_11 1_555 1_555
N2_11 C1_11 1_555 1_555
H4_11 N2_11 1_555 1_555
H5_11 N2_11 1_555 1_555
N3_13 Co2_3 1_555 1_555
C8_13 H6_13 1_555 1_555
C9_13 C8_13 1_555 1_555
C10_13 C9_13 1_555 1_555
O3_6 C10_13 1_555 1_555
O6_6 C10_13 1_555 1_555
C1_12 C2_12 1_555 1_555
C2_12 H1_12 1_555 1_555
C6_14 C5_14 1_555 1_555
H3_14 C6_14 1_555 1_555
Co2_4 N1_14 1_555 1_555
N1_14 C1_12 1_555 1_555
N2_12 C1_12 1_555 1_555
H4_12 N2_12 1_555 1_555
H5_12 N2_12 1_555 1_555
H7_14 C11_14 1_555 1_555
C12_14 C11_14 1_555 1_555
H8_14 C12_14 1_555 1_555
N3_14 Co2_4 1_555 1_555
C6_14 N1_14 1_555 1_555
C12_14 N3_14 1_555 1_555
C4_14 C3_14 1_555 1_555
O4_7 C4_14 1_555 1_555
O7_7 C4_14 1_555 1_555
C7_13 C8_14 1_555 1_555
C8_14 H6_14 1_555 1_555
C9_14 C8_14 1_555 1_555
C10_14 C9_14 1_555 1_555
N4_13 C7_13 1_555 1_555
H9_13 N4_13 1_555 1_555
H10_13 N4_13 1_555 1_555
O3_5 C10_14 1_555 1_555
O6_5 C10_14 1_555 1_555
C2_13 H1_13 1_555 1_555
C6_15 C5_15 1_555 1_555
H3_15 C6_15 1_555 1_555
C8_15 H6_15 1_555 1_555
C9_15 C8_15 1_555 1_555
C10_15 C9_15 1_555 1_555
C11_15 C9_15 1_555 1_555
H7_15 C11_15 1_555 1_555
C12_15 C11_15 1_555 1_555
H8_15 C12_15 1_555 1_555
O3_8 C10_15 1_555 1_555
O6_8 C10_15 1_555 1_555
C4_15 C3_15 1_555 1_555
O4_6 C4_15 1_555 1_555
O7_6 C4_15 1_555 1_555
Co3_3 N1_15 1_555 1_555
N1_15 C1_13 1_555 1_555
N2_13 C1_13 1_555 1_555
H4_13 N2_13 1_555 1_555
H5_13 N2_13 1_555 1_555
N3_15 Co3_3 1_555 1_555
N4_14 C7_14 1_555 1_555
H9_14 N4_14 1_555 1_555
H10_14 N4_14 1_555 1_555
C7_14 N3_15 1_555 1_555
C1_14 C2_14 1_555 1_555
C2_14 H1_14 1_555 1_555
C3_16 C2_14 1_555 1_555
C4_16 C3_16 1_555 1_555
C5_16 C3_16 1_555 1_555
H2_14 C5_16 1_555 1_555
C6_16 C5_16 1_555 1_555
H3_16 C6_16 1_555 1_555
Co3_4 N1_16 1_555 1_555
N1_16 C1_14 1_555 1_555
N2_14 C1_14 1_555 1_555
H4_14 N2_14 1_555 1_555
H5_14 N2_14 1_555 1_555
O4_5 C4_16 1_555 1_555
O7_5 C4_16 1_555 1_555
C7_15 C8_16 1_555 1_555
C8_16 H6_16 1_555 1_555
C9_16 C8_16 1_555 1_555
C10_16 C9_16 1_555 1_555
C11_16 C9_16 1_555 1_555
H7_16 C11_16 1_555 1_555
C12_16 C11_16 1_555 1_555
H8_16 C12_16 1_555 1_555
N3_16 Co3_4 1_555 1_555
N4_15 C7_15 1_555 1_555
H9_15 N4_15 1_555 1_555
H10_15 N4_15 1_555 1_555
O3_7 C10_16 1_555 1_555
O6_7 C10_16 1_555 1_555
C6_16 N1_16 1_555 1_555
C7_15 N3_16 1_555 1_555
C12_16 N3_16 1_555 1_555
C1_15 C2_15 1_555 1_555
C2_15 H1_15 1_555 1_555
N2_15 C1_15 1_555 1_555
H4_15 N2_15 1_555 1_555
H5_15 N2_15 1_555 1_555
N4_16 C7_16 1_555 1_555
H9_16 N4_16 1_555 1_555
H10_16 N4_16 1_555 1_555
C1_16 C2_16 1_555 1_555
C2_16 H1_16 1_555 1_555
N2_16 C1_16 1_555 1_555
H4_16 N2_16 1_555 1_555
H5_16 N2_16 1_555 1_555

#END
