
###############################################################################
#
# This file contains modified crystal structure data generated from the
# MOF subset of the Cambridge Structural Database (CSD) v543 
# hosted by the Cambridge Crystallographic Data Centre (CCDC).
#
# This work is licensed under the Creative Commons
# Attribution-NonCommercial-ShareAlike 4.0 International License.
# To view a copy of this license, visit
# http://creativecommons.org/licenses/by-nc-sa/4.0/
# or send a letter to
# Creative Commons, PO Box 1866, Mountain View, CA 94042, USA.
#
# CIF created using the CSD Python API on 29 September 2022
# The structure has been converted into the P1 space group
# The structure has a 3D framework
# The original CSD entry HAJYEA is in the orthorhombic crystal system
# The original CSD entry HAJYEA is in a Sohncke space group
# The framework has been calculated to contain at least 10.0% void space
# The void calculation uses a probe of radius 1.32A, grid spacing 0.4
#
###############################################################################

data_HAJYEA
_chemical_formula_moiety         '(C264 H160 Mn12 N16 O67 S12)n'
_symmetry_cell_setting           triclinic
_symmetry_space_group_name_H-M   'P 1'
_symmetry_Int_Tables_number      1
_space_group_name_Hall           'P 1'
loop_
_symmetry_equiv_pos_site_id
_symmetry_equiv_pos_as_xyz
1 x,y,z
_cell_length_a                   10.9407(13)
_cell_length_b                   26.820(3)
_cell_length_c                   28.430(3)
_cell_angle_alpha                90
_cell_angle_beta                 90
_cell_angle_gamma                90
_cell_volume                     8342.2
loop_
_atom_site_label
_atom_site_type_symbol
_atom_site_fract_x
_atom_site_fract_y
_atom_site_fract_z
Mn3 Mn 0.08578(5) 0.51765(2) 0.57025(2)
S1 S 0.27341(13) 0.26439(3) 0.38836(4)
O3 O 0.1371(3) 0.45876(9) 0.52628(9)
O7 O 0.1833(2) 0.05854(8) 0.52001(8)
N2 N 0.2758(3) 0.52288(11) 0.59949(10)
C1 C 0.1164(3) 0.39314(12) 0.47175(12)
O14 O 0.4046(4) 0.26638(10) 0.38997(14)
O15 O 0.2133(5) 0.26290(11) 0.34403(11)
N3 N 0.0838(3) 0.58061(13) 0.62333(12)
C4 C 0.1055(3) 0.08558(12) 0.49782(13)
C5 C 0.0653(3) 0.43646(12) 0.49832(12)
C6 C 0.3087(4) 0.18576(12) 0.44814(14)
H1 H 0.3913 0.1964 0.4501
C9 C 0.2849(4) 0.33897(13) 0.45299(14)
H2 H 0.3670 0.3287 0.4579
C10 C 0.2364(3) 0.37880(12) 0.47846(14)
H3 H 0.2861 0.3961 0.5005
C12 C 0.0432(3) 0.36839(12) 0.43885(12)
C14 C 0.1949(4) 0.59019(14) 0.64378(13)
C18 C 0.2950(4) 0.55938(15) 0.63020(13)
C20 C 0.2255(4) 0.21194(13) 0.42114(14)
C21 C 0.1484(3) 0.12971(13) 0.47044(13)
C24 C 0.4886(4) 0.50354(17) 0.60093(16)
H7 H 0.5543 0.4841 0.5891
C25 C 0.2134(4) 0.31500(13) 0.42105(14)
C29 C 0.2702(3) 0.14400(13) 0.47227(13)
H10 H 0.3270 0.1250 0.4901
C31 C 0.1016(4) 0.19739(14) 0.41883(15)
H11 H 0.0449 0.2159 0.4005
C40 C 0.4116(4) 0.56908(16) 0.64965(14)
C41 C 0.3690(4) 0.49587(15) 0.58489(15)
H19 H 0.3545 0.4702 0.5626
C43 C 0.5089(4) 0.5402(2) 0.63444(17)
H21 H 0.5885 0.5455 0.6468
C44 C 0.0644(4) 0.15623(13) 0.44329(15)
C45 C 0.0924(4) 0.32877(13) 0.41286(14)
H23 H 0.0444 0.3117 0.3902
C47 C 0.2102(5) 0.63122(16) 0.67423(13)
C56 C 0.4290(5) 0.60932(19) 0.68237(15)
H30 H 0.5069 0.6151 0.6961
C59 C 0.3300(6) 0.6398(2) 0.69364(14)
H33 H 0.3418 0.6669 0.7146
C62 C 0.1113(7) 0.6618(2) 0.68321(17)
H36 H 0.1207 0.6903 0.7028
C66 C 0.0007(7) 0.6513(2) 0.6640(2)
Mn8 Mn 0.02479(5) 0.01900(2) 0.55696(2)
O23 O 0.1303(2) 0.57522(10) 0.51329(10)
Mn6 Mn 0.31080(5) 0.99979(2) 0.49666(2)
Mn4 Mn 0.68920(5) 0.49979(2) 0.00334(2)
Mn1 Mn 0.81080(5) 0.50021(2) 0.50334(2)
Mn2 Mn 0.52479(5) 0.48100(2) 0.44304(2)
S2 S 0.37223(13) 0.74459(4) 0.61674(4)
S3 S 0.70332(16) 0.30514(4) 0.74987(3)
O1 O 0.6654(2) 0.55255(9) 0.51601(9)
O2 O 0.4374(2) 0.94186(8) 0.47175(8)
O4 O 0.9566(2) 0.44871(9) 0.49034(9)
O5 O 0.7878(2) 0.47100(8) 0.57477(8)
O6 O 0.6653(2) 0.46862(9) 0.93231(8)
O8 O 0.9930(2) 0.07621(9) 0.50006(10)
O9 O 0.6303(2) 0.92478(10) 0.48671(10)
O10 O 0.4801(3) 0.54246(9) 0.48522(10)
O11 O 0.9719(3) 0.47216(11) 0.61054(9)
O12 O 0.8547(3) 0.47711(11) 0.90356(10)
N1 N 0.3375(3) 0.48059(11) 0.41144(10)
O13 O 0.4420(4) 0.74833(11) 0.65988(10)
C2 C 0.5556(3) 0.56494(12) 0.51001(12)
O16 O 0.2404(3) 0.74252(11) 0.61781(13)
C3 C 0.5113(3) 0.61026(12) 0.53637(12)
O17 O 0.5777(4) 0.29153(12) 0.74125(11)
N4 N 0.5297(3) 0.42164(11) 0.38670(11)
C7 C 0.7515(4) 0.45720(13) 0.90436(13)
C8 C 0.2051(4) 0.43901(15) 0.35515(13)
C11 C 0.8221(4) 0.41712(12) 0.64032(12)
H4 H 0.9607 0.3784 0.4342
C13 C 0.5195(3) 0.91612(12) 0.49275(12)
O18 O 0.7928(5) 0.26689(10) 0.75592(10)
C15 C 0.7331(4) 0.41690(13) 0.86892(13)
C16 C 0.1097(4) 0.46931(17) 0.37084(15)
H5 H 0.0306 0.4655 0.3575
C17 C 0.8625(4) 0.45668(13) 0.60516(12)
C19 C 0.7509(5) 0.34624(13) 0.70444(13)
C22 C 0.3198(4) 0.44599(13) 0.37753(12)
C23 C 0.2448(3) 0.50826(13) 0.42557(13)
H6 H 0.2574 0.5315 0.4503
C26 C 0.3894(3) 0.62431(13) 0.53236(14)
H8 H 0.3355 0.6058 0.5128
C27 C 0.4807(4) 0.87411(12) 0.52417(13)
C28 C 0.5488(4) 0.67859(13) 0.59022(14)
H9 H 0.6021 0.6970 0.6101
C30 C 0.4140(4) 0.79518(13) 0.58028(13)
C32 C 0.6638(5) 0.37238(14) 0.68052(14)
H12 H 0.5794 0.3665 0.6861
C33 C 0.3599(4) 0.85849(13) 0.52485(13)
H13 H 0.3005 0.8750 0.5061
C34 C 0.4252(4) 0.69223(13) 0.58511(13)
C35 C 0.1278(4) 0.50450(16) 0.40513(14)
H14 H 0.0632 0.5258 0.4148
C36 C 0.5905(4) 0.63721(12) 0.56513(12)
H15 H 0.6736 0.6273 0.5677
C37 C 0.3463(4) 0.66593(13) 0.55736(14)
H16 H 0.2630 0.6757 0.5550
C38 C 0.5683(4) 0.85080(13) 0.55237(14)
H17 H 0.6509 0.8616 0.5516
C39 C 0.6165(4) 0.40513(15) 0.85055(14)
H18 H 0.5454 0.4211 0.8624
C42 C 0.5337(5) 0.81146(15) 0.58169(15)
H20 H 0.5912 0.7962 0.6022
H22 H 0.9816 0.1457 0.4418
C46 C 0.4212(4) 0.41486(14) 0.36409(13)
C48 C 0.9095(5) 0.39021(16) 0.66447(15)
H24 H 0.9938 0.3966 0.6593
C49 C 0.7007(4) 0.40785(13) 0.64776(14)
H25 H 0.6410 0.4258 0.6304
C50 C 0.6074(5) 0.36966(15) 0.81468(14)
H26 H 0.5299 0.3619 0.8015
C51 C 0.1955(5) 0.40172(17) 0.31978(15)
H27 H 0.1193 0.3975 0.3042
C52 C 0.4062(5) 0.37849(15) 0.32908(14)
C53 C 0.3265(4) 0.81853(13) 0.55315(14)
H28 H 0.2441 0.8074 0.5538
C54 C 0.8350(5) 0.39195(18) 0.85123(17)
H29 H 0.9141 0.4005 0.8624
C55 C 0.7112(5) 0.34588(14) 0.79833(13)
C57 C 0.9922(5) 0.6100(2) 0.63419(19)
H31 H 0.9146 0.6027 0.6208
C58 C 0.2883(6) 0.37251(16) 0.30749(15)
H32 H 0.2766 0.3475 0.2843
C60 C 0.8735(6) 0.35334(16) 0.69675(15)
H34 H 0.9326 0.3338 0.7128
C61 C 0.6251(5) 0.39331(18) 0.37540(17)
H35 H 0.6998 0.3980 0.3918
C63 C 0.6195(5) 0.35658(19) 0.33995(17)
H37 H 0.6899 0.3379 0.3315
C64 C 0.8229(5) 0.35523(19) 0.81788(17)
H38 H 0.8921 0.3363 0.8084
C65 C 0.5083(6) 0.34864(17) 0.31793(16)
H39 H 0.5008 0.3229 0.2951
H40 H 0.9312 0.6713 0.6707
Mn7 Mn 0.97521(5) 0.51900(2) 0.94304(2)
Mn9 Mn 0.58578(5) 0.98235(2) 0.42975(2)
O19 O 0.9374(2) 0.55814(8) 0.52825(8)
O20 O 0.8347(2) 0.53138(9) 0.43231(8)
O21 O 0.6833(2) 0.44146(8) 0.47999(8)
O22 O 0.4930(2) 0.42379(9) 0.49994(10)
O24 O 0.6453(3) 0.52289(11) 0.40356(10)
O2_2 O 0.0626(2) 0.05814(8) 0.97175(8)
O10_2 O 0.0199(3) 0.45754(9) 0.98522(10)
N1_2 N 0.1625(3) 0.51941(11) 0.91144(10)
C8_2 C 0.2949(4) 0.56099(15) 0.85515(13)
C16_2 C 0.3903(4) 0.53069(17) 0.87084(15)
H5_2 H 0.4694 0.5345 0.8575
C22_2 C 0.1802(4) 0.55401(13) 0.87753(12)
C23_2 C 0.2552(3) 0.49174(13) 0.92557(13)
H6_2 H 0.2426 0.4685 0.9503
C35_2 C 0.3722(4) 0.49550(16) 0.90513(14)
H14_2 H 0.4368 0.4742 0.9148
C46_2 C 0.0788(4) 0.58514(14) 0.86409(13)
C51_2 C 0.3045(5) 0.59828(17) 0.81978(15)
H27_2 H 0.3807 0.6025 0.8042
C52_2 C 0.0938(5) 0.62151(15) 0.82908(14)
C58_2 C 0.2117(6) 0.62749(16) 0.80749(15)
H32_2 H 0.2234 0.6525 0.7843
Mn5 Mn 0.18920(5) 0.00021(2) 0.99666(2)
O22_2 O 0.0070(2) 0.57621(9) 0.99994(10)
Mn3_2 Mn 0.41422(5) 0.48235(2) 0.07025(2)
S3_2 S 0.79668(16) 0.69486(4) 0.24987(3)
O1_2 O 0.8346(2) 0.44745(9) 0.01601(9)
O3_2 O 0.3629(3) 0.54124(9) 0.02628(9)
O5_2 O 0.7122(2) 0.52900(8) 0.07477(8)
O7_2 O 0.3167(2) 0.94146(8) 0.02001(8)
O8_2 O 0.5070(2) 0.92379(9) 0.00006(10)
O11_2 O 0.5281(3) 0.52784(11) 0.11054(9)
N2_2 N 0.2242(3) 0.47712(11) 0.09949(10)
C2_2 C 0.9444(3) 0.43506(12) 0.01001(12)
N3_2 N 0.4162(3) 0.41939(13) 0.12333(12)
C3_2 C 0.9887(3) 0.38974(12) 0.03637(12)
O17_2 O 0.9223(4) 0.70847(12) 0.24125(11)
C7_2 C 0.7485(4) 0.54280(13) 0.40436(13)
H3_2 H 0.2139 0.6039 0.0005
C11_2 C 0.6779(4) 0.58288(12) 0.14032(12)
O18_2 O 0.7072(5) 0.73311(10) 0.25592(10)
C14_2 C 0.3051(4) 0.40981(14) 0.14378(13)
C15_2 C 0.7669(4) 0.58310(13) 0.36892(13)
C17_2 C 0.6375(4) 0.54332(13) 0.10516(12)
C18_2 C 0.2050(4) 0.44062(15) 0.13020(13)
C19_2 C 0.7491(5) 0.65376(13) 0.20444(13)
C24_2 C 0.0114(4) 0.49646(17) 0.10093(16)
C28_2 C 0.9512(4) 0.32141(13) 0.09022(14)
H9_2 H 0.8979 0.3030 0.1101
C32_2 C 0.8362(5) 0.62762(14) 0.18052(14)
H12_2 H 0.9206 0.6335 0.1861
C36_2 C 0.9095(4) 0.36279(12) 0.06513(12)
H15_2 H 0.8264 0.3727 0.0677
C38_2 C 0.9317(4) 0.14920(13) 0.05237(14)
H17_2 H 0.8491 0.1384 0.0516
C39_2 C 0.8835(4) 0.59487(15) 0.35055(14)
H18_2 H 0.9546 0.5789 0.3624
C40_2 C 0.0884(4) 0.43092(16) 0.14965(14)
C41_2 C 0.1310(4) 0.50413(15) 0.08489(15)
H19_2 H 0.1455 0.5298 0.0626
C42_2 C 0.9663(5) 0.18854(15) 0.08169(15)
H20_2 H 0.9088 0.2038 0.1022
C47_2 C 0.2898(5) 0.36878(16) 0.17423(13)
C48_2 C 0.5905(5) 0.60979(16) 0.16447(15)
H24_2 H 0.5062 0.6034 0.1593
C49_2 C 0.7993(4) 0.59215(13) 0.14776(14)
H25_2 H 0.8590 0.5742 0.1304
C50_2 C 0.8926(5) 0.63034(15) 0.31468(14)
H26_2 H 0.9701 0.6381 0.3015
C54_2 C 0.6650(5) 0.60805(18) 0.35123(17)
H29_2 H 0.5859 0.5995 0.3624
C55_2 C 0.7888(5) 0.65412(14) 0.29833(13)
C56_2 C 0.0710(5) 0.39068(19) 0.18237(15)
C57_2 C 0.5078(5) 0.3900(2) 0.13419(19)
H31_2 H 0.5854 0.3973 0.1208
C59_2 C 0.1700(6) 0.3602(2) 0.19364(14)
H33_2 H 0.1582 0.3331 0.2146
C60_2 C 0.6265(6) 0.64666(16) 0.19675(15)
H34_2 H 0.5674 0.6662 0.2128
C62_2 C 0.3887(7) 0.3382(2) 0.18321(17)
H36_2 H 0.3793 0.3097 0.2028
C64_2 C 0.6771(5) 0.64477(19) 0.31788(17)
H38_2 H 0.6079 0.6637 0.3084
C66_2 C 0.4993(7) 0.3487(2) 0.1640(2)
H40_2 H 0.5688 0.3287 0.1707
Mn8_2 Mn 0.47521(5) 0.98100(2) 0.05696(2)
O19_2 O 0.5626(2) 0.44186(8) 0.02825(8)
O23_2 O 0.3697(2) 0.42478(10) 0.01329(10)
S1_2 S 0.22659(13) 0.73561(3) 0.88836(4)
O4_2 O 0.5434(2) 0.55129(9) 0.99034(9)
O9_2 O 0.8697(2) 0.07522(10) 0.98671(10)
C1_2 C 0.3836(3) 0.60686(12) 0.97175(12)
O14_2 O 0.0954(4) 0.73362(10) 0.88997(14)
O15_2 O 0.2867(5) 0.73710(11) 0.84403(11)
C4_2 C 0.3945(3) 0.91442(12) 0.99782(13)
C5_2 C 0.4347(3) 0.56354(12) 0.99832(12)
N4_2 N 0.9703(3) 0.57836(11) 0.88670(11)
C6_2 C 0.1913(4) 0.81424(12) 0.94814(14)
H1_2 H 0.1087 0.8036 0.9501
C9_2 C 0.2151(4) 0.66103(13) 0.95299(14)
H2_2 H 0.1330 0.6713 0.9579
C10_2 C 0.2636(3) 0.62120(12) 0.97846(14)
C12_2 C 0.4568(3) 0.63161(12) 0.93885(12)
H4_2 H 0.5393 0.6216 0.9342
C13_2 C 0.9805(3) 0.08388(12) 0.99275(12)
C20_2 C 0.2745(4) 0.78806(13) 0.92114(14)
C21_2 C 0.3516(3) 0.87029(13) 0.97044(13)
C25_2 C 0.2866(4) 0.68500(13) 0.92105(14)
C29_2 C 0.2298(3) 0.85600(13) 0.97227(13)
H10_2 H 0.1730 0.8750 0.9901
C31_2 C 0.3984(4) 0.80261(14) 0.91883(15)
H11_2 H 0.4551 0.7841 0.9005
C44_2 C 0.4356(4) 0.84377(13) 0.94329(15)
H22_2 H 0.5184 0.8543 0.9418
C45_2 C 0.4076(4) 0.67123(13) 0.91286(14)
H23_2 H 0.4556 0.6883 0.8902
C61_2 C 0.8749(5) 0.60669(18) 0.87540(17)
H35_2 H 0.8002 0.6020 0.8918
C63_2 C 0.8805(5) 0.64342(19) 0.83995(17)
H37_2 H 0.8101 0.6621 0.8315
C65_2 C 0.9917(6) 0.65136(17) 0.81793(16)
H39_2 H 0.9992 0.6771 0.7951
Mn9_2 Mn 0.91422(5) 0.01765(2) 0.92975(2)
O21_2 O 0.8167(2) 0.55854(8) 0.97999(8)
O10_3 O 0.5199(3) 0.04246(9) 0.01478(10)
C13_3 C 0.4805(3) 0.41612(12) 0.00725(12)
C23_3 C 0.7552(3) 0.00826(13) 0.07443(13)
H6_3 H 0.7426 0.0315 0.0497
C35_3 C 0.8722(4) 0.00450(16) 0.09487(14)
H14_3 H 0.9368 0.0258 0.0852
O20_2 O 0.1653(2) 0.03138(9) 0.06769(8)
O24_2 O 0.3547(3) 0.02289(11) 0.09644(10)
S2_2 S 0.62777(13) 0.24459(4) 0.88326(4)
O1_3 O 0.3346(2) 0.05255(9) 0.98399(9)
O13_2 O 0.5580(4) 0.24833(11) 0.84012(10)
C2_3 C 0.4444(3) 0.06494(12) 0.98999(12)
O16_2 O 0.7596(3) 0.24252(11) 0.88219(13)
C3_3 C 0.4887(3) 0.11026(12) 0.96363(12)
C26_2 C 0.6106(3) 0.12431(13) 0.96764(14)
H8_2 H 0.6645 0.1058 0.9872
C27_2 C 0.5193(4) 0.37411(12) 0.97583(13)
C28_3 C 0.4512(4) 0.17859(13) 0.90978(14)
H9_3 H 0.3979 0.1970 0.8899
C30_2 C 0.5860(4) 0.29518(13) 0.91972(13)
C33_2 C 0.6401(4) 0.35849(13) 0.97515(13)
H13_2 H 0.6995 0.3750 0.9939
C34_2 C 0.5748(4) 0.19223(13) 0.91489(13)
C36_3 C 0.4095(4) 0.13721(12) 0.93487(12)
H15_3 H 0.3264 0.1273 0.9323
C37_2 C 0.6537(4) 0.16593(13) 0.94264(14)
H16_2 H 0.7370 0.1757 0.9450
C38_3 C 0.4317(4) 0.35080(13) 0.94763(14)
H17_3 H 0.3491 0.3616 0.9484
C42_3 C 0.4663(5) 0.31146(15) 0.91831(15)
H20_3 H 0.4088 0.2962 0.8978
C53_2 C 0.6735(4) 0.31853(13) 0.94685(14)
H28_2 H 0.7559 0.3074 0.9462
C57_3 C 0.0078(5) 0.1100(2) 0.86581(19)
H31_3 H 0.0854 0.1027 0.8792
H40_3 H 0.0688 0.1713 0.8293
O4_3 O 0.0434(2) 0.94871(9) 0.00966(9)
N1_3 N 0.6625(3) 0.98059(11) 0.08856(10)
N4_3 N 0.4703(3) 0.92164(11) 0.11330(11)
C8_3 C 0.7949(4) 0.93901(15) 0.14485(13)
H4_3 H 0.0393 0.8784 0.0658
C16_3 C 0.8903(4) 0.96931(17) 0.12916(15)
H5_3 H 0.9694 0.9655 0.1425
C22_3 C 0.6802(4) 0.94599(13) 0.12247(12)
H22_3 H 0.0184 0.6457 0.0582
C46_3 C 0.5788(4) 0.91486(14) 0.13591(13)
C51_3 C 0.8045(5) 0.90172(17) 0.18022(15)
H27_3 H 0.8807 0.8975 0.1958
C52_3 C 0.5938(5) 0.87849(15) 0.17092(14)
C58_3 C 0.7117(6) 0.87251(16) 0.19251(15)
H32_3 H 0.7234 0.8475 0.2157
C61_3 C 0.3749(5) 0.89331(18) 0.12460(17)
H35_3 H 0.3002 0.8980 0.1082
C63_3 C 0.3805(5) 0.85658(19) 0.16005(17)
H37_3 H 0.3101 0.8379 0.1685
C65_3 C 0.4917(6) 0.84864(17) 0.18207(16)
H39_3 H 0.4992 0.8229 0.2049
S3_3 S 0.29668(16) 0.80514(4) 0.75013(3)
O5_3 O 0.2122(2) 0.97100(8) 0.92523(8)
O6_2 O 0.3347(2) 0.96862(9) 0.56769(8)
O11_3 O 0.0281(3) 0.97216(11) 0.88946(9)
O12_2 O 0.1453(3) 0.97711(11) 0.59644(10)
O17_3 O 0.4223(4) 0.79153(12) 0.75875(11)
C7_3 C 0.2485(4) 0.95720(13) 0.59564(13)
C11_3 C 0.1779(4) 0.91712(12) 0.85968(12)
O18_3 O 0.2072(5) 0.76689(10) 0.74408(10)
C15_3 C 0.2669(4) 0.91690(13) 0.63108(13)
C17_3 C 0.1375(4) 0.95668(13) 0.89484(12)
C19_3 C 0.2491(5) 0.84624(13) 0.79556(13)
C32_3 C 0.3362(5) 0.87238(14) 0.81948(14)
H12_3 H 0.4206 0.8665 0.8139
C39_3 C 0.3835(4) 0.90513(15) 0.64945(14)
H18_3 H 0.4546 0.9211 0.6376
C48_3 C 0.0905(5) 0.89021(16) 0.83553(15)
H24_3 H 0.0062 0.8966 0.8407
C49_3 C 0.2993(4) 0.90785(13) 0.85224(14)
H25_3 H 0.3590 0.9258 0.8696
C50_3 C 0.3926(5) 0.86966(15) 0.68532(14)
H26_3 H 0.4701 0.8619 0.6985
C54_3 C 0.1650(5) 0.89195(18) 0.64877(17)
H29_3 H 0.0859 0.9005 0.6376
C55_3 C 0.2888(5) 0.84588(14) 0.70167(13)
C60_3 C 0.1265(6) 0.85334(16) 0.80325(15)
H34_3 H 0.0674 0.8338 0.7872
C64_3 C 0.1771(5) 0.85523(19) 0.68212(17)
H38_3 H 0.1079 0.8363 0.6916
N2_3 N 0.7242(3) 0.02288(11) 0.90051(10)
N3_3 N 0.9162(3) 0.08061(13) 0.87667(12)
C14_3 C 0.8051(4) 0.09019(14) 0.85622(13)
C18_3 C 0.7050(4) 0.05938(15) 0.86980(13)
C24_3 C 0.5114(4) 0.00354(17) 0.89907(16)
C40_3 C 0.5884(4) 0.06908(16) 0.85035(14)
C43_2 C 0.4911(4) 0.0402(2) 0.86556(17)
H21_2 H 0.4115 0.0455 0.8532
C47_3 C 0.7898(5) 0.13122(16) 0.82577(13)
C56_3 C 0.5710(5) 0.10932(19) 0.81763(15)
H30_2 H 0.4931 0.1151 0.8039
C59_3 C 0.6700(6) 0.1398(2) 0.80636(14)
H33_3 H 0.6582 0.1669 0.7854
C62_3 C 0.8887(7) 0.1618(2) 0.81679(17)
H36_3 H 0.8793 0.1903 0.7972
C66_3 C 0.9993(7) 0.1513(2) 0.8360(2)
S1_3 S 0.72659(13) 0.76439(3) 0.11164(4)
C1_3 C 0.8836(3) 0.89314(12) 0.02825(12)
O14_3 O 0.5954(4) 0.76638(10) 0.11003(14)
O15_3 O 0.7867(5) 0.76290(11) 0.15597(11)
C4_3 C 0.8945(3) 0.58558(12) 0.00218(13)
C5_3 C 0.9347(3) 0.93646(12) 0.00168(12)
C6_3 C 0.6913(4) 0.68576(12) 0.05186(14)
H1_3 H 0.6087 0.6964 0.0499
C9_3 C 0.7151(4) 0.83897(13) 0.04701(14)
H2_3 H 0.6330 0.8287 0.0421
C10_3 C 0.7636(3) 0.87880(12) 0.02154(14)
C12_3 C 0.9568(3) 0.86839(12) 0.06115(12)
C20_3 C 0.7745(4) 0.71194(13) 0.07886(14)
C21_3 C 0.8516(3) 0.62971(13) 0.02956(13)
C25_3 C 0.7866(4) 0.81500(13) 0.07895(14)
C29_3 C 0.7298(3) 0.64400(13) 0.02773(13)
H10_3 H 0.6730 0.6250 0.0099
C31_3 C 0.8984(4) 0.69739(14) 0.08117(15)
H11_3 H 0.9551 0.7159 0.0995
C44_3 C 0.9356(4) 0.65623(13) 0.05671(15)
C45_3 C 0.9076(4) 0.82877(13) 0.08714(14)
H23_3 H 0.9556 0.8117 0.1098
O3_3 O 0.8629(3) 0.95876(9) 0.97372(9)
H3_3 H 0.7139 0.8961 0.9995
H7_2 H 0.4457 0.9841 0.9109
C41_3 C 0.6310(4) 0.99587(15) 0.91511(15)
H19_3 H 0.6455 0.9702 0.9374
S1_4 S 0.77341(13) 0.23561(3) 0.61164(4)
S3_4 S 0.20332(16) 0.19486(4) 0.25013(3)
O3_4 O 0.6371(3) 0.04124(9) 0.47372(9)
O4_4 O 0.4566(2) 0.05129(9) 0.50966(9)
O5_4 O 0.2878(2) 0.02900(8) 0.42523(8)
O11_4 O 0.4719(3) 0.02784(11) 0.38946(9)
C1_4 C 0.6164(3) 0.10686(12) 0.52825(12)
O14_4 O 0.9046(4) 0.23362(10) 0.61003(14)
O15_4 O 0.7133(5) 0.23710(11) 0.65597(11)
O17_4 O 0.0777(4) 0.20847(12) 0.25875(11)
C4_4 C 0.6055(3) 0.41442(12) 0.50218(13)
C5_4 C 0.5653(3) 0.06354(12) 0.50168(12)
N4_4 N 0.0297(3) 0.07836(11) 0.61330(11)
C6_4 C 0.8087(4) 0.31424(12) 0.55186(14)
H1_4 H 0.8913 0.3036 0.5499
C7_4 C 0.2515(4) 0.04280(13) 0.09564(13)
C9_4 C 0.7849(4) 0.16103(13) 0.54701(14)
H2_4 H 0.8670 0.1713 0.5421
C10_4 C 0.7364(3) 0.12120(12) 0.52154(14)
H3_4 H 0.7861 0.1039 0.4995
C11_4 C 0.3221(4) 0.08288(12) 0.35968(12)
C12_4 C 0.5432(3) 0.13161(12) 0.56115(12)
H4_4 H 0.4607 0.1216 0.5658
O18_4 O 0.2928(5) 0.23311(10) 0.24408(10)
C15_4 C 0.2331(4) 0.08310(13) 0.13108(13)
C17_4 C 0.3625(4) 0.04332(13) 0.39484(12)
C19_4 C 0.2509(5) 0.15376(13) 0.29556(13)
C20_4 C 0.7255(4) 0.28806(13) 0.57886(14)
C21_4 C 0.6484(3) 0.37029(13) 0.52956(13)
C25_4 C 0.7134(4) 0.18500(13) 0.57895(14)
C29_4 C 0.7702(3) 0.35600(13) 0.52773(13)
H10_4 H 0.8270 0.3750 0.5099
C31_4 C 0.6016(4) 0.30261(14) 0.58117(15)
H11_4 H 0.5449 0.2841 0.5995
C32_4 C 0.1638(5) 0.12762(14) 0.31948(14)
H12_4 H 0.0794 0.1335 0.3139
C39_4 C 0.1165(4) 0.09487(15) 0.14945(14)
H18_4 H 0.0454 0.0789 0.1376
C41_4 C 0.8690(4) 0.00413(15) 0.41511(15)
H19_4 H 0.8545 0.0298 0.4374
C44_4 C 0.5644(4) 0.34377(13) 0.55671(15)
H22_4 H 0.4816 0.3543 0.5582
C45_4 C 0.5924(4) 0.17123(13) 0.58714(14)
H23_4 H 0.5444 0.1883 0.6098
C48_4 C 0.4095(5) 0.10979(16) 0.33553(15)
H24_4 H 0.4938 0.1034 0.3407
C49_4 C 0.2007(4) 0.09215(13) 0.35224(14)
H25_4 H 0.1410 0.0742 0.3696
C50_4 C 0.1074(5) 0.13034(15) 0.18532(14)
H26_4 H 0.0299 0.1381 0.1985
C54_4 C 0.3350(5) 0.10805(18) 0.14877(17)
H29_4 H 0.4141 0.0995 0.1376
C55_4 C 0.2112(5) 0.15412(14) 0.20167(13)
C60_4 C 0.3735(6) 0.14666(16) 0.30325(15)
H34_4 H 0.4326 0.1662 0.2872
C61_4 C 0.1251(5) 0.10669(18) 0.62460(17)
H35_4 H 0.1998 0.1020 0.6082
C63_4 C 0.1195(5) 0.14342(19) 0.66005(17)
H37_4 H 0.1899 0.1621 0.6685
C64_4 C 0.3229(5) 0.14477(19) 0.18212(17)
H38_4 H 0.3921 0.1637 0.1916
C65_4 C 0.0083(6) 0.15136(17) 0.68207(16)
H39_4 H 0.0008 0.1771 0.7049
O1_4 O 0.1654(2) 0.94745(9) 0.48399(9)
N2_4 N 0.7758(3) 0.97712(11) 0.40051(10)
C2_4 C 0.0556(3) 0.93506(12) 0.48999(12)
N3_4 N 0.5838(3) 0.91939(13) 0.37667(12)
C3_4 C 0.0113(3) 0.88974(12) 0.46363(12)
C13_4 C 0.0195(3) 0.58388(12) 0.50725(12)
C14_4 C 0.6949(4) 0.90981(14) 0.35622(13)
C18_4 C 0.7950(4) 0.94062(15) 0.36980(13)
C24_4 C 0.9886(4) 0.99646(17) 0.39907(16)
C28_4 C 0.0488(4) 0.82141(13) 0.40978(14)
H9_4 H 0.1021 0.8030 0.3899
C36_4 C 0.0905(4) 0.86279(12) 0.43487(12)
H15_4 H 0.1736 0.8727 0.4323
C38_4 C 0.0683(4) 0.64920(13) 0.44763(14)
H17_4 H 0.1509 0.6384 0.4484
C40_4 C 0.9116(4) 0.93092(16) 0.35035(14)
C42_4 C 0.0337(5) 0.68854(15) 0.41831(15)
H20_4 H 0.0912 0.7038 0.3978
C47_4 C 0.7102(5) 0.86878(16) 0.32577(13)
C56_4 C 0.9290(5) 0.89068(19) 0.31763(15)
C57_4 C 0.4922(5) 0.8900(2) 0.36581(19)
H31_4 H 0.4146 0.8973 0.3792
C59_4 C 0.8300(6) 0.8602(2) 0.30636(14)
H33_4 H 0.8418 0.8331 0.2854
C62_4 C 0.6113(7) 0.8382(2) 0.31679(17)
H36_4 H 0.6207 0.8097 0.2972
C66_4 C 0.5007(7) 0.8487(2) 0.3360(2)
H40_4 H 0.4312 0.8287 0.3293
N1_4 N 0.8375(3) 0.01941(11) 0.58856(10)
C8_4 C 0.7051(4) 0.06099(15) 0.64485(13)
C16_4 C 0.6097(4) 0.03069(17) 0.62916(15)
H5_4 H 0.5306 0.0345 0.6425
C22_4 C 0.8198(4) 0.05401(13) 0.62247(12)
C46_4 C 0.9212(4) 0.08514(14) 0.63591(13)
C51_4 C 0.6955(5) 0.09828(17) 0.68022(15)
H27_4 H 0.6193 0.1025 0.6958
C52_4 C 0.9062(5) 0.12151(15) 0.67092(14)
C58_4 C 0.7883(6) 0.12749(16) 0.69251(15)
H32_4 H 0.7766 0.1525 0.7157
S2_3 S 0.87223(13) 0.75541(4) 0.38326(4)
O10_4 O 0.9801(3) 0.95754(9) 0.51478(10)
O13_3 O 0.9420(4) 0.75167(11) 0.34012(10)
O16_3 O 0.7404(3) 0.75748(11) 0.38219(13)
C23_4 C 0.7448(3) 0.99174(13) 0.57443(13)
H6_4 H 0.7574 0.9685 0.5497
C26_3 C 0.8894(3) 0.87569(13) 0.46764(14)
H8_3 H 0.8355 0.8942 0.4872
C27_3 C 0.9807(4) 0.62589(12) 0.47583(13)
C30_3 C 0.9140(4) 0.70482(13) 0.41972(13)
C33_3 C 0.8599(4) 0.64151(13) 0.47515(13)
H13_3 H 0.8005 0.6250 0.4939
C34_3 C 0.9252(4) 0.80777(13) 0.41489(13)
C35_4 C 0.6278(4) 0.99550(16) 0.59487(14)
H14_4 H 0.5632 0.9742 0.5852
C37_3 C 0.8463(4) 0.83407(13) 0.44264(14)
H16_3 H 0.7630 0.8243 0.4450
C53_3 C 0.8265(4) 0.68147(13) 0.44685(14)
H28_3 H 0.7441 0.6926 0.4462
S2_4 S 0.12777(13) 0.25541(4) 0.11674(4)
O13_4 O 0.0580(4) 0.25167(11) 0.15988(10)
O16_4 O 0.2596(3) 0.25748(11) 0.11781(13)
C26_4 C 0.1106(3) 0.37569(13) 0.03236(14)
H8_4 H 0.1645 0.3942 0.0128
C27_4 C 0.0193(4) 0.12589(12) 0.02417(13)
C30_4 C 0.0860(4) 0.20482(13) 0.08028(13)
C33_4 C 0.1401(4) 0.14151(13) 0.02485(13)
H13_4 H 0.1995 0.1250 0.0061
C34_4 C 0.0748(4) 0.30777(13) 0.08511(13)
C37_4 C 0.1537(4) 0.33407(13) 0.05736(14)
H16_4 H 0.2370 0.3243 0.0550
C53_4 C 0.1735(4) 0.18147(13) 0.05315(14)
H28_4 H 0.2559 0.1926 0.0538
H7_3 H 0.9457 0.5159 0.0891
C43_3 C 0.9911(4) 0.4598(2) 0.13444(17)
H21_3 H 0.9115 0.4545 0.1468
H30_3 H 0.9931 0.3849 0.1961
H7_4 H 0.0543 0.0159 0.4109
C43_4 C 0.0089(4) 0.9598(2) 0.36556(17)
H21_4 H 0.0885 0.9545 0.3532
H30_4 H 0.0069 0.8849 0.3039
loop_
_geom_bond_atom_site_label_1
_geom_bond_atom_site_label_2
_geom_bond_site_symmetry_1
_geom_bond_site_symmetry_2
Mn3 O3 1_555 1_555
S1 O14 1_555 1_555
O3 C5 1_555 1_555
O7 C4 1_555 1_555
N2 Mn3 1_555 1_555
C1 C5 1_555 1_555
O15 S1 1_555 1_555
N3 Mn3 1_555 1_555
C4 C21 1_555 1_555
C6 H1 1_555 1_555
C9 H2 1_555 1_555
C10 C1 1_555 1_555
H3 C10 1_555 1_555
C12 C1 1_555 1_555
C14 N3 1_555 1_555
C18 N2 1_555 1_555
C20 S1 1_555 1_555
C21 C29 1_555 1_555
C24 H7 1_555 1_555
C25 S1 1_555 1_555
C29 C6 1_555 1_555
H10 C29 1_555 1_555
C31 C20 1_555 1_555
H11 C31 1_555 1_555
C40 C18 1_555 1_555
C41 N2 1_555 1_555
H19 C41 1_555 1_555
C43 C24 1_555 1_555
H21 C43 1_555 1_555
C44 C21 1_555 1_555
C45 C12 1_555 1_555
H23 C45 1_555 1_555
C47 C14 1_555 1_555
C56 C40 1_555 1_555
H30 C56 1_555 1_555
C59 C47 1_555 1_555
H33 C59 1_555 1_555
C62 C47 1_555 1_555
H36 C62 1_555 1_555
Mn8 O7 1_555 1_555
O23 Mn3 1_555 1_555
C6 C20 1_555 1_555
C9 C10 1_555 1_555
C9 C25 1_555 1_555
C14 C18 1_555 1_555
C24 C41 1_555 1_555
C25 C45 1_555 1_555
C31 C44 1_555 1_555
C40 C43 1_555 1_555
C56 C59 1_555 1_555
C62 C66 1_555 1_555
Mn1 O1 1_555 1_555
Mn2 O10 1_555 1_555
S2 O13 1_555 1_555
S3 O17 1_555 1_555
O1 C2 1_555 1_555
O2 C13 1_555 1_555
O4 Mn1 1_555 1_555
O5 Mn1 1_555 1_555
O6 C7 1_555 1_555
O9 C13 1_555 1_555
O10 C2 1_555 1_555
O12 C7 1_555 1_555
N1 Mn2 1_555 1_555
C2 C3 1_555 1_555
O16 S2 1_555 1_555
C3 C26 1_555 1_555
N4 Mn2 1_555 1_555
C7 C15 1_555 1_555
C8 C16 1_555 1_555
C11 C17 1_555 1_555
C13 C27 1_555 1_555
O18 S3 1_555 1_555
C15 C39 1_555 1_555
C16 H5 1_555 1_555
C17 O5 1_555 1_555
C19 S3 1_555 1_555
C22 N1 1_555 1_555
C23 N1 1_555 1_555
H6 C23 1_555 1_555
C26 H8 1_555 1_555
C27 C33 1_555 1_555
C28 H9 1_555 1_555
C30 S2 1_555 1_555
C32 C19 1_555 1_555
H12 C32 1_555 1_555
C33 H13 1_555 1_555
C34 S2 1_555 1_555
C35 C16 1_555 1_555
H14 C35 1_555 1_555
C36 C3 1_555 1_555
H15 C36 1_555 1_555
C37 C26 1_555 1_555
H16 C37 1_555 1_555
C38 C27 1_555 1_555
H17 C38 1_555 1_555
C39 H18 1_555 1_555
C42 C30 1_555 1_555
H20 C42 1_555 1_555
C46 N4 1_555 1_555
C48 C11 1_555 1_555
H24 C48 1_555 1_555
C49 C11 1_555 1_555
H25 C49 1_555 1_555
C50 C39 1_555 1_555
H26 C50 1_555 1_555
C51 C8 1_555 1_555
H27 C51 1_555 1_555
C52 C46 1_555 1_555
C53 C30 1_555 1_555
H28 C53 1_555 1_555
C54 C15 1_555 1_555
H29 C54 1_555 1_555
C55 S3 1_555 1_555
H31 C57 1_555 1_555
C58 C51 1_555 1_555
H32 C58 1_555 1_555
C60 C19 1_555 1_555
H34 C60 1_555 1_555
C61 N4 1_555 1_555
H35 C61 1_555 1_555
C63 C61 1_555 1_555
H37 C63 1_555 1_555
C64 C54 1_555 1_555
H38 C64 1_555 1_555
C65 C52 1_555 1_555
H39 C65 1_555 1_555
Mn6 O2 1_555 1_555
Mn7 O12 1_555 1_555
Mn9 O2 1_555 1_555
O19 Mn1 1_555 1_555
O20 Mn1 1_555 1_555
O21 Mn1 1_555 1_555
O22 Mn2 1_555 1_555
O24 Mn2 1_555 1_555
Mn2 O21 1_555 1_555
O9 Mn9 1_555 1_555
O11 C17 1_555 1_555
C8 C22 1_555 1_555
C22 C46 1_555 1_555
C23 C35 1_555 1_555
C28 C34 1_555 1_555
C28 C36 1_555 1_555
C32 C49 1_555 1_555
C33 C53 1_555 1_555
C34 C37 1_555 1_555
C38 C42 1_555 1_555
C48 C60 1_555 1_555
C50 C55 1_555 1_555
C52 C58 1_555 1_555
C55 C64 1_555 1_555
C63 C65 1_555 1_555
C8_2 C16_2 1_555 1_555
C16_2 H5_2 1_555 1_555
C22_2 N1_2 1_555 1_555
C23_2 N1_2 1_555 1_555
H6_2 C23_2 1_555 1_555
C35_2 C16_2 1_555 1_555
H14_2 C35_2 1_555 1_555
C51_2 C8_2 1_555 1_555
H27_2 C51_2 1_555 1_555
C52_2 C46_2 1_555 1_555
C58_2 C51_2 1_555 1_555
H32_2 C58_2 1_555 1_555
Mn5 O2_2 1_555 1_555
C8_2 C22_2 1_555 1_555
C22_2 C46_2 1_555 1_555
C23_2 C35_2 1_555 1_555
C52_2 C58_2 1_555 1_555
Mn4 O1_2 1_555 1_555
Mn3_2 O3_2 1_555 1_555
S3_2 O17_2 1_555 1_555
O1_2 C2_2 1_555 1_555
O5_2 Mn4 1_555 1_555
O20 C7_2 1_555 1_555
O11_2 Mn3_2 1_555 1_555
O24 C7_2 1_555 1_555
N2_2 Mn3_2 1_555 1_555
C2_2 C3_2 1_555 1_555
N3_2 Mn3_2 1_555 1_555
C7_2 C15_2 1_555 1_555
C11_2 C17_2 1_555 1_555
O18_2 S3_2 1_555 1_555
C14_2 N3_2 1_555 1_555
C15_2 C39_2 1_555 1_555
C17_2 O5_2 1_555 1_555
C18_2 N2_2 1_555 1_555
C19_2 S3_2 1_555 1_555
C28_2 H9_2 1_555 1_555
C32_2 C19_2 1_555 1_555
H12_2 C32_2 1_555 1_555
C36_2 C3_2 1_555 1_555
H15_2 C36_2 1_555 1_555
H17_2 C38_2 1_555 1_555
C39_2 H18_2 1_555 1_555
C40_2 C18_2 1_555 1_555
C41_2 N2_2 1_555 1_555
H19_2 C41_2 1_555 1_555
H20_2 C42_2 1_555 1_555
C47_2 C14_2 1_555 1_555
C48_2 C11_2 1_555 1_555
H24_2 C48_2 1_555 1_555
C49_2 C11_2 1_555 1_555
H25_2 C49_2 1_555 1_555
C50_2 C39_2 1_555 1_555
H26_2 C50_2 1_555 1_555
C54_2 C15_2 1_555 1_555
H29_2 C54_2 1_555 1_555
C55_2 S3_2 1_555 1_555
C56_2 C40_2 1_555 1_555
C57_2 N3_2 1_555 1_555
H31_2 C57_2 1_555 1_555
C59_2 C47_2 1_555 1_555
H33_2 C59_2 1_555 1_555
C60_2 C19_2 1_555 1_555
H34_2 C60_2 1_555 1_555
C62_2 C47_2 1_555 1_555
H36_2 C62_2 1_555 1_555
C64_2 C54_2 1_555 1_555
H38_2 C64_2 1_555 1_555
C66_2 C57_2 1_555 1_555
H40_2 C66_2 1_555 1_555
Mn8_2 O7_2 1_555 1_555
O19_2 Mn4 1_555 1_555
O23_2 Mn3_2 1_555 1_555
Mn3_2 O19_2 1_555 1_555
O8_2 Mn8_2 1_555 1_555
O11_2 C17_2 1_555 1_555
C14_2 C18_2 1_555 1_555
C24_2 C41_2 1_555 1_555
C28_2 C36_2 1_555 1_555
C32_2 C49_2 1_555 1_555
C38_2 C42_2 1_555 1_555
C48_2 C60_2 1_555 1_555
C50_2 C55_2 1_555 1_555
C55_2 C64_2 1_555 1_555
C56_2 C59_2 1_555 1_555
C62_2 C66_2 1_555 1_555
S1_2 O14_2 1_555 1_555
O9_2 C13_2 1_555 1_555
C1_2 C5_2 1_555 1_555
O15_2 S1_2 1_555 1_555
C4_2 C21_2 1_555 1_555
C5_2 O4_2 1_555 1_555
N4_2 Mn7 1_555 1_555
C6_2 H1_2 1_555 1_555
C9_2 H2_2 1_555 1_555
C10_2 C1_2 1_555 1_555
C12_2 C1_2 1_555 1_555
H4_2 C12_2 1_555 1_555
C20_2 S1_2 1_555 1_555
C21_2 C29_2 1_555 1_555
C25_2 S1_2 1_555 1_555
C29_2 C6_2 1_555 1_555
H10_2 C29_2 1_555 1_555
C31_2 C20_2 1_555 1_555
H11_2 C31_2 1_555 1_555
C44_2 C21_2 1_555 1_555
H22_2 C44_2 1_555 1_555
C45_2 C12_2 1_555 1_555
H23_2 C45_2 1_555 1_555
C61_2 N4_2 1_555 1_555
H35_2 C61_2 1_555 1_555
C63_2 C61_2 1_555 1_555
H37_2 C63_2 1_555 1_555
H39_2 C65_2 1_555 1_555
Mn7 O21_2 1_555 1_555
O9_2 Mn9_2 1_555 1_555
C6_2 C20_2 1_555 1_555
C9_2 C10_2 1_555 1_555
C9_2 C25_2 1_555 1_555
C25_2 C45_2 1_555 1_555
C31_2 C44_2 1_555 1_555
C63_2 C65_2 1_555 1_555
O19_2 C13_3 1_555 1_555
O23_2 C13_3 1_555 1_555
H6_3 C23_3 1_555 1_555
H14_3 C35_3 1_555 1_555
C23_3 C35_3 1_555 1_555
Mn5 O1_3 1_555 1_555
S2_2 O13_2 1_555 1_555
O1_3 C2_3 1_555 1_555
C2_3 C3_3 1_555 1_555
O16_2 S2_2 1_555 1_555
C3_3 C26_2 1_555 1_555
C26_2 H8_2 1_555 1_555
C27_2 C33_2 1_555 1_555
C28_3 H9_3 1_555 1_555
C30_2 S2_2 1_555 1_555
C33_2 H13_2 1_555 1_555
C34_2 S2_2 1_555 1_555
C36_3 C3_3 1_555 1_555
H15_3 C36_3 1_555 1_555
C37_2 C26_2 1_555 1_555
H16_2 C37_2 1_555 1_555
C38_3 C27_2 1_555 1_555
H17_3 C38_3 1_555 1_555
C42_3 C30_2 1_555 1_555
H20_3 C42_3 1_555 1_555
C53_2 C30_2 1_555 1_555
H28_2 C53_2 1_555 1_555
H31_3 C57_3 1_555 1_555
C28_3 C34_2 1_555 1_555
C28_3 C36_3 1_555 1_555
C33_2 C53_2 1_555 1_555
C34_2 C37_2 1_555 1_555
C38_3 C42_3 1_555 1_555
N1_3 Mn8_2 1_555 1_555
N4_3 Mn8_2 1_555 1_555
C8_3 C16_3 1_555 1_555
C16_3 H5_3 1_555 1_555
C22_3 N1_3 1_555 1_555
C46_3 N4_3 1_555 1_555
C51_3 C8_3 1_555 1_555
H27_3 C51_3 1_555 1_555
C52_3 C46_3 1_555 1_555
C58_3 C51_3 1_555 1_555
H32_3 C58_3 1_555 1_555
C61_3 N4_3 1_555 1_555
H35_3 C61_3 1_555 1_555
C63_3 C61_3 1_555 1_555
H37_3 C63_3 1_555 1_555
C65_3 C52_3 1_555 1_555
H39_3 C65_3 1_555 1_555
C8_3 C22_3 1_555 1_555
C22_3 C46_3 1_555 1_555
C52_3 C58_3 1_555 1_555
C63_3 C65_3 1_555 1_555
S3_3 O17_3 1_555 1_555
O6_2 C7_3 1_555 1_555
O12_2 C7_3 1_555 1_555
C7_3 C15_3 1_555 1_555
C11_3 C17_3 1_555 1_555
O18_3 S3_3 1_555 1_555
C15_3 C39_3 1_555 1_555
C17_3 O5_3 1_555 1_555
C19_3 S3_3 1_555 1_555
C32_3 C19_3 1_555 1_555
H12_3 C32_3 1_555 1_555
C39_3 H18_3 1_555 1_555
C48_3 C11_3 1_555 1_555
H24_3 C48_3 1_555 1_555
C49_3 C11_3 1_555 1_555
H25_3 C49_3 1_555 1_555
C50_3 C39_3 1_555 1_555
H26_3 C50_3 1_555 1_555
C54_3 C15_3 1_555 1_555
H29_3 C54_3 1_555 1_555
C55_3 S3_3 1_555 1_555
C60_3 C19_3 1_555 1_555
H34_3 C60_3 1_555 1_555
C64_3 C54_3 1_555 1_555
H38_3 C64_3 1_555 1_555
Mn6 O6_2 1_555 1_555
O11_3 C17_3 1_555 1_555
C32_3 C49_3 1_555 1_555
C48_3 C60_3 1_555 1_555
C50_3 C55_3 1_555 1_555
C55_3 C64_3 1_555 1_555
N2_3 Mn9_2 1_555 1_555
N3_3 Mn9_2 1_555 1_555
C14_3 N3_3 1_555 1_555
C18_3 N2_3 1_555 1_555
C40_3 C18_3 1_555 1_555
C43_2 C24_3 1_555 1_555
H21_2 C43_2 1_555 1_555
C47_3 C14_3 1_555 1_555
C56_3 C40_3 1_555 1_555
H30_2 C56_3 1_555 1_555
C59_3 C47_3 1_555 1_555
H33_3 C59_3 1_555 1_555
C62_3 C47_3 1_555 1_555
H36_3 C62_3 1_555 1_555
C14_3 C18_3 1_555 1_555
C40_3 C43_2 1_555 1_555
C56_3 C59_3 1_555 1_555
C62_3 C66_3 1_555 1_555
S1_3 O14_3 1_555 1_555
C1_3 C5_3 1_555 1_555
O15_3 S1_3 1_555 1_555
C4_3 C21_3 1_555 1_555
C6_3 H1_3 1_555 1_555
C9_3 H2_3 1_555 1_555
C10_3 C1_3 1_555 1_555
C12_3 C1_3 1_555 1_555
C20_3 S1_3 1_555 1_555
C21_3 C29_3 1_555 1_555
C25_3 S1_3 1_555 1_555
C29_3 C6_3 1_555 1_555
H10_3 C29_3 1_555 1_555
C31_3 C20_3 1_555 1_555
H11_3 C31_3 1_555 1_555
C44_3 C21_3 1_555 1_555
C45_3 C12_3 1_555 1_555
H23_3 C45_3 1_555 1_555
C6_3 C20_3 1_555 1_555
C9_3 C10_3 1_555 1_555
C9_3 C25_3 1_555 1_555
C25_3 C45_3 1_555 1_555
C31_3 C44_3 1_555 1_555
H19_3 C41_3 1_555 1_555
S1_4 O14_4 1_555 1_555
S3_4 O17_4 1_555 1_555
O3_4 C5_4 1_555 1_555
O20_2 C7_4 1_555 1_555
O21 C4_4 1_555 1_555
O22 C4_4 1_555 1_555
O24_2 C7_4 1_555 1_555
C1_4 C5_4 1_555 1_555
O15_4 S1_4 1_555 1_555
C4_4 C21_4 1_555 1_555
C5_4 O4_4 1_555 1_555
N4_4 Mn8 1_555 1_555
C6_4 H1_4 1_555 1_555
C7_4 C15_4 1_555 1_555
C9_4 H2_4 1_555 1_555
C10_4 C1_4 1_555 1_555
H3_4 C10_4 1_555 1_555
C11_4 C17_4 1_555 1_555
C12_4 C1_4 1_555 1_555
H4_4 C12_4 1_555 1_555
O18_4 S3_4 1_555 1_555
C15_4 C39_4 1_555 1_555
C17_4 O5_4 1_555 1_555
C19_4 S3_4 1_555 1_555
C20_4 S1_4 1_555 1_555
C21_4 C29_4 1_555 1_555
C25_4 S1_4 1_555 1_555
C29_4 C6_4 1_555 1_555
H10_4 C29_4 1_555 1_555
C31_4 C20_4 1_555 1_555
H11_4 C31_4 1_555 1_555
C32_4 C19_4 1_555 1_555
H12_4 C32_4 1_555 1_555
C39_4 H18_4 1_555 1_555
H19_4 C41_4 1_555 1_555
C44_4 C21_4 1_555 1_555
H22_4 C44_4 1_555 1_555
C45_4 C12_4 1_555 1_555
H23_4 C45_4 1_555 1_555
C48_4 C11_4 1_555 1_555
H24_4 C48_4 1_555 1_555
C49_4 C11_4 1_555 1_555
H25_4 C49_4 1_555 1_555
C50_4 C39_4 1_555 1_555
H26_4 C50_4 1_555 1_555
C54_4 C15_4 1_555 1_555
H29_4 C54_4 1_555 1_555
C55_4 S3_4 1_555 1_555
C60_4 C19_4 1_555 1_555
H34_4 C60_4 1_555 1_555
C61_4 N4_4 1_555 1_555
H35_4 C61_4 1_555 1_555
C63_4 C61_4 1_555 1_555
H37_4 C63_4 1_555 1_555
C64_4 C54_4 1_555 1_555
H38_4 C64_4 1_555 1_555
H39_4 C65_4 1_555 1_555
O11_4 C17_4 1_555 1_555
C6_4 C20_4 1_555 1_555
C9_4 C10_4 1_555 1_555
C9_4 C25_4 1_555 1_555
C25_4 C45_4 1_555 1_555
C31_4 C44_4 1_555 1_555
C32_4 C49_4 1_555 1_555
C48_4 C60_4 1_555 1_555
C50_4 C55_4 1_555 1_555
C55_4 C64_4 1_555 1_555
C63_4 C65_4 1_555 1_555
Mn6 O1_4 1_555 1_555
O1_4 C2_4 1_555 1_555
O23 C13_4 1_555 1_555
N2_4 Mn9 1_555 1_555
C2_4 C3_4 1_555 1_555
N3_4 Mn9 1_555 1_555
C14_4 N3_4 1_555 1_555
C18_4 N2_4 1_555 1_555
C28_4 H9_4 1_555 1_555
C36_4 C3_4 1_555 1_555
H15_4 C36_4 1_555 1_555
H17_4 C38_4 1_555 1_555
C40_4 C18_4 1_555 1_555
H20_4 C42_4 1_555 1_555
C47_4 C14_4 1_555 1_555
C56_4 C40_4 1_555 1_555
C57_4 N3_4 1_555 1_555
H31_4 C57_4 1_555 1_555
C59_4 C47_4 1_555 1_555
H33_4 C59_4 1_555 1_555
C62_4 C47_4 1_555 1_555
H36_4 C62_4 1_555 1_555
C66_4 C57_4 1_555 1_555
H40_4 C66_4 1_555 1_555
C14_4 C18_4 1_555 1_555
C28_4 C36_4 1_555 1_555
C38_4 C42_4 1_555 1_555
C56_4 C59_4 1_555 1_555
C62_4 C66_4 1_555 1_555
C8_4 C16_4 1_555 1_555
C16_4 H5_4 1_555 1_555
C22_4 N1_4 1_555 1_555
C51_4 C8_4 1_555 1_555
H27_4 C51_4 1_555 1_555
C52_4 C46_4 1_555 1_555
C58_4 C51_4 1_555 1_555
H32_4 C58_4 1_555 1_555
C8_4 C22_4 1_555 1_555
C22_4 C46_4 1_555 1_555
C52_4 C58_4 1_555 1_555
S2_3 O13_3 1_555 1_555
O16_3 S2_3 1_555 1_555
H6_4 C23_4 1_555 1_555
C26_3 H8_3 1_555 1_555
C27_3 C33_3 1_555 1_555
C30_3 S2_3 1_555 1_555
C33_3 H13_3 1_555 1_555
C34_3 S2_3 1_555 1_555
H14_4 C35_4 1_555 1_555
C37_3 C26_3 1_555 1_555
H16_3 C37_3 1_555 1_555
C53_3 C30_3 1_555 1_555
H28_3 C53_3 1_555 1_555
C23_4 C35_4 1_555 1_555
C33_3 C53_3 1_555 1_555
C34_3 C37_3 1_555 1_555
S2_4 O13_4 1_555 1_555
O16_4 S2_4 1_555 1_555
C26_4 H8_4 1_555 1_555
C27_4 C33_4 1_555 1_555
C30_4 S2_4 1_555 1_555
C33_4 H13_4 1_555 1_555
C34_4 S2_4 1_555 1_555
C37_4 C26_4 1_555 1_555
H16_4 C37_4 1_555 1_555
C53_4 C30_4 1_555 1_555
H28_4 C53_4 1_555 1_555
C33_4 C53_4 1_555 1_555
C34_4 C37_4 1_555 1_555
H21_3 C43_3 1_555 1_555
H21_4 C43_4 1_555 1_555

#END
