
###############################################################################
#
# This file contains modified crystal structure data generated from the
# MOF subset of the Cambridge Structural Database (CSD) v543 
# hosted by the Cambridge Crystallographic Data Centre (CCDC).
#
# This work is licensed under the Creative Commons
# Attribution-NonCommercial-ShareAlike 4.0 International License.
# To view a copy of this license, visit
# http://creativecommons.org/licenses/by-nc-sa/4.0/
# or send a letter to
# Creative Commons, PO Box 1866, Mountain View, CA 94042, USA.
#
# CIF created using the CSD Python API on 29 September 2022
# The structure has been converted into the P1 space group
# The structure has a 3D framework
# The original CSD entry HAJYEZ is in the triclinic crystal system
# The framework has been calculated to contain at least 10.0% void space
# The void calculation uses a probe of radius 1.32A, grid spacing 0.4
#
###############################################################################

data_HAJYEZ
_chemical_formula_moiety         '(C44 H32 Ni6 O22)n'
_symmetry_cell_setting           triclinic
_symmetry_space_group_name_H-M   'P 1'
_symmetry_Int_Tables_number      1
_space_group_name_Hall           'P 1'
loop_
_symmetry_equiv_pos_site_id
_symmetry_equiv_pos_as_xyz
1 x,y,z
_cell_length_a                   10.282(5)
_cell_length_b                   11.261(5)
_cell_length_c                   12.171(4)
_cell_angle_alpha                92.575(11)
_cell_angle_beta                 109.114(11)
_cell_angle_gamma                109.752(12)
_cell_volume                     1233.86
loop_
_atom_site_label
_atom_site_type_symbol
_atom_site_fract_x
_atom_site_fract_y
_atom_site_fract_z
Ni15 Ni 0.0000 0.5000 0.0000
O3 O 0.5655(4) 0.4623(4) 0.6821(4)
C8 C 0.0840(6) 0.1980(6) 0.7330(5)
C12 C 0.1767(7) 0.2952(6) 0.8323(6)
C13 C 0.1421(7) 0.1833(6) 0.6472(6)
C17 C 0.3146(7) 0.3742(7) 0.8418(6)
H11 H 0.1426 0.3055 0.8927
C18 C 0.2813(7) 0.2648(6) 0.6560(6)
H12 H 0.0860 0.1173 0.5825
C20 C 0.3689(7) 0.3614(6) 0.7518(6)
H15 H 0.3735 0.4372 0.9084
H16 H 0.3163 0.2543 0.5962
C22 C 0.5222(7) 0.4488(6) 0.7688(6)
O11 O 0.6062(5) 0.5019(6) 0.8720(4)
Ni6 Ni 0.5000 0.5000 0.5000
Ni9 Ni 0.79181(8) 0.52637(7) 0.70290(7)
Ni15_2 Ni 0.0000 0.5000 1.0000
O25 O 0.1322(4) 0.4187(4) 0.1145(3)
O31 O 0.0735(5) 0.6601(4) 0.1184(4)
O8 O 0.1641(5) 0.5909(5) 0.9382(4)
H7 H 0.2445 0.5890 0.9345
H8 H 0.1098 0.5936 0.8694
O20 O 0.0592(5) 0.3825(5) 0.4801(4)
Ni12 Ni 0.20819(8) 0.47363(7) 0.29710(7)
O28 O 0.0068(4) 0.5855(4) 0.7067(4)
Ni15_3 Ni 1.0000 0.5000 0.0000
O6 O 0.7848(5) 0.3468(4) 0.7003(4)
C5 C 0.9318(6) 0.1120(6) 0.7213(5)
C6 C 0.6825(7) 0.0709(6) 0.7152(5)
O9 O 0.9265(5) 0.3399(4) 0.8816(4)
C9 C 0.8239(6) 0.1566(6) 0.7359(5)
H6 H 0.6122 0.1027 0.7216
C14 C 0.8502(6) 0.2946(6) 0.7752(6)
Ni15_4 Ni 1.0000 0.5000 1.0000
O22 O 0.8359(5) 0.4091(5) 0.0618(4)
H31 H 0.7555 0.4110 0.0655
H32 H 0.8902 0.4064 0.1306
O1 O 0.5896(4) 0.6876(4) 0.5622(4)
O2 O 0.6970(4) 0.4832(4) 0.5193(3)
C1 C 0.7117(6) 0.7524(6) 0.6425(5)
H1 H 0.7236 0.4193 0.5265
H2 H 0.7379 0.5278 0.4767
C2 C 0.7462(6) 0.8934(6) 0.6724(5)
O4 O 0.8084(4) 0.7112(4) 0.6981(4)
O5 O 0.8678(4) 0.5813(4) 0.8855(3)
C3 C 0.8879(7) 0.9797(6) 0.6896(5)
C4 C 0.6400(6) 0.9396(6) 0.6853(5)
H3 H 0.9236 0.6488 0.9365
H4 H 0.7804 0.5619 0.8855
H5 H 0.9565 0.9478 0.6794
C7 C 0.4873(7) 0.8560(6) 0.6703(6)
C10 C 0.4573(7) 0.7627(6) 0.7376(6)
C11 C 0.3688(7) 0.8746(7) 0.5868(6)
H9 H 0.5355 0.7495 0.7936
C15 C 0.3118(7) 0.6876(6) 0.7234(6)
H10 H 0.3873 0.9386 0.5419
C16 C 0.2244(7) 0.7991(7) 0.5702(6)
H13 H 0.2932 0.6249 0.7694
C19 C 0.1942(7) 0.7076(6) 0.6392(6)
H14 H 0.1465 0.8101 0.5117
C21 C 0.0371(7) 0.6303(6) 0.6220(6)
O12 O 0.4104(4) 0.3124(4) 0.4378(4)
O13 O 0.3030(4) 0.5168(4) 0.4807(3)
C23 C 0.2883(6) 0.2476(6) 0.3575(5)
H17 H 0.2764 0.5807 0.4735
H18 H 0.2621 0.4722 0.5233
C24 C 0.2538(6) 0.1066(6) 0.3276(5)
O15 O 0.1916(4) 0.2888(4) 0.3019(4)
O18 O 0.9932(4) 0.4145(4) 0.2933(4)
C25 C 0.1121(7) 0.0203(6) 0.3104(5)
C26 C 0.3600(6) 0.0604(6) 0.3147(5)
H19 H 0.0764 0.3512 0.0635
H20 H 0.2196 0.4381 0.1145
H21 H 0.0435 0.0522 0.3206
C29 C 0.5127(7) 0.1440(6) 0.3297(6)
C32 C 0.5427(7) 0.2373(6) 0.2624(6)
C33 C 0.6312(7) 0.1254(7) 0.4132(6)
H23 H 0.4645 0.2505 0.2064
C37 C 0.6882(7) 0.3124(6) 0.2766(6)
H24 H 0.6127 0.0614 0.4581
C38 C 0.7756(7) 0.2009(7) 0.4298(6)
H27 H 0.7068 0.3751 0.2306
C41 C 0.8058(7) 0.2924(6) 0.3608(6)
H28 H 0.8535 0.1899 0.4883
C43 C 0.9629(7) 0.3697(6) 0.3780(6)
O24 O 0.4345(4) 0.5377(4) 0.3179(4)
O27 O 0.2152(5) 0.6532(4) 0.2997(4)
C27 C 0.0682(6) 0.8880(6) 0.2787(5)
C28 C 0.3175(7) 0.9291(6) 0.2848(5)
C31 C 0.1761(6) 0.8434(6) 0.2641(5)
H22 H 0.3878 0.8973 0.2784
C36 C 0.1498(6) 0.7054(6) 0.2248(6)
O10 O 0.9408(5) 0.6175(5) 0.5199(4)
C30 C 0.9160(6) 0.8020(6) 0.2670(5)
C34 C 0.8233(7) 0.7048(6) 0.1677(6)
C35 C 0.8579(7) 0.8167(6) 0.3528(6)
C39 C 0.6854(7) 0.6258(7) 0.1582(6)
H25 H 0.8574 0.6945 0.1073
C40 C 0.7187(7) 0.7352(6) 0.3440(6)
H26 H 0.9140 0.8827 0.4175
C42 C 0.6311(7) 0.6386(6) 0.2482(6)
H29 H 0.6265 0.5628 0.0916
H30 H 0.6837 0.7457 0.4038
C44 C 0.4778(7) 0.5512(6) 0.2312(6)
O21 O 0.3938(5) 0.4981(6) 0.1280(4)
loop_
_geom_bond_atom_site_label_1
_geom_bond_atom_site_label_2
_geom_bond_site_symmetry_1
_geom_bond_site_symmetry_2
O3 C22 1_555 1_555
C8 C12 1_555 1_555
C12 C17 1_555 1_555
C13 C8 1_555 1_555
C17 C20 1_555 1_555
H11 C12 1_555 1_555
C18 C13 1_555 1_555
H12 C13 1_555 1_555
C20 C18 1_555 1_555
H15 C17 1_555 1_555
H16 C18 1_555 1_555
C22 C20 1_555 1_555
O11 C22 1_555 1_555
Ni6 O3 1_555 1_555
Ni9 O3 1_555 1_555
O25 Ni15 1_555 1_555
O31 Ni15 1_555 1_555
O8 Ni15_2 1_555 1_555
H7 O8 1_555 1_555
H8 O8 1_555 1_555
O6 C14 1_555 1_555
O9 C14 1_555 1_555
C9 C5 1_555 1_555
H6 C6 1_555 1_555
C14 C9 1_555 1_555
Ni9 O6 1_555 1_555
Ni15_4 O9 1_555 1_555
C6 C9 1_555 1_555
O22 Ni15_3 1_555 1_555
H31 O22 1_555 1_555
H32 O22 1_555 1_555
Ni6 O1 1_555 1_555
O1 C1 1_555 1_555
O2 Ni6 1_555 1_555
C1 C2 1_555 1_555
Ni9 O2 1_555 1_555
H1 O2 1_555 1_555
H2 O2 1_555 1_555
C2 C3 1_555 1_555
O4 C1 1_555 1_555
O5 Ni9 1_555 1_555
O28 C21 1_555 1_555
C4 C2 1_555 1_555
Ni15_4 O5 1_555 1_555
H3 O5 1_555 1_555
H4 O5 1_555 1_555
H5 C3 1_555 1_555
C7 C4 1_555 1_555
C10 C7 1_555 1_555
C11 C7 1_555 1_555
H9 C10 1_555 1_555
C15 C10 1_555 1_555
H10 C11 1_555 1_555
C16 C11 1_555 1_555
H13 C15 1_555 1_555
C19 C15 1_555 1_555
H14 C16 1_555 1_555
C21 C19 1_555 1_555
O12 Ni6 1_555 1_555
O13 Ni6 1_555 1_555
C23 O12 1_555 1_555
Ni12 O13 1_555 1_555
H17 O13 1_555 1_555
H18 O13 1_555 1_555
C24 C23 1_555 1_555
O15 C23 1_555 1_555
O25 Ni12 1_555 1_555
O18 C43 1_555 1_555
C25 C24 1_555 1_555
C26 C24 1_555 1_555
H19 O25 1_555 1_555
H20 O25 1_555 1_555
H21 C25 1_555 1_555
C29 C26 1_555 1_555
C32 C29 1_555 1_555
C33 C29 1_555 1_555
H23 C32 1_555 1_555
C37 C32 1_555 1_555
H24 C33 1_555 1_555
C38 C33 1_555 1_555
H27 C37 1_555 1_555
C41 C37 1_555 1_555
H28 C38 1_555 1_555
C43 C41 1_555 1_555
O24 Ni6 1_555 1_555
O27 Ni12 1_555 1_555
Ni9 O4 1_555 1_555
C16 C19 1_555 1_555
Ni12 O15 1_555 1_555
Ni12 O24 1_555 1_555
C38 C41 1_555 1_555
O27 C36 1_555 1_555
O31 C36 1_555 1_555
C31 C27 1_555 1_555
H22 C28 1_555 1_555
C36 C31 1_555 1_555
C28 C31 1_555 1_555
O24 C44 1_555 1_555
C34 C30 1_555 1_555
C35 C30 1_555 1_555
C39 C34 1_555 1_555
H25 C34 1_555 1_555
C40 C35 1_555 1_555
H26 C35 1_555 1_555
C42 C39 1_555 1_555
H29 C39 1_555 1_555
H30 C40 1_555 1_555
C44 C42 1_555 1_555
O21 C44 1_555 1_555
C40 C42 1_555 1_555

#END
