
###############################################################################
#
# This file contains modified crystal structure data generated from the
# MOF subset of the Cambridge Structural Database (CSD) v543 
# hosted by the Cambridge Crystallographic Data Centre (CCDC).
#
# This work is licensed under the Creative Commons
# Attribution-NonCommercial-ShareAlike 4.0 International License.
# To view a copy of this license, visit
# http://creativecommons.org/licenses/by-nc-sa/4.0/
# or send a letter to
# Creative Commons, PO Box 1866, Mountain View, CA 94042, USA.
#
# CIF created using the CSD Python API on 29 September 2022
# The structure has been converted into the P1 space group
# The structure has a 3D framework
# The original CSD entry HAKCIG is in the monoclinic crystal system
# The framework has been calculated to contain at least 10.0% void space
# The void calculation uses a probe of radius 1.32A, grid spacing 0.4
#
###############################################################################

data_HAKCIG
_chemical_formula_moiety         '(C216 H120 Cu14 N48 O48 S24)n'
_symmetry_cell_setting           triclinic
_symmetry_space_group_name_H-M   'P 1'
_symmetry_Int_Tables_number      1
_space_group_name_Hall           'P 1'
loop_
_symmetry_equiv_pos_site_id
_symmetry_equiv_pos_as_xyz
1 x,y,z
_cell_length_a                   24.9202(10)
_cell_length_b                   18.7433(7)
_cell_length_c                   14.6524(6)
_cell_angle_alpha                90
_cell_angle_beta                 95.7400(10)
_cell_angle_gamma                90
_cell_volume                     6809.63
loop_
_atom_site_label
_atom_site_type_symbol
_atom_site_fract_x
_atom_site_fract_y
_atom_site_fract_z
Cu2 Cu -0.0000 0.14103(3) 0.2500
C7 C 0.00510(16) 0.2316(2) 0.0786(3)
H3 H 0.0305 0.1958 0.0666
C23 C 0.10190(13) 0.0106(2) 0.4063(2)
C26 C 0.17869(13) 0.08698(19) 0.4296(2)
H14 H 0.1929 0.1340 0.4331
C27 C 0.12342(13) 0.0788(2) 0.4112(2)
H15 H 0.1006 0.1193 0.4021
N5 N 0.00852(11) 0.04778(16) 0.3540(2)
N6 N 0.21308(11) 0.03244(15) 0.44273(19)
C28 C 0.13643(16) 0.5365(2) 0.6366(3)
C29 C 0.08878(14) 0.4901(2) 0.6067(3)
C30 C 0.04142(16) 0.4927(2) 0.6441(3)
H16 H 0.0330 0.5259 0.6895
C31 C 0.04787(15) 0.4019(2) 0.5285(3)
C32 C 0.03840(14) 0.3416(2) 0.4651(3)
C33 C 0.00187(16) 0.2887(2) 0.4806(3)
C35 C 0.05743(14) 0.2754(2) 0.3325(3)
H19 H 0.0772 0.2708 0.2806
C36 C 0.06669(14) 0.3344(2) 0.3877(3)
H20 H 0.0919 0.3698 0.3735
N7 N 0.09180(12) 0.43911(17) 0.5395(2)
N8 N 0.02201(12) 0.22407(16) 0.3480(2)
O7 O 0.18080(10) 0.52249(13) 0.60610(16)
O8 O 0.12950(12) 0.58493(16) 0.69096(19)
C37 C 0.08816(14) 0.0716(2) 0.1871(2)
C38 C 0.04343(14) 0.0222(2) 0.1509(2)
O9 O 0.07324(8) 0.13125(13) 0.21830(16)
O10 O 0.13585(9) 0.05342(15) 0.18473(18)
Cu3 Cu 0.198130(16) 0.44630(2) 0.52188(3)
Cu5 Cu 0.301870(16) 0.05370(2) 0.47812(3)
N14 N 0.19051(10) 0.35800(15) 0.6039(2)
N15 N 0.19077(11) 0.51608(15) 0.4161(2)
O13 O 0.20801(9) 0.37138(13) 0.43042(16)
N16 N 0.28692(11) 0.46756(15) 0.55727(19)
H2 H 0.0184 0.2916 0.9681
S1 S 0.00093(4) 0.42819(7) 0.90158(8)
Cu2_2 Cu 1.0000 0.14103(3) 0.2500
C5 C 0.96160(14) 0.3416(2) 0.0349(3)
C6 C 0.99813(16) 0.2887(2) 0.0194(3)
C8 C 0.94257(14) 0.2754(2) 0.1675(3)
H4 H 0.9228 0.2708 0.2194
C9 C 0.93331(14) 0.3344(2) 0.1123(3)
H5 H 0.9081 0.3698 0.1265
N2 N 0.97799(12) 0.22407(16) 0.1520(2)
C10 C 0.80338(13) 0.3074(2) 0.0484(3)
O3 O 0.79199(9) 0.37138(13) 0.06958(16)
O4 O 0.80464(10) 0.25562(13) 0.10009(17)
C19 C 0.91184(14) 0.0716(2) 0.3129(2)
C20 C 0.95657(14) 0.0222(2) 0.3491(2)
O5 O 0.92676(8) 0.13125(13) 0.28170(16)
O6 O 0.86415(9) 0.05342(15) 0.31527(18)
H17 H 0.9816 0.2916 0.5319
C34 C 0.99490(16) 0.2316(2) 0.4214(3)
H18 H 0.9695 0.1958 0.4334
S4 S 0.99907(4) 0.42819(7) 0.59842(8)
C41 C 0.89810(13) 0.0106(2) 0.0937(2)
C44 C 0.82131(13) 0.08698(19) 0.0704(2)
H24 H 0.8071 0.1340 0.0669
C45 C 0.87658(13) 0.0788(2) 0.0888(2)
H25 H 0.8994 0.1193 0.0979
N9 N 0.99148(11) 0.04778(16) 0.1460(2)
N10 N 0.78692(11) 0.03244(15) 0.05727(19)
C46 C 0.80338(13) 0.6926(2) 0.5484(3)
C47 C 0.81623(12) 0.70127(18) 0.4518(2)
C48 C 0.83397(14) 0.7601(2) 0.4106(3)
H26 H 0.8406 0.8049 0.4398
C49 C 0.82207(13) 0.65622(19) 0.3125(3)
C50 C 0.81815(13) 0.60657(18) 0.2347(2)
C51 C 0.77687(14) 0.55768(19) 0.2208(2)
H27 H 0.7506 0.5543 0.2634
C52 C 0.77366(13) 0.51408(18) 0.1458(2)
H28 H 0.7448 0.4809 0.1374
C53 C 0.84963(14) 0.5637(2) 0.0969(3)
H29 H 0.8751 0.5662 0.0529
C54 C 0.85572(14) 0.6090(2) 0.1708(3)
H30 H 0.8851 0.6414 0.1782
N11 N 0.80949(10) 0.64200(15) 0.3961(2)
N12 N 0.80923(11) 0.51608(15) 0.0839(2)
O11 O 0.79199(9) 0.62862(13) 0.56958(16)
O12 O 0.80464(10) 0.74438(13) 0.60009(17)
S6 S 0.84284(4) 0.74281(5) 0.29937(7)
Cu6 Cu 0.698130(16) 0.05370(2) 0.02188(3)
Cu7 Cu 0.801870(16) 0.55370(2) 0.47812(3)
Cu1 Cu 0.801870(16) 0.44630(2) 0.97812(3)
C1 C 0.86357(16) 0.5365(2) 0.8634(3)
C2 C 0.91122(14) 0.4901(2) 0.8933(3)
C3 C 0.95858(16) 0.4927(2) 0.8559(3)
H1 H 0.9670 0.5259 0.8105
C4 C 0.95213(15) 0.4019(2) 0.9715(3)
N1 N 0.90820(12) 0.43911(17) 0.9605(2)
O1 O 0.81920(10) 0.52249(13) 0.89390(16)
O2 O 0.87050(12) 0.58493(16) 0.80904(19)
C11 C 0.81623(12) 0.29873(18) 0.9518(2)
C12 C 0.83397(14) 0.2399(2) 0.9106(3)
H6 H 0.8406 0.1951 0.9398
C13 C 0.82207(13) 0.34378(19) 0.8125(3)
C14 C 0.81815(13) 0.39343(18) 0.7347(2)
C15 C 0.77687(14) 0.44232(19) 0.7208(2)
H7 H 0.7506 0.4457 0.7634
C16 C 0.77366(13) 0.48592(18) 0.6458(2)
H8 H 0.7448 0.5191 0.6374
C17 C 0.84963(14) 0.4363(2) 0.5969(3)
H9 H 0.8751 0.4338 0.5529
C18 C 0.85572(14) 0.3910(2) 0.6708(3)
H10 H 0.8851 0.3586 0.6782
N3 N 0.80949(10) 0.35800(15) 0.8961(2)
N4 N 0.80923(11) 0.48392(15) 0.5839(2)
S2 S 0.84284(4) 0.25719(5) 0.79937(7)
N13 N 0.71308(11) 0.46756(15) 0.94273(19)
C28_2 C 0.63643(16) 0.0365(2) 0.6366(3)
H16_2 H 0.5330 0.0259 0.6895
O7_2 O 0.68080(10) 0.02249(13) 0.60610(16)
O8_2 O 0.62950(12) 0.08493(16) 0.69096(19)
C46_2 C 0.30338(13) 0.1926(2) 0.5484(3)
C47_2 C 0.31623(12) 0.20127(18) 0.4518(2)
C48_2 C 0.33397(14) 0.2601(2) 0.4106(3)
H26_2 H 0.3406 0.3049 0.4398
C49_2 C 0.32207(13) 0.15622(19) 0.3125(3)
C50_2 C 0.31815(13) 0.10657(18) 0.2347(2)
C51_2 C 0.27687(14) 0.05768(19) 0.2208(2)
H27_2 H 0.2506 0.0543 0.2634
C52_2 C 0.27366(13) 0.01408(18) 0.1458(2)
C53_2 C 0.34963(14) 0.0637(2) 0.0969(3)
H29_2 H 0.3751 0.0662 0.0529
C54_2 C 0.35572(14) 0.1090(2) 0.1708(3)
H30_2 H 0.3851 0.1414 0.1782
N11_2 N 0.30949(10) 0.14200(15) 0.3961(2)
N12_2 N 0.30923(11) 0.01608(15) 0.0839(2)
O11_2 O 0.29199(9) 0.12862(13) 0.56958(16)
O12_2 O 0.30464(10) 0.24438(13) 0.60009(17)
S6_2 S 0.34284(4) 0.24281(5) 0.29937(7)
N15_2 N 0.69077(11) 0.01608(15) 0.4161(2)
C1_2 C 0.36357(16) 0.0365(2) 0.8634(3)
H1_2 H 0.4670 0.0259 0.8105
O1_2 O 0.31920(10) 0.02249(13) 0.89390(16)
O2_2 O 0.37050(12) 0.08493(16) 0.80904(19)
H8_2 H 0.2448 0.0191 0.6374
Cu2_3 Cu 0.5000 0.64103(3) 0.2500
C5_2 C 0.46160(14) 0.8416(2) 0.0349(3)
C6_2 C 0.49813(16) 0.7887(2) 0.0194(3)
C7_2 C 0.50510(16) 0.7316(2) 0.0786(3)
H3_2 H 0.5305 0.6958 0.0666
C8_2 C 0.44257(14) 0.7754(2) 0.1675(3)
H4_2 H 0.4228 0.7708 0.2194
C9_2 C 0.43331(14) 0.8344(2) 0.1123(3)
H5_2 H 0.4081 0.8698 0.1265
N2_2 N 0.47799(12) 0.72407(16) 0.1520(2)
C10_2 C 0.30338(13) 0.8074(2) 0.0484(3)
O3_2 O 0.29199(9) 0.87138(13) 0.06958(16)
O4_2 O 0.30464(10) 0.75562(13) 0.10009(17)
C19_2 C 0.41184(14) 0.5716(2) 0.3129(2)
C20_2 C 0.45657(14) 0.5222(2) 0.3491(2)
C21 C 0.45178(15) 0.4544(2) 0.3790(2)
H11 H 0.4186 0.4296 0.3802
C22 C 0.54349(14) 0.4997(2) 0.3874(2)
C23_2 C 0.60190(13) 0.5106(2) 0.4063(2)
C24 C 0.63717(15) 0.4536(2) 0.4206(3)
H12 H 0.6240 0.4060 0.4187
C25 C 0.69198(15) 0.4670(2) 0.4378(3)
H13 H 0.7158 0.4274 0.4466
C26_2 C 0.67869(13) 0.58698(19) 0.4296(2)
H14_2 H 0.6929 0.6340 0.4331
C27_2 C 0.62342(13) 0.5788(2) 0.4112(2)
H15_2 H 0.6006 0.6193 0.4021
N5_2 N 0.50852(11) 0.54778(16) 0.3540(2)
N6_2 N 0.71308(11) 0.53244(15) 0.44273(19)
O5_2 O 0.42676(8) 0.63125(13) 0.28170(16)
O6_2 O 0.36415(9) 0.55342(15) 0.31527(18)
S3 S 0.51366(4) 0.42018(6) 0.41403(7)
C29_2 C 0.58878(14) 0.9901(2) 0.6067(3)
C30_2 C 0.54142(16) 0.9927(2) 0.6441(3)
C31_2 C 0.54787(15) 0.9019(2) 0.5285(3)
C32_2 C 0.53840(14) 0.8416(2) 0.4651(3)
C33_2 C 0.50187(16) 0.7887(2) 0.4806(3)
H17_2 H 0.4816 0.7916 0.5319
C34_2 C 0.49490(16) 0.7316(2) 0.4214(3)
H18_2 H 0.4695 0.6958 0.4334
C35_2 C 0.55743(14) 0.7754(2) 0.3325(3)
H19_2 H 0.5772 0.7708 0.2806
C36_2 C 0.56669(14) 0.8344(2) 0.3877(3)
H20_2 H 0.5919 0.8698 0.3735
N7_2 N 0.59180(12) 0.93911(17) 0.5395(2)
N8_2 N 0.52201(12) 0.72407(16) 0.3480(2)
S4_2 S 0.49907(4) 0.92819(7) 0.59842(8)
C37_2 C 0.58816(14) 0.5716(2) 0.1871(2)
C38_2 C 0.54343(14) 0.5222(2) 0.1509(2)
C39 C 0.54822(15) 0.4544(2) 0.1210(2)
H21 H 0.5814 0.4296 0.1198
C40 C 0.45651(14) 0.4997(2) 0.1126(2)
C41_2 C 0.39810(13) 0.5106(2) 0.0937(2)
C42 C 0.36283(15) 0.4536(2) 0.0794(3)
H22 H 0.3760 0.4060 0.0813
C43 C 0.30802(15) 0.4670(2) 0.0622(3)
H23 H 0.2842 0.4274 0.0534
C44_2 C 0.32131(13) 0.58698(19) 0.0704(2)
H24_2 H 0.3071 0.6340 0.0669
C45_2 C 0.37658(13) 0.5788(2) 0.0888(2)
H25_2 H 0.3994 0.6193 0.0979
N9_2 N 0.49148(11) 0.54778(16) 0.1460(2)
N10_2 N 0.28692(11) 0.53244(15) 0.05727(19)
O9_2 O 0.57324(8) 0.63125(13) 0.21830(16)
O10_2 O 0.63585(9) 0.55342(15) 0.18473(18)
S5 S 0.48634(4) 0.42018(6) 0.08597(7)
Cu3_2 Cu 0.698130(16) 0.94630(2) 0.52188(3)
H28_2 H 0.2448 0.9809 0.1374
Cu6_2 Cu 0.198130(16) 0.55370(2) 0.02188(3)
N14_2 N 0.69051(10) 0.85800(15) 0.6039(2)
O13_2 O 0.70801(9) 0.87138(13) 0.43042(16)
N16_2 N 0.78692(11) 0.96756(15) 0.55727(19)
Cu1_2 Cu 0.301870(16) 0.94630(2) 0.97812(3)
C2_2 C 0.41122(14) 0.9901(2) 0.8933(3)
C3_2 C 0.45858(16) 0.9927(2) 0.8559(3)
C4_2 C 0.45213(15) 0.9019(2) 0.9715(3)
H2_2 H 0.5184 0.7916 0.9681
N1_2 N 0.40820(12) 0.93911(17) 0.9605(2)
S1_2 S 0.50093(4) 0.92819(7) 0.90158(8)
C11_2 C 0.31623(12) 0.79873(18) 0.9518(2)
C12_2 C 0.33397(14) 0.7399(2) 0.9106(3)
H6_2 H 0.3406 0.6951 0.9398
C13_2 C 0.32207(13) 0.84378(19) 0.8125(3)
C14_2 C 0.31815(13) 0.89343(18) 0.7347(2)
C15_2 C 0.27687(14) 0.94232(19) 0.7208(2)
H7_2 H 0.2506 0.9457 0.7634
C16_2 C 0.27366(13) 0.98592(18) 0.6458(2)
C17_2 C 0.34963(14) 0.9363(2) 0.5969(3)
H9_2 H 0.3751 0.9338 0.5529
C18_2 C 0.35572(14) 0.8910(2) 0.6708(3)
H10_2 H 0.3851 0.8586 0.6782
N3_2 N 0.30949(10) 0.85800(15) 0.8961(2)
N4_2 N 0.30923(11) 0.98392(15) 0.5839(2)
S2_2 S 0.34284(4) 0.75719(5) 0.79937(7)
N13_2 N 0.21308(11) 0.96756(15) 0.94273(19)
C10_3 C 0.19662(13) 0.3074(2) 0.4516(3)
C11_3 C 0.18377(12) 0.29873(18) 0.5482(2)
C12_3 C 0.16603(14) 0.2399(2) 0.5894(3)
H6_3 H 0.1594 0.1951 0.5602
C13_3 C 0.17793(13) 0.34378(19) 0.6875(3)
C14_3 C 0.18185(13) 0.39343(18) 0.7653(2)
C15_3 C 0.22313(14) 0.44232(19) 0.7792(2)
H7_3 H 0.2494 0.4457 0.7366
C16_3 C 0.22634(13) 0.48592(18) 0.8542(2)
H8_3 H 0.2552 0.5191 0.8626
C17_3 C 0.15037(14) 0.4363(2) 0.9031(3)
H9_3 H 0.1249 0.4338 0.9471
C18_3 C 0.14428(14) 0.3910(2) 0.8292(3)
H10_3 H 0.1149 0.3586 0.8218
N4_3 N 0.19077(11) 0.48392(15) 0.9161(2)
O4_3 O 0.19536(10) 0.25562(13) 0.39991(17)
S2_3 S 0.15716(4) 0.25719(5) 0.70063(7)
C47_3 C 0.18377(12) 0.70127(18) 0.0482(2)
C48_3 C 0.16603(14) 0.7601(2) 0.0894(3)
H26_3 H 0.1594 0.8049 0.0602
C49_3 C 0.17793(13) 0.65622(19) 0.1875(3)
C50_3 C 0.18185(13) 0.60657(18) 0.2653(2)
C51_3 C 0.22313(14) 0.55768(19) 0.2792(2)
H27_3 H 0.2494 0.5543 0.2366
C52_3 C 0.22634(13) 0.51408(18) 0.3542(2)
H28_3 H 0.2552 0.4809 0.3626
C53_3 C 0.15037(14) 0.5637(2) 0.4031(3)
H29_3 H 0.1249 0.5662 0.4471
C54_3 C 0.14428(14) 0.6090(2) 0.3292(3)
H30_3 H 0.1149 0.6414 0.3218
N11_3 N 0.19051(10) 0.64200(15) 0.1039(2)
S6_3 S 0.15716(4) 0.74281(5) 0.20063(7)
C46_3 C 0.19662(13) 0.6926(2) 0.9516(3)
O11_3 O 0.20801(9) 0.62862(13) 0.93042(16)
O12_3 O 0.19536(10) 0.74438(13) 0.89991(17)
H8_4 H 0.7552 0.0191 0.8626
C47_4 C 0.68377(12) 0.20127(18) 0.0482(2)
C48_4 C 0.66603(14) 0.2601(2) 0.0894(3)
H26_4 H 0.6594 0.3049 0.0602
C49_4 C 0.67793(13) 0.15622(19) 0.1875(3)
C50_4 C 0.68185(13) 0.10657(18) 0.2653(2)
C51_4 C 0.72313(14) 0.05768(19) 0.2792(2)
H27_4 H 0.7494 0.0543 0.2366
C52_4 C 0.72634(13) 0.01408(18) 0.3542(2)
C53_4 C 0.65037(14) 0.0637(2) 0.4031(3)
H29_4 H 0.6249 0.0662 0.4471
C54_4 C 0.64428(14) 0.1090(2) 0.3292(3)
H30_4 H 0.6149 0.1414 0.3218
N11_4 N 0.69051(10) 0.14200(15) 0.1039(2)
S6_4 S 0.65716(4) 0.24281(5) 0.20063(7)
C46_4 C 0.69662(13) 0.1926(2) 0.9516(3)
O11_4 O 0.70801(9) 0.12862(13) 0.93042(16)
O12_4 O 0.69536(10) 0.24438(13) 0.89991(17)
C10_4 C 0.69662(13) 0.8074(2) 0.4516(3)
C11_4 C 0.68377(12) 0.79873(18) 0.5482(2)
C12_4 C 0.66603(14) 0.7399(2) 0.5894(3)
H6_4 H 0.6594 0.6951 0.5602
C13_4 C 0.67793(13) 0.84378(19) 0.6875(3)
C14_4 C 0.68185(13) 0.89343(18) 0.7653(2)
C15_4 C 0.72313(14) 0.94232(19) 0.7792(2)
H7_4 H 0.7494 0.9457 0.7366
C16_4 C 0.72634(13) 0.98592(18) 0.8542(2)
C17_4 C 0.65037(14) 0.9363(2) 0.9031(3)
H9_4 H 0.6249 0.9338 0.9471
C18_4 C 0.64428(14) 0.8910(2) 0.8292(3)
H10_4 H 0.6149 0.8586 0.8218
N4_4 N 0.69077(11) 0.98392(15) 0.9161(2)
O4_4 O 0.69536(10) 0.75562(13) 0.39991(17)
S2_4 S 0.65716(4) 0.75719(5) 0.70063(7)
H28_4 H 0.7552 0.9809 0.3626
C1_3 C 0.13643(16) 0.4635(2) 0.1366(3)
C2_3 C 0.08878(14) 0.5099(2) 0.1067(3)
C3_3 C 0.04142(16) 0.5073(2) 0.1441(3)
H1_3 H 0.0330 0.4741 0.1895
C4_3 C 0.04787(15) 0.5981(2) 0.0285(3)
N1_3 N 0.09180(12) 0.56089(17) 0.0395(2)
O1_3 O 0.18080(10) 0.47751(13) 0.10610(16)
O2_3 O 0.12950(12) 0.41507(16) 0.19096(19)
Cu2_4 Cu 0.0000 0.85897(3) 0.7500
C5_3 C 0.03840(14) 0.6584(2) 0.9651(3)
C6_3 C 0.00187(16) 0.7113(2) 0.9806(3)
C8_3 C 0.05743(14) 0.7246(2) 0.8325(3)
H4_3 H 0.0772 0.7292 0.7806
C9_3 C 0.06669(14) 0.6656(2) 0.8877(3)
H5_3 H 0.0919 0.6302 0.8735
N2_3 N 0.02201(12) 0.77593(16) 0.8480(2)
C19_3 C 0.08816(14) 0.9284(2) 0.6871(2)
C20_3 C 0.04343(14) 0.9778(2) 0.6509(2)
O5_3 O 0.07324(8) 0.86875(13) 0.71830(16)
O6_3 O 0.13585(9) 0.94658(15) 0.68473(18)
H17_3 H 0.0184 0.7084 0.4681
C34_3 C 0.00510(16) 0.7684(2) 0.5786(3)
H18_3 H 0.0305 0.8042 0.5666
S4_3 S 0.00093(4) 0.57181(7) 0.40158(8)
C41_3 C 0.10190(13) 0.9894(2) 0.9063(2)
C44_3 C 0.17869(13) 0.91302(19) 0.9296(2)
H24_3 H 0.1929 0.8660 0.9331
C45_3 C 0.12342(13) 0.9212(2) 0.9112(2)
H25_3 H 0.1006 0.8807 0.9021
N9_3 N 0.00852(11) 0.95222(16) 0.8540(2)
H2_3 H 0.9816 0.7084 0.0319
S1_3 S 0.99907(4) 0.57181(7) 0.09842(8)
Cu2_5 Cu 1.0000 0.85897(3) 0.7500
C7_3 C 0.99490(16) 0.7684(2) 0.9214(3)
H3_3 H 0.9695 0.8042 0.9334
C23_3 C 0.89810(13) 0.9894(2) 0.5937(2)
C26_3 C 0.82131(13) 0.91302(19) 0.5704(2)
H14_3 H 0.8071 0.8660 0.5669
C27_3 C 0.87658(13) 0.9212(2) 0.5888(2)
H15_3 H 0.8994 0.8807 0.5979
N5_3 N 0.99148(11) 0.95222(16) 0.6460(2)
C28_3 C 0.86357(16) 0.4635(2) 0.3634(3)
C29_3 C 0.91122(14) 0.5099(2) 0.3933(3)
C30_3 C 0.95858(16) 0.5073(2) 0.3559(3)
H16_3 H 0.9670 0.4741 0.3105
C31_3 C 0.95213(15) 0.5981(2) 0.4715(3)
C32_3 C 0.96160(14) 0.6584(2) 0.5349(3)
C33_3 C 0.99813(16) 0.7113(2) 0.5194(3)
C35_3 C 0.94257(14) 0.7246(2) 0.6675(3)
H19_3 H 0.9228 0.7292 0.7194
C36_3 C 0.93331(14) 0.6656(2) 0.6123(3)
H20_3 H 0.9081 0.6302 0.6265
N7_3 N 0.90820(12) 0.56089(17) 0.4605(2)
N8_3 N 0.97799(12) 0.77593(16) 0.6520(2)
O7_3 O 0.81920(10) 0.47751(13) 0.39390(16)
O8_3 O 0.87050(12) 0.41507(16) 0.30904(19)
C37_3 C 0.91184(14) 0.9284(2) 0.8129(2)
C38_3 C 0.95657(14) 0.9778(2) 0.8491(2)
O9_3 O 0.92676(8) 0.86875(13) 0.78170(16)
O10_3 O 0.86415(9) 0.94658(15) 0.81527(18)
C2_4 C 0.58878(14) 0.0099(2) 0.1067(3)
C3_4 C 0.54142(16) 0.0073(2) 0.1441(3)
C4_4 C 0.54787(15) 0.0981(2) 0.0285(3)
H2_4 H 0.4816 0.2084 0.0319
N1_4 N 0.59180(12) 0.06089(17) 0.0395(2)
S1_4 S 0.49907(4) 0.07181(7) 0.09842(8)
Cu2_6 Cu 0.5000 0.35897(3) 0.7500
C5_4 C 0.53840(14) 0.1584(2) 0.9651(3)
C6_4 C 0.50187(16) 0.2113(2) 0.9806(3)
C7_4 C 0.49490(16) 0.2684(2) 0.9214(3)
H3_4 H 0.4695 0.3042 0.9334
C8_4 C 0.55743(14) 0.2246(2) 0.8325(3)
H4_4 H 0.5772 0.2292 0.7806
C9_4 C 0.56669(14) 0.1656(2) 0.8877(3)
H5_4 H 0.5919 0.1302 0.8735
N2_4 N 0.52201(12) 0.27593(16) 0.8480(2)
C19_4 C 0.58816(14) 0.4284(2) 0.6871(2)
C20_4 C 0.54343(14) 0.4778(2) 0.6509(2)
C21_2 C 0.54822(15) 0.5456(2) 0.6210(2)
H11_2 H 0.5814 0.5704 0.6198
C22_2 C 0.45651(14) 0.5003(2) 0.6126(2)
C23_4 C 0.39810(13) 0.4894(2) 0.5937(2)
C24_2 C 0.36283(15) 0.5464(2) 0.5794(3)
H12_2 H 0.3760 0.5940 0.5813
C25_2 C 0.30802(15) 0.5330(2) 0.5622(3)
H13_2 H 0.2842 0.5726 0.5534
C26_4 C 0.32131(13) 0.41302(19) 0.5704(2)
H14_4 H 0.3071 0.3660 0.5669
C27_4 C 0.37658(13) 0.4212(2) 0.5888(2)
H15_4 H 0.3994 0.3807 0.5979
N5_4 N 0.49148(11) 0.45222(16) 0.6460(2)
O5_4 O 0.57324(8) 0.36875(13) 0.71830(16)
O6_4 O 0.63585(9) 0.44658(15) 0.68473(18)
S3_2 S 0.48634(4) 0.57982(6) 0.58597(7)
C29_4 C 0.41122(14) 0.0099(2) 0.3933(3)
C30_4 C 0.45858(16) 0.0073(2) 0.3559(3)
C31_4 C 0.45213(15) 0.0981(2) 0.4715(3)
C32_4 C 0.46160(14) 0.1584(2) 0.5349(3)
C33_4 C 0.49813(16) 0.2113(2) 0.5194(3)
H17_4 H 0.5184 0.2084 0.4681
C34_4 C 0.50510(16) 0.2684(2) 0.5786(3)
H18_4 H 0.5305 0.3042 0.5666
C35_4 C 0.44257(14) 0.2246(2) 0.6675(3)
H19_4 H 0.4228 0.2292 0.7194
C36_4 C 0.43331(14) 0.1656(2) 0.6123(3)
H20_4 H 0.4081 0.1302 0.6265
N7_4 N 0.40820(12) 0.06089(17) 0.4605(2)
N8_4 N 0.47799(12) 0.27593(16) 0.6520(2)
S4_4 S 0.50093(4) 0.07181(7) 0.40158(8)
C37_4 C 0.41184(14) 0.4284(2) 0.8129(2)
C38_4 C 0.45657(14) 0.4778(2) 0.8491(2)
C39_2 C 0.45178(15) 0.5456(2) 0.8790(2)
H21_2 H 0.4186 0.5704 0.8802
C40_2 C 0.54349(14) 0.5003(2) 0.8874(2)
C41_4 C 0.60190(13) 0.4894(2) 0.9063(2)
C42_2 C 0.63717(15) 0.5464(2) 0.9206(3)
H22_2 H 0.6240 0.5940 0.9187
C43_2 C 0.69198(15) 0.5330(2) 0.9378(3)
H23_2 H 0.7158 0.5726 0.9466
C44_4 C 0.67869(13) 0.41302(19) 0.9296(2)
H24_4 H 0.6929 0.3660 0.9331
C45_4 C 0.62342(13) 0.4212(2) 0.9112(2)
H25_4 H 0.6006 0.3807 0.9021
N9_4 N 0.50852(11) 0.45222(16) 0.8540(2)
O9_4 O 0.42676(8) 0.36875(13) 0.78170(16)
O10_4 O 0.36415(9) 0.44658(15) 0.81527(18)
S5_2 S 0.51366(4) 0.57982(6) 0.91403(7)
C1_4 C 0.63643(16) 0.9635(2) 0.1366(3)
H1_4 H 0.5330 0.9741 0.1895
O1_4 O 0.68080(10) 0.97751(13) 0.10610(16)
O2_4 O 0.62950(12) 0.91507(16) 0.19096(19)
C28_4 C 0.36357(16) 0.9635(2) 0.3634(3)
H16_4 H 0.4670 0.9741 0.3105
O7_4 O 0.31920(10) 0.97751(13) 0.39390(16)
O8_4 O 0.37050(12) 0.91507(16) 0.30904(19)
C22_3 C 0.04349(14) 0.9997(2) 0.3874(2)
C24_3 C 0.13717(15) 0.9536(2) 0.4206(3)
H12_3 H 0.1240 0.9060 0.4187
C25_3 C 0.19198(15) 0.9670(2) 0.4378(3)
H13_3 H 0.2158 0.9274 0.4466
S3_3 S 0.01366(4) 0.92018(6) 0.41403(7)
C39_3 C 0.04822(15) 0.9544(2) 0.1210(2)
H21_3 H 0.0814 0.9296 0.1198
C21_3 C 0.95178(15) 0.9544(2) 0.3790(2)
H11_3 H 0.9186 0.9296 0.3802
C40_3 C 0.95651(14) 0.9997(2) 0.1126(2)
C42_3 C 0.86283(15) 0.9536(2) 0.0794(3)
H22_3 H 0.8760 0.9060 0.0813
C43_3 C 0.80802(15) 0.9670(2) 0.0622(3)
H23_3 H 0.7842 0.9274 0.0534
S5_3 S 0.98634(4) 0.92018(6) 0.08597(7)
C21_4 C 0.04822(15) 0.0456(2) 0.6210(2)
H11_4 H 0.0814 0.0704 0.6198
C40_4 C 0.04349(14) 0.0003(2) 0.8874(2)
C42_4 C 0.13717(15) 0.0464(2) 0.9206(3)
H22_4 H 0.1240 0.0940 0.9187
C43_4 C 0.19198(15) 0.0330(2) 0.9378(3)
H23_4 H 0.2158 0.0726 0.9466
S5_4 S 0.01366(4) 0.07982(6) 0.91403(7)
C22_4 C 0.95651(14) 0.0003(2) 0.6126(2)
C24_4 C 0.86283(15) 0.0464(2) 0.5794(3)
H12_4 H 0.8760 0.0940 0.5813
C25_4 C 0.80802(15) 0.0330(2) 0.5622(3)
H13_4 H 0.7842 0.0726 0.5534
S3_4 S 0.98634(4) 0.07982(6) 0.58597(7)
C39_4 C 0.95178(15) 0.0456(2) 0.8790(2)
H21_4 H 0.9186 0.0704 0.8802
loop_
_geom_bond_atom_site_label_1
_geom_bond_atom_site_label_2
_geom_bond_site_symmetry_1
_geom_bond_site_symmetry_2
H3 C7 1_555 1_555
C26 H14 1_555 1_555
C27 C23 1_555 1_555
H15 C27 1_555 1_555
N5 Cu2 1_555 1_555
C28 C29 1_555 1_555
C29 C30 1_555 1_555
C30 H16 1_555 1_555
C31 C32 1_555 1_555
C32 C33 1_555 1_555
C35 H19 1_555 1_555
C36 C32 1_555 1_555
H20 C36 1_555 1_555
N7 C29 1_555 1_555
N8 Cu2 1_555 1_555
O7 C28 1_555 1_555
O8 C28 1_555 1_555
C37 C38 1_555 1_555
O9 Cu2 1_555 1_555
O10 C37 1_555 1_555
Cu3 N7 1_555 1_555
Cu5 N6 1_555 1_555
N14 Cu3 1_555 1_555
N15 Cu3 1_555 1_555
O13 Cu3 1_555 1_555
N16 Cu3 1_555 1_555
C26 C27 1_555 1_555
C26 N6 1_555 1_555
C31 N7 1_555 1_555
C35 C36 1_555 1_555
C35 N8 1_555 1_555
O7 Cu3 1_555 1_555
C37 O9 1_555 1_555
Cu2_2 N2 1_555 1_555
C5 C6 1_555 1_555
C8 H4 1_555 1_555
C9 C5 1_555 1_555
H5 C9 1_555 1_555
O4 C10 1_555 1_555
C19 C20 1_555 1_555
O5 Cu2_2 1_555 1_555
O6 C19 1_555 1_555
H18 C34 1_555 1_555
C44 H24 1_555 1_555
C45 C41 1_555 1_555
H25 C45 1_555 1_555
N9 Cu2_2 1_555 1_555
C46 C47 1_555 1_555
C47 C48 1_555 1_555
C48 H26 1_555 1_555
C49 C50 1_555 1_555
C50 C51 1_555 1_555
C51 H27 1_555 1_555
C52 C51 1_555 1_555
H28 C52 1_555 1_555
C53 H29 1_555 1_555
C54 C50 1_555 1_555
H30 C54 1_555 1_555
N11 C47 1_555 1_555
O11 C46 1_555 1_555
O12 C46 1_555 1_555
S6 C48 1_555 1_555
Cu6 N10 1_555 1_555
Cu7 N11 1_555 1_555
C8 C9 1_555 1_555
C8 N2 1_555 1_555
C10 O3 1_555 1_555
C19 O5 1_555 1_555
C44 C45 1_555 1_555
C44 N10 1_555 1_555
C49 N11 1_555 1_555
C49 S6 1_555 1_555
C52 N12 1_555 1_555
C53 C54 1_555 1_555
C53 N12 1_555 1_555
O11 Cu7 1_555 1_555
Cu1 N1 1_555 1_555
C1 C2 1_555 1_555
C2 C3 1_555 1_555
C3 H1 1_555 1_555
N1 C2 1_555 1_555
O1 Cu1 1_555 1_555
O2 C1 1_555 1_555
C11 C12 1_555 1_555
C12 H6 1_555 1_555
C13 C14 1_555 1_555
C14 C15 1_555 1_555
C15 H7 1_555 1_555
C16 C15 1_555 1_555
H8 C16 1_555 1_555
C17 H9 1_555 1_555
C18 C14 1_555 1_555
H10 C18 1_555 1_555
N3 Cu1 1_555 1_555
N4 C16 1_555 1_555
S2 C12 1_555 1_555
N13 Cu1 1_555 1_555
Cu7 N4 1_555 1_555
C1 O1 1_555 1_555
C4 N1 1_555 1_555
C11 N3 1_555 1_555
C13 N3 1_555 1_555
C13 S2 1_555 1_555
C17 C18 1_555 1_555
C17 N4 1_555 1_555
O7_2 C28_2 1_555 1_555
O8_2 C28_2 1_555 1_555
C46_2 C47_2 1_555 1_555
C47_2 C48_2 1_555 1_555
C48_2 H26_2 1_555 1_555
C49_2 C50_2 1_555 1_555
C50_2 C51_2 1_555 1_555
C51_2 H27_2 1_555 1_555
C52_2 C51_2 1_555 1_555
C53_2 H29_2 1_555 1_555
C54_2 C50_2 1_555 1_555
H30_2 C54_2 1_555 1_555
N11_2 C47_2 1_555 1_555
O11_2 C46_2 1_555 1_555
O12_2 C46_2 1_555 1_555
S6_2 C48_2 1_555 1_555
Cu5 N11_2 1_555 1_555
C49_2 N11_2 1_555 1_555
C49_2 S6_2 1_555 1_555
C52_2 N12_2 1_555 1_555
C53_2 C54_2 1_555 1_555
C53_2 N12_2 1_555 1_555
O11_2 Cu5 1_555 1_555
O2_2 C1_2 1_555 1_555
C1_2 O1_2 1_555 1_555
Cu2_3 N2_2 1_555 1_555
C5_2 C6_2 1_555 1_555
C7_2 C6_2 1_555 1_555
H3_2 C7_2 1_555 1_555
C8_2 H4_2 1_555 1_555
C9_2 C5_2 1_555 1_555
H5_2 C9_2 1_555 1_555
N2_2 C7_2 1_555 1_555
O4_2 C10_2 1_555 1_555
C19_2 C20_2 1_555 1_555
C20_2 C21 1_555 1_555
C21 H11 1_555 1_555
C22 C23_2 1_555 1_555
C23_2 C24 1_555 1_555
C24 H12 1_555 1_555
C25 C24 1_555 1_555
H13 C25 1_555 1_555
C26_2 H14_2 1_555 1_555
C27_2 C23_2 1_555 1_555
H15_2 C27_2 1_555 1_555
N5_2 Cu2_3 1_555 1_555
N6_2 C25 1_555 1_555
O5_2 Cu2_3 1_555 1_555
O6_2 C19_2 1_555 1_555
S3 C21 1_555 1_555
C29_2 C30_2 1_555 1_555
C31_2 C32_2 1_555 1_555
C32_2 C33_2 1_555 1_555
C33_2 H17_2 1_555 1_555
C34_2 C33_2 1_555 1_555
H18_2 C34_2 1_555 1_555
C35_2 H19_2 1_555 1_555
C36_2 C32_2 1_555 1_555
H20_2 C36_2 1_555 1_555
N7_2 C29_2 1_555 1_555
N8_2 Cu2_3 1_555 1_555
S4_2 C30_2 1_555 1_555
C37_2 C38_2 1_555 1_555
C38_2 C39 1_555 1_555
C39 H21 1_555 1_555
C40 C41_2 1_555 1_555
C41_2 C42 1_555 1_555
C42 H22 1_555 1_555
C43 C42 1_555 1_555
H23 C43 1_555 1_555
C44_2 H24_2 1_555 1_555
C45_2 C41_2 1_555 1_555
H25_2 C45_2 1_555 1_555
N9_2 Cu2_3 1_555 1_555
N10_2 C43 1_555 1_555
O9_2 Cu2_3 1_555 1_555
O10_2 C37_2 1_555 1_555
S5 C39 1_555 1_555
Cu3_2 N7_2 1_555 1_555
Cu7 N6_2 1_555 1_555
Cu6_2 N10_2 1_555 1_555
N14_2 Cu3_2 1_555 1_555
O13_2 Cu3_2 1_555 1_555
N16_2 Cu3_2 1_555 1_555
C8_2 C9_2 1_555 1_555
C8_2 N2_2 1_555 1_555
C10_2 O3_2 1_555 1_555
C19_2 O5_2 1_555 1_555
C20_2 N5_2 1_555 1_555
C22 N5_2 1_555 1_555
C22 S3 1_555 1_555
C26_2 C27_2 1_555 1_555
C26_2 N6_2 1_555 1_555
C31_2 N7_2 1_555 1_555
C31_2 S4_2 1_555 1_555
C34_2 N8_2 1_555 1_555
C35_2 C36_2 1_555 1_555
C35_2 N8_2 1_555 1_555
C37_2 O9_2 1_555 1_555
C38_2 N9_2 1_555 1_555
C40 N9_2 1_555 1_555
C40 S5 1_555 1_555
C44_2 C45_2 1_555 1_555
C44_2 N10_2 1_555 1_555
Cu1_2 N1_2 1_555 1_555
C2_2 C3_2 1_555 1_555
N1_2 C2_2 1_555 1_555
S1_2 C3_2 1_555 1_555
C11_2 C12_2 1_555 1_555
C12_2 H6_2 1_555 1_555
C13_2 C14_2 1_555 1_555
C14_2 C15_2 1_555 1_555
C15_2 H7_2 1_555 1_555
C16_2 C15_2 1_555 1_555
C17_2 H9_2 1_555 1_555
C18_2 C14_2 1_555 1_555
H10_2 C18_2 1_555 1_555
N3_2 Cu1_2 1_555 1_555
N4_2 C16_2 1_555 1_555
S2_2 C12_2 1_555 1_555
N13_2 Cu1_2 1_555 1_555
C4_2 N1_2 1_555 1_555
C4_2 S1_2 1_555 1_555
C11_2 N3_2 1_555 1_555
C13_2 N3_2 1_555 1_555
C13_2 S2_2 1_555 1_555
C17_2 C18_2 1_555 1_555
C17_2 N4_2 1_555 1_555
C10_3 C11_3 1_555 1_555
C11_3 C12_3 1_555 1_555
C12_3 H6_3 1_555 1_555
C13_3 C14_3 1_555 1_555
C14_3 C15_3 1_555 1_555
C15_3 H7_3 1_555 1_555
C16_3 C15_3 1_555 1_555
H8_3 C16_3 1_555 1_555
C17_3 H9_3 1_555 1_555
C18_3 C14_3 1_555 1_555
H10_3 C18_3 1_555 1_555
N4_3 C16_3 1_555 1_555
O4_3 C10_3 1_555 1_555
S2_3 C12_3 1_555 1_555
C47_3 C48_3 1_555 1_555
C48_3 H26_3 1_555 1_555
C49_3 C50_3 1_555 1_555
C50_3 C51_3 1_555 1_555
C51_3 H27_3 1_555 1_555
C52_3 C51_3 1_555 1_555
H28_3 C52_3 1_555 1_555
C53_3 H29_3 1_555 1_555
C54_3 C50_3 1_555 1_555
H30_3 C54_3 1_555 1_555
N11_3 C47_3 1_555 1_555
S6_3 C48_3 1_555 1_555
Cu6_2 N11_3 1_555 1_555
C10_3 O13 1_555 1_555
C11_3 N14 1_555 1_555
C13_3 N14 1_555 1_555
C13_3 S2_3 1_555 1_555
C17_3 C18_3 1_555 1_555
C17_3 N4_3 1_555 1_555
C49_3 N11_3 1_555 1_555
C49_3 S6_3 1_555 1_555
C52_3 N15 1_555 1_555
C53_3 C54_3 1_555 1_555
C53_3 N15 1_555 1_555
O11_3 C46_3 1_555 1_555
O12_3 C46_3 1_555 1_555
C47_4 C48_4 1_555 1_555
C48_4 H26_4 1_555 1_555
C49_4 C50_4 1_555 1_555
C50_4 C51_4 1_555 1_555
C51_4 H27_4 1_555 1_555
C52_4 C51_4 1_555 1_555
C53_4 H29_4 1_555 1_555
C54_4 C50_4 1_555 1_555
H30_4 C54_4 1_555 1_555
N11_4 C47_4 1_555 1_555
S6_4 C48_4 1_555 1_555
Cu6 N11_4 1_555 1_555
C49_4 N11_4 1_555 1_555
C49_4 S6_4 1_555 1_555
C52_4 N15_2 1_555 1_555
C53_4 C54_4 1_555 1_555
C53_4 N15_2 1_555 1_555
O11_4 C46_4 1_555 1_555
O12_4 C46_4 1_555 1_555
C10_4 C11_4 1_555 1_555
C11_4 C12_4 1_555 1_555
C12_4 H6_4 1_555 1_555
C13_4 C14_4 1_555 1_555
C14_4 C15_4 1_555 1_555
C15_4 H7_4 1_555 1_555
C16_4 C15_4 1_555 1_555
C17_4 H9_4 1_555 1_555
C18_4 C14_4 1_555 1_555
H10_4 C18_4 1_555 1_555
N4_4 C16_4 1_555 1_555
O4_4 C10_4 1_555 1_555
S2_4 C12_4 1_555 1_555
C10_4 O13_2 1_555 1_555
C11_4 N14_2 1_555 1_555
C13_4 N14_2 1_555 1_555
C13_4 S2_4 1_555 1_555
C17_4 C18_4 1_555 1_555
C17_4 N4_4 1_555 1_555
Cu6_2 N1_3 1_555 1_555
C1_3 C2_3 1_555 1_555
C2_3 C3_3 1_555 1_555
C3_3 H1_3 1_555 1_555
N1_3 C2_3 1_555 1_555
O1_3 Cu6_2 1_555 1_555
O2_3 C1_3 1_555 1_555
C1_3 O1_3 1_555 1_555
C4_3 N1_3 1_555 1_555
Cu2_4 N2_3 1_555 1_555
C5_3 C6_3 1_555 1_555
C8_3 H4_3 1_555 1_555
C9_3 C5_3 1_555 1_555
H5_3 C9_3 1_555 1_555
C19_3 C20_3 1_555 1_555
O5_3 Cu2_4 1_555 1_555
O6_3 C19_3 1_555 1_555
H18_3 C34_3 1_555 1_555
C44_3 H24_3 1_555 1_555
C45_3 C41_3 1_555 1_555
H25_3 C45_3 1_555 1_555
N9_3 Cu2_4 1_555 1_555
C8_3 C9_3 1_555 1_555
C8_3 N2_3 1_555 1_555
C19_3 O5_3 1_555 1_555
C44_3 C45_3 1_555 1_555
C44_3 N13_2 1_555 1_555
H3_3 C7_3 1_555 1_555
C26_3 H14_3 1_555 1_555
C27_3 C23_3 1_555 1_555
H15_3 C27_3 1_555 1_555
N5_3 Cu2_5 1_555 1_555
C28_3 C29_3 1_555 1_555
C29_3 C30_3 1_555 1_555
C30_3 H16_3 1_555 1_555
C31_3 C32_3 1_555 1_555
C32_3 C33_3 1_555 1_555
C35_3 H19_3 1_555 1_555
C36_3 C32_3 1_555 1_555
H20_3 C36_3 1_555 1_555
N7_3 C29_3 1_555 1_555
N8_3 Cu2_5 1_555 1_555
O7_3 C28_3 1_555 1_555
O8_3 C28_3 1_555 1_555
C37_3 C38_3 1_555 1_555
O9_3 Cu2_5 1_555 1_555
O10_3 C37_3 1_555 1_555
Cu7 N7_3 1_555 1_555
C26_3 C27_3 1_555 1_555
C26_3 N16_2 1_555 1_555
C31_3 N7_3 1_555 1_555
C35_3 C36_3 1_555 1_555
C35_3 N8_3 1_555 1_555
O7_3 Cu7 1_555 1_555
C37_3 O9_3 1_555 1_555
Cu6 N1_4 1_555 1_555
C2_4 C3_4 1_555 1_555
N1_4 C2_4 1_555 1_555
S1_4 C3_4 1_555 1_555
C4_4 N1_4 1_555 1_555
C4_4 S1_4 1_555 1_555
Cu2_6 N2_4 1_555 1_555
C5_4 C6_4 1_555 1_555
C7_4 C6_4 1_555 1_555
H3_4 C7_4 1_555 1_555
C8_4 H4_4 1_555 1_555
C9_4 C5_4 1_555 1_555
H5_4 C9_4 1_555 1_555
N2_4 C7_4 1_555 1_555
C19_4 C20_4 1_555 1_555
C20_4 C21_2 1_555 1_555
C21_2 H11_2 1_555 1_555
C22_2 C23_4 1_555 1_555
C23_4 C24_2 1_555 1_555
C24_2 H12_2 1_555 1_555
C25_2 C24_2 1_555 1_555
H13_2 C25_2 1_555 1_555
C26_4 H14_4 1_555 1_555
C27_4 C23_4 1_555 1_555
H15_4 C27_4 1_555 1_555
N5_4 Cu2_6 1_555 1_555
N16 C25_2 1_555 1_555
O5_4 Cu2_6 1_555 1_555
O6_4 C19_4 1_555 1_555
S3_2 C21_2 1_555 1_555
C29_4 C30_4 1_555 1_555
C31_4 C32_4 1_555 1_555
C32_4 C33_4 1_555 1_555
C33_4 H17_4 1_555 1_555
C34_4 C33_4 1_555 1_555
H18_4 C34_4 1_555 1_555
C35_4 H19_4 1_555 1_555
C36_4 C32_4 1_555 1_555
H20_4 C36_4 1_555 1_555
N7_4 C29_4 1_555 1_555
N8_4 Cu2_6 1_555 1_555
S4_4 C30_4 1_555 1_555
C37_4 C38_4 1_555 1_555
C38_4 C39_2 1_555 1_555
C39_2 H21_2 1_555 1_555
C40_2 C41_4 1_555 1_555
C41_4 C42_2 1_555 1_555
C42_2 H22_2 1_555 1_555
C43_2 C42_2 1_555 1_555
H23_2 C43_2 1_555 1_555
C44_4 H24_4 1_555 1_555
C45_4 C41_4 1_555 1_555
H25_4 C45_4 1_555 1_555
N9_4 Cu2_6 1_555 1_555
N13 C43_2 1_555 1_555
O9_4 Cu2_6 1_555 1_555
O10_4 C37_4 1_555 1_555
S5_2 C39_2 1_555 1_555
Cu5 N7_4 1_555 1_555
C8_4 C9_4 1_555 1_555
C8_4 N2_4 1_555 1_555
C19_4 O5_4 1_555 1_555
C20_4 N5_4 1_555 1_555
C22_2 N5_4 1_555 1_555
C22_2 S3_2 1_555 1_555
C26_4 C27_4 1_555 1_555
C26_4 N16 1_555 1_555
C31_4 N7_4 1_555 1_555
C31_4 S4_4 1_555 1_555
C34_4 N8_4 1_555 1_555
C35_4 C36_4 1_555 1_555
C35_4 N8_4 1_555 1_555
C37_4 O9_4 1_555 1_555
C38_4 N9_4 1_555 1_555
C40_2 N9_4 1_555 1_555
C40_2 S5_2 1_555 1_555
C44_4 C45_4 1_555 1_555
C44_4 N13 1_555 1_555
O2_4 C1_4 1_555 1_555
C1_4 O1_4 1_555 1_555
O7_4 C28_4 1_555 1_555
O8_4 C28_4 1_555 1_555
C24_3 H12_3 1_555 1_555
C25_3 C24_3 1_555 1_555
H13_3 C25_3 1_555 1_555
C39_3 H21_3 1_555 1_555
C22_3 S3_3 1_555 1_555
C21_3 H11_3 1_555 1_555
C42_3 H22_3 1_555 1_555
C43_3 C42_3 1_555 1_555
H23_3 C43_3 1_555 1_555
C40_3 S5_3 1_555 1_555
C21_4 H11_4 1_555 1_555
C42_4 H22_4 1_555 1_555
C43_4 C42_4 1_555 1_555
H23_4 C43_4 1_555 1_555
C40_4 S5_4 1_555 1_555
C24_4 H12_4 1_555 1_555
C25_4 C24_4 1_555 1_555
H13_4 C25_4 1_555 1_555
C39_4 H21_4 1_555 1_555
C22_4 S3_4 1_555 1_555

#END
