
###############################################################################
#
# This file contains modified crystal structure data generated from the
# MOF subset of the Cambridge Structural Database (CSD) v543 
# hosted by the Cambridge Crystallographic Data Centre (CCDC).
#
# This work is licensed under the Creative Commons
# Attribution-NonCommercial-ShareAlike 4.0 International License.
# To view a copy of this license, visit
# http://creativecommons.org/licenses/by-nc-sa/4.0/
# or send a letter to
# Creative Commons, PO Box 1866, Mountain View, CA 94042, USA.
#
# CIF created using the CSD Python API on 29 September 2022
# The structure has been converted into the P1 space group
# The structure has a 3D framework
# The original CSD entry HAKPOC is in the monoclinic crystal system
# The framework has been calculated to contain at least 10.0% void space
# The void calculation uses a probe of radius 1.32A, grid spacing 0.4
#
###############################################################################

data_HAKPOC
_chemical_formula_moiety         '(C608 H480 Mn8 N32 O112 Zn24)n'
_symmetry_cell_setting           triclinic
_symmetry_space_group_name_H-M   'P 1'
_symmetry_Int_Tables_number      1
_space_group_name_Hall           'P 1'
loop_
_symmetry_equiv_pos_site_id
_symmetry_equiv_pos_as_xyz
1 x,y,z
_cell_length_a                   65.1518(10)
_cell_length_b                   14.7217(2)
_cell_length_c                   24.4314(4)
_cell_angle_alpha                90
_cell_angle_beta                 110.1980(10)
_cell_angle_gamma                90
_cell_volume                     21992.2
loop_
_atom_site_label
_atom_site_type_symbol
_atom_site_fract_x
_atom_site_fract_y
_atom_site_fract_z
C27 C 0.16048(11) 0.0018(4) 0.0666(3)
H13 H 0.1727 0.0403 0.0719
C42 C 0.14357(11) 0.0014(4) 0.0136(3)
Zn3 Zn 0.17950(2) 0.25409(5) 0.76213(3)
O7 O 0.16084(7) 0.2563(2) 0.81793(16)
O11 O 0.12510(7) 0.2259(3) 0.77675(17)
C11 C 0.14386(10) 0.1644(4) 0.8689(2)
C22 C 0.16328(11) 0.1364(4) 0.9104(3)
H9 H 0.1768 0.1536 0.9065
C23 C 0.14370(10) 0.2199(4) 0.8170(3)
C35 C 0.12417(11) 0.1395(4) 0.8750(3)
H18 H 0.1107 0.1581 0.8466
C43 C 0.14372(11) 0.0576(4) 0.9645(3)
C45 C 0.16343(11) 0.0834(4) 0.9578(3)
H23 H 0.1770 0.0646 0.9857
C53 C 0.12399(12) 0.0873(5) 0.9227(3)
H31 H 0.1105 0.0719 0.9269
Zn5 Zn 0.12071(2) 0.29249(4) 0.70549(3)
O15 O 0.19525(6) 0.1339(2) 0.80862(16)
O16 O 0.16375(6) 0.3726(2) 0.71656(15)
O17 O 0.15651(7) 0.1658(2) 0.70190(15)
O18 O 0.20295(6) 0.3423(2) 0.82186(16)
O21 O 0.19909(7) 0.2464(3) 0.70791(17)
Zn2 Zn 0.12071(2) 0.70751(4) 0.20549(3)
O2 O 0.16375(6) 0.6274(2) 0.21656(15)
O3 O 0.15651(7) 0.8342(2) 0.20190(15)
O4 O 0.13066(6) 0.5825(2) 0.21237(17)
O8 O 0.12415(7) 0.7807(2) 0.14372(16)
C1 C 0.19627(10) 0.0187(3) 0.2780(3)
C2 C 0.15755(10) 0.4707(3) 0.2255(3)
C3 C 0.17944(10) 0.4499(3) 0.2492(2)
H1 H 0.1899 0.4978 0.2597
C4 C 0.14183(10) 0.8898(4) 0.1060(2)
C5 C 0.14149(9) 0.8308(3) 0.1550(2)
C7 C 0.15015(10) 0.5677(3) 0.2176(2)
C8 C 0.15989(11) 0.9468(4) 0.1125(3)
H2 H 0.1718 0.9478 0.1485
C9 C 0.20737(11) 0.0834(3) 0.2580(3)
H3 H 0.2209 0.0685 0.2539
C10 C 0.19874(10) 0.1701(4) 0.2438(3)
H4 H 0.2064 0.2140 0.2297
C13 C 0.17621(11) 0.0402(4) 0.2812(3)
C25 C 0.18663(11) 0.3611(4) 0.2582(3)
H11 H 0.2018 0.3479 0.2753
C31 C 0.14924(11) 0.3102(4) 0.2168(3)
H16 H 0.1388 0.2625 0.2046
C32 C 0.14206(10) 0.4013(3) 0.2092(3)
H17 H 0.1269 0.4151 0.1932
C34 C 0.17100(11) 0.2895(3) 0.2415(3)
C36 C 0.16746(11) 0.1277(4) 0.2670(3)
H19 H 0.1535 0.1417 0.2691
C37 C 0.12491(12) 0.8872(5) 0.0519(3)
H20 H 0.1129 0.8476 0.0463
C38 C 0.17911(10) 0.1930(3) 0.2502(3)
C46 C 0.38264(11) 0.0403(5) 0.4719(3)
C48 C 0.36516(12) 0.1146(5) 0.4542(3)
H25 H 0.3721 0.1740 0.4661
H26 H 0.3544 0.1038 0.4732
H27 H 0.3578 0.1137 0.4117
C50 C 0.12556(12) 0.9419(5) 0.0065(3)
C56 C 0.39839(12) 0.0579(6) 0.4386(4)
H34 H 0.3904 0.0538 0.3966
H35 H 0.4101 0.0123 0.4498
H36 H 0.4048 0.1186 0.4482
C57 C 0.39470(13) 0.0480(6) 0.5381(3)
H37 H 0.4027 0.1056 0.5468
H39 H 0.3841 0.0458 0.5583
C73 C 0.4756(2) 0.0338(11) 0.5753(11)
C74 C 0.4628(2) 0.0540(10) 0.5158(9)
H52 H 0.4723 0.0777 0.4956
H53 H 0.4517 0.0996 0.5148
C75 C 0.4597(2) 0.0347(10) 0.6132(9)
H56 H 0.4552 0.0972 0.6170
H57 H 0.4675 0.0097 0.6520
C76 C 0.4941(2) 0.1064(9) 0.6002(9)
H58 H 0.4888 0.1658 0.5829
H59 H 0.5070 0.0888 0.5906
H60 H 0.4981 0.1099 0.6426
Zn9 Zn 0.17950(2) 0.74591(5) 0.26213(3)
O20 O 0.12510(7) 0.7741(3) 0.27675(17)
N5 N 0.08801(7) 0.6899(4) 0.1780(3)
Zn1 Zn 0.23715(2) 0.79616(4) 0.31958(3)
Mn1 Mn 0.4280(2) 0.7814(9) 0.5039(4)
O1 O 0.19525(6) 0.8661(2) 0.30862(16)
O5 O 0.20295(6) 0.6577(2) 0.32186(16)
O6 O 0.23350(6) 0.7230(2) 0.38106(15)
O9 O 0.23514(7) 0.2696(3) 0.74885(18)
O10 O 0.22585(6) 0.9188(2) 0.29987(19)
N1 N 0.26972(7) 0.8189(3) 0.3551(2)
O13 O 0.40684(8) 0.8725(4) 0.4916(3)
C6 C 0.20632(10) 0.9271(3) 0.2956(3)
C12 C 0.21679(10) 0.2768(4) 0.7074(3)
H5 H 0.1682 0.9953 0.2931
C14 C 0.27987(10) 0.8934(4) 0.3427(3)
H6 H 0.2711 0.9392 0.3183
C15 C 0.21730(10) 0.3266(4) 0.6541(2)
C16 C 0.23338(10) 0.6155(4) 0.4735(2)
H7 H 0.2438 0.6631 0.4806
C17 C 0.21800(9) 0.6653(3) 0.3698(2)
C18 C 0.21851(10) 0.6042(3) 0.4191(2)
C19 C 0.21884(11) 0.4872(4) 0.5089(3)
C20 C 0.21833(11) 0.4273(4) 0.5585(2)
C21 C 0.23355(11) 0.5589(4) 0.5189(3)
H8 H 0.2437 0.5690 0.5570
C24 C 0.19819(11) 0.3427(4) 0.6082(3)
H10 H 0.1847 0.3188 0.6090
C26 C 0.23699(10) 0.3564(4) 0.6513(3)
H12 H 0.2502 0.3418 0.6818
C28 C 0.31518(10) 0.8388(4) 0.3980(3)
C29 C 0.19854(11) 0.3937(4) 0.5607(3)
H14 H 0.1853 0.4059 0.5296
C30 C 0.30143(10) 0.9046(4) 0.3633(3)
H15 H 0.3076 0.9586 0.3542
C33 C 0.37241(11) 0.9458(5) 0.4571(3)
C39 C 0.23761(11) 0.4073(4) 0.6044(3)
H21 H 0.2512 0.4288 0.6034
C40 C 0.34990(11) 0.9320(5) 0.4333(3)
H22 H 0.3409 0.9845 0.4257
C41 C 0.38550(12) 0.8636(5) 0.4674(4)
C44 C 0.33927(11) 0.8471(5) 0.4194(3)
C47 C 0.28277(10) 0.7561(4) 0.3904(3)
H24 H 0.2762 0.7041 0.4005
C49 C 0.37500(12) 0.7761(5) 0.4507(4)
C51 C 0.20402(13) 0.4748(5) 0.4533(3)
H29 H 0.1939 0.4258 0.4457
C52 C 0.35261(11) 0.7724(5) 0.4281(3)
H30 H 0.3459 0.7145 0.4178
C54 C 0.20369(12) 0.5325(4) 0.4085(3)
H32 H 0.1934 0.5233 0.3705
C55 C 0.30487(10) 0.7639(4) 0.4122(3)
H33 H 0.3134 0.7180 0.4372
O14 O 0.45139(17) 0.8731(8) 0.5226(6)
H38 H 0.4050 0.9974 0.5512
N2 N 0.58801(7) 0.8101(4) 0.6780(3)
C58 C 0.38749(13) 0.6953(6) 0.4545(4)
H40 H 0.3792 0.6412 0.4426
C59 C 0.5080(3) 0.9226(17) 0.5956(9)
H41 H 0.5172 0.9745 0.6047
C60 C 0.4859(3) 0.9388(16) 0.5719(9)
C61 C 0.5050(3) 0.7595(13) 0.5788(9)
H42 H 0.5111 0.7015 0.5766
N3 N 0.44981(19) 0.6892(9) 0.5066(8)
C62 C 0.4724(3) 0.8610(13) 0.5475(9)
C63 C 0.4829(3) 0.7733(13) 0.5536(9)
C64 C 0.4702(2) 0.6976(11) 0.5213(9)
H43 H 0.4779 0.6504 0.5103
C65 C 0.4381(2) 0.6105(11) 0.4701(9)
H44 H 0.4331 0.6256 0.4281
H45 H 0.4476 0.5562 0.4774
C66 C 0.4190(5) 0.5948(17) 0.4897(12)
H46 H 0.4239 0.5773 0.5313
H47 H 0.4092 0.5470 0.4660
N4 N 0.4074(10) 0.690(3) 0.479(3)
C67 C 0.5413(2) 0.8233(11) 0.6307(9)
C68 C 0.5190(4) 0.8330(16) 0.6085(13)
C69 C 0.5748(2) 0.7569(11) 0.6288(8)
H48 H 0.5819 0.7174 0.6103
C70 C 0.5531(2) 0.7609(11) 0.6085(9)
H49 H 0.5453 0.7208 0.5780
C71 C 0.5780(2) 0.8752(11) 0.6870(9)
H50 H 0.5865 0.9208 0.7123
C72 C 0.5557(2) 0.8898(12) 0.6644(9)
H51 H 0.5500 0.9460 0.6717
H54 H 0.4556 0.9985 0.4963
H55 H 0.4467 0.9977 0.5937
Zn4 Zn 0.23715(2) 0.20384(4) 0.81958(3)
Zn6 Zn 0.62071(2) 0.79249(4) 0.70549(3)
O19 O 0.23514(7) 0.7304(3) 0.24885(18)
N2_2 N 0.08801(7) 0.3101(4) 0.6780(3)
C59_2 C 0.0080(3) 0.4226(17) 0.5956(9)
H41_2 H 0.0172 0.4745 0.6047
C61_2 C 0.0050(3) 0.2595(13) 0.5788(9)
H42_2 H 0.0111 0.2015 0.5766
C67_2 C 0.0413(2) 0.3233(11) 0.6307(9)
C68_2 C 0.0190(4) 0.3330(16) 0.6085(13)
C69_2 C 0.0748(2) 0.2569(11) 0.6288(8)
H48_2 H 0.0819 0.2174 0.6103
C70_2 C 0.0531(2) 0.2609(11) 0.6085(9)
H49_2 H 0.0453 0.2208 0.5780
C71_2 C 0.0780(2) 0.3752(11) 0.6870(9)
H50_2 H 0.0865 0.4208 0.7123
C72_2 C 0.0557(2) 0.3898(12) 0.6644(9)
H51_2 H 0.0500 0.4460 0.6717
H59_2 H 0.0070 0.5888 0.5906
Zn2_2 Zn 0.62071(2) 0.20751(4) 0.20549(3)
O2_2 O 0.66375(6) 0.1274(2) 0.21656(15)
O3_2 O 0.65651(7) 0.3342(2) 0.20190(15)
O4_2 O 0.63066(6) 0.0825(2) 0.21237(17)
O8_2 O 0.62415(7) 0.2807(2) 0.14372(16)
C4_2 C 0.64183(10) 0.3898(4) 0.1060(2)
C5_2 C 0.64149(9) 0.3308(3) 0.1550(2)
C7_2 C 0.65015(10) 0.0677(3) 0.2176(2)
C8_2 C 0.65989(11) 0.4468(4) 0.1125(3)
H2_2 H 0.6718 0.4478 0.1485
C27_2 C 0.66048(11) 0.5018(4) 0.0666(3)
H13_2 H 0.6727 0.5403 0.0719
C37_2 C 0.62491(12) 0.3872(5) 0.0519(3)
H20_2 H 0.6129 0.3476 0.0463
C42_2 C 0.64357(11) 0.5014(4) 0.0136(3)
C50_2 C 0.62556(12) 0.4419(5) 0.0065(3)
Zn9_2 Zn 0.67950(2) 0.24591(5) 0.26213(3)
O20_2 O 0.62510(7) 0.2741(3) 0.27675(17)
N5_2 N 0.58801(7) 0.1899(4) 0.1780(3)
Zn3_2 Zn 0.67950(2) 0.75409(5) 0.76213(3)
O7_2 O 0.66084(7) 0.7563(2) 0.81793(16)
O11_2 O 0.62510(7) 0.7259(3) 0.77675(17)
C11_2 C 0.64386(10) 0.6644(4) 0.8689(2)
C22_2 C 0.66328(11) 0.6364(4) 0.9104(3)
H9_2 H 0.6768 0.6536 0.9065
C23_2 C 0.64370(10) 0.7199(4) 0.8170(3)
C35_2 C 0.62417(11) 0.6395(4) 0.8750(3)
H18_2 H 0.6107 0.6581 0.8466
C43_2 C 0.64372(11) 0.5576(4) 0.9645(3)
C45_2 C 0.66343(11) 0.5834(4) 0.9578(3)
H23_2 H 0.6770 0.5646 0.9857
H28 H 0.6139 0.4398 0.9702
C53_2 C 0.62399(12) 0.5873(5) 0.9227(3)
H31_2 H 0.6105 0.5719 0.9269
O15_2 O 0.69525(6) 0.6339(2) 0.80862(16)
O16_2 O 0.66375(6) 0.8726(2) 0.71656(15)
O17_2 O 0.65651(7) 0.6658(2) 0.70190(15)
O18_2 O 0.70295(6) 0.8423(2) 0.82186(16)
O21_2 O 0.69909(7) 0.7464(3) 0.70791(17)
Zn1_2 Zn 0.73715(2) 0.29616(4) 0.31958(3)
Mn1_2 Mn 0.9280(2) 0.2814(9) 0.5039(4)
O1_2 O 0.69525(6) 0.3661(2) 0.30862(16)
O5_2 O 0.70295(6) 0.1577(2) 0.32186(16)
O6_2 O 0.73350(6) 0.2230(2) 0.38106(15)
O10_2 O 0.72585(6) 0.4188(2) 0.29987(19)
N1_2 N 0.76972(7) 0.3189(3) 0.3551(2)
O13_2 O 0.90684(8) 0.3725(4) 0.4916(3)
C1_2 C 0.69627(10) 0.5187(3) 0.2780(3)
C2_2 C 0.65755(10) 0.9707(3) 0.2255(3)
C3_2 C 0.67944(10) 0.9499(3) 0.2492(2)
H1_2 H 0.6899 0.9978 0.2597
C6_2 C 0.70632(10) 0.4271(3) 0.2956(3)
C9_2 C 0.70737(11) 0.5834(3) 0.2580(3)
H3_2 H 0.7209 0.5685 0.2539
C10_2 C 0.69874(10) 0.6701(4) 0.2438(3)
H4_2 H 0.7064 0.7140 0.2297
C13_2 C 0.67621(11) 0.5402(4) 0.2812(3)
H5_2 H 0.6682 0.4953 0.2931
C14_2 C 0.77987(10) 0.3934(4) 0.3427(3)
H6_2 H 0.7711 0.4392 0.3183
C16_2 C 0.73338(10) 0.1155(4) 0.4735(2)
H7_2 H 0.7438 0.1631 0.4806
C17_2 C 0.71800(9) 0.1653(3) 0.3698(2)
C18_2 C 0.71851(10) 0.1042(3) 0.4191(2)
C21_2 C 0.73355(11) 0.0589(4) 0.5189(3)
H8_2 H 0.7437 0.0690 0.5570
C25_2 C 0.68663(11) 0.8611(4) 0.2582(3)
H11_2 H 0.7018 0.8479 0.2753
C28_2 C 0.81518(10) 0.3388(4) 0.3980(3)
C30_2 C 0.80143(10) 0.4046(4) 0.3633(3)
H15_2 H 0.8076 0.4586 0.3542
C31_2 C 0.64924(11) 0.8102(4) 0.2168(3)
H16_2 H 0.6388 0.7625 0.2046
C32_2 C 0.64206(10) 0.9013(3) 0.2092(3)
H17_2 H 0.6269 0.9151 0.1932
C33_2 C 0.87241(11) 0.4458(5) 0.4571(3)
C34_2 C 0.67100(11) 0.7895(3) 0.2415(3)
C36_2 C 0.66746(11) 0.6277(4) 0.2670(3)
H19_2 H 0.6535 0.6417 0.2691
C38_2 C 0.67911(10) 0.6930(3) 0.2502(3)
C40_2 C 0.84990(11) 0.4320(5) 0.4333(3)
H22_2 H 0.8409 0.4845 0.4257
C41_2 C 0.88550(12) 0.3636(5) 0.4674(4)
C44_2 C 0.83927(11) 0.3471(5) 0.4194(3)
C46_2 C 0.88264(11) 0.5403(5) 0.4719(3)
C47_2 C 0.78277(10) 0.2561(4) 0.3904(3)
H24_2 H 0.7762 0.2041 0.4005
C48_2 C 0.86516(12) 0.6146(5) 0.4542(3)
H25_2 H 0.8721 0.6740 0.4661
H26_2 H 0.8544 0.6038 0.4732
H27_2 H 0.8578 0.6137 0.4117
C49_2 C 0.87500(12) 0.2761(5) 0.4507(4)
C52_2 C 0.85261(11) 0.2724(5) 0.4281(3)
H30_2 H 0.8459 0.2145 0.4178
C54_2 C 0.70369(12) 0.0325(4) 0.4085(3)
H32_2 H 0.6934 0.0233 0.3705
C55_2 C 0.80487(10) 0.2639(4) 0.4122(3)
H33_2 H 0.8134 0.2180 0.4372
O14_2 O 0.95139(17) 0.3731(8) 0.5226(6)
C56_2 C 0.89839(12) 0.5579(6) 0.4386(4)
H34_2 H 0.8904 0.5538 0.3966
H35_2 H 0.9101 0.5123 0.4498
H36_2 H 0.9048 0.6186 0.4482
C57_2 C 0.89470(13) 0.5480(6) 0.5381(3)
H37_2 H 0.9027 0.6056 0.5468
H38_2 H 0.9050 0.4974 0.5512
H39_2 H 0.8841 0.5458 0.5583
C58_2 C 0.88749(13) 0.1953(6) 0.4545(4)
H40_2 H 0.8792 0.1412 0.4426
C60_2 C 0.9859(3) 0.4388(16) 0.5719(9)
N3_2 N 0.94981(19) 0.1892(9) 0.5066(8)
C62_2 C 0.9724(3) 0.3610(13) 0.5475(9)
C63_2 C 0.9829(3) 0.2733(13) 0.5536(9)
C64_2 C 0.9702(2) 0.1976(11) 0.5213(9)
H43_2 H 0.9779 0.1504 0.5103
C65_2 C 0.9381(2) 0.1105(11) 0.4701(9)
H44_2 H 0.9331 0.1256 0.4281
H45_2 H 0.9476 0.0562 0.4774
C66_2 C 0.9190(5) 0.0948(17) 0.4897(12)
H46_2 H 0.9239 0.0773 0.5313
H47_2 H 0.9092 0.0470 0.4660
N4_2 N 0.9074(10) 0.190(3) 0.479(3)
C73_2 C 0.9756(2) 0.5338(11) 0.5753(11)
C74_2 C 0.9628(2) 0.5540(10) 0.5158(9)
H52_2 H 0.9723 0.5777 0.4956
H53_2 H 0.9517 0.5996 0.5148
H54_2 H 0.9556 0.4985 0.4963
C75_2 C 0.9597(2) 0.5347(10) 0.6132(9)
H55_2 H 0.9467 0.4977 0.5937
H56_2 H 0.9552 0.5972 0.6170
H57_2 H 0.9675 0.5097 0.6520
C76_2 C 0.9941(2) 0.6064(9) 0.6002(9)
H58_2 H 0.9888 0.6658 0.5829
H60_2 H 0.9981 0.6099 0.6426
O19_2 O 0.73514(7) 0.2304(3) 0.24885(18)
O9_2 O 0.73514(7) 0.7696(3) 0.74885(18)
C12_2 C 0.71679(10) 0.7768(4) 0.7074(3)
C15_2 C 0.71730(10) 0.8266(4) 0.6541(2)
C19_2 C 0.71884(11) 0.9872(4) 0.5089(3)
C20_2 C 0.71833(11) 0.9273(4) 0.5585(2)
C24_2 C 0.69819(11) 0.8427(4) 0.6082(3)
H10_2 H 0.6847 0.8188 0.6090
C26_2 C 0.73699(10) 0.8564(4) 0.6513(3)
H12_2 H 0.7502 0.8418 0.6818
C29_2 C 0.69854(11) 0.8937(4) 0.5607(3)
H14_2 H 0.6853 0.9059 0.5296
C39_2 C 0.73761(11) 0.9073(4) 0.6044(3)
H21_2 H 0.7512 0.9288 0.6034
C51_2 C 0.70402(13) 0.9748(5) 0.4533(3)
H29_2 H 0.6939 0.9258 0.4457
Zn4_2 Zn 0.73715(2) 0.70384(4) 0.81958(3)
Mn1_3 Mn 0.4280(2) 0.2186(9) 0.0039(4)
O12 O 0.19909(7) 0.7536(3) 0.20791(17)
C12_3 C 0.21679(10) 0.7232(4) 0.2074(3)
C15_3 C 0.21730(10) 0.6734(4) 0.1541(2)
C19_3 C 0.21884(11) 0.5128(4) 0.0089(3)
C20_3 C 0.21833(11) 0.5727(4) 0.0585(2)
C21_3 C 0.23355(11) 0.4411(4) 0.0189(3)
H8_3 H 0.2437 0.4310 0.0570
C24_3 C 0.19819(11) 0.6573(4) 0.1082(3)
H10_3 H 0.1847 0.6812 0.1090
C26_3 C 0.23699(10) 0.6436(4) 0.1513(3)
H12_3 H 0.2502 0.6582 0.1818
C29_3 C 0.19854(11) 0.6063(4) 0.0607(3)
H14_3 H 0.1853 0.5941 0.0296
C39_3 C 0.23761(11) 0.5927(4) 0.1044(3)
H21_3 H 0.2512 0.5712 0.1034
O14_3 O 0.45139(17) 0.1269(8) 0.0226(6)
H38_3 H 0.4050 0.0026 0.0512
C59_3 C 0.5080(3) 0.0774(17) 0.0956(9)
H41_3 H 0.5172 0.0255 0.1047
C60_3 C 0.4859(3) 0.0612(16) 0.0719(9)
C61_3 C 0.5050(3) 0.2405(13) 0.0788(9)
H42_3 H 0.5111 0.2985 0.0766
N3_3 N 0.44981(19) 0.3108(9) 0.0066(8)
C62_3 C 0.4724(3) 0.1390(13) 0.0475(9)
C63_3 C 0.4829(3) 0.2267(13) 0.0536(9)
C64_3 C 0.4702(2) 0.3024(11) 0.0213(9)
H43_3 H 0.4779 0.3496 0.0103
H46_3 H 0.4239 0.4227 0.0313
C67_3 C 0.5413(2) 0.1767(11) 0.1307(9)
C68_3 C 0.5190(4) 0.1670(16) 0.1085(13)
C69_3 C 0.5748(2) 0.2431(11) 0.1288(8)
H48_3 H 0.5819 0.2826 0.1103
C70_3 C 0.5531(2) 0.2391(11) 0.1085(9)
H49_3 H 0.5453 0.2792 0.0780
C71_3 C 0.5780(2) 0.1248(11) 0.1870(9)
H50_3 H 0.5865 0.0792 0.2123
C72_3 C 0.5557(2) 0.1102(12) 0.1644(9)
H51_3 H 0.5500 0.0540 0.1717
H55_3 H 0.4467 0.0023 0.0937
O6_3 O 0.23350(6) 0.2770(2) 0.88106(15)
O10_3 O 0.22585(6) 0.0812(2) 0.79987(19)
N1_3 N 0.26972(7) 0.1811(3) 0.8551(2)
O13_3 O 0.40684(8) 0.1275(4) 0.9916(3)
C6_3 C 0.20632(10) 0.0729(3) 0.7956(3)
H5_3 H 0.1682 0.0047 0.7931
C14_3 C 0.27987(10) 0.1066(4) 0.8427(3)
H6_3 H 0.2711 0.0608 0.8183
C16_3 C 0.23338(10) 0.3845(4) 0.9735(2)
H7_3 H 0.2438 0.3369 0.9806
C17_3 C 0.21800(9) 0.3347(3) 0.8698(2)
C18_3 C 0.21851(10) 0.3958(3) 0.9191(2)
C28_3 C 0.31518(10) 0.1612(4) 0.8980(3)
C30_3 C 0.30143(10) 0.0954(4) 0.8633(3)
H15_3 H 0.3076 0.0414 0.8542
C33_3 C 0.37241(11) 0.0542(5) 0.9571(3)
C40_3 C 0.34990(11) 0.0680(5) 0.9333(3)
H22_3 H 0.3409 0.0155 0.9257
C41_3 C 0.38550(12) 0.1364(5) 0.9674(4)
C44_3 C 0.33927(11) 0.1529(5) 0.9194(3)
C47_3 C 0.28277(10) 0.2439(4) 0.8904(3)
H24_3 H 0.2762 0.2959 0.9005
C49_3 C 0.37500(12) 0.2239(5) 0.9507(4)
C51_3 C 0.20402(13) 0.5252(5) 0.9533(3)
H29_3 H 0.1939 0.5742 0.9457
C52_3 C 0.35261(11) 0.2276(5) 0.9281(3)
H30_3 H 0.3459 0.2855 0.9178
C54_3 C 0.20369(12) 0.4675(4) 0.9085(3)
H32_3 H 0.1934 0.4767 0.8705
C55_3 C 0.30487(10) 0.2361(4) 0.9122(3)
H33_3 H 0.3134 0.2820 0.9372
C58_3 C 0.38749(13) 0.3047(6) 0.9545(4)
H40_3 H 0.3792 0.3588 0.9426
C65_3 C 0.4381(2) 0.3895(11) 0.9701(9)
H44_3 H 0.4331 0.3744 0.9281
H45_3 H 0.4476 0.4438 0.9774
C66_3 C 0.4190(5) 0.4052(17) 0.9897(12)
H47_3 H 0.4092 0.4530 0.9660
N4_3 N 0.4074(10) 0.310(3) 0.979(3)
H54_3 H 0.4556 0.0015 0.9963
O4_3 O 0.13066(6) 0.4175(2) 0.71237(17)
O8_3 O 0.12415(7) 0.2193(2) 0.64372(16)
C1_3 C 0.19627(10) 0.9813(3) 0.7780(3)
C2_3 C 0.15755(10) 0.5293(3) 0.7255(3)
C3_3 C 0.17944(10) 0.5501(3) 0.7492(2)
H1_3 H 0.1899 0.5022 0.7597
C4_3 C 0.14183(10) 0.1102(4) 0.6060(2)
C5_3 C 0.14149(9) 0.1692(3) 0.6550(2)
C7_3 C 0.15015(10) 0.4323(3) 0.7176(2)
C8_3 C 0.15989(11) 0.0532(4) 0.6125(3)
H2_3 H 0.1718 0.0522 0.6485
C9_3 C 0.20737(11) 0.9166(3) 0.7580(3)
H3_3 H 0.2209 0.9315 0.7539
C10_3 C 0.19874(10) 0.8299(4) 0.7438(3)
H4_3 H 0.2064 0.7860 0.7297
C13_3 C 0.17621(11) 0.9598(4) 0.7812(3)
C25_3 C 0.18663(11) 0.6389(4) 0.7582(3)
H11_3 H 0.2018 0.6521 0.7753
C31_3 C 0.14924(11) 0.6898(4) 0.7168(3)
H16_3 H 0.1388 0.7375 0.7046
C32_3 C 0.14206(10) 0.5987(3) 0.7092(3)
H17_3 H 0.1269 0.5849 0.6932
C34_3 C 0.17100(11) 0.7105(3) 0.7415(3)
C36_3 C 0.16746(11) 0.8723(4) 0.7670(3)
H19_3 H 0.1535 0.8583 0.7691
C37_3 C 0.12491(12) 0.1128(5) 0.5519(3)
H20_3 H 0.1129 0.1524 0.5463
C38_3 C 0.17911(10) 0.8070(3) 0.7502(3)
C46_3 C 0.38264(11) 0.9597(5) 0.9719(3)
C48_3 C 0.36516(12) 0.8854(5) 0.9542(3)
H25_3 H 0.3721 0.8260 0.9661
H26_3 H 0.3544 0.8962 0.9732
H27_3 H 0.3578 0.8863 0.9117
C50_3 C 0.12556(12) 0.0581(5) 0.5065(3)
H28_2 H 0.1139 0.0602 0.4702
C56_3 C 0.39839(12) 0.9421(6) 0.9386(4)
H34_3 H 0.3904 0.9462 0.8966
H35_3 H 0.4101 0.9877 0.9498
H36_3 H 0.4048 0.8814 0.9482
H52_3 H 0.4723 0.9223 0.9956
O7_3 O 0.16084(7) 0.7437(2) 0.31793(16)
C11_3 C 0.14386(10) 0.8356(4) 0.3689(2)
C22_3 C 0.16328(11) 0.8636(4) 0.4104(3)
H9_3 H 0.1768 0.8464 0.4065
C23_3 C 0.14370(10) 0.7801(4) 0.3170(3)
C27_3 C 0.16048(11) 0.9982(4) 0.5666(3)
H13_3 H 0.1727 0.9597 0.5719
C35_3 C 0.12417(11) 0.8605(4) 0.3750(3)
H18_3 H 0.1107 0.8419 0.3466
C42_3 C 0.14357(11) 0.9986(4) 0.5136(3)
C43_3 C 0.14372(11) 0.9424(4) 0.4645(3)
C45_3 C 0.16343(11) 0.9166(4) 0.4578(3)
H23_3 H 0.1770 0.9354 0.4857
C53_3 C 0.12399(12) 0.9127(5) 0.4227(3)
H31_3 H 0.1105 0.9281 0.4269
C59_4 C 0.0080(3) 0.5774(17) 0.0956(9)
H41_4 H 0.0172 0.5255 0.1047
C61_4 C 0.0050(3) 0.7405(13) 0.0788(9)
H42_4 H 0.0111 0.7985 0.0766
C67_4 C 0.0413(2) 0.6767(11) 0.1307(9)
C68_4 C 0.0190(4) 0.6670(16) 0.1085(13)
C69_4 C 0.0748(2) 0.7431(11) 0.1288(8)
H48_4 H 0.0819 0.7826 0.1103
C70_4 C 0.0531(2) 0.7391(11) 0.1085(9)
H49_4 H 0.0453 0.7792 0.0780
C71_4 C 0.0780(2) 0.6248(11) 0.1870(9)
H50_4 H 0.0865 0.5792 0.2123
C72_4 C 0.0557(2) 0.6102(12) 0.1644(9)
H51_4 H 0.0500 0.5540 0.1717
H59_3 H 0.0070 0.4112 0.0906
O12_2 O 0.69909(7) 0.2536(3) 0.20791(17)
C12_4 C 0.71679(10) 0.2232(4) 0.2074(3)
C15_4 C 0.71730(10) 0.1734(4) 0.1541(2)
C19_4 C 0.71884(11) 0.0128(4) 0.0089(3)
C20_4 C 0.71833(11) 0.0727(4) 0.0585(2)
C24_4 C 0.69819(11) 0.1573(4) 0.1082(3)
H10_4 H 0.6847 0.1812 0.1090
C26_4 C 0.73699(10) 0.1436(4) 0.1513(3)
H12_4 H 0.7502 0.1582 0.1818
C29_4 C 0.69854(11) 0.1063(4) 0.0607(3)
H14_4 H 0.6853 0.0941 0.0296
C39_4 C 0.73761(11) 0.0927(4) 0.1044(3)
H21_4 H 0.7512 0.0712 0.1034
O6_4 O 0.73350(6) 0.7770(2) 0.88106(15)
O10_4 O 0.72585(6) 0.5812(2) 0.79987(19)
N1_4 N 0.76972(7) 0.6811(3) 0.8551(2)
O13_4 O 0.90684(8) 0.6275(4) 0.9916(3)
C1_4 C 0.69627(10) 0.4813(3) 0.7780(3)
C2_4 C 0.65755(10) 0.0293(3) 0.7255(3)
C3_4 C 0.67944(10) 0.0501(3) 0.7492(2)
H1_4 H 0.6899 0.0022 0.7597
C6_4 C 0.70632(10) 0.5729(3) 0.7956(3)
C9_4 C 0.70737(11) 0.4166(3) 0.7580(3)
H3_4 H 0.7209 0.4315 0.7539
C10_4 C 0.69874(10) 0.3299(4) 0.7438(3)
H4_4 H 0.7064 0.2860 0.7297
C13_4 C 0.67621(11) 0.4598(4) 0.7812(3)
H5_4 H 0.6682 0.5047 0.7931
C14_4 C 0.77987(10) 0.6066(4) 0.8427(3)
H6_4 H 0.7711 0.5608 0.8183
C16_4 C 0.73338(10) 0.8845(4) 0.9735(2)
H7_4 H 0.7438 0.8369 0.9806
C17_4 C 0.71800(9) 0.8347(3) 0.8698(2)
C18_4 C 0.71851(10) 0.8958(3) 0.9191(2)
C25_4 C 0.68663(11) 0.1389(4) 0.7582(3)
H11_4 H 0.7018 0.1521 0.7753
C28_4 C 0.81518(10) 0.6612(4) 0.8980(3)
C30_4 C 0.80143(10) 0.5954(4) 0.8633(3)
H15_4 H 0.8076 0.5414 0.8542
C31_4 C 0.64924(11) 0.1898(4) 0.7168(3)
H16_4 H 0.6388 0.2375 0.7046
C32_4 C 0.64206(10) 0.0987(3) 0.7092(3)
H17_4 H 0.6269 0.0849 0.6932
C33_4 C 0.87241(11) 0.5542(5) 0.9571(3)
C34_4 C 0.67100(11) 0.2105(3) 0.7415(3)
C36_4 C 0.66746(11) 0.3723(4) 0.7670(3)
H19_4 H 0.6535 0.3583 0.7691
C38_4 C 0.67911(10) 0.3070(3) 0.7502(3)
C40_4 C 0.84990(11) 0.5680(5) 0.9333(3)
H22_4 H 0.8409 0.5155 0.9257
C41_4 C 0.88550(12) 0.6364(5) 0.9674(4)
C44_4 C 0.83927(11) 0.6529(5) 0.9194(3)
C46_4 C 0.88264(11) 0.4597(5) 0.9719(3)
C47_4 C 0.78277(10) 0.7439(4) 0.8904(3)
H24_4 H 0.7762 0.7959 0.9005
C48_4 C 0.86516(12) 0.3854(5) 0.9542(3)
H25_4 H 0.8721 0.3260 0.9661
H26_4 H 0.8544 0.3962 0.9732
H27_4 H 0.8578 0.3863 0.9117
C49_4 C 0.87500(12) 0.7239(5) 0.9507(4)
C52_4 C 0.85261(11) 0.7276(5) 0.9281(3)
H30_4 H 0.8459 0.7855 0.9178
C54_4 C 0.70369(12) 0.9675(4) 0.9085(3)
H32_4 H 0.6934 0.9767 0.8705
C55_4 C 0.80487(10) 0.7361(4) 0.9122(3)
H33_4 H 0.8134 0.7820 0.9372
C56_4 C 0.89839(12) 0.4421(6) 0.9386(4)
H34_4 H 0.8904 0.4462 0.8966
H35_4 H 0.9101 0.4877 0.9498
H36_4 H 0.9048 0.3814 0.9482
C58_4 C 0.88749(13) 0.8047(6) 0.9545(4)
H40_4 H 0.8792 0.8588 0.9426
C65_4 C 0.9381(2) 0.8895(11) 0.9701(9)
H44_4 H 0.9331 0.8744 0.9281
H45_4 H 0.9476 0.9438 0.9774
C66_4 C 0.9190(5) 0.9052(17) 0.9897(12)
H47_4 H 0.9092 0.9530 0.9660
N4_4 N 0.9074(10) 0.810(3) 0.979(3)
H52_4 H 0.9723 0.4223 0.9956
H54_4 H 0.9556 0.5015 0.9963
O4_4 O 0.63066(6) 0.9175(2) 0.71237(17)
O7_4 O 0.66084(7) 0.2437(2) 0.31793(16)
O8_4 O 0.62415(7) 0.7193(2) 0.64372(16)
C4_4 C 0.64183(10) 0.6102(4) 0.6060(2)
C5_4 C 0.64149(9) 0.6692(3) 0.6550(2)
C7_4 C 0.65015(10) 0.9323(3) 0.7176(2)
C8_4 C 0.65989(11) 0.5532(4) 0.6125(3)
H2_4 H 0.6718 0.5522 0.6485
C11_4 C 0.64386(10) 0.3356(4) 0.3689(2)
C22_4 C 0.66328(11) 0.3636(4) 0.4104(3)
H9_4 H 0.6768 0.3464 0.4065
C23_4 C 0.64370(10) 0.2801(4) 0.3170(3)
C27_4 C 0.66048(11) 0.4982(4) 0.5666(3)
H13_4 H 0.6727 0.4597 0.5719
C35_4 C 0.62417(11) 0.3605(4) 0.3750(3)
H18_4 H 0.6107 0.3419 0.3466
C37_4 C 0.62491(12) 0.6128(5) 0.5519(3)
H20_4 H 0.6129 0.6524 0.5463
C42_4 C 0.64357(11) 0.4986(4) 0.5136(3)
C43_4 C 0.64372(11) 0.4424(4) 0.4645(3)
C45_4 C 0.66343(11) 0.4166(4) 0.4578(3)
H23_4 H 0.6770 0.4354 0.4857
C50_4 C 0.62556(12) 0.5581(5) 0.5065(3)
H28_3 H 0.6139 0.5602 0.4702
C53_4 C 0.62399(12) 0.4127(5) 0.4227(3)
H31_4 H 0.6105 0.4281 0.4269
H28_4 H 0.1139 0.9398 0.9702
Zn3_3 Zn 0.82050(2) 0.25409(5) 0.73787(3)
O7_5 O 0.83916(7) 0.2563(2) 0.68207(16)
O11_3 O 0.87490(7) 0.2259(3) 0.72325(17)
C11_5 C 0.85614(10) 0.1644(4) 0.6311(2)
C22_5 C 0.83672(11) 0.1364(4) 0.5896(3)
H9_5 H 0.8232 0.1536 0.5935
C23_5 C 0.85630(10) 0.2199(4) 0.6830(3)
C27_5 C 0.83952(11) 0.0018(4) 0.4334(3)
H13_5 H 0.8273 0.0403 0.4281
C35_5 C 0.87583(11) 0.1395(4) 0.6250(3)
H18_5 H 0.8893 0.1581 0.6534
C42_5 C 0.85643(11) 0.0014(4) 0.4864(3)
C43_5 C 0.85628(11) 0.0576(4) 0.5355(3)
C45_5 C 0.83657(11) 0.0834(4) 0.5422(3)
H23_5 H 0.8230 0.0646 0.5143
C53_5 C 0.87601(12) 0.0873(5) 0.5773(3)
H31_5 H 0.8895 0.0719 0.5731
Zn5_2 Zn 0.87929(2) 0.29249(4) 0.79451(3)
O15_3 O 0.80475(6) 0.1339(2) 0.69138(16)
O16_3 O 0.83625(6) 0.3726(2) 0.78344(15)
O17_3 O 0.84349(7) 0.1658(2) 0.79810(15)
O18_3 O 0.79705(6) 0.3423(2) 0.67814(16)
O21_3 O 0.80091(7) 0.2464(3) 0.79209(17)
Zn2_3 Zn 0.87929(2) 0.70751(4) 0.29451(3)
O2_3 O 0.83625(6) 0.6274(2) 0.28344(15)
O3_3 O 0.84349(7) 0.8342(2) 0.29810(15)
O4_5 O 0.86934(6) 0.5825(2) 0.28763(17)
O8_5 O 0.87585(7) 0.7807(2) 0.35628(16)
C1_5 C 0.80373(10) 0.0187(3) 0.2220(3)
C2_5 C 0.84245(10) 0.4707(3) 0.2745(3)
C3_5 C 0.82056(10) 0.4499(3) 0.2508(2)
H1_5 H 0.8101 0.4978 0.2403
C4_5 C 0.85817(10) 0.8898(4) 0.3940(2)
C5_5 C 0.85851(9) 0.8308(3) 0.3450(2)
C7_5 C 0.84985(10) 0.5677(3) 0.2824(2)
C8_5 C 0.84011(11) 0.9468(4) 0.3875(3)
H2_5 H 0.8282 0.9478 0.3515
C9_5 C 0.79263(11) 0.0834(3) 0.2420(3)
H3_5 H 0.7791 0.0685 0.2461
C10_5 C 0.80126(10) 0.1701(4) 0.2562(3)
H4_5 H 0.7936 0.2140 0.2703
C13_5 C 0.82379(11) 0.0402(4) 0.2188(3)
C25_5 C 0.81337(11) 0.3611(4) 0.2418(3)
H11_5 H 0.7982 0.3479 0.2247
C31_5 C 0.85076(11) 0.3102(4) 0.2832(3)
H16_5 H 0.8612 0.2625 0.2954
C32_5 C 0.85794(10) 0.4013(3) 0.2908(3)
H17_5 H 0.8731 0.4151 0.3068
C34_5 C 0.82900(11) 0.2895(3) 0.2585(3)
C36_5 C 0.83254(11) 0.1277(4) 0.2330(3)
H19_5 H 0.8465 0.1417 0.2309
C37_5 C 0.87509(12) 0.8872(5) 0.4481(3)
H20_5 H 0.8871 0.8476 0.4537
C38_5 C 0.82089(10) 0.1930(3) 0.2498(3)
C46_5 C 0.61736(11) 0.0403(5) 0.0281(3)
C48_5 C 0.63484(12) 0.1146(5) 0.0458(3)
H25_5 H 0.6279 0.1740 0.0339
H26_5 H 0.6456 0.1038 0.0268
H27_5 H 0.6422 0.1137 0.0883
C50_5 C 0.87444(12) 0.9419(5) 0.4935(3)
H28_5 H 0.8861 0.9398 0.5298
C56_5 C 0.60161(12) 0.0579(6) 0.0614(4)
H34_5 H 0.6096 0.0538 0.1034
H35_5 H 0.5899 0.0123 0.0502
H36_5 H 0.5952 0.1186 0.0518
H52_5 H 0.5277 0.0777 0.0044
Zn9_3 Zn 0.82050(2) 0.74591(5) 0.23787(3)
O20_3 O 0.87490(7) 0.7741(3) 0.22325(17)
N5_3 N 0.91199(7) 0.6899(4) 0.3220(3)
Zn1_3 Zn 0.76285(2) 0.79616(4) 0.18042(3)
O1_3 O 0.80475(6) 0.8661(2) 0.19138(16)
O5_3 O 0.79705(6) 0.6577(2) 0.17814(16)
O6_5 O 0.76650(6) 0.7230(2) 0.11894(15)
O10_5 O 0.77415(6) 0.9188(2) 0.20013(19)
N1_5 N 0.73028(7) 0.8189(3) 0.1449(2)
O13_5 O 0.59316(8) 0.8725(4) 0.0084(3)
C6_5 C 0.79368(10) 0.9271(3) 0.2044(3)
H5_5 H 0.8318 0.9953 0.2069
C14_5 C 0.72013(10) 0.8934(4) 0.1573(3)
H6_5 H 0.7289 0.9392 0.1817
C16_5 C 0.76662(10) 0.6155(4) 0.0265(2)
H7_5 H 0.7562 0.6631 0.0194
C17_5 C 0.78200(9) 0.6653(3) 0.1302(2)
C18_5 C 0.78149(10) 0.6042(3) 0.0809(2)
C28_5 C 0.68482(10) 0.8388(4) 0.1020(3)
C30_5 C 0.69857(10) 0.9046(4) 0.1367(3)
H15_5 H 0.6924 0.9586 0.1458
C33_5 C 0.62759(11) 0.9458(5) 0.0429(3)
C40_5 C 0.65010(11) 0.9320(5) 0.0667(3)
H22_5 H 0.6591 0.9845 0.0743
C41_5 C 0.61450(12) 0.8636(5) 0.0326(4)
C44_5 C 0.66073(11) 0.8471(5) 0.0806(3)
C47_5 C 0.71723(10) 0.7561(4) 0.1096(3)
H24_5 H 0.7238 0.7041 0.0995
C49_5 C 0.62500(12) 0.7761(5) 0.0493(4)
C51_4 C 0.79598(13) 0.4748(5) 0.0467(3)
H29_4 H 0.8061 0.4258 0.0543
C52_5 C 0.64739(11) 0.7724(5) 0.0719(3)
H30_5 H 0.6541 0.7145 0.0822
C54_5 C 0.79631(12) 0.5325(4) 0.0915(3)
H32_5 H 0.8066 0.5233 0.1295
C55_5 C 0.69513(10) 0.7639(4) 0.0878(3)
H33_5 H 0.6866 0.7180 0.0628
C58_5 C 0.61251(13) 0.6953(6) 0.0455(4)
H40_5 H 0.6208 0.6412 0.0574
C65_5 C 0.5619(2) 0.6105(11) 0.0299(9)
H44_5 H 0.5669 0.6256 0.0719
H45_5 H 0.5524 0.5562 0.0226
C66_5 C 0.5810(5) 0.5948(17) 0.0103(12)
H47_5 H 0.5908 0.5470 0.0340
N4_5 N 0.5926(10) 0.690(3) 0.021(3)
H54_5 H 0.5444 0.9985 0.0037
O19_3 O 0.76486(7) 0.7304(3) 0.25115(18)
Mn1_4 Mn 0.5720(2) 0.7814(9) 0.9961(4)
O9_3 O 0.76486(7) 0.2696(3) 0.75115(18)
C12_5 C 0.78321(10) 0.2768(4) 0.7926(3)
C15_5 C 0.78270(10) 0.3266(4) 0.8459(2)
C19_5 C 0.78116(11) 0.4872(4) 0.9911(3)
C20_5 C 0.78167(11) 0.4273(4) 0.9415(2)
C21_4 C 0.76645(11) 0.5589(4) 0.9811(3)
H8_4 H 0.7563 0.5690 0.9430
C24_5 C 0.80181(11) 0.3427(4) 0.8918(3)
H10_5 H 0.8153 0.3188 0.8910
C26_5 C 0.76301(10) 0.3564(4) 0.8487(3)
H12_5 H 0.7498 0.3418 0.8182
C29_5 C 0.80146(11) 0.3937(4) 0.9393(3)
H14_5 H 0.8147 0.4059 0.9704
C39_5 C 0.76239(11) 0.4073(4) 0.8956(3)
H21_5 H 0.7488 0.4288 0.8966
O14_4 O 0.54861(17) 0.8731(8) 0.9774(6)
H38_4 H 0.5950 0.9974 0.9488
N2_3 N 0.41199(7) 0.8101(4) 0.8220(3)
C59_5 C 0.4920(3) 0.9226(17) 0.9044(9)
H41_5 H 0.4828 0.9745 0.8953
C60_4 C 0.5141(3) 0.9388(16) 0.9281(9)
C61_5 C 0.4950(3) 0.7595(13) 0.9212(9)
H42_5 H 0.4889 0.7015 0.9234
N3_4 N 0.55019(19) 0.6892(9) 0.9934(8)
C62_4 C 0.5276(3) 0.8610(13) 0.9525(9)
C63_4 C 0.5171(3) 0.7733(13) 0.9464(9)
C64_4 C 0.5298(2) 0.6976(11) 0.9787(9)
H43_4 H 0.5221 0.6504 0.9897
H46_4 H 0.5761 0.5773 0.9687
C67_5 C 0.4587(2) 0.8233(11) 0.8693(9)
C68_5 C 0.4810(4) 0.8330(16) 0.8915(13)
C69_5 C 0.4252(2) 0.7569(11) 0.8712(8)
H48_5 H 0.4181 0.7174 0.8897
C70_5 C 0.4469(2) 0.7609(11) 0.8915(9)
H49_5 H 0.4547 0.7208 0.9220
C71_5 C 0.4220(2) 0.8752(11) 0.8130(9)
H50_5 H 0.4135 0.9208 0.7877
C72_5 C 0.4443(2) 0.8898(12) 0.8356(9)
H51_5 H 0.4500 0.9460 0.8283
H55_4 H 0.5533 0.9977 0.9063
Zn4_3 Zn 0.76285(2) 0.20384(4) 0.68042(3)
Zn6_2 Zn 0.37929(2) 0.79249(4) 0.79451(3)
Zn2_4 Zn 0.37929(2) 0.20751(4) 0.29451(3)
Zn3_4 Zn 0.32050(2) 0.75409(5) 0.73787(3)
O2_4 O 0.33625(6) 0.1274(2) 0.28344(15)
O3_4 O 0.34349(7) 0.3342(2) 0.29810(15)
O4_6 O 0.36934(6) 0.0825(2) 0.28763(17)
O7_6 O 0.33916(7) 0.7563(2) 0.68207(16)
O8_6 O 0.37585(7) 0.2807(2) 0.35628(16)
O11_4 O 0.37490(7) 0.7259(3) 0.72325(17)
C4_6 C 0.35817(10) 0.3898(4) 0.3940(2)
C5_6 C 0.35851(9) 0.3308(3) 0.3450(2)
C7_6 C 0.34985(10) 0.0677(3) 0.2824(2)
C8_6 C 0.34011(11) 0.4468(4) 0.3875(3)
H2_6 H 0.3282 0.4478 0.3515
C11_6 C 0.35614(10) 0.6644(4) 0.6311(2)
C22_6 C 0.33672(11) 0.6364(4) 0.5896(3)
H9_6 H 0.3232 0.6536 0.5935
C23_6 C 0.35630(10) 0.7199(4) 0.6830(3)
C27_6 C 0.33952(11) 0.5018(4) 0.4334(3)
H13_6 H 0.3273 0.5403 0.4281
C35_6 C 0.37583(11) 0.6395(4) 0.6250(3)
H18_6 H 0.3893 0.6581 0.6534
C37_6 C 0.37509(12) 0.3872(5) 0.4481(3)
H20_6 H 0.3871 0.3476 0.4537
C42_6 C 0.35643(11) 0.5014(4) 0.4864(3)
C43_6 C 0.35628(11) 0.5576(4) 0.5355(3)
C45_6 C 0.33657(11) 0.5834(4) 0.5422(3)
H23_6 H 0.3230 0.5646 0.5143
C50_6 C 0.37444(12) 0.4419(5) 0.4935(3)
H28_6 H 0.3861 0.4398 0.5298
C53_6 C 0.37601(12) 0.5873(5) 0.5773(3)
H31_6 H 0.3895 0.5719 0.5731
Zn9_4 Zn 0.32050(2) 0.24591(5) 0.23787(3)
O15_4 O 0.30475(6) 0.6339(2) 0.69138(16)
O16_4 O 0.33625(6) 0.8726(2) 0.78344(15)
O17_4 O 0.34349(7) 0.6658(2) 0.79810(15)
O18_4 O 0.29705(6) 0.8423(2) 0.67814(16)
O20_4 O 0.37490(7) 0.2741(3) 0.22325(17)
O21_4 O 0.30091(7) 0.7464(3) 0.79209(17)
N5_4 N 0.41199(7) 0.1899(4) 0.3220(3)
Zn1_4 Zn 0.26285(2) 0.29616(4) 0.18042(3)
O1_4 O 0.30475(6) 0.3661(2) 0.19138(16)
O5_4 O 0.29705(6) 0.1577(2) 0.17814(16)
O6_6 O 0.26650(6) 0.2230(2) 0.11894(15)
O10_6 O 0.27415(6) 0.4188(2) 0.20013(19)
N1_6 N 0.23028(7) 0.3189(3) 0.1449(2)
O13_6 O 0.09316(8) 0.3725(4) 0.0084(3)
C1_6 C 0.30373(10) 0.5187(3) 0.2220(3)
C2_6 C 0.34245(10) 0.9707(3) 0.2745(3)
C3_6 C 0.32056(10) 0.9499(3) 0.2508(2)
H1_6 H 0.3101 0.9978 0.2403
C6_6 C 0.29368(10) 0.4271(3) 0.2044(3)
C9_6 C 0.29263(11) 0.5834(3) 0.2420(3)
H3_6 H 0.2791 0.5685 0.2461
C10_6 C 0.30126(10) 0.6701(4) 0.2562(3)
H4_6 H 0.2936 0.7140 0.2703
C13_6 C 0.32379(11) 0.5402(4) 0.2188(3)
H5_6 H 0.3318 0.4953 0.2069
C14_6 C 0.22013(10) 0.3934(4) 0.1573(3)
H6_6 H 0.2289 0.4392 0.1817
C16_6 C 0.26662(10) 0.1155(4) 0.0265(2)
H7_6 H 0.2562 0.1631 0.0194
C17_6 C 0.28200(9) 0.1653(3) 0.1302(2)
C18_6 C 0.28149(10) 0.1042(3) 0.0809(2)
C25_6 C 0.31337(11) 0.8611(4) 0.2418(3)
H11_6 H 0.2982 0.8479 0.2247
C28_6 C 0.18482(10) 0.3388(4) 0.1020(3)
C30_6 C 0.19857(10) 0.4046(4) 0.1367(3)
H15_6 H 0.1924 0.4586 0.1458
C31_6 C 0.35076(11) 0.8102(4) 0.2832(3)
H16_6 H 0.3612 0.7625 0.2954
C32_6 C 0.35794(10) 0.9013(3) 0.2908(3)
H17_6 H 0.3731 0.9151 0.3068
C33_6 C 0.12759(11) 0.4458(5) 0.0429(3)
C34_6 C 0.32900(11) 0.7895(3) 0.2585(3)
C36_6 C 0.33254(11) 0.6277(4) 0.2330(3)
H19_6 H 0.3465 0.6417 0.2309
C38_6 C 0.32089(10) 0.6930(3) 0.2498(3)
C40_6 C 0.15010(11) 0.4320(5) 0.0667(3)
H22_6 H 0.1591 0.4845 0.0743
C41_6 C 0.11450(12) 0.3636(5) 0.0326(4)
C44_6 C 0.16073(11) 0.3471(5) 0.0806(3)
C46_6 C 0.11736(11) 0.5403(5) 0.0281(3)
C47_6 C 0.21723(10) 0.2561(4) 0.1096(3)
H24_6 H 0.2238 0.2041 0.0995
C48_6 C 0.13484(12) 0.6146(5) 0.0458(3)
H25_6 H 0.1279 0.6740 0.0339
H26_6 H 0.1456 0.6038 0.0268
H27_6 H 0.1422 0.6137 0.0883
C49_6 C 0.12500(12) 0.2761(5) 0.0493(4)
C52_6 C 0.14739(11) 0.2724(5) 0.0719(3)
H30_6 H 0.1541 0.2145 0.0822
C54_6 C 0.29631(12) 0.0325(4) 0.0915(3)
H32_6 H 0.3066 0.0233 0.1295
C55_6 C 0.19513(10) 0.2639(4) 0.0878(3)
H33_6 H 0.1866 0.2180 0.0628
C56_6 C 0.10161(12) 0.5579(6) 0.0614(4)
H34_6 H 0.1096 0.5538 0.1034
H35_6 H 0.0899 0.5123 0.0502
H36_6 H 0.0952 0.6186 0.0518
C58_6 C 0.11251(13) 0.1953(6) 0.0455(4)
H40_6 H 0.1208 0.1412 0.0574
C65_6 C 0.0619(2) 0.1105(11) 0.0299(9)
H44_6 H 0.0669 0.1256 0.0719
H45_6 H 0.0524 0.0562 0.0226
C66_6 C 0.0810(5) 0.0948(17) 0.0103(12)
H47_6 H 0.0908 0.0470 0.0340
N4_6 N 0.0926(10) 0.190(3) 0.021(3)
H52_6 H 0.0277 0.5777 0.0044
H54_6 H 0.0444 0.4985 0.0037
O19_4 O 0.26486(7) 0.2304(3) 0.25115(18)
O9_4 O 0.26486(7) 0.7696(3) 0.75115(18)
C12_6 C 0.28321(10) 0.7768(4) 0.7926(3)
C15_6 C 0.28270(10) 0.8266(4) 0.8459(2)
C19_6 C 0.28116(11) 0.9872(4) 0.9911(3)
C20_6 C 0.28167(11) 0.9273(4) 0.9415(2)
C24_6 C 0.30181(11) 0.8427(4) 0.8918(3)
H10_6 H 0.3153 0.8188 0.8910
C26_6 C 0.26301(10) 0.8564(4) 0.8487(3)
H12_6 H 0.2498 0.8418 0.8182
C29_6 C 0.30146(11) 0.8937(4) 0.9393(3)
H14_6 H 0.3147 0.9059 0.9704
C39_6 C 0.26239(11) 0.9073(4) 0.8956(3)
H21_6 H 0.2488 0.9288 0.8966
Zn4_4 Zn 0.26285(2) 0.70384(4) 0.68042(3)
N2_4 N 0.91199(7) 0.3101(4) 0.8220(3)
C59_6 C 0.9920(3) 0.4226(17) 0.9044(9)
H41_6 H 0.9828 0.4745 0.8953
C61_6 C 0.9950(3) 0.2595(13) 0.9212(9)
H42_6 H 0.9889 0.2015 0.9234
C67_6 C 0.9587(2) 0.3233(11) 0.8693(9)
C68_6 C 0.9810(4) 0.3330(16) 0.8915(13)
C69_6 C 0.9252(2) 0.2569(11) 0.8712(8)
H48_6 H 0.9181 0.2174 0.8897
C70_6 C 0.9469(2) 0.2609(11) 0.8915(9)
H49_6 H 0.9547 0.2208 0.9220
C71_6 C 0.9220(2) 0.3752(11) 0.8130(9)
H50_6 H 0.9135 0.4208 0.7877
C72_6 C 0.9443(2) 0.3898(12) 0.8356(9)
H51_6 H 0.9500 0.4460 0.8283
H59_4 H 0.9930 0.5888 0.9094
Mn1_5 Mn 0.5720(2) 0.2186(9) 0.4961(4)
O6_7 O 0.76650(6) 0.2770(2) 0.61894(15)
O10_7 O 0.77415(6) 0.0812(2) 0.70013(19)
O12_3 O 0.80091(7) 0.7536(3) 0.29209(17)
N1_7 N 0.73028(7) 0.1811(3) 0.6449(2)
O13_7 O 0.59316(8) 0.1275(4) 0.5084(3)
C6_7 C 0.79368(10) 0.0729(3) 0.7044(3)
C12_7 C 0.78321(10) 0.7232(4) 0.2926(3)
H5_7 H 0.8318 0.0047 0.7069
C14_7 C 0.72013(10) 0.1066(4) 0.6573(3)
H6_7 H 0.7289 0.0608 0.6817
C15_7 C 0.78270(10) 0.6734(4) 0.3459(2)
C16_7 C 0.76662(10) 0.3845(4) 0.5265(2)
H7_7 H 0.7562 0.3369 0.5194
C17_7 C 0.78200(9) 0.3347(3) 0.6302(2)
C18_7 C 0.78149(10) 0.3958(3) 0.5809(2)
C19_7 C 0.78116(11) 0.5128(4) 0.4911(3)
C20_7 C 0.78167(11) 0.5727(4) 0.4415(2)
C21_5 C 0.76645(11) 0.4411(4) 0.4811(3)
H8_5 H 0.7563 0.4310 0.4430
C24_7 C 0.80181(11) 0.6573(4) 0.3918(3)
H10_7 H 0.8153 0.6812 0.3910
C26_7 C 0.76301(10) 0.6436(4) 0.3487(3)
H12_7 H 0.7498 0.6582 0.3182
C28_7 C 0.68482(10) 0.1612(4) 0.6020(3)
C29_7 C 0.80146(11) 0.6063(4) 0.4393(3)
H14_7 H 0.8147 0.5941 0.4704
C30_7 C 0.69857(10) 0.0954(4) 0.6367(3)
H15_7 H 0.6924 0.0414 0.6458
C33_7 C 0.62759(11) 0.0542(5) 0.5429(3)
C39_7 C 0.76239(11) 0.5927(4) 0.3956(3)
H21_7 H 0.7488 0.5712 0.3966
C40_7 C 0.65010(11) 0.0680(5) 0.5667(3)
H22_7 H 0.6591 0.0155 0.5743
C41_7 C 0.61450(12) 0.1364(5) 0.5326(4)
C44_7 C 0.66073(11) 0.1529(5) 0.5806(3)
C47_7 C 0.71723(10) 0.2439(4) 0.6096(3)
H24_7 H 0.7238 0.2959 0.5995
C49_7 C 0.62500(12) 0.2239(5) 0.5493(4)
C51_5 C 0.79598(13) 0.5252(5) 0.5467(3)
H29_5 H 0.8061 0.5742 0.5543
C52_7 C 0.64739(11) 0.2276(5) 0.5719(3)
H30_7 H 0.6541 0.2855 0.5822
C54_7 C 0.79631(12) 0.4675(4) 0.5915(3)
H32_7 H 0.8066 0.4767 0.6295
C55_7 C 0.69513(10) 0.2361(4) 0.5878(3)
H33_7 H 0.6866 0.2820 0.5628
O14_5 O 0.54861(17) 0.1269(8) 0.4774(6)
H38_5 H 0.5950 0.0026 0.4488
C58_7 C 0.61251(13) 0.3047(6) 0.5455(4)
H40_7 H 0.6208 0.3588 0.5574
C59_7 C 0.4920(3) 0.0774(17) 0.4044(9)
H41_7 H 0.4828 0.0255 0.3953
C60_5 C 0.5141(3) 0.0612(16) 0.4281(9)
C61_7 C 0.4950(3) 0.2405(13) 0.4212(9)
H42_7 H 0.4889 0.2985 0.4234
N3_5 N 0.55019(19) 0.3108(9) 0.4934(8)
C62_5 C 0.5276(3) 0.1390(13) 0.4525(9)
C63_5 C 0.5171(3) 0.2267(13) 0.4464(9)
C64_5 C 0.5298(2) 0.3024(11) 0.4787(9)
H43_5 H 0.5221 0.3496 0.4897
C65_7 C 0.5619(2) 0.3895(11) 0.5299(9)
H44_7 H 0.5669 0.3744 0.5719
H45_7 H 0.5524 0.4438 0.5226
C66_7 C 0.5810(5) 0.4052(17) 0.5103(12)
H46_5 H 0.5761 0.4227 0.4687
H47_7 H 0.5908 0.4530 0.5340
N4_7 N 0.5926(10) 0.310(3) 0.521(3)
C67_7 C 0.4587(2) 0.1767(11) 0.3693(9)
C68_7 C 0.4810(4) 0.1670(16) 0.3915(13)
C69_7 C 0.4252(2) 0.2431(11) 0.3712(8)
H48_7 H 0.4181 0.2826 0.3897
C70_7 C 0.4469(2) 0.2391(11) 0.3915(9)
H49_7 H 0.4547 0.2792 0.4220
C71_7 C 0.4220(2) 0.1248(11) 0.3130(9)
H50_7 H 0.4135 0.0792 0.2877
C72_7 C 0.4443(2) 0.1102(12) 0.3356(9)
H51_7 H 0.4500 0.0540 0.3283
H54_7 H 0.5444 0.0015 0.5037
H55_5 H 0.5533 0.0023 0.4063
O4_7 O 0.86934(6) 0.4175(2) 0.78763(17)
O8_7 O 0.87585(7) 0.2193(2) 0.85628(16)
C1_7 C 0.80373(10) 0.9813(3) 0.7220(3)
C2_7 C 0.84245(10) 0.5293(3) 0.7745(3)
C3_7 C 0.82056(10) 0.5501(3) 0.7508(2)
H1_7 H 0.8101 0.5022 0.7403
C4_7 C 0.85817(10) 0.1102(4) 0.8940(2)
C5_7 C 0.85851(9) 0.1692(3) 0.8450(2)
C7_7 C 0.84985(10) 0.4323(3) 0.7824(2)
C8_7 C 0.84011(11) 0.0532(4) 0.8875(3)
H2_7 H 0.8282 0.0522 0.8515
C9_7 C 0.79263(11) 0.9166(3) 0.7420(3)
H3_7 H 0.7791 0.9315 0.7461
C10_7 C 0.80126(10) 0.8299(4) 0.7562(3)
H4_7 H 0.7936 0.7860 0.7703
C13_7 C 0.82379(11) 0.9598(4) 0.7188(3)
C25_7 C 0.81337(11) 0.6389(4) 0.7418(3)
H11_7 H 0.7982 0.6521 0.7247
C31_7 C 0.85076(11) 0.6898(4) 0.7832(3)
H16_7 H 0.8612 0.7375 0.7954
C32_7 C 0.85794(10) 0.5987(3) 0.7908(3)
H17_7 H 0.8731 0.5849 0.8068
C34_7 C 0.82900(11) 0.7105(3) 0.7585(3)
C36_7 C 0.83254(11) 0.8723(4) 0.7330(3)
H19_7 H 0.8465 0.8583 0.7309
C37_7 C 0.87509(12) 0.1128(5) 0.9481(3)
H20_7 H 0.8871 0.1524 0.9537
C38_7 C 0.82089(10) 0.8070(3) 0.7498(3)
C46_7 C 0.61736(11) 0.9597(5) 0.5281(3)
C48_7 C 0.63484(12) 0.8854(5) 0.5458(3)
H25_7 H 0.6279 0.8260 0.5339
H26_7 H 0.6456 0.8962 0.5268
H27_7 H 0.6422 0.8863 0.5883
C50_7 C 0.87444(12) 0.0581(5) 0.9935(3)
C56_7 C 0.60161(12) 0.9421(6) 0.5614(4)
H34_7 H 0.6096 0.9462 0.6034
H35_7 H 0.5899 0.9877 0.5502
H36_7 H 0.5952 0.8814 0.5518
C57_3 C 0.60530(13) 0.9520(6) 0.4619(3)
H37_3 H 0.5973 0.8944 0.4532
H39_3 H 0.6159 0.9542 0.4417
C73_3 C 0.5244(2) 0.9662(11) 0.4247(11)
C74_3 C 0.5372(2) 0.9460(10) 0.4842(9)
H52_7 H 0.5277 0.9223 0.5044
H53_3 H 0.5483 0.9004 0.4852
C75_3 C 0.5403(2) 0.9653(10) 0.3868(9)
H56_3 H 0.5448 0.9028 0.3830
H57_3 H 0.5325 0.9903 0.3480
C76_3 C 0.5059(2) 0.8936(9) 0.3998(9)
H58_3 H 0.5112 0.8342 0.4171
H59_5 H 0.4930 0.9112 0.4094
H60_3 H 0.5019 0.8901 0.3574
O7_7 O 0.83916(7) 0.7437(2) 0.18207(16)
C11_7 C 0.85614(10) 0.8356(4) 0.1311(2)
C22_7 C 0.83672(11) 0.8636(4) 0.0896(3)
H9_7 H 0.8232 0.8464 0.0935
C23_7 C 0.85630(10) 0.7801(4) 0.1830(3)
C35_7 C 0.87583(11) 0.8605(4) 0.1250(3)
H18_7 H 0.8893 0.8419 0.1534
C43_7 C 0.85628(11) 0.9424(4) 0.0355(3)
C45_7 C 0.83657(11) 0.9166(4) 0.0422(3)
H23_7 H 0.8230 0.9354 0.0143
C53_7 C 0.87601(12) 0.9127(5) 0.0773(3)
H31_7 H 0.8895 0.9281 0.0731
O12_4 O 0.30091(7) 0.2536(3) 0.29209(17)
C12_8 C 0.28321(10) 0.2232(4) 0.2926(3)
C15_8 C 0.28270(10) 0.1734(4) 0.3459(2)
C19_8 C 0.28116(11) 0.0128(4) 0.4911(3)
C20_8 C 0.28167(11) 0.0727(4) 0.4415(2)
C24_8 C 0.30181(11) 0.1573(4) 0.3918(3)
H10_8 H 0.3153 0.1812 0.3910
C26_8 C 0.26301(10) 0.1436(4) 0.3487(3)
H12_8 H 0.2498 0.1582 0.3182
C29_8 C 0.30146(11) 0.1063(4) 0.4393(3)
H14_8 H 0.3147 0.0941 0.4704
C39_8 C 0.26239(11) 0.0927(4) 0.3956(3)
H21_8 H 0.2488 0.0712 0.3966
C51_6 C 0.29598(13) 0.0252(5) 0.5467(3)
H29_6 H 0.3061 0.0742 0.5543
Mn1_6 Mn 0.0720(2) 0.7186(9) 0.4961(4)
O6_8 O 0.26650(6) 0.7770(2) 0.61894(15)
O10_8 O 0.27415(6) 0.5812(2) 0.70013(19)
N1_8 N 0.23028(7) 0.6811(3) 0.6449(2)
O13_8 O 0.09316(8) 0.6275(4) 0.5084(3)
C1_8 C 0.30373(10) 0.4813(3) 0.7220(3)
C2_8 C 0.34245(10) 0.0293(3) 0.7745(3)
C3_8 C 0.32056(10) 0.0501(3) 0.7508(2)
H1_8 H 0.3101 0.0022 0.7403
C6_8 C 0.29368(10) 0.5729(3) 0.7044(3)
C9_8 C 0.29263(11) 0.4166(3) 0.7420(3)
H3_8 H 0.2791 0.4315 0.7461
C10_8 C 0.30126(10) 0.3299(4) 0.7562(3)
H4_8 H 0.2936 0.2860 0.7703
C13_8 C 0.32379(11) 0.4598(4) 0.7188(3)
H5_8 H 0.3318 0.5047 0.7069
C14_8 C 0.22013(10) 0.6066(4) 0.6573(3)
H6_8 H 0.2289 0.5608 0.6817
C16_8 C 0.26662(10) 0.8845(4) 0.5265(2)
H7_8 H 0.2562 0.8369 0.5194
C17_8 C 0.28200(9) 0.8347(3) 0.6302(2)
C18_8 C 0.28149(10) 0.8958(3) 0.5809(2)
C21_6 C 0.26645(11) 0.9411(4) 0.4811(3)
H8_6 H 0.2563 0.9310 0.4430
C25_8 C 0.31337(11) 0.1389(4) 0.7418(3)
H11_8 H 0.2982 0.1521 0.7247
C28_8 C 0.18482(10) 0.6612(4) 0.6020(3)
C30_8 C 0.19857(10) 0.5954(4) 0.6367(3)
H15_8 H 0.1924 0.5414 0.6458
C31_8 C 0.35076(11) 0.1898(4) 0.7832(3)
H16_8 H 0.3612 0.2375 0.7954
C32_8 C 0.35794(10) 0.0987(3) 0.7908(3)
H17_8 H 0.3731 0.0849 0.8068
C33_8 C 0.12759(11) 0.5542(5) 0.5429(3)
C34_8 C 0.32900(11) 0.2105(3) 0.7585(3)
C36_8 C 0.33254(11) 0.3723(4) 0.7330(3)
H19_8 H 0.3465 0.3583 0.7309
C38_8 C 0.32089(10) 0.3070(3) 0.7498(3)
C40_8 C 0.15010(11) 0.5680(5) 0.5667(3)
H22_8 H 0.1591 0.5155 0.5743
C41_8 C 0.11450(12) 0.6364(5) 0.5326(4)
C44_8 C 0.16073(11) 0.6529(5) 0.5806(3)
C46_8 C 0.11736(11) 0.4597(5) 0.5281(3)
C47_8 C 0.21723(10) 0.7439(4) 0.6096(3)
H24_8 H 0.2238 0.7959 0.5995
C48_8 C 0.13484(12) 0.3854(5) 0.5458(3)
H25_8 H 0.1279 0.3260 0.5339
H26_8 H 0.1456 0.3962 0.5268
H27_8 H 0.1422 0.3863 0.5883
C49_8 C 0.12500(12) 0.7239(5) 0.5493(4)
C52_8 C 0.14739(11) 0.7276(5) 0.5719(3)
H30_8 H 0.1541 0.7855 0.5822
C54_8 C 0.29631(12) 0.9675(4) 0.5915(3)
H32_8 H 0.3066 0.9767 0.6295
C55_8 C 0.19513(10) 0.7361(4) 0.5878(3)
H33_8 H 0.1866 0.7820 0.5628
O14_6 O 0.04861(17) 0.6269(8) 0.4774(6)
C56_8 C 0.10161(12) 0.4421(6) 0.5614(4)
H34_8 H 0.1096 0.4462 0.6034
H35_8 H 0.0899 0.4877 0.5502
H36_8 H 0.0952 0.3814 0.5518
C57_4 C 0.10530(13) 0.4520(6) 0.4619(3)
H37_4 H 0.0973 0.3944 0.4532
H38_6 H 0.0950 0.5026 0.4488
H39_4 H 0.1159 0.4542 0.4417
C58_8 C 0.11251(13) 0.8047(6) 0.5455(4)
H40_8 H 0.1208 0.8588 0.5574
C60_6 C 0.0141(3) 0.5612(16) 0.4281(9)
N3_6 N 0.05019(19) 0.8108(9) 0.4934(8)
C62_6 C 0.0276(3) 0.6390(13) 0.4525(9)
C63_6 C 0.0171(3) 0.7267(13) 0.4464(9)
C64_6 C 0.0298(2) 0.8024(11) 0.4787(9)
H43_6 H 0.0221 0.8496 0.4897
C65_8 C 0.0619(2) 0.8895(11) 0.5299(9)
H44_8 H 0.0669 0.8744 0.5719
H45_8 H 0.0524 0.9438 0.5226
C66_8 C 0.0810(5) 0.9052(17) 0.5103(12)
H46_6 H 0.0761 0.9227 0.4687
H47_8 H 0.0908 0.9530 0.5340
N4_8 N 0.0926(10) 0.810(3) 0.521(3)
C73_4 C 0.0244(2) 0.4662(11) 0.4247(11)
C74_4 C 0.0372(2) 0.4460(10) 0.4842(9)
H52_8 H 0.0277 0.4223 0.5044
H53_4 H 0.0483 0.4004 0.4852
H54_8 H 0.0444 0.5015 0.5037
C75_4 C 0.0403(2) 0.4653(10) 0.3868(9)
H55_6 H 0.0533 0.5023 0.4063
H56_4 H 0.0448 0.4028 0.3830
H57_4 H 0.0325 0.4903 0.3480
C76_4 C 0.0059(2) 0.3936(9) 0.3998(9)
H58_4 H 0.0112 0.3342 0.4171
H60_4 H 0.0019 0.3901 0.3574
O7_8 O 0.33916(7) 0.2437(2) 0.18207(16)
C11_8 C 0.35614(10) 0.3356(4) 0.1311(2)
C22_8 C 0.33672(11) 0.3636(4) 0.0896(3)
H9_8 H 0.3232 0.3464 0.0935
C23_8 C 0.35630(10) 0.2801(4) 0.1830(3)
C35_8 C 0.37583(11) 0.3605(4) 0.1250(3)
H18_8 H 0.3893 0.3419 0.1534
C43_8 C 0.35628(11) 0.4424(4) 0.0355(3)
C45_8 C 0.33657(11) 0.4166(4) 0.0422(3)
H23_8 H 0.3230 0.4354 0.0143
H28_7 H 0.3861 0.5602 0.0298
C53_8 C 0.37601(12) 0.4127(5) 0.0773(3)
H31_8 H 0.3895 0.4281 0.0731
O4_8 O 0.36934(6) 0.9175(2) 0.78763(17)
O8_8 O 0.37585(7) 0.7193(2) 0.85628(16)
C4_8 C 0.35817(10) 0.6102(4) 0.8940(2)
C5_8 C 0.35851(9) 0.6692(3) 0.8450(2)
C7_8 C 0.34985(10) 0.9323(3) 0.7824(2)
C8_8 C 0.34011(11) 0.5532(4) 0.8875(3)
H2_8 H 0.3282 0.5522 0.8515
C27_7 C 0.33952(11) 0.4982(4) 0.9334(3)
H13_7 H 0.3273 0.4597 0.9281
C37_8 C 0.37509(12) 0.6128(5) 0.9481(3)
H20_8 H 0.3871 0.6524 0.9537
C42_7 C 0.35643(11) 0.4986(4) 0.9864(3)
C50_8 C 0.37444(12) 0.5581(5) 0.9935(3)
C59_8 C 0.9920(3) 0.5774(17) 0.4044(9)
H41_8 H 0.9828 0.5255 0.3953
C61_8 C 0.9950(3) 0.7405(13) 0.4212(9)
H42_8 H 0.9889 0.7985 0.4234
C67_8 C 0.9587(2) 0.6767(11) 0.3693(9)
C68_8 C 0.9810(4) 0.6670(16) 0.3915(13)
C69_8 C 0.9252(2) 0.7431(11) 0.3712(8)
H48_8 H 0.9181 0.7826 0.3897
C70_8 C 0.9469(2) 0.7391(11) 0.3915(9)
H49_8 H 0.9547 0.7792 0.4220
C71_8 C 0.9220(2) 0.6248(11) 0.3130(9)
H50_8 H 0.9135 0.5792 0.2877
C72_8 C 0.9443(2) 0.6102(12) 0.3356(9)
H51_8 H 0.9500 0.5540 0.3283
H59_6 H 0.9930 0.4112 0.4094
C57_5 C 0.60530(13) 0.0480(6) 0.9619(3)
H37_5 H 0.5973 0.1056 0.9532
H39_5 H 0.6159 0.0458 0.9417
C73_5 C 0.5244(2) 0.0338(11) 0.9247(11)
C74_5 C 0.5372(2) 0.0540(10) 0.9842(9)
H53_5 H 0.5483 0.0996 0.9852
C75_5 C 0.5403(2) 0.0347(10) 0.8868(9)
H56_5 H 0.5448 0.0972 0.8830
H57_5 H 0.5325 0.0097 0.8480
C76_5 C 0.5059(2) 0.1064(9) 0.8998(9)
H58_5 H 0.5112 0.1658 0.9171
H59_7 H 0.4930 0.0888 0.9094
H60_5 H 0.5019 0.1099 0.8574
Mn1_7 Mn 0.0720(2) 0.2814(9) 0.9961(4)
C21_7 C 0.26645(11) 0.0589(4) 0.9811(3)
H8_7 H 0.2563 0.0690 0.9430
O14_7 O 0.04861(17) 0.3731(8) 0.9774(6)
C57_6 C 0.10530(13) 0.5480(6) 0.9619(3)
H37_6 H 0.0973 0.6056 0.9532
H38_7 H 0.0950 0.4974 0.9488
H39_6 H 0.1159 0.5458 0.9417
C60_7 C 0.0141(3) 0.4388(16) 0.9281(9)
N3_7 N 0.05019(19) 0.1892(9) 0.9934(8)
C62_7 C 0.0276(3) 0.3610(13) 0.9525(9)
C63_7 C 0.0171(3) 0.2733(13) 0.9464(9)
C64_7 C 0.0298(2) 0.1976(11) 0.9787(9)
H43_7 H 0.0221 0.1504 0.9897
H46_7 H 0.0761 0.0773 0.9687
C73_6 C 0.0244(2) 0.5338(11) 0.9247(11)
C74_6 C 0.0372(2) 0.5540(10) 0.9842(9)
H53_6 H 0.0483 0.5996 0.9852
C75_6 C 0.0403(2) 0.5347(10) 0.8868(9)
H55_7 H 0.0533 0.4977 0.9063
H56_6 H 0.0448 0.5972 0.8830
H57_6 H 0.0325 0.5097 0.8480
C76_6 C 0.0059(2) 0.6064(9) 0.8998(9)
H58_6 H 0.0112 0.6658 0.9171
H60_6 H 0.0019 0.6099 0.8574
C51_7 C 0.29598(13) 0.9748(5) 0.0467(3)
H29_7 H 0.3061 0.9258 0.0543
H28_8 H 0.8861 0.0602 0.0298
C27_8 C 0.83952(11) 0.9982(4) 0.9334(3)
H13_8 H 0.8273 0.9597 0.9281
C42_8 C 0.85643(11) 0.9986(4) 0.9864(3)
C57_7 C 0.39470(13) 0.9520(6) 0.0381(3)
H37_7 H 0.4027 0.8944 0.0468
H39_7 H 0.3841 0.9542 0.0583
C73_7 C 0.4756(2) 0.9662(11) 0.0753(11)
C74_7 C 0.4628(2) 0.9460(10) 0.0158(9)
H53_7 H 0.4517 0.9004 0.0148
C75_7 C 0.4597(2) 0.9653(10) 0.1132(9)
H56_7 H 0.4552 0.9028 0.1170
H57_7 H 0.4675 0.9903 0.1520
C76_7 C 0.4941(2) 0.8936(9) 0.1002(9)
H58_7 H 0.4888 0.8342 0.0829
H59_8 H 0.5070 0.9112 0.0906
H60_7 H 0.4981 0.8901 0.1426
C51_8 C 0.70402(13) 0.0252(5) 0.9533(3)
H29_8 H 0.6939 0.0742 0.9457
Mn1_8 Mn 0.9280(2) 0.7186(9) 0.0039(4)
C21_8 C 0.73355(11) 0.9411(4) 0.0189(3)
H8_8 H 0.7437 0.9310 0.0570
O14_8 O 0.95139(17) 0.6269(8) 0.0226(6)
C57_8 C 0.89470(13) 0.4520(6) 0.0381(3)
H37_8 H 0.9027 0.3944 0.0468
H38_8 H 0.9050 0.5026 0.0512
H39_8 H 0.8841 0.4542 0.0583
C60_8 C 0.9859(3) 0.5612(16) 0.0719(9)
N3_8 N 0.94981(19) 0.8108(9) 0.0066(8)
C62_8 C 0.9724(3) 0.6390(13) 0.0475(9)
C63_8 C 0.9829(3) 0.7267(13) 0.0536(9)
C64_8 C 0.9702(2) 0.8024(11) 0.0213(9)
H43_8 H 0.9779 0.8496 0.0103
H46_8 H 0.9239 0.9227 0.0313
C73_8 C 0.9756(2) 0.4662(11) 0.0753(11)
C74_8 C 0.9628(2) 0.4460(10) 0.0158(9)
H53_8 H 0.9517 0.4004 0.0148
C75_8 C 0.9597(2) 0.4653(10) 0.1132(9)
H55_8 H 0.9467 0.5023 0.0937
H56_8 H 0.9552 0.4028 0.1170
H57_8 H 0.9675 0.4903 0.1520
C76_8 C 0.9941(2) 0.3936(9) 0.1002(9)
H58_8 H 0.9888 0.3342 0.0829
H60_8 H 0.9981 0.3901 0.1426
loop_
_geom_bond_atom_site_label_1
_geom_bond_atom_site_label_2
_geom_bond_site_symmetry_1
_geom_bond_site_symmetry_2
H13 C27 1_555 1_555
C42 C27 1_555 1_555
Zn3 O7 1_555 1_555
O7 C23 1_555 1_555
O11 C23 1_555 1_555
C11 C22 1_555 1_555
C22 H9 1_555 1_555
C23 C11 1_555 1_555
C35 C11 1_555 1_555
H18 C35 1_555 1_555
C45 C22 1_555 1_555
H23 C45 1_555 1_555
C53 C35 1_555 1_555
H31 C53 1_555 1_555
Zn5 O11 1_555 1_555
O15 Zn3 1_555 1_555
O16 Zn3 1_555 1_555
O17 Zn3 1_555 1_555
O18 Zn3 1_555 1_555
O21 Zn3 1_555 1_555
C43 C45 1_555 1_555
C43 C53 1_555 1_555
Zn2 O4 1_555 1_555
O2 C7 1_555 1_555
O3 C5 1_555 1_555
O4 C7 1_555 1_555
O8 Zn2 1_555 1_555
C2 C3 1_555 1_555
C3 H1 1_555 1_555
C4 C5 1_555 1_555
C5 O8 1_555 1_555
C7 C2 1_555 1_555
C8 C4 1_555 1_555
H2 C8 1_555 1_555
C9 C1 1_555 1_555
H3 C9 1_555 1_555
C10 C9 1_555 1_555
H4 C10 1_555 1_555
C13 C1 1_555 1_555
C25 C3 1_555 1_555
H11 C25 1_555 1_555
C31 H16 1_555 1_555
C32 C2 1_555 1_555
H17 C32 1_555 1_555
C34 C25 1_555 1_555
C36 C13 1_555 1_555
H19 C36 1_555 1_555
C37 C4 1_555 1_555
H20 C37 1_555 1_555
C38 C10 1_555 1_555
C48 C46 1_555 1_555
H25 C48 1_555 1_555
H26 C48 1_555 1_555
H27 C48 1_555 1_555
C50 C37 1_555 1_555
C56 C46 1_555 1_555
H34 C56 1_555 1_555
H35 C56 1_555 1_555
H36 C56 1_555 1_555
C57 C46 1_555 1_555
H37 C57 1_555 1_555
H39 C57 1_555 1_555
C74 C73 1_555 1_555
H52 C74 1_555 1_555
H53 C74 1_555 1_555
C75 C73 1_555 1_555
H56 C75 1_555 1_555
H57 C75 1_555 1_555
C76 C73 1_555 1_555
H58 C76 1_555 1_555
H59 C76 1_555 1_555
H60 C76 1_555 1_555
Zn9 O2 1_555 1_555
O20 Zn2 1_555 1_555
N5 Zn2 1_555 1_555
O3 Zn9 1_555 1_555
C31 C32 1_555 1_555
C31 C34 1_555 1_555
C34 C38 1_555 1_555
C36 C38 1_555 1_555
Zn1 O6 1_555 1_555
Mn1 O13 1_555 1_555
O1 C6 1_555 1_555
O5 C17 1_555 1_555
O6 C17 1_555 1_555
O9 C12 1_555 1_555
O10 Zn1 1_555 1_555
O21 C12 1_555 1_555
N1 Zn1 1_555 1_555
O13 C41 1_555 1_555
C6 O10 1_555 1_555
C12 C15 1_555 1_555
C14 N1 1_555 1_555
H6 C14 1_555 1_555
C15 C24 1_555 1_555
C16 H7 1_555 1_555
C17 C18 1_555 1_555
C18 C16 1_555 1_555
C19 C20 1_555 1_555
C20 C29 1_555 1_555
C21 C16 1_555 1_555
H8 C21 1_555 1_555
C24 H10 1_555 1_555
C26 C15 1_555 1_555
H12 C26 1_555 1_555
C28 C30 1_555 1_555
C29 C24 1_555 1_555
H14 C29 1_555 1_555
C30 C14 1_555 1_555
H15 C30 1_555 1_555
C33 C40 1_555 1_555
C39 C20 1_555 1_555
H21 C39 1_555 1_555
C40 H22 1_555 1_555
C41 C33 1_555 1_555
C44 C28 1_555 1_555
C47 N1 1_555 1_555
H24 C47 1_555 1_555
C49 C41 1_555 1_555
C51 C19 1_555 1_555
H29 C51 1_555 1_555
C52 C44 1_555 1_555
H30 C52 1_555 1_555
C54 C18 1_555 1_555
H32 C54 1_555 1_555
C55 C28 1_555 1_555
H33 C55 1_555 1_555
O14 Mn1 1_555 1_555
N2 C69 1_555 1_555
C58 C49 1_555 1_555
H40 C58 1_555 1_555
C59 H41 1_555 1_555
C60 C59 1_555 1_555
C61 H42 1_555 1_555
N3 Mn1 1_555 1_555
C62 O14 1_555 1_555
C63 C61 1_555 1_555
C64 N3 1_555 1_555
H43 C64 1_555 1_555
C65 N3 1_555 1_555
H44 C65 1_555 1_555
H45 C65 1_555 1_555
C66 C65 1_555 1_555
H46 C66 1_555 1_555
H47 C66 1_555 1_555
N4 Mn1 1_555 1_555
C67 C68 1_555 1_555
C68 C59 1_555 1_555
C69 H48 1_555 1_555
C70 C67 1_555 1_555
H49 C70 1_555 1_555
C71 N2 1_555 1_555
H50 C71 1_555 1_555
C72 C67 1_555 1_555
H51 C72 1_555 1_555
Zn4 O9 1_555 1_555
Zn6 N2 1_555 1_555
Zn9 O1 1_555 1_555
O19 Zn1 1_555 1_555
O5 Zn9 1_555 1_555
C19 C21 1_555 1_555
C26 C39 1_555 1_555
C40 C44 1_555 1_555
C47 C55 1_555 1_555
C49 C52 1_555 1_555
C51 C54 1_555 1_555
C58 N4 1_555 1_555
C60 C62 1_555 1_555
C61 C68 1_555 1_555
C62 C63 1_555 1_555
C63 C64 1_555 1_555
C66 N4 1_555 1_555
C69 C70 1_555 1_555
C71 C72 1_555 1_555
N2_2 C69_2 1_555 1_555
C59_2 H41_2 1_555 1_555
C61_2 H42_2 1_555 1_555
C67_2 C68_2 1_555 1_555
C68_2 C59_2 1_555 1_555
C69_2 H48_2 1_555 1_555
C70_2 C67_2 1_555 1_555
H49_2 C70_2 1_555 1_555
C71_2 N2_2 1_555 1_555
H50_2 C71_2 1_555 1_555
C72_2 C67_2 1_555 1_555
H51_2 C72_2 1_555 1_555
Zn5 N2_2 1_555 1_555
C61_2 C68_2 1_555 1_555
C69_2 C70_2 1_555 1_555
C71_2 C72_2 1_555 1_555
Zn2_2 O4_2 1_555 1_555
O2_2 C7_2 1_555 1_555
O3_2 C5_2 1_555 1_555
O4_2 C7_2 1_555 1_555
O8_2 Zn2_2 1_555 1_555
C4_2 C5_2 1_555 1_555
C5_2 O8_2 1_555 1_555
C8_2 C4_2 1_555 1_555
H2_2 C8_2 1_555 1_555
C27_2 C8_2 1_555 1_555
H13_2 C27_2 1_555 1_555
C37_2 C4_2 1_555 1_555
H20_2 C37_2 1_555 1_555
C42_2 C27_2 1_555 1_555
C50_2 C37_2 1_555 1_555
Zn9_2 O2_2 1_555 1_555
O20_2 Zn2_2 1_555 1_555
N5_2 Zn2_2 1_555 1_555
O3_2 Zn9_2 1_555 1_555
C42_2 C50_2 1_555 1_555
Zn3_2 O7_2 1_555 1_555
O7_2 C23_2 1_555 1_555
O11_2 C23_2 1_555 1_555
C11_2 C22_2 1_555 1_555
C22_2 H9_2 1_555 1_555
C23_2 C11_2 1_555 1_555
C35_2 C11_2 1_555 1_555
H18_2 C35_2 1_555 1_555
C45_2 C22_2 1_555 1_555
H23_2 C45_2 1_555 1_555
C53_2 C35_2 1_555 1_555
H31_2 C53_2 1_555 1_555
Zn6 O11_2 1_555 1_555
O15_2 Zn3_2 1_555 1_555
O16_2 Zn3_2 1_555 1_555
O17_2 Zn3_2 1_555 1_555
O18_2 Zn3_2 1_555 1_555
O21_2 Zn3_2 1_555 1_555
C43_2 C45_2 1_555 1_555
C43_2 C53_2 1_555 1_555
Zn1_2 O6_2 1_555 1_555
Mn1_2 O13_2 1_555 1_555
O1_2 C6_2 1_555 1_555
O5_2 C17_2 1_555 1_555
O6_2 C17_2 1_555 1_555
O10_2 Zn1_2 1_555 1_555
N1_2 Zn1_2 1_555 1_555
O13_2 C41_2 1_555 1_555
C1_2 C6_2 1_555 1_555
C2_2 C3_2 1_555 1_555
C3_2 H1_2 1_555 1_555
C6_2 O10_2 1_555 1_555
C9_2 C1_2 1_555 1_555
H3_2 C9_2 1_555 1_555
C10_2 C9_2 1_555 1_555
H4_2 C10_2 1_555 1_555
C13_2 C1_2 1_555 1_555
H5_2 C13_2 1_555 1_555
C14_2 N1_2 1_555 1_555
H6_2 C14_2 1_555 1_555
C16_2 H7_2 1_555 1_555
C17_2 C18_2 1_555 1_555
C18_2 C16_2 1_555 1_555
C21_2 C16_2 1_555 1_555
H8_2 C21_2 1_555 1_555
C25_2 C3_2 1_555 1_555
H11_2 C25_2 1_555 1_555
C28_2 C30_2 1_555 1_555
C30_2 C14_2 1_555 1_555
H15_2 C30_2 1_555 1_555
C31_2 H16_2 1_555 1_555
C32_2 C2_2 1_555 1_555
H17_2 C32_2 1_555 1_555
C33_2 C40_2 1_555 1_555
C34_2 C25_2 1_555 1_555
C36_2 C13_2 1_555 1_555
H19_2 C36_2 1_555 1_555
C38_2 C10_2 1_555 1_555
C40_2 H22_2 1_555 1_555
C41_2 C33_2 1_555 1_555
C44_2 C28_2 1_555 1_555
C46_2 C33_2 1_555 1_555
C47_2 N1_2 1_555 1_555
H24_2 C47_2 1_555 1_555
C48_2 C46_2 1_555 1_555
H25_2 C48_2 1_555 1_555
H26_2 C48_2 1_555 1_555
H27_2 C48_2 1_555 1_555
C49_2 C41_2 1_555 1_555
C52_2 C44_2 1_555 1_555
H30_2 C52_2 1_555 1_555
C54_2 C18_2 1_555 1_555
H32_2 C54_2 1_555 1_555
C55_2 C28_2 1_555 1_555
H33_2 C55_2 1_555 1_555
O14_2 Mn1_2 1_555 1_555
C56_2 C46_2 1_555 1_555
H34_2 C56_2 1_555 1_555
H35_2 C56_2 1_555 1_555
H36_2 C56_2 1_555 1_555
C57_2 C46_2 1_555 1_555
H37_2 C57_2 1_555 1_555
H38_2 C57_2 1_555 1_555
H39_2 C57_2 1_555 1_555
C58_2 C49_2 1_555 1_555
H40_2 C58_2 1_555 1_555
N3_2 Mn1_2 1_555 1_555
C62_2 O14_2 1_555 1_555
C64_2 N3_2 1_555 1_555
H43_2 C64_2 1_555 1_555
C65_2 N3_2 1_555 1_555
H44_2 C65_2 1_555 1_555
H45_2 C65_2 1_555 1_555
C66_2 C65_2 1_555 1_555
H46_2 C66_2 1_555 1_555
H47_2 C66_2 1_555 1_555
N4_2 Mn1_2 1_555 1_555
C73_2 C60_2 1_555 1_555
C74_2 C73_2 1_555 1_555
H52_2 C74_2 1_555 1_555
H53_2 C74_2 1_555 1_555
H54_2 C74_2 1_555 1_555
C75_2 C73_2 1_555 1_555
H55_2 C75_2 1_555 1_555
H56_2 C75_2 1_555 1_555
H57_2 C75_2 1_555 1_555
C76_2 C73_2 1_555 1_555
H58_2 C76_2 1_555 1_555
H60_2 C76_2 1_555 1_555
Zn9_2 O1_2 1_555 1_555
O19_2 Zn1_2 1_555 1_555
O5_2 Zn9_2 1_555 1_555
C31_2 C32_2 1_555 1_555
C31_2 C34_2 1_555 1_555
C34_2 C38_2 1_555 1_555
C36_2 C38_2 1_555 1_555
C40_2 C44_2 1_555 1_555
C47_2 C55_2 1_555 1_555
C49_2 C52_2 1_555 1_555
C58_2 N4_2 1_555 1_555
C60_2 C62_2 1_555 1_555
C62_2 C63_2 1_555 1_555
C63_2 C64_2 1_555 1_555
C66_2 N4_2 1_555 1_555
O9_2 C12_2 1_555 1_555
O21_2 C12_2 1_555 1_555
C12_2 C15_2 1_555 1_555
C15_2 C24_2 1_555 1_555
C19_2 C20_2 1_555 1_555
C20_2 C29_2 1_555 1_555
C24_2 H10_2 1_555 1_555
C26_2 C15_2 1_555 1_555
H12_2 C26_2 1_555 1_555
C29_2 C24_2 1_555 1_555
H14_2 C29_2 1_555 1_555
C39_2 C20_2 1_555 1_555
H21_2 C39_2 1_555 1_555
C51_2 C19_2 1_555 1_555
H29_2 C51_2 1_555 1_555
Zn4_2 O9_2 1_555 1_555
C26_2 C39_2 1_555 1_555
O19 C12_3 1_555 1_555
O12 C12_3 1_555 1_555
C12_3 C15_3 1_555 1_555
C15_3 C24_3 1_555 1_555
C19_3 C20_3 1_555 1_555
C20_3 C29_3 1_555 1_555
H8_3 C21_3 1_555 1_555
C24_3 H10_3 1_555 1_555
C26_3 C15_3 1_555 1_555
H12_3 C26_3 1_555 1_555
C29_3 C24_3 1_555 1_555
H14_3 C29_3 1_555 1_555
C39_3 C20_3 1_555 1_555
H21_3 C39_3 1_555 1_555
O14_3 Mn1_3 1_555 1_555
N5_2 C69_3 1_555 1_555
C59_3 H41_3 1_555 1_555
C60_3 C59_3 1_555 1_555
C61_3 H42_3 1_555 1_555
N3_3 Mn1_3 1_555 1_555
C62_3 O14_3 1_555 1_555
C63_3 C61_3 1_555 1_555
C64_3 N3_3 1_555 1_555
H43_3 C64_3 1_555 1_555
C67_3 C68_3 1_555 1_555
C68_3 C59_3 1_555 1_555
C69_3 H48_3 1_555 1_555
C70_3 C67_3 1_555 1_555
H49_3 C70_3 1_555 1_555
C71_3 N5_2 1_555 1_555
H50_3 C71_3 1_555 1_555
C72_3 C67_3 1_555 1_555
H51_3 C72_3 1_555 1_555
Zn9 O12 1_555 1_555
C19_3 C21_3 1_555 1_555
C26_3 C39_3 1_555 1_555
C60_3 C62_3 1_555 1_555
C61_3 C68_3 1_555 1_555
C62_3 C63_3 1_555 1_555
C63_3 C64_3 1_555 1_555
C69_3 C70_3 1_555 1_555
C71_3 C72_3 1_555 1_555
Zn4 O6_3 1_555 1_555
O15 C6_3 1_555 1_555
O18 C17_3 1_555 1_555
O6_3 C17_3 1_555 1_555
O10_3 Zn4 1_555 1_555
N1_3 Zn4 1_555 1_555
O13_3 C41_3 1_555 1_555
C6_3 O10_3 1_555 1_555
C14_3 N1_3 1_555 1_555
H6_3 C14_3 1_555 1_555
C16_3 H7_3 1_555 1_555
C17_3 C18_3 1_555 1_555
C18_3 C16_3 1_555 1_555
C28_3 C30_3 1_555 1_555
C30_3 C14_3 1_555 1_555
H15_3 C30_3 1_555 1_555
C33_3 C40_3 1_555 1_555
C40_3 H22_3 1_555 1_555
C41_3 C33_3 1_555 1_555
C44_3 C28_3 1_555 1_555
C47_3 N1_3 1_555 1_555
H24_3 C47_3 1_555 1_555
C49_3 C41_3 1_555 1_555
H29_3 C51_3 1_555 1_555
C52_3 C44_3 1_555 1_555
H30_3 C52_3 1_555 1_555
C54_3 C18_3 1_555 1_555
H32_3 C54_3 1_555 1_555
C55_3 C28_3 1_555 1_555
H33_3 C55_3 1_555 1_555
C58_3 C49_3 1_555 1_555
H40_3 C58_3 1_555 1_555
H44_3 C65_3 1_555 1_555
H45_3 C65_3 1_555 1_555
C66_3 C65_3 1_555 1_555
H47_3 C66_3 1_555 1_555
C40_3 C44_3 1_555 1_555
C47_3 C55_3 1_555 1_555
C49_3 C52_3 1_555 1_555
C51_3 C54_3 1_555 1_555
C58_3 N4_3 1_555 1_555
C66_3 N4_3 1_555 1_555
Zn5 O4_3 1_555 1_555
O16 C7_3 1_555 1_555
O17 C5_3 1_555 1_555
O4_3 C7_3 1_555 1_555
O8_3 Zn5 1_555 1_555
C2_3 C3_3 1_555 1_555
C3_3 H1_3 1_555 1_555
C4_3 C5_3 1_555 1_555
C5_3 O8_3 1_555 1_555
C7_3 C2_3 1_555 1_555
C8_3 C4_3 1_555 1_555
H2_3 C8_3 1_555 1_555
C9_3 C1_3 1_555 1_555
H3_3 C9_3 1_555 1_555
C10_3 C9_3 1_555 1_555
H4_3 C10_3 1_555 1_555
C13_3 C1_3 1_555 1_555
C25_3 C3_3 1_555 1_555
H11_3 C25_3 1_555 1_555
C31_3 H16_3 1_555 1_555
C32_3 C2_3 1_555 1_555
H17_3 C32_3 1_555 1_555
C34_3 C25_3 1_555 1_555
C36_3 C13_3 1_555 1_555
H19_3 C36_3 1_555 1_555
C37_3 C4_3 1_555 1_555
H20_3 C37_3 1_555 1_555
C38_3 C10_3 1_555 1_555
C48_3 C46_3 1_555 1_555
H25_3 C48_3 1_555 1_555
H26_3 C48_3 1_555 1_555
H27_3 C48_3 1_555 1_555
C50_3 C37_3 1_555 1_555
H28_2 C50_3 1_555 1_555
C56_3 C46_3 1_555 1_555
H34_3 C56_3 1_555 1_555
H35_3 C56_3 1_555 1_555
H36_3 C56_3 1_555 1_555
C31_3 C32_3 1_555 1_555
C31_3 C34_3 1_555 1_555
C34_3 C38_3 1_555 1_555
C36_3 C38_3 1_555 1_555
Zn9 O7_3 1_555 1_555
O7_3 C23_3 1_555 1_555
O20 C23_3 1_555 1_555
C11_3 C22_3 1_555 1_555
C22_3 H9_3 1_555 1_555
C23_3 C11_3 1_555 1_555
H13_3 C27_3 1_555 1_555
C35_3 C11_3 1_555 1_555
H18_3 C35_3 1_555 1_555
C42_3 C27_3 1_555 1_555
C43_3 C42_3 1_555 1_555
C45_3 C22_3 1_555 1_555
H23_3 C45_3 1_555 1_555
C53_3 C35_3 1_555 1_555
H31_3 C53_3 1_555 1_555
C43_3 C45_3 1_555 1_555
C43_3 C53_3 1_555 1_555
N5 C69_4 1_555 1_555
C59_4 H41_4 1_555 1_555
C61_4 H42_4 1_555 1_555
C67_4 C68_4 1_555 1_555
C68_4 C59_4 1_555 1_555
C69_4 H48_4 1_555 1_555
C70_4 C67_4 1_555 1_555
H49_4 C70_4 1_555 1_555
C71_4 N5 1_555 1_555
H50_4 C71_4 1_555 1_555
C72_4 C67_4 1_555 1_555
H51_4 C72_4 1_555 1_555
C61_4 C68_4 1_555 1_555
C69_4 C70_4 1_555 1_555
C71_4 C72_4 1_555 1_555
O19_2 C12_4 1_555 1_555
O12_2 C12_4 1_555 1_555
C12_4 C15_4 1_555 1_555
C15_4 C24_4 1_555 1_555
C19_4 C20_4 1_555 1_555
C20_4 C29_4 1_555 1_555
C24_4 H10_4 1_555 1_555
C26_4 C15_4 1_555 1_555
H12_4 C26_4 1_555 1_555
C29_4 C24_4 1_555 1_555
H14_4 C29_4 1_555 1_555
C39_4 C20_4 1_555 1_555
H21_4 C39_4 1_555 1_555
Zn9_2 O12_2 1_555 1_555
C26_4 C39_4 1_555 1_555
Zn4_2 O6_4 1_555 1_555
O15_2 C6_4 1_555 1_555
O18_2 C17_4 1_555 1_555
O6_4 C17_4 1_555 1_555
O10_4 Zn4_2 1_555 1_555
N1_4 Zn4_2 1_555 1_555
O13_4 C41_4 1_555 1_555
C1_4 C6_4 1_555 1_555
C2_4 C3_4 1_555 1_555
C3_4 H1_4 1_555 1_555
C6_4 O10_4 1_555 1_555
C9_4 C1_4 1_555 1_555
H3_4 C9_4 1_555 1_555
C10_4 C9_4 1_555 1_555
H4_4 C10_4 1_555 1_555
C13_4 C1_4 1_555 1_555
H5_4 C13_4 1_555 1_555
C14_4 N1_4 1_555 1_555
H6_4 C14_4 1_555 1_555
C16_4 H7_4 1_555 1_555
C17_4 C18_4 1_555 1_555
C18_4 C16_4 1_555 1_555
C25_4 C3_4 1_555 1_555
H11_4 C25_4 1_555 1_555
C28_4 C30_4 1_555 1_555
C30_4 C14_4 1_555 1_555
H15_4 C30_4 1_555 1_555
C31_4 H16_4 1_555 1_555
C32_4 C2_4 1_555 1_555
H17_4 C32_4 1_555 1_555
C33_4 C40_4 1_555 1_555
C34_4 C25_4 1_555 1_555
C36_4 C13_4 1_555 1_555
H19_4 C36_4 1_555 1_555
C38_4 C10_4 1_555 1_555
C40_4 H22_4 1_555 1_555
C41_4 C33_4 1_555 1_555
C44_4 C28_4 1_555 1_555
C46_4 C33_4 1_555 1_555
C47_4 N1_4 1_555 1_555
H24_4 C47_4 1_555 1_555
C48_4 C46_4 1_555 1_555
H25_4 C48_4 1_555 1_555
H26_4 C48_4 1_555 1_555
H27_4 C48_4 1_555 1_555
C49_4 C41_4 1_555 1_555
C52_4 C44_4 1_555 1_555
H30_4 C52_4 1_555 1_555
C54_4 C18_4 1_555 1_555
H32_4 C54_4 1_555 1_555
C55_4 C28_4 1_555 1_555
H33_4 C55_4 1_555 1_555
C56_4 C46_4 1_555 1_555
H34_4 C56_4 1_555 1_555
H35_4 C56_4 1_555 1_555
H36_4 C56_4 1_555 1_555
C58_4 C49_4 1_555 1_555
H40_4 C58_4 1_555 1_555
H44_4 C65_4 1_555 1_555
H45_4 C65_4 1_555 1_555
C66_4 C65_4 1_555 1_555
H47_4 C66_4 1_555 1_555
C31_4 C32_4 1_555 1_555
C31_4 C34_4 1_555 1_555
C34_4 C38_4 1_555 1_555
C36_4 C38_4 1_555 1_555
C40_4 C44_4 1_555 1_555
C47_4 C55_4 1_555 1_555
C49_4 C52_4 1_555 1_555
C58_4 N4_4 1_555 1_555
C66_4 N4_4 1_555 1_555
Zn6 O4_4 1_555 1_555
Zn9_2 O7_4 1_555 1_555
O16_2 C7_4 1_555 1_555
O17_2 C5_4 1_555 1_555
O4_4 C7_4 1_555 1_555
O7_4 C23_4 1_555 1_555
O8_4 Zn6 1_555 1_555
O20_2 C23_4 1_555 1_555
C4_4 C5_4 1_555 1_555
C5_4 O8_4 1_555 1_555
C8_4 C4_4 1_555 1_555
H2_4 C8_4 1_555 1_555
C11_4 C22_4 1_555 1_555
C22_4 H9_4 1_555 1_555
C23_4 C11_4 1_555 1_555
C27_4 C8_4 1_555 1_555
H13_4 C27_4 1_555 1_555
C35_4 C11_4 1_555 1_555
H18_4 C35_4 1_555 1_555
C37_4 C4_4 1_555 1_555
H20_4 C37_4 1_555 1_555
C42_4 C27_4 1_555 1_555
C43_4 C42_4 1_555 1_555
C45_4 C22_4 1_555 1_555
H23_4 C45_4 1_555 1_555
C50_4 C37_4 1_555 1_555
H28_3 C50_4 1_555 1_555
C53_4 C35_4 1_555 1_555
H31_4 C53_4 1_555 1_555
C42_4 C50_4 1_555 1_555
C43_4 C45_4 1_555 1_555
C43_4 C53_4 1_555 1_555
Zn3_3 O7_5 1_555 1_555
O7_5 C23_5 1_555 1_555
O11_3 C23_5 1_555 1_555
C11_5 C22_5 1_555 1_555
C22_5 H9_5 1_555 1_555
C23_5 C11_5 1_555 1_555
H13_5 C27_5 1_555 1_555
C35_5 C11_5 1_555 1_555
H18_5 C35_5 1_555 1_555
C42_5 C27_5 1_555 1_555
C43_5 C42_5 1_555 1_555
C45_5 C22_5 1_555 1_555
H23_5 C45_5 1_555 1_555
C53_5 C35_5 1_555 1_555
H31_5 C53_5 1_555 1_555
Zn5_2 O11_3 1_555 1_555
O15_3 Zn3_3 1_555 1_555
O16_3 Zn3_3 1_555 1_555
O17_3 Zn3_3 1_555 1_555
O18_3 Zn3_3 1_555 1_555
O21_3 Zn3_3 1_555 1_555
C43_5 C45_5 1_555 1_555
C43_5 C53_5 1_555 1_555
Zn2_3 O4_5 1_555 1_555
O2_3 C7_5 1_555 1_555
O3_3 C5_5 1_555 1_555
O4_5 C7_5 1_555 1_555
O8_5 Zn2_3 1_555 1_555
C2_5 C3_5 1_555 1_555
C3_5 H1_5 1_555 1_555
C4_5 C5_5 1_555 1_555
C5_5 O8_5 1_555 1_555
C7_5 C2_5 1_555 1_555
C8_5 C4_5 1_555 1_555
H2_5 C8_5 1_555 1_555
C9_5 C1_5 1_555 1_555
H3_5 C9_5 1_555 1_555
C10_5 C9_5 1_555 1_555
H4_5 C10_5 1_555 1_555
C13_5 C1_5 1_555 1_555
C25_5 C3_5 1_555 1_555
H11_5 C25_5 1_555 1_555
C31_5 H16_5 1_555 1_555
C32_5 C2_5 1_555 1_555
H17_5 C32_5 1_555 1_555
C34_5 C25_5 1_555 1_555
C36_5 C13_5 1_555 1_555
H19_5 C36_5 1_555 1_555
C37_5 C4_5 1_555 1_555
H20_5 C37_5 1_555 1_555
C38_5 C10_5 1_555 1_555
C48_5 C46_5 1_555 1_555
H25_5 C48_5 1_555 1_555
H26_5 C48_5 1_555 1_555
H27_5 C48_5 1_555 1_555
C50_5 C37_5 1_555 1_555
H28_5 C50_5 1_555 1_555
C56_5 C46_5 1_555 1_555
H34_5 C56_5 1_555 1_555
H35_5 C56_5 1_555 1_555
H36_5 C56_5 1_555 1_555
Zn9_3 O2_3 1_555 1_555
O20_3 Zn2_3 1_555 1_555
N5_3 Zn2_3 1_555 1_555
O3_3 Zn9_3 1_555 1_555
C31_5 C32_5 1_555 1_555
C31_5 C34_5 1_555 1_555
C34_5 C38_5 1_555 1_555
C36_5 C38_5 1_555 1_555
Zn1_3 O6_5 1_555 1_555
O1_3 C6_5 1_555 1_555
O5_3 C17_5 1_555 1_555
O6_5 C17_5 1_555 1_555
O10_5 Zn1_3 1_555 1_555
N1_5 Zn1_3 1_555 1_555
O13_5 C41_5 1_555 1_555
C6_5 O10_5 1_555 1_555
C14_5 N1_5 1_555 1_555
H6_5 C14_5 1_555 1_555
C16_5 H7_5 1_555 1_555
C17_5 C18_5 1_555 1_555
C18_5 C16_5 1_555 1_555
C28_5 C30_5 1_555 1_555
C30_5 C14_5 1_555 1_555
H15_5 C30_5 1_555 1_555
C33_5 C40_5 1_555 1_555
C40_5 H22_5 1_555 1_555
C41_5 C33_5 1_555 1_555
C44_5 C28_5 1_555 1_555
C47_5 N1_5 1_555 1_555
H24_5 C47_5 1_555 1_555
C49_5 C41_5 1_555 1_555
H29_4 C51_4 1_555 1_555
C52_5 C44_5 1_555 1_555
H30_5 C52_5 1_555 1_555
C54_5 C18_5 1_555 1_555
H32_5 C54_5 1_555 1_555
C55_5 C28_5 1_555 1_555
H33_5 C55_5 1_555 1_555
C58_5 C49_5 1_555 1_555
H40_5 C58_5 1_555 1_555
H44_5 C65_5 1_555 1_555
H45_5 C65_5 1_555 1_555
C66_5 C65_5 1_555 1_555
H47_5 C66_5 1_555 1_555
Zn9_3 O1_3 1_555 1_555
O19_3 Zn1_3 1_555 1_555
O5_3 Zn9_3 1_555 1_555
C40_5 C44_5 1_555 1_555
C47_5 C55_5 1_555 1_555
C49_5 C52_5 1_555 1_555
C51_4 C54_5 1_555 1_555
C58_5 N4_5 1_555 1_555
C66_5 N4_5 1_555 1_555
O9_3 C12_5 1_555 1_555
O21_3 C12_5 1_555 1_555
C12_5 C15_5 1_555 1_555
C15_5 C24_5 1_555 1_555
C19_5 C20_5 1_555 1_555
C20_5 C29_5 1_555 1_555
H8_4 C21_4 1_555 1_555
C24_5 H10_5 1_555 1_555
C26_5 C15_5 1_555 1_555
H12_5 C26_5 1_555 1_555
C29_5 C24_5 1_555 1_555
H14_5 C29_5 1_555 1_555
C39_5 C20_5 1_555 1_555
H21_5 C39_5 1_555 1_555
O14_4 Mn1_4 1_555 1_555
N2_3 C69_5 1_555 1_555
C59_5 H41_5 1_555 1_555
C60_4 C59_5 1_555 1_555
C61_5 H42_5 1_555 1_555
N3_4 Mn1_4 1_555 1_555
C62_4 O14_4 1_555 1_555
C63_4 C61_5 1_555 1_555
C64_4 N3_4 1_555 1_555
H43_4 C64_4 1_555 1_555
C67_5 C68_5 1_555 1_555
C68_5 C59_5 1_555 1_555
C69_5 H48_5 1_555 1_555
C70_5 C67_5 1_555 1_555
H49_5 C70_5 1_555 1_555
C71_5 N2_3 1_555 1_555
H50_5 C71_5 1_555 1_555
C72_5 C67_5 1_555 1_555
H51_5 C72_5 1_555 1_555
Zn4_3 O9_3 1_555 1_555
Zn6_2 N2_3 1_555 1_555
C19_5 C21_4 1_555 1_555
C26_5 C39_5 1_555 1_555
C60_4 C62_4 1_555 1_555
C61_5 C68_5 1_555 1_555
C62_4 C63_4 1_555 1_555
C63_4 C64_4 1_555 1_555
C69_5 C70_5 1_555 1_555
C71_5 C72_5 1_555 1_555
Zn2_4 O4_6 1_555 1_555
Zn3_4 O7_6 1_555 1_555
O2_4 C7_6 1_555 1_555
O3_4 C5_6 1_555 1_555
O4_6 C7_6 1_555 1_555
O7_6 C23_6 1_555 1_555
O8_6 Zn2_4 1_555 1_555
O11_4 C23_6 1_555 1_555
C4_6 C5_6 1_555 1_555
C5_6 O8_6 1_555 1_555
C8_6 C4_6 1_555 1_555
H2_6 C8_6 1_555 1_555
C11_6 C22_6 1_555 1_555
C22_6 H9_6 1_555 1_555
C23_6 C11_6 1_555 1_555
C27_6 C8_6 1_555 1_555
H13_6 C27_6 1_555 1_555
C35_6 C11_6 1_555 1_555
H18_6 C35_6 1_555 1_555
C37_6 C4_6 1_555 1_555
H20_6 C37_6 1_555 1_555
C42_6 C27_6 1_555 1_555
C43_6 C42_6 1_555 1_555
C45_6 C22_6 1_555 1_555
H23_6 C45_6 1_555 1_555
C50_6 C37_6 1_555 1_555
H28_6 C50_6 1_555 1_555
C53_6 C35_6 1_555 1_555
H31_6 C53_6 1_555 1_555
Zn6_2 O11_4 1_555 1_555
Zn9_4 O2_4 1_555 1_555
O15_4 Zn3_4 1_555 1_555
O16_4 Zn3_4 1_555 1_555
O17_4 Zn3_4 1_555 1_555
O18_4 Zn3_4 1_555 1_555
O20_4 Zn2_4 1_555 1_555
O21_4 Zn3_4 1_555 1_555
N5_4 Zn2_4 1_555 1_555
O3_4 Zn9_4 1_555 1_555
C42_6 C50_6 1_555 1_555
C43_6 C45_6 1_555 1_555
C43_6 C53_6 1_555 1_555
Zn1_4 O6_6 1_555 1_555
O1_4 C6_6 1_555 1_555
O5_4 C17_6 1_555 1_555
O6_6 C17_6 1_555 1_555
O10_6 Zn1_4 1_555 1_555
N1_6 Zn1_4 1_555 1_555
O13_6 C41_6 1_555 1_555
C1_6 C6_6 1_555 1_555
C2_6 C3_6 1_555 1_555
C3_6 H1_6 1_555 1_555
C6_6 O10_6 1_555 1_555
C9_6 C1_6 1_555 1_555
H3_6 C9_6 1_555 1_555
C10_6 C9_6 1_555 1_555
H4_6 C10_6 1_555 1_555
C13_6 C1_6 1_555 1_555
H5_6 C13_6 1_555 1_555
C14_6 N1_6 1_555 1_555
H6_6 C14_6 1_555 1_555
C16_6 H7_6 1_555 1_555
C17_6 C18_6 1_555 1_555
C18_6 C16_6 1_555 1_555
C25_6 C3_6 1_555 1_555
H11_6 C25_6 1_555 1_555
C28_6 C30_6 1_555 1_555
C30_6 C14_6 1_555 1_555
H15_6 C30_6 1_555 1_555
C31_6 H16_6 1_555 1_555
C32_6 C2_6 1_555 1_555
H17_6 C32_6 1_555 1_555
C33_6 C40_6 1_555 1_555
C34_6 C25_6 1_555 1_555
C36_6 C13_6 1_555 1_555
H19_6 C36_6 1_555 1_555
C38_6 C10_6 1_555 1_555
C40_6 H22_6 1_555 1_555
C41_6 C33_6 1_555 1_555
C44_6 C28_6 1_555 1_555
C46_6 C33_6 1_555 1_555
C47_6 N1_6 1_555 1_555
H24_6 C47_6 1_555 1_555
C48_6 C46_6 1_555 1_555
H25_6 C48_6 1_555 1_555
H26_6 C48_6 1_555 1_555
H27_6 C48_6 1_555 1_555
C49_6 C41_6 1_555 1_555
C52_6 C44_6 1_555 1_555
H30_6 C52_6 1_555 1_555
C54_6 C18_6 1_555 1_555
H32_6 C54_6 1_555 1_555
C55_6 C28_6 1_555 1_555
H33_6 C55_6 1_555 1_555
C56_6 C46_6 1_555 1_555
H34_6 C56_6 1_555 1_555
H35_6 C56_6 1_555 1_555
H36_6 C56_6 1_555 1_555
C58_6 C49_6 1_555 1_555
H40_6 C58_6 1_555 1_555
H44_6 C65_6 1_555 1_555
H45_6 C65_6 1_555 1_555
C66_6 C65_6 1_555 1_555
H47_6 C66_6 1_555 1_555
Zn9_4 O1_4 1_555 1_555
O19_4 Zn1_4 1_555 1_555
O5_4 Zn9_4 1_555 1_555
C31_6 C32_6 1_555 1_555
C31_6 C34_6 1_555 1_555
C34_6 C38_6 1_555 1_555
C36_6 C38_6 1_555 1_555
C40_6 C44_6 1_555 1_555
C47_6 C55_6 1_555 1_555
C49_6 C52_6 1_555 1_555
C58_6 N4_6 1_555 1_555
C66_6 N4_6 1_555 1_555
O9_4 C12_6 1_555 1_555
O21_4 C12_6 1_555 1_555
C12_6 C15_6 1_555 1_555
C15_6 C24_6 1_555 1_555
C19_6 C20_6 1_555 1_555
C20_6 C29_6 1_555 1_555
C24_6 H10_6 1_555 1_555
C26_6 C15_6 1_555 1_555
H12_6 C26_6 1_555 1_555
C29_6 C24_6 1_555 1_555
H14_6 C29_6 1_555 1_555
C39_6 C20_6 1_555 1_555
H21_6 C39_6 1_555 1_555
Zn4_4 O9_4 1_555 1_555
C26_6 C39_6 1_555 1_555
N2_4 C69_6 1_555 1_555
C59_6 H41_6 1_555 1_555
C61_6 H42_6 1_555 1_555
C67_6 C68_6 1_555 1_555
C68_6 C59_6 1_555 1_555
C69_6 H48_6 1_555 1_555
C70_6 C67_6 1_555 1_555
H49_6 C70_6 1_555 1_555
C71_6 N2_4 1_555 1_555
H50_6 C71_6 1_555 1_555
C72_6 C67_6 1_555 1_555
H51_6 C72_6 1_555 1_555
Zn5_2 N2_4 1_555 1_555
C61_6 C68_6 1_555 1_555
C69_6 C70_6 1_555 1_555
C71_6 C72_6 1_555 1_555
Zn4_3 O6_7 1_555 1_555
Mn1_5 O13_7 1_555 1_555
O15_3 C6_7 1_555 1_555
O18_3 C17_7 1_555 1_555
O6_7 C17_7 1_555 1_555
O19_3 C12_7 1_555 1_555
O10_7 Zn4_3 1_555 1_555
O12_3 C12_7 1_555 1_555
N1_7 Zn4_3 1_555 1_555
O13_7 C41_7 1_555 1_555
C6_7 O10_7 1_555 1_555
C12_7 C15_7 1_555 1_555
C14_7 N1_7 1_555 1_555
H6_7 C14_7 1_555 1_555
C15_7 C24_7 1_555 1_555
C16_7 H7_7 1_555 1_555
C17_7 C18_7 1_555 1_555
C18_7 C16_7 1_555 1_555
C19_7 C20_7 1_555 1_555
C20_7 C29_7 1_555 1_555
C21_5 C16_7 1_555 1_555
H8_5 C21_5 1_555 1_555
C24_7 H10_7 1_555 1_555
C26_7 C15_7 1_555 1_555
H12_7 C26_7 1_555 1_555
C28_7 C30_7 1_555 1_555
C29_7 C24_7 1_555 1_555
H14_7 C29_7 1_555 1_555
C30_7 C14_7 1_555 1_555
H15_7 C30_7 1_555 1_555
C33_7 C40_7 1_555 1_555
C39_7 C20_7 1_555 1_555
H21_7 C39_7 1_555 1_555
C40_7 H22_7 1_555 1_555
C41_7 C33_7 1_555 1_555
C44_7 C28_7 1_555 1_555
C47_7 N1_7 1_555 1_555
H24_7 C47_7 1_555 1_555
C49_7 C41_7 1_555 1_555
C51_5 C19_7 1_555 1_555
H29_5 C51_5 1_555 1_555
C52_7 C44_7 1_555 1_555
H30_7 C52_7 1_555 1_555
C54_7 C18_7 1_555 1_555
H32_7 C54_7 1_555 1_555
C55_7 C28_7 1_555 1_555
H33_7 C55_7 1_555 1_555
O14_5 Mn1_5 1_555 1_555
N5_4 C69_7 1_555 1_555
C58_7 C49_7 1_555 1_555
H40_7 C58_7 1_555 1_555
C59_7 H41_7 1_555 1_555
C60_5 C59_7 1_555 1_555
C61_7 H42_7 1_555 1_555
N3_5 Mn1_5 1_555 1_555
C62_5 O14_5 1_555 1_555
C63_5 C61_7 1_555 1_555
C64_5 N3_5 1_555 1_555
H43_5 C64_5 1_555 1_555
C65_7 N3_5 1_555 1_555
H44_7 C65_7 1_555 1_555
H45_7 C65_7 1_555 1_555
C66_7 C65_7 1_555 1_555
H46_5 C66_7 1_555 1_555
H47_7 C66_7 1_555 1_555
N4_7 Mn1_5 1_555 1_555
C67_7 C68_7 1_555 1_555
C68_7 C59_7 1_555 1_555
C69_7 H48_7 1_555 1_555
C70_7 C67_7 1_555 1_555
H49_7 C70_7 1_555 1_555
C71_7 N5_4 1_555 1_555
H50_7 C71_7 1_555 1_555
C72_7 C67_7 1_555 1_555
H51_7 C72_7 1_555 1_555
Zn9_3 O12_3 1_555 1_555
C19_7 C21_5 1_555 1_555
C26_7 C39_7 1_555 1_555
C40_7 C44_7 1_555 1_555
C47_7 C55_7 1_555 1_555
C49_7 C52_7 1_555 1_555
C51_5 C54_7 1_555 1_555
C58_7 N4_7 1_555 1_555
C60_5 C62_5 1_555 1_555
C61_7 C68_7 1_555 1_555
C62_5 C63_5 1_555 1_555
C63_5 C64_5 1_555 1_555
C66_7 N4_7 1_555 1_555
C69_7 C70_7 1_555 1_555
C71_7 C72_7 1_555 1_555
Zn5_2 O4_7 1_555 1_555
O16_3 C7_7 1_555 1_555
O17_3 C5_7 1_555 1_555
O4_7 C7_7 1_555 1_555
O8_7 Zn5_2 1_555 1_555
C2_7 C3_7 1_555 1_555
C3_7 H1_7 1_555 1_555
C4_7 C5_7 1_555 1_555
C5_7 O8_7 1_555 1_555
C7_7 C2_7 1_555 1_555
C8_7 C4_7 1_555 1_555
H2_7 C8_7 1_555 1_555
C9_7 C1_7 1_555 1_555
H3_7 C9_7 1_555 1_555
C10_7 C9_7 1_555 1_555
H4_7 C10_7 1_555 1_555
C13_7 C1_7 1_555 1_555
C25_7 C3_7 1_555 1_555
H11_7 C25_7 1_555 1_555
C31_7 H16_7 1_555 1_555
C32_7 C2_7 1_555 1_555
H17_7 C32_7 1_555 1_555
C34_7 C25_7 1_555 1_555
C36_7 C13_7 1_555 1_555
H19_7 C36_7 1_555 1_555
C37_7 C4_7 1_555 1_555
H20_7 C37_7 1_555 1_555
C38_7 C10_7 1_555 1_555
C48_7 C46_7 1_555 1_555
H25_7 C48_7 1_555 1_555
H26_7 C48_7 1_555 1_555
H27_7 C48_7 1_555 1_555
C50_7 C37_7 1_555 1_555
C56_7 C46_7 1_555 1_555
H34_7 C56_7 1_555 1_555
H35_7 C56_7 1_555 1_555
H36_7 C56_7 1_555 1_555
C57_3 C46_7 1_555 1_555
H37_3 C57_3 1_555 1_555
H39_3 C57_3 1_555 1_555
C74_3 C73_3 1_555 1_555
H52_7 C74_3 1_555 1_555
H53_3 C74_3 1_555 1_555
C75_3 C73_3 1_555 1_555
H56_3 C75_3 1_555 1_555
H57_3 C75_3 1_555 1_555
C76_3 C73_3 1_555 1_555
H58_3 C76_3 1_555 1_555
H59_5 C76_3 1_555 1_555
H60_3 C76_3 1_555 1_555
C31_7 C32_7 1_555 1_555
C31_7 C34_7 1_555 1_555
C34_7 C38_7 1_555 1_555
C36_7 C38_7 1_555 1_555
Zn9_3 O7_7 1_555 1_555
O7_7 C23_7 1_555 1_555
O20_3 C23_7 1_555 1_555
C11_7 C22_7 1_555 1_555
C22_7 H9_7 1_555 1_555
C23_7 C11_7 1_555 1_555
C35_7 C11_7 1_555 1_555
H18_7 C35_7 1_555 1_555
C45_7 C22_7 1_555 1_555
H23_7 C45_7 1_555 1_555
C53_7 C35_7 1_555 1_555
H31_7 C53_7 1_555 1_555
C43_7 C45_7 1_555 1_555
C43_7 C53_7 1_555 1_555
O19_4 C12_8 1_555 1_555
O12_4 C12_8 1_555 1_555
C12_8 C15_8 1_555 1_555
C15_8 C24_8 1_555 1_555
C19_8 C20_8 1_555 1_555
C20_8 C29_8 1_555 1_555
C24_8 H10_8 1_555 1_555
C26_8 C15_8 1_555 1_555
H12_8 C26_8 1_555 1_555
C29_8 C24_8 1_555 1_555
H14_8 C29_8 1_555 1_555
C39_8 C20_8 1_555 1_555
H21_8 C39_8 1_555 1_555
C51_6 C19_8 1_555 1_555
H29_6 C51_6 1_555 1_555
Zn9_4 O12_4 1_555 1_555
C26_8 C39_8 1_555 1_555
Zn4_4 O6_8 1_555 1_555
Mn1_6 O13_8 1_555 1_555
O15_4 C6_8 1_555 1_555
O18_4 C17_8 1_555 1_555
O6_8 C17_8 1_555 1_555
O10_8 Zn4_4 1_555 1_555
N1_8 Zn4_4 1_555 1_555
O13_8 C41_8 1_555 1_555
C1_8 C6_8 1_555 1_555
C2_8 C3_8 1_555 1_555
C3_8 H1_8 1_555 1_555
C6_8 O10_8 1_555 1_555
C9_8 C1_8 1_555 1_555
H3_8 C9_8 1_555 1_555
C10_8 C9_8 1_555 1_555
H4_8 C10_8 1_555 1_555
C13_8 C1_8 1_555 1_555
H5_8 C13_8 1_555 1_555
C14_8 N1_8 1_555 1_555
H6_8 C14_8 1_555 1_555
C16_8 H7_8 1_555 1_555
C17_8 C18_8 1_555 1_555
C18_8 C16_8 1_555 1_555
C21_6 C16_8 1_555 1_555
H8_6 C21_6 1_555 1_555
C25_8 C3_8 1_555 1_555
H11_8 C25_8 1_555 1_555
C28_8 C30_8 1_555 1_555
C30_8 C14_8 1_555 1_555
H15_8 C30_8 1_555 1_555
C31_8 H16_8 1_555 1_555
C32_8 C2_8 1_555 1_555
H17_8 C32_8 1_555 1_555
C33_8 C40_8 1_555 1_555
C34_8 C25_8 1_555 1_555
C36_8 C13_8 1_555 1_555
H19_8 C36_8 1_555 1_555
C38_8 C10_8 1_555 1_555
C40_8 H22_8 1_555 1_555
C41_8 C33_8 1_555 1_555
C44_8 C28_8 1_555 1_555
C46_8 C33_8 1_555 1_555
C47_8 N1_8 1_555 1_555
H24_8 C47_8 1_555 1_555
C48_8 C46_8 1_555 1_555
H25_8 C48_8 1_555 1_555
H26_8 C48_8 1_555 1_555
H27_8 C48_8 1_555 1_555
C49_8 C41_8 1_555 1_555
C52_8 C44_8 1_555 1_555
H30_8 C52_8 1_555 1_555
C54_8 C18_8 1_555 1_555
H32_8 C54_8 1_555 1_555
C55_8 C28_8 1_555 1_555
H33_8 C55_8 1_555 1_555
O14_6 Mn1_6 1_555 1_555
C56_8 C46_8 1_555 1_555
H34_8 C56_8 1_555 1_555
H35_8 C56_8 1_555 1_555
H36_8 C56_8 1_555 1_555
C57_4 C46_8 1_555 1_555
H37_4 C57_4 1_555 1_555
H38_6 C57_4 1_555 1_555
H39_4 C57_4 1_555 1_555
C58_8 C49_8 1_555 1_555
H40_8 C58_8 1_555 1_555
N3_6 Mn1_6 1_555 1_555
C62_6 O14_6 1_555 1_555
C64_6 N3_6 1_555 1_555
H43_6 C64_6 1_555 1_555
C65_8 N3_6 1_555 1_555
H44_8 C65_8 1_555 1_555
H45_8 C65_8 1_555 1_555
C66_8 C65_8 1_555 1_555
H46_6 C66_8 1_555 1_555
H47_8 C66_8 1_555 1_555
N4_8 Mn1_6 1_555 1_555
C73_4 C60_6 1_555 1_555
C74_4 C73_4 1_555 1_555
H52_8 C74_4 1_555 1_555
H53_4 C74_4 1_555 1_555
H54_8 C74_4 1_555 1_555
C75_4 C73_4 1_555 1_555
H55_6 C75_4 1_555 1_555
H56_4 C75_4 1_555 1_555
H57_4 C75_4 1_555 1_555
C76_4 C73_4 1_555 1_555
H58_4 C76_4 1_555 1_555
H60_4 C76_4 1_555 1_555
C31_8 C32_8 1_555 1_555
C31_8 C34_8 1_555 1_555
C34_8 C38_8 1_555 1_555
C36_8 C38_8 1_555 1_555
C40_8 C44_8 1_555 1_555
C47_8 C55_8 1_555 1_555
C49_8 C52_8 1_555 1_555
C58_8 N4_8 1_555 1_555
C60_6 C62_6 1_555 1_555
C62_6 C63_6 1_555 1_555
C63_6 C64_6 1_555 1_555
C66_8 N4_8 1_555 1_555
Zn9_4 O7_8 1_555 1_555
O7_8 C23_8 1_555 1_555
O20_4 C23_8 1_555 1_555
C11_8 C22_8 1_555 1_555
C22_8 H9_8 1_555 1_555
C23_8 C11_8 1_555 1_555
C35_8 C11_8 1_555 1_555
H18_8 C35_8 1_555 1_555
C45_8 C22_8 1_555 1_555
H23_8 C45_8 1_555 1_555
C53_8 C35_8 1_555 1_555
H31_8 C53_8 1_555 1_555
C43_8 C45_8 1_555 1_555
C43_8 C53_8 1_555 1_555
Zn6_2 O4_8 1_555 1_555
O16_4 C7_8 1_555 1_555
O17_4 C5_8 1_555 1_555
O4_8 C7_8 1_555 1_555
O8_8 Zn6_2 1_555 1_555
C4_8 C5_8 1_555 1_555
C5_8 O8_8 1_555 1_555
C8_8 C4_8 1_555 1_555
H2_8 C8_8 1_555 1_555
C27_7 C8_8 1_555 1_555
H13_7 C27_7 1_555 1_555
C37_8 C4_8 1_555 1_555
H20_8 C37_8 1_555 1_555
C42_7 C27_7 1_555 1_555
C50_8 C37_8 1_555 1_555
C42_7 C50_8 1_555 1_555
N5_3 C69_8 1_555 1_555
C59_8 H41_8 1_555 1_555
C61_8 H42_8 1_555 1_555
C67_8 C68_8 1_555 1_555
C68_8 C59_8 1_555 1_555
C69_8 H48_8 1_555 1_555
C70_8 C67_8 1_555 1_555
H49_8 C70_8 1_555 1_555
C71_8 N5_3 1_555 1_555
H50_8 C71_8 1_555 1_555
C72_8 C67_8 1_555 1_555
H51_8 C72_8 1_555 1_555
C61_8 C68_8 1_555 1_555
C69_8 C70_8 1_555 1_555
C71_8 C72_8 1_555 1_555
H37_5 C57_5 1_555 1_555
H39_5 C57_5 1_555 1_555
C74_5 C73_5 1_555 1_555
H53_5 C74_5 1_555 1_555
C75_5 C73_5 1_555 1_555
H56_5 C75_5 1_555 1_555
H57_5 C75_5 1_555 1_555
C76_5 C73_5 1_555 1_555
H58_5 C76_5 1_555 1_555
H59_7 C76_5 1_555 1_555
H60_5 C76_5 1_555 1_555
H8_7 C21_7 1_555 1_555
O14_7 Mn1_7 1_555 1_555
H37_6 C57_6 1_555 1_555
H38_7 C57_6 1_555 1_555
H39_6 C57_6 1_555 1_555
N3_7 Mn1_7 1_555 1_555
C62_7 O14_7 1_555 1_555
C64_7 N3_7 1_555 1_555
H43_7 C64_7 1_555 1_555
C73_6 C60_7 1_555 1_555
C74_6 C73_6 1_555 1_555
H53_6 C74_6 1_555 1_555
C75_6 C73_6 1_555 1_555
H55_7 C75_6 1_555 1_555
H56_6 C75_6 1_555 1_555
H57_6 C75_6 1_555 1_555
C76_6 C73_6 1_555 1_555
H58_6 C76_6 1_555 1_555
H60_6 C76_6 1_555 1_555
C60_7 C62_7 1_555 1_555
C62_7 C63_7 1_555 1_555
C63_7 C64_7 1_555 1_555
H29_7 C51_7 1_555 1_555
H13_8 C27_8 1_555 1_555
C42_8 C27_8 1_555 1_555
H37_7 C57_7 1_555 1_555
H39_7 C57_7 1_555 1_555
C74_7 C73_7 1_555 1_555
H53_7 C74_7 1_555 1_555
C75_7 C73_7 1_555 1_555
H56_7 C75_7 1_555 1_555
H57_7 C75_7 1_555 1_555
C76_7 C73_7 1_555 1_555
H58_7 C76_7 1_555 1_555
H59_8 C76_7 1_555 1_555
H60_7 C76_7 1_555 1_555
H29_8 C51_8 1_555 1_555
H8_8 C21_8 1_555 1_555
O14_8 Mn1_8 1_555 1_555
H37_8 C57_8 1_555 1_555
H38_8 C57_8 1_555 1_555
H39_8 C57_8 1_555 1_555
N3_8 Mn1_8 1_555 1_555
C62_8 O14_8 1_555 1_555
C64_8 N3_8 1_555 1_555
H43_8 C64_8 1_555 1_555
C73_8 C60_8 1_555 1_555
C74_8 C73_8 1_555 1_555
H53_8 C74_8 1_555 1_555
C75_8 C73_8 1_555 1_555
H55_8 C75_8 1_555 1_555
H56_8 C75_8 1_555 1_555
H57_8 C75_8 1_555 1_555
C76_8 C73_8 1_555 1_555
H58_8 C76_8 1_555 1_555
H60_8 C76_8 1_555 1_555
C60_8 C62_8 1_555 1_555
C62_8 C63_8 1_555 1_555
C63_8 C64_8 1_555 1_555

#END
