
###############################################################################
#
# This file contains modified crystal structure data generated from the
# MOF subset of the Cambridge Structural Database (CSD) v543 
# hosted by the Cambridge Crystallographic Data Centre (CCDC).
#
# This work is licensed under the Creative Commons
# Attribution-NonCommercial-ShareAlike 4.0 International License.
# To view a copy of this license, visit
# http://creativecommons.org/licenses/by-nc-sa/4.0/
# or send a letter to
# Creative Commons, PO Box 1866, Mountain View, CA 94042, USA.
#
# CIF created using the CSD Python API on 29 September 2022
# The structure has been converted into the P1 space group
# The structure has a 3D framework
# The original CSD entry HAKVUN is in the hexagonal crystal system
# The framework has been calculated to contain at least 10.0% void space
# The void calculation uses a probe of radius 1.32A, grid spacing 0.4
# The framework is charged, counterions have been retained in the structure
# H atom positions have been added when not included in the experimental data
# Generated hydrogen atom positions removed from atoms on special positions
#
###############################################################################

data_HAKVUN
_chemical_formula_moiety         '(C51 H51 Ag9 In6 N13 O32 9+)n'
_symmetry_cell_setting           triclinic
_symmetry_space_group_name_H-M   'P 1'
_symmetry_Int_Tables_number      1
_space_group_name_Hall           'P 1'
loop_
_symmetry_equiv_pos_site_id
_symmetry_equiv_pos_as_xyz
1 x,y,z
_cell_length_a                   13.6360(10)
_cell_length_b                   13.6360(10)
_cell_length_c                   14.9222(13)
_cell_angle_alpha                90
_cell_angle_beta                 90
_cell_angle_gamma                120
_cell_volume                     2402.91
loop_
_atom_site_label
_atom_site_type_symbol
_atom_site_fract_x
_atom_site_fract_y
_atom_site_fract_z
C3 C -0.0000 0.3710(12) 0.5000
H1 H -0.0000 0.4392 0.5000
N1 N -0.0000 0.1660(10) 0.5000
Ag1 Ag -0.0000 0.0000 0.5000
O5 O 0.2282(8) 0.4369(11) 0.3485(6)
C5 C 0.0712(10) 0.3531(14) 0.4423(7)
C6 C 0.1453(9) 0.4421(13) 0.3757(7)
C7 C 0.0668(11) 0.2497(14) 0.4451(8)
H3 H 0.1134 0.2381 0.4063
O6 O 0.1144(7) 0.5122(12) 0.3531(6)
In7 In 0.17267(8) 0.64127(8) 0.2500
In10 In 0.35873(8) 0.53140(11) 0.2500
N4 N 0.1660(10) 0.0000 0.5000
Ag1_2 Ag -0.0000 1.0000 0.5000
N4_2 N 0.1660(10) 1.0000 0.5000
H11 H 0.0403819 0.595134 0.792701
In1 In 0.64127(8) 0.17267(8) 0.7500
O1 O 0.6667 0.3333 0.7500
O2 O 0.8856(7) 0.3978(10) 0.6469(6)
O3 O 0.7718(8) 0.2087(7) 0.6515(6)
O4 O 0.6162(13) 0.0073(11) 0.7500
C1 C 0.9288(10) 0.2819(10) 0.5577(7)
C2 C 0.8547(9) 0.2968(10) 0.6243(7)
C3_2 C 1.0000 0.3710(12) 0.5000
H1_2 H 1.0000 0.4392 0.5000
C4 C 0.9332(11) 0.1829(9) 0.5549(8)
H2 H 0.8866 0.1247 0.5937
N1_2 N 1.0000 0.1660(10) 0.5000
Ag1_3 Ag 1.0000 0.0000 0.5000
In3 In 0.53140(11) 0.35873(8) 0.7500
O12 O 0.5122(12) 0.1144(7) 0.6469(6)
O13 O 0.4369(11) 0.2282(8) 0.6515(6)
O14 O 0.3911(17) 0.3838(13) 0.7500
C15 C 0.3531(14) 0.0712(10) 0.5577(7)
C16 C 0.4421(13) 0.1453(9) 0.6243(7)
C17 C 0.3710(12) 0.0000 0.5000
H7 H 0.4392 0.0000 0.5000
C18 C 0.2497(14) 0.0668(11) 0.5549(8)
H8 H 0.2381 0.1134 0.5937
In4 In 0.82733(8) 0.46860(11) 0.7500
O19 O 0.6022(10) 0.4878(12) 0.6469(6)
O21 O 0.6022(10) 0.4878(12) 0.8531(6)
O22 O 0.5122(12) 0.1144(7) 0.8531(6)
O23 O 0.7718(8) 0.2087(7) 0.8485(6)
O25 O 0.4369(11) 0.2282(8) 0.8485(6)
H12 H 0.687275 0.00957588 0.768457
Ag1_4 Ag 1.0000 1.0000 0.5000
O8 O 0.7913(7) 0.5631(11) 0.6515(6)
O9 O 0.9927(11) 0.6089(17) 0.7500
C8 C 0.7181(10) 0.6469(14) 0.5577(7)
C9 C 0.7032(10) 0.5579(13) 0.6243(7)
C10 C 0.6290(12) 0.6290(12) 0.5000
H4 H 0.5608 0.5608 0.5000
C11 C 0.8171(9) 0.7503(14) 0.5549(8)
H5 H 0.8753 0.7619 0.5937
N2 N 0.8340(10) 0.8340(10) 0.5000
O10 O 0.5631(11) 0.7913(7) 0.3485(6)
C12 C 0.6469(14) 0.7181(10) 0.4423(7)
C13 C 0.5579(13) 0.7032(10) 0.3757(7)
C14 C 0.7503(14) 0.8171(9) 0.4451(8)
H6 H 0.7619 0.8753 0.4063
O11 O 0.4878(12) 0.6022(10) 0.3531(6)
C17_2 C 0.3710(12) 1.0000 0.5000
H7_2 H 0.4392 1.0000 0.5000
O15 O 0.2087(7) 0.7718(8) 0.3485(6)
C19 C 0.2819(10) 0.9288(10) 0.4423(7)
C20 C 0.2968(10) 0.8547(9) 0.3757(7)
C21 C 0.1829(9) 0.9332(11) 0.4451(8)
H9 H 0.1247 0.8866 0.4063
O16 O 0.3978(10) 0.8856(7) 0.3531(6)
In8 In 0.46860(11) 0.82733(8) 0.2500
O20 O 0.8856(7) 0.3978(10) 0.8531(6)
O24 O 0.7913(7) 0.5631(11) 0.8485(6)
H10 H 0.990424 0.677699 0.768457
H13 H 0.554752 0.959618 0.792701
C3_3 C -0.0000 0.3710(12) -0.0000
H1_3 H -0.0000 0.4392 -0.0000
N1_3 N -0.0000 0.1660(10) -0.0000
Ag1_5 Ag -0.0000 0.0000 -0.0000
O5_2 O 0.2282(8) 0.4369(11) 0.1515(6)
C5_2 C 0.0712(10) 0.3531(14) 0.0577(7)
C6_2 C 0.1453(9) 0.4421(13) 0.1243(7)
C7_2 C 0.0668(11) 0.2497(14) 0.0549(8)
H3_2 H 0.1134 0.2381 0.0937
O6_2 O 0.1144(7) 0.5122(12) 0.1469(6)
N4_3 N 0.1660(10) 0.0000 -0.0000
C3_4 C -0.0000 0.3710(12) 1.0000
H1_4 H -0.0000 0.4392 1.0000
N1_4 N -0.0000 0.1660(10) 1.0000
Ag1_6 Ag -0.0000 0.0000 1.0000
N4_4 N 0.1660(10) 0.0000 1.0000
Ag1_7 Ag -0.0000 1.0000 -0.0000
N4_5 N 0.1660(10) 1.0000 -0.0000
Ag1_8 Ag -0.0000 1.0000 1.0000
N4_6 N 0.1660(10) 1.0000 1.0000
H11_2 H 0.0403819 0.595134 0.707299
C3_5 C 1.0000 0.3710(12) -0.0000
H1_5 H 1.0000 0.4392 -0.0000
N1_5 N 1.0000 0.1660(10) -0.0000
Ag1_9 Ag 1.0000 0.0000 -0.0000
C17_3 C 0.3710(12) 0.0000 -0.0000
H7_3 H 0.4392 0.0000 -0.0000
C1_2 C 0.9288(10) 0.2819(10) 0.9423(7)
C2_2 C 0.8547(9) 0.2968(10) 0.8757(7)
C3_6 C 1.0000 0.3710(12) 1.0000
H1_6 H 1.0000 0.4392 1.0000
C4_2 C 0.9332(11) 0.1829(9) 0.9451(8)
H2_2 H 0.8866 0.1247 0.9063
N1_6 N 1.0000 0.1660(10) 1.0000
Ag1_10 Ag 1.0000 0.0000 1.0000
C15_2 C 0.3531(14) 0.0712(10) 0.9423(7)
C16_2 C 0.4421(13) 0.1453(9) 0.8757(7)
C17_4 C 0.3710(12) 0.0000 1.0000
H7_4 H 0.4392 0.0000 1.0000
C18_2 C 0.2497(14) 0.0668(11) 0.9451(8)
H8_2 H 0.2381 0.1134 0.9063
H12_2 H 0.687275 0.00957588 0.731543
Ag1_11 Ag 1.0000 1.0000 -0.0000
C10_2 C 0.6290(12) 0.6290(12) -0.0000
H4_2 H 0.5608 0.5608 -0.0000
N2_2 N 0.8340(10) 0.8340(10) -0.0000
O10_2 O 0.5631(11) 0.7913(7) 0.1515(6)
C12_2 C 0.6469(14) 0.7181(10) 0.0577(7)
C13_2 C 0.5579(13) 0.7032(10) 0.1243(7)
C14_2 C 0.7503(14) 0.8171(9) 0.0549(8)
H6_2 H 0.7619 0.8753 0.0937
O11_2 O 0.4878(12) 0.6022(10) 0.1469(6)
C17_5 C 0.3710(12) 1.0000 -0.0000
H7_5 H 0.4392 1.0000 -0.0000
O15_2 O 0.2087(7) 0.7718(8) 0.1515(6)
C19_2 C 0.2819(10) 0.9288(10) 0.0577(7)
C20_2 C 0.2968(10) 0.8547(9) 0.1243(7)
C21_2 C 0.1829(9) 0.9332(11) 0.0549(8)
H9_2 H 0.1247 0.8866 0.0937
O16_2 O 0.3978(10) 0.8856(7) 0.1469(6)
Ag1_12 Ag 1.0000 1.0000 1.0000
C8_2 C 0.7181(10) 0.6469(14) 0.9423(7)
C9_2 C 0.7032(10) 0.5579(13) 0.8757(7)
C10_3 C 0.6290(12) 0.6290(12) 1.0000
H4_3 H 0.5608 0.5608 1.0000
C11_2 C 0.8171(9) 0.7503(14) 0.9451(8)
H5_2 H 0.8753 0.7619 0.9063
N2_3 N 0.8340(10) 0.8340(10) 1.0000
C17_6 C 0.3710(12) 1.0000 1.0000
H7_6 H 0.4392 1.0000 1.0000
H10_2 H 0.990424 0.677699 0.731543
H13_2 H 0.554752 0.959618 0.707299
O1_2 O 0.3333 0.6667 0.2500
O4_2 O 0.0073(11) 0.6162(13) 0.2500
O14_2 O 0.3838(13) 0.3911(17) 0.2500
H12_3 H 0.00957588 0.687275 0.231543
H11_3 H 0.595134 0.0403819 0.207299
O9_2 O 0.6089(17) 0.9927(11) 0.2500
H10_3 H 0.677699 0.990424 0.231543
H13_3 H 0.959618 0.554752 0.207299
H12_4 H 0.00957588 0.687275 0.268457
H11_4 H 0.595134 0.0403819 0.292701
H10_4 H 0.677699 0.990424 0.268457
H13_4 H 0.959618 0.554752 0.292701
loop_
_geom_bond_atom_site_label_1
_geom_bond_atom_site_label_2
_geom_bond_site_symmetry_1
_geom_bond_site_symmetry_2
H1 C3 1_555 1_555
Ag1 N1 1_555 1_555
O5 C6 1_555 1_555
C5 C3 1_555 1_555
C6 C5 1_555 1_555
C7 N1 1_555 1_555
H3 C7 1_555 1_555
O6 C6 1_555 1_555
In7 O6 1_555 1_555
In10 O5 1_555 1_555
N4 Ag1 1_555 1_555
C5 C7 1_555 1_555
N4_2 Ag1_2 1_555 1_555
In1 O1 1_555 1_555
O1 In3 1_555 1_555
O2 C2 1_555 1_555
O3 In1 1_555 1_555
O4 In1 1_555 1_555
C1 C2 1_555 1_555
C2 O3 1_555 1_555
C3_2 C1 1_555 1_555
H1_2 C3_2 1_555 1_555
C4 C1 1_555 1_555
H2 C4 1_555 1_555
N1_2 C4 1_555 1_555
Ag1_3 N1_2 1_555 1_555
In3 O13 1_555 1_555
O12 In1 1_555 1_555
O13 C16 1_555 1_555
O14 In3 1_555 1_555
C15 C16 1_555 1_555
C16 O12 1_555 1_555
C17 C15 1_555 1_555
H7 C17 1_555 1_555
C18 C15 1_555 1_555
H8 C18 1_555 1_555
N4 C18 1_555 1_555
In4 O1 1_555 1_555
O19 In3 1_555 1_555
O21 In3 1_555 1_555
O22 In1 1_555 1_555
O23 In1 1_555 1_555
O25 In3 1_555 1_555
O2 In4 1_555 1_555
O4 H12 1_555 1_555
In4 O8 1_555 1_555
O19 C9 1_555 1_555
O8 C9 1_555 1_555
O9 In4 1_555 1_555
C8 C9 1_555 1_555
C10 C8 1_555 1_555
H4 C10 1_555 1_555
C11 C8 1_555 1_555
H5 C11 1_555 1_555
N2 Ag1_4 1_555 1_555
O10 C13 1_555 1_555
C12 C10 1_555 1_555
C13 C12 1_555 1_555
C14 N2 1_555 1_555
H6 C14 1_555 1_555
O11 C13 1_555 1_555
H7_2 C17_2 1_555 1_555
O15 C20 1_555 1_555
C19 C17_2 1_555 1_555
C20 C19 1_555 1_555
C21 N4_2 1_555 1_555
H9 C21 1_555 1_555
O16 C20 1_555 1_555
In7 O15 1_555 1_555
In8 O10 1_555 1_555
In10 O11 1_555 1_555
O20 In4 1_555 1_555
O24 In4 1_555 1_555
C11 N2 1_555 1_555
C12 C14 1_555 1_555
C19 C21 1_555 1_555
O16 In8 1_555 1_555
O9 H10 1_555 1_555
H1_3 C3_3 1_555 1_555
Ag1_5 N1_3 1_555 1_555
O5_2 C6_2 1_555 1_555
C5_2 C3_3 1_555 1_555
C6_2 C5_2 1_555 1_555
C7_2 N1_3 1_555 1_555
H3_2 C7_2 1_555 1_555
O6_2 C6_2 1_555 1_555
In7 O6_2 1_555 1_555
In10 O5_2 1_555 1_555
N4_3 Ag1_5 1_555 1_555
C5_2 C7_2 1_555 1_555
H1_4 C3_4 1_555 1_555
Ag1_6 N1_4 1_555 1_555
N4_4 Ag1_6 1_555 1_555
N4_5 Ag1_7 1_555 1_555
N4_6 Ag1_8 1_555 1_555
H1_5 C3_5 1_555 1_555
Ag1_9 N1_5 1_555 1_555
H7_3 C17_3 1_555 1_555
O20 C2_2 1_555 1_555
C1_2 C2_2 1_555 1_555
C2_2 O23 1_555 1_555
C3_6 C1_2 1_555 1_555
H1_6 C3_6 1_555 1_555
C4_2 C1_2 1_555 1_555
H2_2 C4_2 1_555 1_555
N1_6 C4_2 1_555 1_555
Ag1_10 N1_6 1_555 1_555
O25 C16_2 1_555 1_555
C15_2 C16_2 1_555 1_555
C16_2 O22 1_555 1_555
C17_4 C15_2 1_555 1_555
H7_4 C17_4 1_555 1_555
C18_2 C15_2 1_555 1_555
H8_2 C18_2 1_555 1_555
N4_4 C18_2 1_555 1_555
O4 H12_2 1_555 1_555
H4_2 C10_2 1_555 1_555
N2_2 Ag1_11 1_555 1_555
O10_2 C13_2 1_555 1_555
C12_2 C10_2 1_555 1_555
C13_2 C12_2 1_555 1_555
C14_2 N2_2 1_555 1_555
H6_2 C14_2 1_555 1_555
O11_2 C13_2 1_555 1_555
H7_5 C17_5 1_555 1_555
O15_2 C20_2 1_555 1_555
C19_2 C17_5 1_555 1_555
C20_2 C19_2 1_555 1_555
C21_2 N4_5 1_555 1_555
H9_2 C21_2 1_555 1_555
O16_2 C20_2 1_555 1_555
In7 O15_2 1_555 1_555
In8 O10_2 1_555 1_555
In10 O11_2 1_555 1_555
C12_2 C14_2 1_555 1_555
C19_2 C21_2 1_555 1_555
O16_2 In8 1_555 1_555
O21 C9_2 1_555 1_555
O24 C9_2 1_555 1_555
C8_2 C9_2 1_555 1_555
C10_3 C8_2 1_555 1_555
H4_3 C10_3 1_555 1_555
C11_2 C8_2 1_555 1_555
H5_2 C11_2 1_555 1_555
N2_3 Ag1_12 1_555 1_555
H7_6 C17_6 1_555 1_555
C11_2 N2_3 1_555 1_555
O9 H10_2 1_555 1_555
In7 O1_2 1_555 1_555
O1_2 In10 1_555 1_555
O4_2 In7 1_555 1_555
O14_2 In10 1_555 1_555
In8 O1_2 1_555 1_555
O4_2 H12_3 1_555 1_555
O9_2 In8 1_555 1_555
O9_2 H10_3 1_555 1_555
O4_2 H12_4 1_555 1_555
O9_2 H10_4 1_555 1_555

#END
