
###############################################################################
#
# This file contains modified crystal structure data generated from the
# MOF subset of the Cambridge Structural Database (CSD) v543 
# hosted by the Cambridge Crystallographic Data Centre (CCDC).
#
# This work is licensed under the Creative Commons
# Attribution-NonCommercial-ShareAlike 4.0 International License.
# To view a copy of this license, visit
# http://creativecommons.org/licenses/by-nc-sa/4.0/
# or send a letter to
# Creative Commons, PO Box 1866, Mountain View, CA 94042, USA.
#
# CIF created using the CSD Python API on 29 September 2022
# The structure has been converted into the P1 space group
# The structure has a 3D framework
# The original CSD entry HAKVIB is in the hexagonal crystal system
# The framework has been calculated to contain at least 10.0% void space
# The void calculation uses a probe of radius 1.32A, grid spacing 0.4
# The framework is charged, counterions have been retained in the structure
#
###############################################################################

data_HAKVIB
_chemical_formula_moiety         '(C60 H36 Ag6 In6 N18 O26 1+)n'
_symmetry_cell_setting           triclinic
_symmetry_space_group_name_H-M   'P 1'
_symmetry_Int_Tables_number      1
_space_group_name_Hall           'P 1'
loop_
_symmetry_equiv_pos_site_id
_symmetry_equiv_pos_as_xyz
1 x,y,z
_cell_length_a                   15.727(3)
_cell_length_b                   15.727(3)
_cell_length_c                   16.957(4)
_cell_angle_alpha                90
_cell_angle_beta                 90
_cell_angle_gamma                120
_cell_volume                     3632.21
loop_
_atom_site_label
_atom_site_type_symbol
_atom_site_fract_x
_atom_site_fract_y
_atom_site_fract_z
C15 C 0.5892(9) 0.0305(7) 0.0323(5)
C16 C 0.4413(6) 0.0305(7) 0.0323(5)
H9 H 0.6508 0.0507 0.0539
C22 C 0.5309(8) 0.0618(7) 0.0651(5)
H10 H 0.3999 0.0507 0.0539
C28 C 0.5654(8) 0.1309(7) 0.1333(5)
O16 O 0.5079(4) 0.1566(3) 0.1599(3)
O17 O 0.6487(3) 0.1566(3) 0.1599(3)
In8 In 0.51748(4) 0.25874(3) 0.2500
In9 In 0.74126(3) 0.25874(3) 0.2500
Ag2 Ag 0.15083(15) 0.07541(17) 0.7500
N7 N 0.1463(7) 0.2074(10) 0.7500
N9 N 0.0611(7) 0.2074(10) 0.7500
C21 C 0.2142(10) 0.2993(14) 0.7500
C27 C 0.0851(10) 0.2993(14) 0.7500
N11 N 0.1793(4) 0.3586(6) 0.7500
H14 H 0.2810 0.3205 0.7500
H18 H 0.0395 0.3205 0.7500
In5 In 0.25874(3) 0.51748(4) 0.7500
In1 In 0.25874(3) 0.74126(3) 0.7500
O1 O 0.3333 0.6667 0.7500
O2 O 0.1566(3) 0.6487(3) 0.6599(3)
N1 N 0.1793(4) 0.8207(4) 0.7500
C1 C 0.1309(7) 0.5655(3) 0.6333(5)
C2 C 0.0851(10) 0.7858(10) 0.7500
C3 C 0.0618(7) 0.5309(3) 0.5651(5)
N2 N 0.0611(7) 0.8537(7) 0.7500
H1 H 0.0395 0.7190 0.7500
C4 C 0.0305(7) 0.4413(6) 0.5323(5)
H2 H 0.0507 0.3999 0.5539
O3 O 0.3513(3) 0.8434(3) 0.8401(3)
O4 O 0.1566(3) 0.6487(3) 0.8401(3)
O5 O 0.3513(3) 0.8434(3) 0.6599(3)
In3 In 0.48252(4) 0.74126(3) 0.7500
C5 C 0.2142(10) 0.9149(10) 0.7500
C6 C 0.4345(3) 0.8691(7) 0.8667(5)
O6 O 0.1566(3) 0.5079(4) 0.6599(3)
O7 O 0.3513(3) 0.5079(4) 0.6599(3)
O8 O 0.1566(3) 0.5079(4) 0.8401(3)
O9 O 0.3513(3) 0.5079(4) 0.8401(3)
O10 O 0.4921(4) 0.6487(3) 0.6599(3)
O11 O 0.4921(4) 0.6487(3) 0.8401(3)
O12 O 0.4921(4) 0.8434(3) 0.8401(3)
O13 O 0.4921(4) 0.8434(3) 0.6599(3)
N4 N 0.6414(6) 0.8207(4) 0.7500
N5 N 0.1463(7) 0.9389(7) 0.7500
H3 H 0.2810 0.9605 0.7500
C7 C 0.4691(3) 0.9382(7) 0.9349(5)
C8 C 0.4345(3) 0.5654(8) 0.6333(5)
C9 C 0.0305(7) 0.5892(9) 0.5323(5)
C10 C 0.5587(6) 0.9695(7) 0.9677(5)
C11 C 0.4108(9) 0.9695(7) 0.9677(5)
C12 C 0.4691(3) 0.5309(8) 0.5651(5)
H4 H 0.0507 0.6508 0.5539
H5 H 0.6001 0.9493 0.9461
H6 H 0.3492 0.9493 0.9461
C17 C 0.5587(6) 0.5892(9) 0.5323(5)
C18 C 0.4108(9) 0.4413(6) 0.5323(5)
H11 H 0.6001 0.6508 0.5539
C23 C 0.5892(9) 0.5587(6) 0.4677(5)
C24 C 0.4413(6) 0.4108(9) 0.4677(5)
H12 H 0.3492 0.3999 0.5539
C29 C 0.5309(8) 0.4691(3) 0.4349(5)
H15 H 0.6508 0.6001 0.4461
H16 H 0.3999 0.3492 0.4461
C30 C 0.5654(8) 0.4345(3) 0.3667(5)
O18 O 0.5079(4) 0.3513(3) 0.3401(3)
O19 O 0.6487(3) 0.4921(4) 0.3401(3)
In11 In 0.74126(3) 0.48252(4) 0.2500
Ag3 Ag 0.92459(17) 0.07542(7) 0.7500
Ag1 Ag 0.92458(7) 0.84917(15) 0.7500
C13 C 0.9695(7) 0.4108(9) 0.4677(5)
C14 C 0.9695(7) 0.5587(6) 0.4677(5)
N6 N 0.7926(10) 0.8537(7) 0.7500
C19 C 0.9382(7) 0.4691(8) 0.4349(5)
H7 H 0.9493 0.3492 0.4461
H8 H 0.9493 0.6001 0.4461
N8 N 0.7926(10) 0.9389(7) 0.7500
C20 C 0.7007(14) 0.7858(10) 0.7500
C25 C 0.8691(7) 0.4346(8) 0.3667(5)
C26 C 0.7007(14) 0.9149(10) 0.7500
H13 H 0.6795 0.7190 0.7500
O14 O 0.8434(3) 0.4921(4) 0.3401(3)
O15 O 0.8434(3) 0.3513(3) 0.3401(3)
H17 H 0.6795 0.9605 0.7500
C23_2 C 0.4413(6) 0.0305(11) 0.4677(5)
C24_2 C 0.5892(9) 0.0305(11) 0.4677(5)
C29_2 C 0.5309(3) 0.0618(9) 0.4349(5)
H15_2 H 0.3999 0.0507 0.4461
H16_2 H 0.6508 0.0507 0.4461
C30_2 C 0.5655(3) 0.1309(9) 0.3667(5)
O18_2 O 0.6487(3) 0.1566(5) 0.3401(3)
O19_2 O 0.5079(4) 0.1566(5) 0.3401(3)
C6_2 C 0.1309(7) 0.5654(8) 0.8667(5)
C7_2 C 0.0618(7) 0.5309(8) 0.9349(5)
C8_2 C 0.4346(8) 0.8691(9) 0.6333(5)
C10_2 C 0.0305(7) 0.5892(9) 0.9677(5)
C11_2 C 0.0305(7) 0.4413(11) 0.9677(5)
C12_2 C 0.4691(8) 0.9382(9) 0.5651(5)
H5_2 H 0.0507 0.6508 0.9461
H6_2 H 0.0507 0.3999 0.9461
C17_2 C 0.4108(9) 0.9695(11) 0.5323(5)
C18_2 C 0.5587(6) 0.9695(11) 0.5323(5)
H11_2 H 0.3492 0.9493 0.5539
H12_2 H 0.6001 0.9493 0.5539
C15_2 C 0.9695(7) 0.5587(11) 0.0323(5)
C16_2 C 0.9695(7) 0.4108(9) 0.0323(5)
H9_2 H 0.9493 0.6001 0.0539
C22_2 C 0.9382(7) 0.4691(11) 0.0651(5)
H10_2 H 0.9493 0.3492 0.0539
C28_2 C 0.8691(7) 0.4345(11) 0.1333(5)
O16_2 O 0.8434(3) 0.3513(5) 0.1599(3)
O17_2 O 0.8434(3) 0.4921(4) 0.1599(3)
C15_3 C 0.4413(11) 0.4108(9) 0.0323(5)
C16_3 C 0.5892(9) 0.5587(6) 0.0323(5)
H9_3 H 0.3999 0.3492 0.0539
C22_3 C 0.5309(11) 0.4691(8) 0.0651(5)
H10_3 H 0.6508 0.6001 0.0539
C28_3 C 0.5655(11) 0.4346(8) 0.1333(5)
O16_3 O 0.6487(5) 0.4921(4) 0.1599(3)
O17_3 O 0.5079(4) 0.3513(3) 0.1599(3)
C6_3 C 0.4346(8) 0.5655(3) 0.8667(5)
C7_3 C 0.4691(8) 0.5309(3) 0.9349(5)
C10_3 C 0.4108(9) 0.4413(6) 0.9677(5)
C11_3 C 0.5587(11) 0.5892(9) 0.9677(5)
H5_3 H 0.3492 0.3999 0.9461
H6_3 H 0.6001 0.6508 0.9461
Ag1_2 Ag 0.07542(7) 0.15083(15) 0.2500
N6_2 N 0.2074(10) 0.1463(7) 0.2500
N8_2 N 0.2074(10) 0.0611(7) 0.2500
C20_2 C 0.2993(14) 0.2142(10) 0.2500
C26_2 C 0.2993(14) 0.0851(10) 0.2500
N10 N 0.3586(6) 0.1793(4) 0.2500
H13_2 H 0.3205 0.2810 0.2500
H17_2 H 0.3205 0.0395 0.2500
Ag3_2 Ag 0.07541(17) 0.92458(7) 0.2500
O1_2 O 0.6667 0.3333 0.2500
N1_2 N 0.8207(4) 0.1793(4) 0.2500
C2_2 C 0.9149(10) 0.2142(10) 0.2500
N2_2 N 0.9389(7) 0.1463(7) 0.2500
H1_2 H 0.9605 0.2810 0.2500
C5_2 C 0.7858(10) 0.0851(10) 0.2500
N3 N 0.8207(4) 0.6414(6) 0.2500
N5_2 N 0.8537(7) 0.0611(7) 0.2500
H3_2 H 0.7190 0.0395 0.2500
Ag2_2 Ag 0.84917(15) 0.92459(17) 0.2500
N7_2 N 0.8537(7) 0.7926(10) 0.2500
N9_2 N 0.9389(7) 0.7926(10) 0.2500
C21_2 C 0.7858(10) 0.7007(14) 0.2500
C27_2 C 0.9149(10) 0.7007(14) 0.2500
H14_2 H 0.7190 0.6795 0.2500
H18_2 H 0.9605 0.6795 0.2500
loop_
_geom_bond_atom_site_label_1
_geom_bond_atom_site_label_2
_geom_bond_site_symmetry_1
_geom_bond_site_symmetry_2
H9 C15 1_555 1_555
C22 C15 1_555 1_555
H10 C16 1_555 1_555
C28 C22 1_555 1_555
O16 C28 1_555 1_555
O17 C28 1_555 1_555
In8 O16 1_555 1_555
In9 O17 1_555 1_555
C16 C22 1_555 1_555
N7 Ag2 1_555 1_555
N9 N7 1_555 1_555
C21 N7 1_555 1_555
C27 N9 1_555 1_555
N11 C21 1_555 1_555
H14 C21 1_555 1_555
H18 C27 1_555 1_555
In5 N11 1_555 1_555
C27 N11 1_555 1_555
In1 O1 1_555 1_555
O1 In5 1_555 1_555
O2 In1 1_555 1_555
N1 In1 1_555 1_555
C1 O2 1_555 1_555
C2 N1 1_555 1_555
C3 C1 1_555 1_555
N2 C2 1_555 1_555
H1 C2 1_555 1_555
C4 C3 1_555 1_555
H2 C4 1_555 1_555
O3 In1 1_555 1_555
O4 In1 1_555 1_555
O5 In1 1_555 1_555
In5 O6 1_555 1_555
In3 O1 1_555 1_555
C5 N1 1_555 1_555
C6 O3 1_555 1_555
O6 C1 1_555 1_555
O7 In5 1_555 1_555
O8 In5 1_555 1_555
O9 In5 1_555 1_555
O10 In3 1_555 1_555
O11 In3 1_555 1_555
O12 In3 1_555 1_555
O13 In3 1_555 1_555
N4 In3 1_555 1_555
N5 N2 1_555 1_555
H3 C5 1_555 1_555
C7 C6 1_555 1_555
C8 O7 1_555 1_555
C9 C3 1_555 1_555
C10 C7 1_555 1_555
C11 C7 1_555 1_555
C12 C8 1_555 1_555
H4 C9 1_555 1_555
H5 C10 1_555 1_555
H6 C11 1_555 1_555
C17 C12 1_555 1_555
C18 C12 1_555 1_555
H11 C17 1_555 1_555
C23 C17 1_555 1_555
C24 C18 1_555 1_555
H12 C18 1_555 1_555
C29 C23 1_555 1_555
H15 C23 1_555 1_555
H16 C24 1_555 1_555
C30 C29 1_555 1_555
O18 C30 1_555 1_555
O19 C30 1_555 1_555
In8 O18 1_555 1_555
In11 O19 1_555 1_555
C5 N5 1_555 1_555
C6 O12 1_555 1_555
O10 C8 1_555 1_555
C24 C29 1_555 1_555
N6 Ag1 1_555 1_555
C19 C13 1_555 1_555
H7 C13 1_555 1_555
H8 C14 1_555 1_555
N8 N6 1_555 1_555
C20 N6 1_555 1_555
C25 C19 1_555 1_555
C26 N8 1_555 1_555
N4 C20 1_555 1_555
H13 C20 1_555 1_555
O14 C25 1_555 1_555
O15 C25 1_555 1_555
H17 C26 1_555 1_555
In11 O14 1_555 1_555
In9 O15 1_555 1_555
C14 C19 1_555 1_555
C26 N4 1_555 1_555
C29_2 C23_2 1_555 1_555
H15_2 C23_2 1_555 1_555
H16_2 C24_2 1_555 1_555
C30_2 C29_2 1_555 1_555
O18_2 C30_2 1_555 1_555
O19_2 C30_2 1_555 1_555
In9 O18_2 1_555 1_555
In8 O19_2 1_555 1_555
C24_2 C29_2 1_555 1_555
C6_2 O8 1_555 1_555
C7_2 C6_2 1_555 1_555
C8_2 O13 1_555 1_555
C10_2 C7_2 1_555 1_555
C11_2 C7_2 1_555 1_555
C12_2 C8_2 1_555 1_555
H5_2 C10_2 1_555 1_555
H6_2 C11_2 1_555 1_555
C17_2 C12_2 1_555 1_555
C18_2 C12_2 1_555 1_555
H11_2 C17_2 1_555 1_555
H12_2 C18_2 1_555 1_555
C6_2 O4 1_555 1_555
O5 C8_2 1_555 1_555
H9_2 C15_2 1_555 1_555
C22_2 C15_2 1_555 1_555
H10_2 C16_2 1_555 1_555
C28_2 C22_2 1_555 1_555
O16_2 C28_2 1_555 1_555
O17_2 C28_2 1_555 1_555
In9 O16_2 1_555 1_555
In11 O17_2 1_555 1_555
C16_2 C22_2 1_555 1_555
H9_3 C15_3 1_555 1_555
C22_3 C15_3 1_555 1_555
H10_3 C16_3 1_555 1_555
C28_3 C22_3 1_555 1_555
O16_3 C28_3 1_555 1_555
O17_3 C28_3 1_555 1_555
In11 O16_3 1_555 1_555
In8 O17_3 1_555 1_555
C16_3 C22_3 1_555 1_555
C6_3 O11 1_555 1_555
C7_3 C6_3 1_555 1_555
C10_3 C7_3 1_555 1_555
C11_3 C7_3 1_555 1_555
H5_3 C10_3 1_555 1_555
H6_3 C11_3 1_555 1_555
C6_3 O9 1_555 1_555
N6_2 Ag1_2 1_555 1_555
N8_2 N6_2 1_555 1_555
C20_2 N6_2 1_555 1_555
C26_2 N8_2 1_555 1_555
N10 C20_2 1_555 1_555
H13_2 C20_2 1_555 1_555
H17_2 C26_2 1_555 1_555
In8 N10 1_555 1_555
C26_2 N10 1_555 1_555
In9 O1_2 1_555 1_555
O1_2 In11 1_555 1_555
N1_2 In9 1_555 1_555
C2_2 N1_2 1_555 1_555
N2_2 C2_2 1_555 1_555
H1_2 C2_2 1_555 1_555
In8 O1_2 1_555 1_555
C5_2 N1_2 1_555 1_555
N3 In11 1_555 1_555
N5_2 N2_2 1_555 1_555
H3_2 C5_2 1_555 1_555
C5_2 N5_2 1_555 1_555
N7_2 Ag2_2 1_555 1_555
N9_2 N7_2 1_555 1_555
C21_2 N7_2 1_555 1_555
C27_2 N9_2 1_555 1_555
N3 C21_2 1_555 1_555
H14_2 C21_2 1_555 1_555
H18_2 C27_2 1_555 1_555
C27_2 N3 1_555 1_555

#END
