
###############################################################################
#
# This file contains modified crystal structure data generated from the
# MOF subset of the Cambridge Structural Database (CSD) v543 
# hosted by the Cambridge Crystallographic Data Centre (CCDC).
#
# This work is licensed under the Creative Commons
# Attribution-NonCommercial-ShareAlike 4.0 International License.
# To view a copy of this license, visit
# http://creativecommons.org/licenses/by-nc-sa/4.0/
# or send a letter to
# Creative Commons, PO Box 1866, Mountain View, CA 94042, USA.
#
# CIF created using the CSD Python API on 29 September 2022
# The structure has been converted into the P1 space group
# The structure has a 3D framework
# The original CSD entry HAKWAU is in the hexagonal crystal system
# The framework has been calculated to contain at least 10.0% void space
# The void calculation uses a probe of radius 1.32A, grid spacing 0.4
# H atom positions have been added when not included in the experimental data
# Generated hydrogen atom positions removed from atoms on special positions
#
###############################################################################

data_HAKWAU
_chemical_formula_moiety         '(C51 H45 Cu6 Mg6 N13 O32)n'
_symmetry_cell_setting           triclinic
_symmetry_space_group_name_H-M   'P 1'
_symmetry_Int_Tables_number      1
_space_group_name_Hall           'P 1'
loop_
_symmetry_equiv_pos_site_id
_symmetry_equiv_pos_as_xyz
1 x,y,z
_cell_length_a                   13.1696(12)
_cell_length_b                   13.1696(12)
_cell_length_c                   14.7973(17)
_cell_angle_alpha                90
_cell_angle_beta                 90
_cell_angle_gamma                120
_cell_volume                     2222.58
loop_
_atom_site_label
_atom_site_type_symbol
_atom_site_fract_x
_atom_site_fract_y
_atom_site_fract_z
Cu1 Cu -0.0000 -0.0000 0.5000
N4 N 0.1510(5) 0.1510(5) 0.5000
Cu1_2 Cu -0.0000 1.0000 0.5000
O4 O 0.0036(5) 0.4005(6) 0.7500
N1 N -0.0000 0.8490(5) 0.5000
C4 C -0.0000 0.6368(5) 0.5000
H2 H 0.0000 0.5662 0.5000
O5 O 0.1178(4) 0.6079(5) 0.3522(2)
C5 C 0.0724(4) 0.8315(6) 0.4457(3)
H3 H 0.1250 0.8931 0.4095
C6 C 0.0722(4) 0.7264(6) 0.4413(3)
C7 C 0.1515(4) 0.7116(6) 0.3740(3)
O6 O 0.2377(3) 0.8028(5) 0.3473(3)
Mg5 Mg 0.36465(19) 0.8340(2) 0.2500
Mg9 Mg 0.1660(2) 0.53065(28) 0.2500
Cu1_3 Cu 1.0000 -0.0000 0.5000
N5 N 0.8490(5) -0.0000 0.5000
Cu1_4 Cu 1.0000 1.0000 0.5000
Mg1 Mg 0.8340(2) 0.36465(19) 0.7500
O1 O 0.6667 0.3333 0.7500
O2 O 0.8822(4) 0.4901(3) 0.6478(2)
O3 O 0.7623(3) 0.5651(4) 0.6527(3)
C1 C 0.9276(4) 0.7591(4) 0.5543(3)
H1 H 0.8750 0.7681 0.5905
C2 C 0.9278(4) 0.6542(4) 0.5587(3)
C3 C 0.8485(4) 0.5601(5) 0.6260(3)
N1_2 N 1.0000 0.8490(5) 0.5000
C4_2 C 1.0000 0.6368(5) 0.5000
H2_2 H 1.0000 0.5662 0.5000
Mg2 Mg 0.63535(19) 0.46935(28) 0.7500
O7 O 0.5099(3) 0.3921(5) 0.6478(2)
O8 O 0.4349(4) 0.1972(5) 0.6527(3)
O9 O 0.5995(6) 0.6031(8) 0.7500
C8 C 0.2409(4) 0.1685(6) 0.5543(3)
H4 H 0.2319 0.1069 0.5905
C9 C 0.3458(4) 0.2736(6) 0.5587(3)
C10 C 0.4399(5) 0.2884(6) 0.6260(3)
C11 C 0.3632(5) 0.3632(5) 0.5000
H5 H 0.4338 0.4338 0.5000
O10 O 0.3921(5) 0.5099(3) 0.3522(2)
C12 C 0.1685(6) 0.2409(4) 0.4457(3)
H6 H 0.1069 0.2319 0.4095
C13 C 0.2736(6) 0.3458(4) 0.4413(3)
C14 C 0.2884(6) 0.4399(5) 0.3740(3)
O11 O 0.1972(5) 0.4349(4) 0.3473(3)
Mg3 Mg 0.53065(28) 0.1660(2) 0.7500
O12 O 0.6079(5) 0.1178(4) 0.6478(2)
O13 O 0.8028(5) 0.2377(3) 0.6527(3)
C15 C 0.8315(6) 0.0724(4) 0.5543(3)
H7 H 0.8931 0.1250 0.5905
C16 C 0.7264(6) 0.0722(4) 0.5587(3)
C17 C 0.7116(6) 0.1515(4) 0.6260(3)
C18 C 0.6368(5) 0.0000 0.5000
H8 H 0.5662 0.0000 0.5000
Mg7 Mg 0.46935(28) 0.63535(19) 0.2500
O17 O 0.8822(4) 0.4901(3) 0.8522(2)
O18 O 0.5099(3) 0.3921(5) 0.8522(2)
O19 O 0.6079(5) 0.1178(4) 0.8522(2)
O20 O 0.7623(3) 0.5651(4) 0.8473(3)
O21 O 0.4349(4) 0.1972(5) 0.8473(3)
O22 O 0.8028(5) 0.2377(3) 0.8473(3)
N5_2 N 0.8490(5) 1.0000 0.5000
O14 O 0.3969(8) 0.9964(5) 0.7500
C18_2 C 0.6368(5) 1.0000 0.5000
H8_2 H 0.5662 1.0000 0.5000
O15 O 0.4901(3) 0.8822(4) 0.3522(2)
C19 C 0.7591(4) 0.9276(4) 0.4457(3)
H9 H 0.7681 0.8750 0.4095
C20 C 0.6542(4) 0.9278(4) 0.4413(3)
C21 C 0.5601(5) 0.8485(4) 0.3740(3)
O16 O 0.5651(4) 0.7623(3) 0.3473(3)
Cu1_5 Cu -0.0000 -0.0000 0.0000
N4_2 N 0.1510(5) 0.1510(5) 0.0000
Cu1_6 Cu -0.0000 -0.0000 1.0000
N4_3 N 0.1510(5) 0.1510(5) 1.0000
Cu1_7 Cu -0.0000 1.0000 0.0000
N1_3 N -0.0000 0.8490(5) 0.0000
C4_3 C -0.0000 0.6368(5) 0.0000
H2_3 H 0.0000 0.5662 0.0000
O5_2 O 0.1178(4) 0.6079(5) 0.1478(2)
C5_2 C 0.0724(4) 0.8315(6) 0.0543(3)
H3_2 H 0.1250 0.8931 0.0905
C6_2 C 0.0722(4) 0.7264(6) 0.0587(3)
C7_2 C 0.1515(4) 0.7116(6) 0.1260(3)
O6_2 O 0.2377(3) 0.8028(5) 0.1527(3)
Cu1_8 Cu -0.0000 1.0000 1.0000
N1_4 N -0.0000 0.8490(5) 1.0000
C4_4 C -0.0000 0.6368(5) 1.0000
H2_4 H 0.0000 0.5662 1.0000
Cu1_9 Cu 1.0000 -0.0000 0.0000
N5_3 N 0.8490(5) -0.0000 0.0000
Cu1_10 Cu 1.0000 -0.0000 1.0000
N5_4 N 0.8490(5) -0.0000 1.0000
Cu1_11 Cu 1.0000 1.0000 0.0000
N1_5 N 1.0000 0.8490(5) 0.0000
C4_5 C 1.0000 0.6368(5) 0.0000
H2_5 H 1.0000 0.5662 0.0000
C11_2 C 0.3632(5) 0.3632(5) 0.0000
H5_2 H 0.4338 0.4338 0.0000
O10_2 O 0.3921(5) 0.5099(3) 0.1478(2)
C12_2 C 0.1685(6) 0.2409(4) 0.0543(3)
H6_2 H 0.1069 0.2319 0.0905
C13_2 C 0.2736(6) 0.3458(4) 0.0587(3)
C14_2 C 0.2884(6) 0.4399(5) 0.1260(3)
O11_2 O 0.1972(5) 0.4349(4) 0.1527(3)
C18_3 C 0.6368(5) 0.0000 0.0000
H8_3 H 0.5662 0.0000 0.0000
N5_5 N 0.8490(5) 1.0000 0.0000
Cu1_12 Cu 1.0000 1.0000 1.0000
C1_2 C 0.9276(4) 0.7591(4) 0.9457(3)
H1_2 H 0.8750 0.7681 0.9095
C2_2 C 0.9278(4) 0.6542(4) 0.9413(3)
C3_2 C 0.8485(4) 0.5601(5) 0.8740(3)
N1_6 N 1.0000 0.8490(5) 1.0000
C4_6 C 1.0000 0.6368(5) 1.0000
H2_6 H 1.0000 0.5662 1.0000
C8_2 C 0.2409(4) 0.1685(6) 0.9457(3)
H4_2 H 0.2319 0.1069 0.9095
C9_2 C 0.3458(4) 0.2736(6) 0.9413(3)
C10_2 C 0.4399(5) 0.2884(6) 0.8740(3)
C11_3 C 0.3632(5) 0.3632(5) 1.0000
H5_3 H 0.4338 0.4338 1.0000
C15_2 C 0.8315(6) 0.0724(4) 0.9457(3)
H7_2 H 0.8931 0.1250 0.9095
C16_2 C 0.7264(6) 0.0722(4) 0.9413(3)
C17_2 C 0.7116(6) 0.1515(4) 0.8740(3)
C18_4 C 0.6368(5) 0.0000 1.0000
H8_4 H 0.5662 0.0000 1.0000
N5_6 N 0.8490(5) 1.0000 1.0000
C18_5 C 0.6368(5) 1.0000 0.0000
H8_5 H 0.5662 1.0000 0.0000
O15_2 O 0.4901(3) 0.8822(4) 0.1478(2)
C19_2 C 0.7591(4) 0.9276(4) 0.0543(3)
H9_2 H 0.7681 0.8750 0.0905
C20_2 C 0.6542(4) 0.9278(4) 0.0587(3)
C21_2 C 0.5601(5) 0.8485(4) 0.1260(3)
O16_2 O 0.5651(4) 0.7623(3) 0.1527(3)
C18_6 C 0.6368(5) 1.0000 1.0000
H8_6 H 0.5662 1.0000 1.0000
O4_2 O 0.4005(6) 0.0036(5) 0.2500
O1_2 O 0.3333 0.6667 0.2500
O9_2 O 0.6031(8) 0.5995(6) 0.2500
O14_2 O 0.9964(5) 0.3969(8) 0.2500
loop_
_geom_bond_atom_site_label_1
_geom_bond_atom_site_label_2
_geom_bond_site_symmetry_1
_geom_bond_site_symmetry_2
N4 Cu1 1_555 1_555
Cu1_2 N1 1_555 1_555
H2 C4 1_555 1_555
O5 C7 1_555 1_555
C5 N1 1_555 1_555
H3 C5 1_555 1_555
C6 C4 1_555 1_555
C7 C6 1_555 1_555
O6 C7 1_555 1_555
Mg5 O6 1_555 1_555
Mg9 O5 1_555 1_555
C5 C6 1_555 1_555
N5 Cu1_3 1_555 1_555
Cu1_4 N1_2 1_555 1_555
Mg1 O1 1_555 1_555
O1 Mg2 1_555 1_555
O2 Mg1 1_555 1_555
O3 C3 1_555 1_555
C1 H1 1_555 1_555
C2 C1 1_555 1_555
C3 O2 1_555 1_555
N1_2 C1 1_555 1_555
C4_2 C2 1_555 1_555
H2_2 C4_2 1_555 1_555
Mg2 O3 1_555 1_555
O7 Mg2 1_555 1_555
O8 C10 1_555 1_555
O9 Mg2 1_555 1_555
C8 H4 1_555 1_555
C9 C8 1_555 1_555
C10 O7 1_555 1_555
N4 C8 1_555 1_555
C11 C9 1_555 1_555
H5 C11 1_555 1_555
O10 C14 1_555 1_555
C12 N4 1_555 1_555
H6 C12 1_555 1_555
C13 C11 1_555 1_555
C14 C13 1_555 1_555
O11 C14 1_555 1_555
Mg3 O1 1_555 1_555
O12 Mg3 1_555 1_555
O13 Mg1 1_555 1_555
C15 H7 1_555 1_555
C16 C15 1_555 1_555
C17 O12 1_555 1_555
N5 C15 1_555 1_555
C18 C16 1_555 1_555
H8 C18 1_555 1_555
Mg7 O10 1_555 1_555
Mg9 O11 1_555 1_555
O17 Mg1 1_555 1_555
O18 Mg2 1_555 1_555
O19 Mg3 1_555 1_555
O20 Mg2 1_555 1_555
O21 Mg3 1_555 1_555
O22 Mg1 1_555 1_555
N5_2 Cu1_4 1_555 1_555
C2 C3 1_555 1_555
O8 Mg3 1_555 1_555
C9 C10 1_555 1_555
C12 C13 1_555 1_555
O13 C17 1_555 1_555
C16 C17 1_555 1_555
H8_2 C18_2 1_555 1_555
O15 C21 1_555 1_555
C19 N5_2 1_555 1_555
H9 C19 1_555 1_555
C20 C18_2 1_555 1_555
C21 C20 1_555 1_555
O16 C21 1_555 1_555
Mg5 O15 1_555 1_555
Mg7 O16 1_555 1_555
C19 C20 1_555 1_555
N4_2 Cu1_5 1_555 1_555
N4_3 Cu1_6 1_555 1_555
Cu1_7 N1_3 1_555 1_555
H2_3 C4_3 1_555 1_555
O5_2 C7_2 1_555 1_555
C5_2 N1_3 1_555 1_555
H3_2 C5_2 1_555 1_555
C6_2 C4_3 1_555 1_555
C7_2 C6_2 1_555 1_555
O6_2 C7_2 1_555 1_555
Mg5 O6_2 1_555 1_555
Mg9 O5_2 1_555 1_555
C5_2 C6_2 1_555 1_555
Cu1_8 N1_4 1_555 1_555
H2_4 C4_4 1_555 1_555
N5_3 Cu1_9 1_555 1_555
N5_4 Cu1_10 1_555 1_555
Cu1_11 N1_5 1_555 1_555
H2_5 C4_5 1_555 1_555
H5_2 C11_2 1_555 1_555
O10_2 C14_2 1_555 1_555
C12_2 N4_2 1_555 1_555
H6_2 C12_2 1_555 1_555
C13_2 C11_2 1_555 1_555
C14_2 C13_2 1_555 1_555
O11_2 C14_2 1_555 1_555
H8_3 C18_3 1_555 1_555
Mg7 O10_2 1_555 1_555
Mg9 O11_2 1_555 1_555
N5_5 Cu1_11 1_555 1_555
C12_2 C13_2 1_555 1_555
Cu1_12 N1_6 1_555 1_555
O20 C3_2 1_555 1_555
C1_2 H1_2 1_555 1_555
C2_2 C1_2 1_555 1_555
C3_2 O17 1_555 1_555
N1_6 C1_2 1_555 1_555
C4_6 C2_2 1_555 1_555
H2_6 C4_6 1_555 1_555
O21 C10_2 1_555 1_555
C8_2 H4_2 1_555 1_555
C9_2 C8_2 1_555 1_555
C10_2 O18 1_555 1_555
N4_3 C8_2 1_555 1_555
C11_3 C9_2 1_555 1_555
H5_3 C11_3 1_555 1_555
C15_2 H7_2 1_555 1_555
C16_2 C15_2 1_555 1_555
C17_2 O19 1_555 1_555
N5_4 C15_2 1_555 1_555
C18_4 C16_2 1_555 1_555
H8_4 C18_4 1_555 1_555
N5_6 Cu1_12 1_555 1_555
C2_2 C3_2 1_555 1_555
C9_2 C10_2 1_555 1_555
O22 C17_2 1_555 1_555
C16_2 C17_2 1_555 1_555
H8_5 C18_5 1_555 1_555
O15_2 C21_2 1_555 1_555
C19_2 N5_5 1_555 1_555
H9_2 C19_2 1_555 1_555
C20_2 C18_5 1_555 1_555
C21_2 C20_2 1_555 1_555
O16_2 C21_2 1_555 1_555
Mg5 O15_2 1_555 1_555
Mg7 O16_2 1_555 1_555
C19_2 C20_2 1_555 1_555
H8_6 C18_6 1_555 1_555
Mg5 O1_2 1_555 1_555
O1_2 Mg7 1_555 1_555
O9_2 Mg7 1_555 1_555
Mg9 O1_2 1_555 1_555

#END
