
###############################################################################
#
# This file contains modified crystal structure data generated from the
# MOF subset of the Cambridge Structural Database (CSD) v543 
# hosted by the Cambridge Crystallographic Data Centre (CCDC).
#
# This work is licensed under the Creative Commons
# Attribution-NonCommercial-ShareAlike 4.0 International License.
# To view a copy of this license, visit
# http://creativecommons.org/licenses/by-nc-sa/4.0/
# or send a letter to
# Creative Commons, PO Box 1866, Mountain View, CA 94042, USA.
#
# CIF created using the CSD Python API on 29 September 2022
# The structure has been converted into the P1 space group
# The structure has a 3D framework
# The original CSD entry HAKWUM is in the triclinic crystal system
# The framework has been calculated to contain at least 10.0% void space
# The void calculation uses a probe of radius 1.32A, grid spacing 0.4
#
###############################################################################

data_HAKWUM
_chemical_formula_moiety         '(C2 H8 F2 Ga6 O8 P2)n'
_symmetry_cell_setting           triclinic
_symmetry_space_group_name_H-M   'P 1'
_symmetry_Int_Tables_number      1
_space_group_name_Hall           'P 1'
loop_
_symmetry_equiv_pos_site_id
_symmetry_equiv_pos_as_xyz
1 x,y,z
_cell_length_a                   5.0432(2)
_cell_length_b                   7.2468(3)
_cell_length_c                   8.3499(4)
_cell_angle_alpha                107.489(2)
_cell_angle_beta                 92.444(2)
_cell_angle_gamma                109.338(2)
_cell_volume                     271.189
loop_
_atom_site_label
_atom_site_type_symbol
_atom_site_fract_x
_atom_site_fract_y
_atom_site_fract_z
Ga7 Ga 0.5 0.00000 0.00000
Ga7_2 Ga 0.5 -0.00000 1.00000
Ga6 Ga 0.0000 0.50000 -0.00000
F2 F 0.1947(5) 0.7972(4) 0.0589(3)
O10 O 0.2256(7) 0.5097(5) 0.2005(4)
Ga6_2 Ga 0.0000 0.50000 1.00000
Ga7_3 Ga 0.5 1.00000 0.00000
O9 O 0.2690(6) 0.4336(4) 0.8557(4)
Ga7_4 Ga 0.5 1.00000 1.00000
Ga6_3 Ga 1.0000 0.50000 -0.00000
P1 P 0.4873(2) 0.45363(16) 0.22397(13)
O1 O 0.7310(6) 0.5664(4) 0.1443(4)
O2 O 0.4069(6) 0.2186(4) 0.1632(4)
C1 C 0.6084(8) 0.5483(7) 0.4497(5)
H1 H 0.7804 0.521 0.4702
H2 H 0.657 0.6974 0.4916
O4 O 0.7763(8) 0.0052(6) 0.1854(5)
H4 H 0.9797 0.0942 0.1872
C2 C 0.3916(8) 0.4517(7) 0.5503(5)
P2 P 0.5127(2) 0.54637(16) 0.77603(13)
O6 O 0.5931(6) 0.7814(4) 0.8368(4)
O7 O 0.7744(7) 0.4903(5) 0.7995(4)
H5 H 0.2196 0.479 0.5298
H6 H 0.343 0.3026 0.5084
Ga6_4 Ga 1.0000 0.50000 1.00000
F1 F 0.8053(5) 0.2028(4) 0.9411(3)
H7 H 0.2166 0.1226 0.7813
H3 H 0.7834 0.8774 0.2187
O8 O 0.2237(8) 0.9948(6) 0.8146(5)
H8 H 0.0203 0.9058 0.8128
loop_
_geom_bond_atom_site_label_1
_geom_bond_atom_site_label_2
_geom_bond_site_symmetry_1
_geom_bond_site_symmetry_2
F2 Ga6 1_555 1_555
O10 Ga6 1_555 1_555
Ga7_3 F2 1_555 1_555
O9 Ga6_2 1_555 1_555
P1 O1 1_555 1_555
O1 Ga6_3 1_555 1_555
O2 P1 1_555 1_555
C1 P1 1_555 1_555
H1 C1 1_555 1_555
H2 C1 1_555 1_555
O10 P1 1_555 1_555
O4 Ga7 1_555 1_555
H4 O4 1_555 1_555
C2 C1 1_555 1_555
P2 C2 1_555 1_555
O9 P2 1_555 1_555
O6 P2 1_555 1_555
O7 P2 1_555 1_555
H5 C2 1_555 1_555
H6 C2 1_555 1_555
Ga7_4 O6 1_555 1_555
Ga6_4 O7 1_555 1_555
Ga7 O2 1_555 1_555
Ga6_4 F1 1_555 1_555
Ga7_2 F1 1_555 1_555
O8 Ga7_4 1_555 1_555
H8 O8 1_555 1_555

#END
