
###############################################################################
#
# This file contains modified crystal structure data generated from the
# MOF subset of the Cambridge Structural Database (CSD) v543 
# hosted by the Cambridge Crystallographic Data Centre (CCDC).
#
# This work is licensed under the Creative Commons
# Attribution-NonCommercial-ShareAlike 4.0 International License.
# To view a copy of this license, visit
# http://creativecommons.org/licenses/by-nc-sa/4.0/
# or send a letter to
# Creative Commons, PO Box 1866, Mountain View, CA 94042, USA.
#
# CIF created using the CSD Python API on 29 September 2022
# The structure has been converted into the P1 space group
# The structure has a 3D framework
# The original CSD entry HALNOB is in the orthorhombic crystal system
# The original CSD entry HALNOB is in a Sohncke space group
# The framework has been calculated to contain at least 10.0% void space
# The void calculation uses a probe of radius 1.32A, grid spacing 0.4
# The framework is charged, counterions have been retained in the structure
# H atom positions have been added when not included in the experimental data
#
###############################################################################

data_HALNOB
_chemical_formula_moiety         '(C960 H560 Eu16 N192 O120 Ru16 32+)n'
_symmetry_cell_setting           triclinic
_symmetry_space_group_name_H-M   'P 1'
_symmetry_Int_Tables_number      1
_space_group_name_Hall           'P 1'
loop_
_symmetry_equiv_pos_site_id
_symmetry_equiv_pos_as_xyz
1 x,y,z
_cell_length_a                   37.1447(7)
_cell_length_b                   38.972(4)
_cell_length_c                   42.3711(12)
_cell_angle_alpha                90
_cell_angle_beta                 90
_cell_angle_gamma                90
_cell_volume                     61336.5
loop_
_atom_site_label
_atom_site_type_symbol
_atom_site_fract_x
_atom_site_fract_y
_atom_site_fract_z
H2 H 0.001988 0.617132 0.424700
C28 C 0.0659(4) 0.7223(9) 0.4741(4)
C29 C 0.0893(7) 0.6976(7) 0.4859(6)
H18 H 0.082370 0.674150 0.485994
C30 C 0.1228(6) 0.7072(8) 0.4975(5)
H19 H 0.138779 0.690339 0.505558
C31 C 0.1329(3) 0.7416(9) 0.4973(3)
C32 C 0.1096(6) 0.7663(7) 0.4855(5)
H20 H 0.116486 0.789749 0.485370
C33 C 0.0761(6) 0.7567(8) 0.4739(5)
H21 H 0.060076 0.773561 0.465805
C105 C 0.1684(5) 0.7488(8) 0.5099(4)
O14 O 0.1827(5) 0.7779(8) 0.5119(5)
N22 N 0.0213(6) 0.6804(6) 0.4525(5)
C116 C 0.0297(4) 0.7129(8) 0.4659(5)
O15 O 0.1899(5) 0.7270(10) 0.5208(5)
Eu5 Eu 0.24153(7) 0.76382(15) 0.53231(7)
Eu1 Eu 0.73706(6) 0.29986(14) 0.46163(6)
Eu2 Eu 0.75847(7) 0.23618(15) 0.53231(7)
Ru1 Ru 0.62623(8) 0.60828(18) 0.63197(8)
Ru2 Ru 0.86817(8) 0.67114(17) 0.37680(8)
C1 C 0.9576(9) 0.6016(6) 0.4002(6)
H1 H 0.965744 0.578920 0.396324
C2 C 0.9791(4) 0.6243(9) 0.4171(5)
C3 C 0.9673(8) 0.6576(8) 0.4228(4)
C4 C 0.9338(9) 0.6681(6) 0.4117(5)
N1 N 0.9123(5) 0.6454(10) 0.3948(5)
C5 C 0.9242(7) 0.6122(9) 0.3891(4)
H3 H 0.909485 0.596670 0.377586
C6 C 0.8019(9) 0.5614(7) 0.4138(5)
C7 C 0.8112(10) 0.5508(6) 0.3835(5)
C8 C 0.8240(6) 0.5748(6) 0.3616(4)
C9 C 0.8306(6) 0.5659(6) 0.3304(5)
H4 H 0.823006 0.544228 0.322650
C10 C 0.8483(6) 0.5887(8) 0.3105(3)
H5 H 0.852787 0.582649 0.289191
C11 C 0.8594(5) 0.6205(7) 0.3219(4)
H6 H 0.871474 0.636089 0.308310
N2 N 0.8528(5) 0.6294(6) 0.3531(5)
C12 C 0.8351(5) 0.6066(6) 0.3730(3)
N3 N 0.8360(5) 0.6499(6) 0.4133(4)
C13 C 0.8274(6) 0.6604(6) 0.4437(5)
H7 H 0.831953 0.683375 0.450084
C14 C 0.8120(6) 0.6374(8) 0.4648(3)
H8 H 0.806092 0.644577 0.485617
C15 C 0.8053(6) 0.6038(7) 0.4555(3)
H9 H 0.794765 0.588020 0.469956
C16 C 0.8139(6) 0.5932(6) 0.4251(4)
C17 C 0.8293(5) 0.6163(6) 0.4040(3)
O1 O 0.7006(6) 0.7160(11) 0.9257(6)
C18 C 0.8215(6) 0.7626(9) 0.1418(6)
H10 H 0.840116 0.769857 0.127988
C19 C 0.7861(7) 0.7610(9) 0.1311(4)
C20 C 0.7589(5) 0.7504(10) 0.1513(6)
H11 H 0.734733 0.749271 0.143997
C21 C 0.7669(6) 0.7413(9) 0.1823(5)
H12 H 0.748302 0.734038 0.196075
C22 C 0.8023(7) 0.7429(9) 0.1930(4)
C23 C 0.8295(5) 0.7535(10) 0.1727(6)
H13 H 0.853686 0.754624 0.180067
O2 O 0.3249(6) 0.7152(9) 0.4792(5)
O3 O 0.7573(6) 0.7094(11) 0.9158(6)
O4 O 0.8013(6) 0.7859(9) 0.0829(5)
O5 O 0.7993(6) 0.2964(12) 0.4583(6)
N4 N 0.8251(6) 0.6975(7) 0.3577(4)
C24 C 0.7719(5) 0.7216(8) 0.3204(6)
H14 H 0.752912 0.730073 0.307609
C25 C 0.7638(8) 0.7115(9) 0.3510(6)
H15 H 0.739864 0.713312 0.358724
C26 C 0.7909(6) 0.6989(9) 0.3704(6)
H16 H 0.786106 0.691544 0.391315
O6 O 0.6883(6) 0.2372(13) 0.5327(7)
O7 O 0.7474(6) 0.7685(10) 0.0861(5)
C27 C 0.7908(10) 0.5053(7) 0.4074(7)
N5 N 0.8030(8) 0.5162(8) 0.3778(6)
H17 H 0.805059 0.504365 0.360240
N6 N 0.7918(8) 0.5312(8) 0.4302(6)
N7 N 0.8919(6) 0.6925(6) 0.3389(5)
C34 C 0.9265(7) 0.6907(7) 0.3270(7)
H22 H 0.944352 0.682083 0.341023
C35 C 0.9382(9) 0.6999(7) 0.2973(6)
H23 H 0.962733 0.697631 0.291240
C36 C 0.9124(5) 0.7126(8) 0.2769(7)
H24 H 0.919168 0.719514 0.256215
C37 C 0.7773(7) 0.7722(6) 0.0992(5)
N8 N 0.8513(4) 0.7401(11) 0.2341(4)
C38 C 0.8150(5) 0.7448(12) 0.2244(3)
N9 N 0.7929(4) 0.7439(11) 0.2518(4)
H25 H 0.770297 0.750472 0.253193
C39 C 0.8148(3) 0.7301(7) 0.2769(3)
C40 C 0.8063(4) 0.7199(6) 0.3075(3)
C41 C 0.8330(6) 0.7074(5) 0.3273(3)
C42 C 0.8683(5) 0.7051(5) 0.3166(4)
C43 C 0.8769(3) 0.7153(6) 0.2861(4)
C44 C 0.8501(3) 0.7278(7) 0.2662(3)
N10 N 0.6079(8) 0.6489(8) 0.6035(5)
C45 C 0.6247(4) 0.6799(9) 0.5965(6)
H26 H 0.647797 0.684809 0.605086
C46 C 0.6078(7) 0.7036(7) 0.5770(7)
H27 H 0.619314 0.724707 0.572227
C47 C 0.5741(7) 0.6963(8) 0.5645(6)
H28 H 0.562523 0.712510 0.551120
C48 C 0.5573(5) 0.6654(9) 0.5714(6)
C49 C 0.5742(8) 0.6417(6) 0.5910(7)
O8 O 0.7431(5) 0.2934(8) 0.5221(5)
C50 C 0.7724(7) 0.4032(7) 0.4334(7)
C51 C 0.7694(7) 0.4121(8) 0.4017(6)
H29 H 0.764309 0.394980 0.386418
C52 C 0.7740(6) 0.4460(9) 0.3925(4)
H30 H 0.771928 0.452121 0.370826
C53 C 0.7814(7) 0.4711(6) 0.4149(7)
C54 C 0.7844(6) 0.4622(8) 0.4465(6)
H31 H 0.789518 0.479349 0.461847
C55 C 0.7799(6) 0.4283(9) 0.4558(4)
H32 H 0.781899 0.422208 0.477439
O9 O 0.3145(6) 0.6637(10) 0.4711(5)
O10 O 0.7596(7) 0.3569(8) 0.4706(5)
O11 O 0.7488(7) 0.3474(9) 0.4265(6)
C56 C 0.9248(7) 0.7569(8) 0.4388(5)
H33 H 0.938091 0.772972 0.451013
C57 C 0.8913(8) 0.7658(6) 0.4268(6)
H34 H 0.881649 0.787985 0.430740
C58 C 0.8719(4) 0.7423(9) 0.4089(5)
H35 H 0.848960 0.748416 0.400670
N11 N 0.8860(7) 0.7099(8) 0.4031(5)
C59 C 0.9195(8) 0.7010(6) 0.4151(6)
C60 C 0.9389(4) 0.7245(10) 0.4330(6)
O12 O 0.7450(5) 0.2440(7) 0.4790(5)
C61 C 0.7317(5) 0.3476(7) 0.5895(7)
H36 H 0.739092 0.330171 0.603744
C62 C 0.7307(4) 0.3409(5) 0.5573(8)
C63 C 0.7199(5) 0.3665(8) 0.5364(4)
H37 H 0.719180 0.361910 0.514341
C64 C 0.7103(5) 0.3986(7) 0.5477(6)
H38 H 0.702911 0.416090 0.533397
C65 C 0.7113(5) 0.4053(5) 0.5799(7)
C66 C 0.7221(6) 0.3798(8) 0.6008(4)
H39 H 0.722823 0.384352 0.622800
C67 C 0.6651(5) 0.6409(10) 0.6831(6)
C68 C 0.6928(7) 0.6550(10) 0.7009(5)
C69 C 0.7259(6) 0.6618(9) 0.6870(6)
H40 H 0.744821 0.671434 0.699228
C70 C 0.7313(5) 0.6546(9) 0.6552(6)
H41 H 0.753925 0.659300 0.645734
C71 C 0.7036(7) 0.6406(10) 0.6374(4)
H42 H 0.707278 0.635640 0.615666
N12 N 0.6705(5) 0.6337(9) 0.6513(6)
C72 C 0.6296(5) 0.6387(10) 0.6943(6)
N13 N 0.6036(7) 0.6280(10) 0.6729(4)
C73 C 0.5686(6) 0.6216(10) 0.6831(6)
H43 H 0.550861 0.614268 0.668411
C74 C 0.5597(4) 0.6259(10) 0.7147(6)
H44 H 0.535807 0.621518 0.721621
C75 C 0.5857(7) 0.6366(10) 0.7361(4)
H45 H 0.579574 0.639536 0.757720
C76 C 0.6206(6) 0.6430(9) 0.7260(6)
C77 C 0.6808(7) 0.6704(10) 0.7279(4)
C78 C 0.6459(6) 0.6642(10) 0.7402(6)
N14 N 0.6476(5) 0.6677(10) 0.7736(5)
C79 C 0.6836(6) 0.6761(11) 0.7818(4)
N15 N 0.7041(4) 0.6777(10) 0.7536(6)
H46 H 0.727234 0.682455 0.752318
C80 C 0.5353(9) 0.5428(6) 0.6064(7)
H47 H 0.527088 0.519807 0.608429
C81 C 0.5668(7) 0.5531(8) 0.6213(5)
H48 H 0.580197 0.537107 0.633511
N16 N 0.5788(5) 0.5867(10) 0.6183(5)
C82 C 0.5592(9) 0.6101(6) 0.6004(7)
C83 C 0.5277(8) 0.5998(9) 0.5855(6)
C84 C 0.5157(5) 0.5662(10) 0.5885(6)
H49 H 0.494133 0.559132 0.578311
C85 C 0.7254(6) 0.7104(17) 0.9065(6)
N17 N 0.6416(6) 0.5624(6) 0.6526(7)
C86 C 0.6349(5) 0.5519(8) 0.6834(6)
H50 H 0.625498 0.567768 0.698332
C87 C 0.6420(6) 0.5183(10) 0.6924(4)
H51 H 0.637374 0.511141 0.713459
C88 C 0.6557(6) 0.4951(6) 0.6706(7)
H52 H 0.660566 0.472129 0.676731
C89 C 0.6625(4) 0.5056(7) 0.6398(6)
C90 C 0.6554(5) 0.5392(8) 0.6308(4)
C91 C 0.6652(6) 0.5974(6) 0.5638(8)
H53 H 0.660572 0.620810 0.559119
N18 N 0.6575(5) 0.5844(8) 0.5936(6)
C92 C 0.6643(6) 0.5502(9) 0.6004(4)
C93 C 0.6789(6) 0.5288(5) 0.5774(7)
C94 C 0.6866(5) 0.5418(8) 0.5476(6)
H54 H 0.696597 0.527196 0.531939
C95 C 0.6798(6) 0.5761(9) 0.5408(4)
H55 H 0.685130 0.584899 0.520446
N19 N 0.4739(5) 0.6211(7) 0.5512(6)
C96 C 0.5089(6) 0.6209(8) 0.5645(6)
C97 C 0.5241(4) 0.6541(9) 0.5603(6)
N20 N 0.4983(7) 0.6747(6) 0.5444(6)
H56 H 0.501136 0.696362 0.539023
C98 C 0.4673(5) 0.6544(8) 0.5388(6)
C99 C 0.7146(7) 0.7003(10) 0.8756(4)
C100 C 0.7408(5) 0.6919(10) 0.8534(6)
H57 H 0.765413 0.691201 0.859390
C101 C 0.7309(6) 0.6845(10) 0.8225(5)
H58 H 0.748770 0.678747 0.807372
C102 C 0.6948(7) 0.6855(10) 0.8138(4)
C103 C 0.6687(5) 0.6939(11) 0.8359(6)
H59 H 0.644039 0.694576 0.829917
C104 C 0.6786(6) 0.7013(10) 0.8668(5)
H60 H 0.660682 0.707030 0.881935
C106 C 0.7629(11) 0.3695(7) 0.4438(6)
O13 O 0.7507(5) 0.2841(8) 0.5671(6)
C107 C 0.3361(5) 0.6853(9) 0.4815(3)
C108 C 0.4371(4) 0.6626(9) 0.5210(4)
C109 C 0.4253(6) 0.6963(8) 0.5185(5)
H61 H 0.440168 0.714536 0.525800
C110 C 0.3918(7) 0.7035(8) 0.5055(5)
H62 H 0.383777 0.726523 0.503787
C111 C 0.3701(4) 0.6768(9) 0.4948(4)
C112 C 0.3818(6) 0.6431(8) 0.4973(5)
H63 H 0.366969 0.624858 0.490043
C113 C 0.4153(7) 0.6359(8) 0.5104(6)
H64 H 0.423359 0.612870 0.512056
N21 N 0.9999(7) 0.7350(6) 0.4606(6)
H65 H 0.998301 0.756591 0.466586
C114 C 0.9731(4) 0.7162(8) 0.4440(5)
C115 C 0.9864(6) 0.6825(7) 0.4390(5)
C117 C 0.7412(3) 0.3069(6) 0.5485(6)
N23 N 0.6892(5) 0.4490(7) 0.6202(5)
C118 C 0.7051(6) 0.4397(5) 0.5910(6)
N24 N 0.7014(5) 0.4679(8) 0.5699(4)
H66 H 0.709018 0.468617 0.550296
C119 C 0.6832(6) 0.4946(5) 0.5862(7)
C120 C 0.6757(5) 0.4829(7) 0.6173(6)
Eu3 Eu 0.26294(6) 0.70014(14) 0.46163(6)
Eu4 Eu 0.76294(6) 0.79986(14) 0.03837(6)
Eu6 Eu 0.74153(7) 0.73618(15) 0.96769(7)
O16 O 0.7994(6) 0.2160(11) 0.5743(6)
O17 O 0.6751(6) 0.2848(9) 0.4792(5)
O18 O 0.7427(6) 0.2094(11) 0.5842(6)
O19 O 0.6987(6) 0.2859(9) 0.4171(5)
O20 O 0.7526(6) 0.2685(10) 0.4139(5)
O21 O 0.6855(6) 0.3363(10) 0.4711(5)
O22 O 0.8173(5) 0.2221(8) 0.5119(5)
O23 O 0.8101(5) 0.2730(10) 0.5208(5)
H67 H 0.807486 0.274084 0.467043
H68 H 0.806791 0.298203 0.435864
H69 H 0.679363 0.245105 0.511844
H70 H 0.679044 0.21376 0.53701
Ru1_2 Ru 0.37377(8) 0.39172(18) 0.63197(8)
Ru2_2 Ru 0.13183(8) 0.32886(17) 0.37680(8)
C1_2 C 0.0424(9) 0.3984(6) 0.4002(6)
H1_2 H 0.034256 0.421080 0.396324
C2_2 C 0.0209(4) 0.3757(9) 0.4171(5)
C3_2 C 0.0327(8) 0.3424(8) 0.4228(4)
C4_2 C 0.0662(9) 0.3319(6) 0.4117(5)
N1_2 N 0.0877(5) 0.3546(10) 0.3948(5)
C5_2 C 0.0758(7) 0.3878(9) 0.3891(4)
H3_2 H 0.090515 0.403330 0.377586
C6_2 C 0.1981(9) 0.4386(7) 0.4138(5)
C7_2 C 0.1888(10) 0.4492(6) 0.3835(5)
C8_2 C 0.1760(6) 0.4252(6) 0.3616(4)
C9_2 C 0.1694(6) 0.4341(6) 0.3304(5)
H4_2 H 0.176994 0.455772 0.322650
C10_2 C 0.1517(6) 0.4113(8) 0.3105(3)
H5_2 H 0.147213 0.417351 0.289191
C11_2 C 0.1406(5) 0.3795(7) 0.3219(4)
H6_2 H 0.128526 0.363911 0.308310
N2_2 N 0.1472(5) 0.3706(6) 0.3531(5)
C12_2 C 0.1649(5) 0.3934(6) 0.3730(3)
N3_2 N 0.1640(5) 0.3501(6) 0.4133(4)
C13_2 C 0.1726(6) 0.3396(6) 0.4437(5)
H7_2 H 0.168047 0.316625 0.450084
C14_2 C 0.1880(6) 0.3626(8) 0.4648(3)
H8_2 H 0.193908 0.355423 0.485617
C15_2 C 0.1947(6) 0.3962(7) 0.4555(3)
H9_2 H 0.205235 0.411980 0.469956
C16_2 C 0.1861(6) 0.4068(6) 0.4251(4)
C17_2 C 0.1707(5) 0.3837(6) 0.4040(3)
O1_2 O 0.2994(6) 0.2840(11) 0.9257(6)
C18_2 C 0.1785(6) 0.2374(9) 0.1418(6)
H10_2 H 0.159884 0.230143 0.127988
C19_2 C 0.2139(7) 0.2390(9) 0.1311(4)
C20_2 C 0.2411(5) 0.2496(10) 0.1513(6)
H11_2 H 0.265267 0.250729 0.143997
C21_2 C 0.2331(6) 0.2587(9) 0.1823(5)
H12_2 H 0.251698 0.265962 0.196075
C22_2 C 0.1977(7) 0.2571(9) 0.1930(4)
C23_2 C 0.1705(5) 0.2465(10) 0.1727(6)
H13_2 H 0.146314 0.245376 0.180067
O3_2 O 0.2427(6) 0.2906(11) 0.9158(6)
O4_2 O 0.1987(6) 0.2141(9) 0.0829(5)
O5_2 O 0.2007(6) 0.7036(12) 0.4583(6)
N4_2 N 0.1749(6) 0.3025(7) 0.3577(4)
C24_2 C 0.2281(5) 0.2784(8) 0.3204(6)
H14_2 H 0.247088 0.269927 0.307609
C25_2 C 0.2362(8) 0.2885(9) 0.3510(6)
H15_2 H 0.260136 0.286688 0.358724
C26_2 C 0.2091(6) 0.3011(9) 0.3704(6)
H16_2 H 0.213894 0.308456 0.391315
O6_2 O 0.3117(6) 0.7628(13) 0.5327(7)
O7_2 O 0.2526(6) 0.2315(10) 0.0861(5)
C27_2 C 0.2092(10) 0.4947(7) 0.4074(7)
N5_2 N 0.1970(8) 0.4838(8) 0.3778(6)
H17_2 H 0.194941 0.495635 0.360240
N6_2 N 0.2082(8) 0.4688(8) 0.4302(6)
N7_2 N 0.1081(6) 0.3075(6) 0.3389(5)
C34_2 C 0.0735(7) 0.3093(7) 0.3270(7)
H22_2 H 0.055648 0.317917 0.341023
C35_2 C 0.0618(9) 0.3001(7) 0.2973(6)
H23_2 H 0.037267 0.302369 0.291240
C36_2 C 0.0876(5) 0.2874(8) 0.2769(7)
H24_2 H 0.080832 0.280486 0.256215
C37_2 C 0.2227(7) 0.2278(6) 0.0992(5)
N8_2 N 0.1487(4) 0.2599(11) 0.2341(4)
C38_2 C 0.1850(5) 0.2552(12) 0.2244(3)
N9_2 N 0.2071(4) 0.2561(11) 0.2518(4)
H25_2 H 0.229703 0.249528 0.253193
C39_2 C 0.1852(3) 0.2699(7) 0.2769(3)
C40_2 C 0.1937(4) 0.2801(6) 0.3075(3)
C41_2 C 0.1670(6) 0.2926(5) 0.3273(3)
C42_2 C 0.1317(5) 0.2949(5) 0.3166(4)
C43_2 C 0.1231(3) 0.2847(6) 0.2861(4)
C44_2 C 0.1499(3) 0.2722(7) 0.2662(3)
N10_2 N 0.3921(8) 0.3511(8) 0.6035(5)
C45_2 C 0.3753(4) 0.3201(9) 0.5965(6)
H26_2 H 0.352203 0.315191 0.605086
C46_2 C 0.3922(7) 0.2964(7) 0.5770(7)
H27_2 H 0.380686 0.275293 0.572227
C47_2 C 0.4259(7) 0.3037(8) 0.5645(6)
H28_2 H 0.437477 0.287490 0.551120
C48_2 C 0.4427(5) 0.3346(9) 0.5714(6)
C49_2 C 0.4258(8) 0.3583(6) 0.5910(7)
O8_2 O 0.2569(5) 0.7066(8) 0.5221(5)
C50_2 C 0.2276(7) 0.5968(7) 0.4334(7)
C51_2 C 0.2306(7) 0.5879(8) 0.4017(6)
H29_2 H 0.235691 0.605020 0.386418
C52_2 C 0.2260(6) 0.5540(9) 0.3925(4)
H30_2 H 0.228072 0.547879 0.370826
C53_2 C 0.2186(7) 0.5289(6) 0.4149(7)
C54_2 C 0.2156(6) 0.5378(8) 0.4465(6)
H31_2 H 0.210482 0.520651 0.461847
C55_2 C 0.2201(6) 0.5717(9) 0.4558(4)
H32_2 H 0.218101 0.577792 0.477439
O10_2 O 0.2404(7) 0.6431(8) 0.4706(5)
O11_2 O 0.2512(7) 0.6526(9) 0.4265(6)
C56_2 C 0.0752(7) 0.2431(8) 0.4388(5)
H33_2 H 0.061909 0.227028 0.451013
C57_2 C 0.1087(8) 0.2342(6) 0.4268(6)
H34_2 H 0.118351 0.212015 0.430740
C58_2 C 0.1281(4) 0.2577(9) 0.4089(5)
H35_2 H 0.151040 0.251584 0.400670
N11_2 N 0.1140(7) 0.2901(8) 0.4031(5)
C59_2 C 0.0805(8) 0.2990(6) 0.4151(6)
C60_2 C 0.0611(4) 0.2755(10) 0.4330(6)
O12_2 O 0.2550(5) 0.7560(7) 0.4790(5)
C61_2 C 0.2683(5) 0.6524(7) 0.5895(7)
H36_2 H 0.260908 0.669829 0.603744
C62_2 C 0.2693(4) 0.6591(5) 0.5573(8)
C63_2 C 0.2801(5) 0.6335(8) 0.5364(4)
H37_2 H 0.280820 0.638090 0.514341
C64_2 C 0.2897(5) 0.6014(7) 0.5477(6)
H38_2 H 0.297089 0.583910 0.533397
C65_2 C 0.2887(5) 0.5947(5) 0.5799(7)
C66_2 C 0.2779(6) 0.6202(8) 0.6008(4)
H39_2 H 0.277177 0.615648 0.622800
C67_2 C 0.3349(5) 0.3591(10) 0.6831(6)
C68_2 C 0.3072(7) 0.3450(10) 0.7009(5)
C69_2 C 0.2741(6) 0.3382(9) 0.6870(6)
H40_2 H 0.255179 0.328566 0.699228
C70_2 C 0.2687(5) 0.3454(9) 0.6552(6)
H41_2 H 0.246075 0.340700 0.645734
C71_2 C 0.2964(7) 0.3594(10) 0.6374(4)
H42_2 H 0.292722 0.364360 0.615666
N12_2 N 0.3295(5) 0.3663(9) 0.6513(6)
C72_2 C 0.3704(5) 0.3613(10) 0.6943(6)
N13_2 N 0.3964(7) 0.3720(10) 0.6729(4)
C73_2 C 0.4314(6) 0.3784(10) 0.6831(6)
H43_2 H 0.449139 0.385732 0.668411
C74_2 C 0.4403(4) 0.3741(10) 0.7147(6)
H44_2 H 0.464193 0.378482 0.721621
C75_2 C 0.4143(7) 0.3634(10) 0.7361(4)
H45_2 H 0.420426 0.360464 0.757720
C76_2 C 0.3794(6) 0.3570(9) 0.7260(6)
C77_2 C 0.3192(7) 0.3296(10) 0.7279(4)
C78_2 C 0.3541(6) 0.3358(10) 0.7402(6)
N14_2 N 0.3524(5) 0.3323(10) 0.7736(5)
C79_2 C 0.3164(6) 0.3239(11) 0.7818(4)
N15_2 N 0.2959(4) 0.3223(10) 0.7536(6)
H46_2 H 0.272766 0.317545 0.752318
C80_2 C 0.4647(9) 0.4572(6) 0.6064(7)
H47_2 H 0.472912 0.480193 0.608429
C81_2 C 0.4332(7) 0.4469(8) 0.6213(5)
H48_2 H 0.419803 0.462893 0.633511
N16_2 N 0.4212(5) 0.4133(10) 0.6183(5)
C82_2 C 0.4408(9) 0.3899(6) 0.6004(7)
C83_2 C 0.4723(8) 0.4002(9) 0.5855(6)
C84_2 C 0.4843(5) 0.4338(10) 0.5885(6)
H49_2 H 0.505867 0.440868 0.578311
C85_2 C 0.2746(6) 0.2896(17) 0.9065(6)
N17_2 N 0.3584(6) 0.4376(6) 0.6526(7)
C86_2 C 0.3651(5) 0.4481(8) 0.6834(6)
H50_2 H 0.374502 0.432232 0.698332
C87_2 C 0.3580(6) 0.4817(10) 0.6924(4)
H51_2 H 0.362626 0.488859 0.713459
C88_2 C 0.3443(6) 0.5049(6) 0.6706(7)
H52_2 H 0.339434 0.527871 0.676731
C89_2 C 0.3375(4) 0.4944(7) 0.6398(6)
C90_2 C 0.3446(5) 0.4608(8) 0.6308(4)
C91_2 C 0.3348(6) 0.4026(6) 0.5638(8)
H53_2 H 0.339428 0.379190 0.559119
N18_2 N 0.3425(5) 0.4156(8) 0.5936(6)
C92_2 C 0.3357(6) 0.4498(9) 0.6004(4)
C93_2 C 0.3211(6) 0.4712(5) 0.5774(7)
C94_2 C 0.3134(5) 0.4582(8) 0.5476(6)
H54_2 H 0.303403 0.472804 0.531939
C95_2 C 0.3202(6) 0.4239(9) 0.5408(4)
H55_2 H 0.314870 0.415101 0.520446
N19_2 N 0.5261(5) 0.3789(7) 0.5512(6)
C96_2 C 0.4911(6) 0.3791(8) 0.5645(6)
C97_2 C 0.4759(4) 0.3459(9) 0.5603(6)
N20_2 N 0.5017(7) 0.3253(6) 0.5444(6)
H56_2 H 0.498864 0.303638 0.539023
C98_2 C 0.5327(5) 0.3456(8) 0.5388(6)
C99_2 C 0.2854(7) 0.2997(10) 0.8756(4)
C100_2 C 0.2592(5) 0.3081(10) 0.8534(6)
H57_2 H 0.234587 0.308799 0.859390
C101_2 C 0.2691(6) 0.3155(10) 0.8225(5)
H58_2 H 0.251230 0.321253 0.807372
C102_2 C 0.3052(7) 0.3145(10) 0.8138(4)
C103_2 C 0.3313(5) 0.3061(11) 0.8359(6)
H59_2 H 0.355961 0.305424 0.829917
C104_2 C 0.3214(6) 0.2987(10) 0.8668(5)
H60_2 H 0.339318 0.292970 0.881935
C106_2 C 0.2371(11) 0.6305(7) 0.4438(6)
O13_2 O 0.2493(5) 0.7159(8) 0.5671(6)
C107_2 C 0.6639(5) 0.3147(9) 0.4815(3)
C108_2 C 0.5629(4) 0.3374(9) 0.5210(4)
C109_2 C 0.5747(6) 0.3037(8) 0.5185(5)
H61_2 H 0.559832 0.285464 0.525800
C110_2 C 0.6082(7) 0.2965(8) 0.5055(5)
H62_2 H 0.616223 0.273477 0.503787
C111_2 C 0.6299(4) 0.3232(9) 0.4948(4)
C112_2 C 0.6182(6) 0.3569(8) 0.4973(5)
H63_2 H 0.633031 0.375142 0.490043
C113_2 C 0.5847(7) 0.3641(8) 0.5104(6)
H64_2 H 0.576641 0.387130 0.512056
N21_2 N 0.0001(7) 0.2650(6) 0.4606(6)
H65_2 H 0.001699 0.243409 0.466586
C114_2 C 0.0269(4) 0.2838(8) 0.4440(5)
C115_2 C 0.0136(6) 0.3175(7) 0.4390(5)
C117_2 C 0.2588(3) 0.6931(6) 0.5485(6)
N23_2 N 0.3108(5) 0.5510(7) 0.6202(5)
C118_2 C 0.2949(6) 0.5603(5) 0.5910(6)
N24_2 N 0.2986(5) 0.5321(8) 0.5699(4)
H66_2 H 0.290982 0.531383 0.550296
C119_2 C 0.3168(6) 0.5054(5) 0.5862(7)
C120_2 C 0.3243(5) 0.5171(7) 0.6173(6)
Eu4_2 Eu 0.23706(6) 0.20014(14) 0.03837(6)
Eu6_2 Eu 0.25847(7) 0.26382(15) 0.96769(7)
O16_2 O 0.2006(6) 0.7840(11) 0.5743(6)
O18_2 O 0.2573(6) 0.7906(11) 0.5842(6)
O19_2 O 0.3013(6) 0.7141(9) 0.4171(5)
O20_2 O 0.2474(6) 0.7315(10) 0.4139(5)
H67_2 H 0.192514 0.725916 0.467043
H68_2 H 0.193209 0.701797 0.435864
H69_2 H 0.320637 0.754895 0.511844
H70_2 H 0.320956 0.78624 0.53701
H2_2 H 0.998012 0.382868 0.424700
C28_2 C 0.9341(4) 0.2777(9) 0.4741(4)
C29_2 C 0.9107(7) 0.3024(7) 0.4859(6)
H18_2 H 0.917630 0.325850 0.485994
C30_2 C 0.8772(6) 0.2928(8) 0.4975(5)
H19_2 H 0.861221 0.309661 0.505558
C31_2 C 0.8671(3) 0.2584(9) 0.4973(3)
C32_2 C 0.8904(6) 0.2337(7) 0.4855(5)
H20_2 H 0.883514 0.210251 0.485370
C33_2 C 0.9239(6) 0.2433(8) 0.4739(5)
H21_2 H 0.939924 0.226439 0.465805
C105_2 C 0.8316(5) 0.2512(8) 0.5099(4)
N22_2 N 0.9787(6) 0.3196(6) 0.4525(5)
C116_2 C 0.9703(4) 0.2871(8) 0.4659(5)
O5_3 O 0.2993(6) 0.2036(12) 0.0417(6)
C50_3 C 0.2724(7) 0.0968(7) 0.0666(7)
C51_3 C 0.2694(7) 0.0879(8) 0.0983(6)
H29_3 H 0.264309 0.105020 0.113582
C52_3 C 0.2740(6) 0.0540(9) 0.1075(4)
H30_3 H 0.271928 0.047879 0.129174
C53_3 C 0.2814(7) 0.0289(6) 0.0851(7)
C54_3 C 0.2844(6) 0.0378(8) 0.0535(6)
H31_3 H 0.289518 0.020651 0.038153
C55_3 C 0.2799(6) 0.0717(9) 0.0442(4)
H32_3 H 0.281899 0.077792 0.022561
O10_3 O 0.2596(7) 0.1431(8) 0.0294(5)
O11_3 O 0.2488(7) 0.1526(9) 0.0735(6)
O12_3 O 0.2450(5) 0.2560(7) 0.0210(5)
C106_3 C 0.2629(11) 0.1305(7) 0.0562(6)
O17_2 O 0.1751(6) 0.2152(9) 0.0208(5)
O21_2 O 0.1855(6) 0.1637(10) 0.0289(5)
H67_3 H 0.307486 0.225916 0.0329567
H68_3 H 0.306791 0.201797 0.0641356
O6_3 O 0.1883(6) 0.2628(13) 0.9673(7)
O8_3 O 0.2431(5) 0.2066(8) 0.9779(5)
C61_3 C 0.2317(5) 0.1524(7) 0.9105(7)
H36_3 H 0.239092 0.169829 0.896256
C62_3 C 0.2307(4) 0.1591(5) 0.9427(8)
C63_3 C 0.2199(5) 0.1335(8) 0.9636(4)
H37_3 H 0.219180 0.138090 0.985659
C64_3 C 0.2103(5) 0.1014(7) 0.9523(6)
H38_3 H 0.202911 0.083910 0.966603
C65_3 C 0.2113(5) 0.0947(5) 0.9201(7)
C66_3 C 0.2221(6) 0.1202(8) 0.8992(4)
H39_3 H 0.222823 0.115648 0.877200
C88_3 C 0.1557(6) 0.0049(6) 0.8294(7)
H52_3 H 0.160566 0.027871 0.823269
O13_3 O 0.2507(5) 0.2159(8) 0.9329(6)
C117_3 C 0.2412(3) 0.1931(6) 0.9515(6)
N23_3 N 0.1892(5) 0.0510(7) 0.8798(5)
C118_3 C 0.2051(6) 0.0603(5) 0.9090(6)
N24_3 N 0.2014(5) 0.0321(8) 0.9301(4)
H66_3 H 0.209018 0.031383 0.949704
C119_3 C 0.1832(6) 0.0054(5) 0.9138(7)
C120_3 C 0.1757(5) 0.0171(7) 0.8827(6)
O22_2 O 0.3173(5) 0.2779(8) 0.9881(5)
O23_2 O 0.3101(5) 0.2270(10) 0.9792(5)
H69_3 H 0.179363 0.254895 0.988156
H70_3 H 0.179044 0.28624 0.96299
Ru2_3 Ru 0.36817(8) 0.82886(17) 0.12320(8)
C1_3 C 0.4576(9) 0.8984(6) 0.0998(6)
H1_3 H 0.465744 0.921080 0.103676
C2_3 C 0.4791(4) 0.8757(9) 0.0829(5)
H2_3 H 0.501988 0.882868 0.075300
C3_3 C 0.4673(8) 0.8424(8) 0.0772(4)
C4_3 C 0.4338(9) 0.8319(6) 0.0883(5)
N1_3 N 0.4123(5) 0.8546(10) 0.1052(5)
C5_3 C 0.4242(7) 0.8878(9) 0.1109(4)
H3_3 H 0.409485 0.903330 0.122414
C6_3 C 0.3019(9) 0.9386(7) 0.0862(5)
C7_3 C 0.3112(10) 0.9492(6) 0.1165(5)
C8_3 C 0.3240(6) 0.9252(6) 0.1384(4)
C9_3 C 0.3306(6) 0.9341(6) 0.1696(5)
H4_3 H 0.323006 0.955772 0.177350
C10_3 C 0.3483(6) 0.9113(8) 0.1895(3)
H5_3 H 0.352787 0.917351 0.210809
C11_3 C 0.3594(5) 0.8795(7) 0.1781(4)
H6_3 H 0.371474 0.863911 0.191690
N2_3 N 0.3528(5) 0.8706(6) 0.1469(5)
C12_3 C 0.3351(5) 0.8934(6) 0.1270(3)
N3_3 N 0.3360(5) 0.8501(6) 0.0867(4)
C13_3 C 0.3274(6) 0.8396(6) 0.0563(5)
H7_3 H 0.331953 0.816625 0.049916
C14_3 C 0.3120(6) 0.8626(8) 0.0352(3)
H8_3 H 0.306092 0.855423 0.014383
C15_3 C 0.3053(6) 0.8962(7) 0.0445(3)
H9_3 H 0.294765 0.911980 0.030044
C16_3 C 0.3139(6) 0.9068(6) 0.0749(4)
C17_3 C 0.3293(5) 0.8837(6) 0.0960(3)
C18_3 C 0.3215(6) 0.7374(9) 0.3582(6)
H10_3 H 0.340116 0.730143 0.372012
C19_3 C 0.2861(7) 0.7390(9) 0.3689(4)
C20_3 C 0.2589(5) 0.7496(10) 0.3487(6)
H11_3 H 0.234733 0.750729 0.356003
C21_3 C 0.2669(6) 0.7587(9) 0.3177(5)
H12_3 H 0.248302 0.765962 0.303925
C22_3 C 0.3023(7) 0.7571(9) 0.3070(4)
C23_3 C 0.3295(5) 0.7465(10) 0.3273(6)
H13_3 H 0.353686 0.745376 0.319933
N4_3 N 0.3251(6) 0.8025(7) 0.1423(4)
C24_3 C 0.2719(5) 0.7784(8) 0.1796(6)
H14_3 H 0.252912 0.769927 0.192391
C25_3 C 0.2638(8) 0.7885(9) 0.1490(6)
H15_3 H 0.239864 0.786688 0.141276
C26_3 C 0.2909(6) 0.8011(9) 0.1296(6)
H16_3 H 0.286106 0.808456 0.108685
C27_3 C 0.2908(10) 0.9947(7) 0.0926(7)
N5_3 N 0.3030(8) 0.9838(8) 0.1222(6)
H17_3 H 0.305059 0.995635 0.139760
N6_3 N 0.2918(8) 0.9688(8) 0.0698(6)
C28_3 C 0.5659(4) 0.7777(9) 0.0259(4)
C29_3 C 0.5893(7) 0.8024(7) 0.0141(6)
H18_3 H 0.582370 0.825850 0.014006
C30_3 C 0.6228(6) 0.7928(8) 0.0025(5)
C31_3 C 0.6329(3) 0.7584(9) 0.0027(3)
C32_3 C 0.6096(6) 0.7337(7) 0.0145(5)
H20_3 H 0.616486 0.710251 0.014630
C33_3 C 0.5761(6) 0.7433(8) 0.0261(5)
H21_3 H 0.560076 0.726439 0.034195
N7_3 N 0.3919(6) 0.8075(6) 0.1611(5)
C34_3 C 0.4265(7) 0.8093(7) 0.1730(7)
H22_3 H 0.444352 0.817917 0.158977
C35_3 C 0.4382(9) 0.8001(7) 0.2027(6)
H23_3 H 0.462733 0.802369 0.208760
C36_3 C 0.4124(5) 0.7874(8) 0.2231(7)
H24_3 H 0.419168 0.780486 0.243785
C37_3 C 0.2773(7) 0.7278(6) 0.4008(5)
N8_3 N 0.3513(4) 0.7599(11) 0.2659(4)
C38_3 C 0.3150(5) 0.7552(12) 0.2756(3)
N9_3 N 0.2929(4) 0.7561(11) 0.2482(4)
H25_3 H 0.270297 0.749528 0.246807
C39_3 C 0.3148(3) 0.7699(7) 0.2231(3)
C40_3 C 0.3063(4) 0.7801(6) 0.1925(3)
C41_3 C 0.3330(6) 0.7926(5) 0.1727(3)
C42_3 C 0.3683(5) 0.7949(5) 0.1834(4)
C43_3 C 0.3769(3) 0.7847(6) 0.2139(4)
C44_3 C 0.3501(3) 0.7722(7) 0.2338(3)
C56_3 C 0.4248(7) 0.7431(8) 0.0612(5)
H33_3 H 0.438091 0.727028 0.048987
C57_3 C 0.3913(8) 0.7342(6) 0.0732(6)
H34_3 H 0.381649 0.712015 0.069260
C58_3 C 0.3719(4) 0.7577(9) 0.0911(5)
H35_3 H 0.348960 0.751584 0.099330
N11_3 N 0.3860(7) 0.7901(8) 0.0969(5)
C59_3 C 0.4195(8) 0.7990(6) 0.0849(6)
C60_3 C 0.4389(4) 0.7755(10) 0.0670(6)
N21_3 N 0.4999(7) 0.7650(6) 0.0394(6)
H65_3 H 0.498301 0.743409 0.033414
C114_3 C 0.4731(4) 0.7838(8) 0.0560(5)
C115_3 C 0.4864(6) 0.8175(7) 0.0610(5)
N22_3 N 0.5213(6) 0.8196(6) 0.0475(5)
C116_3 C 0.5297(4) 0.7871(8) 0.0341(5)
Ru1_3 Ru 0.12623(8) 0.89172(18) 0.86803(8)
H19_3 H 0.638779 0.809661 0.994442
N10_3 N 0.1079(8) 0.8511(8) 0.8965(5)
C45_3 C 0.1247(4) 0.8201(9) 0.9035(6)
H26_3 H 0.147797 0.815191 0.894914
C46_3 C 0.1078(7) 0.7964(7) 0.9230(7)
H27_3 H 0.119314 0.775293 0.927773
C47_3 C 0.0741(7) 0.8037(8) 0.9355(6)
H28_3 H 0.062523 0.787490 0.948880
C48_3 C 0.0573(5) 0.8346(9) 0.9286(6)
C49_3 C 0.0742(8) 0.8583(6) 0.9090(7)
C67_3 C 0.1651(5) 0.8591(10) 0.8169(6)
C68_3 C 0.1928(7) 0.8450(10) 0.7991(5)
C69_3 C 0.2259(6) 0.8382(9) 0.8130(6)
H40_3 H 0.244821 0.828566 0.800772
C70_3 C 0.2313(5) 0.8454(9) 0.8448(6)
H41_3 H 0.253925 0.840700 0.854266
C71_3 C 0.2036(7) 0.8594(10) 0.8626(4)
H42_3 H 0.207278 0.864360 0.884334
N12_3 N 0.1705(5) 0.8663(9) 0.8487(6)
C72_3 C 0.1296(5) 0.8613(10) 0.8057(6)
N13_3 N 0.1036(7) 0.8720(10) 0.8271(4)
C73_3 C 0.0686(6) 0.8784(10) 0.8169(6)
H43_3 H 0.050861 0.885732 0.831589
C74_3 C 0.0597(4) 0.8741(10) 0.7853(6)
H44_3 H 0.035807 0.878482 0.778379
C75_3 C 0.0857(7) 0.8634(10) 0.7639(4)
H45_3 H 0.079574 0.860464 0.742280
C76_3 C 0.1206(6) 0.8570(9) 0.7740(6)
C77_3 C 0.1808(7) 0.8296(10) 0.7721(4)
C78_3 C 0.1459(6) 0.8358(10) 0.7598(6)
N14_3 N 0.1476(5) 0.8323(10) 0.7264(5)
C79_3 C 0.1836(6) 0.8239(11) 0.7182(4)
N15_3 N 0.2041(4) 0.8223(10) 0.7464(6)
H46_3 H 0.227234 0.817545 0.747682
C80_3 C 0.0353(9) 0.9572(6) 0.8936(7)
H47_3 H 0.027088 0.980193 0.891571
C81_3 C 0.0668(7) 0.9469(8) 0.8787(5)
H48_3 H 0.080197 0.962893 0.866489
N16_3 N 0.0788(5) 0.9133(10) 0.8817(5)
C82_3 C 0.0592(9) 0.8899(6) 0.8996(7)
C83_3 C 0.0277(8) 0.9002(9) 0.9145(6)
C84_3 C 0.0157(5) 0.9338(10) 0.9115(6)
C85_3 C 0.2254(6) 0.7896(17) 0.5935(6)
N17_3 N 0.1416(6) 0.9376(6) 0.8474(7)
C86_3 C 0.1349(5) 0.9481(8) 0.8166(6)
H50_3 H 0.125498 0.932232 0.801668
C87_3 C 0.1420(6) 0.9817(10) 0.8076(4)
H51_3 H 0.137374 0.988859 0.786541
C89_3 C 0.1625(4) 0.9944(7) 0.8602(6)
C90_3 C 0.1554(5) 0.9608(8) 0.8692(4)
C91_3 C 0.1652(6) 0.9026(6) 0.9362(8)
H53_3 H 0.160572 0.879190 0.940881
N18_3 N 0.1575(5) 0.9156(8) 0.9064(6)
C92_3 C 0.1643(6) 0.9498(9) 0.8996(4)
C93_3 C 0.1789(6) 0.9712(5) 0.9226(7)
C94_3 C 0.1866(5) 0.9582(8) 0.9524(6)
H54_3 H 0.196597 0.972804 0.968061
C95_3 C 0.1798(6) 0.9239(9) 0.9592(4)
H55_3 H 0.185130 0.915101 0.979554
C96_3 C 0.0089(6) 0.8791(8) 0.9355(6)
C97_3 C 0.0241(4) 0.8459(9) 0.9397(6)
H56_3 H 0.001136 0.803638 0.960977
C99_3 C 0.2146(7) 0.7997(10) 0.6244(4)
C100_3 C 0.2408(5) 0.8081(10) 0.6466(6)
H57_3 H 0.265413 0.808799 0.640610
C101_3 C 0.2309(6) 0.8155(10) 0.6775(5)
H58_3 H 0.248770 0.821253 0.692628
C102_3 C 0.1948(7) 0.8145(10) 0.6862(4)
C103_3 C 0.1687(5) 0.8061(11) 0.6641(6)
H59_3 H 0.144039 0.805424 0.670083
C104_3 C 0.1786(6) 0.7987(10) 0.6332(5)
H60_3 H 0.160682 0.792970 0.618065
C105_3 C 0.6684(5) 0.7512(8) 0.9901(4)
O14_2 O 0.6827(5) 0.7221(8) 0.9881(5)
O15_2 O 0.6899(5) 0.7730(10) 0.9792(5)
O2_2 O 0.8249(6) 0.7848(9) 0.0208(5)
O9_2 O 0.8145(6) 0.8363(10) 0.0289(5)
C107_3 C 0.8361(5) 0.8147(9) 0.0185(3)
C111_3 C 0.8701(4) 0.8232(9) 0.0052(4)
C112_3 C 0.8818(6) 0.8569(8) 0.0027(5)
H63_3 H 0.866969 0.875142 0.009957
C107_4 C 0.1639(5) 0.1853(9) 0.0185(3)
C111_4 C 0.1299(4) 0.1768(9) 0.0052(4)
C112_4 C 0.1182(6) 0.1431(8) 0.0027(5)
H63_4 H 0.133031 0.124858 0.009957
Ru2_4 Ru 0.63183(8) 0.17114(17) 0.12320(8)
C1_4 C 0.5424(9) 0.1016(6) 0.0998(6)
H1_4 H 0.534256 0.078920 0.103676
C2_4 C 0.5209(4) 0.1243(9) 0.0829(5)
H2_4 H 0.498012 0.117132 0.075300
C3_4 C 0.5327(8) 0.1576(8) 0.0772(4)
C4_4 C 0.5662(9) 0.1681(6) 0.0883(5)
N1_4 N 0.5877(5) 0.1454(10) 0.1052(5)
C5_4 C 0.5758(7) 0.1122(9) 0.1109(4)
H3_4 H 0.590515 0.096670 0.122414
C6_4 C 0.6981(9) 0.0614(7) 0.0862(5)
C7_4 C 0.6888(10) 0.0508(6) 0.1165(5)
C8_4 C 0.6760(6) 0.0748(6) 0.1384(4)
C9_4 C 0.6694(6) 0.0659(6) 0.1696(5)
H4_4 H 0.676994 0.044228 0.177350
C10_4 C 0.6517(6) 0.0887(8) 0.1895(3)
H5_4 H 0.647213 0.082649 0.210809
C11_4 C 0.6406(5) 0.1205(7) 0.1781(4)
H6_4 H 0.628526 0.136089 0.191690
N2_4 N 0.6472(5) 0.1294(6) 0.1469(5)
C12_4 C 0.6649(5) 0.1066(6) 0.1270(3)
N3_4 N 0.6640(5) 0.1499(6) 0.0867(4)
C13_4 C 0.6726(6) 0.1604(6) 0.0563(5)
H7_4 H 0.668047 0.183375 0.049916
C14_4 C 0.6880(6) 0.1374(8) 0.0352(3)
H8_4 H 0.693908 0.144577 0.014383
C15_4 C 0.6947(6) 0.1038(7) 0.0445(3)
H9_4 H 0.705235 0.088020 0.030044
C16_4 C 0.6861(6) 0.0932(6) 0.0749(4)
C17_4 C 0.6707(5) 0.1163(6) 0.0960(3)
C18_4 C 0.6785(6) 0.2626(9) 0.3582(6)
H10_4 H 0.659884 0.269857 0.372012
C19_4 C 0.7139(7) 0.2610(9) 0.3689(4)
C20_4 C 0.7411(5) 0.2504(10) 0.3487(6)
H11_4 H 0.765267 0.249271 0.356003
C21_4 C 0.7331(6) 0.2413(9) 0.3177(5)
H12_4 H 0.751698 0.234038 0.303925
C22_4 C 0.6977(7) 0.2429(9) 0.3070(4)
C23_4 C 0.6705(5) 0.2535(10) 0.3273(6)
H13_4 H 0.646314 0.254624 0.319933
N4_4 N 0.6749(6) 0.1975(7) 0.1423(4)
C24_4 C 0.7281(5) 0.2216(8) 0.1796(6)
H14_4 H 0.747088 0.230073 0.192391
C25_4 C 0.7362(8) 0.2115(9) 0.1490(6)
H15_4 H 0.760136 0.213312 0.141276
C26_4 C 0.7091(6) 0.1989(9) 0.1296(6)
H16_4 H 0.713894 0.191544 0.108685
C27_4 C 0.7092(10) 0.0053(7) 0.0926(7)
N5_4 N 0.6970(8) 0.0162(8) 0.1222(6)
H17_4 H 0.694941 0.004365 0.139760
N6_4 N 0.7082(8) 0.0312(8) 0.0698(6)
C28_4 C 0.4341(4) 0.2223(9) 0.0259(4)
C29_4 C 0.4107(7) 0.1976(7) 0.0141(6)
H18_4 H 0.417630 0.174150 0.014006
C30_4 C 0.3772(6) 0.2072(8) 0.0025(5)
C31_4 C 0.3671(3) 0.2416(9) 0.0027(3)
C32_4 C 0.3904(6) 0.2663(7) 0.0145(5)
H20_4 H 0.383514 0.289749 0.014630
C33_4 C 0.4239(6) 0.2567(8) 0.0261(5)
H21_4 H 0.439924 0.273561 0.034195
N7_4 N 0.6081(6) 0.1925(6) 0.1611(5)
C34_4 C 0.5735(7) 0.1907(7) 0.1730(7)
H22_4 H 0.555648 0.182083 0.158977
C35_4 C 0.5618(9) 0.1999(7) 0.2027(6)
H23_4 H 0.537267 0.197631 0.208760
C36_4 C 0.5876(5) 0.2126(8) 0.2231(7)
H24_4 H 0.580832 0.219514 0.243785
C37_4 C 0.7227(7) 0.2722(6) 0.4008(5)
N8_4 N 0.6487(4) 0.2401(11) 0.2659(4)
C38_4 C 0.6850(5) 0.2448(12) 0.2756(3)
N9_4 N 0.7071(4) 0.2439(11) 0.2482(4)
H25_4 H 0.729703 0.250472 0.246807
C39_4 C 0.6852(3) 0.2301(7) 0.2231(3)
C40_4 C 0.6937(4) 0.2199(6) 0.1925(3)
C41_4 C 0.6670(6) 0.2074(5) 0.1727(3)
C42_4 C 0.6317(5) 0.2051(5) 0.1834(4)
C43_4 C 0.6231(3) 0.2153(6) 0.2139(4)
C44_4 C 0.6499(3) 0.2278(7) 0.2338(3)
C56_4 C 0.5752(7) 0.2569(8) 0.0612(5)
H33_4 H 0.561909 0.272972 0.048987
C57_4 C 0.6087(8) 0.2658(6) 0.0732(6)
H34_4 H 0.618351 0.287985 0.069260
C58_4 C 0.6281(4) 0.2423(9) 0.0911(5)
H35_4 H 0.651040 0.248416 0.099330
N11_4 N 0.6140(7) 0.2099(8) 0.0969(5)
C59_4 C 0.5805(8) 0.2010(6) 0.0849(6)
C60_4 C 0.5611(4) 0.2245(10) 0.0670(6)
N21_4 N 0.5001(7) 0.2350(6) 0.0394(6)
H65_4 H 0.501699 0.256591 0.033414
C114_4 C 0.5269(4) 0.2162(8) 0.0560(5)
C115_4 C 0.5136(6) 0.1825(7) 0.0610(5)
N22_4 N 0.4787(6) 0.1804(6) 0.0475(5)
C116_4 C 0.4703(4) 0.2129(8) 0.0341(5)
Ru1_4 Ru 0.87377(8) 0.10828(18) 0.86803(8)
H19_4 H 0.361221 0.190339 0.994442
N10_4 N 0.8921(8) 0.1489(8) 0.8965(5)
C45_4 C 0.8753(4) 0.1799(9) 0.9035(6)
H26_4 H 0.852203 0.184809 0.894914
C46_4 C 0.8922(7) 0.2036(7) 0.9230(7)
H27_4 H 0.880686 0.224707 0.927773
C47_4 C 0.9259(7) 0.1963(8) 0.9355(6)
H28_4 H 0.937477 0.212510 0.948880
C48_4 C 0.9427(5) 0.1654(9) 0.9286(6)
C49_4 C 0.9258(8) 0.1417(6) 0.9090(7)
C67_4 C 0.8349(5) 0.1409(10) 0.8169(6)
C68_4 C 0.8072(7) 0.1550(10) 0.7991(5)
C69_4 C 0.7741(6) 0.1618(9) 0.8130(6)
H40_4 H 0.755179 0.171434 0.800772
C70_4 C 0.7687(5) 0.1546(9) 0.8448(6)
H41_4 H 0.746075 0.159300 0.854266
C71_4 C 0.7964(7) 0.1406(10) 0.8626(4)
H42_4 H 0.792722 0.135640 0.884334
N12_4 N 0.8295(5) 0.1337(9) 0.8487(6)
C72_4 C 0.8704(5) 0.1387(10) 0.8057(6)
N13_4 N 0.8964(7) 0.1280(10) 0.8271(4)
C73_4 C 0.9314(6) 0.1216(10) 0.8169(6)
H43_4 H 0.949139 0.114268 0.831589
C74_4 C 0.9403(4) 0.1259(10) 0.7853(6)
H44_4 H 0.964193 0.121518 0.778379
C75_4 C 0.9143(7) 0.1366(10) 0.7639(4)
H45_4 H 0.920426 0.139536 0.742280
C76_4 C 0.8794(6) 0.1430(9) 0.7740(6)
C77_4 C 0.8192(7) 0.1704(10) 0.7721(4)
C78_4 C 0.8541(6) 0.1642(10) 0.7598(6)
N14_4 N 0.8524(5) 0.1677(10) 0.7264(5)
C79_4 C 0.8164(6) 0.1761(11) 0.7182(4)
N15_4 N 0.7959(4) 0.1777(10) 0.7464(6)
H46_4 H 0.772766 0.182455 0.747682
C80_4 C 0.9647(9) 0.0428(6) 0.8936(7)
H47_4 H 0.972912 0.019807 0.891571
C81_4 C 0.9332(7) 0.0531(8) 0.8787(5)
H48_4 H 0.919803 0.037107 0.866489
N16_4 N 0.9212(5) 0.0867(10) 0.8817(5)
C82_4 C 0.9408(9) 0.1101(6) 0.8996(7)
C83_4 C 0.9723(8) 0.0998(9) 0.9145(6)
C84_4 C 0.9843(5) 0.0662(10) 0.9115(6)
C85_4 C 0.7746(6) 0.2104(17) 0.5935(6)
N17_4 N 0.8584(6) 0.0624(6) 0.8474(7)
C86_4 C 0.8651(5) 0.0519(8) 0.8166(6)
H50_4 H 0.874502 0.067768 0.801668
C87_4 C 0.8580(6) 0.0183(10) 0.8076(4)
H51_4 H 0.862626 0.011141 0.786541
C89_4 C 0.8375(4) 0.0056(7) 0.8602(6)
C90_4 C 0.8446(5) 0.0392(8) 0.8692(4)
C91_4 C 0.8348(6) 0.0974(6) 0.9362(8)
H53_4 H 0.839428 0.120810 0.940881
N18_4 N 0.8425(5) 0.0844(8) 0.9064(6)
C92_4 C 0.8357(6) 0.0502(9) 0.8996(4)
C93_4 C 0.8211(6) 0.0288(5) 0.9226(7)
C94_4 C 0.8134(5) 0.0418(8) 0.9524(6)
H54_4 H 0.803403 0.027196 0.968061
C95_4 C 0.8202(6) 0.0761(9) 0.9592(4)
H55_4 H 0.814870 0.084899 0.979554
C96_4 C 0.9911(6) 0.1209(8) 0.9355(6)
C97_4 C 0.9759(4) 0.1541(9) 0.9397(6)
H56_4 H 0.998864 0.196362 0.960977
C99_4 C 0.7854(7) 0.2003(10) 0.6244(4)
C100_4 C 0.7592(5) 0.1919(10) 0.6466(6)
H57_4 H 0.734587 0.191201 0.640610
C101_4 C 0.7691(6) 0.1845(10) 0.6775(5)
H58_4 H 0.751230 0.178747 0.692628
C102_4 C 0.8052(7) 0.1855(10) 0.6862(4)
C103_4 C 0.8313(5) 0.1939(11) 0.6641(6)
H59_4 H 0.855961 0.194576 0.670083
C104_4 C 0.8214(6) 0.2013(10) 0.6332(5)
H60_4 H 0.839318 0.207030 0.618065
C105_4 C 0.3316(5) 0.2488(8) 0.9901(4)
O5_4 O 0.7007(6) 0.7964(12) 0.0417(6)
C50_4 C 0.7276(7) 0.9032(7) 0.0666(7)
C51_4 C 0.7306(7) 0.9121(8) 0.0983(6)
H29_4 H 0.735691 0.894980 0.113582
C52_4 C 0.7260(6) 0.9460(9) 0.1075(4)
H30_4 H 0.728072 0.952121 0.129174
C53_4 C 0.7186(7) 0.9711(6) 0.0851(7)
C54_4 C 0.7156(6) 0.9622(8) 0.0535(6)
H31_4 H 0.710482 0.979349 0.038153
C55_4 C 0.7201(6) 0.9283(9) 0.0442(4)
H32_4 H 0.718101 0.922208 0.022561
O10_4 O 0.7404(7) 0.8569(8) 0.0294(5)
O11_4 O 0.7512(7) 0.8474(9) 0.0735(6)
O12_4 O 0.7550(5) 0.7440(7) 0.0210(5)
C106_4 C 0.7371(11) 0.8695(7) 0.0562(6)
H67_4 H 0.692514 0.774084 0.0329567
H68_4 H 0.693209 0.798203 0.0641356
O6_4 O 0.8117(6) 0.7372(13) 0.9673(7)
O8_4 O 0.7569(5) 0.7934(8) 0.9779(5)
C61_4 C 0.7683(5) 0.8476(7) 0.9105(7)
H36_4 H 0.760908 0.830171 0.896256
C62_4 C 0.7693(4) 0.8409(5) 0.9427(8)
C63_4 C 0.7801(5) 0.8665(8) 0.9636(4)
H37_4 H 0.780820 0.861910 0.985659
C64_4 C 0.7897(5) 0.8986(7) 0.9523(6)
H38_4 H 0.797089 0.916090 0.966603
C65_4 C 0.7887(5) 0.9053(5) 0.9201(7)
C66_4 C 0.7779(6) 0.8798(8) 0.8992(4)
H39_4 H 0.777177 0.884352 0.877200
C88_4 C 0.8443(6) 0.9951(6) 0.8294(7)
H52_4 H 0.839434 0.972129 0.823269
O13_4 O 0.7493(5) 0.7841(8) 0.9329(6)
C117_4 C 0.7588(3) 0.8069(6) 0.9515(6)
N23_4 N 0.8108(5) 0.9490(7) 0.8798(5)
C118_4 C 0.7949(6) 0.9397(5) 0.9090(6)
N24_4 N 0.7986(5) 0.9679(8) 0.9301(4)
H66_4 H 0.790982 0.968617 0.949704
C119_4 C 0.8168(6) 0.9946(5) 0.9138(7)
C120_4 C 0.8243(5) 0.9829(7) 0.8827(6)
H69_4 H 0.820637 0.745105 0.988156
H70_4 H 0.820956 0.71376 0.96299
H2_5 H 0.001988 0.382868 0.575300
C28_5 C 0.0659(4) 0.2777(9) 0.5259(4)
C29_5 C 0.0893(7) 0.3024(7) 0.5141(6)
H18_5 H 0.082370 0.325850 0.514006
C30_5 C 0.1228(6) 0.2928(8) 0.5025(5)
H19_5 H 0.138779 0.309661 0.494442
C31_5 C 0.1329(3) 0.2584(9) 0.5027(3)
C32_5 C 0.1096(6) 0.2337(7) 0.5145(5)
H20_5 H 0.116486 0.210251 0.514630
C33_5 C 0.0761(6) 0.2433(8) 0.5261(5)
H21_5 H 0.060076 0.226439 0.534195
C105_5 C 0.1684(5) 0.2512(8) 0.4901(4)
O14_3 O 0.1827(5) 0.2221(8) 0.4881(5)
N22_5 N 0.0213(6) 0.3196(6) 0.5475(5)
C116_5 C 0.0297(4) 0.2871(8) 0.5341(5)
O15_3 O 0.1899(5) 0.2730(10) 0.4792(5)
Eu5_2 Eu 0.24153(7) 0.23618(15) 0.46769(7)
Eu1_2 Eu 0.73706(6) 0.70014(14) 0.53837(6)
Eu2_2 Eu 0.75847(7) 0.76382(15) 0.46769(7)
Ru1_5 Ru 0.62623(8) 0.39172(18) 0.36803(8)
Ru2_5 Ru 0.86817(8) 0.32886(17) 0.62320(8)
C1_5 C 0.9576(9) 0.3984(6) 0.5998(6)
H1_5 H 0.965744 0.421080 0.603676
C2_5 C 0.9791(4) 0.3757(9) 0.5829(5)
C3_5 C 0.9673(8) 0.3424(8) 0.5772(4)
C4_5 C 0.9338(9) 0.3319(6) 0.5883(5)
N1_5 N 0.9123(5) 0.3546(10) 0.6052(5)
C5_5 C 0.9242(7) 0.3878(9) 0.6109(4)
H3_5 H 0.909485 0.403330 0.622414
C6_5 C 0.8019(9) 0.4386(7) 0.5862(5)
C7_5 C 0.8112(10) 0.4492(6) 0.6165(5)
C8_5 C 0.8240(6) 0.4252(6) 0.6384(4)
C9_5 C 0.8306(6) 0.4341(6) 0.6696(5)
H4_5 H 0.823006 0.455772 0.677350
C10_5 C 0.8483(6) 0.4113(8) 0.6895(3)
H5_5 H 0.852787 0.417351 0.710809
C11_5 C 0.8594(5) 0.3795(7) 0.6781(4)
H6_5 H 0.871474 0.363911 0.691690
N2_5 N 0.8528(5) 0.3706(6) 0.6469(5)
C12_5 C 0.8351(5) 0.3934(6) 0.6270(3)
N3_5 N 0.8360(5) 0.3501(6) 0.5867(4)
C13_5 C 0.8274(6) 0.3396(6) 0.5563(5)
H7_5 H 0.831953 0.316625 0.549916
C14_5 C 0.8120(6) 0.3626(8) 0.5352(3)
H8_5 H 0.806092 0.355423 0.514383
C15_5 C 0.8053(6) 0.3962(7) 0.5445(3)
H9_5 H 0.794765 0.411980 0.530044
C16_5 C 0.8139(6) 0.4068(6) 0.5749(4)
C17_5 C 0.8293(5) 0.3837(6) 0.5960(3)
O1_3 O 0.7006(6) 0.2840(11) 0.0743(6)
C18_5 C 0.8215(6) 0.2374(9) 0.8582(6)
H10_5 H 0.840116 0.230143 0.872012
C19_5 C 0.7861(7) 0.2390(9) 0.8689(4)
C20_5 C 0.7589(5) 0.2496(10) 0.8487(6)
H11_5 H 0.734733 0.250729 0.856003
C21_5 C 0.7669(6) 0.2587(9) 0.8177(5)
H12_5 H 0.748302 0.265962 0.803925
C22_5 C 0.8023(7) 0.2571(9) 0.8070(4)
C23_5 C 0.8295(5) 0.2465(10) 0.8273(6)
H13_5 H 0.853686 0.245376 0.819933
O2_3 O 0.3249(6) 0.2848(9) 0.5208(5)
O3_3 O 0.7573(6) 0.2906(11) 0.0842(6)
O4_3 O 0.8013(6) 0.2141(9) 0.9171(5)
O5_5 O 0.7993(6) 0.7036(12) 0.5417(6)
N4_5 N 0.8251(6) 0.3025(7) 0.6423(4)
C24_5 C 0.7719(5) 0.2784(8) 0.6796(6)
H14_5 H 0.752912 0.269927 0.692391
C25_5 C 0.7638(8) 0.2885(9) 0.6490(6)
H15_5 H 0.739864 0.286688 0.641276
C26_5 C 0.7909(6) 0.3011(9) 0.6296(6)
H16_5 H 0.786106 0.308456 0.608685
O6_5 O 0.6883(6) 0.7628(13) 0.4673(7)
O7_3 O 0.7474(6) 0.2315(10) 0.9139(5)
C27_5 C 0.7908(10) 0.4947(7) 0.5926(7)
N5_5 N 0.8030(8) 0.4838(8) 0.6222(6)
H17_5 H 0.805059 0.495635 0.639760
N6_5 N 0.7918(8) 0.4688(8) 0.5698(6)
N7_5 N 0.8919(6) 0.3075(6) 0.6611(5)
C34_5 C 0.9265(7) 0.3093(7) 0.6730(7)
H22_5 H 0.944352 0.317917 0.658977
C35_5 C 0.9382(9) 0.3001(7) 0.7027(6)
H23_5 H 0.962733 0.302369 0.708760
C36_5 C 0.9124(5) 0.2874(8) 0.7231(7)
H24_5 H 0.919168 0.280486 0.743785
C37_5 C 0.7773(7) 0.2278(6) 0.9008(5)
N8_5 N 0.8513(4) 0.2599(11) 0.7659(4)
C38_5 C 0.8150(5) 0.2552(12) 0.7756(3)
N9_5 N 0.7929(4) 0.2561(11) 0.7482(4)
H25_5 H 0.770297 0.249528 0.746807
C39_5 C 0.8148(3) 0.2699(7) 0.7231(3)
C40_5 C 0.8063(4) 0.2801(6) 0.6925(3)
C41_5 C 0.8330(6) 0.2926(5) 0.6727(3)
C42_5 C 0.8683(5) 0.2949(5) 0.6834(4)
C43_5 C 0.8769(3) 0.2847(6) 0.7139(4)
C44_5 C 0.8501(3) 0.2722(7) 0.7338(3)
N10_5 N 0.6079(8) 0.3511(8) 0.3965(5)
C45_5 C 0.6247(4) 0.3201(9) 0.4035(6)
H26_5 H 0.647797 0.315191 0.394914
C46_5 C 0.6078(7) 0.2964(7) 0.4230(7)
H27_5 H 0.619314 0.275293 0.427773
C47_5 C 0.5741(7) 0.3037(8) 0.4355(6)
H28_5 H 0.562523 0.287490 0.448880
C48_5 C 0.5573(5) 0.3346(9) 0.4286(6)
C49_5 C 0.5742(8) 0.3583(6) 0.4090(7)
O8_5 O 0.7431(5) 0.7066(8) 0.4779(5)
C50_5 C 0.7724(7) 0.5968(7) 0.5666(7)
C51_5 C 0.7694(7) 0.5879(8) 0.5983(6)
H29_5 H 0.764309 0.605020 0.613582
C52_5 C 0.7740(6) 0.5540(9) 0.6075(4)
H30_5 H 0.771928 0.547879 0.629174
C53_5 C 0.7814(7) 0.5289(6) 0.5851(7)
C54_5 C 0.7844(6) 0.5378(8) 0.5535(6)
H31_5 H 0.789518 0.520651 0.538153
C55_5 C 0.7799(6) 0.5717(9) 0.5442(4)
H32_5 H 0.781899 0.577792 0.522561
O9_3 O 0.3145(6) 0.3363(10) 0.5289(5)
O10_5 O 0.7596(7) 0.6431(8) 0.5294(5)
O11_5 O 0.7488(7) 0.6526(9) 0.5735(6)
C56_5 C 0.9248(7) 0.2431(8) 0.5612(5)
H33_5 H 0.938091 0.227028 0.548987
C57_5 C 0.8913(8) 0.2342(6) 0.5732(6)
H34_5 H 0.881649 0.212015 0.569260
C58_5 C 0.8719(4) 0.2577(9) 0.5911(5)
H35_5 H 0.848960 0.251584 0.599330
N11_5 N 0.8860(7) 0.2901(8) 0.5969(5)
C59_5 C 0.9195(8) 0.2990(6) 0.5849(6)
C60_5 C 0.9389(4) 0.2755(10) 0.5670(6)
O12_5 O 0.7450(5) 0.7560(7) 0.5210(5)
C61_5 C 0.7317(5) 0.6524(7) 0.4105(7)
H36_5 H 0.739092 0.669829 0.396256
C62_5 C 0.7307(4) 0.6591(5) 0.4427(8)
C63_5 C 0.7199(5) 0.6335(8) 0.4636(4)
H37_5 H 0.719180 0.638090 0.485659
C64_5 C 0.7103(5) 0.6014(7) 0.4523(6)
H38_5 H 0.702911 0.583910 0.466603
C65_5 C 0.7113(5) 0.5947(5) 0.4201(7)
C66_5 C 0.7221(6) 0.6202(8) 0.3992(4)
H39_5 H 0.722823 0.615648 0.377200
C67_5 C 0.6651(5) 0.3591(10) 0.3169(6)
C68_5 C 0.6928(7) 0.3450(10) 0.2991(5)
C69_5 C 0.7259(6) 0.3382(9) 0.3130(6)
H40_5 H 0.744821 0.328566 0.300772
C70_5 C 0.7313(5) 0.3454(9) 0.3448(6)
H41_5 H 0.753925 0.340700 0.354266
C71_5 C 0.7036(7) 0.3594(10) 0.3626(4)
H42_5 H 0.707278 0.364360 0.384334
N12_5 N 0.6705(5) 0.3663(9) 0.3487(6)
C72_5 C 0.6296(5) 0.3613(10) 0.3057(6)
N13_5 N 0.6036(7) 0.3720(10) 0.3271(4)
C73_5 C 0.5686(6) 0.3784(10) 0.3169(6)
H43_5 H 0.550861 0.385732 0.331589
C74_5 C 0.5597(4) 0.3741(10) 0.2853(6)
H44_5 H 0.535807 0.378482 0.278379
C75_5 C 0.5857(7) 0.3634(10) 0.2639(4)
H45_5 H 0.579574 0.360464 0.242280
C76_5 C 0.6206(6) 0.3570(9) 0.2740(6)
C77_5 C 0.6808(7) 0.3296(10) 0.2721(4)
C78_5 C 0.6459(6) 0.3358(10) 0.2598(6)
N14_5 N 0.6476(5) 0.3323(10) 0.2264(5)
C79_5 C 0.6836(6) 0.3239(11) 0.2182(4)
N15_5 N 0.7041(4) 0.3223(10) 0.2464(6)
H46_5 H 0.727234 0.317545 0.247682
C80_5 C 0.5353(9) 0.4572(6) 0.3936(7)
H47_5 H 0.527088 0.480193 0.391571
C81_5 C 0.5668(7) 0.4469(8) 0.3787(5)
H48_5 H 0.580197 0.462893 0.366489
N16_5 N 0.5788(5) 0.4133(10) 0.3817(5)
C82_5 C 0.5592(9) 0.3899(6) 0.3996(7)
C83_5 C 0.5277(8) 0.4002(9) 0.4145(6)
C84_5 C 0.5157(5) 0.4338(10) 0.4115(6)
H49_3 H 0.494133 0.440868 0.421689
C85_5 C 0.7254(6) 0.2896(17) 0.0935(6)
N17_5 N 0.6416(6) 0.4376(6) 0.3474(7)
C86_5 C 0.6349(5) 0.4481(8) 0.3166(6)
H50_5 H 0.625498 0.432232 0.301668
C87_5 C 0.6420(6) 0.4817(10) 0.3076(4)
H51_5 H 0.637374 0.488859 0.286541
C88_5 C 0.6557(6) 0.5049(6) 0.3294(7)
H52_5 H 0.660566 0.527871 0.323269
C89_5 C 0.6625(4) 0.4944(7) 0.3602(6)
C90_5 C 0.6554(5) 0.4608(8) 0.3692(4)
C91_5 C 0.6652(6) 0.4026(6) 0.4362(8)
H53_5 H 0.660572 0.379190 0.440881
N18_5 N 0.6575(5) 0.4156(8) 0.4064(6)
C92_5 C 0.6643(6) 0.4498(9) 0.3996(4)
C93_5 C 0.6789(6) 0.4712(5) 0.4226(7)
C94_5 C 0.6866(5) 0.4582(8) 0.4524(6)
H54_5 H 0.696597 0.472804 0.468061
C95_5 C 0.6798(6) 0.4239(9) 0.4592(4)
H55_5 H 0.685130 0.415101 0.479554
N19_3 N 0.4739(5) 0.3789(7) 0.4488(6)
C96_5 C 0.5089(6) 0.3791(8) 0.4355(6)
C97_5 C 0.5241(4) 0.3459(9) 0.4397(6)
N20_3 N 0.4983(7) 0.3253(6) 0.4556(6)
H56_5 H 0.501136 0.303638 0.460977
C98_3 C 0.4673(5) 0.3456(8) 0.4612(6)
C99_5 C 0.7146(7) 0.2997(10) 0.1244(4)
C100_5 C 0.7408(5) 0.3081(10) 0.1466(6)
H57_5 H 0.765413 0.308799 0.140610
C101_5 C 0.7309(6) 0.3155(10) 0.1775(5)
H58_5 H 0.748770 0.321253 0.192628
C102_5 C 0.6948(7) 0.3145(10) 0.1862(4)
C103_5 C 0.6687(5) 0.3061(11) 0.1641(6)
H59_5 H 0.644039 0.305424 0.170083
C104_5 C 0.6786(6) 0.2987(10) 0.1332(5)
H60_5 H 0.660682 0.292970 0.118065
C106_5 C 0.7629(11) 0.6305(7) 0.5562(6)
O13_5 O 0.7507(5) 0.7159(8) 0.4329(6)
C107_5 C 0.3361(5) 0.3147(9) 0.5185(3)
C108_3 C 0.4371(4) 0.3374(9) 0.4790(4)
C109_3 C 0.4253(6) 0.3037(8) 0.4815(5)
H61_3 H 0.440168 0.285464 0.474200
C110_3 C 0.3918(7) 0.2965(8) 0.4945(5)
H62_3 H 0.383777 0.273477 0.496213
C111_5 C 0.3701(4) 0.3232(9) 0.5052(4)
C112_5 C 0.3818(6) 0.3569(8) 0.5027(5)
H63_5 H 0.366969 0.375142 0.509957
C113_3 C 0.4153(7) 0.3641(8) 0.4896(6)
H64_3 H 0.423359 0.387130 0.487944
N21_5 N 0.9999(7) 0.2650(6) 0.5394(6)
H65_5 H 0.998301 0.243409 0.533414
C114_5 C 0.9731(4) 0.2838(8) 0.5560(5)
C115_5 C 0.9864(6) 0.3175(7) 0.5610(5)
C117_5 C 0.7412(3) 0.6931(6) 0.4515(6)
N23_5 N 0.6892(5) 0.5510(7) 0.3798(5)
C118_5 C 0.7051(6) 0.5603(5) 0.4090(6)
N24_5 N 0.7014(5) 0.5321(8) 0.4301(4)
H66_5 H 0.709018 0.531383 0.449704
C119_5 C 0.6832(6) 0.5054(5) 0.4138(7)
C120_5 C 0.6757(5) 0.5171(7) 0.3827(6)
Eu3_2 Eu 0.26294(6) 0.29986(14) 0.53837(6)
Eu4_3 Eu 0.76294(6) 0.20014(14) 0.96163(6)
Eu6_3 Eu 0.74153(7) 0.26382(15) 0.03231(7)
O16_3 O 0.7994(6) 0.7840(11) 0.4257(6)
O17_3 O 0.6751(6) 0.7152(9) 0.5208(5)
O18_3 O 0.7427(6) 0.7906(11) 0.4158(6)
O19_3 O 0.6987(6) 0.7141(9) 0.5829(5)
O20_3 O 0.7526(6) 0.7315(10) 0.5861(5)
O21_3 O 0.6855(6) 0.6637(10) 0.5289(5)
O22_3 O 0.8173(5) 0.7779(8) 0.4881(5)
O23_3 O 0.8101(5) 0.7270(10) 0.4792(5)
H67_5 H 0.807486 0.725916 0.532957
H68_5 H 0.806791 0.701797 0.564136
H69_5 H 0.679363 0.754895 0.488156
H70_5 H 0.679044 0.78624 0.46299
Ru1_6 Ru 0.37377(8) 0.60828(18) 0.36803(8)
Ru2_6 Ru 0.13183(8) 0.67114(17) 0.62320(8)
C1_6 C 0.0424(9) 0.6016(6) 0.5998(6)
H1_6 H 0.034256 0.578920 0.603676
C2_6 C 0.0209(4) 0.6243(9) 0.5829(5)
C3_6 C 0.0327(8) 0.6576(8) 0.5772(4)
C4_6 C 0.0662(9) 0.6681(6) 0.5883(5)
N1_6 N 0.0877(5) 0.6454(10) 0.6052(5)
C5_6 C 0.0758(7) 0.6122(9) 0.6109(4)
H3_6 H 0.090515 0.596670 0.622414
C6_6 C 0.1981(9) 0.5614(7) 0.5862(5)
C7_6 C 0.1888(10) 0.5508(6) 0.6165(5)
C8_6 C 0.1760(6) 0.5748(6) 0.6384(4)
C9_6 C 0.1694(6) 0.5659(6) 0.6696(5)
H4_6 H 0.176994 0.544228 0.677350
C10_6 C 0.1517(6) 0.5887(8) 0.6895(3)
H5_6 H 0.147213 0.582649 0.710809
C11_6 C 0.1406(5) 0.6205(7) 0.6781(4)
H6_6 H 0.128526 0.636089 0.691690
N2_6 N 0.1472(5) 0.6294(6) 0.6469(5)
C12_6 C 0.1649(5) 0.6066(6) 0.6270(3)
N3_6 N 0.1640(5) 0.6499(6) 0.5867(4)
C13_6 C 0.1726(6) 0.6604(6) 0.5563(5)
H7_6 H 0.168047 0.683375 0.549916
C14_6 C 0.1880(6) 0.6374(8) 0.5352(3)
H8_6 H 0.193908 0.644577 0.514383
C15_6 C 0.1947(6) 0.6038(7) 0.5445(3)
H9_6 H 0.205235 0.588020 0.530044
C16_6 C 0.1861(6) 0.5932(6) 0.5749(4)
C17_6 C 0.1707(5) 0.6163(6) 0.5960(3)
O1_4 O 0.2994(6) 0.7160(11) 0.0743(6)
C18_6 C 0.1785(6) 0.7626(9) 0.8582(6)
H10_6 H 0.159884 0.769857 0.872012
C19_6 C 0.2139(7) 0.7610(9) 0.8689(4)
C20_6 C 0.2411(5) 0.7504(10) 0.8487(6)
H11_6 H 0.265267 0.749271 0.856003
C21_6 C 0.2331(6) 0.7413(9) 0.8177(5)
H12_6 H 0.251698 0.734038 0.803925
C22_6 C 0.1977(7) 0.7429(9) 0.8070(4)
C23_6 C 0.1705(5) 0.7535(10) 0.8273(6)
H13_6 H 0.146314 0.754624 0.819933
O3_4 O 0.2427(6) 0.7094(11) 0.0842(6)
O4_4 O 0.1987(6) 0.7859(9) 0.9171(5)
O5_6 O 0.2007(6) 0.2964(12) 0.5417(6)
N4_6 N 0.1749(6) 0.6975(7) 0.6423(4)
C24_6 C 0.2281(5) 0.7216(8) 0.6796(6)
H14_6 H 0.247088 0.730073 0.692391
C25_6 C 0.2362(8) 0.7115(9) 0.6490(6)
H15_6 H 0.260136 0.713312 0.641276
C26_6 C 0.2091(6) 0.6989(9) 0.6296(6)
H16_6 H 0.213894 0.691544 0.608685
O6_6 O 0.3117(6) 0.2372(13) 0.4673(7)
O7_4 O 0.2526(6) 0.7685(10) 0.9139(5)
C27_6 C 0.2092(10) 0.5053(7) 0.5926(7)
N5_6 N 0.1970(8) 0.5162(8) 0.6222(6)
H17_6 H 0.194941 0.504365 0.639760
N6_6 N 0.2082(8) 0.5312(8) 0.5698(6)
N7_6 N 0.1081(6) 0.6925(6) 0.6611(5)
C34_6 C 0.0735(7) 0.6907(7) 0.6730(7)
H22_6 H 0.055648 0.682083 0.658977
C35_6 C 0.0618(9) 0.6999(7) 0.7027(6)
H23_6 H 0.037267 0.697631 0.708760
C36_6 C 0.0876(5) 0.7126(8) 0.7231(7)
H24_6 H 0.080832 0.719514 0.743785
C37_6 C 0.2227(7) 0.7722(6) 0.9008(5)
N8_6 N 0.1487(4) 0.7401(11) 0.7659(4)
C38_6 C 0.1850(5) 0.7448(12) 0.7756(3)
N9_6 N 0.2071(4) 0.7439(11) 0.7482(4)
H25_6 H 0.229703 0.750472 0.746807
C39_6 C 0.1852(3) 0.7301(7) 0.7231(3)
C40_6 C 0.1937(4) 0.7199(6) 0.6925(3)
C41_6 C 0.1670(6) 0.7074(5) 0.6727(3)
C42_6 C 0.1317(5) 0.7051(5) 0.6834(4)
C43_6 C 0.1231(3) 0.7153(6) 0.7139(4)
C44_6 C 0.1499(3) 0.7278(7) 0.7338(3)
N10_6 N 0.3921(8) 0.6489(8) 0.3965(5)
C45_6 C 0.3753(4) 0.6799(9) 0.4035(6)
H26_6 H 0.352203 0.684809 0.394914
C46_6 C 0.3922(7) 0.7036(7) 0.4230(7)
H27_6 H 0.380686 0.724707 0.427773
C47_6 C 0.4259(7) 0.6963(8) 0.4355(6)
H28_6 H 0.437477 0.712510 0.448880
C48_6 C 0.4427(5) 0.6654(9) 0.4286(6)
C49_6 C 0.4258(8) 0.6417(6) 0.4090(7)
O8_6 O 0.2569(5) 0.2934(8) 0.4779(5)
C50_6 C 0.2276(7) 0.4032(7) 0.5666(7)
C51_6 C 0.2306(7) 0.4121(8) 0.5983(6)
H29_6 H 0.235691 0.394980 0.613582
C52_6 C 0.2260(6) 0.4460(9) 0.6075(4)
H30_6 H 0.228072 0.452121 0.629174
C53_6 C 0.2186(7) 0.4711(6) 0.5851(7)
C54_6 C 0.2156(6) 0.4622(8) 0.5535(6)
H31_6 H 0.210482 0.479349 0.538153
C55_6 C 0.2201(6) 0.4283(9) 0.5442(4)
H32_6 H 0.218101 0.422208 0.522561
O10_6 O 0.2404(7) 0.3569(8) 0.5294(5)
O11_6 O 0.2512(7) 0.3474(9) 0.5735(6)
C56_6 C 0.0752(7) 0.7569(8) 0.5612(5)
H33_6 H 0.061909 0.772972 0.548987
C57_6 C 0.1087(8) 0.7658(6) 0.5732(6)
H34_6 H 0.118351 0.787985 0.569260
C58_6 C 0.1281(4) 0.7423(9) 0.5911(5)
H35_6 H 0.151040 0.748416 0.599330
N11_6 N 0.1140(7) 0.7099(8) 0.5969(5)
C59_6 C 0.0805(8) 0.7010(6) 0.5849(6)
C60_6 C 0.0611(4) 0.7245(10) 0.5670(6)
O12_6 O 0.2550(5) 0.2440(7) 0.5210(5)
C61_6 C 0.2683(5) 0.3476(7) 0.4105(7)
H36_6 H 0.260908 0.330171 0.396256
C62_6 C 0.2693(4) 0.3409(5) 0.4427(8)
C63_6 C 0.2801(5) 0.3665(8) 0.4636(4)
H37_6 H 0.280820 0.361910 0.485659
C64_6 C 0.2897(5) 0.3986(7) 0.4523(6)
H38_6 H 0.297089 0.416090 0.466603
C65_6 C 0.2887(5) 0.4053(5) 0.4201(7)
C66_6 C 0.2779(6) 0.3798(8) 0.3992(4)
H39_6 H 0.277177 0.384352 0.377200
C67_6 C 0.3349(5) 0.6409(10) 0.3169(6)
C68_6 C 0.3072(7) 0.6550(10) 0.2991(5)
C69_6 C 0.2741(6) 0.6618(9) 0.3130(6)
H40_6 H 0.255179 0.671434 0.300772
C70_6 C 0.2687(5) 0.6546(9) 0.3448(6)
H41_6 H 0.246075 0.659300 0.354266
C71_6 C 0.2964(7) 0.6406(10) 0.3626(4)
H42_6 H 0.292722 0.635640 0.384334
N12_6 N 0.3295(5) 0.6337(9) 0.3487(6)
C72_6 C 0.3704(5) 0.6387(10) 0.3057(6)
N13_6 N 0.3964(7) 0.6280(10) 0.3271(4)
C73_6 C 0.4314(6) 0.6216(10) 0.3169(6)
H43_6 H 0.449139 0.614268 0.331589
C74_6 C 0.4403(4) 0.6259(10) 0.2853(6)
H44_6 H 0.464193 0.621518 0.278379
C75_6 C 0.4143(7) 0.6366(10) 0.2639(4)
H45_6 H 0.420426 0.639536 0.242280
C76_6 C 0.3794(6) 0.6430(9) 0.2740(6)
C77_6 C 0.3192(7) 0.6704(10) 0.2721(4)
C78_6 C 0.3541(6) 0.6642(10) 0.2598(6)
N14_6 N 0.3524(5) 0.6677(10) 0.2264(5)
C79_6 C 0.3164(6) 0.6761(11) 0.2182(4)
N15_6 N 0.2959(4) 0.6777(10) 0.2464(6)
H46_6 H 0.272766 0.682455 0.247682
C80_6 C 0.4647(9) 0.5428(6) 0.3936(7)
H47_6 H 0.472912 0.519807 0.391571
C81_6 C 0.4332(7) 0.5531(8) 0.3787(5)
H48_6 H 0.419803 0.537107 0.366489
N16_6 N 0.4212(5) 0.5867(10) 0.3817(5)
C82_6 C 0.4408(9) 0.6101(6) 0.3996(7)
C83_6 C 0.4723(8) 0.5998(9) 0.4145(6)
C84_6 C 0.4843(5) 0.5662(10) 0.4115(6)
H49_4 H 0.505867 0.559132 0.421689
C85_6 C 0.2746(6) 0.7104(17) 0.0935(6)
N17_6 N 0.3584(6) 0.5624(6) 0.3474(7)
C86_6 C 0.3651(5) 0.5519(8) 0.3166(6)
H50_6 H 0.374502 0.567768 0.301668
C87_6 C 0.3580(6) 0.5183(10) 0.3076(4)
H51_6 H 0.362626 0.511141 0.286541
C88_6 C 0.3443(6) 0.4951(6) 0.3294(7)
H52_6 H 0.339434 0.472129 0.323269
C89_6 C 0.3375(4) 0.5056(7) 0.3602(6)
C90_6 C 0.3446(5) 0.5392(8) 0.3692(4)
C91_6 C 0.3348(6) 0.5974(6) 0.4362(8)
H53_6 H 0.339428 0.620810 0.440881
N18_6 N 0.3425(5) 0.5844(8) 0.4064(6)
C92_6 C 0.3357(6) 0.5502(9) 0.3996(4)
C93_6 C 0.3211(6) 0.5288(5) 0.4226(7)
C94_6 C 0.3134(5) 0.5418(8) 0.4524(6)
H54_6 H 0.303403 0.527196 0.468061
C95_6 C 0.3202(6) 0.5761(9) 0.4592(4)
H55_6 H 0.314870 0.584899 0.479554
N19_4 N 0.5261(5) 0.6211(7) 0.4488(6)
C96_6 C 0.4911(6) 0.6209(8) 0.4355(6)
C97_6 C 0.4759(4) 0.6541(9) 0.4397(6)
N20_4 N 0.5017(7) 0.6747(6) 0.4556(6)
H56_6 H 0.498864 0.696362 0.460977
C98_4 C 0.5327(5) 0.6544(8) 0.4612(6)
C99_6 C 0.2854(7) 0.7003(10) 0.1244(4)
C100_6 C 0.2592(5) 0.6919(10) 0.1466(6)
H57_6 H 0.234587 0.691201 0.140610
C101_6 C 0.2691(6) 0.6845(10) 0.1775(5)
H58_6 H 0.251230 0.678747 0.192628
C102_6 C 0.3052(7) 0.6855(10) 0.1862(4)
C103_6 C 0.3313(5) 0.6939(11) 0.1641(6)
H59_6 H 0.355961 0.694576 0.170083
C104_6 C 0.3214(6) 0.7013(10) 0.1332(5)
H60_6 H 0.339318 0.707030 0.118065
C106_6 C 0.2371(11) 0.3695(7) 0.5562(6)
O13_6 O 0.2493(5) 0.2841(8) 0.4329(6)
C107_6 C 0.6639(5) 0.6853(9) 0.5185(3)
C108_4 C 0.5629(4) 0.6626(9) 0.4790(4)
C109_4 C 0.5747(6) 0.6963(8) 0.4815(5)
H61_4 H 0.559832 0.714536 0.474200
C110_4 C 0.6082(7) 0.7035(8) 0.4945(5)
H62_4 H 0.616223 0.726523 0.496213
C111_6 C 0.6299(4) 0.6768(9) 0.5052(4)
C112_6 C 0.6182(6) 0.6431(8) 0.5027(5)
H63_6 H 0.633031 0.624858 0.509957
C113_4 C 0.5847(7) 0.6359(8) 0.4896(6)
H64_4 H 0.576641 0.612870 0.487944
N21_6 N 0.0001(7) 0.7350(6) 0.5394(6)
H65_6 H 0.001699 0.756591 0.533414
C114_6 C 0.0269(4) 0.7162(8) 0.5560(5)
C115_6 C 0.0136(6) 0.6825(7) 0.5610(5)
C117_6 C 0.2588(3) 0.3069(6) 0.4515(6)
N23_6 N 0.3108(5) 0.4490(7) 0.3798(5)
C118_6 C 0.2949(6) 0.4397(5) 0.4090(6)
N24_6 N 0.2986(5) 0.4679(8) 0.4301(4)
H66_6 H 0.290982 0.468617 0.449704
C119_6 C 0.3168(6) 0.4946(5) 0.4138(7)
C120_6 C 0.3243(5) 0.4829(7) 0.3827(6)
Eu4_4 Eu 0.23706(6) 0.79986(14) 0.96163(6)
Eu6_4 Eu 0.25847(7) 0.73618(15) 0.03231(7)
O16_4 O 0.2006(6) 0.2160(11) 0.4257(6)
O18_4 O 0.2573(6) 0.2094(11) 0.4158(6)
O19_4 O 0.3013(6) 0.2859(9) 0.5829(5)
O20_4 O 0.2474(6) 0.2685(10) 0.5861(5)
H67_6 H 0.192514 0.274084 0.532957
H68_6 H 0.193209 0.298203 0.564136
H69_6 H 0.320637 0.245105 0.488156
H70_6 H 0.320956 0.21376 0.46299
H2_6 H 0.998012 0.617132 0.575300
C28_6 C 0.9341(4) 0.7223(9) 0.5259(4)
C29_6 C 0.9107(7) 0.6976(7) 0.5141(6)
H18_6 H 0.917630 0.674150 0.514006
C30_6 C 0.8772(6) 0.7072(8) 0.5025(5)
H19_6 H 0.861221 0.690339 0.494442
C31_6 C 0.8671(3) 0.7416(9) 0.5027(3)
C32_6 C 0.8904(6) 0.7663(7) 0.5145(5)
H20_6 H 0.883514 0.789749 0.514630
C33_6 C 0.9239(6) 0.7567(8) 0.5261(5)
H21_6 H 0.939924 0.773561 0.534195
C105_6 C 0.8316(5) 0.7488(8) 0.4901(4)
N22_6 N 0.9787(6) 0.6804(6) 0.5475(5)
C116_6 C 0.9703(4) 0.7129(8) 0.5341(5)
Ru1_7 Ru 0.12623(8) 0.10828(18) 0.13197(8)
H19_7 H 0.638779 0.190339 0.005558
N10_7 N 0.1079(8) 0.1489(8) 0.1035(5)
C45_7 C 0.1247(4) 0.1799(9) 0.0965(6)
H26_7 H 0.147797 0.184809 0.105086
C46_7 C 0.1078(7) 0.2036(7) 0.0770(7)
H27_7 H 0.119314 0.224707 0.072227
C47_7 C 0.0741(7) 0.1963(8) 0.0645(6)
H28_7 H 0.062523 0.212510 0.051120
C48_7 C 0.0573(5) 0.1654(9) 0.0714(6)
C49_7 C 0.0742(8) 0.1417(6) 0.0910(7)
C67_7 C 0.1651(5) 0.1409(10) 0.1831(6)
C68_7 C 0.1928(7) 0.1550(10) 0.2009(5)
C69_7 C 0.2259(6) 0.1618(9) 0.1870(6)
H40_7 H 0.244821 0.171434 0.199228
C70_7 C 0.2313(5) 0.1546(9) 0.1552(6)
H41_7 H 0.253925 0.159300 0.145734
C71_7 C 0.2036(7) 0.1406(10) 0.1374(4)
H42_7 H 0.207278 0.135640 0.115666
N12_7 N 0.1705(5) 0.1337(9) 0.1513(6)
C72_7 C 0.1296(5) 0.1387(10) 0.1943(6)
N13_7 N 0.1036(7) 0.1280(10) 0.1729(4)
C73_7 C 0.0686(6) 0.1216(10) 0.1831(6)
H43_7 H 0.050861 0.114268 0.168411
C74_7 C 0.0597(4) 0.1259(10) 0.2147(6)
H44_7 H 0.035807 0.121518 0.221621
C75_7 C 0.0857(7) 0.1366(10) 0.2361(4)
H45_7 H 0.079574 0.139536 0.257720
C76_7 C 0.1206(6) 0.1430(9) 0.2260(6)
C77_7 C 0.1808(7) 0.1704(10) 0.2279(4)
C78_7 C 0.1459(6) 0.1642(10) 0.2402(6)
N14_7 N 0.1476(5) 0.1677(10) 0.2736(5)
C79_7 C 0.1836(6) 0.1761(11) 0.2818(4)
N15_7 N 0.2041(4) 0.1777(10) 0.2536(6)
H46_7 H 0.227234 0.182455 0.252318
C80_7 C 0.0353(9) 0.0428(6) 0.1064(7)
H47_7 H 0.027088 0.019807 0.108429
C81_7 C 0.0668(7) 0.0531(8) 0.1213(5)
H48_7 H 0.080197 0.037107 0.133511
N16_7 N 0.0788(5) 0.0867(10) 0.1183(5)
C82_7 C 0.0592(9) 0.1101(6) 0.1004(7)
C83_7 C 0.0277(8) 0.0998(9) 0.0855(6)
C84_7 C 0.0157(5) 0.0662(10) 0.0885(6)
C85_7 C 0.2254(6) 0.2104(17) 0.4065(6)
N17_7 N 0.1416(6) 0.0624(6) 0.1526(7)
C86_7 C 0.1349(5) 0.0519(8) 0.1834(6)
H50_7 H 0.125498 0.067768 0.198332
C87_7 C 0.1420(6) 0.0183(10) 0.1924(4)
H51_7 H 0.137374 0.011141 0.213459
C89_7 C 0.1625(4) 0.0056(7) 0.1398(6)
C90_7 C 0.1554(5) 0.0392(8) 0.1308(4)
C91_7 C 0.1652(6) 0.0974(6) 0.0638(8)
H53_7 H 0.160572 0.120810 0.059119
N18_7 N 0.1575(5) 0.0844(8) 0.0936(6)
C92_7 C 0.1643(6) 0.0502(9) 0.1004(4)
C93_7 C 0.1789(6) 0.0288(5) 0.0774(7)
C94_7 C 0.1866(5) 0.0418(8) 0.0476(6)
H54_7 H 0.196597 0.027196 0.031939
C95_7 C 0.1798(6) 0.0761(9) 0.0408(4)
H55_7 H 0.185130 0.084899 0.020446
C96_7 C 0.0089(6) 0.1209(8) 0.0645(6)
C97_7 C 0.0241(4) 0.1541(9) 0.0603(6)
H56_7 H 0.001136 0.196362 0.039023
C99_7 C 0.2146(7) 0.2003(10) 0.3756(4)
C100_7 C 0.2408(5) 0.1919(10) 0.3534(6)
H57_7 H 0.265413 0.191201 0.359390
C101_7 C 0.2309(6) 0.1845(10) 0.3225(5)
H58_7 H 0.248770 0.178747 0.307372
C102_7 C 0.1948(7) 0.1855(10) 0.3138(4)
C103_7 C 0.1687(5) 0.1939(11) 0.3359(6)
H59_7 H 0.144039 0.194576 0.329917
C104_7 C 0.1786(6) 0.2013(10) 0.3668(5)
H60_7 H 0.160682 0.207030 0.381935
C105_7 C 0.6684(5) 0.2488(8) 0.0099(4)
O14_4 O 0.6827(5) 0.2779(8) 0.0119(5)
O15_4 O 0.6899(5) 0.2270(10) 0.0208(5)
Ru2_7 Ru 0.36817(8) 0.17114(17) 0.87680(8)
C1_7 C 0.4576(9) 0.1016(6) 0.9002(6)
H1_7 H 0.465744 0.078920 0.896324
C2_7 C 0.4791(4) 0.1243(9) 0.9171(5)
H2_7 H 0.501988 0.117132 0.924700
C3_7 C 0.4673(8) 0.1576(8) 0.9228(4)
C4_7 C 0.4338(9) 0.1681(6) 0.9117(5)
N1_7 N 0.4123(5) 0.1454(10) 0.8948(5)
C5_7 C 0.4242(7) 0.1122(9) 0.8891(4)
H3_7 H 0.409485 0.096670 0.877586
C6_7 C 0.3019(9) 0.0614(7) 0.9138(5)
C7_7 C 0.3112(10) 0.0508(6) 0.8835(5)
C8_7 C 0.3240(6) 0.0748(6) 0.8616(4)
C9_7 C 0.3306(6) 0.0659(6) 0.8304(5)
H4_7 H 0.323006 0.044228 0.822650
C10_7 C 0.3483(6) 0.0887(8) 0.8105(3)
H5_7 H 0.352787 0.082649 0.789191
C11_7 C 0.3594(5) 0.1205(7) 0.8219(4)
H6_7 H 0.371474 0.136089 0.808310
N2_7 N 0.3528(5) 0.1294(6) 0.8531(5)
C12_7 C 0.3351(5) 0.1066(6) 0.8730(3)
N3_7 N 0.3360(5) 0.1499(6) 0.9133(4)
C13_7 C 0.3274(6) 0.1604(6) 0.9437(5)
H7_7 H 0.331953 0.183375 0.950084
C14_7 C 0.3120(6) 0.1374(8) 0.9648(3)
H8_7 H 0.306092 0.144577 0.985617
C15_7 C 0.3053(6) 0.1038(7) 0.9555(3)
H9_7 H 0.294765 0.088020 0.969956
C16_7 C 0.3139(6) 0.0932(6) 0.9251(4)
C17_7 C 0.3293(5) 0.1163(6) 0.9040(3)
C18_7 C 0.3215(6) 0.2626(9) 0.6418(6)
H10_7 H 0.340116 0.269857 0.627988
C19_7 C 0.2861(7) 0.2610(9) 0.6311(4)
C20_7 C 0.2589(5) 0.2504(10) 0.6513(6)
H11_7 H 0.234733 0.249271 0.643997
C21_7 C 0.2669(6) 0.2413(9) 0.6823(5)
H12_7 H 0.248302 0.234038 0.696075
C22_7 C 0.3023(7) 0.2429(9) 0.6930(4)
C23_7 C 0.3295(5) 0.2535(10) 0.6727(6)
H13_7 H 0.353686 0.254624 0.680067
N4_7 N 0.3251(6) 0.1975(7) 0.8577(4)
C24_7 C 0.2719(5) 0.2216(8) 0.8204(6)
H14_7 H 0.252912 0.230073 0.807609
C25_7 C 0.2638(8) 0.2115(9) 0.8510(6)
H15_7 H 0.239864 0.213312 0.858724
C26_7 C 0.2909(6) 0.1989(9) 0.8704(6)
H16_7 H 0.286106 0.191544 0.891315
C27_7 C 0.2908(10) 0.0053(7) 0.9074(7)
N5_7 N 0.3030(8) 0.0162(8) 0.8778(6)
H17_7 H 0.305059 0.004365 0.860240
N6_7 N 0.2918(8) 0.0312(8) 0.9302(6)
C28_7 C 0.5659(4) 0.2223(9) 0.9741(4)
C29_7 C 0.5893(7) 0.1976(7) 0.9859(6)
H18_7 H 0.582370 0.174150 0.985994
C30_7 C 0.6228(6) 0.2072(8) 0.9975(5)
C31_7 C 0.6329(3) 0.2416(9) 0.9973(3)
C32_7 C 0.6096(6) 0.2663(7) 0.9855(5)
H20_7 H 0.616486 0.289749 0.985370
C33_7 C 0.5761(6) 0.2567(8) 0.9739(5)
H21_7 H 0.560076 0.273561 0.965805
N7_7 N 0.3919(6) 0.1925(6) 0.8389(5)
C34_7 C 0.4265(7) 0.1907(7) 0.8270(7)
H22_7 H 0.444352 0.182083 0.841023
C35_7 C 0.4382(9) 0.1999(7) 0.7973(6)
H23_7 H 0.462733 0.197631 0.791240
C36_7 C 0.4124(5) 0.2126(8) 0.7769(7)
H24_7 H 0.419168 0.219514 0.756215
C37_7 C 0.2773(7) 0.2722(6) 0.5992(5)
N8_7 N 0.3513(4) 0.2401(11) 0.7341(4)
C38_7 C 0.3150(5) 0.2448(12) 0.7244(3)
N9_7 N 0.2929(4) 0.2439(11) 0.7518(4)
H25_7 H 0.270297 0.250472 0.753193
C39_7 C 0.3148(3) 0.2301(7) 0.7769(3)
C40_7 C 0.3063(4) 0.2199(6) 0.8075(3)
C41_7 C 0.3330(6) 0.2074(5) 0.8273(3)
C42_7 C 0.3683(5) 0.2051(5) 0.8166(4)
C43_7 C 0.3769(3) 0.2153(6) 0.7861(4)
C44_7 C 0.3501(3) 0.2278(7) 0.7662(3)
C56_7 C 0.4248(7) 0.2569(8) 0.9388(5)
H33_7 H 0.438091 0.272972 0.951013
C57_7 C 0.3913(8) 0.2658(6) 0.9268(6)
H34_7 H 0.381649 0.287985 0.930740
C58_7 C 0.3719(4) 0.2423(9) 0.9089(5)
H35_7 H 0.348960 0.248416 0.900670
N11_7 N 0.3860(7) 0.2099(8) 0.9031(5)
C59_7 C 0.4195(8) 0.2010(6) 0.9151(6)
C60_7 C 0.4389(4) 0.2245(10) 0.9330(6)
N21_7 N 0.4999(7) 0.2350(6) 0.9606(6)
H65_7 H 0.498301 0.256591 0.966586
C114_7 C 0.4731(4) 0.2162(8) 0.9440(5)
C115_7 C 0.4864(6) 0.1825(7) 0.9390(5)
N22_7 N 0.5213(6) 0.1804(6) 0.9525(5)
C116_7 C 0.5297(4) 0.2129(8) 0.9659(5)
O6_7 O 0.1883(6) 0.7372(13) 0.0327(7)
O8_7 O 0.2431(5) 0.7934(8) 0.0221(5)
C61_7 C 0.2317(5) 0.8476(7) 0.0895(7)
H36_7 H 0.239092 0.830171 0.103744
C62_7 C 0.2307(4) 0.8409(5) 0.0573(8)
C63_7 C 0.2199(5) 0.8665(8) 0.0364(4)
H37_7 H 0.219180 0.861910 0.014341
C64_7 C 0.2103(5) 0.8986(7) 0.0477(6)
H38_7 H 0.202911 0.916090 0.033397
C65_7 C 0.2113(5) 0.9053(5) 0.0799(7)
C66_7 C 0.2221(6) 0.8798(8) 0.1008(4)
H39_7 H 0.222823 0.884352 0.122800
C88_7 C 0.1557(6) 0.9951(6) 0.1706(7)
H52_7 H 0.160566 0.972129 0.176731
O13_7 O 0.2507(5) 0.7841(8) 0.0671(6)
C117_7 C 0.2412(3) 0.8069(6) 0.0485(6)
N23_7 N 0.1892(5) 0.9490(7) 0.1202(5)
C118_7 C 0.2051(6) 0.9397(5) 0.0910(6)
N24_7 N 0.2014(5) 0.9679(8) 0.0699(4)
H66_7 H 0.209018 0.968617 0.050296
C119_7 C 0.1832(6) 0.9946(5) 0.0862(7)
C120_7 C 0.1757(5) 0.9829(7) 0.1173(6)
O22_4 O 0.3173(5) 0.7221(8) 0.0119(5)
O23_4 O 0.3101(5) 0.7730(10) 0.0208(5)
H69_7 H 0.179363 0.745105 0.0118436
H70_7 H 0.179044 0.71376 0.0370098
O5_7 O 0.2993(6) 0.7964(12) 0.9583(6)
C50_7 C 0.2724(7) 0.9032(7) 0.9334(7)
C51_7 C 0.2694(7) 0.9121(8) 0.9017(6)
H29_7 H 0.264309 0.894980 0.886418
C52_7 C 0.2740(6) 0.9460(9) 0.8925(4)
H30_7 H 0.271928 0.952121 0.870826
C53_7 C 0.2814(7) 0.9711(6) 0.9149(7)
C54_7 C 0.2844(6) 0.9622(8) 0.9465(6)
H31_7 H 0.289518 0.979349 0.961847
C55_7 C 0.2799(6) 0.9283(9) 0.9558(4)
H32_7 H 0.281899 0.922208 0.977439
O10_7 O 0.2596(7) 0.8569(8) 0.9706(5)
O11_7 O 0.2488(7) 0.8474(9) 0.9265(6)
O12_7 O 0.2450(5) 0.7440(7) 0.9790(5)
C106_7 C 0.2629(11) 0.8695(7) 0.9438(6)
O17_4 O 0.1751(6) 0.7848(9) 0.9792(5)
O21_4 O 0.1855(6) 0.8363(10) 0.9711(5)
H67_7 H 0.307486 0.774084 0.967043
H68_7 H 0.306791 0.798203 0.935864
O2_4 O 0.8249(6) 0.2152(9) 0.9792(5)
O9_4 O 0.8145(6) 0.1637(10) 0.9711(5)
C107_7 C 0.8361(5) 0.1853(9) 0.9815(3)
C111_7 C 0.8701(4) 0.1768(9) 0.9948(4)
C112_7 C 0.8818(6) 0.1431(8) 0.9973(5)
H63_7 H 0.866969 0.124858 0.990043
C107_8 C 0.1639(5) 0.8147(9) 0.9815(3)
C111_8 C 0.1299(4) 0.8232(9) 0.9948(4)
C112_8 C 0.1182(6) 0.8569(8) 0.9973(5)
H63_8 H 0.133031 0.875142 0.990043
O6_8 O 0.8117(6) 0.2628(13) 0.0327(7)
O8_8 O 0.7569(5) 0.2066(8) 0.0221(5)
C61_8 C 0.7683(5) 0.1524(7) 0.0895(7)
H36_8 H 0.760908 0.169829 0.103744
C62_8 C 0.7693(4) 0.1591(5) 0.0573(8)
C63_8 C 0.7801(5) 0.1335(8) 0.0364(4)
H37_8 H 0.780820 0.138090 0.014341
C64_8 C 0.7897(5) 0.1014(7) 0.0477(6)
H38_8 H 0.797089 0.083910 0.033397
C65_8 C 0.7887(5) 0.0947(5) 0.0799(7)
C66_8 C 0.7779(6) 0.1202(8) 0.1008(4)
H39_8 H 0.777177 0.115648 0.122800
C88_8 C 0.8443(6) 0.0049(6) 0.1706(7)
H52_8 H 0.839434 0.027871 0.176731
O13_8 O 0.7493(5) 0.2159(8) 0.0671(6)
C117_8 C 0.7588(3) 0.1931(6) 0.0485(6)
N23_8 N 0.8108(5) 0.0510(7) 0.1202(5)
C118_8 C 0.7949(6) 0.0603(5) 0.0910(6)
N24_8 N 0.7986(5) 0.0321(8) 0.0699(4)
H66_8 H 0.790982 0.031383 0.050296
C119_8 C 0.8168(6) 0.0054(5) 0.0862(7)
C120_8 C 0.8243(5) 0.0171(7) 0.1173(6)
H69_8 H 0.820637 0.254895 0.0118436
H70_8 H 0.820956 0.28624 0.0370098
O5_8 O 0.7007(6) 0.2036(12) 0.9583(6)
C50_8 C 0.7276(7) 0.0968(7) 0.9334(7)
C51_8 C 0.7306(7) 0.0879(8) 0.9017(6)
H29_8 H 0.735691 0.105020 0.886418
C52_8 C 0.7260(6) 0.0540(9) 0.8925(4)
H30_8 H 0.728072 0.047879 0.870826
C53_8 C 0.7186(7) 0.0289(6) 0.9149(7)
C54_8 C 0.7156(6) 0.0378(8) 0.9465(6)
H31_8 H 0.710482 0.020651 0.961847
C55_8 C 0.7201(6) 0.0717(9) 0.9558(4)
H32_8 H 0.718101 0.077792 0.977439
O10_8 O 0.7404(7) 0.1431(8) 0.9706(5)
O11_8 O 0.7512(7) 0.1526(9) 0.9265(6)
O12_8 O 0.7550(5) 0.2560(7) 0.9790(5)
C106_8 C 0.7371(11) 0.1305(7) 0.9438(6)
H67_8 H 0.692514 0.225916 0.967043
H68_8 H 0.693209 0.201797 0.935864
Ru1_8 Ru 0.87377(8) 0.89172(18) 0.13197(8)
H19_8 H 0.361221 0.809661 0.005558
N10_8 N 0.8921(8) 0.8511(8) 0.1035(5)
C45_8 C 0.8753(4) 0.8201(9) 0.0965(6)
H26_8 H 0.852203 0.815191 0.105086
C46_8 C 0.8922(7) 0.7964(7) 0.0770(7)
H27_8 H 0.880686 0.775293 0.072227
C47_8 C 0.9259(7) 0.8037(8) 0.0645(6)
H28_8 H 0.937477 0.787490 0.051120
C48_8 C 0.9427(5) 0.8346(9) 0.0714(6)
C49_8 C 0.9258(8) 0.8583(6) 0.0910(7)
C67_8 C 0.8349(5) 0.8591(10) 0.1831(6)
C68_8 C 0.8072(7) 0.8450(10) 0.2009(5)
C69_8 C 0.7741(6) 0.8382(9) 0.1870(6)
H40_8 H 0.755179 0.828566 0.199228
C70_8 C 0.7687(5) 0.8454(9) 0.1552(6)
H41_8 H 0.746075 0.840700 0.145734
C71_8 C 0.7964(7) 0.8594(10) 0.1374(4)
H42_8 H 0.792722 0.864360 0.115666
N12_8 N 0.8295(5) 0.8663(9) 0.1513(6)
C72_8 C 0.8704(5) 0.8613(10) 0.1943(6)
N13_8 N 0.8964(7) 0.8720(10) 0.1729(4)
C73_8 C 0.9314(6) 0.8784(10) 0.1831(6)
H43_8 H 0.949139 0.885732 0.168411
C74_8 C 0.9403(4) 0.8741(10) 0.2147(6)
H44_8 H 0.964193 0.878482 0.221621
C75_8 C 0.9143(7) 0.8634(10) 0.2361(4)
H45_8 H 0.920426 0.860464 0.257720
C76_8 C 0.8794(6) 0.8570(9) 0.2260(6)
C77_8 C 0.8192(7) 0.8296(10) 0.2279(4)
C78_8 C 0.8541(6) 0.8358(10) 0.2402(6)
N14_8 N 0.8524(5) 0.8323(10) 0.2736(5)
C79_8 C 0.8164(6) 0.8239(11) 0.2818(4)
N15_8 N 0.7959(4) 0.8223(10) 0.2536(6)
H46_8 H 0.772766 0.817545 0.252318
C80_8 C 0.9647(9) 0.9572(6) 0.1064(7)
H47_8 H 0.972912 0.980193 0.108429
C81_8 C 0.9332(7) 0.9469(8) 0.1213(5)
H48_8 H 0.919803 0.962893 0.133511
N16_8 N 0.9212(5) 0.9133(10) 0.1183(5)
C82_8 C 0.9408(9) 0.8899(6) 0.1004(7)
C83_8 C 0.9723(8) 0.9002(9) 0.0855(6)
C84_8 C 0.9843(5) 0.9338(10) 0.0885(6)
C85_8 C 0.7746(6) 0.7896(17) 0.4065(6)
N17_8 N 0.8584(6) 0.9376(6) 0.1526(7)
C86_8 C 0.8651(5) 0.9481(8) 0.1834(6)
H50_8 H 0.874502 0.932232 0.198332
C87_8 C 0.8580(6) 0.9817(10) 0.1924(4)
H51_8 H 0.862626 0.988859 0.213459
C89_8 C 0.8375(4) 0.9944(7) 0.1398(6)
C90_8 C 0.8446(5) 0.9608(8) 0.1308(4)
C91_8 C 0.8348(6) 0.9026(6) 0.0638(8)
H53_8 H 0.839428 0.879190 0.059119
N18_8 N 0.8425(5) 0.9156(8) 0.0936(6)
C92_8 C 0.8357(6) 0.9498(9) 0.1004(4)
C93_8 C 0.8211(6) 0.9712(5) 0.0774(7)
C94_8 C 0.8134(5) 0.9582(8) 0.0476(6)
H54_8 H 0.803403 0.972804 0.031939
C95_8 C 0.8202(6) 0.9239(9) 0.0408(4)
H55_8 H 0.814870 0.915101 0.020446
C96_8 C 0.9911(6) 0.8791(8) 0.0645(6)
C97_8 C 0.9759(4) 0.8459(9) 0.0603(6)
H56_8 H 0.998864 0.803638 0.039023
C99_8 C 0.7854(7) 0.7997(10) 0.3756(4)
C100_8 C 0.7592(5) 0.8081(10) 0.3534(6)
H57_8 H 0.734587 0.808799 0.359390
C101_8 C 0.7691(6) 0.8155(10) 0.3225(5)
H58_8 H 0.751230 0.821253 0.307372
C102_8 C 0.8052(7) 0.8145(10) 0.3138(4)
C103_8 C 0.8313(5) 0.8061(11) 0.3359(6)
H59_8 H 0.855961 0.805424 0.329917
C104_8 C 0.8214(6) 0.7987(10) 0.3668(5)
H60_8 H 0.839318 0.792970 0.381935
C105_8 C 0.3316(5) 0.7512(8) 0.0099(4)
Ru2_8 Ru 0.63183(8) 0.82886(17) 0.87680(8)
C1_8 C 0.5424(9) 0.8984(6) 0.9002(6)
H1_8 H 0.534256 0.921080 0.896324
C2_8 C 0.5209(4) 0.8757(9) 0.9171(5)
H2_8 H 0.498012 0.882868 0.924700
C3_8 C 0.5327(8) 0.8424(8) 0.9228(4)
C4_8 C 0.5662(9) 0.8319(6) 0.9117(5)
N1_8 N 0.5877(5) 0.8546(10) 0.8948(5)
C5_8 C 0.5758(7) 0.8878(9) 0.8891(4)
H3_8 H 0.590515 0.903330 0.877586
C6_8 C 0.6981(9) 0.9386(7) 0.9138(5)
C7_8 C 0.6888(10) 0.9492(6) 0.8835(5)
C8_8 C 0.6760(6) 0.9252(6) 0.8616(4)
C9_8 C 0.6694(6) 0.9341(6) 0.8304(5)
H4_8 H 0.676994 0.955772 0.822650
C10_8 C 0.6517(6) 0.9113(8) 0.8105(3)
H5_8 H 0.647213 0.917351 0.789191
C11_8 C 0.6406(5) 0.8795(7) 0.8219(4)
H6_8 H 0.628526 0.863911 0.808310
N2_8 N 0.6472(5) 0.8706(6) 0.8531(5)
C12_8 C 0.6649(5) 0.8934(6) 0.8730(3)
N3_8 N 0.6640(5) 0.8501(6) 0.9133(4)
C13_8 C 0.6726(6) 0.8396(6) 0.9437(5)
H7_8 H 0.668047 0.816625 0.950084
C14_8 C 0.6880(6) 0.8626(8) 0.9648(3)
H8_8 H 0.693908 0.855423 0.985617
C15_8 C 0.6947(6) 0.8962(7) 0.9555(3)
H9_8 H 0.705235 0.911980 0.969956
C16_8 C 0.6861(6) 0.9068(6) 0.9251(4)
C17_8 C 0.6707(5) 0.8837(6) 0.9040(3)
C18_8 C 0.6785(6) 0.7374(9) 0.6418(6)
H10_8 H 0.659884 0.730143 0.627988
C19_8 C 0.7139(7) 0.7390(9) 0.6311(4)
C20_8 C 0.7411(5) 0.7496(10) 0.6513(6)
H11_8 H 0.765267 0.750729 0.643997
C21_8 C 0.7331(6) 0.7587(9) 0.6823(5)
H12_8 H 0.751698 0.765962 0.696075
C22_8 C 0.6977(7) 0.7571(9) 0.6930(4)
C23_8 C 0.6705(5) 0.7465(10) 0.6727(6)
H13_8 H 0.646314 0.745376 0.680067
N4_8 N 0.6749(6) 0.8025(7) 0.8577(4)
C24_8 C 0.7281(5) 0.7784(8) 0.8204(6)
H14_8 H 0.747088 0.769927 0.807609
C25_8 C 0.7362(8) 0.7885(9) 0.8510(6)
H15_8 H 0.760136 0.786688 0.858724
C26_8 C 0.7091(6) 0.8011(9) 0.8704(6)
H16_8 H 0.713894 0.808456 0.891315
C27_8 C 0.7092(10) 0.9947(7) 0.9074(7)
N5_8 N 0.6970(8) 0.9838(8) 0.8778(6)
H17_8 H 0.694941 0.995635 0.860240
N6_8 N 0.7082(8) 0.9688(8) 0.9302(6)
C28_8 C 0.4341(4) 0.7777(9) 0.9741(4)
C29_8 C 0.4107(7) 0.8024(7) 0.9859(6)
H18_8 H 0.417630 0.825850 0.985994
C30_8 C 0.3772(6) 0.7928(8) 0.9975(5)
C31_8 C 0.3671(3) 0.7584(9) 0.9973(3)
C32_8 C 0.3904(6) 0.7337(7) 0.9855(5)
H20_8 H 0.383514 0.710251 0.985370
C33_8 C 0.4239(6) 0.7433(8) 0.9739(5)
H21_8 H 0.439924 0.726439 0.965805
N7_8 N 0.6081(6) 0.8075(6) 0.8389(5)
C34_8 C 0.5735(7) 0.8093(7) 0.8270(7)
H22_8 H 0.555648 0.817917 0.841023
C35_8 C 0.5618(9) 0.8001(7) 0.7973(6)
H23_8 H 0.537267 0.802369 0.791240
C36_8 C 0.5876(5) 0.7874(8) 0.7769(7)
H24_8 H 0.580832 0.780486 0.756215
C37_8 C 0.7227(7) 0.7278(6) 0.5992(5)
N8_8 N 0.6487(4) 0.7599(11) 0.7341(4)
C38_8 C 0.6850(5) 0.7552(12) 0.7244(3)
N9_8 N 0.7071(4) 0.7561(11) 0.7518(4)
H25_8 H 0.729703 0.749528 0.753193
C39_8 C 0.6852(3) 0.7699(7) 0.7769(3)
C40_8 C 0.6937(4) 0.7801(6) 0.8075(3)
C41_8 C 0.6670(6) 0.7926(5) 0.8273(3)
C42_8 C 0.6317(5) 0.7949(5) 0.8166(4)
C43_8 C 0.6231(3) 0.7847(6) 0.7861(4)
C44_8 C 0.6499(3) 0.7722(7) 0.7662(3)
C56_8 C 0.5752(7) 0.7431(8) 0.9388(5)
H33_8 H 0.561909 0.727028 0.951013
C57_8 C 0.6087(8) 0.7342(6) 0.9268(6)
H34_8 H 0.618351 0.712015 0.930740
C58_8 C 0.6281(4) 0.7577(9) 0.9089(5)
H35_8 H 0.651040 0.751584 0.900670
N11_8 N 0.6140(7) 0.7901(8) 0.9031(5)
C59_8 C 0.5805(8) 0.7990(6) 0.9151(6)
C60_8 C 0.5611(4) 0.7755(10) 0.9330(6)
N21_8 N 0.5001(7) 0.7650(6) 0.9606(6)
H65_8 H 0.501699 0.743409 0.966586
C114_8 C 0.5269(4) 0.7838(8) 0.9440(5)
C115_8 C 0.5136(6) 0.8175(7) 0.9390(5)
N22_8 N 0.4787(6) 0.8196(6) 0.9525(5)
C116_8 C 0.4703(4) 0.7871(8) 0.9659(5)
H49_5 H 0.994133 0.059132 0.078311
N19_5 N 0.9739(5) 0.1211(7) 0.0512(6)
N20_5 N 0.9983(7) 0.1747(6) 0.0444(6)
C98_5 C 0.9673(5) 0.1544(8) 0.0388(6)
C108_5 C 0.9371(4) 0.1626(9) 0.0210(4)
C109_5 C 0.9253(6) 0.1963(8) 0.0185(5)
H61_5 H 0.940168 0.214536 0.025800
C110_5 C 0.8918(7) 0.2035(8) 0.0055(5)
H62_5 H 0.883777 0.226523 0.003787
C113_5 C 0.9153(7) 0.1359(8) 0.0104(6)
H64_5 H 0.923359 0.112870 0.012056
H49_6 H 0.005867 0.940868 0.078311
N19_6 N 0.0261(5) 0.8789(7) 0.0512(6)
N20_6 N 0.0017(7) 0.8253(6) 0.0444(6)
C98_6 C 0.0327(5) 0.8456(8) 0.0388(6)
C108_6 C 0.0629(4) 0.8374(9) 0.0210(4)
C109_6 C 0.0747(6) 0.8037(8) 0.0185(5)
H61_6 H 0.059832 0.785464 0.025800
C110_6 C 0.1082(7) 0.7965(8) 0.0055(5)
H62_6 H 0.116223 0.773477 0.003787
C113_6 C 0.0847(7) 0.8641(8) 0.0104(6)
H64_6 H 0.076641 0.887130 0.012056
H49_7 H 0.994133 0.940868 0.921689
N19_7 N 0.9739(5) 0.8789(7) 0.9488(6)
N20_7 N 0.9983(7) 0.8253(6) 0.9556(6)
C98_7 C 0.9673(5) 0.8456(8) 0.9612(6)
C108_7 C 0.9371(4) 0.8374(9) 0.9790(4)
C109_7 C 0.9253(6) 0.8037(8) 0.9815(5)
H61_7 H 0.940168 0.785464 0.974200
C110_7 C 0.8918(7) 0.7965(8) 0.9945(5)
H62_7 H 0.883777 0.773477 0.996213
C113_7 C 0.9153(7) 0.8641(8) 0.9896(6)
H64_7 H 0.923359 0.887130 0.987944
H49_8 H 0.005867 0.059132 0.921689
N19_8 N 0.0261(5) 0.1211(7) 0.9488(6)
N20_8 N 0.0017(7) 0.1747(6) 0.9556(6)
C98_8 C 0.0327(5) 0.1544(8) 0.9612(6)
C108_8 C 0.0629(4) 0.1626(9) 0.9790(4)
C109_8 C 0.0747(6) 0.1963(8) 0.9815(5)
H61_8 H 0.059832 0.214536 0.974200
C110_8 C 0.1082(7) 0.2035(8) 0.9945(5)
H62_8 H 0.116223 0.226523 0.996213
C113_8 C 0.0847(7) 0.1359(8) 0.9896(6)
H64_8 H 0.076641 0.112870 0.987944
loop_
_geom_bond_atom_site_label_1
_geom_bond_atom_site_label_2
_geom_bond_site_symmetry_1
_geom_bond_site_symmetry_2
C28 C29 1_555 1_555
C29 H18 1_555 1_555
C30 C29 1_555 1_555
H19 C30 1_555 1_555
C31 C30 1_555 1_555
C32 C31 1_555 1_555
H20 C32 1_555 1_555
C33 C28 1_555 1_555
H21 C33 1_555 1_555
C105 C31 1_555 1_555
O14 C105 1_555 1_555
C116 C28 1_555 1_555
O15 C105 1_555 1_555
Eu5 O14 1_555 1_555
C32 C33 1_555 1_555
N22 C116 1_555 1_555
O15 Eu5 1_555 1_555
Eu1 O5 1_555 1_555
Eu2 O6 1_555 1_555
Ru1 N10 1_555 1_555
Ru2 N1 1_555 1_555
C1 H1 1_555 1_555
C2 C1 1_555 1_555
C3 C2 1_555 1_555
C4 C3 1_555 1_555
N1 C4 1_555 1_555
C5 C1 1_555 1_555
H3 C5 1_555 1_555
C6 C7 1_555 1_555
C7 C8 1_555 1_555
C8 C9 1_555 1_555
C9 H4 1_555 1_555
C10 C9 1_555 1_555
H5 C10 1_555 1_555
C11 C10 1_555 1_555
H6 C11 1_555 1_555
N2 Ru2 1_555 1_555
C12 C8 1_555 1_555
N3 Ru2 1_555 1_555
C13 N3 1_555 1_555
H7 C13 1_555 1_555
C14 C13 1_555 1_555
H8 C14 1_555 1_555
C15 C14 1_555 1_555
H9 C15 1_555 1_555
C16 C6 1_555 1_555
C17 C12 1_555 1_555
O1 C85 1_555 1_555
C18 H10 1_555 1_555
C19 C18 1_555 1_555
C20 C19 1_555 1_555
H11 C20 1_555 1_555
C21 C20 1_555 1_555
H12 C21 1_555 1_555
C22 C21 1_555 1_555
C23 C18 1_555 1_555
H13 C23 1_555 1_555
O2 C107 1_555 1_555
O3 C85 1_555 1_555
O4 C37 1_555 1_555
N4 Ru2 1_555 1_555
C24 H14 1_555 1_555
C25 C24 1_555 1_555
H15 C25 1_555 1_555
C26 N4 1_555 1_555
H16 C26 1_555 1_555
O7 C37 1_555 1_555
C27 N5 1_555 1_555
N5 C7 1_555 1_555
H17 N5 1_555 1_555
N6 C6 1_555 1_555
N7 Ru2 1_555 1_555
C34 N7 1_555 1_555
H22 C34 1_555 1_555
C35 C34 1_555 1_555
H23 C35 1_555 1_555
C36 C35 1_555 1_555
H24 C36 1_555 1_555
C37 C19 1_555 1_555
N8 C38 1_555 1_555
C38 C22 1_555 1_555
N9 C38 1_555 1_555
H25 N9 1_555 1_555
C39 N9 1_555 1_555
C40 C24 1_555 1_555
C41 N4 1_555 1_555
C42 N7 1_555 1_555
C43 C36 1_555 1_555
C44 N8 1_555 1_555
N10 C45 1_555 1_555
C45 H26 1_555 1_555
C46 C45 1_555 1_555
H27 C46 1_555 1_555
C47 C46 1_555 1_555
H28 C47 1_555 1_555
C48 C47 1_555 1_555
C49 N10 1_555 1_555
O8 Eu1 1_555 1_555
C50 C51 1_555 1_555
C51 H29 1_555 1_555
C52 C51 1_555 1_555
H30 C52 1_555 1_555
C53 C27 1_555 1_555
C54 C53 1_555 1_555
H31 C54 1_555 1_555
C55 C50 1_555 1_555
H32 C55 1_555 1_555
O9 C107 1_555 1_555
O10 Eu1 1_555 1_555
O11 Eu1 1_555 1_555
C56 H33 1_555 1_555
C57 C56 1_555 1_555
H34 C57 1_555 1_555
C58 C57 1_555 1_555
H35 C58 1_555 1_555
N11 Ru2 1_555 1_555
C59 C4 1_555 1_555
C60 C56 1_555 1_555
O12 Eu1 1_555 1_555
C61 H36 1_555 1_555
C62 C61 1_555 1_555
C63 C62 1_555 1_555
H37 C63 1_555 1_555
C64 C63 1_555 1_555
H38 C64 1_555 1_555
C65 C64 1_555 1_555
C66 C61 1_555 1_555
H39 C66 1_555 1_555
C67 C68 1_555 1_555
C68 C69 1_555 1_555
C69 H40 1_555 1_555
C70 C69 1_555 1_555
H41 C70 1_555 1_555
C71 C70 1_555 1_555
H42 C71 1_555 1_555
N12 Ru1 1_555 1_555
C72 C67 1_555 1_555
N13 Ru1 1_555 1_555
C73 N13 1_555 1_555
H43 C73 1_555 1_555
C74 C73 1_555 1_555
H44 C74 1_555 1_555
C75 C74 1_555 1_555
H45 C75 1_555 1_555
C76 C72 1_555 1_555
C77 C68 1_555 1_555
C78 C76 1_555 1_555
N14 C78 1_555 1_555
C79 N14 1_555 1_555
N15 C77 1_555 1_555
H46 N15 1_555 1_555
C80 H47 1_555 1_555
C81 C80 1_555 1_555
H48 C81 1_555 1_555
N16 Ru1 1_555 1_555
C82 C49 1_555 1_555
C83 C82 1_555 1_555
C84 C80 1_555 1_555
H49 C84 1_555 1_555
C85 C99 1_555 1_555
N17 Ru1 1_555 1_555
C86 N17 1_555 1_555
H50 C86 1_555 1_555
C87 C86 1_555 1_555
H51 C87 1_555 1_555
C88 C87 1_555 1_555
H52 C88 1_555 1_555
C89 C88 1_555 1_555
C90 N17 1_555 1_555
C91 H53 1_555 1_555
N18 Ru1 1_555 1_555
C92 C90 1_555 1_555
C93 C92 1_555 1_555
C94 C93 1_555 1_555
H54 C94 1_555 1_555
C95 C91 1_555 1_555
H55 C95 1_555 1_555
N19 C96 1_555 1_555
C96 C83 1_555 1_555
C97 C48 1_555 1_555
N20 C97 1_555 1_555
H56 N20 1_555 1_555
C98 N19 1_555 1_555
C99 C100 1_555 1_555
C100 H57 1_555 1_555
C101 C100 1_555 1_555
H58 C101 1_555 1_555
C102 C79 1_555 1_555
C103 C102 1_555 1_555
H59 C103 1_555 1_555
C104 C99 1_555 1_555
H60 C104 1_555 1_555
C106 C50 1_555 1_555
O13 Eu2 1_555 1_555
C107 C111 1_555 1_555
C108 C98 1_555 1_555
C109 C108 1_555 1_555
H61 C109 1_555 1_555
C110 C109 1_555 1_555
H62 C110 1_555 1_555
C111 C110 1_555 1_555
C112 C111 1_555 1_555
H63 C112 1_555 1_555
C113 C108 1_555 1_555
H64 C113 1_555 1_555
N21 H65 1_555 1_555
C114 C60 1_555 1_555
C115 C3 1_555 1_555
C117 O8 1_555 1_555
N23 C118 1_555 1_555
C118 C65 1_555 1_555
N24 C118 1_555 1_555
H66 N24 1_555 1_555
C119 C93 1_555 1_555
C120 C89 1_555 1_555
Eu3 O2 1_555 1_555
Eu4 O4 1_555 1_555
Eu6 O1 1_555 1_555
O16 Eu2 1_555 1_555
O17 Eu1 1_555 1_555
O18 Eu2 1_555 1_555
O19 Eu1 1_555 1_555
O20 Eu1 1_555 1_555
O21 Eu1 1_555 1_555
O22 Eu2 1_555 1_555
O23 Eu2 1_555 1_555
Eu2 O8 1_555 1_555
Eu2 O12 1_555 1_555
N1 C5 1_555 1_555
C11 N2 1_555 1_555
N2 C12 1_555 1_555
N3 C17 1_555 1_555
C15 C16 1_555 1_555
C16 C17 1_555 1_555
C22 C23 1_555 1_555
O3 Eu6 1_555 1_555
C25 C26 1_555 1_555
O7 Eu4 1_555 1_555
C27 N6 1_555 1_555
C39 C40 1_555 1_555
C39 C44 1_555 1_555
C40 C41 1_555 1_555
C41 C42 1_555 1_555
C42 C43 1_555 1_555
C43 C44 1_555 1_555
C48 C49 1_555 1_555
C52 C53 1_555 1_555
C54 C55 1_555 1_555
O9 Eu3 1_555 1_555
O10 C106 1_555 1_555
O11 C106 1_555 1_555
C58 N11 1_555 1_555
N11 C59 1_555 1_555
C59 C60 1_555 1_555
C62 C117 1_555 1_555
C65 C66 1_555 1_555
C67 N12 1_555 1_555
C71 N12 1_555 1_555
C72 N13 1_555 1_555
C75 C76 1_555 1_555
C77 C78 1_555 1_555
C79 N15 1_555 1_555
C81 N16 1_555 1_555
N16 C82 1_555 1_555
C83 C84 1_555 1_555
C89 C90 1_555 1_555
C91 N18 1_555 1_555
N18 C92 1_555 1_555
C94 C95 1_555 1_555
C96 C97 1_555 1_555
N20 C98 1_555 1_555
C101 C102 1_555 1_555
C103 C104 1_555 1_555
O13 C117 1_555 1_555
C112 C113 1_555 1_555
N21 C114 1_555 1_555
C114 C115 1_555 1_555
N23 C120 1_555 1_555
N24 C119 1_555 1_555
C119 C120 1_555 1_555
O5 H67 1_555 1_555
O5 H68 1_555 1_555
O6 H69 1_555 1_555
O6 H70 1_555 1_555
Eu3 O5_2 1_555 1_555
Eu5 O6_2 1_555 1_555
Ru1_2 N10_2 1_555 1_555
Ru2_2 N1_2 1_555 1_555
C1_2 H1_2 1_555 1_555
C2_2 C1_2 1_555 1_555
C3_2 C2_2 1_555 1_555
C4_2 C3_2 1_555 1_555
N1_2 C4_2 1_555 1_555
C5_2 C1_2 1_555 1_555
H3_2 C5_2 1_555 1_555
C6_2 C7_2 1_555 1_555
C7_2 C8_2 1_555 1_555
C8_2 C9_2 1_555 1_555
C9_2 H4_2 1_555 1_555
C10_2 C9_2 1_555 1_555
H5_2 C10_2 1_555 1_555
C11_2 C10_2 1_555 1_555
H6_2 C11_2 1_555 1_555
N2_2 Ru2_2 1_555 1_555
C12_2 C8_2 1_555 1_555
N3_2 Ru2_2 1_555 1_555
C13_2 N3_2 1_555 1_555
H7_2 C13_2 1_555 1_555
C14_2 C13_2 1_555 1_555
H8_2 C14_2 1_555 1_555
C15_2 C14_2 1_555 1_555
H9_2 C15_2 1_555 1_555
C16_2 C6_2 1_555 1_555
C17_2 C12_2 1_555 1_555
O1_2 C85_2 1_555 1_555
C18_2 H10_2 1_555 1_555
C19_2 C18_2 1_555 1_555
C20_2 C19_2 1_555 1_555
H11_2 C20_2 1_555 1_555
C21_2 C20_2 1_555 1_555
H12_2 C21_2 1_555 1_555
C22_2 C21_2 1_555 1_555
C23_2 C18_2 1_555 1_555
H13_2 C23_2 1_555 1_555
O17 C107_2 1_555 1_555
O3_2 C85_2 1_555 1_555
O4_2 C37_2 1_555 1_555
N4_2 Ru2_2 1_555 1_555
C24_2 H14_2 1_555 1_555
C25_2 C24_2 1_555 1_555
H15_2 C25_2 1_555 1_555
C26_2 N4_2 1_555 1_555
H16_2 C26_2 1_555 1_555
O7_2 C37_2 1_555 1_555
C27_2 N5_2 1_555 1_555
N5_2 C7_2 1_555 1_555
H17_2 N5_2 1_555 1_555
N6_2 C6_2 1_555 1_555
N7_2 Ru2_2 1_555 1_555
C34_2 N7_2 1_555 1_555
H22_2 C34_2 1_555 1_555
C35_2 C34_2 1_555 1_555
H23_2 C35_2 1_555 1_555
C36_2 C35_2 1_555 1_555
H24_2 C36_2 1_555 1_555
C37_2 C19_2 1_555 1_555
N8_2 C38_2 1_555 1_555
C38_2 C22_2 1_555 1_555
N9_2 C38_2 1_555 1_555
H25_2 N9_2 1_555 1_555
C39_2 N9_2 1_555 1_555
C40_2 C24_2 1_555 1_555
C41_2 N4_2 1_555 1_555
C42_2 N7_2 1_555 1_555
C43_2 C36_2 1_555 1_555
C44_2 N8_2 1_555 1_555
N10_2 C45_2 1_555 1_555
C45_2 H26_2 1_555 1_555
C46_2 C45_2 1_555 1_555
H27_2 C46_2 1_555 1_555
C47_2 C46_2 1_555 1_555
H28_2 C47_2 1_555 1_555
C48_2 C47_2 1_555 1_555
C49_2 N10_2 1_555 1_555
O8_2 Eu3 1_555 1_555
C50_2 C51_2 1_555 1_555
C51_2 H29_2 1_555 1_555
C52_2 C51_2 1_555 1_555
H30_2 C52_2 1_555 1_555
C53_2 C27_2 1_555 1_555
C54_2 C53_2 1_555 1_555
H31_2 C54_2 1_555 1_555
C55_2 C50_2 1_555 1_555
H32_2 C55_2 1_555 1_555
O21 C107_2 1_555 1_555
O10_2 Eu3 1_555 1_555
O11_2 Eu3 1_555 1_555
C56_2 H33_2 1_555 1_555
C57_2 C56_2 1_555 1_555
H34_2 C57_2 1_555 1_555
C58_2 C57_2 1_555 1_555
H35_2 C58_2 1_555 1_555
N11_2 Ru2_2 1_555 1_555
C59_2 C4_2 1_555 1_555
C60_2 C56_2 1_555 1_555
O12_2 Eu3 1_555 1_555
C61_2 H36_2 1_555 1_555
C62_2 C61_2 1_555 1_555
C63_2 C62_2 1_555 1_555
H37_2 C63_2 1_555 1_555
C64_2 C63_2 1_555 1_555
H38_2 C64_2 1_555 1_555
C65_2 C64_2 1_555 1_555
C66_2 C61_2 1_555 1_555
H39_2 C66_2 1_555 1_555
C67_2 C68_2 1_555 1_555
C68_2 C69_2 1_555 1_555
C69_2 H40_2 1_555 1_555
C70_2 C69_2 1_555 1_555
H41_2 C70_2 1_555 1_555
C71_2 C70_2 1_555 1_555
H42_2 C71_2 1_555 1_555
N12_2 Ru1_2 1_555 1_555
C72_2 C67_2 1_555 1_555
N13_2 Ru1_2 1_555 1_555
C73_2 N13_2 1_555 1_555
H43_2 C73_2 1_555 1_555
C74_2 C73_2 1_555 1_555
H44_2 C74_2 1_555 1_555
C75_2 C74_2 1_555 1_555
H45_2 C75_2 1_555 1_555
C76_2 C72_2 1_555 1_555
C77_2 C68_2 1_555 1_555
C78_2 C76_2 1_555 1_555
N14_2 C78_2 1_555 1_555
C79_2 N14_2 1_555 1_555
N15_2 C77_2 1_555 1_555
H46_2 N15_2 1_555 1_555
C80_2 H47_2 1_555 1_555
C81_2 C80_2 1_555 1_555
H48_2 C81_2 1_555 1_555
N16_2 Ru1_2 1_555 1_555
C82_2 C49_2 1_555 1_555
C83_2 C82_2 1_555 1_555
C84_2 C80_2 1_555 1_555
H49_2 C84_2 1_555 1_555
C85_2 C99_2 1_555 1_555
N17_2 Ru1_2 1_555 1_555
C86_2 N17_2 1_555 1_555
H50_2 C86_2 1_555 1_555
C87_2 C86_2 1_555 1_555
H51_2 C87_2 1_555 1_555
C88_2 C87_2 1_555 1_555
H52_2 C88_2 1_555 1_555
C89_2 C88_2 1_555 1_555
C90_2 N17_2 1_555 1_555
C91_2 H53_2 1_555 1_555
N18_2 Ru1_2 1_555 1_555
C92_2 C90_2 1_555 1_555
C93_2 C92_2 1_555 1_555
C94_2 C93_2 1_555 1_555
H54_2 C94_2 1_555 1_555
C95_2 C91_2 1_555 1_555
H55_2 C95_2 1_555 1_555
N19_2 C96_2 1_555 1_555
C96_2 C83_2 1_555 1_555
C97_2 C48_2 1_555 1_555
N20_2 C97_2 1_555 1_555
H56_2 N20_2 1_555 1_555
C98_2 N19_2 1_555 1_555
C99_2 C100_2 1_555 1_555
C100_2 H57_2 1_555 1_555
C101_2 C100_2 1_555 1_555
H58_2 C101_2 1_555 1_555
C102_2 C79_2 1_555 1_555
C103_2 C102_2 1_555 1_555
H59_2 C103_2 1_555 1_555
C104_2 C99_2 1_555 1_555
H60_2 C104_2 1_555 1_555
C106_2 C50_2 1_555 1_555
O13_2 Eu5 1_555 1_555
C107_2 C111_2 1_555 1_555
C108_2 C98_2 1_555 1_555
C109_2 C108_2 1_555 1_555
H61_2 C109_2 1_555 1_555
C110_2 C109_2 1_555 1_555
H62_2 C110_2 1_555 1_555
C111_2 C110_2 1_555 1_555
C112_2 C111_2 1_555 1_555
H63_2 C112_2 1_555 1_555
C113_2 C108_2 1_555 1_555
H64_2 C113_2 1_555 1_555
N21_2 H65_2 1_555 1_555
C114_2 C60_2 1_555 1_555
C115_2 C3_2 1_555 1_555
C117_2 O8_2 1_555 1_555
N23_2 C118_2 1_555 1_555
C118_2 C65_2 1_555 1_555
N24_2 C118_2 1_555 1_555
H66_2 N24_2 1_555 1_555
C119_2 C93_2 1_555 1_555
C120_2 C89_2 1_555 1_555
Eu4_2 O4_2 1_555 1_555
Eu6_2 O1_2 1_555 1_555
O16_2 Eu5 1_555 1_555
O18_2 Eu5 1_555 1_555
O19_2 Eu3 1_555 1_555
O20_2 Eu3 1_555 1_555
Eu5 O8_2 1_555 1_555
Eu5 O12_2 1_555 1_555
N1_2 C5_2 1_555 1_555
C11_2 N2_2 1_555 1_555
N2_2 C12_2 1_555 1_555
N3_2 C17_2 1_555 1_555
C15_2 C16_2 1_555 1_555
C16_2 C17_2 1_555 1_555
C22_2 C23_2 1_555 1_555
O3_2 Eu6_2 1_555 1_555
C25_2 C26_2 1_555 1_555
O7_2 Eu4_2 1_555 1_555
C27_2 N6_2 1_555 1_555
C39_2 C40_2 1_555 1_555
C39_2 C44_2 1_555 1_555
C40_2 C41_2 1_555 1_555
C41_2 C42_2 1_555 1_555
C42_2 C43_2 1_555 1_555
C43_2 C44_2 1_555 1_555
C48_2 C49_2 1_555 1_555
C52_2 C53_2 1_555 1_555
C54_2 C55_2 1_555 1_555
O10_2 C106_2 1_555 1_555
O11_2 C106_2 1_555 1_555
C58_2 N11_2 1_555 1_555
N11_2 C59_2 1_555 1_555
C59_2 C60_2 1_555 1_555
C62_2 C117_2 1_555 1_555
C65_2 C66_2 1_555 1_555
C67_2 N12_2 1_555 1_555
C71_2 N12_2 1_555 1_555
C72_2 N13_2 1_555 1_555
C75_2 C76_2 1_555 1_555
C77_2 C78_2 1_555 1_555
C79_2 N15_2 1_555 1_555
C81_2 N16_2 1_555 1_555
N16_2 C82_2 1_555 1_555
C83_2 C84_2 1_555 1_555
C89_2 C90_2 1_555 1_555
C91_2 N18_2 1_555 1_555
N18_2 C92_2 1_555 1_555
C94_2 C95_2 1_555 1_555
C96_2 C97_2 1_555 1_555
N20_2 C98_2 1_555 1_555
C101_2 C102_2 1_555 1_555
C103_2 C104_2 1_555 1_555
O13_2 C117_2 1_555 1_555
C112_2 C113_2 1_555 1_555
N21_2 C114_2 1_555 1_555
C114_2 C115_2 1_555 1_555
N23_2 C120_2 1_555 1_555
N24_2 C119_2 1_555 1_555
C119_2 C120_2 1_555 1_555
O5_2 H67_2 1_555 1_555
O5_2 H68_2 1_555 1_555
O6_2 H69_2 1_555 1_555
O6_2 H70_2 1_555 1_555
C28_2 C29_2 1_555 1_555
C29_2 H18_2 1_555 1_555
C30_2 C29_2 1_555 1_555
H19_2 C30_2 1_555 1_555
C31_2 C30_2 1_555 1_555
C32_2 C31_2 1_555 1_555
H20_2 C32_2 1_555 1_555
C33_2 C28_2 1_555 1_555
H21_2 C33_2 1_555 1_555
C105_2 C31_2 1_555 1_555
O22 C105_2 1_555 1_555
C116_2 C28_2 1_555 1_555
O23 C105_2 1_555 1_555
C32_2 C33_2 1_555 1_555
N22_2 C116_2 1_555 1_555
Eu4_2 O5_3 1_555 1_555
C50_3 C51_3 1_555 1_555
C51_3 H29_3 1_555 1_555
C52_3 C51_3 1_555 1_555
H30_3 C52_3 1_555 1_555
C54_3 C53_3 1_555 1_555
H31_3 C54_3 1_555 1_555
C55_3 C50_3 1_555 1_555
H32_3 C55_3 1_555 1_555
O10_3 Eu4_2 1_555 1_555
O11_3 Eu4_2 1_555 1_555
O12_3 Eu4_2 1_555 1_555
C106_3 C50_3 1_555 1_555
O17_2 Eu4_2 1_555 1_555
O21_2 Eu4_2 1_555 1_555
C52_3 C53_3 1_555 1_555
C54_3 C55_3 1_555 1_555
O10_3 C106_3 1_555 1_555
O11_3 C106_3 1_555 1_555
O5_3 H67_3 1_555 1_555
O5_3 H68_3 1_555 1_555
Eu6_2 O6_3 1_555 1_555
C61_3 H36_3 1_555 1_555
C62_3 C61_3 1_555 1_555
C63_3 C62_3 1_555 1_555
H37_3 C63_3 1_555 1_555
C64_3 C63_3 1_555 1_555
H38_3 C64_3 1_555 1_555
C65_3 C64_3 1_555 1_555
C66_3 C61_3 1_555 1_555
H39_3 C66_3 1_555 1_555
H52_3 C88_3 1_555 1_555
O13_3 Eu6_2 1_555 1_555
C117_3 O8_3 1_555 1_555
N23_3 C118_3 1_555 1_555
C118_3 C65_3 1_555 1_555
N24_3 C118_3 1_555 1_555
H66_3 N24_3 1_555 1_555
O22_2 Eu6_2 1_555 1_555
O23_2 Eu6_2 1_555 1_555
Eu6_2 O8_3 1_555 1_555
C62_3 C117_3 1_555 1_555
C65_3 C66_3 1_555 1_555
O13_3 C117_3 1_555 1_555
N23_3 C120_3 1_555 1_555
N24_3 C119_3 1_555 1_555
C119_3 C120_3 1_555 1_555
O6_3 H69_3 1_555 1_555
O6_3 H70_3 1_555 1_555
Ru2_3 N1_3 1_555 1_555
C1_3 H1_3 1_555 1_555
C2_3 C1_3 1_555 1_555
H2_3 C2_3 1_555 1_555
C3_3 C2_3 1_555 1_555
C4_3 C3_3 1_555 1_555
N1_3 C4_3 1_555 1_555
C5_3 C1_3 1_555 1_555
H3_3 C5_3 1_555 1_555
C6_3 C7_3 1_555 1_555
C7_3 C8_3 1_555 1_555
C8_3 C9_3 1_555 1_555
C9_3 H4_3 1_555 1_555
C10_3 C9_3 1_555 1_555
H5_3 C10_3 1_555 1_555
C11_3 C10_3 1_555 1_555
H6_3 C11_3 1_555 1_555
N2_3 Ru2_3 1_555 1_555
C12_3 C8_3 1_555 1_555
N3_3 Ru2_3 1_555 1_555
C13_3 N3_3 1_555 1_555
H7_3 C13_3 1_555 1_555
C14_3 C13_3 1_555 1_555
H8_3 C14_3 1_555 1_555
C15_3 C14_3 1_555 1_555
H9_3 C15_3 1_555 1_555
C16_3 C6_3 1_555 1_555
C17_3 C12_3 1_555 1_555
C18_3 H10_3 1_555 1_555
C19_3 C18_3 1_555 1_555
C20_3 C19_3 1_555 1_555
H11_3 C20_3 1_555 1_555
C21_3 C20_3 1_555 1_555
H12_3 C21_3 1_555 1_555
C22_3 C21_3 1_555 1_555
C23_3 C18_3 1_555 1_555
H13_3 C23_3 1_555 1_555
O19_2 C37_3 1_555 1_555
N4_3 Ru2_3 1_555 1_555
C24_3 H14_3 1_555 1_555
C25_3 C24_3 1_555 1_555
H15_3 C25_3 1_555 1_555
C26_3 N4_3 1_555 1_555
H16_3 C26_3 1_555 1_555
O20_2 C37_3 1_555 1_555
C27_3 N5_3 1_555 1_555
N5_3 C7_3 1_555 1_555
H17_3 N5_3 1_555 1_555
N6_3 C6_3 1_555 1_555
C28_3 C29_3 1_555 1_555
C29_3 H18_3 1_555 1_555
C30_3 C29_3 1_555 1_555
C31_3 C30_3 1_555 1_555
C32_3 C31_3 1_555 1_555
H20_3 C32_3 1_555 1_555
C33_3 C28_3 1_555 1_555
H21_3 C33_3 1_555 1_555
N7_3 Ru2_3 1_555 1_555
C34_3 N7_3 1_555 1_555
H22_3 C34_3 1_555 1_555
C35_3 C34_3 1_555 1_555
H23_3 C35_3 1_555 1_555
C36_3 C35_3 1_555 1_555
H24_3 C36_3 1_555 1_555
C37_3 C19_3 1_555 1_555
N8_3 C38_3 1_555 1_555
C38_3 C22_3 1_555 1_555
N9_3 C38_3 1_555 1_555
H25_3 N9_3 1_555 1_555
C39_3 N9_3 1_555 1_555
C40_3 C24_3 1_555 1_555
C41_3 N4_3 1_555 1_555
C42_3 N7_3 1_555 1_555
C43_3 C36_3 1_555 1_555
C44_3 N8_3 1_555 1_555
C56_3 H33_3 1_555 1_555
C57_3 C56_3 1_555 1_555
H34_3 C57_3 1_555 1_555
C58_3 C57_3 1_555 1_555
H35_3 C58_3 1_555 1_555
N11_3 Ru2_3 1_555 1_555
C59_3 C4_3 1_555 1_555
C60_3 C56_3 1_555 1_555
N21_3 H65_3 1_555 1_555
C114_3 C60_3 1_555 1_555
C115_3 C3_3 1_555 1_555
N22_3 C115_3 1_555 1_555
C116_3 C28_3 1_555 1_555
N1_3 C5_3 1_555 1_555
C11_3 N2_3 1_555 1_555
N2_3 C12_3 1_555 1_555
N3_3 C17_3 1_555 1_555
C15_3 C16_3 1_555 1_555
C16_3 C17_3 1_555 1_555
C22_3 C23_3 1_555 1_555
C25_3 C26_3 1_555 1_555
C27_3 N6_3 1_555 1_555
C32_3 C33_3 1_555 1_555
C39_3 C40_3 1_555 1_555
C39_3 C44_3 1_555 1_555
C40_3 C41_3 1_555 1_555
C41_3 C42_3 1_555 1_555
C42_3 C43_3 1_555 1_555
C43_3 C44_3 1_555 1_555
C58_3 N11_3 1_555 1_555
N11_3 C59_3 1_555 1_555
C59_3 C60_3 1_555 1_555
N21_3 C114_3 1_555 1_555
N21_3 C116_3 1_555 1_555
C114_3 C115_3 1_555 1_555
N22_3 C116_3 1_555 1_555
Ru1_3 N10_3 1_555 1_555
O16_2 C85_3 1_555 1_555
O18_2 C85_3 1_555 1_555
N10_3 C45_3 1_555 1_555
C45_3 H26_3 1_555 1_555
C46_3 C45_3 1_555 1_555
H27_3 C46_3 1_555 1_555
C47_3 C46_3 1_555 1_555
H28_3 C47_3 1_555 1_555
C48_3 C47_3 1_555 1_555
C49_3 N10_3 1_555 1_555
C67_3 C68_3 1_555 1_555
C68_3 C69_3 1_555 1_555
C69_3 H40_3 1_555 1_555
C70_3 C69_3 1_555 1_555
H41_3 C70_3 1_555 1_555
C71_3 C70_3 1_555 1_555
H42_3 C71_3 1_555 1_555
N12_3 Ru1_3 1_555 1_555
C72_3 C67_3 1_555 1_555
N13_3 Ru1_3 1_555 1_555
C73_3 N13_3 1_555 1_555
H43_3 C73_3 1_555 1_555
C74_3 C73_3 1_555 1_555
H44_3 C74_3 1_555 1_555
C75_3 C74_3 1_555 1_555
H45_3 C75_3 1_555 1_555
C76_3 C72_3 1_555 1_555
C77_3 C68_3 1_555 1_555
C78_3 C76_3 1_555 1_555
N14_3 C78_3 1_555 1_555
C79_3 N14_3 1_555 1_555
N15_3 C77_3 1_555 1_555
H46_3 N15_3 1_555 1_555
C80_3 H47_3 1_555 1_555
C81_3 C80_3 1_555 1_555
H48_3 C81_3 1_555 1_555
N16_3 Ru1_3 1_555 1_555
C82_3 C49_3 1_555 1_555
C83_3 C82_3 1_555 1_555
C84_3 C80_3 1_555 1_555
C85_3 C99_3 1_555 1_555
N17_3 Ru1_3 1_555 1_555
C86_3 N17_3 1_555 1_555
H50_3 C86_3 1_555 1_555
C87_3 C86_3 1_555 1_555
H51_3 C87_3 1_555 1_555
C90_3 N17_3 1_555 1_555
C91_3 H53_3 1_555 1_555
N18_3 Ru1_3 1_555 1_555
C92_3 C90_3 1_555 1_555
C93_3 C92_3 1_555 1_555
C94_3 C93_3 1_555 1_555
H54_3 C94_3 1_555 1_555
C95_3 C91_3 1_555 1_555
H55_3 C95_3 1_555 1_555
C96_3 C83_3 1_555 1_555
C97_3 C48_3 1_555 1_555
C99_3 C100_3 1_555 1_555
C100_3 H57_3 1_555 1_555
C101_3 C100_3 1_555 1_555
H58_3 C101_3 1_555 1_555
C102_3 C79_3 1_555 1_555
C103_3 C102_3 1_555 1_555
H59_3 C103_3 1_555 1_555
C104_3 C99_3 1_555 1_555
H60_3 C104_3 1_555 1_555
O14_2 C105_3 1_555 1_555
O15_2 C105_3 1_555 1_555
Eu6 O14_2 1_555 1_555
C48_3 C49_3 1_555 1_555
C67_3 N12_3 1_555 1_555
C71_3 N12_3 1_555 1_555
C72_3 N13_3 1_555 1_555
C75_3 C76_3 1_555 1_555
C77_3 C78_3 1_555 1_555
C79_3 N15_3 1_555 1_555
C81_3 N16_3 1_555 1_555
N16_3 C82_3 1_555 1_555
C83_3 C84_3 1_555 1_555
C89_3 C90_3 1_555 1_555
C91_3 N18_3 1_555 1_555
N18_3 C92_3 1_555 1_555
C94_3 C95_3 1_555 1_555
C96_3 C97_3 1_555 1_555
C101_3 C102_3 1_555 1_555
C103_3 C104_3 1_555 1_555
O15_2 Eu6 1_555 1_555
O2_2 C107_3 1_555 1_555
O9_2 C107_3 1_555 1_555
C107_3 C111_3 1_555 1_555
C112_3 C111_3 1_555 1_555
H63_3 C112_3 1_555 1_555
Eu4 O2_2 1_555 1_555
O9_2 Eu4 1_555 1_555
O17_2 C107_4 1_555 1_555
O21_2 C107_4 1_555 1_555
C107_4 C111_4 1_555 1_555
C112_4 C111_4 1_555 1_555
H63_4 C112_4 1_555 1_555
Ru2_4 N1_4 1_555 1_555
C1_4 H1_4 1_555 1_555
C2_4 C1_4 1_555 1_555
H2_4 C2_4 1_555 1_555
C3_4 C2_4 1_555 1_555
C4_4 C3_4 1_555 1_555
N1_4 C4_4 1_555 1_555
C5_4 C1_4 1_555 1_555
H3_4 C5_4 1_555 1_555
C6_4 C7_4 1_555 1_555
C7_4 C8_4 1_555 1_555
C8_4 C9_4 1_555 1_555
C9_4 H4_4 1_555 1_555
C10_4 C9_4 1_555 1_555
H5_4 C10_4 1_555 1_555
C11_4 C10_4 1_555 1_555
H6_4 C11_4 1_555 1_555
N2_4 Ru2_4 1_555 1_555
C12_4 C8_4 1_555 1_555
N3_4 Ru2_4 1_555 1_555
C13_4 N3_4 1_555 1_555
H7_4 C13_4 1_555 1_555
C14_4 C13_4 1_555 1_555
H8_4 C14_4 1_555 1_555
C15_4 C14_4 1_555 1_555
H9_4 C15_4 1_555 1_555
C16_4 C6_4 1_555 1_555
C17_4 C12_4 1_555 1_555
C18_4 H10_4 1_555 1_555
C19_4 C18_4 1_555 1_555
C20_4 C19_4 1_555 1_555
H11_4 C20_4 1_555 1_555
C21_4 C20_4 1_555 1_555
H12_4 C21_4 1_555 1_555
C22_4 C21_4 1_555 1_555
C23_4 C18_4 1_555 1_555
H13_4 C23_4 1_555 1_555
O19 C37_4 1_555 1_555
N4_4 Ru2_4 1_555 1_555
C24_4 H14_4 1_555 1_555
C25_4 C24_4 1_555 1_555
H15_4 C25_4 1_555 1_555
C26_4 N4_4 1_555 1_555
H16_4 C26_4 1_555 1_555
O20 C37_4 1_555 1_555
C27_4 N5_4 1_555 1_555
N5_4 C7_4 1_555 1_555
H17_4 N5_4 1_555 1_555
N6_4 C6_4 1_555 1_555
C28_4 C29_4 1_555 1_555
C29_4 H18_4 1_555 1_555
C30_4 C29_4 1_555 1_555
C31_4 C30_4 1_555 1_555
C32_4 C31_4 1_555 1_555
H20_4 C32_4 1_555 1_555
C33_4 C28_4 1_555 1_555
H21_4 C33_4 1_555 1_555
N7_4 Ru2_4 1_555 1_555
C34_4 N7_4 1_555 1_555
H22_4 C34_4 1_555 1_555
C35_4 C34_4 1_555 1_555
H23_4 C35_4 1_555 1_555
C36_4 C35_4 1_555 1_555
H24_4 C36_4 1_555 1_555
C37_4 C19_4 1_555 1_555
N8_4 C38_4 1_555 1_555
C38_4 C22_4 1_555 1_555
N9_4 C38_4 1_555 1_555
H25_4 N9_4 1_555 1_555
C39_4 N9_4 1_555 1_555
C40_4 C24_4 1_555 1_555
C41_4 N4_4 1_555 1_555
C42_4 N7_4 1_555 1_555
C43_4 C36_4 1_555 1_555
C44_4 N8_4 1_555 1_555
C56_4 H33_4 1_555 1_555
C57_4 C56_4 1_555 1_555
H34_4 C57_4 1_555 1_555
C58_4 C57_4 1_555 1_555
H35_4 C58_4 1_555 1_555
N11_4 Ru2_4 1_555 1_555
C59_4 C4_4 1_555 1_555
C60_4 C56_4 1_555 1_555
N21_4 H65_4 1_555 1_555
C114_4 C60_4 1_555 1_555
C115_4 C3_4 1_555 1_555
N22_4 C115_4 1_555 1_555
C116_4 C28_4 1_555 1_555
N1_4 C5_4 1_555 1_555
C11_4 N2_4 1_555 1_555
N2_4 C12_4 1_555 1_555
N3_4 C17_4 1_555 1_555
C15_4 C16_4 1_555 1_555
C16_4 C17_4 1_555 1_555
C22_4 C23_4 1_555 1_555
C25_4 C26_4 1_555 1_555
C27_4 N6_4 1_555 1_555
C32_4 C33_4 1_555 1_555
C39_4 C40_4 1_555 1_555
C39_4 C44_4 1_555 1_555
C40_4 C41_4 1_555 1_555
C41_4 C42_4 1_555 1_555
C42_4 C43_4 1_555 1_555
C43_4 C44_4 1_555 1_555
C58_4 N11_4 1_555 1_555
N11_4 C59_4 1_555 1_555
C59_4 C60_4 1_555 1_555
N21_4 C114_4 1_555 1_555
N21_4 C116_4 1_555 1_555
C114_4 C115_4 1_555 1_555
N22_4 C116_4 1_555 1_555
Ru1_4 N10_4 1_555 1_555
O16 C85_4 1_555 1_555
O18 C85_4 1_555 1_555
N10_4 C45_4 1_555 1_555
C45_4 H26_4 1_555 1_555
C46_4 C45_4 1_555 1_555
H27_4 C46_4 1_555 1_555
C47_4 C46_4 1_555 1_555
H28_4 C47_4 1_555 1_555
C48_4 C47_4 1_555 1_555
C49_4 N10_4 1_555 1_555
C67_4 C68_4 1_555 1_555
C68_4 C69_4 1_555 1_555
C69_4 H40_4 1_555 1_555
C70_4 C69_4 1_555 1_555
H41_4 C70_4 1_555 1_555
C71_4 C70_4 1_555 1_555
H42_4 C71_4 1_555 1_555
N12_4 Ru1_4 1_555 1_555
C72_4 C67_4 1_555 1_555
N13_4 Ru1_4 1_555 1_555
C73_4 N13_4 1_555 1_555
H43_4 C73_4 1_555 1_555
C74_4 C73_4 1_555 1_555
H44_4 C74_4 1_555 1_555
C75_4 C74_4 1_555 1_555
H45_4 C75_4 1_555 1_555
C76_4 C72_4 1_555 1_555
C77_4 C68_4 1_555 1_555
C78_4 C76_4 1_555 1_555
N14_4 C78_4 1_555 1_555
C79_4 N14_4 1_555 1_555
N15_4 C77_4 1_555 1_555
H46_4 N15_4 1_555 1_555
C80_4 H47_4 1_555 1_555
C81_4 C80_4 1_555 1_555
H48_4 C81_4 1_555 1_555
N16_4 Ru1_4 1_555 1_555
C82_4 C49_4 1_555 1_555
C83_4 C82_4 1_555 1_555
C84_4 C80_4 1_555 1_555
C85_4 C99_4 1_555 1_555
N17_4 Ru1_4 1_555 1_555
C86_4 N17_4 1_555 1_555
H50_4 C86_4 1_555 1_555
C87_4 C86_4 1_555 1_555
H51_4 C87_4 1_555 1_555
C90_4 N17_4 1_555 1_555
C91_4 H53_4 1_555 1_555
N18_4 Ru1_4 1_555 1_555
C92_4 C90_4 1_555 1_555
C93_4 C92_4 1_555 1_555
C94_4 C93_4 1_555 1_555
H54_4 C94_4 1_555 1_555
C95_4 C91_4 1_555 1_555
H55_4 C95_4 1_555 1_555
C96_4 C83_4 1_555 1_555
C97_4 C48_4 1_555 1_555
C99_4 C100_4 1_555 1_555
C100_4 H57_4 1_555 1_555
C101_4 C100_4 1_555 1_555
H58_4 C101_4 1_555 1_555
C102_4 C79_4 1_555 1_555
C103_4 C102_4 1_555 1_555
H59_4 C103_4 1_555 1_555
C104_4 C99_4 1_555 1_555
H60_4 C104_4 1_555 1_555
O22_2 C105_4 1_555 1_555
O23_2 C105_4 1_555 1_555
C48_4 C49_4 1_555 1_555
C67_4 N12_4 1_555 1_555
C71_4 N12_4 1_555 1_555
C72_4 N13_4 1_555 1_555
C75_4 C76_4 1_555 1_555
C77_4 C78_4 1_555 1_555
C79_4 N15_4 1_555 1_555
C81_4 N16_4 1_555 1_555
N16_4 C82_4 1_555 1_555
C83_4 C84_4 1_555 1_555
C89_4 C90_4 1_555 1_555
C91_4 N18_4 1_555 1_555
N18_4 C92_4 1_555 1_555
C94_4 C95_4 1_555 1_555
C96_4 C97_4 1_555 1_555
C101_4 C102_4 1_555 1_555
C103_4 C104_4 1_555 1_555
Eu4 O5_4 1_555 1_555
C50_4 C51_4 1_555 1_555
C51_4 H29_4 1_555 1_555
C52_4 C51_4 1_555 1_555
H30_4 C52_4 1_555 1_555
C54_4 C53_4 1_555 1_555
H31_4 C54_4 1_555 1_555
C55_4 C50_4 1_555 1_555
H32_4 C55_4 1_555 1_555
O10_4 Eu4 1_555 1_555
O11_4 Eu4 1_555 1_555
O12_4 Eu4 1_555 1_555
C106_4 C50_4 1_555 1_555
C52_4 C53_4 1_555 1_555
C54_4 C55_4 1_555 1_555
O10_4 C106_4 1_555 1_555
O11_4 C106_4 1_555 1_555
O5_4 H67_4 1_555 1_555
O5_4 H68_4 1_555 1_555
Eu6 O6_4 1_555 1_555
C61_4 H36_4 1_555 1_555
C62_4 C61_4 1_555 1_555
C63_4 C62_4 1_555 1_555
H37_4 C63_4 1_555 1_555
C64_4 C63_4 1_555 1_555
H38_4 C64_4 1_555 1_555
C65_4 C64_4 1_555 1_555
C66_4 C61_4 1_555 1_555
H39_4 C66_4 1_555 1_555
H52_4 C88_4 1_555 1_555
O13_4 Eu6 1_555 1_555
C117_4 O8_4 1_555 1_555
N23_4 C118_4 1_555 1_555
C118_4 C65_4 1_555 1_555
N24_4 C118_4 1_555 1_555
H66_4 N24_4 1_555 1_555
Eu6 O8_4 1_555 1_555
C62_4 C117_4 1_555 1_555
C65_4 C66_4 1_555 1_555
O13_4 C117_4 1_555 1_555
N23_4 C120_4 1_555 1_555
N24_4 C119_4 1_555 1_555
C119_4 C120_4 1_555 1_555
O6_4 H69_4 1_555 1_555
O6_4 H70_4 1_555 1_555
C28_5 C29_5 1_555 1_555
C29_5 H18_5 1_555 1_555
C30_5 C29_5 1_555 1_555
H19_5 C30_5 1_555 1_555
C31_5 C30_5 1_555 1_555
C32_5 C31_5 1_555 1_555
H20_5 C32_5 1_555 1_555
C33_5 C28_5 1_555 1_555
H21_5 C33_5 1_555 1_555
C105_5 C31_5 1_555 1_555
O14_3 C105_5 1_555 1_555
C116_5 C28_5 1_555 1_555
O15_3 C105_5 1_555 1_555
Eu5_2 O14_3 1_555 1_555
C32_5 C33_5 1_555 1_555
N22_5 C116_5 1_555 1_555
O15_3 Eu5_2 1_555 1_555
Eu1_2 O5_5 1_555 1_555
Eu2_2 O6_5 1_555 1_555
Ru1_5 N10_5 1_555 1_555
Ru2_5 N1_5 1_555 1_555
C1_5 H1_5 1_555 1_555
C2_5 C1_5 1_555 1_555
C3_5 C2_5 1_555 1_555
C4_5 C3_5 1_555 1_555
N1_5 C4_5 1_555 1_555
C5_5 C1_5 1_555 1_555
H3_5 C5_5 1_555 1_555
C6_5 C7_5 1_555 1_555
C7_5 C8_5 1_555 1_555
C8_5 C9_5 1_555 1_555
C9_5 H4_5 1_555 1_555
C10_5 C9_5 1_555 1_555
H5_5 C10_5 1_555 1_555
C11_5 C10_5 1_555 1_555
H6_5 C11_5 1_555 1_555
N2_5 Ru2_5 1_555 1_555
C12_5 C8_5 1_555 1_555
N3_5 Ru2_5 1_555 1_555
C13_5 N3_5 1_555 1_555
H7_5 C13_5 1_555 1_555
C14_5 C13_5 1_555 1_555
H8_5 C14_5 1_555 1_555
C15_5 C14_5 1_555 1_555
H9_5 C15_5 1_555 1_555
C16_5 C6_5 1_555 1_555
C17_5 C12_5 1_555 1_555
O1_3 C85_5 1_555 1_555
C18_5 H10_5 1_555 1_555
C19_5 C18_5 1_555 1_555
C20_5 C19_5 1_555 1_555
H11_5 C20_5 1_555 1_555
C21_5 C20_5 1_555 1_555
H12_5 C21_5 1_555 1_555
C22_5 C21_5 1_555 1_555
C23_5 C18_5 1_555 1_555
H13_5 C23_5 1_555 1_555
O2_3 C107_5 1_555 1_555
O3_3 C85_5 1_555 1_555
O4_3 C37_5 1_555 1_555
N4_5 Ru2_5 1_555 1_555
C24_5 H14_5 1_555 1_555
C25_5 C24_5 1_555 1_555
H15_5 C25_5 1_555 1_555
C26_5 N4_5 1_555 1_555
H16_5 C26_5 1_555 1_555
O7_3 C37_5 1_555 1_555
C27_5 N5_5 1_555 1_555
N5_5 C7_5 1_555 1_555
H17_5 N5_5 1_555 1_555
N6_5 C6_5 1_555 1_555
N7_5 Ru2_5 1_555 1_555
C34_5 N7_5 1_555 1_555
H22_5 C34_5 1_555 1_555
C35_5 C34_5 1_555 1_555
H23_5 C35_5 1_555 1_555
C36_5 C35_5 1_555 1_555
H24_5 C36_5 1_555 1_555
C37_5 C19_5 1_555 1_555
N8_5 C38_5 1_555 1_555
C38_5 C22_5 1_555 1_555
N9_5 C38_5 1_555 1_555
H25_5 N9_5 1_555 1_555
C39_5 N9_5 1_555 1_555
C40_5 C24_5 1_555 1_555
C41_5 N4_5 1_555 1_555
C42_5 N7_5 1_555 1_555
C43_5 C36_5 1_555 1_555
C44_5 N8_5 1_555 1_555
N10_5 C45_5 1_555 1_555
C45_5 H26_5 1_555 1_555
C46_5 C45_5 1_555 1_555
H27_5 C46_5 1_555 1_555
C47_5 C46_5 1_555 1_555
H28_5 C47_5 1_555 1_555
C48_5 C47_5 1_555 1_555
C49_5 N10_5 1_555 1_555
O8_5 Eu1_2 1_555 1_555
C50_5 C51_5 1_555 1_555
C51_5 H29_5 1_555 1_555
C52_5 C51_5 1_555 1_555
H30_5 C52_5 1_555 1_555
C53_5 C27_5 1_555 1_555
C54_5 C53_5 1_555 1_555
H31_5 C54_5 1_555 1_555
C55_5 C50_5 1_555 1_555
H32_5 C55_5 1_555 1_555
O9_3 C107_5 1_555 1_555
O10_5 Eu1_2 1_555 1_555
O11_5 Eu1_2 1_555 1_555
C56_5 H33_5 1_555 1_555
C57_5 C56_5 1_555 1_555
H34_5 C57_5 1_555 1_555
C58_5 C57_5 1_555 1_555
H35_5 C58_5 1_555 1_555
N11_5 Ru2_5 1_555 1_555
C59_5 C4_5 1_555 1_555
C60_5 C56_5 1_555 1_555
O12_5 Eu1_2 1_555 1_555
C61_5 H36_5 1_555 1_555
C62_5 C61_5 1_555 1_555
C63_5 C62_5 1_555 1_555
H37_5 C63_5 1_555 1_555
C64_5 C63_5 1_555 1_555
H38_5 C64_5 1_555 1_555
C65_5 C64_5 1_555 1_555
C66_5 C61_5 1_555 1_555
H39_5 C66_5 1_555 1_555
C67_5 C68_5 1_555 1_555
C68_5 C69_5 1_555 1_555
C69_5 H40_5 1_555 1_555
C70_5 C69_5 1_555 1_555
H41_5 C70_5 1_555 1_555
C71_5 C70_5 1_555 1_555
H42_5 C71_5 1_555 1_555
N12_5 Ru1_5 1_555 1_555
C72_5 C67_5 1_555 1_555
N13_5 Ru1_5 1_555 1_555
C73_5 N13_5 1_555 1_555
H43_5 C73_5 1_555 1_555
C74_5 C73_5 1_555 1_555
H44_5 C74_5 1_555 1_555
C75_5 C74_5 1_555 1_555
H45_5 C75_5 1_555 1_555
C76_5 C72_5 1_555 1_555
C77_5 C68_5 1_555 1_555
C78_5 C76_5 1_555 1_555
N14_5 C78_5 1_555 1_555
C79_5 N14_5 1_555 1_555
N15_5 C77_5 1_555 1_555
H46_5 N15_5 1_555 1_555
C80_5 H47_5 1_555 1_555
C81_5 C80_5 1_555 1_555
H48_5 C81_5 1_555 1_555
N16_5 Ru1_5 1_555 1_555
C82_5 C49_5 1_555 1_555
C83_5 C82_5 1_555 1_555
C84_5 C80_5 1_555 1_555
H49_3 C84_5 1_555 1_555
C85_5 C99_5 1_555 1_555
N17_5 Ru1_5 1_555 1_555
C86_5 N17_5 1_555 1_555
H50_5 C86_5 1_555 1_555
C87_5 C86_5 1_555 1_555
H51_5 C87_5 1_555 1_555
C88_5 C87_5 1_555 1_555
H52_5 C88_5 1_555 1_555
C89_5 C88_5 1_555 1_555
C90_5 N17_5 1_555 1_555
C91_5 H53_5 1_555 1_555
N18_5 Ru1_5 1_555 1_555
C92_5 C90_5 1_555 1_555
C93_5 C92_5 1_555 1_555
C94_5 C93_5 1_555 1_555
H54_5 C94_5 1_555 1_555
C95_5 C91_5 1_555 1_555
H55_5 C95_5 1_555 1_555
N19_3 C96_5 1_555 1_555
C96_5 C83_5 1_555 1_555
C97_5 C48_5 1_555 1_555
N20_3 C97_5 1_555 1_555
H56_5 N20_3 1_555 1_555
C98_3 N19_3 1_555 1_555
C99_5 C100_5 1_555 1_555
C100_5 H57_5 1_555 1_555
C101_5 C100_5 1_555 1_555
H58_5 C101_5 1_555 1_555
C102_5 C79_5 1_555 1_555
C103_5 C102_5 1_555 1_555
H59_5 C103_5 1_555 1_555
C104_5 C99_5 1_555 1_555
H60_5 C104_5 1_555 1_555
C106_5 C50_5 1_555 1_555
O13_5 Eu2_2 1_555 1_555
C107_5 C111_5 1_555 1_555
C108_3 C98_3 1_555 1_555
C109_3 C108_3 1_555 1_555
H61_3 C109_3 1_555 1_555
C110_3 C109_3 1_555 1_555
H62_3 C110_3 1_555 1_555
C111_5 C110_3 1_555 1_555
C112_5 C111_5 1_555 1_555
H63_5 C112_5 1_555 1_555
C113_3 C108_3 1_555 1_555
H64_3 C113_3 1_555 1_555
N21_5 H65_5 1_555 1_555
C114_5 C60_5 1_555 1_555
C115_5 C3_5 1_555 1_555
C117_5 O8_5 1_555 1_555
N23_5 C118_5 1_555 1_555
C118_5 C65_5 1_555 1_555
N24_5 C118_5 1_555 1_555
H66_5 N24_5 1_555 1_555
C119_5 C93_5 1_555 1_555
C120_5 C89_5 1_555 1_555
Eu3_2 O2_3 1_555 1_555
Eu4_3 O4_3 1_555 1_555
Eu6_3 O1_3 1_555 1_555
O16_3 Eu2_2 1_555 1_555
O17_3 Eu1_2 1_555 1_555
O18_3 Eu2_2 1_555 1_555
O19_3 Eu1_2 1_555 1_555
O20_3 Eu1_2 1_555 1_555
O21_3 Eu1_2 1_555 1_555
O22_3 Eu2_2 1_555 1_555
O23_3 Eu2_2 1_555 1_555
Eu2_2 O8_5 1_555 1_555
Eu2_2 O12_5 1_555 1_555
N1_5 C5_5 1_555 1_555
C11_5 N2_5 1_555 1_555
N2_5 C12_5 1_555 1_555
N3_5 C17_5 1_555 1_555
C15_5 C16_5 1_555 1_555
C16_5 C17_5 1_555 1_555
C22_5 C23_5 1_555 1_555
O3_3 Eu6_3 1_555 1_555
C25_5 C26_5 1_555 1_555
O7_3 Eu4_3 1_555 1_555
C27_5 N6_5 1_555 1_555
C39_5 C40_5 1_555 1_555
C39_5 C44_5 1_555 1_555
C40_5 C41_5 1_555 1_555
C41_5 C42_5 1_555 1_555
C42_5 C43_5 1_555 1_555
C43_5 C44_5 1_555 1_555
C48_5 C49_5 1_555 1_555
C52_5 C53_5 1_555 1_555
C54_5 C55_5 1_555 1_555
O9_3 Eu3_2 1_555 1_555
O10_5 C106_5 1_555 1_555
O11_5 C106_5 1_555 1_555
C58_5 N11_5 1_555 1_555
N11_5 C59_5 1_555 1_555
C59_5 C60_5 1_555 1_555
C62_5 C117_5 1_555 1_555
C65_5 C66_5 1_555 1_555
C67_5 N12_5 1_555 1_555
C71_5 N12_5 1_555 1_555
C72_5 N13_5 1_555 1_555
C75_5 C76_5 1_555 1_555
C77_5 C78_5 1_555 1_555
C79_5 N15_5 1_555 1_555
C81_5 N16_5 1_555 1_555
N16_5 C82_5 1_555 1_555
C83_5 C84_5 1_555 1_555
C89_5 C90_5 1_555 1_555
C91_5 N18_5 1_555 1_555
N18_5 C92_5 1_555 1_555
C94_5 C95_5 1_555 1_555
C96_5 C97_5 1_555 1_555
N20_3 C98_3 1_555 1_555
C101_5 C102_5 1_555 1_555
C103_5 C104_5 1_555 1_555
O13_5 C117_5 1_555 1_555
C112_5 C113_3 1_555 1_555
N21_5 C114_5 1_555 1_555
C114_5 C115_5 1_555 1_555
N23_5 C120_5 1_555 1_555
N24_5 C119_5 1_555 1_555
C119_5 C120_5 1_555 1_555
O5_5 H67_5 1_555 1_555
O5_5 H68_5 1_555 1_555
O6_5 H69_5 1_555 1_555
O6_5 H70_5 1_555 1_555
Eu3_2 O5_6 1_555 1_555
Eu5_2 O6_6 1_555 1_555
Ru1_6 N10_6 1_555 1_555
Ru2_6 N1_6 1_555 1_555
C1_6 H1_6 1_555 1_555
C2_6 C1_6 1_555 1_555
C3_6 C2_6 1_555 1_555
C4_6 C3_6 1_555 1_555
N1_6 C4_6 1_555 1_555
C5_6 C1_6 1_555 1_555
H3_6 C5_6 1_555 1_555
C6_6 C7_6 1_555 1_555
C7_6 C8_6 1_555 1_555
C8_6 C9_6 1_555 1_555
C9_6 H4_6 1_555 1_555
C10_6 C9_6 1_555 1_555
H5_6 C10_6 1_555 1_555
C11_6 C10_6 1_555 1_555
H6_6 C11_6 1_555 1_555
N2_6 Ru2_6 1_555 1_555
C12_6 C8_6 1_555 1_555
N3_6 Ru2_6 1_555 1_555
C13_6 N3_6 1_555 1_555
H7_6 C13_6 1_555 1_555
C14_6 C13_6 1_555 1_555
H8_6 C14_6 1_555 1_555
C15_6 C14_6 1_555 1_555
H9_6 C15_6 1_555 1_555
C16_6 C6_6 1_555 1_555
C17_6 C12_6 1_555 1_555
O1_4 C85_6 1_555 1_555
C18_6 H10_6 1_555 1_555
C19_6 C18_6 1_555 1_555
C20_6 C19_6 1_555 1_555
H11_6 C20_6 1_555 1_555
C21_6 C20_6 1_555 1_555
H12_6 C21_6 1_555 1_555
C22_6 C21_6 1_555 1_555
C23_6 C18_6 1_555 1_555
H13_6 C23_6 1_555 1_555
O17_3 C107_6 1_555 1_555
O3_4 C85_6 1_555 1_555
O4_4 C37_6 1_555 1_555
N4_6 Ru2_6 1_555 1_555
C24_6 H14_6 1_555 1_555
C25_6 C24_6 1_555 1_555
H15_6 C25_6 1_555 1_555
C26_6 N4_6 1_555 1_555
H16_6 C26_6 1_555 1_555
O7_4 C37_6 1_555 1_555
C27_6 N5_6 1_555 1_555
N5_6 C7_6 1_555 1_555
H17_6 N5_6 1_555 1_555
N6_6 C6_6 1_555 1_555
N7_6 Ru2_6 1_555 1_555
C34_6 N7_6 1_555 1_555
H22_6 C34_6 1_555 1_555
C35_6 C34_6 1_555 1_555
H23_6 C35_6 1_555 1_555
C36_6 C35_6 1_555 1_555
H24_6 C36_6 1_555 1_555
C37_6 C19_6 1_555 1_555
N8_6 C38_6 1_555 1_555
C38_6 C22_6 1_555 1_555
N9_6 C38_6 1_555 1_555
H25_6 N9_6 1_555 1_555
C39_6 N9_6 1_555 1_555
C40_6 C24_6 1_555 1_555
C41_6 N4_6 1_555 1_555
C42_6 N7_6 1_555 1_555
C43_6 C36_6 1_555 1_555
C44_6 N8_6 1_555 1_555
N10_6 C45_6 1_555 1_555
C45_6 H26_6 1_555 1_555
C46_6 C45_6 1_555 1_555
H27_6 C46_6 1_555 1_555
C47_6 C46_6 1_555 1_555
H28_6 C47_6 1_555 1_555
C48_6 C47_6 1_555 1_555
C49_6 N10_6 1_555 1_555
O8_6 Eu3_2 1_555 1_555
C50_6 C51_6 1_555 1_555
C51_6 H29_6 1_555 1_555
C52_6 C51_6 1_555 1_555
H30_6 C52_6 1_555 1_555
C53_6 C27_6 1_555 1_555
C54_6 C53_6 1_555 1_555
H31_6 C54_6 1_555 1_555
C55_6 C50_6 1_555 1_555
H32_6 C55_6 1_555 1_555
O21_3 C107_6 1_555 1_555
O10_6 Eu3_2 1_555 1_555
O11_6 Eu3_2 1_555 1_555
C56_6 H33_6 1_555 1_555
C57_6 C56_6 1_555 1_555
H34_6 C57_6 1_555 1_555
C58_6 C57_6 1_555 1_555
H35_6 C58_6 1_555 1_555
N11_6 Ru2_6 1_555 1_555
C59_6 C4_6 1_555 1_555
C60_6 C56_6 1_555 1_555
O12_6 Eu3_2 1_555 1_555
C61_6 H36_6 1_555 1_555
C62_6 C61_6 1_555 1_555
C63_6 C62_6 1_555 1_555
H37_6 C63_6 1_555 1_555
C64_6 C63_6 1_555 1_555
H38_6 C64_6 1_555 1_555
C65_6 C64_6 1_555 1_555
C66_6 C61_6 1_555 1_555
H39_6 C66_6 1_555 1_555
C67_6 C68_6 1_555 1_555
C68_6 C69_6 1_555 1_555
C69_6 H40_6 1_555 1_555
C70_6 C69_6 1_555 1_555
H41_6 C70_6 1_555 1_555
C71_6 C70_6 1_555 1_555
H42_6 C71_6 1_555 1_555
N12_6 Ru1_6 1_555 1_555
C72_6 C67_6 1_555 1_555
N13_6 Ru1_6 1_555 1_555
C73_6 N13_6 1_555 1_555
H43_6 C73_6 1_555 1_555
C74_6 C73_6 1_555 1_555
H44_6 C74_6 1_555 1_555
C75_6 C74_6 1_555 1_555
H45_6 C75_6 1_555 1_555
C76_6 C72_6 1_555 1_555
C77_6 C68_6 1_555 1_555
C78_6 C76_6 1_555 1_555
N14_6 C78_6 1_555 1_555
C79_6 N14_6 1_555 1_555
N15_6 C77_6 1_555 1_555
H46_6 N15_6 1_555 1_555
C80_6 H47_6 1_555 1_555
C81_6 C80_6 1_555 1_555
H48_6 C81_6 1_555 1_555
N16_6 Ru1_6 1_555 1_555
C82_6 C49_6 1_555 1_555
C83_6 C82_6 1_555 1_555
C84_6 C80_6 1_555 1_555
H49_4 C84_6 1_555 1_555
C85_6 C99_6 1_555 1_555
N17_6 Ru1_6 1_555 1_555
C86_6 N17_6 1_555 1_555
H50_6 C86_6 1_555 1_555
C87_6 C86_6 1_555 1_555
H51_6 C87_6 1_555 1_555
C88_6 C87_6 1_555 1_555
H52_6 C88_6 1_555 1_555
C89_6 C88_6 1_555 1_555
C90_6 N17_6 1_555 1_555
C91_6 H53_6 1_555 1_555
N18_6 Ru1_6 1_555 1_555
C92_6 C90_6 1_555 1_555
C93_6 C92_6 1_555 1_555
C94_6 C93_6 1_555 1_555
H54_6 C94_6 1_555 1_555
C95_6 C91_6 1_555 1_555
H55_6 C95_6 1_555 1_555
N19_4 C96_6 1_555 1_555
C96_6 C83_6 1_555 1_555
C97_6 C48_6 1_555 1_555
N20_4 C97_6 1_555 1_555
H56_6 N20_4 1_555 1_555
C98_4 N19_4 1_555 1_555
C99_6 C100_6 1_555 1_555
C100_6 H57_6 1_555 1_555
C101_6 C100_6 1_555 1_555
H58_6 C101_6 1_555 1_555
C102_6 C79_6 1_555 1_555
C103_6 C102_6 1_555 1_555
H59_6 C103_6 1_555 1_555
C104_6 C99_6 1_555 1_555
H60_6 C104_6 1_555 1_555
C106_6 C50_6 1_555 1_555
O13_6 Eu5_2 1_555 1_555
C107_6 C111_6 1_555 1_555
C108_4 C98_4 1_555 1_555
C109_4 C108_4 1_555 1_555
H61_4 C109_4 1_555 1_555
C110_4 C109_4 1_555 1_555
H62_4 C110_4 1_555 1_555
C111_6 C110_4 1_555 1_555
C112_6 C111_6 1_555 1_555
H63_6 C112_6 1_555 1_555
C113_4 C108_4 1_555 1_555
H64_4 C113_4 1_555 1_555
N21_6 H65_6 1_555 1_555
C114_6 C60_6 1_555 1_555
C115_6 C3_6 1_555 1_555
C117_6 O8_6 1_555 1_555
N23_6 C118_6 1_555 1_555
C118_6 C65_6 1_555 1_555
N24_6 C118_6 1_555 1_555
H66_6 N24_6 1_555 1_555
C119_6 C93_6 1_555 1_555
C120_6 C89_6 1_555 1_555
Eu4_4 O4_4 1_555 1_555
Eu6_4 O1_4 1_555 1_555
O16_4 Eu5_2 1_555 1_555
O18_4 Eu5_2 1_555 1_555
O19_4 Eu3_2 1_555 1_555
O20_4 Eu3_2 1_555 1_555
Eu5_2 O8_6 1_555 1_555
Eu5_2 O12_6 1_555 1_555
N1_6 C5_6 1_555 1_555
C11_6 N2_6 1_555 1_555
N2_6 C12_6 1_555 1_555
N3_6 C17_6 1_555 1_555
C15_6 C16_6 1_555 1_555
C16_6 C17_6 1_555 1_555
C22_6 C23_6 1_555 1_555
O3_4 Eu6_4 1_555 1_555
C25_6 C26_6 1_555 1_555
O7_4 Eu4_4 1_555 1_555
C27_6 N6_6 1_555 1_555
C39_6 C40_6 1_555 1_555
C39_6 C44_6 1_555 1_555
C40_6 C41_6 1_555 1_555
C41_6 C42_6 1_555 1_555
C42_6 C43_6 1_555 1_555
C43_6 C44_6 1_555 1_555
C48_6 C49_6 1_555 1_555
C52_6 C53_6 1_555 1_555
C54_6 C55_6 1_555 1_555
O10_6 C106_6 1_555 1_555
O11_6 C106_6 1_555 1_555
C58_6 N11_6 1_555 1_555
N11_6 C59_6 1_555 1_555
C59_6 C60_6 1_555 1_555
C62_6 C117_6 1_555 1_555
C65_6 C66_6 1_555 1_555
C67_6 N12_6 1_555 1_555
C71_6 N12_6 1_555 1_555
C72_6 N13_6 1_555 1_555
C75_6 C76_6 1_555 1_555
C77_6 C78_6 1_555 1_555
C79_6 N15_6 1_555 1_555
C81_6 N16_6 1_555 1_555
N16_6 C82_6 1_555 1_555
C83_6 C84_6 1_555 1_555
C89_6 C90_6 1_555 1_555
C91_6 N18_6 1_555 1_555
N18_6 C92_6 1_555 1_555
C94_6 C95_6 1_555 1_555
C96_6 C97_6 1_555 1_555
N20_4 C98_4 1_555 1_555
C101_6 C102_6 1_555 1_555
C103_6 C104_6 1_555 1_555
O13_6 C117_6 1_555 1_555
C112_6 C113_4 1_555 1_555
N21_6 C114_6 1_555 1_555
C114_6 C115_6 1_555 1_555
N23_6 C120_6 1_555 1_555
N24_6 C119_6 1_555 1_555
C119_6 C120_6 1_555 1_555
O5_6 H67_6 1_555 1_555
O5_6 H68_6 1_555 1_555
O6_6 H69_6 1_555 1_555
O6_6 H70_6 1_555 1_555
C28_6 C29_6 1_555 1_555
C29_6 H18_6 1_555 1_555
C30_6 C29_6 1_555 1_555
H19_6 C30_6 1_555 1_555
C31_6 C30_6 1_555 1_555
C32_6 C31_6 1_555 1_555
H20_6 C32_6 1_555 1_555
C33_6 C28_6 1_555 1_555
H21_6 C33_6 1_555 1_555
C105_6 C31_6 1_555 1_555
O22_3 C105_6 1_555 1_555
C116_6 C28_6 1_555 1_555
O23_3 C105_6 1_555 1_555
C32_6 C33_6 1_555 1_555
N22_6 C116_6 1_555 1_555
Ru1_7 N10_7 1_555 1_555
O16_4 C85_7 1_555 1_555
O18_4 C85_7 1_555 1_555
N10_7 C45_7 1_555 1_555
C45_7 H26_7 1_555 1_555
C46_7 C45_7 1_555 1_555
H27_7 C46_7 1_555 1_555
C47_7 C46_7 1_555 1_555
H28_7 C47_7 1_555 1_555
C48_7 C47_7 1_555 1_555
C49_7 N10_7 1_555 1_555
C67_7 C68_7 1_555 1_555
C68_7 C69_7 1_555 1_555
C69_7 H40_7 1_555 1_555
C70_7 C69_7 1_555 1_555
H41_7 C70_7 1_555 1_555
C71_7 C70_7 1_555 1_555
H42_7 C71_7 1_555 1_555
N12_7 Ru1_7 1_555 1_555
C72_7 C67_7 1_555 1_555
N13_7 Ru1_7 1_555 1_555
C73_7 N13_7 1_555 1_555
H43_7 C73_7 1_555 1_555
C74_7 C73_7 1_555 1_555
H44_7 C74_7 1_555 1_555
C75_7 C74_7 1_555 1_555
H45_7 C75_7 1_555 1_555
C76_7 C72_7 1_555 1_555
C77_7 C68_7 1_555 1_555
C78_7 C76_7 1_555 1_555
N14_7 C78_7 1_555 1_555
C79_7 N14_7 1_555 1_555
N15_7 C77_7 1_555 1_555
H46_7 N15_7 1_555 1_555
C80_7 H47_7 1_555 1_555
C81_7 C80_7 1_555 1_555
H48_7 C81_7 1_555 1_555
N16_7 Ru1_7 1_555 1_555
C82_7 C49_7 1_555 1_555
C83_7 C82_7 1_555 1_555
C84_7 C80_7 1_555 1_555
C85_7 C99_7 1_555 1_555
N17_7 Ru1_7 1_555 1_555
C86_7 N17_7 1_555 1_555
H50_7 C86_7 1_555 1_555
C87_7 C86_7 1_555 1_555
H51_7 C87_7 1_555 1_555
C90_7 N17_7 1_555 1_555
C91_7 H53_7 1_555 1_555
N18_7 Ru1_7 1_555 1_555
C92_7 C90_7 1_555 1_555
C93_7 C92_7 1_555 1_555
C94_7 C93_7 1_555 1_555
H54_7 C94_7 1_555 1_555
C95_7 C91_7 1_555 1_555
H55_7 C95_7 1_555 1_555
C96_7 C83_7 1_555 1_555
C97_7 C48_7 1_555 1_555
C99_7 C100_7 1_555 1_555
C100_7 H57_7 1_555 1_555
C101_7 C100_7 1_555 1_555
H58_7 C101_7 1_555 1_555
C102_7 C79_7 1_555 1_555
C103_7 C102_7 1_555 1_555
H59_7 C103_7 1_555 1_555
C104_7 C99_7 1_555 1_555
H60_7 C104_7 1_555 1_555
O14_4 C105_7 1_555 1_555
O15_4 C105_7 1_555 1_555
Eu6_3 O14_4 1_555 1_555
C48_7 C49_7 1_555 1_555
C67_7 N12_7 1_555 1_555
C71_7 N12_7 1_555 1_555
C72_7 N13_7 1_555 1_555
C75_7 C76_7 1_555 1_555
C77_7 C78_7 1_555 1_555
C79_7 N15_7 1_555 1_555
C81_7 N16_7 1_555 1_555
N16_7 C82_7 1_555 1_555
C83_7 C84_7 1_555 1_555
C89_7 C90_7 1_555 1_555
C91_7 N18_7 1_555 1_555
N18_7 C92_7 1_555 1_555
C94_7 C95_7 1_555 1_555
C96_7 C97_7 1_555 1_555
C101_7 C102_7 1_555 1_555
C103_7 C104_7 1_555 1_555
O15_4 Eu6_3 1_555 1_555
Ru2_7 N1_7 1_555 1_555
C1_7 H1_7 1_555 1_555
C2_7 C1_7 1_555 1_555
H2_7 C2_7 1_555 1_555
C3_7 C2_7 1_555 1_555
C4_7 C3_7 1_555 1_555
N1_7 C4_7 1_555 1_555
C5_7 C1_7 1_555 1_555
H3_7 C5_7 1_555 1_555
C6_7 C7_7 1_555 1_555
C7_7 C8_7 1_555 1_555
C8_7 C9_7 1_555 1_555
C9_7 H4_7 1_555 1_555
C10_7 C9_7 1_555 1_555
H5_7 C10_7 1_555 1_555
C11_7 C10_7 1_555 1_555
H6_7 C11_7 1_555 1_555
N2_7 Ru2_7 1_555 1_555
C12_7 C8_7 1_555 1_555
N3_7 Ru2_7 1_555 1_555
C13_7 N3_7 1_555 1_555
H7_7 C13_7 1_555 1_555
C14_7 C13_7 1_555 1_555
H8_7 C14_7 1_555 1_555
C15_7 C14_7 1_555 1_555
H9_7 C15_7 1_555 1_555
C16_7 C6_7 1_555 1_555
C17_7 C12_7 1_555 1_555
C18_7 H10_7 1_555 1_555
C19_7 C18_7 1_555 1_555
C20_7 C19_7 1_555 1_555
H11_7 C20_7 1_555 1_555
C21_7 C20_7 1_555 1_555
H12_7 C21_7 1_555 1_555
C22_7 C21_7 1_555 1_555
C23_7 C18_7 1_555 1_555
H13_7 C23_7 1_555 1_555
O19_4 C37_7 1_555 1_555
N4_7 Ru2_7 1_555 1_555
C24_7 H14_7 1_555 1_555
C25_7 C24_7 1_555 1_555
H15_7 C25_7 1_555 1_555
C26_7 N4_7 1_555 1_555
H16_7 C26_7 1_555 1_555
O20_4 C37_7 1_555 1_555
C27_7 N5_7 1_555 1_555
N5_7 C7_7 1_555 1_555
H17_7 N5_7 1_555 1_555
N6_7 C6_7 1_555 1_555
C28_7 C29_7 1_555 1_555
C29_7 H18_7 1_555 1_555
C30_7 C29_7 1_555 1_555
C31_7 C30_7 1_555 1_555
C32_7 C31_7 1_555 1_555
H20_7 C32_7 1_555 1_555
C33_7 C28_7 1_555 1_555
H21_7 C33_7 1_555 1_555
N7_7 Ru2_7 1_555 1_555
C34_7 N7_7 1_555 1_555
H22_7 C34_7 1_555 1_555
C35_7 C34_7 1_555 1_555
H23_7 C35_7 1_555 1_555
C36_7 C35_7 1_555 1_555
H24_7 C36_7 1_555 1_555
C37_7 C19_7 1_555 1_555
N8_7 C38_7 1_555 1_555
C38_7 C22_7 1_555 1_555
N9_7 C38_7 1_555 1_555
H25_7 N9_7 1_555 1_555
C39_7 N9_7 1_555 1_555
C40_7 C24_7 1_555 1_555
C41_7 N4_7 1_555 1_555
C42_7 N7_7 1_555 1_555
C43_7 C36_7 1_555 1_555
C44_7 N8_7 1_555 1_555
C56_7 H33_7 1_555 1_555
C57_7 C56_7 1_555 1_555
H34_7 C57_7 1_555 1_555
C58_7 C57_7 1_555 1_555
H35_7 C58_7 1_555 1_555
N11_7 Ru2_7 1_555 1_555
C59_7 C4_7 1_555 1_555
C60_7 C56_7 1_555 1_555
N21_7 H65_7 1_555 1_555
C114_7 C60_7 1_555 1_555
C115_7 C3_7 1_555 1_555
N22_7 C115_7 1_555 1_555
C116_7 C28_7 1_555 1_555
N1_7 C5_7 1_555 1_555
C11_7 N2_7 1_555 1_555
N2_7 C12_7 1_555 1_555
N3_7 C17_7 1_555 1_555
C15_7 C16_7 1_555 1_555
C16_7 C17_7 1_555 1_555
C22_7 C23_7 1_555 1_555
C25_7 C26_7 1_555 1_555
C27_7 N6_7 1_555 1_555
C32_7 C33_7 1_555 1_555
C39_7 C40_7 1_555 1_555
C39_7 C44_7 1_555 1_555
C40_7 C41_7 1_555 1_555
C41_7 C42_7 1_555 1_555
C42_7 C43_7 1_555 1_555
C43_7 C44_7 1_555 1_555
C58_7 N11_7 1_555 1_555
N11_7 C59_7 1_555 1_555
C59_7 C60_7 1_555 1_555
N21_7 C114_7 1_555 1_555
N21_7 C116_7 1_555 1_555
C114_7 C115_7 1_555 1_555
N22_7 C116_7 1_555 1_555
Eu6_4 O6_7 1_555 1_555
C61_7 H36_7 1_555 1_555
C62_7 C61_7 1_555 1_555
C63_7 C62_7 1_555 1_555
H37_7 C63_7 1_555 1_555
C64_7 C63_7 1_555 1_555
H38_7 C64_7 1_555 1_555
C65_7 C64_7 1_555 1_555
C66_7 C61_7 1_555 1_555
H39_7 C66_7 1_555 1_555
H52_7 C88_7 1_555 1_555
O13_7 Eu6_4 1_555 1_555
C117_7 O8_7 1_555 1_555
N23_7 C118_7 1_555 1_555
C118_7 C65_7 1_555 1_555
N24_7 C118_7 1_555 1_555
H66_7 N24_7 1_555 1_555
O22_4 Eu6_4 1_555 1_555
O23_4 Eu6_4 1_555 1_555
Eu6_4 O8_7 1_555 1_555
C62_7 C117_7 1_555 1_555
C65_7 C66_7 1_555 1_555
O13_7 C117_7 1_555 1_555
N23_7 C120_7 1_555 1_555
N24_7 C119_7 1_555 1_555
C119_7 C120_7 1_555 1_555
O6_7 H69_7 1_555 1_555
O6_7 H70_7 1_555 1_555
Eu4_4 O5_7 1_555 1_555
C50_7 C51_7 1_555 1_555
C51_7 H29_7 1_555 1_555
C52_7 C51_7 1_555 1_555
H30_7 C52_7 1_555 1_555
C54_7 C53_7 1_555 1_555
H31_7 C54_7 1_555 1_555
C55_7 C50_7 1_555 1_555
H32_7 C55_7 1_555 1_555
O10_7 Eu4_4 1_555 1_555
O11_7 Eu4_4 1_555 1_555
O12_7 Eu4_4 1_555 1_555
C106_7 C50_7 1_555 1_555
O17_4 Eu4_4 1_555 1_555
O21_4 Eu4_4 1_555 1_555
C52_7 C53_7 1_555 1_555
C54_7 C55_7 1_555 1_555
O10_7 C106_7 1_555 1_555
O11_7 C106_7 1_555 1_555
O5_7 H67_7 1_555 1_555
O5_7 H68_7 1_555 1_555
O2_4 C107_7 1_555 1_555
O9_4 C107_7 1_555 1_555
C107_7 C111_7 1_555 1_555
C112_7 C111_7 1_555 1_555
H63_7 C112_7 1_555 1_555
Eu4_3 O2_4 1_555 1_555
O9_4 Eu4_3 1_555 1_555
O17_4 C107_8 1_555 1_555
O21_4 C107_8 1_555 1_555
C107_8 C111_8 1_555 1_555
C112_8 C111_8 1_555 1_555
H63_8 C112_8 1_555 1_555
Eu6_3 O6_8 1_555 1_555
C61_8 H36_8 1_555 1_555
C62_8 C61_8 1_555 1_555
C63_8 C62_8 1_555 1_555
H37_8 C63_8 1_555 1_555
C64_8 C63_8 1_555 1_555
H38_8 C64_8 1_555 1_555
C65_8 C64_8 1_555 1_555
C66_8 C61_8 1_555 1_555
H39_8 C66_8 1_555 1_555
H52_8 C88_8 1_555 1_555
O13_8 Eu6_3 1_555 1_555
C117_8 O8_8 1_555 1_555
N23_8 C118_8 1_555 1_555
C118_8 C65_8 1_555 1_555
N24_8 C118_8 1_555 1_555
H66_8 N24_8 1_555 1_555
Eu6_3 O8_8 1_555 1_555
C62_8 C117_8 1_555 1_555
C65_8 C66_8 1_555 1_555
O13_8 C117_8 1_555 1_555
N23_8 C120_8 1_555 1_555
N24_8 C119_8 1_555 1_555
C119_8 C120_8 1_555 1_555
O6_8 H69_8 1_555 1_555
O6_8 H70_8 1_555 1_555
Eu4_3 O5_8 1_555 1_555
C50_8 C51_8 1_555 1_555
C51_8 H29_8 1_555 1_555
C52_8 C51_8 1_555 1_555
H30_8 C52_8 1_555 1_555
C54_8 C53_8 1_555 1_555
H31_8 C54_8 1_555 1_555
C55_8 C50_8 1_555 1_555
H32_8 C55_8 1_555 1_555
O10_8 Eu4_3 1_555 1_555
O11_8 Eu4_3 1_555 1_555
O12_8 Eu4_3 1_555 1_555
C106_8 C50_8 1_555 1_555
C52_8 C53_8 1_555 1_555
C54_8 C55_8 1_555 1_555
O10_8 C106_8 1_555 1_555
O11_8 C106_8 1_555 1_555
O5_8 H67_8 1_555 1_555
O5_8 H68_8 1_555 1_555
Ru1_8 N10_8 1_555 1_555
O16_3 C85_8 1_555 1_555
O18_3 C85_8 1_555 1_555
N10_8 C45_8 1_555 1_555
C45_8 H26_8 1_555 1_555
C46_8 C45_8 1_555 1_555
H27_8 C46_8 1_555 1_555
C47_8 C46_8 1_555 1_555
H28_8 C47_8 1_555 1_555
C48_8 C47_8 1_555 1_555
C49_8 N10_8 1_555 1_555
C67_8 C68_8 1_555 1_555
C68_8 C69_8 1_555 1_555
C69_8 H40_8 1_555 1_555
C70_8 C69_8 1_555 1_555
H41_8 C70_8 1_555 1_555
C71_8 C70_8 1_555 1_555
H42_8 C71_8 1_555 1_555
N12_8 Ru1_8 1_555 1_555
C72_8 C67_8 1_555 1_555
N13_8 Ru1_8 1_555 1_555
C73_8 N13_8 1_555 1_555
H43_8 C73_8 1_555 1_555
C74_8 C73_8 1_555 1_555
H44_8 C74_8 1_555 1_555
C75_8 C74_8 1_555 1_555
H45_8 C75_8 1_555 1_555
C76_8 C72_8 1_555 1_555
C77_8 C68_8 1_555 1_555
C78_8 C76_8 1_555 1_555
N14_8 C78_8 1_555 1_555
C79_8 N14_8 1_555 1_555
N15_8 C77_8 1_555 1_555
H46_8 N15_8 1_555 1_555
C80_8 H47_8 1_555 1_555
C81_8 C80_8 1_555 1_555
H48_8 C81_8 1_555 1_555
N16_8 Ru1_8 1_555 1_555
C82_8 C49_8 1_555 1_555
C83_8 C82_8 1_555 1_555
C84_8 C80_8 1_555 1_555
C85_8 C99_8 1_555 1_555
N17_8 Ru1_8 1_555 1_555
C86_8 N17_8 1_555 1_555
H50_8 C86_8 1_555 1_555
C87_8 C86_8 1_555 1_555
H51_8 C87_8 1_555 1_555
C90_8 N17_8 1_555 1_555
C91_8 H53_8 1_555 1_555
N18_8 Ru1_8 1_555 1_555
C92_8 C90_8 1_555 1_555
C93_8 C92_8 1_555 1_555
C94_8 C93_8 1_555 1_555
H54_8 C94_8 1_555 1_555
C95_8 C91_8 1_555 1_555
H55_8 C95_8 1_555 1_555
C96_8 C83_8 1_555 1_555
C97_8 C48_8 1_555 1_555
C99_8 C100_8 1_555 1_555
C100_8 H57_8 1_555 1_555
C101_8 C100_8 1_555 1_555
H58_8 C101_8 1_555 1_555
C102_8 C79_8 1_555 1_555
C103_8 C102_8 1_555 1_555
H59_8 C103_8 1_555 1_555
C104_8 C99_8 1_555 1_555
H60_8 C104_8 1_555 1_555
O22_4 C105_8 1_555 1_555
O23_4 C105_8 1_555 1_555
C48_8 C49_8 1_555 1_555
C67_8 N12_8 1_555 1_555
C71_8 N12_8 1_555 1_555
C72_8 N13_8 1_555 1_555
C75_8 C76_8 1_555 1_555
C77_8 C78_8 1_555 1_555
C79_8 N15_8 1_555 1_555
C81_8 N16_8 1_555 1_555
N16_8 C82_8 1_555 1_555
C83_8 C84_8 1_555 1_555
C89_8 C90_8 1_555 1_555
C91_8 N18_8 1_555 1_555
N18_8 C92_8 1_555 1_555
C94_8 C95_8 1_555 1_555
C96_8 C97_8 1_555 1_555
C101_8 C102_8 1_555 1_555
C103_8 C104_8 1_555 1_555
Ru2_8 N1_8 1_555 1_555
C1_8 H1_8 1_555 1_555
C2_8 C1_8 1_555 1_555
H2_8 C2_8 1_555 1_555
C3_8 C2_8 1_555 1_555
C4_8 C3_8 1_555 1_555
N1_8 C4_8 1_555 1_555
C5_8 C1_8 1_555 1_555
H3_8 C5_8 1_555 1_555
C6_8 C7_8 1_555 1_555
C7_8 C8_8 1_555 1_555
C8_8 C9_8 1_555 1_555
C9_8 H4_8 1_555 1_555
C10_8 C9_8 1_555 1_555
H5_8 C10_8 1_555 1_555
C11_8 C10_8 1_555 1_555
H6_8 C11_8 1_555 1_555
N2_8 Ru2_8 1_555 1_555
C12_8 C8_8 1_555 1_555
N3_8 Ru2_8 1_555 1_555
C13_8 N3_8 1_555 1_555
H7_8 C13_8 1_555 1_555
C14_8 C13_8 1_555 1_555
H8_8 C14_8 1_555 1_555
C15_8 C14_8 1_555 1_555
H9_8 C15_8 1_555 1_555
C16_8 C6_8 1_555 1_555
C17_8 C12_8 1_555 1_555
C18_8 H10_8 1_555 1_555
C19_8 C18_8 1_555 1_555
C20_8 C19_8 1_555 1_555
H11_8 C20_8 1_555 1_555
C21_8 C20_8 1_555 1_555
H12_8 C21_8 1_555 1_555
C22_8 C21_8 1_555 1_555
C23_8 C18_8 1_555 1_555
H13_8 C23_8 1_555 1_555
O19_3 C37_8 1_555 1_555
N4_8 Ru2_8 1_555 1_555
C24_8 H14_8 1_555 1_555
C25_8 C24_8 1_555 1_555
H15_8 C25_8 1_555 1_555
C26_8 N4_8 1_555 1_555
H16_8 C26_8 1_555 1_555
O20_3 C37_8 1_555 1_555
C27_8 N5_8 1_555 1_555
N5_8 C7_8 1_555 1_555
H17_8 N5_8 1_555 1_555
N6_8 C6_8 1_555 1_555
C28_8 C29_8 1_555 1_555
C29_8 H18_8 1_555 1_555
C30_8 C29_8 1_555 1_555
C31_8 C30_8 1_555 1_555
C32_8 C31_8 1_555 1_555
H20_8 C32_8 1_555 1_555
C33_8 C28_8 1_555 1_555
H21_8 C33_8 1_555 1_555
N7_8 Ru2_8 1_555 1_555
C34_8 N7_8 1_555 1_555
H22_8 C34_8 1_555 1_555
C35_8 C34_8 1_555 1_555
H23_8 C35_8 1_555 1_555
C36_8 C35_8 1_555 1_555
H24_8 C36_8 1_555 1_555
C37_8 C19_8 1_555 1_555
N8_8 C38_8 1_555 1_555
C38_8 C22_8 1_555 1_555
N9_8 C38_8 1_555 1_555
H25_8 N9_8 1_555 1_555
C39_8 N9_8 1_555 1_555
C40_8 C24_8 1_555 1_555
C41_8 N4_8 1_555 1_555
C42_8 N7_8 1_555 1_555
C43_8 C36_8 1_555 1_555
C44_8 N8_8 1_555 1_555
C56_8 H33_8 1_555 1_555
C57_8 C56_8 1_555 1_555
H34_8 C57_8 1_555 1_555
C58_8 C57_8 1_555 1_555
H35_8 C58_8 1_555 1_555
N11_8 Ru2_8 1_555 1_555
C59_8 C4_8 1_555 1_555
C60_8 C56_8 1_555 1_555
N21_8 H65_8 1_555 1_555
C114_8 C60_8 1_555 1_555
C115_8 C3_8 1_555 1_555
N22_8 C115_8 1_555 1_555
C116_8 C28_8 1_555 1_555
N1_8 C5_8 1_555 1_555
C11_8 N2_8 1_555 1_555
N2_8 C12_8 1_555 1_555
N3_8 C17_8 1_555 1_555
C15_8 C16_8 1_555 1_555
C16_8 C17_8 1_555 1_555
C22_8 C23_8 1_555 1_555
C25_8 C26_8 1_555 1_555
C27_8 N6_8 1_555 1_555
C32_8 C33_8 1_555 1_555
C39_8 C40_8 1_555 1_555
C39_8 C44_8 1_555 1_555
C40_8 C41_8 1_555 1_555
C41_8 C42_8 1_555 1_555
C42_8 C43_8 1_555 1_555
C43_8 C44_8 1_555 1_555
C58_8 N11_8 1_555 1_555
N11_8 C59_8 1_555 1_555
C59_8 C60_8 1_555 1_555
N21_8 C114_8 1_555 1_555
N21_8 C116_8 1_555 1_555
C114_8 C115_8 1_555 1_555
N22_8 C116_8 1_555 1_555
C98_5 N19_5 1_555 1_555
C108_5 C98_5 1_555 1_555
C109_5 C108_5 1_555 1_555
H61_5 C109_5 1_555 1_555
C110_5 C109_5 1_555 1_555
H62_5 C110_5 1_555 1_555
C113_5 C108_5 1_555 1_555
H64_5 C113_5 1_555 1_555
N20_5 C98_5 1_555 1_555
C98_6 N19_6 1_555 1_555
C108_6 C98_6 1_555 1_555
C109_6 C108_6 1_555 1_555
H61_6 C109_6 1_555 1_555
C110_6 C109_6 1_555 1_555
H62_6 C110_6 1_555 1_555
C113_6 C108_6 1_555 1_555
H64_6 C113_6 1_555 1_555
N20_6 C98_6 1_555 1_555
C98_7 N19_7 1_555 1_555
C108_7 C98_7 1_555 1_555
C109_7 C108_7 1_555 1_555
H61_7 C109_7 1_555 1_555
C110_7 C109_7 1_555 1_555
H62_7 C110_7 1_555 1_555
C113_7 C108_7 1_555 1_555
H64_7 C113_7 1_555 1_555
N20_7 C98_7 1_555 1_555
C98_8 N19_8 1_555 1_555
C108_8 C98_8 1_555 1_555
C109_8 C108_8 1_555 1_555
H61_8 C109_8 1_555 1_555
C110_8 C109_8 1_555 1_555
H62_8 C110_8 1_555 1_555
C113_8 C108_8 1_555 1_555
H64_8 C113_8 1_555 1_555
N20_8 C98_8 1_555 1_555

#END
