
###############################################################################
#
# This file contains modified crystal structure data generated from the
# MOF subset of the Cambridge Structural Database (CSD) v543 
# hosted by the Cambridge Crystallographic Data Centre (CCDC).
#
# This work is licensed under the Creative Commons
# Attribution-NonCommercial-ShareAlike 4.0 International License.
# To view a copy of this license, visit
# http://creativecommons.org/licenses/by-nc-sa/4.0/
# or send a letter to
# Creative Commons, PO Box 1866, Mountain View, CA 94042, USA.
#
# CIF created using the CSD Python API on 29 September 2022
# The structure has been converted into the P1 space group
# The structure has a 3D framework
# The original CSD entry HALNUH is in the orthorhombic crystal system
# The original CSD entry HALNUH is in a Sohncke space group
# The framework has been calculated to contain at least 10.0% void space
# The void calculation uses a probe of radius 1.32A, grid spacing 0.4
# The framework is charged, counterions have been retained in the structure
# H atom positions have been added when not included in the experimental data
#
###############################################################################

data_HALNUH
_chemical_formula_moiety         '(C960 H576 Eu16 N192 O128 Ru16 32+)n'
_symmetry_cell_setting           triclinic
_symmetry_space_group_name_H-M   'P 1'
_symmetry_Int_Tables_number      1
_space_group_name_Hall           'P 1'
loop_
_symmetry_equiv_pos_site_id
_symmetry_equiv_pos_as_xyz
1 x,y,z
_cell_length_a                   36.9220(8)
_cell_length_b                   39.257(3)
_cell_length_c                   42.2540(9)
_cell_angle_alpha                90
_cell_angle_beta                 90
_cell_angle_gamma                90
_cell_volume                     61244.9
loop_
_atom_site_label
_atom_site_type_symbol
_atom_site_fract_x
_atom_site_fract_y
_atom_site_fract_z
Eu1 Eu 0.26302(5) 0.69858(9) 0.53904(4)
Eu2 Eu 0.24229(5) 0.76144(9) 0.46789(5)
Ru1 Ru 0.37334(7) 0.39278(11) 0.36728(6)
Ru2 Ru 0.13243(8) 0.32910(12) 0.62328(6)
C1 C 0.0415(8) 0.3948(4) 0.6013(5)
H1 H 0.033670 0.417283 0.605958
C2 C 0.0193(4) 0.3731(7) 0.5839(5)
C3 C 0.0307(7) 0.3402(6) 0.5771(3)
C4 C 0.0642(8) 0.3289(5) 0.5877(5)
N1 N 0.0864(4) 0.3505(9) 0.6051(5)
C5 C 0.0750(7) 0.3835(8) 0.6119(4)
H3 H 0.090137 0.398230 0.623820
C6 C 0.1984(9) 0.4387(6) 0.5863(6)
C7 C 0.1928(9) 0.4492(7) 0.6175(5)
C8 C 0.1741(5) 0.4297(6) 0.6398(4)
C9 C 0.1679(6) 0.4361(5) 0.6716(5)
H4 H 0.174056 0.457647 0.680399
C10 C 0.1527(5) 0.4111(7) 0.6907(3)
H5 H 0.148485 0.415476 0.712532
C11 C 0.1437(5) 0.3796(6) 0.6779(5)
H6 H 0.133326 0.362453 0.690978
N2 N 0.1499(5) 0.3731(5) 0.6460(5)
C12 C 0.1651(5) 0.3982(7) 0.6270(3)
N3 N 0.1630(5) 0.3532(7) 0.5888(4)
C13 C 0.1723(5) 0.3400(5) 0.5594(5)
H7 H 0.167244 0.316883 0.554521
C14 C 0.1888(5) 0.3608(7) 0.5370(3)
H8 H 0.195108 0.351810 0.516824
C15 C 0.1961(5) 0.3947(6) 0.5440(4)
H9 H 0.207446 0.408854 0.528730
C16 C 0.1869(6) 0.4078(5) 0.5735(5)
C17 C 0.1704(5) 0.3871(7) 0.5959(3)
O1 O 0.2967(5) 0.2788(8) 0.0733(4)
C18 C 0.1777(5) 0.2367(7) 0.8579(5)
H10 H 0.159274 0.232278 0.873053
C19 C 0.2139(6) 0.2364(7) 0.8670(4)
C20 C 0.2408(4) 0.2429(7) 0.8448(5)
H11 H 0.265545 0.242678 0.851049
C21 C 0.2316(5) 0.2498(7) 0.8136(4)
H12 H 0.249998 0.254300 0.798459
C22 C 0.1954(6) 0.2502(8) 0.8045(4)
C23 C 0.1685(4) 0.2437(7) 0.8267(5)
H13 H 0.143727 0.243901 0.820462
O2 O 0.6754(6) 0.2834(8) 0.5193(5)
O3 O 0.2410(5) 0.2864(8) 0.0837(4)
O4 O 0.1995(5) 0.2168(7) 0.9185(4)
O5 O 0.1999(5) 0.7050(8) 0.5418(6)
N4 N 0.1750(6) 0.3030(6) 0.6411(4)
C24 C 0.2305(5) 0.2769(7) 0.6794(6)
H14 H 0.249716 0.268041 0.691830
C25 C 0.2365(8) 0.2881(7) 0.6489(6)
H15 H 0.260417 0.286775 0.640726
C26 C 0.2097(6) 0.3013(7) 0.6295(7)
H16 H 0.215187 0.308979 0.608753
O6 O 0.3110(5) 0.7635(9) 0.4686(5)
O7 O 0.2540(5) 0.2289(7) 0.9116(5)
C27 C 0.2095(9) 0.4961(6) 0.5914(6)
N5 N 0.1974(7) 0.4846(8) 0.6211(5)
H17 H 0.193576 0.496876 0.638193
N6 N 0.2084(7) 0.4687(8) 0.5695(5)
N7 N 0.1073(5) 0.3070(5) 0.6623(5)
C34 C 0.0724(6) 0.3091(6) 0.6734(6)
H22 H 0.054221 0.317939 0.659813
C35 C 0.0628(8) 0.2988(6) 0.7033(5)
H23 H 0.038423 0.300457 0.710308
C36 C 0.0894(5) 0.2859(7) 0.7229(6)
H24 H 0.083370 0.278704 0.743663
C37 C 0.2231(6) 0.2270(5) 0.8994(4)
N8 N 0.1485(7) 0.2642(9) 0.7650(6)
H25 H 0.129641 0.264866 0.777778
C38 C 0.1840(10) 0.2566(12) 0.7710(8)
N9 N 0.2078(7) 0.2583(10) 0.7459(5)
C39 C 0.1868(5) 0.2682(6) 0.7218(5)
C40 C 0.1957(4) 0.2788(5) 0.6914(5)
C41 C 0.1691(6) 0.2918(4) 0.6716(3)
C42 C 0.1335(5) 0.2942(4) 0.6821(5)
C43 C 0.1246(4) 0.2836(5) 0.7125(5)
C44 C 0.1513(6) 0.2705(6) 0.7323(4)
N10 N 0.3899(7) 0.3516(6) 0.3924(4)
C45 C 0.3733(4) 0.3212(7) 0.4011(5)
H26 H 0.349884 0.315821 0.393269
C46 C 0.3911(7) 0.2987(5) 0.4212(6)
H27 H 0.379762 0.277939 0.427129
C47 C 0.4254(7) 0.3066(7) 0.4326(4)
H28 H 0.437498 0.291222 0.446346
C48 C 0.4419(4) 0.3370(8) 0.4239(6)
C49 C 0.4242(7) 0.3595(5) 0.4038(6)
O8 O 0.2589(5) 0.7002(7) 0.4817(4)
C50 C 0.2303(6) 0.5980(5) 0.5669(6)
C51 C 0.2322(5) 0.5882(6) 0.5984(5)
H29 H 0.237482 0.604592 0.614322
C52 C 0.2262(5) 0.5544(7) 0.6068(3)
H30 H 0.227466 0.547703 0.628344
C53 C 0.2184(6) 0.5304(5) 0.5835(6)
C54 C 0.2166(5) 0.5403(7) 0.5520(5)
H31 H 0.211316 0.523874 0.536087
C55 C 0.2226(5) 0.5741(7) 0.5436(3)
H32 H 0.221331 0.580763 0.522065
O9 O 0.6839(6) 0.3353(8) 0.5290(5)
O10 O 0.2445(6) 0.6420(8) 0.5281(4)
O11 O 0.2492(5) 0.6505(7) 0.5758(5)
C56 C 0.0737(6) 0.2430(7) 0.5607(4)
H33 H 0.059379 0.227625 0.548704
C57 C 0.1087(7) 0.2341(4) 0.5694(3)
H34 H 0.118382 0.212640 0.563361
C58 C 0.1297(3) 0.2566(7) 0.5870(4)
H35 H 0.153656 0.250524 0.592991
N11 N 0.1156(6) 0.2880(6) 0.5959(3)
C59 C 0.0806(7) 0.2969(5) 0.5872(4)
C60 C 0.0596(4) 0.2744(8) 0.5696(4)
O12 O 0.2551(4) 0.7483(7) 0.5214(4)
C61 C 0.2706(5) 0.6502(6) 0.4092(6)
H36 H 0.263730 0.666950 0.394191
C62 C 0.2706(4) 0.6580(5) 0.4413(6)
C63 C 0.2806(5) 0.6334(7) 0.4634(4)
H37 H 0.280695 0.638810 0.485280
C64 C 0.2905(5) 0.6010(6) 0.4533(5)
H38 H 0.297369 0.584262 0.468363
C65 C 0.2905(5) 0.5932(5) 0.4212(6)
C66 C 0.2805(5) 0.6178(7) 0.3992(4)
H39 H 0.280404 0.612401 0.377273
C67 C 0.3351(4) 0.3598(7) 0.3172(5)
C68 C 0.3069(6) 0.3458(7) 0.2997(3)
C69 C 0.2734(5) 0.3402(7) 0.3138(5)
H40 H 0.254182 0.330610 0.301809
C70 C 0.2681(4) 0.3488(7) 0.3453(5)
H41 H 0.245152 0.344986 0.354971
C71 C 0.2962(6) 0.3628(7) 0.3628(3)
H42 H 0.292536 0.368684 0.384429
N12 N 0.3297(5) 0.3684(6) 0.3488(5)
C72 C 0.3702(4) 0.3596(7) 0.3062(5)
N13 N 0.3954(6) 0.3738(7) 0.3267(4)
C73 C 0.4311(5) 0.3782(7) 0.3170(5)
H43 H 0.448321 0.387925 0.331077
C74 C 0.4415(4) 0.3685(7) 0.2867(5)
H44 H 0.465894 0.371501 0.280105
C75 C 0.4163(6) 0.3543(7) 0.2662(4)
H45 H 0.423439 0.347621 0.245487
C76 C 0.3806(5) 0.3499(7) 0.2759(5)
C77 C 0.3164(6) 0.3379(8) 0.2690(4)
C78 C 0.3519(5) 0.3414(8) 0.2564(5)
N14 N 0.3510(4) 0.3304(7) 0.2244(4)
H46 H 0.369549 0.329989 0.211244
C79 C 0.3151(5) 0.3201(8) 0.2172(4)
N15 N 0.2937(4) 0.3248(8) 0.2448(5)
C80 C 0.4644(7) 0.4572(4) 0.3898(5)
H47 H 0.472206 0.479825 0.385797
C81 C 0.4319(6) 0.4456(7) 0.3772(4)
H48 H 0.417387 0.460366 0.364689
N16 N 0.4205(4) 0.4124(8) 0.3831(5)
C82 C 0.4416(7) 0.3908(4) 0.4014(6)
C83 C 0.4742(6) 0.4024(6) 0.4140(5)
C84 C 0.4856(4) 0.4356(7) 0.4081(5)
H49 H 0.507844 0.443462 0.416713
C85 C 0.2731(6) 0.2887(12) 0.0924(5)
N17 N 0.3582(5) 0.4365(5) 0.3479(5)
C86 C 0.3650(4) 0.4453(6) 0.3166(5)
H50 H 0.374680 0.428845 0.302433
C87 C 0.3577(5) 0.4781(7) 0.3060(3)
H51 H 0.362359 0.484090 0.284644
C88 C 0.3436(5) 0.5022(5) 0.3268(5)
H52 H 0.338566 0.524580 0.319565
C89 C 0.3368(4) 0.4934(6) 0.3581(5)
C90 C 0.3441(5) 0.4606(7) 0.3687(3)
C91 C 0.3333(6) 0.4017(4) 0.4349(6)
H53 H 0.337616 0.378224 0.438899
N18 N 0.3423(5) 0.4156(7) 0.4056(5)
C92 C 0.3360(6) 0.4499(8) 0.3998(4)
C93 C 0.3208(6) 0.4704(5) 0.4231(6)
C94 C 0.3119(5) 0.4565(6) 0.4524(5)
H54 H 0.301555 0.470449 0.468326
C95 C 0.3182(5) 0.4221(6) 0.4582(4)
H55 H 0.312083 0.412644 0.478224
N19 N 0.5252(6) 0.3783(6) 0.4475(5)
H56 H 0.540185 0.395731 0.447978
C96 C 0.4905(7) 0.3779(6) 0.4331(5)
C97 C 0.4753(4) 0.3450(7) 0.4377(5)
N20 N 0.5006(7) 0.3251(5) 0.4549(5)
C98 C 0.5315(5) 0.3457(7) 0.4610(5)
C99 C 0.2829(6) 0.2967(8) 0.1242(4)
C100 C 0.2564(4) 0.3032(8) 0.1468(5)
H57 H 0.231512 0.302280 0.141091
C101 C 0.2663(5) 0.3110(8) 0.1777(4)
H58 H 0.248164 0.315424 0.193110
C102 C 0.3027(6) 0.3124(8) 0.1860(4)
C103 C 0.3292(4) 0.3059(8) 0.1634(5)
H59 H 0.354049 0.306832 0.169105
C104 C 0.3193(5) 0.2981(8) 0.1325(4)
H60 H 0.337397 0.293687 0.117085
C106 C 0.2367(9) 0.6313(6) 0.5549(6)
O13 O 0.2506(5) 0.7125(7) 0.4340(4)
C107 C 0.6636(5) 0.3131(9) 0.5178(3)
C108 C 0.5629(4) 0.3375(9) 0.4778(4)
C109 C 0.5746(7) 0.3039(8) 0.4792(5)
H61 H 0.559700 0.286184 0.471034
C110 C 0.6080(8) 0.2961(7) 0.4926(5)
H62 H 0.615938 0.273160 0.493519
C111 C 0.6297(4) 0.3220(10) 0.5045(4)
C112 C 0.6180(7) 0.3557(8) 0.5031(4)
H63 H 0.632895 0.373364 0.511238
C113 C 0.5846(8) 0.3634(7) 0.4897(5)
H64 H 0.576656 0.386389 0.488754
N21 N 0.0003(6) 0.2625(5) 0.5391(5)
C114 C 0.0267(4) 0.2822(7) 0.5553(5)
C115 C 0.0123(6) 0.3153(6) 0.5600(4)
C117 C 0.2598(3) 0.6907(5) 0.4536(6)
N23 N 0.3119(5) 0.5501(6) 0.3795(4)
H66 H 0.313513 0.563480 0.362845
C118 C 0.2975(7) 0.5594(5) 0.4095(6)
N24 N 0.2999(5) 0.5305(7) 0.4297(3)
C119 C 0.3157(6) 0.5034(4) 0.4121(6)
C120 C 0.3231(5) 0.5156(6) 0.3811(5)
O16 O 0.2505(12) 0.8176(5) 0.4842(7)
Eu3 Eu 0.73698(5) 0.30142(9) 0.53904(4)
Eu4 Eu 0.23698(5) 0.19858(9) 0.96096(4)
Eu6 Eu 0.25771(5) 0.26144(9) 0.03211(5)
O17 O 0.2033(5) 0.7788(8) 0.4267(4)
O18 O 0.3246(6) 0.7166(8) 0.5193(5)
O19 O 0.2590(5) 0.7864(8) 0.4163(4)
O20 O 0.3005(5) 0.7168(7) 0.5815(4)
O21 O 0.2460(5) 0.7289(7) 0.5884(5)
O22 O 0.3161(6) 0.6647(8) 0.5290(5)
O23 O 0.1837(6) 0.7795(7) 0.4917(5)
O24 O 0.1883(6) 0.7278(7) 0.4779(4)
H67 H 0.320732 0.747397 0.452595
H68 H 0.319243 0.786958 0.463558
H69 H 0.188017 0.68567 0.530757
H70 H 0.192198 0.70532 0.564314
H71 H 0.264276 0.830249 0.467791
H72 H 0.226526 0.828554 0.487339
H2 H 0.996372 0.380878 0.576620
C28 C 0.9343(4) 0.2725(7) 0.5233(4)
C29 C 0.9115(6) 0.2965(5) 0.5095(5)
H18 H 0.919367 0.319433 0.507268
C30 C 0.8773(5) 0.2870(7) 0.4991(4)
H19 H 0.861768 0.303374 0.489631
C31 C 0.8658(3) 0.2534(8) 0.5024(3)
C32 C 0.8886(7) 0.2294(6) 0.5162(5)
H20 H 0.880733 0.206532 0.518451
C33 C 0.9228(6) 0.2390(6) 0.5267(4)
H21 H 0.938333 0.222590 0.536088
C105 C 0.8300(5) 0.2493(8) 0.4901(4)
O14 O 0.8163(6) 0.2205(7) 0.4917(5)
N22 N 0.9770(5) 0.3162(5) 0.5466(4)
H65 H 0.962335 0.333849 0.546380
C116 C 0.9696(4) 0.2835(6) 0.5337(4)
O15 O 0.8117(6) 0.2722(7) 0.4779(4)
Eu5 Eu 0.75771(5) 0.23856(9) 0.46789(5)
H2_2 H 0.003628 0.619122 0.576620
C28_2 C 0.0657(4) 0.7275(7) 0.5233(4)
C29_2 C 0.0885(6) 0.7035(5) 0.5095(5)
H18_2 H 0.080633 0.680567 0.507268
C30_2 C 0.1227(5) 0.7130(7) 0.4991(4)
H19_2 H 0.138232 0.696626 0.489631
C31_2 C 0.1342(3) 0.7466(8) 0.5024(3)
C32_2 C 0.1114(7) 0.7706(6) 0.5162(5)
H20_2 H 0.119267 0.793468 0.518451
C33_2 C 0.0772(6) 0.7610(6) 0.5267(4)
H21_2 H 0.061667 0.777410 0.536088
C105_2 C 0.1700(5) 0.7507(8) 0.4901(4)
N22_2 N 0.0230(5) 0.6838(5) 0.5466(4)
H65_2 H 0.037665 0.666151 0.546380
C116_2 C 0.0304(4) 0.7165(6) 0.5337(4)
Ru1_2 Ru 0.62666(7) 0.60722(11) 0.36728(6)
Ru2_2 Ru 0.86757(8) 0.67090(12) 0.62328(6)
C1_2 C 0.9585(8) 0.6052(4) 0.6013(5)
H1_2 H 0.966330 0.582717 0.605958
C2_2 C 0.9807(4) 0.6269(7) 0.5839(5)
C3_2 C 0.9693(7) 0.6598(6) 0.5771(3)
C4_2 C 0.9358(8) 0.6711(5) 0.5877(5)
N1_2 N 0.9136(4) 0.6495(9) 0.6051(5)
C5_2 C 0.9250(7) 0.6165(8) 0.6119(4)
H3_2 H 0.909863 0.601770 0.623820
C6_2 C 0.8016(9) 0.5613(6) 0.5863(6)
C7_2 C 0.8072(9) 0.5508(7) 0.6175(5)
C8_2 C 0.8259(5) 0.5703(6) 0.6398(4)
C9_2 C 0.8321(6) 0.5639(5) 0.6716(5)
H4_2 H 0.825944 0.542353 0.680399
C10_2 C 0.8473(5) 0.5889(7) 0.6907(3)
H5_2 H 0.851515 0.584524 0.712532
C11_2 C 0.8563(5) 0.6204(6) 0.6779(5)
H6_2 H 0.866674 0.637547 0.690978
N2_2 N 0.8501(5) 0.6269(5) 0.6460(5)
C12_2 C 0.8349(5) 0.6018(7) 0.6270(3)
N3_2 N 0.8370(5) 0.6468(7) 0.5888(4)
C13_2 C 0.8277(5) 0.6600(5) 0.5594(5)
H7_2 H 0.832756 0.683117 0.554521
C14_2 C 0.8112(5) 0.6392(7) 0.5370(3)
H8_2 H 0.804892 0.648190 0.516824
C15_2 C 0.8039(5) 0.6053(6) 0.5440(4)
H9_2 H 0.792554 0.591146 0.528730
C16_2 C 0.8131(6) 0.5922(5) 0.5735(5)
C17_2 C 0.8296(5) 0.6129(7) 0.5959(3)
O1_2 O 0.7033(5) 0.7212(8) 0.0733(4)
C18_2 C 0.8223(5) 0.7633(7) 0.8579(5)
H10_2 H 0.840726 0.767722 0.873053
C19_2 C 0.7861(6) 0.7636(7) 0.8670(4)
C20_2 C 0.7592(4) 0.7571(7) 0.8448(5)
H11_2 H 0.734455 0.757322 0.851049
C21_2 C 0.7684(5) 0.7502(7) 0.8136(4)
H12_2 H 0.750002 0.745700 0.798459
C22_2 C 0.8046(6) 0.7498(8) 0.8045(4)
C23_2 C 0.8315(4) 0.7563(7) 0.8267(5)
H13_2 H 0.856273 0.756099 0.820462
O3_2 O 0.7590(5) 0.7136(8) 0.0837(4)
O4_2 O 0.8005(5) 0.7832(7) 0.9185(4)
O5_2 O 0.8001(5) 0.2950(8) 0.5418(6)
N4_2 N 0.8250(6) 0.6970(6) 0.6411(4)
C24_2 C 0.7695(5) 0.7231(7) 0.6794(6)
H14_2 H 0.750284 0.731959 0.691830
C25_2 C 0.7635(8) 0.7119(7) 0.6489(6)
H15_2 H 0.739583 0.713225 0.640726
C26_2 C 0.7903(6) 0.6987(7) 0.6295(7)
H16_2 H 0.784813 0.691021 0.608753
O6_2 O 0.6890(5) 0.2365(9) 0.4686(5)
O7_2 O 0.7460(5) 0.7711(7) 0.9116(5)
C27_2 C 0.7905(9) 0.5039(6) 0.5914(6)
N5_2 N 0.8026(7) 0.5154(8) 0.6211(5)
H17_2 H 0.806424 0.503124 0.638193
N6_2 N 0.7916(7) 0.5313(8) 0.5695(5)
N7_2 N 0.8927(5) 0.6930(5) 0.6623(5)
C34_2 C 0.9276(6) 0.6909(6) 0.6734(6)
H22_2 H 0.945779 0.682061 0.659813
C35_2 C 0.9372(8) 0.7012(6) 0.7033(5)
H23_2 H 0.961577 0.699543 0.710308
C36_2 C 0.9106(5) 0.7141(7) 0.7229(6)
H24_2 H 0.916630 0.721296 0.743663
C37_2 C 0.7769(6) 0.7730(5) 0.8994(4)
N8_2 N 0.8515(7) 0.7358(9) 0.7650(6)
H25_2 H 0.870359 0.735134 0.777778
C38_2 C 0.8160(10) 0.7434(12) 0.7710(8)
N9_2 N 0.7922(7) 0.7417(10) 0.7459(5)
C39_2 C 0.8132(5) 0.7318(6) 0.7218(5)
C40_2 C 0.8043(4) 0.7212(5) 0.6914(5)
C41_2 C 0.8309(6) 0.7082(4) 0.6716(3)
C42_2 C 0.8665(5) 0.7058(4) 0.6821(5)
C43_2 C 0.8754(4) 0.7164(5) 0.7125(5)
C44_2 C 0.8487(6) 0.7295(6) 0.7323(4)
N10_2 N 0.6101(7) 0.6484(6) 0.3924(4)
C45_2 C 0.6267(4) 0.6788(7) 0.4011(5)
H26_2 H 0.650116 0.684179 0.393269
C46_2 C 0.6089(7) 0.7013(5) 0.4212(6)
H27_2 H 0.620238 0.722061 0.427129
C47_2 C 0.5746(7) 0.6934(7) 0.4326(4)
H28_2 H 0.562502 0.708778 0.446346
C48_2 C 0.5581(4) 0.6630(8) 0.4239(6)
C49_2 C 0.5758(7) 0.6405(5) 0.4038(6)
O8_2 O 0.7411(5) 0.2998(7) 0.4817(4)
C50_2 C 0.7697(6) 0.4020(5) 0.5669(6)
C51_2 C 0.7678(5) 0.4118(6) 0.5984(5)
H29_2 H 0.762518 0.395408 0.614322
C52_2 C 0.7738(5) 0.4456(7) 0.6068(3)
H30_2 H 0.772534 0.452297 0.628344
C53_2 C 0.7816(6) 0.4696(5) 0.5835(6)
C54_2 C 0.7834(5) 0.4597(7) 0.5520(5)
H31_2 H 0.788684 0.476126 0.536087
C55_2 C 0.7774(5) 0.4259(7) 0.5436(3)
H32_2 H 0.778669 0.419237 0.522065
O10_2 O 0.7555(6) 0.3580(8) 0.5281(4)
O11_2 O 0.7508(5) 0.3495(7) 0.5758(5)
C56_2 C 0.9263(6) 0.7570(7) 0.5607(4)
H33_2 H 0.940621 0.772375 0.548704
C57_2 C 0.8913(7) 0.7659(4) 0.5694(3)
H34_2 H 0.881618 0.787360 0.563361
C58_2 C 0.8703(3) 0.7434(7) 0.5870(4)
H35_2 H 0.846344 0.749476 0.592991
N11_2 N 0.8844(6) 0.7120(6) 0.5959(3)
C59_2 C 0.9194(7) 0.7031(5) 0.5872(4)
C60_2 C 0.9404(4) 0.7256(8) 0.5696(4)
O12_2 O 0.7449(4) 0.2517(7) 0.5214(4)
C61_2 C 0.7294(5) 0.3498(6) 0.4092(6)
H36_2 H 0.736270 0.333050 0.394191
C62_2 C 0.7294(4) 0.3420(5) 0.4413(6)
C63_2 C 0.7194(5) 0.3666(7) 0.4634(4)
H37_2 H 0.719305 0.361190 0.485280
C64_2 C 0.7095(5) 0.3990(6) 0.4533(5)
H38_2 H 0.702631 0.415738 0.468363
C65_2 C 0.7095(5) 0.4068(5) 0.4212(6)
C66_2 C 0.7195(5) 0.3822(7) 0.3992(4)
H39_2 H 0.719596 0.387599 0.377273
C67_2 C 0.6649(4) 0.6402(7) 0.3172(5)
C68_2 C 0.6931(6) 0.6542(7) 0.2997(3)
C69_2 C 0.7266(5) 0.6598(7) 0.3138(5)
H40_2 H 0.745818 0.669390 0.301809
C70_2 C 0.7319(4) 0.6512(7) 0.3453(5)
H41_2 H 0.754848 0.655014 0.354971
C71_2 C 0.7038(6) 0.6372(7) 0.3628(3)
H42_2 H 0.707464 0.631316 0.384429
N12_2 N 0.6703(5) 0.6316(6) 0.3488(5)
C72_2 C 0.6298(4) 0.6404(7) 0.3062(5)
N13_2 N 0.6046(6) 0.6262(7) 0.3267(4)
C73_2 C 0.5689(5) 0.6218(7) 0.3170(5)
H43_2 H 0.551679 0.612075 0.331077
C74_2 C 0.5585(4) 0.6315(7) 0.2867(5)
H44_2 H 0.534106 0.628499 0.280105
C75_2 C 0.5837(6) 0.6457(7) 0.2662(4)
H45_2 H 0.576561 0.652379 0.245487
C76_2 C 0.6194(5) 0.6501(7) 0.2759(5)
C77_2 C 0.6836(6) 0.6621(8) 0.2690(4)
C78_2 C 0.6481(5) 0.6586(8) 0.2564(5)
N14_2 N 0.6490(4) 0.6696(7) 0.2244(4)
H46_2 H 0.630451 0.670011 0.211244
C79_2 C 0.6849(5) 0.6799(8) 0.2172(4)
N15_2 N 0.7063(4) 0.6752(8) 0.2448(5)
C80_2 C 0.5356(7) 0.5428(4) 0.3898(5)
H47_2 H 0.527794 0.520175 0.385797
C81_2 C 0.5681(6) 0.5544(7) 0.3772(4)
H48_2 H 0.582613 0.539634 0.364689
N16_2 N 0.5795(4) 0.5876(8) 0.3831(5)
C82_2 C 0.5584(7) 0.6092(4) 0.4014(6)
C83_2 C 0.5258(6) 0.5976(6) 0.4140(5)
C84_2 C 0.5144(4) 0.5644(7) 0.4081(5)
H49_2 H 0.492156 0.556538 0.416713
C85_2 C 0.7269(6) 0.7113(12) 0.0924(5)
N17_2 N 0.6418(5) 0.5635(5) 0.3479(5)
C86_2 C 0.6350(4) 0.5547(6) 0.3166(5)
H50_2 H 0.625320 0.571155 0.302433
C87_2 C 0.6423(5) 0.5219(7) 0.3060(3)
H51_2 H 0.637641 0.515910 0.284644
C88_2 C 0.6564(5) 0.4978(5) 0.3268(5)
H52_2 H 0.661434 0.475420 0.319565
C89_2 C 0.6632(4) 0.5066(6) 0.3581(5)
C90_2 C 0.6559(5) 0.5394(7) 0.3687(3)
C91_2 C 0.6667(6) 0.5983(4) 0.4349(6)
H53_2 H 0.662384 0.621776 0.438899
N18_2 N 0.6577(5) 0.5844(7) 0.4056(5)
C92_2 C 0.6640(6) 0.5501(8) 0.3998(4)
C93_2 C 0.6792(6) 0.5296(5) 0.4231(6)
C94_2 C 0.6881(5) 0.5435(6) 0.4524(5)
H54_2 H 0.698445 0.529551 0.468326
C95_2 C 0.6818(5) 0.5779(6) 0.4582(4)
H55_2 H 0.687917 0.587356 0.478224
N19_2 N 0.4748(6) 0.6217(6) 0.4475(5)
H56_2 H 0.459815 0.604269 0.447978
C96_2 C 0.5095(7) 0.6221(6) 0.4331(5)
C97_2 C 0.5247(4) 0.6550(7) 0.4377(5)
N20_2 N 0.4994(7) 0.6749(5) 0.4549(5)
C98_2 C 0.4685(5) 0.6543(7) 0.4610(5)
C99_2 C 0.7171(6) 0.7033(8) 0.1242(4)
C100_2 C 0.7436(4) 0.6968(8) 0.1468(5)
H57_2 H 0.768488 0.697720 0.141091
C101_2 C 0.7337(5) 0.6890(8) 0.1777(4)
H58_2 H 0.751836 0.684576 0.193110
C102_2 C 0.6973(6) 0.6876(8) 0.1860(4)
C103_2 C 0.6708(4) 0.6941(8) 0.1634(5)
H59_2 H 0.645951 0.693168 0.169105
C104_2 C 0.6807(5) 0.7019(8) 0.1325(4)
H60_2 H 0.662603 0.706313 0.117085
C106_2 C 0.7633(9) 0.3687(6) 0.5549(6)
O13_2 O 0.7494(5) 0.2875(7) 0.4340(4)
C107_2 C 0.3364(5) 0.6869(9) 0.5178(3)
C108_2 C 0.4371(4) 0.6625(9) 0.4778(4)
C109_2 C 0.4254(7) 0.6961(8) 0.4792(5)
H61_2 H 0.440300 0.713816 0.471034
C110_2 C 0.3920(8) 0.7039(7) 0.4926(5)
H62_2 H 0.384062 0.726840 0.493519
C111_2 C 0.3703(4) 0.6780(10) 0.5045(4)
C112_2 C 0.3820(7) 0.6443(8) 0.5031(4)
H63_2 H 0.367105 0.626636 0.511238
C113_2 C 0.4154(8) 0.6366(7) 0.4897(5)
H64_2 H 0.423344 0.613611 0.488754
N21_2 N 0.9997(6) 0.7375(5) 0.5391(5)
C114_2 C 0.9733(4) 0.7178(7) 0.5553(5)
C115_2 C 0.9877(6) 0.6847(6) 0.5600(4)
C117_2 C 0.7402(3) 0.3093(5) 0.4536(6)
N23_2 N 0.6881(5) 0.4499(6) 0.3795(4)
H66_2 H 0.686487 0.436520 0.362845
C118_2 C 0.7025(7) 0.4406(5) 0.4095(6)
N24_2 N 0.7001(5) 0.4695(7) 0.4297(3)
C119_2 C 0.6843(6) 0.4966(4) 0.4121(6)
C120_2 C 0.6769(5) 0.4844(6) 0.3811(5)
O16_2 O 0.7495(12) 0.1824(5) 0.4842(7)
Eu4_2 Eu 0.76302(5) 0.80142(9) 0.96096(4)
Eu6_2 Eu 0.74229(5) 0.73856(9) 0.03211(5)
O17_2 O 0.7967(5) 0.2212(8) 0.4267(4)
O19_2 O 0.7410(5) 0.2136(8) 0.4163(4)
O20_2 O 0.6995(5) 0.2832(7) 0.5815(4)
O21_2 O 0.7540(5) 0.2711(7) 0.5884(5)
H67_2 H 0.679268 0.252603 0.452595
H68_2 H 0.680757 0.213042 0.463558
H69_2 H 0.811983 0.31433 0.530757
H70_2 H 0.807802 0.29468 0.564314
H71_2 H 0.735724 0.169751 0.467791
H72_2 H 0.773474 0.171446 0.487339
O6_3 O 0.1890(5) 0.2635(9) 0.0314(5)
O8_3 O 0.2411(5) 0.2002(7) 0.0183(4)
C61_3 C 0.2294(5) 0.1502(6) 0.0908(6)
H36_3 H 0.236270 0.166950 0.105809
C62_3 C 0.2294(4) 0.1580(5) 0.0587(6)
C63_3 C 0.2194(5) 0.1334(7) 0.0366(4)
H37_3 H 0.219305 0.138810 0.014720
C64_3 C 0.2095(5) 0.1010(6) 0.0467(5)
H38_3 H 0.202631 0.084262 0.031637
C65_3 C 0.2095(5) 0.0932(5) 0.0788(6)
C66_3 C 0.2195(5) 0.1178(7) 0.1008(4)
H39_3 H 0.219596 0.112401 0.122727
C88_3 C 0.1564(5) 0.0022(5) 0.1732(5)
H52_3 H 0.161434 0.024580 0.180435
O13_3 O 0.2494(5) 0.2125(7) 0.0660(4)
C117_3 C 0.2402(3) 0.1907(5) 0.0464(6)
N23_3 N 0.1881(5) 0.0501(6) 0.1205(4)
H66_3 H 0.186487 0.063480 0.137155
C118_3 C 0.2025(7) 0.0594(5) 0.0905(6)
N24_3 N 0.2001(5) 0.0305(7) 0.0703(3)
C119_3 C 0.1843(6) 0.0034(4) 0.0879(6)
C120_3 C 0.1769(5) 0.0156(6) 0.1189(5)
O16_3 O 0.2495(12) 0.3176(5) 0.0158(7)
O23_2 O 0.3163(6) 0.2795(7) 0.0083(5)
O24_2 O 0.3117(6) 0.2278(7) 0.0221(4)
H67_3 H 0.179268 0.247397 0.0474045
H68_3 H 0.180757 0.286958 0.0364422
H71_3 H 0.235724 0.330249 0.0322094
H72_3 H 0.273474 0.328554 0.0126606
O5_3 O 0.3001(5) 0.2050(8) 0.9582(6)
C50_3 C 0.2697(6) 0.0980(5) 0.9331(6)
C51_3 C 0.2678(5) 0.0882(6) 0.9016(5)
H29_3 H 0.262518 0.104592 0.885678
C52_3 C 0.2738(5) 0.0544(7) 0.8932(3)
H30_3 H 0.272534 0.047703 0.871656
C53_3 C 0.2816(6) 0.0304(5) 0.9165(6)
C54_3 C 0.2834(5) 0.0403(7) 0.9480(5)
H31_3 H 0.288684 0.023874 0.963913
C55_3 C 0.2774(5) 0.0741(7) 0.9564(3)
H32_3 H 0.278669 0.080763 0.977935
O10_3 O 0.2555(6) 0.1420(8) 0.9719(4)
O11_3 O 0.2508(5) 0.1505(7) 0.9242(5)
O12_3 O 0.2449(4) 0.2483(7) 0.9786(4)
C106_3 C 0.2633(9) 0.1313(6) 0.9451(6)
O18_2 O 0.1754(6) 0.2166(8) 0.9807(5)
O22_2 O 0.1839(6) 0.1647(8) 0.9710(5)
H69_3 H 0.311983 0.18567 0.969243
H70_3 H 0.307802 0.20532 0.935686
Ru1_3 Ru 0.12666(7) 0.89278(11) 0.13272(6)
C30_3 C 0.6227(5) 0.7870(7) 0.0009(4)
H19_3 H 0.638232 0.803374 0.010369
N10_3 N 0.1101(7) 0.8516(6) 0.1076(4)
C45_3 C 0.1267(4) 0.8212(7) 0.0989(5)
H26_3 H 0.150116 0.815821 0.106731
C46_3 C 0.1089(7) 0.7987(5) 0.0788(6)
H27_3 H 0.120238 0.777939 0.072871
C47_3 C 0.0746(7) 0.8066(7) 0.0674(4)
H28_3 H 0.062502 0.791222 0.053654
C48_3 C 0.0581(4) 0.8370(8) 0.0761(6)
C49_3 C 0.0758(7) 0.8595(5) 0.0962(6)
C67_3 C 0.1649(4) 0.8598(7) 0.1828(5)
C68_3 C 0.1931(6) 0.8458(7) 0.2003(3)
C69_3 C 0.2266(5) 0.8402(7) 0.1862(5)
H40_3 H 0.245818 0.830610 0.198191
C70_3 C 0.2319(4) 0.8488(7) 0.1547(5)
H41_3 H 0.254848 0.844986 0.145029
C71_3 C 0.2038(6) 0.8628(7) 0.1372(3)
H42_3 H 0.207464 0.868684 0.115571
N12_3 N 0.1703(5) 0.8684(6) 0.1512(5)
C72_3 C 0.1298(4) 0.8596(7) 0.1938(5)
N13_3 N 0.1046(6) 0.8738(7) 0.1733(4)
C73_3 C 0.0689(5) 0.8782(7) 0.1830(5)
H43_3 H 0.051679 0.887925 0.168923
C74_3 C 0.0585(4) 0.8685(7) 0.2133(5)
H44_3 H 0.034106 0.871501 0.219895
C75_3 C 0.0837(6) 0.8543(7) 0.2338(4)
H45_3 H 0.076561 0.847621 0.254513
C76_3 C 0.1194(5) 0.8499(7) 0.2241(5)
C77_3 C 0.1836(6) 0.8379(8) 0.2310(4)
C78_3 C 0.1481(5) 0.8414(8) 0.2436(5)
N14_3 N 0.1490(4) 0.8304(7) 0.2756(4)
H46_3 H 0.130451 0.829989 0.288756
C79_3 C 0.1849(5) 0.8201(8) 0.2828(4)
N15_3 N 0.2063(4) 0.8248(8) 0.2552(5)
C80_3 C 0.0356(7) 0.9572(4) 0.1102(5)
H47_3 H 0.027794 0.979825 0.114203
C81_3 C 0.0681(6) 0.9456(7) 0.1228(4)
H48_3 H 0.082613 0.960366 0.135311
N16_3 N 0.0795(4) 0.9124(8) 0.1169(5)
C82_3 C 0.0584(7) 0.8908(4) 0.0986(6)
C83_3 C 0.0258(6) 0.9024(6) 0.0860(5)
C84_3 C 0.0144(4) 0.9356(7) 0.0919(5)
C85_3 C 0.2269(6) 0.7887(12) 0.4076(5)
N17_3 N 0.1418(5) 0.9365(5) 0.1521(5)
C86_3 C 0.1350(4) 0.9453(6) 0.1834(5)
H50_3 H 0.125320 0.928845 0.197567
C87_3 C 0.1423(5) 0.9781(7) 0.1940(3)
H51_3 H 0.137641 0.984090 0.215356
C89_3 C 0.1632(4) 0.9934(6) 0.1419(5)
C90_3 C 0.1559(5) 0.9606(7) 0.1313(3)
C91_3 C 0.1667(6) 0.9017(4) 0.0651(6)
H53_3 H 0.162384 0.878224 0.061101
N18_3 N 0.1577(5) 0.9156(7) 0.0944(5)
C92_3 C 0.1640(6) 0.9499(8) 0.1002(4)
C93_3 C 0.1792(6) 0.9704(5) 0.0769(6)
C94_3 C 0.1881(5) 0.9565(6) 0.0476(5)
H54_3 H 0.198445 0.970449 0.031674
C95_3 C 0.1818(5) 0.9221(6) 0.0418(4)
H55_3 H 0.187917 0.912644 0.021776
C96_3 C 0.0095(7) 0.8779(6) 0.0669(5)
C97_3 C 0.0247(4) 0.8450(7) 0.0623(5)
C99_3 C 0.2171(6) 0.7967(8) 0.3758(4)
C100_3 C 0.2436(4) 0.8032(8) 0.3532(5)
H57_3 H 0.268488 0.802280 0.358909
C101_3 C 0.2337(5) 0.8110(8) 0.3223(4)
H58_3 H 0.251836 0.815424 0.306890
C102_3 C 0.1973(6) 0.8124(8) 0.3140(4)
C103_3 C 0.1708(4) 0.8059(8) 0.3366(5)
H59_3 H 0.145951 0.806832 0.330895
C104_3 C 0.1807(5) 0.7981(8) 0.3675(4)
H60_3 H 0.162603 0.793687 0.382915
C105_3 C 0.6700(5) 0.7493(8) 0.0099(4)
O14_2 O 0.6837(6) 0.7205(7) 0.0083(5)
O15_2 O 0.6883(6) 0.7722(7) 0.0221(4)
Ru2_3 Ru 0.36757(8) 0.82910(12) 0.87672(6)
C1_3 C 0.4585(8) 0.8948(4) 0.8987(5)
H1_3 H 0.466330 0.917283 0.894042
C2_3 C 0.4807(4) 0.8731(7) 0.9161(5)
H2_3 H 0.503628 0.880878 0.923380
C3_3 C 0.4693(7) 0.8402(6) 0.9229(3)
C4_3 C 0.4358(8) 0.8289(5) 0.9123(5)
N1_3 N 0.4136(4) 0.8505(9) 0.8949(5)
C5_3 C 0.4250(7) 0.8835(8) 0.8881(4)
H3_3 H 0.409863 0.898230 0.876180
C6_3 C 0.3016(9) 0.9387(6) 0.9137(6)
C7_3 C 0.3072(9) 0.9492(7) 0.8825(5)
C8_3 C 0.3259(5) 0.9297(6) 0.8602(4)
C9_3 C 0.3321(6) 0.9361(5) 0.8284(5)
H4_3 H 0.325944 0.957647 0.819601
C10_3 C 0.3473(5) 0.9111(7) 0.8093(3)
H5_3 H 0.351515 0.915476 0.787468
C11_3 C 0.3563(5) 0.8796(6) 0.8221(5)
H6_3 H 0.366674 0.862453 0.809022
N2_3 N 0.3501(5) 0.8731(5) 0.8540(5)
C12_3 C 0.3349(5) 0.8982(7) 0.8730(3)
N3_3 N 0.3370(5) 0.8532(7) 0.9112(4)
C13_3 C 0.3277(5) 0.8400(5) 0.9406(5)
H7_3 H 0.332756 0.816883 0.945479
C14_3 C 0.3112(5) 0.8608(7) 0.9630(3)
H8_3 H 0.304892 0.851810 0.983176
C15_3 C 0.3039(5) 0.8947(6) 0.9560(4)
H9_3 H 0.292554 0.908854 0.971270
C16_3 C 0.3131(6) 0.9078(5) 0.9265(5)
C17_3 C 0.3296(5) 0.8871(7) 0.9041(3)
C18_3 C 0.3223(5) 0.7367(7) 0.6421(5)
H10_3 H 0.340726 0.732278 0.626947
C19_3 C 0.2861(6) 0.7364(7) 0.6330(4)
C20_3 C 0.2592(4) 0.7429(7) 0.6552(5)
H11_3 H 0.234455 0.742678 0.648951
C21_3 C 0.2684(5) 0.7498(7) 0.6864(4)
H12_3 H 0.250002 0.754300 0.701541
C22_3 C 0.3046(6) 0.7502(8) 0.6955(4)
C23_3 C 0.3315(4) 0.7437(7) 0.6733(5)
H13_3 H 0.356273 0.743901 0.679538
N4_3 N 0.3250(6) 0.8030(6) 0.8589(4)
C24_3 C 0.2695(5) 0.7769(7) 0.8206(6)
H14_3 H 0.250284 0.768041 0.808170
C25_3 C 0.2635(8) 0.7881(7) 0.8511(6)
H15_3 H 0.239583 0.786775 0.859274
C26_3 C 0.2903(6) 0.8013(7) 0.8705(7)
H16_3 H 0.284813 0.808979 0.891247
C27_3 C 0.2905(9) 0.9961(6) 0.9086(6)
N5_3 N 0.3026(7) 0.9846(8) 0.8789(5)
H17_3 H 0.306424 0.996876 0.861807
N6_3 N 0.2916(7) 0.9687(8) 0.9305(5)
C28_3 C 0.5657(4) 0.7725(7) 0.9767(4)
C29_3 C 0.5885(6) 0.7965(5) 0.9905(5)
H18_3 H 0.580633 0.819433 0.992732
C31_3 C 0.6342(3) 0.7534(8) 0.9976(3)
C32_3 C 0.6114(7) 0.7294(6) 0.9838(5)
H20_3 H 0.619267 0.706532 0.981549
C33_3 C 0.5772(6) 0.7390(6) 0.9733(4)
H21_3 H 0.561667 0.722590 0.963912
N7_3 N 0.3927(5) 0.8070(5) 0.8377(5)
C34_3 C 0.4276(6) 0.8091(6) 0.8266(6)
H22_3 H 0.445779 0.817939 0.840187
C35_3 C 0.4372(8) 0.7988(6) 0.7967(5)
H23_3 H 0.461577 0.800457 0.789692
C36_3 C 0.4106(5) 0.7859(7) 0.7771(6)
H24_3 H 0.416630 0.778704 0.756337
C37_3 C 0.2769(6) 0.7270(5) 0.6006(4)
N8_3 N 0.3515(7) 0.7642(9) 0.7350(6)
H25_3 H 0.370359 0.764866 0.722222
C38_3 C 0.3160(10) 0.7566(12) 0.7290(8)
N9_3 N 0.2922(7) 0.7583(10) 0.7541(5)
C39_3 C 0.3132(5) 0.7682(6) 0.7782(5)
C40_3 C 0.3043(4) 0.7788(5) 0.8086(5)
C41_3 C 0.3309(6) 0.7918(4) 0.8284(3)
C42_3 C 0.3665(5) 0.7942(4) 0.8179(5)
C43_3 C 0.3754(4) 0.7836(5) 0.7875(5)
C44_3 C 0.3487(6) 0.7705(6) 0.7677(4)
C56_3 C 0.4263(6) 0.7430(7) 0.9393(4)
H33_3 H 0.440621 0.727625 0.951296
C57_3 C 0.3913(7) 0.7341(4) 0.9306(3)
H34_3 H 0.381618 0.712640 0.936639
C58_3 C 0.3703(3) 0.7566(7) 0.9130(4)
H35_3 H 0.346344 0.750524 0.907009
N11_3 N 0.3844(6) 0.7880(6) 0.9041(3)
C59_3 C 0.4194(7) 0.7969(5) 0.9128(4)
C60_3 C 0.4404(4) 0.7744(8) 0.9304(4)
N21_3 N 0.4997(6) 0.7625(5) 0.9609(5)
C114_3 C 0.4733(4) 0.7822(7) 0.9447(5)
C115_3 C 0.4877(6) 0.8153(6) 0.9400(4)
N22_3 N 0.5230(5) 0.8162(5) 0.9534(4)
H65_3 H 0.537665 0.833849 0.953620
C116_3 C 0.5304(4) 0.7835(6) 0.9663(4)
O2_2 O 0.8246(6) 0.7834(8) 0.9807(5)
O9_2 O 0.8161(6) 0.8353(8) 0.9710(5)
C107_3 C 0.8364(5) 0.8131(9) 0.9822(3)
C111_3 C 0.8703(4) 0.8220(10) 0.9955(4)
C112_3 C 0.8820(7) 0.8557(8) 0.9969(4)
H63_3 H 0.867105 0.873364 0.988762
C107_4 C 0.1636(5) 0.1869(9) 0.9822(3)
C111_4 C 0.1297(4) 0.1780(10) 0.9955(4)
C112_4 C 0.1180(7) 0.1443(8) 0.9969(4)
H63_4 H 0.132895 0.126636 0.988762
Ru1_4 Ru 0.87334(7) 0.10722(11) 0.13272(6)
C30_4 C 0.3773(5) 0.2130(7) 0.0009(4)
H19_4 H 0.361768 0.196626 0.010369
N10_4 N 0.8899(7) 0.1484(6) 0.1076(4)
C45_4 C 0.8733(4) 0.1788(7) 0.0989(5)
H26_4 H 0.849884 0.184179 0.106731
C46_4 C 0.8911(7) 0.2013(5) 0.0788(6)
H27_4 H 0.879762 0.222061 0.072871
C47_4 C 0.9254(7) 0.1934(7) 0.0674(4)
H28_4 H 0.937498 0.208778 0.053654
C48_4 C 0.9419(4) 0.1630(8) 0.0761(6)
C49_4 C 0.9242(7) 0.1405(5) 0.0962(6)
C67_4 C 0.8351(4) 0.1402(7) 0.1828(5)
C68_4 C 0.8069(6) 0.1542(7) 0.2003(3)
C69_4 C 0.7734(5) 0.1598(7) 0.1862(5)
H40_4 H 0.754182 0.169390 0.198191
C70_4 C 0.7681(4) 0.1512(7) 0.1547(5)
H41_4 H 0.745152 0.155014 0.145029
C71_4 C 0.7962(6) 0.1372(7) 0.1372(3)
H42_4 H 0.792536 0.131316 0.115571
N12_4 N 0.8297(5) 0.1316(6) 0.1512(5)
C72_4 C 0.8702(4) 0.1404(7) 0.1938(5)
N13_4 N 0.8954(6) 0.1262(7) 0.1733(4)
C73_4 C 0.9311(5) 0.1218(7) 0.1830(5)
H43_4 H 0.948321 0.112075 0.168923
C74_4 C 0.9415(4) 0.1315(7) 0.2133(5)
H44_4 H 0.965894 0.128499 0.219895
C75_4 C 0.9163(6) 0.1457(7) 0.2338(4)
H45_4 H 0.923439 0.152379 0.254513
C76_4 C 0.8806(5) 0.1501(7) 0.2241(5)
C77_4 C 0.8164(6) 0.1621(8) 0.2310(4)
C78_4 C 0.8519(5) 0.1586(8) 0.2436(5)
N14_4 N 0.8510(4) 0.1696(7) 0.2756(4)
H46_4 H 0.869549 0.170011 0.288756
C79_4 C 0.8151(5) 0.1799(8) 0.2828(4)
N15_4 N 0.7937(4) 0.1752(8) 0.2552(5)
C80_4 C 0.9644(7) 0.0428(4) 0.1102(5)
H47_4 H 0.972206 0.020175 0.114203
C81_4 C 0.9319(6) 0.0544(7) 0.1228(4)
H48_4 H 0.917387 0.039634 0.135311
N16_4 N 0.9205(4) 0.0876(8) 0.1169(5)
C82_4 C 0.9416(7) 0.1092(4) 0.0986(6)
C83_4 C 0.9742(6) 0.0976(6) 0.0860(5)
C84_4 C 0.9856(4) 0.0644(7) 0.0919(5)
C85_4 C 0.7731(6) 0.2113(12) 0.4076(5)
N17_4 N 0.8582(5) 0.0635(5) 0.1521(5)
C86_4 C 0.8650(4) 0.0547(6) 0.1834(5)
H50_4 H 0.874680 0.071155 0.197567
C87_4 C 0.8577(5) 0.0219(7) 0.1940(3)
H51_4 H 0.862359 0.015910 0.215356
C89_4 C 0.8368(4) 0.0066(6) 0.1419(5)
C90_4 C 0.8441(5) 0.0394(7) 0.1313(3)
C91_4 C 0.8333(6) 0.0983(4) 0.0651(6)
H53_4 H 0.837616 0.121776 0.061101
N18_4 N 0.8423(5) 0.0844(7) 0.0944(5)
C92_4 C 0.8360(6) 0.0501(8) 0.1002(4)
C93_4 C 0.8208(6) 0.0296(5) 0.0769(6)
C94_4 C 0.8119(5) 0.0435(6) 0.0476(5)
H54_4 H 0.801555 0.029551 0.031674
C95_4 C 0.8182(5) 0.0779(6) 0.0418(4)
H55_4 H 0.812083 0.087356 0.021776
C96_4 C 0.9905(7) 0.1221(6) 0.0669(5)
C97_4 C 0.9753(4) 0.1550(7) 0.0623(5)
C99_4 C 0.7829(6) 0.2033(8) 0.3758(4)
C100_4 C 0.7564(4) 0.1968(8) 0.3532(5)
H57_4 H 0.731512 0.197720 0.358909
C101_4 C 0.7663(5) 0.1890(8) 0.3223(4)
H58_4 H 0.748164 0.184576 0.306890
C102_4 C 0.8027(6) 0.1876(8) 0.3140(4)
C103_4 C 0.8292(4) 0.1941(8) 0.3366(5)
H59_4 H 0.854049 0.193168 0.330895
C104_4 C 0.8193(5) 0.2019(8) 0.3675(4)
H60_4 H 0.837397 0.206313 0.382915
C105_4 C 0.3300(5) 0.2507(8) 0.0099(4)
Ru2_4 Ru 0.63243(8) 0.17090(12) 0.87672(6)
C1_4 C 0.5415(8) 0.1052(4) 0.8987(5)
H1_4 H 0.533670 0.082717 0.894042
C2_4 C 0.5193(4) 0.1269(7) 0.9161(5)
H2_4 H 0.496372 0.119122 0.923380
C3_4 C 0.5307(7) 0.1598(6) 0.9229(3)
C4_4 C 0.5642(8) 0.1711(5) 0.9123(5)
N1_4 N 0.5864(4) 0.1495(9) 0.8949(5)
C5_4 C 0.5750(7) 0.1165(8) 0.8881(4)
H3_4 H 0.590137 0.101770 0.876180
C6_4 C 0.6984(9) 0.0613(6) 0.9137(6)
C7_4 C 0.6928(9) 0.0508(7) 0.8825(5)
C8_4 C 0.6741(5) 0.0703(6) 0.8602(4)
C9_4 C 0.6679(6) 0.0639(5) 0.8284(5)
H4_4 H 0.674056 0.042353 0.819601
C10_4 C 0.6527(5) 0.0889(7) 0.8093(3)
H5_4 H 0.648485 0.084524 0.787468
C11_4 C 0.6437(5) 0.1204(6) 0.8221(5)
H6_4 H 0.633326 0.137547 0.809022
N2_4 N 0.6499(5) 0.1269(5) 0.8540(5)
C12_4 C 0.6651(5) 0.1018(7) 0.8730(3)
N3_4 N 0.6630(5) 0.1468(7) 0.9112(4)
C13_4 C 0.6723(5) 0.1600(5) 0.9406(5)
H7_4 H 0.667244 0.183117 0.945479
C14_4 C 0.6888(5) 0.1392(7) 0.9630(3)
H8_4 H 0.695108 0.148190 0.983176
C15_4 C 0.6961(5) 0.1053(6) 0.9560(4)
H9_4 H 0.707446 0.091146 0.971270
C16_4 C 0.6869(6) 0.0922(5) 0.9265(5)
C17_4 C 0.6704(5) 0.1129(7) 0.9041(3)
C18_4 C 0.6777(5) 0.2633(7) 0.6421(5)
H10_4 H 0.659274 0.267722 0.626947
C19_4 C 0.7139(6) 0.2636(7) 0.6330(4)
C20_4 C 0.7408(4) 0.2571(7) 0.6552(5)
H11_4 H 0.765545 0.257322 0.648951
C21_4 C 0.7316(5) 0.2502(7) 0.6864(4)
H12_4 H 0.749998 0.245700 0.701541
C22_4 C 0.6954(6) 0.2498(8) 0.6955(4)
C23_4 C 0.6685(4) 0.2563(7) 0.6733(5)
H13_4 H 0.643727 0.256099 0.679538
N4_4 N 0.6750(6) 0.1970(6) 0.8589(4)
C24_4 C 0.7305(5) 0.2231(7) 0.8206(6)
H14_4 H 0.749716 0.231959 0.808170
C25_4 C 0.7365(8) 0.2119(7) 0.8511(6)
H15_4 H 0.760417 0.213225 0.859274
C26_4 C 0.7097(6) 0.1987(7) 0.8705(7)
H16_4 H 0.715187 0.191021 0.891247
C27_4 C 0.7095(9) 0.0039(6) 0.9086(6)
N5_4 N 0.6974(7) 0.0154(8) 0.8789(5)
H17_4 H 0.693576 0.003124 0.861807
N6_4 N 0.7084(7) 0.0313(8) 0.9305(5)
C28_4 C 0.4343(4) 0.2275(7) 0.9767(4)
C29_4 C 0.4115(6) 0.2035(5) 0.9905(5)
H18_4 H 0.419367 0.180567 0.992732
C31_4 C 0.3658(3) 0.2466(8) 0.9976(3)
C32_4 C 0.3886(7) 0.2706(6) 0.9838(5)
H20_4 H 0.380733 0.293468 0.981549
C33_4 C 0.4228(6) 0.2610(6) 0.9733(4)
H21_4 H 0.438333 0.277410 0.963912
N7_4 N 0.6073(5) 0.1930(5) 0.8377(5)
C34_4 C 0.5724(6) 0.1909(6) 0.8266(6)
H22_4 H 0.554221 0.182061 0.840187
C35_4 C 0.5628(8) 0.2012(6) 0.7967(5)
H23_4 H 0.538423 0.199543 0.789692
C36_4 C 0.5894(5) 0.2141(7) 0.7771(6)
H24_4 H 0.583370 0.221296 0.756337
C37_4 C 0.7231(6) 0.2730(5) 0.6006(4)
N8_4 N 0.6485(7) 0.2358(9) 0.7350(6)
H25_4 H 0.629641 0.235134 0.722222
C38_4 C 0.6840(10) 0.2434(12) 0.7290(8)
N9_4 N 0.7078(7) 0.2417(10) 0.7541(5)
C39_4 C 0.6868(5) 0.2318(6) 0.7782(5)
C40_4 C 0.6957(4) 0.2212(5) 0.8086(5)
C41_4 C 0.6691(6) 0.2082(4) 0.8284(3)
C42_4 C 0.6335(5) 0.2058(4) 0.8179(5)
C43_4 C 0.6246(4) 0.2164(5) 0.7875(5)
C44_4 C 0.6513(6) 0.2295(6) 0.7677(4)
C56_4 C 0.5737(6) 0.2570(7) 0.9393(4)
H33_4 H 0.559379 0.272375 0.951296
C57_4 C 0.6087(7) 0.2659(4) 0.9306(3)
H34_4 H 0.618382 0.287360 0.936639
C58_4 C 0.6297(3) 0.2434(7) 0.9130(4)
H35_4 H 0.653656 0.249476 0.907009
N11_4 N 0.6156(6) 0.2120(6) 0.9041(3)
C59_4 C 0.5806(7) 0.2031(5) 0.9128(4)
C60_4 C 0.5596(4) 0.2256(8) 0.9304(4)
N21_4 N 0.5003(6) 0.2375(5) 0.9609(5)
C114_4 C 0.5267(4) 0.2178(7) 0.9447(5)
C115_4 C 0.5123(6) 0.1847(6) 0.9400(4)
N22_4 N 0.4770(5) 0.1838(5) 0.9534(4)
H65_4 H 0.462335 0.166151 0.953620
C116_4 C 0.4696(4) 0.2165(6) 0.9663(4)
O6_4 O 0.8110(5) 0.7365(9) 0.0314(5)
O8_4 O 0.7589(5) 0.7998(7) 0.0183(4)
C61_4 C 0.7706(5) 0.8498(6) 0.0908(6)
H36_4 H 0.763730 0.833050 0.105809
C62_4 C 0.7706(4) 0.8420(5) 0.0587(6)
C63_4 C 0.7806(5) 0.8666(7) 0.0366(4)
H37_4 H 0.780695 0.861190 0.014720
C64_4 C 0.7905(5) 0.8990(6) 0.0467(5)
H38_4 H 0.797369 0.915738 0.031637
C65_4 C 0.7905(5) 0.9068(5) 0.0788(6)
C66_4 C 0.7805(5) 0.8822(7) 0.1008(4)
H39_4 H 0.780404 0.887599 0.122727
C88_4 C 0.8436(5) 0.9978(5) 0.1732(5)
H52_4 H 0.838566 0.975420 0.180435
O13_4 O 0.7506(5) 0.7875(7) 0.0660(4)
C117_4 C 0.7598(3) 0.8093(5) 0.0464(6)
N23_4 N 0.8119(5) 0.9499(6) 0.1205(4)
H66_4 H 0.813513 0.936520 0.137155
C118_4 C 0.7975(7) 0.9406(5) 0.0905(6)
N24_4 N 0.7999(5) 0.9695(7) 0.0703(3)
C119_4 C 0.8157(6) 0.9966(4) 0.0879(6)
C120_4 C 0.8231(5) 0.9844(6) 0.1189(5)
O16_4 O 0.7505(12) 0.6824(5) 0.0158(7)
H67_4 H 0.820732 0.752603 0.0474045
H68_4 H 0.819243 0.713042 0.0364422
H71_4 H 0.764276 0.669751 0.0322094
H72_4 H 0.726526 0.671446 0.0126606
O5_4 O 0.6999(5) 0.7950(8) 0.9582(6)
C50_4 C 0.7303(6) 0.9020(5) 0.9331(6)
C51_4 C 0.7322(5) 0.9118(6) 0.9016(5)
H29_4 H 0.737482 0.895408 0.885678
C52_4 C 0.7262(5) 0.9456(7) 0.8932(3)
H30_4 H 0.727466 0.952297 0.871656
C53_4 C 0.7184(6) 0.9696(5) 0.9165(6)
C54_4 C 0.7166(5) 0.9597(7) 0.9480(5)
H31_4 H 0.711316 0.976126 0.963913
C55_4 C 0.7226(5) 0.9259(7) 0.9564(3)
H32_4 H 0.721331 0.919237 0.977935
O10_4 O 0.7445(6) 0.8580(8) 0.9719(4)
O11_4 O 0.7492(5) 0.8495(7) 0.9242(5)
O12_4 O 0.7551(4) 0.7517(7) 0.9786(4)
C106_4 C 0.7367(9) 0.8687(6) 0.9451(6)
H69_4 H 0.688017 0.81433 0.969243
H70_4 H 0.692198 0.79468 0.935686
H2_5 H 0.003628 0.380878 0.423380
C28_5 C 0.0657(4) 0.2725(7) 0.4767(4)
C29_5 C 0.0885(6) 0.2965(5) 0.4905(5)
H18_5 H 0.080633 0.319433 0.492732
C30_5 C 0.1227(5) 0.2870(7) 0.5009(4)
H19_5 H 0.138232 0.303374 0.510369
C31_5 C 0.1342(3) 0.2534(8) 0.4976(3)
C32_5 C 0.1114(7) 0.2294(6) 0.4838(5)
H20_5 H 0.119267 0.206532 0.481549
C33_5 C 0.0772(6) 0.2390(6) 0.4733(4)
H21_5 H 0.061667 0.222590 0.463912
C105_5 C 0.1700(5) 0.2493(8) 0.5099(4)
O14_3 O 0.1837(6) 0.2205(7) 0.5083(5)
N22_5 N 0.0230(5) 0.3162(5) 0.4534(4)
H65_5 H 0.037665 0.333849 0.453620
C116_5 C 0.0304(4) 0.2835(6) 0.4663(4)
O15_3 O 0.1883(6) 0.2722(7) 0.5221(4)
Eu5_2 Eu 0.24229(5) 0.23856(9) 0.53211(5)
Eu1_2 Eu 0.73698(5) 0.69858(9) 0.46096(4)
Eu2_2 Eu 0.75771(5) 0.76144(9) 0.53211(5)
Ru1_5 Ru 0.62666(7) 0.39278(11) 0.63272(6)
Ru2_5 Ru 0.86757(8) 0.32910(12) 0.37672(6)
C1_5 C 0.9585(8) 0.3948(4) 0.3987(5)
H1_5 H 0.966330 0.417283 0.394042
C2_5 C 0.9807(4) 0.3731(7) 0.4161(5)
C3_5 C 0.9693(7) 0.3402(6) 0.4229(3)
C4_5 C 0.9358(8) 0.3289(5) 0.4123(5)
N1_5 N 0.9136(4) 0.3505(9) 0.3949(5)
C5_5 C 0.9250(7) 0.3835(8) 0.3881(4)
H3_5 H 0.909863 0.398230 0.376180
C6_5 C 0.8016(9) 0.4387(6) 0.4137(6)
C7_5 C 0.8072(9) 0.4492(7) 0.3825(5)
C8_5 C 0.8259(5) 0.4297(6) 0.3602(4)
C9_5 C 0.8321(6) 0.4361(5) 0.3284(5)
H4_5 H 0.825944 0.457647 0.319601
C10_5 C 0.8473(5) 0.4111(7) 0.3093(3)
H5_5 H 0.851515 0.415476 0.287468
C11_5 C 0.8563(5) 0.3796(6) 0.3221(5)
H6_5 H 0.866674 0.362453 0.309022
N2_5 N 0.8501(5) 0.3731(5) 0.3540(5)
C12_5 C 0.8349(5) 0.3982(7) 0.3730(3)
N3_5 N 0.8370(5) 0.3532(7) 0.4112(4)
C13_5 C 0.8277(5) 0.3400(5) 0.4406(5)
H7_5 H 0.832756 0.316883 0.445479
C14_5 C 0.8112(5) 0.3608(7) 0.4630(3)
H8_5 H 0.804892 0.351810 0.483176
C15_5 C 0.8039(5) 0.3947(6) 0.4560(4)
H9_5 H 0.792554 0.408854 0.471270
C16_5 C 0.8131(6) 0.4078(5) 0.4265(5)
C17_5 C 0.8296(5) 0.3871(7) 0.4041(3)
O1_3 O 0.7033(5) 0.2788(8) 0.9267(4)
C18_5 C 0.8223(5) 0.2367(7) 0.1421(5)
H10_5 H 0.840726 0.232278 0.126947
C19_5 C 0.7861(6) 0.2364(7) 0.1330(4)
C20_5 C 0.7592(4) 0.2429(7) 0.1552(5)
H11_5 H 0.734455 0.242678 0.148951
C21_5 C 0.7684(5) 0.2498(7) 0.1864(4)
H12_5 H 0.750002 0.254300 0.201541
C22_5 C 0.8046(6) 0.2502(8) 0.1955(4)
C23_5 C 0.8315(4) 0.2437(7) 0.1733(5)
H13_5 H 0.856273 0.243901 0.179538
O2_3 O 0.3246(6) 0.2834(8) 0.4807(5)
O3_3 O 0.7590(5) 0.2864(8) 0.9163(4)
O4_3 O 0.8005(5) 0.2168(7) 0.0815(4)
O5_5 O 0.8001(5) 0.7050(8) 0.4582(6)
N4_5 N 0.8250(6) 0.3030(6) 0.3589(4)
C24_5 C 0.7695(5) 0.2769(7) 0.3206(6)
H14_5 H 0.750284 0.268041 0.308170
C25_5 C 0.7635(8) 0.2881(7) 0.3511(6)
H15_5 H 0.739583 0.286775 0.359274
C26_5 C 0.7903(6) 0.3013(7) 0.3705(7)
H16_5 H 0.784813 0.308979 0.391247
O6_5 O 0.6890(5) 0.7635(9) 0.5314(5)
O7_3 O 0.7460(5) 0.2289(7) 0.0884(5)
C27_5 C 0.7905(9) 0.4961(6) 0.4086(6)
N5_5 N 0.8026(7) 0.4846(8) 0.3789(5)
H17_5 H 0.806424 0.496876 0.361807
N6_5 N 0.7916(7) 0.4687(8) 0.4305(5)
N7_5 N 0.8927(5) 0.3070(5) 0.3377(5)
C34_5 C 0.9276(6) 0.3091(6) 0.3266(6)
H22_5 H 0.945779 0.317939 0.340187
C35_5 C 0.9372(8) 0.2988(6) 0.2967(5)
H23_5 H 0.961577 0.300457 0.289692
C36_5 C 0.9106(5) 0.2859(7) 0.2771(6)
H24_5 H 0.916630 0.278704 0.256337
C37_5 C 0.7769(6) 0.2270(5) 0.1006(4)
N8_5 N 0.8515(7) 0.2642(9) 0.2350(6)
H25_5 H 0.870359 0.264866 0.222222
C38_5 C 0.8160(10) 0.2566(12) 0.2290(8)
N9_5 N 0.7922(7) 0.2583(10) 0.2541(5)
C39_5 C 0.8132(5) 0.2682(6) 0.2782(5)
C40_5 C 0.8043(4) 0.2788(5) 0.3086(5)
C41_5 C 0.8309(6) 0.2918(4) 0.3284(3)
C42_5 C 0.8665(5) 0.2942(4) 0.3179(5)
C43_5 C 0.8754(4) 0.2836(5) 0.2875(5)
C44_5 C 0.8487(6) 0.2705(6) 0.2677(4)
N10_5 N 0.6101(7) 0.3516(6) 0.6076(4)
C45_5 C 0.6267(4) 0.3212(7) 0.5989(5)
H26_5 H 0.650116 0.315821 0.606731
C46_5 C 0.6089(7) 0.2987(5) 0.5788(6)
H27_5 H 0.620238 0.277939 0.572871
C47_5 C 0.5746(7) 0.3066(7) 0.5674(4)
H28_5 H 0.562502 0.291222 0.553654
C48_5 C 0.5581(4) 0.3370(8) 0.5761(6)
C49_5 C 0.5758(7) 0.3595(5) 0.5962(6)
O8_5 O 0.7411(5) 0.7002(7) 0.5183(4)
C50_5 C 0.7697(6) 0.5980(5) 0.4331(6)
C51_5 C 0.7678(5) 0.5882(6) 0.4016(5)
H29_5 H 0.762518 0.604592 0.385678
C52_5 C 0.7738(5) 0.5544(7) 0.3932(3)
H30_5 H 0.772534 0.547703 0.371656
C53_5 C 0.7816(6) 0.5304(5) 0.4165(6)
C54_5 C 0.7834(5) 0.5403(7) 0.4480(5)
H31_5 H 0.788684 0.523874 0.463913
C55_5 C 0.7774(5) 0.5741(7) 0.4564(3)
H32_5 H 0.778669 0.580763 0.477935
O9_3 O 0.3161(6) 0.3353(8) 0.4710(5)
O10_5 O 0.7555(6) 0.6420(8) 0.4719(4)
O11_5 O 0.7508(5) 0.6505(7) 0.4242(5)
C56_5 C 0.9263(6) 0.2430(7) 0.4393(4)
H33_5 H 0.940621 0.227625 0.451296
C57_5 C 0.8913(7) 0.2341(4) 0.4306(3)
H34_5 H 0.881618 0.212640 0.436639
C58_5 C 0.8703(3) 0.2566(7) 0.4130(4)
H35_5 H 0.846344 0.250524 0.407009
N11_5 N 0.8844(6) 0.2880(6) 0.4041(3)
C59_5 C 0.9194(7) 0.2969(5) 0.4128(4)
C60_5 C 0.9404(4) 0.2744(8) 0.4304(4)
O12_5 O 0.7449(4) 0.7483(7) 0.4786(4)
C61_5 C 0.7294(5) 0.6502(6) 0.5908(6)
H36_5 H 0.736270 0.666950 0.605809
C62_5 C 0.7294(4) 0.6580(5) 0.5587(6)
C63_5 C 0.7194(5) 0.6334(7) 0.5366(4)
H37_5 H 0.719305 0.638810 0.514720
C64_5 C 0.7095(5) 0.6010(6) 0.5467(5)
H38_5 H 0.702631 0.584262 0.531637
C65_5 C 0.7095(5) 0.5932(5) 0.5788(6)
C66_5 C 0.7195(5) 0.6178(7) 0.6008(4)
H39_5 H 0.719596 0.612401 0.622727
C67_5 C 0.6649(4) 0.3598(7) 0.6828(5)
C68_5 C 0.6931(6) 0.3458(7) 0.7003(3)
C69_5 C 0.7266(5) 0.3402(7) 0.6862(5)
H40_5 H 0.745818 0.330610 0.698191
C70_5 C 0.7319(4) 0.3488(7) 0.6547(5)
H41_5 H 0.754848 0.344986 0.645029
C71_5 C 0.7038(6) 0.3628(7) 0.6372(3)
H42_5 H 0.707464 0.368684 0.615571
N12_5 N 0.6703(5) 0.3684(6) 0.6512(5)
C72_5 C 0.6298(4) 0.3596(7) 0.6938(5)
N13_5 N 0.6046(6) 0.3738(7) 0.6733(4)
C73_5 C 0.5689(5) 0.3782(7) 0.6830(5)
H43_5 H 0.551679 0.387925 0.668923
C74_5 C 0.5585(4) 0.3685(7) 0.7133(5)
H44_5 H 0.534106 0.371501 0.719895
C75_5 C 0.5837(6) 0.3543(7) 0.7338(4)
H45_5 H 0.576561 0.347621 0.754513
C76_5 C 0.6194(5) 0.3499(7) 0.7241(5)
C77_5 C 0.6836(6) 0.3379(8) 0.7310(4)
C78_5 C 0.6481(5) 0.3414(8) 0.7436(5)
N14_5 N 0.6490(4) 0.3304(7) 0.7756(4)
H46_5 H 0.630451 0.329989 0.788756
C79_5 C 0.6849(5) 0.3201(8) 0.7828(4)
N15_5 N 0.7063(4) 0.3248(8) 0.7552(5)
C80_5 C 0.5356(7) 0.4572(4) 0.6102(5)
H47_5 H 0.527794 0.479825 0.614203
C81_5 C 0.5681(6) 0.4456(7) 0.6228(4)
H48_5 H 0.582613 0.460366 0.635311
N16_5 N 0.5795(4) 0.4124(8) 0.6169(5)
C82_5 C 0.5584(7) 0.3908(4) 0.5986(6)
C83_5 C 0.5258(6) 0.4024(6) 0.5860(5)
C84_5 C 0.5144(4) 0.4356(7) 0.5919(5)
H49_3 H 0.492156 0.443462 0.583287
C85_5 C 0.7269(6) 0.2887(12) 0.9076(5)
N17_5 N 0.6418(5) 0.4365(5) 0.6521(5)
C86_5 C 0.6350(4) 0.4453(6) 0.6834(5)
H50_5 H 0.625320 0.428845 0.697567
C87_5 C 0.6423(5) 0.4781(7) 0.6940(3)
H51_5 H 0.637641 0.484090 0.715356
C88_5 C 0.6564(5) 0.5022(5) 0.6732(5)
H52_5 H 0.661434 0.524580 0.680435
C89_5 C 0.6632(4) 0.4934(6) 0.6419(5)
C90_5 C 0.6559(5) 0.4606(7) 0.6313(3)
C91_5 C 0.6667(6) 0.4017(4) 0.5651(6)
H53_5 H 0.662384 0.378224 0.561101
N18_5 N 0.6577(5) 0.4156(7) 0.5944(5)
C92_5 C 0.6640(6) 0.4499(8) 0.6002(4)
C93_5 C 0.6792(6) 0.4704(5) 0.5769(6)
C94_5 C 0.6881(5) 0.4565(6) 0.5476(5)
H54_5 H 0.698445 0.470449 0.531674
C95_5 C 0.6818(5) 0.4221(6) 0.5418(4)
H55_5 H 0.687917 0.412644 0.521776
N19_3 N 0.4748(6) 0.3783(6) 0.5525(5)
H56_3 H 0.459815 0.395731 0.552022
C96_5 C 0.5095(7) 0.3779(6) 0.5669(5)
C97_5 C 0.5247(4) 0.3450(7) 0.5623(5)
N20_3 N 0.4994(7) 0.3251(5) 0.5451(5)
C98_3 C 0.4685(5) 0.3457(7) 0.5390(5)
C99_5 C 0.7171(6) 0.2967(8) 0.8758(4)
C100_5 C 0.7436(4) 0.3032(8) 0.8532(5)
H57_5 H 0.768488 0.302280 0.858909
C101_5 C 0.7337(5) 0.3110(8) 0.8223(4)
H58_5 H 0.751836 0.315424 0.806890
C102_5 C 0.6973(6) 0.3124(8) 0.8140(4)
C103_5 C 0.6708(4) 0.3059(8) 0.8366(5)
H59_5 H 0.645951 0.306832 0.830895
C104_5 C 0.6807(5) 0.2981(8) 0.8675(4)
H60_5 H 0.662603 0.293687 0.882915
C106_5 C 0.7633(9) 0.6313(6) 0.4451(6)
O13_5 O 0.7494(5) 0.7125(7) 0.5660(4)
C107_5 C 0.3364(5) 0.3131(9) 0.4822(3)
C108_3 C 0.4371(4) 0.3375(9) 0.5222(4)
C109_3 C 0.4254(7) 0.3039(8) 0.5208(5)
H61_3 H 0.440300 0.286184 0.528966
C110_3 C 0.3920(8) 0.2961(7) 0.5074(5)
H62_3 H 0.384062 0.273160 0.506481
C111_5 C 0.3703(4) 0.3220(10) 0.4955(4)
C112_5 C 0.3820(7) 0.3557(8) 0.4969(4)
H63_5 H 0.367105 0.373364 0.488762
C113_3 C 0.4154(8) 0.3634(7) 0.5103(5)
H64_3 H 0.423344 0.386389 0.511246
N21_5 N 0.9997(6) 0.2625(5) 0.4609(5)
C114_5 C 0.9733(4) 0.2822(7) 0.4447(5)
C115_5 C 0.9877(6) 0.3153(6) 0.4400(4)
C117_5 C 0.7402(3) 0.6907(5) 0.5464(6)
N23_5 N 0.6881(5) 0.5501(6) 0.6205(4)
H66_5 H 0.686487 0.563480 0.637155
C118_5 C 0.7025(7) 0.5594(5) 0.5905(6)
N24_5 N 0.7001(5) 0.5305(7) 0.5703(3)
C119_5 C 0.6843(6) 0.5034(4) 0.5879(6)
C120_5 C 0.6769(5) 0.5156(6) 0.6189(5)
O16_5 O 0.7495(12) 0.8176(5) 0.5158(7)
Eu3_2 Eu 0.26302(5) 0.30142(9) 0.46096(4)
Eu4_3 Eu 0.76302(5) 0.19858(9) 0.03904(4)
Eu6_3 Eu 0.74229(5) 0.26144(9) 0.96789(5)
O17_3 O 0.7967(5) 0.7788(8) 0.5733(4)
O18_3 O 0.6754(6) 0.7166(8) 0.4807(5)
O19_3 O 0.7410(5) 0.7864(8) 0.5837(4)
O20_3 O 0.6995(5) 0.7168(7) 0.4185(4)
O21_3 O 0.7540(5) 0.7289(7) 0.4116(5)
O22_3 O 0.6839(6) 0.6647(8) 0.4710(5)
O23_3 O 0.8163(6) 0.7795(7) 0.5083(5)
O24_3 O 0.8117(6) 0.7278(7) 0.5221(4)
H67_5 H 0.679268 0.747397 0.547405
H68_5 H 0.680757 0.786958 0.536442
H69_5 H 0.811983 0.68567 0.469243
H70_5 H 0.807802 0.70532 0.435686
H71_5 H 0.735724 0.830249 0.532209
H72_5 H 0.773474 0.828554 0.512661
Ru1_6 Ru 0.37334(7) 0.60722(11) 0.63272(6)
Ru2_6 Ru 0.13243(8) 0.67090(12) 0.37672(6)
C1_6 C 0.0415(8) 0.6052(4) 0.3987(5)
H1_6 H 0.033670 0.582717 0.394042
C2_6 C 0.0193(4) 0.6269(7) 0.4161(5)
C3_6 C 0.0307(7) 0.6598(6) 0.4229(3)
C4_6 C 0.0642(8) 0.6711(5) 0.4123(5)
N1_6 N 0.0864(4) 0.6495(9) 0.3949(5)
C5_6 C 0.0750(7) 0.6165(8) 0.3881(4)
H3_6 H 0.090137 0.601770 0.376180
C6_6 C 0.1984(9) 0.5613(6) 0.4137(6)
C7_6 C 0.1928(9) 0.5508(7) 0.3825(5)
C8_6 C 0.1741(5) 0.5703(6) 0.3602(4)
C9_6 C 0.1679(6) 0.5639(5) 0.3284(5)
H4_6 H 0.174056 0.542353 0.319601
C10_6 C 0.1527(5) 0.5889(7) 0.3093(3)
H5_6 H 0.148485 0.584524 0.287468
C11_6 C 0.1437(5) 0.6204(6) 0.3221(5)
H6_6 H 0.133326 0.637547 0.309022
N2_6 N 0.1499(5) 0.6269(5) 0.3540(5)
C12_6 C 0.1651(5) 0.6018(7) 0.3730(3)
N3_6 N 0.1630(5) 0.6468(7) 0.4112(4)
C13_6 C 0.1723(5) 0.6600(5) 0.4406(5)
H7_6 H 0.167244 0.683117 0.445479
C14_6 C 0.1888(5) 0.6392(7) 0.4630(3)
H8_6 H 0.195108 0.648190 0.483176
C15_6 C 0.1961(5) 0.6053(6) 0.4560(4)
H9_6 H 0.207446 0.591146 0.471270
C16_6 C 0.1869(6) 0.5922(5) 0.4265(5)
C17_6 C 0.1704(5) 0.6129(7) 0.4041(3)
O1_4 O 0.2967(5) 0.7212(8) 0.9267(4)
C18_6 C 0.1777(5) 0.7633(7) 0.1421(5)
H10_6 H 0.159274 0.767722 0.126947
C19_6 C 0.2139(6) 0.7636(7) 0.1330(4)
C20_6 C 0.2408(4) 0.7571(7) 0.1552(5)
H11_6 H 0.265545 0.757322 0.148951
C21_6 C 0.2316(5) 0.7502(7) 0.1864(4)
H12_6 H 0.249998 0.745700 0.201541
C22_6 C 0.1954(6) 0.7498(8) 0.1955(4)
C23_6 C 0.1685(4) 0.7563(7) 0.1733(5)
H13_6 H 0.143727 0.756099 0.179538
O3_4 O 0.2410(5) 0.7136(8) 0.9163(4)
O4_4 O 0.1995(5) 0.7832(7) 0.0815(4)
O5_6 O 0.1999(5) 0.2950(8) 0.4582(6)
N4_6 N 0.1750(6) 0.6970(6) 0.3589(4)
C24_6 C 0.2305(5) 0.7231(7) 0.3206(6)
H14_6 H 0.249716 0.731959 0.308170
C25_6 C 0.2365(8) 0.7119(7) 0.3511(6)
H15_6 H 0.260417 0.713225 0.359274
C26_6 C 0.2097(6) 0.6987(7) 0.3705(7)
H16_6 H 0.215187 0.691021 0.391247
O6_6 O 0.3110(5) 0.2365(9) 0.5314(5)
O7_4 O 0.2540(5) 0.7711(7) 0.0884(5)
C27_6 C 0.2095(9) 0.5039(6) 0.4086(6)
N5_6 N 0.1974(7) 0.5154(8) 0.3789(5)
H17_6 H 0.193576 0.503124 0.361807
N6_6 N 0.2084(7) 0.5313(8) 0.4305(5)
N7_6 N 0.1073(5) 0.6930(5) 0.3377(5)
C34_6 C 0.0724(6) 0.6909(6) 0.3266(6)
H22_6 H 0.054221 0.682061 0.340187
C35_6 C 0.0628(8) 0.7012(6) 0.2967(5)
H23_6 H 0.038423 0.699543 0.289692
C36_6 C 0.0894(5) 0.7141(7) 0.2771(6)
H24_6 H 0.083370 0.721296 0.256337
C37_6 C 0.2231(6) 0.7730(5) 0.1006(4)
N8_6 N 0.1485(7) 0.7358(9) 0.2350(6)
H25_6 H 0.129641 0.735134 0.222222
C38_6 C 0.1840(10) 0.7434(12) 0.2290(8)
N9_6 N 0.2078(7) 0.7417(10) 0.2541(5)
C39_6 C 0.1868(5) 0.7318(6) 0.2782(5)
C40_6 C 0.1957(4) 0.7212(5) 0.3086(5)
C41_6 C 0.1691(6) 0.7082(4) 0.3284(3)
C42_6 C 0.1335(5) 0.7058(4) 0.3179(5)
C43_6 C 0.1246(4) 0.7164(5) 0.2875(5)
C44_6 C 0.1513(6) 0.7295(6) 0.2677(4)
N10_6 N 0.3899(7) 0.6484(6) 0.6076(4)
C45_6 C 0.3733(4) 0.6788(7) 0.5989(5)
H26_6 H 0.349884 0.684179 0.606731
C46_6 C 0.3911(7) 0.7013(5) 0.5788(6)
H27_6 H 0.379762 0.722061 0.572871
C47_6 C 0.4254(7) 0.6934(7) 0.5674(4)
H28_6 H 0.437498 0.708778 0.553654
C48_6 C 0.4419(4) 0.6630(8) 0.5761(6)
C49_6 C 0.4242(7) 0.6405(5) 0.5962(6)
O8_6 O 0.2589(5) 0.2998(7) 0.5183(4)
C50_6 C 0.2303(6) 0.4020(5) 0.4331(6)
C51_6 C 0.2322(5) 0.4118(6) 0.4016(5)
H29_6 H 0.237482 0.395408 0.385678
C52_6 C 0.2262(5) 0.4456(7) 0.3932(3)
H30_6 H 0.227466 0.452297 0.371656
C53_6 C 0.2184(6) 0.4696(5) 0.4165(6)
C54_6 C 0.2166(5) 0.4597(7) 0.4480(5)
H31_6 H 0.211316 0.476126 0.463913
C55_6 C 0.2226(5) 0.4259(7) 0.4564(3)
H32_6 H 0.221331 0.419237 0.477935
O10_6 O 0.2445(6) 0.3580(8) 0.4719(4)
O11_6 O 0.2492(5) 0.3495(7) 0.4242(5)
C56_6 C 0.0737(6) 0.7570(7) 0.4393(4)
H33_6 H 0.059379 0.772375 0.451296
C57_6 C 0.1087(7) 0.7659(4) 0.4306(3)
H34_6 H 0.118382 0.787360 0.436639
C58_6 C 0.1297(3) 0.7434(7) 0.4130(4)
H35_6 H 0.153656 0.749476 0.407009
N11_6 N 0.1156(6) 0.7120(6) 0.4041(3)
C59_6 C 0.0806(7) 0.7031(5) 0.4128(4)
C60_6 C 0.0596(4) 0.7256(8) 0.4304(4)
O12_6 O 0.2551(4) 0.2517(7) 0.4786(4)
C61_6 C 0.2706(5) 0.3498(6) 0.5908(6)
H36_6 H 0.263730 0.333050 0.605809
C62_6 C 0.2706(4) 0.3420(5) 0.5587(6)
C63_6 C 0.2806(5) 0.3666(7) 0.5366(4)
H37_6 H 0.280695 0.361190 0.514720
C64_6 C 0.2905(5) 0.3990(6) 0.5467(5)
H38_6 H 0.297369 0.415738 0.531637
C65_6 C 0.2905(5) 0.4068(5) 0.5788(6)
C66_6 C 0.2805(5) 0.3822(7) 0.6008(4)
H39_6 H 0.280404 0.387599 0.622727
C67_6 C 0.3351(4) 0.6402(7) 0.6828(5)
C68_6 C 0.3069(6) 0.6542(7) 0.7003(3)
C69_6 C 0.2734(5) 0.6598(7) 0.6862(5)
H40_6 H 0.254182 0.669390 0.698191
C70_6 C 0.2681(4) 0.6512(7) 0.6547(5)
H41_6 H 0.245152 0.655014 0.645029
C71_6 C 0.2962(6) 0.6372(7) 0.6372(3)
H42_6 H 0.292536 0.631316 0.615571
N12_6 N 0.3297(5) 0.6316(6) 0.6512(5)
C72_6 C 0.3702(4) 0.6404(7) 0.6938(5)
N13_6 N 0.3954(6) 0.6262(7) 0.6733(4)
C73_6 C 0.4311(5) 0.6218(7) 0.6830(5)
H43_6 H 0.448321 0.612075 0.668923
C74_6 C 0.4415(4) 0.6315(7) 0.7133(5)
H44_6 H 0.465894 0.628499 0.719895
C75_6 C 0.4163(6) 0.6457(7) 0.7338(4)
H45_6 H 0.423439 0.652379 0.754513
C76_6 C 0.3806(5) 0.6501(7) 0.7241(5)
C77_6 C 0.3164(6) 0.6621(8) 0.7310(4)
C78_6 C 0.3519(5) 0.6586(8) 0.7436(5)
N14_6 N 0.3510(4) 0.6696(7) 0.7756(4)
H46_6 H 0.369549 0.670011 0.788756
C79_6 C 0.3151(5) 0.6799(8) 0.7828(4)
N15_6 N 0.2937(4) 0.6752(8) 0.7552(5)
C80_6 C 0.4644(7) 0.5428(4) 0.6102(5)
H47_6 H 0.472206 0.520175 0.614203
C81_6 C 0.4319(6) 0.5544(7) 0.6228(4)
H48_6 H 0.417387 0.539634 0.635311
N16_6 N 0.4205(4) 0.5876(8) 0.6169(5)
C82_6 C 0.4416(7) 0.6092(4) 0.5986(6)
C83_6 C 0.4742(6) 0.5976(6) 0.5860(5)
C84_6 C 0.4856(4) 0.5644(7) 0.5919(5)
H49_4 H 0.507844 0.556538 0.583287
C85_6 C 0.2731(6) 0.7113(12) 0.9076(5)
N17_6 N 0.3582(5) 0.5635(5) 0.6521(5)
C86_6 C 0.3650(4) 0.5547(6) 0.6834(5)
H50_6 H 0.374680 0.571155 0.697567
C87_6 C 0.3577(5) 0.5219(7) 0.6940(3)
H51_6 H 0.362359 0.515910 0.715356
C88_6 C 0.3436(5) 0.4978(5) 0.6732(5)
H52_6 H 0.338566 0.475420 0.680435
C89_6 C 0.3368(4) 0.5066(6) 0.6419(5)
C90_6 C 0.3441(5) 0.5394(7) 0.6313(3)
C91_6 C 0.3333(6) 0.5983(4) 0.5651(6)
H53_6 H 0.337616 0.621776 0.561101
N18_6 N 0.3423(5) 0.5844(7) 0.5944(5)
C92_6 C 0.3360(6) 0.5501(8) 0.6002(4)
C93_6 C 0.3208(6) 0.5296(5) 0.5769(6)
C94_6 C 0.3119(5) 0.5435(6) 0.5476(5)
H54_6 H 0.301555 0.529551 0.531674
C95_6 C 0.3182(5) 0.5779(6) 0.5418(4)
H55_6 H 0.312083 0.587356 0.521776
N19_4 N 0.5252(6) 0.6217(6) 0.5525(5)
H56_4 H 0.540185 0.604269 0.552022
C96_6 C 0.4905(7) 0.6221(6) 0.5669(5)
C97_6 C 0.4753(4) 0.6550(7) 0.5623(5)
N20_4 N 0.5006(7) 0.6749(5) 0.5451(5)
C98_4 C 0.5315(5) 0.6543(7) 0.5390(5)
C99_6 C 0.2829(6) 0.7033(8) 0.8758(4)
C100_6 C 0.2564(4) 0.6968(8) 0.8532(5)
H57_6 H 0.231512 0.697720 0.858909
C101_6 C 0.2663(5) 0.6890(8) 0.8223(4)
H58_6 H 0.248164 0.684576 0.806890
C102_6 C 0.3027(6) 0.6876(8) 0.8140(4)
C103_6 C 0.3292(4) 0.6941(8) 0.8366(5)
H59_6 H 0.354049 0.693168 0.830895
C104_6 C 0.3193(5) 0.7019(8) 0.8675(4)
H60_6 H 0.337397 0.706313 0.882915
C106_6 C 0.2367(9) 0.3687(6) 0.4451(6)
O13_6 O 0.2506(5) 0.2875(7) 0.5660(4)
C107_6 C 0.6636(5) 0.6869(9) 0.4822(3)
C108_4 C 0.5629(4) 0.6625(9) 0.5222(4)
C109_4 C 0.5746(7) 0.6961(8) 0.5208(5)
H61_4 H 0.559700 0.713816 0.528966
C110_4 C 0.6080(8) 0.7039(7) 0.5074(5)
H62_4 H 0.615938 0.726840 0.506481
C111_6 C 0.6297(4) 0.6780(10) 0.4955(4)
C112_6 C 0.6180(7) 0.6443(8) 0.4969(4)
H63_6 H 0.632895 0.626636 0.488762
C113_4 C 0.5846(8) 0.6366(7) 0.5103(5)
H64_4 H 0.576656 0.613611 0.511246
N21_6 N 0.0003(6) 0.7375(5) 0.4609(5)
C114_6 C 0.0267(4) 0.7178(7) 0.4447(5)
C115_6 C 0.0123(6) 0.6847(6) 0.4400(4)
C117_6 C 0.2598(3) 0.3093(5) 0.5464(6)
N23_6 N 0.3119(5) 0.4499(6) 0.6205(4)
H66_6 H 0.313513 0.436520 0.637155
C118_6 C 0.2975(7) 0.4406(5) 0.5905(6)
N24_6 N 0.2999(5) 0.4695(7) 0.5703(3)
C119_6 C 0.3157(6) 0.4966(4) 0.5879(6)
C120_6 C 0.3231(5) 0.4844(6) 0.6189(5)
O16_6 O 0.2505(12) 0.1824(5) 0.5158(7)
Eu4_4 Eu 0.23698(5) 0.80142(9) 0.03904(4)
Eu6_4 Eu 0.25771(5) 0.73856(9) 0.96789(5)
O17_4 O 0.2033(5) 0.2212(8) 0.5733(4)
O19_4 O 0.2590(5) 0.2136(8) 0.5837(4)
O20_4 O 0.3005(5) 0.2832(7) 0.4185(4)
O21_4 O 0.2460(5) 0.2711(7) 0.4116(5)
H67_6 H 0.320732 0.252603 0.547405
H68_6 H 0.319243 0.213042 0.536442
H69_6 H 0.188017 0.31433 0.469243
H70_6 H 0.192198 0.29468 0.435686
H71_6 H 0.264276 0.169751 0.532209
H72_6 H 0.226526 0.171446 0.512661
H2_6 H 0.996372 0.619122 0.423380
C28_6 C 0.9343(4) 0.7275(7) 0.4767(4)
C29_6 C 0.9115(6) 0.7035(5) 0.4905(5)
H18_6 H 0.919367 0.680567 0.492732
C30_6 C 0.8773(5) 0.7130(7) 0.5009(4)
H19_6 H 0.861768 0.696626 0.510369
C31_6 C 0.8658(3) 0.7466(8) 0.4976(3)
C32_6 C 0.8886(7) 0.7706(6) 0.4838(5)
H20_6 H 0.880733 0.793468 0.481549
C33_6 C 0.9228(6) 0.7610(6) 0.4733(4)
H21_6 H 0.938333 0.777410 0.463912
C105_6 C 0.8300(5) 0.7507(8) 0.5099(4)
N22_6 N 0.9770(5) 0.6838(5) 0.4534(4)
H65_6 H 0.962335 0.666151 0.453620
C116_6 C 0.9696(4) 0.7165(6) 0.4663(4)
O2_4 O 0.1754(6) 0.7834(8) 0.0193(5)
O9_4 O 0.1839(6) 0.8353(8) 0.0290(5)
C107_7 C 0.1636(5) 0.8131(9) 0.0178(3)
C111_7 C 0.1297(4) 0.8220(10) 0.0045(4)
C112_7 C 0.1180(7) 0.8557(8) 0.0031(4)
H63_7 H 0.132895 0.873364 0.011238
O5_7 O 0.6999(5) 0.2050(8) 0.0418(6)
C50_7 C 0.7303(6) 0.0980(5) 0.0669(6)
C51_7 C 0.7322(5) 0.0882(6) 0.0984(5)
H29_7 H 0.737482 0.104592 0.114322
C52_7 C 0.7262(5) 0.0544(7) 0.1068(3)
H30_7 H 0.727466 0.047703 0.128344
C53_7 C 0.7184(6) 0.0304(5) 0.0835(6)
C54_7 C 0.7166(5) 0.0403(7) 0.0520(5)
H31_7 H 0.711316 0.023874 0.036087
C55_7 C 0.7226(5) 0.0741(7) 0.0436(3)
H32_7 H 0.721331 0.080763 0.022065
O10_7 O 0.7445(6) 0.1420(8) 0.0281(4)
O11_7 O 0.7492(5) 0.1505(7) 0.0758(5)
O12_7 O 0.7551(4) 0.2483(7) 0.0214(4)
C106_7 C 0.7367(9) 0.1313(6) 0.0549(6)
O18_4 O 0.8246(6) 0.2166(8) 0.0193(5)
O22_4 O 0.8161(6) 0.1647(8) 0.0290(5)
H69_7 H 0.688017 0.18567 0.0307567
H70_7 H 0.692198 0.20532 0.0643145
O6_7 O 0.8110(5) 0.2635(9) 0.9686(5)
O8_7 O 0.7589(5) 0.2002(7) 0.9817(4)
C61_7 C 0.7706(5) 0.1502(6) 0.9092(6)
H36_7 H 0.763730 0.166950 0.894191
C62_7 C 0.7706(4) 0.1580(5) 0.9413(6)
C63_7 C 0.7806(5) 0.1334(7) 0.9634(4)
H37_7 H 0.780695 0.138810 0.985280
C64_7 C 0.7905(5) 0.1010(6) 0.9533(5)
H38_7 H 0.797369 0.084262 0.968363
C65_7 C 0.7905(5) 0.0932(5) 0.9212(6)
C66_7 C 0.7805(5) 0.1178(7) 0.8992(4)
H39_7 H 0.780404 0.112401 0.877273
C88_7 C 0.8436(5) 0.0022(5) 0.8268(5)
H52_7 H 0.838566 0.024580 0.819565
O13_7 O 0.7506(5) 0.2125(7) 0.9340(4)
C117_7 C 0.7598(3) 0.1907(5) 0.9536(6)
N23_7 N 0.8119(5) 0.0501(6) 0.8795(4)
H66_7 H 0.813513 0.063480 0.862845
C118_7 C 0.7975(7) 0.0594(5) 0.9095(6)
N24_7 N 0.7999(5) 0.0305(7) 0.9297(3)
C119_7 C 0.8157(6) 0.0034(4) 0.9121(6)
C120_7 C 0.8231(5) 0.0156(6) 0.8811(5)
O16_7 O 0.7505(12) 0.3176(5) 0.9842(7)
O23_4 O 0.6837(6) 0.2795(7) 0.9917(5)
O24_4 O 0.6883(6) 0.2278(7) 0.9779(4)
H67_7 H 0.820732 0.247397 0.952595
H68_7 H 0.819243 0.286958 0.963558
H71_7 H 0.764276 0.330249 0.967791
H72_7 H 0.726526 0.328554 0.987339
Ru2_7 Ru 0.63243(8) 0.82910(12) 0.12328(6)
C1_7 C 0.5415(8) 0.8948(4) 0.1013(5)
H1_7 H 0.533670 0.917283 0.105958
C2_7 C 0.5193(4) 0.8731(7) 0.0839(5)
H2_7 H 0.496372 0.880878 0.076620
C3_7 C 0.5307(7) 0.8402(6) 0.0771(3)
C4_7 C 0.5642(8) 0.8289(5) 0.0877(5)
N1_7 N 0.5864(4) 0.8505(9) 0.1051(5)
C5_7 C 0.5750(7) 0.8835(8) 0.1119(4)
H3_7 H 0.590137 0.898230 0.123820
C6_7 C 0.6984(9) 0.9387(6) 0.0863(6)
C7_7 C 0.6928(9) 0.9492(7) 0.1175(5)
C8_7 C 0.6741(5) 0.9297(6) 0.1398(4)
C9_7 C 0.6679(6) 0.9361(5) 0.1716(5)
H4_7 H 0.674056 0.957647 0.180399
C10_7 C 0.6527(5) 0.9111(7) 0.1907(3)
H5_7 H 0.648485 0.915476 0.212532
C11_7 C 0.6437(5) 0.8796(6) 0.1779(5)
H6_7 H 0.633326 0.862453 0.190978
N2_7 N 0.6499(5) 0.8731(5) 0.1460(5)
C12_7 C 0.6651(5) 0.8982(7) 0.1270(3)
N3_7 N 0.6630(5) 0.8532(7) 0.0888(4)
C13_7 C 0.6723(5) 0.8400(5) 0.0594(5)
H7_7 H 0.667244 0.816883 0.054521
C14_7 C 0.6888(5) 0.8608(7) 0.0370(3)
H8_7 H 0.695108 0.851810 0.016824
C15_7 C 0.6961(5) 0.8947(6) 0.0440(4)
H9_7 H 0.707446 0.908854 0.028730
C16_7 C 0.6869(6) 0.9078(5) 0.0735(5)
C17_7 C 0.6704(5) 0.8871(7) 0.0959(3)
C18_7 C 0.6777(5) 0.7367(7) 0.3579(5)
H10_7 H 0.659274 0.732278 0.373053
C19_7 C 0.7139(6) 0.7364(7) 0.3670(4)
C20_7 C 0.7408(4) 0.7429(7) 0.3448(5)
H11_7 H 0.765545 0.742678 0.351049
C21_7 C 0.7316(5) 0.7498(7) 0.3136(4)
H12_7 H 0.749998 0.754300 0.298459
C22_7 C 0.6954(6) 0.7502(8) 0.3045(4)
C23_7 C 0.6685(4) 0.7437(7) 0.3267(5)
H13_7 H 0.643727 0.743901 0.320462
N4_7 N 0.6750(6) 0.8030(6) 0.1411(4)
C24_7 C 0.7305(5) 0.7769(7) 0.1794(6)
H14_7 H 0.749716 0.768041 0.191830
C25_7 C 0.7365(8) 0.7881(7) 0.1489(6)
H15_7 H 0.760417 0.786775 0.140726
C26_7 C 0.7097(6) 0.8013(7) 0.1295(7)
H16_7 H 0.715187 0.808979 0.108753
C27_7 C 0.7095(9) 0.9961(6) 0.0914(6)
N5_7 N 0.6974(7) 0.9846(8) 0.1211(5)
H17_7 H 0.693576 0.996876 0.138193
N6_7 N 0.7084(7) 0.9687(8) 0.0695(5)
C28_7 C 0.4343(4) 0.7725(7) 0.0233(4)
C29_7 C 0.4115(6) 0.7965(5) 0.0095(5)
H18_7 H 0.419367 0.819433 0.007268
C31_7 C 0.3658(3) 0.7534(8) 0.0024(3)
C32_7 C 0.3886(7) 0.7294(6) 0.0162(5)
H20_7 H 0.380733 0.706532 0.018451
C33_7 C 0.4228(6) 0.7390(6) 0.0267(4)
H21_7 H 0.438333 0.722590 0.036088
N7_7 N 0.6073(5) 0.8070(5) 0.1623(5)
C34_7 C 0.5724(6) 0.8091(6) 0.1734(6)
H22_7 H 0.554221 0.817939 0.159813
C35_7 C 0.5628(8) 0.7988(6) 0.2033(5)
H23_7 H 0.538423 0.800457 0.210308
C36_7 C 0.5894(5) 0.7859(7) 0.2229(6)
H24_7 H 0.583370 0.778704 0.243663
C37_7 C 0.7231(6) 0.7270(5) 0.3994(4)
N8_7 N 0.6485(7) 0.7642(9) 0.2650(6)
H25_7 H 0.629641 0.764866 0.277778
C38_7 C 0.6840(10) 0.7566(12) 0.2710(8)
N9_7 N 0.7078(7) 0.7583(10) 0.2459(5)
C39_7 C 0.6868(5) 0.7682(6) 0.2218(5)
C40_7 C 0.6957(4) 0.7788(5) 0.1914(5)
C41_7 C 0.6691(6) 0.7918(4) 0.1716(3)
C42_7 C 0.6335(5) 0.7942(4) 0.1821(5)
C43_7 C 0.6246(4) 0.7836(5) 0.2125(5)
C44_7 C 0.6513(6) 0.7705(6) 0.2323(4)
C56_7 C 0.5737(6) 0.7430(7) 0.0607(4)
H33_7 H 0.559379 0.727625 0.048704
C57_7 C 0.6087(7) 0.7341(4) 0.0694(3)
H34_7 H 0.618382 0.712640 0.063361
C58_7 C 0.6297(3) 0.7566(7) 0.0870(4)
H35_7 H 0.653656 0.750524 0.092991
N11_7 N 0.6156(6) 0.7880(6) 0.0959(3)
C59_7 C 0.5806(7) 0.7969(5) 0.0872(4)
C60_7 C 0.5596(4) 0.7744(8) 0.0696(4)
N21_7 N 0.5003(6) 0.7625(5) 0.0391(5)
C114_7 C 0.5267(4) 0.7822(7) 0.0553(5)
C115_7 C 0.5123(6) 0.8153(6) 0.0600(4)
N22_7 N 0.4770(5) 0.8162(5) 0.0466(4)
H65_7 H 0.462335 0.833849 0.046380
C116_7 C 0.4696(4) 0.7835(6) 0.0337(4)
Ru1_7 Ru 0.87334(7) 0.89278(11) 0.86728(6)
C30_7 C 0.3773(5) 0.7870(7) 0.9991(4)
H19_7 H 0.361768 0.803374 0.989631
N10_7 N 0.8899(7) 0.8516(6) 0.8924(4)
C45_7 C 0.8733(4) 0.8212(7) 0.9011(5)
H26_7 H 0.849884 0.815821 0.893269
C46_7 C 0.8911(7) 0.7987(5) 0.9212(6)
H27_7 H 0.879762 0.777939 0.927129
C47_7 C 0.9254(7) 0.8066(7) 0.9326(4)
H28_7 H 0.937498 0.791222 0.946346
C48_7 C 0.9419(4) 0.8370(8) 0.9239(6)
C49_7 C 0.9242(7) 0.8595(5) 0.9038(6)
C67_7 C 0.8351(4) 0.8598(7) 0.8172(5)
C68_7 C 0.8069(6) 0.8458(7) 0.7997(3)
C69_7 C 0.7734(5) 0.8402(7) 0.8138(5)
H40_7 H 0.754182 0.830610 0.801809
C70_7 C 0.7681(4) 0.8488(7) 0.8453(5)
H41_7 H 0.745152 0.844986 0.854971
C71_7 C 0.7962(6) 0.8628(7) 0.8628(3)
H42_7 H 0.792536 0.868684 0.884429
N12_7 N 0.8297(5) 0.8684(6) 0.8488(5)
C72_7 C 0.8702(4) 0.8596(7) 0.8062(5)
N13_7 N 0.8954(6) 0.8738(7) 0.8267(4)
C73_7 C 0.9311(5) 0.8782(7) 0.8170(5)
H43_7 H 0.948321 0.887925 0.831077
C74_7 C 0.9415(4) 0.8685(7) 0.7867(5)
H44_7 H 0.965894 0.871501 0.780105
C75_7 C 0.9163(6) 0.8543(7) 0.7662(4)
H45_7 H 0.923439 0.847621 0.745487
C76_7 C 0.8806(5) 0.8499(7) 0.7759(5)
C77_7 C 0.8164(6) 0.8379(8) 0.7690(4)
C78_7 C 0.8519(5) 0.8414(8) 0.7564(5)
N14_7 N 0.8510(4) 0.8304(7) 0.7244(4)
H46_7 H 0.869549 0.829989 0.711244
C79_7 C 0.8151(5) 0.8201(8) 0.7172(4)
N15_7 N 0.7937(4) 0.8248(8) 0.7448(5)
C80_7 C 0.9644(7) 0.9572(4) 0.8898(5)
H47_7 H 0.972206 0.979825 0.885797
C81_7 C 0.9319(6) 0.9456(7) 0.8772(4)
H48_7 H 0.917387 0.960366 0.864689
N16_7 N 0.9205(4) 0.9124(8) 0.8831(5)
C82_7 C 0.9416(7) 0.8908(4) 0.9014(6)
C83_7 C 0.9742(6) 0.9024(6) 0.9140(5)
C84_7 C 0.9856(4) 0.9356(7) 0.9081(5)
C85_7 C 0.7731(6) 0.7887(12) 0.5924(5)
N17_7 N 0.8582(5) 0.9365(5) 0.8479(5)
C86_7 C 0.8650(4) 0.9453(6) 0.8166(5)
H50_7 H 0.874680 0.928845 0.802433
C87_7 C 0.8577(5) 0.9781(7) 0.8060(3)
H51_7 H 0.862359 0.984090 0.784644
C89_7 C 0.8368(4) 0.9934(6) 0.8581(5)
C90_7 C 0.8441(5) 0.9606(7) 0.8687(3)
C91_7 C 0.8333(6) 0.9017(4) 0.9349(6)
H53_7 H 0.837616 0.878224 0.938899
N18_7 N 0.8423(5) 0.9156(7) 0.9056(5)
C92_7 C 0.8360(6) 0.9499(8) 0.8998(4)
C93_7 C 0.8208(6) 0.9704(5) 0.9231(6)
C94_7 C 0.8119(5) 0.9565(6) 0.9524(5)
H54_7 H 0.801555 0.970449 0.968326
C95_7 C 0.8182(5) 0.9221(6) 0.9582(4)
H55_7 H 0.812083 0.912644 0.978224
C96_7 C 0.9905(7) 0.8779(6) 0.9331(5)
C97_7 C 0.9753(4) 0.8450(7) 0.9377(5)
C99_7 C 0.7829(6) 0.7967(8) 0.6242(4)
C100_7 C 0.7564(4) 0.8032(8) 0.6468(5)
H57_7 H 0.731512 0.802280 0.641091
C101_7 C 0.7663(5) 0.8110(8) 0.6777(4)
H58_7 H 0.748164 0.815424 0.693110
C102_7 C 0.8027(6) 0.8124(8) 0.6860(4)
C103_7 C 0.8292(4) 0.8059(8) 0.6634(5)
H59_7 H 0.854049 0.806832 0.669105
C104_7 C 0.8193(5) 0.7981(8) 0.6325(4)
H60_7 H 0.837397 0.793687 0.617085
C105_7 C 0.3300(5) 0.7493(8) 0.9901(4)
O14_4 O 0.3163(6) 0.7205(7) 0.9917(5)
O15_4 O 0.3117(6) 0.7722(7) 0.9779(4)
Ru2_8 Ru 0.36757(8) 0.17090(12) 0.12328(6)
C1_8 C 0.4585(8) 0.1052(4) 0.1013(5)
H1_8 H 0.466330 0.082717 0.105958
C2_8 C 0.4807(4) 0.1269(7) 0.0839(5)
H2_8 H 0.503628 0.119122 0.076620
C3_8 C 0.4693(7) 0.1598(6) 0.0771(3)
C4_8 C 0.4358(8) 0.1711(5) 0.0877(5)
N1_8 N 0.4136(4) 0.1495(9) 0.1051(5)
C5_8 C 0.4250(7) 0.1165(8) 0.1119(4)
H3_8 H 0.409863 0.101770 0.123820
C6_8 C 0.3016(9) 0.0613(6) 0.0863(6)
C7_8 C 0.3072(9) 0.0508(7) 0.1175(5)
C8_8 C 0.3259(5) 0.0703(6) 0.1398(4)
C9_8 C 0.3321(6) 0.0639(5) 0.1716(5)
H4_8 H 0.325944 0.042353 0.180399
C10_8 C 0.3473(5) 0.0889(7) 0.1907(3)
H5_8 H 0.351515 0.084524 0.212532
C11_8 C 0.3563(5) 0.1204(6) 0.1779(5)
H6_8 H 0.366674 0.137547 0.190978
N2_8 N 0.3501(5) 0.1269(5) 0.1460(5)
C12_8 C 0.3349(5) 0.1018(7) 0.1270(3)
N3_8 N 0.3370(5) 0.1468(7) 0.0888(4)
C13_8 C 0.3277(5) 0.1600(5) 0.0594(5)
H7_8 H 0.332756 0.183117 0.054521
C14_8 C 0.3112(5) 0.1392(7) 0.0370(3)
H8_8 H 0.304892 0.148190 0.016824
C15_8 C 0.3039(5) 0.1053(6) 0.0440(4)
H9_8 H 0.292554 0.091146 0.028730
C16_8 C 0.3131(6) 0.0922(5) 0.0735(5)
C17_8 C 0.3296(5) 0.1129(7) 0.0959(3)
C18_8 C 0.3223(5) 0.2633(7) 0.3579(5)
H10_8 H 0.340726 0.267722 0.373053
C19_8 C 0.2861(6) 0.2636(7) 0.3670(4)
C20_8 C 0.2592(4) 0.2571(7) 0.3448(5)
H11_8 H 0.234455 0.257322 0.351049
C21_8 C 0.2684(5) 0.2502(7) 0.3136(4)
H12_8 H 0.250002 0.245700 0.298459
C22_8 C 0.3046(6) 0.2498(8) 0.3045(4)
C23_8 C 0.3315(4) 0.2563(7) 0.3267(5)
H13_8 H 0.356273 0.256099 0.320462
N4_8 N 0.3250(6) 0.1970(6) 0.1411(4)
C24_8 C 0.2695(5) 0.2231(7) 0.1794(6)
H14_8 H 0.250284 0.231959 0.191830
C25_8 C 0.2635(8) 0.2119(7) 0.1489(6)
H15_8 H 0.239583 0.213225 0.140726
C26_8 C 0.2903(6) 0.1987(7) 0.1295(7)
H16_8 H 0.284813 0.191021 0.108753
C27_8 C 0.2905(9) 0.0039(6) 0.0914(6)
N5_8 N 0.3026(7) 0.0154(8) 0.1211(5)
H17_8 H 0.306424 0.003124 0.138193
N6_8 N 0.2916(7) 0.0313(8) 0.0695(5)
C28_8 C 0.5657(4) 0.2275(7) 0.0233(4)
C29_8 C 0.5885(6) 0.2035(5) 0.0095(5)
H18_8 H 0.580633 0.180567 0.007268
C31_8 C 0.6342(3) 0.2466(8) 0.0024(3)
C32_8 C 0.6114(7) 0.2706(6) 0.0162(5)
H20_8 H 0.619267 0.293468 0.018451
C33_8 C 0.5772(6) 0.2610(6) 0.0267(4)
H21_8 H 0.561667 0.277410 0.036088
N7_8 N 0.3927(5) 0.1930(5) 0.1623(5)
C34_8 C 0.4276(6) 0.1909(6) 0.1734(6)
H22_8 H 0.445779 0.182061 0.159813
C35_8 C 0.4372(8) 0.2012(6) 0.2033(5)
H23_8 H 0.461577 0.199543 0.210308
C36_8 C 0.4106(5) 0.2141(7) 0.2229(6)
H24_8 H 0.416630 0.221296 0.243663
C37_8 C 0.2769(6) 0.2730(5) 0.3994(4)
N8_8 N 0.3515(7) 0.2358(9) 0.2650(6)
H25_8 H 0.370359 0.235134 0.277778
C38_8 C 0.3160(10) 0.2434(12) 0.2710(8)
N9_8 N 0.2922(7) 0.2417(10) 0.2459(5)
C39_8 C 0.3132(5) 0.2318(6) 0.2218(5)
C40_8 C 0.3043(4) 0.2212(5) 0.1914(5)
C41_8 C 0.3309(6) 0.2082(4) 0.1716(3)
C42_8 C 0.3665(5) 0.2058(4) 0.1821(5)
C43_8 C 0.3754(4) 0.2164(5) 0.2125(5)
C44_8 C 0.3487(6) 0.2295(6) 0.2323(4)
C56_8 C 0.4263(6) 0.2570(7) 0.0607(4)
H33_8 H 0.440621 0.272375 0.048704
C57_8 C 0.3913(7) 0.2659(4) 0.0694(3)
H34_8 H 0.381618 0.287360 0.063361
C58_8 C 0.3703(3) 0.2434(7) 0.0870(4)
H35_8 H 0.346344 0.249476 0.092991
N11_8 N 0.3844(6) 0.2120(6) 0.0959(3)
C59_8 C 0.4194(7) 0.2031(5) 0.0872(4)
C60_8 C 0.4404(4) 0.2256(8) 0.0696(4)
N21_8 N 0.4997(6) 0.2375(5) 0.0391(5)
C114_8 C 0.4733(4) 0.2178(7) 0.0553(5)
C115_8 C 0.4877(6) 0.1847(6) 0.0600(4)
N22_8 N 0.5230(5) 0.1838(5) 0.0466(4)
H65_8 H 0.537665 0.166151 0.046380
C116_8 C 0.5304(4) 0.2165(6) 0.0337(4)
Ru1_8 Ru 0.12666(7) 0.10722(11) 0.86728(6)
C30_8 C 0.6227(5) 0.2130(7) 0.9991(4)
H19_8 H 0.638232 0.196626 0.989631
N10_8 N 0.1101(7) 0.1484(6) 0.8924(4)
C45_8 C 0.1267(4) 0.1788(7) 0.9011(5)
H26_8 H 0.150116 0.184179 0.893269
C46_8 C 0.1089(7) 0.2013(5) 0.9212(6)
H27_8 H 0.120238 0.222061 0.927129
C47_8 C 0.0746(7) 0.1934(7) 0.9326(4)
H28_8 H 0.062502 0.208778 0.946346
C48_8 C 0.0581(4) 0.1630(8) 0.9239(6)
C49_8 C 0.0758(7) 0.1405(5) 0.9038(6)
C67_8 C 0.1649(4) 0.1402(7) 0.8172(5)
C68_8 C 0.1931(6) 0.1542(7) 0.7997(3)
C69_8 C 0.2266(5) 0.1598(7) 0.8138(5)
H40_8 H 0.245818 0.169390 0.801809
C70_8 C 0.2319(4) 0.1512(7) 0.8453(5)
H41_8 H 0.254848 0.155014 0.854971
C71_8 C 0.2038(6) 0.1372(7) 0.8628(3)
H42_8 H 0.207464 0.131316 0.884429
N12_8 N 0.1703(5) 0.1316(6) 0.8488(5)
C72_8 C 0.1298(4) 0.1404(7) 0.8062(5)
N13_8 N 0.1046(6) 0.1262(7) 0.8267(4)
C73_8 C 0.0689(5) 0.1218(7) 0.8170(5)
H43_8 H 0.051679 0.112075 0.831077
C74_8 C 0.0585(4) 0.1315(7) 0.7867(5)
H44_8 H 0.034106 0.128499 0.780105
C75_8 C 0.0837(6) 0.1457(7) 0.7662(4)
H45_8 H 0.076561 0.152379 0.745487
C76_8 C 0.1194(5) 0.1501(7) 0.7759(5)
C77_8 C 0.1836(6) 0.1621(8) 0.7690(4)
C78_8 C 0.1481(5) 0.1586(8) 0.7564(5)
N14_8 N 0.1490(4) 0.1696(7) 0.7244(4)
H46_8 H 0.130451 0.170011 0.711244
C79_8 C 0.1849(5) 0.1799(8) 0.7172(4)
N15_8 N 0.2063(4) 0.1752(8) 0.7448(5)
C80_8 C 0.0356(7) 0.0428(4) 0.8898(5)
H47_8 H 0.027794 0.020175 0.885797
C81_8 C 0.0681(6) 0.0544(7) 0.8772(4)
H48_8 H 0.082613 0.039634 0.864689
N16_8 N 0.0795(4) 0.0876(8) 0.8831(5)
C82_8 C 0.0584(7) 0.1092(4) 0.9014(6)
C83_8 C 0.0258(6) 0.0976(6) 0.9140(5)
C84_8 C 0.0144(4) 0.0644(7) 0.9081(5)
C85_8 C 0.2269(6) 0.2113(12) 0.5924(5)
N17_8 N 0.1418(5) 0.0635(5) 0.8479(5)
C86_8 C 0.1350(4) 0.0547(6) 0.8166(5)
H50_8 H 0.125320 0.071155 0.802433
C87_8 C 0.1423(5) 0.0219(7) 0.8060(3)
H51_8 H 0.137641 0.015910 0.784644
C89_8 C 0.1632(4) 0.0066(6) 0.8581(5)
C90_8 C 0.1559(5) 0.0394(7) 0.8687(3)
C91_8 C 0.1667(6) 0.0983(4) 0.9349(6)
H53_8 H 0.162384 0.121776 0.938899
N18_8 N 0.1577(5) 0.0844(7) 0.9056(5)
C92_8 C 0.1640(6) 0.0501(8) 0.8998(4)
C93_8 C 0.1792(6) 0.0296(5) 0.9231(6)
C94_8 C 0.1881(5) 0.0435(6) 0.9524(5)
H54_8 H 0.198445 0.029551 0.968326
C95_8 C 0.1818(5) 0.0779(6) 0.9582(4)
H55_8 H 0.187917 0.087356 0.978224
C96_8 C 0.0095(7) 0.1221(6) 0.9331(5)
C97_8 C 0.0247(4) 0.1550(7) 0.9377(5)
C99_8 C 0.2171(6) 0.2033(8) 0.6242(4)
C100_8 C 0.2436(4) 0.1968(8) 0.6468(5)
H57_8 H 0.268488 0.197720 0.641091
C101_8 C 0.2337(5) 0.1890(8) 0.6777(4)
H58_8 H 0.251836 0.184576 0.693110
C102_8 C 0.1973(6) 0.1876(8) 0.6860(4)
C103_8 C 0.1708(4) 0.1941(8) 0.6634(5)
H59_8 H 0.145951 0.193168 0.669105
C104_8 C 0.1807(5) 0.2019(8) 0.6325(4)
H60_8 H 0.162603 0.206313 0.617085
C105_8 C 0.6700(5) 0.2507(8) 0.9901(4)
O5_8 O 0.3001(5) 0.7950(8) 0.0418(6)
C50_8 C 0.2697(6) 0.9020(5) 0.0669(6)
C51_8 C 0.2678(5) 0.9118(6) 0.0984(5)
H29_8 H 0.262518 0.895408 0.114322
C52_8 C 0.2738(5) 0.9456(7) 0.1068(3)
H30_8 H 0.272534 0.952297 0.128344
C53_8 C 0.2816(6) 0.9696(5) 0.0835(6)
C54_8 C 0.2834(5) 0.9597(7) 0.0520(5)
H31_8 H 0.288684 0.976126 0.036087
C55_8 C 0.2774(5) 0.9259(7) 0.0436(3)
H32_8 H 0.278669 0.919237 0.022065
O10_8 O 0.2555(6) 0.8580(8) 0.0281(4)
O11_8 O 0.2508(5) 0.8495(7) 0.0758(5)
O12_8 O 0.2449(4) 0.7517(7) 0.0214(4)
C106_8 C 0.2633(9) 0.8687(6) 0.0549(6)
H69_8 H 0.311983 0.81433 0.0307567
H70_8 H 0.307802 0.79468 0.0643145
O6_8 O 0.1890(5) 0.7365(9) 0.9686(5)
O8_8 O 0.2411(5) 0.7998(7) 0.9817(4)
C61_8 C 0.2294(5) 0.8498(6) 0.9092(6)
H36_8 H 0.236270 0.833050 0.894191
C62_8 C 0.2294(4) 0.8420(5) 0.9413(6)
C63_8 C 0.2194(5) 0.8666(7) 0.9634(4)
H37_8 H 0.219305 0.861190 0.985280
C64_8 C 0.2095(5) 0.8990(6) 0.9533(5)
H38_8 H 0.202631 0.915738 0.968363
C65_8 C 0.2095(5) 0.9068(5) 0.9212(6)
C66_8 C 0.2195(5) 0.8822(7) 0.8992(4)
H39_8 H 0.219596 0.887599 0.877273
C88_8 C 0.1564(5) 0.9978(5) 0.8268(5)
H52_8 H 0.161434 0.975420 0.819565
O13_8 O 0.2494(5) 0.7875(7) 0.9340(4)
C117_8 C 0.2402(3) 0.8093(5) 0.9536(6)
N23_8 N 0.1881(5) 0.9499(6) 0.8795(4)
H66_8 H 0.186487 0.936520 0.862845
C118_8 C 0.2025(7) 0.9406(5) 0.9095(6)
N24_8 N 0.2001(5) 0.9695(7) 0.9297(3)
C119_8 C 0.1843(6) 0.9966(4) 0.9121(6)
C120_8 C 0.1769(5) 0.9844(6) 0.8811(5)
O16_8 O 0.2495(12) 0.6824(5) 0.9842(7)
H67_8 H 0.179268 0.752603 0.952595
H68_8 H 0.180757 0.713042 0.963558
H71_8 H 0.235724 0.669751 0.967791
H72_8 H 0.273474 0.671446 0.987339
C107_8 C 0.8364(5) 0.1869(9) 0.0178(3)
C111_8 C 0.8703(4) 0.1780(10) 0.0045(4)
C112_8 C 0.8820(7) 0.1443(8) 0.0031(4)
H63_8 H 0.867105 0.126636 0.011238
H49_5 H 0.007844 0.943462 0.916713
N19_5 N 0.0252(6) 0.8783(6) 0.9475(5)
H56_5 H 0.040185 0.895731 0.947978
N20_5 N 0.0006(7) 0.8251(5) 0.9549(5)
C98_5 C 0.0315(5) 0.8457(7) 0.9610(5)
C108_5 C 0.0629(4) 0.8375(9) 0.9778(4)
C109_5 C 0.0746(7) 0.8039(8) 0.9792(5)
H61_5 H 0.059700 0.786184 0.971034
C110_5 C 0.1080(8) 0.7961(7) 0.9926(5)
H62_5 H 0.115938 0.773160 0.993519
C113_5 C 0.0846(8) 0.8634(7) 0.9897(5)
H64_5 H 0.076656 0.886389 0.988754
H49_6 H 0.992156 0.056538 0.916713
N19_6 N 0.9748(6) 0.1217(6) 0.9475(5)
H56_6 H 0.959815 0.104269 0.947978
N20_6 N 0.9994(7) 0.1749(5) 0.9549(5)
C98_6 C 0.9685(5) 0.1543(7) 0.9610(5)
C108_6 C 0.9371(4) 0.1625(9) 0.9778(4)
C109_6 C 0.9254(7) 0.1961(8) 0.9792(5)
H61_6 H 0.940300 0.213816 0.971034
C110_6 C 0.8920(8) 0.2039(7) 0.9926(5)
H62_6 H 0.884062 0.226840 0.993519
C113_6 C 0.9154(8) 0.1366(7) 0.9897(5)
H64_6 H 0.923344 0.113611 0.988754
H49_7 H 0.992156 0.943462 0.083287
N19_7 N 0.9748(6) 0.8783(6) 0.0525(5)
H56_7 H 0.959815 0.895731 0.052022
N20_7 N 0.9994(7) 0.8251(5) 0.0451(5)
C98_7 C 0.9685(5) 0.8457(7) 0.0390(5)
C108_7 C 0.9371(4) 0.8375(9) 0.0222(4)
C109_7 C 0.9254(7) 0.8039(8) 0.0208(5)
H61_7 H 0.940300 0.786184 0.028966
C110_7 C 0.8920(8) 0.7961(7) 0.0074(5)
H62_7 H 0.884062 0.773160 0.006481
C113_7 C 0.9154(8) 0.8634(7) 0.0103(5)
H64_7 H 0.923344 0.886389 0.011246
H49_8 H 0.007844 0.056538 0.083287
N19_8 N 0.0252(6) 0.1217(6) 0.0525(5)
H56_8 H 0.040185 0.104269 0.052022
N20_8 N 0.0006(7) 0.1749(5) 0.0451(5)
C98_8 C 0.0315(5) 0.1543(7) 0.0390(5)
C108_8 C 0.0629(4) 0.1625(9) 0.0222(4)
C109_8 C 0.0746(7) 0.1961(8) 0.0208(5)
H61_8 H 0.059700 0.213816 0.028966
C110_8 C 0.1080(8) 0.2039(7) 0.0074(5)
H62_8 H 0.115938 0.226840 0.006481
C113_8 C 0.0846(8) 0.1366(7) 0.0103(5)
H64_8 H 0.076656 0.113611 0.011246
loop_
_geom_bond_atom_site_label_1
_geom_bond_atom_site_label_2
_geom_bond_site_symmetry_1
_geom_bond_site_symmetry_2
Eu1 O5 1_555 1_555
Eu2 O6 1_555 1_555
Ru1 N10 1_555 1_555
Ru2 N1 1_555 1_555
C1 H1 1_555 1_555
C2 C1 1_555 1_555
C3 C2 1_555 1_555
C4 C3 1_555 1_555
N1 C4 1_555 1_555
C5 C1 1_555 1_555
H3 C5 1_555 1_555
C6 C7 1_555 1_555
C7 C8 1_555 1_555
C8 C9 1_555 1_555
C9 H4 1_555 1_555
C10 C9 1_555 1_555
H5 C10 1_555 1_555
C11 C10 1_555 1_555
H6 C11 1_555 1_555
N2 Ru2 1_555 1_555
C12 C8 1_555 1_555
N3 Ru2 1_555 1_555
C13 N3 1_555 1_555
H7 C13 1_555 1_555
C14 C13 1_555 1_555
H8 C14 1_555 1_555
C15 C14 1_555 1_555
H9 C15 1_555 1_555
C16 C6 1_555 1_555
C17 C12 1_555 1_555
O1 C85 1_555 1_555
C18 H10 1_555 1_555
C19 C18 1_555 1_555
C20 C19 1_555 1_555
H11 C20 1_555 1_555
C21 C20 1_555 1_555
H12 C21 1_555 1_555
C22 C21 1_555 1_555
C23 C18 1_555 1_555
H13 C23 1_555 1_555
O2 C107 1_555 1_555
O3 C85 1_555 1_555
O4 C37 1_555 1_555
N4 Ru2 1_555 1_555
C24 H14 1_555 1_555
C25 C24 1_555 1_555
H15 C25 1_555 1_555
C26 N4 1_555 1_555
H16 C26 1_555 1_555
O7 C37 1_555 1_555
C27 N5 1_555 1_555
N5 C7 1_555 1_555
H17 N5 1_555 1_555
N6 C6 1_555 1_555
N7 Ru2 1_555 1_555
C34 N7 1_555 1_555
H22 C34 1_555 1_555
C35 C34 1_555 1_555
H23 C35 1_555 1_555
C36 C35 1_555 1_555
H24 C36 1_555 1_555
C37 C19 1_555 1_555
N8 H25 1_555 1_555
C38 C22 1_555 1_555
N9 C38 1_555 1_555
C39 N9 1_555 1_555
C40 C24 1_555 1_555
C41 N4 1_555 1_555
C42 N7 1_555 1_555
C43 C36 1_555 1_555
C44 N8 1_555 1_555
N10 C45 1_555 1_555
C45 H26 1_555 1_555
C46 C45 1_555 1_555
H27 C46 1_555 1_555
C47 C46 1_555 1_555
H28 C47 1_555 1_555
C48 C47 1_555 1_555
C49 N10 1_555 1_555
O8 Eu1 1_555 1_555
C50 C51 1_555 1_555
C51 H29 1_555 1_555
C52 C51 1_555 1_555
H30 C52 1_555 1_555
C53 C27 1_555 1_555
C54 C53 1_555 1_555
H31 C54 1_555 1_555
C55 C50 1_555 1_555
H32 C55 1_555 1_555
O9 C107 1_555 1_555
O10 Eu1 1_555 1_555
O11 Eu1 1_555 1_555
C56 H33 1_555 1_555
C57 C56 1_555 1_555
H34 C57 1_555 1_555
C58 C57 1_555 1_555
H35 C58 1_555 1_555
N11 Ru2 1_555 1_555
C59 C4 1_555 1_555
C60 C56 1_555 1_555
O12 Eu1 1_555 1_555
C61 H36 1_555 1_555
C62 C61 1_555 1_555
C63 C62 1_555 1_555
H37 C63 1_555 1_555
C64 C63 1_555 1_555
H38 C64 1_555 1_555
C65 C64 1_555 1_555
C66 C61 1_555 1_555
H39 C66 1_555 1_555
C67 C68 1_555 1_555
C68 C69 1_555 1_555
C69 H40 1_555 1_555
C70 C69 1_555 1_555
H41 C70 1_555 1_555
C71 C70 1_555 1_555
H42 C71 1_555 1_555
N12 Ru1 1_555 1_555
C72 C67 1_555 1_555
N13 Ru1 1_555 1_555
C73 N13 1_555 1_555
H43 C73 1_555 1_555
C74 C73 1_555 1_555
H44 C74 1_555 1_555
C75 C74 1_555 1_555
H45 C75 1_555 1_555
C76 C72 1_555 1_555
C77 C68 1_555 1_555
C78 C76 1_555 1_555
N14 C78 1_555 1_555
H46 N14 1_555 1_555
C79 N14 1_555 1_555
N15 C77 1_555 1_555
C80 H47 1_555 1_555
C81 C80 1_555 1_555
H48 C81 1_555 1_555
N16 Ru1 1_555 1_555
C82 C49 1_555 1_555
C83 C82 1_555 1_555
C84 C80 1_555 1_555
H49 C84 1_555 1_555
C85 C99 1_555 1_555
N17 Ru1 1_555 1_555
C86 N17 1_555 1_555
H50 C86 1_555 1_555
C87 C86 1_555 1_555
H51 C87 1_555 1_555
C88 C87 1_555 1_555
H52 C88 1_555 1_555
C89 C88 1_555 1_555
C90 N17 1_555 1_555
C91 H53 1_555 1_555
N18 Ru1 1_555 1_555
C92 C90 1_555 1_555
C93 C92 1_555 1_555
C94 C93 1_555 1_555
H54 C94 1_555 1_555
C95 C91 1_555 1_555
H55 C95 1_555 1_555
N19 H56 1_555 1_555
C96 C83 1_555 1_555
C97 C48 1_555 1_555
N20 C97 1_555 1_555
C98 N19 1_555 1_555
C99 C100 1_555 1_555
C100 H57 1_555 1_555
C101 C100 1_555 1_555
H58 C101 1_555 1_555
C102 C79 1_555 1_555
C103 C102 1_555 1_555
H59 C103 1_555 1_555
C104 C99 1_555 1_555
H60 C104 1_555 1_555
C106 C50 1_555 1_555
O13 Eu2 1_555 1_555
C107 C111 1_555 1_555
C108 C98 1_555 1_555
C109 C108 1_555 1_555
H61 C109 1_555 1_555
C110 C109 1_555 1_555
H62 C110 1_555 1_555
C111 C110 1_555 1_555
C112 C111 1_555 1_555
H63 C112 1_555 1_555
C113 C108 1_555 1_555
H64 C113 1_555 1_555
N21 C114 1_555 1_555
C114 C60 1_555 1_555
C115 C3 1_555 1_555
C117 O8 1_555 1_555
N23 H66 1_555 1_555
C118 C65 1_555 1_555
N24 C118 1_555 1_555
C119 C93 1_555 1_555
C120 C89 1_555 1_555
O16 Eu2 1_555 1_555
Eu3 O2 1_555 1_555
Eu4 O4 1_555 1_555
Eu6 O1 1_555 1_555
O17 Eu2 1_555 1_555
O18 Eu1 1_555 1_555
O19 Eu2 1_555 1_555
O20 Eu1 1_555 1_555
O21 Eu1 1_555 1_555
O22 Eu1 1_555 1_555
O23 Eu2 1_555 1_555
O24 Eu2 1_555 1_555
Eu2 O8 1_555 1_555
Eu2 O12 1_555 1_555
N1 C5 1_555 1_555
C11 N2 1_555 1_555
N2 C12 1_555 1_555
N3 C17 1_555 1_555
C15 C16 1_555 1_555
C16 C17 1_555 1_555
C22 C23 1_555 1_555
O3 Eu6 1_555 1_555
C25 C26 1_555 1_555
O7 Eu4 1_555 1_555
C27 N6 1_555 1_555
N8 C38 1_555 1_555
C39 C40 1_555 1_555
C39 C44 1_555 1_555
C40 C41 1_555 1_555
C41 C42 1_555 1_555
C42 C43 1_555 1_555
C43 C44 1_555 1_555
C48 C49 1_555 1_555
C52 C53 1_555 1_555
C54 C55 1_555 1_555
O9 Eu3 1_555 1_555
O10 C106 1_555 1_555
O11 C106 1_555 1_555
C58 N11 1_555 1_555
N11 C59 1_555 1_555
C59 C60 1_555 1_555
C62 C117 1_555 1_555
C65 C66 1_555 1_555
C67 N12 1_555 1_555
C71 N12 1_555 1_555
C72 N13 1_555 1_555
C75 C76 1_555 1_555
C77 C78 1_555 1_555
C79 N15 1_555 1_555
C81 N16 1_555 1_555
N16 C82 1_555 1_555
C83 C84 1_555 1_555
C89 C90 1_555 1_555
C91 N18 1_555 1_555
N18 C92 1_555 1_555
C94 C95 1_555 1_555
N19 C96 1_555 1_555
C96 C97 1_555 1_555
N20 C98 1_555 1_555
C101 C102 1_555 1_555
C103 C104 1_555 1_555
O13 C117 1_555 1_555
C112 C113 1_555 1_555
C114 C115 1_555 1_555
N23 C118 1_555 1_555
N23 C120 1_555 1_555
N24 C119 1_555 1_555
C119 C120 1_555 1_555
O6 H67 1_555 1_555
O6 H68 1_555 1_555
O5 H69 1_555 1_555
O5 H70 1_555 1_555
O16 H71 1_555 1_555
O16 H72 1_555 1_555
C28 C29 1_555 1_555
C29 H18 1_555 1_555
C30 C29 1_555 1_555
H19 C30 1_555 1_555
C31 C30 1_555 1_555
C32 C31 1_555 1_555
H20 C32 1_555 1_555
C33 C28 1_555 1_555
H21 C33 1_555 1_555
C105 C31 1_555 1_555
O14 C105 1_555 1_555
H65 N22 1_555 1_555
C116 C28 1_555 1_555
O15 C105 1_555 1_555
Eu5 O14 1_555 1_555
C32 C33 1_555 1_555
N22 C116 1_555 1_555
O15 Eu5 1_555 1_555
C28_2 C29_2 1_555 1_555
C29_2 H18_2 1_555 1_555
C30_2 C29_2 1_555 1_555
H19_2 C30_2 1_555 1_555
C31_2 C30_2 1_555 1_555
C32_2 C31_2 1_555 1_555
H20_2 C32_2 1_555 1_555
C33_2 C28_2 1_555 1_555
H21_2 C33_2 1_555 1_555
C105_2 C31_2 1_555 1_555
O23 C105_2 1_555 1_555
H65_2 N22_2 1_555 1_555
C116_2 C28_2 1_555 1_555
O24 C105_2 1_555 1_555
C32_2 C33_2 1_555 1_555
N22_2 C116_2 1_555 1_555
Eu3 O5_2 1_555 1_555
Eu5 O6_2 1_555 1_555
Ru1_2 N10_2 1_555 1_555
Ru2_2 N1_2 1_555 1_555
C1_2 H1_2 1_555 1_555
C2_2 C1_2 1_555 1_555
C3_2 C2_2 1_555 1_555
C4_2 C3_2 1_555 1_555
N1_2 C4_2 1_555 1_555
C5_2 C1_2 1_555 1_555
H3_2 C5_2 1_555 1_555
C6_2 C7_2 1_555 1_555
C7_2 C8_2 1_555 1_555
C8_2 C9_2 1_555 1_555
C9_2 H4_2 1_555 1_555
C10_2 C9_2 1_555 1_555
H5_2 C10_2 1_555 1_555
C11_2 C10_2 1_555 1_555
H6_2 C11_2 1_555 1_555
N2_2 Ru2_2 1_555 1_555
C12_2 C8_2 1_555 1_555
N3_2 Ru2_2 1_555 1_555
C13_2 N3_2 1_555 1_555
H7_2 C13_2 1_555 1_555
C14_2 C13_2 1_555 1_555
H8_2 C14_2 1_555 1_555
C15_2 C14_2 1_555 1_555
H9_2 C15_2 1_555 1_555
C16_2 C6_2 1_555 1_555
C17_2 C12_2 1_555 1_555
O1_2 C85_2 1_555 1_555
C18_2 H10_2 1_555 1_555
C19_2 C18_2 1_555 1_555
C20_2 C19_2 1_555 1_555
H11_2 C20_2 1_555 1_555
C21_2 C20_2 1_555 1_555
H12_2 C21_2 1_555 1_555
C22_2 C21_2 1_555 1_555
C23_2 C18_2 1_555 1_555
H13_2 C23_2 1_555 1_555
O18 C107_2 1_555 1_555
O3_2 C85_2 1_555 1_555
O4_2 C37_2 1_555 1_555
N4_2 Ru2_2 1_555 1_555
C24_2 H14_2 1_555 1_555
C25_2 C24_2 1_555 1_555
H15_2 C25_2 1_555 1_555
C26_2 N4_2 1_555 1_555
H16_2 C26_2 1_555 1_555
O7_2 C37_2 1_555 1_555
C27_2 N5_2 1_555 1_555
N5_2 C7_2 1_555 1_555
H17_2 N5_2 1_555 1_555
N6_2 C6_2 1_555 1_555
N7_2 Ru2_2 1_555 1_555
C34_2 N7_2 1_555 1_555
H22_2 C34_2 1_555 1_555
C35_2 C34_2 1_555 1_555
H23_2 C35_2 1_555 1_555
C36_2 C35_2 1_555 1_555
H24_2 C36_2 1_555 1_555
C37_2 C19_2 1_555 1_555
N8_2 H25_2 1_555 1_555
C38_2 C22_2 1_555 1_555
N9_2 C38_2 1_555 1_555
C39_2 N9_2 1_555 1_555
C40_2 C24_2 1_555 1_555
C41_2 N4_2 1_555 1_555
C42_2 N7_2 1_555 1_555
C43_2 C36_2 1_555 1_555
C44_2 N8_2 1_555 1_555
N10_2 C45_2 1_555 1_555
C45_2 H26_2 1_555 1_555
C46_2 C45_2 1_555 1_555
H27_2 C46_2 1_555 1_555
C47_2 C46_2 1_555 1_555
H28_2 C47_2 1_555 1_555
C48_2 C47_2 1_555 1_555
C49_2 N10_2 1_555 1_555
O8_2 Eu3 1_555 1_555
C50_2 C51_2 1_555 1_555
C51_2 H29_2 1_555 1_555
C52_2 C51_2 1_555 1_555
H30_2 C52_2 1_555 1_555
C53_2 C27_2 1_555 1_555
C54_2 C53_2 1_555 1_555
H31_2 C54_2 1_555 1_555
C55_2 C50_2 1_555 1_555
H32_2 C55_2 1_555 1_555
O22 C107_2 1_555 1_555
O10_2 Eu3 1_555 1_555
O11_2 Eu3 1_555 1_555
C56_2 H33_2 1_555 1_555
C57_2 C56_2 1_555 1_555
H34_2 C57_2 1_555 1_555
C58_2 C57_2 1_555 1_555
H35_2 C58_2 1_555 1_555
N11_2 Ru2_2 1_555 1_555
C59_2 C4_2 1_555 1_555
C60_2 C56_2 1_555 1_555
O12_2 Eu3 1_555 1_555
C61_2 H36_2 1_555 1_555
C62_2 C61_2 1_555 1_555
C63_2 C62_2 1_555 1_555
H37_2 C63_2 1_555 1_555
C64_2 C63_2 1_555 1_555
H38_2 C64_2 1_555 1_555
C65_2 C64_2 1_555 1_555
C66_2 C61_2 1_555 1_555
H39_2 C66_2 1_555 1_555
C67_2 C68_2 1_555 1_555
C68_2 C69_2 1_555 1_555
C69_2 H40_2 1_555 1_555
C70_2 C69_2 1_555 1_555
H41_2 C70_2 1_555 1_555
C71_2 C70_2 1_555 1_555
H42_2 C71_2 1_555 1_555
N12_2 Ru1_2 1_555 1_555
C72_2 C67_2 1_555 1_555
N13_2 Ru1_2 1_555 1_555
C73_2 N13_2 1_555 1_555
H43_2 C73_2 1_555 1_555
C74_2 C73_2 1_555 1_555
H44_2 C74_2 1_555 1_555
C75_2 C74_2 1_555 1_555
H45_2 C75_2 1_555 1_555
C76_2 C72_2 1_555 1_555
C77_2 C68_2 1_555 1_555
C78_2 C76_2 1_555 1_555
N14_2 C78_2 1_555 1_555
H46_2 N14_2 1_555 1_555
C79_2 N14_2 1_555 1_555
N15_2 C77_2 1_555 1_555
C80_2 H47_2 1_555 1_555
C81_2 C80_2 1_555 1_555
H48_2 C81_2 1_555 1_555
N16_2 Ru1_2 1_555 1_555
C82_2 C49_2 1_555 1_555
C83_2 C82_2 1_555 1_555
C84_2 C80_2 1_555 1_555
H49_2 C84_2 1_555 1_555
C85_2 C99_2 1_555 1_555
N17_2 Ru1_2 1_555 1_555
C86_2 N17_2 1_555 1_555
H50_2 C86_2 1_555 1_555
C87_2 C86_2 1_555 1_555
H51_2 C87_2 1_555 1_555
C88_2 C87_2 1_555 1_555
H52_2 C88_2 1_555 1_555
C89_2 C88_2 1_555 1_555
C90_2 N17_2 1_555 1_555
C91_2 H53_2 1_555 1_555
N18_2 Ru1_2 1_555 1_555
C92_2 C90_2 1_555 1_555
C93_2 C92_2 1_555 1_555
C94_2 C93_2 1_555 1_555
H54_2 C94_2 1_555 1_555
C95_2 C91_2 1_555 1_555
H55_2 C95_2 1_555 1_555
N19_2 H56_2 1_555 1_555
C96_2 C83_2 1_555 1_555
C97_2 C48_2 1_555 1_555
N20_2 C97_2 1_555 1_555
C98_2 N19_2 1_555 1_555
C99_2 C100_2 1_555 1_555
C100_2 H57_2 1_555 1_555
C101_2 C100_2 1_555 1_555
H58_2 C101_2 1_555 1_555
C102_2 C79_2 1_555 1_555
C103_2 C102_2 1_555 1_555
H59_2 C103_2 1_555 1_555
C104_2 C99_2 1_555 1_555
H60_2 C104_2 1_555 1_555
C106_2 C50_2 1_555 1_555
O13_2 Eu5 1_555 1_555
C107_2 C111_2 1_555 1_555
C108_2 C98_2 1_555 1_555
C109_2 C108_2 1_555 1_555
H61_2 C109_2 1_555 1_555
C110_2 C109_2 1_555 1_555
H62_2 C110_2 1_555 1_555
C111_2 C110_2 1_555 1_555
C112_2 C111_2 1_555 1_555
H63_2 C112_2 1_555 1_555
C113_2 C108_2 1_555 1_555
H64_2 C113_2 1_555 1_555
N21_2 C114_2 1_555 1_555
C114_2 C60_2 1_555 1_555
C115_2 C3_2 1_555 1_555
C117_2 O8_2 1_555 1_555
N23_2 H66_2 1_555 1_555
C118_2 C65_2 1_555 1_555
N24_2 C118_2 1_555 1_555
C119_2 C93_2 1_555 1_555
C120_2 C89_2 1_555 1_555
O16_2 Eu5 1_555 1_555
Eu4_2 O4_2 1_555 1_555
Eu6_2 O1_2 1_555 1_555
O17_2 Eu5 1_555 1_555
O19_2 Eu5 1_555 1_555
O20_2 Eu3 1_555 1_555
O21_2 Eu3 1_555 1_555
Eu5 O8_2 1_555 1_555
Eu5 O12_2 1_555 1_555
N1_2 C5_2 1_555 1_555
C11_2 N2_2 1_555 1_555
N2_2 C12_2 1_555 1_555
N3_2 C17_2 1_555 1_555
C15_2 C16_2 1_555 1_555
C16_2 C17_2 1_555 1_555
C22_2 C23_2 1_555 1_555
O3_2 Eu6_2 1_555 1_555
C25_2 C26_2 1_555 1_555
O7_2 Eu4_2 1_555 1_555
C27_2 N6_2 1_555 1_555
N8_2 C38_2 1_555 1_555
C39_2 C40_2 1_555 1_555
C39_2 C44_2 1_555 1_555
C40_2 C41_2 1_555 1_555
C41_2 C42_2 1_555 1_555
C42_2 C43_2 1_555 1_555
C43_2 C44_2 1_555 1_555
C48_2 C49_2 1_555 1_555
C52_2 C53_2 1_555 1_555
C54_2 C55_2 1_555 1_555
O10_2 C106_2 1_555 1_555
O11_2 C106_2 1_555 1_555
C58_2 N11_2 1_555 1_555
N11_2 C59_2 1_555 1_555
C59_2 C60_2 1_555 1_555
C62_2 C117_2 1_555 1_555
C65_2 C66_2 1_555 1_555
C67_2 N12_2 1_555 1_555
C71_2 N12_2 1_555 1_555
C72_2 N13_2 1_555 1_555
C75_2 C76_2 1_555 1_555
C77_2 C78_2 1_555 1_555
C79_2 N15_2 1_555 1_555
C81_2 N16_2 1_555 1_555
N16_2 C82_2 1_555 1_555
C83_2 C84_2 1_555 1_555
C89_2 C90_2 1_555 1_555
C91_2 N18_2 1_555 1_555
N18_2 C92_2 1_555 1_555
C94_2 C95_2 1_555 1_555
N19_2 C96_2 1_555 1_555
C96_2 C97_2 1_555 1_555
N20_2 C98_2 1_555 1_555
C101_2 C102_2 1_555 1_555
C103_2 C104_2 1_555 1_555
O13_2 C117_2 1_555 1_555
C112_2 C113_2 1_555 1_555
C114_2 C115_2 1_555 1_555
N23_2 C118_2 1_555 1_555
N23_2 C120_2 1_555 1_555
N24_2 C119_2 1_555 1_555
C119_2 C120_2 1_555 1_555
O6_2 H67_2 1_555 1_555
O6_2 H68_2 1_555 1_555
O5_2 H69_2 1_555 1_555
O5_2 H70_2 1_555 1_555
O16_2 H71_2 1_555 1_555
O16_2 H72_2 1_555 1_555
Eu6 O6_3 1_555 1_555
C61_3 H36_3 1_555 1_555
C62_3 C61_3 1_555 1_555
C63_3 C62_3 1_555 1_555
H37_3 C63_3 1_555 1_555
C64_3 C63_3 1_555 1_555
H38_3 C64_3 1_555 1_555
C65_3 C64_3 1_555 1_555
C66_3 C61_3 1_555 1_555
H39_3 C66_3 1_555 1_555
H52_3 C88_3 1_555 1_555
O13_3 Eu6 1_555 1_555
C117_3 O8_3 1_555 1_555
N23_3 H66_3 1_555 1_555
C118_3 C65_3 1_555 1_555
N24_3 C118_3 1_555 1_555
O16_3 Eu6 1_555 1_555
O23_2 Eu6 1_555 1_555
O24_2 Eu6 1_555 1_555
Eu6 O8_3 1_555 1_555
C62_3 C117_3 1_555 1_555
C65_3 C66_3 1_555 1_555
O13_3 C117_3 1_555 1_555
N23_3 C118_3 1_555 1_555
N23_3 C120_3 1_555 1_555
N24_3 C119_3 1_555 1_555
C119_3 C120_3 1_555 1_555
O6_3 H67_3 1_555 1_555
O6_3 H68_3 1_555 1_555
O16_3 H71_3 1_555 1_555
O16_3 H72_3 1_555 1_555
Eu4 O5_3 1_555 1_555
C50_3 C51_3 1_555 1_555
C51_3 H29_3 1_555 1_555
C52_3 C51_3 1_555 1_555
H30_3 C52_3 1_555 1_555
C54_3 C53_3 1_555 1_555
H31_3 C54_3 1_555 1_555
C55_3 C50_3 1_555 1_555
H32_3 C55_3 1_555 1_555
O10_3 Eu4 1_555 1_555
O11_3 Eu4 1_555 1_555
O12_3 Eu4 1_555 1_555
C106_3 C50_3 1_555 1_555
O18_2 Eu4 1_555 1_555
O22_2 Eu4 1_555 1_555
C52_3 C53_3 1_555 1_555
C54_3 C55_3 1_555 1_555
O10_3 C106_3 1_555 1_555
O11_3 C106_3 1_555 1_555
O5_3 H69_3 1_555 1_555
O5_3 H70_3 1_555 1_555
Ru1_3 N10_3 1_555 1_555
O17 C85_3 1_555 1_555
O19 C85_3 1_555 1_555
H19_3 C30_3 1_555 1_555
N10_3 C45_3 1_555 1_555
C45_3 H26_3 1_555 1_555
C46_3 C45_3 1_555 1_555
H27_3 C46_3 1_555 1_555
C47_3 C46_3 1_555 1_555
H28_3 C47_3 1_555 1_555
C48_3 C47_3 1_555 1_555
C49_3 N10_3 1_555 1_555
C67_3 C68_3 1_555 1_555
C68_3 C69_3 1_555 1_555
C69_3 H40_3 1_555 1_555
C70_3 C69_3 1_555 1_555
H41_3 C70_3 1_555 1_555
C71_3 C70_3 1_555 1_555
H42_3 C71_3 1_555 1_555
N12_3 Ru1_3 1_555 1_555
C72_3 C67_3 1_555 1_555
N13_3 Ru1_3 1_555 1_555
C73_3 N13_3 1_555 1_555
H43_3 C73_3 1_555 1_555
C74_3 C73_3 1_555 1_555
H44_3 C74_3 1_555 1_555
C75_3 C74_3 1_555 1_555
H45_3 C75_3 1_555 1_555
C76_3 C72_3 1_555 1_555
C77_3 C68_3 1_555 1_555
C78_3 C76_3 1_555 1_555
N14_3 C78_3 1_555 1_555
H46_3 N14_3 1_555 1_555
C79_3 N14_3 1_555 1_555
N15_3 C77_3 1_555 1_555
C80_3 H47_3 1_555 1_555
C81_3 C80_3 1_555 1_555
H48_3 C81_3 1_555 1_555
N16_3 Ru1_3 1_555 1_555
C82_3 C49_3 1_555 1_555
C83_3 C82_3 1_555 1_555
C84_3 C80_3 1_555 1_555
C85_3 C99_3 1_555 1_555
N17_3 Ru1_3 1_555 1_555
C86_3 N17_3 1_555 1_555
H50_3 C86_3 1_555 1_555
C87_3 C86_3 1_555 1_555
H51_3 C87_3 1_555 1_555
C90_3 N17_3 1_555 1_555
C91_3 H53_3 1_555 1_555
N18_3 Ru1_3 1_555 1_555
C92_3 C90_3 1_555 1_555
C93_3 C92_3 1_555 1_555
C94_3 C93_3 1_555 1_555
H54_3 C94_3 1_555 1_555
C95_3 C91_3 1_555 1_555
H55_3 C95_3 1_555 1_555
C96_3 C83_3 1_555 1_555
C97_3 C48_3 1_555 1_555
C99_3 C100_3 1_555 1_555
C100_3 H57_3 1_555 1_555
C101_3 C100_3 1_555 1_555
H58_3 C101_3 1_555 1_555
C102_3 C79_3 1_555 1_555
C103_3 C102_3 1_555 1_555
H59_3 C103_3 1_555 1_555
C104_3 C99_3 1_555 1_555
H60_3 C104_3 1_555 1_555
O14_2 C105_3 1_555 1_555
O15_2 C105_3 1_555 1_555
Eu6_2 O14_2 1_555 1_555
C48_3 C49_3 1_555 1_555
C67_3 N12_3 1_555 1_555
C71_3 N12_3 1_555 1_555
C72_3 N13_3 1_555 1_555
C75_3 C76_3 1_555 1_555
C77_3 C78_3 1_555 1_555
C79_3 N15_3 1_555 1_555
C81_3 N16_3 1_555 1_555
N16_3 C82_3 1_555 1_555
C83_3 C84_3 1_555 1_555
C89_3 C90_3 1_555 1_555
C91_3 N18_3 1_555 1_555
N18_3 C92_3 1_555 1_555
C94_3 C95_3 1_555 1_555
C96_3 C97_3 1_555 1_555
C101_3 C102_3 1_555 1_555
C103_3 C104_3 1_555 1_555
O15_2 Eu6_2 1_555 1_555
Ru2_3 N1_3 1_555 1_555
C1_3 H1_3 1_555 1_555
C2_3 C1_3 1_555 1_555
H2_3 C2_3 1_555 1_555
C3_3 C2_3 1_555 1_555
C4_3 C3_3 1_555 1_555
N1_3 C4_3 1_555 1_555
C5_3 C1_3 1_555 1_555
H3_3 C5_3 1_555 1_555
C6_3 C7_3 1_555 1_555
C7_3 C8_3 1_555 1_555
C8_3 C9_3 1_555 1_555
C9_3 H4_3 1_555 1_555
C10_3 C9_3 1_555 1_555
H5_3 C10_3 1_555 1_555
C11_3 C10_3 1_555 1_555
H6_3 C11_3 1_555 1_555
N2_3 Ru2_3 1_555 1_555
C12_3 C8_3 1_555 1_555
N3_3 Ru2_3 1_555 1_555
C13_3 N3_3 1_555 1_555
H7_3 C13_3 1_555 1_555
C14_3 C13_3 1_555 1_555
H8_3 C14_3 1_555 1_555
C15_3 C14_3 1_555 1_555
H9_3 C15_3 1_555 1_555
C16_3 C6_3 1_555 1_555
C17_3 C12_3 1_555 1_555
C18_3 H10_3 1_555 1_555
C19_3 C18_3 1_555 1_555
C20_3 C19_3 1_555 1_555
H11_3 C20_3 1_555 1_555
C21_3 C20_3 1_555 1_555
H12_3 C21_3 1_555 1_555
C22_3 C21_3 1_555 1_555
C23_3 C18_3 1_555 1_555
H13_3 C23_3 1_555 1_555
O20 C37_3 1_555 1_555
N4_3 Ru2_3 1_555 1_555
C24_3 H14_3 1_555 1_555
C25_3 C24_3 1_555 1_555
H15_3 C25_3 1_555 1_555
C26_3 N4_3 1_555 1_555
H16_3 C26_3 1_555 1_555
O21 C37_3 1_555 1_555
C27_3 N5_3 1_555 1_555
N5_3 C7_3 1_555 1_555
H17_3 N5_3 1_555 1_555
N6_3 C6_3 1_555 1_555
C28_3 C29_3 1_555 1_555
C29_3 H18_3 1_555 1_555
C32_3 C31_3 1_555 1_555
H20_3 C32_3 1_555 1_555
C33_3 C28_3 1_555 1_555
H21_3 C33_3 1_555 1_555
N7_3 Ru2_3 1_555 1_555
C34_3 N7_3 1_555 1_555
H22_3 C34_3 1_555 1_555
C35_3 C34_3 1_555 1_555
H23_3 C35_3 1_555 1_555
C36_3 C35_3 1_555 1_555
H24_3 C36_3 1_555 1_555
C37_3 C19_3 1_555 1_555
N8_3 H25_3 1_555 1_555
C38_3 C22_3 1_555 1_555
N9_3 C38_3 1_555 1_555
C39_3 N9_3 1_555 1_555
C40_3 C24_3 1_555 1_555
C41_3 N4_3 1_555 1_555
C42_3 N7_3 1_555 1_555
C43_3 C36_3 1_555 1_555
C44_3 N8_3 1_555 1_555
C56_3 H33_3 1_555 1_555
C57_3 C56_3 1_555 1_555
H34_3 C57_3 1_555 1_555
C58_3 C57_3 1_555 1_555
H35_3 C58_3 1_555 1_555
N11_3 Ru2_3 1_555 1_555
C59_3 C4_3 1_555 1_555
C60_3 C56_3 1_555 1_555
N21_3 C114_3 1_555 1_555
C114_3 C60_3 1_555 1_555
C115_3 C3_3 1_555 1_555
N22_3 C115_3 1_555 1_555
H65_3 N22_3 1_555 1_555
C116_3 C28_3 1_555 1_555
N1_3 C5_3 1_555 1_555
C11_3 N2_3 1_555 1_555
N2_3 C12_3 1_555 1_555
N3_3 C17_3 1_555 1_555
C15_3 C16_3 1_555 1_555
C16_3 C17_3 1_555 1_555
C22_3 C23_3 1_555 1_555
C25_3 C26_3 1_555 1_555
C27_3 N6_3 1_555 1_555
C32_3 C33_3 1_555 1_555
N8_3 C38_3 1_555 1_555
C39_3 C40_3 1_555 1_555
C39_3 C44_3 1_555 1_555
C40_3 C41_3 1_555 1_555
C41_3 C42_3 1_555 1_555
C42_3 C43_3 1_555 1_555
C43_3 C44_3 1_555 1_555
C58_3 N11_3 1_555 1_555
N11_3 C59_3 1_555 1_555
C59_3 C60_3 1_555 1_555
N21_3 C116_3 1_555 1_555
C114_3 C115_3 1_555 1_555
N22_3 C116_3 1_555 1_555
O2_2 C107_3 1_555 1_555
O9_2 C107_3 1_555 1_555
C107_3 C111_3 1_555 1_555
C112_3 C111_3 1_555 1_555
H63_3 C112_3 1_555 1_555
Eu4_2 O2_2 1_555 1_555
O9_2 Eu4_2 1_555 1_555
O18_2 C107_4 1_555 1_555
O22_2 C107_4 1_555 1_555
C107_4 C111_4 1_555 1_555
C112_4 C111_4 1_555 1_555
H63_4 C112_4 1_555 1_555
Ru1_4 N10_4 1_555 1_555
O17_2 C85_4 1_555 1_555
O19_2 C85_4 1_555 1_555
H19_4 C30_4 1_555 1_555
N10_4 C45_4 1_555 1_555
C45_4 H26_4 1_555 1_555
C46_4 C45_4 1_555 1_555
H27_4 C46_4 1_555 1_555
C47_4 C46_4 1_555 1_555
H28_4 C47_4 1_555 1_555
C48_4 C47_4 1_555 1_555
C49_4 N10_4 1_555 1_555
C67_4 C68_4 1_555 1_555
C68_4 C69_4 1_555 1_555
C69_4 H40_4 1_555 1_555
C70_4 C69_4 1_555 1_555
H41_4 C70_4 1_555 1_555
C71_4 C70_4 1_555 1_555
H42_4 C71_4 1_555 1_555
N12_4 Ru1_4 1_555 1_555
C72_4 C67_4 1_555 1_555
N13_4 Ru1_4 1_555 1_555
C73_4 N13_4 1_555 1_555
H43_4 C73_4 1_555 1_555
C74_4 C73_4 1_555 1_555
H44_4 C74_4 1_555 1_555
C75_4 C74_4 1_555 1_555
H45_4 C75_4 1_555 1_555
C76_4 C72_4 1_555 1_555
C77_4 C68_4 1_555 1_555
C78_4 C76_4 1_555 1_555
N14_4 C78_4 1_555 1_555
H46_4 N14_4 1_555 1_555
C79_4 N14_4 1_555 1_555
N15_4 C77_4 1_555 1_555
C80_4 H47_4 1_555 1_555
C81_4 C80_4 1_555 1_555
H48_4 C81_4 1_555 1_555
N16_4 Ru1_4 1_555 1_555
C82_4 C49_4 1_555 1_555
C83_4 C82_4 1_555 1_555
C84_4 C80_4 1_555 1_555
C85_4 C99_4 1_555 1_555
N17_4 Ru1_4 1_555 1_555
C86_4 N17_4 1_555 1_555
H50_4 C86_4 1_555 1_555
C87_4 C86_4 1_555 1_555
H51_4 C87_4 1_555 1_555
C90_4 N17_4 1_555 1_555
C91_4 H53_4 1_555 1_555
N18_4 Ru1_4 1_555 1_555
C92_4 C90_4 1_555 1_555
C93_4 C92_4 1_555 1_555
C94_4 C93_4 1_555 1_555
H54_4 C94_4 1_555 1_555
C95_4 C91_4 1_555 1_555
H55_4 C95_4 1_555 1_555
C96_4 C83_4 1_555 1_555
C97_4 C48_4 1_555 1_555
C99_4 C100_4 1_555 1_555
C100_4 H57_4 1_555 1_555
C101_4 C100_4 1_555 1_555
H58_4 C101_4 1_555 1_555
C102_4 C79_4 1_555 1_555
C103_4 C102_4 1_555 1_555
H59_4 C103_4 1_555 1_555
C104_4 C99_4 1_555 1_555
H60_4 C104_4 1_555 1_555
O23_2 C105_4 1_555 1_555
O24_2 C105_4 1_555 1_555
C48_4 C49_4 1_555 1_555
C67_4 N12_4 1_555 1_555
C71_4 N12_4 1_555 1_555
C72_4 N13_4 1_555 1_555
C75_4 C76_4 1_555 1_555
C77_4 C78_4 1_555 1_555
C79_4 N15_4 1_555 1_555
C81_4 N16_4 1_555 1_555
N16_4 C82_4 1_555 1_555
C83_4 C84_4 1_555 1_555
C89_4 C90_4 1_555 1_555
C91_4 N18_4 1_555 1_555
N18_4 C92_4 1_555 1_555
C94_4 C95_4 1_555 1_555
C96_4 C97_4 1_555 1_555
C101_4 C102_4 1_555 1_555
C103_4 C104_4 1_555 1_555
Ru2_4 N1_4 1_555 1_555
C1_4 H1_4 1_555 1_555
C2_4 C1_4 1_555 1_555
H2_4 C2_4 1_555 1_555
C3_4 C2_4 1_555 1_555
C4_4 C3_4 1_555 1_555
N1_4 C4_4 1_555 1_555
C5_4 C1_4 1_555 1_555
H3_4 C5_4 1_555 1_555
C6_4 C7_4 1_555 1_555
C7_4 C8_4 1_555 1_555
C8_4 C9_4 1_555 1_555
C9_4 H4_4 1_555 1_555
C10_4 C9_4 1_555 1_555
H5_4 C10_4 1_555 1_555
C11_4 C10_4 1_555 1_555
H6_4 C11_4 1_555 1_555
N2_4 Ru2_4 1_555 1_555
C12_4 C8_4 1_555 1_555
N3_4 Ru2_4 1_555 1_555
C13_4 N3_4 1_555 1_555
H7_4 C13_4 1_555 1_555
C14_4 C13_4 1_555 1_555
H8_4 C14_4 1_555 1_555
C15_4 C14_4 1_555 1_555
H9_4 C15_4 1_555 1_555
C16_4 C6_4 1_555 1_555
C17_4 C12_4 1_555 1_555
C18_4 H10_4 1_555 1_555
C19_4 C18_4 1_555 1_555
C20_4 C19_4 1_555 1_555
H11_4 C20_4 1_555 1_555
C21_4 C20_4 1_555 1_555
H12_4 C21_4 1_555 1_555
C22_4 C21_4 1_555 1_555
C23_4 C18_4 1_555 1_555
H13_4 C23_4 1_555 1_555
O20_2 C37_4 1_555 1_555
N4_4 Ru2_4 1_555 1_555
C24_4 H14_4 1_555 1_555
C25_4 C24_4 1_555 1_555
H15_4 C25_4 1_555 1_555
C26_4 N4_4 1_555 1_555
H16_4 C26_4 1_555 1_555
O21_2 C37_4 1_555 1_555
C27_4 N5_4 1_555 1_555
N5_4 C7_4 1_555 1_555
H17_4 N5_4 1_555 1_555
N6_4 C6_4 1_555 1_555
C28_4 C29_4 1_555 1_555
C29_4 H18_4 1_555 1_555
C32_4 C31_4 1_555 1_555
H20_4 C32_4 1_555 1_555
C33_4 C28_4 1_555 1_555
H21_4 C33_4 1_555 1_555
N7_4 Ru2_4 1_555 1_555
C34_4 N7_4 1_555 1_555
H22_4 C34_4 1_555 1_555
C35_4 C34_4 1_555 1_555
H23_4 C35_4 1_555 1_555
C36_4 C35_4 1_555 1_555
H24_4 C36_4 1_555 1_555
C37_4 C19_4 1_555 1_555
N8_4 H25_4 1_555 1_555
C38_4 C22_4 1_555 1_555
N9_4 C38_4 1_555 1_555
C39_4 N9_4 1_555 1_555
C40_4 C24_4 1_555 1_555
C41_4 N4_4 1_555 1_555
C42_4 N7_4 1_555 1_555
C43_4 C36_4 1_555 1_555
C44_4 N8_4 1_555 1_555
C56_4 H33_4 1_555 1_555
C57_4 C56_4 1_555 1_555
H34_4 C57_4 1_555 1_555
C58_4 C57_4 1_555 1_555
H35_4 C58_4 1_555 1_555
N11_4 Ru2_4 1_555 1_555
C59_4 C4_4 1_555 1_555
C60_4 C56_4 1_555 1_555
N21_4 C114_4 1_555 1_555
C114_4 C60_4 1_555 1_555
C115_4 C3_4 1_555 1_555
N22_4 C115_4 1_555 1_555
H65_4 N22_4 1_555 1_555
C116_4 C28_4 1_555 1_555
N1_4 C5_4 1_555 1_555
C11_4 N2_4 1_555 1_555
N2_4 C12_4 1_555 1_555
N3_4 C17_4 1_555 1_555
C15_4 C16_4 1_555 1_555
C16_4 C17_4 1_555 1_555
C22_4 C23_4 1_555 1_555
C25_4 C26_4 1_555 1_555
C27_4 N6_4 1_555 1_555
C32_4 C33_4 1_555 1_555
N8_4 C38_4 1_555 1_555
C39_4 C40_4 1_555 1_555
C39_4 C44_4 1_555 1_555
C40_4 C41_4 1_555 1_555
C41_4 C42_4 1_555 1_555
C42_4 C43_4 1_555 1_555
C43_4 C44_4 1_555 1_555
C58_4 N11_4 1_555 1_555
N11_4 C59_4 1_555 1_555
C59_4 C60_4 1_555 1_555
N21_4 C116_4 1_555 1_555
C114_4 C115_4 1_555 1_555
N22_4 C116_4 1_555 1_555
Eu6_2 O6_4 1_555 1_555
C61_4 H36_4 1_555 1_555
C62_4 C61_4 1_555 1_555
C63_4 C62_4 1_555 1_555
H37_4 C63_4 1_555 1_555
C64_4 C63_4 1_555 1_555
H38_4 C64_4 1_555 1_555
C65_4 C64_4 1_555 1_555
C66_4 C61_4 1_555 1_555
H39_4 C66_4 1_555 1_555
H52_4 C88_4 1_555 1_555
O13_4 Eu6_2 1_555 1_555
C117_4 O8_4 1_555 1_555
N23_4 H66_4 1_555 1_555
C118_4 C65_4 1_555 1_555
N24_4 C118_4 1_555 1_555
O16_4 Eu6_2 1_555 1_555
Eu6_2 O8_4 1_555 1_555
C62_4 C117_4 1_555 1_555
C65_4 C66_4 1_555 1_555
O13_4 C117_4 1_555 1_555
N23_4 C118_4 1_555 1_555
N23_4 C120_4 1_555 1_555
N24_4 C119_4 1_555 1_555
C119_4 C120_4 1_555 1_555
O6_4 H67_4 1_555 1_555
O6_4 H68_4 1_555 1_555
O16_4 H71_4 1_555 1_555
O16_4 H72_4 1_555 1_555
Eu4_2 O5_4 1_555 1_555
C50_4 C51_4 1_555 1_555
C51_4 H29_4 1_555 1_555
C52_4 C51_4 1_555 1_555
H30_4 C52_4 1_555 1_555
C54_4 C53_4 1_555 1_555
H31_4 C54_4 1_555 1_555
C55_4 C50_4 1_555 1_555
H32_4 C55_4 1_555 1_555
O10_4 Eu4_2 1_555 1_555
O11_4 Eu4_2 1_555 1_555
O12_4 Eu4_2 1_555 1_555
C106_4 C50_4 1_555 1_555
C52_4 C53_4 1_555 1_555
C54_4 C55_4 1_555 1_555
O10_4 C106_4 1_555 1_555
O11_4 C106_4 1_555 1_555
O5_4 H69_4 1_555 1_555
O5_4 H70_4 1_555 1_555
C28_5 C29_5 1_555 1_555
C29_5 H18_5 1_555 1_555
C30_5 C29_5 1_555 1_555
H19_5 C30_5 1_555 1_555
C31_5 C30_5 1_555 1_555
C32_5 C31_5 1_555 1_555
H20_5 C32_5 1_555 1_555
C33_5 C28_5 1_555 1_555
H21_5 C33_5 1_555 1_555
C105_5 C31_5 1_555 1_555
O14_3 C105_5 1_555 1_555
H65_5 N22_5 1_555 1_555
C116_5 C28_5 1_555 1_555
O15_3 C105_5 1_555 1_555
Eu5_2 O14_3 1_555 1_555
C32_5 C33_5 1_555 1_555
N22_5 C116_5 1_555 1_555
O15_3 Eu5_2 1_555 1_555
Eu1_2 O5_5 1_555 1_555
Eu2_2 O6_5 1_555 1_555
Ru1_5 N10_5 1_555 1_555
Ru2_5 N1_5 1_555 1_555
C1_5 H1_5 1_555 1_555
C2_5 C1_5 1_555 1_555
C3_5 C2_5 1_555 1_555
C4_5 C3_5 1_555 1_555
N1_5 C4_5 1_555 1_555
C5_5 C1_5 1_555 1_555
H3_5 C5_5 1_555 1_555
C6_5 C7_5 1_555 1_555
C7_5 C8_5 1_555 1_555
C8_5 C9_5 1_555 1_555
C9_5 H4_5 1_555 1_555
C10_5 C9_5 1_555 1_555
H5_5 C10_5 1_555 1_555
C11_5 C10_5 1_555 1_555
H6_5 C11_5 1_555 1_555
N2_5 Ru2_5 1_555 1_555
C12_5 C8_5 1_555 1_555
N3_5 Ru2_5 1_555 1_555
C13_5 N3_5 1_555 1_555
H7_5 C13_5 1_555 1_555
C14_5 C13_5 1_555 1_555
H8_5 C14_5 1_555 1_555
C15_5 C14_5 1_555 1_555
H9_5 C15_5 1_555 1_555
C16_5 C6_5 1_555 1_555
C17_5 C12_5 1_555 1_555
O1_3 C85_5 1_555 1_555
C18_5 H10_5 1_555 1_555
C19_5 C18_5 1_555 1_555
C20_5 C19_5 1_555 1_555
H11_5 C20_5 1_555 1_555
C21_5 C20_5 1_555 1_555
H12_5 C21_5 1_555 1_555
C22_5 C21_5 1_555 1_555
C23_5 C18_5 1_555 1_555
H13_5 C23_5 1_555 1_555
O2_3 C107_5 1_555 1_555
O3_3 C85_5 1_555 1_555
O4_3 C37_5 1_555 1_555
N4_5 Ru2_5 1_555 1_555
C24_5 H14_5 1_555 1_555
C25_5 C24_5 1_555 1_555
H15_5 C25_5 1_555 1_555
C26_5 N4_5 1_555 1_555
H16_5 C26_5 1_555 1_555
O7_3 C37_5 1_555 1_555
C27_5 N5_5 1_555 1_555
N5_5 C7_5 1_555 1_555
H17_5 N5_5 1_555 1_555
N6_5 C6_5 1_555 1_555
N7_5 Ru2_5 1_555 1_555
C34_5 N7_5 1_555 1_555
H22_5 C34_5 1_555 1_555
C35_5 C34_5 1_555 1_555
H23_5 C35_5 1_555 1_555
C36_5 C35_5 1_555 1_555
H24_5 C36_5 1_555 1_555
C37_5 C19_5 1_555 1_555
N8_5 H25_5 1_555 1_555
C38_5 C22_5 1_555 1_555
N9_5 C38_5 1_555 1_555
C39_5 N9_5 1_555 1_555
C40_5 C24_5 1_555 1_555
C41_5 N4_5 1_555 1_555
C42_5 N7_5 1_555 1_555
C43_5 C36_5 1_555 1_555
C44_5 N8_5 1_555 1_555
N10_5 C45_5 1_555 1_555
C45_5 H26_5 1_555 1_555
C46_5 C45_5 1_555 1_555
H27_5 C46_5 1_555 1_555
C47_5 C46_5 1_555 1_555
H28_5 C47_5 1_555 1_555
C48_5 C47_5 1_555 1_555
C49_5 N10_5 1_555 1_555
O8_5 Eu1_2 1_555 1_555
C50_5 C51_5 1_555 1_555
C51_5 H29_5 1_555 1_555
C52_5 C51_5 1_555 1_555
H30_5 C52_5 1_555 1_555
C53_5 C27_5 1_555 1_555
C54_5 C53_5 1_555 1_555
H31_5 C54_5 1_555 1_555
C55_5 C50_5 1_555 1_555
H32_5 C55_5 1_555 1_555
O9_3 C107_5 1_555 1_555
O10_5 Eu1_2 1_555 1_555
O11_5 Eu1_2 1_555 1_555
C56_5 H33_5 1_555 1_555
C57_5 C56_5 1_555 1_555
H34_5 C57_5 1_555 1_555
C58_5 C57_5 1_555 1_555
H35_5 C58_5 1_555 1_555
N11_5 Ru2_5 1_555 1_555
C59_5 C4_5 1_555 1_555
C60_5 C56_5 1_555 1_555
O12_5 Eu1_2 1_555 1_555
C61_5 H36_5 1_555 1_555
C62_5 C61_5 1_555 1_555
C63_5 C62_5 1_555 1_555
H37_5 C63_5 1_555 1_555
C64_5 C63_5 1_555 1_555
H38_5 C64_5 1_555 1_555
C65_5 C64_5 1_555 1_555
C66_5 C61_5 1_555 1_555
H39_5 C66_5 1_555 1_555
C67_5 C68_5 1_555 1_555
C68_5 C69_5 1_555 1_555
C69_5 H40_5 1_555 1_555
C70_5 C69_5 1_555 1_555
H41_5 C70_5 1_555 1_555
C71_5 C70_5 1_555 1_555
H42_5 C71_5 1_555 1_555
N12_5 Ru1_5 1_555 1_555
C72_5 C67_5 1_555 1_555
N13_5 Ru1_5 1_555 1_555
C73_5 N13_5 1_555 1_555
H43_5 C73_5 1_555 1_555
C74_5 C73_5 1_555 1_555
H44_5 C74_5 1_555 1_555
C75_5 C74_5 1_555 1_555
H45_5 C75_5 1_555 1_555
C76_5 C72_5 1_555 1_555
C77_5 C68_5 1_555 1_555
C78_5 C76_5 1_555 1_555
N14_5 C78_5 1_555 1_555
H46_5 N14_5 1_555 1_555
C79_5 N14_5 1_555 1_555
N15_5 C77_5 1_555 1_555
C80_5 H47_5 1_555 1_555
C81_5 C80_5 1_555 1_555
H48_5 C81_5 1_555 1_555
N16_5 Ru1_5 1_555 1_555
C82_5 C49_5 1_555 1_555
C83_5 C82_5 1_555 1_555
C84_5 C80_5 1_555 1_555
H49_3 C84_5 1_555 1_555
C85_5 C99_5 1_555 1_555
N17_5 Ru1_5 1_555 1_555
C86_5 N17_5 1_555 1_555
H50_5 C86_5 1_555 1_555
C87_5 C86_5 1_555 1_555
H51_5 C87_5 1_555 1_555
C88_5 C87_5 1_555 1_555
H52_5 C88_5 1_555 1_555
C89_5 C88_5 1_555 1_555
C90_5 N17_5 1_555 1_555
C91_5 H53_5 1_555 1_555
N18_5 Ru1_5 1_555 1_555
C92_5 C90_5 1_555 1_555
C93_5 C92_5 1_555 1_555
C94_5 C93_5 1_555 1_555
H54_5 C94_5 1_555 1_555
C95_5 C91_5 1_555 1_555
H55_5 C95_5 1_555 1_555
N19_3 H56_3 1_555 1_555
C96_5 C83_5 1_555 1_555
C97_5 C48_5 1_555 1_555
N20_3 C97_5 1_555 1_555
C98_3 N19_3 1_555 1_555
C99_5 C100_5 1_555 1_555
C100_5 H57_5 1_555 1_555
C101_5 C100_5 1_555 1_555
H58_5 C101_5 1_555 1_555
C102_5 C79_5 1_555 1_555
C103_5 C102_5 1_555 1_555
H59_5 C103_5 1_555 1_555
C104_5 C99_5 1_555 1_555
H60_5 C104_5 1_555 1_555
C106_5 C50_5 1_555 1_555
O13_5 Eu2_2 1_555 1_555
C107_5 C111_5 1_555 1_555
C108_3 C98_3 1_555 1_555
C109_3 C108_3 1_555 1_555
H61_3 C109_3 1_555 1_555
C110_3 C109_3 1_555 1_555
H62_3 C110_3 1_555 1_555
C111_5 C110_3 1_555 1_555
C112_5 C111_5 1_555 1_555
H63_5 C112_5 1_555 1_555
C113_3 C108_3 1_555 1_555
H64_3 C113_3 1_555 1_555
N21_5 C114_5 1_555 1_555
C114_5 C60_5 1_555 1_555
C115_5 C3_5 1_555 1_555
C117_5 O8_5 1_555 1_555
N23_5 H66_5 1_555 1_555
C118_5 C65_5 1_555 1_555
N24_5 C118_5 1_555 1_555
C119_5 C93_5 1_555 1_555
C120_5 C89_5 1_555 1_555
O16_5 Eu2_2 1_555 1_555
Eu3_2 O2_3 1_555 1_555
Eu4_3 O4_3 1_555 1_555
Eu6_3 O1_3 1_555 1_555
O17_3 Eu2_2 1_555 1_555
O18_3 Eu1_2 1_555 1_555
O19_3 Eu2_2 1_555 1_555
O20_3 Eu1_2 1_555 1_555
O21_3 Eu1_2 1_555 1_555
O22_3 Eu1_2 1_555 1_555
O23_3 Eu2_2 1_555 1_555
O24_3 Eu2_2 1_555 1_555
Eu2_2 O8_5 1_555 1_555
Eu2_2 O12_5 1_555 1_555
N1_5 C5_5 1_555 1_555
C11_5 N2_5 1_555 1_555
N2_5 C12_5 1_555 1_555
N3_5 C17_5 1_555 1_555
C15_5 C16_5 1_555 1_555
C16_5 C17_5 1_555 1_555
C22_5 C23_5 1_555 1_555
O3_3 Eu6_3 1_555 1_555
C25_5 C26_5 1_555 1_555
O7_3 Eu4_3 1_555 1_555
C27_5 N6_5 1_555 1_555
N8_5 C38_5 1_555 1_555
C39_5 C40_5 1_555 1_555
C39_5 C44_5 1_555 1_555
C40_5 C41_5 1_555 1_555
C41_5 C42_5 1_555 1_555
C42_5 C43_5 1_555 1_555
C43_5 C44_5 1_555 1_555
C48_5 C49_5 1_555 1_555
C52_5 C53_5 1_555 1_555
C54_5 C55_5 1_555 1_555
O9_3 Eu3_2 1_555 1_555
O10_5 C106_5 1_555 1_555
O11_5 C106_5 1_555 1_555
C58_5 N11_5 1_555 1_555
N11_5 C59_5 1_555 1_555
C59_5 C60_5 1_555 1_555
C62_5 C117_5 1_555 1_555
C65_5 C66_5 1_555 1_555
C67_5 N12_5 1_555 1_555
C71_5 N12_5 1_555 1_555
C72_5 N13_5 1_555 1_555
C75_5 C76_5 1_555 1_555
C77_5 C78_5 1_555 1_555
C79_5 N15_5 1_555 1_555
C81_5 N16_5 1_555 1_555
N16_5 C82_5 1_555 1_555
C83_5 C84_5 1_555 1_555
C89_5 C90_5 1_555 1_555
C91_5 N18_5 1_555 1_555
N18_5 C92_5 1_555 1_555
C94_5 C95_5 1_555 1_555
N19_3 C96_5 1_555 1_555
C96_5 C97_5 1_555 1_555
N20_3 C98_3 1_555 1_555
C101_5 C102_5 1_555 1_555
C103_5 C104_5 1_555 1_555
O13_5 C117_5 1_555 1_555
C112_5 C113_3 1_555 1_555
C114_5 C115_5 1_555 1_555
N23_5 C118_5 1_555 1_555
N23_5 C120_5 1_555 1_555
N24_5 C119_5 1_555 1_555
C119_5 C120_5 1_555 1_555
O6_5 H67_5 1_555 1_555
O6_5 H68_5 1_555 1_555
O5_5 H69_5 1_555 1_555
O5_5 H70_5 1_555 1_555
O16_5 H71_5 1_555 1_555
O16_5 H72_5 1_555 1_555
Eu3_2 O5_6 1_555 1_555
Eu5_2 O6_6 1_555 1_555
Ru1_6 N10_6 1_555 1_555
Ru2_6 N1_6 1_555 1_555
C1_6 H1_6 1_555 1_555
C2_6 C1_6 1_555 1_555
C3_6 C2_6 1_555 1_555
C4_6 C3_6 1_555 1_555
N1_6 C4_6 1_555 1_555
C5_6 C1_6 1_555 1_555
H3_6 C5_6 1_555 1_555
C6_6 C7_6 1_555 1_555
C7_6 C8_6 1_555 1_555
C8_6 C9_6 1_555 1_555
C9_6 H4_6 1_555 1_555
C10_6 C9_6 1_555 1_555
H5_6 C10_6 1_555 1_555
C11_6 C10_6 1_555 1_555
H6_6 C11_6 1_555 1_555
N2_6 Ru2_6 1_555 1_555
C12_6 C8_6 1_555 1_555
N3_6 Ru2_6 1_555 1_555
C13_6 N3_6 1_555 1_555
H7_6 C13_6 1_555 1_555
C14_6 C13_6 1_555 1_555
H8_6 C14_6 1_555 1_555
C15_6 C14_6 1_555 1_555
H9_6 C15_6 1_555 1_555
C16_6 C6_6 1_555 1_555
C17_6 C12_6 1_555 1_555
O1_4 C85_6 1_555 1_555
C18_6 H10_6 1_555 1_555
C19_6 C18_6 1_555 1_555
C20_6 C19_6 1_555 1_555
H11_6 C20_6 1_555 1_555
C21_6 C20_6 1_555 1_555
H12_6 C21_6 1_555 1_555
C22_6 C21_6 1_555 1_555
C23_6 C18_6 1_555 1_555
H13_6 C23_6 1_555 1_555
O18_3 C107_6 1_555 1_555
O3_4 C85_6 1_555 1_555
O4_4 C37_6 1_555 1_555
N4_6 Ru2_6 1_555 1_555
C24_6 H14_6 1_555 1_555
C25_6 C24_6 1_555 1_555
H15_6 C25_6 1_555 1_555
C26_6 N4_6 1_555 1_555
H16_6 C26_6 1_555 1_555
O7_4 C37_6 1_555 1_555
C27_6 N5_6 1_555 1_555
N5_6 C7_6 1_555 1_555
H17_6 N5_6 1_555 1_555
N6_6 C6_6 1_555 1_555
N7_6 Ru2_6 1_555 1_555
C34_6 N7_6 1_555 1_555
H22_6 C34_6 1_555 1_555
C35_6 C34_6 1_555 1_555
H23_6 C35_6 1_555 1_555
C36_6 C35_6 1_555 1_555
H24_6 C36_6 1_555 1_555
C37_6 C19_6 1_555 1_555
N8_6 H25_6 1_555 1_555
C38_6 C22_6 1_555 1_555
N9_6 C38_6 1_555 1_555
C39_6 N9_6 1_555 1_555
C40_6 C24_6 1_555 1_555
C41_6 N4_6 1_555 1_555
C42_6 N7_6 1_555 1_555
C43_6 C36_6 1_555 1_555
C44_6 N8_6 1_555 1_555
N10_6 C45_6 1_555 1_555
C45_6 H26_6 1_555 1_555
C46_6 C45_6 1_555 1_555
H27_6 C46_6 1_555 1_555
C47_6 C46_6 1_555 1_555
H28_6 C47_6 1_555 1_555
C48_6 C47_6 1_555 1_555
C49_6 N10_6 1_555 1_555
O8_6 Eu3_2 1_555 1_555
C50_6 C51_6 1_555 1_555
C51_6 H29_6 1_555 1_555
C52_6 C51_6 1_555 1_555
H30_6 C52_6 1_555 1_555
C53_6 C27_6 1_555 1_555
C54_6 C53_6 1_555 1_555
H31_6 C54_6 1_555 1_555
C55_6 C50_6 1_555 1_555
H32_6 C55_6 1_555 1_555
O22_3 C107_6 1_555 1_555
O10_6 Eu3_2 1_555 1_555
O11_6 Eu3_2 1_555 1_555
C56_6 H33_6 1_555 1_555
C57_6 C56_6 1_555 1_555
H34_6 C57_6 1_555 1_555
C58_6 C57_6 1_555 1_555
H35_6 C58_6 1_555 1_555
N11_6 Ru2_6 1_555 1_555
C59_6 C4_6 1_555 1_555
C60_6 C56_6 1_555 1_555
O12_6 Eu3_2 1_555 1_555
C61_6 H36_6 1_555 1_555
C62_6 C61_6 1_555 1_555
C63_6 C62_6 1_555 1_555
H37_6 C63_6 1_555 1_555
C64_6 C63_6 1_555 1_555
H38_6 C64_6 1_555 1_555
C65_6 C64_6 1_555 1_555
C66_6 C61_6 1_555 1_555
H39_6 C66_6 1_555 1_555
C67_6 C68_6 1_555 1_555
C68_6 C69_6 1_555 1_555
C69_6 H40_6 1_555 1_555
C70_6 C69_6 1_555 1_555
H41_6 C70_6 1_555 1_555
C71_6 C70_6 1_555 1_555
H42_6 C71_6 1_555 1_555
N12_6 Ru1_6 1_555 1_555
C72_6 C67_6 1_555 1_555
N13_6 Ru1_6 1_555 1_555
C73_6 N13_6 1_555 1_555
H43_6 C73_6 1_555 1_555
C74_6 C73_6 1_555 1_555
H44_6 C74_6 1_555 1_555
C75_6 C74_6 1_555 1_555
H45_6 C75_6 1_555 1_555
C76_6 C72_6 1_555 1_555
C77_6 C68_6 1_555 1_555
C78_6 C76_6 1_555 1_555
N14_6 C78_6 1_555 1_555
H46_6 N14_6 1_555 1_555
C79_6 N14_6 1_555 1_555
N15_6 C77_6 1_555 1_555
C80_6 H47_6 1_555 1_555
C81_6 C80_6 1_555 1_555
H48_6 C81_6 1_555 1_555
N16_6 Ru1_6 1_555 1_555
C82_6 C49_6 1_555 1_555
C83_6 C82_6 1_555 1_555
C84_6 C80_6 1_555 1_555
H49_4 C84_6 1_555 1_555
C85_6 C99_6 1_555 1_555
N17_6 Ru1_6 1_555 1_555
C86_6 N17_6 1_555 1_555
H50_6 C86_6 1_555 1_555
C87_6 C86_6 1_555 1_555
H51_6 C87_6 1_555 1_555
C88_6 C87_6 1_555 1_555
H52_6 C88_6 1_555 1_555
C89_6 C88_6 1_555 1_555
C90_6 N17_6 1_555 1_555
C91_6 H53_6 1_555 1_555
N18_6 Ru1_6 1_555 1_555
C92_6 C90_6 1_555 1_555
C93_6 C92_6 1_555 1_555
C94_6 C93_6 1_555 1_555
H54_6 C94_6 1_555 1_555
C95_6 C91_6 1_555 1_555
H55_6 C95_6 1_555 1_555
N19_4 H56_4 1_555 1_555
C96_6 C83_6 1_555 1_555
C97_6 C48_6 1_555 1_555
N20_4 C97_6 1_555 1_555
C98_4 N19_4 1_555 1_555
C99_6 C100_6 1_555 1_555
C100_6 H57_6 1_555 1_555
C101_6 C100_6 1_555 1_555
H58_6 C101_6 1_555 1_555
C102_6 C79_6 1_555 1_555
C103_6 C102_6 1_555 1_555
H59_6 C103_6 1_555 1_555
C104_6 C99_6 1_555 1_555
H60_6 C104_6 1_555 1_555
C106_6 C50_6 1_555 1_555
O13_6 Eu5_2 1_555 1_555
C107_6 C111_6 1_555 1_555
C108_4 C98_4 1_555 1_555
C109_4 C108_4 1_555 1_555
H61_4 C109_4 1_555 1_555
C110_4 C109_4 1_555 1_555
H62_4 C110_4 1_555 1_555
C111_6 C110_4 1_555 1_555
C112_6 C111_6 1_555 1_555
H63_6 C112_6 1_555 1_555
C113_4 C108_4 1_555 1_555
H64_4 C113_4 1_555 1_555
N21_6 C114_6 1_555 1_555
C114_6 C60_6 1_555 1_555
C115_6 C3_6 1_555 1_555
C117_6 O8_6 1_555 1_555
N23_6 H66_6 1_555 1_555
C118_6 C65_6 1_555 1_555
N24_6 C118_6 1_555 1_555
C119_6 C93_6 1_555 1_555
C120_6 C89_6 1_555 1_555
O16_6 Eu5_2 1_555 1_555
Eu4_4 O4_4 1_555 1_555
Eu6_4 O1_4 1_555 1_555
O17_4 Eu5_2 1_555 1_555
O19_4 Eu5_2 1_555 1_555
O20_4 Eu3_2 1_555 1_555
O21_4 Eu3_2 1_555 1_555
Eu5_2 O8_6 1_555 1_555
Eu5_2 O12_6 1_555 1_555
N1_6 C5_6 1_555 1_555
C11_6 N2_6 1_555 1_555
N2_6 C12_6 1_555 1_555
N3_6 C17_6 1_555 1_555
C15_6 C16_6 1_555 1_555
C16_6 C17_6 1_555 1_555
C22_6 C23_6 1_555 1_555
O3_4 Eu6_4 1_555 1_555
C25_6 C26_6 1_555 1_555
O7_4 Eu4_4 1_555 1_555
C27_6 N6_6 1_555 1_555
N8_6 C38_6 1_555 1_555
C39_6 C40_6 1_555 1_555
C39_6 C44_6 1_555 1_555
C40_6 C41_6 1_555 1_555
C41_6 C42_6 1_555 1_555
C42_6 C43_6 1_555 1_555
C43_6 C44_6 1_555 1_555
C48_6 C49_6 1_555 1_555
C52_6 C53_6 1_555 1_555
C54_6 C55_6 1_555 1_555
O10_6 C106_6 1_555 1_555
O11_6 C106_6 1_555 1_555
C58_6 N11_6 1_555 1_555
N11_6 C59_6 1_555 1_555
C59_6 C60_6 1_555 1_555
C62_6 C117_6 1_555 1_555
C65_6 C66_6 1_555 1_555
C67_6 N12_6 1_555 1_555
C71_6 N12_6 1_555 1_555
C72_6 N13_6 1_555 1_555
C75_6 C76_6 1_555 1_555
C77_6 C78_6 1_555 1_555
C79_6 N15_6 1_555 1_555
C81_6 N16_6 1_555 1_555
N16_6 C82_6 1_555 1_555
C83_6 C84_6 1_555 1_555
C89_6 C90_6 1_555 1_555
C91_6 N18_6 1_555 1_555
N18_6 C92_6 1_555 1_555
C94_6 C95_6 1_555 1_555
N19_4 C96_6 1_555 1_555
C96_6 C97_6 1_555 1_555
N20_4 C98_4 1_555 1_555
C101_6 C102_6 1_555 1_555
C103_6 C104_6 1_555 1_555
O13_6 C117_6 1_555 1_555
C112_6 C113_4 1_555 1_555
C114_6 C115_6 1_555 1_555
N23_6 C118_6 1_555 1_555
N23_6 C120_6 1_555 1_555
N24_6 C119_6 1_555 1_555
C119_6 C120_6 1_555 1_555
O6_6 H67_6 1_555 1_555
O6_6 H68_6 1_555 1_555
O5_6 H69_6 1_555 1_555
O5_6 H70_6 1_555 1_555
O16_6 H71_6 1_555 1_555
O16_6 H72_6 1_555 1_555
C28_6 C29_6 1_555 1_555
C29_6 H18_6 1_555 1_555
C30_6 C29_6 1_555 1_555
H19_6 C30_6 1_555 1_555
C31_6 C30_6 1_555 1_555
C32_6 C31_6 1_555 1_555
H20_6 C32_6 1_555 1_555
C33_6 C28_6 1_555 1_555
H21_6 C33_6 1_555 1_555
C105_6 C31_6 1_555 1_555
O23_3 C105_6 1_555 1_555
H65_6 N22_6 1_555 1_555
C116_6 C28_6 1_555 1_555
O24_3 C105_6 1_555 1_555
C32_6 C33_6 1_555 1_555
N22_6 C116_6 1_555 1_555
O2_4 C107_7 1_555 1_555
O9_4 C107_7 1_555 1_555
C107_7 C111_7 1_555 1_555
C112_7 C111_7 1_555 1_555
H63_7 C112_7 1_555 1_555
Eu4_4 O2_4 1_555 1_555
O9_4 Eu4_4 1_555 1_555
Eu4_3 O5_7 1_555 1_555
C50_7 C51_7 1_555 1_555
C51_7 H29_7 1_555 1_555
C52_7 C51_7 1_555 1_555
H30_7 C52_7 1_555 1_555
C54_7 C53_7 1_555 1_555
H31_7 C54_7 1_555 1_555
C55_7 C50_7 1_555 1_555
H32_7 C55_7 1_555 1_555
O10_7 Eu4_3 1_555 1_555
O11_7 Eu4_3 1_555 1_555
O12_7 Eu4_3 1_555 1_555
C106_7 C50_7 1_555 1_555
O18_4 Eu4_3 1_555 1_555
O22_4 Eu4_3 1_555 1_555
C52_7 C53_7 1_555 1_555
C54_7 C55_7 1_555 1_555
O10_7 C106_7 1_555 1_555
O11_7 C106_7 1_555 1_555
O5_7 H69_7 1_555 1_555
O5_7 H70_7 1_555 1_555
Eu6_3 O6_7 1_555 1_555
C61_7 H36_7 1_555 1_555
C62_7 C61_7 1_555 1_555
C63_7 C62_7 1_555 1_555
H37_7 C63_7 1_555 1_555
C64_7 C63_7 1_555 1_555
H38_7 C64_7 1_555 1_555
C65_7 C64_7 1_555 1_555
C66_7 C61_7 1_555 1_555
H39_7 C66_7 1_555 1_555
H52_7 C88_7 1_555 1_555
O13_7 Eu6_3 1_555 1_555
C117_7 O8_7 1_555 1_555
N23_7 H66_7 1_555 1_555
C118_7 C65_7 1_555 1_555
N24_7 C118_7 1_555 1_555
O16_7 Eu6_3 1_555 1_555
O23_4 Eu6_3 1_555 1_555
O24_4 Eu6_3 1_555 1_555
Eu6_3 O8_7 1_555 1_555
C62_7 C117_7 1_555 1_555
C65_7 C66_7 1_555 1_555
O13_7 C117_7 1_555 1_555
N23_7 C118_7 1_555 1_555
N23_7 C120_7 1_555 1_555
N24_7 C119_7 1_555 1_555
C119_7 C120_7 1_555 1_555
O6_7 H67_7 1_555 1_555
O6_7 H68_7 1_555 1_555
O16_7 H71_7 1_555 1_555
O16_7 H72_7 1_555 1_555
Ru2_7 N1_7 1_555 1_555
C1_7 H1_7 1_555 1_555
C2_7 C1_7 1_555 1_555
H2_7 C2_7 1_555 1_555
C3_7 C2_7 1_555 1_555
C4_7 C3_7 1_555 1_555
N1_7 C4_7 1_555 1_555
C5_7 C1_7 1_555 1_555
H3_7 C5_7 1_555 1_555
C6_7 C7_7 1_555 1_555
C7_7 C8_7 1_555 1_555
C8_7 C9_7 1_555 1_555
C9_7 H4_7 1_555 1_555
C10_7 C9_7 1_555 1_555
H5_7 C10_7 1_555 1_555
C11_7 C10_7 1_555 1_555
H6_7 C11_7 1_555 1_555
N2_7 Ru2_7 1_555 1_555
C12_7 C8_7 1_555 1_555
N3_7 Ru2_7 1_555 1_555
C13_7 N3_7 1_555 1_555
H7_7 C13_7 1_555 1_555
C14_7 C13_7 1_555 1_555
H8_7 C14_7 1_555 1_555
C15_7 C14_7 1_555 1_555
H9_7 C15_7 1_555 1_555
C16_7 C6_7 1_555 1_555
C17_7 C12_7 1_555 1_555
C18_7 H10_7 1_555 1_555
C19_7 C18_7 1_555 1_555
C20_7 C19_7 1_555 1_555
H11_7 C20_7 1_555 1_555
C21_7 C20_7 1_555 1_555
H12_7 C21_7 1_555 1_555
C22_7 C21_7 1_555 1_555
C23_7 C18_7 1_555 1_555
H13_7 C23_7 1_555 1_555
O20_3 C37_7 1_555 1_555
N4_7 Ru2_7 1_555 1_555
C24_7 H14_7 1_555 1_555
C25_7 C24_7 1_555 1_555
H15_7 C25_7 1_555 1_555
C26_7 N4_7 1_555 1_555
H16_7 C26_7 1_555 1_555
O21_3 C37_7 1_555 1_555
C27_7 N5_7 1_555 1_555
N5_7 C7_7 1_555 1_555
H17_7 N5_7 1_555 1_555
N6_7 C6_7 1_555 1_555
C28_7 C29_7 1_555 1_555
C29_7 H18_7 1_555 1_555
C32_7 C31_7 1_555 1_555
H20_7 C32_7 1_555 1_555
C33_7 C28_7 1_555 1_555
H21_7 C33_7 1_555 1_555
N7_7 Ru2_7 1_555 1_555
C34_7 N7_7 1_555 1_555
H22_7 C34_7 1_555 1_555
C35_7 C34_7 1_555 1_555
H23_7 C35_7 1_555 1_555
C36_7 C35_7 1_555 1_555
H24_7 C36_7 1_555 1_555
C37_7 C19_7 1_555 1_555
N8_7 H25_7 1_555 1_555
C38_7 C22_7 1_555 1_555
N9_7 C38_7 1_555 1_555
C39_7 N9_7 1_555 1_555
C40_7 C24_7 1_555 1_555
C41_7 N4_7 1_555 1_555
C42_7 N7_7 1_555 1_555
C43_7 C36_7 1_555 1_555
C44_7 N8_7 1_555 1_555
C56_7 H33_7 1_555 1_555
C57_7 C56_7 1_555 1_555
H34_7 C57_7 1_555 1_555
C58_7 C57_7 1_555 1_555
H35_7 C58_7 1_555 1_555
N11_7 Ru2_7 1_555 1_555
C59_7 C4_7 1_555 1_555
C60_7 C56_7 1_555 1_555
N21_7 C114_7 1_555 1_555
C114_7 C60_7 1_555 1_555
C115_7 C3_7 1_555 1_555
N22_7 C115_7 1_555 1_555
H65_7 N22_7 1_555 1_555
C116_7 C28_7 1_555 1_555
N1_7 C5_7 1_555 1_555
C11_7 N2_7 1_555 1_555
N2_7 C12_7 1_555 1_555
N3_7 C17_7 1_555 1_555
C15_7 C16_7 1_555 1_555
C16_7 C17_7 1_555 1_555
C22_7 C23_7 1_555 1_555
C25_7 C26_7 1_555 1_555
C27_7 N6_7 1_555 1_555
C32_7 C33_7 1_555 1_555
N8_7 C38_7 1_555 1_555
C39_7 C40_7 1_555 1_555
C39_7 C44_7 1_555 1_555
C40_7 C41_7 1_555 1_555
C41_7 C42_7 1_555 1_555
C42_7 C43_7 1_555 1_555
C43_7 C44_7 1_555 1_555
C58_7 N11_7 1_555 1_555
N11_7 C59_7 1_555 1_555
C59_7 C60_7 1_555 1_555
N21_7 C116_7 1_555 1_555
C114_7 C115_7 1_555 1_555
N22_7 C116_7 1_555 1_555
Ru1_7 N10_7 1_555 1_555
O17_3 C85_7 1_555 1_555
O19_3 C85_7 1_555 1_555
H19_7 C30_7 1_555 1_555
N10_7 C45_7 1_555 1_555
C45_7 H26_7 1_555 1_555
C46_7 C45_7 1_555 1_555
H27_7 C46_7 1_555 1_555
C47_7 C46_7 1_555 1_555
H28_7 C47_7 1_555 1_555
C48_7 C47_7 1_555 1_555
C49_7 N10_7 1_555 1_555
C67_7 C68_7 1_555 1_555
C68_7 C69_7 1_555 1_555
C69_7 H40_7 1_555 1_555
C70_7 C69_7 1_555 1_555
H41_7 C70_7 1_555 1_555
C71_7 C70_7 1_555 1_555
H42_7 C71_7 1_555 1_555
N12_7 Ru1_7 1_555 1_555
C72_7 C67_7 1_555 1_555
N13_7 Ru1_7 1_555 1_555
C73_7 N13_7 1_555 1_555
H43_7 C73_7 1_555 1_555
C74_7 C73_7 1_555 1_555
H44_7 C74_7 1_555 1_555
C75_7 C74_7 1_555 1_555
H45_7 C75_7 1_555 1_555
C76_7 C72_7 1_555 1_555
C77_7 C68_7 1_555 1_555
C78_7 C76_7 1_555 1_555
N14_7 C78_7 1_555 1_555
H46_7 N14_7 1_555 1_555
C79_7 N14_7 1_555 1_555
N15_7 C77_7 1_555 1_555
C80_7 H47_7 1_555 1_555
C81_7 C80_7 1_555 1_555
H48_7 C81_7 1_555 1_555
N16_7 Ru1_7 1_555 1_555
C82_7 C49_7 1_555 1_555
C83_7 C82_7 1_555 1_555
C84_7 C80_7 1_555 1_555
C85_7 C99_7 1_555 1_555
N17_7 Ru1_7 1_555 1_555
C86_7 N17_7 1_555 1_555
H50_7 C86_7 1_555 1_555
C87_7 C86_7 1_555 1_555
H51_7 C87_7 1_555 1_555
C90_7 N17_7 1_555 1_555
C91_7 H53_7 1_555 1_555
N18_7 Ru1_7 1_555 1_555
C92_7 C90_7 1_555 1_555
C93_7 C92_7 1_555 1_555
C94_7 C93_7 1_555 1_555
H54_7 C94_7 1_555 1_555
C95_7 C91_7 1_555 1_555
H55_7 C95_7 1_555 1_555
C96_7 C83_7 1_555 1_555
C97_7 C48_7 1_555 1_555
C99_7 C100_7 1_555 1_555
C100_7 H57_7 1_555 1_555
C101_7 C100_7 1_555 1_555
H58_7 C101_7 1_555 1_555
C102_7 C79_7 1_555 1_555
C103_7 C102_7 1_555 1_555
H59_7 C103_7 1_555 1_555
C104_7 C99_7 1_555 1_555
H60_7 C104_7 1_555 1_555
O14_4 C105_7 1_555 1_555
O15_4 C105_7 1_555 1_555
Eu6_4 O14_4 1_555 1_555
C48_7 C49_7 1_555 1_555
C67_7 N12_7 1_555 1_555
C71_7 N12_7 1_555 1_555
C72_7 N13_7 1_555 1_555
C75_7 C76_7 1_555 1_555
C77_7 C78_7 1_555 1_555
C79_7 N15_7 1_555 1_555
C81_7 N16_7 1_555 1_555
N16_7 C82_7 1_555 1_555
C83_7 C84_7 1_555 1_555
C89_7 C90_7 1_555 1_555
C91_7 N18_7 1_555 1_555
N18_7 C92_7 1_555 1_555
C94_7 C95_7 1_555 1_555
C96_7 C97_7 1_555 1_555
C101_7 C102_7 1_555 1_555
C103_7 C104_7 1_555 1_555
O15_4 Eu6_4 1_555 1_555
Ru2_8 N1_8 1_555 1_555
C1_8 H1_8 1_555 1_555
C2_8 C1_8 1_555 1_555
H2_8 C2_8 1_555 1_555
C3_8 C2_8 1_555 1_555
C4_8 C3_8 1_555 1_555
N1_8 C4_8 1_555 1_555
C5_8 C1_8 1_555 1_555
H3_8 C5_8 1_555 1_555
C6_8 C7_8 1_555 1_555
C7_8 C8_8 1_555 1_555
C8_8 C9_8 1_555 1_555
C9_8 H4_8 1_555 1_555
C10_8 C9_8 1_555 1_555
H5_8 C10_8 1_555 1_555
C11_8 C10_8 1_555 1_555
H6_8 C11_8 1_555 1_555
N2_8 Ru2_8 1_555 1_555
C12_8 C8_8 1_555 1_555
N3_8 Ru2_8 1_555 1_555
C13_8 N3_8 1_555 1_555
H7_8 C13_8 1_555 1_555
C14_8 C13_8 1_555 1_555
H8_8 C14_8 1_555 1_555
C15_8 C14_8 1_555 1_555
H9_8 C15_8 1_555 1_555
C16_8 C6_8 1_555 1_555
C17_8 C12_8 1_555 1_555
C18_8 H10_8 1_555 1_555
C19_8 C18_8 1_555 1_555
C20_8 C19_8 1_555 1_555
H11_8 C20_8 1_555 1_555
C21_8 C20_8 1_555 1_555
H12_8 C21_8 1_555 1_555
C22_8 C21_8 1_555 1_555
C23_8 C18_8 1_555 1_555
H13_8 C23_8 1_555 1_555
O20_4 C37_8 1_555 1_555
N4_8 Ru2_8 1_555 1_555
C24_8 H14_8 1_555 1_555
C25_8 C24_8 1_555 1_555
H15_8 C25_8 1_555 1_555
C26_8 N4_8 1_555 1_555
H16_8 C26_8 1_555 1_555
O21_4 C37_8 1_555 1_555
C27_8 N5_8 1_555 1_555
N5_8 C7_8 1_555 1_555
H17_8 N5_8 1_555 1_555
N6_8 C6_8 1_555 1_555
C28_8 C29_8 1_555 1_555
C29_8 H18_8 1_555 1_555
C32_8 C31_8 1_555 1_555
H20_8 C32_8 1_555 1_555
C33_8 C28_8 1_555 1_555
H21_8 C33_8 1_555 1_555
N7_8 Ru2_8 1_555 1_555
C34_8 N7_8 1_555 1_555
H22_8 C34_8 1_555 1_555
C35_8 C34_8 1_555 1_555
H23_8 C35_8 1_555 1_555
C36_8 C35_8 1_555 1_555
H24_8 C36_8 1_555 1_555
C37_8 C19_8 1_555 1_555
N8_8 H25_8 1_555 1_555
C38_8 C22_8 1_555 1_555
N9_8 C38_8 1_555 1_555
C39_8 N9_8 1_555 1_555
C40_8 C24_8 1_555 1_555
C41_8 N4_8 1_555 1_555
C42_8 N7_8 1_555 1_555
C43_8 C36_8 1_555 1_555
C44_8 N8_8 1_555 1_555
C56_8 H33_8 1_555 1_555
C57_8 C56_8 1_555 1_555
H34_8 C57_8 1_555 1_555
C58_8 C57_8 1_555 1_555
H35_8 C58_8 1_555 1_555
N11_8 Ru2_8 1_555 1_555
C59_8 C4_8 1_555 1_555
C60_8 C56_8 1_555 1_555
N21_8 C114_8 1_555 1_555
C114_8 C60_8 1_555 1_555
C115_8 C3_8 1_555 1_555
N22_8 C115_8 1_555 1_555
H65_8 N22_8 1_555 1_555
C116_8 C28_8 1_555 1_555
N1_8 C5_8 1_555 1_555
C11_8 N2_8 1_555 1_555
N2_8 C12_8 1_555 1_555
N3_8 C17_8 1_555 1_555
C15_8 C16_8 1_555 1_555
C16_8 C17_8 1_555 1_555
C22_8 C23_8 1_555 1_555
C25_8 C26_8 1_555 1_555
C27_8 N6_8 1_555 1_555
C32_8 C33_8 1_555 1_555
N8_8 C38_8 1_555 1_555
C39_8 C40_8 1_555 1_555
C39_8 C44_8 1_555 1_555
C40_8 C41_8 1_555 1_555
C41_8 C42_8 1_555 1_555
C42_8 C43_8 1_555 1_555
C43_8 C44_8 1_555 1_555
C58_8 N11_8 1_555 1_555
N11_8 C59_8 1_555 1_555
C59_8 C60_8 1_555 1_555
N21_8 C116_8 1_555 1_555
C114_8 C115_8 1_555 1_555
N22_8 C116_8 1_555 1_555
Ru1_8 N10_8 1_555 1_555
O17_4 C85_8 1_555 1_555
O19_4 C85_8 1_555 1_555
H19_8 C30_8 1_555 1_555
N10_8 C45_8 1_555 1_555
C45_8 H26_8 1_555 1_555
C46_8 C45_8 1_555 1_555
H27_8 C46_8 1_555 1_555
C47_8 C46_8 1_555 1_555
H28_8 C47_8 1_555 1_555
C48_8 C47_8 1_555 1_555
C49_8 N10_8 1_555 1_555
C67_8 C68_8 1_555 1_555
C68_8 C69_8 1_555 1_555
C69_8 H40_8 1_555 1_555
C70_8 C69_8 1_555 1_555
H41_8 C70_8 1_555 1_555
C71_8 C70_8 1_555 1_555
H42_8 C71_8 1_555 1_555
N12_8 Ru1_8 1_555 1_555
C72_8 C67_8 1_555 1_555
N13_8 Ru1_8 1_555 1_555
C73_8 N13_8 1_555 1_555
H43_8 C73_8 1_555 1_555
C74_8 C73_8 1_555 1_555
H44_8 C74_8 1_555 1_555
C75_8 C74_8 1_555 1_555
H45_8 C75_8 1_555 1_555
C76_8 C72_8 1_555 1_555
C77_8 C68_8 1_555 1_555
C78_8 C76_8 1_555 1_555
N14_8 C78_8 1_555 1_555
H46_8 N14_8 1_555 1_555
C79_8 N14_8 1_555 1_555
N15_8 C77_8 1_555 1_555
C80_8 H47_8 1_555 1_555
C81_8 C80_8 1_555 1_555
H48_8 C81_8 1_555 1_555
N16_8 Ru1_8 1_555 1_555
C82_8 C49_8 1_555 1_555
C83_8 C82_8 1_555 1_555
C84_8 C80_8 1_555 1_555
C85_8 C99_8 1_555 1_555
N17_8 Ru1_8 1_555 1_555
C86_8 N17_8 1_555 1_555
H50_8 C86_8 1_555 1_555
C87_8 C86_8 1_555 1_555
H51_8 C87_8 1_555 1_555
C90_8 N17_8 1_555 1_555
C91_8 H53_8 1_555 1_555
N18_8 Ru1_8 1_555 1_555
C92_8 C90_8 1_555 1_555
C93_8 C92_8 1_555 1_555
C94_8 C93_8 1_555 1_555
H54_8 C94_8 1_555 1_555
C95_8 C91_8 1_555 1_555
H55_8 C95_8 1_555 1_555
C96_8 C83_8 1_555 1_555
C97_8 C48_8 1_555 1_555
C99_8 C100_8 1_555 1_555
C100_8 H57_8 1_555 1_555
C101_8 C100_8 1_555 1_555
H58_8 C101_8 1_555 1_555
C102_8 C79_8 1_555 1_555
C103_8 C102_8 1_555 1_555
H59_8 C103_8 1_555 1_555
C104_8 C99_8 1_555 1_555
H60_8 C104_8 1_555 1_555
O23_4 C105_8 1_555 1_555
O24_4 C105_8 1_555 1_555
C48_8 C49_8 1_555 1_555
C67_8 N12_8 1_555 1_555
C71_8 N12_8 1_555 1_555
C72_8 N13_8 1_555 1_555
C75_8 C76_8 1_555 1_555
C77_8 C78_8 1_555 1_555
C79_8 N15_8 1_555 1_555
C81_8 N16_8 1_555 1_555
N16_8 C82_8 1_555 1_555
C83_8 C84_8 1_555 1_555
C89_8 C90_8 1_555 1_555
C91_8 N18_8 1_555 1_555
N18_8 C92_8 1_555 1_555
C94_8 C95_8 1_555 1_555
C96_8 C97_8 1_555 1_555
C101_8 C102_8 1_555 1_555
C103_8 C104_8 1_555 1_555
Eu4_4 O5_8 1_555 1_555
C50_8 C51_8 1_555 1_555
C51_8 H29_8 1_555 1_555
C52_8 C51_8 1_555 1_555
H30_8 C52_8 1_555 1_555
C54_8 C53_8 1_555 1_555
H31_8 C54_8 1_555 1_555
C55_8 C50_8 1_555 1_555
H32_8 C55_8 1_555 1_555
O10_8 Eu4_4 1_555 1_555
O11_8 Eu4_4 1_555 1_555
O12_8 Eu4_4 1_555 1_555
C106_8 C50_8 1_555 1_555
C52_8 C53_8 1_555 1_555
C54_8 C55_8 1_555 1_555
O10_8 C106_8 1_555 1_555
O11_8 C106_8 1_555 1_555
O5_8 H69_8 1_555 1_555
O5_8 H70_8 1_555 1_555
Eu6_4 O6_8 1_555 1_555
C61_8 H36_8 1_555 1_555
C62_8 C61_8 1_555 1_555
C63_8 C62_8 1_555 1_555
H37_8 C63_8 1_555 1_555
C64_8 C63_8 1_555 1_555
H38_8 C64_8 1_555 1_555
C65_8 C64_8 1_555 1_555
C66_8 C61_8 1_555 1_555
H39_8 C66_8 1_555 1_555
H52_8 C88_8 1_555 1_555
O13_8 Eu6_4 1_555 1_555
C117_8 O8_8 1_555 1_555
N23_8 H66_8 1_555 1_555
C118_8 C65_8 1_555 1_555
N24_8 C118_8 1_555 1_555
O16_8 Eu6_4 1_555 1_555
Eu6_4 O8_8 1_555 1_555
C62_8 C117_8 1_555 1_555
C65_8 C66_8 1_555 1_555
O13_8 C117_8 1_555 1_555
N23_8 C118_8 1_555 1_555
N23_8 C120_8 1_555 1_555
N24_8 C119_8 1_555 1_555
C119_8 C120_8 1_555 1_555
O6_8 H67_8 1_555 1_555
O6_8 H68_8 1_555 1_555
O16_8 H71_8 1_555 1_555
O16_8 H72_8 1_555 1_555
O18_4 C107_8 1_555 1_555
O22_4 C107_8 1_555 1_555
C107_8 C111_8 1_555 1_555
C112_8 C111_8 1_555 1_555
H63_8 C112_8 1_555 1_555
N19_5 H56_5 1_555 1_555
C98_5 N19_5 1_555 1_555
C108_5 C98_5 1_555 1_555
C109_5 C108_5 1_555 1_555
H61_5 C109_5 1_555 1_555
C110_5 C109_5 1_555 1_555
H62_5 C110_5 1_555 1_555
C113_5 C108_5 1_555 1_555
H64_5 C113_5 1_555 1_555
N20_5 C98_5 1_555 1_555
N19_6 H56_6 1_555 1_555
C98_6 N19_6 1_555 1_555
C108_6 C98_6 1_555 1_555
C109_6 C108_6 1_555 1_555
H61_6 C109_6 1_555 1_555
C110_6 C109_6 1_555 1_555
H62_6 C110_6 1_555 1_555
C113_6 C108_6 1_555 1_555
H64_6 C113_6 1_555 1_555
N20_6 C98_6 1_555 1_555
N19_7 H56_7 1_555 1_555
C98_7 N19_7 1_555 1_555
C108_7 C98_7 1_555 1_555
C109_7 C108_7 1_555 1_555
H61_7 C109_7 1_555 1_555
C110_7 C109_7 1_555 1_555
H62_7 C110_7 1_555 1_555
C113_7 C108_7 1_555 1_555
H64_7 C113_7 1_555 1_555
N20_7 C98_7 1_555 1_555
N19_8 H56_8 1_555 1_555
C98_8 N19_8 1_555 1_555
C108_8 C98_8 1_555 1_555
C109_8 C108_8 1_555 1_555
H61_8 C109_8 1_555 1_555
C110_8 C109_8 1_555 1_555
H62_8 C110_8 1_555 1_555
C113_8 C108_8 1_555 1_555
H64_8 C113_8 1_555 1_555
N20_8 C98_8 1_555 1_555

#END
