
###############################################################################
#
# This file contains modified crystal structure data generated from the
# MOF subset of the Cambridge Structural Database (CSD) v543 
# hosted by the Cambridge Crystallographic Data Centre (CCDC).
#
# This work is licensed under the Creative Commons
# Attribution-NonCommercial-ShareAlike 4.0 International License.
# To view a copy of this license, visit
# http://creativecommons.org/licenses/by-nc-sa/4.0/
# or send a letter to
# Creative Commons, PO Box 1866, Mountain View, CA 94042, USA.
#
# CIF created using the CSD Python API on 29 September 2022
# The structure has been converted into the P1 space group
# The structure has a 3D framework
# The original CSD entry HALQUJ is in the monoclinic crystal system
# The framework has been calculated to contain at least 10.0% void space
# The void calculation uses a probe of radius 1.32A, grid spacing 0.4
#
###############################################################################

data_HALQUJ
_chemical_formula_moiety         '(C84 H48 Cu4 N24)n'
_symmetry_cell_setting           triclinic
_symmetry_space_group_name_H-M   'P 1'
_symmetry_Int_Tables_number      1
_space_group_name_Hall           'P 1'
loop_
_symmetry_equiv_pos_site_id
_symmetry_equiv_pos_as_xyz
1 x,y,z
_cell_length_a                   17.8729(6)
_cell_length_b                   8.7298(3)
_cell_length_c                   22.7524(9)
_cell_angle_alpha                90
_cell_angle_beta                 96.072(4)
_cell_angle_gamma                90
_cell_volume                     3530.07
loop_
_atom_site_label
_atom_site_type_symbol
_atom_site_fract_x
_atom_site_fract_y
_atom_site_fract_z
N7 N 0.3670(3) 0.0350(5) 0.31120(19)
N8 N 0.2499(2) 0.2445(5) 0.48335(18)
H13 H 0.2971 0.2264 0.4922
N9 N 0.3507(2) 0.4851(5) 0.67405(18)
N10 N 0.0743(4) 0.1447(9) 0.3142(3)
N11 N 0.0636(3) 0.5015(6) 0.5834(2)
C24 C 0.2662(3) 0.1375(6) 0.3879(2)
C25 C 0.3246(3) 0.2304(6) 0.3734(2)
H16 H 0.3311 0.3279 0.3895
C26 C 0.3729(3) 0.1754(6) 0.3345(2)
H17 H 0.4111 0.2391 0.3242
C27 C 0.2145(3) 0.1963(6) 0.4300(2)
C28 C 0.1398(3) 0.2070(6) 0.4174(2)
C29 C 0.0870(3) 0.2603(6) 0.4624(2)
H18 H 0.0519 0.3361 0.4434
C30 C 0.1350(3) 0.3372(6) 0.5133(2)
C31 C 0.2103(3) 0.3214(6) 0.5227(2)
C32 C 0.2909(3) 0.3986(7) 0.6794(2)
H19 H 0.2804 0.3722 0.7173
C33 C 0.2428(3) 0.3450(6) 0.6320(2)
H20 H 0.2014 0.2848 0.6381
C34 C 0.2580(3) 0.3832(6) 0.5751(2)
C35 C 0.3202(3) 0.4747(6) 0.5686(2)
H21 H 0.3322 0.5015 0.5311
C36 C 0.3640(3) 0.5254(6) 0.6185(2)
H22 H 0.4044 0.5899 0.6139
C37 C 0.1046(3) 0.1708(8) 0.3598(3)
C38 C 0.0969(3) 0.4295(6) 0.5527(2)
C39 C 0.0419(3) 0.1254(6) 0.4829(2)
C40 C 0.0755(3) 0.0169(7) 0.5212(3)
H23 H 0.1259 0.0270 0.5356
Cu4 Cu 0.43255(4) 0.53755(9) 0.74480(3)
N13 N 0.3507(2) 0.0149(5) 0.17405(18)
N16 N 0.4984(3) 0.1450(5) 0.2423(2)
C22 C 0.3110(3) 0.9465(7) 0.3263(3)
H14 H 0.3066 0.8481 0.3106
C23 C 0.2592(3) 0.9932(7) 0.3640(3)
H15 H 0.2207 0.9283 0.3729
C41 C 0.0338(3) 0.8914(6) 0.5385(3)
H24 H 0.0568 0.8189 0.5644
Cu2 Cu 0.43255(4) 0.96245(9) 0.24480(3)
N12 N 0.5016(3) 0.6450(5) 0.2577(2)
C42 C 0.4724(3) 0.7631(6) 0.2522(2)
Cu6 Cu 0.56745(4) 0.46245(9) 0.25520(3)
Cu1 Cu 0.56745(4) 0.03755(9) 0.75520(3)
N6 N 0.4984(3) 0.3550(5) 0.7423(2)
C1 C 0.6890(3) 0.0535(7) 0.6737(3)
H2 H 0.6934 0.1519 0.6894
C2 C 0.7408(3) 0.0068(7) 0.6360(3)
H3 H 0.7793 0.0717 0.6271
C20 C 0.9662(3) 0.1086(6) 0.4615(3)
H12 H 0.9432 0.1811 0.4356
C21 C 0.5276(3) 0.2369(6) 0.7478(2)
N1 N 0.6330(3) 0.9650(5) 0.68880(19)
N2 N 0.7501(2) 0.7555(5) 0.51665(18)
H1 H 0.7029 0.7736 0.5078
N3 N 0.6493(2) 0.5149(5) 0.32595(18)
N4 N 0.9257(4) 0.8553(9) 0.6858(3)
N5 N 0.9364(3) 0.4985(6) 0.4166(2)
C3 C 0.7338(3) 0.8625(6) 0.6121(2)
C4 C 0.6754(3) 0.7696(6) 0.6266(2)
H4 H 0.6689 0.6721 0.6105
C5 C 0.6271(3) 0.8246(6) 0.6655(2)
H5 H 0.5889 0.7609 0.6758
C6 C 0.7855(3) 0.8037(6) 0.5700(2)
C7 C 0.8602(3) 0.7930(6) 0.5826(2)
C8 C 0.9130(3) 0.7397(6) 0.5376(2)
H6 H 0.9481 0.6639 0.5566
C9 C 0.8650(3) 0.6628(6) 0.4867(2)
C10 C 0.7897(3) 0.6786(6) 0.4773(2)
C11 C 0.7091(3) 0.6014(7) 0.3206(2)
H7 H 0.7196 0.6278 0.2827
C12 C 0.7572(3) 0.6550(6) 0.3680(2)
H8 H 0.7986 0.7152 0.3619
C13 C 0.7420(3) 0.6168(6) 0.4249(2)
C14 C 0.6798(3) 0.5253(6) 0.4314(2)
H9 H 0.6678 0.4985 0.4689
C15 C 0.6360(3) 0.4746(6) 0.3815(2)
H10 H 0.5956 0.4101 0.3861
C16 C 0.8954(3) 0.8292(8) 0.6402(3)
C17 C 0.9031(3) 0.5705(6) 0.4473(2)
C18 C 0.9581(3) 0.8746(6) 0.5171(2)
C19 C 0.9245(3) 0.9831(7) 0.4788(3)
H11 H 0.8741 0.9730 0.4644
N14 N 0.6493(2) 0.9851(5) 0.82595(18)
N15 N 0.5016(3) 0.8550(5) 0.7577(2)
C9_2 C 0.1350(3) 0.1628(6) 0.0133(2)
C10_2 C 0.2103(3) 0.1786(6) 0.0227(2)
C11_2 C 0.2909(3) 0.1014(7) 0.1794(2)
H7_2 H 0.2804 0.1278 0.2173
C12_2 C 0.2428(3) 0.1550(6) 0.1320(2)
H8_2 H 0.2014 0.2152 0.1381
C13_2 C 0.2580(3) 0.1168(6) 0.0751(2)
C14_2 C 0.3202(3) 0.0253(6) 0.0686(2)
C17_2 C 0.0969(3) 0.0705(6) 0.0527(2)
C19_2 C 0.0755(3) 0.4831(7) 0.0212(3)
H11_2 H 0.1259 0.4730 0.0356
C20_2 C 0.0338(3) 0.6086(6) 0.0385(3)
H12_2 H 0.0568 0.6811 0.0644
N1_2 N 0.3670(3) 0.4650(5) 0.81120(19)
N2_2 N 0.2499(2) 0.2555(5) 0.98335(18)
H1_2 H 0.2971 0.2736 0.9922
N4_2 N 0.0743(4) 0.3553(9) 0.8142(3)
C1_2 C 0.3110(3) 0.5535(7) 0.8263(3)
H2_2 H 0.3066 0.6519 0.8106
C2_2 C 0.2592(3) 0.5068(7) 0.8640(3)
H3_2 H 0.2207 0.5717 0.8729
C3_2 C 0.2662(3) 0.3625(6) 0.8879(2)
C4_2 C 0.3246(3) 0.2696(6) 0.8734(2)
H4_2 H 0.3311 0.1721 0.8895
C5_2 C 0.3729(3) 0.3246(6) 0.8345(2)
H5_2 H 0.4111 0.2609 0.8242
C6_2 C 0.2145(3) 0.3037(6) 0.9300(2)
C7_2 C 0.1398(3) 0.2930(6) 0.9174(2)
C8_2 C 0.0870(3) 0.2397(6) 0.9624(2)
H6_2 H 0.0519 0.1639 0.9434
C16_2 C 0.1046(3) 0.3292(8) 0.8598(3)
C18_2 C 0.0419(3) 0.3746(6) 0.9829(2)
C21_2 C 0.4724(3) 0.7369(6) 0.7522(2)
N5_2 N 0.0636(3) 0.9985(6) 0.0834(2)
H9_2 H 0.3322 0.9985 0.0311
C15_2 C 0.3640(3) 0.9746(6) 0.1185(2)
H10_2 H 0.4044 0.9101 0.1139
N11_2 N 0.9364(3) 0.0015(6) 0.9166(2)
H21_2 H 0.6678 0.0015 0.9689
C36_2 C 0.6360(3) 0.0254(6) 0.8815(2)
H22_2 H 0.5956 0.0899 0.8861
N7_2 N 0.6330(3) 0.5350(5) 0.18880(19)
N8_2 N 0.7501(2) 0.7445(5) 0.01665(18)
H13_2 H 0.7029 0.7264 0.0078
N10_2 N 0.9257(4) 0.6447(9) 0.1858(3)
C22_2 C 0.6890(3) 0.4465(7) 0.1737(3)
H14_2 H 0.6934 0.3481 0.1894
C23_2 C 0.7408(3) 0.4932(7) 0.1360(3)
H15_2 H 0.7793 0.4283 0.1271
C24_2 C 0.7338(3) 0.6375(6) 0.1121(2)
C25_2 C 0.6754(3) 0.7304(6) 0.1266(2)
H16_2 H 0.6689 0.8279 0.1105
C26_2 C 0.6271(3) 0.6754(6) 0.1655(2)
H17_2 H 0.5889 0.7391 0.1758
C27_2 C 0.7855(3) 0.6963(6) 0.0700(2)
C28_2 C 0.8602(3) 0.7070(6) 0.0826(2)
C29_2 C 0.9130(3) 0.7603(6) 0.0376(2)
H18_2 H 0.9481 0.8361 0.0566
C37_2 C 0.8954(3) 0.6708(8) 0.1402(3)
C39_2 C 0.9581(3) 0.6254(6) 0.0171(2)
C42_2 C 0.5276(3) 0.2631(6) 0.2478(2)
C30_2 C 0.8650(3) 0.8372(6) 0.9867(2)
C31_2 C 0.7897(3) 0.8214(6) 0.9773(2)
C32_2 C 0.7091(3) 0.8986(7) 0.8206(2)
H19_2 H 0.7196 0.8722 0.7827
C33_2 C 0.7572(3) 0.8450(6) 0.8680(2)
H20_2 H 0.7986 0.7848 0.8619
C34_2 C 0.7420(3) 0.8832(6) 0.9249(2)
C35_2 C 0.6798(3) 0.9747(6) 0.9314(2)
C38_2 C 0.9031(3) 0.9295(6) 0.9473(2)
C40_2 C 0.9245(3) 0.5169(7) 0.9788(3)
H23_2 H 0.8741 0.5270 0.9644
C41_2 C 0.9662(3) 0.3914(6) 0.9615(3)
H24_2 H 0.9432 0.3189 0.9356
loop_
_geom_bond_atom_site_label_1
_geom_bond_atom_site_label_2
_geom_bond_site_symmetry_1
_geom_bond_site_symmetry_2
N8 H13 1_555 1_555
N9 C32 1_555 1_555
N10 C37 1_555 1_555
N11 C38 1_555 1_555
C25 C24 1_555 1_555
H16 C25 1_555 1_555
C26 N7 1_555 1_555
H17 C26 1_555 1_555
C27 N8 1_555 1_555
C28 C27 1_555 1_555
C29 C28 1_555 1_555
H18 C29 1_555 1_555
C30 C29 1_555 1_555
C31 N8 1_555 1_555
C32 H19 1_555 1_555
C33 C32 1_555 1_555
H20 C33 1_555 1_555
C34 C31 1_555 1_555
C35 C34 1_555 1_555
H21 C35 1_555 1_555
C36 N9 1_555 1_555
H22 C36 1_555 1_555
C37 C28 1_555 1_555
C38 C30 1_555 1_555
C40 C39 1_555 1_555
H23 C40 1_555 1_555
Cu4 N9 1_555 1_555
C24 C27 1_555 1_555
C25 C26 1_555 1_555
C29 C39 1_555 1_555
C30 C31 1_555 1_555
C33 C34 1_555 1_555
C35 C36 1_555 1_555
C22 H14 1_555 1_555
C23 C22 1_555 1_555
H15 C23 1_555 1_555
H24 C41 1_555 1_555
N12 C42 1_555 1_555
C42 Cu2 1_555 1_555
Cu6 N12 1_555 1_555
N6 C21 1_555 1_555
C1 H2 1_555 1_555
C2 C1 1_555 1_555
H3 C2 1_555 1_555
H12 C20 1_555 1_555
C21 Cu1 1_555 1_555
Cu4 N6 1_555 1_555
N2 H1 1_555 1_555
N3 C11 1_555 1_555
N4 C16 1_555 1_555
N5 C17 1_555 1_555
C4 C3 1_555 1_555
H4 C4 1_555 1_555
C5 N1 1_555 1_555
H5 C5 1_555 1_555
C6 N2 1_555 1_555
C7 C6 1_555 1_555
C8 C7 1_555 1_555
H6 C8 1_555 1_555
C9 C8 1_555 1_555
C10 N2 1_555 1_555
C11 H7 1_555 1_555
C12 C11 1_555 1_555
H8 C12 1_555 1_555
C13 C10 1_555 1_555
C14 C13 1_555 1_555
H9 C14 1_555 1_555
C15 N3 1_555 1_555
H10 C15 1_555 1_555
C16 C7 1_555 1_555
C17 C9 1_555 1_555
C18 C8 1_555 1_555
C19 C18 1_555 1_555
H11 C19 1_555 1_555
Cu6 N3 1_555 1_555
C3 C6 1_555 1_555
C4 C5 1_555 1_555
C9 C10 1_555 1_555
C12 C13 1_555 1_555
C14 C15 1_555 1_555
N13 C11_2 1_555 1_555
C11_2 H7_2 1_555 1_555
C12_2 C11_2 1_555 1_555
H8_2 C12_2 1_555 1_555
C13_2 C10_2 1_555 1_555
C14_2 C13_2 1_555 1_555
C17_2 C9_2 1_555 1_555
H11_2 C19_2 1_555 1_555
C20_2 C19_2 1_555 1_555
H12_2 C20_2 1_555 1_555
C9_2 C10_2 1_555 1_555
C12_2 C13_2 1_555 1_555
Cu4 N1_2 1_555 1_555
N1_2 C1_2 1_555 1_555
N2_2 H1_2 1_555 1_555
N4_2 C16_2 1_555 1_555
N15 C21_2 1_555 1_555
C1_2 H2_2 1_555 1_555
C2_2 C1_2 1_555 1_555
H3_2 C2_2 1_555 1_555
C3_2 C2_2 1_555 1_555
C4_2 C3_2 1_555 1_555
H4_2 C4_2 1_555 1_555
C5_2 N1_2 1_555 1_555
H5_2 C5_2 1_555 1_555
C6_2 N2_2 1_555 1_555
C7_2 C6_2 1_555 1_555
C8_2 C7_2 1_555 1_555
H6_2 C8_2 1_555 1_555
C16_2 C7_2 1_555 1_555
C18_2 C8_2 1_555 1_555
C21_2 Cu4 1_555 1_555
C3_2 C6_2 1_555 1_555
C4_2 C5_2 1_555 1_555
H10_2 C15_2 1_555 1_555
H22_2 C36_2 1_555 1_555
N7_2 C22_2 1_555 1_555
N8_2 H13_2 1_555 1_555
N10_2 C37_2 1_555 1_555
C22_2 H14_2 1_555 1_555
C23_2 C22_2 1_555 1_555
H15_2 C23_2 1_555 1_555
C24_2 C23_2 1_555 1_555
C25_2 C24_2 1_555 1_555
H16_2 C25_2 1_555 1_555
C26_2 N7_2 1_555 1_555
H17_2 C26_2 1_555 1_555
C27_2 N8_2 1_555 1_555
C28_2 C27_2 1_555 1_555
C29_2 C28_2 1_555 1_555
H18_2 C29_2 1_555 1_555
C37_2 C28_2 1_555 1_555
Cu6 N7_2 1_555 1_555
N16 C42_2 1_555 1_555
C42_2 Cu6 1_555 1_555
C24_2 C27_2 1_555 1_555
C25_2 C26_2 1_555 1_555
C29_2 C39_2 1_555 1_555
N14 C32_2 1_555 1_555
C32_2 H19_2 1_555 1_555
C33_2 C32_2 1_555 1_555
H20_2 C33_2 1_555 1_555
C34_2 C31_2 1_555 1_555
C35_2 C34_2 1_555 1_555
C38_2 C30_2 1_555 1_555
H23_2 C40_2 1_555 1_555
H24_2 C41_2 1_555 1_555
C30_2 C31_2 1_555 1_555
C33_2 C34_2 1_555 1_555
C40_2 C41_2 1_555 1_555

#END
