
###############################################################################
#
# This file contains modified crystal structure data generated from the
# MOF subset of the Cambridge Structural Database (CSD) v543 
# hosted by the Cambridge Crystallographic Data Centre (CCDC).
#
# This work is licensed under the Creative Commons
# Attribution-NonCommercial-ShareAlike 4.0 International License.
# To view a copy of this license, visit
# http://creativecommons.org/licenses/by-nc-sa/4.0/
# or send a letter to
# Creative Commons, PO Box 1866, Mountain View, CA 94042, USA.
#
# CIF created using the CSD Python API on 29 September 2022
# The structure has been converted into the P1 space group
# The structure has a 3D framework
# The original CSD entry HALVAU is in the triclinic crystal system
# The framework has been calculated to contain at least 10.0% void space
# The void calculation uses a probe of radius 1.32A, grid spacing 0.4
#
###############################################################################

data_HALVAU
_chemical_formula_moiety         '(C56 H60 N4 Ni4 O26)n'
_symmetry_cell_setting           triclinic
_symmetry_space_group_name_H-M   'P 1'
_symmetry_Int_Tables_number      1
_space_group_name_Hall           'P 1'
loop_
_symmetry_equiv_pos_site_id
_symmetry_equiv_pos_as_xyz
1 x,y,z
_cell_length_a                   10.070(3)
_cell_length_b                   13.107(5)
_cell_length_c                   15.216(5)
_cell_angle_alpha                78.420(8)
_cell_angle_beta                 76.527(9)
_cell_angle_gamma                68.204(8)
_cell_volume                     1798.86
loop_
_atom_site_label
_atom_site_type_symbol
_atom_site_fract_x
_atom_site_fract_y
_atom_site_fract_z
_atom_site_U_iso_or_equiv
_atom_site_thermal_displace_type
Ni1 Ni 0.01571(3) 0.57777(3) 0.34037(2) 0.0185 Uani
C23 C 0.1839(4) 0.3509(3) 0.3117(2) 0.0355 Uani
H11 H 0.2258 0.3894 0.2618 0.0430 Uiso
C24 C 0.3145(6) 0.1903(4) 0.2347(3) 0.0671 Uani
H12 H 0.3500 0.2428 0.1917 0.0800 Uiso
H13 H 0.2641 0.1609 0.2055 0.0800 Uiso
H14 H 0.3947 0.1311 0.2566 0.0800 Uiso
C25 C 0.1521(6) 0.1801(4) 0.3837(3) 0.0725 Uani
H15 H 0.1431 0.2053 0.4406 0.0870 Uiso
H16 H 0.2127 0.1036 0.3853 0.0870 Uiso
H17 H 0.0577 0.1881 0.3740 0.0870 Uiso
N1 N 0.2158(3) 0.2448(2) 0.3109(2) 0.0412 Uani
O9 O 0.1022(2) 0.40384(17) 0.37404(14) 0.0312 Uani
O11 O 0.0683(2) 0.60826(18) 0.45249(14) 0.0281 Uani
H25 H 0.1419 0.5716 0.4777 0.0340 Uiso
H27 H 0.0136 0.7445 0.2597 0.0250 Uiso
H32 H 0.3842 0.3803 0.0320 0.0400 Uiso
C37 C 0.0951(3) 0.5193(2) 0.04014(19) 0.0233 Uani
H35 H 0.1591 0.5327 0.0679 0.0280 Uiso
O27 O 0.2180(2) 0.56941(18) 0.27525(14) 0.0298 Uani
C29 C 0.7520(3) 0.3708(3) 0.7964(2) 0.0259 Uani
C30 C 0.5952(3) 0.4001(3) 0.8388(2) 0.0259 Uani
C31 C 0.5547(3) 0.3729(3) 0.9308(2) 0.0350 Uani
H31 H 0.6255 0.3373 0.9671 0.0420 Uiso
C32 C 0.4098(3) 0.3979(3) 0.9695(2) 0.0334 Uani
C33 C 0.4891(3) 0.4535(3) 0.7866(2) 0.0328 Uani
H33 H 0.5151 0.4749 0.7249 0.0390 Uiso
C34 C 0.3449(3) 0.4757(3) 0.8245(2) 0.0301 Uani
H34 H 0.2745 0.5095 0.7876 0.0360 Uiso
C35 C 0.3030(3) 0.4482(2) 0.91764(19) 0.0223 Uani
C36 C 0.1476(3) 0.4723(2) 0.95945(19) 0.0214 Uani
C38 C 0.0497(3) 0.4533(2) 0.91943(19) 0.0215 Uani
C39 C 0.0935(3) 0.3999(2) 0.83387(18) 0.0201 Uani
O14 O 0.8416(2) 0.28945(19) 0.83369(16) 0.0368 Uani
O15 O 0.7820(2) 0.43059(18) 0.72475(14) 0.0298 Uani
O16 O 0.1875(2) 0.30459(17) 0.83494(13) 0.0262 Uani
O17 O 0.0293(2) 0.45582(17) 0.77014(13) 0.0263 Uani
Ni7 Ni 0.98429(3) 0.42223(3) 0.65963(2) 0.0185 Uani
Ni10 Ni 0.26229(4) 0.19755(3) 0.73966(2) 0.0195 Uani
C50 C 0.2582(3) 0.0516(2) 0.6166(2) 0.0273 Uani
O20 O 0.1331(3) 0.11208(18) 0.60231(17) 0.0408 Uani
O21 O 0.3358(2) 0.07376(17) 0.65742(15) 0.0312 Uani
Ni2 Ni 0.73771(4) 0.80245(3) 0.26034(2) 0.0195 Uani
C1 C 0.2480(3) 0.6292(3) 0.2036(2) 0.0259 Uani
C2 C 0.4048(3) 0.5999(3) 0.1612(2) 0.0259 Uani
C3 C 0.4453(3) 0.6271(3) 0.0692(2) 0.0350 Uani
H1 H 0.3745 0.6627 0.0329 0.0420 Uiso
C4 C 0.5902(3) 0.6021(3) 0.0305(2) 0.0334 Uani
C5 C 0.5109(3) 0.5465(3) 0.2134(2) 0.0328 Uani
H3 H 0.4849 0.5251 0.2751 0.0390 Uiso
C6 C 0.6551(3) 0.5243(3) 0.1755(2) 0.0301 Uani
H4 H 0.7255 0.4905 0.2124 0.0360 Uiso
C7 C 0.6970(3) 0.5518(2) 0.08236(19) 0.0223 Uani
C8 C 0.8524(3) 0.5277(2) 0.04055(19) 0.0214 Uani
C10 C 0.9503(3) 0.5467(2) 0.08057(19) 0.0215 Uani
C11 C 0.9065(3) 0.6001(2) 0.16613(18) 0.0201 Uani
C12 C 0.6971(3) 0.6173(2) 0.40770(18) 0.0176 Uani
C13 C 0.5937(3) 0.5594(2) 0.45945(18) 0.0181 Uani
C14 C 0.6300(3) 0.4497(2) 0.44842(18) 0.0189 Uani
H6 H 0.7192 0.4153 0.4135 0.0230 Uiso
C15 C 0.5394(3) 0.3884(2) 0.48709(18) 0.0185 Uani
C16 C 0.5856(3) 0.2724(2) 0.46698(19) 0.0216 Uani
C17 C 0.7297(3) 0.2041(3) 0.4665(2) 0.0296 Uani
H7 H 0.7943 0.2297 0.4827 0.0350 Uiso
C18 C 0.7770(3) 0.0992(2) 0.4424(2) 0.0313 Uani
H8 H 0.8733 0.0543 0.4429 0.0380 Uiso
C19 C 0.4923(3) 0.2312(3) 0.4444(2) 0.0294 Uani
H9 H 0.3951 0.2748 0.4460 0.0350 Uiso
C20 C 0.5410(3) 0.1259(3) 0.4195(2) 0.0308 Uani
H10 H 0.4767 0.0995 0.4039 0.0370 Uiso
C21 C 0.6848(3) 0.0597(2) 0.4175(2) 0.0246 Uani
C26 C 0.4288(3) 0.8691(3) 0.2662(2) 0.0355 Uani
H18 H 0.4302 0.8524 0.3284 0.0430 Uiso
C27 C 0.2962(5) 0.9166(4) 0.1436(3) 0.0585 Uani
H19 H 0.3755 0.9398 0.1097 0.0700 Uiso
H20 H 0.2059 0.9739 0.1340 0.0700 Uiso
H21 H 0.3016 0.8501 0.1233 0.0700 Uiso
C28 C 0.1738(4) 0.8960(4) 0.3039(3) 0.0680 Uani
H22 H 0.1639 0.8244 0.3123 0.0820 Uiso
H23 H 0.0912 0.9510 0.2810 0.0820 Uiso
H24 H 0.1794 0.9129 0.3612 0.0820 Uiso
N2 N 0.3049(3) 0.8949(3) 0.2396(2) 0.0412 Uani
O1 O 0.1584(2) 0.71055(19) 0.16631(16) 0.0368 Uani
O3 O 0.8125(2) 0.69541(17) 0.16506(13) 0.0262 Uani
O4 O 0.9707(2) 0.54418(17) 0.22986(13) 0.0263 Uani
O5 O 0.8265(2) 0.56983(16) 0.41990(13) 0.0237 Uani
O6 O 0.6499(2) 0.70293(16) 0.35602(14) 0.0249 Uani
O10 O 0.5443(2) 0.86522(18) 0.21441(15) 0.0318 Uani
H26 H 0.9951 0.6277 0.4945 0.0340 Uiso
O12 O 0.93637(19) 0.74297(15) 0.29644(13) 0.0207 Uani
H28 H 0.9290 0.7755 0.3413 0.0250 Uiso
O13 O 0.8112(3) 0.9161(2) 0.15849(17) 0.0442 Uani
H29 H 0.7307 0.9053 0.1673 0.0530 Uiso
H30 H 0.8282 0.9182 0.2101 0.0530 Uiso
C40 C 0.3029(3) 0.3827(2) 0.59230(18) 0.0176 Uani
C41 C 0.4063(3) 0.4406(2) 0.54055(18) 0.0181 Uani
C42 C 0.3700(3) 0.5503(2) 0.55158(18) 0.0189 Uani
H36 H 0.2808 0.5847 0.5865 0.0230 Uiso
C43 C 0.4606(3) 0.6116(2) 0.51291(18) 0.0185 Uani
C44 C 0.4144(3) 0.7276(2) 0.53302(19) 0.0216 Uani
C45 C 0.2703(3) 0.7959(3) 0.5335(2) 0.0296 Uani
H37 H 0.2057 0.7703 0.5173 0.0350 Uiso
C46 C 0.2230(3) 0.9008(2) 0.5576(2) 0.0313 Uani
H38 H 0.1267 0.9457 0.5571 0.0380 Uiso
C47 C 0.5077(3) 0.7688(3) 0.5556(2) 0.0294 Uani
H39 H 0.6049 0.7252 0.5540 0.0350 Uiso
C48 C 0.4590(3) 0.8741(3) 0.5805(2) 0.0308 Uani
H40 H 0.5233 0.9005 0.5961 0.0370 Uiso
C49 C 0.3152(3) 0.9403(2) 0.5825(2) 0.0246 Uani
O18 O 0.1735(2) 0.43017(16) 0.58010(13) 0.0237 Uani
O19 O 0.3501(2) 0.29707(16) 0.64398(14) 0.0249 Uani
C54 C 0.5712(3) 0.1309(3) 0.7338(2) 0.0355 Uani
H48 H 0.5698 0.1476 0.6716 0.0430 Uiso
C55 C 0.7038(5) 0.0834(4) 0.8564(3) 0.0585 Uani
H49 H 0.6245 0.0602 0.8903 0.0700 Uiso
H50 H 0.7941 0.0261 0.8660 0.0700 Uiso
H51 H 0.6984 0.1499 0.8767 0.0700 Uiso
C56 C 0.8262(4) 0.1040(4) 0.6961(3) 0.0680 Uani
H52 H 0.8361 0.1756 0.6877 0.0820 Uiso
H53 H 0.9088 0.0490 0.7190 0.0820 Uiso
H54 H 0.8206 0.0871 0.6388 0.0820 Uiso
N4 N 0.6951(3) 0.1051(3) 0.7604(2) 0.0412 Uani
O23 O 0.4557(2) 0.13478(18) 0.78559(15) 0.0318 Uani
H56 H 0.0049 0.3723 0.5055 0.0340 Uiso
O25 O 0.06363(19) 0.25703(15) 0.70356(13) 0.0207 Uani
H58 H 0.0710 0.2245 0.6587 0.0250 Uiso
O26 O 0.1888(3) 0.0839(2) 0.84151(17) 0.0442 Uani
H59 H 0.2693 0.0947 0.8327 0.0530 Uiso
H60 H 0.1718 0.0818 0.7899 0.0530 Uiso
O31 O 0.6642(2) 0.92624(17) 0.34258(15) 0.0312 Uani
H2 H 0.6158 0.6197 0.9680 0.0400 Uiso
C9 C 0.9049(3) 0.4807(2) 0.95986(19) 0.0233 Uani
H5 H 0.8409 0.4673 0.9321 0.0280 Uiso
C22 C 0.7418(3) 0.9484(2) 0.3834(2) 0.0273 Uani
O7 O 0.8669(3) 0.88792(18) 0.39769(17) 0.0408 Uani
C51 C 0.8161(4) 0.6491(3) 0.6883(2) 0.0355 Uani
H41 H 0.7742 0.6106 0.7382 0.0430 Uiso
C52 C 0.6855(6) 0.8097(4) 0.7653(3) 0.0671 Uani
H42 H 0.6500 0.7572 0.8083 0.0800 Uiso
H43 H 0.7359 0.8391 0.7945 0.0800 Uiso
H44 H 0.6053 0.8689 0.7434 0.0800 Uiso
C53 C 0.8479(6) 0.8199(4) 0.6163(3) 0.0725 Uani
H45 H 0.8569 0.7947 0.5594 0.0870 Uiso
H46 H 0.7873 0.8964 0.6147 0.0870 Uiso
H47 H 0.9423 0.8119 0.6260 0.0870 Uiso
N3 N 0.7842(3) 0.7552(2) 0.6891(2) 0.0412 Uani
O22 O 0.8978(2) 0.59616(17) 0.62596(14) 0.0312 Uani
O24 O 0.9317(2) 0.39174(18) 0.54751(14) 0.0281 Uani
H55 H 0.8581 0.4284 0.5223 0.0340 Uiso
H57 H 0.9864 0.2555 0.7403 0.0250 Uiso
loop_
_atom_site_aniso_label
_atom_site_aniso_U_11
_atom_site_aniso_U_22
_atom_site_aniso_U_33
_atom_site_aniso_U_23
_atom_site_aniso_U_13
_atom_site_aniso_U_12
Ni1 0.01504 0.02238 0.01734 -0.00498 0.00181 -0.00712
C23 0.0419 0.0299 0.0277 -0.0041 0.0019 -0.0088
C24 0.084 0.048 0.056 -0.026 0.002 -0.006
C25 0.085 0.048 0.078 -0.014 0.019 -0.032
N1 0.0467 0.0338 0.037 -0.0122 0.0009 -0.0079
O9 0.0324 0.026 0.0261 -0.0038 0.0013 -0.0031
O11 0.0257 0.0374 0.0215 -0.0064 -0.0029 -0.0103
C37 0.0178 0.0337 0.0217 -0.0131 0.0017 -0.0108
O27 0.0163 0.0367 0.0302 -0.0015 0.0044 -0.0085
C29 0.0165 0.034 0.0266 -0.0097 0.0048 -0.0101
C30 0.0162 0.0336 0.026 -0.0089 0.0058 -0.0095
C31 0.0187 0.055 0.0265 -0.0024 -0.0006 -0.0104
C32 0.0224 0.056 0.0193 -0.0062 0.0036 -0.0142
C33 0.0225 0.049 0.0222 -0.0028 0.004 -0.0126
C34 0.0187 0.0452 0.0241 -0.0037 -0.0007 -0.0105
C35 0.0168 0.0297 0.0228 -0.0121 0.0031 -0.01
C36 0.0168 0.0285 0.0196 -0.0099 0.0024 -0.0083
C38 0.0207 0.0247 0.018 -0.0076 0.0029 -0.0076
C39 0.017 0.0264 0.0182 -0.0091 0.0038 -0.0098
O14 0.0191 0.0412 0.0378 0.0033 0.0039 -0.0058
O15 0.0163 0.0367 0.0302 -0.0015 0.0044 -0.0085
O16 0.0245 0.0287 0.0237 -0.0122 -0.0007 -0.0048
O17 0.0314 0.027 0.02 -0.0087 -0.0045 -0.0066
Ni7 0.01504 0.02238 0.01734 -0.00498 0.00181 -0.00712
Ni10 0.01829 0.01793 0.02139 -0.00549 0.00148 -0.00652
C50 0.0289 0.0231 0.0292 -0.0123 0.0035 -0.0086
O20 0.0368 0.0303 0.0564 -0.0245 -0.0138 0.0005
O21 0.0276 0.0279 0.0407 -0.0208 0.0008 -0.0081
Ni2 0.01829 0.01793 0.02139 -0.00549 0.00148 -0.00652
C1 0.0165 0.034 0.0266 -0.0097 0.0048 -0.0101
C2 0.0162 0.0336 0.026 -0.0089 0.0058 -0.0095
C3 0.0187 0.055 0.0265 -0.0024 -0.0006 -0.0104
C4 0.0224 0.056 0.0193 -0.0062 0.0036 -0.0142
C5 0.0225 0.049 0.0222 -0.0028 0.004 -0.0126
C6 0.0187 0.0452 0.0241 -0.0037 -0.0007 -0.0105
C7 0.0168 0.0297 0.0228 -0.0121 0.0031 -0.01
C8 0.0168 0.0285 0.0196 -0.0099 0.0024 -0.0083
C10 0.0207 0.0247 0.018 -0.0076 0.0029 -0.0076
C11 0.017 0.0264 0.0182 -0.0091 0.0038 -0.0098
C12 0.0173 0.0175 0.0178 -0.0096 0.0039 -0.0061
C13 0.016 0.0199 0.0185 -0.0062 0.0011 -0.0067
C14 0.017 0.0189 0.0191 -0.0061 0.0023 -0.0055
C15 0.0156 0.0205 0.0197 -0.0062 0.0019 -0.0076
C16 0.02 0.0183 0.0241 -0.0064 0.0034 -0.0063
C17 0.0214 0.0282 0.0415 -0.0148 -0.0003 -0.0089
C18 0.0223 0.0231 0.047 -0.0155 -0.0025 -0.0024
C19 0.0214 0.028 0.0409 -0.017 0.0005 -0.0078
C20 0.0254 0.0279 0.0435 -0.014 -0.0022 -0.0114
C21 0.0269 0.0191 0.0272 -0.0097 0.003 -0.0083
C26 0.0284 0.0364 0.035 -0.0012 -0.0048 -0.0055
C27 0.052 0.069 0.059 0.003 -0.022 -0.024
C28 0.034 0.096 0.074 -0.019 0.006 -0.027
N2 0.0289 0.048 0.0463 -0.0026 -0.0079 -0.0135
O1 0.0191 0.0412 0.0378 0.0033 0.0039 -0.0058
O3 0.0245 0.0287 0.0237 -0.0122 -0.0007 -0.0048
O4 0.0314 0.027 0.02 -0.0087 -0.0045 -0.0066
O5 0.0179 0.0274 0.0245 0.0012 -0.0006 -0.0104
O6 0.021 0.0215 0.0285 0.0011 0.0011 -0.0085
O10 0.0228 0.034 0.0344 -0.0023 -0.0041 -0.0065
O12 0.0187 0.0213 0.0225 -0.0076 0.0026 -0.0084
O13 0.0496 0.046 0.0404 0.0061 -0.0045 -0.0282
C40 0.0173 0.0175 0.0178 -0.0096 0.0039 -0.0061
C41 0.016 0.0199 0.0185 -0.0062 0.0011 -0.0067
C42 0.017 0.0189 0.0191 -0.0061 0.0023 -0.0055
C43 0.0156 0.0205 0.0197 -0.0062 0.0019 -0.0076
C44 0.02 0.0183 0.0241 -0.0064 0.0034 -0.0063
C45 0.0214 0.0282 0.0415 -0.0148 -0.0003 -0.0089
C46 0.0223 0.0231 0.047 -0.0155 -0.0025 -0.0024
C47 0.0214 0.028 0.0409 -0.017 0.0005 -0.0078
C48 0.0254 0.0279 0.0435 -0.014 -0.0022 -0.0114
C49 0.0269 0.0191 0.0272 -0.0097 0.003 -0.0083
O18 0.0179 0.0274 0.0245 0.0012 -0.0006 -0.0104
O19 0.021 0.0215 0.0285 0.0011 0.0011 -0.0085
C54 0.0284 0.0364 0.035 -0.0012 -0.0048 -0.0055
C55 0.052 0.069 0.059 0.003 -0.022 -0.024
C56 0.034 0.096 0.074 -0.019 0.006 -0.027
N4 0.0289 0.048 0.0463 -0.0026 -0.0079 -0.0135
O23 0.0228 0.034 0.0344 -0.0023 -0.0041 -0.0065
O25 0.0187 0.0213 0.0225 -0.0076 0.0026 -0.0084
O26 0.0496 0.046 0.0404 0.0061 -0.0045 -0.0282
O31 0.0276 0.0279 0.0407 -0.0208 0.0008 -0.0081
C9 0.0178 0.0337 0.0217 -0.0131 0.0017 -0.0108
C22 0.0289 0.0231 0.0292 -0.0123 0.0035 -0.0086
O7 0.0368 0.0303 0.0564 -0.0245 -0.0138 0.0005
C51 0.0419 0.0299 0.0277 -0.0041 0.0019 -0.0088
C52 0.084 0.048 0.056 -0.026 0.002 -0.006
C53 0.085 0.048 0.078 -0.014 0.019 -0.032
N3 0.0467 0.0338 0.037 -0.0122 0.0009 -0.0079
O22 0.0324 0.026 0.0261 -0.0038 0.0013 -0.0031
O24 0.0257 0.0374 0.0215 -0.0064 -0.0029 -0.0103
loop_
_geom_bond_atom_site_label_1
_geom_bond_atom_site_label_2
_geom_bond_site_symmetry_1
_geom_bond_site_symmetry_2
C23 H11 1_555 1_555
C24 H12 1_555 1_555
H13 C24 1_555 1_555
H14 C24 1_555 1_555
C25 H15 1_555 1_555
H16 C25 1_555 1_555
H17 C25 1_555 1_555
N1 C23 1_555 1_555
O9 Ni1 1_555 1_555
O11 Ni1 1_555 1_555
H25 O11 1_555 1_555
H35 C37 1_555 1_555
O27 Ni1 1_555 1_555
C23 O9 1_555 1_555
C24 N1 1_555 1_555
C25 N1 1_555 1_555
C29 C30 1_555 1_555
C30 C31 1_555 1_555
C31 H31 1_555 1_555
C32 C31 1_555 1_555
C33 C30 1_555 1_555
H33 C33 1_555 1_555
C34 C33 1_555 1_555
H34 C34 1_555 1_555
C35 C32 1_555 1_555
C36 C35 1_555 1_555
C39 C38 1_555 1_555
O14 C29 1_555 1_555
O15 C29 1_555 1_555
O16 C39 1_555 1_555
O17 C39 1_555 1_555
Ni7 O15 1_555 1_555
Ni10 O16 1_555 1_555
C34 C35 1_555 1_555
C36 C38 1_555 1_555
O20 C50 1_555 1_555
O21 C50 1_555 1_555
Ni10 O21 1_555 1_555
Ni2 O3 1_555 1_555
C1 C2 1_555 1_555
C2 C3 1_555 1_555
C3 H1 1_555 1_555
C4 C3 1_555 1_555
C5 C2 1_555 1_555
H3 C5 1_555 1_555
C6 C5 1_555 1_555
H4 C6 1_555 1_555
C7 C4 1_555 1_555
C8 C7 1_555 1_555
C10 C8 1_555 1_555
C11 C10 1_555 1_555
C12 C13 1_555 1_555
C13 C14 1_555 1_555
C14 H6 1_555 1_555
C15 C14 1_555 1_555
C16 C15 1_555 1_555
C17 C16 1_555 1_555
H7 C17 1_555 1_555
C18 C17 1_555 1_555
H8 C18 1_555 1_555
C19 C16 1_555 1_555
H9 C19 1_555 1_555
C20 C19 1_555 1_555
H10 C20 1_555 1_555
C21 C18 1_555 1_555
C26 H18 1_555 1_555
C27 H19 1_555 1_555
H20 C27 1_555 1_555
H21 C27 1_555 1_555
C28 H22 1_555 1_555
H23 C28 1_555 1_555
H24 C28 1_555 1_555
N2 C26 1_555 1_555
O1 C1 1_555 1_555
O27 C1 1_555 1_555
O3 C11 1_555 1_555
O4 C11 1_555 1_555
O6 Ni2 1_555 1_555
O10 Ni2 1_555 1_555
H28 O12 1_555 1_555
O13 Ni2 1_555 1_555
H29 O13 1_555 1_555
H30 O13 1_555 1_555
C40 C41 1_555 1_555
C41 C15 1_555 1_555
C42 C41 1_555 1_555
H36 C42 1_555 1_555
C43 C13 1_555 1_555
C44 C43 1_555 1_555
C45 C44 1_555 1_555
H37 C45 1_555 1_555
C46 C45 1_555 1_555
H38 C46 1_555 1_555
C47 C44 1_555 1_555
H39 C47 1_555 1_555
C48 C47 1_555 1_555
H40 C48 1_555 1_555
C49 C46 1_555 1_555
O18 C40 1_555 1_555
O19 C40 1_555 1_555
Ni10 O19 1_555 1_555
C54 H48 1_555 1_555
C55 H49 1_555 1_555
H50 C55 1_555 1_555
H51 C55 1_555 1_555
C56 H52 1_555 1_555
H53 C56 1_555 1_555
H54 C56 1_555 1_555
N4 C54 1_555 1_555
O23 Ni10 1_555 1_555
H58 O25 1_555 1_555
O26 Ni10 1_555 1_555
H59 O26 1_555 1_555
H60 O26 1_555 1_555
O31 Ni2 1_555 1_555
Ni2 O12 1_555 1_555
C6 C7 1_555 1_555
C12 O5 1_555 1_555
C12 O6 1_555 1_555
C20 C21 1_555 1_555
C26 O10 1_555 1_555
C27 N2 1_555 1_555
C28 N2 1_555 1_555
C42 C43 1_555 1_555
C48 C49 1_555 1_555
Ni10 O25 1_555 1_555
C54 O23 1_555 1_555
C55 N4 1_555 1_555
C56 N4 1_555 1_555
H5 C9 1_555 1_555
O7 C22 1_555 1_555
O31 C22 1_555 1_555
C51 H41 1_555 1_555
C52 H42 1_555 1_555
H43 C52 1_555 1_555
H44 C52 1_555 1_555
C53 H45 1_555 1_555
H46 C53 1_555 1_555
H47 C53 1_555 1_555
N3 C51 1_555 1_555
O22 Ni7 1_555 1_555
O24 Ni7 1_555 1_555
H55 O24 1_555 1_555
C51 O22 1_555 1_555
C52 N3 1_555 1_555
C53 N3 1_555 1_555

#END
