
###############################################################################
#
# This file contains modified crystal structure data generated from the
# MOF subset of the Cambridge Structural Database (CSD) v543 
# hosted by the Cambridge Crystallographic Data Centre (CCDC).
#
# This work is licensed under the Creative Commons
# Attribution-NonCommercial-ShareAlike 4.0 International License.
# To view a copy of this license, visit
# http://creativecommons.org/licenses/by-nc-sa/4.0/
# or send a letter to
# Creative Commons, PO Box 1866, Mountain View, CA 94042, USA.
#
# CIF created using the CSD Python API on 29 September 2022
# The structure has been converted into the P1 space group
# The structure has a 3D framework
# The original CSD entry HAMLIT is in the triclinic crystal system
# The framework has been calculated to contain at least 10.0% void space
# The void calculation uses a probe of radius 1.32A, grid spacing 0.4
# The framework is charged, counterions have been retained in the structure
# H atom positions have been added when not included in the experimental data
# Generated hydrogen atom positions removed from atoms on special positions
#
###############################################################################

data_HAMLIT
_chemical_formula_moiety         '(C120 H66 N36 O40 Zn8 2-)n'
_symmetry_cell_setting           triclinic
_symmetry_space_group_name_H-M   'P 1'
_symmetry_Int_Tables_number      1
_space_group_name_Hall           'P 1'
loop_
_symmetry_equiv_pos_site_id
_symmetry_equiv_pos_as_xyz
1 x,y,z
_cell_length_a                   12.1467(4)
_cell_length_b                   18.1091(7)
_cell_length_c                   24.1338(9)
_cell_angle_alpha                107.541(2)
_cell_angle_beta                 98.670(2)
_cell_angle_gamma                91.332(2)
_cell_volume                     4990.63
loop_
_atom_site_label
_atom_site_type_symbol
_atom_site_fract_x
_atom_site_fract_y
_atom_site_fract_z
C45 C 0.0308(3) 0.0306(2) 0.83260(15)
O17 O 0.0769(2) 0.00679(19) 0.78882(12)
O18 O 0.08294(18) 0.07439(15) 0.88149(11)
Zn16 Zn 0.23687(3) 0.07623(3) 0.861116(18)
N7 N 0.0658(2) 0.39507(19) 0.10799(14)
H22 H 0.1183 0.3832 0.0859
H23 H 0.0789 0.4333 0.1414
O12 O 0.0123(2) 0.57009(17) 0.18346(13)
O43 O 0.1070(2) 0.57044(18) 0.30931(13)
O45 O 0.11028(19) 0.45994(16) 0.24050(11)
H56 H 0.0615239 0.616853 0.20742
Zn14 Zn 0.04431(3) 0.48758(3) 0.75976(2)
Zn9 Zn 0.65469(3) 0.16436(3) 0.027063(18)
C40 C 0.6835(3) 0.0360(2) 0.92594(14)
C41 C 0.7460(3) 0.00651(19) 0.87428(14)
C42 C 0.8551(3) 0.0341(2) 0.87732(14)
H16 H 0.8914 0.0727 0.9119
C46 C 0.9116(3) 0.0055(2) 0.83006(15)
O13 O 0.72375(19) 0.10193(15) 0.96247(11)
C1 C 0.8555(3) 0.9512(2) 0.77810(15)
H1 H 0.8921 0.9329 0.7449
C2 C 0.7467(3) 0.9245(2) 0.77549(15)
C3 C 0.6918(3) 0.9508(2) 0.82390(15)
H2 H 0.6181 0.9307 0.8223
C4 C 0.6205(3) 0.8974(2) 0.68266(16)
C5 C 0.5770(3) 0.8432(2) 0.62361(16)
C6 C 0.6070(3) 0.7643(2) 0.60935(16)
C7 C 0.6721(3) 0.7369(2) 0.65075(17)
C8 C 0.7170(4) 0.7909(3) 0.71002(19)
C9 C 0.6969(4) 0.6602(3) 0.63613(19)
H3 H 0.7393 0.6415 0.6648
C10 C 0.6601(4) 0.6099(3) 0.5795(2)
H4 H 0.6788 0.5574 0.5696
C11 C 0.5965(3) 0.6361(2) 0.53752(16)
C12 C 0.5692(3) 0.7144(2) 0.55186(16)
C13 C 0.5062(3) 0.7422(2) 0.50966(15)
C14 C 0.4755(3) 0.8181(2) 0.52587(18)
H5 H 0.4313 0.8366 0.4976
C15 C 0.5085(4) 0.8673(2) 0.58296(18)
H6 H 0.4833 0.9182 0.5939
C16 C 0.4738(3) 0.6911(2) 0.44862(16)
C17 C 0.5567(3) 0.5816(2) 0.47796(17)
C18 C 0.4424(3) 0.5606(2) 0.38001(15)
C19 C 0.3295(3) 0.5608(2) 0.36153(16)
H7 H 0.2858 0.5945 0.3863
C20 C 0.2797(3) 0.5123(2) 0.30725(16)
C21 C 0.3448(3) 0.4617(2) 0.27140(15)
H8 H 0.3111 0.4275 0.2341
C22 C 0.4587(3) 0.4616(2) 0.29052(15)
C23 C 0.5086(3) 0.5119(2) 0.34471(15)
H9 H 0.5867 0.5130 0.3575
C24 C 0.5274(3) 0.4072(2) 0.25285(15)
C26 C 0.1571(3) 0.5148(2) 0.28452(17)
C27 C 0.7599(3) 0.4048(2) 0.18107(16)
H10 H 0.7271 0.4331 0.2137
C28 C 0.7807(3) 0.3191(2) 0.10077(14)
C29 C 0.8767(3) 0.3691(2) 0.12242(15)
C30 C 0.9668(3) 0.3553(2) 0.09083(15)
C31 C 0.8563(3) 0.2527(2) 0.02243(15)
C32 C 0.5449(3) 0.2088(2) 0.22319(17)
H12 H 0.5075 0.2529 0.2416
C33 C 0.6233(2) 0.13997(19) 0.14594(14)
C34 C 0.7025(3) 0.0507(2) 0.09042(15)
H13 H 0.7343 0.0219 0.0576
C35 C 0.3437(3) 0.3294(2) 0.08052(17)
H14 H 0.3508 0.3723 0.1155
C38 C 0.4188(3) 0.2300(2) 0.02145(15)
C43 C 0.6458(3) 0.0839(2) 0.17349(15)
C44 C 0.6154(3) 0.0938(2) 0.22924(16)
N1 N 0.6920(2) 0.86840(18) 0.72134(12)
N2 N 0.4906(2) 0.61265(19) 0.43742(13)
N3 N 0.8616(2) 0.42397(17) 0.17415(13)
N4 N 0.7058(2) 0.34215(17) 0.13848(13)
N5 N 0.7676(2) 0.25770(16) 0.05078(12)
N6 N 0.9517(2) 0.29727(18) 0.03914(13)
N8 N 0.6601(2) 0.11936(17) 0.09292(12)
N9 N 0.5712(2) 0.20616(17) 0.16962(12)
N10 N 0.4343(2) 0.28882(18) 0.07257(13)
N11 N 0.2456(2) 0.31684(19) 0.04548(13)
N13 N 0.4952(2) 0.17866(16) 0.00006(12)
N15 N 0.6974(2) 0.02537(17) 0.13628(12)
N16 N 0.6362(3) 0.0456(2) 0.26002(15)
H26 H 0.6171 0.0559 0.2952
H27 H 0.6693 0.0030 0.2455
N17 N 0.5638(3) 0.15971(19) 0.25269(14)
O1 O 0.7770(4) 0.7711(2) 0.74697(16)
O2 O 0.5991(2) 0.96462(16) 0.69739(12)
O3 O 0.4323(3) 0.71671(17) 0.40902(12)
O4 O 0.5778(3) 0.51389(17) 0.46334(12)
O5 O 0.48174(19) 0.37522(15) 0.19981(10)
O6 O 0.6213(2) 0.39518(16) 0.27422(12)
O9 O 0.9070(2) 0.47365(18) 0.31018(13)
O14 O 0.6013(2) 0.99816(15) 0.92879(11)
Zn1 Zn 0.55578(3) 0.30174(3) 0.143216(18)
Zn3 Zn 0.95569(3) 0.51242(3) 0.24024(2)
O42 O 0.8412(2) 0.58994(16) 0.25350(12)
H55 H 0.947062 0.585891 0.160682
C25 C 0.2110(3) 0.3797(2) 0.70428(18)
H11 H 0.8499 0.2123 0.9860
C36 C 0.2280(3) 0.2550(2) 0.99515(16)
C37 C 0.3198(3) 0.2105(2) 0.98201(14)
C39 C 0.4374(3) 0.1299(2) 0.94953(15)
H15 H 0.4699 0.0875 0.9252
C47 C 0.2529(3) 0.1680(2) 0.79624(16)
C48 C 0.2753(3) 0.2004(2) 0.74859(16)
C49 C 0.2389(3) 0.2729(2) 0.74858(16)
H17 H 0.2022 0.3019 0.7794
C50 C 0.2559(3) 0.3026(2) 0.70404(18)
C51 C 0.3074(3) 0.2600(2) 0.65806(17)
H18 H 0.3182 0.2798 0.6269
C52 C 0.3426(3) 0.1879(2) 0.65868(17)
C53 C 0.3266(3) 0.1579(2) 0.70323(17)
H19 H 0.3507 0.1082 0.7027
C54 C 0.3182(4) 0.1036(3) 0.55721(19)
C55 C 0.3667(3) 0.0465(3) 0.51074(18)
C56 C 0.3025(4) 0.0112(3) 0.45734(19)
H20 H 0.2276 0.0244 0.4501
C57 C 0.4774(3) 0.0279(2) 0.52181(17)
C58 C 0.5477(3) 0.0655(2) 0.57662(18)
C59 C 0.5029(3) 0.1235(2) 0.62359(17)
C60 C 0.6549(4) 0.0443(3) 0.58718(19)
H21 H 0.7001 0.0671 0.6246
N12 N 0.1252(2) 0.23931(19) 0.96344(13)
H24 H 0.0710 0.2685 0.9752
H25 H 0.1117 0.1998 0.9308
N14 N 0.3325(2) 0.14523(17) 0.93611(12)
N18 N 0.3917(3) 0.13996(19) 0.61014(14)
O7 O 0.1588(2) 0.41006(16) 0.74650(12)
O8 O 0.2272(3) 0.40798(19) 0.66502(15)
O15 O 0.1958(2) 0.20156(18) 0.83399(12)
O16 O 0.2957(2) 0.10315(15) 0.79685(10)
O19 O 0.5575(3) 0.15697(18) 0.67169(12)
O20 O 0.2226(3) 0.1198(2) 0.55065(15)
Zn18 Zn 0.76313(3) 0.92377(3) 0.138884(18)
C61 C 0.7890(3) 0.6203(2) 0.29572(18)
C62 C 0.7471(3) 0.8320(2) 0.20376(16)
C63 C 0.7247(3) 0.7996(2) 0.25141(16)
C64 C 0.7611(3) 0.7271(2) 0.25142(16)
H28 H 0.7978 0.6981 0.2206
C65 C 0.7441(3) 0.6974(2) 0.29596(18)
C66 C 0.6926(3) 0.7400(2) 0.34194(17)
H29 H 0.6818 0.7202 0.3731
C67 C 0.6574(3) 0.8121(2) 0.34132(17)
C68 C 0.6734(3) 0.8421(2) 0.29677(17)
H30 H 0.6493 0.8918 0.2973
C69 C 0.6818(4) 0.8964(3) 0.44279(19)
C70 C 0.6333(3) 0.9535(3) 0.48926(18)
C71 C 0.6975(4) 0.9888(3) 0.54266(19)
H31 H 0.7724 0.9756 0.5499
C72 C 0.5226(3) 0.9721(2) 0.47819(17)
C73 C 0.4523(3) 0.9345(2) 0.42338(18)
C74 C 0.4971(3) 0.8765(2) 0.37641(17)
C75 C 0.3451(4) 0.9557(3) 0.41282(19)
H32 H 0.2999 0.9329 0.3754
N19 N 0.6083(3) 0.86004(19) 0.38986(14)
O22 O 0.7728(3) 0.59202(19) 0.33498(15)
O23 O 0.8042(2) 0.79844(18) 0.16601(12)
O24 O 0.7043(2) 0.89685(15) 0.20315(10)
O25 O 0.4425(3) 0.84303(18) 0.32831(12)
O26 O 0.7774(3) 0.8802(2) 0.44935(15)
H43 H 0.1501 0.7877 0.0140
C110 C 0.7720(3) 0.7450(2) 0.00485(16)
C111 C 0.6802(3) 0.7895(2) 0.01799(14)
C113 C 0.5626(3) 0.8701(2) 0.05047(15)
H47 H 0.5301 0.9125 0.0748
N31 N 0.8748(2) 0.76069(19) 0.03656(13)
H51 H 0.9290 0.7315 0.0248
H52 H 0.8883 0.8002 0.0692
N33 N 0.6675(2) 0.85477(17) 0.06389(12)
N38 N 0.3026(2) 0.97463(17) 0.86372(12)
O48 O 0.27625(19) 0.89807(15) 0.03753(11)
O50 O 0.9231(2) 0.99321(19) 0.21118(12)
O52 O 0.91706(18) 0.92561(15) 0.11851(11)
C76 C 0.1445(3) 0.0488(2) 0.22190(15)
H33 H 0.1079 0.0671 0.2551
C77 C 0.2533(3) 0.0755(2) 0.22451(15)
C78 C 0.3082(3) 0.0492(2) 0.17610(15)
H34 H 0.3819 0.0693 0.1777
C79 C 0.3795(3) 0.1026(2) 0.31734(16)
C80 C 0.4230(3) 0.1568(2) 0.37639(16)
C81 C 0.3930(3) 0.2357(2) 0.39065(16)
C82 C 0.3279(3) 0.2631(2) 0.34925(17)
C83 C 0.2830(4) 0.2091(3) 0.28998(19)
C84 C 0.3031(4) 0.3398(3) 0.36387(19)
H35 H 0.2607 0.3585 0.3352
C85 C 0.3399(4) 0.3901(3) 0.4205(2)
H36 H 0.3212 0.4426 0.4304
C86 C 0.4035(3) 0.3639(2) 0.46248(16)
C87 C 0.4308(3) 0.2856(2) 0.44814(16)
C88 C 0.4938(3) 0.2578(2) 0.49034(15)
C89 C 0.5245(3) 0.1819(2) 0.47413(18)
H37 H 0.5687 0.1634 0.5024
C90 C 0.4915(4) 0.1327(2) 0.41704(18)
H38 H 0.5167 0.0818 0.4061
C91 C 0.5262(3) 0.3089(2) 0.55138(16)
C92 C 0.4433(3) 0.4184(2) 0.52204(17)
C93 C 0.5576(3) 0.4394(2) 0.61999(15)
C94 C 0.6705(3) 0.4392(2) 0.63847(16)
H39 H 0.7142 0.4055 0.6137
C95 C 0.7203(3) 0.4877(2) 0.69275(16)
C96 C 0.6552(3) 0.5383(2) 0.72860(15)
H40 H 0.6889 0.5725 0.7659
C97 C 0.5413(3) 0.5384(2) 0.70948(15)
C98 C 0.4914(3) 0.4881(2) 0.65529(15)
H41 H 0.4133 0.4870 0.6425
C99 C 0.4726(3) 0.5928(2) 0.74715(15)
C100 C 0.8429(3) 0.4852(2) 0.71548(17)
C101 C 0.2401(3) 0.5952(2) 0.81893(16)
H42 H 0.2729 0.5669 0.7863
C102 C 0.2193(3) 0.6809(2) 0.89923(14)
C103 C 0.1233(3) 0.6309(2) 0.87758(15)
C104 C 0.0332(3) 0.6447(2) 0.90917(15)
C105 C 0.1437(3) 0.7473(2) 0.97757(15)
C106 C 0.4551(3) 0.7912(2) 0.77681(17)
H44 H 0.4925 0.7471 0.7584
C107 C 0.3767(2) 0.86003(19) 0.85406(14)
C108 C 0.2975(3) 0.9493(2) 0.90958(15)
H45 H 0.2657 0.9781 0.9424
C109 C 0.6563(3) 0.6706(2) 0.91948(17)
H46 H 0.6492 0.6277 0.8845
C112 C 0.5812(3) 0.7700(2) 0.97855(15)
C117 C 0.3542(3) 0.9161(2) 0.82651(15)
C118 C 0.3846(3) 0.9062(2) 0.77076(16)
N20 N 0.3080(2) 0.13160(18) 0.27866(12)
N21 N 0.5094(2) 0.38735(19) 0.56258(13)
N22 N 0.1384(2) 0.57603(17) 0.82585(13)
N23 N 0.2942(2) 0.65785(17) 0.86152(13)
N24 N 0.2324(2) 0.74230(16) 0.94922(12)
N25 N 0.0483(2) 0.70273(18) 0.96086(13)
N27 N 0.3399(2) 0.88064(17) 0.90708(12)
N28 N 0.4288(2) 0.79384(17) 0.83038(12)
N29 N 0.5657(2) 0.71118(18) 0.92743(13)
N30 N 0.7544(2) 0.68316(19) 0.95452(13)
N32 N 0.5048(2) 0.82134(16) 0.99994(12)
N35 N 0.3638(3) 0.9544(2) 0.73998(15)
H53 H 0.3829 0.9441 0.7048
H54 H 0.3307 0.9970 0.7545
N36 N 0.4362(3) 0.84029(19) 0.74731(14)
O27 O 0.2230(4) 0.2289(2) 0.25303(16)
O28 O 0.4009(2) 0.03538(16) 0.30261(12)
O29 O 0.5677(3) 0.28329(17) 0.59098(12)
O30 O 0.4222(3) 0.48611(17) 0.53666(12)
O31 O 0.51826(19) 0.62478(15) 0.80019(10)
O32 O 0.3787(2) 0.60482(16) 0.72578(12)
O33 O 0.0930(2) 0.52635(18) 0.68982(13)
O34 O 0.8930(2) 0.42956(18) 0.69069(13)
O35 O 0.88972(19) 0.54006(16) 0.75950(11)
O38 O 0.3987(2) 0.00184(15) 0.07121(11)
Zn5 Zn 0.44422(3) 0.69826(3) 0.856784(18)
Zn6 Zn 0.34531(3) 0.83564(3) 0.972937(18)
C114 C 0.3165(3) 0.9640(2) 0.07406(14)
C115 C 0.2540(3) 0.99349(19) 0.12572(14)
C116 C 0.1449(3) 0.9659(2) 0.12268(14)
H48 H 0.1086 0.9273 0.0881
C120 C 0.0884(3) 0.9945(2) 0.16994(15)
N26 N 0.9342(2) 0.60493(19) 0.89201(14)
H49 H 0.8817 0.6168 0.9141
H50 H 0.9211 0.5667 0.8586
O36 O 0.9877(2) 0.42991(17) 0.81654(13)
H59 H 0.945345 0.465641 0.844141
H60 H 0.938476 0.383147 0.79258
C119 C 0.9692(3) 0.9694(2) 0.16740(15)
H59_2 H 0.0546545 0.534359 0.155859
H55_2 H 0.0529383 0.414109 0.839318
loop_
_geom_bond_atom_site_label_1
_geom_bond_atom_site_label_2
_geom_bond_site_symmetry_1
_geom_bond_site_symmetry_2
O17 C45 1_555 1_555
O18 C45 1_555 1_555
Zn16 O17 1_555 1_555
O18 Zn16 1_555 1_555
H22 N7 1_555 1_555
H23 N7 1_555 1_555
O12 H56 1_555 1_555
C40 C41 1_555 1_555
C42 C41 1_555 1_555
H16 C42 1_555 1_555
O13 C40 1_555 1_555
C42 C46 1_555 1_555
C1 H1 1_555 1_555
C2 C1 1_555 1_555
C3 C2 1_555 1_555
H2 C3 1_555 1_555
C4 C5 1_555 1_555
C5 C6 1_555 1_555
C6 C7 1_555 1_555
C7 C8 1_555 1_555
C8 N1 1_555 1_555
C9 C7 1_555 1_555
H3 C9 1_555 1_555
C10 C9 1_555 1_555
H4 C10 1_555 1_555
C11 C10 1_555 1_555
C12 C6 1_555 1_555
C13 C12 1_555 1_555
C14 C13 1_555 1_555
H5 C14 1_555 1_555
C15 C5 1_555 1_555
H6 C15 1_555 1_555
C16 C13 1_555 1_555
C17 C11 1_555 1_555
C18 C19 1_555 1_555
C19 H7 1_555 1_555
C20 C19 1_555 1_555
C21 C20 1_555 1_555
H8 C21 1_555 1_555
C22 C21 1_555 1_555
C23 C18 1_555 1_555
H9 C23 1_555 1_555
C24 C22 1_555 1_555
C26 C20 1_555 1_555
C27 H10 1_555 1_555
C28 C29 1_555 1_555
C29 C30 1_555 1_555
C30 N6 1_555 1_555
C32 H12 1_555 1_555
C33 C43 1_555 1_555
C34 H13 1_555 1_555
C35 H14 1_555 1_555
C38 N10 1_555 1_555
C43 C44 1_555 1_555
C44 N16 1_555 1_555
N1 C2 1_555 1_555
N2 C16 1_555 1_555
N3 C27 1_555 1_555
N4 C27 1_555 1_555
N5 C28 1_555 1_555
N6 C31 1_555 1_555
N8 C33 1_555 1_555
N9 C32 1_555 1_555
N10 C35 1_555 1_555
N11 C35 1_555 1_555
N13 C38 1_555 1_555
N15 C34 1_555 1_555
N16 H26 1_555 1_555
H27 N16 1_555 1_555
N17 C32 1_555 1_555
O1 C8 1_555 1_555
O2 C4 1_555 1_555
O3 C16 1_555 1_555
O4 C17 1_555 1_555
O5 C24 1_555 1_555
O6 C24 1_555 1_555
O9 Zn3 1_555 1_555
O43 C26 1_555 1_555
O45 C26 1_555 1_555
Zn1 N4 1_555 1_555
Zn9 N5 1_555 1_555
Zn3 N3 1_555 1_555
O42 Zn3 1_555 1_555
C4 N1 1_555 1_555
C11 C12 1_555 1_555
C14 C15 1_555 1_555
C17 N2 1_555 1_555
C18 N2 1_555 1_555
C22 C23 1_555 1_555
C28 N4 1_555 1_555
C29 N3 1_555 1_555
C31 N5 1_555 1_555
C33 N9 1_555 1_555
C34 N8 1_555 1_555
C43 N15 1_555 1_555
C44 N17 1_555 1_555
N8 Zn9 1_555 1_555
N9 Zn1 1_555 1_555
N10 Zn1 1_555 1_555
N13 Zn9 1_555 1_555
O5 Zn1 1_555 1_555
C25 C50 1_555 1_555
C36 C37 1_555 1_555
C39 H15 1_555 1_555
C47 C48 1_555 1_555
C48 C49 1_555 1_555
C49 H17 1_555 1_555
C50 C49 1_555 1_555
C51 C50 1_555 1_555
H18 C51 1_555 1_555
C52 C51 1_555 1_555
C53 C48 1_555 1_555
H19 C53 1_555 1_555
C54 C55 1_555 1_555
C55 C56 1_555 1_555
C56 H20 1_555 1_555
C57 C55 1_555 1_555
C58 C57 1_555 1_555
C59 C58 1_555 1_555
C60 C58 1_555 1_555
H21 C60 1_555 1_555
N12 C36 1_555 1_555
H24 N12 1_555 1_555
H25 N12 1_555 1_555
N14 C37 1_555 1_555
N18 C52 1_555 1_555
O7 C25 1_555 1_555
O8 C25 1_555 1_555
O15 C47 1_555 1_555
O16 C47 1_555 1_555
O19 C59 1_555 1_555
O20 C54 1_555 1_555
Zn16 N14 1_555 1_555
Zn14 O7 1_555 1_555
C39 N14 1_555 1_555
C52 C53 1_555 1_555
C54 N18 1_555 1_555
C59 N18 1_555 1_555
O16 Zn16 1_555 1_555
C61 C65 1_555 1_555
C62 C63 1_555 1_555
C63 C64 1_555 1_555
C64 H28 1_555 1_555
C65 C64 1_555 1_555
C66 C65 1_555 1_555
H29 C66 1_555 1_555
C67 C66 1_555 1_555
C68 C63 1_555 1_555
H30 C68 1_555 1_555
C69 C70 1_555 1_555
C70 C71 1_555 1_555
H31 C71 1_555 1_555
C73 C72 1_555 1_555
C74 C73 1_555 1_555
H32 C75 1_555 1_555
N19 C67 1_555 1_555
O42 C61 1_555 1_555
O22 C61 1_555 1_555
O23 C62 1_555 1_555
O24 C62 1_555 1_555
O25 C74 1_555 1_555
O26 C69 1_555 1_555
C110 C111 1_555 1_555
C113 H47 1_555 1_555
N31 C110 1_555 1_555
H51 N31 1_555 1_555
H52 N31 1_555 1_555
N33 C111 1_555 1_555
Zn18 O24 1_555 1_555
O50 Zn18 1_555 1_555
O52 Zn18 1_555 1_555
C67 C68 1_555 1_555
C69 N19 1_555 1_555
C70 C72 1_555 1_555
C73 C75 1_555 1_555
C74 N19 1_555 1_555
C113 N33 1_555 1_555
N33 Zn18 1_555 1_555
C76 H33 1_555 1_555
C77 C76 1_555 1_555
C78 C77 1_555 1_555
H34 C78 1_555 1_555
C79 C80 1_555 1_555
C80 C81 1_555 1_555
C81 C82 1_555 1_555
C82 C83 1_555 1_555
C83 N20 1_555 1_555
C84 C82 1_555 1_555
H35 C84 1_555 1_555
C85 C84 1_555 1_555
H36 C85 1_555 1_555
C86 C85 1_555 1_555
C87 C81 1_555 1_555
C88 C87 1_555 1_555
C89 C88 1_555 1_555
H37 C89 1_555 1_555
C90 C80 1_555 1_555
H38 C90 1_555 1_555
C91 C88 1_555 1_555
C92 C86 1_555 1_555
C93 C94 1_555 1_555
C94 H39 1_555 1_555
C95 C94 1_555 1_555
C96 C95 1_555 1_555
H40 C96 1_555 1_555
C97 C96 1_555 1_555
C98 C93 1_555 1_555
H41 C98 1_555 1_555
C99 C97 1_555 1_555
C100 C95 1_555 1_555
C101 H42 1_555 1_555
C102 C103 1_555 1_555
C103 C104 1_555 1_555
C104 N25 1_555 1_555
C106 H44 1_555 1_555
C107 C117 1_555 1_555
C108 H45 1_555 1_555
C109 H46 1_555 1_555
C112 N29 1_555 1_555
C117 C118 1_555 1_555
C118 N35 1_555 1_555
N20 C77 1_555 1_555
N21 C91 1_555 1_555
N22 C101 1_555 1_555
N23 C101 1_555 1_555
N24 C102 1_555 1_555
N25 C105 1_555 1_555
N27 C107 1_555 1_555
N28 C106 1_555 1_555
N29 C109 1_555 1_555
N30 C109 1_555 1_555
N32 C112 1_555 1_555
N38 C108 1_555 1_555
N35 H53 1_555 1_555
H54 N35 1_555 1_555
N36 C106 1_555 1_555
O27 C83 1_555 1_555
O28 C79 1_555 1_555
O29 C91 1_555 1_555
O30 C92 1_555 1_555
O31 C99 1_555 1_555
O32 C99 1_555 1_555
O33 Zn14 1_555 1_555
O34 C100 1_555 1_555
O35 C100 1_555 1_555
Zn5 N23 1_555 1_555
Zn6 N24 1_555 1_555
Zn14 N22 1_555 1_555
C79 N20 1_555 1_555
C86 C87 1_555 1_555
C89 C90 1_555 1_555
C92 N21 1_555 1_555
C93 N21 1_555 1_555
C97 C98 1_555 1_555
C102 N23 1_555 1_555
C103 N22 1_555 1_555
C105 N24 1_555 1_555
C107 N28 1_555 1_555
C108 N27 1_555 1_555
C117 N38 1_555 1_555
C118 N36 1_555 1_555
N27 Zn6 1_555 1_555
N28 Zn5 1_555 1_555
N29 Zn5 1_555 1_555
N32 Zn6 1_555 1_555
O31 Zn5 1_555 1_555
C114 C115 1_555 1_555
C116 C115 1_555 1_555
H48 C116 1_555 1_555
O48 C114 1_555 1_555
C116 C120 1_555 1_555
H49 N26 1_555 1_555
H50 N26 1_555 1_555
O36 H59 1_555 1_555
O36 H60 1_555 1_555
O50 C119 1_555 1_555
O52 C119 1_555 1_555
O12 H59_2 1_555 1_555

#END
