
###############################################################################
#
# This file contains modified crystal structure data generated from the
# MOF subset of the Cambridge Structural Database (CSD) v543 
# hosted by the Cambridge Crystallographic Data Centre (CCDC).
#
# This work is licensed under the Creative Commons
# Attribution-NonCommercial-ShareAlike 4.0 International License.
# To view a copy of this license, visit
# http://creativecommons.org/licenses/by-nc-sa/4.0/
# or send a letter to
# Creative Commons, PO Box 1866, Mountain View, CA 94042, USA.
#
# CIF created using the CSD Python API on 29 September 2022
# The structure has been converted into the P1 space group
# The structure has a 3D framework
# The original CSD entry HAMREU is in the trigonal crystal system
# The framework has been calculated to contain at least 10.0% void space
# The void calculation uses a probe of radius 1.32A, grid spacing 0.4
# H atom positions have been added when not included in the experimental data
#
###############################################################################

data_HAMREU
_chemical_formula_moiety         '(C48 H84 Ce4 Cu9 N12 O48)n'
_symmetry_cell_setting           triclinic
_symmetry_space_group_name_H-M   'P 1'
_symmetry_Int_Tables_number      1
_space_group_name_Hall           'P 1'
loop_
_symmetry_equiv_pos_site_id
_symmetry_equiv_pos_as_xyz
1 x,y,z
_cell_length_a                   13.4377(15)
_cell_length_b                   13.4377(15)
_cell_length_c                   14.853(4)
_cell_angle_alpha                90
_cell_angle_beta                 90
_cell_angle_gamma                120
_cell_volume                     2322.71
loop_
_atom_site_label
_atom_site_type_symbol
_atom_site_fract_x
_atom_site_fract_y
_atom_site_fract_z
Cu2 Cu 0.5000 0.0000 0.0000
O11 O 0.5473(5) 0.1846(7) 0.0572(4)
H6 H 0.6739 0.0261 0.0771
Cu2_2 Cu 0.5000 0.0000 1.0000
Cu5 Cu 0.5000 0.0000 0.5000
O32 O 0.5974(5) 0.0738(7) 0.8946(3)
N8 N 0.3888(5) 0.0398(7) 0.9421(4)
H9 H 0.3522 0.0261 0.5771
H38 H 0.427064 0.0927365 0.888849
H39 H 0.364292 0.0797207 0.987631
Cu1 Cu 0.5000 0.5000 0.0000
O3 O 0.4361(5) 0.6140(6) 0.2246(4)
O4 O 0.5236(5) 0.5974(5) 0.1054(3)
N1 N 0.3490(5) 0.3888(5) 0.0579(4)
H1 H 0.3522 0.3261 0.0771
H2 H 0.1827 0.3190 0.0210
C3 C 0.3349(7) 0.4482(7) 0.1377(5)
H4 H 0.2704 0.4602 0.1272
H5 H 0.3170 0.3990 0.1900
C4 C 0.4377(6) 0.5596(6) 0.1570(4)
Ce3 Ce 0.3334 0.6667 0.33078(3)
Cu2_3 Cu 0.5000 1.0000 0.0000
Cu3 Cu -0.0000 0.5000 0.0000
O10 O 0.6373(5) 0.4527(5) 0.0572(4)
O18 O 0.3860(6) 0.8221(8) 0.2246(4)
O19 O 0.1779(8) 0.5639(5) 0.2246(4)
O26 O 0.4026(5) 0.9262(7) 0.1054(3)
O27 O 0.0738(7) 0.4764(5) 0.1054(3)
N2 N 0.6112(5) 0.9602(7) 0.0579(4)
N3 N 0.0398(7) 0.6510(5) 0.0579(4)
H14 H 0.6810 0.8637 0.0210
H15 H 0.1363 0.8173 0.0210
C15 C 0.5518(7) 0.8867(10) 0.1377(5)
C16 C 0.1133(10) 0.6651(7) 0.1377(5)
H24 H 0.5398 0.8102 0.1272
H25 H 0.1898 0.7296 0.1272
H29 H 0.6010 0.9180 0.1900
H30 H 0.0820 0.6830 0.1900
C20 C 0.4404(6) 0.8781(8) 0.1570(4)
C21 C 0.1219(8) 0.5623(6) 0.1570(4)
Ce1 Ce 0.3333 0.6667 0.83078(3)
Cu1_2 Cu 0.5000 0.5000 1.0000
O1 O 0.3627(5) 0.5473(5) 0.9428(4)
O2 O 0.1973(5) 0.4381(5) 0.8757(3)
C1 C 0.2717(6) 0.4515(6) 0.9324(5)
C2 C 0.2562(6) 0.3520(6) 0.9904(5)
H3 H 0.2555 0.2931 0.9523
Cu2_4 Cu 0.5000 1.0000 1.0000
Cu3_2 Cu -0.0000 0.5000 1.0000
Cu4 Cu -0.0000 0.5000 0.5000
Cu5_2 Cu 0.5000 1.0000 0.5000
Cu6 Cu 0.5000 0.5000 0.5000
O5 O 0.4527(5) 0.8154(7) 0.9428(4)
O6 O 0.1846(7) 0.6373(5) 0.9428(4)
O7 O 0.1846(7) 0.5473(5) 0.4428(4)
O8 O 0.3627(5) 0.8154(7) 0.4428(4)
O9 O 0.4527(5) 0.6373(5) 0.4428(4)
O13 O 0.5619(5) 0.7592(7) 0.8757(3)
O14 O 0.2408(7) 0.8027(5) 0.8757(3)
O15 O 0.2408(7) 0.4381(5) 0.3757(3)
O16 O 0.1973(5) 0.7592(7) 0.3757(3)
O17 O 0.5619(5) 0.8027(5) 0.3757(3)
O20 O 0.1779(8) 0.6140(6) 0.7246(4)
O21 O 0.4361(5) 0.8221(8) 0.7246(4)
O22 O 0.3860(6) 0.5639(5) 0.7246(4)
O28 O 0.0738(7) 0.5974(5) 0.6054(3)
O29 O 0.5236(5) 0.9262(7) 0.6054(3)
O30 O 0.4026(5) 0.4764(5) 0.6054(3)
O31 O 0.4764(5) 0.4026(5) 0.8946(3)
N4 N 0.0398(7) 0.3888(5) 0.5579(4)
N5 N 0.3490(5) 0.9602(7) 0.5579(4)
N6 N 0.6112(5) 0.6510(5) 0.5579(4)
N7 N 0.6510(5) 0.6112(5) 0.9421(4)
H10 H 0.6739 0.6478 0.5771
H11 H 0.6478 0.6739 0.9229
H12 H 0.3261 0.9739 0.9229
H13 H 0.0261 0.3522 0.9229
C5 C 0.5485(6) 0.8202(8) 0.9324(5)
C6 C 0.1798(8) 0.7283(6) 0.9324(5)
C7 C 0.1798(8) 0.4515(6) 0.4324(5)
C8 C 0.2717(6) 0.8202(8) 0.4324(5)
C9 C 0.5485(6) 0.7283(6) 0.4324(5)
C10 C 0.6480(6) 0.9042(8) 0.9904(5)
C11 C 0.0958(8) 0.7438(6) 0.9904(5)
C12 C 0.0958(8) 0.3520(6) 0.4904(5)
C13 C 0.2562(6) 0.9042(8) 0.4904(5)
C14 C 0.6480(6) 0.7438(6) 0.4904(5)
H16 H 0.1363 0.3190 0.5210
H17 H 0.1827 0.8637 0.5210
H18 H 0.6810 0.8173 0.5210
H19 H 0.7069 0.9624 0.9523
H20 H 0.0376 0.7445 0.9523
H21 H 0.0376 0.2931 0.4523
H22 H 0.2555 0.9624 0.4523
H23 H 0.7069 0.7445 0.4523
C17 C 0.1133(10) 0.4482(7) 0.6377(5)
C18 C 0.3349(7) 0.8867(10) 0.6377(5)
C19 C 0.5518(7) 0.6651(7) 0.6377(5)
H26 H 0.1898 0.4602 0.6272
H27 H 0.2704 0.8102 0.6272
H28 H 0.5398 0.7296 0.6272
H31 H 0.0820 0.3990 0.6900
H32 H 0.3170 0.9180 0.6900
H33 H 0.6010 0.6830 0.6900
C22 C 0.1219(8) 0.5596(6) 0.6570(4)
C23 C 0.4377(6) 0.8781(8) 0.6570(4)
C24 C 0.4404(6) 0.5623(6) 0.6570(4)
H36 H 0.665672 0.572936 0.888849
H37 H 0.715428 0.635708 0.987631
Cu3_3 Cu 1.0000 0.5000 0.0000
O12 O 0.8154(7) 0.3627(5) 0.0572(4)
H7 H 0.9739 0.6478 0.0771
Cu3_4 Cu 1.0000 0.5000 1.0000
Cu4_2 Cu 1.0000 0.5000 0.5000
O33 O 0.9262(7) 0.5236(5) 0.8946(3)
N9 N 0.9602(7) 0.3490(5) 0.9421(4)
H8 H 0.9739 0.3261 0.5771
H34 H 0.907263 0.334328 0.888849
H35 H 0.920279 0.284572 0.987631
H1_2 H 0.0261 0.6739 0.4229
H36_2 H 0.0927365 0.427064 0.611151
H37_2 H 0.0797207 0.364292 0.512369
Ce2 Ce 0.6667 0.3333 0.16922(3)
O15_2 O 0.8027(9) 0.5619(5) 0.1243(3)
O16_2 O 0.4381(9) 0.2408(7) 0.1243(3)
O17_2 O 0.7592(7) 0.1973(5) 0.1243(3)
O23 O 0.8221(8) 0.3860(6) 0.2754(4)
O24 O 0.5639(10) 0.1779(8) 0.2754(4)
O25 O 0.6140(9) 0.4361(5) 0.2754(4)
C7_2 C 0.7283(10) 0.5485(6) 0.0676(5)
C8_2 C 0.4515(10) 0.1798(8) 0.0676(5)
C9_2 C 0.8202(8) 0.2717(6) 0.0676(5)
C12_2 C 0.7438(10) 0.6480(6) 0.0096(5)
C13_2 C 0.3520(10) 0.0958(8) 0.0096(5)
C14_2 C 0.9042(8) 0.2562(6) 0.0096(5)
H21_2 H 0.7445 0.7069 0.0477
H22_2 H 0.2931 0.0376 0.0477
H23_2 H 0.9624 0.2555 0.0477
Ce1_2 Ce 0.6666 0.3333 0.66922(3)
O1_2 O 0.8154(7) 0.4527(5) 0.5572(4)
O2_2 O 0.7592(7) 0.5619(5) 0.6243(3)
O4_2 O 0.9262(7) 0.4026(5) 0.3946(3)
N1_2 N 0.9602(7) 0.6112(5) 0.4421(4)
C1_2 C 0.8202(8) 0.5485(6) 0.5676(5)
C2_2 C 0.9042(8) 0.6480(6) 0.5096(5)
H2_2 H 0.8637 0.6810 0.4790
H3_2 H 0.9624 0.7069 0.5477
C3_2 C 0.8867(10) 0.5518(7) 0.3623(5)
H4_2 H 0.8102 0.5398 0.3728
H5_2 H 0.9180 0.6010 0.3100
C4_2 C 0.8781(8) 0.4404(6) 0.3430(4)
O5_2 O 0.6373(9) 0.1846(7) 0.5572(4)
O6_2 O 0.5473(9) 0.3627(5) 0.5572(4)
O13_2 O 0.8027(9) 0.2408(7) 0.6243(3)
O14_2 O 0.4381(9) 0.1973(5) 0.6243(3)
O20_2 O 0.5639(10) 0.3860(6) 0.7754(4)
O21_2 O 0.6140(9) 0.1779(8) 0.7754(4)
O22_2 O 0.8221(8) 0.4361(5) 0.7754(4)
O26_2 O 0.4764(9) 0.0738(7) 0.3946(3)
O27_2 O 0.5974(9) 0.5236(5) 0.3946(3)
N2_2 N 0.6510(9) 0.0398(7) 0.4421(4)
N3_2 N 0.3888(9) 0.3490(5) 0.4421(4)
H7_2 H 0.3261 0.3522 0.4229
C5_2 C 0.7283(10) 0.1798(8) 0.5676(5)
C6_2 C 0.4515(10) 0.2717(6) 0.5676(5)
C10_2 C 0.7438(10) 0.0958(8) 0.5096(5)
C11_2 C 0.3520(10) 0.2562(6) 0.5096(5)
H14_2 H 0.8173 0.1363 0.4790
H15_2 H 0.3190 0.1827 0.4790
H16_2 H 0.8173 0.6810 0.9790
H17_2 H 0.3190 0.1363 0.9790
H18_2 H 0.8637 0.1827 0.9790
H19_2 H 0.7445 0.0376 0.5477
H20_2 H 0.2931 0.2555 0.5477
C15_2 C 0.6651(12) 0.1133(10) 0.3623(5)
C16_2 C 0.4482(12) 0.3349(7) 0.3623(5)
C17_2 C 0.6651(12) 0.5518(7) 0.8623(5)
C18_2 C 0.4482(12) 0.1133(10) 0.8623(5)
C19_2 C 0.8867(10) 0.3349(7) 0.8623(5)
H24_2 H 0.7296 0.1898 0.3728
H25_2 H 0.4602 0.2704 0.3728
H26_2 H 0.7296 0.5398 0.8728
H27_2 H 0.4602 0.1898 0.8728
H28_2 H 0.8102 0.2704 0.8728
H29_2 H 0.6830 0.0820 0.3100
H30_2 H 0.3990 0.3170 0.3100
H31_2 H 0.6830 0.6010 0.8100
H32_2 H 0.3990 0.0820 0.8100
H33_2 H 0.9180 0.3170 0.8100
C20_2 C 0.5623(10) 0.1219(8) 0.3430(4)
C21_2 C 0.5596(10) 0.4377(6) 0.3430(4)
C22_2 C 0.5623(10) 0.4404(6) 0.8430(4)
C23_2 C 0.5596(10) 0.1219(8) 0.8430(4)
C24_2 C 0.8781(8) 0.4377(6) 0.8430(4)
H34_2 H 0.572936 0.665672 0.611151
H35_2 H 0.635708 0.715428 0.512369
H6_2 H 0.6478 0.9739 0.4229
H38_2 H 0.334328 0.907263 0.611151
H39_2 H 0.284572 0.920279 0.512369
H34_3 H 0.0927365 0.665672 0.111151
H35_3 H 0.0797207 0.715428 0.0123695
H36_3 H 0.334328 0.427064 0.111151
H37_3 H 0.284572 0.364292 0.0123695
H38_3 H 0.572936 0.907263 0.111151
H39_3 H 0.635708 0.920279 0.0123695
H38_4 H 0.665672 0.0927365 0.388849
H39_4 H 0.715428 0.0797207 0.487631
H34_4 H 0.427064 0.334328 0.388849
H35_4 H 0.364292 0.284572 0.487631
H36_4 H 0.907263 0.572936 0.388849
H37_4 H 0.920279 0.635708 0.487631
loop_
_geom_bond_atom_site_label_1
_geom_bond_atom_site_label_2
_geom_bond_site_symmetry_1
_geom_bond_site_symmetry_2
O11 Cu2 1_555 1_555
O32 Cu2_2 1_555 1_555
N8 Cu2_2 1_555 1_555
N8 H38 1_555 1_555
N8 H39 1_555 1_555
O3 C4 1_555 1_555
O4 Cu1 1_555 1_555
N1 Cu1 1_555 1_555
H1 N1 1_555 1_555
C3 N1 1_555 1_555
H4 C3 1_555 1_555
H5 C3 1_555 1_555
C4 O4 1_555 1_555
Ce3 O3 1_555 1_555
O10 Cu1 1_555 1_555
O18 Ce3 1_555 1_555
O19 Ce3 1_555 1_555
O26 Cu2_3 1_555 1_555
O27 Cu3 1_555 1_555
N2 Cu2_3 1_555 1_555
N3 Cu3 1_555 1_555
C15 N2 1_555 1_555
C16 N3 1_555 1_555
H24 C15 1_555 1_555
H25 C16 1_555 1_555
H29 C15 1_555 1_555
H30 C16 1_555 1_555
C20 O18 1_555 1_555
C21 O19 1_555 1_555
C3 C4 1_555 1_555
O26 C20 1_555 1_555
O27 C21 1_555 1_555
C15 C20 1_555 1_555
C16 C21 1_555 1_555
Ce1 O1 1_555 1_555
Cu1_2 O1 1_555 1_555
O1 C1 1_555 1_555
O2 Ce1 1_555 1_555
C1 O2 1_555 1_555
H3 C2 1_555 1_555
Ce3 O7 1_555 1_555
Cu2_4 O5 1_555 1_555
Cu3_2 O6 1_555 1_555
Cu4 O7 1_555 1_555
Cu5_2 O8 1_555 1_555
Cu6 O9 1_555 1_555
O5 Ce1 1_555 1_555
O6 Ce1 1_555 1_555
O7 C7 1_555 1_555
O8 Ce3 1_555 1_555
O9 Ce3 1_555 1_555
O13 Ce1 1_555 1_555
O14 Ce1 1_555 1_555
O15 Ce3 1_555 1_555
O16 Ce3 1_555 1_555
O17 Ce3 1_555 1_555
O20 Ce1 1_555 1_555
O21 Ce1 1_555 1_555
O22 Ce1 1_555 1_555
O28 Cu4 1_555 1_555
O29 Cu5_2 1_555 1_555
O30 Cu6 1_555 1_555
O31 Cu1_2 1_555 1_555
N4 Cu4 1_555 1_555
N5 Cu5_2 1_555 1_555
N6 Cu6 1_555 1_555
N7 Cu1_2 1_555 1_555
H10 N6 1_555 1_555
H11 N7 1_555 1_555
C5 O5 1_555 1_555
C6 O6 1_555 1_555
C7 O15 1_555 1_555
C8 O8 1_555 1_555
C9 O9 1_555 1_555
C12 N4 1_555 1_555
C13 N5 1_555 1_555
C14 N6 1_555 1_555
H16 C12 1_555 1_555
H17 C13 1_555 1_555
H18 C14 1_555 1_555
H19 C10 1_555 1_555
H20 C11 1_555 1_555
H21 C12 1_555 1_555
H22 C13 1_555 1_555
H23 C14 1_555 1_555
C17 N4 1_555 1_555
C18 N5 1_555 1_555
C19 N6 1_555 1_555
H26 C17 1_555 1_555
H27 C18 1_555 1_555
H28 C19 1_555 1_555
H31 C17 1_555 1_555
H32 C18 1_555 1_555
H33 C19 1_555 1_555
C22 O20 1_555 1_555
C23 O21 1_555 1_555
C24 O22 1_555 1_555
C1 C2 1_555 1_555
O13 C5 1_555 1_555
O14 C6 1_555 1_555
O16 C8 1_555 1_555
O17 C9 1_555 1_555
O28 C22 1_555 1_555
O29 C23 1_555 1_555
O30 C24 1_555 1_555
C5 C10 1_555 1_555
C6 C11 1_555 1_555
C7 C12 1_555 1_555
C8 C13 1_555 1_555
C9 C14 1_555 1_555
C17 C22 1_555 1_555
C18 C23 1_555 1_555
C19 C24 1_555 1_555
N7 H36 1_555 1_555
N7 H37 1_555 1_555
O12 Cu3_3 1_555 1_555
O33 Cu3_4 1_555 1_555
N9 Cu3_4 1_555 1_555
N9 H34 1_555 1_555
N9 H35 1_555 1_555
N4 H36_2 1_555 1_555
N4 H37_2 1_555 1_555
Ce2 O10 1_555 1_555
O10 C7_2 1_555 1_555
O11 Ce2 1_555 1_555
O12 Ce2 1_555 1_555
O15_2 Ce2 1_555 1_555
O16_2 Ce2 1_555 1_555
O17_2 Ce2 1_555 1_555
O23 Ce2 1_555 1_555
O24 Ce2 1_555 1_555
O25 Ce2 1_555 1_555
C7_2 O15_2 1_555 1_555
C8_2 O11 1_555 1_555
C9_2 O12 1_555 1_555
H21_2 C12_2 1_555 1_555
H22_2 C13_2 1_555 1_555
H23_2 C14_2 1_555 1_555
O16_2 C8_2 1_555 1_555
O17_2 C9_2 1_555 1_555
C7_2 C12_2 1_555 1_555
C8_2 C13_2 1_555 1_555
C9_2 C14_2 1_555 1_555
Ce1_2 O1_2 1_555 1_555
Cu4_2 O1_2 1_555 1_555
O1_2 C1_2 1_555 1_555
O2_2 Ce1_2 1_555 1_555
O23 C4_2 1_555 1_555
O4_2 Cu4_2 1_555 1_555
N1_2 Cu4_2 1_555 1_555
C1_2 O2_2 1_555 1_555
C2_2 N1_2 1_555 1_555
H2_2 C2_2 1_555 1_555
H3_2 C2_2 1_555 1_555
C3_2 N1_2 1_555 1_555
H4_2 C3_2 1_555 1_555
H5_2 C3_2 1_555 1_555
C4_2 O4_2 1_555 1_555
Cu5 O5_2 1_555 1_555
Cu6 O6_2 1_555 1_555
O5_2 Ce1_2 1_555 1_555
O6_2 Ce1_2 1_555 1_555
O13_2 Ce1_2 1_555 1_555
O14_2 Ce1_2 1_555 1_555
O20_2 Ce1_2 1_555 1_555
O21_2 Ce1_2 1_555 1_555
O22_2 Ce1_2 1_555 1_555
O26_2 Cu5 1_555 1_555
O27_2 Cu6 1_555 1_555
N2_2 Cu5 1_555 1_555
N3_2 Cu6 1_555 1_555
H7_2 N3_2 1_555 1_555
C5_2 O5_2 1_555 1_555
C6_2 O6_2 1_555 1_555
C10_2 N2_2 1_555 1_555
C11_2 N3_2 1_555 1_555
H14_2 C10_2 1_555 1_555
H15_2 C11_2 1_555 1_555
H19_2 C10_2 1_555 1_555
H20_2 C11_2 1_555 1_555
C15_2 N2_2 1_555 1_555
C16_2 N3_2 1_555 1_555
C17_2 N7 1_555 1_555
C18_2 N8 1_555 1_555
C19_2 N9 1_555 1_555
H24_2 C15_2 1_555 1_555
H25_2 C16_2 1_555 1_555
H26_2 C17_2 1_555 1_555
H27_2 C18_2 1_555 1_555
H28_2 C19_2 1_555 1_555
H29_2 C15_2 1_555 1_555
H30_2 C16_2 1_555 1_555
H31_2 C17_2 1_555 1_555
H32_2 C18_2 1_555 1_555
H33_2 C19_2 1_555 1_555
C20_2 O24 1_555 1_555
C21_2 O25 1_555 1_555
C22_2 O20_2 1_555 1_555
C23_2 O21_2 1_555 1_555
C24_2 O22_2 1_555 1_555
C1_2 C2_2 1_555 1_555
C3_2 C4_2 1_555 1_555
O13_2 C5_2 1_555 1_555
O14_2 C6_2 1_555 1_555
O26_2 C20_2 1_555 1_555
O27_2 C21_2 1_555 1_555
O31 C22_2 1_555 1_555
O32 C23_2 1_555 1_555
O33 C24_2 1_555 1_555
C5_2 C10_2 1_555 1_555
C6_2 C11_2 1_555 1_555
C15_2 C20_2 1_555 1_555
C16_2 C21_2 1_555 1_555
C17_2 C22_2 1_555 1_555
C18_2 C23_2 1_555 1_555
C19_2 C24_2 1_555 1_555
N6 H34_2 1_555 1_555
N6 H35_2 1_555 1_555
N5 H38_2 1_555 1_555
N5 H39_2 1_555 1_555
N3 H34_3 1_555 1_555
N3 H35_3 1_555 1_555
N1 H36_3 1_555 1_555
N1 H37_3 1_555 1_555
N2 H38_3 1_555 1_555
N2 H39_3 1_555 1_555
N2_2 H38_4 1_555 1_555
N2_2 H39_4 1_555 1_555
N3_2 H34_4 1_555 1_555
N3_2 H35_4 1_555 1_555
N1_2 H36_4 1_555 1_555
N1_2 H37_4 1_555 1_555

#END
