
###############################################################################
#
# This file contains modified crystal structure data generated from the
# MOF subset of the Cambridge Structural Database (CSD) v543 
# hosted by the Cambridge Crystallographic Data Centre (CCDC).
#
# This work is licensed under the Creative Commons
# Attribution-NonCommercial-ShareAlike 4.0 International License.
# To view a copy of this license, visit
# http://creativecommons.org/licenses/by-nc-sa/4.0/
# or send a letter to
# Creative Commons, PO Box 1866, Mountain View, CA 94042, USA.
#
# CIF created using the CSD Python API on 29 September 2022
# The structure has been converted into the P1 space group
# The structure has a 3D framework
# The original CSD entry HANFAG is in the monoclinic crystal system
# The framework has been calculated to contain at least 10.0% void space
# The void calculation uses a probe of radius 1.32A, grid spacing 0.4
#
###############################################################################

data_HANFAG
_chemical_formula_moiety         '(C312 H184 Cd14 N64 O32)n'
_symmetry_cell_setting           triclinic
_symmetry_space_group_name_H-M   'P 1'
_symmetry_Int_Tables_number      1
_space_group_name_Hall           'P 1'
loop_
_symmetry_equiv_pos_site_id
_symmetry_equiv_pos_as_xyz
1 x,y,z
_cell_length_a                   36.304(13)
_cell_length_b                   10.291(4)
_cell_length_c                   23.003(8)
_cell_angle_alpha                90
_cell_angle_beta                 120.885(6)
_cell_angle_gamma                90
_cell_volume                     7375.39
loop_
_atom_site_label
_atom_site_type_symbol
_atom_site_fract_x
_atom_site_fract_y
_atom_site_fract_z
Cd2 Cd 0.0000 0.06845(7) 0.2500
C19 C 0.0741(3) 0.2734(11) 0.3643(5)
H9 H 0.0896 0.2475 0.3443
N7 N 0.0343(2) 0.2269(7) 0.3395(4)
C22 C 0.0125(3) 0.2658(9) 0.3690(5)
C25 C 0.0713(5) 0.3966(16) 0.4484(8)
H12 H 0.0835 0.4552 0.4843
C27 C 0.0063(6) 0.3864(19) 0.4544(10)
H14 H 0.0185 0.4399 0.4924
C35 C 0.0931(4) 0.3587(13) 0.4186(7)
H21 H 0.1207 0.3894 0.4343
C37 C 0.0308(4) 0.3475(14) 0.4252(8)
C46 C 0.1121(3) 0.1340(11) 0.2085(5)
H26 H 0.1400 0.1029 0.2274
N13 N 0.0470(2) 0.1347(6) 0.2101(3)
C53 C 0.0305(3) 0.2186(8) 0.1572(4)
C59 C 0.0547(3) 0.2595(10) 0.1281(5)
C63 C 0.0965(3) 0.2164(10) 0.1565(5)
H34 H 0.1135 0.2445 0.1395
C65 C 0.0867(3) 0.0940(9) 0.2349(5)
H36 H 0.0984 0.0365 0.2713
C73 C 0.0348(5) 0.3462(17) 0.0727(9)
H43 H 0.0506 0.3768 0.0542
Cd6 Cd 0.308396(16) 0.04899(5) 0.32923(2)
Cd1 Cd 0.191604(16) 0.45101(5) 0.67077(2)
O1 O 0.14144(18) 0.5998(6) 0.5823(3)
O2 O 0.05091(19) 0.9258(6) 0.3075(3)
O3 O 0.19694(18) 0.5189(5) 0.5795(3)
C1 C 0.1957(2) 0.7549(7) 0.3792(3)
N1 N 0.2748(2) 0.7156(6) 0.1904(3)
C2 C 0.1647(2) 0.5912(7) 0.5560(3)
N2 N 0.1366(2) 0.3872(7) 0.6898(3)
C3 C 0.1124(2) 0.7354(7) 0.4595(3)
H1 H 0.0939 0.7314 0.4762
O4 O 0.0364(2) 0.8905(8) 0.3887(3)
C4 C 0.2391(2) 0.7674(6) 0.3072(3)
N3 N 0.28139(18) 0.8690(5) 0.2608(3)
C5 C 0.1235(3) 0.2194(9) 0.6073(5)
C6 C 0.2145(2) 0.8722(7) 0.3070(4)
H2 H 0.2121 0.9461 0.2820
N4 N 0.25404(19) 0.6757(5) 0.2220(3)
C8 C 0.2421(2) 0.6561(7) 0.3445(4)
H4 H 0.2581 0.5852 0.3448
C9 C 0.1284(2) 0.8072(7) 0.3762(4)
H5 H 0.1196 0.8504 0.3356
C10 C 0.1686(2) 0.7490(7) 0.4096(3)
C11 C 0.1009(2) 0.8028(7) 0.4014(3)
N6 N 0.2921(2) 0.8313(6) 0.2144(3)
C12 C 0.0584(2) 0.8779(7) 0.3627(4)
C13 C 0.2585(2) 0.7694(6) 0.2645(3)
C15 C 0.2215(2) 0.6512(7) 0.3807(3)
H6 H 0.2247 0.5780 0.4066
C16 C 0.1527(2) 0.6717(7) 0.4941(3)
C17 C 0.1801(2) 0.6792(7) 0.4686(4)
H7 H 0.2064 0.6369 0.4912
C18 C 0.1941(2) 0.8680(7) 0.3430(4)
H8 H 0.1789 0.9403 0.3437
C21 C 0.0895(4) 0.4054(14) 0.7325(7)
H10 H 0.0818 0.4480 0.7603
C23 C 0.0746(3) 0.2452(11) 0.6496(6)
N8 N 0.1593(2) 0.2570(7) 0.6083(3)
C28 C 0.1119(3) 0.2863(8) 0.6502(5)
C29 C 0.1708(4) 0.1950(10) 0.5699(5)
H15 H 0.1958 0.2210 0.5712
C30 C 0.0652(4) 0.3053(12) 0.6929(6)
H16 H 0.0417 0.2776 0.6955
C31 C 0.0599(4) 0.0827(12) 0.5650(9)
H17 H 0.0426 0.0169 0.5362
C32 C 0.1266(3) 0.4453(10) 0.7317(5)
H18 H 0.1438 0.5116 0.7601
C33 C 0.1475(5) 0.0931(13) 0.5276(7)
H19 H 0.1568 0.0512 0.5015
C36 C 0.0483(4) 0.1419(13) 0.6052(7)
H22 H 0.0235 0.1165 0.6045
C38 C 0.1106(5) 0.0558(12) 0.5250(7)
C39 C 0.0976(4) 0.1172(10) 0.5652(6)
Cd5 Cd 0.191604(16) 0.54899(5) 0.17077(2)
N17 N 0.21861(18) 0.6310(5) 0.7392(3)
N20 N 0.25404(19) 0.3243(5) 0.7220(3)
Cd2_2 Cd 1.0000 0.06845(7) 0.2500
C7 C 0.8879(3) 0.1340(11) 0.2915(5)
H3 H 0.8600 0.1029 0.2726
N5 N 0.9530(2) 0.1347(6) 0.2899(3)
C14 C 0.9695(3) 0.2186(8) 0.3428(4)
C20 C 0.9453(3) 0.2595(10) 0.3719(5)
C24 C 0.9035(3) 0.2164(10) 0.3435(5)
H11 H 0.8865 0.2445 0.3605
C26 C 0.9133(3) 0.0940(9) 0.2651(5)
H13 H 0.9016 0.0365 0.2287
C34 C 0.9652(5) 0.3462(17) 0.4273(9)
H20 H 0.9494 0.3768 0.4458
C58 C 0.9259(3) 0.2734(11) 0.1357(5)
H32 H 0.9104 0.2475 0.1557
N15 N 0.9657(2) 0.2269(7) 0.1605(4)
C61 C 0.9875(3) 0.2658(9) 0.1310(5)
C64 C 0.9287(5) 0.3966(16) 0.0516(8)
H35 H 0.9165 0.4552 0.0157
C66 C 0.9937(6) 0.3864(19) 0.0456(10)
H37 H 0.9815 0.4399 0.0076
C74 C 0.9069(4) 0.3587(13) 0.0814(7)
H44 H 0.8793 0.3894 0.0657
C76 C 0.9692(4) 0.3475(14) 0.0748(8)
Cd7 Cd 0.691604(16) 0.04899(5) 0.17077(2)
O6 O 0.94909(19) 0.9258(6) 0.1925(3)
C40 C 0.8043(2) 0.7549(7) 0.1208(3)
N9 N 0.7252(2) 0.7156(6) 0.3096(3)
C42 C 0.8876(2) 0.7354(7) 0.0405(3)
H24 H 0.9061 0.7314 0.0238
O8 O 0.9636(2) 0.8905(8) 0.1113(3)
C43 C 0.7609(2) 0.7674(6) 0.1928(3)
N11 N 0.71861(18) 0.8690(5) 0.2392(3)
C45 C 0.7855(2) 0.8722(7) 0.1930(4)
H25 H 0.7879 0.9461 0.2180
N12 N 0.74596(19) 0.6757(5) 0.2780(3)
C47 C 0.7579(2) 0.6561(7) 0.1555(4)
H27 H 0.7419 0.5852 0.1552
C48 C 0.8716(2) 0.8072(7) 0.1238(4)
H28 H 0.8804 0.8504 0.1644
C49 C 0.8314(2) 0.7490(7) 0.0904(3)
C50 C 0.8991(2) 0.8028(7) 0.0986(3)
N14 N 0.7079(2) 0.8313(6) 0.2856(3)
C51 C 0.9416(2) 0.8779(7) 0.1373(4)
C52 C 0.7415(2) 0.7694(6) 0.2355(3)
C54 C 0.7785(2) 0.6512(7) 0.1193(3)
H29 H 0.7753 0.5780 0.0934
C55 C 0.8473(2) 0.6717(7) 0.0059(3)
C56 C 0.8199(2) 0.6792(7) 0.0314(4)
H30 H 0.7936 0.6369 0.0088
C57 C 0.8059(2) 0.8680(7) 0.1570(4)
H31 H 0.8211 0.9403 0.1563
Cd4 Cd 0.808396(16) 0.54899(5) 0.32923(2)
Cd3 Cd 0.808396(16) 0.45101(5) 0.82923(2)
O5 O 0.85856(18) 0.5998(6) 0.9177(3)
O7 O 0.80306(18) 0.5189(5) 0.9205(3)
C41 C 0.8353(2) 0.5912(7) 0.9440(3)
N10 N 0.8634(2) 0.3872(7) 0.8102(3)
C44 C 0.8765(3) 0.2194(9) 0.8927(5)
C60 C 0.9105(4) 0.4054(14) 0.7675(7)
H33 H 0.9182 0.4480 0.7397
C62 C 0.9254(3) 0.2452(11) 0.8504(6)
N16 N 0.8407(2) 0.2570(7) 0.8917(3)
C67 C 0.8881(3) 0.2863(8) 0.8498(5)
C68 C 0.8292(4) 0.1950(10) 0.9301(5)
H38 H 0.8042 0.2210 0.9288
C69 C 0.9348(4) 0.3053(12) 0.8071(6)
H39 H 0.9583 0.2776 0.8045
C70 C 0.9401(4) 0.0827(12) 0.9350(9)
H40 H 0.9574 0.0169 0.9638
C71 C 0.8734(3) 0.4453(10) 0.7683(5)
H41 H 0.8562 0.5116 0.7399
C72 C 0.8525(5) 0.0931(13) 0.9724(7)
H42 H 0.8432 0.0512 0.9985
C75 C 0.9517(4) 0.1419(13) 0.8948(7)
H45 H 0.9765 0.1165 0.8955
C77 C 0.8894(5) 0.0558(12) 0.9750(7)
C78 C 0.9024(4) 0.1172(10) 0.9348(6)
N18 N 0.78139(18) 0.6310(5) 0.7608(3)
N19 N 0.74596(19) 0.3243(5) 0.7780(3)
Cd2_3 Cd 0.5000 0.56845(7) 0.2500
O1_2 O 0.64144(18) 0.0998(6) 0.5823(3)
O2_2 O 0.55091(19) 0.4258(6) 0.3075(3)
O3_2 O 0.69694(18) 0.0189(5) 0.5795(3)
C1_2 C 0.6957(2) 0.2549(7) 0.3792(3)
N1_2 N 0.7748(2) 0.2156(6) 0.1904(3)
C2_2 C 0.6647(2) 0.0912(7) 0.5560(3)
C3_2 C 0.6124(2) 0.2354(7) 0.4595(3)
H1_2 H 0.5939 0.2314 0.4762
O4_2 O 0.5364(2) 0.3905(8) 0.3887(3)
C4_2 C 0.7391(2) 0.2674(6) 0.3072(3)
N3_2 N 0.78139(18) 0.3690(5) 0.2608(3)
C6_2 C 0.7145(2) 0.3722(7) 0.3070(4)
H2_2 H 0.7121 0.4461 0.2820
N4_2 N 0.75404(19) 0.1757(5) 0.2220(3)
C7_2 C 0.3879(3) 0.6340(11) 0.2915(5)
H3_2 H 0.3600 0.6029 0.2726
C8_2 C 0.7421(2) 0.1561(7) 0.3445(4)
H4_2 H 0.7581 0.0852 0.3448
N5_2 N 0.4530(2) 0.6347(6) 0.2899(3)
C9_2 C 0.6284(2) 0.3072(7) 0.3762(4)
H5_2 H 0.6196 0.3504 0.3356
C10_2 C 0.6686(2) 0.2490(7) 0.4096(3)
C11_2 C 0.6009(2) 0.3028(7) 0.4014(3)
N6_2 N 0.7921(2) 0.3313(6) 0.2144(3)
C12_2 C 0.5584(2) 0.3779(7) 0.3627(4)
C13_2 C 0.7585(2) 0.2694(6) 0.2645(3)
C14_2 C 0.4695(3) 0.7186(8) 0.3428(4)
C15_2 C 0.7215(2) 0.1512(7) 0.3807(3)
H6_2 H 0.7247 0.0780 0.4066
C16_2 C 0.6527(2) 0.1717(7) 0.4941(3)
C17_2 C 0.6801(2) 0.1792(7) 0.4686(4)
H7_2 H 0.7064 0.1369 0.4912
C18_2 C 0.6941(2) 0.3680(7) 0.3430(4)
H8_2 H 0.6789 0.4403 0.3437
C19_2 C 0.5741(3) 0.7734(11) 0.3643(5)
H9_2 H 0.5896 0.7475 0.3443
C20_2 C 0.4453(3) 0.7595(10) 0.3719(5)
N7_2 N 0.5343(2) 0.7269(7) 0.3395(4)
C22_2 C 0.5125(3) 0.7658(9) 0.3690(5)
C24_2 C 0.4035(3) 0.7164(10) 0.3435(5)
H11_2 H 0.3865 0.7445 0.3605
C25_2 C 0.5713(5) 0.8966(16) 0.4484(8)
H12_2 H 0.5835 0.9552 0.4843
C26_2 C 0.4133(3) 0.5940(9) 0.2651(5)
H13_2 H 0.4016 0.5365 0.2287
C27_2 C 0.5063(6) 0.8864(19) 0.4544(10)
H14_2 H 0.5185 0.9399 0.4924
H18_2 H 0.6438 0.0116 0.7601
C34_2 C 0.4652(5) 0.8462(17) 0.4273(9)
H20_2 H 0.4494 0.8768 0.4458
C35_2 C 0.5931(4) 0.8587(13) 0.4186(7)
H21_2 H 0.6207 0.8894 0.4343
C37_2 C 0.5308(4) 0.8475(14) 0.4252(8)
O6_2 O 0.44909(19) 0.4258(6) 0.1925(3)
C40_2 C 0.3043(2) 0.2549(7) 0.1208(3)
N9_2 N 0.2252(2) 0.2156(6) 0.3096(3)
C42_2 C 0.3876(2) 0.2354(7) 0.0405(3)
H24_2 H 0.4061 0.2314 0.0238
O8_2 O 0.4636(2) 0.3905(8) 0.1113(3)
C43_2 C 0.2609(2) 0.2674(6) 0.1928(3)
N11_2 N 0.21861(18) 0.3690(5) 0.2392(3)
C45_2 C 0.2855(2) 0.3722(7) 0.1930(4)
H25_2 H 0.2879 0.4461 0.2180
N12_2 N 0.24596(19) 0.1757(5) 0.2780(3)
C46_2 C 0.6121(3) 0.6340(11) 0.2085(5)
H26_2 H 0.6400 0.6029 0.2274
C47_2 C 0.2579(2) 0.1561(7) 0.1555(4)
H27_2 H 0.2419 0.0852 0.1552
N13_2 N 0.5470(2) 0.6347(6) 0.2101(3)
C48_2 C 0.3716(2) 0.3072(7) 0.1238(4)
H28_2 H 0.3804 0.3504 0.1644
C49_2 C 0.3314(2) 0.2490(7) 0.0904(3)
C50_2 C 0.3991(2) 0.3028(7) 0.0986(3)
N14_2 N 0.2079(2) 0.3313(6) 0.2856(3)
C51_2 C 0.4416(2) 0.3779(7) 0.1373(4)
C52_2 C 0.2415(2) 0.2694(6) 0.2355(3)
C53_2 C 0.5305(3) 0.7186(8) 0.1572(4)
C54_2 C 0.2785(2) 0.1512(7) 0.1193(3)
H29_2 H 0.2753 0.0780 0.0934
C55_2 C 0.3473(2) 0.1717(7) 0.0059(3)
C56_2 C 0.3199(2) 0.1792(7) 0.0314(4)
H30_2 H 0.2936 0.1369 0.0088
C57_2 C 0.3059(2) 0.3680(7) 0.1570(4)
H31_2 H 0.3211 0.4403 0.1563
C58_2 C 0.4259(3) 0.7734(11) 0.1357(5)
H32_2 H 0.4104 0.7475 0.1557
C59_2 C 0.5547(3) 0.7595(10) 0.1281(5)
N15_2 N 0.4657(2) 0.7269(7) 0.1605(4)
C61_2 C 0.4875(3) 0.7658(9) 0.1310(5)
C63_2 C 0.5965(3) 0.7164(10) 0.1565(5)
H34_2 H 0.6135 0.7445 0.1395
C64_2 C 0.4287(5) 0.8966(16) 0.0516(8)
H35_2 H 0.4165 0.9552 0.0157
C65_2 C 0.5867(3) 0.5940(9) 0.2349(5)
H36_2 H 0.5984 0.5365 0.2713
C66_2 C 0.4937(6) 0.8864(19) 0.0456(10)
H37_2 H 0.4815 0.9399 0.0076
C73_2 C 0.5348(5) 0.8462(17) 0.0727(9)
H43_2 H 0.5506 0.8768 0.0542
C74_2 C 0.4069(4) 0.8587(13) 0.0814(7)
H44_2 H 0.3793 0.8894 0.0657
C76_2 C 0.4692(4) 0.8475(14) 0.0748(8)
N17_2 N 0.71861(18) 0.1310(5) 0.7392(3)
O5_2 O 0.35856(18) 0.0998(6) 0.9177(3)
O7_2 O 0.30306(18) 0.0189(5) 0.9205(3)
C41_2 C 0.3353(2) 0.0912(7) 0.9440(3)
H41_2 H 0.3562 0.0116 0.7399
N18_2 N 0.28139(18) 0.1310(5) 0.7608(3)
Cd1_2 Cd 0.691604(16) 0.95101(5) 0.67077(2)
N2_2 N 0.6366(2) 0.8872(7) 0.6898(3)
C5_2 C 0.6235(3) 0.7194(9) 0.6073(5)
C21_2 C 0.5895(4) 0.9054(14) 0.7325(7)
H10_2 H 0.5818 0.9480 0.7603
C23_2 C 0.5746(3) 0.7452(11) 0.6496(6)
N8_2 N 0.6593(2) 0.7570(7) 0.6083(3)
C28_2 C 0.6119(3) 0.7863(8) 0.6502(5)
C29_2 C 0.6708(4) 0.6950(10) 0.5699(5)
H15_2 H 0.6958 0.7210 0.5712
C30_2 C 0.5652(4) 0.8053(12) 0.6929(6)
H16_2 H 0.5417 0.7776 0.6955
C31_2 C 0.5599(4) 0.5827(12) 0.5650(9)
H17_2 H 0.5426 0.5169 0.5362
C32_2 C 0.6266(3) 0.9453(10) 0.7317(5)
C33_2 C 0.6475(5) 0.5931(13) 0.5276(7)
H19_2 H 0.6568 0.5512 0.5015
C36_2 C 0.5483(4) 0.6419(13) 0.6052(7)
H22_2 H 0.5235 0.6165 0.6045
C38_2 C 0.6106(5) 0.5558(12) 0.5250(7)
H23 H 0.5941 0.4889 0.4962
C39_2 C 0.5976(4) 0.6172(10) 0.5652(6)
H46 H 0.4059 0.4889 0.0038
N20_2 N 0.75404(19) 0.8243(5) 0.7220(3)
Cd3_2 Cd 0.308396(16) 0.95101(5) 0.82923(2)
N10_2 N 0.3634(2) 0.8872(7) 0.8102(3)
C44_2 C 0.3765(3) 0.7194(9) 0.8927(5)
C60_2 C 0.4105(4) 0.9054(14) 0.7675(7)
H33_2 H 0.4182 0.9480 0.7397
C62_2 C 0.4254(3) 0.7452(11) 0.8504(6)
N16_2 N 0.3407(2) 0.7570(7) 0.8917(3)
C67_2 C 0.3881(3) 0.7863(8) 0.8498(5)
C68_2 C 0.3292(4) 0.6950(10) 0.9301(5)
H38_2 H 0.3042 0.7210 0.9288
C69_2 C 0.4348(4) 0.8053(12) 0.8071(6)
H39_2 H 0.4583 0.7776 0.8045
C70_2 C 0.4401(4) 0.5827(12) 0.9350(9)
H40_2 H 0.4574 0.5169 0.9638
C71_2 C 0.3734(3) 0.9453(10) 0.7683(5)
C72_2 C 0.3525(5) 0.5931(13) 0.9724(7)
H42_2 H 0.3432 0.5512 0.9985
C75_2 C 0.4517(4) 0.6419(13) 0.8948(7)
H45_2 H 0.4765 0.6165 0.8955
C77_2 C 0.3894(5) 0.5558(12) 0.9750(7)
C78_2 C 0.4024(4) 0.6172(10) 0.9348(6)
N19_2 N 0.24596(19) 0.8243(5) 0.7780(3)
O5_3 O 0.14144(18) 0.4002(6) 0.0823(3)
O7_3 O 0.19694(18) 0.4811(5) 0.0795(3)
C41_3 C 0.1647(2) 0.4088(7) 0.0560(3)
N10_3 N 0.1366(2) 0.6128(7) 0.1898(3)
C44_3 C 0.1235(3) 0.7806(9) 0.1073(5)
C60_3 C 0.0895(4) 0.5946(14) 0.2325(7)
H33_3 H 0.0818 0.5520 0.2603
C62_3 C 0.0746(3) 0.7548(11) 0.1496(6)
N16_3 N 0.1593(2) 0.7430(7) 0.1083(3)
C67_3 C 0.1119(3) 0.7137(8) 0.1502(5)
C68_3 C 0.1708(4) 0.8050(10) 0.0699(5)
H38_3 H 0.1958 0.7790 0.0712
C69_3 C 0.0652(4) 0.6947(12) 0.1929(6)
H39_3 H 0.0417 0.7224 0.1955
C70_3 C 0.0599(4) 0.9173(12) 0.0650(9)
H40_3 H 0.0426 0.9831 0.0362
C71_3 C 0.1266(3) 0.5547(10) 0.2317(5)
H41_3 H 0.1438 0.4884 0.2601
C72_3 C 0.1475(5) 0.9069(13) 0.0276(7)
H42_3 H 0.1568 0.9488 0.0015
C75_3 C 0.0483(4) 0.8581(13) 0.1052(7)
H45_3 H 0.0235 0.8835 0.1045
C77_3 C 0.1106(5) 0.9442(12) 0.0250(7)
C78_3 C 0.0976(4) 0.8828(10) 0.0652(6)
O6_3 O 0.05091(19) 0.0742(6) 0.8075(3)
C40_3 C 0.1957(2) 0.2451(7) 0.8792(3)
N9_3 N 0.2748(2) 0.2844(6) 0.6904(3)
C42_3 C 0.1124(2) 0.2646(7) 0.9595(3)
H24_3 H 0.0939 0.2686 0.9762
O8_3 O 0.0364(2) 0.1095(8) 0.8887(3)
C43_3 C 0.2391(2) 0.2326(6) 0.8072(3)
C45_3 C 0.2145(2) 0.1278(7) 0.8070(4)
H25_3 H 0.2121 0.0539 0.7820
C47_3 C 0.2421(2) 0.3439(7) 0.8445(4)
H27_3 H 0.2581 0.4148 0.8448
C48_3 C 0.1284(2) 0.1928(7) 0.8762(4)
H28_3 H 0.1196 0.1496 0.8356
C49_3 C 0.1686(2) 0.2510(7) 0.9096(3)
C50_3 C 0.1009(2) 0.1972(7) 0.9014(3)
N14_3 N 0.2921(2) 0.1687(6) 0.7144(3)
C51_3 C 0.0584(2) 0.1221(7) 0.8627(4)
C52_3 C 0.2585(2) 0.2306(6) 0.7645(3)
C54_3 C 0.2215(2) 0.3488(7) 0.8807(3)
H29_3 H 0.2247 0.4220 0.9066
C55_3 C 0.1527(2) 0.3283(7) 0.9941(3)
C56_3 C 0.1801(2) 0.3208(7) 0.9686(4)
H30_3 H 0.2064 0.3631 0.9912
C57_3 C 0.1941(2) 0.1320(7) 0.8430(4)
H31_3 H 0.1789 0.0597 0.8437
Cd2_4 Cd -0.0000 0.93155(7) 0.7500
C7_3 C 0.1121(3) 0.8660(11) 0.7085(5)
H3_3 H 0.1400 0.8971 0.7274
N5_3 N 0.0470(2) 0.8653(6) 0.7101(3)
C14_3 C 0.0305(3) 0.7814(8) 0.6572(4)
C20_3 C 0.0547(3) 0.7405(10) 0.6281(5)
C24_3 C 0.0965(3) 0.7836(10) 0.6565(5)
H11_3 H 0.1135 0.7555 0.6395
C26_3 C 0.0867(3) 0.9060(9) 0.7349(5)
H13_3 H 0.0984 0.9635 0.7713
C34_3 C 0.0348(5) 0.6538(17) 0.5727(9)
H20_3 H 0.0506 0.6232 0.5542
C58_3 C 0.0741(3) 0.7266(11) 0.8643(5)
H32_3 H 0.0896 0.7525 0.8443
N15_3 N 0.0343(2) 0.7731(7) 0.8395(4)
C61_3 C 0.0125(3) 0.7342(9) 0.8690(5)
C64_3 C 0.0713(5) 0.6034(16) 0.9484(8)
H35_3 H 0.0835 0.5448 0.9843
C66_3 C 0.0063(6) 0.6136(19) 0.9544(10)
H37_3 H 0.0185 0.5601 0.9924
C74_3 C 0.0931(4) 0.6413(13) 0.9186(7)
H44_3 H 0.1207 0.6106 0.9343
C76_3 C 0.0308(4) 0.6525(14) 0.9252(8)
O1_3 O 0.85856(18) 0.4002(6) 0.4177(3)
O2_3 O 0.94909(19) 0.0742(6) 0.6925(3)
O3_3 O 0.80306(18) 0.4811(5) 0.4205(3)
C1_3 C 0.8043(2) 0.2451(7) 0.6208(3)
N1_3 N 0.7252(2) 0.2844(6) 0.8096(3)
C2_3 C 0.8353(2) 0.4088(7) 0.4440(3)
N2_3 N 0.8634(2) 0.6128(7) 0.3102(3)
C3_3 C 0.8876(2) 0.2646(7) 0.5405(3)
H1_3 H 0.9061 0.2686 0.5238
O4_3 O 0.9636(2) 0.1095(8) 0.6113(3)
C4_3 C 0.7609(2) 0.2326(6) 0.6928(3)
C5_3 C 0.8765(3) 0.7806(9) 0.3927(5)
C6_3 C 0.7855(2) 0.1278(7) 0.6930(4)
H2_3 H 0.7879 0.0539 0.7180
C8_3 C 0.7579(2) 0.3439(7) 0.6555(4)
H4_3 H 0.7419 0.4148 0.6552
C9_3 C 0.8716(2) 0.1928(7) 0.6238(4)
H5_3 H 0.8804 0.1496 0.6644
C10_3 C 0.8314(2) 0.2510(7) 0.5904(3)
C11_3 C 0.8991(2) 0.1972(7) 0.5986(3)
N6_3 N 0.7079(2) 0.1687(6) 0.7856(3)
C12_3 C 0.9416(2) 0.1221(7) 0.6373(4)
C13_3 C 0.7415(2) 0.2306(6) 0.7355(3)
C15_3 C 0.7785(2) 0.3488(7) 0.6193(3)
H6_3 H 0.7753 0.4220 0.5934
C16_3 C 0.8473(2) 0.3283(7) 0.5059(3)
C17_3 C 0.8199(2) 0.3208(7) 0.5314(4)
H7_3 H 0.7936 0.3631 0.5088
C18_3 C 0.8059(2) 0.1320(7) 0.6570(4)
H8_3 H 0.8211 0.0597 0.6563
C21_3 C 0.9105(4) 0.5946(14) 0.2675(7)
H10_3 H 0.9182 0.5520 0.2397
C23_3 C 0.9254(3) 0.7548(11) 0.3504(6)
N8_3 N 0.8407(2) 0.7430(7) 0.3917(3)
C28_3 C 0.8881(3) 0.7137(8) 0.3498(5)
C29_3 C 0.8292(4) 0.8050(10) 0.4301(5)
H15_3 H 0.8042 0.7790 0.4288
C30_3 C 0.9348(4) 0.6947(12) 0.3071(6)
H16_3 H 0.9583 0.7224 0.3045
C31_3 C 0.9401(4) 0.9173(12) 0.4350(9)
H17_3 H 0.9574 0.9831 0.4638
C32_3 C 0.8734(3) 0.5547(10) 0.2683(5)
H18_3 H 0.8562 0.4884 0.2399
C33_3 C 0.8525(5) 0.9069(13) 0.4724(7)
H19_3 H 0.8432 0.9488 0.4985
C36_3 C 0.9517(4) 0.8581(13) 0.3948(7)
H22_3 H 0.9765 0.8835 0.3955
C38_3 C 0.8894(5) 0.9442(12) 0.4750(7)
C39_3 C 0.9024(4) 0.8828(10) 0.4348(6)
Cd2_5 Cd 1.0000 0.93155(7) 0.7500
C19_3 C 0.9259(3) 0.7266(11) 0.6357(5)
H9_3 H 0.9104 0.7525 0.6557
N7_3 N 0.9657(2) 0.7731(7) 0.6605(4)
C22_3 C 0.9875(3) 0.7342(9) 0.6310(5)
C25_3 C 0.9287(5) 0.6034(16) 0.5516(8)
H12_3 H 0.9165 0.5448 0.5157
C27_3 C 0.9937(6) 0.6136(19) 0.5456(10)
H14_3 H 0.9815 0.5601 0.5076
C35_3 C 0.9069(4) 0.6413(13) 0.5814(7)
H21_3 H 0.8793 0.6106 0.5657
C37_3 C 0.9692(4) 0.6525(14) 0.5748(8)
C46_3 C 0.8879(3) 0.8660(11) 0.7915(5)
H26_3 H 0.8600 0.8971 0.7726
N13_3 N 0.9530(2) 0.8653(6) 0.7899(3)
C53_3 C 0.9695(3) 0.7814(8) 0.8428(4)
C59_3 C 0.9453(3) 0.7405(10) 0.8719(5)
C63_3 C 0.9035(3) 0.7836(10) 0.8435(5)
H34_3 H 0.8865 0.7555 0.8605
C65_3 C 0.9133(3) 0.9060(9) 0.7651(5)
H36_3 H 0.9016 0.9635 0.7287
C73_3 C 0.9652(5) 0.6538(17) 0.9273(9)
H43_3 H 0.9494 0.6232 0.9458
N10_4 N 0.6366(2) 0.1128(7) 0.1898(3)
C44_4 C 0.6235(3) 0.2806(9) 0.1073(5)
C60_4 C 0.5895(4) 0.0946(14) 0.2325(7)
H33_4 H 0.5818 0.0520 0.2603
C62_4 C 0.5746(3) 0.2548(11) 0.1496(6)
N16_4 N 0.6593(2) 0.2430(7) 0.1083(3)
C67_4 C 0.6119(3) 0.2137(8) 0.1502(5)
C68_4 C 0.6708(4) 0.3050(10) 0.0699(5)
H38_4 H 0.6958 0.2790 0.0712
C69_4 C 0.5652(4) 0.1947(12) 0.1929(6)
H39_4 H 0.5417 0.2224 0.1955
C70_4 C 0.5599(4) 0.4173(12) 0.0650(9)
H40_4 H 0.5426 0.4831 0.0362
C71_4 C 0.6266(3) 0.0547(10) 0.2317(5)
C72_4 C 0.6475(5) 0.4069(13) 0.0276(7)
H42_4 H 0.6568 0.4488 0.0015
C75_4 C 0.5483(4) 0.3581(13) 0.1052(7)
H45_4 H 0.5235 0.3835 0.1045
C77_4 C 0.6106(5) 0.4442(12) 0.0250(7)
C78_4 C 0.5976(4) 0.3828(10) 0.0652(6)
N2_4 N 0.3634(2) 0.1128(7) 0.3102(3)
C5_4 C 0.3765(3) 0.2806(9) 0.3927(5)
C21_4 C 0.4105(4) 0.0946(14) 0.2675(7)
H10_4 H 0.4182 0.0520 0.2397
C23_4 C 0.4254(3) 0.2548(11) 0.3504(6)
N8_4 N 0.3407(2) 0.2430(7) 0.3917(3)
C28_4 C 0.3881(3) 0.2137(8) 0.3498(5)
C29_4 C 0.3292(4) 0.3050(10) 0.4301(5)
H15_4 H 0.3042 0.2790 0.4288
C30_4 C 0.4348(4) 0.1947(12) 0.3071(6)
H16_4 H 0.4583 0.2224 0.3045
C31_4 C 0.4401(4) 0.4173(12) 0.4350(9)
H17_4 H 0.4574 0.4831 0.4638
C32_4 C 0.3734(3) 0.0547(10) 0.2683(5)
C33_4 C 0.3525(5) 0.4069(13) 0.4724(7)
H19_4 H 0.3432 0.4488 0.4985
C36_4 C 0.4517(4) 0.3581(13) 0.3948(7)
H22_4 H 0.4765 0.3835 0.3955
C38_4 C 0.3894(5) 0.4442(12) 0.4750(7)
H23_2 H 0.4059 0.5111 0.5038
C39_4 C 0.4024(4) 0.3828(10) 0.4348(6)
H46_2 H 0.5941 0.5111 0.9962
O5_4 O 0.64144(18) 0.9002(6) 0.0823(3)
O7_4 O 0.69694(18) 0.9811(5) 0.0795(3)
C41_4 C 0.6647(2) 0.9088(7) 0.0560(3)
H41_4 H 0.6438 0.9884 0.2601
Cd2_6 Cd 0.5000 0.43155(7) 0.7500
O1_4 O 0.35856(18) 0.9002(6) 0.4177(3)
O2_4 O 0.44909(19) 0.5742(6) 0.6925(3)
O3_4 O 0.30306(18) 0.9811(5) 0.4205(3)
C1_4 C 0.3043(2) 0.7451(7) 0.6208(3)
N1_4 N 0.2252(2) 0.7844(6) 0.8096(3)
C2_4 C 0.3353(2) 0.9088(7) 0.4440(3)
C3_4 C 0.3876(2) 0.7646(7) 0.5405(3)
H1_4 H 0.4061 0.7686 0.5238
O4_4 O 0.4636(2) 0.6095(8) 0.6113(3)
C4_4 C 0.2609(2) 0.7326(6) 0.6928(3)
C6_4 C 0.2855(2) 0.6278(7) 0.6930(4)
H2_4 H 0.2879 0.5539 0.7180
C7_4 C 0.6121(3) 0.3660(11) 0.7085(5)
H3_4 H 0.6400 0.3971 0.7274
C8_4 C 0.2579(2) 0.8439(7) 0.6555(4)
H4_4 H 0.2419 0.9148 0.6552
N5_4 N 0.5470(2) 0.3653(6) 0.7101(3)
C9_4 C 0.3716(2) 0.6928(7) 0.6238(4)
H5_4 H 0.3804 0.6496 0.6644
C10_4 C 0.3314(2) 0.7510(7) 0.5904(3)
C11_4 C 0.3991(2) 0.6972(7) 0.5986(3)
N6_4 N 0.2079(2) 0.6687(6) 0.7856(3)
C12_4 C 0.4416(2) 0.6221(7) 0.6373(4)
C13_4 C 0.2415(2) 0.7306(6) 0.7355(3)
C14_4 C 0.5305(3) 0.2814(8) 0.6572(4)
C15_4 C 0.2785(2) 0.8488(7) 0.6193(3)
H6_4 H 0.2753 0.9220 0.5934
C16_4 C 0.3473(2) 0.8283(7) 0.5059(3)
C17_4 C 0.3199(2) 0.8208(7) 0.5314(4)
H7_4 H 0.2936 0.8631 0.5088
C18_4 C 0.3059(2) 0.6320(7) 0.6570(4)
H8_4 H 0.3211 0.5597 0.6563
C19_4 C 0.4259(3) 0.2266(11) 0.6357(5)
H9_4 H 0.4104 0.2525 0.6557
C20_4 C 0.5547(3) 0.2405(10) 0.6281(5)
N7_4 N 0.4657(2) 0.2731(7) 0.6605(4)
C22_4 C 0.4875(3) 0.2342(9) 0.6310(5)
C24_4 C 0.5965(3) 0.2836(10) 0.6565(5)
H11_4 H 0.6135 0.2555 0.6395
C25_4 C 0.4287(5) 0.1034(16) 0.5516(8)
H12_4 H 0.4165 0.0448 0.5157
C26_4 C 0.5867(3) 0.4060(9) 0.7349(5)
H13_4 H 0.5984 0.4635 0.7713
C27_4 C 0.4937(6) 0.1136(19) 0.5456(10)
H14_4 H 0.4815 0.0601 0.5076
H18_4 H 0.3562 0.9884 0.2399
C34_4 C 0.5348(5) 0.1538(17) 0.5727(9)
H20_4 H 0.5506 0.1232 0.5542
C35_4 C 0.4069(4) 0.1413(13) 0.5814(7)
H21_4 H 0.3793 0.1106 0.5657
C37_4 C 0.4692(4) 0.1525(14) 0.5748(8)
O6_4 O 0.55091(19) 0.5742(6) 0.8075(3)
C40_4 C 0.6957(2) 0.7451(7) 0.8792(3)
N9_4 N 0.7748(2) 0.7844(6) 0.6904(3)
C42_4 C 0.6124(2) 0.7646(7) 0.9595(3)
H24_4 H 0.5939 0.7686 0.9762
O8_4 O 0.5364(2) 0.6095(8) 0.8887(3)
C43_4 C 0.7391(2) 0.7326(6) 0.8072(3)
C45_4 C 0.7145(2) 0.6278(7) 0.8070(4)
H25_4 H 0.7121 0.5539 0.7820
C46_4 C 0.3879(3) 0.3660(11) 0.7915(5)
H26_4 H 0.3600 0.3971 0.7726
C47_4 C 0.7421(2) 0.8439(7) 0.8445(4)
H27_4 H 0.7581 0.9148 0.8448
N13_4 N 0.4530(2) 0.3653(6) 0.7899(3)
C48_4 C 0.6284(2) 0.6928(7) 0.8762(4)
H28_4 H 0.6196 0.6496 0.8356
C49_4 C 0.6686(2) 0.7510(7) 0.9096(3)
C50_4 C 0.6009(2) 0.6972(7) 0.9014(3)
N14_4 N 0.7921(2) 0.6687(6) 0.7144(3)
C51_4 C 0.5584(2) 0.6221(7) 0.8627(4)
C52_4 C 0.7585(2) 0.7306(6) 0.7645(3)
C53_4 C 0.4695(3) 0.2814(8) 0.8428(4)
C54_4 C 0.7215(2) 0.8488(7) 0.8807(3)
H29_4 H 0.7247 0.9220 0.9066
C55_4 C 0.6527(2) 0.8283(7) 0.9941(3)
C56_4 C 0.6801(2) 0.8208(7) 0.9686(4)
H30_4 H 0.7064 0.8631 0.9912
C57_4 C 0.6941(2) 0.6320(7) 0.8430(4)
H31_4 H 0.6789 0.5597 0.8437
C58_4 C 0.5741(3) 0.2266(11) 0.8643(5)
H32_4 H 0.5896 0.2525 0.8443
C59_4 C 0.4453(3) 0.2405(10) 0.8719(5)
N15_4 N 0.5343(2) 0.2731(7) 0.8395(4)
C61_4 C 0.5125(3) 0.2342(9) 0.8690(5)
C63_4 C 0.4035(3) 0.2836(10) 0.8435(5)
H34_4 H 0.3865 0.2555 0.8605
C64_4 C 0.5713(5) 0.1034(16) 0.9484(8)
H35_4 H 0.5835 0.0448 0.9843
C65_4 C 0.4133(3) 0.4060(9) 0.7651(5)
H36_4 H 0.4016 0.4635 0.7287
C66_4 C 0.5063(6) 0.1136(19) 0.9544(10)
H37_4 H 0.5185 0.0601 0.9924
C73_4 C 0.4652(5) 0.1538(17) 0.9273(9)
H43_4 H 0.4494 0.1232 0.9458
C74_4 C 0.5931(4) 0.1413(13) 0.9186(7)
H44_4 H 0.6207 0.1106 0.9343
C76_4 C 0.5308(4) 0.1525(14) 0.9252(8)
H23_3 H 0.0941 0.9889 0.4962
H46_3 H 0.9059 0.9889 0.0038
H46_4 H 0.0941 0.0111 0.9962
H23_4 H 0.9059 0.0111 0.5038
loop_
_geom_bond_atom_site_label_1
_geom_bond_atom_site_label_2
_geom_bond_site_symmetry_1
_geom_bond_site_symmetry_2
C19 H9 1_555 1_555
N7 Cd2 1_555 1_555
C25 H12 1_555 1_555
C27 H14 1_555 1_555
C35 C19 1_555 1_555
H21 C35 1_555 1_555
C37 C22 1_555 1_555
C46 H26 1_555 1_555
N13 Cd2 1_555 1_555
C53 N13 1_555 1_555
C59 C53 1_555 1_555
C63 C46 1_555 1_555
H34 C63 1_555 1_555
C65 C46 1_555 1_555
H36 C65 1_555 1_555
C73 C59 1_555 1_555
H43 C73 1_555 1_555
C19 N7 1_555 1_555
N7 C22 1_555 1_555
C25 C35 1_555 1_555
C25 C37 1_555 1_555
C27 C37 1_555 1_555
N13 C65 1_555 1_555
C59 C63 1_555 1_555
Cd1 O1 1_555 1_555
O1 C2 1_555 1_555
O2 C12 1_555 1_555
O3 Cd1 1_555 1_555
C1 C10 1_555 1_555
N1 N4 1_555 1_555
C2 O3 1_555 1_555
N2 Cd1 1_555 1_555
C3 H1 1_555 1_555
O4 C12 1_555 1_555
C4 C6 1_555 1_555
N3 N6 1_555 1_555
C5 N8 1_555 1_555
C6 H2 1_555 1_555
N4 C13 1_555 1_555
C8 C4 1_555 1_555
H4 C8 1_555 1_555
C9 H5 1_555 1_555
C10 C9 1_555 1_555
C11 C3 1_555 1_555
N6 N1 1_555 1_555
C12 C11 1_555 1_555
C13 C4 1_555 1_555
C15 C1 1_555 1_555
H6 C15 1_555 1_555
C16 C2 1_555 1_555
C17 C10 1_555 1_555
H7 C17 1_555 1_555
C18 C1 1_555 1_555
H8 C18 1_555 1_555
C21 H10 1_555 1_555
C23 C28 1_555 1_555
N8 Cd1 1_555 1_555
C28 N2 1_555 1_555
C29 N8 1_555 1_555
H15 C29 1_555 1_555
C30 C21 1_555 1_555
H16 C30 1_555 1_555
C31 H17 1_555 1_555
C32 N2 1_555 1_555
H18 C32 1_555 1_555
C33 C29 1_555 1_555
H19 C33 1_555 1_555
C36 C23 1_555 1_555
H22 C36 1_555 1_555
C38 C33 1_555 1_555
C39 C5 1_555 1_555
Cd5 N4 1_555 1_555
N17 Cd1 1_555 1_555
N20 Cd1 1_555 1_555
C3 C16 1_555 1_555
N3 C13 1_555 1_555
C5 C28 1_555 1_555
C6 C18 1_555 1_555
C8 C15 1_555 1_555
C9 C11 1_555 1_555
C16 C17 1_555 1_555
C21 C32 1_555 1_555
C23 C30 1_555 1_555
C31 C36 1_555 1_555
C31 C39 1_555 1_555
C38 C39 1_555 1_555
C7 H3 1_555 1_555
N5 Cd2_2 1_555 1_555
C14 N5 1_555 1_555
C20 C14 1_555 1_555
C24 C7 1_555 1_555
H11 C24 1_555 1_555
C26 C7 1_555 1_555
H13 C26 1_555 1_555
C34 C20 1_555 1_555
H20 C34 1_555 1_555
C58 H32 1_555 1_555
N15 Cd2_2 1_555 1_555
C64 H35 1_555 1_555
C66 H37 1_555 1_555
C74 C58 1_555 1_555
H44 C74 1_555 1_555
C76 C61 1_555 1_555
N5 C26 1_555 1_555
C20 C24 1_555 1_555
C58 N15 1_555 1_555
N15 C61 1_555 1_555
C64 C74 1_555 1_555
C64 C76 1_555 1_555
C66 C76 1_555 1_555
C40 C49 1_555 1_555
N9 N12 1_555 1_555
C42 H24 1_555 1_555
O8 C51 1_555 1_555
C43 C45 1_555 1_555
N11 N14 1_555 1_555
C45 H25 1_555 1_555
N12 C52 1_555 1_555
C47 C43 1_555 1_555
H27 C47 1_555 1_555
C48 H28 1_555 1_555
C49 C48 1_555 1_555
C50 C42 1_555 1_555
N14 N9 1_555 1_555
C51 O6 1_555 1_555
C52 C43 1_555 1_555
C54 C40 1_555 1_555
H29 C54 1_555 1_555
C56 C49 1_555 1_555
H30 C56 1_555 1_555
C57 C40 1_555 1_555
H31 C57 1_555 1_555
Cd4 N12 1_555 1_555
C42 C55 1_555 1_555
N11 C52 1_555 1_555
C45 C57 1_555 1_555
C47 C54 1_555 1_555
C48 C50 1_555 1_555
C50 C51 1_555 1_555
C55 C56 1_555 1_555
Cd3 O5 1_555 1_555
O5 C41 1_555 1_555
O7 Cd3 1_555 1_555
C41 O7 1_555 1_555
N10 Cd3 1_555 1_555
C44 N16 1_555 1_555
C60 H33 1_555 1_555
C62 C67 1_555 1_555
N16 Cd3 1_555 1_555
C67 N10 1_555 1_555
C68 N16 1_555 1_555
H38 C68 1_555 1_555
C69 C60 1_555 1_555
H39 C69 1_555 1_555
C70 H40 1_555 1_555
C71 N10 1_555 1_555
H41 C71 1_555 1_555
C72 C68 1_555 1_555
H42 C72 1_555 1_555
C75 C62 1_555 1_555
H45 C75 1_555 1_555
C77 C72 1_555 1_555
C78 C44 1_555 1_555
N18 Cd3 1_555 1_555
N19 Cd3 1_555 1_555
C44 C67 1_555 1_555
C60 C71 1_555 1_555
C62 C69 1_555 1_555
C70 C75 1_555 1_555
C70 C78 1_555 1_555
C77 C78 1_555 1_555
Cd2_3 O2_2 1_555 1_555
O1_2 C2_2 1_555 1_555
O2_2 C12_2 1_555 1_555
C1_2 C10_2 1_555 1_555
N1_2 N4_2 1_555 1_555
C2_2 O3_2 1_555 1_555
C3_2 H1_2 1_555 1_555
O4_2 C12_2 1_555 1_555
C4_2 C6_2 1_555 1_555
N3_2 N6_2 1_555 1_555
C6_2 H2_2 1_555 1_555
N4_2 C13_2 1_555 1_555
C7_2 H3_2 1_555 1_555
C8_2 C4_2 1_555 1_555
H4_2 C8_2 1_555 1_555
N5_2 Cd2_3 1_555 1_555
C9_2 H5_2 1_555 1_555
C10_2 C9_2 1_555 1_555
C11_2 C3_2 1_555 1_555
N6_2 N1_2 1_555 1_555
C12_2 C11_2 1_555 1_555
C13_2 C4_2 1_555 1_555
C14_2 N5_2 1_555 1_555
C15_2 C1_2 1_555 1_555
H6_2 C15_2 1_555 1_555
C16_2 C2_2 1_555 1_555
C17_2 C10_2 1_555 1_555
H7_2 C17_2 1_555 1_555
C18_2 C1_2 1_555 1_555
H8_2 C18_2 1_555 1_555
C19_2 H9_2 1_555 1_555
C20_2 C14_2 1_555 1_555
N7_2 Cd2_3 1_555 1_555
C22_2 C14_2 1_555 1_555
C24_2 C7_2 1_555 1_555
H11_2 C24_2 1_555 1_555
C25_2 H12_2 1_555 1_555
C26_2 C7_2 1_555 1_555
H13_2 C26_2 1_555 1_555
C27_2 H14_2 1_555 1_555
C34_2 C20_2 1_555 1_555
H20_2 C34_2 1_555 1_555
C35_2 C19_2 1_555 1_555
H21_2 C35_2 1_555 1_555
C37_2 C22_2 1_555 1_555
O6_2 Cd2_3 1_555 1_555
C40_2 C49_2 1_555 1_555
N9_2 N12_2 1_555 1_555
C42_2 H24_2 1_555 1_555
O8_2 C51_2 1_555 1_555
C43_2 C45_2 1_555 1_555
N11_2 N14_2 1_555 1_555
C45_2 H25_2 1_555 1_555
N12_2 C52_2 1_555 1_555
C46_2 H26_2 1_555 1_555
C47_2 C43_2 1_555 1_555
H27_2 C47_2 1_555 1_555
N13_2 Cd2_3 1_555 1_555
C48_2 H28_2 1_555 1_555
C49_2 C48_2 1_555 1_555
C50_2 C42_2 1_555 1_555
N14_2 N9_2 1_555 1_555
C51_2 O6_2 1_555 1_555
C52_2 C43_2 1_555 1_555
C53_2 N13_2 1_555 1_555
C54_2 C40_2 1_555 1_555
H29_2 C54_2 1_555 1_555
C56_2 C49_2 1_555 1_555
H30_2 C56_2 1_555 1_555
C57_2 C40_2 1_555 1_555
H31_2 C57_2 1_555 1_555
C58_2 H32_2 1_555 1_555
C59_2 C53_2 1_555 1_555
N15_2 Cd2_3 1_555 1_555
C61_2 C53_2 1_555 1_555
C63_2 C46_2 1_555 1_555
H34_2 C63_2 1_555 1_555
C64_2 H35_2 1_555 1_555
C65_2 C46_2 1_555 1_555
H36_2 C65_2 1_555 1_555
C66_2 H37_2 1_555 1_555
C73_2 C59_2 1_555 1_555
H43_2 C73_2 1_555 1_555
C74_2 C58_2 1_555 1_555
H44_2 C74_2 1_555 1_555
C76_2 C61_2 1_555 1_555
Cd6 N12_2 1_555 1_555
Cd7 N4_2 1_555 1_555
Cd4 N3_2 1_555 1_555
Cd5 N11_2 1_555 1_555
C3_2 C16_2 1_555 1_555
N3_2 C13_2 1_555 1_555
C6_2 C18_2 1_555 1_555
C8_2 C15_2 1_555 1_555
N5_2 C26_2 1_555 1_555
C9_2 C11_2 1_555 1_555
C16_2 C17_2 1_555 1_555
C19_2 N7_2 1_555 1_555
C20_2 C24_2 1_555 1_555
N7_2 C22_2 1_555 1_555
C25_2 C35_2 1_555 1_555
C25_2 C37_2 1_555 1_555
C27_2 C34_2 1_555 1_555
C27_2 C37_2 1_555 1_555
C42_2 C55_2 1_555 1_555
N11_2 C52_2 1_555 1_555
C45_2 C57_2 1_555 1_555
C47_2 C54_2 1_555 1_555
N13_2 C65_2 1_555 1_555
C48_2 C50_2 1_555 1_555
C50_2 C51_2 1_555 1_555
C55_2 C56_2 1_555 1_555
C58_2 N15_2 1_555 1_555
C59_2 C63_2 1_555 1_555
N15_2 C61_2 1_555 1_555
C64_2 C74_2 1_555 1_555
C64_2 C76_2 1_555 1_555
C66_2 C73_2 1_555 1_555
C66_2 C76_2 1_555 1_555
O5_2 C41_2 1_555 1_555
C41_2 O7_2 1_555 1_555
N2_2 Cd1_2 1_555 1_555
C5_2 N8_2 1_555 1_555
C21_2 H10_2 1_555 1_555
C23_2 C28_2 1_555 1_555
N8_2 Cd1_2 1_555 1_555
C28_2 N2_2 1_555 1_555
C29_2 N8_2 1_555 1_555
H15_2 C29_2 1_555 1_555
C30_2 C21_2 1_555 1_555
H16_2 C30_2 1_555 1_555
C31_2 H17_2 1_555 1_555
C32_2 N2_2 1_555 1_555
C33_2 C29_2 1_555 1_555
H19_2 C33_2 1_555 1_555
C36_2 C23_2 1_555 1_555
H22_2 C36_2 1_555 1_555
C38_2 C33_2 1_555 1_555
H23 C38_2 1_555 1_555
C39_2 C5_2 1_555 1_555
N20_2 Cd1_2 1_555 1_555
C5_2 C28_2 1_555 1_555
C21_2 C32_2 1_555 1_555
C23_2 C30_2 1_555 1_555
C31_2 C36_2 1_555 1_555
C31_2 C39_2 1_555 1_555
C38_2 C39_2 1_555 1_555
N10_2 Cd3_2 1_555 1_555
C44_2 N16_2 1_555 1_555
C60_2 H33_2 1_555 1_555
C62_2 C67_2 1_555 1_555
N16_2 Cd3_2 1_555 1_555
C67_2 N10_2 1_555 1_555
C68_2 N16_2 1_555 1_555
H38_2 C68_2 1_555 1_555
C69_2 C60_2 1_555 1_555
H39_2 C69_2 1_555 1_555
C70_2 H40_2 1_555 1_555
C71_2 N10_2 1_555 1_555
C72_2 C68_2 1_555 1_555
H42_2 C72_2 1_555 1_555
C75_2 C62_2 1_555 1_555
H45_2 C75_2 1_555 1_555
C77_2 C72_2 1_555 1_555
C78_2 C44_2 1_555 1_555
N19_2 Cd3_2 1_555 1_555
C44_2 C67_2 1_555 1_555
C60_2 C71_2 1_555 1_555
C62_2 C69_2 1_555 1_555
C70_2 C75_2 1_555 1_555
C70_2 C78_2 1_555 1_555
C77_2 C78_2 1_555 1_555
Cd5 O5_3 1_555 1_555
O5_3 C41_3 1_555 1_555
O7_3 Cd5 1_555 1_555
C41_3 O7_3 1_555 1_555
N10_3 Cd5 1_555 1_555
C44_3 N16_3 1_555 1_555
C60_3 H33_3 1_555 1_555
C62_3 C67_3 1_555 1_555
N16_3 Cd5 1_555 1_555
C67_3 N10_3 1_555 1_555
C68_3 N16_3 1_555 1_555
H38_3 C68_3 1_555 1_555
C69_3 C60_3 1_555 1_555
H39_3 C69_3 1_555 1_555
C70_3 H40_3 1_555 1_555
C71_3 N10_3 1_555 1_555
H41_3 C71_3 1_555 1_555
C72_3 C68_3 1_555 1_555
H42_3 C72_3 1_555 1_555
C75_3 C62_3 1_555 1_555
H45_3 C75_3 1_555 1_555
C77_3 C72_3 1_555 1_555
C78_3 C44_3 1_555 1_555
C44_3 C67_3 1_555 1_555
C60_3 C71_3 1_555 1_555
C62_3 C69_3 1_555 1_555
C70_3 C75_3 1_555 1_555
C70_3 C78_3 1_555 1_555
C77_3 C78_3 1_555 1_555
C40_3 C49_3 1_555 1_555
N9_3 N20 1_555 1_555
C42_3 H24_3 1_555 1_555
O8_3 C51_3 1_555 1_555
C43_3 C45_3 1_555 1_555
N18_2 N14_3 1_555 1_555
C45_3 H25_3 1_555 1_555
N20 C52_3 1_555 1_555
C47_3 C43_3 1_555 1_555
H27_3 C47_3 1_555 1_555
C48_3 H28_3 1_555 1_555
C49_3 C48_3 1_555 1_555
C50_3 C42_3 1_555 1_555
N14_3 N9_3 1_555 1_555
C51_3 O6_3 1_555 1_555
C52_3 C43_3 1_555 1_555
C54_3 C40_3 1_555 1_555
H29_3 C54_3 1_555 1_555
C56_3 C49_3 1_555 1_555
H30_3 C56_3 1_555 1_555
C57_3 C40_3 1_555 1_555
H31_3 C57_3 1_555 1_555
C42_3 C55_3 1_555 1_555
N18_2 C52_3 1_555 1_555
C45_3 C57_3 1_555 1_555
C47_3 C54_3 1_555 1_555
C48_3 C50_3 1_555 1_555
C50_3 C51_3 1_555 1_555
C55_3 C56_3 1_555 1_555
C7_3 H3_3 1_555 1_555
N5_3 Cd2_4 1_555 1_555
C14_3 N5_3 1_555 1_555
C20_3 C14_3 1_555 1_555
C24_3 C7_3 1_555 1_555
H11_3 C24_3 1_555 1_555
C26_3 C7_3 1_555 1_555
H13_3 C26_3 1_555 1_555
C34_3 C20_3 1_555 1_555
H20_3 C34_3 1_555 1_555
C58_3 H32_3 1_555 1_555
N15_3 Cd2_4 1_555 1_555
C64_3 H35_3 1_555 1_555
C66_3 H37_3 1_555 1_555
C74_3 C58_3 1_555 1_555
H44_3 C74_3 1_555 1_555
C76_3 C61_3 1_555 1_555
N5_3 C26_3 1_555 1_555
C20_3 C24_3 1_555 1_555
C58_3 N15_3 1_555 1_555
N15_3 C61_3 1_555 1_555
C64_3 C74_3 1_555 1_555
C64_3 C76_3 1_555 1_555
C66_3 C76_3 1_555 1_555
Cd4 O1_3 1_555 1_555
O1_3 C2_3 1_555 1_555
O2_3 C12_3 1_555 1_555
O3_3 Cd4 1_555 1_555
C1_3 C10_3 1_555 1_555
N1_3 N19 1_555 1_555
C2_3 O3_3 1_555 1_555
N2_3 Cd4 1_555 1_555
C3_3 H1_3 1_555 1_555
O4_3 C12_3 1_555 1_555
C4_3 C6_3 1_555 1_555
N17_2 N6_3 1_555 1_555
C5_3 N8_3 1_555 1_555
C6_3 H2_3 1_555 1_555
N19 C13_3 1_555 1_555
C8_3 C4_3 1_555 1_555
H4_3 C8_3 1_555 1_555
C9_3 H5_3 1_555 1_555
C10_3 C9_3 1_555 1_555
C11_3 C3_3 1_555 1_555
N6_3 N1_3 1_555 1_555
C12_3 C11_3 1_555 1_555
C13_3 C4_3 1_555 1_555
C15_3 C1_3 1_555 1_555
H6_3 C15_3 1_555 1_555
C16_3 C2_3 1_555 1_555
C17_3 C10_3 1_555 1_555
H7_3 C17_3 1_555 1_555
C18_3 C1_3 1_555 1_555
H8_3 C18_3 1_555 1_555
C21_3 H10_3 1_555 1_555
C23_3 C28_3 1_555 1_555
N8_3 Cd4 1_555 1_555
C28_3 N2_3 1_555 1_555
C29_3 N8_3 1_555 1_555
H15_3 C29_3 1_555 1_555
C30_3 C21_3 1_555 1_555
H16_3 C30_3 1_555 1_555
C31_3 H17_3 1_555 1_555
C32_3 N2_3 1_555 1_555
H18_3 C32_3 1_555 1_555
C33_3 C29_3 1_555 1_555
H19_3 C33_3 1_555 1_555
C36_3 C23_3 1_555 1_555
H22_3 C36_3 1_555 1_555
C38_3 C33_3 1_555 1_555
C39_3 C5_3 1_555 1_555
C3_3 C16_3 1_555 1_555
N17_2 C13_3 1_555 1_555
C5_3 C28_3 1_555 1_555
C6_3 C18_3 1_555 1_555
C8_3 C15_3 1_555 1_555
C9_3 C11_3 1_555 1_555
C16_3 C17_3 1_555 1_555
C21_3 C32_3 1_555 1_555
C23_3 C30_3 1_555 1_555
C31_3 C36_3 1_555 1_555
C31_3 C39_3 1_555 1_555
C38_3 C39_3 1_555 1_555
C19_3 H9_3 1_555 1_555
N7_3 Cd2_5 1_555 1_555
C25_3 H12_3 1_555 1_555
C27_3 H14_3 1_555 1_555
C35_3 C19_3 1_555 1_555
H21_3 C35_3 1_555 1_555
C37_3 C22_3 1_555 1_555
C46_3 H26_3 1_555 1_555
N13_3 Cd2_5 1_555 1_555
C53_3 N13_3 1_555 1_555
C59_3 C53_3 1_555 1_555
C63_3 C46_3 1_555 1_555
H34_3 C63_3 1_555 1_555
C65_3 C46_3 1_555 1_555
H36_3 C65_3 1_555 1_555
C73_3 C59_3 1_555 1_555
H43_3 C73_3 1_555 1_555
C19_3 N7_3 1_555 1_555
N7_3 C22_3 1_555 1_555
C25_3 C35_3 1_555 1_555
C25_3 C37_3 1_555 1_555
C27_3 C37_3 1_555 1_555
N13_3 C65_3 1_555 1_555
C59_3 C63_3 1_555 1_555
N10_4 Cd7 1_555 1_555
C44_4 N16_4 1_555 1_555
C60_4 H33_4 1_555 1_555
C62_4 C67_4 1_555 1_555
N16_4 Cd7 1_555 1_555
C67_4 N10_4 1_555 1_555
C68_4 N16_4 1_555 1_555
H38_4 C68_4 1_555 1_555
C69_4 C60_4 1_555 1_555
H39_4 C69_4 1_555 1_555
C70_4 H40_4 1_555 1_555
C71_4 N10_4 1_555 1_555
C72_4 C68_4 1_555 1_555
H42_4 C72_4 1_555 1_555
C75_4 C62_4 1_555 1_555
H45_4 C75_4 1_555 1_555
C77_4 C72_4 1_555 1_555
C78_4 C44_4 1_555 1_555
C44_4 C67_4 1_555 1_555
C60_4 C71_4 1_555 1_555
C62_4 C69_4 1_555 1_555
C70_4 C75_4 1_555 1_555
C70_4 C78_4 1_555 1_555
C77_4 C78_4 1_555 1_555
N2_4 Cd6 1_555 1_555
C5_4 N8_4 1_555 1_555
C21_4 H10_4 1_555 1_555
C23_4 C28_4 1_555 1_555
N8_4 Cd6 1_555 1_555
C28_4 N2_4 1_555 1_555
C29_4 N8_4 1_555 1_555
H15_4 C29_4 1_555 1_555
C30_4 C21_4 1_555 1_555
H16_4 C30_4 1_555 1_555
C31_4 H17_4 1_555 1_555
C32_4 N2_4 1_555 1_555
C33_4 C29_4 1_555 1_555
H19_4 C33_4 1_555 1_555
C36_4 C23_4 1_555 1_555
H22_4 C36_4 1_555 1_555
C38_4 C33_4 1_555 1_555
H23_2 C38_4 1_555 1_555
C39_4 C5_4 1_555 1_555
C5_4 C28_4 1_555 1_555
C21_4 C32_4 1_555 1_555
C23_4 C30_4 1_555 1_555
C31_4 C36_4 1_555 1_555
C31_4 C39_4 1_555 1_555
C38_4 C39_4 1_555 1_555
O5_4 C41_4 1_555 1_555
C41_4 O7_4 1_555 1_555
Cd2_6 O2_4 1_555 1_555
O1_4 C2_4 1_555 1_555
O2_4 C12_4 1_555 1_555
C1_4 C10_4 1_555 1_555
N1_4 N19_2 1_555 1_555
C2_4 O3_4 1_555 1_555
C3_4 H1_4 1_555 1_555
O4_4 C12_4 1_555 1_555
C4_4 C6_4 1_555 1_555
N17 N6_4 1_555 1_555
C6_4 H2_4 1_555 1_555
N19_2 C13_4 1_555 1_555
C7_4 H3_4 1_555 1_555
C8_4 C4_4 1_555 1_555
H4_4 C8_4 1_555 1_555
N5_4 Cd2_6 1_555 1_555
C9_4 H5_4 1_555 1_555
C10_4 C9_4 1_555 1_555
C11_4 C3_4 1_555 1_555
N6_4 N1_4 1_555 1_555
C12_4 C11_4 1_555 1_555
C13_4 C4_4 1_555 1_555
C14_4 N5_4 1_555 1_555
C15_4 C1_4 1_555 1_555
H6_4 C15_4 1_555 1_555
C16_4 C2_4 1_555 1_555
C17_4 C10_4 1_555 1_555
H7_4 C17_4 1_555 1_555
C18_4 C1_4 1_555 1_555
H8_4 C18_4 1_555 1_555
C19_4 H9_4 1_555 1_555
C20_4 C14_4 1_555 1_555
N7_4 Cd2_6 1_555 1_555
C22_4 C14_4 1_555 1_555
C24_4 C7_4 1_555 1_555
H11_4 C24_4 1_555 1_555
C25_4 H12_4 1_555 1_555
C26_4 C7_4 1_555 1_555
H13_4 C26_4 1_555 1_555
C27_4 H14_4 1_555 1_555
C34_4 C20_4 1_555 1_555
H20_4 C34_4 1_555 1_555
C35_4 C19_4 1_555 1_555
H21_4 C35_4 1_555 1_555
C37_4 C22_4 1_555 1_555
O6_4 Cd2_6 1_555 1_555
C40_4 C49_4 1_555 1_555
N9_4 N20_2 1_555 1_555
C42_4 H24_4 1_555 1_555
O8_4 C51_4 1_555 1_555
C43_4 C45_4 1_555 1_555
N18 N14_4 1_555 1_555
C45_4 H25_4 1_555 1_555
N20_2 C52_4 1_555 1_555
C46_4 H26_4 1_555 1_555
C47_4 C43_4 1_555 1_555
H27_4 C47_4 1_555 1_555
N13_4 Cd2_6 1_555 1_555
C48_4 H28_4 1_555 1_555
C49_4 C48_4 1_555 1_555
C50_4 C42_4 1_555 1_555
N14_4 N9_4 1_555 1_555
C51_4 O6_4 1_555 1_555
C52_4 C43_4 1_555 1_555
C53_4 N13_4 1_555 1_555
C54_4 C40_4 1_555 1_555
H29_4 C54_4 1_555 1_555
C56_4 C49_4 1_555 1_555
H30_4 C56_4 1_555 1_555
C57_4 C40_4 1_555 1_555
H31_4 C57_4 1_555 1_555
C58_4 H32_4 1_555 1_555
C59_4 C53_4 1_555 1_555
N15_4 Cd2_6 1_555 1_555
C61_4 C53_4 1_555 1_555
C63_4 C46_4 1_555 1_555
H34_4 C63_4 1_555 1_555
C64_4 H35_4 1_555 1_555
C65_4 C46_4 1_555 1_555
H36_4 C65_4 1_555 1_555
C66_4 H37_4 1_555 1_555
C73_4 C59_4 1_555 1_555
H43_4 C73_4 1_555 1_555
C74_4 C58_4 1_555 1_555
H44_4 C74_4 1_555 1_555
C76_4 C61_4 1_555 1_555
C3_4 C16_4 1_555 1_555
N17 C13_4 1_555 1_555
C6_4 C18_4 1_555 1_555
C8_4 C15_4 1_555 1_555
N5_4 C26_4 1_555 1_555
C9_4 C11_4 1_555 1_555
C16_4 C17_4 1_555 1_555
C19_4 N7_4 1_555 1_555
C20_4 C24_4 1_555 1_555
N7_4 C22_4 1_555 1_555
C25_4 C35_4 1_555 1_555
C25_4 C37_4 1_555 1_555
C27_4 C34_4 1_555 1_555
C27_4 C37_4 1_555 1_555
C42_4 C55_4 1_555 1_555
N18 C52_4 1_555 1_555
C45_4 C57_4 1_555 1_555
C47_4 C54_4 1_555 1_555
N13_4 C65_4 1_555 1_555
C48_4 C50_4 1_555 1_555
C50_4 C51_4 1_555 1_555
C55_4 C56_4 1_555 1_555
C58_4 N15_4 1_555 1_555
C59_4 C63_4 1_555 1_555
N15_4 C61_4 1_555 1_555
C64_4 C74_4 1_555 1_555
C64_4 C76_4 1_555 1_555
C66_4 C73_4 1_555 1_555
C66_4 C76_4 1_555 1_555

#END
