
###############################################################################
#
# This file contains modified crystal structure data generated from the
# MOF subset of the Cambridge Structural Database (CSD) v543 
# hosted by the Cambridge Crystallographic Data Centre (CCDC).
#
# This work is licensed under the Creative Commons
# Attribution-NonCommercial-ShareAlike 4.0 International License.
# To view a copy of this license, visit
# http://creativecommons.org/licenses/by-nc-sa/4.0/
# or send a letter to
# Creative Commons, PO Box 1866, Mountain View, CA 94042, USA.
#
# CIF created using the CSD Python API on 29 September 2022
# The structure has been converted into the P1 space group
# The structure has a 3D framework
# The original CSD entry HANKUE is in the cubic crystal system
# The framework has been calculated to contain at least 10.0% void space
# The void calculation uses a probe of radius 1.32A, grid spacing 0.4
# The framework is charged, counterions have been retained in the structure
# H atom positions have been added when not included in the experimental data
# Generated hydrogen atom positions removed from atoms on special positions
#
###############################################################################

data_HANKUE
_chemical_formula_moiety         '(C2016 H3360 Cd96 In177 O1724 12-)n'
_symmetry_cell_setting           triclinic
_symmetry_space_group_name_H-M   'P 1'
_symmetry_Int_Tables_number      1
_space_group_name_Hall           'P 1'
loop_
_symmetry_equiv_pos_site_id
_symmetry_equiv_pos_as_xyz
1 x,y,z
_cell_length_a                   50.5711(11)
_cell_length_b                   50.5711(11)
_cell_length_c                   50.5711(11)
_cell_angle_alpha                90
_cell_angle_beta                 90
_cell_angle_gamma                90
_cell_volume                     129332
loop_
_atom_site_label
_atom_site_type_symbol
_atom_site_fract_x
_atom_site_fract_y
_atom_site_fract_z
Cd1 Cd 0.05576(5) 0.05576(5) 0.10667(7)
O3 O 0.0159(3) 0.0585(3) 0.0901(4)
O9 O 0.0744(3) 0.0744(3) 0.0744(3)
C6 C 0.0031(5) 0.0706(5) 0.0706(5)
O11 O 0.0422(4) 0.0422(4) 0.1429(6)
O12 O 0.0491(3) 0.0897(3) 0.1278(3)
Cd2 Cd 0.05576(5) 0.10667(7) 0.05576(5)
Cd4 Cd 0.10667(7) 0.05576(5) 0.05576(5)
O27 O 0.0159(3) 0.0901(4) 0.0585(3)
O30 O 0.0585(3) 0.0159(3) 0.0901(4)
O31 O 0.0901(4) 0.0159(3) 0.0585(3)
O32 O 0.0585(3) 0.0901(4) 0.0159(3)
C36 C 0.0706(5) 0.0031(5) 0.0706(5)
O73 O 0.0422(4) 0.1429(6) 0.0422(4)
O75 O 0.0897(3) 0.0491(3) 0.1278(3)
O76 O 0.0491(3) 0.1278(3) 0.0897(3)
O77 O 0.0897(3) 0.1278(3) 0.0491(3)
In4 In -0.0000 0.12028(2) 0.87972(2)
O19 O 0.0334(2) 0.0975(2) 0.8935(3)
O26 O 0.0215(3) 0.1195(3) 0.9289(3)
O42 O 0.01137(19) 0.10572(19) 0.83872(17)
O50 O 0.02597(17) 0.15541(19) 0.87349(18)
In9 In 0.12028(2) 0.87972(2) 0.0000
In10 In -0.0000 0.87972(2) 0.12028(2)
O16 O 0.0975(2) 0.8935(3) 0.0334(2)
O17 O 0.0334(2) 0.8935(3) 0.0975(2)
O23 O 0.1195(3) 0.9289(3) 0.0215(3)
O24 O 0.0215(3) 0.9289(3) 0.1195(3)
C19 C 0.1027(3) 0.9170(5) 0.0353(4)
C20 C 0.0353(4) 0.9170(5) 0.1027(3)
C22 C 0.0707(4) 0.9196(5) 0.0707(4)
C26 C 0.0870(3) 0.9336(4) 0.0534(3)
C27 C 0.0534(3) 0.9336(4) 0.0870(3)
C31 C 0.0879(3) 0.9613(3) 0.0558(4)
C32 C 0.0558(4) 0.9613(3) 0.0879(3)
C34 C 0.0726(4) 0.9751(6) 0.0726(4)
H16 H 0.0433758 0.972153 0.101741
H17 H 0.101741 0.972153 0.0433758
H18 H 0.0714681 0.898093 0.0714681
In9_2 In 0.12028(2) 0.87972(2) 1.0000
In1 In 0.87972(2) 0.12028(2) 0.0000
In2 In 0.677897(15) 0.072103(15) 0.02235(2)
O1 O 0.8935(3) 0.0975(2) 0.0334(2)
O2 O 0.9289(3) 0.1195(3) 0.0215(3)
O4 O 0.83872(17) 0.10572(19) 0.01137(19)
O6 O 0.71556(17) 0.07789(17) 0.00322(17)
O7 O 0.69504(17) 0.05496(17) 0.05496(17)
O8 O 0.63798(15) 0.06984(17) 0.03935(18)
C1 C 0.9170(5) 0.1027(3) 0.0353(4)
C2 C 0.9196(5) 0.0707(4) 0.0707(4)
C3 C 0.9336(4) 0.0870(3) 0.0534(3)
C4 C 0.9613(3) 0.0879(3) 0.0558(4)
C5 C 0.9751(6) 0.0726(4) 0.0726(4)
C10 C 0.7838(2) 0.0981(2) 0.0001(2)
C12 C 0.7386(2) 0.0805(3) 0.0114(2)
C13 C 0.6284(3) 0.0587(2) 0.0587(2)
C14 C 0.6040(3) 0.0691(2) 0.0691(2)
C15 C 0.5927(2) 0.0927(2) 0.0589(3)
In3 In 0.87972(2) -0.0000 0.12028(2)
In6 In 0.87972(2) 0.2500 0.12972(2)
In11 In 0.72765(2) 0.072103(15) 0.072103(15)
In13 In 0.677897(15) 0.02235(2) 0.072103(15)
In14 In 0.52235(2) 0.177897(15) 0.072103(15)
In15 In 0.572103(15) 0.177897(15) 0.02235(2)
In16 In 0.572103(15) 0.02235(2) 0.177897(15)
In17 In 0.52235(2) 0.072103(15) 0.177897(15)
O13 O 0.8935(3) 0.0334(2) 0.0975(2)
O20 O 0.9289(3) 0.0215(3) 0.1195(3)
O36 O 0.89428(19) 0.26137(19) 0.08872(17)
O39 O 0.83872(17) 0.01137(19) 0.10572(19)
O44 O 0.87349(18) 0.15541(19) 0.02597(17)
O45 O 0.87349(18) 0.22403(17) 0.09459(19)
O49 O 0.87349(18) 0.02597(17) 0.15541(19)
O52 O 0.74678(17) 0.07789(17) 0.03444(17)
O55 O 0.67211(17) 0.03444(17) 0.00322(17)
O56 O 0.67211(17) 0.00322(17) 0.03444(17)
O57 O 0.74678(17) 0.03444(17) 0.07789(17)
O60 O 0.63798(15) 0.03935(18) 0.06984(17)
O61 O 0.53935(18) 0.13798(15) 0.06984(17)
O62 O 0.56984(17) 0.13798(15) 0.03935(18)
O63 O 0.56984(17) 0.03935(18) 0.13798(15)
O64 O 0.53935(18) 0.06984(17) 0.13798(15)
O65 O 0.68016(17) 0.11202(15) 0.03935(18)
O66 O 0.71065(18) 0.06984(17) 0.11202(15)
O67 O 0.71065(18) 0.11202(15) 0.06984(17)
C16 C 0.9170(5) 0.0353(4) 0.1027(3)
C23 C 0.9336(4) 0.0534(3) 0.0870(3)
C28 C 0.9613(3) 0.0558(4) 0.0879(3)
C38 C 0.8853(3) 0.1701(3) 0.0102(3)
C39 C 0.8853(3) 0.2398(3) 0.0799(3)
C42 C 0.8858(4) 0.2068(2) 0.0432(2)
C45 C 0.8899(2) 0.1986(2) 0.0182(2)
C46 C 0.8899(2) 0.2318(2) 0.0514(2)
C51 C 0.9019(2) 0.2501(2) 0.0338(2)
C54 C 0.9071(3) 0.2412(2) 0.0088(2)
C57 C 0.6695(3) 0.0114(2) 0.0114(2)
C58 C 0.5587(2) 0.1284(3) 0.0587(2)
C59 C 0.5587(2) 0.0587(2) 0.1284(3)
C60 C 0.5691(2) 0.1040(3) 0.0691(2)
C61 C 0.5691(2) 0.0691(2) 0.1040(3)
C62 C 0.5589(3) 0.0927(2) 0.0927(2)
C63 C 0.5927(2) 0.0589(3) 0.0927(2)
O71 O 0.7661(2) 0.08958(14) 0.08958(14)
O72 O 0.91042(14) 0.33958(14) 0.0161(2)
H1 H 0.898093 0.0714681 0.0714681
H2 H 0.789898 0.0932875 0.020184
H3 H 0.972153 0.101741 0.0433758
H5 H 0.60258 0.10258 0.0425141
H13 H 0.972153 0.0433758 0.101741
H20 H 0.60258 0.0425141 0.10258
H24 H 0.906713 0.270184 0.039898
H25 H 0.542514 0.10258 0.10258
H40 H 0.878775 0.192406 0.0575937
In1_2 In 0.87972(2) 0.12028(2) 1.0000
O5 O 0.84459(19) 0.12651(18) 0.97403(17)
C7 C 0.8299(3) 0.1147(3) 0.9898(3)
C8 C 0.7932(2) 0.1142(4) 0.9568(2)
C9 C 0.8014(2) 0.1101(2) 0.9818(2)
C11 C 0.7588(2) 0.0929(3) 0.9912(2)
O10 O 0.66042(14) 0.08958(14) 0.9839(2)
In4_2 In 1.0000 0.12028(2) 0.87972(2)
In5 In 0.7500 0.12028(2) 0.87028(2)
In8 In 0.62972(2) 0.0000 0.87028(2)
In12 In 0.927897(15) 0.322103(15) 0.97765(2)
In18 In 0.927897(15) 0.27235(2) 0.927897(15)
O14 O 0.9025(2) 0.1065(3) 0.9666(2)
O15 O 0.9666(2) 0.1065(3) 0.9025(2)
O21 O 0.8805(3) 0.0711(3) 0.9785(3)
O22 O 0.9785(3) 0.0711(3) 0.8805(3)
O34 O 0.73863(19) 0.10572(19) 0.91128(17)
O35 O 0.89428(19) 0.16128(17) 0.98863(19)
O38 O 0.64428(19) 0.01137(19) 0.91128(17)
O41 O 0.98863(19) 0.16128(17) 0.89428(19)
O43 O 0.77597(17) 0.12651(18) 0.90541(19)
O51 O 0.97403(17) 0.12651(18) 0.84459(19)
O53 O 0.92211(17) 0.28444(17) 0.99678(17)
O54 O 0.92211(17) 0.25322(17) 0.96556(17)
O58 O 0.96556(17) 0.32789(17) 0.99678(17)
O59 O 0.94504(17) 0.30496(17) 0.94504(17)
O68 O 0.93016(17) 0.36202(15) 0.96065(18)
O69 O 0.88798(15) 0.31984(17) 0.96065(18)
C17 C 0.8973(3) 0.0830(5) 0.9647(4)
C18 C 0.9647(4) 0.0830(5) 0.8973(3)
C21 C 0.9293(4) 0.0804(5) 0.9293(4)
C24 C 0.9130(3) 0.0664(4) 0.9466(3)
C25 C 0.9466(3) 0.0664(4) 0.9130(3)
C29 C 0.9121(3) 0.0387(3) 0.9442(4)
C30 C 0.9442(4) 0.0387(3) 0.9121(3)
C33 C 0.9274(4) 0.0249(6) 0.9274(4)
C37 C 0.7602(3) 0.1147(3) 0.9201(3)
C44 C 0.7682(2) 0.1101(2) 0.9486(2)
C49 C 0.7499(2) 0.0981(2) 0.9662(2)
C50 C 0.9019(2) 0.2162(2) 0.9999(2)
C53 C 0.6519(2) 0.0001(2) 0.9662(2)
C56 C 0.9195(3) 0.2614(2) 0.9886(2)
H4 H 0.807594 0.121225 0.942406
H12 H 0.956624 0.0278468 0.898259
H14 H 0.898259 0.0278468 0.956624
H15 H 0.928532 0.101907 0.928532
H21 H 0.656713 0.020184 0.960102
H26 H 0.729816 0.0932875 0.960102
H41 H 0.906713 0.210102 0.979816
In3_2 In 0.87972(2) 1.0000 0.12028(2)
In7 In 0.62972(2) 0.87028(2) 0.0000
In10_2 In 1.0000 0.87972(2) 0.12028(2)
O18 O 0.9025(2) 0.9666(2) 0.1065(3)
O25 O 0.8805(3) 0.9785(3) 0.0711(3)
O37 O 0.64428(19) 0.91128(17) 0.01137(19)
O40 O 0.89428(19) 0.98863(19) 0.16128(17)
O48 O 0.84459(19) 0.97403(17) 0.12651(18)
C52 C 0.6519(2) 0.9662(2) 0.0001(2)
H19 H 0.656713 0.960102 0.020184
In7_2 In 0.62972(2) 0.87028(2) 1.0000
In8_2 In 0.62972(2) 1.0000 0.87028(2)
Cd3 Cd 0.94424(5) 0.94424(5) 0.89333(7)
Cd5 Cd 0.89333(7) 0.94424(5) 0.94424(5)
O28 O 0.9415(3) 0.9841(3) 0.9099(4)
O29 O 0.9099(4) 0.9841(3) 0.9415(3)
O33 O 0.9841(3) 0.9415(3) 0.9099(4)
O46 O 0.62349(18) 0.90541(19) 0.97403(17)
O47 O 0.62349(18) 0.97403(17) 0.90541(19)
O70 O 0.9256(3) 0.9256(3) 0.9256(3)
C35 C 0.9294(5) 0.9969(5) 0.9294(5)
C40 C 0.6353(3) 0.9201(3) 0.9898(3)
C41 C 0.6353(3) 0.9898(3) 0.9201(3)
C43 C 0.6358(4) 0.9568(2) 0.9568(2)
C47 C 0.6399(2) 0.9486(2) 0.9818(2)
C48 C 0.6399(2) 0.9818(2) 0.9486(2)
C55 C 0.6571(3) 0.9912(2) 0.9912(2)
O74 O 0.9578(4) 0.9578(4) 0.8571(6)
O78 O 0.9103(3) 0.9509(3) 0.8722(3)
O79 O 0.9509(3) 0.9103(3) 0.8722(3)
H35 H 0.628775 0.942406 0.942406
In2_2 In 0.072103(15) 0.177897(15) 0.52235(2)
O6_2 O 0.03444(17) 0.17211(17) 0.50322(17)
O7_2 O 0.05496(17) 0.19504(17) 0.55496(17)
O8_2 O 0.11202(15) 0.18016(17) 0.53935(18)
C12_2 C 0.0114(2) 0.1695(3) 0.5114(2)
C13_2 C 0.1216(3) 0.1913(2) 0.5587(2)
C14_2 C 0.1460(3) 0.1809(2) 0.5691(2)
C15_2 C 0.1573(2) 0.1573(2) 0.5589(3)
O10_2 O 0.08958(14) 0.16042(14) 0.4839(2)
In5_2 In -0.0000 0.12972(2) 0.37028(2)
In7_3 In 0.12028(2) 0.37972(2) 0.5000
In8_3 In 0.12028(2) 0.2500 0.37028(2)
In11_2 In 0.02235(2) 0.177897(15) 0.572103(15)
In13_2 In 0.072103(15) 0.22765(2) 0.572103(15)
In14_2 In 0.22765(2) 0.072103(15) 0.572103(15)
In15_2 In 0.177897(15) 0.072103(15) 0.52235(2)
In16_2 In 0.177897(15) 0.22765(2) 0.677897(15)
In17_2 In 0.22765(2) 0.177897(15) 0.677897(15)
O34_2 O 0.01137(19) 0.14428(19) 0.41128(17)
O37_2 O 0.10572(19) 0.33872(17) 0.51137(19)
O38_2 O 0.10572(19) 0.23863(19) 0.41128(17)
O46_2 O 0.12651(18) 0.34459(19) 0.47403(17)
O47_2 O 0.12651(18) 0.27597(17) 0.40541(19)
O52_2 O 0.00322(17) 0.17211(17) 0.53444(17)
O55_2 O 0.07789(17) 0.21556(17) 0.50322(17)
O56_2 O 0.07789(17) 0.24678(17) 0.53444(17)
O57_2 O 0.00322(17) 0.21556(17) 0.57789(17)
O60_2 O 0.11202(15) 0.21065(18) 0.56984(17)
O61_2 O 0.21065(18) 0.11202(15) 0.56984(17)
O62_2 O 0.18016(17) 0.11202(15) 0.53935(18)
O63_2 O 0.18016(17) 0.21065(18) 0.63798(15)
O64_2 O 0.21065(18) 0.18016(17) 0.63798(15)
O65_2 O 0.06984(17) 0.13798(15) 0.53935(18)
O66_2 O 0.03935(18) 0.18016(17) 0.61202(15)
O67_2 O 0.03935(18) 0.13798(15) 0.56984(17)
C40_2 C 0.1147(3) 0.3299(3) 0.4898(3)
C41_2 C 0.1147(3) 0.2602(3) 0.4201(3)
C43_2 C 0.1142(4) 0.2932(2) 0.4568(2)
C47_2 C 0.1101(2) 0.3014(2) 0.4818(2)
C48_2 C 0.1101(2) 0.2682(2) 0.4486(2)
C49_2 C 0.0001(2) 0.1519(2) 0.4662(2)
C52_2 C 0.0981(2) 0.2838(2) 0.5001(2)
C53_2 C 0.0981(2) 0.2499(2) 0.4662(2)
C55_2 C 0.0929(3) 0.2588(2) 0.4912(2)
C57_2 C 0.0805(3) 0.2386(2) 0.5114(2)
C58_2 C 0.1913(2) 0.1216(3) 0.5587(2)
C59_2 C 0.1913(2) 0.1913(2) 0.6284(3)
C60_2 C 0.1809(2) 0.1460(3) 0.5691(2)
C61_2 C 0.1809(2) 0.1809(2) 0.6040(3)
C62_2 C 0.1911(3) 0.1573(2) 0.5927(2)
C63_2 C 0.1573(2) 0.1911(3) 0.5927(2)
H5_2 H 0.14742 0.14742 0.542514
H19_2 H 0.0932875 0.289898 0.520184
H20_2 H 0.14742 0.207486 0.60258
H21_2 H 0.0932875 0.229816 0.460102
H25_2 H 0.207486 0.14742 0.60258
H26_2 H 0.020184 0.156713 0.460102
H35_2 H 0.121225 0.307594 0.442406
In1_3 In 0.87028(2) 0.12972(2) 0.5000
Cd1_2 Cd 0.69424(5) 0.19424(5) 0.60667(7)
O1_2 O 0.8565(3) 0.1525(2) 0.5334(2)
O2_2 O 0.8211(3) 0.1305(3) 0.5215(3)
O3_2 O 0.7341(3) 0.1915(3) 0.5901(4)
O4_2 O 0.91128(17) 0.14428(19) 0.51137(19)
O5_2 O 0.90541(19) 0.12349(18) 0.47403(17)
O9_2 O 0.6756(3) 0.1756(3) 0.5744(3)
C1_2 C 0.8330(5) 0.1473(3) 0.5353(4)
C2_2 C 0.8304(5) 0.1793(4) 0.5707(4)
C3_2 C 0.8164(4) 0.1630(3) 0.5534(3)
C4_2 C 0.7887(3) 0.1621(3) 0.5558(4)
C5_2 C 0.7749(6) 0.1774(4) 0.5726(4)
C6_2 C 0.7469(5) 0.1794(5) 0.5706(5)
C7_2 C 0.9201(3) 0.1353(3) 0.4898(3)
C8_2 C 0.9568(2) 0.1358(4) 0.4568(2)
C9_2 C 0.9486(2) 0.1399(2) 0.4818(2)
C10_2 C 0.9662(2) 0.1519(2) 0.5001(2)
C11_2 C 0.9912(2) 0.1571(3) 0.4912(2)
O11_2 O 0.7078(4) 0.2078(4) 0.6429(6)
O12_2 O 0.7009(3) 0.1603(3) 0.6278(3)
In3_3 In 0.87028(2) 0.2500 0.62028(2)
In4_3 In 0.7500 0.12972(2) 0.37972(2)
In5_3 In 1.0000 0.12972(2) 0.37028(2)
In6_2 In 0.87028(2) -0.0000 0.62972(2)
In9_3 In 0.62972(2) 0.37028(2) 0.5000
In10_3 In 0.7500 0.37028(2) 0.62028(2)
Cd2_2 Cd 0.69424(5) 0.14333(7) 0.55576(5)
Cd3_2 Cd 0.80576(5) 0.30576(5) 0.39333(7)
Cd4_2 Cd 0.64333(7) 0.19424(5) 0.55576(5)
Cd5_2 Cd 0.85667(7) 0.30576(5) 0.44424(5)
O13_2 O 0.8565(3) 0.2166(2) 0.5975(2)
O14_2 O 0.8475(2) 0.1435(3) 0.4666(2)
O15_2 O 0.7834(2) 0.1435(3) 0.4025(2)
O16_2 O 0.6525(2) 0.3565(3) 0.5334(2)
O17_2 O 0.7166(2) 0.3565(3) 0.5975(2)
O18_2 O 0.8475(2) 0.2834(2) 0.6065(3)
O19_2 O 0.7166(2) 0.1525(2) 0.3935(3)
O20_2 O 0.8211(3) 0.2285(3) 0.6195(3)
O21_2 O 0.8695(3) 0.1789(3) 0.4785(3)
O22_2 O 0.7715(3) 0.1789(3) 0.3805(3)
O23_2 O 0.6305(3) 0.3211(3) 0.5215(3)
O24_2 O 0.7285(3) 0.3211(3) 0.6195(3)
O25_2 O 0.8695(3) 0.2715(3) 0.5711(3)
O26_2 O 0.7285(3) 0.1305(3) 0.4289(3)
O27_2 O 0.7341(3) 0.1599(4) 0.5585(3)
O28_2 O 0.8085(3) 0.2659(3) 0.4099(4)
O29_2 O 0.8401(4) 0.2659(3) 0.4415(3)
O30_2 O 0.6915(3) 0.2341(3) 0.5901(4)
O31_2 O 0.6599(4) 0.2341(3) 0.5585(3)
O32_2 O 0.6915(3) 0.1599(4) 0.5159(3)
O33_2 O 0.7659(3) 0.3085(3) 0.4099(4)
O35_2 O 0.85572(19) 0.08872(17) 0.48863(19)
O39_2 O 0.91128(17) 0.23863(19) 0.60572(19)
O40_2 O 0.85572(19) 0.26137(19) 0.66128(17)
O41_2 O 0.76137(19) 0.08872(17) 0.39428(19)
O42_2 O 0.73863(19) 0.14428(19) 0.33872(17)
O43_2 O 0.97403(17) 0.12349(18) 0.40541(19)
O44_2 O 0.87651(18) 0.09459(19) 0.52597(17)
O45_2 O 0.87651(18) 0.02597(17) 0.59459(19)
O48_2 O 0.90541(19) 0.27597(17) 0.62651(18)
O49_2 O 0.87651(18) 0.22403(17) 0.65541(19)
O50_2 O 0.72403(17) 0.09459(19) 0.37349(18)
O51_2 O 0.77597(17) 0.12349(18) 0.34459(19)
O70_2 O 0.8244(3) 0.3244(3) 0.4256(3)
C16_2 C 0.8330(5) 0.2147(4) 0.6027(3)
C17_2 C 0.8527(3) 0.1670(5) 0.4647(4)
C18_2 C 0.7853(4) 0.1670(5) 0.3973(3)
C19_2 C 0.6473(3) 0.3330(5) 0.5353(4)
C20_2 C 0.7147(4) 0.3330(5) 0.6027(3)
C21_2 C 0.8207(4) 0.1696(5) 0.4293(4)
C22_2 C 0.6793(4) 0.3304(5) 0.5707(4)
C23_2 C 0.8164(4) 0.1966(3) 0.5870(3)
C24_2 C 0.8370(3) 0.1836(4) 0.4466(3)
C25_2 C 0.8034(3) 0.1836(4) 0.4130(3)
C26_2 C 0.6630(3) 0.3164(4) 0.5534(3)
C27_2 C 0.6966(3) 0.3164(4) 0.5870(3)
C28_2 C 0.7887(3) 0.1942(4) 0.5879(3)
C29_2 C 0.8379(3) 0.2113(3) 0.4442(4)
C30_2 C 0.8058(4) 0.2113(3) 0.4121(3)
C31_2 C 0.6621(3) 0.2887(3) 0.5558(4)
C32_2 C 0.6942(4) 0.2887(3) 0.5879(3)
C33_2 C 0.8226(4) 0.2251(6) 0.4274(4)
C34_2 C 0.6774(4) 0.2749(6) 0.5726(4)
C35_2 C 0.8206(5) 0.2531(5) 0.4294(5)
C36_2 C 0.6794(5) 0.2469(5) 0.5706(5)
C37_2 C 0.9898(3) 0.1353(3) 0.4201(3)
C38_2 C 0.8647(3) 0.0799(3) 0.5102(3)
C39_2 C 0.8647(3) 0.0102(3) 0.5799(3)
C42_2 C 0.8642(4) 0.0432(2) 0.5432(2)
C44_2 C 0.9818(2) 0.1399(2) 0.4486(2)
C45_2 C 0.8601(2) 0.0514(2) 0.5182(2)
C46_2 C 0.8601(2) 0.0182(2) 0.5514(2)
C50_2 C 0.8481(2) 0.0338(2) 0.4999(2)
C54_2 C 0.8429(3) 0.0088(2) 0.5088(2)
O71_2 O 0.9839(2) 0.16042(14) 0.58958(14)
O73_2 O 0.7078(4) 0.1071(6) 0.5422(4)
O74_2 O 0.7922(4) 0.2922(4) 0.3571(6)
O75_2 O 0.6603(3) 0.2009(3) 0.6278(3)
O76_2 O 0.7009(3) 0.1222(3) 0.5897(3)
O77_2 O 0.6603(3) 0.1222(3) 0.5491(3)
O78_2 O 0.8397(3) 0.2991(3) 0.3722(3)
O79_2 O 0.7991(3) 0.3397(3) 0.3722(3)
H1_2 H 0.851907 0.178532 0.571468
H2_2 H 0.960102 0.156713 0.520184
H3_2 H 0.777847 0.148259 0.543376
H4_2 H 0.942406 0.128775 0.442406
H12_2 H 0.793376 0.222153 0.398259
H13_2 H 0.777847 0.206624 0.601741
H14_2 H 0.851741 0.222153 0.456624
H15_2 H 0.821468 0.148093 0.428532
H16_2 H 0.706624 0.277847 0.601741
H17_2 H 0.648259 0.277847 0.543376
H18_2 H 0.678532 0.351907 0.571468
H40_2 H 0.871225 0.0575937 0.557594
H41_2 H 0.843287 0.039898 0.479816
In6_3 In 0.87028(2) 1.0000 0.62972(2)
In12_2 In 0.822103(15) 0.927897(15) 0.47765(2)
In18_2 In 0.822103(15) 0.97765(2) 0.427897(15)
O36_2 O 0.85572(19) 0.98863(19) 0.58872(17)
O53_2 O 0.82789(17) 0.96556(17) 0.49678(17)
O54_2 O 0.82789(17) 0.99678(17) 0.46556(17)
O58_2 O 0.78444(17) 0.92211(17) 0.49678(17)
O59_2 O 0.80496(17) 0.94504(17) 0.44504(17)
O68_2 O 0.81984(17) 0.88798(15) 0.46065(18)
O69_2 O 0.86202(15) 0.93016(17) 0.46065(18)
C51_2 C 0.8481(2) 0.9999(2) 0.5338(2)
C56_2 C 0.8305(3) 0.9886(2) 0.4886(2)
O72_2 O 0.83958(14) 0.91042(14) 0.5161(2)
H24_2 H 0.843287 0.979816 0.539898
In1_4 In 0.37028(2) 0.62028(2) 0.7500
In2_3 In 0.572103(15) 0.572103(15) 0.72765(2)
Cd1_3 Cd 0.19424(5) 0.55576(5) 0.64333(7)
O1_3 O 0.3565(3) 0.5975(2) 0.7166(2)
O2_3 O 0.3211(3) 0.6195(3) 0.7285(3)
O3_3 O 0.2341(3) 0.5585(3) 0.6599(4)
O4_3 O 0.41128(17) 0.60572(19) 0.73863(19)
O5_3 O 0.40541(19) 0.62651(18) 0.77597(17)
O6_3 O 0.53444(17) 0.57789(17) 0.74678(17)
O7_3 O 0.55496(17) 0.55496(17) 0.69504(17)
O8_3 O 0.61202(15) 0.56984(17) 0.71065(18)
O9_3 O 0.1756(3) 0.5744(3) 0.6756(3)
C1_3 C 0.3330(5) 0.6027(3) 0.7147(4)
C2_3 C 0.3304(5) 0.5707(4) 0.6793(4)
C3_3 C 0.3164(4) 0.5870(3) 0.6966(3)
C4_3 C 0.2887(3) 0.5879(3) 0.6942(4)
C5_3 C 0.2749(6) 0.5726(4) 0.6774(4)
C6_3 C 0.2469(5) 0.5706(5) 0.6794(5)
C7_3 C 0.4201(3) 0.6147(3) 0.7602(3)
C8_3 C 0.4568(2) 0.6142(4) 0.7932(2)
C9_3 C 0.4486(2) 0.6101(2) 0.7682(2)
C10_3 C 0.4662(2) 0.5981(2) 0.7499(2)
C11_3 C 0.4912(2) 0.5929(3) 0.7588(2)
C12_3 C 0.5114(2) 0.5805(3) 0.7386(2)
C13_3 C 0.6216(3) 0.5587(2) 0.6913(2)
C14_3 C 0.6460(3) 0.5691(2) 0.6809(2)
C15_3 C 0.6573(2) 0.5927(2) 0.6911(3)
O10_3 O 0.58958(14) 0.58958(14) 0.7661(2)
O11_3 O 0.2078(4) 0.5422(4) 0.6071(6)
O12_3 O 0.2009(3) 0.5897(3) 0.6222(3)
In3_4 In 0.37028(2) 0.5000 0.62972(2)
In4_4 In 0.2500 0.62028(2) 0.87028(2)
In5_4 In 0.5000 0.62028(2) 0.87972(2)
In6_4 In 0.37028(2) 0.7500 0.62028(2)
In7_4 In 0.62028(2) 0.37028(2) 0.7500
In8_4 In 0.62028(2) 0.5000 0.87972(2)
In9_4 In 0.12972(2) 0.37972(2) 0.7500
In10_4 In 0.2500 0.37972(2) 0.62972(2)
In11_3 In 0.52235(2) 0.572103(15) 0.677897(15)
In12_3 In 0.322103(15) 0.822103(15) 0.77235(2)
In13_3 In 0.572103(15) 0.52235(2) 0.677897(15)
In14_3 In 0.72765(2) 0.677897(15) 0.677897(15)
In15_3 In 0.677897(15) 0.677897(15) 0.72765(2)
In16_3 In 0.677897(15) 0.52235(2) 0.572103(15)
In17_3 In 0.72765(2) 0.572103(15) 0.572103(15)
In18_3 In 0.322103(15) 0.77235(2) 0.822103(15)
Cd2_3 Cd 0.19424(5) 0.60667(7) 0.69424(5)
Cd3_3 Cd 0.30576(5) 0.44424(5) 0.85667(7)
Cd4_3 Cd 0.14333(7) 0.55576(5) 0.69424(5)
Cd5_3 Cd 0.35667(7) 0.44424(5) 0.80576(5)
O13_3 O 0.3565(3) 0.5334(2) 0.6525(2)
O14_3 O 0.3475(2) 0.6065(3) 0.7834(2)
O15_3 O 0.2834(2) 0.6065(3) 0.8475(2)
O16_3 O 0.1525(2) 0.3935(3) 0.7166(2)
O17_3 O 0.2166(2) 0.3935(3) 0.6525(2)
O18_3 O 0.3475(2) 0.4666(2) 0.6435(3)
O19_3 O 0.2166(2) 0.5975(2) 0.8565(3)
O20_3 O 0.3211(3) 0.5215(3) 0.6305(3)
O21_3 O 0.3695(3) 0.5711(3) 0.7715(3)
O22_3 O 0.2715(3) 0.5711(3) 0.8695(3)
O23_3 O 0.1305(3) 0.4289(3) 0.7285(3)
O24_3 O 0.2285(3) 0.4289(3) 0.6305(3)
O25_3 O 0.3695(3) 0.4785(3) 0.6789(3)
O26_3 O 0.2285(3) 0.6195(3) 0.8211(3)
O27_3 O 0.2341(3) 0.5901(4) 0.6915(3)
O28_3 O 0.3085(3) 0.4841(3) 0.8401(4)
O29_3 O 0.3401(4) 0.4841(3) 0.8085(3)
O30_3 O 0.1915(3) 0.5159(3) 0.6599(4)
O31_3 O 0.1599(4) 0.5159(3) 0.6915(3)
O32_3 O 0.1915(3) 0.5901(4) 0.7341(3)
O33_3 O 0.2659(3) 0.4415(3) 0.8401(4)
O34_3 O 0.51137(19) 0.60572(19) 0.83872(17)
O35_3 O 0.35572(19) 0.66128(17) 0.76137(19)
O36_3 O 0.35572(19) 0.76137(19) 0.66128(17)
O37_3 O 0.60572(19) 0.41128(17) 0.73863(19)
O38_3 O 0.60572(19) 0.51137(19) 0.83872(17)
O39_3 O 0.41128(17) 0.51137(19) 0.64428(19)
O40_3 O 0.35572(19) 0.48863(19) 0.58872(17)
O41_3 O 0.26137(19) 0.66128(17) 0.85572(19)
O42_3 O 0.23863(19) 0.60572(19) 0.91128(17)
O43_3 O 0.47403(17) 0.62651(18) 0.84459(19)
O44_3 O 0.37651(18) 0.65541(19) 0.72403(17)
O45_3 O 0.37651(18) 0.72403(17) 0.65541(19)
O46_3 O 0.62651(18) 0.40541(19) 0.77597(17)
O47_3 O 0.62651(18) 0.47403(17) 0.84459(19)
O48_3 O 0.40541(19) 0.47403(17) 0.62349(18)
O49_3 O 0.37651(18) 0.52597(17) 0.59459(19)
O50_3 O 0.22403(17) 0.65541(19) 0.87651(18)
O51_3 O 0.27597(17) 0.62651(18) 0.90541(19)
O52_3 O 0.50322(17) 0.57789(17) 0.71556(17)
O53_3 O 0.32789(17) 0.78444(17) 0.75322(17)
O54_3 O 0.32789(17) 0.75322(17) 0.78444(17)
O55_3 O 0.57789(17) 0.53444(17) 0.74678(17)
O56_3 O 0.57789(17) 0.50322(17) 0.71556(17)
O57_3 O 0.50322(17) 0.53444(17) 0.67211(17)
O58_3 O 0.28444(17) 0.82789(17) 0.75322(17)
O59_3 O 0.30496(17) 0.80496(17) 0.80496(17)
O60_3 O 0.61202(15) 0.53935(18) 0.68016(17)
O61_3 O 0.71065(18) 0.63798(15) 0.68016(17)
O62_3 O 0.68016(17) 0.63798(15) 0.71065(18)
O63_3 O 0.68016(17) 0.53935(18) 0.61202(15)
O64_3 O 0.71065(18) 0.56984(17) 0.61202(15)
O65_3 O 0.56984(17) 0.61202(15) 0.71065(18)
O66_3 O 0.53935(18) 0.56984(17) 0.63798(15)
O67_3 O 0.53935(18) 0.61202(15) 0.68016(17)
O68_3 O 0.31984(17) 0.86202(15) 0.78935(18)
O69_3 O 0.36202(15) 0.81984(17) 0.78935(18)
O70_3 O 0.3244(3) 0.4256(3) 0.8244(3)
C16_3 C 0.3330(5) 0.5353(4) 0.6473(3)
C17_3 C 0.3527(3) 0.5830(5) 0.7853(4)
C18_3 C 0.2853(4) 0.5830(5) 0.8527(3)
C19_3 C 0.1473(3) 0.4170(5) 0.7147(4)
C20_3 C 0.2147(4) 0.4170(5) 0.6473(3)
C21_3 C 0.3207(4) 0.5804(5) 0.8207(4)
C22_3 C 0.1793(4) 0.4196(5) 0.6793(4)
C23_3 C 0.3164(4) 0.5534(3) 0.6630(3)
C24_3 C 0.3370(3) 0.5664(4) 0.8034(3)
C25_3 C 0.3034(3) 0.5664(4) 0.8370(3)
C26_3 C 0.1630(3) 0.4336(4) 0.6966(3)
C27_3 C 0.1966(3) 0.4336(4) 0.6630(3)
C28_3 C 0.2887(3) 0.5558(4) 0.6621(3)
C29_3 C 0.3379(3) 0.5387(3) 0.8058(4)
C30_3 C 0.3058(4) 0.5387(3) 0.8379(3)
C31_3 C 0.1621(3) 0.4613(3) 0.6942(4)
C32_3 C 0.1942(4) 0.4613(3) 0.6621(3)
C33_3 C 0.3226(4) 0.5249(6) 0.8226(4)
C34_3 C 0.1774(4) 0.4751(6) 0.6774(4)
C35_3 C 0.3206(5) 0.4969(5) 0.8206(5)
C36_3 C 0.1794(5) 0.5031(5) 0.6794(5)
C37_3 C 0.4898(3) 0.6147(3) 0.8299(3)
C38_3 C 0.3647(3) 0.6701(3) 0.7398(3)
C39_3 C 0.3647(3) 0.7398(3) 0.6701(3)
C40_3 C 0.6147(3) 0.4201(3) 0.7602(3)
C41_3 C 0.6147(3) 0.4898(3) 0.8299(3)
C42_3 C 0.3642(4) 0.7068(2) 0.7068(2)
C43_3 C 0.6142(4) 0.4568(2) 0.7932(2)
C44_3 C 0.4818(2) 0.6101(2) 0.8014(2)
C45_3 C 0.3601(2) 0.6986(2) 0.7318(2)
C46_3 C 0.3601(2) 0.7318(2) 0.6986(2)
C47_3 C 0.6101(2) 0.4486(2) 0.7682(2)
C48_3 C 0.6101(2) 0.4818(2) 0.8014(2)
C49_3 C 0.5001(2) 0.5981(2) 0.7838(2)
C50_3 C 0.3481(2) 0.7162(2) 0.7501(2)
C51_3 C 0.3481(2) 0.7501(2) 0.7162(2)
C52_3 C 0.5981(2) 0.4662(2) 0.7499(2)
C53_3 C 0.5981(2) 0.5001(2) 0.7838(2)
C54_3 C 0.3429(3) 0.7412(2) 0.7412(2)
C55_3 C 0.5929(3) 0.4912(2) 0.7588(2)
C56_3 C 0.3305(3) 0.7614(2) 0.7614(2)
C57_3 C 0.5805(3) 0.5114(2) 0.7386(2)
C58_3 C 0.6913(2) 0.6284(3) 0.6913(2)
C59_3 C 0.6913(2) 0.5587(2) 0.6216(3)
C60_3 C 0.6809(2) 0.6040(3) 0.6809(2)
C61_3 C 0.6809(2) 0.5691(2) 0.6460(3)
C62_3 C 0.6911(3) 0.5927(2) 0.6573(2)
C63_3 C 0.6573(2) 0.5589(3) 0.6573(2)
O71_3 O 0.4839(2) 0.58958(14) 0.66042(14)
O72_3 O 0.33958(14) 0.83958(14) 0.7339(2)
O73_3 O 0.2078(4) 0.6429(6) 0.7078(4)
O74_3 O 0.2922(4) 0.4578(4) 0.8929(6)
O75_3 O 0.1603(3) 0.5491(3) 0.6222(3)
O76_3 O 0.2009(3) 0.6278(3) 0.6603(3)
O77_3 O 0.1603(3) 0.6278(3) 0.7009(3)
O78_3 O 0.3397(3) 0.4509(3) 0.8778(3)
O79_3 O 0.2991(3) 0.4103(3) 0.8778(3)
H1_3 H 0.351907 0.571468 0.678532
H2_3 H 0.460102 0.593287 0.729816
H3_3 H 0.277847 0.601741 0.706624
H4_3 H 0.442406 0.621225 0.807594
H5_3 H 0.64742 0.60258 0.707486
H12_3 H 0.293376 0.527847 0.851741
H13_3 H 0.277847 0.543376 0.648259
H14_3 H 0.351741 0.527847 0.793376
H15_3 H 0.321468 0.601907 0.821468
H16_3 H 0.206624 0.472153 0.648259
H17_3 H 0.148259 0.472153 0.706624
H18_3 H 0.178532 0.398093 0.678532
H19_3 H 0.593287 0.460102 0.729816
H20_3 H 0.64742 0.542514 0.64742
H21_3 H 0.593287 0.520184 0.789898
H24_3 H 0.343287 0.770184 0.710102
H25_3 H 0.707486 0.60258 0.64742
H26_3 H 0.520184 0.593287 0.789898
H35_3 H 0.621225 0.442406 0.807594
H40_3 H 0.371225 0.692406 0.692406
H41_3 H 0.343287 0.710102 0.770184
In1_5 In 0.37972(2) 0.62972(2) 0.2500
In2_4 In 0.177897(15) 0.677897(15) 0.22765(2)
Cd1_4 Cd 0.55576(5) 0.69424(5) 0.14333(7)
O1_4 O 0.3935(3) 0.6525(2) 0.2166(2)
O2_4 O 0.4289(3) 0.6305(3) 0.2285(3)
O3_4 O 0.5159(3) 0.6915(3) 0.1599(4)
O4_4 O 0.33872(17) 0.64428(19) 0.23863(19)
O5_4 O 0.34459(19) 0.62349(18) 0.27597(17)
O6_4 O 0.21556(17) 0.67211(17) 0.24678(17)
O7_4 O 0.19504(17) 0.69504(17) 0.19504(17)
O8_4 O 0.13798(15) 0.68016(17) 0.21065(18)
O9_4 O 0.5744(3) 0.6756(3) 0.1756(3)
C1_4 C 0.4170(5) 0.6473(3) 0.2147(4)
C2_4 C 0.4196(5) 0.6793(4) 0.1793(4)
C3_4 C 0.4336(4) 0.6630(3) 0.1966(3)
C4_4 C 0.4613(3) 0.6621(3) 0.1942(4)
C5_4 C 0.4751(6) 0.6774(4) 0.1774(4)
C6_4 C 0.5031(5) 0.6794(5) 0.1794(5)
C7_4 C 0.3299(3) 0.6353(3) 0.2602(3)
C8_4 C 0.2932(2) 0.6358(4) 0.2932(2)
C9_4 C 0.3014(2) 0.6399(2) 0.2682(2)
C10_4 C 0.2838(2) 0.6519(2) 0.2499(2)
C11_4 C 0.2588(2) 0.6571(3) 0.2588(2)
C12_4 C 0.2386(2) 0.6695(3) 0.2386(2)
C13_4 C 0.1284(3) 0.6913(2) 0.1913(2)
C14_4 C 0.1040(3) 0.6809(2) 0.1809(2)
C15_4 C 0.0927(2) 0.6573(2) 0.1911(3)
O10_4 O 0.16042(14) 0.66042(14) 0.2661(2)
O11_4 O 0.5422(4) 0.7078(4) 0.1071(6)
O12_4 O 0.5491(3) 0.6603(3) 0.1222(3)
In3_5 In 0.37972(2) 0.7500 0.12972(2)
In4_5 In 0.5000 0.62972(2) 0.37028(2)
In5_5 In 0.2500 0.62972(2) 0.37972(2)
In6_5 In 0.37972(2) 0.5000 0.12028(2)
In7_5 In 0.12972(2) 0.87972(2) 0.2500
In8_5 In 0.12972(2) 0.7500 0.37972(2)
In9_5 In 0.62028(2) 0.87028(2) 0.2500
In10_5 In 0.5000 0.87028(2) 0.12972(2)
In11_4 In 0.22765(2) 0.677897(15) 0.177897(15)
In12_4 In 0.427897(15) 0.427897(15) 0.27235(2)
In13_4 In 0.177897(15) 0.72765(2) 0.177897(15)
In14_4 In 0.02235(2) 0.572103(15) 0.177897(15)
In15_4 In 0.072103(15) 0.572103(15) 0.22765(2)
In16_4 In 0.072103(15) 0.72765(2) 0.072103(15)
In17_4 In 0.02235(2) 0.677897(15) 0.072103(15)
In18_4 In 0.427897(15) 0.47765(2) 0.322103(15)
Cd2_4 Cd 0.55576(5) 0.64333(7) 0.19424(5)
Cd3_4 Cd 0.44424(5) 0.80576(5) 0.35667(7)
Cd4_4 Cd 0.60667(7) 0.69424(5) 0.19424(5)
Cd5_4 Cd 0.39333(7) 0.80576(5) 0.30576(5)
O13_4 O 0.3935(3) 0.7166(2) 0.1525(2)
O14_4 O 0.4025(2) 0.6435(3) 0.2834(2)
O15_4 O 0.4666(2) 0.6435(3) 0.3475(2)
O16_4 O 0.5975(2) 0.8565(3) 0.2166(2)
O17_4 O 0.5334(2) 0.8565(3) 0.1525(2)
O18_4 O 0.4025(2) 0.7834(2) 0.1435(3)
O19_4 O 0.5334(2) 0.6525(2) 0.3565(3)
O20_4 O 0.4289(3) 0.7285(3) 0.1305(3)
O21_4 O 0.3805(3) 0.6789(3) 0.2715(3)
O22_4 O 0.4785(3) 0.6789(3) 0.3695(3)
O23_4 O 0.6195(3) 0.8211(3) 0.2285(3)
O24_4 O 0.5215(3) 0.8211(3) 0.1305(3)
O25_4 O 0.3805(3) 0.7715(3) 0.1789(3)
O26_4 O 0.5215(3) 0.6305(3) 0.3211(3)
O27_4 O 0.5159(3) 0.6599(4) 0.1915(3)
O28_4 O 0.4415(3) 0.7659(3) 0.3401(4)
O29_4 O 0.4099(4) 0.7659(3) 0.3085(3)
O30_4 O 0.5585(3) 0.7341(3) 0.1599(4)
O31_4 O 0.5901(4) 0.7341(3) 0.1915(3)
O32_4 O 0.5585(3) 0.6599(4) 0.2341(3)
O33_4 O 0.4841(3) 0.8085(3) 0.3401(4)
O34_4 O 0.23863(19) 0.64428(19) 0.33872(17)
O35_4 O 0.39428(19) 0.58872(17) 0.26137(19)
O36_4 O 0.39428(19) 0.48863(19) 0.16128(17)
O37_4 O 0.14428(19) 0.83872(17) 0.23863(19)
O38_4 O 0.14428(19) 0.73863(19) 0.33872(17)
O39_4 O 0.33872(17) 0.73863(19) 0.14428(19)
O40_4 O 0.39428(19) 0.76137(19) 0.08872(17)
O41_4 O 0.48863(19) 0.58872(17) 0.35572(19)
O42_4 O 0.51137(19) 0.64428(19) 0.41128(17)
O43_4 O 0.27597(17) 0.62349(18) 0.34459(19)
O44_4 O 0.37349(18) 0.59459(19) 0.22403(17)
O45_4 O 0.37349(18) 0.52597(17) 0.15541(19)
O46_4 O 0.12349(18) 0.84459(19) 0.27597(17)
O47_4 O 0.12349(18) 0.77597(17) 0.34459(19)
O48_4 O 0.34459(19) 0.77597(17) 0.12349(18)
O49_4 O 0.37349(18) 0.72403(17) 0.09459(19)
O50_4 O 0.52597(17) 0.59459(19) 0.37651(18)
O51_4 O 0.47403(17) 0.62349(18) 0.40541(19)
O52_4 O 0.24678(17) 0.67211(17) 0.21556(17)
O53_4 O 0.42211(17) 0.46556(17) 0.25322(17)
O54_4 O 0.42211(17) 0.49678(17) 0.28444(17)
O55_4 O 0.17211(17) 0.71556(17) 0.24678(17)
O56_4 O 0.17211(17) 0.74678(17) 0.21556(17)
O57_4 O 0.24678(17) 0.71556(17) 0.17211(17)
O58_4 O 0.46556(17) 0.42211(17) 0.25322(17)
O59_4 O 0.44504(17) 0.44504(17) 0.30496(17)
O60_4 O 0.13798(15) 0.71065(18) 0.18016(17)
O61_4 O 0.03935(18) 0.61202(15) 0.18016(17)
O62_4 O 0.06984(17) 0.61202(15) 0.21065(18)
O63_4 O 0.06984(17) 0.71065(18) 0.11202(15)
O64_4 O 0.03935(18) 0.68016(17) 0.11202(15)
O65_4 O 0.18016(17) 0.63798(15) 0.21065(18)
O66_4 O 0.21065(18) 0.68016(17) 0.13798(15)
O67_4 O 0.21065(18) 0.63798(15) 0.18016(17)
O68_4 O 0.43016(17) 0.38798(15) 0.28935(18)
O69_4 O 0.38798(15) 0.43016(17) 0.28935(18)
O70_4 O 0.4256(3) 0.8244(3) 0.3244(3)
C16_4 C 0.4170(5) 0.7147(4) 0.1473(3)
C17_4 C 0.3973(3) 0.6670(5) 0.2853(4)
C18_4 C 0.4647(4) 0.6670(5) 0.3527(3)
C19_4 C 0.6027(3) 0.8330(5) 0.2147(4)
C20_4 C 0.5353(4) 0.8330(5) 0.1473(3)
C21_4 C 0.4293(4) 0.6696(5) 0.3207(4)
C22_4 C 0.5707(4) 0.8304(5) 0.1793(4)
C23_4 C 0.4336(4) 0.6966(3) 0.1630(3)
C24_4 C 0.4130(3) 0.6836(4) 0.3034(3)
C25_4 C 0.4466(3) 0.6836(4) 0.3370(3)
C26_4 C 0.5870(3) 0.8164(4) 0.1966(3)
C27_4 C 0.5534(3) 0.8164(4) 0.1630(3)
C28_4 C 0.4613(3) 0.6942(4) 0.1621(3)
C29_4 C 0.4121(3) 0.7113(3) 0.3058(4)
C30_4 C 0.4442(4) 0.7113(3) 0.3379(3)
C31_4 C 0.5879(3) 0.7887(3) 0.1942(4)
C32_4 C 0.5558(4) 0.7887(3) 0.1621(3)
C33_4 C 0.4274(4) 0.7251(6) 0.3226(4)
C34_4 C 0.5726(4) 0.7749(6) 0.1774(4)
C35_4 C 0.4294(5) 0.7531(5) 0.3206(5)
C36_4 C 0.5706(5) 0.7469(5) 0.1794(5)
C37_4 C 0.2602(3) 0.6353(3) 0.3299(3)
C38_4 C 0.3853(3) 0.5799(3) 0.2398(3)
C39_4 C 0.3853(3) 0.5102(3) 0.1701(3)
C40_4 C 0.1353(3) 0.8299(3) 0.2602(3)
C41_4 C 0.1353(3) 0.7602(3) 0.3299(3)
C42_4 C 0.3858(4) 0.5432(2) 0.2068(2)
C43_4 C 0.1358(4) 0.7932(2) 0.2932(2)
C44_4 C 0.2682(2) 0.6399(2) 0.3014(2)
C45_4 C 0.3899(2) 0.5514(2) 0.2318(2)
C46_4 C 0.3899(2) 0.5182(2) 0.1986(2)
C47_4 C 0.1399(2) 0.8014(2) 0.2682(2)
C48_4 C 0.1399(2) 0.7682(2) 0.3014(2)
C49_4 C 0.2499(2) 0.6519(2) 0.2838(2)
C50_4 C 0.4019(2) 0.5338(2) 0.2501(2)
C51_4 C 0.4019(2) 0.4999(2) 0.2162(2)
C52_4 C 0.1519(2) 0.7838(2) 0.2499(2)
C53_4 C 0.1519(2) 0.7499(2) 0.2838(2)
C54_4 C 0.4071(3) 0.5088(2) 0.2412(2)
C55_4 C 0.1571(3) 0.7588(2) 0.2588(2)
C56_4 C 0.4195(3) 0.4886(2) 0.2614(2)
C57_4 C 0.1695(3) 0.7386(2) 0.2386(2)
C58_4 C 0.0587(2) 0.6216(3) 0.1913(2)
C59_4 C 0.0587(2) 0.6913(2) 0.1216(3)
C60_4 C 0.0691(2) 0.6460(3) 0.1809(2)
C61_4 C 0.0691(2) 0.6809(2) 0.1460(3)
C62_4 C 0.0589(3) 0.6573(2) 0.1573(2)
C63_4 C 0.0927(2) 0.6911(3) 0.1573(2)
O71_4 O 0.2661(2) 0.66042(14) 0.16042(14)
O72_4 O 0.41042(14) 0.41042(14) 0.2339(2)
O73_4 O 0.5422(4) 0.6071(6) 0.2078(4)
O74_4 O 0.4578(4) 0.7922(4) 0.3929(6)
O75_4 O 0.5897(3) 0.7009(3) 0.1222(3)
O76_4 O 0.5491(3) 0.6222(3) 0.1603(3)
O77_4 O 0.5897(3) 0.6222(3) 0.2009(3)
O78_4 O 0.4103(3) 0.7991(3) 0.3778(3)
O79_4 O 0.4509(3) 0.8397(3) 0.3778(3)
H1_4 H 0.398093 0.678532 0.178532
H2_4 H 0.289898 0.656713 0.229816
H3_4 H 0.472153 0.648259 0.206624
H4_4 H 0.307594 0.628775 0.307594
H5_4 H 0.10258 0.64742 0.207486
H12_4 H 0.456624 0.722153 0.351741
H13_4 H 0.472153 0.706624 0.148259
H14_4 H 0.398259 0.722153 0.293376
H15_4 H 0.428532 0.648093 0.321468
H16_4 H 0.543376 0.777847 0.148259
H17_4 H 0.601741 0.777847 0.206624
H18_4 H 0.571468 0.851907 0.178532
H19_4 H 0.156713 0.789898 0.229816
H20_4 H 0.10258 0.707486 0.14742
H21_4 H 0.156713 0.729816 0.289898
H24_4 H 0.406713 0.479816 0.210102
H25_4 H 0.0425141 0.64742 0.14742
H26_4 H 0.229816 0.656713 0.289898
H35_4 H 0.128775 0.807594 0.307594
H40_4 H 0.378775 0.557594 0.192406
H41_4 H 0.406713 0.539898 0.270184
O11_5 O 0.1429(6) 0.0422(4) 0.0422(4)
O12_5 O 0.1278(3) 0.0491(3) 0.0897(3)
O30_5 O 0.0901(4) 0.0585(3) 0.0159(3)
C36_5 C 0.0706(5) 0.0706(5) 0.0031(5)
O75_5 O 0.1278(3) 0.0897(3) 0.0491(3)
In10_6 In 0.12028(2) -0.0000 0.87972(2)
O17_5 O 0.0975(2) 0.0334(2) 0.8935(3)
O24_5 O 0.1195(3) 0.0215(3) 0.9289(3)
C19_5 C 0.0353(4) 0.1027(3) 0.9170(5)
C20_5 C 0.1027(3) 0.0353(4) 0.9170(5)
C22_5 C 0.0707(4) 0.0707(4) 0.9196(5)
C26_5 C 0.0534(3) 0.0870(3) 0.9336(4)
C27_5 C 0.0870(3) 0.0534(3) 0.9336(4)
C31_5 C 0.0558(4) 0.0879(3) 0.9613(3)
C32_5 C 0.0879(3) 0.0558(4) 0.9613(3)
C34_5 C 0.0726(4) 0.0726(4) 0.9751(6)
H16_5 H 0.101741 0.0433758 0.972153
H17_5 H 0.0433758 0.101741 0.972153
H18_5 H 0.0714681 0.0714681 0.898093
O4_5 O 0.01137(19) 0.83872(17) 0.10572(19)
O6_5 O 0.00322(17) 0.71556(17) 0.07789(17)
O7_5 O 0.05496(17) 0.69504(17) 0.05496(17)
O8_5 O 0.03935(18) 0.63798(15) 0.06984(17)
C10_5 C 0.0001(2) 0.7838(2) 0.0981(2)
C12_5 C 0.0114(2) 0.7386(2) 0.0805(3)
C13_5 C 0.0587(2) 0.6284(3) 0.0587(2)
C14_5 C 0.0691(2) 0.6040(3) 0.0691(2)
C15_5 C 0.0589(3) 0.5927(2) 0.0927(2)
In13_5 In 0.072103(15) 0.677897(15) 0.02235(2)
In14_5 In 0.072103(15) 0.52235(2) 0.177897(15)
In16_5 In 0.177897(15) 0.572103(15) 0.02235(2)
In17_5 In 0.177897(15) 0.52235(2) 0.072103(15)
O36_5 O 0.08872(17) 0.89428(19) 0.26137(19)
O39_5 O 0.10572(19) 0.83872(17) 0.01137(19)
O44_5 O 0.02597(17) 0.87349(18) 0.15541(19)
O45_5 O 0.09459(19) 0.87349(18) 0.22403(17)
O49_5 O 0.15541(19) 0.87349(18) 0.02597(17)
O52_5 O 0.03444(17) 0.74678(17) 0.07789(17)
O55_5 O 0.00322(17) 0.67211(17) 0.03444(17)
O56_5 O 0.03444(17) 0.67211(17) 0.00322(17)
O57_5 O 0.07789(17) 0.74678(17) 0.03444(17)
O60_5 O 0.06984(17) 0.63798(15) 0.03935(18)
O61_5 O 0.06984(17) 0.53935(18) 0.13798(15)
O62_5 O 0.03935(18) 0.56984(17) 0.13798(15)
O63_5 O 0.13798(15) 0.56984(17) 0.03935(18)
O64_5 O 0.13798(15) 0.53935(18) 0.06984(17)
O66_5 O 0.11202(15) 0.71065(18) 0.06984(17)
C38_5 C 0.0102(3) 0.8853(3) 0.1701(3)
C39_5 C 0.0799(3) 0.8853(3) 0.2398(3)
C42_5 C 0.0432(2) 0.8858(4) 0.2068(2)
C45_5 C 0.0182(2) 0.8899(2) 0.1986(2)
C46_5 C 0.0514(2) 0.8899(2) 0.2318(2)
C51_5 C 0.0338(2) 0.9019(2) 0.2501(2)
C54_5 C 0.0088(2) 0.9071(3) 0.2412(2)
C57_5 C 0.0114(2) 0.6695(3) 0.0114(2)
C58_5 C 0.0587(2) 0.5587(2) 0.1284(3)
C59_5 C 0.1284(3) 0.5587(2) 0.0587(2)
C60_5 C 0.0691(2) 0.5691(2) 0.1040(3)
C61_5 C 0.1040(3) 0.5691(2) 0.0691(2)
C62_5 C 0.0927(2) 0.5589(3) 0.0927(2)
C63_5 C 0.0927(2) 0.5927(2) 0.0589(3)
O71_5 O 0.08958(14) 0.7661(2) 0.08958(14)
O72_5 O 0.0161(2) 0.91042(14) 0.33958(14)
H2_5 H 0.020184 0.789898 0.0932875
H5_5 H 0.0425141 0.60258 0.10258
H20_5 H 0.10258 0.60258 0.0425141
H24_5 H 0.039898 0.906713 0.270184
H25_5 H 0.10258 0.542514 0.10258
H40_5 H 0.0575937 0.878775 0.192406
In7_6 In -0.0000 0.62972(2) 0.87028(2)
In10_7 In 0.12028(2) 1.0000 0.87972(2)
O18_5 O 0.1065(3) 0.9025(2) 0.9666(2)
O25_5 O 0.0711(3) 0.8805(3) 0.9785(3)
O37_5 O 0.01137(19) 0.64428(19) 0.91128(17)
O40_5 O 0.16128(17) 0.89428(19) 0.98863(19)
O48_5 O 0.12651(18) 0.84459(19) 0.97403(17)
C52_5 C 0.0001(2) 0.6519(2) 0.9662(2)
H19_5 H 0.020184 0.656713 0.960102
O5_5 O 0.97403(17) 0.84459(19) 0.12651(18)
C7_5 C 0.9898(3) 0.8299(3) 0.1147(3)
C8_5 C 0.9568(2) 0.7932(2) 0.1142(4)
C9_5 C 0.9818(2) 0.8014(2) 0.1101(2)
C11_5 C 0.9912(2) 0.7588(2) 0.0929(3)
O10_5 O 0.9839(2) 0.66042(14) 0.08958(14)
In5_6 In 0.87028(2) 0.7500 0.12028(2)
In8_6 In 0.87028(2) 0.62972(2) 0.0000
In12_5 In 0.97765(2) 0.927897(15) 0.322103(15)
In18_5 In 0.927897(15) 0.927897(15) 0.27235(2)
O14_5 O 0.9666(2) 0.9025(2) 0.1065(3)
O21_5 O 0.9785(3) 0.8805(3) 0.0711(3)
O34_5 O 0.91128(17) 0.73863(19) 0.10572(19)
O35_5 O 0.98863(19) 0.89428(19) 0.16128(17)
O38_5 O 0.91128(17) 0.64428(19) 0.01137(19)
O43_5 O 0.90541(19) 0.77597(17) 0.12651(18)
O53_5 O 0.99678(17) 0.92211(17) 0.28444(17)
O54_5 O 0.96556(17) 0.92211(17) 0.25322(17)
O58_5 O 0.99678(17) 0.96556(17) 0.32789(17)
O59_5 O 0.94504(17) 0.94504(17) 0.30496(17)
O68_5 O 0.96065(18) 0.93016(17) 0.36202(15)
O69_5 O 0.96065(18) 0.88798(15) 0.31984(17)
C17_5 C 0.9647(4) 0.8973(3) 0.0830(5)
C18_5 C 0.8973(3) 0.9647(4) 0.0830(5)
C21_5 C 0.9293(4) 0.9293(4) 0.0804(5)
C24_5 C 0.9466(3) 0.9130(3) 0.0664(4)
C25_5 C 0.9130(3) 0.9466(3) 0.0664(4)
C29_5 C 0.9442(4) 0.9121(3) 0.0387(3)
C30_5 C 0.9121(3) 0.9442(4) 0.0387(3)
C33_5 C 0.9274(4) 0.9274(4) 0.0249(6)
C37_5 C 0.9201(3) 0.7602(3) 0.1147(3)
C44_5 C 0.9486(2) 0.7682(2) 0.1101(2)
C49_5 C 0.9662(2) 0.7499(2) 0.0981(2)
C50_5 C 0.9999(2) 0.9019(2) 0.2162(2)
C53_5 C 0.9662(2) 0.6519(2) 0.0001(2)
C56_5 C 0.9886(2) 0.9195(3) 0.2614(2)
H4_5 H 0.942406 0.807594 0.121225
H12_5 H 0.898259 0.956624 0.0278468
H14_5 H 0.956624 0.898259 0.0278468
H15_5 H 0.928532 0.928532 0.101907
H21_5 H 0.960102 0.656713 0.020184
H26_5 H 0.960102 0.729816 0.0932875
H41_5 H 0.979816 0.906713 0.210102
In7_7 In 1.0000 0.62972(2) 0.87028(2)
In8_7 In 0.87028(2) 0.62972(2) 1.0000
Cd5_5 Cd 0.94424(5) 0.89333(7) 0.94424(5)
O28_5 O 0.9099(4) 0.9415(3) 0.9841(3)
O29_5 O 0.9415(3) 0.9099(4) 0.9841(3)
O46_5 O 0.97403(17) 0.62349(18) 0.90541(19)
O47_5 O 0.90541(19) 0.62349(18) 0.97403(17)
C35_5 C 0.9294(5) 0.9294(5) 0.9969(5)
C40_5 C 0.9898(3) 0.6353(3) 0.9201(3)
C41_5 C 0.9201(3) 0.6353(3) 0.9898(3)
C43_5 C 0.9568(2) 0.6358(4) 0.9568(2)
C47_5 C 0.9818(2) 0.6399(2) 0.9486(2)
C48_5 C 0.9486(2) 0.6399(2) 0.9818(2)
C55_5 C 0.9912(2) 0.6571(3) 0.9912(2)
O74_5 O 0.8571(6) 0.9578(4) 0.9578(4)
O78_5 O 0.8722(3) 0.9103(3) 0.9509(3)
O79_5 O 0.8722(3) 0.9509(3) 0.9103(3)
H35_5 H 0.942406 0.628775 0.942406
O6_6 O 0.50322(17) 0.03444(17) 0.17211(17)
O7_6 O 0.55496(17) 0.05496(17) 0.19504(17)
O8_6 O 0.53935(18) 0.11202(15) 0.18016(17)
C12_6 C 0.5114(2) 0.0114(2) 0.1695(3)
C13_6 C 0.5587(2) 0.1216(3) 0.1913(2)
C14_6 C 0.5691(2) 0.1460(3) 0.1809(2)
C15_6 C 0.5589(3) 0.1573(2) 0.1573(2)
O10_6 O 0.4839(2) 0.08958(14) 0.16042(14)
In5_7 In 0.37028(2) -0.0000 0.12972(2)
In7_8 In 0.5000 0.12028(2) 0.37972(2)
In8_8 In 0.37028(2) 0.12028(2) 0.2500
In13_6 In 0.572103(15) 0.072103(15) 0.22765(2)
In14_6 In 0.572103(15) 0.22765(2) 0.072103(15)
In16_6 In 0.677897(15) 0.177897(15) 0.22765(2)
In17_6 In 0.677897(15) 0.22765(2) 0.177897(15)
O34_6 O 0.41128(17) 0.01137(19) 0.14428(19)
O37_6 O 0.51137(19) 0.10572(19) 0.33872(17)
O38_6 O 0.41128(17) 0.10572(19) 0.23863(19)
O46_6 O 0.47403(17) 0.12651(18) 0.34459(19)
O47_6 O 0.40541(19) 0.12651(18) 0.27597(17)
O52_6 O 0.53444(17) 0.00322(17) 0.17211(17)
O55_6 O 0.50322(17) 0.07789(17) 0.21556(17)
O56_6 O 0.53444(17) 0.07789(17) 0.24678(17)
O57_6 O 0.57789(17) 0.00322(17) 0.21556(17)
O60_6 O 0.56984(17) 0.11202(15) 0.21065(18)
O61_6 O 0.56984(17) 0.21065(18) 0.11202(15)
O62_6 O 0.53935(18) 0.18016(17) 0.11202(15)
O63_6 O 0.63798(15) 0.18016(17) 0.21065(18)
O64_6 O 0.63798(15) 0.21065(18) 0.18016(17)
O66_6 O 0.61202(15) 0.03935(18) 0.18016(17)
C40_6 C 0.4898(3) 0.1147(3) 0.3299(3)
C41_6 C 0.4201(3) 0.1147(3) 0.2602(3)
C43_6 C 0.4568(2) 0.1142(4) 0.2932(2)
C47_6 C 0.4818(2) 0.1101(2) 0.3014(2)
C48_6 C 0.4486(2) 0.1101(2) 0.2682(2)
C49_6 C 0.4662(2) 0.0001(2) 0.1519(2)
C52_6 C 0.5001(2) 0.0981(2) 0.2838(2)
C53_6 C 0.4662(2) 0.0981(2) 0.2499(2)
C55_6 C 0.4912(2) 0.0929(3) 0.2588(2)
C57_6 C 0.5114(2) 0.0805(3) 0.2386(2)
C58_6 C 0.5587(2) 0.1913(2) 0.1216(3)
C59_6 C 0.6284(3) 0.1913(2) 0.1913(2)
C60_6 C 0.5691(2) 0.1809(2) 0.1460(3)
C61_6 C 0.6040(3) 0.1809(2) 0.1809(2)
C62_6 C 0.5927(2) 0.1911(3) 0.1573(2)
C63_6 C 0.5927(2) 0.1573(2) 0.1911(3)
H5_6 H 0.542514 0.14742 0.14742
H19_6 H 0.520184 0.0932875 0.289898
H20_6 H 0.60258 0.14742 0.207486
H21_6 H 0.460102 0.0932875 0.229816
H25_6 H 0.60258 0.207486 0.14742
H26_6 H 0.460102 0.020184 0.156713
H35_6 H 0.442406 0.121225 0.307594
O4_6 O 0.51137(19) 0.91128(17) 0.14428(19)
O5_6 O 0.47403(17) 0.90541(19) 0.12349(18)
C7_6 C 0.4898(3) 0.9201(3) 0.1353(3)
C8_6 C 0.4568(2) 0.9568(2) 0.1358(4)
C9_6 C 0.4818(2) 0.9486(2) 0.1399(2)
C10_6 C 0.5001(2) 0.9662(2) 0.1519(2)
C11_6 C 0.4912(2) 0.9912(2) 0.1571(3)
O11_6 O 0.6429(6) 0.7078(4) 0.2078(4)
O12_6 O 0.6278(3) 0.7009(3) 0.1603(3)
In5_8 In 0.37028(2) 1.0000 0.12972(2)
In10_8 In 0.62028(2) 0.7500 0.37028(2)
Cd5_6 Cd 0.44424(5) 0.85667(7) 0.30576(5)
O14_6 O 0.4666(2) 0.8475(2) 0.1435(3)
O17_6 O 0.5975(2) 0.7166(2) 0.3565(3)
O18_6 O 0.6065(3) 0.8475(2) 0.2834(2)
O21_6 O 0.4785(3) 0.8695(3) 0.1789(3)
O24_6 O 0.6195(3) 0.7285(3) 0.3211(3)
O25_6 O 0.5711(3) 0.8695(3) 0.2715(3)
O28_6 O 0.4099(4) 0.8085(3) 0.2659(3)
O29_6 O 0.4415(3) 0.8401(4) 0.2659(3)
O30_6 O 0.5901(4) 0.6915(3) 0.2341(3)
O35_6 O 0.48863(19) 0.85572(19) 0.08872(17)
O39_6 O 0.60572(19) 0.91128(17) 0.23863(19)
O40_6 O 0.66128(17) 0.85572(19) 0.26137(19)
O43_6 O 0.40541(19) 0.97403(17) 0.12349(18)
O44_6 O 0.52597(17) 0.87651(18) 0.09459(19)
O45_6 O 0.59459(19) 0.87651(18) 0.02597(17)
O48_6 O 0.62651(18) 0.90541(19) 0.27597(17)
O49_6 O 0.65541(19) 0.87651(18) 0.22403(17)
C17_6 C 0.4647(4) 0.8527(3) 0.1670(5)
C18_6 C 0.3973(3) 0.7853(4) 0.1670(5)
C19_6 C 0.5353(4) 0.6473(3) 0.3330(5)
C20_6 C 0.6027(3) 0.7147(4) 0.3330(5)
C21_6 C 0.4293(4) 0.8207(4) 0.1696(5)
C22_6 C 0.5707(4) 0.6793(4) 0.3304(5)
C24_6 C 0.4466(3) 0.8370(3) 0.1836(4)
C25_6 C 0.4130(3) 0.8034(3) 0.1836(4)
C26_6 C 0.5534(3) 0.6630(3) 0.3164(4)
C27_6 C 0.5870(3) 0.6966(3) 0.3164(4)
C29_6 C 0.4442(4) 0.8379(3) 0.2113(3)
C30_6 C 0.4121(3) 0.8058(4) 0.2113(3)
C31_6 C 0.5558(4) 0.6621(3) 0.2887(3)
C32_6 C 0.5879(3) 0.6942(4) 0.2887(3)
C33_6 C 0.4274(4) 0.8226(4) 0.2251(6)
C34_6 C 0.5726(4) 0.6774(4) 0.2749(6)
C35_6 C 0.4294(5) 0.8206(5) 0.2531(5)
C36_6 C 0.5706(5) 0.6794(5) 0.2469(5)
C37_6 C 0.4201(3) 0.9898(3) 0.1353(3)
C38_6 C 0.5102(3) 0.8647(3) 0.0799(3)
C39_6 C 0.5799(3) 0.8647(3) 0.0102(3)
C42_6 C 0.5432(2) 0.8642(4) 0.0432(2)
C44_6 C 0.4486(2) 0.9818(2) 0.1399(2)
C45_6 C 0.5182(2) 0.8601(2) 0.0514(2)
C46_6 C 0.5514(2) 0.8601(2) 0.0182(2)
C50_6 C 0.4999(2) 0.8481(2) 0.0338(2)
C54_6 C 0.5088(2) 0.8429(3) 0.0088(2)
O71_6 O 0.58958(14) 0.9839(2) 0.16042(14)
O74_6 O 0.3571(6) 0.7922(4) 0.2922(4)
O75_6 O 0.6278(3) 0.6603(3) 0.2009(3)
O78_6 O 0.3722(3) 0.8397(3) 0.2991(3)
O79_6 O 0.3722(3) 0.7991(3) 0.3397(3)
H2_6 H 0.520184 0.960102 0.156713
H4_6 H 0.442406 0.942406 0.128775
H12_6 H 0.398259 0.793376 0.222153
H14_6 H 0.456624 0.851741 0.222153
H15_6 H 0.428532 0.821468 0.148093
H16_6 H 0.601741 0.706624 0.277847
H17_6 H 0.543376 0.648259 0.277847
H18_6 H 0.571468 0.678532 0.351907
H40_6 H 0.557594 0.871225 0.0575937
H41_6 H 0.479816 0.843287 0.039898
In12_6 In 0.47765(2) 0.822103(15) 0.927897(15)
In18_6 In 0.427897(15) 0.822103(15) 0.97765(2)
O36_6 O 0.58872(17) 0.85572(19) 0.98863(19)
O53_6 O 0.49678(17) 0.82789(17) 0.96556(17)
O54_6 O 0.46556(17) 0.82789(17) 0.99678(17)
O58_6 O 0.49678(17) 0.78444(17) 0.92211(17)
O59_6 O 0.44504(17) 0.80496(17) 0.94504(17)
O68_6 O 0.46065(18) 0.81984(17) 0.88798(15)
O69_6 O 0.46065(18) 0.86202(15) 0.93016(17)
C51_6 C 0.5338(2) 0.8481(2) 0.9999(2)
C56_6 C 0.4886(2) 0.8305(3) 0.9886(2)
O72_6 O 0.5161(2) 0.83958(14) 0.91042(14)
H24_6 H 0.539898 0.843287 0.979816
O4_7 O 0.73863(19) 0.41128(17) 0.60572(19)
O5_7 O 0.77597(17) 0.40541(19) 0.62651(18)
O6_7 O 0.74678(17) 0.53444(17) 0.57789(17)
O7_7 O 0.69504(17) 0.55496(17) 0.55496(17)
O8_7 O 0.71065(18) 0.61202(15) 0.56984(17)
C7_7 C 0.7602(3) 0.4201(3) 0.6147(3)
C8_7 C 0.7932(2) 0.4568(2) 0.6142(4)
C9_7 C 0.7682(2) 0.4486(2) 0.6101(2)
C10_7 C 0.7499(2) 0.4662(2) 0.5981(2)
C11_7 C 0.7588(2) 0.4912(2) 0.5929(3)
C12_7 C 0.7386(2) 0.5114(2) 0.5805(3)
C13_7 C 0.6913(2) 0.6216(3) 0.5587(2)
C14_7 C 0.6809(2) 0.6460(3) 0.5691(2)
C15_7 C 0.6911(3) 0.6573(2) 0.5927(2)
O10_7 O 0.7661(2) 0.58958(14) 0.58958(14)
O11_7 O 0.6071(6) 0.2078(4) 0.5422(4)
O12_7 O 0.6222(3) 0.2009(3) 0.5897(3)
In5_9 In 0.87972(2) 0.5000 0.62028(2)
In7_9 In 0.7500 0.62028(2) 0.37028(2)
In8_9 In 0.87972(2) 0.62028(2) 0.5000
In10_9 In 0.62972(2) 0.2500 0.37972(2)
In12_7 In 0.77235(2) 0.322103(15) 0.822103(15)
In13_7 In 0.677897(15) 0.572103(15) 0.52235(2)
In14_7 In 0.677897(15) 0.72765(2) 0.677897(15)
In16_7 In 0.572103(15) 0.677897(15) 0.52235(2)
In17_7 In 0.572103(15) 0.72765(2) 0.572103(15)
In18_7 In 0.822103(15) 0.322103(15) 0.77235(2)
Cd5_7 Cd 0.80576(5) 0.35667(7) 0.44424(5)
O14_7 O 0.7834(2) 0.3475(2) 0.6065(3)
O17_7 O 0.6525(2) 0.2166(2) 0.3935(3)
O18_7 O 0.6435(3) 0.3475(2) 0.4666(2)
O21_7 O 0.7715(3) 0.3695(3) 0.5711(3)
O24_7 O 0.6305(3) 0.2285(3) 0.4289(3)
O25_7 O 0.6789(3) 0.3695(3) 0.4785(3)
O28_7 O 0.8401(4) 0.3085(3) 0.4841(3)
O29_7 O 0.8085(3) 0.3401(4) 0.4841(3)
O30_7 O 0.6599(4) 0.1915(3) 0.5159(3)
O34_7 O 0.83872(17) 0.51137(19) 0.60572(19)
O35_7 O 0.76137(19) 0.35572(19) 0.66128(17)
O36_7 O 0.66128(17) 0.35572(19) 0.76137(19)
O37_7 O 0.73863(19) 0.60572(19) 0.41128(17)
O38_7 O 0.83872(17) 0.60572(19) 0.51137(19)
O39_7 O 0.64428(19) 0.41128(17) 0.51137(19)
O40_7 O 0.58872(17) 0.35572(19) 0.48863(19)
O43_7 O 0.84459(19) 0.47403(17) 0.62651(18)
O44_7 O 0.72403(17) 0.37651(18) 0.65541(19)
O45_7 O 0.65541(19) 0.37651(18) 0.72403(17)
O46_7 O 0.77597(17) 0.62651(18) 0.40541(19)
O47_7 O 0.84459(19) 0.62651(18) 0.47403(17)
O48_7 O 0.62349(18) 0.40541(19) 0.47403(17)
O49_7 O 0.59459(19) 0.37651(18) 0.52597(17)
O52_7 O 0.71556(17) 0.50322(17) 0.57789(17)
O53_7 O 0.75322(17) 0.32789(17) 0.78444(17)
O54_7 O 0.78444(17) 0.32789(17) 0.75322(17)
O55_7 O 0.74678(17) 0.57789(17) 0.53444(17)
O56_7 O 0.71556(17) 0.57789(17) 0.50322(17)
O57_7 O 0.67211(17) 0.50322(17) 0.53444(17)
O58_7 O 0.75322(17) 0.28444(17) 0.82789(17)
O59_7 O 0.80496(17) 0.30496(17) 0.80496(17)
O60_7 O 0.68016(17) 0.61202(15) 0.53935(18)
O61_7 O 0.68016(17) 0.71065(18) 0.63798(15)
O62_7 O 0.71065(18) 0.68016(17) 0.63798(15)
O63_7 O 0.61202(15) 0.68016(17) 0.53935(18)
O64_7 O 0.61202(15) 0.71065(18) 0.56984(17)
O66_7 O 0.63798(15) 0.53935(18) 0.56984(17)
O68_7 O 0.78935(18) 0.31984(17) 0.86202(15)
O69_7 O 0.78935(18) 0.36202(15) 0.81984(17)
C17_7 C 0.7853(4) 0.3527(3) 0.5830(5)
C18_7 C 0.8527(3) 0.2853(4) 0.5830(5)
C19_7 C 0.7147(4) 0.1473(3) 0.4170(5)
C20_7 C 0.6473(3) 0.2147(4) 0.4170(5)
C21_7 C 0.8207(4) 0.3207(4) 0.5804(5)
C22_7 C 0.6793(4) 0.1793(4) 0.4196(5)
C24_7 C 0.8034(3) 0.3370(3) 0.5664(4)
C25_7 C 0.8370(3) 0.3034(3) 0.5664(4)
C26_7 C 0.6966(3) 0.1630(3) 0.4336(4)
C27_7 C 0.6630(3) 0.1966(3) 0.4336(4)
C29_7 C 0.8058(4) 0.3379(3) 0.5387(3)
C30_7 C 0.8379(3) 0.3058(4) 0.5387(3)
C31_7 C 0.6942(4) 0.1621(3) 0.4613(3)
C32_7 C 0.6621(3) 0.1942(4) 0.4613(3)
C33_7 C 0.8226(4) 0.3226(4) 0.5249(6)
C34_7 C 0.6774(4) 0.1774(4) 0.4751(6)
C35_7 C 0.8206(5) 0.3206(5) 0.4969(5)
C36_7 C 0.6794(5) 0.1794(5) 0.5031(5)
C37_7 C 0.8299(3) 0.4898(3) 0.6147(3)
C38_7 C 0.7398(3) 0.3647(3) 0.6701(3)
C39_7 C 0.6701(3) 0.3647(3) 0.7398(3)
C40_7 C 0.7602(3) 0.6147(3) 0.4201(3)
C41_7 C 0.8299(3) 0.6147(3) 0.4898(3)
C42_7 C 0.7068(2) 0.3642(4) 0.7068(2)
C43_7 C 0.7932(2) 0.6142(4) 0.4568(2)
C44_7 C 0.8014(2) 0.4818(2) 0.6101(2)
C45_7 C 0.7318(2) 0.3601(2) 0.6986(2)
C46_7 C 0.6986(2) 0.3601(2) 0.7318(2)
C47_7 C 0.7682(2) 0.6101(2) 0.4486(2)
C48_7 C 0.8014(2) 0.6101(2) 0.4818(2)
C49_7 C 0.7838(2) 0.5001(2) 0.5981(2)
C50_7 C 0.7501(2) 0.3481(2) 0.7162(2)
C51_7 C 0.7162(2) 0.3481(2) 0.7501(2)
C52_7 C 0.7499(2) 0.5981(2) 0.4662(2)
C53_7 C 0.7838(2) 0.5981(2) 0.5001(2)
C54_7 C 0.7412(2) 0.3429(3) 0.7412(2)
C55_7 C 0.7588(2) 0.5929(3) 0.4912(2)
C56_7 C 0.7614(2) 0.3305(3) 0.7614(2)
C57_7 C 0.7386(2) 0.5805(3) 0.5114(2)
C58_7 C 0.6913(2) 0.6913(2) 0.6284(3)
C59_7 C 0.6216(3) 0.6913(2) 0.5587(2)
C60_7 C 0.6809(2) 0.6809(2) 0.6040(3)
C61_7 C 0.6460(3) 0.6809(2) 0.5691(2)
C62_7 C 0.6573(2) 0.6911(3) 0.5927(2)
C63_7 C 0.6573(2) 0.6573(2) 0.5589(3)
O71_7 O 0.66042(14) 0.4839(2) 0.58958(14)
O72_7 O 0.7339(2) 0.33958(14) 0.83958(14)
O74_7 O 0.8929(6) 0.2922(4) 0.4578(4)
O75_7 O 0.6222(3) 0.1603(3) 0.5491(3)
O78_7 O 0.8778(3) 0.3397(3) 0.4509(3)
O79_7 O 0.8778(3) 0.2991(3) 0.4103(3)
H2_7 H 0.729816 0.460102 0.593287
H4_7 H 0.807594 0.442406 0.621225
H5_7 H 0.707486 0.64742 0.60258
H12_7 H 0.851741 0.293376 0.527847
H14_7 H 0.793376 0.351741 0.527847
H15_7 H 0.821468 0.321468 0.601907
H16_7 H 0.648259 0.206624 0.472153
H17_7 H 0.706624 0.148259 0.472153
H18_7 H 0.678532 0.178532 0.398093
H19_7 H 0.729816 0.593287 0.460102
H20_7 H 0.64742 0.64742 0.542514
H21_7 H 0.789898 0.593287 0.520184
H24_7 H 0.710102 0.343287 0.770184
H25_7 H 0.64742 0.707486 0.60258
H26_7 H 0.789898 0.520184 0.593287
H35_7 H 0.807594 0.621225 0.442406
H40_7 H 0.692406 0.371225 0.692406
H41_7 H 0.770184 0.343287 0.710102
O4_8 O 0.23863(19) 0.33872(17) 0.64428(19)
O5_8 O 0.27597(17) 0.34459(19) 0.62349(18)
O6_8 O 0.24678(17) 0.21556(17) 0.67211(17)
O7_8 O 0.19504(17) 0.19504(17) 0.69504(17)
O8_8 O 0.21065(18) 0.13798(15) 0.68016(17)
C7_8 C 0.2602(3) 0.3299(3) 0.6353(3)
C8_8 C 0.2932(2) 0.2932(2) 0.6358(4)
C9_8 C 0.2682(2) 0.3014(2) 0.6399(2)
C10_8 C 0.2499(2) 0.2838(2) 0.6519(2)
C11_8 C 0.2588(2) 0.2588(2) 0.6571(3)
C12_8 C 0.2386(2) 0.2386(2) 0.6695(3)
C13_8 C 0.1913(2) 0.1284(3) 0.6913(2)
C14_8 C 0.1809(2) 0.1040(3) 0.6809(2)
C15_8 C 0.1911(3) 0.0927(2) 0.6573(2)
O10_8 O 0.2661(2) 0.16042(14) 0.66042(14)
O11_8 O 0.1071(6) 0.5422(4) 0.7078(4)
O12_8 O 0.1222(3) 0.5491(3) 0.6603(3)
In5_10 In 0.37972(2) 0.2500 0.62972(2)
In7_10 In 0.2500 0.12972(2) 0.87972(2)
In8_10 In 0.37972(2) 0.12972(2) 0.7500
In10_10 In 0.12972(2) 0.5000 0.87028(2)
In12_8 In 0.27235(2) 0.427897(15) 0.427897(15)
In13_8 In 0.177897(15) 0.177897(15) 0.72765(2)
In14_8 In 0.177897(15) 0.02235(2) 0.572103(15)
In16_8 In 0.072103(15) 0.072103(15) 0.72765(2)
In17_8 In 0.072103(15) 0.02235(2) 0.677897(15)
In18_8 In 0.322103(15) 0.427897(15) 0.47765(2)
Cd5_8 Cd 0.30576(5) 0.39333(7) 0.80576(5)
O14_8 O 0.2834(2) 0.4025(2) 0.6435(3)
O17_8 O 0.1525(2) 0.5334(2) 0.8565(3)
O18_8 O 0.1435(3) 0.4025(2) 0.7834(2)
O21_8 O 0.2715(3) 0.3805(3) 0.6789(3)
O24_8 O 0.1305(3) 0.5215(3) 0.8211(3)
O25_8 O 0.1789(3) 0.3805(3) 0.7715(3)
O28_8 O 0.3401(4) 0.4415(3) 0.7659(3)
O29_8 O 0.3085(3) 0.4099(4) 0.7659(3)
O30_8 O 0.1599(4) 0.5585(3) 0.7341(3)
O34_8 O 0.33872(17) 0.23863(19) 0.64428(19)
O35_8 O 0.26137(19) 0.39428(19) 0.58872(17)
O36_8 O 0.16128(17) 0.39428(19) 0.48863(19)
O37_8 O 0.23863(19) 0.14428(19) 0.83872(17)
O38_8 O 0.33872(17) 0.14428(19) 0.73863(19)
O39_8 O 0.14428(19) 0.33872(17) 0.73863(19)
O40_8 O 0.08872(17) 0.39428(19) 0.76137(19)
O43_8 O 0.34459(19) 0.27597(17) 0.62349(18)
O44_8 O 0.22403(17) 0.37349(18) 0.59459(19)
O45_8 O 0.15541(19) 0.37349(18) 0.52597(17)
O46_8 O 0.27597(17) 0.12349(18) 0.84459(19)
O47_8 O 0.34459(19) 0.12349(18) 0.77597(17)
O48_8 O 0.12349(18) 0.34459(19) 0.77597(17)
O49_8 O 0.09459(19) 0.37349(18) 0.72403(17)
O52_8 O 0.21556(17) 0.24678(17) 0.67211(17)
O53_8 O 0.25322(17) 0.42211(17) 0.46556(17)
O54_8 O 0.28444(17) 0.42211(17) 0.49678(17)
O55_8 O 0.24678(17) 0.17211(17) 0.71556(17)
O56_8 O 0.21556(17) 0.17211(17) 0.74678(17)
O57_8 O 0.17211(17) 0.24678(17) 0.71556(17)
O58_8 O 0.25322(17) 0.46556(17) 0.42211(17)
O59_8 O 0.30496(17) 0.44504(17) 0.44504(17)
O60_8 O 0.18016(17) 0.13798(15) 0.71065(18)
O61_8 O 0.18016(17) 0.03935(18) 0.61202(15)
O62_8 O 0.21065(18) 0.06984(17) 0.61202(15)
O63_8 O 0.11202(15) 0.06984(17) 0.71065(18)
O64_8 O 0.11202(15) 0.03935(18) 0.68016(17)
O66_8 O 0.13798(15) 0.21065(18) 0.68016(17)
O68_8 O 0.28935(18) 0.43016(17) 0.38798(15)
O69_8 O 0.28935(18) 0.38798(15) 0.43016(17)
C17_8 C 0.2853(4) 0.3973(3) 0.6670(5)
C18_8 C 0.3527(3) 0.4647(4) 0.6670(5)
C19_8 C 0.2147(4) 0.6027(3) 0.8330(5)
C20_8 C 0.1473(3) 0.5353(4) 0.8330(5)
C21_8 C 0.3207(4) 0.4293(4) 0.6696(5)
C22_8 C 0.1793(4) 0.5707(4) 0.8304(5)
C24_8 C 0.3034(3) 0.4130(3) 0.6836(4)
C25_8 C 0.3370(3) 0.4466(3) 0.6836(4)
C26_8 C 0.1966(3) 0.5870(3) 0.8164(4)
C27_8 C 0.1630(3) 0.5534(3) 0.8164(4)
C29_8 C 0.3058(4) 0.4121(3) 0.7113(3)
C30_8 C 0.3379(3) 0.4442(4) 0.7113(3)
C31_8 C 0.1942(4) 0.5879(3) 0.7887(3)
C32_8 C 0.1621(3) 0.5558(4) 0.7887(3)
C33_8 C 0.3226(4) 0.4274(4) 0.7251(6)
C34_8 C 0.1774(4) 0.5726(4) 0.7749(6)
C35_8 C 0.3206(5) 0.4294(5) 0.7531(5)
C36_8 C 0.1794(5) 0.5706(5) 0.7469(5)
C37_8 C 0.3299(3) 0.2602(3) 0.6353(3)
C38_8 C 0.2398(3) 0.3853(3) 0.5799(3)
C39_8 C 0.1701(3) 0.3853(3) 0.5102(3)
C40_8 C 0.2602(3) 0.1353(3) 0.8299(3)
C41_8 C 0.3299(3) 0.1353(3) 0.7602(3)
C42_8 C 0.2068(2) 0.3858(4) 0.5432(2)
C43_8 C 0.2932(2) 0.1358(4) 0.7932(2)
C44_8 C 0.3014(2) 0.2682(2) 0.6399(2)
C45_8 C 0.2318(2) 0.3899(2) 0.5514(2)
C46_8 C 0.1986(2) 0.3899(2) 0.5182(2)
C47_8 C 0.2682(2) 0.1399(2) 0.8014(2)
C48_8 C 0.3014(2) 0.1399(2) 0.7682(2)
C49_8 C 0.2838(2) 0.2499(2) 0.6519(2)
C50_8 C 0.2501(2) 0.4019(2) 0.5338(2)
C51_8 C 0.2162(2) 0.4019(2) 0.4999(2)
C52_8 C 0.2499(2) 0.1519(2) 0.7838(2)
C53_8 C 0.2838(2) 0.1519(2) 0.7499(2)
C54_8 C 0.2412(2) 0.4071(3) 0.5088(2)
C55_8 C 0.2588(2) 0.1571(3) 0.7588(2)
C56_8 C 0.2614(2) 0.4195(3) 0.4886(2)
C57_8 C 0.2386(2) 0.1695(3) 0.7386(2)
C58_8 C 0.1913(2) 0.0587(2) 0.6216(3)
C59_8 C 0.1216(3) 0.0587(2) 0.6913(2)
C60_8 C 0.1809(2) 0.0691(2) 0.6460(3)
C61_8 C 0.1460(3) 0.0691(2) 0.6809(2)
C62_8 C 0.1573(2) 0.0589(3) 0.6573(2)
C63_8 C 0.1573(2) 0.0927(2) 0.6911(3)
O71_8 O 0.16042(14) 0.2661(2) 0.66042(14)
O72_8 O 0.2339(2) 0.41042(14) 0.41042(14)
O74_8 O 0.3929(6) 0.4578(4) 0.7922(4)
O75_8 O 0.1222(3) 0.5897(3) 0.7009(3)
O78_8 O 0.3778(3) 0.4103(3) 0.7991(3)
O79_8 O 0.3778(3) 0.4509(3) 0.8397(3)
H2_8 H 0.229816 0.289898 0.656713
H4_8 H 0.307594 0.307594 0.628775
H5_8 H 0.207486 0.10258 0.64742
H12_8 H 0.351741 0.456624 0.722153
H14_8 H 0.293376 0.398259 0.722153
H15_8 H 0.321468 0.428532 0.648093
H16_8 H 0.148259 0.543376 0.777847
H17_8 H 0.206624 0.601741 0.777847
H18_8 H 0.178532 0.571468 0.851907
H19_8 H 0.229816 0.156713 0.789898
H20_8 H 0.14742 0.10258 0.707486
H21_8 H 0.289898 0.156713 0.729816
H24_8 H 0.210102 0.406713 0.479816
H25_8 H 0.14742 0.0425141 0.64742
H26_8 H 0.289898 0.229816 0.656713
H35_8 H 0.307594 0.128775 0.807594
H40_8 H 0.192406 0.378775 0.557594
H41_8 H 0.270184 0.406713 0.539898
O4_9 O 0.10572(19) 0.01137(19) 0.83872(17)
O6_9 O 0.07789(17) 0.00322(17) 0.71556(17)
O7_9 O 0.05496(17) 0.05496(17) 0.69504(17)
O8_9 O 0.06984(17) 0.03935(18) 0.63798(15)
C10_9 C 0.0981(2) 0.0001(2) 0.7838(2)
C12_9 C 0.0805(3) 0.0114(2) 0.7386(2)
C13_9 C 0.0587(2) 0.0587(2) 0.6284(3)
C14_9 C 0.0691(2) 0.0691(2) 0.6040(3)
C15_9 C 0.0927(2) 0.0589(3) 0.5927(2)
In13_9 In 0.02235(2) 0.072103(15) 0.677897(15)
O36_9 O 0.26137(19) 0.08872(17) 0.89428(19)
O44_9 O 0.15541(19) 0.02597(17) 0.87349(18)
O45_9 O 0.22403(17) 0.09459(19) 0.87349(18)
O52_9 O 0.07789(17) 0.03444(17) 0.74678(17)
O55_9 O 0.03444(17) 0.00322(17) 0.67211(17)
O56_9 O 0.00322(17) 0.03444(17) 0.67211(17)
O57_9 O 0.03444(17) 0.07789(17) 0.74678(17)
O60_9 O 0.03935(18) 0.06984(17) 0.63798(15)
O61_9 O 0.13798(15) 0.06984(17) 0.53935(18)
O62_9 O 0.13798(15) 0.03935(18) 0.56984(17)
O66_9 O 0.06984(17) 0.11202(15) 0.71065(18)
C38_9 C 0.1701(3) 0.0102(3) 0.8853(3)
C39_9 C 0.2398(3) 0.0799(3) 0.8853(3)
C42_9 C 0.2068(2) 0.0432(2) 0.8858(4)
C45_9 C 0.1986(2) 0.0182(2) 0.8899(2)
C46_9 C 0.2318(2) 0.0514(2) 0.8899(2)
C51_9 C 0.2501(2) 0.0338(2) 0.9019(2)
C54_9 C 0.2412(2) 0.0088(2) 0.9071(3)
C57_9 C 0.0114(2) 0.0114(2) 0.6695(3)
C58_9 C 0.1284(3) 0.0587(2) 0.5587(2)
C59_9 C 0.0587(2) 0.1284(3) 0.5587(2)
C60_9 C 0.1040(3) 0.0691(2) 0.5691(2)
C61_9 C 0.0691(2) 0.1040(3) 0.5691(2)
C62_9 C 0.0927(2) 0.0927(2) 0.5589(3)
C63_9 C 0.0589(3) 0.0927(2) 0.5927(2)
O71_9 O 0.08958(14) 0.08958(14) 0.7661(2)
O72_9 O 0.33958(14) 0.0161(2) 0.91042(14)
H2_9 H 0.0932875 0.020184 0.789898
H5_9 H 0.10258 0.0425141 0.60258
H20_9 H 0.0425141 0.10258 0.60258
H24_9 H 0.270184 0.039898 0.906713
H25_9 H 0.10258 0.10258 0.542514
H40_9 H 0.192406 0.0575937 0.878775
O5_9 O 0.12651(18) 0.97403(17) 0.84459(19)
C7_9 C 0.1147(3) 0.9898(3) 0.8299(3)
C8_9 C 0.1142(4) 0.9568(2) 0.7932(2)
C9_9 C 0.1101(2) 0.9818(2) 0.8014(2)
C11_9 C 0.0929(3) 0.9912(2) 0.7588(2)
O10_9 O 0.08958(14) 0.9839(2) 0.66042(14)
In5_11 In 0.12028(2) 0.87028(2) 0.7500
In8_11 In -0.0000 0.87028(2) 0.62972(2)
In12_9 In 0.322103(15) 0.97765(2) 0.927897(15)
In18_9 In 0.27235(2) 0.927897(15) 0.927897(15)
O14_9 O 0.1065(3) 0.9666(2) 0.9025(2)
O21_9 O 0.0711(3) 0.9785(3) 0.8805(3)
O34_9 O 0.10572(19) 0.91128(17) 0.73863(19)
O35_9 O 0.16128(17) 0.98863(19) 0.89428(19)
O38_9 O 0.01137(19) 0.91128(17) 0.64428(19)
O43_9 O 0.12651(18) 0.90541(19) 0.77597(17)
O53_9 O 0.28444(17) 0.99678(17) 0.92211(17)
O54_9 O 0.25322(17) 0.96556(17) 0.92211(17)
O58_9 O 0.32789(17) 0.99678(17) 0.96556(17)
O59_9 O 0.30496(17) 0.94504(17) 0.94504(17)
O68_9 O 0.36202(15) 0.96065(18) 0.93016(17)
O69_9 O 0.31984(17) 0.96065(18) 0.88798(15)
C17_9 C 0.0830(5) 0.9647(4) 0.8973(3)
C18_9 C 0.0830(5) 0.8973(3) 0.9647(4)
C21_9 C 0.0804(5) 0.9293(4) 0.9293(4)
C24_9 C 0.0664(4) 0.9466(3) 0.9130(3)
C25_9 C 0.0664(4) 0.9130(3) 0.9466(3)
C29_9 C 0.0387(3) 0.9442(4) 0.9121(3)
C30_9 C 0.0387(3) 0.9121(3) 0.9442(4)
C33_9 C 0.0249(6) 0.9274(4) 0.9274(4)
C37_9 C 0.1147(3) 0.9201(3) 0.7602(3)
C44_9 C 0.1101(2) 0.9486(2) 0.7682(2)
C49_9 C 0.0981(2) 0.9662(2) 0.7499(2)
C50_9 C 0.2162(2) 0.9999(2) 0.9019(2)
C53_9 C 0.0001(2) 0.9662(2) 0.6519(2)
C56_9 C 0.2614(2) 0.9886(2) 0.9195(3)
H4_9 H 0.121225 0.942406 0.807594
H12_9 H 0.0278468 0.898259 0.956624
H14_9 H 0.0278468 0.956624 0.898259
H15_9 H 0.101907 0.928532 0.928532
H21_9 H 0.020184 0.960102 0.656713
H26_9 H 0.0932875 0.960102 0.729816
H41_9 H 0.210102 0.979816 0.906713
O37_9 O 0.91128(17) 0.01137(19) 0.64428(19)
C52_9 C 0.9662(2) 0.0001(2) 0.6519(2)
H19_9 H 0.960102 0.020184 0.656713
In8_12 In 1.0000 0.87028(2) 0.62972(2)
O28_9 O 0.9841(3) 0.9099(4) 0.9415(3)
O46_9 O 0.90541(19) 0.97403(17) 0.62349(18)
O47_9 O 0.97403(17) 0.90541(19) 0.62349(18)
C35_9 C 0.9969(5) 0.9294(5) 0.9294(5)
C40_9 C 0.9201(3) 0.9898(3) 0.6353(3)
C41_9 C 0.9898(3) 0.9201(3) 0.6353(3)
C43_9 C 0.9568(2) 0.9568(2) 0.6358(4)
C47_9 C 0.9486(2) 0.9818(2) 0.6399(2)
C48_9 C 0.9818(2) 0.9486(2) 0.6399(2)
C55_9 C 0.9912(2) 0.9912(2) 0.6571(3)
O74_9 O 0.9578(4) 0.8571(6) 0.9578(4)
O78_9 O 0.9509(3) 0.8722(3) 0.9103(3)
O79_9 O 0.9103(3) 0.8722(3) 0.9509(3)
H35_9 H 0.942406 0.942406 0.628775
O6_10 O 0.17211(17) 0.50322(17) 0.03444(17)
O7_10 O 0.19504(17) 0.55496(17) 0.05496(17)
O8_10 O 0.18016(17) 0.53935(18) 0.11202(15)
C12_10 C 0.1695(3) 0.5114(2) 0.0114(2)
C13_10 C 0.1913(2) 0.5587(2) 0.1216(3)
C14_10 C 0.1809(2) 0.5691(2) 0.1460(3)
C15_10 C 0.1573(2) 0.5589(3) 0.1573(2)
O10_10 O 0.16042(14) 0.4839(2) 0.08958(14)
In5_12 In 0.12972(2) 0.37028(2) -0.0000
In8_13 In 0.2500 0.37028(2) 0.12028(2)
In13_10 In 0.22765(2) 0.572103(15) 0.072103(15)
O34_10 O 0.14428(19) 0.41128(17) 0.01137(19)
O37_10 O 0.33872(17) 0.51137(19) 0.10572(19)
O38_10 O 0.23863(19) 0.41128(17) 0.10572(19)
O46_10 O 0.34459(19) 0.47403(17) 0.12651(18)
O47_10 O 0.27597(17) 0.40541(19) 0.12651(18)
O52_10 O 0.17211(17) 0.53444(17) 0.00322(17)
O55_10 O 0.21556(17) 0.50322(17) 0.07789(17)
O56_10 O 0.24678(17) 0.53444(17) 0.07789(17)
O57_10 O 0.21556(17) 0.57789(17) 0.00322(17)
O60_10 O 0.21065(18) 0.56984(17) 0.11202(15)
O61_10 O 0.11202(15) 0.56984(17) 0.21065(18)
O62_10 O 0.11202(15) 0.53935(18) 0.18016(17)
O66_10 O 0.18016(17) 0.61202(15) 0.03935(18)
C40_10 C 0.3299(3) 0.4898(3) 0.1147(3)
C41_10 C 0.2602(3) 0.4201(3) 0.1147(3)
C43_10 C 0.2932(2) 0.4568(2) 0.1142(4)
C47_10 C 0.3014(2) 0.4818(2) 0.1101(2)
C48_10 C 0.2682(2) 0.4486(2) 0.1101(2)
C49_10 C 0.1519(2) 0.4662(2) 0.0001(2)
C52_10 C 0.2838(2) 0.5001(2) 0.0981(2)
C53_10 C 0.2499(2) 0.4662(2) 0.0981(2)
C55_10 C 0.2588(2) 0.4912(2) 0.0929(3)
C57_10 C 0.2386(2) 0.5114(2) 0.0805(3)
C58_10 C 0.1216(3) 0.5587(2) 0.1913(2)
C59_10 C 0.1913(2) 0.6284(3) 0.1913(2)
C60_10 C 0.1460(3) 0.5691(2) 0.1809(2)
C61_10 C 0.1809(2) 0.6040(3) 0.1809(2)
C62_10 C 0.1573(2) 0.5927(2) 0.1911(3)
C63_10 C 0.1911(3) 0.5927(2) 0.1573(2)
H5_10 H 0.14742 0.542514 0.14742
H19_10 H 0.289898 0.520184 0.0932875
H20_10 H 0.207486 0.60258 0.14742
H21_10 H 0.229816 0.460102 0.0932875
H25_10 H 0.14742 0.60258 0.207486
H26_10 H 0.156713 0.460102 0.020184
H35_10 H 0.307594 0.442406 0.121225
O4_10 O 0.14428(19) 0.51137(19) 0.91128(17)
O5_10 O 0.12349(18) 0.47403(17) 0.90541(19)
C7_10 C 0.1353(3) 0.4898(3) 0.9201(3)
C8_10 C 0.1358(4) 0.4568(2) 0.9568(2)
C9_10 C 0.1399(2) 0.4818(2) 0.9486(2)
C10_10 C 0.1519(2) 0.5001(2) 0.9662(2)
C11_10 C 0.1571(3) 0.4912(2) 0.9912(2)
In5_13 In 0.12972(2) 0.37028(2) 1.0000
O14_10 O 0.1435(3) 0.4666(2) 0.8475(2)
O21_10 O 0.1789(3) 0.4785(3) 0.8695(3)
O28_10 O 0.2659(3) 0.4099(4) 0.8085(3)
O35_10 O 0.08872(17) 0.48863(19) 0.85572(19)
O43_10 O 0.12349(18) 0.40541(19) 0.97403(17)
O44_10 O 0.09459(19) 0.52597(17) 0.87651(18)
O45_10 O 0.02597(17) 0.59459(19) 0.87651(18)
C17_10 C 0.1670(5) 0.4647(4) 0.8527(3)
C18_10 C 0.1670(5) 0.3973(3) 0.7853(4)
C21_10 C 0.1696(5) 0.4293(4) 0.8207(4)
C24_10 C 0.1836(4) 0.4466(3) 0.8370(3)
C25_10 C 0.1836(4) 0.4130(3) 0.8034(3)
C29_10 C 0.2113(3) 0.4442(4) 0.8379(3)
C30_10 C 0.2113(3) 0.4121(3) 0.8058(4)
C33_10 C 0.2251(6) 0.4274(4) 0.8226(4)
C35_10 C 0.2531(5) 0.4294(5) 0.8206(5)
C37_10 C 0.1353(3) 0.4201(3) 0.9898(3)
C38_10 C 0.0799(3) 0.5102(3) 0.8647(3)
C39_10 C 0.0102(3) 0.5799(3) 0.8647(3)
C42_10 C 0.0432(2) 0.5432(2) 0.8642(4)
C44_10 C 0.1399(2) 0.4486(2) 0.9818(2)
C45_10 C 0.0514(2) 0.5182(2) 0.8601(2)
C46_10 C 0.0182(2) 0.5514(2) 0.8601(2)
C50_10 C 0.0338(2) 0.4999(2) 0.8481(2)
C54_10 C 0.0088(2) 0.5088(2) 0.8429(3)
O71_10 O 0.16042(14) 0.58958(14) 0.9839(2)
O74_10 O 0.2922(4) 0.3571(6) 0.7922(4)
O78_10 O 0.2991(3) 0.3722(3) 0.8397(3)
O79_10 O 0.3397(3) 0.3722(3) 0.7991(3)
H2_10 H 0.156713 0.520184 0.960102
H4_10 H 0.128775 0.442406 0.942406
H12_10 H 0.222153 0.398259 0.793376
H14_10 H 0.222153 0.456624 0.851741
H15_10 H 0.148093 0.428532 0.821468
H40_10 H 0.0575937 0.557594 0.871225
H41_10 H 0.039898 0.479816 0.843287
In12_10 In 0.927897(15) 0.47765(2) 0.822103(15)
In18_10 In 0.97765(2) 0.427897(15) 0.822103(15)
O36_10 O 0.98863(19) 0.58872(17) 0.85572(19)
O53_10 O 0.96556(17) 0.49678(17) 0.82789(17)
O54_10 O 0.99678(17) 0.46556(17) 0.82789(17)
O58_10 O 0.92211(17) 0.49678(17) 0.78444(17)
O59_10 O 0.94504(17) 0.44504(17) 0.80496(17)
O68_10 O 0.88798(15) 0.46065(18) 0.81984(17)
O69_10 O 0.93016(17) 0.46065(18) 0.86202(15)
C51_10 C 0.9999(2) 0.5338(2) 0.8481(2)
C56_10 C 0.9886(2) 0.4886(2) 0.8305(3)
O72_10 O 0.91042(14) 0.5161(2) 0.83958(14)
H24_10 H 0.979816 0.539898 0.843287
O4_11 O 0.60572(19) 0.73863(19) 0.41128(17)
O5_11 O 0.62651(18) 0.77597(17) 0.40541(19)
O6_11 O 0.57789(17) 0.74678(17) 0.53444(17)
O7_11 O 0.55496(17) 0.69504(17) 0.55496(17)
O8_11 O 0.56984(17) 0.71065(18) 0.61202(15)
C7_11 C 0.6147(3) 0.7602(3) 0.4201(3)
C8_11 C 0.6142(4) 0.7932(2) 0.4568(2)
C9_11 C 0.6101(2) 0.7682(2) 0.4486(2)
C10_11 C 0.5981(2) 0.7499(2) 0.4662(2)
C11_11 C 0.5929(3) 0.7588(2) 0.4912(2)
C12_11 C 0.5805(3) 0.7386(2) 0.5114(2)
C13_11 C 0.5587(2) 0.6913(2) 0.6216(3)
C14_11 C 0.5691(2) 0.6809(2) 0.6460(3)
C15_11 C 0.5927(2) 0.6911(3) 0.6573(2)
O10_11 O 0.58958(14) 0.7661(2) 0.58958(14)
In5_14 In 0.62028(2) 0.87972(2) 0.5000
In8_14 In 0.5000 0.87972(2) 0.62028(2)
In12_11 In 0.822103(15) 0.77235(2) 0.322103(15)
In13_11 In 0.52235(2) 0.677897(15) 0.572103(15)
In18_11 In 0.77235(2) 0.822103(15) 0.322103(15)
O14_11 O 0.6065(3) 0.7834(2) 0.3475(2)
O21_11 O 0.5711(3) 0.7715(3) 0.3695(3)
O28_11 O 0.4841(3) 0.8401(4) 0.3085(3)
O34_11 O 0.60572(19) 0.83872(17) 0.51137(19)
O35_11 O 0.66128(17) 0.76137(19) 0.35572(19)
O36_11 O 0.76137(19) 0.66128(17) 0.35572(19)
O37_11 O 0.41128(17) 0.73863(19) 0.60572(19)
O38_11 O 0.51137(19) 0.83872(17) 0.60572(19)
O43_11 O 0.62651(18) 0.84459(19) 0.47403(17)
O44_11 O 0.65541(19) 0.72403(17) 0.37651(18)
O45_11 O 0.72403(17) 0.65541(19) 0.37651(18)
O46_11 O 0.40541(19) 0.77597(17) 0.62651(18)
O47_11 O 0.47403(17) 0.84459(19) 0.62651(18)
O52_11 O 0.57789(17) 0.71556(17) 0.50322(17)
O53_11 O 0.78444(17) 0.75322(17) 0.32789(17)
O54_11 O 0.75322(17) 0.78444(17) 0.32789(17)
O55_11 O 0.53444(17) 0.74678(17) 0.57789(17)
O56_11 O 0.50322(17) 0.71556(17) 0.57789(17)
O57_11 O 0.53444(17) 0.67211(17) 0.50322(17)
O58_11 O 0.82789(17) 0.75322(17) 0.28444(17)
O59_11 O 0.80496(17) 0.80496(17) 0.30496(17)
O60_11 O 0.53935(18) 0.68016(17) 0.61202(15)
O61_11 O 0.63798(15) 0.68016(17) 0.71065(18)
O62_11 O 0.63798(15) 0.71065(18) 0.68016(17)
O66_11 O 0.56984(17) 0.63798(15) 0.53935(18)
O68_11 O 0.86202(15) 0.78935(18) 0.31984(17)
O69_11 O 0.81984(17) 0.78935(18) 0.36202(15)
C17_11 C 0.5830(5) 0.7853(4) 0.3527(3)
C18_11 C 0.5830(5) 0.8527(3) 0.2853(4)
C21_11 C 0.5804(5) 0.8207(4) 0.3207(4)
C24_11 C 0.5664(4) 0.8034(3) 0.3370(3)
C25_11 C 0.5664(4) 0.8370(3) 0.3034(3)
C29_11 C 0.5387(3) 0.8058(4) 0.3379(3)
C30_11 C 0.5387(3) 0.8379(3) 0.3058(4)
C33_11 C 0.5249(6) 0.8226(4) 0.3226(4)
C35_11 C 0.4969(5) 0.8206(5) 0.3206(5)
C37_11 C 0.6147(3) 0.8299(3) 0.4898(3)
C38_11 C 0.6701(3) 0.7398(3) 0.3647(3)
C39_11 C 0.7398(3) 0.6701(3) 0.3647(3)
C40_11 C 0.4201(3) 0.7602(3) 0.6147(3)
C41_11 C 0.4898(3) 0.8299(3) 0.6147(3)
C42_11 C 0.7068(2) 0.7068(2) 0.3642(4)
C43_11 C 0.4568(2) 0.7932(2) 0.6142(4)
C44_11 C 0.6101(2) 0.8014(2) 0.4818(2)
C45_11 C 0.6986(2) 0.7318(2) 0.3601(2)
C46_11 C 0.7318(2) 0.6986(2) 0.3601(2)
C47_11 C 0.4486(2) 0.7682(2) 0.6101(2)
C48_11 C 0.4818(2) 0.8014(2) 0.6101(2)
C49_11 C 0.5981(2) 0.7838(2) 0.5001(2)
C50_11 C 0.7162(2) 0.7501(2) 0.3481(2)
C51_11 C 0.7501(2) 0.7162(2) 0.3481(2)
C52_11 C 0.4662(2) 0.7499(2) 0.5981(2)
C53_11 C 0.5001(2) 0.7838(2) 0.5981(2)
C54_11 C 0.7412(2) 0.7412(2) 0.3429(3)
C55_11 C 0.4912(2) 0.7588(2) 0.5929(3)
C56_11 C 0.7614(2) 0.7614(2) 0.3305(3)
C57_11 C 0.5114(2) 0.7386(2) 0.5805(3)
C58_11 C 0.6284(3) 0.6913(2) 0.6913(2)
C59_11 C 0.5587(2) 0.6216(3) 0.6913(2)
C60_11 C 0.6040(3) 0.6809(2) 0.6809(2)
C61_11 C 0.5691(2) 0.6460(3) 0.6809(2)
C62_11 C 0.5927(2) 0.6573(2) 0.6911(3)
C63_11 C 0.5589(3) 0.6573(2) 0.6573(2)
O71_11 O 0.58958(14) 0.66042(14) 0.4839(2)
O72_11 O 0.83958(14) 0.7339(2) 0.33958(14)
O74_11 O 0.4578(4) 0.8929(6) 0.2922(4)
O78_11 O 0.4509(3) 0.8778(3) 0.3397(3)
O79_11 O 0.4103(3) 0.8778(3) 0.2991(3)
H2_11 H 0.593287 0.729816 0.460102
H4_11 H 0.621225 0.807594 0.442406
H5_11 H 0.60258 0.707486 0.64742
H12_11 H 0.527847 0.851741 0.293376
H14_11 H 0.527847 0.793376 0.351741
H15_11 H 0.601907 0.821468 0.321468
H19_11 H 0.460102 0.729816 0.593287
H20_11 H 0.542514 0.64742 0.64742
H21_11 H 0.520184 0.789898 0.593287
H24_11 H 0.770184 0.710102 0.343287
H25_11 H 0.60258 0.64742 0.707486
H26_11 H 0.593287 0.789898 0.520184
H35_11 H 0.442406 0.807594 0.621225
H40_11 H 0.692406 0.692406 0.371225
H41_11 H 0.710102 0.770184 0.343287
O4_12 O 0.64428(19) 0.23863(19) 0.33872(17)
O5_12 O 0.62349(18) 0.27597(17) 0.34459(19)
O6_12 O 0.67211(17) 0.24678(17) 0.21556(17)
O7_12 O 0.69504(17) 0.19504(17) 0.19504(17)
O8_12 O 0.68016(17) 0.21065(18) 0.13798(15)
C7_12 C 0.6353(3) 0.2602(3) 0.3299(3)
C8_12 C 0.6358(4) 0.2932(2) 0.2932(2)
C9_12 C 0.6399(2) 0.2682(2) 0.3014(2)
C10_12 C 0.6519(2) 0.2499(2) 0.2838(2)
C11_12 C 0.6571(3) 0.2588(2) 0.2588(2)
C12_12 C 0.6695(3) 0.2386(2) 0.2386(2)
C13_12 C 0.6913(2) 0.1913(2) 0.1284(3)
C14_12 C 0.6809(2) 0.1809(2) 0.1040(3)
C15_12 C 0.6573(2) 0.1911(3) 0.0927(2)
O10_12 O 0.66042(14) 0.2661(2) 0.16042(14)
In5_15 In 0.62972(2) 0.37972(2) 0.2500
In8_15 In 0.7500 0.37972(2) 0.12972(2)
In12_12 In 0.427897(15) 0.27235(2) 0.427897(15)
In13_12 In 0.72765(2) 0.177897(15) 0.177897(15)
In18_12 In 0.47765(2) 0.322103(15) 0.427897(15)
O14_12 O 0.6435(3) 0.2834(2) 0.4025(2)
O21_12 O 0.6789(3) 0.2715(3) 0.3805(3)
O28_12 O 0.7659(3) 0.3401(4) 0.4415(3)
O34_12 O 0.64428(19) 0.33872(17) 0.23863(19)
O35_12 O 0.58872(17) 0.26137(19) 0.39428(19)
O36_12 O 0.48863(19) 0.16128(17) 0.39428(19)
O37_12 O 0.83872(17) 0.23863(19) 0.14428(19)
O38_12 O 0.73863(19) 0.33872(17) 0.14428(19)
O43_12 O 0.62349(18) 0.34459(19) 0.27597(17)
O44_12 O 0.59459(19) 0.22403(17) 0.37349(18)
O45_12 O 0.52597(17) 0.15541(19) 0.37349(18)
O46_12 O 0.84459(19) 0.27597(17) 0.12349(18)
O47_12 O 0.77597(17) 0.34459(19) 0.12349(18)
O52_12 O 0.67211(17) 0.21556(17) 0.24678(17)
O53_12 O 0.46556(17) 0.25322(17) 0.42211(17)
O54_12 O 0.49678(17) 0.28444(17) 0.42211(17)
O55_12 O 0.71556(17) 0.24678(17) 0.17211(17)
O56_12 O 0.74678(17) 0.21556(17) 0.17211(17)
O57_12 O 0.71556(17) 0.17211(17) 0.24678(17)
O58_12 O 0.42211(17) 0.25322(17) 0.46556(17)
O59_12 O 0.44504(17) 0.30496(17) 0.44504(17)
O60_12 O 0.71065(18) 0.18016(17) 0.13798(15)
O61_12 O 0.61202(15) 0.18016(17) 0.03935(18)
O62_12 O 0.61202(15) 0.21065(18) 0.06984(17)
O66_12 O 0.68016(17) 0.13798(15) 0.21065(18)
O68_12 O 0.38798(15) 0.28935(18) 0.43016(17)
O69_12 O 0.43016(17) 0.28935(18) 0.38798(15)
C17_12 C 0.6670(5) 0.2853(4) 0.3973(3)
C18_12 C 0.6670(5) 0.3527(3) 0.4647(4)
C21_12 C 0.6696(5) 0.3207(4) 0.4293(4)
C24_12 C 0.6836(4) 0.3034(3) 0.4130(3)
C25_12 C 0.6836(4) 0.3370(3) 0.4466(3)
C29_12 C 0.7113(3) 0.3058(4) 0.4121(3)
C30_12 C 0.7113(3) 0.3379(3) 0.4442(4)
C33_12 C 0.7251(6) 0.3226(4) 0.4274(4)
C35_12 C 0.7531(5) 0.3206(5) 0.4294(5)
C37_12 C 0.6353(3) 0.3299(3) 0.2602(3)
C38_12 C 0.5799(3) 0.2398(3) 0.3853(3)
C39_12 C 0.5102(3) 0.1701(3) 0.3853(3)
C40_12 C 0.8299(3) 0.2602(3) 0.1353(3)
C41_12 C 0.7602(3) 0.3299(3) 0.1353(3)
C42_12 C 0.5432(2) 0.2068(2) 0.3858(4)
C43_12 C 0.7932(2) 0.2932(2) 0.1358(4)
C44_12 C 0.6399(2) 0.3014(2) 0.2682(2)
C45_12 C 0.5514(2) 0.2318(2) 0.3899(2)
C46_12 C 0.5182(2) 0.1986(2) 0.3899(2)
C47_12 C 0.8014(2) 0.2682(2) 0.1399(2)
C48_12 C 0.7682(2) 0.3014(2) 0.1399(2)
C49_12 C 0.6519(2) 0.2838(2) 0.2499(2)
C50_12 C 0.5338(2) 0.2501(2) 0.4019(2)
C51_12 C 0.4999(2) 0.2162(2) 0.4019(2)
C52_12 C 0.7838(2) 0.2499(2) 0.1519(2)
C53_12 C 0.7499(2) 0.2838(2) 0.1519(2)
C54_12 C 0.5088(2) 0.2412(2) 0.4071(3)
C55_12 C 0.7588(2) 0.2588(2) 0.1571(3)
C56_12 C 0.4886(2) 0.2614(2) 0.4195(3)
C57_12 C 0.7386(2) 0.2386(2) 0.1695(3)
C58_12 C 0.6216(3) 0.1913(2) 0.0587(2)
C59_12 C 0.6913(2) 0.1216(3) 0.0587(2)
C60_12 C 0.6460(3) 0.1809(2) 0.0691(2)
C61_12 C 0.6809(2) 0.1460(3) 0.0691(2)
C62_12 C 0.6573(2) 0.1573(2) 0.0589(3)
C63_12 C 0.6911(3) 0.1573(2) 0.0927(2)
O71_12 O 0.66042(14) 0.16042(14) 0.2661(2)
O72_12 O 0.41042(14) 0.2339(2) 0.41042(14)
O74_12 O 0.7922(4) 0.3929(6) 0.4578(4)
O78_12 O 0.7991(3) 0.3778(3) 0.4103(3)
O79_12 O 0.8397(3) 0.3778(3) 0.4509(3)
H2_12 H 0.656713 0.229816 0.289898
H4_12 H 0.628775 0.307594 0.307594
H5_12 H 0.64742 0.207486 0.10258
H12_12 H 0.722153 0.351741 0.456624
H14_12 H 0.722153 0.293376 0.398259
H15_12 H 0.648093 0.321468 0.428532
H19_12 H 0.789898 0.229816 0.156713
H20_12 H 0.707486 0.14742 0.10258
H21_12 H 0.729816 0.289898 0.156713
H24_12 H 0.479816 0.210102 0.406713
H25_12 H 0.64742 0.14742 0.0425141
H26_12 H 0.656713 0.289898 0.229816
H35_12 H 0.807594 0.307594 0.128775
H40_12 H 0.557594 0.192406 0.378775
H41_12 H 0.539898 0.270184 0.406713
O71_13 O 0.83958(14) 0.0161(2) 0.41042(14)
C13_13 C 0.8087(2) 0.8784(3) 0.4413(2)
C14_13 C 0.8191(2) 0.8540(3) 0.4309(2)
C15_13 C 0.8427(2) 0.8427(2) 0.4411(3)
In8_16 In 0.7500 0.87972(2) 0.62972(2)
In13_13 In 0.77235(2) 0.927897(15) 0.427897(15)
In14_9 In 0.927897(15) 0.77235(2) 0.427897(15)
In15_5 In 0.927897(15) 0.822103(15) 0.47765(2)
O37_13 O 0.66128(17) 0.89428(19) 0.48863(19)
O38_13 O 0.76137(19) 0.89428(19) 0.58872(17)
O46_13 O 0.65541(19) 0.87349(18) 0.52597(17)
O47_13 O 0.72403(17) 0.87349(18) 0.59459(19)
O56_13 O 0.75322(17) 0.92211(17) 0.46556(17)
O57_13 O 0.78444(17) 0.99678(17) 0.42211(17)
O60_13 O 0.78935(18) 0.88798(15) 0.43016(17)
O61_13 O 0.88798(15) 0.78935(18) 0.43016(17)
O62_13 O 0.88798(15) 0.81984(17) 0.46065(18)
O63_9 O 0.78935(18) 0.81984(17) 0.36202(15)
O66_13 O 0.81984(17) 0.96065(18) 0.38798(15)
O67_5 O 0.86202(15) 0.96065(18) 0.43016(17)
C40_13 C 0.6701(3) 0.8853(3) 0.5102(3)
C41_13 C 0.7398(3) 0.8853(3) 0.5799(3)
C43_13 C 0.7068(2) 0.8858(4) 0.5432(2)
C47_13 C 0.6986(2) 0.8899(2) 0.5182(2)
C48_13 C 0.7318(2) 0.8899(2) 0.5514(2)
C52_13 C 0.7162(2) 0.9019(2) 0.4999(2)
C53_13 C 0.7501(2) 0.9019(2) 0.5338(2)
C55_13 C 0.7412(2) 0.9071(3) 0.5088(2)
C57_13 C 0.7614(2) 0.9195(3) 0.4886(2)
C58_13 C 0.8784(3) 0.8087(2) 0.4413(2)
C59_13 C 0.8087(2) 0.8087(2) 0.3716(3)
C60_13 C 0.8540(3) 0.8191(2) 0.4309(2)
C61_13 C 0.8191(2) 0.8191(2) 0.3960(3)
C62_13 C 0.8427(2) 0.8089(3) 0.4073(2)
C63_13 C 0.8089(3) 0.8427(2) 0.4073(2)
H5_13 H 0.85258 0.85258 0.457486
H19_13 H 0.710102 0.906713 0.479816
H20_13 H 0.792514 0.85258 0.39742
H21_13 H 0.770184 0.906713 0.539898
H25_13 H 0.85258 0.792514 0.39742
H35_13 H 0.692406 0.878775 0.557594
In8_17 In -0.0000 0.37028(2) 0.12972(2)
O46_14 O 0.09459(19) 0.37651(18) 0.02597(17)
O47_14 O 0.02597(17) 0.37651(18) 0.09459(19)
C40_14 C 0.0799(3) 0.3647(3) 0.0102(3)
C41_14 C 0.0102(3) 0.3647(3) 0.0799(3)
C43_14 C 0.0432(2) 0.3642(4) 0.0432(2)
C47_14 C 0.0514(2) 0.3601(2) 0.0182(2)
C48_14 C 0.0182(2) 0.3601(2) 0.0514(2)
C55_14 C 0.0088(2) 0.3429(3) 0.0088(2)
H35_14 H 0.0575937 0.371225 0.0575937
O37_14 O 0.08872(17) 0.35572(19) 0.98863(19)
C52_14 C 0.0338(2) 0.3481(2) 0.9999(2)
H19_14 H 0.039898 0.343287 0.979816
In8_18 In 1.0000 0.37028(2) 0.12972(2)
O38_14 O 0.98863(19) 0.35572(19) 0.08872(17)
C53_14 C 0.9999(2) 0.3481(2) 0.0338(2)
H21_14 H 0.979816 0.343287 0.039898
C13_14 C 0.9413(2) 0.3716(3) 0.9413(2)
C14_14 C 0.9309(2) 0.3960(3) 0.9309(2)
C15_14 C 0.9073(2) 0.4073(2) 0.9411(3)
In13_14 In 0.97765(2) 0.322103(15) 0.927897(15)
In14_10 In 0.822103(15) 0.47765(2) 0.927897(15)
In15_6 In 0.822103(15) 0.427897(15) 0.97765(2)
O56_14 O 0.99678(17) 0.32789(17) 0.96556(17)
O57_14 O 0.96556(17) 0.25322(17) 0.92211(17)
O60_14 O 0.96065(18) 0.36202(15) 0.93016(17)
O61_14 O 0.86202(15) 0.46065(18) 0.93016(17)
O62_14 O 0.86202(15) 0.43016(17) 0.96065(18)
O63_10 O 0.96065(18) 0.43016(17) 0.86202(15)
O66_14 O 0.93016(17) 0.28935(18) 0.88798(15)
O67_6 O 0.88798(15) 0.28935(18) 0.93016(17)
C57_14 C 0.9886(2) 0.3305(3) 0.9886(2)
C58_14 C 0.8716(3) 0.4413(2) 0.9413(2)
C59_14 C 0.9413(2) 0.4413(2) 0.8716(3)
C60_14 C 0.8960(3) 0.4309(2) 0.9309(2)
C61_14 C 0.9309(2) 0.4309(2) 0.8960(3)
C62_14 C 0.9073(2) 0.4411(3) 0.9073(2)
C63_14 C 0.9411(3) 0.4073(2) 0.9073(2)
O71_14 O 0.91042(14) 0.2339(2) 0.91042(14)
H5_14 H 0.89742 0.39742 0.957486
H20_14 H 0.957486 0.39742 0.89742
H25_14 H 0.89742 0.457486 0.89742
C13_15 C 0.3087(2) 0.8716(3) 0.8087(2)
C14_15 C 0.3191(2) 0.8960(3) 0.8191(2)
C15_15 C 0.3427(2) 0.9073(2) 0.8089(3)
In8_19 In 0.2500 0.87028(2) 0.62028(2)
In13_15 In 0.27235(2) 0.822103(15) 0.822103(15)
In14_11 In 0.427897(15) 0.97765(2) 0.822103(15)
In15_7 In 0.427897(15) 0.927897(15) 0.77235(2)
O37_15 O 0.16128(17) 0.85572(19) 0.76137(19)
O38_15 O 0.26137(19) 0.85572(19) 0.66128(17)
O46_15 O 0.15541(19) 0.87651(18) 0.72403(17)
O47_15 O 0.22403(17) 0.87651(18) 0.65541(19)
O56_15 O 0.25322(17) 0.82789(17) 0.78444(17)
O57_15 O 0.28444(17) 0.75322(17) 0.82789(17)
O60_15 O 0.28935(18) 0.86202(15) 0.81984(17)
O61_15 O 0.38798(15) 0.96065(18) 0.81984(17)
O62_15 O 0.38798(15) 0.93016(17) 0.78935(18)
O63_11 O 0.28935(18) 0.93016(17) 0.88798(15)
O66_15 O 0.31984(17) 0.78935(18) 0.86202(15)
O67_7 O 0.36202(15) 0.78935(18) 0.81984(17)
C40_15 C 0.1701(3) 0.8647(3) 0.7398(3)
C41_15 C 0.2398(3) 0.8647(3) 0.6701(3)
C43_15 C 0.2068(2) 0.8642(4) 0.7068(2)
C47_15 C 0.1986(2) 0.8601(2) 0.7318(2)
C48_15 C 0.2318(2) 0.8601(2) 0.6986(2)
C52_15 C 0.2162(2) 0.8481(2) 0.7501(2)
C53_15 C 0.2501(2) 0.8481(2) 0.7162(2)
C55_15 C 0.2412(2) 0.8429(3) 0.7412(2)
C57_15 C 0.2614(2) 0.8305(3) 0.7614(2)
C58_15 C 0.3784(3) 0.9413(2) 0.8087(2)
C59_15 C 0.3087(2) 0.9413(2) 0.8784(3)
C60_15 C 0.3540(3) 0.9309(2) 0.8191(2)
C61_15 C 0.3191(2) 0.9309(2) 0.8540(3)
C62_15 C 0.3427(2) 0.9411(3) 0.8427(2)
C63_15 C 0.3089(3) 0.9073(2) 0.8427(2)
O71_15 O 0.33958(14) 0.7339(2) 0.83958(14)
H5_15 H 0.35258 0.89742 0.792514
H19_15 H 0.210102 0.843287 0.770184
H20_15 H 0.292514 0.89742 0.85258
H21_15 H 0.270184 0.843287 0.710102
H25_15 H 0.35258 0.957486 0.85258
H35_15 H 0.192406 0.871225 0.692406
C13_16 C 0.4413(2) 0.3784(3) 0.3087(2)
C14_16 C 0.4309(2) 0.3540(3) 0.3191(2)
C15_16 C 0.4073(2) 0.3427(2) 0.3089(3)
In8_20 In 0.5000 0.37972(2) 0.12028(2)
In13_16 In 0.47765(2) 0.427897(15) 0.322103(15)
In14_12 In 0.322103(15) 0.27235(2) 0.322103(15)
In15_8 In 0.322103(15) 0.322103(15) 0.27235(2)
O37_16 O 0.58872(17) 0.39428(19) 0.26137(19)
O38_16 O 0.48863(19) 0.39428(19) 0.16128(17)
O46_16 O 0.59459(19) 0.37349(18) 0.22403(17)
O47_16 O 0.52597(17) 0.37349(18) 0.15541(19)
O56_16 O 0.49678(17) 0.42211(17) 0.28444(17)
O57_16 O 0.46556(17) 0.49678(17) 0.32789(17)
O60_16 O 0.46065(18) 0.38798(15) 0.31984(17)
O61_16 O 0.36202(15) 0.28935(18) 0.31984(17)
O62_16 O 0.36202(15) 0.31984(17) 0.28935(18)
O63_12 O 0.46065(18) 0.31984(17) 0.38798(15)
O66_16 O 0.43016(17) 0.46065(18) 0.36202(15)
O67_8 O 0.38798(15) 0.46065(18) 0.31984(17)
C40_16 C 0.5799(3) 0.3853(3) 0.2398(3)
C41_16 C 0.5102(3) 0.3853(3) 0.1701(3)
C43_16 C 0.5432(2) 0.3858(4) 0.2068(2)
C47_16 C 0.5514(2) 0.3899(2) 0.2318(2)
C48_16 C 0.5182(2) 0.3899(2) 0.1986(2)
C52_16 C 0.5338(2) 0.4019(2) 0.2501(2)
C53_16 C 0.4999(2) 0.4019(2) 0.2162(2)
C55_16 C 0.5088(2) 0.4071(3) 0.2412(2)
C57_16 C 0.4886(2) 0.4195(3) 0.2614(2)
C58_16 C 0.3716(3) 0.3087(2) 0.3087(2)
C59_16 C 0.4413(2) 0.3087(2) 0.3784(3)
C60_16 C 0.3960(3) 0.3191(2) 0.3191(2)
C61_16 C 0.4309(2) 0.3191(2) 0.3540(3)
C62_16 C 0.4073(2) 0.3089(3) 0.3427(2)
C63_16 C 0.4411(3) 0.3427(2) 0.3427(2)
O71_16 O 0.41042(14) 0.5161(2) 0.33958(14)
H5_16 H 0.39742 0.35258 0.292514
H19_16 H 0.539898 0.406713 0.270184
H20_16 H 0.457486 0.35258 0.35258
H21_16 H 0.479816 0.406713 0.210102
H25_16 H 0.39742 0.292514 0.35258
H35_16 H 0.557594 0.378775 0.192406
C13_17 C 0.3784(3) 0.3087(2) 0.4413(2)
C14_17 C 0.3540(3) 0.3191(2) 0.4309(2)
C15_17 C 0.3427(2) 0.3089(3) 0.4073(2)
In8_21 In 0.37972(2) 0.12028(2) 0.5000
In13_17 In 0.427897(15) 0.322103(15) 0.47765(2)
In14_13 In 0.27235(2) 0.322103(15) 0.322103(15)
O37_17 O 0.39428(19) 0.26137(19) 0.58872(17)
O38_17 O 0.39428(19) 0.16128(17) 0.48863(19)
O46_17 O 0.37349(18) 0.22403(17) 0.59459(19)
O47_17 O 0.37349(18) 0.15541(19) 0.52597(17)
O56_17 O 0.42211(17) 0.28444(17) 0.49678(17)
O57_17 O 0.49678(17) 0.32789(17) 0.46556(17)
O60_17 O 0.38798(15) 0.31984(17) 0.46065(18)
O61_17 O 0.28935(18) 0.31984(17) 0.36202(15)
O62_17 O 0.31984(17) 0.28935(18) 0.36202(15)
O63_13 O 0.31984(17) 0.38798(15) 0.46065(18)
O66_17 O 0.46065(18) 0.36202(15) 0.43016(17)
C40_17 C 0.3853(3) 0.2398(3) 0.5799(3)
C41_17 C 0.3853(3) 0.1701(3) 0.5102(3)
C43_17 C 0.3858(4) 0.2068(2) 0.5432(2)
C47_17 C 0.3899(2) 0.2318(2) 0.5514(2)
C48_17 C 0.3899(2) 0.1986(2) 0.5182(2)
C52_17 C 0.4019(2) 0.2501(2) 0.5338(2)
C53_17 C 0.4019(2) 0.2162(2) 0.4999(2)
C55_17 C 0.4071(3) 0.2412(2) 0.5088(2)
C57_17 C 0.4195(3) 0.2614(2) 0.4886(2)
C58_17 C 0.3087(2) 0.3087(2) 0.3716(3)
C59_17 C 0.3087(2) 0.3784(3) 0.4413(2)
C60_17 C 0.3191(2) 0.3191(2) 0.3960(3)
C61_17 C 0.3191(2) 0.3540(3) 0.4309(2)
C62_17 C 0.3089(3) 0.3427(2) 0.4073(2)
C63_17 C 0.3427(2) 0.3427(2) 0.4411(3)
O71_17 O 0.5161(2) 0.33958(14) 0.41042(14)
H5_17 H 0.35258 0.292514 0.39742
H19_17 H 0.406713 0.270184 0.539898
H20_17 H 0.35258 0.35258 0.457486
H21_17 H 0.406713 0.210102 0.479816
H25_17 H 0.292514 0.35258 0.39742
H35_17 H 0.378775 0.192406 0.557594
C13_18 C 0.8716(3) 0.8087(2) 0.3087(2)
C14_18 C 0.8960(3) 0.8191(2) 0.3191(2)
C15_18 C 0.9073(2) 0.8089(3) 0.3427(2)
In8_22 In 0.87028(2) 0.62028(2) 0.2500
In13_18 In 0.822103(15) 0.822103(15) 0.27235(2)
In14_14 In 0.97765(2) 0.822103(15) 0.427897(15)
O37_18 O 0.85572(19) 0.76137(19) 0.16128(17)
O38_18 O 0.85572(19) 0.66128(17) 0.26137(19)
O46_18 O 0.87651(18) 0.72403(17) 0.15541(19)
O47_18 O 0.87651(18) 0.65541(19) 0.22403(17)
O56_18 O 0.82789(17) 0.78444(17) 0.25322(17)
O57_18 O 0.75322(17) 0.82789(17) 0.28444(17)
O60_18 O 0.86202(15) 0.81984(17) 0.28935(18)
O61_18 O 0.96065(18) 0.81984(17) 0.38798(15)
O62_18 O 0.93016(17) 0.78935(18) 0.38798(15)
O63_14 O 0.93016(17) 0.88798(15) 0.28935(18)
O66_18 O 0.78935(18) 0.86202(15) 0.31984(17)
C40_18 C 0.8647(3) 0.7398(3) 0.1701(3)
C41_18 C 0.8647(3) 0.6701(3) 0.2398(3)
C43_18 C 0.8642(4) 0.7068(2) 0.2068(2)
C47_18 C 0.8601(2) 0.7318(2) 0.1986(2)
C48_18 C 0.8601(2) 0.6986(2) 0.2318(2)
C52_18 C 0.8481(2) 0.7501(2) 0.2162(2)
C53_18 C 0.8481(2) 0.7162(2) 0.2501(2)
C55_18 C 0.8429(3) 0.7412(2) 0.2412(2)
C57_18 C 0.8305(3) 0.7614(2) 0.2614(2)
C58_18 C 0.9413(2) 0.8087(2) 0.3784(3)
C59_18 C 0.9413(2) 0.8784(3) 0.3087(2)
C60_18 C 0.9309(2) 0.8191(2) 0.3540(3)
C61_18 C 0.9309(2) 0.8540(3) 0.3191(2)
C62_18 C 0.9411(3) 0.8427(2) 0.3427(2)
C63_18 C 0.9073(2) 0.8427(2) 0.3089(3)
O71_18 O 0.7339(2) 0.83958(14) 0.33958(14)
H5_18 H 0.89742 0.792514 0.35258
H19_18 H 0.843287 0.770184 0.210102
H20_18 H 0.89742 0.85258 0.292514
H21_18 H 0.843287 0.710102 0.270184
H25_18 H 0.957486 0.85258 0.35258
H35_18 H 0.871225 0.692406 0.192406
In8_23 In 0.37028(2) 0.12972(2) 0.0000
O46_19 O 0.37651(18) 0.02597(17) 0.09459(19)
O47_19 O 0.37651(18) 0.09459(19) 0.02597(17)
C40_19 C 0.3647(3) 0.0102(3) 0.0799(3)
C41_19 C 0.3647(3) 0.0799(3) 0.0102(3)
C43_19 C 0.3642(4) 0.0432(2) 0.0432(2)
C47_19 C 0.3601(2) 0.0182(2) 0.0514(2)
C48_19 C 0.3601(2) 0.0514(2) 0.0182(2)
C55_19 C 0.3429(3) 0.0088(2) 0.0088(2)
H35_19 H 0.371225 0.0575937 0.0575937
In8_24 In 0.37028(2) 0.12972(2) 1.0000
O38_19 O 0.35572(19) 0.08872(17) 0.98863(19)
C53_19 C 0.3481(2) 0.0338(2) 0.9999(2)
H21_19 H 0.343287 0.039898 0.979816
O37_19 O 0.35572(19) 0.98863(19) 0.08872(17)
C52_19 C 0.3481(2) 0.9999(2) 0.0338(2)
H19_19 H 0.343287 0.979816 0.039898
C13_19 C 0.3716(3) 0.9413(2) 0.9413(2)
C14_19 C 0.3960(3) 0.9309(2) 0.9309(2)
C15_19 C 0.4073(2) 0.9411(3) 0.9073(2)
In13_19 In 0.322103(15) 0.927897(15) 0.97765(2)
In14_15 In 0.47765(2) 0.927897(15) 0.822103(15)
O56_19 O 0.32789(17) 0.96556(17) 0.99678(17)
O57_19 O 0.25322(17) 0.92211(17) 0.96556(17)
O60_19 O 0.36202(15) 0.93016(17) 0.96065(18)
O61_19 O 0.46065(18) 0.93016(17) 0.86202(15)
O62_19 O 0.43016(17) 0.96065(18) 0.86202(15)
O63_15 O 0.43016(17) 0.86202(15) 0.96065(18)
O66_19 O 0.28935(18) 0.88798(15) 0.93016(17)
C57_19 C 0.3305(3) 0.9886(2) 0.9886(2)
C58_19 C 0.4413(2) 0.9413(2) 0.8716(3)
C59_19 C 0.4413(2) 0.8716(3) 0.9413(2)
C60_19 C 0.4309(2) 0.9309(2) 0.8960(3)
C61_19 C 0.4309(2) 0.8960(3) 0.9309(2)
C62_19 C 0.4411(3) 0.9073(2) 0.9073(2)
C63_19 C 0.4073(2) 0.9073(2) 0.9411(3)
O71_19 O 0.2339(2) 0.91042(14) 0.91042(14)
H5_19 H 0.39742 0.957486 0.89742
H20_19 H 0.39742 0.89742 0.957486
H25_19 H 0.457486 0.89742 0.89742
O71_20 O 0.0161(2) 0.41042(14) 0.83958(14)
C13_20 C 0.8784(3) 0.4413(2) 0.8087(2)
C14_20 C 0.8540(3) 0.4309(2) 0.8191(2)
C15_20 C 0.8427(2) 0.4411(3) 0.8427(2)
In8_25 In 0.87972(2) 0.62972(2) 0.7500
In13_20 In 0.927897(15) 0.427897(15) 0.77235(2)
In14_16 In 0.77235(2) 0.427897(15) 0.927897(15)
O37_20 O 0.89428(19) 0.48863(19) 0.66128(17)
O38_20 O 0.89428(19) 0.58872(17) 0.76137(19)
O46_20 O 0.87349(18) 0.52597(17) 0.65541(19)
O47_20 O 0.87349(18) 0.59459(19) 0.72403(17)
O56_20 O 0.92211(17) 0.46556(17) 0.75322(17)
O57_20 O 0.99678(17) 0.42211(17) 0.78444(17)
O60_20 O 0.88798(15) 0.43016(17) 0.78935(18)
O61_20 O 0.78935(18) 0.43016(17) 0.88798(15)
O62_20 O 0.81984(17) 0.46065(18) 0.88798(15)
O63_16 O 0.81984(17) 0.36202(15) 0.78935(18)
O66_20 O 0.96065(18) 0.38798(15) 0.81984(17)
C40_20 C 0.8853(3) 0.5102(3) 0.6701(3)
C41_20 C 0.8853(3) 0.5799(3) 0.7398(3)
C43_20 C 0.8858(4) 0.5432(2) 0.7068(2)
C47_20 C 0.8899(2) 0.5182(2) 0.6986(2)
C48_20 C 0.8899(2) 0.5514(2) 0.7318(2)
C52_20 C 0.9019(2) 0.4999(2) 0.7162(2)
C53_20 C 0.9019(2) 0.5338(2) 0.7501(2)
C55_20 C 0.9071(3) 0.5088(2) 0.7412(2)
C57_20 C 0.9195(3) 0.4886(2) 0.7614(2)
C58_20 C 0.8087(2) 0.4413(2) 0.8784(3)
C59_20 C 0.8087(2) 0.3716(3) 0.8087(2)
C60_20 C 0.8191(2) 0.4309(2) 0.8540(3)
C61_20 C 0.8191(2) 0.3960(3) 0.8191(2)
C62_20 C 0.8089(3) 0.4073(2) 0.8427(2)
C63_20 C 0.8427(2) 0.4073(2) 0.8089(3)
H5_20 H 0.85258 0.457486 0.85258
H19_20 H 0.906713 0.479816 0.710102
H20_20 H 0.85258 0.39742 0.792514
H21_20 H 0.906713 0.539898 0.770184
H25_20 H 0.792514 0.39742 0.85258
H35_20 H 0.878775 0.557594 0.692406
C13_21 C 0.8087(2) 0.3087(2) 0.8716(3)
C14_21 C 0.8191(2) 0.3191(2) 0.8960(3)
C15_21 C 0.8089(3) 0.3427(2) 0.9073(2)
In8_26 In 0.62028(2) 0.2500 0.87028(2)
In13_21 In 0.822103(15) 0.27235(2) 0.822103(15)
O37_21 O 0.76137(19) 0.16128(17) 0.85572(19)
O38_21 O 0.66128(17) 0.26137(19) 0.85572(19)
O46_21 O 0.72403(17) 0.15541(19) 0.87651(18)
O47_21 O 0.65541(19) 0.22403(17) 0.87651(18)
O56_21 O 0.78444(17) 0.25322(17) 0.82789(17)
O57_21 O 0.82789(17) 0.28444(17) 0.75322(17)
O60_21 O 0.81984(17) 0.28935(18) 0.86202(15)
O61_21 O 0.81984(17) 0.38798(15) 0.96065(18)
O62_21 O 0.78935(18) 0.38798(15) 0.93016(17)
O66_21 O 0.86202(15) 0.31984(17) 0.78935(18)
C40_21 C 0.7398(3) 0.1701(3) 0.8647(3)
C41_21 C 0.6701(3) 0.2398(3) 0.8647(3)
C43_21 C 0.7068(2) 0.2068(2) 0.8642(4)
C47_21 C 0.7318(2) 0.1986(2) 0.8601(2)
C48_21 C 0.6986(2) 0.2318(2) 0.8601(2)
C52_21 C 0.7501(2) 0.2162(2) 0.8481(2)
C53_21 C 0.7162(2) 0.2501(2) 0.8481(2)
C55_21 C 0.7412(2) 0.2412(2) 0.8429(3)
C57_21 C 0.7614(2) 0.2614(2) 0.8305(3)
C58_21 C 0.8087(2) 0.3784(3) 0.9413(2)
C59_21 C 0.8784(3) 0.3087(2) 0.9413(2)
C60_21 C 0.8191(2) 0.3540(3) 0.9309(2)
C61_21 C 0.8540(3) 0.3191(2) 0.9309(2)
C62_21 C 0.8427(2) 0.3427(2) 0.9411(3)
C63_21 C 0.8427(2) 0.3089(3) 0.9073(2)
O71_21 O 0.83958(14) 0.33958(14) 0.7339(2)
H5_21 H 0.792514 0.35258 0.89742
H19_21 H 0.770184 0.210102 0.843287
H20_21 H 0.85258 0.292514 0.89742
H21_21 H 0.710102 0.270184 0.843287
H25_21 H 0.85258 0.35258 0.957486
H35_21 H 0.692406 0.192406 0.871225
C13_22 C 0.3087(2) 0.4413(2) 0.3784(3)
C14_22 C 0.3191(2) 0.4309(2) 0.3540(3)
C15_22 C 0.3089(3) 0.4073(2) 0.3427(2)
In8_27 In 0.12028(2) 0.5000 0.37972(2)
In13_22 In 0.322103(15) 0.47765(2) 0.427897(15)
O37_22 O 0.26137(19) 0.58872(17) 0.39428(19)
O38_22 O 0.16128(17) 0.48863(19) 0.39428(19)
O46_22 O 0.22403(17) 0.59459(19) 0.37349(18)
O47_22 O 0.15541(19) 0.52597(17) 0.37349(18)
O56_22 O 0.28444(17) 0.49678(17) 0.42211(17)
O57_22 O 0.32789(17) 0.46556(17) 0.49678(17)
O60_22 O 0.31984(17) 0.46065(18) 0.38798(15)
O61_22 O 0.31984(17) 0.36202(15) 0.28935(18)
O62_22 O 0.28935(18) 0.36202(15) 0.31984(17)
O66_22 O 0.36202(15) 0.43016(17) 0.46065(18)
C40_22 C 0.2398(3) 0.5799(3) 0.3853(3)
C41_22 C 0.1701(3) 0.5102(3) 0.3853(3)
C43_22 C 0.2068(2) 0.5432(2) 0.3858(4)
C47_22 C 0.2318(2) 0.5514(2) 0.3899(2)
C48_22 C 0.1986(2) 0.5182(2) 0.3899(2)
C52_22 C 0.2501(2) 0.5338(2) 0.4019(2)
C53_22 C 0.2162(2) 0.4999(2) 0.4019(2)
C55_22 C 0.2412(2) 0.5088(2) 0.4071(3)
C57_22 C 0.2614(2) 0.4886(2) 0.4195(3)
C58_22 C 0.3087(2) 0.3716(3) 0.3087(2)
C59_22 C 0.3784(3) 0.4413(2) 0.3087(2)
C60_22 C 0.3191(2) 0.3960(3) 0.3191(2)
C61_22 C 0.3540(3) 0.4309(2) 0.3191(2)
C62_22 C 0.3427(2) 0.4073(2) 0.3089(3)
C63_22 C 0.3427(2) 0.4411(3) 0.3427(2)
O71_22 O 0.33958(14) 0.41042(14) 0.5161(2)
H5_22 H 0.292514 0.39742 0.35258
H19_22 H 0.270184 0.539898 0.406713
H20_22 H 0.35258 0.457486 0.35258
H21_22 H 0.210102 0.479816 0.406713
H25_22 H 0.35258 0.39742 0.292514
H35_22 H 0.192406 0.557594 0.378775
O71_23 O 0.41042(14) 0.83958(14) 0.0161(2)
C13_23 C 0.4413(2) 0.8087(2) 0.8784(3)
C14_23 C 0.4309(2) 0.8191(2) 0.8540(3)
C15_23 C 0.4411(3) 0.8427(2) 0.8427(2)
In8_28 In 0.62972(2) 0.7500 0.87972(2)
In13_23 In 0.427897(15) 0.77235(2) 0.927897(15)
O37_23 O 0.48863(19) 0.66128(17) 0.89428(19)
O38_23 O 0.58872(17) 0.76137(19) 0.89428(19)
O46_23 O 0.52597(17) 0.65541(19) 0.87349(18)
O47_23 O 0.59459(19) 0.72403(17) 0.87349(18)
O56_23 O 0.46556(17) 0.75322(17) 0.92211(17)
O57_23 O 0.42211(17) 0.78444(17) 0.99678(17)
O60_23 O 0.43016(17) 0.78935(18) 0.88798(15)
O61_23 O 0.43016(17) 0.88798(15) 0.78935(18)
O62_23 O 0.46065(18) 0.88798(15) 0.81984(17)
O66_23 O 0.38798(15) 0.81984(17) 0.96065(18)
C40_23 C 0.5102(3) 0.6701(3) 0.8853(3)
C41_23 C 0.5799(3) 0.7398(3) 0.8853(3)
C43_23 C 0.5432(2) 0.7068(2) 0.8858(4)
C47_23 C 0.5182(2) 0.6986(2) 0.8899(2)
C48_23 C 0.5514(2) 0.7318(2) 0.8899(2)
C52_23 C 0.4999(2) 0.7162(2) 0.9019(2)
C53_23 C 0.5338(2) 0.7501(2) 0.9019(2)
C55_23 C 0.5088(2) 0.7412(2) 0.9071(3)
C57_23 C 0.4886(2) 0.7614(2) 0.9195(3)
C58_23 C 0.4413(2) 0.8784(3) 0.8087(2)
C59_23 C 0.3716(3) 0.8087(2) 0.8087(2)
C60_23 C 0.4309(2) 0.8540(3) 0.8191(2)
C61_23 C 0.3960(3) 0.8191(2) 0.8191(2)
C62_23 C 0.4073(2) 0.8427(2) 0.8089(3)
C63_23 C 0.4073(2) 0.8089(3) 0.8427(2)
H5_23 H 0.457486 0.85258 0.85258
H19_23 H 0.479816 0.710102 0.906713
H20_23 H 0.39742 0.792514 0.85258
H21_23 H 0.539898 0.770184 0.906713
H25_23 H 0.39742 0.85258 0.792514
H35_23 H 0.557594 0.692406 0.878775
In8_29 In 0.12972(2) -0.0000 0.37028(2)
O46_24 O 0.02597(17) 0.09459(19) 0.37651(18)
O47_24 O 0.09459(19) 0.02597(17) 0.37651(18)
C40_24 C 0.0102(3) 0.0799(3) 0.3647(3)
C41_24 C 0.0799(3) 0.0102(3) 0.3647(3)
C43_24 C 0.0432(2) 0.0432(2) 0.3642(4)
C47_24 C 0.0182(2) 0.0514(2) 0.3601(2)
C48_24 C 0.0514(2) 0.0182(2) 0.3601(2)
C55_24 C 0.0088(2) 0.0088(2) 0.3429(3)
H35_24 H 0.0575937 0.0575937 0.371225
In8_30 In 0.12972(2) 1.0000 0.37028(2)
O38_24 O 0.08872(17) 0.98863(19) 0.35572(19)
C53_24 C 0.0338(2) 0.9999(2) 0.3481(2)
H21_24 H 0.039898 0.979816 0.343287
O37_24 O 0.98863(19) 0.08872(17) 0.35572(19)
C52_24 C 0.9999(2) 0.0338(2) 0.3481(2)
H19_24 H 0.979816 0.039898 0.343287
C13_24 C 0.9413(2) 0.9413(2) 0.3716(3)
C14_24 C 0.9309(2) 0.9309(2) 0.3960(3)
C15_24 C 0.9411(3) 0.9073(2) 0.4073(2)
In13_24 In 0.927897(15) 0.97765(2) 0.322103(15)
O56_24 O 0.96556(17) 0.99678(17) 0.32789(17)
O57_24 O 0.92211(17) 0.96556(17) 0.25322(17)
O60_24 O 0.93016(17) 0.96065(18) 0.36202(15)
O61_24 O 0.93016(17) 0.86202(15) 0.46065(18)
O62_24 O 0.96065(18) 0.86202(15) 0.43016(17)
O66_24 O 0.88798(15) 0.93016(17) 0.28935(18)
C57_24 C 0.9886(2) 0.9886(2) 0.3305(3)
C58_24 C 0.9413(2) 0.8716(3) 0.4413(2)
C59_24 C 0.8716(3) 0.9413(2) 0.4413(2)
C60_24 C 0.9309(2) 0.8960(3) 0.4309(2)
C61_24 C 0.8960(3) 0.9309(2) 0.4309(2)
C62_24 C 0.9073(2) 0.9073(2) 0.4411(3)
C63_24 C 0.9073(2) 0.9411(3) 0.4073(2)
O71_24 O 0.91042(14) 0.91042(14) 0.2339(2)
H5_24 H 0.957486 0.89742 0.39742
H20_24 H 0.89742 0.957486 0.39742
H25_24 H 0.89742 0.89742 0.457486
Cd1_5 Cd 0.05576(5) 0.55576(5) 0.60667(7)
O3_5 O 0.0159(3) 0.5585(3) 0.5901(4)
O9_5 O 0.0744(3) 0.5744(3) 0.5744(3)
C6_5 C 0.0031(5) 0.5706(5) 0.5706(5)
O11_9 O 0.0422(4) 0.5422(4) 0.6429(6)
O12_9 O 0.0491(3) 0.5897(3) 0.6278(3)
In4_6 In -0.0000 0.62028(2) 0.37972(2)
In10_11 In -0.0000 0.37972(2) 0.62028(2)
Cd2_5 Cd 0.05576(5) 0.60667(7) 0.55576(5)
Cd4_5 Cd 0.10667(7) 0.55576(5) 0.55576(5)
O16_5 O 0.0975(2) 0.3935(3) 0.5334(2)
O17_9 O 0.0334(2) 0.3935(3) 0.5975(2)
O19_5 O 0.0334(2) 0.5975(2) 0.3935(3)
O23_5 O 0.1195(3) 0.4289(3) 0.5215(3)
O24_9 O 0.0215(3) 0.4289(3) 0.6195(3)
O26_5 O 0.0215(3) 0.6195(3) 0.4289(3)
O27_5 O 0.0159(3) 0.5901(4) 0.5585(3)
O30_9 O 0.0585(3) 0.5159(3) 0.5901(4)
O31_5 O 0.0901(4) 0.5159(3) 0.5585(3)
O32_5 O 0.0585(3) 0.5901(4) 0.5159(3)
O42_5 O 0.01137(19) 0.60572(19) 0.33872(17)
O50_5 O 0.02597(17) 0.65541(19) 0.37349(18)
C19_9 C 0.1027(3) 0.4170(5) 0.5353(4)
C20_9 C 0.0353(4) 0.4170(5) 0.6027(3)
C22_9 C 0.0707(4) 0.4196(5) 0.5707(4)
C26_9 C 0.0870(3) 0.4336(4) 0.5534(3)
C27_9 C 0.0534(3) 0.4336(4) 0.5870(3)
C31_9 C 0.0879(3) 0.4613(3) 0.5558(4)
C32_9 C 0.0558(4) 0.4613(3) 0.5879(3)
C34_9 C 0.0726(4) 0.4751(6) 0.5726(4)
C36_9 C 0.0706(5) 0.5031(5) 0.5706(5)
O73_5 O 0.0422(4) 0.6429(6) 0.5422(4)
O75_9 O 0.0897(3) 0.5491(3) 0.6278(3)
O76_5 O 0.0491(3) 0.6278(3) 0.5897(3)
O77_5 O 0.0897(3) 0.6278(3) 0.5491(3)
H16_9 H 0.0433758 0.472153 0.601741
H17_9 H 0.101741 0.472153 0.543376
H18_9 H 0.0714681 0.398093 0.571468
O1_5 O 0.8935(3) 0.5975(2) 0.5334(2)
O2_5 O 0.9289(3) 0.6195(3) 0.5215(3)
O8_13 O 0.63798(15) 0.56984(17) 0.53935(18)
C1_5 C 0.9170(5) 0.6027(3) 0.5353(4)
C2_5 C 0.9196(5) 0.5707(4) 0.5707(4)
C3_5 C 0.9336(4) 0.5870(3) 0.5534(3)
C4_5 C 0.9613(3) 0.5879(3) 0.5558(4)
C5_5 C 0.9751(6) 0.5726(4) 0.5726(4)
C13_25 C 0.6284(3) 0.5587(2) 0.5587(2)
C14_25 C 0.6040(3) 0.5691(2) 0.5691(2)
C15_25 C 0.5927(2) 0.5927(2) 0.5589(3)
O10_13 O 0.66042(14) 0.58958(14) 0.4839(2)
In4_7 In 1.0000 0.62028(2) 0.37972(2)
In6_6 In 0.87972(2) 0.7500 0.62972(2)
In8_31 In 0.62972(2) 0.5000 0.37028(2)
In10_12 In 1.0000 0.37972(2) 0.62028(2)
Cd3_5 Cd 0.94424(5) 0.44424(5) 0.39333(7)
Cd5_9 Cd 0.89333(7) 0.44424(5) 0.44424(5)
O13_5 O 0.8935(3) 0.5334(2) 0.5975(2)
O14_13 O 0.9025(2) 0.6065(3) 0.4666(2)
O15_5 O 0.9666(2) 0.6065(3) 0.4025(2)
O18_9 O 0.9025(2) 0.4666(2) 0.6065(3)
O20_5 O 0.9289(3) 0.5215(3) 0.6195(3)
O21_13 O 0.8805(3) 0.5711(3) 0.4785(3)
O22_5 O 0.9785(3) 0.5711(3) 0.3805(3)
O25_9 O 0.8805(3) 0.4785(3) 0.5711(3)
O28_13 O 0.9415(3) 0.4841(3) 0.4099(4)
O29_9 O 0.9099(4) 0.4841(3) 0.4415(3)
O33_5 O 0.9841(3) 0.4415(3) 0.4099(4)
O35_13 O 0.89428(19) 0.66128(17) 0.48863(19)
O36_13 O 0.89428(19) 0.76137(19) 0.58872(17)
O38_25 O 0.64428(19) 0.51137(19) 0.41128(17)
O41_5 O 0.98863(19) 0.66128(17) 0.39428(19)
O44_13 O 0.87349(18) 0.65541(19) 0.52597(17)
O45_13 O 0.87349(18) 0.72403(17) 0.59459(19)
O47_25 O 0.62349(18) 0.47403(17) 0.40541(19)
O51_5 O 0.97403(17) 0.62651(18) 0.34459(19)
O53_13 O 0.92211(17) 0.78444(17) 0.49678(17)
O54_13 O 0.92211(17) 0.75322(17) 0.46556(17)
O55_13 O 0.67211(17) 0.53444(17) 0.50322(17)
O58_13 O 0.96556(17) 0.82789(17) 0.49678(17)
O59_13 O 0.94504(17) 0.80496(17) 0.44504(17)
O61_25 O 0.53935(18) 0.63798(15) 0.56984(17)
O63_17 O 0.56984(17) 0.53935(18) 0.63798(15)
O70_5 O 0.9256(3) 0.4256(3) 0.4256(3)
C16_5 C 0.9170(5) 0.5353(4) 0.6027(3)
C17_13 C 0.8973(3) 0.5830(5) 0.4647(4)
C18_13 C 0.9647(4) 0.5830(5) 0.3973(3)
C21_13 C 0.9293(4) 0.5804(5) 0.4293(4)
C23_5 C 0.9336(4) 0.5534(3) 0.5870(3)
C24_13 C 0.9130(3) 0.5664(4) 0.4466(3)
C25_13 C 0.9466(3) 0.5664(4) 0.4130(3)
C28_5 C 0.9613(3) 0.5558(4) 0.5879(3)
C29_13 C 0.9121(3) 0.5387(3) 0.4442(4)
C30_13 C 0.9442(4) 0.5387(3) 0.4121(3)
C33_13 C 0.9274(4) 0.5249(6) 0.4274(4)
C35_13 C 0.9294(5) 0.4969(5) 0.4294(5)
C38_13 C 0.8853(3) 0.6701(3) 0.5102(3)
C39_13 C 0.8853(3) 0.7398(3) 0.5799(3)
C40_25 C 0.6353(3) 0.4201(3) 0.4898(3)
C41_25 C 0.6353(3) 0.4898(3) 0.4201(3)
C42_13 C 0.8858(4) 0.7068(2) 0.5432(2)
C43_25 C 0.6358(4) 0.4568(2) 0.4568(2)
C45_13 C 0.8899(2) 0.6986(2) 0.5182(2)
C46_13 C 0.8899(2) 0.7318(2) 0.5514(2)
C47_25 C 0.6399(2) 0.4486(2) 0.4818(2)
C48_25 C 0.6399(2) 0.4818(2) 0.4486(2)
C50_13 C 0.9019(2) 0.7162(2) 0.4999(2)
C51_13 C 0.9019(2) 0.7501(2) 0.5338(2)
C52_25 C 0.6519(2) 0.4662(2) 0.5001(2)
C53_25 C 0.6519(2) 0.5001(2) 0.4662(2)
C54_13 C 0.9071(3) 0.7412(2) 0.5088(2)
C55_25 C 0.6571(3) 0.4912(2) 0.4912(2)
C56_13 C 0.9195(3) 0.7614(2) 0.4886(2)
C57_25 C 0.6695(3) 0.5114(2) 0.5114(2)
C58_25 C 0.5587(2) 0.6284(3) 0.5587(2)
C59_25 C 0.5587(2) 0.5587(2) 0.6284(3)
C60_25 C 0.5691(2) 0.6040(3) 0.5691(2)
C61_25 C 0.5691(2) 0.5691(2) 0.6040(3)
C62_25 C 0.5589(3) 0.5927(2) 0.5927(2)
C63_25 C 0.5927(2) 0.5589(3) 0.5927(2)
O72_13 O 0.91042(14) 0.83958(14) 0.5161(2)
O74_13 O 0.9578(4) 0.4578(4) 0.3571(6)
O78_13 O 0.9103(3) 0.4509(3) 0.3722(3)
O79_13 O 0.9509(3) 0.4103(3) 0.3722(3)
H1_5 H 0.898093 0.571468 0.571468
H3_5 H 0.972153 0.601741 0.543376
H5_25 H 0.60258 0.60258 0.542514
H12_13 H 0.956624 0.527847 0.398259
H13_5 H 0.972153 0.543376 0.601741
H14_13 H 0.898259 0.527847 0.456624
H15_13 H 0.928532 0.601907 0.428532
H19_25 H 0.656713 0.460102 0.520184
H20_25 H 0.60258 0.542514 0.60258
H21_25 H 0.656713 0.520184 0.460102
H24_13 H 0.906713 0.770184 0.539898
H25_25 H 0.542514 0.60258 0.60258
H35_25 H 0.628775 0.442406 0.442406
H40_13 H 0.878775 0.692406 0.557594
H41_13 H 0.906713 0.710102 0.479816
O8_14 O 0.11202(15) 0.68016(17) 0.03935(18)
C13_26 C 0.1216(3) 0.6913(2) 0.0587(2)
C14_26 C 0.1460(3) 0.6809(2) 0.0691(2)
C15_26 C 0.1573(2) 0.6573(2) 0.0589(3)
O55_14 O 0.07789(17) 0.71556(17) 0.00322(17)
O61_26 O 0.21065(18) 0.61202(15) 0.06984(17)
O63_18 O 0.18016(17) 0.71065(18) 0.13798(15)
C52_26 C 0.0981(2) 0.7838(2) 0.0001(2)
C57_26 C 0.0805(3) 0.7386(2) 0.0114(2)
C58_26 C 0.1913(2) 0.6216(3) 0.0587(2)
C59_26 C 0.1913(2) 0.6913(2) 0.1284(3)
C60_26 C 0.1809(2) 0.6460(3) 0.0691(2)
C61_26 C 0.1809(2) 0.6809(2) 0.1040(3)
C62_26 C 0.1911(3) 0.6573(2) 0.0927(2)
C63_26 C 0.1573(2) 0.6911(3) 0.0927(2)
H5_26 H 0.14742 0.64742 0.0425141
H19_26 H 0.0932875 0.789898 0.020184
H20_26 H 0.14742 0.707486 0.10258
H25_26 H 0.207486 0.64742 0.10258
O10_14 O 0.08958(14) 0.66042(14) 0.9839(2)
In8_32 In 0.12028(2) 0.7500 0.87028(2)
O38_26 O 0.10572(19) 0.73863(19) 0.91128(17)
O47_26 O 0.12651(18) 0.77597(17) 0.90541(19)
C40_26 C 0.1147(3) 0.8299(3) 0.9898(3)
C41_26 C 0.1147(3) 0.7602(3) 0.9201(3)
C43_26 C 0.1142(4) 0.7932(2) 0.9568(2)
C47_26 C 0.1101(2) 0.8014(2) 0.9818(2)
C48_26 C 0.1101(2) 0.7682(2) 0.9486(2)
C53_26 C 0.0981(2) 0.7499(2) 0.9662(2)
C55_26 C 0.0929(3) 0.7588(2) 0.9912(2)
H21_26 H 0.0932875 0.729816 0.960102
H35_26 H 0.121225 0.807594 0.942406
Cd1_6 Cd 0.69424(5) 0.69424(5) 0.10667(7)
O1_6 O 0.8565(3) 0.6525(2) 0.0334(2)
O2_6 O 0.8211(3) 0.6305(3) 0.0215(3)
O3_6 O 0.7341(3) 0.6915(3) 0.0901(4)
O9_6 O 0.6756(3) 0.6756(3) 0.0744(3)
C1_6 C 0.8330(5) 0.6473(3) 0.0353(4)
C2_6 C 0.8304(5) 0.6793(4) 0.0707(4)
C3_6 C 0.8164(4) 0.6630(3) 0.0534(3)
C4_6 C 0.7887(3) 0.6621(3) 0.0558(4)
C5_6 C 0.7749(6) 0.6774(4) 0.0726(4)
C6_6 C 0.7469(5) 0.6794(5) 0.0706(5)
O11_10 O 0.7078(4) 0.7078(4) 0.1429(6)
O12_10 O 0.7009(3) 0.6603(3) 0.1278(3)
In6_7 In 0.87028(2) 0.5000 0.12972(2)
In10_13 In 0.7500 0.87028(2) 0.12028(2)
Cd2_6 Cd 0.69424(5) 0.64333(7) 0.05576(5)
Cd4_6 Cd 0.64333(7) 0.69424(5) 0.05576(5)
O13_6 O 0.8565(3) 0.7166(2) 0.0975(2)
O16_6 O 0.6525(2) 0.8565(3) 0.0334(2)
O17_10 O 0.7166(2) 0.8565(3) 0.0975(2)
O18_10 O 0.8475(2) 0.7834(2) 0.1065(3)
O20_6 O 0.8211(3) 0.7285(3) 0.1195(3)
O23_6 O 0.6305(3) 0.8211(3) 0.0215(3)
O24_10 O 0.7285(3) 0.8211(3) 0.1195(3)
O25_10 O 0.8695(3) 0.7715(3) 0.0711(3)
O27_6 O 0.7341(3) 0.6599(4) 0.0585(3)
O30_10 O 0.6915(3) 0.7341(3) 0.0901(4)
O31_6 O 0.6599(4) 0.7341(3) 0.0585(3)
O32_6 O 0.6915(3) 0.6599(4) 0.0159(3)
O36_14 O 0.85572(19) 0.48863(19) 0.08872(17)
O44_14 O 0.87651(18) 0.59459(19) 0.02597(17)
O45_14 O 0.87651(18) 0.52597(17) 0.09459(19)
C16_6 C 0.8330(5) 0.7147(4) 0.1027(3)
C19_10 C 0.6473(3) 0.8330(5) 0.0353(4)
C20_10 C 0.7147(4) 0.8330(5) 0.1027(3)
C22_10 C 0.6793(4) 0.8304(5) 0.0707(4)
C23_6 C 0.8164(4) 0.6966(3) 0.0870(3)
C26_10 C 0.6630(3) 0.8164(4) 0.0534(3)
C27_10 C 0.6966(3) 0.8164(4) 0.0870(3)
C28_6 C 0.7887(3) 0.6942(4) 0.0879(3)
C31_10 C 0.6621(3) 0.7887(3) 0.0558(4)
C32_10 C 0.6942(4) 0.7887(3) 0.0879(3)
C34_10 C 0.6774(4) 0.7749(6) 0.0726(4)
C36_10 C 0.6794(5) 0.7469(5) 0.0706(5)
C38_14 C 0.8647(3) 0.5799(3) 0.0102(3)
C39_14 C 0.8647(3) 0.5102(3) 0.0799(3)
C42_14 C 0.8642(4) 0.5432(2) 0.0432(2)
C45_14 C 0.8601(2) 0.5514(2) 0.0182(2)
C46_14 C 0.8601(2) 0.5182(2) 0.0514(2)
C51_14 C 0.8481(2) 0.4999(2) 0.0338(2)
C54_14 C 0.8429(3) 0.5088(2) 0.0088(2)
O72_14 O 0.83958(14) 0.41042(14) 0.0161(2)
O73_6 O 0.7078(4) 0.6071(6) 0.0422(4)
O75_10 O 0.6603(3) 0.7009(3) 0.1278(3)
O76_6 O 0.7009(3) 0.6222(3) 0.0897(3)
O77_6 O 0.6603(3) 0.6222(3) 0.0491(3)
H1_6 H 0.851907 0.678532 0.0714681
H3_6 H 0.777847 0.648259 0.0433758
H13_6 H 0.777847 0.706624 0.101741
H16_10 H 0.706624 0.777847 0.101741
H17_10 H 0.648259 0.777847 0.0433758
H18_10 H 0.678532 0.851907 0.0714681
H24_14 H 0.843287 0.479816 0.039898
H40_14 H 0.871225 0.557594 0.0575937
In4_8 In 0.7500 0.62972(2) 0.87972(2)
Cd3_6 Cd 0.80576(5) 0.80576(5) 0.89333(7)
Cd5_10 Cd 0.85667(7) 0.80576(5) 0.94424(5)
O14_14 O 0.8475(2) 0.6435(3) 0.9666(2)
O15_6 O 0.7834(2) 0.6435(3) 0.9025(2)
O19_6 O 0.7166(2) 0.6525(2) 0.8935(3)
O21_14 O 0.8695(3) 0.6789(3) 0.9785(3)
O22_6 O 0.7715(3) 0.6789(3) 0.8805(3)
O26_6 O 0.7285(3) 0.6305(3) 0.9289(3)
O28_14 O 0.8085(3) 0.7659(3) 0.9099(4)
O29_10 O 0.8401(4) 0.7659(3) 0.9415(3)
O33_6 O 0.7659(3) 0.8085(3) 0.9099(4)
O35_14 O 0.85572(19) 0.58872(17) 0.98863(19)
O41_6 O 0.76137(19) 0.58872(17) 0.89428(19)
O42_6 O 0.73863(19) 0.64428(19) 0.83872(17)
O50_6 O 0.72403(17) 0.59459(19) 0.87349(18)
O51_6 O 0.77597(17) 0.62349(18) 0.84459(19)
O53_14 O 0.82789(17) 0.46556(17) 0.99678(17)
O54_14 O 0.82789(17) 0.49678(17) 0.96556(17)
O58_14 O 0.78444(17) 0.42211(17) 0.99678(17)
O59_14 O 0.80496(17) 0.44504(17) 0.94504(17)
O70_6 O 0.8244(3) 0.8244(3) 0.9256(3)
C17_14 C 0.8527(3) 0.6670(5) 0.9647(4)
C18_14 C 0.7853(4) 0.6670(5) 0.8973(3)
C21_14 C 0.8207(4) 0.6696(5) 0.9293(4)
C24_14 C 0.8370(3) 0.6836(4) 0.9466(3)
C25_14 C 0.8034(3) 0.6836(4) 0.9130(3)
C29_14 C 0.8379(3) 0.7113(3) 0.9442(4)
C30_14 C 0.8058(4) 0.7113(3) 0.9121(3)
C33_14 C 0.8226(4) 0.7251(6) 0.9274(4)
C35_14 C 0.8206(5) 0.7531(5) 0.9294(5)
C50_14 C 0.8481(2) 0.5338(2) 0.9999(2)
C56_14 C 0.8305(3) 0.4886(2) 0.9886(2)
O74_14 O 0.7922(4) 0.7922(4) 0.8571(6)
O78_14 O 0.8397(3) 0.7991(3) 0.8722(3)
O79_14 O 0.7991(3) 0.8397(3) 0.8722(3)
H12_14 H 0.793376 0.722153 0.898259
H14_14 H 0.851741 0.722153 0.956624
H15_14 H 0.821468 0.648093 0.928532
H41_14 H 0.843287 0.539898 0.979816
Cd1_7 Cd 0.19424(5) 0.05576(5) 0.14333(7)
O1_7 O 0.3565(3) 0.0975(2) 0.2166(2)
O2_7 O 0.3211(3) 0.1195(3) 0.2285(3)
O3_7 O 0.2341(3) 0.0585(3) 0.1599(4)
O8_15 O 0.61202(15) 0.06984(17) 0.21065(18)
O9_7 O 0.1756(3) 0.0744(3) 0.1756(3)
C1_7 C 0.3330(5) 0.1027(3) 0.2147(4)
C2_7 C 0.3304(5) 0.0707(4) 0.1793(4)
C3_7 C 0.3164(4) 0.0870(3) 0.1966(3)
C4_7 C 0.2887(3) 0.0879(3) 0.1942(4)
C5_7 C 0.2749(6) 0.0726(4) 0.1774(4)
C6_7 C 0.2469(5) 0.0706(5) 0.1794(5)
C13_27 C 0.6216(3) 0.0587(2) 0.1913(2)
C14_27 C 0.6460(3) 0.0691(2) 0.1809(2)
C15_27 C 0.6573(2) 0.0927(2) 0.1911(3)
O10_15 O 0.58958(14) 0.08958(14) 0.2661(2)
O11_11 O 0.2078(4) 0.0422(4) 0.1071(6)
O12_11 O 0.2009(3) 0.0897(3) 0.1222(3)
In4_9 In 0.2500 0.12028(2) 0.37028(2)
In6_8 In 0.37028(2) 0.2500 0.12028(2)
In8_33 In 0.62028(2) -0.0000 0.37972(2)
Cd2_7 Cd 0.19424(5) 0.10667(7) 0.19424(5)
Cd4_7 Cd 0.14333(7) 0.05576(5) 0.19424(5)
O13_7 O 0.3565(3) 0.0334(2) 0.1525(2)
O14_15 O 0.3475(2) 0.1065(3) 0.2834(2)
O15_7 O 0.2834(2) 0.1065(3) 0.3475(2)
O19_7 O 0.2166(2) 0.0975(2) 0.3565(3)
O20_7 O 0.3211(3) 0.0215(3) 0.1305(3)
O21_15 O 0.3695(3) 0.0711(3) 0.2715(3)
O22_7 O 0.2715(3) 0.0711(3) 0.3695(3)
O26_7 O 0.2285(3) 0.1195(3) 0.3211(3)
O27_7 O 0.2341(3) 0.0901(4) 0.1915(3)
O30_11 O 0.1915(3) 0.0159(3) 0.1599(4)
O31_7 O 0.1599(4) 0.0159(3) 0.1915(3)
O32_7 O 0.1915(3) 0.0901(4) 0.2341(3)
O35_15 O 0.35572(19) 0.16128(17) 0.26137(19)
O36_15 O 0.35572(19) 0.26137(19) 0.16128(17)
O38_27 O 0.60572(19) 0.01137(19) 0.33872(17)
O41_7 O 0.26137(19) 0.16128(17) 0.35572(19)
O42_7 O 0.23863(19) 0.10572(19) 0.41128(17)
O44_15 O 0.37651(18) 0.15541(19) 0.22403(17)
O45_15 O 0.37651(18) 0.22403(17) 0.15541(19)
O50_7 O 0.22403(17) 0.15541(19) 0.37651(18)
O51_7 O 0.27597(17) 0.12651(18) 0.40541(19)
O53_15 O 0.32789(17) 0.28444(17) 0.25322(17)
O54_15 O 0.32789(17) 0.25322(17) 0.28444(17)
O55_15 O 0.57789(17) 0.03444(17) 0.24678(17)
O58_15 O 0.28444(17) 0.32789(17) 0.25322(17)
O59_15 O 0.30496(17) 0.30496(17) 0.30496(17)
O61_27 O 0.71065(18) 0.13798(15) 0.18016(17)
O63_19 O 0.68016(17) 0.03935(18) 0.11202(15)
C16_7 C 0.3330(5) 0.0353(4) 0.1473(3)
C17_15 C 0.3527(3) 0.0830(5) 0.2853(4)
C18_15 C 0.2853(4) 0.0830(5) 0.3527(3)
C21_15 C 0.3207(4) 0.0804(5) 0.3207(4)
C23_7 C 0.3164(4) 0.0534(3) 0.1630(3)
C24_15 C 0.3370(3) 0.0664(4) 0.3034(3)
C25_15 C 0.3034(3) 0.0664(4) 0.3370(3)
C28_7 C 0.2887(3) 0.0558(4) 0.1621(3)
C29_15 C 0.3379(3) 0.0387(3) 0.3058(4)
C30_15 C 0.3058(4) 0.0387(3) 0.3379(3)
C33_15 C 0.3226(4) 0.0249(6) 0.3226(4)
C36_11 C 0.1794(5) 0.0031(5) 0.1794(5)
C38_15 C 0.3647(3) 0.1701(3) 0.2398(3)
C39_15 C 0.3647(3) 0.2398(3) 0.1701(3)
C42_15 C 0.3642(4) 0.2068(2) 0.2068(2)
C45_15 C 0.3601(2) 0.1986(2) 0.2318(2)
C46_15 C 0.3601(2) 0.2318(2) 0.1986(2)
C50_15 C 0.3481(2) 0.2162(2) 0.2501(2)
C51_15 C 0.3481(2) 0.2501(2) 0.2162(2)
C53_27 C 0.5981(2) 0.0001(2) 0.2838(2)
C54_15 C 0.3429(3) 0.2412(2) 0.2412(2)
C56_15 C 0.3305(3) 0.2614(2) 0.2614(2)
C57_27 C 0.5805(3) 0.0114(2) 0.2386(2)
C58_27 C 0.6913(2) 0.1284(3) 0.1913(2)
C59_27 C 0.6913(2) 0.0587(2) 0.1216(3)
C60_27 C 0.6809(2) 0.1040(3) 0.1809(2)
C61_27 C 0.6809(2) 0.0691(2) 0.1460(3)
C62_27 C 0.6911(3) 0.0927(2) 0.1573(2)
C63_27 C 0.6573(2) 0.0589(3) 0.1573(2)
O72_15 O 0.33958(14) 0.33958(14) 0.2339(2)
O73_7 O 0.2078(4) 0.1429(6) 0.2078(4)
O75_11 O 0.1603(3) 0.0491(3) 0.1222(3)
O76_7 O 0.2009(3) 0.1278(3) 0.1603(3)
O77_7 O 0.1603(3) 0.1278(3) 0.2009(3)
H1_7 H 0.351907 0.0714681 0.178532
H3_7 H 0.277847 0.101741 0.206624
H5_27 H 0.64742 0.10258 0.207486
H12_15 H 0.293376 0.0278468 0.351741
H13_7 H 0.277847 0.0433758 0.148259
H14_15 H 0.351741 0.0278468 0.293376
H15_15 H 0.321468 0.101907 0.321468
H20_27 H 0.64742 0.0425141 0.14742
H21_27 H 0.593287 0.020184 0.289898
H24_15 H 0.343287 0.270184 0.210102
H25_27 H 0.707486 0.10258 0.14742
H40_15 H 0.371225 0.192406 0.192406
H41_15 H 0.343287 0.210102 0.270184
In8_34 In 0.62028(2) 1.0000 0.37972(2)
In10_14 In 0.2500 0.87972(2) 0.12972(2)
Cd3_7 Cd 0.30576(5) 0.94424(5) 0.35667(7)
Cd5_11 Cd 0.35667(7) 0.94424(5) 0.30576(5)
O16_7 O 0.1525(2) 0.8935(3) 0.2166(2)
O17_11 O 0.2166(2) 0.8935(3) 0.1525(2)
O18_11 O 0.3475(2) 0.9666(2) 0.1435(3)
O23_7 O 0.1305(3) 0.9289(3) 0.2285(3)
O24_11 O 0.2285(3) 0.9289(3) 0.1305(3)
O25_11 O 0.3695(3) 0.9785(3) 0.1789(3)
O28_15 O 0.3085(3) 0.9841(3) 0.3401(4)
O29_11 O 0.3401(4) 0.9841(3) 0.3085(3)
O33_7 O 0.2659(3) 0.9415(3) 0.3401(4)
O47_27 O 0.62651(18) 0.97403(17) 0.34459(19)
O70_7 O 0.3244(3) 0.9256(3) 0.3244(3)
C19_11 C 0.1473(3) 0.9170(5) 0.2147(4)
C20_11 C 0.2147(4) 0.9170(5) 0.1473(3)
C22_11 C 0.1793(4) 0.9196(5) 0.1793(4)
C26_11 C 0.1630(3) 0.9336(4) 0.1966(3)
C27_11 C 0.1966(3) 0.9336(4) 0.1630(3)
C31_11 C 0.1621(3) 0.9613(3) 0.1942(4)
C32_11 C 0.1942(4) 0.9613(3) 0.1621(3)
C34_11 C 0.1774(4) 0.9751(6) 0.1774(4)
C35_15 C 0.3206(5) 0.9969(5) 0.3206(5)
C40_27 C 0.6147(3) 0.9201(3) 0.2602(3)
C41_27 C 0.6147(3) 0.9898(3) 0.3299(3)
C43_27 C 0.6142(4) 0.9568(2) 0.2932(2)
C47_27 C 0.6101(2) 0.9486(2) 0.2682(2)
C48_27 C 0.6101(2) 0.9818(2) 0.3014(2)
C52_27 C 0.5981(2) 0.9662(2) 0.2499(2)
C55_27 C 0.5929(3) 0.9912(2) 0.2588(2)
O74_15 O 0.2922(4) 0.9578(4) 0.3929(6)
O78_15 O 0.3397(3) 0.9509(3) 0.3778(3)
O79_15 O 0.2991(3) 0.9103(3) 0.3778(3)
H16_11 H 0.206624 0.972153 0.148259
H17_11 H 0.148259 0.972153 0.206624
H18_11 H 0.178532 0.898093 0.178532
H19_27 H 0.593287 0.960102 0.229816
H35_27 H 0.621225 0.942406 0.307594
Cd1_8 Cd 0.55576(5) 0.19424(5) 0.64333(7)
O1_8 O 0.3935(3) 0.1525(2) 0.7166(2)
O2_8 O 0.4289(3) 0.1305(3) 0.7285(3)
O3_8 O 0.5159(3) 0.1915(3) 0.6599(4)
O8_16 O 0.13798(15) 0.18016(17) 0.71065(18)
O9_8 O 0.5744(3) 0.1756(3) 0.6756(3)
C1_8 C 0.4170(5) 0.1473(3) 0.7147(4)
C2_8 C 0.4196(5) 0.1793(4) 0.6793(4)
C3_8 C 0.4336(4) 0.1630(3) 0.6966(3)
C4_8 C 0.4613(3) 0.1621(3) 0.6942(4)
C5_8 C 0.4751(6) 0.1774(4) 0.6774(4)
C6_8 C 0.5031(5) 0.1794(5) 0.6794(5)
C13_28 C 0.1284(3) 0.1913(2) 0.6913(2)
C14_28 C 0.1040(3) 0.1809(2) 0.6809(2)
C15_28 C 0.0927(2) 0.1573(2) 0.6911(3)
O10_16 O 0.16042(14) 0.16042(14) 0.7661(2)
O11_12 O 0.5422(4) 0.2078(4) 0.6071(6)
O12_12 O 0.5491(3) 0.1603(3) 0.6222(3)
In4_10 In 0.5000 0.12972(2) 0.87028(2)
In6_9 In 0.37972(2) -0.0000 0.62028(2)
In8_35 In 0.12972(2) 0.2500 0.87972(2)
In10_15 In 0.5000 0.37028(2) 0.62972(2)
Cd2_8 Cd 0.55576(5) 0.14333(7) 0.69424(5)
Cd3_8 Cd 0.44424(5) 0.30576(5) 0.85667(7)
Cd4_8 Cd 0.60667(7) 0.19424(5) 0.69424(5)
Cd5_12 Cd 0.39333(7) 0.30576(5) 0.80576(5)
O13_8 O 0.3935(3) 0.2166(2) 0.6525(2)
O14_16 O 0.4025(2) 0.1435(3) 0.7834(2)
O15_8 O 0.4666(2) 0.1435(3) 0.8475(2)
O16_8 O 0.5975(2) 0.3565(3) 0.7166(2)
O17_12 O 0.5334(2) 0.3565(3) 0.6525(2)
O18_12 O 0.4025(2) 0.2834(2) 0.6435(3)
O19_8 O 0.5334(2) 0.1525(2) 0.8565(3)
O20_8 O 0.4289(3) 0.2285(3) 0.6305(3)
O21_16 O 0.3805(3) 0.1789(3) 0.7715(3)
O22_8 O 0.4785(3) 0.1789(3) 0.8695(3)
O23_8 O 0.6195(3) 0.3211(3) 0.7285(3)
O24_12 O 0.5215(3) 0.3211(3) 0.6305(3)
O25_12 O 0.3805(3) 0.2715(3) 0.6789(3)
O26_8 O 0.5215(3) 0.1305(3) 0.8211(3)
O27_8 O 0.5159(3) 0.1599(4) 0.6915(3)
O28_16 O 0.4415(3) 0.2659(3) 0.8401(4)
O29_12 O 0.4099(4) 0.2659(3) 0.8085(3)
O30_12 O 0.5585(3) 0.2341(3) 0.6599(4)
O31_8 O 0.5901(4) 0.2341(3) 0.6915(3)
O32_8 O 0.5585(3) 0.1599(4) 0.7341(3)
O33_8 O 0.4841(3) 0.3085(3) 0.8401(4)
O35_16 O 0.39428(19) 0.08872(17) 0.76137(19)
O38_28 O 0.14428(19) 0.23863(19) 0.83872(17)
O41_8 O 0.48863(19) 0.08872(17) 0.85572(19)
O42_8 O 0.51137(19) 0.14428(19) 0.91128(17)
O44_16 O 0.37349(18) 0.09459(19) 0.72403(17)
O45_16 O 0.37349(18) 0.02597(17) 0.65541(19)
O47_28 O 0.12349(18) 0.27597(17) 0.84459(19)
O50_8 O 0.52597(17) 0.09459(19) 0.87651(18)
O51_8 O 0.47403(17) 0.12349(18) 0.90541(19)
O55_16 O 0.17211(17) 0.21556(17) 0.74678(17)
O61_28 O 0.03935(18) 0.11202(15) 0.68016(17)
O63_20 O 0.06984(17) 0.21065(18) 0.61202(15)
O70_8 O 0.4256(3) 0.3244(3) 0.8244(3)
C16_8 C 0.4170(5) 0.2147(4) 0.6473(3)
C17_16 C 0.3973(3) 0.1670(5) 0.7853(4)
C18_16 C 0.4647(4) 0.1670(5) 0.8527(3)
C19_12 C 0.6027(3) 0.3330(5) 0.7147(4)
C20_12 C 0.5353(4) 0.3330(5) 0.6473(3)
C21_16 C 0.4293(4) 0.1696(5) 0.8207(4)
C22_12 C 0.5707(4) 0.3304(5) 0.6793(4)
C23_8 C 0.4336(4) 0.1966(3) 0.6630(3)
C24_16 C 0.4130(3) 0.1836(4) 0.8034(3)
C25_16 C 0.4466(3) 0.1836(4) 0.8370(3)
C26_12 C 0.5870(3) 0.3164(4) 0.6966(3)
C27_12 C 0.5534(3) 0.3164(4) 0.6630(3)
C28_8 C 0.4613(3) 0.1942(4) 0.6621(3)
C29_16 C 0.4121(3) 0.2113(3) 0.8058(4)
C30_16 C 0.4442(4) 0.2113(3) 0.8379(3)
C31_12 C 0.5879(3) 0.2887(3) 0.6942(4)
C32_12 C 0.5558(4) 0.2887(3) 0.6621(3)
C33_16 C 0.4274(4) 0.2251(6) 0.8226(4)
C34_12 C 0.5726(4) 0.2749(6) 0.6774(4)
C35_16 C 0.4294(5) 0.2531(5) 0.8206(5)
C36_12 C 0.5706(5) 0.2469(5) 0.6794(5)
C38_16 C 0.3853(3) 0.0799(3) 0.7398(3)
C39_16 C 0.3853(3) 0.0102(3) 0.6701(3)
C40_28 C 0.1353(3) 0.3299(3) 0.7602(3)
C41_28 C 0.1353(3) 0.2602(3) 0.8299(3)
C42_16 C 0.3858(4) 0.0432(2) 0.7068(2)
C43_28 C 0.1358(4) 0.2932(2) 0.7932(2)
C45_16 C 0.3899(2) 0.0514(2) 0.7318(2)
C46_16 C 0.3899(2) 0.0182(2) 0.6986(2)
C47_28 C 0.1399(2) 0.3014(2) 0.7682(2)
C48_28 C 0.1399(2) 0.2682(2) 0.8014(2)
C50_16 C 0.4019(2) 0.0338(2) 0.7501(2)
C52_28 C 0.1519(2) 0.2838(2) 0.7499(2)
C53_28 C 0.1519(2) 0.2499(2) 0.7838(2)
C54_16 C 0.4071(3) 0.0088(2) 0.7412(2)
C55_28 C 0.1571(3) 0.2588(2) 0.7588(2)
C57_28 C 0.1695(3) 0.2386(2) 0.7386(2)
C58_28 C 0.0587(2) 0.1216(3) 0.6913(2)
C59_28 C 0.0587(2) 0.1913(2) 0.6216(3)
C60_28 C 0.0691(2) 0.1460(3) 0.6809(2)
C61_28 C 0.0691(2) 0.1809(2) 0.6460(3)
C62_28 C 0.0589(3) 0.1573(2) 0.6573(2)
C63_28 C 0.0927(2) 0.1911(3) 0.6573(2)
O73_8 O 0.5422(4) 0.1071(6) 0.7078(4)
O74_16 O 0.4578(4) 0.2922(4) 0.8929(6)
O75_12 O 0.5897(3) 0.2009(3) 0.6222(3)
O76_8 O 0.5491(3) 0.1222(3) 0.6603(3)
O77_8 O 0.5897(3) 0.1222(3) 0.7009(3)
O78_16 O 0.4103(3) 0.2991(3) 0.8778(3)
O79_16 O 0.4509(3) 0.3397(3) 0.8778(3)
H1_8 H 0.398093 0.178532 0.678532
H3_8 H 0.472153 0.148259 0.706624
H5_28 H 0.10258 0.14742 0.707486
H12_16 H 0.456624 0.222153 0.851741
H13_8 H 0.472153 0.206624 0.648259
H14_16 H 0.398259 0.222153 0.793376
H15_16 H 0.428532 0.148093 0.821468
H16_12 H 0.543376 0.277847 0.648259
H17_12 H 0.601741 0.277847 0.706624
H18_12 H 0.571468 0.351907 0.678532
H19_28 H 0.156713 0.289898 0.729816
H20_28 H 0.10258 0.207486 0.64742
H21_28 H 0.156713 0.229816 0.789898
H25_28 H 0.0425141 0.14742 0.64742
H35_28 H 0.128775 0.307594 0.807594
H40_16 H 0.378775 0.0575937 0.692406
H41_16 H 0.406713 0.039898 0.770184
In6_10 In 0.37972(2) 1.0000 0.62028(2)
O36_16 O 0.39428(19) 0.98863(19) 0.66128(17)
O53_16 O 0.42211(17) 0.96556(17) 0.75322(17)
O54_16 O 0.42211(17) 0.99678(17) 0.78444(17)
O58_16 O 0.46556(17) 0.92211(17) 0.75322(17)
O59_16 O 0.44504(17) 0.94504(17) 0.80496(17)
C51_16 C 0.4019(2) 0.9999(2) 0.7162(2)
C56_16 C 0.4195(3) 0.9886(2) 0.7614(2)
O72_16 O 0.41042(14) 0.91042(14) 0.7339(2)
H24_16 H 0.406713 0.979816 0.710102
O4_13 O 0.01137(19) 0.33872(17) 0.60572(19)
C10_13 C 0.0001(2) 0.2838(2) 0.5981(2)
C12_13 C 0.0114(2) 0.2386(2) 0.5805(3)
O11_13 O 0.1429(6) 0.5422(4) 0.5422(4)
O12_13 O 0.1278(3) 0.5491(3) 0.5897(3)
O17_13 O 0.0975(2) 0.5334(2) 0.3935(3)
O18_13 O 0.1065(3) 0.4025(2) 0.4666(2)
O24_13 O 0.1195(3) 0.5215(3) 0.4289(3)
O25_13 O 0.0711(3) 0.3805(3) 0.4785(3)
O30_13 O 0.0901(4) 0.5585(3) 0.5159(3)
O44_17 O 0.02597(17) 0.37349(18) 0.65541(19)
O52_13 O 0.03444(17) 0.24678(17) 0.57789(17)
C19_13 C 0.0353(4) 0.6027(3) 0.4170(5)
C20_13 C 0.1027(3) 0.5353(4) 0.4170(5)
C22_13 C 0.0707(4) 0.5707(4) 0.4196(5)
C26_13 C 0.0534(3) 0.5870(3) 0.4336(4)
C27_13 C 0.0870(3) 0.5534(3) 0.4336(4)
C31_13 C 0.0558(4) 0.5879(3) 0.4613(3)
C32_13 C 0.0879(3) 0.5558(4) 0.4613(3)
C34_13 C 0.0726(4) 0.5726(4) 0.4751(6)
C36_13 C 0.0706(5) 0.5706(5) 0.5031(5)
C38_17 C 0.0102(3) 0.3853(3) 0.6701(3)
C39_17 C 0.0799(3) 0.3853(3) 0.7398(3)
C42_17 C 0.0432(2) 0.3858(4) 0.7068(2)
C45_17 C 0.0182(2) 0.3899(2) 0.6986(2)
C46_17 C 0.0514(2) 0.3899(2) 0.7318(2)
C51_17 C 0.0338(2) 0.4019(2) 0.7501(2)
C54_17 C 0.0088(2) 0.4071(3) 0.7412(2)
O71_25 O 0.08958(14) 0.2661(2) 0.58958(14)
O75_13 O 0.1278(3) 0.5897(3) 0.5491(3)
H2_13 H 0.020184 0.289898 0.593287
H16_13 H 0.101741 0.543376 0.472153
H17_13 H 0.0433758 0.601741 0.472153
H18_13 H 0.0714681 0.571468 0.398093
H24_17 H 0.039898 0.406713 0.770184
H40_17 H 0.0575937 0.378775 0.692406
O5_13 O 0.97403(17) 0.34459(19) 0.62651(18)
C7_13 C 0.9898(3) 0.3299(3) 0.6147(3)
C8_13 C 0.9568(2) 0.2932(2) 0.6142(4)
C9_13 C 0.9818(2) 0.3014(2) 0.6101(2)
C11_13 C 0.9912(2) 0.2588(2) 0.5929(3)
Cd5_13 Cd 0.94424(5) 0.39333(7) 0.44424(5)
O14_17 O 0.9666(2) 0.4025(2) 0.6065(3)
O21_17 O 0.9785(3) 0.3805(3) 0.5711(3)
O28_17 O 0.9099(4) 0.4415(3) 0.4841(3)
O29_13 O 0.9415(3) 0.4099(4) 0.4841(3)
O35_17 O 0.98863(19) 0.39428(19) 0.66128(17)
O54_17 O 0.96556(17) 0.42211(17) 0.75322(17)
C17_17 C 0.9647(4) 0.3973(3) 0.5830(5)
C18_17 C 0.8973(3) 0.4647(4) 0.5830(5)
C21_17 C 0.9293(4) 0.4293(4) 0.5804(5)
C24_17 C 0.9466(3) 0.4130(3) 0.5664(4)
C25_17 C 0.9130(3) 0.4466(3) 0.5664(4)
C29_17 C 0.9442(4) 0.4121(3) 0.5387(3)
C30_17 C 0.9121(3) 0.4442(4) 0.5387(3)
C33_17 C 0.9274(4) 0.4274(4) 0.5249(6)
C35_17 C 0.9294(5) 0.4294(5) 0.4969(5)
C37_13 C 0.9201(3) 0.2602(3) 0.6147(3)
C44_13 C 0.9486(2) 0.2682(2) 0.6101(2)
C49_13 C 0.9662(2) 0.2499(2) 0.5981(2)
C50_17 C 0.9999(2) 0.4019(2) 0.7162(2)
C56_17 C 0.9886(2) 0.4195(3) 0.7614(2)
O74_17 O 0.8571(6) 0.4578(4) 0.4578(4)
O78_17 O 0.8722(3) 0.4103(3) 0.4509(3)
O79_17 O 0.8722(3) 0.4509(3) 0.4103(3)
H4_13 H 0.942406 0.307594 0.621225
H12_17 H 0.898259 0.456624 0.527847
H14_17 H 0.956624 0.398259 0.527847
H15_17 H 0.928532 0.428532 0.601907
H26_13 H 0.960102 0.229816 0.593287
H41_17 H 0.979816 0.406713 0.710102
O4_14 O 0.51137(19) 0.41128(17) 0.64428(19)
O5_14 O 0.47403(17) 0.40541(19) 0.62349(18)
C7_14 C 0.4898(3) 0.4201(3) 0.6353(3)
C8_14 C 0.4568(2) 0.4568(2) 0.6358(4)
C9_14 C 0.4818(2) 0.4486(2) 0.6399(2)
C10_14 C 0.5001(2) 0.4662(2) 0.6519(2)
C11_14 C 0.4912(2) 0.4912(2) 0.6571(3)
C12_14 C 0.5114(2) 0.5114(2) 0.6695(3)
O11_14 O 0.6429(6) 0.2078(4) 0.7078(4)
O12_14 O 0.6278(3) 0.2009(3) 0.6603(3)
Cd5_14 Cd 0.44424(5) 0.35667(7) 0.80576(5)
O14_18 O 0.4666(2) 0.3475(2) 0.6435(3)
O17_14 O 0.5975(2) 0.2166(2) 0.8565(3)
O18_14 O 0.6065(3) 0.3475(2) 0.7834(2)
O21_18 O 0.4785(3) 0.3695(3) 0.6789(3)
O24_14 O 0.6195(3) 0.2285(3) 0.8211(3)
O25_14 O 0.5711(3) 0.3695(3) 0.7715(3)
O28_18 O 0.4099(4) 0.3085(3) 0.7659(3)
O29_14 O 0.4415(3) 0.3401(4) 0.7659(3)
O30_14 O 0.5901(4) 0.1915(3) 0.7341(3)
O35_18 O 0.48863(19) 0.35572(19) 0.58872(17)
O44_18 O 0.52597(17) 0.37651(18) 0.59459(19)
O52_14 O 0.53444(17) 0.50322(17) 0.67211(17)
O54_18 O 0.46556(17) 0.32789(17) 0.49678(17)
C17_18 C 0.4647(4) 0.3527(3) 0.6670(5)
C18_18 C 0.3973(3) 0.2853(4) 0.6670(5)
C19_14 C 0.5353(4) 0.1473(3) 0.8330(5)
C20_14 C 0.6027(3) 0.2147(4) 0.8330(5)
C21_18 C 0.4293(4) 0.3207(4) 0.6696(5)
C22_14 C 0.5707(4) 0.1793(4) 0.8304(5)
C24_18 C 0.4466(3) 0.3370(3) 0.6836(4)
C25_18 C 0.4130(3) 0.3034(3) 0.6836(4)
C26_14 C 0.5534(3) 0.1630(3) 0.8164(4)
C27_14 C 0.5870(3) 0.1966(3) 0.8164(4)
C29_18 C 0.4442(4) 0.3379(3) 0.7113(3)
C30_18 C 0.4121(3) 0.3058(4) 0.7113(3)
C31_14 C 0.5558(4) 0.1621(3) 0.7887(3)
C32_14 C 0.5879(3) 0.1942(4) 0.7887(3)
C33_18 C 0.4274(4) 0.3226(4) 0.7251(6)
C34_14 C 0.5726(4) 0.1774(4) 0.7749(6)
C35_18 C 0.4294(5) 0.3206(5) 0.7531(5)
C36_14 C 0.5706(5) 0.1794(5) 0.7469(5)
C37_14 C 0.4201(3) 0.4898(3) 0.6353(3)
C38_18 C 0.5102(3) 0.3647(3) 0.5799(3)
C39_18 C 0.5799(3) 0.3647(3) 0.5102(3)
C42_18 C 0.5432(2) 0.3642(4) 0.5432(2)
C44_14 C 0.4486(2) 0.4818(2) 0.6399(2)
C45_18 C 0.5182(2) 0.3601(2) 0.5514(2)
C46_18 C 0.5514(2) 0.3601(2) 0.5182(2)
C49_14 C 0.4662(2) 0.5001(2) 0.6519(2)
C50_18 C 0.4999(2) 0.3481(2) 0.5338(2)
C51_18 C 0.5338(2) 0.3481(2) 0.4999(2)
C54_18 C 0.5088(2) 0.3429(3) 0.5088(2)
C56_18 C 0.4886(2) 0.3305(3) 0.4886(2)
O71_26 O 0.58958(14) 0.4839(2) 0.66042(14)
O74_18 O 0.3571(6) 0.2922(4) 0.7922(4)
O75_14 O 0.6278(3) 0.1603(3) 0.7009(3)
O78_18 O 0.3722(3) 0.3397(3) 0.7991(3)
O79_18 O 0.3722(3) 0.2991(3) 0.8397(3)
H2_14 H 0.520184 0.460102 0.656713
H4_14 H 0.442406 0.442406 0.628775
H12_18 H 0.398259 0.293376 0.722153
H14_18 H 0.456624 0.351741 0.722153
H15_18 H 0.428532 0.321468 0.648093
H16_14 H 0.601741 0.206624 0.777847
H17_14 H 0.543376 0.148259 0.777847
H18_14 H 0.571468 0.178532 0.851907
H24_18 H 0.539898 0.343287 0.479816
H26_14 H 0.460102 0.520184 0.656713
H40_18 H 0.557594 0.371225 0.557594
H41_18 H 0.479816 0.343287 0.539898
C12_15 C 0.7386(2) 0.0114(2) 0.0805(3)
O52_15 O 0.71556(17) 0.00322(17) 0.07789(17)
C49_15 C 0.7838(2) 0.0001(2) 0.0981(2)
H26_15 H 0.789898 0.020184 0.0932875
O4_15 O 0.73863(19) 0.91128(17) 0.10572(19)
O5_15 O 0.77597(17) 0.90541(19) 0.12651(18)
C7_15 C 0.7602(3) 0.9201(3) 0.1147(3)
C8_15 C 0.7932(2) 0.9568(2) 0.1142(4)
C9_15 C 0.7682(2) 0.9486(2) 0.1101(2)
C10_15 C 0.7499(2) 0.9662(2) 0.0981(2)
C11_15 C 0.7588(2) 0.9912(2) 0.0929(3)
O11_15 O 0.6071(6) 0.7078(4) 0.0422(4)
O12_15 O 0.6222(3) 0.7009(3) 0.0897(3)
O14_19 O 0.7834(2) 0.8475(2) 0.1065(3)
O21_19 O 0.7715(3) 0.8695(3) 0.0711(3)
O30_15 O 0.6599(4) 0.6915(3) 0.0159(3)
O35_19 O 0.76137(19) 0.85572(19) 0.16128(17)
O44_19 O 0.72403(17) 0.87651(18) 0.15541(19)
O54_19 O 0.78444(17) 0.82789(17) 0.25322(17)
C17_19 C 0.7853(4) 0.8527(3) 0.0830(5)
C18_19 C 0.8527(3) 0.7853(4) 0.0830(5)
C21_19 C 0.8207(4) 0.8207(4) 0.0804(5)
C24_19 C 0.8034(3) 0.8370(3) 0.0664(4)
C25_19 C 0.8370(3) 0.8034(3) 0.0664(4)
C29_19 C 0.8058(4) 0.8379(3) 0.0387(3)
C30_19 C 0.8379(3) 0.8058(4) 0.0387(3)
C33_19 C 0.8226(4) 0.8226(4) 0.0249(6)
C36_15 C 0.6794(5) 0.6794(5) 0.0031(5)
C37_15 C 0.8299(3) 0.9898(3) 0.1147(3)
C38_19 C 0.7398(3) 0.8647(3) 0.1701(3)
C39_19 C 0.6701(3) 0.8647(3) 0.2398(3)
C42_19 C 0.7068(2) 0.8642(4) 0.2068(2)
C44_15 C 0.8014(2) 0.9818(2) 0.1101(2)
C45_19 C 0.7318(2) 0.8601(2) 0.1986(2)
C46_19 C 0.6986(2) 0.8601(2) 0.2318(2)
C50_19 C 0.7501(2) 0.8481(2) 0.2162(2)
C51_19 C 0.7162(2) 0.8481(2) 0.2501(2)
C54_19 C 0.7412(2) 0.8429(3) 0.2412(2)
C56_19 C 0.7614(2) 0.8305(3) 0.2614(2)
O71_27 O 0.66042(14) 0.9839(2) 0.08958(14)
O75_15 O 0.6222(3) 0.6603(3) 0.0491(3)
H2_15 H 0.729816 0.960102 0.0932875
H4_15 H 0.807594 0.942406 0.121225
H12_19 H 0.851741 0.793376 0.0278468
H14_19 H 0.793376 0.851741 0.0278468
H15_19 H 0.821468 0.821468 0.101907
H24_19 H 0.710102 0.843287 0.270184
H40_19 H 0.692406 0.871225 0.192406
H41_19 H 0.770184 0.843287 0.210102
Cd5_15 Cd 0.80576(5) 0.85667(7) 0.94424(5)
O17_15 O 0.6525(2) 0.7166(2) 0.8935(3)
O18_15 O 0.6435(3) 0.8475(2) 0.9666(2)
O24_15 O 0.6305(3) 0.7285(3) 0.9289(3)
O25_15 O 0.6789(3) 0.8695(3) 0.9785(3)
O28_19 O 0.8401(4) 0.8085(3) 0.9841(3)
O29_15 O 0.8085(3) 0.8401(4) 0.9841(3)
C19_15 C 0.7147(4) 0.6473(3) 0.9170(5)
C20_15 C 0.6473(3) 0.7147(4) 0.9170(5)
C22_15 C 0.6793(4) 0.6793(4) 0.9196(5)
C26_15 C 0.6966(3) 0.6630(3) 0.9336(4)
C27_15 C 0.6630(3) 0.6966(3) 0.9336(4)
C31_15 C 0.6942(4) 0.6621(3) 0.9613(3)
C32_15 C 0.6621(3) 0.6942(4) 0.9613(3)
C34_15 C 0.6774(4) 0.6774(4) 0.9751(6)
C35_19 C 0.8206(5) 0.8206(5) 0.9969(5)
O74_19 O 0.8929(6) 0.7922(4) 0.9578(4)
O78_19 O 0.8778(3) 0.8397(3) 0.9509(3)
O79_19 O 0.8778(3) 0.7991(3) 0.9103(3)
H16_15 H 0.648259 0.706624 0.972153
H17_15 H 0.706624 0.648259 0.972153
H18_15 H 0.678532 0.678532 0.898093
O11_16 O 0.1071(6) 0.0422(4) 0.2078(4)
O12_16 O 0.1222(3) 0.0491(3) 0.1603(3)
O17_16 O 0.1525(2) 0.0334(2) 0.3565(3)
O24_16 O 0.1305(3) 0.0215(3) 0.3211(3)
O30_16 O 0.1599(4) 0.0585(3) 0.2341(3)
C19_16 C 0.2147(4) 0.1027(3) 0.3330(5)
C20_16 C 0.1473(3) 0.0353(4) 0.3330(5)
C22_16 C 0.1793(4) 0.0707(4) 0.3304(5)
C26_16 C 0.1966(3) 0.0870(3) 0.3164(4)
C27_16 C 0.1630(3) 0.0534(3) 0.3164(4)
C31_16 C 0.1942(4) 0.0879(3) 0.2887(3)
C32_16 C 0.1621(3) 0.0558(4) 0.2887(3)
C34_16 C 0.1774(4) 0.0726(4) 0.2749(6)
C36_16 C 0.1794(5) 0.0706(5) 0.2469(5)
O75_16 O 0.1222(3) 0.0897(3) 0.2009(3)
H16_16 H 0.148259 0.0433758 0.277847
H17_16 H 0.206624 0.101741 0.277847
H18_16 H 0.178532 0.0714681 0.351907
O4_16 O 0.23863(19) 0.83872(17) 0.14428(19)
O5_16 O 0.27597(17) 0.84459(19) 0.12349(18)
C7_16 C 0.2602(3) 0.8299(3) 0.1353(3)
C8_16 C 0.2932(2) 0.7932(2) 0.1358(4)
C9_16 C 0.2682(2) 0.8014(2) 0.1399(2)
C10_16 C 0.2499(2) 0.7838(2) 0.1519(2)
C11_16 C 0.2588(2) 0.7588(2) 0.1571(3)
C12_16 C 0.2386(2) 0.7386(2) 0.1695(3)
Cd5_16 Cd 0.30576(5) 0.89333(7) 0.30576(5)
O14_20 O 0.2834(2) 0.9025(2) 0.1435(3)
O18_16 O 0.1435(3) 0.9025(2) 0.2834(2)
O21_20 O 0.2715(3) 0.8805(3) 0.1789(3)
O25_16 O 0.1789(3) 0.8805(3) 0.2715(3)
O28_20 O 0.3401(4) 0.9415(3) 0.2659(3)
O29_16 O 0.3085(3) 0.9099(4) 0.2659(3)
O35_20 O 0.26137(19) 0.89428(19) 0.08872(17)
O44_20 O 0.22403(17) 0.87349(18) 0.09459(19)
O52_16 O 0.21556(17) 0.74678(17) 0.17211(17)
C17_20 C 0.2853(4) 0.8973(3) 0.1670(5)
C18_20 C 0.3527(3) 0.9647(4) 0.1670(5)
C21_20 C 0.3207(4) 0.9293(4) 0.1696(5)
C24_20 C 0.3034(3) 0.9130(3) 0.1836(4)
C25_20 C 0.3370(3) 0.9466(3) 0.1836(4)
C29_20 C 0.3058(4) 0.9121(3) 0.2113(3)
C30_20 C 0.3379(3) 0.9442(4) 0.2113(3)
C33_20 C 0.3226(4) 0.9274(4) 0.2251(6)
C35_20 C 0.3206(5) 0.9294(5) 0.2531(5)
C37_16 C 0.3299(3) 0.7602(3) 0.1353(3)
C38_20 C 0.2398(3) 0.8853(3) 0.0799(3)
C39_20 C 0.1701(3) 0.8853(3) 0.0102(3)
C42_20 C 0.2068(2) 0.8858(4) 0.0432(2)
C44_16 C 0.3014(2) 0.7682(2) 0.1399(2)
C45_20 C 0.2318(2) 0.8899(2) 0.0514(2)
C46_20 C 0.1986(2) 0.8899(2) 0.0182(2)
C49_16 C 0.2838(2) 0.7499(2) 0.1519(2)
C50_20 C 0.2501(2) 0.9019(2) 0.0338(2)
C54_20 C 0.2412(2) 0.9071(3) 0.0088(2)
O71_28 O 0.16042(14) 0.7661(2) 0.16042(14)
O74_20 O 0.3929(6) 0.9578(4) 0.2922(4)
O78_20 O 0.3778(3) 0.9103(3) 0.2991(3)
O79_20 O 0.3778(3) 0.9509(3) 0.3397(3)
H2_16 H 0.229816 0.789898 0.156713
H4_16 H 0.307594 0.807594 0.128775
H12_20 H 0.351741 0.956624 0.222153
H14_20 H 0.293376 0.898259 0.222153
H15_20 H 0.321468 0.928532 0.148093
H26_16 H 0.289898 0.729816 0.156713
H40_20 H 0.192406 0.878775 0.0575937
H41_20 H 0.270184 0.906713 0.039898
O54_20 O 0.28444(17) 0.92211(17) 0.99678(17)
C51_20 C 0.2162(2) 0.9019(2) 0.9999(2)
C56_20 C 0.2614(2) 0.9195(3) 0.9886(2)
H24_20 H 0.210102 0.906713 0.979816
O4_17 O 0.10572(19) 0.51137(19) 0.33872(17)
O5_17 O 0.12651(18) 0.47403(17) 0.34459(19)
O6_13 O 0.07789(17) 0.50322(17) 0.21556(17)
O7_13 O 0.05496(17) 0.55496(17) 0.19504(17)
C7_17 C 0.1147(3) 0.4898(3) 0.3299(3)
C8_17 C 0.1142(4) 0.4568(2) 0.2932(2)
C9_17 C 0.1101(2) 0.4818(2) 0.3014(2)
C10_17 C 0.0981(2) 0.5001(2) 0.2838(2)
C11_17 C 0.0929(3) 0.4912(2) 0.2588(2)
C12_17 C 0.0805(3) 0.5114(2) 0.2386(2)
O10_17 O 0.08958(14) 0.4839(2) 0.16042(14)
In5_16 In 0.12028(2) 0.37028(2) 0.2500
O14_21 O 0.1065(3) 0.4666(2) 0.4025(2)
O21_21 O 0.0711(3) 0.4785(3) 0.3805(3)
O34_13 O 0.10572(19) 0.41128(17) 0.23863(19)
O38_29 O 0.01137(19) 0.41128(17) 0.14428(19)
O43_13 O 0.12651(18) 0.40541(19) 0.27597(17)
O52_17 O 0.07789(17) 0.53444(17) 0.24678(17)
O55_17 O 0.03444(17) 0.50322(17) 0.17211(17)
O56_25 O 0.00322(17) 0.53444(17) 0.17211(17)
O57_25 O 0.03444(17) 0.57789(17) 0.24678(17)
O58_17 O 0.32789(17) 0.49678(17) 0.46556(17)
O68_13 O 0.36202(15) 0.46065(18) 0.43016(17)
C17_21 C 0.0830(5) 0.4647(4) 0.3973(3)
C18_21 C 0.0830(5) 0.3973(3) 0.4647(4)
C21_21 C 0.0804(5) 0.4293(4) 0.4293(4)
C24_21 C 0.0664(4) 0.4466(3) 0.4130(3)
C25_21 C 0.0664(4) 0.4130(3) 0.4466(3)
C29_21 C 0.0387(3) 0.4442(4) 0.4121(3)
C30_21 C 0.0387(3) 0.4121(3) 0.4442(4)
C33_21 C 0.0249(6) 0.4274(4) 0.4274(4)
C37_17 C 0.1147(3) 0.4201(3) 0.2602(3)
C44_17 C 0.1101(2) 0.4486(2) 0.2682(2)
C49_17 C 0.0981(2) 0.4662(2) 0.2499(2)
C53_29 C 0.0001(2) 0.4662(2) 0.1519(2)
C57_29 C 0.0114(2) 0.5114(2) 0.1695(3)
O71_29 O 0.08958(14) 0.58958(14) 0.2661(2)
O72_17 O 0.33958(14) 0.5161(2) 0.41042(14)
H2_17 H 0.0932875 0.520184 0.289898
H4_17 H 0.121225 0.442406 0.307594
H12_21 H 0.0278468 0.398259 0.456624
H14_21 H 0.0278468 0.456624 0.398259
H15_21 H 0.101907 0.428532 0.428532
H21_29 H 0.020184 0.460102 0.156713
H26_17 H 0.0932875 0.460102 0.229816
O28_21 O 0.9841(3) 0.4099(4) 0.4415(3)
O37_25 O 0.91128(17) 0.51137(19) 0.14428(19)
O46_25 O 0.90541(19) 0.47403(17) 0.12349(18)
O47_29 O 0.97403(17) 0.40541(19) 0.12349(18)
C35_21 C 0.9969(5) 0.4294(5) 0.4294(5)
C40_29 C 0.9201(3) 0.4898(3) 0.1353(3)
C41_29 C 0.9898(3) 0.4201(3) 0.1353(3)
C43_29 C 0.9568(2) 0.4568(2) 0.1358(4)
C47_29 C 0.9486(2) 0.4818(2) 0.1399(2)
C48_29 C 0.9818(2) 0.4486(2) 0.1399(2)
C52_29 C 0.9662(2) 0.5001(2) 0.1519(2)
C55_29 C 0.9912(2) 0.4912(2) 0.1571(3)
O74_21 O 0.9578(4) 0.3571(6) 0.4578(4)
O78_21 O 0.9509(3) 0.3722(3) 0.4103(3)
O79_21 O 0.9103(3) 0.3722(3) 0.4509(3)
H19_29 H 0.960102 0.520184 0.156713
H35_29 H 0.942406 0.442406 0.128775
O4_18 O 0.14428(19) 0.01137(19) 0.41128(17)
O6_14 O 0.17211(17) 0.00322(17) 0.53444(17)
O7_14 O 0.19504(17) 0.05496(17) 0.55496(17)
C10_18 C 0.1519(2) 0.0001(2) 0.4662(2)
C12_18 C 0.1695(3) 0.0114(2) 0.5114(2)
O37_26 O 0.33872(17) 0.01137(19) 0.60572(19)
O52_18 O 0.17211(17) 0.03444(17) 0.50322(17)
O55_18 O 0.21556(17) 0.00322(17) 0.57789(17)
O56_26 O 0.24678(17) 0.03444(17) 0.57789(17)
O57_26 O 0.21556(17) 0.07789(17) 0.50322(17)
C52_30 C 0.2838(2) 0.0001(2) 0.5981(2)
C57_30 C 0.2386(2) 0.0114(2) 0.5805(3)
O71_30 O 0.16042(14) 0.08958(14) 0.4839(2)
H2_18 H 0.156713 0.020184 0.460102
H19_30 H 0.289898 0.020184 0.593287
O5_18 O 0.12349(18) 0.97403(17) 0.40541(19)
C7_18 C 0.1353(3) 0.9898(3) 0.4201(3)
C8_18 C 0.1358(4) 0.9568(2) 0.4568(2)
C9_18 C 0.1399(2) 0.9818(2) 0.4486(2)
C11_18 C 0.1571(3) 0.9912(2) 0.4912(2)
O10_18 O 0.16042(14) 0.9839(2) 0.58958(14)
In5_17 In 0.12972(2) 0.87028(2) 0.5000
O14_22 O 0.1435(3) 0.9666(2) 0.3475(2)
O21_22 O 0.1789(3) 0.9785(3) 0.3695(3)
O28_22 O 0.2659(3) 0.9099(4) 0.3085(3)
O34_14 O 0.14428(19) 0.91128(17) 0.51137(19)
O38_30 O 0.23863(19) 0.91128(17) 0.60572(19)
O43_14 O 0.12349(18) 0.90541(19) 0.47403(17)
O46_26 O 0.34459(19) 0.97403(17) 0.62651(18)
O47_30 O 0.27597(17) 0.90541(19) 0.62651(18)
C17_22 C 0.1670(5) 0.9647(4) 0.3527(3)
C18_22 C 0.1670(5) 0.8973(3) 0.2853(4)
C21_22 C 0.1696(5) 0.9293(4) 0.3207(4)
C24_22 C 0.1836(4) 0.9466(3) 0.3370(3)
C25_22 C 0.1836(4) 0.9130(3) 0.3034(3)
C29_22 C 0.2113(3) 0.9442(4) 0.3379(3)
C30_22 C 0.2113(3) 0.9121(3) 0.3058(4)
C33_22 C 0.2251(6) 0.9274(4) 0.3226(4)
C35_22 C 0.2531(5) 0.9294(5) 0.3206(5)
C37_18 C 0.1353(3) 0.9201(3) 0.4898(3)
C40_30 C 0.3299(3) 0.9898(3) 0.6147(3)
C41_30 C 0.2602(3) 0.9201(3) 0.6147(3)
C43_30 C 0.2932(2) 0.9568(2) 0.6142(4)
C44_18 C 0.1399(2) 0.9486(2) 0.4818(2)
C47_30 C 0.3014(2) 0.9818(2) 0.6101(2)
C48_30 C 0.2682(2) 0.9486(2) 0.6101(2)
C49_18 C 0.1519(2) 0.9662(2) 0.5001(2)
C53_30 C 0.2499(2) 0.9662(2) 0.5981(2)
C55_30 C 0.2588(2) 0.9912(2) 0.5929(3)
O74_22 O 0.2922(4) 0.8571(6) 0.2922(4)
O78_22 O 0.2991(3) 0.8722(3) 0.3397(3)
O79_22 O 0.3397(3) 0.8722(3) 0.2991(3)
H4_18 H 0.128775 0.942406 0.442406
H12_22 H 0.222153 0.898259 0.293376
H14_22 H 0.222153 0.956624 0.351741
H15_22 H 0.148093 0.928532 0.321468
H21_30 H 0.229816 0.960102 0.593287
H26_18 H 0.156713 0.960102 0.520184
H35_30 H 0.307594 0.942406 0.621225
O72_18 O 0.91042(14) 0.0161(2) 0.33958(14)
O58_18 O 0.92211(17) 0.99678(17) 0.28444(17)
O68_14 O 0.88798(15) 0.96065(18) 0.31984(17)
O6_15 O 0.57789(17) 0.24678(17) 0.03444(17)
O7_15 O 0.55496(17) 0.19504(17) 0.05496(17)
C12_19 C 0.5805(3) 0.2386(2) 0.0114(2)
O10_19 O 0.58958(14) 0.2661(2) 0.08958(14)
In5_18 In 0.62028(2) 0.37972(2) -0.0000
O34_15 O 0.60572(19) 0.33872(17) 0.01137(19)
O37_27 O 0.41128(17) 0.23863(19) 0.10572(19)
O38_31 O 0.51137(19) 0.33872(17) 0.10572(19)
O46_27 O 0.40541(19) 0.27597(17) 0.12651(18)
O47_31 O 0.47403(17) 0.34459(19) 0.12651(18)
O52_19 O 0.57789(17) 0.21556(17) 0.00322(17)
O55_19 O 0.53444(17) 0.24678(17) 0.07789(17)
O56_27 O 0.50322(17) 0.21556(17) 0.07789(17)
O57_27 O 0.53444(17) 0.17211(17) 0.00322(17)
C40_31 C 0.4201(3) 0.2602(3) 0.1147(3)
C41_31 C 0.4898(3) 0.3299(3) 0.1147(3)
C43_31 C 0.4568(2) 0.2932(2) 0.1142(4)
C47_31 C 0.4486(2) 0.2682(2) 0.1101(2)
C48_31 C 0.4818(2) 0.3014(2) 0.1101(2)
C49_19 C 0.5981(2) 0.2838(2) 0.0001(2)
C52_31 C 0.4662(2) 0.2499(2) 0.0981(2)
C53_31 C 0.5001(2) 0.2838(2) 0.0981(2)
C55_31 C 0.4912(2) 0.2588(2) 0.0929(3)
C57_31 C 0.5114(2) 0.2386(2) 0.0805(3)
H19_31 H 0.460102 0.229816 0.0932875
H21_31 H 0.520184 0.289898 0.0932875
H26_19 H 0.593287 0.289898 0.020184
H35_31 H 0.442406 0.307594 0.121225
O4_19 O 0.60572(19) 0.23863(19) 0.91128(17)
O5_19 O 0.62651(18) 0.27597(17) 0.90541(19)
C7_19 C 0.6147(3) 0.2602(3) 0.9201(3)
C8_19 C 0.6142(4) 0.2932(2) 0.9568(2)
C9_19 C 0.6101(2) 0.2682(2) 0.9486(2)
C10_19 C 0.5981(2) 0.2499(2) 0.9662(2)
C11_19 C 0.5929(3) 0.2588(2) 0.9912(2)
In5_19 In 0.62028(2) 0.37972(2) 1.0000
O14_23 O 0.6065(3) 0.2834(2) 0.8475(2)
O21_23 O 0.5711(3) 0.2715(3) 0.8695(3)
O28_23 O 0.4841(3) 0.3401(4) 0.8085(3)
O43_15 O 0.62651(18) 0.34459(19) 0.97403(17)
O58_19 O 0.82789(17) 0.25322(17) 0.78444(17)
O68_15 O 0.86202(15) 0.28935(18) 0.81984(17)
C17_23 C 0.5830(5) 0.2853(4) 0.8527(3)
C18_23 C 0.5830(5) 0.3527(3) 0.7853(4)
C21_23 C 0.5804(5) 0.3207(4) 0.8207(4)
C24_23 C 0.5664(4) 0.3034(3) 0.8370(3)
C25_23 C 0.5664(4) 0.3370(3) 0.8034(3)
C29_23 C 0.5387(3) 0.3058(4) 0.8379(3)
C30_23 C 0.5387(3) 0.3379(3) 0.8058(4)
C33_23 C 0.5249(6) 0.3226(4) 0.8226(4)
C35_23 C 0.4969(5) 0.3206(5) 0.8206(5)
C37_19 C 0.6147(3) 0.3299(3) 0.9898(3)
C44_19 C 0.6101(2) 0.3014(2) 0.9818(2)
O71_31 O 0.58958(14) 0.16042(14) 0.9839(2)
O72_19 O 0.83958(14) 0.2339(2) 0.83958(14)
O74_23 O 0.4578(4) 0.3929(6) 0.7922(4)
O78_23 O 0.4509(3) 0.3778(3) 0.8397(3)
O79_23 O 0.4103(3) 0.3778(3) 0.7991(3)
H2_19 H 0.593287 0.229816 0.960102
H4_19 H 0.621225 0.307594 0.942406
H12_23 H 0.527847 0.351741 0.793376
H14_23 H 0.527847 0.293376 0.851741
H15_23 H 0.601907 0.321468 0.821468
O4_20 O 0.64428(19) 0.73863(19) 0.83872(17)
O5_20 O 0.62349(18) 0.77597(17) 0.84459(19)
O6_16 O 0.67211(17) 0.74678(17) 0.71556(17)
O7_16 O 0.69504(17) 0.69504(17) 0.69504(17)
C7_20 C 0.6353(3) 0.7602(3) 0.8299(3)
C8_20 C 0.6358(4) 0.7932(2) 0.7932(2)
C9_20 C 0.6399(2) 0.7682(2) 0.8014(2)
C10_20 C 0.6519(2) 0.7499(2) 0.7838(2)
C11_20 C 0.6571(3) 0.7588(2) 0.7588(2)
C12_20 C 0.6695(3) 0.7386(2) 0.7386(2)
O10_20 O 0.66042(14) 0.7661(2) 0.66042(14)
In5_20 In 0.62972(2) 0.87972(2) 0.7500
O14_24 O 0.6435(3) 0.7834(2) 0.9025(2)
O21_24 O 0.6789(3) 0.7715(3) 0.8805(3)
O28_24 O 0.7659(3) 0.8401(4) 0.9415(3)
O34_16 O 0.64428(19) 0.83872(17) 0.73863(19)
O37_28 O 0.83872(17) 0.73863(19) 0.64428(19)
O38_32 O 0.73863(19) 0.83872(17) 0.64428(19)
O43_16 O 0.62349(18) 0.84459(19) 0.77597(17)
O46_28 O 0.84459(19) 0.77597(17) 0.62349(18)
O47_32 O 0.77597(17) 0.84459(19) 0.62349(18)
O52_20 O 0.67211(17) 0.71556(17) 0.74678(17)
O55_20 O 0.71556(17) 0.74678(17) 0.67211(17)
O56_28 O 0.74678(17) 0.71556(17) 0.67211(17)
O57_28 O 0.71556(17) 0.67211(17) 0.74678(17)
O58_20 O 0.42211(17) 0.75322(17) 0.96556(17)
O68_16 O 0.38798(15) 0.78935(18) 0.93016(17)
C17_24 C 0.6670(5) 0.7853(4) 0.8973(3)
C18_24 C 0.6670(5) 0.8527(3) 0.9647(4)
C21_24 C 0.6696(5) 0.8207(4) 0.9293(4)
C24_24 C 0.6836(4) 0.8034(3) 0.9130(3)
C25_24 C 0.6836(4) 0.8370(3) 0.9466(3)
C29_24 C 0.7113(3) 0.8058(4) 0.9121(3)
C30_24 C 0.7113(3) 0.8379(3) 0.9442(4)
C33_24 C 0.7251(6) 0.8226(4) 0.9274(4)
C35_24 C 0.7531(5) 0.8206(5) 0.9294(5)
C37_20 C 0.6353(3) 0.8299(3) 0.7602(3)
C40_32 C 0.8299(3) 0.7602(3) 0.6353(3)
C41_32 C 0.7602(3) 0.8299(3) 0.6353(3)
C43_32 C 0.7932(2) 0.7932(2) 0.6358(4)
C44_20 C 0.6399(2) 0.8014(2) 0.7682(2)
C47_32 C 0.8014(2) 0.7682(2) 0.6399(2)
C48_32 C 0.7682(2) 0.8014(2) 0.6399(2)
C49_20 C 0.6519(2) 0.7838(2) 0.7499(2)
C52_32 C 0.7838(2) 0.7499(2) 0.6519(2)
C53_32 C 0.7499(2) 0.7838(2) 0.6519(2)
C55_32 C 0.7588(2) 0.7588(2) 0.6571(3)
C57_32 C 0.7386(2) 0.7386(2) 0.6695(3)
O71_32 O 0.66042(14) 0.66042(14) 0.7661(2)
O72_20 O 0.41042(14) 0.7339(2) 0.91042(14)
O74_24 O 0.7922(4) 0.8929(6) 0.9578(4)
O78_24 O 0.7991(3) 0.8778(3) 0.9103(3)
O79_24 O 0.8397(3) 0.8778(3) 0.9509(3)
H2_20 H 0.656713 0.729816 0.789898
H4_20 H 0.628775 0.807594 0.807594
H12_24 H 0.722153 0.851741 0.956624
H14_24 H 0.722153 0.793376 0.898259
H15_24 H 0.648093 0.821468 0.928532
H19_32 H 0.789898 0.729816 0.656713
H21_32 H 0.729816 0.789898 0.656713
H26_20 H 0.656713 0.789898 0.729816
H35_32 H 0.807594 0.807594 0.628775
O38_33 O 0.76137(19) 0.39428(19) 0.08872(17)
O46_29 O 0.65541(19) 0.37349(18) 0.02597(17)
O47_33 O 0.72403(17) 0.37349(18) 0.09459(19)
C40_33 C 0.6701(3) 0.3853(3) 0.0102(3)
C41_33 C 0.7398(3) 0.3853(3) 0.0799(3)
C43_33 C 0.7068(2) 0.3858(4) 0.0432(2)
C47_33 C 0.6986(2) 0.3899(2) 0.0182(2)
C48_33 C 0.7318(2) 0.3899(2) 0.0514(2)
C53_33 C 0.7501(2) 0.4019(2) 0.0338(2)
C55_33 C 0.7412(2) 0.4071(3) 0.0088(2)
H21_33 H 0.770184 0.406713 0.039898
H35_33 H 0.692406 0.378775 0.0575937
O37_29 O 0.66128(17) 0.39428(19) 0.98863(19)
O56_29 O 0.75322(17) 0.42211(17) 0.96556(17)
O57_29 O 0.78444(17) 0.49678(17) 0.92211(17)
C52_33 C 0.7162(2) 0.4019(2) 0.9999(2)
C57_33 C 0.7614(2) 0.4195(3) 0.9886(2)
O71_33 O 0.83958(14) 0.5161(2) 0.91042(14)
H19_33 H 0.710102 0.406713 0.979816
O37_30 O 0.08872(17) 0.85572(19) 0.48863(19)
O46_30 O 0.09459(19) 0.87651(18) 0.52597(17)
O47_34 O 0.02597(17) 0.87651(18) 0.59459(19)
C40_34 C 0.0799(3) 0.8647(3) 0.5102(3)
C41_34 C 0.0102(3) 0.8647(3) 0.5799(3)
C43_34 C 0.0432(2) 0.8642(4) 0.5432(2)
C47_34 C 0.0514(2) 0.8601(2) 0.5182(2)
C48_34 C 0.0182(2) 0.8601(2) 0.5514(2)
C52_34 C 0.0338(2) 0.8481(2) 0.4999(2)
C55_34 C 0.0088(2) 0.8429(3) 0.5088(2)
H19_34 H 0.039898 0.843287 0.479816
H35_34 H 0.0575937 0.871225 0.557594
O38_34 O 0.98863(19) 0.85572(19) 0.58872(17)
O56_30 O 0.99678(17) 0.82789(17) 0.46556(17)
O57_30 O 0.96556(17) 0.75322(17) 0.42211(17)
C53_34 C 0.9999(2) 0.8481(2) 0.5338(2)
C57_34 C 0.9886(2) 0.8305(3) 0.4886(2)
O71_34 O 0.91042(14) 0.7339(2) 0.41042(14)
H21_34 H 0.979816 0.843287 0.539898
O37_31 O 0.16128(17) 0.35572(19) 0.26137(19)
O38_35 O 0.26137(19) 0.35572(19) 0.16128(17)
O46_31 O 0.15541(19) 0.37651(18) 0.22403(17)
O47_35 O 0.22403(17) 0.37651(18) 0.15541(19)
O56_31 O 0.25322(17) 0.32789(17) 0.28444(17)
O57_31 O 0.28444(17) 0.25322(17) 0.32789(17)
C40_35 C 0.1701(3) 0.3647(3) 0.2398(3)
C41_35 C 0.2398(3) 0.3647(3) 0.1701(3)
C43_35 C 0.2068(2) 0.3642(4) 0.2068(2)
C47_35 C 0.1986(2) 0.3601(2) 0.2318(2)
C48_35 C 0.2318(2) 0.3601(2) 0.1986(2)
C52_35 C 0.2162(2) 0.3481(2) 0.2501(2)
C53_35 C 0.2501(2) 0.3481(2) 0.2162(2)
C55_35 C 0.2412(2) 0.3429(3) 0.2412(2)
C57_35 C 0.2614(2) 0.3305(3) 0.2614(2)
O71_35 O 0.33958(14) 0.2339(2) 0.33958(14)
H19_35 H 0.210102 0.343287 0.270184
H21_35 H 0.270184 0.343287 0.210102
H35_35 H 0.192406 0.371225 0.192406
O71_36 O 0.41042(14) 0.0161(2) 0.83958(14)
O37_32 O 0.58872(17) 0.89428(19) 0.76137(19)
O38_36 O 0.48863(19) 0.89428(19) 0.66128(17)
O46_32 O 0.59459(19) 0.87349(18) 0.72403(17)
O47_36 O 0.52597(17) 0.87349(18) 0.65541(19)
O56_32 O 0.49678(17) 0.92211(17) 0.78444(17)
O57_32 O 0.46556(17) 0.99678(17) 0.82789(17)
C40_36 C 0.5799(3) 0.8853(3) 0.7398(3)
C41_36 C 0.5102(3) 0.8853(3) 0.6701(3)
C43_36 C 0.5432(2) 0.8858(4) 0.7068(2)
C47_36 C 0.5514(2) 0.8899(2) 0.7318(2)
C48_36 C 0.5182(2) 0.8899(2) 0.6986(2)
C52_36 C 0.5338(2) 0.9019(2) 0.7501(2)
C53_36 C 0.4999(2) 0.9019(2) 0.7162(2)
C55_36 C 0.5088(2) 0.9071(3) 0.7412(2)
C57_36 C 0.4886(2) 0.9195(3) 0.7614(2)
H19_36 H 0.539898 0.906713 0.770184
H21_36 H 0.479816 0.906713 0.710102
H35_36 H 0.557594 0.878775 0.692406
In8_36 In 0.37972(2) 0.62028(2) 0.0000
O47_37 O 0.37349(18) 0.65541(19) 0.02597(17)
C40_37 C 0.3853(3) 0.7398(3) 0.0799(3)
C41_37 C 0.3853(3) 0.6701(3) 0.0102(3)
C43_37 C 0.3858(4) 0.7068(2) 0.0432(2)
C47_37 C 0.3899(2) 0.7318(2) 0.0514(2)
C48_37 C 0.3899(2) 0.6986(2) 0.0182(2)
C52_37 C 0.4019(2) 0.7501(2) 0.0338(2)
C55_37 C 0.4071(3) 0.7412(2) 0.0088(2)
H19_37 H 0.406713 0.770184 0.039898
H35_37 H 0.378775 0.692406 0.0575937
C13_29 C 0.3784(3) 0.8087(2) 0.9413(2)
C14_29 C 0.3540(3) 0.8191(2) 0.9309(2)
C15_29 C 0.3427(2) 0.8089(3) 0.9073(2)
In8_37 In 0.37972(2) 0.62028(2) 1.0000
O38_37 O 0.39428(19) 0.66128(17) 0.98863(19)
O61_29 O 0.28935(18) 0.81984(17) 0.86202(15)
O63_21 O 0.31984(17) 0.88798(15) 0.96065(18)
C53_37 C 0.4019(2) 0.7162(2) 0.9999(2)
C57_37 C 0.4195(3) 0.7614(2) 0.9886(2)
C58_29 C 0.3087(2) 0.8087(2) 0.8716(3)
C59_29 C 0.3087(2) 0.8784(3) 0.9413(2)
C60_29 C 0.3191(2) 0.8191(2) 0.8960(3)
C61_29 C 0.3191(2) 0.8540(3) 0.9309(2)
C62_29 C 0.3089(3) 0.8427(2) 0.9073(2)
C63_29 C 0.3427(2) 0.8427(2) 0.9411(3)
H5_29 H 0.35258 0.792514 0.89742
H20_29 H 0.35258 0.85258 0.957486
H21_37 H 0.406713 0.710102 0.979816
H25_29 H 0.292514 0.85258 0.89742
C13_30 C 0.8716(3) 0.3087(2) 0.8087(2)
C14_30 C 0.8960(3) 0.3191(2) 0.8191(2)
C15_30 C 0.9073(2) 0.3089(3) 0.8427(2)
In8_38 In 0.87028(2) 0.12028(2) 0.7500
O38_38 O 0.85572(19) 0.16128(17) 0.76137(19)
O47_38 O 0.87651(18) 0.15541(19) 0.72403(17)
O61_30 O 0.96065(18) 0.31984(17) 0.88798(15)
O63_22 O 0.93016(17) 0.38798(15) 0.78935(18)
C40_38 C 0.8647(3) 0.2398(3) 0.6701(3)
C41_38 C 0.8647(3) 0.1701(3) 0.7398(3)
C43_38 C 0.8642(4) 0.2068(2) 0.7068(2)
C47_38 C 0.8601(2) 0.2318(2) 0.6986(2)
C48_38 C 0.8601(2) 0.1986(2) 0.7318(2)
C52_38 C 0.8481(2) 0.2501(2) 0.7162(2)
C53_38 C 0.8481(2) 0.2162(2) 0.7501(2)
C55_38 C 0.8429(3) 0.2412(2) 0.7412(2)
C57_38 C 0.8305(3) 0.2614(2) 0.7614(2)
C58_30 C 0.9413(2) 0.3087(2) 0.8784(3)
C59_30 C 0.9413(2) 0.3784(3) 0.8087(2)
C60_30 C 0.9309(2) 0.3191(2) 0.8540(3)
C61_30 C 0.9309(2) 0.3540(3) 0.8191(2)
C62_30 C 0.9411(3) 0.3427(2) 0.8427(2)
C63_30 C 0.9073(2) 0.3427(2) 0.8089(3)
H5_30 H 0.89742 0.292514 0.85258
H19_38 H 0.843287 0.270184 0.710102
H20_30 H 0.89742 0.35258 0.792514
H21_38 H 0.843287 0.210102 0.770184
H25_30 H 0.957486 0.35258 0.85258
H35_38 H 0.871225 0.192406 0.692406
C13_31 C 0.3716(3) 0.4413(2) 0.4413(2)
C14_31 C 0.3960(3) 0.4309(2) 0.4309(2)
C15_31 C 0.4073(2) 0.4411(3) 0.4073(2)
In8_39 In 0.37028(2) 0.62972(2) 0.5000
O38_39 O 0.35572(19) 0.58872(17) 0.48863(19)
O47_39 O 0.37651(18) 0.59459(19) 0.52597(17)
O61_31 O 0.46065(18) 0.43016(17) 0.36202(15)
O63_23 O 0.43016(17) 0.36202(15) 0.46065(18)
C40_39 C 0.3647(3) 0.5102(3) 0.5799(3)
C41_39 C 0.3647(3) 0.5799(3) 0.5102(3)
C43_39 C 0.3642(4) 0.5432(2) 0.5432(2)
C47_39 C 0.3601(2) 0.5182(2) 0.5514(2)
C48_39 C 0.3601(2) 0.5514(2) 0.5182(2)
C52_39 C 0.3481(2) 0.4999(2) 0.5338(2)
C53_39 C 0.3481(2) 0.5338(2) 0.4999(2)
C55_39 C 0.3429(3) 0.5088(2) 0.5088(2)
C57_39 C 0.3305(3) 0.4886(2) 0.4886(2)
C58_31 C 0.4413(2) 0.4413(2) 0.3716(3)
C59_31 C 0.4413(2) 0.3716(3) 0.4413(2)
C60_31 C 0.4309(2) 0.4309(2) 0.3960(3)
C61_31 C 0.4309(2) 0.3960(3) 0.4309(2)
C62_31 C 0.4411(3) 0.4073(2) 0.4073(2)
C63_31 C 0.4073(2) 0.4073(2) 0.4411(3)
H5_31 H 0.39742 0.457486 0.39742
H19_39 H 0.343287 0.479816 0.539898
H20_31 H 0.39742 0.39742 0.457486
H21_39 H 0.343287 0.539898 0.479816
H25_31 H 0.457486 0.39742 0.39742
H35_39 H 0.371225 0.557594 0.557594
In8_40 In 0.87972(2) 0.12972(2) 0.2500
O38_40 O 0.89428(19) 0.08872(17) 0.26137(19)
O47_40 O 0.87349(18) 0.09459(19) 0.22403(17)
C40_40 C 0.8853(3) 0.0102(3) 0.1701(3)
C41_40 C 0.8853(3) 0.0799(3) 0.2398(3)
C43_40 C 0.8858(4) 0.0432(2) 0.2068(2)
C47_40 C 0.8899(2) 0.0182(2) 0.1986(2)
C48_40 C 0.8899(2) 0.0514(2) 0.2318(2)
C53_40 C 0.9019(2) 0.0338(2) 0.2501(2)
C55_40 C 0.9071(3) 0.0088(2) 0.2412(2)
H21_40 H 0.906713 0.039898 0.270184
H35_40 H 0.878775 0.0575937 0.192406
C13_32 C 0.8784(3) 0.9413(2) 0.3087(2)
C14_32 C 0.8540(3) 0.9309(2) 0.3191(2)
C15_32 C 0.8427(2) 0.9411(3) 0.3427(2)
O61_32 O 0.78935(18) 0.93016(17) 0.38798(15)
O63_24 O 0.81984(17) 0.86202(15) 0.28935(18)
C52_40 C 0.9019(2) 0.9999(2) 0.2162(2)
C57_40 C 0.9195(3) 0.9886(2) 0.2614(2)
C58_32 C 0.8087(2) 0.9413(2) 0.3784(3)
C59_32 C 0.8087(2) 0.8716(3) 0.3087(2)
C60_32 C 0.8191(2) 0.9309(2) 0.3540(3)
C61_32 C 0.8191(2) 0.8960(3) 0.3191(2)
C62_32 C 0.8089(3) 0.9073(2) 0.3427(2)
C63_32 C 0.8427(2) 0.9073(2) 0.3089(3)
H5_32 H 0.85258 0.957486 0.35258
H19_40 H 0.906713 0.979816 0.210102
H20_32 H 0.85258 0.89742 0.292514
H25_32 H 0.792514 0.89742 0.35258
O71_37 O 0.83958(14) 0.83958(14) 0.2339(2)
O71_38 O 0.33958(14) 0.91042(14) 0.0161(2)
O71_39 O 0.41042(14) 0.33958(14) 0.5161(2)
O71_40 O 0.91042(14) 0.41042(14) 0.7339(2)
Cd1_9 Cd 0.55576(5) 0.05576(5) 0.60667(7)
O1_9 O 0.3935(3) 0.0975(2) 0.5334(2)
O2_9 O 0.4289(3) 0.1195(3) 0.5215(3)
O3_9 O 0.5159(3) 0.0585(3) 0.5901(4)
O4_21 O 0.33872(17) 0.10572(19) 0.51137(19)
O5_21 O 0.34459(19) 0.12651(18) 0.47403(17)
O9_9 O 0.5744(3) 0.0744(3) 0.5744(3)
C1_9 C 0.4170(5) 0.1027(3) 0.5353(4)
C2_9 C 0.4196(5) 0.0707(4) 0.5707(4)
C3_9 C 0.4336(4) 0.0870(3) 0.5534(3)
C4_9 C 0.4613(3) 0.0879(3) 0.5558(4)
C5_9 C 0.4751(6) 0.0726(4) 0.5726(4)
C6_9 C 0.5031(5) 0.0706(5) 0.5706(5)
C7_21 C 0.3299(3) 0.1147(3) 0.4898(3)
C8_21 C 0.2932(2) 0.1142(4) 0.4568(2)
C9_21 C 0.3014(2) 0.1101(2) 0.4818(2)
C10_21 C 0.2838(2) 0.0981(2) 0.5001(2)
C11_21 C 0.2588(2) 0.0929(3) 0.4912(2)
C12_21 C 0.2386(2) 0.0805(3) 0.5114(2)
O11_17 O 0.5422(4) 0.0422(4) 0.6429(6)
O12_17 O 0.5491(3) 0.0897(3) 0.6278(3)
Cd2_9 Cd 0.55576(5) 0.10667(7) 0.55576(5)
Cd4_9 Cd 0.60667(7) 0.05576(5) 0.55576(5)
O13_9 O 0.3935(3) 0.0334(2) 0.5975(2)
O14_25 O 0.4025(2) 0.1065(3) 0.4666(2)
O15_9 O 0.4666(2) 0.1065(3) 0.4025(2)
O19_9 O 0.5334(2) 0.0975(2) 0.3935(3)
O20_9 O 0.4289(3) 0.0215(3) 0.6195(3)
O21_25 O 0.3805(3) 0.0711(3) 0.4785(3)
O22_9 O 0.4785(3) 0.0711(3) 0.3805(3)
O26_9 O 0.5215(3) 0.1195(3) 0.4289(3)
O27_9 O 0.5159(3) 0.0901(4) 0.5585(3)
O30_17 O 0.5585(3) 0.0159(3) 0.5901(4)
O31_9 O 0.5901(4) 0.0159(3) 0.5585(3)
O32_9 O 0.5585(3) 0.0901(4) 0.5159(3)
O52_21 O 0.24678(17) 0.07789(17) 0.53444(17)
C16_9 C 0.4170(5) 0.0353(4) 0.6027(3)
C17_25 C 0.3973(3) 0.0830(5) 0.4647(4)
C18_25 C 0.4647(4) 0.0830(5) 0.3973(3)
C21_25 C 0.4293(4) 0.0804(5) 0.4293(4)
C23_9 C 0.4336(4) 0.0534(3) 0.5870(3)
C24_25 C 0.4130(3) 0.0664(4) 0.4466(3)
C25_25 C 0.4466(3) 0.0664(4) 0.4130(3)
C28_9 C 0.4613(3) 0.0558(4) 0.5879(3)
C29_25 C 0.4121(3) 0.0387(3) 0.4442(4)
C30_25 C 0.4442(4) 0.0387(3) 0.4121(3)
C33_25 C 0.4274(4) 0.0249(6) 0.4274(4)
C36_17 C 0.5706(5) 0.0031(5) 0.5706(5)
C37_21 C 0.2602(3) 0.1147(3) 0.4201(3)
C44_21 C 0.2682(2) 0.1101(2) 0.4486(2)
C49_21 C 0.2499(2) 0.0981(2) 0.4662(2)
O71_41 O 0.2661(2) 0.08958(14) 0.58958(14)
O73_9 O 0.5422(4) 0.1429(6) 0.5422(4)
O75_17 O 0.5897(3) 0.0491(3) 0.6278(3)
O76_9 O 0.5491(3) 0.1278(3) 0.5897(3)
O77_9 O 0.5897(3) 0.1278(3) 0.5491(3)
H1_9 H 0.398093 0.0714681 0.571468
H2_21 H 0.289898 0.0932875 0.520184
H3_9 H 0.472153 0.101741 0.543376
H4_21 H 0.307594 0.121225 0.442406
H12_25 H 0.456624 0.0278468 0.398259
H13_9 H 0.472153 0.0433758 0.601741
H14_25 H 0.398259 0.0278468 0.456624
H15_25 H 0.428532 0.101907 0.428532
H26_21 H 0.229816 0.0932875 0.460102
Cd3_9 Cd 0.44424(5) 0.94424(5) 0.39333(7)
Cd5_17 Cd 0.39333(7) 0.94424(5) 0.44424(5)
O16_9 O 0.5975(2) 0.8935(3) 0.5334(2)
O17_17 O 0.5334(2) 0.8935(3) 0.5975(2)
O18_17 O 0.4025(2) 0.9666(2) 0.6065(3)
O23_9 O 0.6195(3) 0.9289(3) 0.5215(3)
O24_17 O 0.5215(3) 0.9289(3) 0.6195(3)
O25_17 O 0.3805(3) 0.9785(3) 0.5711(3)
O28_25 O 0.4415(3) 0.9841(3) 0.4099(4)
O29_17 O 0.4099(4) 0.9841(3) 0.4415(3)
O33_9 O 0.4841(3) 0.9415(3) 0.4099(4)
O70_9 O 0.4256(3) 0.9256(3) 0.4256(3)
C19_17 C 0.6027(3) 0.9170(5) 0.5353(4)
C20_17 C 0.5353(4) 0.9170(5) 0.6027(3)
C22_17 C 0.5707(4) 0.9196(5) 0.5707(4)
C26_17 C 0.5870(3) 0.9336(4) 0.5534(3)
C27_17 C 0.5534(3) 0.9336(4) 0.5870(3)
C31_17 C 0.5879(3) 0.9613(3) 0.5558(4)
C32_17 C 0.5558(4) 0.9613(3) 0.5879(3)
C34_17 C 0.5726(4) 0.9751(6) 0.5726(4)
C35_25 C 0.4294(5) 0.9969(5) 0.4294(5)
O74_25 O 0.4578(4) 0.9578(4) 0.3571(6)
O78_25 O 0.4103(3) 0.9509(3) 0.3722(3)
O79_25 O 0.4509(3) 0.9103(3) 0.3722(3)
H16_17 H 0.543376 0.972153 0.601741
H17_17 H 0.601741 0.972153 0.543376
H18_17 H 0.571468 0.898093 0.571468
Cd1_10 Cd 0.19424(5) 0.19424(5) 0.10667(7)
O1_10 O 0.3565(3) 0.1525(2) 0.0334(2)
O2_10 O 0.3211(3) 0.1305(3) 0.0215(3)
O3_10 O 0.2341(3) 0.1915(3) 0.0901(4)
O4_22 O 0.41128(17) 0.14428(19) 0.01137(19)
O9_10 O 0.1756(3) 0.1756(3) 0.0744(3)
C1_10 C 0.3330(5) 0.1473(3) 0.0353(4)
C2_10 C 0.3304(5) 0.1793(4) 0.0707(4)
C3_10 C 0.3164(4) 0.1630(3) 0.0534(3)
C4_10 C 0.2887(3) 0.1621(3) 0.0558(4)
C5_10 C 0.2749(6) 0.1774(4) 0.0726(4)
C6_10 C 0.2469(5) 0.1794(5) 0.0706(5)
C10_22 C 0.4662(2) 0.1519(2) 0.0001(2)
C12_22 C 0.5114(2) 0.1695(3) 0.0114(2)
O11_18 O 0.2078(4) 0.2078(4) 0.1429(6)
O12_18 O 0.2009(3) 0.1603(3) 0.1278(3)
Cd2_10 Cd 0.19424(5) 0.14333(7) 0.05576(5)
Cd4_10 Cd 0.14333(7) 0.19424(5) 0.05576(5)
O13_10 O 0.3565(3) 0.2166(2) 0.0975(2)
O16_10 O 0.1525(2) 0.3565(3) 0.0334(2)
O17_18 O 0.2166(2) 0.3565(3) 0.0975(2)
O18_18 O 0.3475(2) 0.2834(2) 0.1065(3)
O20_10 O 0.3211(3) 0.2285(3) 0.1195(3)
O23_10 O 0.1305(3) 0.3211(3) 0.0215(3)
O24_18 O 0.2285(3) 0.3211(3) 0.1195(3)
O25_18 O 0.3695(3) 0.2715(3) 0.0711(3)
O27_10 O 0.2341(3) 0.1599(4) 0.0585(3)
O30_18 O 0.1915(3) 0.2341(3) 0.0901(4)
O31_10 O 0.1599(4) 0.2341(3) 0.0585(3)
O32_10 O 0.1915(3) 0.1599(4) 0.0159(3)
O52_22 O 0.50322(17) 0.17211(17) 0.03444(17)
C16_10 C 0.3330(5) 0.2147(4) 0.1027(3)
C19_18 C 0.1473(3) 0.3330(5) 0.0353(4)
C20_18 C 0.2147(4) 0.3330(5) 0.1027(3)
C22_18 C 0.1793(4) 0.3304(5) 0.0707(4)
C23_10 C 0.3164(4) 0.1966(3) 0.0870(3)
C26_18 C 0.1630(3) 0.3164(4) 0.0534(3)
C27_18 C 0.1966(3) 0.3164(4) 0.0870(3)
C28_10 C 0.2887(3) 0.1942(4) 0.0879(3)
C31_18 C 0.1621(3) 0.2887(3) 0.0558(4)
C32_18 C 0.1942(4) 0.2887(3) 0.0879(3)
C34_18 C 0.1774(4) 0.2749(6) 0.0726(4)
C36_18 C 0.1794(5) 0.2469(5) 0.0706(5)
O71_42 O 0.4839(2) 0.16042(14) 0.08958(14)
O73_10 O 0.2078(4) 0.1071(6) 0.0422(4)
O75_18 O 0.1603(3) 0.2009(3) 0.1278(3)
O76_10 O 0.2009(3) 0.1222(3) 0.0897(3)
O77_10 O 0.1603(3) 0.1222(3) 0.0491(3)
H1_10 H 0.351907 0.178532 0.0714681
H2_22 H 0.460102 0.156713 0.020184
H3_10 H 0.277847 0.148259 0.0433758
H13_10 H 0.277847 0.206624 0.101741
H16_18 H 0.206624 0.277847 0.101741
H17_18 H 0.148259 0.277847 0.0433758
H18_18 H 0.178532 0.351907 0.0714681
O5_22 O 0.40541(19) 0.12349(18) 0.97403(17)
C7_22 C 0.4201(3) 0.1353(3) 0.9898(3)
C8_22 C 0.4568(2) 0.1358(4) 0.9568(2)
C9_22 C 0.4486(2) 0.1399(2) 0.9818(2)
C11_22 C 0.4912(2) 0.1571(3) 0.9912(2)
Cd3_10 Cd 0.30576(5) 0.30576(5) 0.89333(7)
Cd5_18 Cd 0.35667(7) 0.30576(5) 0.94424(5)
O14_26 O 0.3475(2) 0.1435(3) 0.9666(2)
O15_10 O 0.2834(2) 0.1435(3) 0.9025(2)
O19_10 O 0.2166(2) 0.1525(2) 0.8935(3)
O21_26 O 0.3695(3) 0.1789(3) 0.9785(3)
O22_10 O 0.2715(3) 0.1789(3) 0.8805(3)
O26_10 O 0.2285(3) 0.1305(3) 0.9289(3)
O28_26 O 0.3085(3) 0.2659(3) 0.9099(4)
O29_18 O 0.3401(4) 0.2659(3) 0.9415(3)
O33_10 O 0.2659(3) 0.3085(3) 0.9099(4)
O70_10 O 0.3244(3) 0.3244(3) 0.9256(3)
C17_26 C 0.3527(3) 0.1670(5) 0.9647(4)
C18_26 C 0.2853(4) 0.1670(5) 0.8973(3)
C21_26 C 0.3207(4) 0.1696(5) 0.9293(4)
C24_26 C 0.3370(3) 0.1836(4) 0.9466(3)
C25_26 C 0.3034(3) 0.1836(4) 0.9130(3)
C29_26 C 0.3379(3) 0.2113(3) 0.9442(4)
C30_26 C 0.3058(4) 0.2113(3) 0.9121(3)
C33_26 C 0.3226(4) 0.2251(6) 0.9274(4)
C35_26 C 0.3206(5) 0.2531(5) 0.9294(5)
C37_22 C 0.4898(3) 0.1353(3) 0.9201(3)
C44_22 C 0.4818(2) 0.1399(2) 0.9486(2)
C49_22 C 0.5001(2) 0.1519(2) 0.9662(2)
O74_26 O 0.2922(4) 0.2922(4) 0.8571(6)
O78_26 O 0.3397(3) 0.2991(3) 0.8722(3)
O79_26 O 0.2991(3) 0.3397(3) 0.8722(3)
H4_22 H 0.442406 0.128775 0.942406
H12_26 H 0.293376 0.222153 0.898259
H14_26 H 0.351741 0.222153 0.956624
H15_26 H 0.321468 0.148093 0.928532
H26_22 H 0.520184 0.156713 0.960102
C12_23 C 0.0114(2) 0.5805(3) 0.2386(2)
O52_23 O 0.00322(17) 0.57789(17) 0.21556(17)
C49_23 C 0.0001(2) 0.5981(2) 0.2838(2)
H26_23 H 0.020184 0.593287 0.289898
Cd1_11 Cd 0.69424(5) 0.55576(5) 0.14333(7)
O1_11 O 0.8565(3) 0.5975(2) 0.2166(2)
O2_11 O 0.8211(3) 0.6195(3) 0.2285(3)
O3_11 O 0.7341(3) 0.5585(3) 0.1599(4)
O4_23 O 0.91128(17) 0.60572(19) 0.23863(19)
O5_23 O 0.90541(19) 0.62651(18) 0.27597(17)
O9_11 O 0.6756(3) 0.5744(3) 0.1756(3)
C1_11 C 0.8330(5) 0.6027(3) 0.2147(4)
C2_11 C 0.8304(5) 0.5707(4) 0.1793(4)
C3_11 C 0.8164(4) 0.5870(3) 0.1966(3)
C4_11 C 0.7887(3) 0.5879(3) 0.1942(4)
C5_11 C 0.7749(6) 0.5726(4) 0.1774(4)
C6_11 C 0.7469(5) 0.5706(5) 0.1794(5)
C7_23 C 0.9201(3) 0.6147(3) 0.2602(3)
C8_23 C 0.9568(2) 0.6142(4) 0.2932(2)
C9_23 C 0.9486(2) 0.6101(2) 0.2682(2)
C10_23 C 0.9662(2) 0.5981(2) 0.2499(2)
C11_23 C 0.9912(2) 0.5929(3) 0.2588(2)
O11_19 O 0.7078(4) 0.5422(4) 0.1071(6)
O12_19 O 0.7009(3) 0.5897(3) 0.1222(3)
Cd2_11 Cd 0.69424(5) 0.60667(7) 0.19424(5)
Cd3_11 Cd 0.80576(5) 0.44424(5) 0.35667(7)
Cd4_11 Cd 0.64333(7) 0.55576(5) 0.19424(5)
Cd5_19 Cd 0.85667(7) 0.44424(5) 0.30576(5)
O13_11 O 0.8565(3) 0.5334(2) 0.1525(2)
O14_27 O 0.8475(2) 0.6065(3) 0.2834(2)
O15_11 O 0.7834(2) 0.6065(3) 0.3475(2)
O16_11 O 0.6525(2) 0.3935(3) 0.2166(2)
O17_19 O 0.7166(2) 0.3935(3) 0.1525(2)
O18_19 O 0.8475(2) 0.4666(2) 0.1435(3)
O19_11 O 0.7166(2) 0.5975(2) 0.3565(3)
O20_11 O 0.8211(3) 0.5215(3) 0.1305(3)
O21_27 O 0.8695(3) 0.5711(3) 0.2715(3)
O22_11 O 0.7715(3) 0.5711(3) 0.3695(3)
O23_11 O 0.6305(3) 0.4289(3) 0.2285(3)
O24_19 O 0.7285(3) 0.4289(3) 0.1305(3)
O25_19 O 0.8695(3) 0.4785(3) 0.1789(3)
O26_11 O 0.7285(3) 0.6195(3) 0.3211(3)
O27_11 O 0.7341(3) 0.5901(4) 0.1915(3)
O28_27 O 0.8085(3) 0.4841(3) 0.3401(4)
O29_19 O 0.8401(4) 0.4841(3) 0.3085(3)
O30_19 O 0.6915(3) 0.5159(3) 0.1599(4)
O31_11 O 0.6599(4) 0.5159(3) 0.1915(3)
O32_11 O 0.6915(3) 0.5901(4) 0.2341(3)
O33_11 O 0.7659(3) 0.4415(3) 0.3401(4)
O70_11 O 0.8244(3) 0.4256(3) 0.3244(3)
C16_11 C 0.8330(5) 0.5353(4) 0.1473(3)
C17_27 C 0.8527(3) 0.5830(5) 0.2853(4)
C18_27 C 0.7853(4) 0.5830(5) 0.3527(3)
C19_19 C 0.6473(3) 0.4170(5) 0.2147(4)
C20_19 C 0.7147(4) 0.4170(5) 0.1473(3)
C21_27 C 0.8207(4) 0.5804(5) 0.3207(4)
C22_19 C 0.6793(4) 0.4196(5) 0.1793(4)
C23_11 C 0.8164(4) 0.5534(3) 0.1630(3)
C24_27 C 0.8370(3) 0.5664(4) 0.3034(3)
C25_27 C 0.8034(3) 0.5664(4) 0.3370(3)
C26_19 C 0.6630(3) 0.4336(4) 0.1966(3)
C27_19 C 0.6966(3) 0.4336(4) 0.1630(3)
C28_11 C 0.7887(3) 0.5558(4) 0.1621(3)
C29_27 C 0.8379(3) 0.5387(3) 0.3058(4)
C30_27 C 0.8058(4) 0.5387(3) 0.3379(3)
C31_19 C 0.6621(3) 0.4613(3) 0.1942(4)
C32_19 C 0.6942(4) 0.4613(3) 0.1621(3)
C33_27 C 0.8226(4) 0.5249(6) 0.3226(4)
C34_19 C 0.6774(4) 0.4751(6) 0.1774(4)
C35_27 C 0.8206(5) 0.4969(5) 0.3206(5)
C36_19 C 0.6794(5) 0.5031(5) 0.1794(5)
C37_23 C 0.9898(3) 0.6147(3) 0.3299(3)
C44_23 C 0.9818(2) 0.6101(2) 0.3014(2)
O71_43 O 0.9839(2) 0.58958(14) 0.16042(14)
O73_11 O 0.7078(4) 0.6429(6) 0.2078(4)
O74_27 O 0.7922(4) 0.4578(4) 0.3929(6)
O75_19 O 0.6603(3) 0.5491(3) 0.1222(3)
O76_11 O 0.7009(3) 0.6278(3) 0.1603(3)
O77_11 O 0.6603(3) 0.6278(3) 0.2009(3)
O78_27 O 0.8397(3) 0.4509(3) 0.3778(3)
O79_27 O 0.7991(3) 0.4103(3) 0.3778(3)
H1_11 H 0.851907 0.571468 0.178532
H2_23 H 0.960102 0.593287 0.229816
H3_11 H 0.777847 0.601741 0.206624
H4_23 H 0.942406 0.621225 0.307594
H12_27 H 0.793376 0.527847 0.351741
H13_11 H 0.777847 0.543376 0.148259
H14_27 H 0.851741 0.527847 0.293376
H15_27 H 0.821468 0.601907 0.321468
H16_19 H 0.706624 0.472153 0.148259
H17_19 H 0.648259 0.472153 0.206624
H18_19 H 0.678532 0.398093 0.178532
Cd1_12 Cd 0.05576(5) 0.69424(5) 0.64333(7)
O3_12 O 0.0159(3) 0.6915(3) 0.6599(4)
O9_12 O 0.0744(3) 0.6756(3) 0.6756(3)
C6_12 C 0.0031(5) 0.6794(5) 0.6794(5)
O11_20 O 0.0422(4) 0.7078(4) 0.6071(6)
O12_20 O 0.0491(3) 0.6603(3) 0.6222(3)
Cd2_12 Cd 0.05576(5) 0.64333(7) 0.69424(5)
Cd4_12 Cd 0.10667(7) 0.69424(5) 0.69424(5)
O16_12 O 0.0975(2) 0.8565(3) 0.7166(2)
O17_20 O 0.0334(2) 0.8565(3) 0.6525(2)
O19_12 O 0.0334(2) 0.6525(2) 0.8565(3)
O23_12 O 0.1195(3) 0.8211(3) 0.7285(3)
O24_20 O 0.0215(3) 0.8211(3) 0.6305(3)
O26_12 O 0.0215(3) 0.6305(3) 0.8211(3)
O27_12 O 0.0159(3) 0.6599(4) 0.6915(3)
O30_20 O 0.0585(3) 0.7341(3) 0.6599(4)
O31_12 O 0.0901(4) 0.7341(3) 0.6915(3)
O32_12 O 0.0585(3) 0.6599(4) 0.7341(3)
C19_20 C 0.1027(3) 0.8330(5) 0.7147(4)
C20_20 C 0.0353(4) 0.8330(5) 0.6473(3)
C22_20 C 0.0707(4) 0.8304(5) 0.6793(4)
C26_20 C 0.0870(3) 0.8164(4) 0.6966(3)
C27_20 C 0.0534(3) 0.8164(4) 0.6630(3)
C31_20 C 0.0879(3) 0.7887(3) 0.6942(4)
C32_20 C 0.0558(4) 0.7887(3) 0.6621(3)
C34_20 C 0.0726(4) 0.7749(6) 0.6774(4)
C36_20 C 0.0706(5) 0.7469(5) 0.6794(5)
O73_12 O 0.0422(4) 0.6071(6) 0.7078(4)
O75_20 O 0.0897(3) 0.7009(3) 0.6222(3)
O76_12 O 0.0491(3) 0.6222(3) 0.6603(3)
O77_12 O 0.0897(3) 0.6222(3) 0.7009(3)
H16_20 H 0.0433758 0.777847 0.648259
H17_20 H 0.101741 0.777847 0.706624
H18_20 H 0.0714681 0.851907 0.678532
O1_12 O 0.8935(3) 0.6525(2) 0.7166(2)
O2_12 O 0.9289(3) 0.6305(3) 0.7285(3)
O4_24 O 0.83872(17) 0.64428(19) 0.73863(19)
O5_24 O 0.84459(19) 0.62349(18) 0.77597(17)
C1_12 C 0.9170(5) 0.6473(3) 0.7147(4)
C2_12 C 0.9196(5) 0.6793(4) 0.6793(4)
C3_12 C 0.9336(4) 0.6630(3) 0.6966(3)
C4_12 C 0.9613(3) 0.6621(3) 0.6942(4)
C5_12 C 0.9751(6) 0.6774(4) 0.6774(4)
C7_24 C 0.8299(3) 0.6353(3) 0.7602(3)
C8_24 C 0.7932(2) 0.6358(4) 0.7932(2)
C9_24 C 0.8014(2) 0.6399(2) 0.7682(2)
C10_24 C 0.7838(2) 0.6519(2) 0.7499(2)
C11_24 C 0.7588(2) 0.6571(3) 0.7588(2)
C12_24 C 0.7386(2) 0.6695(3) 0.7386(2)
Cd3_12 Cd 0.94424(5) 0.80576(5) 0.85667(7)
Cd5_20 Cd 0.89333(7) 0.80576(5) 0.80576(5)
O13_12 O 0.8935(3) 0.7166(2) 0.6525(2)
O14_28 O 0.9025(2) 0.6435(3) 0.7834(2)
O15_12 O 0.9666(2) 0.6435(3) 0.8475(2)
O18_20 O 0.9025(2) 0.7834(2) 0.6435(3)
O20_12 O 0.9289(3) 0.7285(3) 0.6305(3)
O21_28 O 0.8805(3) 0.6789(3) 0.7715(3)
O22_12 O 0.9785(3) 0.6789(3) 0.8695(3)
O25_20 O 0.8805(3) 0.7715(3) 0.6789(3)
O28_28 O 0.9415(3) 0.7659(3) 0.8401(4)
O29_20 O 0.9099(4) 0.7659(3) 0.8085(3)
O33_12 O 0.9841(3) 0.8085(3) 0.8401(4)
O52_24 O 0.74678(17) 0.67211(17) 0.71556(17)
O70_12 O 0.9256(3) 0.8244(3) 0.8244(3)
C16_12 C 0.9170(5) 0.7147(4) 0.6473(3)
C17_28 C 0.8973(3) 0.6670(5) 0.7853(4)
C18_28 C 0.9647(4) 0.6670(5) 0.8527(3)
C21_28 C 0.9293(4) 0.6696(5) 0.8207(4)
C23_12 C 0.9336(4) 0.6966(3) 0.6630(3)
C24_28 C 0.9130(3) 0.6836(4) 0.8034(3)
C25_28 C 0.9466(3) 0.6836(4) 0.8370(3)
C28_12 C 0.9613(3) 0.6942(4) 0.6621(3)
C29_28 C 0.9121(3) 0.7113(3) 0.8058(4)
C30_28 C 0.9442(4) 0.7113(3) 0.8379(3)
C33_28 C 0.9274(4) 0.7251(6) 0.8226(4)
C35_28 C 0.9294(5) 0.7531(5) 0.8206(5)
C37_24 C 0.7602(3) 0.6353(3) 0.8299(3)
C44_24 C 0.7682(2) 0.6399(2) 0.8014(2)
C49_24 C 0.7499(2) 0.6519(2) 0.7838(2)
O71_44 O 0.7661(2) 0.66042(14) 0.66042(14)
O74_28 O 0.9578(4) 0.7922(4) 0.8929(6)
O78_28 O 0.9103(3) 0.7991(3) 0.8778(3)
O79_28 O 0.9509(3) 0.8397(3) 0.8778(3)
H1_12 H 0.898093 0.678532 0.678532
H2_24 H 0.789898 0.656713 0.729816
H3_12 H 0.972153 0.648259 0.706624
H4_24 H 0.807594 0.628775 0.807594
H12_28 H 0.956624 0.722153 0.851741
H13_12 H 0.972153 0.706624 0.648259
H14_28 H 0.898259 0.722153 0.793376
H15_28 H 0.928532 0.648093 0.821468
H26_24 H 0.729816 0.656713 0.789898
O11_21 O 0.6429(6) 0.0422(4) 0.5422(4)
O12_21 O 0.6278(3) 0.0491(3) 0.5897(3)
O17_21 O 0.5975(2) 0.0334(2) 0.3935(3)
O24_21 O 0.6195(3) 0.0215(3) 0.4289(3)
O30_21 O 0.5901(4) 0.0585(3) 0.5159(3)
C19_21 C 0.5353(4) 0.1027(3) 0.4170(5)
C20_21 C 0.6027(3) 0.0353(4) 0.4170(5)
C22_21 C 0.5707(4) 0.0707(4) 0.4196(5)
C26_21 C 0.5534(3) 0.0870(3) 0.4336(4)
C27_21 C 0.5870(3) 0.0534(3) 0.4336(4)
C31_21 C 0.5558(4) 0.0879(3) 0.4613(3)
C32_21 C 0.5879(3) 0.0558(4) 0.4613(3)
C34_21 C 0.5726(4) 0.0726(4) 0.4751(6)
C36_21 C 0.5706(5) 0.0706(5) 0.5031(5)
O75_21 O 0.6278(3) 0.0897(3) 0.5491(3)
H16_21 H 0.601741 0.0433758 0.472153
H17_21 H 0.543376 0.101741 0.472153
H18_21 H 0.571468 0.0714681 0.398093
O10_21 O 0.4839(2) 0.66042(14) 0.58958(14)
Cd5_21 Cd 0.44424(5) 0.89333(7) 0.44424(5)
O14_29 O 0.4666(2) 0.9025(2) 0.6065(3)
O18_21 O 0.6065(3) 0.9025(2) 0.4666(2)
O21_29 O 0.4785(3) 0.8805(3) 0.5711(3)
O25_21 O 0.5711(3) 0.8805(3) 0.4785(3)
O28_29 O 0.4099(4) 0.9415(3) 0.4841(3)
O29_21 O 0.4415(3) 0.9099(4) 0.4841(3)
O38_41 O 0.41128(17) 0.64428(19) 0.51137(19)
O47_41 O 0.40541(19) 0.62349(18) 0.47403(17)
O55_21 O 0.50322(17) 0.67211(17) 0.53444(17)
O58_21 O 0.49678(17) 0.96556(17) 0.82789(17)
C17_29 C 0.4647(4) 0.8973(3) 0.5830(5)
C18_29 C 0.3973(3) 0.9647(4) 0.5830(5)
C21_29 C 0.4293(4) 0.9293(4) 0.5804(5)
C24_29 C 0.4466(3) 0.9130(3) 0.5664(4)
C25_29 C 0.4130(3) 0.9466(3) 0.5664(4)
C29_29 C 0.4442(4) 0.9121(3) 0.5387(3)
C30_29 C 0.4121(3) 0.9442(4) 0.5387(3)
C33_29 C 0.4274(4) 0.9274(4) 0.5249(6)
C35_29 C 0.4294(5) 0.9294(5) 0.4969(5)
C40_41 C 0.4898(3) 0.6353(3) 0.4201(3)
C41_41 C 0.4201(3) 0.6353(3) 0.4898(3)
C43_41 C 0.4568(2) 0.6358(4) 0.4568(2)
C47_41 C 0.4818(2) 0.6399(2) 0.4486(2)
C48_41 C 0.4486(2) 0.6399(2) 0.4818(2)
C52_41 C 0.5001(2) 0.6519(2) 0.4662(2)
C53_41 C 0.4662(2) 0.6519(2) 0.5001(2)
C55_41 C 0.4912(2) 0.6571(3) 0.4912(2)
C57_41 C 0.5114(2) 0.6695(3) 0.5114(2)
O72_21 O 0.5161(2) 0.91042(14) 0.83958(14)
O74_29 O 0.3571(6) 0.9578(4) 0.4578(4)
O78_29 O 0.3722(3) 0.9103(3) 0.4509(3)
O79_29 O 0.3722(3) 0.9509(3) 0.4103(3)
H12_29 H 0.398259 0.956624 0.527847
H14_29 H 0.456624 0.898259 0.527847
H15_29 H 0.428532 0.928532 0.601907
H19_41 H 0.520184 0.656713 0.460102
H21_41 H 0.460102 0.656713 0.520184
H35_41 H 0.442406 0.628775 0.442406
O55_22 O 0.00322(17) 0.07789(17) 0.71556(17)
C52_42 C 0.0001(2) 0.0981(2) 0.7838(2)
C57_42 C 0.0114(2) 0.0805(3) 0.7386(2)
H19_42 H 0.020184 0.0932875 0.789898
O11_22 O 0.1429(6) 0.7078(4) 0.7078(4)
O12_22 O 0.1278(3) 0.7009(3) 0.6603(3)
O17_22 O 0.0975(2) 0.7166(2) 0.8565(3)
O18_22 O 0.1065(3) 0.8475(2) 0.7834(2)
O24_22 O 0.1195(3) 0.7285(3) 0.8211(3)
O25_22 O 0.0711(3) 0.8695(3) 0.7715(3)
O30_22 O 0.0901(4) 0.6915(3) 0.7341(3)
C19_22 C 0.0353(4) 0.6473(3) 0.8330(5)
C20_22 C 0.1027(3) 0.7147(4) 0.8330(5)
C22_22 C 0.0707(4) 0.6793(4) 0.8304(5)
C26_22 C 0.0534(3) 0.6630(3) 0.8164(4)
C27_22 C 0.0870(3) 0.6966(3) 0.8164(4)
C31_22 C 0.0558(4) 0.6621(3) 0.7887(3)
C32_22 C 0.0879(3) 0.6942(4) 0.7887(3)
C34_22 C 0.0726(4) 0.6774(4) 0.7749(6)
C36_22 C 0.0706(5) 0.6794(5) 0.7469(5)
O72_22 O 0.0161(2) 0.83958(14) 0.41042(14)
O75_22 O 0.1278(3) 0.6603(3) 0.7009(3)
H16_22 H 0.101741 0.706624 0.777847
H17_22 H 0.0433758 0.648259 0.777847
H18_22 H 0.0714681 0.678532 0.851907
O10_22 O 0.9839(2) 0.08958(14) 0.66042(14)
O38_42 O 0.91128(17) 0.10572(19) 0.73863(19)
O47_42 O 0.90541(19) 0.12651(18) 0.77597(17)
C40_42 C 0.9898(3) 0.1147(3) 0.8299(3)
C41_42 C 0.9201(3) 0.1147(3) 0.7602(3)
C43_42 C 0.9568(2) 0.1142(4) 0.7932(2)
C47_42 C 0.9818(2) 0.1101(2) 0.8014(2)
C48_42 C 0.9486(2) 0.1101(2) 0.7682(2)
C53_42 C 0.9662(2) 0.0981(2) 0.7499(2)
C55_42 C 0.9912(2) 0.0929(3) 0.7588(2)
H21_42 H 0.960102 0.0932875 0.729816
H35_42 H 0.942406 0.121225 0.807594
Cd5_22 Cd 0.94424(5) 0.85667(7) 0.80576(5)
O14_30 O 0.9666(2) 0.8475(2) 0.6435(3)
O21_30 O 0.9785(3) 0.8695(3) 0.6789(3)
O28_30 O 0.9099(4) 0.8085(3) 0.7659(3)
O29_22 O 0.9415(3) 0.8401(4) 0.7659(3)
O58_22 O 0.99678(17) 0.78444(17) 0.42211(17)
C17_30 C 0.9647(4) 0.8527(3) 0.6670(5)
C18_30 C 0.8973(3) 0.7853(4) 0.6670(5)
C21_30 C 0.9293(4) 0.8207(4) 0.6696(5)
C24_30 C 0.9466(3) 0.8370(3) 0.6836(4)
C25_30 C 0.9130(3) 0.8034(3) 0.6836(4)
C29_30 C 0.9442(4) 0.8379(3) 0.7113(3)
C30_30 C 0.9121(3) 0.8058(4) 0.7113(3)
C33_30 C 0.9274(4) 0.8226(4) 0.7251(6)
C35_30 C 0.9294(5) 0.8206(5) 0.7531(5)
O74_30 O 0.8571(6) 0.7922(4) 0.7922(4)
O78_30 O 0.8722(3) 0.8397(3) 0.7991(3)
O79_30 O 0.8722(3) 0.7991(3) 0.8397(3)
H12_30 H 0.898259 0.793376 0.722153
H14_30 H 0.956624 0.851741 0.722153
H15_30 H 0.928532 0.821468 0.648093
O10_23 O 0.2661(2) 0.58958(14) 0.08958(14)
O11_23 O 0.1071(6) 0.2078(4) 0.0422(4)
O12_23 O 0.1222(3) 0.2009(3) 0.0897(3)
O14_31 O 0.2834(2) 0.3475(2) 0.1065(3)
O21_31 O 0.2715(3) 0.3695(3) 0.0711(3)
O30_23 O 0.1599(4) 0.1915(3) 0.0159(3)
O38_43 O 0.33872(17) 0.60572(19) 0.01137(19)
O55_23 O 0.24678(17) 0.57789(17) 0.03444(17)
O58_23 O 0.25322(17) 0.28444(17) 0.32789(17)
C17_31 C 0.2853(4) 0.3527(3) 0.0830(5)
C18_31 C 0.3527(3) 0.2853(4) 0.0830(5)
C21_31 C 0.3207(4) 0.3207(4) 0.0804(5)
C24_31 C 0.3034(3) 0.3370(3) 0.0664(4)
C25_31 C 0.3370(3) 0.3034(3) 0.0664(4)
C29_31 C 0.3058(4) 0.3379(3) 0.0387(3)
C30_31 C 0.3379(3) 0.3058(4) 0.0387(3)
C33_31 C 0.3226(4) 0.3226(4) 0.0249(6)
C36_23 C 0.1794(5) 0.1794(5) 0.0031(5)
C53_43 C 0.2838(2) 0.5981(2) 0.0001(2)
C57_43 C 0.2386(2) 0.5805(3) 0.0114(2)
O72_23 O 0.2339(2) 0.33958(14) 0.33958(14)
O75_23 O 0.1222(3) 0.1603(3) 0.0491(3)
H12_31 H 0.351741 0.293376 0.0278468
H14_31 H 0.293376 0.351741 0.0278468
H15_31 H 0.321468 0.321468 0.101907
H21_43 H 0.289898 0.593287 0.020184
Cd5_23 Cd 0.30576(5) 0.35667(7) 0.94424(5)
O17_23 O 0.1525(2) 0.2166(2) 0.8935(3)
O18_23 O 0.1435(3) 0.3475(2) 0.9666(2)
O24_23 O 0.1305(3) 0.2285(3) 0.9289(3)
O25_23 O 0.1789(3) 0.3695(3) 0.9785(3)
O28_31 O 0.3401(4) 0.3085(3) 0.9841(3)
O29_23 O 0.3085(3) 0.3401(4) 0.9841(3)
O47_43 O 0.34459(19) 0.62651(18) 0.97403(17)
C19_23 C 0.2147(4) 0.1473(3) 0.9170(5)
C20_23 C 0.1473(3) 0.2147(4) 0.9170(5)
C22_23 C 0.1793(4) 0.1793(4) 0.9196(5)
C26_23 C 0.1966(3) 0.1630(3) 0.9336(4)
C27_23 C 0.1630(3) 0.1966(3) 0.9336(4)
C31_23 C 0.1942(4) 0.1621(3) 0.9613(3)
C32_23 C 0.1621(3) 0.1942(4) 0.9613(3)
C34_23 C 0.1774(4) 0.1774(4) 0.9751(6)
C35_31 C 0.3206(5) 0.3206(5) 0.9969(5)
C40_43 C 0.2602(3) 0.6147(3) 0.9201(3)
C41_43 C 0.3299(3) 0.6147(3) 0.9898(3)
C43_43 C 0.2932(2) 0.6142(4) 0.9568(2)
C47_43 C 0.2682(2) 0.6101(2) 0.9486(2)
C48_43 C 0.3014(2) 0.6101(2) 0.9818(2)
C52_43 C 0.2499(2) 0.5981(2) 0.9662(2)
C55_43 C 0.2588(2) 0.5929(3) 0.9912(2)
O74_31 O 0.3929(6) 0.2922(4) 0.9578(4)
O78_31 O 0.3778(3) 0.3397(3) 0.9509(3)
O79_31 O 0.3778(3) 0.2991(3) 0.9103(3)
H16_23 H 0.148259 0.206624 0.972153
H17_23 H 0.206624 0.148259 0.972153
H18_23 H 0.178532 0.178532 0.898093
H19_43 H 0.229816 0.593287 0.960102
H35_43 H 0.307594 0.621225 0.942406
O10_24 O 0.7661(2) 0.16042(14) 0.16042(14)
O11_24 O 0.6071(6) 0.5422(4) 0.2078(4)
O12_24 O 0.6222(3) 0.5491(3) 0.1603(3)
Cd5_24 Cd 0.80576(5) 0.39333(7) 0.30576(5)
O14_32 O 0.7834(2) 0.4025(2) 0.1435(3)
O17_24 O 0.6525(2) 0.5334(2) 0.3565(3)
O18_24 O 0.6435(3) 0.4025(2) 0.2834(2)
O21_32 O 0.7715(3) 0.3805(3) 0.1789(3)
O24_24 O 0.6305(3) 0.5215(3) 0.3211(3)
O25_24 O 0.6789(3) 0.3805(3) 0.2715(3)
O28_32 O 0.8401(4) 0.4415(3) 0.2659(3)
O29_24 O 0.8085(3) 0.4099(4) 0.2659(3)
O30_24 O 0.6599(4) 0.5585(3) 0.2341(3)
O38_44 O 0.83872(17) 0.14428(19) 0.23863(19)
O47_44 O 0.84459(19) 0.12349(18) 0.27597(17)
O55_24 O 0.74678(17) 0.17211(17) 0.21556(17)
C17_32 C 0.7853(4) 0.3973(3) 0.1670(5)
C18_32 C 0.8527(3) 0.4647(4) 0.1670(5)
C19_24 C 0.7147(4) 0.6027(3) 0.3330(5)
C20_24 C 0.6473(3) 0.5353(4) 0.3330(5)
C21_32 C 0.8207(4) 0.4293(4) 0.1696(5)
C22_24 C 0.6793(4) 0.5707(4) 0.3304(5)
C24_32 C 0.8034(3) 0.4130(3) 0.1836(4)
C25_32 C 0.8370(3) 0.4466(3) 0.1836(4)
C26_24 C 0.6966(3) 0.5870(3) 0.3164(4)
C27_24 C 0.6630(3) 0.5534(3) 0.3164(4)
C29_32 C 0.8058(4) 0.4121(3) 0.2113(3)
C30_32 C 0.8379(3) 0.4442(4) 0.2113(3)
C31_24 C 0.6942(4) 0.5879(3) 0.2887(3)
C32_24 C 0.6621(3) 0.5558(4) 0.2887(3)
C33_32 C 0.8226(4) 0.4274(4) 0.2251(6)
C34_24 C 0.6774(4) 0.5726(4) 0.2749(6)
C35_32 C 0.8206(5) 0.4294(5) 0.2531(5)
C36_24 C 0.6794(5) 0.5706(5) 0.2469(5)
C40_44 C 0.7602(3) 0.1353(3) 0.3299(3)
C41_44 C 0.8299(3) 0.1353(3) 0.2602(3)
C43_44 C 0.7932(2) 0.1358(4) 0.2932(2)
C47_44 C 0.7682(2) 0.1399(2) 0.3014(2)
C48_44 C 0.8014(2) 0.1399(2) 0.2682(2)
C52_44 C 0.7499(2) 0.1519(2) 0.2838(2)
C53_44 C 0.7838(2) 0.1519(2) 0.2499(2)
C55_44 C 0.7588(2) 0.1571(3) 0.2588(2)
C57_44 C 0.7386(2) 0.1695(3) 0.2386(2)
O74_32 O 0.8929(6) 0.4578(4) 0.2922(4)
O75_24 O 0.6222(3) 0.5897(3) 0.2009(3)
O78_32 O 0.8778(3) 0.4103(3) 0.2991(3)
O79_32 O 0.8778(3) 0.4509(3) 0.3397(3)
H12_32 H 0.851741 0.456624 0.222153
H14_32 H 0.793376 0.398259 0.222153
H15_32 H 0.821468 0.428532 0.148093
H16_24 H 0.648259 0.543376 0.277847
H17_24 H 0.706624 0.601741 0.277847
H18_24 H 0.678532 0.571468 0.351907
H19_44 H 0.729816 0.156713 0.289898
H21_44 H 0.789898 0.156713 0.229816
H35_44 H 0.807594 0.128775 0.307594
O58_24 O 0.75322(17) 0.46556(17) 0.92211(17)
O72_24 O 0.7339(2) 0.41042(14) 0.91042(14)
O44_21 O 0.65541(19) 0.02597(17) 0.37349(18)
C38_21 C 0.6701(3) 0.0102(3) 0.3853(3)
C39_21 C 0.7398(3) 0.0799(3) 0.3853(3)
C42_21 C 0.7068(2) 0.0432(2) 0.3858(4)
C45_21 C 0.6986(2) 0.0182(2) 0.3899(2)
C46_21 C 0.7318(2) 0.0514(2) 0.3899(2)
C51_21 C 0.7501(2) 0.0338(2) 0.4019(2)
C54_21 C 0.7412(2) 0.0088(2) 0.4071(3)
H24_21 H 0.770184 0.039898 0.406713
H40_21 H 0.692406 0.0575937 0.378775
O14_33 O 0.6065(3) 0.9666(2) 0.4025(2)
O21_33 O 0.5711(3) 0.9785(3) 0.3805(3)
O28_33 O 0.4841(3) 0.9099(4) 0.4415(3)
O35_21 O 0.66128(17) 0.98863(19) 0.39428(19)
O54_21 O 0.75322(17) 0.96556(17) 0.42211(17)
C17_33 C 0.5830(5) 0.9647(4) 0.3973(3)
C18_33 C 0.5830(5) 0.8973(3) 0.4647(4)
C21_33 C 0.5804(5) 0.9293(4) 0.4293(4)
C24_33 C 0.5664(4) 0.9466(3) 0.4130(3)
C25_33 C 0.5664(4) 0.9130(3) 0.4466(3)
C29_33 C 0.5387(3) 0.9442(4) 0.4121(3)
C30_33 C 0.5387(3) 0.9121(3) 0.4442(4)
C33_33 C 0.5249(6) 0.9274(4) 0.4274(4)
C35_33 C 0.4969(5) 0.9294(5) 0.4294(5)
C50_21 C 0.7162(2) 0.9999(2) 0.4019(2)
C56_21 C 0.7614(2) 0.9886(2) 0.4195(3)
O74_33 O 0.4578(4) 0.8571(6) 0.4578(4)
O78_33 O 0.4509(3) 0.8722(3) 0.4103(3)
O79_33 O 0.4103(3) 0.8722(3) 0.4509(3)
H12_33 H 0.527847 0.898259 0.456624
H14_33 H 0.527847 0.956624 0.398259
H15_33 H 0.601907 0.928532 0.428532
H41_21 H 0.710102 0.979816 0.406713
O14_34 O 0.6435(3) 0.4666(2) 0.3475(2)
O21_34 O 0.6789(3) 0.4785(3) 0.3695(3)
O28_34 O 0.7659(3) 0.4099(4) 0.3085(3)
O35_22 O 0.58872(17) 0.48863(19) 0.35572(19)
O44_22 O 0.59459(19) 0.52597(17) 0.37651(18)
O54_22 O 0.49678(17) 0.46556(17) 0.32789(17)
C17_34 C 0.6670(5) 0.4647(4) 0.3527(3)
C18_34 C 0.6670(5) 0.3973(3) 0.2853(4)
C21_34 C 0.6696(5) 0.4293(4) 0.3207(4)
C24_34 C 0.6836(4) 0.4466(3) 0.3370(3)
C25_34 C 0.6836(4) 0.4130(3) 0.3034(3)
C29_34 C 0.7113(3) 0.4442(4) 0.3379(3)
C30_34 C 0.7113(3) 0.4121(3) 0.3058(4)
C33_34 C 0.7251(6) 0.4274(4) 0.3226(4)
C35_34 C 0.7531(5) 0.4294(5) 0.3206(5)
C38_22 C 0.5799(3) 0.5102(3) 0.3647(3)
C39_22 C 0.5102(3) 0.5799(3) 0.3647(3)
C42_22 C 0.5432(2) 0.5432(2) 0.3642(4)
C45_22 C 0.5514(2) 0.5182(2) 0.3601(2)
C46_22 C 0.5182(2) 0.5514(2) 0.3601(2)
C50_22 C 0.5338(2) 0.4999(2) 0.3481(2)
C51_22 C 0.4999(2) 0.5338(2) 0.3481(2)
C54_22 C 0.5088(2) 0.5088(2) 0.3429(3)
C56_22 C 0.4886(2) 0.4886(2) 0.3305(3)
O74_34 O 0.7922(4) 0.3571(6) 0.2922(4)
O78_34 O 0.7991(3) 0.3722(3) 0.3397(3)
O79_34 O 0.8397(3) 0.3722(3) 0.2991(3)
H12_34 H 0.722153 0.398259 0.293376
H14_34 H 0.722153 0.456624 0.351741
H15_34 H 0.648093 0.428532 0.321468
H24_22 H 0.479816 0.539898 0.343287
H40_22 H 0.557594 0.557594 0.371225
H41_22 H 0.539898 0.479816 0.343287
O14_35 O 0.1065(3) 0.7834(2) 0.8475(2)
O21_35 O 0.0711(3) 0.7715(3) 0.8695(3)
O35_23 O 0.16128(17) 0.76137(19) 0.85572(19)
O44_23 O 0.15541(19) 0.72403(17) 0.87651(18)
O54_23 O 0.25322(17) 0.78444(17) 0.82789(17)
C17_35 C 0.0830(5) 0.7853(4) 0.8527(3)
C18_35 C 0.0830(5) 0.8527(3) 0.7853(4)
C21_35 C 0.0804(5) 0.8207(4) 0.8207(4)
C24_35 C 0.0664(4) 0.8034(3) 0.8370(3)
C25_35 C 0.0664(4) 0.8370(3) 0.8034(3)
C29_35 C 0.0387(3) 0.8058(4) 0.8379(3)
C30_35 C 0.0387(3) 0.8379(3) 0.8058(4)
C33_35 C 0.0249(6) 0.8226(4) 0.8226(4)
C38_23 C 0.1701(3) 0.7398(3) 0.8647(3)
C39_23 C 0.2398(3) 0.6701(3) 0.8647(3)
C42_23 C 0.2068(2) 0.7068(2) 0.8642(4)
C45_23 C 0.1986(2) 0.7318(2) 0.8601(2)
C46_23 C 0.2318(2) 0.6986(2) 0.8601(2)
C50_23 C 0.2162(2) 0.7501(2) 0.8481(2)
C51_23 C 0.2501(2) 0.7162(2) 0.8481(2)
C54_23 C 0.2412(2) 0.7412(2) 0.8429(3)
C56_23 C 0.2614(2) 0.7614(2) 0.8305(3)
H12_35 H 0.0278468 0.851741 0.793376
H14_35 H 0.0278468 0.793376 0.851741
H15_35 H 0.101907 0.821468 0.821468
H24_23 H 0.270184 0.710102 0.843287
H40_23 H 0.192406 0.692406 0.871225
H41_23 H 0.210102 0.770184 0.843287
O28_35 O 0.9841(3) 0.8401(4) 0.8085(3)
C35_35 C 0.9969(5) 0.8206(5) 0.8206(5)
O74_35 O 0.9578(4) 0.8929(6) 0.7922(4)
O78_35 O 0.9509(3) 0.8778(3) 0.8397(3)
O79_35 O 0.9103(3) 0.8778(3) 0.7991(3)
O14_36 O 0.1435(3) 0.2834(2) 0.9025(2)
O21_36 O 0.1789(3) 0.2715(3) 0.8805(3)
O28_36 O 0.2659(3) 0.3401(4) 0.9415(3)
O35_24 O 0.08872(17) 0.26137(19) 0.89428(19)
O44_24 O 0.09459(19) 0.22403(17) 0.87349(18)
C17_36 C 0.1670(5) 0.2853(4) 0.8973(3)
C18_36 C 0.1670(5) 0.3527(3) 0.9647(4)
C21_36 C 0.1696(5) 0.3207(4) 0.9293(4)
C24_36 C 0.1836(4) 0.3034(3) 0.9130(3)
C25_36 C 0.1836(4) 0.3370(3) 0.9466(3)
C29_36 C 0.2113(3) 0.3058(4) 0.9121(3)
C30_36 C 0.2113(3) 0.3379(3) 0.9442(4)
C33_36 C 0.2251(6) 0.3226(4) 0.9274(4)
C35_36 C 0.2531(5) 0.3206(5) 0.9294(5)
C38_24 C 0.0799(3) 0.2398(3) 0.8853(3)
C39_24 C 0.0102(3) 0.1701(3) 0.8853(3)
C42_24 C 0.0432(2) 0.2068(2) 0.8858(4)
C45_24 C 0.0514(2) 0.2318(2) 0.8899(2)
C46_24 C 0.0182(2) 0.1986(2) 0.8899(2)
C50_24 C 0.0338(2) 0.2501(2) 0.9019(2)
C54_24 C 0.0088(2) 0.2412(2) 0.9071(3)
O74_36 O 0.2922(4) 0.3929(6) 0.9578(4)
O78_36 O 0.2991(3) 0.3778(3) 0.9103(3)
O79_36 O 0.3397(3) 0.3778(3) 0.9509(3)
H12_36 H 0.222153 0.351741 0.956624
H14_36 H 0.222153 0.293376 0.898259
H15_36 H 0.148093 0.321468 0.928532
H40_24 H 0.0575937 0.192406 0.878775
H41_24 H 0.039898 0.270184 0.906713
O54_24 O 0.99678(17) 0.28444(17) 0.92211(17)
C51_24 C 0.9999(2) 0.2162(2) 0.9019(2)
C56_24 C 0.9886(2) 0.2614(2) 0.9195(3)
H24_24 H 0.979816 0.210102 0.906713
O71_45 O 0.0161(2) 0.33958(14) 0.91042(14)
O71_46 O 0.2339(2) 0.83958(14) 0.83958(14)
O71_47 O 0.7339(2) 0.91042(14) 0.41042(14)
O71_48 O 0.5161(2) 0.41042(14) 0.33958(14)
O38_45 O 0.16128(17) 0.26137(19) 0.35572(19)
O47_45 O 0.15541(19) 0.22403(17) 0.37651(18)
C40_45 C 0.2398(3) 0.1701(3) 0.3647(3)
C41_45 C 0.1701(3) 0.2398(3) 0.3647(3)
C43_45 C 0.2068(2) 0.2068(2) 0.3642(4)
C47_45 C 0.2318(2) 0.1986(2) 0.3601(2)
C48_45 C 0.1986(2) 0.2318(2) 0.3601(2)
C52_45 C 0.2501(2) 0.2162(2) 0.3481(2)
C53_45 C 0.2162(2) 0.2501(2) 0.3481(2)
C55_45 C 0.2412(2) 0.2412(2) 0.3429(3)
C57_45 C 0.2614(2) 0.2614(2) 0.3305(3)
H19_45 H 0.270184 0.210102 0.343287
H21_45 H 0.210102 0.270184 0.343287
H35_45 H 0.192406 0.192406 0.371225
O38_46 O 0.66128(17) 0.48863(19) 0.89428(19)
O47_46 O 0.65541(19) 0.52597(17) 0.87349(18)
C40_46 C 0.7398(3) 0.5799(3) 0.8853(3)
C41_46 C 0.6701(3) 0.5102(3) 0.8853(3)
C43_46 C 0.7068(2) 0.5432(2) 0.8858(4)
C47_46 C 0.7318(2) 0.5514(2) 0.8899(2)
C48_46 C 0.6986(2) 0.5182(2) 0.8899(2)
C52_46 C 0.7501(2) 0.5338(2) 0.9019(2)
C53_46 C 0.7162(2) 0.4999(2) 0.9019(2)
C55_46 C 0.7412(2) 0.5088(2) 0.9071(3)
C57_46 C 0.7614(2) 0.4886(2) 0.9195(3)
H19_46 H 0.770184 0.539898 0.906713
H21_46 H 0.710102 0.479816 0.906713
H35_46 H 0.692406 0.557594 0.878775
O38_47 O 0.08872(17) 0.76137(19) 0.39428(19)
O47_47 O 0.09459(19) 0.72403(17) 0.37349(18)
C40_47 C 0.0102(3) 0.6701(3) 0.3853(3)
C41_47 C 0.0799(3) 0.7398(3) 0.3853(3)
C43_47 C 0.0432(2) 0.7068(2) 0.3858(4)
C47_47 C 0.0182(2) 0.6986(2) 0.3899(2)
C48_47 C 0.0514(2) 0.7318(2) 0.3899(2)
C53_47 C 0.0338(2) 0.7501(2) 0.4019(2)
C55_47 C 0.0088(2) 0.7412(2) 0.4071(3)
H21_47 H 0.039898 0.770184 0.406713
H35_47 H 0.0575937 0.692406 0.378775
C52_47 C 0.9999(2) 0.7162(2) 0.4019(2)
C57_47 C 0.9886(2) 0.7614(2) 0.4195(3)
H19_47 H 0.979816 0.710102 0.406713
O47_48 O 0.59459(19) 0.02597(17) 0.87651(18)
C40_48 C 0.5102(3) 0.0799(3) 0.8647(3)
C41_48 C 0.5799(3) 0.0102(3) 0.8647(3)
C43_48 C 0.5432(2) 0.0432(2) 0.8642(4)
C47_48 C 0.5182(2) 0.0514(2) 0.8601(2)
C48_48 C 0.5514(2) 0.0182(2) 0.8601(2)
C52_48 C 0.4999(2) 0.0338(2) 0.8481(2)
C55_48 C 0.5088(2) 0.0088(2) 0.8429(3)
H19_48 H 0.479816 0.039898 0.843287
H35_48 H 0.557594 0.0575937 0.871225
O38_48 O 0.58872(17) 0.98863(19) 0.85572(19)
C53_48 C 0.5338(2) 0.9999(2) 0.8481(2)
C57_48 C 0.4886(2) 0.9886(2) 0.8305(3)
H21_48 H 0.539898 0.979816 0.843287
Cd1_13 Cd 0.55576(5) 0.55576(5) 0.10667(7)
O1_13 O 0.3935(3) 0.5975(2) 0.0334(2)
O2_13 O 0.4289(3) 0.6195(3) 0.0215(3)
O3_13 O 0.5159(3) 0.5585(3) 0.0901(4)
O9_13 O 0.5744(3) 0.5744(3) 0.0744(3)
C1_13 C 0.4170(5) 0.6027(3) 0.0353(4)
C2_13 C 0.4196(5) 0.5707(4) 0.0707(4)
C3_13 C 0.4336(4) 0.5870(3) 0.0534(3)
C4_13 C 0.4613(3) 0.5879(3) 0.0558(4)
C5_13 C 0.4751(6) 0.5726(4) 0.0726(4)
C6_13 C 0.5031(5) 0.5706(5) 0.0706(5)
O11_25 O 0.5422(4) 0.5422(4) 0.1429(6)
O12_25 O 0.5491(3) 0.5897(3) 0.1278(3)
Cd2_13 Cd 0.55576(5) 0.60667(7) 0.05576(5)
Cd4_13 Cd 0.60667(7) 0.55576(5) 0.05576(5)
O13_13 O 0.3935(3) 0.5334(2) 0.0975(2)
O16_13 O 0.5975(2) 0.3935(3) 0.0334(2)
O17_25 O 0.5334(2) 0.3935(3) 0.0975(2)
O18_25 O 0.4025(2) 0.4666(2) 0.1065(3)
O20_13 O 0.4289(3) 0.5215(3) 0.1195(3)
O23_13 O 0.6195(3) 0.4289(3) 0.0215(3)
O24_25 O 0.5215(3) 0.4289(3) 0.1195(3)
O25_25 O 0.3805(3) 0.4785(3) 0.0711(3)
O27_13 O 0.5159(3) 0.5901(4) 0.0585(3)
O30_25 O 0.5585(3) 0.5159(3) 0.0901(4)
O31_13 O 0.5901(4) 0.5159(3) 0.0585(3)
O32_13 O 0.5585(3) 0.5901(4) 0.0159(3)
C16_13 C 0.4170(5) 0.5353(4) 0.1027(3)
C19_25 C 0.6027(3) 0.4170(5) 0.0353(4)
C20_25 C 0.5353(4) 0.4170(5) 0.1027(3)
C22_25 C 0.5707(4) 0.4196(5) 0.0707(4)
C23_13 C 0.4336(4) 0.5534(3) 0.0870(3)
C26_25 C 0.5870(3) 0.4336(4) 0.0534(3)
C27_25 C 0.5534(3) 0.4336(4) 0.0870(3)
C28_13 C 0.4613(3) 0.5558(4) 0.0879(3)
C31_25 C 0.5879(3) 0.4613(3) 0.0558(4)
C32_25 C 0.5558(4) 0.4613(3) 0.0879(3)
C34_25 C 0.5726(4) 0.4751(6) 0.0726(4)
C36_25 C 0.5706(5) 0.5031(5) 0.0706(5)
O73_13 O 0.5422(4) 0.6429(6) 0.0422(4)
O75_25 O 0.5897(3) 0.5491(3) 0.1278(3)
O76_13 O 0.5491(3) 0.6278(3) 0.0897(3)
O77_13 O 0.5897(3) 0.6278(3) 0.0491(3)
H1_13 H 0.398093 0.571468 0.0714681
H3_13 H 0.472153 0.601741 0.0433758
H13_13 H 0.472153 0.543376 0.101741
H16_25 H 0.543376 0.472153 0.101741
H17_25 H 0.601741 0.472153 0.0433758
H18_25 H 0.571468 0.398093 0.0714681
Cd3_13 Cd 0.44424(5) 0.44424(5) 0.89333(7)
Cd5_25 Cd 0.39333(7) 0.44424(5) 0.94424(5)
O14_37 O 0.4025(2) 0.6065(3) 0.9666(2)
O15_13 O 0.4666(2) 0.6065(3) 0.9025(2)
O19_13 O 0.5334(2) 0.5975(2) 0.8935(3)
O21_37 O 0.3805(3) 0.5711(3) 0.9785(3)
O22_13 O 0.4785(3) 0.5711(3) 0.8805(3)
O26_13 O 0.5215(3) 0.6195(3) 0.9289(3)
O28_37 O 0.4415(3) 0.4841(3) 0.9099(4)
O29_25 O 0.4099(4) 0.4841(3) 0.9415(3)
O33_13 O 0.4841(3) 0.4415(3) 0.9099(4)
O70_13 O 0.4256(3) 0.4256(3) 0.9256(3)
C17_37 C 0.3973(3) 0.5830(5) 0.9647(4)
C18_37 C 0.4647(4) 0.5830(5) 0.8973(3)
C21_37 C 0.4293(4) 0.5804(5) 0.9293(4)
C24_37 C 0.4130(3) 0.5664(4) 0.9466(3)
C25_37 C 0.4466(3) 0.5664(4) 0.9130(3)
C29_37 C 0.4121(3) 0.5387(3) 0.9442(4)
C30_37 C 0.4442(4) 0.5387(3) 0.9121(3)
C33_37 C 0.4274(4) 0.5249(6) 0.9274(4)
C35_37 C 0.4294(5) 0.4969(5) 0.9294(5)
O74_37 O 0.4578(4) 0.4578(4) 0.8571(6)
O78_37 O 0.4103(3) 0.4509(3) 0.8722(3)
O79_37 O 0.4509(3) 0.4103(3) 0.8722(3)
H12_37 H 0.456624 0.527847 0.898259
H14_37 H 0.398259 0.527847 0.956624
H15_37 H 0.428532 0.601907 0.928532
Cd1_14 Cd 0.19424(5) 0.69424(5) 0.60667(7)
O1_14 O 0.3565(3) 0.6525(2) 0.5334(2)
O2_14 O 0.3211(3) 0.6305(3) 0.5215(3)
O3_14 O 0.2341(3) 0.6915(3) 0.5901(4)
O9_14 O 0.1756(3) 0.6756(3) 0.5744(3)
C1_14 C 0.3330(5) 0.6473(3) 0.5353(4)
C2_14 C 0.3304(5) 0.6793(4) 0.5707(4)
C3_14 C 0.3164(4) 0.6630(3) 0.5534(3)
C4_14 C 0.2887(3) 0.6621(3) 0.5558(4)
C5_14 C 0.2749(6) 0.6774(4) 0.5726(4)
C6_14 C 0.2469(5) 0.6794(5) 0.5706(5)
O11_26 O 0.2078(4) 0.7078(4) 0.6429(6)
O12_26 O 0.2009(3) 0.6603(3) 0.6278(3)
Cd2_14 Cd 0.19424(5) 0.64333(7) 0.55576(5)
Cd3_14 Cd 0.30576(5) 0.80576(5) 0.39333(7)
Cd4_14 Cd 0.14333(7) 0.69424(5) 0.55576(5)
Cd5_26 Cd 0.35667(7) 0.80576(5) 0.44424(5)
O13_14 O 0.3565(3) 0.7166(2) 0.5975(2)
O14_38 O 0.3475(2) 0.6435(3) 0.4666(2)
O15_14 O 0.2834(2) 0.6435(3) 0.4025(2)
O16_14 O 0.1525(2) 0.8565(3) 0.5334(2)
O17_26 O 0.2166(2) 0.8565(3) 0.5975(2)
O18_26 O 0.3475(2) 0.7834(2) 0.6065(3)
O19_14 O 0.2166(2) 0.6525(2) 0.3935(3)
O20_14 O 0.3211(3) 0.7285(3) 0.6195(3)
O21_38 O 0.3695(3) 0.6789(3) 0.4785(3)
O22_14 O 0.2715(3) 0.6789(3) 0.3805(3)
O23_14 O 0.1305(3) 0.8211(3) 0.5215(3)
O24_26 O 0.2285(3) 0.8211(3) 0.6195(3)
O25_26 O 0.3695(3) 0.7715(3) 0.5711(3)
O26_14 O 0.2285(3) 0.6305(3) 0.4289(3)
O27_14 O 0.2341(3) 0.6599(4) 0.5585(3)
O28_38 O 0.3085(3) 0.7659(3) 0.4099(4)
O29_26 O 0.3401(4) 0.7659(3) 0.4415(3)
O30_26 O 0.1915(3) 0.7341(3) 0.5901(4)
O31_14 O 0.1599(4) 0.7341(3) 0.5585(3)
O32_14 O 0.1915(3) 0.6599(4) 0.5159(3)
O33_14 O 0.2659(3) 0.8085(3) 0.4099(4)
O70_14 O 0.3244(3) 0.8244(3) 0.4256(3)
C16_14 C 0.3330(5) 0.7147(4) 0.6027(3)
C17_38 C 0.3527(3) 0.6670(5) 0.4647(4)
C18_38 C 0.2853(4) 0.6670(5) 0.3973(3)
C19_26 C 0.1473(3) 0.8330(5) 0.5353(4)
C20_26 C 0.2147(4) 0.8330(5) 0.6027(3)
C21_38 C 0.3207(4) 0.6696(5) 0.4293(4)
C22_26 C 0.1793(4) 0.8304(5) 0.5707(4)
C23_14 C 0.3164(4) 0.6966(3) 0.5870(3)
C24_38 C 0.3370(3) 0.6836(4) 0.4466(3)
C25_38 C 0.3034(3) 0.6836(4) 0.4130(3)
C26_26 C 0.1630(3) 0.8164(4) 0.5534(3)
C27_26 C 0.1966(3) 0.8164(4) 0.5870(3)
C28_14 C 0.2887(3) 0.6942(4) 0.5879(3)
C29_38 C 0.3379(3) 0.7113(3) 0.4442(4)
C30_38 C 0.3058(4) 0.7113(3) 0.4121(3)
C31_26 C 0.1621(3) 0.7887(3) 0.5558(4)
C32_26 C 0.1942(4) 0.7887(3) 0.5879(3)
C33_38 C 0.3226(4) 0.7251(6) 0.4274(4)
C34_26 C 0.1774(4) 0.7749(6) 0.5726(4)
C35_38 C 0.3206(5) 0.7531(5) 0.4294(5)
C36_26 C 0.1794(5) 0.7469(5) 0.5706(5)
O73_14 O 0.2078(4) 0.6071(6) 0.5422(4)
O74_38 O 0.2922(4) 0.7922(4) 0.3571(6)
O75_26 O 0.1603(3) 0.7009(3) 0.6278(3)
O76_14 O 0.2009(3) 0.6222(3) 0.5897(3)
O77_14 O 0.1603(3) 0.6222(3) 0.5491(3)
O78_38 O 0.3397(3) 0.7991(3) 0.3722(3)
O79_38 O 0.2991(3) 0.8397(3) 0.3722(3)
H1_14 H 0.351907 0.678532 0.571468
H3_14 H 0.277847 0.648259 0.543376
H12_38 H 0.293376 0.722153 0.398259
H13_14 H 0.277847 0.706624 0.601741
H14_38 H 0.351741 0.722153 0.456624
H15_38 H 0.321468 0.648093 0.428532
H16_26 H 0.206624 0.777847 0.601741
H17_26 H 0.148259 0.777847 0.543376
H18_26 H 0.178532 0.851907 0.571468
Cd1_15 Cd 0.69424(5) 0.05576(5) 0.64333(7)
O1_15 O 0.8565(3) 0.0975(2) 0.7166(2)
O2_15 O 0.8211(3) 0.1195(3) 0.7285(3)
O3_15 O 0.7341(3) 0.0585(3) 0.6599(4)
O9_15 O 0.6756(3) 0.0744(3) 0.6756(3)
C1_15 C 0.8330(5) 0.1027(3) 0.7147(4)
C2_15 C 0.8304(5) 0.0707(4) 0.6793(4)
C3_15 C 0.8164(4) 0.0870(3) 0.6966(3)
C4_15 C 0.7887(3) 0.0879(3) 0.6942(4)
C5_15 C 0.7749(6) 0.0726(4) 0.6774(4)
C6_15 C 0.7469(5) 0.0706(5) 0.6794(5)
O11_27 O 0.7078(4) 0.0422(4) 0.6071(6)
O12_27 O 0.7009(3) 0.0897(3) 0.6222(3)
Cd2_15 Cd 0.69424(5) 0.10667(7) 0.69424(5)
Cd4_15 Cd 0.64333(7) 0.05576(5) 0.69424(5)
O13_15 O 0.8565(3) 0.0334(2) 0.6525(2)
O14_39 O 0.8475(2) 0.1065(3) 0.7834(2)
O15_15 O 0.7834(2) 0.1065(3) 0.8475(2)
O19_15 O 0.7166(2) 0.0975(2) 0.8565(3)
O20_15 O 0.8211(3) 0.0215(3) 0.6305(3)
O21_39 O 0.8695(3) 0.0711(3) 0.7715(3)
O22_15 O 0.7715(3) 0.0711(3) 0.8695(3)
O26_15 O 0.7285(3) 0.1195(3) 0.8211(3)
O27_15 O 0.7341(3) 0.0901(4) 0.6915(3)
O30_27 O 0.6915(3) 0.0159(3) 0.6599(4)
O31_15 O 0.6599(4) 0.0159(3) 0.6915(3)
O32_15 O 0.6915(3) 0.0901(4) 0.7341(3)
C16_15 C 0.8330(5) 0.0353(4) 0.6473(3)
C17_39 C 0.8527(3) 0.0830(5) 0.7853(4)
C18_39 C 0.7853(4) 0.0830(5) 0.8527(3)
C21_39 C 0.8207(4) 0.0804(5) 0.8207(4)
C23_15 C 0.8164(4) 0.0534(3) 0.6630(3)
C24_39 C 0.8370(3) 0.0664(4) 0.8034(3)
C25_39 C 0.8034(3) 0.0664(4) 0.8370(3)
C28_15 C 0.7887(3) 0.0558(4) 0.6621(3)
C29_39 C 0.8379(3) 0.0387(3) 0.8058(4)
C30_39 C 0.8058(4) 0.0387(3) 0.8379(3)
C33_39 C 0.8226(4) 0.0249(6) 0.8226(4)
C36_27 C 0.6794(5) 0.0031(5) 0.6794(5)
O73_15 O 0.7078(4) 0.1429(6) 0.7078(4)
O75_27 O 0.6603(3) 0.0491(3) 0.6222(3)
O76_15 O 0.7009(3) 0.1278(3) 0.6603(3)
O77_15 O 0.6603(3) 0.1278(3) 0.7009(3)
H1_15 H 0.851907 0.0714681 0.678532
H3_15 H 0.777847 0.101741 0.706624
H12_39 H 0.793376 0.0278468 0.851741
H13_15 H 0.777847 0.0433758 0.648259
H14_39 H 0.851741 0.0278468 0.793376
H15_39 H 0.821468 0.101907 0.821468
Cd3_15 Cd 0.80576(5) 0.94424(5) 0.85667(7)
Cd5_27 Cd 0.85667(7) 0.94424(5) 0.80576(5)
O16_15 O 0.6525(2) 0.8935(3) 0.7166(2)
O17_27 O 0.7166(2) 0.8935(3) 0.6525(2)
O18_27 O 0.8475(2) 0.9666(2) 0.6435(3)
O23_15 O 0.6305(3) 0.9289(3) 0.7285(3)
O24_27 O 0.7285(3) 0.9289(3) 0.6305(3)
O25_27 O 0.8695(3) 0.9785(3) 0.6789(3)
O28_39 O 0.8085(3) 0.9841(3) 0.8401(4)
O29_27 O 0.8401(4) 0.9841(3) 0.8085(3)
O33_15 O 0.7659(3) 0.9415(3) 0.8401(4)
O70_15 O 0.8244(3) 0.9256(3) 0.8244(3)
C19_27 C 0.6473(3) 0.9170(5) 0.7147(4)
C20_27 C 0.7147(4) 0.9170(5) 0.6473(3)
C22_27 C 0.6793(4) 0.9196(5) 0.6793(4)
C26_27 C 0.6630(3) 0.9336(4) 0.6966(3)
C27_27 C 0.6966(3) 0.9336(4) 0.6630(3)
C31_27 C 0.6621(3) 0.9613(3) 0.6942(4)
C32_27 C 0.6942(4) 0.9613(3) 0.6621(3)
C34_27 C 0.6774(4) 0.9751(6) 0.6774(4)
C35_39 C 0.8206(5) 0.9969(5) 0.8206(5)
O74_39 O 0.7922(4) 0.9578(4) 0.8929(6)
O78_39 O 0.8397(3) 0.9509(3) 0.8778(3)
O79_39 O 0.7991(3) 0.9103(3) 0.8778(3)
H16_27 H 0.706624 0.972153 0.648259
H17_27 H 0.648259 0.972153 0.706624
H18_27 H 0.678532 0.898093 0.678532
Cd1_16 Cd 0.05576(5) 0.19424(5) 0.14333(7)
O3_16 O 0.0159(3) 0.1915(3) 0.1599(4)
O9_16 O 0.0744(3) 0.1756(3) 0.1756(3)
C6_16 C 0.0031(5) 0.1794(5) 0.1794(5)
O11_28 O 0.0422(4) 0.2078(4) 0.1071(6)
O12_28 O 0.0491(3) 0.1603(3) 0.1222(3)
Cd2_16 Cd 0.05576(5) 0.14333(7) 0.19424(5)
Cd4_16 Cd 0.10667(7) 0.19424(5) 0.19424(5)
O16_16 O 0.0975(2) 0.3565(3) 0.2166(2)
O17_28 O 0.0334(2) 0.3565(3) 0.1525(2)
O19_16 O 0.0334(2) 0.1525(2) 0.3565(3)
O23_16 O 0.1195(3) 0.3211(3) 0.2285(3)
O24_28 O 0.0215(3) 0.3211(3) 0.1305(3)
O26_16 O 0.0215(3) 0.1305(3) 0.3211(3)
O27_16 O 0.0159(3) 0.1599(4) 0.1915(3)
O30_28 O 0.0585(3) 0.2341(3) 0.1599(4)
O31_16 O 0.0901(4) 0.2341(3) 0.1915(3)
O32_16 O 0.0585(3) 0.1599(4) 0.2341(3)
C19_28 C 0.1027(3) 0.3330(5) 0.2147(4)
C20_28 C 0.0353(4) 0.3330(5) 0.1473(3)
C22_28 C 0.0707(4) 0.3304(5) 0.1793(4)
C26_28 C 0.0870(3) 0.3164(4) 0.1966(3)
C27_28 C 0.0534(3) 0.3164(4) 0.1630(3)
C31_28 C 0.0879(3) 0.2887(3) 0.1942(4)
C32_28 C 0.0558(4) 0.2887(3) 0.1621(3)
C34_28 C 0.0726(4) 0.2749(6) 0.1774(4)
C36_28 C 0.0706(5) 0.2469(5) 0.1794(5)
O73_16 O 0.0422(4) 0.1071(6) 0.2078(4)
O75_28 O 0.0897(3) 0.2009(3) 0.1222(3)
O76_16 O 0.0491(3) 0.1222(3) 0.1603(3)
O77_16 O 0.0897(3) 0.1222(3) 0.2009(3)
H16_28 H 0.0433758 0.277847 0.148259
H17_28 H 0.101741 0.277847 0.206624
H18_28 H 0.0714681 0.351907 0.178532
O1_16 O 0.8935(3) 0.1525(2) 0.2166(2)
O2_16 O 0.9289(3) 0.1305(3) 0.2285(3)
C1_16 C 0.9170(5) 0.1473(3) 0.2147(4)
C2_16 C 0.9196(5) 0.1793(4) 0.1793(4)
C3_16 C 0.9336(4) 0.1630(3) 0.1966(3)
C4_16 C 0.9613(3) 0.1621(3) 0.1942(4)
C5_16 C 0.9751(6) 0.1774(4) 0.1774(4)
Cd3_16 Cd 0.94424(5) 0.30576(5) 0.35667(7)
Cd5_28 Cd 0.89333(7) 0.30576(5) 0.30576(5)
O13_16 O 0.8935(3) 0.2166(2) 0.1525(2)
O14_40 O 0.9025(2) 0.1435(3) 0.2834(2)
O15_16 O 0.9666(2) 0.1435(3) 0.3475(2)
O18_28 O 0.9025(2) 0.2834(2) 0.1435(3)
O20_16 O 0.9289(3) 0.2285(3) 0.1305(3)
O21_40 O 0.8805(3) 0.1789(3) 0.2715(3)
O22_16 O 0.9785(3) 0.1789(3) 0.3695(3)
O25_28 O 0.8805(3) 0.2715(3) 0.1789(3)
O28_40 O 0.9415(3) 0.2659(3) 0.3401(4)
O29_28 O 0.9099(4) 0.2659(3) 0.3085(3)
O33_16 O 0.9841(3) 0.3085(3) 0.3401(4)
O70_16 O 0.9256(3) 0.3244(3) 0.3244(3)
C16_16 C 0.9170(5) 0.2147(4) 0.1473(3)
C17_40 C 0.8973(3) 0.1670(5) 0.2853(4)
C18_40 C 0.9647(4) 0.1670(5) 0.3527(3)
C21_40 C 0.9293(4) 0.1696(5) 0.3207(4)
C23_16 C 0.9336(4) 0.1966(3) 0.1630(3)
C24_40 C 0.9130(3) 0.1836(4) 0.3034(3)
C25_40 C 0.9466(3) 0.1836(4) 0.3370(3)
C28_16 C 0.9613(3) 0.1942(4) 0.1621(3)
C29_40 C 0.9121(3) 0.2113(3) 0.3058(4)
C30_40 C 0.9442(4) 0.2113(3) 0.3379(3)
C33_40 C 0.9274(4) 0.2251(6) 0.3226(4)
C35_40 C 0.9294(5) 0.2531(5) 0.3206(5)
O74_40 O 0.9578(4) 0.2922(4) 0.3929(6)
O78_40 O 0.9103(3) 0.2991(3) 0.3778(3)
O79_40 O 0.9509(3) 0.3397(3) 0.3778(3)
H1_16 H 0.898093 0.178532 0.178532
H3_16 H 0.972153 0.148259 0.206624
H12_40 H 0.956624 0.222153 0.351741
H13_16 H 0.972153 0.206624 0.148259
H14_40 H 0.898259 0.222153 0.293376
H15_40 H 0.928532 0.148093 0.321468
O11_29 O 0.6429(6) 0.5422(4) 0.0422(4)
O12_29 O 0.6278(3) 0.5491(3) 0.0897(3)
O14_41 O 0.4666(2) 0.4025(2) 0.1065(3)
O21_41 O 0.4785(3) 0.3805(3) 0.0711(3)
O30_29 O 0.5901(4) 0.5585(3) 0.0159(3)
C17_41 C 0.4647(4) 0.3973(3) 0.0830(5)
C18_41 C 0.3973(3) 0.4647(4) 0.0830(5)
C21_41 C 0.4293(4) 0.4293(4) 0.0804(5)
C24_41 C 0.4466(3) 0.4130(3) 0.0664(4)
C25_41 C 0.4130(3) 0.4466(3) 0.0664(4)
C29_41 C 0.4442(4) 0.4121(3) 0.0387(3)
C30_41 C 0.4121(3) 0.4442(4) 0.0387(3)
C33_41 C 0.4274(4) 0.4274(4) 0.0249(6)
C36_29 C 0.5706(5) 0.5706(5) 0.0031(5)
O75_29 O 0.6278(3) 0.5897(3) 0.0491(3)
H12_41 H 0.398259 0.456624 0.0278468
H14_41 H 0.456624 0.398259 0.0278468
H15_41 H 0.428532 0.428532 0.101907
Cd5_29 Cd 0.44424(5) 0.39333(7) 0.94424(5)
O17_29 O 0.5975(2) 0.5334(2) 0.8935(3)
O18_29 O 0.6065(3) 0.4025(2) 0.9666(2)
O24_29 O 0.6195(3) 0.5215(3) 0.9289(3)
O25_29 O 0.5711(3) 0.3805(3) 0.9785(3)
O28_41 O 0.4099(4) 0.4415(3) 0.9841(3)
O29_29 O 0.4415(3) 0.4099(4) 0.9841(3)
C19_29 C 0.5353(4) 0.6027(3) 0.9170(5)
C20_29 C 0.6027(3) 0.5353(4) 0.9170(5)
C22_29 C 0.5707(4) 0.5707(4) 0.9196(5)
C26_29 C 0.5534(3) 0.5870(3) 0.9336(4)
C27_29 C 0.5870(3) 0.5534(3) 0.9336(4)
C31_29 C 0.5558(4) 0.5879(3) 0.9613(3)
C32_29 C 0.5879(3) 0.5558(4) 0.9613(3)
C34_29 C 0.5726(4) 0.5726(4) 0.9751(6)
C35_41 C 0.4294(5) 0.4294(5) 0.9969(5)
O74_41 O 0.3571(6) 0.4578(4) 0.9578(4)
O78_41 O 0.3722(3) 0.4103(3) 0.9509(3)
O79_41 O 0.3722(3) 0.4509(3) 0.9103(3)
H16_29 H 0.601741 0.543376 0.972153
H17_29 H 0.543376 0.601741 0.972153
H18_29 H 0.571468 0.571468 0.898093
O11_30 O 0.1429(6) 0.2078(4) 0.2078(4)
O12_30 O 0.1278(3) 0.2009(3) 0.1603(3)
O17_30 O 0.0975(2) 0.2166(2) 0.3565(3)
O18_30 O 0.1065(3) 0.3475(2) 0.2834(2)
O24_30 O 0.1195(3) 0.2285(3) 0.3211(3)
O25_30 O 0.0711(3) 0.3695(3) 0.2715(3)
O30_30 O 0.0901(4) 0.1915(3) 0.2341(3)
C19_30 C 0.0353(4) 0.1473(3) 0.3330(5)
C20_30 C 0.1027(3) 0.2147(4) 0.3330(5)
C22_30 C 0.0707(4) 0.1793(4) 0.3304(5)
C26_30 C 0.0534(3) 0.1630(3) 0.3164(4)
C27_30 C 0.0870(3) 0.1966(3) 0.3164(4)
C31_30 C 0.0558(4) 0.1621(3) 0.2887(3)
C32_30 C 0.0879(3) 0.1942(4) 0.2887(3)
C34_30 C 0.0726(4) 0.1774(4) 0.2749(6)
C36_30 C 0.0706(5) 0.1794(5) 0.2469(5)
O75_30 O 0.1278(3) 0.1603(3) 0.2009(3)
H16_30 H 0.101741 0.206624 0.277847
H17_30 H 0.0433758 0.148259 0.277847
H18_30 H 0.0714681 0.178532 0.351907
Cd5_30 Cd 0.94424(5) 0.35667(7) 0.30576(5)
O14_42 O 0.9666(2) 0.3475(2) 0.1435(3)
O21_42 O 0.9785(3) 0.3695(3) 0.1789(3)
O28_42 O 0.9099(4) 0.3085(3) 0.2659(3)
O29_30 O 0.9415(3) 0.3401(4) 0.2659(3)
C17_42 C 0.9647(4) 0.3527(3) 0.1670(5)
C18_42 C 0.8973(3) 0.2853(4) 0.1670(5)
C21_42 C 0.9293(4) 0.3207(4) 0.1696(5)
C24_42 C 0.9466(3) 0.3370(3) 0.1836(4)
C25_42 C 0.9130(3) 0.3034(3) 0.1836(4)
C29_42 C 0.9442(4) 0.3379(3) 0.2113(3)
C30_42 C 0.9121(3) 0.3058(4) 0.2113(3)
C33_42 C 0.9274(4) 0.3226(4) 0.2251(6)
C35_42 C 0.9294(5) 0.3206(5) 0.2531(5)
O74_42 O 0.8571(6) 0.2922(4) 0.2922(4)
O78_42 O 0.8722(3) 0.3397(3) 0.2991(3)
O79_42 O 0.8722(3) 0.2991(3) 0.3397(3)
H12_42 H 0.898259 0.293376 0.222153
H14_42 H 0.956624 0.351741 0.222153
H15_42 H 0.928532 0.321468 0.148093
O11_31 O 0.1071(6) 0.7078(4) 0.5422(4)
O12_31 O 0.1222(3) 0.7009(3) 0.5897(3)
Cd5_31 Cd 0.30576(5) 0.85667(7) 0.44424(5)
O14_43 O 0.2834(2) 0.8475(2) 0.6065(3)
O17_31 O 0.1525(2) 0.7166(2) 0.3935(3)
O18_31 O 0.1435(3) 0.8475(2) 0.4666(2)
O21_43 O 0.2715(3) 0.8695(3) 0.5711(3)
O24_31 O 0.1305(3) 0.7285(3) 0.4289(3)
O25_31 O 0.1789(3) 0.8695(3) 0.4785(3)
O28_43 O 0.3401(4) 0.8085(3) 0.4841(3)
O29_31 O 0.3085(3) 0.8401(4) 0.4841(3)
O30_31 O 0.1599(4) 0.6915(3) 0.5159(3)
C17_43 C 0.2853(4) 0.8527(3) 0.5830(5)
C18_43 C 0.3527(3) 0.7853(4) 0.5830(5)
C19_31 C 0.2147(4) 0.6473(3) 0.4170(5)
C20_31 C 0.1473(3) 0.7147(4) 0.4170(5)
C21_43 C 0.3207(4) 0.8207(4) 0.5804(5)
C22_31 C 0.1793(4) 0.6793(4) 0.4196(5)
C24_43 C 0.3034(3) 0.8370(3) 0.5664(4)
C25_43 C 0.3370(3) 0.8034(3) 0.5664(4)
C26_31 C 0.1966(3) 0.6630(3) 0.4336(4)
C27_31 C 0.1630(3) 0.6966(3) 0.4336(4)
C29_43 C 0.3058(4) 0.8379(3) 0.5387(3)
C30_43 C 0.3379(3) 0.8058(4) 0.5387(3)
C31_31 C 0.1942(4) 0.6621(3) 0.4613(3)
C32_31 C 0.1621(3) 0.6942(4) 0.4613(3)
C33_43 C 0.3226(4) 0.8226(4) 0.5249(6)
C34_31 C 0.1774(4) 0.6774(4) 0.4751(6)
C35_43 C 0.3206(5) 0.8206(5) 0.4969(5)
C36_31 C 0.1794(5) 0.6794(5) 0.5031(5)
O74_43 O 0.3929(6) 0.7922(4) 0.4578(4)
O75_31 O 0.1222(3) 0.6603(3) 0.5491(3)
O78_43 O 0.3778(3) 0.8397(3) 0.4509(3)
O79_43 O 0.3778(3) 0.7991(3) 0.4103(3)
H12_43 H 0.351741 0.793376 0.527847
H14_43 H 0.293376 0.851741 0.527847
H15_43 H 0.321468 0.821468 0.601907
H16_31 H 0.148259 0.706624 0.472153
H17_31 H 0.206624 0.648259 0.472153
H18_31 H 0.178532 0.678532 0.398093
O11_32 O 0.6071(6) 0.0422(4) 0.7078(4)
O12_32 O 0.6222(3) 0.0491(3) 0.6603(3)
O17_32 O 0.6525(2) 0.0334(2) 0.8565(3)
O24_32 O 0.6305(3) 0.0215(3) 0.8211(3)
O30_32 O 0.6599(4) 0.0585(3) 0.7341(3)
C19_32 C 0.7147(4) 0.1027(3) 0.8330(5)
C20_32 C 0.6473(3) 0.0353(4) 0.8330(5)
C22_32 C 0.6793(4) 0.0707(4) 0.8304(5)
C26_32 C 0.6966(3) 0.0870(3) 0.8164(4)
C27_32 C 0.6630(3) 0.0534(3) 0.8164(4)
C31_32 C 0.6942(4) 0.0879(3) 0.7887(3)
C32_32 C 0.6621(3) 0.0558(4) 0.7887(3)
C34_32 C 0.6774(4) 0.0726(4) 0.7749(6)
C36_32 C 0.6794(5) 0.0706(5) 0.7469(5)
O75_32 O 0.6222(3) 0.0897(3) 0.7009(3)
H16_32 H 0.648259 0.0433758 0.777847
H17_32 H 0.706624 0.101741 0.777847
H18_32 H 0.678532 0.0714681 0.851907
Cd5_32 Cd 0.80576(5) 0.89333(7) 0.80576(5)
O14_44 O 0.7834(2) 0.9025(2) 0.6435(3)
O18_32 O 0.6435(3) 0.9025(2) 0.7834(2)
O21_44 O 0.7715(3) 0.8805(3) 0.6789(3)
O25_32 O 0.6789(3) 0.8805(3) 0.7715(3)
O28_44 O 0.8401(4) 0.9415(3) 0.7659(3)
O29_32 O 0.8085(3) 0.9099(4) 0.7659(3)
C17_44 C 0.7853(4) 0.8973(3) 0.6670(5)
C18_44 C 0.8527(3) 0.9647(4) 0.6670(5)
C21_44 C 0.8207(4) 0.9293(4) 0.6696(5)
C24_44 C 0.8034(3) 0.9130(3) 0.6836(4)
C25_44 C 0.8370(3) 0.9466(3) 0.6836(4)
C29_44 C 0.8058(4) 0.9121(3) 0.7113(3)
C30_44 C 0.8379(3) 0.9442(4) 0.7113(3)
C33_44 C 0.8226(4) 0.9274(4) 0.7251(6)
C35_44 C 0.8206(5) 0.9294(5) 0.7531(5)
O74_44 O 0.8929(6) 0.9578(4) 0.7922(4)
O78_44 O 0.8778(3) 0.9103(3) 0.7991(3)
O79_44 O 0.8778(3) 0.9509(3) 0.8397(3)
H12_44 H 0.851741 0.956624 0.722153
H14_44 H 0.793376 0.898259 0.722153
H15_44 H 0.821468 0.928532 0.648093
O14_45 O 0.6065(3) 0.4666(2) 0.9025(2)
O21_45 O 0.5711(3) 0.4785(3) 0.8805(3)
O28_45 O 0.4841(3) 0.4099(4) 0.9415(3)
C17_45 C 0.5830(5) 0.4647(4) 0.8973(3)
C18_45 C 0.5830(5) 0.3973(3) 0.9647(4)
C21_45 C 0.5804(5) 0.4293(4) 0.9293(4)
C24_45 C 0.5664(4) 0.4466(3) 0.9130(3)
C25_45 C 0.5664(4) 0.4130(3) 0.9466(3)
C29_45 C 0.5387(3) 0.4442(4) 0.9121(3)
C30_45 C 0.5387(3) 0.4121(3) 0.9442(4)
C33_45 C 0.5249(6) 0.4274(4) 0.9274(4)
C35_45 C 0.4969(5) 0.4294(5) 0.9294(5)
O74_45 O 0.4578(4) 0.3571(6) 0.9578(4)
O78_45 O 0.4509(3) 0.3722(3) 0.9103(3)
O79_45 O 0.4103(3) 0.3722(3) 0.9509(3)
H12_45 H 0.527847 0.398259 0.956624
H14_45 H 0.527847 0.456624 0.898259
H15_45 H 0.601907 0.428532 0.928532
O14_46 O 0.6435(3) 0.9666(2) 0.8475(2)
O21_46 O 0.6789(3) 0.9785(3) 0.8695(3)
O28_46 O 0.7659(3) 0.9099(4) 0.8085(3)
C17_46 C 0.6670(5) 0.9647(4) 0.8527(3)
C18_46 C 0.6670(5) 0.8973(3) 0.7853(4)
C21_46 C 0.6696(5) 0.9293(4) 0.8207(4)
C24_46 C 0.6836(4) 0.9466(3) 0.8370(3)
C25_46 C 0.6836(4) 0.9130(3) 0.8034(3)
C29_46 C 0.7113(3) 0.9442(4) 0.8379(3)
C30_46 C 0.7113(3) 0.9121(3) 0.8058(4)
C33_46 C 0.7251(6) 0.9274(4) 0.8226(4)
C35_46 C 0.7531(5) 0.9294(5) 0.8206(5)
O74_46 O 0.7922(4) 0.8571(6) 0.7922(4)
O78_46 O 0.7991(3) 0.8722(3) 0.8397(3)
O79_46 O 0.8397(3) 0.8722(3) 0.7991(3)
H12_46 H 0.722153 0.898259 0.793376
H14_46 H 0.722153 0.956624 0.851741
H15_46 H 0.648093 0.928532 0.821468
O14_47 O 0.1065(3) 0.2834(2) 0.3475(2)
O21_47 O 0.0711(3) 0.2715(3) 0.3695(3)
C17_47 C 0.0830(5) 0.2853(4) 0.3527(3)
C18_47 C 0.0830(5) 0.3527(3) 0.2853(4)
C21_47 C 0.0804(5) 0.3207(4) 0.3207(4)
C24_47 C 0.0664(4) 0.3034(3) 0.3370(3)
C25_47 C 0.0664(4) 0.3370(3) 0.3034(3)
C29_47 C 0.0387(3) 0.3058(4) 0.3379(3)
C30_47 C 0.0387(3) 0.3379(3) 0.3058(4)
C33_47 C 0.0249(6) 0.3226(4) 0.3226(4)
H12_47 H 0.0278468 0.351741 0.293376
H14_47 H 0.0278468 0.293376 0.351741
H15_47 H 0.101907 0.321468 0.321468
O28_47 O 0.9841(3) 0.3401(4) 0.3085(3)
C35_47 C 0.9969(5) 0.3206(5) 0.3206(5)
O74_47 O 0.9578(4) 0.3929(6) 0.2922(4)
O78_47 O 0.9509(3) 0.3778(3) 0.3397(3)
O79_47 O 0.9103(3) 0.3778(3) 0.2991(3)
O14_48 O 0.1435(3) 0.7834(2) 0.4025(2)
O21_48 O 0.1789(3) 0.7715(3) 0.3805(3)
O28_48 O 0.2659(3) 0.8401(4) 0.4415(3)
C17_48 C 0.1670(5) 0.7853(4) 0.3973(3)
C18_48 C 0.1670(5) 0.8527(3) 0.4647(4)
C21_48 C 0.1696(5) 0.8207(4) 0.4293(4)
C24_48 C 0.1836(4) 0.8034(3) 0.4130(3)
C25_48 C 0.1836(4) 0.8370(3) 0.4466(3)
C29_48 C 0.2113(3) 0.8058(4) 0.4121(3)
C30_48 C 0.2113(3) 0.8379(3) 0.4442(4)
C33_48 C 0.2251(6) 0.8226(4) 0.4274(4)
C35_48 C 0.2531(5) 0.8206(5) 0.4294(5)
O74_48 O 0.2922(4) 0.8929(6) 0.4578(4)
O78_48 O 0.2991(3) 0.8778(3) 0.4103(3)
O79_48 O 0.3397(3) 0.8778(3) 0.4509(3)
H12_48 H 0.222153 0.851741 0.456624
H14_48 H 0.222153 0.793376 0.398259
H15_48 H 0.148093 0.821468 0.428532
loop_
_geom_bond_atom_site_label_1
_geom_bond_atom_site_label_2
_geom_bond_site_symmetry_1
_geom_bond_site_symmetry_2
Cd1 O3 1_555 1_555
O3 C6 1_555 1_555
O9 Cd1 1_555 1_555
O11 Cd1 1_555 1_555
O12 Cd1 1_555 1_555
Cd2 O9 1_555 1_555
Cd4 O9 1_555 1_555
O27 C6 1_555 1_555
O30 Cd1 1_555 1_555
O31 Cd4 1_555 1_555
O32 Cd2 1_555 1_555
C36 O30 1_555 1_555
O73 Cd2 1_555 1_555
O75 Cd1 1_555 1_555
O76 Cd2 1_555 1_555
O77 Cd2 1_555 1_555
Cd2 O27 1_555 1_555
O31 C36 1_555 1_555
O19 In4 1_555 1_555
O26 In4 1_555 1_555
O42 In4 1_555 1_555
O50 In4 1_555 1_555
In9 O16 1_555 1_555
In10 O17 1_555 1_555
O16 C19 1_555 1_555
O17 C20 1_555 1_555
O23 In9 1_555 1_555
O24 In10 1_555 1_555
C19 O23 1_555 1_555
C20 O24 1_555 1_555
C22 C26 1_555 1_555
C26 C19 1_555 1_555
C27 C20 1_555 1_555
C31 C26 1_555 1_555
C32 C27 1_555 1_555
C34 C31 1_555 1_555
C22 C27 1_555 1_555
C32 C34 1_555 1_555
C32 H16 1_555 1_555
C31 H17 1_555 1_555
C22 H18 1_555 1_555
In1 O1 1_555 1_555
In2 O6 1_555 1_555
O1 C1 1_555 1_555
O2 In1 1_555 1_555
O4 In1 1_555 1_555
O6 C12 1_555 1_555
O7 In2 1_555 1_555
O8 In2 1_555 1_555
C1 O2 1_555 1_555
C2 C3 1_555 1_555
C3 C1 1_555 1_555
C4 C3 1_555 1_555
C5 C4 1_555 1_555
C13 O8 1_555 1_555
C14 C13 1_555 1_555
C15 C14 1_555 1_555
In3 O13 1_555 1_555
In6 O36 1_555 1_555
In11 O7 1_555 1_555
In13 O7 1_555 1_555
In14 O61 1_555 1_555
In15 O62 1_555 1_555
In16 O63 1_555 1_555
In17 O64 1_555 1_555
O13 C16 1_555 1_555
O20 In3 1_555 1_555
O36 C39 1_555 1_555
O39 In3 1_555 1_555
O44 In1 1_555 1_555
O45 In6 1_555 1_555
O49 In3 1_555 1_555
O52 C12 1_555 1_555
O55 In2 1_555 1_555
O56 In13 1_555 1_555
O57 In11 1_555 1_555
O60 C13 1_555 1_555
O61 C58 1_555 1_555
O62 C58 1_555 1_555
O63 C59 1_555 1_555
O64 C59 1_555 1_555
O65 In2 1_555 1_555
O66 In11 1_555 1_555
O67 In11 1_555 1_555
C16 O20 1_555 1_555
C23 C2 1_555 1_555
C28 C5 1_555 1_555
C39 O45 1_555 1_555
C42 C45 1_555 1_555
C45 C38 1_555 1_555
C46 C39 1_555 1_555
C51 C46 1_555 1_555
C57 O55 1_555 1_555
C58 C60 1_555 1_555
C59 C61 1_555 1_555
C60 C15 1_555 1_555
C61 C62 1_555 1_555
C62 C60 1_555 1_555
C63 C14 1_555 1_555
O71 In11 1_555 1_555
In11 O52 1_555 1_555
In13 O60 1_555 1_555
O44 C38 1_555 1_555
O56 C57 1_555 1_555
C16 C23 1_555 1_555
C23 C28 1_555 1_555
C42 C46 1_555 1_555
C51 C54 1_555 1_555
C61 C63 1_555 1_555
C2 H1 1_555 1_555
C10 H2 1_555 1_555
C4 H3 1_555 1_555
C15 H5 1_555 1_555
C28 H13 1_555 1_555
C63 H20 1_555 1_555
C51 H24 1_555 1_555
C62 H25 1_555 1_555
C42 H40 1_555 1_555
O5 In1_2 1_555 1_555
C8 C9 1_555 1_555
C9 C7 1_555 1_555
In4_2 O15 1_555 1_555
In5 O34 1_555 1_555
In8 O38 1_555 1_555
In12 O53 1_555 1_555
In18 O54 1_555 1_555
O14 In1_2 1_555 1_555
O15 C18 1_555 1_555
O21 In1_2 1_555 1_555
O22 In4_2 1_555 1_555
O34 C37 1_555 1_555
O35 In1_2 1_555 1_555
O41 In4_2 1_555 1_555
O43 In5 1_555 1_555
O51 In4_2 1_555 1_555
O53 C56 1_555 1_555
O54 C56 1_555 1_555
O58 In12 1_555 1_555
O59 In12 1_555 1_555
O68 In12 1_555 1_555
O69 In12 1_555 1_555
C17 O14 1_555 1_555
C18 O22 1_555 1_555
C21 C24 1_555 1_555
C24 C17 1_555 1_555
C25 C18 1_555 1_555
C29 C24 1_555 1_555
C30 C25 1_555 1_555
C33 C29 1_555 1_555
C37 O43 1_555 1_555
C44 C8 1_555 1_555
C49 C11 1_555 1_555
O5 C7 1_555 1_555
In18 O59 1_555 1_555
O21 C17 1_555 1_555
C21 C25 1_555 1_555
C30 C33 1_555 1_555
C37 C44 1_555 1_555
C44 C49 1_555 1_555
C8 H4 1_555 1_555
C30 H12 1_555 1_555
C29 H14 1_555 1_555
C21 H15 1_555 1_555
C53 H21 1_555 1_555
C49 H26 1_555 1_555
C50 H41 1_555 1_555
In7 O37 1_555 1_555
O18 In3_2 1_555 1_555
O25 In3_2 1_555 1_555
O40 In3_2 1_555 1_555
O48 In3_2 1_555 1_555
C52 H19 1_555 1_555
Cd3 O28 1_555 1_555
Cd5 O29 1_555 1_555
O28 C35 1_555 1_555
O29 C35 1_555 1_555
O33 Cd3 1_555 1_555
O46 In7_2 1_555 1_555
O47 In8_2 1_555 1_555
O70 Cd3 1_555 1_555
C40 O46 1_555 1_555
C41 O47 1_555 1_555
C43 C47 1_555 1_555
C47 C40 1_555 1_555
C48 C41 1_555 1_555
O74 Cd3 1_555 1_555
O78 Cd3 1_555 1_555
O79 Cd3 1_555 1_555
Cd5 O70 1_555 1_555
C43 C48 1_555 1_555
C43 H35 1_555 1_555
In2_2 O6_2 1_555 1_555
O6_2 C12_2 1_555 1_555
O7_2 In2_2 1_555 1_555
O8_2 In2_2 1_555 1_555
C13_2 O8_2 1_555 1_555
C14_2 C13_2 1_555 1_555
C15_2 C14_2 1_555 1_555
O10_2 In2_2 1_555 1_555
In5_2 O34_2 1_555 1_555
In7_3 O37_2 1_555 1_555
In8_3 O38_2 1_555 1_555
In11_2 O7_2 1_555 1_555
In13_2 O7_2 1_555 1_555
In14_2 O61_2 1_555 1_555
In15_2 O62_2 1_555 1_555
In16_2 O63_2 1_555 1_555
In17_2 O64_2 1_555 1_555
O37_2 C40_2 1_555 1_555
O38_2 C41_2 1_555 1_555
O46_2 In7_3 1_555 1_555
O47_2 In8_3 1_555 1_555
O52_2 C12_2 1_555 1_555
O55_2 In2_2 1_555 1_555
O56_2 In13_2 1_555 1_555
O57_2 In11_2 1_555 1_555
O60_2 C13_2 1_555 1_555
O61_2 C58_2 1_555 1_555
O62_2 C58_2 1_555 1_555
O63_2 C59_2 1_555 1_555
O64_2 C59_2 1_555 1_555
O65_2 In2_2 1_555 1_555
O66_2 In11_2 1_555 1_555
O67_2 In11_2 1_555 1_555
C40_2 O46_2 1_555 1_555
C41_2 O47_2 1_555 1_555
C43_2 C47_2 1_555 1_555
C47_2 C40_2 1_555 1_555
C48_2 C41_2 1_555 1_555
C52_2 C47_2 1_555 1_555
C53_2 C48_2 1_555 1_555
C55_2 C52_2 1_555 1_555
C57_2 O55_2 1_555 1_555
C58_2 C60_2 1_555 1_555
C59_2 C61_2 1_555 1_555
C60_2 C15_2 1_555 1_555
C61_2 C62_2 1_555 1_555
C62_2 C60_2 1_555 1_555
C63_2 C14_2 1_555 1_555
In11_2 O52_2 1_555 1_555
In13_2 O60_2 1_555 1_555
O56_2 C57_2 1_555 1_555
C43_2 C48_2 1_555 1_555
C53_2 C55_2 1_555 1_555
C55_2 C57_2 1_555 1_555
C61_2 C63_2 1_555 1_555
C15_2 H5_2 1_555 1_555
C52_2 H19_2 1_555 1_555
C63_2 H20_2 1_555 1_555
C53_2 H21_2 1_555 1_555
C62_2 H25_2 1_555 1_555
C49_2 H26_2 1_555 1_555
C43_2 H35_2 1_555 1_555
In1_3 O1_2 1_555 1_555
Cd1_2 O3_2 1_555 1_555
O1_2 C1_2 1_555 1_555
O2_2 In1_3 1_555 1_555
O3_2 C6_2 1_555 1_555
O4_2 In1_3 1_555 1_555
O5_2 In1_3 1_555 1_555
O9_2 Cd1_2 1_555 1_555
C1_2 O2_2 1_555 1_555
C2_2 C3_2 1_555 1_555
C3_2 C1_2 1_555 1_555
C4_2 C3_2 1_555 1_555
C5_2 C4_2 1_555 1_555
C6_2 C5_2 1_555 1_555
C7_2 O4_2 1_555 1_555
C8_2 C9_2 1_555 1_555
C9_2 C7_2 1_555 1_555
C10_2 C9_2 1_555 1_555
C11_2 C10_2 1_555 1_555
O11_2 Cd1_2 1_555 1_555
O12_2 Cd1_2 1_555 1_555
In3_3 O13_2 1_555 1_555
In4_3 O15_2 1_555 1_555
In9_3 O16_2 1_555 1_555
In10_3 O17_2 1_555 1_555
Cd2_2 O9_2 1_555 1_555
Cd3_2 O28_2 1_555 1_555
Cd4_2 O9_2 1_555 1_555
Cd5_2 O29_2 1_555 1_555
O13_2 C16_2 1_555 1_555
O14_2 In1_3 1_555 1_555
O15_2 C18_2 1_555 1_555
O16_2 C19_2 1_555 1_555
O17_2 C20_2 1_555 1_555
O18_2 In3_3 1_555 1_555
O19_2 In4_3 1_555 1_555
O20_2 In3_3 1_555 1_555
O21_2 In1_3 1_555 1_555
O22_2 In4_3 1_555 1_555
O23_2 In9_3 1_555 1_555
O24_2 In10_3 1_555 1_555
O25_2 In3_3 1_555 1_555
O26_2 In4_3 1_555 1_555
O27_2 C6_2 1_555 1_555
O28_2 C35_2 1_555 1_555
O29_2 C35_2 1_555 1_555
O30_2 Cd1_2 1_555 1_555
O31_2 Cd4_2 1_555 1_555
O32_2 Cd2_2 1_555 1_555
O33_2 Cd3_2 1_555 1_555
O35_2 In1_3 1_555 1_555
O39_2 In3_3 1_555 1_555
O40_2 In3_3 1_555 1_555
O41_2 In4_3 1_555 1_555
O42_2 In4_3 1_555 1_555
O43_2 In5_3 1_555 1_555
O44_2 In1_3 1_555 1_555
O45_2 In6_2 1_555 1_555
O48_2 In3_3 1_555 1_555
O49_2 In3_3 1_555 1_555
O50_2 In4_3 1_555 1_555
O51_2 In4_3 1_555 1_555
O70_2 Cd3_2 1_555 1_555
C16_2 O20_2 1_555 1_555
C17_2 O14_2 1_555 1_555
C18_2 O22_2 1_555 1_555
C19_2 O23_2 1_555 1_555
C20_2 O24_2 1_555 1_555
C21_2 C24_2 1_555 1_555
C22_2 C26_2 1_555 1_555
C23_2 C2_2 1_555 1_555
C24_2 C17_2 1_555 1_555
C25_2 C18_2 1_555 1_555
C26_2 C19_2 1_555 1_555
C27_2 C20_2 1_555 1_555
C28_2 C5_2 1_555 1_555
C29_2 C24_2 1_555 1_555
C30_2 C25_2 1_555 1_555
C31_2 C26_2 1_555 1_555
C32_2 C27_2 1_555 1_555
C33_2 C29_2 1_555 1_555
C34_2 C31_2 1_555 1_555
C35_2 C33_2 1_555 1_555
C36_2 O30_2 1_555 1_555
C37_2 O43_2 1_555 1_555
C38_2 O35_2 1_555 1_555
C39_2 O45_2 1_555 1_555
C42_2 C45_2 1_555 1_555
C44_2 C8_2 1_555 1_555
C45_2 C38_2 1_555 1_555
C46_2 C39_2 1_555 1_555
C50_2 C45_2 1_555 1_555
C54_2 C50_2 1_555 1_555
O73_2 Cd2_2 1_555 1_555
O74_2 Cd3_2 1_555 1_555
O75_2 Cd1_2 1_555 1_555
O76_2 Cd2_2 1_555 1_555
O77_2 Cd2_2 1_555 1_555
O78_2 Cd3_2 1_555 1_555
O79_2 Cd3_2 1_555 1_555
O5_2 C7_2 1_555 1_555
Cd2_2 O27_2 1_555 1_555
Cd5_2 O70_2 1_555 1_555
O21_2 C17_2 1_555 1_555
O31_2 C36_2 1_555 1_555
O44_2 C38_2 1_555 1_555
C16_2 C23_2 1_555 1_555
C21_2 C25_2 1_555 1_555
C22_2 C27_2 1_555 1_555
C23_2 C28_2 1_555 1_555
C30_2 C33_2 1_555 1_555
C32_2 C34_2 1_555 1_555
C34_2 C36_2 1_555 1_555
C37_2 C44_2 1_555 1_555
C42_2 C46_2 1_555 1_555
C2_2 H1_2 1_555 1_555
C10_2 H2_2 1_555 1_555
C4_2 H3_2 1_555 1_555
C8_2 H4_2 1_555 1_555
C30_2 H12_2 1_555 1_555
C28_2 H13_2 1_555 1_555
C29_2 H14_2 1_555 1_555
C21_2 H15_2 1_555 1_555
C32_2 H16_2 1_555 1_555
C31_2 H17_2 1_555 1_555
C22_2 H18_2 1_555 1_555
C42_2 H40_2 1_555 1_555
C50_2 H41_2 1_555 1_555
In6_3 O36_2 1_555 1_555
In12_2 O53_2 1_555 1_555
In18_2 O54_2 1_555 1_555
O53_2 C56_2 1_555 1_555
O54_2 C56_2 1_555 1_555
O58_2 In12_2 1_555 1_555
O59_2 In12_2 1_555 1_555
O68_2 In12_2 1_555 1_555
O69_2 In12_2 1_555 1_555
O72_2 In12_2 1_555 1_555
In18_2 O59_2 1_555 1_555
C51_2 H24_2 1_555 1_555
In1_4 O1_3 1_555 1_555
In2_3 O6_3 1_555 1_555
Cd1_3 O3_3 1_555 1_555
O1_3 C1_3 1_555 1_555
O2_3 In1_4 1_555 1_555
O3_3 C6_3 1_555 1_555
O4_3 In1_4 1_555 1_555
O5_3 In1_4 1_555 1_555
O6_3 C12_3 1_555 1_555
O7_3 In2_3 1_555 1_555
O8_3 In2_3 1_555 1_555
O9_3 Cd1_3 1_555 1_555
C1_3 O2_3 1_555 1_555
C2_3 C3_3 1_555 1_555
C3_3 C1_3 1_555 1_555
C4_3 C3_3 1_555 1_555
C5_3 C4_3 1_555 1_555
C6_3 C5_3 1_555 1_555
C7_3 O4_3 1_555 1_555
C8_3 C9_3 1_555 1_555
C9_3 C7_3 1_555 1_555
C10_3 C9_3 1_555 1_555
C11_3 C10_3 1_555 1_555
C12_3 C11_3 1_555 1_555
C13_3 O8_3 1_555 1_555
C14_3 C13_3 1_555 1_555
C15_3 C14_3 1_555 1_555
O10_3 In2_3 1_555 1_555
O11_3 Cd1_3 1_555 1_555
O12_3 Cd1_3 1_555 1_555
In3_4 O13_3 1_555 1_555
In4_4 O15_3 1_555 1_555
In5_4 O34_3 1_555 1_555
In6_4 O36_3 1_555 1_555
In7_4 O37_3 1_555 1_555
In8_4 O38_3 1_555 1_555
In9_4 O16_3 1_555 1_555
In10_4 O17_3 1_555 1_555
In11_3 O7_3 1_555 1_555
In12_3 O53_3 1_555 1_555
In13_3 O7_3 1_555 1_555
In14_3 O61_3 1_555 1_555
In15_3 O62_3 1_555 1_555
In16_3 O63_3 1_555 1_555
In17_3 O64_3 1_555 1_555
In18_3 O54_3 1_555 1_555
Cd2_3 O9_3 1_555 1_555
Cd3_3 O28_3 1_555 1_555
Cd4_3 O9_3 1_555 1_555
Cd5_3 O29_3 1_555 1_555
O13_3 C16_3 1_555 1_555
O14_3 In1_4 1_555 1_555
O15_3 C18_3 1_555 1_555
O16_3 C19_3 1_555 1_555
O17_3 C20_3 1_555 1_555
O18_3 In3_4 1_555 1_555
O19_3 In4_4 1_555 1_555
O20_3 In3_4 1_555 1_555
O21_3 In1_4 1_555 1_555
O22_3 In4_4 1_555 1_555
O23_3 In9_4 1_555 1_555
O24_3 In10_4 1_555 1_555
O25_3 In3_4 1_555 1_555
O26_3 In4_4 1_555 1_555
O27_3 C6_3 1_555 1_555
O28_3 C35_3 1_555 1_555
O29_3 C35_3 1_555 1_555
O30_3 Cd1_3 1_555 1_555
O31_3 Cd4_3 1_555 1_555
O32_3 Cd2_3 1_555 1_555
O33_3 Cd3_3 1_555 1_555
O34_3 C37_3 1_555 1_555
O35_3 In1_4 1_555 1_555
O36_3 C39_3 1_555 1_555
O37_3 C40_3 1_555 1_555
O38_3 C41_3 1_555 1_555
O39_3 In3_4 1_555 1_555
O40_3 In3_4 1_555 1_555
O41_3 In4_4 1_555 1_555
O42_3 In4_4 1_555 1_555
O43_3 In5_4 1_555 1_555
O44_3 In1_4 1_555 1_555
O45_3 In6_4 1_555 1_555
O46_3 In7_4 1_555 1_555
O47_3 In8_4 1_555 1_555
O48_3 In3_4 1_555 1_555
O49_3 In3_4 1_555 1_555
O50_3 In4_4 1_555 1_555
O51_3 In4_4 1_555 1_555
O52_3 C12_3 1_555 1_555
O53_3 C56_3 1_555 1_555
O54_3 C56_3 1_555 1_555
O55_3 In2_3 1_555 1_555
O56_3 In13_3 1_555 1_555
O57_3 In11_3 1_555 1_555
O58_3 In12_3 1_555 1_555
O59_3 In12_3 1_555 1_555
O60_3 C13_3 1_555 1_555
O61_3 C58_3 1_555 1_555
O62_3 C58_3 1_555 1_555
O63_3 C59_3 1_555 1_555
O64_3 C59_3 1_555 1_555
O65_3 In2_3 1_555 1_555
O66_3 In11_3 1_555 1_555
O67_3 In11_3 1_555 1_555
O68_3 In12_3 1_555 1_555
O69_3 In12_3 1_555 1_555
O70_3 Cd3_3 1_555 1_555
C16_3 O20_3 1_555 1_555
C17_3 O14_3 1_555 1_555
C18_3 O22_3 1_555 1_555
C19_3 O23_3 1_555 1_555
C20_3 O24_3 1_555 1_555
C21_3 C24_3 1_555 1_555
C22_3 C26_3 1_555 1_555
C23_3 C2_3 1_555 1_555
C24_3 C17_3 1_555 1_555
C25_3 C18_3 1_555 1_555
C26_3 C19_3 1_555 1_555
C27_3 C20_3 1_555 1_555
C28_3 C5_3 1_555 1_555
C29_3 C24_3 1_555 1_555
C30_3 C25_3 1_555 1_555
C31_3 C26_3 1_555 1_555
C32_3 C27_3 1_555 1_555
C33_3 C29_3 1_555 1_555
C34_3 C31_3 1_555 1_555
C35_3 C33_3 1_555 1_555
C36_3 O30_3 1_555 1_555
C37_3 O43_3 1_555 1_555
C38_3 O35_3 1_555 1_555
C39_3 O45_3 1_555 1_555
C40_3 O46_3 1_555 1_555
C41_3 O47_3 1_555 1_555
C42_3 C45_3 1_555 1_555
C43_3 C47_3 1_555 1_555
C44_3 C8_3 1_555 1_555
C45_3 C38_3 1_555 1_555
C46_3 C39_3 1_555 1_555
C47_3 C40_3 1_555 1_555
C48_3 C41_3 1_555 1_555
C49_3 C11_3 1_555 1_555
C50_3 C45_3 1_555 1_555
C51_3 C46_3 1_555 1_555
C52_3 C47_3 1_555 1_555
C53_3 C48_3 1_555 1_555
C54_3 C50_3 1_555 1_555
C55_3 C52_3 1_555 1_555
C56_3 C54_3 1_555 1_555
C57_3 O55_3 1_555 1_555
C58_3 C60_3 1_555 1_555
C59_3 C61_3 1_555 1_555
C60_3 C15_3 1_555 1_555
C61_3 C62_3 1_555 1_555
C62_3 C60_3 1_555 1_555
C63_3 C14_3 1_555 1_555
O71_3 In11_3 1_555 1_555
O72_3 In12_3 1_555 1_555
O73_3 Cd2_3 1_555 1_555
O74_3 Cd3_3 1_555 1_555
O75_3 Cd1_3 1_555 1_555
O76_3 Cd2_3 1_555 1_555
O77_3 Cd2_3 1_555 1_555
O78_3 Cd3_3 1_555 1_555
O79_3 Cd3_3 1_555 1_555
O5_3 C7_3 1_555 1_555
In11_3 O52_3 1_555 1_555
In13_3 O60_3 1_555 1_555
In18_3 O59_3 1_555 1_555
Cd2_3 O27_3 1_555 1_555
Cd5_3 O70_3 1_555 1_555
O21_3 C17_3 1_555 1_555
O31_3 C36_3 1_555 1_555
O44_3 C38_3 1_555 1_555
O56_3 C57_3 1_555 1_555
C16_3 C23_3 1_555 1_555
C21_3 C25_3 1_555 1_555
C22_3 C27_3 1_555 1_555
C23_3 C28_3 1_555 1_555
C30_3 C33_3 1_555 1_555
C32_3 C34_3 1_555 1_555
C34_3 C36_3 1_555 1_555
C37_3 C44_3 1_555 1_555
C42_3 C46_3 1_555 1_555
C43_3 C48_3 1_555 1_555
C44_3 C49_3 1_555 1_555
C51_3 C54_3 1_555 1_555
C53_3 C55_3 1_555 1_555
C55_3 C57_3 1_555 1_555
C61_3 C63_3 1_555 1_555
C2_3 H1_3 1_555 1_555
C10_3 H2_3 1_555 1_555
C4_3 H3_3 1_555 1_555
C8_3 H4_3 1_555 1_555
C15_3 H5_3 1_555 1_555
C30_3 H12_3 1_555 1_555
C28_3 H13_3 1_555 1_555
C29_3 H14_3 1_555 1_555
C21_3 H15_3 1_555 1_555
C32_3 H16_3 1_555 1_555
C31_3 H17_3 1_555 1_555
C22_3 H18_3 1_555 1_555
C52_3 H19_3 1_555 1_555
C63_3 H20_3 1_555 1_555
C53_3 H21_3 1_555 1_555
C51_3 H24_3 1_555 1_555
C62_3 H25_3 1_555 1_555
C49_3 H26_3 1_555 1_555
C43_3 H35_3 1_555 1_555
C42_3 H40_3 1_555 1_555
C50_3 H41_3 1_555 1_555
In1_5 O1_4 1_555 1_555
In2_4 O6_4 1_555 1_555
Cd1_4 O3_4 1_555 1_555
O1_4 C1_4 1_555 1_555
O2_4 In1_5 1_555 1_555
O3_4 C6_4 1_555 1_555
O4_4 In1_5 1_555 1_555
O5_4 In1_5 1_555 1_555
O6_4 C12_4 1_555 1_555
O7_4 In2_4 1_555 1_555
O8_4 In2_4 1_555 1_555
O9_4 Cd1_4 1_555 1_555
C1_4 O2_4 1_555 1_555
C2_4 C3_4 1_555 1_555
C3_4 C1_4 1_555 1_555
C4_4 C3_4 1_555 1_555
C5_4 C4_4 1_555 1_555
C6_4 C5_4 1_555 1_555
C7_4 O4_4 1_555 1_555
C8_4 C9_4 1_555 1_555
C9_4 C7_4 1_555 1_555
C10_4 C9_4 1_555 1_555
C11_4 C10_4 1_555 1_555
C12_4 C11_4 1_555 1_555
C13_4 O8_4 1_555 1_555
C14_4 C13_4 1_555 1_555
C15_4 C14_4 1_555 1_555
O10_4 In2_4 1_555 1_555
O11_4 Cd1_4 1_555 1_555
O12_4 Cd1_4 1_555 1_555
In3_5 O13_4 1_555 1_555
In4_5 O15_4 1_555 1_555
In5_5 O34_4 1_555 1_555
In6_5 O36_4 1_555 1_555
In7_5 O37_4 1_555 1_555
In8_5 O38_4 1_555 1_555
In9_5 O16_4 1_555 1_555
In10_5 O17_4 1_555 1_555
In11_4 O7_4 1_555 1_555
In12_4 O53_4 1_555 1_555
In13_4 O7_4 1_555 1_555
In14_4 O61_4 1_555 1_555
In15_4 O62_4 1_555 1_555
In16_4 O63_4 1_555 1_555
In17_4 O64_4 1_555 1_555
In18_4 O54_4 1_555 1_555
Cd2_4 O9_4 1_555 1_555
Cd3_4 O28_4 1_555 1_555
Cd4_4 O9_4 1_555 1_555
Cd5_4 O29_4 1_555 1_555
O13_4 C16_4 1_555 1_555
O14_4 In1_5 1_555 1_555
O15_4 C18_4 1_555 1_555
O16_4 C19_4 1_555 1_555
O17_4 C20_4 1_555 1_555
O18_4 In3_5 1_555 1_555
O19_4 In4_5 1_555 1_555
O20_4 In3_5 1_555 1_555
O21_4 In1_5 1_555 1_555
O22_4 In4_5 1_555 1_555
O23_4 In9_5 1_555 1_555
O24_4 In10_5 1_555 1_555
O25_4 In3_5 1_555 1_555
O26_4 In4_5 1_555 1_555
O27_4 C6_4 1_555 1_555
O28_4 C35_4 1_555 1_555
O29_4 C35_4 1_555 1_555
O30_4 Cd1_4 1_555 1_555
O31_4 Cd4_4 1_555 1_555
O32_4 Cd2_4 1_555 1_555
O33_4 Cd3_4 1_555 1_555
O34_4 C37_4 1_555 1_555
O35_4 In1_5 1_555 1_555
O36_4 C39_4 1_555 1_555
O37_4 C40_4 1_555 1_555
O38_4 C41_4 1_555 1_555
O39_4 In3_5 1_555 1_555
O40_4 In3_5 1_555 1_555
O41_4 In4_5 1_555 1_555
O42_4 In4_5 1_555 1_555
O43_4 In5_5 1_555 1_555
O44_4 In1_5 1_555 1_555
O45_4 In6_5 1_555 1_555
O46_4 In7_5 1_555 1_555
O47_4 In8_5 1_555 1_555
O48_4 In3_5 1_555 1_555
O49_4 In3_5 1_555 1_555
O50_4 In4_5 1_555 1_555
O51_4 In4_5 1_555 1_555
O52_4 C12_4 1_555 1_555
O53_4 C56_4 1_555 1_555
O54_4 C56_4 1_555 1_555
O55_4 In2_4 1_555 1_555
O56_4 In13_4 1_555 1_555
O57_4 In11_4 1_555 1_555
O58_4 In12_4 1_555 1_555
O59_4 In12_4 1_555 1_555
O60_4 C13_4 1_555 1_555
O61_4 C58_4 1_555 1_555
O62_4 C58_4 1_555 1_555
O63_4 C59_4 1_555 1_555
O64_4 C59_4 1_555 1_555
O65_4 In2_4 1_555 1_555
O66_4 In11_4 1_555 1_555
O67_4 In11_4 1_555 1_555
O68_4 In12_4 1_555 1_555
O69_4 In12_4 1_555 1_555
O70_4 Cd3_4 1_555 1_555
C16_4 O20_4 1_555 1_555
C17_4 O14_4 1_555 1_555
C18_4 O22_4 1_555 1_555
C19_4 O23_4 1_555 1_555
C20_4 O24_4 1_555 1_555
C21_4 C24_4 1_555 1_555
C22_4 C26_4 1_555 1_555
C23_4 C2_4 1_555 1_555
C24_4 C17_4 1_555 1_555
C25_4 C18_4 1_555 1_555
C26_4 C19_4 1_555 1_555
C27_4 C20_4 1_555 1_555
C28_4 C5_4 1_555 1_555
C29_4 C24_4 1_555 1_555
C30_4 C25_4 1_555 1_555
C31_4 C26_4 1_555 1_555
C32_4 C27_4 1_555 1_555
C33_4 C29_4 1_555 1_555
C34_4 C31_4 1_555 1_555
C35_4 C33_4 1_555 1_555
C36_4 O30_4 1_555 1_555
C37_4 O43_4 1_555 1_555
C38_4 O35_4 1_555 1_555
C39_4 O45_4 1_555 1_555
C40_4 O46_4 1_555 1_555
C41_4 O47_4 1_555 1_555
C42_4 C45_4 1_555 1_555
C43_4 C47_4 1_555 1_555
C44_4 C8_4 1_555 1_555
C45_4 C38_4 1_555 1_555
C46_4 C39_4 1_555 1_555
C47_4 C40_4 1_555 1_555
C48_4 C41_4 1_555 1_555
C49_4 C11_4 1_555 1_555
C50_4 C45_4 1_555 1_555
C51_4 C46_4 1_555 1_555
C52_4 C47_4 1_555 1_555
C53_4 C48_4 1_555 1_555
C54_4 C50_4 1_555 1_555
C55_4 C52_4 1_555 1_555
C56_4 C54_4 1_555 1_555
C57_4 O55_4 1_555 1_555
C58_4 C60_4 1_555 1_555
C59_4 C61_4 1_555 1_555
C60_4 C15_4 1_555 1_555
C61_4 C62_4 1_555 1_555
C62_4 C60_4 1_555 1_555
C63_4 C14_4 1_555 1_555
O71_4 In11_4 1_555 1_555
O72_4 In12_4 1_555 1_555
O73_4 Cd2_4 1_555 1_555
O74_4 Cd3_4 1_555 1_555
O75_4 Cd1_4 1_555 1_555
O76_4 Cd2_4 1_555 1_555
O77_4 Cd2_4 1_555 1_555
O78_4 Cd3_4 1_555 1_555
O79_4 Cd3_4 1_555 1_555
O5_4 C7_4 1_555 1_555
In11_4 O52_4 1_555 1_555
In13_4 O60_4 1_555 1_555
In18_4 O59_4 1_555 1_555
Cd2_4 O27_4 1_555 1_555
Cd5_4 O70_4 1_555 1_555
O21_4 C17_4 1_555 1_555
O31_4 C36_4 1_555 1_555
O44_4 C38_4 1_555 1_555
O56_4 C57_4 1_555 1_555
C16_4 C23_4 1_555 1_555
C21_4 C25_4 1_555 1_555
C22_4 C27_4 1_555 1_555
C23_4 C28_4 1_555 1_555
C30_4 C33_4 1_555 1_555
C32_4 C34_4 1_555 1_555
C34_4 C36_4 1_555 1_555
C37_4 C44_4 1_555 1_555
C42_4 C46_4 1_555 1_555
C43_4 C48_4 1_555 1_555
C44_4 C49_4 1_555 1_555
C51_4 C54_4 1_555 1_555
C53_4 C55_4 1_555 1_555
C55_4 C57_4 1_555 1_555
C61_4 C63_4 1_555 1_555
C2_4 H1_4 1_555 1_555
C10_4 H2_4 1_555 1_555
C4_4 H3_4 1_555 1_555
C8_4 H4_4 1_555 1_555
C15_4 H5_4 1_555 1_555
C30_4 H12_4 1_555 1_555
C28_4 H13_4 1_555 1_555
C29_4 H14_4 1_555 1_555
C21_4 H15_4 1_555 1_555
C32_4 H16_4 1_555 1_555
C31_4 H17_4 1_555 1_555
C22_4 H18_4 1_555 1_555
C52_4 H19_4 1_555 1_555
C63_4 H20_4 1_555 1_555
C53_4 H21_4 1_555 1_555
C51_4 H24_4 1_555 1_555
C62_4 H25_4 1_555 1_555
C49_4 H26_4 1_555 1_555
C43_4 H35_4 1_555 1_555
C42_4 H40_4 1_555 1_555
C50_4 H41_4 1_555 1_555
O11_5 Cd4 1_555 1_555
O12_5 Cd4 1_555 1_555
O30_5 Cd4 1_555 1_555
C36_5 O30_5 1_555 1_555
O75_5 Cd4 1_555 1_555
O32 C36_5 1_555 1_555
In10_6 O17_5 1_555 1_555
O19 C19_5 1_555 1_555
O17_5 C20_5 1_555 1_555
O24_5 In10_6 1_555 1_555
C19_5 O26 1_555 1_555
C20_5 O24_5 1_555 1_555
C22_5 C26_5 1_555 1_555
C26_5 C19_5 1_555 1_555
C27_5 C20_5 1_555 1_555
C31_5 C26_5 1_555 1_555
C32_5 C27_5 1_555 1_555
C34_5 C31_5 1_555 1_555
C22_5 C27_5 1_555 1_555
C32_5 C34_5 1_555 1_555
C32_5 H16_5 1_555 1_555
C31_5 H17_5 1_555 1_555
C22_5 H18_5 1_555 1_555
In17_4 O6_5 1_555 1_555
O4_5 In10 1_555 1_555
O6_5 C12_5 1_555 1_555
O7_5 In17_4 1_555 1_555
O8_5 In17_4 1_555 1_555
C13_5 O8_5 1_555 1_555
C14_5 C13_5 1_555 1_555
C15_5 C14_5 1_555 1_555
In7_5 O36_5 1_555 1_555
In16_4 O7_5 1_555 1_555
In13_5 O7_5 1_555 1_555
In14_5 O61_5 1_555 1_555
In14_4 O62_5 1_555 1_555
In16_5 O63_5 1_555 1_555
In17_5 O64_5 1_555 1_555
O36_5 C39_5 1_555 1_555
O39_5 In9 1_555 1_555
O44_5 In10 1_555 1_555
O45_5 In7_5 1_555 1_555
O49_5 In9 1_555 1_555
O52_5 C12_5 1_555 1_555
O55_5 In17_4 1_555 1_555
O56_5 In13_5 1_555 1_555
O57_5 In16_4 1_555 1_555
O60_5 C13_5 1_555 1_555
O61_5 C58_5 1_555 1_555
O62_5 C58_5 1_555 1_555
O63_5 C59_5 1_555 1_555
O64_5 C59_5 1_555 1_555
O66_5 In16_4 1_555 1_555
C39_5 O45_5 1_555 1_555
C42_5 C45_5 1_555 1_555
C45_5 C38_5 1_555 1_555
C46_5 C39_5 1_555 1_555
C51_5 C46_5 1_555 1_555
C57_5 O55_5 1_555 1_555
C58_5 C60_5 1_555 1_555
C59_5 C61_5 1_555 1_555
C60_5 C15_5 1_555 1_555
C61_5 C62_5 1_555 1_555
C62_5 C60_5 1_555 1_555
C63_5 C14_5 1_555 1_555
O71_5 In16_4 1_555 1_555
In16_4 O52_5 1_555 1_555
In13_5 O60_5 1_555 1_555
O44_5 C38_5 1_555 1_555
O56_5 C57_5 1_555 1_555
C42_5 C46_5 1_555 1_555
C51_5 C54_5 1_555 1_555
C61_5 C63_5 1_555 1_555
C10_5 H2_5 1_555 1_555
C15_5 H5_5 1_555 1_555
C63_5 H20_5 1_555 1_555
C51_5 H24_5 1_555 1_555
C62_5 H25_5 1_555 1_555
C42_5 H40_5 1_555 1_555
In7_6 O37_5 1_555 1_555
O18_5 In9_2 1_555 1_555
O25_5 In9_2 1_555 1_555
O40_5 In9_2 1_555 1_555
O48_5 In9_2 1_555 1_555
C52_5 H19_5 1_555 1_555
O5_5 In10_2 1_555 1_555
C8_5 C9_5 1_555 1_555
C9_5 C7_5 1_555 1_555
In5_6 O34_5 1_555 1_555
In8_6 O38_5 1_555 1_555
In12_5 O53_5 1_555 1_555
In18_5 O54_5 1_555 1_555
O14_5 In10_2 1_555 1_555
O18 C18_5 1_555 1_555
O21_5 In10_2 1_555 1_555
O34_5 C37_5 1_555 1_555
O35_5 In10_2 1_555 1_555
O43_5 In5_6 1_555 1_555
O53_5 C56_5 1_555 1_555
O54_5 C56_5 1_555 1_555
O58_5 In12_5 1_555 1_555
O59_5 In12_5 1_555 1_555
O68_5 In12_5 1_555 1_555
O69_5 In12_5 1_555 1_555
C17_5 O14_5 1_555 1_555
C18_5 O25 1_555 1_555
C21_5 C24_5 1_555 1_555
C24_5 C17_5 1_555 1_555
C25_5 C18_5 1_555 1_555
C29_5 C24_5 1_555 1_555
C30_5 C25_5 1_555 1_555
C33_5 C29_5 1_555 1_555
C37_5 O43_5 1_555 1_555
C44_5 C8_5 1_555 1_555
C49_5 C11_5 1_555 1_555
O5_5 C7_5 1_555 1_555
In18_5 O59_5 1_555 1_555
O21_5 C17_5 1_555 1_555
C21_5 C25_5 1_555 1_555
C30_5 C33_5 1_555 1_555
C37_5 C44_5 1_555 1_555
C44_5 C49_5 1_555 1_555
C8_5 H4_5 1_555 1_555
C30_5 H12_5 1_555 1_555
C29_5 H14_5 1_555 1_555
C21_5 H15_5 1_555 1_555
C53_5 H21_5 1_555 1_555
C49_5 H26_5 1_555 1_555
C50_5 H41_5 1_555 1_555
Cd5 O28_5 1_555 1_555
Cd5_5 O29_5 1_555 1_555
O28_5 C35_5 1_555 1_555
O29_5 C35_5 1_555 1_555
O46_5 In7_7 1_555 1_555
O47_5 In8_7 1_555 1_555
C40_5 O46_5 1_555 1_555
C41_5 O47_5 1_555 1_555
C43_5 C47_5 1_555 1_555
C47_5 C40_5 1_555 1_555
C48_5 C41_5 1_555 1_555
O74_5 Cd5 1_555 1_555
O78_5 Cd5 1_555 1_555
O79_5 Cd5 1_555 1_555
Cd5_5 O70 1_555 1_555
C43_5 C48_5 1_555 1_555
C43_5 H35_5 1_555 1_555
In17 O6_6 1_555 1_555
O6_6 C12_6 1_555 1_555
O7_6 In17 1_555 1_555
O8_6 In17 1_555 1_555
C13_6 O8_6 1_555 1_555
C14_6 C13_6 1_555 1_555
C15_6 C14_6 1_555 1_555
O10_6 In17 1_555 1_555
In5_7 O34_6 1_555 1_555
In7_8 O37_6 1_555 1_555
In8_8 O38_6 1_555 1_555
In16 O7_6 1_555 1_555
In13_6 O7_6 1_555 1_555
In14_6 O61_6 1_555 1_555
In14 O62_6 1_555 1_555
In16_6 O63_6 1_555 1_555
In17_6 O64_6 1_555 1_555
O37_6 C40_6 1_555 1_555
O38_6 C41_6 1_555 1_555
O46_6 In7_8 1_555 1_555
O47_6 In8_8 1_555 1_555
O52_6 C12_6 1_555 1_555
O55_6 In17 1_555 1_555
O56_6 In13_6 1_555 1_555
O57_6 In16 1_555 1_555
O60_6 C13_6 1_555 1_555
O61_6 C58_6 1_555 1_555
O62_6 C58_6 1_555 1_555
O63_6 C59_6 1_555 1_555
O64_6 C59_6 1_555 1_555
O66_6 In16 1_555 1_555
C40_6 O46_6 1_555 1_555
C41_6 O47_6 1_555 1_555
C43_6 C47_6 1_555 1_555
C47_6 C40_6 1_555 1_555
C48_6 C41_6 1_555 1_555
C52_6 C47_6 1_555 1_555
C53_6 C48_6 1_555 1_555
C55_6 C52_6 1_555 1_555
C57_6 O55_6 1_555 1_555
C58_6 C60_6 1_555 1_555
C59_6 C61_6 1_555 1_555
C60_6 C15_6 1_555 1_555
C61_6 C62_6 1_555 1_555
C62_6 C60_6 1_555 1_555
C63_6 C14_6 1_555 1_555
In16 O52_6 1_555 1_555
In13_6 O60_6 1_555 1_555
O56_6 C57_6 1_555 1_555
C43_6 C48_6 1_555 1_555
C53_6 C55_6 1_555 1_555
C55_6 C57_6 1_555 1_555
C61_6 C63_6 1_555 1_555
C15_6 H5_6 1_555 1_555
C52_6 H19_6 1_555 1_555
C63_6 H20_6 1_555 1_555
C53_6 H21_6 1_555 1_555
C62_6 H25_6 1_555 1_555
C49_6 H26_6 1_555 1_555
C43_6 H35_6 1_555 1_555
O4_6 In10_5 1_555 1_555
O5_6 In10_5 1_555 1_555
C7_6 O4_6 1_555 1_555
C8_6 C9_6 1_555 1_555
C9_6 C7_6 1_555 1_555
C10_6 C9_6 1_555 1_555
C11_6 C10_6 1_555 1_555
O11_6 Cd4_4 1_555 1_555
O12_6 Cd4_4 1_555 1_555
In10_8 O17_6 1_555 1_555
Cd5_4 O28_6 1_555 1_555
Cd5_6 O29_6 1_555 1_555
O14_6 In10_5 1_555 1_555
O18_4 C18_6 1_555 1_555
O19_4 C19_6 1_555 1_555
O17_6 C20_6 1_555 1_555
O18_6 In9_5 1_555 1_555
O21_6 In10_5 1_555 1_555
O24_6 In10_8 1_555 1_555
O25_6 In9_5 1_555 1_555
O28_6 C35_6 1_555 1_555
O29_6 C35_6 1_555 1_555
O30_6 Cd4_4 1_555 1_555
O35_6 In10_5 1_555 1_555
O39_6 In9_5 1_555 1_555
O40_6 In9_5 1_555 1_555
O43_6 In5_8 1_555 1_555
O44_6 In10_5 1_555 1_555
O45_6 In7 1_555 1_555
O48_6 In9_5 1_555 1_555
O49_6 In9_5 1_555 1_555
C17_6 O14_6 1_555 1_555
C18_6 O25_4 1_555 1_555
C19_6 O26_4 1_555 1_555
C20_6 O24_6 1_555 1_555
C21_6 C24_6 1_555 1_555
C22_6 C26_6 1_555 1_555
C24_6 C17_6 1_555 1_555
C25_6 C18_6 1_555 1_555
C26_6 C19_6 1_555 1_555
C27_6 C20_6 1_555 1_555
C29_6 C24_6 1_555 1_555
C30_6 C25_6 1_555 1_555
C31_6 C26_6 1_555 1_555
C32_6 C27_6 1_555 1_555
C33_6 C29_6 1_555 1_555
C34_6 C31_6 1_555 1_555
C35_6 C33_6 1_555 1_555
C36_6 O30_6 1_555 1_555
C37_6 O43_6 1_555 1_555
C38_6 O35_6 1_555 1_555
C39_6 O45_6 1_555 1_555
C42_6 C45_6 1_555 1_555
C44_6 C8_6 1_555 1_555
C45_6 C38_6 1_555 1_555
C46_6 C39_6 1_555 1_555
C50_6 C45_6 1_555 1_555
C54_6 C50_6 1_555 1_555
O74_6 Cd5_4 1_555 1_555
O75_6 Cd4_4 1_555 1_555
O78_6 Cd5_4 1_555 1_555
O79_6 Cd5_4 1_555 1_555
O5_6 C7_6 1_555 1_555
Cd5_6 O70_4 1_555 1_555
O21_6 C17_6 1_555 1_555
O32_4 C36_6 1_555 1_555
O44_6 C38_6 1_555 1_555
C21_6 C25_6 1_555 1_555
C22_6 C27_6 1_555 1_555
C30_6 C33_6 1_555 1_555
C32_6 C34_6 1_555 1_555
C34_6 C36_6 1_555 1_555
C37_6 C44_6 1_555 1_555
C42_6 C46_6 1_555 1_555
C10_6 H2_6 1_555 1_555
C8_6 H4_6 1_555 1_555
C30_6 H12_6 1_555 1_555
C29_6 H14_6 1_555 1_555
C21_6 H15_6 1_555 1_555
C32_6 H16_6 1_555 1_555
C31_6 H17_6 1_555 1_555
C22_6 H18_6 1_555 1_555
C42_6 H40_6 1_555 1_555
C50_6 H41_6 1_555 1_555
In7_2 O36_6 1_555 1_555
In12_6 O53_6 1_555 1_555
In18_6 O54_6 1_555 1_555
O53_6 C56_6 1_555 1_555
O54_6 C56_6 1_555 1_555
O58_6 In12_6 1_555 1_555
O59_6 In12_6 1_555 1_555
O68_6 In12_6 1_555 1_555
O69_6 In12_6 1_555 1_555
O72_6 In12_6 1_555 1_555
In18_6 O59_6 1_555 1_555
C51_6 H24_6 1_555 1_555
In17_3 O6_7 1_555 1_555
O4_7 In10_3 1_555 1_555
O5_7 In10_3 1_555 1_555
O6_7 C12_7 1_555 1_555
O7_7 In17_3 1_555 1_555
O8_7 In17_3 1_555 1_555
C7_7 O4_7 1_555 1_555
C8_7 C9_7 1_555 1_555
C9_7 C7_7 1_555 1_555
C10_7 C9_7 1_555 1_555
C11_7 C10_7 1_555 1_555
C12_7 C11_7 1_555 1_555
C13_7 O8_7 1_555 1_555
C14_7 C13_7 1_555 1_555
C15_7 C14_7 1_555 1_555
O10_7 In17_3 1_555 1_555
O11_7 Cd4_2 1_555 1_555
O12_7 Cd4_2 1_555 1_555
In5_9 O34_7 1_555 1_555
In7_4 O36_7 1_555 1_555
In7_9 O37_7 1_555 1_555
In8_9 O38_7 1_555 1_555
In10_9 O17_7 1_555 1_555
In16_3 O7_7 1_555 1_555
In12_7 O53_7 1_555 1_555
In13_7 O7_7 1_555 1_555
In14_7 O61_7 1_555 1_555
In14_3 O62_7 1_555 1_555
In16_7 O63_7 1_555 1_555
In17_7 O64_7 1_555 1_555
In18_7 O54_7 1_555 1_555
Cd5_2 O28_7 1_555 1_555
Cd5_7 O29_7 1_555 1_555
O14_7 In10_3 1_555 1_555
O18_2 C18_7 1_555 1_555
O19_2 C19_7 1_555 1_555
O17_7 C20_7 1_555 1_555
O18_7 In9_3 1_555 1_555
O21_7 In10_3 1_555 1_555
O24_7 In10_9 1_555 1_555
O25_7 In9_3 1_555 1_555
O28_7 C35_7 1_555 1_555
O29_7 C35_7 1_555 1_555
O30_7 Cd4_2 1_555 1_555
O34_7 C37_7 1_555 1_555
O35_7 In10_3 1_555 1_555
O36_7 C39_7 1_555 1_555
O37_7 C40_7 1_555 1_555
O38_7 C41_7 1_555 1_555
O39_7 In9_3 1_555 1_555
O40_7 In9_3 1_555 1_555
O43_7 In5_9 1_555 1_555
O44_7 In10_3 1_555 1_555
O45_7 In7_4 1_555 1_555
O46_7 In7_9 1_555 1_555
O47_7 In8_9 1_555 1_555
O48_7 In9_3 1_555 1_555
O49_7 In9_3 1_555 1_555
O52_7 C12_7 1_555 1_555
O53_7 C56_7 1_555 1_555
O54_7 C56_7 1_555 1_555
O55_7 In17_3 1_555 1_555
O56_7 In13_7 1_555 1_555
O57_7 In16_3 1_555 1_555
O58_7 In12_7 1_555 1_555
O59_7 In12_7 1_555 1_555
O60_7 C13_7 1_555 1_555
O61_7 C58_7 1_555 1_555
O62_7 C58_7 1_555 1_555
O63_7 C59_7 1_555 1_555
O64_7 C59_7 1_555 1_555
O66_7 In16_3 1_555 1_555
O68_7 In12_7 1_555 1_555
O69_7 In12_7 1_555 1_555
C17_7 O14_7 1_555 1_555
C18_7 O25_2 1_555 1_555
C19_7 O26_2 1_555 1_555
C20_7 O24_7 1_555 1_555
C21_7 C24_7 1_555 1_555
C22_7 C26_7 1_555 1_555
C24_7 C17_7 1_555 1_555
C25_7 C18_7 1_555 1_555
C26_7 C19_7 1_555 1_555
C27_7 C20_7 1_555 1_555
C29_7 C24_7 1_555 1_555
C30_7 C25_7 1_555 1_555
C31_7 C26_7 1_555 1_555
C32_7 C27_7 1_555 1_555
C33_7 C29_7 1_555 1_555
C34_7 C31_7 1_555 1_555
C35_7 C33_7 1_555 1_555
C36_7 O30_7 1_555 1_555
C37_7 O43_7 1_555 1_555
C38_7 O35_7 1_555 1_555
C39_7 O45_7 1_555 1_555
C40_7 O46_7 1_555 1_555
C41_7 O47_7 1_555 1_555
C42_7 C45_7 1_555 1_555
C43_7 C47_7 1_555 1_555
C44_7 C8_7 1_555 1_555
C45_7 C38_7 1_555 1_555
C46_7 C39_7 1_555 1_555
C47_7 C40_7 1_555 1_555
C48_7 C41_7 1_555 1_555
C49_7 C11_7 1_555 1_555
C50_7 C45_7 1_555 1_555
C51_7 C46_7 1_555 1_555
C52_7 C47_7 1_555 1_555
C53_7 C48_7 1_555 1_555
C54_7 C50_7 1_555 1_555
C55_7 C52_7 1_555 1_555
C56_7 C54_7 1_555 1_555
C57_7 O55_7 1_555 1_555
C58_7 C60_7 1_555 1_555
C59_7 C61_7 1_555 1_555
C60_7 C15_7 1_555 1_555
C61_7 C62_7 1_555 1_555
C62_7 C60_7 1_555 1_555
C63_7 C14_7 1_555 1_555
O71_7 In16_3 1_555 1_555
O72_7 In12_7 1_555 1_555
O74_7 Cd5_2 1_555 1_555
O75_7 Cd4_2 1_555 1_555
O78_7 Cd5_2 1_555 1_555
O79_7 Cd5_2 1_555 1_555
O5_7 C7_7 1_555 1_555
In16_3 O52_7 1_555 1_555
In13_7 O60_7 1_555 1_555
In18_7 O59_7 1_555 1_555
Cd5_7 O70_2 1_555 1_555
O21_7 C17_7 1_555 1_555
O32_2 C36_7 1_555 1_555
O44_7 C38_7 1_555 1_555
O56_7 C57_7 1_555 1_555
C21_7 C25_7 1_555 1_555
C22_7 C27_7 1_555 1_555
C30_7 C33_7 1_555 1_555
C32_7 C34_7 1_555 1_555
C34_7 C36_7 1_555 1_555
C37_7 C44_7 1_555 1_555
C42_7 C46_7 1_555 1_555
C43_7 C48_7 1_555 1_555
C44_7 C49_7 1_555 1_555
C51_7 C54_7 1_555 1_555
C53_7 C55_7 1_555 1_555
C55_7 C57_7 1_555 1_555
C61_7 C63_7 1_555 1_555
C10_7 H2_7 1_555 1_555
C8_7 H4_7 1_555 1_555
C15_7 H5_7 1_555 1_555
C30_7 H12_7 1_555 1_555
C29_7 H14_7 1_555 1_555
C21_7 H15_7 1_555 1_555
C32_7 H16_7 1_555 1_555
C31_7 H17_7 1_555 1_555
C22_7 H18_7 1_555 1_555
C52_7 H19_7 1_555 1_555
C63_7 H20_7 1_555 1_555
C53_7 H21_7 1_555 1_555
C51_7 H24_7 1_555 1_555
C62_7 H25_7 1_555 1_555
C49_7 H26_7 1_555 1_555
C43_7 H35_7 1_555 1_555
C42_7 H40_7 1_555 1_555
C50_7 H41_7 1_555 1_555
In17_2 O6_8 1_555 1_555
O4_8 In10_4 1_555 1_555
O5_8 In10_4 1_555 1_555
O6_8 C12_8 1_555 1_555
O7_8 In17_2 1_555 1_555
O8_8 In17_2 1_555 1_555
C7_8 O4_8 1_555 1_555
C8_8 C9_8 1_555 1_555
C9_8 C7_8 1_555 1_555
C10_8 C9_8 1_555 1_555
C11_8 C10_8 1_555 1_555
C12_8 C11_8 1_555 1_555
C13_8 O8_8 1_555 1_555
C14_8 C13_8 1_555 1_555
C15_8 C14_8 1_555 1_555
O10_8 In17_2 1_555 1_555
O11_8 Cd4_3 1_555 1_555
O12_8 Cd4_3 1_555 1_555
In5_10 O34_8 1_555 1_555
In7_3 O36_8 1_555 1_555
In7_10 O37_8 1_555 1_555
In8_10 O38_8 1_555 1_555
In10_10 O17_8 1_555 1_555
In16_2 O7_8 1_555 1_555
In12_8 O53_8 1_555 1_555
In13_8 O7_8 1_555 1_555
In14_8 O61_8 1_555 1_555
In14_2 O62_8 1_555 1_555
In16_8 O63_8 1_555 1_555
In17_8 O64_8 1_555 1_555
In18_8 O54_8 1_555 1_555
Cd5_3 O28_8 1_555 1_555
Cd5_8 O29_8 1_555 1_555
O14_8 In10_4 1_555 1_555
O18_3 C18_8 1_555 1_555
O19_3 C19_8 1_555 1_555
O17_8 C20_8 1_555 1_555
O18_8 In9_4 1_555 1_555
O21_8 In10_4 1_555 1_555
O24_8 In10_10 1_555 1_555
O25_8 In9_4 1_555 1_555
O28_8 C35_8 1_555 1_555
O29_8 C35_8 1_555 1_555
O30_8 Cd4_3 1_555 1_555
O34_8 C37_8 1_555 1_555
O35_8 In10_4 1_555 1_555
O36_8 C39_8 1_555 1_555
O37_8 C40_8 1_555 1_555
O38_8 C41_8 1_555 1_555
O39_8 In9_4 1_555 1_555
O40_8 In9_4 1_555 1_555
O43_8 In5_10 1_555 1_555
O44_8 In10_4 1_555 1_555
O45_8 In7_3 1_555 1_555
O46_8 In7_10 1_555 1_555
O47_8 In8_10 1_555 1_555
O48_8 In9_4 1_555 1_555
O49_8 In9_4 1_555 1_555
O52_8 C12_8 1_555 1_555
O53_8 C56_8 1_555 1_555
O54_8 C56_8 1_555 1_555
O55_8 In17_2 1_555 1_555
O56_8 In13_8 1_555 1_555
O57_8 In16_2 1_555 1_555
O58_8 In12_8 1_555 1_555
O59_8 In12_8 1_555 1_555
O60_8 C13_8 1_555 1_555
O61_8 C58_8 1_555 1_555
O62_8 C58_8 1_555 1_555
O63_8 C59_8 1_555 1_555
O64_8 C59_8 1_555 1_555
O66_8 In16_2 1_555 1_555
O68_8 In12_8 1_555 1_555
O69_8 In12_8 1_555 1_555
C17_8 O14_8 1_555 1_555
C18_8 O25_3 1_555 1_555
C19_8 O26_3 1_555 1_555
C20_8 O24_8 1_555 1_555
C21_8 C24_8 1_555 1_555
C22_8 C26_8 1_555 1_555
C24_8 C17_8 1_555 1_555
C25_8 C18_8 1_555 1_555
C26_8 C19_8 1_555 1_555
C27_8 C20_8 1_555 1_555
C29_8 C24_8 1_555 1_555
C30_8 C25_8 1_555 1_555
C31_8 C26_8 1_555 1_555
C32_8 C27_8 1_555 1_555
C33_8 C29_8 1_555 1_555
C34_8 C31_8 1_555 1_555
C35_8 C33_8 1_555 1_555
C36_8 O30_8 1_555 1_555
C37_8 O43_8 1_555 1_555
C38_8 O35_8 1_555 1_555
C39_8 O45_8 1_555 1_555
C40_8 O46_8 1_555 1_555
C41_8 O47_8 1_555 1_555
C42_8 C45_8 1_555 1_555
C43_8 C47_8 1_555 1_555
C44_8 C8_8 1_555 1_555
C45_8 C38_8 1_555 1_555
C46_8 C39_8 1_555 1_555
C47_8 C40_8 1_555 1_555
C48_8 C41_8 1_555 1_555
C49_8 C11_8 1_555 1_555
C50_8 C45_8 1_555 1_555
C51_8 C46_8 1_555 1_555
C52_8 C47_8 1_555 1_555
C53_8 C48_8 1_555 1_555
C54_8 C50_8 1_555 1_555
C55_8 C52_8 1_555 1_555
C56_8 C54_8 1_555 1_555
C57_8 O55_8 1_555 1_555
C58_8 C60_8 1_555 1_555
C59_8 C61_8 1_555 1_555
C60_8 C15_8 1_555 1_555
C61_8 C62_8 1_555 1_555
C62_8 C60_8 1_555 1_555
C63_8 C14_8 1_555 1_555
O71_8 In16_2 1_555 1_555
O72_8 In12_8 1_555 1_555
O74_8 Cd5_3 1_555 1_555
O75_8 Cd4_3 1_555 1_555
O78_8 Cd5_3 1_555 1_555
O79_8 Cd5_3 1_555 1_555
O5_8 C7_8 1_555 1_555
In16_2 O52_8 1_555 1_555
In13_8 O60_8 1_555 1_555
In18_8 O59_8 1_555 1_555
Cd5_8 O70_3 1_555 1_555
O21_8 C17_8 1_555 1_555
O32_3 C36_8 1_555 1_555
O44_8 C38_8 1_555 1_555
O56_8 C57_8 1_555 1_555
C21_8 C25_8 1_555 1_555
C22_8 C27_8 1_555 1_555
C30_8 C33_8 1_555 1_555
C32_8 C34_8 1_555 1_555
C34_8 C36_8 1_555 1_555
C37_8 C44_8 1_555 1_555
C42_8 C46_8 1_555 1_555
C43_8 C48_8 1_555 1_555
C44_8 C49_8 1_555 1_555
C51_8 C54_8 1_555 1_555
C53_8 C55_8 1_555 1_555
C55_8 C57_8 1_555 1_555
C61_8 C63_8 1_555 1_555
C10_8 H2_8 1_555 1_555
C8_8 H4_8 1_555 1_555
C15_8 H5_8 1_555 1_555
C30_8 H12_8 1_555 1_555
C29_8 H14_8 1_555 1_555
C21_8 H15_8 1_555 1_555
C32_8 H16_8 1_555 1_555
C31_8 H17_8 1_555 1_555
C22_8 H18_8 1_555 1_555
C52_8 H19_8 1_555 1_555
C63_8 H20_8 1_555 1_555
C53_8 H21_8 1_555 1_555
C51_8 H24_8 1_555 1_555
C62_8 H25_8 1_555 1_555
C49_8 H26_8 1_555 1_555
C43_8 H35_8 1_555 1_555
C42_8 H40_8 1_555 1_555
C50_8 H41_8 1_555 1_555
In17_8 O6_9 1_555 1_555
O4_9 In10_6 1_555 1_555
O6_9 C12_9 1_555 1_555
O7_9 In17_8 1_555 1_555
O8_9 In17_8 1_555 1_555
C13_9 O8_9 1_555 1_555
C14_9 C13_9 1_555 1_555
C15_9 C14_9 1_555 1_555
In7_10 O36_9 1_555 1_555
In16_8 O7_9 1_555 1_555
In13_9 O7_9 1_555 1_555
In15_2 O61_9 1_555 1_555
In14_8 O62_9 1_555 1_555
O36_9 C39_9 1_555 1_555
O44_9 In10_6 1_555 1_555
O45_9 In7_10 1_555 1_555
O52_9 C12_9 1_555 1_555
O55_9 In17_8 1_555 1_555
O56_9 In13_9 1_555 1_555
O57_9 In16_8 1_555 1_555
O60_9 C13_9 1_555 1_555
O61_9 C58_9 1_555 1_555
O62_9 C58_9 1_555 1_555
O67_2 C59_9 1_555 1_555
O65_2 C59_9 1_555 1_555
O66_9 In16_8 1_555 1_555
C39_9 O45_9 1_555 1_555
C42_9 C45_9 1_555 1_555
C45_9 C38_9 1_555 1_555
C46_9 C39_9 1_555 1_555
C51_9 C46_9 1_555 1_555
C57_9 O55_9 1_555 1_555
C58_9 C60_9 1_555 1_555
C59_9 C61_9 1_555 1_555
C60_9 C15_9 1_555 1_555
C61_9 C62_9 1_555 1_555
C62_9 C60_9 1_555 1_555
C63_9 C14_9 1_555 1_555
O71_9 In16_8 1_555 1_555
In16_8 O52_9 1_555 1_555
In13_9 O60_9 1_555 1_555
O44_9 C38_9 1_555 1_555
O56_9 C57_9 1_555 1_555
C42_9 C46_9 1_555 1_555
C51_9 C54_9 1_555 1_555
C61_9 C63_9 1_555 1_555
C10_9 H2_9 1_555 1_555
C15_9 H5_9 1_555 1_555
C63_9 H20_9 1_555 1_555
C51_9 H24_9 1_555 1_555
C62_9 H25_9 1_555 1_555
C42_9 H40_9 1_555 1_555
O5_9 In10_7 1_555 1_555
C8_9 C9_9 1_555 1_555
C9_9 C7_9 1_555 1_555
In5_11 O34_9 1_555 1_555
In8_11 O38_9 1_555 1_555
In12_9 O53_9 1_555 1_555
In18_9 O54_9 1_555 1_555
O14_9 In10_7 1_555 1_555
O18_5 C18_9 1_555 1_555
O21_9 In10_7 1_555 1_555
O34_9 C37_9 1_555 1_555
O35_9 In10_7 1_555 1_555
O43_9 In5_11 1_555 1_555
O53_9 C56_9 1_555 1_555
O54_9 C56_9 1_555 1_555
O58_9 In12_9 1_555 1_555
O59_9 In12_9 1_555 1_555
O68_9 In12_9 1_555 1_555
O69_9 In12_9 1_555 1_555
C17_9 O14_9 1_555 1_555
C18_9 O25_5 1_555 1_555
C21_9 C24_9 1_555 1_555
C24_9 C17_9 1_555 1_555
C25_9 C18_9 1_555 1_555
C29_9 C24_9 1_555 1_555
C30_9 C25_9 1_555 1_555
C33_9 C29_9 1_555 1_555
C37_9 O43_9 1_555 1_555
C44_9 C8_9 1_555 1_555
C49_9 C11_9 1_555 1_555
O5_9 C7_9 1_555 1_555
In18_9 O59_9 1_555 1_555
O21_9 C17_9 1_555 1_555
C21_9 C25_9 1_555 1_555
C30_9 C33_9 1_555 1_555
C37_9 C44_9 1_555 1_555
C44_9 C49_9 1_555 1_555
C8_9 H4_9 1_555 1_555
C30_9 H12_9 1_555 1_555
C29_9 H14_9 1_555 1_555
C21_9 H15_9 1_555 1_555
C53_9 H21_9 1_555 1_555
C49_9 H26_9 1_555 1_555
C50_9 H41_9 1_555 1_555
In6_2 O37_9 1_555 1_555
C52_9 H19_9 1_555 1_555
Cd5_5 O28_9 1_555 1_555
O28_9 C35_9 1_555 1_555
O33 C35_9 1_555 1_555
O46_9 In6_3 1_555 1_555
O47_9 In8_12 1_555 1_555
C40_9 O46_9 1_555 1_555
C41_9 O47_9 1_555 1_555
C43_9 C47_9 1_555 1_555
C47_9 C40_9 1_555 1_555
C48_9 C41_9 1_555 1_555
O74_9 Cd5_5 1_555 1_555
O78_9 Cd5_5 1_555 1_555
O79_9 Cd5_5 1_555 1_555
C43_9 C48_9 1_555 1_555
C43_9 H35_9 1_555 1_555
In17_5 O6_10 1_555 1_555
O6_10 C12_10 1_555 1_555
O7_10 In17_5 1_555 1_555
O8_10 In17_5 1_555 1_555
C13_10 O8_10 1_555 1_555
C14_10 C13_10 1_555 1_555
C15_10 C14_10 1_555 1_555
O10_10 In17_5 1_555 1_555
In5_12 O34_10 1_555 1_555
In6_5 O37_10 1_555 1_555
In8_13 O38_10 1_555 1_555
In16_5 O7_10 1_555 1_555
In13_10 O7_10 1_555 1_555
In15_4 O61_10 1_555 1_555
In14_5 O62_10 1_555 1_555
O37_10 C40_10 1_555 1_555
O38_10 C41_10 1_555 1_555
O46_10 In6_5 1_555 1_555
O47_10 In8_13 1_555 1_555
O52_10 C12_10 1_555 1_555
O55_10 In17_5 1_555 1_555
O56_10 In13_10 1_555 1_555
O57_10 In16_5 1_555 1_555
O60_10 C13_10 1_555 1_555
O61_10 C58_10 1_555 1_555
O62_10 C58_10 1_555 1_555
O67_4 C59_10 1_555 1_555
O65_4 C59_10 1_555 1_555
O66_10 In16_5 1_555 1_555
C40_10 O46_10 1_555 1_555
C41_10 O47_10 1_555 1_555
C43_10 C47_10 1_555 1_555
C47_10 C40_10 1_555 1_555
C48_10 C41_10 1_555 1_555
C52_10 C47_10 1_555 1_555
C53_10 C48_10 1_555 1_555
C55_10 C52_10 1_555 1_555
C57_10 O55_10 1_555 1_555
C58_10 C60_10 1_555 1_555
C59_10 C61_10 1_555 1_555
C60_10 C15_10 1_555 1_555
C61_10 C62_10 1_555 1_555
C62_10 C60_10 1_555 1_555
C63_10 C14_10 1_555 1_555
In16_5 O52_10 1_555 1_555
In13_10 O60_10 1_555 1_555
O56_10 C57_10 1_555 1_555
C43_10 C48_10 1_555 1_555
C53_10 C55_10 1_555 1_555
C55_10 C57_10 1_555 1_555
C61_10 C63_10 1_555 1_555
C15_10 H5_10 1_555 1_555
C52_10 H19_10 1_555 1_555
C63_10 H20_10 1_555 1_555
C53_10 H21_10 1_555 1_555
C62_10 H25_10 1_555 1_555
C49_10 H26_10 1_555 1_555
C43_10 H35_10 1_555 1_555
O4_10 In10_10 1_555 1_555
O5_10 In10_10 1_555 1_555
C7_10 O4_10 1_555 1_555
C8_10 C9_10 1_555 1_555
C9_10 C7_10 1_555 1_555
C10_10 C9_10 1_555 1_555
C11_10 C10_10 1_555 1_555
Cd5_8 O28_10 1_555 1_555
O14_10 In10_10 1_555 1_555
O18_8 C18_10 1_555 1_555
O21_10 In10_10 1_555 1_555
O28_10 C35_10 1_555 1_555
O33_3 C35_10 1_555 1_555
O35_10 In10_10 1_555 1_555
O43_10 In5_13 1_555 1_555
O44_10 In10_10 1_555 1_555
O45_10 In7_6 1_555 1_555
C17_10 O14_10 1_555 1_555
C18_10 O25_8 1_555 1_555
C21_10 C24_10 1_555 1_555
C24_10 C17_10 1_555 1_555
C25_10 C18_10 1_555 1_555
C29_10 C24_10 1_555 1_555
C30_10 C25_10 1_555 1_555
C33_10 C29_10 1_555 1_555
C35_10 C33_10 1_555 1_555
C37_10 O43_10 1_555 1_555
C38_10 O35_10 1_555 1_555
C39_10 O45_10 1_555 1_555
C42_10 C45_10 1_555 1_555
C44_10 C8_10 1_555 1_555
C45_10 C38_10 1_555 1_555
C46_10 C39_10 1_555 1_555
C50_10 C45_10 1_555 1_555
C54_10 C50_10 1_555 1_555
O74_10 Cd5_8 1_555 1_555
O78_10 Cd5_8 1_555 1_555
O79_10 Cd5_8 1_555 1_555
O5_10 C7_10 1_555 1_555
O21_10 C17_10 1_555 1_555
O44_10 C38_10 1_555 1_555
C21_10 C25_10 1_555 1_555
C30_10 C33_10 1_555 1_555
C37_10 C44_10 1_555 1_555
C42_10 C46_10 1_555 1_555
C10_10 H2_10 1_555 1_555
C8_10 H4_10 1_555 1_555
C30_10 H12_10 1_555 1_555
C29_10 H14_10 1_555 1_555
C21_10 H15_10 1_555 1_555
C42_10 H40_10 1_555 1_555
C50_10 H41_10 1_555 1_555
In7_7 O36_10 1_555 1_555
In12_10 O53_10 1_555 1_555
In18_10 O54_10 1_555 1_555
O53_10 C56_10 1_555 1_555
O54_10 C56_10 1_555 1_555
O58_10 In12_10 1_555 1_555
O59_10 In12_10 1_555 1_555
O68_10 In12_10 1_555 1_555
O69_10 In12_10 1_555 1_555
O72_10 In12_10 1_555 1_555
In18_10 O59_10 1_555 1_555
C51_10 H24_10 1_555 1_555
In17_7 O6_11 1_555 1_555
O4_11 In10_8 1_555 1_555
O5_11 In10_8 1_555 1_555
O6_11 C12_11 1_555 1_555
O7_11 In17_7 1_555 1_555
O8_11 In17_7 1_555 1_555
C7_11 O4_11 1_555 1_555
C8_11 C9_11 1_555 1_555
C9_11 C7_11 1_555 1_555
C10_11 C9_11 1_555 1_555
C11_11 C10_11 1_555 1_555
C12_11 C11_11 1_555 1_555
C13_11 O8_11 1_555 1_555
C14_11 C13_11 1_555 1_555
C15_11 C14_11 1_555 1_555
O10_11 In17_7 1_555 1_555
In5_14 O34_11 1_555 1_555
In7_9 O36_11 1_555 1_555
In6_4 O37_11 1_555 1_555
In8_14 O38_11 1_555 1_555
In16_7 O7_11 1_555 1_555
In12_11 O53_11 1_555 1_555
In13_11 O7_11 1_555 1_555
In15_3 O61_11 1_555 1_555
In14_7 O62_11 1_555 1_555
In18_11 O54_11 1_555 1_555
Cd5_6 O28_11 1_555 1_555
O14_11 In10_8 1_555 1_555
O18_6 C18_11 1_555 1_555
O21_11 In10_8 1_555 1_555
O28_11 C35_11 1_555 1_555
O33_4 C35_11 1_555 1_555
O34_11 C37_11 1_555 1_555
O35_11 In10_8 1_555 1_555
O36_11 C39_11 1_555 1_555
O37_11 C40_11 1_555 1_555
O38_11 C41_11 1_555 1_555
O43_11 In5_14 1_555 1_555
O44_11 In10_8 1_555 1_555
O45_11 In7_9 1_555 1_555
O46_11 In6_4 1_555 1_555
O47_11 In8_14 1_555 1_555
O52_11 C12_11 1_555 1_555
O53_11 C56_11 1_555 1_555
O54_11 C56_11 1_555 1_555
O55_11 In17_7 1_555 1_555
O56_11 In13_11 1_555 1_555
O57_11 In16_7 1_555 1_555
O58_11 In12_11 1_555 1_555
O59_11 In12_11 1_555 1_555
O60_11 C13_11 1_555 1_555
O61_11 C58_11 1_555 1_555
O62_11 C58_11 1_555 1_555
O67_3 C59_11 1_555 1_555
O65_3 C59_11 1_555 1_555
O66_11 In16_7 1_555 1_555
O68_11 In12_11 1_555 1_555
O69_11 In12_11 1_555 1_555
C17_11 O14_11 1_555 1_555
C18_11 O25_6 1_555 1_555
C21_11 C24_11 1_555 1_555
C24_11 C17_11 1_555 1_555
C25_11 C18_11 1_555 1_555
C29_11 C24_11 1_555 1_555
C30_11 C25_11 1_555 1_555
C33_11 C29_11 1_555 1_555
C35_11 C33_11 1_555 1_555
C37_11 O43_11 1_555 1_555
C38_11 O35_11 1_555 1_555
C39_11 O45_11 1_555 1_555
C40_11 O46_11 1_555 1_555
C41_11 O47_11 1_555 1_555
C42_11 C45_11 1_555 1_555
C43_11 C47_11 1_555 1_555
C44_11 C8_11 1_555 1_555
C45_11 C38_11 1_555 1_555
C46_11 C39_11 1_555 1_555
C47_11 C40_11 1_555 1_555
C48_11 C41_11 1_555 1_555
C49_11 C11_11 1_555 1_555
C50_11 C45_11 1_555 1_555
C51_11 C46_11 1_555 1_555
C52_11 C47_11 1_555 1_555
C53_11 C48_11 1_555 1_555
C54_11 C50_11 1_555 1_555
C55_11 C52_11 1_555 1_555
C56_11 C54_11 1_555 1_555
C57_11 O55_11 1_555 1_555
C58_11 C60_11 1_555 1_555
C59_11 C61_11 1_555 1_555
C60_11 C15_11 1_555 1_555
C61_11 C62_11 1_555 1_555
C62_11 C60_11 1_555 1_555
C63_11 C14_11 1_555 1_555
O71_11 In16_7 1_555 1_555
O72_11 In12_11 1_555 1_555
O74_11 Cd5_6 1_555 1_555
O78_11 Cd5_6 1_555 1_555
O79_11 Cd5_6 1_555 1_555
O5_11 C7_11 1_555 1_555
In16_7 O52_11 1_555 1_555
In13_11 O60_11 1_555 1_555
In18_11 O59_11 1_555 1_555
O21_11 C17_11 1_555 1_555
O44_11 C38_11 1_555 1_555
O56_11 C57_11 1_555 1_555
C21_11 C25_11 1_555 1_555
C30_11 C33_11 1_555 1_555
C37_11 C44_11 1_555 1_555
C42_11 C46_11 1_555 1_555
C43_11 C48_11 1_555 1_555
C44_11 C49_11 1_555 1_555
C51_11 C54_11 1_555 1_555
C53_11 C55_11 1_555 1_555
C55_11 C57_11 1_555 1_555
C61_11 C63_11 1_555 1_555
C10_11 H2_11 1_555 1_555
C8_11 H4_11 1_555 1_555
C15_11 H5_11 1_555 1_555
C30_11 H12_11 1_555 1_555
C29_11 H14_11 1_555 1_555
C21_11 H15_11 1_555 1_555
C52_11 H19_11 1_555 1_555
C63_11 H20_11 1_555 1_555
C53_11 H21_11 1_555 1_555
C51_11 H24_11 1_555 1_555
C62_11 H25_11 1_555 1_555
C49_11 H26_11 1_555 1_555
C43_11 H35_11 1_555 1_555
C42_11 H40_11 1_555 1_555
C50_11 H41_11 1_555 1_555
In17_6 O6_12 1_555 1_555
O4_12 In10_9 1_555 1_555
O5_12 In10_9 1_555 1_555
O6_12 C12_12 1_555 1_555
O7_12 In17_6 1_555 1_555
O8_12 In17_6 1_555 1_555
C7_12 O4_12 1_555 1_555
C8_12 C9_12 1_555 1_555
C9_12 C7_12 1_555 1_555
C10_12 C9_12 1_555 1_555
C11_12 C10_12 1_555 1_555
C12_12 C11_12 1_555 1_555
C13_12 O8_12 1_555 1_555
C14_12 C13_12 1_555 1_555
C15_12 C14_12 1_555 1_555
O10_12 In17_6 1_555 1_555
In5_15 O34_12 1_555 1_555
In7_8 O36_12 1_555 1_555
In6 O37_12 1_555 1_555
In8_15 O38_12 1_555 1_555
In16_6 O7_12 1_555 1_555
In12_12 O53_12 1_555 1_555
In13_12 O7_12 1_555 1_555
In15 O61_12 1_555 1_555
In14_6 O62_12 1_555 1_555
In18_12 O54_12 1_555 1_555
Cd5_7 O28_12 1_555 1_555
O14_12 In10_9 1_555 1_555
O18_7 C18_12 1_555 1_555
O21_12 In10_9 1_555 1_555
O28_12 C35_12 1_555 1_555
O33_2 C35_12 1_555 1_555
O34_12 C37_12 1_555 1_555
O35_12 In10_9 1_555 1_555
O36_12 C39_12 1_555 1_555
O37_12 C40_12 1_555 1_555
O38_12 C41_12 1_555 1_555
O43_12 In5_15 1_555 1_555
O44_12 In10_9 1_555 1_555
O45_12 In7_8 1_555 1_555
O46_12 In6 1_555 1_555
O47_12 In8_15 1_555 1_555
O52_12 C12_12 1_555 1_555
O53_12 C56_12 1_555 1_555
O54_12 C56_12 1_555 1_555
O55_12 In17_6 1_555 1_555
O56_12 In13_12 1_555 1_555
O57_12 In16_6 1_555 1_555
O58_12 In12_12 1_555 1_555
O59_12 In12_12 1_555 1_555
O60_12 C13_12 1_555 1_555
O61_12 C58_12 1_555 1_555
O62_12 C58_12 1_555 1_555
O67 C59_12 1_555 1_555
O65 C59_12 1_555 1_555
O66_12 In16_6 1_555 1_555
O68_12 In12_12 1_555 1_555
O69_12 In12_12 1_555 1_555
C17_12 O14_12 1_555 1_555
C18_12 O25_7 1_555 1_555
C21_12 C24_12 1_555 1_555
C24_12 C17_12 1_555 1_555
C25_12 C18_12 1_555 1_555
C29_12 C24_12 1_555 1_555
C30_12 C25_12 1_555 1_555
C33_12 C29_12 1_555 1_555
C35_12 C33_12 1_555 1_555
C37_12 O43_12 1_555 1_555
C38_12 O35_12 1_555 1_555
C39_12 O45_12 1_555 1_555
C40_12 O46_12 1_555 1_555
C41_12 O47_12 1_555 1_555
C42_12 C45_12 1_555 1_555
C43_12 C47_12 1_555 1_555
C44_12 C8_12 1_555 1_555
C45_12 C38_12 1_555 1_555
C46_12 C39_12 1_555 1_555
C47_12 C40_12 1_555 1_555
C48_12 C41_12 1_555 1_555
C49_12 C11_12 1_555 1_555
C50_12 C45_12 1_555 1_555
C51_12 C46_12 1_555 1_555
C52_12 C47_12 1_555 1_555
C53_12 C48_12 1_555 1_555
C54_12 C50_12 1_555 1_555
C55_12 C52_12 1_555 1_555
C56_12 C54_12 1_555 1_555
C57_12 O55_12 1_555 1_555
C58_12 C60_12 1_555 1_555
C59_12 C61_12 1_555 1_555
C60_12 C15_12 1_555 1_555
C61_12 C62_12 1_555 1_555
C62_12 C60_12 1_555 1_555
C63_12 C14_12 1_555 1_555
O71_12 In16_6 1_555 1_555
O72_12 In12_12 1_555 1_555
O74_12 Cd5_7 1_555 1_555
O78_12 Cd5_7 1_555 1_555
O79_12 Cd5_7 1_555 1_555
O5_12 C7_12 1_555 1_555
In16_6 O52_12 1_555 1_555
In13_12 O60_12 1_555 1_555
In18_12 O59_12 1_555 1_555
O21_12 C17_12 1_555 1_555
O44_12 C38_12 1_555 1_555
O56_12 C57_12 1_555 1_555
C21_12 C25_12 1_555 1_555
C30_12 C33_12 1_555 1_555
C37_12 C44_12 1_555 1_555
C42_12 C46_12 1_555 1_555
C43_12 C48_12 1_555 1_555
C44_12 C49_12 1_555 1_555
C51_12 C54_12 1_555 1_555
C53_12 C55_12 1_555 1_555
C55_12 C57_12 1_555 1_555
C61_12 C63_12 1_555 1_555
C10_12 H2_12 1_555 1_555
C8_12 H4_12 1_555 1_555
C15_12 H5_12 1_555 1_555
C30_12 H12_12 1_555 1_555
C29_12 H14_12 1_555 1_555
C21_12 H15_12 1_555 1_555
C52_12 H19_12 1_555 1_555
C63_12 H20_12 1_555 1_555
C53_12 H21_12 1_555 1_555
C51_12 H24_12 1_555 1_555
C62_12 H25_12 1_555 1_555
C49_12 H26_12 1_555 1_555
C43_12 H35_12 1_555 1_555
C42_12 H40_12 1_555 1_555
C50_12 H41_12 1_555 1_555
C13_13 O68_2 1_555 1_555
C14_13 C13_13 1_555 1_555
C15_13 C14_13 1_555 1_555
In5_14 O37_13 1_555 1_555
In8_16 O38_13 1_555 1_555
In13_13 O59_2 1_555 1_555
In14_9 O61_13 1_555 1_555
In15_5 O62_13 1_555 1_555
In18_11 O63_9 1_555 1_555
O37_13 C40_13 1_555 1_555
O38_13 C41_13 1_555 1_555
O46_13 In5_14 1_555 1_555
O47_13 In8_16 1_555 1_555
O56_13 In13_13 1_555 1_555
O57_13 In18_2 1_555 1_555
O60_13 C13_13 1_555 1_555
O61_13 C58_13 1_555 1_555
O62_13 C58_13 1_555 1_555
O63_9 C59_13 1_555 1_555
O69_11 C59_13 1_555 1_555
O66_13 In18_2 1_555 1_555
O67_5 In18_2 1_555 1_555
C40_13 O46_13 1_555 1_555
C41_13 O47_13 1_555 1_555
C43_13 C47_13 1_555 1_555
C47_13 C40_13 1_555 1_555
C48_13 C41_13 1_555 1_555
C52_13 C47_13 1_555 1_555
C53_13 C48_13 1_555 1_555
C55_13 C52_13 1_555 1_555
C57_13 O58_2 1_555 1_555
C58_13 C60_13 1_555 1_555
C59_13 C61_13 1_555 1_555
C60_13 C15_13 1_555 1_555
C61_13 C62_13 1_555 1_555
C62_13 C60_13 1_555 1_555
C63_13 C14_13 1_555 1_555
In13_13 O60_13 1_555 1_555
O56_13 C57_13 1_555 1_555
C43_13 C48_13 1_555 1_555
C53_13 C55_13 1_555 1_555
C55_13 C57_13 1_555 1_555
C61_13 C63_13 1_555 1_555
C15_13 H5_13 1_555 1_555
C52_13 H19_13 1_555 1_555
C63_13 H20_13 1_555 1_555
C53_13 H21_13 1_555 1_555
C62_13 H25_13 1_555 1_555
C43_13 H35_13 1_555 1_555
O46_14 In5_12 1_555 1_555
O47_14 In8_17 1_555 1_555
C40_14 O46_14 1_555 1_555
C41_14 O47_14 1_555 1_555
C43_14 C47_14 1_555 1_555
C47_14 C40_14 1_555 1_555
C48_14 C41_14 1_555 1_555
C43_14 C48_14 1_555 1_555
C43_14 H35_14 1_555 1_555
In5_13 O37_14 1_555 1_555
C52_14 H19_14 1_555 1_555
In8_18 O38_14 1_555 1_555
C53_14 H21_14 1_555 1_555
C13_14 O68 1_555 1_555
C14_14 C13_14 1_555 1_555
C15_14 C14_14 1_555 1_555
In13_14 O59 1_555 1_555
In14_10 O61_14 1_555 1_555
In15_6 O62_14 1_555 1_555
In18_10 O63_10 1_555 1_555
O56_14 In13_14 1_555 1_555
O57_14 In18 1_555 1_555
O60_14 C13_14 1_555 1_555
O61_14 C58_14 1_555 1_555
O62_14 C58_14 1_555 1_555
O63_10 C59_14 1_555 1_555
O69_10 C59_14 1_555 1_555
O66_14 In18 1_555 1_555
O67_6 In18 1_555 1_555
C57_14 O58 1_555 1_555
C58_14 C60_14 1_555 1_555
C59_14 C61_14 1_555 1_555
C60_14 C15_14 1_555 1_555
C61_14 C62_14 1_555 1_555
C62_14 C60_14 1_555 1_555
C63_14 C14_14 1_555 1_555
O71_14 In18 1_555 1_555
In13_14 O60_14 1_555 1_555
O56_14 C57_14 1_555 1_555
C61_14 C63_14 1_555 1_555
C15_14 H5_14 1_555 1_555
C63_14 H20_14 1_555 1_555
C62_14 H25_14 1_555 1_555
C13_15 O68_3 1_555 1_555
C14_15 C13_15 1_555 1_555
C15_15 C14_15 1_555 1_555
In5_11 O37_15 1_555 1_555
In8_19 O38_15 1_555 1_555
In13_15 O59_3 1_555 1_555
In14_11 O61_15 1_555 1_555
In15_7 O62_15 1_555 1_555
In18_9 O63_11 1_555 1_555
O37_15 C40_15 1_555 1_555
O38_15 C41_15 1_555 1_555
O46_15 In5_11 1_555 1_555
O47_15 In8_19 1_555 1_555
O56_15 In13_15 1_555 1_555
O57_15 In18_3 1_555 1_555
O60_15 C13_15 1_555 1_555
O61_15 C58_15 1_555 1_555
O62_15 C58_15 1_555 1_555
O63_11 C59_15 1_555 1_555
O69_9 C59_15 1_555 1_555
O66_15 In18_3 1_555 1_555
O67_7 In18_3 1_555 1_555
C40_15 O46_15 1_555 1_555
C41_15 O47_15 1_555 1_555
C43_15 C47_15 1_555 1_555
C47_15 C40_15 1_555 1_555
C48_15 C41_15 1_555 1_555
C52_15 C47_15 1_555 1_555
C53_15 C48_15 1_555 1_555
C55_15 C52_15 1_555 1_555
C57_15 O58_3 1_555 1_555
C58_15 C60_15 1_555 1_555
C59_15 C61_15 1_555 1_555
C60_15 C15_15 1_555 1_555
C61_15 C62_15 1_555 1_555
C62_15 C60_15 1_555 1_555
C63_15 C14_15 1_555 1_555
O71_15 In18_3 1_555 1_555
In13_15 O60_15 1_555 1_555
O56_15 C57_15 1_555 1_555
C43_15 C48_15 1_555 1_555
C53_15 C55_15 1_555 1_555
C55_15 C57_15 1_555 1_555
C61_15 C63_15 1_555 1_555
C15_15 H5_15 1_555 1_555
C52_15 H19_15 1_555 1_555
C63_15 H20_15 1_555 1_555
C53_15 H21_15 1_555 1_555
C62_15 H25_15 1_555 1_555
C43_15 H35_15 1_555 1_555
C13_16 O68_4 1_555 1_555
C14_16 C13_16 1_555 1_555
C15_16 C14_16 1_555 1_555
In5_15 O37_16 1_555 1_555
In8_20 O38_16 1_555 1_555
In13_16 O59_4 1_555 1_555
In14_12 O61_16 1_555 1_555
In15_8 O62_16 1_555 1_555
In18_12 O63_12 1_555 1_555
O37_16 C40_16 1_555 1_555
O38_16 C41_16 1_555 1_555
O46_16 In5_15 1_555 1_555
O47_16 In8_20 1_555 1_555
O56_16 In13_16 1_555 1_555
O57_16 In18_4 1_555 1_555
O60_16 C13_16 1_555 1_555
O61_16 C58_16 1_555 1_555
O62_16 C58_16 1_555 1_555
O63_12 C59_16 1_555 1_555
O69_12 C59_16 1_555 1_555
O66_16 In18_4 1_555 1_555
O67_8 In18_4 1_555 1_555
C40_16 O46_16 1_555 1_555
C41_16 O47_16 1_555 1_555
C43_16 C47_16 1_555 1_555
C47_16 C40_16 1_555 1_555
C48_16 C41_16 1_555 1_555
C52_16 C47_16 1_555 1_555
C53_16 C48_16 1_555 1_555
C55_16 C52_16 1_555 1_555
C57_16 O58_4 1_555 1_555
C58_16 C60_16 1_555 1_555
C59_16 C61_16 1_555 1_555
C60_16 C15_16 1_555 1_555
C61_16 C62_16 1_555 1_555
C62_16 C60_16 1_555 1_555
C63_16 C14_16 1_555 1_555
O71_16 In18_4 1_555 1_555
In13_16 O60_16 1_555 1_555
O56_16 C57_16 1_555 1_555
C43_16 C48_16 1_555 1_555
C53_16 C55_16 1_555 1_555
C55_16 C57_16 1_555 1_555
C61_16 C63_16 1_555 1_555
C15_16 H5_16 1_555 1_555
C52_16 H19_16 1_555 1_555
C63_16 H20_16 1_555 1_555
C53_16 H21_16 1_555 1_555
C62_16 H25_16 1_555 1_555
C43_16 H35_16 1_555 1_555
C13_17 O68_12 1_555 1_555
C14_17 C13_17 1_555 1_555
C15_17 C14_17 1_555 1_555
In5_10 O37_17 1_555 1_555
In8_21 O38_17 1_555 1_555
In13_17 O59_12 1_555 1_555
In14_13 O61_17 1_555 1_555
In14_12 O62_17 1_555 1_555
In18_8 O63_13 1_555 1_555
O37_17 C40_17 1_555 1_555
O38_17 C41_17 1_555 1_555
O46_17 In5_10 1_555 1_555
O47_17 In8_21 1_555 1_555
O56_17 In13_17 1_555 1_555
O57_17 In18_12 1_555 1_555
O60_17 C13_17 1_555 1_555
O61_17 C58_17 1_555 1_555
O62_17 C58_17 1_555 1_555
O63_13 C59_17 1_555 1_555
O69_8 C59_17 1_555 1_555
O66_17 In18_12 1_555 1_555
C40_17 O46_17 1_555 1_555
C41_17 O47_17 1_555 1_555
C43_17 C47_17 1_555 1_555
C47_17 C40_17 1_555 1_555
C48_17 C41_17 1_555 1_555
C52_17 C47_17 1_555 1_555
C53_17 C48_17 1_555 1_555
C55_17 C52_17 1_555 1_555
C57_17 O58_12 1_555 1_555
C58_17 C60_17 1_555 1_555
C59_17 C61_17 1_555 1_555
C60_17 C15_17 1_555 1_555
C61_17 C62_17 1_555 1_555
C62_17 C60_17 1_555 1_555
C63_17 C14_17 1_555 1_555
O71_17 In18_12 1_555 1_555
In13_17 O60_17 1_555 1_555
O56_17 C57_17 1_555 1_555
C43_17 C48_17 1_555 1_555
C53_17 C55_17 1_555 1_555
C55_17 C57_17 1_555 1_555
C61_17 C63_17 1_555 1_555
C15_17 H5_17 1_555 1_555
C52_17 H19_17 1_555 1_555
C63_17 H20_17 1_555 1_555
C53_17 H21_17 1_555 1_555
C62_17 H25_17 1_555 1_555
C43_17 H35_17 1_555 1_555
C13_18 O68_11 1_555 1_555
C14_18 C13_18 1_555 1_555
C15_18 C14_18 1_555 1_555
In5_6 O37_18 1_555 1_555
In8_22 O38_18 1_555 1_555
In13_18 O59_11 1_555 1_555
In14_14 O61_18 1_555 1_555
In14_9 O62_18 1_555 1_555
In18_5 O63_14 1_555 1_555
O37_18 C40_18 1_555 1_555
O38_18 C41_18 1_555 1_555
O46_18 In5_6 1_555 1_555
O47_18 In8_22 1_555 1_555
O56_18 In13_18 1_555 1_555
O57_18 In18_11 1_555 1_555
O60_18 C13_18 1_555 1_555
O61_18 C58_18 1_555 1_555
O62_18 C58_18 1_555 1_555
O63_14 C59_18 1_555 1_555
O69_5 C59_18 1_555 1_555
O66_18 In18_11 1_555 1_555
C40_18 O46_18 1_555 1_555
C41_18 O47_18 1_555 1_555
C43_18 C47_18 1_555 1_555
C47_18 C40_18 1_555 1_555
C48_18 C41_18 1_555 1_555
C52_18 C47_18 1_555 1_555
C53_18 C48_18 1_555 1_555
C55_18 C52_18 1_555 1_555
C57_18 O58_11 1_555 1_555
C58_18 C60_18 1_555 1_555
C59_18 C61_18 1_555 1_555
C60_18 C15_18 1_555 1_555
C61_18 C62_18 1_555 1_555
C62_18 C60_18 1_555 1_555
C63_18 C14_18 1_555 1_555
O71_18 In18_11 1_555 1_555
In13_18 O60_18 1_555 1_555
O56_18 C57_18 1_555 1_555
C43_18 C48_18 1_555 1_555
C53_18 C55_18 1_555 1_555
C55_18 C57_18 1_555 1_555
C61_18 C63_18 1_555 1_555
C15_18 H5_18 1_555 1_555
C52_18 H19_18 1_555 1_555
C63_18 H20_18 1_555 1_555
C53_18 H21_18 1_555 1_555
C62_18 H25_18 1_555 1_555
C43_18 H35_18 1_555 1_555
O46_19 In5_7 1_555 1_555
O47_19 In8_23 1_555 1_555
C40_19 O46_19 1_555 1_555
C41_19 O47_19 1_555 1_555
C43_19 C47_19 1_555 1_555
C47_19 C40_19 1_555 1_555
C48_19 C41_19 1_555 1_555
C43_19 C48_19 1_555 1_555
C43_19 H35_19 1_555 1_555
In8_24 O38_19 1_555 1_555
C53_19 H21_19 1_555 1_555
In5_8 O37_19 1_555 1_555
C52_19 H19_19 1_555 1_555
C13_19 O68_9 1_555 1_555
C14_19 C13_19 1_555 1_555
C15_19 C14_19 1_555 1_555
In13_19 O59_9 1_555 1_555
In14_15 O61_19 1_555 1_555
In14_11 O62_19 1_555 1_555
In18_6 O63_15 1_555 1_555
O56_19 In13_19 1_555 1_555
O57_19 In18_9 1_555 1_555
O60_19 C13_19 1_555 1_555
O61_19 C58_19 1_555 1_555
O62_19 C58_19 1_555 1_555
O63_15 C59_19 1_555 1_555
O69_6 C59_19 1_555 1_555
O66_19 In18_9 1_555 1_555
C57_19 O58_9 1_555 1_555
C58_19 C60_19 1_555 1_555
C59_19 C61_19 1_555 1_555
C60_19 C15_19 1_555 1_555
C61_19 C62_19 1_555 1_555
C62_19 C60_19 1_555 1_555
C63_19 C14_19 1_555 1_555
O71_19 In18_9 1_555 1_555
In13_19 O60_19 1_555 1_555
O56_19 C57_19 1_555 1_555
C61_19 C63_19 1_555 1_555
C15_19 H5_19 1_555 1_555
C63_19 H20_19 1_555 1_555
C62_19 H25_19 1_555 1_555
C13_20 O68_10 1_555 1_555
C14_20 C13_20 1_555 1_555
C15_20 C14_20 1_555 1_555
In5_9 O37_20 1_555 1_555
In8_25 O38_20 1_555 1_555
In13_20 O59_10 1_555 1_555
In14_16 O61_20 1_555 1_555
In14_10 O62_20 1_555 1_555
In18_7 O63_16 1_555 1_555
O37_20 C40_20 1_555 1_555
O38_20 C41_20 1_555 1_555
O46_20 In5_9 1_555 1_555
O47_20 In8_25 1_555 1_555
O56_20 In13_20 1_555 1_555
O57_20 In18_10 1_555 1_555
O60_20 C13_20 1_555 1_555
O61_20 C58_20 1_555 1_555
O62_20 C58_20 1_555 1_555
O63_16 C59_20 1_555 1_555
O69_7 C59_20 1_555 1_555
O66_20 In18_10 1_555 1_555
C40_20 O46_20 1_555 1_555
C41_20 O47_20 1_555 1_555
C43_20 C47_20 1_555 1_555
C47_20 C40_20 1_555 1_555
C48_20 C41_20 1_555 1_555
C52_20 C47_20 1_555 1_555
C53_20 C48_20 1_555 1_555
C55_20 C52_20 1_555 1_555
C57_20 O58_10 1_555 1_555
C58_20 C60_20 1_555 1_555
C59_20 C61_20 1_555 1_555
C60_20 C15_20 1_555 1_555
C61_20 C62_20 1_555 1_555
C62_20 C60_20 1_555 1_555
C63_20 C14_20 1_555 1_555
In13_20 O60_20 1_555 1_555
O56_20 C57_20 1_555 1_555
C43_20 C48_20 1_555 1_555
C53_20 C55_20 1_555 1_555
C55_20 C57_20 1_555 1_555
C61_20 C63_20 1_555 1_555
C15_20 H5_20 1_555 1_555
C52_20 H19_20 1_555 1_555
C63_20 H20_20 1_555 1_555
C53_20 H21_20 1_555 1_555
C62_20 H25_20 1_555 1_555
C43_20 H35_20 1_555 1_555
C13_21 O68_7 1_555 1_555
C14_21 C13_21 1_555 1_555
C15_21 C14_21 1_555 1_555
In5 O37_21 1_555 1_555
In8_26 O38_21 1_555 1_555
In13_21 O59_7 1_555 1_555
In15_6 O61_21 1_555 1_555
In14_16 O62_21 1_555 1_555
O37_21 C40_21 1_555 1_555
O38_21 C41_21 1_555 1_555
O46_21 In5 1_555 1_555
O47_21 In8_26 1_555 1_555
O56_21 In13_21 1_555 1_555
O57_21 In18_7 1_555 1_555
O60_21 C13_21 1_555 1_555
O61_21 C58_21 1_555 1_555
O62_21 C58_21 1_555 1_555
O67_6 C59_21 1_555 1_555
O69 C59_21 1_555 1_555
O66_21 In18_7 1_555 1_555
C40_21 O46_21 1_555 1_555
C41_21 O47_21 1_555 1_555
C43_21 C47_21 1_555 1_555
C47_21 C40_21 1_555 1_555
C48_21 C41_21 1_555 1_555
C52_21 C47_21 1_555 1_555
C53_21 C48_21 1_555 1_555
C55_21 C52_21 1_555 1_555
C57_21 O58_7 1_555 1_555
C58_21 C60_21 1_555 1_555
C59_21 C61_21 1_555 1_555
C60_21 C15_21 1_555 1_555
C61_21 C62_21 1_555 1_555
C62_21 C60_21 1_555 1_555
C63_21 C14_21 1_555 1_555
O71_21 In18_7 1_555 1_555
In13_21 O60_21 1_555 1_555
O56_21 C57_21 1_555 1_555
C43_21 C48_21 1_555 1_555
C53_21 C55_21 1_555 1_555
C55_21 C57_21 1_555 1_555
C61_21 C63_21 1_555 1_555
C15_21 H5_21 1_555 1_555
C52_21 H19_21 1_555 1_555
C63_21 H20_21 1_555 1_555
C53_21 H21_21 1_555 1_555
C62_21 H25_21 1_555 1_555
C43_21 H35_21 1_555 1_555
C13_22 O68_8 1_555 1_555
C14_22 C13_22 1_555 1_555
C15_22 C14_22 1_555 1_555
In5_5 O37_22 1_555 1_555
In8_27 O38_22 1_555 1_555
In13_22 O59_8 1_555 1_555
In15_8 O61_22 1_555 1_555
In14_13 O62_22 1_555 1_555
O37_22 C40_22 1_555 1_555
O38_22 C41_22 1_555 1_555
O46_22 In5_5 1_555 1_555
O47_22 In8_27 1_555 1_555
O56_22 In13_22 1_555 1_555
O57_22 In18_8 1_555 1_555
O60_22 C13_22 1_555 1_555
O61_22 C58_22 1_555 1_555
O62_22 C58_22 1_555 1_555
O67_8 C59_22 1_555 1_555
O69_4 C59_22 1_555 1_555
O66_22 In18_8 1_555 1_555
C40_22 O46_22 1_555 1_555
C41_22 O47_22 1_555 1_555
C43_22 C47_22 1_555 1_555
C47_22 C40_22 1_555 1_555
C48_22 C41_22 1_555 1_555
C52_22 C47_22 1_555 1_555
C53_22 C48_22 1_555 1_555
C55_22 C52_22 1_555 1_555
C57_22 O58_8 1_555 1_555
C58_22 C60_22 1_555 1_555
C59_22 C61_22 1_555 1_555
C60_22 C15_22 1_555 1_555
C61_22 C62_22 1_555 1_555
C62_22 C60_22 1_555 1_555
C63_22 C14_22 1_555 1_555
O71_22 In18_8 1_555 1_555
In13_22 O60_22 1_555 1_555
O56_22 C57_22 1_555 1_555
C43_22 C48_22 1_555 1_555
C53_22 C55_22 1_555 1_555
C55_22 C57_22 1_555 1_555
C61_22 C63_22 1_555 1_555
C15_22 H5_22 1_555 1_555
C52_22 H19_22 1_555 1_555
C63_22 H20_22 1_555 1_555
C53_22 H21_22 1_555 1_555
C62_22 H25_22 1_555 1_555
C43_22 H35_22 1_555 1_555
C13_23 O68_6 1_555 1_555
C14_23 C13_23 1_555 1_555
C15_23 C14_23 1_555 1_555
In5_4 O37_23 1_555 1_555
In8_28 O38_23 1_555 1_555
In13_23 O59_6 1_555 1_555
In15_7 O61_23 1_555 1_555
In14_15 O62_23 1_555 1_555
O37_23 C40_23 1_555 1_555
O38_23 C41_23 1_555 1_555
O46_23 In5_4 1_555 1_555
O47_23 In8_28 1_555 1_555
O56_23 In13_23 1_555 1_555
O57_23 In18_6 1_555 1_555
O60_23 C13_23 1_555 1_555
O61_23 C58_23 1_555 1_555
O62_23 C58_23 1_555 1_555
O67_7 C59_23 1_555 1_555
O69_3 C59_23 1_555 1_555
O66_23 In18_6 1_555 1_555
C40_23 O46_23 1_555 1_555
C41_23 O47_23 1_555 1_555
C43_23 C47_23 1_555 1_555
C47_23 C40_23 1_555 1_555
C48_23 C41_23 1_555 1_555
C52_23 C47_23 1_555 1_555
C53_23 C48_23 1_555 1_555
C55_23 C52_23 1_555 1_555
C57_23 O58_6 1_555 1_555
C58_23 C60_23 1_555 1_555
C59_23 C61_23 1_555 1_555
C60_23 C15_23 1_555 1_555
C61_23 C62_23 1_555 1_555
C62_23 C60_23 1_555 1_555
C63_23 C14_23 1_555 1_555
In13_23 O60_23 1_555 1_555
O56_23 C57_23 1_555 1_555
C43_23 C48_23 1_555 1_555
C53_23 C55_23 1_555 1_555
C55_23 C57_23 1_555 1_555
C61_23 C63_23 1_555 1_555
C15_23 H5_23 1_555 1_555
C52_23 H19_23 1_555 1_555
C63_23 H20_23 1_555 1_555
C53_23 H21_23 1_555 1_555
C62_23 H25_23 1_555 1_555
C43_23 H35_23 1_555 1_555
O46_24 In5_2 1_555 1_555
O47_24 In8_29 1_555 1_555
C40_24 O46_24 1_555 1_555
C41_24 O47_24 1_555 1_555
C43_24 C47_24 1_555 1_555
C47_24 C40_24 1_555 1_555
C48_24 C41_24 1_555 1_555
C43_24 C48_24 1_555 1_555
C43_24 H35_24 1_555 1_555
In8_30 O38_24 1_555 1_555
C53_24 H21_24 1_555 1_555
In5_3 O37_24 1_555 1_555
C52_24 H19_24 1_555 1_555
C13_24 O68_5 1_555 1_555
C14_24 C13_24 1_555 1_555
C15_24 C14_24 1_555 1_555
In13_24 O59_5 1_555 1_555
In15_5 O61_24 1_555 1_555
In14_14 O62_24 1_555 1_555
O56_24 In13_24 1_555 1_555
O57_24 In18_5 1_555 1_555
O60_24 C13_24 1_555 1_555
O61_24 C58_24 1_555 1_555
O62_24 C58_24 1_555 1_555
O67_5 C59_24 1_555 1_555
O69_2 C59_24 1_555 1_555
O66_24 In18_5 1_555 1_555
C57_24 O58_5 1_555 1_555
C58_24 C60_24 1_555 1_555
C59_24 C61_24 1_555 1_555
C60_24 C15_24 1_555 1_555
C61_24 C62_24 1_555 1_555
C62_24 C60_24 1_555 1_555
C63_24 C14_24 1_555 1_555
O71_24 In18_5 1_555 1_555
In13_24 O60_24 1_555 1_555
O56_24 C57_24 1_555 1_555
C61_24 C63_24 1_555 1_555
C15_24 H5_24 1_555 1_555
C63_24 H20_24 1_555 1_555
C62_24 H25_24 1_555 1_555
Cd1_5 O3_5 1_555 1_555
O3_5 C6_5 1_555 1_555
O9_5 Cd1_5 1_555 1_555
O11_9 Cd1_5 1_555 1_555
O12_9 Cd1_5 1_555 1_555
In7_3 O16_5 1_555 1_555
In10_11 O17_9 1_555 1_555
Cd2_5 O9_5 1_555 1_555
Cd4_5 O9_5 1_555 1_555
O16_5 C19_9 1_555 1_555
O17_9 C20_9 1_555 1_555
O19_5 In4_6 1_555 1_555
O23_5 In7_3 1_555 1_555
O24_9 In10_11 1_555 1_555
O26_5 In4_6 1_555 1_555
O27_5 C6_5 1_555 1_555
O30_9 Cd1_5 1_555 1_555
O31_5 Cd4_5 1_555 1_555
O32_5 Cd2_5 1_555 1_555
O42_5 In4_6 1_555 1_555
O50_5 In4_6 1_555 1_555
C19_9 O23_5 1_555 1_555
C20_9 O24_9 1_555 1_555
C22_9 C26_9 1_555 1_555
C26_9 C19_9 1_555 1_555
C27_9 C20_9 1_555 1_555
C31_9 C26_9 1_555 1_555
C32_9 C27_9 1_555 1_555
C34_9 C31_9 1_555 1_555
C36_9 O30_9 1_555 1_555
O73_5 Cd2_5 1_555 1_555
O75_9 Cd1_5 1_555 1_555
O76_5 Cd2_5 1_555 1_555
O77_5 Cd2_5 1_555 1_555
Cd2_5 O27_5 1_555 1_555
O31_5 C36_9 1_555 1_555
C22_9 C27_9 1_555 1_555
C32_9 C34_9 1_555 1_555
C34_9 C36_9 1_555 1_555
C32_9 H16_9 1_555 1_555
C31_9 H17_9 1_555 1_555
C22_9 H18_9 1_555 1_555
In8_9 O1_5 1_555 1_555
O1_5 C1_5 1_555 1_555
O2_5 In8_9 1_555 1_555
O8_13 In13_7 1_555 1_555
C1_5 O2_5 1_555 1_555
C2_5 C3_5 1_555 1_555
C3_5 C1_5 1_555 1_555
C4_5 C3_5 1_555 1_555
C5_5 C4_5 1_555 1_555
C13_25 O8_13 1_555 1_555
C14_25 C13_25 1_555 1_555
C15_25 C14_25 1_555 1_555
O10_13 In13_7 1_555 1_555
In5_9 O13_5 1_555 1_555
In4_7 O15_5 1_555 1_555
In6_6 O36_13 1_555 1_555
In8_31 O38_25 1_555 1_555
In15_5 O53_13 1_555 1_555
In13_11 O61_25 1_555 1_555
In13_3 O63_17 1_555 1_555
In14_9 O54_13 1_555 1_555
Cd3_5 O28_13 1_555 1_555
Cd5_9 O29_9 1_555 1_555
O13_5 C16_5 1_555 1_555
O14_13 In8_9 1_555 1_555
O15_5 C18_13 1_555 1_555
O18_9 In5_9 1_555 1_555
O20_5 In5_9 1_555 1_555
O21_13 In8_9 1_555 1_555
O22_5 In4_7 1_555 1_555
O25_9 In5_9 1_555 1_555
O28_13 C35_13 1_555 1_555
O29_9 C35_13 1_555 1_555
O33_5 Cd3_5 1_555 1_555
O35_13 In8_9 1_555 1_555
O36_13 C39_13 1_555 1_555
O39_7 C40_25 1_555 1_555
O38_25 C41_25 1_555 1_555
O41_5 In4_7 1_555 1_555
O44_13 In8_9 1_555 1_555
O45_13 In6_6 1_555 1_555
O47_25 In8_31 1_555 1_555
O51_5 In4_7 1_555 1_555
O53_13 C56_13 1_555 1_555
O54_13 C56_13 1_555 1_555
O55_13 In13_7 1_555 1_555
O58_13 In15_5 1_555 1_555
O59_13 In15_5 1_555 1_555
O66_7 C13_25 1_555 1_555
O61_25 C58_25 1_555 1_555
O66_11 C58_25 1_555 1_555
O63_17 C59_25 1_555 1_555
O66_3 C59_25 1_555 1_555
O70_5 Cd3_5 1_555 1_555
C16_5 O20_5 1_555 1_555
C17_13 O14_13 1_555 1_555
C18_13 O22_5 1_555 1_555
C21_13 C24_13 1_555 1_555
C23_5 C2_5 1_555 1_555
C24_13 C17_13 1_555 1_555
C25_13 C18_13 1_555 1_555
C28_5 C5_5 1_555 1_555
C29_13 C24_13 1_555 1_555
C30_13 C25_13 1_555 1_555
C33_13 C29_13 1_555 1_555
C35_13 C33_13 1_555 1_555
C38_13 O35_13 1_555 1_555
C39_13 O45_13 1_555 1_555
C40_25 O48_7 1_555 1_555
C41_25 O47_25 1_555 1_555
C42_13 C45_13 1_555 1_555
C43_25 C47_25 1_555 1_555
C45_13 C38_13 1_555 1_555
C46_13 C39_13 1_555 1_555
C47_25 C40_25 1_555 1_555
C48_25 C41_25 1_555 1_555
C50_13 C45_13 1_555 1_555
C51_13 C46_13 1_555 1_555
C52_25 C47_25 1_555 1_555
C53_25 C48_25 1_555 1_555
C54_13 C50_13 1_555 1_555
C55_25 C52_25 1_555 1_555
C56_13 C54_13 1_555 1_555
C57_25 O55_13 1_555 1_555
C58_25 C60_25 1_555 1_555
C59_25 C61_25 1_555 1_555
C60_25 C15_25 1_555 1_555
C61_25 C62_25 1_555 1_555
C62_25 C60_25 1_555 1_555
C63_25 C14_25 1_555 1_555
O72_13 In15_5 1_555 1_555
O74_13 Cd3_5 1_555 1_555
O78_13 Cd3_5 1_555 1_555
O79_13 Cd3_5 1_555 1_555
In14_9 O59_13 1_555 1_555
Cd5_9 O70_5 1_555 1_555
O21_13 C17_13 1_555 1_555
O44_13 C38_13 1_555 1_555
O57_7 C57_25 1_555 1_555
C16_5 C23_5 1_555 1_555
C21_13 C25_13 1_555 1_555
C23_5 C28_5 1_555 1_555
C30_13 C33_13 1_555 1_555
C42_13 C46_13 1_555 1_555
C43_25 C48_25 1_555 1_555
C51_13 C54_13 1_555 1_555
C53_25 C55_25 1_555 1_555
C55_25 C57_25 1_555 1_555
C61_25 C63_25 1_555 1_555
C2_5 H1_5 1_555 1_555
C4_5 H3_5 1_555 1_555
C15_25 H5_25 1_555 1_555
C30_13 H12_13 1_555 1_555
C28_5 H13_5 1_555 1_555
C29_13 H14_13 1_555 1_555
C21_13 H15_13 1_555 1_555
C52_25 H19_25 1_555 1_555
C63_25 H20_25 1_555 1_555
C53_25 H21_25 1_555 1_555
C51_13 H24_13 1_555 1_555
C62_25 H25_25 1_555 1_555
C43_25 H35_25 1_555 1_555
C42_13 H40_13 1_555 1_555
C50_13 H41_13 1_555 1_555
O8_14 In13_5 1_555 1_555
C13_26 O8_14 1_555 1_555
C14_26 C13_26 1_555 1_555
C15_26 C14_26 1_555 1_555
In13_10 O61_26 1_555 1_555
In13_4 O63_18 1_555 1_555
O55_14 In13_5 1_555 1_555
O66_5 C13_26 1_555 1_555
O61_26 C58_26 1_555 1_555
O66_10 C58_26 1_555 1_555
O63_18 C59_26 1_555 1_555
O66_4 C59_26 1_555 1_555
C57_26 O55_14 1_555 1_555
C58_26 C60_26 1_555 1_555
C59_26 C61_26 1_555 1_555
C60_26 C15_26 1_555 1_555
C61_26 C62_26 1_555 1_555
C62_26 C60_26 1_555 1_555
C63_26 C14_26 1_555 1_555
O57_5 C57_26 1_555 1_555
C61_26 C63_26 1_555 1_555
C15_26 H5_26 1_555 1_555
C52_26 H19_26 1_555 1_555
C63_26 H20_26 1_555 1_555
C62_26 H25_26 1_555 1_555
In8_32 O38_26 1_555 1_555
O38_26 C41_26 1_555 1_555
O47_26 In8_32 1_555 1_555
C40_26 O48_5 1_555 1_555
C41_26 O47_26 1_555 1_555
C43_26 C47_26 1_555 1_555
C47_26 C40_26 1_555 1_555
C48_26 C41_26 1_555 1_555
C53_26 C48_26 1_555 1_555
C43_26 C48_26 1_555 1_555
C53_26 C55_26 1_555 1_555
C53_26 H21_26 1_555 1_555
C43_26 H35_26 1_555 1_555
In8_6 O1_6 1_555 1_555
Cd1_6 O3_6 1_555 1_555
O1_6 C1_6 1_555 1_555
O2_6 In8_6 1_555 1_555
O3_6 C6_6 1_555 1_555
O9_6 Cd1_6 1_555 1_555
C1_6 O2_6 1_555 1_555
C2_6 C3_6 1_555 1_555
C3_6 C1_6 1_555 1_555
C4_6 C3_6 1_555 1_555
C5_6 C4_6 1_555 1_555
C6_6 C5_6 1_555 1_555
O11_10 Cd1_6 1_555 1_555
O12_10 Cd1_6 1_555 1_555
In5_6 O13_6 1_555 1_555
In6_7 O36_14 1_555 1_555
In7 O16_6 1_555 1_555
In10_13 O17_10 1_555 1_555
Cd2_6 O9_6 1_555 1_555
Cd4_6 O9_6 1_555 1_555
O13_6 C16_6 1_555 1_555
O16_6 C19_10 1_555 1_555
O17_10 C20_10 1_555 1_555
O18_10 In5_6 1_555 1_555
O20_6 In5_6 1_555 1_555
O23_6 In7 1_555 1_555
O24_10 In10_13 1_555 1_555
O25_10 In5_6 1_555 1_555
O27_6 C6_6 1_555 1_555
O30_10 Cd1_6 1_555 1_555
O31_6 Cd4_6 1_555 1_555
O32_6 Cd2_6 1_555 1_555
O36_14 C39_14 1_555 1_555
O44_14 In8_6 1_555 1_555
O45_14 In6_7 1_555 1_555
C16_6 O20_6 1_555 1_555
C19_10 O23_6 1_555 1_555
C20_10 O24_10 1_555 1_555
C22_10 C26_10 1_555 1_555
C23_6 C2_6 1_555 1_555
C26_10 C19_10 1_555 1_555
C27_10 C20_10 1_555 1_555
C28_6 C5_6 1_555 1_555
C31_10 C26_10 1_555 1_555
C32_10 C27_10 1_555 1_555
C34_10 C31_10 1_555 1_555
C36_10 O30_10 1_555 1_555
C39_14 O45_14 1_555 1_555
C42_14 C45_14 1_555 1_555
C45_14 C38_14 1_555 1_555
C46_14 C39_14 1_555 1_555
C51_14 C46_14 1_555 1_555
O73_6 Cd2_6 1_555 1_555
O75_10 Cd1_6 1_555 1_555
O76_6 Cd2_6 1_555 1_555
O77_6 Cd2_6 1_555 1_555
Cd2_6 O27_6 1_555 1_555
O31_6 C36_10 1_555 1_555
O44_14 C38_14 1_555 1_555
C16_6 C23_6 1_555 1_555
C22_10 C27_10 1_555 1_555
C23_6 C28_6 1_555 1_555
C32_10 C34_10 1_555 1_555
C34_10 C36_10 1_555 1_555
C42_14 C46_14 1_555 1_555
C51_14 C54_14 1_555 1_555
C2_6 H1_6 1_555 1_555
C4_6 H3_6 1_555 1_555
C28_6 H13_6 1_555 1_555
C32_10 H16_10 1_555 1_555
C31_10 H17_10 1_555 1_555
C22_10 H18_10 1_555 1_555
C51_14 H24_14 1_555 1_555
C42_14 H40_14 1_555 1_555
In4_8 O15_6 1_555 1_555
In15_6 O53_14 1_555 1_555
In14_10 O54_14 1_555 1_555
Cd3_6 O28_14 1_555 1_555
Cd5_10 O29_10 1_555 1_555
O14_14 In8_7 1_555 1_555
O15_6 C18_14 1_555 1_555
O19_6 In4_8 1_555 1_555
O21_14 In8_7 1_555 1_555
O22_6 In4_8 1_555 1_555
O26_6 In4_8 1_555 1_555
O28_14 C35_14 1_555 1_555
O29_10 C35_14 1_555 1_555
O33_6 Cd3_6 1_555 1_555
O35_14 In8_7 1_555 1_555
O41_6 In4_8 1_555 1_555
O42_6 In4_8 1_555 1_555
O50_6 In4_8 1_555 1_555
O51_6 In4_8 1_555 1_555
O53_14 C56_14 1_555 1_555
O54_14 C56_14 1_555 1_555
O58_14 In15_6 1_555 1_555
O59_14 In15_6 1_555 1_555
O70_6 Cd3_6 1_555 1_555
C17_14 O14_14 1_555 1_555
C18_14 O22_6 1_555 1_555
C21_14 C24_14 1_555 1_555
C24_14 C17_14 1_555 1_555
C25_14 C18_14 1_555 1_555
C29_14 C24_14 1_555 1_555
C30_14 C25_14 1_555 1_555
C33_14 C29_14 1_555 1_555
C35_14 C33_14 1_555 1_555
O74_14 Cd3_6 1_555 1_555
O78_14 Cd3_6 1_555 1_555
O79_14 Cd3_6 1_555 1_555
In14_10 O59_14 1_555 1_555
Cd5_10 O70_6 1_555 1_555
O21_14 C17_14 1_555 1_555
C21_14 C25_14 1_555 1_555
C30_14 C33_14 1_555 1_555
C30_14 H12_14 1_555 1_555
C29_14 H14_14 1_555 1_555
C21_14 H15_14 1_555 1_555
C50_14 H41_14 1_555 1_555
In8_8 O1_7 1_555 1_555
Cd1_7 O3_7 1_555 1_555
O1_7 C1_7 1_555 1_555
O2_7 In8_8 1_555 1_555
O3_7 C6_7 1_555 1_555
O8_15 In13_6 1_555 1_555
O9_7 Cd1_7 1_555 1_555
C1_7 O2_7 1_555 1_555
C2_7 C3_7 1_555 1_555
C3_7 C1_7 1_555 1_555
C4_7 C3_7 1_555 1_555
C5_7 C4_7 1_555 1_555
C6_7 C5_7 1_555 1_555
C13_27 O8_15 1_555 1_555
C14_27 C13_27 1_555 1_555
C15_27 C14_27 1_555 1_555
O10_15 In13_6 1_555 1_555
O11_11 Cd1_7 1_555 1_555
O12_11 Cd1_7 1_555 1_555
In5_7 O13_7 1_555 1_555
In4_9 O15_7 1_555 1_555
In6_8 O36_15 1_555 1_555
In8_33 O38_27 1_555 1_555
In15_8 O53_15 1_555 1_555
In13_12 O61_27 1_555 1_555
In13 O63_19 1_555 1_555
In14_12 O54_15 1_555 1_555
Cd2_7 O9_7 1_555 1_555
Cd4_7 O9_7 1_555 1_555
O13_7 C16_7 1_555 1_555
O14_15 In8_8 1_555 1_555
O15_7 C18_15 1_555 1_555
O19_7 In4_9 1_555 1_555
O20_7 In5_7 1_555 1_555
O21_15 In8_8 1_555 1_555
O22_7 In4_9 1_555 1_555
O26_7 In4_9 1_555 1_555
O27_7 C6_7 1_555 1_555
O30_11 Cd1_7 1_555 1_555
O31_7 Cd4_7 1_555 1_555
O32_7 Cd2_7 1_555 1_555
O35_15 In8_8 1_555 1_555
O36_15 C39_15 1_555 1_555
O41_7 In4_9 1_555 1_555
O42_7 In4_9 1_555 1_555
O44_15 In8_8 1_555 1_555
O45_15 In6_8 1_555 1_555
O50_7 In4_9 1_555 1_555
O51_7 In4_9 1_555 1_555
O53_15 C56_15 1_555 1_555
O54_15 C56_15 1_555 1_555
O55_15 In13_6 1_555 1_555
O58_15 In15_8 1_555 1_555
O59_15 In15_8 1_555 1_555
O66_6 C13_27 1_555 1_555
O61_27 C58_27 1_555 1_555
O66_12 C58_27 1_555 1_555
O63_19 C59_27 1_555 1_555
O66 C59_27 1_555 1_555
C16_7 O20_7 1_555 1_555
C17_15 O14_15 1_555 1_555
C18_15 O22_7 1_555 1_555
C21_15 C24_15 1_555 1_555
C23_7 C2_7 1_555 1_555
C24_15 C17_15 1_555 1_555
C25_15 C18_15 1_555 1_555
C28_7 C5_7 1_555 1_555
C29_15 C24_15 1_555 1_555
C30_15 C25_15 1_555 1_555
C33_15 C29_15 1_555 1_555
C36_11 O30_11 1_555 1_555
C38_15 O35_15 1_555 1_555
C39_15 O45_15 1_555 1_555
C42_15 C45_15 1_555 1_555
C45_15 C38_15 1_555 1_555
C46_15 C39_15 1_555 1_555
C50_15 C45_15 1_555 1_555
C51_15 C46_15 1_555 1_555
C54_15 C50_15 1_555 1_555
C56_15 C54_15 1_555 1_555
C57_27 O55_15 1_555 1_555
C58_27 C60_27 1_555 1_555
C59_27 C61_27 1_555 1_555
C60_27 C15_27 1_555 1_555
C61_27 C62_27 1_555 1_555
C62_27 C60_27 1_555 1_555
C63_27 C14_27 1_555 1_555
O72_15 In15_8 1_555 1_555
O73_7 Cd2_7 1_555 1_555
O75_11 Cd1_7 1_555 1_555
O76_7 Cd2_7 1_555 1_555
O77_7 Cd2_7 1_555 1_555
In14_12 O59_15 1_555 1_555
Cd2_7 O27_7 1_555 1_555
O21_15 C17_15 1_555 1_555
O31_7 C36_11 1_555 1_555
O44_15 C38_15 1_555 1_555
O57_6 C57_27 1_555 1_555
C16_7 C23_7 1_555 1_555
C21_15 C25_15 1_555 1_555
C23_7 C28_7 1_555 1_555
C30_15 C33_15 1_555 1_555
C42_15 C46_15 1_555 1_555
C51_15 C54_15 1_555 1_555
C61_27 C63_27 1_555 1_555
C2_7 H1_7 1_555 1_555
C4_7 H3_7 1_555 1_555
C15_27 H5_27 1_555 1_555
C30_15 H12_15 1_555 1_555
C28_7 H13_7 1_555 1_555
C29_15 H14_15 1_555 1_555
C21_15 H15_15 1_555 1_555
C63_27 H20_27 1_555 1_555
C53_27 H21_27 1_555 1_555
C51_15 H24_15 1_555 1_555
C62_27 H25_27 1_555 1_555
C42_15 H40_15 1_555 1_555
C50_15 H41_15 1_555 1_555
In7_5 O16_7 1_555 1_555
In10_14 O17_11 1_555 1_555
Cd3_7 O28_15 1_555 1_555
Cd5_11 O29_11 1_555 1_555
O16_7 C19_11 1_555 1_555
O17_11 C20_11 1_555 1_555
O18_11 In5_8 1_555 1_555
O23_7 In7_5 1_555 1_555
O24_11 In10_14 1_555 1_555
O25_11 In5_8 1_555 1_555
O28_15 C35_15 1_555 1_555
O29_11 C35_15 1_555 1_555
O33_7 Cd3_7 1_555 1_555
O39_6 C40_27 1_555 1_555
O47_27 In8_34 1_555 1_555
O70_7 Cd3_7 1_555 1_555
C19_11 O23_7 1_555 1_555
C20_11 O24_11 1_555 1_555
C22_11 C26_11 1_555 1_555
C26_11 C19_11 1_555 1_555
C27_11 C20_11 1_555 1_555
C31_11 C26_11 1_555 1_555
C32_11 C27_11 1_555 1_555
C34_11 C31_11 1_555 1_555
C40_27 O48_6 1_555 1_555
C41_27 O47_27 1_555 1_555
C43_27 C47_27 1_555 1_555
C47_27 C40_27 1_555 1_555
C48_27 C41_27 1_555 1_555
C52_27 C47_27 1_555 1_555
C55_27 C52_27 1_555 1_555
O74_15 Cd3_7 1_555 1_555
O78_15 Cd3_7 1_555 1_555
O79_15 Cd3_7 1_555 1_555
Cd5_11 O70_7 1_555 1_555
C22_11 C27_11 1_555 1_555
C32_11 C34_11 1_555 1_555
C43_27 C48_27 1_555 1_555
C32_11 H16_11 1_555 1_555
C31_11 H17_11 1_555 1_555
C22_11 H18_11 1_555 1_555
C52_27 H19_27 1_555 1_555
C43_27 H35_27 1_555 1_555
In8_10 O1_8 1_555 1_555
Cd1_8 O3_8 1_555 1_555
O1_8 C1_8 1_555 1_555
O2_8 In8_10 1_555 1_555
O3_8 C6_8 1_555 1_555
O8_16 In13_8 1_555 1_555
O9_8 Cd1_8 1_555 1_555
C1_8 O2_8 1_555 1_555
C2_8 C3_8 1_555 1_555
C3_8 C1_8 1_555 1_555
C4_8 C3_8 1_555 1_555
C5_8 C4_8 1_555 1_555
C6_8 C5_8 1_555 1_555
C13_28 O8_16 1_555 1_555
C14_28 C13_28 1_555 1_555
C15_28 C14_28 1_555 1_555
O10_16 In13_8 1_555 1_555
O11_12 Cd1_8 1_555 1_555
O12_12 Cd1_8 1_555 1_555
In5_10 O13_8 1_555 1_555
In4_10 O15_8 1_555 1_555
In8_35 O38_28 1_555 1_555
In7_4 O16_8 1_555 1_555
In10_15 O17_12 1_555 1_555
In13_9 O61_28 1_555 1_555
In13_2 O63_20 1_555 1_555
Cd2_8 O9_8 1_555 1_555
Cd3_8 O28_16 1_555 1_555
Cd4_8 O9_8 1_555 1_555
Cd5_12 O29_12 1_555 1_555
O13_8 C16_8 1_555 1_555
O14_16 In8_10 1_555 1_555
O15_8 C18_16 1_555 1_555
O16_8 C19_12 1_555 1_555
O17_12 C20_12 1_555 1_555
O18_12 In5_10 1_555 1_555
O19_8 In4_10 1_555 1_555
O20_8 In5_10 1_555 1_555
O21_16 In8_10 1_555 1_555
O22_8 In4_10 1_555 1_555
O23_8 In7_4 1_555 1_555
O24_12 In10_15 1_555 1_555
O25_12 In5_10 1_555 1_555
O26_8 In4_10 1_555 1_555
O27_8 C6_8 1_555 1_555
O28_16 C35_16 1_555 1_555
O29_12 C35_16 1_555 1_555
O30_12 Cd1_8 1_555 1_555
O31_8 Cd4_8 1_555 1_555
O32_8 Cd2_8 1_555 1_555
O33_8 Cd3_8 1_555 1_555
O35_16 In8_10 1_555 1_555
O39_8 C40_28 1_555 1_555
O38_28 C41_28 1_555 1_555
O41_8 In4_10 1_555 1_555
O42_8 In4_10 1_555 1_555
O44_16 In8_10 1_555 1_555
O45_16 In6_9 1_555 1_555
O47_28 In8_35 1_555 1_555
O50_8 In4_10 1_555 1_555
O51_8 In4_10 1_555 1_555
O55_16 In13_8 1_555 1_555
O66_8 C13_28 1_555 1_555
O61_28 C58_28 1_555 1_555
O66_9 C58_28 1_555 1_555
O63_20 C59_28 1_555 1_555
O66_2 C59_28 1_555 1_555
O70_8 Cd3_8 1_555 1_555
C16_8 O20_8 1_555 1_555
C17_16 O14_16 1_555 1_555
C18_16 O22_8 1_555 1_555
C19_12 O23_8 1_555 1_555
C20_12 O24_12 1_555 1_555
C21_16 C24_16 1_555 1_555
C22_12 C26_12 1_555 1_555
C23_8 C2_8 1_555 1_555
C24_16 C17_16 1_555 1_555
C25_16 C18_16 1_555 1_555
C26_12 C19_12 1_555 1_555
C27_12 C20_12 1_555 1_555
C28_8 C5_8 1_555 1_555
C29_16 C24_16 1_555 1_555
C30_16 C25_16 1_555 1_555
C31_12 C26_12 1_555 1_555
C32_12 C27_12 1_555 1_555
C33_16 C29_16 1_555 1_555
C34_12 C31_12 1_555 1_555
C35_16 C33_16 1_555 1_555
C36_12 O30_12 1_555 1_555
C38_16 O35_16 1_555 1_555
C39_16 O45_16 1_555 1_555
C40_28 O48_8 1_555 1_555
C41_28 O47_28 1_555 1_555
C42_16 C45_16 1_555 1_555
C43_28 C47_28 1_555 1_555
C45_16 C38_16 1_555 1_555
C46_16 C39_16 1_555 1_555
C47_28 C40_28 1_555 1_555
C48_28 C41_28 1_555 1_555
C50_16 C45_16 1_555 1_555
C52_28 C47_28 1_555 1_555
C53_28 C48_28 1_555 1_555
C54_16 C50_16 1_555 1_555
C55_28 C52_28 1_555 1_555
C57_28 O55_16 1_555 1_555
C58_28 C60_28 1_555 1_555
C59_28 C61_28 1_555 1_555
C60_28 C15_28 1_555 1_555
C61_28 C62_28 1_555 1_555
C62_28 C60_28 1_555 1_555
C63_28 C14_28 1_555 1_555
O73_8 Cd2_8 1_555 1_555
O74_16 Cd3_8 1_555 1_555
O75_12 Cd1_8 1_555 1_555
O76_8 Cd2_8 1_555 1_555
O77_8 Cd2_8 1_555 1_555
O78_16 Cd3_8 1_555 1_555
O79_16 Cd3_8 1_555 1_555
Cd2_8 O27_8 1_555 1_555
Cd5_12 O70_8 1_555 1_555
O21_16 C17_16 1_555 1_555
O31_8 C36_12 1_555 1_555
O44_16 C38_16 1_555 1_555
O57_8 C57_28 1_555 1_555
C16_8 C23_8 1_555 1_555
C21_16 C25_16 1_555 1_555
C22_12 C27_12 1_555 1_555
C23_8 C28_8 1_555 1_555
C30_16 C33_16 1_555 1_555
C32_12 C34_12 1_555 1_555
C34_12 C36_12 1_555 1_555
C42_16 C46_16 1_555 1_555
C43_28 C48_28 1_555 1_555
C53_28 C55_28 1_555 1_555
C55_28 C57_28 1_555 1_555
C61_28 C63_28 1_555 1_555
C2_8 H1_8 1_555 1_555
C4_8 H3_8 1_555 1_555
C15_28 H5_28 1_555 1_555
C30_16 H12_16 1_555 1_555
C28_8 H13_8 1_555 1_555
C29_16 H14_16 1_555 1_555
C21_16 H15_16 1_555 1_555
C32_12 H16_12 1_555 1_555
C31_12 H17_12 1_555 1_555
C22_12 H18_12 1_555 1_555
C52_28 H19_28 1_555 1_555
C63_28 H20_28 1_555 1_555
C53_28 H21_28 1_555 1_555
C62_28 H25_28 1_555 1_555
C43_28 H35_28 1_555 1_555
C42_16 H40_16 1_555 1_555
C50_16 H41_16 1_555 1_555
In6_10 O36_16 1_555 1_555
In15_7 O53_16 1_555 1_555
In14_11 O54_16 1_555 1_555
O53_16 C56_16 1_555 1_555
O54_16 C56_16 1_555 1_555
O58_16 In15_7 1_555 1_555
O59_16 In15_7 1_555 1_555
O72_16 In15_7 1_555 1_555
In14_11 O59_16 1_555 1_555
C51_16 H24_16 1_555 1_555
O4_13 In10_11 1_555 1_555
O57_2 C12_13 1_555 1_555
O11_13 Cd4_5 1_555 1_555
O12_13 Cd4_5 1_555 1_555
In8_27 O17_13 1_555 1_555
O19_5 C19_13 1_555 1_555
O17_13 C20_13 1_555 1_555
O18_13 In7_3 1_555 1_555
O24_13 In8_27 1_555 1_555
O25_13 In7_3 1_555 1_555
O30_13 Cd4_5 1_555 1_555
O40_8 C39_17 1_555 1_555
O44_17 In10_11 1_555 1_555
O52_13 C12_13 1_555 1_555
C19_13 O26_5 1_555 1_555
C20_13 O24_13 1_555 1_555
C22_13 C26_13 1_555 1_555
C26_13 C19_13 1_555 1_555
C27_13 C20_13 1_555 1_555
C31_13 C26_13 1_555 1_555
C32_13 C27_13 1_555 1_555
C34_13 C31_13 1_555 1_555
C36_13 O30_13 1_555 1_555
C39_17 O49_8 1_555 1_555
C42_17 C45_17 1_555 1_555
C45_17 C38_17 1_555 1_555
C46_17 C39_17 1_555 1_555
C51_17 C46_17 1_555 1_555
O71_25 In13_2 1_555 1_555
O75_13 Cd4_5 1_555 1_555
In13_2 O52_13 1_555 1_555
O32_5 C36_13 1_555 1_555
O44_17 C38_17 1_555 1_555
C22_13 C27_13 1_555 1_555
C32_13 C34_13 1_555 1_555
C34_13 C36_13 1_555 1_555
C42_17 C46_17 1_555 1_555
C51_17 C54_17 1_555 1_555
C10_13 H2_13 1_555 1_555
C32_13 H16_13 1_555 1_555
C31_13 H17_13 1_555 1_555
C22_13 H18_13 1_555 1_555
C51_17 H24_17 1_555 1_555
C42_17 H40_17 1_555 1_555
O5_13 In10_12 1_555 1_555
C8_13 C9_13 1_555 1_555
C9_13 C7_13 1_555 1_555
In13_20 O54_17 1_555 1_555
Cd5_9 O28_17 1_555 1_555
Cd5_13 O29_13 1_555 1_555
O14_17 In10_12 1_555 1_555
O18_9 C18_17 1_555 1_555
O21_17 In10_12 1_555 1_555
O28_17 C35_17 1_555 1_555
O29_13 C35_17 1_555 1_555
O39_2 C37_13 1_555 1_555
O35_17 In10_12 1_555 1_555
O57_20 C56_17 1_555 1_555
O54_17 C56_17 1_555 1_555
C17_17 O14_17 1_555 1_555
C18_17 O25_9 1_555 1_555
C21_17 C24_17 1_555 1_555
C24_17 C17_17 1_555 1_555
C25_17 C18_17 1_555 1_555
C29_17 C24_17 1_555 1_555
C30_17 C25_17 1_555 1_555
C33_17 C29_17 1_555 1_555
C35_17 C33_17 1_555 1_555
C37_13 O48_2 1_555 1_555
C44_13 C8_13 1_555 1_555
C49_13 C11_13 1_555 1_555
O74_17 Cd5_9 1_555 1_555
O78_17 Cd5_9 1_555 1_555
O79_17 Cd5_9 1_555 1_555
O5_13 C7_13 1_555 1_555
Cd5_13 O70_5 1_555 1_555
O21_17 C17_17 1_555 1_555
C21_17 C25_17 1_555 1_555
C30_17 C33_17 1_555 1_555
C37_13 C44_13 1_555 1_555
C44_13 C49_13 1_555 1_555
C8_13 H4_13 1_555 1_555
C30_17 H12_17 1_555 1_555
C29_17 H14_17 1_555 1_555
C21_17 H15_17 1_555 1_555
C49_13 H26_13 1_555 1_555
C50_17 H41_17 1_555 1_555
O4_14 In10_15 1_555 1_555
O5_14 In10_15 1_555 1_555
O57_3 C12_14 1_555 1_555
C7_14 O4_14 1_555 1_555
C8_14 C9_14 1_555 1_555
C9_14 C7_14 1_555 1_555
C10_14 C9_14 1_555 1_555
C11_14 C10_14 1_555 1_555
C12_14 C11_14 1_555 1_555
O11_14 Cd4_8 1_555 1_555
O12_14 Cd4_8 1_555 1_555
In8_26 O17_14 1_555 1_555
In13_17 O54_18 1_555 1_555
Cd5_12 O28_18 1_555 1_555
Cd5_14 O29_14 1_555 1_555
O14_18 In10_15 1_555 1_555
O18_12 C18_18 1_555 1_555
O19_8 C19_14 1_555 1_555
O17_14 C20_14 1_555 1_555
O18_14 In7_4 1_555 1_555
O21_18 In10_15 1_555 1_555
O24_14 In8_26 1_555 1_555
O25_14 In7_4 1_555 1_555
O28_18 C35_18 1_555 1_555
O29_14 C35_18 1_555 1_555
O30_14 Cd4_8 1_555 1_555
O39_3 C37_14 1_555 1_555
O35_18 In10_15 1_555 1_555
O40_7 C39_18 1_555 1_555
O44_18 In10_15 1_555 1_555
O52_14 C12_14 1_555 1_555
O57_17 C56_18 1_555 1_555
O54_18 C56_18 1_555 1_555
C17_18 O14_18 1_555 1_555
C18_18 O25_12 1_555 1_555
C19_14 O26_8 1_555 1_555
C20_14 O24_14 1_555 1_555
C21_18 C24_18 1_555 1_555
C22_14 C26_14 1_555 1_555
C24_18 C17_18 1_555 1_555
C25_18 C18_18 1_555 1_555
C26_14 C19_14 1_555 1_555
C27_14 C20_14 1_555 1_555
C29_18 C24_18 1_555 1_555
C30_18 C25_18 1_555 1_555
C31_14 C26_14 1_555 1_555
C32_14 C27_14 1_555 1_555
C33_18 C29_18 1_555 1_555
C34_14 C31_14 1_555 1_555
C35_18 C33_18 1_555 1_555
C36_14 O30_14 1_555 1_555
C37_14 O48_3 1_555 1_555
C38_18 O35_18 1_555 1_555
C39_18 O49_7 1_555 1_555
C42_18 C45_18 1_555 1_555
C44_14 C8_14 1_555 1_555
C45_18 C38_18 1_555 1_555
C46_18 C39_18 1_555 1_555
C49_14 C11_14 1_555 1_555
C50_18 C45_18 1_555 1_555
C51_18 C46_18 1_555 1_555
C54_18 C50_18 1_555 1_555
C56_18 C54_18 1_555 1_555
O71_26 In13_3 1_555 1_555
O74_18 Cd5_12 1_555 1_555
O75_14 Cd4_8 1_555 1_555
O78_18 Cd5_12 1_555 1_555
O79_18 Cd5_12 1_555 1_555
O5_14 C7_14 1_555 1_555
In13_3 O52_14 1_555 1_555
Cd5_14 O70_8 1_555 1_555
O21_18 C17_18 1_555 1_555
O32_8 C36_14 1_555 1_555
O44_18 C38_18 1_555 1_555
C21_18 C25_18 1_555 1_555
C22_14 C27_14 1_555 1_555
C30_18 C33_18 1_555 1_555
C32_14 C34_14 1_555 1_555
C34_14 C36_14 1_555 1_555
C37_14 C44_14 1_555 1_555
C42_18 C46_18 1_555 1_555
C44_14 C49_14 1_555 1_555
C51_18 C54_18 1_555 1_555
C10_14 H2_14 1_555 1_555
C8_14 H4_14 1_555 1_555
C30_18 H12_18 1_555 1_555
C29_18 H14_18 1_555 1_555
C21_18 H15_18 1_555 1_555
C32_14 H16_14 1_555 1_555
C31_14 H17_14 1_555 1_555
C22_14 H18_14 1_555 1_555
C51_18 H24_18 1_555 1_555
C49_14 H26_14 1_555 1_555
C42_18 H40_18 1_555 1_555
C50_18 H41_18 1_555 1_555
O57 C12_15 1_555 1_555
O52_15 C12_15 1_555 1_555
In13 O52_15 1_555 1_555
C49_15 H26_15 1_555 1_555
O4_15 In10_13 1_555 1_555
O5_15 In10_13 1_555 1_555
C7_15 O4_15 1_555 1_555
C8_15 C9_15 1_555 1_555
C9_15 C7_15 1_555 1_555
C10_15 C9_15 1_555 1_555
C11_15 C10_15 1_555 1_555
O11_15 Cd4_6 1_555 1_555
O12_15 Cd4_6 1_555 1_555
In13_18 O54_19 1_555 1_555
O14_19 In10_13 1_555 1_555
O18_10 C18_19 1_555 1_555
O21_19 In10_13 1_555 1_555
O30_15 Cd4_6 1_555 1_555
O35_19 In10_13 1_555 1_555
O40_6 C39_19 1_555 1_555
O44_19 In10_13 1_555 1_555
O57_18 C56_19 1_555 1_555
O54_19 C56_19 1_555 1_555
C17_19 O14_19 1_555 1_555
C18_19 O25_10 1_555 1_555
C21_19 C24_19 1_555 1_555
C24_19 C17_19 1_555 1_555
C25_19 C18_19 1_555 1_555
C29_19 C24_19 1_555 1_555
C30_19 C25_19 1_555 1_555
C33_19 C29_19 1_555 1_555
C36_15 O30_15 1_555 1_555
C37_15 O48 1_555 1_555
C38_19 O35_19 1_555 1_555
C39_19 O49_6 1_555 1_555
C42_19 C45_19 1_555 1_555
C44_15 C8_15 1_555 1_555
C45_19 C38_19 1_555 1_555
C46_19 C39_19 1_555 1_555
C50_19 C45_19 1_555 1_555
C51_19 C46_19 1_555 1_555
C54_19 C50_19 1_555 1_555
C56_19 C54_19 1_555 1_555
O75_15 Cd4_6 1_555 1_555
O5_15 C7_15 1_555 1_555
O21_19 C17_19 1_555 1_555
O32_6 C36_15 1_555 1_555
O44_19 C38_19 1_555 1_555
C21_19 C25_19 1_555 1_555
C30_19 C33_19 1_555 1_555
C37_15 C44_15 1_555 1_555
C42_19 C46_19 1_555 1_555
C51_19 C54_19 1_555 1_555
C10_15 H2_15 1_555 1_555
C8_15 H4_15 1_555 1_555
C30_19 H12_19 1_555 1_555
C29_19 H14_19 1_555 1_555
C21_19 H15_19 1_555 1_555
C51_19 H24_19 1_555 1_555
C42_19 H40_19 1_555 1_555
C50_19 H41_19 1_555 1_555
In8_28 O17_15 1_555 1_555
Cd5_10 O28_19 1_555 1_555
Cd5_15 O29_15 1_555 1_555
O19_6 C19_15 1_555 1_555
O17_15 C20_15 1_555 1_555
O18_15 In7_2 1_555 1_555
O24_15 In8_28 1_555 1_555
O25_15 In7_2 1_555 1_555
O28_19 C35_19 1_555 1_555
O29_15 C35_19 1_555 1_555
C19_15 O26_6 1_555 1_555
C20_15 O24_15 1_555 1_555
C22_15 C26_15 1_555 1_555
C26_15 C19_15 1_555 1_555
C27_15 C20_15 1_555 1_555
C31_15 C26_15 1_555 1_555
C32_15 C27_15 1_555 1_555
C34_15 C31_15 1_555 1_555
O74_19 Cd5_10 1_555 1_555
O78_19 Cd5_10 1_555 1_555
O79_19 Cd5_10 1_555 1_555
Cd5_15 O70_6 1_555 1_555
C22_15 C27_15 1_555 1_555
C32_15 C34_15 1_555 1_555
C32_15 H16_15 1_555 1_555
C31_15 H17_15 1_555 1_555
C22_15 H18_15 1_555 1_555
O11_16 Cd4_7 1_555 1_555
O12_16 Cd4_7 1_555 1_555
In8_29 O17_16 1_555 1_555
O19_7 C19_16 1_555 1_555
O17_16 C20_16 1_555 1_555
O24_16 In8_29 1_555 1_555
O30_16 Cd4_7 1_555 1_555
C19_16 O26_7 1_555 1_555
C20_16 O24_16 1_555 1_555
C22_16 C26_16 1_555 1_555
C26_16 C19_16 1_555 1_555
C27_16 C20_16 1_555 1_555
C31_16 C26_16 1_555 1_555
C32_16 C27_16 1_555 1_555
C34_16 C31_16 1_555 1_555
C36_16 O30_16 1_555 1_555
O75_16 Cd4_7 1_555 1_555
O32_7 C36_16 1_555 1_555
C22_16 C27_16 1_555 1_555
C32_16 C34_16 1_555 1_555
C34_16 C36_16 1_555 1_555
C32_16 H16_16 1_555 1_555
C31_16 H17_16 1_555 1_555
C22_16 H18_16 1_555 1_555
O4_16 In10_14 1_555 1_555
O5_16 In10_14 1_555 1_555
O57_4 C12_16 1_555 1_555
C7_16 O4_16 1_555 1_555
C8_16 C9_16 1_555 1_555
C9_16 C7_16 1_555 1_555
C10_16 C9_16 1_555 1_555
C11_16 C10_16 1_555 1_555
C12_16 C11_16 1_555 1_555
Cd5_11 O28_20 1_555 1_555
Cd5_16 O29_16 1_555 1_555
O14_20 In10_14 1_555 1_555
O18_11 C18_20 1_555 1_555
O18_16 In7_5 1_555 1_555
O21_20 In10_14 1_555 1_555
O25_16 In7_5 1_555 1_555
O28_20 C35_20 1_555 1_555
O29_16 C35_20 1_555 1_555
O39_4 C37_16 1_555 1_555
O35_20 In10_14 1_555 1_555
O44_20 In10_14 1_555 1_555
O52_16 C12_16 1_555 1_555
C17_20 O14_20 1_555 1_555
C18_20 O25_11 1_555 1_555
C21_20 C24_20 1_555 1_555
C24_20 C17_20 1_555 1_555
C25_20 C18_20 1_555 1_555
C29_20 C24_20 1_555 1_555
C30_20 C25_20 1_555 1_555
C33_20 C29_20 1_555 1_555
C35_20 C33_20 1_555 1_555
C37_16 O48_4 1_555 1_555
C38_20 O35_20 1_555 1_555
C39_20 O49_5 1_555 1_555
C42_20 C45_20 1_555 1_555
C44_16 C8_16 1_555 1_555
C45_20 C38_20 1_555 1_555
C46_20 C39_20 1_555 1_555
C49_16 C11_16 1_555 1_555
C50_20 C45_20 1_555 1_555
C54_20 C50_20 1_555 1_555
O71_28 In13_4 1_555 1_555
O74_20 Cd5_11 1_555 1_555
O78_20 Cd5_11 1_555 1_555
O79_20 Cd5_11 1_555 1_555
O5_16 C7_16 1_555 1_555
In13_4 O52_16 1_555 1_555
Cd5_16 O70_7 1_555 1_555
O21_20 C17_20 1_555 1_555
O44_20 C38_20 1_555 1_555
C21_20 C25_20 1_555 1_555
C30_20 C33_20 1_555 1_555
C37_16 C44_16 1_555 1_555
C42_20 C46_20 1_555 1_555
C44_16 C49_16 1_555 1_555
C10_16 H2_16 1_555 1_555
C8_16 H4_16 1_555 1_555
C30_20 H12_20 1_555 1_555
C29_20 H14_20 1_555 1_555
C21_20 H15_20 1_555 1_555
C49_16 H26_16 1_555 1_555
C42_20 H40_20 1_555 1_555
C50_20 H41_20 1_555 1_555
In13_19 O54_20 1_555 1_555
O57_19 C56_20 1_555 1_555
O54_20 C56_20 1_555 1_555
C51_20 H24_20 1_555 1_555
In14_5 O6_13 1_555 1_555
O4_17 In8_27 1_555 1_555
O5_17 In8_27 1_555 1_555
O6_13 C12_17 1_555 1_555
O7_13 In14_5 1_555 1_555
C7_17 O4_17 1_555 1_555
C8_17 C9_17 1_555 1_555
C9_17 C7_17 1_555 1_555
C10_17 C9_17 1_555 1_555
C11_17 C10_17 1_555 1_555
C12_17 C11_17 1_555 1_555
O10_17 In14_5 1_555 1_555
In5_16 O34_13 1_555 1_555
In8_17 O38_29 1_555 1_555
In15_4 O7_13 1_555 1_555
In14_4 O7_13 1_555 1_555
O14_21 In8_27 1_555 1_555
O18_13 C18_21 1_555 1_555
O21_21 In8_27 1_555 1_555
O34_13 C37_17 1_555 1_555
O43_13 In5_16 1_555 1_555
O52_17 C12_17 1_555 1_555
O55_17 In14_5 1_555 1_555
O56_25 In14_4 1_555 1_555
O57_25 In15_4 1_555 1_555
O58_17 In13_22 1_555 1_555
O68_13 In13_22 1_555 1_555
C17_21 O14_21 1_555 1_555
C18_21 O25_13 1_555 1_555
C21_21 C24_21 1_555 1_555
C24_21 C17_21 1_555 1_555
C25_21 C18_21 1_555 1_555
C29_21 C24_21 1_555 1_555
C30_21 C25_21 1_555 1_555
C33_21 C29_21 1_555 1_555
C37_17 O43_13 1_555 1_555
C44_17 C8_17 1_555 1_555
C49_17 C11_17 1_555 1_555
C57_29 O55_17 1_555 1_555
O71_29 In15_4 1_555 1_555
O72_17 In13_22 1_555 1_555
O5_17 C7_17 1_555 1_555
In15_4 O52_17 1_555 1_555
O21_21 C17_21 1_555 1_555
O56_25 C57_29 1_555 1_555
C21_21 C25_21 1_555 1_555
C30_21 C33_21 1_555 1_555
C37_17 C44_17 1_555 1_555
C44_17 C49_17 1_555 1_555
C10_17 H2_17 1_555 1_555
C8_17 H4_17 1_555 1_555
C30_21 H12_21 1_555 1_555
C29_21 H14_21 1_555 1_555
C21_21 H15_21 1_555 1_555
C53_29 H21_29 1_555 1_555
C49_17 H26_17 1_555 1_555
In6_7 O37_25 1_555 1_555
Cd5_13 O28_21 1_555 1_555
O28_21 C35_21 1_555 1_555
O33_5 C35_21 1_555 1_555
O37_25 C40_29 1_555 1_555
O46_25 In6_7 1_555 1_555
O47_29 In8_18 1_555 1_555
C40_29 O46_25 1_555 1_555
C41_29 O47_29 1_555 1_555
C43_29 C47_29 1_555 1_555
C47_29 C40_29 1_555 1_555
C48_29 C41_29 1_555 1_555
C52_29 C47_29 1_555 1_555
C55_29 C52_29 1_555 1_555
O74_21 Cd5_13 1_555 1_555
O78_21 Cd5_13 1_555 1_555
O79_21 Cd5_13 1_555 1_555
C43_29 C48_29 1_555 1_555
C52_29 H19_29 1_555 1_555
C43_29 H35_29 1_555 1_555
In14_8 O6_14 1_555 1_555
O4_18 In8_29 1_555 1_555
O6_14 C12_18 1_555 1_555
O7_14 In14_8 1_555 1_555
In6_9 O37_26 1_555 1_555
In15_2 O7_14 1_555 1_555
In14_2 O7_14 1_555 1_555
O52_18 C12_18 1_555 1_555
O55_18 In14_8 1_555 1_555
O56_26 In14_2 1_555 1_555
O57_26 In15_2 1_555 1_555
C57_30 O55_18 1_555 1_555
O71_30 In15_2 1_555 1_555
In15_2 O52_18 1_555 1_555
O56_26 C57_30 1_555 1_555
C10_18 H2_18 1_555 1_555
C52_30 H19_30 1_555 1_555
O5_18 In8_30 1_555 1_555
C8_18 C9_18 1_555 1_555
C9_18 C7_18 1_555 1_555
In5_17 O34_14 1_555 1_555
In8_19 O38_30 1_555 1_555
Cd5_16 O28_22 1_555 1_555
O14_22 In8_30 1_555 1_555
O18_16 C18_22 1_555 1_555
O21_22 In8_30 1_555 1_555
O28_22 C35_22 1_555 1_555
O33_7 C35_22 1_555 1_555
O34_14 C37_18 1_555 1_555
O38_30 C41_30 1_555 1_555
O43_14 In5_17 1_555 1_555
O46_26 In6_10 1_555 1_555
O47_30 In8_19 1_555 1_555
C17_22 O14_22 1_555 1_555
C18_22 O25_16 1_555 1_555
C21_22 C24_22 1_555 1_555
C24_22 C17_22 1_555 1_555
C25_22 C18_22 1_555 1_555
C29_22 C24_22 1_555 1_555
C30_22 C25_22 1_555 1_555
C33_22 C29_22 1_555 1_555
C35_22 C33_22 1_555 1_555
C37_18 O43_14 1_555 1_555
C40_30 O46_26 1_555 1_555
C41_30 O47_30 1_555 1_555
C43_30 C47_30 1_555 1_555
C44_18 C8_18 1_555 1_555
C47_30 C40_30 1_555 1_555
C48_30 C41_30 1_555 1_555
C49_18 C11_18 1_555 1_555
C53_30 C48_30 1_555 1_555
O74_22 Cd5_16 1_555 1_555
O78_22 Cd5_16 1_555 1_555
O79_22 Cd5_16 1_555 1_555
O5_18 C7_18 1_555 1_555
O21_22 C17_22 1_555 1_555
C21_22 C25_22 1_555 1_555
C30_22 C33_22 1_555 1_555
C37_18 C44_18 1_555 1_555
C43_30 C48_30 1_555 1_555
C44_18 C49_18 1_555 1_555
C53_30 C55_30 1_555 1_555
C8_18 H4_18 1_555 1_555
C30_22 H12_22 1_555 1_555
C29_22 H14_22 1_555 1_555
C21_22 H15_22 1_555 1_555
C53_30 H21_30 1_555 1_555
C49_18 H26_18 1_555 1_555
C43_30 H35_30 1_555 1_555
O58_18 In13_24 1_555 1_555
O68_14 In13_24 1_555 1_555
In14_6 O6_15 1_555 1_555
O6_15 C12_19 1_555 1_555
O7_15 In14_6 1_555 1_555
O10_19 In14_6 1_555 1_555
In5_18 O34_15 1_555 1_555
In6_8 O37_27 1_555 1_555
In8_20 O38_31 1_555 1_555
In15 O7_15 1_555 1_555
In14 O7_15 1_555 1_555
O37_27 C40_31 1_555 1_555
O38_31 C41_31 1_555 1_555
O46_27 In6_8 1_555 1_555
O47_31 In8_20 1_555 1_555
O52_19 C12_19 1_555 1_555
O55_19 In14_6 1_555 1_555
O56_27 In14 1_555 1_555
O57_27 In15 1_555 1_555
C40_31 O46_27 1_555 1_555
C41_31 O47_31 1_555 1_555
C43_31 C47_31 1_555 1_555
C47_31 C40_31 1_555 1_555
C48_31 C41_31 1_555 1_555
C52_31 C47_31 1_555 1_555
C53_31 C48_31 1_555 1_555
C55_31 C52_31 1_555 1_555
C57_31 O55_19 1_555 1_555
In15 O52_19 1_555 1_555
O56_27 C57_31 1_555 1_555
C43_31 C48_31 1_555 1_555
C53_31 C55_31 1_555 1_555
C55_31 C57_31 1_555 1_555
C52_31 H19_31 1_555 1_555
C53_31 H21_31 1_555 1_555
C49_19 H26_19 1_555 1_555
C43_31 H35_31 1_555 1_555
O4_19 In8_26 1_555 1_555
O5_19 In8_26 1_555 1_555
C7_19 O4_19 1_555 1_555
C8_19 C9_19 1_555 1_555
C9_19 C7_19 1_555 1_555
C10_19 C9_19 1_555 1_555
C11_19 C10_19 1_555 1_555
Cd5_14 O28_23 1_555 1_555
O14_23 In8_26 1_555 1_555
O18_14 C18_23 1_555 1_555
O21_23 In8_26 1_555 1_555
O28_23 C35_23 1_555 1_555
O33_8 C35_23 1_555 1_555
O43_15 In5_19 1_555 1_555
O58_19 In13_21 1_555 1_555
O68_15 In13_21 1_555 1_555
C17_23 O14_23 1_555 1_555
C18_23 O25_14 1_555 1_555
C21_23 C24_23 1_555 1_555
C24_23 C17_23 1_555 1_555
C25_23 C18_23 1_555 1_555
C29_23 C24_23 1_555 1_555
C30_23 C25_23 1_555 1_555
C33_23 C29_23 1_555 1_555
C35_23 C33_23 1_555 1_555
C37_19 O43_15 1_555 1_555
C44_19 C8_19 1_555 1_555
O72_19 In13_21 1_555 1_555
O74_23 Cd5_14 1_555 1_555
O78_23 Cd5_14 1_555 1_555
O79_23 Cd5_14 1_555 1_555
O5_19 C7_19 1_555 1_555
O21_23 C17_23 1_555 1_555
C21_23 C25_23 1_555 1_555
C30_23 C33_23 1_555 1_555
C37_19 C44_19 1_555 1_555
C10_19 H2_19 1_555 1_555
C8_19 H4_19 1_555 1_555
C30_23 H12_23 1_555 1_555
C29_23 H14_23 1_555 1_555
C21_23 H15_23 1_555 1_555
In14_7 O6_16 1_555 1_555
O4_20 In8_28 1_555 1_555
O5_20 In8_28 1_555 1_555
O6_16 C12_20 1_555 1_555
O7_16 In14_7 1_555 1_555
C7_20 O4_20 1_555 1_555
C8_20 C9_20 1_555 1_555
C9_20 C7_20 1_555 1_555
C10_20 C9_20 1_555 1_555
C11_20 C10_20 1_555 1_555
C12_20 C11_20 1_555 1_555
O10_20 In14_7 1_555 1_555
In5_20 O34_16 1_555 1_555
In6_6 O37_28 1_555 1_555
In8_16 O38_32 1_555 1_555
In15_3 O7_16 1_555 1_555
In14_3 O7_16 1_555 1_555
Cd5_15 O28_24 1_555 1_555
O14_24 In8_28 1_555 1_555
O18_15 C18_24 1_555 1_555
O21_24 In8_28 1_555 1_555
O28_24 C35_24 1_555 1_555
O33_6 C35_24 1_555 1_555
O34_16 C37_20 1_555 1_555
O37_28 C40_32 1_555 1_555
O38_32 C41_32 1_555 1_555
O43_16 In5_20 1_555 1_555
O46_28 In6_6 1_555 1_555
O47_32 In8_16 1_555 1_555
O52_20 C12_20 1_555 1_555
O55_20 In14_7 1_555 1_555
O56_28 In14_3 1_555 1_555
O57_28 In15_3 1_555 1_555
O58_20 In13_23 1_555 1_555
O68_16 In13_23 1_555 1_555
C17_24 O14_24 1_555 1_555
C18_24 O25_15 1_555 1_555
C21_24 C24_24 1_555 1_555
C24_24 C17_24 1_555 1_555
C25_24 C18_24 1_555 1_555
C29_24 C24_24 1_555 1_555
C30_24 C25_24 1_555 1_555
C33_24 C29_24 1_555 1_555
C35_24 C33_24 1_555 1_555
C37_20 O43_16 1_555 1_555
C40_32 O46_28 1_555 1_555
C41_32 O47_32 1_555 1_555
C43_32 C47_32 1_555 1_555
C44_20 C8_20 1_555 1_555
C47_32 C40_32 1_555 1_555
C48_32 C41_32 1_555 1_555
C49_20 C11_20 1_555 1_555
C52_32 C47_32 1_555 1_555
C53_32 C48_32 1_555 1_555
C55_32 C52_32 1_555 1_555
C57_32 O55_20 1_555 1_555
O71_32 In15_3 1_555 1_555
O72_20 In13_23 1_555 1_555
O74_24 Cd5_15 1_555 1_555
O78_24 Cd5_15 1_555 1_555
O79_24 Cd5_15 1_555 1_555
O5_20 C7_20 1_555 1_555
In15_3 O52_20 1_555 1_555
O21_24 C17_24 1_555 1_555
O56_28 C57_32 1_555 1_555
C21_24 C25_24 1_555 1_555
C30_24 C33_24 1_555 1_555
C37_20 C44_20 1_555 1_555
C43_32 C48_32 1_555 1_555
C44_20 C49_20 1_555 1_555
C53_32 C55_32 1_555 1_555
C55_32 C57_32 1_555 1_555
C10_20 H2_20 1_555 1_555
C8_20 H4_20 1_555 1_555
C30_24 H12_24 1_555 1_555
C29_24 H14_24 1_555 1_555
C21_24 H15_24 1_555 1_555
C52_32 H19_32 1_555 1_555
C53_32 H21_32 1_555 1_555
C49_20 H26_20 1_555 1_555
C43_32 H35_32 1_555 1_555
In8_15 O38_33 1_555 1_555
O38_33 C41_33 1_555 1_555
O46_29 In5_18 1_555 1_555
O47_33 In8_15 1_555 1_555
C40_33 O46_29 1_555 1_555
C41_33 O47_33 1_555 1_555
C43_33 C47_33 1_555 1_555
C47_33 C40_33 1_555 1_555
C48_33 C41_33 1_555 1_555
C53_33 C48_33 1_555 1_555
C43_33 C48_33 1_555 1_555
C53_33 C55_33 1_555 1_555
C53_33 H21_33 1_555 1_555
C43_33 H35_33 1_555 1_555
In5_19 O37_29 1_555 1_555
In14_16 O59_14 1_555 1_555
O56_29 In14_16 1_555 1_555
O57_29 In14_10 1_555 1_555
C57_33 O58_14 1_555 1_555
O71_33 In14_10 1_555 1_555
O56_29 C57_33 1_555 1_555
C52_33 H19_33 1_555 1_555
In5_17 O37_30 1_555 1_555
O37_30 C40_34 1_555 1_555
O46_30 In5_17 1_555 1_555
O47_34 In8_11 1_555 1_555
C40_34 O46_30 1_555 1_555
C41_34 O47_34 1_555 1_555
C43_34 C47_34 1_555 1_555
C47_34 C40_34 1_555 1_555
C48_34 C41_34 1_555 1_555
C52_34 C47_34 1_555 1_555
C55_34 C52_34 1_555 1_555
C43_34 C48_34 1_555 1_555
C52_34 H19_34 1_555 1_555
C43_34 H35_34 1_555 1_555
In8_12 O38_34 1_555 1_555
In14_14 O59_13 1_555 1_555
O56_30 In14_14 1_555 1_555
O57_30 In14_9 1_555 1_555
C57_34 O58_13 1_555 1_555
O71_34 In14_9 1_555 1_555
O56_30 C57_34 1_555 1_555
C53_34 H21_34 1_555 1_555
In5_16 O37_31 1_555 1_555
In8_13 O38_35 1_555 1_555
In14_13 O59_15 1_555 1_555
O37_31 C40_35 1_555 1_555
O38_35 C41_35 1_555 1_555
O46_31 In5_16 1_555 1_555
O47_35 In8_13 1_555 1_555
O56_31 In14_13 1_555 1_555
O57_31 In14_12 1_555 1_555
C40_35 O46_31 1_555 1_555
C41_35 O47_35 1_555 1_555
C43_35 C47_35 1_555 1_555
C47_35 C40_35 1_555 1_555
C48_35 C41_35 1_555 1_555
C52_35 C47_35 1_555 1_555
C53_35 C48_35 1_555 1_555
C55_35 C52_35 1_555 1_555
C57_35 O58_15 1_555 1_555
O71_35 In14_12 1_555 1_555
O56_31 C57_35 1_555 1_555
C43_35 C48_35 1_555 1_555
C53_35 C55_35 1_555 1_555
C55_35 C57_35 1_555 1_555
C52_35 H19_35 1_555 1_555
C53_35 H21_35 1_555 1_555
C43_35 H35_35 1_555 1_555
In5_20 O37_32 1_555 1_555
In8_14 O38_36 1_555 1_555
In14_15 O59_16 1_555 1_555
O37_32 C40_36 1_555 1_555
O38_36 C41_36 1_555 1_555
O46_32 In5_20 1_555 1_555
O47_36 In8_14 1_555 1_555
O56_32 In14_15 1_555 1_555
O57_32 In14_11 1_555 1_555
C40_36 O46_32 1_555 1_555
C41_36 O47_36 1_555 1_555
C43_36 C47_36 1_555 1_555
C47_36 C40_36 1_555 1_555
C48_36 C41_36 1_555 1_555
C52_36 C47_36 1_555 1_555
C53_36 C48_36 1_555 1_555
C55_36 C52_36 1_555 1_555
C57_36 O58_16 1_555 1_555
O56_32 C57_36 1_555 1_555
C43_36 C48_36 1_555 1_555
C53_36 C55_36 1_555 1_555
C55_36 C57_36 1_555 1_555
C52_36 H19_36 1_555 1_555
C53_36 H21_36 1_555 1_555
C43_36 H35_36 1_555 1_555
O40_4 C40_37 1_555 1_555
O47_37 In8_36 1_555 1_555
C40_37 O49_4 1_555 1_555
C41_37 O47_37 1_555 1_555
C43_37 C47_37 1_555 1_555
C47_37 C40_37 1_555 1_555
C48_37 C41_37 1_555 1_555
C52_37 C47_37 1_555 1_555
C55_37 C52_37 1_555 1_555
C43_37 C48_37 1_555 1_555
C52_37 H19_37 1_555 1_555
C43_37 H35_37 1_555 1_555
C13_29 O68_16 1_555 1_555
C14_29 C13_29 1_555 1_555
C15_29 C14_29 1_555 1_555
In8_37 O38_37 1_555 1_555
In13_15 O61_29 1_555 1_555
In13_19 O63_21 1_555 1_555
O66_23 C13_29 1_555 1_555
O61_29 C58_29 1_555 1_555
O66_15 C58_29 1_555 1_555
O63_21 C59_29 1_555 1_555
O66_19 C59_29 1_555 1_555
C57_37 O58_20 1_555 1_555
C58_29 C60_29 1_555 1_555
C59_29 C61_29 1_555 1_555
C60_29 C15_29 1_555 1_555
C61_29 C62_29 1_555 1_555
C62_29 C60_29 1_555 1_555
C63_29 C14_29 1_555 1_555
O57_23 C57_37 1_555 1_555
C61_29 C63_29 1_555 1_555
C15_29 H5_29 1_555 1_555
C63_29 H20_29 1_555 1_555
C53_37 H21_37 1_555 1_555
C62_29 H25_29 1_555 1_555
C13_30 O68_15 1_555 1_555
C14_30 C13_30 1_555 1_555
C15_30 C14_30 1_555 1_555
In8_38 O38_38 1_555 1_555
In13_14 O61_30 1_555 1_555
In13_20 O63_22 1_555 1_555
O40_2 C40_38 1_555 1_555
O38_38 C41_38 1_555 1_555
O47_38 In8_38 1_555 1_555
O66_21 C13_30 1_555 1_555
O61_30 C58_30 1_555 1_555
O66_14 C58_30 1_555 1_555
O63_22 C59_30 1_555 1_555
O66_20 C59_30 1_555 1_555
C40_38 O49_2 1_555 1_555
C41_38 O47_38 1_555 1_555
C43_38 C47_38 1_555 1_555
C47_38 C40_38 1_555 1_555
C48_38 C41_38 1_555 1_555
C52_38 C47_38 1_555 1_555
C53_38 C48_38 1_555 1_555
C55_38 C52_38 1_555 1_555
C57_38 O58_19 1_555 1_555
C58_30 C60_30 1_555 1_555
C59_30 C61_30 1_555 1_555
C60_30 C15_30 1_555 1_555
C61_30 C62_30 1_555 1_555
C62_30 C60_30 1_555 1_555
C63_30 C14_30 1_555 1_555
O57_21 C57_38 1_555 1_555
C43_38 C48_38 1_555 1_555
C53_38 C55_38 1_555 1_555
C55_38 C57_38 1_555 1_555
C61_30 C63_30 1_555 1_555
C15_30 H5_30 1_555 1_555
C52_38 H19_38 1_555 1_555
C63_30 H20_30 1_555 1_555
C53_38 H21_38 1_555 1_555
C62_30 H25_30 1_555 1_555
C43_38 H35_38 1_555 1_555
C13_31 O68_13 1_555 1_555
C14_31 C13_31 1_555 1_555
C15_31 C14_31 1_555 1_555
In8_39 O38_39 1_555 1_555
In13_16 O61_31 1_555 1_555
In13_17 O63_23 1_555 1_555
O40_3 C40_39 1_555 1_555
O38_39 C41_39 1_555 1_555
O47_39 In8_39 1_555 1_555
O66_22 C13_31 1_555 1_555
O61_31 C58_31 1_555 1_555
O66_16 C58_31 1_555 1_555
O63_23 C59_31 1_555 1_555
O66_17 C59_31 1_555 1_555
C40_39 O49_3 1_555 1_555
C41_39 O47_39 1_555 1_555
C43_39 C47_39 1_555 1_555
C47_39 C40_39 1_555 1_555
C48_39 C41_39 1_555 1_555
C52_39 C47_39 1_555 1_555
C53_39 C48_39 1_555 1_555
C55_39 C52_39 1_555 1_555
C57_39 O58_17 1_555 1_555
C58_31 C60_31 1_555 1_555
C59_31 C61_31 1_555 1_555
C60_31 C15_31 1_555 1_555
C61_31 C62_31 1_555 1_555
C62_31 C60_31 1_555 1_555
C63_31 C14_31 1_555 1_555
O57_22 C57_39 1_555 1_555
C43_39 C48_39 1_555 1_555
C53_39 C55_39 1_555 1_555
C55_39 C57_39 1_555 1_555
C61_31 C63_31 1_555 1_555
C15_31 H5_31 1_555 1_555
C52_39 H19_39 1_555 1_555
C63_31 H20_31 1_555 1_555
C53_39 H21_39 1_555 1_555
C62_31 H25_31 1_555 1_555
C43_39 H35_39 1_555 1_555
In8_40 O38_40 1_555 1_555
O38_40 C41_40 1_555 1_555
O47_40 In8_40 1_555 1_555
C40_40 O49 1_555 1_555
C41_40 O47_40 1_555 1_555
C43_40 C47_40 1_555 1_555
C47_40 C40_40 1_555 1_555
C48_40 C41_40 1_555 1_555
C53_40 C48_40 1_555 1_555
C43_40 C48_40 1_555 1_555
C53_40 C55_40 1_555 1_555
C53_40 H21_40 1_555 1_555
C43_40 H35_40 1_555 1_555
C13_32 O68_14 1_555 1_555
C14_32 C13_32 1_555 1_555
C15_32 C14_32 1_555 1_555
In13_13 O61_32 1_555 1_555
In13_18 O63_24 1_555 1_555
O66_24 C13_32 1_555 1_555
O61_32 C58_32 1_555 1_555
O66_13 C58_32 1_555 1_555
O63_24 C59_32 1_555 1_555
O66_18 C59_32 1_555 1_555
C57_40 O58_18 1_555 1_555
C58_32 C60_32 1_555 1_555
C59_32 C61_32 1_555 1_555
C60_32 C15_32 1_555 1_555
C61_32 C62_32 1_555 1_555
C62_32 C60_32 1_555 1_555
C63_32 C14_32 1_555 1_555
O57_24 C57_40 1_555 1_555
C61_32 C63_32 1_555 1_555
C15_32 H5_32 1_555 1_555
C52_40 H19_40 1_555 1_555
C63_32 H20_32 1_555 1_555
C62_32 H25_32 1_555 1_555
O71_37 In13_18 1_555 1_555
O71_39 In13_17 1_555 1_555
O71_40 In13_20 1_555 1_555
In8_21 O1_9 1_555 1_555
Cd1_9 O3_9 1_555 1_555
O1_9 C1_9 1_555 1_555
O2_9 In8_21 1_555 1_555
O3_9 C6_9 1_555 1_555
O4_21 In8_21 1_555 1_555
O5_21 In8_21 1_555 1_555
O57_26 C12_21 1_555 1_555
O9_9 Cd1_9 1_555 1_555
C1_9 O2_9 1_555 1_555
C2_9 C3_9 1_555 1_555
C3_9 C1_9 1_555 1_555
C4_9 C3_9 1_555 1_555
C5_9 C4_9 1_555 1_555
C6_9 C5_9 1_555 1_555
C7_21 O4_21 1_555 1_555
C8_21 C9_21 1_555 1_555
C9_21 C7_21 1_555 1_555
C10_21 C9_21 1_555 1_555
C11_21 C10_21 1_555 1_555
C12_21 C11_21 1_555 1_555
O11_17 Cd1_9 1_555 1_555
O12_17 Cd1_9 1_555 1_555
In6_9 O13_9 1_555 1_555
In7_8 O15_9 1_555 1_555
Cd2_9 O9_9 1_555 1_555
Cd4_9 O9_9 1_555 1_555
O13_9 C16_9 1_555 1_555
O14_25 In8_21 1_555 1_555
O15_9 C18_25 1_555 1_555
O19_9 In7_8 1_555 1_555
O20_9 In6_9 1_555 1_555
O21_25 In8_21 1_555 1_555
O22_9 In7_8 1_555 1_555
O26_9 In7_8 1_555 1_555
O27_9 C6_9 1_555 1_555
O30_17 Cd1_9 1_555 1_555
O31_9 Cd4_9 1_555 1_555
O32_9 Cd2_9 1_555 1_555
O42_7 C37_21 1_555 1_555
O52_21 C12_21 1_555 1_555
C16_9 O20_9 1_555 1_555
C17_25 O14_25 1_555 1_555
C18_25 O22_9 1_555 1_555
C21_25 C24_25 1_555 1_555
C23_9 C2_9 1_555 1_555
C24_25 C17_25 1_555 1_555
C25_25 C18_25 1_555 1_555
C28_9 C5_9 1_555 1_555
C29_25 C24_25 1_555 1_555
C30_25 C25_25 1_555 1_555
C33_25 C29_25 1_555 1_555
C36_17 O30_17 1_555 1_555
C37_21 O51_7 1_555 1_555
C44_21 C8_21 1_555 1_555
C49_21 C11_21 1_555 1_555
O71_41 In14_2 1_555 1_555
O73_9 Cd2_9 1_555 1_555
O75_17 Cd1_9 1_555 1_555
O76_9 Cd2_9 1_555 1_555
O77_9 Cd2_9 1_555 1_555
O5_21 C7_21 1_555 1_555
In14_2 O52_21 1_555 1_555
Cd2_9 O27_9 1_555 1_555
O21_25 C17_25 1_555 1_555
O31_9 C36_17 1_555 1_555
C16_9 C23_9 1_555 1_555
C21_25 C25_25 1_555 1_555
C23_9 C28_9 1_555 1_555
C30_25 C33_25 1_555 1_555
C37_21 C44_21 1_555 1_555
C44_21 C49_21 1_555 1_555
C2_9 H1_9 1_555 1_555
C10_21 H2_21 1_555 1_555
C4_9 H3_9 1_555 1_555
C8_21 H4_21 1_555 1_555
C30_25 H12_25 1_555 1_555
C28_9 H13_9 1_555 1_555
C29_25 H14_25 1_555 1_555
C21_25 H15_25 1_555 1_555
C49_21 H26_21 1_555 1_555
In5_14 O16_9 1_555 1_555
In8_14 O17_17 1_555 1_555
Cd3_9 O28_25 1_555 1_555
Cd5_17 O29_17 1_555 1_555
O16_9 C19_17 1_555 1_555
O17_17 C20_17 1_555 1_555
O18_17 In6_10 1_555 1_555
O23_9 In5_14 1_555 1_555
O24_17 In8_14 1_555 1_555
O25_17 In6_10 1_555 1_555
O28_25 C35_25 1_555 1_555
O29_17 C35_25 1_555 1_555
O33_9 Cd3_9 1_555 1_555
O70_9 Cd3_9 1_555 1_555
C19_17 O23_9 1_555 1_555
C20_17 O24_17 1_555 1_555
C22_17 C26_17 1_555 1_555
C26_17 C19_17 1_555 1_555
C27_17 C20_17 1_555 1_555
C31_17 C26_17 1_555 1_555
C32_17 C27_17 1_555 1_555
C34_17 C31_17 1_555 1_555
O74_25 Cd3_9 1_555 1_555
O78_25 Cd3_9 1_555 1_555
O79_25 Cd3_9 1_555 1_555
Cd5_17 O70_9 1_555 1_555
C22_17 C27_17 1_555 1_555
C32_17 C34_17 1_555 1_555
C32_17 H16_17 1_555 1_555
C31_17 H17_17 1_555 1_555
C22_17 H18_17 1_555 1_555
In8_23 O1_10 1_555 1_555
Cd1_10 O3_10 1_555 1_555
O1_10 C1_10 1_555 1_555
O2_10 In8_23 1_555 1_555
O3_10 C6_10 1_555 1_555
O4_22 In8_23 1_555 1_555
O57_27 C12_22 1_555 1_555
O9_10 Cd1_10 1_555 1_555
C1_10 O2_10 1_555 1_555
C2_10 C3_10 1_555 1_555
C3_10 C1_10 1_555 1_555
C4_10 C3_10 1_555 1_555
C5_10 C4_10 1_555 1_555
C6_10 C5_10 1_555 1_555
O11_18 Cd1_10 1_555 1_555
O12_18 Cd1_10 1_555 1_555
In6_8 O13_10 1_555 1_555
In5_12 O16_10 1_555 1_555
In8_13 O17_18 1_555 1_555
Cd2_10 O9_10 1_555 1_555
Cd4_10 O9_10 1_555 1_555
O13_10 C16_10 1_555 1_555
O16_10 C19_18 1_555 1_555
O17_18 C20_18 1_555 1_555
O18_18 In6_8 1_555 1_555
O20_10 In6_8 1_555 1_555
O23_10 In5_12 1_555 1_555
O24_18 In8_13 1_555 1_555
O25_18 In6_8 1_555 1_555
O27_10 C6_10 1_555 1_555
O30_18 Cd1_10 1_555 1_555
O31_10 Cd4_10 1_555 1_555
O32_10 Cd2_10 1_555 1_555
O52_22 C12_22 1_555 1_555
C16_10 O20_10 1_555 1_555
C19_18 O23_10 1_555 1_555
C20_18 O24_18 1_555 1_555
C22_18 C26_18 1_555 1_555
C23_10 C2_10 1_555 1_555
C26_18 C19_18 1_555 1_555
C27_18 C20_18 1_555 1_555
C28_10 C5_10 1_555 1_555
C31_18 C26_18 1_555 1_555
C32_18 C27_18 1_555 1_555
C34_18 C31_18 1_555 1_555
C36_18 O30_18 1_555 1_555
O71_42 In14 1_555 1_555
O73_10 Cd2_10 1_555 1_555
O75_18 Cd1_10 1_555 1_555
O76_10 Cd2_10 1_555 1_555
O77_10 Cd2_10 1_555 1_555
In14 O52_22 1_555 1_555
Cd2_10 O27_10 1_555 1_555
O31_10 C36_18 1_555 1_555
C16_10 C23_10 1_555 1_555
C22_18 C27_18 1_555 1_555
C23_10 C28_10 1_555 1_555
C32_18 C34_18 1_555 1_555
C34_18 C36_18 1_555 1_555
C2_10 H1_10 1_555 1_555
C10_22 H2_22 1_555 1_555
C4_10 H3_10 1_555 1_555
C28_10 H13_10 1_555 1_555
C32_18 H16_18 1_555 1_555
C31_18 H17_18 1_555 1_555
C22_18 H18_18 1_555 1_555
O5_22 In8_24 1_555 1_555
C8_22 C9_22 1_555 1_555
C9_22 C7_22 1_555 1_555
In7_10 O15_10 1_555 1_555
Cd3_10 O28_26 1_555 1_555
Cd5_18 O29_18 1_555 1_555
O14_26 In8_24 1_555 1_555
O15_10 C18_26 1_555 1_555
O19_10 In7_10 1_555 1_555
O21_26 In8_24 1_555 1_555
O22_10 In7_10 1_555 1_555
O26_10 In7_10 1_555 1_555
O28_26 C35_26 1_555 1_555
O29_18 C35_26 1_555 1_555
O33_10 Cd3_10 1_555 1_555
O42_8 C37_22 1_555 1_555
O70_10 Cd3_10 1_555 1_555
C17_26 O14_26 1_555 1_555
C18_26 O22_10 1_555 1_555
C21_26 C24_26 1_555 1_555
C24_26 C17_26 1_555 1_555
C25_26 C18_26 1_555 1_555
C29_26 C24_26 1_555 1_555
C30_26 C25_26 1_555 1_555
C33_26 C29_26 1_555 1_555
C35_26 C33_26 1_555 1_555
C37_22 O51_8 1_555 1_555
C44_22 C8_22 1_555 1_555
C49_22 C11_22 1_555 1_555
O74_26 Cd3_10 1_555 1_555
O78_26 Cd3_10 1_555 1_555
O79_26 Cd3_10 1_555 1_555
O5_22 C7_22 1_555 1_555
Cd5_18 O70_10 1_555 1_555
O21_26 C17_26 1_555 1_555
C21_26 C25_26 1_555 1_555
C30_26 C33_26 1_555 1_555
C37_22 C44_22 1_555 1_555
C44_22 C49_22 1_555 1_555
C8_22 H4_22 1_555 1_555
C30_26 H12_26 1_555 1_555
C29_26 H14_26 1_555 1_555
C21_26 H15_26 1_555 1_555
C49_22 H26_22 1_555 1_555
O57_25 C12_23 1_555 1_555
O52_23 C12_23 1_555 1_555
In14_4 O52_23 1_555 1_555
C49_23 H26_23 1_555 1_555
In8_22 O1_11 1_555 1_555
Cd1_11 O3_11 1_555 1_555
O1_11 C1_11 1_555 1_555
O2_11 In8_22 1_555 1_555
O3_11 C6_11 1_555 1_555
O4_23 In8_22 1_555 1_555
O5_23 In8_22 1_555 1_555
O9_11 Cd1_11 1_555 1_555
C1_11 O2_11 1_555 1_555
C2_11 C3_11 1_555 1_555
C3_11 C1_11 1_555 1_555
C4_11 C3_11 1_555 1_555
C5_11 C4_11 1_555 1_555
C6_11 C5_11 1_555 1_555
C7_23 O4_23 1_555 1_555
C8_23 C9_23 1_555 1_555
C9_23 C7_23 1_555 1_555
C10_23 C9_23 1_555 1_555
C11_23 C10_23 1_555 1_555
O11_19 Cd1_11 1_555 1_555
O12_19 Cd1_11 1_555 1_555
In6_7 O13_11 1_555 1_555
In7_9 O15_11 1_555 1_555
In5_15 O16_11 1_555 1_555
In8_15 O17_19 1_555 1_555
Cd2_11 O9_11 1_555 1_555
Cd3_11 O28_27 1_555 1_555
Cd4_11 O9_11 1_555 1_555
Cd5_19 O29_19 1_555 1_555
O13_11 C16_11 1_555 1_555
O14_27 In8_22 1_555 1_555
O15_11 C18_27 1_555 1_555
O16_11 C19_19 1_555 1_555
O17_19 C20_19 1_555 1_555
O18_19 In6_7 1_555 1_555
O19_11 In7_9 1_555 1_555
O20_11 In6_7 1_555 1_555
O21_27 In8_22 1_555 1_555
O22_11 In7_9 1_555 1_555
O23_11 In5_15 1_555 1_555
O24_19 In8_15 1_555 1_555
O25_19 In6_7 1_555 1_555
O26_11 In7_9 1_555 1_555
O27_11 C6_11 1_555 1_555
O28_27 C35_27 1_555 1_555
O29_19 C35_27 1_555 1_555
O30_19 Cd1_11 1_555 1_555
O31_11 Cd4_11 1_555 1_555
O32_11 Cd2_11 1_555 1_555
O33_11 Cd3_11 1_555 1_555
O70_11 Cd3_11 1_555 1_555
C16_11 O20_11 1_555 1_555
C17_27 O14_27 1_555 1_555
C18_27 O22_11 1_555 1_555
C19_19 O23_11 1_555 1_555
C20_19 O24_19 1_555 1_555
C21_27 C24_27 1_555 1_555
C22_19 C26_19 1_555 1_555
C23_11 C2_11 1_555 1_555
C24_27 C17_27 1_555 1_555
C25_27 C18_27 1_555 1_555
C26_19 C19_19 1_555 1_555
C27_19 C20_19 1_555 1_555
C28_11 C5_11 1_555 1_555
C29_27 C24_27 1_555 1_555
C30_27 C25_27 1_555 1_555
C31_19 C26_19 1_555 1_555
C32_19 C27_19 1_555 1_555
C33_27 C29_27 1_555 1_555
C34_19 C31_19 1_555 1_555
C35_27 C33_27 1_555 1_555
C36_19 O30_19 1_555 1_555
C37_23 O51_5 1_555 1_555
C44_23 C8_23 1_555 1_555
O73_11 Cd2_11 1_555 1_555
O74_27 Cd3_11 1_555 1_555
O75_19 Cd1_11 1_555 1_555
O76_11 Cd2_11 1_555 1_555
O77_11 Cd2_11 1_555 1_555
O78_27 Cd3_11 1_555 1_555
O79_27 Cd3_11 1_555 1_555
O5_23 C7_23 1_555 1_555
Cd2_11 O27_11 1_555 1_555
Cd5_19 O70_11 1_555 1_555
O21_27 C17_27 1_555 1_555
O31_11 C36_19 1_555 1_555
C16_11 C23_11 1_555 1_555
C21_27 C25_27 1_555 1_555
C22_19 C27_19 1_555 1_555
C23_11 C28_11 1_555 1_555
C30_27 C33_27 1_555 1_555
C32_19 C34_19 1_555 1_555
C34_19 C36_19 1_555 1_555
C37_23 C44_23 1_555 1_555
C2_11 H1_11 1_555 1_555
C10_23 H2_23 1_555 1_555
C4_11 H3_11 1_555 1_555
C8_23 H4_23 1_555 1_555
C30_27 H12_27 1_555 1_555
C28_11 H13_11 1_555 1_555
C29_27 H14_27 1_555 1_555
C21_27 H15_27 1_555 1_555
C32_19 H16_19 1_555 1_555
C31_19 H17_19 1_555 1_555
C22_19 H18_19 1_555 1_555
Cd1_12 O3_12 1_555 1_555
O3_12 C6_12 1_555 1_555
O9_12 Cd1_12 1_555 1_555
O11_20 Cd1_12 1_555 1_555
O12_20 Cd1_12 1_555 1_555
In5_11 O16_12 1_555 1_555
In8_11 O17_20 1_555 1_555
Cd2_12 O9_12 1_555 1_555
Cd4_12 O9_12 1_555 1_555
O16_12 C19_20 1_555 1_555
O17_20 C20_20 1_555 1_555
O19_12 In7_6 1_555 1_555
O23_12 In5_11 1_555 1_555
O24_20 In8_11 1_555 1_555
O26_12 In7_6 1_555 1_555
O27_12 C6_12 1_555 1_555
O30_20 Cd1_12 1_555 1_555
O31_12 Cd4_12 1_555 1_555
O32_12 Cd2_12 1_555 1_555
C19_20 O23_12 1_555 1_555
C20_20 O24_20 1_555 1_555
C22_20 C26_20 1_555 1_555
C26_20 C19_20 1_555 1_555
C27_20 C20_20 1_555 1_555
C31_20 C26_20 1_555 1_555
C32_20 C27_20 1_555 1_555
C34_20 C31_20 1_555 1_555
C36_20 O30_20 1_555 1_555
O73_12 Cd2_12 1_555 1_555
O75_20 Cd1_12 1_555 1_555
O76_12 Cd2_12 1_555 1_555
O77_12 Cd2_12 1_555 1_555
Cd2_12 O27_12 1_555 1_555
O31_12 C36_20 1_555 1_555
C22_20 C27_20 1_555 1_555
C32_20 C34_20 1_555 1_555
C34_20 C36_20 1_555 1_555
C32_20 H16_20 1_555 1_555
C31_20 H17_20 1_555 1_555
C22_20 H18_20 1_555 1_555
In8_25 O1_12 1_555 1_555
O1_12 C1_12 1_555 1_555
O2_12 In8_25 1_555 1_555
O4_24 In8_25 1_555 1_555
O5_24 In8_25 1_555 1_555
O57_28 C12_24 1_555 1_555
C1_12 O2_12 1_555 1_555
C2_12 C3_12 1_555 1_555
C3_12 C1_12 1_555 1_555
C4_12 C3_12 1_555 1_555
C5_12 C4_12 1_555 1_555
C7_24 O4_24 1_555 1_555
C8_24 C9_24 1_555 1_555
C9_24 C7_24 1_555 1_555
C10_24 C9_24 1_555 1_555
C11_24 C10_24 1_555 1_555
C12_24 C11_24 1_555 1_555
In6_6 O13_12 1_555 1_555
In7_7 O15_12 1_555 1_555
Cd3_12 O28_28 1_555 1_555
Cd5_20 O29_20 1_555 1_555
O13_12 C16_12 1_555 1_555
O14_28 In8_25 1_555 1_555
O15_12 C18_28 1_555 1_555
O18_20 In6_6 1_555 1_555
O20_12 In6_6 1_555 1_555
O21_28 In8_25 1_555 1_555
O22_12 In7_7 1_555 1_555
O25_20 In6_6 1_555 1_555
O28_28 C35_28 1_555 1_555
O29_20 C35_28 1_555 1_555
O33_12 Cd3_12 1_555 1_555
O42_6 C37_24 1_555 1_555
O52_24 C12_24 1_555 1_555
O70_12 Cd3_12 1_555 1_555
C16_12 O20_12 1_555 1_555
C17_28 O14_28 1_555 1_555
C18_28 O22_12 1_555 1_555
C21_28 C24_28 1_555 1_555
C23_12 C2_12 1_555 1_555
C24_28 C17_28 1_555 1_555
C25_28 C18_28 1_555 1_555
C28_12 C5_12 1_555 1_555
C29_28 C24_28 1_555 1_555
C30_28 C25_28 1_555 1_555
C33_28 C29_28 1_555 1_555
C35_28 C33_28 1_555 1_555
C37_24 O51_6 1_555 1_555
C44_24 C8_24 1_555 1_555
C49_24 C11_24 1_555 1_555
O71_44 In14_3 1_555 1_555
O74_28 Cd3_12 1_555 1_555
O78_28 Cd3_12 1_555 1_555
O79_28 Cd3_12 1_555 1_555
O5_24 C7_24 1_555 1_555
In14_3 O52_24 1_555 1_555
Cd5_20 O70_12 1_555 1_555
O21_28 C17_28 1_555 1_555
C16_12 C23_12 1_555 1_555
C21_28 C25_28 1_555 1_555
C23_12 C28_12 1_555 1_555
C30_28 C33_28 1_555 1_555
C37_24 C44_24 1_555 1_555
C44_24 C49_24 1_555 1_555
C2_12 H1_12 1_555 1_555
C10_24 H2_24 1_555 1_555
C4_12 H3_12 1_555 1_555
C8_24 H4_24 1_555 1_555
C30_28 H12_28 1_555 1_555
C28_12 H13_12 1_555 1_555
C29_28 H14_28 1_555 1_555
C21_28 H15_28 1_555 1_555
C49_24 H26_24 1_555 1_555
O11_21 Cd4_9 1_555 1_555
O12_21 Cd4_9 1_555 1_555
In8_33 O17_21 1_555 1_555
O19_9 C19_21 1_555 1_555
O17_21 C20_21 1_555 1_555
O24_21 In8_33 1_555 1_555
O30_21 Cd4_9 1_555 1_555
C19_21 O26_9 1_555 1_555
C20_21 O24_21 1_555 1_555
C22_21 C26_21 1_555 1_555
C26_21 C19_21 1_555 1_555
C27_21 C20_21 1_555 1_555
C31_21 C26_21 1_555 1_555
C32_21 C27_21 1_555 1_555
C34_21 C31_21 1_555 1_555
C36_21 O30_21 1_555 1_555
O75_21 Cd4_9 1_555 1_555
O32_9 C36_21 1_555 1_555
C22_21 C27_21 1_555 1_555
C32_21 C34_21 1_555 1_555
C34_21 C36_21 1_555 1_555
C32_21 H16_21 1_555 1_555
C31_21 H17_21 1_555 1_555
C22_21 H18_21 1_555 1_555
O10_21 In13_11 1_555 1_555
In8_39 O38_41 1_555 1_555
Cd5_17 O28_29 1_555 1_555
Cd5_21 O29_21 1_555 1_555
O14_29 In8_14 1_555 1_555
O18_17 C18_29 1_555 1_555
O18_21 In5_14 1_555 1_555
O21_29 In8_14 1_555 1_555
O25_21 In5_14 1_555 1_555
O28_29 C35_29 1_555 1_555
O29_21 C35_29 1_555 1_555
O42_4 C40_41 1_555 1_555
O38_41 C41_41 1_555 1_555
O47_41 In8_39 1_555 1_555
O55_21 In13_11 1_555 1_555
O58_21 In14_15 1_555 1_555
C17_29 O14_29 1_555 1_555
C18_29 O25_17 1_555 1_555
C21_29 C24_29 1_555 1_555
C24_29 C17_29 1_555 1_555
C25_29 C18_29 1_555 1_555
C29_29 C24_29 1_555 1_555
C30_29 C25_29 1_555 1_555
C33_29 C29_29 1_555 1_555
C35_29 C33_29 1_555 1_555
C40_41 O51_4 1_555 1_555
C41_41 O47_41 1_555 1_555
C43_41 C47_41 1_555 1_555
C47_41 C40_41 1_555 1_555
C48_41 C41_41 1_555 1_555
C52_41 C47_41 1_555 1_555
C53_41 C48_41 1_555 1_555
C55_41 C52_41 1_555 1_555
C57_41 O55_21 1_555 1_555
O72_21 In14_15 1_555 1_555
O74_29 Cd5_17 1_555 1_555
O78_29 Cd5_17 1_555 1_555
O79_29 Cd5_17 1_555 1_555
Cd5_21 O70_9 1_555 1_555
O21_29 C17_29 1_555 1_555
O57_11 C57_41 1_555 1_555
C21_29 C25_29 1_555 1_555
C30_29 C33_29 1_555 1_555
C43_41 C48_41 1_555 1_555
C53_41 C55_41 1_555 1_555
C55_41 C57_41 1_555 1_555
C30_29 H12_29 1_555 1_555
C29_29 H14_29 1_555 1_555
C21_29 H15_29 1_555 1_555
C52_41 H19_41 1_555 1_555
C53_41 H21_41 1_555 1_555
C43_41 H35_41 1_555 1_555
O55_22 In13_9 1_555 1_555
C57_42 O55_22 1_555 1_555
O57_9 C57_42 1_555 1_555
C52_42 H19_42 1_555 1_555
O11_22 Cd4_12 1_555 1_555
O12_22 Cd4_12 1_555 1_555
In8_32 O17_22 1_555 1_555
O19_12 C19_22 1_555 1_555
O17_22 C20_22 1_555 1_555
O18_22 In5_11 1_555 1_555
O24_22 In8_32 1_555 1_555
O25_22 In5_11 1_555 1_555
O30_22 Cd4_12 1_555 1_555
C19_22 O26_12 1_555 1_555
C20_22 O24_22 1_555 1_555
C22_22 C26_22 1_555 1_555
C26_22 C19_22 1_555 1_555
C27_22 C20_22 1_555 1_555
C31_22 C26_22 1_555 1_555
C32_22 C27_22 1_555 1_555
C34_22 C31_22 1_555 1_555
C36_22 O30_22 1_555 1_555
O75_22 Cd4_12 1_555 1_555
O32_12 C36_22 1_555 1_555
C22_22 C27_22 1_555 1_555
C32_22 C34_22 1_555 1_555
C34_22 C36_22 1_555 1_555
C32_22 H16_22 1_555 1_555
C31_22 H17_22 1_555 1_555
C22_22 H18_22 1_555 1_555
In8_38 O38_42 1_555 1_555
O38_42 C41_42 1_555 1_555
O47_42 In8_38 1_555 1_555
C40_42 O51 1_555 1_555
C41_42 O47_42 1_555 1_555
C43_42 C47_42 1_555 1_555
C47_42 C40_42 1_555 1_555
C48_42 C41_42 1_555 1_555
C53_42 C48_42 1_555 1_555
C43_42 C48_42 1_555 1_555
C53_42 C55_42 1_555 1_555
C53_42 H21_42 1_555 1_555
C43_42 H35_42 1_555 1_555
Cd5_20 O28_30 1_555 1_555
Cd5_22 O29_22 1_555 1_555
O14_30 In8_12 1_555 1_555
O18_20 C18_30 1_555 1_555
O21_30 In8_12 1_555 1_555
O28_30 C35_30 1_555 1_555
O29_22 C35_30 1_555 1_555
O58_22 In14_14 1_555 1_555
C17_30 O14_30 1_555 1_555
C18_30 O25_20 1_555 1_555
C21_30 C24_30 1_555 1_555
C24_30 C17_30 1_555 1_555
C25_30 C18_30 1_555 1_555
C29_30 C24_30 1_555 1_555
C30_30 C25_30 1_555 1_555
C33_30 C29_30 1_555 1_555
C35_30 C33_30 1_555 1_555
O74_30 Cd5_20 1_555 1_555
O78_30 Cd5_20 1_555 1_555
O79_30 Cd5_20 1_555 1_555
Cd5_22 O70_12 1_555 1_555
O21_30 C17_30 1_555 1_555
C21_30 C25_30 1_555 1_555
C30_30 C33_30 1_555 1_555
C30_30 H12_30 1_555 1_555
C29_30 H14_30 1_555 1_555
C21_30 H15_30 1_555 1_555
O10_23 In13_10 1_555 1_555
O11_23 Cd4_10 1_555 1_555
O12_23 Cd4_10 1_555 1_555
In8_36 O38_43 1_555 1_555
O14_31 In8_13 1_555 1_555
O18_18 C18_31 1_555 1_555
O21_31 In8_13 1_555 1_555
O30_23 Cd4_10 1_555 1_555
O55_23 In13_10 1_555 1_555
O58_23 In14_13 1_555 1_555
C17_31 O14_31 1_555 1_555
C18_31 O25_18 1_555 1_555
C21_31 C24_31 1_555 1_555
C24_31 C17_31 1_555 1_555
C25_31 C18_31 1_555 1_555
C29_31 C24_31 1_555 1_555
C30_31 C25_31 1_555 1_555
C33_31 C29_31 1_555 1_555
C36_23 O30_23 1_555 1_555
C57_43 O55_23 1_555 1_555
O72_23 In14_13 1_555 1_555
O75_23 Cd4_10 1_555 1_555
O21_31 C17_31 1_555 1_555
O32_10 C36_23 1_555 1_555
O57_10 C57_43 1_555 1_555
C21_31 C25_31 1_555 1_555
C30_31 C33_31 1_555 1_555
C30_31 H12_31 1_555 1_555
C29_31 H14_31 1_555 1_555
C21_31 H15_31 1_555 1_555
C53_43 H21_43 1_555 1_555
In8_35 O17_23 1_555 1_555
Cd5_18 O28_31 1_555 1_555
Cd5_23 O29_23 1_555 1_555
O19_10 C19_23 1_555 1_555
O17_23 C20_23 1_555 1_555
O18_23 In5_13 1_555 1_555
O24_23 In8_35 1_555 1_555
O25_23 In5_13 1_555 1_555
O28_31 C35_31 1_555 1_555
O29_23 C35_31 1_555 1_555
O42_3 C40_43 1_555 1_555
O47_43 In8_37 1_555 1_555
C19_23 O26_10 1_555 1_555
C20_23 O24_23 1_555 1_555
C22_23 C26_23 1_555 1_555
C26_23 C19_23 1_555 1_555
C27_23 C20_23 1_555 1_555
C31_23 C26_23 1_555 1_555
C32_23 C27_23 1_555 1_555
C34_23 C31_23 1_555 1_555
C40_43 O51_3 1_555 1_555
C41_43 O47_43 1_555 1_555
C43_43 C47_43 1_555 1_555
C47_43 C40_43 1_555 1_555
C48_43 C41_43 1_555 1_555
C52_43 C47_43 1_555 1_555
C55_43 C52_43 1_555 1_555
O74_31 Cd5_18 1_555 1_555
O78_31 Cd5_18 1_555 1_555
O79_31 Cd5_18 1_555 1_555
Cd5_23 O70_10 1_555 1_555
C22_23 C27_23 1_555 1_555
C32_23 C34_23 1_555 1_555
C43_43 C48_43 1_555 1_555
C32_23 H16_23 1_555 1_555
C31_23 H17_23 1_555 1_555
C22_23 H18_23 1_555 1_555
C52_43 H19_43 1_555 1_555
C43_43 H35_43 1_555 1_555
O10_24 In13_12 1_555 1_555
O11_24 Cd4_11 1_555 1_555
O12_24 Cd4_11 1_555 1_555
In8_40 O38_44 1_555 1_555
In8_31 O17_24 1_555 1_555
Cd5_19 O28_32 1_555 1_555
Cd5_24 O29_24 1_555 1_555
O14_32 In8_15 1_555 1_555
O18_19 C18_32 1_555 1_555
O19_11 C19_24 1_555 1_555
O17_24 C20_24 1_555 1_555
O18_24 In5_15 1_555 1_555
O21_32 In8_15 1_555 1_555
O24_24 In8_31 1_555 1_555
O25_24 In5_15 1_555 1_555
O28_32 C35_32 1_555 1_555
O29_24 C35_32 1_555 1_555
O30_24 Cd4_11 1_555 1_555
O42_2 C40_44 1_555 1_555
O38_44 C41_44 1_555 1_555
O47_44 In8_40 1_555 1_555
O55_24 In13_12 1_555 1_555
C17_32 O14_32 1_555 1_555
C18_32 O25_19 1_555 1_555
C19_24 O26_11 1_555 1_555
C20_24 O24_24 1_555 1_555
C21_32 C24_32 1_555 1_555
C22_24 C26_24 1_555 1_555
C24_32 C17_32 1_555 1_555
C25_32 C18_32 1_555 1_555
C26_24 C19_24 1_555 1_555
C27_24 C20_24 1_555 1_555
C29_32 C24_32 1_555 1_555
C30_32 C25_32 1_555 1_555
C31_24 C26_24 1_555 1_555
C32_24 C27_24 1_555 1_555
C33_32 C29_32 1_555 1_555
C34_24 C31_24 1_555 1_555
C35_32 C33_32 1_555 1_555
C36_24 O30_24 1_555 1_555
C40_44 O51_2 1_555 1_555
C41_44 O47_44 1_555 1_555
C43_44 C47_44 1_555 1_555
C47_44 C40_44 1_555 1_555
C48_44 C41_44 1_555 1_555
C52_44 C47_44 1_555 1_555
C53_44 C48_44 1_555 1_555
C55_44 C52_44 1_555 1_555
C57_44 O55_24 1_555 1_555
O74_32 Cd5_19 1_555 1_555
O75_24 Cd4_11 1_555 1_555
O78_32 Cd5_19 1_555 1_555
O79_32 Cd5_19 1_555 1_555
Cd5_24 O70_11 1_555 1_555
O21_32 C17_32 1_555 1_555
O32_11 C36_24 1_555 1_555
O57_12 C57_44 1_555 1_555
C21_32 C25_32 1_555 1_555
C22_24 C27_24 1_555 1_555
C30_32 C33_32 1_555 1_555
C32_24 C34_24 1_555 1_555
C34_24 C36_24 1_555 1_555
C43_44 C48_44 1_555 1_555
C53_44 C55_44 1_555 1_555
C55_44 C57_44 1_555 1_555
C30_32 H12_32 1_555 1_555
C29_32 H14_32 1_555 1_555
C21_32 H15_32 1_555 1_555
C32_24 H16_24 1_555 1_555
C31_24 H17_24 1_555 1_555
C22_24 H18_24 1_555 1_555
C52_44 H19_44 1_555 1_555
C53_44 H21_44 1_555 1_555
C43_44 H35_44 1_555 1_555
O58_24 In14_16 1_555 1_555
O72_24 In14_16 1_555 1_555
O41_2 C39_21 1_555 1_555
O44_21 In8_33 1_555 1_555
C39_21 O50_2 1_555 1_555
C42_21 C45_21 1_555 1_555
C45_21 C38_21 1_555 1_555
C46_21 C39_21 1_555 1_555
C51_21 C46_21 1_555 1_555
O44_21 C38_21 1_555 1_555
C42_21 C46_21 1_555 1_555
C51_21 C54_21 1_555 1_555
C51_21 H24_21 1_555 1_555
C42_21 H40_21 1_555 1_555
In13_13 O54_21 1_555 1_555
Cd5_21 O28_33 1_555 1_555
O14_33 In8_34 1_555 1_555
O18_21 C18_33 1_555 1_555
O21_33 In8_34 1_555 1_555
O28_33 C35_33 1_555 1_555
O33_9 C35_33 1_555 1_555
O35_21 In8_34 1_555 1_555
O57_13 C56_21 1_555 1_555
O54_21 C56_21 1_555 1_555
C17_33 O14_33 1_555 1_555
C18_33 O25_21 1_555 1_555
C21_33 C24_33 1_555 1_555
C24_33 C17_33 1_555 1_555
C25_33 C18_33 1_555 1_555
C29_33 C24_33 1_555 1_555
C30_33 C25_33 1_555 1_555
C33_33 C29_33 1_555 1_555
C35_33 C33_33 1_555 1_555
O74_33 Cd5_21 1_555 1_555
O78_33 Cd5_21 1_555 1_555
O79_33 Cd5_21 1_555 1_555
O21_33 C17_33 1_555 1_555
C21_33 C25_33 1_555 1_555
C30_33 C33_33 1_555 1_555
C30_33 H12_33 1_555 1_555
C29_33 H14_33 1_555 1_555
C21_33 H15_33 1_555 1_555
C50_21 H41_21 1_555 1_555
In13_16 O54_22 1_555 1_555
Cd5_24 O28_34 1_555 1_555
O14_34 In8_31 1_555 1_555
O18_24 C18_34 1_555 1_555
O21_34 In8_31 1_555 1_555
O28_34 C35_34 1_555 1_555
O33_11 C35_34 1_555 1_555
O35_22 In8_31 1_555 1_555
O41_4 C39_22 1_555 1_555
O44_22 In8_31 1_555 1_555
O57_16 C56_22 1_555 1_555
O54_22 C56_22 1_555 1_555
C17_34 O14_34 1_555 1_555
C18_34 O25_24 1_555 1_555
C21_34 C24_34 1_555 1_555
C24_34 C17_34 1_555 1_555
C25_34 C18_34 1_555 1_555
C29_34 C24_34 1_555 1_555
C30_34 C25_34 1_555 1_555
C33_34 C29_34 1_555 1_555
C35_34 C33_34 1_555 1_555
C38_22 O35_22 1_555 1_555
C39_22 O50_4 1_555 1_555
C42_22 C45_22 1_555 1_555
C45_22 C38_22 1_555 1_555
C46_22 C39_22 1_555 1_555
C50_22 C45_22 1_555 1_555
C51_22 C46_22 1_555 1_555
C54_22 C50_22 1_555 1_555
C56_22 C54_22 1_555 1_555
O74_34 Cd5_24 1_555 1_555
O78_34 Cd5_24 1_555 1_555
O79_34 Cd5_24 1_555 1_555
O21_34 C17_34 1_555 1_555
O44_22 C38_22 1_555 1_555
C21_34 C25_34 1_555 1_555
C30_34 C33_34 1_555 1_555
C42_22 C46_22 1_555 1_555
C51_22 C54_22 1_555 1_555
C30_34 H12_34 1_555 1_555
C29_34 H14_34 1_555 1_555
C21_34 H15_34 1_555 1_555
C51_22 H24_22 1_555 1_555
C42_22 H40_22 1_555 1_555
C50_22 H41_22 1_555 1_555
In13_15 O54_23 1_555 1_555
O14_35 In8_32 1_555 1_555
O18_22 C18_35 1_555 1_555
O21_35 In8_32 1_555 1_555
O35_23 In8_32 1_555 1_555
O41_3 C39_23 1_555 1_555
O44_23 In8_32 1_555 1_555
O57_15 C56_23 1_555 1_555
O54_23 C56_23 1_555 1_555
C17_35 O14_35 1_555 1_555
C18_35 O25_22 1_555 1_555
C21_35 C24_35 1_555 1_555
C24_35 C17_35 1_555 1_555
C25_35 C18_35 1_555 1_555
C29_35 C24_35 1_555 1_555
C30_35 C25_35 1_555 1_555
C33_35 C29_35 1_555 1_555
C38_23 O35_23 1_555 1_555
C39_23 O50_3 1_555 1_555
C42_23 C45_23 1_555 1_555
C45_23 C38_23 1_555 1_555
C46_23 C39_23 1_555 1_555
C50_23 C45_23 1_555 1_555
C51_23 C46_23 1_555 1_555
C54_23 C50_23 1_555 1_555
C56_23 C54_23 1_555 1_555
O21_35 C17_35 1_555 1_555
O44_23 C38_23 1_555 1_555
C21_35 C25_35 1_555 1_555
C30_35 C33_35 1_555 1_555
C42_23 C46_23 1_555 1_555
C51_23 C54_23 1_555 1_555
C30_35 H12_35 1_555 1_555
C29_35 H14_35 1_555 1_555
C21_35 H15_35 1_555 1_555
C51_23 H24_23 1_555 1_555
C42_23 H40_23 1_555 1_555
C50_23 H41_23 1_555 1_555
Cd5_22 O28_35 1_555 1_555
O28_35 C35_35 1_555 1_555
O33_12 C35_35 1_555 1_555
O74_35 Cd5_22 1_555 1_555
O78_35 Cd5_22 1_555 1_555
O79_35 Cd5_22 1_555 1_555
Cd5_23 O28_36 1_555 1_555
O14_36 In8_35 1_555 1_555
O18_23 C18_36 1_555 1_555
O21_36 In8_35 1_555 1_555
O28_36 C35_36 1_555 1_555
O33_10 C35_36 1_555 1_555
O35_24 In8_35 1_555 1_555
O44_24 In8_35 1_555 1_555
C17_36 O14_36 1_555 1_555
C18_36 O25_23 1_555 1_555
C21_36 C24_36 1_555 1_555
C24_36 C17_36 1_555 1_555
C25_36 C18_36 1_555 1_555
C29_36 C24_36 1_555 1_555
C30_36 C25_36 1_555 1_555
C33_36 C29_36 1_555 1_555
C35_36 C33_36 1_555 1_555
C38_24 O35_24 1_555 1_555
C39_24 O50 1_555 1_555
C42_24 C45_24 1_555 1_555
C45_24 C38_24 1_555 1_555
C46_24 C39_24 1_555 1_555
C50_24 C45_24 1_555 1_555
C54_24 C50_24 1_555 1_555
O74_36 Cd5_23 1_555 1_555
O78_36 Cd5_23 1_555 1_555
O79_36 Cd5_23 1_555 1_555
O21_36 C17_36 1_555 1_555
O44_24 C38_24 1_555 1_555
C21_36 C25_36 1_555 1_555
C30_36 C33_36 1_555 1_555
C42_24 C46_24 1_555 1_555
C30_36 H12_36 1_555 1_555
C29_36 H14_36 1_555 1_555
C21_36 H15_36 1_555 1_555
C42_24 H40_24 1_555 1_555
C50_24 H41_24 1_555 1_555
In13_14 O54_24 1_555 1_555
O57_14 C56_24 1_555 1_555
O54_24 C56_24 1_555 1_555
C51_24 H24_24 1_555 1_555
O71_46 In13_15 1_555 1_555
O71_47 In13_13 1_555 1_555
O71_48 In13_16 1_555 1_555
In8_3 O38_45 1_555 1_555
O41_7 C40_45 1_555 1_555
O38_45 C41_45 1_555 1_555
O47_45 In8_3 1_555 1_555
C40_45 O50_7 1_555 1_555
C41_45 O47_45 1_555 1_555
C43_45 C47_45 1_555 1_555
C47_45 C40_45 1_555 1_555
C48_45 C41_45 1_555 1_555
C52_45 C47_45 1_555 1_555
C53_45 C48_45 1_555 1_555
C55_45 C52_45 1_555 1_555
C57_45 O58_23 1_555 1_555
O57_31 C57_45 1_555 1_555
C43_45 C48_45 1_555 1_555
C53_45 C55_45 1_555 1_555
C55_45 C57_45 1_555 1_555
C52_45 H19_45 1_555 1_555
C53_45 H21_45 1_555 1_555
C43_45 H35_45 1_555 1_555
In8_4 O38_46 1_555 1_555
O41_6 C40_46 1_555 1_555
O38_46 C41_46 1_555 1_555
O47_46 In8_4 1_555 1_555
C40_46 O50_6 1_555 1_555
C41_46 O47_46 1_555 1_555
C43_46 C47_46 1_555 1_555
C47_46 C40_46 1_555 1_555
C48_46 C41_46 1_555 1_555
C52_46 C47_46 1_555 1_555
C53_46 C48_46 1_555 1_555
C55_46 C52_46 1_555 1_555
C57_46 O58_24 1_555 1_555
O57_29 C57_46 1_555 1_555
C43_46 C48_46 1_555 1_555
C53_46 C55_46 1_555 1_555
C55_46 C57_46 1_555 1_555
C52_46 H19_46 1_555 1_555
C53_46 H21_46 1_555 1_555
C43_46 H35_46 1_555 1_555
In8_5 O38_47 1_555 1_555
O38_47 C41_47 1_555 1_555
O47_47 In8_5 1_555 1_555
C40_47 O50_5 1_555 1_555
C41_47 O47_47 1_555 1_555
C43_47 C47_47 1_555 1_555
C47_47 C40_47 1_555 1_555
C48_47 C41_47 1_555 1_555
C53_47 C48_47 1_555 1_555
C43_47 C48_47 1_555 1_555
C53_47 C55_47 1_555 1_555
C53_47 H21_47 1_555 1_555
C43_47 H35_47 1_555 1_555
C57_47 O58_22 1_555 1_555
O57_30 C57_47 1_555 1_555
C52_47 H19_47 1_555 1_555
O41_8 C40_48 1_555 1_555
O47_48 In8 1_555 1_555
C40_48 O50_8 1_555 1_555
C41_48 O47_48 1_555 1_555
C43_48 C47_48 1_555 1_555
C47_48 C40_48 1_555 1_555
C48_48 C41_48 1_555 1_555
C52_48 C47_48 1_555 1_555
C55_48 C52_48 1_555 1_555
C43_48 C48_48 1_555 1_555
C52_48 H19_48 1_555 1_555
C43_48 H35_48 1_555 1_555
In8_2 O38_48 1_555 1_555
C57_48 O58_21 1_555 1_555
O57_32 C57_48 1_555 1_555
C53_48 H21_48 1_555 1_555
In8_36 O1_13 1_555 1_555
Cd1_13 O3_13 1_555 1_555
O1_13 C1_13 1_555 1_555
O2_13 In8_36 1_555 1_555
O3_13 C6_13 1_555 1_555
O9_13 Cd1_13 1_555 1_555
C1_13 O2_13 1_555 1_555
C2_13 C3_13 1_555 1_555
C3_13 C1_13 1_555 1_555
C4_13 C3_13 1_555 1_555
C5_13 C4_13 1_555 1_555
C6_13 C5_13 1_555 1_555
O11_25 Cd1_13 1_555 1_555
O12_25 Cd1_13 1_555 1_555
In6_5 O13_13 1_555 1_555
In5_18 O16_13 1_555 1_555
In8_20 O17_25 1_555 1_555
Cd2_13 O9_13 1_555 1_555
Cd4_13 O9_13 1_555 1_555
O13_13 C16_13 1_555 1_555
O16_13 C19_25 1_555 1_555
O17_25 C20_25 1_555 1_555
O18_25 In6_5 1_555 1_555
O20_13 In6_5 1_555 1_555
O23_13 In5_18 1_555 1_555
O24_25 In8_20 1_555 1_555
O25_25 In6_5 1_555 1_555
O27_13 C6_13 1_555 1_555
O30_25 Cd1_13 1_555 1_555
O31_13 Cd4_13 1_555 1_555
O32_13 Cd2_13 1_555 1_555
C16_13 O20_13 1_555 1_555
C19_25 O23_13 1_555 1_555
C20_25 O24_25 1_555 1_555
C22_25 C26_25 1_555 1_555
C23_13 C2_13 1_555 1_555
C26_25 C19_25 1_555 1_555
C27_25 C20_25 1_555 1_555
C28_13 C5_13 1_555 1_555
C31_25 C26_25 1_555 1_555
C32_25 C27_25 1_555 1_555
C34_25 C31_25 1_555 1_555
C36_25 O30_25 1_555 1_555
O73_13 Cd2_13 1_555 1_555
O75_25 Cd1_13 1_555 1_555
O76_13 Cd2_13 1_555 1_555
O77_13 Cd2_13 1_555 1_555
Cd2_13 O27_13 1_555 1_555
O31_13 C36_25 1_555 1_555
C16_13 C23_13 1_555 1_555
C22_25 C27_25 1_555 1_555
C23_13 C28_13 1_555 1_555
C32_25 C34_25 1_555 1_555
C34_25 C36_25 1_555 1_555
C2_13 H1_13 1_555 1_555
C4_13 H3_13 1_555 1_555
C28_13 H13_13 1_555 1_555
C32_25 H16_25 1_555 1_555
C31_25 H17_25 1_555 1_555
C22_25 H18_25 1_555 1_555
In5_4 O15_13 1_555 1_555
Cd3_13 O28_37 1_555 1_555
Cd5_25 O29_25 1_555 1_555
O14_37 In8_37 1_555 1_555
O15_13 C18_37 1_555 1_555
O19_13 In5_4 1_555 1_555
O21_37 In8_37 1_555 1_555
O22_13 In5_4 1_555 1_555
O26_13 In5_4 1_555 1_555
O28_37 C35_37 1_555 1_555
O29_25 C35_37 1_555 1_555
O33_13 Cd3_13 1_555 1_555
O70_13 Cd3_13 1_555 1_555
C17_37 O14_37 1_555 1_555
C18_37 O22_13 1_555 1_555
C21_37 C24_37 1_555 1_555
C24_37 C17_37 1_555 1_555
C25_37 C18_37 1_555 1_555
C29_37 C24_37 1_555 1_555
C30_37 C25_37 1_555 1_555
C33_37 C29_37 1_555 1_555
C35_37 C33_37 1_555 1_555
O74_37 Cd3_13 1_555 1_555
O78_37 Cd3_13 1_555 1_555
O79_37 Cd3_13 1_555 1_555
Cd5_25 O70_13 1_555 1_555
O21_37 C17_37 1_555 1_555
C21_37 C25_37 1_555 1_555
C30_37 C33_37 1_555 1_555
C30_37 H12_37 1_555 1_555
C29_37 H14_37 1_555 1_555
C21_37 H15_37 1_555 1_555
In8_39 O1_14 1_555 1_555
Cd1_14 O3_14 1_555 1_555
O1_14 C1_14 1_555 1_555
O2_14 In8_39 1_555 1_555
O3_14 C6_14 1_555 1_555
O9_14 Cd1_14 1_555 1_555
C1_14 O2_14 1_555 1_555
C2_14 C3_14 1_555 1_555
C3_14 C1_14 1_555 1_555
C4_14 C3_14 1_555 1_555
C5_14 C4_14 1_555 1_555
C6_14 C5_14 1_555 1_555
O11_26 Cd1_14 1_555 1_555
O12_26 Cd1_14 1_555 1_555
In6_4 O13_14 1_555 1_555
In5_5 O15_14 1_555 1_555
In5_17 O16_14 1_555 1_555
In8_19 O17_26 1_555 1_555
Cd2_14 O9_14 1_555 1_555
Cd3_14 O28_38 1_555 1_555
Cd4_14 O9_14 1_555 1_555
Cd5_26 O29_26 1_555 1_555
O13_14 C16_14 1_555 1_555
O14_38 In8_39 1_555 1_555
O15_14 C18_38 1_555 1_555
O16_14 C19_26 1_555 1_555
O17_26 C20_26 1_555 1_555
O18_26 In6_4 1_555 1_555
O19_14 In5_5 1_555 1_555
O20_14 In6_4 1_555 1_555
O21_38 In8_39 1_555 1_555
O22_14 In5_5 1_555 1_555
O23_14 In5_17 1_555 1_555
O24_26 In8_19 1_555 1_555
O25_26 In6_4 1_555 1_555
O26_14 In5_5 1_555 1_555
O27_14 C6_14 1_555 1_555
O28_38 C35_38 1_555 1_555
O29_26 C35_38 1_555 1_555
O30_26 Cd1_14 1_555 1_555
O31_14 Cd4_14 1_555 1_555
O32_14 Cd2_14 1_555 1_555
O33_14 Cd3_14 1_555 1_555
O70_14 Cd3_14 1_555 1_555
C16_14 O20_14 1_555 1_555
C17_38 O14_38 1_555 1_555
C18_38 O22_14 1_555 1_555
C19_26 O23_14 1_555 1_555
C20_26 O24_26 1_555 1_555
C21_38 C24_38 1_555 1_555
C22_26 C26_26 1_555 1_555
C23_14 C2_14 1_555 1_555
C24_38 C17_38 1_555 1_555
C25_38 C18_38 1_555 1_555
C26_26 C19_26 1_555 1_555
C27_26 C20_26 1_555 1_555
C28_14 C5_14 1_555 1_555
C29_38 C24_38 1_555 1_555
C30_38 C25_38 1_555 1_555
C31_26 C26_26 1_555 1_555
C32_26 C27_26 1_555 1_555
C33_38 C29_38 1_555 1_555
C34_26 C31_26 1_555 1_555
C35_38 C33_38 1_555 1_555
C36_26 O30_26 1_555 1_555
O73_14 Cd2_14 1_555 1_555
O74_38 Cd3_14 1_555 1_555
O75_26 Cd1_14 1_555 1_555
O76_14 Cd2_14 1_555 1_555
O77_14 Cd2_14 1_555 1_555
O78_38 Cd3_14 1_555 1_555
O79_38 Cd3_14 1_555 1_555
Cd2_14 O27_14 1_555 1_555
Cd5_26 O70_14 1_555 1_555
O21_38 C17_38 1_555 1_555
O31_14 C36_26 1_555 1_555
C16_14 C23_14 1_555 1_555
C21_38 C25_38 1_555 1_555
C22_26 C27_26 1_555 1_555
C23_14 C28_14 1_555 1_555
C30_38 C33_38 1_555 1_555
C32_26 C34_26 1_555 1_555
C34_26 C36_26 1_555 1_555
C2_14 H1_14 1_555 1_555
C4_14 H3_14 1_555 1_555
C30_38 H12_38 1_555 1_555
C28_14 H13_14 1_555 1_555
C29_38 H14_38 1_555 1_555
C21_38 H15_38 1_555 1_555
C32_26 H16_26 1_555 1_555
C31_26 H17_26 1_555 1_555
C22_26 H18_26 1_555 1_555
In8_38 O1_15 1_555 1_555
Cd1_15 O3_15 1_555 1_555
O1_15 C1_15 1_555 1_555
O2_15 In8_38 1_555 1_555
O3_15 C6_15 1_555 1_555
O9_15 Cd1_15 1_555 1_555
C1_15 O2_15 1_555 1_555
C2_15 C3_15 1_555 1_555
C3_15 C1_15 1_555 1_555
C4_15 C3_15 1_555 1_555
C5_15 C4_15 1_555 1_555
C6_15 C5_15 1_555 1_555
O11_27 Cd1_15 1_555 1_555
O12_27 Cd1_15 1_555 1_555
In6_2 O13_15 1_555 1_555
In5 O15_15 1_555 1_555
Cd2_15 O9_15 1_555 1_555
Cd4_15 O9_15 1_555 1_555
O13_15 C16_15 1_555 1_555
O14_39 In8_38 1_555 1_555
O15_15 C18_39 1_555 1_555
O19_15 In5 1_555 1_555
O20_15 In6_2 1_555 1_555
O21_39 In8_38 1_555 1_555
O22_15 In5 1_555 1_555
O26_15 In5 1_555 1_555
O27_15 C6_15 1_555 1_555
O30_27 Cd1_15 1_555 1_555
O31_15 Cd4_15 1_555 1_555
O32_15 Cd2_15 1_555 1_555
C16_15 O20_15 1_555 1_555
C17_39 O14_39 1_555 1_555
C18_39 O22_15 1_555 1_555
C21_39 C24_39 1_555 1_555
C23_15 C2_15 1_555 1_555
C24_39 C17_39 1_555 1_555
C25_39 C18_39 1_555 1_555
C28_15 C5_15 1_555 1_555
C29_39 C24_39 1_555 1_555
C30_39 C25_39 1_555 1_555
C33_39 C29_39 1_555 1_555
C36_27 O30_27 1_555 1_555
O73_15 Cd2_15 1_555 1_555
O75_27 Cd1_15 1_555 1_555
O76_15 Cd2_15 1_555 1_555
O77_15 Cd2_15 1_555 1_555
Cd2_15 O27_15 1_555 1_555
O21_39 C17_39 1_555 1_555
O31_15 C36_27 1_555 1_555
C16_15 C23_15 1_555 1_555
C21_39 C25_39 1_555 1_555
C23_15 C28_15 1_555 1_555
C30_39 C33_39 1_555 1_555
C2_15 H1_15 1_555 1_555
C4_15 H3_15 1_555 1_555
C30_39 H12_39 1_555 1_555
C28_15 H13_15 1_555 1_555
C29_39 H14_39 1_555 1_555
C21_39 H15_39 1_555 1_555
In5_20 O16_15 1_555 1_555
In8_16 O17_27 1_555 1_555
Cd3_15 O28_39 1_555 1_555
Cd5_27 O29_27 1_555 1_555
O16_15 C19_27 1_555 1_555
O17_27 C20_27 1_555 1_555
O18_27 In6_3 1_555 1_555
O23_15 In5_20 1_555 1_555
O24_27 In8_16 1_555 1_555
O25_27 In6_3 1_555 1_555
O28_39 C35_39 1_555 1_555
O29_27 C35_39 1_555 1_555
O33_15 Cd3_15 1_555 1_555
O70_15 Cd3_15 1_555 1_555
C19_27 O23_15 1_555 1_555
C20_27 O24_27 1_555 1_555
C22_27 C26_27 1_555 1_555
C26_27 C19_27 1_555 1_555
C27_27 C20_27 1_555 1_555
C31_27 C26_27 1_555 1_555
C32_27 C27_27 1_555 1_555
C34_27 C31_27 1_555 1_555
O74_39 Cd3_15 1_555 1_555
O78_39 Cd3_15 1_555 1_555
O79_39 Cd3_15 1_555 1_555
Cd5_27 O70_15 1_555 1_555
C22_27 C27_27 1_555 1_555
C32_27 C34_27 1_555 1_555
C32_27 H16_27 1_555 1_555
C31_27 H17_27 1_555 1_555
C22_27 H18_27 1_555 1_555
Cd1_16 O3_16 1_555 1_555
O3_16 C6_16 1_555 1_555
O9_16 Cd1_16 1_555 1_555
O11_28 Cd1_16 1_555 1_555
O12_28 Cd1_16 1_555 1_555
In5_16 O16_16 1_555 1_555
In8_17 O17_28 1_555 1_555
Cd2_16 O9_16 1_555 1_555
Cd4_16 O9_16 1_555 1_555
O16_16 C19_28 1_555 1_555
O17_28 C20_28 1_555 1_555
O19_16 In5_2 1_555 1_555
O23_16 In5_16 1_555 1_555
O24_28 In8_17 1_555 1_555
O26_16 In5_2 1_555 1_555
O27_16 C6_16 1_555 1_555
O30_28 Cd1_16 1_555 1_555
O31_16 Cd4_16 1_555 1_555
O32_16 Cd2_16 1_555 1_555
C19_28 O23_16 1_555 1_555
C20_28 O24_28 1_555 1_555
C22_28 C26_28 1_555 1_555
C26_28 C19_28 1_555 1_555
C27_28 C20_28 1_555 1_555
C31_28 C26_28 1_555 1_555
C32_28 C27_28 1_555 1_555
C34_28 C31_28 1_555 1_555
C36_28 O30_28 1_555 1_555
O73_16 Cd2_16 1_555 1_555
O75_28 Cd1_16 1_555 1_555
O76_16 Cd2_16 1_555 1_555
O77_16 Cd2_16 1_555 1_555
Cd2_16 O27_16 1_555 1_555
O31_16 C36_28 1_555 1_555
C22_28 C27_28 1_555 1_555
C32_28 C34_28 1_555 1_555
C34_28 C36_28 1_555 1_555
C32_28 H16_28 1_555 1_555
C31_28 H17_28 1_555 1_555
C22_28 H18_28 1_555 1_555
In8_40 O1_16 1_555 1_555
O1_16 C1_16 1_555 1_555
O2_16 In8_40 1_555 1_555
C1_16 O2_16 1_555 1_555
C2_16 C3_16 1_555 1_555
C3_16 C1_16 1_555 1_555
C4_16 C3_16 1_555 1_555
C5_16 C4_16 1_555 1_555
In6 O13_16 1_555 1_555
In5_3 O15_16 1_555 1_555
Cd3_16 O28_40 1_555 1_555
Cd5_28 O29_28 1_555 1_555
O13_16 C16_16 1_555 1_555
O14_40 In8_40 1_555 1_555
O15_16 C18_40 1_555 1_555
O18_28 In6 1_555 1_555
O20_16 In6 1_555 1_555
O21_40 In8_40 1_555 1_555
O22_16 In5_3 1_555 1_555
O25_28 In6 1_555 1_555
O28_40 C35_40 1_555 1_555
O29_28 C35_40 1_555 1_555
O33_16 Cd3_16 1_555 1_555
O70_16 Cd3_16 1_555 1_555
C16_16 O20_16 1_555 1_555
C17_40 O14_40 1_555 1_555
C18_40 O22_16 1_555 1_555
C21_40 C24_40 1_555 1_555
C23_16 C2_16 1_555 1_555
C24_40 C17_40 1_555 1_555
C25_40 C18_40 1_555 1_555
C28_16 C5_16 1_555 1_555
C29_40 C24_40 1_555 1_555
C30_40 C25_40 1_555 1_555
C33_40 C29_40 1_555 1_555
C35_40 C33_40 1_555 1_555
O74_40 Cd3_16 1_555 1_555
O78_40 Cd3_16 1_555 1_555
O79_40 Cd3_16 1_555 1_555
Cd5_28 O70_16 1_555 1_555
O21_40 C17_40 1_555 1_555
C16_16 C23_16 1_555 1_555
C21_40 C25_40 1_555 1_555
C23_16 C28_16 1_555 1_555
C30_40 C33_40 1_555 1_555
C2_16 H1_16 1_555 1_555
C4_16 H3_16 1_555 1_555
C30_40 H12_40 1_555 1_555
C28_16 H13_16 1_555 1_555
C29_40 H14_40 1_555 1_555
C21_40 H15_40 1_555 1_555
O11_29 Cd4_13 1_555 1_555
O12_29 Cd4_13 1_555 1_555
O14_41 In8_20 1_555 1_555
O18_25 C18_41 1_555 1_555
O21_41 In8_20 1_555 1_555
O30_29 Cd4_13 1_555 1_555
C17_41 O14_41 1_555 1_555
C18_41 O25_25 1_555 1_555
C21_41 C24_41 1_555 1_555
C24_41 C17_41 1_555 1_555
C25_41 C18_41 1_555 1_555
C29_41 C24_41 1_555 1_555
C30_41 C25_41 1_555 1_555
C33_41 C29_41 1_555 1_555
C36_29 O30_29 1_555 1_555
O75_29 Cd4_13 1_555 1_555
O21_41 C17_41 1_555 1_555
O32_13 C36_29 1_555 1_555
C21_41 C25_41 1_555 1_555
C30_41 C33_41 1_555 1_555
C30_41 H12_41 1_555 1_555
C29_41 H14_41 1_555 1_555
C21_41 H15_41 1_555 1_555
In8_4 O17_29 1_555 1_555
Cd5_25 O28_41 1_555 1_555
Cd5_29 O29_29 1_555 1_555
O19_13 C19_29 1_555 1_555
O17_29 C20_29 1_555 1_555
O18_29 In5_19 1_555 1_555
O24_29 In8_4 1_555 1_555
O25_29 In5_19 1_555 1_555
O28_41 C35_41 1_555 1_555
O29_29 C35_41 1_555 1_555
C19_29 O26_13 1_555 1_555
C20_29 O24_29 1_555 1_555
C22_29 C26_29 1_555 1_555
C26_29 C19_29 1_555 1_555
C27_29 C20_29 1_555 1_555
C31_29 C26_29 1_555 1_555
C32_29 C27_29 1_555 1_555
C34_29 C31_29 1_555 1_555
O74_41 Cd5_25 1_555 1_555
O78_41 Cd5_25 1_555 1_555
O79_41 Cd5_25 1_555 1_555
Cd5_29 O70_13 1_555 1_555
C22_29 C27_29 1_555 1_555
C32_29 C34_29 1_555 1_555
C32_29 H16_29 1_555 1_555
C31_29 H17_29 1_555 1_555
C22_29 H18_29 1_555 1_555
O11_30 Cd4_16 1_555 1_555
O12_30 Cd4_16 1_555 1_555
In8_3 O17_30 1_555 1_555
O19_16 C19_30 1_555 1_555
O17_30 C20_30 1_555 1_555
O18_30 In5_16 1_555 1_555
O24_30 In8_3 1_555 1_555
O25_30 In5_16 1_555 1_555
O30_30 Cd4_16 1_555 1_555
C19_30 O26_16 1_555 1_555
C20_30 O24_30 1_555 1_555
C22_30 C26_30 1_555 1_555
C26_30 C19_30 1_555 1_555
C27_30 C20_30 1_555 1_555
C31_30 C26_30 1_555 1_555
C32_30 C27_30 1_555 1_555
C34_30 C31_30 1_555 1_555
C36_30 O30_30 1_555 1_555
O75_30 Cd4_16 1_555 1_555
O32_16 C36_30 1_555 1_555
C22_30 C27_30 1_555 1_555
C32_30 C34_30 1_555 1_555
C34_30 C36_30 1_555 1_555
C32_30 H16_30 1_555 1_555
C31_30 H17_30 1_555 1_555
C22_30 H18_30 1_555 1_555
Cd5_28 O28_42 1_555 1_555
Cd5_30 O29_30 1_555 1_555
O14_42 In8_18 1_555 1_555
O18_28 C18_42 1_555 1_555
O21_42 In8_18 1_555 1_555
O28_42 C35_42 1_555 1_555
O29_30 C35_42 1_555 1_555
C17_42 O14_42 1_555 1_555
C18_42 O25_28 1_555 1_555
C21_42 C24_42 1_555 1_555
C24_42 C17_42 1_555 1_555
C25_42 C18_42 1_555 1_555
C29_42 C24_42 1_555 1_555
C30_42 C25_42 1_555 1_555
C33_42 C29_42 1_555 1_555
C35_42 C33_42 1_555 1_555
O74_42 Cd5_28 1_555 1_555
O78_42 Cd5_28 1_555 1_555
O79_42 Cd5_28 1_555 1_555
Cd5_30 O70_16 1_555 1_555
O21_42 C17_42 1_555 1_555
C21_42 C25_42 1_555 1_555
C30_42 C33_42 1_555 1_555
C30_42 H12_42 1_555 1_555
C29_42 H14_42 1_555 1_555
C21_42 H15_42 1_555 1_555
O11_31 Cd4_14 1_555 1_555
O12_31 Cd4_14 1_555 1_555
In8_5 O17_31 1_555 1_555
Cd5_26 O28_43 1_555 1_555
Cd5_31 O29_31 1_555 1_555
O14_43 In8_19 1_555 1_555
O18_26 C18_43 1_555 1_555
O19_14 C19_31 1_555 1_555
O17_31 C20_31 1_555 1_555
O18_31 In5_17 1_555 1_555
O21_43 In8_19 1_555 1_555
O24_31 In8_5 1_555 1_555
O25_31 In5_17 1_555 1_555
O28_43 C35_43 1_555 1_555
O29_31 C35_43 1_555 1_555
O30_31 Cd4_14 1_555 1_555
C17_43 O14_43 1_555 1_555
C18_43 O25_26 1_555 1_555
C19_31 O26_14 1_555 1_555
C20_31 O24_31 1_555 1_555
C21_43 C24_43 1_555 1_555
C22_31 C26_31 1_555 1_555
C24_43 C17_43 1_555 1_555
C25_43 C18_43 1_555 1_555
C26_31 C19_31 1_555 1_555
C27_31 C20_31 1_555 1_555
C29_43 C24_43 1_555 1_555
C30_43 C25_43 1_555 1_555
C31_31 C26_31 1_555 1_555
C32_31 C27_31 1_555 1_555
C33_43 C29_43 1_555 1_555
C34_31 C31_31 1_555 1_555
C35_43 C33_43 1_555 1_555
C36_31 O30_31 1_555 1_555
O74_43 Cd5_26 1_555 1_555
O75_31 Cd4_14 1_555 1_555
O78_43 Cd5_26 1_555 1_555
O79_43 Cd5_26 1_555 1_555
Cd5_31 O70_14 1_555 1_555
O21_43 C17_43 1_555 1_555
O32_14 C36_31 1_555 1_555
C21_43 C25_43 1_555 1_555
C22_31 C27_31 1_555 1_555
C30_43 C33_43 1_555 1_555
C32_31 C34_31 1_555 1_555
C34_31 C36_31 1_555 1_555
C30_43 H12_43 1_555 1_555
C29_43 H14_43 1_555 1_555
C21_43 H15_43 1_555 1_555
C32_31 H16_31 1_555 1_555
C31_31 H17_31 1_555 1_555
C22_31 H18_31 1_555 1_555
O11_32 Cd4_15 1_555 1_555
O12_32 Cd4_15 1_555 1_555
In8 O17_32 1_555 1_555
O19_15 C19_32 1_555 1_555
O17_32 C20_32 1_555 1_555
O24_32 In8 1_555 1_555
O30_32 Cd4_15 1_555 1_555
C19_32 O26_15 1_555 1_555
C20_32 O24_32 1_555 1_555
C22_32 C26_32 1_555 1_555
C26_32 C19_32 1_555 1_555
C27_32 C20_32 1_555 1_555
C31_32 C26_32 1_555 1_555
C32_32 C27_32 1_555 1_555
C34_32 C31_32 1_555 1_555
C36_32 O30_32 1_555 1_555
O75_32 Cd4_15 1_555 1_555
O32_15 C36_32 1_555 1_555
C22_32 C27_32 1_555 1_555
C32_32 C34_32 1_555 1_555
C34_32 C36_32 1_555 1_555
C32_32 H16_32 1_555 1_555
C31_32 H17_32 1_555 1_555
C22_32 H18_32 1_555 1_555
Cd5_27 O28_44 1_555 1_555
Cd5_32 O29_32 1_555 1_555
O14_44 In8_16 1_555 1_555
O18_27 C18_44 1_555 1_555
O18_32 In5_20 1_555 1_555
O21_44 In8_16 1_555 1_555
O25_32 In5_20 1_555 1_555
O28_44 C35_44 1_555 1_555
O29_32 C35_44 1_555 1_555
C17_44 O14_44 1_555 1_555
C18_44 O25_27 1_555 1_555
C21_44 C24_44 1_555 1_555
C24_44 C17_44 1_555 1_555
C25_44 C18_44 1_555 1_555
C29_44 C24_44 1_555 1_555
C30_44 C25_44 1_555 1_555
C33_44 C29_44 1_555 1_555
C35_44 C33_44 1_555 1_555
O74_44 Cd5_27 1_555 1_555
O78_44 Cd5_27 1_555 1_555
O79_44 Cd5_27 1_555 1_555
Cd5_32 O70_15 1_555 1_555
O21_44 C17_44 1_555 1_555
C21_44 C25_44 1_555 1_555
C30_44 C33_44 1_555 1_555
C30_44 H12_44 1_555 1_555
C29_44 H14_44 1_555 1_555
C21_44 H15_44 1_555 1_555
Cd5_29 O28_45 1_555 1_555
O14_45 In8_4 1_555 1_555
O18_29 C18_45 1_555 1_555
O21_45 In8_4 1_555 1_555
O28_45 C35_45 1_555 1_555
O33_13 C35_45 1_555 1_555
C17_45 O14_45 1_555 1_555
C18_45 O25_29 1_555 1_555
C21_45 C24_45 1_555 1_555
C24_45 C17_45 1_555 1_555
C25_45 C18_45 1_555 1_555
C29_45 C24_45 1_555 1_555
C30_45 C25_45 1_555 1_555
C33_45 C29_45 1_555 1_555
C35_45 C33_45 1_555 1_555
O74_45 Cd5_29 1_555 1_555
O78_45 Cd5_29 1_555 1_555
O79_45 Cd5_29 1_555 1_555
O21_45 C17_45 1_555 1_555
C21_45 C25_45 1_555 1_555
C30_45 C33_45 1_555 1_555
C30_45 H12_45 1_555 1_555
C29_45 H14_45 1_555 1_555
C21_45 H15_45 1_555 1_555
Cd5_32 O28_46 1_555 1_555
O14_46 In8_2 1_555 1_555
O18_32 C18_46 1_555 1_555
O21_46 In8_2 1_555 1_555
O28_46 C35_46 1_555 1_555
O33_15 C35_46 1_555 1_555
C17_46 O14_46 1_555 1_555
C18_46 O25_32 1_555 1_555
C21_46 C24_46 1_555 1_555
C24_46 C17_46 1_555 1_555
C25_46 C18_46 1_555 1_555
C29_46 C24_46 1_555 1_555
C30_46 C25_46 1_555 1_555
C33_46 C29_46 1_555 1_555
C35_46 C33_46 1_555 1_555
O74_46 Cd5_32 1_555 1_555
O78_46 Cd5_32 1_555 1_555
O79_46 Cd5_32 1_555 1_555
O21_46 C17_46 1_555 1_555
C21_46 C25_46 1_555 1_555
C30_46 C33_46 1_555 1_555
C30_46 H12_46 1_555 1_555
C29_46 H14_46 1_555 1_555
C21_46 H15_46 1_555 1_555
O14_47 In8_3 1_555 1_555
O18_30 C18_47 1_555 1_555
O21_47 In8_3 1_555 1_555
C17_47 O14_47 1_555 1_555
C18_47 O25_30 1_555 1_555
C21_47 C24_47 1_555 1_555
C24_47 C17_47 1_555 1_555
C25_47 C18_47 1_555 1_555
C29_47 C24_47 1_555 1_555
C30_47 C25_47 1_555 1_555
C33_47 C29_47 1_555 1_555
O21_47 C17_47 1_555 1_555
C21_47 C25_47 1_555 1_555
C30_47 C33_47 1_555 1_555
C30_47 H12_47 1_555 1_555
C29_47 H14_47 1_555 1_555
C21_47 H15_47 1_555 1_555
Cd5_30 O28_47 1_555 1_555
O28_47 C35_47 1_555 1_555
O33_16 C35_47 1_555 1_555
O74_47 Cd5_30 1_555 1_555
O78_47 Cd5_30 1_555 1_555
O79_47 Cd5_30 1_555 1_555
Cd5_31 O28_48 1_555 1_555
O14_48 In8_5 1_555 1_555
O18_31 C18_48 1_555 1_555
O21_48 In8_5 1_555 1_555
O28_48 C35_48 1_555 1_555
O33_14 C35_48 1_555 1_555
C17_48 O14_48 1_555 1_555
C18_48 O25_31 1_555 1_555
C21_48 C24_48 1_555 1_555
C24_48 C17_48 1_555 1_555
C25_48 C18_48 1_555 1_555
C29_48 C24_48 1_555 1_555
C30_48 C25_48 1_555 1_555
C33_48 C29_48 1_555 1_555
C35_48 C33_48 1_555 1_555
O74_48 Cd5_31 1_555 1_555
O78_48 Cd5_31 1_555 1_555
O79_48 Cd5_31 1_555 1_555
O21_48 C17_48 1_555 1_555
C21_48 C25_48 1_555 1_555
C30_48 C33_48 1_555 1_555
C30_48 H12_48 1_555 1_555
C29_48 H14_48 1_555 1_555
C21_48 H15_48 1_555 1_555

#END
