
###############################################################################
#
# This file contains modified crystal structure data generated from the
# MOF subset of the Cambridge Structural Database (CSD) v543 
# hosted by the Cambridge Crystallographic Data Centre (CCDC).
#
# This work is licensed under the Creative Commons
# Attribution-NonCommercial-ShareAlike 4.0 International License.
# To view a copy of this license, visit
# http://creativecommons.org/licenses/by-nc-sa/4.0/
# or send a letter to
# Creative Commons, PO Box 1866, Mountain View, CA 94042, USA.
#
# CIF created using the CSD Python API on 29 September 2022
# The structure has been converted into the P1 space group
# The structure has a 3D framework
# The original CSD entry HANMAO is in the orthorhombic crystal system
# The original CSD entry HANMAO is in a Sohncke space group
# The framework has been calculated to contain at least 10.0% void space
# The void calculation uses a probe of radius 1.32A, grid spacing 0.4
#
###############################################################################

data_HANMAO
_chemical_formula_moiety         '(C192 H160 F28 N16 O16 Si6 Zn3)n'
_symmetry_cell_setting           triclinic
_symmetry_space_group_name_H-M   'P 1'
_symmetry_Int_Tables_number      1
_space_group_name_Hall           'P 1'
loop_
_symmetry_equiv_pos_site_id
_symmetry_equiv_pos_as_xyz
1 x,y,z
_cell_length_a                   15.0501(6)
_cell_length_b                   27.7485(12)
_cell_length_c                   14.8660(6)
_cell_angle_alpha                90
_cell_angle_beta                 90
_cell_angle_gamma                90
_cell_volume                     6208.3
loop_
_atom_site_label
_atom_site_type_symbol
_atom_site_fract_x
_atom_site_fract_y
_atom_site_fract_z
N3 N 0.2312(2) 0.19305(14) 0.4086(2)
C25 C 0.1625(3) 0.19363(18) 0.3514(3)
H21 H 0.1285 0.2223 0.3450
C26 C 0.1402(3) 0.1536(2) 0.3017(3)
H22 H 0.0918 0.1553 0.2607
C27 C 0.1870(3) 0.11062(17) 0.3103(3)
C28 C 0.2609(3) 0.11164(17) 0.3687(3)
H23 H 0.2970 0.0839 0.3760
C29 C 0.2796(3) 0.15257(18) 0.4140(3)
H24 H 0.3302 0.1527 0.4522
C30 C 0.1625(3) 0.06539(16) 0.2630(3)
C31 C 0.0726(3) 0.05013(16) 0.2598(3)
C32 C 0.0484(3) 0.00769(16) 0.2154(3)
C35 C 0.2253(3) 0.03772(17) 0.2202(3)
H27 H 0.2857 0.0477 0.2209
O3 O 0.0054(3) 0.07717(10) 0.2993(2)
H30 H 0.0482 0.0522 0.4140
Zn2 Zn 0.2500 0.2500 0.50113(4)
N4 N 0.2408(3) 0.80097(15) 0.3874(2)
C37 C 0.1599(3) 0.82050(18) 0.3748(3)
H31 H 0.1199 0.8218 0.4241
C38 C 0.1324(3) 0.8389(2) 0.2916(3)
H32 H 0.0754 0.8532 0.2851
C39 C 0.1895(3) 0.83598(18) 0.2190(3)
C40 C 0.2743(3) 0.81747(18) 0.2332(3)
H33 H 0.3160 0.8162 0.1853
C41 C 0.2975(3) 0.80064(18) 0.3190(3)
H34 H 0.3558 0.7886 0.3285
C42 C 0.1634(3) 0.85309(17) 0.1273(3)
C43 C 0.0742(3) 0.84804(17) 0.0955(3)
C44 C 0.0475(3) 0.86852(17) 0.0135(3)
C47 C 0.2232(3) 0.87639(18) 0.0735(3)
H37 H 0.2832 0.8794 0.0926
O4 O 0.0109(2) 0.82358(12) 0.1455(2)
C48 C 0.0224(5) 0.7723(2) 0.1463(5)
H40 H 0.0859 0.7646 0.1487
Zn4 Zn 0.2500 0.7500 0.49887(4)
Si1 Si -0.0000 0.73412(6) 0.5000
F2 F -0.0000 0.79468(12) 0.5000
F4 F -0.0000 0.67360(13) 0.5000
C12 C 0.0021(6) 0.9288(2) 0.3919(4)
H8 H 0.0577 0.9456 0.4057
H9 H 0.0020 0.8971 0.4211
H18 H 0.0035 0.7585 0.9084
H19 H 0.0074 0.7587 0.8008
F5 F 0.11425(14) 0.73433(9) 0.4989(2)
F6 F 0.0006(2) 0.73390(10) 0.61266(16)
C33 C 0.1130(4) 0.98165(18) 0.1728(4)
H25 H 0.0962 0.9535 0.1405
C34 C 0.2020(3) 0.9945(2) 0.1748(3)
H26 H 0.2459 0.9751 0.1467
C45 C 0.1107(3) 0.89201(19) 0.9629(3)
H35 H 0.0943 0.9061 0.9071
C46 C 0.1979(3) 0.89548(19) 0.9920(4)
H36 H 0.2407 0.9112 0.9552
C9 C 0.8870(4) 0.01835(18) 0.1728(4)
H5 H 0.9038 0.0465 0.1405
C10 C 0.7980(3) 0.0055(2) 0.1748(3)
H6 H 0.7541 0.0249 0.1467
C36 C 0.9979(6) 0.0712(2) 0.3919(4)
H28 H 0.9423 0.0544 0.4057
H29 H 0.9980 0.1029 0.4211
C21 C 0.8893(3) 0.89201(19) 0.0371(3)
H15 H 0.9057 0.9061 0.0929
C22 C 0.8021(3) 0.89548(19) 0.0080(4)
H16 H 0.7593 0.9112 0.0448
H38 H 0.9965 0.7585 0.0916
H39 H 0.9926 0.7587 0.1992
Zn1 Zn 0.7500 0.7500 0.50113(4)
Si1_2 Si 1.0000 0.73412(6) 0.5000
F1 F 0.88575(14) 0.73433(9) 0.5011(2)
F2_2 F 1.0000 0.79468(12) 0.5000
F3 F 0.9994(2) 0.73390(10) 0.38734(16)
F4_2 F 1.0000 0.67360(13) 0.5000
N1 N 0.7688(2) 0.80695(14) 0.4086(2)
C1 C 0.8375(3) 0.80637(18) 0.3514(3)
H1 H 0.8715 0.7777 0.3450
C2 C 0.8598(3) 0.8464(2) 0.3017(3)
H2 H 0.9082 0.8447 0.2607
C3 C 0.8130(3) 0.88938(17) 0.3103(3)
C4 C 0.7391(3) 0.88836(17) 0.3687(3)
H3 H 0.7030 0.9161 0.3760
C5 C 0.7204(3) 0.84743(18) 0.4140(3)
H4 H 0.6698 0.8473 0.4522
C6 C 0.8375(3) 0.93461(16) 0.2630(3)
C7 C 0.9274(3) 0.94987(16) 0.2598(3)
C8 C 0.9516(3) 0.99231(16) 0.2154(3)
C11 C 0.7747(3) 0.96228(17) 0.2202(3)
H7 H 0.7143 0.9523 0.2209
O1 O 0.9946(3) 0.92283(10) 0.2993(2)
H10 H 0.9518 0.9478 0.4140
N2 N 0.7592(3) 0.80097(15) 0.6126(2)
C13 C 0.8401(3) 0.82050(18) 0.6252(3)
H11 H 0.8801 0.8218 0.5759
C14 C 0.8676(3) 0.8389(2) 0.7084(3)
H12 H 0.9246 0.8532 0.7149
C15 C 0.8105(3) 0.83598(18) 0.7810(3)
C16 C 0.7257(3) 0.81747(18) 0.7668(3)
H13 H 0.6840 0.8162 0.8147
C17 C 0.7025(3) 0.80064(18) 0.6810(3)
H14 H 0.6442 0.7886 0.6715
C18 C 0.8366(3) 0.85309(17) 0.8727(3)
C19 C 0.9258(3) 0.84804(17) 0.9045(3)
C20 C 0.9525(3) 0.86852(17) 0.9865(3)
C23 C 0.7768(3) 0.87639(18) 0.9265(3)
H17 H 0.7168 0.8794 0.9074
O2 O 0.9891(2) 0.82358(12) 0.8545(2)
C24 C 0.9776(5) 0.7723(2) 0.8537(5)
H20 H 0.9141 0.7646 0.8513
F7 F 0.61425(14) 0.76567(9) 0.5011(2)
N5 N 0.7312(2) 0.69305(14) 0.4086(2)
N6 N 0.7408(3) 0.69903(15) 0.6126(2)
C21_2 C 0.1107(3) 0.10799(19) 0.0371(3)
H15_2 H 0.0943 0.0939 0.0929
C22_2 C 0.1979(3) 0.10452(19) 0.0080(4)
H16_2 H 0.2407 0.0888 0.0448
H38_2 H 0.0035 0.2415 0.0916
H39_2 H 0.0074 0.2413 0.1992
Si1_3 Si 0.0000 0.26588(6) 0.5000
F1_2 F 0.11425(14) 0.26567(9) 0.5011(2)
F2_3 F 0.0000 0.20532(12) 0.5000
F3_2 F 0.0006(2) 0.26610(10) 0.38734(16)
F4_3 F 0.0000 0.32640(13) 0.5000
N2_2 N 0.2408(3) 0.19903(15) 0.6126(2)
C13_2 C 0.1599(3) 0.17950(18) 0.6252(3)
H11_2 H 0.1199 0.1782 0.5759
C14_2 C 0.1324(3) 0.1611(2) 0.7084(3)
H12_2 H 0.0754 0.1468 0.7149
C15_2 C 0.1895(3) 0.16402(18) 0.7810(3)
C16_2 C 0.2743(3) 0.18253(18) 0.7668(3)
H13_2 H 0.3160 0.1838 0.8147
C17_2 C 0.2975(3) 0.19936(18) 0.6810(3)
H14_2 H 0.3558 0.2114 0.6715
C18_2 C 0.1634(3) 0.14691(17) 0.8727(3)
C19_2 C 0.0742(3) 0.15196(17) 0.9045(3)
C20_2 C 0.0475(3) 0.13148(17) 0.9865(3)
C23_2 C 0.2232(3) 0.12361(18) 0.9265(3)
H17_2 H 0.2832 0.1206 0.9074
O2_2 O 0.0109(2) 0.17642(12) 0.8545(2)
C24_2 C 0.0224(5) 0.2277(2) 0.8537(5)
H20_2 H 0.0859 0.2354 0.8513
F7_2 F 0.38575(14) 0.23433(9) 0.5011(2)
N5_2 N 0.2688(2) 0.30695(14) 0.4086(2)
N6_2 N 0.2592(3) 0.30097(15) 0.6126(2)
N4_2 N 0.7592(3) 0.19903(15) 0.3874(2)
C37_2 C 0.8401(3) 0.17950(18) 0.3748(3)
H31_2 H 0.8801 0.1782 0.4241
C38_2 C 0.8676(3) 0.1611(2) 0.2916(3)
H32_2 H 0.9246 0.1468 0.2851
C39_2 C 0.8105(3) 0.16402(18) 0.2190(3)
C40_2 C 0.7257(3) 0.18253(18) 0.2332(3)
H33_2 H 0.6840 0.1838 0.1853
C41_2 C 0.7025(3) 0.19936(18) 0.3190(3)
H34_2 H 0.6442 0.2114 0.3285
C42_2 C 0.8366(3) 0.14691(17) 0.1273(3)
C43_2 C 0.9258(3) 0.15196(17) 0.0955(3)
C44_2 C 0.9525(3) 0.13148(17) 0.0135(3)
C47_2 C 0.7768(3) 0.12361(18) 0.0735(3)
H37_2 H 0.7168 0.1206 0.0926
O4_2 O 0.9891(2) 0.17642(12) 0.1455(2)
C48_2 C 0.9776(5) 0.2277(2) 0.1463(5)
H40_2 H 0.9141 0.2354 0.1487
Zn4_2 Zn 0.7500 0.2500 0.49887(4)
Si1_4 Si 1.0000 0.26588(6) 0.5000
F2_4 F 1.0000 0.20532(12) 0.5000
F4_4 F 1.0000 0.32640(13) 0.5000
H18_2 H 0.9965 0.2415 0.9084
H19_2 H 0.9926 0.2413 0.8008
F5_2 F 0.88575(14) 0.26567(9) 0.4989(2)
F6_2 F 0.9994(2) 0.26610(10) 0.61266(16)
C45_2 C 0.8893(3) 0.10799(19) 0.9629(3)
H35_2 H 0.9057 0.0939 0.9071
C46_2 C 0.8021(3) 0.10452(19) 0.9920(4)
H36_2 H 0.7593 0.0888 0.9552
C9_2 C 0.1130(4) 0.01835(18) 0.8272(4)
H5_2 H 0.0962 0.0465 0.8595
C10_2 C 0.2020(3) 0.0055(2) 0.8252(3)
H6_2 H 0.2459 0.0249 0.8533
C36_2 C 0.0021(6) 0.0712(2) 0.6081(4)
H28_2 H 0.0577 0.0544 0.5943
H29_2 H 0.0020 0.1029 0.5789
N1_2 N 0.2312(2) 0.80695(14) 0.5914(2)
C1_2 C 0.1625(3) 0.80637(18) 0.6486(3)
H1_2 H 0.1285 0.7777 0.6550
C2_2 C 0.1402(3) 0.8464(2) 0.6983(3)
H2_2 H 0.0918 0.8447 0.7393
C3_2 C 0.1870(3) 0.88938(17) 0.6897(3)
C4_2 C 0.2609(3) 0.88836(17) 0.6313(3)
H3_2 H 0.2970 0.9161 0.6240
C5_2 C 0.2796(3) 0.84743(18) 0.5860(3)
H4_2 H 0.3302 0.8473 0.5478
C6_2 C 0.1625(3) 0.93461(16) 0.7370(3)
C7_2 C 0.0726(3) 0.94987(16) 0.7402(3)
C8_2 C 0.0484(3) 0.99231(16) 0.7846(3)
C11_2 C 0.2253(3) 0.96228(17) 0.7798(3)
H7_2 H 0.2857 0.9523 0.7791
O1_2 O 0.0054(3) 0.92283(10) 0.7007(2)
H10_2 H 0.0482 0.9478 0.5860
F7_3 F 0.38575(14) 0.76567(9) 0.4989(2)
N5_3 N 0.2688(2) 0.69305(14) 0.5914(2)
N6_3 N 0.2592(3) 0.69903(15) 0.3874(2)
N3_2 N 0.7688(2) 0.19305(14) 0.5914(2)
C25_2 C 0.8375(3) 0.19363(18) 0.6486(3)
H21_2 H 0.8715 0.2223 0.6550
C26_2 C 0.8598(3) 0.1536(2) 0.6983(3)
H22_2 H 0.9082 0.1553 0.7393
C27_2 C 0.8130(3) 0.11062(17) 0.6897(3)
C28_2 C 0.7391(3) 0.11164(17) 0.6313(3)
H23_2 H 0.7030 0.0839 0.6240
C29_2 C 0.7204(3) 0.15257(18) 0.5860(3)
H24_2 H 0.6698 0.1527 0.5478
C30_2 C 0.8375(3) 0.06539(16) 0.7370(3)
C31_2 C 0.9274(3) 0.05013(16) 0.7402(3)
C32_2 C 0.9516(3) 0.00769(16) 0.7846(3)
C35_2 C 0.7747(3) 0.03772(17) 0.7798(3)
H27_2 H 0.7143 0.0477 0.7791
O3_2 O 0.9946(3) 0.07717(10) 0.7007(2)
H30_2 H 0.9518 0.0522 0.5860
C12_2 C 0.9979(6) 0.9288(2) 0.6081(4)
H8_2 H 0.9423 0.9456 0.5943
H9_2 H 0.9980 0.8971 0.5789
C33_2 C 0.8870(4) 0.98165(18) 0.8272(4)
H25_2 H 0.9038 0.9535 0.8595
C34_2 C 0.7980(3) 0.9945(2) 0.8252(3)
H26_2 H 0.7541 0.9751 0.8533
F7_4 F 0.61425(14) 0.23433(9) 0.4989(2)
N5_4 N 0.7312(2) 0.30695(14) 0.5914(2)
N6_4 N 0.7408(3) 0.30097(15) 0.3874(2)
C21_3 C 0.3893(3) 0.39201(19) 0.0371(3)
H15_3 H 0.4057 0.4061 0.0929
C22_3 C 0.3021(3) 0.39548(19) 0.0080(4)
H16_3 H 0.2593 0.4112 0.0448
C37_3 C 0.6599(3) 0.32050(18) 0.3748(3)
H31_3 H 0.6199 0.3218 0.4241
C38_3 C 0.6324(3) 0.3389(2) 0.2916(3)
H32_3 H 0.5754 0.3532 0.2851
C39_3 C 0.6895(3) 0.33598(18) 0.2190(3)
C40_3 C 0.7743(3) 0.31747(18) 0.2332(3)
H33_3 H 0.8160 0.3162 0.1853
C41_3 C 0.7975(3) 0.30064(18) 0.3190(3)
H34_3 H 0.8558 0.2886 0.3285
C42_3 C 0.6634(3) 0.35309(17) 0.1273(3)
C43_3 C 0.5742(3) 0.34804(17) 0.0955(3)
C44_3 C 0.5475(3) 0.36852(17) 0.0135(3)
C47_3 C 0.7232(3) 0.37639(18) 0.0735(3)
H37_3 H 0.7832 0.3794 0.0926
O4_3 O 0.5109(2) 0.32358(12) 0.1455(2)
C48_3 C 0.5224(5) 0.2723(2) 0.1463(5)
H38_3 H 0.4965 0.2585 0.0916
H39_3 H 0.4926 0.2587 0.1992
H40_3 H 0.5859 0.2646 0.1487
Si1_5 Si 0.5000 0.23412(6) 0.5000
F2_5 F 0.5000 0.29468(12) 0.5000
F3_3 F 0.4994(2) 0.23390(10) 0.38734(16)
F4_5 F 0.5000 0.17360(13) 0.5000
C1_3 C 0.3375(3) 0.30637(18) 0.3514(3)
H1_3 H 0.3715 0.2777 0.3450
C2_3 C 0.3598(3) 0.3464(2) 0.3017(3)
H2_3 H 0.4082 0.3447 0.2607
C3_3 C 0.3130(3) 0.38938(17) 0.3103(3)
C4_3 C 0.2391(3) 0.38836(17) 0.3687(3)
H3_3 H 0.2030 0.4161 0.3760
C5_3 C 0.2204(3) 0.34743(18) 0.4140(3)
H4_3 H 0.1698 0.3473 0.4522
C6_3 C 0.3375(3) 0.43461(16) 0.2630(3)
C7_3 C 0.4274(3) 0.44987(16) 0.2598(3)
C8_3 C 0.4516(3) 0.49231(16) 0.2154(3)
C9_3 C 0.3870(4) 0.51835(18) 0.1728(4)
H5_3 H 0.4038 0.5465 0.1405
C10_3 C 0.2980(3) 0.5055(2) 0.1748(3)
H6_3 H 0.2541 0.5249 0.1467
C11_3 C 0.2747(3) 0.46228(17) 0.2202(3)
H7_3 H 0.2143 0.4523 0.2209
O1_3 O 0.4946(3) 0.42283(10) 0.2993(2)
C12_3 C 0.5021(6) 0.4288(2) 0.3919(4)
H8_3 H 0.5577 0.4456 0.4057
H9_3 H 0.5020 0.3971 0.4211
H10_3 H 0.4518 0.4478 0.4140
C13_3 C 0.3401(3) 0.32050(18) 0.6252(3)
H11_3 H 0.3801 0.3218 0.5759
C14_3 C 0.3676(3) 0.3389(2) 0.7084(3)
H12_3 H 0.4246 0.3532 0.7149
C15_3 C 0.3105(3) 0.33598(18) 0.7810(3)
C16_3 C 0.2257(3) 0.31747(18) 0.7668(3)
H13_3 H 0.1840 0.3162 0.8147
C17_3 C 0.2025(3) 0.30064(18) 0.6810(3)
H14_3 H 0.1442 0.2886 0.6715
C18_3 C 0.3366(3) 0.35309(17) 0.8727(3)
C19_3 C 0.4258(3) 0.34804(17) 0.9045(3)
C20_3 C 0.4525(3) 0.36852(17) 0.9865(3)
C23_3 C 0.2768(3) 0.37639(18) 0.9265(3)
H17_3 H 0.2168 0.3794 0.9074
O2_3 O 0.4891(2) 0.32358(12) 0.8545(2)
C24_3 C 0.4776(5) 0.2723(2) 0.8537(5)
H18_3 H 0.5035 0.2585 0.9084
H19_3 H 0.5074 0.2587 0.8008
H20_3 H 0.4141 0.2646 0.8513
F6_3 F 0.5006(2) 0.23390(10) 0.61266(16)
C25_3 C 0.6625(3) 0.69363(18) 0.3514(3)
H21_3 H 0.6285 0.7223 0.3450
C26_3 C 0.6402(3) 0.6536(2) 0.3017(3)
H22_3 H 0.5918 0.6553 0.2607
C27_3 C 0.6870(3) 0.61062(17) 0.3103(3)
C28_3 C 0.7609(3) 0.61164(17) 0.3687(3)
H23_3 H 0.7970 0.5839 0.3760
C29_3 C 0.7796(3) 0.65257(18) 0.4140(3)
H24_3 H 0.8302 0.6527 0.4522
C30_3 C 0.6625(3) 0.56539(16) 0.2630(3)
C31_3 C 0.5726(3) 0.55013(16) 0.2598(3)
C32_3 C 0.5484(3) 0.50769(16) 0.2154(3)
C33_3 C 0.6130(4) 0.48165(18) 0.1728(4)
H25_3 H 0.5962 0.4535 0.1405
C34_3 C 0.7020(3) 0.4945(2) 0.1748(3)
H26_3 H 0.7459 0.4751 0.1467
C35_3 C 0.7253(3) 0.53772(17) 0.2202(3)
H27_3 H 0.7857 0.5477 0.2209
O3_3 O 0.5054(3) 0.57717(10) 0.2993(2)
C36_3 C 0.4979(6) 0.5712(2) 0.3919(4)
H28_3 H 0.4423 0.5544 0.4057
H29_3 H 0.4980 0.6029 0.4211
H30_3 H 0.5482 0.5522 0.4140
C45_3 C 0.6107(3) 0.39201(19) 0.9629(3)
H35_3 H 0.5943 0.4061 0.9071
C46_3 C 0.6979(3) 0.39548(19) 0.9920(4)
H36_3 H 0.7407 0.4112 0.9552
C21_4 C 0.6107(3) 0.60799(19) 0.0371(3)
H15_4 H 0.5943 0.5939 0.0929
C22_4 C 0.6979(3) 0.60452(19) 0.0080(4)
H16_4 H 0.7407 0.5888 0.0448
C37_4 C 0.3401(3) 0.67950(18) 0.3748(3)
H31_4 H 0.3801 0.6782 0.4241
C38_4 C 0.3676(3) 0.6611(2) 0.2916(3)
H32_4 H 0.4246 0.6468 0.2851
C39_4 C 0.3105(3) 0.66402(18) 0.2190(3)
C40_4 C 0.2257(3) 0.68253(18) 0.2332(3)
H33_4 H 0.1840 0.6838 0.1853
C41_4 C 0.2025(3) 0.69936(18) 0.3190(3)
H34_4 H 0.1442 0.7114 0.3285
C42_4 C 0.3366(3) 0.64691(17) 0.1273(3)
C43_4 C 0.4258(3) 0.65196(17) 0.0955(3)
C44_4 C 0.4525(3) 0.63148(17) 0.0135(3)
C47_4 C 0.2768(3) 0.62361(18) 0.0735(3)
H37_4 H 0.2168 0.6206 0.0926
O4_4 O 0.4891(2) 0.67642(12) 0.1455(2)
C48_4 C 0.4776(5) 0.7277(2) 0.1463(5)
H38_4 H 0.5035 0.7415 0.0916
H39_4 H 0.5074 0.7413 0.1992
H40_4 H 0.4141 0.7354 0.1487
Si1_6 Si 0.5000 0.76588(6) 0.5000
F2_6 F 0.5000 0.70532(12) 0.5000
F3_4 F 0.5006(2) 0.76610(10) 0.38734(16)
F4_6 F 0.5000 0.82640(13) 0.5000
C13_4 C 0.6599(3) 0.67950(18) 0.6252(3)
H11_4 H 0.6199 0.6782 0.5759
C14_4 C 0.6324(3) 0.6611(2) 0.7084(3)
H12_4 H 0.5754 0.6468 0.7149
C15_4 C 0.6895(3) 0.66402(18) 0.7810(3)
C16_4 C 0.7743(3) 0.68253(18) 0.7668(3)
H13_4 H 0.8160 0.6838 0.8147
C17_4 C 0.7975(3) 0.69936(18) 0.6810(3)
H14_4 H 0.8558 0.7114 0.6715
C18_4 C 0.6634(3) 0.64691(17) 0.8727(3)
C19_4 C 0.5742(3) 0.65196(17) 0.9045(3)
C20_4 C 0.5475(3) 0.63148(17) 0.9865(3)
C23_4 C 0.7232(3) 0.62361(18) 0.9265(3)
H17_4 H 0.7832 0.6206 0.9074
O2_4 O 0.5109(2) 0.67642(12) 0.8545(2)
C24_4 C 0.5224(5) 0.7277(2) 0.8537(5)
H18_4 H 0.4965 0.7415 0.9084
H19_4 H 0.4926 0.7413 0.8008
H20_4 H 0.5859 0.7354 0.8513
F6_4 F 0.4994(2) 0.76610(10) 0.61266(16)
C45_4 C 0.3893(3) 0.60799(19) 0.9629(3)
H35_4 H 0.4057 0.5939 0.9071
C46_4 C 0.3021(3) 0.60452(19) 0.9920(4)
H36_4 H 0.2593 0.5888 0.9552
C1_4 C 0.6625(3) 0.30637(18) 0.6486(3)
H1_4 H 0.6285 0.2777 0.6550
C2_4 C 0.6402(3) 0.3464(2) 0.6983(3)
H2_4 H 0.5918 0.3447 0.7393
C3_4 C 0.6870(3) 0.38938(17) 0.6897(3)
C4_4 C 0.7609(3) 0.38836(17) 0.6313(3)
H3_4 H 0.7970 0.4161 0.6240
C5_4 C 0.7796(3) 0.34743(18) 0.5860(3)
H4_4 H 0.8302 0.3473 0.5478
C6_4 C 0.6625(3) 0.43461(16) 0.7370(3)
C7_4 C 0.5726(3) 0.44987(16) 0.7402(3)
C8_4 C 0.5484(3) 0.49231(16) 0.7846(3)
C9_4 C 0.6130(4) 0.51835(18) 0.8272(4)
H5_4 H 0.5962 0.5465 0.8595
C10_4 C 0.7020(3) 0.5055(2) 0.8252(3)
H6_4 H 0.7459 0.5249 0.8533
C11_4 C 0.7253(3) 0.46228(17) 0.7798(3)
H7_4 H 0.7857 0.4523 0.7791
O1_4 O 0.5054(3) 0.42283(10) 0.7007(2)
C12_4 C 0.4979(6) 0.4288(2) 0.6081(4)
H8_4 H 0.4423 0.4456 0.5943
H9_4 H 0.4980 0.3971 0.5789
H10_4 H 0.5482 0.4478 0.5860
C25_4 C 0.3375(3) 0.69363(18) 0.6486(3)
H21_4 H 0.3715 0.7223 0.6550
C26_4 C 0.3598(3) 0.6536(2) 0.6983(3)
H22_4 H 0.4082 0.6553 0.7393
C27_4 C 0.3130(3) 0.61062(17) 0.6897(3)
C28_4 C 0.2391(3) 0.61164(17) 0.6313(3)
H23_4 H 0.2030 0.5839 0.6240
C29_4 C 0.2204(3) 0.65257(18) 0.5860(3)
H24_4 H 0.1698 0.6527 0.5478
C30_4 C 0.3375(3) 0.56539(16) 0.7370(3)
C31_4 C 0.4274(3) 0.55013(16) 0.7402(3)
C32_4 C 0.4516(3) 0.50769(16) 0.7846(3)
C33_4 C 0.3870(4) 0.48165(18) 0.8272(4)
H25_4 H 0.4038 0.4535 0.8595
C34_4 C 0.2980(3) 0.4945(2) 0.8252(3)
H26_4 H 0.2541 0.4751 0.8533
C35_4 C 0.2747(3) 0.53772(17) 0.7798(3)
H27_4 H 0.2143 0.5477 0.7791
O3_4 O 0.4946(3) 0.57717(10) 0.7007(2)
C36_4 C 0.5021(6) 0.5712(2) 0.6081(4)
H28_4 H 0.5577 0.5544 0.5943
H29_4 H 0.5020 0.6029 0.5789
H30_4 H 0.4518 0.5522 0.5860
loop_
_geom_bond_atom_site_label_1
_geom_bond_atom_site_label_2
_geom_bond_site_symmetry_1
_geom_bond_site_symmetry_2
N3 C25 1_555 1_555
C25 H21 1_555 1_555
C26 C25 1_555 1_555
H22 C26 1_555 1_555
C27 C26 1_555 1_555
C28 C27 1_555 1_555
H23 C28 1_555 1_555
C29 N3 1_555 1_555
H24 C29 1_555 1_555
C30 C27 1_555 1_555
C31 C30 1_555 1_555
C35 C30 1_555 1_555
H27 C35 1_555 1_555
O3 C31 1_555 1_555
Zn2 N3 1_555 1_555
C28 C29 1_555 1_555
C31 C32 1_555 1_555
N4 C37 1_555 1_555
C37 H31 1_555 1_555
C38 C37 1_555 1_555
H32 C38 1_555 1_555
C39 C38 1_555 1_555
C40 C39 1_555 1_555
H33 C40 1_555 1_555
C41 N4 1_555 1_555
H34 C41 1_555 1_555
C42 C39 1_555 1_555
C43 C42 1_555 1_555
C47 C42 1_555 1_555
H37 C47 1_555 1_555
O4 C43 1_555 1_555
C48 O4 1_555 1_555
H40 C48 1_555 1_555
Zn4 N4 1_555 1_555
C40 C41 1_555 1_555
C43 C44 1_555 1_555
F2 Si1 1_555 1_555
F4 Si1 1_555 1_555
H8 C12 1_555 1_555
H9 C12 1_555 1_555
F5 Si1 1_555 1_555
F6 Si1 1_555 1_555
H25 C33 1_555 1_555
C34 C33 1_555 1_555
H26 C34 1_555 1_555
H35 C45 1_555 1_555
C46 C45 1_555 1_555
H36 C46 1_555 1_555
Zn4 F5 1_555 1_555
H5 C9 1_555 1_555
C10 C9 1_555 1_555
H6 C10 1_555 1_555
H28 C36 1_555 1_555
H29 C36 1_555 1_555
H15 C21 1_555 1_555
C22 C21 1_555 1_555
H16 C22 1_555 1_555
Zn1 F1 1_555 1_555
Si1_2 F1 1_555 1_555
F2_2 Si1_2 1_555 1_555
F3 Si1_2 1_555 1_555
F4_2 Si1_2 1_555 1_555
N1 Zn1 1_555 1_555
C1 N1 1_555 1_555
H1 C1 1_555 1_555
C2 C1 1_555 1_555
H2 C2 1_555 1_555
C3 C2 1_555 1_555
C4 C3 1_555 1_555
H3 C4 1_555 1_555
C5 N1 1_555 1_555
H4 C5 1_555 1_555
C6 C3 1_555 1_555
C7 C6 1_555 1_555
C8 C7 1_555 1_555
C11 C6 1_555 1_555
H7 C11 1_555 1_555
O1 C7 1_555 1_555
N2 Zn1 1_555 1_555
C13 N2 1_555 1_555
H11 C13 1_555 1_555
C14 C13 1_555 1_555
H12 C14 1_555 1_555
C15 C14 1_555 1_555
C16 C15 1_555 1_555
H13 C16 1_555 1_555
C17 N2 1_555 1_555
H14 C17 1_555 1_555
C18 C15 1_555 1_555
C19 C18 1_555 1_555
C20 C19 1_555 1_555
C23 C18 1_555 1_555
H17 C23 1_555 1_555
O2 C19 1_555 1_555
C24 O2 1_555 1_555
H20 C24 1_555 1_555
F7 Zn1 1_555 1_555
N5 Zn1 1_555 1_555
N6 Zn1 1_555 1_555
C4 C5 1_555 1_555
C16 C17 1_555 1_555
H15_2 C21_2 1_555 1_555
C22_2 C21_2 1_555 1_555
H16_2 C22_2 1_555 1_555
Zn2 F1_2 1_555 1_555
Si1_3 F1_2 1_555 1_555
F2_3 Si1_3 1_555 1_555
F3_2 Si1_3 1_555 1_555
F4_3 Si1_3 1_555 1_555
N2_2 Zn2 1_555 1_555
C13_2 N2_2 1_555 1_555
H11_2 C13_2 1_555 1_555
C14_2 C13_2 1_555 1_555
H12_2 C14_2 1_555 1_555
C15_2 C14_2 1_555 1_555
C16_2 C15_2 1_555 1_555
H13_2 C16_2 1_555 1_555
C17_2 N2_2 1_555 1_555
H14_2 C17_2 1_555 1_555
C18_2 C15_2 1_555 1_555
C19_2 C18_2 1_555 1_555
C20_2 C19_2 1_555 1_555
C23_2 C18_2 1_555 1_555
H17_2 C23_2 1_555 1_555
O2_2 C19_2 1_555 1_555
C24_2 O2_2 1_555 1_555
H20_2 C24_2 1_555 1_555
F7_2 Zn2 1_555 1_555
N5_2 Zn2 1_555 1_555
N6_2 Zn2 1_555 1_555
C16_2 C17_2 1_555 1_555
N4_2 C37_2 1_555 1_555
C37_2 H31_2 1_555 1_555
C38_2 C37_2 1_555 1_555
H32_2 C38_2 1_555 1_555
C39_2 C38_2 1_555 1_555
C40_2 C39_2 1_555 1_555
H33_2 C40_2 1_555 1_555
C41_2 N4_2 1_555 1_555
H34_2 C41_2 1_555 1_555
C42_2 C39_2 1_555 1_555
C43_2 C42_2 1_555 1_555
C47_2 C42_2 1_555 1_555
H37_2 C47_2 1_555 1_555
O4_2 C43_2 1_555 1_555
C48_2 O4_2 1_555 1_555
H40_2 C48_2 1_555 1_555
Zn4_2 N4_2 1_555 1_555
C40_2 C41_2 1_555 1_555
C43_2 C44_2 1_555 1_555
F2_4 Si1_4 1_555 1_555
F4_4 Si1_4 1_555 1_555
F5_2 Si1_4 1_555 1_555
F6_2 Si1_4 1_555 1_555
H35_2 C45_2 1_555 1_555
C46_2 C45_2 1_555 1_555
H36_2 C46_2 1_555 1_555
Zn4_2 F5_2 1_555 1_555
H5_2 C9_2 1_555 1_555
C10_2 C9_2 1_555 1_555
H6_2 C10_2 1_555 1_555
H28_2 C36_2 1_555 1_555
H29_2 C36_2 1_555 1_555
N1_2 Zn4 1_555 1_555
C1_2 N1_2 1_555 1_555
H1_2 C1_2 1_555 1_555
C2_2 C1_2 1_555 1_555
H2_2 C2_2 1_555 1_555
C3_2 C2_2 1_555 1_555
C4_2 C3_2 1_555 1_555
H3_2 C4_2 1_555 1_555
C5_2 N1_2 1_555 1_555
H4_2 C5_2 1_555 1_555
C6_2 C3_2 1_555 1_555
C7_2 C6_2 1_555 1_555
C8_2 C7_2 1_555 1_555
C11_2 C6_2 1_555 1_555
H7_2 C11_2 1_555 1_555
O1_2 C7_2 1_555 1_555
F7_3 Zn4 1_555 1_555
N5_3 Zn4 1_555 1_555
N6_3 Zn4 1_555 1_555
C4_2 C5_2 1_555 1_555
N3_2 C25_2 1_555 1_555
C25_2 H21_2 1_555 1_555
C26_2 C25_2 1_555 1_555
H22_2 C26_2 1_555 1_555
C27_2 C26_2 1_555 1_555
C28_2 C27_2 1_555 1_555
H23_2 C28_2 1_555 1_555
C29_2 N3_2 1_555 1_555
H24_2 C29_2 1_555 1_555
C30_2 C27_2 1_555 1_555
C31_2 C30_2 1_555 1_555
C35_2 C30_2 1_555 1_555
H27_2 C35_2 1_555 1_555
O3_2 C31_2 1_555 1_555
Zn4_2 N3_2 1_555 1_555
C28_2 C29_2 1_555 1_555
C31_2 C32_2 1_555 1_555
H8_2 C12_2 1_555 1_555
H9_2 C12_2 1_555 1_555
H25_2 C33_2 1_555 1_555
C34_2 C33_2 1_555 1_555
H26_2 C34_2 1_555 1_555
F7_4 Zn4_2 1_555 1_555
N5_4 Zn4_2 1_555 1_555
N6_4 Zn4_2 1_555 1_555
H15_3 C21_3 1_555 1_555
C22_3 C21_3 1_555 1_555
H16_3 C22_3 1_555 1_555
N6_4 C37_3 1_555 1_555
C37_3 H31_3 1_555 1_555
C38_3 C37_3 1_555 1_555
H32_3 C38_3 1_555 1_555
C39_3 C38_3 1_555 1_555
C40_3 C39_3 1_555 1_555
H33_3 C40_3 1_555 1_555
C41_3 N6_4 1_555 1_555
H34_3 C41_3 1_555 1_555
C42_3 C39_3 1_555 1_555
C43_3 C42_3 1_555 1_555
C47_3 C42_3 1_555 1_555
H37_3 C47_3 1_555 1_555
O4_3 C43_3 1_555 1_555
C48_3 O4_3 1_555 1_555
H38_3 C48_3 1_555 1_555
H39_3 C48_3 1_555 1_555
H40_3 C48_3 1_555 1_555
C40_3 C41_3 1_555 1_555
C43_3 C44_3 1_555 1_555
Si1_5 F7_2 1_555 1_555
F2_5 Si1_5 1_555 1_555
F3_3 Si1_5 1_555 1_555
F4_5 Si1_5 1_555 1_555
C1_3 N5_2 1_555 1_555
H1_3 C1_3 1_555 1_555
C2_3 C1_3 1_555 1_555
H2_3 C2_3 1_555 1_555
C3_3 C2_3 1_555 1_555
C4_3 C3_3 1_555 1_555
H3_3 C4_3 1_555 1_555
C5_3 N5_2 1_555 1_555
H4_3 C5_3 1_555 1_555
C6_3 C3_3 1_555 1_555
C7_3 C6_3 1_555 1_555
C8_3 C7_3 1_555 1_555
C9_3 C8_3 1_555 1_555
H5_3 C9_3 1_555 1_555
C10_3 C9_3 1_555 1_555
H6_3 C10_3 1_555 1_555
C11_3 C6_3 1_555 1_555
H7_3 C11_3 1_555 1_555
O1_3 C7_3 1_555 1_555
C12_3 O1_3 1_555 1_555
H8_3 C12_3 1_555 1_555
H9_3 C12_3 1_555 1_555
H10_3 C12_3 1_555 1_555
C13_3 N6_2 1_555 1_555
H11_3 C13_3 1_555 1_555
C14_3 C13_3 1_555 1_555
H12_3 C14_3 1_555 1_555
C15_3 C14_3 1_555 1_555
C16_3 C15_3 1_555 1_555
H13_3 C16_3 1_555 1_555
C17_3 N6_2 1_555 1_555
H14_3 C17_3 1_555 1_555
C18_3 C15_3 1_555 1_555
C19_3 C18_3 1_555 1_555
C20_3 C19_3 1_555 1_555
C23_3 C18_3 1_555 1_555
H17_3 C23_3 1_555 1_555
O2_3 C19_3 1_555 1_555
C24_3 O2_3 1_555 1_555
H18_3 C24_3 1_555 1_555
H19_3 C24_3 1_555 1_555
H20_3 C24_3 1_555 1_555
F7_4 Si1_5 1_555 1_555
F6_3 Si1_5 1_555 1_555
N5 C25_3 1_555 1_555
C25_3 H21_3 1_555 1_555
C26_3 C25_3 1_555 1_555
H22_3 C26_3 1_555 1_555
C27_3 C26_3 1_555 1_555
C28_3 C27_3 1_555 1_555
H23_3 C28_3 1_555 1_555
C29_3 N5 1_555 1_555
H24_3 C29_3 1_555 1_555
C30_3 C27_3 1_555 1_555
C31_3 C30_3 1_555 1_555
C32_3 C8_3 1_555 1_555
C33_3 C32_3 1_555 1_555
H25_3 C33_3 1_555 1_555
C34_3 C33_3 1_555 1_555
H26_3 C34_3 1_555 1_555
C35_3 C30_3 1_555 1_555
H27_3 C35_3 1_555 1_555
O3_3 C31_3 1_555 1_555
C36_3 O3_3 1_555 1_555
H28_3 C36_3 1_555 1_555
H29_3 C36_3 1_555 1_555
H30_3 C36_3 1_555 1_555
H35_3 C45_3 1_555 1_555
C46_3 C45_3 1_555 1_555
H36_3 C46_3 1_555 1_555
C4_3 C5_3 1_555 1_555
C10_3 C11_3 1_555 1_555
C16_3 C17_3 1_555 1_555
C28_3 C29_3 1_555 1_555
C31_3 C32_3 1_555 1_555
C34_3 C35_3 1_555 1_555
H15_4 C21_4 1_555 1_555
C22_4 C21_4 1_555 1_555
H16_4 C22_4 1_555 1_555
N6_3 C37_4 1_555 1_555
C37_4 H31_4 1_555 1_555
C38_4 C37_4 1_555 1_555
H32_4 C38_4 1_555 1_555
C39_4 C38_4 1_555 1_555
C40_4 C39_4 1_555 1_555
H33_4 C40_4 1_555 1_555
C41_4 N6_3 1_555 1_555
H34_4 C41_4 1_555 1_555
C42_4 C39_4 1_555 1_555
C43_4 C42_4 1_555 1_555
C47_4 C42_4 1_555 1_555
H37_4 C47_4 1_555 1_555
O4_4 C43_4 1_555 1_555
C48_4 O4_4 1_555 1_555
H38_4 C48_4 1_555 1_555
H39_4 C48_4 1_555 1_555
H40_4 C48_4 1_555 1_555
C40_4 C41_4 1_555 1_555
C43_4 C44_4 1_555 1_555
Si1_6 F7 1_555 1_555
F2_6 Si1_6 1_555 1_555
F3_4 Si1_6 1_555 1_555
F4_6 Si1_6 1_555 1_555
C13_4 N6 1_555 1_555
H11_4 C13_4 1_555 1_555
C14_4 C13_4 1_555 1_555
H12_4 C14_4 1_555 1_555
C15_4 C14_4 1_555 1_555
C16_4 C15_4 1_555 1_555
H13_4 C16_4 1_555 1_555
C17_4 N6 1_555 1_555
H14_4 C17_4 1_555 1_555
C18_4 C15_4 1_555 1_555
C19_4 C18_4 1_555 1_555
C20_4 C19_4 1_555 1_555
C23_4 C18_4 1_555 1_555
H17_4 C23_4 1_555 1_555
O2_4 C19_4 1_555 1_555
C24_4 O2_4 1_555 1_555
H18_4 C24_4 1_555 1_555
H19_4 C24_4 1_555 1_555
H20_4 C24_4 1_555 1_555
F7_3 Si1_6 1_555 1_555
F6_4 Si1_6 1_555 1_555
H35_4 C45_4 1_555 1_555
C46_4 C45_4 1_555 1_555
H36_4 C46_4 1_555 1_555
C16_4 C17_4 1_555 1_555
C1_4 N5_4 1_555 1_555
H1_4 C1_4 1_555 1_555
C2_4 C1_4 1_555 1_555
H2_4 C2_4 1_555 1_555
C3_4 C2_4 1_555 1_555
C4_4 C3_4 1_555 1_555
H3_4 C4_4 1_555 1_555
C5_4 N5_4 1_555 1_555
H4_4 C5_4 1_555 1_555
C6_4 C3_4 1_555 1_555
C7_4 C6_4 1_555 1_555
C8_4 C7_4 1_555 1_555
C9_4 C8_4 1_555 1_555
H5_4 C9_4 1_555 1_555
C10_4 C9_4 1_555 1_555
H6_4 C10_4 1_555 1_555
C11_4 C6_4 1_555 1_555
H7_4 C11_4 1_555 1_555
O1_4 C7_4 1_555 1_555
C12_4 O1_4 1_555 1_555
H8_4 C12_4 1_555 1_555
H9_4 C12_4 1_555 1_555
H10_4 C12_4 1_555 1_555
N5_3 C25_4 1_555 1_555
C25_4 H21_4 1_555 1_555
C26_4 C25_4 1_555 1_555
H22_4 C26_4 1_555 1_555
C27_4 C26_4 1_555 1_555
C28_4 C27_4 1_555 1_555
H23_4 C28_4 1_555 1_555
C29_4 N5_3 1_555 1_555
H24_4 C29_4 1_555 1_555
C30_4 C27_4 1_555 1_555
C31_4 C30_4 1_555 1_555
C32_4 C8_4 1_555 1_555
C33_4 C32_4 1_555 1_555
H25_4 C33_4 1_555 1_555
C34_4 C33_4 1_555 1_555
H26_4 C34_4 1_555 1_555
C35_4 C30_4 1_555 1_555
H27_4 C35_4 1_555 1_555
O3_4 C31_4 1_555 1_555
C36_4 O3_4 1_555 1_555
H28_4 C36_4 1_555 1_555
H29_4 C36_4 1_555 1_555
H30_4 C36_4 1_555 1_555
C4_4 C5_4 1_555 1_555
C10_4 C11_4 1_555 1_555
C28_4 C29_4 1_555 1_555
C31_4 C32_4 1_555 1_555
C34_4 C35_4 1_555 1_555

#END
