
###############################################################################
#
# This file contains modified crystal structure data generated from the
# MOF subset of the Cambridge Structural Database (CSD) v543 
# hosted by the Cambridge Crystallographic Data Centre (CCDC).
#
# This work is licensed under the Creative Commons
# Attribution-NonCommercial-ShareAlike 4.0 International License.
# To view a copy of this license, visit
# http://creativecommons.org/licenses/by-nc-sa/4.0/
# or send a letter to
# Creative Commons, PO Box 1866, Mountain View, CA 94042, USA.
#
# CIF created using the CSD Python API on 29 September 2022
# The structure has been converted into the P1 space group
# The structure has a 3D framework
# The original CSD entry HANWAW is in the orthorhombic crystal system
# The framework has been calculated to contain at least 10.0% void space
# The void calculation uses a probe of radius 1.32A, grid spacing 0.4
# H atom positions have been added when not included in the experimental data
# Generated hydrogen atom positions removed from atoms on special positions
#
###############################################################################

data_HANWAW
_chemical_formula_moiety         '(C304 H208 Cu24 O152)n'
_symmetry_cell_setting           triclinic
_symmetry_space_group_name_H-M   'P 1'
_symmetry_Int_Tables_number      1
_space_group_name_Hall           'P 1'
loop_
_symmetry_equiv_pos_site_id
_symmetry_equiv_pos_as_xyz
1 x,y,z
_cell_length_a                   20.0157(12)
_cell_length_b                   26.8932(17)
_cell_length_c                   26.9890(18)
_cell_angle_alpha                90
_cell_angle_beta                 90
_cell_angle_gamma                90
_cell_volume                     14527.8
loop_
_atom_site_label
_atom_site_type_symbol
_atom_site_fract_x
_atom_site_fract_y
_atom_site_fract_z
Cu22 Cu 0.45601(4) 0.03676(3) 0.00014(8)
O54 O 0.5859(4) 0.0042(4) 0.0525(3)
Cu11 Cu 0.05324(12) 0.2500 0.76736(11)
Cu12 Cu 0.55324(12) 0.2500 0.73264(11)
Cu15 Cu 0.46699(12) 0.2500 0.80634(12)
O22 O 0.0985(4) 0.1965(3) 0.7295(3)
O24 O 0.0244(4) 0.1981(4) 0.6644(3)
O26 O 0.4928(4) 0.1992(4) 0.7068(4)
O29 O 0.4185(4) 0.1974(3) 0.7696(4)
O41 O 0.0126(3) 0.0628(3) 0.5511(3)
O45 O 0.0872(4) 0.0031(3) 0.5518(3)
O47 O 0.5872(4) 0.0031(3) 0.9482(3)
O50 O 0.3156(6) 0.0905(5) 0.5456(6)
O51 O 0.4229(6) 0.1232(5) 0.5484(6)
H18 H 0.4129 0.1288 0.5187
C39 C 0.0703(7) 0.1784(5) 0.6876(6)
C43 C 0.0681(5) 0.0451(4) 0.5664(4)
C44 C 0.4407(7) 0.1848(5) 0.7257(6)
C45 C 0.3961(5) 0.1451(4) 0.7015(5)
C46 C 0.3987(8) 0.1484(7) 0.6476(6)
H19 H 0.4219 0.1745 0.6313
C47 C 0.3657(11) 0.1117(7) 0.6214(6)
C48 C 0.3168(8) 0.0814(6) 0.6486(6)
H20 H 0.2858 0.0613 0.6310
C49 C 0.3161(6) 0.0822(4) 0.7003(5)
C50 C 0.3561(5) 0.1151(4) 0.7253(5)
H21 H 0.3546 0.1161 0.7604
C51 C 0.2808(5) 0.0401(4) 0.7270(5)
C52 C 0.2131(5) 0.0293(4) 0.7161(4)
C56 C 0.3165(5) 0.0129(4) 0.7599(5)
H23 H 0.3623 0.0201 0.7660
C69 C 0.3691(8) 0.1096(6) 0.5729(6)
C71 C 0.1035(5) 0.1314(4) 0.6711(5)
C72 C 0.0740(5) 0.1155(4) 0.6286(4)
H30 H 0.0426 0.1348 0.6107
C73 C 0.0950(5) 0.0662(4) 0.6132(5)
C74 C 0.1749(4) 0.0607(4) 0.6799(4)
C75 C 0.1447(4) 0.0391(3) 0.6415(4)
H31 H 0.1557 0.0060 0.6326
C76 C 0.1580(5) 0.1053(5) 0.6957(5)
H32 H 0.1808 0.1201 0.7228
O43 O 0.4874(3) 0.9372(3) 0.0511(3)
O44 O 0.6159(3) 0.9032(3) 0.0019(6)
H44 H 0.651571 0.911204 0.0261956
Cu2 Cu 0.03128(10) 0.7500 0.69135(9)
Cu5 Cu 0.04399(4) 0.53676(3) 0.50014(8)
O11 O 0.0978(7) 0.7500 0.6289(8)
O15 O 0.1159(3) 0.5968(3) 0.4981(6)
Cu7 Cu 0.44621(12) 0.7500 0.73276(10)
Cu9 Cu 0.53128(10) 0.7500 0.80865(9)
Cu16 Cu 0.54399(4) 0.96324(3) 0.99986(8)
Cu21 Cu 0.04399(4) 0.96324(3) 0.50014(8)
O32 O 0.4731(4) 0.8008(3) 0.8324(3)
O34 O 0.3986(4) 0.8022(3) 0.7694(3)
O36 O 0.0770(4) 0.8002(3) 0.7295(4)
O37 O 0.0770(4) 0.6998(3) 0.7295(4)
O38 O 0.0076(4) 0.7987(3) 0.7937(3)
O39 O 0.0076(4) 0.7013(3) 0.7937(3)
O40 O 0.4840(4) 0.9342(3) 0.9494(3)
O46 O 0.0872(4) 0.4969(3) 0.5518(3)
O48 O 0.1659(5) 0.9281(5) 0.9538(5)
H17 H 0.1718 0.9227 0.9842
O49 O 0.1025(5) 0.8543(4) 0.9529(4)
C40 C 0.4226(5) 0.8195(4) 0.8070(5)
C41 C 0.3958(6) 0.8653(5) 0.8283(6)
C42 C 0.4414(6) 0.9628(5) 0.9320(5)
C53 C 0.1877(6) 0.9885(6) 0.7366(5)
H22 H 0.1455 0.9777 0.7245
C54 C 0.2178(6) 0.9585(5) 0.7757(5)
C55 C 0.2833(6) 0.9728(5) 0.7857(6)
C57 C 0.3339(6) 0.9442(5) 0.8173(6)
C58 C 0.3536(5) 0.8924(5) 0.8028(5)
H24 H 0.3347 0.8786 0.7736
C59 C 0.4199(6) 0.8922(4) 0.8737(5)
H25 H 0.4517 0.8750 0.8935
C60 C 0.3558(7) 0.9666(7) 0.8638(5)
H26 H 0.3405 0.9980 0.8753
C61 C 0.0604(7) 0.8141(5) 0.7713(6)
C62 C 0.1799(5) 0.9209(5) 0.8006(6)
C63 C 0.1414(6) 0.8840(5) 0.7753(6)
H27 H 0.1447 0.8830 0.7402
C64 C 0.0977(6) 0.8478(5) 0.7988(6)
C65 C 0.1785(6) 0.9212(5) 0.8518(6)
H28 H 0.2035 0.9449 0.8702
C66 C 0.0943(7) 0.8544(6) 0.8515(7)
H29 H 0.0616 0.8373 0.8705
C67 C 0.1404(9) 0.8865(7) 0.8748(6)
C68 C 0.1363(9) 0.8912(8) 0.9344(6)
C70 C 0.4023(6) 0.9368(5) 0.8896(5)
O52 O 0.4141(4) 0.9958(4) 0.9475(3)
O53 O 0.0859(4) 0.4958(4) 0.4475(3)
H39 H 0.135974 0.601118 0.53147
H40 H 0.151571 0.588796 0.473804
H43 H 0.635974 0.898882 0.96853
Cu14 Cu 0.96699(12) 0.2500 0.69366(12)
Cu20 Cu 0.95601(4) 0.03676(3) 0.49986(8)
Cu17 Cu 0.45601(4) 0.46324(3) 0.00014(8)
Cu1 Cu 0.94621(12) 0.7500 0.76724(10)
O1 O 0.5985(4) 0.3035(3) 0.7705(3)
O2 O 0.5244(4) 0.3019(4) 0.8356(3)
O3 O 0.9928(4) 0.3008(4) 0.7932(4)
O4 O 0.9185(4) 0.3026(3) 0.7304(4)
O5 O 0.6176(6) 0.2500 0.6686(7)
O6 O 0.4076(9) 0.2500 0.8748(6)
O7 O 0.9731(4) 0.6992(3) 0.6676(3)
O8 O 0.8986(4) 0.6978(3) 0.7306(3)
O9 O 0.5770(4) 0.6998(3) 0.7705(4)
O10 O 0.5076(4) 0.7013(3) 0.7063(3)
O12 O 0.8794(7) 0.7500 0.8271(4)
O13 O 0.9840(4) 0.5658(3) 0.5506(3)
O14 O 0.5126(3) 0.4372(3) 0.9489(3)
O16 O 0.5872(4) 0.4969(3) 0.9482(3)
O17 O 0.6659(5) 0.5719(5) 0.5462(5)
H1 H 0.6718 0.5773 0.5158
O18 O 0.6025(5) 0.6457(4) 0.5471(4)
O19 O 0.8156(6) 0.4095(5) 0.9544(6)
O20 O 0.9229(6) 0.3768(5) 0.9516(6)
H2 H 0.9129 0.3712 0.9813
C1 C 0.5703(7) 0.3216(5) 0.8124(6)
C2 C 0.9226(5) 0.6805(4) 0.6930(5)
C3 C 0.8958(6) 0.6347(5) 0.6717(6)
C4 C 0.9414(6) 0.5372(5) 0.5680(5)
C5 C 0.5681(5) 0.4549(4) 0.9336(4)
C6 C 0.9407(7) 0.3152(5) 0.7743(6)
C7 C 0.8961(5) 0.3549(4) 0.7985(5)
C8 C 0.8987(8) 0.3516(7) 0.8524(6)
H3 H 0.9219 0.3255 0.8687
C9 C 0.8657(11) 0.3883(7) 0.8786(6)
C10 C 0.8168(8) 0.4186(6) 0.8514(6)
H4 H 0.7858 0.4387 0.8690
C11 C 0.8161(6) 0.4178(4) 0.7997(5)
C12 C 0.8561(5) 0.3849(4) 0.7747(5)
H5 H 0.8546 0.3839 0.7396
C13 C 0.7808(5) 0.4599(4) 0.7730(5)
C14 C 0.7131(5) 0.4707(4) 0.7839(4)
C15 C 0.6877(6) 0.5115(6) 0.7634(5)
H6 H 0.6455 0.5223 0.7755
C16 C 0.7178(6) 0.5415(5) 0.7243(5)
C17 C 0.7833(6) 0.5272(5) 0.7143(6)
C18 C 0.8165(5) 0.4871(4) 0.7401(5)
H7 H 0.8623 0.4799 0.7340
C19 C 0.8339(6) 0.5558(5) 0.6827(6)
C20 C 0.8536(5) 0.6076(5) 0.6972(5)
H8 H 0.8347 0.6214 0.7264
C21 C 0.9199(6) 0.6078(4) 0.6263(5)
H9 H 0.9517 0.6250 0.6065
C22 C 0.8558(7) 0.5334(7) 0.6362(5)
H10 H 0.8405 0.5020 0.6247
C23 C 0.5604(7) 0.6859(5) 0.7287(6)
C24 C 0.6799(5) 0.5791(5) 0.6994(6)
C25 C 0.6414(6) 0.6160(5) 0.7247(6)
H11 H 0.6447 0.6170 0.7598
C26 C 0.5977(6) 0.6522(5) 0.7012(6)
C27 C 0.6785(6) 0.5788(5) 0.6482(6)
H12 H 0.7035 0.5551 0.6298
C28 C 0.5943(7) 0.6456(6) 0.6485(7)
H13 H 0.5616 0.6627 0.6295
C29 C 0.6404(9) 0.6135(7) 0.6252(6)
C30 C 0.6363(9) 0.6088(8) 0.5656(6)
C31 C 0.8691(8) 0.3904(6) 0.9271(6)
C32 C 0.9023(6) 0.5632(5) 0.6104(5)
O21 O 0.9141(4) 0.5042(4) 0.5525(3)
C33 C 0.6035(5) 0.3686(4) 0.8289(5)
C34 C 0.5740(5) 0.3845(4) 0.8714(4)
H14 H 0.5426 0.3652 0.8893
C35 C 0.5950(5) 0.4338(4) 0.8868(5)
C36 C 0.6749(4) 0.4393(4) 0.8201(4)
C37 C 0.6447(4) 0.4609(3) 0.8585(4)
H15 H 0.6557 0.4940 0.8674
C38 C 0.6580(5) 0.3947(5) 0.8043(5)
H16 H 0.6808 0.3799 0.7772
Cu18 Cu 0.54399(4) 0.53676(3) 0.99986(8)
Cu19 Cu 0.95601(4) 0.46324(3) 0.49986(8)
O23 O 0.5985(4) 0.1965(3) 0.7705(3)
O25 O 0.5244(4) 0.1981(4) 0.8356(3)
O28 O 0.4928(4) 0.3008(4) 0.7068(4)
O31 O 0.4185(4) 0.3026(3) 0.7696(4)
O33 O 0.9731(4) 0.8008(3) 0.6676(3)
O35 O 0.8986(4) 0.8022(3) 0.7306(3)
O42 O 0.9874(3) 0.5628(3) 0.4489(3)
Cu4 Cu 0.03301(12) 0.7500 0.30634(12)
O6_2 O 0.0924(9) 0.7500 0.3748(6)
Cu6 Cu 0.05379(12) 0.2500 0.23276(10)
O27 O 0.0072(4) 0.8008(4) 0.2068(4)
O28_2 O 0.0072(4) 0.6992(4) 0.2068(4)
O30 O 0.0815(4) 0.8026(3) 0.2696(4)
O31_2 O 0.0815(4) 0.6974(3) 0.2696(4)
Cu1_2 Cu 0.55379(12) 0.2500 0.26724(10)
Cu2_2 Cu 0.46872(10) 0.2500 0.19135(9)
Cu3 Cu 0.94676(12) 0.7500 0.23264(11)
O1_2 O 0.9015(4) 0.6965(3) 0.2705(3)
O2_2 O 0.9756(4) 0.6981(4) 0.3356(3)
O3_2 O 0.5072(4) 0.6992(4) 0.2932(4)
O4_2 O 0.5815(4) 0.6974(3) 0.2304(4)
O5_2 O 0.8824(6) 0.7500 0.1686(7)
O7_2 O 0.5269(4) 0.3008(3) 0.1676(3)
O8_2 O 0.6014(4) 0.3022(3) 0.2306(3)
O9_2 O 0.9230(4) 0.3002(3) 0.2705(4)
O10_2 O 0.9924(4) 0.2987(3) 0.2063(3)
O11_2 O 0.4022(7) 0.2500 0.1289(8)
O12_2 O 0.6206(7) 0.2500 0.3271(4)
O13_2 O 0.5160(4) 0.4342(3) 0.0506(3)
O16_2 O 0.9128(4) 0.5031(3) 0.4482(3)
O17_2 O 0.8341(5) 0.4281(5) 0.0462(5)
H1_2 H 0.8282 0.4227 0.0158
O18_2 O 0.8975(5) 0.3543(4) 0.0471(4)
O19_2 O 0.6844(6) 0.5905(5) 0.4544(6)
O20_2 O 0.5771(6) 0.6232(5) 0.4516(6)
H2_2 H 0.5871 0.6288 0.4813
C1_2 C 0.9297(7) 0.6784(5) 0.3124(6)
C2_2 C 0.5774(5) 0.3195(4) 0.1930(5)
C3_2 C 0.6042(6) 0.3653(5) 0.1717(6)
C4_2 C 0.5586(6) 0.4628(5) 0.0680(5)
C5_2 C 0.9319(5) 0.5451(4) 0.4336(4)
C6_2 C 0.5593(7) 0.6848(5) 0.2743(6)
C7_2 C 0.6039(5) 0.6451(4) 0.2985(5)
C8_2 C 0.6013(8) 0.6484(7) 0.3524(6)
H3_2 H 0.5781 0.6745 0.3687
C9_2 C 0.6343(11) 0.6117(7) 0.3786(6)
C10_2 C 0.6832(8) 0.5814(6) 0.3514(6)
H4_2 H 0.7142 0.5613 0.3690
C11_2 C 0.6839(6) 0.5822(4) 0.2997(5)
C12_2 C 0.6439(5) 0.6151(4) 0.2747(5)
H5_2 H 0.6454 0.6161 0.2396
C13_2 C 0.7192(5) 0.5401(4) 0.2730(5)
C14_2 C 0.7869(5) 0.5293(4) 0.2839(4)
C15_2 C 0.8123(6) 0.4885(6) 0.2634(5)
H6_2 H 0.8545 0.4777 0.2755
C16_2 C 0.7822(6) 0.4585(5) 0.2243(5)
C17_2 C 0.7167(6) 0.4728(5) 0.2143(6)
C18_2 C 0.6835(5) 0.5129(4) 0.2401(5)
H7_2 H 0.6377 0.5201 0.2340
C19_2 C 0.6661(6) 0.4442(5) 0.1827(6)
C20_2 C 0.6464(5) 0.3924(5) 0.1972(5)
H8_2 H 0.6653 0.3786 0.2264
C21_2 C 0.5801(6) 0.3922(4) 0.1263(5)
H9_2 H 0.5483 0.3750 0.1065
C22_2 C 0.6442(7) 0.4666(7) 0.1362(5)
H10_2 H 0.6595 0.4980 0.1247
C23_2 C 0.9396(7) 0.3141(5) 0.2287(6)
C24_2 C 0.8201(5) 0.4209(5) 0.1994(6)
C25_2 C 0.8586(6) 0.3840(5) 0.2247(6)
H11_2 H 0.8553 0.3830 0.2598
C26_2 C 0.9023(6) 0.3478(5) 0.2012(6)
C27_2 C 0.8215(6) 0.4212(5) 0.1482(6)
H12_2 H 0.7965 0.4449 0.1298
C28_2 C 0.9057(7) 0.3544(6) 0.1485(7)
H13_2 H 0.9384 0.3373 0.1295
C29_2 C 0.8596(9) 0.3865(7) 0.1252(6)
C30_2 C 0.8637(9) 0.3912(8) 0.0656(6)
C31_2 C 0.6309(8) 0.6096(6) 0.4271(6)
C32_2 C 0.5977(6) 0.4368(5) 0.1104(5)
O21_2 O 0.5859(4) 0.4958(4) 0.0525(3)
C33_2 C 0.8965(5) 0.6314(4) 0.3289(5)
C34_2 C 0.9260(5) 0.6155(4) 0.3714(4)
H14_2 H 0.9574 0.6348 0.3893
C35_2 C 0.9050(5) 0.5662(4) 0.3868(5)
C36_2 C 0.8251(4) 0.5607(4) 0.3201(4)
C37_2 C 0.8553(4) 0.5391(3) 0.3585(4)
H15_2 H 0.8443 0.5060 0.3674
C38_2 C 0.8420(5) 0.6053(5) 0.3043(5)
H16_2 H 0.8192 0.6201 0.2772
Cu8 Cu 0.96872(10) 0.2500 0.30865(9)
Cu10 Cu 0.44676(12) 0.7500 0.26736(11)
Cu13 Cu 0.53301(12) 0.7500 0.19366(12)
O23_2 O 0.9015(4) 0.8035(3) 0.2705(3)
O25_2 O 0.9756(4) 0.8019(4) 0.3356(3)
O32_2 O 0.0269(4) 0.1992(3) 0.3324(3)
O33_2 O 0.5269(4) 0.1992(3) 0.1676(3)
O34_2 O 0.1014(4) 0.1978(3) 0.2694(3)
O35_2 O 0.6014(4) 0.1978(3) 0.2306(3)
O36_2 O 0.4230(4) 0.1998(3) 0.2295(4)
O37_2 O 0.4230(4) 0.3002(3) 0.2295(4)
O38_2 O 0.4924(4) 0.2013(3) 0.2937(3)
O39_2 O 0.4924(4) 0.2987(3) 0.2937(3)
O40_2 O 0.0160(4) 0.0658(3) 0.4494(3)
O46_2 O 0.4128(4) 0.5031(3) 0.0518(3)
O48_2 O 0.3341(5) 0.0719(5) 0.4538(5)
H17_2 H 0.3282 0.0773 0.4842
O49_2 O 0.3975(5) 0.1457(4) 0.4529(4)
C40_2 C 0.0774(5) 0.1805(4) 0.3070(5)
C41_2 C 0.1042(6) 0.1347(5) 0.3283(6)
C42_2 C 0.0586(6) 0.0372(5) 0.4320(5)
C53_2 C 0.3123(6) 0.0115(6) 0.2366(5)
H22_2 H 0.3545 0.0223 0.2245
C54_2 C 0.2822(6) 0.0415(5) 0.2757(5)
C55_2 C 0.2167(6) 0.0272(5) 0.2857(6)
C57_2 C 0.1661(6) 0.0558(5) 0.3173(6)
C58_2 C 0.1464(5) 0.1076(5) 0.3028(5)
H24_2 H 0.1653 0.1214 0.2736
C59_2 C 0.0801(6) 0.1078(4) 0.3737(5)
H25_2 H 0.0483 0.1250 0.3935
C60_2 C 0.1442(7) 0.0334(7) 0.3638(5)
H26_2 H 0.1595 0.0020 0.3753
C61_2 C 0.4396(7) 0.1859(5) 0.2713(6)
C62_2 C 0.3201(5) 0.0791(5) 0.3006(6)
C63_2 C 0.3586(6) 0.1160(5) 0.2753(6)
H27_2 H 0.3553 0.1170 0.2402
C64_2 C 0.4023(6) 0.1522(5) 0.2988(6)
C65_2 C 0.3215(6) 0.0788(5) 0.3518(6)
H28_2 H 0.2965 0.0551 0.3702
C66_2 C 0.4057(7) 0.1456(6) 0.3515(7)
H29_2 H 0.4384 0.1627 0.3705
C67_2 C 0.3596(9) 0.1135(7) 0.3748(6)
C68_2 C 0.3637(9) 0.1088(8) 0.4344(6)
C70_2 C 0.0977(6) 0.0632(5) 0.3896(5)
O52_2 O 0.0859(4) 0.0042(4) 0.4475(3)
H39_2 H 0.364026 0.398882 0.0314702
O15_2 O 0.3841(3) 0.4032(3) 0.9981(6)
O53_2 O 0.4141(4) 0.5042(4) 0.9475(3)
H40_2 H 0.348429 0.411204 0.973804
O22_2 O 0.4015(4) 0.8035(3) 0.2295(3)
O24_2 O 0.4756(4) 0.8019(4) 0.1644(3)
O45_2 O 0.4128(4) 0.9969(3) 0.0518(3)
O50_2 O 0.1844(6) 0.9095(5) 0.0456(6)
O51_2 O 0.0771(6) 0.8768(5) 0.0484(6)
H18_2 H 0.0871 0.8712 0.0187
C39_2 C 0.4297(7) 0.8216(5) 0.1876(6)
C43_2 C 0.4319(5) 0.9549(4) 0.0664(4)
C44_2 C 0.0593(7) 0.8152(5) 0.2257(6)
C45_2 C 0.1039(5) 0.8549(4) 0.2015(5)
C46_2 C 0.1013(8) 0.8516(7) 0.1476(6)
H19_2 H 0.0781 0.8255 0.1313
C47_2 C 0.1343(11) 0.8883(7) 0.1214(6)
C48_2 C 0.1832(8) 0.9186(6) 0.1486(6)
H20_2 H 0.2142 0.9387 0.1310
C49_2 C 0.1839(6) 0.9178(4) 0.2003(5)
C50_2 C 0.1439(5) 0.8849(4) 0.2253(5)
H21_2 H 0.1454 0.8839 0.2604
C51_2 C 0.2192(5) 0.9599(4) 0.2270(5)
C52_2 C 0.2869(5) 0.9707(4) 0.2161(4)
C56_2 C 0.1835(5) 0.9871(4) 0.2599(5)
H23_2 H 0.1377 0.9799 0.2660
C69_2 C 0.1309(8) 0.8904(6) 0.0729(6)
C71_2 C 0.3965(5) 0.8686(4) 0.1711(5)
C72_2 C 0.4260(5) 0.8845(4) 0.1286(4)
H30_2 H 0.4574 0.8652 0.1107
C73_2 C 0.4050(5) 0.9338(4) 0.1132(5)
C74_2 C 0.3251(4) 0.9393(4) 0.1799(4)
C75_2 C 0.3553(4) 0.9609(3) 0.1415(4)
H31_2 H 0.3443 0.9940 0.1326
C76_2 C 0.3420(5) 0.8947(5) 0.1957(5)
H32_2 H 0.3192 0.8799 0.2228
O44_2 O 0.8841(3) 0.0968(3) 0.5019(6)
H43_2 H 0.864026 0.101118 0.46853
H44_2 H 0.848429 0.0887965 0.526196
O47_2 O 0.9128(4) 0.9969(3) 0.4482(3)
O54_2 O 0.9141(4) 0.9958(4) 0.5525(3)
O5_3 O 0.1176(6) 0.2500 0.8314(7)
O23_3 O 0.0985(4) 0.3035(3) 0.7295(3)
O25_3 O 0.0244(4) 0.3019(4) 0.6644(3)
O11_3 O 0.5978(7) 0.7500 0.8711(8)
O12_3 O 0.3794(7) 0.7500 0.6729(4)
O33_3 O 0.4731(4) 0.6992(3) 0.8324(3)
O35_3 O 0.3986(4) 0.6978(3) 0.7694(3)
O37_3 O 0.5770(4) 0.8002(3) 0.7705(4)
O39_3 O 0.5076(4) 0.7987(3) 0.7063(3)
O6_3 O 0.9076(9) 0.2500 0.6252(6)
O28_3 O 0.9928(4) 0.1992(4) 0.7932(4)
O31_3 O 0.9185(4) 0.1974(3) 0.7304(4)
O12_4 O 0.1206(7) 0.2500 0.1729(4)
O33_4 O 0.0269(4) 0.3008(3) 0.3324(3)
O35_4 O 0.1014(4) 0.3022(3) 0.2694(3)
O5_4 O 0.3824(6) 0.7500 0.3314(7)
O6_4 O 0.5924(9) 0.7500 0.1252(6)
O23_4 O 0.4015(4) 0.6965(3) 0.2295(3)
O25_4 O 0.4756(4) 0.6981(4) 0.1644(3)
O28_4 O 0.5072(4) 0.8008(4) 0.2932(4)
O31_4 O 0.5815(4) 0.8026(3) 0.2304(4)
O11_4 O 0.9022(7) 0.2500 0.3711(8)
O37_4 O 0.9230(4) 0.1998(3) 0.2705(4)
O39_4 O 0.9924(4) 0.2013(3) 0.2063(3)
O13_3 O 0.0160(4) 0.4342(3) 0.4494(3)
O14_2 O 0.4874(3) 0.5628(3) 0.0511(3)
O17_3 O 0.3341(5) 0.4281(5) 0.4538(5)
H1_3 H 0.3282 0.4227 0.4842
O18_3 O 0.3975(5) 0.3543(4) 0.4529(4)
O19_3 O 0.1844(6) 0.5905(5) 0.0456(6)
O20_3 O 0.0771(6) 0.6232(5) 0.0484(6)
H2_3 H 0.0871 0.6288 0.0187
C1_3 C 0.4297(7) 0.6784(5) 0.1876(6)
C2_3 C 0.0774(5) 0.3195(4) 0.3070(5)
C3_3 C 0.1042(6) 0.3653(5) 0.3283(6)
C4_3 C 0.0586(6) 0.4628(5) 0.4320(5)
C5_3 C 0.4319(5) 0.5451(4) 0.0664(4)
C6_3 C 0.0593(7) 0.6848(5) 0.2257(6)
C7_3 C 0.1039(5) 0.6451(4) 0.2015(5)
C8_3 C 0.1013(8) 0.6484(7) 0.1476(6)
H3_3 H 0.0781 0.6745 0.1313
C9_3 C 0.1343(11) 0.6117(7) 0.1214(6)
C10_3 C 0.1832(8) 0.5814(6) 0.1486(6)
H4_3 H 0.2142 0.5613 0.1310
C11_3 C 0.1839(6) 0.5822(4) 0.2003(5)
C12_3 C 0.1439(5) 0.6151(4) 0.2253(5)
H5_3 H 0.1454 0.6161 0.2604
C13_3 C 0.2192(5) 0.5401(4) 0.2270(5)
C14_3 C 0.2869(5) 0.5293(4) 0.2161(4)
C15_3 C 0.3123(6) 0.4885(6) 0.2366(5)
H6_3 H 0.3545 0.4777 0.2245
C16_3 C 0.2822(6) 0.4585(5) 0.2757(5)
C17_3 C 0.2167(6) 0.4728(5) 0.2857(6)
C18_3 C 0.1835(5) 0.5129(4) 0.2599(5)
H7_3 H 0.1377 0.5201 0.2660
C19_3 C 0.1661(6) 0.4442(5) 0.3173(6)
C20_3 C 0.1464(5) 0.3924(5) 0.3028(5)
H8_3 H 0.1653 0.3786 0.2736
C21_3 C 0.0801(6) 0.3922(4) 0.3737(5)
H9_3 H 0.0483 0.3750 0.3935
C22_3 C 0.1442(7) 0.4666(7) 0.3638(5)
H10_3 H 0.1595 0.4980 0.3753
C23_3 C 0.4396(7) 0.3141(5) 0.2713(6)
C24_3 C 0.3201(5) 0.4209(5) 0.3006(6)
C25_3 C 0.3586(6) 0.3840(5) 0.2753(6)
H11_3 H 0.3553 0.3830 0.2402
C26_3 C 0.4023(6) 0.3478(5) 0.2988(6)
C27_3 C 0.3215(6) 0.4212(5) 0.3518(6)
H12_3 H 0.2965 0.4449 0.3702
C28_3 C 0.4057(7) 0.3544(6) 0.3515(7)
H13_3 H 0.4384 0.3373 0.3705
C29_3 C 0.3596(9) 0.3865(7) 0.3748(6)
C30_3 C 0.3637(9) 0.3912(8) 0.4344(6)
C31_3 C 0.1309(8) 0.6096(6) 0.0729(6)
C32_3 C 0.0977(6) 0.4368(5) 0.3896(5)
C33_3 C 0.3965(5) 0.6314(4) 0.1711(5)
C34_3 C 0.4260(5) 0.6155(4) 0.1286(4)
H14_3 H 0.4574 0.6348 0.1107
C35_3 C 0.4050(5) 0.5662(4) 0.1132(5)
C36_3 C 0.3251(4) 0.5607(4) 0.1799(4)
C37_3 C 0.3553(4) 0.5391(3) 0.1415(4)
H15_3 H 0.3443 0.5060 0.1326
C38_3 C 0.3420(5) 0.6053(5) 0.1957(5)
H16_3 H 0.3192 0.6201 0.2228
O42_2 O 0.0126(3) 0.4372(3) 0.5511(3)
O15_3 O 0.8841(3) 0.4032(3) 0.5019(6)
O40_3 O 0.5160(4) 0.0658(3) 0.0506(3)
O48_3 O 0.8341(5) 0.0719(5) 0.0462(5)
H17_3 H 0.8282 0.0773 0.0158
O49_3 O 0.8975(5) 0.1457(4) 0.0471(4)
C40_3 C 0.5774(5) 0.1805(4) 0.1930(5)
C41_3 C 0.6042(6) 0.1347(5) 0.1717(6)
C42_3 C 0.5586(6) 0.0372(5) 0.0680(5)
C53_3 C 0.8123(6) 0.0115(6) 0.2634(5)
H22_3 H 0.8545 0.0223 0.2755
C54_3 C 0.7822(6) 0.0415(5) 0.2243(5)
C55_3 C 0.7167(6) 0.0272(5) 0.2143(6)
C57_3 C 0.6661(6) 0.0558(5) 0.1827(6)
C58_3 C 0.6464(5) 0.1076(5) 0.1972(5)
H24_3 H 0.6653 0.1214 0.2264
C59_3 C 0.5801(6) 0.1078(4) 0.1263(5)
H25_3 H 0.5483 0.1250 0.1065
C60_3 C 0.6442(7) 0.0334(7) 0.1362(5)
H26_3 H 0.6595 0.0020 0.1247
C61_3 C 0.9396(7) 0.1859(5) 0.2287(6)
C62_3 C 0.8201(5) 0.0791(5) 0.1994(6)
C63_3 C 0.8586(6) 0.1160(5) 0.2247(6)
H27_3 H 0.8553 0.1170 0.2598
C64_3 C 0.9023(6) 0.1522(5) 0.2012(6)
C65_3 C 0.8215(6) 0.0788(5) 0.1482(6)
H28_3 H 0.7965 0.0551 0.1298
C66_3 C 0.9057(7) 0.1456(6) 0.1485(7)
H29_3 H 0.9384 0.1627 0.1295
C67_3 C 0.8596(9) 0.1135(7) 0.1252(6)
C68_3 C 0.8637(9) 0.1088(8) 0.0656(6)
C70_3 C 0.5977(6) 0.0632(5) 0.1104(5)
H39_3 H 0.864026 0.398882 0.46853
H40_3 H 0.848429 0.411204 0.526196
H43_3 H 0.364026 0.101118 0.0314702
O43_2 O 0.5126(3) 0.0628(3) 0.9489(3)
O44_3 O 0.3841(3) 0.0968(3) 0.9981(6)
H44_3 H 0.348429 0.0887965 0.973804
O41_2 O 0.9874(3) 0.9372(3) 0.4489(3)
O50_3 O 0.6844(6) 0.9095(5) 0.4544(6)
O51_3 O 0.5771(6) 0.8768(5) 0.4516(6)
H18_3 H 0.5871 0.8712 0.4813
C39_3 C 0.9297(7) 0.8216(5) 0.3124(6)
C43_3 C 0.9319(5) 0.9549(4) 0.4336(4)
C44_3 C 0.5593(7) 0.8152(5) 0.2743(6)
C45_3 C 0.6039(5) 0.8549(4) 0.2985(5)
C46_3 C 0.6013(8) 0.8516(7) 0.3524(6)
H19_3 H 0.5781 0.8255 0.3687
C47_3 C 0.6343(11) 0.8883(7) 0.3786(6)
C48_3 C 0.6832(8) 0.9186(6) 0.3514(6)
H20_3 H 0.7142 0.9387 0.3690
C49_3 C 0.6839(6) 0.9178(4) 0.2997(5)
C50_3 C 0.6439(5) 0.8849(4) 0.2747(5)
H21_3 H 0.6454 0.8839 0.2396
C51_3 C 0.7192(5) 0.9599(4) 0.2730(5)
C52_3 C 0.7869(5) 0.9707(4) 0.2839(4)
C56_3 C 0.6835(5) 0.9871(4) 0.2401(5)
H23_3 H 0.6377 0.9799 0.2340
C69_3 C 0.6309(8) 0.8904(6) 0.4271(6)
C71_3 C 0.8965(5) 0.8686(4) 0.3289(5)
C72_3 C 0.9260(5) 0.8845(4) 0.3714(4)
H30_3 H 0.9574 0.8652 0.3893
C73_3 C 0.9050(5) 0.9338(4) 0.3868(5)
C74_3 C 0.8251(4) 0.9393(4) 0.3201(4)
C75_3 C 0.8553(4) 0.9609(3) 0.3585(4)
H31_3 H 0.8443 0.9940 0.3674
C76_3 C 0.8420(5) 0.8947(5) 0.3043(5)
H32_3 H 0.8192 0.8799 0.2772
O44_4 O 0.1159(3) 0.9032(3) 0.4981(6)
H43_4 H 0.135974 0.898882 0.53147
H44_4 H 0.151571 0.911204 0.473804
O50_4 O 0.8156(6) 0.0905(5) 0.9544(6)
O51_4 O 0.9229(6) 0.1232(5) 0.9516(6)
H18_4 H 0.9129 0.1288 0.9813
C39_4 C 0.5703(7) 0.1784(5) 0.8124(6)
C43_4 C 0.5681(5) 0.0451(4) 0.9336(4)
C44_4 C 0.9407(7) 0.1848(5) 0.7743(6)
C45_4 C 0.8961(5) 0.1451(4) 0.7985(5)
C46_4 C 0.8987(8) 0.1484(7) 0.8524(6)
H19_4 H 0.9219 0.1745 0.8687
C47_4 C 0.8657(11) 0.1117(7) 0.8786(6)
C48_4 C 0.8168(8) 0.0814(6) 0.8514(6)
H20_4 H 0.7858 0.0613 0.8690
C49_4 C 0.8161(6) 0.0822(4) 0.7997(5)
C50_4 C 0.8561(5) 0.1151(4) 0.7747(5)
H21_4 H 0.8546 0.1161 0.7396
C51_4 C 0.7808(5) 0.0401(4) 0.7730(5)
C52_4 C 0.7131(5) 0.0293(4) 0.7839(4)
C56_4 C 0.8165(5) 0.0129(4) 0.7401(5)
H23_4 H 0.8623 0.0201 0.7340
C69_4 C 0.8691(8) 0.1096(6) 0.9271(6)
C71_4 C 0.6035(5) 0.1314(4) 0.8289(5)
C72_4 C 0.5740(5) 0.1155(4) 0.8714(4)
H30_4 H 0.5426 0.1348 0.8893
C73_4 C 0.5950(5) 0.0662(4) 0.8868(5)
C74_4 C 0.6749(4) 0.0607(4) 0.8201(4)
C75_4 C 0.6447(4) 0.0391(3) 0.8585(4)
H31_4 H 0.6557 0.0060 0.8674
C76_4 C 0.6580(5) 0.1053(5) 0.8043(5)
H32_4 H 0.6808 0.1201 0.7772
O15_4 O 0.6159(3) 0.5968(3) 0.0019(6)
H40_4 H 0.651571 0.588796 0.0261956
O13_4 O 0.4840(4) 0.5658(3) 0.9494(3)
O17_4 O 0.1659(5) 0.5719(5) 0.9538(5)
H1_4 H 0.1718 0.5773 0.9842
O18_4 O 0.1025(5) 0.6457(4) 0.9529(4)
O19_4 O 0.3156(6) 0.4095(5) 0.5456(6)
O20_4 O 0.4229(6) 0.3768(5) 0.5484(6)
H2_4 H 0.4129 0.3712 0.5187
C1_4 C 0.0703(7) 0.3216(5) 0.6876(6)
C2_4 C 0.4226(5) 0.6805(4) 0.8070(5)
C3_4 C 0.3958(6) 0.6347(5) 0.8283(6)
C4_4 C 0.4414(6) 0.5372(5) 0.9320(5)
C5_4 C 0.0681(5) 0.4549(4) 0.5664(4)
C6_4 C 0.4407(7) 0.3152(5) 0.7257(6)
C7_4 C 0.3961(5) 0.3549(4) 0.7015(5)
C8_4 C 0.3987(8) 0.3516(7) 0.6476(6)
H3_4 H 0.4219 0.3255 0.6313
C9_4 C 0.3657(11) 0.3883(7) 0.6214(6)
C10_4 C 0.3168(8) 0.4186(6) 0.6486(6)
H4_4 H 0.2858 0.4387 0.6310
C11_4 C 0.3161(6) 0.4178(4) 0.7003(5)
C12_4 C 0.3561(5) 0.3849(4) 0.7253(5)
H5_4 H 0.3546 0.3839 0.7604
C13_4 C 0.2808(5) 0.4599(4) 0.7270(5)
C14_4 C 0.2131(5) 0.4707(4) 0.7161(4)
C15_4 C 0.1877(6) 0.5115(6) 0.7366(5)
H6_4 H 0.1455 0.5223 0.7245
C16_4 C 0.2178(6) 0.5415(5) 0.7757(5)
C17_4 C 0.2833(6) 0.5272(5) 0.7857(6)
C18_4 C 0.3165(5) 0.4871(4) 0.7599(5)
H7_4 H 0.3623 0.4799 0.7660
C19_4 C 0.3339(6) 0.5558(5) 0.8173(6)
C20_4 C 0.3536(5) 0.6076(5) 0.8028(5)
H8_4 H 0.3347 0.6214 0.7736
C21_4 C 0.4199(6) 0.6078(4) 0.8737(5)
H9_4 H 0.4517 0.6250 0.8935
C22_4 C 0.3558(7) 0.5334(7) 0.8638(5)
H10_4 H 0.3405 0.5020 0.8753
C23_4 C 0.0604(7) 0.6859(5) 0.7713(6)
C24_4 C 0.1799(5) 0.5791(5) 0.8006(6)
C25_4 C 0.1414(6) 0.6160(5) 0.7753(6)
H11_4 H 0.1447 0.6170 0.7402
C26_4 C 0.0977(6) 0.6522(5) 0.7988(6)
C27_4 C 0.1785(6) 0.5788(5) 0.8518(6)
H12_4 H 0.2035 0.5551 0.8702
C28_4 C 0.0943(7) 0.6456(6) 0.8515(7)
H13_4 H 0.0616 0.6627 0.8705
C29_4 C 0.1404(9) 0.6135(7) 0.8748(6)
C30_4 C 0.1363(9) 0.6088(8) 0.9344(6)
C31_4 C 0.3691(8) 0.3904(6) 0.5729(6)
C32_4 C 0.4023(6) 0.5632(5) 0.8896(5)
C33_4 C 0.1035(5) 0.3686(4) 0.6711(5)
C34_4 C 0.0740(5) 0.3845(4) 0.6286(4)
H14_4 H 0.0426 0.3652 0.6107
C35_4 C 0.0950(5) 0.4338(4) 0.6132(5)
C36_4 C 0.1749(4) 0.4393(4) 0.6799(4)
C37_4 C 0.1447(4) 0.4609(3) 0.6415(4)
H15_4 H 0.1557 0.4940 0.6326
C38_4 C 0.1580(5) 0.3947(5) 0.6957(5)
H16_4 H 0.1808 0.3799 0.7228
O40_4 O 0.9840(4) 0.9342(3) 0.5506(3)
O48_4 O 0.6659(5) 0.9281(5) 0.5462(5)
H17_4 H 0.6718 0.9227 0.5158
O49_4 O 0.6025(5) 0.8543(4) 0.5471(4)
C40_4 C 0.9226(5) 0.8195(4) 0.6930(5)
C41_4 C 0.8958(6) 0.8653(5) 0.6717(6)
C42_4 C 0.9414(6) 0.9628(5) 0.5680(5)
C53_4 C 0.6877(6) 0.9885(6) 0.7634(5)
H22_4 H 0.6455 0.9777 0.7755
C54_4 C 0.7178(6) 0.9585(5) 0.7243(5)
C55_4 C 0.7833(6) 0.9728(5) 0.7143(6)
C57_4 C 0.8339(6) 0.9442(5) 0.6827(6)
C58_4 C 0.8536(5) 0.8924(5) 0.6972(5)
H24_4 H 0.8347 0.8786 0.7264
C59_4 C 0.9199(6) 0.8922(4) 0.6263(5)
H25_4 H 0.9517 0.8750 0.6065
C60_4 C 0.8558(7) 0.9666(7) 0.6362(5)
H26_4 H 0.8405 0.9980 0.6247
C61_4 C 0.5604(7) 0.8141(5) 0.7287(6)
C62_4 C 0.6799(5) 0.9209(5) 0.6994(6)
C63_4 C 0.6414(6) 0.8840(5) 0.7247(6)
H27_4 H 0.6447 0.8830 0.7598
C64_4 C 0.5977(6) 0.8478(5) 0.7012(6)
C65_4 C 0.6785(6) 0.9212(5) 0.6482(6)
H28_4 H 0.7035 0.9449 0.6298
C66_4 C 0.5943(7) 0.8544(6) 0.6485(7)
H29_4 H 0.5616 0.8373 0.6295
C67_4 C 0.6404(9) 0.8865(7) 0.6252(6)
C68_4 C 0.6363(9) 0.8912(8) 0.5656(6)
C70_4 C 0.9023(6) 0.9368(5) 0.6104(5)
H39_4 H 0.635974 0.601118 0.96853
loop_
_geom_bond_atom_site_label_1
_geom_bond_atom_site_label_2
_geom_bond_site_symmetry_1
_geom_bond_site_symmetry_2
Cu11 O22 1_555 1_555
Cu12 O26 1_555 1_555
Cu15 O29 1_555 1_555
O22 C39 1_555 1_555
O24 C39 1_555 1_555
O26 C44 1_555 1_555
O29 C44 1_555 1_555
O41 C43 1_555 1_555
O45 C43 1_555 1_555
O50 C69 1_555 1_555
O51 H18 1_555 1_555
C39 C71 1_555 1_555
C43 C73 1_555 1_555
C44 C45 1_555 1_555
C45 C46 1_555 1_555
C46 H19 1_555 1_555
C47 C46 1_555 1_555
C48 C47 1_555 1_555
H20 C48 1_555 1_555
C49 C48 1_555 1_555
C50 C45 1_555 1_555
H21 C50 1_555 1_555
C51 C49 1_555 1_555
C52 C51 1_555 1_555
C56 C51 1_555 1_555
H23 C56 1_555 1_555
C69 O51 1_555 1_555
C71 C72 1_555 1_555
C72 H30 1_555 1_555
C73 C72 1_555 1_555
C74 C52 1_555 1_555
C75 C73 1_555 1_555
H31 C75 1_555 1_555
C76 C71 1_555 1_555
H32 C76 1_555 1_555
C47 C69 1_555 1_555
C49 C50 1_555 1_555
C74 C75 1_555 1_555
C74 C76 1_555 1_555
O44 H44 1_555 1_555
O11 Cu2 1_555 1_555
O15 Cu5 1_555 1_555
Cu7 O34 1_555 1_555
Cu9 O32 1_555 1_555
Cu16 O40 1_555 1_555
O32 C40 1_555 1_555
O34 C40 1_555 1_555
O36 Cu2 1_555 1_555
O37 Cu2 1_555 1_555
O40 C42 1_555 1_555
O46 Cu5 1_555 1_555
O48 H17 1_555 1_555
O49 C68 1_555 1_555
C40 C41 1_555 1_555
C41 C58 1_555 1_555
C42 C70 1_555 1_555
H22 C53 1_555 1_555
C54 C53 1_555 1_555
C55 C54 1_555 1_555
C57 C55 1_555 1_555
C58 C57 1_555 1_555
H24 C58 1_555 1_555
C59 C41 1_555 1_555
H25 C59 1_555 1_555
C60 C57 1_555 1_555
H26 C60 1_555 1_555
C61 O36 1_555 1_555
C62 C54 1_555 1_555
C63 C62 1_555 1_555
H27 C63 1_555 1_555
C64 C61 1_555 1_555
C65 C62 1_555 1_555
H28 C65 1_555 1_555
C66 C64 1_555 1_555
H29 C66 1_555 1_555
C67 C65 1_555 1_555
C68 O48 1_555 1_555
C70 C59 1_555 1_555
O52 C42 1_555 1_555
O53 Cu5 1_555 1_555
O38 C61 1_555 1_555
C60 C70 1_555 1_555
C63 C64 1_555 1_555
C66 C67 1_555 1_555
C67 C68 1_555 1_555
O15 H39 1_555 1_555
O15 H40 1_555 1_555
Cu1 O8 1_555 1_555
Cu12 O1 1_555 1_555
Cu15 O2 1_555 1_555
O1 C1 1_555 1_555
O2 C1 1_555 1_555
O3 C6 1_555 1_555
O4 C6 1_555 1_555
O5 Cu12 1_555 1_555
O6 Cu15 1_555 1_555
O7 C2 1_555 1_555
O8 C2 1_555 1_555
O9 C23 1_555 1_555
O10 C23 1_555 1_555
O12 Cu1 1_555 1_555
O13 C4 1_555 1_555
O14 C5 1_555 1_555
O16 C5 1_555 1_555
O17 H1 1_555 1_555
O18 C30 1_555 1_555
O19 C31 1_555 1_555
O20 H2 1_555 1_555
C1 C33 1_555 1_555
C2 C3 1_555 1_555
C3 C20 1_555 1_555
C4 C32 1_555 1_555
C5 C35 1_555 1_555
C6 C7 1_555 1_555
C7 C8 1_555 1_555
C8 H3 1_555 1_555
C9 C8 1_555 1_555
C10 C9 1_555 1_555
H4 C10 1_555 1_555
C11 C10 1_555 1_555
C12 C7 1_555 1_555
H5 C12 1_555 1_555
C13 C11 1_555 1_555
C14 C13 1_555 1_555
C15 C14 1_555 1_555
H6 C15 1_555 1_555
C16 C15 1_555 1_555
C17 C16 1_555 1_555
C18 C13 1_555 1_555
H7 C18 1_555 1_555
C19 C17 1_555 1_555
C20 C19 1_555 1_555
H8 C20 1_555 1_555
C21 C3 1_555 1_555
H9 C21 1_555 1_555
C22 C19 1_555 1_555
H10 C22 1_555 1_555
C23 C26 1_555 1_555
C24 C16 1_555 1_555
C25 C24 1_555 1_555
H11 C25 1_555 1_555
C26 C25 1_555 1_555
C27 C24 1_555 1_555
H12 C27 1_555 1_555
C28 C26 1_555 1_555
H13 C28 1_555 1_555
C29 C27 1_555 1_555
C30 O17 1_555 1_555
C31 O20 1_555 1_555
C32 C21 1_555 1_555
O21 C4 1_555 1_555
C33 C34 1_555 1_555
C34 H14 1_555 1_555
C35 C34 1_555 1_555
C36 C14 1_555 1_555
C37 C35 1_555 1_555
H15 C37 1_555 1_555
C38 C33 1_555 1_555
H16 C38 1_555 1_555
Cu7 O10 1_555 1_555
Cu9 O9 1_555 1_555
Cu14 O4 1_555 1_555
Cu18 O16 1_555 1_555
Cu19 O21 1_555 1_555
O23 Cu12 1_555 1_555
O25 Cu15 1_555 1_555
O28 Cu12 1_555 1_555
O31 Cu15 1_555 1_555
O35 Cu1 1_555 1_555
C9 C31 1_555 1_555
C11 C12 1_555 1_555
C17 C18 1_555 1_555
C22 C32 1_555 1_555
C28 C29 1_555 1_555
C29 C30 1_555 1_555
C36 C37 1_555 1_555
C36 C38 1_555 1_555
O6_2 Cu4 1_555 1_555
O30 Cu4 1_555 1_555
O31_2 Cu4 1_555 1_555
Cu1_2 O8_2 1_555 1_555
Cu2_2 O7_2 1_555 1_555
Cu3 O1_2 1_555 1_555
Cu17 O13_2 1_555 1_555
O1_2 C1_2 1_555 1_555
O2_2 C1_2 1_555 1_555
O3_2 C6_2 1_555 1_555
O4_2 C6_2 1_555 1_555
O5_2 Cu3 1_555 1_555
O7_2 C2_2 1_555 1_555
O8_2 C2_2 1_555 1_555
O9_2 C23_2 1_555 1_555
O10_2 C23_2 1_555 1_555
O11_2 Cu2_2 1_555 1_555
O12_2 Cu1_2 1_555 1_555
O13_2 C4_2 1_555 1_555
O42 C5_2 1_555 1_555
O16_2 C5_2 1_555 1_555
O17_2 H1_2 1_555 1_555
O18_2 C30_2 1_555 1_555
O19_2 C31_2 1_555 1_555
O20_2 H2_2 1_555 1_555
C1_2 C33_2 1_555 1_555
C2_2 C3_2 1_555 1_555
C3_2 C20_2 1_555 1_555
C4_2 C32_2 1_555 1_555
C5_2 C35_2 1_555 1_555
C6_2 C7_2 1_555 1_555
C7_2 C8_2 1_555 1_555
C8_2 H3_2 1_555 1_555
C9_2 C8_2 1_555 1_555
C10_2 C9_2 1_555 1_555
H4_2 C10_2 1_555 1_555
C11_2 C10_2 1_555 1_555
C12_2 C7_2 1_555 1_555
H5_2 C12_2 1_555 1_555
C13_2 C11_2 1_555 1_555
C14_2 C13_2 1_555 1_555
C15_2 C14_2 1_555 1_555
H6_2 C15_2 1_555 1_555
C16_2 C15_2 1_555 1_555
C17_2 C16_2 1_555 1_555
C18_2 C13_2 1_555 1_555
H7_2 C18_2 1_555 1_555
C19_2 C17_2 1_555 1_555
C20_2 C19_2 1_555 1_555
H8_2 C20_2 1_555 1_555
C21_2 C3_2 1_555 1_555
H9_2 C21_2 1_555 1_555
C22_2 C19_2 1_555 1_555
H10_2 C22_2 1_555 1_555
C23_2 C26_2 1_555 1_555
C24_2 C16_2 1_555 1_555
C25_2 C24_2 1_555 1_555
H11_2 C25_2 1_555 1_555
C26_2 C25_2 1_555 1_555
C27_2 C24_2 1_555 1_555
H12_2 C27_2 1_555 1_555
C28_2 C26_2 1_555 1_555
H13_2 C28_2 1_555 1_555
C29_2 C27_2 1_555 1_555
C30_2 O17_2 1_555 1_555
C31_2 O20_2 1_555 1_555
C32_2 C21_2 1_555 1_555
O21_2 C4_2 1_555 1_555
C33_2 C34_2 1_555 1_555
C34_2 H14_2 1_555 1_555
C35_2 C34_2 1_555 1_555
C36_2 C14_2 1_555 1_555
C37_2 C35_2 1_555 1_555
H15_2 C37_2 1_555 1_555
C38_2 C33_2 1_555 1_555
H16_2 C38_2 1_555 1_555
Cu6 O34_2 1_555 1_555
Cu8 O9_2 1_555 1_555
Cu10 O3_2 1_555 1_555
Cu13 O4_2 1_555 1_555
Cu19 O16_2 1_555 1_555
O23_2 Cu3 1_555 1_555
O32_2 C40_2 1_555 1_555
O33_2 Cu2_2 1_555 1_555
O34_2 C40_2 1_555 1_555
O35_2 Cu1_2 1_555 1_555
O36_2 Cu2_2 1_555 1_555
O37_2 Cu2_2 1_555 1_555
O38_2 Cu1_2 1_555 1_555
O39_2 Cu1_2 1_555 1_555
O40_2 C42_2 1_555 1_555
O46_2 Cu17 1_555 1_555
O48_2 H17_2 1_555 1_555
O49_2 C68_2 1_555 1_555
C40_2 C41_2 1_555 1_555
C41_2 C58_2 1_555 1_555
C42_2 C70_2 1_555 1_555
H22_2 C53_2 1_555 1_555
C54_2 C53_2 1_555 1_555
C55_2 C54_2 1_555 1_555
C57_2 C55_2 1_555 1_555
C58_2 C57_2 1_555 1_555
H24_2 C58_2 1_555 1_555
C59_2 C41_2 1_555 1_555
H25_2 C59_2 1_555 1_555
C60_2 C57_2 1_555 1_555
H26_2 C60_2 1_555 1_555
C61_2 O36_2 1_555 1_555
C62_2 C54_2 1_555 1_555
C63_2 C62_2 1_555 1_555
H27_2 C63_2 1_555 1_555
C64_2 C61_2 1_555 1_555
C65_2 C62_2 1_555 1_555
H28_2 C65_2 1_555 1_555
C66_2 C64_2 1_555 1_555
H29_2 C66_2 1_555 1_555
C67_2 C65_2 1_555 1_555
C68_2 O48_2 1_555 1_555
C70_2 C59_2 1_555 1_555
O52_2 C42_2 1_555 1_555
C9_2 C31_2 1_555 1_555
C11_2 C12_2 1_555 1_555
C17_2 C18_2 1_555 1_555
C22_2 C32_2 1_555 1_555
C28_2 C29_2 1_555 1_555
C29_2 C30_2 1_555 1_555
C36_2 C37_2 1_555 1_555
C36_2 C38_2 1_555 1_555
O38_2 C61_2 1_555 1_555
C60_2 C70_2 1_555 1_555
C63_2 C64_2 1_555 1_555
C66_2 C67_2 1_555 1_555
C67_2 C68_2 1_555 1_555
O15_2 H40_2 1_555 1_555
Cu10 O22_2 1_555 1_555
Cu13 O24_2 1_555 1_555
O22_2 C39_2 1_555 1_555
O24_2 C39_2 1_555 1_555
O27 C44_2 1_555 1_555
O30 C44_2 1_555 1_555
O43 C43_2 1_555 1_555
O45_2 C43_2 1_555 1_555
O50_2 C69_2 1_555 1_555
O51_2 H18_2 1_555 1_555
C39_2 C71_2 1_555 1_555
C43_2 C73_2 1_555 1_555
C44_2 C45_2 1_555 1_555
C45_2 C46_2 1_555 1_555
C46_2 H19_2 1_555 1_555
C47_2 C46_2 1_555 1_555
C48_2 C47_2 1_555 1_555
H20_2 C48_2 1_555 1_555
C49_2 C48_2 1_555 1_555
C50_2 C45_2 1_555 1_555
H21_2 C50_2 1_555 1_555
C51_2 C49_2 1_555 1_555
C52_2 C51_2 1_555 1_555
C56_2 C51_2 1_555 1_555
H23_2 C56_2 1_555 1_555
C69_2 O51_2 1_555 1_555
C71_2 C72_2 1_555 1_555
C72_2 H30_2 1_555 1_555
C73_2 C72_2 1_555 1_555
C74_2 C52_2 1_555 1_555
C75_2 C73_2 1_555 1_555
H31_2 C75_2 1_555 1_555
C76_2 C71_2 1_555 1_555
H32_2 C76_2 1_555 1_555
C47_2 C69_2 1_555 1_555
C49_2 C50_2 1_555 1_555
C74_2 C75_2 1_555 1_555
C74_2 C76_2 1_555 1_555
O44_2 Cu20 1_555 1_555
O44_2 H43_2 1_555 1_555
O44_2 H44_2 1_555 1_555
O5_3 Cu11 1_555 1_555
O23_3 Cu11 1_555 1_555
O11_3 Cu9 1_555 1_555
O12_3 Cu7 1_555 1_555
O33_3 Cu9 1_555 1_555
O35_3 Cu7 1_555 1_555
O37_3 Cu9 1_555 1_555
O39_3 Cu7 1_555 1_555
O6_3 Cu14 1_555 1_555
O31_3 Cu14 1_555 1_555
O12_4 Cu6 1_555 1_555
O35_4 Cu6 1_555 1_555
O5_4 Cu10 1_555 1_555
O6_4 Cu13 1_555 1_555
O23_4 Cu10 1_555 1_555
O25_4 Cu13 1_555 1_555
O28_4 Cu10 1_555 1_555
O31_4 Cu13 1_555 1_555
O11_4 Cu8 1_555 1_555
O37_4 Cu8 1_555 1_555
O23_4 C1_3 1_555 1_555
O25_4 C1_3 1_555 1_555
O28_2 C6_3 1_555 1_555
O31_2 C6_3 1_555 1_555
O33_4 C2_3 1_555 1_555
O35_4 C2_3 1_555 1_555
O37_2 C23_3 1_555 1_555
O39_2 C23_3 1_555 1_555
O13_3 C4_3 1_555 1_555
O14_2 C5_3 1_555 1_555
O46_2 C5_3 1_555 1_555
O17_3 H1_3 1_555 1_555
O18_3 C30_3 1_555 1_555
O19_3 C31_3 1_555 1_555
O20_3 H2_3 1_555 1_555
C1_3 C33_3 1_555 1_555
C2_3 C3_3 1_555 1_555
C3_3 C20_3 1_555 1_555
C4_3 C32_3 1_555 1_555
C5_3 C35_3 1_555 1_555
C6_3 C7_3 1_555 1_555
C7_3 C8_3 1_555 1_555
C8_3 H3_3 1_555 1_555
C9_3 C8_3 1_555 1_555
C10_3 C9_3 1_555 1_555
H4_3 C10_3 1_555 1_555
C11_3 C10_3 1_555 1_555
C12_3 C7_3 1_555 1_555
H5_3 C12_3 1_555 1_555
C13_3 C11_3 1_555 1_555
C14_3 C13_3 1_555 1_555
C15_3 C14_3 1_555 1_555
H6_3 C15_3 1_555 1_555
C16_3 C15_3 1_555 1_555
C17_3 C16_3 1_555 1_555
C18_3 C13_3 1_555 1_555
H7_3 C18_3 1_555 1_555
C19_3 C17_3 1_555 1_555
C20_3 C19_3 1_555 1_555
H8_3 C20_3 1_555 1_555
C21_3 C3_3 1_555 1_555
H9_3 C21_3 1_555 1_555
C22_3 C19_3 1_555 1_555
H10_3 C22_3 1_555 1_555
C23_3 C26_3 1_555 1_555
C24_3 C16_3 1_555 1_555
C25_3 C24_3 1_555 1_555
H11_3 C25_3 1_555 1_555
C26_3 C25_3 1_555 1_555
C27_3 C24_3 1_555 1_555
H12_3 C27_3 1_555 1_555
C28_3 C26_3 1_555 1_555
H13_3 C28_3 1_555 1_555
C29_3 C27_3 1_555 1_555
C30_3 O17_3 1_555 1_555
C31_3 O20_3 1_555 1_555
C32_3 C21_3 1_555 1_555
O53 C4_3 1_555 1_555
C33_3 C34_3 1_555 1_555
C34_3 H14_3 1_555 1_555
C35_3 C34_3 1_555 1_555
C36_3 C14_3 1_555 1_555
C37_3 C35_3 1_555 1_555
H15_3 C37_3 1_555 1_555
C38_3 C33_3 1_555 1_555
H16_3 C38_3 1_555 1_555
C9_3 C31_3 1_555 1_555
C11_3 C12_3 1_555 1_555
C17_3 C18_3 1_555 1_555
C22_3 C32_3 1_555 1_555
C28_3 C29_3 1_555 1_555
C29_3 C30_3 1_555 1_555
C36_3 C37_3 1_555 1_555
C36_3 C38_3 1_555 1_555
O15_3 Cu19 1_555 1_555
Cu22 O40_3 1_555 1_555
O33_2 C40_3 1_555 1_555
O35_2 C40_3 1_555 1_555
O40_3 C42_3 1_555 1_555
O48_3 H17_3 1_555 1_555
O49_3 C68_3 1_555 1_555
C40_3 C41_3 1_555 1_555
C41_3 C58_3 1_555 1_555
C42_3 C70_3 1_555 1_555
H22_3 C53_3 1_555 1_555
C54_3 C53_3 1_555 1_555
C55_3 C54_3 1_555 1_555
C57_3 C55_3 1_555 1_555
C58_3 C57_3 1_555 1_555
H24_3 C58_3 1_555 1_555
C59_3 C41_3 1_555 1_555
H25_3 C59_3 1_555 1_555
C60_3 C57_3 1_555 1_555
H26_3 C60_3 1_555 1_555
C61_3 O37_4 1_555 1_555
C62_3 C54_3 1_555 1_555
C63_3 C62_3 1_555 1_555
H27_3 C63_3 1_555 1_555
C64_3 C61_3 1_555 1_555
C65_3 C62_3 1_555 1_555
H28_3 C65_3 1_555 1_555
C66_3 C64_3 1_555 1_555
H29_3 C66_3 1_555 1_555
C67_3 C65_3 1_555 1_555
C68_3 O48_3 1_555 1_555
C70_3 C59_3 1_555 1_555
O54 C42_3 1_555 1_555
O39_4 C61_3 1_555 1_555
C60_3 C70_3 1_555 1_555
C63_3 C64_3 1_555 1_555
C66_3 C67_3 1_555 1_555
C67_3 C68_3 1_555 1_555
O15_3 H39_3 1_555 1_555
O15_3 H40_3 1_555 1_555
O44_3 H44_3 1_555 1_555
O23_2 C39_3 1_555 1_555
O25_2 C39_3 1_555 1_555
O28_4 C44_3 1_555 1_555
O31_4 C44_3 1_555 1_555
O41_2 C43_3 1_555 1_555
O47_2 C43_3 1_555 1_555
O50_3 C69_3 1_555 1_555
O51_3 H18_3 1_555 1_555
C39_3 C71_3 1_555 1_555
C43_3 C73_3 1_555 1_555
C44_3 C45_3 1_555 1_555
C45_3 C46_3 1_555 1_555
C46_3 H19_3 1_555 1_555
C47_3 C46_3 1_555 1_555
C48_3 C47_3 1_555 1_555
H20_3 C48_3 1_555 1_555
C49_3 C48_3 1_555 1_555
C50_3 C45_3 1_555 1_555
H21_3 C50_3 1_555 1_555
C51_3 C49_3 1_555 1_555
C52_3 C51_3 1_555 1_555
C56_3 C51_3 1_555 1_555
H23_3 C56_3 1_555 1_555
C69_3 O51_3 1_555 1_555
C71_3 C72_3 1_555 1_555
C72_3 H30_3 1_555 1_555
C73_3 C72_3 1_555 1_555
C74_3 C52_3 1_555 1_555
C75_3 C73_3 1_555 1_555
H31_3 C75_3 1_555 1_555
C76_3 C71_3 1_555 1_555
H32_3 C76_3 1_555 1_555
C47_3 C69_3 1_555 1_555
C49_3 C50_3 1_555 1_555
C74_3 C75_3 1_555 1_555
C74_3 C76_3 1_555 1_555
O44_4 Cu21 1_555 1_555
O44_4 H43_4 1_555 1_555
O44_4 H44_4 1_555 1_555
O23 C39_4 1_555 1_555
O25 C39_4 1_555 1_555
O28_3 C44_4 1_555 1_555
O31_3 C44_4 1_555 1_555
O43_2 C43_4 1_555 1_555
O47 C43_4 1_555 1_555
O50_4 C69_4 1_555 1_555
O51_4 H18_4 1_555 1_555
C39_4 C71_4 1_555 1_555
C43_4 C73_4 1_555 1_555
C44_4 C45_4 1_555 1_555
C45_4 C46_4 1_555 1_555
C46_4 H19_4 1_555 1_555
C47_4 C46_4 1_555 1_555
C48_4 C47_4 1_555 1_555
H20_4 C48_4 1_555 1_555
C49_4 C48_4 1_555 1_555
C50_4 C45_4 1_555 1_555
H21_4 C50_4 1_555 1_555
C51_4 C49_4 1_555 1_555
C52_4 C51_4 1_555 1_555
C56_4 C51_4 1_555 1_555
H23_4 C56_4 1_555 1_555
C69_4 O51_4 1_555 1_555
C71_4 C72_4 1_555 1_555
C72_4 H30_4 1_555 1_555
C73_4 C72_4 1_555 1_555
C74_4 C52_4 1_555 1_555
C75_4 C73_4 1_555 1_555
H31_4 C75_4 1_555 1_555
C76_4 C71_4 1_555 1_555
H32_4 C76_4 1_555 1_555
C47_4 C69_4 1_555 1_555
C49_4 C50_4 1_555 1_555
C74_4 C75_4 1_555 1_555
C74_4 C76_4 1_555 1_555
O15_4 H40_4 1_555 1_555
Cu18 O13_4 1_555 1_555
O23_3 C1_4 1_555 1_555
O25_3 C1_4 1_555 1_555
O28 C6_4 1_555 1_555
O31 C6_4 1_555 1_555
O33_3 C2_4 1_555 1_555
O35_3 C2_4 1_555 1_555
O37 C23_4 1_555 1_555
O39 C23_4 1_555 1_555
O13_4 C4_4 1_555 1_555
O42_2 C5_4 1_555 1_555
O46 C5_4 1_555 1_555
O17_4 H1_4 1_555 1_555
O18_4 C30_4 1_555 1_555
O19_4 C31_4 1_555 1_555
O20_4 H2_4 1_555 1_555
C1_4 C33_4 1_555 1_555
C2_4 C3_4 1_555 1_555
C3_4 C20_4 1_555 1_555
C4_4 C32_4 1_555 1_555
C5_4 C35_4 1_555 1_555
C6_4 C7_4 1_555 1_555
C7_4 C8_4 1_555 1_555
C8_4 H3_4 1_555 1_555
C9_4 C8_4 1_555 1_555
C10_4 C9_4 1_555 1_555
H4_4 C10_4 1_555 1_555
C11_4 C10_4 1_555 1_555
C12_4 C7_4 1_555 1_555
H5_4 C12_4 1_555 1_555
C13_4 C11_4 1_555 1_555
C14_4 C13_4 1_555 1_555
C15_4 C14_4 1_555 1_555
H6_4 C15_4 1_555 1_555
C16_4 C15_4 1_555 1_555
C17_4 C16_4 1_555 1_555
C18_4 C13_4 1_555 1_555
H7_4 C18_4 1_555 1_555
C19_4 C17_4 1_555 1_555
C20_4 C19_4 1_555 1_555
H8_4 C20_4 1_555 1_555
C21_4 C3_4 1_555 1_555
H9_4 C21_4 1_555 1_555
C22_4 C19_4 1_555 1_555
H10_4 C22_4 1_555 1_555
C23_4 C26_4 1_555 1_555
C24_4 C16_4 1_555 1_555
C25_4 C24_4 1_555 1_555
H11_4 C25_4 1_555 1_555
C26_4 C25_4 1_555 1_555
C27_4 C24_4 1_555 1_555
H12_4 C27_4 1_555 1_555
C28_4 C26_4 1_555 1_555
H13_4 C28_4 1_555 1_555
C29_4 C27_4 1_555 1_555
C30_4 O17_4 1_555 1_555
C31_4 O20_4 1_555 1_555
C32_4 C21_4 1_555 1_555
O53_2 C4_4 1_555 1_555
C33_4 C34_4 1_555 1_555
C34_4 H14_4 1_555 1_555
C35_4 C34_4 1_555 1_555
C36_4 C14_4 1_555 1_555
C37_4 C35_4 1_555 1_555
H15_4 C37_4 1_555 1_555
C38_4 C33_4 1_555 1_555
H16_4 C38_4 1_555 1_555
O33 C40_4 1_555 1_555
O35 C40_4 1_555 1_555
O40_4 C42_4 1_555 1_555
O48_4 H17_4 1_555 1_555
O49_4 C68_4 1_555 1_555
C40_4 C41_4 1_555 1_555
C41_4 C58_4 1_555 1_555
C42_4 C70_4 1_555 1_555
H22_4 C53_4 1_555 1_555
C54_4 C53_4 1_555 1_555
C55_4 C54_4 1_555 1_555
C57_4 C55_4 1_555 1_555
C58_4 C57_4 1_555 1_555
H24_4 C58_4 1_555 1_555
C59_4 C41_4 1_555 1_555
H25_4 C59_4 1_555 1_555
C60_4 C57_4 1_555 1_555
H26_4 C60_4 1_555 1_555
C61_4 O37_3 1_555 1_555
C62_4 C54_4 1_555 1_555
C63_4 C62_4 1_555 1_555
H27_4 C63_4 1_555 1_555
C64_4 C61_4 1_555 1_555
C65_4 C62_4 1_555 1_555
H28_4 C65_4 1_555 1_555
C66_4 C64_4 1_555 1_555
H29_4 C66_4 1_555 1_555
C67_4 C65_4 1_555 1_555
C68_4 O48_4 1_555 1_555
C70_4 C59_4 1_555 1_555
O54_2 C42_4 1_555 1_555
C9_4 C31_4 1_555 1_555
C11_4 C12_4 1_555 1_555
C17_4 C18_4 1_555 1_555
C22_4 C32_4 1_555 1_555
C28_4 C29_4 1_555 1_555
C29_4 C30_4 1_555 1_555
C36_4 C37_4 1_555 1_555
C36_4 C38_4 1_555 1_555
O39_3 C61_4 1_555 1_555
C60_4 C70_4 1_555 1_555
C63_4 C64_4 1_555 1_555
C66_4 C67_4 1_555 1_555
C67_4 C68_4 1_555 1_555

#END
