
###############################################################################
#
# This file contains modified crystal structure data generated from the
# MOF subset of the Cambridge Structural Database (CSD) v543 
# hosted by the Cambridge Crystallographic Data Centre (CCDC).
#
# This work is licensed under the Creative Commons
# Attribution-NonCommercial-ShareAlike 4.0 International License.
# To view a copy of this license, visit
# http://creativecommons.org/licenses/by-nc-sa/4.0/
# or send a letter to
# Creative Commons, PO Box 1866, Mountain View, CA 94042, USA.
#
# CIF created using the CSD Python API on 29 September 2022
# The structure has been converted into the P1 space group
# The structure has a 3D framework
# The original CSD entry HANXED is in the orthorhombic crystal system
# The framework has been calculated to contain at least 10.0% void space
# The void calculation uses a probe of radius 1.32A, grid spacing 0.4
#
###############################################################################

data_HANXED
_chemical_formula_moiety         '(C372 H224 N48 O60 Zn12)n'
_symmetry_cell_setting           triclinic
_symmetry_space_group_name_H-M   'P 1'
_symmetry_Int_Tables_number      1
_space_group_name_Hall           'P 1'
loop_
_symmetry_equiv_pos_site_id
_symmetry_equiv_pos_as_xyz
1 x,y,z
_cell_length_a                   34.215(2)
_cell_length_b                   31.0051(18)
_cell_length_c                   11.7278(8)
_cell_angle_alpha                90
_cell_angle_beta                 90
_cell_angle_gamma                90
_cell_volume                     12441.3
loop_
_atom_site_label
_atom_site_type_symbol
_atom_site_fract_x
_atom_site_fract_y
_atom_site_fract_z
Zn16 Zn 0.374238(10) 0.001209(10) 0.36833(3)
Zn1 Zn 0.288835(10) 0.501414(10) 0.37295(3)
O3 O 0.29646(6) 0.44997(7) 0.27066(19)
O8 O 0.35952(6) 0.46205(7) 0.22777(18)
C11 C 0.32756(9) 0.40295(10) 0.1396(3)
C15 C 0.32784(10) 0.44117(10) 0.2171(3)
H13 H 0.32257(14) 0.250 0.0677(4)
C25 C 0.29904(10) 0.33565(9) 0.0818(3)
H15 H 0.27944(10) 0.31422(9) 0.0908(3)
C31 C 0.32822(10) 0.33015(9) 0.0000(3)
C40 C 0.35684(10) 0.39755(10) 0.0579(3)
H24 H 0.37699(10) 0.41846(10) 0.0507(3)
C42 C 0.29844(10) 0.37235(10) 0.1505(3)
H26 H 0.27808(10) 0.37630(10) 0.2046(3)
O13 O 0.29646(6) 0.05003(7) 0.27066(19)
O16 O 0.35952(6) 0.03795(7) 0.22777(18)
C68 C 0.32756(9) 0.09705(10) 0.1396(3)
C70 C 0.32784(10) 0.05883(10) 0.2171(3)
C72 C 0.29904(10) 0.16435(9) 0.0818(3)
H41 H 0.27944(10) 0.18578(9) 0.0908(3)
C73 C 0.32822(10) 0.16985(9) 0.0000(3)
C76 C 0.35684(10) 0.10245(10) 0.0579(3)
H44 H 0.37699(10) 0.08154(10) 0.0507(3)
C77 C 0.29844(10) 0.12765(10) 0.1505(3)
H45 H 0.27808(10) 0.12370(10) 0.2046(3)
Zn13 Zn 0.374238(10) 0.498791(10) 0.36833(3)
O17 O 0.29844(6) 0.54213(6) 0.23484(18)
O19 O 0.30463(6) 0.55123(7) 0.47436(19)
O24 O 0.30023(6) 0.46029(7) 0.51016(18)
O25 O 0.30023(6) 0.03971(7) 0.51016(18)
N14 N 0.22913(8) 0.50324(7) 0.3735(2)
O5 O 0.36128(6) 0.55225(6) 0.27794(18)
O7 O 0.36335(6) 0.44786(6) 0.46800(18)
N1 N 0.72913(8) 0.50324(7) 0.1265(2)
N2 N 0.58055(8) 0.49483(9) 0.2253(2)
N3 N 0.43169(8) 0.49582(9) 0.3279(2)
N4 N 0.58473(9) 0.51882(10) 0.3255(3)
H1 H 0.60717(9) 0.53135(10) 0.3412(3)
H2 H 0.56491(9) 0.52138(10) 0.3728(3)
N5 N 0.58842(8) 0.46778(11) 0.0533(3)
C1 C 0.71095(9) 0.50106(9) 0.2251(3)
H3 H 0.72620(9) 0.50155(9) 0.2928(3)
C2 C 0.33288(9) 0.40123(9) 0.5986(3)
C5 C 0.70827(9) 0.50101(9) 0.0307(3)
C6 C 0.60706(11) 0.48637(12) 0.1393(3)
C7 C 0.33322(9) 0.59901(10) 0.1460(3)
C8 C 0.30225(10) 0.39244(10) 0.6731(3)
H5 H 0.27983(10) 0.41052(10) 0.6733(3)
C9 C 0.36583(10) 0.62607(10) 0.1506(3)
H6 H 0.38607(10) 0.62002(10) 0.2037(3)
C10 C 0.33132(9) 0.43923(9) 0.5194(3)
C12 C 0.36456(10) 0.37393(10) 0.5963(3)
H7 H 0.38567(10) 0.37971(10) 0.5459(3)
C13 C 0.67081(9) 0.49808(10) 0.2352(3)
H8 H 0.65880(9) 0.49831(10) 0.3083(3)
C14 C 0.33056(9) 0.56139(9) 0.2249(3)
C16 C 0.30473(10) 0.60764(10) 0.0642(3)
H9 H 0.28260(10) 0.58927(10) 0.0582(3)
C17 C 0.64839(11) 0.49477(10) 0.1377(3)
C19 C 0.66800(9) 0.49744(10) 0.0322(3)
C22 C 0.32659(14) 0.250 0.9876(4)
C23 C 0.33554(9) 0.32925(9) 0.7425(3)
C27 C 0.54489(9) 0.48189(12) 0.1823(3)
C28 C 0.47614(11) 0.50282(11) 0.1737(3)
H16 H 0.48044(11) 0.51069(11) 0.0964(3)
C29 C 0.44046(11) 0.50690(13) 0.2187(3)
H17 H 0.42017(11) 0.51811(13) 0.1721(3)
C31_2 C 0.32822(10) 0.33015(9) 1.0000(3)
C34 C 0.46114(10) 0.48078(11) 0.3915(3)
H19 H 0.45591(10) 0.47308(11) 0.4684(3)
C35 C 0.49898(11) 0.47583(13) 0.3508(3)
H20 H 0.51899(11) 0.46487(13) 0.3988(3)
C36 C 0.35652(10) 0.36195(10) 0.9878(3)
H21 H 0.37591(10) 0.35909(10) 0.9303(3)
C37 C 0.50712(10) 0.48714(12) 0.2388(3)
C38 C 0.36601(10) 0.33775(10) 0.6674(3)
H22 H 0.38789(10) 0.31893(10) 0.6644(3)
C39 C 0.36929(10) 0.66131(10) 0.0799(3)
H23 H 0.39155(10) 0.67948(10) 0.0858(3)
H25 H 0.34764(14) 0.750 0.0659(4)
C43 C 0.33928(14) 0.250 0.7559(4)
H27 H 0.34386(14) 0.250 0.6760(4)
N6 N 0.54899(9) 0.46502(11) 0.0821(3)
C45 C 0.33607(9) 0.28935(10) 0.8118(3)
C46 C 0.32944(10) 0.28981(9) 0.9310(3)
C48 C 0.30403(10) 0.35800(10) 0.7463(3)
H30 H 0.28367(10) 0.35361(10) 0.8002(3)
O9 O 0.29844(6) 0.95787(6) 0.23484(18)
O12 O 0.36128(6) 0.94775(6) 0.27794(18)
C51 C 0.33322(9) 0.90099(10) 0.1460(3)
C52 C 0.36583(10) 0.87393(10) 0.1506(3)
H31 H 0.38607(10) 0.87998(10) 0.2037(3)
C53 C 0.33056(9) 0.93861(9) 0.2249(3)
C54 C 0.30473(10) 0.89236(10) 0.0642(3)
H32 H 0.28260(10) 0.91073(10) 0.0582(3)
C62 C 0.36929(10) 0.83869(10) 0.0799(3)
H36 H 0.39155(10) 0.82052(10) 0.0858(3)
O15 O 0.36335(6) 0.05214(6) 0.46800(18)
C65 C 0.33288(9) 0.09877(9) 0.5986(3)
C66 C 0.30225(10) 0.10756(10) 0.6731(3)
H39 H 0.27983(10) 0.08948(10) 0.6733(3)
C67 C 0.33132(9) 0.06077(9) 0.5194(3)
C69 C 0.36456(10) 0.12607(10) 0.5963(3)
H40 H 0.38567(10) 0.12029(10) 0.5459(3)
C71 C 0.33554(9) 0.17075(9) 0.7425(3)
C73_2 C 0.32822(10) 0.16985(9) 1.0000(3)
C74 C 0.35652(10) 0.13805(10) 0.9878(3)
H42 H 0.37591(10) 0.14091(10) 0.9303(3)
C75 C 0.36601(10) 0.16225(10) 0.6674(3)
H43 H 0.38789(10) 0.18107(10) 0.6644(3)
C78 C 0.33607(9) 0.21065(10) 0.8118(3)
C79 C 0.32944(10) 0.21019(9) 0.9310(3)
C80 C 0.30403(10) 0.14200(10) 0.7463(3)
H46 H 0.28367(10) 0.14639(10) 0.8002(3)
N8 N 0.58055(8) 0.00517(9) 0.2253(2)
N9 N 0.43169(8) 0.00418(9) 0.3279(2)
N11 N 0.58842(8) 0.03222(11) 0.0533(3)
C83 C 0.60706(11) 0.01363(12) 0.1393(3)
C84 C 0.67081(9) 0.00192(10) 0.2352(3)
H51 H 0.65880(9) 0.00169(10) 0.3083(3)
C85 C 0.64839(11) 0.00523(10) 0.1377(3)
C86 C 0.66800(9) 0.00256(10) 0.0322(3)
C87 C 0.54489(9) 0.01811(12) 0.1823(3)
C90 C 0.46114(10) 0.01922(11) 0.3915(3)
H55 H 0.45591(10) 0.02692(11) 0.4684(3)
C91 C 0.49898(11) 0.02417(13) 0.3508(3)
H56 H 0.51899(11) 0.03513(13) 0.3988(3)
C92 C 0.50712(10) 0.01286(12) 0.2388(3)
N12 N 0.54899(9) 0.03498(11) 0.0821(3)
Zn10 Zn 0.288835(10) 0.998586(10) 0.37295(3)
Zn11 Zn 0.788835(10) 0.501414(10) 0.12705(3)
O21 O 0.36791(7) 0.53740(6) 0.51269(18)
C3 C 0.33717(9) 0.59777(10) 0.6002(3)
C4 C 0.33633(9) 0.55951(9) 0.5225(3)
H4 H 0.72145(9) 0.50189(9) 0.9594(3)
C18 C 0.36783(10) 0.60447(10) 0.6767(3)
H10 H 0.38889(10) 0.58451(10) 0.6793(3)
H11 H 0.65368(9) 0.49680(10) 0.9628(3)
C20 C 0.34237(9) 0.71078(10) 0.9310(3)
C21 C 0.30825(10) 0.64294(10) 0.9910(3)
H12 H 0.28874(10) 0.64814(10) 0.9350(3)
C24 C 0.33852(13) 0.750 0.7547(4)
H14 H 0.33697(13) 0.750 0.6738(4)
C26 C 0.33960(10) 0.71043(10) 0.8112(3)
C30 C 0.30821(10) 0.66400(10) 0.6634(3)
H18 H 0.28801(10) 0.68489(10) 0.6573(3)
C32 C 0.33847(9) 0.67020(9) 0.7419(3)
C33 C 0.34022(10) 0.67056(9) 0.9995(3)
C41 C 0.34450(14) 0.750 0.9855(4)
C44 C 0.30738(10) 0.62732(10) 0.5937(3)
H28 H 0.28632(10) 0.62292(10) 0.5422(3)
C47 C 0.36795(11) 0.63971(10) 0.7485(3)
H29 H 0.38833(11) 0.64306(10) 0.8028(3)
O10 O 0.30463(6) 0.94877(7) 0.47436(19)
O11 O 0.36791(7) 0.96260(6) 0.51269(18)
C49 C 0.33717(9) 0.90223(10) 0.6002(3)
C50 C 0.33633(9) 0.94049(9) 0.5225(3)
C55 C 0.36783(10) 0.89553(10) 0.6767(3)
H33 H 0.38889(10) 0.91549(10) 0.6793(3)
C56 C 0.34237(9) 0.78922(10) 0.9310(3)
C57 C 0.30825(10) 0.85706(10) 0.9910(3)
H34 H 0.28874(10) 0.85186(10) 0.9350(3)
C58 C 0.33960(10) 0.78957(10) 0.8112(3)
C59 C 0.30821(10) 0.83600(10) 0.6634(3)
H35 H 0.28801(10) 0.81511(10) 0.6573(3)
C60 C 0.33847(9) 0.82980(9) 0.7419(3)
C61 C 0.34022(10) 0.82944(9) 0.9995(3)
C63 C 0.30738(10) 0.87268(10) 0.5937(3)
H37 H 0.28632(10) 0.87708(10) 0.5422(3)
C64 C 0.36795(11) 0.86029(10) 0.7485(3)
H38 H 0.38833(11) 0.85694(10) 0.8028(3)
H52 H 0.65368(9) 0.00320(10) 0.9628(3)
N13 N 0.22913(8) 0.99676(7) 0.3735(2)
N7 N 0.72913(8) 0.99676(7) 0.1265(2)
N10 N 0.58473(9) 0.98118(10) 0.3255(3)
H47 H 0.60717(9) 0.96865(10) 0.3412(3)
H48 H 0.56491(9) 0.97862(10) 0.3728(3)
C81 C 0.71095(9) 0.99894(9) 0.2251(3)
H49 H 0.72620(9) 0.99845(9) 0.2928(3)
C82 C 0.70827(9) 0.99899(9) 0.0307(3)
C88 C 0.47614(11) 0.99718(11) 0.1737(3)
H53 H 0.48044(11) 0.98931(11) 0.0964(3)
C89 C 0.44046(11) 0.99310(13) 0.2187(3)
H54 H 0.42017(11) 0.98189(13) 0.1721(3)
Zn7 Zn 0.788835(10) 0.998586(10) 0.12705(3)
H50 H 0.72145(9) 0.99811(9) 0.9594(3)
N2_2 N 0.08055(8) 0.00517(9) 0.2747(2)
N5_2 N 0.08842(8) 0.03222(11) 0.4467(3)
C6_2 C 0.10706(11) 0.01363(12) 0.3607(3)
C13_2 C 0.17081(9) 0.00192(10) 0.2648(3)
H8_2 H 0.15880(9) 0.00169(10) 0.1917(3)
C17_2 C 0.14839(11) 0.00523(10) 0.3623(3)
C19_2 C 0.16800(9) 0.00256(10) 0.4678(3)
H11_2 H 0.15368(9) 0.00320(10) 0.5372(3)
C27_2 C 0.04489(9) 0.01811(12) 0.3177(3)
H20_2 H 0.01899(11) 0.03513(13) 0.1012(3)
C37_2 C 0.00712(10) 0.01286(12) 0.2612(3)
N6_2 N 0.04899(9) 0.03498(11) 0.4179(3)
N8_2 N 0.08055(8) 0.49483(9) 0.2747(2)
N10_2 N 0.08473(9) 0.51882(10) 0.1745(3)
H47_2 H 0.10717(9) 0.53135(10) 0.1588(3)
H48_2 H 0.06491(9) 0.52138(10) 0.1272(3)
N11_2 N 0.08842(8) 0.46778(11) 0.4467(3)
C81_2 C 0.21095(9) 0.50106(9) 0.2749(3)
H49_2 H 0.22620(9) 0.50155(9) 0.2072(3)
C82_2 C 0.20827(9) 0.50101(9) 0.4693(3)
H50_2 H 0.22145(9) 0.50189(9) 0.5406(3)
C83_2 C 0.10706(11) 0.48637(12) 0.3607(3)
C84_2 C 0.17081(9) 0.49808(10) 0.2648(3)
H51_2 H 0.15880(9) 0.49831(10) 0.1917(3)
C85_2 C 0.14839(11) 0.49477(10) 0.3623(3)
C86_2 C 0.16800(9) 0.49744(10) 0.4678(3)
H52_2 H 0.15368(9) 0.49680(10) 0.5372(3)
C87_2 C 0.04489(9) 0.48189(12) 0.3177(3)
H56_2 H 0.01899(11) 0.46487(13) 0.1012(3)
C92_2 C 0.00712(10) 0.48714(12) 0.2612(3)
N12_2 N 0.04899(9) 0.46502(11) 0.4179(3)
N4_2 N 0.08473(9) 0.98118(10) 0.1745(3)
H1_2 H 0.10717(9) 0.96865(10) 0.1588(3)
H2_2 H 0.06491(9) 0.97862(10) 0.1272(3)
C1_2 C 0.21095(9) 0.99894(9) 0.2749(3)
H3_2 H 0.22620(9) 0.99845(9) 0.2072(3)
C5_2 C 0.20827(9) 0.99899(9) 0.4693(3)
H4_2 H 0.22145(9) 0.99811(9) 0.5406(3)
Zn12 Zn 0.874238(10) 0.001209(10) 0.13167(3)
O7_2 O 0.86335(6) 0.05214(6) 0.03200(18)
N3_2 N 0.93169(8) 0.00418(9) 0.1721(2)
C34_2 C 0.96114(10) 0.01922(11) 0.1085(3)
H19_2 H 0.95591(10) 0.02692(11) 0.0316(3)
C35_2 C 0.99898(11) 0.02417(13) 0.1492(3)
O15_2 O 0.86335(6) 0.44786(6) 0.03200(18)
Zn4 Zn 0.874238(10) 0.498791(10) 0.13167(3)
N9_2 N 0.93169(8) 0.49582(9) 0.1721(2)
C88_2 C 0.97614(11) 0.50282(11) 0.3263(3)
H53_2 H 0.98044(11) 0.51069(11) 0.4036(3)
C89_2 C 0.94046(11) 0.50690(13) 0.2813(3)
H54_2 H 0.92017(11) 0.51811(13) 0.3279(3)
C90_2 C 0.96114(10) 0.48078(11) 0.1085(3)
H55_2 H 0.95591(10) 0.47308(11) 0.0316(3)
C91_2 C 0.99898(11) 0.47583(13) 0.1492(3)
O23 O 0.86128(6) 0.55225(6) 0.22206(18)
O26 O 0.85952(6) 0.03795(7) 0.27223(18)
O27 O 0.85952(6) 0.46205(7) 0.27223(18)
O3_2 O 0.79646(6) 0.05003(7) 0.22934(19)
O6 O 0.80023(6) 0.03971(7) 0.98984(18)
C2_2 C 0.83288(9) 0.09877(9) 0.9014(3)
C8_2 C 0.80225(10) 0.10756(10) 0.8269(3)
H5_2 H 0.77983(10) 0.08948(10) 0.8267(3)
C10_2 C 0.83132(9) 0.06077(9) 0.9806(3)
C11_2 C 0.82756(9) 0.09705(10) 0.3604(3)
C12_2 C 0.86456(10) 0.12607(10) 0.9037(3)
H7_2 H 0.88567(10) 0.12029(10) 0.9541(3)
C15_2 C 0.82784(10) 0.05883(10) 0.2829(3)
C22_2 C 0.82659(14) 0.250 0.5124(4)
H13_2 H 0.82257(14) 0.250 0.4323(4)
C23_2 C 0.83554(9) 0.17075(9) 0.7575(3)
C25_2 C 0.79904(10) 0.16435(9) 0.4182(3)
H15_2 H 0.77944(10) 0.18578(9) 0.4092(3)
C31_3 C 0.82822(10) 0.16985(9) 0.5000(3)
C36_2 C 0.85652(10) 0.13805(10) 0.5122(3)
H21_2 H 0.87591(10) 0.14091(10) 0.5697(3)
C38_2 C 0.86601(10) 0.16225(10) 0.8326(3)
H22_2 H 0.88789(10) 0.18107(10) 0.8356(3)
C40_2 C 0.85684(10) 0.10245(10) 0.4421(3)
H24_2 H 0.87699(10) 0.08154(10) 0.4493(3)
C42_2 C 0.79844(10) 0.12765(10) 0.3495(3)
H26_2 H 0.77808(10) 0.12370(10) 0.2954(3)
C43_2 C 0.83928(14) 0.250 0.7441(4)
H27_2 H 0.84386(14) 0.250 0.8240(4)
C45_2 C 0.83607(9) 0.21065(10) 0.6882(3)
C46_2 C 0.82944(10) 0.21019(9) 0.5690(3)
C48_2 C 0.80403(10) 0.14200(10) 0.7537(3)
H30_2 H 0.78367(10) 0.14639(10) 0.6998(3)
O13_2 O 0.79646(6) 0.44997(7) 0.22934(19)
O14 O 0.80023(6) 0.46029(7) 0.98984(18)
C65_2 C 0.83288(9) 0.40123(9) 0.9014(3)
C66_2 C 0.80225(10) 0.39244(10) 0.8269(3)
H39_2 H 0.77983(10) 0.41052(10) 0.8267(3)
C67_2 C 0.83132(9) 0.43923(9) 0.9806(3)
C68_2 C 0.82756(9) 0.40295(10) 0.3604(3)
C69_2 C 0.86456(10) 0.37393(10) 0.9037(3)
H40_2 H 0.88567(10) 0.37971(10) 0.9541(3)
C70_2 C 0.82784(10) 0.44117(10) 0.2829(3)
C71_2 C 0.83554(9) 0.32925(9) 0.7575(3)
C72_2 C 0.79904(10) 0.33565(9) 0.4182(3)
H41_2 H 0.77944(10) 0.31422(9) 0.4092(3)
C73_3 C 0.82822(10) 0.33015(9) 0.5000(3)
C74_2 C 0.85652(10) 0.36195(10) 0.5122(3)
H42_2 H 0.87591(10) 0.35909(10) 0.5697(3)
C75_2 C 0.86601(10) 0.33775(10) 0.8326(3)
H43_2 H 0.88789(10) 0.31893(10) 0.8356(3)
C76_2 C 0.85684(10) 0.39755(10) 0.4421(3)
H44_2 H 0.87699(10) 0.41846(10) 0.4493(3)
C77_2 C 0.79844(10) 0.37235(10) 0.3495(3)
H45_2 H 0.77808(10) 0.37630(10) 0.2954(3)
C78_2 C 0.83607(9) 0.28935(10) 0.6882(3)
C79_2 C 0.82944(10) 0.28981(9) 0.5690(3)
C80_2 C 0.80403(10) 0.35800(10) 0.7537(3)
H46_2 H 0.78367(10) 0.35361(10) 0.6998(3)
O18 O 0.79844(6) 0.54213(6) 0.26516(18)
O20 O 0.80463(6) 0.55123(7) 0.02564(19)
O22 O 0.86791(7) 0.53740(6) 0.98731(18)
O2 O 0.80463(6) 0.94877(7) 0.02564(19)
O1 O 0.79844(6) 0.95787(6) 0.26516(18)
O4 O 0.86791(7) 0.96260(6) 0.98731(18)
O5_2 O 0.86128(6) 0.94775(6) 0.22206(18)
C3_2 C 0.83717(9) 0.90223(10) 0.8998(3)
C4_2 C 0.83633(9) 0.94049(9) 0.9775(3)
C7_2 C 0.83322(9) 0.90099(10) 0.3540(3)
C9_2 C 0.86583(10) 0.87393(10) 0.3494(3)
H6_2 H 0.88607(10) 0.87998(10) 0.2963(3)
C14_2 C 0.83056(9) 0.93861(9) 0.2751(3)
C16_2 C 0.80473(10) 0.89236(10) 0.4358(3)
H9_2 H 0.78260(10) 0.91073(10) 0.4418(3)
C18_2 C 0.86783(10) 0.89553(10) 0.8233(3)
H10_2 H 0.88889(10) 0.91549(10) 0.8207(3)
C20_2 C 0.84237(9) 0.78922(10) 0.5690(3)
C21_2 C 0.80825(10) 0.85706(10) 0.5090(3)
H12_2 H 0.78874(10) 0.85186(10) 0.5650(3)
C24_2 C 0.83852(13) 0.750 0.7453(4)
H14_2 H 0.83697(13) 0.750 0.8262(4)
C26_2 C 0.83960(10) 0.78957(10) 0.6888(3)
C28_2 C 0.97614(11) 0.99718(11) 0.3263(3)
H16_2 H 0.98044(11) 0.98931(11) 0.4036(3)
C29_2 C 0.94046(11) 0.99310(13) 0.2813(3)
H17_2 H 0.92017(11) 0.98189(13) 0.3279(3)
C30_2 C 0.80821(10) 0.83600(10) 0.8366(3)
H18_2 H 0.78801(10) 0.81511(10) 0.8427(3)
C32_2 C 0.83847(9) 0.82980(9) 0.7581(3)
C33_2 C 0.84022(10) 0.82944(9) 0.5005(3)
C39_2 C 0.86929(10) 0.83869(10) 0.4201(3)
H23_2 H 0.89155(10) 0.82052(10) 0.4142(3)
C41_2 C 0.84450(14) 0.750 0.5145(4)
H25_2 H 0.84764(14) 0.750 0.4341(4)
C44_2 C 0.80738(10) 0.87268(10) 0.9063(3)
H28_2 H 0.78632(10) 0.87708(10) 0.9578(3)
C47_2 C 0.86795(11) 0.86029(10) 0.7515(3)
H29_2 H 0.88833(11) 0.85694(10) 0.6972(3)
C49_2 C 0.83717(9) 0.59777(10) 0.8998(3)
C50_2 C 0.83633(9) 0.55951(9) 0.9775(3)
C51_2 C 0.83322(9) 0.59901(10) 0.3540(3)
C52_2 C 0.86583(10) 0.62607(10) 0.3494(3)
H31_2 H 0.88607(10) 0.62002(10) 0.2963(3)
C53_2 C 0.83056(9) 0.56139(9) 0.2751(3)
C54_2 C 0.80473(10) 0.60764(10) 0.4358(3)
H32_2 H 0.78260(10) 0.58927(10) 0.4418(3)
C55_2 C 0.86783(10) 0.60447(10) 0.8233(3)
H33_2 H 0.88889(10) 0.58451(10) 0.8207(3)
C56_2 C 0.84237(9) 0.71078(10) 0.5690(3)
C57_2 C 0.80825(10) 0.64294(10) 0.5090(3)
H34_2 H 0.78874(10) 0.64814(10) 0.5650(3)
C58_2 C 0.83960(10) 0.71043(10) 0.6888(3)
C59_2 C 0.80821(10) 0.66400(10) 0.8366(3)
H35_2 H 0.78801(10) 0.68489(10) 0.8427(3)
C60_2 C 0.83847(9) 0.67020(9) 0.7581(3)
C61_2 C 0.84022(10) 0.67056(9) 0.5005(3)
C62_2 C 0.86929(10) 0.66131(10) 0.4201(3)
H36_2 H 0.89155(10) 0.67948(10) 0.4142(3)
C63_2 C 0.80738(10) 0.62732(10) 0.9063(3)
H37_2 H 0.78632(10) 0.62292(10) 0.9578(3)
C64_2 C 0.86795(11) 0.63971(10) 0.7515(3)
H38_2 H 0.88833(11) 0.64306(10) 0.6972(3)
O2_2 O 0.69537(6) 0.05123(7) 0.52564(19)
O4_2 O 0.63209(7) 0.03740(6) 0.48731(18)
C3_3 C 0.66283(9) 0.09777(10) 0.3998(3)
C4_3 C 0.66367(9) 0.05951(9) 0.4775(3)
H4_3 H 0.27855(9) 0.00189(9) 0.0406(3)
C18_3 C 0.63217(10) 0.10447(10) 0.3233(3)
H10_3 H 0.61111(10) 0.08451(10) 0.3207(3)
C20_3 C 0.65763(9) 0.21078(10) 0.0690(3)
C21_3 C 0.69175(10) 0.14294(10) 0.0090(3)
H12_3 H 0.71126(10) 0.14814(10) 0.0650(3)
C24_3 C 0.66148(13) 0.250 0.2453(4)
H14_3 H 0.66303(13) 0.250 0.3262(4)
C26_3 C 0.66040(10) 0.21043(10) 0.1888(3)
C30_3 C 0.69179(10) 0.16400(10) 0.3366(3)
H18_3 H 0.71199(10) 0.18489(10) 0.3427(3)
C32_3 C 0.66153(9) 0.17020(9) 0.2581(3)
C33_3 C 0.65978(10) 0.17056(9) 0.0005(3)
C41_3 C 0.65550(14) 0.250 0.0145(4)
C44_3 C 0.69262(10) 0.12732(10) 0.4063(3)
H28_3 H 0.71368(10) 0.12292(10) 0.4578(3)
C47_3 C 0.63205(11) 0.13971(10) 0.2515(3)
H29_3 H 0.61167(11) 0.14306(10) 0.1972(3)
O10_2 O 0.69537(6) 0.44877(7) 0.52564(19)
O11_2 O 0.63209(7) 0.46260(6) 0.48731(18)
C49_3 C 0.66283(9) 0.40223(10) 0.3998(3)
C50_3 C 0.66367(9) 0.44049(9) 0.4775(3)
C55_3 C 0.63217(10) 0.39553(10) 0.3233(3)
H33_3 H 0.61111(10) 0.41549(10) 0.3207(3)
C56_3 C 0.65763(9) 0.28922(10) 0.0690(3)
C57_3 C 0.69175(10) 0.35706(10) 0.0090(3)
H34_3 H 0.71126(10) 0.35186(10) 0.0650(3)
C58_3 C 0.66040(10) 0.28957(10) 0.1888(3)
C59_3 C 0.69179(10) 0.33600(10) 0.3366(3)
H35_3 H 0.71199(10) 0.31511(10) 0.3427(3)
C60_3 C 0.66153(9) 0.32980(9) 0.2581(3)
C61_3 C 0.65978(10) 0.32944(9) 0.0005(3)
C63_3 C 0.69262(10) 0.37268(10) 0.4063(3)
H37_3 H 0.71368(10) 0.37708(10) 0.4578(3)
C64_3 C 0.63205(11) 0.36029(10) 0.2515(3)
H38_3 H 0.61167(11) 0.35694(10) 0.1972(3)
Zn5 Zn 0.711165(10) 0.001414(10) 0.62705(3)
Zn9 Zn 0.711165(10) 0.498586(10) 0.62705(3)
Zn15 Zn 0.625762(10) 0.501209(10) 0.63167(3)
O1_2 O 0.70156(6) 0.04213(6) 0.76516(18)
O5_3 O 0.63872(6) 0.05225(6) 0.72206(18)
N1_2 N 0.27087(8) 0.00324(7) 0.8735(2)
N4_3 N 0.41527(9) 0.01882(10) 0.6745(3)
H1_3 H 0.39283(9) 0.03135(10) 0.6588(3)
H2_3 H 0.43509(9) 0.02138(10) 0.6272(3)
C1_3 C 0.28905(9) 0.00106(9) 0.7749(3)
H3_3 H 0.27380(9) 0.00155(9) 0.7072(3)
C5_3 C 0.29173(9) 0.00101(9) 0.9693(3)
C7_3 C 0.66678(9) 0.09901(10) 0.8540(3)
C9_3 C 0.63417(10) 0.12607(10) 0.8494(3)
H6_3 H 0.61393(10) 0.12002(10) 0.7963(3)
C14_3 C 0.66944(9) 0.06139(9) 0.7751(3)
C16_3 C 0.69527(10) 0.10764(10) 0.9358(3)
H9_3 H 0.71740(10) 0.08927(10) 0.9418(3)
C28_3 C 0.52386(11) 0.00282(11) 0.8263(3)
H16_3 H 0.51956(11) 0.01069(11) 0.9036(3)
C29_3 C 0.55954(11) 0.00690(13) 0.7813(3)
H17_3 H 0.57983(11) 0.01811(13) 0.8279(3)
C39_3 C 0.63071(10) 0.16131(10) 0.9201(3)
H23_3 H 0.60845(10) 0.17948(10) 0.9142(3)
H25_3 H 0.65236(14) 0.250 0.9341(4)
O9_2 O 0.70156(6) 0.45787(6) 0.76516(18)
O12_2 O 0.63872(6) 0.44775(6) 0.72206(18)
C51_3 C 0.66678(9) 0.40099(10) 0.8540(3)
C52_3 C 0.63417(10) 0.37393(10) 0.8494(3)
H31_3 H 0.61393(10) 0.37998(10) 0.7963(3)
C53_3 C 0.66944(9) 0.43861(9) 0.7751(3)
C54_3 C 0.69527(10) 0.39236(10) 0.9358(3)
H32_3 H 0.71740(10) 0.41073(10) 0.9418(3)
C62_3 C 0.63071(10) 0.33869(10) 0.9201(3)
H36_3 H 0.60845(10) 0.32052(10) 0.9142(3)
Zn11_2 Zn 0.211165(10) 0.001414(10) 0.87295(3)
N14_2 N 0.77087(8) 0.00324(7) 0.6265(2)
H11_3 H 0.34632(9) 0.99680(10) 0.0372(3)
H50_3 H 0.27855(9) 0.49811(9) 0.0406(3)
H52_3 H 0.34632(9) 0.50320(10) 0.0372(3)
Zn12_2 Zn 0.625762(10) 0.998791(10) 0.63167(3)
O6_2 O 0.69977(6) 0.96029(7) 0.48984(18)
O7_3 O 0.63665(6) 0.94786(6) 0.53200(18)
N2_3 N 0.41945(8) 0.99483(9) 0.7747(2)
N3_3 N 0.56831(8) 0.99582(9) 0.6721(2)
N5_3 N 0.41158(8) 0.96778(11) 0.9467(3)
C2_3 C 0.66712(9) 0.90123(9) 0.4014(3)
C6_3 C 0.39294(11) 0.98637(12) 0.8607(3)
C8_3 C 0.69775(10) 0.89244(10) 0.3269(3)
H5_3 H 0.72017(10) 0.91052(10) 0.3267(3)
C10_3 C 0.66868(9) 0.93923(9) 0.4806(3)
C12_3 C 0.63544(10) 0.87393(10) 0.4037(3)
H7_3 H 0.61433(10) 0.87971(10) 0.4541(3)
C13_3 C 0.32919(9) 0.99808(10) 0.7648(3)
H8_3 H 0.34120(9) 0.99831(10) 0.6917(3)
C17_3 C 0.35161(11) 0.99477(10) 0.8623(3)
C19_3 C 0.33200(9) 0.99744(10) 0.9678(3)
C22_3 C 0.67341(14) 0.750 0.0124(4)
C23_3 C 0.66446(9) 0.82925(9) 0.2575(3)
C27_3 C 0.45511(9) 0.98189(12) 0.8177(3)
C31_4 C 0.67178(10) 0.83015(9) 0.0000(3)
C34_3 C 0.53886(10) 0.98078(11) 0.6085(3)
H19_3 H 0.54409(10) 0.97308(11) 0.5316(3)
C35_3 C 0.50102(11) 0.97583(13) 0.6492(3)
H20_3 H 0.48101(11) 0.96487(13) 0.6012(3)
C36_3 C 0.64348(10) 0.86195(10) 0.0122(3)
H21_3 H 0.62409(10) 0.85909(10) 0.0697(3)
C37_3 C 0.49288(10) 0.98714(12) 0.7612(3)
C38_3 C 0.63399(10) 0.83775(10) 0.3326(3)
H22_3 H 0.61211(10) 0.81893(10) 0.3356(3)
C43_3 C 0.66072(14) 0.750 0.2441(4)
H27_3 H 0.65614(14) 0.750 0.3240(4)
N6_3 N 0.45101(9) 0.96502(11) 0.9179(3)
C45_3 C 0.66393(9) 0.78935(10) 0.1882(3)
C46_3 C 0.67056(10) 0.78981(9) 0.0690(3)
C48_3 C 0.69597(10) 0.85800(10) 0.2537(3)
H30_3 H 0.71633(10) 0.85361(10) 0.1998(3)
O14_2 O 0.69977(6) 0.53971(7) 0.48984(18)
O15_3 O 0.63665(6) 0.55214(6) 0.53200(18)
C65_3 C 0.66712(9) 0.59877(9) 0.4014(3)
C66_3 C 0.69775(10) 0.60756(10) 0.3269(3)
H39_3 H 0.72017(10) 0.58948(10) 0.3267(3)
C67_3 C 0.66868(9) 0.56077(9) 0.4806(3)
C69_3 C 0.63544(10) 0.62607(10) 0.4037(3)
H40_3 H 0.61433(10) 0.62029(10) 0.4541(3)
C71_3 C 0.66446(9) 0.67075(9) 0.2575(3)
C73_4 C 0.67178(10) 0.66985(9) 0.0000(3)
C74_3 C 0.64348(10) 0.63805(10) 0.0122(3)
H42_3 H 0.62409(10) 0.64091(10) 0.0697(3)
C75_3 C 0.63399(10) 0.66225(10) 0.3326(3)
H43_3 H 0.61211(10) 0.68107(10) 0.3356(3)
C78_3 C 0.66393(9) 0.71065(10) 0.1882(3)
C79_3 C 0.67056(10) 0.71019(9) 0.0690(3)
C80_3 C 0.69597(10) 0.64200(10) 0.2537(3)
H46_3 H 0.71633(10) 0.64639(10) 0.1998(3)
N7_2 N 0.27087(8) 0.49676(7) 0.8735(2)
N8_3 N 0.41945(8) 0.50517(9) 0.7747(2)
N9_3 N 0.56831(8) 0.50418(9) 0.6721(2)
N10_3 N 0.41527(9) 0.48118(10) 0.6745(3)
H47_3 H 0.39283(9) 0.46865(10) 0.6588(3)
H48_3 H 0.43509(9) 0.47862(10) 0.6272(3)
N11_3 N 0.41158(8) 0.53222(11) 0.9467(3)
C81_3 C 0.28905(9) 0.49894(9) 0.7749(3)
H49_3 H 0.27380(9) 0.49845(9) 0.7072(3)
C82_3 C 0.29173(9) 0.49899(9) 0.9693(3)
C83_3 C 0.39294(11) 0.51363(12) 0.8607(3)
C84_3 C 0.32919(9) 0.50192(10) 0.7648(3)
H51_3 H 0.34120(9) 0.50169(10) 0.6917(3)
C85_3 C 0.35161(11) 0.50523(10) 0.8623(3)
C86_3 C 0.33200(9) 0.50256(10) 0.9678(3)
C87_3 C 0.45511(9) 0.51811(12) 0.8177(3)
C88_3 C 0.52386(11) 0.49718(11) 0.8263(3)
H53_3 H 0.51956(11) 0.48931(11) 0.9036(3)
C89_3 C 0.55954(11) 0.49310(13) 0.7813(3)
H54_3 H 0.57983(11) 0.48189(13) 0.8279(3)
C90_3 C 0.53886(10) 0.51922(11) 0.6085(3)
H55_3 H 0.54409(10) 0.52692(11) 0.5316(3)
C91_3 C 0.50102(11) 0.52417(13) 0.6492(3)
H56_3 H 0.48101(11) 0.53513(13) 0.6012(3)
C92_3 C 0.49288(10) 0.51286(12) 0.7612(3)
N12_3 N 0.45101(9) 0.53498(11) 0.9179(3)
Zn7_2 Zn 0.211165(10) 0.498586(10) 0.87295(3)
O26_2 O 0.64048(6) 0.96205(7) 0.77223(18)
O27_2 O 0.64048(6) 0.53795(7) 0.77223(18)
O3_3 O 0.70354(6) 0.94997(7) 0.72934(19)
C11_3 C 0.67244(9) 0.90295(10) 0.8604(3)
C15_3 C 0.67216(10) 0.94117(10) 0.7829(3)
H13_3 H 0.67743(14) 0.750 0.9323(4)
C25_3 C 0.70096(10) 0.83565(9) 0.9182(3)
H15_3 H 0.72056(10) 0.81422(9) 0.9092(3)
C31_5 C 0.67178(10) 0.83015(9) 1.0000(3)
C40_3 C 0.64316(10) 0.89755(10) 0.9421(3)
H24_3 H 0.62301(10) 0.91846(10) 0.9493(3)
C42_3 C 0.70156(10) 0.87235(10) 0.8495(3)
H26_3 H 0.72192(10) 0.87630(10) 0.7954(3)
O13_3 O 0.70354(6) 0.55003(7) 0.72934(19)
C68_3 C 0.67244(9) 0.59705(10) 0.8604(3)
C70_3 C 0.67216(10) 0.55883(10) 0.7829(3)
C72_3 C 0.70096(10) 0.66435(9) 0.9182(3)
H41_3 H 0.72056(10) 0.68578(9) 0.9092(3)
C73_5 C 0.67178(10) 0.66985(9) 1.0000(3)
C76_3 C 0.64316(10) 0.60245(10) 0.9421(3)
H44_3 H 0.62301(10) 0.58154(10) 0.9493(3)
C77_3 C 0.70156(10) 0.62765(10) 0.8495(3)
H45_3 H 0.72192(10) 0.62370(10) 0.7954(3)
N13_2 N 0.77087(8) 0.49676(7) 0.6265(2)
O18_2 O 0.20156(6) 0.04213(6) 0.73484(18)
O20_2 O 0.19537(6) 0.05123(7) 0.97436(19)
O22_2 O 0.13209(7) 0.03740(6) 0.01269(18)
C88_4 C 0.02386(11) 0.00282(11) 0.6737(3)
H53_4 H 0.01956(11) 0.01069(11) 0.5964(3)
C89_4 C 0.05954(11) 0.00690(13) 0.7187(3)
H54_4 H 0.07983(11) 0.01811(13) 0.6721(3)
O23_2 O 0.13872(6) 0.05225(6) 0.77794(18)
O24_2 O 0.19977(6) 0.53971(7) 0.01016(18)
O25_2 O 0.19977(6) 0.96029(7) 0.01016(18)
O3_4 O 0.20354(6) 0.55003(7) 0.77066(19)
O8_2 O 0.14048(6) 0.53795(7) 0.72777(18)
C2_4 C 0.16712(9) 0.59877(9) 0.0986(3)
C8_4 C 0.19775(10) 0.60756(10) 0.1731(3)
H5_4 H 0.22017(10) 0.58948(10) 0.1733(3)
C10_4 C 0.16868(9) 0.56077(9) 0.0194(3)
C11_4 C 0.17244(9) 0.59705(10) 0.6396(3)
C12_4 C 0.13544(10) 0.62607(10) 0.0963(3)
H7_4 H 0.11433(10) 0.62029(10) 0.0459(3)
C15_4 C 0.17216(10) 0.55883(10) 0.7171(3)
C22_4 C 0.17341(14) 0.750 0.4876(4)
H13_4 H 0.17743(14) 0.750 0.5677(4)
C23_4 C 0.16446(9) 0.67075(9) 0.2425(3)
C25_4 C 0.20096(10) 0.66435(9) 0.5818(3)
H15_4 H 0.22056(10) 0.68578(9) 0.5908(3)
C31_6 C 0.17178(10) 0.66985(9) 0.5000(3)
C36_4 C 0.14348(10) 0.63805(10) 0.4878(3)
H21_4 H 0.12409(10) 0.64091(10) 0.4303(3)
C38_4 C 0.13399(10) 0.66225(10) 0.1674(3)
H22_4 H 0.11211(10) 0.68107(10) 0.1644(3)
C40_4 C 0.14316(10) 0.60245(10) 0.5579(3)
H24_4 H 0.12301(10) 0.58154(10) 0.5507(3)
C42_4 C 0.20156(10) 0.62765(10) 0.6505(3)
H26_4 H 0.22192(10) 0.62370(10) 0.7046(3)
C43_4 C 0.16072(14) 0.750 0.2559(4)
H27_4 H 0.15614(14) 0.750 0.1760(4)
C45_4 C 0.16393(9) 0.71065(10) 0.3118(3)
C46_4 C 0.17056(10) 0.71019(9) 0.4310(3)
C48_4 C 0.19597(10) 0.64200(10) 0.2463(3)
H30_4 H 0.21633(10) 0.64639(10) 0.3002(3)
O13_4 O 0.20354(6) 0.94997(7) 0.77066(19)
O16_2 O 0.14048(6) 0.96205(7) 0.72777(18)
C65_4 C 0.16712(9) 0.90123(9) 0.0986(3)
C66_4 C 0.19775(10) 0.89244(10) 0.1731(3)
H39_4 H 0.22017(10) 0.91052(10) 0.1733(3)
C67_4 C 0.16868(9) 0.93923(9) 0.0194(3)
C68_4 C 0.17244(9) 0.90295(10) 0.6396(3)
C69_4 C 0.13544(10) 0.87393(10) 0.0963(3)
H40_4 H 0.11433(10) 0.87971(10) 0.0459(3)
C70_4 C 0.17216(10) 0.94117(10) 0.7171(3)
C71_4 C 0.16446(9) 0.82925(9) 0.2425(3)
C72_4 C 0.20096(10) 0.83565(9) 0.5818(3)
H41_4 H 0.22056(10) 0.81422(9) 0.5908(3)
C73_6 C 0.17178(10) 0.83015(9) 0.5000(3)
C74_4 C 0.14348(10) 0.86195(10) 0.4878(3)
H42_4 H 0.12409(10) 0.85909(10) 0.4303(3)
C75_4 C 0.13399(10) 0.83775(10) 0.1674(3)
H43_4 H 0.11211(10) 0.81893(10) 0.1644(3)
C76_4 C 0.14316(10) 0.89755(10) 0.5579(3)
H44_4 H 0.12301(10) 0.91846(10) 0.5507(3)
C77_4 C 0.20156(10) 0.87235(10) 0.6505(3)
H45_4 H 0.22192(10) 0.87630(10) 0.7046(3)
C78_4 C 0.16393(9) 0.78935(10) 0.3118(3)
C79_4 C 0.17056(10) 0.78981(9) 0.4310(3)
C80_4 C 0.19597(10) 0.85800(10) 0.2463(3)
H46_4 H 0.21633(10) 0.85361(10) 0.3002(3)
Zn13_2 Zn 0.125762(10) 0.501209(10) 0.86833(3)
Zn14 Zn 0.125762(10) 0.998791(10) 0.86833(3)
O17_2 O 0.20156(6) 0.45787(6) 0.73484(18)
O19_2 O 0.19537(6) 0.44877(7) 0.97436(19)
O21_2 O 0.13209(7) 0.46260(6) 0.01269(18)
O5_4 O 0.13872(6) 0.44775(6) 0.77794(18)
O7_4 O 0.13665(6) 0.55214(6) 0.96800(18)
N3_4 N 0.06831(8) 0.50418(9) 0.8279(2)
C3_4 C 0.16283(9) 0.40223(10) 0.1002(3)
C4_4 C 0.16367(9) 0.44049(9) 0.0225(3)
C7_4 C 0.16678(9) 0.40099(10) 0.6460(3)
C9_4 C 0.13417(10) 0.37393(10) 0.6506(3)
H6_4 H 0.11393(10) 0.37998(10) 0.7037(3)
C14_4 C 0.16944(9) 0.43861(9) 0.7249(3)
C16_4 C 0.19527(10) 0.39236(10) 0.5642(3)
H9_4 H 0.21740(10) 0.41073(10) 0.5582(3)
C18_4 C 0.13217(10) 0.39553(10) 0.1767(3)
H10_4 H 0.11111(10) 0.41549(10) 0.1793(3)
C20_4 C 0.15763(9) 0.28922(10) 0.4310(3)
C21_4 C 0.19175(10) 0.35706(10) 0.4910(3)
H12_4 H 0.21126(10) 0.35186(10) 0.4350(3)
C24_4 C 0.16148(13) 0.250 0.2547(4)
H14_4 H 0.16303(13) 0.250 0.1738(4)
C26_4 C 0.16040(10) 0.28957(10) 0.3112(3)
C28_4 C 0.02386(11) 0.49718(11) 0.6737(3)
H16_4 H 0.01956(11) 0.48931(11) 0.5964(3)
C29_4 C 0.05954(11) 0.49310(13) 0.7187(3)
H17_4 H 0.07983(11) 0.48189(13) 0.6721(3)
C30_4 C 0.19179(10) 0.33600(10) 0.1634(3)
H18_4 H 0.21199(10) 0.31511(10) 0.1573(3)
C32_4 C 0.16153(9) 0.32980(9) 0.2419(3)
C33_4 C 0.15978(10) 0.32944(9) 0.4995(3)
C34_4 C 0.03886(10) 0.51922(11) 0.8915(3)
H19_4 H 0.04409(10) 0.52692(11) 0.9684(3)
C35_4 C 0.00102(11) 0.52417(13) 0.8508(3)
C39_4 C 0.13071(10) 0.33869(10) 0.5799(3)
H23_4 H 0.10845(10) 0.32052(10) 0.5858(3)
C41_4 C 0.15550(14) 0.250 0.4855(4)
H25_4 H 0.15236(14) 0.250 0.5659(4)
C44_4 C 0.19262(10) 0.37268(10) 0.0937(3)
H28_4 H 0.21368(10) 0.37708(10) 0.0422(3)
C47_4 C 0.13205(11) 0.36029(10) 0.2485(3)
H29_4 H 0.11167(11) 0.35694(10) 0.3028(3)
C49_4 C 0.16283(9) 0.09777(10) 0.1002(3)
C50_4 C 0.16367(9) 0.05951(9) 0.0225(3)
C51_4 C 0.16678(9) 0.09901(10) 0.6460(3)
C52_4 C 0.13417(10) 0.12607(10) 0.6506(3)
H31_4 H 0.11393(10) 0.12002(10) 0.7037(3)
C53_4 C 0.16944(9) 0.06139(9) 0.7249(3)
C54_4 C 0.19527(10) 0.10764(10) 0.5642(3)
H32_4 H 0.21740(10) 0.08927(10) 0.5582(3)
C55_4 C 0.13217(10) 0.10447(10) 0.1767(3)
H33_4 H 0.11111(10) 0.08451(10) 0.1793(3)
C56_4 C 0.15763(9) 0.21078(10) 0.4310(3)
C57_4 C 0.19175(10) 0.14294(10) 0.4910(3)
H34_4 H 0.21126(10) 0.14814(10) 0.4350(3)
C58_4 C 0.16040(10) 0.21043(10) 0.3112(3)
C59_4 C 0.19179(10) 0.16400(10) 0.1634(3)
H35_4 H 0.21199(10) 0.18489(10) 0.1573(3)
C60_4 C 0.16153(9) 0.17020(9) 0.2419(3)
C61_4 C 0.15978(10) 0.17056(9) 0.4995(3)
C62_4 C 0.13071(10) 0.16131(10) 0.5799(3)
H36_4 H 0.10845(10) 0.17948(10) 0.5858(3)
C63_4 C 0.19262(10) 0.12732(10) 0.0937(3)
H37_4 H 0.21368(10) 0.12292(10) 0.0422(3)
C64_4 C 0.13205(11) 0.13971(10) 0.2485(3)
H38_4 H 0.11167(11) 0.14306(10) 0.3028(3)
O15_4 O 0.13665(6) 0.94786(6) 0.96800(18)
N9_4 N 0.06831(8) 0.99582(9) 0.8279(2)
C90_4 C 0.03886(10) 0.98078(11) 0.8915(3)
H55_4 H 0.04409(10) 0.97308(11) 0.9684(3)
C91_4 C 0.00102(11) 0.97583(13) 0.8508(3)
N10_4 N 0.91527(9) 0.01882(10) 0.8255(3)
H47_4 H 0.89283(9) 0.03135(10) 0.8412(3)
H48_4 H 0.93509(9) 0.02138(10) 0.8728(3)
C81_4 C 0.78905(9) 0.00106(9) 0.7251(3)
H49_4 H 0.77380(9) 0.00155(9) 0.7928(3)
C82_4 C 0.79173(9) 0.00101(9) 0.5307(3)
H50_4 H 0.77855(9) 0.00189(9) 0.4594(3)
N2_4 N 0.91945(8) 0.50517(9) 0.7253(2)
N4_4 N 0.91527(9) 0.48118(10) 0.8255(3)
H1_4 H 0.89283(9) 0.46865(10) 0.8412(3)
H2_4 H 0.93509(9) 0.47862(10) 0.8728(3)
N5_4 N 0.91158(8) 0.53222(11) 0.5533(3)
C1_4 C 0.78905(9) 0.49894(9) 0.7251(3)
H3_4 H 0.77380(9) 0.49845(9) 0.7928(3)
C5_4 C 0.79173(9) 0.49899(9) 0.5307(3)
H4_4 H 0.77855(9) 0.49811(9) 0.4594(3)
C6_4 C 0.89294(11) 0.51363(12) 0.6393(3)
C13_4 C 0.82919(9) 0.50192(10) 0.7352(3)
H8_4 H 0.84120(9) 0.50169(10) 0.8083(3)
C17_4 C 0.85161(11) 0.50523(10) 0.6377(3)
C19_4 C 0.83200(9) 0.50256(10) 0.5322(3)
H11_4 H 0.84632(9) 0.50320(10) 0.4628(3)
C27_4 C 0.95511(9) 0.51811(12) 0.6823(3)
H20_4 H 0.98101(11) 0.53513(13) 0.8988(3)
C37_4 C 0.99288(10) 0.51286(12) 0.7388(3)
N6_4 N 0.95101(9) 0.53498(11) 0.5821(3)
N8_4 N 0.91945(8) 0.99483(9) 0.7253(2)
N11_4 N 0.91158(8) 0.96778(11) 0.5533(3)
C83_4 C 0.89294(11) 0.98637(12) 0.6393(3)
C84_4 C 0.82919(9) 0.99808(10) 0.7352(3)
H51_4 H 0.84120(9) 0.99831(10) 0.8083(3)
C85_4 C 0.85161(11) 0.99477(10) 0.6377(3)
C86_4 C 0.83200(9) 0.99744(10) 0.5322(3)
H52_4 H 0.84632(9) 0.99680(10) 0.4628(3)
C87_4 C 0.95511(9) 0.98189(12) 0.6823(3)
H56_4 H 0.98101(11) 0.96487(13) 0.8988(3)
C92_4 C 0.99288(10) 0.98714(12) 0.7388(3)
N12_4 N 0.95101(9) 0.96502(11) 0.5821(3)
loop_
_geom_bond_atom_site_label_1
_geom_bond_atom_site_label_2
_geom_bond_site_symmetry_1
_geom_bond_site_symmetry_2
Zn1 O3 1_555 1_555
O3 C15 1_555 1_555
O8 C15 1_555 1_555
C11 C15 1_555 1_555
C25 H15 1_555 1_555
C31 C25 1_555 1_555
C40 C11 1_555 1_555
H24 C40 1_555 1_555
C42 C11 1_555 1_555
H26 C42 1_555 1_555
O13 C70 1_555 1_555
O16 C70 1_555 1_555
C68 C70 1_555 1_555
C72 H41 1_555 1_555
C73 C72 1_555 1_555
C76 C68 1_555 1_555
H44 C76 1_555 1_555
C77 C68 1_555 1_555
H45 C77 1_555 1_555
Zn13 O8 1_555 1_555
Zn16 O16 1_555 1_555
O17 Zn1 1_555 1_555
O19 Zn1 1_555 1_555
O24 Zn1 1_555 1_555
N14 Zn1 1_555 1_555
C25 C42 1_555 1_555
C72 C77 1_555 1_555
Zn13 O5 1_555 1_555
O17 C14 1_555 1_555
O5 C14 1_555 1_555
O24 C10 1_555 1_555
O7 Zn13 1_555 1_555
N1 C1 1_555 1_555
N2 N4 1_555 1_555
N3 Zn13 1_555 1_555
N4 H1 1_555 1_555
H2 N4 1_555 1_555
N5 C6 1_555 1_555
C1 H3 1_555 1_555
C2 C8 1_555 1_555
C5 N1 1_555 1_555
C6 N2 1_555 1_555
C7 C9 1_555 1_555
C8 H5 1_555 1_555
C9 H6 1_555 1_555
C10 O7 1_555 1_555
C12 C2 1_555 1_555
H7 C12 1_555 1_555
C13 C1 1_555 1_555
H8 C13 1_555 1_555
C14 C7 1_555 1_555
C16 C7 1_555 1_555
H9 C16 1_555 1_555
C17 C6 1_555 1_555
C19 C5 1_555 1_555
C23 C38 1_555 1_555
C27 N2 1_555 1_555
C28 H16 1_555 1_555
C29 N3 1_555 1_555
H17 C29 1_555 1_555
C34 N3 1_555 1_555
H19 C34 1_555 1_555
C35 C34 1_555 1_555
H20 C35 1_555 1_555
C36 C31_2 1_555 1_555
H21 C36 1_555 1_555
C37 C27 1_555 1_555
C38 C12 1_555 1_555
H22 C38 1_555 1_555
C39 C9 1_555 1_555
H23 C39 1_555 1_555
C43 H27 1_555 1_555
N6 N5 1_555 1_555
C45 C23 1_555 1_555
C46 C22 1_555 1_555
C48 C8 1_555 1_555
H30 C48 1_555 1_555
O9 C53 1_555 1_555
O12 C53 1_555 1_555
C51 C52 1_555 1_555
C52 H31 1_555 1_555
C53 C51 1_555 1_555
C54 C51 1_555 1_555
H32 C54 1_555 1_555
C62 C52 1_555 1_555
H36 C62 1_555 1_555
O25 C67 1_555 1_555
O15 C67 1_555 1_555
C65 C66 1_555 1_555
C66 H39 1_555 1_555
C67 C65 1_555 1_555
C69 C65 1_555 1_555
H40 C69 1_555 1_555
C71 C75 1_555 1_555
C74 C73_2 1_555 1_555
H42 C74 1_555 1_555
C75 C69 1_555 1_555
H43 C75 1_555 1_555
C78 C43 1_555 1_555
C79 C22 1_555 1_555
C80 C66 1_555 1_555
H46 C80 1_555 1_555
Zn16 O15 1_555 1_555
N9 Zn16 1_555 1_555
N11 C83 1_555 1_555
C83 N8 1_555 1_555
H51 C84 1_555 1_555
C85 C83 1_555 1_555
C87 N8 1_555 1_555
C90 N9 1_555 1_555
H55 C90 1_555 1_555
C91 C90 1_555 1_555
H56 C91 1_555 1_555
C92 C87 1_555 1_555
N12 N11 1_555 1_555
Zn10 O9 1_555 1_555
Zn11 N1 1_555 1_555
O21 Zn13 1_555 1_555
C2 C10 1_555 1_555
C13 C17 1_555 1_555
C17 C19 1_555 1_555
C23 C48 1_555 1_555
C27 N6 1_555 1_555
C28 C29 1_555 1_555
C28 C37 1_555 1_555
C31_2 C46 1_555 1_555
C35 C37 1_555 1_555
C43 C45 1_555 1_555
C45 C46 1_555 1_555
C71 C78 1_555 1_555
C71 C80 1_555 1_555
C73_2 C79 1_555 1_555
C78 C79 1_555 1_555
C84 C85 1_555 1_555
C85 C86 1_555 1_555
C87 N12 1_555 1_555
C91 C92 1_555 1_555
O19 C4 1_555 1_555
O21 C4 1_555 1_555
C3 C4 1_555 1_555
C18 C3 1_555 1_555
H10 C18 1_555 1_555
C20 C26 1_555 1_555
H12 C21 1_555 1_555
C24 H14 1_555 1_555
C26 C24 1_555 1_555
C30 H18 1_555 1_555
C32 C26 1_555 1_555
C33 C20 1_555 1_555
C41 C20 1_555 1_555
C44 C3 1_555 1_555
H28 C44 1_555 1_555
C47 C18 1_555 1_555
H29 C47 1_555 1_555
O10 C50 1_555 1_555
O11 C50 1_555 1_555
C49 C50 1_555 1_555
C55 C49 1_555 1_555
H33 C55 1_555 1_555
C56 C41 1_555 1_555
H34 C57 1_555 1_555
C58 C24 1_555 1_555
C59 H35 1_555 1_555
C60 C58 1_555 1_555
C61 C56 1_555 1_555
C63 C49 1_555 1_555
H37 C63 1_555 1_555
C64 C55 1_555 1_555
H38 C64 1_555 1_555
Zn10 O10 1_555 1_555
C21 C33 1_555 1_555
C30 C32 1_555 1_555
C30 C44 1_555 1_555
C32 C47 1_555 1_555
C56 C58 1_555 1_555
C57 C61 1_555 1_555
C59 C60 1_555 1_555
C59 C63 1_555 1_555
C60 C64 1_555 1_555
N13 Zn10 1_555 1_555
N7 C81 1_555 1_555
N10 H47 1_555 1_555
H48 N10 1_555 1_555
C81 H49 1_555 1_555
C82 N7 1_555 1_555
C88 H53 1_555 1_555
H54 C89 1_555 1_555
Zn7 N7 1_555 1_555
C88 C89 1_555 1_555
N5_2 C6_2 1_555 1_555
C6_2 N2_2 1_555 1_555
H8_2 C13_2 1_555 1_555
C17_2 C6_2 1_555 1_555
H11_2 C19_2 1_555 1_555
C27_2 N2_2 1_555 1_555
C37_2 C27_2 1_555 1_555
N6_2 N5_2 1_555 1_555
N14 C81_2 1_555 1_555
N8_2 N10_2 1_555 1_555
N10_2 H47_2 1_555 1_555
H48_2 N10_2 1_555 1_555
N11_2 C83_2 1_555 1_555
C81_2 H49_2 1_555 1_555
C82_2 N14 1_555 1_555
H50_2 C82_2 1_555 1_555
C83_2 N8_2 1_555 1_555
C84_2 C81_2 1_555 1_555
H51_2 C84_2 1_555 1_555
C85_2 C83_2 1_555 1_555
C86_2 C82_2 1_555 1_555
H52_2 C86_2 1_555 1_555
C87_2 N8_2 1_555 1_555
C92_2 C87_2 1_555 1_555
N12_2 N11_2 1_555 1_555
C13_2 C17_2 1_555 1_555
C17_2 C19_2 1_555 1_555
C27_2 N6_2 1_555 1_555
C84_2 C85_2 1_555 1_555
C85_2 C86_2 1_555 1_555
C87_2 N12_2 1_555 1_555
N13 C1_2 1_555 1_555
N4_2 H1_2 1_555 1_555
H2_2 N4_2 1_555 1_555
C1_2 H3_2 1_555 1_555
C5_2 N13 1_555 1_555
H4_2 C5_2 1_555 1_555
O7_2 Zn12 1_555 1_555
N3_2 Zn12 1_555 1_555
C34_2 N3_2 1_555 1_555
H19_2 C34_2 1_555 1_555
C35_2 C34_2 1_555 1_555
Zn4 O15_2 1_555 1_555
N9_2 Zn4 1_555 1_555
C88_2 H53_2 1_555 1_555
C89_2 N9_2 1_555 1_555
H54_2 C89_2 1_555 1_555
C90_2 N9_2 1_555 1_555
H55_2 C90_2 1_555 1_555
C91_2 C90_2 1_555 1_555
O23 Zn4 1_555 1_555
O26 Zn12 1_555 1_555
O27 Zn4 1_555 1_555
C88_2 C89_2 1_555 1_555
O3_2 C15_2 1_555 1_555
O6 C10_2 1_555 1_555
O26 C15_2 1_555 1_555
C2_2 C8_2 1_555 1_555
C8_2 H5_2 1_555 1_555
C11_2 C15_2 1_555 1_555
C12_2 C2_2 1_555 1_555
H7_2 C12_2 1_555 1_555
C22_2 H13_2 1_555 1_555
C23_2 C38_2 1_555 1_555
C25_2 H15_2 1_555 1_555
C31_3 C25_2 1_555 1_555
C36_2 C31_3 1_555 1_555
H21_2 C36_2 1_555 1_555
C38_2 C12_2 1_555 1_555
H22_2 C38_2 1_555 1_555
C40_2 C11_2 1_555 1_555
H24_2 C40_2 1_555 1_555
C42_2 C11_2 1_555 1_555
H26_2 C42_2 1_555 1_555
C43_2 H27_2 1_555 1_555
C45_2 C23_2 1_555 1_555
C46_2 C22_2 1_555 1_555
C48_2 C8_2 1_555 1_555
H30_2 C48_2 1_555 1_555
O13_2 C70_2 1_555 1_555
O14 C67_2 1_555 1_555
O27 C70_2 1_555 1_555
C65_2 C66_2 1_555 1_555
C66_2 H39_2 1_555 1_555
C67_2 C65_2 1_555 1_555
C68_2 C70_2 1_555 1_555
C69_2 C65_2 1_555 1_555
H40_2 C69_2 1_555 1_555
C71_2 C75_2 1_555 1_555
C72_2 H41_2 1_555 1_555
C73_3 C72_2 1_555 1_555
C74_2 C73_3 1_555 1_555
H42_2 C74_2 1_555 1_555
C75_2 C69_2 1_555 1_555
H43_2 C75_2 1_555 1_555
C76_2 C68_2 1_555 1_555
H44_2 C76_2 1_555 1_555
C77_2 C68_2 1_555 1_555
H45_2 C77_2 1_555 1_555
C78_2 C43_2 1_555 1_555
C79_2 C22_2 1_555 1_555
C80_2 C66_2 1_555 1_555
H46_2 C80_2 1_555 1_555
Zn11 O13_2 1_555 1_555
O18 Zn11 1_555 1_555
O20 Zn11 1_555 1_555
C2_2 C10_2 1_555 1_555
C23_2 C48_2 1_555 1_555
C25_2 C42_2 1_555 1_555
C31_3 C46_2 1_555 1_555
C36_2 C40_2 1_555 1_555
C43_2 C45_2 1_555 1_555
C45_2 C46_2 1_555 1_555
C71_2 C78_2 1_555 1_555
C71_2 C80_2 1_555 1_555
C72_2 C77_2 1_555 1_555
C73_3 C79_2 1_555 1_555
C74_2 C76_2 1_555 1_555
C78_2 C79_2 1_555 1_555
Zn7 O2 1_555 1_555
O1 C14_2 1_555 1_555
O4 C4_2 1_555 1_555
O5_2 C14_2 1_555 1_555
C3_2 C4_2 1_555 1_555
C7_2 C9_2 1_555 1_555
C9_2 H6_2 1_555 1_555
C14_2 C7_2 1_555 1_555
C16_2 C7_2 1_555 1_555
H9_2 C16_2 1_555 1_555
C18_2 C3_2 1_555 1_555
H10_2 C18_2 1_555 1_555
C20_2 C26_2 1_555 1_555
C21_2 C16_2 1_555 1_555
H12_2 C21_2 1_555 1_555
C24_2 H14_2 1_555 1_555
C26_2 C24_2 1_555 1_555
C28_2 H16_2 1_555 1_555
H17_2 C29_2 1_555 1_555
C30_2 H18_2 1_555 1_555
C32_2 C26_2 1_555 1_555
C33_2 C20_2 1_555 1_555
C39_2 C9_2 1_555 1_555
H23_2 C39_2 1_555 1_555
C41_2 C20_2 1_555 1_555
H25_2 C41_2 1_555 1_555
C44_2 C3_2 1_555 1_555
H28_2 C44_2 1_555 1_555
C47_2 C18_2 1_555 1_555
H29_2 C47_2 1_555 1_555
O18 C53_2 1_555 1_555
O22 C50_2 1_555 1_555
O23 C53_2 1_555 1_555
C49_2 C50_2 1_555 1_555
C51_2 C52_2 1_555 1_555
C52_2 H31_2 1_555 1_555
C53_2 C51_2 1_555 1_555
C54_2 C51_2 1_555 1_555
H32_2 C54_2 1_555 1_555
C55_2 C49_2 1_555 1_555
H33_2 C55_2 1_555 1_555
C56_2 C41_2 1_555 1_555
C57_2 C54_2 1_555 1_555
H34_2 C57_2 1_555 1_555
C58_2 C24_2 1_555 1_555
C59_2 H35_2 1_555 1_555
C60_2 C58_2 1_555 1_555
C61_2 C56_2 1_555 1_555
C62_2 C52_2 1_555 1_555
H36_2 C62_2 1_555 1_555
C63_2 C49_2 1_555 1_555
H37_2 C63_2 1_555 1_555
C64_2 C55_2 1_555 1_555
H38_2 C64_2 1_555 1_555
Zn7 O1 1_555 1_555
C21_2 C33_2 1_555 1_555
C28_2 C29_2 1_555 1_555
C30_2 C32_2 1_555 1_555
C30_2 C44_2 1_555 1_555
C32_2 C47_2 1_555 1_555
C33_2 C39_2 1_555 1_555
C56_2 C58_2 1_555 1_555
C57_2 C61_2 1_555 1_555
C59_2 C60_2 1_555 1_555
C59_2 C63_2 1_555 1_555
C60_2 C64_2 1_555 1_555
C61_2 C62_2 1_555 1_555
O2_2 C4_3 1_555 1_555
O4_2 C4_3 1_555 1_555
C3_3 C4_3 1_555 1_555
C18_3 C3_3 1_555 1_555
H10_3 C18_3 1_555 1_555
C20_3 C26_3 1_555 1_555
H12_3 C21_3 1_555 1_555
C24_3 H14_3 1_555 1_555
C26_3 C24_3 1_555 1_555
C30_3 H18_3 1_555 1_555
C32_3 C26_3 1_555 1_555
C33_3 C20_3 1_555 1_555
C41_3 C20_3 1_555 1_555
C44_3 C3_3 1_555 1_555
H28_3 C44_3 1_555 1_555
C47_3 C18_3 1_555 1_555
H29_3 C47_3 1_555 1_555
O10_2 C50_3 1_555 1_555
O11_2 C50_3 1_555 1_555
C49_3 C50_3 1_555 1_555
C55_3 C49_3 1_555 1_555
H33_3 C55_3 1_555 1_555
C56_3 C41_3 1_555 1_555
H34_3 C57_3 1_555 1_555
C58_3 C24_3 1_555 1_555
C59_3 H35_3 1_555 1_555
C60_3 C58_3 1_555 1_555
C61_3 C56_3 1_555 1_555
C63_3 C49_3 1_555 1_555
H37_3 C63_3 1_555 1_555
C64_3 C55_3 1_555 1_555
H38_3 C64_3 1_555 1_555
Zn5 O2_2 1_555 1_555
Zn9 O10_2 1_555 1_555
Zn15 O11_2 1_555 1_555
C21_3 C33_3 1_555 1_555
C30_3 C32_3 1_555 1_555
C30_3 C44_3 1_555 1_555
C32_3 C47_3 1_555 1_555
C56_3 C58_3 1_555 1_555
C57_3 C61_3 1_555 1_555
C59_3 C60_3 1_555 1_555
C59_3 C63_3 1_555 1_555
C60_3 C64_3 1_555 1_555
O1_2 C14_3 1_555 1_555
O5_3 C14_3 1_555 1_555
N1_2 C1_3 1_555 1_555
N4_3 H1_3 1_555 1_555
H2_3 N4_3 1_555 1_555
C1_3 H3_3 1_555 1_555
C5_3 N1_2 1_555 1_555
C7_3 C9_3 1_555 1_555
C9_3 H6_3 1_555 1_555
C14_3 C7_3 1_555 1_555
C16_3 C7_3 1_555 1_555
H9_3 C16_3 1_555 1_555
C28_3 H16_3 1_555 1_555
H17_3 C29_3 1_555 1_555
C39_3 C9_3 1_555 1_555
H23_3 C39_3 1_555 1_555
O9_2 C53_3 1_555 1_555
O12_2 C53_3 1_555 1_555
C51_3 C52_3 1_555 1_555
C52_3 H31_3 1_555 1_555
C53_3 C51_3 1_555 1_555
C54_3 C51_3 1_555 1_555
H32_3 C54_3 1_555 1_555
C62_3 C52_3 1_555 1_555
H36_3 C62_3 1_555 1_555
Zn5 O1_2 1_555 1_555
Zn9 O9_2 1_555 1_555
Zn11_2 N1_2 1_555 1_555
Zn15 O12_2 1_555 1_555
C28_3 C29_3 1_555 1_555
N14_2 Zn5 1_555 1_555
O6_2 C10_3 1_555 1_555
O7_3 Zn12_2 1_555 1_555
N3_3 Zn12_2 1_555 1_555
N5_3 C6_3 1_555 1_555
C2_3 C8_3 1_555 1_555
C6_3 N2_3 1_555 1_555
C8_3 H5_3 1_555 1_555
C10_3 O7_3 1_555 1_555
C12_3 C2_3 1_555 1_555
H7_3 C12_3 1_555 1_555
H8_3 C13_3 1_555 1_555
C17_3 C6_3 1_555 1_555
C23_3 C38_3 1_555 1_555
C27_3 N2_3 1_555 1_555
C34_3 N3_3 1_555 1_555
H19_3 C34_3 1_555 1_555
C35_3 C34_3 1_555 1_555
H20_3 C35_3 1_555 1_555
C36_3 C31_4 1_555 1_555
H21_3 C36_3 1_555 1_555
C37_3 C27_3 1_555 1_555
C38_3 C12_3 1_555 1_555
H22_3 C38_3 1_555 1_555
C43_3 H27_3 1_555 1_555
N6_3 N5_3 1_555 1_555
C45_3 C23_3 1_555 1_555
C46_3 C22_3 1_555 1_555
C48_3 C8_3 1_555 1_555
H30_3 C48_3 1_555 1_555
O14_2 C67_3 1_555 1_555
O15_3 C67_3 1_555 1_555
C65_3 C66_3 1_555 1_555
C66_3 H39_3 1_555 1_555
C67_3 C65_3 1_555 1_555
C69_3 C65_3 1_555 1_555
H40_3 C69_3 1_555 1_555
C71_3 C75_3 1_555 1_555
C74_3 C73_4 1_555 1_555
H42_3 C74_3 1_555 1_555
C75_3 C69_3 1_555 1_555
H43_3 C75_3 1_555 1_555
C78_3 C43_3 1_555 1_555
C79_3 C22_3 1_555 1_555
C80_3 C66_3 1_555 1_555
H46_3 C80_3 1_555 1_555
Zn15 O15_3 1_555 1_555
N7_2 C81_3 1_555 1_555
N8_3 N10_3 1_555 1_555
N9_3 Zn15 1_555 1_555
N10_3 H47_3 1_555 1_555
H48_3 N10_3 1_555 1_555
N11_3 C83_3 1_555 1_555
C81_3 H49_3 1_555 1_555
C82_3 N7_2 1_555 1_555
C83_3 N8_3 1_555 1_555
C84_3 C81_3 1_555 1_555
H51_3 C84_3 1_555 1_555
C85_3 C83_3 1_555 1_555
C86_3 C82_3 1_555 1_555
C87_3 N8_3 1_555 1_555
C88_3 H53_3 1_555 1_555
C89_3 N9_3 1_555 1_555
H54_3 C89_3 1_555 1_555
C90_3 N9_3 1_555 1_555
H55_3 C90_3 1_555 1_555
C91_3 C90_3 1_555 1_555
H56_3 C91_3 1_555 1_555
C92_3 C87_3 1_555 1_555
N12_3 N11_3 1_555 1_555
Zn7_2 N7_2 1_555 1_555
Zn9 O14_2 1_555 1_555
O26_2 Zn12_2 1_555 1_555
O27_2 Zn15 1_555 1_555
C2_3 C10_3 1_555 1_555
C13_3 C17_3 1_555 1_555
C17_3 C19_3 1_555 1_555
C23_3 C48_3 1_555 1_555
C27_3 N6_3 1_555 1_555
C31_4 C46_3 1_555 1_555
C35_3 C37_3 1_555 1_555
C43_3 C45_3 1_555 1_555
C45_3 C46_3 1_555 1_555
C71_3 C78_3 1_555 1_555
C71_3 C80_3 1_555 1_555
C73_4 C79_3 1_555 1_555
C78_3 C79_3 1_555 1_555
C84_3 C85_3 1_555 1_555
C85_3 C86_3 1_555 1_555
C87_3 N12_3 1_555 1_555
C88_3 C89_3 1_555 1_555
C88_3 C92_3 1_555 1_555
C91_3 C92_3 1_555 1_555
O3_3 C15_3 1_555 1_555
O26_2 C15_3 1_555 1_555
C11_3 C15_3 1_555 1_555
C25_3 H15_3 1_555 1_555
C31_5 C25_3 1_555 1_555
C40_3 C11_3 1_555 1_555
H24_3 C40_3 1_555 1_555
C42_3 C11_3 1_555 1_555
H26_3 C42_3 1_555 1_555
O13_3 C70_3 1_555 1_555
O27_2 C70_3 1_555 1_555
C68_3 C70_3 1_555 1_555
C72_3 H41_3 1_555 1_555
C73_5 C72_3 1_555 1_555
C76_3 C68_3 1_555 1_555
H44_3 C76_3 1_555 1_555
C77_3 C68_3 1_555 1_555
H45_3 C77_3 1_555 1_555
Zn9 O13_3 1_555 1_555
N13_2 Zn9 1_555 1_555
C25_3 C42_3 1_555 1_555
C72_3 C77_3 1_555 1_555
O18_2 Zn11_2 1_555 1_555
O20_2 Zn11_2 1_555 1_555
C88_4 H53_4 1_555 1_555
H54_4 C89_4 1_555 1_555
C88_4 C89_4 1_555 1_555
Zn7_2 O3_4 1_555 1_555
O3_4 C15_4 1_555 1_555
O24_2 C10_4 1_555 1_555
O8_2 C15_4 1_555 1_555
C2_4 C8_4 1_555 1_555
C8_4 H5_4 1_555 1_555
C11_4 C15_4 1_555 1_555
C12_4 C2_4 1_555 1_555
H7_4 C12_4 1_555 1_555
C22_4 H13_4 1_555 1_555
C23_4 C38_4 1_555 1_555
C25_4 H15_4 1_555 1_555
C31_6 C25_4 1_555 1_555
C36_4 C31_6 1_555 1_555
H21_4 C36_4 1_555 1_555
C38_4 C12_4 1_555 1_555
H22_4 C38_4 1_555 1_555
C40_4 C11_4 1_555 1_555
H24_4 C40_4 1_555 1_555
C42_4 C11_4 1_555 1_555
H26_4 C42_4 1_555 1_555
C43_4 H27_4 1_555 1_555
C45_4 C23_4 1_555 1_555
C46_4 C22_4 1_555 1_555
C48_4 C8_4 1_555 1_555
H30_4 C48_4 1_555 1_555
O13_4 C70_4 1_555 1_555
O25_2 C67_4 1_555 1_555
O16_2 C70_4 1_555 1_555
C65_4 C66_4 1_555 1_555
C66_4 H39_4 1_555 1_555
C67_4 C65_4 1_555 1_555
C68_4 C70_4 1_555 1_555
C69_4 C65_4 1_555 1_555
H40_4 C69_4 1_555 1_555
C71_4 C75_4 1_555 1_555
C72_4 H41_4 1_555 1_555
C73_6 C72_4 1_555 1_555
C74_4 C73_6 1_555 1_555
H42_4 C74_4 1_555 1_555
C75_4 C69_4 1_555 1_555
H43_4 C75_4 1_555 1_555
C76_4 C68_4 1_555 1_555
H44_4 C76_4 1_555 1_555
C77_4 C68_4 1_555 1_555
H45_4 C77_4 1_555 1_555
C78_4 C43_4 1_555 1_555
C79_4 C22_4 1_555 1_555
C80_4 C66_4 1_555 1_555
H46_4 C80_4 1_555 1_555
Zn13_2 O8_2 1_555 1_555
Zn14 O16_2 1_555 1_555
O17_2 Zn7_2 1_555 1_555
O19_2 Zn7_2 1_555 1_555
C2_4 C10_4 1_555 1_555
C23_4 C48_4 1_555 1_555
C25_4 C42_4 1_555 1_555
C31_6 C46_4 1_555 1_555
C36_4 C40_4 1_555 1_555
C43_4 C45_4 1_555 1_555
C45_4 C46_4 1_555 1_555
C71_4 C78_4 1_555 1_555
C71_4 C80_4 1_555 1_555
C72_4 C77_4 1_555 1_555
C73_6 C79_4 1_555 1_555
C74_4 C76_4 1_555 1_555
C78_4 C79_4 1_555 1_555
Zn13_2 O5_4 1_555 1_555
O17_2 C14_4 1_555 1_555
O21_2 C4_4 1_555 1_555
O5_4 C14_4 1_555 1_555
O7_4 Zn13_2 1_555 1_555
N3_4 Zn13_2 1_555 1_555
C3_4 C4_4 1_555 1_555
C7_4 C9_4 1_555 1_555
C9_4 H6_4 1_555 1_555
C14_4 C7_4 1_555 1_555
C16_4 C7_4 1_555 1_555
H9_4 C16_4 1_555 1_555
C18_4 C3_4 1_555 1_555
H10_4 C18_4 1_555 1_555
C20_4 C26_4 1_555 1_555
C21_4 C16_4 1_555 1_555
H12_4 C21_4 1_555 1_555
C24_4 H14_4 1_555 1_555
C26_4 C24_4 1_555 1_555
C28_4 H16_4 1_555 1_555
C29_4 N3_4 1_555 1_555
H17_4 C29_4 1_555 1_555
C30_4 H18_4 1_555 1_555
C32_4 C26_4 1_555 1_555
C33_4 C20_4 1_555 1_555
C34_4 N3_4 1_555 1_555
H19_4 C34_4 1_555 1_555
C35_4 C34_4 1_555 1_555
C39_4 C9_4 1_555 1_555
H23_4 C39_4 1_555 1_555
C41_4 C20_4 1_555 1_555
H25_4 C41_4 1_555 1_555
C44_4 C3_4 1_555 1_555
H28_4 C44_4 1_555 1_555
C47_4 C18_4 1_555 1_555
H29_4 C47_4 1_555 1_555
O18_2 C53_4 1_555 1_555
O22_2 C50_4 1_555 1_555
O23_2 C53_4 1_555 1_555
C49_4 C50_4 1_555 1_555
C51_4 C52_4 1_555 1_555
C52_4 H31_4 1_555 1_555
C53_4 C51_4 1_555 1_555
C54_4 C51_4 1_555 1_555
H32_4 C54_4 1_555 1_555
C55_4 C49_4 1_555 1_555
H33_4 C55_4 1_555 1_555
C56_4 C41_4 1_555 1_555
C57_4 C54_4 1_555 1_555
H34_4 C57_4 1_555 1_555
C58_4 C24_4 1_555 1_555
C59_4 H35_4 1_555 1_555
C60_4 C58_4 1_555 1_555
C61_4 C56_4 1_555 1_555
C62_4 C52_4 1_555 1_555
H36_4 C62_4 1_555 1_555
C63_4 C49_4 1_555 1_555
H37_4 C63_4 1_555 1_555
C64_4 C55_4 1_555 1_555
H38_4 C64_4 1_555 1_555
Zn14 O15_4 1_555 1_555
N9_4 Zn14 1_555 1_555
C90_4 N9_4 1_555 1_555
H55_4 C90_4 1_555 1_555
C91_4 C90_4 1_555 1_555
C21_4 C33_4 1_555 1_555
C28_4 C29_4 1_555 1_555
C30_4 C32_4 1_555 1_555
C30_4 C44_4 1_555 1_555
C32_4 C47_4 1_555 1_555
C33_4 C39_4 1_555 1_555
C56_4 C58_4 1_555 1_555
C57_4 C61_4 1_555 1_555
C59_4 C60_4 1_555 1_555
C59_4 C63_4 1_555 1_555
C60_4 C64_4 1_555 1_555
C61_4 C62_4 1_555 1_555
N14_2 C81_4 1_555 1_555
N10_4 H47_4 1_555 1_555
H48_4 N10_4 1_555 1_555
C81_4 H49_4 1_555 1_555
C82_4 N14_2 1_555 1_555
H50_4 C82_4 1_555 1_555
N13_2 C1_4 1_555 1_555
N2_4 N4_4 1_555 1_555
N4_4 H1_4 1_555 1_555
H2_4 N4_4 1_555 1_555
N5_4 C6_4 1_555 1_555
C1_4 H3_4 1_555 1_555
C5_4 N13_2 1_555 1_555
H4_4 C5_4 1_555 1_555
C6_4 N2_4 1_555 1_555
C13_4 C1_4 1_555 1_555
H8_4 C13_4 1_555 1_555
C17_4 C6_4 1_555 1_555
C19_4 C5_4 1_555 1_555
H11_4 C19_4 1_555 1_555
C27_4 N2_4 1_555 1_555
C37_4 C27_4 1_555 1_555
N6_4 N5_4 1_555 1_555
N11_4 C83_4 1_555 1_555
C83_4 N8_4 1_555 1_555
H51_4 C84_4 1_555 1_555
C85_4 C83_4 1_555 1_555
H52_4 C86_4 1_555 1_555
C87_4 N8_4 1_555 1_555
C92_4 C87_4 1_555 1_555
N12_4 N11_4 1_555 1_555
C13_4 C17_4 1_555 1_555
C17_4 C19_4 1_555 1_555
C27_4 N6_4 1_555 1_555
C84_4 C85_4 1_555 1_555
C85_4 C86_4 1_555 1_555
C87_4 N12_4 1_555 1_555

#END
