
###############################################################################
#
# This file contains modified crystal structure data generated from the
# MOF subset of the Cambridge Structural Database (CSD) v543 
# hosted by the Cambridge Crystallographic Data Centre (CCDC).
#
# This work is licensed under the Creative Commons
# Attribution-NonCommercial-ShareAlike 4.0 International License.
# To view a copy of this license, visit
# http://creativecommons.org/licenses/by-nc-sa/4.0/
# or send a letter to
# Creative Commons, PO Box 1866, Mountain View, CA 94042, USA.
#
# CIF created using the CSD Python API on 29 September 2022
# The structure has been converted into the P1 space group
# The structure has a 3D framework
# The original CSD entry HANZEF is in the hexagonal crystal system
# The framework has been calculated to contain at least 10.0% void space
# The void calculation uses a probe of radius 1.32A, grid spacing 0.4
# H atom positions have been added when not included in the experimental data
# Generated hydrogen atom positions removed from atoms on special positions
#
###############################################################################

data_HANZEF
_chemical_formula_moiety         '(C324 H396 N12 O192 Zr30)n'
_symmetry_cell_setting           triclinic
_symmetry_space_group_name_H-M   'P 1'
_symmetry_Int_Tables_number      1
_space_group_name_Hall           'P 1'
loop_
_symmetry_equiv_pos_site_id
_symmetry_equiv_pos_as_xyz
1 x,y,z
_cell_length_a                   32.2913(4)
_cell_length_b                   32.2913(4)
_cell_length_c                   27.6555(6)
_cell_angle_alpha                90
_cell_angle_beta                 90
_cell_angle_gamma                120
_cell_volume                     24973.7
loop_
_atom_site_label
_atom_site_type_symbol
_atom_site_fract_x
_atom_site_fract_y
_atom_site_fract_z
Zr4 Zr 0.58900(2) 0.06898(3) 0.31417(2)
O15 O 0.55845(5) 0.11690(7) 0.32437(11)
O20 O 0.65525(9) 0.06542(13) 0.31240(10)
O21 O 0.58759(10) 0.07291(13) 0.39365(9)
O22 O 0.60002(11) 0.10672(16) 0.250000
O23 O 0.57484(12) 0.02129(16) 0.250000
Zr7 Zr 0.57823(3) 0.15646(2) 0.250000
Zr16 Zr 0.58900(2) 0.06898(3) 0.18583(2)
Zr18 Zr 0.47998(2) 0.06898(3) 0.31417(2)
O38 O 0.65035(12) 0.14117(8) 0.33500(9)
O46 O 0.51568(5) 0.03136(7) 0.30463(12)
Zr1 Zr 0.15646(2) 0.57823(2) 0.750000
Zr2 Zr 0.47998(2) 0.41100(2) 0.31417(2)
Zr3 Zr 0.49071(2) 0.50929(2) 0.250000
O1 O 0.55845(5) 0.44155(5) 0.32437(11)
O2 O 0.14117(8) 0.49082(9) 0.66500(9)
O3 O 0.19777(8) 0.55670(8) 0.70284(8)
O4 O 0.42669(9) 0.43037(10) 0.34495(9)
O5 O 0.42986(9) 0.48899(9) 0.29843(9)
O6 O 0.41017(9) 0.34475(9) 0.31240(10)
C1 C 0.41382(13) 0.45986(14) 0.33288(13)
O7 O 0.51568(5) 0.48432(5) 0.19537(12)
N1 N 0.23214(10) 0.4643(2) 0.42353(15)
C2 C 0.24639(10) 0.49277(19) 0.57587(17)
C3 C 0.23988(10) 0.4798(2) 0.52350(18)
C4 C 0.18385(12) 0.52242(12) 0.67428(11)
C5 C 0.22143(11) 0.51695(12) 0.64814(12)
C6 C 0.27390(14) 0.47479(16) 0.49794(13)
H1 H 0.300535 0.476416 0.514322
C7 C 0.26919(14) 0.46744(16) 0.44838(13)
C8 C 0.37619(13) 0.46117(15) 0.36315(12)
C9 C 0.26357(8) 0.52713(17) 0.67152(17)
H2 H 0.270411 0.540821 0.702958
C10 C 0.35206(17) 0.48338(19) 0.34531(15)
H3 H 0.359926 0.498046 0.314327
C11 C 0.31642(17) 0.4842(2) 0.37265(14)
H4 H 0.299059 0.498265 0.359724
C12 C 0.36560(15) 0.44076(17) 0.40876(14)
H5 H 0.381752 0.425085 0.420784
C13 C 0.30585(14) 0.46433(17) 0.41942(13)
C14 C 0.33118(15) 0.44327(18) 0.43697(14)
H6 H 0.324956 0.430353 0.468735
C15 C 0.21285(13) 0.49947(13) 0.60127(12)
H7 H 0.183502 0.491889 0.586079
O8 O 0.48532(9) 0.41241(10) 0.39365(9)
O9 O 0.50670(11) 0.39998(11) 0.250000
O10 O 0.44645(11) 0.42516(12) 0.250000
O11 O 0.34965(12) 0.49082(9) 0.66500(9)
O12 O 0.35893(11) 0.55670(8) 0.70284(8)
O13 O 0.00368(13) 0.43037(10) 0.34495(9)
O14 O 0.05913(13) 0.48899(9) 0.29843(9)
C16 C 0.04604(19) 0.45986(14) 0.33288(13)
C17 C 0.33857(17) 0.52242(12) 0.67428(11)
C18 C 0.29552(16) 0.51695(12) 0.64814(12)
C19 C 0.20089(21) 0.47479(16) 0.49794(13)
H8 H 0.175881 0.476416 0.514322
C20 C 0.19825(21) 0.46744(16) 0.44838(13)
C21 C 0.08498(20) 0.46117(15) 0.36315(12)
C22 C 0.13132(25) 0.48338(19) 0.34531(15)
H9 H 0.138120 0.498046 0.314327
C23 C 0.16778(26) 0.4842(2) 0.37265(14)
H10 H 0.199206 0.498265 0.359724
C24 C 0.07516(23) 0.44076(17) 0.40876(14)
H11 H 0.043333 0.425085 0.420784
C25 C 0.15848(22) 0.46433(17) 0.41942(13)
C26 C 0.11209(23) 0.44327(18) 0.43697(14)
H12 H 0.105397 0.430353 0.468735
C27 C 0.28662(18) 0.49947(13) 0.60127(12)
H13 H 0.308387 0.491889 0.586079
O16 O 0.50918(9) 0.65035(12) 0.66500(9)
O17 O 0.44330(8) 0.64107(11) 0.70284(8)
O18 O 0.56963(10) 0.99632(13) 0.34495(9)
O19 O 0.51101(9) 0.94087(13) 0.29843(9)
C28 C 0.54014(14) 0.95396(19) 0.33288(13)
N2 N 0.5357(2) 0.76784(22) 0.42353(15)
C29 C 0.50723(19) 0.75362(21) 0.57587(17)
C30 C 0.5202(2) 0.76008(22) 0.52350(18)
C31 C 0.47758(12) 0.66143(17) 0.67428(11)
C32 C 0.48305(12) 0.70448(16) 0.64814(12)
C33 C 0.52521(16) 0.79911(21) 0.49794(13)
H14 H 0.523584 0.824119 0.514322
C34 C 0.53256(16) 0.80175(21) 0.44838(13)
C35 C 0.53883(15) 0.91502(20) 0.36315(12)
C36 C 0.47287(17) 0.73644(19) 0.67152(17)
H15 H 0.459179 0.729590 0.702958
C37 C 0.51662(19) 0.86868(25) 0.34531(15)
H16 H 0.501954 0.861880 0.314327
C38 C 0.5158(2) 0.83222(26) 0.37265(14)
H17 H 0.501735 0.800794 0.359724
C39 C 0.55924(17) 0.92484(23) 0.40876(14)
H18 H 0.574915 0.956667 0.420784
C40 C 0.53567(17) 0.84152(22) 0.41942(13)
C41 C 0.55673(18) 0.88791(23) 0.43697(14)
H19 H 0.569647 0.894603 0.468735
C42 C 0.50053(13) 0.71338(18) 0.60127(12)
H20 H 0.508111 0.691613 0.586079
O24 O 0.50918(9) 0.85883(8) 0.66500(9)
O25 O 0.44330(8) 0.80223(8) 0.70284(8)
O26 O 0.56963(10) 0.57331(9) 0.34495(9)
O27 O 0.51101(9) 0.57014(9) 0.29843(9)
C43 C 0.54014(14) 0.58618(13) 0.33288(13)
C44 C 0.47758(12) 0.81615(12) 0.67428(11)
C45 C 0.48305(12) 0.77857(11) 0.64814(12)
C46 C 0.52521(16) 0.72610(14) 0.49794(13)
H21 H 0.523584 0.699465 0.514322
C47 C 0.53256(16) 0.73081(14) 0.44838(13)
C48 C 0.53883(15) 0.62381(13) 0.36315(12)
C49 C 0.51662(19) 0.64794(17) 0.34531(15)
H22 H 0.501954 0.640074 0.314327
C50 C 0.5158(2) 0.68358(17) 0.37265(14)
H23 H 0.501735 0.700941 0.359724
C51 C 0.55924(17) 0.63440(15) 0.40876(14)
H24 H 0.574915 0.618248 0.420784
C52 C 0.53567(17) 0.69415(14) 0.41942(13)
C53 C 0.55673(18) 0.66882(15) 0.43697(14)
H25 H 0.569647 0.675044 0.468735
C54 C 0.50053(13) 0.78715(13) 0.60127(12)
H26 H 0.508111 0.816498 0.586079
Zr5 Zr 0.58900(2) 0.52002(2) 0.18583(2)
O28 O 0.65525(9) 0.58983(9) 0.18760(10)
O29 O 0.58759(10) 0.51468(9) 0.10635(9)
Zr6 Zr 0.58900(2) 0.52002(2) 0.31417(2)
O30 O 0.65525(9) 0.58983(9) 0.31240(10)
O31 O 0.58759(10) 0.51468(9) 0.39365(9)
O32 O 0.51568(5) 0.48432(5) 0.30463(12)
Zr8 Zr 0.42177(2) 0.57823(3) 0.750000
Zr9 Zr 0.42177(3) 0.84354(2) 0.750000
Zr10 Zr 0.57823(2) 0.42177(3) 0.250000
Zr11 Zr 0.52002(2) 0.93102(3) 0.68583(2)
Zr12 Zr 0.41100(2) 0.47998(2) 0.68583(2)
Zr13 Zr 0.52002(2) 0.58900(2) 0.68583(2)
Zr14 Zr 0.47998(2) 0.41100(2) 0.18583(2)
Zr15 Zr 0.06898(3) 0.47998(2) 0.68583(2)
Zr19 Zr 0.49071(2) 0.98142(3) 0.250000
Zr20 Zr 0.01858(3) 0.50929(2) 0.250000
O33 O 0.11690(7) 0.55845(5) 0.82437(11)
O34 O 0.11690(7) 0.55845(5) 0.67563(11)
O35 O 0.55845(5) 0.44155(5) 0.17563(11)
O36 O 0.65035(12) 0.50918(9) 0.33500(9)
O37 O 0.49082(9) 0.34965(12) 0.33500(9)
O39 O 0.65035(12) 0.50918(9) 0.16500(9)
O40 O 0.19777(8) 0.64107(11) 0.79716(8)
O41 O 0.19777(8) 0.55670(8) 0.79716(8)
O42 O 0.19777(8) 0.64107(11) 0.70284(8)
O43 O 0.56963(10) 0.57331(9) 0.15505(9)
O44 O 0.51101(9) 0.57014(9) 0.20157(9)
O45 O 0.42986(9) 0.48899(9) 0.20157(9)
O47 O 0.10672(16) 0.50670(11) 0.750000
O48 O 0.10672(16) 0.60002(11) 0.750000
O49 O 0.60002(11) 0.49330(11) 0.250000
O50 O 0.57484(12) 0.55355(11) 0.250000
Zr17 Zr 0.93102(3) 0.41100(2) 0.31417(2)
Zr2_2 Zr 0.06898(3) 0.47998(2) 0.81417(2)
O6_2 O 0.06542(13) 0.41017(9) 0.81240(10)
O7_2 O 0.03136(7) 0.51568(5) 0.69537(12)
O8_2 O 0.07291(13) 0.48532(9) 0.89365(9)
O10_2 O 0.02129(16) 0.44645(11) 0.750000
Zr5_2 Zr 0.06898(3) 0.58900(2) 0.68583(2)
O28_2 O 0.06542(13) 0.65525(9) 0.68760(10)
O29_2 O 0.07291(13) 0.58759(10) 0.60635(9)
Zr6_2 Zr 0.06898(3) 0.58900(2) 0.81417(2)
O30_2 O 0.06542(13) 0.65525(9) 0.81240(10)
O31_2 O 0.07291(13) 0.58759(10) 0.89365(9)
O32_2 O 0.03136(7) 0.51568(5) 0.80463(12)
O36_2 O 0.14117(15) 0.65035(12) 0.83500(9)
O37_2 O 0.14117(15) 0.49082(9) 0.83500(9)
O39_2 O 0.14117(15) 0.65035(12) 0.66500(9)
O50_2 O 0.02129(16) 0.57484(12) 0.750000
O2_2 O 0.65035(12) 0.14117(8) 0.16500(9)
O3_2 O 0.64107(11) 0.19777(8) 0.20284(8)
C2_2 C 0.75362(21) 0.24639(10) 0.07587(17)
C3_2 C 0.76008(22) 0.23988(10) 0.02350(18)
C4_2 C 0.66143(17) 0.18385(12) 0.17428(11)
C5_2 C 0.70448(16) 0.22143(11) 0.14814(12)
H1_2 H 0.824119 0.300535 0.014322
C9_2 C 0.73644(19) 0.26357(8) 0.17152(17)
H2_2 H 0.729590 0.270411 0.202958
C15_2 C 0.71338(18) 0.21285(13) 0.10127(12)
H7_2 H 0.691613 0.183502 0.086079
O11_2 O 0.85883(15) 0.34965(12) 0.16500(9)
O12_2 O 0.80223(14) 0.35893(11) 0.20284(8)
C17_2 C 0.81615(21) 0.33857(17) 0.17428(11)
C18_2 C 0.77857(20) 0.29552(16) 0.14814(12)
H8_2 H 0.699465 0.175881 0.014322
C27_2 C 0.78715(22) 0.28662(18) 0.10127(12)
H13_2 H 0.816498 0.308387 0.086079
O16_2 O 0.85883(15) 0.50918(9) 0.16500(9)
O17_2 O 0.80223(14) 0.44330(8) 0.20284(8)
C29_2 C 0.75361(28) 0.50723(19) 0.07587(17)
C30_2 C 0.76012(30) 0.5202(2) 0.02350(18)
C31_2 C 0.81615(21) 0.47758(12) 0.17428(11)
C32_2 C 0.77857(20) 0.48305(12) 0.14814(12)
H14_2 H 0.699465 0.523584 0.014322
C36_2 C 0.73643(25) 0.47287(17) 0.17152(17)
H15_2 H 0.729589 0.459179 0.202958
C42_2 C 0.78715(22) 0.50053(13) 0.10127(12)
H20_2 H 0.816498 0.508111 0.086079
O25_2 O 0.64107(11) 0.44330(8) 0.20284(8)
C44_2 C 0.66143(17) 0.47758(12) 0.17428(11)
C45_2 C 0.70448(16) 0.48305(12) 0.14814(12)
H21_2 H 0.824119 0.523584 0.014322
C54_2 C 0.71338(18) 0.50053(13) 0.10127(12)
H26_2 H 0.691613 0.508111 0.086079
Zr8_2 Zr 0.84354(4) 0.42177(2) 0.250000
Zr12_2 Zr 0.93102(3) 0.41100(2) 0.18583(2)
Zr13_2 Zr 0.93102(3) 0.52002(2) 0.18583(2)
O34_2 O 0.55845(9) 0.11690(7) 0.17563(11)
O40_2 O 0.55670(14) 0.19777(8) 0.29716(8)
O41_2 O 0.64107(11) 0.19777(8) 0.29716(8)
O42_2 O 0.55670(14) 0.19777(8) 0.20284(8)
O48_2 O 0.50670(19) 0.10672(16) 0.250000
Zr3_2 Zr 0.98142(3) 0.49071(2) 0.750000
O4_2 O 0.99632(13) 0.42669(9) 0.84495(9)
O5_2 O 0.94087(13) 0.42986(9) 0.79843(9)
C1_2 C 0.95396(19) 0.41382(13) 0.83288(13)
N1_2 N 0.76784(22) 0.23214(10) 0.92353(15)
C6_2 C 0.79911(21) 0.27390(14) 0.99794(13)
C7_2 C 0.80175(21) 0.26919(14) 0.94838(13)
C8_2 C 0.91502(20) 0.37619(13) 0.86315(12)
C10_2 C 0.86868(25) 0.35206(17) 0.84531(15)
H3_2 H 0.861880 0.359926 0.814327
C11_2 C 0.83222(26) 0.31642(17) 0.87265(14)
H4_2 H 0.800794 0.299059 0.859724
C12_2 C 0.92484(23) 0.36560(15) 0.90876(14)
H5_2 H 0.956667 0.381752 0.920784
C13_2 C 0.84152(22) 0.30585(14) 0.91942(13)
C14_2 C 0.88791(23) 0.33118(15) 0.93697(14)
H6_2 H 0.894603 0.324956 0.968735
O13_2 O 0.57331(16) 0.00368(13) 0.84495(9)
O14_2 O 0.57014(16) 0.05913(13) 0.79843(9)
C16_2 C 0.58618(24) 0.04604(19) 0.83288(13)
C19_2 C 0.72610(26) 0.20089(21) 0.99794(13)
C20_2 C 0.73081(26) 0.19825(21) 0.94838(13)
C21_2 C 0.62381(25) 0.08498(20) 0.86315(12)
C22_2 C 0.64794(31) 0.13132(25) 0.84531(15)
H9_2 H 0.640074 0.138120 0.814327
C23_2 C 0.68358(33) 0.16778(26) 0.87265(14)
H10_2 H 0.700941 0.199206 0.859724
C24_2 C 0.63440(29) 0.07516(23) 0.90876(14)
H11_2 H 0.618248 0.043333 0.920784
C25_2 C 0.69415(28) 0.15848(22) 0.91942(13)
C26_2 C 0.66882(29) 0.11209(23) 0.93697(14)
H12_2 H 0.675044 0.105397 0.968735
Zr4_2 Zr 0.52002(4) 0.58900(2) 0.81417(2)
O15_2 O 0.44155(9) 0.55845(5) 0.82437(11)
O18_2 O 0.57331(16) 0.56963(10) 0.84495(9)
O19_2 O 0.57014(16) 0.51101(9) 0.79843(9)
O20_2 O 0.58983(16) 0.65525(9) 0.81240(10)
C28_2 C 0.58618(24) 0.54014(14) 0.83288(13)
N2_2 N 0.76786(30) 0.5357(2) 0.92353(15)
C33_2 C 0.72610(26) 0.52521(16) 0.99794(13)
C34_2 C 0.73081(26) 0.53256(16) 0.94838(13)
C35_2 C 0.62381(25) 0.53883(15) 0.86315(12)
C37_2 C 0.64794(31) 0.51662(19) 0.84531(15)
H16_2 H 0.640074 0.501954 0.814327
C38_2 C 0.68358(33) 0.5158(2) 0.87265(14)
H17_2 H 0.700941 0.501735 0.859724
C39_2 C 0.63440(29) 0.55924(17) 0.90876(14)
H18_2 H 0.618248 0.574915 0.920784
C40_2 C 0.69415(28) 0.53567(17) 0.91942(13)
C41_2 C 0.66882(29) 0.55673(18) 0.93697(14)
H19_2 H 0.675044 0.569647 0.968735
O21_2 O 0.51468(16) 0.58759(10) 0.89365(9)
O22_2 O 0.49330(19) 0.60002(11) 0.750000
O23_2 O 0.55355(20) 0.57484(12) 0.750000
O26_2 O 0.99632(13) 0.56963(10) 0.84495(9)
O27_2 O 0.94087(13) 0.51101(9) 0.79843(9)
C43_2 C 0.95396(19) 0.54014(14) 0.83288(13)
C46_2 C 0.79911(21) 0.52521(16) 0.99794(13)
C47_2 C 0.80175(21) 0.53256(16) 0.94838(13)
C48_2 C 0.91502(20) 0.53883(15) 0.86315(12)
C49_2 C 0.86868(25) 0.51662(19) 0.84531(15)
H22_2 H 0.861880 0.501954 0.814327
C50_2 C 0.83222(26) 0.5158(2) 0.87265(14)
H23_2 H 0.800794 0.501735 0.859724
C51_2 C 0.92484(23) 0.55924(17) 0.90876(14)
H24_2 H 0.956667 0.574915 0.920784
C52_2 C 0.84152(22) 0.53567(17) 0.91942(13)
C53_2 C 0.88791(23) 0.55673(18) 0.93697(14)
H25_2 H 0.894603 0.569647 0.968735
Zr18_2 Zr 0.41100(4) 0.47998(2) 0.81417(2)
Zr19_2 Zr 0.50929(4) 0.49071(2) 0.750000
Zr20_2 Zr 0.50929(4) 0.01858(3) 0.750000
O38_2 O 0.50918(14) 0.65035(12) 0.83500(9)
O43_2 O 0.99632(13) 0.56963(10) 0.65505(9)
O44_2 O 0.94087(13) 0.51101(9) 0.70157(9)
O45_2 O 0.94087(13) 0.42986(9) 0.70157(9)
O46_2 O 0.48432(9) 0.51568(5) 0.80463(12)
Zr17_2 Zr 0.52002(4) 0.93102(3) 0.81417(2)
O7_3 O 0.51568(5) 0.03136(7) 0.19537(12)
Zr5_3 Zr 0.47998(2) 0.06898(3) 0.18583(2)
O28_3 O 0.41017(9) 0.06542(13) 0.18760(10)
O29_3 O 0.48532(9) 0.07291(13) 0.10635(9)
O30_3 O 0.41017(9) 0.06542(13) 0.31240(10)
O31_3 O 0.48532(9) 0.07291(13) 0.39365(9)
O36_3 O 0.49082(9) 0.14117(15) 0.33500(9)
O39_3 O 0.49082(9) 0.14117(15) 0.16500(9)
O50_3 O 0.44645(11) 0.02129(16) 0.250000
O16_3 O 0.34965(12) 0.85883(15) 0.66500(9)
O17_3 O 0.35893(11) 0.80223(14) 0.70284(8)
O18_3 O 0.00368(13) 0.57331(16) 0.34495(9)
O19_3 O 0.05913(13) 0.57014(16) 0.29843(9)
C28_3 C 0.04604(19) 0.58618(24) 0.33288(13)
N2_3 N 0.23216(22) 0.76786(30) 0.42353(15)
C29_3 C 0.24638(21) 0.75361(28) 0.57587(17)
C30_3 C 0.23992(22) 0.76012(30) 0.52350(18)
C31_3 C 0.33857(17) 0.81615(21) 0.67428(11)
C32_3 C 0.29552(16) 0.77857(20) 0.64814(12)
C33_3 C 0.20089(21) 0.72610(26) 0.49794(13)
H14_3 H 0.175881 0.699465 0.514322
C34_3 C 0.19825(21) 0.73081(26) 0.44838(13)
C35_3 C 0.08498(20) 0.62381(25) 0.36315(12)
C36_3 C 0.26356(19) 0.73643(25) 0.67152(17)
H15_3 H 0.270410 0.729589 0.702958
C37_3 C 0.13132(25) 0.64794(31) 0.34531(15)
H16_3 H 0.138120 0.640074 0.314327
C38_3 C 0.16778(26) 0.68358(33) 0.37265(14)
H17_3 H 0.199206 0.700941 0.359724
C39_3 C 0.07516(23) 0.63440(29) 0.40876(14)
H18_3 H 0.043333 0.618248 0.420784
C40_3 C 0.15848(22) 0.69415(28) 0.41942(13)
C41_3 C 0.11209(23) 0.66882(29) 0.43697(14)
H19_3 H 0.105397 0.675044 0.468735
C42_3 C 0.28662(18) 0.78715(22) 0.60127(12)
H20_3 H 0.308387 0.816498 0.586079
O26_3 O 0.42669(9) 0.99632(13) 0.34495(9)
O27_3 O 0.42986(9) 0.94087(13) 0.29843(9)
C43_3 C 0.41382(13) 0.95396(19) 0.33288(13)
C44_3 C 0.18385(12) 0.66143(17) 0.67428(11)
C45_3 C 0.22143(11) 0.70448(16) 0.64814(12)
C46_3 C 0.27390(14) 0.79911(21) 0.49794(13)
H21_3 H 0.300535 0.824119 0.514322
C47_3 C 0.26919(14) 0.80175(21) 0.44838(13)
C48_3 C 0.37619(13) 0.91502(20) 0.36315(12)
C49_3 C 0.35206(17) 0.86868(25) 0.34531(15)
H22_3 H 0.359926 0.861880 0.314327
C50_3 C 0.31642(17) 0.83222(26) 0.37265(14)
H23_3 H 0.299059 0.800794 0.359724
C51_3 C 0.36560(15) 0.92484(23) 0.40876(14)
H24_3 H 0.381752 0.956667 0.420784
C52_3 C 0.30585(14) 0.84152(22) 0.41942(13)
C53_3 C 0.33118(15) 0.88791(23) 0.43697(14)
H25_3 H 0.324956 0.894603 0.468735
C54_3 C 0.21285(13) 0.71338(18) 0.60127(12)
H26_3 H 0.183502 0.691613 0.586079
Zr13_3 Zr 0.41100(2) 0.93102(3) 0.68583(2)
O34_3 O 0.44155(5) 0.55845(9) 0.67563(11)
O40_3 O 0.35893(11) 0.55670(14) 0.79716(8)
O41_3 O 0.44330(8) 0.64107(11) 0.79716(8)
O43_3 O 0.42669(9) 0.99632(13) 0.15505(9)
O44_3 O 0.42986(9) 0.94087(13) 0.20157(9)
O45_3 O 0.51101(9) 0.94087(13) 0.20157(9)
O48_3 O 0.39998(11) 0.50670(19) 0.750000
Zr4_3 Zr 0.93102(3) 0.52002(4) 0.31417(2)
O15_3 O 0.88310(7) 0.44155(9) 0.32437(11)
O20_3 O 0.93458(13) 0.58983(16) 0.31240(10)
O21_3 O 0.92709(13) 0.51468(16) 0.39365(9)
O22_3 O 0.89328(16) 0.49330(19) 0.250000
O23_3 O 0.97871(16) 0.55355(20) 0.250000
O38_3 O 0.85883(8) 0.50918(14) 0.33500(9)
O46_3 O 0.96864(7) 0.48432(9) 0.30463(12)
O16_4 O 0.49082(9) 0.34965(12) 0.16500(9)
O17_4 O 0.55670(8) 0.35893(11) 0.20284(8)
C29_4 C 0.49277(19) 0.24638(21) 0.07587(17)
C30_4 C 0.4798(2) 0.23992(22) 0.02350(18)
C31_4 C 0.52242(12) 0.33857(17) 0.17428(11)
C32_4 C 0.51695(12) 0.29552(16) 0.14814(12)
H14_4 H 0.476416 0.175881 0.014322
C36_4 C 0.52713(17) 0.26356(19) 0.17152(17)
H15_4 H 0.540821 0.270410 0.202958
C42_4 C 0.49947(13) 0.28662(18) 0.10127(12)
H20_4 H 0.491889 0.308387 0.086079
C44_4 C 0.52242(12) 0.18385(12) 0.17428(11)
C45_4 C 0.51695(12) 0.22143(11) 0.14814(12)
H21_4 H 0.476416 0.300535 0.014322
C54_4 C 0.49947(13) 0.21285(13) 0.10127(12)
H26_4 H 0.491889 0.183502 0.086079
O34_4 O 0.88310(7) 0.44155(5) 0.17563(11)
O40_4 O 0.80223(8) 0.35893(11) 0.29716(8)
O41_4 O 0.80223(8) 0.44330(8) 0.29716(8)
O48_4 O 0.89328(16) 0.39998(11) 0.250000
O7_4 O 0.48432(5) 0.51568(5) 0.69537(12)
O18_4 O 0.43037(10) 0.00368(13) 0.84495(9)
O19_4 O 0.48899(9) 0.05913(13) 0.79843(9)
C28_4 C 0.45986(14) 0.04604(19) 0.83288(13)
N2_4 N 0.4643(2) 0.23216(22) 0.92353(15)
C33_4 C 0.47479(16) 0.20089(21) 0.99794(13)
C34_4 C 0.46744(16) 0.19825(21) 0.94838(13)
C35_4 C 0.46117(15) 0.08498(20) 0.86315(12)
C37_4 C 0.48338(19) 0.13132(25) 0.84531(15)
H16_4 H 0.498046 0.138120 0.814327
C38_4 C 0.4842(2) 0.16778(26) 0.87265(14)
H17_4 H 0.498265 0.199206 0.859724
C39_4 C 0.44076(17) 0.07516(23) 0.90876(14)
H18_4 H 0.425085 0.043333 0.920784
C40_4 C 0.46433(17) 0.15848(22) 0.91942(13)
C41_4 C 0.44327(18) 0.11209(23) 0.93697(14)
H19_4 H 0.430353 0.105397 0.968735
O26_4 O 0.43037(10) 0.42669(9) 0.84495(9)
O27_4 O 0.48899(9) 0.42986(9) 0.79843(9)
C43_4 C 0.45986(14) 0.41382(13) 0.83288(13)
C46_4 C 0.47479(16) 0.27390(14) 0.99794(13)
C47_4 C 0.46744(16) 0.26919(14) 0.94838(13)
C48_4 C 0.46117(15) 0.37619(13) 0.86315(12)
C49_4 C 0.48338(19) 0.35206(17) 0.84531(15)
H22_4 H 0.498046 0.359926 0.814327
C50_4 C 0.4842(2) 0.31642(17) 0.87265(14)
H23_4 H 0.498265 0.299059 0.859724
C51_4 C 0.44076(17) 0.36560(15) 0.90876(14)
H24_4 H 0.425085 0.381752 0.920784
C52_4 C 0.46433(17) 0.30585(14) 0.91942(13)
C53_4 C 0.44327(18) 0.33118(15) 0.93697(14)
H25_4 H 0.430353 0.324956 0.968735
O28_4 O 0.34475(9) 0.41017(9) 0.68760(10)
O29_4 O 0.41241(10) 0.48532(9) 0.60635(9)
O30_4 O 0.34475(9) 0.41017(9) 0.81240(10)
O31_4 O 0.41241(10) 0.48532(9) 0.89365(9)
O36_4 O 0.34965(12) 0.49082(9) 0.83500(9)
O43_4 O 0.43037(10) 0.42669(9) 0.65505(9)
O44_4 O 0.48899(9) 0.42986(9) 0.70157(9)
O45_4 O 0.57014(9) 0.51101(9) 0.70157(9)
O50_4 O 0.42516(12) 0.44645(11) 0.750000
Zr4_4 Zr 0.41100(2) 0.93102(3) 0.81417(2)
O15_4 O 0.44155(5) 0.88310(7) 0.82437(11)
O20_4 O 0.34475(9) 0.93458(13) 0.81240(10)
O21_4 O 0.41241(10) 0.92709(13) 0.89365(9)
O22_4 O 0.39998(11) 0.89328(16) 0.750000
O23_4 O 0.42516(12) 0.97871(16) 0.750000
O38_4 O 0.34965(12) 0.85883(8) 0.83500(9)
O46_4 O 0.48432(5) 0.96864(7) 0.80463(12)
O34_5 O 0.44155(9) 0.88310(7) 0.67563(11)
O40_5 O 0.44330(14) 0.80223(8) 0.79716(8)
O41_5 O 0.35893(11) 0.80223(8) 0.79716(8)
O43_5 O 0.00368(13) 0.43037(10) 0.15505(9)
O44_5 O 0.05913(13) 0.48899(9) 0.20157(9)
O45_5 O 0.05913(13) 0.57014(9) 0.20157(9)
O48_5 O 0.49330(19) 0.89328(16) 0.750000
O7_5 O 0.96864(7) 0.48432(5) 0.19537(12)
O28_5 O 0.93458(13) 0.34475(9) 0.18760(10)
O29_5 O 0.92709(13) 0.41241(10) 0.10635(9)
O30_5 O 0.93458(13) 0.34475(9) 0.31240(10)
O31_5 O 0.92709(13) 0.41241(10) 0.39365(9)
O36_5 O 0.85883(15) 0.34965(12) 0.33500(9)
O50_5 O 0.97871(16) 0.42516(12) 0.250000
O40_6 O 0.64107(11) 0.44330(14) 0.29716(8)
O41_6 O 0.55670(8) 0.35893(11) 0.29716(8)
O43_6 O 0.57331(9) 0.00368(13) 0.65505(9)
O44_6 O 0.57014(9) 0.05913(13) 0.70157(9)
O45_6 O 0.48899(9) 0.05913(13) 0.70157(9)
O7_6 O 0.48432(5) 0.96864(7) 0.69537(12)
O28_6 O 0.58983(9) 0.93458(13) 0.68760(10)
O29_6 O 0.51468(9) 0.92709(13) 0.60635(9)
O30_6 O 0.58983(9) 0.93458(13) 0.81240(10)
O31_6 O 0.51468(9) 0.92709(13) 0.89365(9)
O36_6 O 0.50918(9) 0.85883(15) 0.83500(9)
O50_6 O 0.55355(11) 0.97871(16) 0.750000
O30_7 O 0.06542(13) 0.41017(9) 0.68760(10)
O31_7 O 0.07291(13) 0.48532(9) 0.60635(9)
C1_3 C 0.95396(19) 0.54014(14) 0.66712(13)
N1_3 N 0.76784(22) 0.5357(2) 0.57647(15)
C2_3 C 0.75362(21) 0.50723(19) 0.42413(17)
C3_3 C 0.76008(22) 0.5202(2) 0.47650(18)
C4_3 C 0.66143(17) 0.47758(12) 0.32572(11)
C5_3 C 0.70448(16) 0.48305(12) 0.35186(12)
C6_3 C 0.79911(21) 0.52521(16) 0.50206(13)
H1_3 H 0.824119 0.523584 0.485678
C7_3 C 0.80175(21) 0.53256(16) 0.55162(13)
C8_3 C 0.91502(20) 0.53883(15) 0.63685(12)
C9_3 C 0.73644(19) 0.47287(17) 0.32848(17)
H2_3 H 0.729590 0.459179 0.297042
C10_3 C 0.86868(25) 0.51662(19) 0.65469(15)
H3_3 H 0.861880 0.501954 0.685673
C11_3 C 0.83222(26) 0.5158(2) 0.62735(14)
H4_3 H 0.800794 0.501735 0.640276
C12_3 C 0.92484(23) 0.55924(17) 0.59124(14)
H5_3 H 0.956667 0.574915 0.579216
C13_3 C 0.84152(22) 0.53567(17) 0.58058(13)
C14_3 C 0.88791(23) 0.55673(18) 0.56303(14)
H6_3 H 0.894603 0.569647 0.531265
C15_3 C 0.71338(18) 0.50053(13) 0.39873(12)
H7_3 H 0.691613 0.508111 0.413921
O13_3 O 0.57331(16) 0.56963(10) 0.65505(9)
C16_3 C 0.58618(24) 0.54014(14) 0.66712(13)
C17_3 C 0.81615(21) 0.47758(12) 0.32572(11)
C18_3 C 0.77857(20) 0.48305(12) 0.35186(12)
C19_3 C 0.72610(26) 0.52521(16) 0.50206(13)
H8_3 H 0.699465 0.523584 0.485678
C20_3 C 0.73081(26) 0.53256(16) 0.55162(13)
C21_3 C 0.62381(25) 0.53883(15) 0.63685(12)
C22_3 C 0.64794(31) 0.51662(19) 0.65469(15)
H9_3 H 0.640074 0.501954 0.685673
C23_3 C 0.68358(33) 0.5158(2) 0.62735(14)
H10_3 H 0.700941 0.501735 0.640276
C24_3 C 0.63440(29) 0.55924(17) 0.59124(14)
H11_3 H 0.618248 0.574915 0.579216
C25_3 C 0.69415(28) 0.53567(17) 0.58058(13)
C26_3 C 0.66882(29) 0.55673(18) 0.56303(14)
H12_3 H 0.675044 0.569647 0.531265
C27_3 C 0.78715(22) 0.50053(13) 0.39873(12)
H13_3 H 0.816498 0.508111 0.413921
C28_5 C 0.58618(24) 0.04604(19) 0.66712(13)
N2_5 N 0.76786(30) 0.23216(22) 0.57647(15)
C29_5 C 0.75361(28) 0.24638(21) 0.42413(17)
C30_5 C 0.76012(30) 0.23992(22) 0.47650(18)
C31_5 C 0.81615(21) 0.33857(17) 0.32572(11)
C32_5 C 0.77857(20) 0.29552(16) 0.35186(12)
C33_5 C 0.72610(26) 0.20089(21) 0.50206(13)
H14_5 H 0.699465 0.175881 0.485678
C34_5 C 0.73081(26) 0.19825(21) 0.55162(13)
C35_5 C 0.62381(25) 0.08498(20) 0.63685(12)
C36_5 C 0.73643(25) 0.26356(19) 0.32848(17)
H15_5 H 0.729589 0.270410 0.297042
C37_5 C 0.64794(31) 0.13132(25) 0.65469(15)
H16_5 H 0.640074 0.138120 0.685673
C38_5 C 0.68358(33) 0.16778(26) 0.62735(14)
H17_5 H 0.700941 0.199206 0.640276
C39_5 C 0.63440(29) 0.07516(23) 0.59124(14)
H18_5 H 0.618248 0.043333 0.579216
C40_5 C 0.69415(28) 0.15848(22) 0.58058(13)
C41_5 C 0.66882(29) 0.11209(23) 0.56303(14)
H19_5 H 0.675044 0.105397 0.531265
C42_5 C 0.78715(22) 0.28662(18) 0.39873(12)
H20_5 H 0.816498 0.308387 0.413921
O26_5 O 0.99632(13) 0.42669(9) 0.65505(9)
C43_5 C 0.95396(19) 0.41382(13) 0.66712(13)
C44_5 C 0.66143(17) 0.18385(12) 0.32572(11)
C45_5 C 0.70448(16) 0.22143(11) 0.35186(12)
C46_5 C 0.79911(21) 0.27390(14) 0.50206(13)
H21_5 H 0.824119 0.300535 0.485678
C47_5 C 0.80175(21) 0.26919(14) 0.55162(13)
C48_5 C 0.91502(20) 0.37619(13) 0.63685(12)
C49_5 C 0.86868(25) 0.35206(17) 0.65469(15)
H22_5 H 0.861880 0.359926 0.685673
C50_5 C 0.83222(26) 0.31642(17) 0.62735(14)
H23_5 H 0.800794 0.299059 0.640276
C51_5 C 0.92484(23) 0.36560(15) 0.59124(14)
H24_5 H 0.956667 0.381752 0.579216
C52_5 C 0.84152(22) 0.30585(14) 0.58058(13)
C53_5 C 0.88791(23) 0.33118(15) 0.56303(14)
H25_5 H 0.894603 0.324956 0.531265
C54_5 C 0.71338(18) 0.21285(13) 0.39873(12)
H26_5 H 0.691613 0.183502 0.413921
C28_6 C 0.45986(14) 0.41382(24) 0.66712(13)
N2_6 N 0.4643(2) 0.23214(30) 0.57647(15)
C29_6 C 0.49277(19) 0.24639(28) 0.42413(17)
C30_6 C 0.4798(2) 0.23988(30) 0.47650(18)
C31_6 C 0.52242(12) 0.18385(21) 0.32572(11)
C32_6 C 0.51695(12) 0.22143(20) 0.35186(12)
C33_6 C 0.47479(16) 0.27390(26) 0.50206(13)
H14_6 H 0.476416 0.300535 0.485678
C34_6 C 0.46744(16) 0.26919(26) 0.55162(13)
C35_6 C 0.46117(15) 0.37619(25) 0.63685(12)
C36_6 C 0.52713(17) 0.26357(25) 0.32848(17)
H15_6 H 0.540821 0.270411 0.297042
C37_6 C 0.48338(19) 0.35206(31) 0.65469(15)
H16_6 H 0.498046 0.359926 0.685673
C38_6 C 0.4842(2) 0.31642(33) 0.62735(14)
H17_6 H 0.498265 0.299059 0.640276
C39_6 C 0.44076(17) 0.36560(29) 0.59124(14)
H18_6 H 0.425085 0.381752 0.579216
C40_6 C 0.46433(17) 0.30585(28) 0.58058(13)
C41_6 C 0.44327(18) 0.33118(29) 0.56303(14)
H19_6 H 0.430353 0.324956 0.531265
C42_6 C 0.49947(13) 0.21285(22) 0.39873(12)
H20_6 H 0.491889 0.183502 0.413921
O26_6 O 0.43037(10) 0.00368(13) 0.65505(9)
C43_6 C 0.45986(14) 0.04604(19) 0.66712(13)
C44_6 C 0.52242(12) 0.33857(17) 0.32572(11)
C45_6 C 0.51695(12) 0.29552(16) 0.35186(12)
C46_6 C 0.47479(16) 0.20089(21) 0.50206(13)
H21_6 H 0.476416 0.175881 0.485678
C47_6 C 0.46744(16) 0.19825(21) 0.55162(13)
C48_6 C 0.46117(15) 0.08498(20) 0.63685(12)
C49_6 C 0.48338(19) 0.13132(25) 0.65469(15)
H22_6 H 0.498046 0.138120 0.685673
C50_6 C 0.4842(2) 0.16778(26) 0.62735(14)
H23_6 H 0.498265 0.199206 0.640276
C51_6 C 0.44076(17) 0.07516(23) 0.59124(14)
H24_6 H 0.425085 0.043333 0.579216
C52_6 C 0.46433(17) 0.15848(22) 0.58058(13)
C53_6 C 0.44327(18) 0.11209(23) 0.56303(14)
H25_6 H 0.430353 0.105397 0.531265
C54_6 C 0.49947(13) 0.28662(18) 0.39873(12)
H26_6 H 0.491889 0.308387 0.413921
O30_8 O 0.34475(9) 0.93458(13) 0.68760(10)
O31_8 O 0.41241(10) 0.92709(13) 0.60635(9)
O30_9 O 0.58983(9) 0.65525(9) 0.68760(10)
O31_9 O 0.51468(9) 0.58759(10) 0.60635(9)
C1_4 C 0.54014(14) 0.58618(13) 0.16712(13)
N1_4 N 0.5357(2) 0.76786(10) 0.07647(15)
C6_4 C 0.52521(16) 0.72610(14) 0.00206(13)
C7_4 C 0.53256(16) 0.73081(14) 0.05162(13)
C8_4 C 0.53883(15) 0.62381(13) 0.13685(12)
C10_4 C 0.51662(19) 0.64794(17) 0.15469(15)
H3_4 H 0.501954 0.640074 0.185673
C11_4 C 0.5158(2) 0.68358(17) 0.12735(14)
H4_4 H 0.501735 0.700941 0.140276
C12_4 C 0.55924(17) 0.63440(15) 0.09124(14)
H5_4 H 0.574915 0.618248 0.079216
C13_4 C 0.53567(17) 0.69415(14) 0.08058(13)
C14_4 C 0.55673(18) 0.66882(15) 0.06303(14)
H6_4 H 0.569647 0.675044 0.031265
O13_4 O 0.56963(10) 0.99632(13) 0.15505(9)
C16_4 C 0.54014(14) 0.95396(19) 0.16712(13)
C19_4 C 0.52521(16) 0.79911(21) 0.00206(13)
C20_4 C 0.53256(16) 0.80175(21) 0.05162(13)
C21_4 C 0.53883(15) 0.91502(20) 0.13685(12)
C22_4 C 0.51662(19) 0.86868(25) 0.15469(15)
H9_4 H 0.501954 0.861880 0.185673
C23_4 C 0.5158(2) 0.83222(26) 0.12735(14)
H10_4 H 0.501735 0.800794 0.140276
C24_4 C 0.55924(17) 0.92484(23) 0.09124(14)
H11_4 H 0.574915 0.956667 0.079216
C25_4 C 0.53567(17) 0.84152(22) 0.08058(13)
C26_4 C 0.55673(18) 0.88791(23) 0.06303(14)
H12_4 H 0.569647 0.894603 0.031265
C28_7 C 0.04604(19) 0.45986(14) 0.16712(13)
N2_7 N 0.23216(22) 0.4643(2) 0.07647(15)
C33_7 C 0.20089(21) 0.47479(16) 0.00206(13)
C34_7 C 0.19825(21) 0.46744(16) 0.05162(13)
C35_7 C 0.08498(20) 0.46117(15) 0.13685(12)
C37_7 C 0.13132(25) 0.48338(19) 0.15469(15)
H16_7 H 0.138120 0.498046 0.185673
C38_7 C 0.16778(26) 0.4842(2) 0.12735(14)
H17_7 H 0.199206 0.498265 0.140276
C39_7 C 0.07516(23) 0.44076(17) 0.09124(14)
H18_7 H 0.043333 0.425085 0.079216
C40_7 C 0.15848(22) 0.46433(17) 0.08058(13)
C41_7 C 0.11209(23) 0.44327(18) 0.06303(14)
H19_7 H 0.105397 0.430353 0.031265
O26_7 O 0.42669(9) 0.43037(10) 0.15505(9)
C43_7 C 0.41382(13) 0.45986(14) 0.16712(13)
C46_7 C 0.27390(14) 0.47479(16) 0.00206(13)
C47_7 C 0.26919(14) 0.46744(16) 0.05162(13)
C48_7 C 0.37619(13) 0.46117(15) 0.13685(12)
C49_7 C 0.35206(17) 0.48338(19) 0.15469(15)
H22_7 H 0.359926 0.498046 0.185673
C50_7 C 0.31642(17) 0.4842(2) 0.12735(14)
H23_7 H 0.299059 0.498265 0.140276
C51_7 C 0.36560(15) 0.44076(17) 0.09124(14)
H24_7 H 0.381752 0.425085 0.079216
C52_7 C 0.30585(14) 0.46433(17) 0.08058(13)
C53_7 C 0.33118(15) 0.44327(18) 0.06303(14)
H25_7 H 0.324956 0.430353 0.031265
O30_10 O 0.41017(9) 0.34475(9) 0.18760(10)
O31_10 O 0.48532(9) 0.41241(10) 0.10635(9)
C2_4 C 0.50723(19) 0.75361(10) 0.92413(17)
C3_4 C 0.5202(2) 0.76012(10) 0.97650(18)
C4_4 C 0.47758(12) 0.81615(12) 0.82572(11)
C5_4 C 0.48305(12) 0.77857(11) 0.85186(12)
H1_4 H 0.523584 0.699465 0.985678
C9_4 C 0.47287(17) 0.73643(8) 0.82848(17)
H2_4 H 0.459179 0.729589 0.797042
C15_4 C 0.50053(13) 0.78715(13) 0.89873(12)
H7_4 H 0.508111 0.816498 0.913921
C17_4 C 0.47758(12) 0.66143(17) 0.82572(11)
C18_4 C 0.48305(12) 0.70448(16) 0.85186(12)
H8_4 H 0.523584 0.824119 0.985678
C27_4 C 0.50053(13) 0.71338(18) 0.89873(12)
H13_4 H 0.508111 0.691613 0.913921
C29_7 C 0.24638(21) 0.49277(19) 0.92413(17)
C30_7 C 0.23992(22) 0.4798(2) 0.97650(18)
C31_7 C 0.33857(17) 0.52242(12) 0.82572(11)
C32_7 C 0.29552(16) 0.51695(12) 0.85186(12)
H14_7 H 0.175881 0.476416 0.985678
C36_7 C 0.26356(19) 0.52713(17) 0.82848(17)
H15_7 H 0.270410 0.540821 0.797042
C42_7 C 0.28662(18) 0.49947(13) 0.89873(12)
H20_7 H 0.308387 0.491889 0.913921
C44_7 C 0.18385(12) 0.52242(12) 0.82572(11)
C45_7 C 0.22143(11) 0.51695(12) 0.85186(12)
H21_7 H 0.300535 0.476416 0.985678
C54_7 C 0.21285(13) 0.49947(13) 0.89873(12)
H26_7 H 0.183502 0.491889 0.913921
C28_8 C 0.41382(24) 0.95396(19) 0.16712(13)
N2_8 N 0.23214(30) 0.76784(22) 0.07647(15)
C33_8 C 0.27390(26) 0.79911(21) 0.00206(13)
C34_8 C 0.26919(26) 0.80175(21) 0.05162(13)
C35_8 C 0.37619(25) 0.91502(20) 0.13685(12)
C37_8 C 0.35206(31) 0.86868(25) 0.15469(15)
H16_8 H 0.359926 0.861880 0.185673
C38_8 C 0.31642(33) 0.83222(26) 0.12735(14)
H17_8 H 0.299059 0.800794 0.140276
C39_8 C 0.36560(29) 0.92484(23) 0.09124(14)
H18_8 H 0.381752 0.956667 0.079216
C40_8 C 0.30585(28) 0.84152(22) 0.08058(13)
C41_8 C 0.33118(29) 0.88791(23) 0.06303(14)
H19_8 H 0.324956 0.894603 0.031265
O26_8 O 0.00368(13) 0.57331(9) 0.15505(9)
C43_8 C 0.04604(19) 0.58618(13) 0.16712(13)
C46_8 C 0.20089(21) 0.72610(14) 0.00206(13)
C47_8 C 0.19825(21) 0.73081(14) 0.05162(13)
C48_8 C 0.08498(20) 0.62381(13) 0.13685(12)
C49_8 C 0.13132(25) 0.64794(17) 0.15469(15)
H22_8 H 0.138120 0.640074 0.185673
C50_8 C 0.16778(26) 0.68358(17) 0.12735(14)
H23_8 H 0.199206 0.700941 0.140276
C51_8 C 0.07516(23) 0.63440(15) 0.09124(14)
H24_8 H 0.043333 0.618248 0.079216
C52_8 C 0.15848(22) 0.69415(14) 0.08058(13)
C53_8 C 0.11209(23) 0.66882(15) 0.06303(14)
H25_8 H 0.105397 0.675044 0.031265
C29_8 C 0.24639(28) 0.75362(21) 0.92413(17)
C30_8 C 0.23988(30) 0.76008(22) 0.97650(18)
C31_8 C 0.18385(21) 0.66143(17) 0.82572(11)
C32_8 C 0.22143(20) 0.70448(16) 0.85186(12)
H14_8 H 0.300535 0.824119 0.985678
C36_8 C 0.26357(25) 0.73644(19) 0.82848(17)
H15_8 H 0.270411 0.729590 0.797042
C42_8 C 0.21285(22) 0.71338(18) 0.89873(12)
H20_8 H 0.183502 0.691613 0.913921
C44_8 C 0.33857(17) 0.81615(12) 0.82572(11)
C45_8 C 0.29552(16) 0.77857(11) 0.85186(12)
H21_8 H 0.175881 0.699465 0.985678
C54_8 C 0.28662(18) 0.78715(13) 0.89873(12)
H26_8 H 0.308387 0.816498 0.913921
O30_11 O 0.93458(13) 0.58983(9) 0.18760(10)
O31_11 O 0.92709(13) 0.51468(9) 0.10635(9)
O30_12 O 0.65525(9) 0.06542(13) 0.18760(10)
O31_12 O 0.58759(10) 0.07291(13) 0.10635(9)
loop_
_geom_bond_atom_site_label_1
_geom_bond_atom_site_label_2
_geom_bond_site_symmetry_1
_geom_bond_site_symmetry_2
Zr4 O15 1_555 1_555
O15 Zr7 1_555 1_555
O20 Zr4 1_555 1_555
O21 Zr4 1_555 1_555
O22 Zr4 1_555 1_555
O23 Zr4 1_555 1_555
Zr7 O22 1_555 1_555
Zr16 O22 1_555 1_555
Zr18 O15 1_555 1_555
O38 Zr4 1_555 1_555
O46 Zr4 1_555 1_555
O23 Zr16 1_555 1_555
Zr18 O46 1_555 1_555
Zr1 O3 1_555 1_555
Zr2 O1 1_555 1_555
Zr3 O5 1_555 1_555
O1 Zr6 1_555 1_555
O2 C4 1_555 1_555
O3 C4 1_555 1_555
O4 Zr2 1_555 1_555
O5 C1 1_555 1_555
O6 Zr2 1_555 1_555
C1 O4 1_555 1_555
O7 Zr3 1_555 1_555
N1 C7 1_555 1_555
C2 C3 1_555 1_555
C3 C6 1_555 1_555
C4 C5 1_555 1_555
C5 C9 1_555 1_555
C6 H1 1_555 1_555
C7 C6 1_555 1_555
C8 C1 1_555 1_555
C9 H2 1_555 1_555
C10 C8 1_555 1_555
H3 C10 1_555 1_555
C11 C10 1_555 1_555
H4 C11 1_555 1_555
C12 C8 1_555 1_555
H5 C12 1_555 1_555
C13 C7 1_555 1_555
C14 C12 1_555 1_555
H6 C14 1_555 1_555
C15 C2 1_555 1_555
H7 C15 1_555 1_555
O8 Zr2 1_555 1_555
O9 Zr2 1_555 1_555
O10 Zr2 1_555 1_555
O11 C17 1_555 1_555
O12 C17 1_555 1_555
O13 C16 1_555 1_555
O14 C16 1_555 1_555
C16 C21 1_555 1_555
C17 C18 1_555 1_555
C18 C9 1_555 1_555
C19 C3 1_555 1_555
H8 C19 1_555 1_555
C20 N1 1_555 1_555
C21 C22 1_555 1_555
C22 H9 1_555 1_555
C23 C22 1_555 1_555
H10 C23 1_555 1_555
C24 C21 1_555 1_555
H11 C24 1_555 1_555
C25 C20 1_555 1_555
C26 C24 1_555 1_555
H12 C26 1_555 1_555
C27 C2 1_555 1_555
H13 C27 1_555 1_555
O16 C31 1_555 1_555
O17 C31 1_555 1_555
O19 C28 1_555 1_555
C28 O18 1_555 1_555
N2 C34 1_555 1_555
C29 C30 1_555 1_555
C30 C33 1_555 1_555
C31 C32 1_555 1_555
C32 C36 1_555 1_555
C33 H14 1_555 1_555
C34 C33 1_555 1_555
C35 C28 1_555 1_555
C36 H15 1_555 1_555
C37 C35 1_555 1_555
H16 C37 1_555 1_555
C38 C37 1_555 1_555
H17 C38 1_555 1_555
C39 C35 1_555 1_555
H18 C39 1_555 1_555
C40 C34 1_555 1_555
C41 C39 1_555 1_555
H19 C41 1_555 1_555
C42 C29 1_555 1_555
H20 C42 1_555 1_555
O24 C44 1_555 1_555
O25 C44 1_555 1_555
O26 C43 1_555 1_555
O27 Zr3 1_555 1_555
C43 O27 1_555 1_555
C44 C45 1_555 1_555
C45 C36 1_555 1_555
C46 C30 1_555 1_555
H21 C46 1_555 1_555
C47 N2 1_555 1_555
C48 C43 1_555 1_555
C49 C48 1_555 1_555
H22 C49 1_555 1_555
C50 C49 1_555 1_555
H23 C50 1_555 1_555
C51 C48 1_555 1_555
H24 C51 1_555 1_555
C52 C47 1_555 1_555
C53 C51 1_555 1_555
H25 C53 1_555 1_555
C54 C29 1_555 1_555
H26 C54 1_555 1_555
Zr5 O7 1_555 1_555
O28 Zr5 1_555 1_555
O29 Zr5 1_555 1_555
Zr6 O26 1_555 1_555
O30 Zr6 1_555 1_555
O31 Zr6 1_555 1_555
O32 Zr2 1_555 1_555
Zr8 O12 1_555 1_555
Zr9 O25 1_555 1_555
Zr10 O1 1_555 1_555
Zr11 O24 1_555 1_555
Zr12 O11 1_555 1_555
Zr13 O16 1_555 1_555
Zr14 O7 1_555 1_555
Zr15 O2 1_555 1_555
Zr19 O19 1_555 1_555
Zr20 O14 1_555 1_555
O33 Zr1 1_555 1_555
O34 Zr1 1_555 1_555
O35 Zr5 1_555 1_555
O36 Zr6 1_555 1_555
O37 Zr2 1_555 1_555
O39 Zr5 1_555 1_555
O40 Zr1 1_555 1_555
O41 Zr1 1_555 1_555
O42 Zr1 1_555 1_555
O43 Zr5 1_555 1_555
O44 Zr3 1_555 1_555
O45 Zr3 1_555 1_555
O47 Zr1 1_555 1_555
O48 Zr1 1_555 1_555
O49 Zr5 1_555 1_555
O50 Zr3 1_555 1_555
Zr3 O10 1_555 1_555
Zr3 O32 1_555 1_555
C5 C15 1_555 1_555
C11 C13 1_555 1_555
C13 C14 1_555 1_555
O9 Zr10 1_555 1_555
O9 Zr14 1_555 1_555
O10 Zr14 1_555 1_555
C18 C27 1_555 1_555
C19 C20 1_555 1_555
C23 C25 1_555 1_555
C25 C26 1_555 1_555
O17 Zr8 1_555 1_555
C32 C42 1_555 1_555
C38 C40 1_555 1_555
C40 C41 1_555 1_555
C45 C54 1_555 1_555
C46 C47 1_555 1_555
C50 C52 1_555 1_555
C52 C53 1_555 1_555
Zr5 O50 1_555 1_555
Zr6 O32 1_555 1_555
Zr6 O49 1_555 1_555
Zr6 O50 1_555 1_555
Zr10 O35 1_555 1_555
Zr10 O49 1_555 1_555
Zr14 O35 1_555 1_555
Zr15 O34 1_555 1_555
Zr15 O47 1_555 1_555
Zr2_2 O33 1_555 1_555
O33 Zr6_2 1_555 1_555
O6_2 Zr2_2 1_555 1_555
O8_2 Zr2_2 1_555 1_555
O47 Zr2_2 1_555 1_555
O10_2 Zr2_2 1_555 1_555
Zr5_2 O7_2 1_555 1_555
O28_2 Zr5_2 1_555 1_555
O29_2 Zr5_2 1_555 1_555
O30_2 Zr6_2 1_555 1_555
O31_2 Zr6_2 1_555 1_555
O32_2 Zr2_2 1_555 1_555
Zr15 O7_2 1_555 1_555
O34 Zr5_2 1_555 1_555
O36_2 Zr6_2 1_555 1_555
O37_2 Zr2_2 1_555 1_555
O39_2 Zr5_2 1_555 1_555
O48 Zr5_2 1_555 1_555
O10_2 Zr15 1_555 1_555
Zr5_2 O50_2 1_555 1_555
Zr6_2 O32_2 1_555 1_555
Zr6_2 O48 1_555 1_555
Zr6_2 O50_2 1_555 1_555
Zr7 O3_2 1_555 1_555
O2_2 C4_2 1_555 1_555
O3_2 C4_2 1_555 1_555
C2_2 C3_2 1_555 1_555
C4_2 C5_2 1_555 1_555
C5_2 C9_2 1_555 1_555
C9_2 H2_2 1_555 1_555
C15_2 C2_2 1_555 1_555
H7_2 C15_2 1_555 1_555
O11_2 C17_2 1_555 1_555
O12_2 C17_2 1_555 1_555
C17_2 C18_2 1_555 1_555
C18_2 C9_2 1_555 1_555
C27_2 C2_2 1_555 1_555
H13_2 C27_2 1_555 1_555
O16_2 C31_2 1_555 1_555
O17_2 C31_2 1_555 1_555
C29_2 C30_2 1_555 1_555
C31_2 C32_2 1_555 1_555
C32_2 C36_2 1_555 1_555
C36_2 H15_2 1_555 1_555
C42_2 C29_2 1_555 1_555
H20_2 C42_2 1_555 1_555
O39 C44_2 1_555 1_555
O25_2 C44_2 1_555 1_555
C44_2 C45_2 1_555 1_555
C45_2 C36_2 1_555 1_555
C54_2 C29_2 1_555 1_555
H26_2 C54_2 1_555 1_555
Zr8_2 O12_2 1_555 1_555
Zr10 O25_2 1_555 1_555
Zr12_2 O11_2 1_555 1_555
Zr13_2 O16_2 1_555 1_555
Zr16 O2_2 1_555 1_555
O34_2 Zr7 1_555 1_555
O40_2 Zr7 1_555 1_555
O41_2 Zr7 1_555 1_555
O42_2 Zr7 1_555 1_555
O48_2 Zr7 1_555 1_555
C5_2 C15_2 1_555 1_555
C18_2 C27_2 1_555 1_555
O17_2 Zr8_2 1_555 1_555
C32_2 C42_2 1_555 1_555
C45_2 C54_2 1_555 1_555
Zr16 O34_2 1_555 1_555
Zr3_2 O5_2 1_555 1_555
O5_2 C1_2 1_555 1_555
C1_2 O4_2 1_555 1_555
N1_2 C7_2 1_555 1_555
C7_2 C6_2 1_555 1_555
C8_2 C1_2 1_555 1_555
C10_2 C8_2 1_555 1_555
H3_2 C10_2 1_555 1_555
C11_2 C10_2 1_555 1_555
H4_2 C11_2 1_555 1_555
C12_2 C8_2 1_555 1_555
H5_2 C12_2 1_555 1_555
C13_2 C7_2 1_555 1_555
C14_2 C12_2 1_555 1_555
H6_2 C14_2 1_555 1_555
O13_2 C16_2 1_555 1_555
O14_2 C16_2 1_555 1_555
C16_2 C21_2 1_555 1_555
C20_2 N1_2 1_555 1_555
C21_2 C22_2 1_555 1_555
C22_2 H9_2 1_555 1_555
C23_2 C22_2 1_555 1_555
H10_2 C23_2 1_555 1_555
C24_2 C21_2 1_555 1_555
H11_2 C24_2 1_555 1_555
C25_2 C20_2 1_555 1_555
C26_2 C24_2 1_555 1_555
H12_2 C26_2 1_555 1_555
Zr4_2 O15_2 1_555 1_555
O15_2 Zr8 1_555 1_555
O18_2 Zr4_2 1_555 1_555
O19_2 C28_2 1_555 1_555
O20_2 Zr4_2 1_555 1_555
C28_2 O18_2 1_555 1_555
N2_2 C34_2 1_555 1_555
C34_2 C33_2 1_555 1_555
C35_2 C28_2 1_555 1_555
C37_2 C35_2 1_555 1_555
H16_2 C37_2 1_555 1_555
C38_2 C37_2 1_555 1_555
H17_2 C38_2 1_555 1_555
C39_2 C35_2 1_555 1_555
H18_2 C39_2 1_555 1_555
C40_2 C34_2 1_555 1_555
C41_2 C39_2 1_555 1_555
H19_2 C41_2 1_555 1_555
O21_2 Zr4_2 1_555 1_555
O22_2 Zr4_2 1_555 1_555
O23_2 Zr4_2 1_555 1_555
O26_2 C43_2 1_555 1_555
O27_2 Zr3_2 1_555 1_555
C43_2 O27_2 1_555 1_555
C47_2 N2_2 1_555 1_555
C48_2 C43_2 1_555 1_555
C49_2 C48_2 1_555 1_555
H22_2 C49_2 1_555 1_555
C50_2 C49_2 1_555 1_555
H23_2 C50_2 1_555 1_555
C51_2 C48_2 1_555 1_555
H24_2 C51_2 1_555 1_555
C52_2 C47_2 1_555 1_555
C53_2 C51_2 1_555 1_555
H25_2 C53_2 1_555 1_555
Zr8 O22_2 1_555 1_555
Zr13 O22_2 1_555 1_555
Zr18_2 O15_2 1_555 1_555
Zr19_2 O19_2 1_555 1_555
Zr20_2 O14_2 1_555 1_555
O38_2 Zr4_2 1_555 1_555
O44_2 Zr3_2 1_555 1_555
O45_2 Zr3_2 1_555 1_555
O46_2 Zr4_2 1_555 1_555
C11_2 C13_2 1_555 1_555
C13_2 C14_2 1_555 1_555
C19_2 C20_2 1_555 1_555
C23_2 C25_2 1_555 1_555
C25_2 C26_2 1_555 1_555
C38_2 C40_2 1_555 1_555
C40_2 C41_2 1_555 1_555
O23_2 Zr13 1_555 1_555
O23_2 Zr19_2 1_555 1_555
C46_2 C47_2 1_555 1_555
C50_2 C52_2 1_555 1_555
C52_2 C53_2 1_555 1_555
Zr18_2 O46_2 1_555 1_555
Zr19_2 O46_2 1_555 1_555
Zr5_3 O7_3 1_555 1_555
O28_3 Zr5_3 1_555 1_555
O29_3 Zr5_3 1_555 1_555
O30_3 Zr18 1_555 1_555
O31_3 Zr18 1_555 1_555
Zr16 O7_3 1_555 1_555
O34_2 Zr5_3 1_555 1_555
O36_3 Zr18 1_555 1_555
O39_3 Zr5_3 1_555 1_555
O48_2 Zr5_3 1_555 1_555
Zr5_3 O50_3 1_555 1_555
Zr18 O48_2 1_555 1_555
Zr18 O50_3 1_555 1_555
O16_3 C31_3 1_555 1_555
O17_3 C31_3 1_555 1_555
O19_3 C28_3 1_555 1_555
C28_3 O18_3 1_555 1_555
N2_3 C34_3 1_555 1_555
C29_3 C30_3 1_555 1_555
C30_3 C33_3 1_555 1_555
C31_3 C32_3 1_555 1_555
C32_3 C36_3 1_555 1_555
C33_3 H14_3 1_555 1_555
C34_3 C33_3 1_555 1_555
C35_3 C28_3 1_555 1_555
C36_3 H15_3 1_555 1_555
C37_3 C35_3 1_555 1_555
H16_3 C37_3 1_555 1_555
C38_3 C37_3 1_555 1_555
H17_3 C38_3 1_555 1_555
C39_3 C35_3 1_555 1_555
H18_3 C39_3 1_555 1_555
C40_3 C34_3 1_555 1_555
C41_3 C39_3 1_555 1_555
H19_3 C41_3 1_555 1_555
C42_3 C29_3 1_555 1_555
H20_3 C42_3 1_555 1_555
O39_2 C44_3 1_555 1_555
O42 C44_3 1_555 1_555
O26_3 C43_3 1_555 1_555
O27_3 Zr19 1_555 1_555
C43_3 O27_3 1_555 1_555
C44_3 C45_3 1_555 1_555
C45_3 C36_3 1_555 1_555
C46_3 C30_3 1_555 1_555
H21_3 C46_3 1_555 1_555
C47_3 N2_3 1_555 1_555
C48_3 C43_3 1_555 1_555
C49_3 C48_3 1_555 1_555
H22_3 C49_3 1_555 1_555
C50_3 C49_3 1_555 1_555
H23_3 C50_3 1_555 1_555
C51_3 C48_3 1_555 1_555
H24_3 C51_3 1_555 1_555
C52_3 C47_3 1_555 1_555
C53_3 C51_3 1_555 1_555
H25_3 C53_3 1_555 1_555
C54_3 C29_3 1_555 1_555
H26_3 C54_3 1_555 1_555
Zr13_3 O16_3 1_555 1_555
Zr20 O19_3 1_555 1_555
O34_3 Zr8 1_555 1_555
O40_3 Zr8 1_555 1_555
O41_3 Zr8 1_555 1_555
O44_3 Zr19 1_555 1_555
O45_3 Zr19 1_555 1_555
O48_3 Zr8 1_555 1_555
O17_3 Zr9 1_555 1_555
C32_3 C42_3 1_555 1_555
C38_3 C40_3 1_555 1_555
C40_3 C41_3 1_555 1_555
C45_3 C54_3 1_555 1_555
C46_3 C47_3 1_555 1_555
C50_3 C52_3 1_555 1_555
C52_3 C53_3 1_555 1_555
Zr13 O34_3 1_555 1_555
Zr4_3 O15_3 1_555 1_555
O15_3 Zr8_2 1_555 1_555
O20_3 Zr4_3 1_555 1_555
O21_3 Zr4_3 1_555 1_555
O22_3 Zr4_3 1_555 1_555
O23_3 Zr4_3 1_555 1_555
Zr8_2 O22_3 1_555 1_555
Zr13_2 O22_3 1_555 1_555
Zr17 O15_3 1_555 1_555
O38_3 Zr4_3 1_555 1_555
O46_3 Zr4_3 1_555 1_555
O23_3 Zr13_2 1_555 1_555
Zr17 O46_3 1_555 1_555
O16_4 C31_4 1_555 1_555
O17_4 C31_4 1_555 1_555
C29_4 C30_4 1_555 1_555
C31_4 C32_4 1_555 1_555
C32_4 C36_4 1_555 1_555
C36_4 H15_4 1_555 1_555
C42_4 C29_4 1_555 1_555
H20_4 C42_4 1_555 1_555
O39_3 C44_4 1_555 1_555
O42_2 C44_4 1_555 1_555
C44_4 C45_4 1_555 1_555
C45_4 C36_4 1_555 1_555
C54_4 C29_4 1_555 1_555
H26_4 C54_4 1_555 1_555
Zr14 O16_4 1_555 1_555
O34_4 Zr8_2 1_555 1_555
O40_4 Zr8_2 1_555 1_555
O41_4 Zr8_2 1_555 1_555
O48_4 Zr8_2 1_555 1_555
O17_4 Zr10 1_555 1_555
C32_4 C42_4 1_555 1_555
C45_4 C54_4 1_555 1_555
Zr13_2 O34_4 1_555 1_555
O7_4 Zr19_2 1_555 1_555
O19_4 C28_4 1_555 1_555
C28_4 O18_4 1_555 1_555
N2_4 C34_4 1_555 1_555
C34_4 C33_4 1_555 1_555
C35_4 C28_4 1_555 1_555
C37_4 C35_4 1_555 1_555
H16_4 C37_4 1_555 1_555
C38_4 C37_4 1_555 1_555
H17_4 C38_4 1_555 1_555
C39_4 C35_4 1_555 1_555
H18_4 C39_4 1_555 1_555
C40_4 C34_4 1_555 1_555
C41_4 C39_4 1_555 1_555
H19_4 C41_4 1_555 1_555
O26_4 C43_4 1_555 1_555
O27_4 Zr19_2 1_555 1_555
C43_4 O27_4 1_555 1_555
C47_4 N2_4 1_555 1_555
C48_4 C43_4 1_555 1_555
C49_4 C48_4 1_555 1_555
H22_4 C49_4 1_555 1_555
C50_4 C49_4 1_555 1_555
H23_4 C50_4 1_555 1_555
C51_4 C48_4 1_555 1_555
H24_4 C51_4 1_555 1_555
C52_4 C47_4 1_555 1_555
C53_4 C51_4 1_555 1_555
H25_4 C53_4 1_555 1_555
Zr12 O7_4 1_555 1_555
O28_4 Zr12 1_555 1_555
O29_4 Zr12 1_555 1_555
Zr18_2 O26_4 1_555 1_555
O30_4 Zr18_2 1_555 1_555
O31_4 Zr18_2 1_555 1_555
Zr13 O7_4 1_555 1_555
Zr20_2 O19_4 1_555 1_555
O34_3 Zr12 1_555 1_555
O36_4 Zr18_2 1_555 1_555
O43_4 Zr12 1_555 1_555
O44_4 Zr19_2 1_555 1_555
O45_4 Zr19_2 1_555 1_555
O48_3 Zr12 1_555 1_555
O50_4 Zr19_2 1_555 1_555
C38_4 C40_4 1_555 1_555
C40_4 C41_4 1_555 1_555
C46_4 C47_4 1_555 1_555
C50_4 C52_4 1_555 1_555
C52_4 C53_4 1_555 1_555
Zr12 O50_4 1_555 1_555
Zr18_2 O48_3 1_555 1_555
Zr18_2 O50_4 1_555 1_555
Zr4_4 O15_4 1_555 1_555
O15_4 Zr9 1_555 1_555
O20_4 Zr4_4 1_555 1_555
O21_4 Zr4_4 1_555 1_555
O22_4 Zr4_4 1_555 1_555
O23_4 Zr4_4 1_555 1_555
Zr9 O22_4 1_555 1_555
Zr13_3 O22_4 1_555 1_555
Zr17_2 O15_4 1_555 1_555
O38_4 Zr4_4 1_555 1_555
O46_4 Zr4_4 1_555 1_555
O23_4 Zr13_3 1_555 1_555
Zr17_2 O46_4 1_555 1_555
O34_5 Zr9 1_555 1_555
O40_5 Zr9 1_555 1_555
O41_5 Zr9 1_555 1_555
O44_5 Zr20 1_555 1_555
O45_5 Zr20 1_555 1_555
O48_5 Zr9 1_555 1_555
Zr13_3 O34_5 1_555 1_555
Zr12_2 O7_5 1_555 1_555
O28_5 Zr12_2 1_555 1_555
O29_5 Zr12_2 1_555 1_555
O30_5 Zr17 1_555 1_555
O31_5 Zr17 1_555 1_555
Zr13_2 O7_5 1_555 1_555
O34_4 Zr12_2 1_555 1_555
O36_5 Zr17 1_555 1_555
O48_4 Zr12_2 1_555 1_555
Zr12_2 O50_5 1_555 1_555
Zr17 O48_4 1_555 1_555
Zr17 O50_5 1_555 1_555
O40_6 Zr10 1_555 1_555
O41_6 Zr10 1_555 1_555
O44_6 Zr20_2 1_555 1_555
O45_6 Zr20_2 1_555 1_555
Zr11 O7_6 1_555 1_555
O28_6 Zr11 1_555 1_555
O29_6 Zr11 1_555 1_555
O30_6 Zr17_2 1_555 1_555
O31_6 Zr17_2 1_555 1_555
Zr13_3 O7_6 1_555 1_555
O34_5 Zr11 1_555 1_555
O36_6 Zr17_2 1_555 1_555
O48_5 Zr11 1_555 1_555
Zr11 O50_6 1_555 1_555
Zr17_2 O48_5 1_555 1_555
Zr17_2 O50_6 1_555 1_555
O30_7 Zr15 1_555 1_555
O31_7 Zr15 1_555 1_555
O36 C4_3 1_555 1_555
O40_6 C4_3 1_555 1_555
O44_2 C1_3 1_555 1_555
C1_3 O43_2 1_555 1_555
N1_3 C7_3 1_555 1_555
C2_3 C3_3 1_555 1_555
C3_3 C6_3 1_555 1_555
C4_3 C5_3 1_555 1_555
C5_3 C9_3 1_555 1_555
C6_3 H1_3 1_555 1_555
C7_3 C6_3 1_555 1_555
C8_3 C1_3 1_555 1_555
C9_3 H2_3 1_555 1_555
C10_3 C8_3 1_555 1_555
H3_3 C10_3 1_555 1_555
C11_3 C10_3 1_555 1_555
H4_3 C11_3 1_555 1_555
C12_3 C8_3 1_555 1_555
H5_3 C12_3 1_555 1_555
C13_3 C7_3 1_555 1_555
C14_3 C12_3 1_555 1_555
H6_3 C14_3 1_555 1_555
C15_3 C2_3 1_555 1_555
H7_3 C15_3 1_555 1_555
O38_3 C17_3 1_555 1_555
O41_4 C17_3 1_555 1_555
O13_3 C16_3 1_555 1_555
O45_4 C16_3 1_555 1_555
C16_3 C21_3 1_555 1_555
C17_3 C18_3 1_555 1_555
C18_3 C9_3 1_555 1_555
C19_3 C3_3 1_555 1_555
H8_3 C19_3 1_555 1_555
C20_3 N1_3 1_555 1_555
C21_3 C22_3 1_555 1_555
C22_3 H9_3 1_555 1_555
C23_3 C22_3 1_555 1_555
H10_3 C23_3 1_555 1_555
C24_3 C21_3 1_555 1_555
H11_3 C24_3 1_555 1_555
C25_3 C20_3 1_555 1_555
C26_3 C24_3 1_555 1_555
H12_3 C26_3 1_555 1_555
C27_3 C2_3 1_555 1_555
H13_3 C27_3 1_555 1_555
O36_5 C31_5 1_555 1_555
O40_4 C31_5 1_555 1_555
O44_6 C28_5 1_555 1_555
C28_5 O43_6 1_555 1_555
N2_5 C34_5 1_555 1_555
C29_5 C30_5 1_555 1_555
C30_5 C33_5 1_555 1_555
C31_5 C32_5 1_555 1_555
C32_5 C36_5 1_555 1_555
C33_5 H14_5 1_555 1_555
C34_5 C33_5 1_555 1_555
C35_5 C28_5 1_555 1_555
C36_5 H15_5 1_555 1_555
C37_5 C35_5 1_555 1_555
H16_5 C37_5 1_555 1_555
C38_5 C37_5 1_555 1_555
H17_5 C38_5 1_555 1_555
C39_5 C35_5 1_555 1_555
H18_5 C39_5 1_555 1_555
C40_5 C34_5 1_555 1_555
C41_5 C39_5 1_555 1_555
H19_5 C41_5 1_555 1_555
C42_5 C29_5 1_555 1_555
H20_5 C42_5 1_555 1_555
O38 C44_5 1_555 1_555
O41_2 C44_5 1_555 1_555
O26_5 C43_5 1_555 1_555
C43_5 O45_2 1_555 1_555
C44_5 C45_5 1_555 1_555
C45_5 C36_5 1_555 1_555
C46_5 C30_5 1_555 1_555
H21_5 C46_5 1_555 1_555
C47_5 N2_5 1_555 1_555
C48_5 C43_5 1_555 1_555
C49_5 C48_5 1_555 1_555
H22_5 C49_5 1_555 1_555
C50_5 C49_5 1_555 1_555
H23_5 C50_5 1_555 1_555
C51_5 C48_5 1_555 1_555
H24_5 C51_5 1_555 1_555
C52_5 C47_5 1_555 1_555
C53_5 C51_5 1_555 1_555
H25_5 C53_5 1_555 1_555
C54_5 C29_5 1_555 1_555
H26_5 C54_5 1_555 1_555
Zr13 O13_3 1_555 1_555
C5_3 C15_3 1_555 1_555
C11_3 C13_3 1_555 1_555
C13_3 C14_3 1_555 1_555
C18_3 C27_3 1_555 1_555
C19_3 C20_3 1_555 1_555
C23_3 C25_3 1_555 1_555
C25_3 C26_3 1_555 1_555
C32_5 C42_5 1_555 1_555
C38_5 C40_5 1_555 1_555
C40_5 C41_5 1_555 1_555
C45_5 C54_5 1_555 1_555
C46_5 C47_5 1_555 1_555
C50_5 C52_5 1_555 1_555
C52_5 C53_5 1_555 1_555
O36_3 C31_6 1_555 1_555
O40_2 C31_6 1_555 1_555
O44_4 C28_6 1_555 1_555
C28_6 O43_4 1_555 1_555
N2_6 C34_6 1_555 1_555
C29_6 C30_6 1_555 1_555
C30_6 C33_6 1_555 1_555
C31_6 C32_6 1_555 1_555
C32_6 C36_6 1_555 1_555
C33_6 H14_6 1_555 1_555
C34_6 C33_6 1_555 1_555
C35_6 C28_6 1_555 1_555
C36_6 H15_6 1_555 1_555
C37_6 C35_6 1_555 1_555
H16_6 C37_6 1_555 1_555
C38_6 C37_6 1_555 1_555
H17_6 C38_6 1_555 1_555
C39_6 C35_6 1_555 1_555
H18_6 C39_6 1_555 1_555
C40_6 C34_6 1_555 1_555
C41_6 C39_6 1_555 1_555
H19_6 C41_6 1_555 1_555
C42_6 C29_6 1_555 1_555
H20_6 C42_6 1_555 1_555
O37 C44_6 1_555 1_555
O41_6 C44_6 1_555 1_555
O26_6 C43_6 1_555 1_555
C43_6 O45_6 1_555 1_555
C44_6 C45_6 1_555 1_555
C45_6 C36_6 1_555 1_555
C46_6 C30_6 1_555 1_555
H21_6 C46_6 1_555 1_555
C47_6 N2_6 1_555 1_555
C48_6 C43_6 1_555 1_555
C49_6 C48_6 1_555 1_555
H22_6 C49_6 1_555 1_555
C50_6 C49_6 1_555 1_555
H23_6 C50_6 1_555 1_555
C51_6 C48_6 1_555 1_555
H24_6 C51_6 1_555 1_555
C52_6 C47_6 1_555 1_555
C53_6 C51_6 1_555 1_555
H25_6 C53_6 1_555 1_555
C54_6 C29_6 1_555 1_555
H26_6 C54_6 1_555 1_555
C32_6 C42_6 1_555 1_555
C38_6 C40_6 1_555 1_555
C40_6 C41_6 1_555 1_555
C45_6 C54_6 1_555 1_555
C46_6 C47_6 1_555 1_555
C50_6 C52_6 1_555 1_555
C52_6 C53_6 1_555 1_555
O30_8 Zr13_3 1_555 1_555
O31_8 Zr13_3 1_555 1_555
O30_9 Zr13 1_555 1_555
O31_9 Zr13 1_555 1_555
O44 C1_4 1_555 1_555
C1_4 O43 1_555 1_555
N1_4 C7_4 1_555 1_555
C7_4 C6_4 1_555 1_555
C8_4 C1_4 1_555 1_555
C10_4 C8_4 1_555 1_555
H3_4 C10_4 1_555 1_555
C11_4 C10_4 1_555 1_555
H4_4 C11_4 1_555 1_555
C12_4 C8_4 1_555 1_555
H5_4 C12_4 1_555 1_555
C13_4 C7_4 1_555 1_555
C14_4 C12_4 1_555 1_555
H6_4 C14_4 1_555 1_555
O13_4 C16_4 1_555 1_555
O45_3 C16_4 1_555 1_555
C16_4 C21_4 1_555 1_555
C20_4 N1_4 1_555 1_555
C21_4 C22_4 1_555 1_555
C22_4 H9_4 1_555 1_555
C23_4 C22_4 1_555 1_555
H10_4 C23_4 1_555 1_555
C24_4 C21_4 1_555 1_555
H11_4 C24_4 1_555 1_555
C25_4 C20_4 1_555 1_555
C26_4 C24_4 1_555 1_555
H12_4 C26_4 1_555 1_555
O44_5 C28_7 1_555 1_555
C28_7 O43_5 1_555 1_555
N2_7 C34_7 1_555 1_555
C34_7 C33_7 1_555 1_555
C35_7 C28_7 1_555 1_555
C37_7 C35_7 1_555 1_555
H16_7 C37_7 1_555 1_555
C38_7 C37_7 1_555 1_555
H17_7 C38_7 1_555 1_555
C39_7 C35_7 1_555 1_555
H18_7 C39_7 1_555 1_555
C40_7 C34_7 1_555 1_555
C41_7 C39_7 1_555 1_555
H19_7 C41_7 1_555 1_555
O26_7 C43_7 1_555 1_555
C43_7 O45 1_555 1_555
C47_7 N2_7 1_555 1_555
C48_7 C43_7 1_555 1_555
C49_7 C48_7 1_555 1_555
H22_7 C49_7 1_555 1_555
C50_7 C49_7 1_555 1_555
H23_7 C50_7 1_555 1_555
C51_7 C48_7 1_555 1_555
H24_7 C51_7 1_555 1_555
C52_7 C47_7 1_555 1_555
C53_7 C51_7 1_555 1_555
H25_7 C53_7 1_555 1_555
Zr14 O26_7 1_555 1_555
O30_10 Zr14 1_555 1_555
O31_10 Zr14 1_555 1_555
C11_4 C13_4 1_555 1_555
C13_4 C14_4 1_555 1_555
C19_4 C20_4 1_555 1_555
C23_4 C25_4 1_555 1_555
C25_4 C26_4 1_555 1_555
C38_7 C40_7 1_555 1_555
C40_7 C41_7 1_555 1_555
C46_7 C47_7 1_555 1_555
C50_7 C52_7 1_555 1_555
C52_7 C53_7 1_555 1_555
O36_6 C4_4 1_555 1_555
O40_5 C4_4 1_555 1_555
C2_4 C3_4 1_555 1_555
C4_4 C5_4 1_555 1_555
C5_4 C9_4 1_555 1_555
C9_4 H2_4 1_555 1_555
C15_4 C2_4 1_555 1_555
H7_4 C15_4 1_555 1_555
O38_2 C17_4 1_555 1_555
O41_3 C17_4 1_555 1_555
C17_4 C18_4 1_555 1_555
C18_4 C9_4 1_555 1_555
C27_4 C2_4 1_555 1_555
H13_4 C27_4 1_555 1_555
O36_4 C31_7 1_555 1_555
O40_3 C31_7 1_555 1_555
C29_7 C30_7 1_555 1_555
C31_7 C32_7 1_555 1_555
C32_7 C36_7 1_555 1_555
C36_7 H15_7 1_555 1_555
C42_7 C29_7 1_555 1_555
H20_7 C42_7 1_555 1_555
O37_2 C44_7 1_555 1_555
O41 C44_7 1_555 1_555
C44_7 C45_7 1_555 1_555
C45_7 C36_7 1_555 1_555
C54_7 C29_7 1_555 1_555
H26_7 C54_7 1_555 1_555
C5_4 C15_4 1_555 1_555
C18_4 C27_4 1_555 1_555
C32_7 C42_7 1_555 1_555
C45_7 C54_7 1_555 1_555
O44_3 C28_8 1_555 1_555
C28_8 O43_3 1_555 1_555
N2_8 C34_8 1_555 1_555
C34_8 C33_8 1_555 1_555
C35_8 C28_8 1_555 1_555
C37_8 C35_8 1_555 1_555
H16_8 C37_8 1_555 1_555
C38_8 C37_8 1_555 1_555
H17_8 C38_8 1_555 1_555
C39_8 C35_8 1_555 1_555
H18_8 C39_8 1_555 1_555
C40_8 C34_8 1_555 1_555
C41_8 C39_8 1_555 1_555
H19_8 C41_8 1_555 1_555
O26_8 C43_8 1_555 1_555
C43_8 O45_5 1_555 1_555
C47_8 N2_8 1_555 1_555
C48_8 C43_8 1_555 1_555
C49_8 C48_8 1_555 1_555
H22_8 C49_8 1_555 1_555
C50_8 C49_8 1_555 1_555
H23_8 C50_8 1_555 1_555
C51_8 C48_8 1_555 1_555
H24_8 C51_8 1_555 1_555
C52_8 C47_8 1_555 1_555
C53_8 C51_8 1_555 1_555
H25_8 C53_8 1_555 1_555
C38_8 C40_8 1_555 1_555
C40_8 C41_8 1_555 1_555
C46_8 C47_8 1_555 1_555
C50_8 C52_8 1_555 1_555
C52_8 C53_8 1_555 1_555
O36_2 C31_8 1_555 1_555
O40 C31_8 1_555 1_555
C29_8 C30_8 1_555 1_555
C31_8 C32_8 1_555 1_555
C32_8 C36_8 1_555 1_555
C36_8 H15_8 1_555 1_555
C42_8 C29_8 1_555 1_555
H20_8 C42_8 1_555 1_555
O38_4 C44_8 1_555 1_555
O41_5 C44_8 1_555 1_555
C44_8 C45_8 1_555 1_555
C45_8 C36_8 1_555 1_555
C54_8 C29_8 1_555 1_555
H26_8 C54_8 1_555 1_555
C32_8 C42_8 1_555 1_555
C45_8 C54_8 1_555 1_555
O30_11 Zr13_2 1_555 1_555
O31_11 Zr13_2 1_555 1_555
O30_12 Zr16 1_555 1_555
O31_12 Zr16 1_555 1_555

#END
