
###############################################################################
#
# This file contains modified crystal structure data generated from the
# MOF subset of the Cambridge Structural Database (CSD) v543 
# hosted by the Cambridge Crystallographic Data Centre (CCDC).
#
# This work is licensed under the Creative Commons
# Attribution-NonCommercial-ShareAlike 4.0 International License.
# To view a copy of this license, visit
# http://creativecommons.org/licenses/by-nc-sa/4.0/
# or send a letter to
# Creative Commons, PO Box 1866, Mountain View, CA 94042, USA.
#
# CIF created using the CSD Python API on 29 September 2022
# The structure has been converted into the P1 space group
# The structure has a 3D framework
# The original CSD entry HAPGIR is in the monoclinic crystal system
# The framework has been calculated to contain at least 10.0% void space
# The void calculation uses a probe of radius 1.32A, grid spacing 0.4
#
###############################################################################

data_HAPGIR
_chemical_formula_moiety         '(C60 H48 Mn14 N24 O33)n'
_symmetry_cell_setting           triclinic
_symmetry_space_group_name_H-M   'P 1'
_symmetry_Int_Tables_number      1
_space_group_name_Hall           'P 1'
loop_
_symmetry_equiv_pos_site_id
_symmetry_equiv_pos_as_xyz
1 x,y,z
_cell_length_a                   14.208(3)
_cell_length_b                   14.095(2)
_cell_length_c                   15.117(3)
_cell_angle_alpha                90
_cell_angle_beta                 105.310(4)
_cell_angle_gamma                90
_cell_volume                     2919.92
loop_
_atom_site_label
_atom_site_type_symbol
_atom_site_fract_x
_atom_site_fract_y
_atom_site_fract_z
Mn4 Mn -0.0000 0.0000 0.0000
Mn4_2 Mn -0.0000 -0.0000 1.0000
N13 N 0.0506(3) 0.0761(3) 0.8898(3)
Mn4_3 Mn -0.0000 1.0000 0.0000
O4 O 0.1627(3) 0.6353(2) 0.4120(2)
O5 O 0.0128(2) 0.6339(2) 0.4356(2)
C10 C 0.0924(4) 0.8367(4) 0.2097(4)
H9 H 0.1408 0.8612 0.1830
C11 C 0.1153(4) 0.7725(4) 0.2806(4)
H10 H 0.1808 0.7514 0.3025
C12 C 0.0437(4) 0.7367(3) 0.3221(3)
C14 C 0.0753(3) 0.6630(3) 0.3960(3)
Mn11 Mn 0.24797(5) 0.52415(5) 0.48343(5)
Mn15 Mn 0.0000 0.5000 0.5000
O19 O 0.1591(2) 0.9978(2) 0.0771(2)
Mn4_4 Mn -0.0000 1.0000 1.0000
O23 O 0.0128(2) 0.8661(2) 0.9356(2)
Mn1 Mn 0.5000 0.0000 0.0000
Mn3 Mn 0.75203(5) 0.02415(5) 0.01657(5)
Mn4_5 Mn 1.0000 0.0000 0.0000
H13 H 0.356(4) 0.106(3) 0.019(2)
O12 O 0.2744(3) 0.1024(3) 0.1397(3)
C30 C 0.1980(4) 0.0606(3) 0.1373(3)
H24 H 0.1655 0.0757 0.1829
O20 O 0.8373(3) 0.1353(2) 0.0880(2)
O22 O 0.9872(2) 0.1339(2) 0.0644(2)
O24 O 0.5508(3) 0.0784(2) 0.1246(2)
Mn1_2 Mn 0.5000 -0.0000 1.0000
Mn4_6 Mn 1.0000 -0.0000 1.0000
O2 O 0.8409(2) 0.0022(2) 0.9229(2)
Mn5 Mn 0.33025(5) 0.14504(5) 0.84044(5)
O10 O 0.3589(2) 0.0728(2) 0.9729(2)
O15 O 0.5508(3) 0.4216(2) 0.6246(2)
O16 O 0.6676(3) 0.5083(2) 0.7215(2)
O17 O 0.3333(3) 0.2872(3) 0.8993(3)
H14 H 0.284(3) 0.323(4) 0.879(4)
H15 H 0.346(4) 0.294(5) 0.9566(9)
O18 O 0.2962(3) 0.2129(3) 0.7046(2)
H16 H 0.294(5) 0.2725(9) 0.695(4)
H17 H 0.315(4) 0.191(3) 0.659(3)
C16 C 0.5598(3) 0.2302(3) 0.8368(3)
C17 C 0.6535(3) 0.2093(3) 0.8911(3)
C18 C 0.7344(4) 0.2654(4) 0.8894(4)
H18 H 0.7978 0.2518 0.9272
C19 C 0.7176(4) 0.3408(4) 0.8305(4)
H19 H 0.7699 0.3825 0.8297
C20 C 0.6236(4) 0.3586(3) 0.7702(3)
C21 C 0.5434(3) 0.3044(3) 0.7729(3)
H20 H 0.4805 0.3167 0.7336
C22 C 0.6133(4) 0.4364(3) 0.7000(3)
C23 C 0.0774(3) 0.1715(3) 0.7814(3)
C24 C 0.0054(3) 0.1357(3) 0.8213(3)
C28 C 0.0533(4) 0.2361(3) 0.7078(3)
H23 H 0.1012 0.2599 0.6801
N7 N 0.6463(3) 0.1305(3) 0.9419(3)
N8 N 0.5519(3) 0.1082(3) 0.9203(3)
N9 N 0.4966(3) 0.1655(3) 0.8585(3)
N10 N 0.1649(3) 0.1326(3) 0.8284(3)
N11 N 0.1452(3) 0.0758(3) 0.8913(3)
Mn8 Mn 0.5000 0.5000 0.5000
Mn10 Mn 0.66975(5) 0.64504(5) 0.65956(5)
O27 O 0.3324(3) 0.0083(2) 0.7785(2)
Mn1_3 Mn 0.5000 1.0000 0.0000
Mn2 Mn 0.66975(5) 0.85496(5) 0.15956(5)
Mn4_7 Mn 1.0000 1.0000 0.0000
O1 O 0.6411(2) 0.9272(2) 0.0271(2)
O6 O 0.4492(3) 0.5784(2) 0.3754(2)
O7 O 0.3324(3) 0.4917(2) 0.2785(2)
O8 O 0.6667(3) 0.7128(3) 0.1007(3)
H2 H 0.716(3) 0.677(4) 0.121(4)
H3 H 0.654(4) 0.706(5) 0.0434(9)
O9 O 0.7038(3) 0.7871(3) 0.2954(2)
H4 H 0.706(5) 0.7275(9) 0.305(4)
H5 H 0.685(4) 0.809(3) 0.341(3)
C1 C 0.4402(3) 0.7698(3) 0.1632(3)
C2 C 0.3465(3) 0.7907(3) 0.1089(3)
C3 C 0.2656(4) 0.7346(4) 0.1106(4)
H6 H 0.2022 0.7482 0.0728
C4 C 0.2824(4) 0.6592(4) 0.1695(4)
H7 H 0.2301 0.6175 0.1703
C5 C 0.3764(4) 0.6414(3) 0.2298(3)
C6 C 0.4566(3) 0.6956(3) 0.2271(3)
H8 H 0.5195 0.6833 0.2664
C7 C 0.3867(4) 0.5636(3) 0.3000(3)
C8 C 0.9226(3) 0.8285(3) 0.2186(3)
C9 C 0.9946(3) 0.8643(3) 0.1787(3)
C13 C 0.9467(4) 0.7639(3) 0.2922(3)
H11 H 0.8988 0.7401 0.3199
N1 N 0.3537(3) 0.8695(3) 0.0581(3)
N2 N 0.4481(3) 0.8918(3) 0.0797(3)
N3 N 0.5034(3) 0.8345(3) 0.1415(3)
N4 N 0.8351(3) 0.8674(3) 0.1716(3)
N5 N 0.8548(3) 0.9242(3) 0.1087(3)
N6 N 0.9494(3) 0.9239(3) 0.1102(3)
Mn9 Mn 0.33025(5) 0.35496(5) 0.34044(5)
Mn15_2 Mn 1.0000 0.5000 0.5000
O26 O 0.6676(3) 0.9917(2) 0.2215(2)
Mn1_4 Mn 0.5000 1.0000 1.0000
Mn4_8 Mn 1.0000 1.0000 1.0000
H1 H 0.644(4) 0.894(3) 0.981(2)
O3 O 0.7256(3) 0.8976(3) 0.8603(3)
C15 C 0.8020(4) 0.9394(3) 0.8627(3)
H12 H 0.8345 0.9243 0.8171
Mn6 Mn 0.24797(5) 0.97585(5) 0.98343(5)
O21 O 0.1627(3) 0.8647(2) 0.9120(2)
O25 O 0.4492(3) 0.9216(2) 0.8754(2)
O13 O 0.8373(3) 0.3647(2) 0.5880(2)
O14 O 0.9872(2) 0.3661(2) 0.5644(2)
C25 C 0.9076(4) 0.1633(4) 0.7903(4)
H21 H 0.8592 0.1388 0.8170
C26 C 0.8847(4) 0.2275(4) 0.7194(4)
H22 H 0.8192 0.2486 0.6975
C27 C 0.9563(4) 0.2633(3) 0.6779(3)
C29 C 0.9247(3) 0.3370(3) 0.6040(3)
Mn12 Mn 0.75203(5) 0.47585(5) 0.51657(5)
C25_2 C 0.0924(4) 0.6633(4) 0.7097(4)
H21_2 H 0.1408 0.6388 0.6830
C26_2 C 0.1153(4) 0.7275(4) 0.7806(4)
H22_2 H 0.1808 0.7486 0.8025
C27_2 C 0.0437(4) 0.7633(3) 0.8221(3)
C29_2 C 0.0753(3) 0.8370(3) 0.8960(3)
O1_2 O 0.3589(2) 0.4272(2) 0.4729(2)
H1_2 H 0.356(4) 0.394(3) 0.519(2)
O2_2 O 0.1591(2) 0.5022(2) 0.5771(2)
O3_2 O 0.2744(3) 0.3976(3) 0.6397(3)
O8_2 O 0.3333(3) 0.2128(3) 0.3993(3)
H2_2 H 0.284(3) 0.177(4) 0.379(4)
H3_2 H 0.346(4) 0.206(5) 0.4566(9)
O9_2 O 0.2962(3) 0.2871(3) 0.2046(2)
H4_2 H 0.294(5) 0.2275(9) 0.195(4)
H5_2 H 0.315(4) 0.309(3) 0.159(3)
C1_2 C 0.5598(3) 0.2698(3) 0.3368(3)
C2_2 C 0.6535(3) 0.2907(3) 0.3911(3)
C3_2 C 0.7344(4) 0.2346(4) 0.3894(4)
H6_2 H 0.7978 0.2482 0.4272
C4_2 C 0.7176(4) 0.1592(4) 0.3305(4)
H7_2 H 0.7699 0.1175 0.3297
C5_2 C 0.6236(4) 0.1414(3) 0.2702(3)
C6_2 C 0.5434(3) 0.1956(3) 0.2729(3)
H8_2 H 0.4805 0.1833 0.2336
C7_2 C 0.6133(4) 0.0636(3) 0.2000(3)
C8_2 C 0.0774(3) 0.3285(3) 0.2814(3)
C9_2 C 0.0054(3) 0.3643(3) 0.3213(3)
C13_2 C 0.0533(4) 0.2639(3) 0.2078(3)
H11_2 H 0.1012 0.2401 0.1801
C15_2 C 0.1980(4) 0.4394(3) 0.6373(3)
H12_2 H 0.1655 0.4243 0.6829
N1_2 N 0.6463(3) 0.3695(3) 0.4419(3)
N2_2 N 0.5519(3) 0.3918(3) 0.4203(3)
N3_2 N 0.4966(3) 0.3345(3) 0.3585(3)
N4_2 N 0.1649(3) 0.3674(3) 0.3284(3)
N5_2 N 0.1452(3) 0.4242(3) 0.3913(3)
N6_2 N 0.0506(3) 0.4239(3) 0.3898(3)
O10_2 O 0.6411(2) 0.5728(2) 0.5271(2)
H13_2 H 0.644(4) 0.606(3) 0.481(2)
O11 O 0.8409(2) 0.4978(2) 0.4229(2)
O12_2 O 0.7256(3) 0.6024(3) 0.3603(3)
O17_2 O 0.6667(3) 0.7872(3) 0.6007(3)
H14_2 H 0.716(3) 0.823(4) 0.621(4)
H15_2 H 0.654(4) 0.794(5) 0.5434(9)
O18_2 O 0.7038(3) 0.7129(3) 0.7954(2)
H16_2 H 0.706(5) 0.7725(9) 0.805(4)
H17_2 H 0.685(4) 0.691(3) 0.841(3)
C16_2 C 0.4402(3) 0.7302(3) 0.6632(3)
C17_2 C 0.3465(3) 0.7093(3) 0.6089(3)
C18_2 C 0.2656(4) 0.7654(4) 0.6106(4)
H18_2 H 0.2022 0.7518 0.5728
C19_2 C 0.2824(4) 0.8408(4) 0.6695(4)
H19_2 H 0.2301 0.8825 0.6703
C20_2 C 0.3764(4) 0.8586(3) 0.7298(3)
C21_2 C 0.4566(3) 0.8044(3) 0.7271(3)
H20_2 H 0.5195 0.8167 0.7664
C22_2 C 0.3867(4) 0.9364(3) 0.8000(3)
C23_2 C 0.9226(3) 0.6715(3) 0.7186(3)
C24_2 C 0.9946(3) 0.6357(3) 0.6787(3)
C28_2 C 0.9467(4) 0.7361(3) 0.7922(3)
H23_2 H 0.8988 0.7599 0.8199
C30_2 C 0.8020(4) 0.5606(3) 0.3627(3)
H24_2 H 0.8345 0.5757 0.3171
N7_2 N 0.3537(3) 0.6305(3) 0.5581(3)
N8_2 N 0.4481(3) 0.6082(3) 0.5797(3)
N9_2 N 0.5034(3) 0.6655(3) 0.6415(3)
N10_2 N 0.8351(3) 0.6326(3) 0.6716(3)
N11_2 N 0.8548(3) 0.5758(3) 0.6087(3)
N12 N 0.9494(3) 0.5761(3) 0.6102(3)
C10_2 C 0.9076(4) 0.3367(4) 0.2903(4)
H9_2 H 0.8592 0.3612 0.3170
C11_2 C 0.8847(4) 0.2725(4) 0.2194(4)
H10_2 H 0.8192 0.2514 0.1975
C12_2 C 0.9563(4) 0.2367(3) 0.1779(3)
C14_2 C 0.9247(3) 0.1630(3) 0.1040(3)
loop_
_geom_bond_atom_site_label_1
_geom_bond_atom_site_label_2
_geom_bond_site_symmetry_1
_geom_bond_site_symmetry_2
N13 Mn4_2 1_555 1_555
O4 C14 1_555 1_555
O5 C14 1_555 1_555
C10 H9 1_555 1_555
C11 C10 1_555 1_555
H10 C11 1_555 1_555
C12 C11 1_555 1_555
C14 C12 1_555 1_555
Mn11 O4 1_555 1_555
Mn15 O5 1_555 1_555
O19 Mn4_3 1_555 1_555
O23 Mn4_4 1_555 1_555
O12 C30 1_555 1_555
H24 C30 1_555 1_555
O20 Mn3 1_555 1_555
O22 Mn4_5 1_555 1_555
O24 Mn1 1_555 1_555
Mn4_6 O2 1_555 1_555
Mn5 O10 1_555 1_555
O10 Mn1_2 1_555 1_555
O15 C22 1_555 1_555
O16 C22 1_555 1_555
O17 Mn5 1_555 1_555
H14 O17 1_555 1_555
H15 O17 1_555 1_555
O18 Mn5 1_555 1_555
H16 O18 1_555 1_555
H17 O18 1_555 1_555
C16 C17 1_555 1_555
C17 C18 1_555 1_555
C18 H18 1_555 1_555
C19 C18 1_555 1_555
H19 C19 1_555 1_555
C20 C19 1_555 1_555
C21 C16 1_555 1_555
H20 C21 1_555 1_555
C22 C20 1_555 1_555
C23 C24 1_555 1_555
C28 C23 1_555 1_555
H23 C28 1_555 1_555
N8 Mn1_2 1_555 1_555
N9 Mn5 1_555 1_555
N10 Mn5 1_555 1_555
N13 C24 1_555 1_555
Mn8 O15 1_555 1_555
Mn10 O16 1_555 1_555
O27 Mn5 1_555 1_555
C16 N9 1_555 1_555
C17 N7 1_555 1_555
C20 C21 1_555 1_555
C23 N10 1_555 1_555
N7 N8 1_555 1_555
N8 N9 1_555 1_555
N10 N11 1_555 1_555
N11 N13 1_555 1_555
Mn1_3 O1 1_555 1_555
Mn2 O1 1_555 1_555
O6 C7 1_555 1_555
O7 C7 1_555 1_555
O8 Mn2 1_555 1_555
H2 O8 1_555 1_555
H3 O8 1_555 1_555
O9 Mn2 1_555 1_555
H4 O9 1_555 1_555
H5 O9 1_555 1_555
C1 C2 1_555 1_555
C2 C3 1_555 1_555
C3 H6 1_555 1_555
C4 C3 1_555 1_555
H7 C4 1_555 1_555
C5 C4 1_555 1_555
C6 C1 1_555 1_555
H8 C6 1_555 1_555
C7 C5 1_555 1_555
C8 C9 1_555 1_555
C13 C8 1_555 1_555
H11 C13 1_555 1_555
N1 C2 1_555 1_555
N2 Mn1_3 1_555 1_555
N3 Mn2 1_555 1_555
N4 Mn2 1_555 1_555
N6 Mn4_7 1_555 1_555
Mn8 O6 1_555 1_555
Mn9 O7 1_555 1_555
O26 Mn2 1_555 1_555
C1 N3 1_555 1_555
C5 C6 1_555 1_555
C8 N4 1_555 1_555
C9 N6 1_555 1_555
N1 N2 1_555 1_555
N2 N3 1_555 1_555
N4 N5 1_555 1_555
N5 N6 1_555 1_555
O3 C15 1_555 1_555
H12 C15 1_555 1_555
O21 Mn6 1_555 1_555
O25 Mn1_4 1_555 1_555
O13 C29 1_555 1_555
O14 C29 1_555 1_555
C25 H21 1_555 1_555
C26 C25 1_555 1_555
H22 C26 1_555 1_555
C27 C26 1_555 1_555
C29 C27 1_555 1_555
Mn12 O13 1_555 1_555
Mn15_2 O14 1_555 1_555
O21 C29_2 1_555 1_555
O23 C29_2 1_555 1_555
C25_2 H21_2 1_555 1_555
C26_2 C25_2 1_555 1_555
H22_2 C26_2 1_555 1_555
C27_2 C26_2 1_555 1_555
C29_2 C27_2 1_555 1_555
Mn8 O1_2 1_555 1_555
Mn9 O1_2 1_555 1_555
Mn11 O1_2 1_555 1_555
Mn15 O2_2 1_555 1_555
O1_2 H1_2 1_555 1_555
O2_2 Mn11 1_555 1_555
O3_2 C15_2 1_555 1_555
O24 C7_2 1_555 1_555
O8_2 Mn9 1_555 1_555
H2_2 O8_2 1_555 1_555
H3_2 O8_2 1_555 1_555
O9_2 Mn9 1_555 1_555
H4_2 O9_2 1_555 1_555
H5_2 O9_2 1_555 1_555
C1_2 C2_2 1_555 1_555
C2_2 C3_2 1_555 1_555
C3_2 H6_2 1_555 1_555
C4_2 C3_2 1_555 1_555
H7_2 C4_2 1_555 1_555
C5_2 C4_2 1_555 1_555
C6_2 C1_2 1_555 1_555
H8_2 C6_2 1_555 1_555
C7_2 C5_2 1_555 1_555
C8_2 C9_2 1_555 1_555
C13_2 C8_2 1_555 1_555
H11_2 C13_2 1_555 1_555
C15_2 O2_2 1_555 1_555
H12_2 C15_2 1_555 1_555
N1_2 C2_2 1_555 1_555
N2_2 Mn8 1_555 1_555
N3_2 Mn9 1_555 1_555
N4_2 Mn9 1_555 1_555
N5_2 Mn11 1_555 1_555
N6_2 Mn15 1_555 1_555
Mn10 O10_2 1_555 1_555
Mn12 N1_2 1_555 1_555
O10_2 Mn8 1_555 1_555
H13_2 O10_2 1_555 1_555
O11 Mn12 1_555 1_555
O12_2 C30_2 1_555 1_555
O25 C22_2 1_555 1_555
O17_2 Mn10 1_555 1_555
H14_2 O17_2 1_555 1_555
H15_2 O17_2 1_555 1_555
O18_2 Mn10 1_555 1_555
H16_2 O18_2 1_555 1_555
H17_2 O18_2 1_555 1_555
C16_2 C17_2 1_555 1_555
C17_2 C18_2 1_555 1_555
C18_2 H18_2 1_555 1_555
C19_2 C18_2 1_555 1_555
H19_2 C19_2 1_555 1_555
C20_2 C19_2 1_555 1_555
C21_2 C16_2 1_555 1_555
H20_2 C21_2 1_555 1_555
C22_2 C20_2 1_555 1_555
C23_2 C24_2 1_555 1_555
C28_2 C23_2 1_555 1_555
H23_2 C28_2 1_555 1_555
C30_2 O11 1_555 1_555
H24_2 C30_2 1_555 1_555
N7_2 Mn11 1_555 1_555
N8_2 Mn8 1_555 1_555
N9_2 Mn10 1_555 1_555
N10_2 Mn10 1_555 1_555
N11_2 Mn12 1_555 1_555
N12 C24_2 1_555 1_555
Mn15_2 O11 1_555 1_555
C1_2 N3_2 1_555 1_555
C5_2 C6_2 1_555 1_555
C8_2 N4_2 1_555 1_555
C9_2 N6_2 1_555 1_555
N1_2 N2_2 1_555 1_555
N2_2 N3_2 1_555 1_555
N4_2 N5_2 1_555 1_555
N5_2 N6_2 1_555 1_555
Mn12 O10_2 1_555 1_555
C16_2 N9_2 1_555 1_555
C17_2 N7_2 1_555 1_555
C20_2 C21_2 1_555 1_555
C23_2 N10_2 1_555 1_555
N7_2 N8_2 1_555 1_555
N8_2 N9_2 1_555 1_555
N10_2 N11_2 1_555 1_555
N11_2 N12 1_555 1_555
N12 Mn15_2 1_555 1_555
O20 C14_2 1_555 1_555
O22 C14_2 1_555 1_555
C10_2 H9_2 1_555 1_555
C11_2 C10_2 1_555 1_555
H10_2 C11_2 1_555 1_555
C12_2 C11_2 1_555 1_555
C14_2 C12_2 1_555 1_555

#END
