
###############################################################################
#
# This file contains modified crystal structure data generated from the
# MOF subset of the Cambridge Structural Database (CSD) v543 
# hosted by the Cambridge Crystallographic Data Centre (CCDC).
#
# This work is licensed under the Creative Commons
# Attribution-NonCommercial-ShareAlike 4.0 International License.
# To view a copy of this license, visit
# http://creativecommons.org/licenses/by-nc-sa/4.0/
# or send a letter to
# Creative Commons, PO Box 1866, Mountain View, CA 94042, USA.
#
# CIF created using the CSD Python API on 29 September 2022
# The structure has been converted into the P1 space group
# The structure has a 3D framework
# The original CSD entry HAPHUD is in the monoclinic crystal system
# The framework has been calculated to contain at least 10.0% void space
# The void calculation uses a probe of radius 1.32A, grid spacing 0.4
#
###############################################################################

data_HAPHUD
_chemical_formula_moiety         '(C148 H96 N24 O36 Zn8)n'
_symmetry_cell_setting           triclinic
_symmetry_space_group_name_H-M   'P 1'
_symmetry_Int_Tables_number      1
_space_group_name_Hall           'P 1'
loop_
_symmetry_equiv_pos_site_id
_symmetry_equiv_pos_as_xyz
1 x,y,z
_cell_length_a                   11.3815(4)
_cell_length_b                   20.0676(7)
_cell_length_c                   29.4371(11)
_cell_angle_alpha                90
_cell_angle_beta                 98.782(2)
_cell_angle_gamma                90
_cell_volume                     6644.59
loop_
_atom_site_label
_atom_site_type_symbol
_atom_site_fract_x
_atom_site_fract_y
_atom_site_fract_z
N4 N 0.2694(7) 0.0768(4) 0.4471(3)
N6 N 0.2887(7) 0.4241(4) 0.5428(3)
C23 C 0.0204(10) 0.0778(6) 0.4490(4)
C24 C 0.0988(11) 0.1222(7) 0.4750(5)
H13 H 0.0685 0.1545 0.4938
C25 C 0.2175(10) 0.1197(6) 0.4736(4)
H14 H 0.2674 0.1500 0.4924
C26 C 0.1941(11) 0.0345(6) 0.4217(4)
H15 H 0.2264 0.0038 0.4024
C27 C 0.0757(9) 0.0330(6) 0.4221(4)
H16 H 0.0286 0.0009 0.4038
C33 C 0.0377(9) 0.4241(6) 0.5440(4)
C34 C 0.1037(13) 0.4770(7) 0.5587(6)
H21 H 0.0683 0.5157 0.5694
C35 C 0.2280(13) 0.4743(9) 0.5580(7)
H22 H 0.2729 0.5122 0.5695
C36 C 0.2170(12) 0.3727(8) 0.5281(6)
H23 H 0.2532 0.3337 0.5183
C37 C 0.0918(12) 0.3720(8) 0.5261(6)
H24 H 0.0462 0.3356 0.5123
Zn5 Zn 0.45901(11) 0.07665(6) 0.45278(4)
Zn8 Zn 0.47293(11) 0.42177(6) 0.54421(4)
O1 O 0.4631(7) 0.1400(3) 0.3822(3)
O2 O 0.4625(7) 0.1795(3) 0.4527(2)
O3 O 0.4644(7) 0.4281(3) 0.0219(2)
O4 O 0.5546(6) 0.4891(3) 0.0809(2)
O5 O 0.4413(6) 0.4259(3) 0.4743(2)
O6 O 0.5207(6) 0.4897(3) 0.4243(2)
O7 O 0.4714(7) 0.1807(3) 0.0436(2)
O8 O 0.5000(7) 0.1399(3) 0.1143(2)
O9 O 0.5032(9) 0.2590(4) 0.2501(3)
N1 N 0.5738(11) 0.3476(4) 0.2934(3)
H1 H 0.6146 0.3847 0.2924
N2 N 0.5897(11) 0.3452(4) 0.2178(3)
H2 H 0.6410 0.3778 0.2249
N3 N 0.6480(7) 0.0730(4) 0.4548(3)
N5 N 0.6604(6) 0.4198(4) 0.5457(3)
C1 C 0.4709(8) 0.1872(5) 0.4098(4)
C2 C 0.4879(9) 0.2571(4) 0.3941(3)
C3 C 0.4748(9) 0.3118(4) 0.4225(3)
H3 H 0.4499 0.3053 0.4515
C4 C 0.4980(10) 0.3745(5) 0.4081(3)
C5 C 0.5282(13) 0.3863(5) 0.3646(4)
H4 H 0.5404 0.4305 0.3547
C6 C 0.5401(12) 0.3318(5) 0.3354(3)
C7 C 0.5156(11) 0.2659(4) 0.3498(3)
H5 H 0.5180 0.2290 0.3297
C8 C 0.4847(7) 0.4349(5) 0.4380(3)
C9 C 0.5510(13) 0.3124(6) 0.2534(4)
C10 C 0.5543(12) 0.3311(5) 0.1704(4)
C11 C 0.5486(9) 0.3854(5) 0.1409(4)
H6 H 0.5631 0.4291 0.1529
C12 C 0.5215(9) 0.3752(4) 0.0936(3)
C13 C 0.4992(9) 0.3117(5) 0.0761(3)
H7 H 0.4771 0.3053 0.0439
C14 C 0.5093(8) 0.2577(5) 0.1056(3)
C15 C 0.5365(12) 0.2660(5) 0.1533(3)
H8 H 0.5426 0.2287 0.1734
C16 C 0.5119(7) 0.4359(5) 0.0625(3)
C17 C 0.4922(10) 0.1885(5) 0.0880(3)
C18 C 0.7279(9) 0.0958(6) 0.4899(4)
H9 H 0.6992 0.1124 0.5164
C19 C 0.8464(11) 0.0962(7) 0.4896(4)
H10 H 0.8985 0.1111 0.5160
C20 C 0.8928(9) 0.0753(6) 0.4510(4)
C21 C 0.8082(9) 0.0537(6) 0.4135(4)
H11 H 0.8340 0.0388 0.3861
C22 C 0.6919(11) 0.0543(6) 0.4165(4)
H12 H 0.6374 0.0407 0.3904
C28 C 0.7374(10) 0.4588(6) 0.5749(4)
H17 H 0.7049 0.4858 0.5964
C29 C 0.8558(11) 0.4613(6) 0.5751(4)
H18 H 0.9042 0.4901 0.5957
C30 C 0.9055(9) 0.4216(6) 0.5452(4)
C31 C 0.8282(11) 0.3813(7) 0.5146(5)
H19 H 0.8588 0.3545 0.4925
C32 C 0.7073(10) 0.3811(7) 0.5170(4)
H20 H 0.6567 0.3522 0.4973
Zn4 Zn 0.54099(11) 0.57665(6) 0.04722(4)
Zn6 Zn 0.52707(11) 0.57823(6) 0.45579(4)
Zn7 Zn 0.47293(11) 0.07823(6) 0.04421(4)
O10 O 0.4644(7) 0.0719(3) 0.5219(2)
O12 O 0.4793(6) 0.5103(3) 0.5757(2)
O13 O 0.4714(7) 0.3193(3) 0.5436(2)
Zn3 Zn 0.45901(11) 0.42335(6) 0.95278(4)
O11 O 0.4454(6) 0.9891(3) 0.4191(2)
O12_2 O 0.5207(6) 0.0103(3) 0.9243(2)
O1_2 O 0.5369(7) 0.6400(3) 0.1178(3)
O2_2 O 0.5375(7) 0.6795(3) 0.0473(2)
O3_2 O 0.5356(7) 0.9281(3) 0.4781(2)
O5_2 O 0.5587(6) 0.9259(3) 0.0257(2)
O6_2 O 0.4793(6) 0.9897(3) 0.0757(2)
O7_2 O 0.5286(7) 0.6807(3) 0.4564(2)
O8_2 O 0.5000(7) 0.6399(3) 0.3857(2)
O9_2 O 0.4968(9) 0.7590(4) 0.2499(3)
N1_2 N 0.4262(11) 0.8476(4) 0.2066(3)
H1_2 H 0.3854 0.8847 0.2076
N2_2 N 0.4103(11) 0.8452(4) 0.2822(3)
H2_2 H 0.3590 0.8778 0.2751
N3_2 N 0.3520(7) 0.5730(4) 0.0452(3)
C1_2 C 0.5291(8) 0.6872(5) 0.0902(4)
C2_2 C 0.5121(9) 0.7571(4) 0.1059(3)
C3_2 C 0.5252(9) 0.8118(4) 0.0775(3)
H3_2 H 0.5501 0.8053 0.0485
C4_2 C 0.5020(10) 0.8745(5) 0.0919(3)
C5_2 C 0.4718(13) 0.8863(5) 0.1354(4)
H4_2 H 0.4596 0.9305 0.1453
C6_2 C 0.4599(12) 0.8318(5) 0.1646(3)
C7_2 C 0.4844(11) 0.7659(4) 0.1502(3)
H5_2 H 0.4820 0.7290 0.1703
C8_2 C 0.5153(7) 0.9349(5) 0.0620(3)
C9_2 C 0.4490(13) 0.8124(6) 0.2466(4)
C10_2 C 0.4457(12) 0.8311(5) 0.3296(4)
C11_2 C 0.4514(9) 0.8854(5) 0.3591(4)
H6_2 H 0.4369 0.9291 0.3471
C12_2 C 0.4785(9) 0.8752(4) 0.4064(3)
C13_2 C 0.5008(9) 0.8117(5) 0.4239(3)
H7_2 H 0.5229 0.8053 0.4561
C14_2 C 0.4907(8) 0.7577(5) 0.3944(3)
C15_2 C 0.4635(12) 0.7660(5) 0.3467(3)
H8_2 H 0.4574 0.7287 0.3266
C16_2 C 0.4881(7) 0.9359(5) 0.4375(3)
C17_2 C 0.5078(10) 0.6885(5) 0.4120(3)
C18_2 C 0.2721(9) 0.5958(6) 0.0101(4)
C19_2 C 0.1536(11) 0.5962(7) 0.0104(4)
C20_2 C 0.1072(9) 0.5753(6) 0.0490(4)
C21_2 C 0.1918(9) 0.5537(6) 0.0865(4)
H11_2 H 0.1660 0.5388 0.1139
C22_2 C 0.3081(11) 0.5543(6) 0.0835(4)
H12_2 H 0.3626 0.5407 0.1096
H19_2 H 0.1412 0.8545 0.0075
H20_2 H 0.3433 0.8522 0.0027
Zn3_2 Zn 0.54099(11) 0.92335(6) 0.54722(4)
N7 N 0.7306(7) 0.5768(4) 0.0529(3)
Zn2 Zn 0.52707(11) 0.92177(6) 0.95579(4)
N5_2 N 0.3396(6) 0.9198(4) 0.9543(3)
H9_2 H 0.3008 0.6124 0.9836
H10_2 H 0.1015 0.6111 0.9840
C28_2 C 0.2626(10) 0.9588(6) 0.9251(4)
H17_2 H 0.2951 0.9858 0.9036
C29_2 C 0.1442(11) 0.9613(6) 0.9249(4)
H18_2 H 0.0958 0.9901 0.9043
C30_2 C 0.0945(9) 0.9216(6) 0.9548(4)
C31_2 C 0.1718(11) 0.8813(7) 0.9854(5)
C32_2 C 0.2927(10) 0.8811(7) 0.9830(4)
O10_2 O 0.5356(7) 0.5719(3) 0.9781(2)
O13_2 O 0.5286(7) 0.8193(3) 0.9564(2)
N8 N 0.7113(7) 0.9241(4) 0.9572(3)
C23_2 C 0.9796(10) 0.5778(6) 0.0510(4)
C24_2 C 0.9012(11) 0.6222(7) 0.0250(5)
H13_2 H 0.9315 0.6545 0.0062
C25_2 C 0.7825(10) 0.6197(6) 0.0264(4)
H14_2 H 0.7326 0.6500 0.0076
C26_2 C 0.8059(11) 0.5345(6) 0.0783(4)
H15_2 H 0.7736 0.5038 0.0976
C27_2 C 0.9243(9) 0.5330(6) 0.0779(4)
H16_2 H 0.9714 0.5009 0.0962
C33_2 C 0.9623(9) 0.9241(6) 0.9560(4)
C34_2 C 0.8963(13) 0.9770(7) 0.9413(6)
C35_2 C 0.7720(13) 0.9743(9) 0.9420(7)
C36_2 C 0.7830(12) 0.8727(8) 0.9719(6)
H23_2 H 0.7468 0.8337 0.9817
C37_2 C 0.9082(12) 0.8720(8) 0.9739(6)
H24_2 H 0.9538 0.8356 0.9877
O11_2 O 0.5546(6) 0.0109(3) 0.5809(2)
O1_3 O 0.5369(7) 0.8600(3) 0.6178(3)
O2_3 O 0.5375(7) 0.8205(3) 0.5473(2)
O4_2 O 0.4454(6) 0.5109(3) 0.9191(2)
O5_3 O 0.5587(6) 0.5741(3) 0.5257(2)
O8_3 O 0.5000(7) 0.8601(3) 0.8857(2)
O9_3 O 0.4968(9) 0.7410(4) 0.7499(3)
N1_3 N 0.4262(11) 0.6524(4) 0.7066(3)
H1_3 H 0.3854 0.6153 0.7076
N2_3 N 0.4103(11) 0.6548(4) 0.7822(3)
H2_3 H 0.3590 0.6222 0.7751
N3_3 N 0.3520(7) 0.9270(4) 0.5452(3)
N5_3 N 0.3396(6) 0.5802(4) 0.4543(3)
C1_3 C 0.5291(8) 0.8128(5) 0.5902(4)
C2_3 C 0.5121(9) 0.7429(4) 0.6059(3)
C3_3 C 0.5252(9) 0.6882(4) 0.5775(3)
H3_3 H 0.5501 0.6947 0.5485
C4_3 C 0.5020(10) 0.6255(5) 0.5919(3)
C5_3 C 0.4718(13) 0.6137(5) 0.6354(4)
H4_3 H 0.4596 0.5695 0.6453
C6_3 C 0.4599(12) 0.6682(5) 0.6646(3)
C7_3 C 0.4844(11) 0.7341(4) 0.6502(3)
H5_3 H 0.4820 0.7710 0.6703
C8_3 C 0.5153(7) 0.5651(5) 0.5620(3)
C9_3 C 0.4490(13) 0.6876(6) 0.7466(4)
C10_3 C 0.4457(12) 0.6689(5) 0.8296(4)
C11_3 C 0.4514(9) 0.6146(5) 0.8591(4)
H6_3 H 0.4369 0.5709 0.8471
C12_3 C 0.4785(9) 0.6248(4) 0.9064(3)
C13_3 C 0.5008(9) 0.6883(5) 0.9239(3)
H7_3 H 0.5229 0.6947 0.9561
C14_3 C 0.4907(8) 0.7423(5) 0.8944(3)
C15_3 C 0.4635(12) 0.7340(5) 0.8467(3)
H8_3 H 0.4574 0.7713 0.8266
C16_3 C 0.4881(7) 0.5641(5) 0.9375(3)
C17_3 C 0.5078(10) 0.8115(5) 0.9120(3)
C18_3 C 0.2721(9) 0.9042(6) 0.5101(4)
H9_3 H 0.3008 0.8876 0.4836
C19_3 C 0.1536(11) 0.9038(7) 0.5104(4)
H10_3 H 0.1015 0.8889 0.4840
C20_3 C 0.1072(9) 0.9247(6) 0.5490(4)
C21_3 C 0.1918(9) 0.9463(6) 0.5865(4)
H11_3 H 0.1660 0.9612 0.6139
C22_3 C 0.3081(11) 0.9457(6) 0.5835(4)
H12_3 H 0.3626 0.9593 0.6096
C28_3 C 0.2626(10) 0.5412(6) 0.4251(4)
H17_3 H 0.2951 0.5142 0.4036
C29_3 C 0.1442(11) 0.5387(6) 0.4249(4)
H18_3 H 0.0958 0.5099 0.4043
C30_3 C 0.0945(9) 0.5784(6) 0.4548(4)
C31_3 C 0.1718(11) 0.6187(7) 0.4854(5)
H19_3 H 0.1412 0.6455 0.5075
C32_3 C 0.2927(10) 0.6189(7) 0.4830(4)
H20_3 H 0.3433 0.6478 0.5027
N7_2 N 0.7306(7) 0.9232(4) 0.5529(3)
N8_2 N 0.7113(7) 0.5759(4) 0.4572(3)
C23_3 C 0.9796(10) 0.9222(6) 0.5510(4)
C24_3 C 0.9012(11) 0.8778(7) 0.5250(5)
H13_3 H 0.9315 0.8455 0.5062
C25_3 C 0.7825(10) 0.8803(6) 0.5264(4)
H14_3 H 0.7326 0.8500 0.5076
C26_3 C 0.8059(11) 0.9655(6) 0.5783(4)
H15_3 H 0.7736 0.9962 0.5976
C27_3 C 0.9243(9) 0.9670(6) 0.5779(4)
H16_3 H 0.9714 0.9991 0.5962
C33_3 C 0.9623(9) 0.5759(6) 0.4560(4)
C34_3 C 0.8963(13) 0.5230(7) 0.4413(6)
H21_2 H 0.9317 0.4843 0.4306
C35_3 C 0.7720(13) 0.5257(9) 0.4420(7)
H22_2 H 0.7271 0.4878 0.4305
C36_3 C 0.7830(12) 0.6273(8) 0.4719(6)
H23_3 H 0.7468 0.6663 0.4817
C37_3 C 0.9082(12) 0.6280(8) 0.4739(6)
H24_3 H 0.9538 0.6644 0.4877
N6_2 N 0.2887(7) 0.0759(4) 0.0428(3)
C33_4 C 0.0377(9) 0.0759(6) 0.0440(4)
C34_4 C 0.1037(13) 0.0230(7) 0.0587(6)
C35_4 C 0.2280(13) 0.0257(9) 0.0580(7)
C36_4 C 0.2170(12) 0.1273(8) 0.0281(6)
H23_4 H 0.2532 0.1663 0.0183
C37_4 C 0.0918(12) 0.1280(8) 0.0261(6)
H24_4 H 0.0462 0.1644 0.0123
N4_2 N 0.2694(7) 0.4232(4) 0.9471(3)
C23_4 C 0.0204(10) 0.4222(6) 0.9490(4)
C24_4 C 0.0988(11) 0.3778(7) 0.9750(5)
H13_4 H 0.0685 0.3455 0.9938
C25_4 C 0.2175(10) 0.3803(6) 0.9736(4)
H14_4 H 0.2674 0.3500 0.9924
C26_4 C 0.1941(11) 0.4655(6) 0.9217(4)
H15_4 H 0.2264 0.4962 0.9024
C27_4 C 0.0757(9) 0.4670(6) 0.9221(4)
H16_4 H 0.0286 0.4991 0.9038
N5_4 N 0.6604(6) 0.0802(4) 0.0457(3)
H9_4 H 0.6992 0.3876 0.0164
H10_4 H 0.8985 0.3889 0.0160
C28_4 C 0.7374(10) 0.0412(6) 0.0749(4)
H17_4 H 0.7049 0.0142 0.0964
C29_4 C 0.8558(11) 0.0387(6) 0.0751(4)
H18_4 H 0.9042 0.0099 0.0957
C30_4 C 0.9055(9) 0.0784(6) 0.0452(4)
C31_4 C 0.8282(11) 0.1187(7) 0.0146(5)
C32_4 C 0.7073(10) 0.1189(7) 0.0170(4)
O1_4 O 0.4631(7) 0.3600(3) 0.8822(3)
O2_4 O 0.4625(7) 0.3205(3) 0.9527(2)
O5_4 O 0.4413(6) 0.0741(3) 0.9743(2)
O8_4 O 0.5000(7) 0.3601(3) 0.6143(2)
O9_4 O 0.5032(9) 0.2410(4) 0.7501(3)
N1_4 N 0.5738(11) 0.1524(4) 0.7934(3)
H1_4 H 0.6146 0.1153 0.7924
N2_4 N 0.5897(11) 0.1548(4) 0.7178(3)
H2_4 H 0.6410 0.1222 0.7249
N3_4 N 0.6480(7) 0.4270(4) 0.9548(3)
C1_4 C 0.4709(8) 0.3128(5) 0.9098(4)
C2_4 C 0.4879(9) 0.2429(4) 0.8941(3)
C3_4 C 0.4748(9) 0.1882(4) 0.9225(3)
H3_4 H 0.4499 0.1947 0.9515
C4_4 C 0.4980(10) 0.1255(5) 0.9081(3)
C5_4 C 0.5282(13) 0.1137(5) 0.8646(4)
H4_4 H 0.5404 0.0695 0.8547
C6_4 C 0.5401(12) 0.1682(5) 0.8354(3)
C7_4 C 0.5156(11) 0.2341(4) 0.8498(3)
H5_4 H 0.5180 0.2710 0.8297
C8_4 C 0.4847(7) 0.0651(5) 0.9380(3)
C9_4 C 0.5510(13) 0.1876(6) 0.7534(4)
C10_4 C 0.5543(12) 0.1689(5) 0.6704(4)
C11_4 C 0.5486(9) 0.1146(5) 0.6409(4)
H6_4 H 0.5631 0.0709 0.6529
C12_4 C 0.5215(9) 0.1248(4) 0.5936(3)
C13_4 C 0.4992(9) 0.1883(5) 0.5761(3)
H7_4 H 0.4771 0.1947 0.5439
C14_4 C 0.5093(8) 0.2423(5) 0.6056(3)
C15_4 C 0.5365(12) 0.2340(5) 0.6533(3)
H8_4 H 0.5426 0.2713 0.6734
C16_4 C 0.5119(7) 0.0641(5) 0.5625(3)
C17_4 C 0.4922(10) 0.3115(5) 0.5880(3)
C18_4 C 0.7279(9) 0.4042(6) 0.9899(4)
C19_4 C 0.8464(11) 0.4038(7) 0.9896(4)
C20_4 C 0.8928(9) 0.4247(6) 0.9510(4)
C21_4 C 0.8082(9) 0.4463(6) 0.9135(4)
H11_4 H 0.8340 0.4612 0.8861
C22_4 C 0.6919(11) 0.4457(6) 0.9165(4)
H12_4 H 0.6374 0.4593 0.8904
H19_4 H 0.8588 0.1455 0.9925
H20_4 H 0.6567 0.1478 0.9973
H21_3 H 0.9317 0.0157 0.9306
H22_3 H 0.7271 0.0122 0.9305
H21_4 H 0.0683 0.9843 0.0694
H22_4 H 0.2729 0.9878 0.0695
loop_
_geom_bond_atom_site_label_1
_geom_bond_atom_site_label_2
_geom_bond_site_symmetry_1
_geom_bond_site_symmetry_2
N4 C25 1_555 1_555
N6 C35 1_555 1_555
C24 C23 1_555 1_555
H13 C24 1_555 1_555
C25 C24 1_555 1_555
H14 C25 1_555 1_555
C26 N4 1_555 1_555
H15 C26 1_555 1_555
C27 C23 1_555 1_555
H16 C27 1_555 1_555
C34 C33 1_555 1_555
H21 C34 1_555 1_555
C35 C34 1_555 1_555
H22 C35 1_555 1_555
C36 N6 1_555 1_555
H23 C36 1_555 1_555
C37 C33 1_555 1_555
H24 C37 1_555 1_555
Zn5 N4 1_555 1_555
Zn8 N6 1_555 1_555
C26 C27 1_555 1_555
C36 C37 1_555 1_555
Zn5 O2 1_555 1_555
Zn8 O5 1_555 1_555
O1 C1 1_555 1_555
O2 C1 1_555 1_555
O3 C16 1_555 1_555
O4 C16 1_555 1_555
O5 C8 1_555 1_555
O6 C8 1_555 1_555
O7 C17 1_555 1_555
O8 C17 1_555 1_555
O9 C9 1_555 1_555
N1 H1 1_555 1_555
N2 H2 1_555 1_555
N3 Zn5 1_555 1_555
N5 Zn8 1_555 1_555
C1 C2 1_555 1_555
C2 C3 1_555 1_555
C3 H3 1_555 1_555
C4 C3 1_555 1_555
C5 C4 1_555 1_555
H4 C5 1_555 1_555
C6 N1 1_555 1_555
C7 C2 1_555 1_555
H5 C7 1_555 1_555
C8 C4 1_555 1_555
C9 N1 1_555 1_555
C10 N2 1_555 1_555
C11 C10 1_555 1_555
H6 C11 1_555 1_555
C12 C11 1_555 1_555
C13 C12 1_555 1_555
H7 C13 1_555 1_555
C14 C13 1_555 1_555
C15 C10 1_555 1_555
H8 C15 1_555 1_555
C16 C12 1_555 1_555
C17 C14 1_555 1_555
C18 N3 1_555 1_555
H9 C18 1_555 1_555
C19 C18 1_555 1_555
H10 C19 1_555 1_555
C20 C19 1_555 1_555
C21 C20 1_555 1_555
H11 C21 1_555 1_555
C22 N3 1_555 1_555
H12 C22 1_555 1_555
C28 N5 1_555 1_555
H17 C28 1_555 1_555
C29 C28 1_555 1_555
H18 C29 1_555 1_555
C30 C29 1_555 1_555
C31 C30 1_555 1_555
H19 C31 1_555 1_555
C32 N5 1_555 1_555
H20 C32 1_555 1_555
Zn4 O4 1_555 1_555
Zn6 O6 1_555 1_555
Zn7 O7 1_555 1_555
O10 Zn5 1_555 1_555
O12 Zn8 1_555 1_555
O13 Zn8 1_555 1_555
N2 C9 1_555 1_555
C5 C6 1_555 1_555
C6 C7 1_555 1_555
C14 C15 1_555 1_555
C21 C22 1_555 1_555
C31 C32 1_555 1_555
Zn4 O2_2 1_555 1_555
O1_2 C1_2 1_555 1_555
O2_2 C1_2 1_555 1_555
O3_2 C16_2 1_555 1_555
O11 C16_2 1_555 1_555
O5_2 C8_2 1_555 1_555
O6_2 C8_2 1_555 1_555
O7_2 C17_2 1_555 1_555
O8_2 C17_2 1_555 1_555
O9_2 C9_2 1_555 1_555
N1_2 H1_2 1_555 1_555
N2_2 H2_2 1_555 1_555
N3_2 Zn4 1_555 1_555
C1_2 C2_2 1_555 1_555
C2_2 C3_2 1_555 1_555
C3_2 H3_2 1_555 1_555
C4_2 C3_2 1_555 1_555
C5_2 C4_2 1_555 1_555
H4_2 C5_2 1_555 1_555
C6_2 N1_2 1_555 1_555
C7_2 C2_2 1_555 1_555
H5_2 C7_2 1_555 1_555
C8_2 C4_2 1_555 1_555
C9_2 N1_2 1_555 1_555
C10_2 N2_2 1_555 1_555
C11_2 C10_2 1_555 1_555
H6_2 C11_2 1_555 1_555
C12_2 C11_2 1_555 1_555
C13_2 C12_2 1_555 1_555
H7_2 C13_2 1_555 1_555
C14_2 C13_2 1_555 1_555
C15_2 C10_2 1_555 1_555
H8_2 C15_2 1_555 1_555
C16_2 C12_2 1_555 1_555
C17_2 C14_2 1_555 1_555
C18_2 N3_2 1_555 1_555
C19_2 C18_2 1_555 1_555
C20_2 C19_2 1_555 1_555
C21_2 C20_2 1_555 1_555
H11_2 C21_2 1_555 1_555
C22_2 N3_2 1_555 1_555
H12_2 C22_2 1_555 1_555
Zn3_2 O3_2 1_555 1_555
Zn6 O7_2 1_555 1_555
N7 Zn4 1_555 1_555
N2_2 C9_2 1_555 1_555
C5_2 C6_2 1_555 1_555
C6_2 C7_2 1_555 1_555
C14_2 C15_2 1_555 1_555
C21_2 C22_2 1_555 1_555
N5_2 Zn2 1_555 1_555
C28_2 N5_2 1_555 1_555
H17_2 C28_2 1_555 1_555
C29_2 C28_2 1_555 1_555
H18_2 C29_2 1_555 1_555
C30_2 C29_2 1_555 1_555
C31_2 C30_2 1_555 1_555
C32_2 N5_2 1_555 1_555
O13_2 Zn2 1_555 1_555
N8 Zn2 1_555 1_555
C31_2 C32_2 1_555 1_555
N7 C25_2 1_555 1_555
C24_2 C23_2 1_555 1_555
H13_2 C24_2 1_555 1_555
C25_2 C24_2 1_555 1_555
H14_2 C25_2 1_555 1_555
C26_2 N7 1_555 1_555
H15_2 C26_2 1_555 1_555
C27_2 C23_2 1_555 1_555
H16_2 C27_2 1_555 1_555
C26_2 C27_2 1_555 1_555
N8 C35_2 1_555 1_555
C34_2 C33_2 1_555 1_555
C35_2 C34_2 1_555 1_555
C36_2 N8 1_555 1_555
H23_2 C36_2 1_555 1_555
C37_2 C33_2 1_555 1_555
H24_2 C37_2 1_555 1_555
C36_2 C37_2 1_555 1_555
Zn3_2 O2_3 1_555 1_555
Zn6 O5_3 1_555 1_555
O1_3 C1_3 1_555 1_555
O2_3 C1_3 1_555 1_555
O10_2 C16_3 1_555 1_555
O4_2 C16_3 1_555 1_555
O5_3 C8_3 1_555 1_555
O12 C8_3 1_555 1_555
O13_2 C17_3 1_555 1_555
O8_3 C17_3 1_555 1_555
O9_3 C9_3 1_555 1_555
N1_3 H1_3 1_555 1_555
N2_3 H2_3 1_555 1_555
N3_3 Zn3_2 1_555 1_555
N5_3 Zn6 1_555 1_555
C1_3 C2_3 1_555 1_555
C2_3 C3_3 1_555 1_555
C3_3 H3_3 1_555 1_555
C4_3 C3_3 1_555 1_555
C5_3 C4_3 1_555 1_555
H4_3 C5_3 1_555 1_555
C6_3 N1_3 1_555 1_555
C7_3 C2_3 1_555 1_555
H5_3 C7_3 1_555 1_555
C8_3 C4_3 1_555 1_555
C9_3 N1_3 1_555 1_555
C10_3 N2_3 1_555 1_555
C11_3 C10_3 1_555 1_555
H6_3 C11_3 1_555 1_555
C12_3 C11_3 1_555 1_555
C13_3 C12_3 1_555 1_555
H7_3 C13_3 1_555 1_555
C14_3 C13_3 1_555 1_555
C15_3 C10_3 1_555 1_555
H8_3 C15_3 1_555 1_555
C16_3 C12_3 1_555 1_555
C17_3 C14_3 1_555 1_555
C18_3 N3_3 1_555 1_555
H9_3 C18_3 1_555 1_555
C19_3 C18_3 1_555 1_555
H10_3 C19_3 1_555 1_555
C20_3 C19_3 1_555 1_555
C21_3 C20_3 1_555 1_555
H11_3 C21_3 1_555 1_555
C22_3 N3_3 1_555 1_555
H12_3 C22_3 1_555 1_555
C28_3 N5_3 1_555 1_555
H17_3 C28_3 1_555 1_555
C29_3 C28_3 1_555 1_555
H18_3 C29_3 1_555 1_555
C30_3 C29_3 1_555 1_555
C31_3 C30_3 1_555 1_555
H19_3 C31_3 1_555 1_555
C32_3 N5_3 1_555 1_555
H20_3 C32_3 1_555 1_555
Zn3 O4_2 1_555 1_555
N7_2 Zn3_2 1_555 1_555
N8_2 Zn6 1_555 1_555
N2_3 C9_3 1_555 1_555
C5_3 C6_3 1_555 1_555
C6_3 C7_3 1_555 1_555
C14_3 C15_3 1_555 1_555
C21_3 C22_3 1_555 1_555
C31_3 C32_3 1_555 1_555
N7_2 C25_3 1_555 1_555
N8_2 C35_3 1_555 1_555
C24_3 C23_3 1_555 1_555
H13_3 C24_3 1_555 1_555
C25_3 C24_3 1_555 1_555
H14_3 C25_3 1_555 1_555
C26_3 N7_2 1_555 1_555
H15_3 C26_3 1_555 1_555
C27_3 C23_3 1_555 1_555
H16_3 C27_3 1_555 1_555
C34_3 C33_3 1_555 1_555
H21_2 C34_3 1_555 1_555
C35_3 C34_3 1_555 1_555
H22_2 C35_3 1_555 1_555
C36_3 N8_2 1_555 1_555
H23_3 C36_3 1_555 1_555
C37_3 C33_3 1_555 1_555
H24_3 C37_3 1_555 1_555
C26_3 C27_3 1_555 1_555
C36_3 C37_3 1_555 1_555
N6_2 C35_4 1_555 1_555
C34_4 C33_4 1_555 1_555
C35_4 C34_4 1_555 1_555
C36_4 N6_2 1_555 1_555
H23_4 C36_4 1_555 1_555
C37_4 C33_4 1_555 1_555
H24_4 C37_4 1_555 1_555
Zn7 N6_2 1_555 1_555
C36_4 C37_4 1_555 1_555
N4_2 C25_4 1_555 1_555
C24_4 C23_4 1_555 1_555
H13_4 C24_4 1_555 1_555
C25_4 C24_4 1_555 1_555
H14_4 C25_4 1_555 1_555
C26_4 N4_2 1_555 1_555
H15_4 C26_4 1_555 1_555
C27_4 C23_4 1_555 1_555
H16_4 C27_4 1_555 1_555
Zn3 N4_2 1_555 1_555
C26_4 C27_4 1_555 1_555
N5_4 Zn7 1_555 1_555
C28_4 N5_4 1_555 1_555
H17_4 C28_4 1_555 1_555
C29_4 C28_4 1_555 1_555
H18_4 C29_4 1_555 1_555
C30_4 C29_4 1_555 1_555
C31_4 C30_4 1_555 1_555
C32_4 N5_4 1_555 1_555
C31_4 C32_4 1_555 1_555
Zn3 O2_4 1_555 1_555
O1_4 C1_4 1_555 1_555
O2_4 C1_4 1_555 1_555
O10 C16_4 1_555 1_555
O11_2 C16_4 1_555 1_555
O5_4 C8_4 1_555 1_555
O12_2 C8_4 1_555 1_555
O13 C17_4 1_555 1_555
O8_4 C17_4 1_555 1_555
O9_4 C9_4 1_555 1_555
N1_4 H1_4 1_555 1_555
N2_4 H2_4 1_555 1_555
N3_4 Zn3 1_555 1_555
C1_4 C2_4 1_555 1_555
C2_4 C3_4 1_555 1_555
C3_4 H3_4 1_555 1_555
C4_4 C3_4 1_555 1_555
C5_4 C4_4 1_555 1_555
H4_4 C5_4 1_555 1_555
C6_4 N1_4 1_555 1_555
C7_4 C2_4 1_555 1_555
H5_4 C7_4 1_555 1_555
C8_4 C4_4 1_555 1_555
C9_4 N1_4 1_555 1_555
C10_4 N2_4 1_555 1_555
C11_4 C10_4 1_555 1_555
H6_4 C11_4 1_555 1_555
C12_4 C11_4 1_555 1_555
C13_4 C12_4 1_555 1_555
H7_4 C13_4 1_555 1_555
C14_4 C13_4 1_555 1_555
C15_4 C10_4 1_555 1_555
H8_4 C15_4 1_555 1_555
C16_4 C12_4 1_555 1_555
C17_4 C14_4 1_555 1_555
C18_4 N3_4 1_555 1_555
C19_4 C18_4 1_555 1_555
C20_4 C19_4 1_555 1_555
C21_4 C20_4 1_555 1_555
H11_4 C21_4 1_555 1_555
C22_4 N3_4 1_555 1_555
H12_4 C22_4 1_555 1_555
N2_4 C9_4 1_555 1_555
C5_4 C6_4 1_555 1_555
C6_4 C7_4 1_555 1_555
C14_4 C15_4 1_555 1_555
C21_4 C22_4 1_555 1_555

#END
