
###############################################################################
#
# This file contains modified crystal structure data generated from the
# MOF subset of the Cambridge Structural Database (CSD) v543 
# hosted by the Cambridge Crystallographic Data Centre (CCDC).
#
# This work is licensed under the Creative Commons
# Attribution-NonCommercial-ShareAlike 4.0 International License.
# To view a copy of this license, visit
# http://creativecommons.org/licenses/by-nc-sa/4.0/
# or send a letter to
# Creative Commons, PO Box 1866, Mountain View, CA 94042, USA.
#
# CIF created using the CSD Python API on 29 September 2022
# The structure has been converted into the P1 space group
# The structure has a 3D framework
# The original CSD entry HAPNOE is in the monoclinic crystal system
# The framework has been calculated to contain at least 10.0% void space
# The void calculation uses a probe of radius 1.32A, grid spacing 0.4
#
###############################################################################

data_HAPNOE
_chemical_formula_moiety         '(C112 H88 Er8 N16 O64)n'
_symmetry_cell_setting           triclinic
_symmetry_space_group_name_H-M   'P 1'
_symmetry_Int_Tables_number      1
_space_group_name_Hall           'P 1'
loop_
_symmetry_equiv_pos_site_id
_symmetry_equiv_pos_as_xyz
1 x,y,z
_cell_length_a                   21.8947(18)
_cell_length_b                   8.3062(7)
_cell_length_c                   23.2034(18)
_cell_angle_alpha                90
_cell_angle_beta                 100.053(4)
_cell_angle_gamma                90
_cell_volume                     4155.02
loop_
_atom_site_label
_atom_site_type_symbol
_atom_site_fract_x
_atom_site_fract_y
_atom_site_fract_z
C22 C 0.2400(3) 0.2027(7) 0.6418(2)
C23 C 0.2192(3) 0.1491(7) 0.5796(2)
C24 C 0.1790(3) 0.2463(8) 0.5398(2)
C25 C 0.1578(3) 0.1889(9) 0.4836(2)
H15 H 0.1307 0.2511 0.4573
C26 C 0.1764(3) 0.0421(9) 0.4668(2)
H16 H 0.1617 0.0057 0.4290
C28 C 0.2372(3) 0.0013(7) 0.5614(2)
H18 H 0.168(3) 0.408(10) 0.5897(7)
O12 O 0.22914(19) 0.3454(5) 0.65486(15)
O13 O 0.26557(19) 0.0988(5) 0.67701(15)
O14 O 0.1593(2) 0.3945(6) 0.55288(17)
Er4 Er 0.247548(11) 0.53474(3) 0.728378(9)
Er5 Er 0.252452(11) 0.03474(3) 0.771622(9)
C1 C 0.1710(2) 0.2160(7) 0.1768(2)
C2 C 0.1279(2) 0.0872(7) 0.1514(2)
C3 C 0.0918(2) 0.1198(8) 0.0967(2)
H1 H 0.0959 0.2188 0.0791
C4 C 0.0506(3) 0.0098(8) 0.0684(2)
C8 C 0.2600(3) 0.2973(7) 0.3582(2)
C9 C 0.2808(3) 0.3509(7) 0.4204(2)
C10 C 0.3210(3) 0.2537(8) 0.4602(2)
C11 C 0.3422(3) 0.3111(9) 0.5164(2)
H4 H 0.3693 0.2489 0.5427
C12 C 0.3236(3) 0.4579(9) 0.5332(2)
H5 H 0.3383 0.4943 0.5710
C13 C 0.2831(3) 0.5544(8) 0.4950(2)
C14 C 0.2628(3) 0.4987(7) 0.4386(2)
H6 H 0.2364 0.5627 0.4124
Er1 Er 0.247548(11) 0.46526(3) 0.228378(9)
H7 H 0.332(3) 0.092(10) 0.4103(7)
H8 H 0.284(3) 0.349(14) 0.1183(11)
H9 H 0.3337(14) 0.324(8) 0.152(3)
H10 H 0.146(9) 0.680(6) 0.245(5)
H11 H 0.147(3) 0.564(10) 0.2801(14)
N1 N 0.0179(2) 0.0538(7) 0.0123(2)
N2 N 0.2650(2) 0.7034(7) 0.51817(19)
O1 O 0.16953(19) 0.3528(5) 0.15388(16)
O2 O 0.21077(17) 0.1914(5) 0.22433(14)
O3 O 0.2979(2) 0.3592(6) 0.15467(17)
O4 O 0.27086(19) 0.1546(5) 0.34514(15)
O5 O 0.1555(2) 0.5809(6) 0.24625(18)
O7 O 0.23443(19) 0.4012(5) 0.32299(15)
O8 O 0.3407(2) 0.1055(6) 0.44712(17)
C27 C 0.2169(3) 0.9456(8) 0.5050(2)
H17 H 0.2636 0.9373 0.5876
N4 N 0.2350(2) 0.7966(7) 0.48183(19)
O17 O 0.28923(17) 0.6914(5) 0.27567(14)
O19 O 0.22914(19) 0.6546(5) 0.15486(15)
O21 O 0.34416(17) 0.3963(5) 0.27047(15)
C5 C 0.0439(3) 0.8619(9) 0.0958(3)
H2 H 0.0157 0.7859 0.0777
C6 C 0.0788(3) 0.8299(8) 0.1492(3)
H3 H 0.0735 0.7317 0.1669
C7 C 0.1225(2) 0.9388(7) 0.1787(2)
O6 O 0.15584(17) 0.8963(5) 0.22953(15)
Er3 Er 0.252452(11) 0.96526(3) 0.271622(9)
C19 C 0.9561(3) 0.1381(9) 0.9042(3)
H13 H 0.9843 0.2141 0.9223
C20 C 0.9212(3) 0.1701(8) 0.8508(3)
H14 H 0.9265 0.2683 0.8331
C21 C 0.8775(2) 0.0612(7) 0.8213(2)
O11 O 0.84416(17) 0.1037(5) 0.77047(15)
Er6 Er 0.747548(11) 0.03474(3) 0.728378(9)
C15 C 0.8290(2) 0.7840(7) 0.8232(2)
C16 C 0.8721(2) 0.9128(7) 0.8486(2)
C17 C 0.9082(2) 0.8802(8) 0.9033(2)
H12 H 0.9041 0.7812 0.9209
C18 C 0.9494(3) 0.9902(8) 0.9316(2)
N3 N 0.9821(2) 0.9462(7) 0.9877(2)
O9 O 0.83047(19) 0.6472(5) 0.84612(16)
O10 O 0.78923(17) 0.8086(5) 0.77567(14)
Er2 Er 0.752452(11) 0.53474(3) 0.771622(9)
H19 H 0.716(3) 0.651(14) 0.8817(11)
H20 H 0.6663(14) 0.676(8) 0.848(3)
H21 H 0.854(9) 0.320(6) 0.755(5)
H22 H 0.853(3) 0.436(10) 0.7199(14)
O15 O 0.7021(2) 0.6408(6) 0.84533(17)
O16 O 0.8445(2) 0.4191(6) 0.75375(18)
O18 O 0.71077(17) 0.3086(5) 0.72433(14)
O20 O 0.77086(19) 0.3454(5) 0.84514(15)
O22 O 0.65584(17) 0.6037(5) 0.72953(15)
O23 O 0.76557(19) 0.5988(5) 0.67701(15)
C19_2 C 0.0439(3) 0.1381(9) 0.5958(3)
H13_2 H 0.0157 0.2141 0.5777
C20_2 C 0.0788(3) 0.1701(8) 0.6492(3)
H14_2 H 0.0735 0.2683 0.6669
C21_2 C 0.1225(2) 0.0612(7) 0.6787(2)
O11_2 O 0.15584(17) 0.1037(5) 0.72953(15)
C15_2 C 0.1710(2) 0.7840(7) 0.6768(2)
C16_2 C 0.1279(2) 0.9128(7) 0.6514(2)
C17_2 C 0.0918(2) 0.8802(8) 0.5967(2)
H12_2 H 0.0959 0.7812 0.5791
C18_2 C 0.0506(3) 0.9902(8) 0.5684(2)
N3_2 N 0.0179(2) 0.9462(7) 0.5123(2)
O9_2 O 0.16953(19) 0.6472(5) 0.65388(16)
O10_2 O 0.21077(17) 0.8086(5) 0.72433(14)
H19_2 H 0.284(3) 0.651(14) 0.6183(11)
H20_2 H 0.3337(14) 0.676(8) 0.652(3)
H21_2 H 0.146(9) 0.320(6) 0.745(5)
H22_2 H 0.147(3) 0.436(10) 0.7801(14)
O15_2 O 0.2979(2) 0.6408(6) 0.65467(17)
O16_2 O 0.1555(2) 0.4191(6) 0.74625(18)
O18_2 O 0.28923(17) 0.3086(5) 0.77567(14)
O22_2 O 0.34416(17) 0.6037(5) 0.77047(15)
O23_2 O 0.23443(19) 0.5988(5) 0.82299(15)
C22_2 C 0.7600(3) 0.2027(7) 0.8582(2)
C23_2 C 0.7808(3) 0.1491(7) 0.9204(2)
C24_2 C 0.8210(3) 0.2463(8) 0.9602(2)
C28_2 C 0.7628(3) 0.0013(7) 0.9386(2)
H18_2 H 0.832(3) 0.408(10) 0.9103(7)
O13_2 O 0.73443(19) 0.0988(5) 0.82299(15)
O14_2 O 0.8407(2) 0.3945(6) 0.94712(17)
C1_2 C 0.8290(2) 0.2160(7) 0.3232(2)
C2_2 C 0.8721(2) 0.0872(7) 0.3486(2)
C3_2 C 0.9082(2) 0.1198(8) 0.4033(2)
H1_2 H 0.9041 0.2188 0.4209
C4_2 C 0.9494(3) 0.0098(8) 0.4316(2)
C8_2 C 0.7400(3) 0.2973(7) 0.1418(2)
C9_2 C 0.7192(3) 0.3509(7) 0.0796(2)
C10_2 C 0.6790(3) 0.2537(8) 0.0398(2)
C13_2 C 0.7169(3) 0.5544(8) 0.0050(2)
C14_2 C 0.7372(3) 0.4987(7) 0.0614(2)
H6_2 H 0.7636 0.5627 0.0876
Er1_2 Er 0.752452(11) 0.46526(3) 0.271622(9)
H7_2 H 0.668(3) 0.092(10) 0.0897(7)
H8_2 H 0.716(3) 0.349(14) 0.3817(11)
H9_2 H 0.6663(14) 0.324(8) 0.348(3)
H10_2 H 0.854(9) 0.680(6) 0.255(5)
H11_2 H 0.853(3) 0.564(10) 0.2199(14)
N1_2 N 0.9821(2) 0.0538(7) 0.4877(2)
O1_2 O 0.83047(19) 0.3528(5) 0.34612(16)
O2_2 O 0.78923(17) 0.1914(5) 0.27567(14)
O3_2 O 0.7021(2) 0.3592(6) 0.34533(17)
O4_2 O 0.72914(19) 0.1546(5) 0.15486(15)
O5_2 O 0.8445(2) 0.5809(6) 0.25375(18)
O7_2 O 0.76557(19) 0.4012(5) 0.17701(15)
O8_2 O 0.6593(2) 0.1055(6) 0.05288(17)
N4_2 N 0.7650(2) 0.7966(7) 0.01817(19)
O17_2 O 0.71077(17) 0.6914(5) 0.22433(14)
O19_2 O 0.77086(19) 0.6546(5) 0.34514(15)
O21_2 O 0.65584(17) 0.3963(5) 0.22953(15)
C11_2 C 0.6578(3) 0.3111(9) 0.9836(2)
H4_2 H 0.6307 0.2489 0.9573
C12_2 C 0.6764(3) 0.4579(9) 0.9668(2)
H5_2 H 0.6617 0.4943 0.9290
N2_2 N 0.7350(2) 0.7034(7) 0.98183(19)
C27_2 C 0.7831(3) 0.9456(8) 0.9950(2)
H17_2 H 0.7364 0.9373 0.9124
C5_2 C 0.9561(3) 0.8619(9) 0.4042(3)
H2_2 H 0.9843 0.7859 0.4223
C6_2 C 0.9212(3) 0.8299(8) 0.3508(3)
H3_2 H 0.9265 0.7317 0.3331
C7_2 C 0.8775(2) 0.9388(7) 0.3213(2)
O6_2 O 0.84416(17) 0.8963(5) 0.27047(15)
Er3_2 Er 0.747548(11) 0.96526(3) 0.228378(9)
C13_3 C 0.7831(3) 0.0544(8) 0.4950(2)
H6_3 H 0.7364 0.0627 0.4124
H10_3 H 0.646(9) 0.180(6) 0.245(5)
H11_3 H 0.647(3) 0.064(10) 0.2801(14)
N2_3 N 0.7650(2) 0.2034(7) 0.51817(19)
O5_3 O 0.6555(2) 0.0809(6) 0.24625(18)
C22_3 C 0.7400(3) 0.7027(7) 0.6418(2)
C23_3 C 0.7192(3) 0.6491(7) 0.5796(2)
C24_3 C 0.6790(3) 0.7463(8) 0.5398(2)
C25_2 C 0.6578(3) 0.6889(9) 0.4836(2)
H15_2 H 0.6307 0.7511 0.4573
C26_2 C 0.6764(3) 0.5421(9) 0.4668(2)
H16_2 H 0.6617 0.5057 0.4290
C27_3 C 0.7169(3) 0.4456(8) 0.5050(2)
C28_3 C 0.7372(3) 0.5013(7) 0.5614(2)
H17_3 H 0.7636 0.4373 0.5876
H18_3 H 0.668(3) 0.908(10) 0.5897(7)
N4_3 N 0.7350(2) 0.2966(7) 0.48183(19)
O12_2 O 0.72914(19) 0.8454(5) 0.65486(15)
O14_3 O 0.6593(2) 0.8945(6) 0.55288(17)
C1_3 C 0.6710(2) 0.7160(7) 0.1768(2)
C2_3 C 0.6279(2) 0.5872(7) 0.1514(2)
C3_3 C 0.5918(2) 0.6198(8) 0.0967(2)
H1_3 H 0.5959 0.7188 0.0791
C4_3 C 0.5506(3) 0.5098(8) 0.0684(2)
C5_3 C 0.5439(3) 0.3619(9) 0.0958(3)
H2_3 H 0.5157 0.2859 0.0777
C6_3 C 0.5788(3) 0.3299(8) 0.1492(3)
H3_3 H 0.5735 0.2317 0.1669
C7_3 C 0.6225(2) 0.4388(7) 0.1787(2)
C8_3 C 0.7600(3) 0.7973(7) 0.3582(2)
C9_3 C 0.7808(3) 0.8509(7) 0.4204(2)
C10_3 C 0.8210(3) 0.7537(8) 0.4602(2)
C11_3 C 0.8422(3) 0.8111(9) 0.5164(2)
H4_3 H 0.8693 0.7489 0.5427
C12_3 C 0.8236(3) 0.9579(9) 0.5332(2)
H5_3 H 0.8383 0.9943 0.5710
C14_3 C 0.7628(3) 0.9987(7) 0.4386(2)
H7_3 H 0.832(3) 0.592(10) 0.4103(7)
H8_3 H 0.784(3) 0.849(14) 0.1183(11)
H9_3 H 0.8337(14) 0.824(8) 0.152(3)
N1_3 N 0.5179(2) 0.5538(7) 0.0123(2)
O1_3 O 0.66953(19) 0.8528(5) 0.15388(16)
O3_3 O 0.7979(2) 0.8592(6) 0.15467(17)
O7_3 O 0.73443(19) 0.9012(5) 0.32299(15)
O8_3 O 0.8407(2) 0.6055(6) 0.44712(17)
C15_3 C 0.3290(2) 0.2840(7) 0.8232(2)
C16_3 C 0.3721(2) 0.4128(7) 0.8486(2)
C17_3 C 0.4082(2) 0.3802(8) 0.9033(2)
H12_3 H 0.4041 0.2812 0.9209
C18_3 C 0.4494(3) 0.4902(8) 0.9316(2)
C19_3 C 0.4561(3) 0.6381(9) 0.9042(3)
H13_3 H 0.4843 0.7141 0.9223
C20_3 C 0.4212(3) 0.6701(8) 0.8508(3)
H14_3 H 0.4265 0.7683 0.8331
C21_3 C 0.3775(2) 0.5612(7) 0.8213(2)
N3_3 N 0.4821(2) 0.4462(7) 0.9877(2)
O9_3 O 0.33047(19) 0.1472(5) 0.84612(16)
H19_3 H 0.216(3) 0.151(14) 0.8817(11)
H20_3 H 0.1663(14) 0.176(8) 0.848(3)
O15_3 O 0.2021(2) 0.1408(6) 0.84533(17)
H21_3 H 0.354(9) 0.820(6) 0.755(5)
H22_3 H 0.353(3) 0.936(10) 0.7199(14)
O16_3 O 0.3445(2) 0.9191(6) 0.75375(18)
O20_2 O 0.27086(19) 0.8454(5) 0.84514(15)
C13_4 C 0.2169(3) 0.0544(8) 0.0050(2)
H6_4 H 0.2636 0.0627 0.0876
H10_4 H 0.354(9) 0.180(6) 0.255(5)
H11_4 H 0.353(3) 0.064(10) 0.2199(14)
O5_4 O 0.3445(2) 0.0809(6) 0.25375(18)
C25_3 C 0.3422(3) 0.6889(9) 0.0164(2)
H15_3 H 0.3693 0.7511 0.0427
C26_3 C 0.3236(3) 0.5421(9) 0.0332(2)
H16_3 H 0.3383 0.5057 0.0710
N4_4 N 0.2650(2) 0.2966(7) 0.01817(19)
N2_4 N 0.2350(2) 0.2034(7) 0.98183(19)
C22_4 C 0.2600(3) 0.7027(7) 0.8582(2)
C23_4 C 0.2808(3) 0.6491(7) 0.9204(2)
C24_4 C 0.3210(3) 0.7463(8) 0.9602(2)
C27_4 C 0.2831(3) 0.4456(8) 0.9950(2)
C28_4 C 0.2628(3) 0.5013(7) 0.9386(2)
H17_4 H 0.2364 0.4373 0.9124
H18_4 H 0.332(3) 0.908(10) 0.9103(7)
O14_4 O 0.3407(2) 0.8945(6) 0.94712(17)
C1_4 C 0.3290(2) 0.7160(7) 0.3232(2)
C2_4 C 0.3721(2) 0.5872(7) 0.3486(2)
C3_4 C 0.4082(2) 0.6198(8) 0.4033(2)
H1_4 H 0.4041 0.7188 0.4209
C4_4 C 0.4494(3) 0.5098(8) 0.4316(2)
C5_4 C 0.4561(3) 0.3619(9) 0.4042(3)
H2_4 H 0.4843 0.2859 0.4223
C6_4 C 0.4212(3) 0.3299(8) 0.3508(3)
H3_4 H 0.4265 0.2317 0.3331
C7_4 C 0.3775(2) 0.4388(7) 0.3213(2)
C8_4 C 0.2400(3) 0.7973(7) 0.1418(2)
C9_4 C 0.2192(3) 0.8509(7) 0.0796(2)
C10_4 C 0.1790(3) 0.7537(8) 0.0398(2)
C14_4 C 0.2372(3) 0.9987(7) 0.0614(2)
H7_4 H 0.168(3) 0.592(10) 0.0897(7)
H8_4 H 0.216(3) 0.849(14) 0.3817(11)
H9_4 H 0.1663(14) 0.824(8) 0.348(3)
N1_4 N 0.4821(2) 0.5538(7) 0.4877(2)
O1_4 O 0.33047(19) 0.8528(5) 0.34612(16)
O3_4 O 0.2021(2) 0.8592(6) 0.34533(17)
O7_4 O 0.26557(19) 0.9012(5) 0.17701(15)
O8_4 O 0.1593(2) 0.6055(6) 0.05288(17)
C15_4 C 0.6710(2) 0.2840(7) 0.6768(2)
C16_4 C 0.6279(2) 0.4128(7) 0.6514(2)
C17_4 C 0.5918(2) 0.3802(8) 0.5967(2)
H12_4 H 0.5959 0.2812 0.5791
C18_4 C 0.5506(3) 0.4902(8) 0.5684(2)
C19_4 C 0.5439(3) 0.6381(9) 0.5958(3)
H13_4 H 0.5157 0.7141 0.5777
C20_4 C 0.5788(3) 0.6701(8) 0.6492(3)
H14_4 H 0.5735 0.7683 0.6669
C21_4 C 0.6225(2) 0.5612(7) 0.6787(2)
N3_4 N 0.5179(2) 0.4462(7) 0.5123(2)
O9_4 O 0.66953(19) 0.1472(5) 0.65388(16)
H19_4 H 0.784(3) 0.151(14) 0.6183(11)
H20_4 H 0.8337(14) 0.176(8) 0.652(3)
O15_4 O 0.7979(2) 0.1408(6) 0.65467(17)
H21_4 H 0.646(9) 0.820(6) 0.745(5)
H22_4 H 0.647(3) 0.936(10) 0.7801(14)
O16_4 O 0.6555(2) 0.9191(6) 0.74625(18)
C25_4 C 0.8422(3) 0.1889(9) 0.0164(2)
H15_4 H 0.8693 0.2511 0.0427
C26_4 C 0.8236(3) 0.0421(9) 0.0332(2)
H16_4 H 0.8383 0.0057 0.0710
C11_4 C 0.1578(3) 0.8111(9) 0.9836(2)
H4_4 H 0.1307 0.7489 0.9573
C12_4 C 0.1764(3) 0.9579(9) 0.9668(2)
H5_4 H 0.1617 0.9943 0.9290
loop_
_geom_bond_atom_site_label_1
_geom_bond_atom_site_label_2
_geom_bond_site_symmetry_1
_geom_bond_site_symmetry_2
C22 C23 1_555 1_555
C23 C24 1_555 1_555
C24 C25 1_555 1_555
C25 H15 1_555 1_555
C26 C25 1_555 1_555
H16 C26 1_555 1_555
C28 C23 1_555 1_555
H18 O14 1_555 1_555
O12 C22 1_555 1_555
O13 C22 1_555 1_555
O14 C24 1_555 1_555
Er4 O12 1_555 1_555
Er5 O13 1_555 1_555
C1 C2 1_555 1_555
C2 C3 1_555 1_555
C3 H1 1_555 1_555
C4 C3 1_555 1_555
C8 C9 1_555 1_555
C9 C10 1_555 1_555
C10 C11 1_555 1_555
C11 H4 1_555 1_555
C12 C11 1_555 1_555
H5 C12 1_555 1_555
C13 C12 1_555 1_555
C14 C9 1_555 1_555
H6 C14 1_555 1_555
Er1 O1 1_555 1_555
H7 O8 1_555 1_555
H8 O3 1_555 1_555
H9 O3 1_555 1_555
H10 O5 1_555 1_555
H11 O5 1_555 1_555
N1 C4 1_555 1_555
N2 C13 1_555 1_555
O1 C1 1_555 1_555
O2 C1 1_555 1_555
O3 Er1 1_555 1_555
O4 C8 1_555 1_555
O5 Er1 1_555 1_555
O7 C8 1_555 1_555
O8 C10 1_555 1_555
N4 N2 1_555 1_555
O17 Er1 1_555 1_555
O19 Er1 1_555 1_555
O21 Er1 1_555 1_555
C13 C14 1_555 1_555
Er1 O2 1_555 1_555
Er1 O7 1_555 1_555
C27 N4 1_555 1_555
H2 C5 1_555 1_555
C6 C5 1_555 1_555
H3 C6 1_555 1_555
O6 C7 1_555 1_555
C6 C7 1_555 1_555
O6 Er3 1_555 1_555
H13 C19 1_555 1_555
C20 C19 1_555 1_555
H14 C20 1_555 1_555
O11 C21 1_555 1_555
C20 C21 1_555 1_555
O11 Er6 1_555 1_555
C15 C16 1_555 1_555
C16 C17 1_555 1_555
C17 H12 1_555 1_555
C18 C17 1_555 1_555
O9 C15 1_555 1_555
O10 C15 1_555 1_555
Er2 O9 1_555 1_555
H19 O15 1_555 1_555
H20 O15 1_555 1_555
H21 O16 1_555 1_555
H22 O16 1_555 1_555
O15 Er2 1_555 1_555
O16 Er2 1_555 1_555
O18 Er2 1_555 1_555
O20 Er2 1_555 1_555
O22 Er2 1_555 1_555
O23 Er2 1_555 1_555
C18 N3 1_555 1_555
O10 Er2 1_555 1_555
H13_2 C19_2 1_555 1_555
C20_2 C19_2 1_555 1_555
H14_2 C20_2 1_555 1_555
O11_2 C21_2 1_555 1_555
C20_2 C21_2 1_555 1_555
O11_2 Er5 1_555 1_555
C15_2 C16_2 1_555 1_555
C16_2 C17_2 1_555 1_555
C17_2 H12_2 1_555 1_555
C18_2 C17_2 1_555 1_555
O9_2 C15_2 1_555 1_555
O10_2 C15_2 1_555 1_555
Er4 O9_2 1_555 1_555
H19_2 O15_2 1_555 1_555
H20_2 O15_2 1_555 1_555
H21_2 O16_2 1_555 1_555
H22_2 O16_2 1_555 1_555
O15_2 Er4 1_555 1_555
O16_2 Er4 1_555 1_555
O18_2 Er4 1_555 1_555
O22_2 Er4 1_555 1_555
O23_2 Er4 1_555 1_555
C18_2 N3_2 1_555 1_555
O10_2 Er4 1_555 1_555
C22_2 C23_2 1_555 1_555
C23_2 C24_2 1_555 1_555
C28_2 C23_2 1_555 1_555
H18_2 O14_2 1_555 1_555
O20 C22_2 1_555 1_555
O13_2 C22_2 1_555 1_555
O14_2 C24_2 1_555 1_555
Er6 O13_2 1_555 1_555
C1_2 C2_2 1_555 1_555
C2_2 C3_2 1_555 1_555
C3_2 H1_2 1_555 1_555
C4_2 C3_2 1_555 1_555
C8_2 C9_2 1_555 1_555
C9_2 C10_2 1_555 1_555
C14_2 C9_2 1_555 1_555
H6_2 C14_2 1_555 1_555
Er1_2 O1_2 1_555 1_555
H7_2 O8_2 1_555 1_555
H8_2 O3_2 1_555 1_555
H9_2 O3_2 1_555 1_555
H10_2 O5_2 1_555 1_555
H11_2 O5_2 1_555 1_555
N1_2 C4_2 1_555 1_555
O1_2 C1_2 1_555 1_555
O2_2 C1_2 1_555 1_555
O3_2 Er1_2 1_555 1_555
O4_2 C8_2 1_555 1_555
O5_2 Er1_2 1_555 1_555
O7_2 C8_2 1_555 1_555
O8_2 C10_2 1_555 1_555
O17_2 Er1_2 1_555 1_555
O19_2 Er1_2 1_555 1_555
O21_2 Er1_2 1_555 1_555
C13_2 C14_2 1_555 1_555
Er1_2 O2_2 1_555 1_555
Er1_2 O7_2 1_555 1_555
C11_2 H4_2 1_555 1_555
C12_2 C11_2 1_555 1_555
H5_2 C12_2 1_555 1_555
H2_2 C5_2 1_555 1_555
C6_2 C5_2 1_555 1_555
H3_2 C6_2 1_555 1_555
O6_2 C7_2 1_555 1_555
C6_2 C7_2 1_555 1_555
O6_2 Er3_2 1_555 1_555
H10_3 O5_3 1_555 1_555
H11_3 O5_3 1_555 1_555
N2_3 C13_3 1_555 1_555
C22_3 C23_3 1_555 1_555
C23_3 C24_3 1_555 1_555
C24_3 C25_2 1_555 1_555
C25_2 H15_2 1_555 1_555
C26_2 C25_2 1_555 1_555
H16_2 C26_2 1_555 1_555
C27_3 C26_2 1_555 1_555
C28_3 C23_3 1_555 1_555
H17_3 C28_3 1_555 1_555
H18_3 O14_3 1_555 1_555
N4_3 N2_3 1_555 1_555
O12_2 C22_3 1_555 1_555
O23 C22_3 1_555 1_555
O14_3 C24_3 1_555 1_555
C27_3 C28_3 1_555 1_555
C27_3 N4_3 1_555 1_555
C1_3 C2_3 1_555 1_555
C2_3 C3_3 1_555 1_555
C3_3 H1_3 1_555 1_555
C4_3 C3_3 1_555 1_555
C5_3 C4_3 1_555 1_555
H2_3 C5_3 1_555 1_555
C6_3 C5_3 1_555 1_555
H3_3 C6_3 1_555 1_555
C7_3 C2_3 1_555 1_555
C8_3 C9_3 1_555 1_555
C9_3 C10_3 1_555 1_555
C10_3 C11_3 1_555 1_555
C11_3 H4_3 1_555 1_555
C12_3 C11_3 1_555 1_555
H5_3 C12_3 1_555 1_555
C14_3 C9_3 1_555 1_555
Er3_2 O1_3 1_555 1_555
H7_3 O8_3 1_555 1_555
H8_3 O3_3 1_555 1_555
H9_3 O3_3 1_555 1_555
N1_3 C4_3 1_555 1_555
O1_3 C1_3 1_555 1_555
O17_2 C1_3 1_555 1_555
O3_3 Er3_2 1_555 1_555
O19_2 C8_3 1_555 1_555
O21_2 C7_3 1_555 1_555
O7_3 C8_3 1_555 1_555
O8_3 C10_3 1_555 1_555
C6_3 C7_3 1_555 1_555
Er3_2 O17_2 1_555 1_555
Er3_2 O7_3 1_555 1_555
C15_3 C16_3 1_555 1_555
C16_3 C17_3 1_555 1_555
C17_3 H12_3 1_555 1_555
C18_3 C17_3 1_555 1_555
C19_3 C18_3 1_555 1_555
H13_3 C19_3 1_555 1_555
C20_3 C19_3 1_555 1_555
H14_3 C20_3 1_555 1_555
C21_3 C16_3 1_555 1_555
O9_3 C15_3 1_555 1_555
O18_2 C15_3 1_555 1_555
O22_2 C21_3 1_555 1_555
Er5 O9_3 1_555 1_555
H19_3 O15_3 1_555 1_555
H20_3 O15_3 1_555 1_555
O15_3 Er5 1_555 1_555
C18_3 N3_3 1_555 1_555
C20_3 C21_3 1_555 1_555
O18_2 Er5 1_555 1_555
H21_3 O16_3 1_555 1_555
H22_3 O16_3 1_555 1_555
H10_4 O5_4 1_555 1_555
H11_4 O5_4 1_555 1_555
C25_3 H15_3 1_555 1_555
C26_3 C25_3 1_555 1_555
H16_3 C26_3 1_555 1_555
C22_4 C23_4 1_555 1_555
C23_4 C24_4 1_555 1_555
C28_4 C23_4 1_555 1_555
H17_4 C28_4 1_555 1_555
H18_4 O14_4 1_555 1_555
O20_2 C22_4 1_555 1_555
O23_2 C22_4 1_555 1_555
O14_4 C24_4 1_555 1_555
C27_4 C28_4 1_555 1_555
C1_4 C2_4 1_555 1_555
C2_4 C3_4 1_555 1_555
C3_4 H1_4 1_555 1_555
C4_4 C3_4 1_555 1_555
C5_4 C4_4 1_555 1_555
H2_4 C5_4 1_555 1_555
C6_4 C5_4 1_555 1_555
H3_4 C6_4 1_555 1_555
C7_4 C2_4 1_555 1_555
C8_4 C9_4 1_555 1_555
C9_4 C10_4 1_555 1_555
C14_4 C9_4 1_555 1_555
Er3 O1_4 1_555 1_555
H7_4 O8_4 1_555 1_555
H8_4 O3_4 1_555 1_555
H9_4 O3_4 1_555 1_555
N1_4 C4_4 1_555 1_555
O1_4 C1_4 1_555 1_555
O17 C1_4 1_555 1_555
O3_4 Er3 1_555 1_555
O19 C8_4 1_555 1_555
O21 C7_4 1_555 1_555
O7_4 C8_4 1_555 1_555
O8_4 C10_4 1_555 1_555
C15_4 C16_4 1_555 1_555
C16_4 C17_4 1_555 1_555
C17_4 H12_4 1_555 1_555
C18_4 C17_4 1_555 1_555
C19_4 C18_4 1_555 1_555
H13_4 C19_4 1_555 1_555
C20_4 C19_4 1_555 1_555
H14_4 C20_4 1_555 1_555
C21_4 C16_4 1_555 1_555
N3_4 N1_4 1_555 1_555
O9_4 C15_4 1_555 1_555
O18 C15_4 1_555 1_555
O22 C21_4 1_555 1_555
Er6 O9_4 1_555 1_555
H19_4 O15_4 1_555 1_555
H20_4 O15_4 1_555 1_555
O15_4 Er6 1_555 1_555
C6_4 C7_4 1_555 1_555
Er3 O17 1_555 1_555
Er3 O7_4 1_555 1_555
C18_4 N3_4 1_555 1_555
C20_4 C21_4 1_555 1_555
O18 Er6 1_555 1_555
H21_4 O16_4 1_555 1_555
H22_4 O16_4 1_555 1_555
C25_4 H15_4 1_555 1_555
C26_4 C25_4 1_555 1_555
H16_4 C26_4 1_555 1_555
C11_4 H4_4 1_555 1_555
C12_4 C11_4 1_555 1_555
H5_4 C12_4 1_555 1_555

#END
