
###############################################################################
#
# This file contains modified crystal structure data generated from the
# MOF subset of the Cambridge Structural Database (CSD) v543 
# hosted by the Cambridge Crystallographic Data Centre (CCDC).
#
# This work is licensed under the Creative Commons
# Attribution-NonCommercial-ShareAlike 4.0 International License.
# To view a copy of this license, visit
# http://creativecommons.org/licenses/by-nc-sa/4.0/
# or send a letter to
# Creative Commons, PO Box 1866, Mountain View, CA 94042, USA.
#
# CIF created using the CSD Python API on 29 September 2022
# The structure has been converted into the P1 space group
# The structure has a 3D framework
# The original CSD entry HAPNUK is in the monoclinic crystal system
# The framework has been calculated to contain at least 10.0% void space
# The void calculation uses a probe of radius 1.32A, grid spacing 0.4
#
###############################################################################

data_HAPNUK
_chemical_formula_moiety         '(C112 H88 N16 O64 Tm8)n'
_symmetry_cell_setting           triclinic
_symmetry_space_group_name_H-M   'P 1'
_symmetry_Int_Tables_number      1
_space_group_name_Hall           'P 1'
loop_
_symmetry_equiv_pos_site_id
_symmetry_equiv_pos_as_xyz
1 x,y,z
_cell_length_a                   21.8947(18)
_cell_length_b                   8.3062(7)
_cell_length_c                   23.2034(18)
_cell_angle_alpha                90
_cell_angle_beta                 100.053(4)
_cell_angle_gamma                90
_cell_volume                     4155.02
loop_
_atom_site_label
_atom_site_type_symbol
_atom_site_fract_x
_atom_site_fract_y
_atom_site_fract_z
Tm5 Tm 0.252454(11) 0.03475(3) 0.771623(9)
C3 C 0.1279(2) 0.0874(7) 0.1515(2)
C4 C 0.1709(2) 0.2160(7) 0.1768(2)
C5 C 0.0917(3) 0.1197(8) 0.0967(2)
H2 H 0.0957 0.2188 0.0791
C6 C 0.0506(3) 0.0098(8) 0.0684(2)
C13 C 0.2169(3) 0.0544(8) 0.0050(2)
H6 H 0.2636 0.0620 0.0876
H8 H 0.3540 0.0630 0.2204
H9 H 0.3549 0.1795 0.2551
N2 N 0.0179(2) 0.0537(7) 0.0123(2)
O3 O 0.16951(19) 0.3528(5) 0.15388(16)
O4 O 0.21081(17) 0.1915(5) 0.22431(14)
O8 O 0.34427(19) 0.0801(5) 0.25379(17)
C25 C 0.3422(3) 0.6889(9) 0.0164(2)
H15 H 0.3693 0.7510 0.0427
C26 C 0.3236(3) 0.5419(9) 0.0332(3)
H16 H 0.3383 0.5054 0.0709
N4 N 0.2650(2) 0.2965(7) 0.01813(19)
O18 O 0.2709(2) 0.1546(5) 0.34518(15)
Tm4 Tm 0.247546(11) 0.46525(3) 0.228377(9)
N1 N 0.2350(2) 0.2035(7) 0.98187(19)
C22 C 0.2599(3) 0.7026(7) 0.8582(2)
C23 C 0.2808(3) 0.6492(7) 0.9204(2)
C24 C 0.3209(3) 0.7463(9) 0.9602(2)
C27 C 0.2831(3) 0.4456(8) 0.9950(2)
C28 C 0.2629(2) 0.5018(6) 0.93864(18)
H17 H 0.2364 0.4380 0.9124
H18 H 0.3304 0.9095 0.9106
O12 O 0.23444(19) 0.5989(5) 0.82302(15)
O13 O 0.2709(2) 0.8454(5) 0.84518(15)
O14 O 0.3408(2) 0.8944(6) 0.94721(16)
Tm6 Tm 0.247546(11) 0.53475(3) 0.728377(9)
C1 C 0.0788(3) 0.8300(9) 0.1492(3)
H1 H 0.0734 0.7318 0.1669
C2 C 0.1225(3) 0.9388(7) 0.1787(2)
C7 C 0.0440(3) 0.8619(9) 0.0958(3)
H3 H 0.0158 0.7859 0.0776
C8 C 0.2401(3) 0.7974(7) 0.1418(2)
C9 C 0.2192(3) 0.8508(7) 0.0796(2)
C10 C 0.1791(3) 0.7537(9) 0.0398(2)
C14 C 0.2371(2) 0.9982(6) 0.06136(18)
H7 H 0.1696 0.5905 0.0894
H10 H 0.1659 0.8252 0.3471
H11 H 0.2157 0.8475 0.3817
O1 O 0.26556(19) 0.9011(5) 0.17698(15)
O2 O 0.2291(2) 0.6546(5) 0.15482(15)
O5 O 0.15584(17) 0.8961(5) 0.22950(15)
O6 O 0.1592(2) 0.6056(6) 0.05279(16)
O7 O 0.20216(19) 0.8593(6) 0.34520(15)
Tm1 Tm 0.252454(11) 0.96525(3) 0.271623(9)
O20 O 0.33049(19) 0.8528(5) 0.34612(16)
O22 O 0.28919(17) 0.6915(5) 0.27569(14)
C15 C 0.9212(3) 0.1700(9) 0.8508(3)
H12 H 0.9266 0.2682 0.8331
C16 C 0.8775(3) 0.0612(7) 0.8213(2)
C21 C 0.9560(3) 0.1381(9) 0.9042(3)
H14 H 0.9842 0.2141 0.9224
O11 O 0.84416(17) 0.1039(5) 0.77050(15)
H21 H 0.8341 0.1748 0.6529
H22 H 0.7843 0.1525 0.6183
O15 O 0.79784(19) 0.1407(6) 0.65480(15)
Tm2 Tm 0.747546(11) 0.03475(3) 0.728377(9)
O17 O 0.73444(19) 0.0989(5) 0.82302(15)
O21 O 0.66951(19) 0.1472(5) 0.65388(16)
O23 O 0.71081(17) 0.3085(5) 0.72431(14)
C17 C 0.8721(2) 0.9126(7) 0.8485(2)
C18 C 0.8291(2) 0.7840(7) 0.8232(2)
C19 C 0.9083(3) 0.8803(8) 0.9033(2)
H13 H 0.9043 0.7812 0.9209
C20 C 0.9494(3) 0.9902(8) 0.9316(2)
N3 N 0.9821(2) 0.9463(7) 0.9877(2)
O9 O 0.83049(19) 0.6472(5) 0.84612(16)
O10 O 0.78919(17) 0.8085(5) 0.77569(14)
H19 H 0.6460 0.9370 0.7796
H20 H 0.6451 0.8205 0.7449
O16 O 0.65573(19) 0.9199(5) 0.74621(17)
O19 O 0.7291(2) 0.8454(5) 0.65482(15)
Tm7 Tm 0.752454(11) 0.53475(3) 0.771623(9)
C15_2 C 0.0788(3) 0.1700(9) 0.6492(3)
H12_2 H 0.0734 0.2682 0.6669
C16_2 C 0.1225(3) 0.0612(7) 0.6787(2)
C21_2 C 0.0440(3) 0.1381(9) 0.5958(3)
H14_2 H 0.0158 0.2141 0.5776
O11_2 O 0.15584(17) 0.1039(5) 0.72950(15)
H21_2 H 0.1659 0.1748 0.8471
H22_2 H 0.2157 0.1525 0.8817
O15_2 O 0.20216(19) 0.1407(6) 0.84520(15)
O17_2 O 0.26556(19) 0.0989(5) 0.67698(15)
O21_2 O 0.33049(19) 0.1472(5) 0.84612(16)
O23_2 O 0.28919(17) 0.3085(5) 0.77569(14)
C17_2 C 0.1279(2) 0.9126(7) 0.6515(2)
C18_2 C 0.1709(2) 0.7840(7) 0.6768(2)
C19_2 C 0.0917(3) 0.8803(8) 0.5967(2)
H13_2 H 0.0957 0.7812 0.5791
C20_2 C 0.0506(3) 0.9902(8) 0.5684(2)
N3_2 N 0.0179(2) 0.9463(7) 0.5123(2)
O9_2 O 0.16951(19) 0.6472(5) 0.65388(16)
O10_2 O 0.21081(17) 0.8085(5) 0.72431(14)
H19_2 H 0.3540 0.9370 0.7204
H20_2 H 0.3549 0.8205 0.7551
O16_2 O 0.34427(19) 0.9199(5) 0.75379(17)
C3_2 C 0.8721(2) 0.0874(7) 0.3485(2)
C4_2 C 0.8291(2) 0.2160(7) 0.3232(2)
C5_2 C 0.9083(3) 0.1197(8) 0.4033(2)
H2_2 H 0.9043 0.2188 0.4209
C6_2 C 0.9494(3) 0.0098(8) 0.4316(2)
C13_2 C 0.7831(3) 0.0544(8) 0.4950(2)
H6_2 H 0.7364 0.0620 0.4124
H8_2 H 0.6460 0.0630 0.2796
H9_2 H 0.6451 0.1795 0.2449
N1_2 N 0.7650(2) 0.2035(7) 0.51813(19)
N2_2 N 0.9821(2) 0.0537(7) 0.4877(2)
O3_2 O 0.83049(19) 0.3528(5) 0.34612(16)
O4_2 O 0.78919(17) 0.1915(5) 0.27569(14)
O8_2 O 0.65573(19) 0.0801(5) 0.24621(17)
C22_2 C 0.7401(3) 0.7026(7) 0.6418(2)
C23_2 C 0.7192(3) 0.6492(7) 0.5796(2)
C24_2 C 0.6791(3) 0.7463(9) 0.5398(2)
C25_2 C 0.6578(3) 0.6889(9) 0.4836(2)
H15_2 H 0.6307 0.7510 0.4573
C26_2 C 0.6764(3) 0.5419(9) 0.4668(3)
H16_2 H 0.6617 0.5054 0.4291
C27_2 C 0.7169(3) 0.4456(8) 0.5050(2)
C28_2 C 0.7371(2) 0.5018(6) 0.56136(18)
H17_2 H 0.7636 0.4380 0.5876
H18_2 H 0.6696 0.9095 0.5894
N4_2 N 0.7350(2) 0.2965(7) 0.48187(19)
O12_2 O 0.76556(19) 0.5989(5) 0.67698(15)
O14_2 O 0.6592(2) 0.8944(6) 0.55279(16)
O18_2 O 0.7291(2) 0.1546(5) 0.15482(15)
Tm4_2 Tm 0.752454(11) 0.46525(3) 0.271623(9)
C1_2 C 0.9212(3) 0.8300(9) 0.3508(3)
H1_2 H 0.9266 0.7318 0.3331
C2_2 C 0.8775(3) 0.9388(7) 0.3213(2)
C7_2 C 0.9560(3) 0.8619(9) 0.4042(3)
H3_2 H 0.9842 0.7859 0.4224
C8_2 C 0.7599(3) 0.7974(7) 0.3582(2)
C9_2 C 0.7808(3) 0.8508(7) 0.4204(2)
C10_2 C 0.8209(3) 0.7537(9) 0.4602(2)
C11 C 0.8422(3) 0.8111(9) 0.5164(2)
H4 H 0.8693 0.7490 0.5427
C12 C 0.8236(3) 0.9581(9) 0.5332(3)
H5 H 0.8383 0.9946 0.5709
C14_2 C 0.7629(2) 0.9982(6) 0.43864(18)
H7_2 H 0.8304 0.5905 0.4106
H10_2 H 0.8341 0.8252 0.1529
H11_2 H 0.7843 0.8475 0.1183
O1_2 O 0.73444(19) 0.9011(5) 0.32302(15)
O2_2 O 0.7709(2) 0.6546(5) 0.34518(15)
O5_2 O 0.84416(17) 0.8961(5) 0.27050(15)
O6_2 O 0.8408(2) 0.6056(6) 0.44721(16)
O7_2 O 0.79784(19) 0.8593(6) 0.15480(15)
Tm1_2 Tm 0.747546(11) 0.96525(3) 0.228377(9)
O20_2 O 0.66951(19) 0.8528(5) 0.15388(16)
O22_2 O 0.71081(17) 0.6915(5) 0.22431(14)
C22_3 C 0.7599(3) 0.2026(7) 0.8582(2)
C23_3 C 0.7808(3) 0.1492(7) 0.9204(2)
C24_3 C 0.8209(3) 0.2463(9) 0.9602(2)
C28_3 C 0.7629(2) 0.0018(6) 0.93864(18)
H18_3 H 0.8304 0.4095 0.9106
O13_2 O 0.7709(2) 0.3454(5) 0.84518(15)
O14_3 O 0.8408(2) 0.3944(6) 0.94721(16)
C1_3 C 0.5788(3) 0.3300(9) 0.1492(3)
H1_3 H 0.5734 0.2318 0.1669
C2_3 C 0.6225(3) 0.4388(7) 0.1787(2)
C3_3 C 0.6279(2) 0.5874(7) 0.1515(2)
C4_3 C 0.6709(2) 0.7160(7) 0.1768(2)
C5_3 C 0.5917(3) 0.6197(8) 0.0967(2)
H2_3 H 0.5957 0.7188 0.0791
C6_3 C 0.5506(3) 0.5098(8) 0.0684(2)
C7_3 C 0.5440(3) 0.3619(9) 0.0958(3)
H3_3 H 0.5158 0.2859 0.0776
C8_3 C 0.7401(3) 0.2974(7) 0.1418(2)
C9_3 C 0.7192(3) 0.3508(7) 0.0796(2)
C10_3 C 0.6791(3) 0.2537(9) 0.0398(2)
C13_3 C 0.7169(3) 0.5544(8) 0.0050(2)
C14_3 C 0.7371(2) 0.4982(6) 0.06136(18)
H6_3 H 0.7636 0.5620 0.0876
H7_3 H 0.6696 0.0905 0.0894
H8_3 H 0.8540 0.5630 0.2204
H9_3 H 0.8549 0.6795 0.2551
H10_3 H 0.6659 0.3252 0.3471
H11_3 H 0.7157 0.3475 0.3817
N2_3 N 0.5179(2) 0.5537(7) 0.0123(2)
O1_3 O 0.76556(19) 0.4011(5) 0.17698(15)
O5_3 O 0.65584(17) 0.3961(5) 0.22950(15)
O6_3 O 0.6592(2) 0.1056(6) 0.05279(16)
O7_3 O 0.70216(19) 0.3593(6) 0.34520(15)
O8_3 O 0.84427(19) 0.5801(5) 0.25379(17)
N4_3 N 0.7650(2) 0.7965(7) 0.01813(19)
C11_2 C 0.6578(3) 0.3111(9) 0.9836(2)
H4_2 H 0.6307 0.2490 0.9573
C12_2 C 0.6764(3) 0.4581(9) 0.9668(3)
H5_2 H 0.6617 0.4946 0.9291
N1_3 N 0.7350(2) 0.7035(7) 0.98187(19)
C15_3 C 0.4212(3) 0.6700(9) 0.8508(3)
H12_3 H 0.4266 0.7682 0.8331
C16_3 C 0.3775(3) 0.5612(7) 0.8213(2)
C17_3 C 0.3721(2) 0.4126(7) 0.8485(2)
C18_3 C 0.3291(2) 0.2840(7) 0.8232(2)
C19_3 C 0.4083(3) 0.3803(8) 0.9033(2)
H13_3 H 0.4043 0.2812 0.9209
C20_3 C 0.4494(3) 0.4902(8) 0.9316(2)
C21_3 C 0.4560(3) 0.6381(9) 0.9042(3)
H14_3 H 0.4842 0.7141 0.9224
N3_3 N 0.4821(2) 0.4463(7) 0.9877(2)
O11_3 O 0.34416(17) 0.6039(5) 0.77050(15)
C27_3 C 0.7831(3) 0.9456(8) 0.9950(2)
H17_3 H 0.7364 0.9380 0.9124
H19_3 H 0.1460 0.4370 0.7796
H20_3 H 0.1451 0.3205 0.7449
H21_3 H 0.3341 0.6748 0.6529
H22_3 H 0.2843 0.6525 0.6183
O15_3 O 0.29784(19) 0.6407(6) 0.65480(15)
O16_3 O 0.15573(19) 0.4199(5) 0.74621(17)
O19_2 O 0.2291(2) 0.3454(5) 0.65482(15)
C22_4 C 0.2401(3) 0.2026(7) 0.6418(2)
C23_4 C 0.2192(3) 0.1492(7) 0.5796(2)
C24_4 C 0.1791(3) 0.2463(9) 0.5398(2)
C25_3 C 0.1578(3) 0.1889(9) 0.4836(2)
H15_3 H 0.1307 0.2510 0.4573
C26_3 C 0.1764(3) 0.0419(9) 0.4668(3)
H16_3 H 0.1617 0.0054 0.4291
C28_4 C 0.2371(2) 0.0018(6) 0.56136(18)
H18_4 H 0.1696 0.4095 0.5894
O14_4 O 0.1592(2) 0.3944(6) 0.55279(16)
C1_4 C 0.4212(3) 0.3300(9) 0.3508(3)
H1_4 H 0.4266 0.2318 0.3331
C2_4 C 0.3775(3) 0.4388(7) 0.3213(2)
C3_4 C 0.3721(2) 0.5874(7) 0.3485(2)
C4_4 C 0.3291(2) 0.7160(7) 0.3232(2)
C5_4 C 0.4083(3) 0.6197(8) 0.4033(2)
H2_4 H 0.4043 0.7188 0.4209
C6_4 C 0.4494(3) 0.5098(8) 0.4316(2)
C7_4 C 0.4560(3) 0.3619(9) 0.4042(3)
H3_4 H 0.4842 0.2859 0.4224
C8_4 C 0.2599(3) 0.2974(7) 0.3582(2)
C9_4 C 0.2808(3) 0.3508(7) 0.4204(2)
C10_4 C 0.3209(3) 0.2537(9) 0.4602(2)
C11_3 C 0.3422(3) 0.3111(9) 0.5164(2)
H4_3 H 0.3693 0.2490 0.5427
C12_3 C 0.3236(3) 0.4581(9) 0.5332(3)
H5_3 H 0.3383 0.4946 0.5709
C13_4 C 0.2831(3) 0.5544(8) 0.4950(2)
C14_4 C 0.2629(2) 0.4982(6) 0.43864(18)
H6_4 H 0.2364 0.5620 0.4124
H7_4 H 0.3304 0.0905 0.4106
H8_4 H 0.1460 0.5630 0.2796
H9_4 H 0.1451 0.6795 0.2449
H10_4 H 0.3341 0.3252 0.1529
H11_4 H 0.2843 0.3475 0.1183
N1_4 N 0.2650(2) 0.7035(7) 0.51813(19)
N2_4 N 0.4821(2) 0.5537(7) 0.4877(2)
O1_4 O 0.23444(19) 0.4011(5) 0.32302(15)
O5_4 O 0.34416(17) 0.3961(5) 0.27050(15)
O6_4 O 0.3408(2) 0.1056(6) 0.44721(16)
O7_4 O 0.29784(19) 0.3593(6) 0.15480(15)
O8_4 O 0.15573(19) 0.5801(5) 0.24621(17)
C15_4 C 0.5788(3) 0.6700(9) 0.6492(3)
H12_4 H 0.5734 0.7682 0.6669
C16_4 C 0.6225(3) 0.5612(7) 0.6787(2)
C17_4 C 0.6279(2) 0.4126(7) 0.6515(2)
C18_4 C 0.6709(2) 0.2840(7) 0.6768(2)
C19_4 C 0.5917(3) 0.3803(8) 0.5967(2)
H13_4 H 0.5957 0.2812 0.5791
C20_4 C 0.5506(3) 0.4902(8) 0.5684(2)
C21_4 C 0.5440(3) 0.6381(9) 0.5958(3)
H14_4 H 0.5158 0.7141 0.5776
N3_4 N 0.5179(2) 0.4463(7) 0.5123(2)
O11_4 O 0.65584(17) 0.6039(5) 0.72950(15)
C27_4 C 0.2169(3) 0.9456(8) 0.5050(2)
H17_4 H 0.2636 0.9380 0.5876
N4_4 N 0.2350(2) 0.7965(7) 0.48187(19)
H19_4 H 0.8540 0.4370 0.7204
H20_4 H 0.8549 0.3205 0.7551
H21_4 H 0.6659 0.6748 0.8471
H22_4 H 0.7157 0.6525 0.8817
O15_4 O 0.70216(19) 0.6407(6) 0.84520(15)
O16_4 O 0.84427(19) 0.4199(5) 0.75379(17)
C11_4 C 0.1578(3) 0.8111(9) 0.9836(2)
H4_4 H 0.1307 0.7490 0.9573
C12_4 C 0.1764(3) 0.9581(9) 0.9668(3)
H5_4 H 0.1617 0.9946 0.9291
C25_4 C 0.8422(3) 0.1889(9) 0.0164(2)
H15_4 H 0.8693 0.2510 0.0427
C26_4 C 0.8236(3) 0.0419(9) 0.0332(3)
H16_4 H 0.8383 0.0054 0.0709
loop_
_geom_bond_atom_site_label_1
_geom_bond_atom_site_label_2
_geom_bond_site_symmetry_1
_geom_bond_site_symmetry_2
C4 C3 1_555 1_555
C5 C3 1_555 1_555
H2 C5 1_555 1_555
C6 C5 1_555 1_555
H8 O8 1_555 1_555
H9 O8 1_555 1_555
N2 C6 1_555 1_555
O3 C4 1_555 1_555
O4 C4 1_555 1_555
C25 H15 1_555 1_555
C26 C25 1_555 1_555
H16 C26 1_555 1_555
Tm4 O3 1_555 1_555
O4 Tm4 1_555 1_555
C22 C23 1_555 1_555
C23 C24 1_555 1_555
C28 C23 1_555 1_555
H17 C28 1_555 1_555
H18 O14 1_555 1_555
O12 C22 1_555 1_555
O13 C22 1_555 1_555
O14 C24 1_555 1_555
Tm6 O12 1_555 1_555
C27 C28 1_555 1_555
C1 H1 1_555 1_555
C2 C1 1_555 1_555
C7 C1 1_555 1_555
H3 C7 1_555 1_555
C8 C9 1_555 1_555
C9 C10 1_555 1_555
C14 C9 1_555 1_555
H7 O6 1_555 1_555
H10 O7 1_555 1_555
H11 O7 1_555 1_555
O1 C8 1_555 1_555
O2 C8 1_555 1_555
O5 C2 1_555 1_555
O6 C10 1_555 1_555
O7 Tm1 1_555 1_555
Tm1 O1 1_555 1_555
O20 Tm1 1_555 1_555
O22 Tm1 1_555 1_555
Tm4 O2 1_555 1_555
O5 Tm1 1_555 1_555
O22 Tm4 1_555 1_555
C15 H12 1_555 1_555
C16 C15 1_555 1_555
C21 C15 1_555 1_555
H14 C21 1_555 1_555
O11 C16 1_555 1_555
H21 O15 1_555 1_555
H22 O15 1_555 1_555
O15 Tm2 1_555 1_555
O17 Tm2 1_555 1_555
O21 Tm2 1_555 1_555
O23 Tm2 1_555 1_555
O11 Tm2 1_555 1_555
C18 C17 1_555 1_555
C19 C17 1_555 1_555
H13 C19 1_555 1_555
C20 C19 1_555 1_555
O9 C18 1_555 1_555
O10 C18 1_555 1_555
H19 O16 1_555 1_555
H20 O16 1_555 1_555
Tm7 O9 1_555 1_555
C20 N3 1_555 1_555
O10 Tm7 1_555 1_555
C15_2 H12_2 1_555 1_555
C16_2 C15_2 1_555 1_555
C21_2 C15_2 1_555 1_555
H14_2 C21_2 1_555 1_555
O11_2 C16_2 1_555 1_555
H21_2 O15_2 1_555 1_555
H22_2 O15_2 1_555 1_555
O15_2 Tm5 1_555 1_555
O17_2 Tm5 1_555 1_555
O21_2 Tm5 1_555 1_555
O23_2 Tm5 1_555 1_555
O11_2 Tm5 1_555 1_555
C18_2 C17_2 1_555 1_555
C19_2 C17_2 1_555 1_555
H13_2 C19_2 1_555 1_555
C20_2 C19_2 1_555 1_555
O9_2 C18_2 1_555 1_555
O10_2 C18_2 1_555 1_555
H19_2 O16_2 1_555 1_555
H20_2 O16_2 1_555 1_555
Tm6 O9_2 1_555 1_555
C20_2 N3_2 1_555 1_555
O10_2 Tm6 1_555 1_555
C4_2 C3_2 1_555 1_555
C5_2 C3_2 1_555 1_555
H2_2 C5_2 1_555 1_555
C6_2 C5_2 1_555 1_555
H8_2 O8_2 1_555 1_555
H9_2 O8_2 1_555 1_555
N1_2 C13_2 1_555 1_555
N2_2 C6_2 1_555 1_555
O3_2 C4_2 1_555 1_555
O4_2 C4_2 1_555 1_555
C22_2 C23_2 1_555 1_555
C23_2 C24_2 1_555 1_555
C24_2 C25_2 1_555 1_555
C25_2 H15_2 1_555 1_555
C26_2 C25_2 1_555 1_555
H16_2 C26_2 1_555 1_555
C27_2 C26_2 1_555 1_555
C28_2 C23_2 1_555 1_555
H17_2 C28_2 1_555 1_555
H18_2 O14_2 1_555 1_555
N4_2 N1_2 1_555 1_555
O12_2 C22_2 1_555 1_555
O19 C22_2 1_555 1_555
O14_2 C24_2 1_555 1_555
Tm4_2 O3_2 1_555 1_555
Tm7 O12_2 1_555 1_555
O4_2 Tm4_2 1_555 1_555
C27_2 C28_2 1_555 1_555
C27_2 N4_2 1_555 1_555
C1_2 H1_2 1_555 1_555
C2_2 C1_2 1_555 1_555
C7_2 C1_2 1_555 1_555
H3_2 C7_2 1_555 1_555
C8_2 C9_2 1_555 1_555
C9_2 C10_2 1_555 1_555
C10_2 C11 1_555 1_555
C11 H4 1_555 1_555
C12 C11 1_555 1_555
H5 C12 1_555 1_555
C14_2 C9_2 1_555 1_555
H7_2 O6_2 1_555 1_555
H10_2 O7_2 1_555 1_555
H11_2 O7_2 1_555 1_555
O1_2 C8_2 1_555 1_555
O2_2 C8_2 1_555 1_555
O5_2 C2_2 1_555 1_555
O6_2 C10_2 1_555 1_555
O7_2 Tm1_2 1_555 1_555
Tm1_2 O1_2 1_555 1_555
O20_2 Tm1_2 1_555 1_555
O22_2 Tm1_2 1_555 1_555
Tm4_2 O2_2 1_555 1_555
O5_2 Tm1_2 1_555 1_555
O22_2 Tm4_2 1_555 1_555
C22_3 C23_3 1_555 1_555
C23_3 C24_3 1_555 1_555
C28_3 C23_3 1_555 1_555
H18_3 O14_3 1_555 1_555
O17 C22_3 1_555 1_555
O13_2 C22_3 1_555 1_555
O14_3 C24_3 1_555 1_555
Tm7 O13_2 1_555 1_555
C1_3 H1_3 1_555 1_555
C2_3 C1_3 1_555 1_555
C3_3 C2_3 1_555 1_555
C4_3 C3_3 1_555 1_555
C5_3 C3_3 1_555 1_555
H2_3 C5_3 1_555 1_555
C6_3 C5_3 1_555 1_555
C7_3 C1_3 1_555 1_555
H3_3 C7_3 1_555 1_555
C8_3 C9_3 1_555 1_555
C9_3 C10_3 1_555 1_555
C14_3 C9_3 1_555 1_555
H6_3 C14_3 1_555 1_555
H7_3 O6_3 1_555 1_555
H8_3 O8_3 1_555 1_555
H9_3 O8_3 1_555 1_555
H10_3 O7_3 1_555 1_555
H11_3 O7_3 1_555 1_555
N2_3 C6_3 1_555 1_555
O1_3 C8_3 1_555 1_555
O18_2 C8_3 1_555 1_555
O20_2 C4_3 1_555 1_555
O22_2 C4_3 1_555 1_555
O5_3 C2_3 1_555 1_555
O6_3 C10_3 1_555 1_555
O7_3 Tm4_2 1_555 1_555
O8_3 Tm4_2 1_555 1_555
Tm4_2 O1_3 1_555 1_555
C6_3 C7_3 1_555 1_555
C13_3 C14_3 1_555 1_555
O5_3 Tm4_2 1_555 1_555
C11_2 H4_2 1_555 1_555
C12_2 C11_2 1_555 1_555
H5_2 C12_2 1_555 1_555
C15_3 H12_3 1_555 1_555
C16_3 C15_3 1_555 1_555
C17_3 C16_3 1_555 1_555
C18_3 C17_3 1_555 1_555
C19_3 C17_3 1_555 1_555
H13_3 C19_3 1_555 1_555
C20_3 C19_3 1_555 1_555
C21_3 C15_3 1_555 1_555
H14_3 C21_3 1_555 1_555
O21_2 C18_3 1_555 1_555
O23_2 C18_3 1_555 1_555
O11_3 C16_3 1_555 1_555
H19_3 O16_3 1_555 1_555
H20_3 O16_3 1_555 1_555
H21_3 O15_3 1_555 1_555
H22_3 O15_3 1_555 1_555
O15_3 Tm6 1_555 1_555
O16_3 Tm6 1_555 1_555
Tm6 O23_2 1_555 1_555
O19_2 Tm6 1_555 1_555
C20_3 C21_3 1_555 1_555
C20_3 N3_3 1_555 1_555
O11_3 Tm6 1_555 1_555
C22_4 C23_4 1_555 1_555
C23_4 C24_4 1_555 1_555
C24_4 C25_3 1_555 1_555
C25_3 H15_3 1_555 1_555
C26_3 C25_3 1_555 1_555
H16_3 C26_3 1_555 1_555
C28_4 C23_4 1_555 1_555
H18_4 O14_4 1_555 1_555
O17_2 C22_4 1_555 1_555
O19_2 C22_4 1_555 1_555
O14_4 C24_4 1_555 1_555
C1_4 H1_4 1_555 1_555
C2_4 C1_4 1_555 1_555
C3_4 C2_4 1_555 1_555
C4_4 C3_4 1_555 1_555
C5_4 C3_4 1_555 1_555
H2_4 C5_4 1_555 1_555
C6_4 C5_4 1_555 1_555
C7_4 C1_4 1_555 1_555
H3_4 C7_4 1_555 1_555
C8_4 C9_4 1_555 1_555
C9_4 C10_4 1_555 1_555
C10_4 C11_3 1_555 1_555
C11_3 H4_3 1_555 1_555
C12_3 C11_3 1_555 1_555
H5_3 C12_3 1_555 1_555
C13_4 C12_3 1_555 1_555
C14_4 C9_4 1_555 1_555
H6_4 C14_4 1_555 1_555
H7_4 O6_4 1_555 1_555
H8_4 O8_4 1_555 1_555
H9_4 O8_4 1_555 1_555
H10_4 O7_4 1_555 1_555
H11_4 O7_4 1_555 1_555
N1_4 C13_4 1_555 1_555
N2_4 C6_4 1_555 1_555
O1_4 C8_4 1_555 1_555
O18 C8_4 1_555 1_555
O20 C4_4 1_555 1_555
O22 C4_4 1_555 1_555
O5_4 C2_4 1_555 1_555
O6_4 C10_4 1_555 1_555
O7_4 Tm4 1_555 1_555
O8_4 Tm4 1_555 1_555
Tm4 O1_4 1_555 1_555
C15_4 H12_4 1_555 1_555
C16_4 C15_4 1_555 1_555
C17_4 C16_4 1_555 1_555
C18_4 C17_4 1_555 1_555
C19_4 C17_4 1_555 1_555
H13_4 C19_4 1_555 1_555
C20_4 C19_4 1_555 1_555
C21_4 C15_4 1_555 1_555
H14_4 C21_4 1_555 1_555
N3_4 N2_4 1_555 1_555
O21 C18_4 1_555 1_555
O23 C18_4 1_555 1_555
O11_4 C16_4 1_555 1_555
N4_4 N1_4 1_555 1_555
H19_4 O16_4 1_555 1_555
H20_4 O16_4 1_555 1_555
H21_4 O15_4 1_555 1_555
H22_4 O15_4 1_555 1_555
O15_4 Tm7 1_555 1_555
O16_4 Tm7 1_555 1_555
Tm7 O23 1_555 1_555
C6_4 C7_4 1_555 1_555
C13_4 C14_4 1_555 1_555
O5_4 Tm4 1_555 1_555
C20_4 C21_4 1_555 1_555
C20_4 N3_4 1_555 1_555
O11_4 Tm7 1_555 1_555
C27_4 N4_4 1_555 1_555
C11_4 H4_4 1_555 1_555
C12_4 C11_4 1_555 1_555
H5_4 C12_4 1_555 1_555
C25_4 H15_4 1_555 1_555
C26_4 C25_4 1_555 1_555
H16_4 C26_4 1_555 1_555

#END
