
###############################################################################
#
# This file contains modified crystal structure data generated from the
# MOF subset of the Cambridge Structural Database (CSD) v543 
# hosted by the Cambridge Crystallographic Data Centre (CCDC).
#
# This work is licensed under the Creative Commons
# Attribution-NonCommercial-ShareAlike 4.0 International License.
# To view a copy of this license, visit
# http://creativecommons.org/licenses/by-nc-sa/4.0/
# or send a letter to
# Creative Commons, PO Box 1866, Mountain View, CA 94042, USA.
#
# CIF created using the CSD Python API on 29 September 2022
# The structure has been converted into the P1 space group
# The structure has a 3D framework
# The original CSD entry HAPPAS is in the monoclinic crystal system
# The framework has been calculated to contain at least 10.0% void space
# The void calculation uses a probe of radius 1.32A, grid spacing 0.4
# H atom positions have been added when not included in the experimental data
# Generated hydrogen atom positions removed from atoms on special positions
#
###############################################################################

data_HAPPAS
_chemical_formula_moiety         '(C112 H128 Lu8 N16 O64)n'
_symmetry_cell_setting           triclinic
_symmetry_space_group_name_H-M   'P 1'
_symmetry_Int_Tables_number      1
_space_group_name_Hall           'P 1'
loop_
_symmetry_equiv_pos_site_id
_symmetry_equiv_pos_as_xyz
1 x,y,z
_cell_length_a                   21.617(3)
_cell_length_b                   8.2378(10)
_cell_length_c                   23.158(3)
_cell_angle_alpha                90
_cell_angle_beta                 99.426(5)
_cell_angle_gamma                90
_cell_volume                     4068.22
loop_
_atom_site_label
_atom_site_type_symbol
_atom_site_fract_x
_atom_site_fract_y
_atom_site_fract_z
C10 C 0.0432(7) 0.1403(16) 0.0952(5)
H4 H 0.0165 0.2186 0.0759
C13 C 0.0779(5) 0.1718(16) 0.1501(5)
H6 H 0.0714 0.2691 0.1686
C14 C 0.1217(5) 0.0637(14) 0.1783(5)
O2 O 0.1546(3) 0.1043(9) 0.2294(3)
Lu3 Lu 0.25210(2) 0.03693(6) 0.27145(2)
C1 C 0.1723(5) 0.7851(14) 0.1780(5)
C2 C 0.0492(5) 0.9924(16) 0.0702(5)
C3 C 0.0924(5) 0.8830(13) 0.0975(5)
H1 H 0.0988 0.7863 0.0786
C4 C 0.2597(5) 0.7031(13) 0.3588(5)
C5 C 0.2630(7) 0.5028(15) 0.4388(6)
H2 H 0.2362 0.4389 0.4127
C6 C 0.3254(7) 0.5391(14) 0.5331(6)
H3 H 0.3416 0.4982 0.5699
C7 C 0.1269(5) 0.9132(16) 0.1526(5)
C8 C 0.2816(5) 0.6522(14) 0.4215(4)
C9 C 0.2840(7) 0.4469(15) 0.4952(5)
C11 C 0.3225(6) 0.7514(14) 0.4596(5)
C12 C 0.3437(7) 0.6939(18) 0.5170(5)
H5 H 0.3695 0.7583 0.5439
Lu1 Lu 0.24790(2) 0.53693(6) 0.22855(2)
N1 N 0.0181(5) 0.9483(11) 0.0129(5)
N2 N 0.2646(5) 0.3010(11) 0.5184(4)
O1 O 0.2379(5) 0.5879(14) 0.3221(3)
O3 O 0.1557(4) 0.4207(11) 0.2472(4)
O4 O 0.2122(4) 0.8093(10) 0.2249(3)
O5 O 0.1684(4) 0.6438(10) 0.1553(3)
O6 O 0.3008(4) 0.6425(13) 0.1543(3)
O7 O 0.2707(4) 0.8493(9) 0.3450(3)
O8 O 0.3399(5) 0.8990(13) 0.4459(4)
H10 H 0.2638 0.0611 0.5873
H11 H 0.1584 0.0018 0.4301
C26 C 0.2160(7) 0.0531(15) 0.5048(5)
N4 N 0.2354(5) 0.1990(11) 0.4816(4)
O18 O 0.3454(3) 0.6043(9) 0.2706(3)
O20 O 0.2878(4) 0.3093(10) 0.2751(3)
O22 O 0.2293(4) 0.3493(9) 0.1550(3)
H17 H 0.302301 0.969386 0.436552
C22 C 0.2403(5) 0.7969(13) 0.6412(5)
C23 C 0.2370(7) 0.9972(15) 0.5612(6)
C24 C 0.1746(7) 0.9609(14) 0.4669(6)
C25 C 0.2184(5) 0.8478(14) 0.5785(4)
C27 C 0.1775(6) 0.7486(14) 0.5404(5)
C28 C 0.1563(7) 0.8061(18) 0.4830(5)
H12 H 0.1305 0.7417 0.4561
O12 O 0.2621(5) 0.9121(14) 0.6779(3)
O13 O 0.2293(4) 0.6507(9) 0.6550(3)
O14 O 0.1601(5) 0.6010(13) 0.5541(4)
Lu4 Lu 0.24790(2) 0.46307(6) 0.72855(2)
Lu5 Lu 0.25210(2) 0.96307(6) 0.77145(2)
H18 H 0.138409 0.607474 0.588657
C15 C 0.8277(5) 0.2149(14) 0.8220(5)
C16 C 0.9508(5) 0.0076(16) 0.9298(5)
C17 C 0.9076(5) 0.1170(13) 0.9025(5)
H7 H 0.9012 0.2137 0.9214
C18 C 0.8731(5) 0.0868(16) 0.8474(5)
N3 N 0.9819(5) 0.0517(11) 0.9871(5)
O10 O 0.7878(4) 0.1907(10) 0.7751(3)
O11 O 0.8316(4) 0.3562(10) 0.8447(3)
Lu2 Lu 0.75210(2) 0.46307(6) 0.77145(2)
O15 O 0.8443(4) 0.5793(11) 0.7528(4)
O16 O 0.6992(4) 0.3575(13) 0.8457(3)
O17 O 0.7621(5) 0.4121(14) 0.6779(3)
O19 O 0.6546(3) 0.3957(9) 0.7294(3)
O21 O 0.7122(4) 0.6907(10) 0.7249(3)
O23 O 0.7707(4) 0.6507(9) 0.8450(3)
C19 C 0.9568(7) 0.8597(16) 0.9048(5)
H8 H 0.9835 0.7814 0.9241
C20 C 0.9221(5) 0.8282(16) 0.8499(5)
H9 H 0.9286 0.7309 0.8314
C21 C 0.8783(5) 0.9363(14) 0.8217(5)
O9 O 0.8454(3) 0.8957(9) 0.7706(3)
Lu6 Lu 0.74790(2) 0.96307(6) 0.72855(2)
C15_2 C 0.1723(5) 0.2149(14) 0.6780(5)
C16_2 C 0.0492(5) 0.0076(16) 0.5702(5)
C17_2 C 0.0924(5) 0.1170(13) 0.5975(5)
H7_2 H 0.0988 0.2137 0.5786
C18_2 C 0.1269(5) 0.0868(16) 0.6526(5)
N3_2 N 0.0181(5) 0.0517(11) 0.5129(5)
O10_2 O 0.2122(4) 0.1907(10) 0.7249(3)
O11_2 O 0.1684(4) 0.3562(10) 0.6553(3)
O15_2 O 0.1557(4) 0.5793(11) 0.7472(4)
O16_2 O 0.3008(4) 0.3575(13) 0.6543(3)
O17_2 O 0.2379(5) 0.4121(14) 0.8221(3)
O19_2 O 0.3454(3) 0.3957(9) 0.7706(3)
O21_2 O 0.2878(4) 0.6907(10) 0.7751(3)
C19_2 C 0.0432(7) 0.8597(16) 0.5952(5)
H8_2 H 0.0165 0.7814 0.5759
C20_2 C 0.0779(5) 0.8282(16) 0.6501(5)
H9_2 H 0.0714 0.7309 0.6686
C21_2 C 0.1217(5) 0.9363(14) 0.6783(5)
O9_2 O 0.1546(3) 0.8957(9) 0.7294(3)
C10_2 C 0.9568(7) 0.1403(16) 0.4048(5)
H4_2 H 0.9835 0.2186 0.4241
C13_2 C 0.9221(5) 0.1718(16) 0.3499(5)
H6_2 H 0.9286 0.2691 0.3314
C14_2 C 0.8783(5) 0.0637(14) 0.3217(5)
O2_2 O 0.8454(3) 0.1043(9) 0.2706(3)
Lu3_2 Lu 0.74790(2) 0.03693(6) 0.22855(2)
C1_2 C 0.8277(5) 0.7851(14) 0.3220(5)
C2_2 C 0.9508(5) 0.9924(16) 0.4298(5)
C3_2 C 0.9076(5) 0.8830(13) 0.4025(5)
H1_2 H 0.9012 0.7863 0.4214
C4_2 C 0.7403(5) 0.7031(13) 0.1412(5)
C5_2 C 0.7370(7) 0.5028(15) 0.0612(6)
H2_2 H 0.7638 0.4389 0.0873
C7_2 C 0.8731(5) 0.9132(16) 0.3474(5)
C8_2 C 0.7184(5) 0.6522(14) 0.0785(4)
C9_2 C 0.7160(7) 0.4469(15) 0.0048(5)
C11_2 C 0.6775(6) 0.7514(14) 0.0404(5)
Lu1_2 Lu 0.75210(2) 0.53693(6) 0.27145(2)
N1_2 N 0.9819(5) 0.9483(11) 0.4871(5)
O1_2 O 0.7621(5) 0.5879(14) 0.1779(3)
O3_2 O 0.8443(4) 0.4207(11) 0.2528(4)
O4_2 O 0.7878(4) 0.8093(10) 0.2751(3)
O5_2 O 0.8316(4) 0.6438(10) 0.3447(3)
O6_2 O 0.6992(4) 0.6425(13) 0.3457(3)
O7_2 O 0.7293(4) 0.8493(9) 0.1550(3)
O8_2 O 0.6601(5) 0.8990(13) 0.0541(4)
H11_2 H 0.8416 0.0018 0.0699
N4_2 N 0.7646(5) 0.1990(11) 0.0184(4)
O18_2 O 0.6546(3) 0.6043(9) 0.2294(3)
O20_2 O 0.7122(4) 0.3093(10) 0.2249(3)
O22_2 O 0.7707(4) 0.3493(9) 0.3450(3)
H17_2 H 0.697699 0.969386 0.0634482
C6_2 C 0.6746(7) 0.5391(14) 0.9669(6)
H3_2 H 0.6584 0.4982 0.9301
C12_2 C 0.6563(7) 0.6939(18) 0.9830(5)
H5_2 H 0.6305 0.7583 0.9561
N2_2 N 0.7354(5) 0.3010(11) 0.9816(4)
H10_2 H 0.7362 0.0611 0.9127
C26_2 C 0.7840(7) 0.0531(15) 0.9952(5)
C22_2 C 0.7597(5) 0.7969(13) 0.8588(5)
C23_2 C 0.7630(7) 0.9972(15) 0.9388(6)
C25_2 C 0.7816(5) 0.8478(14) 0.9215(4)
C27_2 C 0.8225(6) 0.7486(14) 0.9596(5)
O12_2 O 0.7379(5) 0.9121(14) 0.8221(3)
O14_2 O 0.8399(5) 0.6010(13) 0.9459(4)
H18_2 H 0.861591 0.607474 0.911343
O15_3 O 0.3443(4) 0.0793(11) 0.7528(4)
O23_2 O 0.2707(4) 0.1507(9) 0.8450(3)
C1_3 C 0.6723(5) 0.2851(14) 0.1780(5)
C2_3 C 0.5492(5) 0.4924(16) 0.0702(5)
C3_3 C 0.5924(5) 0.3830(13) 0.0975(5)
H1_3 H 0.5988 0.2863 0.0786
C4_3 C 0.7597(5) 0.2031(13) 0.3588(5)
C5_3 C 0.7630(7) 0.0028(15) 0.4388(6)
C6_3 C 0.8254(7) 0.0391(14) 0.5331(6)
C7_3 C 0.6269(5) 0.4132(16) 0.1526(5)
C8_3 C 0.7816(5) 0.1522(14) 0.4215(4)
C10_3 C 0.5432(7) 0.6403(16) 0.0952(5)
H4_3 H 0.5165 0.7186 0.0759
C11_3 C 0.8225(6) 0.2514(14) 0.4596(5)
C12_3 C 0.8437(7) 0.1939(18) 0.5170(5)
H5_3 H 0.8695 0.2583 0.5439
C13_3 C 0.5779(5) 0.6718(16) 0.1501(5)
H6_3 H 0.5714 0.7691 0.1686
C14_3 C 0.6217(5) 0.5637(14) 0.1783(5)
N1_3 N 0.5181(5) 0.4483(11) 0.0129(5)
O1_3 O 0.7379(5) 0.0879(14) 0.3221(3)
O5_3 O 0.6684(4) 0.1438(10) 0.1553(3)
O6_3 O 0.8008(4) 0.1425(13) 0.1543(3)
O8_3 O 0.8399(5) 0.3990(13) 0.4459(4)
H15 H 0.627987 0.00649846 0.258961
H17_3 H 0.802301 0.469386 0.436552
C15_3 C 0.3277(5) 0.7149(14) 0.8220(5)
C16_3 C 0.4508(5) 0.5076(16) 0.9298(5)
C17_3 C 0.4076(5) 0.6170(13) 0.9025(5)
H7_3 H 0.4012 0.7137 0.9214
C18_3 C 0.3731(5) 0.5868(16) 0.8474(5)
C19_3 C 0.4568(7) 0.3597(16) 0.9048(5)
H8_3 H 0.4835 0.2814 0.9241
C20_3 C 0.4221(5) 0.3282(16) 0.8499(5)
H9_3 H 0.4286 0.2309 0.8314
C21_3 C 0.3783(5) 0.4363(14) 0.8217(5)
N3_3 N 0.4819(5) 0.5517(11) 0.9871(5)
O11_3 O 0.3316(4) 0.8562(10) 0.8447(3)
O16_3 O 0.1992(4) 0.8575(13) 0.8457(3)
H2_3 H 0.7362 0.9389 0.4127
H3_3 H 0.8416 0.9982 0.5699
C9_3 C 0.7840(7) 0.9469(15) 0.4952(5)
N2_3 N 0.7646(5) 0.8010(11) 0.5184(4)
O3_3 O 0.6557(4) 0.9207(11) 0.2472(4)
C22_3 C 0.7403(5) 0.2969(13) 0.6412(5)
C23_3 C 0.7370(7) 0.4972(15) 0.5612(6)
H10_3 H 0.7638 0.5611 0.5873
C24_2 C 0.6746(7) 0.4609(14) 0.4669(6)
H11_3 H 0.6584 0.5018 0.4301
C25_3 C 0.7184(5) 0.3478(14) 0.5785(4)
C26_3 C 0.7160(7) 0.5531(15) 0.5048(5)
C27_3 C 0.6775(6) 0.2486(14) 0.5404(5)
C28_2 C 0.6563(7) 0.3061(18) 0.4830(5)
H12_2 H 0.6305 0.2417 0.4561
N4_3 N 0.7354(5) 0.6990(11) 0.4816(4)
O13_2 O 0.7293(4) 0.1507(9) 0.6550(3)
O14_3 O 0.6601(5) 0.1010(13) 0.5541(4)
H18_3 H 0.638409 0.107474 0.588657
O15_4 O 0.6557(4) 0.0793(11) 0.7472(4)
C1_4 C 0.3277(5) 0.2851(14) 0.3220(5)
C2_4 C 0.4508(5) 0.4924(16) 0.4298(5)
C3_4 C 0.4076(5) 0.3830(13) 0.4025(5)
H1_4 H 0.4012 0.2863 0.4214
C4_4 C 0.2403(5) 0.2031(13) 0.1412(5)
C5_4 C 0.2370(7) 0.0028(15) 0.0612(6)
C7_4 C 0.3731(5) 0.4132(16) 0.3474(5)
C8_4 C 0.2184(5) 0.1522(14) 0.0785(4)
C10_4 C 0.4568(7) 0.6403(16) 0.4048(5)
H4_4 H 0.4835 0.7186 0.4241
C11_4 C 0.1775(6) 0.2514(14) 0.0404(5)
C13_4 C 0.4221(5) 0.6718(16) 0.3499(5)
H6_4 H 0.4286 0.7691 0.3314
C14_4 C 0.3783(5) 0.5637(14) 0.3217(5)
N1_4 N 0.4819(5) 0.4483(11) 0.4871(5)
O1_4 O 0.2621(5) 0.0879(14) 0.1779(3)
O5_4 O 0.3316(4) 0.1438(10) 0.3447(3)
O6_4 O 0.1992(4) 0.1425(13) 0.3457(3)
O8_4 O 0.1601(5) 0.3990(13) 0.0541(4)
C15_4 C 0.6723(5) 0.7149(14) 0.6780(5)
C16_4 C 0.5492(5) 0.5076(16) 0.5702(5)
C17_4 C 0.5924(5) 0.6170(13) 0.5975(5)
H7_4 H 0.5988 0.7137 0.5786
C18_4 C 0.6269(5) 0.5868(16) 0.6526(5)
C19_4 C 0.5432(7) 0.3597(16) 0.5952(5)
H8_4 H 0.5165 0.2814 0.5759
C20_4 C 0.5779(5) 0.3282(16) 0.6501(5)
H9_4 H 0.5714 0.2309 0.6686
C21_4 C 0.6217(5) 0.4363(14) 0.6783(5)
N3_4 N 0.5181(5) 0.5517(11) 0.5129(5)
O11_4 O 0.6684(4) 0.8562(10) 0.6553(3)
O16_4 O 0.8008(4) 0.8575(13) 0.6543(3)
H15_2 H 0.372013 0.00649846 0.241039
H17_4 H 0.197699 0.469386 0.0634482
H2_4 H 0.2638 0.9389 0.0873
C9_4 C 0.2160(7) 0.9469(15) 0.0048(5)
O3_4 O 0.3443(4) 0.9207(11) 0.2528(4)
C24_3 C 0.3254(7) 0.4609(14) 0.0331(6)
H11_4 H 0.3416 0.5018 0.0699
C28_3 C 0.3437(7) 0.3061(18) 0.0170(5)
H12_3 H 0.3695 0.2417 0.0439
N4_4 N 0.2646(5) 0.6990(11) 0.0184(4)
H3_4 H 0.1584 0.9982 0.9301
N2_4 N 0.2354(5) 0.8010(11) 0.9816(4)
C22_4 C 0.2597(5) 0.2969(13) 0.8588(5)
C23_4 C 0.2630(7) 0.4972(15) 0.9388(6)
H10_4 H 0.2362 0.5611 0.9127
C25_4 C 0.2816(5) 0.3478(14) 0.9215(4)
C26_4 C 0.2840(7) 0.5531(15) 0.9952(5)
C27_4 C 0.3225(6) 0.2486(14) 0.9596(5)
O14_4 O 0.3399(5) 0.1010(13) 0.9459(4)
H18_4 H 0.361591 0.107474 0.911343
H18_5 H 0.861591 0.392526 0.411343
H17_5 H 0.697699 0.0306143 0.563448
H18_6 H 0.138409 0.392526 0.0886572
H17_6 H 0.302301 0.0306143 0.936552
H18_7 H 0.361591 0.892526 0.411343
H15_3 H 0.372013 0.993502 0.741039
H17_7 H 0.197699 0.530614 0.563448
H18_8 H 0.638409 0.892526 0.0886572
H15_4 H 0.627987 0.993502 0.758961
H17_8 H 0.802301 0.530614 0.936552
C24_4 C 0.8254(7) 0.9609(14) 0.0331(6)
C28_4 C 0.8437(7) 0.8061(18) 0.0170(5)
H12_4 H 0.8695 0.7417 0.0439
C6_4 C 0.1746(7) 0.0391(14) 0.9669(6)
C12_4 C 0.1563(7) 0.1939(18) 0.9830(5)
H5_4 H 0.1305 0.2583 0.9561
loop_
_geom_bond_atom_site_label_1
_geom_bond_atom_site_label_2
_geom_bond_site_symmetry_1
_geom_bond_site_symmetry_2
H4 C10 1_555 1_555
C13 C10 1_555 1_555
H6 C13 1_555 1_555
O2 C14 1_555 1_555
Lu3 O2 1_555 1_555
C13 C14 1_555 1_555
C1 C7 1_555 1_555
C2 C3 1_555 1_555
C3 H1 1_555 1_555
C4 C8 1_555 1_555
C5 H2 1_555 1_555
C6 H3 1_555 1_555
C7 C3 1_555 1_555
C8 C5 1_555 1_555
C9 C5 1_555 1_555
C11 C8 1_555 1_555
C12 C6 1_555 1_555
H5 C12 1_555 1_555
Lu1 O1 1_555 1_555
N1 C2 1_555 1_555
N2 C9 1_555 1_555
O1 C4 1_555 1_555
O3 Lu1 1_555 1_555
O4 C1 1_555 1_555
O5 C1 1_555 1_555
O6 Lu1 1_555 1_555
O7 C4 1_555 1_555
O8 C11 1_555 1_555
N4 N2 1_555 1_555
O18 Lu1 1_555 1_555
O20 Lu1 1_555 1_555
O22 Lu1 1_555 1_555
C6 C9 1_555 1_555
C11 C12 1_555 1_555
Lu1 O4 1_555 1_555
Lu1 O5 1_555 1_555
C26 N4 1_555 1_555
O8 H17 1_555 1_555
C22 C25 1_555 1_555
C25 C23 1_555 1_555
C27 C25 1_555 1_555
C28 C24 1_555 1_555
H12 C28 1_555 1_555
O12 C22 1_555 1_555
O13 C22 1_555 1_555
O14 C27 1_555 1_555
Lu4 O13 1_555 1_555
Lu5 O12 1_555 1_555
C27 C28 1_555 1_555
O14 H18 1_555 1_555
C15 C18 1_555 1_555
C16 C17 1_555 1_555
C17 H7 1_555 1_555
C18 C17 1_555 1_555
O10 C15 1_555 1_555
O11 C15 1_555 1_555
Lu2 O10 1_555 1_555
O15 Lu2 1_555 1_555
O16 Lu2 1_555 1_555
O17 Lu2 1_555 1_555
O19 Lu2 1_555 1_555
O21 Lu2 1_555 1_555
O23 Lu2 1_555 1_555
C16 N3 1_555 1_555
O11 Lu2 1_555 1_555
H8 C19 1_555 1_555
C20 C19 1_555 1_555
H9 C20 1_555 1_555
O9 C21 1_555 1_555
Lu6 O9 1_555 1_555
C20 C21 1_555 1_555
C15_2 C18_2 1_555 1_555
C16_2 C17_2 1_555 1_555
C17_2 H7_2 1_555 1_555
C18_2 C17_2 1_555 1_555
O10_2 C15_2 1_555 1_555
O11_2 C15_2 1_555 1_555
Lu4 O10_2 1_555 1_555
O15_2 Lu4 1_555 1_555
O16_2 Lu4 1_555 1_555
O17_2 Lu4 1_555 1_555
O19_2 Lu4 1_555 1_555
O21_2 Lu4 1_555 1_555
C16_2 N3_2 1_555 1_555
O11_2 Lu4 1_555 1_555
H8_2 C19_2 1_555 1_555
C20_2 C19_2 1_555 1_555
H9_2 C20_2 1_555 1_555
O9_2 C21_2 1_555 1_555
Lu5 O9_2 1_555 1_555
C20_2 C21_2 1_555 1_555
H4_2 C10_2 1_555 1_555
C13_2 C10_2 1_555 1_555
H6_2 C13_2 1_555 1_555
O2_2 C14_2 1_555 1_555
Lu3_2 O2_2 1_555 1_555
C13_2 C14_2 1_555 1_555
C1_2 C7_2 1_555 1_555
C2_2 C3_2 1_555 1_555
C3_2 H1_2 1_555 1_555
C4_2 C8_2 1_555 1_555
C5_2 H2_2 1_555 1_555
C7_2 C3_2 1_555 1_555
C8_2 C5_2 1_555 1_555
C9_2 C5_2 1_555 1_555
C11_2 C8_2 1_555 1_555
Lu1_2 O1_2 1_555 1_555
N1_2 C2_2 1_555 1_555
O1_2 C4_2 1_555 1_555
O3_2 Lu1_2 1_555 1_555
O4_2 C1_2 1_555 1_555
O5_2 C1_2 1_555 1_555
O6_2 Lu1_2 1_555 1_555
O7_2 C4_2 1_555 1_555
O8_2 C11_2 1_555 1_555
O18_2 Lu1_2 1_555 1_555
O20_2 Lu1_2 1_555 1_555
O22_2 Lu1_2 1_555 1_555
Lu1_2 O4_2 1_555 1_555
Lu1_2 O5_2 1_555 1_555
O8_2 H17_2 1_555 1_555
C6_2 H3_2 1_555 1_555
C12_2 C6_2 1_555 1_555
H5_2 C12_2 1_555 1_555
C22_2 C25_2 1_555 1_555
C25_2 C23_2 1_555 1_555
C27_2 C25_2 1_555 1_555
O12_2 C22_2 1_555 1_555
O23 C22_2 1_555 1_555
O14_2 C27_2 1_555 1_555
Lu6 O12_2 1_555 1_555
O14_2 H18_2 1_555 1_555
C1_3 C7_3 1_555 1_555
C2_3 C3_3 1_555 1_555
C3_3 H1_3 1_555 1_555
C4_3 C8_3 1_555 1_555
C7_3 C3_3 1_555 1_555
C8_3 C5_3 1_555 1_555
C10_3 C2_3 1_555 1_555
H4_3 C10_3 1_555 1_555
C11_3 C8_3 1_555 1_555
C12_3 C6_3 1_555 1_555
H5_3 C12_3 1_555 1_555
C13_3 C10_3 1_555 1_555
H6_3 C13_3 1_555 1_555
C14_3 C7_3 1_555 1_555
Lu3_2 O1_3 1_555 1_555
N1_3 C2_3 1_555 1_555
O1_3 C4_3 1_555 1_555
O18_2 C14_3 1_555 1_555
O20_2 C1_3 1_555 1_555
O5_3 C1_3 1_555 1_555
O6_3 Lu3_2 1_555 1_555
O22_2 C4_3 1_555 1_555
O8_3 C11_3 1_555 1_555
C11_3 C12_3 1_555 1_555
C13_3 C14_3 1_555 1_555
Lu3_2 O20_2 1_555 1_555
Lu3_2 O5_3 1_555 1_555
O8_3 H17_3 1_555 1_555
C15_3 C18_3 1_555 1_555
C16_3 C17_3 1_555 1_555
C17_3 H7_3 1_555 1_555
C18_3 C17_3 1_555 1_555
C19_3 C16_3 1_555 1_555
H8_3 C19_3 1_555 1_555
C20_3 C19_3 1_555 1_555
H9_3 C20_3 1_555 1_555
C21_3 C18_3 1_555 1_555
O19_2 C21_3 1_555 1_555
O21_2 C15_3 1_555 1_555
O11_3 C15_3 1_555 1_555
Lu5 O21_2 1_555 1_555
O16_3 Lu5 1_555 1_555
C16_3 N3_3 1_555 1_555
C20_3 C21_3 1_555 1_555
O11_3 Lu5 1_555 1_555
N2_3 C9_3 1_555 1_555
C22_3 C25_3 1_555 1_555
C23_3 H10_3 1_555 1_555
C24_2 H11_3 1_555 1_555
C25_3 C23_3 1_555 1_555
C26_3 C23_3 1_555 1_555
C27_3 C25_3 1_555 1_555
C28_2 C24_2 1_555 1_555
H12_2 C28_2 1_555 1_555
N4_3 N2_3 1_555 1_555
O17 C22_3 1_555 1_555
O13_2 C22_3 1_555 1_555
O14_3 C27_3 1_555 1_555
C24_2 C26_3 1_555 1_555
C26_3 N4_3 1_555 1_555
C27_3 C28_2 1_555 1_555
O14_3 H18_3 1_555 1_555
C1_4 C7_4 1_555 1_555
C2_4 C3_4 1_555 1_555
C3_4 H1_4 1_555 1_555
C4_4 C8_4 1_555 1_555
C7_4 C3_4 1_555 1_555
C8_4 C5_4 1_555 1_555
C10_4 C2_4 1_555 1_555
H4_4 C10_4 1_555 1_555
C11_4 C8_4 1_555 1_555
C13_4 C10_4 1_555 1_555
H6_4 C13_4 1_555 1_555
C14_4 C7_4 1_555 1_555
Lu3 O1_4 1_555 1_555
N1_4 C2_4 1_555 1_555
O1_4 C4_4 1_555 1_555
O18 C14_4 1_555 1_555
O20 C1_4 1_555 1_555
O5_4 C1_4 1_555 1_555
O6_4 Lu3 1_555 1_555
O22 C4_4 1_555 1_555
O8_4 C11_4 1_555 1_555
C15_4 C18_4 1_555 1_555
C16_4 C17_4 1_555 1_555
C17_4 H7_4 1_555 1_555
C18_4 C17_4 1_555 1_555
C19_4 C16_4 1_555 1_555
H8_4 C19_4 1_555 1_555
C20_4 C19_4 1_555 1_555
H9_4 C20_4 1_555 1_555
C21_4 C18_4 1_555 1_555
N3_4 N1_4 1_555 1_555
O19 C21_4 1_555 1_555
O21 C15_4 1_555 1_555
O11_4 C15_4 1_555 1_555
Lu6 O21 1_555 1_555
O16_4 Lu6 1_555 1_555
C13_4 C14_4 1_555 1_555
Lu3 O20 1_555 1_555
Lu3 O5_4 1_555 1_555
C16_4 N3_4 1_555 1_555
C20_4 C21_4 1_555 1_555
O11_4 Lu6 1_555 1_555
O8_4 H17_4 1_555 1_555
C24_3 H11_4 1_555 1_555
C28_3 C24_3 1_555 1_555
H12_3 C28_3 1_555 1_555
C22_4 C25_4 1_555 1_555
C23_4 H10_4 1_555 1_555
C25_4 C23_4 1_555 1_555
C26_4 C23_4 1_555 1_555
C27_4 C25_4 1_555 1_555
O17_2 C22_4 1_555 1_555
O23_2 C22_4 1_555 1_555
O14_4 C27_4 1_555 1_555
O14_4 H18_4 1_555 1_555
O8_3 H18_5 1_555 1_555
O14_3 H17_5 1_555 1_555
O8_4 H18_6 1_555 1_555
O14_4 H17_6 1_555 1_555
O8 H18_7 1_555 1_555
O14 H17_7 1_555 1_555
O8_2 H18_8 1_555 1_555
O14_2 H17_8 1_555 1_555
C28_4 C24_4 1_555 1_555
H12_4 C28_4 1_555 1_555
C12_4 C6_4 1_555 1_555
H5_4 C12_4 1_555 1_555

#END
