
###############################################################################
#
# This file contains modified crystal structure data generated from the
# MOF subset of the Cambridge Structural Database (CSD) v543 
# hosted by the Cambridge Crystallographic Data Centre (CCDC).
#
# This work is licensed under the Creative Commons
# Attribution-NonCommercial-ShareAlike 4.0 International License.
# To view a copy of this license, visit
# http://creativecommons.org/licenses/by-nc-sa/4.0/
# or send a letter to
# Creative Commons, PO Box 1866, Mountain View, CA 94042, USA.
#
# CIF created using the CSD Python API on 29 September 2022
# The structure has been converted into the P1 space group
# The structure has a 3D framework
# The original CSD entry HAPVEB is in the orthorhombic crystal system
# The framework has been calculated to contain at least 10.0% void space
# The void calculation uses a probe of radius 1.32A, grid spacing 0.4
# H atom positions have been added when not included in the experimental data
# Generated hydrogen atom positions removed from atoms on special positions
#
###############################################################################

data_HAPVEB
_chemical_formula_moiety         '(C48 H36 Nd4 O80 U15)n'
_symmetry_cell_setting           triclinic
_symmetry_space_group_name_H-M   'P 1'
_symmetry_Int_Tables_number      1
_space_group_name_Hall           'P 1'
loop_
_symmetry_equiv_pos_site_id
_symmetry_equiv_pos_as_xyz
1 x,y,z
_cell_length_a                   15.578(3)
_cell_length_b                   11.628(2)
_cell_length_c                   13.065(3)
_cell_angle_alpha                90
_cell_angle_beta                 90
_cell_angle_gamma                90
_cell_volume                     2366.61
loop_
_atom_site_label
_atom_site_type_symbol
_atom_site_fract_x
_atom_site_fract_y
_atom_site_fract_z
O8 O 0.3533(3) 0.1167(4) 0.0692(4)
O16 O 0.1749(3) 0.1305(4) 0.0310(3)
O17 O 0.1749(3) 0.3695(4) 0.0310(3)
O23 O 0.3533(3) 0.3833(4) 0.0692(4)
U1 U 0.246066(18) 0.2500 0.65944(2)
Nd1 Nd 0.28570(3) 0.2500 0.93986(3)
U2 U 0.0000 0.0000 0.0000
O1 O 0.0776(3) 0.0739(4) 0.1422(3)
O4 O 0.3872(3) 0.0697(3) 0.3963(3)
O5 O 0.3403(4) 0.2500 0.7363(5)
O6 O 0.1774(4) 0.2500 0.8116(4)
O7 O 0.3146(3) 0.1318(4) 0.5301(3)
O9 O 0.4428(5) 0.2500 0.9162(6)
C1 C 0.2305(3) 0.1295(5) 0.2830(4)
C3 C 0.1906(3) 0.1899(4) 0.2047(4)
C4 C 0.1456(3) 0.1270(4) 0.1189(4)
C5 C 0.3268(3) 0.1252(4) 0.4364(4)
C6 C 0.2714(3) 0.1902(4) 0.3617(4)
O12 O 0.1510(4) 0.2500 0.5880(5)
U4 U 0.253934(18) 0.7500 0.15944(2)
Nd4 Nd 0.21430(3) 0.7500 0.43986(3)
U5 U 0.5000 0.0000 0.5000
U6 U 0.0000 0.5000 0.0000
U7 U 0.5000 0.5000 0.5000
O13 O 0.0776(3) 0.4261(4) 0.1422(3)
O19 O 0.3872(3) 0.4303(3) 0.3963(3)
O22 O 0.3146(3) 0.3682(4) 0.5301(3)
O24 O 0.2620(3) 0.5470(4) 0.2014(3)
O25 O 0.2380(3) 0.0470(4) 0.7014(3)
O26 O 0.2380(3) 0.4530(4) 0.7014(3)
O27 O 0.2089(3) 0.5521(3) 0.3612(3)
O28 O 0.2911(3) 0.0521(3) 0.8612(3)
O29 O 0.2911(3) 0.4479(3) 0.8612(3)
C7 C 0.2305(3) 0.3705(5) 0.2830(4)
C8 C 0.2338(3) 0.5012(4) 0.2829(4)
C9 C 0.1906(3) 0.3101(4) 0.2047(4)
C10 C 0.1456(3) 0.3730(4) 0.1189(4)
C11 C 0.3268(3) 0.3748(4) 0.4364(4)
C12 C 0.2714(3) 0.3098(4) 0.3617(4)
U2_2 U -0.0000 0.0000 1.0000
O3 O 0.0049(3) 0.1294(4) 0.9299(4)
U6_2 U -0.0000 0.5000 1.0000
U2_3 U 0.0000 1.0000 0.0000
O10 O 0.2620(3) 0.9530(4) 0.2014(3)
O11 O 0.2089(3) 0.9479(3) 0.3612(3)
C2 C 0.2338(3) 0.9988(4) 0.2829(4)
U5_2 U 0.5000 1.0000 0.5000
U2_4 U 0.0000 1.0000 1.0000
O20 O 0.1128(3) 0.9303(3) 0.8963(3)
U2_5 U 1.0000 0.0000 0.0000
U6_3 U 1.0000 0.5000 0.0000
O21 O 0.8872(3) 0.0697(3) 0.1037(3)
U2_6 U 1.0000 0.0000 1.0000
U6_4 U 1.0000 0.5000 1.0000
U2_7 U 1.0000 1.0000 0.0000
O18 O 0.9951(3) 0.8706(4) 0.0701(4)
U2_8 U 1.0000 1.0000 1.0000
O14 O 0.9224(3) 0.9261(4) 0.8578(3)
C2_2 C 0.2662(3) 0.0012(4) 0.7829(4)
O14_2 O 0.5776(3) 0.0739(4) 0.3578(3)
O18_2 O 0.5049(3) 0.1294(4) 0.5701(4)
O5_2 O 0.1597(4) 0.7500 0.2363(5)
O6_2 O 0.3226(4) 0.7500 0.3116(4)
O7_2 O 0.1854(3) 0.8682(4) 0.0301(3)
O8_2 O 0.1467(3) 0.8833(4) 0.5692(4)
O9_2 O 0.0572(5) 0.7500 0.4162(6)
O12_2 O 0.3490(4) 0.7500 0.0880(5)
O16_2 O 0.3251(3) 0.8695(4) 0.5310(3)
O17_2 O 0.3251(3) 0.6305(4) 0.5310(3)
O22_2 O 0.1854(3) 0.6318(4) 0.0301(3)
O23_2 O 0.1467(3) 0.6167(4) 0.5692(4)
O1_2 O 0.4224(3) 0.9261(4) 0.6422(3)
O3_2 O 0.4951(3) 0.8706(4) 0.4299(4)
C1_2 C 0.2695(3) 0.8705(5) 0.7830(4)
C3_2 C 0.3094(3) 0.8101(4) 0.7047(4)
C4_2 C 0.3544(3) 0.8730(4) 0.6189(4)
C5_2 C 0.1732(3) 0.8748(4) 0.9364(4)
C6_2 C 0.2286(3) 0.8098(4) 0.8617(4)
O13_2 O 0.4224(3) 0.5739(4) 0.6422(3)
O19_2 O 0.1128(3) 0.5697(3) 0.8963(3)
O21_2 O 0.6128(3) 0.9303(3) 0.6037(3)
C7_2 C 0.2695(3) 0.6295(5) 0.7830(4)
C8_2 C 0.2662(3) 0.4988(4) 0.7829(4)
C9_2 C 0.3094(3) 0.6899(4) 0.7047(4)
C10_2 C 0.3544(3) 0.6270(4) 0.6189(4)
C11_2 C 0.1732(3) 0.6252(4) 0.9364(4)
C12_2 C 0.2286(3) 0.6902(4) 0.8617(4)
O18_3 O 0.0049(3) 0.3706(4) 0.9299(4)
U4_2 U 0.746066(18) 0.2500 0.84056(2)
Nd4_2 Nd 0.78570(3) 0.2500 0.56014(3)
O24_2 O 0.7380(3) 0.0470(4) 0.7986(3)
O27_2 O 0.7911(3) 0.0521(3) 0.6388(3)
C8_3 C 0.7662(3) 0.0012(4) 0.7171(4)
O3_3 O 0.9951(3) 0.6294(4) 0.0701(4)
Nd2 Nd 0.71430(3) 0.7500 0.06014(3)
O20_2 O 0.8872(3) 0.4303(3) 0.1037(3)
U1_2 U 0.753934(18) 0.7500 0.34056(2)
O1_3 O 0.9224(3) 0.5739(4) 0.8578(3)
O2 O 0.8251(3) 0.6305(4) 0.9690(3)
O4_2 O 0.6128(3) 0.5697(3) 0.6037(3)
O5_3 O 0.6597(4) 0.7500 0.2637(5)
O6_3 O 0.8226(4) 0.7500 0.1884(4)
O7_3 O 0.6854(3) 0.6318(4) 0.4699(3)
O9_3 O 0.5572(5) 0.7500 0.0838(6)
O10_2 O 0.7380(3) 0.4530(4) 0.7986(3)
O11_2 O 0.7911(3) 0.4479(3) 0.6388(3)
C1_3 C 0.7695(3) 0.6295(5) 0.7170(4)
C2_3 C 0.7662(3) 0.4988(4) 0.7171(4)
C3_3 C 0.8094(3) 0.6899(4) 0.7953(4)
C4_3 C 0.8544(3) 0.6270(4) 0.8811(4)
C5_3 C 0.6732(3) 0.6252(4) 0.5636(4)
C6_3 C 0.7286(3) 0.6902(4) 0.6383(4)
O12_3 O 0.8490(4) 0.7500 0.4120(5)
O15 O 0.8251(3) 0.8695(4) 0.9690(3)
O22_3 O 0.6854(3) 0.8682(4) 0.4699(3)
O25_2 O 0.7620(3) 0.5470(4) 0.2986(3)
O26_2 O 0.7620(3) 0.9530(4) 0.2986(3)
O28_2 O 0.7089(3) 0.5521(3) 0.1388(3)
O29_2 O 0.7089(3) 0.9479(3) 0.1388(3)
C7_3 C 0.7695(3) 0.8705(5) 0.7170(4)
C9_3 C 0.8094(3) 0.8101(4) 0.7953(4)
C10_3 C 0.8544(3) 0.8730(4) 0.8811(4)
C11_3 C 0.6732(3) 0.8748(4) 0.5636(4)
C12_3 C 0.7286(3) 0.8098(4) 0.6383(4)
O8_3 O 0.6467(3) 0.6167(4) 0.9308(4)
O23_3 O 0.6467(3) 0.8833(4) 0.9308(4)
O1_4 O 0.5776(3) 0.4261(4) 0.3578(3)
O2_2 O 0.6749(3) 0.3695(4) 0.4690(3)
O3_4 O 0.5049(3) 0.3706(4) 0.5701(4)
C1_4 C 0.7305(3) 0.3705(5) 0.2170(4)
C2_4 C 0.7338(3) 0.5012(4) 0.2171(4)
C3_4 C 0.6906(3) 0.3101(4) 0.2953(4)
C4_4 C 0.6456(3) 0.3730(4) 0.3811(4)
C5_4 C 0.8268(3) 0.3748(4) 0.0636(4)
C6_4 C 0.7714(3) 0.3098(4) 0.1383(4)
O15_2 O 0.6749(3) 0.1305(4) 0.4690(3)
O18_4 O 0.4951(3) 0.6294(4) 0.4299(4)
C7_4 C 0.7305(3) 0.1295(5) 0.2170(4)
C9_4 C 0.6906(3) 0.1899(4) 0.2953(4)
C10_4 C 0.6456(3) 0.1270(4) 0.3811(4)
C11_4 C 0.8268(3) 0.1252(4) 0.0636(4)
C12_4 C 0.7714(3) 0.1902(4) 0.1383(4)
O5_4 O 0.8403(4) 0.2500 0.7637(5)
O6_4 O 0.6774(4) 0.2500 0.6884(4)
O7_4 O 0.8146(3) 0.3682(4) 0.9699(3)
O8_4 O 0.8533(3) 0.3833(4) 0.4308(4)
O9_4 O 0.9428(5) 0.2500 0.5838(6)
O12_4 O 0.6510(4) 0.2500 0.9120(5)
O22_4 O 0.8146(3) 0.1318(4) 0.9699(3)
O23_4 O 0.8533(3) 0.1167(4) 0.4308(4)
C8_4 C 0.7338(3) 0.9988(4) 0.2171(4)
loop_
_geom_bond_atom_site_label_1
_geom_bond_atom_site_label_2
_geom_bond_site_symmetry_1
_geom_bond_site_symmetry_2
U1 O5 1_555 1_555
Nd1 O5 1_555 1_555
U2 O1 1_555 1_555
O1 C4 1_555 1_555
O16 C4 1_555 1_555
O4 C5 1_555 1_555
O6 U1 1_555 1_555
O7 U1 1_555 1_555
O9 Nd1 1_555 1_555
C3 C1 1_555 1_555
C4 C3 1_555 1_555
C5 O7 1_555 1_555
C6 C1 1_555 1_555
O12 U1 1_555 1_555
U4 O24 1_555 1_555
Nd4 O27 1_555 1_555
U5 O4 1_555 1_555
U6 O13 1_555 1_555
U7 O19 1_555 1_555
O13 C10 1_555 1_555
O19 C11 1_555 1_555
O22 U1 1_555 1_555
O24 C8 1_555 1_555
O25 U1 1_555 1_555
O26 U1 1_555 1_555
O27 C8 1_555 1_555
O28 Nd1 1_555 1_555
O29 Nd1 1_555 1_555
C7 C8 1_555 1_555
C9 C3 1_555 1_555
C10 O17 1_555 1_555
C11 O22 1_555 1_555
C12 C6 1_555 1_555
Nd1 O6 1_555 1_555
C5 C6 1_555 1_555
C7 C9 1_555 1_555
C7 C12 1_555 1_555
C9 C10 1_555 1_555
C11 C12 1_555 1_555
O3 U2_2 1_555 1_555
O10 C2 1_555 1_555
O11 C2 1_555 1_555
U4 O10 1_555 1_555
Nd4 O11 1_555 1_555
O20 U2_4 1_555 1_555
O21 U2_5 1_555 1_555
O18 U2_7 1_555 1_555
O14 U2_8 1_555 1_555
O25 C2_2 1_555 1_555
O28 C2_2 1_555 1_555
O14_2 U5 1_555 1_555
O18_2 U5 1_555 1_555
U4 O5_2 1_555 1_555
Nd4 O5_2 1_555 1_555
O6_2 U4 1_555 1_555
O7_2 U4 1_555 1_555
O8_2 Nd4 1_555 1_555
O9_2 Nd4 1_555 1_555
O12_2 U4 1_555 1_555
O16_2 Nd4 1_555 1_555
O17_2 Nd4 1_555 1_555
O22_2 U4 1_555 1_555
O23_2 Nd4 1_555 1_555
Nd4 O6_2 1_555 1_555
U5_2 O1_2 1_555 1_555
O1_2 C4_2 1_555 1_555
O16_2 C4_2 1_555 1_555
O3_2 U5_2 1_555 1_555
O20 C5_2 1_555 1_555
C3_2 C1_2 1_555 1_555
C4_2 C3_2 1_555 1_555
C6_2 C1_2 1_555 1_555
U7 O13_2 1_555 1_555
U6_2 O19_2 1_555 1_555
O13_2 C10_2 1_555 1_555
O19_2 C11_2 1_555 1_555
O21_2 U5_2 1_555 1_555
O26 C8_2 1_555 1_555
O29 C8_2 1_555 1_555
C7_2 C8_2 1_555 1_555
C9_2 C3_2 1_555 1_555
C10_2 O17_2 1_555 1_555
C12_2 C6_2 1_555 1_555
C5_2 C6_2 1_555 1_555
C7_2 C9_2 1_555 1_555
C7_2 C12_2 1_555 1_555
C9_2 C10_2 1_555 1_555
C11_2 C12_2 1_555 1_555
O18_3 U6_2 1_555 1_555
U4_2 O24_2 1_555 1_555
Nd4_2 O27_2 1_555 1_555
O24_2 C8_3 1_555 1_555
O27_2 C8_3 1_555 1_555
O3_3 U6_3 1_555 1_555
O20_2 U6_3 1_555 1_555
U1_2 O5_3 1_555 1_555
Nd2 O5_3 1_555 1_555
U6_4 O1_3 1_555 1_555
O1_3 C4_3 1_555 1_555
O2 C4_3 1_555 1_555
O4_2 C5_3 1_555 1_555
O6_3 U1_2 1_555 1_555
O7_3 U1_2 1_555 1_555
O9_3 Nd2 1_555 1_555
O10_2 C2_3 1_555 1_555
O11_2 C2_3 1_555 1_555
C1_3 C2_3 1_555 1_555
C3_3 C1_3 1_555 1_555
C4_3 C3_3 1_555 1_555
C5_3 O7_3 1_555 1_555
C6_3 C1_3 1_555 1_555
O12_3 U1_2 1_555 1_555
U4_2 O10_2 1_555 1_555
Nd4_2 O11_2 1_555 1_555
U7 O4_2 1_555 1_555
O14 C10_3 1_555 1_555
O21_2 C11_3 1_555 1_555
O22_3 U1_2 1_555 1_555
O25_2 U1_2 1_555 1_555
O26_2 U1_2 1_555 1_555
O28_2 Nd2 1_555 1_555
O29_2 Nd2 1_555 1_555
C9_3 C3_3 1_555 1_555
C10_3 O15 1_555 1_555
C11_3 O22_3 1_555 1_555
C12_3 C6_3 1_555 1_555
Nd2 O6_3 1_555 1_555
C5_3 C6_3 1_555 1_555
C7_3 C9_3 1_555 1_555
C7_3 C12_3 1_555 1_555
C9_3 C10_3 1_555 1_555
C11_3 C12_3 1_555 1_555
U7 O1_4 1_555 1_555
O1_4 C4_4 1_555 1_555
O2_2 C4_4 1_555 1_555
O3_4 U7 1_555 1_555
O20_2 C5_4 1_555 1_555
O25_2 C2_4 1_555 1_555
O28_2 C2_4 1_555 1_555
C1_4 C2_4 1_555 1_555
C3_4 C1_4 1_555 1_555
C4_4 C3_4 1_555 1_555
C6_4 C1_4 1_555 1_555
Nd4_2 O2_2 1_555 1_555
O14_2 C10_4 1_555 1_555
O15_2 Nd4_2 1_555 1_555
O18_4 U7 1_555 1_555
O21 C11_4 1_555 1_555
C9_4 C3_4 1_555 1_555
C10_4 O15_2 1_555 1_555
C12_4 C6_4 1_555 1_555
C5_4 C6_4 1_555 1_555
C7_4 C9_4 1_555 1_555
C7_4 C12_4 1_555 1_555
C9_4 C10_4 1_555 1_555
C11_4 C12_4 1_555 1_555
U4_2 O5_4 1_555 1_555
Nd4_2 O5_4 1_555 1_555
O6_4 U4_2 1_555 1_555
O7_4 U4_2 1_555 1_555
O8_4 Nd4_2 1_555 1_555
O9_4 Nd4_2 1_555 1_555
O12_4 U4_2 1_555 1_555
O22_4 U4_2 1_555 1_555
O23_4 Nd4_2 1_555 1_555
Nd4_2 O6_4 1_555 1_555
O26_2 C8_4 1_555 1_555
O29_2 C8_4 1_555 1_555

#END
