
###############################################################################
#
# This file contains modified crystal structure data generated from the
# MOF subset of the Cambridge Structural Database (CSD) v543 
# hosted by the Cambridge Crystallographic Data Centre (CCDC).
#
# This work is licensed under the Creative Commons
# Attribution-NonCommercial-ShareAlike 4.0 International License.
# To view a copy of this license, visit
# http://creativecommons.org/licenses/by-nc-sa/4.0/
# or send a letter to
# Creative Commons, PO Box 1866, Mountain View, CA 94042, USA.
#
# CIF created using the CSD Python API on 29 September 2022
# The structure has been converted into the P1 space group
# The structure has a 3D framework
# The original CSD entry HAQJIV is in the rhombohedral crystal system
# The original CSD entry HAQJIV is in a Sohncke space group
# The framework has been calculated to contain at least 10.0% void space
# The void calculation uses a probe of radius 1.32A, grid spacing 0.4
# H atom positions have been added when not included in the experimental data
#
###############################################################################

data_HAQJIV
_chemical_formula_moiety         '(C189 H180 Cu15 N18 O90)n'
_symmetry_cell_setting           triclinic
_symmetry_space_group_name_H-M   'P 1'
_symmetry_Int_Tables_number      1
_space_group_name_Hall           'P 1'
loop_
_symmetry_equiv_pos_site_id
_symmetry_equiv_pos_as_xyz
1 x,y,z
_cell_length_a                   18.616(5)
_cell_length_b                   18.616(5)
_cell_length_c                   37.566(5)
_cell_angle_alpha                90
_cell_angle_beta                 90
_cell_angle_gamma                120
_cell_volume                     11274.5
loop_
_atom_site_label
_atom_site_type_symbol
_atom_site_fract_x
_atom_site_fract_y
_atom_site_fract_z
C13 C 0.0237(7) 0.2331(7) 0.9447(3)
O6 O 0.0384(5) 0.2228(5) 0.9741(3)
O8 O 0.0737(5) 0.2989(6) 0.9267(3)
C20 C 0.003410 0.287000 0.815500
H12 H 0.027658 0.304034 0.838713
H13 H 0.034563 0.268229 0.801913
H14 H 0.004299 0.333055 0.803582
Cu4 Cu 0.18998(9) 0.37987(8) 0.94136(10)
Cu6 Cu 0.04650(7) 0.52327(11) 0.66603(10)
Cu7 Cu 0.14344(8) 0.28683(7) 0.99936(10)
Cu1 Cu 0.52331(9) 0.04654(8) 0.60803(10)
C1 C 0.6362(8) 0.0889(7) 0.6636(4)
C2 C 0.8069(7) 0.1963(7) 0.7349(4)
C3 C 0.7184(6) 0.1532(6) 0.6831(3)
O1 O 0.5860(5) 0.0307(4) 0.6826(2)
C4 C 0.8469(6) 0.2805(6) 0.6828(3)
C5 C 0.7339(8) 0.1396(8) 0.7172(3)
H1 H 0.695207 0.091832 0.728928
O2 O 0.6285(5) 0.1109(5) 0.6322(3)
C6 C 0.8620(8) 0.2646(8) 0.7167(4)
H2 H 0.911725 0.301975 0.727644
C7 C 0.7725(7) 0.2253(7) 0.6628(3)
H3 H 0.761520 0.235536 0.639791
O3 O 0.5604(4) 0.1206(4) 0.56368(19)
C8 C 0.9109(6) 0.3636(7) 0.6647(3)
O4 O 0.8896(5) 0.3710(5) 0.6324(3)
O5 O 0.9698(4) 0.4123(5) 0.6821(2)
C9 C 0.9478(9) 0.1816(7) 0.9284(4)
C10 C 0.8871(6) 0.1103(6) 0.9438(4)
H4 H 0.894706 0.101838 0.967608
C11 C 0.9323(9) 0.1965(7) 0.8950(4)
H5 H 0.970135 0.247514 0.885235
C14 C 0.8061(7) 0.0648(8) 0.8942(4)
H6 H 0.759160 0.023151 0.882937
C15 C 0.8617(7) 0.1407(6) 0.8725(5)
C16 C 0.8180(8) 0.0517(8) 0.9282(4)
N1 N 0.8205(7) 0.1803(8) 0.7691(4)
N2 N 0.8498(8) 0.1514(8) 0.8410(4)
C17 C 0.7901(16) 0.0970(11) 0.7799(5)
H7 H 0.824963 0.077164 0.769877
H8 H 0.734477 0.062735 0.770613
C18 C 0.7882(9) 0.0881(9) 0.8182(4)
H9 H 0.788998 0.037362 0.823116
H10 H 0.734630 0.078970 0.826123
C19 C 0.9133(10) 0.2161(9) 0.8192(4)
H11 H 0.891047 0.253545 0.822134
C21 C 0.9033(9) 0.2114(13) 0.7811(4)
H15 H 0.937623 0.266499 0.771260
H16 H 0.923565 0.176303 0.771740
Cu3 Cu 0.95346(8) 0.47677(12) 0.60803(10)
O11 O 0.4814(7) 0.1104(5) 0.6324(3)
O12 O 0.4425(6) 0.0302(4) 0.6821(2)
H17 H 0.60902 0.120544 0.552839
H18 H 0.514238 0.0990372 0.546196
Cu2 Cu 0.47677(8) 0.95350(7) 0.66603(10)
C12 C 0.7647(7) 0.9743(8) 0.9458(3)
O7 O 0.7765(4) 0.9609(5) 0.9746(3)
O9 O 0.7015(6) 0.9235(5) 0.9259(3)
O10 O 0.4508(5) 0.9007(5) 0.72026(19)
Cu5 Cu 0.62013(8) 0.81010(12) 0.94136(10)
Cu8 Cu 0.71317(7) 0.85660(11) 0.99936(10)
O13 O 0.3717(5) 0.8895(5) 0.6408(3)
O14 O 0.5177(6) 0.8902(4) 0.6413(3)
O15 O 0.4070(5) 0.9656(6) 0.5934(3)
O16 O 0.5553(8) 0.9652(6) 0.5926(3)
H19 H 0.458235 0.944118 0.737623
H20 H 0.392849 0.85382 0.72147
C12_2 C 0.0257(8) 0.7904(11) 0.9458(3)
O7_2 O 0.0391(5) 0.8156(6) 0.9746(3)
O9_2 O 0.0765(5) 0.7780(8) 0.9259(3)
O10_2 O 0.0993(5) 0.5501(7) 0.72026(19)
Cu5_2 Cu 0.18990(12) 0.81002(14) 0.94136(10)
Cu8_2 Cu 0.14340(11) 0.85656(13) 0.99936(10)
O13_2 O 0.1105(5) 0.4823(7) 0.6408(3)
O14_2 O 0.1098(4) 0.6276(7) 0.6413(3)
O15_2 O 0.0344(6) 0.4415(8) 0.5934(3)
O16_2 O 0.0348(6) 0.5902(10) 0.5926(3)
H19_2 H 0.0558815 0.514117 0.737623
H20_2 H 0.14618 0.539029 0.72147
C1_2 C 0.9111(7) 0.5473(11) 0.6636(4)
C2_2 C 0.8037(7) 0.6106(10) 0.7349(4)
C3_2 C 0.8468(6) 0.5652(8) 0.6831(3)
O1_2 O 0.9693(4) 0.5553(6) 0.6826(2)
C4_2 C 0.7195(6) 0.5664(8) 0.6828(3)
C5_2 C 0.8604(8) 0.5943(11) 0.7172(3)
H1_2 H 0.908168 0.603375 0.728928
O2_2 O 0.8891(5) 0.5176(7) 0.6322(3)
C6_2 C 0.7354(8) 0.5974(11) 0.7167(4)
H2_2 H 0.698025 0.609750 0.727644
C7_2 C 0.7747(7) 0.5472(10) 0.6628(3)
H3_2 H 0.764464 0.525984 0.639791
O3_2 O 0.8794(4) 0.4398(6) 0.56368(19)
C8_2 C 0.6364(7) 0.5473(9) 0.6647(3)
O4_2 O 0.6290(5) 0.5186(7) 0.6324(3)
O5_2 O 0.5877(5) 0.5575(6) 0.6821(2)
C9_2 C 0.8184(7) 0.7662(11) 0.9284(4)
C10_2 C 0.8897(6) 0.7768(8) 0.9438(4)
H4_2 H 0.898162 0.792868 0.967608
C11_2 C 0.8035(7) 0.7358(11) 0.8950(4)
H5_2 H 0.752486 0.722621 0.885235
C13_2 C 0.7669(7) 0.7906(10) 0.9447(3)
C14_2 C 0.9352(8) 0.7413(11) 0.8942(4)
H6_2 H 0.976849 0.736009 0.882937
C15_2 C 0.8593(6) 0.7210(9) 0.8725(5)
O6_2 O 0.7772(5) 0.8156(7) 0.9741(3)
O8_2 O 0.7011(6) 0.7748(8) 0.9267(3)
C16_2 C 0.9483(8) 0.7663(11) 0.9282(4)
N1_2 N 0.8197(8) 0.6402(11) 0.7691(4)
N2_2 N 0.8486(8) 0.6984(11) 0.8410(4)
C17_2 C 0.9030(11) 0.6931(19) 0.7799(5)
H7_2 H 0.922836 0.747799 0.769877
H8_2 H 0.937265 0.671742 0.770613
C18_2 C 0.9119(9) 0.7001(13) 0.8182(4)
H9_2 H 0.962638 0.751636 0.823116
H10_2 H 0.921030 0.655660 0.826123
C19_2 C 0.7839(9) 0.6972(13) 0.8192(4)
H11_2 H 0.746455 0.637502 0.822134
C20_2 C 0.713000 0.716410 0.815500
H12_2 H 0.695966 0.723624 0.838713
H13_2 H 0.731771 0.766334 0.801913
H14_2 H 0.666945 0.671244 0.803582
C21_2 C 0.7886(13) 0.6919(16) 0.7811(4)
H15_2 H 0.733501 0.671124 0.771260
H16_2 H 0.823697 0.747262 0.771740
Cu3_2 Cu 0.52323(12) 0.47669(14) 0.60803(10)
Cu6_2 Cu 0.47673(11) 0.52323(13) 0.66603(10)
H17_2 H 0.879456 0.488477 0.552839
H18_2 H 0.900963 0.415201 0.546196
C1_3 C 0.4527(11) 0.3638(8) 0.6636(4)
C2_3 C 0.3894(10) 0.1931(7) 0.7349(4)
C3_3 C 0.4348(8) 0.2816(6) 0.6831(3)
O1_3 O 0.4447(6) 0.4140(5) 0.6826(2)
C4_3 C 0.4336(8) 0.1531(6) 0.6828(3)
C5_3 C 0.4057(11) 0.2661(8) 0.7172(3)
H1_3 H 0.396625 0.304793 0.728928
O2_3 O 0.4824(7) 0.3715(5) 0.6322(3)
C6_3 C 0.4026(11) 0.1380(8) 0.7167(4)
H2_3 H 0.390250 0.088275 0.727644
C7_3 C 0.4528(10) 0.2275(7) 0.6628(3)
H3_3 H 0.474016 0.238480 0.639791
O3_3 O 0.5602(6) 0.4396(4) 0.56368(19)
C8_3 C 0.4527(9) 0.0891(6) 0.6647(3)
C9_3 C 0.2338(11) 0.0522(9) 0.9284(4)
C10_3 C 0.2232(8) 0.1129(6) 0.9438(4)
H4_3 H 0.207132 0.105294 0.967608
C11_3 C 0.2642(11) 0.0677(9) 0.8950(4)
H5_3 H 0.277379 0.029865 0.885235
C12_3 C 0.2096(11) 0.2353(7) 0.9458(3)
C14_3 C 0.2587(11) 0.1939(7) 0.8942(4)
H6_3 H 0.263991 0.240840 0.882937
C15_3 C 0.2790(9) 0.1383(7) 0.8725(5)
O7_3 O 0.1844(6) 0.2235(4) 0.9746(3)
O9_3 O 0.2220(8) 0.2985(6) 0.9259(3)
C16_3 C 0.2337(11) 0.1820(8) 0.9282(4)
O10_3 O 0.4499(7) 0.5492(5) 0.72026(19)
N1_3 N 0.3598(11) 0.1795(7) 0.7691(4)
N2_3 N 0.3016(11) 0.1502(8) 0.8410(4)
C17_3 C 0.3069(19) 0.2099(16) 0.7799(5)
H7_3 H 0.252201 0.175037 0.769877
H8_3 H 0.328258 0.265523 0.770613
C18_3 C 0.2999(13) 0.2118(9) 0.8182(4)
H9_3 H 0.248364 0.211002 0.823116
H10_3 H 0.344340 0.265370 0.826123
C19_3 C 0.3028(13) 0.0867(10) 0.8192(4)
H11_3 H 0.362498 0.108953 0.822134
C21_3 C 0.3081(16) 0.0967(9) 0.7811(4)
H15_3 H 0.328876 0.062377 0.771260
H16_3 H 0.252738 0.076435 0.771740
O13_3 O 0.5177(7) 0.6283(5) 0.6408(3)
O14_3 O 0.3724(7) 0.4823(6) 0.6413(3)
O15_3 O 0.5585(8) 0.5930(5) 0.5934(3)
O16_3 O 0.4098(10) 0.4447(8) 0.5926(3)
H17_3 H 0.511523 0.39098 0.552839
H18_3 H 0.584799 0.485762 0.546196
H19_3 H 0.485883 0.541765 0.737623
H20_3 H 0.460971 0.607151 0.72147
C13_3 C 0.2094(10) 0.9763(7) 0.9447(3)
O6_3 O 0.1844(7) 0.9616(5) 0.9741(3)
O8_3 O 0.2252(8) 0.9263(5) 0.9267(3)
C20_3 C 0.283590 0.996590 0.815500
H12_3 H 0.276376 0.972342 0.838713
H13_3 H 0.233666 0.965437 0.801913
H14_3 H 0.328756 0.995701 0.803582
C2_4 C 0.4736(7) 0.5296(7) 0.0682(4)
C3_4 C 0.3851(6) 0.4865(6) 0.0164(3)
O1_4 O 0.2527(5) 0.3640(4) 0.0159(2)
C4_4 C 0.5136(6) 0.6138(6) 0.0161(3)
C5_4 C 0.4006(8) 0.4729(8) 0.0505(3)
H1_4 H 0.361874 0.425165 0.062261
C6_4 C 0.5287(8) 0.5979(8) 0.0500(4)
H2_4 H 0.578392 0.635308 0.060977
O5_3 O 0.6365(4) 0.7456(5) 0.0154(2)
C9_4 C 0.6145(9) 0.5149(7) 0.2617(4)
C10_4 C 0.5538(6) 0.4436(6) 0.2771(4)
H4_4 H 0.561373 0.435171 0.300941
C11_4 C 0.5990(9) 0.5298(7) 0.2283(4)
H5_4 H 0.636802 0.580847 0.218568
C12_4 C 0.4314(7) 0.3076(8) 0.2791(3)
C13_4 C 0.6904(7) 0.5664(7) 0.2780(3)
C14_4 C 0.4728(7) 0.3981(8) 0.2275(4)
H6_4 H 0.425827 0.356484 0.216270
C15_4 C 0.5284(7) 0.4740(6) 0.2058(5)
O6_4 O 0.7051(5) 0.5561(5) 0.3074(3)
O7_4 O 0.4432(4) 0.2942(5) 0.3079(3)
O8_4 O 0.7404(5) 0.6322(6) 0.2600(3)
O9_4 O 0.3682(6) 0.2568(5) 0.2592(3)
C16_4 C 0.4847(8) 0.3850(8) 0.2615(4)
O10_4 O 0.1175(5) 0.2340(5) 0.05359(19)
N1_4 N 0.4872(7) 0.5136(8) 0.1024(4)
N2_4 N 0.5165(8) 0.4847(8) 0.1743(4)
C17_4 C 0.4568(16) 0.4303(11) 0.1132(5)
H7_4 H 0.491630 0.410497 0.103210
H8_4 H 0.401144 0.396068 0.103946
C18_4 C 0.4549(9) 0.4214(9) 0.1515(4)
H9_4 H 0.455665 0.370695 0.156449
H10_4 H 0.401297 0.412303 0.159456
C19_4 C 0.5800(10) 0.5494(9) 0.1525(4)
H11_4 H 0.557714 0.586878 0.155467
C20_4 C 0.670077 0.620333 0.148833
H12_4 H 0.694325 0.637367 0.172046
H13_4 H 0.701230 0.601562 0.135246
H14_4 H 0.670966 0.666388 0.136915
C21_4 C 0.5700(9) 0.5447(13) 0.1144(4)
H15_4 H 0.604290 0.599832 0.104593
H16_4 H 0.590232 0.509636 0.105073
Cu4_2 Cu 0.85664(9) 0.71321(8) 0.27470(10)
Cu5_3 Cu 0.28679(8) 0.14344(12) 0.27470(10)
Cu7_2 Cu 0.81010(8) 0.62017(7) 0.33270(10)
Cu8_3 Cu 0.37983(7) 0.18994(11) 0.33270(10)
O12_2 O 0.1092(6) 0.3635(4) 0.0154(2)
H19_4 H 0.124902 0.277452 0.0709566
H20_4 H 0.0595155 0.187153 0.0548033
C1_4 C 0.3029(8) 0.4222(7) 0.9969(4)
O2_4 O 0.2952(5) 0.4442(5) 0.9655(3)
C7_4 C 0.4392(7) 0.5586(7) 0.9961(3)
H3_4 H 0.428187 0.568869 0.973124
O3_4 O 0.2271(4) 0.4539(4) 0.89701(19)
C8_4 C 0.5776(6) 0.6969(7) 0.9980(3)
O4_3 O 0.5563(5) 0.7043(5) 0.9657(3)
O11_2 O 0.1481(7) 0.4437(5) 0.9657(3)
H17_4 H 0.275687 0.453877 0.886172
H18_4 H 0.180905 0.432371 0.879529
C9_5 C 0.4851(7) 0.0995(11) 0.2617(4)
C10_5 C 0.5564(6) 0.1101(8) 0.2771(4)
H4_5 H 0.564829 0.126201 0.300941
C11_5 C 0.4702(7) 0.0691(11) 0.2283(4)
H5_5 H 0.419153 0.055954 0.218568
C12_5 C 0.6924(8) 0.1237(11) 0.2791(3)
C13_5 C 0.4336(7) 0.1239(10) 0.2780(3)
C14_5 C 0.6019(8) 0.0746(11) 0.2275(4)
H6_5 H 0.643516 0.069342 0.216270
C15_5 C 0.5260(6) 0.0543(9) 0.2058(5)
O6_5 O 0.4439(5) 0.1489(7) 0.3074(3)
O7_5 O 0.7058(5) 0.1489(6) 0.3079(3)
O8_5 O 0.3678(6) 0.1081(8) 0.2600(3)
O9_5 O 0.7432(5) 0.1113(8) 0.2592(3)
C16_5 C 0.6150(8) 0.0996(11) 0.2615(4)
N2_5 N 0.5153(8) 0.0317(11) 0.1743(4)
C17_5 C 0.5697(11) 0.0264(19) 0.1132(5)
H7_5 H 0.589503 0.081132 0.103210
H8_5 H 0.603932 0.005075 0.103946
C18_5 C 0.5786(9) 0.0334(13) 0.1515(4)
H9_5 H 0.629305 0.084969 0.156449
C19_5 C 0.4506(9) 0.0305(13) 0.1525(4)
C20_5 C 0.379667 0.049743 0.148833
H12_5 H 0.362633 0.056957 0.172046
H13_5 H 0.398438 0.099667 0.135246
H14_5 H 0.333612 0.004577 0.136915
C21_5 C 0.4553(13) 0.0252(16) 0.1144(4)
H15_5 H 0.400168 0.004457 0.104593
H16_5 H 0.490364 0.080595 0.105073
Cu5_4 Cu 0.85656(12) 0.14336(14) 0.27470(10)
Cu8_4 Cu 0.81006(11) 0.18990(13) 0.33270(10)
C2_5 C 0.4704(7) 0.9439(10) 0.0682(4)
C3_5 C 0.5135(6) 0.8985(8) 0.0164(3)
O1_5 O 0.6360(4) 0.8886(6) 0.0159(2)
C4_5 C 0.3862(6) 0.8997(8) 0.0161(3)
C5_5 C 0.5271(8) 0.9276(11) 0.0505(3)
H1_5 H 0.574835 0.936708 0.062261
C6_5 C 0.4021(8) 0.9307(11) 0.0500(4)
H2_5 H 0.364692 0.943083 0.060977
O5_4 O 0.2544(5) 0.8908(6) 0.0154(2)
O10_5 O 0.7660(5) 0.8834(7) 0.05359(19)
N1_5 N 0.4864(8) 0.9735(11) 0.1024(4)
H10_5 H 0.587697 0.988993 0.159456
H11_5 H 0.413122 0.970835 0.155467
H19_5 H 0.722548 0.84745 0.0709566
H20_5 H 0.812847 0.872362 0.0548033
C1_5 C 0.5778(7) 0.8806(11) 0.9969(4)
O2_5 O 0.5558(5) 0.8509(7) 0.9655(3)
C7_5 C 0.4414(7) 0.8805(10) 0.9961(3)
H3_5 H 0.431131 0.859317 0.973124
O3_5 O 0.5461(4) 0.7731(6) 0.89701(19)
C8_5 C 0.3031(7) 0.8806(9) 0.9980(3)
O4_4 O 0.2957(5) 0.8519(7) 0.9657(3)
H17_5 H 0.546123 0.82181 0.886172
H18_5 H 0.567629 0.748534 0.879529
C2_6 C 0.0561(10) 0.5264(7) 0.0682(4)
C3_6 C 0.1015(8) 0.6149(6) 0.0164(3)
O1_6 O 0.1114(6) 0.7473(5) 0.0159(2)
C4_6 C 0.1003(8) 0.4864(6) 0.0161(3)
C5_6 C 0.0724(11) 0.5994(8) 0.0505(3)
H1_6 H 0.063292 0.638126 0.062261
C6_6 C 0.0693(11) 0.4713(8) 0.0500(4)
H2_6 H 0.056917 0.421608 0.060977
O10_6 O 0.1166(7) 0.8825(5) 0.05359(19)
N1_6 N 0.0265(11) 0.5128(7) 0.1024(4)
H10_6 H 0.011007 0.598703 0.159456
H11_6 H 0.029165 0.442286 0.155467
H19_6 H 0.15255 0.875098 0.0709566
H20_6 H 0.127638 0.940485 0.0548033
C1_6 C 0.1194(11) 0.6971(8) 0.9969(4)
O2_6 O 0.1491(7) 0.7048(5) 0.9655(3)
C7_6 C 0.1195(10) 0.5608(7) 0.9961(3)
H3_6 H 0.140683 0.571813 0.973124
O3_6 O 0.2269(6) 0.7729(4) 0.89701(19)
C8_6 C 0.1194(9) 0.4224(6) 0.9980(3)
H17_6 H 0.17819 0.724313 0.886172
H18_6 H 0.251466 0.819095 0.879529
C9_6 C 0.9005(11) 0.3855(9) 0.2617(4)
C10_6 C 0.8899(8) 0.4462(6) 0.2771(4)
H4_6 H 0.873799 0.438627 0.300941
C11_6 C 0.9309(11) 0.4010(9) 0.2283(4)
H5_6 H 0.944046 0.363198 0.218568
C12_6 C 0.8763(11) 0.5686(7) 0.2791(3)
C13_6 C 0.8761(10) 0.3096(7) 0.2780(3)
C14_6 C 0.9254(11) 0.5272(7) 0.2275(4)
H6_6 H 0.930658 0.574173 0.216270
C15_6 C 0.9457(9) 0.4716(7) 0.2058(5)
O6_6 O 0.8511(7) 0.2949(5) 0.3074(3)
O7_6 O 0.8511(6) 0.5568(4) 0.3079(3)
O8_6 O 0.8919(8) 0.2596(5) 0.2600(3)
O9_6 O 0.8887(8) 0.6318(6) 0.2592(3)
C16_6 C 0.9004(11) 0.5153(8) 0.2615(4)
N2_6 N 0.9683(11) 0.4835(8) 0.1743(4)
C17_6 C 0.9736(19) 0.5432(16) 0.1132(5)
H7_6 H 0.918868 0.508370 0.103210
H8_6 H 0.994925 0.598856 0.103946
C18_6 C 0.9666(13) 0.5451(9) 0.1515(4)
H9_6 H 0.915031 0.544335 0.156449
C19_6 C 0.9695(13) 0.4200(10) 0.1525(4)
C20_6 C 0.950257 0.329923 0.148833
H12_6 H 0.943043 0.305675 0.172046
H13_6 H 0.900333 0.298770 0.135246
H14_6 H 0.995423 0.329034 0.136915
C21_6 C 0.9748(16) 0.4300(9) 0.1144(4)
H15_6 H 0.995543 0.395710 0.104593
H16_6 H 0.919405 0.409768 0.105073
C8_7 C 0.2442(6) 0.0303(7) 0.3314(3)
O4_5 O 0.2229(5) 0.0377(5) 0.2991(3)
O5_5 O 0.3031(4) 0.0790(5) 0.3488(2)
C2_7 C 0.1402(7) 0.8630(7) 0.4016(4)
C3_7 C 0.0517(6) 0.8199(6) 0.3498(3)
C4_7 C 0.1802(6) 0.9472(6) 0.3495(3)
C5_7 C 0.0672(8) 0.8063(8) 0.3839(3)
H1_7 H 0.028540 0.758499 0.395595
C6_7 C 0.1953(8) 0.9313(8) 0.3834(4)
H2_7 H 0.245058 0.968642 0.394311
C7_7 C 0.1058(7) 0.8920(7) 0.3295(3)
H3_7 H 0.094853 0.902203 0.306458
C9_7 C 0.2811(9) 0.8483(7) 0.5951(4)
C10_7 C 0.2204(6) 0.7770(6) 0.6105(4)
H4_7 H 0.228039 0.768505 0.634275
C11_7 C 0.2656(9) 0.8632(7) 0.5617(4)
H5_7 H 0.303468 0.914181 0.551902
C12_7 C 0.0980(7) 0.6410(8) 0.6125(3)
C13_7 C 0.3570(7) 0.8998(7) 0.6114(3)
C14_7 C 0.1394(7) 0.7315(8) 0.5609(4)
H6_7 H 0.092493 0.689818 0.549604
C15_7 C 0.1950(7) 0.8074(6) 0.5392(5)
C16_7 C 0.1513(8) 0.7184(8) 0.5949(4)
N1_7 N 0.1538(7) 0.8470(8) 0.4358(4)
N2_7 N 0.1831(8) 0.8181(8) 0.5077(4)
C17_7 C 0.1234(16) 0.7637(11) 0.4466(5)
H7_7 H 0.158296 0.743831 0.436544
H8_7 H 0.067810 0.729402 0.437280
C18_7 C 0.1215(9) 0.7548(9) 0.4849(4)
H9_7 H 0.122331 0.704029 0.489783
H10_7 H 0.067963 0.745637 0.492790
C19_7 C 0.2466(10) 0.8828(9) 0.4859(4)
H11_7 H 0.224380 0.920212 0.488801
C20_7 C 0.336743 0.953667 0.482167
H12_7 H 0.360991 0.970701 0.505380
H13_7 H 0.367896 0.934896 0.468580
H14_7 H 0.337632 0.999722 0.470249
C21_7 C 0.2366(9) 0.8781(13) 0.4478(4)
H15_7 H 0.270956 0.933166 0.437927
H16_7 H 0.256898 0.842970 0.438407
C1_7 C 0.9695(8) 0.7556(7) 0.3303(4)
O1_7 O 0.9193(5) 0.6974(4) 0.3493(2)
O2_7 O 0.9618(5) 0.7776(5) 0.2989(3)
O3_7 O 0.8937(4) 0.7873(4) 0.23035(19)
O10_7 O 0.7841(5) 0.5674(5) 0.38693(19)
O11_3 O 0.8147(7) 0.7771(5) 0.2991(3)
O12_3 O 0.7758(6) 0.6969(4) 0.3488(2)
H17_7 H 0.942353 0.78721 0.219505
H18_7 H 0.847571 0.765704 0.212863
H19_7 H 0.791568 0.610785 0.40429
H20_7 H 0.726182 0.520487 0.388137
C1_8 C 0.2444(7) 0.2140(11) 0.3303(4)
C2_8 C 0.1370(7) 0.2773(10) 0.4016(4)
C3_8 C 0.1801(6) 0.2319(8) 0.3498(3)
O1_8 O 0.3026(4) 0.2220(6) 0.3493(2)
C4_8 C 0.0528(6) 0.2331(8) 0.3495(3)
C5_8 C 0.1937(8) 0.2610(11) 0.3839(3)
H1_8 H 0.241501 0.270042 0.395595
O2_8 O 0.2224(5) 0.1843(7) 0.2989(3)
C6_8 C 0.0687(8) 0.2641(11) 0.3834(4)
H2_8 H 0.031358 0.276417 0.394311
C7_8 C 0.1080(7) 0.2139(10) 0.3295(3)
H3_8 H 0.097797 0.192651 0.306458
O3_8 O 0.2127(4) 0.1065(6) 0.23035(19)
C9_8 C 0.1517(7) 0.4329(11) 0.5951(4)
C10_8 C 0.2230(6) 0.4435(8) 0.6105(4)
H4_8 H 0.231495 0.459535 0.634275
C11_8 C 0.1368(7) 0.4025(11) 0.5617(4)
H5_8 H 0.085819 0.389288 0.551902
C12_8 C 0.3590(8) 0.4571(11) 0.6125(3)
C13_8 C 0.1002(7) 0.4573(10) 0.6114(3)
C14_8 C 0.2685(8) 0.4080(11) 0.5609(4)
H6_8 H 0.310182 0.402676 0.549604
C15_8 C 0.1926(6) 0.3877(9) 0.5392(5)
C16_8 C 0.2816(8) 0.4330(11) 0.5949(4)
O10_8 O 0.4326(5) 0.2168(7) 0.38693(19)
N1_8 N 0.1530(8) 0.3069(11) 0.4358(4)
N2_8 N 0.1819(8) 0.3651(11) 0.5077(4)
C17_8 C 0.2363(11) 0.3598(19) 0.4466(5)
H7_8 H 0.256169 0.414466 0.436544
H8_8 H 0.270598 0.338409 0.437280
C18_8 C 0.2452(9) 0.3668(13) 0.4849(4)
H9_8 H 0.295971 0.418303 0.489783
H10_8 H 0.254363 0.322327 0.492790
C19_8 C 0.1172(9) 0.3639(13) 0.4859(4)
H11_8 H 0.079788 0.304169 0.488801
C20_8 C 0.046333 0.383077 0.482167
H12_8 H 0.029299 0.390291 0.505380
H13_8 H 0.065104 0.433001 0.468580
H14_8 H 0.000278 0.337911 0.470249
C21_8 C 0.1219(13) 0.3586(16) 0.4478(4)
H15_8 H 0.066834 0.337791 0.437927
H16_8 H 0.157030 0.413929 0.438407
H17_8 H 0.21279 0.155143 0.219505
H18_8 H 0.234296 0.0818675 0.212863
H19_8 H 0.389215 0.180783 0.40429
H20_8 H 0.479513 0.205696 0.388137
C8_8 C 0.9697(7) 0.2140(9) 0.3314(3)
O4_6 O 0.9623(5) 0.1853(7) 0.2991(3)
O5_6 O 0.9210(5) 0.2242(6) 0.3488(2)
C1_9 C 0.7860(11) 0.0305(8) 0.3303(4)
O1_9 O 0.7780(6) 0.0807(5) 0.3493(2)
O2_9 O 0.8157(7) 0.0382(5) 0.2989(3)
O3_9 O 0.8935(6) 0.1063(4) 0.23035(19)
O10_9 O 0.7832(7) 0.2159(5) 0.38693(19)
H17_9 H 0.844857 0.0576465 0.219505
H18_9 H 0.918133 0.152429 0.212863
H19_9 H 0.819217 0.208432 0.40429
H20_9 H 0.794304 0.273818 0.388137
C2_9 C 0.7227(10) 0.8598(7) 0.4016(4)
C3_9 C 0.7681(8) 0.9483(6) 0.3498(3)
C4_9 C 0.7669(8) 0.8198(6) 0.3495(3)
C5_9 C 0.7390(11) 0.9328(8) 0.3839(3)
H1_9 H 0.729958 0.971460 0.395595
C6_9 C 0.7359(11) 0.8047(8) 0.3834(4)
H2_9 H 0.723583 0.754942 0.394311
C7_9 C 0.7861(10) 0.8942(7) 0.3295(3)
H3_9 H 0.807349 0.905147 0.306458
C8_9 C 0.7860(9) 0.7558(6) 0.3314(3)
C9_9 C 0.5671(11) 0.7189(9) 0.5951(4)
C10_9 C 0.5565(8) 0.7796(6) 0.6105(4)
H4_9 H 0.540465 0.771961 0.634275
C11_9 C 0.5975(11) 0.7344(9) 0.5617(4)
H5_9 H 0.610712 0.696532 0.551902
C12_9 C 0.5429(11) 0.9020(7) 0.6125(3)
C13_9 C 0.5427(10) 0.6430(7) 0.6114(3)
C14_9 C 0.5920(11) 0.8606(7) 0.5609(4)
H6_9 H 0.597324 0.907507 0.549604
C15_9 C 0.6123(9) 0.8050(7) 0.5392(5)
C16_9 C 0.5670(11) 0.8487(8) 0.5949(4)
N1_9 N 0.6931(11) 0.8462(7) 0.4358(4)
N2_9 N 0.6349(11) 0.8169(8) 0.5077(4)
C17_9 C 0.6402(19) 0.8766(16) 0.4466(5)
H7_9 H 0.585534 0.841704 0.436544
H8_9 H 0.661591 0.932190 0.437280
C18_9 C 0.6332(13) 0.8785(9) 0.4849(4)
H9_9 H 0.581697 0.877669 0.489783
H10_9 H 0.677673 0.932037 0.492790
C19_9 C 0.6361(13) 0.7534(10) 0.4859(4)
H11_9 H 0.695831 0.775620 0.488801
C20_9 C 0.616923 0.663257 0.482167
H12_9 H 0.609709 0.639009 0.505380
H13_9 H 0.566999 0.632104 0.468580
H14_9 H 0.662089 0.662368 0.470249
C21_9 C 0.6414(16) 0.7634(9) 0.4478(4)
H15_9 H 0.662209 0.729044 0.437927
H16_9 H 0.586071 0.743102 0.438407
loop_
_geom_bond_atom_site_label_1
_geom_bond_atom_site_label_2
_geom_bond_site_symmetry_1
_geom_bond_site_symmetry_2
O6 C13 1_555 1_555
O8 C13 1_555 1_555
H12 C20 1_555 1_555
H13 C20 1_555 1_555
H14 C20 1_555 1_555
Cu4 O8 1_555 1_555
Cu7 O6 1_555 1_555
Cu1 O2 1_555 1_555
C1 C3 1_555 1_555
C2 C5 1_555 1_555
C3 C5 1_555 1_555
O1 C1 1_555 1_555
C4 C6 1_555 1_555
C5 H1 1_555 1_555
O2 C1 1_555 1_555
C6 C2 1_555 1_555
H2 C6 1_555 1_555
C7 C3 1_555 1_555
H3 C7 1_555 1_555
O3 Cu1 1_555 1_555
C8 C4 1_555 1_555
O4 C8 1_555 1_555
O5 C8 1_555 1_555
C9 C10 1_555 1_555
C10 H4 1_555 1_555
C11 C9 1_555 1_555
H5 C11 1_555 1_555
C14 H6 1_555 1_555
C15 C11 1_555 1_555
C16 C10 1_555 1_555
N1 C2 1_555 1_555
N2 C15 1_555 1_555
C17 N1 1_555 1_555
H7 C17 1_555 1_555
H8 C17 1_555 1_555
C18 N2 1_555 1_555
H9 C18 1_555 1_555
H10 C18 1_555 1_555
C19 N2 1_555 1_555
H11 C19 1_555 1_555
C21 N1 1_555 1_555
H15 C21 1_555 1_555
H16 C21 1_555 1_555
Cu3 O4 1_555 1_555
O11 Cu1 1_555 1_555
C4 C7 1_555 1_555
C14 C15 1_555 1_555
C14 C16 1_555 1_555
C17 C18 1_555 1_555
C19 C21 1_555 1_555
O3 H17 1_555 1_555
O3 H18 1_555 1_555
C12 O7 1_555 1_555
O7 Cu8 1_555 1_555
O9 C12 1_555 1_555
O10 Cu2 1_555 1_555
Cu5 O9 1_555 1_555
O13 Cu2 1_555 1_555
O14 Cu2 1_555 1_555
O10 H19 1_555 1_555
O10 H20 1_555 1_555
C12_2 O7_2 1_555 1_555
O7_2 Cu8_2 1_555 1_555
O9_2 C12_2 1_555 1_555
O10_2 Cu6 1_555 1_555
Cu5_2 O9_2 1_555 1_555
O13_2 Cu6 1_555 1_555
O14_2 Cu6 1_555 1_555
O10_2 H19_2 1_555 1_555
O10_2 H20_2 1_555 1_555
Cu3 O2_2 1_555 1_555
C1_2 C3_2 1_555 1_555
C2_2 C5_2 1_555 1_555
C3_2 C5_2 1_555 1_555
O1_2 C1_2 1_555 1_555
C4_2 C6_2 1_555 1_555
C5_2 H1_2 1_555 1_555
O2_2 C1_2 1_555 1_555
C6_2 C2_2 1_555 1_555
H2_2 C6_2 1_555 1_555
C7_2 C3_2 1_555 1_555
H3_2 C7_2 1_555 1_555
O3_2 Cu3 1_555 1_555
C8_2 C4_2 1_555 1_555
O4_2 C8_2 1_555 1_555
O5_2 C8_2 1_555 1_555
C9_2 C10_2 1_555 1_555
C10_2 H4_2 1_555 1_555
C11_2 C9_2 1_555 1_555
H5_2 C11_2 1_555 1_555
C13_2 C9_2 1_555 1_555
C14_2 H6_2 1_555 1_555
C15_2 C11_2 1_555 1_555
O6_2 C13_2 1_555 1_555
O8_2 C13_2 1_555 1_555
C16_2 C10_2 1_555 1_555
N1_2 C2_2 1_555 1_555
N2_2 C15_2 1_555 1_555
C17_2 N1_2 1_555 1_555
H7_2 C17_2 1_555 1_555
H8_2 C17_2 1_555 1_555
C18_2 N2_2 1_555 1_555
H9_2 C18_2 1_555 1_555
H10_2 C18_2 1_555 1_555
C19_2 N2_2 1_555 1_555
H11_2 C19_2 1_555 1_555
C20_2 C19_2 1_555 1_555
H12_2 C20_2 1_555 1_555
H13_2 C20_2 1_555 1_555
H14_2 C20_2 1_555 1_555
C21_2 N1_2 1_555 1_555
H15_2 C21_2 1_555 1_555
H16_2 C21_2 1_555 1_555
Cu3_2 O4_2 1_555 1_555
Cu5 O8_2 1_555 1_555
Cu6_2 O5_2 1_555 1_555
Cu8 O6_2 1_555 1_555
C4_2 C7_2 1_555 1_555
C14_2 C15_2 1_555 1_555
C14_2 C16_2 1_555 1_555
C17_2 C18_2 1_555 1_555
C19_2 C21_2 1_555 1_555
O3_2 H17_2 1_555 1_555
O3_2 H18_2 1_555 1_555
Cu3_2 O2_3 1_555 1_555
Cu6_2 O1_3 1_555 1_555
C1_3 C3_3 1_555 1_555
C2_3 C5_3 1_555 1_555
C3_3 C5_3 1_555 1_555
O1_3 C1_3 1_555 1_555
C4_3 C6_3 1_555 1_555
C5_3 H1_3 1_555 1_555
O2_3 C1_3 1_555 1_555
C6_3 C2_3 1_555 1_555
H2_3 C6_3 1_555 1_555
C7_3 C3_3 1_555 1_555
H3_3 C7_3 1_555 1_555
O3_3 Cu3_2 1_555 1_555
C8_3 C4_3 1_555 1_555
O11 C8_3 1_555 1_555
O12 C8_3 1_555 1_555
C9_3 C10_3 1_555 1_555
C10_3 H4_3 1_555 1_555
C11_3 C9_3 1_555 1_555
H5_3 C11_3 1_555 1_555
C12_3 O7_3 1_555 1_555
C14_3 H6_3 1_555 1_555
C15_3 C11_3 1_555 1_555
O7_3 Cu7 1_555 1_555
O9_3 C12_3 1_555 1_555
C16_3 C10_3 1_555 1_555
O10_3 Cu6_2 1_555 1_555
N1_3 C2_3 1_555 1_555
N2_3 C15_3 1_555 1_555
C17_3 N1_3 1_555 1_555
H7_3 C17_3 1_555 1_555
H8_3 C17_3 1_555 1_555
C18_3 N2_3 1_555 1_555
H9_3 C18_3 1_555 1_555
H10_3 C18_3 1_555 1_555
C19_3 N2_3 1_555 1_555
H11_3 C19_3 1_555 1_555
C21_3 N1_3 1_555 1_555
H15_3 C21_3 1_555 1_555
H16_3 C21_3 1_555 1_555
Cu4 O9_3 1_555 1_555
O13_3 Cu6_2 1_555 1_555
O14_3 Cu6_2 1_555 1_555
O15_3 Cu3_2 1_555 1_555
O16_3 Cu3_2 1_555 1_555
C4_3 C7_3 1_555 1_555
C12_3 C16_3 1_555 1_555
C14_3 C15_3 1_555 1_555
C14_3 C16_3 1_555 1_555
C17_3 C18_3 1_555 1_555
C19_3 C21_3 1_555 1_555
O3_3 H17_3 1_555 1_555
O3_3 H18_3 1_555 1_555
O10_3 H19_3 1_555 1_555
O10_3 H20_3 1_555 1_555
O6_3 C13_3 1_555 1_555
O8_3 C13_3 1_555 1_555
H12_3 C20_3 1_555 1_555
H13_3 C20_3 1_555 1_555
H14_3 C20_3 1_555 1_555
Cu5_2 O8_3 1_555 1_555
Cu8_2 O6_3 1_555 1_555
C2_4 C5_4 1_555 1_555
C3_4 C5_4 1_555 1_555
C4_4 C6_4 1_555 1_555
C5_4 H1_4 1_555 1_555
C6_4 C2_4 1_555 1_555
H2_4 C6_4 1_555 1_555
C9_4 C10_4 1_555 1_555
C10_4 H4_4 1_555 1_555
C11_4 C9_4 1_555 1_555
H5_4 C11_4 1_555 1_555
C12_4 O7_4 1_555 1_555
C13_4 C9_4 1_555 1_555
C14_4 H6_4 1_555 1_555
C15_4 C11_4 1_555 1_555
O6_4 C13_4 1_555 1_555
O7_4 Cu8_3 1_555 1_555
O8_4 C13_4 1_555 1_555
O9_4 C12_4 1_555 1_555
C16_4 C10_4 1_555 1_555
N1_4 C2_4 1_555 1_555
N2_4 C15_4 1_555 1_555
C17_4 N1_4 1_555 1_555
H7_4 C17_4 1_555 1_555
H8_4 C17_4 1_555 1_555
C18_4 N2_4 1_555 1_555
H9_4 C18_4 1_555 1_555
H10_4 C18_4 1_555 1_555
C19_4 N2_4 1_555 1_555
H11_4 C19_4 1_555 1_555
C20_4 C19_4 1_555 1_555
H12_4 C20_4 1_555 1_555
H13_4 C20_4 1_555 1_555
H14_4 C20_4 1_555 1_555
C21_4 N1_4 1_555 1_555
H15_4 C21_4 1_555 1_555
H16_4 C21_4 1_555 1_555
Cu4_2 O8_4 1_555 1_555
Cu5_3 O9_4 1_555 1_555
Cu7_2 O6_4 1_555 1_555
C12_4 C16_4 1_555 1_555
C14_4 C15_4 1_555 1_555
C14_4 C16_4 1_555 1_555
C17_4 C18_4 1_555 1_555
C19_4 C21_4 1_555 1_555
O10_4 H19_4 1_555 1_555
O10_4 H20_4 1_555 1_555
Cu4 O2_4 1_555 1_555
O2_4 C1_4 1_555 1_555
H3_4 C7_4 1_555 1_555
O3_4 Cu4 1_555 1_555
O4_3 C8_4 1_555 1_555
Cu5 O4_3 1_555 1_555
O11_2 Cu4 1_555 1_555
O3_4 H17_4 1_555 1_555
O3_4 H18_4 1_555 1_555
C9_5 C10_5 1_555 1_555
C10_5 H4_5 1_555 1_555
C11_5 C9_5 1_555 1_555
H5_5 C11_5 1_555 1_555
C12_5 O7_5 1_555 1_555
C13_5 C9_5 1_555 1_555
C14_5 H6_5 1_555 1_555
C15_5 C11_5 1_555 1_555
O6_5 C13_5 1_555 1_555
O7_5 Cu8_4 1_555 1_555
O8_5 C13_5 1_555 1_555
O9_5 C12_5 1_555 1_555
C16_5 C10_5 1_555 1_555
N2_5 C15_5 1_555 1_555
H7_5 C17_5 1_555 1_555
H8_5 C17_5 1_555 1_555
C18_5 N2_5 1_555 1_555
H9_5 C18_5 1_555 1_555
C19_5 N2_5 1_555 1_555
C20_5 C19_5 1_555 1_555
H12_5 C20_5 1_555 1_555
H13_5 C20_5 1_555 1_555
H14_5 C20_5 1_555 1_555
H15_5 C21_5 1_555 1_555
H16_5 C21_5 1_555 1_555
Cu5_3 O8_5 1_555 1_555
Cu5_4 O9_5 1_555 1_555
Cu8_3 O6_5 1_555 1_555
C12_5 C16_5 1_555 1_555
C14_5 C15_5 1_555 1_555
C14_5 C16_5 1_555 1_555
C17_5 C18_5 1_555 1_555
C19_5 C21_5 1_555 1_555
C2_5 C5_5 1_555 1_555
C3_5 C5_5 1_555 1_555
C4_5 C6_5 1_555 1_555
C5_5 H1_5 1_555 1_555
C6_5 C2_5 1_555 1_555
H2_5 C6_5 1_555 1_555
N1_5 C2_5 1_555 1_555
O10_5 H19_5 1_555 1_555
O10_5 H20_5 1_555 1_555
Cu5 O2_5 1_555 1_555
O2_5 C1_5 1_555 1_555
H3_5 C7_5 1_555 1_555
O3_5 Cu5 1_555 1_555
O4_4 C8_5 1_555 1_555
Cu5_2 O4_4 1_555 1_555
O3_5 H17_5 1_555 1_555
O3_5 H18_5 1_555 1_555
C2_6 C5_6 1_555 1_555
C3_6 C5_6 1_555 1_555
C4_6 C6_6 1_555 1_555
C5_6 H1_6 1_555 1_555
C6_6 C2_6 1_555 1_555
H2_6 C6_6 1_555 1_555
N1_6 C2_6 1_555 1_555
O10_6 H19_6 1_555 1_555
O10_6 H20_6 1_555 1_555
Cu5_2 O2_6 1_555 1_555
O2_6 C1_6 1_555 1_555
H3_6 C7_6 1_555 1_555
O3_6 Cu5_2 1_555 1_555
O11_2 C8_6 1_555 1_555
O3_6 H17_6 1_555 1_555
O3_6 H18_6 1_555 1_555
C9_6 C10_6 1_555 1_555
C10_6 H4_6 1_555 1_555
C11_6 C9_6 1_555 1_555
H5_6 C11_6 1_555 1_555
C12_6 O7_6 1_555 1_555
C13_6 C9_6 1_555 1_555
C14_6 H6_6 1_555 1_555
C15_6 C11_6 1_555 1_555
O6_6 C13_6 1_555 1_555
O7_6 Cu7_2 1_555 1_555
O8_6 C13_6 1_555 1_555
O9_6 C12_6 1_555 1_555
C16_6 C10_6 1_555 1_555
N2_6 C15_6 1_555 1_555
H7_6 C17_6 1_555 1_555
H8_6 C17_6 1_555 1_555
C18_6 N2_6 1_555 1_555
H9_6 C18_6 1_555 1_555
C19_6 N2_6 1_555 1_555
C20_6 C19_6 1_555 1_555
H12_6 C20_6 1_555 1_555
H13_6 C20_6 1_555 1_555
H14_6 C20_6 1_555 1_555
H15_6 C21_6 1_555 1_555
H16_6 C21_6 1_555 1_555
Cu5_4 O8_6 1_555 1_555
Cu4_2 O9_6 1_555 1_555
Cu8_4 O6_6 1_555 1_555
C12_6 C16_6 1_555 1_555
C14_6 C15_6 1_555 1_555
C14_6 C16_6 1_555 1_555
C17_6 C18_6 1_555 1_555
C19_6 C21_6 1_555 1_555
O4_5 C8_7 1_555 1_555
O5_5 C8_7 1_555 1_555
Cu5_3 O4_5 1_555 1_555
Cu8_3 O5_5 1_555 1_555
C2_7 C5_7 1_555 1_555
C3_7 C5_7 1_555 1_555
C4_7 C6_7 1_555 1_555
C5_7 H1_7 1_555 1_555
C6_7 C2_7 1_555 1_555
H2_7 C6_7 1_555 1_555
C7_7 C3_7 1_555 1_555
H3_7 C7_7 1_555 1_555
C9_7 C10_7 1_555 1_555
C10_7 H4_7 1_555 1_555
C11_7 C9_7 1_555 1_555
H5_7 C11_7 1_555 1_555
C12_7 O14_2 1_555 1_555
C13_7 C9_7 1_555 1_555
C14_7 H6_7 1_555 1_555
C15_7 C11_7 1_555 1_555
O13 C13_7 1_555 1_555
O15 C13_7 1_555 1_555
O16_2 C12_7 1_555 1_555
C16_7 C10_7 1_555 1_555
N1_7 C2_7 1_555 1_555
N2_7 C15_7 1_555 1_555
C17_7 N1_7 1_555 1_555
H7_7 C17_7 1_555 1_555
H8_7 C17_7 1_555 1_555
C18_7 N2_7 1_555 1_555
H9_7 C18_7 1_555 1_555
H10_7 C18_7 1_555 1_555
C19_7 N2_7 1_555 1_555
H11_7 C19_7 1_555 1_555
C20_7 C19_7 1_555 1_555
H12_7 C20_7 1_555 1_555
H13_7 C20_7 1_555 1_555
H14_7 C20_7 1_555 1_555
C21_7 N1_7 1_555 1_555
H15_7 C21_7 1_555 1_555
H16_7 C21_7 1_555 1_555
C4_7 C7_7 1_555 1_555
C12_7 C16_7 1_555 1_555
C14_7 C15_7 1_555 1_555
C14_7 C16_7 1_555 1_555
C17_7 C18_7 1_555 1_555
C19_7 C21_7 1_555 1_555
Cu4_2 O2_7 1_555 1_555
Cu7_2 O1_7 1_555 1_555
O1_7 C1_7 1_555 1_555
O2_7 C1_7 1_555 1_555
O3_7 Cu4_2 1_555 1_555
O10_7 Cu7_2 1_555 1_555
O11_3 Cu4_2 1_555 1_555
O12_3 Cu7_2 1_555 1_555
O3_7 H17_7 1_555 1_555
O3_7 H18_7 1_555 1_555
O10_7 H19_7 1_555 1_555
O10_7 H20_7 1_555 1_555
Cu5_3 O2_8 1_555 1_555
Cu8_3 O1_8 1_555 1_555
C1_8 C3_8 1_555 1_555
C2_8 C5_8 1_555 1_555
C3_8 C5_8 1_555 1_555
O1_8 C1_8 1_555 1_555
C4_8 C6_8 1_555 1_555
C5_8 H1_8 1_555 1_555
O2_8 C1_8 1_555 1_555
C6_8 C2_8 1_555 1_555
H2_8 C6_8 1_555 1_555
C7_8 C3_8 1_555 1_555
H3_8 C7_8 1_555 1_555
O3_8 Cu5_3 1_555 1_555
C9_8 C10_8 1_555 1_555
C10_8 H4_8 1_555 1_555
C11_8 C9_8 1_555 1_555
H5_8 C11_8 1_555 1_555
C12_8 O14_3 1_555 1_555
C13_8 C9_8 1_555 1_555
C14_8 H6_8 1_555 1_555
C15_8 C11_8 1_555 1_555
O13_2 C13_8 1_555 1_555
O15_2 C13_8 1_555 1_555
O16_3 C12_8 1_555 1_555
C16_8 C10_8 1_555 1_555
O10_8 Cu8_3 1_555 1_555
N1_8 C2_8 1_555 1_555
N2_8 C15_8 1_555 1_555
C17_8 N1_8 1_555 1_555
H7_8 C17_8 1_555 1_555
H8_8 C17_8 1_555 1_555
C18_8 N2_8 1_555 1_555
H9_8 C18_8 1_555 1_555
H10_8 C18_8 1_555 1_555
C19_8 N2_8 1_555 1_555
H11_8 C19_8 1_555 1_555
C20_8 C19_8 1_555 1_555
H12_8 C20_8 1_555 1_555
H13_8 C20_8 1_555 1_555
H14_8 C20_8 1_555 1_555
C21_8 N1_8 1_555 1_555
H15_8 C21_8 1_555 1_555
H16_8 C21_8 1_555 1_555
C4_8 C7_8 1_555 1_555
C12_8 C16_8 1_555 1_555
C14_8 C15_8 1_555 1_555
C14_8 C16_8 1_555 1_555
C17_8 C18_8 1_555 1_555
C19_8 C21_8 1_555 1_555
O3_8 H17_8 1_555 1_555
O3_8 H18_8 1_555 1_555
O10_8 H19_8 1_555 1_555
O10_8 H20_8 1_555 1_555
O4_6 C8_8 1_555 1_555
O5_6 C8_8 1_555 1_555
Cu5_4 O4_6 1_555 1_555
Cu8_4 O5_6 1_555 1_555
Cu5_4 O2_9 1_555 1_555
Cu8_4 O1_9 1_555 1_555
O1_9 C1_9 1_555 1_555
O2_9 C1_9 1_555 1_555
O3_9 Cu5_4 1_555 1_555
O10_9 Cu8_4 1_555 1_555
O3_9 H17_9 1_555 1_555
O3_9 H18_9 1_555 1_555
O10_9 H19_9 1_555 1_555
O10_9 H20_9 1_555 1_555
C2_9 C5_9 1_555 1_555
C3_9 C5_9 1_555 1_555
C4_9 C6_9 1_555 1_555
C5_9 H1_9 1_555 1_555
C6_9 C2_9 1_555 1_555
H2_9 C6_9 1_555 1_555
C7_9 C3_9 1_555 1_555
H3_9 C7_9 1_555 1_555
C8_9 C4_9 1_555 1_555
O11_3 C8_9 1_555 1_555
O12_3 C8_9 1_555 1_555
C9_9 C10_9 1_555 1_555
C10_9 H4_9 1_555 1_555
C11_9 C9_9 1_555 1_555
H5_9 C11_9 1_555 1_555
C12_9 O14 1_555 1_555
C13_9 C9_9 1_555 1_555
C14_9 H6_9 1_555 1_555
C15_9 C11_9 1_555 1_555
O13_3 C13_9 1_555 1_555
O15_3 C13_9 1_555 1_555
O16 C12_9 1_555 1_555
C16_9 C10_9 1_555 1_555
N1_9 C2_9 1_555 1_555
N2_9 C15_9 1_555 1_555
C17_9 N1_9 1_555 1_555
H7_9 C17_9 1_555 1_555
H8_9 C17_9 1_555 1_555
C18_9 N2_9 1_555 1_555
H9_9 C18_9 1_555 1_555
H10_9 C18_9 1_555 1_555
C19_9 N2_9 1_555 1_555
H11_9 C19_9 1_555 1_555
C20_9 C19_9 1_555 1_555
H12_9 C20_9 1_555 1_555
H13_9 C20_9 1_555 1_555
H14_9 C20_9 1_555 1_555
C21_9 N1_9 1_555 1_555
H15_9 C21_9 1_555 1_555
H16_9 C21_9 1_555 1_555
C4_9 C7_9 1_555 1_555
C12_9 C16_9 1_555 1_555
C14_9 C15_9 1_555 1_555
C14_9 C16_9 1_555 1_555
C17_9 C18_9 1_555 1_555
C19_9 C21_9 1_555 1_555

#END
