
###############################################################################
#
# This file contains modified crystal structure data generated from the
# MOF subset of the Cambridge Structural Database (CSD) v543 
# hosted by the Cambridge Crystallographic Data Centre (CCDC).
#
# This work is licensed under the Creative Commons
# Attribution-NonCommercial-ShareAlike 4.0 International License.
# To view a copy of this license, visit
# http://creativecommons.org/licenses/by-nc-sa/4.0/
# or send a letter to
# Creative Commons, PO Box 1866, Mountain View, CA 94042, USA.
#
# CIF created using the CSD Python API on 29 September 2022
# The structure has been converted into the P1 space group
# The structure has a 3D framework
# The original CSD entry HAQKES is in the orthorhombic crystal system
# The framework has been calculated to contain at least 10.0% void space
# The void calculation uses a probe of radius 1.32A, grid spacing 0.4
# The framework is charged, counterions have been retained in the structure
# H atom positions have been added when not included in the experimental data
#
###############################################################################

data_HAQKES
_chemical_formula_moiety         '(C400 H552 Cd32 Cu48 N32 O240 8+)n'
_symmetry_cell_setting           triclinic
_symmetry_space_group_name_H-M   'P 1'
_symmetry_Int_Tables_number      1
_space_group_name_Hall           'P 1'
loop_
_symmetry_equiv_pos_site_id
_symmetry_equiv_pos_as_xyz
1 x,y,z
_cell_length_a                   26.343(3)
_cell_length_b                   27.158(4)
_cell_length_c                   27.158
_cell_angle_alpha                90
_cell_angle_beta                 90
_cell_angle_gamma                90
_cell_volume                     19429.5
loop_
_atom_site_label
_atom_site_type_symbol
_atom_site_fract_x
_atom_site_fract_y
_atom_site_fract_z
Cd1 Cd 0.63420(3) 0.34021(2) 0.18752(3)
Cd2 Cd 0.69828(3) 0.14219(3) 0.32525(3)
Cd3 Cd 0.83183(3) 0.19919(3) 0.12433(3)
Cd4 Cd 0.59635(4) 0.11147(4) 0.09902(4)
Cu1 Cu 0.61871(4) 0.22366(4) 0.14530(4)
Cu2 Cu 0.75809(4) 0.17162(4) 0.22526(4)
Cu3 Cu 0.66542(4) 0.24166(4) 0.25134(4)
Cu4 Cu 0.64530(4) 0.13232(4) 0.21278(4)
Cu5 Cu 0.73205(4) 0.26345(4) 0.15721(4)
Cu6 Cu 0.71188(4) 0.15427(4) 0.11866(4)
H3 H 0.7351 0.3293 0.0050
C5 C 0.7593(4) 0.2464(3) 0.3036(4)
H4 H 0.7865 0.2285 0.3197
H5 H 0.7399 0.2632 0.3289
C6 C 0.5429(3) 0.1681(4) 0.1991(4)
H6 H 0.5305 0.1359 0.2092
H7 H 0.5184 0.1817 0.1762
C7 C 0.5456(3) 0.2015(3) 0.2445(4)
C8 C 0.5825(3) 0.1824(4) 0.2835(4)
H8 H 0.5807 0.2042 0.3117
H9 H 0.5706 0.1503 0.2943
C9 C 0.6856(3) 0.2506(3) 0.0443(3)
C10 C 0.6507(3) 0.2060(3) 0.0458(3)
H10 H 0.6168 0.2162 0.0363
H11 H 0.6623 0.1822 0.0216
C12 C 0.7435(3) 0.3196(3) 0.2453(4)
H13 H 0.7270 0.3388 0.2708
H14 H 0.7612 0.3423 0.2237
C13 C 0.7821(3) 0.2843(3) 0.2691(4)
C14 C 0.8144(3) 0.2603(4) 0.2279(4)
H15 H 0.8308 0.2862 0.2090
H16 H 0.8410 0.2407 0.2430
C15 C 0.6949(4) 0.0548(3) 0.1551(4)
H17 H 0.7037 0.0432 0.1224
H18 H 0.6710 0.0316 0.1691
C16 C 0.7416(3) 0.0551(3) 0.1859(3)
C17 C 0.7299(4) 0.0688(3) 0.2382(4)
H19 H 0.7053 0.0456 0.2511
H20 H 0.7606 0.0656 0.2576
C18 C 0.7845(4) 0.0869(4) 0.1646(4)
H21 H 0.8143 0.0839 0.1854
H22 H 0.7933 0.0749 0.1321
C19 C 0.5597(3) 0.2532(3) 0.2296(4)
H23 H 0.5343 0.2653 0.2067
H24 H 0.5584 0.2740 0.2586
C20 C 0.7409(4) 0.2345(4) 0.0550(3)
H25 H 0.7509 0.2094 0.0315
H26 H 0.7633 0.2625 0.0507
C21 C 0.4939(3) 0.2032(4) 0.2715(4)
C22 C 0.8169(5) 0.3187(5) 0.1106(5)
C23 C 0.7645(4) 0.0034(4) 0.1863(4)
C24 C 0.6282(4) 0.3333(4) 0.3078(4)
C25 C 0.8192(4) 0.3176(5) 0.3011(5)
C26 C 0.8037(7) 0.3471(7) 0.3343(7)
H27 H 0.7689 0.3525 0.3360
C27 C 0.8999(5) 0.3371(6) 0.3361(5)
H28 H 0.9346 0.3304 0.3359
C28 C 0.8683(5) 0.3129(6) 0.3042(6)
H29 H 0.8835 0.2909 0.2825
C29 C 0.8341(7) 0.3722(7) 0.3685(7)
H30 H 0.8191 0.3913 0.3929
C30 C 0.6210(7) 0.3595(5) 0.3564(5)
H31 H 0.6114 0.3931 0.3505
H32 H 0.6522 0.3588 0.3747
H33 H 0.5949 0.3434 0.3750
C31 C 0.4652(4) 0.1615(5) 0.2791(6)
H34 H 0.4769 0.1320 0.2660
C32 C 0.5569(7) 0.3775(7) 0.1297(7)
C33 C 0.4750(5) 0.2430(5) 0.2942(6)
H35 H 0.4920 0.2729 0.2921
C34 C 0.5119(5) 0.3964(6) 0.1001(6)
H36 H 0.4811 0.3908 0.1183
H37 H 0.5102 0.3792 0.0692
H38 H 0.5159 0.4310 0.0941
C35 C 0.8404(5) 0.3671(6) 0.0868(6)
H39 H 0.8736 0.3600 0.0742
H40 H 0.8426 0.3924 0.1113
H41 H 0.8190 0.3780 0.0603
C36 C 0.4303(4) 0.2397(5) 0.3206(5)
H42 H 0.4181 0.2686 0.3346
C37 C 0.4198(4) 0.1608(4) 0.3050(5)
H43 H 0.4007 0.1321 0.3061
C42 C 0.8613(5) 0.1426(6) 0.0501(4)
C43 C 0.8217(5) 0.1347(5) 0.3103(7)
C44 C 0.8864(9) 0.1117(9) 0.0040(8)
H49 H 0.9195 0.1001 0.0133
C45 C 0.8767(8) 0.1297(9) 0.3363(8)
H51 H 0.8722 0.1224 0.3707
H52 H 0.8949 0.1602 0.3329
H53 H 0.8955 0.1037 0.3209
C46 C 0.6545(9) 0.0580(8) 0.3628(9)
C47 C 0.6329(8) 0.0141(8) 0.3887(8)
H55 H 0.5970 0.0185 0.3932
H56 H 0.6489 0.0104 0.4202
C48 C 0.7013(9) 0.0932(8) 0.0277(10)
C49 C 0.6672(4) 0.2924(3) 0.0775(4)
H57 H 0.6899 0.3203 0.0740
H58 H 0.6337 0.3027 0.0668
N2 N 0.8821(5) 0.3689(6) 0.3660(6)
N3 N 0.4038(3) 0.2001(3) 0.3278(4)
O1 O 0.6056(3) 0.0668(3) 0.2422(3)
O2 O 0.6647(2) 0.2788(2) 0.1287(2)
O3 O 0.5578(4) 0.0461(5) 0.1408(5)
O4 O 0.7055(2) 0.2930(2) 0.2174(2)
O5 O 0.6087(2) 0.2584(2) 0.2073(2)
O6 O 0.7269(2) 0.2120(2) 0.2785(2)
O7 O 0.6412(3) 0.2880(2) 0.3105(2)
O8 O 0.6480(2) 0.1824(2) 0.0928(2)
O9 O 0.7868(2) 0.2304(2) 0.1956(2)
O10 O 0.5902(2) 0.1620(2) 0.1744(2)
O11 O 0.7747(3) 0.3230(3) 0.1276(3)
O12 O 0.7702(2) 0.1396(2) 0.1610(2)
O13 O 0.6335(2) 0.1778(2) 0.2699(2)
O14 O 0.7466(2) 0.2158(2) 0.1034(2)
O15 O 0.6698(2) 0.1032(2) 0.1506(2)
O16 O 0.8213(3) 0.1464(3) 0.2649(3)
O17 O 0.6201(3) 0.3570(3) 0.2692(3)
O18 O 0.7341(3) 0.1127(3) 0.0546(3)
O19 O 0.7103(2) 0.1180(2) 0.2444(2)
O20 O 0.8454(3) 0.2822(3) 0.1072(3)
O21 O 0.7841(4) 0.1320(3) 0.3380(3)
O22 O 0.5995(4) 0.3787(4) 0.1145(4)
O23 O 0.5497(4) 0.3571(4) 0.1663(4)
O24 O 0.5351(5) 0.1581(6) 0.0669(6)
O25 O 0.8478(4) 0.1844(4) 0.0439(4)
O26 O 0.8693(4) 0.1245(4) 0.0905(5)
O27 O 0.6320(5) 0.0846(5) 0.3424(5)
O28 O 0.6974(5) 0.0652(5) 0.3675(5)
O29 O 0.6453(6) 0.0809(4) 0.0378(5)
O30 O 0.5510(3) 0.2474(3) 0.1069(3)
Cd7 Cd 0.33183(3) 0.19919(3) 0.37567(3)
N5 N 0.6916(3) 0.1851(3) 0.3969(3)
N6 N 0.9038(3) 0.2001(3) 0.1722(4)
N7 N 0.6854(3) 0.4103(3) 0.1856(3)
H62 H 0.593552 0.0460505 0.214455
H63 H 0.629322 0.0474688 0.263027
H64 H 0.53551 0.0592715 0.167181
H65 H 0.537179 0.0264736 0.117313
H66 H 0.513058 0.170781 0.093714
H67 H 0.55051 0.186203 0.0489081
H68 H 0.55844 0.250525 0.071192
H69 H 0.523595 0.222788 0.111854
C1 C 0.6635(5) 0.2770(5) 0.9059(4)
H1 H 0.6443 0.2643 0.8801
C2 C 0.7177(4) 0.3318(4) 0.9340(4)
H2 H 0.7390 0.3585 0.9280
C3 C 0.7164(5) 0.3142(5) 0.9801(5)
C4 C 0.6866(4) 0.2728(4) 0.9901(4)
C11 C 0.6600(4) 0.2535(4) 0.9524(4)
H12 H 0.6399 0.2257 0.9567
H48 H 0.8651 0.0842 0.9961
H50 H 0.8893 0.1328 0.9758
C50 C 0.7240(10) 0.0831(10) 0.9721(10)
H59 H 0.7590 0.0927 0.9710
H60 H 0.7050 0.1021 0.9486
H61 H 0.7211 0.0488 0.9644
N1 N 0.6916(3) 0.3149(3) 0.8969(3)
Cd6 Cd 0.69828(3) 0.35781(3) 0.82525(3)
C38 C 0.7674(6) 0.9757(6) 0.1465(6)
H44 H 0.7543 0.9871 0.1168
C39 C 0.7828(6) 0.9816(6) 0.2272(7)
H45 H 0.7781 0.9973 0.2573
C40 C 0.8099(6) 0.9341(6) 0.2267(7)
H46 H 0.8234 0.9213 0.2557
C41 C 0.7912(5) 0.9271(5) 0.1490(6)
H47 H 0.7888 0.9071 0.1213
H54 H 0.6388 0.9851 0.3693
N4 N 0.8146(3) 0.9103(3) 0.1856(3)
Cd5 Cd 0.86580(3) 0.84021(2) 0.18752(3)
C21_2 C 0.0061(3) 0.7968(4) 0.7715(4)
C31_2 C 0.0348(4) 0.8385(5) 0.7791(6)
H34_2 H 0.0231 0.8680 0.7660
C33_2 C 0.0250(5) 0.7570(5) 0.7942(6)
H35_2 H 0.0080 0.7271 0.7921
H36_2 H 0.0189 0.6092 0.6183
C36_2 C 0.0697(4) 0.7603(5) 0.8206(5)
H42_2 H 0.0819 0.7314 0.8346
C37_2 C 0.0802(4) 0.8392(4) 0.8050(5)
H43_2 H 0.0993 0.8679 0.8061
N3_2 N 0.0962(3) 0.7999(3) 0.8278(4)
Cd7_2 Cd 0.16817(3) 0.80081(3) 0.87567(3)
C38_2 C 0.7326(6) 0.0243(6) 0.6465(6)
H44_2 H 0.7457 0.0129 0.6168
C39_2 C 0.7172(6) 0.0184(6) 0.7272(7)
H45_2 H 0.7219 0.0027 0.7573
C40_2 C 0.6901(6) 0.0659(6) 0.7267(7)
H46_2 H 0.6766 0.0787 0.7557
C41_2 C 0.7088(5) 0.0729(5) 0.6490(6)
H47_2 H 0.7112 0.0929 0.6213
H54_2 H 0.8612 0.0149 0.8693
N4_2 N 0.6854(3) 0.0897(3) 0.6856(3)
Cd5_2 Cd 0.63420(3) 0.15979(2) 0.68752(3)
Cd1_2 Cd 0.86580(3) 0.65979(2) 0.68752(3)
Cd2_2 Cd 0.80172(3) 0.85781(3) 0.82525(3)
Cd3_2 Cd 0.66817(3) 0.80081(3) 0.62433(3)
Cd4_2 Cd 0.90365(4) 0.88853(4) 0.59902(4)
Cu1_2 Cu 0.88129(4) 0.77634(4) 0.64530(4)
Cu2_2 Cu 0.74191(4) 0.82838(4) 0.72526(4)
Cu3_2 Cu 0.83458(4) 0.75834(4) 0.75134(4)
Cu4_2 Cu 0.85470(4) 0.86768(4) 0.71278(4)
Cu5_2 Cu 0.76795(4) 0.73655(4) 0.65721(4)
Cu6_2 Cu 0.78812(4) 0.84573(4) 0.61866(4)
C1_2 C 0.8365(5) 0.7230(5) 0.4059(4)
H1_2 H 0.8557 0.7357 0.3801
C2_2 C 0.7823(4) 0.6682(4) 0.4340(4)
H2_2 H 0.7610 0.6415 0.4280
C3_2 C 0.7836(5) 0.6858(5) 0.4801(5)
H3_2 H 0.7649 0.6707 0.5050
C4_2 C 0.8134(4) 0.7272(4) 0.4901(4)
C5_2 C 0.7407(4) 0.7536(3) 0.8036(4)
H4_2 H 0.7135 0.7715 0.8197
H5_2 H 0.7601 0.7368 0.8289
C6_2 C 0.9571(3) 0.8319(4) 0.6991(4)
H6_2 H 0.9695 0.8641 0.7092
H7_2 H 0.9816 0.8183 0.6762
C7_2 C 0.9544(3) 0.7985(3) 0.7445(4)
C8_2 C 0.9175(3) 0.8176(4) 0.7835(4)
H8_2 H 0.9193 0.7958 0.8117
H9_2 H 0.9294 0.8497 0.7943
C9_2 C 0.8144(3) 0.7494(3) 0.5443(3)
C10_2 C 0.8493(3) 0.7940(3) 0.5458(3)
H10_2 H 0.8832 0.7838 0.5363
H11_2 H 0.8377 0.8178 0.5216
C11_2 C 0.8400(4) 0.7465(4) 0.4524(4)
H12_2 H 0.8601 0.7743 0.4567
C12_2 C 0.7565(3) 0.6804(3) 0.7453(4)
H13_2 H 0.7730 0.6612 0.7708
H14_2 H 0.7388 0.6577 0.7237
C13_2 C 0.7179(3) 0.7157(3) 0.7691(4)
C14_2 C 0.6856(3) 0.7397(4) 0.7279(4)
H15_2 H 0.6692 0.7138 0.7090
H16_2 H 0.6590 0.7593 0.7430
C15_2 C 0.8051(4) 0.9452(3) 0.6551(4)
H17_2 H 0.7963 0.9568 0.6224
H18_2 H 0.8290 0.9684 0.6691
C16_2 C 0.7584(3) 0.9449(3) 0.6859(3)
C17_2 C 0.7701(4) 0.9312(3) 0.7382(4)
H19_2 H 0.7947 0.9544 0.7511
H20_2 H 0.7394 0.9344 0.7576
C18_2 C 0.7155(4) 0.9131(4) 0.6646(4)
H21_2 H 0.6857 0.9161 0.6854
H22_2 H 0.7067 0.9251 0.6321
C19_2 C 0.9403(3) 0.7468(3) 0.7296(4)
H23_2 H 0.9657 0.7347 0.7067
H24_2 H 0.9416 0.7260 0.7586
C20_2 C 0.7591(4) 0.7655(4) 0.5550(3)
H25_2 H 0.7491 0.7906 0.5315
H26_2 H 0.7367 0.7375 0.5507
C22_2 C 0.6831(5) 0.6813(5) 0.6106(5)
C23_2 C 0.7355(4) 0.9966(4) 0.6863(4)
C24_2 C 0.8718(4) 0.6667(4) 0.8078(4)
C25_2 C 0.6808(4) 0.6824(5) 0.8011(5)
C26_2 C 0.6963(7) 0.6529(7) 0.8343(7)
H27_2 H 0.7311 0.6475 0.8360
C27_2 C 0.6001(5) 0.6629(6) 0.8361(5)
H28_2 H 0.5654 0.6696 0.8359
C28_2 C 0.6317(5) 0.6871(6) 0.8042(6)
H29_2 H 0.6165 0.7091 0.7825
C29_2 C 0.6659(7) 0.6278(7) 0.8685(7)
H30_2 H 0.6809 0.6087 0.8929
C30_2 C 0.8790(7) 0.6405(5) 0.8564(5)
H31_2 H 0.8886 0.6069 0.8505
H32_2 H 0.8478 0.6412 0.8747
H33_2 H 0.9051 0.6566 0.8750
C32_2 C 0.9431(7) 0.6225(7) 0.6297(7)
C34_2 C 0.9881(5) 0.6036(6) 0.6001(6)
H37_2 H 0.9898 0.6208 0.5692
H38_2 H 0.9841 0.5690 0.5941
C35_2 C 0.6596(5) 0.6329(6) 0.5868(6)
H39_2 H 0.6264 0.6400 0.5742
H40_2 H 0.6574 0.6076 0.6113
H41_2 H 0.6810 0.6220 0.5603
C42_2 C 0.6387(5) 0.8574(6) 0.5501(4)
C43_2 C 0.6783(5) 0.8653(5) 0.8103(7)
C44_2 C 0.6136(9) 0.8883(9) 0.5040(8)
H48_2 H 0.6349 0.9158 0.4961
H49_2 H 0.5805 0.8999 0.5133
H50_2 H 0.6107 0.8672 0.4758
C45_2 C 0.6233(8) 0.8703(9) 0.8363(8)
H51_2 H 0.6278 0.8776 0.8707
H52_2 H 0.6051 0.8398 0.8329
H53_2 H 0.6045 0.8963 0.8209
C46_2 C 0.8455(9) 0.9420(8) 0.8628(9)
C47_2 C 0.8671(8) 0.9859(8) 0.8887(8)
H55_2 H 0.9030 0.9815 0.8932
H56_2 H 0.8511 0.9896 0.9202
C48_2 C 0.7987(9) 0.9068(8) 0.5277(10)
C49_2 C 0.8328(4) 0.7076(3) 0.5775(4)
H57_2 H 0.8101 0.6797 0.5740
H58_2 H 0.8663 0.6973 0.5668
C50_2 C 0.7760(10) 0.9169(10) 0.4721(10)
H59_2 H 0.7410 0.9073 0.4710
H60_2 H 0.7950 0.8979 0.4486
H61_2 H 0.7789 0.9512 0.4644
N1_2 N 0.8084(3) 0.6851(3) 0.3969(3)
N2_2 N 0.6179(5) 0.6311(6) 0.8660(6)
O1_2 O 0.8944(3) 0.9332(3) 0.7422(3)
O2_2 O 0.8353(2) 0.7212(2) 0.6287(2)
O3_2 O 0.9422(4) 0.9539(5) 0.6408(5)
O4_2 O 0.7945(2) 0.7070(2) 0.7174(2)
O5_2 O 0.8913(2) 0.7416(2) 0.7073(2)
O6_2 O 0.7731(2) 0.7880(2) 0.7785(2)
O7_2 O 0.8588(3) 0.7120(2) 0.8105(2)
O8_2 O 0.8520(2) 0.8176(2) 0.5928(2)
O9_2 O 0.7132(2) 0.7696(2) 0.6956(2)
O10_2 O 0.9098(2) 0.8380(2) 0.6744(2)
O11_2 O 0.7253(3) 0.6770(3) 0.6276(3)
O12_2 O 0.7298(2) 0.8604(2) 0.6610(2)
O13_2 O 0.8665(2) 0.8222(2) 0.7699(2)
O14_2 O 0.7534(2) 0.7842(2) 0.6034(2)
O15_2 O 0.8302(2) 0.8968(2) 0.6506(2)
O16_2 O 0.6787(3) 0.8536(3) 0.7649(3)
O17_2 O 0.8799(3) 0.6430(3) 0.7692(3)
O18_2 O 0.7659(3) 0.8873(3) 0.5546(3)
O19_2 O 0.7897(2) 0.8820(2) 0.7444(2)
O20_2 O 0.6546(3) 0.7178(3) 0.6072(3)
O21_2 O 0.7159(4) 0.8680(3) 0.8380(3)
O22_2 O 0.9005(4) 0.6213(4) 0.6145(4)
O23_2 O 0.9503(4) 0.6429(4) 0.6663(4)
O24_2 O 0.9649(5) 0.8419(6) 0.5669(6)
O25_2 O 0.6522(4) 0.8156(4) 0.5439(4)
O26_2 O 0.6307(4) 0.8755(4) 0.5905(5)
O27_2 O 0.8680(5) 0.9154(5) 0.8424(5)
O28_2 O 0.8026(5) 0.9348(5) 0.8675(5)
O29_2 O 0.8547(6) 0.9191(4) 0.5378(5)
O30_2 O 0.9490(3) 0.7526(3) 0.6069(3)
Cd6_2 Cd 0.80172(3) 0.64219(3) 0.32525(3)
N5_2 N 0.8084(3) 0.8149(3) 0.8969(3)
N6_2 N 0.5962(3) 0.7999(3) 0.6722(4)
N7_2 N 0.8146(3) 0.5897(3) 0.6856(3)
H62_2 H 0.906448 0.953949 0.714455
H63_2 H 0.870678 0.952531 0.763027
H64_2 H 0.96449 0.940728 0.667181
H65_2 H 0.962821 0.973526 0.617313
H66_2 H 0.986942 0.829219 0.593714
H67_2 H 0.94949 0.813797 0.548908
H68_2 H 0.94156 0.749475 0.571192
H69_2 H 0.976405 0.777212 0.611854
Cd1_3 Cd 0.36580(3) 0.84021(2) 0.31248(3)
Cd2_3 Cd 0.30172(3) 0.64219(3) 0.17475(3)
Cd3_3 Cd 0.16817(3) 0.69919(3) 0.37567(3)
Cd4_3 Cd 0.40365(4) 0.61147(4) 0.40098(4)
Cu1_3 Cu 0.38129(4) 0.72366(4) 0.35470(4)
Cu2_3 Cu 0.24191(4) 0.67162(4) 0.27474(4)
Cu3_3 Cu 0.33458(4) 0.74166(4) 0.24866(4)
Cu4_3 Cu 0.35470(4) 0.63232(4) 0.28722(4)
Cu5_3 Cu 0.26795(4) 0.76345(4) 0.34279(4)
Cu6_3 Cu 0.28812(4) 0.65427(4) 0.38134(4)
C1_3 C 0.3365(5) 0.7770(5) 0.5941(4)
H1_3 H 0.3557 0.7643 0.6199
C2_3 C 0.2823(4) 0.8318(4) 0.5660(4)
H2_3 H 0.2610 0.8585 0.5720
C3_3 C 0.2836(5) 0.8142(5) 0.5199(5)
H3_3 H 0.2649 0.8293 0.4950
C4_3 C 0.3134(4) 0.7728(4) 0.5099(4)
C5_3 C 0.2407(4) 0.7464(3) 0.1964(4)
H4_3 H 0.2135 0.7285 0.1803
H5_3 H 0.2601 0.7632 0.1711
C6_3 C 0.4571(3) 0.6681(4) 0.3009(4)
H6_3 H 0.4695 0.6359 0.2908
H7_3 H 0.4816 0.6817 0.3238
C7_3 C 0.4544(3) 0.7015(3) 0.2555(4)
C8_3 C 0.4175(3) 0.6824(4) 0.2165(4)
H8_3 H 0.4193 0.7042 0.1883
H9_3 H 0.4294 0.6503 0.2057
C9_3 C 0.3144(3) 0.7506(3) 0.4557(3)
C10_3 C 0.3493(3) 0.7060(3) 0.4542(3)
H10_3 H 0.3832 0.7162 0.4637
H11_3 H 0.3377 0.6822 0.4784
C11_3 C 0.3400(4) 0.7535(4) 0.5476(4)
H12_3 H 0.3601 0.7257 0.5433
C12_3 C 0.2565(3) 0.8196(3) 0.2547(4)
H13_3 H 0.2730 0.8388 0.2292
H14_3 H 0.2388 0.8423 0.2763
C13_3 C 0.2179(3) 0.7843(3) 0.2309(4)
C14_3 C 0.1856(3) 0.7603(4) 0.2721(4)
H15_3 H 0.1692 0.7862 0.2910
H16_3 H 0.1590 0.7407 0.2570
C15_3 C 0.3051(4) 0.5548(3) 0.3449(4)
H17_3 H 0.2963 0.5432 0.3776
H18_3 H 0.3290 0.5316 0.3309
C16_3 C 0.2584(3) 0.5551(3) 0.3141(3)
C17_3 C 0.2701(4) 0.5688(3) 0.2618(4)
H19_3 H 0.2947 0.5456 0.2489
H20_3 H 0.2394 0.5656 0.2424
C18_3 C 0.2155(4) 0.5869(4) 0.3354(4)
H21_3 H 0.1857 0.5839 0.3146
H22_3 H 0.2067 0.5749 0.3679
C19_3 C 0.4403(3) 0.7532(3) 0.2704(4)
H23_3 H 0.4657 0.7653 0.2933
H24_3 H 0.4416 0.7740 0.2414
C20_3 C 0.2591(4) 0.7345(4) 0.4450(3)
H25_3 H 0.2491 0.7094 0.4685
H26_3 H 0.2367 0.7625 0.4493
C21_3 C 0.5061(3) 0.7032(4) 0.2285(4)
C22_3 C 0.1831(5) 0.8187(5) 0.3894(5)
C23_3 C 0.2355(4) 0.5034(4) 0.3137(4)
C24_3 C 0.3718(4) 0.8333(4) 0.1922(4)
C25_3 C 0.1808(4) 0.8176(5) 0.1989(5)
C26_3 C 0.1963(7) 0.8471(7) 0.1657(7)
H27_3 H 0.2311 0.8525 0.1640
C27_3 C 0.1001(5) 0.8371(6) 0.1639(5)
H28_3 H 0.0654 0.8304 0.1641
C28_3 C 0.1317(5) 0.8129(6) 0.1958(6)
H29_3 H 0.1165 0.7909 0.2175
C29_3 C 0.1659(7) 0.8722(7) 0.1315(7)
H30_3 H 0.1809 0.8913 0.1071
C30_3 C 0.3790(7) 0.8595(5) 0.1436(5)
H31_3 H 0.3886 0.8931 0.1495
H32_3 H 0.3478 0.8588 0.1253
H33_3 H 0.4051 0.8434 0.1250
C31_3 C 0.5348(4) 0.6615(5) 0.2209(6)
H34_3 H 0.5231 0.6320 0.2340
C32_3 C 0.4431(7) 0.8775(7) 0.3703(7)
C33_3 C 0.5250(5) 0.7430(5) 0.2058(6)
H35_3 H 0.5080 0.7729 0.2079
C34_3 C 0.4881(5) 0.8964(6) 0.3999(6)
H36_3 H 0.5189 0.8908 0.3817
H37_3 H 0.4898 0.8792 0.4308
H38_3 H 0.4841 0.9310 0.4059
C35_3 C 0.1596(5) 0.8671(6) 0.4132(6)
H39_3 H 0.1264 0.8600 0.4258
H40_3 H 0.1574 0.8924 0.3887
H41_3 H 0.1810 0.8780 0.4397
C36_3 C 0.5697(4) 0.7397(5) 0.1794(5)
H42_3 H 0.5819 0.7686 0.1654
C37_3 C 0.5802(4) 0.6608(4) 0.1950(5)
H43_3 H 0.5993 0.6321 0.1939
C38_3 C 0.2326(6) 0.4757(6) 0.3535(6)
H44_3 H 0.2457 0.4871 0.3832
C39_3 C 0.2172(6) 0.4816(6) 0.2728(7)
H45_3 H 0.2219 0.4973 0.2427
C40_3 C 0.1901(6) 0.4341(6) 0.2733(7)
H46_3 H 0.1766 0.4213 0.2443
C41_3 C 0.2088(5) 0.4271(5) 0.3510(6)
H47_3 H 0.2112 0.4071 0.3787
C42_3 C 0.1387(5) 0.6426(6) 0.4499(4)
C43_3 C 0.1783(5) 0.6347(5) 0.1897(7)
C44_3 C 0.1136(9) 0.6117(9) 0.4960(8)
H48_3 H 0.1349 0.5842 0.5039
H49_3 H 0.0805 0.6001 0.4867
H50_3 H 0.1107 0.6328 0.5242
C45_3 C 0.1233(8) 0.6297(9) 0.1637(8)
H51_3 H 0.1278 0.6224 0.1293
H52_3 H 0.1051 0.6602 0.1671
H53_3 H 0.1045 0.6037 0.1791
C46_3 C 0.3455(9) 0.5580(8) 0.1372(9)
C47_3 C 0.3671(8) 0.5141(8) 0.1113(8)
H54_3 H 0.3612 0.4851 0.1307
H55_3 H 0.4030 0.5185 0.1068
H56_3 H 0.3511 0.5104 0.0798
C48_3 C 0.2987(9) 0.5932(8) 0.4723(10)
C49_3 C 0.3328(4) 0.7924(3) 0.4225(4)
H57_3 H 0.3101 0.8203 0.4260
H58_3 H 0.3663 0.8027 0.4332
C50_3 C 0.2760(10) 0.5831(10) 0.5279(10)
H59_3 H 0.2410 0.5927 0.5290
H60_3 H 0.2950 0.6021 0.5514
H61_3 H 0.2789 0.5488 0.5356
N1_3 N 0.3084(3) 0.8149(3) 0.6031(3)
N2_3 N 0.1179(5) 0.8689(6) 0.1340(6)
N3_3 N 0.5962(3) 0.7001(3) 0.1722(4)
N4_3 N 0.1854(3) 0.4103(3) 0.3144(3)
O1_3 O 0.3944(3) 0.5668(3) 0.2578(3)
O2_3 O 0.3353(2) 0.7788(2) 0.3713(2)
O3_3 O 0.4422(4) 0.5461(5) 0.3592(5)
O4_3 O 0.2945(2) 0.7930(2) 0.2826(2)
O5_3 O 0.3913(2) 0.7584(2) 0.2927(2)
O6_3 O 0.2731(2) 0.7120(2) 0.2215(2)
O7_3 O 0.3588(3) 0.7880(2) 0.1895(2)
O8_3 O 0.3520(2) 0.6824(2) 0.4072(2)
O9_3 O 0.2132(2) 0.7304(2) 0.3044(2)
O10_3 O 0.4098(2) 0.6620(2) 0.3256(2)
O11_3 O 0.2253(3) 0.8230(3) 0.3724(3)
O12_3 O 0.2298(2) 0.6396(2) 0.3390(2)
O13_3 O 0.3665(2) 0.6778(2) 0.2301(2)
O14_3 O 0.2534(2) 0.7158(2) 0.3966(2)
O15_3 O 0.3302(2) 0.6032(2) 0.3494(2)
O16_3 O 0.1787(3) 0.6464(3) 0.2351(3)
O17_3 O 0.3799(3) 0.8570(3) 0.2308(3)
O18_3 O 0.2659(3) 0.6127(3) 0.4454(3)
O19_3 O 0.2897(2) 0.6180(2) 0.2556(2)
O20_3 O 0.1546(3) 0.7822(3) 0.3928(3)
O21_3 O 0.2159(4) 0.6320(3) 0.1620(3)
O22_3 O 0.4005(4) 0.8787(4) 0.3855(4)
O23_3 O 0.4503(4) 0.8571(4) 0.3337(4)
O24_3 O 0.4649(5) 0.6581(6) 0.4331(6)
O25_3 O 0.1522(4) 0.6844(4) 0.4561(4)
O26_3 O 0.1307(4) 0.6245(4) 0.4095(5)
O27_3 O 0.3680(5) 0.5846(5) 0.1576(5)
O28_3 O 0.3026(5) 0.5652(5) 0.1325(5)
O29_3 O 0.3547(6) 0.5809(4) 0.4622(5)
O30_3 O 0.4490(3) 0.7474(3) 0.3931(3)
Cd5_3 Cd 0.13420(3) 0.34021(2) 0.31248(3)
Cd6_3 Cd 0.30172(3) 0.85781(3) 0.67475(3)
Cd7_3 Cd 0.66817(3) 0.69919(3) 0.12433(3)
N5_3 N 0.3084(3) 0.6851(3) 0.1031(3)
N6_3 N 0.0962(3) 0.7001(3) 0.3278(4)
N7_3 N 0.3146(3) 0.9103(3) 0.3144(3)
H62_3 H 0.406448 0.546051 0.285545
H63_3 H 0.370678 0.547469 0.236973
H64_3 H 0.46449 0.559272 0.332819
H65_3 H 0.462821 0.526474 0.382687
H66_3 H 0.486942 0.670781 0.406286
H67_3 H 0.44949 0.686203 0.451092
H68_3 H 0.44156 0.750525 0.428808
H69_3 H 0.476405 0.722788 0.388146
C1_4 C 0.1635(5) 0.2230(5) 0.0941(4)
H1_4 H 0.1443 0.2357 0.1199
C2_4 C 0.2177(4) 0.1682(4) 0.0660(4)
H2_4 H 0.2390 0.1415 0.0720
C3_4 C 0.2164(5) 0.1858(5) 0.0199(5)
C4_4 C 0.1866(4) 0.2272(4) 0.0099(4)
C11_4 C 0.1600(4) 0.2465(4) 0.0476(4)
H12_4 H 0.1399 0.2743 0.0433
H48_4 H 0.3651 0.4158 0.0039
H50_4 H 0.3893 0.3672 0.0242
C50_4 C 0.2240(10) 0.4169(10) 0.0279(10)
H59_4 H 0.2590 0.4073 0.0290
H60_4 H 0.2050 0.3979 0.0514
H61_4 H 0.2211 0.4512 0.0356
N1_4 N 0.1916(3) 0.1851(3) 0.1031(3)
Cd6_4 Cd 0.19828(3) 0.14219(3) 0.17475(3)
Cd1_4 Cd 0.13420(3) 0.15979(2) 0.81248(3)
Cd2_4 Cd 0.19828(3) 0.35781(3) 0.67475(3)
Cd3_4 Cd 0.33183(3) 0.30081(3) 0.87567(3)
Cd4_4 Cd 0.09635(4) 0.38853(4) 0.90098(4)
Cu1_4 Cu 0.11871(4) 0.27634(4) 0.85470(4)
Cu2_4 Cu 0.25809(4) 0.32838(4) 0.77474(4)
Cu3_4 Cu 0.16542(4) 0.25834(4) 0.74866(4)
Cu4_4 Cu 0.14530(4) 0.36768(4) 0.78722(4)
Cu5_4 Cu 0.23205(4) 0.23655(4) 0.84279(4)
Cu6_4 Cu 0.21188(4) 0.34573(4) 0.88134(4)
H3_4 H 0.2351 0.1707 0.9950
C5_4 C 0.2593(4) 0.2536(3) 0.6964(4)
H4_4 H 0.2865 0.2715 0.6803
H5_4 H 0.2399 0.2368 0.6711
C6_4 C 0.0429(3) 0.3319(4) 0.8009(4)
H6_4 H 0.0305 0.3641 0.7908
H7_4 H 0.0184 0.3183 0.8238
C7_4 C 0.0456(3) 0.2985(3) 0.7555(4)
C8_4 C 0.0825(3) 0.3176(4) 0.7165(4)
H8_4 H 0.0807 0.2958 0.6883
H9_4 H 0.0706 0.3497 0.7057
C9_4 C 0.1856(3) 0.2494(3) 0.9557(3)
C10_4 C 0.1507(3) 0.2940(3) 0.9542(3)
H10_4 H 0.1168 0.2838 0.9637
H11_4 H 0.1623 0.3178 0.9784
C12_4 C 0.2435(3) 0.1804(3) 0.7547(4)
H13_4 H 0.2270 0.1612 0.7292
H14_4 H 0.2612 0.1577 0.7763
C13_4 C 0.2821(3) 0.2157(3) 0.7309(4)
C14_4 C 0.3144(3) 0.2397(4) 0.7721(4)
H15_4 H 0.3308 0.2138 0.7910
H16_4 H 0.3410 0.2593 0.7570
C15_4 C 0.1949(4) 0.4452(3) 0.8449(4)
H17_4 H 0.2037 0.4568 0.8776
H18_4 H 0.1710 0.4684 0.8309
C16_4 C 0.2416(3) 0.4449(3) 0.8141(3)
C17_4 C 0.2299(4) 0.4312(3) 0.7618(4)
H19_4 H 0.2053 0.4544 0.7489
H20_4 H 0.2606 0.4344 0.7424
C18_4 C 0.2845(4) 0.4131(4) 0.8354(4)
H21_4 H 0.3143 0.4161 0.8146
H22_4 H 0.2933 0.4251 0.8679
C19_4 C 0.0597(3) 0.2468(3) 0.7704(4)
H23_4 H 0.0343 0.2347 0.7933
H24_4 H 0.0584 0.2260 0.7414
C20_4 C 0.2409(4) 0.2655(4) 0.9450(3)
H25_4 H 0.2509 0.2906 0.9685
H26_4 H 0.2633 0.2375 0.9493
C22_4 C 0.3169(5) 0.1813(5) 0.8894(5)
C23_4 C 0.2645(4) 0.4966(4) 0.8137(4)
C24_4 C 0.1282(4) 0.1667(4) 0.6922(4)
C25_4 C 0.3192(4) 0.1824(5) 0.6989(5)
C26_4 C 0.3037(7) 0.1529(7) 0.6657(7)
H27_4 H 0.2689 0.1475 0.6640
C27_4 C 0.3999(5) 0.1629(6) 0.6639(5)
H28_4 H 0.4346 0.1696 0.6641
C28_4 C 0.3683(5) 0.1871(6) 0.6958(6)
H29_4 H 0.3835 0.2091 0.7175
C29_4 C 0.3341(7) 0.1278(7) 0.6315(7)
H30_4 H 0.3191 0.1087 0.6071
C30_4 C 0.1210(7) 0.1405(5) 0.6436(5)
H31_4 H 0.1114 0.1069 0.6495
H32_4 H 0.1522 0.1412 0.6253
H33_4 H 0.0949 0.1566 0.6250
C32_4 C 0.0569(7) 0.1225(7) 0.8703(7)
C34_4 C 0.0119(5) 0.1036(6) 0.8999(6)
H37_4 H 0.0102 0.1208 0.9308
H38_4 H 0.0159 0.0690 0.9059
C35_4 C 0.3404(5) 0.1329(6) 0.9132(6)
H39_4 H 0.3736 0.1400 0.9258
H40_4 H 0.3426 0.1076 0.8887
H41_4 H 0.3190 0.1220 0.9397
C38_4 C 0.2674(6) 0.5243(6) 0.8535(6)
H44_4 H 0.2543 0.5129 0.8832
C39_4 C 0.2828(6) 0.5184(6) 0.7728(7)
H45_4 H 0.2781 0.5027 0.7427
C40_4 C 0.3099(6) 0.5659(6) 0.7733(7)
H46_4 H 0.3234 0.5787 0.7443
C41_4 C 0.2912(5) 0.5729(5) 0.8510(6)
H47_4 H 0.2888 0.5929 0.8787
C42_4 C 0.3613(5) 0.3574(6) 0.9499(4)
C43_4 C 0.3217(5) 0.3653(5) 0.6897(7)
C44_4 C 0.3864(9) 0.3883(9) 0.9960(8)
H49_4 H 0.4195 0.3999 0.9867
C45_4 C 0.3767(8) 0.3703(9) 0.6637(8)
H51_4 H 0.3722 0.3776 0.6293
H52_4 H 0.3949 0.3398 0.6671
H53_4 H 0.3955 0.3963 0.6791
C46_4 C 0.1545(9) 0.4420(8) 0.6372(9)
C47_4 C 0.1329(8) 0.4859(8) 0.6113(8)
H54_4 H 0.1388 0.5149 0.6307
H55_4 H 0.0970 0.4815 0.6068
H56_4 H 0.1489 0.4896 0.5798
C48_4 C 0.2013(9) 0.4068(8) 0.9723(10)
C49_4 C 0.1672(4) 0.2076(3) 0.9225(4)
H57_4 H 0.1899 0.1797 0.9260
H58_4 H 0.1337 0.1973 0.9332
N2_4 N 0.3821(5) 0.1311(6) 0.6340(6)
N4_4 N 0.3146(3) 0.5897(3) 0.8144(3)
O1_4 O 0.1056(3) 0.4332(3) 0.7578(3)
O2_4 O 0.1647(2) 0.2212(2) 0.8713(2)
O3_4 O 0.0578(4) 0.4539(5) 0.8592(5)
O4_4 O 0.2055(2) 0.2070(2) 0.7826(2)
O5_4 O 0.1087(2) 0.2416(2) 0.7927(2)
O6_4 O 0.2269(2) 0.2880(2) 0.7215(2)
O7_4 O 0.1412(3) 0.2120(2) 0.6895(2)
O8_4 O 0.1480(2) 0.3176(2) 0.9072(2)
O9_4 O 0.2868(2) 0.2696(2) 0.8044(2)
O10_4 O 0.0902(2) 0.3380(2) 0.8256(2)
O11_4 O 0.2747(3) 0.1770(3) 0.8724(3)
O12_4 O 0.2702(2) 0.3604(2) 0.8390(2)
O13_4 O 0.1335(2) 0.3222(2) 0.7301(2)
O14_4 O 0.2466(2) 0.2842(2) 0.8966(2)
O15_4 O 0.1698(2) 0.3968(2) 0.8494(2)
O16_4 O 0.3213(3) 0.3536(3) 0.7351(3)
O17_4 O 0.1201(3) 0.1430(3) 0.7308(3)
O18_4 O 0.2341(3) 0.3873(3) 0.9454(3)
O19_4 O 0.2103(2) 0.3820(2) 0.7556(2)
O20_4 O 0.3454(3) 0.2178(3) 0.8928(3)
O21_4 O 0.2841(4) 0.3680(3) 0.6620(3)
O22_4 O 0.0995(4) 0.1213(4) 0.8855(4)
O23_4 O 0.0497(4) 0.1429(4) 0.8337(4)
O24_4 O 0.0351(5) 0.3419(6) 0.9331(6)
O25_4 O 0.3478(4) 0.3156(4) 0.9561(4)
O26_4 O 0.3693(4) 0.3755(4) 0.9095(5)
O27_4 O 0.1320(5) 0.4154(5) 0.6576(5)
O28_4 O 0.1974(5) 0.4348(5) 0.6325(5)
O29_4 O 0.1453(6) 0.4191(4) 0.9622(5)
O30_4 O 0.0510(3) 0.2526(3) 0.8931(3)
Cd5_4 Cd 0.36580(3) 0.65979(2) 0.81248(3)
N5_4 N 0.1916(3) 0.3149(3) 0.6031(3)
N6_4 N 0.4038(3) 0.2999(3) 0.8278(4)
N7_4 N 0.1854(3) 0.0897(3) 0.8144(3)
H62_4 H 0.0935524 0.453949 0.785545
H63_4 H 0.129322 0.452531 0.736973
H64_4 H 0.03551 0.440728 0.832819
H65_4 H 0.0371789 0.473526 0.882687
H66_4 H 0.0130583 0.329219 0.906286
H67_4 H 0.0505098 0.313797 0.951092
H68_4 H 0.0584405 0.249475 0.928808
H69_4 H 0.0235954 0.277212 0.888146
C21_4 C 0.9939(3) 0.2968(4) 0.7285(4)
C31_4 C 0.9652(4) 0.3385(5) 0.7209(6)
H34_4 H 0.9769 0.3680 0.7340
C33_4 C 0.9750(5) 0.2570(5) 0.7058(6)
H35_4 H 0.9920 0.2271 0.7079
H36_4 H 0.9811 0.1092 0.8817
C36_4 C 0.9303(4) 0.2603(5) 0.6794(5)
H42_4 H 0.9181 0.2314 0.6654
C37_4 C 0.9198(4) 0.3392(4) 0.6950(5)
H43_4 H 0.9007 0.3679 0.6939
N3_4 N 0.9038(3) 0.2999(3) 0.6722(4)
Cd7_4 Cd 0.83183(3) 0.30081(3) 0.62433(3)
C38_5 C 0.2326(6) 0.0243(6) 0.8535(6)
H44_5 H 0.2457 0.0129 0.8832
C39_5 C 0.2172(6) 0.0184(6) 0.7728(7)
H45_5 H 0.2219 0.0027 0.7427
C40_5 C 0.1901(6) 0.0659(6) 0.7733(7)
H46_5 H 0.1766 0.0787 0.7443
C41_5 C 0.2088(5) 0.0729(5) 0.8510(6)
H47_5 H 0.2112 0.0929 0.8787
H54_5 H 0.3612 0.0149 0.6307
C1_5 C 0.3365(5) 0.7230(5) 0.0941(4)
H1_5 H 0.3557 0.7357 0.1199
C2_5 C 0.2823(4) 0.6682(4) 0.0660(4)
H2_5 H 0.2610 0.6415 0.0720
C3_5 C 0.2836(5) 0.6858(5) 0.0199(5)
C4_5 C 0.3134(4) 0.7272(4) 0.0099(4)
C11_5 C 0.3400(4) 0.7465(4) 0.0476(4)
H12_5 H 0.3601 0.7743 0.0433
H48_5 H 0.1349 0.9158 0.0039
H50_5 H 0.1107 0.8672 0.0242
C50_5 C 0.2760(10) 0.9169(10) 0.0279(10)
H59_5 H 0.2410 0.9073 0.0290
H60_5 H 0.2950 0.8979 0.0514
H61_5 H 0.2789 0.9512 0.0356
Cd4_5 Cd 0.40365(4) 0.88853(4) 0.90098(4)
Cu1_5 Cu 0.38129(4) 0.77634(4) 0.85470(4)
Cu2_5 Cu 0.24191(4) 0.82838(4) 0.77474(4)
Cu3_5 Cu 0.33458(4) 0.75834(4) 0.74866(4)
Cu4_5 Cu 0.35470(4) 0.86768(4) 0.78722(4)
Cu5_5 Cu 0.26795(4) 0.73655(4) 0.84279(4)
Cu6_5 Cu 0.28812(4) 0.84573(4) 0.88134(4)
H3_5 H 0.2649 0.6707 0.9950
C5_5 C 0.2407(4) 0.7536(3) 0.6964(4)
H4_5 H 0.2135 0.7715 0.6803
H5_5 H 0.2601 0.7368 0.6711
C6_5 C 0.4571(3) 0.8319(4) 0.8009(4)
H6_5 H 0.4695 0.8641 0.7908
H7_5 H 0.4816 0.8183 0.8238
C7_5 C 0.4544(3) 0.7985(3) 0.7555(4)
C8_5 C 0.4175(3) 0.8176(4) 0.7165(4)
H8_5 H 0.4193 0.7958 0.6883
H9_5 H 0.4294 0.8497 0.7057
C9_5 C 0.3144(3) 0.7494(3) 0.9557(3)
C10_5 C 0.3493(3) 0.7940(3) 0.9542(3)
H10_5 H 0.3832 0.7838 0.9637
H11_5 H 0.3377 0.8178 0.9784
C12_5 C 0.2565(3) 0.6804(3) 0.7547(4)
H13_5 H 0.2730 0.6612 0.7292
H14_5 H 0.2388 0.6577 0.7763
C13_5 C 0.2179(3) 0.7157(3) 0.7309(4)
C14_5 C 0.1856(3) 0.7397(4) 0.7721(4)
H15_5 H 0.1692 0.7138 0.7910
H16_5 H 0.1590 0.7593 0.7570
C15_5 C 0.3051(4) 0.9452(3) 0.8449(4)
H17_5 H 0.2963 0.9568 0.8776
H18_5 H 0.3290 0.9684 0.8309
C16_5 C 0.2584(3) 0.9449(3) 0.8141(3)
C17_5 C 0.2701(4) 0.9312(3) 0.7618(4)
H19_5 H 0.2947 0.9544 0.7489
H20_5 H 0.2394 0.9344 0.7424
C18_5 C 0.2155(4) 0.9131(4) 0.8354(4)
H21_5 H 0.1857 0.9161 0.8146
H22_5 H 0.2067 0.9251 0.8679
C19_5 C 0.4403(3) 0.7468(3) 0.7704(4)
H23_5 H 0.4657 0.7347 0.7933
H24_5 H 0.4416 0.7260 0.7414
C20_5 C 0.2591(4) 0.7655(4) 0.9450(3)
H25_5 H 0.2491 0.7906 0.9685
H26_5 H 0.2367 0.7375 0.9493
C21_5 C 0.5061(3) 0.7968(4) 0.7285(4)
C22_5 C 0.1831(5) 0.6813(5) 0.8894(5)
C23_5 C 0.2355(4) 0.9966(4) 0.8137(4)
C24_5 C 0.3718(4) 0.6667(4) 0.6922(4)
C25_5 C 0.1808(4) 0.6824(5) 0.6989(5)
C26_5 C 0.1963(7) 0.6529(7) 0.6657(7)
H27_5 H 0.2311 0.6475 0.6640
C27_5 C 0.1001(5) 0.6629(6) 0.6639(5)
H28_5 H 0.0654 0.6696 0.6641
C28_5 C 0.1317(5) 0.6871(6) 0.6958(6)
H29_5 H 0.1165 0.7091 0.7175
C29_5 C 0.1659(7) 0.6278(7) 0.6315(7)
H30_5 H 0.1809 0.6087 0.6071
C30_5 C 0.3790(7) 0.6405(5) 0.6436(5)
H31_5 H 0.3886 0.6069 0.6495
H32_5 H 0.3478 0.6412 0.6253
H33_5 H 0.4051 0.6566 0.6250
C31_5 C 0.5348(4) 0.8385(5) 0.7209(6)
H34_5 H 0.5231 0.8680 0.7340
C32_5 C 0.4431(7) 0.6225(7) 0.8703(7)
C33_5 C 0.5250(5) 0.7570(5) 0.7058(6)
H35_5 H 0.5080 0.7271 0.7079
C34_5 C 0.4881(5) 0.6036(6) 0.8999(6)
H36_5 H 0.5189 0.6092 0.8817
H37_5 H 0.4898 0.6208 0.9308
H38_5 H 0.4841 0.5690 0.9059
C35_5 C 0.1596(5) 0.6329(6) 0.9132(6)
H39_5 H 0.1264 0.6400 0.9258
H40_5 H 0.1574 0.6076 0.8887
H41_5 H 0.1810 0.6220 0.9397
C36_5 C 0.5697(4) 0.7603(5) 0.6794(5)
H42_5 H 0.5819 0.7314 0.6654
C37_5 C 0.5802(4) 0.8392(4) 0.6950(5)
H43_5 H 0.5993 0.8679 0.6939
C42_5 C 0.1387(5) 0.8574(6) 0.9499(4)
C43_5 C 0.1783(5) 0.8653(5) 0.6897(7)
C44_5 C 0.1136(9) 0.8883(9) 0.9960(8)
H49_5 H 0.0805 0.8999 0.9867
C45_5 C 0.1233(8) 0.8703(9) 0.6637(8)
H51_5 H 0.1278 0.8776 0.6293
H52_5 H 0.1051 0.8398 0.6671
H53_5 H 0.1045 0.8963 0.6791
C46_5 C 0.3455(9) 0.9420(8) 0.6372(9)
C47_5 C 0.3671(8) 0.9859(8) 0.6113(8)
H55_5 H 0.4030 0.9815 0.6068
H56_5 H 0.3511 0.9896 0.5798
C48_5 C 0.2987(9) 0.9068(8) 0.9723(10)
C49_5 C 0.3328(4) 0.7076(3) 0.9225(4)
H57_5 H 0.3101 0.6797 0.9260
H58_5 H 0.3663 0.6973 0.9332
N2_5 N 0.1179(5) 0.6311(6) 0.6340(6)
O1_5 O 0.3944(3) 0.9332(3) 0.7578(3)
O2_5 O 0.3353(2) 0.7212(2) 0.8713(2)
O3_5 O 0.4422(4) 0.9539(5) 0.8592(5)
O4_5 O 0.2945(2) 0.7070(2) 0.7826(2)
O5_5 O 0.3913(2) 0.7416(2) 0.7927(2)
O6_5 O 0.2731(2) 0.7880(2) 0.7215(2)
O7_5 O 0.3588(3) 0.7120(2) 0.6895(2)
O8_5 O 0.3520(2) 0.8176(2) 0.9072(2)
O9_5 O 0.2132(2) 0.7696(2) 0.8044(2)
O10_5 O 0.4098(2) 0.8380(2) 0.8256(2)
O11_5 O 0.2253(3) 0.6770(3) 0.8724(3)
O12_5 O 0.2298(2) 0.8604(2) 0.8390(2)
O13_5 O 0.3665(2) 0.8222(2) 0.7301(2)
O14_5 O 0.2534(2) 0.7842(2) 0.8966(2)
O15_5 O 0.3302(2) 0.8968(2) 0.8494(2)
O16_5 O 0.1787(3) 0.8536(3) 0.7351(3)
O17_5 O 0.3799(3) 0.6430(3) 0.7308(3)
O18_5 O 0.2659(3) 0.8873(3) 0.9454(3)
O19_5 O 0.2897(2) 0.8820(2) 0.7556(2)
O20_5 O 0.1546(3) 0.7178(3) 0.8928(3)
O21_5 O 0.2159(4) 0.8680(3) 0.6620(3)
O22_5 O 0.4005(4) 0.6213(4) 0.8855(4)
O23_5 O 0.4503(4) 0.6429(4) 0.8337(4)
O24_5 O 0.4649(5) 0.8419(6) 0.9331(6)
O25_5 O 0.1522(4) 0.8156(4) 0.9561(4)
O26_5 O 0.1307(4) 0.8755(4) 0.9095(5)
O27_5 O 0.3680(5) 0.9154(5) 0.6576(5)
O28_5 O 0.3026(5) 0.9348(5) 0.6325(5)
O29_5 O 0.3547(6) 0.9191(4) 0.9622(5)
O30_5 O 0.4490(3) 0.7526(3) 0.8931(3)
H62_5 H 0.406448 0.953949 0.785545
H63_5 H 0.370678 0.952531 0.736973
H64_5 H 0.46449 0.940728 0.832819
H65_5 H 0.462821 0.973526 0.882687
H66_5 H 0.486942 0.829219 0.906286
H67_5 H 0.44949 0.813797 0.951092
H68_5 H 0.44156 0.749475 0.928808
H69_5 H 0.476405 0.777212 0.888146
Cd4_6 Cd 0.09635(4) 0.11147(4) 0.40098(4)
Cu1_6 Cu 0.11871(4) 0.22366(4) 0.35470(4)
Cu2_6 Cu 0.25809(4) 0.17162(4) 0.27474(4)
Cu3_6 Cu 0.16542(4) 0.24166(4) 0.24866(4)
Cu4_6 Cu 0.14530(4) 0.13232(4) 0.28722(4)
Cu5_6 Cu 0.23205(4) 0.26345(4) 0.34279(4)
Cu6_6 Cu 0.21188(4) 0.15427(4) 0.38134(4)
C1_6 C 0.1635(5) 0.2770(5) 0.5941(4)
H1_6 H 0.1443 0.2643 0.6199
C2_6 C 0.2177(4) 0.3318(4) 0.5660(4)
H2_6 H 0.2390 0.3585 0.5720
C3_6 C 0.2164(5) 0.3142(5) 0.5199(5)
H3_6 H 0.2351 0.3293 0.4950
C4_6 C 0.1866(4) 0.2728(4) 0.5099(4)
C5_6 C 0.2593(4) 0.2464(3) 0.1964(4)
H4_6 H 0.2865 0.2285 0.1803
H5_6 H 0.2399 0.2632 0.1711
C6_6 C 0.0429(3) 0.1681(4) 0.3009(4)
H6_6 H 0.0305 0.1359 0.2908
H7_6 H 0.0184 0.1817 0.3238
C7_6 C 0.0456(3) 0.2015(3) 0.2555(4)
C8_6 C 0.0825(3) 0.1824(4) 0.2165(4)
H8_6 H 0.0807 0.2042 0.1883
H9_6 H 0.0706 0.1503 0.2057
C9_6 C 0.1856(3) 0.2506(3) 0.4557(3)
C10_6 C 0.1507(3) 0.2060(3) 0.4542(3)
H10_6 H 0.1168 0.2162 0.4637
H11_6 H 0.1623 0.1822 0.4784
C11_6 C 0.1600(4) 0.2535(4) 0.5476(4)
H12_6 H 0.1399 0.2257 0.5433
C12_6 C 0.2435(3) 0.3196(3) 0.2547(4)
H13_6 H 0.2270 0.3388 0.2292
H14_6 H 0.2612 0.3423 0.2763
C13_6 C 0.2821(3) 0.2843(3) 0.2309(4)
C14_6 C 0.3144(3) 0.2603(4) 0.2721(4)
H15_6 H 0.3308 0.2862 0.2910
H16_6 H 0.3410 0.2407 0.2570
C15_6 C 0.1949(4) 0.0548(3) 0.3449(4)
H17_6 H 0.2037 0.0432 0.3776
H18_6 H 0.1710 0.0316 0.3309
C16_6 C 0.2416(3) 0.0551(3) 0.3141(3)
C17_6 C 0.2299(4) 0.0688(3) 0.2618(4)
H19_6 H 0.2053 0.0456 0.2489
H20_6 H 0.2606 0.0656 0.2424
C18_6 C 0.2845(4) 0.0869(4) 0.3354(4)
H21_6 H 0.3143 0.0839 0.3146
H22_6 H 0.2933 0.0749 0.3679
C19_6 C 0.0597(3) 0.2532(3) 0.2704(4)
H23_6 H 0.0343 0.2653 0.2933
H24_6 H 0.0584 0.2740 0.2414
C20_6 C 0.2409(4) 0.2345(4) 0.4450(3)
H25_6 H 0.2509 0.2094 0.4685
H26_6 H 0.2633 0.2625 0.4493
C22_6 C 0.3169(5) 0.3187(5) 0.3894(5)
C23_6 C 0.2645(4) 0.0034(4) 0.3137(4)
C24_6 C 0.1282(4) 0.3333(4) 0.1922(4)
C25_6 C 0.3192(4) 0.3176(5) 0.1989(5)
C26_6 C 0.3037(7) 0.3471(7) 0.1657(7)
H27_6 H 0.2689 0.3525 0.1640
C27_6 C 0.3999(5) 0.3371(6) 0.1639(5)
H28_6 H 0.4346 0.3304 0.1641
C28_6 C 0.3683(5) 0.3129(6) 0.1958(6)
H29_6 H 0.3835 0.2909 0.2175
C29_6 C 0.3341(7) 0.3722(7) 0.1315(7)
H30_6 H 0.3191 0.3913 0.1071
C30_6 C 0.1210(7) 0.3595(5) 0.1436(5)
H31_6 H 0.1114 0.3931 0.1495
H32_6 H 0.1522 0.3588 0.1253
H33_6 H 0.0949 0.3434 0.1250
C32_6 C 0.0569(7) 0.3775(7) 0.3703(7)
C34_6 C 0.0119(5) 0.3964(6) 0.3999(6)
H37_6 H 0.0102 0.3792 0.4308
H38_6 H 0.0159 0.4310 0.4059
C35_6 C 0.3404(5) 0.3671(6) 0.4132(6)
H39_6 H 0.3736 0.3600 0.4258
H40_6 H 0.3426 0.3924 0.3887
H41_6 H 0.3190 0.3780 0.4397
C42_6 C 0.3613(5) 0.1426(6) 0.4499(4)
C43_6 C 0.3217(5) 0.1347(5) 0.1897(7)
C44_6 C 0.3864(9) 0.1117(9) 0.4960(8)
H48_6 H 0.3651 0.0842 0.5039
H49_6 H 0.4195 0.1001 0.4867
H50_6 H 0.3893 0.1328 0.5242
C45_6 C 0.3767(8) 0.1297(9) 0.1637(8)
H51_6 H 0.3722 0.1224 0.1293
H52_6 H 0.3949 0.1602 0.1671
H53_6 H 0.3955 0.1037 0.1791
C46_6 C 0.1545(9) 0.0580(8) 0.1372(9)
C47_6 C 0.1329(8) 0.0141(8) 0.1113(8)
H55_6 H 0.0970 0.0185 0.1068
H56_6 H 0.1489 0.0104 0.0798
C48_6 C 0.2013(9) 0.0932(8) 0.4723(10)
C49_6 C 0.1672(4) 0.2924(3) 0.4225(4)
H57_6 H 0.1899 0.3203 0.4260
H58_6 H 0.1337 0.3027 0.4332
C50_6 C 0.2240(10) 0.0831(10) 0.5279(10)
H59_6 H 0.2590 0.0927 0.5290
H60_6 H 0.2050 0.1021 0.5514
H61_6 H 0.2211 0.0488 0.5356
N2_6 N 0.3821(5) 0.3689(6) 0.1340(6)
O1_6 O 0.1056(3) 0.0668(3) 0.2578(3)
O2_6 O 0.1647(2) 0.2788(2) 0.3713(2)
O3_6 O 0.0578(4) 0.0461(5) 0.3592(5)
O4_6 O 0.2055(2) 0.2930(2) 0.2826(2)
O5_6 O 0.1087(2) 0.2584(2) 0.2927(2)
O6_6 O 0.2269(2) 0.2120(2) 0.2215(2)
O7_6 O 0.1412(3) 0.2880(2) 0.1895(2)
O8_6 O 0.1480(2) 0.1824(2) 0.4072(2)
O9_6 O 0.2868(2) 0.2304(2) 0.3044(2)
O10_6 O 0.0902(2) 0.1620(2) 0.3256(2)
O11_6 O 0.2747(3) 0.3230(3) 0.3724(3)
O12_6 O 0.2702(2) 0.1396(2) 0.3390(2)
O13_6 O 0.1335(2) 0.1778(2) 0.2301(2)
O14_6 O 0.2466(2) 0.2158(2) 0.3966(2)
O15_6 O 0.1698(2) 0.1032(2) 0.3494(2)
O16_6 O 0.3213(3) 0.1464(3) 0.2351(3)
O17_6 O 0.1201(3) 0.3570(3) 0.2308(3)
O18_6 O 0.2341(3) 0.1127(3) 0.4454(3)
O19_6 O 0.2103(2) 0.1180(2) 0.2556(2)
O20_6 O 0.3454(3) 0.2822(3) 0.3928(3)
O21_6 O 0.2841(4) 0.1320(3) 0.1620(3)
O22_6 O 0.0995(4) 0.3787(4) 0.3855(4)
O23_6 O 0.0497(4) 0.3571(4) 0.3337(4)
O24_6 O 0.0351(5) 0.1581(6) 0.4331(6)
O25_6 O 0.3478(4) 0.1844(4) 0.4561(4)
O26_6 O 0.3693(4) 0.1245(4) 0.4095(5)
O27_6 O 0.1320(5) 0.0846(5) 0.1576(5)
O28_6 O 0.1974(5) 0.0652(5) 0.1325(5)
O29_6 O 0.1453(6) 0.0809(4) 0.4622(5)
O30_6 O 0.0510(3) 0.2474(3) 0.3931(3)
H62_6 H 0.0935524 0.0460505 0.285545
H63_6 H 0.129322 0.0474688 0.236973
H64_6 H 0.03551 0.0592715 0.332819
H65_6 H 0.0371789 0.0264736 0.382687
H66_6 H 0.0130583 0.170781 0.406286
H67_6 H 0.0505098 0.186203 0.451092
H68_6 H 0.0584405 0.250525 0.428808
H69_6 H 0.0235954 0.222788 0.388146
C38_6 C 0.2674(6) 0.9757(6) 0.3535(6)
H44_6 H 0.2543 0.9871 0.3832
C39_6 C 0.2828(6) 0.9816(6) 0.2728(7)
H45_6 H 0.2781 0.9973 0.2427
C40_6 C 0.3099(6) 0.9341(6) 0.2733(7)
H46_6 H 0.3234 0.9213 0.2443
C41_6 C 0.2912(5) 0.9271(5) 0.3510(6)
H47_6 H 0.2888 0.9071 0.3787
H54_6 H 0.1388 0.9851 0.1307
C21_6 C 0.9939(3) 0.2032(4) 0.2285(4)
C31_6 C 0.9652(4) 0.1615(5) 0.2209(6)
H34_6 H 0.9769 0.1320 0.2340
C33_6 C 0.9750(5) 0.2430(5) 0.2058(6)
H35_6 H 0.9920 0.2729 0.2079
H36_6 H 0.9811 0.3908 0.3817
C36_6 C 0.9303(4) 0.2397(5) 0.1794(5)
H42_6 H 0.9181 0.2686 0.1654
C37_6 C 0.9198(4) 0.1608(4) 0.1950(5)
H43_6 H 0.9007 0.1321 0.1939
Cd4_7 Cd 0.59635(4) 0.38853(4) 0.59902(4)
Cu1_7 Cu 0.61871(4) 0.27634(4) 0.64530(4)
Cu2_7 Cu 0.75809(4) 0.32838(4) 0.72526(4)
Cu3_7 Cu 0.66542(4) 0.25834(4) 0.75134(4)
Cu4_7 Cu 0.64530(4) 0.36768(4) 0.71278(4)
Cu5_7 Cu 0.73205(4) 0.23655(4) 0.65721(4)
Cu6_7 Cu 0.71188(4) 0.34573(4) 0.61866(4)
C1_7 C 0.6635(5) 0.2230(5) 0.4059(4)
H1_7 H 0.6443 0.2357 0.3801
C2_7 C 0.7177(4) 0.1682(4) 0.4340(4)
H2_7 H 0.7390 0.1415 0.4280
C3_7 C 0.7164(5) 0.1858(5) 0.4801(5)
H3_7 H 0.7351 0.1707 0.5050
C4_7 C 0.6866(4) 0.2272(4) 0.4901(4)
C5_7 C 0.7593(4) 0.2536(3) 0.8036(4)
H4_7 H 0.7865 0.2715 0.8197
H5_7 H 0.7399 0.2368 0.8289
C6_7 C 0.5429(3) 0.3319(4) 0.6991(4)
H6_7 H 0.5305 0.3641 0.7092
H7_7 H 0.5184 0.3183 0.6762
C7_7 C 0.5456(3) 0.2985(3) 0.7445(4)
C8_7 C 0.5825(3) 0.3176(4) 0.7835(4)
H8_7 H 0.5807 0.2958 0.8117
H9_7 H 0.5706 0.3497 0.7943
C9_7 C 0.6856(3) 0.2494(3) 0.5443(3)
C10_7 C 0.6507(3) 0.2940(3) 0.5458(3)
H10_7 H 0.6168 0.2838 0.5363
H11_7 H 0.6623 0.3178 0.5216
C11_7 C 0.6600(4) 0.2465(4) 0.4524(4)
H12_7 H 0.6399 0.2743 0.4567
C12_7 C 0.7435(3) 0.1804(3) 0.7453(4)
H13_7 H 0.7270 0.1612 0.7708
H14_7 H 0.7612 0.1577 0.7237
C13_7 C 0.7821(3) 0.2157(3) 0.7691(4)
C14_7 C 0.8144(3) 0.2397(4) 0.7279(4)
H15_7 H 0.8308 0.2138 0.7090
H16_7 H 0.8410 0.2593 0.7430
C15_7 C 0.6949(4) 0.4452(3) 0.6551(4)
H17_7 H 0.7037 0.4568 0.6224
H18_7 H 0.6710 0.4684 0.6691
C16_7 C 0.7416(3) 0.4449(3) 0.6859(3)
C17_7 C 0.7299(4) 0.4312(3) 0.7382(4)
H19_7 H 0.7053 0.4544 0.7511
H20_7 H 0.7606 0.4344 0.7576
C18_7 C 0.7845(4) 0.4131(4) 0.6646(4)
H21_7 H 0.8143 0.4161 0.6854
H22_7 H 0.7933 0.4251 0.6321
C19_7 C 0.5597(3) 0.2468(3) 0.7296(4)
H23_7 H 0.5343 0.2347 0.7067
H24_7 H 0.5584 0.2260 0.7586
C20_7 C 0.7409(4) 0.2655(4) 0.5550(3)
H25_7 H 0.7509 0.2906 0.5315
H26_7 H 0.7633 0.2375 0.5507
C21_7 C 0.4939(3) 0.2968(4) 0.7715(4)
C22_7 C 0.8169(5) 0.1813(5) 0.6106(5)
C23_7 C 0.7645(4) 0.4966(4) 0.6863(4)
C24_7 C 0.6282(4) 0.1667(4) 0.8078(4)
C25_7 C 0.8192(4) 0.1824(5) 0.8011(5)
C26_7 C 0.8037(7) 0.1529(7) 0.8343(7)
H27_7 H 0.7689 0.1475 0.8360
C27_7 C 0.8999(5) 0.1629(6) 0.8361(5)
H28_7 H 0.9346 0.1696 0.8359
C28_7 C 0.8683(5) 0.1871(6) 0.8042(6)
H29_7 H 0.8835 0.2091 0.7825
C29_7 C 0.8341(7) 0.1278(7) 0.8685(7)
H30_7 H 0.8191 0.1087 0.8929
C30_7 C 0.6210(7) 0.1405(5) 0.8564(5)
H31_7 H 0.6114 0.1069 0.8505
H32_7 H 0.6522 0.1412 0.8747
H33_7 H 0.5949 0.1566 0.8750
C31_7 C 0.4652(4) 0.3385(5) 0.7791(6)
H34_7 H 0.4769 0.3680 0.7660
C32_7 C 0.5569(7) 0.1225(7) 0.6297(7)
C33_7 C 0.4750(5) 0.2570(5) 0.7942(6)
H35_7 H 0.4920 0.2271 0.7921
C34_7 C 0.5119(5) 0.1036(6) 0.6001(6)
H36_7 H 0.4811 0.1092 0.6183
H37_7 H 0.5102 0.1208 0.5692
H38_7 H 0.5159 0.0690 0.5941
C35_7 C 0.8404(5) 0.1329(6) 0.5868(6)
H39_7 H 0.8736 0.1400 0.5742
H40_7 H 0.8426 0.1076 0.6113
H41_7 H 0.8190 0.1220 0.5603
C36_7 C 0.4303(4) 0.2603(5) 0.8206(5)
H42_7 H 0.4181 0.2314 0.8346
C37_7 C 0.4198(4) 0.3392(4) 0.8050(5)
H43_7 H 0.4007 0.3679 0.8061
C38_7 C 0.7674(6) 0.5243(6) 0.6465(6)
H44_7 H 0.7543 0.5129 0.6168
C39_7 C 0.7828(6) 0.5184(6) 0.7272(7)
H45_7 H 0.7781 0.5027 0.7573
C40_7 C 0.8099(6) 0.5659(6) 0.7267(7)
H46_7 H 0.8234 0.5787 0.7557
C41_7 C 0.7912(5) 0.5729(5) 0.6490(6)
H47_7 H 0.7888 0.5929 0.6213
C42_7 C 0.8613(5) 0.3574(6) 0.5501(4)
C43_7 C 0.8217(5) 0.3653(5) 0.8103(7)
C44_7 C 0.8864(9) 0.3883(9) 0.5040(8)
H48_7 H 0.8651 0.4158 0.4961
H49_7 H 0.9195 0.3999 0.5133
H50_7 H 0.8893 0.3672 0.4758
C45_7 C 0.8767(8) 0.3703(9) 0.8363(8)
H51_7 H 0.8722 0.3776 0.8707
H52_7 H 0.8949 0.3398 0.8329
H53_7 H 0.8955 0.3963 0.8209
C46_7 C 0.6545(9) 0.4420(8) 0.8628(9)
C47_7 C 0.6329(8) 0.4859(8) 0.8887(8)
H54_7 H 0.6388 0.5149 0.8693
H55_7 H 0.5970 0.4815 0.8932
H56_7 H 0.6489 0.4896 0.9202
C48_7 C 0.7013(9) 0.4068(8) 0.5277(10)
C49_7 C 0.6672(4) 0.2076(3) 0.5775(4)
H57_7 H 0.6899 0.1797 0.5740
H58_7 H 0.6337 0.1973 0.5668
C50_7 C 0.7240(10) 0.4169(10) 0.4721(10)
H59_7 H 0.7590 0.4073 0.4710
H60_7 H 0.7050 0.3979 0.4486
H61_7 H 0.7211 0.4512 0.4644
N2_7 N 0.8821(5) 0.1311(6) 0.8660(6)
O1_7 O 0.6056(3) 0.4332(3) 0.7422(3)
O2_7 O 0.6647(2) 0.2212(2) 0.6287(2)
O3_7 O 0.5578(4) 0.4539(5) 0.6408(5)
O4_7 O 0.7055(2) 0.2070(2) 0.7174(2)
O5_7 O 0.6087(2) 0.2416(2) 0.7073(2)
O6_7 O 0.7269(2) 0.2880(2) 0.7785(2)
O7_7 O 0.6412(3) 0.2120(2) 0.8105(2)
O8_7 O 0.6480(2) 0.3176(2) 0.5928(2)
O9_7 O 0.7868(2) 0.2696(2) 0.6956(2)
O10_7 O 0.5902(2) 0.3380(2) 0.6744(2)
O11_7 O 0.7747(3) 0.1770(3) 0.6276(3)
O12_7 O 0.7702(2) 0.3604(2) 0.6610(2)
O13_7 O 0.6335(2) 0.3222(2) 0.7699(2)
O14_7 O 0.7466(2) 0.2842(2) 0.6034(2)
O15_7 O 0.6698(2) 0.3968(2) 0.6506(2)
O16_7 O 0.8213(3) 0.3536(3) 0.7649(3)
O17_7 O 0.6201(3) 0.1430(3) 0.7692(3)
O18_7 O 0.7341(3) 0.3873(3) 0.5546(3)
O19_7 O 0.7103(2) 0.3820(2) 0.7444(2)
O20_7 O 0.8454(3) 0.2178(3) 0.6072(3)
O21_7 O 0.7841(4) 0.3680(3) 0.8380(3)
O22_7 O 0.5995(4) 0.1213(4) 0.6145(4)
O23_7 O 0.5497(4) 0.1429(4) 0.6663(4)
O24_7 O 0.5351(5) 0.3419(6) 0.5669(6)
O25_7 O 0.8478(4) 0.3156(4) 0.5439(4)
O26_7 O 0.8693(4) 0.3755(4) 0.5905(5)
O27_7 O 0.6320(5) 0.4154(5) 0.8424(5)
O28_7 O 0.6974(5) 0.4348(5) 0.8675(5)
O29_7 O 0.6453(6) 0.4191(4) 0.5378(5)
O30_7 O 0.5510(3) 0.2526(3) 0.6069(3)
H62_7 H 0.593552 0.453949 0.714455
H63_7 H 0.629322 0.452531 0.763027
H64_7 H 0.53551 0.440728 0.667181
H65_7 H 0.537179 0.473526 0.617313
H66_7 H 0.513058 0.329219 0.593714
H67_7 H 0.55051 0.313797 0.548908
H68_7 H 0.55844 0.249475 0.571192
H69_7 H 0.523595 0.277212 0.611854
C21_8 C 0.0061(3) 0.7032(4) 0.2715(4)
C31_8 C 0.0348(4) 0.6615(5) 0.2791(6)
H34_8 H 0.0231 0.6320 0.2660
C33_8 C 0.0250(5) 0.7430(5) 0.2942(6)
H35_8 H 0.0080 0.7729 0.2921
H36_8 H 0.0189 0.8908 0.1183
C36_8 C 0.0697(4) 0.7397(5) 0.3206(5)
H42_8 H 0.0819 0.7686 0.3346
C37_8 C 0.0802(4) 0.6608(4) 0.3050(5)
H43_8 H 0.0993 0.6321 0.3061
Cd4_8 Cd 0.90365(4) 0.61147(4) 0.09902(4)
Cu1_8 Cu 0.88129(4) 0.72366(4) 0.14530(4)
Cu2_8 Cu 0.74191(4) 0.67162(4) 0.22526(4)
Cu3_8 Cu 0.83458(4) 0.74166(4) 0.25134(4)
Cu4_8 Cu 0.85470(4) 0.63232(4) 0.21278(4)
Cu5_8 Cu 0.76795(4) 0.76345(4) 0.15721(4)
Cu6_8 Cu 0.78812(4) 0.65427(4) 0.11866(4)
H3_8 H 0.7649 0.8293 0.0050
C5_8 C 0.7407(4) 0.7464(3) 0.3036(4)
H4_8 H 0.7135 0.7285 0.3197
H5_8 H 0.7601 0.7632 0.3289
C6_8 C 0.9571(3) 0.6681(4) 0.1991(4)
H6_8 H 0.9695 0.6359 0.2092
H7_8 H 0.9816 0.6817 0.1762
C7_8 C 0.9544(3) 0.7015(3) 0.2445(4)
C8_8 C 0.9175(3) 0.6824(4) 0.2835(4)
H8_8 H 0.9193 0.7042 0.3117
H9_8 H 0.9294 0.6503 0.2943
C9_8 C 0.8144(3) 0.7506(3) 0.0443(3)
C10_8 C 0.8493(3) 0.7060(3) 0.0458(3)
H10_8 H 0.8832 0.7162 0.0363
H11_8 H 0.8377 0.6822 0.0216
C12_8 C 0.7565(3) 0.8196(3) 0.2453(4)
H13_8 H 0.7730 0.8388 0.2708
H14_8 H 0.7388 0.8423 0.2237
C13_8 C 0.7179(3) 0.7843(3) 0.2691(4)
C14_8 C 0.6856(3) 0.7603(4) 0.2279(4)
H15_8 H 0.6692 0.7862 0.2090
H16_8 H 0.6590 0.7407 0.2430
C15_8 C 0.8051(4) 0.5548(3) 0.1551(4)
H17_8 H 0.7963 0.5432 0.1224
H18_8 H 0.8290 0.5316 0.1691
C16_8 C 0.7584(3) 0.5551(3) 0.1859(3)
C17_8 C 0.7701(4) 0.5688(3) 0.2382(4)
H19_8 H 0.7947 0.5456 0.2511
H20_8 H 0.7394 0.5656 0.2576
C18_8 C 0.7155(4) 0.5869(4) 0.1646(4)
H21_8 H 0.6857 0.5839 0.1854
H22_8 H 0.7067 0.5749 0.1321
C19_8 C 0.9403(3) 0.7532(3) 0.2296(4)
H23_8 H 0.9657 0.7653 0.2067
H24_8 H 0.9416 0.7740 0.2586
C20_8 C 0.7591(4) 0.7345(4) 0.0550(3)
H25_8 H 0.7491 0.7094 0.0315
H26_8 H 0.7367 0.7625 0.0507
C22_8 C 0.6831(5) 0.8187(5) 0.1106(5)
C23_8 C 0.7355(4) 0.5034(4) 0.1863(4)
C24_8 C 0.8718(4) 0.8333(4) 0.3078(4)
C25_8 C 0.6808(4) 0.8176(5) 0.3011(5)
C26_8 C 0.6963(7) 0.8471(7) 0.3343(7)
H27_8 H 0.7311 0.8525 0.3360
C27_8 C 0.6001(5) 0.8371(6) 0.3361(5)
H28_8 H 0.5654 0.8304 0.3359
C28_8 C 0.6317(5) 0.8129(6) 0.3042(6)
H29_8 H 0.6165 0.7909 0.2825
C29_8 C 0.6659(7) 0.8722(7) 0.3685(7)
H30_8 H 0.6809 0.8913 0.3929
C30_8 C 0.8790(7) 0.8595(5) 0.3564(5)
H31_8 H 0.8886 0.8931 0.3505
H32_8 H 0.8478 0.8588 0.3747
H33_8 H 0.9051 0.8434 0.3750
C32_8 C 0.9431(7) 0.8775(7) 0.1297(7)
C34_8 C 0.9881(5) 0.8964(6) 0.1001(6)
H37_8 H 0.9898 0.8792 0.0692
H38_8 H 0.9841 0.9310 0.0941
C35_8 C 0.6596(5) 0.8671(6) 0.0868(6)
H39_8 H 0.6264 0.8600 0.0742
H40_8 H 0.6574 0.8924 0.1113
H41_8 H 0.6810 0.8780 0.0603
C38_8 C 0.7326(6) 0.4757(6) 0.1465(6)
H44_8 H 0.7457 0.4871 0.1168
C39_8 C 0.7172(6) 0.4816(6) 0.2272(7)
H45_8 H 0.7219 0.4973 0.2573
C40_8 C 0.6901(6) 0.4341(6) 0.2267(7)
H46_8 H 0.6766 0.4213 0.2557
C41_8 C 0.7088(5) 0.4271(5) 0.1490(6)
H47_8 H 0.7112 0.4071 0.1213
C42_8 C 0.6387(5) 0.6426(6) 0.0501(4)
C43_8 C 0.6783(5) 0.6347(5) 0.3103(7)
C44_8 C 0.6136(9) 0.6117(9) 0.0040(8)
H49_8 H 0.5805 0.6001 0.0133
C45_8 C 0.6233(8) 0.6297(9) 0.3363(8)
H51_8 H 0.6278 0.6224 0.3707
H52_8 H 0.6051 0.6602 0.3329
H53_8 H 0.6045 0.6037 0.3209
C46_8 C 0.8455(9) 0.5580(8) 0.3628(9)
C47_8 C 0.8671(8) 0.5141(8) 0.3887(8)
H54_8 H 0.8612 0.4851 0.3693
H55_8 H 0.9030 0.5185 0.3932
H56_8 H 0.8511 0.5104 0.4202
C48_8 C 0.7987(9) 0.5932(8) 0.0277(10)
C49_8 C 0.8328(4) 0.7924(3) 0.0775(4)
H57_8 H 0.8101 0.8203 0.0740
H58_8 H 0.8663 0.8027 0.0668
N2_8 N 0.6179(5) 0.8689(6) 0.3660(6)
O1_8 O 0.8944(3) 0.5668(3) 0.2422(3)
O2_8 O 0.8353(2) 0.7788(2) 0.1287(2)
O3_8 O 0.9422(4) 0.5461(5) 0.1408(5)
O4_8 O 0.7945(2) 0.7930(2) 0.2174(2)
O5_8 O 0.8913(2) 0.7584(2) 0.2073(2)
O6_8 O 0.7731(2) 0.7120(2) 0.2785(2)
O7_8 O 0.8588(3) 0.7880(2) 0.3105(2)
O8_8 O 0.8520(2) 0.6824(2) 0.0928(2)
O9_8 O 0.7132(2) 0.7304(2) 0.1956(2)
O10_8 O 0.9098(2) 0.6620(2) 0.1744(2)
O11_8 O 0.7253(3) 0.8230(3) 0.1276(3)
O12_8 O 0.7298(2) 0.6396(2) 0.1610(2)
O13_8 O 0.8665(2) 0.6778(2) 0.2699(2)
O14_8 O 0.7534(2) 0.7158(2) 0.1034(2)
O15_8 O 0.8302(2) 0.6032(2) 0.1506(2)
O16_8 O 0.6787(3) 0.6464(3) 0.2649(3)
O17_8 O 0.8799(3) 0.8570(3) 0.2692(3)
O18_8 O 0.7659(3) 0.6127(3) 0.0546(3)
O19_8 O 0.7897(2) 0.6180(2) 0.2444(2)
O20_8 O 0.6546(3) 0.7822(3) 0.1072(3)
O21_8 O 0.7159(4) 0.6320(3) 0.3380(3)
O22_8 O 0.9005(4) 0.8787(4) 0.1145(4)
O23_8 O 0.9503(4) 0.8571(4) 0.1663(4)
O24_8 O 0.9649(5) 0.6581(6) 0.0669(6)
O25_8 O 0.6522(4) 0.6844(4) 0.0439(4)
O26_8 O 0.6307(4) 0.6245(4) 0.0905(5)
O27_8 O 0.8680(5) 0.5846(5) 0.3424(5)
O28_8 O 0.8026(5) 0.5652(5) 0.3675(5)
O29_8 O 0.8547(6) 0.5809(4) 0.0378(5)
O30_8 O 0.9490(3) 0.7474(3) 0.1069(3)
H62_8 H 0.906448 0.546051 0.214455
H63_8 H 0.870678 0.547469 0.263027
H64_8 H 0.96449 0.559272 0.167181
H65_8 H 0.962821 0.526474 0.117313
H66_8 H 0.986942 0.670781 0.093714
H67_8 H 0.94949 0.686203 0.0489081
H68_8 H 0.94156 0.750525 0.071192
H69_8 H 0.976405 0.722788 0.111854
C1_8 C 0.8365(5) 0.7770(5) 0.9059(4)
H1_8 H 0.8557 0.7643 0.8801
C2_8 C 0.7823(4) 0.8318(4) 0.9340(4)
H2_8 H 0.7610 0.8585 0.9280
C3_8 C 0.7836(5) 0.8142(5) 0.9801(5)
C4_8 C 0.8134(4) 0.7728(4) 0.9901(4)
C11_8 C 0.8400(4) 0.7535(4) 0.9524(4)
H12_8 H 0.8601 0.7257 0.9567
H48_8 H 0.6349 0.5842 0.9961
H50_8 H 0.6107 0.6328 0.9758
C50_8 C 0.7760(10) 0.5831(10) 0.9721(10)
H59_8 H 0.7410 0.5927 0.9710
H60_8 H 0.7950 0.6021 0.9486
H61_8 H 0.7789 0.5488 0.9644
loop_
_geom_bond_atom_site_label_1
_geom_bond_atom_site_label_2
_geom_bond_site_symmetry_1
_geom_bond_site_symmetry_2
Cd1 O2 1_555 1_555
Cd2 O6 1_555 1_555
Cd3 O9 1_555 1_555
Cd4 O3 1_555 1_555
Cu1 O2 1_555 1_555
Cu2 O6 1_555 1_555
Cu3 O4 1_555 1_555
Cu4 O1 1_555 1_555
Cu5 O2 1_555 1_555
Cu6 O8 1_555 1_555
C5 H4 1_555 1_555
H5 C5 1_555 1_555
C6 H6 1_555 1_555
H7 C6 1_555 1_555
C7 C6 1_555 1_555
C8 C7 1_555 1_555
H8 C8 1_555 1_555
H9 C8 1_555 1_555
C10 C9 1_555 1_555
H10 C10 1_555 1_555
H11 C10 1_555 1_555
C12 H13 1_555 1_555
H14 C12 1_555 1_555
C13 C5 1_555 1_555
C14 C13 1_555 1_555
H15 C14 1_555 1_555
H16 C14 1_555 1_555
C15 H17 1_555 1_555
H18 C15 1_555 1_555
C16 C15 1_555 1_555
C17 C16 1_555 1_555
H19 C17 1_555 1_555
H20 C17 1_555 1_555
C18 C16 1_555 1_555
H21 C18 1_555 1_555
H22 C18 1_555 1_555
C19 C7 1_555 1_555
H23 C19 1_555 1_555
H24 C19 1_555 1_555
C20 C9 1_555 1_555
H25 C20 1_555 1_555
H26 C20 1_555 1_555
C21 C7 1_555 1_555
C22 C35 1_555 1_555
C23 C16 1_555 1_555
C24 C30 1_555 1_555
C25 C13 1_555 1_555
C26 C25 1_555 1_555
H27 C26 1_555 1_555
C27 H28 1_555 1_555
C28 C25 1_555 1_555
H29 C28 1_555 1_555
C29 C26 1_555 1_555
H30 C29 1_555 1_555
C30 H31 1_555 1_555
H32 C30 1_555 1_555
H33 C30 1_555 1_555
C31 C21 1_555 1_555
H34 C31 1_555 1_555
C32 C34 1_555 1_555
C33 C21 1_555 1_555
H35 C33 1_555 1_555
C34 H36 1_555 1_555
H37 C34 1_555 1_555
H38 C34 1_555 1_555
C35 H39 1_555 1_555
H40 C35 1_555 1_555
H41 C35 1_555 1_555
C36 C33 1_555 1_555
H42 C36 1_555 1_555
C37 C31 1_555 1_555
H43 C37 1_555 1_555
C42 C44 1_555 1_555
C43 C45 1_555 1_555
H49 C44 1_555 1_555
C45 H51 1_555 1_555
H52 C45 1_555 1_555
H53 C45 1_555 1_555
C46 C47 1_555 1_555
H55 C47 1_555 1_555
H56 C47 1_555 1_555
C49 C9 1_555 1_555
H57 C49 1_555 1_555
H58 C49 1_555 1_555
N2 C27 1_555 1_555
N3 C36 1_555 1_555
O2 C49 1_555 1_555
O4 Cd1 1_555 1_555
O5 Cd1 1_555 1_555
O6 Cu3 1_555 1_555
O7 Cu3 1_555 1_555
O8 Cd4 1_555 1_555
O9 Cu2 1_555 1_555
O10 Cd4 1_555 1_555
O11 Cu5 1_555 1_555
O12 Cd3 1_555 1_555
O13 Cd2 1_555 1_555
O14 Cd3 1_555 1_555
O15 Cd4 1_555 1_555
O16 Cu2 1_555 1_555
O17 Cd1 1_555 1_555
O18 Cu6 1_555 1_555
O19 Cd2 1_555 1_555
O20 Cd3 1_555 1_555
O21 Cd2 1_555 1_555
O22 Cd1 1_555 1_555
O23 Cd1 1_555 1_555
O24 Cd4 1_555 1_555
O25 Cd3 1_555 1_555
O26 Cd3 1_555 1_555
O27 Cd2 1_555 1_555
O28 Cd2 1_555 1_555
O29 Cd4 1_555 1_555
O30 Cu1 1_555 1_555
Cd7 N3 1_555 1_555
N5 Cd2 1_555 1_555
N6 Cd3 1_555 1_555
N7 Cd1 1_555 1_555
Cu1 O5 1_555 1_555
Cu1 O8 1_555 1_555
Cu1 O10 1_555 1_555
Cu2 O12 1_555 1_555
Cu2 O19 1_555 1_555
Cu3 O5 1_555 1_555
Cu3 O13 1_555 1_555
Cu4 O10 1_555 1_555
Cu4 O13 1_555 1_555
Cu4 O15 1_555 1_555
Cu4 O19 1_555 1_555
Cu5 O4 1_555 1_555
Cu5 O9 1_555 1_555
Cu5 O14 1_555 1_555
Cu6 O12 1_555 1_555
Cu6 O14 1_555 1_555
Cu6 O15 1_555 1_555
C5 O6 1_555 1_555
C6 O10 1_555 1_555
C8 O13 1_555 1_555
C10 O8 1_555 1_555
C12 C13 1_555 1_555
C12 O4 1_555 1_555
C14 O9 1_555 1_555
C15 O15 1_555 1_555
C17 O19 1_555 1_555
C18 O12 1_555 1_555
C19 O5 1_555 1_555
C20 O14 1_555 1_555
C22 O11 1_555 1_555
C22 O20 1_555 1_555
C24 O7 1_555 1_555
C24 O17 1_555 1_555
C27 C28 1_555 1_555
C29 N2 1_555 1_555
C32 O22 1_555 1_555
C32 O23 1_555 1_555
C37 N3 1_555 1_555
C42 O25 1_555 1_555
C42 O26 1_555 1_555
C43 O16 1_555 1_555
C43 O21 1_555 1_555
C46 O27 1_555 1_555
C46 O28 1_555 1_555
C48 O18 1_555 1_555
C48 O29 1_555 1_555
O1 H62 1_555 1_555
O1 H63 1_555 1_555
O3 H64 1_555 1_555
O3 H65 1_555 1_555
O24 H66 1_555 1_555
O24 H67 1_555 1_555
O30 H68 1_555 1_555
O30 H69 1_555 1_555
C1 H1 1_555 1_555
C2 H2 1_555 1_555
C3 C2 1_555 1_555
C4 C3 1_555 1_555
C11 C1 1_555 1_555
H12 C11 1_555 1_555
C50 H59 1_555 1_555
H60 C50 1_555 1_555
H61 C50 1_555 1_555
N1 C1 1_555 1_555
Cd6 N1 1_555 1_555
C2 N1 1_555 1_555
C4 C11 1_555 1_555
H44 C38 1_555 1_555
H45 C39 1_555 1_555
C40 C39 1_555 1_555
H46 C40 1_555 1_555
C41 C38 1_555 1_555
H47 C41 1_555 1_555
N4 C40 1_555 1_555
Cd5 N4 1_555 1_555
C41 N4 1_555 1_555
C31_2 C21_2 1_555 1_555
H34_2 C31_2 1_555 1_555
C33_2 C21_2 1_555 1_555
H35_2 C33_2 1_555 1_555
C36_2 C33_2 1_555 1_555
H42_2 C36_2 1_555 1_555
C37_2 C31_2 1_555 1_555
H43_2 C37_2 1_555 1_555
N3_2 C36_2 1_555 1_555
Cd7_2 N3_2 1_555 1_555
C37_2 N3_2 1_555 1_555
H44_2 C38_2 1_555 1_555
H45_2 C39_2 1_555 1_555
C40_2 C39_2 1_555 1_555
H46_2 C40_2 1_555 1_555
C41_2 C38_2 1_555 1_555
H47_2 C41_2 1_555 1_555
N4_2 C40_2 1_555 1_555
Cd5_2 N4_2 1_555 1_555
C41_2 N4_2 1_555 1_555
Cd1_2 O2_2 1_555 1_555
Cd2_2 O6_2 1_555 1_555
Cd3_2 O9_2 1_555 1_555
Cd4_2 O3_2 1_555 1_555
Cu1_2 O2_2 1_555 1_555
Cu2_2 O6_2 1_555 1_555
Cu3_2 O4_2 1_555 1_555
Cu4_2 O1_2 1_555 1_555
Cu5_2 O2_2 1_555 1_555
Cu6_2 O8_2 1_555 1_555
C1_2 H1_2 1_555 1_555
C2_2 H2_2 1_555 1_555
C3_2 C2_2 1_555 1_555
H3_2 C3_2 1_555 1_555
C4_2 C3_2 1_555 1_555
C5_2 H4_2 1_555 1_555
H5_2 C5_2 1_555 1_555
C6_2 H6_2 1_555 1_555
H7_2 C6_2 1_555 1_555
C7_2 C6_2 1_555 1_555
C8_2 C7_2 1_555 1_555
H8_2 C8_2 1_555 1_555
H9_2 C8_2 1_555 1_555
C9_2 C4_2 1_555 1_555
C10_2 C9_2 1_555 1_555
H10_2 C10_2 1_555 1_555
H11_2 C10_2 1_555 1_555
C11_2 C1_2 1_555 1_555
H12_2 C11_2 1_555 1_555
C12_2 H13_2 1_555 1_555
H14_2 C12_2 1_555 1_555
C13_2 C5_2 1_555 1_555
C14_2 C13_2 1_555 1_555
H15_2 C14_2 1_555 1_555
H16_2 C14_2 1_555 1_555
C15_2 H17_2 1_555 1_555
H18_2 C15_2 1_555 1_555
C16_2 C15_2 1_555 1_555
C17_2 C16_2 1_555 1_555
H19_2 C17_2 1_555 1_555
H20_2 C17_2 1_555 1_555
C18_2 C16_2 1_555 1_555
H21_2 C18_2 1_555 1_555
H22_2 C18_2 1_555 1_555
C19_2 C7_2 1_555 1_555
H23_2 C19_2 1_555 1_555
H24_2 C19_2 1_555 1_555
C20_2 C9_2 1_555 1_555
H25_2 C20_2 1_555 1_555
H26_2 C20_2 1_555 1_555
C22_2 C35_2 1_555 1_555
C23_2 C16_2 1_555 1_555
C24_2 C30_2 1_555 1_555
C25_2 C13_2 1_555 1_555
C26_2 C25_2 1_555 1_555
H27_2 C26_2 1_555 1_555
C27_2 H28_2 1_555 1_555
C28_2 C25_2 1_555 1_555
H29_2 C28_2 1_555 1_555
C29_2 C26_2 1_555 1_555
H30_2 C29_2 1_555 1_555
C30_2 H31_2 1_555 1_555
H32_2 C30_2 1_555 1_555
H33_2 C30_2 1_555 1_555
C32_2 C34_2 1_555 1_555
H37_2 C34_2 1_555 1_555
H38_2 C34_2 1_555 1_555
C35_2 H39_2 1_555 1_555
H40_2 C35_2 1_555 1_555
H41_2 C35_2 1_555 1_555
C42_2 C44_2 1_555 1_555
C43_2 C45_2 1_555 1_555
C44_2 H48_2 1_555 1_555
H49_2 C44_2 1_555 1_555
H50_2 C44_2 1_555 1_555
C45_2 H51_2 1_555 1_555
H52_2 C45_2 1_555 1_555
H53_2 C45_2 1_555 1_555
C46_2 C47_2 1_555 1_555
H55_2 C47_2 1_555 1_555
H56_2 C47_2 1_555 1_555
C48_2 C50_2 1_555 1_555
C49_2 C9_2 1_555 1_555
H57_2 C49_2 1_555 1_555
H58_2 C49_2 1_555 1_555
C50_2 H59_2 1_555 1_555
H60_2 C50_2 1_555 1_555
H61_2 C50_2 1_555 1_555
N1_2 C1_2 1_555 1_555
N2_2 C27_2 1_555 1_555
O2_2 C49_2 1_555 1_555
O4_2 Cd1_2 1_555 1_555
O5_2 Cd1_2 1_555 1_555
O6_2 Cu3_2 1_555 1_555
O7_2 Cu3_2 1_555 1_555
O8_2 Cd4_2 1_555 1_555
O9_2 Cu2_2 1_555 1_555
O10_2 Cd4_2 1_555 1_555
O11_2 Cu5_2 1_555 1_555
O12_2 Cd3_2 1_555 1_555
O13_2 Cd2_2 1_555 1_555
O14_2 Cd3_2 1_555 1_555
O15_2 Cd4_2 1_555 1_555
O16_2 Cu2_2 1_555 1_555
O17_2 Cd1_2 1_555 1_555
O18_2 Cu6_2 1_555 1_555
O19_2 Cd2_2 1_555 1_555
O20_2 Cd3_2 1_555 1_555
O21_2 Cd2_2 1_555 1_555
O22_2 Cd1_2 1_555 1_555
O23_2 Cd1_2 1_555 1_555
O24_2 Cd4_2 1_555 1_555
O25_2 Cd3_2 1_555 1_555
O26_2 Cd3_2 1_555 1_555
O27_2 Cd2_2 1_555 1_555
O28_2 Cd2_2 1_555 1_555
O29_2 Cd4_2 1_555 1_555
O30_2 Cu1_2 1_555 1_555
Cd6_2 N1_2 1_555 1_555
N5_2 Cd2_2 1_555 1_555
N6_2 Cd3_2 1_555 1_555
N7_2 Cd1_2 1_555 1_555
Cu1_2 O5_2 1_555 1_555
Cu1_2 O8_2 1_555 1_555
Cu1_2 O10_2 1_555 1_555
Cu2_2 O12_2 1_555 1_555
Cu2_2 O19_2 1_555 1_555
Cu3_2 O5_2 1_555 1_555
Cu3_2 O13_2 1_555 1_555
Cu4_2 O10_2 1_555 1_555
Cu4_2 O13_2 1_555 1_555
Cu4_2 O15_2 1_555 1_555
Cu4_2 O19_2 1_555 1_555
Cu5_2 O4_2 1_555 1_555
Cu5_2 O9_2 1_555 1_555
Cu5_2 O14_2 1_555 1_555
Cu6_2 O12_2 1_555 1_555
Cu6_2 O14_2 1_555 1_555
Cu6_2 O15_2 1_555 1_555
C2_2 N1_2 1_555 1_555
C4_2 C11_2 1_555 1_555
C5_2 O6_2 1_555 1_555
C6_2 O10_2 1_555 1_555
C8_2 O13_2 1_555 1_555
C10_2 O8_2 1_555 1_555
C12_2 C13_2 1_555 1_555
C12_2 O4_2 1_555 1_555
C14_2 O9_2 1_555 1_555
C15_2 O15_2 1_555 1_555
C17_2 O19_2 1_555 1_555
C18_2 O12_2 1_555 1_555
C19_2 O5_2 1_555 1_555
C20_2 O14_2 1_555 1_555
C22_2 O11_2 1_555 1_555
C22_2 O20_2 1_555 1_555
C24_2 O7_2 1_555 1_555
C24_2 O17_2 1_555 1_555
C27_2 C28_2 1_555 1_555
C29_2 N2_2 1_555 1_555
C32_2 O22_2 1_555 1_555
C32_2 O23_2 1_555 1_555
C42_2 O25_2 1_555 1_555
C42_2 O26_2 1_555 1_555
C43_2 O16_2 1_555 1_555
C43_2 O21_2 1_555 1_555
C46_2 O27_2 1_555 1_555
C46_2 O28_2 1_555 1_555
C48_2 O18_2 1_555 1_555
C48_2 O29_2 1_555 1_555
O1_2 H62_2 1_555 1_555
O1_2 H63_2 1_555 1_555
O3_2 H64_2 1_555 1_555
O3_2 H65_2 1_555 1_555
O24_2 H66_2 1_555 1_555
O24_2 H67_2 1_555 1_555
O30_2 H68_2 1_555 1_555
O30_2 H69_2 1_555 1_555
Cd1_3 O2_3 1_555 1_555
Cd2_3 O6_3 1_555 1_555
Cd3_3 O9_3 1_555 1_555
Cd4_3 O3_3 1_555 1_555
Cu1_3 O2_3 1_555 1_555
Cu2_3 O6_3 1_555 1_555
Cu3_3 O4_3 1_555 1_555
Cu4_3 O1_3 1_555 1_555
Cu5_3 O2_3 1_555 1_555
Cu6_3 O8_3 1_555 1_555
C1_3 H1_3 1_555 1_555
C2_3 H2_3 1_555 1_555
C3_3 C2_3 1_555 1_555
H3_3 C3_3 1_555 1_555
C4_3 C3_3 1_555 1_555
C5_3 H4_3 1_555 1_555
H5_3 C5_3 1_555 1_555
C6_3 H6_3 1_555 1_555
H7_3 C6_3 1_555 1_555
C7_3 C6_3 1_555 1_555
C8_3 C7_3 1_555 1_555
H8_3 C8_3 1_555 1_555
H9_3 C8_3 1_555 1_555
C9_3 C4_3 1_555 1_555
C10_3 C9_3 1_555 1_555
H10_3 C10_3 1_555 1_555
H11_3 C10_3 1_555 1_555
C11_3 C1_3 1_555 1_555
H12_3 C11_3 1_555 1_555
C12_3 H13_3 1_555 1_555
H14_3 C12_3 1_555 1_555
C13_3 C5_3 1_555 1_555
C14_3 C13_3 1_555 1_555
H15_3 C14_3 1_555 1_555
H16_3 C14_3 1_555 1_555
C15_3 H17_3 1_555 1_555
H18_3 C15_3 1_555 1_555
C16_3 C15_3 1_555 1_555
C17_3 C16_3 1_555 1_555
H19_3 C17_3 1_555 1_555
H20_3 C17_3 1_555 1_555
C18_3 C16_3 1_555 1_555
H21_3 C18_3 1_555 1_555
H22_3 C18_3 1_555 1_555
C19_3 C7_3 1_555 1_555
H23_3 C19_3 1_555 1_555
H24_3 C19_3 1_555 1_555
C20_3 C9_3 1_555 1_555
H25_3 C20_3 1_555 1_555
H26_3 C20_3 1_555 1_555
C21_3 C7_3 1_555 1_555
C22_3 C35_3 1_555 1_555
C23_3 C16_3 1_555 1_555
C24_3 C30_3 1_555 1_555
C25_3 C13_3 1_555 1_555
C26_3 C25_3 1_555 1_555
H27_3 C26_3 1_555 1_555
C27_3 H28_3 1_555 1_555
C28_3 C25_3 1_555 1_555
H29_3 C28_3 1_555 1_555
C29_3 C26_3 1_555 1_555
H30_3 C29_3 1_555 1_555
C30_3 H31_3 1_555 1_555
H32_3 C30_3 1_555 1_555
H33_3 C30_3 1_555 1_555
C31_3 C21_3 1_555 1_555
H34_3 C31_3 1_555 1_555
C32_3 C34_3 1_555 1_555
C33_3 C21_3 1_555 1_555
H35_3 C33_3 1_555 1_555
C34_3 H36_3 1_555 1_555
H37_3 C34_3 1_555 1_555
H38_3 C34_3 1_555 1_555
C35_3 H39_3 1_555 1_555
H40_3 C35_3 1_555 1_555
H41_3 C35_3 1_555 1_555
C36_3 C33_3 1_555 1_555
H42_3 C36_3 1_555 1_555
C37_3 C31_3 1_555 1_555
H43_3 C37_3 1_555 1_555
C38_3 C23_3 1_555 1_555
H44_3 C38_3 1_555 1_555
C39_3 C23_3 1_555 1_555
H45_3 C39_3 1_555 1_555
C40_3 C39_3 1_555 1_555
H46_3 C40_3 1_555 1_555
C41_3 C38_3 1_555 1_555
H47_3 C41_3 1_555 1_555
C42_3 C44_3 1_555 1_555
C43_3 C45_3 1_555 1_555
C44_3 H48_3 1_555 1_555
H49_3 C44_3 1_555 1_555
H50_3 C44_3 1_555 1_555
C45_3 H51_3 1_555 1_555
H52_3 C45_3 1_555 1_555
H53_3 C45_3 1_555 1_555
C46_3 C47_3 1_555 1_555
C47_3 H54_3 1_555 1_555
H55_3 C47_3 1_555 1_555
H56_3 C47_3 1_555 1_555
C48_3 C50_3 1_555 1_555
C49_3 C9_3 1_555 1_555
H57_3 C49_3 1_555 1_555
H58_3 C49_3 1_555 1_555
C50_3 H59_3 1_555 1_555
H60_3 C50_3 1_555 1_555
H61_3 C50_3 1_555 1_555
N1_3 C1_3 1_555 1_555
N2_3 C27_3 1_555 1_555
N3_3 C36_3 1_555 1_555
N4_3 C40_3 1_555 1_555
O2_3 C49_3 1_555 1_555
O4_3 Cd1_3 1_555 1_555
O5_3 Cd1_3 1_555 1_555
O6_3 Cu3_3 1_555 1_555
O7_3 Cu3_3 1_555 1_555
O8_3 Cd4_3 1_555 1_555
O9_3 Cu2_3 1_555 1_555
O10_3 Cd4_3 1_555 1_555
O11_3 Cu5_3 1_555 1_555
O12_3 Cd3_3 1_555 1_555
O13_3 Cd2_3 1_555 1_555
O14_3 Cd3_3 1_555 1_555
O15_3 Cd4_3 1_555 1_555
O16_3 Cu2_3 1_555 1_555
O17_3 Cd1_3 1_555 1_555
O18_3 Cu6_3 1_555 1_555
O19_3 Cd2_3 1_555 1_555
O20_3 Cd3_3 1_555 1_555
O21_3 Cd2_3 1_555 1_555
O22_3 Cd1_3 1_555 1_555
O23_3 Cd1_3 1_555 1_555
O24_3 Cd4_3 1_555 1_555
O25_3 Cd3_3 1_555 1_555
O26_3 Cd3_3 1_555 1_555
O27_3 Cd2_3 1_555 1_555
O28_3 Cd2_3 1_555 1_555
O29_3 Cd4_3 1_555 1_555
O30_3 Cu1_3 1_555 1_555
Cd5_3 N4_3 1_555 1_555
Cd6_3 N1_3 1_555 1_555
Cd7_3 N3_3 1_555 1_555
N5_3 Cd2_3 1_555 1_555
N6_3 Cd3_3 1_555 1_555
N7_3 Cd1_3 1_555 1_555
Cu1_3 O5_3 1_555 1_555
Cu1_3 O8_3 1_555 1_555
Cu1_3 O10_3 1_555 1_555
Cu2_3 O12_3 1_555 1_555
Cu2_3 O19_3 1_555 1_555
Cu3_3 O5_3 1_555 1_555
Cu3_3 O13_3 1_555 1_555
Cu4_3 O10_3 1_555 1_555
Cu4_3 O13_3 1_555 1_555
Cu4_3 O15_3 1_555 1_555
Cu4_3 O19_3 1_555 1_555
Cu5_3 O4_3 1_555 1_555
Cu5_3 O9_3 1_555 1_555
Cu5_3 O14_3 1_555 1_555
Cu6_3 O12_3 1_555 1_555
Cu6_3 O14_3 1_555 1_555
Cu6_3 O15_3 1_555 1_555
C2_3 N1_3 1_555 1_555
C4_3 C11_3 1_555 1_555
C5_3 O6_3 1_555 1_555
C6_3 O10_3 1_555 1_555
C8_3 O13_3 1_555 1_555
C10_3 O8_3 1_555 1_555
C12_3 C13_3 1_555 1_555
C12_3 O4_3 1_555 1_555
C14_3 O9_3 1_555 1_555
C15_3 O15_3 1_555 1_555
C17_3 O19_3 1_555 1_555
C18_3 O12_3 1_555 1_555
C19_3 O5_3 1_555 1_555
C20_3 O14_3 1_555 1_555
C22_3 O11_3 1_555 1_555
C22_3 O20_3 1_555 1_555
C24_3 O7_3 1_555 1_555
C24_3 O17_3 1_555 1_555
C27_3 C28_3 1_555 1_555
C29_3 N2_3 1_555 1_555
C32_3 O22_3 1_555 1_555
C32_3 O23_3 1_555 1_555
C37_3 N3_3 1_555 1_555
C41_3 N4_3 1_555 1_555
C42_3 O25_3 1_555 1_555
C42_3 O26_3 1_555 1_555
C43_3 O16_3 1_555 1_555
C43_3 O21_3 1_555 1_555
C46_3 O27_3 1_555 1_555
C46_3 O28_3 1_555 1_555
C48_3 O18_3 1_555 1_555
C48_3 O29_3 1_555 1_555
O1_3 H62_3 1_555 1_555
O1_3 H63_3 1_555 1_555
O3_3 H64_3 1_555 1_555
O3_3 H65_3 1_555 1_555
O24_3 H66_3 1_555 1_555
O24_3 H67_3 1_555 1_555
O30_3 H68_3 1_555 1_555
O30_3 H69_3 1_555 1_555
C1_4 H1_4 1_555 1_555
C2_4 H2_4 1_555 1_555
C3_4 C2_4 1_555 1_555
C4_4 C3_4 1_555 1_555
C11_4 C1_4 1_555 1_555
H12_4 C11_4 1_555 1_555
C50_4 H59_4 1_555 1_555
H60_4 C50_4 1_555 1_555
H61_4 C50_4 1_555 1_555
N1_4 C1_4 1_555 1_555
Cd6_4 N1_4 1_555 1_555
C2_4 N1_4 1_555 1_555
C4_4 C11_4 1_555 1_555
Cd1_4 O2_4 1_555 1_555
Cd2_4 O6_4 1_555 1_555
Cd3_4 O9_4 1_555 1_555
Cd4_4 O3_4 1_555 1_555
Cu1_4 O2_4 1_555 1_555
Cu2_4 O6_4 1_555 1_555
Cu3_4 O4_4 1_555 1_555
Cu4_4 O1_4 1_555 1_555
Cu5_4 O2_4 1_555 1_555
Cu6_4 O8_4 1_555 1_555
C5_4 H4_4 1_555 1_555
H5_4 C5_4 1_555 1_555
C6_4 H6_4 1_555 1_555
H7_4 C6_4 1_555 1_555
C7_4 C6_4 1_555 1_555
C8_4 C7_4 1_555 1_555
H8_4 C8_4 1_555 1_555
H9_4 C8_4 1_555 1_555
C10_4 C9_4 1_555 1_555
H10_4 C10_4 1_555 1_555
H11_4 C10_4 1_555 1_555
C12_4 H13_4 1_555 1_555
H14_4 C12_4 1_555 1_555
C13_4 C5_4 1_555 1_555
C14_4 C13_4 1_555 1_555
H15_4 C14_4 1_555 1_555
H16_4 C14_4 1_555 1_555
C15_4 H17_4 1_555 1_555
H18_4 C15_4 1_555 1_555
C16_4 C15_4 1_555 1_555
C17_4 C16_4 1_555 1_555
H19_4 C17_4 1_555 1_555
H20_4 C17_4 1_555 1_555
C18_4 C16_4 1_555 1_555
H21_4 C18_4 1_555 1_555
H22_4 C18_4 1_555 1_555
C19_4 C7_4 1_555 1_555
H23_4 C19_4 1_555 1_555
H24_4 C19_4 1_555 1_555
C20_4 C9_4 1_555 1_555
H25_4 C20_4 1_555 1_555
H26_4 C20_4 1_555 1_555
C22_4 C35_4 1_555 1_555
C23_4 C16_4 1_555 1_555
C24_4 C30_4 1_555 1_555
C25_4 C13_4 1_555 1_555
C26_4 C25_4 1_555 1_555
H27_4 C26_4 1_555 1_555
C27_4 H28_4 1_555 1_555
C28_4 C25_4 1_555 1_555
H29_4 C28_4 1_555 1_555
C29_4 C26_4 1_555 1_555
H30_4 C29_4 1_555 1_555
C30_4 H31_4 1_555 1_555
H32_4 C30_4 1_555 1_555
H33_4 C30_4 1_555 1_555
C32_4 C34_4 1_555 1_555
H37_4 C34_4 1_555 1_555
H38_4 C34_4 1_555 1_555
C35_4 H39_4 1_555 1_555
H40_4 C35_4 1_555 1_555
H41_4 C35_4 1_555 1_555
C38_4 C23_4 1_555 1_555
H44_4 C38_4 1_555 1_555
C39_4 C23_4 1_555 1_555
H45_4 C39_4 1_555 1_555
C40_4 C39_4 1_555 1_555
H46_4 C40_4 1_555 1_555
C41_4 C38_4 1_555 1_555
H47_4 C41_4 1_555 1_555
C42_4 C44_4 1_555 1_555
C43_4 C45_4 1_555 1_555
H49_4 C44_4 1_555 1_555
C45_4 H51_4 1_555 1_555
H52_4 C45_4 1_555 1_555
H53_4 C45_4 1_555 1_555
C46_4 C47_4 1_555 1_555
C47_4 H54_4 1_555 1_555
H55_4 C47_4 1_555 1_555
H56_4 C47_4 1_555 1_555
C49_4 C9_4 1_555 1_555
H57_4 C49_4 1_555 1_555
H58_4 C49_4 1_555 1_555
N2_4 C27_4 1_555 1_555
N4_4 C40_4 1_555 1_555
O2_4 C49_4 1_555 1_555
O4_4 Cd1_4 1_555 1_555
O5_4 Cd1_4 1_555 1_555
O6_4 Cu3_4 1_555 1_555
O7_4 Cu3_4 1_555 1_555
O8_4 Cd4_4 1_555 1_555
O9_4 Cu2_4 1_555 1_555
O10_4 Cd4_4 1_555 1_555
O11_4 Cu5_4 1_555 1_555
O12_4 Cd3_4 1_555 1_555
O13_4 Cd2_4 1_555 1_555
O14_4 Cd3_4 1_555 1_555
O15_4 Cd4_4 1_555 1_555
O16_4 Cu2_4 1_555 1_555
O17_4 Cd1_4 1_555 1_555
O18_4 Cu6_4 1_555 1_555
O19_4 Cd2_4 1_555 1_555
O20_4 Cd3_4 1_555 1_555
O21_4 Cd2_4 1_555 1_555
O22_4 Cd1_4 1_555 1_555
O23_4 Cd1_4 1_555 1_555
O24_4 Cd4_4 1_555 1_555
O25_4 Cd3_4 1_555 1_555
O26_4 Cd3_4 1_555 1_555
O27_4 Cd2_4 1_555 1_555
O28_4 Cd2_4 1_555 1_555
O29_4 Cd4_4 1_555 1_555
O30_4 Cu1_4 1_555 1_555
Cd5_4 N4_4 1_555 1_555
N5_4 Cd2_4 1_555 1_555
N6_4 Cd3_4 1_555 1_555
N7_4 Cd1_4 1_555 1_555
Cu1_4 O5_4 1_555 1_555
Cu1_4 O8_4 1_555 1_555
Cu1_4 O10_4 1_555 1_555
Cu2_4 O12_4 1_555 1_555
Cu2_4 O19_4 1_555 1_555
Cu3_4 O5_4 1_555 1_555
Cu3_4 O13_4 1_555 1_555
Cu4_4 O10_4 1_555 1_555
Cu4_4 O13_4 1_555 1_555
Cu4_4 O15_4 1_555 1_555
Cu4_4 O19_4 1_555 1_555
Cu5_4 O4_4 1_555 1_555
Cu5_4 O9_4 1_555 1_555
Cu5_4 O14_4 1_555 1_555
Cu6_4 O12_4 1_555 1_555
Cu6_4 O14_4 1_555 1_555
Cu6_4 O15_4 1_555 1_555
C5_4 O6_4 1_555 1_555
C6_4 O10_4 1_555 1_555
C8_4 O13_4 1_555 1_555
C10_4 O8_4 1_555 1_555
C12_4 C13_4 1_555 1_555
C12_4 O4_4 1_555 1_555
C14_4 O9_4 1_555 1_555
C15_4 O15_4 1_555 1_555
C17_4 O19_4 1_555 1_555
C18_4 O12_4 1_555 1_555
C19_4 O5_4 1_555 1_555
C20_4 O14_4 1_555 1_555
C22_4 O11_4 1_555 1_555
C22_4 O20_4 1_555 1_555
C24_4 O7_4 1_555 1_555
C24_4 O17_4 1_555 1_555
C27_4 C28_4 1_555 1_555
C29_4 N2_4 1_555 1_555
C32_4 O22_4 1_555 1_555
C32_4 O23_4 1_555 1_555
C41_4 N4_4 1_555 1_555
C42_4 O25_4 1_555 1_555
C42_4 O26_4 1_555 1_555
C43_4 O16_4 1_555 1_555
C43_4 O21_4 1_555 1_555
C46_4 O27_4 1_555 1_555
C46_4 O28_4 1_555 1_555
C48_4 O18_4 1_555 1_555
C48_4 O29_4 1_555 1_555
O1_4 H62_4 1_555 1_555
O1_4 H63_4 1_555 1_555
O3_4 H64_4 1_555 1_555
O3_4 H65_4 1_555 1_555
O24_4 H66_4 1_555 1_555
O24_4 H67_4 1_555 1_555
O30_4 H68_4 1_555 1_555
O30_4 H69_4 1_555 1_555
C31_4 C21_4 1_555 1_555
H34_4 C31_4 1_555 1_555
C33_4 C21_4 1_555 1_555
H35_4 C33_4 1_555 1_555
C36_4 C33_4 1_555 1_555
H42_4 C36_4 1_555 1_555
C37_4 C31_4 1_555 1_555
H43_4 C37_4 1_555 1_555
N3_4 C36_4 1_555 1_555
Cd7_4 N3_4 1_555 1_555
C37_4 N3_4 1_555 1_555
H44_5 C38_5 1_555 1_555
H45_5 C39_5 1_555 1_555
C40_5 C39_5 1_555 1_555
H46_5 C40_5 1_555 1_555
C41_5 C38_5 1_555 1_555
H47_5 C41_5 1_555 1_555
N7_4 C40_5 1_555 1_555
C41_5 N7_4 1_555 1_555
C1_5 H1_5 1_555 1_555
C2_5 H2_5 1_555 1_555
C3_5 C2_5 1_555 1_555
C4_5 C3_5 1_555 1_555
C11_5 C1_5 1_555 1_555
H12_5 C11_5 1_555 1_555
C50_5 H59_5 1_555 1_555
H60_5 C50_5 1_555 1_555
H61_5 C50_5 1_555 1_555
N5_3 C1_5 1_555 1_555
C2_5 N5_3 1_555 1_555
C4_5 C11_5 1_555 1_555
Cd5_4 O2_5 1_555 1_555
Cd6_3 O6_5 1_555 1_555
Cd7_2 O9_5 1_555 1_555
Cd4_5 O3_5 1_555 1_555
Cu1_5 O2_5 1_555 1_555
Cu2_5 O6_5 1_555 1_555
Cu3_5 O4_5 1_555 1_555
Cu4_5 O1_5 1_555 1_555
Cu5_5 O2_5 1_555 1_555
Cu6_5 O8_5 1_555 1_555
C5_5 H4_5 1_555 1_555
H5_5 C5_5 1_555 1_555
C6_5 H6_5 1_555 1_555
H7_5 C6_5 1_555 1_555
C7_5 C6_5 1_555 1_555
C8_5 C7_5 1_555 1_555
H8_5 C8_5 1_555 1_555
H9_5 C8_5 1_555 1_555
C10_5 C9_5 1_555 1_555
H10_5 C10_5 1_555 1_555
H11_5 C10_5 1_555 1_555
C12_5 H13_5 1_555 1_555
H14_5 C12_5 1_555 1_555
C13_5 C5_5 1_555 1_555
C14_5 C13_5 1_555 1_555
H15_5 C14_5 1_555 1_555
H16_5 C14_5 1_555 1_555
C15_5 H17_5 1_555 1_555
H18_5 C15_5 1_555 1_555
C16_5 C15_5 1_555 1_555
C17_5 C16_5 1_555 1_555
H19_5 C17_5 1_555 1_555
H20_5 C17_5 1_555 1_555
C18_5 C16_5 1_555 1_555
H21_5 C18_5 1_555 1_555
H22_5 C18_5 1_555 1_555
C19_5 C7_5 1_555 1_555
H23_5 C19_5 1_555 1_555
H24_5 C19_5 1_555 1_555
C20_5 C9_5 1_555 1_555
H25_5 C20_5 1_555 1_555
H26_5 C20_5 1_555 1_555
C21_5 C7_5 1_555 1_555
C22_5 C35_5 1_555 1_555
C23_5 C16_5 1_555 1_555
C24_5 C30_5 1_555 1_555
C25_5 C13_5 1_555 1_555
C26_5 C25_5 1_555 1_555
H27_5 C26_5 1_555 1_555
C27_5 H28_5 1_555 1_555
C28_5 C25_5 1_555 1_555
H29_5 C28_5 1_555 1_555
C29_5 C26_5 1_555 1_555
H30_5 C29_5 1_555 1_555
C30_5 H31_5 1_555 1_555
H32_5 C30_5 1_555 1_555
H33_5 C30_5 1_555 1_555
C31_5 C21_5 1_555 1_555
H34_5 C31_5 1_555 1_555
C32_5 C34_5 1_555 1_555
C33_5 C21_5 1_555 1_555
H35_5 C33_5 1_555 1_555
C34_5 H36_5 1_555 1_555
H37_5 C34_5 1_555 1_555
H38_5 C34_5 1_555 1_555
C35_5 H39_5 1_555 1_555
H40_5 C35_5 1_555 1_555
H41_5 C35_5 1_555 1_555
C36_5 C33_5 1_555 1_555
H42_5 C36_5 1_555 1_555
C37_5 C31_5 1_555 1_555
H43_5 C37_5 1_555 1_555
C42_5 C44_5 1_555 1_555
C43_5 C45_5 1_555 1_555
H49_5 C44_5 1_555 1_555
C45_5 H51_5 1_555 1_555
H52_5 C45_5 1_555 1_555
H53_5 C45_5 1_555 1_555
C46_5 C47_5 1_555 1_555
H55_5 C47_5 1_555 1_555
H56_5 C47_5 1_555 1_555
C49_5 C9_5 1_555 1_555
H57_5 C49_5 1_555 1_555
H58_5 C49_5 1_555 1_555
N2_5 C27_5 1_555 1_555
N6_2 C36_5 1_555 1_555
O2_5 C49_5 1_555 1_555
O4_5 Cd5_4 1_555 1_555
O5_5 Cd5_4 1_555 1_555
O6_5 Cu3_5 1_555 1_555
O7_5 Cu3_5 1_555 1_555
O8_5 Cd4_5 1_555 1_555
O9_5 Cu2_5 1_555 1_555
O10_5 Cd4_5 1_555 1_555
O11_5 Cu5_5 1_555 1_555
O12_5 Cd7_2 1_555 1_555
O13_5 Cd6_3 1_555 1_555
O14_5 Cd7_2 1_555 1_555
O15_5 Cd4_5 1_555 1_555
O16_5 Cu2_5 1_555 1_555
O17_5 Cd5_4 1_555 1_555
O18_5 Cu6_5 1_555 1_555
O19_5 Cd6_3 1_555 1_555
O20_5 Cd7_2 1_555 1_555
O21_5 Cd6_3 1_555 1_555
O22_5 Cd5_4 1_555 1_555
O23_5 Cd5_4 1_555 1_555
O24_5 Cd4_5 1_555 1_555
O25_5 Cd7_2 1_555 1_555
O26_5 Cd7_2 1_555 1_555
O27_5 Cd6_3 1_555 1_555
O28_5 Cd6_3 1_555 1_555
O29_5 Cd4_5 1_555 1_555
O30_5 Cu1_5 1_555 1_555
Cu1_5 O5_5 1_555 1_555
Cu1_5 O8_5 1_555 1_555
Cu1_5 O10_5 1_555 1_555
Cu2_5 O12_5 1_555 1_555
Cu2_5 O19_5 1_555 1_555
Cu3_5 O5_5 1_555 1_555
Cu3_5 O13_5 1_555 1_555
Cu4_5 O10_5 1_555 1_555
Cu4_5 O13_5 1_555 1_555
Cu4_5 O15_5 1_555 1_555
Cu4_5 O19_5 1_555 1_555
Cu5_5 O4_5 1_555 1_555
Cu5_5 O9_5 1_555 1_555
Cu5_5 O14_5 1_555 1_555
Cu6_5 O12_5 1_555 1_555
Cu6_5 O14_5 1_555 1_555
Cu6_5 O15_5 1_555 1_555
C5_5 O6_5 1_555 1_555
C6_5 O10_5 1_555 1_555
C8_5 O13_5 1_555 1_555
C10_5 O8_5 1_555 1_555
C12_5 C13_5 1_555 1_555
C12_5 O4_5 1_555 1_555
C14_5 O9_5 1_555 1_555
C15_5 O15_5 1_555 1_555
C17_5 O19_5 1_555 1_555
C18_5 O12_5 1_555 1_555
C19_5 O5_5 1_555 1_555
C20_5 O14_5 1_555 1_555
C22_5 O11_5 1_555 1_555
C22_5 O20_5 1_555 1_555
C24_5 O7_5 1_555 1_555
C24_5 O17_5 1_555 1_555
C27_5 C28_5 1_555 1_555
C29_5 N2_5 1_555 1_555
C32_5 O22_5 1_555 1_555
C32_5 O23_5 1_555 1_555
C37_5 N6_2 1_555 1_555
C42_5 O25_5 1_555 1_555
C42_5 O26_5 1_555 1_555
C43_5 O16_5 1_555 1_555
C43_5 O21_5 1_555 1_555
C46_5 O27_5 1_555 1_555
C46_5 O28_5 1_555 1_555
C48_5 O18_5 1_555 1_555
C48_5 O29_5 1_555 1_555
O1_5 H62_5 1_555 1_555
O1_5 H63_5 1_555 1_555
O3_5 H64_5 1_555 1_555
O3_5 H65_5 1_555 1_555
O24_5 H66_5 1_555 1_555
O24_5 H67_5 1_555 1_555
O30_5 H68_5 1_555 1_555
O30_5 H69_5 1_555 1_555
Cd5_3 O2_6 1_555 1_555
Cd6_4 O6_6 1_555 1_555
Cd7 O9_6 1_555 1_555
Cd4_6 O3_6 1_555 1_555
Cu1_6 O2_6 1_555 1_555
Cu2_6 O6_6 1_555 1_555
Cu3_6 O4_6 1_555 1_555
Cu4_6 O1_6 1_555 1_555
Cu5_6 O2_6 1_555 1_555
Cu6_6 O8_6 1_555 1_555
C1_6 H1_6 1_555 1_555
C2_6 H2_6 1_555 1_555
C3_6 C2_6 1_555 1_555
H3_6 C3_6 1_555 1_555
C4_6 C3_6 1_555 1_555
C5_6 H4_6 1_555 1_555
H5_6 C5_6 1_555 1_555
C6_6 H6_6 1_555 1_555
H7_6 C6_6 1_555 1_555
C7_6 C6_6 1_555 1_555
C8_6 C7_6 1_555 1_555
H8_6 C8_6 1_555 1_555
H9_6 C8_6 1_555 1_555
C9_6 C4_6 1_555 1_555
C10_6 C9_6 1_555 1_555
H10_6 C10_6 1_555 1_555
H11_6 C10_6 1_555 1_555
C11_6 C1_6 1_555 1_555
H12_6 C11_6 1_555 1_555
C12_6 H13_6 1_555 1_555
H14_6 C12_6 1_555 1_555
C13_6 C5_6 1_555 1_555
C14_6 C13_6 1_555 1_555
H15_6 C14_6 1_555 1_555
H16_6 C14_6 1_555 1_555
C15_6 H17_6 1_555 1_555
H18_6 C15_6 1_555 1_555
C16_6 C15_6 1_555 1_555
C17_6 C16_6 1_555 1_555
H19_6 C17_6 1_555 1_555
H20_6 C17_6 1_555 1_555
C18_6 C16_6 1_555 1_555
H21_6 C18_6 1_555 1_555
H22_6 C18_6 1_555 1_555
C19_6 C7_6 1_555 1_555
H23_6 C19_6 1_555 1_555
H24_6 C19_6 1_555 1_555
C20_6 C9_6 1_555 1_555
H25_6 C20_6 1_555 1_555
H26_6 C20_6 1_555 1_555
C22_6 C35_6 1_555 1_555
C23_6 C16_6 1_555 1_555
C24_6 C30_6 1_555 1_555
C25_6 C13_6 1_555 1_555
C26_6 C25_6 1_555 1_555
H27_6 C26_6 1_555 1_555
C27_6 H28_6 1_555 1_555
C28_6 C25_6 1_555 1_555
H29_6 C28_6 1_555 1_555
C29_6 C26_6 1_555 1_555
H30_6 C29_6 1_555 1_555
C30_6 H31_6 1_555 1_555
H32_6 C30_6 1_555 1_555
H33_6 C30_6 1_555 1_555
C32_6 C34_6 1_555 1_555
H37_6 C34_6 1_555 1_555
H38_6 C34_6 1_555 1_555
C35_6 H39_6 1_555 1_555
H40_6 C35_6 1_555 1_555
H41_6 C35_6 1_555 1_555
C42_6 C44_6 1_555 1_555
C43_6 C45_6 1_555 1_555
C44_6 H48_6 1_555 1_555
H49_6 C44_6 1_555 1_555
H50_6 C44_6 1_555 1_555
C45_6 H51_6 1_555 1_555
H52_6 C45_6 1_555 1_555
H53_6 C45_6 1_555 1_555
C46_6 C47_6 1_555 1_555
H55_6 C47_6 1_555 1_555
H56_6 C47_6 1_555 1_555
C48_6 C50_6 1_555 1_555
C49_6 C9_6 1_555 1_555
H57_6 C49_6 1_555 1_555
H58_6 C49_6 1_555 1_555
C50_6 H59_6 1_555 1_555
H60_6 C50_6 1_555 1_555
H61_6 C50_6 1_555 1_555
N5_4 C1_6 1_555 1_555
N2_6 C27_6 1_555 1_555
O2_6 C49_6 1_555 1_555
O4_6 Cd5_3 1_555 1_555
O5_6 Cd5_3 1_555 1_555
O6_6 Cu3_6 1_555 1_555
O7_6 Cu3_6 1_555 1_555
O8_6 Cd4_6 1_555 1_555
O9_6 Cu2_6 1_555 1_555
O10_6 Cd4_6 1_555 1_555
O11_6 Cu5_6 1_555 1_555
O12_6 Cd7 1_555 1_555
O13_6 Cd6_4 1_555 1_555
O14_6 Cd7 1_555 1_555
O15_6 Cd4_6 1_555 1_555
O16_6 Cu2_6 1_555 1_555
O17_6 Cd5_3 1_555 1_555
O18_6 Cu6_6 1_555 1_555
O19_6 Cd6_4 1_555 1_555
O20_6 Cd7 1_555 1_555
O21_6 Cd6_4 1_555 1_555
O22_6 Cd5_3 1_555 1_555
O23_6 Cd5_3 1_555 1_555
O24_6 Cd4_6 1_555 1_555
O25_6 Cd7 1_555 1_555
O26_6 Cd7 1_555 1_555
O27_6 Cd6_4 1_555 1_555
O28_6 Cd6_4 1_555 1_555
O29_6 Cd4_6 1_555 1_555
O30_6 Cu1_6 1_555 1_555
Cu1_6 O5_6 1_555 1_555
Cu1_6 O8_6 1_555 1_555
Cu1_6 O10_6 1_555 1_555
Cu2_6 O12_6 1_555 1_555
Cu2_6 O19_6 1_555 1_555
Cu3_6 O5_6 1_555 1_555
Cu3_6 O13_6 1_555 1_555
Cu4_6 O10_6 1_555 1_555
Cu4_6 O13_6 1_555 1_555
Cu4_6 O15_6 1_555 1_555
Cu4_6 O19_6 1_555 1_555
Cu5_6 O4_6 1_555 1_555
Cu5_6 O9_6 1_555 1_555
Cu5_6 O14_6 1_555 1_555
Cu6_6 O12_6 1_555 1_555
Cu6_6 O14_6 1_555 1_555
Cu6_6 O15_6 1_555 1_555
C2_6 N5_4 1_555 1_555
C4_6 C11_6 1_555 1_555
C5_6 O6_6 1_555 1_555
C6_6 O10_6 1_555 1_555
C8_6 O13_6 1_555 1_555
C10_6 O8_6 1_555 1_555
C12_6 C13_6 1_555 1_555
C12_6 O4_6 1_555 1_555
C14_6 O9_6 1_555 1_555
C15_6 O15_6 1_555 1_555
C17_6 O19_6 1_555 1_555
C18_6 O12_6 1_555 1_555
C19_6 O5_6 1_555 1_555
C20_6 O14_6 1_555 1_555
C22_6 O11_6 1_555 1_555
C22_6 O20_6 1_555 1_555
C24_6 O7_6 1_555 1_555
C24_6 O17_6 1_555 1_555
C27_6 C28_6 1_555 1_555
C29_6 N2_6 1_555 1_555
C32_6 O22_6 1_555 1_555
C32_6 O23_6 1_555 1_555
C42_6 O25_6 1_555 1_555
C42_6 O26_6 1_555 1_555
C43_6 O16_6 1_555 1_555
C43_6 O21_6 1_555 1_555
C46_6 O27_6 1_555 1_555
C46_6 O28_6 1_555 1_555
C48_6 O18_6 1_555 1_555
C48_6 O29_6 1_555 1_555
O1_6 H62_6 1_555 1_555
O1_6 H63_6 1_555 1_555
O3_6 H64_6 1_555 1_555
O3_6 H65_6 1_555 1_555
O24_6 H66_6 1_555 1_555
O24_6 H67_6 1_555 1_555
O30_6 H68_6 1_555 1_555
O30_6 H69_6 1_555 1_555
H44_6 C38_6 1_555 1_555
H45_6 C39_6 1_555 1_555
C40_6 C39_6 1_555 1_555
H46_6 C40_6 1_555 1_555
C41_6 C38_6 1_555 1_555
H47_6 C41_6 1_555 1_555
N7_3 C40_6 1_555 1_555
C41_6 N7_3 1_555 1_555
C31_6 C21_6 1_555 1_555
H34_6 C31_6 1_555 1_555
C33_6 C21_6 1_555 1_555
H35_6 C33_6 1_555 1_555
C36_6 C33_6 1_555 1_555
H42_6 C36_6 1_555 1_555
C37_6 C31_6 1_555 1_555
H43_6 C37_6 1_555 1_555
N6 C36_6 1_555 1_555
C37_6 N6 1_555 1_555
Cd5_2 O2_7 1_555 1_555
Cd6 O6_7 1_555 1_555
Cd7_4 O9_7 1_555 1_555
Cd4_7 O3_7 1_555 1_555
Cu1_7 O2_7 1_555 1_555
Cu2_7 O6_7 1_555 1_555
Cu3_7 O4_7 1_555 1_555
Cu4_7 O1_7 1_555 1_555
Cu5_7 O2_7 1_555 1_555
Cu6_7 O8_7 1_555 1_555
C1_7 H1_7 1_555 1_555
C2_7 H2_7 1_555 1_555
C3_7 C2_7 1_555 1_555
H3_7 C3_7 1_555 1_555
C4_7 C3_7 1_555 1_555
C5_7 H4_7 1_555 1_555
H5_7 C5_7 1_555 1_555
C6_7 H6_7 1_555 1_555
H7_7 C6_7 1_555 1_555
C7_7 C6_7 1_555 1_555
C8_7 C7_7 1_555 1_555
H8_7 C8_7 1_555 1_555
H9_7 C8_7 1_555 1_555
C9_7 C4_7 1_555 1_555
C10_7 C9_7 1_555 1_555
H10_7 C10_7 1_555 1_555
H11_7 C10_7 1_555 1_555
C11_7 C1_7 1_555 1_555
H12_7 C11_7 1_555 1_555
C12_7 H13_7 1_555 1_555
H14_7 C12_7 1_555 1_555
C13_7 C5_7 1_555 1_555
C14_7 C13_7 1_555 1_555
H15_7 C14_7 1_555 1_555
H16_7 C14_7 1_555 1_555
C15_7 H17_7 1_555 1_555
H18_7 C15_7 1_555 1_555
C16_7 C15_7 1_555 1_555
C17_7 C16_7 1_555 1_555
H19_7 C17_7 1_555 1_555
H20_7 C17_7 1_555 1_555
C18_7 C16_7 1_555 1_555
H21_7 C18_7 1_555 1_555
H22_7 C18_7 1_555 1_555
C19_7 C7_7 1_555 1_555
H23_7 C19_7 1_555 1_555
H24_7 C19_7 1_555 1_555
C20_7 C9_7 1_555 1_555
H25_7 C20_7 1_555 1_555
H26_7 C20_7 1_555 1_555
C21_7 C7_7 1_555 1_555
C22_7 C35_7 1_555 1_555
C23_7 C16_7 1_555 1_555
C24_7 C30_7 1_555 1_555
C25_7 C13_7 1_555 1_555
C26_7 C25_7 1_555 1_555
H27_7 C26_7 1_555 1_555
C27_7 H28_7 1_555 1_555
C28_7 C25_7 1_555 1_555
H29_7 C28_7 1_555 1_555
C29_7 C26_7 1_555 1_555
H30_7 C29_7 1_555 1_555
C30_7 H31_7 1_555 1_555
H32_7 C30_7 1_555 1_555
H33_7 C30_7 1_555 1_555
C31_7 C21_7 1_555 1_555
H34_7 C31_7 1_555 1_555
C32_7 C34_7 1_555 1_555
C33_7 C21_7 1_555 1_555
H35_7 C33_7 1_555 1_555
C34_7 H36_7 1_555 1_555
H37_7 C34_7 1_555 1_555
H38_7 C34_7 1_555 1_555
C35_7 H39_7 1_555 1_555
H40_7 C35_7 1_555 1_555
H41_7 C35_7 1_555 1_555
C36_7 C33_7 1_555 1_555
H42_7 C36_7 1_555 1_555
C37_7 C31_7 1_555 1_555
H43_7 C37_7 1_555 1_555
C38_7 C23_7 1_555 1_555
H44_7 C38_7 1_555 1_555
C39_7 C23_7 1_555 1_555
H45_7 C39_7 1_555 1_555
C40_7 C39_7 1_555 1_555
H46_7 C40_7 1_555 1_555
C41_7 C38_7 1_555 1_555
H47_7 C41_7 1_555 1_555
C42_7 C44_7 1_555 1_555
C43_7 C45_7 1_555 1_555
C44_7 H48_7 1_555 1_555
H49_7 C44_7 1_555 1_555
H50_7 C44_7 1_555 1_555
C45_7 H51_7 1_555 1_555
H52_7 C45_7 1_555 1_555
H53_7 C45_7 1_555 1_555
C46_7 C47_7 1_555 1_555
C47_7 H54_7 1_555 1_555
H55_7 C47_7 1_555 1_555
H56_7 C47_7 1_555 1_555
C48_7 C50_7 1_555 1_555
C49_7 C9_7 1_555 1_555
H57_7 C49_7 1_555 1_555
H58_7 C49_7 1_555 1_555
C50_7 H59_7 1_555 1_555
H60_7 C50_7 1_555 1_555
H61_7 C50_7 1_555 1_555
N5 C1_7 1_555 1_555
N2_7 C27_7 1_555 1_555
N6_4 C36_7 1_555 1_555
N7_2 C40_7 1_555 1_555
O2_7 C49_7 1_555 1_555
O4_7 Cd5_2 1_555 1_555
O5_7 Cd5_2 1_555 1_555
O6_7 Cu3_7 1_555 1_555
O7_7 Cu3_7 1_555 1_555
O8_7 Cd4_7 1_555 1_555
O9_7 Cu2_7 1_555 1_555
O10_7 Cd4_7 1_555 1_555
O11_7 Cu5_7 1_555 1_555
O12_7 Cd7_4 1_555 1_555
O13_7 Cd6 1_555 1_555
O14_7 Cd7_4 1_555 1_555
O15_7 Cd4_7 1_555 1_555
O16_7 Cu2_7 1_555 1_555
O17_7 Cd5_2 1_555 1_555
O18_7 Cu6_7 1_555 1_555
O19_7 Cd6 1_555 1_555
O20_7 Cd7_4 1_555 1_555
O21_7 Cd6 1_555 1_555
O22_7 Cd5_2 1_555 1_555
O23_7 Cd5_2 1_555 1_555
O24_7 Cd4_7 1_555 1_555
O25_7 Cd7_4 1_555 1_555
O26_7 Cd7_4 1_555 1_555
O27_7 Cd6 1_555 1_555
O28_7 Cd6 1_555 1_555
O29_7 Cd4_7 1_555 1_555
O30_7 Cu1_7 1_555 1_555
Cu1_7 O5_7 1_555 1_555
Cu1_7 O8_7 1_555 1_555
Cu1_7 O10_7 1_555 1_555
Cu2_7 O12_7 1_555 1_555
Cu2_7 O19_7 1_555 1_555
Cu3_7 O5_7 1_555 1_555
Cu3_7 O13_7 1_555 1_555
Cu4_7 O10_7 1_555 1_555
Cu4_7 O13_7 1_555 1_555
Cu4_7 O15_7 1_555 1_555
Cu4_7 O19_7 1_555 1_555
Cu5_7 O4_7 1_555 1_555
Cu5_7 O9_7 1_555 1_555
Cu5_7 O14_7 1_555 1_555
Cu6_7 O12_7 1_555 1_555
Cu6_7 O14_7 1_555 1_555
Cu6_7 O15_7 1_555 1_555
C2_7 N5 1_555 1_555
C4_7 C11_7 1_555 1_555
C5_7 O6_7 1_555 1_555
C6_7 O10_7 1_555 1_555
C8_7 O13_7 1_555 1_555
C10_7 O8_7 1_555 1_555
C12_7 C13_7 1_555 1_555
C12_7 O4_7 1_555 1_555
C14_7 O9_7 1_555 1_555
C15_7 O15_7 1_555 1_555
C17_7 O19_7 1_555 1_555
C18_7 O12_7 1_555 1_555
C19_7 O5_7 1_555 1_555
C20_7 O14_7 1_555 1_555
C22_7 O11_7 1_555 1_555
C22_7 O20_7 1_555 1_555
C24_7 O7_7 1_555 1_555
C24_7 O17_7 1_555 1_555
C27_7 C28_7 1_555 1_555
C29_7 N2_7 1_555 1_555
C32_7 O22_7 1_555 1_555
C32_7 O23_7 1_555 1_555
C37_7 N6_4 1_555 1_555
C41_7 N7_2 1_555 1_555
C42_7 O25_7 1_555 1_555
C42_7 O26_7 1_555 1_555
C43_7 O16_7 1_555 1_555
C43_7 O21_7 1_555 1_555
C46_7 O27_7 1_555 1_555
C46_7 O28_7 1_555 1_555
C48_7 O18_7 1_555 1_555
C48_7 O29_7 1_555 1_555
O1_7 H62_7 1_555 1_555
O1_7 H63_7 1_555 1_555
O3_7 H64_7 1_555 1_555
O3_7 H65_7 1_555 1_555
O24_7 H66_7 1_555 1_555
O24_7 H67_7 1_555 1_555
O30_7 H68_7 1_555 1_555
O30_7 H69_7 1_555 1_555
C31_8 C21_8 1_555 1_555
H34_8 C31_8 1_555 1_555
C33_8 C21_8 1_555 1_555
H35_8 C33_8 1_555 1_555
C36_8 C33_8 1_555 1_555
H42_8 C36_8 1_555 1_555
C37_8 C31_8 1_555 1_555
H43_8 C37_8 1_555 1_555
N6_3 C36_8 1_555 1_555
C37_8 N6_3 1_555 1_555
Cd5 O2_8 1_555 1_555
Cd6_2 O6_8 1_555 1_555
Cd7_3 O9_8 1_555 1_555
Cd4_8 O3_8 1_555 1_555
Cu1_8 O2_8 1_555 1_555
Cu2_8 O6_8 1_555 1_555
Cu3_8 O4_8 1_555 1_555
Cu4_8 O1_8 1_555 1_555
Cu5_8 O2_8 1_555 1_555
Cu6_8 O8_8 1_555 1_555
C5_8 H4_8 1_555 1_555
H5_8 C5_8 1_555 1_555
C6_8 H6_8 1_555 1_555
H7_8 C6_8 1_555 1_555
C7_8 C6_8 1_555 1_555
C8_8 C7_8 1_555 1_555
H8_8 C8_8 1_555 1_555
H9_8 C8_8 1_555 1_555
C10_8 C9_8 1_555 1_555
H10_8 C10_8 1_555 1_555
H11_8 C10_8 1_555 1_555
C12_8 H13_8 1_555 1_555
H14_8 C12_8 1_555 1_555
C13_8 C5_8 1_555 1_555
C14_8 C13_8 1_555 1_555
H15_8 C14_8 1_555 1_555
H16_8 C14_8 1_555 1_555
C15_8 H17_8 1_555 1_555
H18_8 C15_8 1_555 1_555
C16_8 C15_8 1_555 1_555
C17_8 C16_8 1_555 1_555
H19_8 C17_8 1_555 1_555
H20_8 C17_8 1_555 1_555
C18_8 C16_8 1_555 1_555
H21_8 C18_8 1_555 1_555
H22_8 C18_8 1_555 1_555
C19_8 C7_8 1_555 1_555
H23_8 C19_8 1_555 1_555
H24_8 C19_8 1_555 1_555
C20_8 C9_8 1_555 1_555
H25_8 C20_8 1_555 1_555
H26_8 C20_8 1_555 1_555
C22_8 C35_8 1_555 1_555
C23_8 C16_8 1_555 1_555
C24_8 C30_8 1_555 1_555
C25_8 C13_8 1_555 1_555
C26_8 C25_8 1_555 1_555
H27_8 C26_8 1_555 1_555
C27_8 H28_8 1_555 1_555
C28_8 C25_8 1_555 1_555
H29_8 C28_8 1_555 1_555
C29_8 C26_8 1_555 1_555
H30_8 C29_8 1_555 1_555
C30_8 H31_8 1_555 1_555
H32_8 C30_8 1_555 1_555
H33_8 C30_8 1_555 1_555
C32_8 C34_8 1_555 1_555
H37_8 C34_8 1_555 1_555
H38_8 C34_8 1_555 1_555
C35_8 H39_8 1_555 1_555
H40_8 C35_8 1_555 1_555
H41_8 C35_8 1_555 1_555
C38_8 C23_8 1_555 1_555
H44_8 C38_8 1_555 1_555
C39_8 C23_8 1_555 1_555
H45_8 C39_8 1_555 1_555
C40_8 C39_8 1_555 1_555
H46_8 C40_8 1_555 1_555
C41_8 C38_8 1_555 1_555
H47_8 C41_8 1_555 1_555
C42_8 C44_8 1_555 1_555
C43_8 C45_8 1_555 1_555
H49_8 C44_8 1_555 1_555
C45_8 H51_8 1_555 1_555
H52_8 C45_8 1_555 1_555
H53_8 C45_8 1_555 1_555
C46_8 C47_8 1_555 1_555
C47_8 H54_8 1_555 1_555
H55_8 C47_8 1_555 1_555
H56_8 C47_8 1_555 1_555
C49_8 C9_8 1_555 1_555
H57_8 C49_8 1_555 1_555
H58_8 C49_8 1_555 1_555
N2_8 C27_8 1_555 1_555
N7 C40_8 1_555 1_555
O2_8 C49_8 1_555 1_555
O4_8 Cd5 1_555 1_555
O5_8 Cd5 1_555 1_555
O6_8 Cu3_8 1_555 1_555
O7_8 Cu3_8 1_555 1_555
O8_8 Cd4_8 1_555 1_555
O9_8 Cu2_8 1_555 1_555
O10_8 Cd4_8 1_555 1_555
O11_8 Cu5_8 1_555 1_555
O12_8 Cd7_3 1_555 1_555
O13_8 Cd6_2 1_555 1_555
O14_8 Cd7_3 1_555 1_555
O15_8 Cd4_8 1_555 1_555
O16_8 Cu2_8 1_555 1_555
O17_8 Cd5 1_555 1_555
O18_8 Cu6_8 1_555 1_555
O19_8 Cd6_2 1_555 1_555
O20_8 Cd7_3 1_555 1_555
O21_8 Cd6_2 1_555 1_555
O22_8 Cd5 1_555 1_555
O23_8 Cd5 1_555 1_555
O24_8 Cd4_8 1_555 1_555
O25_8 Cd7_3 1_555 1_555
O26_8 Cd7_3 1_555 1_555
O27_8 Cd6_2 1_555 1_555
O28_8 Cd6_2 1_555 1_555
O29_8 Cd4_8 1_555 1_555
O30_8 Cu1_8 1_555 1_555
Cu1_8 O5_8 1_555 1_555
Cu1_8 O8_8 1_555 1_555
Cu1_8 O10_8 1_555 1_555
Cu2_8 O12_8 1_555 1_555
Cu2_8 O19_8 1_555 1_555
Cu3_8 O5_8 1_555 1_555
Cu3_8 O13_8 1_555 1_555
Cu4_8 O10_8 1_555 1_555
Cu4_8 O13_8 1_555 1_555
Cu4_8 O15_8 1_555 1_555
Cu4_8 O19_8 1_555 1_555
Cu5_8 O4_8 1_555 1_555
Cu5_8 O9_8 1_555 1_555
Cu5_8 O14_8 1_555 1_555
Cu6_8 O12_8 1_555 1_555
Cu6_8 O14_8 1_555 1_555
Cu6_8 O15_8 1_555 1_555
C5_8 O6_8 1_555 1_555
C6_8 O10_8 1_555 1_555
C8_8 O13_8 1_555 1_555
C10_8 O8_8 1_555 1_555
C12_8 C13_8 1_555 1_555
C12_8 O4_8 1_555 1_555
C14_8 O9_8 1_555 1_555
C15_8 O15_8 1_555 1_555
C17_8 O19_8 1_555 1_555
C18_8 O12_8 1_555 1_555
C19_8 O5_8 1_555 1_555
C20_8 O14_8 1_555 1_555
C22_8 O11_8 1_555 1_555
C22_8 O20_8 1_555 1_555
C24_8 O7_8 1_555 1_555
C24_8 O17_8 1_555 1_555
C27_8 C28_8 1_555 1_555
C29_8 N2_8 1_555 1_555
C32_8 O22_8 1_555 1_555
C32_8 O23_8 1_555 1_555
C41_8 N7 1_555 1_555
C42_8 O25_8 1_555 1_555
C42_8 O26_8 1_555 1_555
C43_8 O16_8 1_555 1_555
C43_8 O21_8 1_555 1_555
C46_8 O27_8 1_555 1_555
C46_8 O28_8 1_555 1_555
C48_8 O18_8 1_555 1_555
C48_8 O29_8 1_555 1_555
O1_8 H62_8 1_555 1_555
O1_8 H63_8 1_555 1_555
O3_8 H64_8 1_555 1_555
O3_8 H65_8 1_555 1_555
O24_8 H66_8 1_555 1_555
O24_8 H67_8 1_555 1_555
O30_8 H68_8 1_555 1_555
O30_8 H69_8 1_555 1_555
C1_8 H1_8 1_555 1_555
C2_8 H2_8 1_555 1_555
C3_8 C2_8 1_555 1_555
C4_8 C3_8 1_555 1_555
C11_8 C1_8 1_555 1_555
H12_8 C11_8 1_555 1_555
C50_8 H59_8 1_555 1_555
H60_8 C50_8 1_555 1_555
H61_8 C50_8 1_555 1_555
N5_2 C1_8 1_555 1_555
C2_8 N5_2 1_555 1_555
C4_8 C11_8 1_555 1_555

#END
