
###############################################################################
#
# This file contains modified crystal structure data generated from the
# MOF subset of the Cambridge Structural Database (CSD) v543 
# hosted by the Cambridge Crystallographic Data Centre (CCDC).
#
# This work is licensed under the Creative Commons
# Attribution-NonCommercial-ShareAlike 4.0 International License.
# To view a copy of this license, visit
# http://creativecommons.org/licenses/by-nc-sa/4.0/
# or send a letter to
# Creative Commons, PO Box 1866, Mountain View, CA 94042, USA.
#
# CIF created using the CSD Python API on 29 September 2022
# The structure has been converted into the P1 space group
# The structure has a 3D framework
# The original CSD entry HAQRID is in the monoclinic crystal system
# The framework has been calculated to contain at least 10.0% void space
# The void calculation uses a probe of radius 1.32A, grid spacing 0.4
# The framework is charged, counterions have been retained in the structure
#
###############################################################################

data_HAQRID
_chemical_formula_moiety         '(C208 H136 N8 O92 Zn18)n'
_symmetry_cell_setting           triclinic
_symmetry_space_group_name_H-M   'P 1'
_symmetry_Int_Tables_number      1
_space_group_name_Hall           'P 1'
loop_
_symmetry_equiv_pos_site_id
_symmetry_equiv_pos_as_xyz
1 x,y,z
_cell_length_a                   12.3215(10)
_cell_length_b                   30.711(3)
_cell_length_c                   22.7224(18)
_cell_angle_alpha                90
_cell_angle_beta                 94.229(2)
_cell_angle_gamma                90
_cell_volume                     8574.87
loop_
_atom_site_label
_atom_site_type_symbol
_atom_site_fract_x
_atom_site_fract_y
_atom_site_fract_z
H1 H 0.0084 0.5694 0.6206
H3 H 0.0444 0.5148 0.5763
N1 N 0.9493(8) 0.5524(3) 0.6139(4)
H2 H 0.8954 0.5700 0.5993
C1 C 0.9713(9) 0.5255(4) 0.5697(4)
H4 H 0.9640 0.5410 0.5329
H5 H 0.9213 0.5015 0.5683
C2 C 0.9235(14) 0.5405(6) 0.6627(7)
H6 H 0.8479 0.5326 0.6601
H7 H 0.9358 0.5637 0.6906
H8 H 0.9668 0.5157 0.6754
N1_2 N 0.0507(8) 0.5524(3) 0.8861(4)
H2_2 H 0.1046 0.5700 0.9007
C1_2 C 0.0287(9) 0.5255(4) 0.9303(4)
H4_2 H 0.0360 0.5410 0.9671
H5_2 H 0.0787 0.5015 0.9317
C2_2 C 0.0765(14) 0.5405(6) 0.8373(7)
H6_2 H 0.1521 0.5326 0.8399
H7_2 H 0.0642 0.5637 0.8094
H8_2 H 0.0332 0.5157 0.8246
H1_2 H 0.9916 0.5694 0.8794
H3_2 H 0.9556 0.5148 0.9237
N1_3 N 0.4493(8) 0.0524(3) 0.6139(4)
H1_3 H 0.5084 0.0694 0.6206
H2_3 H 0.3954 0.0700 0.5993
C1_3 C 0.4713(9) 0.0255(4) 0.5697(4)
H3_3 H 0.5444 0.0148 0.5763
H4_3 H 0.4640 0.0410 0.5329
H5_3 H 0.4213 0.0015 0.5683
C2_3 C 0.4235(14) 0.0405(6) 0.6627(7)
H6_3 H 0.3479 0.0326 0.6601
H7_3 H 0.4358 0.0637 0.6906
H8_3 H 0.4668 0.0157 0.6754
N1_4 N 0.5507(8) 0.0524(3) 0.8861(4)
H1_4 H 0.4916 0.0694 0.8794
H2_4 H 0.6046 0.0700 0.9007
C1_4 C 0.5287(9) 0.0255(4) 0.9303(4)
H3_4 H 0.4556 0.0148 0.9237
H4_4 H 0.5360 0.0410 0.9671
H5_4 H 0.5787 0.0015 0.9317
C2_4 C 0.5765(14) 0.0405(6) 0.8373(7)
H6_4 H 0.6521 0.0326 0.8399
H7_4 H 0.5642 0.0637 0.8094
H8_4 H 0.5332 0.0157 0.8246
N1_5 N 0.0507(8) 0.4476(3) 0.3861(4)
H2_5 H 0.1046 0.4300 0.4007
C1_5 C 0.0287(9) 0.4745(4) 0.4303(4)
H4_5 H 0.0360 0.4590 0.4671
H5_5 H 0.0787 0.4985 0.4317
C2_5 C 0.0765(14) 0.4595(6) 0.3373(7)
H6_5 H 0.1521 0.4674 0.3399
H7_5 H 0.0642 0.4363 0.3094
H8_5 H 0.0332 0.4843 0.3246
H1_5 H 0.9916 0.4306 0.3794
H3_5 H 0.9556 0.4852 0.4237
H1_6 H 0.0084 0.4306 0.1206
H3_6 H 0.0444 0.4852 0.0763
N1_6 N 0.9493(8) 0.4476(3) 0.1139(4)
H2_6 H 0.8954 0.4300 0.0993
C1_6 C 0.9713(9) 0.4745(4) 0.0697(4)
H4_6 H 0.9640 0.4590 0.0329
H5_6 H 0.9213 0.4985 0.0683
C2_6 C 0.9235(14) 0.4595(6) 0.1627(7)
H6_6 H 0.8479 0.4674 0.1601
H7_6 H 0.9358 0.4363 0.1906
H8_6 H 0.9668 0.4843 0.1754
N1_7 N 0.5507(8) 0.9476(3) 0.3861(4)
H1_7 H 0.4916 0.9306 0.3794
H2_7 H 0.6046 0.9300 0.4007
C1_7 C 0.5287(9) 0.9745(4) 0.4303(4)
H3_7 H 0.4556 0.9852 0.4237
H4_7 H 0.5360 0.9590 0.4671
H5_7 H 0.5787 0.9985 0.4317
C2_7 C 0.5765(14) 0.9595(6) 0.3373(7)
H6_7 H 0.6521 0.9674 0.3399
H7_7 H 0.5642 0.9363 0.3094
H8_7 H 0.5332 0.9843 0.3246
N1_8 N 0.4493(8) 0.9476(3) 0.1139(4)
H1_8 H 0.5084 0.9306 0.1206
H2_8 H 0.3954 0.9300 0.0993
C1_8 C 0.4713(9) 0.9745(4) 0.0697(4)
H3_8 H 0.5444 0.9852 0.0763
H4_8 H 0.4640 0.9590 0.0329
H5_8 H 0.4213 0.9985 0.0683
C2_8 C 0.4235(14) 0.9595(6) 0.1627(7)
H6_8 H 0.3479 0.9674 0.1601
H7_8 H 0.4358 0.9363 0.1906
H8_8 H 0.4668 0.9843 0.1754
O17 O 0.5523(2) 0.10650(11) 0.02439(12)
O18 O 0.5986(3) 0.09769(14) 0.11863(15)
O19 O 0.3252(3) 0.08083(13) 0.26246(13)
O20 O 0.1583(4) 0.0769(2) 0.23357(17)
C35 C 0.5293(3) 0.09827(14) 0.07612(17)
C36 C 0.4152(3) 0.08911(14) 0.08869(16)
C37 C 0.3354(3) 0.08117(14) 0.04386(17)
H21 H 0.3530 0.0829 0.0048
C38 C 0.2287(3) 0.07058(14) 0.05605(17)
C39 C 0.2043(4) 0.07015(16) 0.11430(18)
H22 H 0.1333 0.0642 0.1232
C40 C 0.2824(4) 0.07829(16) 0.15978(17)
C41 C 0.3878(4) 0.08742(16) 0.14721(17)
H23 H 0.4407 0.0925 0.1778
C42 C 0.2516(5) 0.0777(2) 0.2228(2)
C43 C 0.1464(3) 0.05767(14) 0.00798(16)
C49 C 0.0391(4) 0.07168(14) 0.00861(18)
H26 H 0.0197 0.0906 0.0380
Zn7 Zn 0.25984(4) 0.082833(16) 0.338984(18)
Zn9 Zn 0.74016(4) 0.082833(16) 0.161016(18)
Zn13 Zn 0.69465(4) 0.130815(15) 0.012080(17)
Zn17 Zn 0.0000 0.0516(2) 0.2500
O5 O 0.1742(2) 0.09824(12) 0.49172(14)
O6 O 0.2234(3) 0.06107(16) 0.57188(19)
C15 C 0.0093(3) 0.02876(14) 0.57787(17)
H13 H 0.0611 0.0191 0.6068
C16 C 0.0399(3) 0.05755(15) 0.53462(17)
C18 C 0.1550(4) 0.07303(16) 0.5331(2)
C44 C 0.1746(3) 0.02917(14) 0.96430(16)
H24 H 0.2462 0.0198 0.9635
C45 C 0.0965(3) 0.01454(14) 0.92172(16)
Zn11 Zn 0.30535(4) 0.130815(15) 0.487920(17)
Zn5 Zn 0.19465(4) 0.630815(15) 0.012080(17)
O26 O 0.0523(2) 0.60650(11) 0.02439(12)
O34 O 0.3258(2) 0.59824(12) 0.00828(14)
O36 O 0.2430(3) 0.67246(10) 0.07606(12)
Zn3 Zn 0.0000 0.9484(2) 0.7500
O13 O 0.1792(3) 0.86344(9) 0.84685(13)
O14 O 0.2570(3) 0.82754(10) 0.92394(12)
O15 O 0.1720(3) 0.67482(10) 0.95104(13)
O16 O 0.0700(5) 0.63838(12) 0.88558(19)
C27 C 0.1973(3) 0.82992(13) 0.87679(16)
C28 C 0.1461(4) 0.78835(14) 0.85464(16)
C29 C 0.0843(4) 0.78774(14) 0.79980(17)
H18 H 0.0779 0.8130 0.7773
C30 C 0.0332(4) 0.75017(14) 0.77913(17)
C31 C 0.0450(4) 0.71275(14) 0.81278(17)
H19 H 0.0115 0.6872 0.7992
C32 C 0.1065(4) 0.71278(14) 0.86684(17)
C33 C 0.1560(4) 0.75038(14) 0.88684(16)
H20 H 0.1972 0.7503 0.9228
C34 C 0.1168(4) 0.67132(16) 0.90322(19)
Zn4 Zn 0.25984(4) 0.917167(16) 0.838984(18)
O23 O 0.0551(3) 0.96293(14) 0.84459(17)
O24 O 0.2257(3) 0.97000(10) 0.87847(13)
C46 C 0.1261(4) 0.98005(15) 0.87757(18)
Zn15 Zn 0.30535(4) 0.869185(15) 0.987920(17)
O28 O 0.4014(3) 0.90231(14) 0.88137(15)
O29 O 0.3252(3) 0.91917(13) 0.76246(13)
O31 O 0.1583(4) 0.9231(2) 0.73357(17)
O21 O 0.8258(2) 0.09824(12) 0.00828(14)
Zn17_2 Zn 1.0000 0.0516(2) 0.2500
O1 O 0.4477(2) 0.10650(11) 0.47561(12)
O2 O 0.4014(3) 0.09769(14) 0.38137(15)
O3 O 0.6748(3) 0.08083(13) 0.23754(13)
O4 O 0.8417(4) 0.0769(2) 0.26643(17)
C3 C 0.4707(3) 0.09827(14) 0.42388(17)
C4 C 0.5848(3) 0.08911(14) 0.41131(16)
C5 C 0.6646(3) 0.08117(14) 0.45614(17)
H9 H 0.6470 0.0829 0.4952
C6 C 0.7713(3) 0.07058(14) 0.44395(17)
C7 C 0.7957(4) 0.07015(16) 0.38570(18)
H10 H 0.8667 0.0642 0.3768
C8 C 0.7176(4) 0.07829(16) 0.34022(17)
C9 C 0.6122(4) 0.08742(16) 0.35279(17)
H11 H 0.5593 0.0925 0.3222
C10 C 0.7484(5) 0.0777(2) 0.2772(2)
C11 C 0.8536(3) 0.05767(14) 0.49202(16)
C12 C 0.8254(3) 0.02917(14) 0.53570(16)
H12 H 0.7538 0.0198 0.5365
C13 C 0.9035(3) 0.01454(14) 0.57828(16)
C17 C 0.9609(4) 0.07168(14) 0.49139(18)
H14 H 0.9803 0.0906 0.4620
O22 O 0.7766(3) 0.06107(16) 0.92812(19)
C47 C 0.9907(3) 0.02876(14) 0.92213(17)
H25 H 0.9389 0.0191 0.8932
C48 C 0.9601(3) 0.05755(15) 0.96538(17)
C50 C 0.8450(4) 0.07303(16) 0.9669(2)
Zn1 Zn 0.74016(4) 0.917167(16) 0.661016(18)
Zn2 Zn 0.80535(4) 0.630815(15) 0.487920(17)
Zn3_2 Zn 1.0000 0.9484(2) 0.7500
O7 O 0.9449(3) 0.96293(14) 0.65541(17)
O8 O 0.7743(3) 0.97000(10) 0.62153(13)
O9 O 0.8208(3) 0.86344(9) 0.65315(13)
O10 O 0.7430(3) 0.82754(10) 0.57606(12)
O11 O 0.8280(3) 0.67482(10) 0.54896(13)
O12 O 0.9300(5) 0.63838(12) 0.61442(19)
C14 C 0.8739(4) 0.98005(15) 0.62243(18)
C19 C 0.8027(3) 0.82992(13) 0.62321(16)
C20 C 0.8539(4) 0.78835(14) 0.64536(16)
C21 C 0.9157(4) 0.78774(14) 0.70020(17)
H15 H 0.9221 0.8130 0.7227
C22 C 0.9668(4) 0.75017(14) 0.72087(17)
C23 C 0.9550(4) 0.71275(14) 0.68722(17)
H16 H 0.9885 0.6872 0.7008
C24 C 0.8935(4) 0.71278(14) 0.63316(17)
C25 C 0.8440(4) 0.75038(14) 0.61316(16)
H17 H 0.8028 0.7503 0.5772
C26 C 0.8832(4) 0.67132(16) 0.59678(19)
Zn14 Zn 0.69465(4) 0.869185(15) 0.512080(17)
O25 O 0.9477(2) 0.60650(11) 0.47561(12)
O27 O 0.5986(3) 0.90231(14) 0.61863(15)
O30 O 0.6748(3) 0.91917(13) 0.73754(13)
O32 O 0.8417(4) 0.9231(2) 0.76643(17)
O33 O 0.6742(2) 0.59824(12) 0.49172(14)
O35 O 0.7570(3) 0.67246(10) 0.42394(12)
O18_2 O 0.0986(3) 0.59769(14) 0.11863(15)
C35_2 C 0.0293(3) 0.59827(14) 0.07612(17)
Zn9_2 Zn 0.24016(4) 0.582833(16) 0.161016(18)
O19_2 O 0.8252(3) 0.58083(13) 0.26246(13)
O20_2 O 0.6583(4) 0.5769(2) 0.23357(17)
C36_2 C 0.9152(3) 0.58911(14) 0.08869(16)
C37_2 C 0.8354(3) 0.58117(14) 0.04386(17)
H21_2 H 0.8530 0.5829 0.0048
C38_2 C 0.7287(3) 0.57058(14) 0.05605(17)
C39_2 C 0.7043(4) 0.57015(16) 0.11430(18)
H22_2 H 0.6333 0.5642 0.1232
C40_2 C 0.7824(4) 0.57829(16) 0.15978(17)
C41_2 C 0.8878(4) 0.58742(16) 0.14721(17)
H23_2 H 0.9407 0.5925 0.1778
C42_2 C 0.7516(5) 0.5777(2) 0.2228(2)
C43_2 C 0.6464(3) 0.55767(14) 0.00798(16)
C49_2 C 0.5391(4) 0.57168(14) 0.00861(18)
H26_2 H 0.5197 0.5906 0.0380
Zn7_2 Zn 0.75984(4) 0.582833(16) 0.338984(18)
Zn17_3 Zn 0.5000 0.5516(2) 0.2500
O36_2 O 0.7430(3) 0.17246(10) 0.07606(12)
Zn1_2 Zn 0.24016(4) 0.417167(16) 0.661016(18)
Zn3_3 Zn 0.5000 0.4484(2) 0.7500
O3_2 O 0.1748(3) 0.58083(13) 0.23754(13)
O4_2 O 0.3417(4) 0.5769(2) 0.26643(17)
O6_2 O 0.7234(3) 0.56107(16) 0.57188(19)
O7_2 O 0.4449(3) 0.46293(14) 0.65541(17)
O8_2 O 0.2743(3) 0.47000(10) 0.62153(13)
O9_2 O 0.3208(3) 0.36344(9) 0.65315(13)
O10_2 O 0.2430(3) 0.32754(10) 0.57606(12)
O11_2 O 0.3280(3) 0.17482(10) 0.54896(13)
O12_2 O 0.4300(5) 0.13838(12) 0.61442(19)
C4_2 C 0.0848(3) 0.58911(14) 0.41131(16)
C5_2 C 0.1646(3) 0.58117(14) 0.45614(17)
H9_2 H 0.1470 0.5829 0.4952
C6_2 C 0.2713(3) 0.57058(14) 0.44395(17)
C7_2 C 0.2957(4) 0.57015(16) 0.38570(18)
H10_2 H 0.3667 0.5642 0.3768
C8_2 C 0.2176(4) 0.57829(16) 0.34022(17)
C9_2 C 0.1122(4) 0.58742(16) 0.35279(17)
H11_2 H 0.0593 0.5925 0.3222
C10_2 C 0.2484(5) 0.5777(2) 0.2772(2)
C11_2 C 0.3536(3) 0.55767(14) 0.49202(16)
C12_2 C 0.3254(3) 0.52917(14) 0.53570(16)
H12_2 H 0.2538 0.5198 0.5365
C13_2 C 0.4035(3) 0.51454(14) 0.57828(16)
C14_2 C 0.3739(4) 0.48005(15) 0.62243(18)
C15_2 C 0.5093(3) 0.52876(14) 0.57787(17)
H13_2 H 0.5611 0.5191 0.6068
C16_2 C 0.5399(3) 0.55755(15) 0.53462(17)
C17_2 C 0.4609(4) 0.57168(14) 0.49139(18)
H14_2 H 0.4803 0.5906 0.4620
C18_2 C 0.6550(4) 0.57303(16) 0.5331(2)
C19_2 C 0.3027(3) 0.32992(13) 0.62321(16)
C20_2 C 0.3539(4) 0.28835(14) 0.64536(16)
C21_2 C 0.4157(4) 0.28774(14) 0.70020(17)
H15_2 H 0.4221 0.3130 0.7227
C22_2 C 0.4668(4) 0.25017(14) 0.72087(17)
C23_2 C 0.4550(4) 0.21275(14) 0.68722(17)
H16_2 H 0.4885 0.1872 0.7008
C24_2 C 0.3935(4) 0.21278(14) 0.63316(17)
C25_2 C 0.3440(4) 0.25038(14) 0.61316(16)
H17_2 H 0.3028 0.2503 0.5772
C26_2 C 0.3832(4) 0.17132(16) 0.59678(19)
O13_2 O 0.6792(3) 0.36344(9) 0.84685(13)
O14_2 O 0.7570(3) 0.32754(10) 0.92394(12)
O15_2 O 0.6720(3) 0.17482(10) 0.95104(13)
O16_2 O 0.5700(5) 0.13838(12) 0.88558(19)
C27_2 C 0.6973(3) 0.32992(13) 0.87679(16)
C28_2 C 0.6461(4) 0.28835(14) 0.85464(16)
C29_2 C 0.5843(4) 0.28774(14) 0.79980(17)
H18_2 H 0.5779 0.3130 0.7773
C30_2 C 0.5332(4) 0.25017(14) 0.77913(17)
C31_2 C 0.5450(4) 0.21275(14) 0.81278(17)
H19_2 H 0.5115 0.1872 0.7992
C32_2 C 0.6065(4) 0.21278(14) 0.86684(17)
C33_2 C 0.6560(4) 0.25038(14) 0.88684(16)
H20_2 H 0.6972 0.2503 0.9228
C34_2 C 0.6168(4) 0.17132(16) 0.90322(19)
Zn4_2 Zn 0.75984(4) 0.417167(16) 0.838984(18)
O22_2 O 0.2766(3) 0.56107(16) 0.92812(19)
O23_2 O 0.5551(3) 0.46293(14) 0.84459(17)
O24_2 O 0.7257(3) 0.47000(10) 0.87847(13)
C44_2 C 0.6746(3) 0.52917(14) 0.96430(16)
H24_2 H 0.7462 0.5198 0.9635
C45_2 C 0.5965(3) 0.51454(14) 0.92172(16)
C46_2 C 0.6261(4) 0.48005(15) 0.87757(18)
C47_2 C 0.4907(3) 0.52876(14) 0.92213(17)
H25_2 H 0.4389 0.5191 0.8932
C48_2 C 0.4601(3) 0.55755(15) 0.96538(17)
C50_2 C 0.3450(4) 0.57303(16) 0.9669(2)
Zn14_2 Zn 0.19465(4) 0.369185(15) 0.512080(17)
Zn15_2 Zn 0.80535(4) 0.369185(15) 0.987920(17)
O27_2 O 0.0986(3) 0.40231(14) 0.61863(15)
O28_2 O 0.9014(3) 0.40231(14) 0.88137(15)
O29_2 O 0.8252(3) 0.41917(13) 0.76246(13)
O30_2 O 0.1748(3) 0.41917(13) 0.73754(13)
O31_2 O 0.6583(4) 0.4231(2) 0.73357(17)
O32_2 O 0.3417(4) 0.4231(2) 0.76643(17)
O35_2 O 0.2570(3) 0.17246(10) 0.42394(12)
O2_2 O 0.9014(3) 0.59769(14) 0.38137(15)
C3_2 C 0.9707(3) 0.59827(14) 0.42388(17)
O7_3 O 0.0551(3) 0.03707(14) 0.34459(17)
O8_3 O 0.2257(3) 0.03000(10) 0.37847(13)
O9_3 O 0.1792(3) 0.13656(9) 0.34685(13)
O11_3 O 0.1720(3) 0.32518(10) 0.45104(13)
O12_3 O 0.0700(5) 0.36162(12) 0.38558(19)
C14_3 C 0.1261(4) 0.01995(15) 0.37757(18)
C19_3 C 0.1973(3) 0.17008(13) 0.37679(16)
C20_3 C 0.1461(4) 0.21165(14) 0.35464(16)
C21_3 C 0.0843(4) 0.21226(14) 0.29980(17)
H15_3 H 0.0779 0.1870 0.2773
C22_3 C 0.0332(4) 0.24983(14) 0.27913(17)
C23_3 C 0.0450(4) 0.28725(14) 0.31278(17)
H16_3 H 0.0115 0.3128 0.2992
C24_3 C 0.1065(4) 0.28722(14) 0.36684(17)
C25_3 C 0.1560(4) 0.24962(14) 0.38684(16)
H17_3 H 0.1972 0.2497 0.4228
C26_3 C 0.1168(4) 0.32868(16) 0.40322(19)
O25_2 O 0.0523(2) 0.39350(11) 0.52439(12)
O33_2 O 0.3258(2) 0.40176(12) 0.50828(14)
O1_2 O 0.5523(2) 0.89350(11) 0.52439(12)
C3_3 C 0.5293(3) 0.90173(14) 0.57612(17)
C4_3 C 0.4152(3) 0.91089(14) 0.58869(16)
C5_3 C 0.3354(3) 0.91883(14) 0.54386(17)
H9_3 H 0.3530 0.9171 0.5048
C6_3 C 0.2287(3) 0.92942(14) 0.55605(17)
C7_3 C 0.2043(4) 0.92985(16) 0.61430(18)
H10_3 H 0.1333 0.9358 0.6232
C8_3 C 0.2824(4) 0.92171(16) 0.65978(17)
C9_3 C 0.3878(4) 0.91258(16) 0.64721(17)
H11_3 H 0.4407 0.9075 0.6778
C10_3 C 0.2516(5) 0.9223(2) 0.7228(2)
C11_3 C 0.1464(3) 0.94233(14) 0.50798(16)
C12_3 C 0.1746(3) 0.97083(14) 0.46430(16)
H12_3 H 0.2462 0.9802 0.4635
C13_3 C 0.0965(3) 0.98546(14) 0.42172(16)
C17_3 C 0.0391(4) 0.92832(14) 0.50861(18)
H14_3 H 0.0197 0.9094 0.5380
O22_3 O 0.2234(3) 0.93893(16) 0.07188(19)
C47_3 C 0.0093(3) 0.97124(14) 0.07787(17)
H25_3 H 0.0611 0.9809 0.1068
C48_3 C 0.0399(3) 0.94245(15) 0.03462(17)
C50_3 C 0.1550(4) 0.92697(16) 0.0331(2)
O21_2 O 0.1742(2) 0.90176(12) 0.99172(14)
O13_3 O 0.8208(3) 0.13656(9) 0.15315(13)
O15_3 O 0.8280(3) 0.32518(10) 0.04896(13)
O16_3 O 0.9300(5) 0.36162(12) 0.11442(19)
C27_3 C 0.8027(3) 0.17008(13) 0.12321(16)
C28_3 C 0.8539(4) 0.21165(14) 0.14536(16)
C29_3 C 0.9157(4) 0.21226(14) 0.20020(17)
H18_3 H 0.9221 0.1870 0.2227
C30_3 C 0.9668(4) 0.24983(14) 0.22087(17)
C31_3 C 0.9550(4) 0.28725(14) 0.18722(17)
H19_3 H 0.9885 0.3128 0.2008
C32_3 C 0.8935(4) 0.28722(14) 0.13316(17)
C33_3 C 0.8440(4) 0.24962(14) 0.11316(16)
H20_3 H 0.8028 0.2497 0.0772
C34_3 C 0.8832(4) 0.32868(16) 0.09678(19)
O23_3 O 0.9449(3) 0.03707(14) 0.15541(17)
O24_3 O 0.7743(3) 0.03000(10) 0.12153(13)
C46_3 C 0.8739(4) 0.01995(15) 0.12243(18)
O26_2 O 0.9477(2) 0.39350(11) 0.97561(12)
O34_2 O 0.6742(2) 0.40176(12) 0.99172(14)
O5_2 O 0.8258(2) 0.90176(12) 0.50828(14)
O6_3 O 0.7766(3) 0.93893(16) 0.42812(19)
C15_3 C 0.9907(3) 0.97124(14) 0.42213(17)
H13_3 H 0.9389 0.9809 0.3932
C16_3 C 0.9601(3) 0.94245(15) 0.46538(17)
C18_3 C 0.8450(4) 0.92697(16) 0.4669(2)
C44_3 C 0.8254(3) 0.97083(14) 0.03570(16)
H24_3 H 0.7538 0.9802 0.0365
C45_3 C 0.9035(3) 0.98546(14) 0.07828(16)
O17_2 O 0.4477(2) 0.89350(11) 0.97561(12)
C35_3 C 0.4707(3) 0.90173(14) 0.92388(17)
C36_3 C 0.5848(3) 0.91089(14) 0.91131(16)
C37_3 C 0.6646(3) 0.91883(14) 0.95614(17)
H21_3 H 0.6470 0.9171 0.9952
C38_3 C 0.7713(3) 0.92942(14) 0.94395(17)
C39_3 C 0.7957(4) 0.92985(16) 0.88570(18)
H22_3 H 0.8667 0.9358 0.8768
C40_3 C 0.7176(4) 0.92171(16) 0.84022(17)
C41_3 C 0.6122(4) 0.91258(16) 0.85279(17)
H23_3 H 0.5593 0.9075 0.8222
C42_3 C 0.7484(5) 0.9223(2) 0.7772(2)
C43_3 C 0.8536(3) 0.94233(14) 0.99202(16)
C49_3 C 0.9609(4) 0.92832(14) 0.99139(18)
H26_3 H 0.9803 0.9094 0.9620
C3_4 C 0.0293(3) 0.40173(14) 0.57612(17)
O6_4 O 0.2766(3) 0.43893(16) 0.42812(19)
O7_4 O 0.5551(3) 0.53707(14) 0.34459(17)
O8_4 O 0.7257(3) 0.53000(10) 0.37847(13)
O9_4 O 0.6792(3) 0.63656(9) 0.34685(13)
O11_4 O 0.6720(3) 0.82518(10) 0.45104(13)
O12_4 O 0.5700(5) 0.86162(12) 0.38558(19)
C4_4 C 0.9152(3) 0.41089(14) 0.58869(16)
C5_4 C 0.8354(3) 0.41883(14) 0.54386(17)
H9_4 H 0.8530 0.4171 0.5048
C6_4 C 0.7287(3) 0.42942(14) 0.55605(17)
C7_4 C 0.7043(4) 0.42985(16) 0.61430(18)
H10_4 H 0.6333 0.4358 0.6232
C8_4 C 0.7824(4) 0.42171(16) 0.65978(17)
C9_4 C 0.8878(4) 0.41258(16) 0.64721(17)
H11_4 H 0.9407 0.4075 0.6778
C10_4 C 0.7516(5) 0.4223(2) 0.7228(2)
C11_4 C 0.6464(3) 0.44233(14) 0.50798(16)
C12_4 C 0.6746(3) 0.47083(14) 0.46430(16)
H12_4 H 0.7462 0.4802 0.4635
C13_4 C 0.5965(3) 0.48546(14) 0.42172(16)
C14_4 C 0.6261(4) 0.51995(15) 0.37757(18)
C15_4 C 0.4907(3) 0.47124(14) 0.42213(17)
H13_4 H 0.4389 0.4809 0.3932
C16_4 C 0.4601(3) 0.44245(15) 0.46538(17)
C17_4 C 0.5391(4) 0.42832(14) 0.50861(18)
H14_4 H 0.5197 0.4094 0.5380
C18_4 C 0.3450(4) 0.42697(16) 0.4669(2)
C19_4 C 0.6973(3) 0.67008(13) 0.37679(16)
C20_4 C 0.6461(4) 0.71165(14) 0.35464(16)
C21_4 C 0.5843(4) 0.71226(14) 0.29980(17)
H15_4 H 0.5779 0.6870 0.2773
C22_4 C 0.5332(4) 0.74983(14) 0.27913(17)
C23_4 C 0.5450(4) 0.78725(14) 0.31278(17)
H16_4 H 0.5115 0.8128 0.2992
C24_4 C 0.6065(4) 0.78722(14) 0.36684(17)
C25_4 C 0.6560(4) 0.74962(14) 0.38684(16)
H17_4 H 0.6972 0.7497 0.4228
C26_4 C 0.6168(4) 0.82868(16) 0.40322(19)
O13_4 O 0.3208(3) 0.63656(9) 0.15315(13)
O15_4 O 0.3280(3) 0.82518(10) 0.04896(13)
O16_4 O 0.4300(5) 0.86162(12) 0.11442(19)
C27_4 C 0.3027(3) 0.67008(13) 0.12321(16)
C28_4 C 0.3539(4) 0.71165(14) 0.14536(16)
C29_4 C 0.4157(4) 0.71226(14) 0.20020(17)
H18_4 H 0.4221 0.6870 0.2227
C30_4 C 0.4668(4) 0.74983(14) 0.22087(17)
C31_4 C 0.4550(4) 0.78725(14) 0.18722(17)
H19_4 H 0.4885 0.8128 0.2008
C32_4 C 0.3935(4) 0.78722(14) 0.13316(17)
C33_4 C 0.3440(4) 0.74962(14) 0.11316(16)
H20_4 H 0.3028 0.7497 0.0772
C34_4 C 0.3832(4) 0.82868(16) 0.09678(19)
O22_4 O 0.7234(3) 0.43893(16) 0.07188(19)
O23_4 O 0.4449(3) 0.53707(14) 0.15541(17)
O24_4 O 0.2743(3) 0.53000(10) 0.12153(13)
C44_4 C 0.3254(3) 0.47083(14) 0.03570(16)
H24_4 H 0.2538 0.4802 0.0365
C45_4 C 0.4035(3) 0.48546(14) 0.07828(16)
C46_4 C 0.3739(4) 0.51995(15) 0.12243(18)
C47_4 C 0.5093(3) 0.47124(14) 0.07787(17)
H25_4 H 0.5611 0.4809 0.1068
C48_4 C 0.5399(3) 0.44245(15) 0.03462(17)
C50_4 C 0.6550(4) 0.42697(16) 0.0331(2)
C36_4 C 0.0848(3) 0.41089(14) 0.91131(16)
C37_4 C 0.1646(3) 0.41883(14) 0.95614(17)
H21_4 H 0.1470 0.4171 0.9952
C38_4 C 0.2713(3) 0.42942(14) 0.94395(17)
C39_4 C 0.2957(4) 0.42985(16) 0.88570(18)
H22_4 H 0.3667 0.4358 0.8768
C40_4 C 0.2176(4) 0.42171(16) 0.84022(17)
C41_4 C 0.1122(4) 0.41258(16) 0.85279(17)
H23_4 H 0.0593 0.4075 0.8222
C42_4 C 0.2484(5) 0.4223(2) 0.7772(2)
C43_4 C 0.3536(3) 0.44233(14) 0.99202(16)
C49_4 C 0.4609(4) 0.42832(14) 0.99139(18)
H26_4 H 0.4803 0.4094 0.9620
C35_4 C 0.9707(3) 0.40173(14) 0.92388(17)
loop_
_geom_bond_atom_site_label_1
_geom_bond_atom_site_label_2
_geom_bond_site_symmetry_1
_geom_bond_site_symmetry_2
H2 N1 1_555 1_555
C1 N1 1_555 1_555
H4 C1 1_555 1_555
H5 C1 1_555 1_555
C2 N1 1_555 1_555
H6 C2 1_555 1_555
H7 C2 1_555 1_555
H8 C2 1_555 1_555
H2_2 N1_2 1_555 1_555
C1_2 N1_2 1_555 1_555
H4_2 C1_2 1_555 1_555
H5_2 C1_2 1_555 1_555
C2_2 N1_2 1_555 1_555
H6_2 C2_2 1_555 1_555
H7_2 C2_2 1_555 1_555
H8_2 C2_2 1_555 1_555
N1_3 H1_3 1_555 1_555
H2_3 N1_3 1_555 1_555
C1_3 N1_3 1_555 1_555
H3_3 C1_3 1_555 1_555
H4_3 C1_3 1_555 1_555
H5_3 C1_3 1_555 1_555
C2_3 N1_3 1_555 1_555
H6_3 C2_3 1_555 1_555
H7_3 C2_3 1_555 1_555
H8_3 C2_3 1_555 1_555
N1_4 H1_4 1_555 1_555
H2_4 N1_4 1_555 1_555
C1_4 N1_4 1_555 1_555
H3_4 C1_4 1_555 1_555
H4_4 C1_4 1_555 1_555
H5_4 C1_4 1_555 1_555
C2_4 N1_4 1_555 1_555
H6_4 C2_4 1_555 1_555
H7_4 C2_4 1_555 1_555
H8_4 C2_4 1_555 1_555
H2_5 N1_5 1_555 1_555
C1_5 N1_5 1_555 1_555
H4_5 C1_5 1_555 1_555
H5_5 C1_5 1_555 1_555
C2_5 N1_5 1_555 1_555
H6_5 C2_5 1_555 1_555
H7_5 C2_5 1_555 1_555
H8_5 C2_5 1_555 1_555
H2_6 N1_6 1_555 1_555
C1_6 N1_6 1_555 1_555
H4_6 C1_6 1_555 1_555
H5_6 C1_6 1_555 1_555
C2_6 N1_6 1_555 1_555
H6_6 C2_6 1_555 1_555
H7_6 C2_6 1_555 1_555
H8_6 C2_6 1_555 1_555
N1_7 H1_7 1_555 1_555
H2_7 N1_7 1_555 1_555
C1_7 N1_7 1_555 1_555
H3_7 C1_7 1_555 1_555
H4_7 C1_7 1_555 1_555
H5_7 C1_7 1_555 1_555
C2_7 N1_7 1_555 1_555
H6_7 C2_7 1_555 1_555
H7_7 C2_7 1_555 1_555
H8_7 C2_7 1_555 1_555
N1_8 H1_8 1_555 1_555
H2_8 N1_8 1_555 1_555
C1_8 N1_8 1_555 1_555
H3_8 C1_8 1_555 1_555
H4_8 C1_8 1_555 1_555
H5_8 C1_8 1_555 1_555
C2_8 N1_8 1_555 1_555
H6_8 C2_8 1_555 1_555
H7_8 C2_8 1_555 1_555
H8_8 C2_8 1_555 1_555
O17 C35 1_555 1_555
O18 C35 1_555 1_555
O19 C42 1_555 1_555
O20 C42 1_555 1_555
C35 C36 1_555 1_555
C36 C37 1_555 1_555
C37 H21 1_555 1_555
C38 C37 1_555 1_555
C39 C38 1_555 1_555
H22 C39 1_555 1_555
C40 C39 1_555 1_555
C41 C36 1_555 1_555
H23 C41 1_555 1_555
C42 C40 1_555 1_555
C43 C38 1_555 1_555
C49 C43 1_555 1_555
H26 C49 1_555 1_555
Zn7 O19 1_555 1_555
Zn9 O18 1_555 1_555
Zn13 O17 1_555 1_555
Zn17 O20 1_555 1_555
C40 C41 1_555 1_555
O5 C18 1_555 1_555
O6 C18 1_555 1_555
H13 C15 1_555 1_555
C16 C15 1_555 1_555
C18 C16 1_555 1_555
H24 C44 1_555 1_555
C45 C44 1_555 1_555
Zn11 O5 1_555 1_555
O26 Zn5 1_555 1_555
O34 Zn5 1_555 1_555
O36 Zn5 1_555 1_555
O13 C27 1_555 1_555
O14 C27 1_555 1_555
O15 C34 1_555 1_555
O16 C34 1_555 1_555
C27 C28 1_555 1_555
C28 C29 1_555 1_555
C29 H18 1_555 1_555
C31 C30 1_555 1_555
H19 C31 1_555 1_555
C32 C31 1_555 1_555
C33 C28 1_555 1_555
H20 C33 1_555 1_555
C34 C32 1_555 1_555
Zn4 O13 1_555 1_555
O23 Zn3 1_555 1_555
O24 Zn4 1_555 1_555
C46 O23 1_555 1_555
Zn15 O14 1_555 1_555
O28 Zn4 1_555 1_555
O29 Zn4 1_555 1_555
O31 Zn3 1_555 1_555
C29 C30 1_555 1_555
C32 C33 1_555 1_555
O24 C46 1_555 1_555
Zn13 O21 1_555 1_555
O1 C3 1_555 1_555
O2 C3 1_555 1_555
O3 C10 1_555 1_555
O4 C10 1_555 1_555
C3 C4 1_555 1_555
C4 C5 1_555 1_555
C5 H9 1_555 1_555
C6 C5 1_555 1_555
C7 C6 1_555 1_555
H10 C7 1_555 1_555
C8 C7 1_555 1_555
C9 C4 1_555 1_555
H11 C9 1_555 1_555
C10 C8 1_555 1_555
C11 C6 1_555 1_555
C12 C11 1_555 1_555
H12 C12 1_555 1_555
C13 C12 1_555 1_555
C17 C11 1_555 1_555
H14 C17 1_555 1_555
O22 C50 1_555 1_555
H25 C47 1_555 1_555
C48 C47 1_555 1_555
C50 C48 1_555 1_555
Zn7 O2 1_555 1_555
Zn9 O3 1_555 1_555
Zn11 O1 1_555 1_555
Zn17_2 O4 1_555 1_555
C8 C9 1_555 1_555
Zn1 O8 1_555 1_555
Zn2 O11 1_555 1_555
Zn3_2 O7 1_555 1_555
O7 C14 1_555 1_555
O8 C14 1_555 1_555
O9 Zn1 1_555 1_555
O10 C19 1_555 1_555
O11 C26 1_555 1_555
O12 C26 1_555 1_555
C19 O9 1_555 1_555
C20 C19 1_555 1_555
C21 C20 1_555 1_555
H15 C21 1_555 1_555
C22 C21 1_555 1_555
C23 C22 1_555 1_555
H16 C23 1_555 1_555
C24 C23 1_555 1_555
C25 C20 1_555 1_555
H17 C25 1_555 1_555
C26 C24 1_555 1_555
Zn14 O10 1_555 1_555
O25 Zn2 1_555 1_555
O27 Zn1 1_555 1_555
O30 Zn1 1_555 1_555
O32 Zn3_2 1_555 1_555
O33 Zn2 1_555 1_555
O35 Zn2 1_555 1_555
C24 C25 1_555 1_555
O26 C35_2 1_555 1_555
O18_2 C35_2 1_555 1_555
Zn9_2 O18_2 1_555 1_555
O19_2 C42_2 1_555 1_555
O20_2 C42_2 1_555 1_555
C36_2 C37_2 1_555 1_555
C37_2 H21_2 1_555 1_555
C38_2 C37_2 1_555 1_555
C39_2 C38_2 1_555 1_555
H22_2 C39_2 1_555 1_555
C40_2 C39_2 1_555 1_555
C41_2 C36_2 1_555 1_555
H23_2 C41_2 1_555 1_555
C42_2 C40_2 1_555 1_555
C43_2 C38_2 1_555 1_555
C49_2 C43_2 1_555 1_555
H26_2 C49_2 1_555 1_555
Zn7_2 O19_2 1_555 1_555
Zn17_3 O20_2 1_555 1_555
O36_2 Zn13 1_555 1_555
C40_2 C41_2 1_555 1_555
Zn1_2 O8_2 1_555 1_555
Zn11 O11_2 1_555 1_555
Zn3_3 O7_2 1_555 1_555
O3_2 C10_2 1_555 1_555
O4_2 C10_2 1_555 1_555
O33 C18_2 1_555 1_555
O6_2 C18_2 1_555 1_555
O7_2 C14_2 1_555 1_555
O8_2 C14_2 1_555 1_555
O9_2 Zn1_2 1_555 1_555
O10_2 C19_2 1_555 1_555
O11_2 C26_2 1_555 1_555
O12_2 C26_2 1_555 1_555
C4_2 C5_2 1_555 1_555
C5_2 H9_2 1_555 1_555
C6_2 C5_2 1_555 1_555
C7_2 C6_2 1_555 1_555
H10_2 C7_2 1_555 1_555
C8_2 C7_2 1_555 1_555
C9_2 C4_2 1_555 1_555
H11_2 C9_2 1_555 1_555
C10_2 C8_2 1_555 1_555
C11_2 C6_2 1_555 1_555
C12_2 C11_2 1_555 1_555
H12_2 C12_2 1_555 1_555
C13_2 C12_2 1_555 1_555
C14_2 C13_2 1_555 1_555
C15_2 C13_2 1_555 1_555
H13_2 C15_2 1_555 1_555
C16_2 C15_2 1_555 1_555
C17_2 C11_2 1_555 1_555
H14_2 C17_2 1_555 1_555
C18_2 C16_2 1_555 1_555
C19_2 O9_2 1_555 1_555
C20_2 C19_2 1_555 1_555
C21_2 C20_2 1_555 1_555
H15_2 C21_2 1_555 1_555
C22_2 C21_2 1_555 1_555
C23_2 C22_2 1_555 1_555
H16_2 C23_2 1_555 1_555
C24_2 C23_2 1_555 1_555
C25_2 C20_2 1_555 1_555
H17_2 C25_2 1_555 1_555
C26_2 C24_2 1_555 1_555
O13_2 C27_2 1_555 1_555
O14_2 C27_2 1_555 1_555
O15_2 C34_2 1_555 1_555
O16_2 C34_2 1_555 1_555
C27_2 C28_2 1_555 1_555
C28_2 C29_2 1_555 1_555
C29_2 H18_2 1_555 1_555
C30_2 C22_2 1_555 1_555
C31_2 C30_2 1_555 1_555
H19_2 C31_2 1_555 1_555
C32_2 C31_2 1_555 1_555
C33_2 C28_2 1_555 1_555
H20_2 C33_2 1_555 1_555
C34_2 C32_2 1_555 1_555
Zn4_2 O13_2 1_555 1_555
O22_2 C50_2 1_555 1_555
O23_2 Zn3_3 1_555 1_555
O24_2 Zn4_2 1_555 1_555
H24_2 C44_2 1_555 1_555
C45_2 C44_2 1_555 1_555
C46_2 O23_2 1_555 1_555
C47_2 C45_2 1_555 1_555
H25_2 C47_2 1_555 1_555
C48_2 C47_2 1_555 1_555
C50_2 C48_2 1_555 1_555
Zn9_2 O3_2 1_555 1_555
Zn14_2 O10_2 1_555 1_555
Zn15_2 O14_2 1_555 1_555
Zn17_3 O4_2 1_555 1_555
O27_2 Zn1_2 1_555 1_555
O28_2 Zn4_2 1_555 1_555
O29_2 Zn4_2 1_555 1_555
O30_2 Zn1_2 1_555 1_555
O31_2 Zn3_3 1_555 1_555
O32_2 Zn3_3 1_555 1_555
O35_2 Zn11 1_555 1_555
C8_2 C9_2 1_555 1_555
C16_2 C17_2 1_555 1_555
C24_2 C25_2 1_555 1_555
C29_2 C30_2 1_555 1_555
C32_2 C33_2 1_555 1_555
O24_2 C46_2 1_555 1_555
C45_2 C46_2 1_555 1_555
O25 C3_2 1_555 1_555
O2_2 C3_2 1_555 1_555
Zn7_2 O2_2 1_555 1_555
Zn7 O8_3 1_555 1_555
Zn14_2 O11_3 1_555 1_555
Zn17 O7_3 1_555 1_555
O7_3 C14_3 1_555 1_555
O8_3 C14_3 1_555 1_555
O9_3 Zn7 1_555 1_555
O35_2 C19_3 1_555 1_555
O11_3 C26_3 1_555 1_555
O12_3 C26_3 1_555 1_555
C19_3 O9_3 1_555 1_555
C20_3 C19_3 1_555 1_555
C21_3 C20_3 1_555 1_555
H15_3 C21_3 1_555 1_555
C22_3 C21_3 1_555 1_555
C23_3 C22_3 1_555 1_555
H16_3 C23_3 1_555 1_555
C24_3 C23_3 1_555 1_555
C25_3 C20_3 1_555 1_555
H17_3 C25_3 1_555 1_555
C26_3 C24_3 1_555 1_555
O25_2 Zn14_2 1_555 1_555
O33_2 Zn14_2 1_555 1_555
C24_3 C25_3 1_555 1_555
O1_2 C3_3 1_555 1_555
O27 C3_3 1_555 1_555
O29 C10_3 1_555 1_555
O31 C10_3 1_555 1_555
C3_3 C4_3 1_555 1_555
C4_3 C5_3 1_555 1_555
C5_3 H9_3 1_555 1_555
C6_3 C5_3 1_555 1_555
C7_3 C6_3 1_555 1_555
H10_3 C7_3 1_555 1_555
C8_3 C7_3 1_555 1_555
C9_3 C4_3 1_555 1_555
H11_3 C9_3 1_555 1_555
C10_3 C8_3 1_555 1_555
C11_3 C6_3 1_555 1_555
C12_3 C11_3 1_555 1_555
H12_3 C12_3 1_555 1_555
C13_3 C12_3 1_555 1_555
C17_3 C11_3 1_555 1_555
H14_3 C17_3 1_555 1_555
O22_3 C50_3 1_555 1_555
H25_3 C47_3 1_555 1_555
C48_3 C47_3 1_555 1_555
C50_3 C48_3 1_555 1_555
Zn14 O1_2 1_555 1_555
C8_3 C9_3 1_555 1_555
Zn15 O21_2 1_555 1_555
O13_3 C27_3 1_555 1_555
O36_2 C27_3 1_555 1_555
O15_3 C34_3 1_555 1_555
O16_3 C34_3 1_555 1_555
C27_3 C28_3 1_555 1_555
C28_3 C29_3 1_555 1_555
C29_3 H18_3 1_555 1_555
C31_3 C30_3 1_555 1_555
H19_3 C31_3 1_555 1_555
C32_3 C31_3 1_555 1_555
C33_3 C28_3 1_555 1_555
H20_3 C33_3 1_555 1_555
C34_3 C32_3 1_555 1_555
Zn9 O13_3 1_555 1_555
O23_3 Zn17_2 1_555 1_555
O24_3 Zn9 1_555 1_555
C46_3 O23_3 1_555 1_555
C29_3 C30_3 1_555 1_555
C32_3 C33_3 1_555 1_555
O24_3 C46_3 1_555 1_555
O26_2 Zn15_2 1_555 1_555
O34_2 Zn15_2 1_555 1_555
O5_2 C18_3 1_555 1_555
O6_3 C18_3 1_555 1_555
H13_3 C15_3 1_555 1_555
C16_3 C15_3 1_555 1_555
C18_3 C16_3 1_555 1_555
H24_3 C44_3 1_555 1_555
C45_3 C44_3 1_555 1_555
Zn14 O5_2 1_555 1_555
O17_2 C35_3 1_555 1_555
O28 C35_3 1_555 1_555
O30 C42_3 1_555 1_555
O32 C42_3 1_555 1_555
C35_3 C36_3 1_555 1_555
C36_3 C37_3 1_555 1_555
C37_3 H21_3 1_555 1_555
C38_3 C37_3 1_555 1_555
C39_3 C38_3 1_555 1_555
H22_3 C39_3 1_555 1_555
C40_3 C39_3 1_555 1_555
C41_3 C36_3 1_555 1_555
H23_3 C41_3 1_555 1_555
C42_3 C40_3 1_555 1_555
C43_3 C38_3 1_555 1_555
C49_3 C43_3 1_555 1_555
H26_3 C49_3 1_555 1_555
Zn15 O17_2 1_555 1_555
C40_3 C41_3 1_555 1_555
O25_2 C3_4 1_555 1_555
O27_2 C3_4 1_555 1_555
Zn7_2 O8_4 1_555 1_555
Zn14 O11_4 1_555 1_555
Zn17_3 O7_4 1_555 1_555
O29_2 C10_4 1_555 1_555
O31_2 C10_4 1_555 1_555
O33_2 C18_4 1_555 1_555
O6_4 C18_4 1_555 1_555
O7_4 C14_4 1_555 1_555
O8_4 C14_4 1_555 1_555
O9_4 Zn7_2 1_555 1_555
O35 C19_4 1_555 1_555
O11_4 C26_4 1_555 1_555
O12_4 C26_4 1_555 1_555
C4_4 C5_4 1_555 1_555
C5_4 H9_4 1_555 1_555
C6_4 C5_4 1_555 1_555
C7_4 C6_4 1_555 1_555
H10_4 C7_4 1_555 1_555
C8_4 C7_4 1_555 1_555
C9_4 C4_4 1_555 1_555
H11_4 C9_4 1_555 1_555
C10_4 C8_4 1_555 1_555
C11_4 C6_4 1_555 1_555
C12_4 C11_4 1_555 1_555
H12_4 C12_4 1_555 1_555
C13_4 C12_4 1_555 1_555
C14_4 C13_4 1_555 1_555
C15_4 C13_4 1_555 1_555
H13_4 C15_4 1_555 1_555
C16_4 C15_4 1_555 1_555
C17_4 C11_4 1_555 1_555
H14_4 C17_4 1_555 1_555
C18_4 C16_4 1_555 1_555
C19_4 O9_4 1_555 1_555
C20_4 C19_4 1_555 1_555
C21_4 C20_4 1_555 1_555
H15_4 C21_4 1_555 1_555
C22_4 C21_4 1_555 1_555
C23_4 C22_4 1_555 1_555
H16_4 C23_4 1_555 1_555
C24_4 C23_4 1_555 1_555
C25_4 C20_4 1_555 1_555
H17_4 C25_4 1_555 1_555
C26_4 C24_4 1_555 1_555
O13_4 C27_4 1_555 1_555
O36 C27_4 1_555 1_555
O15_4 C34_4 1_555 1_555
O16_4 C34_4 1_555 1_555
C27_4 C28_4 1_555 1_555
C28_4 C29_4 1_555 1_555
C29_4 H18_4 1_555 1_555
C30_4 C22_4 1_555 1_555
C31_4 C30_4 1_555 1_555
H19_4 C31_4 1_555 1_555
C32_4 C31_4 1_555 1_555
C33_4 C28_4 1_555 1_555
H20_4 C33_4 1_555 1_555
C34_4 C32_4 1_555 1_555
Zn9_2 O13_4 1_555 1_555
O22_4 C50_4 1_555 1_555
O23_4 Zn17_3 1_555 1_555
O24_4 Zn9_2 1_555 1_555
H24_4 C44_4 1_555 1_555
C45_4 C44_4 1_555 1_555
C46_4 O23_4 1_555 1_555
C47_4 C45_4 1_555 1_555
H25_4 C47_4 1_555 1_555
C48_4 C47_4 1_555 1_555
C50_4 C48_4 1_555 1_555
C8_4 C9_4 1_555 1_555
C16_4 C17_4 1_555 1_555
C24_4 C25_4 1_555 1_555
C29_4 C30_4 1_555 1_555
C32_4 C33_4 1_555 1_555
O24_4 C46_4 1_555 1_555
C45_4 C46_4 1_555 1_555
O30_2 C42_4 1_555 1_555
O32_2 C42_4 1_555 1_555
C36_4 C37_4 1_555 1_555
C37_4 H21_4 1_555 1_555
C38_4 C37_4 1_555 1_555
C39_4 C38_4 1_555 1_555
H22_4 C39_4 1_555 1_555
C40_4 C39_4 1_555 1_555
C41_4 C36_4 1_555 1_555
H23_4 C41_4 1_555 1_555
C42_4 C40_4 1_555 1_555
C43_4 C38_4 1_555 1_555
C49_4 C43_4 1_555 1_555
H26_4 C49_4 1_555 1_555
C40_4 C41_4 1_555 1_555
O26_2 C35_4 1_555 1_555
O28_2 C35_4 1_555 1_555

#END
