
###############################################################################
#
# This file contains modified crystal structure data generated from the
# MOF subset of the Cambridge Structural Database (CSD) v543 
# hosted by the Cambridge Crystallographic Data Centre (CCDC).
#
# This work is licensed under the Creative Commons
# Attribution-NonCommercial-ShareAlike 4.0 International License.
# To view a copy of this license, visit
# http://creativecommons.org/licenses/by-nc-sa/4.0/
# or send a letter to
# Creative Commons, PO Box 1866, Mountain View, CA 94042, USA.
#
# CIF created using the CSD Python API on 29 September 2022
# The structure has been converted into the P1 space group
# The structure has a 3D framework
# The original CSD entry HAQROJ is in the monoclinic crystal system
# The framework has been calculated to contain at least 10.0% void space
# The void calculation uses a probe of radius 1.32A, grid spacing 0.4
# The framework is charged, counterions have been retained in the structure
#
###############################################################################

data_HAQROJ
_chemical_formula_moiety         '(C192 H72 Li4 O92 Zn16 6-)n'
_symmetry_cell_setting           triclinic
_symmetry_space_group_name_H-M   'P 1'
_symmetry_Int_Tables_number      1
_space_group_name_Hall           'P 1'
loop_
_symmetry_equiv_pos_site_id
_symmetry_equiv_pos_as_xyz
1 x,y,z
_cell_length_a                   12.260(6)
_cell_length_b                   30.207(15)
_cell_length_c                   22.980(11)
_cell_angle_alpha                90
_cell_angle_beta                 94.983(10)
_cell_angle_gamma                90
_cell_volume                     8478.2
loop_
_atom_site_label
_atom_site_type_symbol
_atom_site_fract_x
_atom_site_fract_y
_atom_site_fract_z
Li1 Li 0.0000 0.5546(5) 0.2500
O5 O 0.1902(3) 0.59433(13) 0.49117(16)
O6 O 0.2391(3) 0.56423(18) 0.5773(2)
C11 C 0.0517(4) 0.55835(16) 0.5399(2)
C12 C 0.0241(4) 0.53234(17) 0.5863(2)
H5 H 0.0766 0.5246 0.6162
C15 C 0.1716(4) 0.57300(19) 0.5362(2)
Li4 Li -0.0000 0.4454(5) 0.7500
Zn9 Zn 0.31666(5) 0.629923(19) 0.48519(2)
O25 O 0.1329(3) 0.58201(13) 0.22816(14)
O30 O 0.0450(3) 0.52096(15) 0.32340(17)
Li1_2 Li 1.0000 0.5546(5) 0.2500
Zn1 Zn 0.25964(5) 0.581487(19) 0.33833(2)
O1 O 0.4580(3) 0.60313(13) 0.46955(14)
O2 O 0.4110(3) 0.59016(14) 0.37542(16)
O3 O 0.8671(3) 0.58201(13) 0.27184(14)
O4 O 0.6905(3) 0.57578(12) 0.24037(13)
O7 O 0.9550(3) 0.47904(15) 0.67660(17)
O8 O 0.7885(3) 0.47186(12) 0.62890(15)
O9 O 0.2626(3) 0.67227(11) 0.42315(13)
O10 O 0.1785(3) 0.63505(12) 0.34767(15)
O11 O 0.1563(3) 0.82536(12) 0.45480(13)
O12 O 0.0760(4) 0.86573(13) 0.38338(18)
C1 C 0.4797(4) 0.59222(17) 0.4190(2)
C2 C 0.5957(4) 0.58427(17) 0.40974(19)
C3 C 0.6254(4) 0.58508(16) 0.35284(19)
H1 H 0.5734 0.5909 0.3219
C4 C 0.7363(4) 0.57685(17) 0.34259(18)
C5 C 0.8134(4) 0.56883(17) 0.38899(19)
H2 H 0.8862 0.5642 0.3821
C6 C 0.7823(4) 0.56757(16) 0.44639(18)
C7 C 0.6742(4) 0.57598(16) 0.45562(19)
H3 H 0.6536 0.5761 0.4936
C8 C 0.7686(4) 0.57847(17) 0.2810(2)
C9 C 0.8668(4) 0.55630(16) 0.49562(19)
C10 C 0.9737(4) 0.56933(17) 0.4948(2)
H4 H 0.9944 0.5859 0.4635
C13 C 0.9177(4) 0.51833(16) 0.58707(19)
C14 C 0.8380(4) 0.52990(16) 0.54190(18)
H6 H 0.7663 0.5200 0.5428
C16 C 0.8852(5) 0.48705(18) 0.6346(2)
C17 C 0.1984(4) 0.66943(18) 0.3771(2)
C18 C 0.1456(5) 0.71149(17) 0.3553(2)
C19 C 0.1521(5) 0.74944(17) 0.38875(19)
H7 H 0.1901 0.7490 0.4256
C20 C 0.1028(5) 0.78820(17) 0.3680(2)
C21 C 0.0426(5) 0.78836(18) 0.3131(2)
H8 H 0.0088 0.8143 0.2994
C22 C 0.0327(5) 0.75031(17) 0.27893(19)
C23 C 0.0845(5) 0.71208(17) 0.3003(2)
H9 H 0.0789 0.6863 0.2780
C24 C 0.1105(5) 0.83033(19) 0.4042(2)
Li4_2 Li 1.0000 0.4454(5) 0.7500
Zn6 Zn 0.74036(5) 0.581487(19) 0.16167(2)
Zn7 Zn 0.74036(5) 0.418513(19) 0.66167(2)
Zn11 Zn 0.18334(5) 0.870077(19) 0.51481(2)
O27 O 0.3095(3) 0.57578(12) 0.25963(13)
O31 O 0.9550(3) 0.52096(15) 0.17660(17)
O32 O 0.2115(3) 0.52814(12) 0.37110(15)
O34 O 0.3437(3) 0.67464(12) 0.54520(13)
O13 O 0.7374(3) 0.67227(11) 0.07685(13)
O14 O 0.8215(3) 0.63505(12) 0.15233(15)
O15 O 0.8437(3) 0.82536(12) 0.04520(13)
O16 O 0.9240(4) 0.86573(13) 0.11662(18)
C25 C 0.8016(4) 0.66943(18) 0.1229(2)
C26 C 0.8544(5) 0.71149(17) 0.1447(2)
C27 C 0.8479(5) 0.74944(17) 0.11125(19)
H10 H 0.8099 0.7490 0.0744
C28 C 0.8972(5) 0.78820(17) 0.1320(2)
C29 C 0.9574(5) 0.78836(18) 0.1869(2)
H11 H 0.9912 0.8143 0.2006
C30 C 0.9673(5) 0.75031(17) 0.22107(19)
C31 C 0.9155(5) 0.71208(17) 0.1997(2)
H12 H 0.9211 0.6863 0.2220
C32 C 0.8895(5) 0.83033(19) 0.0958(2)
Zn4 Zn 0.68334(5) 0.629923(19) 0.01481(2)
O17 O 0.5420(3) 0.60313(13) 0.03045(14)
O18 O 0.5890(3) 0.59016(14) 0.12458(16)
C33 C 0.5203(4) 0.59222(17) 0.0810(2)
C34 C 0.4043(4) 0.58427(17) 0.09026(19)
C35 C 0.3746(4) 0.58508(16) 0.14716(19)
H13 H 0.4266 0.5909 0.1781
C36 C 0.2637(4) 0.57685(17) 0.15741(18)
C37 C 0.1866(4) 0.56883(17) 0.11101(19)
H14 H 0.1138 0.5642 0.1179
C38 C 0.2177(4) 0.56757(16) 0.05361(18)
C39 C 0.3258(4) 0.57598(16) 0.04438(19)
H15 H 0.3464 0.5761 0.0064
C40 C 0.2314(4) 0.57847(17) 0.2190(2)
C41 C 0.1332(4) 0.55630(16) 0.00438(19)
C42 C 0.0263(4) 0.56933(17) 0.0052(2)
H16 H 0.0056 0.5859 0.0365
O29 O 0.8098(3) 0.59433(13) 0.00883(16)
O33 O 0.7885(3) 0.52814(12) 0.12890(15)
O23 O 0.0450(3) 0.47904(15) 0.82340(17)
O24 O 0.2115(3) 0.47186(12) 0.87110(15)
C45 C 0.0823(4) 0.51833(16) 0.91293(19)
C46 C 0.1620(4) 0.52990(16) 0.95810(18)
H18 H 0.2337 0.5200 0.9572
C48 C 0.1148(5) 0.48705(18) 0.8654(2)
Zn8 Zn 0.25964(5) 0.418513(19) 0.83833(2)
Zn12 Zn 0.81666(5) 0.870077(19) 0.98519(2)
O35 O 0.6563(3) 0.67464(12) 0.95480(13)
O22 O 0.7609(3) 0.56423(18) 0.9227(2)
C43 C 0.9483(4) 0.55835(16) 0.9601(2)
C44 C 0.9759(4) 0.53234(17) 0.9137(2)
H17 H 0.9234 0.5246 0.8838
C47 C 0.8284(4) 0.57300(19) 0.9638(2)
Li1_3 Li 0.5000 0.0546(5) 0.2500
O3_2 O 0.3671(3) 0.08201(13) 0.27184(14)
O4_2 O 0.1905(3) 0.07578(12) 0.24037(13)
O5_2 O 0.6902(3) 0.09433(13) 0.49117(16)
O6_2 O 0.7391(3) 0.06423(18) 0.5773(2)
C2_2 C 0.0957(4) 0.08427(17) 0.40974(19)
C3_2 C 0.1254(4) 0.08508(16) 0.35284(19)
H1_2 H 0.0734 0.0909 0.3219
C4_2 C 0.2363(4) 0.07685(17) 0.34259(18)
C5_2 C 0.3134(4) 0.06883(17) 0.38899(19)
H2_2 H 0.3862 0.0642 0.3821
C6_2 C 0.2823(4) 0.06757(16) 0.44639(18)
C7_2 C 0.1742(4) 0.07598(16) 0.45562(19)
H3_2 H 0.1536 0.0761 0.4936
C8_2 C 0.2686(4) 0.07847(17) 0.2810(2)
C9_2 C 0.3668(4) 0.05630(16) 0.49562(19)
C10_2 C 0.4737(4) 0.06933(17) 0.4948(2)
H4_2 H 0.4944 0.0859 0.4635
C11_2 C 0.5517(4) 0.05835(16) 0.5399(2)
C12_2 C 0.5241(4) 0.03234(17) 0.5863(2)
H5_2 H 0.5766 0.0246 0.6162
C13_2 C 0.4177(4) 0.01833(16) 0.58707(19)
C14_2 C 0.3380(4) 0.02990(16) 0.54190(18)
H6_2 H 0.2663 0.0200 0.5428
C15_2 C 0.6716(4) 0.07300(19) 0.5362(2)
Zn6_2 Zn 0.24036(5) 0.081487(19) 0.16167(2)
Zn9_2 Zn 0.81666(5) 0.129923(19) 0.48519(2)
O25_2 O 0.6329(3) 0.08201(13) 0.22816(14)
O30_2 O 0.5450(3) 0.02096(15) 0.32340(17)
O31_2 O 0.4550(3) 0.02096(15) 0.17660(17)
O7_2 O 0.4550(3) 0.97904(15) 0.67660(17)
O8_2 O 0.2885(3) 0.97186(12) 0.62890(15)
C16_2 C 0.3852(5) 0.98705(18) 0.6346(2)
Li4_3 Li 0.5000 0.9454(5) 0.7500
Zn7_2 Zn 0.24036(5) 0.918513(19) 0.66167(2)
Zn1_2 Zn 0.75964(5) 0.081487(19) 0.33833(2)
O1_2 O 0.9580(3) 0.10313(13) 0.46955(14)
O2_2 O 0.9110(3) 0.09016(14) 0.37542(16)
O9_2 O 0.7626(3) 0.17227(11) 0.42315(13)
O10_2 O 0.6785(3) 0.13505(12) 0.34767(15)
O11_2 O 0.6563(3) 0.32536(12) 0.45480(13)
O12_2 O 0.5760(4) 0.36573(13) 0.38338(18)
C1_2 C 0.9797(4) 0.09222(17) 0.4190(2)
C17_2 C 0.6984(4) 0.16943(18) 0.3771(2)
C18_2 C 0.6456(5) 0.21149(17) 0.3553(2)
C19_2 C 0.6521(5) 0.24944(17) 0.38875(19)
H7_2 H 0.6901 0.2490 0.4256
C20_2 C 0.6028(5) 0.28820(17) 0.3680(2)
C21_2 C 0.5426(5) 0.28836(18) 0.3131(2)
H8_2 H 0.5088 0.3143 0.2994
C22_2 C 0.5327(5) 0.25031(17) 0.27893(19)
C23_2 C 0.5845(5) 0.21208(17) 0.3003(2)
H9_2 H 0.5789 0.1863 0.2780
C24_2 C 0.6105(5) 0.33033(19) 0.4042(2)
O13_2 O 0.2374(3) 0.17227(11) 0.07685(13)
O14_2 O 0.3215(3) 0.13505(12) 0.15233(15)
O15_2 O 0.3437(3) 0.32536(12) 0.04520(13)
O16_2 O 0.4240(4) 0.36573(13) 0.11662(18)
C25_2 C 0.3016(4) 0.16943(18) 0.1229(2)
C26_2 C 0.3544(5) 0.21149(17) 0.1447(2)
C27_2 C 0.3479(5) 0.24944(17) 0.11125(19)
H10_2 H 0.3099 0.2490 0.0744
C28_2 C 0.3972(5) 0.28820(17) 0.1320(2)
C29_2 C 0.4574(5) 0.28836(18) 0.1869(2)
H11_2 H 0.4912 0.3143 0.2006
C30_2 C 0.4673(5) 0.25031(17) 0.22107(19)
C31_2 C 0.4155(5) 0.21208(17) 0.1997(2)
H12_2 H 0.4211 0.1863 0.2220
C32_2 C 0.3895(5) 0.33033(19) 0.0958(2)
Zn4_2 Zn 0.18334(5) 0.129923(19) 0.01481(2)
O17_2 O 0.0420(3) 0.10313(13) 0.03045(14)
O18_2 O 0.0890(3) 0.09016(14) 0.12458(16)
C33_2 C 0.0203(4) 0.09222(17) 0.0810(2)
Zn11_2 Zn 0.68334(5) 0.370077(19) 0.51481(2)
O27_2 O 0.8095(3) 0.07578(12) 0.25963(13)
O29_2 O 0.3098(3) 0.09433(13) 0.00883(16)
O32_2 O 0.7115(3) 0.02814(12) 0.37110(15)
O33_2 O 0.2885(3) 0.02814(12) 0.12890(15)
O34_2 O 0.8437(3) 0.17464(12) 0.54520(13)
Zn12_2 Zn 0.31666(5) 0.370077(19) 0.98519(2)
O35_2 O 0.1563(3) 0.17464(12) 0.95480(13)
C34_2 C 0.9043(4) 0.08427(17) 0.09026(19)
C35_2 C 0.8746(4) 0.08508(16) 0.14716(19)
H13_2 H 0.9266 0.0909 0.1781
C36_2 C 0.7637(4) 0.07685(17) 0.15741(18)
C37_2 C 0.6866(4) 0.06883(17) 0.11101(19)
H14_2 H 0.6138 0.0642 0.1179
C38_2 C 0.7177(4) 0.06757(16) 0.05361(18)
C39_2 C 0.8258(4) 0.07598(16) 0.04438(19)
H15_2 H 0.8464 0.0761 0.0064
C40_2 C 0.7314(4) 0.07847(17) 0.2190(2)
C41_2 C 0.6332(4) 0.05630(16) 0.00438(19)
C42_2 C 0.5263(4) 0.06933(17) 0.0052(2)
H16_2 H 0.5056 0.0859 0.0365
O23_2 O 0.5450(3) 0.97904(15) 0.82340(17)
O24_2 O 0.7115(3) 0.97186(12) 0.87110(15)
C48_2 C 0.6148(5) 0.98705(18) 0.8654(2)
Zn8_2 Zn 0.75964(5) 0.918513(19) 0.83833(2)
O22_2 O 0.2391(3) 0.43577(18) 0.0773(2)
C43_2 C 0.0517(4) 0.44165(16) 0.0399(2)
C44_2 C 0.0241(4) 0.46766(17) 0.0863(2)
H17_2 H 0.0766 0.4754 0.1162
C47_2 C 0.1716(4) 0.42700(19) 0.0362(2)
O21 O 0.1902(3) 0.40567(13) 0.99117(16)
C45_2 C 0.9177(4) 0.48167(16) 0.08707(19)
C46_2 C 0.8380(4) 0.47010(16) 0.04190(18)
H18_2 H 0.7663 0.4800 0.0428
C48_3 C 0.8852(5) 0.51295(18) 0.1346(2)
O13_3 O 0.2626(3) 0.32773(11) 0.92315(13)
O14_3 O 0.1785(3) 0.36495(12) 0.84767(15)
O16_3 O 0.0760(4) 0.13427(13) 0.88338(18)
C25_3 C 0.1984(4) 0.33057(18) 0.8771(2)
C26_3 C 0.1456(5) 0.28851(17) 0.8553(2)
C27_3 C 0.1521(5) 0.25056(17) 0.88875(19)
H10_3 H 0.1901 0.2510 0.9256
C28_3 C 0.1028(5) 0.21180(17) 0.8680(2)
C29_3 C 0.0426(5) 0.21164(18) 0.8131(2)
H11_3 H 0.0088 0.1857 0.7994
C30_3 C 0.0327(5) 0.24969(17) 0.77893(19)
C31_3 C 0.0845(5) 0.28792(17) 0.8003(2)
H12_3 H 0.0789 0.3137 0.7780
C32_3 C 0.1105(5) 0.16967(19) 0.9042(2)
O17_3 O 0.4580(3) 0.39687(13) 0.96955(14)
O18_3 O 0.4110(3) 0.40984(14) 0.87542(16)
O19 O 0.8671(3) 0.41799(13) 0.77184(14)
O20 O 0.6905(3) 0.42422(12) 0.74037(13)
C33_3 C 0.4797(4) 0.40778(17) 0.9190(2)
C34_3 C 0.5957(4) 0.41573(17) 0.90974(19)
C35_3 C 0.6254(4) 0.41492(16) 0.85284(19)
H13_3 H 0.5734 0.4091 0.8219
C36_3 C 0.7363(4) 0.42315(17) 0.84259(18)
C37_3 C 0.8134(4) 0.43117(17) 0.88899(19)
H14_3 H 0.8862 0.4358 0.8821
C38_3 C 0.7823(4) 0.43243(16) 0.94639(18)
C39_3 C 0.6742(4) 0.42402(16) 0.95562(19)
H15_3 H 0.6536 0.4239 0.9936
C40_3 C 0.7686(4) 0.42153(17) 0.7810(2)
C41_3 C 0.8668(4) 0.44370(16) 0.99562(19)
C42_3 C 0.9737(4) 0.43067(17) 0.9948(2)
H16_3 H 0.9944 0.4141 0.9635
O26 O 0.3095(3) 0.42422(12) 0.75963(13)
O1_3 O 0.5420(3) 0.39687(13) 0.53045(14)
O2_3 O 0.5890(3) 0.40984(14) 0.62458(16)
O3_3 O 0.1329(3) 0.41799(13) 0.72816(14)
O9_3 O 0.7374(3) 0.32773(11) 0.57685(13)
O10_3 O 0.8215(3) 0.36495(12) 0.65233(15)
O12_3 O 0.9240(4) 0.13427(13) 0.61662(18)
C1_3 C 0.5203(4) 0.40778(17) 0.5810(2)
C2_3 C 0.4043(4) 0.41573(17) 0.59026(19)
C3_3 C 0.3746(4) 0.41492(16) 0.64716(19)
H1_3 H 0.4266 0.4091 0.6781
C4_3 C 0.2637(4) 0.42315(17) 0.65741(18)
C5_3 C 0.1866(4) 0.43117(17) 0.61101(19)
H2_3 H 0.1138 0.4358 0.6179
C6_3 C 0.2177(4) 0.43243(16) 0.55361(18)
C7_3 C 0.3258(4) 0.42402(16) 0.54438(19)
H3_3 H 0.3464 0.4239 0.5064
C8_3 C 0.2314(4) 0.42153(17) 0.7190(2)
C9_3 C 0.1332(4) 0.44370(16) 0.50438(19)
C10_3 C 0.0263(4) 0.43067(17) 0.5052(2)
H4_3 H 0.0056 0.4141 0.5365
C13_3 C 0.0823(4) 0.48167(16) 0.41293(19)
C14_3 C 0.1620(4) 0.47010(16) 0.45810(18)
H6_3 H 0.2337 0.4800 0.4572
C16_3 C 0.1148(5) 0.51295(18) 0.3654(2)
C17_3 C 0.8016(4) 0.33057(18) 0.6229(2)
C18_3 C 0.8544(5) 0.28851(17) 0.6447(2)
C19_3 C 0.8479(5) 0.25056(17) 0.61125(19)
H7_3 H 0.8099 0.2510 0.5744
C20_3 C 0.8972(5) 0.21180(17) 0.6320(2)
C21_3 C 0.9574(5) 0.21164(18) 0.6869(2)
H8_3 H 0.9912 0.1857 0.7006
C22_3 C 0.9673(5) 0.24969(17) 0.72107(19)
C23_3 C 0.9155(5) 0.28792(17) 0.6997(2)
H9_3 H 0.9211 0.3137 0.7220
C24_3 C 0.8895(5) 0.16967(19) 0.5958(2)
O28 O 0.8098(3) 0.40567(13) 0.50883(16)
O6_3 O 0.7609(3) 0.43577(18) 0.4227(2)
C11_3 C 0.9483(4) 0.44165(16) 0.4601(2)
C12_3 C 0.9759(4) 0.46766(17) 0.4137(2)
H5_3 H 0.9234 0.4754 0.3838
C15_3 C 0.8284(4) 0.42700(19) 0.4638(2)
C48_4 C 0.3852(5) 0.01295(18) 0.1346(2)
O19_2 O 0.3671(3) 0.91799(13) 0.77184(14)
O20_2 O 0.1905(3) 0.92422(12) 0.74037(13)
O21_2 O 0.6902(3) 0.90567(13) 0.99117(16)
C34_4 C 0.0957(4) 0.91573(17) 0.90974(19)
C35_4 C 0.1254(4) 0.91492(16) 0.85284(19)
H13_4 H 0.0734 0.9091 0.8219
C36_4 C 0.2363(4) 0.92315(17) 0.84259(18)
C37_4 C 0.3134(4) 0.93117(17) 0.88899(19)
H14_4 H 0.3862 0.9358 0.8821
C38_4 C 0.2823(4) 0.93243(16) 0.94639(18)
C39_4 C 0.1742(4) 0.92402(16) 0.95562(19)
H15_4 H 0.1536 0.9239 0.9936
C40_4 C 0.2686(4) 0.92153(17) 0.7810(2)
C41_4 C 0.3668(4) 0.94370(16) 0.99562(19)
C42_4 C 0.4737(4) 0.93067(17) 0.9948(2)
H16_4 H 0.4944 0.9141 0.9635
O1_4 O 0.0420(3) 0.89687(13) 0.53045(14)
O2_4 O 0.0890(3) 0.90984(14) 0.62458(16)
O9_4 O 0.2374(3) 0.82773(11) 0.57685(13)
O10_4 O 0.3215(3) 0.86495(12) 0.65233(15)
O12_4 O 0.4240(4) 0.63427(13) 0.61662(18)
C1_4 C 0.0203(4) 0.90778(17) 0.5810(2)
C17_4 C 0.3016(4) 0.83057(18) 0.6229(2)
C18_4 C 0.3544(5) 0.78851(17) 0.6447(2)
C19_4 C 0.3479(5) 0.75056(17) 0.61125(19)
H7_4 H 0.3099 0.7510 0.5744
C20_4 C 0.3972(5) 0.71180(17) 0.6320(2)
C21_4 C 0.4574(5) 0.71164(18) 0.6869(2)
H8_4 H 0.4912 0.6857 0.7006
C22_4 C 0.4673(5) 0.74969(17) 0.72107(19)
C23_4 C 0.4155(5) 0.78792(17) 0.6997(2)
H9_4 H 0.4211 0.8137 0.7220
C24_4 C 0.3895(5) 0.66967(19) 0.5958(2)
O13_4 O 0.7626(3) 0.82773(11) 0.92315(13)
O14_4 O 0.6785(3) 0.86495(12) 0.84767(15)
O16_4 O 0.5760(4) 0.63427(13) 0.88338(18)
C25_4 C 0.6984(4) 0.83057(18) 0.8771(2)
C26_4 C 0.6456(5) 0.78851(17) 0.8553(2)
C27_4 C 0.6521(5) 0.75056(17) 0.88875(19)
H10_4 H 0.6901 0.7510 0.9256
C28_4 C 0.6028(5) 0.71180(17) 0.8680(2)
C29_4 C 0.5426(5) 0.71164(18) 0.8131(2)
H11_4 H 0.5088 0.6857 0.7994
C30_4 C 0.5327(5) 0.74969(17) 0.77893(19)
C31_4 C 0.5845(5) 0.78792(17) 0.8003(2)
H12_4 H 0.5789 0.8137 0.7780
C32_4 C 0.6105(5) 0.66967(19) 0.9042(2)
O17_4 O 0.9580(3) 0.89687(13) 0.96955(14)
O18_4 O 0.9110(3) 0.90984(14) 0.87542(16)
C33_4 C 0.9797(4) 0.90778(17) 0.9190(2)
O26_2 O 0.8095(3) 0.92422(12) 0.75963(13)
O28_2 O 0.3098(3) 0.90567(13) 0.50883(16)
C16_4 C 0.6148(5) 0.01295(18) 0.3654(2)
O3_4 O 0.6329(3) 0.91799(13) 0.72816(14)
O6_4 O 0.2609(3) 0.93577(18) 0.4227(2)
C2_4 C 0.9043(4) 0.91573(17) 0.59026(19)
C3_4 C 0.8746(4) 0.91492(16) 0.64716(19)
H1_4 H 0.9266 0.9091 0.6781
C4_4 C 0.7637(4) 0.92315(17) 0.65741(18)
C5_4 C 0.6866(4) 0.93117(17) 0.61101(19)
H2_4 H 0.6138 0.9358 0.6179
C6_4 C 0.7177(4) 0.93243(16) 0.55361(18)
C7_4 C 0.8258(4) 0.92402(16) 0.54438(19)
H3_4 H 0.8464 0.9239 0.5064
C8_4 C 0.7314(4) 0.92153(17) 0.7190(2)
C9_4 C 0.6332(4) 0.94370(16) 0.50438(19)
C10_4 C 0.5263(4) 0.93067(17) 0.5052(2)
H4_4 H 0.5056 0.9141 0.5365
C11_4 C 0.4483(4) 0.94165(16) 0.4601(2)
C12_4 C 0.4759(4) 0.96766(17) 0.4137(2)
H5_4 H 0.4234 0.9754 0.3838
C13_4 C 0.5823(4) 0.98167(16) 0.41293(19)
C14_4 C 0.6620(4) 0.97010(16) 0.45810(18)
H6_4 H 0.7337 0.9800 0.4572
C15_4 C 0.3284(4) 0.92700(19) 0.4638(2)
O22_3 O 0.2609(3) 0.06423(18) 0.9227(2)
C43_3 C 0.4483(4) 0.05835(16) 0.9601(2)
C44_3 C 0.4759(4) 0.03234(17) 0.9137(2)
H17_3 H 0.4234 0.0246 0.8838
C45_3 C 0.5823(4) 0.01833(16) 0.91293(19)
C46_3 C 0.6620(4) 0.02990(16) 0.95810(18)
H18_3 H 0.7337 0.0200 0.9572
C47_3 C 0.3284(4) 0.07300(19) 0.9638(2)
O22_4 O 0.7391(3) 0.93577(18) 0.0773(2)
C43_4 C 0.5517(4) 0.94165(16) 0.0399(2)
C44_4 C 0.5241(4) 0.96766(17) 0.0863(2)
H17_4 H 0.5766 0.9754 0.1162
C45_4 C 0.4177(4) 0.98167(16) 0.08707(19)
C46_4 C 0.3380(4) 0.97010(16) 0.04190(18)
H18_4 H 0.2663 0.9800 0.0428
C47_4 C 0.6716(4) 0.92700(19) 0.0362(2)
loop_
_geom_bond_atom_site_label_1
_geom_bond_atom_site_label_2
_geom_bond_site_symmetry_1
_geom_bond_site_symmetry_2
O5 C15 1_555 1_555
O6 C15 1_555 1_555
C12 C11 1_555 1_555
H5 C12 1_555 1_555
C15 C11 1_555 1_555
Zn9 O5 1_555 1_555
O25 Li1 1_555 1_555
O30 Li1 1_555 1_555
Li1_2 O3 1_555 1_555
Zn1 O2 1_555 1_555
Zn9 O1 1_555 1_555
O1 C1 1_555 1_555
O2 C1 1_555 1_555
O3 C8 1_555 1_555
O4 C8 1_555 1_555
O7 C16 1_555 1_555
O8 C16 1_555 1_555
O9 Zn9 1_555 1_555
O10 Zn1 1_555 1_555
O11 C24 1_555 1_555
O12 C24 1_555 1_555
C1 C2 1_555 1_555
C2 C3 1_555 1_555
C3 H1 1_555 1_555
C4 C3 1_555 1_555
C5 C4 1_555 1_555
H2 C5 1_555 1_555
C6 C5 1_555 1_555
C7 C2 1_555 1_555
H3 C7 1_555 1_555
C8 C4 1_555 1_555
C9 C6 1_555 1_555
C10 C9 1_555 1_555
H4 C10 1_555 1_555
C14 C9 1_555 1_555
H6 C14 1_555 1_555
C16 C13 1_555 1_555
C17 O9 1_555 1_555
C18 C17 1_555 1_555
C19 C18 1_555 1_555
H7 C19 1_555 1_555
C20 C19 1_555 1_555
C21 C20 1_555 1_555
H8 C21 1_555 1_555
C22 C21 1_555 1_555
C23 C18 1_555 1_555
H9 C23 1_555 1_555
C24 C20 1_555 1_555
Li4_2 O7 1_555 1_555
Zn6 O4 1_555 1_555
Zn7 O8 1_555 1_555
Zn11 O11 1_555 1_555
O27 Zn1 1_555 1_555
O31 Li1_2 1_555 1_555
O32 Zn1 1_555 1_555
O34 Zn9 1_555 1_555
O10 C17 1_555 1_555
C6 C7 1_555 1_555
C13 C14 1_555 1_555
C22 C23 1_555 1_555
O13 C25 1_555 1_555
O14 C25 1_555 1_555
O15 C32 1_555 1_555
O16 C32 1_555 1_555
C25 C26 1_555 1_555
C26 C27 1_555 1_555
C27 H10 1_555 1_555
C28 C27 1_555 1_555
C29 C28 1_555 1_555
H11 C29 1_555 1_555
C31 C26 1_555 1_555
H12 C31 1_555 1_555
C32 C28 1_555 1_555
Zn6 O14 1_555 1_555
Zn4 O13 1_555 1_555
O17 Zn4 1_555 1_555
O18 Zn6 1_555 1_555
O25 C40 1_555 1_555
O27 C40 1_555 1_555
C33 O17 1_555 1_555
C34 C33 1_555 1_555
C35 C34 1_555 1_555
H13 C35 1_555 1_555
C36 C35 1_555 1_555
C37 C36 1_555 1_555
H14 C37 1_555 1_555
C38 C37 1_555 1_555
C39 C34 1_555 1_555
H15 C39 1_555 1_555
C40 C36 1_555 1_555
C41 C38 1_555 1_555
C42 C41 1_555 1_555
H16 C42 1_555 1_555
O29 Zn4 1_555 1_555
O33 Zn6 1_555 1_555
C29 C30 1_555 1_555
C30 C31 1_555 1_555
O18 C33 1_555 1_555
C38 C39 1_555 1_555
O23 C48 1_555 1_555
O24 C48 1_555 1_555
H18 C46 1_555 1_555
C48 C45 1_555 1_555
Li4 O23 1_555 1_555
Zn8 O24 1_555 1_555
C45 C46 1_555 1_555
O22 C47 1_555 1_555
C44 C43 1_555 1_555
H17 C44 1_555 1_555
C47 C43 1_555 1_555
Li1_3 O3_2 1_555 1_555
O3_2 C8_2 1_555 1_555
O4_2 C8_2 1_555 1_555
O5_2 C15_2 1_555 1_555
O6_2 C15_2 1_555 1_555
C2_2 C3_2 1_555 1_555
C3_2 H1_2 1_555 1_555
C4_2 C3_2 1_555 1_555
C5_2 C4_2 1_555 1_555
H2_2 C5_2 1_555 1_555
C6_2 C5_2 1_555 1_555
C7_2 C2_2 1_555 1_555
H3_2 C7_2 1_555 1_555
C8_2 C4_2 1_555 1_555
C9_2 C6_2 1_555 1_555
C10_2 C9_2 1_555 1_555
H4_2 C10_2 1_555 1_555
C11_2 C10_2 1_555 1_555
C12_2 C11_2 1_555 1_555
H5_2 C12_2 1_555 1_555
C13_2 C12_2 1_555 1_555
C14_2 C9_2 1_555 1_555
H6_2 C14_2 1_555 1_555
C15_2 C11_2 1_555 1_555
Zn6_2 O4_2 1_555 1_555
Zn9_2 O5_2 1_555 1_555
O25_2 Li1_3 1_555 1_555
O30_2 Li1_3 1_555 1_555
O31_2 Li1_3 1_555 1_555
C6_2 C7_2 1_555 1_555
C13_2 C14_2 1_555 1_555
O7_2 C16_2 1_555 1_555
O8_2 C16_2 1_555 1_555
Li4_3 O7_2 1_555 1_555
Zn7_2 O8_2 1_555 1_555
Zn1_2 O2_2 1_555 1_555
Zn9_2 O1_2 1_555 1_555
O1_2 C1_2 1_555 1_555
O2_2 C1_2 1_555 1_555
O9_2 Zn9_2 1_555 1_555
O10_2 Zn1_2 1_555 1_555
O11_2 C24_2 1_555 1_555
O12_2 C24_2 1_555 1_555
C17_2 O9_2 1_555 1_555
C18_2 C17_2 1_555 1_555
C19_2 C18_2 1_555 1_555
H7_2 C19_2 1_555 1_555
C20_2 C19_2 1_555 1_555
C21_2 C20_2 1_555 1_555
H8_2 C21_2 1_555 1_555
C22_2 C21_2 1_555 1_555
C23_2 C18_2 1_555 1_555
H9_2 C23_2 1_555 1_555
C24_2 C20_2 1_555 1_555
O13_2 C25_2 1_555 1_555
O14_2 C25_2 1_555 1_555
O15_2 C32_2 1_555 1_555
O16_2 C32_2 1_555 1_555
C25_2 C26_2 1_555 1_555
C26_2 C27_2 1_555 1_555
C27_2 H10_2 1_555 1_555
C28_2 C27_2 1_555 1_555
C29_2 C28_2 1_555 1_555
H11_2 C29_2 1_555 1_555
C30_2 C22_2 1_555 1_555
C31_2 C26_2 1_555 1_555
H12_2 C31_2 1_555 1_555
C32_2 C28_2 1_555 1_555
Zn6_2 O14_2 1_555 1_555
Zn4_2 O13_2 1_555 1_555
O17_2 Zn4_2 1_555 1_555
O18_2 Zn6_2 1_555 1_555
C33_2 O17_2 1_555 1_555
Zn11_2 O11_2 1_555 1_555
O27_2 Zn1_2 1_555 1_555
O29_2 Zn4_2 1_555 1_555
O32_2 Zn1_2 1_555 1_555
O33_2 Zn6_2 1_555 1_555
O34_2 Zn9_2 1_555 1_555
O10_2 C17_2 1_555 1_555
C22_2 C23_2 1_555 1_555
C29_2 C30_2 1_555 1_555
C30_2 C31_2 1_555 1_555
O18_2 C33_2 1_555 1_555
O25_2 C40_2 1_555 1_555
O27_2 C40_2 1_555 1_555
C35_2 C34_2 1_555 1_555
H13_2 C35_2 1_555 1_555
C36_2 C35_2 1_555 1_555
C37_2 C36_2 1_555 1_555
H14_2 C37_2 1_555 1_555
C38_2 C37_2 1_555 1_555
C39_2 C34_2 1_555 1_555
H15_2 C39_2 1_555 1_555
C40_2 C36_2 1_555 1_555
C41_2 C38_2 1_555 1_555
C42_2 C41_2 1_555 1_555
H16_2 C42_2 1_555 1_555
C38_2 C39_2 1_555 1_555
O23_2 C48_2 1_555 1_555
O24_2 C48_2 1_555 1_555
Li4_3 O23_2 1_555 1_555
Zn8_2 O24_2 1_555 1_555
O22_2 C47_2 1_555 1_555
C44_2 C43_2 1_555 1_555
H17_2 C44_2 1_555 1_555
C47_2 C43_2 1_555 1_555
Zn12_2 O21 1_555 1_555
O31 C48_3 1_555 1_555
O33 C48_3 1_555 1_555
H18_2 C46_2 1_555 1_555
C48_3 C45_2 1_555 1_555
C45_2 C46_2 1_555 1_555
O13_3 C25_3 1_555 1_555
O14_3 C25_3 1_555 1_555
O35_2 C32_3 1_555 1_555
O16_3 C32_3 1_555 1_555
C25_3 C26_3 1_555 1_555
C26_3 C27_3 1_555 1_555
C27_3 H10_3 1_555 1_555
C28_3 C27_3 1_555 1_555
C29_3 C28_3 1_555 1_555
H11_3 C29_3 1_555 1_555
C31_3 C26_3 1_555 1_555
H12_3 C31_3 1_555 1_555
C32_3 C28_3 1_555 1_555
Zn8 O14_3 1_555 1_555
Zn12_2 O13_3 1_555 1_555
O17_3 Zn12_2 1_555 1_555
O18_3 Zn8 1_555 1_555
O19 C40_3 1_555 1_555
O20 C40_3 1_555 1_555
C33_3 O17_3 1_555 1_555
C34_3 C33_3 1_555 1_555
C35_3 C34_3 1_555 1_555
H13_3 C35_3 1_555 1_555
C36_3 C35_3 1_555 1_555
C37_3 C36_3 1_555 1_555
H14_3 C37_3 1_555 1_555
C38_3 C37_3 1_555 1_555
C39_3 C34_3 1_555 1_555
H15_3 C39_3 1_555 1_555
C40_3 C36_3 1_555 1_555
C41_3 C38_3 1_555 1_555
C42_3 C41_3 1_555 1_555
H16_3 C42_3 1_555 1_555
Li4_2 O19 1_555 1_555
Zn7 O20 1_555 1_555
O26 Zn8 1_555 1_555
C29_3 C30_3 1_555 1_555
C30_3 C31_3 1_555 1_555
O18_3 C33_3 1_555 1_555
C38_3 C39_3 1_555 1_555
Li4 O3_3 1_555 1_555
Zn7 O2_3 1_555 1_555
Zn11_2 O1_3 1_555 1_555
O1_3 C1_3 1_555 1_555
O2_3 C1_3 1_555 1_555
O3_3 C8_3 1_555 1_555
O26 C8_3 1_555 1_555
O30 C16_3 1_555 1_555
O32 C16_3 1_555 1_555
O9_3 Zn11_2 1_555 1_555
O10_3 Zn7 1_555 1_555
O34_2 C24_3 1_555 1_555
O12_3 C24_3 1_555 1_555
C1_3 C2_3 1_555 1_555
C2_3 C3_3 1_555 1_555
C3_3 H1_3 1_555 1_555
C4_3 C3_3 1_555 1_555
C5_3 C4_3 1_555 1_555
H2_3 C5_3 1_555 1_555
C6_3 C5_3 1_555 1_555
C7_3 C2_3 1_555 1_555
H3_3 C7_3 1_555 1_555
C8_3 C4_3 1_555 1_555
C9_3 C6_3 1_555 1_555
C10_3 C9_3 1_555 1_555
H4_3 C10_3 1_555 1_555
C14_3 C9_3 1_555 1_555
H6_3 C14_3 1_555 1_555
C16_3 C13_3 1_555 1_555
C17_3 O9_3 1_555 1_555
C18_3 C17_3 1_555 1_555
C19_3 C18_3 1_555 1_555
H7_3 C19_3 1_555 1_555
C20_3 C19_3 1_555 1_555
C21_3 C20_3 1_555 1_555
H8_3 C21_3 1_555 1_555
C22_3 C21_3 1_555 1_555
C23_3 C18_3 1_555 1_555
H9_3 C23_3 1_555 1_555
C24_3 C20_3 1_555 1_555
O28 Zn11_2 1_555 1_555
O10_3 C17_3 1_555 1_555
C6_3 C7_3 1_555 1_555
C13_3 C14_3 1_555 1_555
C22_3 C23_3 1_555 1_555
O28 C15_3 1_555 1_555
O6_3 C15_3 1_555 1_555
C12_3 C11_3 1_555 1_555
H5_3 C12_3 1_555 1_555
C15_3 C11_3 1_555 1_555
O31_2 C48_4 1_555 1_555
O33_2 C48_4 1_555 1_555
O19_2 C40_4 1_555 1_555
O20_2 C40_4 1_555 1_555
C35_4 C34_4 1_555 1_555
H13_4 C35_4 1_555 1_555
C36_4 C35_4 1_555 1_555
C37_4 C36_4 1_555 1_555
H14_4 C37_4 1_555 1_555
C38_4 C37_4 1_555 1_555
C39_4 C34_4 1_555 1_555
H15_4 C39_4 1_555 1_555
C40_4 C36_4 1_555 1_555
C41_4 C38_4 1_555 1_555
C42_4 C41_4 1_555 1_555
H16_4 C42_4 1_555 1_555
Li4_3 O19_2 1_555 1_555
Zn7_2 O20_2 1_555 1_555
Zn12 O21_2 1_555 1_555
C38_4 C39_4 1_555 1_555
Zn7_2 O2_4 1_555 1_555
Zn11 O1_4 1_555 1_555
O1_4 C1_4 1_555 1_555
O2_4 C1_4 1_555 1_555
O9_4 Zn11 1_555 1_555
O10_4 Zn7_2 1_555 1_555
O34 C24_4 1_555 1_555
O12_4 C24_4 1_555 1_555
C17_4 O9_4 1_555 1_555
C18_4 C17_4 1_555 1_555
C19_4 C18_4 1_555 1_555
H7_4 C19_4 1_555 1_555
C20_4 C19_4 1_555 1_555
C21_4 C20_4 1_555 1_555
H8_4 C21_4 1_555 1_555
C22_4 C21_4 1_555 1_555
C23_4 C18_4 1_555 1_555
H9_4 C23_4 1_555 1_555
C24_4 C20_4 1_555 1_555
O13_4 C25_4 1_555 1_555
O14_4 C25_4 1_555 1_555
O35 C32_4 1_555 1_555
O16_4 C32_4 1_555 1_555
C25_4 C26_4 1_555 1_555
C26_4 C27_4 1_555 1_555
C27_4 H10_4 1_555 1_555
C28_4 C27_4 1_555 1_555
C29_4 C28_4 1_555 1_555
H11_4 C29_4 1_555 1_555
C30_4 C22_4 1_555 1_555
C31_4 C26_4 1_555 1_555
H12_4 C31_4 1_555 1_555
C32_4 C28_4 1_555 1_555
Zn8_2 O14_4 1_555 1_555
Zn12 O13_4 1_555 1_555
O17_4 Zn12 1_555 1_555
O18_4 Zn8_2 1_555 1_555
C33_4 O17_4 1_555 1_555
O26_2 Zn8_2 1_555 1_555
O28_2 Zn11 1_555 1_555
O10_4 C17_4 1_555 1_555
C22_4 C23_4 1_555 1_555
C29_4 C30_4 1_555 1_555
C30_4 C31_4 1_555 1_555
O18_4 C33_4 1_555 1_555
O30_2 C16_4 1_555 1_555
O32_2 C16_4 1_555 1_555
Li4_3 O3_4 1_555 1_555
O3_4 C8_4 1_555 1_555
O26_2 C8_4 1_555 1_555
O28_2 C15_4 1_555 1_555
O6_4 C15_4 1_555 1_555
C2_4 C3_4 1_555 1_555
C3_4 H1_4 1_555 1_555
C4_4 C3_4 1_555 1_555
C5_4 C4_4 1_555 1_555
H2_4 C5_4 1_555 1_555
C6_4 C5_4 1_555 1_555
C7_4 C2_4 1_555 1_555
H3_4 C7_4 1_555 1_555
C8_4 C4_4 1_555 1_555
C9_4 C6_4 1_555 1_555
C10_4 C9_4 1_555 1_555
H4_4 C10_4 1_555 1_555
C11_4 C10_4 1_555 1_555
C12_4 C11_4 1_555 1_555
H5_4 C12_4 1_555 1_555
C13_4 C12_4 1_555 1_555
C14_4 C9_4 1_555 1_555
H6_4 C14_4 1_555 1_555
C15_4 C11_4 1_555 1_555
C6_4 C7_4 1_555 1_555
C13_4 C14_4 1_555 1_555
O22_3 C47_3 1_555 1_555
C44_3 C43_3 1_555 1_555
H17_3 C44_3 1_555 1_555
C45_3 C44_3 1_555 1_555
H18_3 C46_3 1_555 1_555
C47_3 C43_3 1_555 1_555
C45_3 C46_3 1_555 1_555
O22_4 C47_4 1_555 1_555
C44_4 C43_4 1_555 1_555
H17_4 C44_4 1_555 1_555
C45_4 C44_4 1_555 1_555
H18_4 C46_4 1_555 1_555
C47_4 C43_4 1_555 1_555
C45_4 C46_4 1_555 1_555

#END
