
###############################################################################
#
# This file contains modified crystal structure data generated from the
# MOF subset of the Cambridge Structural Database (CSD) v543 
# hosted by the Cambridge Crystallographic Data Centre (CCDC).
#
# This work is licensed under the Creative Commons
# Attribution-NonCommercial-ShareAlike 4.0 International License.
# To view a copy of this license, visit
# http://creativecommons.org/licenses/by-nc-sa/4.0/
# or send a letter to
# Creative Commons, PO Box 1866, Mountain View, CA 94042, USA.
#
# CIF created using the CSD Python API on 29 September 2022
# The structure has been converted into the P1 space group
# The structure has a 3D framework
# The original CSD entry HARNAR is in the monoclinic crystal system
# The framework has been calculated to contain at least 10.0% void space
# The void calculation uses a probe of radius 1.32A, grid spacing 0.4
#
###############################################################################

data_HARNAR
_chemical_formula_moiety         '(C136 H112 Ag27 N24 O40)n'
_symmetry_cell_setting           triclinic
_symmetry_space_group_name_H-M   'P 1'
_symmetry_Int_Tables_number      1
_space_group_name_Hall           'P 1'
loop_
_symmetry_equiv_pos_site_id
_symmetry_equiv_pos_as_xyz
1 x,y,z
_cell_length_a                   12.3937(7)
_cell_length_b                   19.3300(9)
_cell_length_c                   17.2992(7)
_cell_angle_alpha                90
_cell_angle_beta                 95.7500(10)
_cell_angle_gamma                90
_cell_volume                     4123.52
loop_
_atom_site_label
_atom_site_type_symbol
_atom_site_fract_x
_atom_site_fract_y
_atom_site_fract_z
Ag11 Ag 0.25234(3) 0.45417(2) 0.00409(2)
C35 C 0.0833(5) 0.7828(3) 0.5687(3)
H29 H 0.0506 0.7780 0.5170
C36 C 0.0227(5) 0.7687(3) 0.6284(3)
C37 C 0.0668(5) 0.7750(3) 0.7044(3)
C38 C 0.1733(6) 0.7965(3) 0.7175(3)
H31 H 0.2066 0.8021 0.7690
C39 C 0.2305(6) 0.8099(3) 0.6546(3)
H32 H 0.3038 0.8245 0.6644
N7 N 0.1880(4) 0.8034(3) 0.5802(3)
C54 C 0.0015(5) 0.7591(3) 0.7698(3)
C55 C 0.0535(5) 0.7403(3) 0.8418(3)
H47 H 0.1304 0.7400 0.8507
H48 H 0.0249 0.7080 0.9495
C57 C 0.0262(5) 0.4267(3) 0.9159(3)
C66 C 0.0812(5) 0.5364(3) 0.9028(3)
H55 H 0.0171 0.4075 0.7165
C68 C 0.0141(5) 0.5090(3) 0.7364(3)
H56 H 0.0700 0.5228 0.7059
N13 N 0.1092(4) 0.4727(2) 0.9330(3)
O17 O 0.1429(3) 0.5858(2) 0.9048(2)
O18 O 0.0314(3) 0.3655(2) 0.9339(2)
Ag8 Ag 0.28316(4) 0.80161(3) 0.48331(3)
Ag12 Ag 0.0000 0.5000 0.5000
C1 C 0.5833(5) 0.7172(3) 0.0687(3)
H1 H 0.5506 0.7220 0.0170
C2 C 0.5227(5) 0.7313(3) 0.1284(3)
H2 H 0.4494 0.7456 0.1174
C3 C 0.5668(5) 0.7250(3) 0.2044(3)
C4 C 0.6733(6) 0.7035(3) 0.2175(3)
H3 H 0.7066 0.6979 0.2690
C5 C 0.7305(6) 0.6901(3) 0.1546(3)
H4 H 0.8038 0.6755 0.1644
N1 N 0.6880(4) 0.6966(3) 0.0802(3)
C18 C 0.3326(5) 0.7585(3) 0.3215(3)
H17 H 0.2556 0.7582 0.3138
C19 C 0.3894(5) 0.7396(3) 0.2609(3)
H18 H 0.3519 0.7257 0.2128
C20 C 0.5015(5) 0.7409(3) 0.2698(3)
C21 C 0.5535(5) 0.7597(3) 0.3418(3)
H19 H 0.6304 0.7600 0.3507
C22 C 0.4895(6) 0.7783(3) 0.4007(3)
H20 H 0.5249 0.7920 0.4495
N4 N 0.3811(4) 0.7776(2) 0.3917(3)
N14 N 0.8908(4) 0.5273(2) 0.0670(3)
C6 C 0.5327(5) 0.5004(3) 0.9103(4)
C7 C 0.4299(5) 0.5237(3) 0.8641(3)
H5 H 0.3681 0.5221 0.8970
C8 C 0.4034(5) 0.4805(3) 0.7904(4)
H6 H 0.3914 0.4307 0.8028
C9 C 0.3004(5) 0.5139(3) 0.7475(3)
H7 H 0.2397 0.5127 0.7814
C10 C 0.2652(5) 0.4806(3) 0.6704(4)
C11 C 0.3031(5) 0.5899(3) 0.6382(3)
C12 C 0.3250(5) 0.5885(3) 0.7266(3)
H8 H 0.2746 0.6208 0.7504
C13 C 0.4438(5) 0.6068(3) 0.7542(3)
H9 H 0.4630 0.6547 0.7384
C14 C 0.4543(5) 0.5983(3) 0.8434(3)
H10 H 0.4026 0.6302 0.8664
C15 C 0.5680(5) 0.6099(3) 0.8818(3)
C16 C 0.4939(5) 0.4894(4) 0.7387(4)
H11 H 0.5330 0.4514 0.7205
C17 C 0.5139(5) 0.5532(3) 0.7213(3)
H12 H 0.5695 0.5652 0.6897
N2 N 0.6075(4) 0.5526(3) 0.9197(3)
N3 N 0.2707(4) 0.5270(3) 0.6103(3)
O1 O 0.0369(4) 0.3957(3) 0.5238(4)
O2 O 0.5266(4) 0.3948(3) 0.5270(4)
O3 O 0.3189(4) 0.6410(2) 0.5984(2)
O4 O 0.2346(4) 0.4214(3) 0.6611(3)
O5 O 0.5472(4) 0.4425(3) 0.9380(3)
O6 O 0.6171(4) 0.6647(2) 0.8787(2)
H13 H 0.563(6) 0.378(5) 0.492(4)
H14 H 0.467(4) 0.372(4) 0.526(5)
H15 H 0.092(4) 0.393(5) 0.558(3)
H16 H 0.056(6) 0.376(4) 0.483(3)
C24 C 0.0720(4) 0.5374(3) 0.1257(3)
H21 H 0.1344 0.5396 0.0933
C25 C 0.1062(4) 0.5669(3) 0.2079(3)
H22 H 0.1269 0.6168 0.2057
C26 C 0.2035(4) 0.5212(3) 0.2399(3)
H23 H 0.2634 0.5242 0.2054
C27 C 0.2443(4) 0.5416(3) 0.3229(3)
C28 C 0.1845(5) 0.4333(3) 0.3350(4)
C29 C 0.1674(4) 0.4467(3) 0.2480(3)
H24 H 0.2127 0.4147 0.2192
C30 C 0.0467(4) 0.4399(3) 0.2183(3)
H25 H 0.0200 0.3916 0.2246
C31 C 0.0347(4) 0.4621(3) 0.1329(3)
H26 H 0.0786 0.4310 0.1021
C33 C 0.0158(4) 0.5557(3) 0.2579(3)
N6 N 0.2305(4) 0.4892(3) 0.3730(3)
O9 O 0.2820(3) 0.5984(2) 0.3419(2)
O10 O 0.1592(4) 0.3794(2) 0.3655(2)
Ag1 Ag 0.78316(4) 0.69839(3) 0.98331(3)
Ag2 Ag 0.74766(3) 0.54583(2) 0.99591(2)
Ag3 Ag 0.5000 0.5000 0.5000
Ag5 Ag 0.25017(4) 0.50182(2) 0.49331(3)
H30 H 0.9494 0.7544 0.6174
C40 C 0.4673(5) 0.4996(3) 0.0897(4)
C41 C 0.5701(5) 0.4763(3) 0.1359(3)
H33 H 0.6319 0.4779 0.1030
C42 C 0.5966(5) 0.5195(3) 0.2096(4)
H34 H 0.6086 0.5693 0.1972
C43 C 0.6996(5) 0.4861(3) 0.2525(3)
H35 H 0.7603 0.4873 0.2186
C44 C 0.7348(5) 0.5194(3) 0.3296(4)
C45 C 0.6969(5) 0.4101(3) 0.3618(3)
C46 C 0.6750(5) 0.4115(3) 0.2734(3)
H36 H 0.7254 0.3792 0.2496
C47 C 0.5562(5) 0.3932(3) 0.2458(3)
H37 H 0.5370 0.3453 0.2616
C48 C 0.5457(5) 0.4017(3) 0.1566(3)
H38 H 0.5974 0.3698 0.1336
C49 C 0.4320(5) 0.3901(3) 0.1182(3)
C50 C 0.5061(5) 0.5106(4) 0.2613(4)
H39 H 0.4670 0.5486 0.2795
C51 C 0.4861(5) 0.4468(3) 0.2787(3)
H40 H 0.4305 0.4348 0.3103
N9 N 0.3925(4) 0.4474(3) 0.0803(3)
N10 N 0.7293(4) 0.4730(3) 0.3897(3)
O12 O 0.4734(4) 0.6052(3) 0.4730(4)
O13 O 0.6811(4) 0.3590(2) 0.4016(2)
O14 O 0.7654(4) 0.5786(3) 0.3389(3)
O15 O 0.4528(4) 0.5575(3) 0.0620(3)
O16 O 0.3829(4) 0.3353(2) 0.1213(2)
H41 H 0.437(6) 0.622(5) 0.508(4)
H42 H 0.533(4) 0.628(4) 0.474(5)
C52 C 0.8326(5) 0.7415(3) 0.8215(3)
H45 H 0.7556 0.7418 0.8138
C53 C 0.8894(5) 0.7604(3) 0.7609(3)
H46 H 0.8519 0.7743 0.7128
C56 C 0.9895(6) 0.7217(3) 0.9007(3)
C58 C 0.9280(4) 0.4626(3) 0.8743(3)
H49 H 0.8656 0.4604 0.9067
C59 C 0.8938(4) 0.4331(3) 0.7921(3)
H50 H 0.8731 0.3832 0.7943
C60 C 0.7965(4) 0.4788(3) 0.7601(3)
H51 H 0.7366 0.4758 0.7946
C61 C 0.7557(4) 0.4584(3) 0.6771(3)
C62 C 0.8155(5) 0.5667(3) 0.6650(4)
C63 C 0.8326(4) 0.5533(3) 0.7520(3)
H52 H 0.7873 0.5853 0.7808
C64 C 0.9533(4) 0.5601(3) 0.7817(3)
H53 H 0.9800 0.6084 0.7754
C65 C 0.9653(4) 0.5379(3) 0.8671(3)
H54 H 0.9214 0.5690 0.8979
C67 C 0.9842(4) 0.4443(3) 0.7421(3)
N11 N 0.8811(4) 0.7224(2) 0.8917(3)
N12 N 0.1189(4) 0.2776(2) 0.1083(3)
N16 N 0.7695(4) 0.5108(3) 0.6270(3)
O19 O 0.7180(3) 0.4016(2) 0.6581(2)
O20 O 0.8408(4) 0.6206(2) 0.6345(2)
Ag6 Ag 0.21684(4) 0.30161(3) 0.01669(3)
Ag12_2 Ag 1.0000 0.5000 0.5000
Ag13 Ag 0.74983(4) 0.49818(2) 0.50669(3)
N8 N 0.3120(4) 0.3034(3) 0.9198(3)
C23 C 0.9738(5) 0.5733(3) 0.0841(3)
C32 C 0.9188(5) 0.4636(3) 0.0972(3)
H27 H 0.9829 0.5925 0.2835
C34 C 0.9859(5) 0.4910(3) 0.2636(3)
H28 H 0.9300 0.4772 0.2941
O7 O 0.8571(3) 0.4142(2) 0.0952(2)
O8 O 0.9686(3) 0.6345(2) 0.0661(2)
O11 O 0.9631(4) 0.6043(3) 0.4762(4)
H43 H 0.908(4) 0.607(5) 0.442(3)
H44 H 0.944(6) 0.624(4) 0.517(3)
C23_2 C 0.5262(5) 0.0733(3) 0.4159(3)
C24_2 C 0.4280(4) 0.0374(3) 0.3743(3)
H21_2 H 0.3656 0.0396 0.4067
C25_2 C 0.3938(4) 0.0669(3) 0.2921(3)
H22_2 H 0.3731 0.1168 0.2943
C26_2 C 0.2965(4) 0.0212(3) 0.2601(3)
H23_2 H 0.2366 0.0242 0.2946
C27_2 C 0.2557(4) 0.0416(3) 0.1771(3)
C33_2 C 0.4842(4) 0.0557(3) 0.2421(3)
H27_2 H 0.5171 0.0925 0.2165
N5 N 0.6092(4) 0.0273(2) 0.4330(3)
O8_2 O 0.5314(3) 0.1345(2) 0.4339(2)
O9_2 O 0.2180(3) 0.0984(2) 0.1581(2)
Ag3_2 Ag 0.0000 0.0000 0.0000
Ag4 Ag 0.5000 0.0000 0.0000
Ag5_2 Ag 0.24983(4) 0.00182(2) 0.00669(3)
H39_2 H 0.0330 0.0486 0.2205
O11_2 O 0.5369(4) 0.1043(3) 0.0238(4)
O12_2 O 0.0266(4) 0.1052(3) 0.0270(4)
O15_2 O 0.0472(4) 0.0575(3) 0.4380(3)
H43_2 H 0.592(4) 0.107(5) 0.058(3)
Ag10 Ag 0.75234(3) 0.04583(2) 0.50409(2)
H2_2 H 0.0506 0.2456 0.3826
C7_2 C 0.0701(5) 0.0237(3) 0.6359(3)
H5_2 H 0.1319 0.0221 0.6030
C9_2 C 0.1996(5) 0.0139(3) 0.7525(3)
H7_2 H 0.2603 0.0127 0.7186
C11_2 C 0.1969(5) 0.0899(3) 0.8618(3)
C12_2 C 0.1750(5) 0.0885(3) 0.7734(3)
H8_2 H 0.2254 0.1208 0.7496
C13_2 C 0.0562(5) 0.1068(3) 0.7458(3)
H9_2 H 0.0370 0.1547 0.7616
C14_2 C 0.0457(5) 0.0983(3) 0.6566(3)
H10_2 H 0.0974 0.1302 0.6336
N3_2 N 0.2293(4) 0.0270(3) 0.8897(3)
O3_2 O 0.1811(4) 0.1410(2) 0.9016(2)
C18_2 C 0.1674(5) 0.2585(3) 0.1785(3)
H17_2 H 0.2444 0.2582 0.1862
C19_2 C 0.1106(5) 0.2396(3) 0.2391(3)
H18_2 H 0.1481 0.2257 0.2872
C22_2 C 0.0105(6) 0.2783(3) 0.0993(3)
Ag3_3 Ag 0.0000 0.0000 1.0000
Ag4_2 Ag 0.5000 0.0000 1.0000
H41_2 H 0.063(6) 0.122(5) 0.992(4)
H44_2 H 0.556(6) 0.124(4) 0.983(3)
H16_2 H 0.444(6) 0.876(4) 0.017(3)
C28_2 C 0.3155(5) 0.9333(3) 0.1650(4)
C29_2 C 0.3326(4) 0.9467(3) 0.2520(3)
H24_2 H 0.2873 0.9147 0.2808
C30_2 C 0.4533(4) 0.9399(3) 0.2817(3)
H25_2 H 0.4800 0.8916 0.2754
C31_2 C 0.4653(4) 0.9621(3) 0.3671(3)
H26_2 H 0.4214 0.9310 0.3979
C32_2 C 0.5812(5) 0.9636(3) 0.4028(3)
C34_2 C 0.5141(5) 0.9910(3) 0.2364(3)
H28_2 H 0.5700 0.9772 0.2059
N6_2 N 0.2695(4) 0.9892(3) 0.1270(3)
O7_2 O 0.6429(3) 0.9142(2) 0.4048(2)
O10_2 O 0.3408(4) 0.8794(2) 0.1345(2)
Ag3_4 Ag 0.0000 1.0000 0.0000
Ag4_3 Ag 0.5000 1.0000 0.0000
C40_2 C 0.0327(5) 0.9996(3) 0.4103(4)
C49_2 C 0.0680(5) 0.8901(3) 0.3818(3)
C51_2 C 0.0139(5) 0.9468(3) 0.2213(3)
H40_2 H 0.0695 0.9348 0.1897
N9_2 N 0.1075(4) 0.9474(3) 0.4197(3)
O16_2 O 0.1171(4) 0.8353(2) 0.3787(2)
N15 N 0.3908(4) 0.9727(2) 0.5670(3)
Ag9 Ag 0.24766(3) 0.95417(2) 0.49591(2)
C8_2 C 0.0966(5) 0.9805(3) 0.7096(4)
H6_2 H 0.1086 0.9307 0.6972
C10_2 C 0.2348(5) 0.9806(3) 0.8296(4)
C16_2 C 0.0061(5) 0.9894(4) 0.7613(4)
O1_2 O 0.4631(4) 0.8957(3) 0.9762(4)
O4_2 O 0.2654(4) 0.9214(3) 0.8389(3)
H14_2 H 0.033(4) 0.872(4) 0.974(5)
H15_2 H 0.408(4) 0.893(5) 0.942(3)
Ag3_5 Ag 0.0000 1.0000 1.0000
Ag4_4 Ag 0.5000 1.0000 1.0000
Ag14 Ag 0.75017(4) 0.99818(2) 0.99331(3)
Ag3_6 Ag 1.0000 0.0000 0.0000
C42_2 C 0.9034(5) 0.0195(3) 0.2904(4)
H34_2 H 0.8914 0.0693 0.3028
C44_2 C 0.7652(5) 0.0194(3) 0.1704(4)
C50_2 C 0.9939(5) 0.0106(4) 0.2387(4)
O14_2 O 0.7346(4) 0.0786(3) 0.1611(3)
H42_2 H 0.967(4) 0.128(4) 0.026(5)
C1_2 C 0.9167(5) 0.2172(3) 0.4313(3)
H1_2 H 0.9494 0.2220 0.4830
C2_2 C 0.9773(5) 0.2313(3) 0.3716(3)
C3_2 C 0.9332(5) 0.2250(3) 0.2956(3)
C4_2 C 0.8267(6) 0.2035(3) 0.2825(3)
H3_2 H 0.7934 0.1979 0.2310
C5_2 C 0.7695(6) 0.1901(3) 0.3454(3)
H4_2 H 0.6962 0.1755 0.3356
C6_2 C 0.9673(5) 0.0004(3) 0.5897(4)
C15_2 C 0.9320(5) 0.1099(3) 0.6182(3)
C17_2 C 0.9861(5) 0.0532(3) 0.7787(3)
H12_2 H 0.9305 0.0652 0.8103
N1_2 N 0.8120(4) 0.1966(3) 0.4198(3)
N2_2 N 0.8925(4) 0.0526(3) 0.5803(3)
O6_2 O 0.8829(4) 0.1647(2) 0.6213(2)
C20_2 C 0.9985(5) 0.2409(3) 0.2302(3)
C21_2 C 0.9465(5) 0.2597(3) 0.1582(3)
H19_2 H 0.8696 0.2600 0.1493
H20_2 H 0.9751 0.2920 0.0505
Ag1_2 Ag 0.71684(4) 0.19839(3) 0.51669(3)
Ag3_7 Ag 1.0000 0.0000 1.0000
C35_2 C 0.4167(5) 0.2828(3) 0.9313(3)
H29_2 H 0.4494 0.2780 0.9830
C36_2 C 0.4773(5) 0.2687(3) 0.8716(3)
H30_2 H 0.5506 0.2544 0.8826
C37_2 C 0.4332(5) 0.2750(3) 0.7956(3)
C38_2 C 0.3267(6) 0.2965(3) 0.7825(3)
H31_2 H 0.2934 0.3021 0.7310
C39_2 C 0.2695(6) 0.3099(3) 0.8454(3)
H32_2 H 0.1962 0.3245 0.8356
C52_2 C 0.6674(5) 0.2415(3) 0.6785(3)
H45_2 H 0.7444 0.2418 0.6862
C53_2 C 0.6106(5) 0.2604(3) 0.7391(3)
H46_2 H 0.6481 0.2743 0.7872
C54_2 C 0.4985(5) 0.2591(3) 0.7302(3)
C55_2 C 0.4465(5) 0.2403(3) 0.6582(3)
H47_2 H 0.3696 0.2400 0.6493
C56_2 C 0.5105(6) 0.2217(3) 0.5993(3)
H48_2 H 0.4751 0.2080 0.5505
C62_2 C 0.6845(5) 0.0667(3) 0.8350(4)
C63_2 C 0.6674(4) 0.0533(3) 0.7480(3)
H52_2 H 0.7127 0.0853 0.7192
C64_2 C 0.5467(4) 0.0601(3) 0.7183(3)
H53_2 H 0.5200 0.1084 0.7246
C65_2 C 0.5347(4) 0.0379(3) 0.6329(3)
H54_2 H 0.5786 0.0690 0.6021
C66_2 C 0.4188(5) 0.0364(3) 0.5972(3)
C68_2 C 0.4859(5) 0.0090(3) 0.7636(3)
H56_2 H 0.4300 0.0228 0.7941
N11_2 N 0.6189(4) 0.2224(2) 0.6083(3)
N16_2 N 0.7305(4) 0.0108(3) 0.8730(3)
O17_2 O 0.3571(3) 0.0858(2) 0.5952(2)
O20_2 O 0.6592(4) 0.1206(2) 0.8655(2)
H13_2 H 0.937(6) 0.878(5) 0.008(4)
Ag3_8 Ag 1.0000 1.0000 0.0000
C41_2 C 0.9299(5) 0.9763(3) 0.3641(3)
H33_2 H 0.8681 0.9779 0.3970
C43_2 C 0.8004(5) 0.9861(3) 0.2475(3)
H35_2 H 0.7397 0.9873 0.2814
C45_2 C 0.8031(5) 0.9101(3) 0.1382(3)
C46_2 C 0.8250(5) 0.9115(3) 0.2266(3)
H36_2 H 0.7746 0.8792 0.2504
C47_2 C 0.9438(5) 0.8932(3) 0.2542(3)
H37_2 H 0.9630 0.8453 0.2384
C48_2 C 0.9543(5) 0.9017(3) 0.3434(3)
H38_2 H 0.9026 0.8698 0.3664
N10_2 N 0.7707(4) 0.9730(3) 0.1103(3)
O13_2 O 0.8189(4) 0.8590(2) 0.0984(2)
H11_2 H 0.9670 0.9514 0.7795
O2_2 O 0.9734(4) 0.8948(3) 0.9730(4)
O5_2 O 0.9528(4) 0.9425(3) 0.5620(3)
Ag3_9 Ag 1.0000 1.0000 1.0000
C57_2 C 0.4738(5) 0.9267(3) 0.5841(3)
C58_2 C 0.5720(4) 0.9626(3) 0.6257(3)
H49_2 H 0.6344 0.9604 0.5933
C59_2 C 0.6062(4) 0.9331(3) 0.7079(3)
H50_2 H 0.6269 0.8832 0.7057
C60_2 C 0.7035(4) 0.9788(3) 0.7399(3)
H51_2 H 0.7634 0.9758 0.7054
C61_2 C 0.7443(4) 0.9584(3) 0.8229(3)
C67_2 C 0.5158(4) 0.9443(3) 0.7579(3)
H55_2 H 0.4829 0.9075 0.7835
O18_2 O 0.4686(3) 0.8655(2) 0.5661(2)
O19_2 O 0.7820(3) 0.9016(2) 0.8419(2)
loop_
_geom_bond_atom_site_label_1
_geom_bond_atom_site_label_2
_geom_bond_site_symmetry_1
_geom_bond_site_symmetry_2
C35 H29 1_555 1_555
C36 C35 1_555 1_555
C37 C36 1_555 1_555
C38 C37 1_555 1_555
H31 C38 1_555 1_555
C39 C38 1_555 1_555
H32 C39 1_555 1_555
N7 C35 1_555 1_555
C54 C37 1_555 1_555
C55 C54 1_555 1_555
H47 C55 1_555 1_555
H56 C68 1_555 1_555
N13 C57 1_555 1_555
O17 C66 1_555 1_555
O18 C57 1_555 1_555
Ag8 N7 1_555 1_555
C39 N7 1_555 1_555
C66 N13 1_555 1_555
C1 H1 1_555 1_555
C2 C1 1_555 1_555
H2 C2 1_555 1_555
C3 C2 1_555 1_555
C4 C3 1_555 1_555
H3 C4 1_555 1_555
C5 C4 1_555 1_555
H4 C5 1_555 1_555
N1 C1 1_555 1_555
C18 H17 1_555 1_555
C19 C18 1_555 1_555
H18 C19 1_555 1_555
C20 C3 1_555 1_555
C21 C20 1_555 1_555
H19 C21 1_555 1_555
C22 C21 1_555 1_555
H20 C22 1_555 1_555
N4 C18 1_555 1_555
Ag8 N4 1_555 1_555
C5 N1 1_555 1_555
C19 C20 1_555 1_555
C22 N4 1_555 1_555
C6 C7 1_555 1_555
C7 H5 1_555 1_555
C8 C7 1_555 1_555
H6 C8 1_555 1_555
C9 C8 1_555 1_555
H7 C9 1_555 1_555
C10 C9 1_555 1_555
C11 C12 1_555 1_555
C12 C9 1_555 1_555
H8 C12 1_555 1_555
C13 C12 1_555 1_555
H9 C13 1_555 1_555
C14 C7 1_555 1_555
H10 C14 1_555 1_555
C15 C14 1_555 1_555
C16 C8 1_555 1_555
H11 C16 1_555 1_555
C17 C13 1_555 1_555
H12 C17 1_555 1_555
N2 C6 1_555 1_555
N3 C10 1_555 1_555
O1 H15 1_555 1_555
O2 H13 1_555 1_555
O3 C11 1_555 1_555
O4 C10 1_555 1_555
O5 C6 1_555 1_555
O6 C15 1_555 1_555
H14 O2 1_555 1_555
H16 O1 1_555 1_555
C24 H21 1_555 1_555
C25 C24 1_555 1_555
H22 C25 1_555 1_555
C26 C25 1_555 1_555
H23 C26 1_555 1_555
C27 C26 1_555 1_555
C28 C29 1_555 1_555
C29 C26 1_555 1_555
H24 C29 1_555 1_555
C30 C29 1_555 1_555
H25 C30 1_555 1_555
C31 C24 1_555 1_555
H26 C31 1_555 1_555
C33 C25 1_555 1_555
N6 C27 1_555 1_555
O9 C27 1_555 1_555
O10 C28 1_555 1_555
Ag2 N2 1_555 1_555
Ag3 O2 1_555 1_555
Ag12 O1 1_555 1_555
Ag5 N3 1_555 1_555
C40 C41 1_555 1_555
C41 H33 1_555 1_555
C42 C41 1_555 1_555
H34 C42 1_555 1_555
C43 C42 1_555 1_555
H35 C43 1_555 1_555
C44 C43 1_555 1_555
C45 C46 1_555 1_555
C46 C43 1_555 1_555
H36 C46 1_555 1_555
C47 C46 1_555 1_555
H37 C47 1_555 1_555
C48 C41 1_555 1_555
H38 C48 1_555 1_555
C49 C48 1_555 1_555
C50 C42 1_555 1_555
H39 C50 1_555 1_555
C51 C47 1_555 1_555
H40 C51 1_555 1_555
N9 C40 1_555 1_555
N10 C44 1_555 1_555
O12 Ag3 1_555 1_555
O13 C45 1_555 1_555
O14 C44 1_555 1_555
O15 C40 1_555 1_555
O16 C49 1_555 1_555
H41 O12 1_555 1_555
H42 O12 1_555 1_555
C52 H45 1_555 1_555
C53 C52 1_555 1_555
H46 C53 1_555 1_555
C58 H49 1_555 1_555
C59 C58 1_555 1_555
H50 C59 1_555 1_555
C60 C59 1_555 1_555
H51 C60 1_555 1_555
C61 C60 1_555 1_555
C62 C63 1_555 1_555
C63 C60 1_555 1_555
H52 C63 1_555 1_555
C64 C63 1_555 1_555
H53 C64 1_555 1_555
C65 C58 1_555 1_555
H54 C65 1_555 1_555
C67 C59 1_555 1_555
N11 Ag1 1_555 1_555
N12 Ag6 1_555 1_555
N16 C61 1_555 1_555
O19 C61 1_555 1_555
O20 C62 1_555 1_555
Ag6 Ag11 1_555 1_555
Ag11 N9 1_555 1_555
Ag12_2 Ag13 1_555 1_555
Ag13 Ag3 1_555 1_555
C11 N3 1_555 1_555
C13 C14 1_555 1_555
C15 N2 1_555 1_555
C16 C17 1_555 1_555
C28 N6 1_555 1_555
C30 C31 1_555 1_555
N6 Ag5 1_555 1_555
Ag1 Ag2 1_555 1_555
Ag3 Ag5 1_555 1_555
Ag12 Ag5 1_555 1_555
C45 N10 1_555 1_555
C47 C48 1_555 1_555
C49 N9 1_555 1_555
C50 C51 1_555 1_555
N10 Ag13 1_555 1_555
C52 N11 1_555 1_555
C56 N11 1_555 1_555
C62 N16 1_555 1_555
C64 C65 1_555 1_555
N16 Ag13 1_555 1_555
H28 C34 1_555 1_555
N14 C23 1_555 1_555
O7 C32 1_555 1_555
O8 C23 1_555 1_555
O11 Ag12_2 1_555 1_555
H43 O11 1_555 1_555
H44 O11 1_555 1_555
C32 N14 1_555 1_555
C23_2 C24_2 1_555 1_555
C24_2 H21_2 1_555 1_555
C25_2 C24_2 1_555 1_555
H22_2 C25_2 1_555 1_555
C26_2 C25_2 1_555 1_555
H23_2 C26_2 1_555 1_555
C27_2 C26_2 1_555 1_555
C33_2 C25_2 1_555 1_555
H27_2 C33_2 1_555 1_555
N5 C23_2 1_555 1_555
O8_2 C23_2 1_555 1_555
O9_2 C27_2 1_555 1_555
O11_2 Ag4 1_555 1_555
O12_2 Ag3_2 1_555 1_555
H43_2 O11_2 1_555 1_555
Ag10 N5 1_555 1_555
Ag3_2 Ag5_2 1_555 1_555
Ag4 Ag5_2 1_555 1_555
C7_2 H5_2 1_555 1_555
H7_2 C9_2 1_555 1_555
C11_2 C12_2 1_555 1_555
C12_2 C9_2 1_555 1_555
H8_2 C12_2 1_555 1_555
C13_2 C12_2 1_555 1_555
H9_2 C13_2 1_555 1_555
C14_2 C7_2 1_555 1_555
H10_2 C14_2 1_555 1_555
O3_2 C11_2 1_555 1_555
C18_2 H17_2 1_555 1_555
C19_2 C18_2 1_555 1_555
H18_2 C19_2 1_555 1_555
N12 C18_2 1_555 1_555
C11_2 N3_2 1_555 1_555
C13_2 C14_2 1_555 1_555
C22_2 N12 1_555 1_555
C28_2 C29_2 1_555 1_555
H24_2 C29_2 1_555 1_555
C30_2 C29_2 1_555 1_555
H25_2 C30_2 1_555 1_555
H26_2 C31_2 1_555 1_555
C32_2 C31_2 1_555 1_555
C34_2 C30_2 1_555 1_555
H28_2 C34_2 1_555 1_555
O7_2 C32_2 1_555 1_555
O10_2 C28_2 1_555 1_555
H40_2 C51_2 1_555 1_555
N9_2 C40_2 1_555 1_555
O16_2 C49_2 1_555 1_555
N15 Ag9 1_555 1_555
Ag8 Ag9 1_555 1_555
Ag9 N9_2 1_555 1_555
C28_2 N6_2 1_555 1_555
C30_2 C31_2 1_555 1_555
C49_2 N9_2 1_555 1_555
H6_2 C8_2 1_555 1_555
C16_2 C8_2 1_555 1_555
O1_2 H15_2 1_555 1_555
O4_2 C10_2 1_555 1_555
Ag4_4 O1_2 1_555 1_555
Ag14 Ag4_4 1_555 1_555
H34_2 C42_2 1_555 1_555
C50_2 C42_2 1_555 1_555
O14_2 C44_2 1_555 1_555
C1_2 H1_2 1_555 1_555
C2_2 C1_2 1_555 1_555
C3_2 C2_2 1_555 1_555
C4_2 C3_2 1_555 1_555
H3_2 C4_2 1_555 1_555
C5_2 C4_2 1_555 1_555
H4_2 C5_2 1_555 1_555
H12_2 C17_2 1_555 1_555
N1_2 C1_2 1_555 1_555
N2_2 C6_2 1_555 1_555
O6_2 C15_2 1_555 1_555
C20_2 C3_2 1_555 1_555
C21_2 C20_2 1_555 1_555
H19_2 C21_2 1_555 1_555
Ag1_2 N1_2 1_555 1_555
Ag10 N2_2 1_555 1_555
C35_2 H29_2 1_555 1_555
C36_2 C35_2 1_555 1_555
H30_2 C36_2 1_555 1_555
C37_2 C36_2 1_555 1_555
C38_2 C37_2 1_555 1_555
H31_2 C38_2 1_555 1_555
C39_2 C38_2 1_555 1_555
H32_2 C39_2 1_555 1_555
N8 C35_2 1_555 1_555
C52_2 H45_2 1_555 1_555
C53_2 C52_2 1_555 1_555
H46_2 C53_2 1_555 1_555
C54_2 C37_2 1_555 1_555
C55_2 C54_2 1_555 1_555
H47_2 C55_2 1_555 1_555
C56_2 C55_2 1_555 1_555
H48_2 C56_2 1_555 1_555
C62_2 C63_2 1_555 1_555
H52_2 C63_2 1_555 1_555
C64_2 C63_2 1_555 1_555
H53_2 C64_2 1_555 1_555
H54_2 C65_2 1_555 1_555
C66_2 C65_2 1_555 1_555
C68_2 C64_2 1_555 1_555
H56_2 C68_2 1_555 1_555
N11_2 Ag1_2 1_555 1_555
O17_2 C66_2 1_555 1_555
O20_2 C62_2 1_555 1_555
C5_2 N1_2 1_555 1_555
C15_2 N2_2 1_555 1_555
Ag1_2 Ag10 1_555 1_555
C39_2 N8 1_555 1_555
C52_2 N11_2 1_555 1_555
C53_2 C54_2 1_555 1_555
C56_2 N11_2 1_555 1_555
C62_2 N16_2 1_555 1_555
C64_2 C65_2 1_555 1_555
C41_2 H33_2 1_555 1_555
H35_2 C43_2 1_555 1_555
C45_2 C46_2 1_555 1_555
C46_2 C43_2 1_555 1_555
H36_2 C46_2 1_555 1_555
C47_2 C46_2 1_555 1_555
H37_2 C47_2 1_555 1_555
C48_2 C41_2 1_555 1_555
H38_2 C48_2 1_555 1_555
O13_2 C45_2 1_555 1_555
C45_2 N10_2 1_555 1_555
C47_2 C48_2 1_555 1_555
Ag3_9 O2_2 1_555 1_555
C57_2 C58_2 1_555 1_555
C58_2 H49_2 1_555 1_555
C59_2 C58_2 1_555 1_555
H50_2 C59_2 1_555 1_555
C60_2 C59_2 1_555 1_555
H51_2 C60_2 1_555 1_555
C61_2 C60_2 1_555 1_555
C67_2 C59_2 1_555 1_555
H55_2 C67_2 1_555 1_555
N15 C57_2 1_555 1_555
O18_2 C57_2 1_555 1_555
O19_2 C61_2 1_555 1_555
Ag14 Ag3_9 1_555 1_555

#END
