
###############################################################################
#
# This file contains modified crystal structure data generated from the
# MOF subset of the Cambridge Structural Database (CSD) v543 
# hosted by the Cambridge Crystallographic Data Centre (CCDC).
#
# This work is licensed under the Creative Commons
# Attribution-NonCommercial-ShareAlike 4.0 International License.
# To view a copy of this license, visit
# http://creativecommons.org/licenses/by-nc-sa/4.0/
# or send a letter to
# Creative Commons, PO Box 1866, Mountain View, CA 94042, USA.
#
# CIF created using the CSD Python API on 29 September 2022
# The structure has been converted into the P1 space group
# The structure has a 3D framework
# The original CSD entry HASRAY is in the orthorhombic crystal system
# The framework has been calculated to contain at least 10.0% void space
# The void calculation uses a probe of radius 1.32A, grid spacing 0.4
#
###############################################################################

data_HASRAY
_chemical_formula_moiety         '(C144 F48 O80 Sc10)n'
_symmetry_cell_setting           triclinic
_symmetry_space_group_name_H-M   'P 1'
_symmetry_Int_Tables_number      1
_space_group_name_Hall           'P 1'
loop_
_symmetry_equiv_pos_site_id
_symmetry_equiv_pos_as_xyz
1 x,y,z
_cell_length_a                   12.9340(4)
_cell_length_b                   31.1435(5)
_cell_length_c                   12.2907(4)
_cell_angle_alpha                90
_cell_angle_beta                 90
_cell_angle_gamma                90
_cell_volume                     4950.82
loop_
_atom_site_label
_atom_site_type_symbol
_atom_site_fract_x
_atom_site_fract_y
_atom_site_fract_z
_atom_site_U_iso_or_equiv
_atom_site_thermal_displace_type
Sc1 Sc 0.000 0.000 0.000 0.0114 Uiso
C1 C 0.0252(4) 0.21360(34) 0.00545(35) 0.0105 Uiso
Sc2 Sc -0.000 0.250 0.250 0.0114 Uiso
Sc5 Sc 0.250 0.250 0.000 0.0114 Uiso
Sc1_2 Sc 0.000 -0.000 1.000 0.0114 Uiso
F1 F 0.01546(11) 0.12445(11) 0.99700(14) 0.0105 Uiso
O2 O 0.11430(33) 0.21760(26) 0.9675(7) 0.0185 Uiso
Sc5_2 Sc 0.250 0.250 1.000 0.0114 Uiso
O9 O 0.13570(33) 0.03240(26) 0.9675(7) 0.0185 Uiso
Sc1_3 Sc -0.000 1.000 0.000 0.0114 Uiso
O11 O 0.0799(6) 0.94476(11) 0.0508(4) 0.0185 Uiso
Sc1_4 Sc -0.000 1.000 1.000 0.0114 Uiso
O7 O 0.0020(7) 0.97714(26) 0.8468(5) 0.0185 Uiso
Sc1_5 Sc 1.000 0.000 0.000 0.0114 Uiso
O1 O 0.9980(7) 0.22714(26) 0.0968(5) 0.0185 Uiso
Sc2_2 Sc 1.000 0.250 0.250 0.0114 Uiso
O8 O 0.9980(7) 0.02286(26) 0.1532(5) 0.0185 Uiso
Sc1_6 Sc 1.000 -0.000 1.000 0.0114 Uiso
O3 O 0.9201(6) 0.05524(11) 0.9492(4) 0.0185 Uiso
C2 C 0.875 0.12379(11) 0.875 0.0105 Uiso
F2 F 0.875 0.25544(11) 0.875 0.0105 Uiso
C3 C 0.875 0.21241(11) 0.875 0.0105 Uiso
C4 C 0.94624(8) 0.14595(11) 0.93691(10) 0.0105 Uiso
C5 C 0.875 0.07531(11) 0.875 0.0105 Uiso
C6 C 0.94624(8) 0.19026(11) 0.93691(10) 0.0105 Uiso
C7 C 0.7248(4) 0.21360(34) 0.74455(35) 0.0105 Uiso
F3 F 0.73454(11) 0.12445(11) 0.75300(14) 0.0105 Uiso
O4 O 0.8299(6) 0.05524(11) 0.8008(4) 0.0185 Uiso
C8 C 0.80376(8) 0.14595(11) 0.81309(10) 0.0105 Uiso
C9 C 0.80376(8) 0.19026(11) 0.81309(10) 0.0105 Uiso
O5 O 0.7520(7) 0.22714(26) 0.6532(5) 0.0185 Uiso
O6 O 0.63570(33) 0.21760(26) 0.7825(7) 0.0185 Uiso
Sc3 Sc 0.750 0.250 0.500 0.0114 Uiso
Sc4 Sc 0.750 0.000 0.750 0.0114 Uiso
Sc6 Sc 0.500 0.250 0.750 0.0114 Uiso
Sc1_7 Sc 1.000 1.000 0.000 0.0114 Uiso
O10 O 0.86430(33) 0.96760(26) 0.0325(7) 0.0185 Uiso
Sc1_8 Sc 1.000 1.000 1.000 0.0114 Uiso
Sc4_2 Sc 0.750 1.000 0.750 0.0114 Uiso
C7_2 C 0.0252(4) 0.03640(34) 0.24455(35) 0.0105 Uiso
F3_2 F 0.01546(11) 0.12555(11) 0.25300(14) 0.0105 Uiso
O6_2 O 0.11430(33) 0.03240(26) 0.2825(7) 0.0185 Uiso
Sc6_2 Sc 0.250 -0.000 0.250 0.0114 Uiso
Sc6_3 Sc 0.250 1.000 0.250 0.0114 Uiso
C1_2 C 0.7248(4) 0.03640(34) 0.50545(35) 0.0105 Uiso
F1_2 F 0.73454(11) 0.12555(11) 0.49700(14) 0.0105 Uiso
O1_2 O 0.7520(7) 0.02286(26) 0.5968(5) 0.0185 Uiso
O2_2 O 0.63570(33) 0.03240(26) 0.4675(7) 0.0185 Uiso
O3_2 O 0.8299(6) 0.19476(11) 0.4492(4) 0.0185 Uiso
C2_2 C 0.875 0.12621(11) 0.375 0.0105 Uiso
C3_2 C 0.875 0.03759(11) 0.375 0.0105 Uiso
C4_2 C 0.80376(8) 0.10405(11) 0.43691(10) 0.0105 Uiso
C5_2 C 0.875 0.17469(11) 0.375 0.0105 Uiso
C6_2 C 0.80376(8) 0.05974(11) 0.43691(10) 0.0105 Uiso
O4_2 O 0.9201(6) 0.19476(11) 0.3008(4) 0.0185 Uiso
C8_2 C 0.94624(8) 0.10405(11) 0.31309(10) 0.0105 Uiso
C9_2 C 0.94624(8) 0.05974(11) 0.31309(10) 0.0105 Uiso
Sc5_3 Sc 0.500 -0.000 0.500 0.0114 Uiso
O7_2 O 0.7480(7) 0.27286(26) 0.3468(5) 0.0185 Uiso
O9_2 O 0.61430(33) 0.21760(26) 0.4675(7) 0.0185 Uiso
O10_2 O 0.88570(33) 0.28240(26) 0.5325(7) 0.0185 Uiso
O11_2 O 0.6701(6) 0.30524(11) 0.5508(4) 0.0185 Uiso
F2_2 F 0.875 0.99456(11) 0.375 0.0105 Uiso
Sc5_4 Sc 0.500 1.000 0.500 0.0114 Uiso
Sc1_9 Sc 0.000 0.750 0.750 0.0114 Uiso
C1_3 C 0.0252(4) 0.53640(34) 0.74455(35) 0.0105 Uiso
F1_3 F 0.01546(11) 0.62555(11) 0.75300(14) 0.0105 Uiso
O2_3 O 0.11430(33) 0.53240(26) 0.7825(7) 0.0185 Uiso
Sc2_3 Sc -0.000 0.500 0.500 0.0114 Uiso
Sc5_5 Sc 0.250 0.500 0.750 0.0114 Uiso
O7_3 O 0.0020(7) 0.77286(26) 0.9032(5) 0.0185 Uiso
O9_3 O 0.13570(33) 0.71760(26) 0.7825(7) 0.0185 Uiso
O11_3 O 0.0799(6) 0.80524(11) 0.6992(4) 0.0185 Uiso
C7_3 C 0.7248(4) 0.53640(34) 0.00545(35) 0.0105 Uiso
O5_2 O 0.7520(7) 0.52286(26) 0.0968(5) 0.0185 Uiso
Sc3_2 Sc 0.750 0.500 0.250 0.0114 Uiso
Sc4_3 Sc 0.750 0.750 0.000 0.0114 Uiso
Sc6_4 Sc 0.500 0.500 0.000 0.0114 Uiso
Sc1_10 Sc 1.000 0.750 0.750 0.0114 Uiso
O1_3 O 0.9980(7) 0.52286(26) 0.6532(5) 0.0185 Uiso
O3_3 O 0.9201(6) 0.69476(11) 0.8008(4) 0.0185 Uiso
C2_3 C 0.875 0.62621(11) 0.875 0.0105 Uiso
F2_3 F 0.875 0.49456(11) 0.875 0.0105 Uiso
C3_3 C 0.875 0.53759(11) 0.875 0.0105 Uiso
C4_3 C 0.94624(8) 0.60405(11) 0.81309(10) 0.0105 Uiso
C5_3 C 0.875 0.67469(11) 0.875 0.0105 Uiso
C6_3 C 0.94624(8) 0.55974(11) 0.81309(10) 0.0105 Uiso
F3_3 F 0.73454(11) 0.62555(11) 0.99700(14) 0.0105 Uiso
O4_3 O 0.8299(6) 0.69476(11) 0.9492(4) 0.0185 Uiso
C8_3 C 0.80376(8) 0.60405(11) 0.93691(10) 0.0105 Uiso
C9_3 C 0.80376(8) 0.55974(11) 0.93691(10) 0.0105 Uiso
O6_3 O 0.63570(33) 0.53240(26) 0.9675(7) 0.0185 Uiso
Sc2_4 Sc 1.000 0.500 0.500 0.0114 Uiso
Sc4_4 Sc 0.750 0.750 1.000 0.0114 Uiso
Sc6_5 Sc 0.500 0.500 1.000 0.0114 Uiso
O8_2 O 0.9980(7) 0.72714(26) 0.5968(5) 0.0185 Uiso
O10_3 O 0.86430(33) 0.78240(26) 0.7175(7) 0.0185 Uiso
O9_4 O 0.61430(33) 0.03240(26) 0.7825(7) 0.0185 Uiso
O7_4 O 0.7480(7) 0.97714(26) 0.9032(5) 0.0185 Uiso
O10_4 O 0.88570(33) 0.96760(26) 0.7175(7) 0.0185 Uiso
O11_4 O 0.6701(6) 0.94476(11) 0.6992(4) 0.0185 Uiso
C1_4 C 0.0252(4) 0.71360(34) 0.50545(35) 0.0105 Uiso
F1_4 F 0.01546(11) 0.62445(11) 0.49700(14) 0.0105 Uiso
O2_4 O 0.11430(33) 0.71760(26) 0.4675(7) 0.0185 Uiso
Sc5_6 Sc 0.250 0.750 0.500 0.0114 Uiso
O7_5 O 0.0020(7) 0.47714(26) 0.3468(5) 0.0185 Uiso
O9_5 O 0.13570(33) 0.53240(26) 0.4675(7) 0.0185 Uiso
O11_5 O 0.0799(6) 0.44476(11) 0.5508(4) 0.0185 Uiso
O3_4 O 0.9201(6) 0.55524(11) 0.4492(4) 0.0185 Uiso
C2_4 C 0.875 0.62379(11) 0.375 0.0105 Uiso
F2_4 F 0.875 0.75544(11) 0.375 0.0105 Uiso
C3_4 C 0.875 0.71241(11) 0.375 0.0105 Uiso
C4_4 C 0.94624(8) 0.64595(11) 0.43691(10) 0.0105 Uiso
C5_4 C 0.875 0.57531(11) 0.375 0.0105 Uiso
C6_4 C 0.94624(8) 0.69026(11) 0.43691(10) 0.0105 Uiso
C7_4 C 0.7248(4) 0.71360(34) 0.24455(35) 0.0105 Uiso
F3_4 F 0.73454(11) 0.62445(11) 0.25300(14) 0.0105 Uiso
O4_4 O 0.8299(6) 0.55524(11) 0.3008(4) 0.0185 Uiso
C8_4 C 0.80376(8) 0.64595(11) 0.31309(10) 0.0105 Uiso
C9_4 C 0.80376(8) 0.69026(11) 0.31309(10) 0.0105 Uiso
O5_3 O 0.7520(7) 0.72714(26) 0.1532(5) 0.0185 Uiso
O6_4 O 0.63570(33) 0.71760(26) 0.2825(7) 0.0185 Uiso
Sc6_6 Sc 0.500 0.750 0.250 0.0114 Uiso
O10_5 O 0.86430(33) 0.46760(26) 0.5325(7) 0.0185 Uiso
O10_6 O 0.88570(33) 0.78240(26) 0.0325(7) 0.0185 Uiso
O11_6 O 0.6701(6) 0.80524(11) 0.0508(4) 0.0185 Uiso
O7_6 O 0.7480(7) 0.77286(26) 0.8468(5) 0.0185 Uiso
O9_6 O 0.61430(33) 0.71760(26) 0.9675(7) 0.0185 Uiso
O7_7 O 0.0020(7) 0.27286(26) 0.4032(5) 0.0185 Uiso
O9_7 O 0.13570(33) 0.21760(26) 0.2825(7) 0.0185 Uiso
O11_7 O 0.0799(6) 0.30524(11) 0.1992(4) 0.0185 Uiso
O10_7 O 0.86430(33) 0.28240(26) 0.2175(7) 0.0185 Uiso
O7_8 O 0.7480(7) 0.47714(26) 0.4032(5) 0.0185 Uiso
O9_8 O 0.61430(33) 0.53240(26) 0.2825(7) 0.0185 Uiso
O10_8 O 0.88570(33) 0.46760(26) 0.2175(7) 0.0185 Uiso
O11_8 O 0.6701(6) 0.44476(11) 0.1992(4) 0.0185 Uiso
C1_5 C 0.5252(4) 0.21360(34) 0.50545(35) 0.0105 Uiso
F1_5 F 0.51546(11) 0.12445(11) 0.49700(14) 0.0105 Uiso
O1_4 O 0.4980(7) 0.22714(26) 0.5968(5) 0.0185 Uiso
O3_5 O 0.4201(6) 0.05524(11) 0.4492(4) 0.0185 Uiso
C2_5 C 0.375 0.12379(11) 0.375 0.0105 Uiso
F2_5 F 0.375 0.25544(11) 0.375 0.0105 Uiso
C3_5 C 0.375 0.21241(11) 0.375 0.0105 Uiso
C4_5 C 0.44624(8) 0.14595(11) 0.43691(10) 0.0105 Uiso
C5_5 C 0.375 0.07531(11) 0.375 0.0105 Uiso
C6_5 C 0.44624(8) 0.19026(11) 0.43691(10) 0.0105 Uiso
C7_5 C 0.2248(4) 0.21360(34) 0.24455(35) 0.0105 Uiso
F3_5 F 0.23454(11) 0.12445(11) 0.25300(14) 0.0105 Uiso
O4_5 O 0.3299(6) 0.05524(11) 0.3008(4) 0.0185 Uiso
C8_5 C 0.30376(8) 0.14595(11) 0.31309(10) 0.0105 Uiso
C9_5 C 0.30376(8) 0.19026(11) 0.31309(10) 0.0105 Uiso
O5_4 O 0.2520(7) 0.22714(26) 0.1532(5) 0.0185 Uiso
O8_3 O 0.4980(7) 0.02286(26) 0.6532(5) 0.0185 Uiso
O7_9 O 0.5020(7) 0.97714(26) 0.3468(5) 0.0185 Uiso
O10_9 O 0.36430(33) 0.96760(26) 0.5325(7) 0.0185 Uiso
O11_9 O 0.5799(6) 0.94476(11) 0.5508(4) 0.0185 Uiso
C1_6 C 0.2248(4) 0.03640(34) 0.00545(35) 0.0105 Uiso
O1_5 O 0.2520(7) 0.02286(26) 0.0968(5) 0.0185 Uiso
O10_10 O 0.38570(33) 0.28240(26) 0.0325(7) 0.0185 Uiso
O11_10 O 0.1701(6) 0.30524(11) 0.0508(4) 0.0185 Uiso
F1_6 F 0.23454(11) 0.12555(11) 0.99700(14) 0.0105 Uiso
O3_6 O 0.3299(6) 0.19476(11) 0.9492(4) 0.0185 Uiso
C2_6 C 0.375 0.12621(11) 0.875 0.0105 Uiso
C3_6 C 0.375 0.03759(11) 0.875 0.0105 Uiso
C4_6 C 0.30376(8) 0.10405(11) 0.93691(10) 0.0105 Uiso
C5_6 C 0.375 0.17469(11) 0.875 0.0105 Uiso
C6_6 C 0.30376(8) 0.05974(11) 0.93691(10) 0.0105 Uiso
C7_6 C 0.5252(4) 0.03640(34) 0.74455(35) 0.0105 Uiso
F3_6 F 0.51546(11) 0.12555(11) 0.75300(14) 0.0105 Uiso
O4_6 O 0.4201(6) 0.19476(11) 0.8008(4) 0.0185 Uiso
C8_6 C 0.44624(8) 0.10405(11) 0.81309(10) 0.0105 Uiso
C9_6 C 0.44624(8) 0.05974(11) 0.81309(10) 0.0105 Uiso
O7_10 O 0.2480(7) 0.27286(26) 0.8468(5) 0.0185 Uiso
F2_6 F 0.375 0.99456(11) 0.875 0.0105 Uiso
C1_7 C 0.5252(4) 0.53640(34) 0.24455(35) 0.0105 Uiso
F1_7 F 0.51546(11) 0.62555(11) 0.25300(14) 0.0105 Uiso
O1_6 O 0.4980(7) 0.52286(26) 0.1532(5) 0.0185 Uiso
O3_7 O 0.4201(6) 0.69476(11) 0.3008(4) 0.0185 Uiso
C2_7 C 0.375 0.62621(11) 0.375 0.0105 Uiso
F2_7 F 0.375 0.49456(11) 0.375 0.0105 Uiso
C3_7 C 0.375 0.53759(11) 0.375 0.0105 Uiso
C4_7 C 0.44624(8) 0.60405(11) 0.31309(10) 0.0105 Uiso
C5_7 C 0.375 0.67469(11) 0.375 0.0105 Uiso
C6_7 C 0.44624(8) 0.55974(11) 0.31309(10) 0.0105 Uiso
C7_7 C 0.2248(4) 0.53640(34) 0.50545(35) 0.0105 Uiso
F3_7 F 0.23454(11) 0.62555(11) 0.49700(14) 0.0105 Uiso
O4_7 O 0.3299(6) 0.69476(11) 0.4492(4) 0.0185 Uiso
C8_7 C 0.30376(8) 0.60405(11) 0.43691(10) 0.0105 Uiso
C9_7 C 0.30376(8) 0.55974(11) 0.43691(10) 0.0105 Uiso
O5_5 O 0.2520(7) 0.52286(26) 0.5968(5) 0.0185 Uiso
O7_11 O 0.5020(7) 0.77286(26) 0.4032(5) 0.0185 Uiso
O8_4 O 0.4980(7) 0.72714(26) 0.0968(5) 0.0185 Uiso
O10_11 O 0.36430(33) 0.78240(26) 0.2175(7) 0.0185 Uiso
O11_11 O 0.5799(6) 0.80524(11) 0.1992(4) 0.0185 Uiso
O7_12 O 0.2480(7) 0.97714(26) 0.4032(5) 0.0185 Uiso
O10_12 O 0.38570(33) 0.96760(26) 0.2175(7) 0.0185 Uiso
O11_12 O 0.1701(6) 0.94476(11) 0.1992(4) 0.0185 Uiso
C1_8 C 0.5252(4) 0.71360(34) 0.00545(35) 0.0105 Uiso
O10_13 O 0.36430(33) 0.46760(26) 0.0325(7) 0.0185 Uiso
O11_13 O 0.5799(6) 0.44476(11) 0.0508(4) 0.0185 Uiso
F1_8 F 0.51546(11) 0.62445(11) 0.99700(14) 0.0105 Uiso
O3_8 O 0.4201(6) 0.55524(11) 0.9492(4) 0.0185 Uiso
C2_8 C 0.375 0.62379(11) 0.875 0.0105 Uiso
F2_8 F 0.375 0.75544(11) 0.875 0.0105 Uiso
C3_8 C 0.375 0.71241(11) 0.875 0.0105 Uiso
C4_8 C 0.44624(8) 0.64595(11) 0.93691(10) 0.0105 Uiso
C5_8 C 0.375 0.57531(11) 0.875 0.0105 Uiso
C6_8 C 0.44624(8) 0.69026(11) 0.93691(10) 0.0105 Uiso
C7_8 C 0.2248(4) 0.71360(34) 0.74455(35) 0.0105 Uiso
F3_8 F 0.23454(11) 0.62445(11) 0.75300(14) 0.0105 Uiso
O4_8 O 0.3299(6) 0.55524(11) 0.8008(4) 0.0185 Uiso
C8_8 C 0.30376(8) 0.64595(11) 0.81309(10) 0.0105 Uiso
C9_8 C 0.30376(8) 0.69026(11) 0.81309(10) 0.0105 Uiso
O5_6 O 0.2520(7) 0.72714(26) 0.6532(5) 0.0185 Uiso
O7_13 O 0.5020(7) 0.47714(26) 0.8468(5) 0.0185 Uiso
O7_14 O 0.2480(7) 0.77286(26) 0.3468(5) 0.0185 Uiso
O10_14 O 0.38570(33) 0.78240(26) 0.5325(7) 0.0185 Uiso
O11_14 O 0.1701(6) 0.80524(11) 0.5508(4) 0.0185 Uiso
O7_15 O 0.5020(7) 0.27286(26) 0.9032(5) 0.0185 Uiso
O10_15 O 0.36430(33) 0.28240(26) 0.7175(7) 0.0185 Uiso
O11_15 O 0.5799(6) 0.30524(11) 0.6992(4) 0.0185 Uiso
O7_16 O 0.2480(7) 0.47714(26) 0.9032(5) 0.0185 Uiso
O10_16 O 0.38570(33) 0.46760(26) 0.7175(7) 0.0185 Uiso
O11_16 O 0.1701(6) 0.44476(11) 0.6992(4) 0.0185 Uiso
C2_9 C 0.125 0.87621(11) 0.125 0.0105 Uiso
F2_9 F 0.125 0.74456(11) 0.125 0.0105 Uiso
C3_9 C 0.125 0.78759(11) 0.125 0.0105 Uiso
C4_9 C 0.05376(8) 0.85405(11) 0.06309(10) 0.0105 Uiso
C5_9 C 0.125 0.92469(11) 0.125 0.0105 Uiso
C6_9 C 0.05376(8) 0.80974(11) 0.06309(10) 0.0105 Uiso
C7_9 C 0.2752(4) 0.78640(34) 0.25545(35) 0.0105 Uiso
F3_9 F 0.26546(11) 0.87555(11) 0.24700(14) 0.0105 Uiso
C8_9 C 0.19624(8) 0.85405(11) 0.18691(10) 0.0105 Uiso
C9_9 C 0.19624(8) 0.80974(11) 0.18691(10) 0.0105 Uiso
F1_9 F 0.98454(11) 0.87555(11) 0.00300(14) 0.0105 Uiso
C1_9 C 0.9748(4) 0.78640(34) 0.99455(35) 0.0105 Uiso
F2_10 F 0.125 0.00544(11) 0.625 0.0105 Uiso
C1_10 C 0.2752(4) 0.96360(34) 0.49455(35) 0.0105 Uiso
F1_10 F 0.26546(11) 0.87445(11) 0.50300(14) 0.0105 Uiso
C2_10 C 0.125 0.87379(11) 0.625 0.0105 Uiso
C3_10 C 0.125 0.96241(11) 0.625 0.0105 Uiso
C4_10 C 0.19624(8) 0.89595(11) 0.56309(10) 0.0105 Uiso
C5_10 C 0.125 0.82531(11) 0.625 0.0105 Uiso
C6_10 C 0.19624(8) 0.94026(11) 0.56309(10) 0.0105 Uiso
C8_10 C 0.05376(8) 0.89595(11) 0.68691(10) 0.0105 Uiso
C9_10 C 0.05376(8) 0.94026(11) 0.68691(10) 0.0105 Uiso
C7_10 C 0.9748(4) 0.96360(34) 0.75545(35) 0.0105 Uiso
F3_10 F 0.98454(11) 0.87445(11) 0.74700(14) 0.0105 Uiso
C2_11 C 0.125 0.37379(11) 0.125 0.0105 Uiso
F2_11 F 0.125 0.50544(11) 0.125 0.0105 Uiso
C3_11 C 0.125 0.46241(11) 0.125 0.0105 Uiso
C4_11 C 0.05376(8) 0.39595(11) 0.18691(10) 0.0105 Uiso
C5_11 C 0.125 0.32531(11) 0.125 0.0105 Uiso
C6_11 C 0.05376(8) 0.44026(11) 0.18691(10) 0.0105 Uiso
F3_11 F 0.26546(11) 0.37445(11) 0.00300(14) 0.0105 Uiso
C8_11 C 0.19624(8) 0.39595(11) 0.06309(10) 0.0105 Uiso
C9_11 C 0.19624(8) 0.44026(11) 0.06309(10) 0.0105 Uiso
C7_11 C 0.2752(4) 0.46360(34) 0.99455(35) 0.0105 Uiso
C1_11 C 0.9748(4) 0.46360(34) 0.25545(35) 0.0105 Uiso
F1_11 F 0.98454(11) 0.37445(11) 0.24700(14) 0.0105 Uiso
C2_12 C 0.125 0.37621(11) 0.625 0.0105 Uiso
F2_12 F 0.125 0.24456(11) 0.625 0.0105 Uiso
C3_12 C 0.125 0.28759(11) 0.625 0.0105 Uiso
C4_12 C 0.05376(8) 0.35405(11) 0.56309(10) 0.0105 Uiso
C5_12 C 0.125 0.42469(11) 0.625 0.0105 Uiso
C6_12 C 0.05376(8) 0.30974(11) 0.56309(10) 0.0105 Uiso
C7_12 C 0.2752(4) 0.28640(34) 0.75545(35) 0.0105 Uiso
F3_12 F 0.26546(11) 0.37555(11) 0.74700(14) 0.0105 Uiso
C8_12 C 0.19624(8) 0.35405(11) 0.68691(10) 0.0105 Uiso
C9_12 C 0.19624(8) 0.30974(11) 0.68691(10) 0.0105 Uiso
C1_12 C 0.9748(4) 0.28640(34) 0.49455(35) 0.0105 Uiso
F1_12 F 0.98454(11) 0.37555(11) 0.50300(14) 0.0105 Uiso
C1_13 C 0.4748(4) 0.78640(34) 0.49455(35) 0.0105 Uiso
F1_13 F 0.48454(11) 0.87555(11) 0.50300(14) 0.0105 Uiso
C2_13 C 0.625 0.87621(11) 0.625 0.0105 Uiso
F2_13 F 0.625 0.74456(11) 0.625 0.0105 Uiso
C3_13 C 0.625 0.78759(11) 0.625 0.0105 Uiso
C4_13 C 0.55376(8) 0.85405(11) 0.56309(10) 0.0105 Uiso
C5_13 C 0.625 0.92469(11) 0.625 0.0105 Uiso
C6_13 C 0.55376(8) 0.80974(11) 0.56309(10) 0.0105 Uiso
C7_13 C 0.7752(4) 0.78640(34) 0.75545(35) 0.0105 Uiso
F3_13 F 0.76546(11) 0.87555(11) 0.74700(14) 0.0105 Uiso
C8_13 C 0.69624(8) 0.85405(11) 0.68691(10) 0.0105 Uiso
C9_13 C 0.69624(8) 0.80974(11) 0.68691(10) 0.0105 Uiso
F2_14 F 0.625 0.00544(11) 0.125 0.0105 Uiso
F1_14 F 0.76546(11) 0.87445(11) 0.00300(14) 0.0105 Uiso
C2_14 C 0.625 0.87379(11) 0.125 0.0105 Uiso
C3_14 C 0.625 0.96241(11) 0.125 0.0105 Uiso
C4_14 C 0.69624(8) 0.89595(11) 0.06309(10) 0.0105 Uiso
C5_14 C 0.625 0.82531(11) 0.125 0.0105 Uiso
C6_14 C 0.69624(8) 0.94026(11) 0.06309(10) 0.0105 Uiso
C7_14 C 0.4748(4) 0.96360(34) 0.25545(35) 0.0105 Uiso
F3_14 F 0.48454(11) 0.87445(11) 0.24700(14) 0.0105 Uiso
C8_14 C 0.55376(8) 0.89595(11) 0.18691(10) 0.0105 Uiso
C9_14 C 0.55376(8) 0.94026(11) 0.18691(10) 0.0105 Uiso
C1_14 C 0.7752(4) 0.96360(34) 0.99455(35) 0.0105 Uiso
C1_15 C 0.4748(4) 0.46360(34) 0.75545(35) 0.0105 Uiso
F1_15 F 0.48454(11) 0.37445(11) 0.74700(14) 0.0105 Uiso
C2_15 C 0.625 0.37379(11) 0.625 0.0105 Uiso
F2_15 F 0.625 0.50544(11) 0.625 0.0105 Uiso
C3_15 C 0.625 0.46241(11) 0.625 0.0105 Uiso
C4_15 C 0.55376(8) 0.39595(11) 0.68691(10) 0.0105 Uiso
C5_15 C 0.625 0.32531(11) 0.625 0.0105 Uiso
C6_15 C 0.55376(8) 0.44026(11) 0.68691(10) 0.0105 Uiso
C7_15 C 0.7752(4) 0.46360(34) 0.49455(35) 0.0105 Uiso
F3_15 F 0.76546(11) 0.37445(11) 0.50300(14) 0.0105 Uiso
C8_15 C 0.69624(8) 0.39595(11) 0.56309(10) 0.0105 Uiso
C9_15 C 0.69624(8) 0.44026(11) 0.56309(10) 0.0105 Uiso
F1_16 F 0.48454(11) 0.37555(11) 0.00300(14) 0.0105 Uiso
C2_16 C 0.625 0.37621(11) 0.125 0.0105 Uiso
F2_16 F 0.625 0.24456(11) 0.125 0.0105 Uiso
C3_16 C 0.625 0.28759(11) 0.125 0.0105 Uiso
C4_16 C 0.55376(8) 0.35405(11) 0.06309(10) 0.0105 Uiso
C5_16 C 0.625 0.42469(11) 0.125 0.0105 Uiso
C6_16 C 0.55376(8) 0.30974(11) 0.06309(10) 0.0105 Uiso
C7_16 C 0.7752(4) 0.28640(34) 0.25545(35) 0.0105 Uiso
F3_16 F 0.76546(11) 0.37555(11) 0.24700(14) 0.0105 Uiso
C8_16 C 0.69624(8) 0.35405(11) 0.18691(10) 0.0105 Uiso
C9_16 C 0.69624(8) 0.30974(11) 0.18691(10) 0.0105 Uiso
C1_16 C 0.4748(4) 0.28640(34) 0.99455(35) 0.0105 Uiso
loop_
_geom_bond_atom_site_label_1
_geom_bond_atom_site_label_2
_geom_bond_site_symmetry_1
_geom_bond_site_symmetry_2
Sc5_2 O2 1_555 1_555
O9 Sc1_2 1_555 1_555
O11 Sc1_3 1_555 1_555
O7 Sc1_4 1_555 1_555
O1 Sc2_2 1_555 1_555
O8 Sc1_5 1_555 1_555
Sc1_6 O3 1_555 1_555
O3 C5 1_555 1_555
C2 C4 1_555 1_555
F2 C3 1_555 1_555
C3 C6 1_555 1_555
C4 C6 1_555 1_555
C5 C2 1_555 1_555
C7 C9 1_555 1_555
F3 C8 1_555 1_555
O4 C5 1_555 1_555
C8 C2 1_555 1_555
C9 C3 1_555 1_555
O5 C7 1_555 1_555
O6 C7 1_555 1_555
Sc3 O5 1_555 1_555
Sc4 O4 1_555 1_555
Sc6 O6 1_555 1_555
C8 C9 1_555 1_555
O10 Sc1_7 1_555 1_555
O6_2 C7_2 1_555 1_555
Sc6_2 O6_2 1_555 1_555
Sc3 O3_2 1_555 1_555
C1_2 O1_2 1_555 1_555
F1_2 C4_2 1_555 1_555
O1_2 Sc4 1_555 1_555
O2_2 C1_2 1_555 1_555
O3_2 C5_2 1_555 1_555
C2_2 C4_2 1_555 1_555
C3_2 C6_2 1_555 1_555
C4_2 C6_2 1_555 1_555
C5_2 C2_2 1_555 1_555
C6_2 C1_2 1_555 1_555
O4_2 C5_2 1_555 1_555
C8_2 C2_2 1_555 1_555
C9_2 C3_2 1_555 1_555
Sc2_2 O4_2 1_555 1_555
Sc5_3 O2_2 1_555 1_555
O7_2 Sc3 1_555 1_555
O9_2 Sc3 1_555 1_555
O10_2 Sc3 1_555 1_555
O11_2 Sc3 1_555 1_555
C8_2 C9_2 1_555 1_555
O2_3 C1_3 1_555 1_555
Sc5_5 O2_3 1_555 1_555
O7_3 Sc1_9 1_555 1_555
O9_3 Sc1_9 1_555 1_555
O11_3 Sc1_9 1_555 1_555
O5_2 C7_3 1_555 1_555
Sc3_2 O5_2 1_555 1_555
Sc1_10 O3_3 1_555 1_555
O1_3 Sc2_4 1_555 1_555
O3_3 C5_3 1_555 1_555
C2_3 C4_3 1_555 1_555
F2_3 C3_3 1_555 1_555
C3_3 C6_3 1_555 1_555
C4_3 C6_3 1_555 1_555
C5_3 C2_3 1_555 1_555
F3_3 C8_3 1_555 1_555
O4_3 C5_3 1_555 1_555
C8_3 C2_3 1_555 1_555
C9_3 C3_3 1_555 1_555
Sc4_4 O4_3 1_555 1_555
Sc6_5 O6_3 1_555 1_555
O8_2 Sc1_10 1_555 1_555
O10_3 Sc1_10 1_555 1_555
C8_3 C9_3 1_555 1_555
O9_4 Sc4 1_555 1_555
O7_4 Sc4_2 1_555 1_555
O10_4 Sc4_2 1_555 1_555
O11_4 Sc4_2 1_555 1_555
O2_4 C1_4 1_555 1_555
Sc5_6 O2_4 1_555 1_555
O7_5 Sc2_3 1_555 1_555
O9_5 Sc2_3 1_555 1_555
O11_5 Sc2_3 1_555 1_555
Sc2_4 O3_4 1_555 1_555
O3_4 C5_4 1_555 1_555
C2_4 C4_4 1_555 1_555
F2_4 C3_4 1_555 1_555
C3_4 C6_4 1_555 1_555
C4_4 C6_4 1_555 1_555
C5_4 C2_4 1_555 1_555
C7_4 C9_4 1_555 1_555
F3_4 C8_4 1_555 1_555
O4_4 C5_4 1_555 1_555
C8_4 C2_4 1_555 1_555
C9_4 C3_4 1_555 1_555
O5_3 C7_4 1_555 1_555
O6_4 C7_4 1_555 1_555
Sc4_3 O5_3 1_555 1_555
Sc3_2 O4_4 1_555 1_555
Sc6_6 O6_4 1_555 1_555
O10_5 Sc2_4 1_555 1_555
C8_4 C9_4 1_555 1_555
O10_6 Sc4_3 1_555 1_555
O11_6 Sc4_3 1_555 1_555
O7_6 Sc4_4 1_555 1_555
O9_6 Sc4_4 1_555 1_555
O7_7 Sc2 1_555 1_555
O9_7 Sc2 1_555 1_555
O11_7 Sc2 1_555 1_555
O10_7 Sc2_2 1_555 1_555
O7_8 Sc3_2 1_555 1_555
O9_8 Sc3_2 1_555 1_555
O10_8 Sc3_2 1_555 1_555
O11_8 Sc3_2 1_555 1_555
Sc5_3 O3_5 1_555 1_555
C1_5 O1_4 1_555 1_555
F1_5 C4_5 1_555 1_555
O1_4 Sc6 1_555 1_555
O9_2 C1_5 1_555 1_555
O3_5 C5_5 1_555 1_555
C2_5 C4_5 1_555 1_555
F2_5 C3_5 1_555 1_555
C3_5 C6_5 1_555 1_555
C4_5 C6_5 1_555 1_555
C5_5 C2_5 1_555 1_555
C6_5 C1_5 1_555 1_555
C7_5 C9_5 1_555 1_555
F3_5 C8_5 1_555 1_555
O4_5 C5_5 1_555 1_555
C8_5 C2_5 1_555 1_555
C9_5 C3_5 1_555 1_555
O5_4 C7_5 1_555 1_555
O9_7 C7_5 1_555 1_555
Sc5 O5_4 1_555 1_555
Sc6_2 O4_5 1_555 1_555
O8_3 Sc5_3 1_555 1_555
C8_5 C9_5 1_555 1_555
O7_9 Sc5_4 1_555 1_555
O10_9 Sc5_4 1_555 1_555
O11_9 Sc5_4 1_555 1_555
C1_6 O1_5 1_555 1_555
O1_5 Sc6_2 1_555 1_555
O10_10 Sc5 1_555 1_555
O11_10 Sc5 1_555 1_555
Sc5_2 O3_6 1_555 1_555
F1_6 C4_6 1_555 1_555
O3_6 C5_6 1_555 1_555
C2_6 C4_6 1_555 1_555
C3_6 C6_6 1_555 1_555
C4_6 C6_6 1_555 1_555
C5_6 C2_6 1_555 1_555
C7_6 C9_6 1_555 1_555
F3_6 C8_6 1_555 1_555
O4_6 C5_6 1_555 1_555
C8_6 C2_6 1_555 1_555
C9_6 C3_6 1_555 1_555
O8_3 C7_6 1_555 1_555
O9_4 C7_6 1_555 1_555
Sc6 O4_6 1_555 1_555
O7_10 Sc5_2 1_555 1_555
C8_6 C9_6 1_555 1_555
Sc6_6 O3_7 1_555 1_555
C1_7 O1_6 1_555 1_555
F1_7 C4_7 1_555 1_555
O1_6 Sc6_4 1_555 1_555
O9_8 C1_7 1_555 1_555
O3_7 C5_7 1_555 1_555
C2_7 C4_7 1_555 1_555
F2_7 C3_7 1_555 1_555
C3_7 C6_7 1_555 1_555
C4_7 C6_7 1_555 1_555
C5_7 C2_7 1_555 1_555
C6_7 C1_7 1_555 1_555
C7_7 C9_7 1_555 1_555
F3_7 C8_7 1_555 1_555
O4_7 C5_7 1_555 1_555
C8_7 C2_7 1_555 1_555
C9_7 C3_7 1_555 1_555
O5_5 C7_7 1_555 1_555
O9_5 C7_7 1_555 1_555
Sc5_5 O5_5 1_555 1_555
Sc5_6 O4_7 1_555 1_555
O7_11 Sc6_6 1_555 1_555
O8_4 Sc6_6 1_555 1_555
O10_11 Sc6_6 1_555 1_555
O11_11 Sc6_6 1_555 1_555
C8_7 C9_7 1_555 1_555
O7_12 Sc6_3 1_555 1_555
O10_12 Sc6_3 1_555 1_555
O11_12 Sc6_3 1_555 1_555
C1_8 O8_4 1_555 1_555
O10_13 Sc6_4 1_555 1_555
O11_13 Sc6_4 1_555 1_555
Sc6_5 O3_8 1_555 1_555
F1_8 C4_8 1_555 1_555
O3_8 C5_8 1_555 1_555
C2_8 C4_8 1_555 1_555
F2_8 C3_8 1_555 1_555
C3_8 C6_8 1_555 1_555
C4_8 C6_8 1_555 1_555
C5_8 C2_8 1_555 1_555
C7_8 C9_8 1_555 1_555
F3_8 C8_8 1_555 1_555
O4_8 C5_8 1_555 1_555
C8_8 C2_8 1_555 1_555
C9_8 C3_8 1_555 1_555
O5_6 C7_8 1_555 1_555
O9_3 C7_8 1_555 1_555
Sc5_6 O5_6 1_555 1_555
Sc5_5 O4_8 1_555 1_555
O7_13 Sc6_5 1_555 1_555
C8_8 C9_8 1_555 1_555
O7_14 Sc5_6 1_555 1_555
O10_14 Sc5_6 1_555 1_555
O11_14 Sc5_6 1_555 1_555
O7_15 Sc6 1_555 1_555
O10_15 Sc6 1_555 1_555
O11_15 Sc6 1_555 1_555
O7_16 Sc5_5 1_555 1_555
O10_16 Sc5_5 1_555 1_555
O11_16 Sc5_5 1_555 1_555
O11 C5_9 1_555 1_555
C2_9 C4_9 1_555 1_555
F2_9 C3_9 1_555 1_555
C3_9 C6_9 1_555 1_555
C4_9 C6_9 1_555 1_555
C5_9 C2_9 1_555 1_555
C7_9 C9_9 1_555 1_555
F3_9 C8_9 1_555 1_555
O11_12 C5_9 1_555 1_555
C8_9 C2_9 1_555 1_555
C9_9 C3_9 1_555 1_555
O7_14 C7_9 1_555 1_555
O10_11 C7_9 1_555 1_555
C8_9 C9_9 1_555 1_555
C1_10 O7_12 1_555 1_555
F1_10 C4_10 1_555 1_555
O10_9 C1_10 1_555 1_555
O11_14 C5_10 1_555 1_555
C2_10 C4_10 1_555 1_555
C3_10 C6_10 1_555 1_555
C4_10 C6_10 1_555 1_555
C5_10 C2_10 1_555 1_555
C6_10 C1_10 1_555 1_555
O11_3 C5_10 1_555 1_555
C8_10 C2_10 1_555 1_555
C9_10 C3_10 1_555 1_555
C8_10 C9_10 1_555 1_555
O10_4 C7_10 1_555 1_555
O11_7 C5_11 1_555 1_555
C2_11 C4_11 1_555 1_555
F2_11 C3_11 1_555 1_555
C3_11 C6_11 1_555 1_555
C4_11 C6_11 1_555 1_555
C5_11 C2_11 1_555 1_555
F3_11 C8_11 1_555 1_555
O11_10 C5_11 1_555 1_555
C8_11 C2_11 1_555 1_555
C9_11 C3_11 1_555 1_555
C8_11 C9_11 1_555 1_555
O7_16 C7_11 1_555 1_555
O10_8 C1_11 1_555 1_555
O11_5 C5_12 1_555 1_555
C2_12 C4_12 1_555 1_555
F2_12 C3_12 1_555 1_555
C3_12 C6_12 1_555 1_555
C4_12 C6_12 1_555 1_555
C5_12 C2_12 1_555 1_555
C7_12 C9_12 1_555 1_555
F3_12 C8_12 1_555 1_555
O11_16 C5_12 1_555 1_555
C8_12 C2_12 1_555 1_555
C9_12 C3_12 1_555 1_555
O7_10 C7_12 1_555 1_555
O10_15 C7_12 1_555 1_555
C8_12 C9_12 1_555 1_555
O10_2 C1_12 1_555 1_555
C1_13 O7_11 1_555 1_555
F1_13 C4_13 1_555 1_555
O10_14 C1_13 1_555 1_555
O11_9 C5_13 1_555 1_555
C2_13 C4_13 1_555 1_555
F2_13 C3_13 1_555 1_555
C3_13 C6_13 1_555 1_555
C4_13 C6_13 1_555 1_555
C5_13 C2_13 1_555 1_555
C6_13 C1_13 1_555 1_555
C7_13 C9_13 1_555 1_555
F3_13 C8_13 1_555 1_555
O11_4 C5_13 1_555 1_555
C8_13 C2_13 1_555 1_555
C9_13 C3_13 1_555 1_555
O7_6 C7_13 1_555 1_555
O10_3 C7_13 1_555 1_555
C8_13 C9_13 1_555 1_555
F1_14 C4_14 1_555 1_555
O11_6 C5_14 1_555 1_555
C2_14 C4_14 1_555 1_555
C3_14 C6_14 1_555 1_555
C4_14 C6_14 1_555 1_555
C5_14 C2_14 1_555 1_555
C7_14 C9_14 1_555 1_555
F3_14 C8_14 1_555 1_555
O11_11 C5_14 1_555 1_555
C8_14 C2_14 1_555 1_555
C9_14 C3_14 1_555 1_555
O7_9 C7_14 1_555 1_555
O10_12 C7_14 1_555 1_555
C8_14 C9_14 1_555 1_555
C1_14 O7_4 1_555 1_555
C1_15 O7_13 1_555 1_555
F1_15 C4_15 1_555 1_555
O10_16 C1_15 1_555 1_555
O11_15 C5_15 1_555 1_555
C2_15 C4_15 1_555 1_555
F2_15 C3_15 1_555 1_555
C3_15 C6_15 1_555 1_555
C4_15 C6_15 1_555 1_555
C5_15 C2_15 1_555 1_555
C6_15 C1_15 1_555 1_555
C7_15 C9_15 1_555 1_555
F3_15 C8_15 1_555 1_555
O11_2 C5_15 1_555 1_555
C8_15 C2_15 1_555 1_555
C9_15 C3_15 1_555 1_555
O7_8 C7_15 1_555 1_555
O10_5 C7_15 1_555 1_555
C8_15 C9_15 1_555 1_555
F1_16 C4_16 1_555 1_555
O11_13 C5_16 1_555 1_555
C2_16 C4_16 1_555 1_555
F2_16 C3_16 1_555 1_555
C3_16 C6_16 1_555 1_555
C4_16 C6_16 1_555 1_555
C5_16 C2_16 1_555 1_555
C7_16 C9_16 1_555 1_555
F3_16 C8_16 1_555 1_555
O11_8 C5_16 1_555 1_555
C8_16 C2_16 1_555 1_555
C9_16 C3_16 1_555 1_555
O7_2 C7_16 1_555 1_555
O10_7 C7_16 1_555 1_555
C8_16 C9_16 1_555 1_555
C1_16 O7_15 1_555 1_555

#END
